44579418
  -OEChem-09292322072D

 62 66  0     0  0  0  0  0  0999 V2000
    2.8660   -5.4107    0.0000 F   0  0  0  0  0  0  0  0  0  0  0  0
    6.2619   -3.4107    0.0000 O   0  0  0  0  0  0  0  0  0  0  0  0
    5.6103    0.2456    0.0000 N   0  0  0  0  0  0  0  0  0  0  0  0
    6.5422    3.0972    0.0000 N   0  0  0  0  0  0  0  0  0  0  0  0
    4.6783   -2.6059    0.0000 N   0  0  0  0  0  0  0  0  0  0  0  0
    4.6783   -4.2154    0.0000 N   0  0  0  0  0  0  0  0  0  0  0  0
    5.9209    1.1962    0.0000 C   0  0  0  0  0  0  0  0  0  0  0  0
    4.9889   -1.6554    0.0000 C   0  0  0  0  0  0  0  0  0  0  0  0
    4.6318    0.0394    0.0000 C   0  0  0  0  0  0  0  0  0  0  0  0
    6.2781   -0.4987    0.0000 C   0  0  0  0  0  0  0  0  0  0  0  0
    5.2531    1.9404    0.0000 C   0  0  0  0  0  0  0  0  0  0  0  0
    6.8994    1.4024    0.0000 C   0  0  0  0  0  0  0  0  0  0  0  0
    4.3211   -0.9111    0.0000 C   0  0  0  0  0  0  0  0  0  0  0  0
    5.9674   -1.4492    0.0000 C   0  0  0  0  0  0  0  0  0  0  0  0
    5.5637    2.8910    0.0000 C   0  0  0  0  0  0  0  0  0  0  0  0
    7.2101    2.3529    0.0000 C   0  0  0  0  0  0  0  0  0  0  0  0
    6.8529    4.0477    0.0000 C   0  0  0  0  0  0  0  0  0  0  0  0
    3.7320   -2.9107    0.0000 C   0  0  0  0  0  0  0  0  0  0  0  0
    5.2619   -3.4107    0.0000 C   0  0  0  0  0  0  0  0  0  0  0  0
    3.7320   -3.9107    0.0000 C   0  0  0  0  0  0  0  0  0  0  0  0
    7.8314    4.2539    0.0000 C   0  0  0  0  0  0  0  0  0  0  0  0
    2.8660   -2.4107    0.0000 C   0  0  0  0  0  0  0  0  0  0  0  0
    2.8660   -4.4107    0.0000 C   0  0  0  0  0  0  0  0  0  0  0  0
    8.4993    3.5096    0.0000 C   0  0  0  0  0  0  0  0  0  0  0  0
    8.1421    5.2044    0.0000 C   0  0  0  0  0  0  0  0  0  0  0  0
    2.0000   -2.9107    0.0000 C   0  0  0  0  0  0  0  0  0  0  0  0
    2.0000   -3.9107    0.0000 C   0  0  0  0  0  0  0  0  0  0  0  0
    9.4778    3.7158    0.0000 C   0  0  0  0  0  0  0  0  0  0  0  0
    8.1886    2.5591    0.0000 C   0  0  0  0  0  0  0  0  0  0  0  0
    9.1206    5.4107    0.0000 C   0  0  0  0  0  0  0  0  0  0  0  0
    9.7884    4.6664    0.0000 C   0  0  0  0  0  0  0  0  0  0  0  0
    6.3350    0.7347    0.0000 H   0  0  0  0  0  0  0  0  0  0  0  0
    5.4030   -2.1169    0.0000 H   0  0  0  0  0  0  0  0  0  0  0  0
    4.6112    0.6591    0.0000 H   0  0  0  0  0  0  0  0  0  0  0  0
    4.0179    0.1268    0.0000 H   0  0  0  0  0  0  0  0  0  0  0  0
    6.8250   -0.7907    0.0000 H   0  0  0  0  0  0  0  0  0  0  0  0
    6.6607   -0.0108    0.0000 H   0  0  0  0  0  0  0  0  0  0  0  0
    4.7062    2.2325    0.0000 H   0  0  0  0  0  0  0  0  0  0  0  0
    4.8705    1.4525    0.0000 H   0  0  0  0  0  0  0  0  0  0  0  0
    6.9200    0.7827    0.0000 H   0  0  0  0  0  0  0  0  0  0  0  0
    7.5132    1.3150    0.0000 H   0  0  0  0  0  0  0  0  0  0  0  0
    3.7742   -0.6191    0.0000 H   0  0  0  0  0  0  0  0  0  0  0  0
    3.9385   -1.3990    0.0000 H   0  0  0  0  0  0  0  0  0  0  0  0
    5.9880   -2.0688    0.0000 H   0  0  0  0  0  0  0  0  0  0  0  0
    6.5812   -1.5365    0.0000 H   0  0  0  0  0  0  0  0  0  0  0  0
    5.5432    3.5106    0.0000 H   0  0  0  0  0  0  0  0  0  0  0  0
    4.9499    2.9783    0.0000 H   0  0  0  0  0  0  0  0  0  0  0  0
    7.7570    2.0609    0.0000 H   0  0  0  0  0  0  0  0  0  0  0  0
    7.5926    2.8408    0.0000 H   0  0  0  0  0  0  0  0  0  0  0  0
    6.8323    4.6674    0.0000 H   0  0  0  0  0  0  0  0  0  0  0  0
    6.2391    4.1351    0.0000 H   0  0  0  0  0  0  0  0  0  0  0  0
    4.8709   -4.8047    0.0000 H   0  0  0  0  0  0  0  0  0  0  0  0
    2.8660   -1.7907    0.0000 H   0  0  0  0  0  0  0  0  0  0  0  0
    7.7280    5.6659    0.0000 H   0  0  0  0  0  0  0  0  0  0  0  0
    1.4631   -2.6007    0.0000 H   0  0  0  0  0  0  0  0  0  0  0  0
    1.4631   -4.2207    0.0000 H   0  0  0  0  0  0  0  0  0  0  0  0
    9.8918    3.2544    0.0000 H   0  0  0  0  0  0  0  0  0  0  0  0
    7.5993    2.7517    0.0000 H   0  0  0  0  0  0  0  0  0  0  0  0
    7.9960    1.9698    0.0000 H   0  0  0  0  0  0  0  0  0  0  0  0
    8.7779    2.3665    0.0000 H   0  0  0  0  0  0  0  0  0  0  0  0
    9.3132    6.0000    0.0000 H   0  0  0  0  0  0  0  0  0  0  0  0
   10.3951    4.7942    0.0000 H   0  0  0  0  0  0  0  0  0  0  0  0
  1 23  1  0  0  0  0
  2 19  2  0  0  0  0
  3  7  1  0  0  0  0
  3  9  1  0  0  0  0
  3 10  1  0  0  0  0
  4 15  1  0  0  0  0
  4 16  1  0  0  0  0
  4 17  1  0  0  0  0
  5  8  1  0  0  0  0
  5 18  1  0  0  0  0
  5 19  1  0  0  0  0
  6 19  1  0  0  0  0
  6 20  1  0  0  0  0
  6 52  1  0  0  0  0
  7 11  1  0  0  0  0
  7 12  1  0  0  0  0
  7 32  1  0  0  0  0
  8 13  1  0  0  0  0
  8 14  1  0  0  0  0
  8 33  1  0  0  0  0
  9 13  1  0  0  0  0
  9 34  1  0  0  0  0
  9 35  1  0  0  0  0
 10 14  1  0  0  0  0
 10 36  1  0  0  0  0
 10 37  1  0  0  0  0
 11 15  1  0  0  0  0
 11 38  1  0  0  0  0
 11 39  1  0  0  0  0
 12 16  1  0  0  0  0
 12 40  1  0  0  0  0
 12 41  1  0  0  0  0
 13 42  1  0  0  0  0
 13 43  1  0  0  0  0
 14 44  1  0  0  0  0
 14 45  1  0  0  0  0
 15 46  1  0  0  0  0
 15 47  1  0  0  0  0
 16 48  1  0  0  0  0
 16 49  1  0  0  0  0
 17 21  1  0  0  0  0
 17 50  1  0  0  0  0
 17 51  1  0  0  0  0
 18 20  2  0  0  0  0
 18 22  1  0  0  0  0
 20 23  1  0  0  0  0
 21 24  1  0  0  0  0
 21 25  2  0  0  0  0
 22 26  2  0  0  0  0
 22 53  1  0  0  0  0
 23 27  2  0  0  0  0
 24 28  2  0  0  0  0
 24 29  1  0  0  0  0
 25 30  1  0  0  0  0
 25 54  1  0  0  0  0
 26 27  1  0  0  0  0
 26 55  1  0  0  0  0
 27 56  1  0  0  0  0
 28 31  1  0  0  0  0
 28 57  1  0  0  0  0
 29 58  1  0  0  0  0
 29 59  1  0  0  0  0
 29 60  1  0  0  0  0
 30 31  2  0  0  0  0
 30 61  1  0  0  0  0
 31 62  1  0  0  0  0
M  END
> <PUBCHEM_COMPOUND_CID>
44579418

> <PUBCHEM_COMPOUND_CANONICALIZED>
1

> <PUBCHEM_CACTVS_COMPLEXITY>
617

> <PUBCHEM_CACTVS_HBOND_ACCEPTOR>
4

> <PUBCHEM_CACTVS_HBOND_DONOR>
1

> <PUBCHEM_CACTVS_ROTATABLE_BOND>
4

> <PUBCHEM_CACTVS_SUBSKEYS>
AAADceB7oQAAAAAAAAAAAAAAAAAAAWAAAAA8eIEAAAAAAFgBQAAAHwAQAAAADCjBGAwzwIPAAACIAiRCUACCAAAhAgAIiAAIdIiIYCLA0ZGUIAhohgLIyCcQgIAOgAAAAAAQACAAAAAAACAAQAAAAAAAAA==

> <PUBCHEM_IUPAC_OPENEYE_NAME>
7-fluoro-3-[1-[1-(o-tolylmethyl)-4-piperidyl]-4-piperidyl]-1H-benzimidazol-2-one

> <PUBCHEM_IUPAC_CAS_NAME>
7-fluoro-3-[1-[1-[(2-methylphenyl)methyl]-4-piperidinyl]-4-piperidinyl]-1H-benzimidazol-2-one

> <PUBCHEM_IUPAC_NAME_MARKUP>
7-fluoro-3-[1-[1-[(2-methylphenyl)methyl]piperidin-4-yl]piperidin-4-yl]-1<I>H</I>-benzimidazol-2-one

> <PUBCHEM_IUPAC_NAME>
7-fluoro-3-[1-[1-[(2-methylphenyl)methyl]piperidin-4-yl]piperidin-4-yl]-1H-benzimidazol-2-one

> <PUBCHEM_IUPAC_SYSTEMATIC_NAME>
7-fluoranyl-3-[1-[1-[(2-methylphenyl)methyl]piperidin-4-yl]piperidin-4-yl]-1H-benzimidazol-2-one

> <PUBCHEM_IUPAC_TRADITIONAL_NAME>
7-fluoro-3-[1-[1-(2-methylbenzyl)-4-piperidyl]-4-piperidyl]-1H-benzimidazol-2-one

> <PUBCHEM_IUPAC_INCHI>
InChI=1S/C25H31FN4O/c1-18-5-2-3-6-19(18)17-28-13-9-20(10-14-28)29-15-11-21(12-16-29)30-23-8-4-7-22(26)24(23)27-25(30)31/h2-8,20-21H,9-17H2,1H3,(H,27,31)

> <PUBCHEM_IUPAC_INCHIKEY>
QKEUCDCLCOAHSK-UHFFFAOYSA-N

> <PUBCHEM_XLOGP3_AA>
3.9

> <PUBCHEM_EXACT_MASS>
422.24818979

> <PUBCHEM_MOLECULAR_FORMULA>
C25H31FN4O

> <PUBCHEM_MOLECULAR_WEIGHT>
422.5

> <PUBCHEM_OPENEYE_CAN_SMILES>
CC1=CC=CC=C1CN2CCC(CC2)N3CCC(CC3)N4C5=C(C(=CC=C5)F)NC4=O

> <PUBCHEM_OPENEYE_ISO_SMILES>
CC1=CC=CC=C1CN2CCC(CC2)N3CCC(CC3)N4C5=C(C(=CC=C5)F)NC4=O

> <PUBCHEM_CACTVS_TPSA>
38.8

> <PUBCHEM_MONOISOTOPIC_WEIGHT>
422.24818979

> <PUBCHEM_TOTAL_CHARGE>
0

> <PUBCHEM_HEAVY_ATOM_COUNT>
31

> <PUBCHEM_ATOM_DEF_STEREO_COUNT>
0

> <PUBCHEM_ATOM_UDEF_STEREO_COUNT>
0

> <PUBCHEM_BOND_DEF_STEREO_COUNT>
0

> <PUBCHEM_BOND_UDEF_STEREO_COUNT>
0

> <PUBCHEM_ISOTOPIC_ATOM_COUNT>
0

> <PUBCHEM_COMPONENT_COUNT>
1

> <PUBCHEM_CACTVS_TAUTO_COUNT>
-1

> <PUBCHEM_COORDINATE_TYPE>
1
5
255

> <PUBCHEM_BONDANNOTATIONS>
18  20  8
18  22  8
20  23  8
21  24  8
21  25  8
22  26  8
23  27  8
24  28  8
25  30  8
26  27  8
28  31  8
30  31  8
5  18  8
5  19  8
6  19  8
6  20  8

$$$$
