149438247
  -OEChem-09292322062D

 59 62  0     0  0  0  0  0  0999 V2000
    6.7619   -3.2001    0.0000 O   0  0  0  0  0  0  0  0  0  0  0  0
   11.2619    2.8621    0.0000 O   0  0  0  0  0  0  0  0  0  0  0  0
   15.2619    2.8621    0.0000 O   0  0  0  0  0  0  0  0  0  0  0  0
    7.7619    0.2640    0.0000 N   0  0  0  0  0  0  0  0  0  0  0  0
    6.7619   -1.4680    0.0000 N   0  0  0  0  0  0  0  0  0  0  0  0
    4.6783   -3.1388    0.0000 N   0  0  0  0  0  0  0  0  0  0  0  0
    6.7619    0.2640    0.0000 C   0  0  0  0  0  0  0  0  0  0  0  0
    8.2619   -0.6020    0.0000 C   0  0  0  0  0  0  0  0  0  0  0  0
    6.2619   -0.6020    0.0000 C   0  0  0  0  0  0  0  0  0  0  0  0
    7.7619   -1.4680    0.0000 C   0  0  0  0  0  0  0  0  0  0  0  0
    8.2619    1.1300    0.0000 C   0  0  0  0  0  0  0  0  0  0  0  0
    9.2619    1.1300    0.0000 C   0  0  0  0  0  0  0  0  0  0  0  0
    6.2619   -2.3341    0.0000 C   0  0  0  0  0  0  0  0  0  0  0  0
    9.7619    1.9961    0.0000 C   0  0  0  0  0  0  0  0  0  0  0  0
    5.2619   -2.3341    0.0000 C   0  0  0  0  0  0  0  0  0  0  0  0
   10.7619    1.9961    0.0000 C   0  0  0  0  0  0  0  0  0  0  0  0
    4.6783   -1.5293    0.0000 C   0  0  0  0  0  0  0  0  0  0  0  0
    3.7320   -2.8341    0.0000 C   0  0  0  0  0  0  0  0  0  0  0  0
    3.7320   -1.8341    0.0000 C   0  0  0  0  0  0  0  0  0  0  0  0
    2.8660   -3.3341    0.0000 C   0  0  0  0  0  0  0  0  0  0  0  0
    2.8660   -1.3341    0.0000 C   0  0  0  0  0  0  0  0  0  0  0  0
    2.0000   -2.8341    0.0000 C   0  0  0  0  0  0  0  0  0  0  0  0
    2.0000   -1.8341    0.0000 C   0  0  0  0  0  0  0  0  0  0  0  0
   12.2619    2.8621    0.0000 C   0  0  0  0  0  0  0  0  0  0  0  0
   12.7619    3.7281    0.0000 C   0  0  0  0  0  0  0  0  0  0  0  0
   12.7619    1.9961    0.0000 C   0  0  0  0  0  0  0  0  0  0  0  0
   13.7619    3.7281    0.0000 C   0  0  0  0  0  0  0  0  0  0  0  0
   13.7619    1.9961    0.0000 C   0  0  0  0  0  0  0  0  0  0  0  0
   14.2619    2.8621    0.0000 C   0  0  0  0  0  0  0  0  0  0  0  0
   15.7619    3.7281    0.0000 C   0  0  0  0  0  0  0  0  0  0  0  0
    6.8695    0.8746    0.0000 H   0  0  0  0  0  0  0  0  0  0  0  0
    6.1793    0.4761    0.0000 H   0  0  0  0  0  0  0  0  0  0  0  0
    8.7368   -1.0005    0.0000 H   0  0  0  0  0  0  0  0  0  0  0  0
    8.7368   -0.2035    0.0000 H   0  0  0  0  0  0  0  0  0  0  0  0
    5.7869   -0.2035    0.0000 H   0  0  0  0  0  0  0  0  0  0  0  0
    5.7869   -1.0005    0.0000 H   0  0  0  0  0  0  0  0  0  0  0  0
    7.6542   -2.0786    0.0000 H   0  0  0  0  0  0  0  0  0  0  0  0
    8.3445   -1.6801    0.0000 H   0  0  0  0  0  0  0  0  0  0  0  0
    8.3695    1.7406    0.0000 H   0  0  0  0  0  0  0  0  0  0  0  0
    7.6793    1.3421    0.0000 H   0  0  0  0  0  0  0  0  0  0  0  0
    9.1542    0.5195    0.0000 H   0  0  0  0  0  0  0  0  0  0  0  0
    9.8445    0.9180    0.0000 H   0  0  0  0  0  0  0  0  0  0  0  0
    9.8695    2.6066    0.0000 H   0  0  0  0  0  0  0  0  0  0  0  0
    9.1793    2.2081    0.0000 H   0  0  0  0  0  0  0  0  0  0  0  0
   10.6542    1.3855    0.0000 H   0  0  0  0  0  0  0  0  0  0  0  0
   11.3445    1.7840    0.0000 H   0  0  0  0  0  0  0  0  0  0  0  0
    4.8709   -3.7281    0.0000 H   0  0  0  0  0  0  0  0  0  0  0  0
    4.8709   -0.9400    0.0000 H   0  0  0  0  0  0  0  0  0  0  0  0
    2.8660   -3.9541    0.0000 H   0  0  0  0  0  0  0  0  0  0  0  0
    2.8660   -0.7141    0.0000 H   0  0  0  0  0  0  0  0  0  0  0  0
    1.4631   -3.1441    0.0000 H   0  0  0  0  0  0  0  0  0  0  0  0
    1.4631   -1.5241    0.0000 H   0  0  0  0  0  0  0  0  0  0  0  0
   12.4519    4.2650    0.0000 H   0  0  0  0  0  0  0  0  0  0  0  0
   12.4519    1.4591    0.0000 H   0  0  0  0  0  0  0  0  0  0  0  0
   14.0719    4.2650    0.0000 H   0  0  0  0  0  0  0  0  0  0  0  0
   14.0719    1.4591    0.0000 H   0  0  0  0  0  0  0  0  0  0  0  0
   16.2988    3.4181    0.0000 H   0  0  0  0  0  0  0  0  0  0  0  0
   16.0719    4.2650    0.0000 H   0  0  0  0  0  0  0  0  0  0  0  0
   15.2249    4.0381    0.0000 H   0  0  0  0  0  0  0  0  0  0  0  0
  1 13  2  0  0  0  0
  2 16  1  0  0  0  0
  2 24  1  0  0  0  0
  3 29  1  0  0  0  0
  3 30  1  0  0  0  0
  4  7  1  0  0  0  0
  4  8  1  0  0  0  0
  4 11  1  0  0  0  0
  5  9  1  0  0  0  0
  5 10  1  0  0  0  0
  5 13  1  0  0  0  0
  6 15  1  0  0  0  0
  6 18  1  0  0  0  0
  6 47  1  0  0  0  0
  7  9  1  0  0  0  0
  7 31  1  0  0  0  0
  7 32  1  0  0  0  0
  8 10  1  0  0  0  0
  8 33  1  0  0  0  0
  8 34  1  0  0  0  0
  9 35  1  0  0  0  0
  9 36  1  0  0  0  0
 10 37  1  0  0  0  0
 10 38  1  0  0  0  0
 11 12  1  0  0  0  0
 11 39  1  0  0  0  0
 11 40  1  0  0  0  0
 12 14  1  0  0  0  0
 12 41  1  0  0  0  0
 12 42  1  0  0  0  0
 13 15  1  0  0  0  0
 14 16  1  0  0  0  0
 14 43  1  0  0  0  0
 14 44  1  0  0  0  0
 15 17  2  0  0  0  0
 16 45  1  0  0  0  0
 16 46  1  0  0  0  0
 17 19  1  0  0  0  0
 17 48  1  0  0  0  0
 18 19  1  0  0  0  0
 18 20  2  0  0  0  0
 19 21  2  0  0  0  0
 20 22  1  0  0  0  0
 20 49  1  0  0  0  0
 21 23  1  0  0  0  0
 21 50  1  0  0  0  0
 22 23  2  0  0  0  0
 22 51  1  0  0  0  0
 23 52  1  0  0  0  0
 24 25  2  0  0  0  0
 24 26  1  0  0  0  0
 25 27  1  0  0  0  0
 25 53  1  0  0  0  0
 26 28  2  0  0  0  0
 26 54  1  0  0  0  0
 27 29  2  0  0  0  0
 27 55  1  0  0  0  0
 28 29  1  0  0  0  0
 28 56  1  0  0  0  0
 30 57  1  0  0  0  0
 30 58  1  0  0  0  0
 30 59  1  0  0  0  0
M  END
> <PUBCHEM_COMPOUND_CID>
149438247

> <PUBCHEM_COMPOUND_CANONICALIZED>
1

> <PUBCHEM_CACTVS_COMPLEXITY>
530

> <PUBCHEM_CACTVS_HBOND_ACCEPTOR>
4

> <PUBCHEM_CACTVS_HBOND_DONOR>
1

> <PUBCHEM_CACTVS_ROTATABLE_BOND>
8

> <PUBCHEM_CACTVS_SUBSKEYS>
AAADceB7MAAAAAAAAAAAAAAAAAAAAWAAAAA8YIAAAAAAAFgB9AAAHgAQAAAADAzhngYyxvPJlACoAyVyVACCiCAnIiAImSG+bNgMZvLEtbuWOSjk1hHI6Yf4yYCeAQAAAAACAAACAAAAAAQAAAAAAAAAAA==

> <PUBCHEM_IUPAC_OPENEYE_NAME>
1H-indol-2-yl-[4-[4-(4-methoxyphenoxy)butyl]piperazin-1-yl]methanone

> <PUBCHEM_IUPAC_CAS_NAME>
1H-indol-2-yl-[4-[4-(4-methoxyphenoxy)butyl]-1-piperazinyl]methanone

> <PUBCHEM_IUPAC_NAME_MARKUP>
1<I>H</I>-indol-2-yl-[4-[4-(4-methoxyphenoxy)butyl]piperazin-1-yl]methanone

> <PUBCHEM_IUPAC_NAME>
1H-indol-2-yl-[4-[4-(4-methoxyphenoxy)butyl]piperazin-1-yl]methanone

> <PUBCHEM_IUPAC_SYSTEMATIC_NAME>
1H-indol-2-yl-[4-[4-(4-methoxyphenoxy)butyl]piperazin-1-yl]methanone

> <PUBCHEM_IUPAC_TRADITIONAL_NAME>
1H-indol-2-yl-[4-[4-(4-methoxyphenoxy)butyl]piperazino]methanone

> <PUBCHEM_IUPAC_INCHI>
InChI=1S/C24H29N3O3/c1-29-20-8-10-21(11-9-20)30-17-5-4-12-26-13-15-27(16-14-26)24(28)23-18-19-6-2-3-7-22(19)25-23/h2-3,6-11,18,25H,4-5,12-17H2,1H3

> <PUBCHEM_IUPAC_INCHIKEY>
YVFUDDSWACLOLC-UHFFFAOYSA-N

> <PUBCHEM_XLOGP3_AA>
4

> <PUBCHEM_EXACT_MASS>
407.22089180

> <PUBCHEM_MOLECULAR_FORMULA>
C24H29N3O3

> <PUBCHEM_MOLECULAR_WEIGHT>
407.5

> <PUBCHEM_OPENEYE_CAN_SMILES>
COC1=CC=C(C=C1)OCCCCN2CCN(CC2)C(=O)C3=CC4=CC=CC=C4N3

> <PUBCHEM_OPENEYE_ISO_SMILES>
COC1=CC=C(C=C1)OCCCCN2CCN(CC2)C(=O)C3=CC4=CC=CC=C4N3

> <PUBCHEM_CACTVS_TPSA>
57.8

> <PUBCHEM_MONOISOTOPIC_WEIGHT>
407.22089180

> <PUBCHEM_TOTAL_CHARGE>
0

> <PUBCHEM_HEAVY_ATOM_COUNT>
30

> <PUBCHEM_ATOM_DEF_STEREO_COUNT>
0

> <PUBCHEM_ATOM_UDEF_STEREO_COUNT>
0

> <PUBCHEM_BOND_DEF_STEREO_COUNT>
0

> <PUBCHEM_BOND_UDEF_STEREO_COUNT>
0

> <PUBCHEM_ISOTOPIC_ATOM_COUNT>
0

> <PUBCHEM_COMPONENT_COUNT>
1

> <PUBCHEM_CACTVS_TAUTO_COUNT>
-1

> <PUBCHEM_COORDINATE_TYPE>
1
5
255

> <PUBCHEM_BONDANNOTATIONS>
15  17  8
17  19  8
18  19  8
18  20  8
19  21  8
20  22  8
21  23  8
22  23  8
24  25  8
24  26  8
25  27  8
26  28  8
27  29  8
28  29  8
6  15  8
6  18  8

$$$$
