10548967
  -OEChem-09292322102D

 54 57  0     0  0  0  0  0  0999 V2000
   15.0583   -2.5173    0.0000 Cl  0  0  0  0  0  0  0  0  0  0  0  0
    6.3981   -0.5173    0.0000 O   0  0  0  0  0  0  0  0  0  0  0  0
    2.8680    0.4585    0.0000 O   0  0  0  0  0  0  0  0  0  0  0  0
    9.8622    0.4827    0.0000 N   0  0  0  0  0  0  0  0  0  0  0  0
   11.5942   -0.5173    0.0000 N   0  0  0  0  0  0  0  0  0  0  0  0
    7.2641    0.9827    0.0000 N   0  0  0  0  0  0  0  0  0  0  0  0
    9.8622   -0.5173    0.0000 C   0  0  0  0  0  0  0  0  0  0  0  0
   10.7282    0.9827    0.0000 C   0  0  0  0  0  0  0  0  0  0  0  0
    8.9962    0.9827    0.0000 C   0  0  0  0  0  0  0  0  0  0  0  0
   10.7282   -1.0173    0.0000 C   0  0  0  0  0  0  0  0  0  0  0  0
   11.5942    0.4827    0.0000 C   0  0  0  0  0  0  0  0  0  0  0  0
    8.1301    0.4827    0.0000 C   0  0  0  0  0  0  0  0  0  0  0  0
    7.2641    1.9827    0.0000 C   0  0  0  0  0  0  0  0  0  0  0  0
    6.3981    2.4827    0.0000 C   0  0  0  0  0  0  0  0  0  0  0  0
   12.4602   -1.0173    0.0000 C   0  0  0  0  0  0  0  0  0  0  0  0
    6.3981    0.4827    0.0000 C   0  0  0  0  0  0  0  0  0  0  0  0
    5.5320    1.9827    0.0000 C   0  0  0  0  0  0  0  0  0  0  0  0
    5.5320    0.9827    0.0000 C   0  0  0  0  0  0  0  0  0  0  0  0
    4.6381    2.5173    0.0000 C   0  0  0  0  0  0  0  0  0  0  0  0
   13.3263   -0.5173    0.0000 C   0  0  0  0  0  0  0  0  0  0  0  0
   12.4602   -2.0173    0.0000 C   0  0  0  0  0  0  0  0  0  0  0  0
    4.6381    0.4480    0.0000 C   0  0  0  0  0  0  0  0  0  0  0  0
    3.7320    0.9619    0.0000 C   0  0  0  0  0  0  0  0  0  0  0  0
    3.7320    2.0035    0.0000 C   0  0  0  0  0  0  0  0  0  0  0  0
   14.1923   -1.0173    0.0000 C   0  0  0  0  0  0  0  0  0  0  0  0
   13.3263   -2.5173    0.0000 C   0  0  0  0  0  0  0  0  0  0  0  0
   14.1923   -2.0173    0.0000 C   0  0  0  0  0  0  0  0  0  0  0  0
    2.0000    0.9552    0.0000 C   0  0  0  0  0  0  0  0  0  0  0  0
    9.2516   -0.4097    0.0000 H   0  0  0  0  0  0  0  0  0  0  0  0
    9.6501   -1.0999    0.0000 H   0  0  0  0  0  0  0  0  0  0  0  0
   11.1267    1.4576    0.0000 H   0  0  0  0  0  0  0  0  0  0  0  0
   10.3297    1.4576    0.0000 H   0  0  0  0  0  0  0  0  0  0  0  0
    9.3947    1.4576    0.0000 H   0  0  0  0  0  0  0  0  0  0  0  0
    8.5976    1.4576    0.0000 H   0  0  0  0  0  0  0  0  0  0  0  0
   10.3297   -1.4923    0.0000 H   0  0  0  0  0  0  0  0  0  0  0  0
   11.1267   -1.4923    0.0000 H   0  0  0  0  0  0  0  0  0  0  0  0
   12.2048    0.3750    0.0000 H   0  0  0  0  0  0  0  0  0  0  0  0
   11.8063    1.0653    0.0000 H   0  0  0  0  0  0  0  0  0  0  0  0
    7.7316    0.0077    0.0000 H   0  0  0  0  0  0  0  0  0  0  0  0
    8.5287    0.0077    0.0000 H   0  0  0  0  0  0  0  0  0  0  0  0
    7.8747    1.8750    0.0000 H   0  0  0  0  0  0  0  0  0  0  0  0
    7.4762    2.5653    0.0000 H   0  0  0  0  0  0  0  0  0  0  0  0
    6.7966    2.9576    0.0000 H   0  0  0  0  0  0  0  0  0  0  0  0
    5.9995    2.9576    0.0000 H   0  0  0  0  0  0  0  0  0  0  0  0
    4.6453    3.1373    0.0000 H   0  0  0  0  0  0  0  0  0  0  0  0
   13.3263    0.1027    0.0000 H   0  0  0  0  0  0  0  0  0  0  0  0
   11.9233   -2.3273    0.0000 H   0  0  0  0  0  0  0  0  0  0  0  0
    4.6453   -0.1720    0.0000 H   0  0  0  0  0  0  0  0  0  0  0  0
    3.1963    2.3156    0.0000 H   0  0  0  0  0  0  0  0  0  0  0  0
   14.7292   -0.7073    0.0000 H   0  0  0  0  0  0  0  0  0  0  0  0
   13.3263   -3.1373    0.0000 H   0  0  0  0  0  0  0  0  0  0  0  0
    2.3079    1.4933    0.0000 H   0  0  0  0  0  0  0  0  0  0  0  0
    1.4619    1.2631    0.0000 H   0  0  0  0  0  0  0  0  0  0  0  0
    1.6921    0.4171    0.0000 H   0  0  0  0  0  0  0  0  0  0  0  0
  1 27  1  0  0  0  0
  2 16  2  0  0  0  0
  3 23  1  0  0  0  0
  3 28  1  0  0  0  0
  4  7  1  0  0  0  0
  4  8  1  0  0  0  0
  4  9  1  0  0  0  0
  5 10  1  0  0  0  0
  5 11  1  0  0  0  0
  5 15  1  0  0  0  0
  6 12  1  0  0  0  0
  6 13  1  0  0  0  0
  6 16  1  0  0  0  0
  7 10  1  0  0  0  0
  7 29  1  0  0  0  0
  7 30  1  0  0  0  0
  8 11  1  0  0  0  0
  8 31  1  0  0  0  0
  8 32  1  0  0  0  0
  9 12  1  0  0  0  0
  9 33  1  0  0  0  0
  9 34  1  0  0  0  0
 10 35  1  0  0  0  0
 10 36  1  0  0  0  0
 11 37  1  0  0  0  0
 11 38  1  0  0  0  0
 12 39  1  0  0  0  0
 12 40  1  0  0  0  0
 13 14  1  0  0  0  0
 13 41  1  0  0  0  0
 13 42  1  0  0  0  0
 14 17  1  0  0  0  0
 14 43  1  0  0  0  0
 14 44  1  0  0  0  0
 15 20  2  0  0  0  0
 15 21  1  0  0  0  0
 16 18  1  0  0  0  0
 17 18  2  0  0  0  0
 17 19  1  0  0  0  0
 18 22  1  0  0  0  0
 19 24  2  0  0  0  0
 19 45  1  0  0  0  0
 20 25  1  0  0  0  0
 20 46  1  0  0  0  0
 21 26  2  0  0  0  0
 21 47  1  0  0  0  0
 22 23  2  0  0  0  0
 22 48  1  0  0  0  0
 23 24  1  0  0  0  0
 24 49  1  0  0  0  0
 25 27  2  0  0  0  0
 25 50  1  0  0  0  0
 26 27  1  0  0  0  0
 26 51  1  0  0  0  0
 28 52  1  0  0  0  0
 28 53  1  0  0  0  0
 28 54  1  0  0  0  0
M  END
> <PUBCHEM_COMPOUND_CID>
10548967

> <PUBCHEM_COMPOUND_CANONICALIZED>
1

> <PUBCHEM_CACTVS_COMPLEXITY>
518

> <PUBCHEM_CACTVS_HBOND_ACCEPTOR>
4

> <PUBCHEM_CACTVS_HBOND_DONOR>
0

> <PUBCHEM_CACTVS_ROTATABLE_BOND>
5

> <PUBCHEM_CACTVS_SUBSKEYS>
AAADceB7MAAEAAAAAAAAAAAAAAAAAAAAAAA8eIEAAAAAAACxQAAAHgIAAAAADA7BmCYyxoMABACIAiVSUACCCAAlJwAIiAEObsgMZjLFt5uUMShkxhHI6Ye6yZCOoABBAAAQAABAAIIAACAAAAAAAAAAAA==

> <PUBCHEM_IUPAC_OPENEYE_NAME>
2-[2-[4-(4-chlorophenyl)piperazin-1-yl]ethyl]-7-methoxy-3,4-dihydroisoquinolin-1-one

> <PUBCHEM_IUPAC_CAS_NAME>
2-[2-[4-(4-chlorophenyl)-1-piperazinyl]ethyl]-7-methoxy-3,4-dihydroisoquinolin-1-one

> <PUBCHEM_IUPAC_NAME_MARKUP>
2-[2-[4-(4-chlorophenyl)piperazin-1-yl]ethyl]-7-methoxy-3,4-dihydroisoquinolin-1-one

> <PUBCHEM_IUPAC_NAME>
2-[2-[4-(4-chlorophenyl)piperazin-1-yl]ethyl]-7-methoxy-3,4-dihydroisoquinolin-1-one

> <PUBCHEM_IUPAC_SYSTEMATIC_NAME>
2-[2-[4-(4-chlorophenyl)piperazin-1-yl]ethyl]-7-methoxy-3,4-dihydroisoquinolin-1-one

> <PUBCHEM_IUPAC_TRADITIONAL_NAME>
2-[2-[4-(4-chlorophenyl)piperazino]ethyl]-7-methoxy-3,4-dihydroisocarbostyril

> <PUBCHEM_IUPAC_INCHI>
InChI=1S/C22H26ClN3O2/c1-28-20-7-2-17-8-9-26(22(27)21(17)16-20)15-12-24-10-13-25(14-11-24)19-5-3-18(23)4-6-19/h2-7,16H,8-15H2,1H3

> <PUBCHEM_IUPAC_INCHIKEY>
FLUICVJCLNQVDT-UHFFFAOYSA-N

> <PUBCHEM_XLOGP3_AA>
3.6

> <PUBCHEM_EXACT_MASS>
399.1713548

> <PUBCHEM_MOLECULAR_FORMULA>
C22H26ClN3O2

> <PUBCHEM_MOLECULAR_WEIGHT>
399.9

> <PUBCHEM_OPENEYE_CAN_SMILES>
COC1=CC2=C(CCN(C2=O)CCN3CCN(CC3)C4=CC=C(C=C4)Cl)C=C1

> <PUBCHEM_OPENEYE_ISO_SMILES>
COC1=CC2=C(CCN(C2=O)CCN3CCN(CC3)C4=CC=C(C=C4)Cl)C=C1

> <PUBCHEM_CACTVS_TPSA>
36

> <PUBCHEM_MONOISOTOPIC_WEIGHT>
399.1713548

> <PUBCHEM_TOTAL_CHARGE>
0

> <PUBCHEM_HEAVY_ATOM_COUNT>
28

> <PUBCHEM_ATOM_DEF_STEREO_COUNT>
0

> <PUBCHEM_ATOM_UDEF_STEREO_COUNT>
0

> <PUBCHEM_BOND_DEF_STEREO_COUNT>
0

> <PUBCHEM_BOND_UDEF_STEREO_COUNT>
0

> <PUBCHEM_ISOTOPIC_ATOM_COUNT>
0

> <PUBCHEM_COMPONENT_COUNT>
1

> <PUBCHEM_CACTVS_TAUTO_COUNT>
-1

> <PUBCHEM_COORDINATE_TYPE>
1
5
255

> <PUBCHEM_BONDANNOTATIONS>
15  20  8
15  21  8
17  18  8
17  19  8
18  22  8
19  24  8
20  25  8
21  26  8
22  23  8
23  24  8
25  27  8
26  27  8

$$$$
