45261817
  -OEChem-09292322512D

 38 39  0     0  0  0  0  0  0999 V2000
    5.8207    3.6519    0.0000 Cl  0  0  0  0  0  0  0  0  0  0  0  0
    0.5901    3.6200    0.0000 O   0  0  0  0  0  0  0  0  0  0  0  0
    2.3222    1.6200    0.0000 N   0  0  0  0  0  0  0  0  0  0  0  0
    2.3222    3.6200    0.0000 C   0  0  0  0  0  0  0  0  0  0  0  0
    1.4562    3.1200    0.0000 C   0  0  0  0  0  0  0  0  0  0  0  0
    3.1882    3.1200    0.0000 C   0  0  0  0  0  0  0  0  0  0  0  0
    3.1882    4.1200    0.0000 C   0  0  0  0  0  0  0  0  0  0  0  0
    1.4562    2.1200    0.0000 C   0  0  0  0  0  0  0  0  0  0  0  0
    3.1882    2.1200    0.0000 C   0  0  0  0  0  0  0  0  0  0  0  0
    1.4562    4.1200    0.0000 C   0  0  0  0  0  0  0  0  0  0  0  0
    3.1882    5.1200    0.0000 C   0  0  0  0  0  0  0  0  0  0  0  0
    1.4562    5.1200    0.0000 C   0  0  0  0  0  0  0  0  0  0  0  0
    2.3222    5.6200    0.0000 C   0  0  0  0  0  0  0  0  0  0  0  0
    2.3222    0.6200    0.0000 C   0  0  0  0  0  0  0  0  0  0  0  0
    0.5462    5.6268    0.0000 C   0  0  0  0  0  0  0  0  0  0  0  0
    2.3382    6.6615    0.0000 C   0  0  0  0  0  0  0  0  0  0  0  0
    0.5381    6.6684    0.0000 C   0  0  0  0  0  0  0  0  0  0  0  0
    1.4402    7.1893    0.0000 C   0  0  0  0  0  0  0  0  0  0  0  0
    1.2441    3.7026    0.0000 H   0  0  0  0  0  0  0  0  0  0  0  0
    0.8456    3.0123    0.0000 H   0  0  0  0  0  0  0  0  0  0  0  0
    3.7988    3.0123    0.0000 H   0  0  0  0  0  0  0  0  0  0  0  0
    3.4003    3.7026    0.0000 H   0  0  0  0  0  0  0  0  0  0  0  0
    3.4003    3.5374    0.0000 H   0  0  0  0  0  0  0  0  0  0  0  0
    3.7988    4.2277    0.0000 H   0  0  0  0  0  0  0  0  0  0  0  0
    0.8456    2.2277    0.0000 H   0  0  0  0  0  0  0  0  0  0  0  0
    1.2441    1.5374    0.0000 H   0  0  0  0  0  0  0  0  0  0  0  0
    3.4003    1.5374    0.0000 H   0  0  0  0  0  0  0  0  0  0  0  0
    3.7988    2.2277    0.0000 H   0  0  0  0  0  0  0  0  0  0  0  0
    3.7988    5.0123    0.0000 H   0  0  0  0  0  0  0  0  0  0  0  0
    3.4003    5.7026    0.0000 H   0  0  0  0  0  0  0  0  0  0  0  0
    1.7022    0.6200    0.0000 H   0  0  0  0  0  0  0  0  0  0  0  0
    2.3222    0.0000    0.0000 H   0  0  0  0  0  0  0  0  0  0  0  0
    2.9422    0.6200    0.0000 H   0  0  0  0  0  0  0  0  0  0  0  0
    0.0128    5.3107    0.0000 H   0  0  0  0  0  0  0  0  0  0  0  0
    2.8787    6.9653    0.0000 H   0  0  0  0  0  0  0  0  0  0  0  0
    0.0000    6.9764    0.0000 H   0  0  0  0  0  0  0  0  0  0  0  0
    1.4426    7.8093    0.0000 H   0  0  0  0  0  0  0  0  0  0  0  0
    6.8207    3.6519    0.0000 H   0  0  0  0  0  0  0  0  0  0  0  0
  1 38  1  0  0  0  0
  2 10  2  0  0  0  0
  3  8  1  0  0  0  0
  3  9  1  0  0  0  0
  3 14  1  0  0  0  0
  4  5  1  0  0  0  0
  4  6  1  0  0  0  0
  4  7  1  0  0  0  0
  4 10  1  0  0  0  0
  5  8  1  0  0  0  0
  5 19  1  0  0  0  0
  5 20  1  0  0  0  0
  6  9  1  0  0  0  0
  6 21  1  0  0  0  0
  6 22  1  0  0  0  0
  7 11  1  0  0  0  0
  7 23  1  0  0  0  0
  7 24  1  0  0  0  0
  8 25  1  0  0  0  0
  8 26  1  0  0  0  0
  9 27  1  0  0  0  0
  9 28  1  0  0  0  0
 10 12  1  0  0  0  0
 11 13  1  0  0  0  0
 11 29  1  0  0  0  0
 11 30  1  0  0  0  0
 12 13  1  0  0  0  0
 12 15  2  0  0  0  0
 13 16  2  0  0  0  0
 14 31  1  0  0  0  0
 14 32  1  0  0  0  0
 14 33  1  0  0  0  0
 15 17  1  0  0  0  0
 15 34  1  0  0  0  0
 16 18  1  0  0  0  0
 16 35  1  0  0  0  0
 17 18  2  0  0  0  0
 17 36  1  0  0  0  0
 18 37  1  0  0  0  0
M  END
> <PUBCHEM_COMPOUND_CID>
45261817

> <PUBCHEM_COMPOUND_CANONICALIZED>
1

> <PUBCHEM_CACTVS_COMPLEXITY>
304

> <PUBCHEM_CACTVS_HBOND_ACCEPTOR>
2

> <PUBCHEM_CACTVS_HBOND_DONOR>
1

> <PUBCHEM_CACTVS_ROTATABLE_BOND>
0

> <PUBCHEM_CACTVS_SUBSKEYS>
AAADceByIAAEAAAAAAAAAAAAAAAAAAAAAAA8YIAAAAAAAADBAAAAHgAAAAAADgTBmAQyAIMAAACIAqBSAAACAAAkAAAIiAEIAMgIIDKAlRCEIQAggACIiYcciMCPgAAAAAAQAACAAAQAACAAAAAAAAAAAA==

> <PUBCHEM_IUPAC_OPENEYE_NAME>
1-methylspiro[piperidine-4,2'-tetralin]-1'-one;hydrochloride

> <PUBCHEM_IUPAC_CAS_NAME>
1'-methyl-1-spiro[3,4-dihydronaphthalene-2,4'-piperidine]one;hydrochloride

> <PUBCHEM_IUPAC_NAME_MARKUP>
1&apos;-methylspiro[3,4-dihydronaphthalene-2,4&apos;-piperidine]-1-one;hydrochloride

> <PUBCHEM_IUPAC_NAME>
1'-methylspiro[3,4-dihydronaphthalene-2,4'-piperidine]-1-one;hydrochloride

> <PUBCHEM_IUPAC_SYSTEMATIC_NAME>
1'-methylspiro[3,4-dihydronaphthalene-2,4'-piperidine]-1-one;hydrochloride

> <PUBCHEM_IUPAC_TRADITIONAL_NAME>
1-methylspiro[piperidine-4,2'-tetralin]-1'-one;hydrochloride

> <PUBCHEM_IUPAC_INCHI>
InChI=1S/C15H19NO.ClH/c1-16-10-8-15(9-11-16)7-6-12-4-2-3-5-13(12)14(15)17;/h2-5H,6-11H2,1H3;1H

> <PUBCHEM_IUPAC_INCHIKEY>
LUIAJWPVNWGFAL-UHFFFAOYSA-N

> <PUBCHEM_EXACT_MASS>
265.1233420

> <PUBCHEM_MOLECULAR_FORMULA>
C15H20ClNO

> <PUBCHEM_MOLECULAR_WEIGHT>
265.78

> <PUBCHEM_OPENEYE_CAN_SMILES>
CN1CCC2(CCC3=CC=CC=C3C2=O)CC1.Cl

> <PUBCHEM_OPENEYE_ISO_SMILES>
CN1CCC2(CCC3=CC=CC=C3C2=O)CC1.Cl

> <PUBCHEM_CACTVS_TPSA>
20.3

> <PUBCHEM_MONOISOTOPIC_WEIGHT>
265.1233420

> <PUBCHEM_TOTAL_CHARGE>
0

> <PUBCHEM_HEAVY_ATOM_COUNT>
18

> <PUBCHEM_ATOM_DEF_STEREO_COUNT>
0

> <PUBCHEM_ATOM_UDEF_STEREO_COUNT>
0

> <PUBCHEM_BOND_DEF_STEREO_COUNT>
0

> <PUBCHEM_BOND_UDEF_STEREO_COUNT>
0

> <PUBCHEM_ISOTOPIC_ATOM_COUNT>
0

> <PUBCHEM_COMPONENT_COUNT>
2

> <PUBCHEM_CACTVS_TAUTO_COUNT>
-1

> <PUBCHEM_COORDINATE_TYPE>
1
5
255

> <PUBCHEM_BONDANNOTATIONS>
12  13  8
12  15  8
13  16  8
15  17  8
16  18  8
17  18  8

$$$$
