44369992
  -OEChem-09292322192D

 59 62  0     1  0  0  0  0  0999 V2000
   14.1903    1.0682    0.0000 F   0  0  0  0  0  0  0  0  0  0  0  0
    5.4804   -2.0173    0.0000 O   0  0  0  0  0  0  0  0  0  0  0  0
   10.7378   -1.9452    0.0000 O   0  0  0  0  0  0  0  0  0  0  0  0
    2.0000    1.0173    0.0000 O   0  0  0  0  0  0  0  0  0  0  0  0
    2.0000   -0.9827    0.0000 O   0  0  0  0  0  0  0  0  0  0  0  0
    8.1301    0.5448    0.0000 N   0  0  0  0  0  0  0  0  0  0  0  0
    6.3981    0.5381    0.0000 C   0  0  3  0  0  0  0  0  0  0  0  0
    7.2622    1.0414    0.0000 C   0  0  0  0  0  0  0  0  0  0  0  0
    9.8660   -0.4485    0.0000 C   0  0  0  0  0  0  0  0  0  0  0  0
    8.1340   -0.4552    0.0000 C   0  0  0  0  0  0  0  0  0  0  0  0
    8.9942    1.0481    0.0000 C   0  0  0  0  0  0  0  0  0  0  0  0
    9.0019   -0.9519    0.0000 C   0  0  0  0  0  0  0  0  0  0  0  0
    9.8622    0.5515    0.0000 C   0  0  0  0  0  0  0  0  0  0  0  0
    5.4920    1.0520    0.0000 C   0  0  0  0  0  0  0  0  0  0  0  0
    6.3981   -0.5035    0.0000 C   0  0  0  0  0  0  0  0  0  0  0  0
    4.5981    0.5173    0.0000 C   0  0  0  0  0  0  0  0  0  0  0  0
    5.4920   -1.0174    0.0000 C   0  0  0  0  0  0  0  0  0  0  0  0
   10.7340   -0.9452    0.0000 C   0  0  0  0  0  0  0  0  0  0  0  0
    4.5981   -0.4827    0.0000 C   0  0  0  0  0  0  0  0  0  0  0  0
    3.7320    1.0173    0.0000 C   0  0  0  0  0  0  0  0  0  0  0  0
    3.7320   -0.9827    0.0000 C   0  0  0  0  0  0  0  0  0  0  0  0
   11.5981   -0.4419    0.0000 C   0  0  0  0  0  0  0  0  0  0  0  0
    2.8660    0.5173    0.0000 C   0  0  0  0  0  0  0  0  0  0  0  0
    2.8660   -0.4827    0.0000 C   0  0  0  0  0  0  0  0  0  0  0  0
   12.4660   -0.9385    0.0000 C   0  0  0  0  0  0  0  0  0  0  0  0
   11.5942    0.5581    0.0000 C   0  0  0  0  0  0  0  0  0  0  0  0
   13.3301   -0.4352    0.0000 C   0  0  0  0  0  0  0  0  0  0  0  0
   12.4583    1.0615    0.0000 C   0  0  0  0  0  0  0  0  0  0  0  0
   13.3262    0.5648    0.0000 C   0  0  0  0  0  0  0  0  0  0  0  0
    2.0000    2.0173    0.0000 C   0  0  0  0  0  0  0  0  0  0  0  0
    2.0000   -1.9827    0.0000 C   0  0  0  0  0  0  0  0  0  0  0  0
    6.9356    0.2291    0.0000 H   0  0  0  0  0  0  0  0  0  0  0  0
    7.6589    1.5179    0.0000 H   0  0  0  0  0  0  0  0  0  0  0  0
    6.8618    1.5148    0.0000 H   0  0  0  0  0  0  0  0  0  0  0  0
    9.8684   -1.0685    0.0000 H   0  0  0  0  0  0  0  0  0  0  0  0
    7.5230   -0.3499    0.0000 H   0  0  0  0  0  0  0  0  0  0  0  0
    7.9242   -1.0386    0.0000 H   0  0  0  0  0  0  0  0  0  0  0  0
    9.3909    1.5246    0.0000 H   0  0  0  0  0  0  0  0  0  0  0  0
    8.5939    1.5215    0.0000 H   0  0  0  0  0  0  0  0  0  0  0  0
    8.6052   -1.4283    0.0000 H   0  0  0  0  0  0  0  0  0  0  0  0
    9.4023   -1.4253    0.0000 H   0  0  0  0  0  0  0  0  0  0  0  0
   10.4732    0.4462    0.0000 H   0  0  0  0  0  0  0  0  0  0  0  0
   10.0720    1.1349    0.0000 H   0  0  0  0  0  0  0  0  0  0  0  0
    5.8856    1.5310    0.0000 H   0  0  0  0  0  0  0  0  0  0  0  0
    5.0874    1.5218    0.0000 H   0  0  0  0  0  0  0  0  0  0  0  0
    6.6071   -1.0872    0.0000 H   0  0  0  0  0  0  0  0  0  0  0  0
    7.0089   -0.3974    0.0000 H   0  0  0  0  0  0  0  0  0  0  0  0
    3.7320    1.6373    0.0000 H   0  0  0  0  0  0  0  0  0  0  0  0
    3.7320   -1.6027    0.0000 H   0  0  0  0  0  0  0  0  0  0  0  0
   12.4684   -1.5585    0.0000 H   0  0  0  0  0  0  0  0  0  0  0  0
   11.0561    0.8661    0.0000 H   0  0  0  0  0  0  0  0  0  0  0  0
   13.8682   -0.7431    0.0000 H   0  0  0  0  0  0  0  0  0  0  0  0
   12.4559    1.6815    0.0000 H   0  0  0  0  0  0  0  0  0  0  0  0
    2.6200    2.0173    0.0000 H   0  0  0  0  0  0  0  0  0  0  0  0
    2.0000    2.6373    0.0000 H   0  0  0  0  0  0  0  0  0  0  0  0
    1.3800    2.0173    0.0000 H   0  0  0  0  0  0  0  0  0  0  0  0
    1.3800   -1.9827    0.0000 H   0  0  0  0  0  0  0  0  0  0  0  0
    2.0000   -2.6027    0.0000 H   0  0  0  0  0  0  0  0  0  0  0  0
    2.6200   -1.9827    0.0000 H   0  0  0  0  0  0  0  0  0  0  0  0
  1 29  1  0  0  0  0
  2 17  2  0  0  0  0
  3 18  2  0  0  0  0
  4 23  1  0  0  0  0
  4 30  1  0  0  0  0
  5 24  1  0  0  0  0
  5 31  1  0  0  0  0
  6  8  1  0  0  0  0
  6 10  1  0  0  0  0
  6 11  1  0  0  0  0
  7  8  1  0  0  0  0
  7 14  1  0  0  0  0
  7 15  1  0  0  0  0
  7 32  1  0  0  0  0
  8 33  1  0  0  0  0
  8 34  1  0  0  0  0
  9 12  1  0  0  0  0
  9 13  1  0  0  0  0
  9 18  1  0  0  0  0
  9 35  1  0  0  0  0
 10 12  1  0  0  0  0
 10 36  1  0  0  0  0
 10 37  1  0  0  0  0
 11 13  1  0  0  0  0
 11 38  1  0  0  0  0
 11 39  1  0  0  0  0
 12 40  1  0  0  0  0
 12 41  1  0  0  0  0
 13 42  1  0  0  0  0
 13 43  1  0  0  0  0
 14 16  1  0  0  0  0
 14 44  1  0  0  0  0
 14 45  1  0  0  0  0
 15 17  1  0  0  0  0
 15 46  1  0  0  0  0
 15 47  1  0  0  0  0
 16 19  1  0  0  0  0
 16 20  2  0  0  0  0
 17 19  1  0  0  0  0
 18 22  1  0  0  0  0
 19 21  2  0  0  0  0
 20 23  1  0  0  0  0
 20 48  1  0  0  0  0
 21 24  1  0  0  0  0
 21 49  1  0  0  0  0
 22 25  2  0  0  0  0
 22 26  1  0  0  0  0
 23 24  2  0  0  0  0
 25 27  1  0  0  0  0
 25 50  1  0  0  0  0
 26 28  2  0  0  0  0
 26 51  1  0  0  0  0
 27 29  2  0  0  0  0
 27 52  1  0  0  0  0
 28 29  1  0  0  0  0
 28 53  1  0  0  0  0
 30 54  1  0  0  0  0
 30 55  1  0  0  0  0
 30 56  1  0  0  0  0
 31 57  1  0  0  0  0
 31 58  1  0  0  0  0
 31 59  1  0  0  0  0
M  END
> <PUBCHEM_COMPOUND_CID>
44369992

> <PUBCHEM_COMPOUND_CANONICALIZED>
1

> <PUBCHEM_CACTVS_COMPLEXITY>
627

> <PUBCHEM_CACTVS_HBOND_ACCEPTOR>
6

> <PUBCHEM_CACTVS_HBOND_DONOR>
0

> <PUBCHEM_CACTVS_ROTATABLE_BOND>
6

> <PUBCHEM_CACTVS_SUBSKEYS>
AAADceB6OQAAAAAAAAAAAAAAAAAAAAAAAAA8YMEAAAAAAADBQAAAHwAAAAAADQTBmA4yBoMABACIAqBSAAACCAAkIAAIiAEOiMgNJjKEtRqEMSIkwBGKqYeezPDOoAABAAAQQADAAAYAACCAAAAAAAAAAA==

> <PUBCHEM_IUPAC_OPENEYE_NAME>
3-[[4-(4-fluorobenzoyl)-1-piperidyl]methyl]-6,7-dimethoxy-tetralin-1-one

> <PUBCHEM_IUPAC_CAS_NAME>
3-[[4-[(4-fluorophenyl)-oxomethyl]-1-piperidinyl]methyl]-6,7-dimethoxy-3,4-dihydro-2H-naphthalen-1-one

> <PUBCHEM_IUPAC_NAME_MARKUP>
3-[[4-(4-fluorobenzoyl)piperidin-1-yl]methyl]-6,7-dimethoxy-3,4-dihydro-2<I>H</I>-naphthalen-1-one

> <PUBCHEM_IUPAC_NAME>
3-[[4-(4-fluorobenzoyl)piperidin-1-yl]methyl]-6,7-dimethoxy-3,4-dihydro-2H-naphthalen-1-one

> <PUBCHEM_IUPAC_SYSTEMATIC_NAME>
3-[[4-(4-fluorophenyl)carbonylpiperidin-1-yl]methyl]-6,7-dimethoxy-3,4-dihydro-2H-naphthalen-1-one

> <PUBCHEM_IUPAC_TRADITIONAL_NAME>
3-[[4-(4-fluorobenzoyl)piperidino]methyl]-6,7-dimethoxy-tetralin-1-one

> <PUBCHEM_IUPAC_INCHI>
InChI=1S/C25H28FNO4/c1-30-23-13-19-11-16(12-22(28)21(19)14-24(23)31-2)15-27-9-7-18(8-10-27)25(29)17-3-5-20(26)6-4-17/h3-6,13-14,16,18H,7-12,15H2,1-2H3

> <PUBCHEM_IUPAC_INCHIKEY>
LIGTZTZBNDYZHF-UHFFFAOYSA-N

> <PUBCHEM_XLOGP3_AA>
3.8

> <PUBCHEM_EXACT_MASS>
425.20023654

> <PUBCHEM_MOLECULAR_FORMULA>
C25H28FNO4

> <PUBCHEM_MOLECULAR_WEIGHT>
425.5

> <PUBCHEM_OPENEYE_CAN_SMILES>
COC1=C(C=C2C(=C1)CC(CC2=O)CN3CCC(CC3)C(=O)C4=CC=C(C=C4)F)OC

> <PUBCHEM_OPENEYE_ISO_SMILES>
COC1=C(C=C2C(=C1)CC(CC2=O)CN3CCC(CC3)C(=O)C4=CC=C(C=C4)F)OC

> <PUBCHEM_CACTVS_TPSA>
55.8

> <PUBCHEM_MONOISOTOPIC_WEIGHT>
425.20023654

> <PUBCHEM_TOTAL_CHARGE>
0

> <PUBCHEM_HEAVY_ATOM_COUNT>
31

> <PUBCHEM_ATOM_DEF_STEREO_COUNT>
0

> <PUBCHEM_ATOM_UDEF_STEREO_COUNT>
1

> <PUBCHEM_BOND_DEF_STEREO_COUNT>
0

> <PUBCHEM_BOND_UDEF_STEREO_COUNT>
0

> <PUBCHEM_ISOTOPIC_ATOM_COUNT>
0

> <PUBCHEM_COMPONENT_COUNT>
1

> <PUBCHEM_CACTVS_TAUTO_COUNT>
-1

> <PUBCHEM_COORDINATE_TYPE>
1
5
255

> <PUBCHEM_BONDANNOTATIONS>
16  19  8
16  20  8
19  21  8
20  23  8
21  24  8
22  25  8
22  26  8
23  24  8
25  27  8
26  28  8
27  29  8
28  29  8
7  8  3

$$$$
