11384634
  -OEChem-09292322262D

 58 62  0     1  0  0  0  0  0999 V2000
    3.7899    2.3490    0.0000 S   0  0  0  0  0  0  0  0  0  0  0  0
   14.6962   -0.1318    0.0000 O   0  0  0  0  0  0  0  0  0  0  0  0
    7.4629   -0.3490    0.0000 N   0  0  0  0  0  0  0  0  0  0  0  0
    5.7308    0.6510    0.0000 N   0  0  0  0  0  0  0  0  0  0  0  0
   13.0499    0.4063    0.0000 N   0  0  0  0  0  0  0  0  0  0  0  0
    4.7617    2.1398    0.0000 N   0  0  0  0  0  0  0  0  0  0  0  0
   12.7392   -0.5442    0.0000 C   0  0  3  0  0  0  0  0  0  0  0  0
   11.7930   -0.8490    0.0000 C   0  0  0  0  0  0  0  0  0  0  0  0
   13.3228   -1.3490    0.0000 C   0  0  0  0  0  0  0  0  0  0  0  0
   12.7392   -2.1537    0.0000 C   0  0  0  0  0  0  0  0  0  0  0  0
   11.7930   -1.8490    0.0000 C   0  0  0  0  0  0  0  0  0  0  0  0
    7.4629    0.6510    0.0000 C   0  0  0  0  0  0  0  0  0  0  0  0
    6.5968   -0.8490    0.0000 C   0  0  0  0  0  0  0  0  0  0  0  0
    8.3289   -0.8490    0.0000 C   0  0  0  0  0  0  0  0  0  0  0  0
    6.5968    1.1510    0.0000 C   0  0  0  0  0  0  0  0  0  0  0  0
    5.7308   -0.3490    0.0000 C   0  0  0  0  0  0  0  0  0  0  0  0
    9.1949   -0.3490    0.0000 C   0  0  0  0  0  0  0  0  0  0  0  0
   10.0610   -0.8490    0.0000 C   0  0  0  0  0  0  0  0  0  0  0  0
   10.9270   -0.3490    0.0000 C   0  0  0  0  0  0  0  0  0  0  0  0
   10.9270   -2.3490    0.0000 C   0  0  0  0  0  0  0  0  0  0  0  0
   10.0610   -1.8490    0.0000 C   0  0  0  0  0  0  0  0  0  0  0  0
    4.8648    1.1510    0.0000 C   0  0  0  0  0  0  0  0  0  0  0  0
    3.9570    0.7459    0.0000 C   0  0  0  0  0  0  0  0  0  0  0  0
   14.0284    0.6125    0.0000 C   0  0  0  0  0  0  0  0  0  0  0  0
    3.2892    1.4902    0.0000 C   0  0  0  0  0  0  0  0  0  0  0  0
    3.6464   -0.2046    0.0000 C   0  0  0  0  0  0  0  0  0  0  0  0
   14.3391    1.5630    0.0000 C   0  0  0  0  0  0  0  0  0  0  0  0
    2.3107    1.2840    0.0000 C   0  0  0  0  0  0  0  0  0  0  0  0
    2.6678   -0.4108    0.0000 C   0  0  0  0  0  0  0  0  0  0  0  0
    2.0000    0.3335    0.0000 C   0  0  0  0  0  0  0  0  0  0  0  0
   13.3517   -0.4480    0.0000 H   0  0  0  0  0  0  0  0  0  0  0  0
   13.7837   -1.7637    0.0000 H   0  0  0  0  0  0  0  0  0  0  0  0
   13.7837   -0.9342    0.0000 H   0  0  0  0  0  0  0  0  0  0  0  0
   12.4882   -2.7206    0.0000 H   0  0  0  0  0  0  0  0  0  0  0  0
   13.2766   -2.4629    0.0000 H   0  0  0  0  0  0  0  0  0  0  0  0
    8.0734    0.5434    0.0000 H   0  0  0  0  0  0  0  0  0  0  0  0
    7.6749    1.2336    0.0000 H   0  0  0  0  0  0  0  0  0  0  0  0
    6.1983   -1.3239    0.0000 H   0  0  0  0  0  0  0  0  0  0  0  0
    6.9954   -1.3239    0.0000 H   0  0  0  0  0  0  0  0  0  0  0  0
    7.9304   -1.3239    0.0000 H   0  0  0  0  0  0  0  0  0  0  0  0
    8.7274   -1.3239    0.0000 H   0  0  0  0  0  0  0  0  0  0  0  0
    6.9954    1.6260    0.0000 H   0  0  0  0  0  0  0  0  0  0  0  0
    6.1983    1.6260    0.0000 H   0  0  0  0  0  0  0  0  0  0  0  0
    5.1202   -0.2413    0.0000 H   0  0  0  0  0  0  0  0  0  0  0  0
    5.5188   -0.9316    0.0000 H   0  0  0  0  0  0  0  0  0  0  0  0
    9.5934    0.1260    0.0000 H   0  0  0  0  0  0  0  0  0  0  0  0
    8.7964    0.1260    0.0000 H   0  0  0  0  0  0  0  0  0  0  0  0
   10.9270    0.2710    0.0000 H   0  0  0  0  0  0  0  0  0  0  0  0
   10.9270   -2.9690    0.0000 H   0  0  0  0  0  0  0  0  0  0  0  0
    9.5240   -2.1590    0.0000 H   0  0  0  0  0  0  0  0  0  0  0  0
   12.6358    0.8678    0.0000 H   0  0  0  0  0  0  0  0  0  0  0  0
    4.0604   -0.6661    0.0000 H   0  0  0  0  0  0  0  0  0  0  0  0
   14.9284    1.3704    0.0000 H   0  0  0  0  0  0  0  0  0  0  0  0
   14.5317    2.1524    0.0000 H   0  0  0  0  0  0  0  0  0  0  0  0
   13.7497    1.7556    0.0000 H   0  0  0  0  0  0  0  0  0  0  0  0
    1.8966    1.7455    0.0000 H   0  0  0  0  0  0  0  0  0  0  0  0
    2.4752   -1.0001    0.0000 H   0  0  0  0  0  0  0  0  0  0  0  0
    1.3933    0.2056    0.0000 H   0  0  0  0  0  0  0  0  0  0  0  0
  1  6  1  0  0  0  0
  1 25  1  0  0  0  0
  2 24  2  0  0  0  0
  3 12  1  0  0  0  0
  3 13  1  0  0  0  0
  3 14  1  0  0  0  0
  4 15  1  0  0  0  0
  4 16  1  0  0  0  0
  4 22  1  0  0  0  0
  5  7  1  0  0  0  0
  5 24  1  0  0  0  0
  5 51  1  0  0  0  0
  6 22  2  0  0  0  0
  7  8  1  0  0  0  0
  7  9  1  0  0  0  0
  7 31  1  0  0  0  0
  8 11  2  0  0  0  0
  8 19  1  0  0  0  0
  9 10  1  0  0  0  0
  9 32  1  0  0  0  0
  9 33  1  0  0  0  0
 10 11  1  0  0  0  0
 10 34  1  0  0  0  0
 10 35  1  0  0  0  0
 11 20  1  0  0  0  0
 12 15  1  0  0  0  0
 12 36  1  0  0  0  0
 12 37  1  0  0  0  0
 13 16  1  0  0  0  0
 13 38  1  0  0  0  0
 13 39  1  0  0  0  0
 14 17  1  0  0  0  0
 14 40  1  0  0  0  0
 14 41  1  0  0  0  0
 15 42  1  0  0  0  0
 15 43  1  0  0  0  0
 16 44  1  0  0  0  0
 16 45  1  0  0  0  0
 17 18  1  0  0  0  0
 17 46  1  0  0  0  0
 17 47  1  0  0  0  0
 18 19  2  0  0  0  0
 18 21  1  0  0  0  0
 19 48  1  0  0  0  0
 20 21  2  0  0  0  0
 20 49  1  0  0  0  0
 21 50  1  0  0  0  0
 22 23  1  0  0  0  0
 23 25  1  0  0  0  0
 23 26  2  0  0  0  0
 24 27  1  0  0  0  0
 25 28  2  0  0  0  0
 26 29  1  0  0  0  0
 26 52  1  0  0  0  0
 27 53  1  0  0  0  0
 27 54  1  0  0  0  0
 27 55  1  0  0  0  0
 28 30  1  0  0  0  0
 28 56  1  0  0  0  0
 29 30  2  0  0  0  0
 29 57  1  0  0  0  0
 30 58  1  0  0  0  0
M  END
> <PUBCHEM_COMPOUND_CID>
11384634

> <PUBCHEM_COMPOUND_CANONICALIZED>
1

> <PUBCHEM_CACTVS_COMPLEXITY>
596

> <PUBCHEM_CACTVS_HBOND_ACCEPTOR>
5

> <PUBCHEM_CACTVS_HBOND_DONOR>
1

> <PUBCHEM_CACTVS_ROTATABLE_BOND>
5

> <PUBCHEM_CACTVS_SUBSKEYS>
AAADceB7oABAAAAAAAAAAAAAAAAAAeIAAAA8YIAAAAAAAHgB9AAAHgQQQAAADCjB2gQzsdPAAACsAiNycACDABAhAABJmLgoRJiIYKLAmZGUIAxglgLIyAcQgMAOwAACAAAUAACAAAQAACgAACAACQAAAA==

> <PUBCHEM_IUPAC_OPENEYE_NAME>
N-[6-[2-[4-(1,2-benzothiazol-3-yl)piperazin-1-yl]ethyl]indan-1-yl]acetamide

> <PUBCHEM_IUPAC_CAS_NAME>
N-[6-[2-[4-(1,2-benzothiazol-3-yl)-1-piperazinyl]ethyl]-2,3-dihydro-1H-inden-1-yl]acetamide

> <PUBCHEM_IUPAC_NAME_MARKUP>
<I>N</I>-[6-[2-[4-(1,2-benzothiazol-3-yl)piperazin-1-yl]ethyl]-2,3-dihydro-1<I>H</I>-inden-1-yl]acetamide

> <PUBCHEM_IUPAC_NAME>
N-[6-[2-[4-(1,2-benzothiazol-3-yl)piperazin-1-yl]ethyl]-2,3-dihydro-1H-inden-1-yl]acetamide

> <PUBCHEM_IUPAC_SYSTEMATIC_NAME>
N-[6-[2-[4-(1,2-benzothiazol-3-yl)piperazin-1-yl]ethyl]-2,3-dihydro-1H-inden-1-yl]ethanamide

> <PUBCHEM_IUPAC_TRADITIONAL_NAME>
N-[6-[2-[4-(1,2-benzothiazol-3-yl)piperazino]ethyl]indan-1-yl]acetamide

> <PUBCHEM_IUPAC_INCHI>
InChI=1S/C24H28N4OS/c1-17(29)25-22-9-8-19-7-6-18(16-21(19)22)10-11-27-12-14-28(15-13-27)24-20-4-2-3-5-23(20)30-26-24/h2-7,16,22H,8-15H2,1H3,(H,25,29)

> <PUBCHEM_IUPAC_INCHIKEY>
ACZCVZUKGWGYJX-UHFFFAOYSA-N

> <PUBCHEM_XLOGP3_AA>
4.1

> <PUBCHEM_EXACT_MASS>
420.19838270

> <PUBCHEM_MOLECULAR_FORMULA>
C24H28N4OS

> <PUBCHEM_MOLECULAR_WEIGHT>
420.6

> <PUBCHEM_OPENEYE_CAN_SMILES>
CC(=O)NC1CCC2=C1C=C(C=C2)CCN3CCN(CC3)C4=NSC5=CC=CC=C54

> <PUBCHEM_OPENEYE_ISO_SMILES>
CC(=O)NC1CCC2=C1C=C(C=C2)CCN3CCN(CC3)C4=NSC5=CC=CC=C54

> <PUBCHEM_CACTVS_TPSA>
76.7

> <PUBCHEM_MONOISOTOPIC_WEIGHT>
420.19838270

> <PUBCHEM_TOTAL_CHARGE>
0

> <PUBCHEM_HEAVY_ATOM_COUNT>
30

> <PUBCHEM_ATOM_DEF_STEREO_COUNT>
0

> <PUBCHEM_ATOM_UDEF_STEREO_COUNT>
1

> <PUBCHEM_BOND_DEF_STEREO_COUNT>
0

> <PUBCHEM_BOND_UDEF_STEREO_COUNT>
0

> <PUBCHEM_ISOTOPIC_ATOM_COUNT>
0

> <PUBCHEM_COMPONENT_COUNT>
1

> <PUBCHEM_CACTVS_TAUTO_COUNT>
-1

> <PUBCHEM_COORDINATE_TYPE>
1
5
255

> <PUBCHEM_BONDANNOTATIONS>
1  25  8
1  6  8
11  20  8
18  19  8
18  21  8
20  21  8
22  23  8
23  25  8
23  26  8
25  28  8
26  29  8
28  30  8
29  30  8
7  5  3
6  22  8
8  11  8
8  19  8

$$$$
