90645301
  -OEChem-09292322352D

 64 67  0     0  0  0  0  0  0999 V2000
   17.0920   -3.4074    0.0000 Cl  0  0  0  0  0  0  0  0  0  0  0  0
    5.5443    0.3859    0.0000 S   0  0  0  0  0  0  0  0  0  0  0  0
   14.4939   -0.9074    0.0000 O   0  0  0  0  0  0  0  0  0  0  0  0
    7.6279    2.0567    0.0000 O   0  0  0  0  0  0  0  0  0  0  0  0
   11.6279   -1.4074    0.0000 N   0  0  0  0  0  0  0  0  0  0  0  0
    7.6279    0.3247    0.0000 N   0  0  0  0  0  0  0  0  0  0  0  0
    3.7320    0.1907    0.0000 N   0  0  0  0  0  0  0  0  0  0  0  0
    5.8550    2.9459    0.0000 N   0  0  0  0  0  0  0  0  0  0  0  0
   13.6279   -1.4074    0.0000 C   0  0  0  0  0  0  0  0  0  0  0  0
   13.1279   -2.2734    0.0000 C   0  0  0  0  0  0  0  0  0  0  0  0
   13.1279   -0.5414    0.0000 C   0  0  0  0  0  0  0  0  0  0  0  0
   12.1279   -2.2734    0.0000 C   0  0  0  0  0  0  0  0  0  0  0  0
   12.1279   -0.5414    0.0000 C   0  0  0  0  0  0  0  0  0  0  0  0
   10.6279   -1.4074    0.0000 C   0  0  0  0  0  0  0  0  0  0  0  0
   14.4939   -1.9074    0.0000 C   0  0  0  0  0  0  0  0  0  0  0  0
   10.1279   -0.5414    0.0000 C   0  0  0  0  0  0  0  0  0  0  0  0
    9.1279   -0.5414    0.0000 C   0  0  0  0  0  0  0  0  0  0  0  0
   14.4939   -2.9074    0.0000 C   0  0  0  0  0  0  0  0  0  0  0  0
   15.3600   -1.4074    0.0000 C   0  0  0  0  0  0  0  0  0  0  0  0
    8.6279    0.3247    0.0000 C   0  0  0  0  0  0  0  0  0  0  0  0
   15.3600   -3.4074    0.0000 C   0  0  0  0  0  0  0  0  0  0  0  0
   16.2260   -1.9074    0.0000 C   0  0  0  0  0  0  0  0  0  0  0  0
   16.2260   -2.9074    0.0000 C   0  0  0  0  0  0  0  0  0  0  0  0
    7.1279    1.1907    0.0000 C   0  0  0  0  0  0  0  0  0  0  0  0
    6.1279    1.1907    0.0000 C   0  0  0  0  0  0  0  0  0  0  0  0
    5.5443    1.9954    0.0000 C   0  0  0  0  0  0  0  0  0  0  0  0
    4.5981    1.6907    0.0000 C   0  0  0  0  0  0  0  0  0  0  0  0
    4.5981    0.6907    0.0000 C   0  0  0  0  0  0  0  0  0  0  0  0
    3.7320    2.1907    0.0000 C   0  0  0  0  0  0  0  0  0  0  0  0
    2.8660    1.6907    0.0000 C   0  0  0  0  0  0  0  0  0  0  0  0
    2.8660    0.6907    0.0000 C   0  0  0  0  0  0  0  0  0  0  0  0
    3.7320    3.1907    0.0000 C   0  0  0  0  0  0  0  0  0  0  0  0
    2.0000    0.1907    0.0000 C   0  0  0  0  0  0  0  0  0  0  0  0
   13.0202   -2.8840    0.0000 H   0  0  0  0  0  0  0  0  0  0  0  0
   13.7105   -2.4855    0.0000 H   0  0  0  0  0  0  0  0  0  0  0  0
   13.7105   -0.3293    0.0000 H   0  0  0  0  0  0  0  0  0  0  0  0
   13.0202    0.0692    0.0000 H   0  0  0  0  0  0  0  0  0  0  0  0
   11.5453   -2.4855    0.0000 H   0  0  0  0  0  0  0  0  0  0  0  0
   12.2356   -2.8840    0.0000 H   0  0  0  0  0  0  0  0  0  0  0  0
   12.2356    0.0692    0.0000 H   0  0  0  0  0  0  0  0  0  0  0  0
   11.5453   -0.3293    0.0000 H   0  0  0  0  0  0  0  0  0  0  0  0
   10.0453   -1.6194    0.0000 H   0  0  0  0  0  0  0  0  0  0  0  0
   10.7356   -2.0180    0.0000 H   0  0  0  0  0  0  0  0  0  0  0  0
   10.7105   -0.3293    0.0000 H   0  0  0  0  0  0  0  0  0  0  0  0
   10.0202    0.0692    0.0000 H   0  0  0  0  0  0  0  0  0  0  0  0
   14.4939   -0.2874    0.0000 H   0  0  0  0  0  0  0  0  0  0  0  0
    8.5453   -0.7534    0.0000 H   0  0  0  0  0  0  0  0  0  0  0  0
    9.2356   -1.1520    0.0000 H   0  0  0  0  0  0  0  0  0  0  0  0
   13.9570   -3.2174    0.0000 H   0  0  0  0  0  0  0  0  0  0  0  0
   15.3600   -0.7874    0.0000 H   0  0  0  0  0  0  0  0  0  0  0  0
    9.2105    0.5367    0.0000 H   0  0  0  0  0  0  0  0  0  0  0  0
    8.5202    0.9352    0.0000 H   0  0  0  0  0  0  0  0  0  0  0  0
   15.3600   -4.0274    0.0000 H   0  0  0  0  0  0  0  0  0  0  0  0
   16.7629   -1.5974    0.0000 H   0  0  0  0  0  0  0  0  0  0  0  0
    7.3179   -0.2123    0.0000 H   0  0  0  0  0  0  0  0  0  0  0  0
    2.3291    2.0007    0.0000 H   0  0  0  0  0  0  0  0  0  0  0  0
    4.3520    3.1907    0.0000 H   0  0  0  0  0  0  0  0  0  0  0  0
    3.7320    3.8107    0.0000 H   0  0  0  0  0  0  0  0  0  0  0  0
    3.1120    3.1907    0.0000 H   0  0  0  0  0  0  0  0  0  0  0  0
    6.4616    3.0738    0.0000 H   0  0  0  0  0  0  0  0  0  0  0  0
    5.4409    3.4074    0.0000 H   0  0  0  0  0  0  0  0  0  0  0  0
    1.6900    0.7276    0.0000 H   0  0  0  0  0  0  0  0  0  0  0  0
    1.4631   -0.1193    0.0000 H   0  0  0  0  0  0  0  0  0  0  0  0
    2.3100   -0.3463    0.0000 H   0  0  0  0  0  0  0  0  0  0  0  0
  1 23  1  0  0  0  0
  2 25  1  0  0  0  0
  2 28  1  0  0  0  0
  3  9  1  0  0  0  0
  3 46  1  0  0  0  0
  4 24  2  0  0  0  0
  5 12  1  0  0  0  0
  5 13  1  0  0  0  0
  5 14  1  0  0  0  0
  6 20  1  0  0  0  0
  6 24  1  0  0  0  0
  6 55  1  0  0  0  0
  7 28  1  0  0  0  0
  7 31  2  0  0  0  0
  8 26  1  0  0  0  0
  8 60  1  0  0  0  0
  8 61  1  0  0  0  0
  9 10  1  0  0  0  0
  9 11  1  0  0  0  0
  9 15  1  0  0  0  0
 10 12  1  0  0  0  0
 10 34  1  0  0  0  0
 10 35  1  0  0  0  0
 11 13  1  0  0  0  0
 11 36  1  0  0  0  0
 11 37  1  0  0  0  0
 12 38  1  0  0  0  0
 12 39  1  0  0  0  0
 13 40  1  0  0  0  0
 13 41  1  0  0  0  0
 14 16  1  0  0  0  0
 14 42  1  0  0  0  0
 14 43  1  0  0  0  0
 15 18  2  0  0  0  0
 15 19  1  0  0  0  0
 16 17  1  0  0  0  0
 16 44  1  0  0  0  0
 16 45  1  0  0  0  0
 17 20  1  0  0  0  0
 17 47  1  0  0  0  0
 17 48  1  0  0  0  0
 18 21  1  0  0  0  0
 18 49  1  0  0  0  0
 19 22  2  0  0  0  0
 19 50  1  0  0  0  0
 20 51  1  0  0  0  0
 20 52  1  0  0  0  0
 21 23  2  0  0  0  0
 21 53  1  0  0  0  0
 22 23  1  0  0  0  0
 22 54  1  0  0  0  0
 24 25  1  0  0  0  0
 25 26  2  0  0  0  0
 26 27  1  0  0  0  0
 27 28  2  0  0  0  0
 27 29  1  0  0  0  0
 29 30  2  0  0  0  0
 29 32  1  0  0  0  0
 30 31  1  0  0  0  0
 30 56  1  0  0  0  0
 31 33  1  0  0  0  0
 32 57  1  0  0  0  0
 32 58  1  0  0  0  0
 32 59  1  0  0  0  0
 33 62  1  0  0  0  0
 33 63  1  0  0  0  0
 33 64  1  0  0  0  0
M  END
> <PUBCHEM_COMPOUND_CID>
90645301

> <PUBCHEM_COMPOUND_CANONICALIZED>
1

> <PUBCHEM_CACTVS_COMPLEXITY>
654

> <PUBCHEM_CACTVS_HBOND_ACCEPTOR>
6

> <PUBCHEM_CACTVS_HBOND_DONOR>
3

> <PUBCHEM_CACTVS_ROTATABLE_BOND>
7

> <PUBCHEM_CACTVS_SUBSKEYS>
AAADceB7sABEAAAAAAAAAAAAAAAAASAAAAA8WIAAAAAAAFgB/AAAHgYQCAAADE7B3iQywdPIEgisAyVyVACD0KBlDzgImLU4btgIJnrh19GEdYxm1gHo2UeYyeCOhAAAAAAAAAAIAAAAAAAAAAAAAAAAAA==

> <PUBCHEM_IUPAC_OPENEYE_NAME>
3-amino-N-[4-[4-(4-chlorophenyl)-4-hydroxy-1-piperidyl]butyl]-4,6-dimethyl-thieno[2,3-b]pyridine-2-carboxamide

> <PUBCHEM_IUPAC_CAS_NAME>
3-amino-N-[4-[4-(4-chlorophenyl)-4-hydroxy-1-piperidinyl]butyl]-4,6-dimethyl-2-thieno[2,3-b]pyridinecarboxamide

> <PUBCHEM_IUPAC_NAME_MARKUP>
3-amino-<I>N</I>-[4-[4-(4-chlorophenyl)-4-hydroxypiperidin-1-yl]butyl]-4,6-dimethylthieno[2,3-b]pyridine-2-carboxamide

> <PUBCHEM_IUPAC_NAME>
3-amino-N-[4-[4-(4-chlorophenyl)-4-hydroxypiperidin-1-yl]butyl]-4,6-dimethylthieno[2,3-b]pyridine-2-carboxamide

> <PUBCHEM_IUPAC_SYSTEMATIC_NAME>
3-azanyl-N-[4-[4-(4-chlorophenyl)-4-oxidanyl-piperidin-1-yl]butyl]-4,6-dimethyl-thieno[2,3-b]pyridine-2-carboxamide

> <PUBCHEM_IUPAC_TRADITIONAL_NAME>
3-amino-N-[4-[4-(4-chlorophenyl)-4-hydroxy-piperidino]butyl]-4,6-dimethyl-thieno[2,3-b]pyridine-2-carboxamide

> <PUBCHEM_IUPAC_INCHI>
InChI=1S/C25H31ClN4O2S/c1-16-15-17(2)29-24-20(16)21(27)22(33-24)23(31)28-11-3-4-12-30-13-9-25(32,10-14-30)18-5-7-19(26)8-6-18/h5-8,15,32H,3-4,9-14,27H2,1-2H3,(H,28,31)

> <PUBCHEM_IUPAC_INCHIKEY>
MWEMZAUJQVTCGX-UHFFFAOYSA-N

> <PUBCHEM_XLOGP3_AA>
5

> <PUBCHEM_EXACT_MASS>
486.1856251

> <PUBCHEM_MOLECULAR_FORMULA>
C25H31ClN4O2S

> <PUBCHEM_MOLECULAR_WEIGHT>
487.1

> <PUBCHEM_OPENEYE_CAN_SMILES>
CC1=CC(=NC2=C1C(=C(S2)C(=O)NCCCCN3CCC(CC3)(C4=CC=C(C=C4)Cl)O)N)C

> <PUBCHEM_OPENEYE_ISO_SMILES>
CC1=CC(=NC2=C1C(=C(S2)C(=O)NCCCCN3CCC(CC3)(C4=CC=C(C=C4)Cl)O)N)C

> <PUBCHEM_CACTVS_TPSA>
120

> <PUBCHEM_MONOISOTOPIC_WEIGHT>
486.1856251

> <PUBCHEM_TOTAL_CHARGE>
0

> <PUBCHEM_HEAVY_ATOM_COUNT>
33

> <PUBCHEM_ATOM_DEF_STEREO_COUNT>
0

> <PUBCHEM_ATOM_UDEF_STEREO_COUNT>
0

> <PUBCHEM_BOND_DEF_STEREO_COUNT>
0

> <PUBCHEM_BOND_UDEF_STEREO_COUNT>
0

> <PUBCHEM_ISOTOPIC_ATOM_COUNT>
0

> <PUBCHEM_COMPONENT_COUNT>
1

> <PUBCHEM_CACTVS_TAUTO_COUNT>
-1

> <PUBCHEM_COORDINATE_TYPE>
1
5
255

> <PUBCHEM_BONDANNOTATIONS>
15  18  8
15  19  8
18  21  8
19  22  8
2  25  8
2  28  8
21  23  8
22  23  8
25  26  8
26  27  8
27  28  8
27  29  8
29  30  8
30  31  8
7  28  8
7  31  8

$$$$
