45262403
  -OEChem-09292322122D

 77 79  0     1  0  0  0  0  0999 V2000
    9.3328    0.0000    0.0000 Cl  0  0  0  0  0  0  0  0  0  0  0  0
   18.2596    7.0415    0.0000 S   0  0  0  0  0  0  0  0  0  0  0  0
    7.0369    3.9160    0.0000 O   0  0  0  0  0  0  0  0  0  0  0  0
   17.3917    7.5382    0.0000 O   0  0  0  0  0  0  0  0  0  0  0  0
   18.7563    7.9095    0.0000 O   0  0  0  0  0  0  0  0  0  0  0  0
   17.7630    6.1736    0.0000 O   0  0  0  0  0  0  0  0  0  0  0  0
    1.0369    3.9160    0.0000 O   0  0  0  0  0  0  0  0  0  0  0  0
   12.5369    6.5140    0.0000 N   0  0  3  0  0  0  0  0  0  0  0  0
    7.0369    5.6480    0.0000 N   0  0  0  0  0  0  0  0  0  0  0  0
   10.0369    5.6480    0.0000 C   0  0  0  0  0  0  0  0  0  0  0  0
    9.5369    4.7820    0.0000 C   0  0  0  0  0  0  0  0  0  0  0  0
    9.5369    6.5140    0.0000 C   0  0  0  0  0  0  0  0  0  0  0  0
    8.0369    5.6480    0.0000 C   0  0  0  0  0  0  0  0  0  0  0  0
    8.5369    4.7820    0.0000 C   0  0  0  0  0  0  0  0  0  0  0  0
    8.5369    6.5140    0.0000 C   0  0  0  0  0  0  0  0  0  0  0  0
   11.0369    5.6480    0.0000 C   0  0  0  0  0  0  0  0  0  0  0  0
   11.5369    6.5140    0.0000 C   0  0  0  0  0  0  0  0  0  0  0  0
   12.9708    7.4150    0.0000 C   0  0  0  0  0  0  0  0  0  0  0  0
   12.9708    5.6131    0.0000 C   0  0  0  0  0  0  0  0  0  0  0  0
   13.9457    7.6375    0.0000 C   0  0  0  0  0  0  0  0  0  0  0  0
   13.9457    5.3906    0.0000 C   0  0  0  0  0  0  0  0  0  0  0  0
   14.7276    7.0140    0.0000 C   0  0  0  0  0  0  0  0  0  0  0  0
   14.7276    6.0140    0.0000 C   0  0  0  0  0  0  0  0  0  0  0  0
    6.5369    4.7820    0.0000 C   0  0  0  0  0  0  0  0  0  0  0  0
   15.6215    7.5487    0.0000 C   0  0  0  0  0  0  0  0  0  0  0  0
   15.6215    5.4794    0.0000 C   0  0  0  0  0  0  0  0  0  0  0  0
    5.5369    4.7820    0.0000 C   0  0  0  0  0  0  0  0  0  0  0  0
   16.5276    7.0349    0.0000 C   0  0  0  0  0  0  0  0  0  0  0  0
   16.5276    5.9932    0.0000 C   0  0  0  0  0  0  0  0  0  0  0  0
    5.0369    3.9160    0.0000 C   0  0  0  0  0  0  0  0  0  0  0  0
    4.0369    3.9160    0.0000 C   0  0  0  0  0  0  0  0  0  0  0  0
   19.1276    6.5449    0.0000 C   0  0  0  0  0  0  0  0  0  0  0  0
    3.5369    4.7820    0.0000 C   0  0  0  0  0  0  0  0  0  0  0  0
    3.5369    3.0500    0.0000 C   0  0  0  0  0  0  0  0  0  0  0  0
    2.5369    4.7820    0.0000 C   0  0  0  0  0  0  0  0  0  0  0  0
    2.5369    3.0500    0.0000 C   0  0  0  0  0  0  0  0  0  0  0  0
    2.0369    3.9160    0.0000 C   0  0  0  0  0  0  0  0  0  0  0  0
    0.5369    3.0500    0.0000 C   0  0  0  0  0  0  0  0  0  0  0  0
   10.3469    5.1111    0.0000 H   0  0  0  0  0  0  0  0  0  0  0  0
    9.4293    4.1714    0.0000 H   0  0  0  0  0  0  0  0  0  0  0  0
   10.1195    4.5699    0.0000 H   0  0  0  0  0  0  0  0  0  0  0  0
   10.1195    6.7261    0.0000 H   0  0  0  0  0  0  0  0  0  0  0  0
    9.4293    7.1246    0.0000 H   0  0  0  0  0  0  0  0  0  0  0  0
    7.7269    5.1111    0.0000 H   0  0  0  0  0  0  0  0  0  0  0  0
    7.9543    4.5699    0.0000 H   0  0  0  0  0  0  0  0  0  0  0  0
    8.6446    4.1714    0.0000 H   0  0  0  0  0  0  0  0  0  0  0  0
    8.6446    7.1246    0.0000 H   0  0  0  0  0  0  0  0  0  0  0  0
    7.9543    6.7261    0.0000 H   0  0  0  0  0  0  0  0  0  0  0  0
   10.9293    5.0374    0.0000 H   0  0  0  0  0  0  0  0  0  0  0  0
   11.6195    5.4360    0.0000 H   0  0  0  0  0  0  0  0  0  0  0  0
   11.6446    7.1246    0.0000 H   0  0  0  0  0  0  0  0  0  0  0  0
   10.9543    6.7261    0.0000 H   0  0  0  0  0  0  0  0  0  0  0  0
    6.7269    6.1850    0.0000 H   0  0  0  0  0  0  0  0  0  0  0  0
   12.9708    8.0350    0.0000 H   0  0  0  0  0  0  0  0  0  0  0  0
   12.3664    7.5530    0.0000 H   0  0  0  0  0  0  0  0  0  0  0  0
   12.3664    5.4751    0.0000 H   0  0  0  0  0  0  0  0  0  0  0  0
   12.9708    4.9931    0.0000 H   0  0  0  0  0  0  0  0  0  0  0  0
   14.4305    8.0241    0.0000 H   0  0  0  0  0  0  0  0  0  0  0  0
   13.6767    8.1961    0.0000 H   0  0  0  0  0  0  0  0  0  0  0  0
   13.6767    4.8320    0.0000 H   0  0  0  0  0  0  0  0  0  0  0  0
   14.4305    5.0040    0.0000 H   0  0  0  0  0  0  0  0  0  0  0  0
   15.6144    8.1687    0.0000 H   0  0  0  0  0  0  0  0  0  0  0  0
   15.6144    4.8594    0.0000 H   0  0  0  0  0  0  0  0  0  0  0  0
    5.2269    5.3189    0.0000 H   0  0  0  0  0  0  0  0  0  0  0  0
   17.0633    5.6812    0.0000 H   0  0  0  0  0  0  0  0  0  0  0  0
    5.3469    3.3790    0.0000 H   0  0  0  0  0  0  0  0  0  0  0  0
   18.8196    6.0068    0.0000 H   0  0  0  0  0  0  0  0  0  0  0  0
   19.6657    6.2370    0.0000 H   0  0  0  0  0  0  0  0  0  0  0  0
   19.4355    7.0830    0.0000 H   0  0  0  0  0  0  0  0  0  0  0  0
    3.8469    5.3189    0.0000 H   0  0  0  0  0  0  0  0  0  0  0  0
    3.8469    2.5130    0.0000 H   0  0  0  0  0  0  0  0  0  0  0  0
    2.2269    5.3189    0.0000 H   0  0  0  0  0  0  0  0  0  0  0  0
    2.2269    2.5130    0.0000 H   0  0  0  0  0  0  0  0  0  0  0  0
    0.0000    3.3600    0.0000 H   0  0  0  0  0  0  0  0  0  0  0  0
    0.2269    2.5130    0.0000 H   0  0  0  0  0  0  0  0  0  0  0  0
    1.0739    2.7400    0.0000 H   0  0  0  0  0  0  0  0  0  0  0  0
   10.3328    0.0000    0.0000 H   0  0  0  0  0  0  0  0  0  0  0  0
  1 77  1  0  0  0  0
  2  4  1  0  0  0  0
  2  5  2  0  0  0  0
  2  6  2  0  0  0  0
  2 32  1  0  0  0  0
  3 24  2  0  0  0  0
  4 28  1  0  0  0  0
  7 37  1  0  0  0  0
  7 38  1  0  0  0  0
  8 17  1  0  0  0  0
  8 18  1  0  0  0  0
  8 19  1  0  0  0  0
  9 13  1  0  0  0  0
  9 24  1  0  0  0  0
  9 53  1  0  0  0  0
 10 11  1  0  0  0  0
 10 12  1  0  0  0  0
 10 16  1  0  0  0  0
 10 39  1  0  0  0  0
 11 14  1  0  0  0  0
 11 40  1  0  0  0  0
 11 41  1  0  0  0  0
 12 15  1  0  0  0  0
 12 42  1  0  0  0  0
 12 43  1  0  0  0  0
 13 14  1  0  0  0  0
 13 15  1  0  0  0  0
 13 44  1  0  0  0  0
 14 45  1  0  0  0  0
 14 46  1  0  0  0  0
 15 47  1  0  0  0  0
 15 48  1  0  0  0  0
 16 17  1  0  0  0  0
 16 49  1  0  0  0  0
 16 50  1  0  0  0  0
 17 51  1  0  0  0  0
 17 52  1  0  0  0  0
 18 20  1  0  0  0  0
 18 54  1  0  0  0  0
 18 55  1  0  0  0  0
 19 21  1  0  0  0  0
 19 56  1  0  0  0  0
 19 57  1  0  0  0  0
 20 22  1  0  0  0  0
 20 58  1  0  0  0  0
 20 59  1  0  0  0  0
 21 23  1  0  0  0  0
 21 60  1  0  0  0  0
 21 61  1  0  0  0  0
 22 23  2  0  0  0  0
 22 25  1  0  0  0  0
 23 26  1  0  0  0  0
 24 27  1  0  0  0  0
 25 28  2  0  0  0  0
 25 62  1  0  0  0  0
 26 29  2  0  0  0  0
 26 63  1  0  0  0  0
 27 30  2  0  0  0  0
 27 64  1  0  0  0  0
 28 29  1  0  0  0  0
 29 65  1  0  0  0  0
 30 31  1  0  0  0  0
 30 66  1  0  0  0  0
 31 33  2  0  0  0  0
 31 34  1  0  0  0  0
 32 67  1  0  0  0  0
 32 68  1  0  0  0  0
 32 69  1  0  0  0  0
 33 35  1  0  0  0  0
 33 70  1  0  0  0  0
 34 36  2  0  0  0  0
 34 71  1  0  0  0  0
 35 37  2  0  0  0  0
 35 72  1  0  0  0  0
 36 37  1  0  0  0  0
 36 73  1  0  0  0  0
 38 74  1  0  0  0  0
 38 75  1  0  0  0  0
 38 76  1  0  0  0  0
M  END
> <PUBCHEM_COMPOUND_CID>
45262403

> <PUBCHEM_COMPOUND_CANONICALIZED>
1

> <PUBCHEM_CACTVS_COMPLEXITY>
841

> <PUBCHEM_CACTVS_HBOND_ACCEPTOR>
6

> <PUBCHEM_CACTVS_HBOND_DONOR>
2

> <PUBCHEM_CACTVS_ROTATABLE_BOND>
9

> <PUBCHEM_CACTVS_SUBSKEYS>
AAADcfB7OABEAAAAAAAAAAAAAAAAAAAAAAAwYMAABYAAAAABQAAAHgQQAAAADSzBmAayBoPABAKIAiFSEHCCCAAgIAAIiIAOCMgMJiKEsRuEMCAk1hGIqYeQ0LIOoAABAAAQAABQAAIAACAAAAAAAAAAAA==

> <PUBCHEM_IUPAC_OPENEYE_NAME>
[3-[2-[4-[[(E)-3-(4-methoxyphenyl)prop-2-enoyl]amino]cyclohexyl]ethyl]-1,2,4,5-tetrahydro-3-benzazepin-7-yl] methanesulfonate;hydrochloride

> <PUBCHEM_IUPAC_CAS_NAME>
methanesulfonic acid [3-[2-[4-[[(E)-3-(4-methoxyphenyl)-1-oxoprop-2-enyl]amino]cyclohexyl]ethyl]-1,2,4,5-tetrahydro-3-benzazepin-7-yl] ester;hydrochloride

> <PUBCHEM_IUPAC_NAME_MARKUP>
[3-[2-[4-[[(<I>E</I>)-3-(4-methoxyphenyl)prop-2-enoyl]amino]cyclohexyl]ethyl]-1,2,4,5-tetrahydro-3-benzazepin-7-yl] methanesulfonate;hydrochloride

> <PUBCHEM_IUPAC_NAME>
[3-[2-[4-[[(E)-3-(4-methoxyphenyl)prop-2-enoyl]amino]cyclohexyl]ethyl]-1,2,4,5-tetrahydro-3-benzazepin-7-yl] methanesulfonate;hydrochloride

> <PUBCHEM_IUPAC_SYSTEMATIC_NAME>
[3-[2-[4-[[(E)-3-(4-methoxyphenyl)prop-2-enoyl]amino]cyclohexyl]ethyl]-1,2,4,5-tetrahydro-3-benzazepin-7-yl] methanesulfonate;hydrochloride

> <PUBCHEM_IUPAC_TRADITIONAL_NAME>
methanesulfonic acid [3-[2-[4-[[(E)-3-(4-methoxyphenyl)acryloyl]amino]cyclohexyl]ethyl]-1,2,4,5-tetrahydro-3-benzazepin-7-yl] ester;hydrochloride

> <PUBCHEM_IUPAC_INCHI>
InChI=1S/C29H38N2O5S.ClH/c1-35-27-11-5-22(6-12-27)7-14-29(32)30-26-9-3-23(4-10-26)15-18-31-19-16-24-8-13-28(36-37(2,33)34)21-25(24)17-20-31;/h5-8,11-14,21,23,26H,3-4,9-10,15-20H2,1-2H3,(H,30,32);1H/b14-7+;

> <PUBCHEM_IUPAC_INCHIKEY>
KHAVEQOYGDJRKS-FJUODKGNSA-N

> <PUBCHEM_EXACT_MASS>
562.2268212

> <PUBCHEM_MOLECULAR_FORMULA>
C29H39ClN2O5S

> <PUBCHEM_MOLECULAR_WEIGHT>
563.1

> <PUBCHEM_OPENEYE_CAN_SMILES>
COC1=CC=C(C=C1)C=CC(=O)NC2CCC(CC2)CCN3CCC4=C(CC3)C=C(C=C4)OS(=O)(=O)C.Cl

> <PUBCHEM_OPENEYE_ISO_SMILES>
COC1=CC=C(C=C1)/C=C/C(=O)NC2CCC(CC2)CCN3CCC4=C(CC3)C=C(C=C4)OS(=O)(=O)C.Cl

> <PUBCHEM_CACTVS_TPSA>
93.3

> <PUBCHEM_MONOISOTOPIC_WEIGHT>
562.2268212

> <PUBCHEM_TOTAL_CHARGE>
0

> <PUBCHEM_HEAVY_ATOM_COUNT>
38

> <PUBCHEM_ATOM_DEF_STEREO_COUNT>
0

> <PUBCHEM_ATOM_UDEF_STEREO_COUNT>
0

> <PUBCHEM_BOND_DEF_STEREO_COUNT>
1

> <PUBCHEM_BOND_UDEF_STEREO_COUNT>
0

> <PUBCHEM_ISOTOPIC_ATOM_COUNT>
0

> <PUBCHEM_COMPONENT_COUNT>
2

> <PUBCHEM_CACTVS_TAUTO_COUNT>
-1

> <PUBCHEM_COORDINATE_TYPE>
1
5
255

> <PUBCHEM_BONDANNOTATIONS>
22  23  8
22  25  8
23  26  8
25  28  8
26  29  8
28  29  8
31  33  8
31  34  8
33  35  8
34  36  8
35  37  8
36  37  8

$$$$
