137641550
  -OEChem-09292322392D

 87 90  0     1  0  0  0  0  0999 V2000
    4.8714   -5.9002    0.0000 O   0  0  0  0  0  0  0  0  0  0  0  0
    2.3107    4.5233    0.0000 O   0  0  0  0  0  0  0  0  0  0  0  0
    4.6660   -7.6458    0.0000 N   0  0  0  0  0  0  0  0  0  0  0  0
    3.3073   -6.7019    0.0000 N   0  0  0  0  0  0  0  0  0  0  0  0
    6.3981   -9.6458    0.0000 N   0  0  0  0  0  0  0  0  0  0  0  0
    5.5321   -9.1458    0.0000 C   0  0  1  0  0  0  0  0  0  0  0  0
    3.8000   -8.1458    0.0000 C   0  0  0  0  0  0  0  0  0  0  0  0
    5.5321   -8.1458    0.0000 C   0  0  0  0  0  0  0  0  0  0  0  0
    4.6660   -9.6458    0.0000 C   0  0  0  0  0  0  0  0  0  0  0  0
    3.8000   -9.1458    0.0000 C   0  0  0  0  0  0  0  0  0  0  0  0
    2.9061   -7.6112    0.0000 C   0  0  0  0  0  0  0  0  0  0  0  0
    4.3009   -6.7215    0.0000 C   0  0  0  0  0  0  0  0  0  0  0  0
    2.7696   -5.8588    0.0000 C   0  0  0  0  0  0  0  0  0  0  0  0
    3.2308   -4.9716    0.0000 C   0  0  0  0  0  0  0  0  0  0  0  0
    2.9061   -9.6805    0.0000 C   0  0  0  0  0  0  0  0  0  0  0  0
    2.0000   -8.1250    0.0000 C   0  0  0  0  0  0  0  0  0  0  0  0
    2.6931   -4.1285    0.0000 C   0  0  0  0  0  0  0  0  0  0  0  0
    2.0000   -9.1666    0.0000 C   0  0  0  0  0  0  0  0  0  0  0  0
    3.1544   -3.2412    0.0000 C   0  0  0  0  0  0  0  0  0  0  0  0
    2.6166   -2.3981    0.0000 C   0  0  0  0  0  0  0  0  0  0  0  0
    3.0779   -1.5108    0.0000 C   0  0  0  0  0  0  0  0  0  0  0  0
    6.3981  -10.6458    0.0000 C   0  0  0  0  0  0  0  0  0  0  0  0
    2.5401   -0.6677    0.0000 C   0  0  0  0  0  0  0  0  0  0  0  0
    3.0014    0.2195    0.0000 C   0  0  0  0  0  0  0  0  0  0  0  0
    2.4637    1.0626    0.0000 C   0  0  0  0  0  0  0  0  0  0  0  0
    2.9250    1.9499    0.0000 C   0  0  0  0  0  0  0  0  0  0  0  0
    2.3872    2.7930    0.0000 C   0  0  0  0  0  0  0  0  0  0  0  0
    2.8485    3.6802    0.0000 C   0  0  0  0  0  0  0  0  0  0  0  0
    2.7720    5.4106    0.0000 C   0  0  0  0  0  0  0  0  0  0  0  0
    2.2343    6.2537    0.0000 C   0  0  0  0  0  0  0  0  0  0  0  0
    2.6956    7.1410    0.0000 C   0  0  0  0  0  0  0  0  0  0  0  0
    2.1578    7.9841    0.0000 C   0  0  0  0  0  0  0  0  0  0  0  0
    2.6191    8.8713    0.0000 C   0  0  0  0  0  0  0  0  0  0  0  0
    2.0813    9.7144    0.0000 C   0  0  0  0  0  0  0  0  0  0  0  0
    3.6181    8.9155    0.0000 C   0  0  0  0  0  0  0  0  0  0  0  0
    2.5426   10.6017    0.0000 C   0  0  0  0  0  0  0  0  0  0  0  0
    4.0794    9.8027    0.0000 C   0  0  0  0  0  0  0  0  0  0  0  0
    3.5416   10.6458    0.0000 C   0  0  0  0  0  0  0  0  0  0  0  0
    5.5321   -9.7658    0.0000 H   0  0  0  0  0  0  0  0  0  0  0  0
    6.1426   -8.2535    0.0000 H   0  0  0  0  0  0  0  0  0  0  0  0
    5.7441   -7.5632    0.0000 H   0  0  0  0  0  0  0  0  0  0  0  0
    4.2675  -10.1208    0.0000 H   0  0  0  0  0  0  0  0  0  0  0  0
    5.0646  -10.1208    0.0000 H   0  0  0  0  0  0  0  0  0  0  0  0
    2.2775   -5.4817    0.0000 H   0  0  0  0  0  0  0  0  0  0  0  0
    2.3127   -6.2779    0.0000 H   0  0  0  0  0  0  0  0  0  0  0  0
    3.7229   -5.3488    0.0000 H   0  0  0  0  0  0  0  0  0  0  0  0
    3.6877   -4.5525    0.0000 H   0  0  0  0  0  0  0  0  0  0  0  0
    6.9350   -9.3358    0.0000 H   0  0  0  0  0  0  0  0  0  0  0  0
    2.9132  -10.3004    0.0000 H   0  0  0  0  0  0  0  0  0  0  0  0
    1.4643   -7.8129    0.0000 H   0  0  0  0  0  0  0  0  0  0  0  0
    2.2010   -3.7513    0.0000 H   0  0  0  0  0  0  0  0  0  0  0  0
    2.2362   -4.5476    0.0000 H   0  0  0  0  0  0  0  0  0  0  0  0
    1.4643   -9.4787    0.0000 H   0  0  0  0  0  0  0  0  0  0  0  0
    3.6464   -3.6184    0.0000 H   0  0  0  0  0  0  0  0  0  0  0  0
    3.6112   -2.8221    0.0000 H   0  0  0  0  0  0  0  0  0  0  0  0
    2.1245   -2.0209    0.0000 H   0  0  0  0  0  0  0  0  0  0  0  0
    2.1597   -2.8172    0.0000 H   0  0  0  0  0  0  0  0  0  0  0  0
    3.5700   -1.8880    0.0000 H   0  0  0  0  0  0  0  0  0  0  0  0
    3.5348   -1.0918    0.0000 H   0  0  0  0  0  0  0  0  0  0  0  0
    5.7781  -10.6458    0.0000 H   0  0  0  0  0  0  0  0  0  0  0  0
    6.3981  -11.2658    0.0000 H   0  0  0  0  0  0  0  0  0  0  0  0
    7.0181  -10.6458    0.0000 H   0  0  0  0  0  0  0  0  0  0  0  0
    2.0481   -0.2906    0.0000 H   0  0  0  0  0  0  0  0  0  0  0  0
    2.0832   -1.0869    0.0000 H   0  0  0  0  0  0  0  0  0  0  0  0
    3.4935   -0.1577    0.0000 H   0  0  0  0  0  0  0  0  0  0  0  0
    3.4583    0.6386    0.0000 H   0  0  0  0  0  0  0  0  0  0  0  0
    1.9716    1.4398    0.0000 H   0  0  0  0  0  0  0  0  0  0  0  0
    2.0068    0.6435    0.0000 H   0  0  0  0  0  0  0  0  0  0  0  0
    3.4170    1.5727    0.0000 H   0  0  0  0  0  0  0  0  0  0  0  0
    3.3818    2.3690    0.0000 H   0  0  0  0  0  0  0  0  0  0  0  0
    1.8951    3.1702    0.0000 H   0  0  0  0  0  0  0  0  0  0  0  0
    1.9303    2.3739    0.0000 H   0  0  0  0  0  0  0  0  0  0  0  0
    3.3406    3.3031    0.0000 H   0  0  0  0  0  0  0  0  0  0  0  0
    3.3054    4.0993    0.0000 H   0  0  0  0  0  0  0  0  0  0  0  0
    3.2641    5.0334    0.0000 H   0  0  0  0  0  0  0  0  0  0  0  0
    3.2289    5.8297    0.0000 H   0  0  0  0  0  0  0  0  0  0  0  0
    1.7422    6.6309    0.0000 H   0  0  0  0  0  0  0  0  0  0  0  0
    1.7774    5.8346    0.0000 H   0  0  0  0  0  0  0  0  0  0  0  0
    3.1876    6.7638    0.0000 H   0  0  0  0  0  0  0  0  0  0  0  0
    3.1524    7.5601    0.0000 H   0  0  0  0  0  0  0  0  0  0  0  0
    1.6657    8.3612    0.0000 H   0  0  0  0  0  0  0  0  0  0  0  0
    1.7009    7.5650    0.0000 H   0  0  0  0  0  0  0  0  0  0  0  0
    1.4620    9.6870    0.0000 H   0  0  0  0  0  0  0  0  0  0  0  0
    3.9515    8.3927    0.0000 H   0  0  0  0  0  0  0  0  0  0  0  0
    2.2092   11.1244    0.0000 H   0  0  0  0  0  0  0  0  0  0  0  0
    4.6988    9.8301    0.0000 H   0  0  0  0  0  0  0  0  0  0  0  0
    3.8276   11.1959    0.0000 H   0  0  0  0  0  0  0  0  0  0  0  0
  1 12  2  0  0  0  0
  2 28  1  0  0  0  0
  2 29  1  0  0  0  0
  3  7  1  0  0  0  0
  3  8  1  0  0  0  0
  3 12  1  0  0  0  0
  4 11  1  0  0  0  0
  4 12  1  0  0  0  0
  4 13  1  0  0  0  0
  6  5  1  6  0  0  0
  5 22  1  0  0  0  0
  5 48  1  0  0  0  0
  6  8  1  0  0  0  0
  6  9  1  0  0  0  0
  6 39  1  0  0  0  0
  7 10  2  0  0  0  0
  7 11  1  0  0  0  0
  8 40  1  0  0  0  0
  8 41  1  0  0  0  0
  9 10  1  0  0  0  0
  9 42  1  0  0  0  0
  9 43  1  0  0  0  0
 10 15  1  0  0  0  0
 11 16  2  0  0  0  0
 13 14  1  0  0  0  0
 13 44  1  0  0  0  0
 13 45  1  0  0  0  0
 14 17  1  0  0  0  0
 14 46  1  0  0  0  0
 14 47  1  0  0  0  0
 15 18  2  0  0  0  0
 15 49  1  0  0  0  0
 16 18  1  0  0  0  0
 16 50  1  0  0  0  0
 17 19  1  0  0  0  0
 17 51  1  0  0  0  0
 17 52  1  0  0  0  0
 18 53  1  0  0  0  0
 19 20  1  0  0  0  0
 19 54  1  0  0  0  0
 19 55  1  0  0  0  0
 20 21  1  0  0  0  0
 20 56  1  0  0  0  0
 20 57  1  0  0  0  0
 21 23  1  0  0  0  0
 21 58  1  0  0  0  0
 21 59  1  0  0  0  0
 22 60  1  0  0  0  0
 22 61  1  0  0  0  0
 22 62  1  0  0  0  0
 23 24  1  0  0  0  0
 23 63  1  0  0  0  0
 23 64  1  0  0  0  0
 24 25  1  0  0  0  0
 24 65  1  0  0  0  0
 24 66  1  0  0  0  0
 25 26  1  0  0  0  0
 25 67  1  0  0  0  0
 25 68  1  0  0  0  0
 26 27  1  0  0  0  0
 26 69  1  0  0  0  0
 26 70  1  0  0  0  0
 27 28  1  0  0  0  0
 27 71  1  0  0  0  0
 27 72  1  0  0  0  0
 28 73  1  0  0  0  0
 28 74  1  0  0  0  0
 29 30  1  0  0  0  0
 29 75  1  0  0  0  0
 29 76  1  0  0  0  0
 30 31  1  0  0  0  0
 30 77  1  0  0  0  0
 30 78  1  0  0  0  0
 31 32  1  0  0  0  0
 31 79  1  0  0  0  0
 31 80  1  0  0  0  0
 32 33  1  0  0  0  0
 32 81  1  0  0  0  0
 32 82  1  0  0  0  0
 33 34  2  0  0  0  0
 33 35  1  0  0  0  0
 34 36  1  0  0  0  0
 34 83  1  0  0  0  0
 35 37  2  0  0  0  0
 35 84  1  0  0  0  0
 36 38  2  0  0  0  0
 36 85  1  0  0  0  0
 37 38  1  0  0  0  0
 37 86  1  0  0  0  0
 38 87  1  0  0  0  0
M  END
> <PUBCHEM_COMPOUND_CID>
137641550

> <PUBCHEM_COMPOUND_CANONICALIZED>
1

> <PUBCHEM_CACTVS_COMPLEXITY>
652

> <PUBCHEM_CACTVS_HBOND_ACCEPTOR>
3

> <PUBCHEM_CACTVS_HBOND_DONOR>
1

> <PUBCHEM_CACTVS_ROTATABLE_BOND>
19

> <PUBCHEM_CACTVS_SUBSKEYS>
AAADcfB/MAAAAAAAAAAAAAAAAAAAAWAAAAA8YIAAAAAAAFixQAAAHgAQAAAADCjhmAYzwIPABACIAiRCUACCAAAhAgAIiIAIdIiIYCLAkZGWIAhslgLIyCeQwLAOAAAAQAACACAAAACAAAQAQAAAAAAAAA==

> <PUBCHEM_IUPAC_OPENEYE_NAME>
(10R)-10-(methylamino)-3-[12-(4-phenylbutoxy)dodecyl]-1,3-diazatricyclo[6.3.1.04,12]dodeca-4,6,8(12)-trien-2-one

> <PUBCHEM_IUPAC_CAS_NAME>
(10R)-10-(methylamino)-3-[12-(4-phenylbutoxy)dodecyl]-1,3-diazatricyclo[6.3.1.04,12]dodeca-4,6,8(12)-trien-2-one

> <PUBCHEM_IUPAC_NAME_MARKUP>
(10<I>R</I>)-10-(methylamino)-3-[12-(4-phenylbutoxy)dodecyl]-1,3-diazatricyclo[6.3.1.0<SUP>4,12</SUP>]dodeca-4,6,8(12)-trien-2-one

> <PUBCHEM_IUPAC_NAME>
(10R)-10-(methylamino)-3-[12-(4-phenylbutoxy)dodecyl]-1,3-diazatricyclo[6.3.1.04,12]dodeca-4,6,8(12)-trien-2-one

> <PUBCHEM_IUPAC_SYSTEMATIC_NAME>
(10R)-10-(methylamino)-3-[12-(4-phenylbutoxy)dodecyl]-1,3-diazatricyclo[6.3.1.04,12]dodeca-4,6,8(12)-trien-2-one

> <PUBCHEM_IUPAC_TRADITIONAL_NAME>
(10R)-10-(methylamino)-3-[12-(4-phenylbutoxy)dodecyl]-1,3-diazatricyclo[6.3.1.04,12]dodeca-4,6,8(12)-trien-2-one

> <PUBCHEM_IUPAC_INCHI>
InChI=1S/C33H49N3O2/c1-34-30-26-29-21-17-22-31-32(29)36(27-30)33(37)35(31)23-14-8-6-4-2-3-5-7-9-15-24-38-25-16-13-20-28-18-11-10-12-19-28/h10-12,17-19,21-22,30,34H,2-9,13-16,20,23-27H2,1H3/t30-/m1/s1

> <PUBCHEM_IUPAC_INCHIKEY>
KPQQZVGMKIYWDG-SSEXGKCCSA-N

> <PUBCHEM_XLOGP3_AA>
7.8

> <PUBCHEM_EXACT_MASS>
519.38247781

> <PUBCHEM_MOLECULAR_FORMULA>
C33H49N3O2

> <PUBCHEM_MOLECULAR_WEIGHT>
519.8

> <PUBCHEM_OPENEYE_CAN_SMILES>
CNC1CC2=C3C(=CC=C2)N(C(=O)N3C1)CCCCCCCCCCCCOCCCCC4=CC=CC=C4

> <PUBCHEM_OPENEYE_ISO_SMILES>
CN[C@@H]1CC2=C3C(=CC=C2)N(C(=O)N3C1)CCCCCCCCCCCCOCCCCC4=CC=CC=C4

> <PUBCHEM_CACTVS_TPSA>
44.8

> <PUBCHEM_MONOISOTOPIC_WEIGHT>
519.38247781

> <PUBCHEM_TOTAL_CHARGE>
0

> <PUBCHEM_HEAVY_ATOM_COUNT>
38

> <PUBCHEM_ATOM_DEF_STEREO_COUNT>
1

> <PUBCHEM_ATOM_UDEF_STEREO_COUNT>
0

> <PUBCHEM_BOND_DEF_STEREO_COUNT>
0

> <PUBCHEM_BOND_UDEF_STEREO_COUNT>
0

> <PUBCHEM_ISOTOPIC_ATOM_COUNT>
0

> <PUBCHEM_COMPONENT_COUNT>
1

> <PUBCHEM_CACTVS_TAUTO_COUNT>
-1

> <PUBCHEM_COORDINATE_TYPE>
1
5
255

> <PUBCHEM_BONDANNOTATIONS>
10  15  8
11  16  8
15  18  8
16  18  8
3  12  8
3  7  8
33  34  8
33  35  8
34  36  8
35  37  8
36  38  8
37  38  8
4  11  8
4  12  8
6  5  6
7  10  8
7  11  8

$$$$
