44436748
  -OEChem-09292322252D

 60 64  0     1  0  0  0  0  0999 V2000
    3.5211   -5.2319    0.0000 S   0  0  0  0  0  0  0  0  0  0  0  0
    5.2825   -4.1096    0.0000 O   0  0  0  0  0  0  0  0  0  0  0  0
    8.3565    2.1794    0.0000 N   0  0  3  0  0  0  0  0  0  0  0  0
    6.6558    1.0006    0.0000 N   0  0  3  0  0  0  0  0  0  0  0  0
    4.3124   -2.6748    0.0000 N   0  0  0  0  0  0  0  0  0  0  0  0
    7.4556    2.6133    0.0000 C   0  0  3  0  0  0  0  0  0  0  0  0
    6.5860    2.0398    0.0000 C   0  0  0  0  0  0  0  0  0  0  0  0
    8.4504    1.1420    0.0000 C   0  0  0  0  0  0  0  0  0  0  0  0
    7.5943    0.5486    0.0000 C   0  0  0  0  0  0  0  0  0  0  0  0
    7.2330    3.5882    0.0000 C   0  0  0  0  0  0  0  0  0  0  0  0
    9.2575    2.6133    0.0000 C   0  0  0  0  0  0  0  0  0  0  0  0
    5.8274    0.4404    0.0000 C   0  0  0  0  0  0  0  0  0  0  0  0
    7.8565    4.3700    0.0000 C   0  0  0  0  0  0  0  0  0  0  0  0
    9.4800    3.5882    0.0000 C   0  0  0  0  0  0  0  0  0  0  0  0
    8.8565    4.3700    0.0000 C   0  0  0  0  0  0  0  0  0  0  0  0
    5.8983   -0.5571    0.0000 C   0  0  0  0  0  0  0  0  0  0  0  0
    6.2008    3.7275    0.0000 C   0  0  0  0  0  0  0  0  0  0  0  0
   10.0100    1.8931    0.0000 C   0  0  0  0  0  0  0  0  0  0  0  0
    7.4910    5.3454    0.0000 C   0  0  0  0  0  0  0  0  0  0  0  0
    5.0699   -1.1172    0.0000 C   0  0  0  0  0  0  0  0  0  0  0  0
   10.4705    3.9105    0.0000 C   0  0  0  0  0  0  0  0  0  0  0  0
    5.8128    4.6942    0.0000 C   0  0  0  0  0  0  0  0  0  0  0  0
    6.4622    5.5086    0.0000 C   0  0  0  0  0  0  0  0  0  0  0  0
   11.0077    2.1924    0.0000 C   0  0  0  0  0  0  0  0  0  0  0  0
   11.2395    3.2080    0.0000 C   0  0  0  0  0  0  0  0  0  0  0  0
    5.1408   -2.1147    0.0000 C   0  0  0  0  0  0  0  0  0  0  0  0
    4.3832   -3.6723    0.0000 C   0  0  0  0  0  0  0  0  0  0  0  0
    3.5548   -4.2324    0.0000 C   0  0  0  0  0  0  0  0  0  0  0  0
    2.6148   -3.8915    0.0000 C   0  0  0  0  0  0  0  0  0  0  0  0
    2.0000   -4.6802    0.0000 C   0  0  0  0  0  0  0  0  0  0  0  0
    2.5601   -5.5086    0.0000 C   0  0  0  0  0  0  0  0  0  0  0  0
    6.8802    2.8442    0.0000 H   0  0  0  0  0  0  0  0  0  0  0  0
    6.3383    2.6082    0.0000 H   0  0  0  0  0  0  0  0  0  0  0  0
    5.9836    1.8930    0.0000 H   0  0  0  0  0  0  0  0  0  0  0  0
    8.7112    0.5795    0.0000 H   0  0  0  0  0  0  0  0  0  0  0  0
    9.0492    1.3027    0.0000 H   0  0  0  0  0  0  0  0  0  0  0  0
    7.2337    0.0443    0.0000 H   0  0  0  0  0  0  0  0  0  0  0  0
    8.0295    0.1070    0.0000 H   0  0  0  0  0  0  0  0  0  0  0  0
    5.5746    1.0065    0.0000 H   0  0  0  0  0  0  0  0  0  0  0  0
    5.2260    0.2897    0.0000 H   0  0  0  0  0  0  0  0  0  0  0  0
    9.4151    4.6390    0.0000 H   0  0  0  0  0  0  0  0  0  0  0  0
    8.7186    4.9745    0.0000 H   0  0  0  0  0  0  0  0  0  0  0  0
    6.1511   -1.1232    0.0000 H   0  0  0  0  0  0  0  0  0  0  0  0
    6.4997   -0.4064    0.0000 H   0  0  0  0  0  0  0  0  0  0  0  0
    5.8198    3.2384    0.0000 H   0  0  0  0  0  0  0  0  0  0  0  0
    9.8651    1.2903    0.0000 H   0  0  0  0  0  0  0  0  0  0  0  0
    7.8831    5.8256    0.0000 H   0  0  0  0  0  0  0  0  0  0  0  0
    4.8171   -0.5511    0.0000 H   0  0  0  0  0  0  0  0  0  0  0  0
    4.4685   -1.2679    0.0000 H   0  0  0  0  0  0  0  0  0  0  0  0
   10.6015    4.5165    0.0000 H   0  0  0  0  0  0  0  0  0  0  0  0
    5.1993    4.7842    0.0000 H   0  0  0  0  0  0  0  0  0  0  0  0
    6.2379    6.0866    0.0000 H   0  0  0  0  0  0  0  0  0  0  0  0
   11.4606    1.7690    0.0000 H   0  0  0  0  0  0  0  0  0  0  0  0
   11.8313    3.3930    0.0000 H   0  0  0  0  0  0  0  0  0  0  0  0
    5.3936   -2.6808    0.0000 H   0  0  0  0  0  0  0  0  0  0  0  0
    5.7422   -1.9640    0.0000 H   0  0  0  0  0  0  0  0  0  0  0  0
    3.7548   -2.4037    0.0000 H   0  0  0  0  0  0  0  0  0  0  0  0
    2.4432   -3.2957    0.0000 H   0  0  0  0  0  0  0  0  0  0  0  0
    1.3804   -4.6592    0.0000 H   0  0  0  0  0  0  0  0  0  0  0  0
    2.3487   -6.0914    0.0000 H   0  0  0  0  0  0  0  0  0  0  0  0
  1 28  1  0  0  0  0
  1 31  1  0  0  0  0
  2 27  2  0  0  0  0
  3  6  1  0  0  0  0
  3  8  1  0  0  0  0
  3 11  1  0  0  0  0
  4  7  1  0  0  0  0
  4  9  1  0  0  0  0
  4 12  1  0  0  0  0
  5 26  1  0  0  0  0
  5 27  1  0  0  0  0
  5 57  1  0  0  0  0
  6  7  1  0  0  0  0
  6 10  1  0  0  0  0
  6 32  1  0  0  0  0
  7 33  1  0  0  0  0
  7 34  1  0  0  0  0
  8  9  1  0  0  0  0
  8 35  1  0  0  0  0
  8 36  1  0  0  0  0
  9 37  1  0  0  0  0
  9 38  1  0  0  0  0
 10 13  1  0  0  0  0
 10 17  2  0  0  0  0
 11 14  1  0  0  0  0
 11 18  2  0  0  0  0
 12 16  1  0  0  0  0
 12 39  1  0  0  0  0
 12 40  1  0  0  0  0
 13 15  1  0  0  0  0
 13 19  2  0  0  0  0
 14 15  1  0  0  0  0
 14 21  2  0  0  0  0
 15 41  1  0  0  0  0
 15 42  1  0  0  0  0
 16 20  1  0  0  0  0
 16 43  1  0  0  0  0
 16 44  1  0  0  0  0
 17 22  1  0  0  0  0
 17 45  1  0  0  0  0
 18 24  1  0  0  0  0
 18 46  1  0  0  0  0
 19 23  1  0  0  0  0
 19 47  1  0  0  0  0
 20 26  1  0  0  0  0
 20 48  1  0  0  0  0
 20 49  1  0  0  0  0
 21 25  1  0  0  0  0
 21 50  1  0  0  0  0
 22 23  2  0  0  0  0
 22 51  1  0  0  0  0
 23 52  1  0  0  0  0
 24 25  2  0  0  0  0
 24 53  1  0  0  0  0
 25 54  1  0  0  0  0
 26 55  1  0  0  0  0
 26 56  1  0  0  0  0
 27 28  1  0  0  0  0
 28 29  2  0  0  0  0
 29 30  1  0  0  0  0
 29 58  1  0  0  0  0
 30 31  2  0  0  0  0
 30 59  1  0  0  0  0
 31 60  1  0  0  0  0
M  END
> <PUBCHEM_COMPOUND_CID>
44436748

> <PUBCHEM_COMPOUND_CANONICALIZED>
1

> <PUBCHEM_CACTVS_COMPLEXITY>
601

> <PUBCHEM_CACTVS_HBOND_ACCEPTOR>
4

> <PUBCHEM_CACTVS_HBOND_DONOR>
1

> <PUBCHEM_CACTVS_ROTATABLE_BOND>
6

> <PUBCHEM_CACTVS_SUBSKEYS>
AAADceB7IABAAAAAAAAAAAAAAAAAASAAAAA8YIAABYAAAAAB0AAAHgQQAAAADCjF2ASwwYPAAAiMAiVSUACDAIAlChBIiJkIZMgIYDLglZGUIQhglgDoyYcYgMAOgAAAAAASAAAAAAAAACQAAAAAAAAAAA==

> <PUBCHEM_IUPAC_OPENEYE_NAME>
N-[4-(2,5-diazatetracyclo[13.4.0.02,7.08,13]nonadeca-1(19),8,10,12,15,17-hexaen-5-yl)butyl]thiophene-2-carboxamide

> <PUBCHEM_IUPAC_CAS_NAME>
N-[4-(2,5-diazatetracyclo[13.4.0.02,7.08,13]nonadeca-1(19),8,10,12,15,17-hexaen-5-yl)butyl]-2-thiophenecarboxamide

> <PUBCHEM_IUPAC_NAME_MARKUP>
<I>N</I>-[4-(2,5-diazatetracyclo[13.4.0.0<SUP>2,7</SUP>.0<SUP>8,13</SUP>]nonadeca-1(19),8,10,12,15,17-hexaen-5-yl)butyl]thiophene-2-carboxamide

> <PUBCHEM_IUPAC_NAME>
N-[4-(2,5-diazatetracyclo[13.4.0.02,7.08,13]nonadeca-1(19),8,10,12,15,17-hexaen-5-yl)butyl]thiophene-2-carboxamide

> <PUBCHEM_IUPAC_SYSTEMATIC_NAME>
N-[4-(2,5-diazatetracyclo[13.4.0.02,7.08,13]nonadeca-1(19),8,10,12,15,17-hexaen-5-yl)butyl]thiophene-2-carboxamide

> <PUBCHEM_IUPAC_TRADITIONAL_NAME>
N-[4-(2,5-diazatetracyclo[13.4.0.02,7.08,13]nonadeca-1(19),8,10,12,15,17-hexaen-5-yl)butyl]thiophene-2-carboxamide

> <PUBCHEM_IUPAC_INCHI>
InChI=1S/C26H29N3OS/c30-26(25-12-7-17-31-25)27-13-5-6-14-28-15-16-29-23-11-4-2-9-21(23)18-20-8-1-3-10-22(20)24(29)19-28/h1-4,7-12,17,24H,5-6,13-16,18-19H2,(H,27,30)

> <PUBCHEM_IUPAC_INCHIKEY>
OXKVUNLFMUWLAP-UHFFFAOYSA-N

> <PUBCHEM_XLOGP3_AA>
5.1

> <PUBCHEM_EXACT_MASS>
431.20313373

> <PUBCHEM_MOLECULAR_FORMULA>
C26H29N3OS

> <PUBCHEM_MOLECULAR_WEIGHT>
431.6

> <PUBCHEM_OPENEYE_CAN_SMILES>
C1CN2C(CN1CCCCNC(=O)C3=CC=CS3)C4=CC=CC=C4CC5=CC=CC=C52

> <PUBCHEM_OPENEYE_ISO_SMILES>
C1CN2C(CN1CCCCNC(=O)C3=CC=CS3)C4=CC=CC=C4CC5=CC=CC=C52

> <PUBCHEM_CACTVS_TPSA>
63.8

> <PUBCHEM_MONOISOTOPIC_WEIGHT>
431.20313373

> <PUBCHEM_TOTAL_CHARGE>
0

> <PUBCHEM_HEAVY_ATOM_COUNT>
31

> <PUBCHEM_ATOM_DEF_STEREO_COUNT>
0

> <PUBCHEM_ATOM_UDEF_STEREO_COUNT>
1

> <PUBCHEM_BOND_DEF_STEREO_COUNT>
0

> <PUBCHEM_BOND_UDEF_STEREO_COUNT>
0

> <PUBCHEM_ISOTOPIC_ATOM_COUNT>
0

> <PUBCHEM_COMPONENT_COUNT>
1

> <PUBCHEM_CACTVS_TAUTO_COUNT>
-1

> <PUBCHEM_COORDINATE_TYPE>
1
5
255

> <PUBCHEM_BONDANNOTATIONS>
1  28  8
1  31  8
10  13  8
10  17  8
11  14  8
11  18  8
13  19  8
14  21  8
17  22  8
18  24  8
19  23  8
21  25  8
22  23  8
24  25  8
28  29  8
29  30  8
30  31  8
6  7  3

$$$$
