42625354
  -OEChem-09292322252D

 53 56  0     0  0  0  0  0  0999 V2000
    4.9889    2.1767    0.0000 O   0  0  0  0  0  0  0  0  0  0  0  0
    9.2619   -1.3106    0.0000 N   0  0  0  0  0  0  0  0  0  0  0  0
   11.2619   -1.3106    0.0000 N   0  0  0  0  0  0  0  0  0  0  0  0
    5.2619    0.4214    0.0000 N   0  0  0  0  0  0  0  0  0  0  0  0
    9.7619   -0.4446    0.0000 C   0  0  0  0  0  0  0  0  0  0  0  0
    9.7619   -2.1767    0.0000 C   0  0  0  0  0  0  0  0  0  0  0  0
    8.2619   -1.3106    0.0000 C   0  0  0  0  0  0  0  0  0  0  0  0
   10.7619   -0.4446    0.0000 C   0  0  0  0  0  0  0  0  0  0  0  0
   10.7619   -2.1767    0.0000 C   0  0  0  0  0  0  0  0  0  0  0  0
    7.7619   -0.4446    0.0000 C   0  0  0  0  0  0  0  0  0  0  0  0
    6.7619   -0.4446    0.0000 C   0  0  0  0  0  0  0  0  0  0  0  0
    6.2619    0.4214    0.0000 C   0  0  0  0  0  0  0  0  0  0  0  0
   12.2619   -1.3106    0.0000 C   0  0  0  0  0  0  0  0  0  0  0  0
    4.6783   -0.3833    0.0000 C   0  0  0  0  0  0  0  0  0  0  0  0
    3.7320   -0.0786    0.0000 C   0  0  0  0  0  0  0  0  0  0  0  0
    4.6783    1.2261    0.0000 C   0  0  0  0  0  0  0  0  0  0  0  0
    3.7320    0.9214    0.0000 C   0  0  0  0  0  0  0  0  0  0  0  0
   12.7619   -0.4446    0.0000 C   0  0  0  0  0  0  0  0  0  0  0  0
   12.7619   -2.1767    0.0000 C   0  0  0  0  0  0  0  0  0  0  0  0
    2.8660   -0.5786    0.0000 C   0  0  0  0  0  0  0  0  0  0  0  0
    2.8660    1.4214    0.0000 C   0  0  0  0  0  0  0  0  0  0  0  0
    2.0000   -0.0786    0.0000 C   0  0  0  0  0  0  0  0  0  0  0  0
   13.7619   -0.4446    0.0000 C   0  0  0  0  0  0  0  0  0  0  0  0
   13.7619   -2.1767    0.0000 C   0  0  0  0  0  0  0  0  0  0  0  0
    2.0000    0.9214    0.0000 C   0  0  0  0  0  0  0  0  0  0  0  0
   14.2619   -1.3106    0.0000 C   0  0  0  0  0  0  0  0  0  0  0  0
    9.8695    0.1660    0.0000 H   0  0  0  0  0  0  0  0  0  0  0  0
    9.1793   -0.2326    0.0000 H   0  0  0  0  0  0  0  0  0  0  0  0
    9.1793   -2.3887    0.0000 H   0  0  0  0  0  0  0  0  0  0  0  0
    9.8695   -2.7872    0.0000 H   0  0  0  0  0  0  0  0  0  0  0  0
    7.6793   -1.5227    0.0000 H   0  0  0  0  0  0  0  0  0  0  0  0
    8.3695   -1.9212    0.0000 H   0  0  0  0  0  0  0  0  0  0  0  0
   11.3445   -0.2326    0.0000 H   0  0  0  0  0  0  0  0  0  0  0  0
   10.6542    0.1660    0.0000 H   0  0  0  0  0  0  0  0  0  0  0  0
   10.6542   -2.7872    0.0000 H   0  0  0  0  0  0  0  0  0  0  0  0
   11.3445   -2.3887    0.0000 H   0  0  0  0  0  0  0  0  0  0  0  0
    8.3445   -0.2326    0.0000 H   0  0  0  0  0  0  0  0  0  0  0  0
    7.6542    0.1660    0.0000 H   0  0  0  0  0  0  0  0  0  0  0  0
    6.1793   -0.6567    0.0000 H   0  0  0  0  0  0  0  0  0  0  0  0
    6.8695   -1.0552    0.0000 H   0  0  0  0  0  0  0  0  0  0  0  0
    6.8445    0.6335    0.0000 H   0  0  0  0  0  0  0  0  0  0  0  0
    6.1542    1.0320    0.0000 H   0  0  0  0  0  0  0  0  0  0  0  0
    4.4272   -0.9502    0.0000 H   0  0  0  0  0  0  0  0  0  0  0  0
    5.2156   -0.6925    0.0000 H   0  0  0  0  0  0  0  0  0  0  0  0
   12.4519    0.0923    0.0000 H   0  0  0  0  0  0  0  0  0  0  0  0
   12.4519   -2.7136    0.0000 H   0  0  0  0  0  0  0  0  0  0  0  0
    2.8660   -1.1986    0.0000 H   0  0  0  0  0  0  0  0  0  0  0  0
    2.8660    2.0414    0.0000 H   0  0  0  0  0  0  0  0  0  0  0  0
    1.4631   -0.3886    0.0000 H   0  0  0  0  0  0  0  0  0  0  0  0
   14.0719    0.0923    0.0000 H   0  0  0  0  0  0  0  0  0  0  0  0
   14.0719   -2.7136    0.0000 H   0  0  0  0  0  0  0  0  0  0  0  0
    1.4631    1.2314    0.0000 H   0  0  0  0  0  0  0  0  0  0  0  0
   14.8819   -1.3106    0.0000 H   0  0  0  0  0  0  0  0  0  0  0  0
  1 16  2  0  0  0  0
  2  5  1  0  0  0  0
  2  6  1  0  0  0  0
  2  7  1  0  0  0  0
  3  8  1  0  0  0  0
  3  9  1  0  0  0  0
  3 13  1  0  0  0  0
  4 12  1  0  0  0  0
  4 14  1  0  0  0  0
  4 16  1  0  0  0  0
  5  8  1  0  0  0  0
  5 27  1  0  0  0  0
  5 28  1  0  0  0  0
  6  9  1  0  0  0  0
  6 29  1  0  0  0  0
  6 30  1  0  0  0  0
  7 10  1  0  0  0  0
  7 31  1  0  0  0  0
  7 32  1  0  0  0  0
  8 33  1  0  0  0  0
  8 34  1  0  0  0  0
  9 35  1  0  0  0  0
  9 36  1  0  0  0  0
 10 11  1  0  0  0  0
 10 37  1  0  0  0  0
 10 38  1  0  0  0  0
 11 12  1  0  0  0  0
 11 39  1  0  0  0  0
 11 40  1  0  0  0  0
 12 41  1  0  0  0  0
 12 42  1  0  0  0  0
 13 18  2  0  0  0  0
 13 19  1  0  0  0  0
 14 15  1  0  0  0  0
 14 43  1  0  0  0  0
 14 44  1  0  0  0  0
 15 17  1  0  0  0  0
 15 20  2  0  0  0  0
 16 17  1  0  0  0  0
 17 21  2  0  0  0  0
 18 23  1  0  0  0  0
 18 45  1  0  0  0  0
 19 24  2  0  0  0  0
 19 46  1  0  0  0  0
 20 22  1  0  0  0  0
 20 47  1  0  0  0  0
 21 25  1  0  0  0  0
 21 48  1  0  0  0  0
 22 25  2  0  0  0  0
 22 49  1  0  0  0  0
 23 26  2  0  0  0  0
 23 50  1  0  0  0  0
 24 26  1  0  0  0  0
 24 51  1  0  0  0  0
 25 52  1  0  0  0  0
 26 53  1  0  0  0  0
M  END
> <PUBCHEM_COMPOUND_CID>
42625354

> <PUBCHEM_COMPOUND_CANONICALIZED>
1

> <PUBCHEM_CACTVS_COMPLEXITY>
454

> <PUBCHEM_CACTVS_HBOND_ACCEPTOR>
3

> <PUBCHEM_CACTVS_HBOND_DONOR>
0

> <PUBCHEM_CACTVS_ROTATABLE_BOND>
6

> <PUBCHEM_CACTVS_SUBSKEYS>
AAADceB7IAAAAAAAAAAAAAAAAAAAAWAAAAA8YIAAAAAAAFgBQAAAHgAAAAAADAjBmAQwwIMAAACIAiVSUACCAAAlAgAIiAEIZMgIYDLAlZGUIQhghgDIyYcciICOgAAAAAAQAAAAAAAAACAAAAAAAAAAAA==

> <PUBCHEM_IUPAC_OPENEYE_NAME>
2-[4-(4-phenylpiperazin-1-yl)butyl]isoindolin-1-one

> <PUBCHEM_IUPAC_CAS_NAME>
2-[4-(4-phenyl-1-piperazinyl)butyl]-3H-isoindol-1-one

> <PUBCHEM_IUPAC_NAME_MARKUP>
2-[4-(4-phenylpiperazin-1-yl)butyl]-3<I>H</I>-isoindol-1-one

> <PUBCHEM_IUPAC_NAME>
2-[4-(4-phenylpiperazin-1-yl)butyl]-3H-isoindol-1-one

> <PUBCHEM_IUPAC_SYSTEMATIC_NAME>
2-[4-(4-phenylpiperazin-1-yl)butyl]-3H-isoindol-1-one

> <PUBCHEM_IUPAC_TRADITIONAL_NAME>
2-[4-(4-phenylpiperazino)butyl]isoindolin-1-one

> <PUBCHEM_IUPAC_INCHI>
InChI=1S/C22H27N3O/c26-22-21-11-5-4-8-19(21)18-25(22)13-7-6-12-23-14-16-24(17-15-23)20-9-2-1-3-10-20/h1-5,8-11H,6-7,12-18H2

> <PUBCHEM_IUPAC_INCHIKEY>
SEAGRPUHJMFFQR-UHFFFAOYSA-N

> <PUBCHEM_XLOGP3_AA>
3.3

> <PUBCHEM_EXACT_MASS>
349.215412493

> <PUBCHEM_MOLECULAR_FORMULA>
C22H27N3O

> <PUBCHEM_MOLECULAR_WEIGHT>
349.5

> <PUBCHEM_OPENEYE_CAN_SMILES>
C1CN(CCN1CCCCN2CC3=CC=CC=C3C2=O)C4=CC=CC=C4

> <PUBCHEM_OPENEYE_ISO_SMILES>
C1CN(CCN1CCCCN2CC3=CC=CC=C3C2=O)C4=CC=CC=C4

> <PUBCHEM_CACTVS_TPSA>
26.8

> <PUBCHEM_MONOISOTOPIC_WEIGHT>
349.215412493

> <PUBCHEM_TOTAL_CHARGE>
0

> <PUBCHEM_HEAVY_ATOM_COUNT>
26

> <PUBCHEM_ATOM_DEF_STEREO_COUNT>
0

> <PUBCHEM_ATOM_UDEF_STEREO_COUNT>
0

> <PUBCHEM_BOND_DEF_STEREO_COUNT>
0

> <PUBCHEM_BOND_UDEF_STEREO_COUNT>
0

> <PUBCHEM_ISOTOPIC_ATOM_COUNT>
0

> <PUBCHEM_COMPONENT_COUNT>
1

> <PUBCHEM_CACTVS_TAUTO_COUNT>
-1

> <PUBCHEM_COORDINATE_TYPE>
1
5
255

> <PUBCHEM_BONDANNOTATIONS>
13  18  8
13  19  8
15  17  8
15  20  8
17  21  8
18  23  8
19  24  8
20  22  8
21  25  8
22  25  8
23  26  8
24  26  8

$$$$
