44439944
  -OEChem-09292322262D

 48 51  0     1  0  0  0  0  0999 V2000
    2.0000    2.6904    0.0000 O   0  0  0  0  0  0  0  0  0  0  0  0
    6.3961    1.1663    0.0000 N   0  0  3  0  0  0  0  0  0  0  0  0
    4.7931   -1.0008    0.0000 N   0  0  0  0  0  0  0  0  0  0  0  0
    6.3961   -0.8337    0.0000 C   0  0  0  0  0  0  0  0  0  0  0  0
    5.5301   -0.3337    0.0000 C   0  0  0  0  0  0  0  0  0  0  0  0
    7.2622   -0.3337    0.0000 C   0  0  0  0  0  0  0  0  0  0  0  0
    7.2622    0.6663    0.0000 C   0  0  0  0  0  0  0  0  0  0  0  0
    5.5301    0.6663    0.0000 C   0  0  0  0  0  0  0  0  0  0  0  0
    6.1870   -1.8055    0.0000 C   0  0  0  0  0  0  0  0  0  0  0  0
    6.3961    2.1663    0.0000 C   0  0  0  0  0  0  0  0  0  0  0  0
    5.5301    2.6663    0.0000 C   0  0  0  0  0  0  0  0  0  0  0  0
    4.6641    1.1663    0.0000 C   0  0  0  0  0  0  0  0  0  0  0  0
    4.6641    2.1663    0.0000 C   0  0  0  0  0  0  0  0  0  0  0  0
    5.1982   -1.9086    0.0000 C   0  0  0  0  0  0  0  0  0  0  0  0
    6.8077   -2.6343    0.0000 C   0  0  0  0  0  0  0  0  0  0  0  0
    5.5301    1.6663    0.0000 C   0  0  0  0  0  0  0  0  0  0  0  0
    3.7702    0.6316    0.0000 C   0  0  0  0  0  0  0  0  0  0  0  0
    3.7702    2.7010    0.0000 C   0  0  0  0  0  0  0  0  0  0  0  0
    4.7617   -2.8475    0.0000 C   0  0  0  0  0  0  0  0  0  0  0  0
    2.8641    2.1871    0.0000 C   0  0  0  0  0  0  0  0  0  0  0  0
    2.8641    1.1455    0.0000 C   0  0  0  0  0  0  0  0  0  0  0  0
    6.3930   -3.5831    0.0000 C   0  0  0  0  0  0  0  0  0  0  0  0
    5.3631   -3.6904    0.0000 C   0  0  0  0  0  0  0  0  0  0  0  0
    2.0038    3.6904    0.0000 C   0  0  0  0  0  0  0  0  0  0  0  0
    7.4742   -0.9163    0.0000 H   0  0  0  0  0  0  0  0  0  0  0  0
    7.8728   -0.2260    0.0000 H   0  0  0  0  0  0  0  0  0  0  0  0
    7.8728    0.5586    0.0000 H   0  0  0  0  0  0  0  0  0  0  0  0
    7.4742    1.2489    0.0000 H   0  0  0  0  0  0  0  0  0  0  0  0
    6.1407    0.5586    0.0000 H   0  0  0  0  0  0  0  0  0  0  0  0
    5.7422    1.2489    0.0000 H   0  0  0  0  0  0  0  0  0  0  0  0
    7.0067    2.0586    0.0000 H   0  0  0  0  0  0  0  0  0  0  0  0
    6.6082    2.7489    0.0000 H   0  0  0  0  0  0  0  0  0  0  0  0
    5.9286    3.1412    0.0000 H   0  0  0  0  0  0  0  0  0  0  0  0
    5.1316    3.1412    0.0000 H   0  0  0  0  0  0  0  0  0  0  0  0
    4.1864   -0.8729    0.0000 H   0  0  0  0  0  0  0  0  0  0  0  0
    7.4236   -2.5629    0.0000 H   0  0  0  0  0  0  0  0  0  0  0  0
    5.8402    2.2032    0.0000 H   0  0  0  0  0  0  0  0  0  0  0  0
    4.9932    1.9763    0.0000 H   0  0  0  0  0  0  0  0  0  0  0  0
    5.2201    1.1294    0.0000 H   0  0  0  0  0  0  0  0  0  0  0  0
    3.7773    0.0117    0.0000 H   0  0  0  0  0  0  0  0  0  0  0  0
    3.7773    3.3209    0.0000 H   0  0  0  0  0  0  0  0  0  0  0  0
    4.1444   -2.9047    0.0000 H   0  0  0  0  0  0  0  0  0  0  0  0
    2.3284    0.8334    0.0000 H   0  0  0  0  0  0  0  0  0  0  0  0
    6.7590   -4.0836    0.0000 H   0  0  0  0  0  0  0  0  0  0  0  0
    5.1083   -4.2556    0.0000 H   0  0  0  0  0  0  0  0  0  0  0  0
    2.6238    3.6880    0.0000 H   0  0  0  0  0  0  0  0  0  0  0  0
    2.0062    4.3104    0.0000 H   0  0  0  0  0  0  0  0  0  0  0  0
    1.3839    3.6928    0.0000 H   0  0  0  0  0  0  0  0  0  0  0  0
  1 20  1  0  0  0  0
  1 24  1  0  0  0  0
  2  7  1  0  0  0  0
  2 10  1  0  0  0  0
  2 16  1  0  0  0  0
  3  5  1  0  0  0  0
  3 14  1  0  0  0  0
  3 35  1  0  0  0  0
  4  5  2  0  0  0  0
  4  6  1  0  0  0  0
  4  9  1  0  0  0  0
  5  8  1  0  0  0  0
  6  7  1  0  0  0  0
  6 25  1  0  0  0  0
  6 26  1  0  0  0  0
  7 27  1  0  0  0  0
  7 28  1  0  0  0  0
  8 12  1  0  0  0  0
  8 29  1  0  0  0  0
  8 30  1  0  0  0  0
  9 14  1  0  0  0  0
  9 15  2  0  0  0  0
 10 11  1  0  0  0  0
 10 31  1  0  0  0  0
 10 32  1  0  0  0  0
 11 13  1  0  0  0  0
 11 33  1  0  0  0  0
 11 34  1  0  0  0  0
 12 13  2  0  0  0  0
 12 17  1  0  0  0  0
 13 18  1  0  0  0  0
 14 19  2  0  0  0  0
 15 22  1  0  0  0  0
 15 36  1  0  0  0  0
 16 37  1  0  0  0  0
 16 38  1  0  0  0  0
 16 39  1  0  0  0  0
 17 21  2  0  0  0  0
 17 40  1  0  0  0  0
 18 20  2  0  0  0  0
 18 41  1  0  0  0  0
 19 23  1  0  0  0  0
 19 42  1  0  0  0  0
 20 21  1  0  0  0  0
 21 43  1  0  0  0  0
 22 23  2  0  0  0  0
 22 44  1  0  0  0  0
 23 45  1  0  0  0  0
 24 46  1  0  0  0  0
 24 47  1  0  0  0  0
 24 48  1  0  0  0  0
M  END
> <PUBCHEM_COMPOUND_CID>
44439944

> <PUBCHEM_COMPOUND_CANONICALIZED>
1

> <PUBCHEM_CACTVS_COMPLEXITY>
415

> <PUBCHEM_CACTVS_HBOND_ACCEPTOR>
2

> <PUBCHEM_CACTVS_HBOND_DONOR>
1

> <PUBCHEM_CACTVS_ROTATABLE_BOND>
1

> <PUBCHEM_CACTVS_SUBSKEYS>
AAADceB7IAAAAAAAAAAAAAAAAAAAAWAAAAAwYAAAAAAAAFix9AAAHgAQAAAADAzBngYyxvPJlACgAyRiRACCiCAhIiAImSA+bJgMJuLEsZuEMChk0BHI6AeQ0PIOoAABAAASAABAAAIAACQAAAAAAAAAAA==

> <PUBCHEM_IUPAC_OPENEYE_NAME>
6-methoxy-11-methyl-11,21-diazatetracyclo[12.7.0.03,8.015,20]henicosa-1(14),3(8),4,6,15,17,19-heptaene

> <PUBCHEM_IUPAC_CAS_NAME>
6-methoxy-11-methyl-11,21-diazatetracyclo[12.7.0.03,8.015,20]heneicosa-1(14),3(8),4,6,15,17,19-heptaene

> <PUBCHEM_IUPAC_NAME_MARKUP>
6-methoxy-11-methyl-11,21-diazatetracyclo[12.7.0.0<SUP>3,8</SUP>.0<SUP>15,20</SUP>]henicosa-1(14),3(8),4,6,15,17,19-heptaene

> <PUBCHEM_IUPAC_NAME>
6-methoxy-11-methyl-11,21-diazatetracyclo[12.7.0.03,8.015,20]henicosa-1(14),3(8),4,6,15,17,19-heptaene

> <PUBCHEM_IUPAC_SYSTEMATIC_NAME>
6-methoxy-11-methyl-11,21-diazatetracyclo[12.7.0.03,8.015,20]henicosa-1(14),3(8),4,6,15,17,19-heptaene

> <PUBCHEM_IUPAC_TRADITIONAL_NAME>
6-methoxy-11-methyl-11,21-diazatetracyclo[12.7.0.03,8.015,20]heneicosa-1(14),3(8),4,6,15,17,19-heptaene

> <PUBCHEM_IUPAC_INCHI>
InChI=1S/C21H24N2O/c1-23-11-9-16-13-17(24-2)8-7-15(16)14-21-19(10-12-23)18-5-3-4-6-20(18)22-21/h3-8,13,22H,9-12,14H2,1-2H3

> <PUBCHEM_IUPAC_INCHIKEY>
DKYKQBWPYFTZHN-UHFFFAOYSA-N

> <PUBCHEM_XLOGP3_AA>
4.3

> <PUBCHEM_EXACT_MASS>
320.188863393

> <PUBCHEM_MOLECULAR_FORMULA>
C21H24N2O

> <PUBCHEM_MOLECULAR_WEIGHT>
320.4

> <PUBCHEM_OPENEYE_CAN_SMILES>
CN1CCC2=C(CC3=C(CC1)C4=CC=CC=C4N3)C=CC(=C2)OC

> <PUBCHEM_OPENEYE_ISO_SMILES>
CN1CCC2=C(CC3=C(CC1)C4=CC=CC=C4N3)C=CC(=C2)OC

> <PUBCHEM_CACTVS_TPSA>
28.3

> <PUBCHEM_MONOISOTOPIC_WEIGHT>
320.188863393

> <PUBCHEM_TOTAL_CHARGE>
0

> <PUBCHEM_HEAVY_ATOM_COUNT>
24

> <PUBCHEM_ATOM_DEF_STEREO_COUNT>
0

> <PUBCHEM_ATOM_UDEF_STEREO_COUNT>
0

> <PUBCHEM_BOND_DEF_STEREO_COUNT>
0

> <PUBCHEM_BOND_UDEF_STEREO_COUNT>
0

> <PUBCHEM_ISOTOPIC_ATOM_COUNT>
0

> <PUBCHEM_COMPONENT_COUNT>
1

> <PUBCHEM_CACTVS_TAUTO_COUNT>
-1

> <PUBCHEM_COORDINATE_TYPE>
1
5
255

> <PUBCHEM_BONDANNOTATIONS>
12  13  8
12  17  8
13  18  8
14  19  8
15  22  8
17  21  8
18  20  8
19  23  8
20  21  8
22  23  8
3  14  8
3  5  8
4  5  8
4  9  8
9  14  8
9  15  8

$$$$
