45264109
  -OEChem-09292322152D

 56 58  0     0  0  0  0  0  0999 V2000
    8.4954    6.8784    0.0000 Cl  0  0  0  0  0  0  0  0  0  0  0  0
    2.3996   10.2078    0.0000 O   0  0  0  0  0  0  0  0  0  0  0  0
    1.4766    5.6200    0.0000 N   0  0  0  0  0  0  0  0  0  0  0  0
    1.4766    3.6200    0.0000 N   0  0  0  0  0  0  0  0  0  0  0  0
    2.7087   11.1588    0.0000 N   0  0  0  0  0  0  0  0  0  0  0  0
    2.3426    5.1200    0.0000 C   0  0  0  0  0  0  0  0  0  0  0  0
    0.6106    5.1200    0.0000 C   0  0  0  0  0  0  0  0  0  0  0  0
    2.3426    4.1200    0.0000 C   0  0  0  0  0  0  0  0  0  0  0  0
    0.6106    4.1200    0.0000 C   0  0  0  0  0  0  0  0  0  0  0  0
    1.4766    6.6200    0.0000 C   0  0  0  0  0  0  0  0  0  0  0  0
    2.3426    7.1200    0.0000 C   0  0  0  0  0  0  0  0  0  0  0  0
    2.3426    8.1200    0.0000 C   0  0  0  0  0  0  0  0  0  0  0  0
    1.4766    2.6200    0.0000 C   0  0  0  0  0  0  0  0  0  0  0  0
    3.2087    8.6200    0.0000 C   0  0  0  0  0  0  0  0  0  0  0  0
    0.6106    2.1200    0.0000 C   0  0  0  0  0  0  0  0  0  0  0  0
    2.3426    2.1200    0.0000 C   0  0  0  0  0  0  0  0  0  0  0  0
    3.2087    9.6200    0.0000 C   0  0  0  0  0  0  0  0  0  0  0  0
    0.6106    1.1200    0.0000 C   0  0  0  0  0  0  0  0  0  0  0  0
    2.3426    1.1200    0.0000 C   0  0  0  0  0  0  0  0  0  0  0  0
    4.0177   10.2078    0.0000 C   0  0  0  0  0  0  0  0  0  0  0  0
    1.4766    0.6200    0.0000 C   0  0  0  0  0  0  0  0  0  0  0  0
    3.7087   11.1588    0.0000 C   0  0  0  0  0  0  0  0  0  0  0  0
    4.2964   11.9679    0.0000 C   0  0  0  0  0  0  0  0  0  0  0  0
    5.2910   11.8633    0.0000 C   0  0  0  0  0  0  0  0  0  0  0  0
    3.8897   12.8814    0.0000 C   0  0  0  0  0  0  0  0  0  0  0  0
    5.8788   12.6723    0.0000 C   0  0  0  0  0  0  0  0  0  0  0  0
    4.4775   13.6904    0.0000 C   0  0  0  0  0  0  0  0  0  0  0  0
    5.4720   13.5859    0.0000 C   0  0  0  0  0  0  0  0  0  0  0  0
    2.9532    5.0123    0.0000 H   0  0  0  0  0  0  0  0  0  0  0  0
    2.5547    5.7026    0.0000 H   0  0  0  0  0  0  0  0  0  0  0  0
    0.3985    5.7026    0.0000 H   0  0  0  0  0  0  0  0  0  0  0  0
    0.0000    5.0123    0.0000 H   0  0  0  0  0  0  0  0  0  0  0  0
    2.5547    3.5374    0.0000 H   0  0  0  0  0  0  0  0  0  0  0  0
    2.9532    4.2277    0.0000 H   0  0  0  0  0  0  0  0  0  0  0  0
    0.0000    4.2277    0.0000 H   0  0  0  0  0  0  0  0  0  0  0  0
    0.3985    3.5374    0.0000 H   0  0  0  0  0  0  0  0  0  0  0  0
    1.2646    7.2026    0.0000 H   0  0  0  0  0  0  0  0  0  0  0  0
    0.8660    6.5123    0.0000 H   0  0  0  0  0  0  0  0  0  0  0  0
    2.5547    6.5374    0.0000 H   0  0  0  0  0  0  0  0  0  0  0  0
    2.9532    7.2277    0.0000 H   0  0  0  0  0  0  0  0  0  0  0  0
    2.1306    8.7026    0.0000 H   0  0  0  0  0  0  0  0  0  0  0  0
    1.7320    8.0123    0.0000 H   0  0  0  0  0  0  0  0  0  0  0  0
    3.4207    8.0374    0.0000 H   0  0  0  0  0  0  0  0  0  0  0  0
    3.8192    8.7277    0.0000 H   0  0  0  0  0  0  0  0  0  0  0  0
    0.0736    2.4300    0.0000 H   0  0  0  0  0  0  0  0  0  0  0  0
    2.8796    2.4300    0.0000 H   0  0  0  0  0  0  0  0  0  0  0  0
    0.0736    0.8100    0.0000 H   0  0  0  0  0  0  0  0  0  0  0  0
    2.8796    0.8100    0.0000 H   0  0  0  0  0  0  0  0  0  0  0  0
    4.6073   10.0162    0.0000 H   0  0  0  0  0  0  0  0  0  0  0  0
    1.4766    0.0000    0.0000 H   0  0  0  0  0  0  0  0  0  0  0  0
    5.5431   11.2969    0.0000 H   0  0  0  0  0  0  0  0  0  0  0  0
    3.2731   12.9462    0.0000 H   0  0  0  0  0  0  0  0  0  0  0  0
    6.4954   12.6075    0.0000 H   0  0  0  0  0  0  0  0  0  0  0  0
    4.2253   14.2568    0.0000 H   0  0  0  0  0  0  0  0  0  0  0  0
    5.8364   14.0875    0.0000 H   0  0  0  0  0  0  0  0  0  0  0  0
    9.4954    6.8784    0.0000 H   0  0  0  0  0  0  0  0  0  0  0  0
  1 56  1  0  0  0  0
  2  5  1  0  0  0  0
  2 17  1  0  0  0  0
  3  6  1  0  0  0  0
  3  7  1  0  0  0  0
  3 10  1  0  0  0  0
  4  8  1  0  0  0  0
  4  9  1  0  0  0  0
  4 13  1  0  0  0  0
  5 22  2  0  0  0  0
  6  8  1  0  0  0  0
  6 29  1  0  0  0  0
  6 30  1  0  0  0  0
  7  9  1  0  0  0  0
  7 31  1  0  0  0  0
  7 32  1  0  0  0  0
  8 33  1  0  0  0  0
  8 34  1  0  0  0  0
  9 35  1  0  0  0  0
  9 36  1  0  0  0  0
 10 11  1  0  0  0  0
 10 37  1  0  0  0  0
 10 38  1  0  0  0  0
 11 12  1  0  0  0  0
 11 39  1  0  0  0  0
 11 40  1  0  0  0  0
 12 14  1  0  0  0  0
 12 41  1  0  0  0  0
 12 42  1  0  0  0  0
 13 15  2  0  0  0  0
 13 16  1  0  0  0  0
 14 17  1  0  0  0  0
 14 43  1  0  0  0  0
 14 44  1  0  0  0  0
 15 18  1  0  0  0  0
 15 45  1  0  0  0  0
 16 19  2  0  0  0  0
 16 46  1  0  0  0  0
 17 20  2  0  0  0  0
 18 21  2  0  0  0  0
 18 47  1  0  0  0  0
 19 21  1  0  0  0  0
 19 48  1  0  0  0  0
 20 22  1  0  0  0  0
 20 49  1  0  0  0  0
 21 50  1  0  0  0  0
 22 23  1  0  0  0  0
 23 24  2  0  0  0  0
 23 25  1  0  0  0  0
 24 26  1  0  0  0  0
 24 51  1  0  0  0  0
 25 27  2  0  0  0  0
 25 52  1  0  0  0  0
 26 28  2  0  0  0  0
 26 53  1  0  0  0  0
 27 28  1  0  0  0  0
 27 54  1  0  0  0  0
 28 55  1  0  0  0  0
M  END
> <PUBCHEM_COMPOUND_CID>
45264109

> <PUBCHEM_COMPOUND_CANONICALIZED>
1

> <PUBCHEM_CACTVS_COMPLEXITY>
412

> <PUBCHEM_CACTVS_HBOND_ACCEPTOR>
4

> <PUBCHEM_CACTVS_HBOND_DONOR>
1

> <PUBCHEM_CACTVS_ROTATABLE_BOND>
7

> <PUBCHEM_CACTVS_SUBSKEYS>
AAADceB7IAAEAAAAAAAAAAAAAAAAAWAAAAA8YIAAAAAAAAAB0AAAHgAEAAAADAzBngQwxJMQAACpA6RyQgCCAAAlIgAomCE+bNoIZrrAkZOUMYhmgBjIyUeY2eKOAAAAAAAAAAAAAAAAAAAAAAAAAAAAAA==

> <PUBCHEM_IUPAC_OPENEYE_NAME>
3-phenyl-5-[4-(4-phenylpiperazin-1-yl)butyl]isoxazole;hydrochloride

> <PUBCHEM_IUPAC_CAS_NAME>
3-phenyl-5-[4-(4-phenyl-1-piperazinyl)butyl]isoxazole;hydrochloride

> <PUBCHEM_IUPAC_NAME_MARKUP>
3-phenyl-5-[4-(4-phenylpiperazin-1-yl)butyl]-1,2-oxazole;hydrochloride

> <PUBCHEM_IUPAC_NAME>
3-phenyl-5-[4-(4-phenylpiperazin-1-yl)butyl]-1,2-oxazole;hydrochloride

> <PUBCHEM_IUPAC_SYSTEMATIC_NAME>
3-phenyl-5-[4-(4-phenylpiperazin-1-yl)butyl]-1,2-oxazole;hydrochloride

> <PUBCHEM_IUPAC_TRADITIONAL_NAME>
3-phenyl-5-[4-(4-phenylpiperazino)butyl]isoxazole;hydrochloride

> <PUBCHEM_IUPAC_INCHI>
InChI=1S/C23H27N3O.ClH/c1-3-9-20(10-4-1)23-19-22(27-24-23)13-7-8-14-25-15-17-26(18-16-25)21-11-5-2-6-12-21;/h1-6,9-12,19H,7-8,13-18H2;1H

> <PUBCHEM_IUPAC_INCHIKEY>
BNTMSUGRWBICCC-UHFFFAOYSA-N

> <PUBCHEM_EXACT_MASS>
397.1920902

> <PUBCHEM_MOLECULAR_FORMULA>
C23H28ClN3O

> <PUBCHEM_MOLECULAR_WEIGHT>
397.9

> <PUBCHEM_OPENEYE_CAN_SMILES>
C1CN(CCN1CCCCC2=CC(=NO2)C3=CC=CC=C3)C4=CC=CC=C4.Cl

> <PUBCHEM_OPENEYE_ISO_SMILES>
C1CN(CCN1CCCCC2=CC(=NO2)C3=CC=CC=C3)C4=CC=CC=C4.Cl

> <PUBCHEM_CACTVS_TPSA>
32.5

> <PUBCHEM_MONOISOTOPIC_WEIGHT>
397.1920902

> <PUBCHEM_TOTAL_CHARGE>
0

> <PUBCHEM_HEAVY_ATOM_COUNT>
28

> <PUBCHEM_ATOM_DEF_STEREO_COUNT>
0

> <PUBCHEM_ATOM_UDEF_STEREO_COUNT>
0

> <PUBCHEM_BOND_DEF_STEREO_COUNT>
0

> <PUBCHEM_BOND_UDEF_STEREO_COUNT>
0

> <PUBCHEM_ISOTOPIC_ATOM_COUNT>
0

> <PUBCHEM_COMPONENT_COUNT>
2

> <PUBCHEM_CACTVS_TAUTO_COUNT>
-1

> <PUBCHEM_COORDINATE_TYPE>
1
5
255

> <PUBCHEM_BONDANNOTATIONS>
13  15  8
13  16  8
15  18  8
16  19  8
17  20  8
18  21  8
19  21  8
2  17  8
2  5  8
20  22  8
23  24  8
23  25  8
24  26  8
25  27  8
26  28  8
27  28  8
5  22  8

$$$$
