76325153
  -OEChem-09292322342D

 60 61  0     1  0  0  0  0  0999 V2000
   11.8625    0.0826    0.0000 F   0  0  0  0  0  0  0  0  0  0  0  0
    4.0682    4.5826    0.0000 O   0  0  0  0  0  0  0  0  0  0  0  0
    9.2644    3.5826    0.0000 O   0  0  0  0  0  0  0  0  0  0  0  0
    0.5381    4.5585    0.0000 O   0  0  0  0  0  0  0  0  0  0  0  0
    7.2303   10.2498    0.0000 O   0  0  0  0  0  0  0  0  0  0  0  0
    4.6322   10.7498    0.0000 O   0  0  0  0  0  0  0  0  0  0  0  0
    6.3642   11.7498    0.0000 O   0  0  0  0  0  0  0  0  0  0  0  0
    5.4982    9.2498    0.0000 O   0  0  0  0  0  0  0  0  0  0  0  0
    6.6663    5.0826    0.0000 N   0  0  0  0  0  0  0  0  0  0  0  0
    4.9343    5.0826    0.0000 C   0  0  2  0  0  0  0  0  0  0  0  0
    4.9343    6.0826    0.0000 C   0  0  0  0  0  0  0  0  0  0  0  0
    4.0682    6.5826    0.0000 C   0  0  0  0  0  0  0  0  0  0  0  0
    5.8003    4.5826    0.0000 C   0  0  0  0  0  0  0  0  0  0  0  0
    3.2022    6.0826    0.0000 C   0  0  0  0  0  0  0  0  0  0  0  0
    3.2022    5.0826    0.0000 C   0  0  0  0  0  0  0  0  0  0  0  0
    2.3083    6.6173    0.0000 C   0  0  0  0  0  0  0  0  0  0  0  0
    7.5324    4.5826    0.0000 C   0  0  0  0  0  0  0  0  0  0  0  0
    2.3083    4.5480    0.0000 C   0  0  0  0  0  0  0  0  0  0  0  0
    8.3984    5.0826    0.0000 C   0  0  0  0  0  0  0  0  0  0  0  0
    1.4022    6.1034    0.0000 C   0  0  0  0  0  0  0  0  0  0  0  0
    1.4022    5.0618    0.0000 C   0  0  0  0  0  0  0  0  0  0  0  0
    9.2644    4.5826    0.0000 C   0  0  0  0  0  0  0  0  0  0  0  0
    8.3984    6.0826    0.0000 C   0  0  0  0  0  0  0  0  0  0  0  0
   10.1304    3.0826    0.0000 C   0  0  0  0  0  0  0  0  0  0  0  0
   10.1304    2.0826    0.0000 C   0  0  0  0  0  0  0  0  0  0  0  0
   10.1304    5.0826    0.0000 C   0  0  0  0  0  0  0  0  0  0  0  0
    9.2644    6.5826    0.0000 C   0  0  0  0  0  0  0  0  0  0  0  0
   10.9965    1.5826    0.0000 C   0  0  0  0  0  0  0  0  0  0  0  0
   10.1304    6.0826    0.0000 C   0  0  0  0  0  0  0  0  0  0  0  0
   10.9965    0.5826    0.0000 C   0  0  0  0  0  0  0  0  0  0  0  0
    6.3642   10.7498    0.0000 C   0  0  0  0  0  0  0  0  0  0  0  0
    5.4982   10.2498    0.0000 C   0  0  0  0  0  0  0  0  0  0  0  0
    4.9343    4.4626    0.0000 H   0  0  0  0  0  0  0  0  0  0  0  0
    5.5449    5.9750    0.0000 H   0  0  0  0  0  0  0  0  0  0  0  0
    5.1463    6.6652    0.0000 H   0  0  0  0  0  0  0  0  0  0  0  0
    4.4668    7.0576    0.0000 H   0  0  0  0  0  0  0  0  0  0  0  0
    3.6697    7.0576    0.0000 H   0  0  0  0  0  0  0  0  0  0  0  0
    5.4018    4.1077    0.0000 H   0  0  0  0  0  0  0  0  0  0  0  0
    6.1988    4.1077    0.0000 H   0  0  0  0  0  0  0  0  0  0  0  0
    6.6663    5.7026    0.0000 H   0  0  0  0  0  0  0  0  0  0  0  0
    7.1338    4.1077    0.0000 H   0  0  0  0  0  0  0  0  0  0  0  0
    7.9309    4.1077    0.0000 H   0  0  0  0  0  0  0  0  0  0  0  0
    2.3154    7.2372    0.0000 H   0  0  0  0  0  0  0  0  0  0  0  0
    2.3154    3.9280    0.0000 H   0  0  0  0  0  0  0  0  0  0  0  0
    0.8665    6.4155    0.0000 H   0  0  0  0  0  0  0  0  0  0  0  0
    7.8614    6.3926    0.0000 H   0  0  0  0  0  0  0  0  0  0  0  0
   10.7410    2.9750    0.0000 H   0  0  0  0  0  0  0  0  0  0  0  0
   10.3425    3.6652    0.0000 H   0  0  0  0  0  0  0  0  0  0  0  0
    9.5198    2.1903    0.0000 H   0  0  0  0  0  0  0  0  0  0  0  0
    9.9184    1.5000    0.0000 H   0  0  0  0  0  0  0  0  0  0  0  0
   10.6674    4.7726    0.0000 H   0  0  0  0  0  0  0  0  0  0  0  0
    9.2644    7.2026    0.0000 H   0  0  0  0  0  0  0  0  0  0  0  0
   11.6070    1.4750    0.0000 H   0  0  0  0  0  0  0  0  0  0  0  0
   11.2085    2.1652    0.0000 H   0  0  0  0  0  0  0  0  0  0  0  0
   10.6674    6.3926    0.0000 H   0  0  0  0  0  0  0  0  0  0  0  0
    0.0000    4.8664    0.0000 H   0  0  0  0  0  0  0  0  0  0  0  0
   10.3859    0.6903    0.0000 H   0  0  0  0  0  0  0  0  0  0  0  0
   10.7844    0.0000    0.0000 H   0  0  0  0  0  0  0  0  0  0  0  0
    7.7672   10.5598    0.0000 H   0  0  0  0  0  0  0  0  0  0  0  0
    4.0953   10.4398    0.0000 H   0  0  0  0  0  0  0  0  0  0  0  0
  1 30  1  0  0  0  0
  2 10  1  0  0  0  0
  2 15  1  0  0  0  0
  3 22  1  0  0  0  0
  3 24  1  0  0  0  0
  4 21  1  0  0  0  0
  4 56  1  0  0  0  0
  5 31  1  0  0  0  0
  5 59  1  0  0  0  0
  6 32  1  0  0  0  0
  6 60  1  0  0  0  0
  7 31  2  0  0  0  0
  8 32  2  0  0  0  0
  9 13  1  0  0  0  0
  9 17  1  0  0  0  0
  9 40  1  0  0  0  0
 10 11  1  0  0  0  0
 10 13  1  6  0  0  0
 10 33  1  0  0  0  0
 11 12  1  0  0  0  0
 11 34  1  0  0  0  0
 11 35  1  0  0  0  0
 12 14  1  0  0  0  0
 12 36  1  0  0  0  0
 12 37  1  0  0  0  0
 13 38  1  0  0  0  0
 13 39  1  0  0  0  0
 14 15  2  0  0  0  0
 14 16  1  0  0  0  0
 15 18  1  0  0  0  0
 16 20  2  0  0  0  0
 16 43  1  0  0  0  0
 17 19  1  0  0  0  0
 17 41  1  0  0  0  0
 17 42  1  0  0  0  0
 18 21  2  0  0  0  0
 18 44  1  0  0  0  0
 19 22  1  0  0  0  0
 19 23  2  0  0  0  0
 20 21  1  0  0  0  0
 20 45  1  0  0  0  0
 22 26  2  0  0  0  0
 23 27  1  0  0  0  0
 23 46  1  0  0  0  0
 24 25  1  0  0  0  0
 24 47  1  0  0  0  0
 24 48  1  0  0  0  0
 25 28  1  0  0  0  0
 25 49  1  0  0  0  0
 25 50  1  0  0  0  0
 26 29  1  0  0  0  0
 26 51  1  0  0  0  0
 27 29  2  0  0  0  0
 27 52  1  0  0  0  0
 28 30  1  0  0  0  0
 28 53  1  0  0  0  0
 28 54  1  0  0  0  0
 29 55  1  0  0  0  0
 30 57  1  0  0  0  0
 30 58  1  0  0  0  0
 31 32  1  0  0  0  0
M  END
> <PUBCHEM_COMPOUND_CID>
76325153

> <PUBCHEM_COMPOUND_CANONICALIZED>
1

> <PUBCHEM_CACTVS_COMPLEXITY>
469

> <PUBCHEM_CACTVS_HBOND_ACCEPTOR>
9

> <PUBCHEM_CACTVS_HBOND_DONOR>
4

> <PUBCHEM_CACTVS_ROTATABLE_BOND>
10

> <PUBCHEM_CACTVS_SUBSKEYS>
AAADceB6OQAAAAAAAAAAAAAAAAAAAAAAAAA0YIAAAAAAAACRQAAAHwAQCAAADBThmAYwDoLABgCIAiDSCAKCCAAgIAAIiIBODIgPJyKGsRuHeCjn0BWZuAeQ4KwOIAAACAAIAABAAAAQABAAAAAAAAAAAA==

> <PUBCHEM_IUPAC_OPENEYE_NAME>
(2R)-2-[[[2-(4-fluorobutoxy)phenyl]methylamino]methyl]chroman-7-ol;oxalic acid

> <PUBCHEM_IUPAC_CAS_NAME>
(2R)-2-[[[2-(4-fluorobutoxy)phenyl]methylamino]methyl]-3,4-dihydro-2H-1-benzopyran-7-ol;oxalic acid

> <PUBCHEM_IUPAC_NAME_MARKUP>
(2<I>R</I>)-2-[[[2-(4-fluorobutoxy)phenyl]methylamino]methyl]-3,4-dihydro-2<I>H</I>-chromen-7-ol;oxalic acid

> <PUBCHEM_IUPAC_NAME>
(2R)-2-[[[2-(4-fluorobutoxy)phenyl]methylamino]methyl]-3,4-dihydro-2H-chromen-7-ol;oxalic acid

> <PUBCHEM_IUPAC_SYSTEMATIC_NAME>
ethanedioic acid;(2R)-2-[[[2-(4-fluoranylbutoxy)phenyl]methylamino]methyl]-3,4-dihydro-2H-chromen-7-ol

> <PUBCHEM_IUPAC_TRADITIONAL_NAME>
(2R)-2-[[[2-(4-fluorobutoxy)benzyl]amino]methyl]chroman-7-ol;oxalic acid

> <PUBCHEM_IUPAC_INCHI>
InChI=1S/C21H26FNO3.C2H2O4/c22-11-3-4-12-25-20-6-2-1-5-17(20)14-23-15-19-10-8-16-7-9-18(24)13-21(16)26-19;3-1(4)2(5)6/h1-2,5-7,9,13,19,23-24H,3-4,8,10-12,14-15H2;(H,3,4)(H,5,6)/t19-;/m1./s1

> <PUBCHEM_IUPAC_INCHIKEY>
VVDXCOWMJWSXIU-FSRHSHDFSA-N

> <PUBCHEM_EXACT_MASS>
449.18498039

> <PUBCHEM_MOLECULAR_FORMULA>
C23H28FNO7

> <PUBCHEM_MOLECULAR_WEIGHT>
449.5

> <PUBCHEM_OPENEYE_CAN_SMILES>
C1CC2=C(C=C(C=C2)O)OC1CNCC3=CC=CC=C3OCCCCF.C(=O)(C(=O)O)O

> <PUBCHEM_OPENEYE_ISO_SMILES>
C1CC2=C(C=C(C=C2)O)O[C@H]1CNCC3=CC=CC=C3OCCCCF.C(=O)(C(=O)O)O

> <PUBCHEM_CACTVS_TPSA>
125

> <PUBCHEM_MONOISOTOPIC_WEIGHT>
449.18498039

> <PUBCHEM_TOTAL_CHARGE>
0

> <PUBCHEM_HEAVY_ATOM_COUNT>
32

> <PUBCHEM_ATOM_DEF_STEREO_COUNT>
1

> <PUBCHEM_ATOM_UDEF_STEREO_COUNT>
0

> <PUBCHEM_BOND_DEF_STEREO_COUNT>
0

> <PUBCHEM_BOND_UDEF_STEREO_COUNT>
0

> <PUBCHEM_ISOTOPIC_ATOM_COUNT>
0

> <PUBCHEM_COMPONENT_COUNT>
2

> <PUBCHEM_CACTVS_TAUTO_COUNT>
-1

> <PUBCHEM_COORDINATE_TYPE>
1
5
255

> <PUBCHEM_BONDANNOTATIONS>
10  13  6
14  15  8
14  16  8
15  18  8
16  20  8
18  21  8
19  22  8
19  23  8
20  21  8
22  26  8
23  27  8
26  29  8
27  29  8

$$$$
