792265
  -OEChem-09292322342D

 52 55  0     0  0  0  0  0  0999 V2000
    2.8660   -0.2673    0.0000 O   0  0  0  0  0  0  0  0  0  0  0  0
    6.3301   -0.2673    0.0000 N   0  0  0  0  0  0  0  0  0  0  0  0
    4.5981   -1.2673    0.0000 N   0  0  0  0  0  0  0  0  0  0  0  0
    5.4641    0.2327    0.0000 C   0  0  0  0  0  0  0  0  0  0  0  0
    6.3301   -1.2673    0.0000 C   0  0  0  0  0  0  0  0  0  0  0  0
    4.5981   -0.2673    0.0000 C   0  0  0  0  0  0  0  0  0  0  0  0
    5.4641   -1.7673    0.0000 C   0  0  0  0  0  0  0  0  0  0  0  0
    7.1962    0.2327    0.0000 C   0  0  0  0  0  0  0  0  0  0  0  0
    3.7320   -1.7673    0.0000 C   0  0  0  0  0  0  0  0  0  0  0  0
    7.1962    1.2327    0.0000 C   0  0  0  0  0  0  0  0  0  0  0  0
    8.0622    1.7327    0.0000 C   0  0  0  0  0  0  0  0  0  0  0  0
    2.8660   -1.2673    0.0000 C   0  0  0  0  0  0  0  0  0  0  0  0
    3.7320   -2.7673    0.0000 C   0  0  0  0  0  0  0  0  0  0  0  0
    6.3301    1.7327    0.0000 C   0  0  0  0  0  0  0  0  0  0  0  0
    8.0622    2.7327    0.0000 C   0  0  0  0  0  0  0  0  0  0  0  0
    8.9561    1.1980    0.0000 C   0  0  0  0  0  0  0  0  0  0  0  0
    6.3301    2.7327    0.0000 C   0  0  0  0  0  0  0  0  0  0  0  0
    2.0000   -1.7673    0.0000 C   0  0  0  0  0  0  0  0  0  0  0  0
    7.1962    3.2327    0.0000 C   0  0  0  0  0  0  0  0  0  0  0  0
    2.8660   -3.2673    0.0000 C   0  0  0  0  0  0  0  0  0  0  0  0
    2.0000   -2.7673    0.0000 C   0  0  0  0  0  0  0  0  0  0  0  0
    8.9561    3.2673    0.0000 C   0  0  0  0  0  0  0  0  0  0  0  0
    9.8622    1.7118    0.0000 C   0  0  0  0  0  0  0  0  0  0  0  0
    9.8622    2.7535    0.0000 C   0  0  0  0  0  0  0  0  0  0  0  0
    2.0000    0.2327    0.0000 C   0  0  0  0  0  0  0  0  0  0  0  0
    2.0000    1.2327    0.0000 C   0  0  0  0  0  0  0  0  0  0  0  0
    5.8626    0.7076    0.0000 H   0  0  0  0  0  0  0  0  0  0  0  0
    5.0656    0.7076    0.0000 H   0  0  0  0  0  0  0  0  0  0  0  0
    6.5422   -1.8499    0.0000 H   0  0  0  0  0  0  0  0  0  0  0  0
    6.9407   -1.1597    0.0000 H   0  0  0  0  0  0  0  0  0  0  0  0
    4.3860    0.3153    0.0000 H   0  0  0  0  0  0  0  0  0  0  0  0
    3.9875   -0.3750    0.0000 H   0  0  0  0  0  0  0  0  0  0  0  0
    5.0656   -2.2423    0.0000 H   0  0  0  0  0  0  0  0  0  0  0  0
    5.8626   -2.2423    0.0000 H   0  0  0  0  0  0  0  0  0  0  0  0
    7.4082   -0.3499    0.0000 H   0  0  0  0  0  0  0  0  0  0  0  0
    7.8067    0.3403    0.0000 H   0  0  0  0  0  0  0  0  0  0  0  0
    4.2690   -3.0773    0.0000 H   0  0  0  0  0  0  0  0  0  0  0  0
    5.7932    1.4227    0.0000 H   0  0  0  0  0  0  0  0  0  0  0  0
    8.9490    0.5780    0.0000 H   0  0  0  0  0  0  0  0  0  0  0  0
    5.7932    3.0427    0.0000 H   0  0  0  0  0  0  0  0  0  0  0  0
    1.4631   -1.4573    0.0000 H   0  0  0  0  0  0  0  0  0  0  0  0
    7.1962    3.8527    0.0000 H   0  0  0  0  0  0  0  0  0  0  0  0
    2.8660   -3.8873    0.0000 H   0  0  0  0  0  0  0  0  0  0  0  0
    1.4631   -3.0773    0.0000 H   0  0  0  0  0  0  0  0  0  0  0  0
    8.9490    3.8873    0.0000 H   0  0  0  0  0  0  0  0  0  0  0  0
   10.3979    1.3998    0.0000 H   0  0  0  0  0  0  0  0  0  0  0  0
   10.3979    3.0656    0.0000 H   0  0  0  0  0  0  0  0  0  0  0  0
    1.3894    0.3403    0.0000 H   0  0  0  0  0  0  0  0  0  0  0  0
    1.7880   -0.3499    0.0000 H   0  0  0  0  0  0  0  0  0  0  0  0
    2.6200    1.2327    0.0000 H   0  0  0  0  0  0  0  0  0  0  0  0
    2.0000    1.8527    0.0000 H   0  0  0  0  0  0  0  0  0  0  0  0
    1.3800    1.2327    0.0000 H   0  0  0  0  0  0  0  0  0  0  0  0
  1 12  1  0  0  0  0
  1 25  1  0  0  0  0
  2  4  1  0  0  0  0
  2  5  1  0  0  0  0
  2  8  1  0  0  0  0
  3  6  1  0  0  0  0
  3  7  1  0  0  0  0
  3  9  1  0  0  0  0
  4  6  1  0  0  0  0
  4 27  1  0  0  0  0
  4 28  1  0  0  0  0
  5  7  1  0  0  0  0
  5 29  1  0  0  0  0
  5 30  1  0  0  0  0
  6 31  1  0  0  0  0
  6 32  1  0  0  0  0
  7 33  1  0  0  0  0
  7 34  1  0  0  0  0
  8 10  1  0  0  0  0
  8 35  1  0  0  0  0
  8 36  1  0  0  0  0
  9 12  1  0  0  0  0
  9 13  2  0  0  0  0
 10 11  1  0  0  0  0
 10 14  2  0  0  0  0
 11 15  1  0  0  0  0
 11 16  2  0  0  0  0
 12 18  2  0  0  0  0
 13 20  1  0  0  0  0
 13 37  1  0  0  0  0
 14 17  1  0  0  0  0
 14 38  1  0  0  0  0
 15 19  1  0  0  0  0
 15 22  2  0  0  0  0
 16 23  1  0  0  0  0
 16 39  1  0  0  0  0
 17 19  2  0  0  0  0
 17 40  1  0  0  0  0
 18 21  1  0  0  0  0
 18 41  1  0  0  0  0
 19 42  1  0  0  0  0
 20 21  2  0  0  0  0
 20 43  1  0  0  0  0
 21 44  1  0  0  0  0
 22 24  1  0  0  0  0
 22 45  1  0  0  0  0
 23 24  2  0  0  0  0
 23 46  1  0  0  0  0
 24 47  1  0  0  0  0
 25 26  1  0  0  0  0
 25 48  1  0  0  0  0
 25 49  1  0  0  0  0
 26 50  1  0  0  0  0
 26 51  1  0  0  0  0
 26 52  1  0  0  0  0
M  END
> <PUBCHEM_COMPOUND_CID>
792265

> <PUBCHEM_COMPOUND_CANONICALIZED>
1

> <PUBCHEM_CACTVS_COMPLEXITY>
420

> <PUBCHEM_CACTVS_HBOND_ACCEPTOR>
3

> <PUBCHEM_CACTVS_HBOND_DONOR>
0

> <PUBCHEM_CACTVS_ROTATABLE_BOND>
5

> <PUBCHEM_CACTVS_SUBSKEYS>
AAADceB7IAAAAAAAAAAAAAAAAAAAAAAAAAA8YMEAAAAAAADBVAAAHgAAAAAADAzhmAYyxsMABACAAiRCQACCCAAhIgAIiAAPbIgOZiLEsZuXOCjkwBHY6AeQwMAOgAACAAAQEAAAAAQAACAgAAAAAAAAAA==

> <PUBCHEM_IUPAC_OPENEYE_NAME>
1-(2-ethoxyphenyl)-4-(1-naphthylmethyl)piperazine

> <PUBCHEM_IUPAC_CAS_NAME>
1-(2-ethoxyphenyl)-4-(1-naphthalenylmethyl)piperazine

> <PUBCHEM_IUPAC_NAME_MARKUP>
1-(2-ethoxyphenyl)-4-(naphthalen-1-ylmethyl)piperazine

> <PUBCHEM_IUPAC_NAME>
1-(2-ethoxyphenyl)-4-(naphthalen-1-ylmethyl)piperazine

> <PUBCHEM_IUPAC_SYSTEMATIC_NAME>
1-(2-ethoxyphenyl)-4-(naphthalen-1-ylmethyl)piperazine

> <PUBCHEM_IUPAC_TRADITIONAL_NAME>
1-(1-naphthylmethyl)-4-o-phenetyl-piperazine

> <PUBCHEM_IUPAC_INCHI>
InChI=1S/C23H26N2O/c1-2-26-23-13-6-5-12-22(23)25-16-14-24(15-17-25)18-20-10-7-9-19-8-3-4-11-21(19)20/h3-13H,2,14-18H2,1H3

> <PUBCHEM_IUPAC_INCHIKEY>
YPOPWNSAWBPGOR-UHFFFAOYSA-N

> <PUBCHEM_XLOGP3_AA>
4.9

> <PUBCHEM_EXACT_MASS>
346.204513457

> <PUBCHEM_MOLECULAR_FORMULA>
C23H26N2O

> <PUBCHEM_MOLECULAR_WEIGHT>
346.5

> <PUBCHEM_OPENEYE_CAN_SMILES>
CCOC1=CC=CC=C1N2CCN(CC2)CC3=CC=CC4=CC=CC=C43

> <PUBCHEM_OPENEYE_ISO_SMILES>
CCOC1=CC=CC=C1N2CCN(CC2)CC3=CC=CC4=CC=CC=C43

> <PUBCHEM_CACTVS_TPSA>
15.7

> <PUBCHEM_MONOISOTOPIC_WEIGHT>
346.204513457

> <PUBCHEM_TOTAL_CHARGE>
0

> <PUBCHEM_HEAVY_ATOM_COUNT>
26

> <PUBCHEM_ATOM_DEF_STEREO_COUNT>
0

> <PUBCHEM_ATOM_UDEF_STEREO_COUNT>
0

> <PUBCHEM_BOND_DEF_STEREO_COUNT>
0

> <PUBCHEM_BOND_UDEF_STEREO_COUNT>
0

> <PUBCHEM_ISOTOPIC_ATOM_COUNT>
0

> <PUBCHEM_COMPONENT_COUNT>
1

> <PUBCHEM_CACTVS_TAUTO_COUNT>
-1

> <PUBCHEM_COORDINATE_TYPE>
1
5
255

> <PUBCHEM_BONDANNOTATIONS>
10  11  8
10  14  8
11  15  8
11  16  8
12  18  8
13  20  8
14  17  8
15  19  8
15  22  8
16  23  8
17  19  8
18  21  8
20  21  8
22  24  8
23  24  8
9  12  8
9  13  8

$$$$
