72545238
  -OEChem-09292322342D

 59 62  0     0  0  0  0  0  0999 V2000
   10.9762    6.6964    0.0000 F   0  0  0  0  0  0  0  0  0  0  0  0
    2.8660   -4.6964    0.0000 O   0  0  0  0  0  0  0  0  0  0  0  0
    8.1737    4.6602    0.0000 O   0  0  0  0  0  0  0  0  0  0  0  0
    4.5981   -1.6964    0.0000 N   0  0  0  0  0  0  0  0  0  0  0  0
    4.5981   -3.6964    0.0000 N   0  0  0  0  0  0  0  0  0  0  0  0
    6.5468    1.0061    0.0000 N   0  0  0  0  0  0  0  0  0  0  0  0
    6.3776   -0.6031    0.0000 N   0  0  0  0  0  0  0  0  0  0  0  0
    7.0468    0.1400    0.0000 N   0  0  0  0  0  0  0  0  0  0  0  0
    5.4641   -2.1964    0.0000 C   0  0  0  0  0  0  0  0  0  0  0  0
    3.7320   -2.1964    0.0000 C   0  0  0  0  0  0  0  0  0  0  0  0
    5.4641   -3.1964    0.0000 C   0  0  0  0  0  0  0  0  0  0  0  0
    3.7320   -3.1964    0.0000 C   0  0  0  0  0  0  0  0  0  0  0  0
    4.5981   -0.6964    0.0000 C   0  0  0  0  0  0  0  0  0  0  0  0
    4.5981   -4.6964    0.0000 C   0  0  0  0  0  0  0  0  0  0  0  0
    5.4641   -0.1964    0.0000 C   0  0  0  0  0  0  0  0  0  0  0  0
    3.7320   -5.1964    0.0000 C   0  0  0  0  0  0  0  0  0  0  0  0
    5.4641   -5.1964    0.0000 C   0  0  0  0  0  0  0  0  0  0  0  0
    5.5686    0.7981    0.0000 C   0  0  0  0  0  0  0  0  0  0  0  0
    3.7320   -6.1964    0.0000 C   0  0  0  0  0  0  0  0  0  0  0  0
    5.4641   -6.1964    0.0000 C   0  0  0  0  0  0  0  0  0  0  0  0
    4.5981   -6.6964    0.0000 C   0  0  0  0  0  0  0  0  0  0  0  0
    6.9535    1.9196    0.0000 C   0  0  0  0  0  0  0  0  0  0  0  0
    7.9480    2.0241    0.0000 C   0  0  0  0  0  0  0  0  0  0  0  0
    6.3657    2.7286    0.0000 C   0  0  0  0  0  0  0  0  0  0  0  0
    2.0000   -5.1964    0.0000 C   0  0  0  0  0  0  0  0  0  0  0  0
    8.3548    2.9377    0.0000 C   0  0  0  0  0  0  0  0  0  0  0  0
    6.7725    3.6422    0.0000 C   0  0  0  0  0  0  0  0  0  0  0  0
    7.7670    3.7467    0.0000 C   0  0  0  0  0  0  0  0  0  0  0  0
    9.1682    4.7648    0.0000 C   0  0  0  0  0  0  0  0  0  0  0  0
    9.5750    5.6783    0.0000 C   0  0  0  0  0  0  0  0  0  0  0  0
   10.5695    5.7828    0.0000 C   0  0  0  0  0  0  0  0  0  0  0  0
    6.0747   -2.3040    0.0000 H   0  0  0  0  0  0  0  0  0  0  0  0
    5.6762   -1.6138    0.0000 H   0  0  0  0  0  0  0  0  0  0  0  0
    3.5200   -1.6138    0.0000 H   0  0  0  0  0  0  0  0  0  0  0  0
    3.1215   -2.3040    0.0000 H   0  0  0  0  0  0  0  0  0  0  0  0
    5.6762   -3.7790    0.0000 H   0  0  0  0  0  0  0  0  0  0  0  0
    6.0747   -3.0887    0.0000 H   0  0  0  0  0  0  0  0  0  0  0  0
    3.1215   -3.0887    0.0000 H   0  0  0  0  0  0  0  0  0  0  0  0
    3.5200   -3.7790    0.0000 H   0  0  0  0  0  0  0  0  0  0  0  0
    4.3860   -0.1138    0.0000 H   0  0  0  0  0  0  0  0  0  0  0  0
    3.9875   -0.8040    0.0000 H   0  0  0  0  0  0  0  0  0  0  0  0
    6.0010   -4.8864    0.0000 H   0  0  0  0  0  0  0  0  0  0  0  0
    5.1079    1.2130    0.0000 H   0  0  0  0  0  0  0  0  0  0  0  0
    3.1951   -6.5064    0.0000 H   0  0  0  0  0  0  0  0  0  0  0  0
    6.0010   -6.5064    0.0000 H   0  0  0  0  0  0  0  0  0  0  0  0
    4.5981   -7.3164    0.0000 H   0  0  0  0  0  0  0  0  0  0  0  0
    8.3125    1.5225    0.0000 H   0  0  0  0  0  0  0  0  0  0  0  0
    5.7491    2.6638    0.0000 H   0  0  0  0  0  0  0  0  0  0  0  0
    1.6900   -4.6594    0.0000 H   0  0  0  0  0  0  0  0  0  0  0  0
    1.4631   -5.5064    0.0000 H   0  0  0  0  0  0  0  0  0  0  0  0
    2.3100   -5.7333    0.0000 H   0  0  0  0  0  0  0  0  0  0  0  0
    8.9714    3.0025    0.0000 H   0  0  0  0  0  0  0  0  0  0  0  0
    6.4080    4.1438    0.0000 H   0  0  0  0  0  0  0  0  0  0  0  0
    9.1250    4.1463    0.0000 H   0  0  0  0  0  0  0  0  0  0  0  0
    9.7698    4.6148    0.0000 H   0  0  0  0  0  0  0  0  0  0  0  0
    9.6182    6.2968    0.0000 H   0  0  0  0  0  0  0  0  0  0  0  0
    8.9734    5.8283    0.0000 H   0  0  0  0  0  0  0  0  0  0  0  0
   10.5263    5.1644    0.0000 H   0  0  0  0  0  0  0  0  0  0  0  0
   11.1711    5.6328    0.0000 H   0  0  0  0  0  0  0  0  0  0  0  0
  1 31  1  0  0  0  0
  2 16  1  0  0  0  0
  2 25  1  0  0  0  0
  3 28  1  0  0  0  0
  3 29  1  0  0  0  0
  4  9  1  0  0  0  0
  4 10  1  0  0  0  0
  4 13  1  0  0  0  0
  5 11  1  0  0  0  0
  5 12  1  0  0  0  0
  5 14  1  0  0  0  0
  6  8  1  0  0  0  0
  6 18  1  0  0  0  0
  6 22  1  0  0  0  0
  7  8  2  0  0  0  0
  7 15  1  0  0  0  0
  9 11  1  0  0  0  0
  9 32  1  0  0  0  0
  9 33  1  0  0  0  0
 10 12  1  0  0  0  0
 10 34  1  0  0  0  0
 10 35  1  0  0  0  0
 11 36  1  0  0  0  0
 11 37  1  0  0  0  0
 12 38  1  0  0  0  0
 12 39  1  0  0  0  0
 13 15  1  0  0  0  0
 13 40  1  0  0  0  0
 13 41  1  0  0  0  0
 14 16  1  0  0  0  0
 14 17  2  0  0  0  0
 15 18  2  0  0  0  0
 16 19  2  0  0  0  0
 17 20  1  0  0  0  0
 17 42  1  0  0  0  0
 18 43  1  0  0  0  0
 19 21  1  0  0  0  0
 19 44  1  0  0  0  0
 20 21  2  0  0  0  0
 20 45  1  0  0  0  0
 21 46  1  0  0  0  0
 22 23  2  0  0  0  0
 22 24  1  0  0  0  0
 23 26  1  0  0  0  0
 23 47  1  0  0  0  0
 24 27  2  0  0  0  0
 24 48  1  0  0  0  0
 25 49  1  0  0  0  0
 25 50  1  0  0  0  0
 25 51  1  0  0  0  0
 26 28  2  0  0  0  0
 26 52  1  0  0  0  0
 27 28  1  0  0  0  0
 27 53  1  0  0  0  0
 29 30  1  0  0  0  0
 29 54  1  0  0  0  0
 29 55  1  0  0  0  0
 30 31  1  0  0  0  0
 30 56  1  0  0  0  0
 30 57  1  0  0  0  0
 31 58  1  0  0  0  0
 31 59  1  0  0  0  0
M  END
> <PUBCHEM_COMPOUND_CID>
72545238

> <PUBCHEM_COMPOUND_CANONICALIZED>
1

> <PUBCHEM_CACTVS_COMPLEXITY>
514

> <PUBCHEM_CACTVS_HBOND_ACCEPTOR>
7

> <PUBCHEM_CACTVS_HBOND_DONOR>
0

> <PUBCHEM_CACTVS_ROTATABLE_BOND>
9

> <PUBCHEM_CACTVS_SUBSKEYS>
AAADceB7sQAAAAAAAAAAAAAAAAAAAWAAAAA8YIAAAAAAAAAB0AAAHwAIAAAACAzhlgY+xpMIBACiATRnRACCDCQxsgAYmAA/fIgOZmLE8ZuXOCjkwBHY6AewQAAAAEAAAAAAEAAAgAAAAAAgAAAAAAAAAA==

> <PUBCHEM_IUPAC_OPENEYE_NAME>
1-[[1-[4-(3-fluoropropoxy)phenyl]triazol-4-yl]methyl]-4-(2-methoxyphenyl)piperazine

> <PUBCHEM_IUPAC_CAS_NAME>
1-[[1-[4-(3-fluoropropoxy)phenyl]-4-triazolyl]methyl]-4-(2-methoxyphenyl)piperazine

> <PUBCHEM_IUPAC_NAME_MARKUP>
1-[[1-[4-(3-fluoropropoxy)phenyl]triazol-4-yl]methyl]-4-(2-methoxyphenyl)piperazine

> <PUBCHEM_IUPAC_NAME>
1-[[1-[4-(3-fluoropropoxy)phenyl]triazol-4-yl]methyl]-4-(2-methoxyphenyl)piperazine

> <PUBCHEM_IUPAC_SYSTEMATIC_NAME>
1-[[1-[4-(3-fluoranylpropoxy)phenyl]-1,2,3-triazol-4-yl]methyl]-4-(2-methoxyphenyl)piperazine

> <PUBCHEM_IUPAC_TRADITIONAL_NAME>
1-[[1-[4-(3-fluoropropoxy)phenyl]triazol-4-yl]methyl]-4-(2-methoxyphenyl)piperazine

> <PUBCHEM_IUPAC_INCHI>
InChI=1S/C23H28FN5O2/c1-30-23-6-3-2-5-22(23)28-14-12-27(13-15-28)17-19-18-29(26-25-19)20-7-9-21(10-8-20)31-16-4-11-24/h2-3,5-10,18H,4,11-17H2,1H3

> <PUBCHEM_IUPAC_INCHIKEY>
XUOARYPFOGJNNV-UHFFFAOYSA-N

> <PUBCHEM_XLOGP3_AA>
3.5

> <PUBCHEM_EXACT_MASS>
425.22270331

> <PUBCHEM_MOLECULAR_FORMULA>
C23H28FN5O2

> <PUBCHEM_MOLECULAR_WEIGHT>
425.5

> <PUBCHEM_OPENEYE_CAN_SMILES>
COC1=CC=CC=C1N2CCN(CC2)CC3=CN(N=N3)C4=CC=C(C=C4)OCCCF

> <PUBCHEM_OPENEYE_ISO_SMILES>
COC1=CC=CC=C1N2CCN(CC2)CC3=CN(N=N3)C4=CC=C(C=C4)OCCCF

> <PUBCHEM_CACTVS_TPSA>
55.6

> <PUBCHEM_MONOISOTOPIC_WEIGHT>
425.22270331

> <PUBCHEM_TOTAL_CHARGE>
0

> <PUBCHEM_HEAVY_ATOM_COUNT>
31

> <PUBCHEM_ATOM_DEF_STEREO_COUNT>
0

> <PUBCHEM_ATOM_UDEF_STEREO_COUNT>
0

> <PUBCHEM_BOND_DEF_STEREO_COUNT>
0

> <PUBCHEM_BOND_UDEF_STEREO_COUNT>
0

> <PUBCHEM_ISOTOPIC_ATOM_COUNT>
0

> <PUBCHEM_COMPONENT_COUNT>
1

> <PUBCHEM_CACTVS_TAUTO_COUNT>
-1

> <PUBCHEM_COORDINATE_TYPE>
1
5
255

> <PUBCHEM_BONDANNOTATIONS>
14  16  8
14  17  8
15  18  8
16  19  8
17  20  8
19  21  8
20  21  8
22  23  8
22  24  8
23  26  8
24  27  8
26  28  8
27  28  8
6  18  8
6  8  8
7  15  8
7  8  8

$$$$
