138671117
  -OEChem-09292322452D

 64 66  0     1  0  0  0  0  0999 V2000
   14.6456   -0.0400    0.0000 S   0  0  0  0  0  0  0  0  0  0  0  0
    2.0000    1.6903    0.0000 F   0  0  0  0  0  0  0  0  0  0  0  0
    2.9950    2.6953    0.0000 F   0  0  0  0  0  0  0  0  0  0  0  0
    3.0050    0.6953    0.0000 F   0  0  0  0  0  0  0  0  0  0  0  0
   18.7375   -1.6903    0.0000 F   0  0  0  0  0  0  0  0  0  0  0  0
   17.7425   -2.6953    0.0000 F   0  0  0  0  0  0  0  0  0  0  0  0
   17.7326   -0.6953    0.0000 F   0  0  0  0  0  0  0  0  0  0  0  0
    6.0000    1.7103    0.0000 O   0  0  0  0  0  0  0  0  0  0  0  0
   11.5128   -0.8603    0.0000 N   0  0  3  0  0  0  0  0  0  0  0  0
    6.0086   -0.0217    0.0000 N   0  0  0  0  0  0  0  0  0  0  0  0
   14.6537   -1.6494    0.0000 N   0  0  0  0  0  0  0  0  0  0  0  0
    9.0086   -0.0068    0.0000 C   0  0  0  0  0  0  0  0  0  0  0  0
    8.5129   -0.8753    0.0000 C   0  0  0  0  0  0  0  0  0  0  0  0
    8.5042    0.8567    0.0000 C   0  0  0  0  0  0  0  0  0  0  0  0
    7.0086   -0.0168    0.0000 C   0  0  0  0  0  0  0  0  0  0  0  0
    7.5129   -0.8803    0.0000 C   0  0  0  0  0  0  0  0  0  0  0  0
    7.5042    0.8518    0.0000 C   0  0  0  0  0  0  0  0  0  0  0  0
   10.0085   -0.0018    0.0000 C   0  0  0  0  0  0  0  0  0  0  0  0
   10.5128   -0.8653    0.0000 C   0  0  0  0  0  0  0  0  0  0  0  0
   11.9422    0.0428    0.0000 C   0  0  0  0  0  0  0  0  0  0  0  0
   11.9512   -1.7591    0.0000 C   0  0  0  0  0  0  0  0  0  0  0  0
   12.9160    0.2702    0.0000 C   0  0  0  0  0  0  0  0  0  0  0  0
   12.9272   -1.9768    0.0000 C   0  0  0  0  0  0  0  0  0  0  0  0
    5.5043    0.8418    0.0000 C   0  0  0  0  0  0  0  0  0  0  0  0
   13.7010   -0.3494    0.0000 C   0  0  0  0  0  0  0  0  0  0  0  0
   13.7059   -1.3494    0.0000 C   0  0  0  0  0  0  0  0  0  0  0  0
    4.5043    0.8368    0.0000 C   0  0  0  0  0  0  0  0  0  0  0  0
   15.2333   -0.8418    0.0000 C   0  0  0  0  0  0  0  0  0  0  0  0
    4.0000    1.7003    0.0000 C   0  0  0  0  0  0  0  0  0  0  0  0
   16.2333   -0.8368    0.0000 C   0  0  0  0  0  0  0  0  0  0  0  0
   16.7376   -1.7003    0.0000 C   0  0  0  0  0  0  0  0  0  0  0  0
    3.0000    1.6953    0.0000 C   0  0  0  0  0  0  0  0  0  0  0  0
   17.7376   -1.6953    0.0000 C   0  0  0  0  0  0  0  0  0  0  0  0
    9.3212   -0.5422    0.0000 H   0  0  0  0  0  0  0  0  0  0  0  0
    8.4083   -1.4864    0.0000 H   0  0  0  0  0  0  0  0  0  0  0  0
    9.0965   -1.0844    0.0000 H   0  0  0  0  0  0  0  0  0  0  0  0
    9.0858    1.0717    0.0000 H   0  0  0  0  0  0  0  0  0  0  0  0
    8.3935    1.4668    0.0000 H   0  0  0  0  0  0  0  0  0  0  0  0
    6.7013   -0.5552    0.0000 H   0  0  0  0  0  0  0  0  0  0  0  0
    6.9313   -1.0952    0.0000 H   0  0  0  0  0  0  0  0  0  0  0  0
    7.6236   -1.4903    0.0000 H   0  0  0  0  0  0  0  0  0  0  0  0
    7.6089    1.4629    0.0000 H   0  0  0  0  0  0  0  0  0  0  0  0
    6.9206    1.0609    0.0000 H   0  0  0  0  0  0  0  0  0  0  0  0
   10.5901    0.2132    0.0000 H   0  0  0  0  0  0  0  0  0  0  0  0
    9.8978    0.6082    0.0000 H   0  0  0  0  0  0  0  0  0  0  0  0
    9.9313   -1.0803    0.0000 H   0  0  0  0  0  0  0  0  0  0  0  0
   10.6236   -1.4754    0.0000 H   0  0  0  0  0  0  0  0  0  0  0  0
    5.7013   -0.5602    0.0000 H   0  0  0  0  0  0  0  0  0  0  0  0
   11.9391    0.6628    0.0000 H   0  0  0  0  0  0  0  0  0  0  0  0
   11.3371    0.1777    0.0000 H   0  0  0  0  0  0  0  0  0  0  0  0
   11.3474   -1.9001    0.0000 H   0  0  0  0  0  0  0  0  0  0  0  0
   11.9543   -2.3791    0.0000 H   0  0  0  0  0  0  0  0  0  0  0  0
   13.3988    0.6591    0.0000 H   0  0  0  0  0  0  0  0  0  0  0  0
   12.6442    0.8274    0.0000 H   0  0  0  0  0  0  0  0  0  0  0  0
   12.6610   -2.5367    0.0000 H   0  0  0  0  0  0  0  0  0  0  0  0
   13.4139   -2.3609    0.0000 H   0  0  0  0  0  0  0  0  0  0  0  0
    3.9227    0.6218    0.0000 H   0  0  0  0  0  0  0  0  0  0  0  0
    4.6150    0.2268    0.0000 H   0  0  0  0  0  0  0  0  0  0  0  0
    4.5815    1.9153    0.0000 H   0  0  0  0  0  0  0  0  0  0  0  0
    3.8893    2.3104    0.0000 H   0  0  0  0  0  0  0  0  0  0  0  0
   16.8148   -0.6218    0.0000 H   0  0  0  0  0  0  0  0  0  0  0  0
   16.1225   -0.2268    0.0000 H   0  0  0  0  0  0  0  0  0  0  0  0
   16.1560   -1.9153    0.0000 H   0  0  0  0  0  0  0  0  0  0  0  0
   16.8483   -2.3104    0.0000 H   0  0  0  0  0  0  0  0  0  0  0  0
  1 25  1  0  0  0  0
  1 28  1  0  0  0  0
  2 32  1  0  0  0  0
  3 32  1  0  0  0  0
  4 32  1  0  0  0  0
  5 33  1  0  0  0  0
  6 33  1  0  0  0  0
  7 33  1  0  0  0  0
  8 24  2  0  0  0  0
  9 19  1  0  0  0  0
  9 20  1  0  0  0  0
  9 21  1  0  0  0  0
 10 15  1  0  0  0  0
 10 24  1  0  0  0  0
 10 48  1  0  0  0  0
 11 26  1  0  0  0  0
 11 28  2  0  0  0  0
 12 13  1  0  0  0  0
 12 14  1  0  0  0  0
 12 18  1  0  0  0  0
 12 34  1  0  0  0  0
 13 16  1  0  0  0  0
 13 35  1  0  0  0  0
 13 36  1  0  0  0  0
 14 17  1  0  0  0  0
 14 37  1  0  0  0  0
 14 38  1  0  0  0  0
 15 16  1  0  0  0  0
 15 17  1  0  0  0  0
 15 39  1  0  0  0  0
 16 40  1  0  0  0  0
 16 41  1  0  0  0  0
 17 42  1  0  0  0  0
 17 43  1  0  0  0  0
 18 19  1  0  0  0  0
 18 44  1  0  0  0  0
 18 45  1  0  0  0  0
 19 46  1  0  0  0  0
 19 47  1  0  0  0  0
 20 22  1  0  0  0  0
 20 49  1  0  0  0  0
 20 50  1  0  0  0  0
 21 23  1  0  0  0  0
 21 51  1  0  0  0  0
 21 52  1  0  0  0  0
 22 25  1  0  0  0  0
 22 53  1  0  0  0  0
 22 54  1  0  0  0  0
 23 26  1  0  0  0  0
 23 55  1  0  0  0  0
 23 56  1  0  0  0  0
 24 27  1  0  0  0  0
 25 26  2  0  0  0  0
 27 29  1  0  0  0  0
 27 57  1  0  0  0  0
 27 58  1  0  0  0  0
 28 30  1  0  0  0  0
 29 32  1  0  0  0  0
 29 59  1  0  0  0  0
 29 60  1  0  0  0  0
 30 31  1  0  0  0  0
 30 61  1  0  0  0  0
 30 62  1  0  0  0  0
 31 33  1  0  0  0  0
 31 63  1  0  0  0  0
 31 64  1  0  0  0  0
M  END
> <PUBCHEM_COMPOUND_CID>
138671117

> <PUBCHEM_COMPOUND_CANONICALIZED>
1

> <PUBCHEM_CACTVS_COMPLEXITY>
624

> <PUBCHEM_CACTVS_HBOND_ACCEPTOR>
10

> <PUBCHEM_CACTVS_HBOND_DONOR>
1

> <PUBCHEM_CACTVS_ROTATABLE_BOND>
8

> <PUBCHEM_CACTVS_SUBSKEYS>
AAADceB7IcBAAAAAAAAAAAAAAAAAAWAAAAAwAAAABYAAAACxgAAAHwQQAAAADSjB1hQAgRPIEAisAQVwVAAA8KBhCDgAGJU4QAgAIBJgwAEEAAAgFgDoSAMQgIAOAAAAAAAAAAAQAAAAAAAAAAAAAAAAAA==

> <PUBCHEM_IUPAC_OPENEYE_NAME>
4,4,4-trifluoro-N-[4-[2-[2-(3,3,3-trifluoropropyl)-4,5,7,8-tetrahydrothiazolo[4,5-d]azepin-6-yl]ethyl]cyclohexyl]butanamide

> <PUBCHEM_IUPAC_CAS_NAME>
4,4,4-trifluoro-N-[4-[2-[2-(3,3,3-trifluoropropyl)-4,5,7,8-tetrahydrothiazolo[4,5-d]azepin-6-yl]ethyl]cyclohexyl]butanamide

> <PUBCHEM_IUPAC_NAME_MARKUP>
4,4,4-trifluoro-<I>N</I>-[4-[2-[2-(3,3,3-trifluoropropyl)-4,5,7,8-tetrahydro-[1,3]thiazolo[4,5-d]azepin-6-yl]ethyl]cyclohexyl]butanamide

> <PUBCHEM_IUPAC_NAME>
4,4,4-trifluoro-N-[4-[2-[2-(3,3,3-trifluoropropyl)-4,5,7,8-tetrahydro-[1,3]thiazolo[4,5-d]azepin-6-yl]ethyl]cyclohexyl]butanamide

> <PUBCHEM_IUPAC_SYSTEMATIC_NAME>
4,4,4-tris(fluoranyl)-N-[4-[2-[2-[3,3,3-tris(fluoranyl)propyl]-4,5,7,8-tetrahydro-[1,3]thiazolo[4,5-d]azepin-6-yl]ethyl]cyclohexyl]butanamide

> <PUBCHEM_IUPAC_TRADITIONAL_NAME>
4,4,4-trifluoro-N-[4-[2-[2-(3,3,3-trifluoropropyl)-4,5,7,8-tetrahydrothiazol[4,5-d]azepin-6-yl]ethyl]cyclohexyl]butyramide

> <PUBCHEM_IUPAC_INCHI>
InChI=1S/C22H31F6N3OS/c23-21(24,25)10-5-19(32)29-16-3-1-15(2-4-16)7-12-31-13-8-17-18(9-14-31)33-20(30-17)6-11-22(26,27)28/h15-16H,1-14H2,(H,29,32)

> <PUBCHEM_IUPAC_INCHIKEY>
XLEWIENHGJAYQF-UHFFFAOYSA-N

> <PUBCHEM_XLOGP3_AA>
5.7

> <PUBCHEM_EXACT_MASS>
499.20920277

> <PUBCHEM_MOLECULAR_FORMULA>
C22H31F6N3OS

> <PUBCHEM_MOLECULAR_WEIGHT>
499.6

> <PUBCHEM_OPENEYE_CAN_SMILES>
C1CC(CCC1CCN2CCC3=C(CC2)SC(=N3)CCC(F)(F)F)NC(=O)CCC(F)(F)F

> <PUBCHEM_OPENEYE_ISO_SMILES>
C1CC(CCC1CCN2CCC3=C(CC2)SC(=N3)CCC(F)(F)F)NC(=O)CCC(F)(F)F

> <PUBCHEM_CACTVS_TPSA>
73.5

> <PUBCHEM_MONOISOTOPIC_WEIGHT>
499.20920277

> <PUBCHEM_TOTAL_CHARGE>
0

> <PUBCHEM_HEAVY_ATOM_COUNT>
33

> <PUBCHEM_ATOM_DEF_STEREO_COUNT>
0

> <PUBCHEM_ATOM_UDEF_STEREO_COUNT>
0

> <PUBCHEM_BOND_DEF_STEREO_COUNT>
0

> <PUBCHEM_BOND_UDEF_STEREO_COUNT>
0

> <PUBCHEM_ISOTOPIC_ATOM_COUNT>
0

> <PUBCHEM_COMPONENT_COUNT>
1

> <PUBCHEM_CACTVS_TAUTO_COUNT>
-1

> <PUBCHEM_COORDINATE_TYPE>
1
5
255

> <PUBCHEM_BONDANNOTATIONS>
1  25  8
1  28  8
11  26  8
11  28  8
25  26  8

$$$$
