44305156
  -OEChem-09292322222D

 40 43  0     1  0  0  0  0  0999 V2000
    2.0000   -4.0167    0.0000 F   0  0  0  0  0  0  0  0  0  0  0  0
    8.2619   -1.0526    0.0000 O   0  0  0  0  0  0  0  0  0  0  0  0
    5.0000   -0.5526    0.0000 N   0  0  3  0  0  0  0  0  0  0  0  0
    8.2701    4.0167    0.0000 N   0  0  0  0  0  0  0  0  0  0  0  0
    6.5298   -1.0526    0.0000 C   0  0  2  0  0  0  0  0  0  0  0  0
    6.5298   -0.0526    0.0000 C   0  0  2  0  0  0  0  0  0  0  0  0
    5.5836   -1.3573    0.0000 C   0  0  0  0  0  0  0  0  0  0  0  0
    5.5836    0.2522    0.0000 C   0  0  0  0  0  0  0  0  0  0  0  0
    7.3958   -1.5526    0.0000 C   0  0  0  0  0  0  0  0  0  0  0  0
    7.3958    0.4474    0.0000 C   0  0  0  0  0  0  0  0  0  0  0  0
    4.0000   -0.5526    0.0000 C   0  0  0  0  0  0  0  0  0  0  0  0
    8.2619   -0.0526    0.0000 C   0  0  0  0  0  0  0  0  0  0  0  0
    7.3798    1.4889    0.0000 C   0  0  0  0  0  0  0  0  0  0  0  0
    3.5000   -1.4186    0.0000 C   0  0  0  0  0  0  0  0  0  0  0  0
    9.1719    0.4543    0.0000 C   0  0  0  0  0  0  0  0  0  0  0  0
    8.2778    2.0167    0.0000 C   0  0  0  0  0  0  0  0  0  0  0  0
    9.1799    1.4959    0.0000 C   0  0  0  0  0  0  0  0  0  0  0  0
    4.0000   -2.2846    0.0000 C   0  0  0  0  0  0  0  0  0  0  0  0
    2.5000   -1.4186    0.0000 C   0  0  0  0  0  0  0  0  0  0  0  0
    3.5000   -3.1506    0.0000 C   0  0  0  0  0  0  0  0  0  0  0  0
    2.0000   -2.2846    0.0000 C   0  0  0  0  0  0  0  0  0  0  0  0
    8.2740    3.0167    0.0000 C   0  0  0  0  0  0  0  0  0  0  0  0
    2.5000   -3.1506    0.0000 C   0  0  0  0  0  0  0  0  0  0  0  0
    6.4399   -1.8978    0.0000 H   0  0  0  0  0  0  0  0  0  0  0  0
    6.4399    0.7927    0.0000 H   0  0  0  0  0  0  0  0  0  0  0  0
    5.0462   -1.6665    0.0000 H   0  0  0  0  0  0  0  0  0  0  0  0
    5.8346   -1.9242    0.0000 H   0  0  0  0  0  0  0  0  0  0  0  0
    5.8346    0.8191    0.0000 H   0  0  0  0  0  0  0  0  0  0  0  0
    5.0462    0.5614    0.0000 H   0  0  0  0  0  0  0  0  0  0  0  0
    6.9973   -2.0275    0.0000 H   0  0  0  0  0  0  0  0  0  0  0  0
    7.7944   -2.0275    0.0000 H   0  0  0  0  0  0  0  0  0  0  0  0
    4.1077    0.0580    0.0000 H   0  0  0  0  0  0  0  0  0  0  0  0
    3.4174   -0.3405    0.0000 H   0  0  0  0  0  0  0  0  0  0  0  0
    6.8393    1.7927    0.0000 H   0  0  0  0  0  0  0  0  0  0  0  0
    9.7052    0.1381    0.0000 H   0  0  0  0  0  0  0  0  0  0  0  0
    9.7180    1.8038    0.0000 H   0  0  0  0  0  0  0  0  0  0  0  0
    4.6200   -2.2846    0.0000 H   0  0  0  0  0  0  0  0  0  0  0  0
    2.1900   -0.8817    0.0000 H   0  0  0  0  0  0  0  0  0  0  0  0
    3.8100   -3.6876    0.0000 H   0  0  0  0  0  0  0  0  0  0  0  0
    1.3800   -2.2846    0.0000 H   0  0  0  0  0  0  0  0  0  0  0  0
  1 23  1  0  0  0  0
  2  9  1  0  0  0  0
  2 12  1  0  0  0  0
  3  7  1  0  0  0  0
  3  8  1  0  0  0  0
  3 11  1  0  0  0  0
  4 22  3  0  0  0  0
  5  6  1  0  0  0  0
  5  7  1  0  0  0  0
  5  9  1  0  0  0  0
  5 24  1  6  0  0  0
  6  8  1  0  0  0  0
  6 10  1  0  0  0  0
  6 25  1  1  0  0  0
  7 26  1  0  0  0  0
  7 27  1  0  0  0  0
  8 28  1  0  0  0  0
  8 29  1  0  0  0  0
  9 30  1  0  0  0  0
  9 31  1  0  0  0  0
 10 12  2  0  0  0  0
 10 13  1  0  0  0  0
 11 14  1  0  0  0  0
 11 32  1  0  0  0  0
 11 33  1  0  0  0  0
 12 15  1  0  0  0  0
 13 16  2  0  0  0  0
 13 34  1  0  0  0  0
 14 18  2  0  0  0  0
 14 19  1  0  0  0  0
 15 17  2  0  0  0  0
 15 35  1  0  0  0  0
 16 17  1  0  0  0  0
 16 22  1  0  0  0  0
 17 36  1  0  0  0  0
 18 20  1  0  0  0  0
 18 37  1  0  0  0  0
 19 21  2  0  0  0  0
 19 38  1  0  0  0  0
 20 23  2  0  0  0  0
 20 39  1  0  0  0  0
 21 23  1  0  0  0  0
 21 40  1  0  0  0  0
M  END
> <PUBCHEM_COMPOUND_CID>
44305156

> <PUBCHEM_COMPOUND_CANONICALIZED>
1

> <PUBCHEM_CACTVS_COMPLEXITY>
467

> <PUBCHEM_CACTVS_HBOND_ACCEPTOR>
4

> <PUBCHEM_CACTVS_HBOND_DONOR>
0

> <PUBCHEM_CACTVS_ROTATABLE_BOND>
2

> <PUBCHEM_CACTVS_SUBSKEYS>
AAADceB7IQAAAAAAAAAAAAAAAAAAAWAAAAA0YIAAAAAAAFiRQAAAHwAAAAAADQThmA4wBoMABACQBiBCAACiCAAgIAAIiAAODIgMpiKEsRuGOCjmwBGIqA+w0OIOoAACAAAIAABAAAQAABAAAAAAAAAAAA==

> <PUBCHEM_IUPAC_OPENEYE_NAME>
(3aR,9bS)-2-[(4-fluorophenyl)methyl]-3,3a,4,9b-tetrahydro-1H-chromeno[3,4-c]pyrrole-8-carbonitrile

> <PUBCHEM_IUPAC_CAS_NAME>
(3aR,9bS)-2-[(4-fluorophenyl)methyl]-3,3a,4,9b-tetrahydro-1H-[1]benzopyrano[3,4-c]pyrrole-8-carbonitrile

> <PUBCHEM_IUPAC_NAME_MARKUP>
(3<I>a</I><I>R</I>,9<I>b</I><I>S</I>)-2-[(4-fluorophenyl)methyl]-3,3<I>a</I>,4,9<I>b</I>-tetrahydro-1<I>H</I>-chromeno[3,4-c]pyrrole-8-carbonitrile

> <PUBCHEM_IUPAC_NAME>
(3aR,9bS)-2-[(4-fluorophenyl)methyl]-3,3a,4,9b-tetrahydro-1H-chromeno[3,4-c]pyrrole-8-carbonitrile

> <PUBCHEM_IUPAC_SYSTEMATIC_NAME>
(3aR,9bS)-2-[(4-fluorophenyl)methyl]-3,3a,4,9b-tetrahydro-1H-chromeno[3,4-c]pyrrole-8-carbonitrile

> <PUBCHEM_IUPAC_TRADITIONAL_NAME>
(3aR,9bS)-2-(4-fluorobenzyl)-3,3a,4,9b-tetrahydro-1H-chromeno[3,4-c]pyrrole-8-carbonitrile

> <PUBCHEM_IUPAC_INCHI>
InChI=1S/C19H17FN2O/c20-16-4-1-13(2-5-16)9-22-10-15-12-23-19-6-3-14(8-21)7-17(19)18(15)11-22/h1-7,15,18H,9-12H2/t15-,18+/m1/s1

> <PUBCHEM_IUPAC_INCHIKEY>
UVDIFPYXVNSROD-QAPCUYQASA-N

> <PUBCHEM_XLOGP3_AA>
3.1

> <PUBCHEM_EXACT_MASS>
308.13249133

> <PUBCHEM_MOLECULAR_FORMULA>
C19H17FN2O

> <PUBCHEM_MOLECULAR_WEIGHT>
308.3

> <PUBCHEM_OPENEYE_CAN_SMILES>
C1C2COC3=C(C2CN1CC4=CC=C(C=C4)F)C=C(C=C3)C#N

> <PUBCHEM_OPENEYE_ISO_SMILES>
C1[C@@H]2COC3=C([C@H]2CN1CC4=CC=C(C=C4)F)C=C(C=C3)C#N

> <PUBCHEM_CACTVS_TPSA>
36.3

> <PUBCHEM_MONOISOTOPIC_WEIGHT>
308.13249133

> <PUBCHEM_TOTAL_CHARGE>
0

> <PUBCHEM_HEAVY_ATOM_COUNT>
23

> <PUBCHEM_ATOM_DEF_STEREO_COUNT>
2

> <PUBCHEM_ATOM_UDEF_STEREO_COUNT>
0

> <PUBCHEM_BOND_DEF_STEREO_COUNT>
0

> <PUBCHEM_BOND_UDEF_STEREO_COUNT>
0

> <PUBCHEM_ISOTOPIC_ATOM_COUNT>
0

> <PUBCHEM_COMPONENT_COUNT>
1

> <PUBCHEM_CACTVS_TAUTO_COUNT>
-1

> <PUBCHEM_COORDINATE_TYPE>
1
5
255

> <PUBCHEM_BONDANNOTATIONS>
10  12  8
10  13  8
12  15  8
13  16  8
14  18  8
14  19  8
15  17  8
16  17  8
18  20  8
19  21  8
20  23  8
21  23  8
5  24  6
6  25  5

$$$$
