44309005
  -OEChem-09292322222D

 54 56  0     1  0  0  0  0  0999 V2000
   10.6766   -2.5123    0.0000 O   0  0  0  0  0  0  0  0  0  0  0  0
    2.8660    2.0223    0.0000 O   0  0  0  0  0  0  0  0  0  0  0  0
    7.1962    0.5223    0.0000 N   0  0  3  0  0  0  0  0  0  0  0  0
    8.0622    0.0223    0.0000 C   0  0  2  0  0  0  0  0  0  0  0  0
    8.0622   -0.9777    0.0000 C   0  0  0  0  0  0  0  0  0  0  0  0
    8.9282    0.5223    0.0000 C   0  0  0  0  0  0  0  0  0  0  0  0
    8.9282   -1.4777    0.0000 C   0  0  0  0  0  0  0  0  0  0  0  0
    9.7942    0.0223    0.0000 C   0  0  0  0  0  0  0  0  0  0  0  0
    9.7942   -0.9777    0.0000 C   0  0  0  0  0  0  0  0  0  0  0  0
    7.1962    1.5223    0.0000 C   0  0  0  0  0  0  0  0  0  0  0  0
    6.3301    0.0223    0.0000 C   0  0  0  0  0  0  0  0  0  0  0  0
   10.6882   -1.5124    0.0000 C   0  0  0  0  0  0  0  0  0  0  0  0
   10.6882    0.5569    0.0000 C   0  0  0  0  0  0  0  0  0  0  0  0
    8.0622    2.0223    0.0000 C   0  0  0  0  0  0  0  0  0  0  0  0
    5.4641    0.5223    0.0000 C   0  0  0  0  0  0  0  0  0  0  0  0
   11.5942   -0.9985    0.0000 C   0  0  0  0  0  0  0  0  0  0  0  0
   11.5942    0.0431    0.0000 C   0  0  0  0  0  0  0  0  0  0  0  0
    8.0622    3.0223    0.0000 C   0  0  0  0  0  0  0  0  0  0  0  0
    5.4641    1.5223    0.0000 C   0  0  0  0  0  0  0  0  0  0  0  0
    4.5981    0.0223    0.0000 C   0  0  0  0  0  0  0  0  0  0  0  0
    4.5981    2.0223    0.0000 C   0  0  0  0  0  0  0  0  0  0  0  0
    3.7320    0.5223    0.0000 C   0  0  0  0  0  0  0  0  0  0  0  0
   11.5368   -3.0223    0.0000 C   0  0  0  0  0  0  0  0  0  0  0  0
    3.7320    1.5223    0.0000 C   0  0  0  0  0  0  0  0  0  0  0  0
    2.0000    1.5223    0.0000 C   0  0  0  0  0  0  0  0  0  0  0  0
    8.0622    0.6423    0.0000 H   0  0  0  0  0  0  0  0  0  0  0  0
    7.4516   -0.8701    0.0000 H   0  0  0  0  0  0  0  0  0  0  0  0
    7.8501   -1.5603    0.0000 H   0  0  0  0  0  0  0  0  0  0  0  0
    9.3267    0.9972    0.0000 H   0  0  0  0  0  0  0  0  0  0  0  0
    8.5297    0.9972    0.0000 H   0  0  0  0  0  0  0  0  0  0  0  0
    8.5297   -1.9527    0.0000 H   0  0  0  0  0  0  0  0  0  0  0  0
    9.3267   -1.9527    0.0000 H   0  0  0  0  0  0  0  0  0  0  0  0
    6.9841    2.1049    0.0000 H   0  0  0  0  0  0  0  0  0  0  0  0
    6.5856    1.4146    0.0000 H   0  0  0  0  0  0  0  0  0  0  0  0
    5.9316   -0.4527    0.0000 H   0  0  0  0  0  0  0  0  0  0  0  0
    6.7287   -0.4527    0.0000 H   0  0  0  0  0  0  0  0  0  0  0  0
   10.6810    1.1769    0.0000 H   0  0  0  0  0  0  0  0  0  0  0  0
    8.2742    1.4397    0.0000 H   0  0  0  0  0  0  0  0  0  0  0  0
    8.6728    2.1300    0.0000 H   0  0  0  0  0  0  0  0  0  0  0  0
   12.1300   -1.3106    0.0000 H   0  0  0  0  0  0  0  0  0  0  0  0
   12.1300    0.3552    0.0000 H   0  0  0  0  0  0  0  0  0  0  0  0
    8.6822    3.0223    0.0000 H   0  0  0  0  0  0  0  0  0  0  0  0
    8.0622    3.6423    0.0000 H   0  0  0  0  0  0  0  0  0  0  0  0
    7.4422    3.0223    0.0000 H   0  0  0  0  0  0  0  0  0  0  0  0
    6.0010    1.8323    0.0000 H   0  0  0  0  0  0  0  0  0  0  0  0
    4.5981   -0.5977    0.0000 H   0  0  0  0  0  0  0  0  0  0  0  0
    4.5981    2.6423    0.0000 H   0  0  0  0  0  0  0  0  0  0  0  0
    3.1951    0.2123    0.0000 H   0  0  0  0  0  0  0  0  0  0  0  0
   11.2206   -3.5556    0.0000 H   0  0  0  0  0  0  0  0  0  0  0  0
   12.0701   -3.3385    0.0000 H   0  0  0  0  0  0  0  0  0  0  0  0
   11.8530   -2.4890    0.0000 H   0  0  0  0  0  0  0  0  0  0  0  0
    1.6900    2.0592    0.0000 H   0  0  0  0  0  0  0  0  0  0  0  0
    1.4631    1.2123    0.0000 H   0  0  0  0  0  0  0  0  0  0  0  0
    2.3100    0.9854    0.0000 H   0  0  0  0  0  0  0  0  0  0  0  0
  1 12  1  0  0  0  0
  1 23  1  0  0  0  0
  2 24  1  0  0  0  0
  2 25  1  0  0  0  0
  4  3  1  1  0  0  0
  3 10  1  0  0  0  0
  3 11  1  0  0  0  0
  4  5  1  0  0  0  0
  4  6  1  0  0  0  0
  4 26  1  0  0  0  0
  5  7  1  0  0  0  0
  5 27  1  0  0  0  0
  5 28  1  0  0  0  0
  6  8  1  0  0  0  0
  6 29  1  0  0  0  0
  6 30  1  0  0  0  0
  7  9  1  0  0  0  0
  7 31  1  0  0  0  0
  7 32  1  0  0  0  0
  8  9  2  0  0  0  0
  8 13  1  0  0  0  0
  9 12  1  0  0  0  0
 10 14  1  0  0  0  0
 10 33  1  0  0  0  0
 10 34  1  0  0  0  0
 11 15  1  0  0  0  0
 11 35  1  0  0  0  0
 11 36  1  0  0  0  0
 12 16  2  0  0  0  0
 13 17  2  0  0  0  0
 13 37  1  0  0  0  0
 14 18  1  0  0  0  0
 14 38  1  0  0  0  0
 14 39  1  0  0  0  0
 15 19  2  0  0  0  0
 15 20  1  0  0  0  0
 16 17  1  0  0  0  0
 16 40  1  0  0  0  0
 17 41  1  0  0  0  0
 18 42  1  0  0  0  0
 18 43  1  0  0  0  0
 18 44  1  0  0  0  0
 19 21  1  0  0  0  0
 19 45  1  0  0  0  0
 20 22  2  0  0  0  0
 20 46  1  0  0  0  0
 21 24  2  0  0  0  0
 21 47  1  0  0  0  0
 22 24  1  0  0  0  0
 22 48  1  0  0  0  0
 23 49  1  0  0  0  0
 23 50  1  0  0  0  0
 23 51  1  0  0  0  0
 25 52  1  0  0  0  0
 25 53  1  0  0  0  0
 25 54  1  0  0  0  0
M  END
> <PUBCHEM_COMPOUND_CID>
44309005

> <PUBCHEM_COMPOUND_CANONICALIZED>
1

> <PUBCHEM_CACTVS_COMPLEXITY>
380

> <PUBCHEM_CACTVS_HBOND_ACCEPTOR>
3

> <PUBCHEM_CACTVS_HBOND_DONOR>
0

> <PUBCHEM_CACTVS_ROTATABLE_BOND>
7

> <PUBCHEM_CACTVS_SUBSKEYS>
AAADceB6MAAAAAAAAAAAAAAAAAAAAAAAAAAwYMAAAAAAAADBQAAAHgAAAAAADCzBmAYyBoMABACAAiBCAACCCAAgIAAIiAAODIgMJiKEsRuEMChkwBGIqAeQ0LMOoAABAAAYAABQAAKAADAAAAAAAAAAAA==

> <PUBCHEM_IUPAC_OPENEYE_NAME>
(2R)-5-methoxy-N-[(4-methoxyphenyl)methyl]-N-propyl-tetralin-2-amine

> <PUBCHEM_IUPAC_CAS_NAME>
(2R)-5-methoxy-N-[(4-methoxyphenyl)methyl]-N-propyl-1,2,3,4-tetrahydronaphthalen-2-amine

> <PUBCHEM_IUPAC_NAME_MARKUP>
(2<I>R</I>)-5-methoxy-<I>N</I>-[(4-methoxyphenyl)methyl]-<I>N</I>-propyl-1,2,3,4-tetrahydronaphthalen-2-amine

> <PUBCHEM_IUPAC_NAME>
(2R)-5-methoxy-N-[(4-methoxyphenyl)methyl]-N-propyl-1,2,3,4-tetrahydronaphthalen-2-amine

> <PUBCHEM_IUPAC_SYSTEMATIC_NAME>
(2R)-5-methoxy-N-[(4-methoxyphenyl)methyl]-N-propyl-1,2,3,4-tetrahydronaphthalen-2-amine

> <PUBCHEM_IUPAC_TRADITIONAL_NAME>
[(2R)-5-methoxytetralin-2-yl]-p-anisyl-propyl-amine

> <PUBCHEM_IUPAC_INCHI>
InChI=1S/C22H29NO2/c1-4-14-23(16-17-8-11-20(24-2)12-9-17)19-10-13-21-18(15-19)6-5-7-22(21)25-3/h5-9,11-12,19H,4,10,13-16H2,1-3H3/t19-/m1/s1

> <PUBCHEM_IUPAC_INCHIKEY>
JAUQVGAQEBWHPG-LJQANCHMSA-N

> <PUBCHEM_XLOGP3_AA>
5

> <PUBCHEM_EXACT_MASS>
339.219829168

> <PUBCHEM_MOLECULAR_FORMULA>
C22H29NO2

> <PUBCHEM_MOLECULAR_WEIGHT>
339.5

> <PUBCHEM_OPENEYE_CAN_SMILES>
CCCN(CC1=CC=C(C=C1)OC)C2CCC3=C(C2)C=CC=C3OC

> <PUBCHEM_OPENEYE_ISO_SMILES>
CCCN(CC1=CC=C(C=C1)OC)[C@@H]2CCC3=C(C2)C=CC=C3OC

> <PUBCHEM_CACTVS_TPSA>
21.7

> <PUBCHEM_MONOISOTOPIC_WEIGHT>
339.219829168

> <PUBCHEM_TOTAL_CHARGE>
0

> <PUBCHEM_HEAVY_ATOM_COUNT>
25

> <PUBCHEM_ATOM_DEF_STEREO_COUNT>
1

> <PUBCHEM_ATOM_UDEF_STEREO_COUNT>
0

> <PUBCHEM_BOND_DEF_STEREO_COUNT>
0

> <PUBCHEM_BOND_UDEF_STEREO_COUNT>
0

> <PUBCHEM_ISOTOPIC_ATOM_COUNT>
0

> <PUBCHEM_COMPONENT_COUNT>
1

> <PUBCHEM_CACTVS_TAUTO_COUNT>
-1

> <PUBCHEM_COORDINATE_TYPE>
1
5
255

> <PUBCHEM_BONDANNOTATIONS>
12  16  8
13  17  8
15  19  8
15  20  8
16  17  8
19  21  8
20  22  8
21  24  8
22  24  8
4  3  5
8  13  8
8  9  8
9  12  8

$$$$
