126534462
  -OEChem-09292322372D

 58 62  0     1  0  0  0  0  0999 V2000
   10.1063    2.2926    0.0000 S   0  0  0  0  0  0  0  0  0  0  0  0
    4.6254   -0.2485    0.0000 N   0  0  3  0  0  0  0  0  0  0  0  0
    7.1063    0.5606    0.0000 N   0  0  3  0  0  0  0  0  0  0  0  0
    2.0000    0.0789    0.0000 N   0  0  0  0  0  0  0  0  0  0  0  0
   11.6941    1.4836    0.0000 N   0  0  0  0  0  0  0  0  0  0  0  0
   11.6941    3.1016    0.0000 N   0  0  0  0  0  0  0  0  0  0  0  0
   12.6452    2.7926    0.0000 N   0  0  0  0  0  0  0  0  0  0  0  0
   14.3677    1.6116    0.0000 N   0  0  0  0  0  0  0  0  0  0  0  0
   14.1587   -0.3775    0.0000 N   0  0  0  0  0  0  0  0  0  0  0  0
    5.5765    1.0606    0.0000 C   0  0  3  0  0  0  0  0  0  0  0  0
    5.5765    0.0606    0.0000 C   0  0  3  0  0  0  0  0  0  0  0  0
    6.5227    1.3653    0.0000 C   0  0  0  0  0  0  0  0  0  0  0  0
    4.6254    1.3696    0.0000 C   0  0  0  0  0  0  0  0  0  0  0  0
    6.5227   -0.2442    0.0000 C   0  0  0  0  0  0  0  0  0  0  0  0
    4.0376    0.5606    0.0000 C   0  0  0  0  0  0  0  0  0  0  0  0
    8.1063    0.5606    0.0000 C   0  0  0  0  0  0  0  0  0  0  0  0
    4.3164   -1.1995    0.0000 C   0  0  0  0  0  0  0  0  0  0  0  0
    8.6063    1.4266    0.0000 C   0  0  0  0  0  0  0  0  0  0  0  0
    3.3383   -1.4074    0.0000 C   0  0  0  0  0  0  0  0  0  0  0  0
    4.9855   -1.9427    0.0000 C   0  0  0  0  0  0  0  0  0  0  0  0
    9.6063    1.4266    0.0000 C   0  0  0  0  0  0  0  0  0  0  0  0
    3.0292   -2.3585    0.0000 C   0  0  0  0  0  0  0  0  0  0  0  0
    4.6765   -2.8937    0.0000 C   0  0  0  0  0  0  0  0  0  0  0  0
    3.6984   -3.1016    0.0000 C   0  0  0  0  0  0  0  0  0  0  0  0
    2.6691   -0.6643    0.0000 C   0  0  0  0  0  0  0  0  0  0  0  0
   11.1063    2.2926    0.0000 C   0  0  0  0  0  0  0  0  0  0  0  0
   12.6452    1.7926    0.0000 C   0  0  0  0  0  0  0  0  0  0  0  0
   11.3851    0.5325    0.0000 C   0  0  0  0  0  0  0  0  0  0  0  0
   13.4542    1.2048    0.0000 C   0  0  0  0  0  0  0  0  0  0  0  0
   13.3496    0.2103    0.0000 C   0  0  0  0  0  0  0  0  0  0  0  0
   15.1767    1.0238    0.0000 C   0  0  0  0  0  0  0  0  0  0  0  0
   15.0722    0.0293    0.0000 C   0  0  0  0  0  0  0  0  0  0  0  0
    5.5773    1.6806    0.0000 H   0  0  0  0  0  0  0  0  0  0  0  0
    5.5773   -0.5594    0.0000 H   0  0  0  0  0  0  0  0  0  0  0  0
    7.0601    1.6745    0.0000 H   0  0  0  0  0  0  0  0  0  0  0  0
    6.2717    1.9322    0.0000 H   0  0  0  0  0  0  0  0  0  0  0  0
    4.8776    1.9360    0.0000 H   0  0  0  0  0  0  0  0  0  0  0  0
    4.0885    1.6796    0.0000 H   0  0  0  0  0  0  0  0  0  0  0  0
    6.2717   -0.8111    0.0000 H   0  0  0  0  0  0  0  0  0  0  0  0
    7.0601   -0.5534    0.0000 H   0  0  0  0  0  0  0  0  0  0  0  0
    3.5769    0.9754    0.0000 H   0  0  0  0  0  0  0  0  0  0  0  0
    3.5769    0.1457    0.0000 H   0  0  0  0  0  0  0  0  0  0  0  0
    7.9986   -0.0500    0.0000 H   0  0  0  0  0  0  0  0  0  0  0  0
    8.6889    0.3485    0.0000 H   0  0  0  0  0  0  0  0  0  0  0  0
    8.7140    2.0372    0.0000 H   0  0  0  0  0  0  0  0  0  0  0  0
    8.0237    1.6386    0.0000 H   0  0  0  0  0  0  0  0  0  0  0  0
    5.5920   -1.8138    0.0000 H   0  0  0  0  0  0  0  0  0  0  0  0
    9.4986    0.8160    0.0000 H   0  0  0  0  0  0  0  0  0  0  0  0
   10.1889    1.2145    0.0000 H   0  0  0  0  0  0  0  0  0  0  0  0
    2.4228   -2.4874    0.0000 H   0  0  0  0  0  0  0  0  0  0  0  0
    5.0914   -3.3545    0.0000 H   0  0  0  0  0  0  0  0  0  0  0  0
    3.5068   -3.6913    0.0000 H   0  0  0  0  0  0  0  0  0  0  0  0
   10.7954    0.7241    0.0000 H   0  0  0  0  0  0  0  0  0  0  0  0
   11.1935   -0.0571    0.0000 H   0  0  0  0  0  0  0  0  0  0  0  0
   11.9747    0.3409    0.0000 H   0  0  0  0  0  0  0  0  0  0  0  0
   12.7832   -0.0419    0.0000 H   0  0  0  0  0  0  0  0  0  0  0  0
   15.7431    1.2760    0.0000 H   0  0  0  0  0  0  0  0  0  0  0  0
   15.5738   -0.3352    0.0000 H   0  0  0  0  0  0  0  0  0  0  0  0
  1 21  1  0  0  0  0
  1 26  1  0  0  0  0
  2 11  1  0  0  0  0
  2 15  1  0  0  0  0
  2 17  1  0  0  0  0
  3 12  1  0  0  0  0
  3 14  1  0  0  0  0
  3 16  1  0  0  0  0
  4 25  3  0  0  0  0
  5 26  1  0  0  0  0
  5 27  1  0  0  0  0
  5 28  1  0  0  0  0
  6  7  1  0  0  0  0
  6 26  2  0  0  0  0
  7 27  2  0  0  0  0
  8 29  2  0  0  0  0
  8 31  1  0  0  0  0
  9 30  2  0  0  0  0
  9 32  1  0  0  0  0
 10 11  1  0  0  0  0
 10 12  1  0  0  0  0
 10 13  1  0  0  0  0
 10 33  1  0  0  0  0
 11 14  1  0  0  0  0
 11 34  1  0  0  0  0
 12 35  1  0  0  0  0
 12 36  1  0  0  0  0
 13 15  1  0  0  0  0
 13 37  1  0  0  0  0
 13 38  1  0  0  0  0
 14 39  1  0  0  0  0
 14 40  1  0  0  0  0
 15 41  1  0  0  0  0
 15 42  1  0  0  0  0
 16 18  1  0  0  0  0
 16 43  1  0  0  0  0
 16 44  1  0  0  0  0
 17 19  1  0  0  0  0
 17 20  2  0  0  0  0
 18 21  1  0  0  0  0
 18 45  1  0  0  0  0
 18 46  1  0  0  0  0
 19 22  2  0  0  0  0
 19 25  1  0  0  0  0
 20 23  1  0  0  0  0
 20 47  1  0  0  0  0
 21 48  1  0  0  0  0
 21 49  1  0  0  0  0
 22 24  1  0  0  0  0
 22 50  1  0  0  0  0
 23 24  2  0  0  0  0
 23 51  1  0  0  0  0
 24 52  1  0  0  0  0
 27 29  1  0  0  0  0
 28 53  1  0  0  0  0
 28 54  1  0  0  0  0
 28 55  1  0  0  0  0
 29 30  1  0  0  0  0
 30 56  1  0  0  0  0
 31 32  2  0  0  0  0
 31 57  1  0  0  0  0
 32 58  1  0  0  0  0
M  END
> <PUBCHEM_COMPOUND_CID>
126534462

> <PUBCHEM_COMPOUND_CANONICALIZED>
1

> <PUBCHEM_CACTVS_COMPLEXITY>
670

> <PUBCHEM_CACTVS_HBOND_ACCEPTOR>
8

> <PUBCHEM_CACTVS_HBOND_DONOR>
0

> <PUBCHEM_CACTVS_ROTATABLE_BOND>
7

> <PUBCHEM_CACTVS_SUBSKEYS>
AAADceB7wABAAAAAAAAAAAAAAAAAAWLFgAA8QAAAAAAWAAAB8AAAHAQIAAAADSjFXwS/0JcMEAiyBzZnZACy0C9xErAd2CA4dJiI6OLg2ZGUIAhgiALIyA8QgAAOAAAAAAACAAAAAAAAAAQAAAAAAAAAAA==

> <PUBCHEM_IUPAC_OPENEYE_NAME>
2-[5-[3-[(4-methyl-5-pyrazin-2-yl-1,2,4-triazol-3-yl)sulfanyl]propyl]-2,3,3a,4,6,6a-hexahydropyrrolo[2,3-c]pyrrol-1-yl]benzonitrile

> <PUBCHEM_IUPAC_CAS_NAME>
2-[5-[3-[[4-methyl-5-(2-pyrazinyl)-1,2,4-triazol-3-yl]thio]propyl]-2,3,3a,4,6,6a-hexahydropyrrolo[2,3-c]pyrrol-1-yl]benzonitrile

> <PUBCHEM_IUPAC_NAME_MARKUP>
2-[5-[3-[(4-methyl-5-pyrazin-2-yl-1,2,4-triazol-3-yl)sulfanyl]propyl]-2,3,3<I>a</I>,4,6,6<I>a</I>-hexahydropyrrolo[2,3-c]pyrrol-1-yl]benzonitrile

> <PUBCHEM_IUPAC_NAME>
2-[5-[3-[(4-methyl-5-pyrazin-2-yl-1,2,4-triazol-3-yl)sulfanyl]propyl]-2,3,3a,4,6,6a-hexahydropyrrolo[2,3-c]pyrrol-1-yl]benzonitrile

> <PUBCHEM_IUPAC_SYSTEMATIC_NAME>
2-[5-[3-[(4-methyl-5-pyrazin-2-yl-1,2,4-triazol-3-yl)sulfanyl]propyl]-2,3,3a,4,6,6a-hexahydropyrrolo[2,3-c]pyrrol-1-yl]benzenecarbonitrile

> <PUBCHEM_IUPAC_TRADITIONAL_NAME>
2-[5-[3-[(4-methyl-5-pyrazin-2-yl-1,2,4-triazol-3-yl)thio]propyl]-2,3,3a,4,6,6a-hexahydropyrrolo[2,3-c]pyrrol-1-yl]benzonitrile

> <PUBCHEM_IUPAC_INCHI>
InChI=1S/C23H26N8S/c1-29-22(19-14-25-8-9-26-19)27-28-23(29)32-12-4-10-30-15-18-7-11-31(21(18)16-30)20-6-3-2-5-17(20)13-24/h2-3,5-6,8-9,14,18,21H,4,7,10-12,15-16H2,1H3

> <PUBCHEM_IUPAC_INCHIKEY>
QYAPJFAWWAJNJA-UHFFFAOYSA-N

> <PUBCHEM_XLOGP3_AA>
2

> <PUBCHEM_EXACT_MASS>
446.20011404

> <PUBCHEM_MOLECULAR_FORMULA>
C23H26N8S

> <PUBCHEM_MOLECULAR_WEIGHT>
446.6

> <PUBCHEM_OPENEYE_CAN_SMILES>
CN1C(=NN=C1SCCCN2CC3CCN(C3C2)C4=CC=CC=C4C#N)C5=NC=CN=C5

> <PUBCHEM_OPENEYE_ISO_SMILES>
CN1C(=NN=C1SCCCN2CC3CCN(C3C2)C4=CC=CC=C4C#N)C5=NC=CN=C5

> <PUBCHEM_CACTVS_TPSA>
112

> <PUBCHEM_MONOISOTOPIC_WEIGHT>
446.20011404

> <PUBCHEM_TOTAL_CHARGE>
0

> <PUBCHEM_HEAVY_ATOM_COUNT>
32

> <PUBCHEM_ATOM_DEF_STEREO_COUNT>
0

> <PUBCHEM_ATOM_UDEF_STEREO_COUNT>
2

> <PUBCHEM_BOND_DEF_STEREO_COUNT>
0

> <PUBCHEM_BOND_UDEF_STEREO_COUNT>
0

> <PUBCHEM_ISOTOPIC_ATOM_COUNT>
0

> <PUBCHEM_COMPONENT_COUNT>
1

> <PUBCHEM_CACTVS_TAUTO_COUNT>
-1

> <PUBCHEM_COORDINATE_TYPE>
1
5
255

> <PUBCHEM_BONDANNOTATIONS>
10  13  3
11  14  3
17  19  8
17  20  8
19  22  8
20  23  8
22  24  8
23  24  8
29  30  8
31  32  8
5  26  8
5  27  8
6  26  8
6  7  8
7  27  8
8  29  8
8  31  8
9  30  8
9  32  8

$$$$
