45268119
  -OEChem-09292322282D

 44 47  0     0  0  0  0  0  0999 V2000
   12.7458   -0.4601    0.0000 Cl  0  0  0  0  0  0  0  0  0  0  0  0
    9.0917   -2.0870    0.0000 F   0  0  0  0  0  0  0  0  0  0  0  0
    8.0406   -1.3580    0.0000 O   0  0  0  0  0  0  0  0  0  0  0  0
    5.2619    1.2681    0.0000 N   0  0  0  0  0  0  0  0  0  0  0  0
    7.7619    0.4020    0.0000 N   0  0  0  0  0  0  0  0  0  0  0  0
    9.3007   -0.0980    0.0000 N   0  0  0  0  0  0  0  0  0  0  0  0
    6.2619    1.2681    0.0000 C   0  0  0  0  0  0  0  0  0  0  0  0
    6.7619    0.4020    0.0000 C   0  0  0  0  0  0  0  0  0  0  0  0
    4.6783    2.0728    0.0000 C   0  0  0  0  0  0  0  0  0  0  0  0
    4.6783    0.4633    0.0000 C   0  0  0  0  0  0  0  0  0  0  0  0
    8.3497    1.2110    0.0000 C   0  0  0  0  0  0  0  0  0  0  0  0
    3.7320    1.7681    0.0000 C   0  0  0  0  0  0  0  0  0  0  0  0
    3.7320    0.7681    0.0000 C   0  0  0  0  0  0  0  0  0  0  0  0
    9.3007    0.9020    0.0000 C   0  0  0  0  0  0  0  0  0  0  0  0
    8.3497   -0.4070    0.0000 C   0  0  0  0  0  0  0  0  0  0  0  0
    2.8660    2.2681    0.0000 C   0  0  0  0  0  0  0  0  0  0  0  0
    2.8660    0.2681    0.0000 C   0  0  0  0  0  0  0  0  0  0  0  0
   10.1097   -0.6858    0.0000 C   0  0  0  0  0  0  0  0  0  0  0  0
    2.0000    1.7681    0.0000 C   0  0  0  0  0  0  0  0  0  0  0  0
    2.0000    0.7681    0.0000 C   0  0  0  0  0  0  0  0  0  0  0  0
   11.0233   -0.2790    0.0000 C   0  0  0  0  0  0  0  0  0  0  0  0
   10.0052   -1.6803    0.0000 C   0  0  0  0  0  0  0  0  0  0  0  0
   11.8323   -0.8668    0.0000 C   0  0  0  0  0  0  0  0  0  0  0  0
   10.8142   -2.2681    0.0000 C   0  0  0  0  0  0  0  0  0  0  0  0
   11.7278   -1.8613    0.0000 C   0  0  0  0  0  0  0  0  0  0  0  0
    6.8445    1.4801    0.0000 H   0  0  0  0  0  0  0  0  0  0  0  0
    6.1542    1.8786    0.0000 H   0  0  0  0  0  0  0  0  0  0  0  0
    6.1793    0.1900    0.0000 H   0  0  0  0  0  0  0  0  0  0  0  0
    6.8695   -0.2085    0.0000 H   0  0  0  0  0  0  0  0  0  0  0  0
    5.2156    2.3820    0.0000 H   0  0  0  0  0  0  0  0  0  0  0  0
    4.4272    2.6397    0.0000 H   0  0  0  0  0  0  0  0  0  0  0  0
    4.4272   -0.1036    0.0000 H   0  0  0  0  0  0  0  0  0  0  0  0
    5.2156    0.1541    0.0000 H   0  0  0  0  0  0  0  0  0  0  0  0
    8.6018    1.7774    0.0000 H   0  0  0  0  0  0  0  0  0  0  0  0
    7.8127    1.5210    0.0000 H   0  0  0  0  0  0  0  0  0  0  0  0
    9.9173    0.8372    0.0000 H   0  0  0  0  0  0  0  0  0  0  0  0
    9.4296    1.5085    0.0000 H   0  0  0  0  0  0  0  0  0  0  0  0
    2.8660    2.8881    0.0000 H   0  0  0  0  0  0  0  0  0  0  0  0
    2.8660   -0.3519    0.0000 H   0  0  0  0  0  0  0  0  0  0  0  0
    1.4631    2.0781    0.0000 H   0  0  0  0  0  0  0  0  0  0  0  0
    1.4631    0.4581    0.0000 H   0  0  0  0  0  0  0  0  0  0  0  0
   11.0881    0.3376    0.0000 H   0  0  0  0  0  0  0  0  0  0  0  0
   10.7494   -2.8847    0.0000 H   0  0  0  0  0  0  0  0  0  0  0  0
   12.2294   -2.2258    0.0000 H   0  0  0  0  0  0  0  0  0  0  0  0
  1 23  1  0  0  0  0
  2 22  1  0  0  0  0
  3 15  2  0  0  0  0
  4  7  1  0  0  0  0
  4  9  1  0  0  0  0
  4 10  1  0  0  0  0
  5  8  1  0  0  0  0
  5 11  1  0  0  0  0
  5 15  1  0  0  0  0
  6 14  1  0  0  0  0
  6 15  1  0  0  0  0
  6 18  1  0  0  0  0
  7  8  1  0  0  0  0
  7 26  1  0  0  0  0
  7 27  1  0  0  0  0
  8 28  1  0  0  0  0
  8 29  1  0  0  0  0
  9 12  1  0  0  0  0
  9 30  1  0  0  0  0
  9 31  1  0  0  0  0
 10 13  1  0  0  0  0
 10 32  1  0  0  0  0
 10 33  1  0  0  0  0
 11 14  1  0  0  0  0
 11 34  1  0  0  0  0
 11 35  1  0  0  0  0
 12 13  1  0  0  0  0
 12 16  2  0  0  0  0
 13 17  2  0  0  0  0
 14 36  1  0  0  0  0
 14 37  1  0  0  0  0
 16 19  1  0  0  0  0
 16 38  1  0  0  0  0
 17 20  1  0  0  0  0
 17 39  1  0  0  0  0
 18 21  1  0  0  0  0
 18 22  2  0  0  0  0
 19 20  2  0  0  0  0
 19 40  1  0  0  0  0
 20 41  1  0  0  0  0
 21 23  2  0  0  0  0
 21 42  1  0  0  0  0
 22 24  1  0  0  0  0
 23 25  1  0  0  0  0
 24 25  2  0  0  0  0
 24 43  1  0  0  0  0
 25 44  1  0  0  0  0
M  END
> <PUBCHEM_COMPOUND_CID>
45268119

> <PUBCHEM_COMPOUND_CANONICALIZED>
1

> <PUBCHEM_CACTVS_COMPLEXITY>
479

> <PUBCHEM_CACTVS_HBOND_ACCEPTOR>
3

> <PUBCHEM_CACTVS_HBOND_DONOR>
0

> <PUBCHEM_CACTVS_ROTATABLE_BOND>
4

> <PUBCHEM_CACTVS_SUBSKEYS>
AAADceB7IQAEAAAAAAAAAAAAAAAAAWLAAAAwYAAAAAAAAFgBQAAAHwIAAAAADArBGCwxwIMAAACIAiRCUACCAAAhBwAIiAAIZoiIYCLBk5GUIAhohgLIyCcQgIAOgAAAAAIQAAAAAAAABCAAAAAAAAAAAA==

> <PUBCHEM_IUPAC_OPENEYE_NAME>
1-(5-chloro-2-fluoro-phenyl)-3-(2-isoindolin-2-ylethyl)imidazolidin-2-one

> <PUBCHEM_IUPAC_CAS_NAME>
1-(5-chloro-2-fluorophenyl)-3-[2-(1,3-dihydroisoindol-2-yl)ethyl]-2-imidazolidinone

> <PUBCHEM_IUPAC_NAME_MARKUP>
1-(5-chloro-2-fluorophenyl)-3-[2-(1,3-dihydroisoindol-2-yl)ethyl]imidazolidin-2-one

> <PUBCHEM_IUPAC_NAME>
1-(5-chloro-2-fluorophenyl)-3-[2-(1,3-dihydroisoindol-2-yl)ethyl]imidazolidin-2-one

> <PUBCHEM_IUPAC_SYSTEMATIC_NAME>
1-(5-chloranyl-2-fluoranyl-phenyl)-3-[2-(1,3-dihydroisoindol-2-yl)ethyl]imidazolidin-2-one

> <PUBCHEM_IUPAC_TRADITIONAL_NAME>
1-(5-chloro-2-fluoro-phenyl)-3-(2-isoindolin-2-ylethyl)-2-imidazolidinone

> <PUBCHEM_IUPAC_INCHI>
InChI=1S/C19H19ClFN3O/c20-16-5-6-17(21)18(11-16)24-10-9-23(19(24)25)8-7-22-12-14-3-1-2-4-15(14)13-22/h1-6,11H,7-10,12-13H2

> <PUBCHEM_IUPAC_INCHIKEY>
SVNHSWOLAOCSKO-UHFFFAOYSA-N

> <PUBCHEM_XLOGP3_AA>
2.9

> <PUBCHEM_EXACT_MASS>
359.1200681

> <PUBCHEM_MOLECULAR_FORMULA>
C19H19ClFN3O

> <PUBCHEM_MOLECULAR_WEIGHT>
359.8

> <PUBCHEM_OPENEYE_CAN_SMILES>
C1CN(C(=O)N1CCN2CC3=CC=CC=C3C2)C4=C(C=CC(=C4)Cl)F

> <PUBCHEM_OPENEYE_ISO_SMILES>
C1CN(C(=O)N1CCN2CC3=CC=CC=C3C2)C4=C(C=CC(=C4)Cl)F

> <PUBCHEM_CACTVS_TPSA>
26.8

> <PUBCHEM_MONOISOTOPIC_WEIGHT>
359.1200681

> <PUBCHEM_TOTAL_CHARGE>
0

> <PUBCHEM_HEAVY_ATOM_COUNT>
25

> <PUBCHEM_ATOM_DEF_STEREO_COUNT>
0

> <PUBCHEM_ATOM_UDEF_STEREO_COUNT>
0

> <PUBCHEM_BOND_DEF_STEREO_COUNT>
0

> <PUBCHEM_BOND_UDEF_STEREO_COUNT>
0

> <PUBCHEM_ISOTOPIC_ATOM_COUNT>
0

> <PUBCHEM_COMPONENT_COUNT>
1

> <PUBCHEM_CACTVS_TAUTO_COUNT>
-1

> <PUBCHEM_COORDINATE_TYPE>
1
5
255

> <PUBCHEM_BONDANNOTATIONS>
12  13  8
12  16  8
13  17  8
16  19  8
17  20  8
18  21  8
18  22  8
19  20  8
21  23  8
22  24  8
23  25  8
24  25  8

$$$$
