155551353
  -OEChem-09292322462D

 26 28  0     0  0  0  0  0  0999 V2000
    2.0000    0.0104    0.0000 I   0  0  0  0  0  0  0  0  0  0  0  0
    5.5443   -1.7944    0.0000 N   0  0  0  0  0  0  0  0  0  0  0  0
    5.2686    1.5757    0.0000 N   0  0  0  0  0  0  0  0  0  0  0  0
    6.8083    2.0730    0.0000 N   0  0  0  0  0  0  0  0  0  0  0  0
    5.5443   -0.1849    0.0000 C   0  0  0  0  0  0  0  0  0  0  0  0
    4.5981   -0.4896    0.0000 C   0  0  0  0  0  0  0  0  0  0  0  0
    5.8550    0.7656    0.0000 C   0  0  0  0  0  0  0  0  0  0  0  0
    4.5981   -1.4896    0.0000 C   0  0  0  0  0  0  0  0  0  0  0  0
    6.1279   -0.9896    0.0000 C   0  0  0  0  0  0  0  0  0  0  0  0
    3.7320    0.0104    0.0000 C   0  0  0  0  0  0  0  0  0  0  0  0
    3.7320   -1.9896    0.0000 C   0  0  0  0  0  0  0  0  0  0  0  0
    6.8066    1.0730    0.0000 C   0  0  0  0  0  0  0  0  0  0  0  0
    5.8578    2.3837    0.0000 C   0  0  0  0  0  0  0  0  0  0  0  0
    2.8660   -0.4896    0.0000 C   0  0  0  0  0  0  0  0  0  0  0  0
    4.2686    1.5774    0.0000 C   0  0  0  0  0  0  0  0  0  0  0  0
    2.8660   -1.4896    0.0000 C   0  0  0  0  0  0  0  0  0  0  0  0
    6.7479   -0.9896    0.0000 H   0  0  0  0  0  0  0  0  0  0  0  0
    5.7369   -2.3837    0.0000 H   0  0  0  0  0  0  0  0  0  0  0  0
    3.7320    0.6304    0.0000 H   0  0  0  0  0  0  0  0  0  0  0  0
    3.7320   -2.6096    0.0000 H   0  0  0  0  0  0  0  0  0  0  0  0
    7.3075    0.7077    0.0000 H   0  0  0  0  0  0  0  0  0  0  0  0
    5.6672    2.9737    0.0000 H   0  0  0  0  0  0  0  0  0  0  0  0
    4.2697    2.1974    0.0000 H   0  0  0  0  0  0  0  0  0  0  0  0
    3.6486    1.5785    0.0000 H   0  0  0  0  0  0  0  0  0  0  0  0
    4.2675    0.9574    0.0000 H   0  0  0  0  0  0  0  0  0  0  0  0
    2.3291   -1.7996    0.0000 H   0  0  0  0  0  0  0  0  0  0  0  0
  1 14  1  0  0  0  0
  2  8  1  0  0  0  0
  2  9  1  0  0  0  0
  2 18  1  0  0  0  0
  3  7  1  0  0  0  0
  3 13  1  0  0  0  0
  3 15  1  0  0  0  0
  4 12  1  0  0  0  0
  4 13  2  0  0  0  0
  5  6  1  0  0  0  0
  5  7  1  0  0  0  0
  5  9  2  0  0  0  0
  6  8  2  0  0  0  0
  6 10  1  0  0  0  0
  7 12  2  0  0  0  0
  8 11  1  0  0  0  0
  9 17  1  0  0  0  0
 10 14  2  0  0  0  0
 10 19  1  0  0  0  0
 11 16  2  0  0  0  0
 11 20  1  0  0  0  0
 12 21  1  0  0  0  0
 13 22  1  0  0  0  0
 14 16  1  0  0  0  0
 15 23  1  0  0  0  0
 15 24  1  0  0  0  0
 15 25  1  0  0  0  0
 16 26  1  0  0  0  0
M  END
> <PUBCHEM_COMPOUND_CID>
155551353

> <PUBCHEM_COMPOUND_CANONICALIZED>
1

> <PUBCHEM_CACTVS_COMPLEXITY>
261

> <PUBCHEM_CACTVS_HBOND_ACCEPTOR>
1

> <PUBCHEM_CACTVS_HBOND_DONOR>
1

> <PUBCHEM_CACTVS_ROTATABLE_BOND>
1

> <PUBCHEM_CACTVS_SUBSKEYS>
AAADccBzAAAAAgAAAAAAAAAAAAAAAWLAAAAwAAAAAAAAAFgB/AAAHAAwAAAADAjDHgQ/0PfNkACgAzRnZACCgC0xEqAJ2aA4dJiIaOLA2ZGUIAhokALIyCcQgMAOgAAAAAACAAAAAAAAAAQAAAAAAAAAAA==

> <PUBCHEM_IUPAC_OPENEYE_NAME>
5-iodo-3-(3-methylimidazol-4-yl)-1H-indole

> <PUBCHEM_IUPAC_CAS_NAME>
5-iodo-3-(3-methyl-4-imidazolyl)-1H-indole

> <PUBCHEM_IUPAC_NAME_MARKUP>
5-iodo-3-(3-methylimidazol-4-yl)-1<I>H</I>-indole

> <PUBCHEM_IUPAC_NAME>
5-iodo-3-(3-methylimidazol-4-yl)-1H-indole

> <PUBCHEM_IUPAC_SYSTEMATIC_NAME>
5-iodanyl-3-(3-methylimidazol-4-yl)-1H-indole

> <PUBCHEM_IUPAC_TRADITIONAL_NAME>
5-iodo-3-(3-methylimidazol-4-yl)-1H-indole

> <PUBCHEM_IUPAC_INCHI>
InChI=1S/C12H10IN3/c1-16-7-14-6-12(16)10-5-15-11-3-2-8(13)4-9(10)11/h2-7,15H,1H3

> <PUBCHEM_IUPAC_INCHIKEY>
UZRMRNOPEVQTSO-UHFFFAOYSA-N

> <PUBCHEM_XLOGP3_AA>
2.5

> <PUBCHEM_EXACT_MASS>
322.99194

> <PUBCHEM_MOLECULAR_FORMULA>
C12H10IN3

> <PUBCHEM_MOLECULAR_WEIGHT>
323.13

> <PUBCHEM_OPENEYE_CAN_SMILES>
CN1C=NC=C1C2=CNC3=C2C=C(C=C3)I

> <PUBCHEM_OPENEYE_ISO_SMILES>
CN1C=NC=C1C2=CNC3=C2C=C(C=C3)I

> <PUBCHEM_CACTVS_TPSA>
33.6

> <PUBCHEM_MONOISOTOPIC_WEIGHT>
322.99194

> <PUBCHEM_TOTAL_CHARGE>
0

> <PUBCHEM_HEAVY_ATOM_COUNT>
16

> <PUBCHEM_ATOM_DEF_STEREO_COUNT>
0

> <PUBCHEM_ATOM_UDEF_STEREO_COUNT>
0

> <PUBCHEM_BOND_DEF_STEREO_COUNT>
0

> <PUBCHEM_BOND_UDEF_STEREO_COUNT>
0

> <PUBCHEM_ISOTOPIC_ATOM_COUNT>
0

> <PUBCHEM_COMPONENT_COUNT>
1

> <PUBCHEM_CACTVS_TAUTO_COUNT>
-1

> <PUBCHEM_COORDINATE_TYPE>
1
5
255

> <PUBCHEM_BONDANNOTATIONS>
10  14  8
11  16  8
14  16  8
2  8  8
2  9  8
3  13  8
3  7  8
4  12  8
4  13  8
5  6  8
5  9  8
6  10  8
6  8  8
7  12  8
8  11  8

$$$$
