11696598
  -OEChem-09292322492D

 57 61  0     1  0  0  0  0  0999 V2000
    5.5693   -0.2248    0.0000 N   0  0  3  0  0  0  0  0  0  0  0  0
    6.1445    3.8451    0.0000 N   0  0  0  0  0  0  0  0  0  0  0  0
    6.8013    1.3732    0.0000 C   0  0  0  0  0  0  0  0  0  0  0  0
    6.4353    0.2752    0.0000 C   0  0  0  0  0  0  0  0  0  0  0  0
    6.8013    2.3732    0.0000 C   0  0  0  0  0  0  0  0  0  0  0  0
    5.9353    2.8732    0.0000 C   0  0  0  0  0  0  0  0  0  0  0  0
    5.0693    0.6412    0.0000 C   0  0  0  0  0  0  0  0  0  0  0  0
    5.0693    2.3732    0.0000 C   0  0  0  0  0  0  0  0  0  0  0  0
    4.0693    0.6412    0.0000 C   0  0  0  0  0  0  0  0  0  0  0  0
    7.5383    3.0403    0.0000 C   0  0  0  0  0  0  0  0  0  0  0  0
    5.3104   -1.1908    0.0000 C   0  0  0  0  0  0  0  0  0  0  0  0
    4.0693    2.3732    0.0000 C   0  0  0  0  0  0  0  0  0  0  0  0
    3.5693    1.5072    0.0000 C   0  0  0  0  0  0  0  0  0  0  0  0
    7.1332    3.9481    0.0000 C   0  0  0  0  0  0  0  0  0  0  0  0
    6.0176   -1.8978    0.0000 C   0  0  0  0  0  0  0  0  0  0  0  0
    8.5664    2.9171    0.0000 C   0  0  0  0  0  0  0  0  0  0  0  0
    3.5624    3.2833    0.0000 C   0  0  0  0  0  0  0  0  0  0  0  0
    2.5278    1.4912    0.0000 C   0  0  0  0  0  0  0  0  0  0  0  0
    7.7281    4.7956    0.0000 C   0  0  0  0  0  0  0  0  0  0  0  0
    5.7587   -2.8638    0.0000 C   0  0  0  0  0  0  0  0  0  0  0  0
    9.1808    3.7506    0.0000 C   0  0  0  0  0  0  0  0  0  0  0  0
    2.5208    3.2913    0.0000 C   0  0  0  0  0  0  0  0  0  0  0  0
    2.0000    2.3892    0.0000 C   0  0  0  0  0  0  0  0  0  0  0  0
    8.7588    4.6962    0.0000 C   0  0  0  0  0  0  0  0  0  0  0  0
    4.7928   -3.1226    0.0000 C   0  0  0  0  0  0  0  0  0  0  0  0
    6.4658   -3.5709    0.0000 C   0  0  0  0  0  0  0  0  0  0  0  0
    4.5340   -4.0885    0.0000 C   0  0  0  0  0  0  0  0  0  0  0  0
    6.2070   -4.5368    0.0000 C   0  0  0  0  0  0  0  0  0  0  0  0
    5.2411   -4.7956    0.0000 C   0  0  0  0  0  0  0  0  0  0  0  0
    7.2600    0.9561    0.0000 H   0  0  0  0  0  0  0  0  0  0  0  0
    6.1893    1.4726    0.0000 H   0  0  0  0  0  0  0  0  0  0  0  0
    6.5838   -0.3268    0.0000 H   0  0  0  0  0  0  0  0  0  0  0  0
    7.0548    0.2504    0.0000 H   0  0  0  0  0  0  0  0  0  0  0  0
    5.6519    0.8533    0.0000 H   0  0  0  0  0  0  0  0  0  0  0  0
    4.9616    1.2518    0.0000 H   0  0  0  0  0  0  0  0  0  0  0  0
    4.8572    1.7906    0.0000 H   0  0  0  0  0  0  0  0  0  0  0  0
    4.9088    2.9721    0.0000 H   0  0  0  0  0  0  0  0  0  0  0  0
    3.4866    0.4292    0.0000 H   0  0  0  0  0  0  0  0  0  0  0  0
    4.1769    0.0306    0.0000 H   0  0  0  0  0  0  0  0  0  0  0  0
    4.7485   -0.9287    0.0000 H   0  0  0  0  0  0  0  0  0  0  0  0
    4.9548   -1.6986    0.0000 H   0  0  0  0  0  0  0  0  0  0  0  0
    5.7304    4.3065    0.0000 H   0  0  0  0  0  0  0  0  0  0  0  0
    6.5795   -2.1599    0.0000 H   0  0  0  0  0  0  0  0  0  0  0  0
    6.3732   -1.3900    0.0000 H   0  0  0  0  0  0  0  0  0  0  0  0
    8.8125    2.3481    0.0000 H   0  0  0  0  0  0  0  0  0  0  0  0
    3.8786    3.8166    0.0000 H   0  0  0  0  0  0  0  0  0  0  0  0
    2.2240    0.9507    0.0000 H   0  0  0  0  0  0  0  0  0  0  0  0
    7.4689    5.3588    0.0000 H   0  0  0  0  0  0  0  0  0  0  0  0
    9.7972    3.6840    0.0000 H   0  0  0  0  0  0  0  0  0  0  0  0
    2.2129    3.8294    0.0000 H   0  0  0  0  0  0  0  0  0  0  0  0
    1.3800    2.3868    0.0000 H   0  0  0  0  0  0  0  0  0  0  0  0
    9.1209    5.1995    0.0000 H   0  0  0  0  0  0  0  0  0  0  0  0
    4.3544   -2.6842    0.0000 H   0  0  0  0  0  0  0  0  0  0  0  0
    7.0647   -3.4104    0.0000 H   0  0  0  0  0  0  0  0  0  0  0  0
    3.9351   -4.2490    0.0000 H   0  0  0  0  0  0  0  0  0  0  0  0
    6.6454   -4.9752    0.0000 H   0  0  0  0  0  0  0  0  0  0  0  0
    5.0806   -5.3945    0.0000 H   0  0  0  0  0  0  0  0  0  0  0  0
  1  4  1  0  0  0  0
  1  7  1  0  0  0  0
  1 11  1  0  0  0  0
  2  6  1  0  0  0  0
  2 14  1  0  0  0  0
  2 42  1  0  0  0  0
  3  4  1  0  0  0  0
  3  5  1  0  0  0  0
  3 30  1  0  0  0  0
  3 31  1  0  0  0  0
  4 32  1  0  0  0  0
  4 33  1  0  0  0  0
  5  6  2  0  0  0  0
  5 10  1  0  0  0  0
  6  8  1  0  0  0  0
  7  9  1  0  0  0  0
  7 34  1  0  0  0  0
  7 35  1  0  0  0  0
  8 12  1  0  0  0  0
  8 36  1  0  0  0  0
  8 37  1  0  0  0  0
  9 13  1  0  0  0  0
  9 38  1  0  0  0  0
  9 39  1  0  0  0  0
 10 14  1  0  0  0  0
 10 16  2  0  0  0  0
 11 15  1  0  0  0  0
 11 40  1  0  0  0  0
 11 41  1  0  0  0  0
 12 13  1  0  0  0  0
 12 17  2  0  0  0  0
 13 18  2  0  0  0  0
 14 19  2  0  0  0  0
 15 20  1  0  0  0  0
 15 43  1  0  0  0  0
 15 44  1  0  0  0  0
 16 21  1  0  0  0  0
 16 45  1  0  0  0  0
 17 22  1  0  0  0  0
 17 46  1  0  0  0  0
 18 23  1  0  0  0  0
 18 47  1  0  0  0  0
 19 24  1  0  0  0  0
 19 48  1  0  0  0  0
 20 25  2  0  0  0  0
 20 26  1  0  0  0  0
 21 24  2  0  0  0  0
 21 49  1  0  0  0  0
 22 23  2  0  0  0  0
 22 50  1  0  0  0  0
 23 51  1  0  0  0  0
 24 52  1  0  0  0  0
 25 27  1  0  0  0  0
 25 53  1  0  0  0  0
 26 28  2  0  0  0  0
 26 54  1  0  0  0  0
 27 29  2  0  0  0  0
 27 55  1  0  0  0  0
 28 29  1  0  0  0  0
 28 56  1  0  0  0  0
 29 57  1  0  0  0  0
M  END
> <PUBCHEM_COMPOUND_CID>
11696598

> <PUBCHEM_COMPOUND_CANONICALIZED>
1

> <PUBCHEM_CACTVS_COMPLEXITY>
499

> <PUBCHEM_CACTVS_HBOND_ACCEPTOR>
1

> <PUBCHEM_CACTVS_HBOND_DONOR>
1

> <PUBCHEM_CACTVS_ROTATABLE_BOND>
3

> <PUBCHEM_CACTVS_SUBSKEYS>
AAADceB7AAAAAAAAAAAAAAAAAAAAAWAAAAAwYMAAAAAAAFix9AAAHAAQAAAADAjBHgQwwPPJkACgAyRiRACCgCAhAiAImSA4ZJgIIOLAkZGEIAhgkADIyAcQgMAOgAAAAAASAAAAAAAAACQAAAAAAAAAAA==

> <PUBCHEM_IUPAC_OPENEYE_NAME>
11-(2-phenylethyl)-11,21-diazatetracyclo[12.7.0.03,8.015,20]henicosa-1(14),3,5,7,15,17,19-heptaene

> <PUBCHEM_IUPAC_CAS_NAME>
11-(2-phenylethyl)-11,21-diazatetracyclo[12.7.0.03,8.015,20]heneicosa-1(14),3,5,7,15,17,19-heptaene

> <PUBCHEM_IUPAC_NAME_MARKUP>
11-(2-phenylethyl)-11,21-diazatetracyclo[12.7.0.0<SUP>3,8</SUP>.0<SUP>15,20</SUP>]henicosa-1(14),3,5,7,15,17,19-heptaene

> <PUBCHEM_IUPAC_NAME>
11-(2-phenylethyl)-11,21-diazatetracyclo[12.7.0.03,8.015,20]henicosa-1(14),3,5,7,15,17,19-heptaene

> <PUBCHEM_IUPAC_SYSTEMATIC_NAME>
11-(2-phenylethyl)-11,21-diazatetracyclo[12.7.0.03,8.015,20]henicosa-1(14),3,5,7,15,17,19-heptaene

> <PUBCHEM_IUPAC_TRADITIONAL_NAME>
11-phenethyl-11,21-diazatetracyclo[12.7.0.03,8.015,20]heneicosa-1(14),3,5,7,15,17,19-heptaene

> <PUBCHEM_IUPAC_INCHI>
InChI=1S/C27H28N2/c1-2-8-21(9-3-1)14-17-29-18-15-22-10-4-5-11-23(22)20-27-25(16-19-29)24-12-6-7-13-26(24)28-27/h1-13,28H,14-20H2

> <PUBCHEM_IUPAC_INCHIKEY>
OWJLZZGIONWNSN-UHFFFAOYSA-N

> <PUBCHEM_XLOGP3_AA>
6.3

> <PUBCHEM_EXACT_MASS>
380.225248902

> <PUBCHEM_MOLECULAR_FORMULA>
C27H28N2

> <PUBCHEM_MOLECULAR_WEIGHT>
380.5

> <PUBCHEM_OPENEYE_CAN_SMILES>
C1CN(CCC2=C(CC3=CC=CC=C31)NC4=CC=CC=C24)CCC5=CC=CC=C5

> <PUBCHEM_OPENEYE_ISO_SMILES>
C1CN(CCC2=C(CC3=CC=CC=C31)NC4=CC=CC=C24)CCC5=CC=CC=C5

> <PUBCHEM_CACTVS_TPSA>
19

> <PUBCHEM_MONOISOTOPIC_WEIGHT>
380.225248902

> <PUBCHEM_TOTAL_CHARGE>
0

> <PUBCHEM_HEAVY_ATOM_COUNT>
29

> <PUBCHEM_ATOM_DEF_STEREO_COUNT>
0

> <PUBCHEM_ATOM_UDEF_STEREO_COUNT>
0

> <PUBCHEM_BOND_DEF_STEREO_COUNT>
0

> <PUBCHEM_BOND_UDEF_STEREO_COUNT>
0

> <PUBCHEM_ISOTOPIC_ATOM_COUNT>
0

> <PUBCHEM_COMPONENT_COUNT>
1

> <PUBCHEM_CACTVS_TAUTO_COUNT>
-1

> <PUBCHEM_COORDINATE_TYPE>
1
5
255

> <PUBCHEM_BONDANNOTATIONS>
10  14  8
10  16  8
12  13  8
12  17  8
13  18  8
14  19  8
16  21  8
17  22  8
18  23  8
19  24  8
2  14  8
2  6  8
20  25  8
20  26  8
21  24  8
22  23  8
25  27  8
26  28  8
27  29  8
28  29  8
5  10  8
5  6  8

$$$$
