95232163
  -OEChem-09292322402D

 51 53  0     1  0  0  0  0  0999 V2000
    2.0000   -3.3512    0.0000 F   0  0  0  0  0  0  0  0  0  0  0  0
    7.2437    3.7420    0.0000 O   0  0  0  0  0  0  0  0  0  0  0  0
    5.4641    2.6488    0.0000 O   0  0  0  0  0  0  0  0  0  0  0  0
    5.4641    0.6488    0.0000 O   0  0  0  0  0  0  0  0  0  0  0  0
    3.7320   -0.3512    0.0000 N   0  0  0  0  0  0  0  0  0  0  0  0
    3.7320   -2.3512    0.0000 N   0  0  0  0  0  0  0  0  0  0  0  0
    4.5981   -0.8512    0.0000 C   0  0  0  0  0  0  0  0  0  0  0  0
    2.8660   -0.8512    0.0000 C   0  0  0  0  0  0  0  0  0  0  0  0
    4.5981   -1.8512    0.0000 C   0  0  0  0  0  0  0  0  0  0  0  0
    2.8660   -1.8512    0.0000 C   0  0  0  0  0  0  0  0  0  0  0  0
    3.7320    0.6488    0.0000 C   0  0  0  0  0  0  0  0  0  0  0  0
    4.5981    1.1488    0.0000 C   0  0  2  0  0  0  0  0  0  0  0  0
    6.3301    4.1488    0.0000 C   0  0  1  0  0  0  0  0  0  0  0  0
    6.4347    5.1433    0.0000 C   0  0  0  0  0  0  0  0  0  0  0  0
    7.4128    5.3512    0.0000 C   0  0  0  0  0  0  0  0  0  0  0  0
    5.4641    3.6488    0.0000 C   0  0  0  0  0  0  0  0  0  0  0  0
    4.5981    2.1488    0.0000 C   0  0  0  0  0  0  0  0  0  0  0  0
    7.9128    4.4852    0.0000 C   0  0  0  0  0  0  0  0  0  0  0  0
    3.7320   -3.3512    0.0000 C   0  0  0  0  0  0  0  0  0  0  0  0
    2.8660   -3.8512    0.0000 C   0  0  0  0  0  0  0  0  0  0  0  0
    4.5981   -3.8512    0.0000 C   0  0  0  0  0  0  0  0  0  0  0  0
    2.8660   -4.8512    0.0000 C   0  0  0  0  0  0  0  0  0  0  0  0
    4.5981   -4.8512    0.0000 C   0  0  0  0  0  0  0  0  0  0  0  0
    3.7320   -5.3512    0.0000 C   0  0  0  0  0  0  0  0  0  0  0  0
    5.2087   -0.9589    0.0000 H   0  0  0  0  0  0  0  0  0  0  0  0
    4.8101   -0.2686    0.0000 H   0  0  0  0  0  0  0  0  0  0  0  0
    2.6540   -0.2686    0.0000 H   0  0  0  0  0  0  0  0  0  0  0  0
    2.2554   -0.9589    0.0000 H   0  0  0  0  0  0  0  0  0  0  0  0
    4.8101   -2.4338    0.0000 H   0  0  0  0  0  0  0  0  0  0  0  0
    5.2087   -1.7436    0.0000 H   0  0  0  0  0  0  0  0  0  0  0  0
    2.2554   -1.7436    0.0000 H   0  0  0  0  0  0  0  0  0  0  0  0
    2.6540   -2.4338    0.0000 H   0  0  0  0  0  0  0  0  0  0  0  0
    3.5200    1.2314    0.0000 H   0  0  0  0  0  0  0  0  0  0  0  0
    3.1215    0.5411    0.0000 H   0  0  0  0  0  0  0  0  0  0  0  0
    4.5981    0.5288    0.0000 H   0  0  0  0  0  0  0  0  0  0  0  0
    6.3626    3.5296    0.0000 H   0  0  0  0  0  0  0  0  0  0  0  0
    6.3698    5.7599    0.0000 H   0  0  0  0  0  0  0  0  0  0  0  0
    5.8147    5.1433    0.0000 H   0  0  0  0  0  0  0  0  0  0  0  0
    7.9792    5.6034    0.0000 H   0  0  0  0  0  0  0  0  0  0  0  0
    7.2212    5.9409    0.0000 H   0  0  0  0  0  0  0  0  0  0  0  0
    5.2520    4.2314    0.0000 H   0  0  0  0  0  0  0  0  0  0  0  0
    4.8535    3.5411    0.0000 H   0  0  0  0  0  0  0  0  0  0  0  0
    4.3860    2.7314    0.0000 H   0  0  0  0  0  0  0  0  0  0  0  0
    3.9875    2.0411    0.0000 H   0  0  0  0  0  0  0  0  0  0  0  0
    8.3277    4.0244    0.0000 H   0  0  0  0  0  0  0  0  0  0  0  0
    8.4144    4.8496    0.0000 H   0  0  0  0  0  0  0  0  0  0  0  0
    6.0010    0.9588    0.0000 H   0  0  0  0  0  0  0  0  0  0  0  0
    5.1350   -3.5412    0.0000 H   0  0  0  0  0  0  0  0  0  0  0  0
    2.3291   -5.1612    0.0000 H   0  0  0  0  0  0  0  0  0  0  0  0
    5.1350   -5.1612    0.0000 H   0  0  0  0  0  0  0  0  0  0  0  0
    3.7320   -5.9712    0.0000 H   0  0  0  0  0  0  0  0  0  0  0  0
  1 20  1  0  0  0  0
  2 13  1  0  0  0  0
  2 18  1  0  0  0  0
  3 16  1  0  0  0  0
  3 17  1  0  0  0  0
 12  4  1  6  0  0  0
  4 47  1  0  0  0  0
  5  7  1  0  0  0  0
  5  8  1  0  0  0  0
  5 11  1  0  0  0  0
  6  9  1  0  0  0  0
  6 10  1  0  0  0  0
  6 19  1  0  0  0  0
  7  9  1  0  0  0  0
  7 25  1  0  0  0  0
  7 26  1  0  0  0  0
  8 10  1  0  0  0  0
  8 27  1  0  0  0  0
  8 28  1  0  0  0  0
  9 29  1  0  0  0  0
  9 30  1  0  0  0  0
 10 31  1  0  0  0  0
 10 32  1  0  0  0  0
 11 12  1  0  0  0  0
 11 33  1  0  0  0  0
 11 34  1  0  0  0  0
 12 17  1  0  0  0  0
 12 35  1  0  0  0  0
 13 14  1  0  0  0  0
 13 16  1  6  0  0  0
 13 36  1  0  0  0  0
 14 15  1  0  0  0  0
 14 37  1  0  0  0  0
 14 38  1  0  0  0  0
 15 18  1  0  0  0  0
 15 39  1  0  0  0  0
 15 40  1  0  0  0  0
 16 41  1  0  0  0  0
 16 42  1  0  0  0  0
 17 43  1  0  0  0  0
 17 44  1  0  0  0  0
 18 45  1  0  0  0  0
 18 46  1  0  0  0  0
 19 20  1  0  0  0  0
 19 21  2  0  0  0  0
 20 22  2  0  0  0  0
 21 23  1  0  0  0  0
 21 48  1  0  0  0  0
 22 24  1  0  0  0  0
 22 49  1  0  0  0  0
 23 24  2  0  0  0  0
 23 50  1  0  0  0  0
 24 51  1  0  0  0  0
M  END
> <PUBCHEM_COMPOUND_CID>
95232163

> <PUBCHEM_COMPOUND_CANONICALIZED>
1

> <PUBCHEM_CACTVS_COMPLEXITY>
366

> <PUBCHEM_CACTVS_HBOND_ACCEPTOR>
6

> <PUBCHEM_CACTVS_HBOND_DONOR>
1

> <PUBCHEM_CACTVS_ROTATABLE_BOND>
7

> <PUBCHEM_CACTVS_SUBSKEYS>
AAADceB7MQAAAAAAAAAAAAAAAAAAASAAAAA8QAAAAAAAAAABAAAAHwAACAAACBzhkA4wwIMABgCAACRCQACCAAAhAgAIiAAIZIgLcCLAkZGWIAhmgADbyAeQIAgAAAAAAAAAAAAAAAAAAAAAAAAAAAAAAA==

> <PUBCHEM_IUPAC_OPENEYE_NAME>
(2R)-1-[4-(2-fluorophenyl)piperazin-1-yl]-3-[[(2S)-tetrahydrofuran-2-yl]methoxy]propan-2-ol

> <PUBCHEM_IUPAC_CAS_NAME>
(2R)-1-[4-(2-fluorophenyl)-1-piperazinyl]-3-[[(2S)-2-oxolanyl]methoxy]-2-propanol

> <PUBCHEM_IUPAC_NAME_MARKUP>
(2<I>R</I>)-1-[4-(2-fluorophenyl)piperazin-1-yl]-3-[[(2<I>S</I>)-oxolan-2-yl]methoxy]propan-2-ol

> <PUBCHEM_IUPAC_NAME>
(2R)-1-[4-(2-fluorophenyl)piperazin-1-yl]-3-[[(2S)-oxolan-2-yl]methoxy]propan-2-ol

> <PUBCHEM_IUPAC_SYSTEMATIC_NAME>
(2R)-1-[4-(2-fluorophenyl)piperazin-1-yl]-3-[[(2S)-oxolan-2-yl]methoxy]propan-2-ol

> <PUBCHEM_IUPAC_TRADITIONAL_NAME>
(2R)-1-[4-(2-fluorophenyl)piperazino]-3-[[(2S)-tetrahydrofuran-2-yl]methoxy]propan-2-ol

> <PUBCHEM_IUPAC_INCHI>
InChI=1S/C18H27FN2O3/c19-17-5-1-2-6-18(17)21-9-7-20(8-10-21)12-15(22)13-23-14-16-4-3-11-24-16/h1-2,5-6,15-16,22H,3-4,7-14H2/t15-,16+/m1/s1

> <PUBCHEM_IUPAC_INCHIKEY>
WIALFKJOQWJYSC-CVEARBPZSA-N

> <PUBCHEM_XLOGP3_AA>
1.6

> <PUBCHEM_EXACT_MASS>
338.20057089

> <PUBCHEM_MOLECULAR_FORMULA>
C18H27FN2O3

> <PUBCHEM_MOLECULAR_WEIGHT>
338.4

> <PUBCHEM_OPENEYE_CAN_SMILES>
C1CC(OC1)COCC(CN2CCN(CC2)C3=CC=CC=C3F)O

> <PUBCHEM_OPENEYE_ISO_SMILES>
C1C[C@H](OC1)COC[C@@H](CN2CCN(CC2)C3=CC=CC=C3F)O

> <PUBCHEM_CACTVS_TPSA>
45.2

> <PUBCHEM_MONOISOTOPIC_WEIGHT>
338.20057089

> <PUBCHEM_TOTAL_CHARGE>
0

> <PUBCHEM_HEAVY_ATOM_COUNT>
24

> <PUBCHEM_ATOM_DEF_STEREO_COUNT>
2

> <PUBCHEM_ATOM_UDEF_STEREO_COUNT>
0

> <PUBCHEM_BOND_DEF_STEREO_COUNT>
0

> <PUBCHEM_BOND_UDEF_STEREO_COUNT>
0

> <PUBCHEM_ISOTOPIC_ATOM_COUNT>
0

> <PUBCHEM_COMPONENT_COUNT>
1

> <PUBCHEM_CACTVS_TAUTO_COUNT>
-1

> <PUBCHEM_COORDINATE_TYPE>
1
5
255

> <PUBCHEM_BONDANNOTATIONS>
13  16  6
19  20  8
19  21  8
20  22  8
21  23  8
22  24  8
23  24  8
12  4  6

$$$$
