134129927
  -OEChem-09292322382D

 45 49  0     1  0  0  0  0  0999 V2000
    6.7024    1.4709    0.0000 S   0  0  0  0  0  0  0  0  0  0  0  0
    7.6530    1.1602    0.0000 O   0  0  0  0  0  0  0  0  0  0  0  0
    5.7519    1.7815    0.0000 O   0  0  0  0  0  0  0  0  0  0  0  0
    2.5582   -3.7855    0.0000 N   0  0  0  0  0  0  0  0  0  0  0  0
    6.3918    0.5203    0.0000 N   0  0  0  0  0  0  0  0  0  0  0  0
    4.0790   -2.1597    0.0000 C   0  0  2  0  0  0  0  0  0  0  0  0
    3.2058   -1.6555    0.0000 C   0  0  1  0  0  0  0  0  0  0  0  0
    4.5795   -1.2844    0.0000 C   0  0  0  0  0  0  0  0  0  0  0  0
    3.7135   -0.7844    0.0000 C   0  0  0  0  0  0  0  0  0  0  0  0
    4.2198   -3.1385    0.0000 C   0  0  0  0  0  0  0  0  0  0  0  0
    2.2877   -2.0230    0.0000 C   0  0  0  0  0  0  0  0  0  0  0  0
    5.4456   -0.7844    0.0000 C   0  0  0  0  0  0  0  0  0  0  0  0
    3.5442   -3.8607    0.0000 C   0  0  0  0  0  0  0  0  0  0  0  0
    2.0000   -2.9692    0.0000 C   0  0  0  0  0  0  0  0  0  0  0  0
    3.7135    0.2156    0.0000 C   0  0  0  0  0  0  0  0  0  0  0  0
    5.4456    0.2156    0.0000 C   0  0  0  0  0  0  0  0  0  0  0  0
    4.5795    0.7156    0.0000 C   0  0  0  0  0  0  0  0  0  0  0  0
    6.3918   -1.0891    0.0000 C   0  0  0  0  0  0  0  0  0  0  0  0
    6.9754   -0.2844    0.0000 C   0  0  0  0  0  0  0  0  0  0  0  0
    7.0131    2.4214    0.0000 C   0  0  0  0  0  0  0  0  0  0  0  0
    6.3453    3.1657    0.0000 C   0  0  0  0  0  0  0  0  0  0  0  0
    7.9916    2.6276    0.0000 C   0  0  0  0  0  0  0  0  0  0  0  0
    6.6559    4.1162    0.0000 C   0  0  0  0  0  0  0  0  0  0  0  0
    8.3023    3.5781    0.0000 C   0  0  0  0  0  0  0  0  0  0  0  0
    7.6344    4.3224    0.0000 C   0  0  0  0  0  0  0  0  0  0  0  0
    4.9140   -2.3188    0.0000 H   0  0  0  0  0  0  0  0  0  0  0  0
    2.6505   -1.0120    0.0000 H   0  0  0  0  0  0  0  0  0  0  0  0
    4.5665   -3.6525    0.0000 H   0  0  0  0  0  0  0  0  0  0  0  0
    4.7982   -2.9154    0.0000 H   0  0  0  0  0  0  0  0  0  0  0  0
    2.1917   -1.4105    0.0000 H   0  0  0  0  0  0  0  0  0  0  0  0
    1.6692   -1.9797    0.0000 H   0  0  0  0  0  0  0  0  0  0  0  0
    3.3602   -4.4528    0.0000 H   0  0  0  0  0  0  0  0  0  0  0  0
    4.0802   -4.1724    0.0000 H   0  0  0  0  0  0  0  0  0  0  0  0
    1.4621   -2.6608    0.0000 H   0  0  0  0  0  0  0  0  0  0  0  0
    1.5793   -3.4246    0.0000 H   0  0  0  0  0  0  0  0  0  0  0  0
    3.1766    0.5256    0.0000 H   0  0  0  0  0  0  0  0  0  0  0  0
    2.2482   -4.3224    0.0000 H   0  0  0  0  0  0  0  0  0  0  0  0
    4.5795    1.3356    0.0000 H   0  0  0  0  0  0  0  0  0  0  0  0
    6.5844   -1.6784    0.0000 H   0  0  0  0  0  0  0  0  0  0  0  0
    7.5954   -0.2844    0.0000 H   0  0  0  0  0  0  0  0  0  0  0  0
    5.7386    3.0378    0.0000 H   0  0  0  0  0  0  0  0  0  0  0  0
    8.4057    2.1661    0.0000 H   0  0  0  0  0  0  0  0  0  0  0  0
    6.2419    4.5777    0.0000 H   0  0  0  0  0  0  0  0  0  0  0  0
    8.9090    3.7060    0.0000 H   0  0  0  0  0  0  0  0  0  0  0  0
    7.8270    4.9117    0.0000 H   0  0  0  0  0  0  0  0  0  0  0  0
  1  2  2  0  0  0  0
  1  3  2  0  0  0  0
  1  5  1  0  0  0  0
  1 20  1  0  0  0  0
  4 13  1  0  0  0  0
  4 14  1  0  0  0  0
  4 37  1  0  0  0  0
  5 16  1  0  0  0  0
  5 19  1  0  0  0  0
  6  7  1  0  0  0  0
  6  8  1  0  0  0  0
  6 10  1  0  0  0  0
  6 26  1  1  0  0  0
  7  9  1  0  0  0  0
  7 11  1  0  0  0  0
  7 27  1  1  0  0  0
  8  9  2  0  0  0  0
  8 12  1  0  0  0  0
  9 15  1  0  0  0  0
 10 13  1  0  0  0  0
 10 28  1  0  0  0  0
 10 29  1  0  0  0  0
 11 14  1  0  0  0  0
 11 30  1  0  0  0  0
 11 31  1  0  0  0  0
 12 16  2  0  0  0  0
 12 18  1  0  0  0  0
 13 32  1  0  0  0  0
 13 33  1  0  0  0  0
 14 34  1  0  0  0  0
 14 35  1  0  0  0  0
 15 17  2  0  0  0  0
 15 36  1  0  0  0  0
 16 17  1  0  0  0  0
 17 38  1  0  0  0  0
 18 19  2  0  0  0  0
 18 39  1  0  0  0  0
 19 40  1  0  0  0  0
 20 21  2  0  0  0  0
 20 22  1  0  0  0  0
 21 23  1  0  0  0  0
 21 41  1  0  0  0  0
 22 24  2  0  0  0  0
 22 42  1  0  0  0  0
 23 25  2  0  0  0  0
 23 43  1  0  0  0  0
 24 25  1  0  0  0  0
 24 44  1  0  0  0  0
 25 45  1  0  0  0  0
M  END
> <PUBCHEM_COMPOUND_CID>
134129927

> <PUBCHEM_COMPOUND_CANONICALIZED>
1

> <PUBCHEM_CACTVS_COMPLEXITY>
595

> <PUBCHEM_CACTVS_HBOND_ACCEPTOR>
3

> <PUBCHEM_CACTVS_HBOND_DONOR>
1

> <PUBCHEM_CACTVS_ROTATABLE_BOND>
2

> <PUBCHEM_CACTVS_SUBSKEYS>
AAADceB7MABAAAAAAAAAAAAAAABgAWAAAAAwYAAABYAYAFgB9AAAHAQQQAAADQjBXgQ8wfLIEAKgAzRnRHDCgDAxAiAI2Lg4ZJgIIOLAkZGEIAhgkADIyAcQgMAOiAACQAASAAAQAASAACQAAAAAAAAAAA==

> <PUBCHEM_IUPAC_OPENEYE_NAME>
(10S,16R)-5-(benzenesulfonyl)-5,13-diazatetracyclo[7.7.0.02,6.010,16]hexadeca-1(9),2(6),3,7-tetraene

> <PUBCHEM_IUPAC_CAS_NAME>
(10S,16R)-5-(benzenesulfonyl)-5,13-diazatetracyclo[7.7.0.02,6.010,16]hexadeca-1(9),2(6),3,7-tetraene

> <PUBCHEM_IUPAC_NAME_MARKUP>
(10<I>S</I>,16<I>R</I>)-5-(benzenesulfonyl)-5,13-diazatetracyclo[7.7.0.0<SUP>2,6</SUP>.0<SUP>10,16</SUP>]hexadeca-1(9),2(6),3,7-tetraene

> <PUBCHEM_IUPAC_NAME>
(10S,16R)-5-(benzenesulfonyl)-5,13-diazatetracyclo[7.7.0.02,6.010,16]hexadeca-1(9),2(6),3,7-tetraene

> <PUBCHEM_IUPAC_SYSTEMATIC_NAME>
(10S,16R)-5-(phenylsulfonyl)-5,13-diazatetracyclo[7.7.0.02,6.010,16]hexadeca-1(9),2(6),3,7-tetraene

> <PUBCHEM_IUPAC_TRADITIONAL_NAME>
(10S,16R)-5-besyl-5,13-diazatetracyclo[7.7.0.02,6.010,16]hexadeca-1(9),2(6),3,7-tetraene

> <PUBCHEM_IUPAC_INCHI>
InChI=1S/C20H20N2O2S/c23-25(24,14-4-2-1-3-5-14)22-13-10-18-19(22)7-6-16-15-8-11-21-12-9-17(15)20(16)18/h1-7,10,13,15,17,21H,8-9,11-12H2/t15-,17-/m1/s1

> <PUBCHEM_IUPAC_INCHIKEY>
DOTBLGLYTBUSJK-NVXWUHKLSA-N

> <PUBCHEM_XLOGP3_AA>
2.2

> <PUBCHEM_EXACT_MASS>
352.12454906

> <PUBCHEM_MOLECULAR_FORMULA>
C20H20N2O2S

> <PUBCHEM_MOLECULAR_WEIGHT>
352.5

> <PUBCHEM_OPENEYE_CAN_SMILES>
C1CNCCC2C1C3=C2C4=C(C=C3)N(C=C4)S(=O)(=O)C5=CC=CC=C5

> <PUBCHEM_OPENEYE_ISO_SMILES>
C1CNCC[C@@H]2[C@H]1C3=C2C4=C(C=C3)N(C=C4)S(=O)(=O)C5=CC=CC=C5

> <PUBCHEM_CACTVS_TPSA>
59.5

> <PUBCHEM_MONOISOTOPIC_WEIGHT>
352.12454906

> <PUBCHEM_TOTAL_CHARGE>
0

> <PUBCHEM_HEAVY_ATOM_COUNT>
25

> <PUBCHEM_ATOM_DEF_STEREO_COUNT>
2

> <PUBCHEM_ATOM_UDEF_STEREO_COUNT>
0

> <PUBCHEM_BOND_DEF_STEREO_COUNT>
0

> <PUBCHEM_BOND_UDEF_STEREO_COUNT>
0

> <PUBCHEM_ISOTOPIC_ATOM_COUNT>
0

> <PUBCHEM_COMPONENT_COUNT>
1

> <PUBCHEM_CACTVS_TAUTO_COUNT>
-1

> <PUBCHEM_COORDINATE_TYPE>
1
5
255

> <PUBCHEM_BONDANNOTATIONS>
12  16  8
12  18  8
15  17  8
16  17  8
18  19  8
20  21  8
20  22  8
21  23  8
22  24  8
23  25  8
24  25  8
5  16  8
5  19  8
6  26  5
7  27  5
8  12  8
8  9  8
9  15  8

$$$$
