155567835
  -OEChem-09292322412D

 62 64  0     1  0  0  0  0  0999 V2000
    6.0740    0.0000    0.0000 Cl  0  0  0  0  0  0  0  0  0  0  0  0
    7.0991   11.4860    0.0000 S   0  0  0  0  0  0  0  0  0  0  0  0
    5.7331    3.1200    0.0000 F   0  0  0  0  0  0  0  0  0  0  0  0
    2.2690    5.1200    0.0000 O   0  0  0  0  0  0  0  0  0  0  0  0
    5.3671    8.4860    0.0000 N   0  0  0  0  0  0  0  0  0  0  0  0
    8.8787   11.5793    0.0000 N   0  0  0  0  0  0  0  0  0  0  0  0
    8.0697   12.9805    0.0000 N   0  0  0  0  0  0  0  0  0  0  0  0
    9.0478   13.1885    0.0000 N   0  0  0  0  0  0  0  0  0  0  0  0
    4.5010    6.9860    0.0000 C   0  0  3  0  0  0  0  0  0  0  0  0
    4.0010    6.1200    0.0000 C   0  0  3  0  0  0  0  0  0  0  0  0
    3.5010    6.9860    0.0000 C   0  0  0  0  0  0  0  0  0  0  0  0
    5.3671    7.4860    0.0000 C   0  0  0  0  0  0  0  0  0  0  0  0
    4.0010    5.1200    0.0000 C   0  0  0  0  0  0  0  0  0  0  0  0
    3.1350    4.6200    0.0000 C   0  0  0  0  0  0  0  0  0  0  0  0
    4.8671    4.6200    0.0000 C   0  0  0  0  0  0  0  0  0  0  0  0
    6.2331    8.9860    0.0000 C   0  0  0  0  0  0  0  0  0  0  0  0
    3.1350    3.6200    0.0000 C   0  0  0  0  0  0  0  0  0  0  0  0
    4.8671    3.6200    0.0000 C   0  0  0  0  0  0  0  0  0  0  0  0
    6.2331    9.9860    0.0000 C   0  0  0  0  0  0  0  0  0  0  0  0
    4.0010    3.1200    0.0000 C   0  0  0  0  0  0  0  0  0  0  0  0
    7.0991   10.4860    0.0000 C   0  0  0  0  0  0  0  0  0  0  0  0
    1.4030    4.6200    0.0000 C   0  0  0  0  0  0  0  0  0  0  0  0
    0.5369    5.1200    0.0000 C   0  0  0  0  0  0  0  0  0  0  0  0
    7.9651   11.9860    0.0000 C   0  0  0  0  0  0  0  0  0  0  0  0
    9.5478   12.3224    0.0000 C   0  0  0  0  0  0  0  0  0  0  0  0
    9.0866   10.6011    0.0000 C   0  0  0  0  0  0  0  0  0  0  0  0
   10.5423   12.2179    0.0000 C   0  0  0  0  0  0  0  0  0  0  0  0
   11.1301   13.0269    0.0000 C   0  0  0  0  0  0  0  0  0  0  0  0
   10.9491   11.3044    0.0000 C   0  0  0  0  0  0  0  0  0  0  0  0
   12.1246   12.9224    0.0000 C   0  0  0  0  0  0  0  0  0  0  0  0
   11.9436   11.1998    0.0000 C   0  0  0  0  0  0  0  0  0  0  0  0
   12.5314   12.0088    0.0000 C   0  0  0  0  0  0  0  0  0  0  0  0
    4.9394    6.5476    0.0000 H   0  0  0  0  0  0  0  0  0  0  0  0
    4.5999    5.9595    0.0000 H   0  0  0  0  0  0  0  0  0  0  0  0
    3.3934    7.5966    0.0000 H   0  0  0  0  0  0  0  0  0  0  0  0
    2.9184    6.7740    0.0000 H   0  0  0  0  0  0  0  0  0  0  0  0
    5.5791    6.9034    0.0000 H   0  0  0  0  0  0  0  0  0  0  0  0
    5.9776    7.5937    0.0000 H   0  0  0  0  0  0  0  0  0  0  0  0
    4.8301    8.7960    0.0000 H   0  0  0  0  0  0  0  0  0  0  0  0
    5.4040    4.9300    0.0000 H   0  0  0  0  0  0  0  0  0  0  0  0
    6.4451    8.4034    0.0000 H   0  0  0  0  0  0  0  0  0  0  0  0
    6.8437    9.0937    0.0000 H   0  0  0  0  0  0  0  0  0  0  0  0
    2.5981    3.3100    0.0000 H   0  0  0  0  0  0  0  0  0  0  0  0
    6.0210   10.5686    0.0000 H   0  0  0  0  0  0  0  0  0  0  0  0
    5.6225    9.8784    0.0000 H   0  0  0  0  0  0  0  0  0  0  0  0
    4.0010    2.5000    0.0000 H   0  0  0  0  0  0  0  0  0  0  0  0
    7.3112    9.9034    0.0000 H   0  0  0  0  0  0  0  0  0  0  0  0
    7.7097   10.5937    0.0000 H   0  0  0  0  0  0  0  0  0  0  0  0
    1.0044    4.1450    0.0000 H   0  0  0  0  0  0  0  0  0  0  0  0
    1.8015    4.1450    0.0000 H   0  0  0  0  0  0  0  0  0  0  0  0
    0.8469    5.6569    0.0000 H   0  0  0  0  0  0  0  0  0  0  0  0
    0.0000    5.4300    0.0000 H   0  0  0  0  0  0  0  0  0  0  0  0
    0.2269    4.5831    0.0000 H   0  0  0  0  0  0  0  0  0  0  0  0
    8.4802   10.4722    0.0000 H   0  0  0  0  0  0  0  0  0  0  0  0
    9.2155    9.9947    0.0000 H   0  0  0  0  0  0  0  0  0  0  0  0
    9.6930   10.7300    0.0000 H   0  0  0  0  0  0  0  0  0  0  0  0
   10.8779   13.5933    0.0000 H   0  0  0  0  0  0  0  0  0  0  0  0
   10.5846   10.8028    0.0000 H   0  0  0  0  0  0  0  0  0  0  0  0
   12.4891   13.4240    0.0000 H   0  0  0  0  0  0  0  0  0  0  0  0
   12.1958   10.6334    0.0000 H   0  0  0  0  0  0  0  0  0  0  0  0
   13.1480   11.9440    0.0000 H   0  0  0  0  0  0  0  0  0  0  0  0
    7.0740    0.0000    0.0000 H   0  0  0  0  0  0  0  0  0  0  0  0
  1 62  1  0  0  0  0
  2 21  1  0  0  0  0
  2 24  1  0  0  0  0
  3 18  1  0  0  0  0
  4 14  1  0  0  0  0
  4 22  1  0  0  0  0
  5 12  1  0  0  0  0
  5 16  1  0  0  0  0
  5 39  1  0  0  0  0
  6 24  1  0  0  0  0
  6 25  1  0  0  0  0
  6 26  1  0  0  0  0
  7  8  1  0  0  0  0
  7 24  2  0  0  0  0
  8 25  2  0  0  0  0
  9 10  1  0  0  0  0
  9 11  1  0  0  0  0
  9 12  1  0  0  0  0
  9 33  1  0  0  0  0
 10 11  1  0  0  0  0
 10 13  1  0  0  0  0
 10 34  1  0  0  0  0
 11 35  1  0  0  0  0
 11 36  1  0  0  0  0
 12 37  1  0  0  0  0
 12 38  1  0  0  0  0
 13 14  2  0  0  0  0
 13 15  1  0  0  0  0
 14 17  1  0  0  0  0
 15 18  2  0  0  0  0
 15 40  1  0  0  0  0
 16 19  1  0  0  0  0
 16 41  1  0  0  0  0
 16 42  1  0  0  0  0
 17 20  2  0  0  0  0
 17 43  1  0  0  0  0
 18 20  1  0  0  0  0
 19 21  1  0  0  0  0
 19 44  1  0  0  0  0
 19 45  1  0  0  0  0
 20 46  1  0  0  0  0
 21 47  1  0  0  0  0
 21 48  1  0  0  0  0
 22 23  1  0  0  0  0
 22 49  1  0  0  0  0
 22 50  1  0  0  0  0
 23 51  1  0  0  0  0
 23 52  1  0  0  0  0
 23 53  1  0  0  0  0
 25 27  1  0  0  0  0
 26 54  1  0  0  0  0
 26 55  1  0  0  0  0
 26 56  1  0  0  0  0
 27 28  2  0  0  0  0
 27 29  1  0  0  0  0
 28 30  1  0  0  0  0
 28 57  1  0  0  0  0
 29 31  2  0  0  0  0
 29 58  1  0  0  0  0
 30 32  2  0  0  0  0
 30 59  1  0  0  0  0
 31 32  1  0  0  0  0
 31 60  1  0  0  0  0
 32 61  1  0  0  0  0
M  END
> <PUBCHEM_COMPOUND_CID>
155567835

> <PUBCHEM_COMPOUND_CANONICALIZED>
1

> <PUBCHEM_CACTVS_COMPLEXITY>
538

> <PUBCHEM_CACTVS_HBOND_ACCEPTOR>
6

> <PUBCHEM_CACTVS_HBOND_DONOR>
2

> <PUBCHEM_CACTVS_ROTATABLE_BOND>
11

> <PUBCHEM_CACTVS_SUBSKEYS>
AAADceB7oQBEAAAAAAAAAAAAGAAAAWAAAAAwYAAAAAAAAAAB0AAAHwQYAAAADQTl2w6zFofMFAiiAiJiJACS2AtgILAdyKAuDJiMLqKkuRuGOCjk2BOIqAeQ0OIOgAAAAAAIAAAAAAAAABAAAAAAAAAAAA==

> <PUBCHEM_IUPAC_OPENEYE_NAME>
N-[[2-(2-ethoxy-5-fluoro-phenyl)cyclopropyl]methyl]-3-[(4-methyl-5-phenyl-1,2,4-triazol-3-yl)sulfanyl]propan-1-amine;hydrochloride

> <PUBCHEM_IUPAC_CAS_NAME>
N-[[2-(2-ethoxy-5-fluorophenyl)cyclopropyl]methyl]-3-[(4-methyl-5-phenyl-1,2,4-triazol-3-yl)thio]-1-propanamine;hydrochloride

> <PUBCHEM_IUPAC_NAME_MARKUP>
<I>N</I>-[[2-(2-ethoxy-5-fluorophenyl)cyclopropyl]methyl]-3-[(4-methyl-5-phenyl-1,2,4-triazol-3-yl)sulfanyl]propan-1-amine;hydrochloride

> <PUBCHEM_IUPAC_NAME>
N-[[2-(2-ethoxy-5-fluorophenyl)cyclopropyl]methyl]-3-[(4-methyl-5-phenyl-1,2,4-triazol-3-yl)sulfanyl]propan-1-amine;hydrochloride

> <PUBCHEM_IUPAC_SYSTEMATIC_NAME>
N-[[2-(2-ethoxy-5-fluoranyl-phenyl)cyclopropyl]methyl]-3-[(4-methyl-5-phenyl-1,2,4-triazol-3-yl)sulfanyl]propan-1-amine;hydrochloride

> <PUBCHEM_IUPAC_TRADITIONAL_NAME>
[2-(2-ethoxy-5-fluoro-phenyl)cyclopropyl]methyl-[3-[(4-methyl-5-phenyl-1,2,4-triazol-3-yl)thio]propyl]amine;hydrochloride

> <PUBCHEM_IUPAC_INCHI>
InChI=1S/C24H29FN4OS.ClH/c1-3-30-22-11-10-19(25)15-21(22)20-14-18(20)16-26-12-7-13-31-24-28-27-23(29(24)2)17-8-5-4-6-9-17;/h4-6,8-11,15,18,20,26H,3,7,12-14,16H2,1-2H3;1H

> <PUBCHEM_IUPAC_INCHIKEY>
DVKQTIHLIKEUQM-UHFFFAOYSA-N

> <PUBCHEM_EXACT_MASS>
476.1812886

> <PUBCHEM_MOLECULAR_FORMULA>
C24H30ClFN4OS

> <PUBCHEM_MOLECULAR_WEIGHT>
477.0

> <PUBCHEM_OPENEYE_CAN_SMILES>
CCOC1=C(C=C(C=C1)F)C2CC2CNCCCSC3=NN=C(N3C)C4=CC=CC=C4.Cl

> <PUBCHEM_OPENEYE_ISO_SMILES>
CCOC1=C(C=C(C=C1)F)C2CC2CNCCCSC3=NN=C(N3C)C4=CC=CC=C4.Cl

> <PUBCHEM_CACTVS_TPSA>
77.3

> <PUBCHEM_MONOISOTOPIC_WEIGHT>
476.1812886

> <PUBCHEM_TOTAL_CHARGE>
0

> <PUBCHEM_HEAVY_ATOM_COUNT>
32

> <PUBCHEM_ATOM_DEF_STEREO_COUNT>
0

> <PUBCHEM_ATOM_UDEF_STEREO_COUNT>
2

> <PUBCHEM_BOND_DEF_STEREO_COUNT>
0

> <PUBCHEM_BOND_UDEF_STEREO_COUNT>
0

> <PUBCHEM_ISOTOPIC_ATOM_COUNT>
0

> <PUBCHEM_COMPONENT_COUNT>
2

> <PUBCHEM_CACTVS_TAUTO_COUNT>
-1

> <PUBCHEM_COORDINATE_TYPE>
1
5
255

> <PUBCHEM_BONDANNOTATIONS>
10  13  3
13  14  8
13  15  8
14  17  8
15  18  8
17  20  8
18  20  8
27  28  8
27  29  8
28  30  8
29  31  8
30  32  8
31  32  8
6  24  8
6  25  8
7  24  8
7  8  8
8  25  8
9  12  3

$$$$
