136079154
  -OEChem-09292322052D

120127  0     0  0  0  0  0  0999 V2000
    2.0000   10.9259    0.0000 Cl  0  0  0  0  0  0  0  0  0  0  0  0
   12.6764  -10.9259    0.0000 Cl  0  0  0  0  0  0  0  0  0  0  0  0
    8.8112    2.9292    0.0000 O   0  0  0  0  0  0  0  0  0  0  0  0
    5.8652   -2.9292    0.0000 O   0  0  0  0  0  0  0  0  0  0  0  0
    7.6390    7.3593    0.0000 N   0  0  0  0  0  0  0  0  0  0  0  0
    7.0373   -7.3593    0.0000 N   0  0  0  0  0  0  0  0  0  0  0  0
    6.7713    9.1613    0.0000 N   0  0  0  0  0  0  0  0  0  0  0  0
    7.9051   -9.1613    0.0000 N   0  0  0  0  0  0  0  0  0  0  0  0
    5.3374   10.0622    0.0000 N   0  0  0  0  0  0  0  0  0  0  0  0
    9.3390  -10.0622    0.0000 N   0  0  0  0  0  0  0  0  0  0  0  0
    7.3802    3.9049    0.0000 N   0  0  0  0  0  0  0  0  0  0  0  0
    7.2962   -3.9049    0.0000 N   0  0  0  0  0  0  0  0  0  0  0  0
    5.8374   12.2529    0.0000 N   0  0  0  0  0  0  0  0  0  0  0  0
    8.8390  -12.2529    0.0000 N   0  0  0  0  0  0  0  0  0  0  0  0
    6.6418    7.4340    0.0000 C   0  0  0  0  0  0  0  0  0  0  0  0
    8.2024    8.1855    0.0000 C   0  0  0  0  0  0  0  0  0  0  0  0
    6.4740   -8.1855    0.0000 C   0  0  0  0  0  0  0  0  0  0  0  0
    8.0345   -7.4340    0.0000 C   0  0  0  0  0  0  0  0  0  0  0  0
    6.2080    8.3350    0.0000 C   0  0  0  0  0  0  0  0  0  0  0  0
    7.7685    9.0865    0.0000 C   0  0  0  0  0  0  0  0  0  0  0  0
    6.9079   -9.0865    0.0000 C   0  0  0  0  0  0  0  0  0  0  0  0
    8.4684   -8.3350    0.0000 C   0  0  0  0  0  0  0  0  0  0  0  0
    8.0729    6.4583    0.0000 C   0  0  0  0  0  0  0  0  0  0  0  0
    6.6035   -6.4583    0.0000 C   0  0  0  0  0  0  0  0  0  0  0  0
    7.5096    5.6321    0.0000 C   0  0  0  0  0  0  0  0  0  0  0  0
    7.1668   -5.6321    0.0000 C   0  0  0  0  0  0  0  0  0  0  0  0
    6.3374   10.0622    0.0000 C   0  0  0  0  0  0  0  0  0  0  0  0
    8.3390  -10.0622    0.0000 C   0  0  0  0  0  0  0  0  0  0  0  0
    7.9435    4.7311    0.0000 C   0  0  0  0  0  0  0  0  0  0  0  0
    6.7329   -4.7311    0.0000 C   0  0  0  0  0  0  0  0  0  0  0  0
    6.9609   10.8441    0.0000 C   0  0  0  0  0  0  0  0  0  0  0  0
    7.7155  -10.8441    0.0000 C   0  0  0  0  0  0  0  0  0  0  0  0
    6.7384   11.8190    0.0000 C   0  0  0  0  0  0  0  0  0  0  0  0
    7.9380  -11.8190    0.0000 C   0  0  0  0  0  0  0  0  0  0  0  0
    4.7139   10.8441    0.0000 C   0  0  0  0  0  0  0  0  0  0  0  0
    9.9624  -10.8441    0.0000 C   0  0  0  0  0  0  0  0  0  0  0  0
    7.9514   10.5217    0.0000 C   0  0  0  0  0  0  0  0  0  0  0  0
    6.7250  -10.5217    0.0000 C   0  0  0  0  0  0  0  0  0  0  0  0
    7.1213    0.4505    0.0000 C   0  0  0  0  0  0  0  0  0  0  0  0
    7.5551   -0.4505    0.0000 C   0  0  0  0  0  0  0  0  0  0  0  0
    7.6846    1.2767    0.0000 C   0  0  0  0  0  0  0  0  0  0  0  0
    6.9918   -1.2767    0.0000 C   0  0  0  0  0  0  0  0  0  0  0  0
    7.2507    2.1777    0.0000 C   0  0  0  0  0  0  0  0  0  0  0  0
    7.4257   -2.1777    0.0000 C   0  0  0  0  0  0  0  0  0  0  0  0
    4.9365   11.8190    0.0000 C   0  0  0  0  0  0  0  0  0  0  0  0
    9.7399  -11.8190    0.0000 C   0  0  0  0  0  0  0  0  0  0  0  0
    7.8140    3.0039    0.0000 C   0  0  0  0  0  0  0  0  0  0  0  0
    6.8624   -3.0039    0.0000 C   0  0  0  0  0  0  0  0  0  0  0  0
    7.4910   12.5392    0.0000 C   0  0  0  0  0  0  0  0  0  0  0  0
    7.1854  -12.5392    0.0000 C   0  0  0  0  0  0  0  0  0  0  0  0
    8.7204   11.2243    0.0000 C   0  0  0  0  0  0  0  0  0  0  0  0
    5.9560  -11.2243    0.0000 C   0  0  0  0  0  0  0  0  0  0  0  0
    8.4887   12.2398    0.0000 C   0  0  0  0  0  0  0  0  0  0  0  0
    6.1877  -12.2398    0.0000 C   0  0  0  0  0  0  0  0  0  0  0  0
    3.7234   10.5217    0.0000 C   0  0  0  0  0  0  0  0  0  0  0  0
   10.9530  -10.5217    0.0000 C   0  0  0  0  0  0  0  0  0  0  0  0
    4.1839   12.5392    0.0000 C   0  0  0  0  0  0  0  0  0  0  0  0
   10.4925  -12.5392    0.0000 C   0  0  0  0  0  0  0  0  0  0  0  0
    2.9544   11.2243    0.0000 C   0  0  0  0  0  0  0  0  0  0  0  0
   11.7220  -11.2243    0.0000 C   0  0  0  0  0  0  0  0  0  0  0  0
    3.1862   12.2398    0.0000 C   0  0  0  0  0  0  0  0  0  0  0  0
   11.4902  -12.2398    0.0000 C   0  0  0  0  0  0  0  0  0  0  0  0
    6.0450    7.2661    0.0000 H   0  0  0  0  0  0  0  0  0  0  0  0
    6.7036    6.8171    0.0000 H   0  0  0  0  0  0  0  0  0  0  0  0
    8.6462    7.7526    0.0000 H   0  0  0  0  0  0  0  0  0  0  0  0
    8.7058    8.5475    0.0000 H   0  0  0  0  0  0  0  0  0  0  0  0
    6.0302   -7.7526    0.0000 H   0  0  0  0  0  0  0  0  0  0  0  0
    5.9706   -8.5475    0.0000 H   0  0  0  0  0  0  0  0  0  0  0  0
    8.6314   -7.2661    0.0000 H   0  0  0  0  0  0  0  0  0  0  0  0
    7.9728   -6.8171    0.0000 H   0  0  0  0  0  0  0  0  0  0  0  0
    5.7641    8.7679    0.0000 H   0  0  0  0  0  0  0  0  0  0  0  0
    5.7046    7.9731    0.0000 H   0  0  0  0  0  0  0  0  0  0  0  0
    8.3653    9.2544    0.0000 H   0  0  0  0  0  0  0  0  0  0  0  0
    7.7068    9.7034    0.0000 H   0  0  0  0  0  0  0  0  0  0  0  0
    6.3111   -9.2544    0.0000 H   0  0  0  0  0  0  0  0  0  0  0  0
    6.9696   -9.7034    0.0000 H   0  0  0  0  0  0  0  0  0  0  0  0
    8.9122   -8.7679    0.0000 H   0  0  0  0  0  0  0  0  0  0  0  0
    8.9718   -7.9731    0.0000 H   0  0  0  0  0  0  0  0  0  0  0  0
    8.5168    6.0254    0.0000 H   0  0  0  0  0  0  0  0  0  0  0  0
    8.5763    6.8203    0.0000 H   0  0  0  0  0  0  0  0  0  0  0  0
    6.1596   -6.0254    0.0000 H   0  0  0  0  0  0  0  0  0  0  0  0
    6.1001   -6.8203    0.0000 H   0  0  0  0  0  0  0  0  0  0  0  0
    7.0658    6.0650    0.0000 H   0  0  0  0  0  0  0  0  0  0  0  0
    7.0062    5.2702    0.0000 H   0  0  0  0  0  0  0  0  0  0  0  0
    7.6106   -6.0650    0.0000 H   0  0  0  0  0  0  0  0  0  0  0  0
    7.6702   -5.2702    0.0000 H   0  0  0  0  0  0  0  0  0  0  0  0
    8.3873    4.2982    0.0000 H   0  0  0  0  0  0  0  0  0  0  0  0
    8.4469    5.0930    0.0000 H   0  0  0  0  0  0  0  0  0  0  0  0
    6.2891   -4.2982    0.0000 H   0  0  0  0  0  0  0  0  0  0  0  0
    6.2295   -5.0930    0.0000 H   0  0  0  0  0  0  0  0  0  0  0  0
    6.7619    3.9512    0.0000 H   0  0  0  0  0  0  0  0  0  0  0  0
    7.9145   -3.9512    0.0000 H   0  0  0  0  0  0  0  0  0  0  0  0
    8.0824    9.9157    0.0000 H   0  0  0  0  0  0  0  0  0  0  0  0
    6.5940   -9.9157    0.0000 H   0  0  0  0  0  0  0  0  0  0  0  0
    6.6774    0.8834    0.0000 H   0  0  0  0  0  0  0  0  0  0  0  0
    6.6178    0.0886    0.0000 H   0  0  0  0  0  0  0  0  0  0  0  0
    7.9990   -0.8834    0.0000 H   0  0  0  0  0  0  0  0  0  0  0  0
    8.0585   -0.0886    0.0000 H   0  0  0  0  0  0  0  0  0  0  0  0
    8.1284    0.8438    0.0000 H   0  0  0  0  0  0  0  0  0  0  0  0
    8.1880    1.6386    0.0000 H   0  0  0  0  0  0  0  0  0  0  0  0
    6.5480   -0.8438    0.0000 H   0  0  0  0  0  0  0  0  0  0  0  0
    6.4884   -1.6386    0.0000 H   0  0  0  0  0  0  0  0  0  0  0  0
    6.8069    2.6106    0.0000 H   0  0  0  0  0  0  0  0  0  0  0  0
    6.7473    1.8158    0.0000 H   0  0  0  0  0  0  0  0  0  0  0  0
    7.8695   -2.6106    0.0000 H   0  0  0  0  0  0  0  0  0  0  0  0
    7.9291   -1.8158    0.0000 H   0  0  0  0  0  0  0  0  0  0  0  0
    5.8374   12.8729    0.0000 H   0  0  0  0  0  0  0  0  0  0  0  0
    8.8390  -12.8729    0.0000 H   0  0  0  0  0  0  0  0  0  0  0  0
    7.3460   13.1420    0.0000 H   0  0  0  0  0  0  0  0  0  0  0  0
    7.3304  -13.1420    0.0000 H   0  0  0  0  0  0  0  0  0  0  0  0
    9.3122   11.0393    0.0000 H   0  0  0  0  0  0  0  0  0  0  0  0
    5.3642  -11.0393    0.0000 H   0  0  0  0  0  0  0  0  0  0  0  0
    8.9415   12.6633    0.0000 H   0  0  0  0  0  0  0  0  0  0  0  0
    5.7349  -12.6633    0.0000 H   0  0  0  0  0  0  0  0  0  0  0  0
    3.5925    9.9157    0.0000 H   0  0  0  0  0  0  0  0  0  0  0  0
   11.0839   -9.9157    0.0000 H   0  0  0  0  0  0  0  0  0  0  0  0
    4.3289   13.1420    0.0000 H   0  0  0  0  0  0  0  0  0  0  0  0
   10.3475  -13.1420    0.0000 H   0  0  0  0  0  0  0  0  0  0  0  0
    2.7334   12.6633    0.0000 H   0  0  0  0  0  0  0  0  0  0  0  0
   11.9430  -12.6633    0.0000 H   0  0  0  0  0  0  0  0  0  0  0  0
  1 59  1  0  0  0  0
  2 60  1  0  0  0  0
  3 47  2  0  0  0  0
  4 48  2  0  0  0  0
  5 15  1  0  0  0  0
  5 16  1  0  0  0  0
  5 23  1  0  0  0  0
  6 17  1  0  0  0  0
  6 18  1  0  0  0  0
  6 24  1  0  0  0  0
  7 19  1  0  0  0  0
  7 20  1  0  0  0  0
  7 27  1  0  0  0  0
  8 21  1  0  0  0  0
  8 22  1  0  0  0  0
  8 28  1  0  0  0  0
  9 27  2  0  0  0  0
  9 35  1  0  0  0  0
 10 28  2  0  0  0  0
 10 36  1  0  0  0  0
 11 29  1  0  0  0  0
 11 47  1  0  0  0  0
 11 91  1  0  0  0  0
 12 30  1  0  0  0  0
 12 48  1  0  0  0  0
 12 92  1  0  0  0  0
 13 33  1  0  0  0  0
 13 45  1  0  0  0  0
 13107  1  0  0  0  0
 14 34  1  0  0  0  0
 14 46  1  0  0  0  0
 14108  1  0  0  0  0
 15 19  1  0  0  0  0
 15 63  1  0  0  0  0
 15 64  1  0  0  0  0
 16 20  1  0  0  0  0
 16 65  1  0  0  0  0
 16 66  1  0  0  0  0
 17 21  1  0  0  0  0
 17 67  1  0  0  0  0
 17 68  1  0  0  0  0
 18 22  1  0  0  0  0
 18 69  1  0  0  0  0
 18 70  1  0  0  0  0
 19 71  1  0  0  0  0
 19 72  1  0  0  0  0
 20 73  1  0  0  0  0
 20 74  1  0  0  0  0
 21 75  1  0  0  0  0
 21 76  1  0  0  0  0
 22 77  1  0  0  0  0
 22 78  1  0  0  0  0
 23 25  1  0  0  0  0
 23 79  1  0  0  0  0
 23 80  1  0  0  0  0
 24 26  1  0  0  0  0
 24 81  1  0  0  0  0
 24 82  1  0  0  0  0
 25 29  1  0  0  0  0
 25 83  1  0  0  0  0
 25 84  1  0  0  0  0
 26 30  1  0  0  0  0
 26 85  1  0  0  0  0
 26 86  1  0  0  0  0
 27 31  1  0  0  0  0
 28 32  1  0  0  0  0
 29 87  1  0  0  0  0
 29 88  1  0  0  0  0
 30 89  1  0  0  0  0
 30 90  1  0  0  0  0
 31 33  1  0  0  0  0
 31 37  2  0  0  0  0
 32 34  1  0  0  0  0
 32 38  2  0  0  0  0
 33 49  2  0  0  0  0
 34 50  2  0  0  0  0
 35 45  2  0  0  0  0
 35 55  1  0  0  0  0
 36 46  2  0  0  0  0
 36 56  1  0  0  0  0
 37 51  1  0  0  0  0
 37 93  1  0  0  0  0
 38 52  1  0  0  0  0
 38 94  1  0  0  0  0
 39 40  1  0  0  0  0
 39 41  1  0  0  0  0
 39 95  1  0  0  0  0
 39 96  1  0  0  0  0
 40 42  1  0  0  0  0
 40 97  1  0  0  0  0
 40 98  1  0  0  0  0
 41 43  1  0  0  0  0
 41 99  1  0  0  0  0
 41100  1  0  0  0  0
 42 44  1  0  0  0  0
 42101  1  0  0  0  0
 42102  1  0  0  0  0
 43 47  1  0  0  0  0
 43103  1  0  0  0  0
 43104  1  0  0  0  0
 44 48  1  0  0  0  0
 44105  1  0  0  0  0
 44106  1  0  0  0  0
 45 57  1  0  0  0  0
 46 58  1  0  0  0  0
 49 53  1  0  0  0  0
 49109  1  0  0  0  0
 50 54  1  0  0  0  0
 50110  1  0  0  0  0
 51 53  2  0  0  0  0
 51111  1  0  0  0  0
 52 54  2  0  0  0  0
 52112  1  0  0  0  0
 53113  1  0  0  0  0
 54114  1  0  0  0  0
 55 59  2  0  0  0  0
 55115  1  0  0  0  0
 56 60  2  0  0  0  0
 56116  1  0  0  0  0
 57 61  2  0  0  0  0
 57117  1  0  0  0  0
 58 62  2  0  0  0  0
 58118  1  0  0  0  0
 59 61  1  0  0  0  0
 60 62  1  0  0  0  0
 61119  1  0  0  0  0
 62120  1  0  0  0  0
M  END
> <PUBCHEM_COMPOUND_CID>
136079154

> <PUBCHEM_COMPOUND_CANONICALIZED>
1

> <PUBCHEM_CACTVS_COMPLEXITY>
1380

> <PUBCHEM_CACTVS_HBOND_ACCEPTOR>
8

> <PUBCHEM_CACTVS_HBOND_DONOR>
4

> <PUBCHEM_CACTVS_ROTATABLE_BOND>
17

> <PUBCHEM_CACTVS_SUBSKEYS>
AAADcfB/8AAGAAAAAAAAAAAAAAAAAAAAAAA8eMGCBAgAAAABVAAAHgIQAAAADArBmCQxwIPAAACoAidydACCAAEhBwAJiIEodpgIYPLB25GUIAhglgDIyAcYiICOAABAAAICACAAAIAABAQAQAAAAAAAAA==

> <PUBCHEM_IUPAC_OPENEYE_NAME>
N,N'-bis[3-[4-(3-chloro-11H-benzo[b][1,4]benzodiazepin-6-yl)piperazin-1-yl]propyl]octanediamide

> <PUBCHEM_IUPAC_CAS_NAME>
N,N'-bis[3-[4-(3-chloro-11H-benzo[b][1,4]benzodiazepin-6-yl)-1-piperazinyl]propyl]octanediamide

> <PUBCHEM_IUPAC_NAME_MARKUP>
<I>N</I>,<I>N</I>&apos;-bis[3-[4-(3-chloro-11<I>H</I>-benzo[b][1,4]benzodiazepin-6-yl)piperazin-1-yl]propyl]octanediamide

> <PUBCHEM_IUPAC_NAME>
N,N'-bis[3-[4-(3-chloro-11H-benzo[b][1,4]benzodiazepin-6-yl)piperazin-1-yl]propyl]octanediamide

> <PUBCHEM_IUPAC_SYSTEMATIC_NAME>
N,N'-bis[3-[4-(3-chloranyl-11H-benzo[b][1,4]benzodiazepin-6-yl)piperazin-1-yl]propyl]octanediamide

> <PUBCHEM_IUPAC_TRADITIONAL_NAME>
N,N'-bis[3-[4-(3-chloro-11H-benzo[b][1,4]benzodiazepin-6-yl)piperazino]propyl]suberamide

> <PUBCHEM_IUPAC_INCHI>
InChI=1S/C48H58Cl2N10O2/c49-35-17-19-41-43(33-35)55-47(37-11-5-7-13-39(37)53-41)59-29-25-57(26-30-59)23-9-21-51-45(61)15-3-1-2-4-16-46(62)52-22-10-24-58-27-31-60(32-28-58)48-38-12-6-8-14-40(38)54-42-20-18-36(50)34-44(42)56-48/h5-8,11-14,17-20,33-34,53-54H,1-4,9-10,15-16,21-32H2,(H,51,61)(H,52,62)

> <PUBCHEM_IUPAC_INCHIKEY>
DATNAXXQOLNOOK-UHFFFAOYSA-N

> <PUBCHEM_XLOGP3_AA>
6.9

> <PUBCHEM_EXACT_MASS>
876.4121265

> <PUBCHEM_MOLECULAR_FORMULA>
C48H58Cl2N10O2

> <PUBCHEM_MOLECULAR_WEIGHT>
877.9

> <PUBCHEM_OPENEYE_CAN_SMILES>
C1CN(CCN1CCCNC(=O)CCCCCCC(=O)NCCCN2CCN(CC2)C3=NC4=C(C=CC(=C4)Cl)NC5=CC=CC=C53)C6=NC7=C(C=CC(=C7)Cl)NC8=CC=CC=C86

> <PUBCHEM_OPENEYE_ISO_SMILES>
C1CN(CCN1CCCNC(=O)CCCCCCC(=O)NCCCN2CCN(CC2)C3=NC4=C(C=CC(=C4)Cl)NC5=CC=CC=C53)C6=NC7=C(C=CC(=C7)Cl)NC8=CC=CC=C86

> <PUBCHEM_CACTVS_TPSA>
120

> <PUBCHEM_MONOISOTOPIC_WEIGHT>
876.4121265

> <PUBCHEM_TOTAL_CHARGE>
0

> <PUBCHEM_HEAVY_ATOM_COUNT>
62

> <PUBCHEM_ATOM_DEF_STEREO_COUNT>
0

> <PUBCHEM_ATOM_UDEF_STEREO_COUNT>
0

> <PUBCHEM_BOND_DEF_STEREO_COUNT>
0

> <PUBCHEM_BOND_UDEF_STEREO_COUNT>
0

> <PUBCHEM_ISOTOPIC_ATOM_COUNT>
0

> <PUBCHEM_COMPONENT_COUNT>
1

> <PUBCHEM_CACTVS_TAUTO_COUNT>
-1

> <PUBCHEM_COORDINATE_TYPE>
1
5
255

> <PUBCHEM_BONDANNOTATIONS>
31  33  8
31  37  8
32  34  8
32  38  8
33  49  8
34  50  8
35  45  8
35  55  8
36  46  8
36  56  8
37  51  8
38  52  8
45  57  8
46  58  8
49  53  8
50  54  8
51  53  8
52  54  8
55  59  8
56  60  8
57  61  8
58  62  8
59  61  8
60  62  8

$$$$
