24854106
  -OEChem-09292322242D

 53 56  0     1  0  0  0  0  0999 V2000
    2.0000   -2.7136    0.0000 F   0  0  0  0  0  0  0  0  0  0  0  0
    7.1279   -3.7136    0.0000 O   0  0  0  0  0  0  0  0  0  0  0  0
    8.4333    0.3551    0.0000 N   0  0  0  0  0  0  0  0  0  0  0  0
    9.0546    2.2561    0.0000 N   0  0  0  0  0  0  0  0  0  0  0  0
    5.5443   -4.5184    0.0000 N   0  0  0  0  0  0  0  0  0  0  0  0
    8.1226   -0.5954    0.0000 C   0  0  0  0  0  0  0  0  0  0  0  0
    9.4118    0.5613    0.0000 C   0  0  0  0  0  0  0  0  0  0  0  0
    7.7654    1.0994    0.0000 C   0  0  0  0  0  0  0  0  0  0  0  0
    7.1441   -0.8016    0.0000 C   0  0  0  0  0  0  0  0  0  0  0  0
    6.8335   -1.7522    0.0000 C   0  0  0  0  0  0  0  0  0  0  0  0
    5.5443   -2.9089    0.0000 C   0  0  3  0  0  0  0  0  0  0  0  0
    5.8550   -1.9584    0.0000 C   0  0  0  0  0  0  0  0  0  0  0  0
    9.7225    1.5118    0.0000 C   0  0  0  0  0  0  0  0  0  0  0  0
    8.0761    2.0499    0.0000 C   0  0  0  0  0  0  0  0  0  0  0  0
    4.5981   -3.2136    0.0000 C   0  0  0  0  0  0  0  0  0  0  0  0
    6.1279   -3.7136    0.0000 C   0  0  0  0  0  0  0  0  0  0  0  0
    4.5981   -4.2136    0.0000 C   0  0  0  0  0  0  0  0  0  0  0  0
    9.3653    3.2066    0.0000 C   0  0  0  0  0  0  0  0  0  0  0  0
    3.7320   -2.7136    0.0000 C   0  0  0  0  0  0  0  0  0  0  0  0
    3.7320   -4.7136    0.0000 C   0  0  0  0  0  0  0  0  0  0  0  0
    8.6974    3.9510    0.0000 C   0  0  0  0  0  0  0  0  0  0  0  0
   10.3438    3.4129    0.0000 C   0  0  0  0  0  0  0  0  0  0  0  0
    2.8660   -3.2136    0.0000 C   0  0  0  0  0  0  0  0  0  0  0  0
    2.8660   -4.2136    0.0000 C   0  0  0  0  0  0  0  0  0  0  0  0
    9.0081    4.9015    0.0000 C   0  0  0  0  0  0  0  0  0  0  0  0
   10.6545    4.3634    0.0000 C   0  0  0  0  0  0  0  0  0  0  0  0
    9.9866    5.1077    0.0000 C   0  0  0  0  0  0  0  0  0  0  0  0
    8.1432   -1.2151    0.0000 H   0  0  0  0  0  0  0  0  0  0  0  0
    8.7364   -0.6828    0.0000 H   0  0  0  0  0  0  0  0  0  0  0  0
    9.4324   -0.0583    0.0000 H   0  0  0  0  0  0  0  0  0  0  0  0
   10.0256    0.4740    0.0000 H   0  0  0  0  0  0  0  0  0  0  0  0
    7.2185    1.3914    0.0000 H   0  0  0  0  0  0  0  0  0  0  0  0
    7.3829    0.6115    0.0000 H   0  0  0  0  0  0  0  0  0  0  0  0
    7.1236   -0.1820    0.0000 H   0  0  0  0  0  0  0  0  0  0  0  0
    6.5303   -0.7143    0.0000 H   0  0  0  0  0  0  0  0  0  0  0  0
    6.8540   -2.3718    0.0000 H   0  0  0  0  0  0  0  0  0  0  0  0
    7.4473   -1.8395    0.0000 H   0  0  0  0  0  0  0  0  0  0  0  0
    5.1068   -2.4696    0.0000 H   0  0  0  0  0  0  0  0  0  0  0  0
    5.8344   -1.3387    0.0000 H   0  0  0  0  0  0  0  0  0  0  0  0
    5.2411   -1.8710    0.0000 H   0  0  0  0  0  0  0  0  0  0  0  0
   10.2694    1.2198    0.0000 H   0  0  0  0  0  0  0  0  0  0  0  0
   10.1050    1.9997    0.0000 H   0  0  0  0  0  0  0  0  0  0  0  0
    8.0556    2.6696    0.0000 H   0  0  0  0  0  0  0  0  0  0  0  0
    7.4623    2.1373    0.0000 H   0  0  0  0  0  0  0  0  0  0  0  0
    5.7369   -5.1077    0.0000 H   0  0  0  0  0  0  0  0  0  0  0  0
    3.7320   -2.0936    0.0000 H   0  0  0  0  0  0  0  0  0  0  0  0
    3.7320   -5.3336    0.0000 H   0  0  0  0  0  0  0  0  0  0  0  0
    8.0908    3.8231    0.0000 H   0  0  0  0  0  0  0  0  0  0  0  0
   10.7578    2.9514    0.0000 H   0  0  0  0  0  0  0  0  0  0  0  0
    2.3291   -4.5236    0.0000 H   0  0  0  0  0  0  0  0  0  0  0  0
    8.5940    5.3629    0.0000 H   0  0  0  0  0  0  0  0  0  0  0  0
   11.2611    4.4912    0.0000 H   0  0  0  0  0  0  0  0  0  0  0  0
   10.1792    5.6970    0.0000 H   0  0  0  0  0  0  0  0  0  0  0  0
  1 23  1  0  0  0  0
  2 16  2  0  0  0  0
  3  6  1  0  0  0  0
  3  7  1  0  0  0  0
  3  8  1  0  0  0  0
  4 13  1  0  0  0  0
  4 14  1  0  0  0  0
  4 18  1  0  0  0  0
  5 16  1  0  0  0  0
  5 17  1  0  0  0  0
  5 45  1  0  0  0  0
  6  9  1  0  0  0  0
  6 28  1  0  0  0  0
  6 29  1  0  0  0  0
  7 13  1  0  0  0  0
  7 30  1  0  0  0  0
  7 31  1  0  0  0  0
  8 14  1  0  0  0  0
  8 32  1  0  0  0  0
  8 33  1  0  0  0  0
  9 10  1  0  0  0  0
  9 34  1  0  0  0  0
  9 35  1  0  0  0  0
 10 12  1  0  0  0  0
 10 36  1  0  0  0  0
 10 37  1  0  0  0  0
 11 12  1  0  0  0  0
 11 15  1  0  0  0  0
 11 16  1  0  0  0  0
 11 38  1  0  0  0  0
 12 39  1  0  0  0  0
 12 40  1  0  0  0  0
 13 41  1  0  0  0  0
 13 42  1  0  0  0  0
 14 43  1  0  0  0  0
 14 44  1  0  0  0  0
 15 17  2  0  0  0  0
 15 19  1  0  0  0  0
 17 20  1  0  0  0  0
 18 21  2  0  0  0  0
 18 22  1  0  0  0  0
 19 23  2  0  0  0  0
 19 46  1  0  0  0  0
 20 24  2  0  0  0  0
 20 47  1  0  0  0  0
 21 25  1  0  0  0  0
 21 48  1  0  0  0  0
 22 26  2  0  0  0  0
 22 49  1  0  0  0  0
 23 24  1  0  0  0  0
 24 50  1  0  0  0  0
 25 27  2  0  0  0  0
 25 51  1  0  0  0  0
 26 27  1  0  0  0  0
 26 52  1  0  0  0  0
 27 53  1  0  0  0  0
M  END
> <PUBCHEM_COMPOUND_CID>
24854106

> <PUBCHEM_COMPOUND_CANONICALIZED>
1

> <PUBCHEM_CACTVS_COMPLEXITY>
488

> <PUBCHEM_CACTVS_HBOND_ACCEPTOR>
4

> <PUBCHEM_CACTVS_HBOND_DONOR>
1

> <PUBCHEM_CACTVS_ROTATABLE_BOND>
6

> <PUBCHEM_CACTVS_SUBSKEYS>
AAADceB7IQAAAAAAAAAAAAAAAAAAAWAAAAA8YIAAAAAAAFgBQAAAHwAQAAAADQjBmAwwwIPAAACIAiVSUACCAAAhAgAIiAEIZIgIYDLAlZGUIAhglADIyAcciMCOgAAAAAACAAAAAAAAAAQAAAAAAAAAAA==

> <PUBCHEM_IUPAC_OPENEYE_NAME>
5-fluoro-3-[4-(4-phenylpiperazin-1-yl)butyl]indolin-2-one

> <PUBCHEM_IUPAC_CAS_NAME>
5-fluoro-3-[4-(4-phenyl-1-piperazinyl)butyl]-1,3-dihydroindol-2-one

> <PUBCHEM_IUPAC_NAME_MARKUP>
5-fluoro-3-[4-(4-phenylpiperazin-1-yl)butyl]-1,3-dihydroindol-2-one

> <PUBCHEM_IUPAC_NAME>
5-fluoro-3-[4-(4-phenylpiperazin-1-yl)butyl]-1,3-dihydroindol-2-one

> <PUBCHEM_IUPAC_SYSTEMATIC_NAME>
5-fluoranyl-3-[4-(4-phenylpiperazin-1-yl)butyl]-1,3-dihydroindol-2-one

> <PUBCHEM_IUPAC_TRADITIONAL_NAME>
5-fluoro-3-[4-(4-phenylpiperazino)butyl]oxindole

> <PUBCHEM_IUPAC_INCHI>
InChI=1S/C22H26FN3O/c23-17-9-10-21-20(16-17)19(22(27)24-21)8-4-5-11-25-12-14-26(15-13-25)18-6-2-1-3-7-18/h1-3,6-7,9-10,16,19H,4-5,8,11-15H2,(H,24,27)

> <PUBCHEM_IUPAC_INCHIKEY>
IBBIDLLHDNJIPV-UHFFFAOYSA-N

> <PUBCHEM_XLOGP3_AA>
3.6

> <PUBCHEM_EXACT_MASS>
367.20599062

> <PUBCHEM_MOLECULAR_FORMULA>
C22H26FN3O

> <PUBCHEM_MOLECULAR_WEIGHT>
367.5

> <PUBCHEM_OPENEYE_CAN_SMILES>
C1CN(CCN1CCCCC2C3=C(C=CC(=C3)F)NC2=O)C4=CC=CC=C4

> <PUBCHEM_OPENEYE_ISO_SMILES>
C1CN(CCN1CCCCC2C3=C(C=CC(=C3)F)NC2=O)C4=CC=CC=C4

> <PUBCHEM_CACTVS_TPSA>
35.6

> <PUBCHEM_MONOISOTOPIC_WEIGHT>
367.20599062

> <PUBCHEM_TOTAL_CHARGE>
0

> <PUBCHEM_HEAVY_ATOM_COUNT>
27

> <PUBCHEM_ATOM_DEF_STEREO_COUNT>
0

> <PUBCHEM_ATOM_UDEF_STEREO_COUNT>
1

> <PUBCHEM_BOND_DEF_STEREO_COUNT>
0

> <PUBCHEM_BOND_UDEF_STEREO_COUNT>
0

> <PUBCHEM_ISOTOPIC_ATOM_COUNT>
0

> <PUBCHEM_COMPONENT_COUNT>
1

> <PUBCHEM_CACTVS_TAUTO_COUNT>
-1

> <PUBCHEM_COORDINATE_TYPE>
1
5
255

> <PUBCHEM_BONDANNOTATIONS>
11  12  3
15  17  8
15  19  8
17  20  8
18  21  8
18  22  8
19  23  8
20  24  8
21  25  8
22  26  8
23  24  8
25  27  8
26  27  8

$$$$
