44304814
  -OEChem-09292322512D

 61 65  0     1  0  0  0  0  0999 V2000
   12.6917    3.9630    0.0000 Br  0  0  0  0  0  0  0  0  0  0  0  0
   10.0461    1.3697    0.0000 O   0  0  0  0  0  0  0  0  0  0  0  0
   12.6917   -0.0370    0.0000 O   0  0  0  0  0  0  0  0  0  0  0  0
    5.5963   -2.9337    0.0000 N   0  0  3  0  0  0  0  0  0  0  0  0
    8.4757   -1.2575    0.0000 N   0  0  0  0  0  0  0  0  0  0  0  0
   10.8551   -0.0316    0.0000 N   0  0  0  0  0  0  0  0  0  0  0  0
    7.0745   -2.2756    0.0000 C   0  0  2  0  0  0  0  0  0  0  0  0
    6.4053   -1.5325    0.0000 C   0  0  0  0  0  0  0  0  0  0  0  0
    6.5745   -3.1416    0.0000 C   0  0  0  0  0  0  0  0  0  0  0  0
    5.4918   -1.9392    0.0000 C   0  0  0  0  0  0  0  0  0  0  0  0
    8.0690   -2.1711    0.0000 C   0  0  0  0  0  0  0  0  0  0  0  0
    4.8532   -3.6029    0.0000 C   0  0  0  0  0  0  0  0  0  0  0  0
    3.9021   -3.2938    0.0000 C   0  0  0  0  0  0  0  0  0  0  0  0
    9.4702   -1.1530    0.0000 C   0  0  0  0  0  0  0  0  0  0  0  0
    3.1590   -3.9630    0.0000 C   0  0  0  0  0  0  0  0  0  0  0  0
    3.6942   -2.3157    0.0000 C   0  0  0  0  0  0  0  0  0  0  0  0
    9.8770   -0.2395    0.0000 C   0  0  0  0  0  0  0  0  0  0  0  0
    2.2079   -3.6540    0.0000 C   0  0  0  0  0  0  0  0  0  0  0  0
    2.7431   -2.0067    0.0000 C   0  0  0  0  0  0  0  0  0  0  0  0
    9.3770    0.6266    0.0000 C   0  0  0  0  0  0  0  0  0  0  0  0
    2.0000   -2.6758    0.0000 C   0  0  0  0  0  0  0  0  0  0  0  0
   10.9597    0.9630    0.0000 C   0  0  0  0  0  0  0  0  0  0  0  0
   11.8257    1.4630    0.0000 C   0  0  0  0  0  0  0  0  0  0  0  0
   12.6917    0.9630    0.0000 C   0  0  0  0  0  0  0  0  0  0  0  0
   13.5577    1.4630    0.0000 C   0  0  0  0  0  0  0  0  0  0  0  0
   11.8257    2.4630    0.0000 C   0  0  0  0  0  0  0  0  0  0  0  0
   13.5577    2.4630    0.0000 C   0  0  0  0  0  0  0  0  0  0  0  0
   12.6917    2.9630    0.0000 C   0  0  0  0  0  0  0  0  0  0  0  0
   14.4517    0.9283    0.0000 C   0  0  0  0  0  0  0  0  0  0  0  0
   14.4517    2.9976    0.0000 C   0  0  0  0  0  0  0  0  0  0  0  0
   15.3577    1.4422    0.0000 C   0  0  0  0  0  0  0  0  0  0  0  0
   15.3577    2.4838    0.0000 C   0  0  0  0  0  0  0  0  0  0  0  0
   13.5577   -0.5370    0.0000 C   0  0  0  0  0  0  0  0  0  0  0  0
    7.2966   -1.6968    0.0000 H   0  0  0  0  0  0  0  0  0  0  0  0
    6.9069   -1.1680    0.0000 H   0  0  0  0  0  0  0  0  0  0  0  0
    6.0953   -0.9955    0.0000 H   0  0  0  0  0  0  0  0  0  0  0  0
    6.3829   -3.7313    0.0000 H   0  0  0  0  0  0  0  0  0  0  0  0
    7.1409   -3.3938    0.0000 H   0  0  0  0  0  0  0  0  0  0  0  0
    5.3002   -1.3496    0.0000 H   0  0  0  0  0  0  0  0  0  0  0  0
    4.8853   -2.0681    0.0000 H   0  0  0  0  0  0  0  0  0  0  0  0
    8.0257   -2.7896    0.0000 H   0  0  0  0  0  0  0  0  0  0  0  0
    8.6706   -2.3211    0.0000 H   0  0  0  0  0  0  0  0  0  0  0  0
    4.5621   -4.1503    0.0000 H   0  0  0  0  0  0  0  0  0  0  0  0
    5.3417   -3.9846    0.0000 H   0  0  0  0  0  0  0  0  0  0  0  0
    8.1113   -0.7559    0.0000 H   0  0  0  0  0  0  0  0  0  0  0  0
    9.4270   -1.7715    0.0000 H   0  0  0  0  0  0  0  0  0  0  0  0
   10.0718   -1.3030    0.0000 H   0  0  0  0  0  0  0  0  0  0  0  0
    3.2879   -4.5694    0.0000 H   0  0  0  0  0  0  0  0  0  0  0  0
    4.1550   -1.9008    0.0000 H   0  0  0  0  0  0  0  0  0  0  0  0
    1.7472   -4.0688    0.0000 H   0  0  0  0  0  0  0  0  0  0  0  0
    2.6142   -1.4002    0.0000 H   0  0  0  0  0  0  0  0  0  0  0  0
    8.7604    0.6914    0.0000 H   0  0  0  0  0  0  0  0  0  0  0  0
    1.4103   -2.4842    0.0000 H   0  0  0  0  0  0  0  0  0  0  0  0
   11.2887    2.7730    0.0000 H   0  0  0  0  0  0  0  0  0  0  0  0
   14.4445    0.3084    0.0000 H   0  0  0  0  0  0  0  0  0  0  0  0
   14.4445    3.6176    0.0000 H   0  0  0  0  0  0  0  0  0  0  0  0
   15.8935    1.1301    0.0000 H   0  0  0  0  0  0  0  0  0  0  0  0
   15.8935    2.7958    0.0000 H   0  0  0  0  0  0  0  0  0  0  0  0
   13.2477   -1.0740    0.0000 H   0  0  0  0  0  0  0  0  0  0  0  0
   14.0947   -0.8470    0.0000 H   0  0  0  0  0  0  0  0  0  0  0  0
   13.8677   -0.0001    0.0000 H   0  0  0  0  0  0  0  0  0  0  0  0
  1 28  1  0  0  0  0
  2 20  1  0  0  0  0
  2 22  1  0  0  0  0
  3 24  1  0  0  0  0
  3 33  1  0  0  0  0
  4  9  1  0  0  0  0
  4 10  1  0  0  0  0
  4 12  1  0  0  0  0
  5 11  1  0  0  0  0
  5 14  1  0  0  0  0
  5 45  1  0  0  0  0
  6 17  1  0  0  0  0
  6 22  2  0  0  0  0
  7  8  1  0  0  0  0
  7  9  1  0  0  0  0
  7 11  1  1  0  0  0
  7 34  1  0  0  0  0
  8 10  1  0  0  0  0
  8 35  1  0  0  0  0
  8 36  1  0  0  0  0
  9 37  1  0  0  0  0
  9 38  1  0  0  0  0
 10 39  1  0  0  0  0
 10 40  1  0  0  0  0
 11 41  1  0  0  0  0
 11 42  1  0  0  0  0
 12 13  1  0  0  0  0
 12 43  1  0  0  0  0
 12 44  1  0  0  0  0
 13 15  2  0  0  0  0
 13 16  1  0  0  0  0
 14 17  1  0  0  0  0
 14 46  1  0  0  0  0
 14 47  1  0  0  0  0
 15 18  1  0  0  0  0
 15 48  1  0  0  0  0
 16 19  2  0  0  0  0
 16 49  1  0  0  0  0
 17 20  2  0  0  0  0
 18 21  2  0  0  0  0
 18 50  1  0  0  0  0
 19 21  1  0  0  0  0
 19 51  1  0  0  0  0
 20 52  1  0  0  0  0
 21 53  1  0  0  0  0
 22 23  1  0  0  0  0
 23 24  2  0  0  0  0
 23 26  1  0  0  0  0
 24 25  1  0  0  0  0
 25 27  1  0  0  0  0
 25 29  2  0  0  0  0
 26 28  2  0  0  0  0
 26 54  1  0  0  0  0
 27 28  1  0  0  0  0
 27 30  2  0  0  0  0
 29 31  1  0  0  0  0
 29 55  1  0  0  0  0
 30 32  1  0  0  0  0
 30 56  1  0  0  0  0
 31 32  2  0  0  0  0
 31 57  1  0  0  0  0
 32 58  1  0  0  0  0
 33 59  1  0  0  0  0
 33 60  1  0  0  0  0
 33 61  1  0  0  0  0
M  END
> <PUBCHEM_COMPOUND_CID>
44304814

> <PUBCHEM_COMPOUND_CANONICALIZED>
1

> <PUBCHEM_CACTVS_COMPLEXITY>
604

> <PUBCHEM_CACTVS_HBOND_ACCEPTOR>
5

> <PUBCHEM_CACTVS_HBOND_DONOR>
1

> <PUBCHEM_CACTVS_ROTATABLE_BOND>
8

> <PUBCHEM_CACTVS_SUBSKEYS>
AAADceB7MAAAEAAAAAAAAAAAAAAAAWLAAAAwYMAAAAAAAADB1AAAHgBQAAABrQzhngYyhtPIFECoAy1y1ASCiCAvYiQIiKG9LPgOZ76E9TufOWjn9BGYq5eYyPCOwBADEAAYgACAIAYgADEAAAAAAAAAAA==

> <PUBCHEM_IUPAC_OPENEYE_NAME>
1-[(3S)-1-benzylpyrrolidin-3-yl]-N-[[2-(4-bromo-1-methoxy-2-naphthyl)oxazol-4-yl]methyl]methanamine

> <PUBCHEM_IUPAC_CAS_NAME>
N-[[2-(4-bromo-1-methoxy-2-naphthalenyl)-4-oxazolyl]methyl]-1-[(3S)-1-(phenylmethyl)-3-pyrrolidinyl]methanamine

> <PUBCHEM_IUPAC_NAME_MARKUP>
1-[(3<I>S</I>)-1-benzylpyrrolidin-3-yl]-<I>N</I>-[[2-(4-bromo-1-methoxynaphthalen-2-yl)-1,3-oxazol-4-yl]methyl]methanamine

> <PUBCHEM_IUPAC_NAME>
1-[(3S)-1-benzylpyrrolidin-3-yl]-N-[[2-(4-bromo-1-methoxynaphthalen-2-yl)-1,3-oxazol-4-yl]methyl]methanamine

> <PUBCHEM_IUPAC_SYSTEMATIC_NAME>
N-[[2-(4-bromanyl-1-methoxy-naphthalen-2-yl)-1,3-oxazol-4-yl]methyl]-1-[(3S)-1-(phenylmethyl)pyrrolidin-3-yl]methanamine

> <PUBCHEM_IUPAC_TRADITIONAL_NAME>
[(3S)-1-benzylpyrrolidin-3-yl]methyl-[[2-(4-bromo-1-methoxy-2-naphthyl)oxazol-4-yl]methyl]amine

> <PUBCHEM_IUPAC_INCHI>
InChI=1S/C27H28BrN3O2/c1-32-26-23-10-6-5-9-22(23)25(28)13-24(26)27-30-21(18-33-27)15-29-14-20-11-12-31(17-20)16-19-7-3-2-4-8-19/h2-10,13,18,20,29H,11-12,14-17H2,1H3/t20-/m0/s1

> <PUBCHEM_IUPAC_INCHIKEY>
DRRIHRQXXFYPBU-FQEVSTJZSA-N

> <PUBCHEM_XLOGP3_AA>
5.2

> <PUBCHEM_EXACT_MASS>
505.13649

> <PUBCHEM_MOLECULAR_FORMULA>
C27H28BrN3O2

> <PUBCHEM_MOLECULAR_WEIGHT>
506.4

> <PUBCHEM_OPENEYE_CAN_SMILES>
COC1=C(C=C(C2=CC=CC=C21)Br)C3=NC(=CO3)CNCC4CCN(C4)CC5=CC=CC=C5

> <PUBCHEM_OPENEYE_ISO_SMILES>
COC1=C(C=C(C2=CC=CC=C21)Br)C3=NC(=CO3)CNC[C@@H]4CCN(C4)CC5=CC=CC=C5

> <PUBCHEM_CACTVS_TPSA>
50.5

> <PUBCHEM_MONOISOTOPIC_WEIGHT>
505.13649

> <PUBCHEM_TOTAL_CHARGE>
0

> <PUBCHEM_HEAVY_ATOM_COUNT>
33

> <PUBCHEM_ATOM_DEF_STEREO_COUNT>
1

> <PUBCHEM_ATOM_UDEF_STEREO_COUNT>
0

> <PUBCHEM_BOND_DEF_STEREO_COUNT>
0

> <PUBCHEM_BOND_UDEF_STEREO_COUNT>
0

> <PUBCHEM_ISOTOPIC_ATOM_COUNT>
0

> <PUBCHEM_COMPONENT_COUNT>
1

> <PUBCHEM_CACTVS_TAUTO_COUNT>
-1

> <PUBCHEM_COORDINATE_TYPE>
1
5
255

> <PUBCHEM_BONDANNOTATIONS>
13  15  8
13  16  8
15  18  8
16  19  8
17  20  8
18  21  8
19  21  8
2  20  8
2  22  8
23  24  8
23  26  8
24  25  8
25  27  8
25  29  8
26  28  8
27  28  8
27  30  8
29  31  8
30  32  8
31  32  8
6  17  8
6  22  8
7  11  5

$$$$
