121304449
  -OEChem-09292322372D

 60 64  0     1  0  0  0  0  0999 V2000
    4.1756    1.5102    0.0000 S   0  0  0  0  0  0  0  0  0  0  0  0
    9.8678   -6.8398    0.0000 F   0  0  0  0  0  0  0  0  0  0  0  0
    8.5018   -7.2059    0.0000 F   0  0  0  0  0  0  0  0  0  0  0  0
    9.5018   -5.4738    0.0000 F   0  0  0  0  0  0  0  0  0  0  0  0
    4.5377   -1.9350    0.0000 N   0  0  3  0  0  0  0  0  0  0  0  0
    3.8968    3.2702    0.0000 N   0  0  0  0  0  0  0  0  0  0  0  0
    2.5878    2.3192    0.0000 N   0  0  0  0  0  0  0  0  0  0  0  0
    2.2788    3.2702    0.0000 N   0  0  0  0  0  0  0  0  0  0  0  0
    2.5878    6.3968    0.0000 N   0  0  0  0  0  0  0  0  0  0  0  0
    3.5878    6.3968    0.0000 N   0  0  0  0  0  0  0  0  0  0  0  0
    5.0377   -3.4738    0.0000 C   0  0  2  0  0  0  0  0  0  0  0  0
    5.5377   -4.3398    0.0000 C   0  0  2  0  0  0  0  0  0  0  0  0
    4.5377   -4.3398    0.0000 C   0  0  0  0  0  0  0  0  0  0  0  0
    5.8467   -2.8860    0.0000 C   0  0  0  0  0  0  0  0  0  0  0  0
    4.2286   -2.8860    0.0000 C   0  0  0  0  0  0  0  0  0  0  0  0
    5.5377   -1.9350    0.0000 C   0  0  0  0  0  0  0  0  0  0  0  0
    6.4037   -4.8398    0.0000 C   0  0  0  0  0  0  0  0  0  0  0  0
    3.9499   -1.1260    0.0000 C   0  0  0  0  0  0  0  0  0  0  0  0
    6.4037   -5.8398    0.0000 C   0  0  0  0  0  0  0  0  0  0  0  0
    7.2697   -4.3398    0.0000 C   0  0  0  0  0  0  0  0  0  0  0  0
    4.3566   -0.2124    0.0000 C   0  0  0  0  0  0  0  0  0  0  0  0
    7.2697   -6.3398    0.0000 C   0  0  0  0  0  0  0  0  0  0  0  0
    8.1357   -4.8398    0.0000 C   0  0  0  0  0  0  0  0  0  0  0  0
    8.1357   -5.8398    0.0000 C   0  0  0  0  0  0  0  0  0  0  0  0
    3.7688    0.5966    0.0000 C   0  0  0  0  0  0  0  0  0  0  0  0
    9.0018   -6.3398    0.0000 C   0  0  0  0  0  0  0  0  0  0  0  0
    3.5878    2.3192    0.0000 C   0  0  0  0  0  0  0  0  0  0  0  0
    3.0878    3.8580    0.0000 C   0  0  0  0  0  0  0  0  0  0  0  0
    4.8479    3.5792    0.0000 C   0  0  0  0  0  0  0  0  0  0  0  0
    3.0878    4.8580    0.0000 C   0  0  0  0  0  0  0  0  0  0  0  0
    2.2788    5.4458    0.0000 C   0  0  0  0  0  0  0  0  0  0  0  0
    3.8968    5.4458    0.0000 C   0  0  0  0  0  0  0  0  0  0  0  0
    2.0000    7.2059    0.0000 C   0  0  0  0  0  0  0  0  0  0  0  0
    5.3772   -4.9387    0.0000 H   0  0  0  0  0  0  0  0  0  0  0  0
    3.9551   -4.1278    0.0000 H   0  0  0  0  0  0  0  0  0  0  0  0
    4.4300   -4.9504    0.0000 H   0  0  0  0  0  0  0  0  0  0  0  0
    6.1567   -3.4230    0.0000 H   0  0  0  0  0  0  0  0  0  0  0  0
    6.4131   -2.6338    0.0000 H   0  0  0  0  0  0  0  0  0  0  0  0
    3.6622   -2.6338    0.0000 H   0  0  0  0  0  0  0  0  0  0  0  0
    3.9186   -3.4230    0.0000 H   0  0  0  0  0  0  0  0  0  0  0  0
    6.1441   -1.8061    0.0000 H   0  0  0  0  0  0  0  0  0  0  0  0
    5.4729   -1.3184    0.0000 H   0  0  0  0  0  0  0  0  0  0  0  0
    3.4359   -0.7793    0.0000 H   0  0  0  0  0  0  0  0  0  0  0  0
    3.5192   -1.5720    0.0000 H   0  0  0  0  0  0  0  0  0  0  0  0
    5.8668   -6.1498    0.0000 H   0  0  0  0  0  0  0  0  0  0  0  0
    7.2697   -3.7198    0.0000 H   0  0  0  0  0  0  0  0  0  0  0  0
    4.8706   -0.5591    0.0000 H   0  0  0  0  0  0  0  0  0  0  0  0
    4.7873    0.2336    0.0000 H   0  0  0  0  0  0  0  0  0  0  0  0
    7.2697   -6.9598    0.0000 H   0  0  0  0  0  0  0  0  0  0  0  0
    8.6727   -4.5298    0.0000 H   0  0  0  0  0  0  0  0  0  0  0  0
    3.2548    0.9433    0.0000 H   0  0  0  0  0  0  0  0  0  0  0  0
    3.3382    0.1506    0.0000 H   0  0  0  0  0  0  0  0  0  0  0  0
    5.0395    2.9896    0.0000 H   0  0  0  0  0  0  0  0  0  0  0  0
    5.4375    3.7708    0.0000 H   0  0  0  0  0  0  0  0  0  0  0  0
    4.6563    4.1689    0.0000 H   0  0  0  0  0  0  0  0  0  0  0  0
    1.6891    5.2542    0.0000 H   0  0  0  0  0  0  0  0  0  0  0  0
    4.4865    5.2542    0.0000 H   0  0  0  0  0  0  0  0  0  0  0  0
    2.5016    7.5703    0.0000 H   0  0  0  0  0  0  0  0  0  0  0  0
    1.6356    7.7075    0.0000 H   0  0  0  0  0  0  0  0  0  0  0  0
    1.4984    6.8414    0.0000 H   0  0  0  0  0  0  0  0  0  0  0  0
  1 25  1  0  0  0  0
  1 27  1  0  0  0  0
  2 26  1  0  0  0  0
  3 26  1  0  0  0  0
  4 26  1  0  0  0  0
  5 15  1  0  0  0  0
  5 16  1  0  0  0  0
  5 18  1  0  0  0  0
  6 27  1  0  0  0  0
  6 28  1  0  0  0  0
  6 29  1  0  0  0  0
  7  8  1  0  0  0  0
  7 27  2  0  0  0  0
  8 28  2  0  0  0  0
  9 10  1  0  0  0  0
  9 31  1  0  0  0  0
  9 33  1  0  0  0  0
 10 32  2  0  0  0  0
 11 12  1  0  0  0  0
 11 13  1  6  0  0  0
 11 14  1  0  0  0  0
 11 15  1  0  0  0  0
 12 13  1  0  0  0  0
 12 17  1  1  0  0  0
 12 34  1  0  0  0  0
 13 35  1  0  0  0  0
 13 36  1  0  0  0  0
 14 16  1  0  0  0  0
 14 37  1  0  0  0  0
 14 38  1  0  0  0  0
 15 39  1  0  0  0  0
 15 40  1  0  0  0  0
 16 41  1  0  0  0  0
 16 42  1  0  0  0  0
 17 19  2  0  0  0  0
 17 20  1  0  0  0  0
 18 21  1  0  0  0  0
 18 43  1  0  0  0  0
 18 44  1  0  0  0  0
 19 22  1  0  0  0  0
 19 45  1  0  0  0  0
 20 23  2  0  0  0  0
 20 46  1  0  0  0  0
 21 25  1  0  0  0  0
 21 47  1  0  0  0  0
 21 48  1  0  0  0  0
 22 24  2  0  0  0  0
 22 49  1  0  0  0  0
 23 24  1  0  0  0  0
 23 50  1  0  0  0  0
 24 26  1  0  0  0  0
 25 51  1  0  0  0  0
 25 52  1  0  0  0  0
 28 30  1  0  0  0  0
 29 53  1  0  0  0  0
 29 54  1  0  0  0  0
 29 55  1  0  0  0  0
 30 31  2  0  0  0  0
 30 32  1  0  0  0  0
 31 56  1  0  0  0  0
 32 57  1  0  0  0  0
 33 58  1  0  0  0  0
 33 59  1  0  0  0  0
 33 60  1  0  0  0  0
M  END
> <PUBCHEM_COMPOUND_CID>
121304449

> <PUBCHEM_COMPOUND_CANONICALIZED>
1

> <PUBCHEM_CACTVS_COMPLEXITY>
675

> <PUBCHEM_CACTVS_HBOND_ACCEPTOR>
8

> <PUBCHEM_CACTVS_HBOND_DONOR>
0

> <PUBCHEM_CACTVS_ROTATABLE_BOND>
7

> <PUBCHEM_CACTVS_SUBSKEYS>
AAADceB7gYBAAAAAAAAAAAAAGAAAAWLFgAAwAAAAAAAAAAAB8AAAHQQIAAAADwDFWxS/kJcMEAiiAjJnZACS1AtxgLAd2CAoRJiIKKLg2VCEpAggiALIiAcQgMAPwAAAAAAAAACAAAAAAAAAAAAAAAAAAA==

> <PUBCHEM_IUPAC_OPENEYE_NAME>
(2R,3S)-5-[3-[[4-methyl-5-(1-methylpyrazol-4-yl)-1,2,4-triazol-3-yl]sulfanyl]propyl]-2-[4-(trifluoromethyl)phenyl]-5-azaspiro[2.4]heptane

> <PUBCHEM_IUPAC_CAS_NAME>
(2R,3S)-5-[3-[[4-methyl-5-(1-methyl-4-pyrazolyl)-1,2,4-triazol-3-yl]thio]propyl]-2-[4-(trifluoromethyl)phenyl]-5-azaspiro[2.4]heptane

> <PUBCHEM_IUPAC_NAME_MARKUP>
(2<I>R</I>,3<I>S</I>)-5-[3-[[4-methyl-5-(1-methylpyrazol-4-yl)-1,2,4-triazol-3-yl]sulfanyl]propyl]-2-[4-(trifluoromethyl)phenyl]-5-azaspiro[2.4]heptane

> <PUBCHEM_IUPAC_NAME>
(2R,3S)-5-[3-[[4-methyl-5-(1-methylpyrazol-4-yl)-1,2,4-triazol-3-yl]sulfanyl]propyl]-2-[4-(trifluoromethyl)phenyl]-5-azaspiro[2.4]heptane

> <PUBCHEM_IUPAC_SYSTEMATIC_NAME>
(2R,3S)-5-[3-[[4-methyl-5-(1-methylpyrazol-4-yl)-1,2,4-triazol-3-yl]sulfanyl]propyl]-2-[4-(trifluoromethyl)phenyl]-5-azaspiro[2.4]heptane

> <PUBCHEM_IUPAC_TRADITIONAL_NAME>
(2R,3S)-5-[3-[[4-methyl-5-(1-methylpyrazol-4-yl)-1,2,4-triazol-3-yl]thio]propyl]-2-[4-(trifluoromethyl)phenyl]-5-azaspiro[2.4]heptane

> <PUBCHEM_IUPAC_INCHI>
InChI=1S/C23H27F3N6S/c1-30-14-17(13-27-30)20-28-29-21(31(20)2)33-11-3-9-32-10-8-22(15-32)12-19(22)16-4-6-18(7-5-16)23(24,25)26/h4-7,13-14,19H,3,8-12,15H2,1-2H3/t19-,22+/m1/s1

> <PUBCHEM_IUPAC_INCHIKEY>
KIDLIVLNXRZSJP-KNQAVFIVSA-N

> <PUBCHEM_XLOGP3_AA>
3.6

> <PUBCHEM_EXACT_MASS>
476.19700055

> <PUBCHEM_MOLECULAR_FORMULA>
C23H27F3N6S

> <PUBCHEM_MOLECULAR_WEIGHT>
476.6

> <PUBCHEM_OPENEYE_CAN_SMILES>
CN1C=C(C=N1)C2=NN=C(N2C)SCCCN3CCC4(C3)CC4C5=CC=C(C=C5)C(F)(F)F

> <PUBCHEM_OPENEYE_ISO_SMILES>
CN1C=C(C=N1)C2=NN=C(N2C)SCCCN3CC[C@@]4(C3)C[C@@H]4C5=CC=C(C=C5)C(F)(F)F

> <PUBCHEM_CACTVS_TPSA>
77.1

> <PUBCHEM_MONOISOTOPIC_WEIGHT>
476.19700055

> <PUBCHEM_TOTAL_CHARGE>
0

> <PUBCHEM_HEAVY_ATOM_COUNT>
33

> <PUBCHEM_ATOM_DEF_STEREO_COUNT>
2

> <PUBCHEM_ATOM_UDEF_STEREO_COUNT>
0

> <PUBCHEM_BOND_DEF_STEREO_COUNT>
0

> <PUBCHEM_BOND_UDEF_STEREO_COUNT>
0

> <PUBCHEM_ISOTOPIC_ATOM_COUNT>
0

> <PUBCHEM_COMPONENT_COUNT>
1

> <PUBCHEM_CACTVS_TAUTO_COUNT>
-1

> <PUBCHEM_COORDINATE_TYPE>
1
5
255

> <PUBCHEM_BONDANNOTATIONS>
10  32  8
11  13  6
12  17  5
17  19  8
17  20  8
19  22  8
20  23  8
22  24  8
23  24  8
30  31  8
30  32  8
6  27  8
6  28  8
7  27  8
7  8  8
8  28  8
9  10  8
9  31  8

$$$$
