46231835
  -OEChem-09292322292D

 60 64  0     1  0  0  0  0  0999 V2000
    2.1374    3.2208    0.0000 Cl  0  0  0  0  0  0  0  0  0  0  0  0
    2.5932    1.2239    0.0000 O   0  0  0  0  0  0  0  0  0  0  0  0
    7.0983    3.3026    0.0000 N   0  0  3  0  0  0  0  0  0  0  0  0
    3.8028   -2.0919    0.0000 N   0  0  0  0  0  0  0  0  0  0  0  0
    6.8758    2.3277    0.0000 C   0  0  2  0  0  0  0  0  0  0  0  0
    5.9748    1.8938    0.0000 C   0  0  2  0  0  0  0  0  0  0  0  0
    7.7453    1.7543    0.0000 C   0  0  0  0  0  0  0  0  0  0  0  0
    5.8810    0.8564    0.0000 C   0  0  0  0  0  0  0  0  0  0  0  0
    7.6755    0.7150    0.0000 C   0  0  0  0  0  0  0  0  0  0  0  0
    5.0738    2.3277    0.0000 C   0  0  0  0  0  0  0  0  0  0  0  0
    6.7370    0.2630    0.0000 C   0  0  0  0  0  0  0  0  0  0  0  0
    6.4748    4.0844    0.0000 C   0  0  0  0  0  0  0  0  0  0  0  0
    4.8513    3.3026    0.0000 C   0  0  0  0  0  0  0  0  0  0  0  0
    5.4748    4.0844    0.0000 C   0  0  0  0  0  0  0  0  0  0  0  0
    4.8928    0.4084    0.0000 C   0  0  0  0  0  0  0  0  0  0  0  0
    4.7950   -0.6722    0.0000 C   0  0  0  0  0  0  0  0  0  0  0  0
    8.0732    3.5251    0.0000 C   0  0  0  0  0  0  0  0  0  0  0  0
    6.6643   -0.8195    0.0000 C   0  0  0  0  0  0  0  0  0  0  0  0
    4.3213    1.6075    0.0000 C   0  0  0  0  0  0  0  0  0  0  0  0
    3.8891   -1.0956    0.0000 C   0  0  0  0  0  0  0  0  0  0  0  0
    5.6868   -1.2903    0.0000 C   0  0  0  0  0  0  0  0  0  0  0  0
    3.8608    3.6250    0.0000 C   0  0  0  0  0  0  0  0  0  0  0  0
    2.8969   -2.5153    0.0000 C   0  0  0  0  0  0  0  0  0  0  0  0
    4.6225   -2.6647    0.0000 C   0  0  0  0  0  0  0  0  0  0  0  0
    2.8107   -3.5116    0.0000 C   0  0  0  0  0  0  0  0  0  0  0  0
    4.5363   -3.6610    0.0000 C   0  0  0  0  0  0  0  0  0  0  0  0
    3.6303   -4.0844    0.0000 C   0  0  0  0  0  0  0  0  0  0  0  0
    3.3236    1.9069    0.0000 C   0  0  0  0  0  0  0  0  0  0  0  0
    3.0918    2.9224    0.0000 C   0  0  0  0  0  0  0  0  0  0  0  0
    7.6646    2.6443    0.0000 H   0  0  0  0  0  0  0  0  0  0  0  0
    5.2354    1.4745    0.0000 H   0  0  0  0  0  0  0  0  0  0  0  0
    8.3477    1.6074    0.0000 H   0  0  0  0  0  0  0  0  0  0  0  0
    7.9931    2.3226    0.0000 H   0  0  0  0  0  0  0  0  0  0  0  0
    7.8450    0.1186    0.0000 H   0  0  0  0  0  0  0  0  0  0  0  0
    8.2921    0.7799    0.0000 H   0  0  0  0  0  0  0  0  0  0  0  0
    7.0334    4.3535    0.0000 H   0  0  0  0  0  0  0  0  0  0  0  0
    6.3368    4.6889    0.0000 H   0  0  0  0  0  0  0  0  0  0  0  0
    5.6128    4.6889    0.0000 H   0  0  0  0  0  0  0  0  0  0  0  0
    4.9162    4.3535    0.0000 H   0  0  0  0  0  0  0  0  0  0  0  0
    4.3873    0.7675    0.0000 H   0  0  0  0  0  0  0  0  0  0  0  0
    8.2112    2.9207    0.0000 H   0  0  0  0  0  0  0  0  0  0  0  0
    8.6777    3.6631    0.0000 H   0  0  0  0  0  0  0  0  0  0  0  0
    7.9352    4.1296    0.0000 H   0  0  0  0  0  0  0  0  0  0  0  0
    7.1779   -1.1668    0.0000 H   0  0  0  0  0  0  0  0  0  0  0  0
    4.4662    1.0047    0.0000 H   0  0  0  0  0  0  0  0  0  0  0  0
    3.7281   -0.4969    0.0000 H   0  0  0  0  0  0  0  0  0  0  0  0
    3.2715   -1.1502    0.0000 H   0  0  0  0  0  0  0  0  0  0  0  0
    5.6380   -1.9084    0.0000 H   0  0  0  0  0  0  0  0  0  0  0  0
    3.7298    4.2310    0.0000 H   0  0  0  0  0  0  0  0  0  0  0  0
    2.7359   -1.9166    0.0000 H   0  0  0  0  0  0  0  0  0  0  0  0
    2.2793   -2.5699    0.0000 H   0  0  0  0  0  0  0  0  0  0  0  0
    5.2215   -2.8247    0.0000 H   0  0  0  0  0  0  0  0  0  0  0  0
    4.8840   -2.1026    0.0000 H   0  0  0  0  0  0  0  0  0  0  0  0
    2.2116   -3.3517    0.0000 H   0  0  0  0  0  0  0  0  0  0  0  0
    2.5492   -4.0738    0.0000 H   0  0  0  0  0  0  0  0  0  0  0  0
    4.6973   -4.2598    0.0000 H   0  0  0  0  0  0  0  0  0  0  0  0
    5.1538   -3.6064    0.0000 H   0  0  0  0  0  0  0  0  0  0  0  0
    3.1923   -4.5232    0.0000 H   0  0  0  0  0  0  0  0  0  0  0  0
    3.9864   -4.5920    0.0000 H   0  0  0  0  0  0  0  0  0  0  0  0
    2.0000    1.4043    0.0000 H   0  0  0  0  0  0  0  0  0  0  0  0
  1 29  1  0  0  0  0
  2 28  1  0  0  0  0
  2 60  1  0  0  0  0
  3  5  1  0  0  0  0
  3 12  1  0  0  0  0
  3 17  1  0  0  0  0
  4 20  1  0  0  0  0
  4 23  1  0  0  0  0
  4 24  1  0  0  0  0
  5  6  1  0  0  0  0
  5  7  1  0  0  0  0
  5 30  1  6  0  0  0
  6  8  1  0  0  0  0
  6 10  1  0  0  0  0
  6 31  1  1  0  0  0
  7  9  1  0  0  0  0
  7 32  1  0  0  0  0
  7 33  1  0  0  0  0
  8 11  2  0  0  0  0
  8 15  1  0  0  0  0
  9 11  1  0  0  0  0
  9 34  1  0  0  0  0
  9 35  1  0  0  0  0
 10 13  1  0  0  0  0
 10 19  2  0  0  0  0
 11 18  1  0  0  0  0
 12 14  1  0  0  0  0
 12 36  1  0  0  0  0
 12 37  1  0  0  0  0
 13 14  1  0  0  0  0
 13 22  2  0  0  0  0
 14 38  1  0  0  0  0
 14 39  1  0  0  0  0
 15 16  2  0  0  0  0
 15 40  1  0  0  0  0
 16 20  1  0  0  0  0
 16 21  1  0  0  0  0
 17 41  1  0  0  0  0
 17 42  1  0  0  0  0
 17 43  1  0  0  0  0
 18 21  2  0  0  0  0
 18 44  1  0  0  0  0
 19 28  1  0  0  0  0
 19 45  1  0  0  0  0
 20 46  1  0  0  0  0
 20 47  1  0  0  0  0
 21 48  1  0  0  0  0
 22 29  1  0  0  0  0
 22 49  1  0  0  0  0
 23 25  1  0  0  0  0
 23 50  1  0  0  0  0
 23 51  1  0  0  0  0
 24 26  1  0  0  0  0
 24 52  1  0  0  0  0
 24 53  1  0  0  0  0
 25 27  1  0  0  0  0
 25 54  1  0  0  0  0
 25 55  1  0  0  0  0
 26 27  1  0  0  0  0
 26 56  1  0  0  0  0
 26 57  1  0  0  0  0
 27 58  1  0  0  0  0
 27 59  1  0  0  0  0
 28 29  2  0  0  0  0
M  END
> <PUBCHEM_COMPOUND_CID>
46231835

> <PUBCHEM_COMPOUND_CANONICALIZED>
1

> <PUBCHEM_CACTVS_COMPLEXITY>
553

> <PUBCHEM_CACTVS_HBOND_ACCEPTOR>
3

> <PUBCHEM_CACTVS_HBOND_DONOR>
1

> <PUBCHEM_CACTVS_ROTATABLE_BOND>
2

> <PUBCHEM_CACTVS_SUBSKEYS>
AAADceB7IAAEAAAAAAAAAAAAAAAAAAAAAAA8YMEABYAAAADBQAAAHgIACAAADS7BmCQyBoMAAgCAAiBCAACCAAAgJUAIiAAOD4gIJiKDkxOEcAhkwBGImAeQ0PMO5AADIAAQCADYAAbAACQQAAAAAAAAAA==

> <PUBCHEM_IUPAC_OPENEYE_NAME>
(6aS,13bR)-11-chloro-7-methyl-2-(1-piperidylmethyl)-5,6,6a,8,9,13b-hexahydronaphtho[1,2-a][3]benzazepin-12-ol

> <PUBCHEM_IUPAC_CAS_NAME>
(6aS,13bR)-11-chloro-7-methyl-2-(1-piperidinylmethyl)-5,6,6a,8,9,13b-hexahydronaphtho[1,2-a][3]benzazepin-12-ol

> <PUBCHEM_IUPAC_NAME_MARKUP>
(6<I>a</I><I>S</I>,13<I>b</I><I>R</I>)-11-chloro-7-methyl-2-(piperidin-1-ylmethyl)-5,6,6<I>a</I>,8,9,13<I>b</I>-hexahydronaphtho[1,2-a][3]benzazepin-12-ol

> <PUBCHEM_IUPAC_NAME>
(6aS,13bR)-11-chloro-7-methyl-2-(piperidin-1-ylmethyl)-5,6,6a,8,9,13b-hexahydronaphtho[1,2-a][3]benzazepin-12-ol

> <PUBCHEM_IUPAC_SYSTEMATIC_NAME>
(6aS,13bR)-11-chloranyl-7-methyl-2-(piperidin-1-ylmethyl)-5,6,6a,8,9,13b-hexahydronaphtho[1,2-a][3]benzazepin-12-ol

> <PUBCHEM_IUPAC_TRADITIONAL_NAME>
(6aS,13bR)-11-chloro-7-methyl-2-(piperidinomethyl)-5,6,6a,8,9,13b-hexahydronaphtho[1,2-a][3]benzazepin-12-ol

> <PUBCHEM_IUPAC_INCHI>
InChI=1S/C25H31ClN2O/c1-27-12-9-19-14-22(26)24(29)15-21(19)25-20-13-17(16-28-10-3-2-4-11-28)5-6-18(20)7-8-23(25)27/h5-6,13-15,23,25,29H,2-4,7-12,16H2,1H3/t23-,25+/m0/s1

> <PUBCHEM_IUPAC_INCHIKEY>
PSRASBIMNWAVNL-UKILVPOCSA-N

> <PUBCHEM_XLOGP3_AA>
5.1

> <PUBCHEM_EXACT_MASS>
410.2124913

> <PUBCHEM_MOLECULAR_FORMULA>
C25H31ClN2O

> <PUBCHEM_MOLECULAR_WEIGHT>
411.0

> <PUBCHEM_OPENEYE_CAN_SMILES>
CN1CCC2=CC(=C(C=C2C3C1CCC4=C3C=C(C=C4)CN5CCCCC5)O)Cl

> <PUBCHEM_OPENEYE_ISO_SMILES>
CN1CCC2=CC(=C(C=C2[C@@H]3[C@@H]1CCC4=C3C=C(C=C4)CN5CCCCC5)O)Cl

> <PUBCHEM_CACTVS_TPSA>
26.7

> <PUBCHEM_MONOISOTOPIC_WEIGHT>
410.2124913

> <PUBCHEM_TOTAL_CHARGE>
0

> <PUBCHEM_HEAVY_ATOM_COUNT>
29

> <PUBCHEM_ATOM_DEF_STEREO_COUNT>
2

> <PUBCHEM_ATOM_UDEF_STEREO_COUNT>
0

> <PUBCHEM_BOND_DEF_STEREO_COUNT>
0

> <PUBCHEM_BOND_UDEF_STEREO_COUNT>
0

> <PUBCHEM_ISOTOPIC_ATOM_COUNT>
0

> <PUBCHEM_COMPONENT_COUNT>
1

> <PUBCHEM_CACTVS_TAUTO_COUNT>
-1

> <PUBCHEM_COORDINATE_TYPE>
1
5
255

> <PUBCHEM_BONDANNOTATIONS>
10  13  8
10  19  8
11  18  8
13  22  8
15  16  8
16  21  8
18  21  8
19  28  8
22  29  8
28  29  8
5  30  6
6  31  5
8  11  8
8  15  8

$$$$
