44336352
  -OEChem-09292322152D

 62 65  0     0  0  0  0  0  0999 V2000
    2.8924   -5.4306    0.0000 Cl  0  0  0  0  0  0  0  0  0  0  0  0
    5.9674    1.8868    0.0000 O   0  0  0  0  0  0  0  0  0  0  0  0
    4.6783    3.0435    0.0000 N   0  0  0  0  0  0  0  0  0  0  0  0
    4.6318    0.3982    0.0000 N   0  0  0  0  0  0  0  0  0  0  0  0
    5.2531   -1.5028    0.0000 N   0  0  0  0  0  0  0  0  0  0  0  0
    5.2619    3.8483    0.0000 C   0  0  0  0  0  0  0  0  0  0  0  0
    4.6783    4.6530    0.0000 C   0  0  0  0  0  0  0  0  0  0  0  0
    6.0709    3.2605    0.0000 C   0  0  0  0  0  0  0  0  0  0  0  0
    6.0709    4.4360    0.0000 C   0  0  0  0  0  0  0  0  0  0  0  0
    3.7320    4.3483    0.0000 C   0  0  0  0  0  0  0  0  0  0  0  0
    3.7320    3.3483    0.0000 C   0  0  0  0  0  0  0  0  0  0  0  0
    4.9889    2.0930    0.0000 C   0  0  0  0  0  0  0  0  0  0  0  0
    4.3211    1.3487    0.0000 C   0  0  0  0  0  0  0  0  0  0  0  0
    6.9844    3.6672    0.0000 C   0  0  0  0  0  0  0  0  0  0  0  0
    5.9664    5.4306    0.0000 C   0  0  0  0  0  0  0  0  0  0  0  0
    3.9639   -0.3461    0.0000 C   0  0  0  0  0  0  0  0  0  0  0  0
    5.6103    0.1920    0.0000 C   0  0  0  0  0  0  0  0  0  0  0  0
    2.8660    4.8483    0.0000 C   0  0  0  0  0  0  0  0  0  0  0  0
    2.8660    2.8483    0.0000 C   0  0  0  0  0  0  0  0  0  0  0  0
    4.2746   -1.2966    0.0000 C   0  0  0  0  0  0  0  0  0  0  0  0
    5.9209   -0.7585    0.0000 C   0  0  0  0  0  0  0  0  0  0  0  0
    2.0000    4.3483    0.0000 C   0  0  0  0  0  0  0  0  0  0  0  0
    2.0000    3.3483    0.0000 C   0  0  0  0  0  0  0  0  0  0  0  0
    5.5637   -2.4534    0.0000 C   0  0  0  0  0  0  0  0  0  0  0  0
    4.8959   -3.1977    0.0000 C   0  0  0  0  0  0  0  0  0  0  0  0
    5.2066   -4.1482    0.0000 C   0  0  0  0  0  0  0  0  0  0  0  0
    3.9174   -2.9914    0.0000 C   0  0  0  0  0  0  0  0  0  0  0  0
    4.5387   -4.8925    0.0000 C   0  0  0  0  0  0  0  0  0  0  0  0
    3.2496   -3.7358    0.0000 C   0  0  0  0  0  0  0  0  0  0  0  0
    3.5602   -4.6863    0.0000 C   0  0  0  0  0  0  0  0  0  0  0  0
    5.2156    4.9622    0.0000 H   0  0  0  0  0  0  0  0  0  0  0  0
    4.4272    5.2199    0.0000 H   0  0  0  0  0  0  0  0  0  0  0  0
    5.6249    2.8298    0.0000 H   0  0  0  0  0  0  0  0  0  0  0  0
    6.4176    2.7465    0.0000 H   0  0  0  0  0  0  0  0  0  0  0  0
    6.3427    3.8788    0.0000 H   0  0  0  0  0  0  0  0  0  0  0  0
    6.6669    4.6070    0.0000 H   0  0  0  0  0  0  0  0  0  0  0  0
    3.9385    1.8366    0.0000 H   0  0  0  0  0  0  0  0  0  0  0  0
    3.7742    1.0567    0.0000 H   0  0  0  0  0  0  0  0  0  0  0  0
    7.2366    3.1008    0.0000 H   0  0  0  0  0  0  0  0  0  0  0  0
    7.5508    3.9194    0.0000 H   0  0  0  0  0  0  0  0  0  0  0  0
    6.7323    4.2336    0.0000 H   0  0  0  0  0  0  0  0  0  0  0  0
    6.5830    5.4954    0.0000 H   0  0  0  0  0  0  0  0  0  0  0  0
    5.9016    6.0472    0.0000 H   0  0  0  0  0  0  0  0  0  0  0  0
    5.3498    5.3658    0.0000 H   0  0  0  0  0  0  0  0  0  0  0  0
    3.5814    0.1418    0.0000 H   0  0  0  0  0  0  0  0  0  0  0  0
    3.4170   -0.6381    0.0000 H   0  0  0  0  0  0  0  0  0  0  0  0
    6.2241    0.2793    0.0000 H   0  0  0  0  0  0  0  0  0  0  0  0
    5.6308    0.8116    0.0000 H   0  0  0  0  0  0  0  0  0  0  0  0
    2.8660    5.4683    0.0000 H   0  0  0  0  0  0  0  0  0  0  0  0
    2.8660    2.2283    0.0000 H   0  0  0  0  0  0  0  0  0  0  0  0
    3.6608   -1.3840    0.0000 H   0  0  0  0  0  0  0  0  0  0  0  0
    4.2540   -1.9163    0.0000 H   0  0  0  0  0  0  0  0  0  0  0  0
    6.3035   -1.2464    0.0000 H   0  0  0  0  0  0  0  0  0  0  0  0
    6.4678   -0.4665    0.0000 H   0  0  0  0  0  0  0  0  0  0  0  0
    1.4631    4.6583    0.0000 H   0  0  0  0  0  0  0  0  0  0  0  0
    1.4631    3.0383    0.0000 H   0  0  0  0  0  0  0  0  0  0  0  0
    5.9463   -2.9413    0.0000 H   0  0  0  0  0  0  0  0  0  0  0  0
    6.1107   -2.1614    0.0000 H   0  0  0  0  0  0  0  0  0  0  0  0
    5.8132   -4.2760    0.0000 H   0  0  0  0  0  0  0  0  0  0  0  0
    3.7248   -2.4021    0.0000 H   0  0  0  0  0  0  0  0  0  0  0  0
    4.7313   -5.4818    0.0000 H   0  0  0  0  0  0  0  0  0  0  0  0
    2.6429   -3.6079    0.0000 H   0  0  0  0  0  0  0  0  0  0  0  0
  1 30  1  0  0  0  0
  2 12  2  0  0  0  0
  3  6  1  0  0  0  0
  3 11  1  0  0  0  0
  3 12  1  0  0  0  0
  4 13  1  0  0  0  0
  4 16  1  0  0  0  0
  4 17  1  0  0  0  0
  5 20  1  0  0  0  0
  5 21  1  0  0  0  0
  5 24  1  0  0  0  0
  6  7  1  0  0  0  0
  6  8  1  0  0  0  0
  6  9  1  0  0  0  0
  7 10  1  0  0  0  0
  7 31  1  0  0  0  0
  7 32  1  0  0  0  0
  8 14  1  0  0  0  0
  8 33  1  0  0  0  0
  8 34  1  0  0  0  0
  9 15  1  0  0  0  0
  9 35  1  0  0  0  0
  9 36  1  0  0  0  0
 10 11  1  0  0  0  0
 10 18  2  0  0  0  0
 11 19  2  0  0  0  0
 12 13  1  0  0  0  0
 13 37  1  0  0  0  0
 13 38  1  0  0  0  0
 14 39  1  0  0  0  0
 14 40  1  0  0  0  0
 14 41  1  0  0  0  0
 15 42  1  0  0  0  0
 15 43  1  0  0  0  0
 15 44  1  0  0  0  0
 16 20  1  0  0  0  0
 16 45  1  0  0  0  0
 16 46  1  0  0  0  0
 17 21  1  0  0  0  0
 17 47  1  0  0  0  0
 17 48  1  0  0  0  0
 18 22  1  0  0  0  0
 18 49  1  0  0  0  0
 19 23  1  0  0  0  0
 19 50  1  0  0  0  0
 20 51  1  0  0  0  0
 20 52  1  0  0  0  0
 21 53  1  0  0  0  0
 21 54  1  0  0  0  0
 22 23  2  0  0  0  0
 22 55  1  0  0  0  0
 23 56  1  0  0  0  0
 24 25  1  0  0  0  0
 24 57  1  0  0  0  0
 24 58  1  0  0  0  0
 25 26  2  0  0  0  0
 25 27  1  0  0  0  0
 26 28  1  0  0  0  0
 26 59  1  0  0  0  0
 27 29  2  0  0  0  0
 27 60  1  0  0  0  0
 28 30  2  0  0  0  0
 28 61  1  0  0  0  0
 29 30  1  0  0  0  0
 29 62  1  0  0  0  0
M  END
> <PUBCHEM_COMPOUND_CID>
44336352

> <PUBCHEM_COMPOUND_CANONICALIZED>
1

> <PUBCHEM_CACTVS_COMPLEXITY>
565

> <PUBCHEM_CACTVS_HBOND_ACCEPTOR>
3

> <PUBCHEM_CACTVS_HBOND_DONOR>
0

> <PUBCHEM_CACTVS_ROTATABLE_BOND>
6

> <PUBCHEM_CACTVS_SUBSKEYS>
AAADcfB7IAAEAAAAAAAAAAAAAAAAAWAAAAA8YIAAAAAAAFgBQAAAHgIAAAAADIrBmCQywIMAAACIAiVSUACCAAAhBwAIiACIZogIYCLBk7GUIAhghADIyAcQgMAOBAAAAAACAAAIAAAAAAQAAAAAAAAAAA==

> <PUBCHEM_IUPAC_OPENEYE_NAME>
2-[4-[(4-chlorophenyl)methyl]piperazin-1-yl]-1-(2,2-diethylindolin-1-yl)ethanone

> <PUBCHEM_IUPAC_CAS_NAME>
2-[4-[(4-chlorophenyl)methyl]-1-piperazinyl]-1-(2,2-diethyl-3H-indol-1-yl)ethanone

> <PUBCHEM_IUPAC_NAME_MARKUP>
2-[4-[(4-chlorophenyl)methyl]piperazin-1-yl]-1-(2,2-diethyl-3<I>H</I>-indol-1-yl)ethanone

> <PUBCHEM_IUPAC_NAME>
2-[4-[(4-chlorophenyl)methyl]piperazin-1-yl]-1-(2,2-diethyl-3H-indol-1-yl)ethanone

> <PUBCHEM_IUPAC_SYSTEMATIC_NAME>
2-[4-[(4-chlorophenyl)methyl]piperazin-1-yl]-1-(2,2-diethyl-3H-indol-1-yl)ethanone

> <PUBCHEM_IUPAC_TRADITIONAL_NAME>
2-[4-(4-chlorobenzyl)piperazino]-1-(2,2-diethylindolin-1-yl)ethanone

> <PUBCHEM_IUPAC_INCHI>
InChI=1S/C25H32ClN3O/c1-3-25(4-2)17-21-7-5-6-8-23(21)29(25)24(30)19-28-15-13-27(14-16-28)18-20-9-11-22(26)12-10-20/h5-12H,3-4,13-19H2,1-2H3

> <PUBCHEM_IUPAC_INCHIKEY>
WEWHUBNHAHEDPL-UHFFFAOYSA-N

> <PUBCHEM_XLOGP3_AA>
5

> <PUBCHEM_EXACT_MASS>
425.2233903

> <PUBCHEM_MOLECULAR_FORMULA>
C25H32ClN3O

> <PUBCHEM_MOLECULAR_WEIGHT>
426.0

> <PUBCHEM_OPENEYE_CAN_SMILES>
CCC1(CC2=CC=CC=C2N1C(=O)CN3CCN(CC3)CC4=CC=C(C=C4)Cl)CC

> <PUBCHEM_OPENEYE_ISO_SMILES>
CCC1(CC2=CC=CC=C2N1C(=O)CN3CCN(CC3)CC4=CC=C(C=C4)Cl)CC

> <PUBCHEM_CACTVS_TPSA>
26.8

> <PUBCHEM_MONOISOTOPIC_WEIGHT>
425.2233903

> <PUBCHEM_TOTAL_CHARGE>
0

> <PUBCHEM_HEAVY_ATOM_COUNT>
30

> <PUBCHEM_ATOM_DEF_STEREO_COUNT>
0

> <PUBCHEM_ATOM_UDEF_STEREO_COUNT>
0

> <PUBCHEM_BOND_DEF_STEREO_COUNT>
0

> <PUBCHEM_BOND_UDEF_STEREO_COUNT>
0

> <PUBCHEM_ISOTOPIC_ATOM_COUNT>
0

> <PUBCHEM_COMPONENT_COUNT>
1

> <PUBCHEM_CACTVS_TAUTO_COUNT>
-1

> <PUBCHEM_COORDINATE_TYPE>
1
5
255

> <PUBCHEM_BONDANNOTATIONS>
10  11  8
10  18  8
11  19  8
18  22  8
19  23  8
22  23  8
25  26  8
25  27  8
26  28  8
27  29  8
28  30  8
29  30  8

$$$$
