45264574
  -OEChem-09292322202D

 36 36  0     1  0  0  0  0  0999 V2000
    2.3739    0.0000    0.0000 Cl  0  0  0  0  0  0  0  0  0  0  0  0
    3.5401    7.0711    0.0000 O   0  0  0  0  0  0  0  0  0  0  0  0
    5.4369    5.3110    0.0000 O   0  0  0  0  0  0  0  0  0  0  0  0
    1.2039    6.1711    0.0000 N   0  0  0  0  0  0  0  0  0  0  0  0
    3.8492    6.1200    0.0000 C   0  0  3  0  0  0  0  0  0  0  0  0
    2.8981    5.8110    0.0000 C   0  0  0  0  0  0  0  0  0  0  0  0
    2.1550    6.4801    0.0000 C   0  0  0  0  0  0  0  0  0  0  0  0
    3.8492    5.1200    0.0000 C   0  0  0  0  0  0  0  0  0  0  0  0
    4.8492    6.1200    0.0000 C   0  0  0  0  0  0  0  0  0  0  0  0
    5.1582    7.0711    0.0000 C   0  0  0  0  0  0  0  0  0  0  0  0
    4.3492    7.6588    0.0000 C   0  0  0  0  0  0  0  0  0  0  0  0
    4.7152    4.6200    0.0000 C   0  0  0  0  0  0  0  0  0  0  0  0
    2.9831    4.6200    0.0000 C   0  0  0  0  0  0  0  0  0  0  0  0
    0.4608    6.8402    0.0000 C   0  0  0  0  0  0  0  0  0  0  0  0
    0.9960    5.1930    0.0000 C   0  0  0  0  0  0  0  0  0  0  0  0
    4.7152    3.6200    0.0000 C   0  0  0  0  0  0  0  0  0  0  0  0
    2.9831    3.6200    0.0000 C   0  0  0  0  0  0  0  0  0  0  0  0
    3.8492    3.1200    0.0000 C   0  0  0  0  0  0  0  0  0  0  0  0
    2.4095    5.4293    0.0000 H   0  0  0  0  0  0  0  0  0  0  0  0
    3.1892    5.2636    0.0000 H   0  0  0  0  0  0  0  0  0  0  0  0
    2.6435    6.8618    0.0000 H   0  0  0  0  0  0  0  0  0  0  0  0
    1.8639    7.0275    0.0000 H   0  0  0  0  0  0  0  0  0  0  0  0
    5.7478    7.2626    0.0000 H   0  0  0  0  0  0  0  0  0  0  0  0
    4.3492    8.2788    0.0000 H   0  0  0  0  0  0  0  0  0  0  0  0
    5.2521    4.9300    0.0000 H   0  0  0  0  0  0  0  0  0  0  0  0
    2.4462    4.9300    0.0000 H   0  0  0  0  0  0  0  0  0  0  0  0
    0.8756    7.3010    0.0000 H   0  0  0  0  0  0  0  0  0  0  0  0
    0.0000    7.2551    0.0000 H   0  0  0  0  0  0  0  0  0  0  0  0
    0.0459    6.3795    0.0000 H   0  0  0  0  0  0  0  0  0  0  0  0
    0.3895    5.3219    0.0000 H   0  0  0  0  0  0  0  0  0  0  0  0
    0.8671    4.5865    0.0000 H   0  0  0  0  0  0  0  0  0  0  0  0
    1.6024    5.0640    0.0000 H   0  0  0  0  0  0  0  0  0  0  0  0
    5.2521    3.3100    0.0000 H   0  0  0  0  0  0  0  0  0  0  0  0
    2.4462    3.3100    0.0000 H   0  0  0  0  0  0  0  0  0  0  0  0
    3.8492    2.5000    0.0000 H   0  0  0  0  0  0  0  0  0  0  0  0
    3.3739    0.0000    0.0000 H   0  0  0  0  0  0  0  0  0  0  0  0
  1 36  1  0  0  0  0
  2  5  1  0  0  0  0
  2 11  1  0  0  0  0
  3  9  2  0  0  0  0
  4  7  1  0  0  0  0
  4 14  1  0  0  0  0
  4 15  1  0  0  0  0
  5  6  1  0  0  0  0
  5  8  1  0  0  0  0
  5  9  1  0  0  0  0
  6  7  1  0  0  0  0
  6 19  1  0  0  0  0
  6 20  1  0  0  0  0
  7 21  1  0  0  0  0
  7 22  1  0  0  0  0
  8 12  2  0  0  0  0
  8 13  1  0  0  0  0
  9 10  1  0  0  0  0
 10 11  2  0  0  0  0
 10 23  1  0  0  0  0
 11 24  1  0  0  0  0
 12 16  1  0  0  0  0
 12 25  1  0  0  0  0
 13 17  2  0  0  0  0
 13 26  1  0  0  0  0
 14 27  1  0  0  0  0
 14 28  1  0  0  0  0
 14 29  1  0  0  0  0
 15 30  1  0  0  0  0
 15 31  1  0  0  0  0
 15 32  1  0  0  0  0
 16 18  2  0  0  0  0
 16 33  1  0  0  0  0
 17 18  1  0  0  0  0
 17 34  1  0  0  0  0
 18 35  1  0  0  0  0
M  END
> <PUBCHEM_COMPOUND_CID>
45264574

> <PUBCHEM_COMPOUND_CANONICALIZED>
1

> <PUBCHEM_CACTVS_COMPLEXITY>
305

> <PUBCHEM_CACTVS_HBOND_ACCEPTOR>
3

> <PUBCHEM_CACTVS_HBOND_DONOR>
1

> <PUBCHEM_CACTVS_ROTATABLE_BOND>
4

> <PUBCHEM_CACTVS_SUBSKEYS>
AAADceByMAAEAAAAAAAAAAAAAAAAAQAAAAAwAAAAAAAAAAABAAAAHgAAAAAADEThmAYyAIMABACIAqBSAAICCAAgIAAIiAFICMgIJjKAtRyEMAAmwAEIqIecyOCOgAAAAAAAAAAAAAAAAAAAAAAAAAAAAA==

> <PUBCHEM_IUPAC_OPENEYE_NAME>
2-[2-(dimethylamino)ethyl]-2-phenyl-furan-3-one;hydrochloride

> <PUBCHEM_IUPAC_CAS_NAME>
2-[2-(dimethylamino)ethyl]-2-phenyl-3-furanone;hydrochloride

> <PUBCHEM_IUPAC_NAME_MARKUP>
2-[2-(dimethylamino)ethyl]-2-phenylfuran-3-one;hydrochloride

> <PUBCHEM_IUPAC_NAME>
2-[2-(dimethylamino)ethyl]-2-phenylfuran-3-one;hydrochloride

> <PUBCHEM_IUPAC_SYSTEMATIC_NAME>
2-[2-(dimethylamino)ethyl]-2-phenyl-furan-3-one;hydrochloride

> <PUBCHEM_IUPAC_TRADITIONAL_NAME>
2-[2-(dimethylamino)ethyl]-2-phenyl-furan-3-one;hydrochloride

> <PUBCHEM_IUPAC_INCHI>
InChI=1S/C14H17NO2.ClH/c1-15(2)10-9-14(13(16)8-11-17-14)12-6-4-3-5-7-12;/h3-8,11H,9-10H2,1-2H3;1H

> <PUBCHEM_IUPAC_INCHIKEY>
ZYWYZKGAGFBZIZ-UHFFFAOYSA-N

> <PUBCHEM_EXACT_MASS>
267.1026065

> <PUBCHEM_MOLECULAR_FORMULA>
C14H18ClNO2

> <PUBCHEM_MOLECULAR_WEIGHT>
267.75

> <PUBCHEM_OPENEYE_CAN_SMILES>
CN(C)CCC1(C(=O)C=CO1)C2=CC=CC=C2.Cl

> <PUBCHEM_OPENEYE_ISO_SMILES>
CN(C)CCC1(C(=O)C=CO1)C2=CC=CC=C2.Cl

> <PUBCHEM_CACTVS_TPSA>
29.5

> <PUBCHEM_MONOISOTOPIC_WEIGHT>
267.1026065

> <PUBCHEM_TOTAL_CHARGE>
0

> <PUBCHEM_HEAVY_ATOM_COUNT>
18

> <PUBCHEM_ATOM_DEF_STEREO_COUNT>
0

> <PUBCHEM_ATOM_UDEF_STEREO_COUNT>
1

> <PUBCHEM_BOND_DEF_STEREO_COUNT>
0

> <PUBCHEM_BOND_UDEF_STEREO_COUNT>
0

> <PUBCHEM_ISOTOPIC_ATOM_COUNT>
0

> <PUBCHEM_COMPONENT_COUNT>
2

> <PUBCHEM_CACTVS_TAUTO_COUNT>
-1

> <PUBCHEM_COORDINATE_TYPE>
1
5
255

> <PUBCHEM_BONDANNOTATIONS>
12  16  8
13  17  8
16  18  8
17  18  8
5  6  3
8  12  8
8  13  8

$$$$
