136094867
  -OEChem-09292322112D

 58 63  0     1  0  0  0  0  0999 V2000
    2.0000   -3.3944    0.0000 Cl  0  0  0  0  0  0  0  0  0  0  0  0
    5.4271    1.9451    0.0000 N   0  0  0  0  0  0  0  0  0  0  0  0
    4.9036   -1.6299    0.0000 N   0  0  0  0  0  0  0  0  0  0  0  0
    6.3374   -2.5308    0.0000 N   0  0  0  0  0  0  0  0  0  0  0  0
    5.8374   -4.7215    0.0000 N   0  0  0  0  0  0  0  0  0  0  0  0
    7.4909   -5.0078    0.0000 N   0  0  0  0  0  0  0  0  0  0  0  0
    6.9525    0.6419    0.0000 C   0  0  3  0  0  0  0  0  0  0  0  0
    6.5988    1.5773    0.0000 C   0  0  3  0  0  0  0  0  0  0  0  0
    8.3854    1.0454    0.0000 C   0  0  0  0  0  0  0  0  0  0  0  0
    8.0317    1.9807    0.0000 C   0  0  0  0  0  0  0  0  0  0  0  0
    6.4664   -0.7737    0.0000 C   0  0  0  0  0  0  0  0  0  0  0  0
    5.1296    0.1378    0.0000 C   0  0  0  0  0  0  0  0  0  0  0  0
    5.4669   -0.8036    0.0000 C   0  0  0  0  0  0  0  0  0  0  0  0
    4.5156    2.3564    0.0000 C   0  0  0  0  0  0  0  0  0  0  0  0
    4.4161    3.3514    0.0000 C   0  0  0  0  0  0  0  0  0  0  0  0
    5.3374   -2.5308    0.0000 C   0  0  0  0  0  0  0  0  0  0  0  0
    3.5046    3.7627    0.0000 C   0  0  0  0  0  0  0  0  0  0  0  0
    5.2280    3.9352    0.0000 C   0  0  0  0  0  0  0  0  0  0  0  0
    4.7139   -3.3127    0.0000 C   0  0  0  0  0  0  0  0  0  0  0  0
    3.4050    4.7578    0.0000 C   0  0  0  0  0  0  0  0  0  0  0  0
    5.1285    4.9302    0.0000 C   0  0  0  0  0  0  0  0  0  0  0  0
    4.9364   -4.2876    0.0000 C   0  0  0  0  0  0  0  0  0  0  0  0
    4.2170    5.3415    0.0000 C   0  0  0  0  0  0  0  0  0  0  0  0
    6.9609   -3.3127    0.0000 C   0  0  0  0  0  0  0  0  0  0  0  0
    3.7234   -2.9903    0.0000 C   0  0  0  0  0  0  0  0  0  0  0  0
    6.7384   -4.2876    0.0000 C   0  0  0  0  0  0  0  0  0  0  0  0
    4.1839   -5.0078    0.0000 C   0  0  0  0  0  0  0  0  0  0  0  0
    2.9544   -3.6929    0.0000 C   0  0  0  0  0  0  0  0  0  0  0  0
    7.9514   -2.9904    0.0000 C   0  0  0  0  0  0  0  0  0  0  0  0
    3.1862   -4.7084    0.0000 C   0  0  0  0  0  0  0  0  0  0  0  0
    8.7204   -3.6929    0.0000 C   0  0  0  0  0  0  0  0  0  0  0  0
    8.4886   -4.7084    0.0000 C   0  0  0  0  0  0  0  0  0  0  0  0
    7.3784    0.1913    0.0000 H   0  0  0  0  0  0  0  0  0  0  0  0
    6.9095    1.0407    0.0000 H   0  0  0  0  0  0  0  0  0  0  0  0
    8.5707    0.4537    0.0000 H   0  0  0  0  0  0  0  0  0  0  0  0
    8.9714    1.2478    0.0000 H   0  0  0  0  0  0  0  0  0  0  0  0
    8.6177    2.1831    0.0000 H   0  0  0  0  0  0  0  0  0  0  0  0
    7.8464    2.5724    0.0000 H   0  0  0  0  0  0  0  0  0  0  0  0
    6.4105   -1.3912    0.0000 H   0  0  0  0  0  0  0  0  0  0  0  0
    7.0728   -0.9033    0.0000 H   0  0  0  0  0  0  0  0  0  0  0  0
    4.7636    0.6382    0.0000 H   0  0  0  0  0  0  0  0  0  0  0  0
    4.5819   -0.1528    0.0000 H   0  0  0  0  0  0  0  0  0  0  0  0
    4.8519   -0.7250    0.0000 H   0  0  0  0  0  0  0  0  0  0  0  0
    3.8974    2.4027    0.0000 H   0  0  0  0  0  0  0  0  0  0  0  0
    4.3626    1.7556    0.0000 H   0  0  0  0  0  0  0  0  0  0  0  0
    3.0012    3.4008    0.0000 H   0  0  0  0  0  0  0  0  0  0  0  0
    5.7932    3.6802    0.0000 H   0  0  0  0  0  0  0  0  0  0  0  0
    6.6064   -1.9722    0.0000 H   0  0  0  0  0  0  0  0  0  0  0  0
    2.8399    5.0127    0.0000 H   0  0  0  0  0  0  0  0  0  0  0  0
    5.6319    5.2921    0.0000 H   0  0  0  0  0  0  0  0  0  0  0  0
    4.1552    5.9584    0.0000 H   0  0  0  0  0  0  0  0  0  0  0  0
    3.5925   -2.3843    0.0000 H   0  0  0  0  0  0  0  0  0  0  0  0
    5.8374   -5.3415    0.0000 H   0  0  0  0  0  0  0  0  0  0  0  0
    4.3288   -5.6106    0.0000 H   0  0  0  0  0  0  0  0  0  0  0  0
    8.0824   -2.3843    0.0000 H   0  0  0  0  0  0  0  0  0  0  0  0
    2.7333   -5.1319    0.0000 H   0  0  0  0  0  0  0  0  0  0  0  0
    9.3122   -3.5079    0.0000 H   0  0  0  0  0  0  0  0  0  0  0  0
    8.9415   -5.1319    0.0000 H   0  0  0  0  0  0  0  0  0  0  0  0
  1 28  1  0  0  0  0
  2  7  1  0  0  0  0
  2  8  1  0  0  0  0
  2 14  1  0  0  0  0
  3 13  1  0  0  0  0
  3 16  2  0  0  0  0
  4 16  1  0  0  0  0
  4 24  1  0  0  0  0
  4 48  1  0  0  0  0
  5 22  1  0  0  0  0
  5 26  1  0  0  0  0
  5 53  1  0  0  0  0
  6 26  1  0  0  0  0
  6 32  2  0  0  0  0
  7  9  1  0  0  0  0
  7 11  1  0  0  0  0
  7 33  1  0  0  0  0
  8 10  1  0  0  0  0
  8 12  1  0  0  0  0
  8 34  1  0  0  0  0
  9 10  1  0  0  0  0
  9 35  1  0  0  0  0
  9 36  1  0  0  0  0
 10 37  1  0  0  0  0
 10 38  1  0  0  0  0
 11 13  1  0  0  0  0
 11 39  1  0  0  0  0
 11 40  1  0  0  0  0
 12 13  1  0  0  0  0
 12 41  1  0  0  0  0
 12 42  1  0  0  0  0
 13 43  1  0  0  0  0
 14 15  1  0  0  0  0
 14 44  1  0  0  0  0
 14 45  1  0  0  0  0
 15 17  2  0  0  0  0
 15 18  1  0  0  0  0
 16 19  1  0  0  0  0
 17 20  1  0  0  0  0
 17 46  1  0  0  0  0
 18 21  2  0  0  0  0
 18 47  1  0  0  0  0
 19 22  2  0  0  0  0
 19 25  1  0  0  0  0
 20 23  2  0  0  0  0
 20 49  1  0  0  0  0
 21 23  1  0  0  0  0
 21 50  1  0  0  0  0
 22 27  1  0  0  0  0
 23 51  1  0  0  0  0
 24 26  2  0  0  0  0
 24 29  1  0  0  0  0
 25 28  2  0  0  0  0
 25 52  1  0  0  0  0
 27 30  2  0  0  0  0
 27 54  1  0  0  0  0
 28 30  1  0  0  0  0
 29 31  2  0  0  0  0
 29 55  1  0  0  0  0
 30 56  1  0  0  0  0
 31 32  1  0  0  0  0
 31 57  1  0  0  0  0
 32 58  1  0  0  0  0
M  END
> <PUBCHEM_COMPOUND_CID>
136094867

> <PUBCHEM_COMPOUND_CANONICALIZED>
1

> <PUBCHEM_CACTVS_COMPLEXITY>
665

> <PUBCHEM_CACTVS_HBOND_ACCEPTOR>
4

> <PUBCHEM_CACTVS_HBOND_DONOR>
2

> <PUBCHEM_CACTVS_ROTATABLE_BOND>
3

> <PUBCHEM_CACTVS_SUBSKEYS>
AAADceB7gAAEAAAAAAAAAAAAAAAAAWAAAAA8eIEAB4gAAAAB0AAAHAIQAAAADCrBGiQ98JPIEACgAjZnZACCgCkxFyAJ2CA4dpiIYOLB25GUIAhokALIyCcQgAAOAABAIAACAAAAAIBAAAQAAAAAAAAAAA==

> <PUBCHEM_IUPAC_OPENEYE_NAME>
N-(8-benzyl-8-azabicyclo[3.2.1]octan-3-yl)-8-chloro-5,11-dihydropyrido[2,3-b][1,4]benzodiazepin-6-imine

> <PUBCHEM_IUPAC_CAS_NAME>
8-chloro-N-[8-(phenylmethyl)-8-azabicyclo[3.2.1]octan-3-yl]-5,11-dihydropyrido[2,3-b][1,4]benzodiazepin-6-imine

> <PUBCHEM_IUPAC_NAME_MARKUP>
<I>N</I>-(8-benzyl-8-azabicyclo[3.2.1]octan-3-yl)-8-chloro-5,11-dihydropyrido[2,3-b][1,4]benzodiazepin-6-imine

> <PUBCHEM_IUPAC_NAME>
N-(8-benzyl-8-azabicyclo[3.2.1]octan-3-yl)-8-chloro-5,11-dihydropyrido[2,3-b][1,4]benzodiazepin-6-imine

> <PUBCHEM_IUPAC_SYSTEMATIC_NAME>
8-chloranyl-N-[8-(phenylmethyl)-8-azabicyclo[3.2.1]octan-3-yl]-5,11-dihydropyrido[2,3-b][1,4]benzodiazepin-6-imine

> <PUBCHEM_IUPAC_TRADITIONAL_NAME>
(8-benzyl-8-azabicyclo[3.2.1]octan-3-yl)-(8-chloro-5,11-dihydropyrido[2,3-b][1,4]benzodiazepin-6-ylidene)amine

> <PUBCHEM_IUPAC_INCHI>
InChI=1S/C26H26ClN5/c27-18-8-11-23-22(13-18)25(31-24-7-4-12-28-26(24)30-23)29-19-14-20-9-10-21(15-19)32(20)16-17-5-2-1-3-6-17/h1-8,11-13,19-21H,9-10,14-16H2,(H,28,30)(H,29,31)

> <PUBCHEM_IUPAC_INCHIKEY>
JQCALUODVNXQRL-UHFFFAOYSA-N

> <PUBCHEM_XLOGP3_AA>
5.1

> <PUBCHEM_EXACT_MASS>
443.1876735

> <PUBCHEM_MOLECULAR_FORMULA>
C26H26ClN5

> <PUBCHEM_MOLECULAR_WEIGHT>
444.0

> <PUBCHEM_OPENEYE_CAN_SMILES>
C1CC2CC(CC1N2CC3=CC=CC=C3)N=C4C5=C(C=CC(=C5)Cl)NC6=C(N4)C=CC=N6

> <PUBCHEM_OPENEYE_ISO_SMILES>
C1CC2CC(CC1N2CC3=CC=CC=C3)N=C4C5=C(C=CC(=C5)Cl)NC6=C(N4)C=CC=N6

> <PUBCHEM_CACTVS_TPSA>
52.6

> <PUBCHEM_MONOISOTOPIC_WEIGHT>
443.1876735

> <PUBCHEM_TOTAL_CHARGE>
0

> <PUBCHEM_HEAVY_ATOM_COUNT>
32

> <PUBCHEM_ATOM_DEF_STEREO_COUNT>
0

> <PUBCHEM_ATOM_UDEF_STEREO_COUNT>
2

> <PUBCHEM_BOND_DEF_STEREO_COUNT>
0

> <PUBCHEM_BOND_UDEF_STEREO_COUNT>
0

> <PUBCHEM_ISOTOPIC_ATOM_COUNT>
0

> <PUBCHEM_COMPONENT_COUNT>
1

> <PUBCHEM_CACTVS_TAUTO_COUNT>
-1

> <PUBCHEM_COORDINATE_TYPE>
1
5
255

> <PUBCHEM_BONDANNOTATIONS>
15  17  8
15  18  8
17  20  8
18  21  8
19  22  8
19  25  8
20  23  8
21  23  8
22  27  8
24  26  8
24  29  8
25  28  8
27  30  8
28  30  8
29  31  8
31  32  8
6  26  8
6  32  8
7  9  3
8  10  3

$$$$
