45273522
  -OEChem-09292322282D

 47 50  0     1  0  0  0  0  0999 V2000
    7.5215    4.6487    0.0000 Cl  0  0  0  0  0  0  0  0  0  0  0  0
    5.9466    0.1249    0.0000 O   0  0  0  0  0  0  0  0  0  0  0  0
    3.7830   -1.8345    0.0000 N   0  0  0  0  0  0  0  0  0  0  0  0
    4.2829    0.7635    0.0000 N   0  0  0  0  0  0  0  0  0  0  0  0
    5.4854    1.8462    0.0000 N   0  0  0  0  0  0  0  0  0  0  0  0
    3.3052   -3.7831    0.0000 C   0  0  1  0  0  0  0  0  0  0  0  0
    3.0463   -2.8172    0.0000 C   0  0  2  0  0  0  0  0  0  0  0  0
    1.9062   -4.2919    0.0000 C   0  0  0  0  0  0  0  0  0  0  0  0
    1.6474   -3.3260    0.0000 C   0  0  0  0  0  0  0  0  0  0  0  0
    4.5262   -4.6487    0.0000 C   0  0  0  0  0  0  0  0  0  0  0  0
    5.0796   -3.1283    0.0000 C   0  0  0  0  0  0  0  0  0  0  0  0
    5.3552   -4.0895    0.0000 C   0  0  0  0  0  0  0  0  0  0  0  0
    4.2829   -0.9685    0.0000 C   0  0  0  0  0  0  0  0  0  0  0  0
    3.7830   -0.1025    0.0000 C   0  0  0  0  0  0  0  0  0  0  0  0
    3.8762    1.6771    0.0000 C   0  0  0  0  0  0  0  0  0  0  0  0
    4.6194    2.3462    0.0000 C   0  0  0  0  0  0  0  0  0  0  0  0
    5.2775    0.8681    0.0000 C   0  0  0  0  0  0  0  0  0  0  0  0
    6.3989    2.2529    0.0000 C   0  0  0  0  0  0  0  0  0  0  0  0
    6.5034    3.2475    0.0000 C   0  0  0  0  0  0  0  0  0  0  0  0
    7.2079    1.6652    0.0000 C   0  0  0  0  0  0  0  0  0  0  0  0
    7.4170    3.6542    0.0000 C   0  0  0  0  0  0  0  0  0  0  0  0
    8.1215    2.0719    0.0000 C   0  0  0  0  0  0  0  0  0  0  0  0
    8.2260    3.0664    0.0000 C   0  0  0  0  0  0  0  0  0  0  0  0
    3.5252   -4.6041    0.0000 H   0  0  0  0  0  0  0  0  0  0  0  0
    2.8263   -1.9961    0.0000 H   0  0  0  0  0  0  0  0  0  0  0  0
    2.1011   -4.8804    0.0000 H   0  0  0  0  0  0  0  0  0  0  0  0
    1.3122   -4.4697    0.0000 H   0  0  0  0  0  0  0  0  0  0  0  0
    1.0534   -3.5037    0.0000 H   0  0  0  0  0  0  0  0  0  0  0  0
    1.4525   -2.7374    0.0000 H   0  0  0  0  0  0  0  0  0  0  0  0
    4.9320   -5.1174    0.0000 H   0  0  0  0  0  0  0  0  0  0  0  0
    4.1095   -5.1079    0.0000 H   0  0  0  0  0  0  0  0  0  0  0  0
    5.0846   -2.5083    0.0000 H   0  0  0  0  0  0  0  0  0  0  0  0
    5.6939   -3.0445    0.0000 H   0  0  0  0  0  0  0  0  0  0  0  0
    5.9301   -3.8573    0.0000 H   0  0  0  0  0  0  0  0  0  0  0  0
    5.6463   -4.6370    0.0000 H   0  0  0  0  0  0  0  0  0  0  0  0
    4.7579   -0.5700    0.0000 H   0  0  0  0  0  0  0  0  0  0  0  0
    4.7579   -1.3670    0.0000 H   0  0  0  0  0  0  0  0  0  0  0  0
    3.3080   -0.5010    0.0000 H   0  0  0  0  0  0  0  0  0  0  0  0
    3.3080    0.2960    0.0000 H   0  0  0  0  0  0  0  0  0  0  0  0
    3.3393    1.3671    0.0000 H   0  0  0  0  0  0  0  0  0  0  0  0
    3.5118    2.1787    0.0000 H   0  0  0  0  0  0  0  0  0  0  0  0
    4.1586    2.7611    0.0000 H   0  0  0  0  0  0  0  0  0  0  0  0
    4.9838    2.8478    0.0000 H   0  0  0  0  0  0  0  0  0  0  0  0
    6.0019    3.6119    0.0000 H   0  0  0  0  0  0  0  0  0  0  0  0
    7.1431    1.0486    0.0000 H   0  0  0  0  0  0  0  0  0  0  0  0
    8.6231    1.7075    0.0000 H   0  0  0  0  0  0  0  0  0  0  0  0
    8.7924    3.3186    0.0000 H   0  0  0  0  0  0  0  0  0  0  0  0
  1 21  1  0  0  0  0
  2 17  2  0  0  0  0
  3  6  1  0  0  0  0
  3  7  1  0  0  0  0
  3 13  1  0  0  0  0
  4 14  1  0  0  0  0
  4 15  1  0  0  0  0
  4 17  1  0  0  0  0
  5 16  1  0  0  0  0
  5 17  1  0  0  0  0
  5 18  1  0  0  0  0
  6  8  1  0  0  0  0
  6 10  1  0  0  0  0
  6 24  1  1  0  0  0
  7  9  1  0  0  0  0
  7 11  1  0  0  0  0
  7 25  1  6  0  0  0
  8  9  1  0  0  0  0
  8 26  1  0  0  0  0
  8 27  1  0  0  0  0
  9 28  1  0  0  0  0
  9 29  1  0  0  0  0
 10 12  1  0  0  0  0
 10 30  1  0  0  0  0
 10 31  1  0  0  0  0
 11 12  1  0  0  0  0
 11 32  1  0  0  0  0
 11 33  1  0  0  0  0
 12 34  1  0  0  0  0
 12 35  1  0  0  0  0
 13 14  1  0  0  0  0
 13 36  1  0  0  0  0
 13 37  1  0  0  0  0
 14 38  1  0  0  0  0
 14 39  1  0  0  0  0
 15 16  1  0  0  0  0
 15 40  1  0  0  0  0
 15 41  1  0  0  0  0
 16 42  1  0  0  0  0
 16 43  1  0  0  0  0
 18 19  2  0  0  0  0
 18 20  1  0  0  0  0
 19 21  1  0  0  0  0
 19 44  1  0  0  0  0
 20 22  2  0  0  0  0
 20 45  1  0  0  0  0
 21 23  2  0  0  0  0
 22 23  1  0  0  0  0
 22 46  1  0  0  0  0
 23 47  1  0  0  0  0
M  END
> <PUBCHEM_COMPOUND_CID>
45273522

> <PUBCHEM_COMPOUND_CANONICALIZED>
1

> <PUBCHEM_CACTVS_COMPLEXITY>
434

> <PUBCHEM_CACTVS_HBOND_ACCEPTOR>
2

> <PUBCHEM_CACTVS_HBOND_DONOR>
0

> <PUBCHEM_CACTVS_ROTATABLE_BOND>
4

> <PUBCHEM_CACTVS_SUBSKEYS>
AAADceB7IAAEAAAAAAAAAAAAAAAAAWLAAAA8QAAABgAAAAABAAAAHgIAAAAACCrBECQxwIMAAACIACRCUACCAAAhBwAIiAAIZoiIYCLBk5GUIAhohgLIyCcQgAAAAAAAAAIAAAAAAAAABAAAAAAAAAAAAA==

> <PUBCHEM_IUPAC_OPENEYE_NAME>
1-[2-[(1R,5S)-8-azabicyclo[3.2.1]octan-8-yl]ethyl]-3-(3-chlorophenyl)imidazolidin-2-one

> <PUBCHEM_IUPAC_CAS_NAME>
1-[2-[(1R,5S)-8-azabicyclo[3.2.1]octan-8-yl]ethyl]-3-(3-chlorophenyl)-2-imidazolidinone

> <PUBCHEM_IUPAC_NAME_MARKUP>
1-[2-[(1<I>R</I>,5<I>S</I>)-8-azabicyclo[3.2.1]octan-8-yl]ethyl]-3-(3-chlorophenyl)imidazolidin-2-one

> <PUBCHEM_IUPAC_NAME>
1-[2-[(1R,5S)-8-azabicyclo[3.2.1]octan-8-yl]ethyl]-3-(3-chlorophenyl)imidazolidin-2-one

> <PUBCHEM_IUPAC_SYSTEMATIC_NAME>
1-[2-[(1R,5S)-8-azabicyclo[3.2.1]octan-8-yl]ethyl]-3-(3-chlorophenyl)imidazolidin-2-one

> <PUBCHEM_IUPAC_TRADITIONAL_NAME>
1-[2-[(1R,5S)-8-azabicyclo[3.2.1]octan-8-yl]ethyl]-3-(3-chlorophenyl)-2-imidazolidinone

> <PUBCHEM_IUPAC_INCHI>
InChI=1S/C18H24ClN3O/c19-14-3-1-6-17(13-14)22-12-10-20(18(22)23)9-11-21-15-4-2-5-16(21)8-7-15/h1,3,6,13,15-16H,2,4-5,7-12H2/t15-,16+

> <PUBCHEM_IUPAC_INCHIKEY>
VXTVAYBBRGJBTM-IYBDPMFKSA-N

> <PUBCHEM_XLOGP3_AA>
3.2

> <PUBCHEM_EXACT_MASS>
333.1607901

> <PUBCHEM_MOLECULAR_FORMULA>
C18H24ClN3O

> <PUBCHEM_MOLECULAR_WEIGHT>
333.9

> <PUBCHEM_OPENEYE_CAN_SMILES>
C1CC2CCC(C1)N2CCN3CCN(C3=O)C4=CC(=CC=C4)Cl

> <PUBCHEM_OPENEYE_ISO_SMILES>
C1C[C@@H]2CC[C@H](C1)N2CCN3CCN(C3=O)C4=CC(=CC=C4)Cl

> <PUBCHEM_CACTVS_TPSA>
26.8

> <PUBCHEM_MONOISOTOPIC_WEIGHT>
333.1607901

> <PUBCHEM_TOTAL_CHARGE>
0

> <PUBCHEM_HEAVY_ATOM_COUNT>
23

> <PUBCHEM_ATOM_DEF_STEREO_COUNT>
2

> <PUBCHEM_ATOM_UDEF_STEREO_COUNT>
0

> <PUBCHEM_BOND_DEF_STEREO_COUNT>
0

> <PUBCHEM_BOND_UDEF_STEREO_COUNT>
0

> <PUBCHEM_ISOTOPIC_ATOM_COUNT>
0

> <PUBCHEM_COMPONENT_COUNT>
1

> <PUBCHEM_CACTVS_TAUTO_COUNT>
-1

> <PUBCHEM_COORDINATE_TYPE>
1
5
255

> <PUBCHEM_BONDANNOTATIONS>
18  19  8
18  20  8
19  21  8
20  22  8
21  23  8
22  23  8
6  24  5
7  25  6

$$$$
