118714497
  -OEChem-09292322352D

 61 63  0     0  0  0  0  0  0999 V2000
   11.1972    5.6550    0.0000 F   0  0  0  0  0  0  0  0  0  0  0  0
   12.1972    4.6550    0.0000 F   0  0  0  0  0  0  0  0  0  0  0  0
   10.1972    4.6550    0.0000 F   0  0  0  0  0  0  0  0  0  0  0  0
    4.2690   -4.3450    0.0000 O   0  0  0  0  0  0  0  0  0  0  0  0
    7.7331    0.6550    0.0000 N   0  0  0  0  0  0  0  0  0  0  0  0
    3.4030   -2.8450    0.0000 N   0  0  0  0  0  0  0  0  0  0  0  0
    9.4651    1.6550    0.0000 N   0  0  0  0  0  0  0  0  0  0  0  0
    2.5369   -5.3450    0.0000 N   0  0  0  0  0  0  0  0  0  0  0  0
   13.7953    1.1550    0.0000 N   0  0  0  0  0  0  0  0  0  0  0  0
    6.0010   -1.3450    0.0000 C   0  0  0  0  0  0  0  0  0  0  0  0
    6.0010   -2.3450    0.0000 C   0  0  0  0  0  0  0  0  0  0  0  0
    5.1350   -0.8450    0.0000 C   0  0  0  0  0  0  0  0  0  0  0  0
    4.2690   -2.3450    0.0000 C   0  0  0  0  0  0  0  0  0  0  0  0
    5.1350   -2.8450    0.0000 C   0  0  0  0  0  0  0  0  0  0  0  0
    4.2690   -1.3450    0.0000 C   0  0  0  0  0  0  0  0  0  0  0  0
    6.8671   -0.8450    0.0000 C   0  0  0  0  0  0  0  0  0  0  0  0
    6.8671    0.1550    0.0000 C   0  0  0  0  0  0  0  0  0  0  0  0
    7.7331    1.6550    0.0000 C   0  0  0  0  0  0  0  0  0  0  0  0
    8.5991    0.1550    0.0000 C   0  0  0  0  0  0  0  0  0  0  0  0
    8.5991    2.1550    0.0000 C   0  0  0  0  0  0  0  0  0  0  0  0
    9.4651    0.6550    0.0000 C   0  0  0  0  0  0  0  0  0  0  0  0
    3.4030   -3.8450    0.0000 C   0  0  0  0  0  0  0  0  0  0  0  0
   10.3312    2.1550    0.0000 C   0  0  0  0  0  0  0  0  0  0  0  0
    2.5369   -4.3450    0.0000 C   0  0  0  0  0  0  0  0  0  0  0  0
   10.3312    3.1550    0.0000 C   0  0  0  0  0  0  0  0  0  0  0  0
   11.1972    1.6550    0.0000 C   0  0  0  0  0  0  0  0  0  0  0  0
   11.1972    3.6550    0.0000 C   0  0  0  0  0  0  0  0  0  0  0  0
   12.0632    2.1550    0.0000 C   0  0  0  0  0  0  0  0  0  0  0  0
   12.0632    3.1550    0.0000 C   0  0  0  0  0  0  0  0  0  0  0  0
   11.1972    4.6550    0.0000 C   0  0  0  0  0  0  0  0  0  0  0  0
   12.9292    1.6550    0.0000 C   0  0  0  0  0  0  0  0  0  0  0  0
    6.5380   -1.6550    0.0000 H   0  0  0  0  0  0  0  0  0  0  0  0
    6.2131   -2.9276    0.0000 H   0  0  0  0  0  0  0  0  0  0  0  0
    6.6116   -2.2373    0.0000 H   0  0  0  0  0  0  0  0  0  0  0  0
    5.5335   -0.3701    0.0000 H   0  0  0  0  0  0  0  0  0  0  0  0
    4.7365   -0.3701    0.0000 H   0  0  0  0  0  0  0  0  0  0  0  0
    4.2690   -2.9650    0.0000 H   0  0  0  0  0  0  0  0  0  0  0  0
    4.7365   -3.3200    0.0000 H   0  0  0  0  0  0  0  0  0  0  0  0
    5.5335   -3.3200    0.0000 H   0  0  0  0  0  0  0  0  0  0  0  0
    4.0569   -0.7624    0.0000 H   0  0  0  0  0  0  0  0  0  0  0  0
    3.6584   -1.4527    0.0000 H   0  0  0  0  0  0  0  0  0  0  0  0
    7.0791   -1.4276    0.0000 H   0  0  0  0  0  0  0  0  0  0  0  0
    7.4776   -0.7373    0.0000 H   0  0  0  0  0  0  0  0  0  0  0  0
    6.6550    0.7376    0.0000 H   0  0  0  0  0  0  0  0  0  0  0  0
    6.2565    0.0473    0.0000 H   0  0  0  0  0  0  0  0  0  0  0  0
    7.5210    2.2376    0.0000 H   0  0  0  0  0  0  0  0  0  0  0  0
    7.1225    1.5473    0.0000 H   0  0  0  0  0  0  0  0  0  0  0  0
    8.2006   -0.3199    0.0000 H   0  0  0  0  0  0  0  0  0  0  0  0
    8.9976   -0.3199    0.0000 H   0  0  0  0  0  0  0  0  0  0  0  0
    2.8660   -2.5350    0.0000 H   0  0  0  0  0  0  0  0  0  0  0  0
    8.9976    2.6300    0.0000 H   0  0  0  0  0  0  0  0  0  0  0  0
    8.2006    2.6300    0.0000 H   0  0  0  0  0  0  0  0  0  0  0  0
    9.6772    0.0724    0.0000 H   0  0  0  0  0  0  0  0  0  0  0  0
   10.0757    0.7627    0.0000 H   0  0  0  0  0  0  0  0  0  0  0  0
    2.3249   -3.7624    0.0000 H   0  0  0  0  0  0  0  0  0  0  0  0
    1.9264   -4.4527    0.0000 H   0  0  0  0  0  0  0  0  0  0  0  0
    9.7942    3.4650    0.0000 H   0  0  0  0  0  0  0  0  0  0  0  0
   11.1972    1.0350    0.0000 H   0  0  0  0  0  0  0  0  0  0  0  0
   12.6002    3.4650    0.0000 H   0  0  0  0  0  0  0  0  0  0  0  0
    2.0000   -5.6550    0.0000 H   0  0  0  0  0  0  0  0  0  0  0  0
    3.0739   -5.6550    0.0000 H   0  0  0  0  0  0  0  0  0  0  0  0
  1 30  1  0  0  0  0
  2 30  1  0  0  0  0
  3 30  1  0  0  0  0
  4 22  2  0  0  0  0
  5 17  1  0  0  0  0
  5 18  1  0  0  0  0
  5 19  1  0  0  0  0
  6 13  1  0  0  0  0
  6 22  1  0  0  0  0
  6 50  1  0  0  0  0
  7 20  1  0  0  0  0
  7 21  1  0  0  0  0
  7 23  1  0  0  0  0
  8 24  1  0  0  0  0
  8 60  1  0  0  0  0
  8 61  1  0  0  0  0
  9 31  3  0  0  0  0
 10 11  1  0  0  0  0
 10 12  1  0  0  0  0
 10 16  1  0  0  0  0
 10 32  1  0  0  0  0
 11 14  1  0  0  0  0
 11 33  1  0  0  0  0
 11 34  1  0  0  0  0
 12 15  1  0  0  0  0
 12 35  1  0  0  0  0
 12 36  1  0  0  0  0
 13 14  1  0  0  0  0
 13 15  1  0  0  0  0
 13 37  1  0  0  0  0
 14 38  1  0  0  0  0
 14 39  1  0  0  0  0
 15 40  1  0  0  0  0
 15 41  1  0  0  0  0
 16 17  1  0  0  0  0
 16 42  1  0  0  0  0
 16 43  1  0  0  0  0
 17 44  1  0  0  0  0
 17 45  1  0  0  0  0
 18 20  1  0  0  0  0
 18 46  1  0  0  0  0
 18 47  1  0  0  0  0
 19 21  1  0  0  0  0
 19 48  1  0  0  0  0
 19 49  1  0  0  0  0
 20 51  1  0  0  0  0
 20 52  1  0  0  0  0
 21 53  1  0  0  0  0
 21 54  1  0  0  0  0
 22 24  1  0  0  0  0
 23 25  1  0  0  0  0
 23 26  2  0  0  0  0
 24 55  1  0  0  0  0
 24 56  1  0  0  0  0
 25 27  2  0  0  0  0
 25 57  1  0  0  0  0
 26 28  1  0  0  0  0
 26 58  1  0  0  0  0
 27 29  1  0  0  0  0
 27 30  1  0  0  0  0
 28 29  2  0  0  0  0
 28 31  1  0  0  0  0
 29 59  1  0  0  0  0
M  END
> <PUBCHEM_COMPOUND_CID>
118714497

> <PUBCHEM_COMPOUND_CANONICALIZED>
1

> <PUBCHEM_CACTVS_COMPLEXITY>
633

> <PUBCHEM_CACTVS_HBOND_ACCEPTOR>
8

> <PUBCHEM_CACTVS_HBOND_DONOR>
2

> <PUBCHEM_CACTVS_ROTATABLE_BOND>
6

> <PUBCHEM_CACTVS_SUBSKEYS>
AAADceB7oYAAAAAAAAAAAAAAAAAAAAAAAAA8YIAAAAAAAAABAAAAHwAQAAAADSjBmBQwwIPAAACYBiVSUACiAAAhAgAAiICIZIgI4CLAkZGUIAhglgDIyA8QgMAOAAACQAAAAAAQAASAAAAAAAAAAAAAAA==

> <PUBCHEM_IUPAC_OPENEYE_NAME>
2-amino-N-[4-[2-[4-[3-cyano-5-(trifluoromethyl)phenyl]piperazin-1-yl]ethyl]cyclohexyl]acetamide

> <PUBCHEM_IUPAC_CAS_NAME>
2-amino-N-[4-[2-[4-[3-cyano-5-(trifluoromethyl)phenyl]-1-piperazinyl]ethyl]cyclohexyl]acetamide

> <PUBCHEM_IUPAC_NAME_MARKUP>
2-amino-<I>N</I>-[4-[2-[4-[3-cyano-5-(trifluoromethyl)phenyl]piperazin-1-yl]ethyl]cyclohexyl]acetamide

> <PUBCHEM_IUPAC_NAME>
2-amino-N-[4-[2-[4-[3-cyano-5-(trifluoromethyl)phenyl]piperazin-1-yl]ethyl]cyclohexyl]acetamide

> <PUBCHEM_IUPAC_SYSTEMATIC_NAME>
2-azanyl-N-[4-[2-[4-[3-cyano-5-(trifluoromethyl)phenyl]piperazin-1-yl]ethyl]cyclohexyl]ethanamide

> <PUBCHEM_IUPAC_TRADITIONAL_NAME>
2-amino-N-[4-[2-[4-[3-cyano-5-(trifluoromethyl)phenyl]piperazino]ethyl]cyclohexyl]acetamide

> <PUBCHEM_IUPAC_INCHI>
InChI=1S/C22H30F3N5O/c23-22(24,25)18-11-17(14-26)12-20(13-18)30-9-7-29(8-10-30)6-5-16-1-3-19(4-2-16)28-21(31)15-27/h11-13,16,19H,1-10,15,27H2,(H,28,31)

> <PUBCHEM_IUPAC_INCHIKEY>
BRSSDADOMRUGSY-UHFFFAOYSA-N

> <PUBCHEM_XLOGP3_AA>
2.7

> <PUBCHEM_EXACT_MASS>
437.24024508

> <PUBCHEM_MOLECULAR_FORMULA>
C22H30F3N5O

> <PUBCHEM_MOLECULAR_WEIGHT>
437.5

> <PUBCHEM_OPENEYE_CAN_SMILES>
C1CC(CCC1CCN2CCN(CC2)C3=CC(=CC(=C3)C(F)(F)F)C#N)NC(=O)CN

> <PUBCHEM_OPENEYE_ISO_SMILES>
C1CC(CCC1CCN2CCN(CC2)C3=CC(=CC(=C3)C(F)(F)F)C#N)NC(=O)CN

> <PUBCHEM_CACTVS_TPSA>
85.4

> <PUBCHEM_MONOISOTOPIC_WEIGHT>
437.24024508

> <PUBCHEM_TOTAL_CHARGE>
0

> <PUBCHEM_HEAVY_ATOM_COUNT>
31

> <PUBCHEM_ATOM_DEF_STEREO_COUNT>
0

> <PUBCHEM_ATOM_UDEF_STEREO_COUNT>
0

> <PUBCHEM_BOND_DEF_STEREO_COUNT>
0

> <PUBCHEM_BOND_UDEF_STEREO_COUNT>
0

> <PUBCHEM_ISOTOPIC_ATOM_COUNT>
0

> <PUBCHEM_COMPONENT_COUNT>
1

> <PUBCHEM_CACTVS_TAUTO_COUNT>
-1

> <PUBCHEM_COORDINATE_TYPE>
1
5
255

> <PUBCHEM_BONDANNOTATIONS>
23  25  8
23  26  8
25  27  8
26  28  8
27  29  8
28  29  8

$$$$
