197033
  -OEChem-09292322292D

 49 52  0     1  0  0  0  0  0999 V2000
    4.8717   -1.3197    0.0000 N   0  0  0  0  0  0  0  0  0  0  0  0
    7.0772   -3.4346    0.0000 N   0  0  3  0  0  0  0  0  0  0  0  0
    6.6038    2.6803    0.0000 N   0  0  0  0  0  0  0  0  0  0  0  0
    5.6808   -1.9075    0.0000 C   0  0  0  0  0  0  0  0  0  0  0  0
    5.3717   -2.8586    0.0000 C   0  0  0  0  0  0  0  0  0  0  0  0
    6.6962   -1.6752    0.0000 C   0  0  0  0  0  0  0  0  0  0  0  0
    6.0567   -3.6433    0.0000 C   0  0  0  0  0  0  0  0  0  0  0  0
    4.3717   -2.8586    0.0000 C   0  0  0  0  0  0  0  0  0  0  0  0
    7.3991   -2.4439    0.0000 C   0  0  0  0  0  0  0  0  0  0  0  0
    4.0627   -1.9075    0.0000 C   0  0  0  0  0  0  0  0  0  0  0  0
    4.8717   -0.3197    0.0000 C   0  0  0  0  0  0  0  0  0  0  0  0
    3.6868   -3.6433    0.0000 C   0  0  0  0  0  0  0  0  0  0  0  0
    3.0473   -1.6752    0.0000 C   0  0  0  0  0  0  0  0  0  0  0  0
    5.7378    0.1803    0.0000 C   0  0  0  0  0  0  0  0  0  0  0  0
    7.7435   -4.1803    0.0000 C   0  0  0  0  0  0  0  0  0  0  0  0
    2.6663   -3.4346    0.0000 C   0  0  0  0  0  0  0  0  0  0  0  0
    2.3444   -2.4439    0.0000 C   0  0  0  0  0  0  0  0  0  0  0  0
    5.7378    1.1803    0.0000 C   0  0  0  0  0  0  0  0  0  0  0  0
    2.0000   -4.1803    0.0000 C   0  0  0  0  0  0  0  0  0  0  0  0
    4.8717    1.6803    0.0000 C   0  0  0  0  0  0  0  0  0  0  0  0
    6.6038    1.6803    0.0000 C   0  0  0  0  0  0  0  0  0  0  0  0
    4.8717    2.6803    0.0000 C   0  0  0  0  0  0  0  0  0  0  0  0
    5.7378    3.1803    0.0000 C   0  0  0  0  0  0  0  0  0  0  0  0
    5.7378    4.1803    0.0000 C   0  0  0  0  0  0  0  0  0  0  0  0
    7.2186   -1.3413    0.0000 H   0  0  0  0  0  0  0  0  0  0  0  0
    6.4565   -1.1034    0.0000 H   0  0  0  0  0  0  0  0  0  0  0  0
    5.5267   -3.9650    0.0000 H   0  0  0  0  0  0  0  0  0  0  0  0
    6.2830   -4.2205    0.0000 H   0  0  0  0  0  0  0  0  0  0  0  0
    7.9473   -2.7336    0.0000 H   0  0  0  0  0  0  0  0  0  0  0  0
    7.7783   -1.9534    0.0000 H   0  0  0  0  0  0  0  0  0  0  0  0
    4.6597    0.2629    0.0000 H   0  0  0  0  0  0  0  0  0  0  0  0
    4.2612   -0.4274    0.0000 H   0  0  0  0  0  0  0  0  0  0  0  0
    3.8852   -4.2307    0.0000 H   0  0  0  0  0  0  0  0  0  0  0  0
    2.8626   -1.0834    0.0000 H   0  0  0  0  0  0  0  0  0  0  0  0
    5.9498   -0.4023    0.0000 H   0  0  0  0  0  0  0  0  0  0  0  0
    6.3484    0.2880    0.0000 H   0  0  0  0  0  0  0  0  0  0  0  0
    7.2811   -4.5934    0.0000 H   0  0  0  0  0  0  0  0  0  0  0  0
    8.1566   -4.6426    0.0000 H   0  0  0  0  0  0  0  0  0  0  0  0
    8.2058   -3.7672    0.0000 H   0  0  0  0  0  0  0  0  0  0  0  0
    1.7384   -2.3127    0.0000 H   0  0  0  0  0  0  0  0  0  0  0  0
    1.5376   -3.7672    0.0000 H   0  0  0  0  0  0  0  0  0  0  0  0
    1.5869   -4.6426    0.0000 H   0  0  0  0  0  0  0  0  0  0  0  0
    2.4623   -4.5934    0.0000 H   0  0  0  0  0  0  0  0  0  0  0  0
    4.3348    1.3703    0.0000 H   0  0  0  0  0  0  0  0  0  0  0  0
    7.1407    1.3703    0.0000 H   0  0  0  0  0  0  0  0  0  0  0  0
    4.3348    2.9903    0.0000 H   0  0  0  0  0  0  0  0  0  0  0  0
    6.3578    4.1803    0.0000 H   0  0  0  0  0  0  0  0  0  0  0  0
    5.7378    4.8003    0.0000 H   0  0  0  0  0  0  0  0  0  0  0  0
    5.1178    4.1803    0.0000 H   0  0  0  0  0  0  0  0  0  0  0  0
  1  4  1  0  0  0  0
  1 10  1  0  0  0  0
  1 11  1  0  0  0  0
  2  7  1  0  0  0  0
  2  9  1  0  0  0  0
  2 15  1  0  0  0  0
  3 21  1  0  0  0  0
  3 23  2  0  0  0  0
  4  5  2  0  0  0  0
  4  6  1  0  0  0  0
  5  7  1  0  0  0  0
  5  8  1  0  0  0  0
  6  9  1  0  0  0  0
  6 25  1  0  0  0  0
  6 26  1  0  0  0  0
  7 27  1  0  0  0  0
  7 28  1  0  0  0  0
  8 10  2  0  0  0  0
  8 12  1  0  0  0  0
  9 29  1  0  0  0  0
  9 30  1  0  0  0  0
 10 13  1  0  0  0  0
 11 14  1  0  0  0  0
 11 31  1  0  0  0  0
 11 32  1  0  0  0  0
 12 16  2  0  0  0  0
 12 33  1  0  0  0  0
 13 17  2  0  0  0  0
 13 34  1  0  0  0  0
 14 18  1  0  0  0  0
 14 35  1  0  0  0  0
 14 36  1  0  0  0  0
 15 37  1  0  0  0  0
 15 38  1  0  0  0  0
 15 39  1  0  0  0  0
 16 17  1  0  0  0  0
 16 19  1  0  0  0  0
 17 40  1  0  0  0  0
 18 20  1  0  0  0  0
 18 21  2  0  0  0  0
 19 41  1  0  0  0  0
 19 42  1  0  0  0  0
 19 43  1  0  0  0  0
 20 22  2  0  0  0  0
 20 44  1  0  0  0  0
 21 45  1  0  0  0  0
 22 23  1  0  0  0  0
 22 46  1  0  0  0  0
 23 24  1  0  0  0  0
 24 47  1  0  0  0  0
 24 48  1  0  0  0  0
 24 49  1  0  0  0  0
M  END
> <PUBCHEM_COMPOUND_CID>
197033

> <PUBCHEM_COMPOUND_CANONICALIZED>
1

> <PUBCHEM_CACTVS_COMPLEXITY>
425

> <PUBCHEM_CACTVS_HBOND_ACCEPTOR>
2

> <PUBCHEM_CACTVS_HBOND_DONOR>
0

> <PUBCHEM_CACTVS_ROTATABLE_BOND>
3

> <PUBCHEM_CACTVS_SUBSKEYS>
AAADceB7AAAAAAAAAAAAAAAAAAAAAWAAAAA8WIAAAAAAAFgB/AAAHAAAAAAADAjBHgQ+wPMMEACgAzRnRACCgCAxAiAI2CA4ZJgIIOLA0ZGEIAhggADIyAcQgMAOiAACAAACAAAQAAQAAAQAAAAAAAAAAA==

> <PUBCHEM_IUPAC_OPENEYE_NAME>
2,8-dimethyl-5-[2-(6-methyl-3-pyridyl)ethyl]-3,4-dihydro-1H-pyrido[4,3-b]indole

> <PUBCHEM_IUPAC_CAS_NAME>
2,8-dimethyl-5-[2-(6-methyl-3-pyridinyl)ethyl]-3,4-dihydro-1H-pyrido[4,3-b]indole

> <PUBCHEM_IUPAC_NAME_MARKUP>
2,8-dimethyl-5-[2-(6-methylpyridin-3-yl)ethyl]-3,4-dihydro-1<I>H</I>-pyrido[4,3-b]indole

> <PUBCHEM_IUPAC_NAME>
2,8-dimethyl-5-[2-(6-methylpyridin-3-yl)ethyl]-3,4-dihydro-1H-pyrido[4,3-b]indole

> <PUBCHEM_IUPAC_SYSTEMATIC_NAME>
2,8-dimethyl-5-[2-(6-methylpyridin-3-yl)ethyl]-3,4-dihydro-1H-pyrido[4,3-b]indole

> <PUBCHEM_IUPAC_TRADITIONAL_NAME>
2,8-dimethyl-5-[2-(6-methyl-3-pyridyl)ethyl]-3,4-dihydro-1H-pyrid[4,3-b]indole

> <PUBCHEM_IUPAC_INCHI>
InChI=1S/C21H25N3/c1-15-4-7-20-18(12-15)19-14-23(3)10-9-21(19)24(20)11-8-17-6-5-16(2)22-13-17/h4-7,12-13H,8-11,14H2,1-3H3

> <PUBCHEM_IUPAC_INCHIKEY>
JNODQFNWMXFMEV-UHFFFAOYSA-N

> <PUBCHEM_XLOGP3_AA>
3.5

> <PUBCHEM_EXACT_MASS>
319.204847810

> <PUBCHEM_MOLECULAR_FORMULA>
C21H25N3

> <PUBCHEM_MOLECULAR_WEIGHT>
319.4

> <PUBCHEM_OPENEYE_CAN_SMILES>
CC1=CC2=C(C=C1)N(C3=C2CN(CC3)C)CCC4=CN=C(C=C4)C

> <PUBCHEM_OPENEYE_ISO_SMILES>
CC1=CC2=C(C=C1)N(C3=C2CN(CC3)C)CCC4=CN=C(C=C4)C

> <PUBCHEM_CACTVS_TPSA>
21.1

> <PUBCHEM_MONOISOTOPIC_WEIGHT>
319.204847810

> <PUBCHEM_TOTAL_CHARGE>
0

> <PUBCHEM_HEAVY_ATOM_COUNT>
24

> <PUBCHEM_ATOM_DEF_STEREO_COUNT>
0

> <PUBCHEM_ATOM_UDEF_STEREO_COUNT>
0

> <PUBCHEM_BOND_DEF_STEREO_COUNT>
0

> <PUBCHEM_BOND_UDEF_STEREO_COUNT>
0

> <PUBCHEM_ISOTOPIC_ATOM_COUNT>
0

> <PUBCHEM_COMPONENT_COUNT>
1

> <PUBCHEM_CACTVS_TAUTO_COUNT>
1

> <PUBCHEM_COORDINATE_TYPE>
1
5
255

> <PUBCHEM_BONDANNOTATIONS>
1  10  8
1  4  8
10  13  8
12  16  8
13  17  8
16  17  8
18  20  8
18  21  8
20  22  8
22  23  8
3  21  8
3  23  8
4  5  8
5  8  8
8  10  8
8  12  8

$$$$
