57383433
  -OEChem-09292321582D

 46 49  0     1  0  0  0  0  0999 V2000
   10.4702   -0.6652    0.0000 S   0  0  3  0  0  0  0  0  0  0  0  0
    2.0000   -2.4264    0.0000 F   0  0  0  0  0  0  0  0  0  0  0  0
   10.4702   -1.6652    0.0000 O   0  0  0  0  0  0  0  0  0  0  0  0
   11.4041    2.4264    0.0000 O   0  0  0  0  0  0  0  0  0  0  0  0
    6.4140    1.6376    0.0000 O   0  0  0  0  0  0  0  0  0  0  0  0
    9.9702    1.5254    0.0000 N   0  0  0  0  0  0  0  0  0  0  0  0
    5.8971   -0.0155    0.0000 N   0  0  0  0  0  0  0  0  0  0  0  0
    9.3467    0.7436    0.0000 C   0  0  0  0  0  0  0  0  0  0  0  0
    9.5692   -0.2313    0.0000 C   0  0  0  0  0  0  0  0  0  0  0  0
   11.3712   -0.2313    0.0000 C   0  0  0  0  0  0  0  0  0  0  0  0
   11.5937    0.7436    0.0000 C   0  0  0  0  0  0  0  0  0  0  0  0
    8.3562    1.0660    0.0000 C   0  0  0  0  0  0  0  0  0  0  0  0
   10.9702    1.5254    0.0000 C   0  0  0  0  0  0  0  0  0  0  0  0
    7.5872    0.3634    0.0000 C   0  0  0  0  0  0  0  0  0  0  0  0
    8.8167   -0.9515    0.0000 C   0  0  0  0  0  0  0  0  0  0  0  0
    7.8190   -0.6521    0.0000 C   0  0  0  0  0  0  0  0  0  0  0  0
    9.5364    2.4264    0.0000 C   0  0  0  0  0  0  0  0  0  0  0  0
   12.1237   -0.9515    0.0000 C   0  0  0  0  0  0  0  0  0  0  0  0
   12.5842    1.0659    0.0000 C   0  0  0  0  0  0  0  0  0  0  0  0
    6.6328    0.6618    0.0000 C   0  0  0  0  0  0  0  0  0  0  0  0
    4.9427    0.2829    0.0000 C   0  0  0  0  0  0  0  0  0  0  0  0
   13.1214   -0.6522    0.0000 C   0  0  0  0  0  0  0  0  0  0  0  0
   13.3532    0.3633    0.0000 C   0  0  0  0  0  0  0  0  0  0  0  0
    4.2070   -0.3944    0.0000 C   0  0  0  0  0  0  0  0  0  0  0  0
    4.4258   -1.3702    0.0000 C   0  0  0  0  0  0  0  0  0  0  0  0
    3.2526   -0.0960    0.0000 C   0  0  0  0  0  0  0  0  0  0  0  0
    3.6901   -2.0475    0.0000 C   0  0  0  0  0  0  0  0  0  0  0  0
    2.5169   -0.7733    0.0000 C   0  0  0  0  0  0  0  0  0  0  0  0
    2.7357   -1.7491    0.0000 C   0  0  0  0  0  0  0  0  0  0  0  0
    8.2253    1.6720    0.0000 H   0  0  0  0  0  0  0  0  0  0  0  0
    8.9616   -1.5543    0.0000 H   0  0  0  0  0  0  0  0  0  0  0  0
    7.3661   -1.0756    0.0000 H   0  0  0  0  0  0  0  0  0  0  0  0
   10.0950    2.6954    0.0000 H   0  0  0  0  0  0  0  0  0  0  0  0
    9.2674    2.9850    0.0000 H   0  0  0  0  0  0  0  0  0  0  0  0
    8.9778    2.1574    0.0000 H   0  0  0  0  0  0  0  0  0  0  0  0
   11.9788   -1.5543    0.0000 H   0  0  0  0  0  0  0  0  0  0  0  0
   12.7152    1.6719    0.0000 H   0  0  0  0  0  0  0  0  0  0  0  0
    5.2277    0.8336    0.0000 H   0  0  0  0  0  0  0  0  0  0  0  0
    4.4499    0.6592    0.0000 H   0  0  0  0  0  0  0  0  0  0  0  0
   13.5743   -1.0756    0.0000 H   0  0  0  0  0  0  0  0  0  0  0  0
   13.9450    0.5484    0.0000 H   0  0  0  0  0  0  0  0  0  0  0  0
    6.0328   -0.6205    0.0000 H   0  0  0  0  0  0  0  0  0  0  0  0
    5.0175   -1.5552    0.0000 H   0  0  0  0  0  0  0  0  0  0  0  0
    3.1170    0.5090    0.0000 H   0  0  0  0  0  0  0  0  0  0  0  0
    3.8257   -2.6525    0.0000 H   0  0  0  0  0  0  0  0  0  0  0  0
    1.9252   -0.5883    0.0000 H   0  0  0  0  0  0  0  0  0  0  0  0
  1  3  2  0  0  0  0
  1  9  1  0  0  0  0
  1 10  1  0  0  0  0
  2 29  1  0  0  0  0
  4 13  2  0  0  0  0
  5 20  2  0  0  0  0
  6  8  1  0  0  0  0
  6 13  1  0  0  0  0
  6 17  1  0  0  0  0
  7 20  1  0  0  0  0
  7 21  1  0  0  0  0
  7 42  1  0  0  0  0
  8  9  2  0  0  0  0
  8 12  1  0  0  0  0
  9 15  1  0  0  0  0
 10 11  1  0  0  0  0
 10 18  2  0  0  0  0
 11 13  1  0  0  0  0
 11 19  2  0  0  0  0
 12 14  2  0  0  0  0
 12 30  1  0  0  0  0
 14 16  1  0  0  0  0
 14 20  1  0  0  0  0
 15 16  2  0  0  0  0
 15 31  1  0  0  0  0
 16 32  1  0  0  0  0
 17 33  1  0  0  0  0
 17 34  1  0  0  0  0
 17 35  1  0  0  0  0
 18 22  1  0  0  0  0
 18 36  1  0  0  0  0
 19 23  1  0  0  0  0
 19 37  1  0  0  0  0
 21 24  1  0  0  0  0
 21 38  1  0  0  0  0
 21 39  1  0  0  0  0
 22 23  2  0  0  0  0
 22 40  1  0  0  0  0
 23 41  1  0  0  0  0
 24 25  2  0  0  0  0
 24 26  1  0  0  0  0
 25 27  1  0  0  0  0
 25 43  1  0  0  0  0
 26 28  2  0  0  0  0
 26 44  1  0  0  0  0
 27 29  2  0  0  0  0
 27 45  1  0  0  0  0
 28 29  1  0  0  0  0
 28 46  1  0  0  0  0
M  END
> <PUBCHEM_COMPOUND_CID>
57383433

> <PUBCHEM_COMPOUND_CANONICALIZED>
1

> <PUBCHEM_CACTVS_COMPLEXITY>
652

> <PUBCHEM_CACTVS_HBOND_ACCEPTOR>
5

> <PUBCHEM_CACTVS_HBOND_DONOR>
1

> <PUBCHEM_CACTVS_ROTATABLE_BOND>
3

> <PUBCHEM_CACTVS_SUBSKEYS>
AAADceB7MQBAAAAAAAAAAAAAAAAAAAAAAAAwYMAABYAAAAABUAAAHwQQAAAADAjB2AwywYPAAAqIAiVSUEDCAAAlChAIiJ0IZMgIIDLglZGEIQhghgDoyYcciACOEAAAQAAEAQAgAACAAAgCAAAAAAAAAA==

> <PUBCHEM_IUPAC_OPENEYE_NAME>
N-[(4-fluorophenyl)methyl]-5-methyl-6,11-dioxo-benzo[b][1,4]benzothiazepine-3-carboxamide

> <PUBCHEM_IUPAC_CAS_NAME>
N-[(4-fluorophenyl)methyl]-5-methyl-6,11-dioxo-3-benzo[b][1,4]benzothiazepinecarboxamide

> <PUBCHEM_IUPAC_NAME_MARKUP>
<I>N</I>-[(4-fluorophenyl)methyl]-5-methyl-6,11-dioxobenzo[b][1,4]benzothiazepine-3-carboxamide

> <PUBCHEM_IUPAC_NAME>
N-[(4-fluorophenyl)methyl]-5-methyl-6,11-dioxobenzo[b][1,4]benzothiazepine-3-carboxamide

> <PUBCHEM_IUPAC_SYSTEMATIC_NAME>
N-[(4-fluorophenyl)methyl]-5-methyl-6,11-bis(oxidanylidene)benzo[b][1,4]benzothiazepine-3-carboxamide

> <PUBCHEM_IUPAC_TRADITIONAL_NAME>
N-(4-fluorobenzyl)-6,11-diketo-5-methyl-benzo[b][1,4]benzothiazepine-3-carboxamide

> <PUBCHEM_IUPAC_INCHI>
InChI=1S/C22H17FN2O3S/c1-25-18-12-15(21(26)24-13-14-6-9-16(23)10-7-14)8-11-20(18)29(28)19-5-3-2-4-17(19)22(25)27/h2-12H,13H2,1H3,(H,24,26)

> <PUBCHEM_IUPAC_INCHIKEY>
IXCAEUMWYVWNPC-UHFFFAOYSA-N

> <PUBCHEM_XLOGP3_AA>
2.7

> <PUBCHEM_EXACT_MASS>
408.09439174

> <PUBCHEM_MOLECULAR_FORMULA>
C22H17FN2O3S

> <PUBCHEM_MOLECULAR_WEIGHT>
408.4

> <PUBCHEM_OPENEYE_CAN_SMILES>
CN1C2=C(C=CC(=C2)C(=O)NCC3=CC=C(C=C3)F)S(=O)C4=CC=CC=C4C1=O

> <PUBCHEM_OPENEYE_ISO_SMILES>
CN1C2=C(C=CC(=C2)C(=O)NCC3=CC=C(C=C3)F)S(=O)C4=CC=CC=C4C1=O

> <PUBCHEM_CACTVS_TPSA>
85.7

> <PUBCHEM_MONOISOTOPIC_WEIGHT>
408.09439174

> <PUBCHEM_TOTAL_CHARGE>
0

> <PUBCHEM_HEAVY_ATOM_COUNT>
29

> <PUBCHEM_ATOM_DEF_STEREO_COUNT>
0

> <PUBCHEM_ATOM_UDEF_STEREO_COUNT>
1

> <PUBCHEM_BOND_DEF_STEREO_COUNT>
0

> <PUBCHEM_BOND_UDEF_STEREO_COUNT>
0

> <PUBCHEM_ISOTOPIC_ATOM_COUNT>
0

> <PUBCHEM_COMPONENT_COUNT>
1

> <PUBCHEM_CACTVS_TAUTO_COUNT>
-1

> <PUBCHEM_COORDINATE_TYPE>
1
5
255

> <PUBCHEM_BONDANNOTATIONS>
1  10  3
10  11  8
10  18  8
11  19  8
12  14  8
14  16  8
15  16  8
18  22  8
19  23  8
22  23  8
24  25  8
24  26  8
25  27  8
26  28  8
27  29  8
28  29  8
8  12  8
8  9  8
9  15  8

$$$$
