168274495
  -OEChem-09292322442D

 61 63  0     0  0  0  0  0  0999 V2000
    8.3979    0.0000    0.0000 Cl  0  0  0  0  0  0  0  0  0  0  0  0
   10.1300    1.0000    0.0000 Cl  0  0  0  0  0  0  0  0  0  0  0  0
    4.9338    7.0000    0.0000 O   0  0  0  0  0  0  0  0  0  0  0  0
    6.3640   12.6662    0.0000 O   0  0  0  0  0  0  0  0  0  0  0  0
    3.7660   13.1662    0.0000 O   0  0  0  0  0  0  0  0  0  0  0  0
    5.4980   14.1662    0.0000 O   0  0  0  0  0  0  0  0  0  0  0  0
    4.6320   11.6662    0.0000 O   0  0  0  0  0  0  0  0  0  0  0  0
    4.9338    4.0000    0.0000 N   0  0  0  0  0  0  0  0  0  0  0  0
    6.6659    3.0000    0.0000 N   0  0  0  0  0  0  0  0  0  0  0  0
    3.2018    7.0000    0.0000 N   0  0  0  0  0  0  0  0  0  0  0  0
    5.7998    4.5000    0.0000 C   0  0  0  0  0  0  0  0  0  0  0  0
    4.9338    3.0000    0.0000 C   0  0  0  0  0  0  0  0  0  0  0  0
    4.0678    4.5000    0.0000 C   0  0  0  0  0  0  0  0  0  0  0  0
    6.6659    4.0000    0.0000 C   0  0  0  0  0  0  0  0  0  0  0  0
    5.7998    2.5000    0.0000 C   0  0  0  0  0  0  0  0  0  0  0  0
    4.0678    5.5000    0.0000 C   0  0  0  0  0  0  0  0  0  0  0  0
    3.2018    6.0000    0.0000 C   0  0  0  0  0  0  0  0  0  0  0  0
    7.5319    2.5000    0.0000 C   0  0  0  0  0  0  0  0  0  0  0  0
    2.3358    7.5000    0.0000 C   0  0  0  0  0  0  0  0  0  0  0  0
    3.2018    9.0000    0.0000 C   0  0  0  0  0  0  0  0  0  0  0  0
    2.3358    8.5000    0.0000 C   0  0  0  0  0  0  0  0  0  0  0  0
    4.0678    8.5000    0.0000 C   0  0  0  0  0  0  0  0  0  0  0  0
    4.0678    7.5000    0.0000 C   0  0  0  0  0  0  0  0  0  0  0  0
    7.5319    1.5000    0.0000 C   0  0  0  0  0  0  0  0  0  0  0  0
    8.3979    3.0000    0.0000 C   0  0  0  0  0  0  0  0  0  0  0  0
    1.4418    6.9653    0.0000 C   0  0  0  0  0  0  0  0  0  0  0  0
    1.4418    9.0347    0.0000 C   0  0  0  0  0  0  0  0  0  0  0  0
    0.5357    7.4792    0.0000 C   0  0  0  0  0  0  0  0  0  0  0  0
    0.5357    8.5208    0.0000 C   0  0  0  0  0  0  0  0  0  0  0  0
    8.3979    1.0000    0.0000 C   0  0  0  0  0  0  0  0  0  0  0  0
    9.2640    2.5000    0.0000 C   0  0  0  0  0  0  0  0  0  0  0  0
    9.2640    1.5000    0.0000 C   0  0  0  0  0  0  0  0  0  0  0  0
    5.4980   13.1662    0.0000 C   0  0  0  0  0  0  0  0  0  0  0  0
    4.6320   12.6662    0.0000 C   0  0  0  0  0  0  0  0  0  0  0  0
    6.1984    4.9750    0.0000 H   0  0  0  0  0  0  0  0  0  0  0  0
    5.4013    4.9750    0.0000 H   0  0  0  0  0  0  0  0  0  0  0  0
    4.3232    3.1077    0.0000 H   0  0  0  0  0  0  0  0  0  0  0  0
    4.7218    2.4174    0.0000 H   0  0  0  0  0  0  0  0  0  0  0  0
    3.4572    4.6077    0.0000 H   0  0  0  0  0  0  0  0  0  0  0  0
    3.8557    3.9174    0.0000 H   0  0  0  0  0  0  0  0  0  0  0  0
    7.2764    3.8923    0.0000 H   0  0  0  0  0  0  0  0  0  0  0  0
    6.8779    4.5826    0.0000 H   0  0  0  0  0  0  0  0  0  0  0  0
    5.4013    2.0250    0.0000 H   0  0  0  0  0  0  0  0  0  0  0  0
    6.1984    2.0250    0.0000 H   0  0  0  0  0  0  0  0  0  0  0  0
    4.6784    5.3923    0.0000 H   0  0  0  0  0  0  0  0  0  0  0  0
    4.2798    6.0826    0.0000 H   0  0  0  0  0  0  0  0  0  0  0  0
    2.5912    6.1077    0.0000 H   0  0  0  0  0  0  0  0  0  0  0  0
    2.9897    5.4174    0.0000 H   0  0  0  0  0  0  0  0  0  0  0  0
    3.6003    9.4750    0.0000 H   0  0  0  0  0  0  0  0  0  0  0  0
    2.8032    9.4750    0.0000 H   0  0  0  0  0  0  0  0  0  0  0  0
    4.6784    8.3923    0.0000 H   0  0  0  0  0  0  0  0  0  0  0  0
    4.2798    9.0826    0.0000 H   0  0  0  0  0  0  0  0  0  0  0  0
    6.9950    1.1900    0.0000 H   0  0  0  0  0  0  0  0  0  0  0  0
    8.3979    3.6200    0.0000 H   0  0  0  0  0  0  0  0  0  0  0  0
    1.4490    6.3454    0.0000 H   0  0  0  0  0  0  0  0  0  0  0  0
    1.4490    9.6546    0.0000 H   0  0  0  0  0  0  0  0  0  0  0  0
    0.0000    7.1671    0.0000 H   0  0  0  0  0  0  0  0  0  0  0  0
    0.0000    8.8329    0.0000 H   0  0  0  0  0  0  0  0  0  0  0  0
    9.8009    2.8100    0.0000 H   0  0  0  0  0  0  0  0  0  0  0  0
    6.9010   12.9762    0.0000 H   0  0  0  0  0  0  0  0  0  0  0  0
    3.2290   12.8562    0.0000 H   0  0  0  0  0  0  0  0  0  0  0  0
  1 30  1  0  0  0  0
  2 32  1  0  0  0  0
  3 23  2  0  0  0  0
  4 33  1  0  0  0  0
  4 60  1  0  0  0  0
  5 34  1  0  0  0  0
  5 61  1  0  0  0  0
  6 33  2  0  0  0  0
  7 34  2  0  0  0  0
  8 11  1  0  0  0  0
  8 12  1  0  0  0  0
  8 13  1  0  0  0  0
  9 14  1  0  0  0  0
  9 15  1  0  0  0  0
  9 18  1  0  0  0  0
 10 17  1  0  0  0  0
 10 19  1  0  0  0  0
 10 23  1  0  0  0  0
 11 14  1  0  0  0  0
 11 35  1  0  0  0  0
 11 36  1  0  0  0  0
 12 15  1  0  0  0  0
 12 37  1  0  0  0  0
 12 38  1  0  0  0  0
 13 16  1  0  0  0  0
 13 39  1  0  0  0  0
 13 40  1  0  0  0  0
 14 41  1  0  0  0  0
 14 42  1  0  0  0  0
 15 43  1  0  0  0  0
 15 44  1  0  0  0  0
 16 17  1  0  0  0  0
 16 45  1  0  0  0  0
 16 46  1  0  0  0  0
 17 47  1  0  0  0  0
 17 48  1  0  0  0  0
 18 24  2  0  0  0  0
 18 25  1  0  0  0  0
 19 21  1  0  0  0  0
 19 26  2  0  0  0  0
 20 21  1  0  0  0  0
 20 22  1  0  0  0  0
 20 49  1  0  0  0  0
 20 50  1  0  0  0  0
 21 27  2  0  0  0  0
 22 23  1  0  0  0  0
 22 51  1  0  0  0  0
 22 52  1  0  0  0  0
 24 30  1  0  0  0  0
 24 53  1  0  0  0  0
 25 31  2  0  0  0  0
 25 54  1  0  0  0  0
 26 28  1  0  0  0  0
 26 55  1  0  0  0  0
 27 29  1  0  0  0  0
 27 56  1  0  0  0  0
 28 29  2  0  0  0  0
 28 57  1  0  0  0  0
 29 58  1  0  0  0  0
 30 32  2  0  0  0  0
 31 32  1  0  0  0  0
 31 59  1  0  0  0  0
 33 34  1  0  0  0  0
M  END
> <PUBCHEM_COMPOUND_CID>
168274495

> <PUBCHEM_COMPOUND_CANONICALIZED>
1

> <PUBCHEM_CACTVS_COMPLEXITY>
598

> <PUBCHEM_CACTVS_HBOND_ACCEPTOR>
7

> <PUBCHEM_CACTVS_HBOND_DONOR>
2

> <PUBCHEM_CACTVS_ROTATABLE_BOND>
6

> <PUBCHEM_CACTVS_SUBSKEYS>
AAADceB7OAAGAAAAAAAAAAAAAAAAAAAAAAA8eIEAAAAAAACxQAAAHgIACAAADArBmCQwyIMAAgCIAiXSWAKCAAAhBwAIikFIZogJYDLB05GUIAhghgDJyAcYiYCeAABAAAICAAQAAIAABAQACAAAAAAAAA==

> <PUBCHEM_IUPAC_OPENEYE_NAME>
1-[3-[4-(3,4-dichlorophenyl)piperazin-1-yl]propyl]-3,4-dihydroquinolin-2-one;oxalic acid

> <PUBCHEM_IUPAC_CAS_NAME>
1-[3-[4-(3,4-dichlorophenyl)-1-piperazinyl]propyl]-3,4-dihydroquinolin-2-one;oxalic acid

> <PUBCHEM_IUPAC_NAME_MARKUP>
1-[3-[4-(3,4-dichlorophenyl)piperazin-1-yl]propyl]-3,4-dihydroquinolin-2-one;oxalic acid

> <PUBCHEM_IUPAC_NAME>
1-[3-[4-(3,4-dichlorophenyl)piperazin-1-yl]propyl]-3,4-dihydroquinolin-2-one;oxalic acid

> <PUBCHEM_IUPAC_SYSTEMATIC_NAME>
1-[3-[4-(3,4-dichlorophenyl)piperazin-1-yl]propyl]-3,4-dihydroquinolin-2-one;ethanedioic acid

> <PUBCHEM_IUPAC_TRADITIONAL_NAME>
1-[3-[4-(3,4-dichlorophenyl)piperazino]propyl]-3,4-dihydrocarbostyril;oxalic acid

> <PUBCHEM_IUPAC_INCHI>
InChI=1S/C22H25Cl2N3O.C2H2O4/c23-19-8-7-18(16-20(19)24)26-14-12-25(13-15-26)10-3-11-27-21-5-2-1-4-17(21)6-9-22(27)28;3-1(4)2(5)6/h1-2,4-5,7-8,16H,3,6,9-15H2;(H,3,4)(H,5,6)

> <PUBCHEM_IUPAC_INCHIKEY>
OPAHJQLPXLOCOP-UHFFFAOYSA-N

> <PUBCHEM_EXACT_MASS>
507.1327764

> <PUBCHEM_MOLECULAR_FORMULA>
C24H27Cl2N3O5

> <PUBCHEM_MOLECULAR_WEIGHT>
508.4

> <PUBCHEM_OPENEYE_CAN_SMILES>
C1CC(=O)N(C2=CC=CC=C21)CCCN3CCN(CC3)C4=CC(=C(C=C4)Cl)Cl.C(=O)(C(=O)O)O

> <PUBCHEM_OPENEYE_ISO_SMILES>
C1CC(=O)N(C2=CC=CC=C21)CCCN3CCN(CC3)C4=CC(=C(C=C4)Cl)Cl.C(=O)(C(=O)O)O

> <PUBCHEM_CACTVS_TPSA>
101

> <PUBCHEM_MONOISOTOPIC_WEIGHT>
507.1327764

> <PUBCHEM_TOTAL_CHARGE>
0

> <PUBCHEM_HEAVY_ATOM_COUNT>
34

> <PUBCHEM_ATOM_DEF_STEREO_COUNT>
0

> <PUBCHEM_ATOM_UDEF_STEREO_COUNT>
0

> <PUBCHEM_BOND_DEF_STEREO_COUNT>
0

> <PUBCHEM_BOND_UDEF_STEREO_COUNT>
0

> <PUBCHEM_ISOTOPIC_ATOM_COUNT>
0

> <PUBCHEM_COMPONENT_COUNT>
2

> <PUBCHEM_CACTVS_TAUTO_COUNT>
-1

> <PUBCHEM_COORDINATE_TYPE>
1
5
255

> <PUBCHEM_BONDANNOTATIONS>
18  24  8
18  25  8
19  21  8
19  26  8
21  27  8
24  30  8
25  31  8
26  28  8
27  29  8
28  29  8
30  32  8
31  32  8

$$$$
