44447001
  -OEChem-09292322262D

 53 57  0     1  0  0  0  0  0999 V2000
    3.7899    2.3490    0.0000 S   0  0  0  0  0  0  0  0  0  0  0  0
    7.4629   -0.3490    0.0000 N   0  0  0  0  0  0  0  0  0  0  0  0
    5.7308    0.6510    0.0000 N   0  0  0  0  0  0  0  0  0  0  0  0
   13.0499    0.4063    0.0000 N   0  0  0  0  0  0  0  0  0  0  0  0
    4.7617    2.1398    0.0000 N   0  0  0  0  0  0  0  0  0  0  0  0
    6.5968   -0.8490    0.0000 C   0  0  0  0  0  0  0  0  0  0  0  0
    7.4629    0.6510    0.0000 C   0  0  0  0  0  0  0  0  0  0  0  0
   12.7392   -0.5442    0.0000 C   0  0  3  0  0  0  0  0  0  0  0  0
    8.3289   -0.8490    0.0000 C   0  0  0  0  0  0  0  0  0  0  0  0
   11.7930   -0.8490    0.0000 C   0  0  0  0  0  0  0  0  0  0  0  0
    5.7308   -0.3490    0.0000 C   0  0  0  0  0  0  0  0  0  0  0  0
    6.5968    1.1510    0.0000 C   0  0  0  0  0  0  0  0  0  0  0  0
   13.3228   -1.3490    0.0000 C   0  0  0  0  0  0  0  0  0  0  0  0
   12.7392   -2.1537    0.0000 C   0  0  0  0  0  0  0  0  0  0  0  0
   11.7930   -1.8490    0.0000 C   0  0  0  0  0  0  0  0  0  0  0  0
    9.1949   -0.3490    0.0000 C   0  0  0  0  0  0  0  0  0  0  0  0
   10.0610   -0.8490    0.0000 C   0  0  0  0  0  0  0  0  0  0  0  0
   10.9270   -0.3490    0.0000 C   0  0  0  0  0  0  0  0  0  0  0  0
   10.9270   -2.3490    0.0000 C   0  0  0  0  0  0  0  0  0  0  0  0
   10.0610   -1.8490    0.0000 C   0  0  0  0  0  0  0  0  0  0  0  0
    4.8648    1.1510    0.0000 C   0  0  0  0  0  0  0  0  0  0  0  0
    3.9570    0.7459    0.0000 C   0  0  0  0  0  0  0  0  0  0  0  0
    3.2892    1.4902    0.0000 C   0  0  0  0  0  0  0  0  0  0  0  0
    3.6464   -0.2046    0.0000 C   0  0  0  0  0  0  0  0  0  0  0  0
    2.3107    1.2840    0.0000 C   0  0  0  0  0  0  0  0  0  0  0  0
    2.6678   -0.4108    0.0000 C   0  0  0  0  0  0  0  0  0  0  0  0
    2.0000    0.3335    0.0000 C   0  0  0  0  0  0  0  0  0  0  0  0
    6.1983   -1.3239    0.0000 H   0  0  0  0  0  0  0  0  0  0  0  0
    6.9954   -1.3239    0.0000 H   0  0  0  0  0  0  0  0  0  0  0  0
    8.0734    0.5434    0.0000 H   0  0  0  0  0  0  0  0  0  0  0  0
    7.6749    1.2336    0.0000 H   0  0  0  0  0  0  0  0  0  0  0  0
   13.3517   -0.4480    0.0000 H   0  0  0  0  0  0  0  0  0  0  0  0
    7.9304   -1.3239    0.0000 H   0  0  0  0  0  0  0  0  0  0  0  0
    8.7274   -1.3239    0.0000 H   0  0  0  0  0  0  0  0  0  0  0  0
    5.1202   -0.2413    0.0000 H   0  0  0  0  0  0  0  0  0  0  0  0
    5.5188   -0.9316    0.0000 H   0  0  0  0  0  0  0  0  0  0  0  0
    6.9954    1.6260    0.0000 H   0  0  0  0  0  0  0  0  0  0  0  0
    6.1983    1.6260    0.0000 H   0  0  0  0  0  0  0  0  0  0  0  0
   13.7837   -1.7637    0.0000 H   0  0  0  0  0  0  0  0  0  0  0  0
   13.7837   -0.9342    0.0000 H   0  0  0  0  0  0  0  0  0  0  0  0
   12.4882   -2.7206    0.0000 H   0  0  0  0  0  0  0  0  0  0  0  0
   13.2766   -2.4629    0.0000 H   0  0  0  0  0  0  0  0  0  0  0  0
    9.5934    0.1260    0.0000 H   0  0  0  0  0  0  0  0  0  0  0  0
    8.7964    0.1260    0.0000 H   0  0  0  0  0  0  0  0  0  0  0  0
   10.9270    0.2710    0.0000 H   0  0  0  0  0  0  0  0  0  0  0  0
   10.9270   -2.9690    0.0000 H   0  0  0  0  0  0  0  0  0  0  0  0
    9.5240   -2.1590    0.0000 H   0  0  0  0  0  0  0  0  0  0  0  0
   13.6566    0.5341    0.0000 H   0  0  0  0  0  0  0  0  0  0  0  0
   12.6358    0.8678    0.0000 H   0  0  0  0  0  0  0  0  0  0  0  0
    4.0604   -0.6661    0.0000 H   0  0  0  0  0  0  0  0  0  0  0  0
    1.8966    1.7455    0.0000 H   0  0  0  0  0  0  0  0  0  0  0  0
    2.4752   -1.0001    0.0000 H   0  0  0  0  0  0  0  0  0  0  0  0
    1.3933    0.2056    0.0000 H   0  0  0  0  0  0  0  0  0  0  0  0
  1  5  1  0  0  0  0
  1 23  1  0  0  0  0
  2  6  1  0  0  0  0
  2  7  1  0  0  0  0
  2  9  1  0  0  0  0
  3 11  1  0  0  0  0
  3 12  1  0  0  0  0
  3 21  1  0  0  0  0
  4  8  1  0  0  0  0
  4 48  1  0  0  0  0
  4 49  1  0  0  0  0
  5 21  2  0  0  0  0
  6 11  1  0  0  0  0
  6 28  1  0  0  0  0
  6 29  1  0  0  0  0
  7 12  1  0  0  0  0
  7 30  1  0  0  0  0
  7 31  1  0  0  0  0
  8 10  1  0  0  0  0
  8 13  1  0  0  0  0
  8 32  1  0  0  0  0
  9 16  1  0  0  0  0
  9 33  1  0  0  0  0
  9 34  1  0  0  0  0
 10 15  2  0  0  0  0
 10 18  1  0  0  0  0
 11 35  1  0  0  0  0
 11 36  1  0  0  0  0
 12 37  1  0  0  0  0
 12 38  1  0  0  0  0
 13 14  1  0  0  0  0
 13 39  1  0  0  0  0
 13 40  1  0  0  0  0
 14 15  1  0  0  0  0
 14 41  1  0  0  0  0
 14 42  1  0  0  0  0
 15 19  1  0  0  0  0
 16 17  1  0  0  0  0
 16 43  1  0  0  0  0
 16 44  1  0  0  0  0
 17 18  2  0  0  0  0
 17 20  1  0  0  0  0
 18 45  1  0  0  0  0
 19 20  2  0  0  0  0
 19 46  1  0  0  0  0
 20 47  1  0  0  0  0
 21 22  1  0  0  0  0
 22 23  1  0  0  0  0
 22 24  2  0  0  0  0
 23 25  2  0  0  0  0
 24 26  1  0  0  0  0
 24 50  1  0  0  0  0
 25 27  1  0  0  0  0
 25 51  1  0  0  0  0
 26 27  2  0  0  0  0
 26 52  1  0  0  0  0
 27 53  1  0  0  0  0
M  END
> <PUBCHEM_COMPOUND_CID>
44447001

> <PUBCHEM_COMPOUND_CANONICALIZED>
1

> <PUBCHEM_CACTVS_COMPLEXITY>
495

> <PUBCHEM_CACTVS_HBOND_ACCEPTOR>
5

> <PUBCHEM_CACTVS_HBOND_DONOR>
1

> <PUBCHEM_CACTVS_ROTATABLE_BOND>
4

> <PUBCHEM_CACTVS_SUBSKEYS>
AAADceB7gABAAAAAAAAAAAAAAAAAAeIAAAA8YIAAAAAAAHgB9AAAHAQQQAAADCjBWgQxsdNAAACkAiJiYACDABAhAABJmLgoRJiIYKLAmZGUIAxgkALIyAcQgMAOwAACAAAUAACAAAQAACgAACAACQAAAA==

> <PUBCHEM_IUPAC_OPENEYE_NAME>
6-[2-[4-(1,2-benzothiazol-3-yl)piperazin-1-yl]ethyl]indan-1-amine

> <PUBCHEM_IUPAC_CAS_NAME>
6-[2-[4-(1,2-benzothiazol-3-yl)-1-piperazinyl]ethyl]-2,3-dihydro-1H-inden-1-amine

> <PUBCHEM_IUPAC_NAME_MARKUP>
6-[2-[4-(1,2-benzothiazol-3-yl)piperazin-1-yl]ethyl]-2,3-dihydro-1<I>H</I>-inden-1-amine

> <PUBCHEM_IUPAC_NAME>
6-[2-[4-(1,2-benzothiazol-3-yl)piperazin-1-yl]ethyl]-2,3-dihydro-1H-inden-1-amine

> <PUBCHEM_IUPAC_SYSTEMATIC_NAME>
6-[2-[4-(1,2-benzothiazol-3-yl)piperazin-1-yl]ethyl]-2,3-dihydro-1H-inden-1-amine

> <PUBCHEM_IUPAC_TRADITIONAL_NAME>
[6-[2-[4-(1,2-benzothiazol-3-yl)piperazino]ethyl]indan-1-yl]amine

> <PUBCHEM_IUPAC_INCHI>
InChI=1S/C22H26N4S/c23-20-8-7-17-6-5-16(15-19(17)20)9-10-25-11-13-26(14-12-25)22-18-3-1-2-4-21(18)27-24-22/h1-6,15,20H,7-14,23H2

> <PUBCHEM_IUPAC_INCHIKEY>
QLWUWVNGTYIEIX-UHFFFAOYSA-N

> <PUBCHEM_XLOGP3_AA>
3.8

> <PUBCHEM_EXACT_MASS>
378.18781802

> <PUBCHEM_MOLECULAR_FORMULA>
C22H26N4S

> <PUBCHEM_MOLECULAR_WEIGHT>
378.5

> <PUBCHEM_OPENEYE_CAN_SMILES>
C1CC2=C(C1N)C=C(C=C2)CCN3CCN(CC3)C4=NSC5=CC=CC=C54

> <PUBCHEM_OPENEYE_ISO_SMILES>
C1CC2=C(C1N)C=C(C=C2)CCN3CCN(CC3)C4=NSC5=CC=CC=C54

> <PUBCHEM_CACTVS_TPSA>
73.6

> <PUBCHEM_MONOISOTOPIC_WEIGHT>
378.18781802

> <PUBCHEM_TOTAL_CHARGE>
0

> <PUBCHEM_HEAVY_ATOM_COUNT>
27

> <PUBCHEM_ATOM_DEF_STEREO_COUNT>
0

> <PUBCHEM_ATOM_UDEF_STEREO_COUNT>
1

> <PUBCHEM_BOND_DEF_STEREO_COUNT>
0

> <PUBCHEM_BOND_UDEF_STEREO_COUNT>
0

> <PUBCHEM_ISOTOPIC_ATOM_COUNT>
0

> <PUBCHEM_COMPONENT_COUNT>
1

> <PUBCHEM_CACTVS_TAUTO_COUNT>
-1

> <PUBCHEM_COORDINATE_TYPE>
1
5
255

> <PUBCHEM_BONDANNOTATIONS>
1  23  8
1  5  8
10  15  8
10  18  8
15  19  8
17  18  8
17  20  8
19  20  8
21  22  8
22  23  8
22  24  8
23  25  8
24  26  8
25  27  8
26  27  8
8  4  3
5  21  8

$$$$
