44347445
  -OEChem-09292322152D

 36 40  0     1  0  0  0  0  0999 V2000
    6.3977   -1.2709    0.0000 O   0  0  0  0  0  0  0  0  0  0  0  0
    5.4918   -2.7917    0.0000 O   0  0  0  0  0  0  0  0  0  0  0  0
    2.8768    1.7917    0.0000 N   0  0  3  0  0  0  0  0  0  0  0  0
    3.7476    1.2776    0.0000 C   0  0  1  0  0  0  0  0  0  0  0  0
    3.7476    0.2776    0.0000 C   0  0  0  0  0  0  0  0  0  0  0  0
    4.6136    1.7776    0.0000 C   0  0  0  0  0  0  0  0  0  0  0  0
    4.6136   -0.2224    0.0000 C   0  0  0  0  0  0  0  0  0  0  0  0
    2.8881   -0.2172    0.0000 C   0  0  0  0  0  0  0  0  0  0  0  0
    2.0000    1.2879    0.0000 C   0  0  0  0  0  0  0  0  0  0  0  0
    2.0057    0.2767    0.0000 C   0  0  0  0  0  0  0  0  0  0  0  0
    5.4796    1.2776    0.0000 C   0  0  0  0  0  0  0  0  0  0  0  0
    5.4796    0.2776    0.0000 C   0  0  0  0  0  0  0  0  0  0  0  0
    4.5976   -1.2640    0.0000 C   0  0  0  0  0  0  0  0  0  0  0  0
    2.8747   -1.2088    0.0000 C   0  0  0  0  0  0  0  0  0  0  0  0
    2.8828    2.7917    0.0000 C   0  0  0  0  0  0  0  0  0  0  0  0
    6.3896   -0.2293    0.0000 C   0  0  0  0  0  0  0  0  0  0  0  0
    3.7204   -1.7267    0.0000 C   0  0  0  0  0  0  0  0  0  0  0  0
    6.3379    1.7745    0.0000 C   0  0  0  0  0  0  0  0  0  0  0  0
    5.4956   -1.7917    0.0000 C   0  0  0  0  0  0  0  0  0  0  0  0
    7.2290    0.2989    0.0000 C   0  0  0  0  0  0  0  0  0  0  0  0
    7.2034    1.2903    0.0000 C   0  0  0  0  0  0  0  0  0  0  0  0
    3.7518    2.1275    0.0000 H   0  0  0  0  0  0  0  0  0  0  0  0
    5.0122    2.2525    0.0000 H   0  0  0  0  0  0  0  0  0  0  0  0
    4.2151    2.2525    0.0000 H   0  0  0  0  0  0  0  0  0  0  0  0
    1.7877    1.8704    0.0000 H   0  0  0  0  0  0  0  0  0  0  0  0
    1.3898    1.1784    0.0000 H   0  0  0  0  0  0  0  0  0  0  0  0
    1.3943    0.3793    0.0000 H   0  0  0  0  0  0  0  0  0  0  0  0
    1.7999   -0.3082    0.0000 H   0  0  0  0  0  0  0  0  0  0  0  0
    2.3318   -1.5082    0.0000 H   0  0  0  0  0  0  0  0  0  0  0  0
    3.5027    2.7880    0.0000 H   0  0  0  0  0  0  0  0  0  0  0  0
    2.8864    3.4117    0.0000 H   0  0  0  0  0  0  0  0  0  0  0  0
    2.2628    2.7954    0.0000 H   0  0  0  0  0  0  0  0  0  0  0  0
    3.7006   -2.3464    0.0000 H   0  0  0  0  0  0  0  0  0  0  0  0
    6.3333    2.3945    0.0000 H   0  0  0  0  0  0  0  0  0  0  0  0
    7.7755    0.0063    0.0000 H   0  0  0  0  0  0  0  0  0  0  0  0
    7.7341    1.6108    0.0000 H   0  0  0  0  0  0  0  0  0  0  0  0
  1 16  1  0  0  0  0
  1 19  1  0  0  0  0
  2 19  2  0  0  0  0
  3  4  1  0  0  0  0
  3  9  1  0  0  0  0
  3 15  1  0  0  0  0
  4  5  1  0  0  0  0
  4  6  1  0  0  0  0
  4 22  1  1  0  0  0
  5  7  1  0  0  0  0
  5  8  2  0  0  0  0
  6 11  1  0  0  0  0
  6 23  1  0  0  0  0
  6 24  1  0  0  0  0
  7 12  1  0  0  0  0
  7 13  2  0  0  0  0
  8 10  1  0  0  0  0
  8 14  1  0  0  0  0
  9 10  1  0  0  0  0
  9 25  1  0  0  0  0
  9 26  1  0  0  0  0
 10 27  1  0  0  0  0
 10 28  1  0  0  0  0
 11 12  2  0  0  0  0
 11 18  1  0  0  0  0
 12 16  1  0  0  0  0
 13 17  1  0  0  0  0
 13 19  1  0  0  0  0
 14 17  2  0  0  0  0
 14 29  1  0  0  0  0
 15 30  1  0  0  0  0
 15 31  1  0  0  0  0
 15 32  1  0  0  0  0
 16 20  2  0  0  0  0
 17 33  1  0  0  0  0
 18 21  2  0  0  0  0
 18 34  1  0  0  0  0
 20 21  1  0  0  0  0
 20 35  1  0  0  0  0
 21 36  1  0  0  0  0
M  END
> <PUBCHEM_COMPOUND_CID>
44347445

> <PUBCHEM_COMPOUND_CANONICALIZED>
1

> <PUBCHEM_CACTVS_COMPLEXITY>
464

> <PUBCHEM_CACTVS_HBOND_ACCEPTOR>
3

> <PUBCHEM_CACTVS_HBOND_DONOR>
0

> <PUBCHEM_CACTVS_ROTATABLE_BOND>
0

> <PUBCHEM_CACTVS_SUBSKEYS>
AAADccB6MAAAAAAAAAAAAAAAAAAAAAAAAAA8aMECAAAAAADxQAAAHgAAAAAADCzBmAQyDoMABACIAiDSCACCCAAkIAAIiAEODMgMJjKEtRuGOyjkwBGIqYeY3fPewAADAAAYAACQAAaAADQAAAAAAAAAAA==

> <PUBCHEM_IUPAC_OPENEYE_NAME>
(1R)-2-methyl-10-oxa-2-azapentacyclo[13.3.1.05,18.08,17.011,16]nonadeca-5(18),6,8(17),11,13,15-hexaen-9-one

> <PUBCHEM_IUPAC_CAS_NAME>
(1R)-2-methyl-10-oxa-2-azapentacyclo[13.3.1.05,18.08,17.011,16]nonadeca-5(18),6,8(17),11,13,15-hexaen-9-one

> <PUBCHEM_IUPAC_NAME_MARKUP>
(1<I>R</I>)-2-methyl-10-oxa-2-azapentacyclo[13.3.1.0<SUP>5,18</SUP>.0<SUP>8,17</SUP>.0<SUP>11,16</SUP>]nonadeca-5(18),6,8(17),11,13,15-hexaen-9-one

> <PUBCHEM_IUPAC_NAME>
(1R)-2-methyl-10-oxa-2-azapentacyclo[13.3.1.05,18.08,17.011,16]nonadeca-5(18),6,8(17),11,13,15-hexaen-9-one

> <PUBCHEM_IUPAC_SYSTEMATIC_NAME>
(1R)-2-methyl-10-oxa-2-azapentacyclo[13.3.1.05,18.08,17.011,16]nonadeca-5(18),6,8(17),11,13,15-hexaen-9-one

> <PUBCHEM_IUPAC_TRADITIONAL_NAME>
(1R)-2-methyl-10-oxa-2-azapentacyclo[13.3.1.05,18.08,17.011,16]nonadeca-5(18),6,8(17),11,13,15-hexaen-9-one

> <PUBCHEM_IUPAC_INCHI>
InChI=1S/C18H15NO2/c1-19-8-7-10-5-6-12-17-15(10)13(19)9-11-3-2-4-14(16(11)17)21-18(12)20/h2-6,13H,7-9H2,1H3/t13-/m1/s1

> <PUBCHEM_IUPAC_INCHIKEY>
HJZYUBCMOFCAGG-CYBMUJFWSA-N

> <PUBCHEM_XLOGP3_AA>
3

> <PUBCHEM_EXACT_MASS>
277.110278721

> <PUBCHEM_MOLECULAR_FORMULA>
C18H15NO2

> <PUBCHEM_MOLECULAR_WEIGHT>
277.3

> <PUBCHEM_OPENEYE_CAN_SMILES>
CN1CCC2=C3C1CC4=C5C3=C(C=C2)C(=O)OC5=CC=C4

> <PUBCHEM_OPENEYE_ISO_SMILES>
CN1CCC2=C3[C@H]1CC4=C5C3=C(C=C2)C(=O)OC5=CC=C4

> <PUBCHEM_CACTVS_TPSA>
29.5

> <PUBCHEM_MONOISOTOPIC_WEIGHT>
277.110278721

> <PUBCHEM_TOTAL_CHARGE>
0

> <PUBCHEM_HEAVY_ATOM_COUNT>
21

> <PUBCHEM_ATOM_DEF_STEREO_COUNT>
1

> <PUBCHEM_ATOM_UDEF_STEREO_COUNT>
0

> <PUBCHEM_BOND_DEF_STEREO_COUNT>
0

> <PUBCHEM_BOND_UDEF_STEREO_COUNT>
0

> <PUBCHEM_ISOTOPIC_ATOM_COUNT>
0

> <PUBCHEM_COMPONENT_COUNT>
1

> <PUBCHEM_CACTVS_TAUTO_COUNT>
-1

> <PUBCHEM_COORDINATE_TYPE>
1
5
255

> <PUBCHEM_BONDANNOTATIONS>
1  16  8
1  19  8
11  12  8
11  18  8
12  16  8
13  17  8
13  19  8
14  17  8
16  20  8
18  21  8
20  21  8
4  22  5
5  7  8
5  8  8
7  12  8
7  13  8
8  14  8

$$$$
