49781448
  -OEChem-09292322312D

 54 58  0     1  0  0  0  0  0999 V2000
    8.4029   -2.7541    0.0000 S   0  0  0  0  0  0  0  0  0  0  0  0
    3.7631   -2.0238    0.0000 S   0  0  0  0  0  0  0  0  0  0  0  0
    7.4691    0.3375    0.0000 N   0  0  0  0  0  0  0  0  0  0  0  0
    6.6013    2.1394    0.0000 N   0  0  0  0  0  0  0  0  0  0  0  0
    7.9029   -0.5635    0.0000 C   0  0  3  0  0  0  0  0  0  0  0  0
    6.4719    0.4122    0.0000 C   0  0  0  0  0  0  0  0  0  0  0  0
    8.0324    1.1637    0.0000 C   0  0  0  0  0  0  0  0  0  0  0  0
    6.0380    1.3132    0.0000 C   0  0  0  0  0  0  0  0  0  0  0  0
    7.5985    2.0647    0.0000 C   0  0  0  0  0  0  0  0  0  0  0  0
    8.9029   -0.5635    0.0000 C   0  0  0  0  0  0  0  0  0  0  0  0
    7.2794   -1.3453    0.0000 C   0  0  0  0  0  0  0  0  0  0  0  0
    9.5264   -1.3453    0.0000 C   0  0  0  0  0  0  0  0  0  0  0  0
    7.5020   -2.3202    0.0000 C   0  0  0  0  0  0  0  0  0  0  0  0
    6.2889   -1.0230    0.0000 C   0  0  0  0  0  0  0  0  0  0  0  0
    6.1674    3.0404    0.0000 C   0  0  0  0  0  0  0  0  0  0  0  0
    9.3039   -2.3202    0.0000 C   0  0  0  0  0  0  0  0  0  0  0  0
    5.5199   -1.7255    0.0000 C   0  0  0  0  0  0  0  0  0  0  0  0
    6.7494   -3.0404    0.0000 C   0  0  0  0  0  0  0  0  0  0  0  0
   10.5169   -1.0230    0.0000 C   0  0  0  0  0  0  0  0  0  0  0  0
    5.7517   -2.7410    0.0000 C   0  0  0  0  0  0  0  0  0  0  0  0
   10.0564   -3.0404    0.0000 C   0  0  0  0  0  0  0  0  0  0  0  0
   11.2859   -1.7256    0.0000 C   0  0  0  0  0  0  0  0  0  0  0  0
    4.5655   -1.4271    0.0000 C   0  0  0  0  0  0  0  0  0  0  0  0
   11.0541   -2.7411    0.0000 C   0  0  0  0  0  0  0  0  0  0  0  0
    4.2460   -0.4795    0.0000 C   0  0  0  0  0  0  0  0  0  0  0  0
    2.9476   -1.4450    0.0000 C   0  0  0  0  0  0  0  0  0  0  0  0
    3.2460   -0.4906    0.0000 C   0  0  0  0  0  0  0  0  0  0  0  0
    2.0000   -1.7646    0.0000 C   0  0  0  0  0  0  0  0  0  0  0  0
    8.2328   -0.0385    0.0000 H   0  0  0  0  0  0  0  0  0  0  0  0
    5.8750    0.2443    0.0000 H   0  0  0  0  0  0  0  0  0  0  0  0
    6.5336   -0.2047    0.0000 H   0  0  0  0  0  0  0  0  0  0  0  0
    8.4762    0.7308    0.0000 H   0  0  0  0  0  0  0  0  0  0  0  0
    8.5358    1.5257    0.0000 H   0  0  0  0  0  0  0  0  0  0  0  0
    5.5942    1.7461    0.0000 H   0  0  0  0  0  0  0  0  0  0  0  0
    5.5346    0.9513    0.0000 H   0  0  0  0  0  0  0  0  0  0  0  0
    8.1953    2.2326    0.0000 H   0  0  0  0  0  0  0  0  0  0  0  0
    7.5368    2.6816    0.0000 H   0  0  0  0  0  0  0  0  0  0  0  0
    9.4615   -0.2945    0.0000 H   0  0  0  0  0  0  0  0  0  0  0  0
    8.7650    0.0410    0.0000 H   0  0  0  0  0  0  0  0  0  0  0  0
    6.1580   -0.4169    0.0000 H   0  0  0  0  0  0  0  0  0  0  0  0
    6.7260    3.3094    0.0000 H   0  0  0  0  0  0  0  0  0  0  0  0
    5.8984    3.5990    0.0000 H   0  0  0  0  0  0  0  0  0  0  0  0
    5.6088    2.7714    0.0000 H   0  0  0  0  0  0  0  0  0  0  0  0
    6.8943   -3.6432    0.0000 H   0  0  0  0  0  0  0  0  0  0  0  0
   10.6479   -0.4170    0.0000 H   0  0  0  0  0  0  0  0  0  0  0  0
    5.2988   -3.1645    0.0000 H   0  0  0  0  0  0  0  0  0  0  0  0
    9.9115   -3.6432    0.0000 H   0  0  0  0  0  0  0  0  0  0  0  0
   11.8777   -1.5405    0.0000 H   0  0  0  0  0  0  0  0  0  0  0  0
   11.5070   -3.1645    0.0000 H   0  0  0  0  0  0  0  0  0  0  0  0
    4.6048    0.0261    0.0000 H   0  0  0  0  0  0  0  0  0  0  0  0
    2.8760    0.0069    0.0000 H   0  0  0  0  0  0  0  0  0  0  0  0
    1.8019   -1.1771    0.0000 H   0  0  0  0  0  0  0  0  0  0  0  0
    1.4125   -1.9627    0.0000 H   0  0  0  0  0  0  0  0  0  0  0  0
    2.1981   -2.3521    0.0000 H   0  0  0  0  0  0  0  0  0  0  0  0
  1 13  1  0  0  0  0
  1 16  1  0  0  0  0
  2 23  1  0  0  0  0
  2 26  1  0  0  0  0
  3  5  1  0  0  0  0
  3  6  1  0  0  0  0
  3  7  1  0  0  0  0
  4  8  1  0  0  0  0
  4  9  1  0  0  0  0
  4 15  1  0  0  0  0
  5 10  1  0  0  0  0
  5 11  1  0  0  0  0
  5 29  1  0  0  0  0
  6  8  1  0  0  0  0
  6 30  1  0  0  0  0
  6 31  1  0  0  0  0
  7  9  1  0  0  0  0
  7 32  1  0  0  0  0
  7 33  1  0  0  0  0
  8 34  1  0  0  0  0
  8 35  1  0  0  0  0
  9 36  1  0  0  0  0
  9 37  1  0  0  0  0
 10 12  1  0  0  0  0
 10 38  1  0  0  0  0
 10 39  1  0  0  0  0
 11 13  2  0  0  0  0
 11 14  1  0  0  0  0
 12 16  1  0  0  0  0
 12 19  2  0  0  0  0
 13 18  1  0  0  0  0
 14 17  2  0  0  0  0
 14 40  1  0  0  0  0
 15 41  1  0  0  0  0
 15 42  1  0  0  0  0
 15 43  1  0  0  0  0
 16 21  2  0  0  0  0
 17 20  1  0  0  0  0
 17 23  1  0  0  0  0
 18 20  2  0  0  0  0
 18 44  1  0  0  0  0
 19 22  1  0  0  0  0
 19 45  1  0  0  0  0
 20 46  1  0  0  0  0
 21 24  1  0  0  0  0
 21 47  1  0  0  0  0
 22 24  2  0  0  0  0
 22 48  1  0  0  0  0
 23 25  2  0  0  0  0
 24 49  1  0  0  0  0
 25 27  1  0  0  0  0
 25 50  1  0  0  0  0
 26 27  2  0  0  0  0
 26 28  1  0  0  0  0
 27 51  1  0  0  0  0
 28 52  1  0  0  0  0
 28 53  1  0  0  0  0
 28 54  1  0  0  0  0
M  END
> <PUBCHEM_COMPOUND_CID>
49781448

> <PUBCHEM_COMPOUND_CANONICALIZED>
1

> <PUBCHEM_CACTVS_COMPLEXITY>
521

> <PUBCHEM_CACTVS_HBOND_ACCEPTOR>
4

> <PUBCHEM_CACTVS_HBOND_DONOR>
0

> <PUBCHEM_CACTVS_ROTATABLE_BOND>
2

> <PUBCHEM_CACTVS_SUBSKEYS>
AAADceB7AABgAAAAAAAAAAAAAAAAASAAAAA8YIAABIAAAAAB0AAAHAQAAAAADCjBWAQyAYMAAAiEAiBCAACDAIAgCBBIiBgIBIgIYCKgkRGUIAhggACoiAcQgMAOEAACAAAEAAAgAAQAAAgAAAAAAAAAAA==

> <PUBCHEM_IUPAC_OPENEYE_NAME>
1-methyl-4-[3-(5-methyl-2-thienyl)-5,6-dihydrobenzo[b][1]benzothiepin-5-yl]piperazine

> <PUBCHEM_IUPAC_CAS_NAME>
1-methyl-4-[3-(5-methyl-2-thiophenyl)-5,6-dihydrobenzo[b][1]benzothiepin-5-yl]piperazine

> <PUBCHEM_IUPAC_NAME_MARKUP>
1-methyl-4-[3-(5-methylthiophen-2-yl)-5,6-dihydrobenzo[b][1]benzothiepin-5-yl]piperazine

> <PUBCHEM_IUPAC_NAME>
1-methyl-4-[3-(5-methylthiophen-2-yl)-5,6-dihydrobenzo[b][1]benzothiepin-5-yl]piperazine

> <PUBCHEM_IUPAC_SYSTEMATIC_NAME>
1-methyl-4-[3-(5-methylthiophen-2-yl)-5,6-dihydrobenzo[b][1]benzothiepin-5-yl]piperazine

> <PUBCHEM_IUPAC_TRADITIONAL_NAME>
1-methyl-4-[3-(5-methyl-2-thienyl)-5,6-dihydrobenzo[b][1]benzothiepin-5-yl]piperazine

> <PUBCHEM_IUPAC_INCHI>
InChI=1S/C24H26N2S2/c1-17-7-9-23(27-17)19-8-10-24-20(15-19)21(26-13-11-25(2)12-14-26)16-18-5-3-4-6-22(18)28-24/h3-10,15,21H,11-14,16H2,1-2H3

> <PUBCHEM_IUPAC_INCHIKEY>
JLCDZKSQUUANJO-UHFFFAOYSA-N

> <PUBCHEM_XLOGP3_AA>
5.4

> <PUBCHEM_EXACT_MASS>
406.15374118

> <PUBCHEM_MOLECULAR_FORMULA>
C24H26N2S2

> <PUBCHEM_MOLECULAR_WEIGHT>
406.6

> <PUBCHEM_OPENEYE_CAN_SMILES>
CC1=CC=C(S1)C2=CC3=C(C=C2)SC4=CC=CC=C4CC3N5CCN(CC5)C

> <PUBCHEM_OPENEYE_ISO_SMILES>
CC1=CC=C(S1)C2=CC3=C(C=C2)SC4=CC=CC=C4CC3N5CCN(CC5)C

> <PUBCHEM_CACTVS_TPSA>
60

> <PUBCHEM_MONOISOTOPIC_WEIGHT>
406.15374118

> <PUBCHEM_TOTAL_CHARGE>
0

> <PUBCHEM_HEAVY_ATOM_COUNT>
28

> <PUBCHEM_ATOM_DEF_STEREO_COUNT>
0

> <PUBCHEM_ATOM_UDEF_STEREO_COUNT>
1

> <PUBCHEM_BOND_DEF_STEREO_COUNT>
0

> <PUBCHEM_BOND_UDEF_STEREO_COUNT>
0

> <PUBCHEM_ISOTOPIC_ATOM_COUNT>
0

> <PUBCHEM_COMPONENT_COUNT>
1

> <PUBCHEM_CACTVS_TAUTO_COUNT>
-1

> <PUBCHEM_COORDINATE_TYPE>
1
5
255

> <PUBCHEM_BONDANNOTATIONS>
11  13  8
11  14  8
12  16  8
12  19  8
13  18  8
14  17  8
16  21  8
17  20  8
18  20  8
19  22  8
2  23  8
2  26  8
21  24  8
22  24  8
23  25  8
25  27  8
26  27  8
5  3  3

$$$$
