44355433
  -OEChem-09292322132D

 60 63  0     1  0  0  0  0  0999 V2000
    3.4782   -0.3648    0.0000 S   0  0  0  0  0  0  0  0  0  0  0  0
    9.6612   -1.9049    0.0000 O   0  0  0  0  0  0  0  0  0  0  0  0
    6.1808    1.1297    0.0000 N   0  0  3  0  0  0  0  0  0  0  0  0
    7.0468    0.6297    0.0000 C   0  0  3  0  0  0  0  0  0  0  0  0
    7.0468   -0.3703    0.0000 C   0  0  0  0  0  0  0  0  0  0  0  0
    7.9128    1.1297    0.0000 C   0  0  0  0  0  0  0  0  0  0  0  0
    7.9128   -0.8703    0.0000 C   0  0  0  0  0  0  0  0  0  0  0  0
    8.7788   -0.3703    0.0000 C   0  0  0  0  0  0  0  0  0  0  0  0
   10.5214   -2.4148    0.0000 C   0  0  0  0  0  0  0  0  0  0  0  0
    8.7788    0.6297    0.0000 C   0  0  0  0  0  0  0  0  0  0  0  0
   10.6144   -3.4105    0.0000 C   0  0  0  0  0  0  0  0  0  0  0  0
   11.4396   -2.0187    0.0000 C   0  0  0  0  0  0  0  0  0  0  0  0
   11.5901   -3.6297    0.0000 C   0  0  0  0  0  0  0  0  0  0  0  0
   12.1001   -2.7695    0.0000 C   0  0  0  0  0  0  0  0  0  0  0  0
    9.6728   -0.9049    0.0000 C   0  0  0  0  0  0  0  0  0  0  0  0
    5.3147    0.6297    0.0000 C   0  0  0  0  0  0  0  0  0  0  0  0
    6.1808    2.1297    0.0000 C   0  0  0  0  0  0  0  0  0  0  0  0
    9.6728    1.1644    0.0000 C   0  0  0  0  0  0  0  0  0  0  0  0
    5.3147    2.6297    0.0000 C   0  0  0  0  0  0  0  0  0  0  0  0
    4.4487    1.1297    0.0000 C   0  0  0  0  0  0  0  0  0  0  0  0
   10.5788   -0.3911    0.0000 C   0  0  0  0  0  0  0  0  0  0  0  0
   10.5788    0.6505    0.0000 C   0  0  0  0  0  0  0  0  0  0  0  0
    5.3147    3.6297    0.0000 C   0  0  0  0  0  0  0  0  0  0  0  0
    3.5827    0.6297    0.0000 C   0  0  0  0  0  0  0  0  0  0  0  0
    2.6691    1.0365    0.0000 C   0  0  0  0  0  0  0  0  0  0  0  0
    2.0000    0.2933    0.0000 C   0  0  0  0  0  0  0  0  0  0  0  0
    2.5000   -0.5727    0.0000 C   0  0  0  0  0  0  0  0  0  0  0  0
    7.0468    1.2497    0.0000 H   0  0  0  0  0  0  0  0  0  0  0  0
    6.4362   -0.2626    0.0000 H   0  0  0  0  0  0  0  0  0  0  0  0
    6.8347   -0.9529    0.0000 H   0  0  0  0  0  0  0  0  0  0  0  0
    8.3113    1.6047    0.0000 H   0  0  0  0  0  0  0  0  0  0  0  0
    7.5143    1.6047    0.0000 H   0  0  0  0  0  0  0  0  0  0  0  0
    7.5143   -1.3452    0.0000 H   0  0  0  0  0  0  0  0  0  0  0  0
    8.3113   -1.3452    0.0000 H   0  0  0  0  0  0  0  0  0  0  0  0
   10.5610   -1.7961    0.0000 H   0  0  0  0  0  0  0  0  0  0  0  0
    9.9945   -3.4034    0.0000 H   0  0  0  0  0  0  0  0  0  0  0  0
   10.5425   -4.0263    0.0000 H   0  0  0  0  0  0  0  0  0  0  0  0
   11.9454   -1.6601    0.0000 H   0  0  0  0  0  0  0  0  0  0  0  0
   11.1358   -1.4782    0.0000 H   0  0  0  0  0  0  0  0  0  0  0  0
   11.3917   -4.2171    0.0000 H   0  0  0  0  0  0  0  0  0  0  0  0
   12.1535   -3.8884    0.0000 H   0  0  0  0  0  0  0  0  0  0  0  0
   12.5974   -3.1397    0.0000 H   0  0  0  0  0  0  0  0  0  0  0  0
   12.5202   -2.3136    0.0000 H   0  0  0  0  0  0  0  0  0  0  0  0
    4.9162    0.1548    0.0000 H   0  0  0  0  0  0  0  0  0  0  0  0
    5.7133    0.1548    0.0000 H   0  0  0  0  0  0  0  0  0  0  0  0
    6.7913    2.0221    0.0000 H   0  0  0  0  0  0  0  0  0  0  0  0
    6.3928    2.7123    0.0000 H   0  0  0  0  0  0  0  0  0  0  0  0
    9.6656    1.7843    0.0000 H   0  0  0  0  0  0  0  0  0  0  0  0
    4.7042    2.7374    0.0000 H   0  0  0  0  0  0  0  0  0  0  0  0
    5.1027    2.0471    0.0000 H   0  0  0  0  0  0  0  0  0  0  0  0
    4.8472    1.6047    0.0000 H   0  0  0  0  0  0  0  0  0  0  0  0
    4.0502    1.6047    0.0000 H   0  0  0  0  0  0  0  0  0  0  0  0
   11.1146   -0.7032    0.0000 H   0  0  0  0  0  0  0  0  0  0  0  0
   11.1146    0.9626    0.0000 H   0  0  0  0  0  0  0  0  0  0  0  0
    5.9347    3.6297    0.0000 H   0  0  0  0  0  0  0  0  0  0  0  0
    5.3147    4.2497    0.0000 H   0  0  0  0  0  0  0  0  0  0  0  0
    4.6947    3.6297    0.0000 H   0  0  0  0  0  0  0  0  0  0  0  0
    2.5402    1.6429    0.0000 H   0  0  0  0  0  0  0  0  0  0  0  0
    1.3834    0.3581    0.0000 H   0  0  0  0  0  0  0  0  0  0  0  0
    2.2478   -1.1391    0.0000 H   0  0  0  0  0  0  0  0  0  0  0  0
  1 24  1  0  0  0  0
  1 27  1  0  0  0  0
  2  9  1  0  0  0  0
  2 15  1  0  0  0  0
  3  4  1  0  0  0  0
  3 16  1  0  0  0  0
  3 17  1  0  0  0  0
  4  5  1  0  0  0  0
  4  6  1  0  0  0  0
  4 28  1  0  0  0  0
  5  7  1  0  0  0  0
  5 29  1  0  0  0  0
  5 30  1  0  0  0  0
  6 10  1  0  0  0  0
  6 31  1  0  0  0  0
  6 32  1  0  0  0  0
  7  8  1  0  0  0  0
  7 33  1  0  0  0  0
  7 34  1  0  0  0  0
  8 10  2  0  0  0  0
  8 15  1  0  0  0  0
  9 11  1  0  0  0  0
  9 12  1  0  0  0  0
  9 35  1  0  0  0  0
 10 18  1  0  0  0  0
 11 13  1  0  0  0  0
 11 36  1  0  0  0  0
 11 37  1  0  0  0  0
 12 14  1  0  0  0  0
 12 38  1  0  0  0  0
 12 39  1  0  0  0  0
 13 14  1  0  0  0  0
 13 40  1  0  0  0  0
 13 41  1  0  0  0  0
 14 42  1  0  0  0  0
 14 43  1  0  0  0  0
 15 21  2  0  0  0  0
 16 20  1  0  0  0  0
 16 44  1  0  0  0  0
 16 45  1  0  0  0  0
 17 19  1  0  0  0  0
 17 46  1  0  0  0  0
 17 47  1  0  0  0  0
 18 22  2  0  0  0  0
 18 48  1  0  0  0  0
 19 23  1  0  0  0  0
 19 49  1  0  0  0  0
 19 50  1  0  0  0  0
 20 24  1  0  0  0  0
 20 51  1  0  0  0  0
 20 52  1  0  0  0  0
 21 22  1  0  0  0  0
 21 53  1  0  0  0  0
 22 54  1  0  0  0  0
 23 55  1  0  0  0  0
 23 56  1  0  0  0  0
 23 57  1  0  0  0  0
 24 25  2  0  0  0  0
 25 26  1  0  0  0  0
 25 58  1  0  0  0  0
 26 27  2  0  0  0  0
 26 59  1  0  0  0  0
 27 60  1  0  0  0  0
M  END
> <PUBCHEM_COMPOUND_CID>
44355433

> <PUBCHEM_COMPOUND_CANONICALIZED>
1

> <PUBCHEM_CACTVS_COMPLEXITY>
438

> <PUBCHEM_CACTVS_HBOND_ACCEPTOR>
3

> <PUBCHEM_CACTVS_HBOND_DONOR>
0

> <PUBCHEM_CACTVS_ROTATABLE_BOND>
8

> <PUBCHEM_CACTVS_SUBSKEYS>
AAADcfB6IABAAAAAAAAAAAAAAAAAAaIAAAAwYAAAAAAAAADBwAAAHgQAAAAADDzl2AayB4MABAiEAiBCAAADCIAgKBBIiBgOCIgMJiKksRuGOCCkwBGoqAeQ0LMOgAABAAAYAAAQAAKAADAAAAAAAAAAAA==

> <PUBCHEM_IUPAC_OPENEYE_NAME>
5-(cyclopentoxy)-N-propyl-N-[2-(2-thienyl)ethyl]tetralin-2-amine

> <PUBCHEM_IUPAC_CAS_NAME>
5-cyclopentyloxy-N-propyl-N-(2-thiophen-2-ylethyl)-1,2,3,4-tetrahydronaphthalen-2-amine

> <PUBCHEM_IUPAC_NAME_MARKUP>
5-cyclopentyloxy-<I>N</I>-propyl-<I>N</I>-(2-thiophen-2-ylethyl)-1,2,3,4-tetrahydronaphthalen-2-amine

> <PUBCHEM_IUPAC_NAME>
5-cyclopentyloxy-N-propyl-N-(2-thiophen-2-ylethyl)-1,2,3,4-tetrahydronaphthalen-2-amine

> <PUBCHEM_IUPAC_SYSTEMATIC_NAME>
5-cyclopentyloxy-N-propyl-N-(2-thiophen-2-ylethyl)-1,2,3,4-tetrahydronaphthalen-2-amine

> <PUBCHEM_IUPAC_TRADITIONAL_NAME>
[5-(cyclopentoxy)tetralin-2-yl]-propyl-[2-(2-thienyl)ethyl]amine

> <PUBCHEM_IUPAC_INCHI>
InChI=1S/C24H33NOS/c1-2-15-25(16-14-22-10-6-17-27-22)20-12-13-23-19(18-20)7-5-11-24(23)26-21-8-3-4-9-21/h5-7,10-11,17,20-21H,2-4,8-9,12-16,18H2,1H3

> <PUBCHEM_IUPAC_INCHIKEY>
ZLVAAOLZQMSQAG-UHFFFAOYSA-N

> <PUBCHEM_XLOGP3_AA>
6.5

> <PUBCHEM_EXACT_MASS>
383.22828585

> <PUBCHEM_MOLECULAR_FORMULA>
C24H33NOS

> <PUBCHEM_MOLECULAR_WEIGHT>
383.6

> <PUBCHEM_OPENEYE_CAN_SMILES>
CCCN(CCC1=CC=CS1)C2CCC3=C(C2)C=CC=C3OC4CCCC4

> <PUBCHEM_OPENEYE_ISO_SMILES>
CCCN(CCC1=CC=CS1)C2CCC3=C(C2)C=CC=C3OC4CCCC4

> <PUBCHEM_CACTVS_TPSA>
40.7

> <PUBCHEM_MONOISOTOPIC_WEIGHT>
383.22828585

> <PUBCHEM_TOTAL_CHARGE>
0

> <PUBCHEM_HEAVY_ATOM_COUNT>
27

> <PUBCHEM_ATOM_DEF_STEREO_COUNT>
0

> <PUBCHEM_ATOM_UDEF_STEREO_COUNT>
1

> <PUBCHEM_BOND_DEF_STEREO_COUNT>
0

> <PUBCHEM_BOND_UDEF_STEREO_COUNT>
0

> <PUBCHEM_ISOTOPIC_ATOM_COUNT>
0

> <PUBCHEM_COMPONENT_COUNT>
1

> <PUBCHEM_CACTVS_TAUTO_COUNT>
-1

> <PUBCHEM_COORDINATE_TYPE>
1
5
255

> <PUBCHEM_BONDANNOTATIONS>
1  24  8
1  27  8
10  18  8
15  21  8
18  22  8
21  22  8
24  25  8
25  26  8
26  27  8
4  3  3
8  10  8
8  15  8

$$$$
