155195444
  -OEChem-09292322402D

 59 62  0     1  0  0  0  0  0999 V2000
   12.7619    1.5675    0.0000 O   0  0  0  0  0  0  0  0  0  0  0  0
    6.7619   -1.8966    0.0000 O   0  0  0  0  0  0  0  0  0  0  0  0
   10.7619    1.5675    0.0000 N   0  0  3  0  0  0  0  0  0  0  0  0
    6.7619   -0.1645    0.0000 N   0  0  0  0  0  0  0  0  0  0  0  0
   14.2619   -1.0306    0.0000 N   0  0  0  0  0  0  0  0  0  0  0  0
    4.6783   -1.8353    0.0000 N   0  0  0  0  0  0  0  0  0  0  0  0
   14.2619   -2.7626    0.0000 N   0  0  0  0  0  0  0  0  0  0  0  0
   11.2619    2.4335    0.0000 C   0  0  2  0  0  0  0  0  0  0  0  0
   11.2619    0.7015    0.0000 C   0  0  0  0  0  0  0  0  0  0  0  0
   12.2619    0.7015    0.0000 C   0  0  1  0  0  0  0  0  0  0  0  0
    9.7619    1.5675    0.0000 C   0  0  0  0  0  0  0  0  0  0  0  0
   12.2619    2.4335    0.0000 C   0  0  0  0  0  0  0  0  0  0  0  0
    9.2619    0.7015    0.0000 C   0  0  0  0  0  0  0  0  0  0  0  0
   10.7619    3.2996    0.0000 C   0  0  0  0  0  0  0  0  0  0  0  0
   12.7619   -0.1645    0.0000 C   0  0  0  0  0  0  0  0  0  0  0  0
    8.2619    0.7015    0.0000 C   0  0  0  0  0  0  0  0  0  0  0  0
    7.7619   -0.1645    0.0000 C   0  0  0  0  0  0  0  0  0  0  0  0
   12.2619   -1.0306    0.0000 C   0  0  0  0  0  0  0  0  0  0  0  0
   13.7619   -0.1645    0.0000 C   0  0  0  0  0  0  0  0  0  0  0  0
   12.7619   -1.8966    0.0000 C   0  0  0  0  0  0  0  0  0  0  0  0
   13.7619   -1.8966    0.0000 C   0  0  0  0  0  0  0  0  0  0  0  0
    6.2619   -1.0306    0.0000 C   0  0  0  0  0  0  0  0  0  0  0  0
    5.2619   -1.0306    0.0000 C   0  0  0  0  0  0  0  0  0  0  0  0
    3.7320   -1.5306    0.0000 C   0  0  0  0  0  0  0  0  0  0  0  0
    3.7320   -0.5306    0.0000 C   0  0  0  0  0  0  0  0  0  0  0  0
    4.6783   -0.2258    0.0000 C   0  0  0  0  0  0  0  0  0  0  0  0
    2.8660   -2.0306    0.0000 C   0  0  0  0  0  0  0  0  0  0  0  0
    2.8660   -0.0306    0.0000 C   0  0  0  0  0  0  0  0  0  0  0  0
    2.0000   -1.5306    0.0000 C   0  0  0  0  0  0  0  0  0  0  0  0
    2.0000   -0.5306    0.0000 C   0  0  0  0  0  0  0  0  0  0  0  0
   10.6419    2.4335    0.0000 H   0  0  0  0  0  0  0  0  0  0  0  0
   10.6793    0.4894    0.0000 H   0  0  0  0  0  0  0  0  0  0  0  0
   11.3695    0.0909    0.0000 H   0  0  0  0  0  0  0  0  0  0  0  0
   11.9519    0.1645    0.0000 H   0  0  0  0  0  0  0  0  0  0  0  0
    9.8695    2.1781    0.0000 H   0  0  0  0  0  0  0  0  0  0  0  0
    9.1793    1.7796    0.0000 H   0  0  0  0  0  0  0  0  0  0  0  0
   12.8445    2.6456    0.0000 H   0  0  0  0  0  0  0  0  0  0  0  0
   12.1542    3.0441    0.0000 H   0  0  0  0  0  0  0  0  0  0  0  0
    9.1542    0.0909    0.0000 H   0  0  0  0  0  0  0  0  0  0  0  0
    9.8445    0.4894    0.0000 H   0  0  0  0  0  0  0  0  0  0  0  0
   11.2988    3.6096    0.0000 H   0  0  0  0  0  0  0  0  0  0  0  0
   10.4519    3.8365    0.0000 H   0  0  0  0  0  0  0  0  0  0  0  0
   10.2249    2.9896    0.0000 H   0  0  0  0  0  0  0  0  0  0  0  0
    8.3695    1.3121    0.0000 H   0  0  0  0  0  0  0  0  0  0  0  0
    7.6793    0.9135    0.0000 H   0  0  0  0  0  0  0  0  0  0  0  0
    7.6542   -0.7751    0.0000 H   0  0  0  0  0  0  0  0  0  0  0  0
    8.3445   -0.3766    0.0000 H   0  0  0  0  0  0  0  0  0  0  0  0
   11.6419   -1.0306    0.0000 H   0  0  0  0  0  0  0  0  0  0  0  0
   14.0719    0.3724    0.0000 H   0  0  0  0  0  0  0  0  0  0  0  0
    6.4519    0.3724    0.0000 H   0  0  0  0  0  0  0  0  0  0  0  0
   12.4519   -2.4335    0.0000 H   0  0  0  0  0  0  0  0  0  0  0  0
    4.8709   -2.4246    0.0000 H   0  0  0  0  0  0  0  0  0  0  0  0
    4.8709    0.3635    0.0000 H   0  0  0  0  0  0  0  0  0  0  0  0
   14.8819   -2.7626    0.0000 H   0  0  0  0  0  0  0  0  0  0  0  0
   13.9519   -3.2996    0.0000 H   0  0  0  0  0  0  0  0  0  0  0  0
    2.8660   -2.6506    0.0000 H   0  0  0  0  0  0  0  0  0  0  0  0
    2.8660    0.5894    0.0000 H   0  0  0  0  0  0  0  0  0  0  0  0
    1.4631   -1.8406    0.0000 H   0  0  0  0  0  0  0  0  0  0  0  0
    1.4631   -0.2206    0.0000 H   0  0  0  0  0  0  0  0  0  0  0  0
  1 10  1  0  0  0  0
  1 12  1  0  0  0  0
  2 22  2  0  0  0  0
  3  8  1  0  0  0  0
  3  9  1  0  0  0  0
  3 11  1  0  0  0  0
  4 17  1  0  0  0  0
  4 22  1  0  0  0  0
  4 50  1  0  0  0  0
  5 19  1  0  0  0  0
  5 21  2  0  0  0  0
  6 23  1  0  0  0  0
  6 24  1  0  0  0  0
  6 52  1  0  0  0  0
  7 21  1  0  0  0  0
  7 54  1  0  0  0  0
  7 55  1  0  0  0  0
  8 12  1  0  0  0  0
  8 14  1  1  0  0  0
  8 31  1  0  0  0  0
  9 10  1  0  0  0  0
  9 32  1  0  0  0  0
  9 33  1  0  0  0  0
 10 15  1  6  0  0  0
 10 34  1  0  0  0  0
 11 13  1  0  0  0  0
 11 35  1  0  0  0  0
 11 36  1  0  0  0  0
 12 37  1  0  0  0  0
 12 38  1  0  0  0  0
 13 16  1  0  0  0  0
 13 39  1  0  0  0  0
 13 40  1  0  0  0  0
 14 41  1  0  0  0  0
 14 42  1  0  0  0  0
 14 43  1  0  0  0  0
 15 18  1  0  0  0  0
 15 19  2  0  0  0  0
 16 17  1  0  0  0  0
 16 44  1  0  0  0  0
 16 45  1  0  0  0  0
 17 46  1  0  0  0  0
 17 47  1  0  0  0  0
 18 20  2  0  0  0  0
 18 48  1  0  0  0  0
 19 49  1  0  0  0  0
 20 21  1  0  0  0  0
 20 51  1  0  0  0  0
 22 23  1  0  0  0  0
 23 26  2  0  0  0  0
 24 25  1  0  0  0  0
 24 27  2  0  0  0  0
 25 26  1  0  0  0  0
 25 28  2  0  0  0  0
 26 53  1  0  0  0  0
 27 29  1  0  0  0  0
 27 56  1  0  0  0  0
 28 30  1  0  0  0  0
 28 57  1  0  0  0  0
 29 30  2  0  0  0  0
 29 58  1  0  0  0  0
 30 59  1  0  0  0  0
M  END
> <PUBCHEM_COMPOUND_CID>
155195444

> <PUBCHEM_COMPOUND_CANONICALIZED>
1

> <PUBCHEM_CACTVS_COMPLEXITY>
562

> <PUBCHEM_CACTVS_HBOND_ACCEPTOR>
5

> <PUBCHEM_CACTVS_HBOND_DONOR>
3

> <PUBCHEM_CACTVS_ROTATABLE_BOND>
7

> <PUBCHEM_CACTVS_SUBSKEYS>
AAADceB7sAAAAAAAAAAAAAAAAAAAAWAAAAA8WIAAAAAAAFgB/AAAHgAQAAAADDzhngY/8PPJlACoAzd3dACCgCk3AiAI2aG4bNiKZvLAtbmXMQhm1gPY6aeYmYKeAAAAAAACAAAAAAAAAAQAAAAAAAAAAA==

> <PUBCHEM_IUPAC_OPENEYE_NAME>
N-[4-[(2R,5S)-2-(6-amino-3-pyridyl)-5-methyl-morpholin-4-yl]butyl]-1H-indole-2-carboxamide

> <PUBCHEM_IUPAC_CAS_NAME>
N-[4-[(2R,5S)-2-(6-amino-3-pyridinyl)-5-methyl-4-morpholinyl]butyl]-1H-indole-2-carboxamide

> <PUBCHEM_IUPAC_NAME_MARKUP>
<I>N</I>-[4-[(2<I>R</I>,5<I>S</I>)-2-(6-aminopyridin-3-yl)-5-methylmorpholin-4-yl]butyl]-1<I>H</I>-indole-2-carboxamide

> <PUBCHEM_IUPAC_NAME>
N-[4-[(2R,5S)-2-(6-aminopyridin-3-yl)-5-methylmorpholin-4-yl]butyl]-1H-indole-2-carboxamide

> <PUBCHEM_IUPAC_SYSTEMATIC_NAME>
N-[4-[(2R,5S)-2-(6-azanylpyridin-3-yl)-5-methyl-morpholin-4-yl]butyl]-1H-indole-2-carboxamide

> <PUBCHEM_IUPAC_TRADITIONAL_NAME>
N-[4-[(2R,5S)-2-(6-amino-3-pyridyl)-5-methyl-morpholino]butyl]-1H-indole-2-carboxamide

> <PUBCHEM_IUPAC_INCHI>
InChI=1S/C23H29N5O2/c1-16-15-30-21(18-8-9-22(24)26-13-18)14-28(16)11-5-4-10-25-23(29)20-12-17-6-2-3-7-19(17)27-20/h2-3,6-9,12-13,16,21,27H,4-5,10-11,14-15H2,1H3,(H2,24,26)(H,25,29)/t16-,21-/m0/s1

> <PUBCHEM_IUPAC_INCHIKEY>
CTDCQQXDSZWWIE-KKSFZXQISA-N

> <PUBCHEM_XLOGP3_AA>
2.6

> <PUBCHEM_EXACT_MASS>
407.23212518

> <PUBCHEM_MOLECULAR_FORMULA>
C23H29N5O2

> <PUBCHEM_MOLECULAR_WEIGHT>
407.5

> <PUBCHEM_OPENEYE_CAN_SMILES>
CC1COC(CN1CCCCNC(=O)C2=CC3=CC=CC=C3N2)C4=CN=C(C=C4)N

> <PUBCHEM_OPENEYE_ISO_SMILES>
C[C@H]1CO[C@@H](CN1CCCCNC(=O)C2=CC3=CC=CC=C3N2)C4=CN=C(C=C4)N

> <PUBCHEM_CACTVS_TPSA>
96.3

> <PUBCHEM_MONOISOTOPIC_WEIGHT>
407.23212518

> <PUBCHEM_TOTAL_CHARGE>
0

> <PUBCHEM_HEAVY_ATOM_COUNT>
30

> <PUBCHEM_ATOM_DEF_STEREO_COUNT>
2

> <PUBCHEM_ATOM_UDEF_STEREO_COUNT>
0

> <PUBCHEM_BOND_DEF_STEREO_COUNT>
0

> <PUBCHEM_BOND_UDEF_STEREO_COUNT>
0

> <PUBCHEM_ISOTOPIC_ATOM_COUNT>
0

> <PUBCHEM_COMPONENT_COUNT>
1

> <PUBCHEM_CACTVS_TAUTO_COUNT>
-1

> <PUBCHEM_COORDINATE_TYPE>
1
5
255

> <PUBCHEM_BONDANNOTATIONS>
10  15  6
15  18  8
15  19  8
18  20  8
20  21  8
23  26  8
24  25  8
24  27  8
25  26  8
25  28  8
27  29  8
28  30  8
29  30  8
5  19  8
5  21  8
6  23  8
6  24  8
8  14  5

$$$$
