127031156
  -OEChem-09292322372D

 60 64  0     1  0  0  0  0  0999 V2000
    9.4372    1.3621    0.0000 S   0  0  0  0  0  0  0  0  0  0  0  0
    3.9563   -1.1790    0.0000 N   0  0  3  0  0  0  0  0  0  0  0  0
    6.4372   -0.3700    0.0000 N   0  0  3  0  0  0  0  0  0  0  0  0
   11.0250    2.1711    0.0000 N   0  0  0  0  0  0  0  0  0  0  0  0
   11.0250    0.5531    0.0000 N   0  0  0  0  0  0  0  0  0  0  0  0
   11.9760    0.8621    0.0000 N   0  0  0  0  0  0  0  0  0  0  0  0
   12.6805    3.4444    0.0000 N   0  0  0  0  0  0  0  0  0  0  0  0
   14.5076    2.6309    0.0000 N   0  0  0  0  0  0  0  0  0  0  0  0
    4.9074    0.1300    0.0000 C   0  0  3  0  0  0  0  0  0  0  0  0
    4.9074   -0.8700    0.0000 C   0  0  3  0  0  0  0  0  0  0  0  0
    5.8536    0.4348    0.0000 C   0  0  0  0  0  0  0  0  0  0  0  0
    3.9563    0.4390    0.0000 C   0  0  0  0  0  0  0  0  0  0  0  0
    5.8536   -1.1747    0.0000 C   0  0  0  0  0  0  0  0  0  0  0  0
    3.3685   -0.3700    0.0000 C   0  0  0  0  0  0  0  0  0  0  0  0
    7.4372   -0.3700    0.0000 C   0  0  0  0  0  0  0  0  0  0  0  0
    3.6473   -2.1301    0.0000 C   0  0  0  0  0  0  0  0  0  0  0  0
    7.9372    0.4960    0.0000 C   0  0  0  0  0  0  0  0  0  0  0  0
    2.6691   -2.3380    0.0000 C   0  0  0  0  0  0  0  0  0  0  0  0
    4.3164   -2.8732    0.0000 C   0  0  0  0  0  0  0  0  0  0  0  0
    8.9372    0.4960    0.0000 C   0  0  0  0  0  0  0  0  0  0  0  0
    2.3601   -3.2890    0.0000 C   0  0  0  0  0  0  0  0  0  0  0  0
    2.0000   -1.5948    0.0000 C   0  0  0  0  0  0  0  0  0  0  0  0
    4.0074   -3.8242    0.0000 C   0  0  0  0  0  0  0  0  0  0  0  0
    3.0292   -4.0322    0.0000 C   0  0  0  0  0  0  0  0  0  0  0  0
   10.4372    1.3621    0.0000 C   0  0  0  0  0  0  0  0  0  0  0  0
   11.9760    1.8621    0.0000 C   0  0  0  0  0  0  0  0  0  0  0  0
   10.7159    3.1222    0.0000 C   0  0  0  0  0  0  0  0  0  0  0  0
   12.7850    2.4499    0.0000 C   0  0  0  0  0  0  0  0  0  0  0  0
   13.6986    2.0431    0.0000 C   0  0  0  0  0  0  0  0  0  0  0  0
   13.4895    4.0322    0.0000 C   0  0  0  0  0  0  0  0  0  0  0  0
   14.4031    3.6254    0.0000 C   0  0  0  0  0  0  0  0  0  0  0  0
    4.9082    0.7500    0.0000 H   0  0  0  0  0  0  0  0  0  0  0  0
    4.9082   -1.4900    0.0000 H   0  0  0  0  0  0  0  0  0  0  0  0
    6.3910    0.7440    0.0000 H   0  0  0  0  0  0  0  0  0  0  0  0
    5.6025    1.0017    0.0000 H   0  0  0  0  0  0  0  0  0  0  0  0
    4.2085    1.0054    0.0000 H   0  0  0  0  0  0  0  0  0  0  0  0
    3.4194    0.7490    0.0000 H   0  0  0  0  0  0  0  0  0  0  0  0
    5.6025   -1.7416    0.0000 H   0  0  0  0  0  0  0  0  0  0  0  0
    6.3910   -1.4839    0.0000 H   0  0  0  0  0  0  0  0  0  0  0  0
    2.9078    0.0449    0.0000 H   0  0  0  0  0  0  0  0  0  0  0  0
    2.9078   -0.7848    0.0000 H   0  0  0  0  0  0  0  0  0  0  0  0
    7.3295   -0.9806    0.0000 H   0  0  0  0  0  0  0  0  0  0  0  0
    8.0198   -0.5820    0.0000 H   0  0  0  0  0  0  0  0  0  0  0  0
    8.0448    1.1066    0.0000 H   0  0  0  0  0  0  0  0  0  0  0  0
    7.3546    0.7081    0.0000 H   0  0  0  0  0  0  0  0  0  0  0  0
    4.9229   -2.7443    0.0000 H   0  0  0  0  0  0  0  0  0  0  0  0
    8.8295   -0.1145    0.0000 H   0  0  0  0  0  0  0  0  0  0  0  0
    9.5198    0.2840    0.0000 H   0  0  0  0  0  0  0  0  0  0  0  0
    1.7537   -3.4179    0.0000 H   0  0  0  0  0  0  0  0  0  0  0  0
    2.4608   -1.1800    0.0000 H   0  0  0  0  0  0  0  0  0  0  0  0
    1.5851   -1.1341    0.0000 H   0  0  0  0  0  0  0  0  0  0  0  0
    1.5392   -2.0097    0.0000 H   0  0  0  0  0  0  0  0  0  0  0  0
    4.4222   -4.2850    0.0000 H   0  0  0  0  0  0  0  0  0  0  0  0
    2.8376   -4.6218    0.0000 H   0  0  0  0  0  0  0  0  0  0  0  0
   11.3056    3.3137    0.0000 H   0  0  0  0  0  0  0  0  0  0  0  0
   10.5244    3.7118    0.0000 H   0  0  0  0  0  0  0  0  0  0  0  0
   10.1263    2.9306    0.0000 H   0  0  0  0  0  0  0  0  0  0  0  0
   13.7634    1.4265    0.0000 H   0  0  0  0  0  0  0  0  0  0  0  0
   13.4247    4.6488    0.0000 H   0  0  0  0  0  0  0  0  0  0  0  0
   14.9047    3.9899    0.0000 H   0  0  0  0  0  0  0  0  0  0  0  0
  1 20  1  0  0  0  0
  1 25  1  0  0  0  0
  2 10  1  0  0  0  0
  2 14  1  0  0  0  0
  2 16  1  0  0  0  0
  3 11  1  0  0  0  0
  3 13  1  0  0  0  0
  3 15  1  0  0  0  0
  4 25  1  0  0  0  0
  4 26  1  0  0  0  0
  4 27  1  0  0  0  0
  5  6  1  0  0  0  0
  5 25  2  0  0  0  0
  6 26  2  0  0  0  0
  7 28  2  0  0  0  0
  7 30  1  0  0  0  0
  8 29  2  0  0  0  0
  8 31  1  0  0  0  0
  9 10  1  0  0  0  0
  9 11  1  0  0  0  0
  9 12  1  0  0  0  0
  9 32  1  0  0  0  0
 10 13  1  0  0  0  0
 10 33  1  0  0  0  0
 11 34  1  0  0  0  0
 11 35  1  0  0  0  0
 12 14  1  0  0  0  0
 12 36  1  0  0  0  0
 12 37  1  0  0  0  0
 13 38  1  0  0  0  0
 13 39  1  0  0  0  0
 14 40  1  0  0  0  0
 14 41  1  0  0  0  0
 15 17  1  0  0  0  0
 15 42  1  0  0  0  0
 15 43  1  0  0  0  0
 16 18  1  0  0  0  0
 16 19  2  0  0  0  0
 17 20  1  0  0  0  0
 17 44  1  0  0  0  0
 17 45  1  0  0  0  0
 18 21  2  0  0  0  0
 18 22  1  0  0  0  0
 19 23  1  0  0  0  0
 19 46  1  0  0  0  0
 20 47  1  0  0  0  0
 20 48  1  0  0  0  0
 21 24  1  0  0  0  0
 21 49  1  0  0  0  0
 22 50  1  0  0  0  0
 22 51  1  0  0  0  0
 22 52  1  0  0  0  0
 23 24  2  0  0  0  0
 23 53  1  0  0  0  0
 24 54  1  0  0  0  0
 26 28  1  0  0  0  0
 27 55  1  0  0  0  0
 27 56  1  0  0  0  0
 27 57  1  0  0  0  0
 28 29  1  0  0  0  0
 29 58  1  0  0  0  0
 30 31  2  0  0  0  0
 30 59  1  0  0  0  0
 31 60  1  0  0  0  0
M  END
> <PUBCHEM_COMPOUND_CID>
127031156

> <PUBCHEM_COMPOUND_CANONICALIZED>
1

> <PUBCHEM_CACTVS_COMPLEXITY>
580

> <PUBCHEM_CACTVS_HBOND_ACCEPTOR>
7

> <PUBCHEM_CACTVS_HBOND_DONOR>
0

> <PUBCHEM_CACTVS_ROTATABLE_BOND>
7

> <PUBCHEM_CACTVS_SUBSKEYS>
AAADceB7gABAAAAAAAAAAAAAAAAAAWLFgAA8QAAAAAAWAAAB8AAAHAQIAAAADSjFXwS/0JcMEAiiAzZnZACS0C9xErAd2CA4dJiIaOLg2ZGUIAhgiALIyAcQgAAOAAAAAAACAAAAAAAAAAQAAAAAAAAAAA==

> <PUBCHEM_IUPAC_OPENEYE_NAME>
5-[3-[(4-methyl-5-pyrazin-2-yl-1,2,4-triazol-3-yl)sulfanyl]propyl]-1-(o-tolyl)-2,3,3a,4,6,6a-hexahydropyrrolo[2,3-c]pyrrole

> <PUBCHEM_IUPAC_CAS_NAME>
1-(2-methylphenyl)-5-[3-[[4-methyl-5-(2-pyrazinyl)-1,2,4-triazol-3-yl]thio]propyl]-2,3,3a,4,6,6a-hexahydropyrrolo[2,3-c]pyrrole

> <PUBCHEM_IUPAC_NAME_MARKUP>
1-(2-methylphenyl)-5-[3-[(4-methyl-5-pyrazin-2-yl-1,2,4-triazol-3-yl)sulfanyl]propyl]-2,3,3<I>a</I>,4,6,6<I>a</I>-hexahydropyrrolo[2,3-c]pyrrole

> <PUBCHEM_IUPAC_NAME>
1-(2-methylphenyl)-5-[3-[(4-methyl-5-pyrazin-2-yl-1,2,4-triazol-3-yl)sulfanyl]propyl]-2,3,3a,4,6,6a-hexahydropyrrolo[2,3-c]pyrrole

> <PUBCHEM_IUPAC_SYSTEMATIC_NAME>
1-(2-methylphenyl)-5-[3-[(4-methyl-5-pyrazin-2-yl-1,2,4-triazol-3-yl)sulfanyl]propyl]-2,3,3a,4,6,6a-hexahydropyrrolo[2,3-c]pyrrole

> <PUBCHEM_IUPAC_TRADITIONAL_NAME>
5-[3-[(4-methyl-5-pyrazin-2-yl-1,2,4-triazol-3-yl)thio]propyl]-1-(o-tolyl)-2,3,3a,4,6,6a-hexahydropyrrolo[2,3-c]pyrrole

> <PUBCHEM_IUPAC_INCHI>
InChI=1S/C23H29N7S/c1-17-6-3-4-7-20(17)30-12-8-18-15-29(16-21(18)30)11-5-13-31-23-27-26-22(28(23)2)19-14-24-9-10-25-19/h3-4,6-7,9-10,14,18,21H,5,8,11-13,15-16H2,1-2H3

> <PUBCHEM_IUPAC_INCHIKEY>
ANTOILZBKKIMIM-UHFFFAOYSA-N

> <PUBCHEM_XLOGP3_AA>
2.6

> <PUBCHEM_EXACT_MASS>
435.22051513

> <PUBCHEM_MOLECULAR_FORMULA>
C23H29N7S

> <PUBCHEM_MOLECULAR_WEIGHT>
435.6

> <PUBCHEM_OPENEYE_CAN_SMILES>
CC1=CC=CC=C1N2CCC3C2CN(C3)CCCSC4=NN=C(N4C)C5=NC=CN=C5

> <PUBCHEM_OPENEYE_ISO_SMILES>
CC1=CC=CC=C1N2CCC3C2CN(C3)CCCSC4=NN=C(N4C)C5=NC=CN=C5

> <PUBCHEM_CACTVS_TPSA>
88.3

> <PUBCHEM_MONOISOTOPIC_WEIGHT>
435.22051513

> <PUBCHEM_TOTAL_CHARGE>
0

> <PUBCHEM_HEAVY_ATOM_COUNT>
31

> <PUBCHEM_ATOM_DEF_STEREO_COUNT>
0

> <PUBCHEM_ATOM_UDEF_STEREO_COUNT>
2

> <PUBCHEM_BOND_DEF_STEREO_COUNT>
0

> <PUBCHEM_BOND_UDEF_STEREO_COUNT>
0

> <PUBCHEM_ISOTOPIC_ATOM_COUNT>
0

> <PUBCHEM_COMPONENT_COUNT>
1

> <PUBCHEM_CACTVS_TAUTO_COUNT>
-1

> <PUBCHEM_COORDINATE_TYPE>
1
5
255

> <PUBCHEM_BONDANNOTATIONS>
10  13  3
16  18  8
16  19  8
18  21  8
19  23  8
21  24  8
23  24  8
28  29  8
30  31  8
4  25  8
4  26  8
5  25  8
5  6  8
6  26  8
7  28  8
7  30  8
8  29  8
8  31  8
9  12  3

$$$$
