46231848
  -OEChem-09292322292D

 53 57  0     1  0  0  0  0  0999 V2000
    2.1374    2.6755    0.0000 Cl  0  0  0  0  0  0  0  0  0  0  0  0
    2.5932    0.6786    0.0000 O   0  0  0  0  0  0  0  0  0  0  0  0
    6.7378   -3.5392    0.0000 O   0  0  0  0  0  0  0  0  0  0  0  0
    7.0983    2.7573    0.0000 N   0  0  3  0  0  0  0  0  0  0  0  0
    7.4927   -1.9250    0.0000 N   0  0  0  0  0  0  0  0  0  0  0  0
    6.8758    1.7824    0.0000 C   0  0  2  0  0  0  0  0  0  0  0  0
    5.9748    1.3485    0.0000 C   0  0  2  0  0  0  0  0  0  0  0  0
    7.7453    1.2090    0.0000 C   0  0  0  0  0  0  0  0  0  0  0  0
    5.8810    0.3111    0.0000 C   0  0  0  0  0  0  0  0  0  0  0  0
    7.6755    0.1697    0.0000 C   0  0  0  0  0  0  0  0  0  0  0  0
    6.7370   -0.2823    0.0000 C   0  0  0  0  0  0  0  0  0  0  0  0
    5.0738    1.7824    0.0000 C   0  0  0  0  0  0  0  0  0  0  0  0
    6.4748    3.5392    0.0000 C   0  0  0  0  0  0  0  0  0  0  0  0
    4.8513    2.7573    0.0000 C   0  0  0  0  0  0  0  0  0  0  0  0
    5.4748    3.5392    0.0000 C   0  0  0  0  0  0  0  0  0  0  0  0
    6.6643   -1.3648    0.0000 C   0  0  0  0  0  0  0  0  0  0  0  0
    4.8928   -0.1369    0.0000 C   0  0  0  0  0  0  0  0  0  0  0  0
    8.0732    2.9798    0.0000 C   0  0  0  0  0  0  0  0  0  0  0  0
    4.3213    1.0622    0.0000 C   0  0  0  0  0  0  0  0  0  0  0  0
    5.6868   -1.8356    0.0000 C   0  0  0  0  0  0  0  0  0  0  0  0
    8.4328   -1.5840    0.0000 C   0  0  0  0  0  0  0  0  0  0  0  0
    4.7950   -1.2175    0.0000 C   0  0  0  0  0  0  0  0  0  0  0  0
    3.8608    3.0797    0.0000 C   0  0  0  0  0  0  0  0  0  0  0  0
    9.0476   -2.3727    0.0000 C   0  0  0  0  0  0  0  0  0  0  0  0
    7.5265   -2.9244    0.0000 C   0  0  0  0  0  0  0  0  0  0  0  0
    8.4874   -3.2011    0.0000 C   0  0  0  0  0  0  0  0  0  0  0  0
    3.3236    1.3616    0.0000 C   0  0  0  0  0  0  0  0  0  0  0  0
    3.0918    2.3771    0.0000 C   0  0  0  0  0  0  0  0  0  0  0  0
    7.6646    2.0990    0.0000 H   0  0  0  0  0  0  0  0  0  0  0  0
    5.2354    0.9292    0.0000 H   0  0  0  0  0  0  0  0  0  0  0  0
    8.3477    1.0622    0.0000 H   0  0  0  0  0  0  0  0  0  0  0  0
    7.9931    1.7773    0.0000 H   0  0  0  0  0  0  0  0  0  0  0  0
    7.8450   -0.4267    0.0000 H   0  0  0  0  0  0  0  0  0  0  0  0
    8.2921    0.2346    0.0000 H   0  0  0  0  0  0  0  0  0  0  0  0
    7.0334    3.8082    0.0000 H   0  0  0  0  0  0  0  0  0  0  0  0
    6.3368    4.1436    0.0000 H   0  0  0  0  0  0  0  0  0  0  0  0
    5.6128    4.1436    0.0000 H   0  0  0  0  0  0  0  0  0  0  0  0
    4.9162    3.8082    0.0000 H   0  0  0  0  0  0  0  0  0  0  0  0
    4.3873    0.2222    0.0000 H   0  0  0  0  0  0  0  0  0  0  0  0
    8.2112    2.3754    0.0000 H   0  0  0  0  0  0  0  0  0  0  0  0
    8.6777    3.1178    0.0000 H   0  0  0  0  0  0  0  0  0  0  0  0
    7.9352    3.5843    0.0000 H   0  0  0  0  0  0  0  0  0  0  0  0
    4.4662    0.4594    0.0000 H   0  0  0  0  0  0  0  0  0  0  0  0
    5.6380   -2.4537    0.0000 H   0  0  0  0  0  0  0  0  0  0  0  0
    8.9589   -1.2561    0.0000 H   0  0  0  0  0  0  0  0  0  0  0  0
    8.1616   -1.0264    0.0000 H   0  0  0  0  0  0  0  0  0  0  0  0
    4.2334   -1.4800    0.0000 H   0  0  0  0  0  0  0  0  0  0  0  0
    3.7298    3.6857    0.0000 H   0  0  0  0  0  0  0  0  0  0  0  0
    9.5220   -2.7718    0.0000 H   0  0  0  0  0  0  0  0  0  0  0  0
    9.4940   -1.9425    0.0000 H   0  0  0  0  0  0  0  0  0  0  0  0
    8.2545   -3.7757    0.0000 H   0  0  0  0  0  0  0  0  0  0  0  0
    9.0345   -3.4928    0.0000 H   0  0  0  0  0  0  0  0  0  0  0  0
    2.0000    0.8590    0.0000 H   0  0  0  0  0  0  0  0  0  0  0  0
  1 28  1  0  0  0  0
  2 27  1  0  0  0  0
  2 53  1  0  0  0  0
  3 25  2  0  0  0  0
  4  6  1  0  0  0  0
  4 13  1  0  0  0  0
  4 18  1  0  0  0  0
  5 16  1  0  0  0  0
  5 21  1  0  0  0  0
  5 25  1  0  0  0  0
  6  7  1  0  0  0  0
  6  8  1  0  0  0  0
  6 29  1  6  0  0  0
  7  9  1  0  0  0  0
  7 12  1  0  0  0  0
  7 30  1  1  0  0  0
  8 10  1  0  0  0  0
  8 31  1  0  0  0  0
  8 32  1  0  0  0  0
  9 11  2  0  0  0  0
  9 17  1  0  0  0  0
 10 11  1  0  0  0  0
 10 33  1  0  0  0  0
 10 34  1  0  0  0  0
 11 16  1  0  0  0  0
 12 14  1  0  0  0  0
 12 19  2  0  0  0  0
 13 15  1  0  0  0  0
 13 35  1  0  0  0  0
 13 36  1  0  0  0  0
 14 15  1  0  0  0  0
 14 23  2  0  0  0  0
 15 37  1  0  0  0  0
 15 38  1  0  0  0  0
 16 20  2  0  0  0  0
 17 22  2  0  0  0  0
 17 39  1  0  0  0  0
 18 40  1  0  0  0  0
 18 41  1  0  0  0  0
 18 42  1  0  0  0  0
 19 27  1  0  0  0  0
 19 43  1  0  0  0  0
 20 22  1  0  0  0  0
 20 44  1  0  0  0  0
 21 24  1  0  0  0  0
 21 45  1  0  0  0  0
 21 46  1  0  0  0  0
 22 47  1  0  0  0  0
 23 28  1  0  0  0  0
 23 48  1  0  0  0  0
 24 26  1  0  0  0  0
 24 49  1  0  0  0  0
 24 50  1  0  0  0  0
 25 26  1  0  0  0  0
 26 51  1  0  0  0  0
 26 52  1  0  0  0  0
 27 28  2  0  0  0  0
M  END
> <PUBCHEM_COMPOUND_CID>
46231848

> <PUBCHEM_COMPOUND_CANONICALIZED>
1

> <PUBCHEM_CACTVS_COMPLEXITY>
601

> <PUBCHEM_CACTVS_HBOND_ACCEPTOR>
3

> <PUBCHEM_CACTVS_HBOND_DONOR>
1

> <PUBCHEM_CACTVS_ROTATABLE_BOND>
1

> <PUBCHEM_CACTVS_SUBSKEYS>
AAADceB7MAAEAAAAAAAAAAAAAAAAAWAAAAAwYMAABYAAAADBQAAAHgIACAAADS7BmCQyxoMAAgCIAiVSUACCAAAhJ0AIiAEOb4gIJjLDk5OEcAhkxhHI2AeU0PMOpAABYAASCABYAAbAACQQAAAAAAAAAA==

> <PUBCHEM_IUPAC_OPENEYE_NAME>
1-[(6aS,13bS)-11-chloro-12-hydroxy-7-methyl-5,6,6a,8,9,13b-hexahydronaphtho[1,2-a][3]benzazepin-4-yl]pyrrolidin-2-one

> <PUBCHEM_IUPAC_CAS_NAME>
1-[(6aS,13bS)-11-chloro-12-hydroxy-7-methyl-5,6,6a,8,9,13b-hexahydronaphtho[1,2-a][3]benzazepin-4-yl]-2-pyrrolidinone

> <PUBCHEM_IUPAC_NAME_MARKUP>
1-[(6<I>a</I><I>S</I>,13<I>b</I><I>S</I>)-11-chloro-12-hydroxy-7-methyl-5,6,6<I>a</I>,8,9,13<I>b</I>-hexahydronaphtho[1,2-a][3]benzazepin-4-yl]pyrrolidin-2-one

> <PUBCHEM_IUPAC_NAME>
1-[(6aS,13bS)-11-chloro-12-hydroxy-7-methyl-5,6,6a,8,9,13b-hexahydronaphtho[1,2-a][3]benzazepin-4-yl]pyrrolidin-2-one

> <PUBCHEM_IUPAC_SYSTEMATIC_NAME>
1-[(6aS,13bS)-11-chloranyl-7-methyl-12-oxidanyl-5,6,6a,8,9,13b-hexahydronaphtho[1,2-a][3]benzazepin-4-yl]pyrrolidin-2-one

> <PUBCHEM_IUPAC_TRADITIONAL_NAME>
1-[(6aS,13bS)-11-chloro-12-hydroxy-7-methyl-5,6,6a,8,9,13b-hexahydronaphtho[1,2-a][3]benzazepin-4-yl]-2-pyrrolidone

> <PUBCHEM_IUPAC_INCHI>
InChI=1S/C23H25ClN2O2/c1-25-11-9-14-12-18(24)21(27)13-17(14)23-16-4-2-5-19(15(16)7-8-20(23)25)26-10-3-6-22(26)28/h2,4-5,12-13,20,23,27H,3,6-11H2,1H3/t20-,23+/m0/s1

> <PUBCHEM_IUPAC_INCHIKEY>
XVAIBFITQWHLML-NZQKXSOJSA-N

> <PUBCHEM_XLOGP3_AA>
3.9

> <PUBCHEM_EXACT_MASS>
396.1604557

> <PUBCHEM_MOLECULAR_FORMULA>
C23H25ClN2O2

> <PUBCHEM_MOLECULAR_WEIGHT>
396.9

> <PUBCHEM_OPENEYE_CAN_SMILES>
CN1CCC2=CC(=C(C=C2C3C1CCC4=C3C=CC=C4N5CCCC5=O)O)Cl

> <PUBCHEM_OPENEYE_ISO_SMILES>
CN1CCC2=CC(=C(C=C2[C@@H]3[C@@H]1CCC4=C3C=CC=C4N5CCCC5=O)O)Cl

> <PUBCHEM_CACTVS_TPSA>
43.8

> <PUBCHEM_MONOISOTOPIC_WEIGHT>
396.1604557

> <PUBCHEM_TOTAL_CHARGE>
0

> <PUBCHEM_HEAVY_ATOM_COUNT>
28

> <PUBCHEM_ATOM_DEF_STEREO_COUNT>
2

> <PUBCHEM_ATOM_UDEF_STEREO_COUNT>
0

> <PUBCHEM_BOND_DEF_STEREO_COUNT>
0

> <PUBCHEM_BOND_UDEF_STEREO_COUNT>
0

> <PUBCHEM_ISOTOPIC_ATOM_COUNT>
0

> <PUBCHEM_COMPONENT_COUNT>
1

> <PUBCHEM_CACTVS_TAUTO_COUNT>
-1

> <PUBCHEM_COORDINATE_TYPE>
1
5
255

> <PUBCHEM_BONDANNOTATIONS>
11  16  8
12  14  8
12  19  8
14  23  8
16  20  8
17  22  8
19  27  8
20  22  8
23  28  8
27  28  8
6  29  6
7  30  5
9  11  8
9  17  8

$$$$
