46880462
  -OEChem-09292322482D

 61 65  0     1  0  0  0  0  0999 V2000
   10.6603   -1.0000    0.0000 O   0  0  0  0  0  0  0  0  0  0  0  0
    7.1962    3.0000    0.0000 O   0  0  0  0  0  0  0  0  0  0  0  0
    2.8660   -2.5000    0.0000 O   0  0  0  0  0  0  0  0  0  0  0  0
    9.7942    0.5000    0.0000 N   0  0  0  0  0  0  0  0  0  0  0  0
    8.0622    1.5000    0.0000 N   0  0  0  0  0  0  0  0  0  0  0  0
   14.2045    0.1953    0.0000 N   0  0  0  0  0  0  0  0  0  0  0  0
    9.7942    1.5000    0.0000 C   0  0  2  0  0  0  0  0  0  0  0  0
    8.9282    2.0000    0.0000 C   0  0  0  0  0  0  0  0  0  0  0  0
    8.9282   -0.0000    0.0000 C   0  0  0  0  0  0  0  0  0  0  0  0
    8.0622    0.5000    0.0000 C   0  0  0  0  0  0  0  0  0  0  0  0
   10.6603    2.0000    0.0000 C   0  0  0  0  0  0  0  0  0  0  0  0
   10.6603   -0.0000    0.0000 C   0  0  0  0  0  0  0  0  0  0  0  0
    7.1962    2.0000    0.0000 C   0  0  0  0  0  0  0  0  0  0  0  0
   11.5263    0.5000    0.0000 C   0  0  0  0  0  0  0  0  0  0  0  0
    6.3301    1.5000    0.0000 C   0  0  0  0  0  0  0  0  0  0  0  0
   12.3923   -0.0000    0.0000 C   0  0  0  0  0  0  0  0  0  0  0  0
   11.5263    1.5000    0.0000 C   0  0  0  0  0  0  0  0  0  0  0  0
   13.2583    0.5000    0.0000 C   0  0  0  0  0  0  0  0  0  0  0  0
    5.4641    2.0000    0.0000 C   0  0  0  0  0  0  0  0  0  0  0  0
    6.3301    0.5000    0.0000 C   0  0  0  0  0  0  0  0  0  0  0  0
   13.2583    1.5000    0.0000 C   0  0  0  0  0  0  0  0  0  0  0  0
   12.3923    2.0000    0.0000 C   0  0  0  0  0  0  0  0  0  0  0  0
    4.5981    0.5000    0.0000 C   0  0  0  0  0  0  0  0  0  0  0  0
    4.5981    1.5000    0.0000 C   0  0  0  0  0  0  0  0  0  0  0  0
    5.4641    0.0000    0.0000 C   0  0  0  0  0  0  0  0  0  0  0  0
   14.2045    1.8047    0.0000 C   0  0  0  0  0  0  0  0  0  0  0  0
   14.7882    1.0000    0.0000 C   0  0  0  0  0  0  0  0  0  0  0  0
    3.7320    0.0000    0.0000 C   0  0  0  0  0  0  0  0  0  0  0  0
    3.7320   -1.0000    0.0000 C   0  0  0  0  0  0  0  0  0  0  0  0
    2.8660    0.5000    0.0000 C   0  0  0  0  0  0  0  0  0  0  0  0
    2.8660   -1.5000    0.0000 C   0  0  0  0  0  0  0  0  0  0  0  0
    2.0000    0.0000    0.0000 C   0  0  0  0  0  0  0  0  0  0  0  0
    2.0000   -1.0000    0.0000 C   0  0  0  0  0  0  0  0  0  0  0  0
    2.0000   -3.0000    0.0000 C   0  0  0  0  0  0  0  0  0  0  0  0
   10.3312    1.1900    0.0000 H   0  0  0  0  0  0  0  0  0  0  0  0
    9.3267    2.4750    0.0000 H   0  0  0  0  0  0  0  0  0  0  0  0
    8.5297    2.4750    0.0000 H   0  0  0  0  0  0  0  0  0  0  0  0
    8.5297   -0.4749    0.0000 H   0  0  0  0  0  0  0  0  0  0  0  0
    9.3267   -0.4749    0.0000 H   0  0  0  0  0  0  0  0  0  0  0  0
    7.4516    0.6077    0.0000 H   0  0  0  0  0  0  0  0  0  0  0  0
    7.8501   -0.0826    0.0000 H   0  0  0  0  0  0  0  0  0  0  0  0
   10.9703    1.4631    0.0000 H   0  0  0  0  0  0  0  0  0  0  0  0
   11.1972    2.3100    0.0000 H   0  0  0  0  0  0  0  0  0  0  0  0
   10.3503    2.5369    0.0000 H   0  0  0  0  0  0  0  0  0  0  0  0
   12.3923   -0.6200    0.0000 H   0  0  0  0  0  0  0  0  0  0  0  0
   10.9893    1.8100    0.0000 H   0  0  0  0  0  0  0  0  0  0  0  0
    5.4641    2.6200    0.0000 H   0  0  0  0  0  0  0  0  0  0  0  0
    6.8671    0.1900    0.0000 H   0  0  0  0  0  0  0  0  0  0  0  0
   12.3923    2.6200    0.0000 H   0  0  0  0  0  0  0  0  0  0  0  0
    4.0611    1.8100    0.0000 H   0  0  0  0  0  0  0  0  0  0  0  0
    5.4641   -0.6200    0.0000 H   0  0  0  0  0  0  0  0  0  0  0  0
   14.3972   -0.3941    0.0000 H   0  0  0  0  0  0  0  0  0  0  0  0
   14.3972    2.3940    0.0000 H   0  0  0  0  0  0  0  0  0  0  0  0
   15.4082    1.0000    0.0000 H   0  0  0  0  0  0  0  0  0  0  0  0
    4.2690   -1.3100    0.0000 H   0  0  0  0  0  0  0  0  0  0  0  0
    2.8660    1.1200    0.0000 H   0  0  0  0  0  0  0  0  0  0  0  0
    1.4631    0.3100    0.0000 H   0  0  0  0  0  0  0  0  0  0  0  0
    1.4631   -1.3100    0.0000 H   0  0  0  0  0  0  0  0  0  0  0  0
    1.6900   -2.4631    0.0000 H   0  0  0  0  0  0  0  0  0  0  0  0
    1.4631   -3.3100    0.0000 H   0  0  0  0  0  0  0  0  0  0  0  0
    2.3100   -3.5369    0.0000 H   0  0  0  0  0  0  0  0  0  0  0  0
  1 12  2  0  0  0  0
  2 13  2  0  0  0  0
  3 31  1  0  0  0  0
  3 34  1  0  0  0  0
  4  7  1  0  0  0  0
  4  9  1  0  0  0  0
  4 12  1  0  0  0  0
  5  8  1  0  0  0  0
  5 10  1  0  0  0  0
  5 13  1  0  0  0  0
  6 18  1  0  0  0  0
  6 27  1  0  0  0  0
  6 52  1  0  0  0  0
  7  8  1  0  0  0  0
  7 11  1  6  0  0  0
  7 35  1  0  0  0  0
  8 36  1  0  0  0  0
  8 37  1  0  0  0  0
  9 10  1  0  0  0  0
  9 38  1  0  0  0  0
  9 39  1  0  0  0  0
 10 40  1  0  0  0  0
 10 41  1  0  0  0  0
 11 42  1  0  0  0  0
 11 43  1  0  0  0  0
 11 44  1  0  0  0  0
 12 14  1  0  0  0  0
 13 15  1  0  0  0  0
 14 16  2  0  0  0  0
 14 17  1  0  0  0  0
 15 19  2  0  0  0  0
 15 20  1  0  0  0  0
 16 18  1  0  0  0  0
 16 45  1  0  0  0  0
 17 22  2  0  0  0  0
 17 46  1  0  0  0  0
 18 21  2  0  0  0  0
 19 24  1  0  0  0  0
 19 47  1  0  0  0  0
 20 25  2  0  0  0  0
 20 48  1  0  0  0  0
 21 22  1  0  0  0  0
 21 26  1  0  0  0  0
 22 49  1  0  0  0  0
 23 24  2  0  0  0  0
 23 25  1  0  0  0  0
 23 28  1  0  0  0  0
 24 50  1  0  0  0  0
 25 51  1  0  0  0  0
 26 27  2  0  0  0  0
 26 53  1  0  0  0  0
 27 54  1  0  0  0  0
 28 29  2  0  0  0  0
 28 30  1  0  0  0  0
 29 31  1  0  0  0  0
 29 55  1  0  0  0  0
 30 32  2  0  0  0  0
 30 56  1  0  0  0  0
 31 33  2  0  0  0  0
 32 33  1  0  0  0  0
 32 57  1  0  0  0  0
 33 58  1  0  0  0  0
 34 59  1  0  0  0  0
 34 60  1  0  0  0  0
 34 61  1  0  0  0  0
M  END
> <PUBCHEM_COMPOUND_CID>
46880462

> <PUBCHEM_COMPOUND_CANONICALIZED>
1

> <PUBCHEM_CACTVS_COMPLEXITY>
722

> <PUBCHEM_CACTVS_HBOND_ACCEPTOR>
3

> <PUBCHEM_CACTVS_HBOND_DONOR>
1

> <PUBCHEM_CACTVS_ROTATABLE_BOND>
4

> <PUBCHEM_CACTVS_SUBSKEYS>
AAADceB7MAAAAAAAAAAAAAAAAAAAAWAAAAA8YMEAAAAAAFgB9AAAHgAQAAAADCzBngY+xvPJlACoAzV3VACCiCA1IiAI2aE+bNgMZvLEtZuUMShk1hHI6YecyPCOwAABQAACAACAAAKAAAQAAAAAAAAAAA==

> <PUBCHEM_IUPAC_OPENEYE_NAME>
[(3S)-4-(1H-indole-6-carbonyl)-3-methyl-piperazin-1-yl]-[4-(3-methoxyphenyl)phenyl]methanone

> <PUBCHEM_IUPAC_CAS_NAME>
[(3S)-4-[1H-indol-6-yl(oxo)methyl]-3-methyl-1-piperazinyl]-[4-(3-methoxyphenyl)phenyl]methanone

> <PUBCHEM_IUPAC_NAME_MARKUP>
[(3<I>S</I>)-4-(1<I>H</I>-indole-6-carbonyl)-3-methylpiperazin-1-yl]-[4-(3-methoxyphenyl)phenyl]methanone

> <PUBCHEM_IUPAC_NAME>
[(3S)-4-(1H-indole-6-carbonyl)-3-methylpiperazin-1-yl]-[4-(3-methoxyphenyl)phenyl]methanone

> <PUBCHEM_IUPAC_SYSTEMATIC_NAME>
[(3S)-4-(1H-indol-6-ylcarbonyl)-3-methyl-piperazin-1-yl]-[4-(3-methoxyphenyl)phenyl]methanone

> <PUBCHEM_IUPAC_TRADITIONAL_NAME>
[(3S)-4-(1H-indole-6-carbonyl)-3-methyl-piperazino]-[4-(3-methoxyphenyl)phenyl]methanone

> <PUBCHEM_IUPAC_INCHI>
InChI=1S/C28H27N3O3/c1-19-18-30(14-15-31(19)28(33)24-11-8-21-12-13-29-26(21)17-24)27(32)22-9-6-20(7-10-22)23-4-3-5-25(16-23)34-2/h3-13,16-17,19,29H,14-15,18H2,1-2H3/t19-/m0/s1

> <PUBCHEM_IUPAC_INCHIKEY>
YNLYAYGRKYOTBJ-IBGZPJMESA-N

> <PUBCHEM_XLOGP3_AA>
4.5

> <PUBCHEM_EXACT_MASS>
453.20524173

> <PUBCHEM_MOLECULAR_FORMULA>
C28H27N3O3

> <PUBCHEM_MOLECULAR_WEIGHT>
453.5

> <PUBCHEM_OPENEYE_CAN_SMILES>
CC1CN(CCN1C(=O)C2=CC3=C(C=C2)C=CN3)C(=O)C4=CC=C(C=C4)C5=CC(=CC=C5)OC

> <PUBCHEM_OPENEYE_ISO_SMILES>
C[C@H]1CN(CCN1C(=O)C2=CC3=C(C=C2)C=CN3)C(=O)C4=CC=C(C=C4)C5=CC(=CC=C5)OC

> <PUBCHEM_CACTVS_TPSA>
65.6

> <PUBCHEM_MONOISOTOPIC_WEIGHT>
453.20524173

> <PUBCHEM_TOTAL_CHARGE>
0

> <PUBCHEM_HEAVY_ATOM_COUNT>
34

> <PUBCHEM_ATOM_DEF_STEREO_COUNT>
1

> <PUBCHEM_ATOM_UDEF_STEREO_COUNT>
0

> <PUBCHEM_BOND_DEF_STEREO_COUNT>
0

> <PUBCHEM_BOND_UDEF_STEREO_COUNT>
0

> <PUBCHEM_ISOTOPIC_ATOM_COUNT>
0

> <PUBCHEM_COMPONENT_COUNT>
1

> <PUBCHEM_CACTVS_TAUTO_COUNT>
-1

> <PUBCHEM_COORDINATE_TYPE>
1
5
255

> <PUBCHEM_BONDANNOTATIONS>
14  16  8
14  17  8
15  19  8
15  20  8
16  18  8
17  22  8
18  21  8
19  24  8
20  25  8
21  22  8
21  26  8
23  24  8
23  25  8
26  27  8
28  29  8
28  30  8
29  31  8
30  32  8
31  33  8
32  33  8
6  18  8
6  27  8
7  11  6

$$$$
