45261754
  -OEChem-09292322132D

 48 50  0     1  0  0  0  0  0999 V2000
    4.4903    0.0000    0.0000 Br  0  0  0  0  0  0  0  0  0  0  0  0
    6.7788    3.4966    0.0000 O   0  0  0  0  0  0  0  0  0  0  0  0
    3.3147    3.4966    0.0000 N   0  0  0  0  0  0  0  0  0  0  0  0
    1.5826    3.4966    0.0000 C   0  0  0  0  0  0  0  0  0  0  0  0
    5.0467    4.4966    0.0000 C   0  0  0  0  0  0  0  0  0  0  0  0
    1.0826    4.3627    0.0000 C   0  0  0  0  0  0  0  0  0  0  0  0
    0.5826    3.4966    0.0000 C   0  0  0  0  0  0  0  0  0  0  0  0
    2.4486    2.9966    0.0000 C   0  0  0  0  0  0  0  0  0  0  0  0
    5.0467    3.4966    0.0000 C   0  0  0  0  0  0  0  0  0  0  0  0
    4.1807    4.9966    0.0000 C   0  0  0  0  0  0  0  0  0  0  0  0
    5.9127    4.9966    0.0000 C   0  0  3  0  0  0  0  0  0  0  0  0
    4.1807    2.9966    0.0000 C   0  0  0  0  0  0  0  0  0  0  0  0
    3.3147    4.4966    0.0000 C   0  0  0  0  0  0  0  0  0  0  0  0
    5.9127    5.9966    0.0000 C   0  0  0  0  0  0  0  0  0  0  0  0
    6.7788    4.4966    0.0000 C   0  0  0  0  0  0  0  0  0  0  0  0
    6.7788    6.4966    0.0000 C   0  0  0  0  0  0  0  0  0  0  0  0
    7.6448    4.9966    0.0000 C   0  0  0  0  0  0  0  0  0  0  0  0
    7.6448    5.9966    0.0000 C   0  0  0  0  0  0  0  0  0  0  0  0
    8.5387    4.4620    0.0000 C   0  0  0  0  0  0  0  0  0  0  0  0
    8.5387    6.5313    0.0000 C   0  0  0  0  0  0  0  0  0  0  0  0
    9.4448    4.9758    0.0000 C   0  0  0  0  0  0  0  0  0  0  0  0
    9.4448    6.0174    0.0000 C   0  0  0  0  0  0  0  0  0  0  0  0
    1.4221    2.8978    0.0000 H   0  0  0  0  0  0  0  0  0  0  0  0
    5.5836    4.1866    0.0000 H   0  0  0  0  0  0  0  0  0  0  0  0
    1.5576    4.7612    0.0000 H   0  0  0  0  0  0  0  0  0  0  0  0
    0.6077    4.7612    0.0000 H   0  0  0  0  0  0  0  0  0  0  0  0
    0.0000    3.7087    0.0000 H   0  0  0  0  0  0  0  0  0  0  0  0
    0.4749    2.8860    0.0000 H   0  0  0  0  0  0  0  0  0  0  0  0
    2.0501    2.5217    0.0000 H   0  0  0  0  0  0  0  0  0  0  0  0
    2.8472    2.5217    0.0000 H   0  0  0  0  0  0  0  0  0  0  0  0
    5.2588    2.9140    0.0000 H   0  0  0  0  0  0  0  0  0  0  0  0
    5.6573    3.6043    0.0000 H   0  0  0  0  0  0  0  0  0  0  0  0
    4.5792    5.4716    0.0000 H   0  0  0  0  0  0  0  0  0  0  0  0
    3.7822    5.4716    0.0000 H   0  0  0  0  0  0  0  0  0  0  0  0
    5.3758    5.3066    0.0000 H   0  0  0  0  0  0  0  0  0  0  0  0
    3.7822    2.5217    0.0000 H   0  0  0  0  0  0  0  0  0  0  0  0
    4.5792    2.5217    0.0000 H   0  0  0  0  0  0  0  0  0  0  0  0
    3.1026    5.0792    0.0000 H   0  0  0  0  0  0  0  0  0  0  0  0
    2.7041    4.3890    0.0000 H   0  0  0  0  0  0  0  0  0  0  0  0
    5.7007    6.5792    0.0000 H   0  0  0  0  0  0  0  0  0  0  0  0
    5.3022    5.8890    0.0000 H   0  0  0  0  0  0  0  0  0  0  0  0
    7.1773    6.9716    0.0000 H   0  0  0  0  0  0  0  0  0  0  0  0
    6.3802    6.9716    0.0000 H   0  0  0  0  0  0  0  0  0  0  0  0
    8.5316    3.8420    0.0000 H   0  0  0  0  0  0  0  0  0  0  0  0
    8.5316    7.1512    0.0000 H   0  0  0  0  0  0  0  0  0  0  0  0
    9.9805    4.6638    0.0000 H   0  0  0  0  0  0  0  0  0  0  0  0
    9.9805    6.3295    0.0000 H   0  0  0  0  0  0  0  0  0  0  0  0
    5.4903    0.0000    0.0000 H   0  0  0  0  0  0  0  0  0  0  0  0
  1 48  1  0  0  0  0
  2 15  2  0  0  0  0
  3  8  1  0  0  0  0
  3 12  1  0  0  0  0
  3 13  1  0  0  0  0
  4  6  1  0  0  0  0
  4  7  1  0  0  0  0
  4  8  1  0  0  0  0
  4 23  1  0  0  0  0
  5  9  1  0  0  0  0
  5 10  1  0  0  0  0
  5 11  1  0  0  0  0
  5 24  1  0  0  0  0
  6  7  1  0  0  0  0
  6 25  1  0  0  0  0
  6 26  1  0  0  0  0
  7 27  1  0  0  0  0
  7 28  1  0  0  0  0
  8 29  1  0  0  0  0
  8 30  1  0  0  0  0
  9 12  1  0  0  0  0
  9 31  1  0  0  0  0
  9 32  1  0  0  0  0
 10 13  1  0  0  0  0
 10 33  1  0  0  0  0
 10 34  1  0  0  0  0
 11 14  1  0  0  0  0
 11 15  1  0  0  0  0
 11 35  1  0  0  0  0
 12 36  1  0  0  0  0
 12 37  1  0  0  0  0
 13 38  1  0  0  0  0
 13 39  1  0  0  0  0
 14 16  1  0  0  0  0
 14 40  1  0  0  0  0
 14 41  1  0  0  0  0
 15 17  1  0  0  0  0
 16 18  1  0  0  0  0
 16 42  1  0  0  0  0
 16 43  1  0  0  0  0
 17 18  1  0  0  0  0
 17 19  2  0  0  0  0
 18 20  2  0  0  0  0
 19 21  1  0  0  0  0
 19 44  1  0  0  0  0
 20 22  1  0  0  0  0
 20 45  1  0  0  0  0
 21 22  2  0  0  0  0
 21 46  1  0  0  0  0
 22 47  1  0  0  0  0
M  END
> <PUBCHEM_COMPOUND_CID>
45261754

> <PUBCHEM_COMPOUND_CANONICALIZED>
1

> <PUBCHEM_CACTVS_COMPLEXITY>
381

> <PUBCHEM_CACTVS_HBOND_ACCEPTOR>
2

> <PUBCHEM_CACTVS_HBOND_DONOR>
1

> <PUBCHEM_CACTVS_ROTATABLE_BOND>
3

> <PUBCHEM_CACTVS_SUBSKEYS>
AAADceB6IAAAEAAAAAAAAAAAGAAAAAAAAAA8YIAAAAAAAADBAAAAHgAAAAAADQTBmAQwAIMAAACIAqBSAAACAAAkAAAIiAEIAMgIIDKAlRCEIQAggACIiYcYicCOgAAAAAAQAACAAAQAACAAAAAAAAAAAA==

> <PUBCHEM_IUPAC_OPENEYE_NAME>
2-[1-(cyclopropylmethyl)-4-piperidyl]tetralin-1-one;hydrobromide

> <PUBCHEM_IUPAC_CAS_NAME>
2-[1-(cyclopropylmethyl)-4-piperidinyl]-3,4-dihydro-2H-naphthalen-1-one;hydrobromide

> <PUBCHEM_IUPAC_NAME_MARKUP>
2-[1-(cyclopropylmethyl)piperidin-4-yl]-3,4-dihydro-2<I>H</I>-naphthalen-1-one;hydrobromide

> <PUBCHEM_IUPAC_NAME>
2-[1-(cyclopropylmethyl)piperidin-4-yl]-3,4-dihydro-2H-naphthalen-1-one;hydrobromide

> <PUBCHEM_IUPAC_SYSTEMATIC_NAME>
2-[1-(cyclopropylmethyl)piperidin-4-yl]-3,4-dihydro-2H-naphthalen-1-one;hydrobromide

> <PUBCHEM_IUPAC_TRADITIONAL_NAME>
2-[1-(cyclopropylmethyl)-4-piperidyl]tetralin-1-one;hydrobromide

> <PUBCHEM_IUPAC_INCHI>
InChI=1S/C19H25NO.BrH/c21-19-17-4-2-1-3-15(17)7-8-18(19)16-9-11-20(12-10-16)13-14-5-6-14;/h1-4,14,16,18H,5-13H2;1H

> <PUBCHEM_IUPAC_INCHIKEY>
QBFQIXKRWLPUCL-UHFFFAOYSA-N

> <PUBCHEM_EXACT_MASS>
363.11978

> <PUBCHEM_MOLECULAR_FORMULA>
C19H26BrNO

> <PUBCHEM_MOLECULAR_WEIGHT>
364.3

> <PUBCHEM_OPENEYE_CAN_SMILES>
C1CC1CN2CCC(CC2)C3CCC4=CC=CC=C4C3=O.Br

> <PUBCHEM_OPENEYE_ISO_SMILES>
C1CC1CN2CCC(CC2)C3CCC4=CC=CC=C4C3=O.Br

> <PUBCHEM_CACTVS_TPSA>
20.3

> <PUBCHEM_MONOISOTOPIC_WEIGHT>
363.11978

> <PUBCHEM_TOTAL_CHARGE>
0

> <PUBCHEM_HEAVY_ATOM_COUNT>
22

> <PUBCHEM_ATOM_DEF_STEREO_COUNT>
0

> <PUBCHEM_ATOM_UDEF_STEREO_COUNT>
1

> <PUBCHEM_BOND_DEF_STEREO_COUNT>
0

> <PUBCHEM_BOND_UDEF_STEREO_COUNT>
0

> <PUBCHEM_ISOTOPIC_ATOM_COUNT>
0

> <PUBCHEM_COMPONENT_COUNT>
2

> <PUBCHEM_CACTVS_TAUTO_COUNT>
-1

> <PUBCHEM_COORDINATE_TYPE>
1
5
255

> <PUBCHEM_BONDANNOTATIONS>
17  18  8
17  19  8
18  20  8
19  21  8
20  22  8
21  22  8
11  5  3

$$$$
