10585771
  -OEChem-09292322522D

 35 36  0     1  0  0  0  0  0999 V2000
    5.1491   -2.0649    0.0000 O   0  0  0  0  0  0  0  0  0  0  0  0
    4.2724    1.4596    0.0000 O   0  0  0  0  0  0  0  0  0  0  0  0
    6.8811   -0.0649    0.0000 N   0  0  0  0  0  0  0  0  0  0  0  0
    2.5405    1.4796    0.0000 N   0  0  0  0  0  0  0  0  0  0  0  0
    6.0151   -0.5649    0.0000 C   0  0  2  0  0  0  0  0  0  0  0  0
    5.1491   -0.0649    0.0000 C   0  0  0  0  0  0  0  0  0  0  0  0
    6.0151   -1.5649    0.0000 C   0  0  0  0  0  0  0  0  0  0  0  0
    4.2830   -0.5649    0.0000 C   0  0  0  0  0  0  0  0  0  0  0  0
    4.2830   -1.5649    0.0000 C   0  0  0  0  0  0  0  0  0  0  0  0
    7.7472   -0.5649    0.0000 C   0  0  0  0  0  0  0  0  0  0  0  0
    3.3891   -0.0303    0.0000 C   0  0  0  0  0  0  0  0  0  0  0  0
    8.6132   -0.0649    0.0000 C   0  0  0  0  0  0  0  0  0  0  0  0
    3.3891   -2.0996    0.0000 C   0  0  0  0  0  0  0  0  0  0  0  0
    2.4830   -0.5441    0.0000 C   0  0  0  0  0  0  0  0  0  0  0  0
    2.4830   -1.5858    0.0000 C   0  0  0  0  0  0  0  0  0  0  0  0
    3.4007    0.9697    0.0000 C   0  0  0  0  0  0  0  0  0  0  0  0
    9.4792   -0.5649    0.0000 C   0  0  0  0  0  0  0  0  0  0  0  0
    6.5520   -0.8749    0.0000 H   0  0  0  0  0  0  0  0  0  0  0  0
    5.5476    0.4100    0.0000 H   0  0  0  0  0  0  0  0  0  0  0  0
    4.7505    0.4100    0.0000 H   0  0  0  0  0  0  0  0  0  0  0  0
    6.2272   -2.1476    0.0000 H   0  0  0  0  0  0  0  0  0  0  0  0
    6.6257   -1.4573    0.0000 H   0  0  0  0  0  0  0  0  0  0  0  0
    6.8811    0.5551    0.0000 H   0  0  0  0  0  0  0  0  0  0  0  0
    7.3486   -1.0399    0.0000 H   0  0  0  0  0  0  0  0  0  0  0  0
    8.1457   -1.0399    0.0000 H   0  0  0  0  0  0  0  0  0  0  0  0
    9.0117    0.4100    0.0000 H   0  0  0  0  0  0  0  0  0  0  0  0
    8.2146    0.4100    0.0000 H   0  0  0  0  0  0  0  0  0  0  0  0
    3.3963   -2.7196    0.0000 H   0  0  0  0  0  0  0  0  0  0  0  0
    1.9473   -0.2321    0.0000 H   0  0  0  0  0  0  0  0  0  0  0  0
    1.9473   -1.8978    0.0000 H   0  0  0  0  0  0  0  0  0  0  0  0
    9.1692   -1.1019    0.0000 H   0  0  0  0  0  0  0  0  0  0  0  0
   10.0161   -0.8749    0.0000 H   0  0  0  0  0  0  0  0  0  0  0  0
    9.7892   -0.0280    0.0000 H   0  0  0  0  0  0  0  0  0  0  0  0
    2.5476    2.0996    0.0000 H   0  0  0  0  0  0  0  0  0  0  0  0
    2.0000    1.1759    0.0000 H   0  0  0  0  0  0  0  0  0  0  0  0
  1  7  1  0  0  0  0
  1  9  1  0  0  0  0
  2 16  2  0  0  0  0
  5  3  1  1  0  0  0
  3 10  1  0  0  0  0
  3 23  1  0  0  0  0
  4 16  1  0  0  0  0
  4 34  1  0  0  0  0
  4 35  1  0  0  0  0
  5  6  1  0  0  0  0
  5  7  1  0  0  0  0
  5 18  1  0  0  0  0
  6  8  1  0  0  0  0
  6 19  1  0  0  0  0
  6 20  1  0  0  0  0
  7 21  1  0  0  0  0
  7 22  1  0  0  0  0
  8  9  1  0  0  0  0
  8 11  2  0  0  0  0
  9 13  2  0  0  0  0
 10 12  1  0  0  0  0
 10 24  1  0  0  0  0
 10 25  1  0  0  0  0
 11 14  1  0  0  0  0
 11 16  1  0  0  0  0
 12 17  1  0  0  0  0
 12 26  1  0  0  0  0
 12 27  1  0  0  0  0
 13 15  1  0  0  0  0
 13 28  1  0  0  0  0
 14 15  2  0  0  0  0
 14 29  1  0  0  0  0
 15 30  1  0  0  0  0
 17 31  1  0  0  0  0
 17 32  1  0  0  0  0
 17 33  1  0  0  0  0
M  END
> <PUBCHEM_COMPOUND_CID>
10585771

> <PUBCHEM_COMPOUND_CANONICALIZED>
1

> <PUBCHEM_CACTVS_COMPLEXITY>
270

> <PUBCHEM_CACTVS_HBOND_ACCEPTOR>
3

> <PUBCHEM_CACTVS_HBOND_DONOR>
2

> <PUBCHEM_CACTVS_ROTATABLE_BOND>
4

> <PUBCHEM_CACTVS_SUBSKEYS>
AAADceBzMAAAAAAAAAAAAAAAAAAAAAAAAAA0QAAAAAAAAACRAAAAHgAQAAAADCzhmAYyBoLABACIAiFSEACCCAAkIAAIiIEODMgOJjKEtRuHOSDk0BGYqYe6ybCegAABAAAYAAAAAAIAADAAAAAAAAAAAA==

> <PUBCHEM_IUPAC_OPENEYE_NAME>
(3R)-3-(propylamino)chromane-5-carboxamide

> <PUBCHEM_IUPAC_CAS_NAME>
(3R)-3-(propylamino)-3,4-dihydro-2H-1-benzopyran-5-carboxamide

> <PUBCHEM_IUPAC_NAME_MARKUP>
(3<I>R</I>)-3-(propylamino)-3,4-dihydro-2<I>H</I>-chromene-5-carboxamide

> <PUBCHEM_IUPAC_NAME>
(3R)-3-(propylamino)-3,4-dihydro-2H-chromene-5-carboxamide

> <PUBCHEM_IUPAC_SYSTEMATIC_NAME>
(3R)-3-(propylamino)-3,4-dihydro-2H-chromene-5-carboxamide

> <PUBCHEM_IUPAC_TRADITIONAL_NAME>
(3R)-3-(propylamino)chroman-5-carboxamide

> <PUBCHEM_IUPAC_INCHI>
InChI=1S/C13H18N2O2/c1-2-6-15-9-7-11-10(13(14)16)4-3-5-12(11)17-8-9/h3-5,9,15H,2,6-8H2,1H3,(H2,14,16)/t9-/m1/s1

> <PUBCHEM_IUPAC_INCHIKEY>
KARBJGIUTPWBET-SECBINFHSA-N

> <PUBCHEM_XLOGP3_AA>
1.3

> <PUBCHEM_EXACT_MASS>
234.136827821

> <PUBCHEM_MOLECULAR_FORMULA>
C13H18N2O2

> <PUBCHEM_MOLECULAR_WEIGHT>
234.29

> <PUBCHEM_OPENEYE_CAN_SMILES>
CCCNC1CC2=C(C=CC=C2OC1)C(=O)N

> <PUBCHEM_OPENEYE_ISO_SMILES>
CCCN[C@@H]1CC2=C(C=CC=C2OC1)C(=O)N

> <PUBCHEM_CACTVS_TPSA>
64.4

> <PUBCHEM_MONOISOTOPIC_WEIGHT>
234.136827821

> <PUBCHEM_TOTAL_CHARGE>
0

> <PUBCHEM_HEAVY_ATOM_COUNT>
17

> <PUBCHEM_ATOM_DEF_STEREO_COUNT>
1

> <PUBCHEM_ATOM_UDEF_STEREO_COUNT>
0

> <PUBCHEM_BOND_DEF_STEREO_COUNT>
0

> <PUBCHEM_BOND_UDEF_STEREO_COUNT>
0

> <PUBCHEM_ISOTOPIC_ATOM_COUNT>
0

> <PUBCHEM_COMPONENT_COUNT>
1

> <PUBCHEM_CACTVS_TAUTO_COUNT>
-1

> <PUBCHEM_COORDINATE_TYPE>
1
5
255

> <PUBCHEM_BONDANNOTATIONS>
11  14  8
13  15  8
14  15  8
5  3  5
8  11  8
8  9  8
9  13  8

$$$$
