71456783
  -OEChem-09292322332D

 56 59  0     1  0  0  0  0  0999 V2000
    4.3511   -1.4197    0.0000 S   0  0  0  0  0  0  0  0  0  0  0  0
    2.0000   -4.6558    0.0000 F   0  0  0  0  0  0  0  0  0  0  0  0
    9.2482    1.6212    0.0000 O   0  0  0  0  0  0  0  0  0  0  0  0
    3.5421   -0.8320    0.0000 O   0  0  0  0  0  0  0  0  0  0  0  0
    5.1602   -2.0075    0.0000 O   0  0  0  0  0  0  0  0  0  0  0  0
    7.5161   -0.3788    0.0000 N   0  0  3  0  0  0  0  0  0  0  0  0
    4.9389   -0.6107    0.0000 N   0  0  0  0  0  0  0  0  0  0  0  0
    5.9334   -0.7153    0.0000 C   0  0  3  0  0  0  0  0  0  0  0  0
    6.6026    0.0279    0.0000 C   0  0  0  0  0  0  0  0  0  0  0  0
    6.4334   -1.5813    0.0000 C   0  0  0  0  0  0  0  0  0  0  0  0
    7.4116   -1.3734    0.0000 C   0  0  0  0  0  0  0  0  0  0  0  0
    8.3822    0.1212    0.0000 C   0  0  0  0  0  0  0  0  0  0  0  0
    8.3822    1.1212    0.0000 C   0  0  0  0  0  0  0  0  0  0  0  0
   10.1142    3.1212    0.0000 C   0  0  0  0  0  0  0  0  0  0  0  0
   11.0081    2.5865    0.0000 C   0  0  0  0  0  0  0  0  0  0  0  0
   11.9142    3.1003    0.0000 C   0  0  0  0  0  0  0  0  0  0  0  0
   11.9142    4.1420    0.0000 C   0  0  0  0  0  0  0  0  0  0  0  0
   11.0081    4.6558    0.0000 C   0  0  0  0  0  0  0  0  0  0  0  0
   10.1142    4.1212    0.0000 C   0  0  0  0  0  0  0  0  0  0  0  0
    9.2482    2.6212    0.0000 C   0  0  0  0  0  0  0  0  0  0  0  0
    3.7634   -2.2288    0.0000 C   0  0  0  0  0  0  0  0  0  0  0  0
    9.2482    4.6212    0.0000 C   0  0  0  0  0  0  0  0  0  0  0  0
    8.3822    3.1212    0.0000 C   0  0  0  0  0  0  0  0  0  0  0  0
    8.3822    4.1212    0.0000 C   0  0  0  0  0  0  0  0  0  0  0  0
    4.1701   -3.1423    0.0000 C   0  0  0  0  0  0  0  0  0  0  0  0
    2.7688   -2.1242    0.0000 C   0  0  0  0  0  0  0  0  0  0  0  0
    3.5823   -3.9513    0.0000 C   0  0  0  0  0  0  0  0  0  0  0  0
    2.1810   -2.9332    0.0000 C   0  0  0  0  0  0  0  0  0  0  0  0
    2.5878   -3.8468    0.0000 C   0  0  0  0  0  0  0  0  0  0  0  0
    5.5958   -1.2352    0.0000 H   0  0  0  0  0  0  0  0  0  0  0  0
    6.9126    0.5648    0.0000 H   0  0  0  0  0  0  0  0  0  0  0  0
    6.1010    0.3923    0.0000 H   0  0  0  0  0  0  0  0  0  0  0  0
    5.8670   -1.8335    0.0000 H   0  0  0  0  0  0  0  0  0  0  0  0
    6.6250   -2.1709    0.0000 H   0  0  0  0  0  0  0  0  0  0  0  0
    7.4764   -1.9900    0.0000 H   0  0  0  0  0  0  0  0  0  0  0  0
    8.0316   -1.3734    0.0000 H   0  0  0  0  0  0  0  0  0  0  0  0
    8.5942   -0.4615    0.0000 H   0  0  0  0  0  0  0  0  0  0  0  0
    8.9927    0.2288    0.0000 H   0  0  0  0  0  0  0  0  0  0  0  0
    4.6868   -0.0443    0.0000 H   0  0  0  0  0  0  0  0  0  0  0  0
    8.1701    1.7038    0.0000 H   0  0  0  0  0  0  0  0  0  0  0  0
    7.7716    1.0135    0.0000 H   0  0  0  0  0  0  0  0  0  0  0  0
   10.6035    2.1167    0.0000 H   0  0  0  0  0  0  0  0  0  0  0  0
   11.4018    2.1075    0.0000 H   0  0  0  0  0  0  0  0  0  0  0  0
   12.1233    2.5166    0.0000 H   0  0  0  0  0  0  0  0  0  0  0  0
   12.5251    3.2064    0.0000 H   0  0  0  0  0  0  0  0  0  0  0  0
   12.5251    4.0359    0.0000 H   0  0  0  0  0  0  0  0  0  0  0  0
   12.1233    4.7257    0.0000 H   0  0  0  0  0  0  0  0  0  0  0  0
   11.4018    5.1348    0.0000 H   0  0  0  0  0  0  0  0  0  0  0  0
   10.6035    5.1256    0.0000 H   0  0  0  0  0  0  0  0  0  0  0  0
    9.2482    5.2412    0.0000 H   0  0  0  0  0  0  0  0  0  0  0  0
    7.8452    2.8112    0.0000 H   0  0  0  0  0  0  0  0  0  0  0  0
    7.8452    4.4312    0.0000 H   0  0  0  0  0  0  0  0  0  0  0  0
    4.7867   -3.2071    0.0000 H   0  0  0  0  0  0  0  0  0  0  0  0
    2.5167   -1.5578    0.0000 H   0  0  0  0  0  0  0  0  0  0  0  0
    3.8345   -4.5177    0.0000 H   0  0  0  0  0  0  0  0  0  0  0  0
    1.5644   -2.8684    0.0000 H   0  0  0  0  0  0  0  0  0  0  0  0
  1  4  2  0  0  0  0
  1  5  2  0  0  0  0
  1  7  1  0  0  0  0
  1 21  1  0  0  0  0
  2 29  1  0  0  0  0
  3 13  1  0  0  0  0
  3 20  1  0  0  0  0
  6  9  1  0  0  0  0
  6 11  1  0  0  0  0
  6 12  1  0  0  0  0
  7  8  1  0  0  0  0
  7 39  1  0  0  0  0
  8  9  1  0  0  0  0
  8 10  1  0  0  0  0
  8 30  1  0  0  0  0
  9 31  1  0  0  0  0
  9 32  1  0  0  0  0
 10 11  1  0  0  0  0
 10 33  1  0  0  0  0
 10 34  1  0  0  0  0
 11 35  1  0  0  0  0
 11 36  1  0  0  0  0
 12 13  1  0  0  0  0
 12 37  1  0  0  0  0
 12 38  1  0  0  0  0
 13 40  1  0  0  0  0
 13 41  1  0  0  0  0
 14 15  1  0  0  0  0
 14 19  2  0  0  0  0
 14 20  1  0  0  0  0
 15 16  1  0  0  0  0
 15 42  1  0  0  0  0
 15 43  1  0  0  0  0
 16 17  1  0  0  0  0
 16 44  1  0  0  0  0
 16 45  1  0  0  0  0
 17 18  1  0  0  0  0
 17 46  1  0  0  0  0
 17 47  1  0  0  0  0
 18 19  1  0  0  0  0
 18 48  1  0  0  0  0
 18 49  1  0  0  0  0
 19 22  1  0  0  0  0
 20 23  2  0  0  0  0
 21 25  2  0  0  0  0
 21 26  1  0  0  0  0
 22 24  2  0  0  0  0
 22 50  1  0  0  0  0
 23 24  1  0  0  0  0
 23 51  1  0  0  0  0
 24 52  1  0  0  0  0
 25 27  1  0  0  0  0
 25 53  1  0  0  0  0
 26 28  2  0  0  0  0
 26 54  1  0  0  0  0
 27 29  2  0  0  0  0
 27 55  1  0  0  0  0
 28 29  1  0  0  0  0
 28 56  1  0  0  0  0
M  END
> <PUBCHEM_COMPOUND_CID>
71456783

> <PUBCHEM_COMPOUND_CANONICALIZED>
1

> <PUBCHEM_CACTVS_COMPLEXITY>
618

> <PUBCHEM_CACTVS_HBOND_ACCEPTOR>
6

> <PUBCHEM_CACTVS_HBOND_DONOR>
1

> <PUBCHEM_CACTVS_ROTATABLE_BOND>
7

> <PUBCHEM_CACTVS_SUBSKEYS>
AAADceB7MQBAAAAAAAAAAAAAAAAAAWAAAAAwYMAAAAAAAADBQAAAHwQQQAAADCzh2A4wB4NABAKAAiBCAHBCCBAgIAAIiJgOCIgOZiKE8RqXOCCk0BGYqAeAwLAOgAABAAAYAAAAAAIAADAAAAAAAAAAAA==

> <PUBCHEM_IUPAC_OPENEYE_NAME>
4-fluoro-N-[1-(2-tetralin-5-yloxyethyl)pyrrolidin-3-yl]benzenesulfonamide

> <PUBCHEM_IUPAC_CAS_NAME>
4-fluoro-N-[1-[2-(5,6,7,8-tetrahydronaphthalen-1-yloxy)ethyl]-3-pyrrolidinyl]benzenesulfonamide

> <PUBCHEM_IUPAC_NAME_MARKUP>
4-fluoro-<I>N</I>-[1-[2-(5,6,7,8-tetrahydronaphthalen-1-yloxy)ethyl]pyrrolidin-3-yl]benzenesulfonamide

> <PUBCHEM_IUPAC_NAME>
4-fluoro-N-[1-[2-(5,6,7,8-tetrahydronaphthalen-1-yloxy)ethyl]pyrrolidin-3-yl]benzenesulfonamide

> <PUBCHEM_IUPAC_SYSTEMATIC_NAME>
4-fluoranyl-N-[1-[2-(5,6,7,8-tetrahydronaphthalen-1-yloxy)ethyl]pyrrolidin-3-yl]benzenesulfonamide

> <PUBCHEM_IUPAC_TRADITIONAL_NAME>
4-fluoro-N-[1-(2-tetralin-5-yloxyethyl)pyrrolidin-3-yl]benzenesulfonamide

> <PUBCHEM_IUPAC_INCHI>
InChI=1S/C22H27FN2O3S/c23-18-8-10-20(11-9-18)29(26,27)24-19-12-13-25(16-19)14-15-28-22-7-3-5-17-4-1-2-6-21(17)22/h3,5,7-11,19,24H,1-2,4,6,12-16H2

> <PUBCHEM_IUPAC_INCHIKEY>
VLPKCTQVTGCLDX-UHFFFAOYSA-N

> <PUBCHEM_XLOGP3_AA>
4.3

> <PUBCHEM_EXACT_MASS>
418.17264206

> <PUBCHEM_MOLECULAR_FORMULA>
C22H27FN2O3S

> <PUBCHEM_MOLECULAR_WEIGHT>
418.5

> <PUBCHEM_OPENEYE_CAN_SMILES>
C1CCC2=C(C1)C=CC=C2OCCN3CCC(C3)NS(=O)(=O)C4=CC=C(C=C4)F

> <PUBCHEM_OPENEYE_ISO_SMILES>
C1CCC2=C(C1)C=CC=C2OCCN3CCC(C3)NS(=O)(=O)C4=CC=C(C=C4)F

> <PUBCHEM_CACTVS_TPSA>
67

> <PUBCHEM_MONOISOTOPIC_WEIGHT>
418.17264206

> <PUBCHEM_TOTAL_CHARGE>
0

> <PUBCHEM_HEAVY_ATOM_COUNT>
29

> <PUBCHEM_ATOM_DEF_STEREO_COUNT>
0

> <PUBCHEM_ATOM_UDEF_STEREO_COUNT>
1

> <PUBCHEM_BOND_DEF_STEREO_COUNT>
0

> <PUBCHEM_BOND_UDEF_STEREO_COUNT>
0

> <PUBCHEM_ISOTOPIC_ATOM_COUNT>
0

> <PUBCHEM_COMPONENT_COUNT>
1

> <PUBCHEM_CACTVS_TAUTO_COUNT>
-1

> <PUBCHEM_COORDINATE_TYPE>
1
5
255

> <PUBCHEM_BONDANNOTATIONS>
14  19  8
14  20  8
19  22  8
20  23  8
21  25  8
21  26  8
22  24  8
23  24  8
25  27  8
26  28  8
27  29  8
28  29  8
8  7  3

$$$$
