10015045
  -OEChem-09292322132D

 36 39  0     1  0  0  0  0  0999 V2000
    2.9176    1.7484    0.0000 O   0  0  0  0  0  0  0  0  0  0  0  0
    6.3903   -1.2831    0.0000 N   0  0  3  0  0  0  0  0  0  0  0  0
    5.5321   -0.7862    0.0000 C   0  0  1  0  0  0  0  0  0  0  0  0
    5.5321    0.2138    0.0000 C   0  0  0  0  0  0  0  0  0  0  0  0
    4.6660   -1.2862    0.0000 C   0  0  0  0  0  0  0  0  0  0  0  0
    6.4421    0.7207    0.0000 C   0  0  0  0  0  0  0  0  0  0  0  0
    7.2558   -0.7989    0.0000 C   0  0  0  0  0  0  0  0  0  0  0  0
    7.2814    0.1924    0.0000 C   0  0  0  0  0  0  0  0  0  0  0  0
    4.6660    0.7138    0.0000 C   0  0  0  0  0  0  0  0  0  0  0  0
    3.8000   -0.7862    0.0000 C   0  0  0  0  0  0  0  0  0  0  0  0
    3.8000    0.2138    0.0000 C   0  0  0  0  0  0  0  0  0  0  0  0
    6.3829   -2.2831    0.0000 C   0  0  0  0  0  0  0  0  0  0  0  0
    6.4501    1.7623    0.0000 C   0  0  0  0  0  0  0  0  0  0  0  0
    4.6500    1.7553    0.0000 C   0  0  0  0  0  0  0  0  0  0  0  0
    2.9061   -1.3208    0.0000 C   0  0  0  0  0  0  0  0  0  0  0  0
    2.9061    0.7485    0.0000 C   0  0  0  0  0  0  0  0  0  0  0  0
    5.5480    2.2831    0.0000 C   0  0  0  0  0  0  0  0  0  0  0  0
    2.0000   -0.8070    0.0000 C   0  0  0  0  0  0  0  0  0  0  0  0
    2.0000    0.2346    0.0000 C   0  0  0  0  0  0  0  0  0  0  0  0
    5.5315   -1.6362    0.0000 H   0  0  0  0  0  0  0  0  0  0  0  0
    4.2675   -1.7611    0.0000 H   0  0  0  0  0  0  0  0  0  0  0  0
    5.0646   -1.7611    0.0000 H   0  0  0  0  0  0  0  0  0  0  0  0
    7.4575   -1.3852    0.0000 H   0  0  0  0  0  0  0  0  0  0  0  0
    7.8685   -0.7046    0.0000 H   0  0  0  0  0  0  0  0  0  0  0  0
    7.8885    0.0665    0.0000 H   0  0  0  0  0  0  0  0  0  0  0  0
    7.5131    0.7675    0.0000 H   0  0  0  0  0  0  0  0  0  0  0  0
    5.7629   -2.2785    0.0000 H   0  0  0  0  0  0  0  0  0  0  0  0
    6.3783   -2.9031    0.0000 H   0  0  0  0  0  0  0  0  0  0  0  0
    7.0029   -2.2877    0.0000 H   0  0  0  0  0  0  0  0  0  0  0  0
    6.9882    2.0702    0.0000 H   0  0  0  0  0  0  0  0  0  0  0  0
    4.1095    2.0591    0.0000 H   0  0  0  0  0  0  0  0  0  0  0  0
    2.9132   -1.9408    0.0000 H   0  0  0  0  0  0  0  0  0  0  0  0
    5.5456    2.9031    0.0000 H   0  0  0  0  0  0  0  0  0  0  0  0
    1.4643   -1.1191    0.0000 H   0  0  0  0  0  0  0  0  0  0  0  0
    1.4643    0.5467    0.0000 H   0  0  0  0  0  0  0  0  0  0  0  0
    2.3843    2.0646    0.0000 H   0  0  0  0  0  0  0  0  0  0  0  0
  1 16  1  0  0  0  0
  1 36  1  0  0  0  0
  2  3  1  0  0  0  0
  2  7  1  0  0  0  0
  2 12  1  0  0  0  0
  3  4  1  0  0  0  0
  3  5  1  0  0  0  0
  3 20  1  1  0  0  0
  4  6  2  0  0  0  0
  4  9  1  0  0  0  0
  5 10  1  0  0  0  0
  5 21  1  0  0  0  0
  5 22  1  0  0  0  0
  6  8  1  0  0  0  0
  6 13  1  0  0  0  0
  7  8  1  0  0  0  0
  7 23  1  0  0  0  0
  7 24  1  0  0  0  0
  8 25  1  0  0  0  0
  8 26  1  0  0  0  0
  9 11  1  0  0  0  0
  9 14  2  0  0  0  0
 10 11  2  0  0  0  0
 10 15  1  0  0  0  0
 11 16  1  0  0  0  0
 12 27  1  0  0  0  0
 12 28  1  0  0  0  0
 12 29  1  0  0  0  0
 13 17  2  0  0  0  0
 13 30  1  0  0  0  0
 14 17  1  0  0  0  0
 14 31  1  0  0  0  0
 15 18  2  0  0  0  0
 15 32  1  0  0  0  0
 16 19  2  0  0  0  0
 17 33  1  0  0  0  0
 18 19  1  0  0  0  0
 18 34  1  0  0  0  0
 19 35  1  0  0  0  0
M  END
> <PUBCHEM_COMPOUND_CID>
10015045

> <PUBCHEM_COMPOUND_CANONICALIZED>
1

> <PUBCHEM_CACTVS_COMPLEXITY>
344

> <PUBCHEM_CACTVS_HBOND_ACCEPTOR>
2

> <PUBCHEM_CACTVS_HBOND_DONOR>
1

> <PUBCHEM_CACTVS_ROTATABLE_BOND>
0

> <PUBCHEM_CACTVS_SUBSKEYS>
AAADceB6IAAAAAAAAAAAAAAAAAAAAAAAAAA8YMEAAAAAAADxQAAAHgAACAAADCzBmAQyBoMAAgCAAiBCAACCAAAgIAAIiAAODIgIJiKCkROEcAhkwBGImAeQ0PMOgAADAAAYAACQAAaAADQAAAAAAAAAAA==

> <PUBCHEM_IUPAC_OPENEYE_NAME>
(6aR)-6-methyl-5,6,6a,7-tetrahydro-4H-dibenzo[de,g]quinolin-11-ol

> <PUBCHEM_IUPAC_CAS_NAME>
(6aR)-6-methyl-5,6,6a,7-tetrahydro-4H-dibenzo[de,g]quinolin-11-ol

> <PUBCHEM_IUPAC_NAME_MARKUP>
(6<I>a</I><I>R</I>)-6-methyl-5,6,6<I>a</I>,7-tetrahydro-4<I>H</I>-dibenzo[de,g]quinolin-11-ol

> <PUBCHEM_IUPAC_NAME>
(6aR)-6-methyl-5,6,6a,7-tetrahydro-4H-dibenzo[de,g]quinolin-11-ol

> <PUBCHEM_IUPAC_SYSTEMATIC_NAME>
(6aR)-6-methyl-5,6,6a,7-tetrahydro-4H-dibenzo[de,g]quinolin-11-ol

> <PUBCHEM_IUPAC_TRADITIONAL_NAME>
(6aR)-6-methyl-5,6,6a,7-tetrahydro-4H-dibenzo[de,g]quinolin-11-ol

> <PUBCHEM_IUPAC_INCHI>
InChI=1S/C17H17NO/c1-18-9-8-11-4-2-6-13-16(11)14(18)10-12-5-3-7-15(19)17(12)13/h2-7,14,19H,8-10H2,1H3/t14-/m1/s1

> <PUBCHEM_IUPAC_INCHIKEY>
PCGXWSCASZVBJT-CQSZACIVSA-N

> <PUBCHEM_XLOGP3>
2.7

> <PUBCHEM_EXACT_MASS>
251.131014166

> <PUBCHEM_MOLECULAR_FORMULA>
C17H17NO

> <PUBCHEM_MOLECULAR_WEIGHT>
251.32

> <PUBCHEM_OPENEYE_CAN_SMILES>
CN1CCC2=C3C1CC4=C(C3=CC=C2)C(=CC=C4)O

> <PUBCHEM_OPENEYE_ISO_SMILES>
CN1CCC2=C3[C@H]1CC4=C(C3=CC=C2)C(=CC=C4)O

> <PUBCHEM_CACTVS_TPSA>
23.5

> <PUBCHEM_MONOISOTOPIC_WEIGHT>
251.131014166

> <PUBCHEM_TOTAL_CHARGE>
0

> <PUBCHEM_HEAVY_ATOM_COUNT>
19

> <PUBCHEM_ATOM_DEF_STEREO_COUNT>
1

> <PUBCHEM_ATOM_UDEF_STEREO_COUNT>
0

> <PUBCHEM_BOND_DEF_STEREO_COUNT>
0

> <PUBCHEM_BOND_UDEF_STEREO_COUNT>
0

> <PUBCHEM_ISOTOPIC_ATOM_COUNT>
0

> <PUBCHEM_COMPONENT_COUNT>
1

> <PUBCHEM_CACTVS_TAUTO_COUNT>
-1

> <PUBCHEM_COORDINATE_TYPE>
1
5
255

> <PUBCHEM_BONDANNOTATIONS>
10  11  8
10  15  8
11  16  8
13  17  8
14  17  8
15  18  8
16  19  8
18  19  8
3  20  5
4  6  8
4  9  8
6  13  8
9  14  8

$$$$
