44335835
  -OEChem-09292322182D

 56 59  0     1  0  0  0  0  0999 V2000
   10.9179   -4.2835    0.0000 F   0  0  0  0  0  0  0  0  0  0  0  0
   12.1026   -3.5112    0.0000 F   0  0  0  0  0  0  0  0  0  0  0  0
   11.3303   -2.3264    0.0000 F   0  0  0  0  0  0  0  0  0  0  0  0
    4.3211    0.7839    0.0000 O   0  0  0  0  0  0  0  0  0  0  0  0
    6.2781    0.3715    0.0000 N   0  0  0  0  0  0  0  0  0  0  0  0
    4.6783    2.4787    0.0000 N   0  0  0  0  0  0  0  0  0  0  0  0
    6.8994   -1.5296    0.0000 N   0  0  0  0  0  0  0  0  0  0  0  0
    5.2619    3.2835    0.0000 C   0  0  1  0  0  0  0  0  0  0  0  0
    7.2566    0.1653    0.0000 C   0  0  0  0  0  0  0  0  0  0  0  0
    5.6103   -0.3728    0.0000 C   0  0  0  0  0  0  0  0  0  0  0  0
    7.5673   -0.7853    0.0000 C   0  0  0  0  0  0  0  0  0  0  0  0
    5.9209   -1.3234    0.0000 C   0  0  0  0  0  0  0  0  0  0  0  0
    4.6783    4.0882    0.0000 C   0  0  0  0  0  0  0  0  0  0  0  0
    5.9674    1.3220    0.0000 C   0  0  0  0  0  0  0  0  0  0  0  0
    3.7320    2.7835    0.0000 C   0  0  0  0  0  0  0  0  0  0  0  0
    3.7320    3.7835    0.0000 C   0  0  0  0  0  0  0  0  0  0  0  0
    4.9889    1.5282    0.0000 C   0  0  0  0  0  0  0  0  0  0  0  0
    7.2101   -2.4801    0.0000 C   0  0  0  0  0  0  0  0  0  0  0  0
    6.2619    3.2835    0.0000 C   0  0  0  0  0  0  0  0  0  0  0  0
    2.8660    2.2835    0.0000 C   0  0  0  0  0  0  0  0  0  0  0  0
    2.8660    4.2835    0.0000 C   0  0  0  0  0  0  0  0  0  0  0  0
    8.1886   -2.6863    0.0000 C   0  0  0  0  0  0  0  0  0  0  0  0
    2.0000    2.7835    0.0000 C   0  0  0  0  0  0  0  0  0  0  0  0
    2.0000    3.7835    0.0000 C   0  0  0  0  0  0  0  0  0  0  0  0
    8.8564   -1.9420    0.0000 C   0  0  0  0  0  0  0  0  0  0  0  0
    8.4993   -3.6368    0.0000 C   0  0  0  0  0  0  0  0  0  0  0  0
    9.8349   -2.1482    0.0000 C   0  0  0  0  0  0  0  0  0  0  0  0
    9.4778   -3.8430    0.0000 C   0  0  0  0  0  0  0  0  0  0  0  0
   10.1456   -3.0987    0.0000 C   0  0  0  0  0  0  0  0  0  0  0  0
   11.1241   -3.3050    0.0000 C   0  0  0  0  0  0  0  0  0  0  0  0
    5.5436    2.7312    0.0000 H   0  0  0  0  0  0  0  0  0  0  0  0
    7.8704    0.2526    0.0000 H   0  0  0  0  0  0  0  0  0  0  0  0
    7.2772    0.7849    0.0000 H   0  0  0  0  0  0  0  0  0  0  0  0
    5.2277    0.1151    0.0000 H   0  0  0  0  0  0  0  0  0  0  0  0
    5.0633   -0.6648    0.0000 H   0  0  0  0  0  0  0  0  0  0  0  0
    7.9498   -1.2732    0.0000 H   0  0  0  0  0  0  0  0  0  0  0  0
    8.1142   -0.4932    0.0000 H   0  0  0  0  0  0  0  0  0  0  0  0
    5.3071   -1.4107    0.0000 H   0  0  0  0  0  0  0  0  0  0  0  0
    5.9004   -1.9430    0.0000 H   0  0  0  0  0  0  0  0  0  0  0  0
    5.2156    4.3974    0.0000 H   0  0  0  0  0  0  0  0  0  0  0  0
    4.4272    4.6551    0.0000 H   0  0  0  0  0  0  0  0  0  0  0  0
    6.5812    1.4094    0.0000 H   0  0  0  0  0  0  0  0  0  0  0  0
    5.9880    1.9416    0.0000 H   0  0  0  0  0  0  0  0  0  0  0  0
    6.5963   -2.5674    0.0000 H   0  0  0  0  0  0  0  0  0  0  0  0
    7.1895   -3.0997    0.0000 H   0  0  0  0  0  0  0  0  0  0  0  0
    6.2619    2.6635    0.0000 H   0  0  0  0  0  0  0  0  0  0  0  0
    6.8819    3.2835    0.0000 H   0  0  0  0  0  0  0  0  0  0  0  0
    6.2619    3.9035    0.0000 H   0  0  0  0  0  0  0  0  0  0  0  0
    2.8660    1.6635    0.0000 H   0  0  0  0  0  0  0  0  0  0  0  0
    2.8660    4.9035    0.0000 H   0  0  0  0  0  0  0  0  0  0  0  0
    1.4631    2.4735    0.0000 H   0  0  0  0  0  0  0  0  0  0  0  0
    1.4631    4.0935    0.0000 H   0  0  0  0  0  0  0  0  0  0  0  0
    8.6638   -1.3527    0.0000 H   0  0  0  0  0  0  0  0  0  0  0  0
    8.0852   -4.0983    0.0000 H   0  0  0  0  0  0  0  0  0  0  0  0
   10.2490   -1.6868    0.0000 H   0  0  0  0  0  0  0  0  0  0  0  0
    9.6704   -4.4324    0.0000 H   0  0  0  0  0  0  0  0  0  0  0  0
  1 30  1  0  0  0  0
  2 30  1  0  0  0  0
  3 30  1  0  0  0  0
  4 17  2  0  0  0  0
  5  9  1  0  0  0  0
  5 10  1  0  0  0  0
  5 14  1  0  0  0  0
  6  8  1  0  0  0  0
  6 15  1  0  0  0  0
  6 17  1  0  0  0  0
  7 11  1  0  0  0  0
  7 12  1  0  0  0  0
  7 18  1  0  0  0  0
  8 13  1  0  0  0  0
  8 19  1  1  0  0  0
  8 31  1  0  0  0  0
  9 11  1  0  0  0  0
  9 32  1  0  0  0  0
  9 33  1  0  0  0  0
 10 12  1  0  0  0  0
 10 34  1  0  0  0  0
 10 35  1  0  0  0  0
 11 36  1  0  0  0  0
 11 37  1  0  0  0  0
 12 38  1  0  0  0  0
 12 39  1  0  0  0  0
 13 16  1  0  0  0  0
 13 40  1  0  0  0  0
 13 41  1  0  0  0  0
 14 17  1  0  0  0  0
 14 42  1  0  0  0  0
 14 43  1  0  0  0  0
 15 16  1  0  0  0  0
 15 20  2  0  0  0  0
 16 21  2  0  0  0  0
 18 22  1  0  0  0  0
 18 44  1  0  0  0  0
 18 45  1  0  0  0  0
 19 46  1  0  0  0  0
 19 47  1  0  0  0  0
 19 48  1  0  0  0  0
 20 23  1  0  0  0  0
 20 49  1  0  0  0  0
 21 24  1  0  0  0  0
 21 50  1  0  0  0  0
 22 25  2  0  0  0  0
 22 26  1  0  0  0  0
 23 24  2  0  0  0  0
 23 51  1  0  0  0  0
 24 52  1  0  0  0  0
 25 27  1  0  0  0  0
 25 53  1  0  0  0  0
 26 28  2  0  0  0  0
 26 54  1  0  0  0  0
 27 29  2  0  0  0  0
 27 55  1  0  0  0  0
 28 29  1  0  0  0  0
 28 56  1  0  0  0  0
 29 30  1  0  0  0  0
M  END
> <PUBCHEM_COMPOUND_CID>
44335835

> <PUBCHEM_COMPOUND_CANONICALIZED>
1

> <PUBCHEM_CACTVS_COMPLEXITY>
583

> <PUBCHEM_CACTVS_HBOND_ACCEPTOR>
6

> <PUBCHEM_CACTVS_HBOND_DONOR>
0

> <PUBCHEM_CACTVS_ROTATABLE_BOND>
4

> <PUBCHEM_CACTVS_SUBSKEYS>
AAADceB7IYAAAAAAAAAAAAAAAAAAAWAAAAA8YIAAAAAAAFgBQAAAHwAAAAAADCjBmBQywIMAAACIAiVSUACCAAAhAgAIiACIZIgIYCLAkbGUIAhghgDIyAcQgIAOQAAAAAACAACAAAAAAAQAAAAAAAAAAA==

> <PUBCHEM_IUPAC_OPENEYE_NAME>
1-[(2R)-2-methylindolin-1-yl]-2-[4-[[4-(trifluoromethyl)phenyl]methyl]piperazin-1-yl]ethanone

> <PUBCHEM_IUPAC_CAS_NAME>
1-[(2R)-2-methyl-2,3-dihydroindol-1-yl]-2-[4-[[4-(trifluoromethyl)phenyl]methyl]-1-piperazinyl]ethanone

> <PUBCHEM_IUPAC_NAME_MARKUP>
1-[(2<I>R</I>)-2-methyl-2,3-dihydroindol-1-yl]-2-[4-[[4-(trifluoromethyl)phenyl]methyl]piperazin-1-yl]ethanone

> <PUBCHEM_IUPAC_NAME>
1-[(2R)-2-methyl-2,3-dihydroindol-1-yl]-2-[4-[[4-(trifluoromethyl)phenyl]methyl]piperazin-1-yl]ethanone

> <PUBCHEM_IUPAC_SYSTEMATIC_NAME>
1-[(2R)-2-methyl-2,3-dihydroindol-1-yl]-2-[4-[[4-(trifluoromethyl)phenyl]methyl]piperazin-1-yl]ethanone

> <PUBCHEM_IUPAC_TRADITIONAL_NAME>
1-[(2R)-2-methylindolin-1-yl]-2-[4-[4-(trifluoromethyl)benzyl]piperazino]ethanone

> <PUBCHEM_IUPAC_INCHI>
InChI=1S/C23H26F3N3O/c1-17-14-19-4-2-3-5-21(19)29(17)22(30)16-28-12-10-27(11-13-28)15-18-6-8-20(9-7-18)23(24,25)26/h2-9,17H,10-16H2,1H3/t17-/m1/s1

> <PUBCHEM_IUPAC_INCHIKEY>
MHVPLSWUUSVXMG-QGZVFWFLSA-N

> <PUBCHEM_XLOGP3_AA>
4

> <PUBCHEM_EXACT_MASS>
417.20279695

> <PUBCHEM_MOLECULAR_FORMULA>
C23H26F3N3O

> <PUBCHEM_MOLECULAR_WEIGHT>
417.5

> <PUBCHEM_OPENEYE_CAN_SMILES>
CC1CC2=CC=CC=C2N1C(=O)CN3CCN(CC3)CC4=CC=C(C=C4)C(F)(F)F

> <PUBCHEM_OPENEYE_ISO_SMILES>
C[C@@H]1CC2=CC=CC=C2N1C(=O)CN3CCN(CC3)CC4=CC=C(C=C4)C(F)(F)F

> <PUBCHEM_CACTVS_TPSA>
26.8

> <PUBCHEM_MONOISOTOPIC_WEIGHT>
417.20279695

> <PUBCHEM_TOTAL_CHARGE>
0

> <PUBCHEM_HEAVY_ATOM_COUNT>
30

> <PUBCHEM_ATOM_DEF_STEREO_COUNT>
1

> <PUBCHEM_ATOM_UDEF_STEREO_COUNT>
0

> <PUBCHEM_BOND_DEF_STEREO_COUNT>
0

> <PUBCHEM_BOND_UDEF_STEREO_COUNT>
0

> <PUBCHEM_ISOTOPIC_ATOM_COUNT>
0

> <PUBCHEM_COMPONENT_COUNT>
1

> <PUBCHEM_CACTVS_TAUTO_COUNT>
-1

> <PUBCHEM_COORDINATE_TYPE>
1
5
255

> <PUBCHEM_BONDANNOTATIONS>
15  16  8
15  20  8
16  21  8
20  23  8
21  24  8
22  25  8
22  26  8
23  24  8
25  27  8
26  28  8
27  29  8
28  29  8
8  19  5

$$$$
