121304609
  -OEChem-09292322382D

 59 63  0     1  0  0  0  0  0999 V2000
    6.4659    2.4434    0.0000 S   0  0  0  0  0  0  0  0  0  0  0  0
    6.9620   -5.9066    0.0000 F   0  0  0  0  0  0  0  0  0  0  0  0
    8.3280   -6.2726    0.0000 F   0  0  0  0  0  0  0  0  0  0  0  0
    7.3280   -4.5405    0.0000 F   0  0  0  0  0  0  0  0  0  0  0  0
   11.2921   -5.4066    0.0000 F   0  0  0  0  0  0  0  0  0  0  0  0
    2.8090    3.9247    0.0000 O   0  0  0  0  0  0  0  0  0  0  0  0
    6.8280   -1.0017    0.0000 N   0  0  3  0  0  0  0  0  0  0  0  0
    4.8781    3.2524    0.0000 N   0  0  0  0  0  0  0  0  0  0  0  0
    6.1871    4.2035    0.0000 N   0  0  0  0  0  0  0  0  0  0  0  0
    5.3781    4.7913    0.0000 N   0  0  0  0  0  0  0  0  0  0  0  0
    2.3090    5.4636    0.0000 N   0  0  0  0  0  0  0  0  0  0  0  0
    7.3280   -2.5405    0.0000 C   0  0  1  0  0  0  0  0  0  0  0  0
    7.8280   -3.4066    0.0000 C   0  0  1  0  0  0  0  0  0  0  0  0
    6.8280   -3.4066    0.0000 C   0  0  0  0  0  0  0  0  0  0  0  0
    8.1370   -1.9528    0.0000 C   0  0  0  0  0  0  0  0  0  0  0  0
    6.5190   -1.9528    0.0000 C   0  0  0  0  0  0  0  0  0  0  0  0
    7.8280   -1.0017    0.0000 C   0  0  0  0  0  0  0  0  0  0  0  0
    8.6940   -3.9066    0.0000 C   0  0  0  0  0  0  0  0  0  0  0  0
    6.2402   -0.1927    0.0000 C   0  0  0  0  0  0  0  0  0  0  0  0
    8.6940   -4.9066    0.0000 C   0  0  0  0  0  0  0  0  0  0  0  0
    9.5600   -3.4066    0.0000 C   0  0  0  0  0  0  0  0  0  0  0  0
    6.6469    0.7209    0.0000 C   0  0  0  0  0  0  0  0  0  0  0  0
    9.5600   -5.4066    0.0000 C   0  0  0  0  0  0  0  0  0  0  0  0
    7.8280   -5.4066    0.0000 C   0  0  0  0  0  0  0  0  0  0  0  0
   10.4261   -3.9066    0.0000 C   0  0  0  0  0  0  0  0  0  0  0  0
   10.4261   -4.9066    0.0000 C   0  0  0  0  0  0  0  0  0  0  0  0
    6.0592    1.5299    0.0000 C   0  0  0  0  0  0  0  0  0  0  0  0
    5.8781    3.2524    0.0000 C   0  0  0  0  0  0  0  0  0  0  0  0
    4.5691    4.2035    0.0000 C   0  0  0  0  0  0  0  0  0  0  0  0
    4.2903    2.4434    0.0000 C   0  0  0  0  0  0  0  0  0  0  0  0
    3.6180    4.5125    0.0000 C   0  0  0  0  0  0  0  0  0  0  0  0
    3.3090    5.4636    0.0000 C   0  0  0  0  0  0  0  0  0  0  0  0
    3.8968    6.2726    0.0000 C   0  0  0  0  0  0  0  0  0  0  0  0
    2.0000    4.5125    0.0000 C   0  0  0  0  0  0  0  0  0  0  0  0
    7.6080   -4.2276    0.0000 H   0  0  0  0  0  0  0  0  0  0  0  0
    6.2454   -3.1945    0.0000 H   0  0  0  0  0  0  0  0  0  0  0  0
    6.7203   -4.0172    0.0000 H   0  0  0  0  0  0  0  0  0  0  0  0
    8.4470   -2.4897    0.0000 H   0  0  0  0  0  0  0  0  0  0  0  0
    8.7034   -1.7006    0.0000 H   0  0  0  0  0  0  0  0  0  0  0  0
    5.9526   -1.7006    0.0000 H   0  0  0  0  0  0  0  0  0  0  0  0
    6.2090   -2.4897    0.0000 H   0  0  0  0  0  0  0  0  0  0  0  0
    8.4344   -0.8728    0.0000 H   0  0  0  0  0  0  0  0  0  0  0  0
    7.7632   -0.3851    0.0000 H   0  0  0  0  0  0  0  0  0  0  0  0
    5.7262    0.1540    0.0000 H   0  0  0  0  0  0  0  0  0  0  0  0
    5.8095   -0.6387    0.0000 H   0  0  0  0  0  0  0  0  0  0  0  0
    9.5600   -2.7866    0.0000 H   0  0  0  0  0  0  0  0  0  0  0  0
    7.1609    0.3742    0.0000 H   0  0  0  0  0  0  0  0  0  0  0  0
    7.0776    1.1668    0.0000 H   0  0  0  0  0  0  0  0  0  0  0  0
    9.5600   -6.0266    0.0000 H   0  0  0  0  0  0  0  0  0  0  0  0
   10.9630   -3.5966    0.0000 H   0  0  0  0  0  0  0  0  0  0  0  0
    5.5451    1.8766    0.0000 H   0  0  0  0  0  0  0  0  0  0  0  0
    5.6285    1.0839    0.0000 H   0  0  0  0  0  0  0  0  0  0  0  0
    3.7887    2.8078    0.0000 H   0  0  0  0  0  0  0  0  0  0  0  0
    3.9259    1.9418    0.0000 H   0  0  0  0  0  0  0  0  0  0  0  0
    4.7919    2.0790    0.0000 H   0  0  0  0  0  0  0  0  0  0  0  0
    4.3984    5.9082    0.0000 H   0  0  0  0  0  0  0  0  0  0  0  0
    4.2612    6.7742    0.0000 H   0  0  0  0  0  0  0  0  0  0  0  0
    3.3952    6.6370    0.0000 H   0  0  0  0  0  0  0  0  0  0  0  0
    1.4103    4.3209    0.0000 H   0  0  0  0  0  0  0  0  0  0  0  0
  1 27  1  0  0  0  0
  1 28  1  0  0  0  0
  2 24  1  0  0  0  0
  3 24  1  0  0  0  0
  4 24  1  0  0  0  0
  5 26  1  0  0  0  0
  6 31  1  0  0  0  0
  6 34  1  0  0  0  0
  7 16  1  0  0  0  0
  7 17  1  0  0  0  0
  7 19  1  0  0  0  0
  8 28  1  0  0  0  0
  8 29  1  0  0  0  0
  8 30  1  0  0  0  0
  9 10  1  0  0  0  0
  9 28  2  0  0  0  0
 10 29  2  0  0  0  0
 11 32  1  0  0  0  0
 11 34  2  0  0  0  0
 12 13  1  0  0  0  0
 12 14  1  1  0  0  0
 12 15  1  0  0  0  0
 12 16  1  0  0  0  0
 13 14  1  0  0  0  0
 13 18  1  0  0  0  0
 13 35  1  1  0  0  0
 14 36  1  0  0  0  0
 14 37  1  0  0  0  0
 15 17  1  0  0  0  0
 15 38  1  0  0  0  0
 15 39  1  0  0  0  0
 16 40  1  0  0  0  0
 16 41  1  0  0  0  0
 17 42  1  0  0  0  0
 17 43  1  0  0  0  0
 18 20  2  0  0  0  0
 18 21  1  0  0  0  0
 19 22  1  0  0  0  0
 19 44  1  0  0  0  0
 19 45  1  0  0  0  0
 20 23  1  0  0  0  0
 20 24  1  0  0  0  0
 21 25  2  0  0  0  0
 21 46  1  0  0  0  0
 22 27  1  0  0  0  0
 22 47  1  0  0  0  0
 22 48  1  0  0  0  0
 23 26  2  0  0  0  0
 23 49  1  0  0  0  0
 25 26  1  0  0  0  0
 25 50  1  0  0  0  0
 27 51  1  0  0  0  0
 27 52  1  0  0  0  0
 29 31  1  0  0  0  0
 30 53  1  0  0  0  0
 30 54  1  0  0  0  0
 30 55  1  0  0  0  0
 31 32  2  0  0  0  0
 32 33  1  0  0  0  0
 33 56  1  0  0  0  0
 33 57  1  0  0  0  0
 33 58  1  0  0  0  0
 34 59  1  0  0  0  0
M  END
> <PUBCHEM_COMPOUND_CID>
121304609

> <PUBCHEM_COMPOUND_CANONICALIZED>
1

> <PUBCHEM_CACTVS_COMPLEXITY>
719

> <PUBCHEM_CACTVS_HBOND_ACCEPTOR>
10

> <PUBCHEM_CACTVS_HBOND_DONOR>
0

> <PUBCHEM_CACTVS_ROTATABLE_BOND>
7

> <PUBCHEM_CACTVS_SUBSKEYS>
AAADceB7ocBAAAAAAAAAAAAAGAAAAWLFgAAwAAAAAAAAAAAB8AAAHwQIAAAADwzF3x63lJcMFEiqA6Zz9ASS2Ct7YLAd2CG9RJiOKCLk2TCNIChgjALYiAcQgMAPgAAAAAAQAAAAAAAAACAAAAAAAAAAAA==

> <PUBCHEM_IUPAC_OPENEYE_NAME>
5-[5-[3-[(2S,3R)-2-[4-fluoro-2-(trifluoromethyl)phenyl]-5-azaspiro[2.4]heptan-5-yl]propylsulfanyl]-4-methyl-1,2,4-triazol-3-yl]-4-methyl-oxazole

> <PUBCHEM_IUPAC_CAS_NAME>
5-[5-[3-[(2S,3R)-2-[4-fluoro-2-(trifluoromethyl)phenyl]-5-azaspiro[2.4]heptan-5-yl]propylthio]-4-methyl-1,2,4-triazol-3-yl]-4-methyloxazole

> <PUBCHEM_IUPAC_NAME_MARKUP>
5-[5-[3-[(2<I>S</I>,3<I>R</I>)-2-[4-fluoro-2-(trifluoromethyl)phenyl]-5-azaspiro[2.4]heptan-5-yl]propylsulfanyl]-4-methyl-1,2,4-triazol-3-yl]-4-methyl-1,3-oxazole

> <PUBCHEM_IUPAC_NAME>
5-[5-[3-[(2S,3R)-2-[4-fluoro-2-(trifluoromethyl)phenyl]-5-azaspiro[2.4]heptan-5-yl]propylsulfanyl]-4-methyl-1,2,4-triazol-3-yl]-4-methyl-1,3-oxazole

> <PUBCHEM_IUPAC_SYSTEMATIC_NAME>
5-[5-[3-[(2S,3R)-2-[4-fluoranyl-2-(trifluoromethyl)phenyl]-5-azaspiro[2.4]heptan-5-yl]propylsulfanyl]-4-methyl-1,2,4-triazol-3-yl]-4-methyl-1,3-oxazole

> <PUBCHEM_IUPAC_TRADITIONAL_NAME>
5-[5-[3-[(2S,3R)-2-[4-fluoro-2-(trifluoromethyl)phenyl]-5-azaspiro[2.4]heptan-5-yl]propylthio]-4-methyl-1,2,4-triazol-3-yl]-4-methyl-oxazole

> <PUBCHEM_IUPAC_INCHI>
InChI=1S/C23H25F4N5OS/c1-14-19(33-13-28-14)20-29-30-21(31(20)2)34-9-3-7-32-8-6-22(12-32)11-18(22)16-5-4-15(24)10-17(16)23(25,26)27/h4-5,10,13,18H,3,6-9,11-12H2,1-2H3/t18-,22+/m0/s1

> <PUBCHEM_IUPAC_INCHIKEY>
LRMWMKQIJLOEPF-PGRDOPGGSA-N

> <PUBCHEM_XLOGP3_AA>
4.3

> <PUBCHEM_EXACT_MASS>
495.17159426

> <PUBCHEM_MOLECULAR_FORMULA>
C23H25F4N5OS

> <PUBCHEM_MOLECULAR_WEIGHT>
495.5

> <PUBCHEM_OPENEYE_CAN_SMILES>
CC1=C(OC=N1)C2=NN=C(N2C)SCCCN3CCC4(C3)CC4C5=C(C=C(C=C5)F)C(F)(F)F

> <PUBCHEM_OPENEYE_ISO_SMILES>
CC1=C(OC=N1)C2=NN=C(N2C)SCCCN3CC[C@]4(C3)C[C@H]4C5=C(C=C(C=C5)F)C(F)(F)F

> <PUBCHEM_CACTVS_TPSA>
85.3

> <PUBCHEM_MONOISOTOPIC_WEIGHT>
495.17159426

> <PUBCHEM_TOTAL_CHARGE>
0

> <PUBCHEM_HEAVY_ATOM_COUNT>
34

> <PUBCHEM_ATOM_DEF_STEREO_COUNT>
2

> <PUBCHEM_ATOM_UDEF_STEREO_COUNT>
0

> <PUBCHEM_BOND_DEF_STEREO_COUNT>
0

> <PUBCHEM_BOND_UDEF_STEREO_COUNT>
0

> <PUBCHEM_ISOTOPIC_ATOM_COUNT>
0

> <PUBCHEM_COMPONENT_COUNT>
1

> <PUBCHEM_CACTVS_TAUTO_COUNT>
-1

> <PUBCHEM_COORDINATE_TYPE>
1
5
255

> <PUBCHEM_BONDANNOTATIONS>
10  29  8
11  32  8
11  34  8
12  14  5
13  35  5
18  20  8
18  21  8
20  23  8
21  25  8
23  26  8
25  26  8
31  32  8
6  31  8
6  34  8
8  28  8
8  29  8
9  10  8
9  28  8

$$$$
