127047462
  -OEChem-09292322002D

 61 63  0     0  0  0  0  0  0999 V2000
    1.7320    3.6200    0.0000 Cl  0  0  0  0  0  0  0  0  0  0  0  0
    0.0000    2.6200    0.0000 Cl  0  0  0  0  0  0  0  0  0  0  0  0
    5.4686   14.2519    0.0000 Cl  0  0  0  0  0  0  0  0  0  0  0  0
    8.6602    8.6200    0.0000 O   0  0  0  0  0  0  0  0  0  0  0  0
   10.4202    9.5853    0.0000 O   0  0  0  0  0  0  0  0  0  0  0  0
   10.4202   11.6547    0.0000 O   0  0  0  0  0  0  0  0  0  0  0  0
    6.9282    8.6200    0.0000 O   0  0  0  0  0  0  0  0  0  0  0  0
    5.1962    3.6200    0.0000 N   0  0  0  0  0  0  0  0  0  0  0  0
    3.4641    2.6200    0.0000 N   0  0  0  0  0  0  0  0  0  0  0  0
    7.7942    7.1200    0.0000 N   0  0  0  0  0  0  0  0  0  0  0  0
    4.3301    4.1200    0.0000 C   0  0  0  0  0  0  0  0  0  0  0  0
    5.1962    2.6200    0.0000 C   0  0  0  0  0  0  0  0  0  0  0  0
    3.4641    3.6200    0.0000 C   0  0  0  0  0  0  0  0  0  0  0  0
    4.3301    2.1200    0.0000 C   0  0  0  0  0  0  0  0  0  0  0  0
    6.0622    4.1200    0.0000 C   0  0  0  0  0  0  0  0  0  0  0  0
    6.0622    5.1200    0.0000 C   0  0  0  0  0  0  0  0  0  0  0  0
    2.5981    2.1200    0.0000 C   0  0  0  0  0  0  0  0  0  0  0  0
    6.9282    5.6200    0.0000 C   0  0  0  0  0  0  0  0  0  0  0  0
    6.9282    6.6200    0.0000 C   0  0  0  0  0  0  0  0  0  0  0  0
    1.7320    2.6200    0.0000 C   0  0  0  0  0  0  0  0  0  0  0  0
    2.5981    1.1200    0.0000 C   0  0  0  0  0  0  0  0  0  0  0  0
    0.8660    2.1200    0.0000 C   0  0  0  0  0  0  0  0  0  0  0  0
    1.7320    0.6200    0.0000 C   0  0  0  0  0  0  0  0  0  0  0  0
    0.8660    1.1200    0.0000 C   0  0  0  0  0  0  0  0  0  0  0  0
    7.7942    8.1200    0.0000 C   0  0  0  0  0  0  0  0  0  0  0  0
    8.6602    9.6200    0.0000 C   0  0  0  0  0  0  0  0  0  0  0  0
    9.5263   10.1200    0.0000 C   0  0  0  0  0  0  0  0  0  0  0  0
    9.5263   11.1200    0.0000 C   0  0  0  0  0  0  0  0  0  0  0  0
   11.3263   10.0992    0.0000 C   0  0  0  0  0  0  0  0  0  0  0  0
   11.3263   11.1408    0.0000 C   0  0  0  0  0  0  0  0  0  0  0  0
    7.7942   10.1200    0.0000 C   0  0  0  0  0  0  0  0  0  0  0  0
    8.6602   11.6200    0.0000 C   0  0  0  0  0  0  0  0  0  0  0  0
    7.7942   11.1200    0.0000 C   0  0  0  0  0  0  0  0  0  0  0  0
    4.7287    4.5950    0.0000 H   0  0  0  0  0  0  0  0  0  0  0  0
    3.9316    4.5950    0.0000 H   0  0  0  0  0  0  0  0  0  0  0  0
    5.4082    2.0374    0.0000 H   0  0  0  0  0  0  0  0  0  0  0  0
    5.8067    2.7277    0.0000 H   0  0  0  0  0  0  0  0  0  0  0  0
    3.2520    4.2026    0.0000 H   0  0  0  0  0  0  0  0  0  0  0  0
    2.8535    3.5123    0.0000 H   0  0  0  0  0  0  0  0  0  0  0  0
    3.9316    1.6450    0.0000 H   0  0  0  0  0  0  0  0  0  0  0  0
    4.7287    1.6450    0.0000 H   0  0  0  0  0  0  0  0  0  0  0  0
    6.2742    3.5374    0.0000 H   0  0  0  0  0  0  0  0  0  0  0  0
    6.6728    4.2277    0.0000 H   0  0  0  0  0  0  0  0  0  0  0  0
    5.8501    5.7026    0.0000 H   0  0  0  0  0  0  0  0  0  0  0  0
    5.4516    5.0123    0.0000 H   0  0  0  0  0  0  0  0  0  0  0  0
    7.1403    5.0374    0.0000 H   0  0  0  0  0  0  0  0  0  0  0  0
    7.5388    5.7277    0.0000 H   0  0  0  0  0  0  0  0  0  0  0  0
    6.7162    7.2026    0.0000 H   0  0  0  0  0  0  0  0  0  0  0  0
    6.3176    6.5123    0.0000 H   0  0  0  0  0  0  0  0  0  0  0  0
    3.1350    0.8100    0.0000 H   0  0  0  0  0  0  0  0  0  0  0  0
    8.3312    6.8100    0.0000 H   0  0  0  0  0  0  0  0  0  0  0  0
    1.7320    0.0000    0.0000 H   0  0  0  0  0  0  0  0  0  0  0  0
    0.3291    0.8100    0.0000 H   0  0  0  0  0  0  0  0  0  0  0  0
   11.5353    9.5155    0.0000 H   0  0  0  0  0  0  0  0  0  0  0  0
   11.9371   10.2053    0.0000 H   0  0  0  0  0  0  0  0  0  0  0  0
   11.9371   11.0347    0.0000 H   0  0  0  0  0  0  0  0  0  0  0  0
   11.5353   11.7245    0.0000 H   0  0  0  0  0  0  0  0  0  0  0  0
    7.2573    9.8100    0.0000 H   0  0  0  0  0  0  0  0  0  0  0  0
    8.6602   12.2400    0.0000 H   0  0  0  0  0  0  0  0  0  0  0  0
    7.2573   11.4300    0.0000 H   0  0  0  0  0  0  0  0  0  0  0  0
    6.4686   14.2519    0.0000 H   0  0  0  0  0  0  0  0  0  0  0  0
  1 20  1  0  0  0  0
  2 22  1  0  0  0  0
  3 61  1  0  0  0  0
  4 25  1  0  0  0  0
  4 26  1  0  0  0  0
  5 27  1  0  0  0  0
  5 29  1  0  0  0  0
  6 28  1  0  0  0  0
  6 30  1  0  0  0  0
  7 25  2  0  0  0  0
  8 11  1  0  0  0  0
  8 12  1  0  0  0  0
  8 15  1  0  0  0  0
  9 13  1  0  0  0  0
  9 14  1  0  0  0  0
  9 17  1  0  0  0  0
 10 19  1  0  0  0  0
 10 25  1  0  0  0  0
 10 51  1  0  0  0  0
 11 13  1  0  0  0  0
 11 34  1  0  0  0  0
 11 35  1  0  0  0  0
 12 14  1  0  0  0  0
 12 36  1  0  0  0  0
 12 37  1  0  0  0  0
 13 38  1  0  0  0  0
 13 39  1  0  0  0  0
 14 40  1  0  0  0  0
 14 41  1  0  0  0  0
 15 16  1  0  0  0  0
 15 42  1  0  0  0  0
 15 43  1  0  0  0  0
 16 18  1  0  0  0  0
 16 44  1  0  0  0  0
 16 45  1  0  0  0  0
 17 20  2  0  0  0  0
 17 21  1  0  0  0  0
 18 19  1  0  0  0  0
 18 46  1  0  0  0  0
 18 47  1  0  0  0  0
 19 48  1  0  0  0  0
 19 49  1  0  0  0  0
 20 22  1  0  0  0  0
 21 23  2  0  0  0  0
 21 50  1  0  0  0  0
 22 24  2  0  0  0  0
 23 24  1  0  0  0  0
 23 52  1  0  0  0  0
 24 53  1  0  0  0  0
 26 27  1  0  0  0  0
 26 31  2  0  0  0  0
 27 28  2  0  0  0  0
 28 32  1  0  0  0  0
 29 30  1  0  0  0  0
 29 54  1  0  0  0  0
 29 55  1  0  0  0  0
 30 56  1  0  0  0  0
 30 57  1  0  0  0  0
 31 33  1  0  0  0  0
 31 58  1  0  0  0  0
 32 33  2  0  0  0  0
 32 59  1  0  0  0  0
 33 60  1  0  0  0  0
M  END
> <PUBCHEM_COMPOUND_CID>
127047462

> <PUBCHEM_COMPOUND_CANONICALIZED>
1

> <PUBCHEM_CACTVS_COMPLEXITY>
594

> <PUBCHEM_CACTVS_HBOND_ACCEPTOR>
6

> <PUBCHEM_CACTVS_HBOND_DONOR>
2

> <PUBCHEM_CACTVS_ROTATABLE_BOND>
8

> <PUBCHEM_CACTVS_SUBSKEYS>
AAADceB7OAAGAAAAAAAAAAAAAAAAAAAAAAA8aIEAAAAAAACRQAAAHgIQAAAACA7hkCYwzoPABACIACRCWACCCAAhJwAIisAO7okNZyLFs5veOirl1hXK6AeQYAwAAAAACAIAQBQAAAAQBACAKAAAAAAAAA==

> <PUBCHEM_IUPAC_OPENEYE_NAME>
2,3-dihydro-1,4-benzodioxin-5-yl N-[4-[4-(2,3-dichlorophenyl)piperazin-1-yl]butyl]carbamate;hydrochloride

> <PUBCHEM_IUPAC_CAS_NAME>
N-[4-[4-(2,3-dichlorophenyl)-1-piperazinyl]butyl]carbamic acid 2,3-dihydro-1,4-benzodioxin-5-yl ester;hydrochloride

> <PUBCHEM_IUPAC_NAME_MARKUP>
2,3-dihydro-1,4-benzodioxin-5-yl <I>N</I>-[4-[4-(2,3-dichlorophenyl)piperazin-1-yl]butyl]carbamate;hydrochloride

> <PUBCHEM_IUPAC_NAME>
2,3-dihydro-1,4-benzodioxin-5-yl N-[4-[4-(2,3-dichlorophenyl)piperazin-1-yl]butyl]carbamate;hydrochloride

> <PUBCHEM_IUPAC_SYSTEMATIC_NAME>
2,3-dihydro-1,4-benzodioxin-5-yl N-[4-[4-[2,3-bis(chloranyl)phenyl]piperazin-1-yl]butyl]carbamate;hydrochloride

> <PUBCHEM_IUPAC_TRADITIONAL_NAME>
N-[4-[4-(2,3-dichlorophenyl)piperazino]butyl]carbamic acid 2,3-dihydro-1,4-benzodioxin-5-yl ester;hydrochloride

> <PUBCHEM_IUPAC_INCHI>
InChI=1S/C23H27Cl2N3O4.ClH/c24-17-5-3-6-18(21(17)25)28-13-11-27(12-14-28)10-2-1-9-26-23(29)32-20-8-4-7-19-22(20)31-16-15-30-19;/h3-8H,1-2,9-16H2,(H,26,29);1H

> <PUBCHEM_IUPAC_INCHIKEY>
PJXTUEAYKNCWFN-UHFFFAOYSA-N

> <PUBCHEM_EXACT_MASS>
515.114539

> <PUBCHEM_MOLECULAR_FORMULA>
C23H28Cl3N3O4

> <PUBCHEM_MOLECULAR_WEIGHT>
516.8

> <PUBCHEM_OPENEYE_CAN_SMILES>
C1CN(CCN1CCCCNC(=O)OC2=CC=CC3=C2OCCO3)C4=C(C(=CC=C4)Cl)Cl.Cl

> <PUBCHEM_OPENEYE_ISO_SMILES>
C1CN(CCN1CCCCNC(=O)OC2=CC=CC3=C2OCCO3)C4=C(C(=CC=C4)Cl)Cl.Cl

> <PUBCHEM_CACTVS_TPSA>
63.3

> <PUBCHEM_MONOISOTOPIC_WEIGHT>
515.114539

> <PUBCHEM_TOTAL_CHARGE>
0

> <PUBCHEM_HEAVY_ATOM_COUNT>
33

> <PUBCHEM_ATOM_DEF_STEREO_COUNT>
0

> <PUBCHEM_ATOM_UDEF_STEREO_COUNT>
0

> <PUBCHEM_BOND_DEF_STEREO_COUNT>
0

> <PUBCHEM_BOND_UDEF_STEREO_COUNT>
0

> <PUBCHEM_ISOTOPIC_ATOM_COUNT>
0

> <PUBCHEM_COMPONENT_COUNT>
2

> <PUBCHEM_CACTVS_TAUTO_COUNT>
-1

> <PUBCHEM_COORDINATE_TYPE>
1
5
255

> <PUBCHEM_BONDANNOTATIONS>
17  20  8
17  21  8
20  22  8
21  23  8
22  24  8
23  24  8
26  27  8
26  31  8
27  28  8
28  32  8
31  33  8
32  33  8

$$$$
