156552373
  -OEChem-09292322452D

 56 58  0     1  0  0  0  0  0999 V2000
    9.0546    2.5088    0.0000 S   0  0  0  0  0  0  0  0  0  0  0  0
    2.0000   -4.4610    0.0000 F   0  0  0  0  0  0  0  0  0  0  0  0
    5.5443   -4.2658    0.0000 O   0  0  0  0  0  0  0  0  0  0  0  0
    8.8484    3.4872    0.0000 O   0  0  0  0  0  0  0  0  0  0  0  0
    9.2608    1.5302    0.0000 O   0  0  0  0  0  0  0  0  0  0  0  0
   11.3223    3.8717    0.0000 O   0  0  0  0  0  0  0  0  0  0  0  0
    6.4763    0.1953    0.0000 N   0  0  0  0  0  0  0  0  0  0  0  0
    8.0761    2.3025    0.0000 N   0  0  3  0  0  0  0  0  0  0  0  0
    6.1279   -3.4610    0.0000 N   0  0  0  0  0  0  0  0  0  0  0  0
    5.8550   -1.7058    0.0000 C   0  0  0  0  0  0  0  0  0  0  0  0
    5.1871   -0.9615    0.0000 C   0  0  0  0  0  0  0  0  0  0  0  0
    6.8335   -1.4996    0.0000 C   0  0  0  0  0  0  0  0  0  0  0  0
    5.4978   -0.0110    0.0000 C   0  0  0  0  0  0  0  0  0  0  0  0
    7.1441   -0.5490    0.0000 C   0  0  0  0  0  0  0  0  0  0  0  0
    6.7870    1.1458    0.0000 C   0  0  0  0  0  0  0  0  0  0  0  0
    5.5443   -2.6563    0.0000 C   0  0  0  0  0  0  0  0  0  0  0  0
    7.7654    1.3520    0.0000 C   0  0  0  0  0  0  0  0  0  0  0  0
    4.5981   -2.9610    0.0000 C   0  0  0  0  0  0  0  0  0  0  0  0
    7.4083    3.0468    0.0000 C   0  0  0  0  0  0  0  0  0  0  0  0
    4.5981   -3.9610    0.0000 C   0  0  0  0  0  0  0  0  0  0  0  0
    3.7320   -2.4610    0.0000 C   0  0  0  0  0  0  0  0  0  0  0  0
   10.0331    2.7150    0.0000 C   0  0  0  0  0  0  0  0  0  0  0  0
    3.7320   -4.4610    0.0000 C   0  0  0  0  0  0  0  0  0  0  0  0
    2.8660   -2.9610    0.0000 C   0  0  0  0  0  0  0  0  0  0  0  0
    7.7189    3.9974    0.0000 C   0  0  0  0  0  0  0  0  0  0  0  0
    2.8660   -3.9610    0.0000 C   0  0  0  0  0  0  0  0  0  0  0  0
   10.3438    3.6655    0.0000 C   0  0  0  0  0  0  0  0  0  0  0  0
    2.0000   -2.4610    0.0000 C   0  0  0  0  0  0  0  0  0  0  0  0
    6.2690   -2.1672    0.0000 H   0  0  0  0  0  0  0  0  0  0  0  0
    4.6402   -0.6695    0.0000 H   0  0  0  0  0  0  0  0  0  0  0  0
    4.8046   -1.4494    0.0000 H   0  0  0  0  0  0  0  0  0  0  0  0
    6.8540   -2.1192    0.0000 H   0  0  0  0  0  0  0  0  0  0  0  0
    7.4473   -1.5869    0.0000 H   0  0  0  0  0  0  0  0  0  0  0  0
    5.4772    0.6087    0.0000 H   0  0  0  0  0  0  0  0  0  0  0  0
    4.8840    0.0764    0.0000 H   0  0  0  0  0  0  0  0  0  0  0  0
    7.6910   -0.8411    0.0000 H   0  0  0  0  0  0  0  0  0  0  0  0
    7.5267   -0.0611    0.0000 H   0  0  0  0  0  0  0  0  0  0  0  0
    6.7664    1.7654    0.0000 H   0  0  0  0  0  0  0  0  0  0  0  0
    6.1731    1.2331    0.0000 H   0  0  0  0  0  0  0  0  0  0  0  0
    7.7860    0.7323    0.0000 H   0  0  0  0  0  0  0  0  0  0  0  0
    8.3793    1.2647    0.0000 H   0  0  0  0  0  0  0  0  0  0  0  0
    6.8614    3.3388    0.0000 H   0  0  0  0  0  0  0  0  0  0  0  0
    7.0257    2.5589    0.0000 H   0  0  0  0  0  0  0  0  0  0  0  0
    3.7320   -1.8410    0.0000 H   0  0  0  0  0  0  0  0  0  0  0  0
   10.0537    2.0953    0.0000 H   0  0  0  0  0  0  0  0  0  0  0  0
   10.6469    2.6276    0.0000 H   0  0  0  0  0  0  0  0  0  0  0  0
    3.7320   -5.0810    0.0000 H   0  0  0  0  0  0  0  0  0  0  0  0
    8.3083    3.8047    0.0000 H   0  0  0  0  0  0  0  0  0  0  0  0
    7.9115    4.5867    0.0000 H   0  0  0  0  0  0  0  0  0  0  0  0
    7.1296    4.1900    0.0000 H   0  0  0  0  0  0  0  0  0  0  0  0
   10.3232    4.2851    0.0000 H   0  0  0  0  0  0  0  0  0  0  0  0
    9.7300    3.7528    0.0000 H   0  0  0  0  0  0  0  0  0  0  0  0
    2.3100   -1.9241    0.0000 H   0  0  0  0  0  0  0  0  0  0  0  0
    1.4631   -2.1510    0.0000 H   0  0  0  0  0  0  0  0  0  0  0  0
    1.6900   -2.9980    0.0000 H   0  0  0  0  0  0  0  0  0  0  0  0
   11.5149    4.4610    0.0000 H   0  0  0  0  0  0  0  0  0  0  0  0
  1  4  2  0  0  0  0
  1  5  2  0  0  0  0
  1  8  1  0  0  0  0
  1 22  1  0  0  0  0
  2 26  1  0  0  0  0
  3  9  1  0  0  0  0
  3 20  1  0  0  0  0
  6 27  1  0  0  0  0
  6 56  1  0  0  0  0
  7 13  1  0  0  0  0
  7 14  1  0  0  0  0
  7 15  1  0  0  0  0
  8 17  1  0  0  0  0
  8 19  1  0  0  0  0
  9 16  2  0  0  0  0
 10 11  1  0  0  0  0
 10 12  1  0  0  0  0
 10 16  1  0  0  0  0
 10 29  1  0  0  0  0
 11 13  1  0  0  0  0
 11 30  1  0  0  0  0
 11 31  1  0  0  0  0
 12 14  1  0  0  0  0
 12 32  1  0  0  0  0
 12 33  1  0  0  0  0
 13 34  1  0  0  0  0
 13 35  1  0  0  0  0
 14 36  1  0  0  0  0
 14 37  1  0  0  0  0
 15 17  1  0  0  0  0
 15 38  1  0  0  0  0
 15 39  1  0  0  0  0
 16 18  1  0  0  0  0
 17 40  1  0  0  0  0
 17 41  1  0  0  0  0
 18 20  2  0  0  0  0
 18 21  1  0  0  0  0
 19 25  1  0  0  0  0
 19 42  1  0  0  0  0
 19 43  1  0  0  0  0
 20 23  1  0  0  0  0
 21 24  2  0  0  0  0
 21 44  1  0  0  0  0
 22 27  1  0  0  0  0
 22 45  1  0  0  0  0
 22 46  1  0  0  0  0
 23 26  2  0  0  0  0
 23 47  1  0  0  0  0
 24 26  1  0  0  0  0
 24 28  1  0  0  0  0
 25 48  1  0  0  0  0
 25 49  1  0  0  0  0
 25 50  1  0  0  0  0
 27 51  1  0  0  0  0
 27 52  1  0  0  0  0
 28 53  1  0  0  0  0
 28 54  1  0  0  0  0
 28 55  1  0  0  0  0
M  END
> <PUBCHEM_COMPOUND_CID>
156552373

> <PUBCHEM_COMPOUND_CANONICALIZED>
1

> <PUBCHEM_CACTVS_COMPLEXITY>
595

> <PUBCHEM_CACTVS_HBOND_ACCEPTOR>
8

> <PUBCHEM_CACTVS_HBOND_DONOR>
1

> <PUBCHEM_CACTVS_ROTATABLE_BOND>
8

> <PUBCHEM_CACTVS_SUBSKEYS>
AAADceB7OQBAAAAAAAAAAAAAAAAAAWAAAAA8QAAAAAAAAFgB8AAAHwQESAAADQzl3g6yhtMQAgKpA6RyQnDCAAAkIAAgmCE+TNoIdrqAlZOUMYBmwBmIyceYyOCOIAACAAAIAABAAAQAABAAAAAAAAAAAA==

> <PUBCHEM_IUPAC_OPENEYE_NAME>
N-ethyl-N-[2-[4-(6-fluoro-5-methyl-1,2-benzoxazol-3-yl)-1-piperidyl]ethyl]-2-hydroxy-ethanesulfonamide

> <PUBCHEM_IUPAC_CAS_NAME>
N-ethyl-N-[2-[4-(6-fluoro-5-methyl-1,2-benzoxazol-3-yl)-1-piperidinyl]ethyl]-2-hydroxyethanesulfonamide

> <PUBCHEM_IUPAC_NAME_MARKUP>
<I>N</I>-ethyl-<I>N</I>-[2-[4-(6-fluoro-5-methyl-1,2-benzoxazol-3-yl)piperidin-1-yl]ethyl]-2-hydroxyethanesulfonamide

> <PUBCHEM_IUPAC_NAME>
N-ethyl-N-[2-[4-(6-fluoro-5-methyl-1,2-benzoxazol-3-yl)piperidin-1-yl]ethyl]-2-hydroxyethanesulfonamide

> <PUBCHEM_IUPAC_SYSTEMATIC_NAME>
N-ethyl-N-[2-[4-(6-fluoranyl-5-methyl-1,2-benzoxazol-3-yl)piperidin-1-yl]ethyl]-2-oxidanyl-ethanesulfonamide

> <PUBCHEM_IUPAC_TRADITIONAL_NAME>
N-ethyl-N-[2-[4-(6-fluoro-5-methyl-indoxazen-3-yl)piperidino]ethyl]-2-hydroxy-ethanesulfonamide

> <PUBCHEM_IUPAC_INCHI>
InChI=1S/C19H28FN3O4S/c1-3-23(28(25,26)11-10-24)9-8-22-6-4-15(5-7-22)19-16-12-14(2)17(20)13-18(16)27-21-19/h12-13,15,24H,3-11H2,1-2H3

> <PUBCHEM_IUPAC_INCHIKEY>
RZMZSGLGLBSHEO-UHFFFAOYSA-N

> <PUBCHEM_XLOGP3_AA>
1.8

> <PUBCHEM_EXACT_MASS>
413.17845572

> <PUBCHEM_MOLECULAR_FORMULA>
C19H28FN3O4S

> <PUBCHEM_MOLECULAR_WEIGHT>
413.5

> <PUBCHEM_OPENEYE_CAN_SMILES>
CCN(CCN1CCC(CC1)C2=NOC3=C2C=C(C(=C3)F)C)S(=O)(=O)CCO

> <PUBCHEM_OPENEYE_ISO_SMILES>
CCN(CCN1CCC(CC1)C2=NOC3=C2C=C(C(=C3)F)C)S(=O)(=O)CCO

> <PUBCHEM_CACTVS_TPSA>
95.3

> <PUBCHEM_MONOISOTOPIC_WEIGHT>
413.17845572

> <PUBCHEM_TOTAL_CHARGE>
0

> <PUBCHEM_HEAVY_ATOM_COUNT>
28

> <PUBCHEM_ATOM_DEF_STEREO_COUNT>
0

> <PUBCHEM_ATOM_UDEF_STEREO_COUNT>
0

> <PUBCHEM_BOND_DEF_STEREO_COUNT>
0

> <PUBCHEM_BOND_UDEF_STEREO_COUNT>
0

> <PUBCHEM_ISOTOPIC_ATOM_COUNT>
0

> <PUBCHEM_COMPONENT_COUNT>
1

> <PUBCHEM_CACTVS_TAUTO_COUNT>
-1

> <PUBCHEM_COORDINATE_TYPE>
1
5
255

> <PUBCHEM_BONDANNOTATIONS>
16  18  8
18  20  8
18  21  8
20  23  8
21  24  8
23  26  8
24  26  8
3  20  8
3  9  8
9  16  8

$$$$
