5311096
  -OEChem-09292322082D

 63 67  0     1  0  0  0  0  0999 V2000
   13.3224    0.2363    0.0000 O   0  0  0  0  0  0  0  0  0  0  0  0
    7.2602    0.7363    0.0000 N   0  0  3  0  0  0  0  0  0  0  0  0
   12.4564   -1.2637    0.0000 N   0  0  0  0  0  0  0  0  0  0  0  0
   15.9205   -2.2637    0.0000 N   0  0  0  0  0  0  0  0  0  0  0  0
    2.0000    2.7637    0.0000 N   0  0  0  0  0  0  0  0  0  0  0  0
    9.8583    0.2363    0.0000 C   0  0  0  0  0  0  0  0  0  0  0  0
   10.7243    0.7363    0.0000 C   0  0  0  0  0  0  0  0  0  0  0  0
    9.8583   -0.7637    0.0000 C   0  0  0  0  0  0  0  0  0  0  0  0
   11.5904   -0.7637    0.0000 C   0  0  0  0  0  0  0  0  0  0  0  0
   11.5904    0.2363    0.0000 C   0  0  0  0  0  0  0  0  0  0  0  0
   10.7243   -1.2637    0.0000 C   0  0  0  0  0  0  0  0  0  0  0  0
    8.9923    0.7363    0.0000 C   0  0  0  0  0  0  0  0  0  0  0  0
    8.1263    0.2363    0.0000 C   0  0  0  0  0  0  0  0  0  0  0  0
    7.2602    1.7363    0.0000 C   0  0  0  0  0  0  0  0  0  0  0  0
    6.3942    0.2363    0.0000 C   0  0  0  0  0  0  0  0  0  0  0  0
    6.3942    2.2363    0.0000 C   0  0  0  0  0  0  0  0  0  0  0  0
    5.5282    0.7363    0.0000 C   0  0  0  0  0  0  0  0  0  0  0  0
    5.5282    1.7363    0.0000 C   0  0  0  0  0  0  0  0  0  0  0  0
   13.3224   -0.7637    0.0000 C   0  0  0  0  0  0  0  0  0  0  0  0
    4.6342    0.2016    0.0000 C   0  0  0  0  0  0  0  0  0  0  0  0
    4.6342    2.2709    0.0000 C   0  0  0  0  0  0  0  0  0  0  0  0
   14.1884   -1.2637    0.0000 C   0  0  0  0  0  0  0  0  0  0  0  0
    3.7282    0.7154    0.0000 C   0  0  0  0  0  0  0  0  0  0  0  0
    3.7282    1.7571    0.0000 C   0  0  0  0  0  0  0  0  0  0  0  0
   15.0545   -0.7637    0.0000 C   0  0  0  0  0  0  0  0  0  0  0  0
   14.1884   -2.2637    0.0000 C   0  0  0  0  0  0  0  0  0  0  0  0
   15.9205   -1.2637    0.0000 C   0  0  0  0  0  0  0  0  0  0  0  0
   15.0384    0.2778    0.0000 C   0  0  0  0  0  0  0  0  0  0  0  0
    2.8641    2.2604    0.0000 C   0  0  0  0  0  0  0  0  0  0  0  0
   15.0545   -2.7637    0.0000 C   0  0  0  0  0  0  0  0  0  0  0  0
   16.8305   -0.7569    0.0000 C   0  0  0  0  0  0  0  0  0  0  0  0
   15.9364    0.8055    0.0000 C   0  0  0  0  0  0  0  0  0  0  0  0
   16.8385    0.2847    0.0000 C   0  0  0  0  0  0  0  0  0  0  0  0
    9.3214   -0.0737    0.0000 H   0  0  0  0  0  0  0  0  0  0  0  0
   11.1229    1.2112    0.0000 H   0  0  0  0  0  0  0  0  0  0  0  0
   10.3258    1.2112    0.0000 H   0  0  0  0  0  0  0  0  0  0  0  0
    9.2477   -0.6561    0.0000 H   0  0  0  0  0  0  0  0  0  0  0  0
    9.6463   -1.3464    0.0000 H   0  0  0  0  0  0  0  0  0  0  0  0
   12.1273   -0.4537    0.0000 H   0  0  0  0  0  0  0  0  0  0  0  0
   12.2010    0.1286    0.0000 H   0  0  0  0  0  0  0  0  0  0  0  0
   11.8024    0.8189    0.0000 H   0  0  0  0  0  0  0  0  0  0  0  0
   10.3258   -1.7387    0.0000 H   0  0  0  0  0  0  0  0  0  0  0  0
   11.1229   -1.7387    0.0000 H   0  0  0  0  0  0  0  0  0  0  0  0
    9.3908    1.2112    0.0000 H   0  0  0  0  0  0  0  0  0  0  0  0
    8.5938    1.2112    0.0000 H   0  0  0  0  0  0  0  0  0  0  0  0
    7.7277   -0.2387    0.0000 H   0  0  0  0  0  0  0  0  0  0  0  0
    8.5248   -0.2387    0.0000 H   0  0  0  0  0  0  0  0  0  0  0  0
   12.4564   -1.8837    0.0000 H   0  0  0  0  0  0  0  0  0  0  0  0
    7.8708    1.6286    0.0000 H   0  0  0  0  0  0  0  0  0  0  0  0
    7.4723    2.3189    0.0000 H   0  0  0  0  0  0  0  0  0  0  0  0
    5.9957   -0.2387    0.0000 H   0  0  0  0  0  0  0  0  0  0  0  0
    6.7928   -0.2387    0.0000 H   0  0  0  0  0  0  0  0  0  0  0  0
    6.7928    2.7112    0.0000 H   0  0  0  0  0  0  0  0  0  0  0  0
    5.9957    2.7112    0.0000 H   0  0  0  0  0  0  0  0  0  0  0  0
    4.6414   -0.4184    0.0000 H   0  0  0  0  0  0  0  0  0  0  0  0
    4.6414    2.8909    0.0000 H   0  0  0  0  0  0  0  0  0  0  0  0
    3.1924    0.4034    0.0000 H   0  0  0  0  0  0  0  0  0  0  0  0
   13.6515   -2.5737    0.0000 H   0  0  0  0  0  0  0  0  0  0  0  0
   14.4979    0.5815    0.0000 H   0  0  0  0  0  0  0  0  0  0  0  0
   15.0545   -3.3837    0.0000 H   0  0  0  0  0  0  0  0  0  0  0  0
   17.3638   -1.0731    0.0000 H   0  0  0  0  0  0  0  0  0  0  0  0
   15.9341    1.4255    0.0000 H   0  0  0  0  0  0  0  0  0  0  0  0
   17.3767    0.5926    0.0000 H   0  0  0  0  0  0  0  0  0  0  0  0
  1 19  2  0  0  0  0
  2 13  1  0  0  0  0
  2 14  1  0  0  0  0
  2 15  1  0  0  0  0
  3  9  1  0  0  0  0
  3 19  1  0  0  0  0
  3 48  1  0  0  0  0
  4 27  1  0  0  0  0
  4 30  2  0  0  0  0
  5 29  3  0  0  0  0
  6  7  1  0  0  0  0
  6  8  1  0  0  0  0
  6 12  1  0  0  0  0
  6 34  1  0  0  0  0
  7 10  1  0  0  0  0
  7 35  1  0  0  0  0
  7 36  1  0  0  0  0
  8 11  1  0  0  0  0
  8 37  1  0  0  0  0
  8 38  1  0  0  0  0
  9 10  1  0  0  0  0
  9 11  1  0  0  0  0
  9 39  1  0  0  0  0
 10 40  1  0  0  0  0
 10 41  1  0  0  0  0
 11 42  1  0  0  0  0
 11 43  1  0  0  0  0
 12 13  1  0  0  0  0
 12 44  1  0  0  0  0
 12 45  1  0  0  0  0
 13 46  1  0  0  0  0
 13 47  1  0  0  0  0
 14 16  1  0  0  0  0
 14 49  1  0  0  0  0
 14 50  1  0  0  0  0
 15 17  1  0  0  0  0
 15 51  1  0  0  0  0
 15 52  1  0  0  0  0
 16 18  1  0  0  0  0
 16 53  1  0  0  0  0
 16 54  1  0  0  0  0
 17 18  2  0  0  0  0
 17 20  1  0  0  0  0
 18 21  1  0  0  0  0
 19 22  1  0  0  0  0
 20 23  2  0  0  0  0
 20 55  1  0  0  0  0
 21 24  2  0  0  0  0
 21 56  1  0  0  0  0
 22 25  1  0  0  0  0
 22 26  2  0  0  0  0
 23 24  1  0  0  0  0
 23 57  1  0  0  0  0
 24 29  1  0  0  0  0
 25 27  1  0  0  0  0
 25 28  2  0  0  0  0
 26 30  1  0  0  0  0
 26 58  1  0  0  0  0
 27 31  2  0  0  0  0
 28 32  1  0  0  0  0
 28 59  1  0  0  0  0
 30 60  1  0  0  0  0
 31 33  1  0  0  0  0
 31 61  1  0  0  0  0
 32 33  2  0  0  0  0
 32 62  1  0  0  0  0
 33 63  1  0  0  0  0
M  END
> <PUBCHEM_COMPOUND_CID>
5311096

> <PUBCHEM_COMPOUND_CANONICALIZED>
1

> <PUBCHEM_CACTVS_COMPLEXITY>
708

> <PUBCHEM_CACTVS_HBOND_ACCEPTOR>
4

> <PUBCHEM_CACTVS_HBOND_DONOR>
1

> <PUBCHEM_CACTVS_ROTATABLE_BOND>
5

> <PUBCHEM_CACTVS_SUBSKEYS>
AAADceB7oAAAAAAAAAAAAAAAAAAAAAAAAAA8eMECAAAAAACx9AAAHgAQAAAADSjBngQ8wPPIEAC4BzV3VACigCA1AiAI2KE4ZNgIoPLAlZGEIQhglgDIyY8ciMCOwAACAAASAACQAAQAACQAAAAAAAAAAA==

> <PUBCHEM_IUPAC_OPENEYE_NAME>
N-[4-[2-(6-cyano-3,4-dihydro-1H-isoquinolin-2-yl)ethyl]cyclohexyl]quinoline-4-carboxamide

> <PUBCHEM_IUPAC_CAS_NAME>
N-[4-[2-(6-cyano-3,4-dihydro-1H-isoquinolin-2-yl)ethyl]cyclohexyl]-4-quinolinecarboxamide

> <PUBCHEM_IUPAC_NAME_MARKUP>
<I>N</I>-[4-[2-(6-cyano-3,4-dihydro-1<I>H</I>-isoquinolin-2-yl)ethyl]cyclohexyl]quinoline-4-carboxamide

> <PUBCHEM_IUPAC_NAME>
N-[4-[2-(6-cyano-3,4-dihydro-1H-isoquinolin-2-yl)ethyl]cyclohexyl]quinoline-4-carboxamide

> <PUBCHEM_IUPAC_SYSTEMATIC_NAME>
N-[4-[2-(6-cyano-3,4-dihydro-1H-isoquinolin-2-yl)ethyl]cyclohexyl]quinoline-4-carboxamide

> <PUBCHEM_IUPAC_TRADITIONAL_NAME>
N-[4-[2-(6-cyano-3,4-dihydro-1H-isoquinolin-2-yl)ethyl]cyclohexyl]cinchoninamide

> <PUBCHEM_IUPAC_INCHI>
InChI=1S/C28H30N4O/c29-18-21-5-8-23-19-32(16-13-22(23)17-21)15-12-20-6-9-24(10-7-20)31-28(33)26-11-14-30-27-4-2-1-3-25(26)27/h1-5,8,11,14,17,20,24H,6-7,9-10,12-13,15-16,19H2,(H,31,33)

> <PUBCHEM_IUPAC_INCHIKEY>
OLWRVVHPJFLNPW-UHFFFAOYSA-N

> <PUBCHEM_XLOGP3_AA>
4.6

> <PUBCHEM_EXACT_MASS>
438.24196159

> <PUBCHEM_MOLECULAR_FORMULA>
C28H30N4O

> <PUBCHEM_MOLECULAR_WEIGHT>
438.6

> <PUBCHEM_OPENEYE_CAN_SMILES>
C1CC(CCC1CCN2CCC3=C(C2)C=CC(=C3)C#N)NC(=O)C4=CC=NC5=CC=CC=C45

> <PUBCHEM_OPENEYE_ISO_SMILES>
C1CC(CCC1CCN2CCC3=C(C2)C=CC(=C3)C#N)NC(=O)C4=CC=NC5=CC=CC=C45

> <PUBCHEM_CACTVS_TPSA>
69

> <PUBCHEM_MONOISOTOPIC_WEIGHT>
438.24196159

> <PUBCHEM_TOTAL_CHARGE>
0

> <PUBCHEM_HEAVY_ATOM_COUNT>
33

> <PUBCHEM_ATOM_DEF_STEREO_COUNT>
0

> <PUBCHEM_ATOM_UDEF_STEREO_COUNT>
0

> <PUBCHEM_BOND_DEF_STEREO_COUNT>
0

> <PUBCHEM_BOND_UDEF_STEREO_COUNT>
0

> <PUBCHEM_ISOTOPIC_ATOM_COUNT>
0

> <PUBCHEM_COMPONENT_COUNT>
1

> <PUBCHEM_CACTVS_TAUTO_COUNT>
2

> <PUBCHEM_COORDINATE_TYPE>
1
5
255

> <PUBCHEM_BONDANNOTATIONS>
17  18  8
17  20  8
18  21  8
20  23  8
21  24  8
22  25  8
22  26  8
23  24  8
25  27  8
25  28  8
26  30  8
27  31  8
28  32  8
31  33  8
32  33  8
4  27  8
4  30  8

$$$$
