56944951
  -OEChem-09292322392D

 59 63  0     1  0  0  0  0  0999 V2000
    2.0000   -4.7936    0.0000 Cl  0  0  0  0  0  0  0  0  0  0  0  0
    7.1616    3.1219    0.0000 S   0  0  0  0  0  0  0  0  0  0  0  0
    6.1616    3.1219    0.0000 O   0  0  0  0  0  0  0  0  0  0  0  0
    8.1616    3.1219    0.0000 O   0  0  0  0  0  0  0  0  0  0  0  0
    5.4296   -0.8781    0.0000 N   0  0  3  0  0  0  0  0  0  0  0  0
    7.1616    2.1219    0.0000 N   0  0  0  0  0  0  0  0  0  0  0  0
    5.9296   -5.4079    0.0000 N   0  0  0  0  0  0  0  0  0  0  0  0
    4.5636   -1.3781    0.0000 C   0  0  0  0  0  0  0  0  0  0  0  0
    4.5636   -2.3781    0.0000 C   0  0  0  0  0  0  0  0  0  0  0  0
    5.4296    0.1219    0.0000 C   0  0  0  0  0  0  0  0  0  0  0  0
    6.2956   -1.3781    0.0000 C   0  0  0  0  0  0  0  0  0  0  0  0
    5.4296   -2.8781    0.0000 C   0  0  0  0  0  0  0  0  0  0  0  0
    6.2956    0.6219    0.0000 C   0  0  0  0  0  0  0  0  0  0  0  0
    6.2956   -2.3781    0.0000 C   0  0  0  0  0  0  0  0  0  0  0  0
    5.4296   -3.8781    0.0000 C   0  0  0  0  0  0  0  0  0  0  0  0
    6.2956    1.6219    0.0000 C   0  0  0  0  0  0  0  0  0  0  0  0
    4.6249   -4.4617    0.0000 C   0  0  0  0  0  0  0  0  0  0  0  0
    6.2343   -4.4617    0.0000 C   0  0  0  0  0  0  0  0  0  0  0  0
    4.9355   -5.4122    0.0000 C   0  0  0  0  0  0  0  0  0  0  0  0
    3.6464   -4.2555    0.0000 C   0  0  0  0  0  0  0  0  0  0  0  0
    7.1616    4.1219    0.0000 C   0  0  0  0  0  0  0  0  0  0  0  0
    4.2677   -6.1566    0.0000 C   0  0  0  0  0  0  0  0  0  0  0  0
    8.0277    4.6219    0.0000 C   0  0  0  0  0  0  0  0  0  0  0  0
    2.9785   -4.9998    0.0000 C   0  0  0  0  0  0  0  0  0  0  0  0
    3.2892   -5.9503    0.0000 C   0  0  0  0  0  0  0  0  0  0  0  0
    8.0277    5.6219    0.0000 C   0  0  0  0  0  0  0  0  0  0  0  0
    6.2956    4.6219    0.0000 C   0  0  0  0  0  0  0  0  0  0  0  0
    8.9216    4.0872    0.0000 C   0  0  0  0  0  0  0  0  0  0  0  0
    7.1616    6.1219    0.0000 C   0  0  0  0  0  0  0  0  0  0  0  0
    6.2956    5.6219    0.0000 C   0  0  0  0  0  0  0  0  0  0  0  0
    8.9216    6.1566    0.0000 C   0  0  0  0  0  0  0  0  0  0  0  0
    9.8277    4.6011    0.0000 C   0  0  0  0  0  0  0  0  0  0  0  0
    9.8277    5.6427    0.0000 C   0  0  0  0  0  0  0  0  0  0  0  0
    4.3515   -0.7955    0.0000 H   0  0  0  0  0  0  0  0  0  0  0  0
    3.9530   -1.4858    0.0000 H   0  0  0  0  0  0  0  0  0  0  0  0
    3.9530   -2.2704    0.0000 H   0  0  0  0  0  0  0  0  0  0  0  0
    4.3515   -2.9607    0.0000 H   0  0  0  0  0  0  0  0  0  0  0  0
    5.2175    0.7045    0.0000 H   0  0  0  0  0  0  0  0  0  0  0  0
    4.8190    0.0142    0.0000 H   0  0  0  0  0  0  0  0  0  0  0  0
    6.9062   -1.4858    0.0000 H   0  0  0  0  0  0  0  0  0  0  0  0
    6.5077   -0.7955    0.0000 H   0  0  0  0  0  0  0  0  0  0  0  0
    6.5077    0.0393    0.0000 H   0  0  0  0  0  0  0  0  0  0  0  0
    6.9062    0.7295    0.0000 H   0  0  0  0  0  0  0  0  0  0  0  0
    6.8326   -2.6881    0.0000 H   0  0  0  0  0  0  0  0  0  0  0  0
    6.0836    2.2045    0.0000 H   0  0  0  0  0  0  0  0  0  0  0  0
    5.6850    1.5142    0.0000 H   0  0  0  0  0  0  0  0  0  0  0  0
    6.8236   -4.2691    0.0000 H   0  0  0  0  0  0  0  0  0  0  0  0
    7.6986    1.8119    0.0000 H   0  0  0  0  0  0  0  0  0  0  0  0
    6.2958   -5.9083    0.0000 H   0  0  0  0  0  0  0  0  0  0  0  0
    3.4537   -3.6662    0.0000 H   0  0  0  0  0  0  0  0  0  0  0  0
    4.4603   -6.7459    0.0000 H   0  0  0  0  0  0  0  0  0  0  0  0
    2.8751   -6.4118    0.0000 H   0  0  0  0  0  0  0  0  0  0  0  0
    5.7587    4.3119    0.0000 H   0  0  0  0  0  0  0  0  0  0  0  0
    8.9144    3.4673    0.0000 H   0  0  0  0  0  0  0  0  0  0  0  0
    7.1616    6.7419    0.0000 H   0  0  0  0  0  0  0  0  0  0  0  0
    5.7587    5.9319    0.0000 H   0  0  0  0  0  0  0  0  0  0  0  0
    8.9144    6.7765    0.0000 H   0  0  0  0  0  0  0  0  0  0  0  0
   10.3634    4.2890    0.0000 H   0  0  0  0  0  0  0  0  0  0  0  0
   10.3634    5.9548    0.0000 H   0  0  0  0  0  0  0  0  0  0  0  0
  1 24  1  0  0  0  0
  2  3  2  0  0  0  0
  2  4  2  0  0  0  0
  2  6  1  0  0  0  0
  2 21  1  0  0  0  0
  5  8  1  0  0  0  0
  5 10  1  0  0  0  0
  5 11  1  0  0  0  0
  6 16  1  0  0  0  0
  6 48  1  0  0  0  0
  7 18  1  0  0  0  0
  7 19  1  0  0  0  0
  7 49  1  0  0  0  0
  8  9  1  0  0  0  0
  8 34  1  0  0  0  0
  8 35  1  0  0  0  0
  9 12  1  0  0  0  0
  9 36  1  0  0  0  0
  9 37  1  0  0  0  0
 10 13  1  0  0  0  0
 10 38  1  0  0  0  0
 10 39  1  0  0  0  0
 11 14  1  0  0  0  0
 11 40  1  0  0  0  0
 11 41  1  0  0  0  0
 12 14  2  0  0  0  0
 12 15  1  0  0  0  0
 13 16  1  0  0  0  0
 13 42  1  0  0  0  0
 13 43  1  0  0  0  0
 14 44  1  0  0  0  0
 15 17  1  0  0  0  0
 15 18  2  0  0  0  0
 16 45  1  0  0  0  0
 16 46  1  0  0  0  0
 17 19  2  0  0  0  0
 17 20  1  0  0  0  0
 18 47  1  0  0  0  0
 19 22  1  0  0  0  0
 20 24  2  0  0  0  0
 20 50  1  0  0  0  0
 21 23  1  0  0  0  0
 21 27  2  0  0  0  0
 22 25  2  0  0  0  0
 22 51  1  0  0  0  0
 23 26  1  0  0  0  0
 23 28  2  0  0  0  0
 24 25  1  0  0  0  0
 25 52  1  0  0  0  0
 26 29  1  0  0  0  0
 26 31  2  0  0  0  0
 27 30  1  0  0  0  0
 27 53  1  0  0  0  0
 28 32  1  0  0  0  0
 28 54  1  0  0  0  0
 29 30  2  0  0  0  0
 29 55  1  0  0  0  0
 30 56  1  0  0  0  0
 31 33  1  0  0  0  0
 31 57  1  0  0  0  0
 32 33  2  0  0  0  0
 32 58  1  0  0  0  0
 33 59  1  0  0  0  0
M  END
> <PUBCHEM_COMPOUND_CID>
56944951

> <PUBCHEM_COMPOUND_CANONICALIZED>
1

> <PUBCHEM_CACTVS_COMPLEXITY>
798

> <PUBCHEM_CACTVS_HBOND_ACCEPTOR>
4

> <PUBCHEM_CACTVS_HBOND_DONOR>
2

> <PUBCHEM_CACTVS_ROTATABLE_BOND>
7

> <PUBCHEM_CACTVS_SUBSKEYS>
AAADceB7MABEAAAAAAAAAAAAAAAAAWAAAAAwYMEAAAAAAFjB9AAAHAYQQAAADArBXiQ8wfPJkAKgAzRnRHDCgDAxByAI2bg4ZpgIIOLB05GEIAhgkADIyAcQgMAOgABAoAAWAAAAAIFAACwAAAAAAAAAAA==

> <PUBCHEM_IUPAC_OPENEYE_NAME>
N-[3-[4-(5-chloro-1H-indol-3-yl)-3,6-dihydro-2H-pyridin-1-yl]propyl]naphthalene-1-sulfonamide

> <PUBCHEM_IUPAC_CAS_NAME>
N-[3-[4-(5-chloro-1H-indol-3-yl)-3,6-dihydro-2H-pyridin-1-yl]propyl]-1-naphthalenesulfonamide

> <PUBCHEM_IUPAC_NAME_MARKUP>
<I>N</I>-[3-[4-(5-chloro-1<I>H</I>-indol-3-yl)-3,6-dihydro-2<I>H</I>-pyridin-1-yl]propyl]naphthalene-1-sulfonamide

> <PUBCHEM_IUPAC_NAME>
N-[3-[4-(5-chloro-1H-indol-3-yl)-3,6-dihydro-2H-pyridin-1-yl]propyl]naphthalene-1-sulfonamide

> <PUBCHEM_IUPAC_SYSTEMATIC_NAME>
N-[3-[4-(5-chloranyl-1H-indol-3-yl)-3,6-dihydro-2H-pyridin-1-yl]propyl]naphthalene-1-sulfonamide

> <PUBCHEM_IUPAC_TRADITIONAL_NAME>
N-[3-[4-(5-chloro-1H-indol-3-yl)-3,6-dihydro-2H-pyridin-1-yl]propyl]naphthalene-1-sulfonamide

> <PUBCHEM_IUPAC_INCHI>
InChI=1S/C26H26ClN3O2S/c27-21-9-10-25-23(17-21)24(18-28-25)20-11-15-30(16-12-20)14-4-13-29-33(31,32)26-8-3-6-19-5-1-2-7-22(19)26/h1-3,5-11,17-18,28-29H,4,12-16H2

> <PUBCHEM_IUPAC_INCHIKEY>
OBVJYSIRBVCCNU-UHFFFAOYSA-N

> <PUBCHEM_XLOGP3_AA>
5.2

> <PUBCHEM_EXACT_MASS>
479.1434259

> <PUBCHEM_MOLECULAR_FORMULA>
C26H26ClN3O2S

> <PUBCHEM_MOLECULAR_WEIGHT>
480.0

> <PUBCHEM_OPENEYE_CAN_SMILES>
C1CN(CC=C1C2=CNC3=C2C=C(C=C3)Cl)CCCNS(=O)(=O)C4=CC=CC5=CC=CC=C54

> <PUBCHEM_OPENEYE_ISO_SMILES>
C1CN(CC=C1C2=CNC3=C2C=C(C=C3)Cl)CCCNS(=O)(=O)C4=CC=CC5=CC=CC=C54

> <PUBCHEM_CACTVS_TPSA>
73.6

> <PUBCHEM_MONOISOTOPIC_WEIGHT>
479.1434259

> <PUBCHEM_TOTAL_CHARGE>
0

> <PUBCHEM_HEAVY_ATOM_COUNT>
33

> <PUBCHEM_ATOM_DEF_STEREO_COUNT>
0

> <PUBCHEM_ATOM_UDEF_STEREO_COUNT>
0

> <PUBCHEM_BOND_DEF_STEREO_COUNT>
0

> <PUBCHEM_BOND_UDEF_STEREO_COUNT>
0

> <PUBCHEM_ISOTOPIC_ATOM_COUNT>
0

> <PUBCHEM_COMPONENT_COUNT>
1

> <PUBCHEM_CACTVS_TAUTO_COUNT>
-1

> <PUBCHEM_COORDINATE_TYPE>
1
5
255

> <PUBCHEM_BONDANNOTATIONS>
15  17  8
15  18  8
17  19  8
17  20  8
19  22  8
20  24  8
21  23  8
21  27  8
22  25  8
23  26  8
23  28  8
24  25  8
26  29  8
26  31  8
27  30  8
28  32  8
29  30  8
31  33  8
32  33  8
7  18  8
7  19  8

$$$$
