164613736
  -OEChem-09292322442D

 54 57  0     1  0  0  0  0  0999 V2000
    2.0000    1.2154    0.0000 O   0  0  0  0  0  0  0  0  0  0  0  0
    2.0000    3.2154    0.0000 O   0  0  0  0  0  0  0  0  0  0  0  0
    8.9826   -1.8154    0.0000 O   0  0  0  0  0  0  0  0  0  0  0  0
    6.3981    1.6946    0.0000 N   0  0  3  0  0  0  0  0  0  0  0  0
    9.8544   -0.3187    0.0000 N   0  0  0  0  0  0  0  0  0  0  0  0
   14.1711   -3.8354    0.0000 N   0  0  0  0  0  0  0  0  0  0  0  0
    6.3981    2.7362    0.0000 C   0  0  0  0  0  0  0  0  0  0  0  0
    5.4920    1.1808    0.0000 C   0  0  0  0  0  0  0  0  0  0  0  0
    5.4920    3.2501    0.0000 C   0  0  0  0  0  0  0  0  0  0  0  0
    4.5981    1.7154    0.0000 C   0  0  0  0  0  0  0  0  0  0  0  0
    4.5981    2.7154    0.0000 C   0  0  0  0  0  0  0  0  0  0  0  0
    7.2622    1.1913    0.0000 C   0  0  0  0  0  0  0  0  0  0  0  0
    8.1301    1.6879    0.0000 C   0  0  0  0  0  0  0  0  0  0  0  0
    3.7320    1.2154    0.0000 C   0  0  0  0  0  0  0  0  0  0  0  0
    3.7320    3.2154    0.0000 C   0  0  0  0  0  0  0  0  0  0  0  0
    8.9942    1.1846    0.0000 C   0  0  0  0  0  0  0  0  0  0  0  0
    2.8660    1.7154    0.0000 C   0  0  0  0  0  0  0  0  0  0  0  0
    2.8660    2.7154    0.0000 C   0  0  0  0  0  0  0  0  0  0  0  0
    8.1340    2.6879    0.0000 C   0  0  0  0  0  0  0  0  0  0  0  0
    8.9904    0.1846    0.0000 C   0  0  0  0  0  0  0  0  0  0  0  0
    9.8622    1.6812    0.0000 C   0  0  0  0  0  0  0  0  0  0  0  0
    9.0019    3.1846    0.0000 C   0  0  0  0  0  0  0  0  0  0  0  0
    9.8660    2.6812    0.0000 C   0  0  0  0  0  0  0  0  0  0  0  0
    9.8506   -1.3187    0.0000 C   0  0  0  0  0  0  0  0  0  0  0  0
   10.7147   -1.8221    0.0000 C   0  0  0  0  0  0  0  0  0  0  0  0
   10.7108   -2.8221    0.0000 C   0  0  0  0  0  0  0  0  0  0  0  0
   11.5826   -1.3254    0.0000 C   0  0  0  0  0  0  0  0  0  0  0  0
   11.5749   -3.3254    0.0000 C   0  0  0  0  0  0  0  0  0  0  0  0
   12.4467   -1.8288    0.0000 C   0  0  0  0  0  0  0  0  0  0  0  0
   12.4429   -2.8287    0.0000 C   0  0  0  0  0  0  0  0  0  0  0  0
   13.3070   -3.3321    0.0000 C   0  0  0  0  0  0  0  0  0  0  0  0
    7.0089    2.6301    0.0000 H   0  0  0  0  0  0  0  0  0  0  0  0
    6.6071    3.3199    0.0000 H   0  0  0  0  0  0  0  0  0  0  0  0
    5.0874    0.7110    0.0000 H   0  0  0  0  0  0  0  0  0  0  0  0
    5.8856    0.7017    0.0000 H   0  0  0  0  0  0  0  0  0  0  0  0
    5.8856    3.7291    0.0000 H   0  0  0  0  0  0  0  0  0  0  0  0
    5.0874    3.7199    0.0000 H   0  0  0  0  0  0  0  0  0  0  0  0
    6.8618    0.7179    0.0000 H   0  0  0  0  0  0  0  0  0  0  0  0
    7.6589    0.7148    0.0000 H   0  0  0  0  0  0  0  0  0  0  0  0
    3.7320    0.5954    0.0000 H   0  0  0  0  0  0  0  0  0  0  0  0
    3.7320    3.8354    0.0000 H   0  0  0  0  0  0  0  0  0  0  0  0
    7.5982    3.0000    0.0000 H   0  0  0  0  0  0  0  0  0  0  0  0
    8.3802    0.2946    0.0000 H   0  0  0  0  0  0  0  0  0  0  0  0
    8.7761   -0.3972    0.0000 H   0  0  0  0  0  0  0  0  0  0  0  0
   10.3979    1.3692    0.0000 H   0  0  0  0  0  0  0  0  0  0  0  0
    9.0043    3.8046    0.0000 H   0  0  0  0  0  0  0  0  0  0  0  0
   10.4041    2.9892    0.0000 H   0  0  0  0  0  0  0  0  0  0  0  0
   10.3926   -0.0108    0.0000 H   0  0  0  0  0  0  0  0  0  0  0  0
    2.0000    0.5954    0.0000 H   0  0  0  0  0  0  0  0  0  0  0  0
    2.0000    3.8354    0.0000 H   0  0  0  0  0  0  0  0  0  0  0  0
   10.1727   -3.1300    0.0000 H   0  0  0  0  0  0  0  0  0  0  0  0
   11.5850   -0.7054    0.0000 H   0  0  0  0  0  0  0  0  0  0  0  0
   11.5725   -3.9454    0.0000 H   0  0  0  0  0  0  0  0  0  0  0  0
   12.9849   -1.5208    0.0000 H   0  0  0  0  0  0  0  0  0  0  0  0
  1 17  1  0  0  0  0
  1 49  1  0  0  0  0
  2 18  1  0  0  0  0
  2 50  1  0  0  0  0
  3 24  2  0  0  0  0
  4  7  1  0  0  0  0
  4  8  1  0  0  0  0
  4 12  1  0  0  0  0
  5 20  1  0  0  0  0
  5 24  1  0  0  0  0
  5 48  1  0  0  0  0
  6 31  3  0  0  0  0
  7  9  1  0  0  0  0
  7 32  1  0  0  0  0
  7 33  1  0  0  0  0
  8 10  1  0  0  0  0
  8 34  1  0  0  0  0
  8 35  1  0  0  0  0
  9 11  1  0  0  0  0
  9 36  1  0  0  0  0
  9 37  1  0  0  0  0
 10 11  1  0  0  0  0
 10 14  2  0  0  0  0
 11 15  2  0  0  0  0
 12 13  1  0  0  0  0
 12 38  1  0  0  0  0
 12 39  1  0  0  0  0
 13 16  1  0  0  0  0
 13 19  2  0  0  0  0
 14 17  1  0  0  0  0
 14 40  1  0  0  0  0
 15 18  1  0  0  0  0
 15 41  1  0  0  0  0
 16 20  1  0  0  0  0
 16 21  2  0  0  0  0
 17 18  2  0  0  0  0
 19 22  1  0  0  0  0
 19 42  1  0  0  0  0
 20 43  1  0  0  0  0
 20 44  1  0  0  0  0
 21 23  1  0  0  0  0
 21 45  1  0  0  0  0
 22 23  2  0  0  0  0
 22 46  1  0  0  0  0
 23 47  1  0  0  0  0
 24 25  1  0  0  0  0
 25 26  2  0  0  0  0
 25 27  1  0  0  0  0
 26 28  1  0  0  0  0
 26 51  1  0  0  0  0
 27 29  2  0  0  0  0
 27 52  1  0  0  0  0
 28 30  2  0  0  0  0
 28 53  1  0  0  0  0
 29 30  1  0  0  0  0
 29 54  1  0  0  0  0
 30 31  1  0  0  0  0
M  END
> <PUBCHEM_COMPOUND_CID>
164613736

> <PUBCHEM_COMPOUND_CANONICALIZED>
1

> <PUBCHEM_CACTVS_COMPLEXITY>
654

> <PUBCHEM_CACTVS_HBOND_ACCEPTOR>
5

> <PUBCHEM_CACTVS_HBOND_DONOR>
3

> <PUBCHEM_CACTVS_ROTATABLE_BOND>
5

> <PUBCHEM_CACTVS_SUBSKEYS>
AAADceB7MAAAAAAAAAAAAAAAAAAAAAAAAAA8YMEAAAAAAACxUAAAHgAQCAAADATBmAQwBoPAAgCYBiFSEACiAAAkIAAIiIEOjMgJpjKClROEcQlkxhGJmY+42LKO4AABAAAQQADAAAIAACCAAAAAAAAAAA==

> <PUBCHEM_IUPAC_OPENEYE_NAME>
4-cyano-N-[[2-[(6,7-dihydroxy-3,4-dihydro-1H-isoquinolin-2-yl)methyl]phenyl]methyl]benzamide

> <PUBCHEM_IUPAC_CAS_NAME>
4-cyano-N-[[2-[(6,7-dihydroxy-3,4-dihydro-1H-isoquinolin-2-yl)methyl]phenyl]methyl]benzamide

> <PUBCHEM_IUPAC_NAME_MARKUP>
4-cyano-<I>N</I>-[[2-[(6,7-dihydroxy-3,4-dihydro-1<I>H</I>-isoquinolin-2-yl)methyl]phenyl]methyl]benzamide

> <PUBCHEM_IUPAC_NAME>
4-cyano-N-[[2-[(6,7-dihydroxy-3,4-dihydro-1H-isoquinolin-2-yl)methyl]phenyl]methyl]benzamide

> <PUBCHEM_IUPAC_SYSTEMATIC_NAME>
N-[[2-[[6,7-bis(oxidanyl)-3,4-dihydro-1H-isoquinolin-2-yl]methyl]phenyl]methyl]-4-cyano-benzamide

> <PUBCHEM_IUPAC_TRADITIONAL_NAME>
4-cyano-N-[2-[(6,7-dihydroxy-3,4-dihydro-1H-isoquinolin-2-yl)methyl]benzyl]benzamide

> <PUBCHEM_IUPAC_INCHI>
InChI=1S/C25H23N3O3/c26-13-17-5-7-18(8-6-17)25(31)27-14-20-3-1-2-4-21(20)15-28-10-9-19-11-23(29)24(30)12-22(19)16-28/h1-8,11-12,29-30H,9-10,14-16H2,(H,27,31)

> <PUBCHEM_IUPAC_INCHIKEY>
QEYMQXWYAIZBBS-UHFFFAOYSA-N

> <PUBCHEM_XLOGP3_AA>
3.1

> <PUBCHEM_EXACT_MASS>
413.17394160

> <PUBCHEM_MOLECULAR_FORMULA>
C25H23N3O3

> <PUBCHEM_MOLECULAR_WEIGHT>
413.5

> <PUBCHEM_OPENEYE_CAN_SMILES>
C1CN(CC2=CC(=C(C=C21)O)O)CC3=CC=CC=C3CNC(=O)C4=CC=C(C=C4)C#N

> <PUBCHEM_OPENEYE_ISO_SMILES>
C1CN(CC2=CC(=C(C=C21)O)O)CC3=CC=CC=C3CNC(=O)C4=CC=C(C=C4)C#N

> <PUBCHEM_CACTVS_TPSA>
96.6

> <PUBCHEM_MONOISOTOPIC_WEIGHT>
413.17394160

> <PUBCHEM_TOTAL_CHARGE>
0

> <PUBCHEM_HEAVY_ATOM_COUNT>
31

> <PUBCHEM_ATOM_DEF_STEREO_COUNT>
0

> <PUBCHEM_ATOM_UDEF_STEREO_COUNT>
0

> <PUBCHEM_BOND_DEF_STEREO_COUNT>
0

> <PUBCHEM_BOND_UDEF_STEREO_COUNT>
0

> <PUBCHEM_ISOTOPIC_ATOM_COUNT>
0

> <PUBCHEM_COMPONENT_COUNT>
1

> <PUBCHEM_CACTVS_TAUTO_COUNT>
-1

> <PUBCHEM_COORDINATE_TYPE>
1
5
255

> <PUBCHEM_BONDANNOTATIONS>
10  11  8
10  14  8
11  15  8
13  16  8
13  19  8
14  17  8
15  18  8
16  21  8
17  18  8
19  22  8
21  23  8
22  23  8
25  26  8
25  27  8
26  28  8
27  29  8
28  30  8
29  30  8

$$$$
