56599147
  -OEChem-09292321592D

 53 56  0     0  0  0  0  0  0999 V2000
    4.5961    1.2517    0.0000 Cl  0  0  0  0  0  0  0  0  0  0  0  0
    2.8602    2.2450    0.0000 Cl  0  0  0  0  0  0  0  0  0  0  0  0
   10.6679   -1.2250    0.0000 O   0  0  0  0  0  0  0  0  0  0  0  0
   15.9301   -1.2008    0.0000 O   0  0  0  0  0  0  0  0  0  0  0  0
    6.3397   -1.7416    0.0000 N   0  0  0  0  0  0  0  0  0  0  0  0
    4.6038   -0.7483    0.0000 N   0  0  0  0  0  0  0  0  0  0  0  0
   14.1980   -1.2008    0.0000 N   0  0  0  0  0  0  0  0  0  0  0  0
    6.3359   -0.7416    0.0000 C   0  0  0  0  0  0  0  0  0  0  0  0
    5.4756   -2.2450    0.0000 C   0  0  0  0  0  0  0  0  0  0  0  0
    5.4679   -0.2450    0.0000 C   0  0  0  0  0  0  0  0  0  0  0  0
    4.6077   -1.7483    0.0000 C   0  0  0  0  0  0  0  0  0  0  0  0
    7.2077   -2.2383    0.0000 C   0  0  0  0  0  0  0  0  0  0  0  0
    3.7359   -0.2517    0.0000 C   0  0  0  0  0  0  0  0  0  0  0  0
    3.7320    0.7483    0.0000 C   0  0  0  0  0  0  0  0  0  0  0  0
    2.8718   -0.7550    0.0000 C   0  0  0  0  0  0  0  0  0  0  0  0
   14.1980    0.7992    0.0000 C   0  0  0  0  0  0  0  0  0  0  0  0
   13.3320    0.2992    0.0000 C   0  0  0  0  0  0  0  0  0  0  0  0
    8.0718   -1.7350    0.0000 C   0  0  0  0  0  0  0  0  0  0  0  0
   15.0640    0.2992    0.0000 C   0  0  0  0  0  0  0  0  0  0  0  0
   13.3320   -0.7008    0.0000 C   0  0  0  0  0  0  0  0  0  0  0  0
    2.8641    1.2450    0.0000 C   0  0  0  0  0  0  0  0  0  0  0  0
    2.0038   -0.2583    0.0000 C   0  0  0  0  0  0  0  0  0  0  0  0
   15.0640   -0.7008    0.0000 C   0  0  0  0  0  0  0  0  0  0  0  0
   12.4381    0.8339    0.0000 C   0  0  0  0  0  0  0  0  0  0  0  0
    2.0000    0.7416    0.0000 C   0  0  0  0  0  0  0  0  0  0  0  0
   12.4381   -1.2355    0.0000 C   0  0  0  0  0  0  0  0  0  0  0  0
   11.5320   -0.7216    0.0000 C   0  0  0  0  0  0  0  0  0  0  0  0
   11.5320    0.3200    0.0000 C   0  0  0  0  0  0  0  0  0  0  0  0
    8.9359   -1.2316    0.0000 C   0  0  0  0  0  0  0  0  0  0  0  0
    9.8000   -0.7283    0.0000 C   0  0  0  0  0  0  0  0  0  0  0  0
    6.9469   -0.8470    0.0000 H   0  0  0  0  0  0  0  0  0  0  0  0
    6.5457   -0.1582    0.0000 H   0  0  0  0  0  0  0  0  0  0  0  0
    5.0789   -2.7215    0.0000 H   0  0  0  0  0  0  0  0  0  0  0  0
    5.8760   -2.7184    0.0000 H   0  0  0  0  0  0  0  0  0  0  0  0
    5.8646    0.2315    0.0000 H   0  0  0  0  0  0  0  0  0  0  0  0
    5.0676    0.2284    0.0000 H   0  0  0  0  0  0  0  0  0  0  0  0
    3.9967   -1.6430    0.0000 H   0  0  0  0  0  0  0  0  0  0  0  0
    4.3979   -2.3317    0.0000 H   0  0  0  0  0  0  0  0  0  0  0  0
    6.8110   -2.7148    0.0000 H   0  0  0  0  0  0  0  0  0  0  0  0
    7.6080   -2.7117    0.0000 H   0  0  0  0  0  0  0  0  0  0  0  0
    2.8742   -1.3750    0.0000 H   0  0  0  0  0  0  0  0  0  0  0  0
   14.5966    1.2741    0.0000 H   0  0  0  0  0  0  0  0  0  0  0  0
   13.7995    1.2741    0.0000 H   0  0  0  0  0  0  0  0  0  0  0  0
   15.6746    0.1915    0.0000 H   0  0  0  0  0  0  0  0  0  0  0  0
   15.2761    0.8818    0.0000 H   0  0  0  0  0  0  0  0  0  0  0  0
    1.4681   -0.5704    0.0000 H   0  0  0  0  0  0  0  0  0  0  0  0
   14.1980   -1.8208    0.0000 H   0  0  0  0  0  0  0  0  0  0  0  0
   12.4452    1.4538    0.0000 H   0  0  0  0  0  0  0  0  0  0  0  0
   12.4452   -1.8554    0.0000 H   0  0  0  0  0  0  0  0  0  0  0  0
    1.4619    1.0496    0.0000 H   0  0  0  0  0  0  0  0  0  0  0  0
   10.9963    0.6321    0.0000 H   0  0  0  0  0  0  0  0  0  0  0  0
   10.1966   -0.2518    0.0000 H   0  0  0  0  0  0  0  0  0  0  0  0
    9.3996   -0.2549    0.0000 H   0  0  0  0  0  0  0  0  0  0  0  0
  1 14  1  0  0  0  0
  2 21  1  0  0  0  0
  3 27  1  0  0  0  0
  3 30  1  0  0  0  0
  4 23  2  0  0  0  0
  5  8  1  0  0  0  0
  5  9  1  0  0  0  0
  5 12  1  0  0  0  0
  6 10  1  0  0  0  0
  6 11  1  0  0  0  0
  6 13  1  0  0  0  0
  7 20  1  0  0  0  0
  7 23  1  0  0  0  0
  7 47  1  0  0  0  0
  8 10  1  0  0  0  0
  8 31  1  0  0  0  0
  8 32  1  0  0  0  0
  9 11  1  0  0  0  0
  9 33  1  0  0  0  0
  9 34  1  0  0  0  0
 10 35  1  0  0  0  0
 10 36  1  0  0  0  0
 11 37  1  0  0  0  0
 11 38  1  0  0  0  0
 12 18  1  0  0  0  0
 12 39  1  0  0  0  0
 12 40  1  0  0  0  0
 13 14  2  0  0  0  0
 13 15  1  0  0  0  0
 14 21  1  0  0  0  0
 15 22  2  0  0  0  0
 15 41  1  0  0  0  0
 16 17  1  0  0  0  0
 16 19  1  0  0  0  0
 16 42  1  0  0  0  0
 16 43  1  0  0  0  0
 17 20  2  0  0  0  0
 17 24  1  0  0  0  0
 18 29  3  0  0  0  0
 19 23  1  0  0  0  0
 19 44  1  0  0  0  0
 19 45  1  0  0  0  0
 20 26  1  0  0  0  0
 21 25  2  0  0  0  0
 22 25  1  0  0  0  0
 22 46  1  0  0  0  0
 24 28  2  0  0  0  0
 24 48  1  0  0  0  0
 25 50  1  0  0  0  0
 26 27  2  0  0  0  0
 26 49  1  0  0  0  0
 27 28  1  0  0  0  0
 28 51  1  0  0  0  0
 29 30  1  0  0  0  0
 30 52  1  0  0  0  0
 30 53  1  0  0  0  0
M  END
> <PUBCHEM_COMPOUND_CID>
56599147

> <PUBCHEM_COMPOUND_CANONICALIZED>
1

> <PUBCHEM_CACTVS_COMPLEXITY>
655

> <PUBCHEM_CACTVS_HBOND_ACCEPTOR>
4

> <PUBCHEM_CACTVS_HBOND_DONOR>
1

> <PUBCHEM_CACTVS_ROTATABLE_BOND>
4

> <PUBCHEM_CACTVS_SUBSKEYS>
AAADceB7MAAGAAAAAAAAAAAAAAAAAAAAAAA8eIEAAAAAAACxQAAAHgIQAAAADA7hmCYwxoPABADIEiVSUACCCAAhJwAIikEObogMZjLFs5vWOCjm1BnI6AeY2aOeIAAAAgICABRAAAAEBAQAKAAAAAAAAA==

> <PUBCHEM_IUPAC_OPENEYE_NAME>
7-[4-[4-(2,3-dichlorophenyl)piperazin-1-yl]but-2-ynoxy]-3,4-dihydro-1H-quinolin-2-one

> <PUBCHEM_IUPAC_CAS_NAME>
7-[4-[4-(2,3-dichlorophenyl)-1-piperazinyl]but-2-ynoxy]-3,4-dihydro-1H-quinolin-2-one

> <PUBCHEM_IUPAC_NAME_MARKUP>
7-[4-[4-(2,3-dichlorophenyl)piperazin-1-yl]but-2-ynoxy]-3,4-dihydro-1<I>H</I>-quinolin-2-one

> <PUBCHEM_IUPAC_NAME>
7-[4-[4-(2,3-dichlorophenyl)piperazin-1-yl]but-2-ynoxy]-3,4-dihydro-1H-quinolin-2-one

> <PUBCHEM_IUPAC_SYSTEMATIC_NAME>
7-[4-[4-[2,3-bis(chloranyl)phenyl]piperazin-1-yl]but-2-ynoxy]-3,4-dihydro-1H-quinolin-2-one

> <PUBCHEM_IUPAC_TRADITIONAL_NAME>
7-[4-[4-(2,3-dichlorophenyl)piperazino]but-2-ynoxy]-3,4-dihydrocarbostyril

> <PUBCHEM_IUPAC_INCHI>
InChI=1S/C23H23Cl2N3O2/c24-19-4-3-5-21(23(19)25)28-13-11-27(12-14-28)10-1-2-15-30-18-8-6-17-7-9-22(29)26-20(17)16-18/h3-6,8,16H,7,9-15H2,(H,26,29)

> <PUBCHEM_IUPAC_INCHIKEY>
FNZOOYYZKQCPEG-UHFFFAOYSA-N

> <PUBCHEM_XLOGP3_AA>
4

> <PUBCHEM_EXACT_MASS>
443.1167324

> <PUBCHEM_MOLECULAR_FORMULA>
C23H23Cl2N3O2

> <PUBCHEM_MOLECULAR_WEIGHT>
444.3

> <PUBCHEM_OPENEYE_CAN_SMILES>
C1CC(=O)NC2=C1C=CC(=C2)OCC#CCN3CCN(CC3)C4=C(C(=CC=C4)Cl)Cl

> <PUBCHEM_OPENEYE_ISO_SMILES>
C1CC(=O)NC2=C1C=CC(=C2)OCC#CCN3CCN(CC3)C4=C(C(=CC=C4)Cl)Cl

> <PUBCHEM_CACTVS_TPSA>
44.8

> <PUBCHEM_MONOISOTOPIC_WEIGHT>
443.1167324

> <PUBCHEM_TOTAL_CHARGE>
0

> <PUBCHEM_HEAVY_ATOM_COUNT>
30

> <PUBCHEM_ATOM_DEF_STEREO_COUNT>
0

> <PUBCHEM_ATOM_UDEF_STEREO_COUNT>
0

> <PUBCHEM_BOND_DEF_STEREO_COUNT>
0

> <PUBCHEM_BOND_UDEF_STEREO_COUNT>
0

> <PUBCHEM_ISOTOPIC_ATOM_COUNT>
0

> <PUBCHEM_COMPONENT_COUNT>
1

> <PUBCHEM_CACTVS_TAUTO_COUNT>
-1

> <PUBCHEM_COORDINATE_TYPE>
1
5
255

> <PUBCHEM_BONDANNOTATIONS>
13  14  8
13  15  8
14  21  8
15  22  8
17  20  8
17  24  8
20  26  8
21  25  8
22  25  8
24  28  8
26  27  8
27  28  8

$$$$
