10409556
  -OEChem-09292322032D

 64 67  0     1  0  0  0  0  0999 V2000
   11.0693   -0.4549    0.0000 O   0  0  0  0  0  0  0  0  0  0  0  0
   11.0693   -3.9190    0.0000 O   0  0  0  0  0  0  0  0  0  0  0  0
    4.0693   -0.4549    0.0000 O   0  0  0  0  0  0  0  0  0  0  0  0
    4.0724    3.0473    0.0000 O   0  0  0  0  0  0  0  0  0  0  0  0
   11.0693   -2.1870    0.0000 N   0  0  0  0  0  0  0  0  0  0  0  0
    7.0693   -0.4549    0.0000 N   0  0  0  0  0  0  0  0  0  0  0  0
   13.0693   -2.1870    0.0000 C   0  0  0  0  0  0  0  0  0  0  0  0
   13.6570   -1.3780    0.0000 C   0  0  0  0  0  0  0  0  0  0  0  0
   13.6570   -2.9960    0.0000 C   0  0  0  0  0  0  0  0  0  0  0  0
   14.6081   -1.6870    0.0000 C   0  0  0  0  0  0  0  0  0  0  0  0
   14.6081   -2.6870    0.0000 C   0  0  0  0  0  0  0  0  0  0  0  0
   12.5693   -1.3210    0.0000 C   0  0  0  0  0  0  0  0  0  0  0  0
   12.5693   -3.0530    0.0000 C   0  0  0  0  0  0  0  0  0  0  0  0
   11.5693   -1.3210    0.0000 C   0  0  0  0  0  0  0  0  0  0  0  0
   11.5693   -3.0530    0.0000 C   0  0  0  0  0  0  0  0  0  0  0  0
   10.0693   -2.1870    0.0000 C   0  0  0  0  0  0  0  0  0  0  0  0
    9.5693   -1.3210    0.0000 C   0  0  0  0  0  0  0  0  0  0  0  0
    8.5693   -1.3210    0.0000 C   0  0  0  0  0  0  0  0  0  0  0  0
    5.5693    0.4111    0.0000 C   0  0  3  0  0  0  0  0  0  0  0  0
    8.0693   -0.4549    0.0000 C   0  0  0  0  0  0  0  0  0  0  0  0
    6.5693    0.4111    0.0000 C   0  0  0  0  0  0  0  0  0  0  0  0
    5.0693    1.2771    0.0000 C   0  0  0  0  0  0  0  0  0  0  0  0
    5.0693   -0.4549    0.0000 C   0  0  0  0  0  0  0  0  0  0  0  0
    4.0693    1.2771    0.0000 C   0  0  0  0  0  0  0  0  0  0  0  0
    3.5693    0.4111    0.0000 C   0  0  0  0  0  0  0  0  0  0  0  0
    3.5624    2.1871    0.0000 C   0  0  0  0  0  0  0  0  0  0  0  0
    2.5278    0.3950    0.0000 C   0  0  0  0  0  0  0  0  0  0  0  0
    2.5208    2.1951    0.0000 C   0  0  0  0  0  0  0  0  0  0  0  0
    2.0000    1.2931    0.0000 C   0  0  0  0  0  0  0  0  0  0  0  0
    3.5824    3.9190    0.0000 C   0  0  0  0  0  0  0  0  0  0  0  0
   13.9092   -0.8116    0.0000 H   0  0  0  0  0  0  0  0  0  0  0  0
   13.1201   -1.0680    0.0000 H   0  0  0  0  0  0  0  0  0  0  0  0
   13.1201   -3.3060    0.0000 H   0  0  0  0  0  0  0  0  0  0  0  0
   13.9092   -3.5624    0.0000 H   0  0  0  0  0  0  0  0  0  0  0  0
   15.2247   -1.7518    0.0000 H   0  0  0  0  0  0  0  0  0  0  0  0
   14.7370   -1.0805    0.0000 H   0  0  0  0  0  0  0  0  0  0  0  0
   14.7370   -3.2934    0.0000 H   0  0  0  0  0  0  0  0  0  0  0  0
   15.2247   -2.6222    0.0000 H   0  0  0  0  0  0  0  0  0  0  0  0
   13.1519   -1.1089    0.0000 H   0  0  0  0  0  0  0  0  0  0  0  0
   12.4616   -0.7104    0.0000 H   0  0  0  0  0  0  0  0  0  0  0  0
   12.4616   -3.6636    0.0000 H   0  0  0  0  0  0  0  0  0  0  0  0
   13.1519   -3.2651    0.0000 H   0  0  0  0  0  0  0  0  0  0  0  0
    9.4866   -2.3990    0.0000 H   0  0  0  0  0  0  0  0  0  0  0  0
   10.1769   -2.7976    0.0000 H   0  0  0  0  0  0  0  0  0  0  0  0
   10.1519   -1.1089    0.0000 H   0  0  0  0  0  0  0  0  0  0  0  0
    9.4616   -0.7104    0.0000 H   0  0  0  0  0  0  0  0  0  0  0  0
    7.9866   -1.5330    0.0000 H   0  0  0  0  0  0  0  0  0  0  0  0
    8.6769   -1.9316    0.0000 H   0  0  0  0  0  0  0  0  0  0  0  0
    5.8793    0.9480    0.0000 H   0  0  0  0  0  0  0  0  0  0  0  0
    8.6519   -0.2429    0.0000 H   0  0  0  0  0  0  0  0  0  0  0  0
    7.9616    0.1556    0.0000 H   0  0  0  0  0  0  0  0  0  0  0  0
    7.1519    0.6231    0.0000 H   0  0  0  0  0  0  0  0  0  0  0  0
    6.4616    1.0217    0.0000 H   0  0  0  0  0  0  0  0  0  0  0  0
    5.6519    1.4892    0.0000 H   0  0  0  0  0  0  0  0  0  0  0  0
    4.9616    1.8877    0.0000 H   0  0  0  0  0  0  0  0  0  0  0  0
    6.7593   -0.9919    0.0000 H   0  0  0  0  0  0  0  0  0  0  0  0
    4.9616   -1.0655    0.0000 H   0  0  0  0  0  0  0  0  0  0  0  0
    5.6519   -0.6670    0.0000 H   0  0  0  0  0  0  0  0  0  0  0  0
    2.2240   -0.1455    0.0000 H   0  0  0  0  0  0  0  0  0  0  0  0
    2.2129    2.7333    0.0000 H   0  0  0  0  0  0  0  0  0  0  0  0
    1.3800    1.2907    0.0000 H   0  0  0  0  0  0  0  0  0  0  0  0
    4.1229    4.2228    0.0000 H   0  0  0  0  0  0  0  0  0  0  0  0
    3.2787    4.4595    0.0000 H   0  0  0  0  0  0  0  0  0  0  0  0
    3.0420    3.6153    0.0000 H   0  0  0  0  0  0  0  0  0  0  0  0
  1 14  2  0  0  0  0
  2 15  2  0  0  0  0
  3 23  1  0  0  0  0
  3 25  1  0  0  0  0
  4 26  1  0  0  0  0
  4 30  1  0  0  0  0
  5 14  1  0  0  0  0
  5 15  1  0  0  0  0
  5 16  1  0  0  0  0
  6 20  1  0  0  0  0
  6 21  1  0  0  0  0
  6 56  1  0  0  0  0
  7  8  1  0  0  0  0
  7  9  1  0  0  0  0
  7 12  1  0  0  0  0
  7 13  1  0  0  0  0
  8 10  1  0  0  0  0
  8 31  1  0  0  0  0
  8 32  1  0  0  0  0
  9 11  1  0  0  0  0
  9 33  1  0  0  0  0
  9 34  1  0  0  0  0
 10 11  1  0  0  0  0
 10 35  1  0  0  0  0
 10 36  1  0  0  0  0
 11 37  1  0  0  0  0
 11 38  1  0  0  0  0
 12 14  1  0  0  0  0
 12 39  1  0  0  0  0
 12 40  1  0  0  0  0
 13 15  1  0  0  0  0
 13 41  1  0  0  0  0
 13 42  1  0  0  0  0
 16 17  1  0  0  0  0
 16 43  1  0  0  0  0
 16 44  1  0  0  0  0
 17 18  1  0  0  0  0
 17 45  1  0  0  0  0
 17 46  1  0  0  0  0
 18 20  1  0  0  0  0
 18 47  1  0  0  0  0
 18 48  1  0  0  0  0
 19 21  1  0  0  0  0
 19 22  1  0  0  0  0
 19 23  1  0  0  0  0
 19 49  1  0  0  0  0
 20 50  1  0  0  0  0
 20 51  1  0  0  0  0
 21 52  1  0  0  0  0
 21 53  1  0  0  0  0
 22 24  1  0  0  0  0
 22 54  1  0  0  0  0
 22 55  1  0  0  0  0
 23 57  1  0  0  0  0
 23 58  1  0  0  0  0
 24 25  2  0  0  0  0
 24 26  1  0  0  0  0
 25 27  1  0  0  0  0
 26 28  2  0  0  0  0
 27 29  2  0  0  0  0
 27 59  1  0  0  0  0
 28 29  1  0  0  0  0
 28 60  1  0  0  0  0
 29 61  1  0  0  0  0
 30 62  1  0  0  0  0
 30 63  1  0  0  0  0
 30 64  1  0  0  0  0
M  END
> <PUBCHEM_COMPOUND_CID>
10409556

> <PUBCHEM_COMPOUND_CANONICALIZED>
1

> <PUBCHEM_CACTVS_COMPLEXITY>
584

> <PUBCHEM_CACTVS_HBOND_ACCEPTOR>
5

> <PUBCHEM_CACTVS_HBOND_DONOR>
1

> <PUBCHEM_CACTVS_ROTATABLE_BOND>
8

> <PUBCHEM_CACTVS_SUBSKEYS>
AAADcfB7OAAAAAAAAAAAAAAAAAAAAYAAAAA8SIAAAAAAAACRAAAAHgAQAAAADwThmAYyBoPABACIAiFSEAACCAAgIAAIiIEOCIgMJzKEsRqGOCCn1jWIqAeY++6PAAAACAAIAAAAAAAQABAAAAAAAAAAAA==

> <PUBCHEM_IUPAC_OPENEYE_NAME>
8-[4-[(5-methoxychroman-3-yl)methylamino]butyl]-8-azaspiro[4.5]decane-7,9-dione

> <PUBCHEM_IUPAC_CAS_NAME>
8-[4-[(5-methoxy-3,4-dihydro-2H-1-benzopyran-3-yl)methylamino]butyl]-8-azaspiro[4.5]decane-7,9-dione

> <PUBCHEM_IUPAC_NAME_MARKUP>
8-[4-[(5-methoxy-3,4-dihydro-2<I>H</I>-chromen-3-yl)methylamino]butyl]-8-azaspiro[4.5]decane-7,9-dione

> <PUBCHEM_IUPAC_NAME>
8-[4-[(5-methoxy-3,4-dihydro-2H-chromen-3-yl)methylamino]butyl]-8-azaspiro[4.5]decane-7,9-dione

> <PUBCHEM_IUPAC_SYSTEMATIC_NAME>
8-[4-[(5-methoxy-3,4-dihydro-2H-chromen-3-yl)methylamino]butyl]-8-azaspiro[4.5]decane-7,9-dione

> <PUBCHEM_IUPAC_TRADITIONAL_NAME>
8-[4-[(5-methoxychroman-3-yl)methylamino]butyl]-8-azaspiro[4.5]decane-7,9-quinone

> <PUBCHEM_IUPAC_INCHI>
InChI=1S/C24H34N2O4/c1-29-20-7-6-8-21-19(20)13-18(17-30-21)16-25-11-4-5-12-26-22(27)14-24(15-23(26)28)9-2-3-10-24/h6-8,18,25H,2-5,9-17H2,1H3

> <PUBCHEM_IUPAC_INCHIKEY>
SPJPXOJVCGSOOK-UHFFFAOYSA-N

> <PUBCHEM_XLOGP3_AA>
3.4

> <PUBCHEM_EXACT_MASS>
414.25185757

> <PUBCHEM_MOLECULAR_FORMULA>
C24H34N2O4

> <PUBCHEM_MOLECULAR_WEIGHT>
414.5

> <PUBCHEM_OPENEYE_CAN_SMILES>
COC1=CC=CC2=C1CC(CO2)CNCCCCN3C(=O)CC4(CCCC4)CC3=O

> <PUBCHEM_OPENEYE_ISO_SMILES>
COC1=CC=CC2=C1CC(CO2)CNCCCCN3C(=O)CC4(CCCC4)CC3=O

> <PUBCHEM_CACTVS_TPSA>
67.9

> <PUBCHEM_MONOISOTOPIC_WEIGHT>
414.25185757

> <PUBCHEM_TOTAL_CHARGE>
0

> <PUBCHEM_HEAVY_ATOM_COUNT>
30

> <PUBCHEM_ATOM_DEF_STEREO_COUNT>
0

> <PUBCHEM_ATOM_UDEF_STEREO_COUNT>
1

> <PUBCHEM_BOND_DEF_STEREO_COUNT>
0

> <PUBCHEM_BOND_UDEF_STEREO_COUNT>
0

> <PUBCHEM_ISOTOPIC_ATOM_COUNT>
0

> <PUBCHEM_COMPONENT_COUNT>
1

> <PUBCHEM_CACTVS_TAUTO_COUNT>
-1

> <PUBCHEM_COORDINATE_TYPE>
1
5
255

> <PUBCHEM_BONDANNOTATIONS>
19  21  3
24  25  8
24  26  8
25  27  8
26  28  8
27  29  8
28  29  8

$$$$
