25156684
  -OEChem-09292322502D

 64 67  0     1  0  0  0  0  0999 V2000
    9.8622   -2.4827    0.0000 O   0  0  0  0  0  0  0  0  0  0  0  0
    6.3981    0.5173    0.0000 O   0  0  0  0  0  0  0  0  0  0  0  0
    5.5321   -1.9827    0.0000 N   0  0  3  0  0  0  0  0  0  0  0  0
    5.5321   -0.9827    0.0000 C   0  0  0  0  0  0  0  0  0  0  0  0
    4.6660   -2.4827    0.0000 C   0  0  0  0  0  0  0  0  0  0  0  0
    4.6660   -0.4827    0.0000 C   0  0  0  0  0  0  0  0  0  0  0  0
    6.3981   -2.4827    0.0000 C   0  0  0  0  0  0  0  0  0  0  0  0
    3.8000   -1.9827    0.0000 C   0  0  0  0  0  0  0  0  0  0  0  0
    3.8000   -0.9827    0.0000 C   0  0  0  0  0  0  0  0  0  0  0  0
    7.2641   -1.9827    0.0000 C   0  0  0  0  0  0  0  0  0  0  0  0
    8.1301   -2.4827    0.0000 C   0  0  0  0  0  0  0  0  0  0  0  0
    2.9061   -2.5173    0.0000 C   0  0  0  0  0  0  0  0  0  0  0  0
    2.9061   -0.4480    0.0000 C   0  0  0  0  0  0  0  0  0  0  0  0
    8.9962   -1.9827    0.0000 C   0  0  0  0  0  0  0  0  0  0  0  0
    2.0000   -2.0035    0.0000 C   0  0  0  0  0  0  0  0  0  0  0  0
    2.0000   -0.9619    0.0000 C   0  0  0  0  0  0  0  0  0  0  0  0
   10.7282   -1.9827    0.0000 C   0  0  0  0  0  0  0  0  0  0  0  0
   10.7282   -0.9827    0.0000 C   0  0  0  0  0  0  0  0  0  0  0  0
    9.8622   -0.4827    0.0000 C   0  0  0  0  0  0  0  0  0  0  0  0
    9.8622    0.5173    0.0000 C   0  0  0  0  0  0  0  0  0  0  0  0
   11.5942   -2.4827    0.0000 C   0  0  0  0  0  0  0  0  0  0  0  0
    8.9962    1.0173    0.0000 C   0  0  0  0  0  0  0  0  0  0  0  0
   11.5942   -0.4827    0.0000 C   0  0  0  0  0  0  0  0  0  0  0  0
   12.4603   -1.9827    0.0000 C   0  0  0  0  0  0  0  0  0  0  0  0
   12.4603   -0.9827    0.0000 C   0  0  0  0  0  0  0  0  0  0  0  0
    8.1301    0.5173    0.0000 C   0  0  0  0  0  0  0  0  0  0  0  0
    8.9962    2.0173    0.0000 C   0  0  0  0  0  0  0  0  0  0  0  0
    7.2641    1.0173    0.0000 C   0  0  0  0  0  0  0  0  0  0  0  0
    8.1301    2.5173    0.0000 C   0  0  0  0  0  0  0  0  0  0  0  0
    7.2641    2.0173    0.0000 C   0  0  0  0  0  0  0  0  0  0  0  0
    5.5321    1.0173    0.0000 C   0  0  0  0  0  0  0  0  0  0  0  0
    6.1426   -1.0903    0.0000 H   0  0  0  0  0  0  0  0  0  0  0  0
    5.7441   -0.4001    0.0000 H   0  0  0  0  0  0  0  0  0  0  0  0
    4.2675   -2.9576    0.0000 H   0  0  0  0  0  0  0  0  0  0  0  0
    5.0646   -2.9576    0.0000 H   0  0  0  0  0  0  0  0  0  0  0  0
    5.0646   -0.0077    0.0000 H   0  0  0  0  0  0  0  0  0  0  0  0
    4.2675   -0.0077    0.0000 H   0  0  0  0  0  0  0  0  0  0  0  0
    5.9996   -2.9576    0.0000 H   0  0  0  0  0  0  0  0  0  0  0  0
    6.7966   -2.9576    0.0000 H   0  0  0  0  0  0  0  0  0  0  0  0
    7.6626   -1.5077    0.0000 H   0  0  0  0  0  0  0  0  0  0  0  0
    6.8656   -1.5077    0.0000 H   0  0  0  0  0  0  0  0  0  0  0  0
    7.7316   -2.9576    0.0000 H   0  0  0  0  0  0  0  0  0  0  0  0
    8.5287   -2.9576    0.0000 H   0  0  0  0  0  0  0  0  0  0  0  0
    2.9132   -3.1373    0.0000 H   0  0  0  0  0  0  0  0  0  0  0  0
    2.9132    0.1720    0.0000 H   0  0  0  0  0  0  0  0  0  0  0  0
    9.3947   -1.5077    0.0000 H   0  0  0  0  0  0  0  0  0  0  0  0
    8.5976   -1.5077    0.0000 H   0  0  0  0  0  0  0  0  0  0  0  0
    1.4643   -2.3156    0.0000 H   0  0  0  0  0  0  0  0  0  0  0  0
    1.4643   -0.6498    0.0000 H   0  0  0  0  0  0  0  0  0  0  0  0
    9.2516   -0.3750    0.0000 H   0  0  0  0  0  0  0  0  0  0  0  0
    9.6501   -1.0653    0.0000 H   0  0  0  0  0  0  0  0  0  0  0  0
   10.4728    0.4097    0.0000 H   0  0  0  0  0  0  0  0  0  0  0  0
   10.0742    1.0999    0.0000 H   0  0  0  0  0  0  0  0  0  0  0  0
   11.5942   -3.1027    0.0000 H   0  0  0  0  0  0  0  0  0  0  0  0
   11.5942    0.1373    0.0000 H   0  0  0  0  0  0  0  0  0  0  0  0
   12.9972   -2.2927    0.0000 H   0  0  0  0  0  0  0  0  0  0  0  0
   12.9972   -0.6727    0.0000 H   0  0  0  0  0  0  0  0  0  0  0  0
    8.1301   -0.1027    0.0000 H   0  0  0  0  0  0  0  0  0  0  0  0
    9.5331    2.3273    0.0000 H   0  0  0  0  0  0  0  0  0  0  0  0
    8.1301    3.1373    0.0000 H   0  0  0  0  0  0  0  0  0  0  0  0
    6.7272    2.3273    0.0000 H   0  0  0  0  0  0  0  0  0  0  0  0
    5.8421    1.5543    0.0000 H   0  0  0  0  0  0  0  0  0  0  0  0
    4.9951    1.3273    0.0000 H   0  0  0  0  0  0  0  0  0  0  0  0
    5.2221    0.4804    0.0000 H   0  0  0  0  0  0  0  0  0  0  0  0
  1 14  1  0  0  0  0
  1 17  1  0  0  0  0
  2 28  1  0  0  0  0
  2 31  1  0  0  0  0
  3  4  1  0  0  0  0
  3  5  1  0  0  0  0
  3  7  1  0  0  0  0
  4  6  1  0  0  0  0
  4 32  1  0  0  0  0
  4 33  1  0  0  0  0
  5  8  1  0  0  0  0
  5 34  1  0  0  0  0
  5 35  1  0  0  0  0
  6  9  1  0  0  0  0
  6 36  1  0  0  0  0
  6 37  1  0  0  0  0
  7 10  1  0  0  0  0
  7 38  1  0  0  0  0
  7 39  1  0  0  0  0
  8  9  1  0  0  0  0
  8 12  2  0  0  0  0
  9 13  2  0  0  0  0
 10 11  1  0  0  0  0
 10 40  1  0  0  0  0
 10 41  1  0  0  0  0
 11 14  1  0  0  0  0
 11 42  1  0  0  0  0
 11 43  1  0  0  0  0
 12 15  1  0  0  0  0
 12 44  1  0  0  0  0
 13 16  1  0  0  0  0
 13 45  1  0  0  0  0
 14 46  1  0  0  0  0
 14 47  1  0  0  0  0
 15 16  2  0  0  0  0
 15 48  1  0  0  0  0
 16 49  1  0  0  0  0
 17 18  1  0  0  0  0
 17 21  2  0  0  0  0
 18 19  1  0  0  0  0
 18 23  2  0  0  0  0
 19 20  1  0  0  0  0
 19 50  1  0  0  0  0
 19 51  1  0  0  0  0
 20 22  1  0  0  0  0
 20 52  1  0  0  0  0
 20 53  1  0  0  0  0
 21 24  1  0  0  0  0
 21 54  1  0  0  0  0
 22 26  2  0  0  0  0
 22 27  1  0  0  0  0
 23 25  1  0  0  0  0
 23 55  1  0  0  0  0
 24 25  2  0  0  0  0
 24 56  1  0  0  0  0
 25 57  1  0  0  0  0
 26 28  1  0  0  0  0
 26 58  1  0  0  0  0
 27 29  2  0  0  0  0
 27 59  1  0  0  0  0
 28 30  2  0  0  0  0
 29 30  1  0  0  0  0
 29 60  1  0  0  0  0
 30 61  1  0  0  0  0
 31 62  1  0  0  0  0
 31 63  1  0  0  0  0
 31 64  1  0  0  0  0
M  END
> <PUBCHEM_COMPOUND_CID>
25156684

> <PUBCHEM_COMPOUND_CANONICALIZED>
1

> <PUBCHEM_CACTVS_COMPLEXITY>
497

> <PUBCHEM_CACTVS_HBOND_ACCEPTOR>
3

> <PUBCHEM_CACTVS_HBOND_DONOR>
0

> <PUBCHEM_CACTVS_ROTATABLE_BOND>
10

> <PUBCHEM_CACTVS_SUBSKEYS>
AAADcfB6MAAAAAAAAAAAAAAAAAAAAAAAAAA8YMEAAAAAAACxUAAAHgAAAAAADAThmAYyBoMABACAAiBCAACCCAAgIAAIiAAODIgMJiKEsRuGOCjkwBGIqAewwPAOgAABAAAYAAAAAAIAADAAAAAAAAAAAA==

> <PUBCHEM_IUPAC_OPENEYE_NAME>
2-[4-[2-[2-(3-methoxyphenyl)ethyl]phenoxy]butyl]-3,4-dihydro-1H-isoquinoline

> <PUBCHEM_IUPAC_CAS_NAME>
2-[4-[2-[2-(3-methoxyphenyl)ethyl]phenoxy]butyl]-3,4-dihydro-1H-isoquinoline

> <PUBCHEM_IUPAC_NAME_MARKUP>
2-[4-[2-[2-(3-methoxyphenyl)ethyl]phenoxy]butyl]-3,4-dihydro-1<I>H</I>-isoquinoline

> <PUBCHEM_IUPAC_NAME>
2-[4-[2-[2-(3-methoxyphenyl)ethyl]phenoxy]butyl]-3,4-dihydro-1H-isoquinoline

> <PUBCHEM_IUPAC_SYSTEMATIC_NAME>
2-[4-[2-[2-(3-methoxyphenyl)ethyl]phenoxy]butyl]-3,4-dihydro-1H-isoquinoline

> <PUBCHEM_IUPAC_TRADITIONAL_NAME>
2-[4-[2-[2-(3-methoxyphenyl)ethyl]phenoxy]butyl]-3,4-dihydro-1H-isoquinoline

> <PUBCHEM_IUPAC_INCHI>
InChI=1S/C28H33NO2/c1-30-27-13-8-9-23(21-27)15-16-25-11-4-5-14-28(25)31-20-7-6-18-29-19-17-24-10-2-3-12-26(24)22-29/h2-5,8-14,21H,6-7,15-20,22H2,1H3

> <PUBCHEM_IUPAC_INCHIKEY>
OPXRSVLLXLRXFI-UHFFFAOYSA-N

> <PUBCHEM_XLOGP3_AA>
6.4

> <PUBCHEM_EXACT_MASS>
415.251129295

> <PUBCHEM_MOLECULAR_FORMULA>
C28H33NO2

> <PUBCHEM_MOLECULAR_WEIGHT>
415.6

> <PUBCHEM_OPENEYE_CAN_SMILES>
COC1=CC=CC(=C1)CCC2=CC=CC=C2OCCCCN3CCC4=CC=CC=C4C3

> <PUBCHEM_OPENEYE_ISO_SMILES>
COC1=CC=CC(=C1)CCC2=CC=CC=C2OCCCCN3CCC4=CC=CC=C4C3

> <PUBCHEM_CACTVS_TPSA>
21.7

> <PUBCHEM_MONOISOTOPIC_WEIGHT>
415.251129295

> <PUBCHEM_TOTAL_CHARGE>
0

> <PUBCHEM_HEAVY_ATOM_COUNT>
31

> <PUBCHEM_ATOM_DEF_STEREO_COUNT>
0

> <PUBCHEM_ATOM_UDEF_STEREO_COUNT>
0

> <PUBCHEM_BOND_DEF_STEREO_COUNT>
0

> <PUBCHEM_BOND_UDEF_STEREO_COUNT>
0

> <PUBCHEM_ISOTOPIC_ATOM_COUNT>
0

> <PUBCHEM_COMPONENT_COUNT>
1

> <PUBCHEM_CACTVS_TAUTO_COUNT>
-1

> <PUBCHEM_COORDINATE_TYPE>
1
5
255

> <PUBCHEM_BONDANNOTATIONS>
12  15  8
13  16  8
15  16  8
17  18  8
17  21  8
18  23  8
21  24  8
22  26  8
22  27  8
23  25  8
24  25  8
26  28  8
27  29  8
28  30  8
29  30  8
8  12  8
8  9  8
9  13  8

$$$$
