10643697
  -OEChem-09292322082D

 57 59  0     0  0  0  0  0  0999 V2000
    2.8660   -4.2500    0.0000 O   0  0  0  0  0  0  0  0  0  0  0  0
    5.4641    3.2500    0.0000 O   0  0  0  0  0  0  0  0  0  0  0  0
    8.0622    5.7500    0.0000 O   0  0  0  0  0  0  0  0  0  0  0  0
    4.5981   -1.2500    0.0000 N   0  0  0  0  0  0  0  0  0  0  0  0
    4.5981   -3.2500    0.0000 N   0  0  0  0  0  0  0  0  0  0  0  0
    6.3301    1.7500    0.0000 N   0  0  0  0  0  0  0  0  0  0  0  0
    5.4641   -1.7500    0.0000 C   0  0  0  0  0  0  0  0  0  0  0  0
    3.7320   -1.7500    0.0000 C   0  0  0  0  0  0  0  0  0  0  0  0
    5.4641   -2.7500    0.0000 C   0  0  0  0  0  0  0  0  0  0  0  0
    3.7320   -2.7500    0.0000 C   0  0  0  0  0  0  0  0  0  0  0  0
    4.5981   -0.2500    0.0000 C   0  0  0  0  0  0  0  0  0  0  0  0
    5.4641    0.2500    0.0000 C   0  0  0  0  0  0  0  0  0  0  0  0
    4.5981   -4.2500    0.0000 C   0  0  0  0  0  0  0  0  0  0  0  0
    5.4641    1.2500    0.0000 C   0  0  0  0  0  0  0  0  0  0  0  0
    3.7320   -4.7500    0.0000 C   0  0  0  0  0  0  0  0  0  0  0  0
    5.4641   -4.7500    0.0000 C   0  0  0  0  0  0  0  0  0  0  0  0
    3.7320   -5.7500    0.0000 C   0  0  0  0  0  0  0  0  0  0  0  0
    5.4641   -5.7500    0.0000 C   0  0  0  0  0  0  0  0  0  0  0  0
    4.5981   -6.2500    0.0000 C   0  0  0  0  0  0  0  0  0  0  0  0
    6.3301    2.7500    0.0000 C   0  0  0  0  0  0  0  0  0  0  0  0
    7.1962    3.2500    0.0000 C   0  0  0  0  0  0  0  0  0  0  0  0
    2.0000   -4.7500    0.0000 C   0  0  0  0  0  0  0  0  0  0  0  0
    7.1962    4.2500    0.0000 C   0  0  0  0  0  0  0  0  0  0  0  0
    8.0622    2.7500    0.0000 C   0  0  0  0  0  0  0  0  0  0  0  0
    8.0622    4.7500    0.0000 C   0  0  0  0  0  0  0  0  0  0  0  0
    8.9282    3.2500    0.0000 C   0  0  0  0  0  0  0  0  0  0  0  0
    8.9282    4.2500    0.0000 C   0  0  0  0  0  0  0  0  0  0  0  0
    8.9282    6.2500    0.0000 C   0  0  0  0  0  0  0  0  0  0  0  0
    6.0747   -1.8577    0.0000 H   0  0  0  0  0  0  0  0  0  0  0  0
    5.6762   -1.1674    0.0000 H   0  0  0  0  0  0  0  0  0  0  0  0
    3.5200   -1.1674    0.0000 H   0  0  0  0  0  0  0  0  0  0  0  0
    3.1215   -1.8577    0.0000 H   0  0  0  0  0  0  0  0  0  0  0  0
    5.6762   -3.3326    0.0000 H   0  0  0  0  0  0  0  0  0  0  0  0
    6.0747   -2.6423    0.0000 H   0  0  0  0  0  0  0  0  0  0  0  0
    3.1215   -2.6423    0.0000 H   0  0  0  0  0  0  0  0  0  0  0  0
    3.5200   -3.3326    0.0000 H   0  0  0  0  0  0  0  0  0  0  0  0
    4.3860    0.3326    0.0000 H   0  0  0  0  0  0  0  0  0  0  0  0
    3.9875   -0.3577    0.0000 H   0  0  0  0  0  0  0  0  0  0  0  0
    5.6762   -0.3326    0.0000 H   0  0  0  0  0  0  0  0  0  0  0  0
    6.0747    0.3577    0.0000 H   0  0  0  0  0  0  0  0  0  0  0  0
    5.2520    1.8326    0.0000 H   0  0  0  0  0  0  0  0  0  0  0  0
    4.8535    1.1423    0.0000 H   0  0  0  0  0  0  0  0  0  0  0  0
    6.0010   -4.4400    0.0000 H   0  0  0  0  0  0  0  0  0  0  0  0
    6.8671    1.4400    0.0000 H   0  0  0  0  0  0  0  0  0  0  0  0
    3.1951   -6.0600    0.0000 H   0  0  0  0  0  0  0  0  0  0  0  0
    6.0010   -6.0600    0.0000 H   0  0  0  0  0  0  0  0  0  0  0  0
    4.5981   -6.8700    0.0000 H   0  0  0  0  0  0  0  0  0  0  0  0
    1.6900   -4.2131    0.0000 H   0  0  0  0  0  0  0  0  0  0  0  0
    1.4631   -5.0600    0.0000 H   0  0  0  0  0  0  0  0  0  0  0  0
    2.3100   -5.2869    0.0000 H   0  0  0  0  0  0  0  0  0  0  0  0
    6.6592    4.5600    0.0000 H   0  0  0  0  0  0  0  0  0  0  0  0
    8.0622    2.1300    0.0000 H   0  0  0  0  0  0  0  0  0  0  0  0
    9.4651    2.9400    0.0000 H   0  0  0  0  0  0  0  0  0  0  0  0
    9.4651    4.5600    0.0000 H   0  0  0  0  0  0  0  0  0  0  0  0
    9.2382    5.7131    0.0000 H   0  0  0  0  0  0  0  0  0  0  0  0
    9.4651    6.5600    0.0000 H   0  0  0  0  0  0  0  0  0  0  0  0
    8.6182    6.7869    0.0000 H   0  0  0  0  0  0  0  0  0  0  0  0
  1 15  1  0  0  0  0
  1 22  1  0  0  0  0
  2 20  2  0  0  0  0
  3 25  1  0  0  0  0
  3 28  1  0  0  0  0
  4  7  1  0  0  0  0
  4  8  1  0  0  0  0
  4 11  1  0  0  0  0
  5  9  1  0  0  0  0
  5 10  1  0  0  0  0
  5 13  1  0  0  0  0
  6 14  1  0  0  0  0
  6 20  1  0  0  0  0
  6 44  1  0  0  0  0
  7  9  1  0  0  0  0
  7 29  1  0  0  0  0
  7 30  1  0  0  0  0
  8 10  1  0  0  0  0
  8 31  1  0  0  0  0
  8 32  1  0  0  0  0
  9 33  1  0  0  0  0
  9 34  1  0  0  0  0
 10 35  1  0  0  0  0
 10 36  1  0  0  0  0
 11 12  1  0  0  0  0
 11 37  1  0  0  0  0
 11 38  1  0  0  0  0
 12 14  1  0  0  0  0
 12 39  1  0  0  0  0
 12 40  1  0  0  0  0
 13 15  1  0  0  0  0
 13 16  2  0  0  0  0
 14 41  1  0  0  0  0
 14 42  1  0  0  0  0
 15 17  2  0  0  0  0
 16 18  1  0  0  0  0
 16 43  1  0  0  0  0
 17 19  1  0  0  0  0
 17 45  1  0  0  0  0
 18 19  2  0  0  0  0
 18 46  1  0  0  0  0
 19 47  1  0  0  0  0
 20 21  1  0  0  0  0
 21 23  2  0  0  0  0
 21 24  1  0  0  0  0
 22 48  1  0  0  0  0
 22 49  1  0  0  0  0
 22 50  1  0  0  0  0
 23 25  1  0  0  0  0
 23 51  1  0  0  0  0
 24 26  2  0  0  0  0
 24 52  1  0  0  0  0
 25 27  2  0  0  0  0
 26 27  1  0  0  0  0
 26 53  1  0  0  0  0
 27 54  1  0  0  0  0
 28 55  1  0  0  0  0
 28 56  1  0  0  0  0
 28 57  1  0  0  0  0
M  END
> <PUBCHEM_COMPOUND_CID>
10643697

> <PUBCHEM_COMPOUND_CANONICALIZED>
1

> <PUBCHEM_CACTVS_COMPLEXITY>
468

> <PUBCHEM_CACTVS_HBOND_ACCEPTOR>
5

> <PUBCHEM_CACTVS_HBOND_DONOR>
1

> <PUBCHEM_CACTVS_ROTATABLE_BOND>
8

> <PUBCHEM_CACTVS_SUBSKEYS>
AAADceB7MAAAAAAAAAAAAAAAAAAAAAAAAAA8YIAAAAAAAAABQAAAHgAQAAAADAzBmAYyxoPABACIAiVSUACCCAAlIgAIiIEPbMgOZjLE9ZuVMShk1hHY6Ye6yBCOAAABAAAAEAAAAAIAAAAgAAAAAAAAAA==

> <PUBCHEM_IUPAC_OPENEYE_NAME>
3-methoxy-N-[3-[4-(2-methoxyphenyl)piperazin-1-yl]propyl]benzamide

> <PUBCHEM_IUPAC_CAS_NAME>
3-methoxy-N-[3-[4-(2-methoxyphenyl)-1-piperazinyl]propyl]benzamide

> <PUBCHEM_IUPAC_NAME_MARKUP>
3-methoxy-<I>N</I>-[3-[4-(2-methoxyphenyl)piperazin-1-yl]propyl]benzamide

> <PUBCHEM_IUPAC_NAME>
3-methoxy-N-[3-[4-(2-methoxyphenyl)piperazin-1-yl]propyl]benzamide

> <PUBCHEM_IUPAC_SYSTEMATIC_NAME>
3-methoxy-N-[3-[4-(2-methoxyphenyl)piperazin-1-yl]propyl]benzamide

> <PUBCHEM_IUPAC_TRADITIONAL_NAME>
3-methoxy-N-[3-[4-(2-methoxyphenyl)piperazino]propyl]benzamide

> <PUBCHEM_IUPAC_INCHI>
InChI=1S/C22H29N3O3/c1-27-19-8-5-7-18(17-19)22(26)23-11-6-12-24-13-15-25(16-14-24)20-9-3-4-10-21(20)28-2/h3-5,7-10,17H,6,11-16H2,1-2H3,(H,23,26)

> <PUBCHEM_IUPAC_INCHIKEY>
KTPQCLNOFMRFDQ-UHFFFAOYSA-N

> <PUBCHEM_XLOGP3_AA>
3.1

> <PUBCHEM_EXACT_MASS>
383.22089180

> <PUBCHEM_MOLECULAR_FORMULA>
C22H29N3O3

> <PUBCHEM_MOLECULAR_WEIGHT>
383.5

> <PUBCHEM_OPENEYE_CAN_SMILES>
COC1=CC=CC(=C1)C(=O)NCCCN2CCN(CC2)C3=CC=CC=C3OC

> <PUBCHEM_OPENEYE_ISO_SMILES>
COC1=CC=CC(=C1)C(=O)NCCCN2CCN(CC2)C3=CC=CC=C3OC

> <PUBCHEM_CACTVS_TPSA>
54

> <PUBCHEM_MONOISOTOPIC_WEIGHT>
383.22089180

> <PUBCHEM_TOTAL_CHARGE>
0

> <PUBCHEM_HEAVY_ATOM_COUNT>
28

> <PUBCHEM_ATOM_DEF_STEREO_COUNT>
0

> <PUBCHEM_ATOM_UDEF_STEREO_COUNT>
0

> <PUBCHEM_BOND_DEF_STEREO_COUNT>
0

> <PUBCHEM_BOND_UDEF_STEREO_COUNT>
0

> <PUBCHEM_ISOTOPIC_ATOM_COUNT>
0

> <PUBCHEM_COMPONENT_COUNT>
1

> <PUBCHEM_CACTVS_TAUTO_COUNT>
-1

> <PUBCHEM_COORDINATE_TYPE>
1
5
255

> <PUBCHEM_BONDANNOTATIONS>
13  15  8
13  16  8
15  17  8
16  18  8
17  19  8
18  19  8
21  23  8
21  24  8
23  25  8
24  26  8
25  27  8
26  27  8

$$$$
