56661666
  -OEChem-09292322322D

 58 61  0     0  0  0  0  0  0999 V2000
    4.6783    3.0254    0.0000 O   0  0  0  0  0  0  0  0  0  0  0  0
   10.7619   -3.9641    0.0000 O   0  0  0  0  0  0  0  0  0  0  0  0
    7.7619    1.2320    0.0000 N   0  0  0  0  0  0  0  0  0  0  0  0
    6.7619    2.9641    0.0000 N   0  0  0  0  0  0  0  0  0  0  0  0
    8.2619    2.0981    0.0000 C   0  0  0  0  0  0  0  0  0  0  0  0
    6.7619    1.2320    0.0000 C   0  0  0  0  0  0  0  0  0  0  0  0
    7.7619    2.9641    0.0000 C   0  0  0  0  0  0  0  0  0  0  0  0
    6.2619    2.0981    0.0000 C   0  0  0  0  0  0  0  0  0  0  0  0
    8.2619    0.3660    0.0000 C   0  0  0  0  0  0  0  0  0  0  0  0
    9.2619    0.3660    0.0000 C   0  0  0  0  0  0  0  0  0  0  0  0
    6.2619    3.8301    0.0000 C   0  0  0  0  0  0  0  0  0  0  0  0
    9.7619   -0.5000    0.0000 C   0  0  0  0  0  0  0  0  0  0  0  0
    5.2619    3.8301    0.0000 C   0  0  0  0  0  0  0  0  0  0  0  0
   10.7619   -0.5000    0.0000 C   0  0  0  0  0  0  0  0  0  0  0  0
    4.6783    4.6349    0.0000 C   0  0  0  0  0  0  0  0  0  0  0  0
   11.2619   -1.3660    0.0000 C   0  0  0  0  0  0  0  0  0  0  0  0
    3.7320    4.3301    0.0000 C   0  0  0  0  0  0  0  0  0  0  0  0
    3.7320    3.3301    0.0000 C   0  0  0  0  0  0  0  0  0  0  0  0
   10.7619   -2.2320    0.0000 C   0  0  0  0  0  0  0  0  0  0  0  0
   12.2619   -1.3660    0.0000 C   0  0  0  0  0  0  0  0  0  0  0  0
    2.8660    4.8301    0.0000 C   0  0  0  0  0  0  0  0  0  0  0  0
    2.8660    2.8301    0.0000 C   0  0  0  0  0  0  0  0  0  0  0  0
   11.2619   -3.0981    0.0000 C   0  0  0  0  0  0  0  0  0  0  0  0
    2.0000    4.3301    0.0000 C   0  0  0  0  0  0  0  0  0  0  0  0
    2.0000    3.3301    0.0000 C   0  0  0  0  0  0  0  0  0  0  0  0
   12.7619   -2.2320    0.0000 C   0  0  0  0  0  0  0  0  0  0  0  0
   12.2619   -3.0981    0.0000 C   0  0  0  0  0  0  0  0  0  0  0  0
   11.2619   -4.8301    0.0000 C   0  0  0  0  0  0  0  0  0  0  0  0
    8.7368    1.6996    0.0000 H   0  0  0  0  0  0  0  0  0  0  0  0
    8.7368    2.4966    0.0000 H   0  0  0  0  0  0  0  0  0  0  0  0
    6.1793    1.0200    0.0000 H   0  0  0  0  0  0  0  0  0  0  0  0
    6.8695    0.6215    0.0000 H   0  0  0  0  0  0  0  0  0  0  0  0
    8.3445    3.1761    0.0000 H   0  0  0  0  0  0  0  0  0  0  0  0
    7.6542    3.5747    0.0000 H   0  0  0  0  0  0  0  0  0  0  0  0
    5.7869    2.4966    0.0000 H   0  0  0  0  0  0  0  0  0  0  0  0
    5.7869    1.6996    0.0000 H   0  0  0  0  0  0  0  0  0  0  0  0
    7.6793    0.1540    0.0000 H   0  0  0  0  0  0  0  0  0  0  0  0
    8.3695   -0.2446    0.0000 H   0  0  0  0  0  0  0  0  0  0  0  0
    9.8445    0.5781    0.0000 H   0  0  0  0  0  0  0  0  0  0  0  0
    9.1542    0.9766    0.0000 H   0  0  0  0  0  0  0  0  0  0  0  0
    6.8445    4.0422    0.0000 H   0  0  0  0  0  0  0  0  0  0  0  0
    6.1542    4.4407    0.0000 H   0  0  0  0  0  0  0  0  0  0  0  0
    9.1793   -0.7121    0.0000 H   0  0  0  0  0  0  0  0  0  0  0  0
    9.8695   -1.1106    0.0000 H   0  0  0  0  0  0  0  0  0  0  0  0
   11.3445   -0.2879    0.0000 H   0  0  0  0  0  0  0  0  0  0  0  0
   10.6542    0.1106    0.0000 H   0  0  0  0  0  0  0  0  0  0  0  0
    4.8709    5.2242    0.0000 H   0  0  0  0  0  0  0  0  0  0  0  0
   10.1419   -2.2320    0.0000 H   0  0  0  0  0  0  0  0  0  0  0  0
   12.5719   -0.8291    0.0000 H   0  0  0  0  0  0  0  0  0  0  0  0
    2.8660    5.4501    0.0000 H   0  0  0  0  0  0  0  0  0  0  0  0
    2.8660    2.2101    0.0000 H   0  0  0  0  0  0  0  0  0  0  0  0
    1.4631    4.6401    0.0000 H   0  0  0  0  0  0  0  0  0  0  0  0
    1.4631    3.0201    0.0000 H   0  0  0  0  0  0  0  0  0  0  0  0
   13.3819   -2.2320    0.0000 H   0  0  0  0  0  0  0  0  0  0  0  0
   12.5719   -3.6350    0.0000 H   0  0  0  0  0  0  0  0  0  0  0  0
   10.7249   -5.1401    0.0000 H   0  0  0  0  0  0  0  0  0  0  0  0
   11.5719   -5.3671    0.0000 H   0  0  0  0  0  0  0  0  0  0  0  0
   11.7988   -4.5201    0.0000 H   0  0  0  0  0  0  0  0  0  0  0  0
  1 13  1  0  0  0  0
  1 18  1  0  0  0  0
  2 23  1  0  0  0  0
  2 28  1  0  0  0  0
  3  5  1  0  0  0  0
  3  6  1  0  0  0  0
  3  9  1  0  0  0  0
  4  7  1  0  0  0  0
  4  8  1  0  0  0  0
  4 11  1  0  0  0  0
  5  7  1  0  0  0  0
  5 29  1  0  0  0  0
  5 30  1  0  0  0  0
  6  8  1  0  0  0  0
  6 31  1  0  0  0  0
  6 32  1  0  0  0  0
  7 33  1  0  0  0  0
  7 34  1  0  0  0  0
  8 35  1  0  0  0  0
  8 36  1  0  0  0  0
  9 10  1  0  0  0  0
  9 37  1  0  0  0  0
  9 38  1  0  0  0  0
 10 12  1  0  0  0  0
 10 39  1  0  0  0  0
 10 40  1  0  0  0  0
 11 13  1  0  0  0  0
 11 41  1  0  0  0  0
 11 42  1  0  0  0  0
 12 14  1  0  0  0  0
 12 43  1  0  0  0  0
 12 44  1  0  0  0  0
 13 15  2  0  0  0  0
 14 16  1  0  0  0  0
 14 45  1  0  0  0  0
 14 46  1  0  0  0  0
 15 17  1  0  0  0  0
 15 47  1  0  0  0  0
 16 19  2  0  0  0  0
 16 20  1  0  0  0  0
 17 18  1  0  0  0  0
 17 21  2  0  0  0  0
 18 22  2  0  0  0  0
 19 23  1  0  0  0  0
 19 48  1  0  0  0  0
 20 26  2  0  0  0  0
 20 49  1  0  0  0  0
 21 24  1  0  0  0  0
 21 50  1  0  0  0  0
 22 25  1  0  0  0  0
 22 51  1  0  0  0  0
 23 27  2  0  0  0  0
 24 25  2  0  0  0  0
 24 52  1  0  0  0  0
 25 53  1  0  0  0  0
 26 27  1  0  0  0  0
 26 54  1  0  0  0  0
 27 55  1  0  0  0  0
 28 56  1  0  0  0  0
 28 57  1  0  0  0  0
 28 58  1  0  0  0  0
M  END
> <PUBCHEM_COMPOUND_CID>
56661666

> <PUBCHEM_COMPOUND_CANONICALIZED>
1

> <PUBCHEM_CACTVS_COMPLEXITY>
452

> <PUBCHEM_CACTVS_HBOND_ACCEPTOR>
4

> <PUBCHEM_CACTVS_HBOND_DONOR>
0

> <PUBCHEM_CACTVS_ROTATABLE_BOND>
8

> <PUBCHEM_CACTVS_SUBSKEYS>
AAADceB7MAAAAAAAAAAAAAAAAAAAASAAAAA8YIAAAAAAAEgB9AAAHgAAAAAADATBmAYyBsMABECIAqBSAACCCAAkIAAIiAGODMgOZjKEtTuXOSjkwBGYqYeY2bKOAAABAAAIAAAAAAIAABAAAAAAAAAAAA==

> <PUBCHEM_IUPAC_OPENEYE_NAME>
1-(benzofuran-2-ylmethyl)-4-[4-(3-methoxyphenyl)butyl]piperazine

> <PUBCHEM_IUPAC_CAS_NAME>
1-(2-benzofuranylmethyl)-4-[4-(3-methoxyphenyl)butyl]piperazine

> <PUBCHEM_IUPAC_NAME_MARKUP>
1-(1-benzofuran-2-ylmethyl)-4-[4-(3-methoxyphenyl)butyl]piperazine

> <PUBCHEM_IUPAC_NAME>
1-(1-benzofuran-2-ylmethyl)-4-[4-(3-methoxyphenyl)butyl]piperazine

> <PUBCHEM_IUPAC_SYSTEMATIC_NAME>
1-(1-benzofuran-2-ylmethyl)-4-[4-(3-methoxyphenyl)butyl]piperazine

> <PUBCHEM_IUPAC_TRADITIONAL_NAME>
1-(benzofuran-2-ylmethyl)-4-[4-(3-methoxyphenyl)butyl]piperazine

> <PUBCHEM_IUPAC_INCHI>
InChI=1S/C24H30N2O2/c1-27-22-10-6-8-20(17-22)7-4-5-12-25-13-15-26(16-14-25)19-23-18-21-9-2-3-11-24(21)28-23/h2-3,6,8-11,17-18H,4-5,7,12-16,19H2,1H3

> <PUBCHEM_IUPAC_INCHIKEY>
OPXZUCQAQHHXSZ-UHFFFAOYSA-N

> <PUBCHEM_XLOGP3_AA>
4.6

> <PUBCHEM_EXACT_MASS>
378.230728204

> <PUBCHEM_MOLECULAR_FORMULA>
C24H30N2O2

> <PUBCHEM_MOLECULAR_WEIGHT>
378.5

> <PUBCHEM_OPENEYE_CAN_SMILES>
COC1=CC=CC(=C1)CCCCN2CCN(CC2)CC3=CC4=CC=CC=C4O3

> <PUBCHEM_OPENEYE_ISO_SMILES>
COC1=CC=CC(=C1)CCCCN2CCN(CC2)CC3=CC4=CC=CC=C4O3

> <PUBCHEM_CACTVS_TPSA>
28.8

> <PUBCHEM_MONOISOTOPIC_WEIGHT>
378.230728204

> <PUBCHEM_TOTAL_CHARGE>
0

> <PUBCHEM_HEAVY_ATOM_COUNT>
28

> <PUBCHEM_ATOM_DEF_STEREO_COUNT>
0

> <PUBCHEM_ATOM_UDEF_STEREO_COUNT>
0

> <PUBCHEM_BOND_DEF_STEREO_COUNT>
0

> <PUBCHEM_BOND_UDEF_STEREO_COUNT>
0

> <PUBCHEM_ISOTOPIC_ATOM_COUNT>
0

> <PUBCHEM_COMPONENT_COUNT>
1

> <PUBCHEM_CACTVS_TAUTO_COUNT>
-1

> <PUBCHEM_COORDINATE_TYPE>
1
5
255

> <PUBCHEM_BONDANNOTATIONS>
1  13  8
1  18  8
13  15  8
15  17  8
16  19  8
16  20  8
17  18  8
17  21  8
18  22  8
19  23  8
20  26  8
21  24  8
22  25  8
23  27  8
24  25  8
26  27  8

$$$$
