145986552
  -OEChem-09292322062D

 55 59  0     0  0  0  0  0  0999 V2000
    2.0000    2.1863    0.0000 Cl  0  0  0  0  0  0  0  0  0  0  0  0
   14.9326   -2.3580    0.0000 S   0  0  0  0  0  0  0  0  0  0  0  0
    5.8550    2.9416    0.0000 O   0  0  0  0  0  0  0  0  0  0  0  0
    5.8550   -0.5689    0.0000 O   0  0  0  0  0  0  0  0  0  0  0  0
   10.1279   -0.5457    0.0000 N   0  0  0  0  0  0  0  0  0  0  0  0
   12.1279   -0.5457    0.0000 N   0  0  0  0  0  0  0  0  0  0  0  0
    6.1279    1.1863    0.0000 N   0  0  0  0  0  0  0  0  0  0  0  0
   10.6279   -1.4118    0.0000 C   0  0  0  0  0  0  0  0  0  0  0  0
   10.6279    0.3203    0.0000 C   0  0  0  0  0  0  0  0  0  0  0  0
   11.6279   -1.4118    0.0000 C   0  0  0  0  0  0  0  0  0  0  0  0
   11.6279    0.3203    0.0000 C   0  0  0  0  0  0  0  0  0  0  0  0
    9.1279   -0.5457    0.0000 C   0  0  0  0  0  0  0  0  0  0  0  0
    8.6279    0.3203    0.0000 C   0  0  0  0  0  0  0  0  0  0  0  0
    7.6279    0.3203    0.0000 C   0  0  0  0  0  0  0  0  0  0  0  0
   13.1279   -0.5457    0.0000 C   0  0  0  0  0  0  0  0  0  0  0  0
    7.1279    1.1863    0.0000 C   0  0  0  0  0  0  0  0  0  0  0  0
   13.6279   -1.4118    0.0000 C   0  0  0  0  0  0  0  0  0  0  0  0
   13.6279    0.3203    0.0000 C   0  0  0  0  0  0  0  0  0  0  0  0
   14.6279   -1.4118    0.0000 C   0  0  0  0  0  0  0  0  0  0  0  0
    5.5443    1.9911    0.0000 C   0  0  0  0  0  0  0  0  0  0  0  0
    5.5443    0.3816    0.0000 C   0  0  0  0  0  0  0  0  0  0  0  0
   13.3232   -2.3580    0.0000 C   0  0  0  0  0  0  0  0  0  0  0  0
    4.5981    1.6863    0.0000 C   0  0  0  0  0  0  0  0  0  0  0  0
    4.5981    0.6863    0.0000 C   0  0  0  0  0  0  0  0  0  0  0  0
   14.6279    0.3203    0.0000 C   0  0  0  0  0  0  0  0  0  0  0  0
   15.1279   -0.5457    0.0000 C   0  0  0  0  0  0  0  0  0  0  0  0
   14.1279   -2.9416    0.0000 C   0  0  0  0  0  0  0  0  0  0  0  0
    3.7320    2.1863    0.0000 C   0  0  0  0  0  0  0  0  0  0  0  0
    3.7320    0.1863    0.0000 C   0  0  0  0  0  0  0  0  0  0  0  0
    2.8660    1.6863    0.0000 C   0  0  0  0  0  0  0  0  0  0  0  0
    2.8660    0.6863    0.0000 C   0  0  0  0  0  0  0  0  0  0  0  0
   10.0453   -1.6238    0.0000 H   0  0  0  0  0  0  0  0  0  0  0  0
   10.7356   -2.0223    0.0000 H   0  0  0  0  0  0  0  0  0  0  0  0
   10.7356    0.9309    0.0000 H   0  0  0  0  0  0  0  0  0  0  0  0
   10.0453    0.5324    0.0000 H   0  0  0  0  0  0  0  0  0  0  0  0
   11.5202   -2.0223    0.0000 H   0  0  0  0  0  0  0  0  0  0  0  0
   12.2105   -1.6238    0.0000 H   0  0  0  0  0  0  0  0  0  0  0  0
   12.2105    0.5324    0.0000 H   0  0  0  0  0  0  0  0  0  0  0  0
   11.5202    0.9309    0.0000 H   0  0  0  0  0  0  0  0  0  0  0  0
    8.5453   -0.7578    0.0000 H   0  0  0  0  0  0  0  0  0  0  0  0
    9.2356   -1.1563    0.0000 H   0  0  0  0  0  0  0  0  0  0  0  0
    9.2105    0.5324    0.0000 H   0  0  0  0  0  0  0  0  0  0  0  0
    8.5202    0.9309    0.0000 H   0  0  0  0  0  0  0  0  0  0  0  0
    7.0453    0.1082    0.0000 H   0  0  0  0  0  0  0  0  0  0  0  0
    7.7356   -0.2903    0.0000 H   0  0  0  0  0  0  0  0  0  0  0  0
    7.7105    1.3984    0.0000 H   0  0  0  0  0  0  0  0  0  0  0  0
    7.0202    1.7969    0.0000 H   0  0  0  0  0  0  0  0  0  0  0  0
   13.3179    0.8572    0.0000 H   0  0  0  0  0  0  0  0  0  0  0  0
   12.7338   -2.5506    0.0000 H   0  0  0  0  0  0  0  0  0  0  0  0
   14.9379    0.8572    0.0000 H   0  0  0  0  0  0  0  0  0  0  0  0
   15.7479   -0.5457    0.0000 H   0  0  0  0  0  0  0  0  0  0  0  0
   14.1279   -3.5616    0.0000 H   0  0  0  0  0  0  0  0  0  0  0  0
    3.7320    2.8063    0.0000 H   0  0  0  0  0  0  0  0  0  0  0  0
    3.7320   -0.4337    0.0000 H   0  0  0  0  0  0  0  0  0  0  0  0
    2.3291    0.3763    0.0000 H   0  0  0  0  0  0  0  0  0  0  0  0
  1 30  1  0  0  0  0
  2 19  1  0  0  0  0
  2 27  1  0  0  0  0
  3 20  2  0  0  0  0
  4 21  2  0  0  0  0
  5  8  1  0  0  0  0
  5  9  1  0  0  0  0
  5 12  1  0  0  0  0
  6 10  1  0  0  0  0
  6 11  1  0  0  0  0
  6 15  1  0  0  0  0
  7 16  1  0  0  0  0
  7 20  1  0  0  0  0
  7 21  1  0  0  0  0
  8 10  1  0  0  0  0
  8 32  1  0  0  0  0
  8 33  1  0  0  0  0
  9 11  1  0  0  0  0
  9 34  1  0  0  0  0
  9 35  1  0  0  0  0
 10 36  1  0  0  0  0
 10 37  1  0  0  0  0
 11 38  1  0  0  0  0
 11 39  1  0  0  0  0
 12 13  1  0  0  0  0
 12 40  1  0  0  0  0
 12 41  1  0  0  0  0
 13 14  1  0  0  0  0
 13 42  1  0  0  0  0
 13 43  1  0  0  0  0
 14 16  1  0  0  0  0
 14 44  1  0  0  0  0
 14 45  1  0  0  0  0
 15 17  2  0  0  0  0
 15 18  1  0  0  0  0
 16 46  1  0  0  0  0
 16 47  1  0  0  0  0
 17 19  1  0  0  0  0
 17 22  1  0  0  0  0
 18 25  2  0  0  0  0
 18 48  1  0  0  0  0
 19 26  2  0  0  0  0
 20 23  1  0  0  0  0
 21 24  1  0  0  0  0
 22 27  2  0  0  0  0
 22 49  1  0  0  0  0
 23 24  2  0  0  0  0
 23 28  1  0  0  0  0
 24 29  1  0  0  0  0
 25 26  1  0  0  0  0
 25 50  1  0  0  0  0
 26 51  1  0  0  0  0
 27 52  1  0  0  0  0
 28 30  2  0  0  0  0
 28 53  1  0  0  0  0
 29 31  2  0  0  0  0
 29 54  1  0  0  0  0
 30 31  1  0  0  0  0
 31 55  1  0  0  0  0
M  END
> <PUBCHEM_COMPOUND_CID>
145986552

> <PUBCHEM_COMPOUND_CANONICALIZED>
1

> <PUBCHEM_CACTVS_COMPLEXITY>
671

> <PUBCHEM_CACTVS_HBOND_ACCEPTOR>
5

> <PUBCHEM_CACTVS_HBOND_DONOR>
0

> <PUBCHEM_CACTVS_ROTATABLE_BOND>
6

> <PUBCHEM_CACTVS_SUBSKEYS>
AAADceB7MABEAAAAAAAAAAAAAAAAAWJAAAA8YIAAAAAAAFgB9AAAHgYAAAAADArF2CSwwcMAAAiMAiVSUACDAIAlDxBIiBkIZsgIYDLhl5GUIQxghiDoyYcdiICOhAAAICAWAAAIAABAQCwAAAAAAAAAAA==

> <PUBCHEM_IUPAC_OPENEYE_NAME>
2-[4-[4-(benzothiophen-4-yl)piperazin-1-yl]butyl]-5-chloro-isoindoline-1,3-dione

> <PUBCHEM_IUPAC_CAS_NAME>
2-[4-[4-(1-benzothiophen-4-yl)-1-piperazinyl]butyl]-5-chloroisoindole-1,3-dione

> <PUBCHEM_IUPAC_NAME_MARKUP>
2-[4-[4-(1-benzothiophen-4-yl)piperazin-1-yl]butyl]-5-chloroisoindole-1,3-dione

> <PUBCHEM_IUPAC_NAME>
2-[4-[4-(1-benzothiophen-4-yl)piperazin-1-yl]butyl]-5-chloroisoindole-1,3-dione

> <PUBCHEM_IUPAC_SYSTEMATIC_NAME>
2-[4-[4-(1-benzothiophen-4-yl)piperazin-1-yl]butyl]-5-chloranyl-isoindole-1,3-dione

> <PUBCHEM_IUPAC_TRADITIONAL_NAME>
2-[4-[4-(benzothiophen-4-yl)piperazino]butyl]-5-chloro-isoindoline-1,3-quinone

> <PUBCHEM_IUPAC_INCHI>
InChI=1S/C24H24ClN3O2S/c25-17-6-7-18-20(16-17)24(30)28(23(18)29)10-2-1-9-26-11-13-27(14-12-26)21-4-3-5-22-19(21)8-15-31-22/h3-8,15-16H,1-2,9-14H2

> <PUBCHEM_IUPAC_INCHIKEY>
AYLXMRANIJQFSE-UHFFFAOYSA-N

> <PUBCHEM_XLOGP3_AA>
4.9

> <PUBCHEM_EXACT_MASS>
453.1277759

> <PUBCHEM_MOLECULAR_FORMULA>
C24H24ClN3O2S

> <PUBCHEM_MOLECULAR_WEIGHT>
454.0

> <PUBCHEM_OPENEYE_CAN_SMILES>
C1CN(CCN1CCCCN2C(=O)C3=C(C2=O)C=C(C=C3)Cl)C4=C5C=CSC5=CC=C4

> <PUBCHEM_OPENEYE_ISO_SMILES>
C1CN(CCN1CCCCN2C(=O)C3=C(C2=O)C=C(C=C3)Cl)C4=C5C=CSC5=CC=C4

> <PUBCHEM_CACTVS_TPSA>
72.1

> <PUBCHEM_MONOISOTOPIC_WEIGHT>
453.1277759

> <PUBCHEM_TOTAL_CHARGE>
0

> <PUBCHEM_HEAVY_ATOM_COUNT>
31

> <PUBCHEM_ATOM_DEF_STEREO_COUNT>
0

> <PUBCHEM_ATOM_UDEF_STEREO_COUNT>
0

> <PUBCHEM_BOND_DEF_STEREO_COUNT>
0

> <PUBCHEM_BOND_UDEF_STEREO_COUNT>
0

> <PUBCHEM_ISOTOPIC_ATOM_COUNT>
0

> <PUBCHEM_COMPONENT_COUNT>
1

> <PUBCHEM_CACTVS_TAUTO_COUNT>
-1

> <PUBCHEM_COORDINATE_TYPE>
1
5
255

> <PUBCHEM_BONDANNOTATIONS>
15  17  8
15  18  8
17  19  8
17  22  8
18  25  8
19  26  8
2  19  8
2  27  8
22  27  8
23  24  8
23  28  8
24  29  8
25  26  8
28  30  8
29  31  8
30  31  8

$$$$
