11028157
  -OEChem-09292322112D

 62 65  0     0  0  0  0  0  0999 V2000
   13.2583    3.5000    0.0000 Br  0  0  0  0  0  0  0  0  0  0  0  0
    4.5981   -2.5000    0.0000 Cl  0  0  0  0  0  0  0  0  0  0  0  0
    2.8660   -3.5000    0.0000 Cl  0  0  0  0  0  0  0  0  0  0  0  0
   11.5263   -0.5000    0.0000 O   0  0  0  0  0  0  0  0  0  0  0  0
   13.2583   -0.5000    0.0000 O   0  0  0  0  0  0  0  0  0  0  0  0
    6.3301    0.5000    0.0000 N   0  0  0  0  0  0  0  0  0  0  0  0
    4.5981   -0.5000    0.0000 N   0  0  0  0  0  0  0  0  0  0  0  0
   10.6603    1.0000    0.0000 N   0  0  0  0  0  0  0  0  0  0  0  0
    5.4641    1.0000    0.0000 C   0  0  0  0  0  0  0  0  0  0  0  0
    6.3301   -0.5000    0.0000 C   0  0  0  0  0  0  0  0  0  0  0  0
    4.5981    0.5000    0.0000 C   0  0  0  0  0  0  0  0  0  0  0  0
    5.4641   -1.0000    0.0000 C   0  0  0  0  0  0  0  0  0  0  0  0
    7.1962    1.0000    0.0000 C   0  0  0  0  0  0  0  0  0  0  0  0
    8.0622    0.5000    0.0000 C   0  0  0  0  0  0  0  0  0  0  0  0
    8.9282    1.0000    0.0000 C   0  0  0  0  0  0  0  0  0  0  0  0
    3.7320   -1.0000    0.0000 C   0  0  0  0  0  0  0  0  0  0  0  0
    9.7942    0.5000    0.0000 C   0  0  0  0  0  0  0  0  0  0  0  0
    3.7320   -2.0000    0.0000 C   0  0  0  0  0  0  0  0  0  0  0  0
    2.8660   -0.5000    0.0000 C   0  0  0  0  0  0  0  0  0  0  0  0
    2.8660   -2.5000    0.0000 C   0  0  0  0  0  0  0  0  0  0  0  0
    2.0000   -1.0000    0.0000 C   0  0  0  0  0  0  0  0  0  0  0  0
    2.0000   -2.0000    0.0000 C   0  0  0  0  0  0  0  0  0  0  0  0
   11.5263    0.5000    0.0000 C   0  0  0  0  0  0  0  0  0  0  0  0
   12.3923    1.0000    0.0000 C   0  0  0  0  0  0  0  0  0  0  0  0
   13.2583    0.5000    0.0000 C   0  0  0  0  0  0  0  0  0  0  0  0
   14.1244    1.0000    0.0000 C   0  0  0  0  0  0  0  0  0  0  0  0
   14.1244    2.0000    0.0000 C   0  0  0  0  0  0  0  0  0  0  0  0
   12.3923    2.0000    0.0000 C   0  0  0  0  0  0  0  0  0  0  0  0
   13.2583    2.5000    0.0000 C   0  0  0  0  0  0  0  0  0  0  0  0
   15.0183    0.4653    0.0000 C   0  0  0  0  0  0  0  0  0  0  0  0
   15.0183    2.5347    0.0000 C   0  0  0  0  0  0  0  0  0  0  0  0
   15.9244    0.9792    0.0000 C   0  0  0  0  0  0  0  0  0  0  0  0
   15.9244    2.0208    0.0000 C   0  0  0  0  0  0  0  0  0  0  0  0
   14.1244   -1.0000    0.0000 C   0  0  0  0  0  0  0  0  0  0  0  0
    5.8626    1.4750    0.0000 H   0  0  0  0  0  0  0  0  0  0  0  0
    5.0656    1.4750    0.0000 H   0  0  0  0  0  0  0  0  0  0  0  0
    6.5422   -1.0826    0.0000 H   0  0  0  0  0  0  0  0  0  0  0  0
    6.9407   -0.3923    0.0000 H   0  0  0  0  0  0  0  0  0  0  0  0
    4.3860    1.0826    0.0000 H   0  0  0  0  0  0  0  0  0  0  0  0
    3.9875    0.3923    0.0000 H   0  0  0  0  0  0  0  0  0  0  0  0
    5.0656   -1.4750    0.0000 H   0  0  0  0  0  0  0  0  0  0  0  0
    5.8626   -1.4750    0.0000 H   0  0  0  0  0  0  0  0  0  0  0  0
    7.5947    1.4750    0.0000 H   0  0  0  0  0  0  0  0  0  0  0  0
    6.7976    1.4750    0.0000 H   0  0  0  0  0  0  0  0  0  0  0  0
    7.6636    0.0251    0.0000 H   0  0  0  0  0  0  0  0  0  0  0  0
    8.4607    0.0251    0.0000 H   0  0  0  0  0  0  0  0  0  0  0  0
    9.3267    1.4750    0.0000 H   0  0  0  0  0  0  0  0  0  0  0  0
    8.5297    1.4750    0.0000 H   0  0  0  0  0  0  0  0  0  0  0  0
    9.3957    0.0251    0.0000 H   0  0  0  0  0  0  0  0  0  0  0  0
   10.1928    0.0251    0.0000 H   0  0  0  0  0  0  0  0  0  0  0  0
    2.8660    0.1200    0.0000 H   0  0  0  0  0  0  0  0  0  0  0  0
   10.6603    1.6200    0.0000 H   0  0  0  0  0  0  0  0  0  0  0  0
    1.4631   -0.6900    0.0000 H   0  0  0  0  0  0  0  0  0  0  0  0
    1.4631   -2.3100    0.0000 H   0  0  0  0  0  0  0  0  0  0  0  0
   11.8554    2.3100    0.0000 H   0  0  0  0  0  0  0  0  0  0  0  0
   15.0111   -0.1546    0.0000 H   0  0  0  0  0  0  0  0  0  0  0  0
   15.0111    3.1546    0.0000 H   0  0  0  0  0  0  0  0  0  0  0  0
   16.4601    0.6671    0.0000 H   0  0  0  0  0  0  0  0  0  0  0  0
   16.4601    2.3329    0.0000 H   0  0  0  0  0  0  0  0  0  0  0  0
   13.8144   -1.5369    0.0000 H   0  0  0  0  0  0  0  0  0  0  0  0
   14.6613   -1.3100    0.0000 H   0  0  0  0  0  0  0  0  0  0  0  0
   14.4344   -0.4631    0.0000 H   0  0  0  0  0  0  0  0  0  0  0  0
  1 29  1  0  0  0  0
  2 18  1  0  0  0  0
  3 20  1  0  0  0  0
  4 23  2  0  0  0  0
  5 25  1  0  0  0  0
  5 34  1  0  0  0  0
  6  9  1  0  0  0  0
  6 10  1  0  0  0  0
  6 13  1  0  0  0  0
  7 11  1  0  0  0  0
  7 12  1  0  0  0  0
  7 16  1  0  0  0  0
  8 17  1  0  0  0  0
  8 23  1  0  0  0  0
  8 52  1  0  0  0  0
  9 11  1  0  0  0  0
  9 35  1  0  0  0  0
  9 36  1  0  0  0  0
 10 12  1  0  0  0  0
 10 37  1  0  0  0  0
 10 38  1  0  0  0  0
 11 39  1  0  0  0  0
 11 40  1  0  0  0  0
 12 41  1  0  0  0  0
 12 42  1  0  0  0  0
 13 14  1  0  0  0  0
 13 43  1  0  0  0  0
 13 44  1  0  0  0  0
 14 15  1  0  0  0  0
 14 45  1  0  0  0  0
 14 46  1  0  0  0  0
 15 17  1  0  0  0  0
 15 47  1  0  0  0  0
 15 48  1  0  0  0  0
 16 18  2  0  0  0  0
 16 19  1  0  0  0  0
 17 49  1  0  0  0  0
 17 50  1  0  0  0  0
 18 20  1  0  0  0  0
 19 21  2  0  0  0  0
 19 51  1  0  0  0  0
 20 22  2  0  0  0  0
 21 22  1  0  0  0  0
 21 53  1  0  0  0  0
 22 54  1  0  0  0  0
 23 24  1  0  0  0  0
 24 25  2  0  0  0  0
 24 28  1  0  0  0  0
 25 26  1  0  0  0  0
 26 27  1  0  0  0  0
 26 30  2  0  0  0  0
 27 29  1  0  0  0  0
 27 31  2  0  0  0  0
 28 29  2  0  0  0  0
 28 55  1  0  0  0  0
 30 32  1  0  0  0  0
 30 56  1  0  0  0  0
 31 33  1  0  0  0  0
 31 57  1  0  0  0  0
 32 33  2  0  0  0  0
 32 58  1  0  0  0  0
 33 59  1  0  0  0  0
 34 60  1  0  0  0  0
 34 61  1  0  0  0  0
 34 62  1  0  0  0  0
M  END
> <PUBCHEM_COMPOUND_CID>
11028157

> <PUBCHEM_COMPOUND_CANONICALIZED>
1

> <PUBCHEM_CACTVS_COMPLEXITY>
652

> <PUBCHEM_CACTVS_HBOND_ACCEPTOR>
4

> <PUBCHEM_CACTVS_HBOND_DONOR>
1

> <PUBCHEM_CACTVS_ROTATABLE_BOND>
8

> <PUBCHEM_CACTVS_SUBSKEYS>
AAADceB7MAAGEAAAAAAAAAAAAAAAAAAAAAA8YMEAAAAAAADBVAAAHgJQAAABrA7BmCYyxsPABACIAiVSUACCCAAlJwQIisEMbugMZjbFt5vUMWhm9hHI65eYyPCOwBADEAIYgBSAIAYgBDEAKAAAAAAAAA==

> <PUBCHEM_IUPAC_OPENEYE_NAME>
4-bromo-N-[4-[4-(2,3-dichlorophenyl)piperazin-1-yl]butyl]-1-methoxy-naphthalene-2-carboxamide

> <PUBCHEM_IUPAC_CAS_NAME>
4-bromo-N-[4-[4-(2,3-dichlorophenyl)-1-piperazinyl]butyl]-1-methoxy-2-naphthalenecarboxamide

> <PUBCHEM_IUPAC_NAME_MARKUP>
4-bromo-<I>N</I>-[4-[4-(2,3-dichlorophenyl)piperazin-1-yl]butyl]-1-methoxynaphthalene-2-carboxamide

> <PUBCHEM_IUPAC_NAME>
4-bromo-N-[4-[4-(2,3-dichlorophenyl)piperazin-1-yl]butyl]-1-methoxynaphthalene-2-carboxamide

> <PUBCHEM_IUPAC_SYSTEMATIC_NAME>
N-[4-[4-[2,3-bis(chloranyl)phenyl]piperazin-1-yl]butyl]-4-bromanyl-1-methoxy-naphthalene-2-carboxamide

> <PUBCHEM_IUPAC_TRADITIONAL_NAME>
4-bromo-N-[4-[4-(2,3-dichlorophenyl)piperazino]butyl]-1-methoxy-2-naphthamide

> <PUBCHEM_IUPAC_INCHI>
InChI=1S/C26H28BrCl2N3O2/c1-34-25-19-8-3-2-7-18(19)21(27)17-20(25)26(33)30-11-4-5-12-31-13-15-32(16-14-31)23-10-6-9-22(28)24(23)29/h2-3,6-10,17H,4-5,11-16H2,1H3,(H,30,33)

> <PUBCHEM_IUPAC_INCHIKEY>
LGTFCCLATINIEE-UHFFFAOYSA-N

> <PUBCHEM_XLOGP3_AA>
6.7

> <PUBCHEM_EXACT_MASS>
563.07420

> <PUBCHEM_MOLECULAR_FORMULA>
C26H28BrCl2N3O2

> <PUBCHEM_MOLECULAR_WEIGHT>
565.3

> <PUBCHEM_OPENEYE_CAN_SMILES>
COC1=C(C=C(C2=CC=CC=C21)Br)C(=O)NCCCCN3CCN(CC3)C4=C(C(=CC=C4)Cl)Cl

> <PUBCHEM_OPENEYE_ISO_SMILES>
COC1=C(C=C(C2=CC=CC=C21)Br)C(=O)NCCCCN3CCN(CC3)C4=C(C(=CC=C4)Cl)Cl

> <PUBCHEM_CACTVS_TPSA>
44.8

> <PUBCHEM_MONOISOTOPIC_WEIGHT>
563.07420

> <PUBCHEM_TOTAL_CHARGE>
0

> <PUBCHEM_HEAVY_ATOM_COUNT>
34

> <PUBCHEM_ATOM_DEF_STEREO_COUNT>
0

> <PUBCHEM_ATOM_UDEF_STEREO_COUNT>
0

> <PUBCHEM_BOND_DEF_STEREO_COUNT>
0

> <PUBCHEM_BOND_UDEF_STEREO_COUNT>
0

> <PUBCHEM_ISOTOPIC_ATOM_COUNT>
0

> <PUBCHEM_COMPONENT_COUNT>
1

> <PUBCHEM_CACTVS_TAUTO_COUNT>
-1

> <PUBCHEM_COORDINATE_TYPE>
1
5
255

> <PUBCHEM_BONDANNOTATIONS>
16  18  8
16  19  8
18  20  8
19  21  8
20  22  8
21  22  8
24  25  8
24  28  8
25  26  8
26  27  8
26  30  8
27  29  8
27  31  8
28  29  8
30  32  8
31  33  8
32  33  8

$$$$
