127048020
  -OEChem-09292322002D

 65 70  0     1  0  0  0  0  0999 V2000
   13.2901   -3.1290    0.0000 O   0  0  0  0  0  0  0  0  0  0  0  0
    8.3374    3.4428    0.0000 O   0  0  0  0  0  0  0  0  0  0  0  0
   14.0187   -1.5295    0.0000 N   0  0  0  0  0  0  0  0  0  0  0  0
   12.9800    0.9039    0.0000 N   0  0  3  0  0  0  0  0  0  0  0  0
   15.0243   -2.8432    0.0000 N   0  0  0  0  0  0  0  0  0  0  0  0
    8.7040    1.7500    0.0000 N   0  0  0  0  0  0  0  0  0  0  0  0
   13.6520    0.1633    0.0000 C   0  0  1  0  0  0  0  0  0  0  0  0
   13.3467   -0.7889    0.0000 C   0  0  0  0  0  0  0  0  0  0  0  0
   14.6294    0.3750    0.0000 C   0  0  0  0  0  0  0  0  0  0  0  0
   14.9960   -1.3178    0.0000 C   0  0  0  0  0  0  0  0  0  0  0  0
   15.3014   -0.3656    0.0000 C   0  0  0  0  0  0  0  0  0  0  0  0
   12.0027    0.6922    0.0000 C   0  0  0  0  0  0  0  0  0  0  0  0
   15.6840   -2.0999    0.0000 C   0  0  0  0  0  0  0  0  0  0  0  0
   14.0841   -2.5212    0.0000 C   0  0  0  0  0  0  0  0  0  0  0  0
   11.3307    1.4328    0.0000 C   0  0  0  0  0  0  0  0  0  0  0  0
   16.3159   -0.1294    0.0000 C   0  0  0  0  0  0  0  0  0  0  0  0
   13.2854    1.8561    0.0000 C   0  0  0  0  0  0  0  0  0  0  0  0
   16.7037   -1.8873    0.0000 C   0  0  0  0  0  0  0  0  0  0  0  0
   10.3534    1.2211    0.0000 C   0  0  0  0  0  0  0  0  0  0  0  0
   17.0218   -0.8954    0.0000 C   0  0  0  0  0  0  0  0  0  0  0  0
    9.6814    1.9616    0.0000 C   0  0  0  0  0  0  0  0  0  0  0  0
    5.3364    2.8153    0.0000 C   0  0  0  0  0  0  0  0  0  0  0  0
    4.5274    3.4030    0.0000 C   0  0  0  0  0  0  0  0  0  0  0  0
    5.0274    1.8642    0.0000 C   0  0  0  0  0  0  0  0  0  0  0  0
    3.7183    2.8153    0.0000 C   0  0  0  0  0  0  0  0  0  0  0  0
    4.0274    1.8642    0.0000 C   0  0  0  0  0  0  0  0  0  0  0  0
    7.0547    2.2788    0.0000 C   0  0  0  0  0  0  0  0  0  0  0  0
    6.3518    3.0475    0.0000 C   0  0  0  0  0  0  0  0  0  0  0  0
    8.0321    2.4905    0.0000 C   0  0  0  0  0  0  0  0  0  0  0  0
    5.7123    1.0795    0.0000 C   0  0  0  0  0  0  0  0  0  0  0  0
    6.7328    1.2882    0.0000 C   0  0  0  0  0  0  0  0  0  0  0  0
    2.7029    3.0475    0.0000 C   0  0  0  0  0  0  0  0  0  0  0  0
    3.3424    1.0795    0.0000 C   0  0  0  0  0  0  0  0  0  0  0  0
    2.0000    2.2788    0.0000 C   0  0  0  0  0  0  0  0  0  0  0  0
    2.3219    1.2882    0.0000 C   0  0  0  0  0  0  0  0  0  0  0  0
   13.0461    0.0321    0.0000 H   0  0  0  0  0  0  0  0  0  0  0  0
   12.7981   -0.5000    0.0000 H   0  0  0  0  0  0  0  0  0  0  0  0
   12.9669   -1.2790    0.0000 H   0  0  0  0  0  0  0  0  0  0  0  0
   15.1539    0.7056    0.0000 H   0  0  0  0  0  0  0  0  0  0  0  0
   14.3949    0.9489    0.0000 H   0  0  0  0  0  0  0  0  0  0  0  0
   11.4782    0.3616    0.0000 H   0  0  0  0  0  0  0  0  0  0  0  0
   12.2372    0.1182    0.0000 H   0  0  0  0  0  0  0  0  0  0  0  0
   11.8552    1.7633    0.0000 H   0  0  0  0  0  0  0  0  0  0  0  0
   11.0962    2.0067    0.0000 H   0  0  0  0  0  0  0  0  0  0  0  0
   16.4983    0.4631    0.0000 H   0  0  0  0  0  0  0  0  0  0  0  0
   13.8758    1.6668    0.0000 H   0  0  0  0  0  0  0  0  0  0  0  0
   13.4747    2.4465    0.0000 H   0  0  0  0  0  0  0  0  0  0  0  0
   12.6950    2.0454    0.0000 H   0  0  0  0  0  0  0  0  0  0  0  0
   15.1822   -3.4428    0.0000 H   0  0  0  0  0  0  0  0  0  0  0  0
   17.1186   -2.3480    0.0000 H   0  0  0  0  0  0  0  0  0  0  0  0
    9.8289    0.8905    0.0000 H   0  0  0  0  0  0  0  0  0  0  0  0
   10.5878    0.6471    0.0000 H   0  0  0  0  0  0  0  0  0  0  0  0
   17.6272   -0.7618    0.0000 H   0  0  0  0  0  0  0  0  0  0  0  0
   10.2059    2.2922    0.0000 H   0  0  0  0  0  0  0  0  0  0  0  0
    9.4469    2.5356    0.0000 H   0  0  0  0  0  0  0  0  0  0  0  0
    4.9422    3.8638    0.0000 H   0  0  0  0  0  0  0  0  0  0  0  0
    4.1125    3.8638    0.0000 H   0  0  0  0  0  0  0  0  0  0  0  0
    8.5147    1.1596    0.0000 H   0  0  0  0  0  0  0  0  0  0  0  0
    6.5365    3.6394    0.0000 H   0  0  0  0  0  0  0  0  0  0  0  0
    5.5139    0.4921    0.0000 H   0  0  0  0  0  0  0  0  0  0  0  0
    7.1459    0.8258    0.0000 H   0  0  0  0  0  0  0  0  0  0  0  0
    2.5182    3.6394    0.0000 H   0  0  0  0  0  0  0  0  0  0  0  0
    3.5408    0.4921    0.0000 H   0  0  0  0  0  0  0  0  0  0  0  0
    1.3940    2.4101    0.0000 H   0  0  0  0  0  0  0  0  0  0  0  0
    1.9088    0.8258    0.0000 H   0  0  0  0  0  0  0  0  0  0  0  0
  1 14  2  0  0  0  0
  2 29  2  0  0  0  0
  3  8  1  0  0  0  0
  3 10  1  0  0  0  0
  3 14  1  0  0  0  0
  7  4  1  6  0  0  0
  4 12  1  0  0  0  0
  4 17  1  0  0  0  0
  5 13  1  0  0  0  0
  5 14  1  0  0  0  0
  5 49  1  0  0  0  0
  6 21  1  0  0  0  0
  6 29  1  0  0  0  0
  6 58  1  0  0  0  0
  7  8  1  0  0  0  0
  7  9  1  0  0  0  0
  7 36  1  0  0  0  0
  8 37  1  0  0  0  0
  8 38  1  0  0  0  0
  9 11  1  0  0  0  0
  9 39  1  0  0  0  0
  9 40  1  0  0  0  0
 10 11  2  0  0  0  0
 10 13  1  0  0  0  0
 11 16  1  0  0  0  0
 12 15  1  0  0  0  0
 12 41  1  0  0  0  0
 12 42  1  0  0  0  0
 13 18  2  0  0  0  0
 15 19  1  0  0  0  0
 15 43  1  0  0  0  0
 15 44  1  0  0  0  0
 16 20  2  0  0  0  0
 16 45  1  0  0  0  0
 17 46  1  0  0  0  0
 17 47  1  0  0  0  0
 17 48  1  0  0  0  0
 18 20  1  0  0  0  0
 18 50  1  0  0  0  0
 19 21  1  0  0  0  0
 19 51  1  0  0  0  0
 19 52  1  0  0  0  0
 20 53  1  0  0  0  0
 21 54  1  0  0  0  0
 21 55  1  0  0  0  0
 22 23  1  0  0  0  0
 22 24  2  0  0  0  0
 22 28  1  0  0  0  0
 23 25  1  0  0  0  0
 23 56  1  0  0  0  0
 23 57  1  0  0  0  0
 24 26  1  0  0  0  0
 24 30  1  0  0  0  0
 25 26  1  0  0  0  0
 25 32  2  0  0  0  0
 26 33  2  0  0  0  0
 27 28  2  0  0  0  0
 27 29  1  0  0  0  0
 27 31  1  0  0  0  0
 28 59  1  0  0  0  0
 30 31  2  0  0  0  0
 30 60  1  0  0  0  0
 31 61  1  0  0  0  0
 32 34  1  0  0  0  0
 32 62  1  0  0  0  0
 33 35  1  0  0  0  0
 33 63  1  0  0  0  0
 34 35  2  0  0  0  0
 34 64  1  0  0  0  0
 35 65  1  0  0  0  0
M  END
> <PUBCHEM_COMPOUND_CID>
127048020

> <PUBCHEM_COMPOUND_CANONICALIZED>
1

> <PUBCHEM_CACTVS_COMPLEXITY>
789

> <PUBCHEM_CACTVS_HBOND_ACCEPTOR>
3

> <PUBCHEM_CACTVS_HBOND_DONOR>
2

> <PUBCHEM_CACTVS_ROTATABLE_BOND>
7

> <PUBCHEM_CACTVS_SUBSKEYS>
AAADceB7sAAAAAAAAAAAAAAAAAAAAeIAAAA8YMEAAAAAAHixUAAAHgAQAAAADCjBmAQzwIPAAACIAiVSUACCAAAlAgAIiIEIdMiIYDLAlZGUIQholgLIyacYiMCOwAACQAASACCAAASAACQAQQAACAAAAA==

> <PUBCHEM_IUPAC_OPENEYE_NAME>
N-[4-[methyl-[(10R)-2-oxo-1,3-diazatricyclo[6.3.1.04,12]dodeca-4,6,8(12)-trien-10-yl]amino]butyl]-9H-fluorene-2-carboxamide

> <PUBCHEM_IUPAC_CAS_NAME>
N-[4-[methyl-[(10R)-2-oxo-1,3-diazatricyclo[6.3.1.04,12]dodeca-4,6,8(12)-trien-10-yl]amino]butyl]-9H-fluorene-2-carboxamide

> <PUBCHEM_IUPAC_NAME_MARKUP>
<I>N</I>-[4-[methyl-[(10<I>R</I>)-2-oxo-1,3-diazatricyclo[6.3.1.0<SUP>4,12</SUP>]dodeca-4,6,8(12)-trien-10-yl]amino]butyl]-9<I>H</I>-fluorene-2-carboxamide

> <PUBCHEM_IUPAC_NAME>
N-[4-[methyl-[(10R)-2-oxo-1,3-diazatricyclo[6.3.1.04,12]dodeca-4,6,8(12)-trien-10-yl]amino]butyl]-9H-fluorene-2-carboxamide

> <PUBCHEM_IUPAC_SYSTEMATIC_NAME>
N-[4-[methyl-[(10R)-2-oxidanylidene-1,3-diazatricyclo[6.3.1.04,12]dodeca-4,6,8(12)-trien-10-yl]amino]butyl]-9H-fluorene-2-carboxamide

> <PUBCHEM_IUPAC_TRADITIONAL_NAME>
N-[4-[[(10R)-2-keto-1,3-diazatricyclo[6.3.1.04,12]dodeca-4,6,8(12)-trien-10-yl]-methyl-amino]butyl]-9H-fluorene-2-carboxamide

> <PUBCHEM_IUPAC_INCHI>
InChI=1S/C29H30N4O2/c1-32(23-17-20-8-6-10-26-27(20)33(18-23)29(35)31-26)14-5-4-13-30-28(34)21-11-12-25-22(16-21)15-19-7-2-3-9-24(19)25/h2-3,6-12,16,23H,4-5,13-15,17-18H2,1H3,(H,30,34)(H,31,35)/t23-/m1/s1

> <PUBCHEM_IUPAC_INCHIKEY>
OJVDNCHTCHUSCE-HSZRJFAPSA-N

> <PUBCHEM_XLOGP3_AA>
4.2

> <PUBCHEM_EXACT_MASS>
466.23687621

> <PUBCHEM_MOLECULAR_FORMULA>
C29H30N4O2

> <PUBCHEM_MOLECULAR_WEIGHT>
466.6

> <PUBCHEM_OPENEYE_CAN_SMILES>
CN(CCCCNC(=O)C1=CC2=C(C=C1)C3=CC=CC=C3C2)C4CC5=C6C(=CC=C5)NC(=O)N6C4

> <PUBCHEM_OPENEYE_ISO_SMILES>
CN(CCCCNC(=O)C1=CC2=C(C=C1)C3=CC=CC=C3C2)[C@@H]4CC5=C6C(=CC=C5)NC(=O)N6C4

> <PUBCHEM_CACTVS_TPSA>
64.7

> <PUBCHEM_MONOISOTOPIC_WEIGHT>
466.23687621

> <PUBCHEM_TOTAL_CHARGE>
0

> <PUBCHEM_HEAVY_ATOM_COUNT>
35

> <PUBCHEM_ATOM_DEF_STEREO_COUNT>
1

> <PUBCHEM_ATOM_UDEF_STEREO_COUNT>
0

> <PUBCHEM_BOND_DEF_STEREO_COUNT>
0

> <PUBCHEM_BOND_UDEF_STEREO_COUNT>
0

> <PUBCHEM_ISOTOPIC_ATOM_COUNT>
0

> <PUBCHEM_COMPONENT_COUNT>
1

> <PUBCHEM_CACTVS_TAUTO_COUNT>
-1

> <PUBCHEM_COORDINATE_TYPE>
1
5
255

> <PUBCHEM_BONDANNOTATIONS>
10  11  8
10  13  8
11  16  8
13  18  8
16  20  8
18  20  8
22  24  8
22  28  8
24  30  8
25  26  8
25  32  8
26  33  8
27  28  8
27  31  8
3  10  8
3  14  8
30  31  8
32  34  8
33  35  8
34  35  8
7  4  6
5  13  8
5  14  8

$$$$
