57403981
  -OEChem-09292322322D

 56 60  0     1  0  0  0  0  0999 V2000
   11.7967   -4.4900    0.0000 Cl  0  0  0  0  0  0  0  0  0  0  0  0
    4.6783    4.2947    0.0000 S   0  0  0  0  0  0  0  0  0  0  0  0
    9.7858   -1.4972    0.0000 O   0  0  0  0  0  0  0  0  0  0  0  0
    9.2619    1.7579    0.0000 N   0  0  0  0  0  0  0  0  0  0  0  0
    4.6783    2.6852    0.0000 N   0  0  0  0  0  0  0  0  0  0  0  0
   10.4812    1.9045    0.0000 C   0  0  1  0  0  0  0  0  0  0  0  0
   11.1883    1.1974    0.0000 C   0  0  2  0  0  0  0  0  0  0  0  0
   10.4286   -0.7312    0.0000 C   0  0  0  0  0  0  0  0  0  0  0  0
    9.7340   -0.0119    0.0000 C   0  0  0  0  0  0  0  0  0  0  0  0
   11.3274   -0.2928    0.0000 C   0  0  0  0  0  0  0  0  0  0  0  0
   11.6213    2.8616    0.0000 C   0  0  0  0  0  0  0  0  0  0  0  0
   12.3284    2.1545    0.0000 C   0  0  0  0  0  0  0  0  0  0  0  0
    8.2619    1.7579    0.0000 C   0  0  0  0  0  0  0  0  0  0  0  0
   10.7707   -1.6709    0.0000 C   0  0  0  0  0  0  0  0  0  0  0  0
    7.7619    2.6239    0.0000 C   0  0  0  0  0  0  0  0  0  0  0  0
    6.7619    2.6239    0.0000 C   0  0  0  0  0  0  0  0  0  0  0  0
   10.1279   -2.4369    0.0000 C   0  0  0  0  0  0  0  0  0  0  0  0
   11.7555   -1.8445    0.0000 C   0  0  0  0  0  0  0  0  0  0  0  0
    6.2619    3.4900    0.0000 C   0  0  0  0  0  0  0  0  0  0  0  0
   10.4699   -3.3766    0.0000 C   0  0  0  0  0  0  0  0  0  0  0  0
   12.0975   -2.7842    0.0000 C   0  0  0  0  0  0  0  0  0  0  0  0
   11.4547   -3.5503    0.0000 C   0  0  0  0  0  0  0  0  0  0  0  0
    5.2619    3.4900    0.0000 C   0  0  0  0  0  0  0  0  0  0  0  0
    3.7320    3.9900    0.0000 C   0  0  0  0  0  0  0  0  0  0  0  0
    3.7320    2.9900    0.0000 C   0  0  0  0  0  0  0  0  0  0  0  0
    2.8660    4.4900    0.0000 C   0  0  0  0  0  0  0  0  0  0  0  0
    2.8660    2.4900    0.0000 C   0  0  0  0  0  0  0  0  0  0  0  0
    2.0000    3.9900    0.0000 C   0  0  0  0  0  0  0  0  0  0  0  0
    2.0000    2.9900    0.0000 C   0  0  0  0  0  0  0  0  0  0  0  0
    9.8801    2.5056    0.0000 H   0  0  0  0  0  0  0  0  0  0  0  0
   11.7893    0.5964    0.0000 H   0  0  0  0  0  0  0  0  0  0  0  0
    9.1945    0.2938    0.0000 H   0  0  0  0  0  0  0  0  0  0  0  0
    9.3543   -0.5020    0.0000 H   0  0  0  0  0  0  0  0  0  0  0  0
   11.5304   -0.8787    0.0000 H   0  0  0  0  0  0  0  0  0  0  0  0
   11.9334   -0.1616    0.0000 H   0  0  0  0  0  0  0  0  0  0  0  0
   12.0722    3.2872    0.0000 H   0  0  0  0  0  0  0  0  0  0  0  0
   11.2090    3.3247    0.0000 H   0  0  0  0  0  0  0  0  0  0  0  0
   12.7406    1.6914    0.0000 H   0  0  0  0  0  0  0  0  0  0  0  0
   12.7793    2.5800    0.0000 H   0  0  0  0  0  0  0  0  0  0  0  0
    7.6793    1.5459    0.0000 H   0  0  0  0  0  0  0  0  0  0  0  0
    8.3695    1.1473    0.0000 H   0  0  0  0  0  0  0  0  0  0  0  0
    8.3445    2.8360    0.0000 H   0  0  0  0  0  0  0  0  0  0  0  0
    7.6542    3.2345    0.0000 H   0  0  0  0  0  0  0  0  0  0  0  0
    9.1753   -1.3896    0.0000 H   0  0  0  0  0  0  0  0  0  0  0  0
    6.1793    2.4119    0.0000 H   0  0  0  0  0  0  0  0  0  0  0  0
    6.8695    2.0134    0.0000 H   0  0  0  0  0  0  0  0  0  0  0  0
    9.5173   -2.3293    0.0000 H   0  0  0  0  0  0  0  0  0  0  0  0
   12.1540   -1.3696    0.0000 H   0  0  0  0  0  0  0  0  0  0  0  0
    6.8445    3.7020    0.0000 H   0  0  0  0  0  0  0  0  0  0  0  0
    6.1542    4.1006    0.0000 H   0  0  0  0  0  0  0  0  0  0  0  0
   10.0714   -3.8516    0.0000 H   0  0  0  0  0  0  0  0  0  0  0  0
   12.7081   -2.8919    0.0000 H   0  0  0  0  0  0  0  0  0  0  0  0
    2.8660    5.1100    0.0000 H   0  0  0  0  0  0  0  0  0  0  0  0
    2.8660    1.8700    0.0000 H   0  0  0  0  0  0  0  0  0  0  0  0
    1.4631    4.3000    0.0000 H   0  0  0  0  0  0  0  0  0  0  0  0
    1.4631    2.6800    0.0000 H   0  0  0  0  0  0  0  0  0  0  0  0
  1 22  1  0  0  0  0
  2 23  1  0  0  0  0
  2 24  1  0  0  0  0
  3  8  1  0  0  0  0
  3 44  1  0  0  0  0
  4  6  1  0  0  0  0
  4  7  1  0  0  0  0
  4 13  1  0  0  0  0
  5 23  2  0  0  0  0
  5 25  1  0  0  0  0
  6  9  1  0  0  0  0
  6 11  1  0  0  0  0
  6 30  1  1  0  0  0
  7 10  1  0  0  0  0
  7 12  1  0  0  0  0
  7 31  1  6  0  0  0
  8  9  1  0  0  0  0
  8 10  1  0  0  0  0
  8 14  1  0  0  0  0
  9 32  1  0  0  0  0
  9 33  1  0  0  0  0
 10 34  1  0  0  0  0
 10 35  1  0  0  0  0
 11 12  1  0  0  0  0
 11 36  1  0  0  0  0
 11 37  1  0  0  0  0
 12 38  1  0  0  0  0
 12 39  1  0  0  0  0
 13 15  1  0  0  0  0
 13 40  1  0  0  0  0
 13 41  1  0  0  0  0
 14 17  2  0  0  0  0
 14 18  1  0  0  0  0
 15 16  1  0  0  0  0
 15 42  1  0  0  0  0
 15 43  1  0  0  0  0
 16 19  1  0  0  0  0
 16 45  1  0  0  0  0
 16 46  1  0  0  0  0
 17 20  1  0  0  0  0
 17 47  1  0  0  0  0
 18 21  2  0  0  0  0
 18 48  1  0  0  0  0
 19 23  1  0  0  0  0
 19 49  1  0  0  0  0
 19 50  1  0  0  0  0
 20 22  2  0  0  0  0
 20 51  1  0  0  0  0
 21 22  1  0  0  0  0
 21 52  1  0  0  0  0
 24 25  1  0  0  0  0
 24 26  2  0  0  0  0
 25 27  2  0  0  0  0
 26 28  1  0  0  0  0
 26 53  1  0  0  0  0
 27 29  1  0  0  0  0
 27 54  1  0  0  0  0
 28 29  2  0  0  0  0
 28 55  1  0  0  0  0
 29 56  1  0  0  0  0
M  END
> <PUBCHEM_COMPOUND_CID>
57403981

> <PUBCHEM_COMPOUND_CANONICALIZED>
1

> <PUBCHEM_CACTVS_COMPLEXITY>
541

> <PUBCHEM_CACTVS_HBOND_ACCEPTOR>
4

> <PUBCHEM_CACTVS_HBOND_DONOR>
1

> <PUBCHEM_CACTVS_ROTATABLE_BOND>
6

> <PUBCHEM_CACTVS_SUBSKEYS>
AAADceB7IABEAAAAAAAAAAAAAAAAAWLAAAA8YIAABgAAAFgB9AAAHgYACAAADG7B3iQwwbMIEgikAyRiRACD8KBhDzhImDw4bpgIJqLhk5GEcAhmwAHo2AeQwOAOhAAAAAAAAQAIAAAAAAACAAAAAAAAAA==

> <PUBCHEM_IUPAC_OPENEYE_NAME>
(1R,5S)-8-[4-(1,3-benzothiazol-2-yl)butyl]-3-(4-chlorophenyl)-8-azabicyclo[3.2.1]octan-3-ol

> <PUBCHEM_IUPAC_CAS_NAME>
(1R,5S)-8-[4-(1,3-benzothiazol-2-yl)butyl]-3-(4-chlorophenyl)-8-azabicyclo[3.2.1]octan-3-ol

> <PUBCHEM_IUPAC_NAME_MARKUP>
(1<I>R</I>,5<I>S</I>)-8-[4-(1,3-benzothiazol-2-yl)butyl]-3-(4-chlorophenyl)-8-azabicyclo[3.2.1]octan-3-ol

> <PUBCHEM_IUPAC_NAME>
(1R,5S)-8-[4-(1,3-benzothiazol-2-yl)butyl]-3-(4-chlorophenyl)-8-azabicyclo[3.2.1]octan-3-ol

> <PUBCHEM_IUPAC_SYSTEMATIC_NAME>
(1R,5S)-8-[4-(1,3-benzothiazol-2-yl)butyl]-3-(4-chlorophenyl)-8-azabicyclo[3.2.1]octan-3-ol

> <PUBCHEM_IUPAC_TRADITIONAL_NAME>
(1R,5S)-8-[4-(1,3-benzothiazol-2-yl)butyl]-3-(4-chlorophenyl)-8-azabicyclo[3.2.1]octan-3-ol

> <PUBCHEM_IUPAC_INCHI>
InChI=1S/C24H27ClN2OS/c25-18-10-8-17(9-11-18)24(28)15-19-12-13-20(16-24)27(19)14-4-3-7-23-26-21-5-1-2-6-22(21)29-23/h1-2,5-6,8-11,19-20,28H,3-4,7,12-16H2/t19-,20+,24?

> <PUBCHEM_IUPAC_INCHIKEY>
SJEXSMOVRPPLBZ-VXMMSVGHSA-N

> <PUBCHEM_XLOGP3_AA>
5.8

> <PUBCHEM_EXACT_MASS>
426.1532624

> <PUBCHEM_MOLECULAR_FORMULA>
C24H27ClN2OS

> <PUBCHEM_MOLECULAR_WEIGHT>
427.0

> <PUBCHEM_OPENEYE_CAN_SMILES>
C1CC2CC(CC1N2CCCCC3=NC4=CC=CC=C4S3)(C5=CC=C(C=C5)Cl)O

> <PUBCHEM_OPENEYE_ISO_SMILES>
C1C[C@H]2CC(C[C@@H]1N2CCCCC3=NC4=CC=CC=C4S3)(C5=CC=C(C=C5)Cl)O

> <PUBCHEM_CACTVS_TPSA>
64.6

> <PUBCHEM_MONOISOTOPIC_WEIGHT>
426.1532624

> <PUBCHEM_TOTAL_CHARGE>
0

> <PUBCHEM_HEAVY_ATOM_COUNT>
29

> <PUBCHEM_ATOM_DEF_STEREO_COUNT>
2

> <PUBCHEM_ATOM_UDEF_STEREO_COUNT>
0

> <PUBCHEM_BOND_DEF_STEREO_COUNT>
0

> <PUBCHEM_BOND_UDEF_STEREO_COUNT>
0

> <PUBCHEM_ISOTOPIC_ATOM_COUNT>
0

> <PUBCHEM_COMPONENT_COUNT>
1

> <PUBCHEM_CACTVS_TAUTO_COUNT>
-1

> <PUBCHEM_COORDINATE_TYPE>
1
5
255

> <PUBCHEM_BONDANNOTATIONS>
14  17  8
14  18  8
17  20  8
18  21  8
2  23  8
2  24  8
20  22  8
21  22  8
24  25  8
24  26  8
25  27  8
26  28  8
27  29  8
28  29  8
5  23  8
5  25  8
6  30  5
7  31  6

$$$$
