50993932
  -OEChem-09292322482D

 53 56  0     0  0  0  0  0  0999 V2000
    4.2462    0.0000    0.0000 Cl  0  0  0  0  0  0  0  0  0  0  0  0
    6.2907    7.4438    0.0000 S   0  0  0  0  0  0  0  0  0  0  0  0
    5.2907    7.4438    0.0000 O   0  0  0  0  0  0  0  0  0  0  0  0
    7.2907    7.4438    0.0000 O   0  0  0  0  0  0  0  0  0  0  0  0
    2.8611    5.5284    0.0000 N   0  0  0  0  0  0  0  0  0  0  0  0
    0.8576    3.2954    0.0000 N   0  0  0  0  0  0  0  0  0  0  0  0
    7.0954    5.8602    0.0000 N   0  0  0  0  0  0  0  0  0  0  0  0
    6.7907    4.9140    0.0000 N   0  0  0  0  0  0  0  0  0  0  0  0
    2.1933    4.7840    0.0000 C   0  0  0  0  0  0  0  0  0  0  0  0
    1.2148    4.9903    0.0000 C   0  0  0  0  0  0  0  0  0  0  0  0
    2.5039    3.8335    0.0000 C   0  0  0  0  0  0  0  0  0  0  0  0
    0.5469    4.2460    0.0000 C   0  0  0  0  0  0  0  0  0  0  0  0
    1.8361    3.0892    0.0000 C   0  0  0  0  0  0  0  0  0  0  0  0
    3.8396    5.3221    0.0000 C   0  0  0  0  0  0  0  0  0  0  0  0
    5.4860    5.8602    0.0000 C   0  0  0  0  0  0  0  0  0  0  0  0
    4.5075    6.0664    0.0000 C   0  0  0  0  0  0  0  0  0  0  0  0
    6.2907    6.4438    0.0000 C   0  0  0  0  0  0  0  0  0  0  0  0
    5.7966    4.9097    0.0000 C   0  0  0  0  0  0  0  0  0  0  0  0
    4.1503    4.3716    0.0000 C   0  0  0  0  0  0  0  0  0  0  0  0
    5.1288    4.1654    0.0000 C   0  0  0  0  0  0  0  0  0  0  0  0
    6.2907    8.4438    0.0000 C   0  0  0  0  0  0  0  0  0  0  0  0
    7.1567    8.9438    0.0000 C   0  0  0  0  0  0  0  0  0  0  0  0
    7.1567    9.9438    0.0000 C   0  0  0  0  0  0  0  0  0  0  0  0
    5.4247    8.9438    0.0000 C   0  0  0  0  0  0  0  0  0  0  0  0
    8.0507    8.4092    0.0000 C   0  0  0  0  0  0  0  0  0  0  0  0
    6.2907   10.4438    0.0000 C   0  0  0  0  0  0  0  0  0  0  0  0
    5.4247    9.9438    0.0000 C   0  0  0  0  0  0  0  0  0  0  0  0
    8.0507   10.4785    0.0000 C   0  0  0  0  0  0  0  0  0  0  0  0
    8.9567    8.9230    0.0000 C   0  0  0  0  0  0  0  0  0  0  0  0
    8.9567    9.9646    0.0000 C   0  0  0  0  0  0  0  0  0  0  0  0
    2.0007    5.3734    0.0000 H   0  0  0  0  0  0  0  0  0  0  0  0
    1.4460    5.5655    0.0000 H   0  0  0  0  0  0  0  0  0  0  0  0
    0.6884    5.3179    0.0000 H   0  0  0  0  0  0  0  0  0  0  0  0
    2.8865    3.3456    0.0000 H   0  0  0  0  0  0  0  0  0  0  0  0
    3.0509    4.1255    0.0000 H   0  0  0  0  0  0  0  0  0  0  0  0
    0.1644    4.7339    0.0000 H   0  0  0  0  0  0  0  0  0  0  0  0
    0.0000    3.9540    0.0000 H   0  0  0  0  0  0  0  0  0  0  0  0
    1.6048    2.5140    0.0000 H   0  0  0  0  0  0  0  0  0  0  0  0
    2.3624    2.7616    0.0000 H   0  0  0  0  0  0  0  0  0  0  0  0
    2.6685    6.1177    0.0000 H   0  0  0  0  0  0  0  0  0  0  0  0
    0.4435    2.8340    0.0000 H   0  0  0  0  0  0  0  0  0  0  0  0
    4.3149    6.6558    0.0000 H   0  0  0  0  0  0  0  0  0  0  0  0
    3.7362    3.9102    0.0000 H   0  0  0  0  0  0  0  0  0  0  0  0
    5.3214    3.5761    0.0000 H   0  0  0  0  0  0  0  0  0  0  0  0
    7.6848    6.0528    0.0000 H   0  0  0  0  0  0  0  0  0  0  0  0
    4.8877    8.6338    0.0000 H   0  0  0  0  0  0  0  0  0  0  0  0
    8.0435    7.7892    0.0000 H   0  0  0  0  0  0  0  0  0  0  0  0
    6.2907   11.0638    0.0000 H   0  0  0  0  0  0  0  0  0  0  0  0
    4.8877   10.2538    0.0000 H   0  0  0  0  0  0  0  0  0  0  0  0
    8.0435   11.0984    0.0000 H   0  0  0  0  0  0  0  0  0  0  0  0
    9.4925    8.6109    0.0000 H   0  0  0  0  0  0  0  0  0  0  0  0
    9.4925   10.2767    0.0000 H   0  0  0  0  0  0  0  0  0  0  0  0
    5.2462    0.0000    0.0000 H   0  0  0  0  0  0  0  0  0  0  0  0
  1 53  1  0  0  0  0
  2  3  2  0  0  0  0
  2  4  2  0  0  0  0
  2 17  1  0  0  0  0
  2 21  1  0  0  0  0
  5  9  1  0  0  0  0
  5 14  1  0  0  0  0
  5 40  1  0  0  0  0
  6 12  1  0  0  0  0
  6 13  1  0  0  0  0
  6 41  1  0  0  0  0
  7  8  1  0  0  0  0
  7 17  1  0  0  0  0
  7 45  1  0  0  0  0
  8 18  2  0  0  0  0
  9 10  1  0  0  0  0
  9 11  1  0  0  0  0
  9 31  1  0  0  0  0
 10 12  1  0  0  0  0
 10 32  1  0  0  0  0
 10 33  1  0  0  0  0
 11 13  1  0  0  0  0
 11 34  1  0  0  0  0
 11 35  1  0  0  0  0
 12 36  1  0  0  0  0
 12 37  1  0  0  0  0
 13 38  1  0  0  0  0
 13 39  1  0  0  0  0
 14 16  2  0  0  0  0
 14 19  1  0  0  0  0
 15 16  1  0  0  0  0
 15 17  2  0  0  0  0
 15 18  1  0  0  0  0
 16 42  1  0  0  0  0
 18 20  1  0  0  0  0
 19 20  2  0  0  0  0
 19 43  1  0  0  0  0
 20 44  1  0  0  0  0
 21 22  1  0  0  0  0
 21 24  2  0  0  0  0
 22 23  1  0  0  0  0
 22 25  2  0  0  0  0
 23 26  1  0  0  0  0
 23 28  2  0  0  0  0
 24 27  1  0  0  0  0
 24 46  1  0  0  0  0
 25 29  1  0  0  0  0
 25 47  1  0  0  0  0
 26 27  2  0  0  0  0
 26 48  1  0  0  0  0
 27 49  1  0  0  0  0
 28 30  1  0  0  0  0
 28 50  1  0  0  0  0
 29 30  2  0  0  0  0
 29 51  1  0  0  0  0
 30 52  1  0  0  0  0
M  END
> <PUBCHEM_COMPOUND_CID>
50993932

> <PUBCHEM_COMPOUND_CANONICALIZED>
1

> <PUBCHEM_CACTVS_COMPLEXITY>
660

> <PUBCHEM_CACTVS_HBOND_ACCEPTOR>
5

> <PUBCHEM_CACTVS_HBOND_DONOR>
4

> <PUBCHEM_CACTVS_ROTATABLE_BOND>
4

> <PUBCHEM_CACTVS_SUBSKEYS>
AAADceB7sABEAAAAAAAAAAAAAAAAAWAAAAA8YMEAAAAAAFjB9AAAHAQYAAAADCjBXgQwwfLjAAqiAyRiQHDaBgBhChAYubg4ZJgIIKLg0dGEpAxgmADoyAcQgIAOgACAwAAWAAAAAQGAACwAAAAAAAAAAA==

> <PUBCHEM_IUPAC_OPENEYE_NAME>
3-(1-naphthylsulfonyl)-N-(4-piperidyl)-2H-indazol-5-amine;hydrochloride

> <PUBCHEM_IUPAC_CAS_NAME>
3-(1-naphthalenylsulfonyl)-N-(4-piperidinyl)-2H-indazol-5-amine;hydrochloride

> <PUBCHEM_IUPAC_NAME_MARKUP>
3-naphthalen-1-ylsulfonyl-<I>N</I>-piperidin-4-yl-2<I>H</I>-indazol-5-amine;hydrochloride

> <PUBCHEM_IUPAC_NAME>
3-naphthalen-1-ylsulfonyl-N-piperidin-4-yl-2H-indazol-5-amine;hydrochloride

> <PUBCHEM_IUPAC_SYSTEMATIC_NAME>
3-naphthalen-1-ylsulfonyl-N-piperidin-4-yl-2H-indazol-5-amine;hydrochloride

> <PUBCHEM_IUPAC_TRADITIONAL_NAME>
[3-(1-naphthylsulfonyl)-2H-indazol-5-yl]-(4-piperidyl)amine;hydrochloride

> <PUBCHEM_IUPAC_INCHI>
InChI=1S/C22H22N4O2S.ClH/c27-29(28,21-7-3-5-15-4-1-2-6-18(15)21)22-19-14-17(8-9-20(19)25-26-22)24-16-10-12-23-13-11-16;/h1-9,14,16,23-24H,10-13H2,(H,25,26);1H

> <PUBCHEM_IUPAC_INCHIKEY>
FOPKIAOCZASBMQ-UHFFFAOYSA-N

> <PUBCHEM_EXACT_MASS>
442.1230249

> <PUBCHEM_MOLECULAR_FORMULA>
C22H23ClN4O2S

> <PUBCHEM_MOLECULAR_WEIGHT>
443.0

> <PUBCHEM_OPENEYE_CAN_SMILES>
C1CNCCC1NC2=CC3=C(NN=C3C=C2)S(=O)(=O)C4=CC=CC5=CC=CC=C54.Cl

> <PUBCHEM_OPENEYE_ISO_SMILES>
C1CNCCC1NC2=CC3=C(NN=C3C=C2)S(=O)(=O)C4=CC=CC5=CC=CC=C54.Cl

> <PUBCHEM_CACTVS_TPSA>
95.3

> <PUBCHEM_MONOISOTOPIC_WEIGHT>
442.1230249

> <PUBCHEM_TOTAL_CHARGE>
0

> <PUBCHEM_HEAVY_ATOM_COUNT>
30

> <PUBCHEM_ATOM_DEF_STEREO_COUNT>
0

> <PUBCHEM_ATOM_UDEF_STEREO_COUNT>
0

> <PUBCHEM_BOND_DEF_STEREO_COUNT>
0

> <PUBCHEM_BOND_UDEF_STEREO_COUNT>
0

> <PUBCHEM_ISOTOPIC_ATOM_COUNT>
0

> <PUBCHEM_COMPONENT_COUNT>
2

> <PUBCHEM_CACTVS_TAUTO_COUNT>
-1

> <PUBCHEM_COORDINATE_TYPE>
1
5
255

> <PUBCHEM_BONDANNOTATIONS>
14  16  8
14  19  8
15  16  8
15  17  8
15  18  8
18  20  8
19  20  8
21  22  8
21  24  8
22  23  8
22  25  8
23  26  8
23  28  8
24  27  8
25  29  8
26  27  8
28  30  8
29  30  8
7  17  8
7  8  8
8  18  8

$$$$
