44425719
  -OEChem-09292321592D

 63 66  0     1  0  0  0  0  0999 V2000
    7.8239    5.7758    0.0000 Cl  0  0  0  0  0  0  0  0  0  0  0  0
    7.8509   -1.2242    0.0000 S   0  0  0  0  0  0  0  0  0  0  0  0
    8.8509   -1.2203    0.0000 O   0  0  0  0  0  0  0  0  0  0  0  0
    6.8509   -1.2280    0.0000 O   0  0  0  0  0  0  0  0  0  0  0  0
    3.0000   -3.2483    0.0000 N   0  0  3  0  0  0  0  0  0  0  0  0
    7.8547   -4.2725    0.0000 N   0  0  0  0  0  0  0  0  0  0  0  0
    7.8547   -2.2242    0.0000 N   0  0  0  0  0  0  0  0  0  0  0  0
    5.1906   -3.7483    0.0000 C   0  0  0  0  0  0  0  0  0  0  0  0
    5.1906   -2.7483    0.0000 C   0  0  0  0  0  0  0  0  0  0  0  0
    4.4088   -4.3718    0.0000 C   0  0  0  0  0  0  0  0  0  0  0  0
    4.4088   -2.1248    0.0000 C   0  0  0  0  0  0  0  0  0  0  0  0
    3.4339   -4.1493    0.0000 C   0  0  0  0  0  0  0  0  0  0  0  0
    3.4339   -2.3473    0.0000 C   0  0  0  0  0  0  0  0  0  0  0  0
    6.0846   -4.2830    0.0000 C   0  0  0  0  0  0  0  0  0  0  0  0
    6.0846   -2.2136    0.0000 C   0  0  0  0  0  0  0  0  0  0  0  0
    6.9906   -3.7691    0.0000 C   0  0  0  0  0  0  0  0  0  0  0  0
    6.9906   -2.7275    0.0000 C   0  0  0  0  0  0  0  0  0  0  0  0
    2.0000   -3.2483    0.0000 C   0  0  0  0  0  0  0  0  0  0  0  0
    7.8509   -5.2724    0.0000 C   0  0  0  0  0  0  0  0  0  0  0  0
    8.7150   -5.7758    0.0000 C   0  0  0  0  0  0  0  0  0  0  0  0
    6.9829   -5.7691    0.0000 C   0  0  0  0  0  0  0  0  0  0  0  0
    7.8470   -0.2242    0.0000 C   0  0  0  0  0  0  0  0  0  0  0  0
    8.7111    0.2792    0.0000 C   0  0  0  0  0  0  0  0  0  0  0  0
    6.9791    0.2725    0.0000 C   0  0  0  0  0  0  0  0  0  0  0  0
    7.8393    1.7758    0.0000 C   0  0  0  0  0  0  0  0  0  0  0  0
    8.7073    1.2792    0.0000 C   0  0  0  0  0  0  0  0  0  0  0  0
    6.9752    1.2725    0.0000 C   0  0  0  0  0  0  0  0  0  0  0  0
    7.8355    2.7758    0.0000 C   0  0  0  0  0  0  0  0  0  0  0  0
    8.6996    3.2791    0.0000 C   0  0  0  0  0  0  0  0  0  0  0  0
    6.9675    3.2725    0.0000 C   0  0  0  0  0  0  0  0  0  0  0  0
    8.6957    4.2791    0.0000 C   0  0  0  0  0  0  0  0  0  0  0  0
    6.9637    4.2725    0.0000 C   0  0  0  0  0  0  0  0  0  0  0  0
    7.8278    4.7758    0.0000 C   0  0  0  0  0  0  0  0  0  0  0  0
    4.1398   -4.9304    0.0000 H   0  0  0  0  0  0  0  0  0  0  0  0
    4.8936   -4.7584    0.0000 H   0  0  0  0  0  0  0  0  0  0  0  0
    4.8936   -1.7382    0.0000 H   0  0  0  0  0  0  0  0  0  0  0  0
    4.1398   -1.5662    0.0000 H   0  0  0  0  0  0  0  0  0  0  0  0
    2.8294   -4.2872    0.0000 H   0  0  0  0  0  0  0  0  0  0  0  0
    3.4339   -4.7693    0.0000 H   0  0  0  0  0  0  0  0  0  0  0  0
    3.4339   -1.7273    0.0000 H   0  0  0  0  0  0  0  0  0  0  0  0
    2.8294   -2.2094    0.0000 H   0  0  0  0  0  0  0  0  0  0  0  0
    6.0774   -4.9029    0.0000 H   0  0  0  0  0  0  0  0  0  0  0  0
    6.0774   -1.5937    0.0000 H   0  0  0  0  0  0  0  0  0  0  0  0
    2.0000   -2.6283    0.0000 H   0  0  0  0  0  0  0  0  0  0  0  0
    1.3800   -3.2483    0.0000 H   0  0  0  0  0  0  0  0  0  0  0  0
    2.0000   -3.8683    0.0000 H   0  0  0  0  0  0  0  0  0  0  0  0
    8.3929   -3.9645    0.0000 H   0  0  0  0  0  0  0  0  0  0  0  0
    8.3890   -4.9645    0.0000 H   0  0  0  0  0  0  0  0  0  0  0  0
    8.3929   -2.5321    0.0000 H   0  0  0  0  0  0  0  0  0  0  0  0
    8.4029   -6.3115    0.0000 H   0  0  0  0  0  0  0  0  0  0  0  0
    9.2507   -6.0879    0.0000 H   0  0  0  0  0  0  0  0  0  0  0  0
    9.0270   -5.2400    0.0000 H   0  0  0  0  0  0  0  0  0  0  0  0
    6.6750   -5.2310    0.0000 H   0  0  0  0  0  0  0  0  0  0  0  0
    6.4448   -6.0770    0.0000 H   0  0  0  0  0  0  0  0  0  0  0  0
    7.2909   -6.3072    0.0000 H   0  0  0  0  0  0  0  0  0  0  0  0
    9.2492   -0.0288    0.0000 H   0  0  0  0  0  0  0  0  0  0  0  0
    6.4434   -0.0396    0.0000 H   0  0  0  0  0  0  0  0  0  0  0  0
    9.2430    1.5912    0.0000 H   0  0  0  0  0  0  0  0  0  0  0  0
    6.4371    1.5804    0.0000 H   0  0  0  0  0  0  0  0  0  0  0  0
    9.2377    2.9712    0.0000 H   0  0  0  0  0  0  0  0  0  0  0  0
    6.4318    2.9604    0.0000 H   0  0  0  0  0  0  0  0  0  0  0  0
    9.2314    4.5912    0.0000 H   0  0  0  0  0  0  0  0  0  0  0  0
    6.4255    4.5804    0.0000 H   0  0  0  0  0  0  0  0  0  0  0  0
  1 33  1  0  0  0  0
  2  3  2  0  0  0  0
  2  4  2  0  0  0  0
  2  7  1  0  0  0  0
  2 22  1  0  0  0  0
  5 12  1  0  0  0  0
  5 13  1  0  0  0  0
  5 18  1  0  0  0  0
  6 16  1  0  0  0  0
  6 19  1  0  0  0  0
  6 47  1  0  0  0  0
  7 17  1  0  0  0  0
  7 49  1  0  0  0  0
  8  9  1  0  0  0  0
  8 10  1  0  0  0  0
  8 14  2  0  0  0  0
  9 11  1  0  0  0  0
  9 15  2  0  0  0  0
 10 12  1  0  0  0  0
 10 34  1  0  0  0  0
 10 35  1  0  0  0  0
 11 13  1  0  0  0  0
 11 36  1  0  0  0  0
 11 37  1  0  0  0  0
 12 38  1  0  0  0  0
 12 39  1  0  0  0  0
 13 40  1  0  0  0  0
 13 41  1  0  0  0  0
 14 16  1  0  0  0  0
 14 42  1  0  0  0  0
 15 17  1  0  0  0  0
 15 43  1  0  0  0  0
 16 17  2  0  0  0  0
 18 44  1  0  0  0  0
 18 45  1  0  0  0  0
 18 46  1  0  0  0  0
 19 20  1  0  0  0  0
 19 21  1  0  0  0  0
 19 48  1  0  0  0  0
 20 50  1  0  0  0  0
 20 51  1  0  0  0  0
 20 52  1  0  0  0  0
 21 53  1  0  0  0  0
 21 54  1  0  0  0  0
 21 55  1  0  0  0  0
 22 23  2  0  0  0  0
 22 24  1  0  0  0  0
 23 26  1  0  0  0  0
 23 56  1  0  0  0  0
 24 27  2  0  0  0  0
 24 57  1  0  0  0  0
 25 26  2  0  0  0  0
 25 27  1  0  0  0  0
 25 28  1  0  0  0  0
 26 58  1  0  0  0  0
 27 59  1  0  0  0  0
 28 29  2  0  0  0  0
 28 30  1  0  0  0  0
 29 31  1  0  0  0  0
 29 60  1  0  0  0  0
 30 32  2  0  0  0  0
 30 61  1  0  0  0  0
 31 33  2  0  0  0  0
 31 62  1  0  0  0  0
 32 33  1  0  0  0  0
 32 63  1  0  0  0  0
M  END
> <PUBCHEM_COMPOUND_CID>
44425719

> <PUBCHEM_COMPOUND_CANONICALIZED>
1

> <PUBCHEM_CACTVS_COMPLEXITY>
712

> <PUBCHEM_CACTVS_HBOND_ACCEPTOR>
5

> <PUBCHEM_CACTVS_HBOND_DONOR>
2

> <PUBCHEM_CACTVS_ROTATABLE_BOND>
6

> <PUBCHEM_CACTVS_SUBSKEYS>
AAADceB7MABEAAAAAAAAAAAAAAAAAAAAAAAwYMAABYAAAAABUAAAHAYQQAAADCrBWCQywYPAAAKAAiRCQHDCABAhBwAIiJgIdogIYCLBk5GUIAhgkADIyAcQgMAOnAAAQAAQACA4AACAACAAQAAAAAAAAA==

> <PUBCHEM_IUPAC_OPENEYE_NAME>
4-(4-chlorophenyl)-N-[8-(isopropylamino)-3-methyl-1,2,4,5-tetrahydro-3-benzazepin-7-yl]benzenesulfonamide

> <PUBCHEM_IUPAC_CAS_NAME>
4-(4-chlorophenyl)-N-[3-methyl-8-(propan-2-ylamino)-1,2,4,5-tetrahydro-3-benzazepin-7-yl]benzenesulfonamide

> <PUBCHEM_IUPAC_NAME_MARKUP>
4-(4-chlorophenyl)-<I>N</I>-[3-methyl-8-(propan-2-ylamino)-1,2,4,5-tetrahydro-3-benzazepin-7-yl]benzenesulfonamide

> <PUBCHEM_IUPAC_NAME>
4-(4-chlorophenyl)-N-[3-methyl-8-(propan-2-ylamino)-1,2,4,5-tetrahydro-3-benzazepin-7-yl]benzenesulfonamide

> <PUBCHEM_IUPAC_SYSTEMATIC_NAME>
4-(4-chlorophenyl)-N-[3-methyl-8-(propan-2-ylamino)-1,2,4,5-tetrahydro-3-benzazepin-7-yl]benzenesulfonamide

> <PUBCHEM_IUPAC_TRADITIONAL_NAME>
4-(4-chlorophenyl)-N-[8-(isopropylamino)-3-methyl-1,2,4,5-tetrahydro-3-benzazepin-7-yl]benzenesulfonamide

> <PUBCHEM_IUPAC_INCHI>
InChI=1S/C26H30ClN3O2S/c1-18(2)28-25-16-21-12-14-30(3)15-13-22(21)17-26(25)29-33(31,32)24-10-6-20(7-11-24)19-4-8-23(27)9-5-19/h4-11,16-18,28-29H,12-15H2,1-3H3

> <PUBCHEM_IUPAC_INCHIKEY>
LQYNONCEAYAGNN-UHFFFAOYSA-N

> <PUBCHEM_XLOGP3_AA>
5.8

> <PUBCHEM_EXACT_MASS>
483.1747261

> <PUBCHEM_MOLECULAR_FORMULA>
C26H30ClN3O2S

> <PUBCHEM_MOLECULAR_WEIGHT>
484.1

> <PUBCHEM_OPENEYE_CAN_SMILES>
CC(C)NC1=C(C=C2CCN(CCC2=C1)C)NS(=O)(=O)C3=CC=C(C=C3)C4=CC=C(C=C4)Cl

> <PUBCHEM_OPENEYE_ISO_SMILES>
CC(C)NC1=C(C=C2CCN(CCC2=C1)C)NS(=O)(=O)C3=CC=C(C=C3)C4=CC=C(C=C4)Cl

> <PUBCHEM_CACTVS_TPSA>
69.8

> <PUBCHEM_MONOISOTOPIC_WEIGHT>
483.1747261

> <PUBCHEM_TOTAL_CHARGE>
0

> <PUBCHEM_HEAVY_ATOM_COUNT>
33

> <PUBCHEM_ATOM_DEF_STEREO_COUNT>
0

> <PUBCHEM_ATOM_UDEF_STEREO_COUNT>
0

> <PUBCHEM_BOND_DEF_STEREO_COUNT>
0

> <PUBCHEM_BOND_UDEF_STEREO_COUNT>
0

> <PUBCHEM_ISOTOPIC_ATOM_COUNT>
0

> <PUBCHEM_COMPONENT_COUNT>
1

> <PUBCHEM_CACTVS_TAUTO_COUNT>
-1

> <PUBCHEM_COORDINATE_TYPE>
1
5
255

> <PUBCHEM_BONDANNOTATIONS>
14  16  8
15  17  8
16  17  8
22  23  8
22  24  8
23  26  8
24  27  8
25  26  8
25  27  8
28  29  8
28  30  8
29  31  8
30  32  8
31  33  8
32  33  8
8  14  8
8  9  8
9  15  8

$$$$
