72736380
  -OEChem-09292322342D

 60 62  0     1  0  0  0  0  0999 V2000
   12.4603    0.0173    0.0000 O   0  0  0  0  0  0  0  0  0  0  0  0
   11.5942    1.5173    0.0000 O   0  0  0  0  0  0  0  0  0  0  0  0
    5.5321   -0.9827    0.0000 N   0  0  3  0  0  0  0  0  0  0  0  0
   10.7282    0.0173    0.0000 N   0  0  0  0  0  0  0  0  0  0  0  0
    7.2641   -0.9827    0.0000 C   0  0  0  0  0  0  0  0  0  0  0  0
    8.9962    0.0173    0.0000 C   0  0  0  0  0  0  0  0  0  0  0  0
    7.2641    0.0173    0.0000 C   0  0  0  0  0  0  0  0  0  0  0  0
    8.1301   -1.4827    0.0000 C   0  0  0  0  0  0  0  0  0  0  0  0
    8.1301    0.5173    0.0000 C   0  0  0  0  0  0  0  0  0  0  0  0
    8.9962   -0.9827    0.0000 C   0  0  0  0  0  0  0  0  0  0  0  0
    6.3981   -1.4827    0.0000 C   0  0  0  0  0  0  0  0  0  0  0  0
    9.8622    0.5173    0.0000 C   0  0  0  0  0  0  0  0  0  0  0  0
    5.5321    0.0173    0.0000 C   0  0  0  0  0  0  0  0  0  0  0  0
    4.6660   -1.4827    0.0000 C   0  0  0  0  0  0  0  0  0  0  0  0
    4.6660    0.5173    0.0000 C   0  0  0  0  0  0  0  0  0  0  0  0
    3.8000   -0.9827    0.0000 C   0  0  0  0  0  0  0  0  0  0  0  0
    3.8000    0.0173    0.0000 C   0  0  0  0  0  0  0  0  0  0  0  0
    2.9061   -1.5173    0.0000 C   0  0  0  0  0  0  0  0  0  0  0  0
    2.9061    0.5520    0.0000 C   0  0  0  0  0  0  0  0  0  0  0  0
   11.5942    0.5173    0.0000 C   0  0  0  0  0  0  0  0  0  0  0  0
    2.0000   -1.0035    0.0000 C   0  0  0  0  0  0  0  0  0  0  0  0
    2.0000    0.0381    0.0000 C   0  0  0  0  0  0  0  0  0  0  0  0
   13.3263    0.5173    0.0000 C   0  0  0  0  0  0  0  0  0  0  0  0
   14.1923    1.0173    0.0000 C   0  0  0  0  0  0  0  0  0  0  0  0
   13.8263   -0.3487    0.0000 C   0  0  0  0  0  0  0  0  0  0  0  0
   12.8263    1.3834    0.0000 C   0  0  0  0  0  0  0  0  0  0  0  0
    6.7272   -0.6727    0.0000 H   0  0  0  0  0  0  0  0  0  0  0  0
    9.5331   -0.2927    0.0000 H   0  0  0  0  0  0  0  0  0  0  0  0
    7.0521    0.5999    0.0000 H   0  0  0  0  0  0  0  0  0  0  0  0
    6.6535   -0.0903    0.0000 H   0  0  0  0  0  0  0  0  0  0  0  0
    7.7316   -1.9576    0.0000 H   0  0  0  0  0  0  0  0  0  0  0  0
    8.5287   -1.9576    0.0000 H   0  0  0  0  0  0  0  0  0  0  0  0
    8.5287    0.9923    0.0000 H   0  0  0  0  0  0  0  0  0  0  0  0
    7.7316    0.9923    0.0000 H   0  0  0  0  0  0  0  0  0  0  0  0
    9.2082   -1.5653    0.0000 H   0  0  0  0  0  0  0  0  0  0  0  0
    9.6067   -0.8750    0.0000 H   0  0  0  0  0  0  0  0  0  0  0  0
    5.9996   -1.9576    0.0000 H   0  0  0  0  0  0  0  0  0  0  0  0
    6.7966   -1.9576    0.0000 H   0  0  0  0  0  0  0  0  0  0  0  0
   10.2607    0.9923    0.0000 H   0  0  0  0  0  0  0  0  0  0  0  0
    9.4637    0.9923    0.0000 H   0  0  0  0  0  0  0  0  0  0  0  0
    6.1426   -0.0903    0.0000 H   0  0  0  0  0  0  0  0  0  0  0  0
    5.7441    0.5999    0.0000 H   0  0  0  0  0  0  0  0  0  0  0  0
    4.2675   -1.9576    0.0000 H   0  0  0  0  0  0  0  0  0  0  0  0
    5.0646   -1.9576    0.0000 H   0  0  0  0  0  0  0  0  0  0  0  0
    5.0646    0.9923    0.0000 H   0  0  0  0  0  0  0  0  0  0  0  0
    4.2675    0.9923    0.0000 H   0  0  0  0  0  0  0  0  0  0  0  0
   10.7282   -0.6027    0.0000 H   0  0  0  0  0  0  0  0  0  0  0  0
    2.9132   -2.1373    0.0000 H   0  0  0  0  0  0  0  0  0  0  0  0
    2.9132    1.1720    0.0000 H   0  0  0  0  0  0  0  0  0  0  0  0
    1.4643   -1.3156    0.0000 H   0  0  0  0  0  0  0  0  0  0  0  0
    1.4643    0.3502    0.0000 H   0  0  0  0  0  0  0  0  0  0  0  0
   14.5023    0.4804    0.0000 H   0  0  0  0  0  0  0  0  0  0  0  0
   14.7292    1.3273    0.0000 H   0  0  0  0  0  0  0  0  0  0  0  0
   13.8823    1.5543    0.0000 H   0  0  0  0  0  0  0  0  0  0  0  0
   13.2894   -0.6587    0.0000 H   0  0  0  0  0  0  0  0  0  0  0  0
   14.1363   -0.8856    0.0000 H   0  0  0  0  0  0  0  0  0  0  0  0
   14.3632   -0.0387    0.0000 H   0  0  0  0  0  0  0  0  0  0  0  0
   13.3632    1.6934    0.0000 H   0  0  0  0  0  0  0  0  0  0  0  0
   12.5163    1.9203    0.0000 H   0  0  0  0  0  0  0  0  0  0  0  0
   12.2894    1.0734    0.0000 H   0  0  0  0  0  0  0  0  0  0  0  0
  1 20  1  0  0  0  0
  1 23  1  0  0  0  0
  2 20  2  0  0  0  0
  3 11  1  0  0  0  0
  3 13  1  0  0  0  0
  3 14  1  0  0  0  0
  4 12  1  0  0  0  0
  4 20  1  0  0  0  0
  4 47  1  0  0  0  0
  5  7  1  0  0  0  0
  5  8  1  0  0  0  0
  5 11  1  0  0  0  0
  5 27  1  0  0  0  0
  6  9  1  0  0  0  0
  6 10  1  0  0  0  0
  6 12  1  0  0  0  0
  6 28  1  0  0  0  0
  7  9  1  0  0  0  0
  7 29  1  0  0  0  0
  7 30  1  0  0  0  0
  8 10  1  0  0  0  0
  8 31  1  0  0  0  0
  8 32  1  0  0  0  0
  9 33  1  0  0  0  0
  9 34  1  0  0  0  0
 10 35  1  0  0  0  0
 10 36  1  0  0  0  0
 11 37  1  0  0  0  0
 11 38  1  0  0  0  0
 12 39  1  0  0  0  0
 12 40  1  0  0  0  0
 13 15  1  0  0  0  0
 13 41  1  0  0  0  0
 13 42  1  0  0  0  0
 14 16  1  0  0  0  0
 14 43  1  0  0  0  0
 14 44  1  0  0  0  0
 15 17  1  0  0  0  0
 15 45  1  0  0  0  0
 15 46  1  0  0  0  0
 16 17  1  0  0  0  0
 16 18  2  0  0  0  0
 17 19  2  0  0  0  0
 18 21  1  0  0  0  0
 18 48  1  0  0  0  0
 19 22  1  0  0  0  0
 19 49  1  0  0  0  0
 21 22  2  0  0  0  0
 21 50  1  0  0  0  0
 22 51  1  0  0  0  0
 23 24  1  0  0  0  0
 23 25  1  0  0  0  0
 23 26  1  0  0  0  0
 24 52  1  0  0  0  0
 24 53  1  0  0  0  0
 24 54  1  0  0  0  0
 25 55  1  0  0  0  0
 25 56  1  0  0  0  0
 25 57  1  0  0  0  0
 26 58  1  0  0  0  0
 26 59  1  0  0  0  0
 26 60  1  0  0  0  0
M  END
> <PUBCHEM_COMPOUND_CID>
72736380

> <PUBCHEM_COMPOUND_CANONICALIZED>
1

> <PUBCHEM_CACTVS_COMPLEXITY>
452

> <PUBCHEM_CACTVS_HBOND_ACCEPTOR>
3

> <PUBCHEM_CACTVS_HBOND_DONOR>
1

> <PUBCHEM_CACTVS_ROTATABLE_BOND>
6

> <PUBCHEM_CACTVS_SUBSKEYS>
AAADcfB7MAAAAAAAAAAAAAAAAAAAAAAAAAA8YIAAAAAAAACxAAAAHgAQAAAADUTBmAQyCIPABACIAiBCGACCAAAgAAAIiIAIBIkIICKAkRGMIAhglgCIiAcQgIAOgAAAAAAQAACAAAAAACAAAAAAAAAAAA==

> <PUBCHEM_IUPAC_OPENEYE_NAME>
tert-butyl N-[[4-(3,4-dihydro-1H-isoquinolin-2-ylmethyl)cyclohexyl]methyl]carbamate

> <PUBCHEM_IUPAC_CAS_NAME>
N-[[4-(3,4-dihydro-1H-isoquinolin-2-ylmethyl)cyclohexyl]methyl]carbamic acid tert-butyl ester

> <PUBCHEM_IUPAC_NAME_MARKUP>
<I>tert</I>-butyl <I>N</I>-[[4-(3,4-dihydro-1<I>H</I>-isoquinolin-2-ylmethyl)cyclohexyl]methyl]carbamate

> <PUBCHEM_IUPAC_NAME>
tert-butyl N-[[4-(3,4-dihydro-1H-isoquinolin-2-ylmethyl)cyclohexyl]methyl]carbamate

> <PUBCHEM_IUPAC_SYSTEMATIC_NAME>
tert-butyl N-[[4-(3,4-dihydro-1H-isoquinolin-2-ylmethyl)cyclohexyl]methyl]carbamate

> <PUBCHEM_IUPAC_TRADITIONAL_NAME>
N-[[4-(3,4-dihydro-1H-isoquinolin-2-ylmethyl)cyclohexyl]methyl]carbamic acid tert-butyl ester

> <PUBCHEM_IUPAC_INCHI>
InChI=1S/C22H34N2O2/c1-22(2,3)26-21(25)23-14-17-8-10-18(11-9-17)15-24-13-12-19-6-4-5-7-20(19)16-24/h4-7,17-18H,8-16H2,1-3H3,(H,23,25)

> <PUBCHEM_IUPAC_INCHIKEY>
FJLFQHMTMGDZCN-UHFFFAOYSA-N

> <PUBCHEM_XLOGP3_AA>
4.2

> <PUBCHEM_EXACT_MASS>
358.262028332

> <PUBCHEM_MOLECULAR_FORMULA>
C22H34N2O2

> <PUBCHEM_MOLECULAR_WEIGHT>
358.5

> <PUBCHEM_OPENEYE_CAN_SMILES>
CC(C)(C)OC(=O)NCC1CCC(CC1)CN2CCC3=CC=CC=C3C2

> <PUBCHEM_OPENEYE_ISO_SMILES>
CC(C)(C)OC(=O)NCC1CCC(CC1)CN2CCC3=CC=CC=C3C2

> <PUBCHEM_CACTVS_TPSA>
41.6

> <PUBCHEM_MONOISOTOPIC_WEIGHT>
358.262028332

> <PUBCHEM_TOTAL_CHARGE>
0

> <PUBCHEM_HEAVY_ATOM_COUNT>
26

> <PUBCHEM_ATOM_DEF_STEREO_COUNT>
0

> <PUBCHEM_ATOM_UDEF_STEREO_COUNT>
0

> <PUBCHEM_BOND_DEF_STEREO_COUNT>
0

> <PUBCHEM_BOND_UDEF_STEREO_COUNT>
0

> <PUBCHEM_ISOTOPIC_ATOM_COUNT>
0

> <PUBCHEM_COMPONENT_COUNT>
1

> <PUBCHEM_CACTVS_TAUTO_COUNT>
-1

> <PUBCHEM_COORDINATE_TYPE>
1
5
255

> <PUBCHEM_BONDANNOTATIONS>
16  17  8
16  18  8
17  19  8
18  21  8
19  22  8
21  22  8

$$$$
