10546828
  -OEChem-09292322142D

 50 53  0     0  0  0  0  0  0999 V2000
    9.9547    4.1973    0.0000 Cl  0  0  0  0  0  0  0  0  0  0  0  0
    4.5981   -1.3784    0.0000 N   0  0  0  0  0  0  0  0  0  0  0  0
    4.6913    2.4012    0.0000 N   0  0  0  0  0  0  0  0  0  0  0  0
    5.4345    3.0704    0.0000 N   0  0  0  0  0  0  0  0  0  0  0  0
    4.5981    0.6217    0.0000 C   0  0  0  0  0  0  0  0  0  0  0  0
    3.7320    0.1217    0.0000 C   0  0  0  0  0  0  0  0  0  0  0  0
    5.4641    0.1217    0.0000 C   0  0  0  0  0  0  0  0  0  0  0  0
    3.7320   -0.8783    0.0000 C   0  0  0  0  0  0  0  0  0  0  0  0
    5.4641   -0.8783    0.0000 C   0  0  0  0  0  0  0  0  0  0  0  0
    5.0981    1.4877    0.0000 C   0  0  0  0  0  0  0  0  0  0  0  0
    4.0981    1.4877    0.0000 C   0  0  0  0  0  0  0  0  0  0  0  0
    4.5981   -2.3784    0.0000 C   0  0  0  0  0  0  0  0  0  0  0  0
    6.0926    1.5922    0.0000 C   0  0  0  0  0  0  0  0  0  0  0  0
    3.7320   -2.8784    0.0000 C   0  0  0  0  0  0  0  0  0  0  0  0
    6.3005    2.5704    0.0000 C   0  0  0  0  0  0  0  0  0  0  0  0
    7.2141    2.9771    0.0000 C   0  0  0  0  0  0  0  0  0  0  0  0
    2.8660   -2.3784    0.0000 C   0  0  0  0  0  0  0  0  0  0  0  0
    3.7320   -3.8784    0.0000 C   0  0  0  0  0  0  0  0  0  0  0  0
    2.0000   -2.8784    0.0000 C   0  0  0  0  0  0  0  0  0  0  0  0
    2.8660   -4.3784    0.0000 C   0  0  0  0  0  0  0  0  0  0  0  0
    8.0231    2.3893    0.0000 C   0  0  0  0  0  0  0  0  0  0  0  0
    7.3186    3.9716    0.0000 C   0  0  0  0  0  0  0  0  0  0  0  0
    2.0000   -3.8784    0.0000 C   0  0  0  0  0  0  0  0  0  0  0  0
    8.9366    2.7960    0.0000 C   0  0  0  0  0  0  0  0  0  0  0  0
    8.2321    4.3784    0.0000 C   0  0  0  0  0  0  0  0  0  0  0  0
    9.0412    3.7906    0.0000 C   0  0  0  0  0  0  0  0  0  0  0  0
    3.5200    0.7043    0.0000 H   0  0  0  0  0  0  0  0  0  0  0  0
    3.1215    0.0140    0.0000 H   0  0  0  0  0  0  0  0  0  0  0  0
    6.0747    0.0140    0.0000 H   0  0  0  0  0  0  0  0  0  0  0  0
    5.6762    0.7043    0.0000 H   0  0  0  0  0  0  0  0  0  0  0  0
    3.1215   -0.7707    0.0000 H   0  0  0  0  0  0  0  0  0  0  0  0
    3.5200   -1.4610    0.0000 H   0  0  0  0  0  0  0  0  0  0  0  0
    5.6762   -1.4610    0.0000 H   0  0  0  0  0  0  0  0  0  0  0  0
    6.0747   -0.7707    0.0000 H   0  0  0  0  0  0  0  0  0  0  0  0
    4.6350    1.7977    0.0000 H   0  0  0  0  0  0  0  0  0  0  0  0
    3.7881    2.0246    0.0000 H   0  0  0  0  0  0  0  0  0  0  0  0
    3.5611    1.1777    0.0000 H   0  0  0  0  0  0  0  0  0  0  0  0
    4.8101   -2.9610    0.0000 H   0  0  0  0  0  0  0  0  0  0  0  0
    5.2087   -2.2707    0.0000 H   0  0  0  0  0  0  0  0  0  0  0  0
    6.5075    1.1315    0.0000 H   0  0  0  0  0  0  0  0  0  0  0  0
    4.0849    2.5301    0.0000 H   0  0  0  0  0  0  0  0  0  0  0  0
    2.8660   -1.7584    0.0000 H   0  0  0  0  0  0  0  0  0  0  0  0
    4.2690   -4.1884    0.0000 H   0  0  0  0  0  0  0  0  0  0  0  0
    1.4631   -2.5684    0.0000 H   0  0  0  0  0  0  0  0  0  0  0  0
    2.8660   -4.9984    0.0000 H   0  0  0  0  0  0  0  0  0  0  0  0
    7.9583    1.7727    0.0000 H   0  0  0  0  0  0  0  0  0  0  0  0
    6.8170    4.3360    0.0000 H   0  0  0  0  0  0  0  0  0  0  0  0
    1.4631   -4.1884    0.0000 H   0  0  0  0  0  0  0  0  0  0  0  0
    9.4382    2.4316    0.0000 H   0  0  0  0  0  0  0  0  0  0  0  0
    8.2969    4.9950    0.0000 H   0  0  0  0  0  0  0  0  0  0  0  0
  1 26  1  0  0  0  0
  2  8  1  0  0  0  0
  2  9  1  0  0  0  0
  2 12  1  0  0  0  0
  3  4  1  0  0  0  0
  3 10  1  0  0  0  0
  3 41  1  0  0  0  0
  4 15  2  0  0  0  0
  5  6  1  0  0  0  0
  5  7  1  0  0  0  0
  5 10  1  0  0  0  0
  5 11  1  0  0  0  0
  6  8  1  0  0  0  0
  6 27  1  0  0  0  0
  6 28  1  0  0  0  0
  7  9  1  0  0  0  0
  7 29  1  0  0  0  0
  7 30  1  0  0  0  0
  8 31  1  0  0  0  0
  8 32  1  0  0  0  0
  9 33  1  0  0  0  0
  9 34  1  0  0  0  0
 10 13  2  0  0  0  0
 11 35  1  0  0  0  0
 11 36  1  0  0  0  0
 11 37  1  0  0  0  0
 12 14  1  0  0  0  0
 12 38  1  0  0  0  0
 12 39  1  0  0  0  0
 13 15  1  0  0  0  0
 13 40  1  0  0  0  0
 14 17  2  0  0  0  0
 14 18  1  0  0  0  0
 15 16  1  0  0  0  0
 16 21  2  0  0  0  0
 16 22  1  0  0  0  0
 17 19  1  0  0  0  0
 17 42  1  0  0  0  0
 18 20  2  0  0  0  0
 18 43  1  0  0  0  0
 19 23  2  0  0  0  0
 19 44  1  0  0  0  0
 20 23  1  0  0  0  0
 20 45  1  0  0  0  0
 21 24  1  0  0  0  0
 21 46  1  0  0  0  0
 22 25  2  0  0  0  0
 22 47  1  0  0  0  0
 23 48  1  0  0  0  0
 24 26  2  0  0  0  0
 24 49  1  0  0  0  0
 25 26  1  0  0  0  0
 25 50  1  0  0  0  0
M  END
> <PUBCHEM_COMPOUND_CID>
10546828

> <PUBCHEM_COMPOUND_CANONICALIZED>
1

> <PUBCHEM_CACTVS_COMPLEXITY>
435

> <PUBCHEM_CACTVS_HBOND_ACCEPTOR>
2

> <PUBCHEM_CACTVS_HBOND_DONOR>
1

> <PUBCHEM_CACTVS_ROTATABLE_BOND>
4

> <PUBCHEM_CACTVS_SUBSKEYS>
AAADceB7AAAEAAAAAAAAAAAAAAAAAWAAAAA8YIAAAAAAAAAB0AAAHAIYAAAADgrBHiQygJNjAACiAyRiQACSBAAgBwAYuSA4ZpgIIKKB09GEpAhgmACIyAcQgMAPBAAAAAAAAAAIAAAAAAAAAAAAAAAAAA==

> <PUBCHEM_IUPAC_OPENEYE_NAME>
1-benzyl-4-[3-(4-chlorophenyl)-1H-pyrazol-5-yl]-4-methyl-piperidine

> <PUBCHEM_IUPAC_CAS_NAME>
4-[3-(4-chlorophenyl)-1H-pyrazol-5-yl]-4-methyl-1-(phenylmethyl)piperidine

> <PUBCHEM_IUPAC_NAME_MARKUP>
1-benzyl-4-[3-(4-chlorophenyl)-1<I>H</I>-pyrazol-5-yl]-4-methylpiperidine

> <PUBCHEM_IUPAC_NAME>
1-benzyl-4-[3-(4-chlorophenyl)-1H-pyrazol-5-yl]-4-methylpiperidine

> <PUBCHEM_IUPAC_SYSTEMATIC_NAME>
4-[3-(4-chlorophenyl)-1H-pyrazol-5-yl]-4-methyl-1-(phenylmethyl)piperidine

> <PUBCHEM_IUPAC_TRADITIONAL_NAME>
1-benzyl-4-[3-(4-chlorophenyl)-1H-pyrazol-5-yl]-4-methyl-piperidine

> <PUBCHEM_IUPAC_INCHI>
InChI=1S/C22H24ClN3/c1-22(11-13-26(14-12-22)16-17-5-3-2-4-6-17)21-15-20(24-25-21)18-7-9-19(23)10-8-18/h2-10,15H,11-14,16H2,1H3,(H,24,25)

> <PUBCHEM_IUPAC_INCHIKEY>
UOIRCOOXVJGCIE-UHFFFAOYSA-N

> <PUBCHEM_XLOGP3_AA>
5.2

> <PUBCHEM_EXACT_MASS>
365.1658755

> <PUBCHEM_MOLECULAR_FORMULA>
C22H24ClN3

> <PUBCHEM_MOLECULAR_WEIGHT>
365.9

> <PUBCHEM_OPENEYE_CAN_SMILES>
CC1(CCN(CC1)CC2=CC=CC=C2)C3=CC(=NN3)C4=CC=C(C=C4)Cl

> <PUBCHEM_OPENEYE_ISO_SMILES>
CC1(CCN(CC1)CC2=CC=CC=C2)C3=CC(=NN3)C4=CC=C(C=C4)Cl

> <PUBCHEM_CACTVS_TPSA>
31.9

> <PUBCHEM_MONOISOTOPIC_WEIGHT>
365.1658755

> <PUBCHEM_TOTAL_CHARGE>
0

> <PUBCHEM_HEAVY_ATOM_COUNT>
26

> <PUBCHEM_ATOM_DEF_STEREO_COUNT>
0

> <PUBCHEM_ATOM_UDEF_STEREO_COUNT>
0

> <PUBCHEM_BOND_DEF_STEREO_COUNT>
0

> <PUBCHEM_BOND_UDEF_STEREO_COUNT>
0

> <PUBCHEM_ISOTOPIC_ATOM_COUNT>
0

> <PUBCHEM_COMPONENT_COUNT>
1

> <PUBCHEM_CACTVS_TAUTO_COUNT>
-1

> <PUBCHEM_COORDINATE_TYPE>
1
5
255

> <PUBCHEM_BONDANNOTATIONS>
10  13  8
13  15  8
14  17  8
14  18  8
16  21  8
16  22  8
17  19  8
18  20  8
19  23  8
20  23  8
21  24  8
22  25  8
24  26  8
25  26  8
3  10  8
3  4  8
4  15  8

$$$$
