11644613
  -OEChem-09292322492D

 36 40  0     1  0  0  0  0  0999 V2000
    6.7226    0.4924    0.0000 N   0  0  3  0  0  0  0  0  0  0  0  0
    4.0443    0.1876    0.0000 N   0  0  0  0  0  0  0  0  0  0  0  0
    5.8565   -0.0076    0.0000 C   0  0  3  0  0  0  0  0  0  0  0  0
    4.9905    0.4924    0.0000 C   0  0  0  0  0  0  0  0  0  0  0  0
    6.7226    1.4924    0.0000 C   0  0  0  0  0  0  0  0  0  0  0  0
    7.4596   -0.1747    0.0000 C   0  0  0  0  0  0  0  0  0  0  0  0
    4.9905    1.4924    0.0000 C   0  0  0  0  0  0  0  0  0  0  0  0
    6.0657   -0.9794    0.0000 C   0  0  0  0  0  0  0  0  0  0  0  0
    5.8565    1.9924    0.0000 C   0  0  0  0  0  0  0  0  0  0  0  0
    7.0544   -1.0825    0.0000 C   0  0  0  0  0  0  0  0  0  0  0  0
    4.0443    1.7971    0.0000 C   0  0  0  0  0  0  0  0  0  0  0  0
    3.4607    0.9924    0.0000 C   0  0  0  0  0  0  0  0  0  0  0  0
    5.4450   -1.8082    0.0000 C   0  0  0  0  0  0  0  0  0  0  0  0
    7.4910   -2.0215    0.0000 C   0  0  0  0  0  0  0  0  0  0  0  0
    3.6369    2.7491    0.0000 C   0  0  0  0  0  0  0  0  0  0  0  0
    2.4293    1.0838    0.0000 C   0  0  0  0  0  0  0  0  0  0  0  0
    5.8596   -2.7570    0.0000 C   0  0  0  0  0  0  0  0  0  0  0  0
    6.8895   -2.8644    0.0000 C   0  0  0  0  0  0  0  0  0  0  0  0
    2.6079    2.8644    0.0000 C   0  0  0  0  0  0  0  0  0  0  0  0
    2.0000    2.0261    0.0000 C   0  0  0  0  0  0  0  0  0  0  0  0
    5.3554   -0.3727    0.0000 H   0  0  0  0  0  0  0  0  0  0  0  0
    7.3331    1.3847    0.0000 H   0  0  0  0  0  0  0  0  0  0  0  0
    6.9346    2.0750    0.0000 H   0  0  0  0  0  0  0  0  0  0  0  0
    7.9961   -0.4855    0.0000 H   0  0  0  0  0  0  0  0  0  0  0  0
    7.8250    0.3261    0.0000 H   0  0  0  0  0  0  0  0  0  0  0  0
    6.2551    2.4673    0.0000 H   0  0  0  0  0  0  0  0  0  0  0  0
    5.4580    2.4673    0.0000 H   0  0  0  0  0  0  0  0  0  0  0  0
    3.8517   -0.4017    0.0000 H   0  0  0  0  0  0  0  0  0  0  0  0
    4.8291   -1.7368    0.0000 H   0  0  0  0  0  0  0  0  0  0  0  0
    8.1083   -2.0786    0.0000 H   0  0  0  0  0  0  0  0  0  0  0  0
    4.0067    3.2467    0.0000 H   0  0  0  0  0  0  0  0  0  0  0  0
    2.0711    0.5777    0.0000 H   0  0  0  0  0  0  0  0  0  0  0  0
    5.4937   -3.2575    0.0000 H   0  0  0  0  0  0  0  0  0  0  0  0
    7.1444   -3.4296    0.0000 H   0  0  0  0  0  0  0  0  0  0  0  0
    2.3574    3.4315    0.0000 H   0  0  0  0  0  0  0  0  0  0  0  0
    1.3831    2.0880    0.0000 H   0  0  0  0  0  0  0  0  0  0  0  0
  1  3  1  0  0  0  0
  1  5  1  0  0  0  0
  1  6  1  0  0  0  0
  2  4  1  0  0  0  0
  2 12  1  0  0  0  0
  2 28  1  0  0  0  0
  3  4  1  0  0  0  0
  3  8  1  0  0  0  0
  3 21  1  0  0  0  0
  4  7  2  0  0  0  0
  5  9  1  0  0  0  0
  5 22  1  0  0  0  0
  5 23  1  0  0  0  0
  6 10  1  0  0  0  0
  6 24  1  0  0  0  0
  6 25  1  0  0  0  0
  7  9  1  0  0  0  0
  7 11  1  0  0  0  0
  8 10  1  0  0  0  0
  8 13  2  0  0  0  0
  9 26  1  0  0  0  0
  9 27  1  0  0  0  0
 10 14  2  0  0  0  0
 11 12  1  0  0  0  0
 11 15  2  0  0  0  0
 12 16  2  0  0  0  0
 13 17  1  0  0  0  0
 13 29  1  0  0  0  0
 14 18  1  0  0  0  0
 14 30  1  0  0  0  0
 15 19  1  0  0  0  0
 15 31  1  0  0  0  0
 16 20  1  0  0  0  0
 16 32  1  0  0  0  0
 17 18  2  0  0  0  0
 17 33  1  0  0  0  0
 18 34  1  0  0  0  0
 19 20  2  0  0  0  0
 19 35  1  0  0  0  0
 20 36  1  0  0  0  0
M  END
> <PUBCHEM_COMPOUND_CID>
11644613

> <PUBCHEM_COMPOUND_CANONICALIZED>
1

> <PUBCHEM_CACTVS_COMPLEXITY>
382

> <PUBCHEM_CACTVS_HBOND_ACCEPTOR>
1

> <PUBCHEM_CACTVS_HBOND_DONOR>
1

> <PUBCHEM_CACTVS_ROTATABLE_BOND>
0

> <PUBCHEM_CACTVS_SUBSKEYS>
AAADceB7AAAAAAAAAAAAAAAAAAAAAWLAAAA8YIAAAAAAAFgB9AAAHAAQAAAADCjBHgQwwPPJkACgAyRiRACCgCAhAiAImSA4ZJgIYOLAkZGUIAhgkADIyAcQgMAOgAAAAAASAAAAAAAAACQAAAAAAAAAAA==

> <PUBCHEM_IUPAC_OPENEYE_NAME>
10,20-diazapentacyclo[11.7.0.02,10.03,8.014,19]icosa-1(13),3,5,7,14,16,18-heptaene

> <PUBCHEM_IUPAC_CAS_NAME>
10,20-diazapentacyclo[11.7.0.02,10.03,8.014,19]eicosa-1(13),3,5,7,14,16,18-heptaene

> <PUBCHEM_IUPAC_NAME_MARKUP>
10,20-diazapentacyclo[11.7.0.0<SUP>2,10</SUP>.0<SUP>3,8</SUP>.0<SUP>14,19</SUP>]icosa-1(13),3,5,7,14,16,18-heptaene

> <PUBCHEM_IUPAC_NAME>
10,20-diazapentacyclo[11.7.0.02,10.03,8.014,19]icosa-1(13),3,5,7,14,16,18-heptaene

> <PUBCHEM_IUPAC_SYSTEMATIC_NAME>
10,20-diazapentacyclo[11.7.0.02,10.03,8.014,19]icosa-1(13),3,5,7,14,16,18-heptaene

> <PUBCHEM_IUPAC_TRADITIONAL_NAME>
7,8,13,13b-tetrahydro-5H-isoindolo[1,2-a]beta-carboline

> <PUBCHEM_IUPAC_INCHI>
InChI=1S/C18H16N2/c1-2-6-13-12(5-1)11-20-10-9-15-14-7-3-4-8-16(14)19-17(15)18(13)20/h1-8,18-19H,9-11H2

> <PUBCHEM_IUPAC_INCHIKEY>
JVHLWTOVJFEQIQ-UHFFFAOYSA-N

> <PUBCHEM_XLOGP3_AA>
3.2

> <PUBCHEM_EXACT_MASS>
260.131348519

> <PUBCHEM_MOLECULAR_FORMULA>
C18H16N2

> <PUBCHEM_MOLECULAR_WEIGHT>
260.3

> <PUBCHEM_OPENEYE_CAN_SMILES>
C1CN2CC3=CC=CC=C3C2C4=C1C5=CC=CC=C5N4

> <PUBCHEM_OPENEYE_ISO_SMILES>
C1CN2CC3=CC=CC=C3C2C4=C1C5=CC=CC=C5N4

> <PUBCHEM_CACTVS_TPSA>
19

> <PUBCHEM_MONOISOTOPIC_WEIGHT>
260.131348519

> <PUBCHEM_TOTAL_CHARGE>
0

> <PUBCHEM_HEAVY_ATOM_COUNT>
20

> <PUBCHEM_ATOM_DEF_STEREO_COUNT>
0

> <PUBCHEM_ATOM_UDEF_STEREO_COUNT>
1

> <PUBCHEM_BOND_DEF_STEREO_COUNT>
0

> <PUBCHEM_BOND_UDEF_STEREO_COUNT>
0

> <PUBCHEM_ISOTOPIC_ATOM_COUNT>
0

> <PUBCHEM_COMPONENT_COUNT>
1

> <PUBCHEM_CACTVS_TAUTO_COUNT>
-1

> <PUBCHEM_COORDINATE_TYPE>
1
5
255

> <PUBCHEM_BONDANNOTATIONS>
10  14  8
11  12  8
11  15  8
12  16  8
13  17  8
14  18  8
15  19  8
16  20  8
17  18  8
19  20  8
2  12  8
2  4  8
3  8  3
4  7  8
7  11  8
8  10  8
8  13  8

$$$$
