11668565
  -OEChem-09292322302D

 59 62  0     0  0  0  0  0  0999 V2000
    4.5981    2.0600    0.0000 F   0  0  0  0  0  0  0  0  0  0  0  0
    6.3301   -0.9400    0.0000 N   0  0  0  0  0  0  0  0  0  0  0  0
    4.5981    0.0600    0.0000 N   0  0  0  0  0  0  0  0  0  0  0  0
   10.6603   -1.4400    0.0000 N   0  0  0  0  0  0  0  0  0  0  0  0
   12.3923   -1.4400    0.0000 N   0  0  0  0  0  0  0  0  0  0  0  0
    6.3301    0.0600    0.0000 C   0  0  0  0  0  0  0  0  0  0  0  0
    5.4641   -1.4400    0.0000 C   0  0  0  0  0  0  0  0  0  0  0  0
    5.4641    0.5600    0.0000 C   0  0  0  0  0  0  0  0  0  0  0  0
    4.5981   -0.9400    0.0000 C   0  0  0  0  0  0  0  0  0  0  0  0
    7.1962   -1.4400    0.0000 C   0  0  0  0  0  0  0  0  0  0  0  0
    8.0622   -0.9400    0.0000 C   0  0  0  0  0  0  0  0  0  0  0  0
    8.9282   -1.4400    0.0000 C   0  0  0  0  0  0  0  0  0  0  0  0
    3.7320    0.5600    0.0000 C   0  0  0  0  0  0  0  0  0  0  0  0
    9.7942   -0.9400    0.0000 C   0  0  0  0  0  0  0  0  0  0  0  0
    3.7320    1.5600    0.0000 C   0  0  0  0  0  0  0  0  0  0  0  0
    2.8660    0.0600    0.0000 C   0  0  0  0  0  0  0  0  0  0  0  0
    2.8660    2.0600    0.0000 C   0  0  0  0  0  0  0  0  0  0  0  0
    2.0000    0.5600    0.0000 C   0  0  0  0  0  0  0  0  0  0  0  0
    2.0000    1.5600    0.0000 C   0  0  0  0  0  0  0  0  0  0  0  0
   11.5263   -0.9400    0.0000 C   0  0  0  0  0  0  0  0  0  0  0  0
   11.5263    0.0600    0.0000 C   0  0  0  0  0  0  0  0  0  0  0  0
   13.2583    0.0600    0.0000 C   0  0  0  0  0  0  0  0  0  0  0  0
   12.3923    0.5600    0.0000 C   0  0  0  0  0  0  0  0  0  0  0  0
   13.2583   -0.9400    0.0000 C   0  0  0  0  0  0  0  0  0  0  0  0
   14.1244    0.5600    0.0000 C   0  0  0  0  0  0  0  0  0  0  0  0
   14.1244    1.5600    0.0000 C   0  0  0  0  0  0  0  0  0  0  0  0
   14.9904    0.0600    0.0000 C   0  0  0  0  0  0  0  0  0  0  0  0
   14.9904    2.0600    0.0000 C   0  0  0  0  0  0  0  0  0  0  0  0
   15.8564    0.5600    0.0000 C   0  0  0  0  0  0  0  0  0  0  0  0
   15.8564    1.5600    0.0000 C   0  0  0  0  0  0  0  0  0  0  0  0
    6.9407   -0.0477    0.0000 H   0  0  0  0  0  0  0  0  0  0  0  0
    6.5422    0.6426    0.0000 H   0  0  0  0  0  0  0  0  0  0  0  0
    5.0656   -1.9150    0.0000 H   0  0  0  0  0  0  0  0  0  0  0  0
    5.8626   -1.9150    0.0000 H   0  0  0  0  0  0  0  0  0  0  0  0
    5.8626    1.0350    0.0000 H   0  0  0  0  0  0  0  0  0  0  0  0
    5.0656    1.0350    0.0000 H   0  0  0  0  0  0  0  0  0  0  0  0
    3.9875   -0.8323    0.0000 H   0  0  0  0  0  0  0  0  0  0  0  0
    4.3860   -1.5226    0.0000 H   0  0  0  0  0  0  0  0  0  0  0  0
    6.7976   -1.9150    0.0000 H   0  0  0  0  0  0  0  0  0  0  0  0
    7.5947   -1.9150    0.0000 H   0  0  0  0  0  0  0  0  0  0  0  0
    8.4607   -0.4651    0.0000 H   0  0  0  0  0  0  0  0  0  0  0  0
    7.6636   -0.4651    0.0000 H   0  0  0  0  0  0  0  0  0  0  0  0
    8.5297   -1.9150    0.0000 H   0  0  0  0  0  0  0  0  0  0  0  0
    9.3267   -1.9150    0.0000 H   0  0  0  0  0  0  0  0  0  0  0  0
   10.1928   -0.4651    0.0000 H   0  0  0  0  0  0  0  0  0  0  0  0
    9.3957   -0.4651    0.0000 H   0  0  0  0  0  0  0  0  0  0  0  0
    2.8660   -0.5600    0.0000 H   0  0  0  0  0  0  0  0  0  0  0  0
   10.6603   -2.0600    0.0000 H   0  0  0  0  0  0  0  0  0  0  0  0
    2.8660    2.6800    0.0000 H   0  0  0  0  0  0  0  0  0  0  0  0
    1.4631    0.2500    0.0000 H   0  0  0  0  0  0  0  0  0  0  0  0
    1.4631    1.8700    0.0000 H   0  0  0  0  0  0  0  0  0  0  0  0
   10.9893    0.3700    0.0000 H   0  0  0  0  0  0  0  0  0  0  0  0
   12.3923    1.1800    0.0000 H   0  0  0  0  0  0  0  0  0  0  0  0
   13.7953   -1.2500    0.0000 H   0  0  0  0  0  0  0  0  0  0  0  0
   13.5874    1.8700    0.0000 H   0  0  0  0  0  0  0  0  0  0  0  0
   14.9904   -0.5600    0.0000 H   0  0  0  0  0  0  0  0  0  0  0  0
   14.9904    2.6800    0.0000 H   0  0  0  0  0  0  0  0  0  0  0  0
   16.3933    0.2500    0.0000 H   0  0  0  0  0  0  0  0  0  0  0  0
   16.3933    1.8700    0.0000 H   0  0  0  0  0  0  0  0  0  0  0  0
  1 15  1  0  0  0  0
  2  6  1  0  0  0  0
  2  7  1  0  0  0  0
  2 10  1  0  0  0  0
  3  8  1  0  0  0  0
  3  9  1  0  0  0  0
  3 13  1  0  0  0  0
  4 14  1  0  0  0  0
  4 20  1  0  0  0  0
  4 48  1  0  0  0  0
  5 20  2  0  0  0  0
  5 24  1  0  0  0  0
  6  8  1  0  0  0  0
  6 31  1  0  0  0  0
  6 32  1  0  0  0  0
  7  9  1  0  0  0  0
  7 33  1  0  0  0  0
  7 34  1  0  0  0  0
  8 35  1  0  0  0  0
  8 36  1  0  0  0  0
  9 37  1  0  0  0  0
  9 38  1  0  0  0  0
 10 11  1  0  0  0  0
 10 39  1  0  0  0  0
 10 40  1  0  0  0  0
 11 12  1  0  0  0  0
 11 41  1  0  0  0  0
 11 42  1  0  0  0  0
 12 14  1  0  0  0  0
 12 43  1  0  0  0  0
 12 44  1  0  0  0  0
 13 15  1  0  0  0  0
 13 16  2  0  0  0  0
 14 45  1  0  0  0  0
 14 46  1  0  0  0  0
 15 17  2  0  0  0  0
 16 18  1  0  0  0  0
 16 47  1  0  0  0  0
 17 19  1  0  0  0  0
 17 49  1  0  0  0  0
 18 19  2  0  0  0  0
 18 50  1  0  0  0  0
 19 51  1  0  0  0  0
 20 21  1  0  0  0  0
 21 23  2  0  0  0  0
 21 52  1  0  0  0  0
 22 23  1  0  0  0  0
 22 24  2  0  0  0  0
 22 25  1  0  0  0  0
 23 53  1  0  0  0  0
 24 54  1  0  0  0  0
 25 26  2  0  0  0  0
 25 27  1  0  0  0  0
 26 28  1  0  0  0  0
 26 55  1  0  0  0  0
 27 29  2  0  0  0  0
 27 56  1  0  0  0  0
 28 30  2  0  0  0  0
 28 57  1  0  0  0  0
 29 30  1  0  0  0  0
 29 58  1  0  0  0  0
 30 59  1  0  0  0  0
M  END
> <PUBCHEM_COMPOUND_CID>
11668565

> <PUBCHEM_COMPOUND_CANONICALIZED>
1

> <PUBCHEM_CACTVS_COMPLEXITY>
476

> <PUBCHEM_CACTVS_HBOND_ACCEPTOR>
5

> <PUBCHEM_CACTVS_HBOND_DONOR>
1

> <PUBCHEM_CACTVS_ROTATABLE_BOND>
8

> <PUBCHEM_CACTVS_SUBSKEYS>
AAADceB7gQAAAAAAAAAAAAAAAAAAAAAAAAA8eIEAAAAAAAAB0AAAHQAQAAAADAjBGgw98JPIEACgAjZnZACCgCkxAiAJ2KA4ZJiIYOLAmZGUIAhokALIyCcQgMAOgAAAAAAAAAAAAAAAAAAAAAAAAAAAAA==

> <PUBCHEM_IUPAC_OPENEYE_NAME>
N-[4-[4-(2-fluorophenyl)piperazin-1-yl]butyl]-5-phenyl-pyridin-2-amine

> <PUBCHEM_IUPAC_CAS_NAME>
N-[4-[4-(2-fluorophenyl)-1-piperazinyl]butyl]-5-phenyl-2-pyridinamine

> <PUBCHEM_IUPAC_NAME_MARKUP>
<I>N</I>-[4-[4-(2-fluorophenyl)piperazin-1-yl]butyl]-5-phenylpyridin-2-amine

> <PUBCHEM_IUPAC_NAME>
N-[4-[4-(2-fluorophenyl)piperazin-1-yl]butyl]-5-phenylpyridin-2-amine

> <PUBCHEM_IUPAC_SYSTEMATIC_NAME>
N-[4-[4-(2-fluorophenyl)piperazin-1-yl]butyl]-5-phenyl-pyridin-2-amine

> <PUBCHEM_IUPAC_TRADITIONAL_NAME>
4-[4-(2-fluorophenyl)piperazino]butyl-(5-phenyl-2-pyridyl)amine

> <PUBCHEM_IUPAC_INCHI>
InChI=1S/C25H29FN4/c26-23-10-4-5-11-24(23)30-18-16-29(17-19-30)15-7-6-14-27-25-13-12-22(20-28-25)21-8-2-1-3-9-21/h1-5,8-13,20H,6-7,14-19H2,(H,27,28)

> <PUBCHEM_IUPAC_INCHIKEY>
AUOXZICNYGBVPT-UHFFFAOYSA-N

> <PUBCHEM_XLOGP3_AA>
5.2

> <PUBCHEM_EXACT_MASS>
404.23762510

> <PUBCHEM_MOLECULAR_FORMULA>
C25H29FN4

> <PUBCHEM_MOLECULAR_WEIGHT>
404.5

> <PUBCHEM_OPENEYE_CAN_SMILES>
C1CN(CCN1CCCCNC2=NC=C(C=C2)C3=CC=CC=C3)C4=CC=CC=C4F

> <PUBCHEM_OPENEYE_ISO_SMILES>
C1CN(CCN1CCCCNC2=NC=C(C=C2)C3=CC=CC=C3)C4=CC=CC=C4F

> <PUBCHEM_CACTVS_TPSA>
31.4

> <PUBCHEM_MONOISOTOPIC_WEIGHT>
404.23762510

> <PUBCHEM_TOTAL_CHARGE>
0

> <PUBCHEM_HEAVY_ATOM_COUNT>
30

> <PUBCHEM_ATOM_DEF_STEREO_COUNT>
0

> <PUBCHEM_ATOM_UDEF_STEREO_COUNT>
0

> <PUBCHEM_BOND_DEF_STEREO_COUNT>
0

> <PUBCHEM_BOND_UDEF_STEREO_COUNT>
0

> <PUBCHEM_ISOTOPIC_ATOM_COUNT>
0

> <PUBCHEM_COMPONENT_COUNT>
1

> <PUBCHEM_CACTVS_TAUTO_COUNT>
-1

> <PUBCHEM_COORDINATE_TYPE>
1
5
255

> <PUBCHEM_BONDANNOTATIONS>
13  15  8
13  16  8
15  17  8
16  18  8
17  19  8
18  19  8
20  21  8
21  23  8
22  23  8
22  24  8
25  26  8
25  27  8
26  28  8
27  29  8
28  30  8
29  30  8
5  20  8
5  24  8

$$$$
