162674561
  -OEChem-09292322422D

 50 53  0     1  0  0  0  0  0999 V2000
   10.5884    0.8894    0.0000 S   0  0  0  0  0  0  0  0  0  0  0  0
   13.8285    3.2350    0.0000 F   0  0  0  0  0  0  0  0  0  0  0  0
   11.1747    0.0794    0.0000 O   0  0  0  0  0  0  0  0  0  0  0  0
   10.0020    1.6994    0.0000 O   0  0  0  0  0  0  0  0  0  0  0  0
    4.6783   -3.0397    0.0000 O   0  0  0  0  0  0  0  0  0  0  0  0
    7.2566    0.8833    0.0000 N   0  0  3  0  0  0  0  0  0  0  0  0
    9.7783    0.3030    0.0000 N   0  0  0  0  0  0  0  0  0  0  0  0
    5.2619   -2.2350    0.0000 N   0  0  0  0  0  0  0  0  0  0  0  0
    8.8655    0.7113    0.0000 C   0  0  2  0  0  0  0  0  0  0  0  0
    7.9986    0.2128    0.0000 C   0  0  0  0  0  0  0  0  0  0  0  0
    8.6593    1.6898    0.0000 C   0  0  0  0  0  0  0  0  0  0  0  0
    7.6649    1.7961    0.0000 C   0  0  0  0  0  0  0  0  0  0  0  0
    6.2781    0.6770    0.0000 C   0  0  0  0  0  0  0  0  0  0  0  0
    5.9674   -0.2735    0.0000 C   0  0  0  0  0  0  0  0  0  0  0  0
    4.9889   -0.4797    0.0000 C   0  0  0  0  0  0  0  0  0  0  0  0
   11.3984    1.4758    0.0000 C   0  0  0  0  0  0  0  0  0  0  0  0
    4.6783   -1.4302    0.0000 C   0  0  0  0  0  0  0  0  0  0  0  0
    3.7320   -1.7350    0.0000 C   0  0  0  0  0  0  0  0  0  0  0  0
   11.2956    2.4705    0.0000 C   0  0  0  0  0  0  0  0  0  0  0  0
   12.3112    1.0675    0.0000 C   0  0  0  0  0  0  0  0  0  0  0  0
    3.7320   -2.7350    0.0000 C   0  0  0  0  0  0  0  0  0  0  0  0
    2.8660   -1.2350    0.0000 C   0  0  0  0  0  0  0  0  0  0  0  0
   12.1056    3.0569    0.0000 C   0  0  0  0  0  0  0  0  0  0  0  0
   13.1213    1.6539    0.0000 C   0  0  0  0  0  0  0  0  0  0  0  0
    2.8660   -3.2350    0.0000 C   0  0  0  0  0  0  0  0  0  0  0  0
   13.0185    2.6486    0.0000 C   0  0  0  0  0  0  0  0  0  0  0  0
    2.0000   -1.7350    0.0000 C   0  0  0  0  0  0  0  0  0  0  0  0
    2.0000   -2.7350    0.0000 C   0  0  0  0  0  0  0  0  0  0  0  0
    9.3480    1.1007    0.0000 H   0  0  0  0  0  0  0  0  0  0  0  0
    7.5371   -0.2012    0.0000 H   0  0  0  0  0  0  0  0  0  0  0  0
    8.3622   -0.2894    0.0000 H   0  0  0  0  0  0  0  0  0  0  0  0
    9.2760    1.7536    0.0000 H   0  0  0  0  0  0  0  0  0  0  0  0
    8.6603    2.3098    0.0000 H   0  0  0  0  0  0  0  0  0  0  0  0
    7.7949    2.4023    0.0000 H   0  0  0  0  0  0  0  0  0  0  0  0
    7.0756    1.9887    0.0000 H   0  0  0  0  0  0  0  0  0  0  0  0
    6.2575    1.2967    0.0000 H   0  0  0  0  0  0  0  0  0  0  0  0
    5.6643    0.7644    0.0000 H   0  0  0  0  0  0  0  0  0  0  0  0
    9.8421   -0.3137    0.0000 H   0  0  0  0  0  0  0  0  0  0  0  0
    5.9880   -0.8931    0.0000 H   0  0  0  0  0  0  0  0  0  0  0  0
    6.5812   -0.3608    0.0000 H   0  0  0  0  0  0  0  0  0  0  0  0
    4.9684    0.1400    0.0000 H   0  0  0  0  0  0  0  0  0  0  0  0
    4.3751   -0.3923    0.0000 H   0  0  0  0  0  0  0  0  0  0  0  0
   10.7296    2.7236    0.0000 H   0  0  0  0  0  0  0  0  0  0  0  0
   12.3750    0.4508    0.0000 H   0  0  0  0  0  0  0  0  0  0  0  0
    2.8660   -0.6150    0.0000 H   0  0  0  0  0  0  0  0  0  0  0  0
   12.0419    3.6736    0.0000 H   0  0  0  0  0  0  0  0  0  0  0  0
   13.6872    1.4007    0.0000 H   0  0  0  0  0  0  0  0  0  0  0  0
    2.8660   -3.8550    0.0000 H   0  0  0  0  0  0  0  0  0  0  0  0
    1.4631   -1.4250    0.0000 H   0  0  0  0  0  0  0  0  0  0  0  0
    1.4631   -3.0450    0.0000 H   0  0  0  0  0  0  0  0  0  0  0  0
  1  3  2  0  0  0  0
  1  4  2  0  0  0  0
  1  7  1  0  0  0  0
  1 16  1  0  0  0  0
  2 26  1  0  0  0  0
  5  8  1  0  0  0  0
  5 21  1  0  0  0  0
  6 10  1  0  0  0  0
  6 12  1  0  0  0  0
  6 13  1  0  0  0  0
  9  7  1  6  0  0  0
  7 38  1  0  0  0  0
  8 17  2  0  0  0  0
  9 10  1  0  0  0  0
  9 11  1  0  0  0  0
  9 29  1  0  0  0  0
 10 30  1  0  0  0  0
 10 31  1  0  0  0  0
 11 12  1  0  0  0  0
 11 32  1  0  0  0  0
 11 33  1  0  0  0  0
 12 34  1  0  0  0  0
 12 35  1  0  0  0  0
 13 14  1  0  0  0  0
 13 36  1  0  0  0  0
 13 37  1  0  0  0  0
 14 15  1  0  0  0  0
 14 39  1  0  0  0  0
 14 40  1  0  0  0  0
 15 17  1  0  0  0  0
 15 41  1  0  0  0  0
 15 42  1  0  0  0  0
 16 19  2  0  0  0  0
 16 20  1  0  0  0  0
 17 18  1  0  0  0  0
 18 21  1  0  0  0  0
 18 22  2  0  0  0  0
 19 23  1  0  0  0  0
 19 43  1  0  0  0  0
 20 24  2  0  0  0  0
 20 44  1  0  0  0  0
 21 25  2  0  0  0  0
 22 27  1  0  0  0  0
 22 45  1  0  0  0  0
 23 26  2  0  0  0  0
 23 46  1  0  0  0  0
 24 26  1  0  0  0  0
 24 47  1  0  0  0  0
 25 28  1  0  0  0  0
 25 48  1  0  0  0  0
 27 28  2  0  0  0  0
 27 49  1  0  0  0  0
 28 50  1  0  0  0  0
M  END
> <PUBCHEM_COMPOUND_CID>
162674561

> <PUBCHEM_COMPOUND_CANONICALIZED>
1

> <PUBCHEM_CACTVS_COMPLEXITY>
606

> <PUBCHEM_CACTVS_HBOND_ACCEPTOR>
7

> <PUBCHEM_CACTVS_HBOND_DONOR>
1

> <PUBCHEM_CACTVS_ROTATABLE_BOND>
7

> <PUBCHEM_CACTVS_SUBSKEYS>
AAADceB7MQBAAAAAAAAAAAAAAAAAAWLAAAAwYAAAAAAAAFgB9AAAHwQUQAAADCzB3gwwh9NQAAKpA6RyQnDCABAkIAAomLk+TNoIZrqA1ZOUMYBm0BmIyceYyKCOAAAAAAAIAAAAAAAAABAAAAAAAAAAAA==

> <PUBCHEM_IUPAC_OPENEYE_NAME>
N-[(3S)-1-[3-(1,2-benzoxazol-3-yl)propyl]pyrrolidin-3-yl]-4-fluoro-benzenesulfonamide

> <PUBCHEM_IUPAC_CAS_NAME>
N-[(3S)-1-[3-(1,2-benzoxazol-3-yl)propyl]-3-pyrrolidinyl]-4-fluorobenzenesulfonamide

> <PUBCHEM_IUPAC_NAME_MARKUP>
<I>N</I>-[(3<I>S</I>)-1-[3-(1,2-benzoxazol-3-yl)propyl]pyrrolidin-3-yl]-4-fluorobenzenesulfonamide

> <PUBCHEM_IUPAC_NAME>
N-[(3S)-1-[3-(1,2-benzoxazol-3-yl)propyl]pyrrolidin-3-yl]-4-fluorobenzenesulfonamide

> <PUBCHEM_IUPAC_SYSTEMATIC_NAME>
N-[(3S)-1-[3-(1,2-benzoxazol-3-yl)propyl]pyrrolidin-3-yl]-4-fluoranyl-benzenesulfonamide

> <PUBCHEM_IUPAC_TRADITIONAL_NAME>
4-fluoro-N-[(3S)-1-(3-indoxazen-3-ylpropyl)pyrrolidin-3-yl]benzenesulfonamide

> <PUBCHEM_IUPAC_INCHI>
InChI=1S/C20H22FN3O3S/c21-15-7-9-17(10-8-15)28(25,26)23-16-11-13-24(14-16)12-3-5-19-18-4-1-2-6-20(18)27-22-19/h1-2,4,6-10,16,23H,3,5,11-14H2/t16-/m0/s1

> <PUBCHEM_IUPAC_INCHIKEY>
XIRROHSGQGQXTD-INIZCTEOSA-N

> <PUBCHEM_XLOGP3_AA>
3.4

> <PUBCHEM_EXACT_MASS>
403.13659091

> <PUBCHEM_MOLECULAR_FORMULA>
C20H22FN3O3S

> <PUBCHEM_MOLECULAR_WEIGHT>
403.5

> <PUBCHEM_OPENEYE_CAN_SMILES>
C1CN(CC1NS(=O)(=O)C2=CC=C(C=C2)F)CCCC3=NOC4=CC=CC=C43

> <PUBCHEM_OPENEYE_ISO_SMILES>
C1CN(C[C@H]1NS(=O)(=O)C2=CC=C(C=C2)F)CCCC3=NOC4=CC=CC=C43

> <PUBCHEM_CACTVS_TPSA>
83.8

> <PUBCHEM_MONOISOTOPIC_WEIGHT>
403.13659091

> <PUBCHEM_TOTAL_CHARGE>
0

> <PUBCHEM_HEAVY_ATOM_COUNT>
28

> <PUBCHEM_ATOM_DEF_STEREO_COUNT>
1

> <PUBCHEM_ATOM_UDEF_STEREO_COUNT>
0

> <PUBCHEM_BOND_DEF_STEREO_COUNT>
0

> <PUBCHEM_BOND_UDEF_STEREO_COUNT>
0

> <PUBCHEM_ISOTOPIC_ATOM_COUNT>
0

> <PUBCHEM_COMPONENT_COUNT>
1

> <PUBCHEM_CACTVS_TAUTO_COUNT>
-1

> <PUBCHEM_COORDINATE_TYPE>
1
5
255

> <PUBCHEM_BONDANNOTATIONS>
16  19  8
16  20  8
17  18  8
18  21  8
18  22  8
19  23  8
20  24  8
21  25  8
22  27  8
23  26  8
24  26  8
25  28  8
27  28  8
5  21  8
5  8  8
9  7  6
8  17  8

$$$$
