45482789
  -OEChem-09292322042D

 60 64  0     1  0  0  0  0  0999 V2000
    2.0116    0.6355    0.0000 O   0  0  0  0  0  0  0  0  0  0  0  0
    7.2756    0.6152    0.0000 O   0  0  0  0  0  0  0  0  0  0  0  0
    5.5437    0.6353    0.0000 N   0  0  0  0  0  0  0  0  0  0  0  0
    6.5317   -3.5549    0.0000 N   0  0  0  0  0  0  0  0  0  0  0  0
    2.8718    2.1388    0.0000 N   0  0  0  0  0  0  0  0  0  0  0  0
    6.4270    2.1252    0.0000 N   0  0  0  0  0  0  0  0  0  0  0  0
    5.5277   -0.4062    0.0000 C   0  0  1  0  0  0  0  0  0  0  0  0
    4.6616   -0.9062    0.0000 C   0  0  0  0  0  0  0  0  0  0  0  0
    6.3937   -0.9062    0.0000 C   0  0  0  0  0  0  0  0  0  0  0  0
    3.7436    0.6422    0.0000 C   0  0  1  0  0  0  0  0  0  0  0  0
    4.6457    1.1630    0.0000 C   0  0  0  0  0  0  0  0  0  0  0  0
    6.3937   -1.9062    0.0000 C   0  0  0  0  0  0  0  0  0  0  0  0
    4.6616   -1.9062    0.0000 C   0  0  0  0  0  0  0  0  0  0  0  0
    5.5277   -2.4062    0.0000 C   0  0  0  0  0  0  0  0  0  0  0  0
    3.7516   -0.3994    0.0000 C   0  0  0  0  0  0  0  0  0  0  0  0
    5.5437   -3.4478    0.0000 C   0  0  0  0  0  0  0  0  0  0  0  0
    7.0116   -2.6846    0.0000 C   0  0  0  0  0  0  0  0  0  0  0  0
    2.8757    1.1389    0.0000 C   0  0  0  0  0  0  0  0  0  0  0  0
    6.4155    1.1252    0.0000 C   0  0  0  0  0  0  0  0  0  0  0  0
    3.7516   -2.4131    0.0000 C   0  0  0  0  0  0  0  0  0  0  0  0
    4.6457   -3.9755    0.0000 C   0  0  0  0  0  0  0  0  0  0  0  0
    3.7436   -3.4547    0.0000 C   0  0  0  0  0  0  0  0  0  0  0  0
    2.0038    2.6355    0.0000 C   0  0  0  0  0  0  0  0  0  0  0  0
    3.7359    2.6422    0.0000 C   0  0  0  0  0  0  0  0  0  0  0  0
    7.2988    2.6151    0.0000 C   0  0  0  0  0  0  0  0  0  0  0  0
    2.0000    3.6355    0.0000 C   0  0  0  0  0  0  0  0  0  0  0  0
    3.7320    3.6422    0.0000 C   0  0  0  0  0  0  0  0  0  0  0  0
    7.3103    3.6150    0.0000 C   0  0  0  0  0  0  0  0  0  0  0  0
    8.1590    2.1051    0.0000 C   0  0  0  0  0  0  0  0  0  0  0  0
    8.1821    4.1050    0.0000 C   0  0  0  0  0  0  0  0  0  0  0  0
    9.0307    2.5951    0.0000 C   0  0  0  0  0  0  0  0  0  0  0  0
    9.0423    3.5950    0.0000 C   0  0  0  0  0  0  0  0  0  0  0  0
    6.2670    0.0131    0.0000 H   0  0  0  0  0  0  0  0  0  0  0  0
    7.0043   -1.0139    0.0000 H   0  0  0  0  0  0  0  0  0  0  0  0
    6.6057   -0.3236    0.0000 H   0  0  0  0  0  0  0  0  0  0  0  0
    3.7424    1.2622    0.0000 H   0  0  0  0  0  0  0  0  0  0  0  0
    5.0466    1.6359    0.0000 H   0  0  0  0  0  0  0  0  0  0  0  0
    4.2484    1.6390    0.0000 H   0  0  0  0  0  0  0  0  0  0  0  0
    3.2183   -0.7156    0.0000 H   0  0  0  0  0  0  0  0  0  0  0  0
    7.6294   -2.6329    0.0000 H   0  0  0  0  0  0  0  0  0  0  0  0
    3.2183   -2.0969    0.0000 H   0  0  0  0  0  0  0  0  0  0  0  0
    6.8177   -4.1050    0.0000 H   0  0  0  0  0  0  0  0  0  0  0  0
    4.6481   -4.5955    0.0000 H   0  0  0  0  0  0  0  0  0  0  0  0
    3.2055   -3.7626    0.0000 H   0  0  0  0  0  0  0  0  0  0  0  0
    5.8937    2.4413    0.0000 H   0  0  0  0  0  0  0  0  0  0  0  0
    1.3929    2.7408    0.0000 H   0  0  0  0  0  0  0  0  0  0  0  0
    1.7940    2.0521    0.0000 H   0  0  0  0  0  0  0  0  0  0  0  0
    3.9502    2.0604    0.0000 H   0  0  0  0  0  0  0  0  0  0  0  0
    4.3460    2.7522    0.0000 H   0  0  0  0  0  0  0  0  0  0  0  0
    2.6200    3.6379    0.0000 H   0  0  0  0  0  0  0  0  0  0  0  0
    1.9976    4.2555    0.0000 H   0  0  0  0  0  0  0  0  0  0  0  0
    1.3800    3.6331    0.0000 H   0  0  0  0  0  0  0  0  0  0  0  0
    4.3520    3.6446    0.0000 H   0  0  0  0  0  0  0  0  0  0  0  0
    3.7296    4.2622    0.0000 H   0  0  0  0  0  0  0  0  0  0  0  0
    3.1120    3.6398    0.0000 H   0  0  0  0  0  0  0  0  0  0  0  0
    6.7770    3.9312    0.0000 H   0  0  0  0  0  0  0  0  0  0  0  0
    8.1518    1.4852    0.0000 H   0  0  0  0  0  0  0  0  0  0  0  0
    8.1893    4.7250    0.0000 H   0  0  0  0  0  0  0  0  0  0  0  0
    9.5640    2.2789    0.0000 H   0  0  0  0  0  0  0  0  0  0  0  0
    9.5828    3.8988    0.0000 H   0  0  0  0  0  0  0  0  0  0  0  0
  1 18  2  0  0  0  0
  2 19  2  0  0  0  0
  3  7  1  0  0  0  0
  3 11  1  0  0  0  0
  3 19  1  0  0  0  0
  4 16  1  0  0  0  0
  4 17  1  0  0  0  0
  4 42  1  0  0  0  0
  5 18  1  0  0  0  0
  5 23  1  0  0  0  0
  5 24  1  0  0  0  0
  6 19  1  0  0  0  0
  6 25  1  0  0  0  0
  6 45  1  0  0  0  0
  7  8  1  0  0  0  0
  7  9  1  0  0  0  0
  7 33  1  1  0  0  0
  8 13  1  0  0  0  0
  8 15  2  0  0  0  0
  9 12  1  0  0  0  0
  9 34  1  0  0  0  0
  9 35  1  0  0  0  0
 10 11  1  0  0  0  0
 10 15  1  0  0  0  0
 10 18  1  1  0  0  0
 10 36  1  0  0  0  0
 11 37  1  0  0  0  0
 11 38  1  0  0  0  0
 12 14  1  0  0  0  0
 12 17  2  0  0  0  0
 13 14  2  0  0  0  0
 13 20  1  0  0  0  0
 14 16  1  0  0  0  0
 15 39  1  0  0  0  0
 16 21  2  0  0  0  0
 17 40  1  0  0  0  0
 20 22  2  0  0  0  0
 20 41  1  0  0  0  0
 21 22  1  0  0  0  0
 21 43  1  0  0  0  0
 22 44  1  0  0  0  0
 23 26  1  0  0  0  0
 23 46  1  0  0  0  0
 23 47  1  0  0  0  0
 24 27  1  0  0  0  0
 24 48  1  0  0  0  0
 24 49  1  0  0  0  0
 25 28  2  0  0  0  0
 25 29  1  0  0  0  0
 26 50  1  0  0  0  0
 26 51  1  0  0  0  0
 26 52  1  0  0  0  0
 27 53  1  0  0  0  0
 27 54  1  0  0  0  0
 27 55  1  0  0  0  0
 28 30  1  0  0  0  0
 28 56  1  0  0  0  0
 29 31  2  0  0  0  0
 29 57  1  0  0  0  0
 30 32  2  0  0  0  0
 30 58  1  0  0  0  0
 31 32  1  0  0  0  0
 31 59  1  0  0  0  0
 32 60  1  0  0  0  0
M  END
> <PUBCHEM_COMPOUND_CID>
45482789

> <PUBCHEM_COMPOUND_CANONICALIZED>
1

> <PUBCHEM_CACTVS_COMPLEXITY>
742

> <PUBCHEM_CACTVS_HBOND_ACCEPTOR>
2

> <PUBCHEM_CACTVS_HBOND_DONOR>
2

> <PUBCHEM_CACTVS_ROTATABLE_BOND>
4

> <PUBCHEM_CACTVS_SUBSKEYS>
AAADceB7sAAAAAAAAAAAAAAAAAAAAWAAAAAwYMEAAAAAAFjB9AAAHgAQAAAADSjBngQ/wPPJkACoAzV3VACCgCAxAiAI2aE4ZJiIIOrA0ZGEIAholgLIyCcQgMAOgAAAQAASAAAQAASAACQAAAAAAAAAAA==

> <PUBCHEM_IUPAC_OPENEYE_NAME>
(6aR,9R)-N9,N9-diethyl-N7-phenyl-6,6a,8,9-tetrahydro-4H-indolo[4,3-fg]quinoline-7,9-dicarboxamide

> <PUBCHEM_IUPAC_CAS_NAME>
(6aR,9R)-N9,N9-diethyl-N7-phenyl-6,6a,8,9-tetrahydro-4H-indolo[4,3-fg]quinoline-7,9-dicarboxamide

> <PUBCHEM_IUPAC_NAME_MARKUP>
(6<I>a</I><I>R</I>,9<I>R</I>)-9-<I>N</I>,9-<I>N</I>-diethyl-7-<I>N</I>-phenyl-6,6<I>a</I>,8,9-tetrahydro-4<I>H</I>-indolo[4,3-fg]quinoline-7,9-dicarboxamide

> <PUBCHEM_IUPAC_NAME>
(6aR,9R)-9-N,9-N-diethyl-7-N-phenyl-6,6a,8,9-tetrahydro-4H-indolo[4,3-fg]quinoline-7,9-dicarboxamide

> <PUBCHEM_IUPAC_SYSTEMATIC_NAME>
(6aR,9R)-N9,N9-diethyl-N7-phenyl-6,6a,8,9-tetrahydro-4H-indolo[4,3-fg]quinoline-7,9-dicarboxamide

> <PUBCHEM_IUPAC_TRADITIONAL_NAME>
(6aR,9R)-N',N'-diethyl-N-phenyl-6,6a,8,9-tetrahydro-4H-indolo[4,3-fg]quinoline-7,9-dicarboxamide

> <PUBCHEM_IUPAC_INCHI>
InChI=1S/C26H28N4O2/c1-3-29(4-2)25(31)18-13-21-20-11-8-12-22-24(20)17(15-27-22)14-23(21)30(16-18)26(32)28-19-9-6-5-7-10-19/h5-13,15,18,23,27H,3-4,14,16H2,1-2H3,(H,28,32)/t18-,23-/m1/s1

> <PUBCHEM_IUPAC_INCHIKEY>
QIPWTYSOANVUKJ-WZONZLPQSA-N

> <PUBCHEM_XLOGP3>
3.8

> <PUBCHEM_EXACT_MASS>
428.22122615

> <PUBCHEM_MOLECULAR_FORMULA>
C26H28N4O2

> <PUBCHEM_MOLECULAR_WEIGHT>
428.5

> <PUBCHEM_OPENEYE_CAN_SMILES>
CCN(CC)C(=O)C1CN(C2CC3=CNC4=CC=CC(=C34)C2=C1)C(=O)NC5=CC=CC=C5

> <PUBCHEM_OPENEYE_ISO_SMILES>
CCN(CC)C(=O)[C@H]1CN([C@@H]2CC3=CNC4=CC=CC(=C34)C2=C1)C(=O)NC5=CC=CC=C5

> <PUBCHEM_CACTVS_TPSA>
68.4

> <PUBCHEM_MONOISOTOPIC_WEIGHT>
428.22122615

> <PUBCHEM_TOTAL_CHARGE>
0

> <PUBCHEM_HEAVY_ATOM_COUNT>
32

> <PUBCHEM_ATOM_DEF_STEREO_COUNT>
2

> <PUBCHEM_ATOM_UDEF_STEREO_COUNT>
0

> <PUBCHEM_BOND_DEF_STEREO_COUNT>
0

> <PUBCHEM_BOND_UDEF_STEREO_COUNT>
0

> <PUBCHEM_ISOTOPIC_ATOM_COUNT>
0

> <PUBCHEM_COMPONENT_COUNT>
1

> <PUBCHEM_CACTVS_TAUTO_COUNT>
-1

> <PUBCHEM_COORDINATE_TYPE>
1
5
255

> <PUBCHEM_BONDANNOTATIONS>
10  18  5
12  14  8
12  17  8
13  14  8
13  20  8
14  16  8
16  21  8
20  22  8
21  22  8
25  28  8
25  29  8
28  30  8
29  31  8
30  32  8
31  32  8
4  16  8
4  17  8
7  33  5

$$$$
