155561779
  -OEChem-09292322402D

 71 74  0     1  0  0  0  0  0999 V2000
    2.0000   -1.7500    0.0000 Cl  0  0  0  0  0  0  0  0  0  0  0  0
    3.7320   -4.7500    0.0000 Cl  0  0  0  0  0  0  0  0  0  0  0  0
   13.2583   -0.2500    0.0000 O   0  0  0  0  0  0  0  0  0  0  0  0
    5.4641   -1.7500    0.0000 O   0  0  0  0  0  0  0  0  0  0  0  0
    9.7942   -0.2500    0.0000 N   0  0  0  0  0  0  0  0  0  0  0  0
   11.5263    0.7500    0.0000 N   0  0  0  0  0  0  0  0  0  0  0  0
    6.3301   -0.2500    0.0000 N   0  0  0  0  0  0  0  0  0  0  0  0
    4.5981   -0.2500    0.0000 N   0  0  0  0  0  0  0  0  0  0  0  0
    3.7320   -0.7500    0.0000 N   0  0  3  0  0  0  0  0  0  0  0  0
    2.8660    4.7500    0.0000 N   0  0  0  0  0  0  0  0  0  0  0  0
   10.6603   -0.7500    0.0000 C   0  0  0  0  0  0  0  0  0  0  0  0
    9.7942    0.7500    0.0000 C   0  0  0  0  0  0  0  0  0  0  0  0
   11.5263   -0.2500    0.0000 C   0  0  0  0  0  0  0  0  0  0  0  0
   10.6603    1.2500    0.0000 C   0  0  0  0  0  0  0  0  0  0  0  0
    8.9282   -0.7500    0.0000 C   0  0  0  0  0  0  0  0  0  0  0  0
    8.0622   -0.2500    0.0000 C   0  0  0  0  0  0  0  0  0  0  0  0
   12.3923    1.2500    0.0000 C   0  0  0  0  0  0  0  0  0  0  0  0
    7.1962   -0.7500    0.0000 C   0  0  0  0  0  0  0  0  0  0  0  0
   13.2583    0.7500    0.0000 C   0  0  0  0  0  0  0  0  0  0  0  0
   12.3923    2.2500    0.0000 C   0  0  0  0  0  0  0  0  0  0  0  0
   14.1244    1.2500    0.0000 C   0  0  0  0  0  0  0  0  0  0  0  0
   13.2583    2.7500    0.0000 C   0  0  0  0  0  0  0  0  0  0  0  0
   14.1244    2.2500    0.0000 C   0  0  0  0  0  0  0  0  0  0  0  0
    5.4641   -0.7500    0.0000 C   0  0  0  0  0  0  0  0  0  0  0  0
   14.1244   -0.7500    0.0000 C   0  0  0  0  0  0  0  0  0  0  0  0
    2.8660   -0.2500    0.0000 C   0  0  0  0  0  0  0  0  0  0  0  0
    3.7320   -1.7500    0.0000 C   0  0  0  0  0  0  0  0  0  0  0  0
    2.8660    0.7500    0.0000 C   0  0  0  0  0  0  0  0  0  0  0  0
    2.8660   -2.2500    0.0000 C   0  0  0  0  0  0  0  0  0  0  0  0
    4.5981   -2.2500    0.0000 C   0  0  0  0  0  0  0  0  0  0  0  0
    2.0000    1.2500    0.0000 C   0  0  0  0  0  0  0  0  0  0  0  0
    3.7320    1.2500    0.0000 C   0  0  0  0  0  0  0  0  0  0  0  0
    2.8660   -3.2500    0.0000 C   0  0  0  0  0  0  0  0  0  0  0  0
    4.5981   -3.2500    0.0000 C   0  0  0  0  0  0  0  0  0  0  0  0
    2.0000    2.2500    0.0000 C   0  0  0  0  0  0  0  0  0  0  0  0
    3.7320    2.2500    0.0000 C   0  0  0  0  0  0  0  0  0  0  0  0
    3.7320   -3.7500    0.0000 C   0  0  0  0  0  0  0  0  0  0  0  0
    2.8660    2.7500    0.0000 C   0  0  0  0  0  0  0  0  0  0  0  0
    2.8660    3.7500    0.0000 C   0  0  0  0  0  0  0  0  0  0  0  0
   10.2617   -1.2250    0.0000 H   0  0  0  0  0  0  0  0  0  0  0  0
   11.0588   -1.2250    0.0000 H   0  0  0  0  0  0  0  0  0  0  0  0
    9.5822    1.3326    0.0000 H   0  0  0  0  0  0  0  0  0  0  0  0
    9.1836    0.6423    0.0000 H   0  0  0  0  0  0  0  0  0  0  0  0
   11.7383   -0.8326    0.0000 H   0  0  0  0  0  0  0  0  0  0  0  0
   12.1369   -0.1423    0.0000 H   0  0  0  0  0  0  0  0  0  0  0  0
   11.0588    1.7250    0.0000 H   0  0  0  0  0  0  0  0  0  0  0  0
   10.2617    1.7250    0.0000 H   0  0  0  0  0  0  0  0  0  0  0  0
    8.5297   -1.2250    0.0000 H   0  0  0  0  0  0  0  0  0  0  0  0
    9.3267   -1.2250    0.0000 H   0  0  0  0  0  0  0  0  0  0  0  0
    8.4607    0.2249    0.0000 H   0  0  0  0  0  0  0  0  0  0  0  0
    7.6636    0.2249    0.0000 H   0  0  0  0  0  0  0  0  0  0  0  0
    6.7976   -1.2250    0.0000 H   0  0  0  0  0  0  0  0  0  0  0  0
    7.5947   -1.2250    0.0000 H   0  0  0  0  0  0  0  0  0  0  0  0
   11.8554    2.5600    0.0000 H   0  0  0  0  0  0  0  0  0  0  0  0
    6.3301    0.3700    0.0000 H   0  0  0  0  0  0  0  0  0  0  0  0
   14.6613    0.9400    0.0000 H   0  0  0  0  0  0  0  0  0  0  0  0
   13.2583    3.3700    0.0000 H   0  0  0  0  0  0  0  0  0  0  0  0
   14.6613    2.5600    0.0000 H   0  0  0  0  0  0  0  0  0  0  0  0
    4.5981    0.3700    0.0000 H   0  0  0  0  0  0  0  0  0  0  0  0
   13.8144   -1.2869    0.0000 H   0  0  0  0  0  0  0  0  0  0  0  0
   14.6613   -1.0600    0.0000 H   0  0  0  0  0  0  0  0  0  0  0  0
   14.4344   -0.2131    0.0000 H   0  0  0  0  0  0  0  0  0  0  0  0
    2.2554   -0.1423    0.0000 H   0  0  0  0  0  0  0  0  0  0  0  0
    2.6540   -0.8326    0.0000 H   0  0  0  0  0  0  0  0  0  0  0  0
    5.1350   -1.9400    0.0000 H   0  0  0  0  0  0  0  0  0  0  0  0
    1.4631    0.9400    0.0000 H   0  0  0  0  0  0  0  0  0  0  0  0
    4.2690    0.9400    0.0000 H   0  0  0  0  0  0  0  0  0  0  0  0
    2.3291   -3.5600    0.0000 H   0  0  0  0  0  0  0  0  0  0  0  0
    5.1350   -3.5600    0.0000 H   0  0  0  0  0  0  0  0  0  0  0  0
    1.4631    2.5600    0.0000 H   0  0  0  0  0  0  0  0  0  0  0  0
    4.2690    2.5600    0.0000 H   0  0  0  0  0  0  0  0  0  0  0  0
  1 29  1  0  0  0  0
  2 37  1  0  0  0  0
  3 19  1  0  0  0  0
  3 25  1  0  0  0  0
  4 24  2  0  0  0  0
  5 11  1  0  0  0  0
  5 12  1  0  0  0  0
  5 15  1  0  0  0  0
  6 13  1  0  0  0  0
  6 14  1  0  0  0  0
  6 17  1  0  0  0  0
  7 18  1  0  0  0  0
  7 24  1  0  0  0  0
  7 55  1  0  0  0  0
  8  9  1  0  0  0  0
  8 24  1  0  0  0  0
  8 59  1  0  0  0  0
  9 26  1  0  0  0  0
  9 27  1  0  0  0  0
 10 39  3  0  0  0  0
 11 13  1  0  0  0  0
 11 40  1  0  0  0  0
 11 41  1  0  0  0  0
 12 14  1  0  0  0  0
 12 42  1  0  0  0  0
 12 43  1  0  0  0  0
 13 44  1  0  0  0  0
 13 45  1  0  0  0  0
 14 46  1  0  0  0  0
 14 47  1  0  0  0  0
 15 16  1  0  0  0  0
 15 48  1  0  0  0  0
 15 49  1  0  0  0  0
 16 18  1  0  0  0  0
 16 50  1  0  0  0  0
 16 51  1  0  0  0  0
 17 19  1  0  0  0  0
 17 20  2  0  0  0  0
 18 52  1  0  0  0  0
 18 53  1  0  0  0  0
 19 21  2  0  0  0  0
 20 22  1  0  0  0  0
 20 54  1  0  0  0  0
 21 23  1  0  0  0  0
 21 56  1  0  0  0  0
 22 23  2  0  0  0  0
 22 57  1  0  0  0  0
 23 58  1  0  0  0  0
 25 60  1  0  0  0  0
 25 61  1  0  0  0  0
 25 62  1  0  0  0  0
 26 28  1  0  0  0  0
 26 63  1  0  0  0  0
 26 64  1  0  0  0  0
 27 29  2  0  0  0  0
 27 30  1  0  0  0  0
 28 31  2  0  0  0  0
 28 32  1  0  0  0  0
 29 33  1  0  0  0  0
 30 34  2  0  0  0  0
 30 65  1  0  0  0  0
 31 35  1  0  0  0  0
 31 66  1  0  0  0  0
 32 36  2  0  0  0  0
 32 67  1  0  0  0  0
 33 37  2  0  0  0  0
 33 68  1  0  0  0  0
 34 37  1  0  0  0  0
 34 69  1  0  0  0  0
 35 38  2  0  0  0  0
 35 70  1  0  0  0  0
 36 38  1  0  0  0  0
 36 71  1  0  0  0  0
 38 39  1  0  0  0  0
M  END
> <PUBCHEM_COMPOUND_CID>
155561779

> <PUBCHEM_COMPOUND_CANONICALIZED>
1

> <PUBCHEM_CACTVS_COMPLEXITY>
796

> <PUBCHEM_CACTVS_HBOND_ACCEPTOR>
6

> <PUBCHEM_CACTVS_HBOND_DONOR>
2

> <PUBCHEM_CACTVS_ROTATABLE_BOND>
10

> <PUBCHEM_CACTVS_SUBSKEYS>
AAADcfB7sAAGAAAAAAAAAAAAAAAAAAAAAAA8YMEAAAAAAAABUAAAHgIYAAAADA7BmCYzxoPiBACYBiRCUACiDAAhJwAeqIAPboiO5iLF85vVMCh01hPY6A+QwAAOQABAAACAEBCAAIAAAQAgIAAAAAAAAA==

> <PUBCHEM_IUPAC_OPENEYE_NAME>
1-[2,4-dichloro-N-[(4-cyanophenyl)methyl]anilino]-3-[3-[4-(2-methoxyphenyl)piperazin-1-yl]propyl]urea

> <PUBCHEM_IUPAC_CAS_NAME>
1-[2,4-dichloro-N-[(4-cyanophenyl)methyl]anilino]-3-[3-[4-(2-methoxyphenyl)-1-piperazinyl]propyl]urea

> <PUBCHEM_IUPAC_NAME_MARKUP>
1-[2,4-dichloro-<I>N</I>-[(4-cyanophenyl)methyl]anilino]-3-[3-[4-(2-methoxyphenyl)piperazin-1-yl]propyl]urea

> <PUBCHEM_IUPAC_NAME>
1-[2,4-dichloro-N-[(4-cyanophenyl)methyl]anilino]-3-[3-[4-(2-methoxyphenyl)piperazin-1-yl]propyl]urea

> <PUBCHEM_IUPAC_SYSTEMATIC_NAME>
1-[(4-cyanophenyl)methyl-(2,4-dichlorophenyl)amino]-3-[3-[4-(2-methoxyphenyl)piperazin-1-yl]propyl]urea

> <PUBCHEM_IUPAC_TRADITIONAL_NAME>
1-(2,4-dichloro-N-(4-cyanobenzyl)anilino)-3-[3-[4-(2-methoxyphenyl)piperazino]propyl]urea

> <PUBCHEM_IUPAC_INCHI>
InChI=1S/C29H32Cl2N6O2/c1-39-28-6-3-2-5-27(28)36-17-15-35(16-18-36)14-4-13-33-29(38)34-37(26-12-11-24(30)19-25(26)31)21-23-9-7-22(20-32)8-10-23/h2-3,5-12,19H,4,13-18,21H2,1H3,(H2,33,34,38)

> <PUBCHEM_IUPAC_INCHIKEY>
LWBLFKWXBXEZMX-UHFFFAOYSA-N

> <PUBCHEM_XLOGP3_AA>
5.8

> <PUBCHEM_EXACT_MASS>
566.1963797

> <PUBCHEM_MOLECULAR_FORMULA>
C29H32Cl2N6O2

> <PUBCHEM_MOLECULAR_WEIGHT>
567.5

> <PUBCHEM_OPENEYE_CAN_SMILES>
COC1=CC=CC=C1N2CCN(CC2)CCCNC(=O)NN(CC3=CC=C(C=C3)C#N)C4=C(C=C(C=C4)Cl)Cl

> <PUBCHEM_OPENEYE_ISO_SMILES>
COC1=CC=CC=C1N2CCN(CC2)CCCNC(=O)NN(CC3=CC=C(C=C3)C#N)C4=C(C=C(C=C4)Cl)Cl

> <PUBCHEM_CACTVS_TPSA>
83.9

> <PUBCHEM_MONOISOTOPIC_WEIGHT>
566.1963797

> <PUBCHEM_TOTAL_CHARGE>
0

> <PUBCHEM_HEAVY_ATOM_COUNT>
39

> <PUBCHEM_ATOM_DEF_STEREO_COUNT>
0

> <PUBCHEM_ATOM_UDEF_STEREO_COUNT>
0

> <PUBCHEM_BOND_DEF_STEREO_COUNT>
0

> <PUBCHEM_BOND_UDEF_STEREO_COUNT>
0

> <PUBCHEM_ISOTOPIC_ATOM_COUNT>
0

> <PUBCHEM_COMPONENT_COUNT>
1

> <PUBCHEM_CACTVS_TAUTO_COUNT>
-1

> <PUBCHEM_COORDINATE_TYPE>
1
5
255

> <PUBCHEM_BONDANNOTATIONS>
17  19  8
17  20  8
19  21  8
20  22  8
21  23  8
22  23  8
27  29  8
27  30  8
28  31  8
28  32  8
29  33  8
30  34  8
31  35  8
32  36  8
33  37  8
34  37  8
35  38  8
36  38  8

$$$$
