126720394
  -OEChem-09292322382D

 47 50  0     0  0  0  0  0  0999 V2000
    7.5673   -4.3444    0.0000 Cl  0  0  0  0  0  0  0  0  0  0  0  0
    2.8660    1.7244    0.0000 N   0  0  0  0  0  0  0  0  0  0  0  0
    2.8660    3.7244    0.0000 N   0  0  0  0  0  0  0  0  0  0  0  0
    4.6783   -1.0804    0.0000 N   0  0  0  0  0  0  0  0  0  0  0  0
    4.6783    0.5291    0.0000 N   0  0  0  0  0  0  0  0  0  0  0  0
    2.8660   -1.2756    0.0000 N   0  0  0  0  0  0  0  0  0  0  0  0
    3.7320    2.2244    0.0000 C   0  0  0  0  0  0  0  0  0  0  0  0
    2.0000    2.2244    0.0000 C   0  0  0  0  0  0  0  0  0  0  0  0
    2.8660    0.7244    0.0000 C   0  0  0  0  0  0  0  0  0  0  0  0
    3.7320    3.2244    0.0000 C   0  0  0  0  0  0  0  0  0  0  0  0
    2.0000    3.2244    0.0000 C   0  0  0  0  0  0  0  0  0  0  0  0
    3.7320    0.2244    0.0000 C   0  0  0  0  0  0  0  0  0  0  0  0
    3.7320   -0.7756    0.0000 C   0  0  0  0  0  0  0  0  0  0  0  0
    5.2619   -0.2756    0.0000 C   0  0  0  0  0  0  0  0  0  0  0  0
    4.9889   -2.0309    0.0000 C   0  0  0  0  0  0  0  0  0  0  0  0
    2.0000    0.2244    0.0000 C   0  0  0  0  0  0  0  0  0  0  0  0
    6.2619   -0.2756    0.0000 C   0  0  0  0  0  0  0  0  0  0  0  0
    2.0000   -0.7756    0.0000 C   0  0  0  0  0  0  0  0  0  0  0  0
    5.9674   -2.2371    0.0000 C   0  0  0  0  0  0  0  0  0  0  0  0
    6.7619    0.5904    0.0000 C   0  0  0  0  0  0  0  0  0  0  0  0
    6.2781   -3.1876    0.0000 C   0  0  0  0  0  0  0  0  0  0  0  0
    6.6353   -1.4928    0.0000 C   0  0  0  0  0  0  0  0  0  0  0  0
    7.2566   -3.3938    0.0000 C   0  0  0  0  0  0  0  0  0  0  0  0
    7.6138   -1.6990    0.0000 C   0  0  0  0  0  0  0  0  0  0  0  0
    7.9244   -2.6495    0.0000 C   0  0  0  0  0  0  0  0  0  0  0  0
    3.9441    1.6418    0.0000 H   0  0  0  0  0  0  0  0  0  0  0  0
    4.3426    2.3320    0.0000 H   0  0  0  0  0  0  0  0  0  0  0  0
    1.3894    2.3320    0.0000 H   0  0  0  0  0  0  0  0  0  0  0  0
    1.7880    1.6418    0.0000 H   0  0  0  0  0  0  0  0  0  0  0  0
    4.3426    3.1167    0.0000 H   0  0  0  0  0  0  0  0  0  0  0  0
    3.9441    3.8070    0.0000 H   0  0  0  0  0  0  0  0  0  0  0  0
    1.7880    3.8070    0.0000 H   0  0  0  0  0  0  0  0  0  0  0  0
    1.3894    3.1167    0.0000 H   0  0  0  0  0  0  0  0  0  0  0  0
    2.8660    4.3444    0.0000 H   0  0  0  0  0  0  0  0  0  0  0  0
    4.3751   -2.1182    0.0000 H   0  0  0  0  0  0  0  0  0  0  0  0
    4.9684   -2.6506    0.0000 H   0  0  0  0  0  0  0  0  0  0  0  0
    1.4631    0.5344    0.0000 H   0  0  0  0  0  0  0  0  0  0  0  0
    6.1542   -0.8862    0.0000 H   0  0  0  0  0  0  0  0  0  0  0  0
    6.8445   -0.4877    0.0000 H   0  0  0  0  0  0  0  0  0  0  0  0
    1.4631   -1.0856    0.0000 H   0  0  0  0  0  0  0  0  0  0  0  0
    7.2988    0.2804    0.0000 H   0  0  0  0  0  0  0  0  0  0  0  0
    7.0719    1.1273    0.0000 H   0  0  0  0  0  0  0  0  0  0  0  0
    6.2249    0.9004    0.0000 H   0  0  0  0  0  0  0  0  0  0  0  0
    5.8640   -3.6491    0.0000 H   0  0  0  0  0  0  0  0  0  0  0  0
    6.4427   -0.9035    0.0000 H   0  0  0  0  0  0  0  0  0  0  0  0
    8.0279   -1.2376    0.0000 H   0  0  0  0  0  0  0  0  0  0  0  0
    8.5311   -2.7774    0.0000 H   0  0  0  0  0  0  0  0  0  0  0  0
  1 23  1  0  0  0  0
  2  7  1  0  0  0  0
  2  8  1  0  0  0  0
  2  9  1  0  0  0  0
  3 10  1  0  0  0  0
  3 11  1  0  0  0  0
  3 34  1  0  0  0  0
  4 13  1  0  0  0  0
  4 14  1  0  0  0  0
  4 15  1  0  0  0  0
  5 12  1  0  0  0  0
  5 14  2  0  0  0  0
  6 13  2  0  0  0  0
  6 18  1  0  0  0  0
  7 10  1  0  0  0  0
  7 26  1  0  0  0  0
  7 27  1  0  0  0  0
  8 11  1  0  0  0  0
  8 28  1  0  0  0  0
  8 29  1  0  0  0  0
  9 12  2  0  0  0  0
  9 16  1  0  0  0  0
 10 30  1  0  0  0  0
 10 31  1  0  0  0  0
 11 32  1  0  0  0  0
 11 33  1  0  0  0  0
 12 13  1  0  0  0  0
 14 17  1  0  0  0  0
 15 19  1  0  0  0  0
 15 35  1  0  0  0  0
 15 36  1  0  0  0  0
 16 18  2  0  0  0  0
 16 37  1  0  0  0  0
 17 20  1  0  0  0  0
 17 38  1  0  0  0  0
 17 39  1  0  0  0  0
 18 40  1  0  0  0  0
 19 21  2  0  0  0  0
 19 22  1  0  0  0  0
 20 41  1  0  0  0  0
 20 42  1  0  0  0  0
 20 43  1  0  0  0  0
 21 23  1  0  0  0  0
 21 44  1  0  0  0  0
 22 24  2  0  0  0  0
 22 45  1  0  0  0  0
 23 25  2  0  0  0  0
 24 25  1  0  0  0  0
 24 46  1  0  0  0  0
 25 47  1  0  0  0  0
M  END
> <PUBCHEM_COMPOUND_CID>
126720394

> <PUBCHEM_COMPOUND_CANONICALIZED>
1

> <PUBCHEM_CACTVS_COMPLEXITY>
430

> <PUBCHEM_CACTVS_HBOND_ACCEPTOR>
4

> <PUBCHEM_CACTVS_HBOND_DONOR>
1

> <PUBCHEM_CACTVS_ROTATABLE_BOND>
4

> <PUBCHEM_CACTVS_SUBSKEYS>
AAADceB7gAAEAAAAAAAAAAAAAAAAAWAAAAA8WIAAAAAAAFgB/AAAHAIQAAAADArBHyQ/8L/MEACgAzZnZACCgC0xF6AJ2KA4dpiIaOLB29GUJAhokALIyCcQgAAOAAAAIAAAAAAAAABAAAAAAAAAAAAAAA==

> <PUBCHEM_IUPAC_OPENEYE_NAME>
3-[(3-chlorophenyl)methyl]-2-ethyl-7-piperazin-1-yl-imidazo[4,5-b]pyridine

> <PUBCHEM_IUPAC_CAS_NAME>
3-[(3-chlorophenyl)methyl]-2-ethyl-7-(1-piperazinyl)imidazo[4,5-b]pyridine

> <PUBCHEM_IUPAC_NAME_MARKUP>
3-[(3-chlorophenyl)methyl]-2-ethyl-7-piperazin-1-ylimidazo[4,5-b]pyridine

> <PUBCHEM_IUPAC_NAME>
3-[(3-chlorophenyl)methyl]-2-ethyl-7-piperazin-1-ylimidazo[4,5-b]pyridine

> <PUBCHEM_IUPAC_SYSTEMATIC_NAME>
3-[(3-chlorophenyl)methyl]-2-ethyl-7-piperazin-1-yl-imidazo[4,5-b]pyridine

> <PUBCHEM_IUPAC_TRADITIONAL_NAME>
3-(3-chlorobenzyl)-2-ethyl-7-piperazino-imidazo[4,5-b]pyridine

> <PUBCHEM_IUPAC_INCHI>
InChI=1S/C19H22ClN5/c1-2-17-23-18-16(24-10-8-21-9-11-24)6-7-22-19(18)25(17)13-14-4-3-5-15(20)12-14/h3-7,12,21H,2,8-11,13H2,1H3

> <PUBCHEM_IUPAC_INCHIKEY>
UDRACXACDCFKNK-UHFFFAOYSA-N

> <PUBCHEM_XLOGP3_AA>
3.2

> <PUBCHEM_EXACT_MASS>
355.1563734

> <PUBCHEM_MOLECULAR_FORMULA>
C19H22ClN5

> <PUBCHEM_MOLECULAR_WEIGHT>
355.9

> <PUBCHEM_OPENEYE_CAN_SMILES>
CCC1=NC2=C(C=CN=C2N1CC3=CC(=CC=C3)Cl)N4CCNCC4

> <PUBCHEM_OPENEYE_ISO_SMILES>
CCC1=NC2=C(C=CN=C2N1CC3=CC(=CC=C3)Cl)N4CCNCC4

> <PUBCHEM_CACTVS_TPSA>
46

> <PUBCHEM_MONOISOTOPIC_WEIGHT>
355.1563734

> <PUBCHEM_TOTAL_CHARGE>
0

> <PUBCHEM_HEAVY_ATOM_COUNT>
25

> <PUBCHEM_ATOM_DEF_STEREO_COUNT>
0

> <PUBCHEM_ATOM_UDEF_STEREO_COUNT>
0

> <PUBCHEM_BOND_DEF_STEREO_COUNT>
0

> <PUBCHEM_BOND_UDEF_STEREO_COUNT>
0

> <PUBCHEM_ISOTOPIC_ATOM_COUNT>
0

> <PUBCHEM_COMPONENT_COUNT>
1

> <PUBCHEM_CACTVS_TAUTO_COUNT>
-1

> <PUBCHEM_COORDINATE_TYPE>
1
5
255

> <PUBCHEM_BONDANNOTATIONS>
12  13  8
16  18  8
19  21  8
19  22  8
21  23  8
22  24  8
23  25  8
24  25  8
4  13  8
4  14  8
5  12  8
5  14  8
6  13  8
6  18  8
9  12  8
9  16  8

$$$$
