11628631
  -OEChem-09292322492D

 69 74  0     1  0  0  0  0  0999 V2000
    9.5723    1.3069    0.0000 S   0  0  0  0  0  0  0  0  0  0  0  0
    2.5000   -5.4785    0.0000 F   0  0  0  0  0  0  0  0  0  0  0  0
    4.2320   -6.4785    0.0000 F   0  0  0  0  0  0  0  0  0  0  0  0
    2.3660   -7.7106    0.0000 F   0  0  0  0  0  0  0  0  0  0  0  0
    2.0000   -6.3445    0.0000 F   0  0  0  0  0  0  0  0  0  0  0  0
    3.7320   -7.3445    0.0000 F   0  0  0  0  0  0  0  0  0  0  0  0
    4.8548   -5.0094    0.0000 O   0  0  0  0  0  0  0  0  0  0  0  0
    6.5723   -0.4252    0.0000 N   0  0  3  0  0  0  0  0  0  0  0  0
    3.4609   -4.2047    0.0000 N   0  0  0  0  0  0  0  0  0  0  0  0
   11.0668    2.2774    0.0000 N   0  0  0  0  0  0  0  0  0  0  0  0
    9.6655    3.0865    0.0000 N   0  0  0  0  0  0  0  0  0  0  0  0
   10.4087    3.7556    0.0000 N   0  0  0  0  0  0  0  0  0  0  0  0
   13.3312    6.0977    0.0000 N   0  0  0  0  0  0  0  0  0  0  0  0
    7.1258   -1.2348    0.0000 C   0  0  0  0  0  0  0  0  0  0  0  0
    5.5943   -0.3505    0.0000 C   0  0  0  0  0  0  0  0  0  0  0  0
    6.8405   -2.1732    0.0000 C   0  0  0  0  0  0  0  0  0  0  0  0
    4.9243   -1.0668    0.0000 C   0  0  0  0  0  0  0  0  0  0  0  0
    5.9300   -2.5376    0.0000 C   0  0  0  0  0  0  0  0  0  0  0  0
    5.0640   -2.0376    0.0000 C   0  0  0  0  0  0  0  0  0  0  0  0
    7.0723    0.4409    0.0000 C   0  0  0  0  0  0  0  0  0  0  0  0
    8.0723    0.4409    0.0000 C   0  0  0  0  0  0  0  0  0  0  0  0
    5.9300   -3.5376    0.0000 C   0  0  0  0  0  0  0  0  0  0  0  0
    4.1979   -2.5376    0.0000 C   0  0  0  0  0  0  0  0  0  0  0  0
    5.0640   -4.0376    0.0000 C   0  0  0  0  0  0  0  0  0  0  0  0
    4.1979   -3.5376    0.0000 C   0  0  0  0  0  0  0  0  0  0  0  0
    8.5723    1.3069    0.0000 C   0  0  0  0  0  0  0  0  0  0  0  0
    3.8660   -5.1125    0.0000 C   0  0  0  0  0  0  0  0  0  0  0  0
    3.3660   -5.9785    0.0000 C   0  0  0  0  0  0  0  0  0  0  0  0
   10.0723    2.1729    0.0000 C   0  0  0  0  0  0  0  0  0  0  0  0
   11.2747    3.2556    0.0000 C   0  0  0  0  0  0  0  0  0  0  0  0
    2.8660   -6.8445    0.0000 C   0  0  0  0  0  0  0  0  0  0  0  0
   12.1882    3.6623    0.0000 C   0  0  0  0  0  0  0  0  0  0  0  0
   12.2928    4.6569    0.0000 C   0  0  0  0  0  0  0  0  0  0  0  0
   11.7359    1.5343    0.0000 C   0  0  0  0  0  0  0  0  0  0  0  0
   13.2063    5.0636    0.0000 C   0  0  0  0  0  0  0  0  0  0  0  0
   12.9973    3.0746    0.0000 C   0  0  0  0  0  0  0  0  0  0  0  0
   11.4407    5.2560    0.0000 C   0  0  0  0  0  0  0  0  0  0  0  0
   14.0153    4.4758    0.0000 C   0  0  0  0  0  0  0  0  0  0  0  0
   13.9108    3.4813    0.0000 C   0  0  0  0  0  0  0  0  0  0  0  0
   11.5416    6.2928    0.0000 C   0  0  0  0  0  0  0  0  0  0  0  0
   12.4932    6.7164    0.0000 C   0  0  0  0  0  0  0  0  0  0  0  0
   12.6016    7.7106    0.0000 C   0  0  0  0  0  0  0  0  0  0  0  0
    7.6638   -1.5431    0.0000 H   0  0  0  0  0  0  0  0  0  0  0  0
    7.5465   -0.7793    0.0000 H   0  0  0  0  0  0  0  0  0  0  0  0
    5.7784    0.2415    0.0000 H   0  0  0  0  0  0  0  0  0  0  0  0
    5.0584   -0.0389    0.0000 H   0  0  0  0  0  0  0  0  0  0  0  0
    6.9365   -2.7857    0.0000 H   0  0  0  0  0  0  0  0  0  0  0  0
    7.4590   -2.2164    0.0000 H   0  0  0  0  0  0  0  0  0  0  0  0
    4.5776   -0.5528    0.0000 H   0  0  0  0  0  0  0  0  0  0  0  0
    4.3459   -1.2900    0.0000 H   0  0  0  0  0  0  0  0  0  0  0  0
    7.1799    1.0514    0.0000 H   0  0  0  0  0  0  0  0  0  0  0  0
    6.4896    0.6529    0.0000 H   0  0  0  0  0  0  0  0  0  0  0  0
    7.9646   -0.1697    0.0000 H   0  0  0  0  0  0  0  0  0  0  0  0
    8.6549    0.2288    0.0000 H   0  0  0  0  0  0  0  0  0  0  0  0
    6.4669   -3.8476    0.0000 H   0  0  0  0  0  0  0  0  0  0  0  0
    3.6610   -2.2276    0.0000 H   0  0  0  0  0  0  0  0  0  0  0  0
    8.6799    1.9175    0.0000 H   0  0  0  0  0  0  0  0  0  0  0  0
    7.9896    1.5190    0.0000 H   0  0  0  0  0  0  0  0  0  0  0  0
   11.2752    1.1194    0.0000 H   0  0  0  0  0  0  0  0  0  0  0  0
   12.1508    1.0736    0.0000 H   0  0  0  0  0  0  0  0  0  0  0  0
   12.1967    1.9492    0.0000 H   0  0  0  0  0  0  0  0  0  0  0  0
   12.9324    2.4580    0.0000 H   0  0  0  0  0  0  0  0  0  0  0  0
   10.8773    4.9973    0.0000 H   0  0  0  0  0  0  0  0  0  0  0  0
   14.5817    4.7280    0.0000 H   0  0  0  0  0  0  0  0  0  0  0  0
   14.4124    3.1169    0.0000 H   0  0  0  0  0  0  0  0  0  0  0  0
   11.0386    6.6553    0.0000 H   0  0  0  0  0  0  0  0  0  0  0  0
   13.2179    7.6434    0.0000 H   0  0  0  0  0  0  0  0  0  0  0  0
   12.6687    8.3269    0.0000 H   0  0  0  0  0  0  0  0  0  0  0  0
   11.9852    7.7778    0.0000 H   0  0  0  0  0  0  0  0  0  0  0  0
  1 26  1  0  0  0  0
  1 29  1  0  0  0  0
  2 28  1  0  0  0  0
  3 28  1  0  0  0  0
  4 31  1  0  0  0  0
  5 31  1  0  0  0  0
  6 31  1  0  0  0  0
  7 24  1  0  0  0  0
  7 27  1  0  0  0  0
  8 14  1  0  0  0  0
  8 15  1  0  0  0  0
  8 20  1  0  0  0  0
  9 25  1  0  0  0  0
  9 27  2  0  0  0  0
 10 29  1  0  0  0  0
 10 30  1  0  0  0  0
 10 34  1  0  0  0  0
 11 12  1  0  0  0  0
 11 29  2  0  0  0  0
 12 30  2  0  0  0  0
 13 35  1  0  0  0  0
 13 41  2  0  0  0  0
 14 16  1  0  0  0  0
 14 43  1  0  0  0  0
 14 44  1  0  0  0  0
 15 17  1  0  0  0  0
 15 45  1  0  0  0  0
 15 46  1  0  0  0  0
 16 18  1  0  0  0  0
 16 47  1  0  0  0  0
 16 48  1  0  0  0  0
 17 19  1  0  0  0  0
 17 49  1  0  0  0  0
 17 50  1  0  0  0  0
 18 19  1  0  0  0  0
 18 22  2  0  0  0  0
 19 23  2  0  0  0  0
 20 21  1  0  0  0  0
 20 51  1  0  0  0  0
 20 52  1  0  0  0  0
 21 26  1  0  0  0  0
 21 53  1  0  0  0  0
 21 54  1  0  0  0  0
 22 24  1  0  0  0  0
 22 55  1  0  0  0  0
 23 25  1  0  0  0  0
 23 56  1  0  0  0  0
 24 25  2  0  0  0  0
 26 57  1  0  0  0  0
 26 58  1  0  0  0  0
 27 28  1  0  0  0  0
 28 31  1  0  0  0  0
 30 32  1  0  0  0  0
 32 33  2  0  0  0  0
 32 36  1  0  0  0  0
 33 35  1  0  0  0  0
 33 37  1  0  0  0  0
 34 59  1  0  0  0  0
 34 60  1  0  0  0  0
 34 61  1  0  0  0  0
 35 38  2  0  0  0  0
 36 39  2  0  0  0  0
 36 62  1  0  0  0  0
 37 40  2  0  0  0  0
 37 63  1  0  0  0  0
 38 39  1  0  0  0  0
 38 64  1  0  0  0  0
 39 65  1  0  0  0  0
 40 41  1  0  0  0  0
 40 66  1  0  0  0  0
 41 42  1  0  0  0  0
 42 67  1  0  0  0  0
 42 68  1  0  0  0  0
 42 69  1  0  0  0  0
M  END
> <PUBCHEM_COMPOUND_CID>
11628631

> <PUBCHEM_COMPOUND_CANONICALIZED>
1

> <PUBCHEM_CACTVS_COMPLEXITY>
918

> <PUBCHEM_CACTVS_HBOND_ACCEPTOR>
12

> <PUBCHEM_CACTVS_HBOND_DONOR>
0

> <PUBCHEM_CACTVS_ROTATABLE_BOND>
7

> <PUBCHEM_CACTVS_SUBSKEYS>
AAADceB7ocBAAAAAAAAAAAAAAAAAAWLAAAA8YIAABYAAAFix/gAAHwQIAAAADAzF3xSz1vcMFEiqA6dydASS2CtvYrAd2CG/bNiOLvLkvbuPOSjkzBPY6YeY2fKOqAABQAASEABQAAKAACQgAAAAAAAAAA==

> <PUBCHEM_IUPAC_OPENEYE_NAME>
7-[3-[[4-methyl-5-(2-methyl-5-quinolyl)-1,2,4-triazol-3-yl]sulfanyl]propyl]-2-(1,1,2,2,2-pentafluoroethyl)-5,6,8,9-tetrahydrooxazolo[4,5-h][3]benzazepine

> <PUBCHEM_IUPAC_CAS_NAME>
7-[3-[[4-methyl-5-(2-methyl-5-quinolinyl)-1,2,4-triazol-3-yl]thio]propyl]-2-(1,1,2,2,2-pentafluoroethyl)-5,6,8,9-tetrahydrooxazolo[4,5-h][3]benzazepine

> <PUBCHEM_IUPAC_NAME_MARKUP>
7-[3-[[4-methyl-5-(2-methylquinolin-5-yl)-1,2,4-triazol-3-yl]sulfanyl]propyl]-2-(1,1,2,2,2-pentafluoroethyl)-5,6,8,9-tetrahydro-[1,3]oxazolo[4,5-h][3]benzazepine

> <PUBCHEM_IUPAC_NAME>
7-[3-[[4-methyl-5-(2-methylquinolin-5-yl)-1,2,4-triazol-3-yl]sulfanyl]propyl]-2-(1,1,2,2,2-pentafluoroethyl)-5,6,8,9-tetrahydro-[1,3]oxazolo[4,5-h][3]benzazepine

> <PUBCHEM_IUPAC_SYSTEMATIC_NAME>
7-[3-[[4-methyl-5-(2-methylquinolin-5-yl)-1,2,4-triazol-3-yl]sulfanyl]propyl]-2-[1,1,2,2,2-pentakis(fluoranyl)ethyl]-5,6,8,9-tetrahydro-[1,3]oxazolo[4,5-h][3]benzazepine

> <PUBCHEM_IUPAC_TRADITIONAL_NAME>
7-[3-[[4-methyl-5-(2-methyl-5-quinolyl)-1,2,4-triazol-3-yl]thio]propyl]-2-(1,1,2,2,2-pentafluoroethyl)-5,6,8,9-tetrahydrooxazolo[4,5-h][3]benzazepine

> <PUBCHEM_IUPAC_INCHI>
InChI=1S/C29H27F5N6OS/c1-17-7-8-20-21(5-3-6-22(20)35-17)25-37-38-27(39(25)2)42-14-4-11-40-12-9-18-15-23-24(16-19(18)10-13-40)41-26(36-23)28(30,31)29(32,33)34/h3,5-8,15-16H,4,9-14H2,1-2H3

> <PUBCHEM_IUPAC_INCHIKEY>
HRUTWQCXFHLYSD-UHFFFAOYSA-N

> <PUBCHEM_XLOGP3_AA>
6.4

> <PUBCHEM_EXACT_MASS>
602.18872149

> <PUBCHEM_MOLECULAR_FORMULA>
C29H27F5N6OS

> <PUBCHEM_MOLECULAR_WEIGHT>
602.6

> <PUBCHEM_OPENEYE_CAN_SMILES>
CC1=NC2=CC=CC(=C2C=C1)C3=NN=C(N3C)SCCCN4CCC5=CC6=C(C=C5CC4)OC(=N6)C(C(F)(F)F)(F)F

> <PUBCHEM_OPENEYE_ISO_SMILES>
CC1=NC2=CC=CC(=C2C=C1)C3=NN=C(N3C)SCCCN4CCC5=CC6=C(C=C5CC4)OC(=N6)C(C(F)(F)F)(F)F

> <PUBCHEM_CACTVS_TPSA>
98.2

> <PUBCHEM_MONOISOTOPIC_WEIGHT>
602.18872149

> <PUBCHEM_TOTAL_CHARGE>
0

> <PUBCHEM_HEAVY_ATOM_COUNT>
42

> <PUBCHEM_ATOM_DEF_STEREO_COUNT>
0

> <PUBCHEM_ATOM_UDEF_STEREO_COUNT>
0

> <PUBCHEM_BOND_DEF_STEREO_COUNT>
0

> <PUBCHEM_BOND_UDEF_STEREO_COUNT>
0

> <PUBCHEM_ISOTOPIC_ATOM_COUNT>
0

> <PUBCHEM_COMPONENT_COUNT>
1

> <PUBCHEM_CACTVS_TAUTO_COUNT>
-1

> <PUBCHEM_COORDINATE_TYPE>
1
5
255

> <PUBCHEM_BONDANNOTATIONS>
10  29  8
10  30  8
11  12  8
11  29  8
12  30  8
13  35  8
13  41  8
18  19  8
18  22  8
19  23  8
22  24  8
23  25  8
24  25  8
32  33  8
32  36  8
33  35  8
33  37  8
35  38  8
36  39  8
37  40  8
38  39  8
40  41  8
7  24  8
7  27  8
9  25  8
9  27  8

$$$$
