57326789
  -OEChem-09292322072D

110117  0     0  0  0  0  0  0999 V2000
    8.7204    5.5770    0.0000 Cl  0  0  0  0  0  0  0  0  0  0  0  0
    5.3756   -5.5770    0.0000 Cl  0  0  0  0  0  0  0  0  0  0  0  0
    4.0170    2.7500    0.0000 O   0  0  0  0  0  0  0  0  0  0  0  0
   10.0791   -2.7500    0.0000 O   0  0  0  0  0  0  0  0  0  0  0  0
    3.9491    7.3416    0.0000 N   0  0  0  0  0  0  0  0  0  0  0  0
   10.1469   -7.3416    0.0000 N   0  0  0  0  0  0  0  0  0  0  0  0
    3.0814    9.1436    0.0000 N   0  0  0  0  0  0  0  0  0  0  0  0
   11.0147   -9.1436    0.0000 N   0  0  0  0  0  0  0  0  0  0  0  0
    4.8830    4.2500    0.0000 N   0  0  0  0  0  0  0  0  0  0  0  0
    9.2131   -4.2500    0.0000 N   0  0  0  0  0  0  0  0  0  0  0  0
    5.3830    6.4407    0.0000 N   0  0  0  0  0  0  0  0  0  0  0  0
    8.7130   -6.4407    0.0000 N   0  0  0  0  0  0  0  0  0  0  0  0
    4.5125    8.1679    0.0000 C   0  0  0  0  0  0  0  0  0  0  0  0
    2.9519    7.4164    0.0000 C   0  0  0  0  0  0  0  0  0  0  0  0
    9.5836   -8.1679    0.0000 C   0  0  0  0  0  0  0  0  0  0  0  0
   11.1441   -7.4164    0.0000 C   0  0  0  0  0  0  0  0  0  0  0  0
    4.0786    9.0688    0.0000 C   0  0  0  0  0  0  0  0  0  0  0  0
    2.5180    8.3173    0.0000 C   0  0  0  0  0  0  0  0  0  0  0  0
   10.0175   -9.0688    0.0000 C   0  0  0  0  0  0  0  0  0  0  0  0
   11.5780   -8.3173    0.0000 C   0  0  0  0  0  0  0  0  0  0  0  0
    4.3830    6.4407    0.0000 C   0  0  0  0  0  0  0  0  0  0  0  0
    9.7130   -6.4407    0.0000 C   0  0  0  0  0  0  0  0  0  0  0  0
    3.7595    5.6588    0.0000 C   0  0  0  0  0  0  0  0  0  0  0  0
   10.3365   -5.6588    0.0000 C   0  0  0  0  0  0  0  0  0  0  0  0
    6.6150    0.2500    0.0000 C   0  0  0  0  0  0  0  0  0  0  0  0
    7.4810   -0.2500    0.0000 C   0  0  0  0  0  0  0  0  0  0  0  0
    6.6150    1.2500    0.0000 C   0  0  0  0  0  0  0  0  0  0  0  0
    7.4810   -1.2500    0.0000 C   0  0  0  0  0  0  0  0  0  0  0  0
    2.6475   10.0446    0.0000 C   0  0  0  0  0  0  0  0  0  0  0  0
   11.4485  -10.0446    0.0000 C   0  0  0  0  0  0  0  0  0  0  0  0
    3.9820    4.6839    0.0000 C   0  0  0  0  0  0  0  0  0  0  0  0
   10.1140   -4.6839    0.0000 C   0  0  0  0  0  0  0  0  0  0  0  0
    5.7490    1.7500    0.0000 C   0  0  0  0  0  0  0  0  0  0  0  0
    8.3470   -1.7500    0.0000 C   0  0  0  0  0  0  0  0  0  0  0  0
    5.7490    2.7500    0.0000 C   0  0  0  0  0  0  0  0  0  0  0  0
    8.3470   -2.7500    0.0000 C   0  0  0  0  0  0  0  0  0  0  0  0
    5.7840    4.6839    0.0000 C   0  0  0  0  0  0  0  0  0  0  0  0
    8.3121   -4.6839    0.0000 C   0  0  0  0  0  0  0  0  0  0  0  0
    4.8830    3.2500    0.0000 C   0  0  0  0  0  0  0  0  0  0  0  0
    9.2131   -3.2500    0.0000 C   0  0  0  0  0  0  0  0  0  0  0  0
    6.0065    5.6588    0.0000 C   0  0  0  0  0  0  0  0  0  0  0  0
    8.0896   -5.6588    0.0000 C   0  0  0  0  0  0  0  0  0  0  0  0
    2.7690    5.9812    0.0000 C   0  0  0  0  0  0  0  0  0  0  0  0
   11.3270   -5.9812    0.0000 C   0  0  0  0  0  0  0  0  0  0  0  0
    3.2295    3.9637    0.0000 C   0  0  0  0  0  0  0  0  0  0  0  0
   10.8666   -3.9637    0.0000 C   0  0  0  0  0  0  0  0  0  0  0  0
    6.5365    3.9637    0.0000 C   0  0  0  0  0  0  0  0  0  0  0  0
    7.5595   -3.9637    0.0000 C   0  0  0  0  0  0  0  0  0  0  0  0
    2.0000    5.2786    0.0000 C   0  0  0  0  0  0  0  0  0  0  0  0
   12.0960   -5.2786    0.0000 C   0  0  0  0  0  0  0  0  0  0  0  0
    6.9970    5.9812    0.0000 C   0  0  0  0  0  0  0  0  0  0  0  0
    7.0990   -5.9812    0.0000 C   0  0  0  0  0  0  0  0  0  0  0  0
    2.2318    4.2631    0.0000 C   0  0  0  0  0  0  0  0  0  0  0  0
   11.8643   -4.2631    0.0000 C   0  0  0  0  0  0  0  0  0  0  0  0
    7.5342    4.2630    0.0000 C   0  0  0  0  0  0  0  0  0  0  0  0
    6.5618   -4.2630    0.0000 C   0  0  0  0  0  0  0  0  0  0  0  0
    7.7660    5.2786    0.0000 C   0  0  0  0  0  0  0  0  0  0  0  0
    6.3300   -5.2786    0.0000 C   0  0  0  0  0  0  0  0  0  0  0  0
    4.9563    7.7350    0.0000 H   0  0  0  0  0  0  0  0  0  0  0  0
    5.0159    8.5298    0.0000 H   0  0  0  0  0  0  0  0  0  0  0  0
    2.3551    7.2485    0.0000 H   0  0  0  0  0  0  0  0  0  0  0  0
    3.0137    6.7994    0.0000 H   0  0  0  0  0  0  0  0  0  0  0  0
    9.1398   -7.7350    0.0000 H   0  0  0  0  0  0  0  0  0  0  0  0
    9.0802   -8.5298    0.0000 H   0  0  0  0  0  0  0  0  0  0  0  0
   11.7409   -7.2485    0.0000 H   0  0  0  0  0  0  0  0  0  0  0  0
   11.0824   -6.7994    0.0000 H   0  0  0  0  0  0  0  0  0  0  0  0
    4.6754    9.2368    0.0000 H   0  0  0  0  0  0  0  0  0  0  0  0
    4.0168    9.6858    0.0000 H   0  0  0  0  0  0  0  0  0  0  0  0
    2.0742    8.7502    0.0000 H   0  0  0  0  0  0  0  0  0  0  0  0
    2.0146    7.9554    0.0000 H   0  0  0  0  0  0  0  0  0  0  0  0
    9.4206   -9.2368    0.0000 H   0  0  0  0  0  0  0  0  0  0  0  0
   10.0792   -9.6858    0.0000 H   0  0  0  0  0  0  0  0  0  0  0  0
   12.0218   -8.7502    0.0000 H   0  0  0  0  0  0  0  0  0  0  0  0
   12.0814   -7.9554    0.0000 H   0  0  0  0  0  0  0  0  0  0  0  0
    6.0044    0.3577    0.0000 H   0  0  0  0  0  0  0  0  0  0  0  0
    6.4030   -0.3326    0.0000 H   0  0  0  0  0  0  0  0  0  0  0  0
    8.0916   -0.3577    0.0000 H   0  0  0  0  0  0  0  0  0  0  0  0
    7.6931    0.3326    0.0000 H   0  0  0  0  0  0  0  0  0  0  0  0
    7.2256    1.1423    0.0000 H   0  0  0  0  0  0  0  0  0  0  0  0
    6.8271    1.8326    0.0000 H   0  0  0  0  0  0  0  0  0  0  0  0
    6.8704   -1.1423    0.0000 H   0  0  0  0  0  0  0  0  0  0  0  0
    7.2690   -1.8326    0.0000 H   0  0  0  0  0  0  0  0  0  0  0  0
    3.2061   10.3136    0.0000 H   0  0  0  0  0  0  0  0  0  0  0  0
    2.3785   10.6032    0.0000 H   0  0  0  0  0  0  0  0  0  0  0  0
    2.0889    9.7756    0.0000 H   0  0  0  0  0  0  0  0  0  0  0  0
   10.8899  -10.3136    0.0000 H   0  0  0  0  0  0  0  0  0  0  0  0
   11.7176  -10.6032    0.0000 H   0  0  0  0  0  0  0  0  0  0  0  0
   12.0072   -9.7756    0.0000 H   0  0  0  0  0  0  0  0  0  0  0  0
    5.1384    1.8577    0.0000 H   0  0  0  0  0  0  0  0  0  0  0  0
    5.5369    1.1674    0.0000 H   0  0  0  0  0  0  0  0  0  0  0  0
    8.9576   -1.8577    0.0000 H   0  0  0  0  0  0  0  0  0  0  0  0
    8.5591   -1.1674    0.0000 H   0  0  0  0  0  0  0  0  0  0  0  0
    6.3596    2.6423    0.0000 H   0  0  0  0  0  0  0  0  0  0  0  0
    5.9611    3.3326    0.0000 H   0  0  0  0  0  0  0  0  0  0  0  0
    7.7365   -2.6423    0.0000 H   0  0  0  0  0  0  0  0  0  0  0  0
    8.1350   -3.3326    0.0000 H   0  0  0  0  0  0  0  0  0  0  0  0
    2.6380    6.5872    0.0000 H   0  0  0  0  0  0  0  0  0  0  0  0
   11.4580   -6.5872    0.0000 H   0  0  0  0  0  0  0  0  0  0  0  0
    3.3744    3.3609    0.0000 H   0  0  0  0  0  0  0  0  0  0  0  0
   10.7216   -3.3609    0.0000 H   0  0  0  0  0  0  0  0  0  0  0  0
    6.3916    3.3609    0.0000 H   0  0  0  0  0  0  0  0  0  0  0  0
    7.7045   -3.3609    0.0000 H   0  0  0  0  0  0  0  0  0  0  0  0
    1.4082    5.4636    0.0000 H   0  0  0  0  0  0  0  0  0  0  0  0
   12.6878   -5.4636    0.0000 H   0  0  0  0  0  0  0  0  0  0  0  0
    7.1280    6.5872    0.0000 H   0  0  0  0  0  0  0  0  0  0  0  0
    6.9681   -6.5872    0.0000 H   0  0  0  0  0  0  0  0  0  0  0  0
    1.7789    3.8396    0.0000 H   0  0  0  0  0  0  0  0  0  0  0  0
   12.3171   -3.8396    0.0000 H   0  0  0  0  0  0  0  0  0  0  0  0
    7.9871    3.8396    0.0000 H   0  0  0  0  0  0  0  0  0  0  0  0
    6.1090   -3.8396    0.0000 H   0  0  0  0  0  0  0  0  0  0  0  0
  1 57  1  0  0  0  0
  2 58  1  0  0  0  0
  3 39  2  0  0  0  0
  4 40  2  0  0  0  0
  5 13  1  0  0  0  0
  5 14  1  0  0  0  0
  5 21  1  0  0  0  0
  6 15  1  0  0  0  0
  6 16  1  0  0  0  0
  6 22  1  0  0  0  0
  7 17  1  0  0  0  0
  7 18  1  0  0  0  0
  7 29  1  0  0  0  0
  8 19  1  0  0  0  0
  8 20  1  0  0  0  0
  8 30  1  0  0  0  0
  9 31  1  0  0  0  0
  9 37  1  0  0  0  0
  9 39  1  0  0  0  0
 10 32  1  0  0  0  0
 10 38  1  0  0  0  0
 10 40  1  0  0  0  0
 11 21  2  0  0  0  0
 11 41  1  0  0  0  0
 12 22  2  0  0  0  0
 12 42  1  0  0  0  0
 13 17  1  0  0  0  0
 13 59  1  0  0  0  0
 13 60  1  0  0  0  0
 14 18  1  0  0  0  0
 14 61  1  0  0  0  0
 14 62  1  0  0  0  0
 15 19  1  0  0  0  0
 15 63  1  0  0  0  0
 15 64  1  0  0  0  0
 16 20  1  0  0  0  0
 16 65  1  0  0  0  0
 16 66  1  0  0  0  0
 17 67  1  0  0  0  0
 17 68  1  0  0  0  0
 18 69  1  0  0  0  0
 18 70  1  0  0  0  0
 19 71  1  0  0  0  0
 19 72  1  0  0  0  0
 20 73  1  0  0  0  0
 20 74  1  0  0  0  0
 21 23  1  0  0  0  0
 22 24  1  0  0  0  0
 23 31  1  0  0  0  0
 23 43  2  0  0  0  0
 24 32  1  0  0  0  0
 24 44  2  0  0  0  0
 25 26  1  0  0  0  0
 25 27  1  0  0  0  0
 25 75  1  0  0  0  0
 25 76  1  0  0  0  0
 26 28  1  0  0  0  0
 26 77  1  0  0  0  0
 26 78  1  0  0  0  0
 27 33  1  0  0  0  0
 27 79  1  0  0  0  0
 27 80  1  0  0  0  0
 28 34  1  0  0  0  0
 28 81  1  0  0  0  0
 28 82  1  0  0  0  0
 29 83  1  0  0  0  0
 29 84  1  0  0  0  0
 29 85  1  0  0  0  0
 30 86  1  0  0  0  0
 30 87  1  0  0  0  0
 30 88  1  0  0  0  0
 31 45  2  0  0  0  0
 32 46  2  0  0  0  0
 33 35  1  0  0  0  0
 33 89  1  0  0  0  0
 33 90  1  0  0  0  0
 34 36  1  0  0  0  0
 34 91  1  0  0  0  0
 34 92  1  0  0  0  0
 35 39  1  0  0  0  0
 35 93  1  0  0  0  0
 35 94  1  0  0  0  0
 36 40  1  0  0  0  0
 36 95  1  0  0  0  0
 36 96  1  0  0  0  0
 37 41  2  0  0  0  0
 37 47  1  0  0  0  0
 38 42  2  0  0  0  0
 38 48  1  0  0  0  0
 41 51  1  0  0  0  0
 42 52  1  0  0  0  0
 43 49  1  0  0  0  0
 43 97  1  0  0  0  0
 44 50  1  0  0  0  0
 44 98  1  0  0  0  0
 45 53  1  0  0  0  0
 45 99  1  0  0  0  0
 46 54  1  0  0  0  0
 46100  1  0  0  0  0
 47 55  2  0  0  0  0
 47101  1  0  0  0  0
 48 56  2  0  0  0  0
 48102  1  0  0  0  0
 49 53  2  0  0  0  0
 49103  1  0  0  0  0
 50 54  2  0  0  0  0
 50104  1  0  0  0  0
 51 57  2  0  0  0  0
 51105  1  0  0  0  0
 52 58  2  0  0  0  0
 52106  1  0  0  0  0
 53107  1  0  0  0  0
 54108  1  0  0  0  0
 55 57  1  0  0  0  0
 55109  1  0  0  0  0
 56 58  1  0  0  0  0
 56110  1  0  0  0  0
M  END
> <PUBCHEM_COMPOUND_CID>
57326789

> <PUBCHEM_COMPOUND_CANONICALIZED>
1

> <PUBCHEM_CACTVS_COMPLEXITY>
1340

> <PUBCHEM_CACTVS_HBOND_ACCEPTOR>
6

> <PUBCHEM_CACTVS_HBOND_DONOR>
0

> <PUBCHEM_CACTVS_ROTATABLE_BOND>
11

> <PUBCHEM_CACTVS_SUBSKEYS>
AAADcfB/8AAGAAAAAAAAAAAAAAAAAAAAAAA8eMGCBAgAAAABVAAAHgIAAAAADArBmCQzwIMAAACoAidydACCAAEhBwAJiAEodpgIYPLB25GUIAhghADIyAcYiICOAABAAAICACAAAIAABAQAQAAAAAAAAA==

> <PUBCHEM_IUPAC_OPENEYE_NAME>
1,10-bis[3-chloro-6-(4-methylpiperazin-1-yl)benzo[b][1,4]benzodiazepin-11-yl]decane-1,10-dione

> <PUBCHEM_IUPAC_CAS_NAME>
1,10-bis[3-chloro-6-(4-methyl-1-piperazinyl)-11-benzo[b][1,4]benzodiazepinyl]decane-1,10-dione

> <PUBCHEM_IUPAC_NAME_MARKUP>
1,10-bis[3-chloro-6-(4-methylpiperazin-1-yl)benzo[b][1,4]benzodiazepin-11-yl]decane-1,10-dione

> <PUBCHEM_IUPAC_NAME>
1,10-bis[3-chloro-6-(4-methylpiperazin-1-yl)benzo[b][1,4]benzodiazepin-11-yl]decane-1,10-dione

> <PUBCHEM_IUPAC_SYSTEMATIC_NAME>
1,10-bis[3-chloranyl-6-(4-methylpiperazin-1-yl)benzo[b][1,4]benzodiazepin-11-yl]decane-1,10-dione

> <PUBCHEM_IUPAC_TRADITIONAL_NAME>
1,10-bis[3-chloro-6-(4-methylpiperazino)benzo[b][1,4]benzodiazepin-11-yl]decane-1,10-dione

> <PUBCHEM_IUPAC_INCHI>
InChI=1S/C46H52Cl2N8O2/c1-51-23-27-53(28-24-51)45-35-13-9-11-15-39(35)55(41-21-19-33(47)31-37(41)49-45)43(57)17-7-5-3-4-6-8-18-44(58)56-40-16-12-10-14-36(40)46(54-29-25-52(2)26-30-54)50-38-32-34(48)20-22-42(38)56/h9-16,19-22,31-32H,3-8,17-18,23-30H2,1-2H3

> <PUBCHEM_IUPAC_INCHIKEY>
PEXULPFPDMJMCB-UHFFFAOYSA-N

> <PUBCHEM_XLOGP3_AA>
7.4

> <PUBCHEM_EXACT_MASS>
818.3590283

> <PUBCHEM_MOLECULAR_FORMULA>
C46H52Cl2N8O2

> <PUBCHEM_MOLECULAR_WEIGHT>
819.9

> <PUBCHEM_OPENEYE_CAN_SMILES>
CN1CCN(CC1)C2=NC3=C(C=CC(=C3)Cl)N(C4=CC=CC=C42)C(=O)CCCCCCCCC(=O)N5C6=C(C=C(C=C6)Cl)N=C(C7=CC=CC=C75)N8CCN(CC8)C

> <PUBCHEM_OPENEYE_ISO_SMILES>
CN1CCN(CC1)C2=NC3=C(C=CC(=C3)Cl)N(C4=CC=CC=C42)C(=O)CCCCCCCCC(=O)N5C6=C(C=C(C=C6)Cl)N=C(C7=CC=CC=C75)N8CCN(CC8)C

> <PUBCHEM_CACTVS_TPSA>
78.3

> <PUBCHEM_MONOISOTOPIC_WEIGHT>
818.3590283

> <PUBCHEM_TOTAL_CHARGE>
0

> <PUBCHEM_HEAVY_ATOM_COUNT>
58

> <PUBCHEM_ATOM_DEF_STEREO_COUNT>
0

> <PUBCHEM_ATOM_UDEF_STEREO_COUNT>
0

> <PUBCHEM_BOND_DEF_STEREO_COUNT>
0

> <PUBCHEM_BOND_UDEF_STEREO_COUNT>
0

> <PUBCHEM_ISOTOPIC_ATOM_COUNT>
0

> <PUBCHEM_COMPONENT_COUNT>
1

> <PUBCHEM_CACTVS_TAUTO_COUNT>
-1

> <PUBCHEM_COORDINATE_TYPE>
1
5
255

> <PUBCHEM_BONDANNOTATIONS>
23  31  8
23  43  8
24  32  8
24  44  8
31  45  8
32  46  8
37  41  8
37  47  8
38  42  8
38  48  8
41  51  8
42  52  8
43  49  8
44  50  8
45  53  8
46  54  8
47  55  8
48  56  8
49  53  8
50  54  8
51  57  8
52  58  8
55  57  8
56  58  8

$$$$
