71459954
  -OEChem-09292322522D

 49 52  0     1  0  0  0  0  0999 V2000
    4.5981    0.9911    0.0000 I   0  0  0  0  0  0  0  0  0  0  0  0
    5.4641   -0.5089    0.0000 S   0  0  0  0  0  0  0  0  0  0  0  0
    4.9641    0.3572    0.0000 O   0  0  0  0  0  0  0  0  0  0  0  0
    5.9641   -1.3749    0.0000 O   0  0  0  0  0  0  0  0  0  0  0  0
   11.5719    1.8654    0.0000 N   0  0  0  0  0  0  0  0  0  0  0  0
    9.8744   -1.8136    0.0000 N   0  0  0  0  0  0  0  0  0  0  0  0
    6.3301   -0.0089    0.0000 N   0  0  0  0  0  0  0  0  0  0  0  0
   11.1636    0.9526    0.0000 C   0  0  2  0  0  0  0  0  0  0  0  0
   11.9056    0.2822    0.0000 C   0  0  0  0  0  0  0  0  0  0  0  0
   12.7725    0.7807    0.0000 C   0  0  0  0  0  0  0  0  0  0  0  0
   10.1851    0.7464    0.0000 C   0  0  0  0  0  0  0  0  0  0  0  0
   12.5662    1.7592    0.0000 C   0  0  0  0  0  0  0  0  0  0  0  0
    9.8744   -0.2041    0.0000 C   0  0  0  0  0  0  0  0  0  0  0  0
    8.9282   -0.5089    0.0000 C   0  0  0  0  0  0  0  0  0  0  0  0
   10.4580   -1.0089    0.0000 C   0  0  0  0  0  0  0  0  0  0  0  0
    8.9282   -1.5089    0.0000 C   0  0  0  0  0  0  0  0  0  0  0  0
    8.0622   -0.0089    0.0000 C   0  0  0  0  0  0  0  0  0  0  0  0
    7.1962   -0.5089    0.0000 C   0  0  0  0  0  0  0  0  0  0  0  0
    8.0622   -2.0089    0.0000 C   0  0  0  0  0  0  0  0  0  0  0  0
    7.1962   -1.5089    0.0000 C   0  0  0  0  0  0  0  0  0  0  0  0
    4.5981   -1.0089    0.0000 C   0  0  0  0  0  0  0  0  0  0  0  0
    3.7320   -0.5089    0.0000 C   0  0  0  0  0  0  0  0  0  0  0  0
    3.7320    0.4911    0.0000 C   0  0  0  0  0  0  0  0  0  0  0  0
    2.8660   -1.0089    0.0000 C   0  0  0  0  0  0  0  0  0  0  0  0
    2.8660    0.9911    0.0000 C   0  0  0  0  0  0  0  0  0  0  0  0
    2.0000   -0.5089    0.0000 C   0  0  0  0  0  0  0  0  0  0  0  0
    2.0000    0.4911    0.0000 C   0  0  0  0  0  0  0  0  0  0  0  0
   10.7742    1.4351    0.0000 H   0  0  0  0  0  0  0  0  0  0  0  0
   11.4441   -0.1319    0.0000 H   0  0  0  0  0  0  0  0  0  0  0  0
   12.2691   -0.2200    0.0000 H   0  0  0  0  0  0  0  0  0  0  0  0
   13.0237    0.2139    0.0000 H   0  0  0  0  0  0  0  0  0  0  0  0
   13.3625    0.9713    0.0000 H   0  0  0  0  0  0  0  0  0  0  0  0
   10.1645    1.3660    0.0000 H   0  0  0  0  0  0  0  0  0  0  0  0
    9.5713    0.8337    0.0000 H   0  0  0  0  0  0  0  0  0  0  0  0
   13.1830    1.8229    0.0000 H   0  0  0  0  0  0  0  0  0  0  0  0
   12.5673    2.3792    0.0000 H   0  0  0  0  0  0  0  0  0  0  0  0
   11.2628    2.4029    0.0000 H   0  0  0  0  0  0  0  0  0  0  0  0
   11.0780   -1.0089    0.0000 H   0  0  0  0  0  0  0  0  0  0  0  0
   10.0670   -2.4029    0.0000 H   0  0  0  0  0  0  0  0  0  0  0  0
    8.0622    0.6111    0.0000 H   0  0  0  0  0  0  0  0  0  0  0  0
    8.0622   -2.6289    0.0000 H   0  0  0  0  0  0  0  0  0  0  0  0
    6.6592   -1.8189    0.0000 H   0  0  0  0  0  0  0  0  0  0  0  0
    6.3301    0.6111    0.0000 H   0  0  0  0  0  0  0  0  0  0  0  0
    4.1996   -1.4838    0.0000 H   0  0  0  0  0  0  0  0  0  0  0  0
    4.9966   -1.4838    0.0000 H   0  0  0  0  0  0  0  0  0  0  0  0
    2.8660   -1.6289    0.0000 H   0  0  0  0  0  0  0  0  0  0  0  0
    2.8660    1.6111    0.0000 H   0  0  0  0  0  0  0  0  0  0  0  0
    1.4631   -0.8189    0.0000 H   0  0  0  0  0  0  0  0  0  0  0  0
    1.4631    0.8011    0.0000 H   0  0  0  0  0  0  0  0  0  0  0  0
  1 23  1  0  0  0  0
  2  3  2  0  0  0  0
  2  4  2  0  0  0  0
  2  7  1  0  0  0  0
  2 21  1  0  0  0  0
  5  8  1  0  0  0  0
  5 12  1  0  0  0  0
  5 37  1  0  0  0  0
  6 15  1  0  0  0  0
  6 16  1  0  0  0  0
  6 39  1  0  0  0  0
  7 18  1  0  0  0  0
  7 43  1  0  0  0  0
  8  9  1  0  0  0  0
  8 11  1  6  0  0  0
  8 28  1  0  0  0  0
  9 10  1  0  0  0  0
  9 29  1  0  0  0  0
  9 30  1  0  0  0  0
 10 12  1  0  0  0  0
 10 31  1  0  0  0  0
 10 32  1  0  0  0  0
 11 13  1  0  0  0  0
 11 33  1  0  0  0  0
 11 34  1  0  0  0  0
 12 35  1  0  0  0  0
 12 36  1  0  0  0  0
 13 14  1  0  0  0  0
 13 15  2  0  0  0  0
 14 16  2  0  0  0  0
 14 17  1  0  0  0  0
 15 38  1  0  0  0  0
 16 19  1  0  0  0  0
 17 18  2  0  0  0  0
 17 40  1  0  0  0  0
 18 20  1  0  0  0  0
 19 20  2  0  0  0  0
 19 41  1  0  0  0  0
 20 42  1  0  0  0  0
 21 22  1  0  0  0  0
 21 44  1  0  0  0  0
 21 45  1  0  0  0  0
 22 23  1  0  0  0  0
 22 24  2  0  0  0  0
 23 25  2  0  0  0  0
 24 26  1  0  0  0  0
 24 46  1  0  0  0  0
 25 27  1  0  0  0  0
 25 47  1  0  0  0  0
 26 27  2  0  0  0  0
 26 48  1  0  0  0  0
 27 49  1  0  0  0  0
M  END
> <PUBCHEM_COMPOUND_CID>
71459954

> <PUBCHEM_COMPOUND_CANONICALIZED>
1

> <PUBCHEM_CACTVS_COMPLEXITY>
597

> <PUBCHEM_CACTVS_HBOND_ACCEPTOR>
4

> <PUBCHEM_CACTVS_HBOND_DONOR>
3

> <PUBCHEM_CACTVS_ROTATABLE_BOND>
6

> <PUBCHEM_CACTVS_SUBSKEYS>
AAADceB7MABAAgAAAAAAAAAAAAAAAWLAAAAwYAAAAAAAAFgB9AAAHAQwQAAADCjHXgS8wPLJkAKgAzRnRHDCgCAxAiAI2aA4ZJgIIOLAkZGEIAhgkADIyAcQgMAOgACAQAACAAAAAQCAAAQAAAAAAAAAAA==

> <PUBCHEM_IUPAC_OPENEYE_NAME>
1-(2-iodophenyl)-N-[3-[[(2R)-pyrrolidin-2-yl]methyl]-1H-indol-5-yl]methanesulfonamide

> <PUBCHEM_IUPAC_CAS_NAME>
1-(2-iodophenyl)-N-[3-[[(2R)-2-pyrrolidinyl]methyl]-1H-indol-5-yl]methanesulfonamide

> <PUBCHEM_IUPAC_NAME_MARKUP>
1-(2-iodophenyl)-<I>N</I>-[3-[[(2<I>R</I>)-pyrrolidin-2-yl]methyl]-1<I>H</I>-indol-5-yl]methanesulfonamide

> <PUBCHEM_IUPAC_NAME>
1-(2-iodophenyl)-N-[3-[[(2R)-pyrrolidin-2-yl]methyl]-1H-indol-5-yl]methanesulfonamide

> <PUBCHEM_IUPAC_SYSTEMATIC_NAME>
1-(2-iodanylphenyl)-N-[3-[[(2R)-pyrrolidin-2-yl]methyl]-1H-indol-5-yl]methanesulfonamide

> <PUBCHEM_IUPAC_TRADITIONAL_NAME>
1-(2-iodophenyl)-N-[3-[[(2R)-pyrrolidin-2-yl]methyl]-1H-indol-5-yl]methanesulfonamide

> <PUBCHEM_IUPAC_INCHI>
InChI=1S/C20H22IN3O2S/c21-19-6-2-1-4-14(19)13-27(25,26)24-17-7-8-20-18(11-17)15(12-23-20)10-16-5-3-9-22-16/h1-2,4,6-8,11-12,16,22-24H,3,5,9-10,13H2/t16-/m1/s1

> <PUBCHEM_IUPAC_INCHIKEY>
DXNOFPQQCQAJFH-MRXNPFEDSA-N

> <PUBCHEM_XLOGP3_AA>
3.5

> <PUBCHEM_EXACT_MASS>
495.04775

> <PUBCHEM_MOLECULAR_FORMULA>
C20H22IN3O2S

> <PUBCHEM_MOLECULAR_WEIGHT>
495.4

> <PUBCHEM_OPENEYE_CAN_SMILES>
C1CC(NC1)CC2=CNC3=C2C=C(C=C3)NS(=O)(=O)CC4=CC=CC=C4I

> <PUBCHEM_OPENEYE_ISO_SMILES>
C1C[C@@H](NC1)CC2=CNC3=C2C=C(C=C3)NS(=O)(=O)CC4=CC=CC=C4I

> <PUBCHEM_CACTVS_TPSA>
82.4

> <PUBCHEM_MONOISOTOPIC_WEIGHT>
495.04775

> <PUBCHEM_TOTAL_CHARGE>
0

> <PUBCHEM_HEAVY_ATOM_COUNT>
27

> <PUBCHEM_ATOM_DEF_STEREO_COUNT>
1

> <PUBCHEM_ATOM_UDEF_STEREO_COUNT>
0

> <PUBCHEM_BOND_DEF_STEREO_COUNT>
0

> <PUBCHEM_BOND_UDEF_STEREO_COUNT>
0

> <PUBCHEM_ISOTOPIC_ATOM_COUNT>
0

> <PUBCHEM_COMPONENT_COUNT>
1

> <PUBCHEM_CACTVS_TAUTO_COUNT>
-1

> <PUBCHEM_COORDINATE_TYPE>
1
5
255

> <PUBCHEM_BONDANNOTATIONS>
13  14  8
13  15  8
14  16  8
14  17  8
16  19  8
17  18  8
18  20  8
19  20  8
22  23  8
22  24  8
23  25  8
24  26  8
25  27  8
26  27  8
6  15  8
6  16  8
8  11  6

$$$$
