46888928
  -OEChem-09292322292D

 62 67  0     1  0  0  0  0  0999 V2000
    7.1719   -3.8482    0.0000 O   0  0  0  0  0  0  0  0  0  0  0  0
    5.3798   -2.8136    0.0000 O   0  0  0  0  0  0  0  0  0  0  0  0
   10.6910    6.2491    0.0000 O   0  0  0  0  0  0  0  0  0  0  0  0
    2.0000   -4.8551    0.0000 O   0  0  0  0  0  0  0  0  0  0  0  0
    8.0517   -1.3100    0.0000 N   0  0  0  0  0  0  0  0  0  0  0  0
    9.7910    4.7249    0.0000 N   0  0  0  0  0  0  0  0  0  0  0  0
    3.5836   -5.6598    0.0000 N   0  0  0  0  0  0  0  0  0  0  0  0
    8.0594    0.6900    0.0000 C   0  0  0  0  0  0  0  0  0  0  0  0
    8.9235    0.1867    0.0000 C   0  0  0  0  0  0  0  0  0  0  0  0
    7.1915    0.1933    0.0000 C   0  0  0  0  0  0  0  0  0  0  0  0
    8.9197   -0.8133    0.0000 C   0  0  0  0  0  0  0  0  0  0  0  0
    7.1876   -0.8067    0.0000 C   0  0  0  0  0  0  0  0  0  0  0  0
    8.0633    1.6900    0.0000 C   0  0  0  0  0  0  0  0  0  0  0  0
    8.0479   -2.3100    0.0000 C   0  0  0  0  0  0  0  0  0  0  0  0
    7.1799   -2.8066    0.0000 C   0  0  2  0  0  0  0  0  0  0  0  0
    8.9312    2.1866    0.0000 C   0  0  0  0  0  0  0  0  0  0  0  0
    6.2778   -2.2858    0.0000 C   0  0  0  0  0  0  0  0  0  0  0  0
    8.9351    3.1866    0.0000 C   0  0  0  0  0  0  0  0  0  0  0  0
    9.7953    1.6833    0.0000 C   0  0  0  0  0  0  0  0  0  0  0  0
    6.2619   -4.3551    0.0000 C   0  0  0  0  0  0  0  0  0  0  0  0
    5.3958   -3.8551    0.0000 C   0  0  0  0  0  0  0  0  0  0  0  0
    9.8030    3.6833    0.0000 C   0  0  0  0  0  0  0  0  0  0  0  0
   10.6671    3.1800    0.0000 C   0  0  0  0  0  0  0  0  0  0  0  0
    4.5298   -4.3551    0.0000 C   0  0  0  0  0  0  0  0  0  0  0  0
   10.6633    2.1800    0.0000 C   0  0  0  0  0  0  0  0  0  0  0  0
   11.5791    3.6833    0.0000 C   0  0  0  0  0  0  0  0  0  0  0  0
    4.5298   -5.3551    0.0000 C   0  0  0  0  0  0  0  0  0  0  0  0
    3.5836   -4.0504    0.0000 C   0  0  0  0  0  0  0  0  0  0  0  0
    6.2619   -5.3551    0.0000 C   0  0  0  0  0  0  0  0  0  0  0  0
   11.5911    4.7249    0.0000 C   0  0  0  0  0  0  0  0  0  0  0  0
    5.3958   -5.8551    0.0000 C   0  0  0  0  0  0  0  0  0  0  0  0
   10.6910    5.2491    0.0000 C   0  0  0  0  0  0  0  0  0  0  0  0
    3.0000   -4.8551    0.0000 C   0  0  0  0  0  0  0  0  0  0  0  0
    7.5237    1.0021    0.0000 H   0  0  0  0  0  0  0  0  0  0  0  0
    9.5337    0.0766    0.0000 H   0  0  0  0  0  0  0  0  0  0  0  0
    9.1378    0.7684    0.0000 H   0  0  0  0  0  0  0  0  0  0  0  0
    6.9817    0.7768    0.0000 H   0  0  0  0  0  0  0  0  0  0  0  0
    6.5805    0.0880    0.0000 H   0  0  0  0  0  0  0  0  0  0  0  0
    9.1295   -1.3968    0.0000 H   0  0  0  0  0  0  0  0  0  0  0  0
    9.5306   -0.7080    0.0000 H   0  0  0  0  0  0  0  0  0  0  0  0
    6.5775   -0.6966    0.0000 H   0  0  0  0  0  0  0  0  0  0  0  0
    6.9733   -1.3884    0.0000 H   0  0  0  0  0  0  0  0  0  0  0  0
    7.8535    2.2734    0.0000 H   0  0  0  0  0  0  0  0  0  0  0  0
    7.4523    1.5847    0.0000 H   0  0  0  0  0  0  0  0  0  0  0  0
    8.2577   -2.8934    0.0000 H   0  0  0  0  0  0  0  0  0  0  0  0
    8.6588   -2.2047    0.0000 H   0  0  0  0  0  0  0  0  0  0  0  0
    7.7150   -3.1197    0.0000 H   0  0  0  0  0  0  0  0  0  0  0  0
    6.6751   -1.8099    0.0000 H   0  0  0  0  0  0  0  0  0  0  0  0
    5.8769   -1.8129    0.0000 H   0  0  0  0  0  0  0  0  0  0  0  0
    8.3993    3.4987    0.0000 H   0  0  0  0  0  0  0  0  0  0  0  0
    9.7929    1.0633    0.0000 H   0  0  0  0  0  0  0  0  0  0  0  0
   11.1990    1.8679    0.0000 H   0  0  0  0  0  0  0  0  0  0  0  0
   11.7814    3.0972    0.0000 H   0  0  0  0  0  0  0  0  0  0  0  0
   12.1911    3.7823    0.0000 H   0  0  0  0  0  0  0  0  0  0  0  0
    3.8346   -3.4834    0.0000 H   0  0  0  0  0  0  0  0  0  0  0  0
    3.0462   -3.7411    0.0000 H   0  0  0  0  0  0  0  0  0  0  0  0
    6.7988   -5.6651    0.0000 H   0  0  0  0  0  0  0  0  0  0  0  0
   12.2007    4.6117    0.0000 H   0  0  0  0  0  0  0  0  0  0  0  0
   11.8069    5.3061    0.0000 H   0  0  0  0  0  0  0  0  0  0  0  0
    9.2517    5.0307    0.0000 H   0  0  0  0  0  0  0  0  0  0  0  0
    5.3958   -6.4751    0.0000 H   0  0  0  0  0  0  0  0  0  0  0  0
    3.3910   -6.2491    0.0000 H   0  0  0  0  0  0  0  0  0  0  0  0
  1 15  1  0  0  0  0
  1 20  1  0  0  0  0
  2 17  1  0  0  0  0
  2 21  1  0  0  0  0
  3 32  2  0  0  0  0
  4 33  2  0  0  0  0
  5 11  1  0  0  0  0
  5 12  1  0  0  0  0
  5 14  1  0  0  0  0
  6 22  1  0  0  0  0
  6 32  1  0  0  0  0
  6 60  1  0  0  0  0
  7 27  1  0  0  0  0
  7 33  1  0  0  0  0
  7 62  1  0  0  0  0
  8  9  1  0  0  0  0
  8 10  1  0  0  0  0
  8 13  1  0  0  0  0
  8 34  1  0  0  0  0
  9 11  1  0  0  0  0
  9 35  1  0  0  0  0
  9 36  1  0  0  0  0
 10 12  1  0  0  0  0
 10 37  1  0  0  0  0
 10 38  1  0  0  0  0
 11 39  1  0  0  0  0
 11 40  1  0  0  0  0
 12 41  1  0  0  0  0
 12 42  1  0  0  0  0
 13 16  1  0  0  0  0
 13 43  1  0  0  0  0
 13 44  1  0  0  0  0
 15 14  1  1  0  0  0
 14 45  1  0  0  0  0
 14 46  1  0  0  0  0
 15 17  1  0  0  0  0
 15 47  1  0  0  0  0
 16 18  2  0  0  0  0
 16 19  1  0  0  0  0
 17 48  1  0  0  0  0
 17 49  1  0  0  0  0
 18 22  1  0  0  0  0
 18 50  1  0  0  0  0
 19 25  2  0  0  0  0
 19 51  1  0  0  0  0
 20 21  2  0  0  0  0
 20 29  1  0  0  0  0
 21 24  1  0  0  0  0
 22 23  2  0  0  0  0
 23 25  1  0  0  0  0
 23 26  1  0  0  0  0
 24 27  2  0  0  0  0
 24 28  1  0  0  0  0
 25 52  1  0  0  0  0
 26 30  1  0  0  0  0
 26 53  1  0  0  0  0
 26 54  1  0  0  0  0
 27 31  1  0  0  0  0
 28 33  1  0  0  0  0
 28 55  1  0  0  0  0
 28 56  1  0  0  0  0
 29 31  2  0  0  0  0
 29 57  1  0  0  0  0
 30 32  1  0  0  0  0
 30 58  1  0  0  0  0
 30 59  1  0  0  0  0
 31 61  1  0  0  0  0
M  END
> <PUBCHEM_COMPOUND_CID>
46888928

> <PUBCHEM_COMPOUND_CANONICALIZED>
1

> <PUBCHEM_CACTVS_COMPLEXITY>
739

> <PUBCHEM_CACTVS_HBOND_ACCEPTOR>
5

> <PUBCHEM_CACTVS_HBOND_DONOR>
2

> <PUBCHEM_CACTVS_ROTATABLE_BOND>
4

> <PUBCHEM_CACTVS_SUBSKEYS>
AAADceB7OAAAAAAAAAAAAAAAAAAAAWAAAAA8eJECAAAAAFixQAAAHgAQAAAADRzhmAYwxoPABACIAiVSUACCCAAhIgAIiAEO7IgPJjLEtZuHOCrm1Bna6Ae+3fPeQEABQgAKQACAgAKEABSAAAAAAAAAAA==

> <PUBCHEM_IUPAC_OPENEYE_NAME>
(3R)-3-[[4-[(2-oxo-3,4-dihydro-1H-quinolin-7-yl)methyl]-1-piperidyl]methyl]-2,3,7,9-tetrahydro-[1,4]dioxino[2,3-e]indol-8-one

> <PUBCHEM_IUPAC_CAS_NAME>
(3R)-3-[[4-[(2-oxo-3,4-dihydro-1H-quinolin-7-yl)methyl]-1-piperidinyl]methyl]-2,3,7,9-tetrahydro-[1,4]dioxino[2,3-e]indol-8-one

> <PUBCHEM_IUPAC_NAME_MARKUP>
(3<I>R</I>)-3-[[4-[(2-oxo-3,4-dihydro-1<I>H</I>-quinolin-7-yl)methyl]piperidin-1-yl]methyl]-2,3,7,9-tetrahydro-[1,4]dioxino[2,3-e]indol-8-one

> <PUBCHEM_IUPAC_NAME>
(3R)-3-[[4-[(2-oxo-3,4-dihydro-1H-quinolin-7-yl)methyl]piperidin-1-yl]methyl]-2,3,7,9-tetrahydro-[1,4]dioxino[2,3-e]indol-8-one

> <PUBCHEM_IUPAC_SYSTEMATIC_NAME>
(3R)-3-[[4-[(2-oxidanylidene-3,4-dihydro-1H-quinolin-7-yl)methyl]piperidin-1-yl]methyl]-2,3,7,9-tetrahydro-[1,4]dioxino[2,3-e]indol-8-one

> <PUBCHEM_IUPAC_TRADITIONAL_NAME>
(3R)-3-[[4-[(2-keto-3,4-dihydro-1H-quinolin-7-yl)methyl]piperidino]methyl]-2,3,7,9-tetrahydro-[1,4]dioxin[2,3-e]indol-8-one

> <PUBCHEM_IUPAC_INCHI>
InChI=1S/C26H29N3O4/c30-24-6-3-18-2-1-17(12-22(18)28-24)11-16-7-9-29(10-8-16)14-19-15-32-26-20-13-25(31)27-21(20)4-5-23(26)33-19/h1-2,4-5,12,16,19H,3,6-11,13-15H2,(H,27,31)(H,28,30)/t19-/m1/s1

> <PUBCHEM_IUPAC_INCHIKEY>
VJQGVOVLQSAUIL-LJQANCHMSA-N

> <PUBCHEM_XLOGP3_AA>
2.4

> <PUBCHEM_EXACT_MASS>
447.21580641

> <PUBCHEM_MOLECULAR_FORMULA>
C26H29N3O4

> <PUBCHEM_MOLECULAR_WEIGHT>
447.5

> <PUBCHEM_OPENEYE_CAN_SMILES>
C1CN(CCC1CC2=CC3=C(CCC(=O)N3)C=C2)CC4COC5=C(O4)C=CC6=C5CC(=O)N6

> <PUBCHEM_OPENEYE_ISO_SMILES>
C1CN(CCC1CC2=CC3=C(CCC(=O)N3)C=C2)C[C@@H]4COC5=C(O4)C=CC6=C5CC(=O)N6

> <PUBCHEM_CACTVS_TPSA>
79.9

> <PUBCHEM_MONOISOTOPIC_WEIGHT>
447.21580641

> <PUBCHEM_TOTAL_CHARGE>
0

> <PUBCHEM_HEAVY_ATOM_COUNT>
33

> <PUBCHEM_ATOM_DEF_STEREO_COUNT>
1

> <PUBCHEM_ATOM_UDEF_STEREO_COUNT>
0

> <PUBCHEM_BOND_DEF_STEREO_COUNT>
0

> <PUBCHEM_BOND_UDEF_STEREO_COUNT>
0

> <PUBCHEM_ISOTOPIC_ATOM_COUNT>
0

> <PUBCHEM_COMPONENT_COUNT>
1

> <PUBCHEM_CACTVS_TAUTO_COUNT>
-1

> <PUBCHEM_COORDINATE_TYPE>
1
5
255

> <PUBCHEM_BONDANNOTATIONS>
15  14  5
16  18  8
16  19  8
18  22  8
19  25  8
20  21  8
20  29  8
21  24  8
22  23  8
23  25  8
24  27  8
27  31  8
29  31  8

$$$$
