22745278
  -OEChem-09292322072D

 55 58  0     0  0  0  0  0  0999 V2000
    7.8314    3.9510    0.0000 O   0  0  0  0  0  0  0  0  0  0  0  0
    6.2619   -3.7136    0.0000 O   0  0  0  0  0  0  0  0  0  0  0  0
    6.1851    4.4890    0.0000 O   0  0  0  0  0  0  0  0  0  0  0  0
    5.6103   -0.0573    0.0000 N   0  0  0  0  0  0  0  0  0  0  0  0
    4.6783   -2.9089    0.0000 N   0  0  0  0  0  0  0  0  0  0  0  0
    6.5422    2.7942    0.0000 N   0  0  0  0  0  0  0  0  0  0  0  0
    4.6783   -4.5184    0.0000 N   0  0  0  0  0  0  0  0  0  0  0  0
    5.9209    0.8932    0.0000 C   0  0  0  0  0  0  0  0  0  0  0  0
    4.9889   -1.9584    0.0000 C   0  0  0  0  0  0  0  0  0  0  0  0
    4.6318   -0.2636    0.0000 C   0  0  0  0  0  0  0  0  0  0  0  0
    6.2781   -0.8016    0.0000 C   0  0  0  0  0  0  0  0  0  0  0  0
    4.3211   -1.2141    0.0000 C   0  0  0  0  0  0  0  0  0  0  0  0
    5.9674   -1.7522    0.0000 C   0  0  0  0  0  0  0  0  0  0  0  0
    5.2531    1.6375    0.0000 C   0  0  0  0  0  0  0  0  0  0  0  0
    6.8994    1.0994    0.0000 C   0  0  0  0  0  0  0  0  0  0  0  0
    5.5637    2.5880    0.0000 C   0  0  0  0  0  0  0  0  0  0  0  0
    7.2101    2.0499    0.0000 C   0  0  0  0  0  0  0  0  0  0  0  0
    3.7320   -3.2136    0.0000 C   0  0  0  0  0  0  0  0  0  0  0  0
    5.2619   -3.7136    0.0000 C   0  0  0  0  0  0  0  0  0  0  0  0
    3.7320   -4.2136    0.0000 C   0  0  0  0  0  0  0  0  0  0  0  0
    6.8529    3.7447    0.0000 C   0  0  0  0  0  0  0  0  0  0  0  0
    2.8660   -2.7136    0.0000 C   0  0  0  0  0  0  0  0  0  0  0  0
    2.8660   -4.7136    0.0000 C   0  0  0  0  0  0  0  0  0  0  0  0
    2.0000   -3.2136    0.0000 C   0  0  0  0  0  0  0  0  0  0  0  0
    2.0000   -4.2136    0.0000 C   0  0  0  0  0  0  0  0  0  0  0  0
    8.1421    4.9015    0.0000 C   0  0  0  0  0  0  0  0  0  0  0  0
    9.1206    5.1077    0.0000 C   0  0  0  0  0  0  0  0  0  0  0  0
    6.3350    0.4317    0.0000 H   0  0  0  0  0  0  0  0  0  0  0  0
    5.4030   -2.4198    0.0000 H   0  0  0  0  0  0  0  0  0  0  0  0
    4.6112    0.3561    0.0000 H   0  0  0  0  0  0  0  0  0  0  0  0
    4.0179   -0.1762    0.0000 H   0  0  0  0  0  0  0  0  0  0  0  0
    6.8250   -1.0937    0.0000 H   0  0  0  0  0  0  0  0  0  0  0  0
    6.6607   -0.3137    0.0000 H   0  0  0  0  0  0  0  0  0  0  0  0
    3.7742   -0.9221    0.0000 H   0  0  0  0  0  0  0  0  0  0  0  0
    3.9385   -1.7020    0.0000 H   0  0  0  0  0  0  0  0  0  0  0  0
    5.9880   -2.3718    0.0000 H   0  0  0  0  0  0  0  0  0  0  0  0
    6.5812   -1.8395    0.0000 H   0  0  0  0  0  0  0  0  0  0  0  0
    4.7062    1.9295    0.0000 H   0  0  0  0  0  0  0  0  0  0  0  0
    4.8705    1.1496    0.0000 H   0  0  0  0  0  0  0  0  0  0  0  0
    6.9200    0.4797    0.0000 H   0  0  0  0  0  0  0  0  0  0  0  0
    7.5132    1.0120    0.0000 H   0  0  0  0  0  0  0  0  0  0  0  0
    5.5432    3.2077    0.0000 H   0  0  0  0  0  0  0  0  0  0  0  0
    4.9499    2.6754    0.0000 H   0  0  0  0  0  0  0  0  0  0  0  0
    7.7570    1.7579    0.0000 H   0  0  0  0  0  0  0  0  0  0  0  0
    7.5926    2.5378    0.0000 H   0  0  0  0  0  0  0  0  0  0  0  0
    4.8709   -5.1077    0.0000 H   0  0  0  0  0  0  0  0  0  0  0  0
    2.8660   -2.0936    0.0000 H   0  0  0  0  0  0  0  0  0  0  0  0
    2.8660   -5.3336    0.0000 H   0  0  0  0  0  0  0  0  0  0  0  0
    1.4631   -2.9036    0.0000 H   0  0  0  0  0  0  0  0  0  0  0  0
    1.4631   -4.5236    0.0000 H   0  0  0  0  0  0  0  0  0  0  0  0
    8.1215    5.5211    0.0000 H   0  0  0  0  0  0  0  0  0  0  0  0
    7.5283    4.9888    0.0000 H   0  0  0  0  0  0  0  0  0  0  0  0
    9.2484    4.5010    0.0000 H   0  0  0  0  0  0  0  0  0  0  0  0
    9.7272    5.2356    0.0000 H   0  0  0  0  0  0  0  0  0  0  0  0
    8.9927    5.7144    0.0000 H   0  0  0  0  0  0  0  0  0  0  0  0
  1 21  1  0  0  0  0
  1 26  1  0  0  0  0
  2 19  2  0  0  0  0
  3 21  2  0  0  0  0
  4  8  1  0  0  0  0
  4 10  1  0  0  0  0
  4 11  1  0  0  0  0
  5  9  1  0  0  0  0
  5 18  1  0  0  0  0
  5 19  1  0  0  0  0
  6 16  1  0  0  0  0
  6 17  1  0  0  0  0
  6 21  1  0  0  0  0
  7 19  1  0  0  0  0
  7 20  1  0  0  0  0
  7 46  1  0  0  0  0
  8 14  1  0  0  0  0
  8 15  1  0  0  0  0
  8 28  1  0  0  0  0
  9 12  1  0  0  0  0
  9 13  1  0  0  0  0
  9 29  1  0  0  0  0
 10 12  1  0  0  0  0
 10 30  1  0  0  0  0
 10 31  1  0  0  0  0
 11 13  1  0  0  0  0
 11 32  1  0  0  0  0
 11 33  1  0  0  0  0
 12 34  1  0  0  0  0
 12 35  1  0  0  0  0
 13 36  1  0  0  0  0
 13 37  1  0  0  0  0
 14 16  1  0  0  0  0
 14 38  1  0  0  0  0
 14 39  1  0  0  0  0
 15 17  1  0  0  0  0
 15 40  1  0  0  0  0
 15 41  1  0  0  0  0
 16 42  1  0  0  0  0
 16 43  1  0  0  0  0
 17 44  1  0  0  0  0
 17 45  1  0  0  0  0
 18 20  1  0  0  0  0
 18 22  2  0  0  0  0
 20 23  2  0  0  0  0
 22 24  1  0  0  0  0
 22 47  1  0  0  0  0
 23 25  1  0  0  0  0
 23 48  1  0  0  0  0
 24 25  2  0  0  0  0
 24 49  1  0  0  0  0
 25 50  1  0  0  0  0
 26 27  1  0  0  0  0
 26 51  1  0  0  0  0
 26 52  1  0  0  0  0
 27 53  1  0  0  0  0
 27 54  1  0  0  0  0
 27 55  1  0  0  0  0
M  END
> <PUBCHEM_COMPOUND_CID>
22745278

> <PUBCHEM_COMPOUND_CANONICALIZED>
1

> <PUBCHEM_CACTVS_COMPLEXITY>
541

> <PUBCHEM_CACTVS_HBOND_ACCEPTOR>
4

> <PUBCHEM_CACTVS_HBOND_DONOR>
1

> <PUBCHEM_CACTVS_ROTATABLE_BOND>
4

> <PUBCHEM_CACTVS_SUBSKEYS>
AAADceB7sAAAAAAAAAAAAAAAAAAAAWAAAAA8WIAAAAAAAFgBAAAAHgAQAAAACCjhkAYzyIPABACIACRCWACCAAAhAgAIiAAIdIiIYCLA0ZGcIAholgLIyCcQAAAAAAAAAAAAACAAAAAAAAAAQAAAAAAAAA==

> <PUBCHEM_IUPAC_OPENEYE_NAME>
ethyl 4-[4-(2-oxo-3H-benzimidazol-1-yl)-1-piperidyl]piperidine-1-carboxylate

> <PUBCHEM_IUPAC_CAS_NAME>
4-[4-(2-oxo-3H-benzimidazol-1-yl)-1-piperidinyl]-1-piperidinecarboxylic acid ethyl ester

> <PUBCHEM_IUPAC_NAME_MARKUP>
ethyl 4-[4-(2-oxo-3<I>H</I>-benzimidazol-1-yl)piperidin-1-yl]piperidine-1-carboxylate

> <PUBCHEM_IUPAC_NAME>
ethyl 4-[4-(2-oxo-3H-benzimidazol-1-yl)piperidin-1-yl]piperidine-1-carboxylate

> <PUBCHEM_IUPAC_SYSTEMATIC_NAME>
ethyl 4-[4-(2-oxidanylidene-3H-benzimidazol-1-yl)piperidin-1-yl]piperidine-1-carboxylate

> <PUBCHEM_IUPAC_TRADITIONAL_NAME>
4-[4-(2-keto-3H-benzimidazol-1-yl)piperidino]piperidine-1-carboxylic acid ethyl ester

> <PUBCHEM_IUPAC_INCHI>
InChI=1S/C20H28N4O3/c1-2-27-20(26)23-13-7-15(8-14-23)22-11-9-16(10-12-22)24-18-6-4-3-5-17(18)21-19(24)25/h3-6,15-16H,2,7-14H2,1H3,(H,21,25)

> <PUBCHEM_IUPAC_INCHIKEY>
VBYGBDXPFRYDEZ-UHFFFAOYSA-N

> <PUBCHEM_XLOGP3>
2.8

> <PUBCHEM_EXACT_MASS>
372.21614077

> <PUBCHEM_MOLECULAR_FORMULA>
C20H28N4O3

> <PUBCHEM_MOLECULAR_WEIGHT>
372.5

> <PUBCHEM_OPENEYE_CAN_SMILES>
CCOC(=O)N1CCC(CC1)N2CCC(CC2)N3C4=CC=CC=C4NC3=O

> <PUBCHEM_OPENEYE_ISO_SMILES>
CCOC(=O)N1CCC(CC1)N2CCC(CC2)N3C4=CC=CC=C4NC3=O

> <PUBCHEM_CACTVS_TPSA>
65.1

> <PUBCHEM_MONOISOTOPIC_WEIGHT>
372.21614077

> <PUBCHEM_TOTAL_CHARGE>
0

> <PUBCHEM_HEAVY_ATOM_COUNT>
27

> <PUBCHEM_ATOM_DEF_STEREO_COUNT>
0

> <PUBCHEM_ATOM_UDEF_STEREO_COUNT>
0

> <PUBCHEM_BOND_DEF_STEREO_COUNT>
0

> <PUBCHEM_BOND_UDEF_STEREO_COUNT>
0

> <PUBCHEM_ISOTOPIC_ATOM_COUNT>
0

> <PUBCHEM_COMPONENT_COUNT>
1

> <PUBCHEM_CACTVS_TAUTO_COUNT>
-1

> <PUBCHEM_COORDINATE_TYPE>
1
5
255

> <PUBCHEM_BONDANNOTATIONS>
18  20  8
18  22  8
20  23  8
22  24  8
23  25  8
24  25  8
5  18  8
5  19  8
7  19  8
7  20  8

$$$$
