155540795
  -OEChem-09292322402D

 50 52  0     0  0  0  0  0  0999 V2000
    9.5857    4.4811    0.0000 Cl  0  0  0  0  0  0  0  0  0  0  0  0
    5.2579    3.4409    0.0000 S   0  0  0  0  0  0  0  0  0  0  0  0
    6.2084    3.7516    0.0000 O   0  0  0  0  0  0  0  0  0  0  0  0
    4.3074    3.1302    0.0000 O   0  0  0  0  0  0  0  0  0  0  0  0
    1.4030    6.1961    0.0000 O   0  0  0  0  0  0  0  0  0  0  0  0
    4.9473    4.3914    0.0000 N   0  0  0  0  0  0  0  0  0  0  0  0
    5.2607    8.5694    0.0000 N   0  0  0  0  0  0  0  0  0  0  0  0
    6.2095    7.2588    0.0000 N   0  0  0  0  0  0  0  0  0  0  0  0
    7.0213    8.8451    0.0000 N   0  0  0  0  0  0  0  0  0  0  0  0
    4.9473    6.0009    0.0000 C   0  0  0  0  0  0  0  0  0  0  0  0
    4.0010    5.6961    0.0000 C   0  0  0  0  0  0  0  0  0  0  0  0
    4.0010    4.6961    0.0000 C   0  0  0  0  0  0  0  0  0  0  0  0
    5.5309    5.1961    0.0000 C   0  0  0  0  0  0  0  0  0  0  0  0
    5.2579    6.9514    0.0000 C   0  0  0  0  0  0  0  0  0  0  0  0
    4.6715    7.7614    0.0000 C   0  0  0  0  0  0  0  0  0  0  0  0
    3.1350    6.1961    0.0000 C   0  0  0  0  0  0  0  0  0  0  0  0
    3.1350    4.1961    0.0000 C   0  0  0  0  0  0  0  0  0  0  0  0
    5.5686    2.4904    0.0000 C   0  0  0  0  0  0  0  0  0  0  0  0
    3.6715    7.7632    0.0000 C   0  0  0  0  0  0  0  0  0  0  0  0
    2.2690    5.6961    0.0000 C   0  0  0  0  0  0  0  0  0  0  0  0
    2.2690    4.6961    0.0000 C   0  0  0  0  0  0  0  0  0  0  0  0
    6.2112    8.2588    0.0000 C   0  0  0  0  0  0  0  0  0  0  0  0
    4.9007    1.7461    0.0000 C   0  0  0  0  0  0  0  0  0  0  0  0
    6.5471    2.2841    0.0000 C   0  0  0  0  0  0  0  0  0  0  0  0
    3.1730    8.6300    0.0000 C   0  0  0  0  0  0  0  0  0  0  0  0
    5.2114    0.7955    0.0000 C   0  0  0  0  0  0  0  0  0  0  0  0
    6.8578    1.3336    0.0000 C   0  0  0  0  0  0  0  0  0  0  0  0
    6.1899    0.5893    0.0000 C   0  0  0  0  0  0  0  0  0  0  0  0
    0.5369    5.6961    0.0000 C   0  0  0  0  0  0  0  0  0  0  0  0
    6.1509    5.1961    0.0000 H   0  0  0  0  0  0  0  0  0  0  0  0
    3.1350    6.8161    0.0000 H   0  0  0  0  0  0  0  0  0  0  0  0
    3.1350    3.5761    0.0000 H   0  0  0  0  0  0  0  0  0  0  0  0
    3.0886    7.5521    0.0000 H   0  0  0  0  0  0  0  0  0  0  0  0
    3.7781    7.1524    0.0000 H   0  0  0  0  0  0  0  0  0  0  0  0
    1.7320    4.3861    0.0000 H   0  0  0  0  0  0  0  0  0  0  0  0
    5.0702    9.1594    0.0000 H   0  0  0  0  0  0  0  0  0  0  0  0
    4.2941    1.8739    0.0000 H   0  0  0  0  0  0  0  0  0  0  0  0
    6.9612    2.7456    0.0000 H   0  0  0  0  0  0  0  0  0  0  0  0
    3.7105    8.9391    0.0000 H   0  0  0  0  0  0  0  0  0  0  0  0
    2.8640    9.1675    0.0000 H   0  0  0  0  0  0  0  0  0  0  0  0
    2.6356    8.3210    0.0000 H   0  0  0  0  0  0  0  0  0  0  0  0
    4.7973    0.3341    0.0000 H   0  0  0  0  0  0  0  0  0  0  0  0
    7.4644    1.2058    0.0000 H   0  0  0  0  0  0  0  0  0  0  0  0
    7.5872    8.5920    0.0000 H   0  0  0  0  0  0  0  0  0  0  0  0
    6.9575    9.4619    0.0000 H   0  0  0  0  0  0  0  0  0  0  0  0
    6.3825    0.0000    0.0000 H   0  0  0  0  0  0  0  0  0  0  0  0
    0.2269    6.2331    0.0000 H   0  0  0  0  0  0  0  0  0  0  0  0
    0.0000    5.3861    0.0000 H   0  0  0  0  0  0  0  0  0  0  0  0
    0.8469    5.1592    0.0000 H   0  0  0  0  0  0  0  0  0  0  0  0
   10.5857    4.4811    0.0000 H   0  0  0  0  0  0  0  0  0  0  0  0
  1 50  1  0  0  0  0
  2  3  2  0  0  0  0
  2  4  2  0  0  0  0
  2  6  1  0  0  0  0
  2 18  1  0  0  0  0
  5 20  1  0  0  0  0
  5 29  1  0  0  0  0
  6 12  1  0  0  0  0
  6 13  1  0  0  0  0
  7 15  1  0  0  0  0
  7 22  1  0  0  0  0
  7 36  1  0  0  0  0
  8 14  1  0  0  0  0
  8 22  2  0  0  0  0
  9 22  1  0  0  0  0
  9 44  1  0  0  0  0
  9 45  1  0  0  0  0
 10 11  1  0  0  0  0
 10 13  2  0  0  0  0
 10 14  1  0  0  0  0
 11 12  2  0  0  0  0
 11 16  1  0  0  0  0
 12 17  1  0  0  0  0
 13 30  1  0  0  0  0
 14 15  2  0  0  0  0
 15 19  1  0  0  0  0
 16 20  2  0  0  0  0
 16 31  1  0  0  0  0
 17 21  2  0  0  0  0
 17 32  1  0  0  0  0
 18 23  2  0  0  0  0
 18 24  1  0  0  0  0
 19 25  1  0  0  0  0
 19 33  1  0  0  0  0
 19 34  1  0  0  0  0
 20 21  1  0  0  0  0
 21 35  1  0  0  0  0
 23 26  1  0  0  0  0
 23 37  1  0  0  0  0
 24 27  2  0  0  0  0
 24 38  1  0  0  0  0
 25 39  1  0  0  0  0
 25 40  1  0  0  0  0
 25 41  1  0  0  0  0
 26 28  2  0  0  0  0
 26 42  1  0  0  0  0
 27 28  1  0  0  0  0
 27 43  1  0  0  0  0
 28 46  1  0  0  0  0
 29 47  1  0  0  0  0
 29 48  1  0  0  0  0
 29 49  1  0  0  0  0
M  END
> <PUBCHEM_COMPOUND_CID>
155540795

> <PUBCHEM_COMPOUND_CANONICALIZED>
1

> <PUBCHEM_CACTVS_COMPLEXITY>
634

> <PUBCHEM_CACTVS_HBOND_ACCEPTOR>
5

> <PUBCHEM_CACTVS_HBOND_DONOR>
3

> <PUBCHEM_CACTVS_ROTATABLE_BOND>
5

> <PUBCHEM_CACTVS_SUBSKEYS>
AAADceB7sABEAAAAAAAAAAAAAAAAAWLAAAAwYAAAAAAAAFgB/AAAHgQQQAAADAzB3gY/1/bJlAKgAzRnZHDCiD2xMqAJ2Tg+fJiMbuLE+ZuUMChs0BPI6Cew0PMOgEABAAACAAAAgAIAAAQAAAAAAAAAAA==

> <PUBCHEM_IUPAC_OPENEYE_NAME>
4-[1-(benzenesulfonyl)-5-methoxy-indol-3-yl]-5-ethyl-1H-imidazol-2-amine;hydrochloride

> <PUBCHEM_IUPAC_CAS_NAME>
4-[1-(benzenesulfonyl)-5-methoxy-3-indolyl]-5-ethyl-1H-imidazol-2-amine;hydrochloride

> <PUBCHEM_IUPAC_NAME_MARKUP>
4-[1-(benzenesulfonyl)-5-methoxyindol-3-yl]-5-ethyl-1<I>H</I>-imidazol-2-amine;hydrochloride

> <PUBCHEM_IUPAC_NAME>
4-[1-(benzenesulfonyl)-5-methoxyindol-3-yl]-5-ethyl-1H-imidazol-2-amine;hydrochloride

> <PUBCHEM_IUPAC_SYSTEMATIC_NAME>
5-ethyl-4-[5-methoxy-1-(phenylsulfonyl)indol-3-yl]-1H-imidazol-2-amine;hydrochloride

> <PUBCHEM_IUPAC_TRADITIONAL_NAME>
[4-(1-besyl-5-methoxy-indol-3-yl)-5-ethyl-1H-imidazol-2-yl]amine;hydrochloride

> <PUBCHEM_IUPAC_INCHI>
InChI=1S/C20H20N4O3S.ClH/c1-3-17-19(23-20(21)22-17)16-12-24(18-10-9-13(27-2)11-15(16)18)28(25,26)14-7-5-4-6-8-14;/h4-12H,3H2,1-2H3,(H3,21,22,23);1H

> <PUBCHEM_IUPAC_INCHIKEY>
OJEVJBAXYUQNKN-UHFFFAOYSA-N

> <PUBCHEM_EXACT_MASS>
432.1022894

> <PUBCHEM_MOLECULAR_FORMULA>
C20H21ClN4O3S

> <PUBCHEM_MOLECULAR_WEIGHT>
432.9

> <PUBCHEM_OPENEYE_CAN_SMILES>
CCC1=C(N=C(N1)N)C2=CN(C3=C2C=C(C=C3)OC)S(=O)(=O)C4=CC=CC=C4.Cl

> <PUBCHEM_OPENEYE_ISO_SMILES>
CCC1=C(N=C(N1)N)C2=CN(C3=C2C=C(C=C3)OC)S(=O)(=O)C4=CC=CC=C4.Cl

> <PUBCHEM_CACTVS_TPSA>
111

> <PUBCHEM_MONOISOTOPIC_WEIGHT>
432.1022894

> <PUBCHEM_TOTAL_CHARGE>
0

> <PUBCHEM_HEAVY_ATOM_COUNT>
29

> <PUBCHEM_ATOM_DEF_STEREO_COUNT>
0

> <PUBCHEM_ATOM_UDEF_STEREO_COUNT>
0

> <PUBCHEM_BOND_DEF_STEREO_COUNT>
0

> <PUBCHEM_BOND_UDEF_STEREO_COUNT>
0

> <PUBCHEM_ISOTOPIC_ATOM_COUNT>
0

> <PUBCHEM_COMPONENT_COUNT>
2

> <PUBCHEM_CACTVS_TAUTO_COUNT>
-1

> <PUBCHEM_COORDINATE_TYPE>
1
5
255

> <PUBCHEM_BONDANNOTATIONS>
10  11  8
10  13  8
11  12  8
11  16  8
12  17  8
14  15  8
16  20  8
17  21  8
18  23  8
18  24  8
20  21  8
23  26  8
24  27  8
26  28  8
27  28  8
6  12  8
6  13  8
7  15  8
7  22  8
8  14  8
8  22  8

$$$$
