44454443
  -OEChem-09292322242D

 59 63  0     1  0  0  0  0  0999 V2000
    7.7749    1.4990    0.0000 S   0  0  0  0  0  0  0  0  0  0  0  0
   14.0007   -2.2049    0.0000 O   0  0  0  0  0  0  0  0  0  0  0  0
   10.7749   -0.2331    0.0000 N   0  0  3  0  0  0  0  0  0  0  0  0
   14.9894   -2.3080    0.0000 N   0  0  0  0  0  0  0  0  0  0  0  0
    6.1871    0.6899    0.0000 N   0  0  0  0  0  0  0  0  0  0  0  0
    6.1871    2.3080    0.0000 N   0  0  0  0  0  0  0  0  0  0  0  0
    5.2361    1.9990    0.0000 N   0  0  0  0  0  0  0  0  0  0  0  0
    4.5316   -0.5834    0.0000 N   0  0  0  0  0  0  0  0  0  0  0  0
    2.7045    0.2301    0.0000 N   0  0  0  0  0  0  0  0  0  0  0  0
   11.1993   -1.1173    0.0000 C   0  0  0  0  0  0  0  0  0  0  0  0
   11.1993    0.6511    0.0000 C   0  0  0  0  0  0  0  0  0  0  0  0
   12.1546   -1.3394    0.0000 C   0  0  0  0  0  0  0  0  0  0  0  0
   12.1546    0.8732    0.0000 C   0  0  0  0  0  0  0  0  0  0  0  0
   12.9255   -0.7331    0.0000 C   0  0  0  0  0  0  0  0  0  0  0  0
   12.9255    0.2669    0.0000 C   0  0  0  0  0  0  0  0  0  0  0  0
    9.7749   -0.2331    0.0000 C   0  0  0  0  0  0  0  0  0  0  0  0
   13.7915   -1.2331    0.0000 C   0  0  0  0  0  0  0  0  0  0  0  0
    9.2749    0.6329    0.0000 C   0  0  0  0  0  0  0  0  0  0  0  0
   13.7915    0.7669    0.0000 C   0  0  0  0  0  0  0  0  0  0  0  0
   14.6575   -0.7331    0.0000 C   0  0  0  0  0  0  0  0  0  0  0  0
   14.6575    0.2669    0.0000 C   0  0  0  0  0  0  0  0  0  0  0  0
    8.2749    0.6329    0.0000 C   0  0  0  0  0  0  0  0  0  0  0  0
   15.3946   -1.4002    0.0000 C   0  0  0  0  0  0  0  0  0  0  0  0
   16.3731   -1.1940    0.0000 C   0  0  0  0  0  0  0  0  0  0  0  0
    6.7749    1.4990    0.0000 C   0  0  0  0  0  0  0  0  0  0  0  0
    5.2361    0.9990    0.0000 C   0  0  0  0  0  0  0  0  0  0  0  0
    6.4961   -0.2611    0.0000 C   0  0  0  0  0  0  0  0  0  0  0  0
    4.4271    0.4112    0.0000 C   0  0  0  0  0  0  0  0  0  0  0  0
    3.5135    0.8179    0.0000 C   0  0  0  0  0  0  0  0  0  0  0  0
    2.8090   -0.7644    0.0000 C   0  0  0  0  0  0  0  0  0  0  0  0
    3.7226   -1.1711    0.0000 C   0  0  0  0  0  0  0  0  0  0  0  0
    2.0000   -1.3522    0.0000 C   0  0  0  0  0  0  0  0  0  0  0  0
   10.5945   -1.2539    0.0000 H   0  0  0  0  0  0  0  0  0  0  0  0
   11.1973   -1.7373    0.0000 H   0  0  0  0  0  0  0  0  0  0  0  0
   11.1973    1.2711    0.0000 H   0  0  0  0  0  0  0  0  0  0  0  0
   10.5945    0.7877    0.0000 H   0  0  0  0  0  0  0  0  0  0  0  0
   11.8828   -1.8967    0.0000 H   0  0  0  0  0  0  0  0  0  0  0  0
   12.6371   -1.7288    0.0000 H   0  0  0  0  0  0  0  0  0  0  0  0
   12.6371    1.2626    0.0000 H   0  0  0  0  0  0  0  0  0  0  0  0
   11.8828    1.4305    0.0000 H   0  0  0  0  0  0  0  0  0  0  0  0
    9.1923   -0.4452    0.0000 H   0  0  0  0  0  0  0  0  0  0  0  0
    9.8826   -0.8437    0.0000 H   0  0  0  0  0  0  0  0  0  0  0  0
    9.8575    0.8450    0.0000 H   0  0  0  0  0  0  0  0  0  0  0  0
    9.1672    1.2435    0.0000 H   0  0  0  0  0  0  0  0  0  0  0  0
   13.7915    1.3869    0.0000 H   0  0  0  0  0  0  0  0  0  0  0  0
   15.1945    0.5769    0.0000 H   0  0  0  0  0  0  0  0  0  0  0  0
    7.6923    0.4209    0.0000 H   0  0  0  0  0  0  0  0  0  0  0  0
    8.3826    0.0223    0.0000 H   0  0  0  0  0  0  0  0  0  0  0  0
   16.5009   -1.8006    0.0000 H   0  0  0  0  0  0  0  0  0  0  0  0
   16.9797   -1.0661    0.0000 H   0  0  0  0  0  0  0  0  0  0  0  0
   16.2452   -0.5873    0.0000 H   0  0  0  0  0  0  0  0  0  0  0  0
    5.9065   -0.4527    0.0000 H   0  0  0  0  0  0  0  0  0  0  0  0
    6.6877   -0.8508    0.0000 H   0  0  0  0  0  0  0  0  0  0  0  0
    7.0858   -0.0695    0.0000 H   0  0  0  0  0  0  0  0  0  0  0  0
    3.4487    1.4345    0.0000 H   0  0  0  0  0  0  0  0  0  0  0  0
    3.7874   -1.7877    0.0000 H   0  0  0  0  0  0  0  0  0  0  0  0
    1.6356   -0.8506    0.0000 H   0  0  0  0  0  0  0  0  0  0  0  0
    1.4984   -1.7166    0.0000 H   0  0  0  0  0  0  0  0  0  0  0  0
    2.3644   -1.8538    0.0000 H   0  0  0  0  0  0  0  0  0  0  0  0
  1 22  1  0  0  0  0
  1 25  1  0  0  0  0
  2  4  1  0  0  0  0
  2 17  1  0  0  0  0
  3 10  1  0  0  0  0
  3 11  1  0  0  0  0
  3 16  1  0  0  0  0
  4 23  2  0  0  0  0
  5 25  1  0  0  0  0
  5 26  1  0  0  0  0
  5 27  1  0  0  0  0
  6  7  1  0  0  0  0
  6 25  2  0  0  0  0
  7 26  2  0  0  0  0
  8 28  2  0  0  0  0
  8 31  1  0  0  0  0
  9 29  2  0  0  0  0
  9 30  1  0  0  0  0
 10 12  1  0  0  0  0
 10 33  1  0  0  0  0
 10 34  1  0  0  0  0
 11 13  1  0  0  0  0
 11 35  1  0  0  0  0
 11 36  1  0  0  0  0
 12 14  1  0  0  0  0
 12 37  1  0  0  0  0
 12 38  1  0  0  0  0
 13 15  1  0  0  0  0
 13 39  1  0  0  0  0
 13 40  1  0  0  0  0
 14 15  2  0  0  0  0
 14 17  1  0  0  0  0
 15 19  1  0  0  0  0
 16 18  1  0  0  0  0
 16 41  1  0  0  0  0
 16 42  1  0  0  0  0
 17 20  2  0  0  0  0
 18 22  1  0  0  0  0
 18 43  1  0  0  0  0
 18 44  1  0  0  0  0
 19 21  2  0  0  0  0
 19 45  1  0  0  0  0
 20 21  1  0  0  0  0
 20 23  1  0  0  0  0
 21 46  1  0  0  0  0
 22 47  1  0  0  0  0
 22 48  1  0  0  0  0
 23 24  1  0  0  0  0
 24 49  1  0  0  0  0
 24 50  1  0  0  0  0
 24 51  1  0  0  0  0
 26 28  1  0  0  0  0
 27 52  1  0  0  0  0
 27 53  1  0  0  0  0
 27 54  1  0  0  0  0
 28 29  1  0  0  0  0
 29 55  1  0  0  0  0
 30 31  2  0  0  0  0
 30 32  1  0  0  0  0
 31 56  1  0  0  0  0
 32 57  1  0  0  0  0
 32 58  1  0  0  0  0
 32 59  1  0  0  0  0
M  END
> <PUBCHEM_COMPOUND_CID>
44454443

> <PUBCHEM_COMPOUND_CANONICALIZED>
1

> <PUBCHEM_CACTVS_COMPLEXITY>
615

> <PUBCHEM_CACTVS_HBOND_ACCEPTOR>
8

> <PUBCHEM_CACTVS_HBOND_DONOR>
0

> <PUBCHEM_CACTVS_ROTATABLE_BOND>
6

> <PUBCHEM_CACTVS_SUBSKEYS>
AAADceB7oABAAAAAAAAAAAAAAAAAAWLAAAA8QAAABYAAAFgB/gAAHgQMAAAADAzF3wS/ltccEAirA7Z3ZgCS0C91MrA92CE8fNqIbvrg3ZOUMYhmyBvIyce82fKOwAADAAAYAACAAAYAADAAAAAAAAAAAA==

> <PUBCHEM_IUPAC_OPENEYE_NAME>
3-methyl-8-[3-[[4-methyl-5-(5-methylpyrazin-2-yl)-1,2,4-triazol-3-yl]sulfanyl]propyl]-6,7,9,10-tetrahydroisoxazolo[4,5-i][3]benzazepine

> <PUBCHEM_IUPAC_CAS_NAME>
3-methyl-8-[3-[[4-methyl-5-(5-methyl-2-pyrazinyl)-1,2,4-triazol-3-yl]thio]propyl]-6,7,9,10-tetrahydroisoxazolo[4,5-i][3]benzazepine

> <PUBCHEM_IUPAC_NAME_MARKUP>
3-methyl-8-[3-[[4-methyl-5-(5-methylpyrazin-2-yl)-1,2,4-triazol-3-yl]sulfanyl]propyl]-6,7,9,10-tetrahydro-[1,2]oxazolo[4,5-i][3]benzazepine

> <PUBCHEM_IUPAC_NAME>
3-methyl-8-[3-[[4-methyl-5-(5-methylpyrazin-2-yl)-1,2,4-triazol-3-yl]sulfanyl]propyl]-6,7,9,10-tetrahydro-[1,2]oxazolo[4,5-i][3]benzazepine

> <PUBCHEM_IUPAC_SYSTEMATIC_NAME>
3-methyl-8-[3-[[4-methyl-5-(5-methylpyrazin-2-yl)-1,2,4-triazol-3-yl]sulfanyl]propyl]-6,7,9,10-tetrahydro-[1,2]oxazolo[4,5-i][3]benzazepine

> <PUBCHEM_IUPAC_TRADITIONAL_NAME>
3-methyl-8-[3-[[4-methyl-5-(5-methylpyrazin-2-yl)-1,2,4-triazol-3-yl]thio]propyl]-6,7,9,10-tetrahydroisoxazolo[4,5-i][3]benzazepine

> <PUBCHEM_IUPAC_INCHI>
InChI=1S/C23H27N7OS/c1-15-13-25-20(14-24-15)22-26-27-23(29(22)3)32-12-4-9-30-10-7-17-5-6-18-16(2)28-31-21(18)19(17)8-11-30/h5-6,13-14H,4,7-12H2,1-3H3

> <PUBCHEM_IUPAC_INCHIKEY>
CXSFVUWINAYILW-UHFFFAOYSA-N

> <PUBCHEM_XLOGP3_AA>
2.8

> <PUBCHEM_EXACT_MASS>
449.19977968

> <PUBCHEM_MOLECULAR_FORMULA>
C23H27N7OS

> <PUBCHEM_MOLECULAR_WEIGHT>
449.6

> <PUBCHEM_OPENEYE_CAN_SMILES>
CC1=CN=C(C=N1)C2=NN=C(N2C)SCCCN3CCC4=C(CC3)C5=C(C=C4)C(=NO5)C

> <PUBCHEM_OPENEYE_ISO_SMILES>
CC1=CN=C(C=N1)C2=NN=C(N2C)SCCCN3CCC4=C(CC3)C5=C(C=C4)C(=NO5)C

> <PUBCHEM_CACTVS_TPSA>
111

> <PUBCHEM_MONOISOTOPIC_WEIGHT>
449.19977968

> <PUBCHEM_TOTAL_CHARGE>
0

> <PUBCHEM_HEAVY_ATOM_COUNT>
32

> <PUBCHEM_ATOM_DEF_STEREO_COUNT>
0

> <PUBCHEM_ATOM_UDEF_STEREO_COUNT>
0

> <PUBCHEM_BOND_DEF_STEREO_COUNT>
0

> <PUBCHEM_BOND_UDEF_STEREO_COUNT>
0

> <PUBCHEM_ISOTOPIC_ATOM_COUNT>
0

> <PUBCHEM_COMPONENT_COUNT>
1

> <PUBCHEM_CACTVS_TAUTO_COUNT>
-1

> <PUBCHEM_COORDINATE_TYPE>
1
5
255

> <PUBCHEM_BONDANNOTATIONS>
14  15  8
14  17  8
15  19  8
17  20  8
19  21  8
2  17  8
2  4  8
20  21  8
20  23  8
28  29  8
30  31  8
4  23  8
5  25  8
5  26  8
6  25  8
6  7  8
7  26  8
8  28  8
8  31  8
9  29  8
9  30  8

$$$$
