10457955
  -OEChem-09292322272D

 67 69  0     0  0  0  0  0  0999 V2000
    3.3660   -6.4330    0.0000 F   0  0  0  0  0  0  0  0  0  0  0  0
    2.0000   -6.0670    0.0000 F   0  0  0  0  0  0  0  0  0  0  0  0
    2.3660   -4.7010    0.0000 F   0  0  0  0  0  0  0  0  0  0  0  0
    8.0622    3.4330    0.0000 O   0  0  0  0  0  0  0  0  0  0  0  0
    6.3301    6.4330    0.0000 O   0  0  0  0  0  0  0  0  0  0  0  0
    4.5981   -0.5670    0.0000 N   0  0  0  0  0  0  0  0  0  0  0  0
    4.5981   -2.5670    0.0000 N   0  0  0  0  0  0  0  0  0  0  0  0
    5.4641   -4.0670    0.0000 N   0  0  0  0  0  0  0  0  0  0  0  0
    6.3301    3.4330    0.0000 N   0  0  0  0  0  0  0  0  0  0  0  0
    4.5981   -5.5670    0.0000 N   0  0  0  0  0  0  0  0  0  0  0  0
    7.1962    4.9330    0.0000 N   0  0  0  0  0  0  0  0  0  0  0  0
    3.7320   -1.0670    0.0000 C   0  0  0  0  0  0  0  0  0  0  0  0
    5.4641   -1.0670    0.0000 C   0  0  0  0  0  0  0  0  0  0  0  0
    3.7320   -2.0670    0.0000 C   0  0  0  0  0  0  0  0  0  0  0  0
    5.4641   -2.0670    0.0000 C   0  0  0  0  0  0  0  0  0  0  0  0
    4.5981    0.4330    0.0000 C   0  0  0  0  0  0  0  0  0  0  0  0
    5.4641    0.9330    0.0000 C   0  0  0  0  0  0  0  0  0  0  0  0
    4.5981   -3.5670    0.0000 C   0  0  0  0  0  0  0  0  0  0  0  0
    5.4641    1.9330    0.0000 C   0  0  0  0  0  0  0  0  0  0  0  0
    6.3301    2.4330    0.0000 C   0  0  0  0  0  0  0  0  0  0  0  0
    6.3301   -5.5670    0.0000 C   0  0  0  0  0  0  0  0  0  0  0  0
    5.4641   -5.0670    0.0000 C   0  0  0  0  0  0  0  0  0  0  0  0
    3.7320   -4.0670    0.0000 C   0  0  0  0  0  0  0  0  0  0  0  0
    3.7320   -5.0670    0.0000 C   0  0  0  0  0  0  0  0  0  0  0  0
    7.1962   -6.0670    0.0000 C   0  0  0  0  0  0  0  0  0  0  0  0
    5.8301   -6.4330    0.0000 C   0  0  0  0  0  0  0  0  0  0  0  0
    6.8301   -4.7010    0.0000 C   0  0  0  0  0  0  0  0  0  0  0  0
    7.1962    3.9330    0.0000 C   0  0  0  0  0  0  0  0  0  0  0  0
    5.4641    3.9330    0.0000 C   0  0  0  0  0  0  0  0  0  0  0  0
    2.8660   -5.5670    0.0000 C   0  0  0  0  0  0  0  0  0  0  0  0
    5.4641    4.9330    0.0000 C   0  0  0  0  0  0  0  0  0  0  0  0
    6.3301    5.4330    0.0000 C   0  0  0  0  0  0  0  0  0  0  0  0
    8.0622    5.4330    0.0000 C   0  0  0  0  0  0  0  0  0  0  0  0
    4.5981    5.4330    0.0000 C   0  0  0  0  0  0  0  0  0  0  0  0
    3.5200   -0.4844    0.0000 H   0  0  0  0  0  0  0  0  0  0  0  0
    3.1215   -1.1746    0.0000 H   0  0  0  0  0  0  0  0  0  0  0  0
    6.0747   -1.1746    0.0000 H   0  0  0  0  0  0  0  0  0  0  0  0
    5.6762   -0.4844    0.0000 H   0  0  0  0  0  0  0  0  0  0  0  0
    3.1215   -1.9593    0.0000 H   0  0  0  0  0  0  0  0  0  0  0  0
    3.5200   -2.6496    0.0000 H   0  0  0  0  0  0  0  0  0  0  0  0
    5.6762   -2.6496    0.0000 H   0  0  0  0  0  0  0  0  0  0  0  0
    6.0747   -1.9593    0.0000 H   0  0  0  0  0  0  0  0  0  0  0  0
    4.3860    1.0156    0.0000 H   0  0  0  0  0  0  0  0  0  0  0  0
    3.9875    0.3254    0.0000 H   0  0  0  0  0  0  0  0  0  0  0  0
    5.6762    0.3504    0.0000 H   0  0  0  0  0  0  0  0  0  0  0  0
    6.0747    1.0407    0.0000 H   0  0  0  0  0  0  0  0  0  0  0  0
    5.2520    2.5156    0.0000 H   0  0  0  0  0  0  0  0  0  0  0  0
    4.8535    1.8254    0.0000 H   0  0  0  0  0  0  0  0  0  0  0  0
    6.5422    1.8504    0.0000 H   0  0  0  0  0  0  0  0  0  0  0  0
    6.9407    2.5407    0.0000 H   0  0  0  0  0  0  0  0  0  0  0  0
    3.1951   -3.7570    0.0000 H   0  0  0  0  0  0  0  0  0  0  0  0
    6.8862   -6.6039    0.0000 H   0  0  0  0  0  0  0  0  0  0  0  0
    7.7331   -6.3770    0.0000 H   0  0  0  0  0  0  0  0  0  0  0  0
    7.5062   -5.5300    0.0000 H   0  0  0  0  0  0  0  0  0  0  0  0
    5.2932   -6.1230    0.0000 H   0  0  0  0  0  0  0  0  0  0  0  0
    5.5201   -6.9700    0.0000 H   0  0  0  0  0  0  0  0  0  0  0  0
    6.3671   -6.7430    0.0000 H   0  0  0  0  0  0  0  0  0  0  0  0
    7.3671   -5.0110    0.0000 H   0  0  0  0  0  0  0  0  0  0  0  0
    7.1401   -4.1640    0.0000 H   0  0  0  0  0  0  0  0  0  0  0  0
    6.2932   -4.3910    0.0000 H   0  0  0  0  0  0  0  0  0  0  0  0
    4.9272    3.6230    0.0000 H   0  0  0  0  0  0  0  0  0  0  0  0
    8.3722    4.8961    0.0000 H   0  0  0  0  0  0  0  0  0  0  0  0
    8.5991    5.7430    0.0000 H   0  0  0  0  0  0  0  0  0  0  0  0
    7.7522    5.9700    0.0000 H   0  0  0  0  0  0  0  0  0  0  0  0
    4.9081    5.9700    0.0000 H   0  0  0  0  0  0  0  0  0  0  0  0
    4.0611    5.7430    0.0000 H   0  0  0  0  0  0  0  0  0  0  0  0
    4.2881    4.8961    0.0000 H   0  0  0  0  0  0  0  0  0  0  0  0
  1 30  1  0  0  0  0
  2 30  1  0  0  0  0
  3 30  1  0  0  0  0
  4 28  2  0  0  0  0
  5 32  2  0  0  0  0
  6 12  1  0  0  0  0
  6 13  1  0  0  0  0
  6 16  1  0  0  0  0
  7 14  1  0  0  0  0
  7 15  1  0  0  0  0
  7 18  1  0  0  0  0
  8 18  2  0  0  0  0
  8 22  1  0  0  0  0
  9 20  1  0  0  0  0
  9 28  1  0  0  0  0
  9 29  1  0  0  0  0
 10 22  2  0  0  0  0
 10 24  1  0  0  0  0
 11 28  1  0  0  0  0
 11 32  1  0  0  0  0
 11 33  1  0  0  0  0
 12 14  1  0  0  0  0
 12 35  1  0  0  0  0
 12 36  1  0  0  0  0
 13 15  1  0  0  0  0
 13 37  1  0  0  0  0
 13 38  1  0  0  0  0
 14 39  1  0  0  0  0
 14 40  1  0  0  0  0
 15 41  1  0  0  0  0
 15 42  1  0  0  0  0
 16 17  1  0  0  0  0
 16 43  1  0  0  0  0
 16 44  1  0  0  0  0
 17 19  1  0  0  0  0
 17 45  1  0  0  0  0
 17 46  1  0  0  0  0
 18 23  1  0  0  0  0
 19 20  1  0  0  0  0
 19 47  1  0  0  0  0
 19 48  1  0  0  0  0
 20 49  1  0  0  0  0
 20 50  1  0  0  0  0
 21 22  1  0  0  0  0
 21 25  1  0  0  0  0
 21 26  1  0  0  0  0
 21 27  1  0  0  0  0
 23 24  2  0  0  0  0
 23 51  1  0  0  0  0
 24 30  1  0  0  0  0
 25 52  1  0  0  0  0
 25 53  1  0  0  0  0
 25 54  1  0  0  0  0
 26 55  1  0  0  0  0
 26 56  1  0  0  0  0
 26 57  1  0  0  0  0
 27 58  1  0  0  0  0
 27 59  1  0  0  0  0
 27 60  1  0  0  0  0
 29 31  2  0  0  0  0
 29 61  1  0  0  0  0
 31 32  1  0  0  0  0
 31 34  1  0  0  0  0
 33 62  1  0  0  0  0
 33 63  1  0  0  0  0
 33 64  1  0  0  0  0
 34 65  1  0  0  0  0
 34 66  1  0  0  0  0
 34 67  1  0  0  0  0
M  END
> <PUBCHEM_COMPOUND_CID>
10457955

> <PUBCHEM_COMPOUND_CANONICALIZED>
1

> <PUBCHEM_CACTVS_COMPLEXITY>
774

> <PUBCHEM_CACTVS_HBOND_ACCEPTOR>
9

> <PUBCHEM_CACTVS_HBOND_DONOR>
0

> <PUBCHEM_CACTVS_ROTATABLE_BOND>
7

> <PUBCHEM_CACTVS_SUBSKEYS>
AAADcfB7sYAAAAAAAAAAAAAAAAAAAAAAAAAsWIAAAAAAAAABgAAAHwAAAAAADgjBlxQzsJcIEACoAyd2dACAgCkhAqABGCE4ZFiAaABAycAUBAhIByLAQOAAAAAAAAAAAAAAAAAAAAAAAAAAAAAAAAAAAA==

> <PUBCHEM_IUPAC_OPENEYE_NAME>
1-[4-[4-[2-tert-butyl-6-(trifluoromethyl)pyrimidin-4-yl]piperazin-1-yl]butyl]-3,5-dimethyl-pyrimidine-2,4-dione

> <PUBCHEM_IUPAC_CAS_NAME>
1-[4-[4-[2-tert-butyl-6-(trifluoromethyl)-4-pyrimidinyl]-1-piperazinyl]butyl]-3,5-dimethylpyrimidine-2,4-dione

> <PUBCHEM_IUPAC_NAME_MARKUP>
1-[4-[4-[2-<I>tert</I>-butyl-6-(trifluoromethyl)pyrimidin-4-yl]piperazin-1-yl]butyl]-3,5-dimethylpyrimidine-2,4-dione

> <PUBCHEM_IUPAC_NAME>
1-[4-[4-[2-tert-butyl-6-(trifluoromethyl)pyrimidin-4-yl]piperazin-1-yl]butyl]-3,5-dimethylpyrimidine-2,4-dione

> <PUBCHEM_IUPAC_SYSTEMATIC_NAME>
1-[4-[4-[2-tert-butyl-6-(trifluoromethyl)pyrimidin-4-yl]piperazin-1-yl]butyl]-3,5-dimethyl-pyrimidine-2,4-dione

> <PUBCHEM_IUPAC_TRADITIONAL_NAME>
1-[4-[4-[2-tert-butyl-6-(trifluoromethyl)pyrimidin-4-yl]piperazino]butyl]-3,5-dimethyl-pyrimidine-2,4-quinone

> <PUBCHEM_IUPAC_INCHI>
InChI=1S/C23H33F3N6O2/c1-16-15-32(21(34)29(5)19(16)33)9-7-6-8-30-10-12-31(13-11-30)18-14-17(23(24,25)26)27-20(28-18)22(2,3)4/h14-15H,6-13H2,1-5H3

> <PUBCHEM_IUPAC_INCHIKEY>
DVJYRJGVDBAXTD-UHFFFAOYSA-N

> <PUBCHEM_XLOGP3_AA>
3.4

> <PUBCHEM_EXACT_MASS>
482.26170880

> <PUBCHEM_MOLECULAR_FORMULA>
C23H33F3N6O2

> <PUBCHEM_MOLECULAR_WEIGHT>
482.5

> <PUBCHEM_OPENEYE_CAN_SMILES>
CC1=CN(C(=O)N(C1=O)C)CCCCN2CCN(CC2)C3=NC(=NC(=C3)C(F)(F)F)C(C)(C)C

> <PUBCHEM_OPENEYE_ISO_SMILES>
CC1=CN(C(=O)N(C1=O)C)CCCCN2CCN(CC2)C3=NC(=NC(=C3)C(F)(F)F)C(C)(C)C

> <PUBCHEM_CACTVS_TPSA>
72.9

> <PUBCHEM_MONOISOTOPIC_WEIGHT>
482.26170880

> <PUBCHEM_TOTAL_CHARGE>
0

> <PUBCHEM_HEAVY_ATOM_COUNT>
34

> <PUBCHEM_ATOM_DEF_STEREO_COUNT>
0

> <PUBCHEM_ATOM_UDEF_STEREO_COUNT>
0

> <PUBCHEM_BOND_DEF_STEREO_COUNT>
0

> <PUBCHEM_BOND_UDEF_STEREO_COUNT>
0

> <PUBCHEM_ISOTOPIC_ATOM_COUNT>
0

> <PUBCHEM_COMPONENT_COUNT>
1

> <PUBCHEM_CACTVS_TAUTO_COUNT>
-1

> <PUBCHEM_COORDINATE_TYPE>
1
5
255

> <PUBCHEM_BONDANNOTATIONS>
10  22  8
10  24  8
11  28  8
11  32  8
18  23  8
23  24  8
29  31  8
31  32  8
8  18  8
8  22  8
9  28  8
9  29  8

$$$$
