44436305
  -OEChem-09292322252D

 56 59  0     0  0  0  0  0  0999 V2000
   15.9244   -0.0173    0.0000 F   0  0  0  0  0  0  0  0  0  0  0  0
   15.5583   -1.3834    0.0000 F   0  0  0  0  0  0  0  0  0  0  0  0
   14.5583    0.3487    0.0000 F   0  0  0  0  0  0  0  0  0  0  0  0
    4.6660   -0.5173    0.0000 O   0  0  0  0  0  0  0  0  0  0  0  0
    9.8622    0.4827    0.0000 N   0  0  0  0  0  0  0  0  0  0  0  0
   11.5942   -0.5173    0.0000 N   0  0  0  0  0  0  0  0  0  0  0  0
    5.5321    0.9827    0.0000 N   0  0  0  0  0  0  0  0  0  0  0  0
    4.6660    2.4827    0.0000 N   0  0  0  0  0  0  0  0  0  0  0  0
   10.7282    0.9827    0.0000 C   0  0  0  0  0  0  0  0  0  0  0  0
    9.8622   -0.5173    0.0000 C   0  0  0  0  0  0  0  0  0  0  0  0
   11.5942    0.4827    0.0000 C   0  0  0  0  0  0  0  0  0  0  0  0
   10.7282   -1.0173    0.0000 C   0  0  0  0  0  0  0  0  0  0  0  0
    8.9962    0.9827    0.0000 C   0  0  0  0  0  0  0  0  0  0  0  0
    8.1301    0.4827    0.0000 C   0  0  0  0  0  0  0  0  0  0  0  0
    7.2641    0.9827    0.0000 C   0  0  0  0  0  0  0  0  0  0  0  0
   12.4603   -1.0173    0.0000 C   0  0  0  0  0  0  0  0  0  0  0  0
    6.3981    0.4827    0.0000 C   0  0  0  0  0  0  0  0  0  0  0  0
   13.3263   -0.5173    0.0000 C   0  0  0  0  0  0  0  0  0  0  0  0
   12.4603   -2.0173    0.0000 C   0  0  0  0  0  0  0  0  0  0  0  0
   14.1923   -1.0173    0.0000 C   0  0  0  0  0  0  0  0  0  0  0  0
   13.3263   -2.5173    0.0000 C   0  0  0  0  0  0  0  0  0  0  0  0
   14.1923   -2.0173    0.0000 C   0  0  0  0  0  0  0  0  0  0  0  0
    4.6660    0.4827    0.0000 C   0  0  0  0  0  0  0  0  0  0  0  0
    5.5321    1.9827    0.0000 C   0  0  0  0  0  0  0  0  0  0  0  0
    3.8000    0.9827    0.0000 C   0  0  0  0  0  0  0  0  0  0  0  0
   15.0583   -0.5173    0.0000 C   0  0  0  0  0  0  0  0  0  0  0  0
    3.8000    1.9827    0.0000 C   0  0  0  0  0  0  0  0  0  0  0  0
    2.9061    0.4480    0.0000 C   0  0  0  0  0  0  0  0  0  0  0  0
    2.9061    2.5173    0.0000 C   0  0  0  0  0  0  0  0  0  0  0  0
    2.0000    0.9619    0.0000 C   0  0  0  0  0  0  0  0  0  0  0  0
    2.0000    2.0035    0.0000 C   0  0  0  0  0  0  0  0  0  0  0  0
   11.1267    1.4576    0.0000 H   0  0  0  0  0  0  0  0  0  0  0  0
   10.3297    1.4576    0.0000 H   0  0  0  0  0  0  0  0  0  0  0  0
    9.2516   -0.4097    0.0000 H   0  0  0  0  0  0  0  0  0  0  0  0
    9.6501   -1.0999    0.0000 H   0  0  0  0  0  0  0  0  0  0  0  0
   12.2048    0.3750    0.0000 H   0  0  0  0  0  0  0  0  0  0  0  0
   11.8063    1.0653    0.0000 H   0  0  0  0  0  0  0  0  0  0  0  0
   10.3297   -1.4923    0.0000 H   0  0  0  0  0  0  0  0  0  0  0  0
   11.1267   -1.4923    0.0000 H   0  0  0  0  0  0  0  0  0  0  0  0
    9.3947    1.4576    0.0000 H   0  0  0  0  0  0  0  0  0  0  0  0
    8.5976    1.4576    0.0000 H   0  0  0  0  0  0  0  0  0  0  0  0
    7.7316    0.0077    0.0000 H   0  0  0  0  0  0  0  0  0  0  0  0
    8.5287    0.0077    0.0000 H   0  0  0  0  0  0  0  0  0  0  0  0
    7.6626    1.4576    0.0000 H   0  0  0  0  0  0  0  0  0  0  0  0
    6.8656    1.4576    0.0000 H   0  0  0  0  0  0  0  0  0  0  0  0
    5.9996    0.0077    0.0000 H   0  0  0  0  0  0  0  0  0  0  0  0
    6.7966    0.0077    0.0000 H   0  0  0  0  0  0  0  0  0  0  0  0
   13.3263    0.1027    0.0000 H   0  0  0  0  0  0  0  0  0  0  0  0
   11.9233   -2.3273    0.0000 H   0  0  0  0  0  0  0  0  0  0  0  0
   13.3263   -3.1373    0.0000 H   0  0  0  0  0  0  0  0  0  0  0  0
   14.7292   -2.3273    0.0000 H   0  0  0  0  0  0  0  0  0  0  0  0
    6.0690    2.2927    0.0000 H   0  0  0  0  0  0  0  0  0  0  0  0
    2.9132   -0.1720    0.0000 H   0  0  0  0  0  0  0  0  0  0  0  0
    2.9132    3.1373    0.0000 H   0  0  0  0  0  0  0  0  0  0  0  0
    1.4643    0.6498    0.0000 H   0  0  0  0  0  0  0  0  0  0  0  0
    1.4643    2.3156    0.0000 H   0  0  0  0  0  0  0  0  0  0  0  0
  1 26  1  0  0  0  0
  2 26  1  0  0  0  0
  3 26  1  0  0  0  0
  4 23  2  0  0  0  0
  5  9  1  0  0  0  0
  5 10  1  0  0  0  0
  5 13  1  0  0  0  0
  6 11  1  0  0  0  0
  6 12  1  0  0  0  0
  6 16  1  0  0  0  0
  7 17  1  0  0  0  0
  7 23  1  0  0  0  0
  7 24  1  0  0  0  0
  8 24  2  0  0  0  0
  8 27  1  0  0  0  0
  9 11  1  0  0  0  0
  9 32  1  0  0  0  0
  9 33  1  0  0  0  0
 10 12  1  0  0  0  0
 10 34  1  0  0  0  0
 10 35  1  0  0  0  0
 11 36  1  0  0  0  0
 11 37  1  0  0  0  0
 12 38  1  0  0  0  0
 12 39  1  0  0  0  0
 13 14  1  0  0  0  0
 13 40  1  0  0  0  0
 13 41  1  0  0  0  0
 14 15  1  0  0  0  0
 14 42  1  0  0  0  0
 14 43  1  0  0  0  0
 15 17  1  0  0  0  0
 15 44  1  0  0  0  0
 15 45  1  0  0  0  0
 16 18  1  0  0  0  0
 16 19  2  0  0  0  0
 17 46  1  0  0  0  0
 17 47  1  0  0  0  0
 18 20  2  0  0  0  0
 18 48  1  0  0  0  0
 19 21  1  0  0  0  0
 19 49  1  0  0  0  0
 20 22  1  0  0  0  0
 20 26  1  0  0  0  0
 21 22  2  0  0  0  0
 21 50  1  0  0  0  0
 22 51  1  0  0  0  0
 23 25  1  0  0  0  0
 24 52  1  0  0  0  0
 25 27  1  0  0  0  0
 25 28  2  0  0  0  0
 27 29  2  0  0  0  0
 28 30  1  0  0  0  0
 28 53  1  0  0  0  0
 29 31  1  0  0  0  0
 29 54  1  0  0  0  0
 30 31  2  0  0  0  0
 30 55  1  0  0  0  0
 31 56  1  0  0  0  0
M  END
> <PUBCHEM_COMPOUND_CID>
44436305

> <PUBCHEM_COMPOUND_CANONICALIZED>
1

> <PUBCHEM_CACTVS_COMPLEXITY>
633

> <PUBCHEM_CACTVS_HBOND_ACCEPTOR>
7

> <PUBCHEM_CACTVS_HBOND_DONOR>
0

> <PUBCHEM_CACTVS_ROTATABLE_BOND>
6

> <PUBCHEM_CACTVS_SUBSKEYS>
AAADceB7oYAAAAAAAAAAAAAAAAAAAAAAAAA8YIEAAAAAAACBQAAAHwAAAAAADAjBmBQxwIMAAACoAiVTdACCAAElAgAJiAEIZMgIYDrA3ZGUIYhghgDIyccYiACOAAAAQAACAAAAAACAAAQAAAAAAAAAAA==

> <PUBCHEM_IUPAC_OPENEYE_NAME>
3-[4-[4-[3-(trifluoromethyl)phenyl]piperazin-1-yl]butyl]quinazolin-4-one

> <PUBCHEM_IUPAC_CAS_NAME>
3-[4-[4-[3-(trifluoromethyl)phenyl]-1-piperazinyl]butyl]-4-quinazolinone

> <PUBCHEM_IUPAC_NAME_MARKUP>
3-[4-[4-[3-(trifluoromethyl)phenyl]piperazin-1-yl]butyl]quinazolin-4-one

> <PUBCHEM_IUPAC_NAME>
3-[4-[4-[3-(trifluoromethyl)phenyl]piperazin-1-yl]butyl]quinazolin-4-one

> <PUBCHEM_IUPAC_SYSTEMATIC_NAME>
3-[4-[4-[3-(trifluoromethyl)phenyl]piperazin-1-yl]butyl]quinazolin-4-one

> <PUBCHEM_IUPAC_TRADITIONAL_NAME>
3-[4-[4-[3-(trifluoromethyl)phenyl]piperazino]butyl]quinazolin-4-one

> <PUBCHEM_IUPAC_INCHI>
InChI=1S/C23H25F3N4O/c24-23(25,26)18-6-5-7-19(16-18)29-14-12-28(13-15-29)10-3-4-11-30-17-27-21-9-2-1-8-20(21)22(30)31/h1-2,5-9,16-17H,3-4,10-15H2

> <PUBCHEM_IUPAC_INCHIKEY>
AJQHTFDOWXUHQW-UHFFFAOYSA-N

> <PUBCHEM_XLOGP3_AA>
4.1

> <PUBCHEM_EXACT_MASS>
430.19804592

> <PUBCHEM_MOLECULAR_FORMULA>
C23H25F3N4O

> <PUBCHEM_MOLECULAR_WEIGHT>
430.5

> <PUBCHEM_OPENEYE_CAN_SMILES>
C1CN(CCN1CCCCN2C=NC3=CC=CC=C3C2=O)C4=CC=CC(=C4)C(F)(F)F

> <PUBCHEM_OPENEYE_ISO_SMILES>
C1CN(CCN1CCCCN2C=NC3=CC=CC=C3C2=O)C4=CC=CC(=C4)C(F)(F)F

> <PUBCHEM_CACTVS_TPSA>
39.2

> <PUBCHEM_MONOISOTOPIC_WEIGHT>
430.19804592

> <PUBCHEM_TOTAL_CHARGE>
0

> <PUBCHEM_HEAVY_ATOM_COUNT>
31

> <PUBCHEM_ATOM_DEF_STEREO_COUNT>
0

> <PUBCHEM_ATOM_UDEF_STEREO_COUNT>
0

> <PUBCHEM_BOND_DEF_STEREO_COUNT>
0

> <PUBCHEM_BOND_UDEF_STEREO_COUNT>
0

> <PUBCHEM_ISOTOPIC_ATOM_COUNT>
0

> <PUBCHEM_COMPONENT_COUNT>
1

> <PUBCHEM_CACTVS_TAUTO_COUNT>
-1

> <PUBCHEM_COORDINATE_TYPE>
1
5
255

> <PUBCHEM_BONDANNOTATIONS>
16  18  8
16  19  8
18  20  8
19  21  8
20  22  8
21  22  8
23  25  8
25  27  8
25  28  8
27  29  8
28  30  8
29  31  8
30  31  8
7  23  8
7  24  8
8  24  8
8  27  8

$$$$
