11577158
  -OEChem-09292322242D

 66 71  0     1  0  0  0  0  0999 V2000
   15.2862   -2.7024    0.0000 S   0  0  0  0  0  0  0  0  0  0  0  0
    9.0604    1.0014    0.0000 S   0  0  0  0  0  0  0  0  0  0  0  0
   12.0604   -0.7306    0.0000 N   0  0  3  0  0  0  0  0  0  0  0  0
   16.6800   -1.8977    0.0000 N   0  0  0  0  0  0  0  0  0  0  0  0
    7.4726    1.8104    0.0000 N   0  0  0  0  0  0  0  0  0  0  0  0
    7.4726    0.1924    0.0000 N   0  0  0  0  0  0  0  0  0  0  0  0
    6.5215    0.5014    0.0000 N   0  0  0  0  0  0  0  0  0  0  0  0
    3.0320    1.8613    0.0000 N   0  0  0  0  0  0  0  0  0  0  0  0
   12.4847   -1.6149    0.0000 C   0  0  0  0  0  0  0  0  0  0  0  0
   12.4847    0.1536    0.0000 C   0  0  0  0  0  0  0  0  0  0  0  0
   13.4401   -1.8370    0.0000 C   0  0  0  0  0  0  0  0  0  0  0  0
   13.4401    0.3757    0.0000 C   0  0  0  0  0  0  0  0  0  0  0  0
   14.2110   -1.2306    0.0000 C   0  0  0  0  0  0  0  0  0  0  0  0
   14.2110   -0.2306    0.0000 C   0  0  0  0  0  0  0  0  0  0  0  0
   11.0604   -0.7306    0.0000 C   0  0  0  0  0  0  0  0  0  0  0  0
   15.0770   -1.7306    0.0000 C   0  0  0  0  0  0  0  0  0  0  0  0
   10.5604    0.1354    0.0000 C   0  0  0  0  0  0  0  0  0  0  0  0
   15.0770    0.2694    0.0000 C   0  0  0  0  0  0  0  0  0  0  0  0
   15.9430   -1.2306    0.0000 C   0  0  0  0  0  0  0  0  0  0  0  0
   15.9430   -0.2306    0.0000 C   0  0  0  0  0  0  0  0  0  0  0  0
    9.5604    0.1354    0.0000 C   0  0  0  0  0  0  0  0  0  0  0  0
   16.2749   -2.8055    0.0000 C   0  0  0  0  0  0  0  0  0  0  0  0
   16.7749   -3.6715    0.0000 C   0  0  0  0  0  0  0  0  0  0  0  0
    8.0604    1.0014    0.0000 C   0  0  0  0  0  0  0  0  0  0  0  0
    6.5215    1.5014    0.0000 C   0  0  0  0  0  0  0  0  0  0  0  0
    5.7125    2.0892    0.0000 C   0  0  0  0  0  0  0  0  0  0  0  0
    4.7990    1.6825    0.0000 C   0  0  0  0  0  0  0  0  0  0  0  0
    7.7816    2.7615    0.0000 C   0  0  0  0  0  0  0  0  0  0  0  0
    3.9900    2.2703    0.0000 C   0  0  0  0  0  0  0  0  0  0  0  0
    5.8171    3.0837    0.0000 C   0  0  0  0  0  0  0  0  0  0  0  0
    4.7061    0.6450    0.0000 C   0  0  0  0  0  0  0  0  0  0  0  0
    4.0945    3.2648    0.0000 C   0  0  0  0  0  0  0  0  0  0  0  0
    5.0080    3.6715    0.0000 C   0  0  0  0  0  0  0  0  0  0  0  0
    3.7578    0.2140    0.0000 C   0  0  0  0  0  0  0  0  0  0  0  0
    2.9151    0.8263    0.0000 C   0  0  0  0  0  0  0  0  0  0  0  0
    2.0000    0.4230    0.0000 C   0  0  0  0  0  0  0  0  0  0  0  0
   11.8800   -1.7515    0.0000 H   0  0  0  0  0  0  0  0  0  0  0  0
   12.4828   -2.2349    0.0000 H   0  0  0  0  0  0  0  0  0  0  0  0
   12.4828    0.7736    0.0000 H   0  0  0  0  0  0  0  0  0  0  0  0
   11.8800    0.2902    0.0000 H   0  0  0  0  0  0  0  0  0  0  0  0
   13.1683   -2.3942    0.0000 H   0  0  0  0  0  0  0  0  0  0  0  0
   13.9225   -2.2264    0.0000 H   0  0  0  0  0  0  0  0  0  0  0  0
   13.9225    0.7651    0.0000 H   0  0  0  0  0  0  0  0  0  0  0  0
   13.1683    0.9330    0.0000 H   0  0  0  0  0  0  0  0  0  0  0  0
   10.4778   -0.9427    0.0000 H   0  0  0  0  0  0  0  0  0  0  0  0
   11.1680   -1.3412    0.0000 H   0  0  0  0  0  0  0  0  0  0  0  0
   11.1430    0.3475    0.0000 H   0  0  0  0  0  0  0  0  0  0  0  0
   10.4527    0.7460    0.0000 H   0  0  0  0  0  0  0  0  0  0  0  0
   15.0770    0.8894    0.0000 H   0  0  0  0  0  0  0  0  0  0  0  0
   16.4800    0.0794    0.0000 H   0  0  0  0  0  0  0  0  0  0  0  0
    8.9778   -0.0767    0.0000 H   0  0  0  0  0  0  0  0  0  0  0  0
    9.6680   -0.4752    0.0000 H   0  0  0  0  0  0  0  0  0  0  0  0
   16.2380   -3.9815    0.0000 H   0  0  0  0  0  0  0  0  0  0  0  0
   17.0849   -4.2085    0.0000 H   0  0  0  0  0  0  0  0  0  0  0  0
   17.3119   -3.3615    0.0000 H   0  0  0  0  0  0  0  0  0  0  0  0
    8.3713    2.5699    0.0000 H   0  0  0  0  0  0  0  0  0  0  0  0
    7.9732    3.3512    0.0000 H   0  0  0  0  0  0  0  0  0  0  0  0
    7.1920    2.9531    0.0000 H   0  0  0  0  0  0  0  0  0  0  0  0
    6.3834    3.3359    0.0000 H   0  0  0  0  0  0  0  0  0  0  0  0
    5.2119    0.2864    0.0000 H   0  0  0  0  0  0  0  0  0  0  0  0
    3.5929    3.6292    0.0000 H   0  0  0  0  0  0  0  0  0  0  0  0
    5.0728    4.2881    0.0000 H   0  0  0  0  0  0  0  0  0  0  0  0
    3.6954   -0.4028    0.0000 H   0  0  0  0  0  0  0  0  0  0  0  0
    1.7500    0.9904    0.0000 H   0  0  0  0  0  0  0  0  0  0  0  0
    1.4326    0.1731    0.0000 H   0  0  0  0  0  0  0  0  0  0  0  0
    2.2500   -0.1443    0.0000 H   0  0  0  0  0  0  0  0  0  0  0  0
  1 16  1  0  0  0  0
  1 22  1  0  0  0  0
  2 21  1  0  0  0  0
  2 24  1  0  0  0  0
  3  9  1  0  0  0  0
  3 10  1  0  0  0  0
  3 15  1  0  0  0  0
  4 19  1  0  0  0  0
  4 22  2  0  0  0  0
  5 24  1  0  0  0  0
  5 25  1  0  0  0  0
  5 28  1  0  0  0  0
  6  7  1  0  0  0  0
  6 24  2  0  0  0  0
  7 25  2  0  0  0  0
  8 29  1  0  0  0  0
  8 35  2  0  0  0  0
  9 11  1  0  0  0  0
  9 37  1  0  0  0  0
  9 38  1  0  0  0  0
 10 12  1  0  0  0  0
 10 39  1  0  0  0  0
 10 40  1  0  0  0  0
 11 13  1  0  0  0  0
 11 41  1  0  0  0  0
 11 42  1  0  0  0  0
 12 14  1  0  0  0  0
 12 43  1  0  0  0  0
 12 44  1  0  0  0  0
 13 14  2  0  0  0  0
 13 16  1  0  0  0  0
 14 18  1  0  0  0  0
 15 17  1  0  0  0  0
 15 45  1  0  0  0  0
 15 46  1  0  0  0  0
 16 19  2  0  0  0  0
 17 21  1  0  0  0  0
 17 47  1  0  0  0  0
 17 48  1  0  0  0  0
 18 20  2  0  0  0  0
 18 49  1  0  0  0  0
 19 20  1  0  0  0  0
 20 50  1  0  0  0  0
 21 51  1  0  0  0  0
 21 52  1  0  0  0  0
 22 23  1  0  0  0  0
 23 53  1  0  0  0  0
 23 54  1  0  0  0  0
 23 55  1  0  0  0  0
 25 26  1  0  0  0  0
 26 27  2  0  0  0  0
 26 30  1  0  0  0  0
 27 29  1  0  0  0  0
 27 31  1  0  0  0  0
 28 56  1  0  0  0  0
 28 57  1  0  0  0  0
 28 58  1  0  0  0  0
 29 32  2  0  0  0  0
 30 33  2  0  0  0  0
 30 59  1  0  0  0  0
 31 34  2  0  0  0  0
 31 60  1  0  0  0  0
 32 33  1  0  0  0  0
 32 61  1  0  0  0  0
 33 62  1  0  0  0  0
 34 35  1  0  0  0  0
 34 63  1  0  0  0  0
 35 36  1  0  0  0  0
 36 64  1  0  0  0  0
 36 65  1  0  0  0  0
 36 66  1  0  0  0  0
M  END
> <PUBCHEM_COMPOUND_CID>
11577158

> <PUBCHEM_COMPOUND_CANONICALIZED>
1

> <PUBCHEM_CACTVS_COMPLEXITY>
728

> <PUBCHEM_CACTVS_HBOND_ACCEPTOR>
7

> <PUBCHEM_CACTVS_HBOND_DONOR>
0

> <PUBCHEM_CACTVS_ROTATABLE_BOND>
6

> <PUBCHEM_CACTVS_SUBSKEYS>
AAADceB7gABgAAAAAAAAAAAAAAAAAWLAAAA8YIAABYAAAFix/gAAHAQIAAAADAjFXwSz0fcMEAimAyZiZACT8KthCrgd2DQ4ZJiIKOLgmZGEIAhgiALoyAcQgMAOiAAAwAAWAQAQAAGAACwCAAAAAAAAAA==

> <PUBCHEM_IUPAC_OPENEYE_NAME>
2-methyl-8-[3-[[4-methyl-5-(2-methyl-5-quinolyl)-1,2,4-triazol-3-yl]sulfanyl]propyl]-6,7,9,10-tetrahydrothiazolo[4,5-i][3]benzazepine

> <PUBCHEM_IUPAC_CAS_NAME>
2-methyl-8-[3-[[4-methyl-5-(2-methyl-5-quinolinyl)-1,2,4-triazol-3-yl]thio]propyl]-6,7,9,10-tetrahydrothiazolo[4,5-i][3]benzazepine

> <PUBCHEM_IUPAC_NAME_MARKUP>
2-methyl-8-[3-[[4-methyl-5-(2-methylquinolin-5-yl)-1,2,4-triazol-3-yl]sulfanyl]propyl]-6,7,9,10-tetrahydro-[1,3]thiazolo[4,5-i][3]benzazepine

> <PUBCHEM_IUPAC_NAME>
2-methyl-8-[3-[[4-methyl-5-(2-methylquinolin-5-yl)-1,2,4-triazol-3-yl]sulfanyl]propyl]-6,7,9,10-tetrahydro-[1,3]thiazolo[4,5-i][3]benzazepine

> <PUBCHEM_IUPAC_SYSTEMATIC_NAME>
2-methyl-8-[3-[[4-methyl-5-(2-methylquinolin-5-yl)-1,2,4-triazol-3-yl]sulfanyl]propyl]-6,7,9,10-tetrahydro-[1,3]thiazolo[4,5-i][3]benzazepine

> <PUBCHEM_IUPAC_TRADITIONAL_NAME>
2-methyl-8-[3-[[4-methyl-5-(2-methyl-5-quinolyl)-1,2,4-triazol-3-yl]thio]propyl]-6,7,9,10-tetrahydrothiazolo[4,5-i][3]benzazepine

> <PUBCHEM_IUPAC_INCHI>
InChI=1S/C28H30N6S2/c1-18-8-10-22-23(6-4-7-24(22)29-18)27-31-32-28(33(27)3)35-17-5-14-34-15-12-20-9-11-25-26(21(20)13-16-34)36-19(2)30-25/h4,6-11H,5,12-17H2,1-3H3

> <PUBCHEM_IUPAC_INCHIKEY>
JOZMHQIYXRYITJ-UHFFFAOYSA-N

> <PUBCHEM_XLOGP3_AA>
5.8

> <PUBCHEM_EXACT_MASS>
514.19733733

> <PUBCHEM_MOLECULAR_FORMULA>
C28H30N6S2

> <PUBCHEM_MOLECULAR_WEIGHT>
514.7

> <PUBCHEM_OPENEYE_CAN_SMILES>
CC1=NC2=CC=CC(=C2C=C1)C3=NN=C(N3C)SCCCN4CCC5=C(CC4)C6=C(C=C5)N=C(S6)C

> <PUBCHEM_OPENEYE_ISO_SMILES>
CC1=NC2=CC=CC(=C2C=C1)C3=NN=C(N3C)SCCCN4CCC5=C(CC4)C6=C(C=C5)N=C(S6)C

> <PUBCHEM_CACTVS_TPSA>
113

> <PUBCHEM_MONOISOTOPIC_WEIGHT>
514.19733733

> <PUBCHEM_TOTAL_CHARGE>
0

> <PUBCHEM_HEAVY_ATOM_COUNT>
36

> <PUBCHEM_ATOM_DEF_STEREO_COUNT>
0

> <PUBCHEM_ATOM_UDEF_STEREO_COUNT>
0

> <PUBCHEM_BOND_DEF_STEREO_COUNT>
0

> <PUBCHEM_BOND_UDEF_STEREO_COUNT>
0

> <PUBCHEM_ISOTOPIC_ATOM_COUNT>
0

> <PUBCHEM_COMPONENT_COUNT>
1

> <PUBCHEM_CACTVS_TAUTO_COUNT>
-1

> <PUBCHEM_COORDINATE_TYPE>
1
5
255

> <PUBCHEM_BONDANNOTATIONS>
1  16  8
1  22  8
13  14  8
13  16  8
14  18  8
16  19  8
18  20  8
19  20  8
26  27  8
26  30  8
27  29  8
27  31  8
29  32  8
30  33  8
31  34  8
32  33  8
34  35  8
4  19  8
4  22  8
5  24  8
5  25  8
6  24  8
6  7  8
7  25  8
8  29  8
8  35  8

$$$$
