44582178
  -OEChem-09292322232D

 58 61  0     0  0  0  0  0  0999 V2000
   10.5284    0.8431    0.0000 O   0  0  0  0  0  0  0  0  0  0  0  0
    5.4828   -0.0068    0.0000 N   0  0  0  0  0  0  0  0  0  0  0  0
    4.2358   -1.5705    0.0000 N   0  0  0  0  0  0  0  0  0  0  0  0
    9.3309    2.0406    0.0000 N   0  0  0  0  0  0  0  0  0  0  0  0
    3.9777   -3.2832    0.0000 N   0  0  0  0  0  0  0  0  0  0  0  0
    5.8481   -0.9377    0.0000 C   0  0  0  0  0  0  0  0  0  0  0  0
    4.4940    0.1422    0.0000 C   0  0  0  0  0  0  0  0  0  0  0  0
    6.1063    0.7750    0.0000 C   0  0  0  0  0  0  0  0  0  0  0  0
    5.2246   -1.7195    0.0000 C   0  0  0  0  0  0  0  0  0  0  0  0
    3.8705   -0.6396    0.0000 C   0  0  0  0  0  0  0  0  0  0  0  0
    7.0951    0.6260    0.0000 C   0  0  0  0  0  0  0  0  0  0  0  0
    7.7186    1.4078    0.0000 C   0  0  0  0  0  0  0  0  0  0  0  0
    8.7074    1.2587    0.0000 C   0  0  0  0  0  0  0  0  0  0  0  0
    8.8970    2.9415    0.0000 C   0  0  0  0  0  0  0  0  0  0  0  0
    9.3309    3.8425    0.0000 C   0  0  0  0  0  0  0  0  0  0  0  0
   10.3058    4.0650    0.0000 C   0  0  0  0  0  0  0  0  0  0  0  0
    3.6123   -2.3523    0.0000 C   0  0  0  0  0  0  0  0  0  0  0  0
   10.3058    1.8180    0.0000 C   0  0  0  0  0  0  0  0  0  0  0  0
   11.0877    3.4415    0.0000 C   0  0  0  0  0  0  0  0  0  0  0  0
   11.0877    2.4415    0.0000 C   0  0  0  0  0  0  0  0  0  0  0  0
    2.6235   -2.2033    0.0000 C   0  0  0  0  0  0  0  0  0  0  0  0
   11.9816    3.9762    0.0000 C   0  0  0  0  0  0  0  0  0  0  0  0
   11.9816    1.9069    0.0000 C   0  0  0  0  0  0  0  0  0  0  0  0
   12.8877    3.4624    0.0000 C   0  0  0  0  0  0  0  0  0  0  0  0
   12.8877    2.4207    0.0000 C   0  0  0  0  0  0  0  0  0  0  0  0
    2.0000   -2.9851    0.0000 C   0  0  0  0  0  0  0  0  0  0  0  0
    3.3542   -4.0650    0.0000 C   0  0  0  0  0  0  0  0  0  0  0  0
    2.3653   -3.9160    0.0000 C   0  0  0  0  0  0  0  0  0  0  0  0
    6.2584   -1.4026    0.0000 H   0  0  0  0  0  0  0  0  0  0  0  0
    6.3772   -0.6144    0.0000 H   0  0  0  0  0  0  0  0  0  0  0  0
    4.6914    0.7299    0.0000 H   0  0  0  0  0  0  0  0  0  0  0  0
    3.9495    0.4387    0.0000 H   0  0  0  0  0  0  0  0  0  0  0  0
    6.3037    1.3627    0.0000 H   0  0  0  0  0  0  0  0  0  0  0  0
    5.5618    1.0715    0.0000 H   0  0  0  0  0  0  0  0  0  0  0  0
    5.0272   -2.3072    0.0000 H   0  0  0  0  0  0  0  0  0  0  0  0
    5.7691   -2.0161    0.0000 H   0  0  0  0  0  0  0  0  0  0  0  0
    3.4602   -0.1748    0.0000 H   0  0  0  0  0  0  0  0  0  0  0  0
    3.3414   -0.9629    0.0000 H   0  0  0  0  0  0  0  0  0  0  0  0
    6.8976    0.0382    0.0000 H   0  0  0  0  0  0  0  0  0  0  0  0
    7.6396    0.3294    0.0000 H   0  0  0  0  0  0  0  0  0  0  0  0
    7.9161    1.9955    0.0000 H   0  0  0  0  0  0  0  0  0  0  0  0
    7.1741    1.7043    0.0000 H   0  0  0  0  0  0  0  0  0  0  0  0
    8.5100    0.6710    0.0000 H   0  0  0  0  0  0  0  0  0  0  0  0
    9.2519    0.9622    0.0000 H   0  0  0  0  0  0  0  0  0  0  0  0
    8.4123    3.3281    0.0000 H   0  0  0  0  0  0  0  0  0  0  0  0
    8.4123    2.5550    0.0000 H   0  0  0  0  0  0  0  0  0  0  0  0
    9.3309    4.4625    0.0000 H   0  0  0  0  0  0  0  0  0  0  0  0
    8.7265    3.9805    0.0000 H   0  0  0  0  0  0  0  0  0  0  0  0
   10.7906    4.4516    0.0000 H   0  0  0  0  0  0  0  0  0  0  0  0
   10.0368    4.6236    0.0000 H   0  0  0  0  0  0  0  0  0  0  0  0
    2.3970   -1.6261    0.0000 H   0  0  0  0  0  0  0  0  0  0  0  0
   11.9745    4.5962    0.0000 H   0  0  0  0  0  0  0  0  0  0  0  0
   11.9745    1.2869    0.0000 H   0  0  0  0  0  0  0  0  0  0  0  0
   13.4234    3.7744    0.0000 H   0  0  0  0  0  0  0  0  0  0  0  0
   13.4234    2.1087    0.0000 H   0  0  0  0  0  0  0  0  0  0  0  0
    1.3869   -2.8927    0.0000 H   0  0  0  0  0  0  0  0  0  0  0  0
    3.5807   -4.6422    0.0000 H   0  0  0  0  0  0  0  0  0  0  0  0
    1.9788   -4.4007    0.0000 H   0  0  0  0  0  0  0  0  0  0  0  0
  1 18  2  0  0  0  0
  2  6  1  0  0  0  0
  2  7  1  0  0  0  0
  2  8  1  0  0  0  0
  3  9  1  0  0  0  0
  3 10  1  0  0  0  0
  3 17  1  0  0  0  0
  4 13  1  0  0  0  0
  4 14  1  0  0  0  0
  4 18  1  0  0  0  0
  5 17  1  0  0  0  0
  5 27  2  0  0  0  0
  6  9  1  0  0  0  0
  6 29  1  0  0  0  0
  6 30  1  0  0  0  0
  7 10  1  0  0  0  0
  7 31  1  0  0  0  0
  7 32  1  0  0  0  0
  8 11  1  0  0  0  0
  8 33  1  0  0  0  0
  8 34  1  0  0  0  0
  9 35  1  0  0  0  0
  9 36  1  0  0  0  0
 10 37  1  0  0  0  0
 10 38  1  0  0  0  0
 11 12  1  0  0  0  0
 11 39  1  0  0  0  0
 11 40  1  0  0  0  0
 12 13  1  0  0  0  0
 12 41  1  0  0  0  0
 12 42  1  0  0  0  0
 13 43  1  0  0  0  0
 13 44  1  0  0  0  0
 14 15  1  0  0  0  0
 14 45  1  0  0  0  0
 14 46  1  0  0  0  0
 15 16  1  0  0  0  0
 15 47  1  0  0  0  0
 15 48  1  0  0  0  0
 16 19  1  0  0  0  0
 16 49  1  0  0  0  0
 16 50  1  0  0  0  0
 17 21  2  0  0  0  0
 18 20  1  0  0  0  0
 19 20  1  0  0  0  0
 19 22  2  0  0  0  0
 20 23  2  0  0  0  0
 21 26  1  0  0  0  0
 21 51  1  0  0  0  0
 22 24  1  0  0  0  0
 22 52  1  0  0  0  0
 23 25  1  0  0  0  0
 23 53  1  0  0  0  0
 24 25  2  0  0  0  0
 24 54  1  0  0  0  0
 25 55  1  0  0  0  0
 26 28  2  0  0  0  0
 26 56  1  0  0  0  0
 27 28  1  0  0  0  0
 27 57  1  0  0  0  0
 28 58  1  0  0  0  0
M  END
> <PUBCHEM_COMPOUND_CID>
44582178

> <PUBCHEM_COMPOUND_CANONICALIZED>
1

> <PUBCHEM_CACTVS_COMPLEXITY>
491

> <PUBCHEM_CACTVS_HBOND_ACCEPTOR>
4

> <PUBCHEM_CACTVS_HBOND_DONOR>
0

> <PUBCHEM_CACTVS_ROTATABLE_BOND>
6

> <PUBCHEM_CACTVS_SUBSKEYS>
AAADceB7oAAAAAAAAAAAAAAAAAAAAAAAAAA8WIAABYAAAAABwAAAHgAAAAAADADBmgQ9sJMIEACoAjN3dACCgCk1AiAJ2CE4ZNiIYPLAnZGUIQhohgLIyacYiICOgAAAAAAQAAAAAAAAACAAAAAAAAAAAA==

> <PUBCHEM_IUPAC_OPENEYE_NAME>
2-[4-[4-(2-pyridyl)piperazin-1-yl]butyl]-4,5-dihydro-3H-2-benzazepin-1-one

> <PUBCHEM_IUPAC_CAS_NAME>
2-[4-[4-(2-pyridinyl)-1-piperazinyl]butyl]-4,5-dihydro-3H-2-benzazepin-1-one

> <PUBCHEM_IUPAC_NAME_MARKUP>
2-[4-(4-pyridin-2-ylpiperazin-1-yl)butyl]-4,5-dihydro-3<I>H</I>-2-benzazepin-1-one

> <PUBCHEM_IUPAC_NAME>
2-[4-(4-pyridin-2-ylpiperazin-1-yl)butyl]-4,5-dihydro-3H-2-benzazepin-1-one

> <PUBCHEM_IUPAC_SYSTEMATIC_NAME>
2-[4-(4-pyridin-2-ylpiperazin-1-yl)butyl]-4,5-dihydro-3H-2-benzazepin-1-one

> <PUBCHEM_IUPAC_TRADITIONAL_NAME>
2-[4-[4-(2-pyridyl)piperazino]butyl]-4,5-dihydro-3H-2-benzazepin-1-one

> <PUBCHEM_IUPAC_INCHI>
InChI=1S/C23H30N4O/c28-23-21-10-2-1-8-20(21)9-7-15-27(23)14-6-5-13-25-16-18-26(19-17-25)22-11-3-4-12-24-22/h1-4,8,10-12H,5-7,9,13-19H2

> <PUBCHEM_IUPAC_INCHIKEY>
ZEZPYBMUPDTITR-UHFFFAOYSA-N

> <PUBCHEM_XLOGP3_AA>
3.4

> <PUBCHEM_EXACT_MASS>
378.24196159

> <PUBCHEM_MOLECULAR_FORMULA>
C23H30N4O

> <PUBCHEM_MOLECULAR_WEIGHT>
378.5

> <PUBCHEM_OPENEYE_CAN_SMILES>
C1CC2=CC=CC=C2C(=O)N(C1)CCCCN3CCN(CC3)C4=CC=CC=N4

> <PUBCHEM_OPENEYE_ISO_SMILES>
C1CC2=CC=CC=C2C(=O)N(C1)CCCCN3CCN(CC3)C4=CC=CC=N4

> <PUBCHEM_CACTVS_TPSA>
39.7

> <PUBCHEM_MONOISOTOPIC_WEIGHT>
378.24196159

> <PUBCHEM_TOTAL_CHARGE>
0

> <PUBCHEM_HEAVY_ATOM_COUNT>
28

> <PUBCHEM_ATOM_DEF_STEREO_COUNT>
0

> <PUBCHEM_ATOM_UDEF_STEREO_COUNT>
0

> <PUBCHEM_BOND_DEF_STEREO_COUNT>
0

> <PUBCHEM_BOND_UDEF_STEREO_COUNT>
0

> <PUBCHEM_ISOTOPIC_ATOM_COUNT>
0

> <PUBCHEM_COMPONENT_COUNT>
1

> <PUBCHEM_CACTVS_TAUTO_COUNT>
-1

> <PUBCHEM_COORDINATE_TYPE>
1
5
255

> <PUBCHEM_BONDANNOTATIONS>
17  21  8
19  20  8
19  22  8
20  23  8
21  26  8
22  24  8
23  25  8
24  25  8
26  28  8
27  28  8
5  17  8
5  27  8

$$$$
