168271704
  -OEChem-09292322442D

 61 63  0     0  0  0  0  0  0999 V2000
    8.3979    3.6200    0.0000 Cl  0  0  0  0  0  0  0  0  0  0  0  0
   10.1300    2.6200    0.0000 Cl  0  0  0  0  0  0  0  0  0  0  0  0
    4.9338    6.6200    0.0000 O   0  0  0  0  0  0  0  0  0  0  0  0
    6.3640   12.2862    0.0000 O   0  0  0  0  0  0  0  0  0  0  0  0
    3.7660   12.7862    0.0000 O   0  0  0  0  0  0  0  0  0  0  0  0
    5.4980   13.7862    0.0000 O   0  0  0  0  0  0  0  0  0  0  0  0
    4.6320   11.2862    0.0000 O   0  0  0  0  0  0  0  0  0  0  0  0
    4.9338    3.6200    0.0000 N   0  0  0  0  0  0  0  0  0  0  0  0
    6.6659    2.6200    0.0000 N   0  0  0  0  0  0  0  0  0  0  0  0
    3.2018    6.6200    0.0000 N   0  0  0  0  0  0  0  0  0  0  0  0
    5.7998    4.1200    0.0000 C   0  0  0  0  0  0  0  0  0  0  0  0
    4.9338    2.6200    0.0000 C   0  0  0  0  0  0  0  0  0  0  0  0
    4.0678    4.1200    0.0000 C   0  0  0  0  0  0  0  0  0  0  0  0
    6.6659    3.6200    0.0000 C   0  0  0  0  0  0  0  0  0  0  0  0
    5.7998    2.1200    0.0000 C   0  0  0  0  0  0  0  0  0  0  0  0
    4.0678    5.1200    0.0000 C   0  0  0  0  0  0  0  0  0  0  0  0
    3.2018    5.6200    0.0000 C   0  0  0  0  0  0  0  0  0  0  0  0
    7.5319    2.1200    0.0000 C   0  0  0  0  0  0  0  0  0  0  0  0
    2.3358    7.1200    0.0000 C   0  0  0  0  0  0  0  0  0  0  0  0
    3.2018    8.6200    0.0000 C   0  0  0  0  0  0  0  0  0  0  0  0
    2.3358    8.1200    0.0000 C   0  0  0  0  0  0  0  0  0  0  0  0
    4.0678    8.1200    0.0000 C   0  0  0  0  0  0  0  0  0  0  0  0
    4.0678    7.1200    0.0000 C   0  0  0  0  0  0  0  0  0  0  0  0
    8.3979    2.6200    0.0000 C   0  0  0  0  0  0  0  0  0  0  0  0
    7.5319    1.1200    0.0000 C   0  0  0  0  0  0  0  0  0  0  0  0
    1.4418    6.5853    0.0000 C   0  0  0  0  0  0  0  0  0  0  0  0
    1.4418    8.6547    0.0000 C   0  0  0  0  0  0  0  0  0  0  0  0
    0.5357    7.0992    0.0000 C   0  0  0  0  0  0  0  0  0  0  0  0
    0.5357    8.1408    0.0000 C   0  0  0  0  0  0  0  0  0  0  0  0
    9.2640    2.1200    0.0000 C   0  0  0  0  0  0  0  0  0  0  0  0
    8.3979    0.6200    0.0000 C   0  0  0  0  0  0  0  0  0  0  0  0
    9.2640    1.1200    0.0000 C   0  0  0  0  0  0  0  0  0  0  0  0
    5.4980   12.7862    0.0000 C   0  0  0  0  0  0  0  0  0  0  0  0
    4.6320   12.2862    0.0000 C   0  0  0  0  0  0  0  0  0  0  0  0
    6.1984    4.5950    0.0000 H   0  0  0  0  0  0  0  0  0  0  0  0
    5.4013    4.5950    0.0000 H   0  0  0  0  0  0  0  0  0  0  0  0
    4.3232    2.7277    0.0000 H   0  0  0  0  0  0  0  0  0  0  0  0
    4.7218    2.0374    0.0000 H   0  0  0  0  0  0  0  0  0  0  0  0
    3.4572    4.2277    0.0000 H   0  0  0  0  0  0  0  0  0  0  0  0
    3.8557    3.5374    0.0000 H   0  0  0  0  0  0  0  0  0  0  0  0
    7.2764    3.5123    0.0000 H   0  0  0  0  0  0  0  0  0  0  0  0
    6.8779    4.2026    0.0000 H   0  0  0  0  0  0  0  0  0  0  0  0
    5.4013    1.6450    0.0000 H   0  0  0  0  0  0  0  0  0  0  0  0
    6.1984    1.6450    0.0000 H   0  0  0  0  0  0  0  0  0  0  0  0
    4.6784    5.0123    0.0000 H   0  0  0  0  0  0  0  0  0  0  0  0
    4.2798    5.7026    0.0000 H   0  0  0  0  0  0  0  0  0  0  0  0
    2.5912    5.7277    0.0000 H   0  0  0  0  0  0  0  0  0  0  0  0
    2.9897    5.0374    0.0000 H   0  0  0  0  0  0  0  0  0  0  0  0
    3.6003    9.0950    0.0000 H   0  0  0  0  0  0  0  0  0  0  0  0
    2.8032    9.0950    0.0000 H   0  0  0  0  0  0  0  0  0  0  0  0
    4.6784    8.0123    0.0000 H   0  0  0  0  0  0  0  0  0  0  0  0
    4.2798    8.7026    0.0000 H   0  0  0  0  0  0  0  0  0  0  0  0
    6.9950    0.8100    0.0000 H   0  0  0  0  0  0  0  0  0  0  0  0
    1.4490    5.9654    0.0000 H   0  0  0  0  0  0  0  0  0  0  0  0
    1.4490    9.2746    0.0000 H   0  0  0  0  0  0  0  0  0  0  0  0
    0.0000    6.7871    0.0000 H   0  0  0  0  0  0  0  0  0  0  0  0
    0.0000    8.4529    0.0000 H   0  0  0  0  0  0  0  0  0  0  0  0
    8.3979    0.0000    0.0000 H   0  0  0  0  0  0  0  0  0  0  0  0
    9.8009    0.8100    0.0000 H   0  0  0  0  0  0  0  0  0  0  0  0
    6.9010   12.5962    0.0000 H   0  0  0  0  0  0  0  0  0  0  0  0
    3.2290   12.4762    0.0000 H   0  0  0  0  0  0  0  0  0  0  0  0
  1 24  1  0  0  0  0
  2 30  1  0  0  0  0
  3 23  2  0  0  0  0
  4 33  1  0  0  0  0
  4 60  1  0  0  0  0
  5 34  1  0  0  0  0
  5 61  1  0  0  0  0
  6 33  2  0  0  0  0
  7 34  2  0  0  0  0
  8 11  1  0  0  0  0
  8 12  1  0  0  0  0
  8 13  1  0  0  0  0
  9 14  1  0  0  0  0
  9 15  1  0  0  0  0
  9 18  1  0  0  0  0
 10 17  1  0  0  0  0
 10 19  1  0  0  0  0
 10 23  1  0  0  0  0
 11 14  1  0  0  0  0
 11 35  1  0  0  0  0
 11 36  1  0  0  0  0
 12 15  1  0  0  0  0
 12 37  1  0  0  0  0
 12 38  1  0  0  0  0
 13 16  1  0  0  0  0
 13 39  1  0  0  0  0
 13 40  1  0  0  0  0
 14 41  1  0  0  0  0
 14 42  1  0  0  0  0
 15 43  1  0  0  0  0
 15 44  1  0  0  0  0
 16 17  1  0  0  0  0
 16 45  1  0  0  0  0
 16 46  1  0  0  0  0
 17 47  1  0  0  0  0
 17 48  1  0  0  0  0
 18 24  2  0  0  0  0
 18 25  1  0  0  0  0
 19 21  1  0  0  0  0
 19 26  2  0  0  0  0
 20 21  1  0  0  0  0
 20 22  1  0  0  0  0
 20 49  1  0  0  0  0
 20 50  1  0  0  0  0
 21 27  2  0  0  0  0
 22 23  1  0  0  0  0
 22 51  1  0  0  0  0
 22 52  1  0  0  0  0
 24 30  1  0  0  0  0
 25 31  2  0  0  0  0
 25 53  1  0  0  0  0
 26 28  1  0  0  0  0
 26 54  1  0  0  0  0
 27 29  1  0  0  0  0
 27 55  1  0  0  0  0
 28 29  2  0  0  0  0
 28 56  1  0  0  0  0
 29 57  1  0  0  0  0
 30 32  2  0  0  0  0
 31 32  1  0  0  0  0
 31 58  1  0  0  0  0
 32 59  1  0  0  0  0
 33 34  1  0  0  0  0
M  END
> <PUBCHEM_COMPOUND_CID>
168271704

> <PUBCHEM_COMPOUND_CANONICALIZED>
1

> <PUBCHEM_CACTVS_COMPLEXITY>
598

> <PUBCHEM_CACTVS_HBOND_ACCEPTOR>
7

> <PUBCHEM_CACTVS_HBOND_DONOR>
2

> <PUBCHEM_CACTVS_ROTATABLE_BOND>
6

> <PUBCHEM_CACTVS_SUBSKEYS>
AAADceB7OAAGAAAAAAAAAAAAAAAAAAAAAAA8eIEAAAAAAACxQAAAHgIACAAADArBmCQwyIMAAgCIAiXSWAKCAAAhBwAIikFIZogJYDLB05HUIAhghgDJyAcYiYCeAAAAAAICABQAAAAABAQAKAAAAAAAAA==

> <PUBCHEM_IUPAC_OPENEYE_NAME>
1-[3-[4-(2,3-dichlorophenyl)piperazin-1-yl]propyl]-3,4-dihydroquinolin-2-one;oxalic acid

> <PUBCHEM_IUPAC_CAS_NAME>
1-[3-[4-(2,3-dichlorophenyl)-1-piperazinyl]propyl]-3,4-dihydroquinolin-2-one;oxalic acid

> <PUBCHEM_IUPAC_NAME_MARKUP>
1-[3-[4-(2,3-dichlorophenyl)piperazin-1-yl]propyl]-3,4-dihydroquinolin-2-one;oxalic acid

> <PUBCHEM_IUPAC_NAME>
1-[3-[4-(2,3-dichlorophenyl)piperazin-1-yl]propyl]-3,4-dihydroquinolin-2-one;oxalic acid

> <PUBCHEM_IUPAC_SYSTEMATIC_NAME>
1-[3-[4-[2,3-bis(chloranyl)phenyl]piperazin-1-yl]propyl]-3,4-dihydroquinolin-2-one;ethanedioic acid

> <PUBCHEM_IUPAC_TRADITIONAL_NAME>
1-[3-[4-(2,3-dichlorophenyl)piperazino]propyl]-3,4-dihydrocarbostyril;oxalic acid

> <PUBCHEM_IUPAC_INCHI>
InChI=1S/C22H25Cl2N3O.C2H2O4/c23-18-6-3-8-20(22(18)24)26-15-13-25(14-16-26)11-4-12-27-19-7-2-1-5-17(19)9-10-21(27)28;3-1(4)2(5)6/h1-3,5-8H,4,9-16H2;(H,3,4)(H,5,6)

> <PUBCHEM_IUPAC_INCHIKEY>
UFVHIVWQXOUUIE-UHFFFAOYSA-N

> <PUBCHEM_EXACT_MASS>
507.1327764

> <PUBCHEM_MOLECULAR_FORMULA>
C24H27Cl2N3O5

> <PUBCHEM_MOLECULAR_WEIGHT>
508.4

> <PUBCHEM_OPENEYE_CAN_SMILES>
C1CC(=O)N(C2=CC=CC=C21)CCCN3CCN(CC3)C4=C(C(=CC=C4)Cl)Cl.C(=O)(C(=O)O)O

> <PUBCHEM_OPENEYE_ISO_SMILES>
C1CC(=O)N(C2=CC=CC=C21)CCCN3CCN(CC3)C4=C(C(=CC=C4)Cl)Cl.C(=O)(C(=O)O)O

> <PUBCHEM_CACTVS_TPSA>
101

> <PUBCHEM_MONOISOTOPIC_WEIGHT>
507.1327764

> <PUBCHEM_TOTAL_CHARGE>
0

> <PUBCHEM_HEAVY_ATOM_COUNT>
34

> <PUBCHEM_ATOM_DEF_STEREO_COUNT>
0

> <PUBCHEM_ATOM_UDEF_STEREO_COUNT>
0

> <PUBCHEM_BOND_DEF_STEREO_COUNT>
0

> <PUBCHEM_BOND_UDEF_STEREO_COUNT>
0

> <PUBCHEM_ISOTOPIC_ATOM_COUNT>
0

> <PUBCHEM_COMPONENT_COUNT>
2

> <PUBCHEM_CACTVS_TAUTO_COUNT>
-1

> <PUBCHEM_COORDINATE_TYPE>
1
5
255

> <PUBCHEM_BONDANNOTATIONS>
18  24  8
18  25  8
19  21  8
19  26  8
21  27  8
24  30  8
25  31  8
26  28  8
27  29  8
28  29  8
30  32  8
31  32  8

$$$$
