155533824
  -OEChem-09292322422D

 35 36  0     0  0  0  0  0  0999 V2000
    2.0000   -0.5000    0.0000 Cl  0  0  0  0  0  0  0  0  0  0  0  0
    3.7320    0.5000    0.0000 N   0  0  0  0  0  0  0  0  0  0  0  0
    3.7320    2.5000    0.0000 N   0  0  0  0  0  0  0  0  0  0  0  0
    2.8660    1.0000    0.0000 C   0  0  0  0  0  0  0  0  0  0  0  0
    4.5981    1.0000    0.0000 C   0  0  0  0  0  0  0  0  0  0  0  0
    2.8660    2.0000    0.0000 C   0  0  0  0  0  0  0  0  0  0  0  0
    4.5981    2.0000    0.0000 C   0  0  0  0  0  0  0  0  0  0  0  0
    3.7320   -0.5000    0.0000 C   0  0  0  0  0  0  0  0  0  0  0  0
    3.7320    3.5000    0.0000 C   0  0  0  0  0  0  0  0  0  0  0  0
    2.8660   -1.0000    0.0000 C   0  0  0  0  0  0  0  0  0  0  0  0
    4.5981   -1.0000    0.0000 C   0  0  0  0  0  0  0  0  0  0  0  0
    2.8660   -2.0000    0.0000 C   0  0  0  0  0  0  0  0  0  0  0  0
    4.5981   -2.0000    0.0000 C   0  0  0  0  0  0  0  0  0  0  0  0
    2.0000   -2.5000    0.0000 C   0  0  0  0  0  0  0  0  0  0  0  0
    3.7320   -2.5000    0.0000 C   0  0  0  0  0  0  0  0  0  0  0  0
    2.0000   -3.5000    0.0000 C   0  0  0  0  0  0  0  0  0  0  0  0
    2.2554    1.1077    0.0000 H   0  0  0  0  0  0  0  0  0  0  0  0
    2.6540    0.4174    0.0000 H   0  0  0  0  0  0  0  0  0  0  0  0
    4.8101    0.4174    0.0000 H   0  0  0  0  0  0  0  0  0  0  0  0
    5.2087    1.1077    0.0000 H   0  0  0  0  0  0  0  0  0  0  0  0
    2.6540    2.5826    0.0000 H   0  0  0  0  0  0  0  0  0  0  0  0
    2.2554    1.8923    0.0000 H   0  0  0  0  0  0  0  0  0  0  0  0
    5.2087    1.8923    0.0000 H   0  0  0  0  0  0  0  0  0  0  0  0
    4.8101    2.5826    0.0000 H   0  0  0  0  0  0  0  0  0  0  0  0
    4.3520    3.5000    0.0000 H   0  0  0  0  0  0  0  0  0  0  0  0
    3.7320    4.1200    0.0000 H   0  0  0  0  0  0  0  0  0  0  0  0
    3.1120    3.5000    0.0000 H   0  0  0  0  0  0  0  0  0  0  0  0
    5.1350   -0.6900    0.0000 H   0  0  0  0  0  0  0  0  0  0  0  0
    1.7880   -1.9174    0.0000 H   0  0  0  0  0  0  0  0  0  0  0  0
    1.3894   -2.6077    0.0000 H   0  0  0  0  0  0  0  0  0  0  0  0
    5.1350   -2.3100    0.0000 H   0  0  0  0  0  0  0  0  0  0  0  0
    3.7320   -3.1200    0.0000 H   0  0  0  0  0  0  0  0  0  0  0  0
    1.3800   -3.5000    0.0000 H   0  0  0  0  0  0  0  0  0  0  0  0
    2.0000   -4.1200    0.0000 H   0  0  0  0  0  0  0  0  0  0  0  0
    2.6200   -3.5000    0.0000 H   0  0  0  0  0  0  0  0  0  0  0  0
  1 10  1  0  0  0  0
  2  4  1  0  0  0  0
  2  5  1  0  0  0  0
  2  8  1  0  0  0  0
  3  6  1  0  0  0  0
  3  7  1  0  0  0  0
  3  9  1  0  0  0  0
  4  6  1  0  0  0  0
  4 17  1  0  0  0  0
  4 18  1  0  0  0  0
  5  7  1  0  0  0  0
  5 19  1  0  0  0  0
  5 20  1  0  0  0  0
  6 21  1  0  0  0  0
  6 22  1  0  0  0  0
  7 23  1  0  0  0  0
  7 24  1  0  0  0  0
  8 10  1  0  0  0  0
  8 11  2  0  0  0  0
  9 25  1  0  0  0  0
  9 26  1  0  0  0  0
  9 27  1  0  0  0  0
 10 12  2  0  0  0  0
 11 13  1  0  0  0  0
 11 28  1  0  0  0  0
 12 14  1  0  0  0  0
 12 15  1  0  0  0  0
 13 15  2  0  0  0  0
 13 31  1  0  0  0  0
 14 16  1  0  0  0  0
 14 29  1  0  0  0  0
 14 30  1  0  0  0  0
 15 32  1  0  0  0  0
 16 33  1  0  0  0  0
 16 34  1  0  0  0  0
 16 35  1  0  0  0  0
M  END
> <PUBCHEM_COMPOUND_CID>
155533824

> <PUBCHEM_COMPOUND_CANONICALIZED>
1

> <PUBCHEM_CACTVS_COMPLEXITY>
214

> <PUBCHEM_CACTVS_HBOND_ACCEPTOR>
2

> <PUBCHEM_CACTVS_HBOND_DONOR>
0

> <PUBCHEM_CACTVS_ROTATABLE_BOND>
2

> <PUBCHEM_CACTVS_SUBSKEYS>
AAADceBzAAAEAAAAAAAAAAAAAAAAAAAAAAA8QAAAAAAAAAABAAAAHAIAAAAADArBGCQywIMAAACAAiRCQACCAAAhBgAIiAAIZogIYCLBk5HUIAhggADIyAcQgIAOAAAAQAABABAAAACAAAIAIAAAAAAAAA==

> <PUBCHEM_IUPAC_OPENEYE_NAME>
1-(2-chloro-3-ethyl-phenyl)-4-methyl-piperazine

> <PUBCHEM_IUPAC_CAS_NAME>
1-(2-chloro-3-ethylphenyl)-4-methylpiperazine

> <PUBCHEM_IUPAC_NAME_MARKUP>
1-(2-chloro-3-ethylphenyl)-4-methylpiperazine

> <PUBCHEM_IUPAC_NAME>
1-(2-chloro-3-ethylphenyl)-4-methylpiperazine

> <PUBCHEM_IUPAC_SYSTEMATIC_NAME>
1-(2-chloranyl-3-ethyl-phenyl)-4-methyl-piperazine

> <PUBCHEM_IUPAC_TRADITIONAL_NAME>
1-(2-chloro-3-ethyl-phenyl)-4-methyl-piperazine

> <PUBCHEM_IUPAC_INCHI>
InChI=1S/C13H19ClN2/c1-3-11-5-4-6-12(13(11)14)16-9-7-15(2)8-10-16/h4-6H,3,7-10H2,1-2H3

> <PUBCHEM_IUPAC_INCHIKEY>
WDYXVLOKALEPOS-UHFFFAOYSA-N

> <PUBCHEM_XLOGP3_AA>
3.3

> <PUBCHEM_EXACT_MASS>
238.1236763

> <PUBCHEM_MOLECULAR_FORMULA>
C13H19ClN2

> <PUBCHEM_MOLECULAR_WEIGHT>
238.75

> <PUBCHEM_OPENEYE_CAN_SMILES>
CCC1=C(C(=CC=C1)N2CCN(CC2)C)Cl

> <PUBCHEM_OPENEYE_ISO_SMILES>
CCC1=C(C(=CC=C1)N2CCN(CC2)C)Cl

> <PUBCHEM_CACTVS_TPSA>
6.5

> <PUBCHEM_MONOISOTOPIC_WEIGHT>
238.1236763

> <PUBCHEM_TOTAL_CHARGE>
0

> <PUBCHEM_HEAVY_ATOM_COUNT>
16

> <PUBCHEM_ATOM_DEF_STEREO_COUNT>
0

> <PUBCHEM_ATOM_UDEF_STEREO_COUNT>
0

> <PUBCHEM_BOND_DEF_STEREO_COUNT>
0

> <PUBCHEM_BOND_UDEF_STEREO_COUNT>
0

> <PUBCHEM_ISOTOPIC_ATOM_COUNT>
0

> <PUBCHEM_COMPONENT_COUNT>
1

> <PUBCHEM_CACTVS_TAUTO_COUNT>
-1

> <PUBCHEM_COORDINATE_TYPE>
1
5
255

> <PUBCHEM_BONDANNOTATIONS>
10  12  8
11  13  8
12  15  8
13  15  8
8  10  8
8  11  8

$$$$
