47556338
  -OEChem-09292322392D

 53 56  0     1  0  0  0  0  0999 V2000
   14.0429    1.8606    0.0000 F   0  0  0  0  0  0  0  0  0  0  0  0
    7.2641    0.5242    0.0000 O   0  0  0  0  0  0  0  0  0  0  0  0
   10.1176   -1.8606    0.0000 O   0  0  0  0  0  0  0  0  0  0  0  0
    8.3575    1.1879    0.0000 O   0  0  0  0  0  0  0  0  0  0  0  0
    5.5321   -0.4758    0.0000 N   0  0  3  0  0  0  0  0  0  0  0  0
    8.9962   -0.4758    0.0000 N   0  0  0  0  0  0  0  0  0  0  0  0
   10.0788    0.7267    0.0000 N   0  0  0  0  0  0  0  0  0  0  0  0
   10.5788   -0.1394    0.0000 C   0  0  3  0  0  0  0  0  0  0  0  0
    6.3981   -0.9758    0.0000 C   0  0  0  0  0  0  0  0  0  0  0  0
    7.2641   -0.4758    0.0000 C   0  0  3  0  0  0  0  0  0  0  0  0
    8.1301   -0.9758    0.0000 C   0  0  0  0  0  0  0  0  0  0  0  0
    5.5321    0.5242    0.0000 C   0  0  0  0  0  0  0  0  0  0  0  0
    4.6660   -0.9758    0.0000 C   0  0  0  0  0  0  0  0  0  0  0  0
    4.6660    1.0242    0.0000 C   0  0  0  0  0  0  0  0  0  0  0  0
    9.9097   -0.8825    0.0000 C   0  0  0  0  0  0  0  0  0  0  0  0
    3.8000   -0.4758    0.0000 C   0  0  0  0  0  0  0  0  0  0  0  0
    3.8000    0.5242    0.0000 C   0  0  0  0  0  0  0  0  0  0  0  0
    9.1007    0.5188    0.0000 C   0  0  0  0  0  0  0  0  0  0  0  0
   11.4449    0.3606    0.0000 C   0  0  0  0  0  0  0  0  0  0  0  0
   11.3220   -0.8085    0.0000 C   0  0  0  0  0  0  0  0  0  0  0  0
    2.9061   -1.0104    0.0000 C   0  0  0  0  0  0  0  0  0  0  0  0
    2.9061    1.0589    0.0000 C   0  0  0  0  0  0  0  0  0  0  0  0
   11.4449    1.3606    0.0000 C   0  0  0  0  0  0  0  0  0  0  0  0
   12.3109   -0.1394    0.0000 C   0  0  0  0  0  0  0  0  0  0  0  0
    2.0000   -0.4966    0.0000 C   0  0  0  0  0  0  0  0  0  0  0  0
    2.0000    0.5451    0.0000 C   0  0  0  0  0  0  0  0  0  0  0  0
   12.3109    1.8606    0.0000 C   0  0  0  0  0  0  0  0  0  0  0  0
   13.1769    0.3606    0.0000 C   0  0  0  0  0  0  0  0  0  0  0  0
   13.1769    1.3606    0.0000 C   0  0  0  0  0  0  0  0  0  0  0  0
    5.9996   -1.4507    0.0000 H   0  0  0  0  0  0  0  0  0  0  0  0
    6.7966   -1.4507    0.0000 H   0  0  0  0  0  0  0  0  0  0  0  0
    7.8010   -0.1658    0.0000 H   0  0  0  0  0  0  0  0  0  0  0  0
    7.7316   -1.4507    0.0000 H   0  0  0  0  0  0  0  0  0  0  0  0
    8.5287   -1.4507    0.0000 H   0  0  0  0  0  0  0  0  0  0  0  0
    6.1426    0.4166    0.0000 H   0  0  0  0  0  0  0  0  0  0  0  0
    5.7441    1.1068    0.0000 H   0  0  0  0  0  0  0  0  0  0  0  0
    4.2675   -1.4507    0.0000 H   0  0  0  0  0  0  0  0  0  0  0  0
    5.0646   -1.4507    0.0000 H   0  0  0  0  0  0  0  0  0  0  0  0
    5.0646    1.4992    0.0000 H   0  0  0  0  0  0  0  0  0  0  0  0
    4.2675    1.4992    0.0000 H   0  0  0  0  0  0  0  0  0  0  0  0
   10.3310    1.2931    0.0000 H   0  0  0  0  0  0  0  0  0  0  0  0
   10.9071   -1.2692    0.0000 H   0  0  0  0  0  0  0  0  0  0  0  0
   11.7827   -1.2234    0.0000 H   0  0  0  0  0  0  0  0  0  0  0  0
   11.7368   -0.3477    0.0000 H   0  0  0  0  0  0  0  0  0  0  0  0
    2.9132   -1.6304    0.0000 H   0  0  0  0  0  0  0  0  0  0  0  0
    2.9132    1.6789    0.0000 H   0  0  0  0  0  0  0  0  0  0  0  0
    7.8010    0.8342    0.0000 H   0  0  0  0  0  0  0  0  0  0  0  0
   10.9079    1.6706    0.0000 H   0  0  0  0  0  0  0  0  0  0  0  0
   12.3109   -0.7594    0.0000 H   0  0  0  0  0  0  0  0  0  0  0  0
    1.4643   -0.8086    0.0000 H   0  0  0  0  0  0  0  0  0  0  0  0
    1.4643    0.8571    0.0000 H   0  0  0  0  0  0  0  0  0  0  0  0
   12.3109    2.4806    0.0000 H   0  0  0  0  0  0  0  0  0  0  0  0
   13.7138    0.0506    0.0000 H   0  0  0  0  0  0  0  0  0  0  0  0
  1 29  1  0  0  0  0
  2 10  1  0  0  0  0
  2 47  1  0  0  0  0
  3 15  2  0  0  0  0
  4 18  2  0  0  0  0
  5  9  1  0  0  0  0
  5 12  1  0  0  0  0
  5 13  1  0  0  0  0
  6 11  1  0  0  0  0
  6 15  1  0  0  0  0
  6 18  1  0  0  0  0
  7  8  1  0  0  0  0
  7 18  1  0  0  0  0
  7 41  1  0  0  0  0
  8 15  1  0  0  0  0
  8 19  1  0  0  0  0
  8 20  1  0  0  0  0
  9 10  1  0  0  0  0
  9 30  1  0  0  0  0
  9 31  1  0  0  0  0
 10 11  1  0  0  0  0
 10 32  1  0  0  0  0
 11 33  1  0  0  0  0
 11 34  1  0  0  0  0
 12 14  1  0  0  0  0
 12 35  1  0  0  0  0
 12 36  1  0  0  0  0
 13 16  1  0  0  0  0
 13 37  1  0  0  0  0
 13 38  1  0  0  0  0
 14 17  1  0  0  0  0
 14 39  1  0  0  0  0
 14 40  1  0  0  0  0
 16 17  1  0  0  0  0
 16 21  2  0  0  0  0
 17 22  2  0  0  0  0
 19 23  2  0  0  0  0
 19 24  1  0  0  0  0
 20 42  1  0  0  0  0
 20 43  1  0  0  0  0
 20 44  1  0  0  0  0
 21 25  1  0  0  0  0
 21 45  1  0  0  0  0
 22 26  1  0  0  0  0
 22 46  1  0  0  0  0
 23 27  1  0  0  0  0
 23 48  1  0  0  0  0
 24 28  2  0  0  0  0
 24 49  1  0  0  0  0
 25 26  2  0  0  0  0
 25 50  1  0  0  0  0
 26 51  1  0  0  0  0
 27 29  2  0  0  0  0
 27 52  1  0  0  0  0
 28 29  1  0  0  0  0
 28 53  1  0  0  0  0
M  END
> <PUBCHEM_COMPOUND_CID>
47556338

> <PUBCHEM_COMPOUND_CANONICALIZED>
1

> <PUBCHEM_CACTVS_COMPLEXITY>
624

> <PUBCHEM_CACTVS_HBOND_ACCEPTOR>
5

> <PUBCHEM_CACTVS_HBOND_DONOR>
2

> <PUBCHEM_CACTVS_ROTATABLE_BOND>
5

> <PUBCHEM_CACTVS_SUBSKEYS>
AAADceB7MQAAAAAAAAAAAAAAAAAAAWAAAAA8YIAAAAAAAACxQAAAHwAQCAAADJzhmA4zAIPAAgCIAiFSEACCAAAgAAAIiAGIBIiKcDKA1TGUIAholyKYiAcYiMCOgAAAAAAQAAAAAAAAACAAAAAAAAAAAA==

> <PUBCHEM_IUPAC_OPENEYE_NAME>
3-[3-(3,4-dihydro-1H-isoquinolin-2-yl)-2-hydroxy-propyl]-5-(4-fluorophenyl)-5-methyl-imidazolidine-2,4-dione

> <PUBCHEM_IUPAC_CAS_NAME>
3-[3-(3,4-dihydro-1H-isoquinolin-2-yl)-2-hydroxypropyl]-5-(4-fluorophenyl)-5-methylimidazolidine-2,4-dione

> <PUBCHEM_IUPAC_NAME_MARKUP>
3-[3-(3,4-dihydro-1<I>H</I>-isoquinolin-2-yl)-2-hydroxypropyl]-5-(4-fluorophenyl)-5-methylimidazolidine-2,4-dione

> <PUBCHEM_IUPAC_NAME>
3-[3-(3,4-dihydro-1H-isoquinolin-2-yl)-2-hydroxypropyl]-5-(4-fluorophenyl)-5-methylimidazolidine-2,4-dione

> <PUBCHEM_IUPAC_SYSTEMATIC_NAME>
3-[3-(3,4-dihydro-1H-isoquinolin-2-yl)-2-oxidanyl-propyl]-5-(4-fluorophenyl)-5-methyl-imidazolidine-2,4-dione

> <PUBCHEM_IUPAC_TRADITIONAL_NAME>
3-[3-(3,4-dihydro-1H-isoquinolin-2-yl)-2-hydroxy-propyl]-5-(4-fluorophenyl)-5-methyl-hydantoin

> <PUBCHEM_IUPAC_INCHI>
InChI=1S/C22H24FN3O3/c1-22(17-6-8-18(23)9-7-17)20(28)26(21(29)24-22)14-19(27)13-25-11-10-15-4-2-3-5-16(15)12-25/h2-9,19,27H,10-14H2,1H3,(H,24,29)

> <PUBCHEM_IUPAC_INCHIKEY>
SDGOGUYALAJPLF-UHFFFAOYSA-N

> <PUBCHEM_XLOGP3_AA>
2.1

> <PUBCHEM_EXACT_MASS>
397.18016980

> <PUBCHEM_MOLECULAR_FORMULA>
C22H24FN3O3

> <PUBCHEM_MOLECULAR_WEIGHT>
397.4

> <PUBCHEM_OPENEYE_CAN_SMILES>
CC1(C(=O)N(C(=O)N1)CC(CN2CCC3=CC=CC=C3C2)O)C4=CC=C(C=C4)F

> <PUBCHEM_OPENEYE_ISO_SMILES>
CC1(C(=O)N(C(=O)N1)CC(CN2CCC3=CC=CC=C3C2)O)C4=CC=C(C=C4)F

> <PUBCHEM_CACTVS_TPSA>
72.9

> <PUBCHEM_MONOISOTOPIC_WEIGHT>
397.18016980

> <PUBCHEM_TOTAL_CHARGE>
0

> <PUBCHEM_HEAVY_ATOM_COUNT>
29

> <PUBCHEM_ATOM_DEF_STEREO_COUNT>
0

> <PUBCHEM_ATOM_UDEF_STEREO_COUNT>
2

> <PUBCHEM_BOND_DEF_STEREO_COUNT>
0

> <PUBCHEM_BOND_UDEF_STEREO_COUNT>
0

> <PUBCHEM_ISOTOPIC_ATOM_COUNT>
0

> <PUBCHEM_COMPONENT_COUNT>
1

> <PUBCHEM_CACTVS_TAUTO_COUNT>
-1

> <PUBCHEM_COORDINATE_TYPE>
1
5
255

> <PUBCHEM_BONDANNOTATIONS>
16  17  8
16  21  8
17  22  8
19  23  8
19  24  8
10  2  3
21  25  8
22  26  8
23  27  8
24  28  8
25  26  8
27  29  8
28  29  8
8  20  3

$$$$
