155515942
  -OEChem-09292322412D

 47 51  0     0  0  0  0  0  0999 V2000
    5.7422   -1.4877    0.0000 S   0  0  0  0  0  0  0  0  0  0  0  0
    5.2422   -2.3537    0.0000 O   0  0  0  0  0  0  0  0  0  0  0  0
    6.2422   -0.6217    0.0000 O   0  0  0  0  0  0  0  0  0  0  0  0
    4.8762   -0.9877    0.0000 N   0  0  0  0  0  0  0  0  0  0  0  0
    2.5906    2.9551    0.0000 N   0  0  0  0  0  0  0  0  0  0  0  0
    9.2342   -3.5224    0.0000 N   0  0  0  0  0  0  0  0  0  0  0  0
    3.8013    0.2102    0.0000 C   0  0  0  0  0  0  0  0  0  0  0  0
    3.3977    1.1252    0.0000 C   0  0  0  0  0  0  0  0  0  0  0  0
    3.3005   -0.6485    0.0000 C   0  0  0  0  0  0  0  0  0  0  0  0
    3.9684   -1.3928    0.0000 C   0  0  0  0  0  0  0  0  0  0  0  0
    2.4036    1.2332    0.0000 C   0  0  0  0  0  0  0  0  0  0  0  0
    4.7731    0.0010    0.0000 C   0  0  0  0  0  0  0  0  0  0  0  0
    2.0000    2.1481    0.0000 C   0  0  0  0  0  0  0  0  0  0  0  0
    3.9883    1.9322    0.0000 C   0  0  0  0  0  0  0  0  0  0  0  0
    3.5847    2.8471    0.0000 C   0  0  0  0  0  0  0  0  0  0  0  0
    6.6082   -1.9877    0.0000 C   0  0  0  0  0  0  0  0  0  0  0  0
    2.3220   -0.8547    0.0000 C   0  0  0  0  0  0  0  0  0  0  0  0
    3.6577   -2.3433    0.0000 C   0  0  0  0  0  0  0  0  0  0  0  0
    2.0114   -1.8052    0.0000 C   0  0  0  0  0  0  0  0  0  0  0  0
    2.6792   -2.5495    0.0000 C   0  0  0  0  0  0  0  0  0  0  0  0
    7.4742   -1.4877    0.0000 C   0  0  0  0  0  0  0  0  0  0  0  0
    6.6082   -2.9877    0.0000 C   0  0  0  0  0  0  0  0  0  0  0  0
    8.3403   -1.9877    0.0000 C   0  0  0  0  0  0  0  0  0  0  0  0
    8.3403   -2.9877    0.0000 C   0  0  0  0  0  0  0  0  0  0  0  0
    7.4742   -3.4877    0.0000 C   0  0  0  0  0  0  0  0  0  0  0  0
    9.2342   -1.4530    0.0000 C   0  0  0  0  0  0  0  0  0  0  0  0
   10.1403   -1.9669    0.0000 C   0  0  0  0  0  0  0  0  0  0  0  0
   10.1403   -3.0085    0.0000 C   0  0  0  0  0  0  0  0  0  0  0  0
    1.8015    1.0852    0.0000 H   0  0  0  0  0  0  0  0  0  0  0  0
    2.4447    0.6145    0.0000 H   0  0  0  0  0  0  0  0  0  0  0  0
    5.2346    0.4151    0.0000 H   0  0  0  0  0  0  0  0  0  0  0  0
    1.5709    2.5956    0.0000 H   0  0  0  0  0  0  0  0  0  0  0  0
    1.4848    1.8032    0.0000 H   0  0  0  0  0  0  0  0  0  0  0  0
    4.6047    1.8652    0.0000 H   0  0  0  0  0  0  0  0  0  0  0  0
    4.1868    2.9950    0.0000 H   0  0  0  0  0  0  0  0  0  0  0  0
    3.5436    3.4658    0.0000 H   0  0  0  0  0  0  0  0  0  0  0  0
    2.3404    3.5224    0.0000 H   0  0  0  0  0  0  0  0  0  0  0  0
    1.9080   -0.3933    0.0000 H   0  0  0  0  0  0  0  0  0  0  0  0
    4.0718   -2.8048    0.0000 H   0  0  0  0  0  0  0  0  0  0  0  0
    1.4047   -1.9331    0.0000 H   0  0  0  0  0  0  0  0  0  0  0  0
    2.4866   -3.1389    0.0000 H   0  0  0  0  0  0  0  0  0  0  0  0
    7.4742   -0.8677    0.0000 H   0  0  0  0  0  0  0  0  0  0  0  0
    6.0713   -3.2977    0.0000 H   0  0  0  0  0  0  0  0  0  0  0  0
    7.4742   -4.1077    0.0000 H   0  0  0  0  0  0  0  0  0  0  0  0
    9.2270   -0.8331    0.0000 H   0  0  0  0  0  0  0  0  0  0  0  0
   10.6760   -1.6548    0.0000 H   0  0  0  0  0  0  0  0  0  0  0  0
   10.6760   -3.3206    0.0000 H   0  0  0  0  0  0  0  0  0  0  0  0
  1  2  2  0  0  0  0
  1  3  2  0  0  0  0
  1  4  1  0  0  0  0
  1 16  1  0  0  0  0
  4 10  1  0  0  0  0
  4 12  1  0  0  0  0
  5 13  1  0  0  0  0
  5 15  1  0  0  0  0
  5 37  1  0  0  0  0
  6 24  1  0  0  0  0
  6 28  2  0  0  0  0
  7  8  1  0  0  0  0
  7  9  1  0  0  0  0
  7 12  2  0  0  0  0
  8 11  1  0  0  0  0
  8 14  2  0  0  0  0
  9 10  1  0  0  0  0
  9 17  2  0  0  0  0
 10 18  2  0  0  0  0
 11 13  1  0  0  0  0
 11 29  1  0  0  0  0
 11 30  1  0  0  0  0
 12 31  1  0  0  0  0
 13 32  1  0  0  0  0
 13 33  1  0  0  0  0
 14 15  1  0  0  0  0
 14 34  1  0  0  0  0
 15 35  1  0  0  0  0
 15 36  1  0  0  0  0
 16 21  2  0  0  0  0
 16 22  1  0  0  0  0
 17 19  1  0  0  0  0
 17 38  1  0  0  0  0
 18 20  1  0  0  0  0
 18 39  1  0  0  0  0
 19 20  2  0  0  0  0
 19 40  1  0  0  0  0
 20 41  1  0  0  0  0
 21 23  1  0  0  0  0
 21 42  1  0  0  0  0
 22 25  2  0  0  0  0
 22 43  1  0  0  0  0
 23 24  2  0  0  0  0
 23 26  1  0  0  0  0
 24 25  1  0  0  0  0
 25 44  1  0  0  0  0
 26 27  2  0  0  0  0
 26 45  1  0  0  0  0
 27 28  1  0  0  0  0
 27 46  1  0  0  0  0
 28 47  1  0  0  0  0
M  END
> <PUBCHEM_COMPOUND_CID>
155515942

> <PUBCHEM_COMPOUND_CANONICALIZED>
1

> <PUBCHEM_CACTVS_COMPLEXITY>
701

> <PUBCHEM_CACTVS_HBOND_ACCEPTOR>
4

> <PUBCHEM_CACTVS_HBOND_DONOR>
1

> <PUBCHEM_CACTVS_ROTATABLE_BOND>
3

> <PUBCHEM_CACTVS_SUBSKEYS>
AAADceB7MABAAAAAAAAAAAAAAAAAAWAAAAA8YIEAAAAAAFix/gAAHAQQQAAADAjBXgQ8wfLIEAKgAzRnRHDCgDAxAiAI2Lg4ZJgIIOLAkZGEIAhgkADIyAcQgMAOgAQAgAACAAAACAEAAAQAAAAAAAAAAA==

> <PUBCHEM_IUPAC_OPENEYE_NAME>
6-[3-(1,2,3,6-tetrahydropyridin-4-yl)indol-1-yl]sulfonylquinoline

> <PUBCHEM_IUPAC_CAS_NAME>
6-[[3-(1,2,3,6-tetrahydropyridin-4-yl)-1-indolyl]sulfonyl]quinoline

> <PUBCHEM_IUPAC_NAME_MARKUP>
6-[3-(1,2,3,6-tetrahydropyridin-4-yl)indol-1-yl]sulfonylquinoline

> <PUBCHEM_IUPAC_NAME>
6-[3-(1,2,3,6-tetrahydropyridin-4-yl)indol-1-yl]sulfonylquinoline

> <PUBCHEM_IUPAC_SYSTEMATIC_NAME>
6-[3-(1,2,3,6-tetrahydropyridin-4-yl)indol-1-yl]sulfonylquinoline

> <PUBCHEM_IUPAC_TRADITIONAL_NAME>
6-[3-(1,2,3,6-tetrahydropyridin-4-yl)indol-1-yl]sulfonylquinoline

> <PUBCHEM_IUPAC_INCHI>
InChI=1S/C22H19N3O2S/c26-28(27,18-7-8-21-17(14-18)4-3-11-24-21)25-15-20(16-9-12-23-13-10-16)19-5-1-2-6-22(19)25/h1-9,11,14-15,23H,10,12-13H2

> <PUBCHEM_IUPAC_INCHIKEY>
FMHRYVOSEYAEHQ-UHFFFAOYSA-N

> <PUBCHEM_XLOGP3_AA>
3.2

> <PUBCHEM_EXACT_MASS>
389.11979803

> <PUBCHEM_MOLECULAR_FORMULA>
C22H19N3O2S

> <PUBCHEM_MOLECULAR_WEIGHT>
389.5

> <PUBCHEM_OPENEYE_CAN_SMILES>
C1CNCC=C1C2=CN(C3=CC=CC=C32)S(=O)(=O)C4=CC5=C(C=C4)N=CC=C5

> <PUBCHEM_OPENEYE_ISO_SMILES>
C1CNCC=C1C2=CN(C3=CC=CC=C32)S(=O)(=O)C4=CC5=C(C=C4)N=CC=C5

> <PUBCHEM_CACTVS_TPSA>
72.4

> <PUBCHEM_MONOISOTOPIC_WEIGHT>
389.11979803

> <PUBCHEM_TOTAL_CHARGE>
0

> <PUBCHEM_HEAVY_ATOM_COUNT>
28

> <PUBCHEM_ATOM_DEF_STEREO_COUNT>
0

> <PUBCHEM_ATOM_UDEF_STEREO_COUNT>
0

> <PUBCHEM_BOND_DEF_STEREO_COUNT>
0

> <PUBCHEM_BOND_UDEF_STEREO_COUNT>
0

> <PUBCHEM_ISOTOPIC_ATOM_COUNT>
0

> <PUBCHEM_COMPONENT_COUNT>
1

> <PUBCHEM_CACTVS_TAUTO_COUNT>
-1

> <PUBCHEM_COORDINATE_TYPE>
1
5
255

> <PUBCHEM_BONDANNOTATIONS>
10  18  8
16  21  8
16  22  8
17  19  8
18  20  8
19  20  8
21  23  8
22  25  8
23  24  8
23  26  8
24  25  8
26  27  8
27  28  8
4  10  8
4  12  8
6  24  8
6  28  8
7  12  8
7  9  8
9  10  8
9  17  8

$$$$
