25216680
  -OEChem-09292322482D

 61 64  0     1  0  0  0  0  0999 V2000
   10.7224   -2.4352    0.0000 O   0  0  0  0  0  0  0  0  0  0  0  0
    4.6038    3.0989    0.0000 O   0  0  0  0  0  0  0  0  0  0  0  0
   14.1865   -1.4352    0.0000 N   0  0  3  0  0  0  0  0  0  0  0  0
   11.5884   -0.9352    0.0000 N   0  0  0  0  0  0  0  0  0  0  0  0
    3.7320    1.6022    0.0000 N   0  0  0  0  0  0  0  0  0  0  0  0
   14.2910   -2.4298    0.0000 C   0  0  1  0  0  0  0  0  0  0  0  0
   15.2692   -2.6377    0.0000 C   0  0  0  0  0  0  0  0  0  0  0  0
   15.1000   -1.0285    0.0000 C   0  0  0  0  0  0  0  0  0  0  0  0
   15.7692   -1.7716    0.0000 C   0  0  0  0  0  0  0  0  0  0  0  0
   13.3205   -0.9352    0.0000 C   0  0  0  0  0  0  0  0  0  0  0  0
   12.4544   -1.4352    0.0000 C   0  0  0  0  0  0  0  0  0  0  0  0
   13.5479   -3.0989    0.0000 C   0  0  0  0  0  0  0  0  0  0  0  0
   11.5884    0.0648    0.0000 C   0  0  0  0  0  0  0  0  0  0  0  0
   10.7224    0.5648    0.0000 C   0  0  0  0  0  0  0  0  0  0  0  0
   10.7224   -1.4352    0.0000 C   0  0  0  0  0  0  0  0  0  0  0  0
    9.8564    0.0648    0.0000 C   0  0  0  0  0  0  0  0  0  0  0  0
    9.8564   -0.9352    0.0000 C   0  0  0  0  0  0  0  0  0  0  0  0
    8.9624    0.5994    0.0000 C   0  0  0  0  0  0  0  0  0  0  0  0
    8.9624   -1.4699    0.0000 C   0  0  0  0  0  0  0  0  0  0  0  0
    8.0564    0.0856    0.0000 C   0  0  0  0  0  0  0  0  0  0  0  0
    8.0564   -0.9561    0.0000 C   0  0  0  0  0  0  0  0  0  0  0  0
    7.1923    0.5889    0.0000 C   0  0  0  0  0  0  0  0  0  0  0  0
    6.3243    0.0922    0.0000 C   0  0  0  0  0  0  0  0  0  0  0  0
    7.1961    1.5889    0.0000 C   0  0  0  0  0  0  0  0  0  0  0  0
    5.4602    0.5956    0.0000 C   0  0  0  0  0  0  0  0  0  0  0  0
    6.3320    2.0922    0.0000 C   0  0  0  0  0  0  0  0  0  0  0  0
    5.4641    1.5956    0.0000 C   0  0  0  0  0  0  0  0  0  0  0  0
    4.6000    2.0989    0.0000 C   0  0  0  0  0  0  0  0  0  0  0  0
    2.8680    2.1056    0.0000 C   0  0  0  0  0  0  0  0  0  0  0  0
    2.0000    1.6089    0.0000 C   0  0  0  0  0  0  0  0  0  0  0  0
   13.7122   -2.2076    0.0000 H   0  0  0  0  0  0  0  0  0  0  0  0
   15.0776   -3.2273    0.0000 H   0  0  0  0  0  0  0  0  0  0  0  0
   15.8356   -2.8899    0.0000 H   0  0  0  0  0  0  0  0  0  0  0  0
   15.6016   -0.6641    0.0000 H   0  0  0  0  0  0  0  0  0  0  0  0
   14.7900   -0.4916    0.0000 H   0  0  0  0  0  0  0  0  0  0  0  0
   16.2708   -2.1361    0.0000 H   0  0  0  0  0  0  0  0  0  0  0  0
   16.1840   -1.3109    0.0000 H   0  0  0  0  0  0  0  0  0  0  0  0
   13.7190   -0.4603    0.0000 H   0  0  0  0  0  0  0  0  0  0  0  0
   12.9219   -0.4603    0.0000 H   0  0  0  0  0  0  0  0  0  0  0  0
   12.0559   -1.9102    0.0000 H   0  0  0  0  0  0  0  0  0  0  0  0
   12.8530   -1.9102    0.0000 H   0  0  0  0  0  0  0  0  0  0  0  0
   13.1330   -2.6382    0.0000 H   0  0  0  0  0  0  0  0  0  0  0  0
   13.0871   -3.5138    0.0000 H   0  0  0  0  0  0  0  0  0  0  0  0
   13.9627   -3.5596    0.0000 H   0  0  0  0  0  0  0  0  0  0  0  0
   12.1990   -0.0429    0.0000 H   0  0  0  0  0  0  0  0  0  0  0  0
   11.8005    0.6474    0.0000 H   0  0  0  0  0  0  0  0  0  0  0  0
   11.1209    1.0397    0.0000 H   0  0  0  0  0  0  0  0  0  0  0  0
   10.3239    1.0397    0.0000 H   0  0  0  0  0  0  0  0  0  0  0  0
    8.9696    1.2194    0.0000 H   0  0  0  0  0  0  0  0  0  0  0  0
    8.9696   -2.0899    0.0000 H   0  0  0  0  0  0  0  0  0  0  0  0
    7.5206   -1.2681    0.0000 H   0  0  0  0  0  0  0  0  0  0  0  0
    6.3219   -0.5278    0.0000 H   0  0  0  0  0  0  0  0  0  0  0  0
    7.7342    1.8968    0.0000 H   0  0  0  0  0  0  0  0  0  0  0  0
    4.9221    0.2877    0.0000 H   0  0  0  0  0  0  0  0  0  0  0  0
    6.3344    2.7122    0.0000 H   0  0  0  0  0  0  0  0  0  0  0  0
    3.7296    0.9823    0.0000 H   0  0  0  0  0  0  0  0  0  0  0  0
    3.2683    2.5790    0.0000 H   0  0  0  0  0  0  0  0  0  0  0  0
    2.4712    2.5821    0.0000 H   0  0  0  0  0  0  0  0  0  0  0  0
    1.6921    2.1470    0.0000 H   0  0  0  0  0  0  0  0  0  0  0  0
    1.4619    1.3010    0.0000 H   0  0  0  0  0  0  0  0  0  0  0  0
    2.3079    1.0708    0.0000 H   0  0  0  0  0  0  0  0  0  0  0  0
  1 15  2  0  0  0  0
  2 28  2  0  0  0  0
  3  6  1  0  0  0  0
  3  8  1  0  0  0  0
  3 10  1  0  0  0  0
  4 11  1  0  0  0  0
  4 13  1  0  0  0  0
  4 15  1  0  0  0  0
  5 28  1  0  0  0  0
  5 29  1  0  0  0  0
  5 56  1  0  0  0  0
  6  7  1  0  0  0  0
  6 12  1  1  0  0  0
  6 31  1  0  0  0  0
  7  9  1  0  0  0  0
  7 32  1  0  0  0  0
  7 33  1  0  0  0  0
  8  9  1  0  0  0  0
  8 34  1  0  0  0  0
  8 35  1  0  0  0  0
  9 36  1  0  0  0  0
  9 37  1  0  0  0  0
 10 11  1  0  0  0  0
 10 38  1  0  0  0  0
 10 39  1  0  0  0  0
 11 40  1  0  0  0  0
 11 41  1  0  0  0  0
 12 42  1  0  0  0  0
 12 43  1  0  0  0  0
 12 44  1  0  0  0  0
 13 14  1  0  0  0  0
 13 45  1  0  0  0  0
 13 46  1  0  0  0  0
 14 16  1  0  0  0  0
 14 47  1  0  0  0  0
 14 48  1  0  0  0  0
 15 17  1  0  0  0  0
 16 17  2  0  0  0  0
 16 18  1  0  0  0  0
 17 19  1  0  0  0  0
 18 20  2  0  0  0  0
 18 49  1  0  0  0  0
 19 21  2  0  0  0  0
 19 50  1  0  0  0  0
 20 21  1  0  0  0  0
 20 22  1  0  0  0  0
 21 51  1  0  0  0  0
 22 23  2  0  0  0  0
 22 24  1  0  0  0  0
 23 25  1  0  0  0  0
 23 52  1  0  0  0  0
 24 26  2  0  0  0  0
 24 53  1  0  0  0  0
 25 27  2  0  0  0  0
 25 54  1  0  0  0  0
 26 27  1  0  0  0  0
 26 55  1  0  0  0  0
 27 28  1  0  0  0  0
 29 30  1  0  0  0  0
 29 57  1  0  0  0  0
 29 58  1  0  0  0  0
 30 59  1  0  0  0  0
 30 60  1  0  0  0  0
 30 61  1  0  0  0  0
M  END
> <PUBCHEM_COMPOUND_CID>
25216680

> <PUBCHEM_COMPOUND_CANONICALIZED>
1

> <PUBCHEM_CACTVS_COMPLEXITY>
601

> <PUBCHEM_CACTVS_HBOND_ACCEPTOR>
3

> <PUBCHEM_CACTVS_HBOND_DONOR>
1

> <PUBCHEM_CACTVS_ROTATABLE_BOND>
6

> <PUBCHEM_CACTVS_SUBSKEYS>
AAADceB7MAAAAAAAAAAAAAAAAAAAAWAAAAA8YIAAAAAAAACxQAAAHgAQAAAADCjBmAQyAIPAAACIAiFSEACCAAAkAAAIiIEIBMgIYDKAlRGUIQhglgCIiYcYicCOwAACAAAQAACAAAQAACAAAAAAAAAAAA==

> <PUBCHEM_IUPAC_OPENEYE_NAME>
N-ethyl-4-[2-[2-[(2R)-2-methylpyrrolidin-1-yl]ethyl]-1-oxo-3,4-dihydroisoquinolin-6-yl]benzamide

> <PUBCHEM_IUPAC_CAS_NAME>
N-ethyl-4-[2-[2-[(2R)-2-methyl-1-pyrrolidinyl]ethyl]-1-oxo-3,4-dihydroisoquinolin-6-yl]benzamide

> <PUBCHEM_IUPAC_NAME_MARKUP>
<I>N</I>-ethyl-4-[2-[2-[(2<I>R</I>)-2-methylpyrrolidin-1-yl]ethyl]-1-oxo-3,4-dihydroisoquinolin-6-yl]benzamide

> <PUBCHEM_IUPAC_NAME>
N-ethyl-4-[2-[2-[(2R)-2-methylpyrrolidin-1-yl]ethyl]-1-oxo-3,4-dihydroisoquinolin-6-yl]benzamide

> <PUBCHEM_IUPAC_SYSTEMATIC_NAME>
N-ethyl-4-[2-[2-[(2R)-2-methylpyrrolidin-1-yl]ethyl]-1-oxidanylidene-3,4-dihydroisoquinolin-6-yl]benzamide

> <PUBCHEM_IUPAC_TRADITIONAL_NAME>
N-ethyl-4-[1-keto-2-[2-[(2R)-2-methylpyrrolidino]ethyl]-3,4-dihydroisoquinolin-6-yl]benzamide

> <PUBCHEM_IUPAC_INCHI>
InChI=1S/C25H31N3O2/c1-3-26-24(29)20-8-6-19(7-9-20)21-10-11-23-22(17-21)12-14-28(25(23)30)16-15-27-13-4-5-18(27)2/h6-11,17-18H,3-5,12-16H2,1-2H3,(H,26,29)/t18-/m1/s1

> <PUBCHEM_IUPAC_INCHIKEY>
LBAKRWRQQGNMEB-GOSISDBHSA-N

> <PUBCHEM_XLOGP3_AA>
3.6

> <PUBCHEM_EXACT_MASS>
405.24162724

> <PUBCHEM_MOLECULAR_FORMULA>
C25H31N3O2

> <PUBCHEM_MOLECULAR_WEIGHT>
405.5

> <PUBCHEM_OPENEYE_CAN_SMILES>
CCNC(=O)C1=CC=C(C=C1)C2=CC3=C(C=C2)C(=O)N(CC3)CCN4CCCC4C

> <PUBCHEM_OPENEYE_ISO_SMILES>
CCNC(=O)C1=CC=C(C=C1)C2=CC3=C(C=C2)C(=O)N(CC3)CCN4CCC[C@H]4C

> <PUBCHEM_CACTVS_TPSA>
52.6

> <PUBCHEM_MONOISOTOPIC_WEIGHT>
405.24162724

> <PUBCHEM_TOTAL_CHARGE>
0

> <PUBCHEM_HEAVY_ATOM_COUNT>
30

> <PUBCHEM_ATOM_DEF_STEREO_COUNT>
1

> <PUBCHEM_ATOM_UDEF_STEREO_COUNT>
0

> <PUBCHEM_BOND_DEF_STEREO_COUNT>
0

> <PUBCHEM_BOND_UDEF_STEREO_COUNT>
0

> <PUBCHEM_ISOTOPIC_ATOM_COUNT>
0

> <PUBCHEM_COMPONENT_COUNT>
1

> <PUBCHEM_CACTVS_TAUTO_COUNT>
-1

> <PUBCHEM_COORDINATE_TYPE>
1
5
255

> <PUBCHEM_BONDANNOTATIONS>
16  17  8
16  18  8
17  19  8
18  20  8
19  21  8
20  21  8
22  23  8
22  24  8
23  25  8
24  26  8
25  27  8
26  27  8
6  12  5

$$$$
