15665508
  -OEChem-09292322142D

 61 66  0     1  0  0  0  0  0999 V2000
    9.3412    4.0108    0.0000 O   0  0  0  0  0  0  0  0  0  0  0  0
    6.4998   -0.6881    0.0000 O   0  0  0  0  0  0  0  0  0  0  0  0
    8.2919   -1.7227    0.0000 O   0  0  0  0  0  0  0  0  0  0  0  0
    2.6200   -3.5956    0.0000 O   0  0  0  0  0  0  0  0  0  0  0  0
   10.9014    1.9465    0.0000 N   0  0  3  0  0  0  0  0  0  0  0  0
    8.2581    1.3430    0.0000 N   0  0  0  0  0  0  0  0  0  0  0  0
   11.0643    3.5563    0.0000 N   0  0  0  0  0  0  0  0  0  0  0  0
    4.7036   -3.5343    0.0000 N   0  0  0  0  0  0  0  0  0  0  0  0
    2.6200   -1.8636    0.0000 N   0  0  0  0  0  0  0  0  0  0  0  0
    9.9862    2.3497    0.0000 C   0  0  0  0  0  0  0  0  0  0  0  0
    9.9901    1.3497    0.0000 C   0  0  0  0  0  0  0  0  0  0  0  0
    9.1183    2.8463    0.0000 C   0  0  0  0  0  0  0  0  0  0  0  0
    9.1260    0.8463    0.0000 C   0  0  0  0  0  0  0  0  0  0  0  0
    8.2542    2.3430    0.0000 C   0  0  0  0  0  0  0  0  0  0  0  0
   10.0869    3.3446    0.0000 C   0  0  0  0  0  0  0  0  0  0  0  0
   11.5676    2.6922    0.0000 C   0  0  0  0  0  0  0  0  0  0  0  0
    7.3940    0.8397    0.0000 C   0  0  0  0  0  0  0  0  0  0  0  0
   11.1130    0.9691    0.0000 C   0  0  0  0  0  0  0  0  0  0  0  0
    7.3978   -0.1603    0.0000 C   0  0  3  0  0  0  0  0  0  0  0  0
    8.2999   -0.6811    0.0000 C   0  0  0  0  0  0  0  0  0  0  0  0
   12.0653    0.6638    0.0000 C   0  0  0  0  0  0  0  0  0  0  0  0
   10.3725    0.2971    0.0000 C   0  0  0  0  0  0  0  0  0  0  0  0
    6.5158   -1.7296    0.0000 C   0  0  0  0  0  0  0  0  0  0  0  0
    7.3819   -2.2296    0.0000 C   0  0  0  0  0  0  0  0  0  0  0  0
   12.2770   -0.3136    0.0000 C   0  0  0  0  0  0  0  0  0  0  0  0
   10.5842   -0.6802    0.0000 C   0  0  0  0  0  0  0  0  0  0  0  0
    5.6498   -2.2296    0.0000 C   0  0  0  0  0  0  0  0  0  0  0  0
   11.5364   -0.9856    0.0000 C   0  0  0  0  0  0  0  0  0  0  0  0
    5.6498   -3.2296    0.0000 C   0  0  0  0  0  0  0  0  0  0  0  0
    7.3819   -3.2296    0.0000 C   0  0  0  0  0  0  0  0  0  0  0  0
    6.5158   -3.7296    0.0000 C   0  0  0  0  0  0  0  0  0  0  0  0
    4.7036   -1.9248    0.0000 C   0  0  0  0  0  0  0  0  0  0  0  0
    4.1200   -2.7296    0.0000 C   0  0  0  0  0  0  0  0  0  0  0  0
    3.1200   -2.7296    0.0000 C   0  0  0  0  0  0  0  0  0  0  0  0
   10.2044    0.7679    0.0000 H   0  0  0  0  0  0  0  0  0  0  0  0
   10.6003    1.4597    0.0000 H   0  0  0  0  0  0  0  0  0  0  0  0
    9.5150    3.3228    0.0000 H   0  0  0  0  0  0  0  0  0  0  0  0
    8.7180    3.3197    0.0000 H   0  0  0  0  0  0  0  0  0  0  0  0
    8.7293    0.3699    0.0000 H   0  0  0  0  0  0  0  0  0  0  0  0
    9.5264    0.3729    0.0000 H   0  0  0  0  0  0  0  0  0  0  0  0
    8.0399    2.9248    0.0000 H   0  0  0  0  0  0  0  0  0  0  0  0
    7.6440    2.2330    0.0000 H   0  0  0  0  0  0  0  0  0  0  0  0
   11.9843    2.2330    0.0000 H   0  0  0  0  0  0  0  0  0  0  0  0
   12.0678    3.0585    0.0000 H   0  0  0  0  0  0  0  0  0  0  0  0
    7.1797    1.4215    0.0000 H   0  0  0  0  0  0  0  0  0  0  0  0
    6.7838    0.7297    0.0000 H   0  0  0  0  0  0  0  0  0  0  0  0
   11.3143    4.1236    0.0000 H   0  0  0  0  0  0  0  0  0  0  0  0
    6.8591    0.1466    0.0000 H   0  0  0  0  0  0  0  0  0  0  0  0
    8.9099   -0.7919    0.0000 H   0  0  0  0  0  0  0  0  0  0  0  0
    8.5135   -0.0991    0.0000 H   0  0  0  0  0  0  0  0  0  0  0  0
   12.5244    1.0804    0.0000 H   0  0  0  0  0  0  0  0  0  0  0  0
    9.7821    0.4864    0.0000 H   0  0  0  0  0  0  0  0  0  0  0  0
   12.8673   -0.5029    0.0000 H   0  0  0  0  0  0  0  0  0  0  0  0
   10.1250   -1.0968    0.0000 H   0  0  0  0  0  0  0  0  0  0  0  0
   11.6676   -1.5915    0.0000 H   0  0  0  0  0  0  0  0  0  0  0  0
    7.9188   -3.5396    0.0000 H   0  0  0  0  0  0  0  0  0  0  0  0
    6.5158   -4.3496    0.0000 H   0  0  0  0  0  0  0  0  0  0  0  0
    4.5110   -1.3355    0.0000 H   0  0  0  0  0  0  0  0  0  0  0  0
    4.5110   -4.1236    0.0000 H   0  0  0  0  0  0  0  0  0  0  0  0
    2.0000   -1.8636    0.0000 H   0  0  0  0  0  0  0  0  0  0  0  0
    2.9300   -1.3266    0.0000 H   0  0  0  0  0  0  0  0  0  0  0  0
  1 15  2  0  0  0  0
  2 19  1  0  0  0  0
  2 23  1  0  0  0  0
  3 20  1  0  0  0  0
  3 24  1  0  0  0  0
  4 34  2  0  0  0  0
  5 10  1  0  0  0  0
  5 16  1  0  0  0  0
  5 18  1  0  0  0  0
  6 13  1  0  0  0  0
  6 14  1  0  0  0  0
  6 17  1  0  0  0  0
  7 15  1  0  0  0  0
  7 16  1  0  0  0  0
  7 47  1  0  0  0  0
  8 29  1  0  0  0  0
  8 33  1  0  0  0  0
  8 59  1  0  0  0  0
  9 34  1  0  0  0  0
  9 60  1  0  0  0  0
  9 61  1  0  0  0  0
 10 11  1  0  0  0  0
 10 12  1  0  0  0  0
 10 15  1  0  0  0  0
 11 13  1  0  0  0  0
 11 35  1  0  0  0  0
 11 36  1  0  0  0  0
 12 14  1  0  0  0  0
 12 37  1  0  0  0  0
 12 38  1  0  0  0  0
 13 39  1  0  0  0  0
 13 40  1  0  0  0  0
 14 41  1  0  0  0  0
 14 42  1  0  0  0  0
 16 43  1  0  0  0  0
 16 44  1  0  0  0  0
 17 19  1  0  0  0  0
 17 45  1  0  0  0  0
 17 46  1  0  0  0  0
 18 21  2  0  0  0  0
 18 22  1  0  0  0  0
 19 20  1  0  0  0  0
 19 48  1  0  0  0  0
 20 49  1  0  0  0  0
 20 50  1  0  0  0  0
 21 25  1  0  0  0  0
 21 51  1  0  0  0  0
 22 26  2  0  0  0  0
 22 52  1  0  0  0  0
 23 24  2  0  0  0  0
 23 27  1  0  0  0  0
 24 30  1  0  0  0  0
 25 28  2  0  0  0  0
 25 53  1  0  0  0  0
 26 28  1  0  0  0  0
 26 54  1  0  0  0  0
 27 29  2  0  0  0  0
 27 32  1  0  0  0  0
 28 55  1  0  0  0  0
 29 31  1  0  0  0  0
 30 31  2  0  0  0  0
 30 56  1  0  0  0  0
 31 57  1  0  0  0  0
 32 33  2  0  0  0  0
 32 58  1  0  0  0  0
 33 34  1  0  0  0  0
M  END
> <PUBCHEM_COMPOUND_CID>
15665508

> <PUBCHEM_COMPOUND_CANONICALIZED>
1

> <PUBCHEM_CACTVS_COMPLEXITY>
781

> <PUBCHEM_CACTVS_HBOND_ACCEPTOR>
6

> <PUBCHEM_CACTVS_HBOND_DONOR>
3

> <PUBCHEM_CACTVS_ROTATABLE_BOND>
4

> <PUBCHEM_CACTVS_SUBSKEYS>
AAADceB7uAAAAAAAAAAAAAAAAAAAAWLAAAA8aIEAAAAAAFiR9AAAHgAQAAAADJzhngYxxvPJlACoAyVyVACCiCAnIiAImaG+7NiPZvLE9buXOSru0xva6ae83bPeAEABAgAKQAAAgAIEABSAAAAAAAAAAA==

> <PUBCHEM_IUPAC_OPENEYE_NAME>
2-[(4-oxo-1-phenyl-1,3,8-triazaspiro[4.5]decan-8-yl)methyl]-3,7-dihydro-2H-[1,4]dioxino[2,3-e]indole-8-carboxamide

> <PUBCHEM_IUPAC_CAS_NAME>
2-[(4-oxo-1-phenyl-1,3,8-triazaspiro[4.5]decan-8-yl)methyl]-3,7-dihydro-2H-[1,4]dioxino[2,3-e]indole-8-carboxamide

> <PUBCHEM_IUPAC_NAME_MARKUP>
2-[(4-oxo-1-phenyl-1,3,8-triazaspiro[4.5]decan-8-yl)methyl]-3,7-dihydro-2<I>H</I>-[1,4]dioxino[2,3-e]indole-8-carboxamide

> <PUBCHEM_IUPAC_NAME>
2-[(4-oxo-1-phenyl-1,3,8-triazaspiro[4.5]decan-8-yl)methyl]-3,7-dihydro-2H-[1,4]dioxino[2,3-e]indole-8-carboxamide

> <PUBCHEM_IUPAC_SYSTEMATIC_NAME>
2-[(4-oxidanylidene-1-phenyl-1,3,8-triazaspiro[4.5]decan-8-yl)methyl]-3,7-dihydro-2H-[1,4]dioxino[2,3-e]indole-8-carboxamide

> <PUBCHEM_IUPAC_TRADITIONAL_NAME>
2-[(4-keto-1-phenyl-1,3,8-triazaspiro[4.5]decan-8-yl)methyl]-3,7-dihydro-2H-[1,4]dioxin[2,3-e]indole-8-carboxamide

> <PUBCHEM_IUPAC_INCHI>
InChI=1S/C25H27N5O4/c26-23(31)20-12-18-19(28-20)6-7-21-22(18)34-17(14-33-21)13-29-10-8-25(9-11-29)24(32)27-15-30(25)16-4-2-1-3-5-16/h1-7,12,17,28H,8-11,13-15H2,(H2,26,31)(H,27,32)

> <PUBCHEM_IUPAC_INCHIKEY>
VPDXGIUSVBWBOE-UHFFFAOYSA-N

> <PUBCHEM_XLOGP3_AA>
2.5

> <PUBCHEM_EXACT_MASS>
461.20630436

> <PUBCHEM_MOLECULAR_FORMULA>
C25H27N5O4

> <PUBCHEM_MOLECULAR_WEIGHT>
461.5

> <PUBCHEM_OPENEYE_CAN_SMILES>
C1CN(CCC12C(=O)NCN2C3=CC=CC=C3)CC4COC5=C(O4)C6=C(C=C5)NC(=C6)C(=O)N

> <PUBCHEM_OPENEYE_ISO_SMILES>
C1CN(CCC12C(=O)NCN2C3=CC=CC=C3)CC4COC5=C(O4)C6=C(C=C5)NC(=C6)C(=O)N

> <PUBCHEM_CACTVS_TPSA>
113

> <PUBCHEM_MONOISOTOPIC_WEIGHT>
461.20630436

> <PUBCHEM_TOTAL_CHARGE>
0

> <PUBCHEM_HEAVY_ATOM_COUNT>
34

> <PUBCHEM_ATOM_DEF_STEREO_COUNT>
0

> <PUBCHEM_ATOM_UDEF_STEREO_COUNT>
1

> <PUBCHEM_BOND_DEF_STEREO_COUNT>
0

> <PUBCHEM_BOND_UDEF_STEREO_COUNT>
0

> <PUBCHEM_ISOTOPIC_ATOM_COUNT>
0

> <PUBCHEM_COMPONENT_COUNT>
1

> <PUBCHEM_CACTVS_TAUTO_COUNT>
-1

> <PUBCHEM_COORDINATE_TYPE>
1
5
255

> <PUBCHEM_BONDANNOTATIONS>
19  17  3
18  21  8
18  22  8
21  25  8
22  26  8
23  24  8
23  27  8
24  30  8
25  28  8
26  28  8
27  29  8
27  32  8
29  31  8
30  31  8
32  33  8
8  29  8
8  33  8

$$$$
