10158455
  -OEChem-09292322192D

 57 61  0     1  0  0  0  0  0999 V2000
    4.5601    5.3651    0.0000 Cl  0  0  0  0  0  0  0  0  0  0  0  0
    2.4440   -2.1030    0.0000 O   0  0  0  0  0  0  0  0  0  0  0  0
    3.6085   -0.6427    0.0000 N   0  0  0  0  0  0  0  0  0  0  0  0
    3.6414   -3.3005    0.0000 N   0  0  0  0  0  0  0  0  0  0  0  0
    2.7407    1.1592    0.0000 N   0  0  0  0  0  0  0  0  0  0  0  0
    4.0424   -1.5437    0.0000 C   0  0  3  0  0  0  0  0  0  0  0  0
    2.9944   -4.0484    0.0000 C   0  0  3  0  0  0  0  0  0  0  0  0
    5.0424   -1.5437    0.0000 C   0  0  0  0  0  0  0  0  0  0  0  0
    4.5424   -3.7344    0.0000 C   0  0  0  0  0  0  0  0  0  0  0  0
    3.4189   -2.3255    0.0000 C   0  0  0  0  0  0  0  0  0  0  0  0
    3.4701   -4.9155    0.0000 C   0  0  0  0  0  0  0  0  0  0  0  0
    5.6659   -2.3255    0.0000 C   0  0  0  0  0  0  0  0  0  0  0  0
    2.6113   -0.5680    0.0000 C   0  0  0  0  0  0  0  0  0  0  0  0
    4.1718    0.1835    0.0000 C   0  0  0  0  0  0  0  0  0  0  0  0
    4.4485   -4.7717    0.0000 C   0  0  0  0  0  0  0  0  0  0  0  0
    5.4434   -3.3005    0.0000 C   0  0  0  0  0  0  0  0  0  0  0  0
    2.1774    0.3330    0.0000 C   0  0  0  0  0  0  0  0  0  0  0  0
    3.7379    1.0845    0.0000 C   0  0  0  0  0  0  0  0  0  0  0  0
    2.0000   -3.9429    0.0000 C   0  0  0  0  0  0  0  0  0  0  0  0
    5.3046   -5.3651    0.0000 C   0  0  0  0  0  0  0  0  0  0  0  0
    6.3129   -3.8739    0.0000 C   0  0  0  0  0  0  0  0  0  0  0  0
    2.3068    2.0602    0.0000 C   0  0  0  0  0  0  0  0  0  0  0  0
    6.2431   -4.9132    0.0000 C   0  0  0  0  0  0  0  0  0  0  0  0
    2.8702    2.8864    0.0000 C   0  0  0  0  0  0  0  0  0  0  0  0
    2.4363    3.7874    0.0000 C   0  0  0  0  0  0  0  0  0  0  0  0
    3.8674    2.8117    0.0000 C   0  0  0  0  0  0  0  0  0  0  0  0
    2.9996    4.6136    0.0000 C   0  0  0  0  0  0  0  0  0  0  0  0
    4.4307    3.6379    0.0000 C   0  0  0  0  0  0  0  0  0  0  0  0
    3.9968    4.5389    0.0000 C   0  0  0  0  0  0  0  0  0  0  0  0
    4.3722   -1.0187    0.0000 H   0  0  0  0  0  0  0  0  0  0  0  0
    2.7668   -3.4717    0.0000 H   0  0  0  0  0  0  0  0  0  0  0  0
    5.6010   -1.2747    0.0000 H   0  0  0  0  0  0  0  0  0  0  0  0
    4.9044   -0.9392    0.0000 H   0  0  0  0  0  0  0  0  0  0  0  0
    2.8950   -5.1473    0.0000 H   0  0  0  0  0  0  0  0  0  0  0  0
    3.6322   -5.5139    0.0000 H   0  0  0  0  0  0  0  0  0  0  0  0
    6.2245   -2.5945    0.0000 H   0  0  0  0  0  0  0  0  0  0  0  0
    6.0524   -1.8408    0.0000 H   0  0  0  0  0  0  0  0  0  0  0  0
    2.0145   -0.7359    0.0000 H   0  0  0  0  0  0  0  0  0  0  0  0
    2.6730   -1.1849    0.0000 H   0  0  0  0  0  0  0  0  0  0  0  0
    4.6157   -0.2494    0.0000 H   0  0  0  0  0  0  0  0  0  0  0  0
    4.6752    0.5454    0.0000 H   0  0  0  0  0  0  0  0  0  0  0  0
    1.7336    0.7659    0.0000 H   0  0  0  0  0  0  0  0  0  0  0  0
    1.6740   -0.0290    0.0000 H   0  0  0  0  0  0  0  0  0  0  0  0
    4.3348    1.2524    0.0000 H   0  0  0  0  0  0  0  0  0  0  0  0
    3.6762    1.7014    0.0000 H   0  0  0  0  0  0  0  0  0  0  0  0
    2.0654   -3.3264    0.0000 H   0  0  0  0  0  0  0  0  0  0  0  0
    1.3835   -3.8775    0.0000 H   0  0  0  0  0  0  0  0  0  0  0  0
    1.9346   -4.5595    0.0000 H   0  0  0  0  0  0  0  0  0  0  0  0
    5.2559   -5.9832    0.0000 H   0  0  0  0  0  0  0  0  0  0  0  0
    6.8684   -3.5984    0.0000 H   0  0  0  0  0  0  0  0  0  0  0  0
    1.8630    2.4931    0.0000 H   0  0  0  0  0  0  0  0  0  0  0  0
    1.8034    1.6982    0.0000 H   0  0  0  0  0  0  0  0  0  0  0  0
    6.7567   -5.2605    0.0000 H   0  0  0  0  0  0  0  0  0  0  0  0
    1.8180    3.8337    0.0000 H   0  0  0  0  0  0  0  0  0  0  0  0
    4.1364    2.2531    0.0000 H   0  0  0  0  0  0  0  0  0  0  0  0
    2.7306    5.1722    0.0000 H   0  0  0  0  0  0  0  0  0  0  0  0
    5.0490    3.5916    0.0000 H   0  0  0  0  0  0  0  0  0  0  0  0
  1 29  1  0  0  0  0
  2 10  2  0  0  0  0
  3  6  1  0  0  0  0
  3 13  1  0  0  0  0
  3 14  1  0  0  0  0
  4  7  1  0  0  0  0
  4  9  1  0  0  0  0
  4 10  1  0  0  0  0
  5 17  1  0  0  0  0
  5 18  1  0  0  0  0
  5 22  1  0  0  0  0
  6  8  1  0  0  0  0
  6 10  1  0  0  0  0
  6 30  1  0  0  0  0
  7 11  1  0  0  0  0
  7 19  1  0  0  0  0
  7 31  1  0  0  0  0
  8 12  1  0  0  0  0
  8 32  1  0  0  0  0
  8 33  1  0  0  0  0
  9 15  1  0  0  0  0
  9 16  2  0  0  0  0
 11 15  1  0  0  0  0
 11 34  1  0  0  0  0
 11 35  1  0  0  0  0
 12 16  1  0  0  0  0
 12 36  1  0  0  0  0
 12 37  1  0  0  0  0
 13 17  1  0  0  0  0
 13 38  1  0  0  0  0
 13 39  1  0  0  0  0
 14 18  1  0  0  0  0
 14 40  1  0  0  0  0
 14 41  1  0  0  0  0
 15 20  2  0  0  0  0
 16 21  1  0  0  0  0
 17 42  1  0  0  0  0
 17 43  1  0  0  0  0
 18 44  1  0  0  0  0
 18 45  1  0  0  0  0
 19 46  1  0  0  0  0
 19 47  1  0  0  0  0
 19 48  1  0  0  0  0
 20 23  1  0  0  0  0
 20 49  1  0  0  0  0
 21 23  2  0  0  0  0
 21 50  1  0  0  0  0
 22 24  1  0  0  0  0
 22 51  1  0  0  0  0
 22 52  1  0  0  0  0
 23 53  1  0  0  0  0
 24 25  2  0  0  0  0
 24 26  1  0  0  0  0
 25 27  1  0  0  0  0
 25 54  1  0  0  0  0
 26 28  2  0  0  0  0
 26 55  1  0  0  0  0
 27 29  2  0  0  0  0
 27 56  1  0  0  0  0
 28 29  1  0  0  0  0
 28 57  1  0  0  0  0
M  END
> <PUBCHEM_COMPOUND_CID>
10158455

> <PUBCHEM_COMPOUND_CANONICALIZED>
1

> <PUBCHEM_CACTVS_COMPLEXITY>
585

> <PUBCHEM_CACTVS_HBOND_ACCEPTOR>
3

> <PUBCHEM_CACTVS_HBOND_DONOR>
0

> <PUBCHEM_CACTVS_ROTATABLE_BOND>
3

> <PUBCHEM_CACTVS_SUBSKEYS>
AAADceB7IAAEAAAAAAAAAAAAAAAAAWAAAAA8YIAABYAAAFixQAAAHgIAAAAADCrBmCQywIMAAACIAiVSUACCAAAhBQAIiAGIRogIYDLBk7GUIAhghgDIyAcYiMCOBAACAAACAAAIAAQAAAQAAAAAAAAAAA==

> <PUBCHEM_IUPAC_OPENEYE_NAME>
11-[4-[(4-chlorophenyl)methyl]piperazin-1-yl]-2-methyl-1-azatricyclo[6.4.1.04,13]trideca-4,6,8(13)-trien-12-one

> <PUBCHEM_IUPAC_CAS_NAME>
11-[4-[(4-chlorophenyl)methyl]-1-piperazinyl]-2-methyl-1-azatricyclo[6.4.1.04,13]trideca-4,6,8(13)-trien-12-one

> <PUBCHEM_IUPAC_NAME_MARKUP>
11-[4-[(4-chlorophenyl)methyl]piperazin-1-yl]-2-methyl-1-azatricyclo[6.4.1.0<SUP>4,13</SUP>]trideca-4,6,8(13)-trien-12-one

> <PUBCHEM_IUPAC_NAME>
11-[4-[(4-chlorophenyl)methyl]piperazin-1-yl]-2-methyl-1-azatricyclo[6.4.1.04,13]trideca-4,6,8(13)-trien-12-one

> <PUBCHEM_IUPAC_SYSTEMATIC_NAME>
11-[4-[(4-chlorophenyl)methyl]piperazin-1-yl]-2-methyl-1-azatricyclo[6.4.1.04,13]trideca-4,6,8(13)-trien-12-one

> <PUBCHEM_IUPAC_TRADITIONAL_NAME>
11-[4-(4-chlorobenzyl)piperazino]-2-methyl-1-azatricyclo[6.4.1.04,13]trideca-4,6,8(13)-trien-12-one

> <PUBCHEM_IUPAC_INCHI>
InChI=1S/C24H28ClN3O/c1-17-15-20-4-2-3-19-7-10-22(24(29)28(17)23(19)20)27-13-11-26(12-14-27)16-18-5-8-21(25)9-6-18/h2-6,8-9,17,22H,7,10-16H2,1H3

> <PUBCHEM_IUPAC_INCHIKEY>
DGUCYPDNCXXCGB-UHFFFAOYSA-N

> <PUBCHEM_XLOGP3_AA>
4.2

> <PUBCHEM_EXACT_MASS>
409.1920902

> <PUBCHEM_MOLECULAR_FORMULA>
C24H28ClN3O

> <PUBCHEM_MOLECULAR_WEIGHT>
409.9

> <PUBCHEM_OPENEYE_CAN_SMILES>
CC1CC2=CC=CC3=C2N1C(=O)C(CC3)N4CCN(CC4)CC5=CC=C(C=C5)Cl

> <PUBCHEM_OPENEYE_ISO_SMILES>
CC1CC2=CC=CC3=C2N1C(=O)C(CC3)N4CCN(CC4)CC5=CC=C(C=C5)Cl

> <PUBCHEM_CACTVS_TPSA>
26.8

> <PUBCHEM_MONOISOTOPIC_WEIGHT>
409.1920902

> <PUBCHEM_TOTAL_CHARGE>
0

> <PUBCHEM_HEAVY_ATOM_COUNT>
29

> <PUBCHEM_ATOM_DEF_STEREO_COUNT>
0

> <PUBCHEM_ATOM_UDEF_STEREO_COUNT>
2

> <PUBCHEM_BOND_DEF_STEREO_COUNT>
0

> <PUBCHEM_BOND_UDEF_STEREO_COUNT>
0

> <PUBCHEM_ISOTOPIC_ATOM_COUNT>
0

> <PUBCHEM_COMPONENT_COUNT>
1

> <PUBCHEM_CACTVS_TAUTO_COUNT>
-1

> <PUBCHEM_COORDINATE_TYPE>
1
5
255

> <PUBCHEM_BONDANNOTATIONS>
15  20  8
16  21  8
20  23  8
21  23  8
24  25  8
24  26  8
25  27  8
26  28  8
27  29  8
28  29  8
6  3  3
7  19  3
9  15  8
9  16  8

$$$$
