155535057
  -OEChem-09292322402D

 63 66  0     0  0  0  0  0  0999 V2000
    4.6038    1.2912    0.0000 Cl  0  0  0  0  0  0  0  0  0  0  0  0
   10.6795   -2.1854    0.0000 O   0  0  0  0  0  0  0  0  0  0  0  0
   15.9416   -2.1612    0.0000 O   0  0  0  0  0  0  0  0  0  0  0  0
    6.3474   -1.7021    0.0000 N   0  0  0  0  0  0  0  0  0  0  0  0
    4.6116   -0.7087    0.0000 N   0  0  0  0  0  0  0  0  0  0  0  0
   14.2096   -2.1612    0.0000 N   0  0  0  0  0  0  0  0  0  0  0  0
    5.4834   -2.2054    0.0000 C   0  0  0  0  0  0  0  0  0  0  0  0
    6.3436   -0.7021    0.0000 C   0  0  0  0  0  0  0  0  0  0  0  0
    4.6154   -1.7087    0.0000 C   0  0  0  0  0  0  0  0  0  0  0  0
    5.4756   -0.2054    0.0000 C   0  0  0  0  0  0  0  0  0  0  0  0
    7.2154   -2.1987    0.0000 C   0  0  0  0  0  0  0  0  0  0  0  0
    8.0795   -1.6954    0.0000 C   0  0  0  0  0  0  0  0  0  0  0  0
    3.7436   -0.2121    0.0000 C   0  0  0  0  0  0  0  0  0  0  0  0
    8.9474   -2.1920    0.0000 C   0  0  0  0  0  0  0  0  0  0  0  0
    3.7398    0.7879    0.0000 C   0  0  0  0  0  0  0  0  0  0  0  0
    9.8115   -1.6887    0.0000 C   0  0  0  0  0  0  0  0  0  0  0  0
    2.8795   -0.7154    0.0000 C   0  0  0  0  0  0  0  0  0  0  0  0
    2.8718    1.2846    0.0000 C   0  0  0  0  0  0  0  0  0  0  0  0
    2.0116   -0.2188    0.0000 C   0  0  0  0  0  0  0  0  0  0  0  0
    2.0077    0.7812    0.0000 C   0  0  0  0  0  0  0  0  0  0  0  0
    2.8680    2.2846    0.0000 C   0  0  0  0  0  0  0  0  0  0  0  0
   13.3436   -0.6612    0.0000 C   0  0  0  0  0  0  0  0  0  0  0  0
   14.2096   -0.1612    0.0000 C   0  0  0  0  0  0  0  0  0  0  0  0
   11.5436   -1.6820    0.0000 C   0  0  0  0  0  0  0  0  0  0  0  0
   13.3436   -1.6612    0.0000 C   0  0  0  0  0  0  0  0  0  0  0  0
   15.0756   -0.6612    0.0000 C   0  0  0  0  0  0  0  0  0  0  0  0
   12.4496   -2.1959    0.0000 C   0  0  0  0  0  0  0  0  0  0  0  0
   12.4496   -0.1266    0.0000 C   0  0  0  0  0  0  0  0  0  0  0  0
   11.5436   -0.6404    0.0000 C   0  0  0  0  0  0  0  0  0  0  0  0
   15.0756   -1.6612    0.0000 C   0  0  0  0  0  0  0  0  0  0  0  0
    2.0000    2.7812    0.0000 C   0  0  0  0  0  0  0  0  0  0  0  0
    5.0866   -2.6819    0.0000 H   0  0  0  0  0  0  0  0  0  0  0  0
    5.8837   -2.6788    0.0000 H   0  0  0  0  0  0  0  0  0  0  0  0
    6.9546   -0.8074    0.0000 H   0  0  0  0  0  0  0  0  0  0  0  0
    6.5534   -0.1186    0.0000 H   0  0  0  0  0  0  0  0  0  0  0  0
    4.0044   -1.6034    0.0000 H   0  0  0  0  0  0  0  0  0  0  0  0
    4.4056   -2.2922    0.0000 H   0  0  0  0  0  0  0  0  0  0  0  0
    5.8723    0.2711    0.0000 H   0  0  0  0  0  0  0  0  0  0  0  0
    5.0753    0.2680    0.0000 H   0  0  0  0  0  0  0  0  0  0  0  0
    6.8187   -2.6752    0.0000 H   0  0  0  0  0  0  0  0  0  0  0  0
    7.6157   -2.6721    0.0000 H   0  0  0  0  0  0  0  0  0  0  0  0
    8.4762   -1.2189    0.0000 H   0  0  0  0  0  0  0  0  0  0  0  0
    7.6791   -1.2220    0.0000 H   0  0  0  0  0  0  0  0  0  0  0  0
    8.5507   -2.6685    0.0000 H   0  0  0  0  0  0  0  0  0  0  0  0
    9.3478   -2.6654    0.0000 H   0  0  0  0  0  0  0  0  0  0  0  0
   10.2082   -1.2122    0.0000 H   0  0  0  0  0  0  0  0  0  0  0  0
    9.4112   -1.2153    0.0000 H   0  0  0  0  0  0  0  0  0  0  0  0
    2.8819   -1.3354    0.0000 H   0  0  0  0  0  0  0  0  0  0  0  0
    1.4758   -0.5308    0.0000 H   0  0  0  0  0  0  0  0  0  0  0  0
    1.4696    1.0892    0.0000 H   0  0  0  0  0  0  0  0  0  0  0  0
    3.4789    2.1792    0.0000 H   0  0  0  0  0  0  0  0  0  0  0  0
    3.0778    2.8680    0.0000 H   0  0  0  0  0  0  0  0  0  0  0  0
   14.6081    0.3137    0.0000 H   0  0  0  0  0  0  0  0  0  0  0  0
   13.8111    0.3137    0.0000 H   0  0  0  0  0  0  0  0  0  0  0  0
   15.6862   -0.7689    0.0000 H   0  0  0  0  0  0  0  0  0  0  0  0
   15.2877   -0.0786    0.0000 H   0  0  0  0  0  0  0  0  0  0  0  0
   12.4568   -2.8158    0.0000 H   0  0  0  0  0  0  0  0  0  0  0  0
   12.4568    0.4934    0.0000 H   0  0  0  0  0  0  0  0  0  0  0  0
   11.0078   -0.3283    0.0000 H   0  0  0  0  0  0  0  0  0  0  0  0
   14.2096   -2.7812    0.0000 H   0  0  0  0  0  0  0  0  0  0  0  0
    2.3079    3.3193    0.0000 H   0  0  0  0  0  0  0  0  0  0  0  0
    1.4619    3.0891    0.0000 H   0  0  0  0  0  0  0  0  0  0  0  0
    1.6921    2.2431    0.0000 H   0  0  0  0  0  0  0  0  0  0  0  0
  1 15  1  0  0  0  0
  2 16  1  0  0  0  0
  2 24  1  0  0  0  0
  3 30  2  0  0  0  0
  4  7  1  0  0  0  0
  4  8  1  0  0  0  0
  4 11  1  0  0  0  0
  5  9  1  0  0  0  0
  5 10  1  0  0  0  0
  5 13  1  0  0  0  0
  6 25  1  0  0  0  0
  6 30  1  0  0  0  0
  6 60  1  0  0  0  0
  7  9  1  0  0  0  0
  7 32  1  0  0  0  0
  7 33  1  0  0  0  0
  8 10  1  0  0  0  0
  8 34  1  0  0  0  0
  8 35  1  0  0  0  0
  9 36  1  0  0  0  0
  9 37  1  0  0  0  0
 10 38  1  0  0  0  0
 10 39  1  0  0  0  0
 11 12  1  0  0  0  0
 11 40  1  0  0  0  0
 11 41  1  0  0  0  0
 12 14  1  0  0  0  0
 12 42  1  0  0  0  0
 12 43  1  0  0  0  0
 13 15  1  0  0  0  0
 13 17  2  0  0  0  0
 14 16  1  0  0  0  0
 14 44  1  0  0  0  0
 14 45  1  0  0  0  0
 15 18  2  0  0  0  0
 16 46  1  0  0  0  0
 16 47  1  0  0  0  0
 17 19  1  0  0  0  0
 17 48  1  0  0  0  0
 18 20  1  0  0  0  0
 18 21  1  0  0  0  0
 19 20  2  0  0  0  0
 19 49  1  0  0  0  0
 20 50  1  0  0  0  0
 21 31  1  0  0  0  0
 21 51  1  0  0  0  0
 21 52  1  0  0  0  0
 22 23  1  0  0  0  0
 22 25  2  0  0  0  0
 22 28  1  0  0  0  0
 23 26  1  0  0  0  0
 23 53  1  0  0  0  0
 23 54  1  0  0  0  0
 24 27  2  0  0  0  0
 24 29  1  0  0  0  0
 25 27  1  0  0  0  0
 26 30  1  0  0  0  0
 26 55  1  0  0  0  0
 26 56  1  0  0  0  0
 27 57  1  0  0  0  0
 28 29  2  0  0  0  0
 28 58  1  0  0  0  0
 29 59  1  0  0  0  0
 31 61  1  0  0  0  0
 31 62  1  0  0  0  0
 31 63  1  0  0  0  0
M  END
> <PUBCHEM_COMPOUND_CID>
155535057

> <PUBCHEM_COMPOUND_CANONICALIZED>
1

> <PUBCHEM_CACTVS_COMPLEXITY>
569

> <PUBCHEM_CACTVS_HBOND_ACCEPTOR>
4

> <PUBCHEM_CACTVS_HBOND_DONOR>
1

> <PUBCHEM_CACTVS_ROTATABLE_BOND>
8

> <PUBCHEM_CACTVS_SUBSKEYS>
AAADcfB7MAAEAAAAAAAAAAAAAAAAAAAAAAA8eIEAAAAAAACxQAAAHgIQAAAADA7hmCYyxoPABACIAiVSUACCCAAhJgAIiAEObogMZjLFs5vWOCjm1BnI6Ae42aOeIAAAQgADABBAAACEAAYAIAAAAAAAAA==

> <PUBCHEM_IUPAC_OPENEYE_NAME>
7-[4-[4-(2-chloro-3-ethyl-phenyl)piperazin-1-yl]butoxy]-3,4-dihydro-1H-quinolin-2-one

> <PUBCHEM_IUPAC_CAS_NAME>
7-[4-[4-(2-chloro-3-ethylphenyl)-1-piperazinyl]butoxy]-3,4-dihydro-1H-quinolin-2-one

> <PUBCHEM_IUPAC_NAME_MARKUP>
7-[4-[4-(2-chloro-3-ethylphenyl)piperazin-1-yl]butoxy]-3,4-dihydro-1<I>H</I>-quinolin-2-one

> <PUBCHEM_IUPAC_NAME>
7-[4-[4-(2-chloro-3-ethylphenyl)piperazin-1-yl]butoxy]-3,4-dihydro-1H-quinolin-2-one

> <PUBCHEM_IUPAC_SYSTEMATIC_NAME>
7-[4-[4-(2-chloranyl-3-ethyl-phenyl)piperazin-1-yl]butoxy]-3,4-dihydro-1H-quinolin-2-one

> <PUBCHEM_IUPAC_TRADITIONAL_NAME>
7-[4-[4-(2-chloro-3-ethyl-phenyl)piperazino]butoxy]-3,4-dihydrocarbostyril

> <PUBCHEM_IUPAC_INCHI>
InChI=1S/C25H32ClN3O2/c1-2-19-6-5-7-23(25(19)26)29-15-13-28(14-16-29)12-3-4-17-31-21-10-8-20-9-11-24(30)27-22(20)18-21/h5-8,10,18H,2-4,9,11-17H2,1H3,(H,27,30)

> <PUBCHEM_IUPAC_INCHIKEY>
FUGWOZRGTJZGAQ-UHFFFAOYSA-N

> <PUBCHEM_XLOGP3_AA>
4.8

> <PUBCHEM_EXACT_MASS>
441.2183050

> <PUBCHEM_MOLECULAR_FORMULA>
C25H32ClN3O2

> <PUBCHEM_MOLECULAR_WEIGHT>
442.0

> <PUBCHEM_OPENEYE_CAN_SMILES>
CCC1=C(C(=CC=C1)N2CCN(CC2)CCCCOC3=CC4=C(CCC(=O)N4)C=C3)Cl

> <PUBCHEM_OPENEYE_ISO_SMILES>
CCC1=C(C(=CC=C1)N2CCN(CC2)CCCCOC3=CC4=C(CCC(=O)N4)C=C3)Cl

> <PUBCHEM_CACTVS_TPSA>
44.8

> <PUBCHEM_MONOISOTOPIC_WEIGHT>
441.2183050

> <PUBCHEM_TOTAL_CHARGE>
0

> <PUBCHEM_HEAVY_ATOM_COUNT>
31

> <PUBCHEM_ATOM_DEF_STEREO_COUNT>
0

> <PUBCHEM_ATOM_UDEF_STEREO_COUNT>
0

> <PUBCHEM_BOND_DEF_STEREO_COUNT>
0

> <PUBCHEM_BOND_UDEF_STEREO_COUNT>
0

> <PUBCHEM_ISOTOPIC_ATOM_COUNT>
0

> <PUBCHEM_COMPONENT_COUNT>
1

> <PUBCHEM_CACTVS_TAUTO_COUNT>
-1

> <PUBCHEM_COORDINATE_TYPE>
1
5
255

> <PUBCHEM_BONDANNOTATIONS>
13  15  8
13  17  8
15  18  8
17  19  8
18  20  8
19  20  8
22  25  8
22  28  8
24  27  8
24  29  8
25  27  8
28  29  8

$$$$
