23631091
  -OEChem-09292322492D

 63 67  0     1  0  0  0  0  0999 V2000
    6.8867   -1.1012    0.0000 S   0  0  0  0  0  0  0  0  0  0  0  0
   16.3228    1.9975    0.0000 O   0  0  0  0  0  0  0  0  0  0  0  0
    9.8867    0.6309    0.0000 N   0  0  3  0  0  0  0  0  0  0  0  0
    5.2989   -1.9102    0.0000 N   0  0  0  0  0  0  0  0  0  0  0  0
   15.6566    1.2518    0.0000 N   0  0  0  0  0  0  0  0  0  0  0  0
    3.5388   -3.1890    0.0000 N   0  0  0  0  0  0  0  0  0  0  0  0
    5.2989   -0.2922    0.0000 N   0  0  0  0  0  0  0  0  0  0  0  0
    4.3479   -0.6012    0.0000 N   0  0  0  0  0  0  0  0  0  0  0  0
   10.3206    1.5318    0.0000 C   0  0  0  0  0  0  0  0  0  0  0  0
   10.3206   -0.2701    0.0000 C   0  0  0  0  0  0  0  0  0  0  0  0
   11.2955    1.7544    0.0000 C   0  0  0  0  0  0  0  0  0  0  0  0
   11.2955   -0.4926    0.0000 C   0  0  0  0  0  0  0  0  0  0  0  0
   12.0773    1.1309    0.0000 C   0  0  0  0  0  0  0  0  0  0  0  0
   12.0773    0.1309    0.0000 C   0  0  0  0  0  0  0  0  0  0  0  0
    8.8867    0.6309    0.0000 C   0  0  0  0  0  0  0  0  0  0  0  0
    8.3867   -0.2351    0.0000 C   0  0  0  0  0  0  0  0  0  0  0  0
   12.9713    1.6655    0.0000 C   0  0  0  0  0  0  0  0  0  0  0  0
   12.9713   -0.4038    0.0000 C   0  0  0  0  0  0  0  0  0  0  0  0
   13.8774    1.1517    0.0000 C   0  0  0  0  0  0  0  0  0  0  0  0
    7.3867   -0.2351    0.0000 C   0  0  0  0  0  0  0  0  0  0  0  0
   13.8774    0.1101    0.0000 C   0  0  0  0  0  0  0  0  0  0  0  0
   14.7414    1.6550    0.0000 C   0  0  0  0  0  0  0  0  0  0  0  0
    5.8867   -1.1012    0.0000 C   0  0  0  0  0  0  0  0  0  0  0  0
   14.8421    2.6500    0.0000 C   0  0  0  0  0  0  0  0  0  0  0  0
    4.3479   -1.6012    0.0000 C   0  0  0  0  0  0  0  0  0  0  0  0
    3.5388   -2.1890    0.0000 C   0  0  0  0  0  0  0  0  0  0  0  0
   15.8195    2.8616    0.0000 C   0  0  0  0  0  0  0  0  0  0  0  0
    5.6079   -2.8612    0.0000 C   0  0  0  0  0  0  0  0  0  0  0  0
    2.5878   -1.8799    0.0000 C   0  0  0  0  0  0  0  0  0  0  0  0
    2.5878   -3.4980    0.0000 C   0  0  0  0  0  0  0  0  0  0  0  0
   16.2227    3.7767    0.0000 C   0  0  0  0  0  0  0  0  0  0  0  0
    2.0000   -2.6890    0.0000 C   0  0  0  0  0  0  0  0  0  0  0  0
    4.3479   -3.7767    0.0000 C   0  0  0  0  0  0  0  0  0  0  0  0
   10.3206    2.1518    0.0000 H   0  0  0  0  0  0  0  0  0  0  0  0
    9.7161    1.6698    0.0000 H   0  0  0  0  0  0  0  0  0  0  0  0
    9.7161   -0.4080    0.0000 H   0  0  0  0  0  0  0  0  0  0  0  0
   10.3206   -0.8901    0.0000 H   0  0  0  0  0  0  0  0  0  0  0  0
   11.7802    2.1409    0.0000 H   0  0  0  0  0  0  0  0  0  0  0  0
   11.0265    2.3130    0.0000 H   0  0  0  0  0  0  0  0  0  0  0  0
   11.0265   -1.0512    0.0000 H   0  0  0  0  0  0  0  0  0  0  0  0
   11.7802   -0.8792    0.0000 H   0  0  0  0  0  0  0  0  0  0  0  0
    8.9944    1.2415    0.0000 H   0  0  0  0  0  0  0  0  0  0  0  0
    8.3041    0.8429    0.0000 H   0  0  0  0  0  0  0  0  0  0  0  0
    8.2790   -0.8457    0.0000 H   0  0  0  0  0  0  0  0  0  0  0  0
    8.9693   -0.4472    0.0000 H   0  0  0  0  0  0  0  0  0  0  0  0
   12.9641    2.2855    0.0000 H   0  0  0  0  0  0  0  0  0  0  0  0
   12.9641   -1.0237    0.0000 H   0  0  0  0  0  0  0  0  0  0  0  0
    7.4944    0.3754    0.0000 H   0  0  0  0  0  0  0  0  0  0  0  0
    6.8041   -0.0231    0.0000 H   0  0  0  0  0  0  0  0  0  0  0  0
   14.4131   -0.2020    0.0000 H   0  0  0  0  0  0  0  0  0  0  0  0
   14.3798    3.0630    0.0000 H   0  0  0  0  0  0  0  0  0  0  0  0
    5.0183   -3.0528    0.0000 H   0  0  0  0  0  0  0  0  0  0  0  0
    5.7995   -3.4509    0.0000 H   0  0  0  0  0  0  0  0  0  0  0  0
    6.1976   -2.6696    0.0000 H   0  0  0  0  0  0  0  0  0  0  0  0
    2.3962   -1.2903    0.0000 H   0  0  0  0  0  0  0  0  0  0  0  0
    2.3962   -4.0876    0.0000 H   0  0  0  0  0  0  0  0  0  0  0  0
    1.3800   -2.6890    0.0000 H   0  0  0  0  0  0  0  0  0  0  0  0
   16.7901    3.5268    0.0000 H   0  0  0  0  0  0  0  0  0  0  0  0
   16.4727    4.3441    0.0000 H   0  0  0  0  0  0  0  0  0  0  0  0
   15.6553    4.0267    0.0000 H   0  0  0  0  0  0  0  0  0  0  0  0
    3.9834   -4.2783    0.0000 H   0  0  0  0  0  0  0  0  0  0  0  0
    4.8494   -4.1412    0.0000 H   0  0  0  0  0  0  0  0  0  0  0  0
    4.7123   -3.2752    0.0000 H   0  0  0  0  0  0  0  0  0  0  0  0
  1 20  1  0  0  0  0
  1 23  1  0  0  0  0
  2  5  1  0  0  0  0
  2 27  1  0  0  0  0
  3  9  1  0  0  0  0
  3 10  1  0  0  0  0
  3 15  1  0  0  0  0
  4 23  1  0  0  0  0
  4 25  1  0  0  0  0
  4 28  1  0  0  0  0
  5 22  2  0  0  0  0
  6 26  1  0  0  0  0
  6 30  1  0  0  0  0
  6 33  1  0  0  0  0
  7  8  1  0  0  0  0
  7 23  2  0  0  0  0
  8 25  2  0  0  0  0
  9 11  1  0  0  0  0
  9 34  1  0  0  0  0
  9 35  1  0  0  0  0
 10 12  1  0  0  0  0
 10 36  1  0  0  0  0
 10 37  1  0  0  0  0
 11 13  1  0  0  0  0
 11 38  1  0  0  0  0
 11 39  1  0  0  0  0
 12 14  1  0  0  0  0
 12 40  1  0  0  0  0
 12 41  1  0  0  0  0
 13 14  2  0  0  0  0
 13 17  1  0  0  0  0
 14 18  1  0  0  0  0
 15 16  1  0  0  0  0
 15 42  1  0  0  0  0
 15 43  1  0  0  0  0
 16 20  1  0  0  0  0
 16 44  1  0  0  0  0
 16 45  1  0  0  0  0
 17 19  2  0  0  0  0
 17 46  1  0  0  0  0
 18 21  2  0  0  0  0
 18 47  1  0  0  0  0
 19 21  1  0  0  0  0
 19 22  1  0  0  0  0
 20 48  1  0  0  0  0
 20 49  1  0  0  0  0
 21 50  1  0  0  0  0
 22 24  1  0  0  0  0
 24 27  2  0  0  0  0
 24 51  1  0  0  0  0
 25 26  1  0  0  0  0
 26 29  2  0  0  0  0
 27 31  1  0  0  0  0
 28 52  1  0  0  0  0
 28 53  1  0  0  0  0
 28 54  1  0  0  0  0
 29 32  1  0  0  0  0
 29 55  1  0  0  0  0
 30 32  2  0  0  0  0
 30 56  1  0  0  0  0
 31 58  1  0  0  0  0
 31 59  1  0  0  0  0
 31 60  1  0  0  0  0
 32 57  1  0  0  0  0
 33 61  1  0  0  0  0
 33 62  1  0  0  0  0
 33 63  1  0  0  0  0
M  END
> <PUBCHEM_COMPOUND_CID>
23631091

> <PUBCHEM_COMPOUND_CANONICALIZED>
1

> <PUBCHEM_CACTVS_COMPLEXITY>
628

> <PUBCHEM_CACTVS_HBOND_ACCEPTOR>
6

> <PUBCHEM_CACTVS_HBOND_DONOR>
0

> <PUBCHEM_CACTVS_ROTATABLE_BOND>
7

> <PUBCHEM_CACTVS_SUBSKEYS>
AAADceB7oABAAAAAAAAAAAAAAAAAAWLFgAAwAAAABYAAAAAB/AAAHgQMAAAADAzF3wS/lJccEAirA7Z3ZgCS0Ct1IrA92CE+bNqIbvrgmZOUMYhmiBrIyUeYyOCOwAACAAAQAACAAAQAACAAAAAAAAAAAA==

> <PUBCHEM_IUPAC_OPENEYE_NAME>
5-methyl-3-[3-[3-[[4-methyl-5-(1-methylpyrrol-2-yl)-1,2,4-triazol-3-yl]sulfanyl]propyl]-1,2,4,5-tetrahydro-3-benzazepin-7-yl]isoxazole

> <PUBCHEM_IUPAC_CAS_NAME>
5-methyl-3-[3-[3-[[4-methyl-5-(1-methyl-2-pyrrolyl)-1,2,4-triazol-3-yl]thio]propyl]-1,2,4,5-tetrahydro-3-benzazepin-7-yl]isoxazole

> <PUBCHEM_IUPAC_NAME_MARKUP>
5-methyl-3-[3-[3-[[4-methyl-5-(1-methylpyrrol-2-yl)-1,2,4-triazol-3-yl]sulfanyl]propyl]-1,2,4,5-tetrahydro-3-benzazepin-7-yl]-1,2-oxazole

> <PUBCHEM_IUPAC_NAME>
5-methyl-3-[3-[3-[[4-methyl-5-(1-methylpyrrol-2-yl)-1,2,4-triazol-3-yl]sulfanyl]propyl]-1,2,4,5-tetrahydro-3-benzazepin-7-yl]-1,2-oxazole

> <PUBCHEM_IUPAC_SYSTEMATIC_NAME>
5-methyl-3-[3-[3-[[4-methyl-5-(1-methylpyrrol-2-yl)-1,2,4-triazol-3-yl]sulfanyl]propyl]-1,2,4,5-tetrahydro-3-benzazepin-7-yl]-1,2-oxazole

> <PUBCHEM_IUPAC_TRADITIONAL_NAME>
5-methyl-3-[3-[3-[[4-methyl-5-(1-methylpyrrol-2-yl)-1,2,4-triazol-3-yl]thio]propyl]-1,2,4,5-tetrahydro-3-benzazepin-7-yl]isoxazole

> <PUBCHEM_IUPAC_INCHI>
InChI=1S/C25H30N6OS/c1-18-16-22(28-32-18)21-8-7-19-9-13-31(14-10-20(19)17-21)12-5-15-33-25-27-26-24(30(25)3)23-6-4-11-29(23)2/h4,6-8,11,16-17H,5,9-10,12-15H2,1-3H3

> <PUBCHEM_IUPAC_INCHIKEY>
AZIHSCHAYYVWIY-UHFFFAOYSA-N

> <PUBCHEM_XLOGP3_AA>
3.6

> <PUBCHEM_EXACT_MASS>
462.22018078

> <PUBCHEM_MOLECULAR_FORMULA>
C25H30N6OS

> <PUBCHEM_MOLECULAR_WEIGHT>
462.6

> <PUBCHEM_OPENEYE_CAN_SMILES>
CC1=CC(=NO1)C2=CC3=C(CCN(CC3)CCCSC4=NN=C(N4C)C5=CC=CN5C)C=C2

> <PUBCHEM_OPENEYE_ISO_SMILES>
CC1=CC(=NO1)C2=CC3=C(CCN(CC3)CCCSC4=NN=C(N4C)C5=CC=CN5C)C=C2

> <PUBCHEM_CACTVS_TPSA>
90.2

> <PUBCHEM_MONOISOTOPIC_WEIGHT>
462.22018078

> <PUBCHEM_TOTAL_CHARGE>
0

> <PUBCHEM_HEAVY_ATOM_COUNT>
33

> <PUBCHEM_ATOM_DEF_STEREO_COUNT>
0

> <PUBCHEM_ATOM_UDEF_STEREO_COUNT>
0

> <PUBCHEM_BOND_DEF_STEREO_COUNT>
0

> <PUBCHEM_BOND_UDEF_STEREO_COUNT>
0

> <PUBCHEM_ISOTOPIC_ATOM_COUNT>
0

> <PUBCHEM_COMPONENT_COUNT>
1

> <PUBCHEM_CACTVS_TAUTO_COUNT>
-1

> <PUBCHEM_COORDINATE_TYPE>
1
5
255

> <PUBCHEM_BONDANNOTATIONS>
13  14  8
13  17  8
14  18  8
17  19  8
18  21  8
19  21  8
2  27  8
2  5  8
22  24  8
24  27  8
26  29  8
29  32  8
30  32  8
4  23  8
4  25  8
5  22  8
6  26  8
6  30  8
7  23  8
7  8  8
8  25  8

$$$$
