44251388
  -OEChem-09292322072D

 46 49  0     0  0  0  0  0  0999 V2000
    2.8660   -2.1353    0.0000 O   0  0  0  0  0  0  0  0  0  0  0  0
    6.0531   -0.6357    0.0000 O   0  0  0  0  0  0  0  0  0  0  0  0
    8.9421    2.6283    0.0000 O   0  0  0  0  0  0  0  0  0  0  0  0
    6.4103   -3.9400    0.0000 N   0  0  0  0  0  0  0  0  0  0  0  0
    7.6995   -1.1738    0.0000 N   0  0  0  0  0  0  0  0  0  0  0  0
    7.6530    1.4715    0.0000 N   0  0  0  0  0  0  0  0  0  0  0  0
   11.2098    3.9912    0.0000 N   0  0  0  0  0  0  0  0  0  0  0  0
    5.4641   -2.6353    0.0000 C   0  0  0  0  0  0  0  0  0  0  0  0
    5.4641   -3.6353    0.0000 C   0  0  0  0  0  0  0  0  0  0  0  0
    6.4103   -2.3305    0.0000 C   0  0  0  0  0  0  0  0  0  0  0  0
    6.9939   -3.1353    0.0000 C   0  0  0  0  0  0  0  0  0  0  0  0
    4.5981   -2.1353    0.0000 C   0  0  0  0  0  0  0  0  0  0  0  0
    4.5981   -4.1353    0.0000 C   0  0  0  0  0  0  0  0  0  0  0  0
    3.7320   -2.6353    0.0000 C   0  0  0  0  0  0  0  0  0  0  0  0
    6.7210   -1.3800    0.0000 C   0  0  0  0  0  0  0  0  0  0  0  0
    3.7320   -3.6353    0.0000 C   0  0  0  0  0  0  0  0  0  0  0  0
    8.0102   -0.2233    0.0000 C   0  0  0  0  0  0  0  0  0  0  0  0
    8.9887   -0.0171    0.0000 C   0  0  0  0  0  0  0  0  0  0  0  0
    7.3423    0.5210    0.0000 C   0  0  0  0  0  0  0  0  0  0  0  0
    8.6315    1.6778    0.0000 C   0  0  0  0  0  0  0  0  0  0  0  0
    9.2993    0.9335    0.0000 C   0  0  0  0  0  0  0  0  0  0  0  0
    9.9206    2.8345    0.0000 C   0  0  0  0  0  0  0  0  0  0  0  0
   10.2313    3.7850    0.0000 C   0  0  0  0  0  0  0  0  0  0  0  0
    2.0000   -2.6353    0.0000 C   0  0  0  0  0  0  0  0  0  0  0  0
   10.5885    2.0902    0.0000 C   0  0  0  0  0  0  0  0  0  0  0  0
    9.5635    4.5293    0.0000 C   0  0  0  0  0  0  0  0  0  0  0  0
   11.5670    2.2964    0.0000 C   0  0  0  0  0  0  0  0  0  0  0  0
   11.8777    3.2469    0.0000 C   0  0  0  0  0  0  0  0  0  0  0  0
    6.6029   -4.5293    0.0000 H   0  0  0  0  0  0  0  0  0  0  0  0
    7.6139   -3.1353    0.0000 H   0  0  0  0  0  0  0  0  0  0  0  0
    4.5981   -1.5153    0.0000 H   0  0  0  0  0  0  0  0  0  0  0  0
    4.5981   -4.7553    0.0000 H   0  0  0  0  0  0  0  0  0  0  0  0
    3.1951   -3.9453    0.0000 H   0  0  0  0  0  0  0  0  0  0  0  0
    8.1136   -1.6353    0.0000 H   0  0  0  0  0  0  0  0  0  0  0  0
    9.4027   -0.4785    0.0000 H   0  0  0  0  0  0  0  0  0  0  0  0
    6.7356    0.3932    0.0000 H   0  0  0  0  0  0  0  0  0  0  0  0
    9.9060    1.0613    0.0000 H   0  0  0  0  0  0  0  0  0  0  0  0
    1.6900   -2.0983    0.0000 H   0  0  0  0  0  0  0  0  0  0  0  0
    1.4631   -2.9453    0.0000 H   0  0  0  0  0  0  0  0  0  0  0  0
    2.3100   -3.1722    0.0000 H   0  0  0  0  0  0  0  0  0  0  0  0
   10.3959    1.5009    0.0000 H   0  0  0  0  0  0  0  0  0  0  0  0
   10.0249    4.9434    0.0000 H   0  0  0  0  0  0  0  0  0  0  0  0
    9.1494    4.9908    0.0000 H   0  0  0  0  0  0  0  0  0  0  0  0
    9.1020    4.1153    0.0000 H   0  0  0  0  0  0  0  0  0  0  0  0
   11.9811    1.8350    0.0000 H   0  0  0  0  0  0  0  0  0  0  0  0
   12.4843    3.3748    0.0000 H   0  0  0  0  0  0  0  0  0  0  0  0
  1 14  1  0  0  0  0
  1 24  1  0  0  0  0
  2 15  2  0  0  0  0
  3 20  1  0  0  0  0
  3 22  1  0  0  0  0
  4  9  1  0  0  0  0
  4 11  1  0  0  0  0
  4 29  1  0  0  0  0
  5 15  1  0  0  0  0
  5 17  1  0  0  0  0
  5 34  1  0  0  0  0
  6 19  1  0  0  0  0
  6 20  2  0  0  0  0
  7 23  1  0  0  0  0
  7 28  2  0  0  0  0
  8  9  2  0  0  0  0
  8 10  1  0  0  0  0
  8 12  1  0  0  0  0
  9 13  1  0  0  0  0
 10 11  2  0  0  0  0
 10 15  1  0  0  0  0
 11 30  1  0  0  0  0
 12 14  2  0  0  0  0
 12 31  1  0  0  0  0
 13 16  2  0  0  0  0
 13 32  1  0  0  0  0
 14 16  1  0  0  0  0
 16 33  1  0  0  0  0
 17 18  1  0  0  0  0
 17 19  2  0  0  0  0
 18 21  2  0  0  0  0
 18 35  1  0  0  0  0
 19 36  1  0  0  0  0
 20 21  1  0  0  0  0
 21 37  1  0  0  0  0
 22 23  2  0  0  0  0
 22 25  1  0  0  0  0
 23 26  1  0  0  0  0
 24 38  1  0  0  0  0
 24 39  1  0  0  0  0
 24 40  1  0  0  0  0
 25 27  2  0  0  0  0
 25 41  1  0  0  0  0
 26 42  1  0  0  0  0
 26 43  1  0  0  0  0
 26 44  1  0  0  0  0
 27 28  1  0  0  0  0
 27 45  1  0  0  0  0
 28 46  1  0  0  0  0
M  END
> <PUBCHEM_COMPOUND_CID>
44251388

> <PUBCHEM_COMPOUND_CANONICALIZED>
1

> <PUBCHEM_CACTVS_COMPLEXITY>
534

> <PUBCHEM_CACTVS_HBOND_ACCEPTOR>
5

> <PUBCHEM_CACTVS_HBOND_DONOR>
2

> <PUBCHEM_CACTVS_ROTATABLE_BOND>
5

> <PUBCHEM_CACTVS_SUBSKEYS>
AAADceB7sAAAAAAAAAAAAAAAAAAAAWAAAAA8WIAAAAAAAFgB/gAAHgAQAAAADAzBngY+xvLJlACoAzV3VASCiCA1ciAI2aE/fNgOZvrE9ZufOajk1BHY6ce83PLOgEABAAACAAAAgAIAAAQAAAAAAAAAAA==

> <PUBCHEM_IUPAC_OPENEYE_NAME>
5-methoxy-N-[6-[(2-methyl-3-pyridyl)oxy]-3-pyridyl]-1H-indole-3-carboxamide

> <PUBCHEM_IUPAC_CAS_NAME>
5-methoxy-N-[6-[(2-methyl-3-pyridinyl)oxy]-3-pyridinyl]-1H-indole-3-carboxamide

> <PUBCHEM_IUPAC_NAME_MARKUP>
5-methoxy-<I>N</I>-[6-(2-methylpyridin-3-yl)oxypyridin-3-yl]-1<I>H</I>-indole-3-carboxamide

> <PUBCHEM_IUPAC_NAME>
5-methoxy-N-[6-(2-methylpyridin-3-yl)oxypyridin-3-yl]-1H-indole-3-carboxamide

> <PUBCHEM_IUPAC_SYSTEMATIC_NAME>
5-methoxy-N-[6-(2-methylpyridin-3-yl)oxypyridin-3-yl]-1H-indole-3-carboxamide

> <PUBCHEM_IUPAC_TRADITIONAL_NAME>
5-methoxy-N-[6-[(2-methyl-3-pyridyl)oxy]-3-pyridyl]-1H-indole-3-carboxamide

> <PUBCHEM_IUPAC_INCHI>
InChI=1S/C21H18N4O3/c1-13-19(4-3-9-22-13)28-20-8-5-14(11-24-20)25-21(26)17-12-23-18-7-6-15(27-2)10-16(17)18/h3-12,23H,1-2H3,(H,25,26)

> <PUBCHEM_IUPAC_INCHIKEY>
BOLGHGNEFZUVST-UHFFFAOYSA-N

> <PUBCHEM_XLOGP3_AA>
3

> <PUBCHEM_EXACT_MASS>
374.13789045

> <PUBCHEM_MOLECULAR_FORMULA>
C21H18N4O3

> <PUBCHEM_MOLECULAR_WEIGHT>
374.4

> <PUBCHEM_OPENEYE_CAN_SMILES>
CC1=C(C=CC=N1)OC2=NC=C(C=C2)NC(=O)C3=CNC4=C3C=C(C=C4)OC

> <PUBCHEM_OPENEYE_ISO_SMILES>
CC1=C(C=CC=N1)OC2=NC=C(C=C2)NC(=O)C3=CNC4=C3C=C(C=C4)OC

> <PUBCHEM_CACTVS_TPSA>
89.1

> <PUBCHEM_MONOISOTOPIC_WEIGHT>
374.13789045

> <PUBCHEM_TOTAL_CHARGE>
0

> <PUBCHEM_HEAVY_ATOM_COUNT>
28

> <PUBCHEM_ATOM_DEF_STEREO_COUNT>
0

> <PUBCHEM_ATOM_UDEF_STEREO_COUNT>
0

> <PUBCHEM_BOND_DEF_STEREO_COUNT>
0

> <PUBCHEM_BOND_UDEF_STEREO_COUNT>
0

> <PUBCHEM_ISOTOPIC_ATOM_COUNT>
0

> <PUBCHEM_COMPONENT_COUNT>
1

> <PUBCHEM_CACTVS_TAUTO_COUNT>
-1

> <PUBCHEM_COORDINATE_TYPE>
1
5
255

> <PUBCHEM_BONDANNOTATIONS>
10  11  8
12  14  8
13  16  8
14  16  8
17  18  8
17  19  8
18  21  8
20  21  8
22  23  8
22  25  8
25  27  8
27  28  8
4  11  8
4  9  8
6  19  8
6  20  8
7  23  8
7  28  8
8  10  8
8  12  8
8  9  8
9  13  8

$$$$
