137660855
  -OEChem-09292322082D

 56 60  0     1  0  0  0  0  0999 V2000
   13.4564    1.5146    0.0000 O   0  0  0  0  0  0  0  0  0  0  0  0
    7.2602    0.5146    0.0000 N   0  0  3  0  0  0  0  0  0  0  0  0
   12.5904    0.0146    0.0000 N   0  0  0  0  0  0  0  0  0  0  0  0
   15.2302    0.4198    0.0000 N   0  0  0  0  0  0  0  0  0  0  0  0
    2.0000   -0.5128    0.0000 N   0  0  0  0  0  0  0  0  0  0  0  0
    9.8583    0.0146    0.0000 C   0  0  1  0  0  0  0  0  0  0  0  0
   10.8583    0.0146    0.0000 C   0  0  1  0  0  0  0  0  0  0  0  0
   10.3583   -0.8514    0.0000 C   0  0  0  0  0  0  0  0  0  0  0  0
    8.9923    0.5146    0.0000 C   0  0  0  0  0  0  0  0  0  0  0  0
   11.7243    0.5146    0.0000 C   0  0  0  0  0  0  0  0  0  0  0  0
    8.1263    0.0146    0.0000 C   0  0  0  0  0  0  0  0  0  0  0  0
    7.2602    1.5146    0.0000 C   0  0  0  0  0  0  0  0  0  0  0  0
    6.3942    0.0146    0.0000 C   0  0  0  0  0  0  0  0  0  0  0  0
    6.3942    2.0146    0.0000 C   0  0  0  0  0  0  0  0  0  0  0  0
    5.5282    0.5146    0.0000 C   0  0  0  0  0  0  0  0  0  0  0  0
   13.4564    0.5146    0.0000 C   0  0  0  0  0  0  0  0  0  0  0  0
    5.5282    1.5146    0.0000 C   0  0  0  0  0  0  0  0  0  0  0  0
   14.3224    0.0146    0.0000 C   0  0  0  0  0  0  0  0  0  0  0  0
    4.6342   -0.0200    0.0000 C   0  0  0  0  0  0  0  0  0  0  0  0
    4.6342    2.0493    0.0000 C   0  0  0  0  0  0  0  0  0  0  0  0
    3.7282    0.4938    0.0000 C   0  0  0  0  0  0  0  0  0  0  0  0
    3.7282    1.5355    0.0000 C   0  0  0  0  0  0  0  0  0  0  0  0
   14.4255   -0.9741    0.0000 C   0  0  0  0  0  0  0  0  0  0  0  0
   15.8973   -0.3173    0.0000 C   0  0  0  0  0  0  0  0  0  0  0  0
   15.3973   -1.1833    0.0000 C   0  0  0  0  0  0  0  0  0  0  0  0
    2.8641   -0.0095    0.0000 C   0  0  0  0  0  0  0  0  0  0  0  0
   16.8973   -0.3173    0.0000 C   0  0  0  0  0  0  0  0  0  0  0  0
   15.8973   -2.0493    0.0000 C   0  0  0  0  0  0  0  0  0  0  0  0
   17.3973   -1.1833    0.0000 C   0  0  0  0  0  0  0  0  0  0  0  0
   16.8973   -2.0493    0.0000 C   0  0  0  0  0  0  0  0  0  0  0  0
    9.4199   -0.4238    0.0000 H   0  0  0  0  0  0  0  0  0  0  0  0
   11.2967   -0.4238    0.0000 H   0  0  0  0  0  0  0  0  0  0  0  0
    9.8834   -1.2499    0.0000 H   0  0  0  0  0  0  0  0  0  0  0  0
   10.8333   -1.2499    0.0000 H   0  0  0  0  0  0  0  0  0  0  0  0
    9.3908    0.9896    0.0000 H   0  0  0  0  0  0  0  0  0  0  0  0
    8.5938    0.9896    0.0000 H   0  0  0  0  0  0  0  0  0  0  0  0
   12.1229    0.9896    0.0000 H   0  0  0  0  0  0  0  0  0  0  0  0
   11.3258    0.9896    0.0000 H   0  0  0  0  0  0  0  0  0  0  0  0
    7.7277   -0.4603    0.0000 H   0  0  0  0  0  0  0  0  0  0  0  0
    8.5248   -0.4603    0.0000 H   0  0  0  0  0  0  0  0  0  0  0  0
   12.5904   -0.6054    0.0000 H   0  0  0  0  0  0  0  0  0  0  0  0
    7.8708    1.4070    0.0000 H   0  0  0  0  0  0  0  0  0  0  0  0
    7.4723    2.0972    0.0000 H   0  0  0  0  0  0  0  0  0  0  0  0
    5.9957   -0.4603    0.0000 H   0  0  0  0  0  0  0  0  0  0  0  0
    6.7928   -0.4603    0.0000 H   0  0  0  0  0  0  0  0  0  0  0  0
    6.7928    2.4896    0.0000 H   0  0  0  0  0  0  0  0  0  0  0  0
    5.9957    2.4896    0.0000 H   0  0  0  0  0  0  0  0  0  0  0  0
    4.6414   -0.6400    0.0000 H   0  0  0  0  0  0  0  0  0  0  0  0
    4.6414    2.6693    0.0000 H   0  0  0  0  0  0  0  0  0  0  0  0
    3.1924    1.8475    0.0000 H   0  0  0  0  0  0  0  0  0  0  0  0
   15.3581    1.0264    0.0000 H   0  0  0  0  0  0  0  0  0  0  0  0
   13.9640   -1.3881    0.0000 H   0  0  0  0  0  0  0  0  0  0  0  0
   17.2073    0.2197    0.0000 H   0  0  0  0  0  0  0  0  0  0  0  0
   15.5873   -2.5862    0.0000 H   0  0  0  0  0  0  0  0  0  0  0  0
   18.0173   -1.1833    0.0000 H   0  0  0  0  0  0  0  0  0  0  0  0
   17.2073   -2.5862    0.0000 H   0  0  0  0  0  0  0  0  0  0  0  0
  1 16  2  0  0  0  0
  2 11  1  0  0  0  0
  2 12  1  0  0  0  0
  2 13  1  0  0  0  0
  3 10  1  0  0  0  0
  3 16  1  0  0  0  0
  3 41  1  0  0  0  0
  4 18  1  0  0  0  0
  4 24  1  0  0  0  0
  4 51  1  0  0  0  0
  5 26  3  0  0  0  0
  6  7  1  0  0  0  0
  6  8  1  0  0  0  0
  6  9  1  1  0  0  0
  6 31  1  0  0  0  0
  7  8  1  0  0  0  0
  7 10  1  6  0  0  0
  7 32  1  0  0  0  0
  8 33  1  0  0  0  0
  8 34  1  0  0  0  0
  9 11  1  0  0  0  0
  9 35  1  0  0  0  0
  9 36  1  0  0  0  0
 10 37  1  0  0  0  0
 10 38  1  0  0  0  0
 11 39  1  0  0  0  0
 11 40  1  0  0  0  0
 12 14  1  0  0  0  0
 12 42  1  0  0  0  0
 12 43  1  0  0  0  0
 13 15  1  0  0  0  0
 13 44  1  0  0  0  0
 13 45  1  0  0  0  0
 14 17  1  0  0  0  0
 14 46  1  0  0  0  0
 14 47  1  0  0  0  0
 15 17  2  0  0  0  0
 15 19  1  0  0  0  0
 16 18  1  0  0  0  0
 17 20  1  0  0  0  0
 18 23  2  0  0  0  0
 19 21  2  0  0  0  0
 19 48  1  0  0  0  0
 20 22  2  0  0  0  0
 20 49  1  0  0  0  0
 21 22  1  0  0  0  0
 21 26  1  0  0  0  0
 22 50  1  0  0  0  0
 23 25  1  0  0  0  0
 23 52  1  0  0  0  0
 24 25  1  0  0  0  0
 24 27  2  0  0  0  0
 25 28  2  0  0  0  0
 27 29  1  0  0  0  0
 27 53  1  0  0  0  0
 28 30  1  0  0  0  0
 28 54  1  0  0  0  0
 29 30  2  0  0  0  0
 29 55  1  0  0  0  0
 30 56  1  0  0  0  0
M  END
> <PUBCHEM_COMPOUND_CID>
137660855

> <PUBCHEM_COMPOUND_CANONICALIZED>
1

> <PUBCHEM_CACTVS_COMPLEXITY>
671

> <PUBCHEM_CACTVS_HBOND_ACCEPTOR>
3

> <PUBCHEM_CACTVS_HBOND_DONOR>
2

> <PUBCHEM_CACTVS_ROTATABLE_BOND>
6

> <PUBCHEM_CACTVS_SUBSKEYS>
AAADceB7oAAAAAAAAAAAAAAAGAAAAWAAAAA8YIAAAAAAAFix9AAAHgAQAAAADQjBngQwwPPJkAC4ByVyVACigCAnAiAImaG4ZNgI4PLAlbGUIQhglgDIyY8YicCewAACAAASAACAAAQAACQAAAAAAAAAAA==

> <PUBCHEM_IUPAC_OPENEYE_NAME>
N-[[(1R,2S)-2-[2-(7-cyano-3,4-dihydro-1H-isoquinolin-2-yl)ethyl]cyclopropyl]methyl]-1H-indole-2-carboxamide

> <PUBCHEM_IUPAC_CAS_NAME>
N-[[(1R,2S)-2-[2-(7-cyano-3,4-dihydro-1H-isoquinolin-2-yl)ethyl]cyclopropyl]methyl]-1H-indole-2-carboxamide

> <PUBCHEM_IUPAC_NAME_MARKUP>
<I>N</I>-[[(1<I>R</I>,2<I>S</I>)-2-[2-(7-cyano-3,4-dihydro-1<I>H</I>-isoquinolin-2-yl)ethyl]cyclopropyl]methyl]-1<I>H</I>-indole-2-carboxamide

> <PUBCHEM_IUPAC_NAME>
N-[[(1R,2S)-2-[2-(7-cyano-3,4-dihydro-1H-isoquinolin-2-yl)ethyl]cyclopropyl]methyl]-1H-indole-2-carboxamide

> <PUBCHEM_IUPAC_SYSTEMATIC_NAME>
N-[[(1R,2S)-2-[2-(7-cyano-3,4-dihydro-1H-isoquinolin-2-yl)ethyl]cyclopropyl]methyl]-1H-indole-2-carboxamide

> <PUBCHEM_IUPAC_TRADITIONAL_NAME>
N-[[(1R,2S)-2-[2-(7-cyano-3,4-dihydro-1H-isoquinolin-2-yl)ethyl]cyclopropyl]methyl]-1H-indole-2-carboxamide

> <PUBCHEM_IUPAC_INCHI>
InChI=1S/C25H26N4O/c26-14-17-5-6-18-7-9-29(16-22(18)11-17)10-8-19-12-21(19)15-27-25(30)24-13-20-3-1-2-4-23(20)28-24/h1-6,11,13,19,21,28H,7-10,12,15-16H2,(H,27,30)/t19-,21+/m1/s1

> <PUBCHEM_IUPAC_INCHIKEY>
CVLZQDTWSWXSHI-CTNGQTDRSA-N

> <PUBCHEM_XLOGP3_AA>
3.9

> <PUBCHEM_EXACT_MASS>
398.21066147

> <PUBCHEM_MOLECULAR_FORMULA>
C25H26N4O

> <PUBCHEM_MOLECULAR_WEIGHT>
398.5

> <PUBCHEM_OPENEYE_CAN_SMILES>
C1CN(CC2=C1C=CC(=C2)C#N)CCC3CC3CNC(=O)C4=CC5=CC=CC=C5N4

> <PUBCHEM_OPENEYE_ISO_SMILES>
C1CN(CC2=C1C=CC(=C2)C#N)CC[C@@H]3C[C@H]3CNC(=O)C4=CC5=CC=CC=C5N4

> <PUBCHEM_CACTVS_TPSA>
71.9

> <PUBCHEM_MONOISOTOPIC_WEIGHT>
398.21066147

> <PUBCHEM_TOTAL_CHARGE>
0

> <PUBCHEM_HEAVY_ATOM_COUNT>
30

> <PUBCHEM_ATOM_DEF_STEREO_COUNT>
2

> <PUBCHEM_ATOM_UDEF_STEREO_COUNT>
0

> <PUBCHEM_BOND_DEF_STEREO_COUNT>
0

> <PUBCHEM_BOND_UDEF_STEREO_COUNT>
0

> <PUBCHEM_ISOTOPIC_ATOM_COUNT>
0

> <PUBCHEM_COMPONENT_COUNT>
1

> <PUBCHEM_CACTVS_TAUTO_COUNT>
-1

> <PUBCHEM_COORDINATE_TYPE>
1
5
255

> <PUBCHEM_BONDANNOTATIONS>
15  17  8
15  19  8
17  20  8
18  23  8
19  21  8
20  22  8
21  22  8
23  25  8
24  25  8
24  27  8
25  28  8
27  29  8
28  30  8
29  30  8
4  18  8
4  24  8
6  9  5
7  10  6

$$$$
