44438203
  -OEChem-09292321592D

 48 51  0     0  0  0  0  0  0999 V2000
    8.0221    2.8349    0.0000 F   0  0  0  0  0  0  0  0  0  0  0  0
    8.7944    4.0196    0.0000 F   0  0  0  0  0  0  0  0  0  0  0  0
    9.9791    3.2473    0.0000 F   0  0  0  0  0  0  0  0  0  0  0  0
    8.8750   -0.5623    0.0000 O   0  0  0  0  0  0  0  0  0  0  0  0
    5.9674   -0.6641    0.0000 N   0  0  0  0  0  0  0  0  0  0  0  0
    4.6783   -3.4303    0.0000 N   0  0  0  0  0  0  0  0  0  0  0  0
    7.9244   -0.2516    0.0000 C   0  0  0  0  0  0  0  0  0  0  0  0
    7.6138   -1.2021    0.0000 C   0  0  0  0  0  0  0  0  0  0  0  0
    7.2566    0.4927    0.0000 C   0  0  0  0  0  0  0  0  0  0  0  0
    6.6353   -1.4084    0.0000 C   0  0  0  0  0  0  0  0  0  0  0  0
    6.2781    0.2865    0.0000 C   0  0  0  0  0  0  0  0  0  0  0  0
    8.6688    0.4162    0.0000 C   0  0  0  0  0  0  0  0  0  0  0  0
    4.9889   -0.8703    0.0000 C   0  0  0  0  0  0  0  0  0  0  0  0
    4.6783   -1.8208    0.0000 C   0  0  0  0  0  0  0  0  0  0  0  0
    8.4625    1.3947    0.0000 C   0  0  0  0  0  0  0  0  0  0  0  0
    9.6193    0.1056    0.0000 C   0  0  0  0  0  0  0  0  0  0  0  0
    3.7320   -2.1255    0.0000 C   0  0  0  0  0  0  0  0  0  0  0  0
    5.2619   -2.6255    0.0000 C   0  0  0  0  0  0  0  0  0  0  0  0
    9.2068    2.0626    0.0000 C   0  0  0  0  0  0  0  0  0  0  0  0
    3.7320   -3.1255    0.0000 C   0  0  0  0  0  0  0  0  0  0  0  0
   10.3636    0.7734    0.0000 C   0  0  0  0  0  0  0  0  0  0  0  0
   10.1574    1.7519    0.0000 C   0  0  0  0  0  0  0  0  0  0  0  0
    2.8660   -1.6255    0.0000 C   0  0  0  0  0  0  0  0  0  0  0  0
    9.0006    3.0411    0.0000 C   0  0  0  0  0  0  0  0  0  0  0  0
    2.8660   -3.6255    0.0000 C   0  0  0  0  0  0  0  0  0  0  0  0
    2.0000   -2.1255    0.0000 C   0  0  0  0  0  0  0  0  0  0  0  0
    2.0000   -3.1255    0.0000 C   0  0  0  0  0  0  0  0  0  0  0  0
    7.6344   -1.8218    0.0000 H   0  0  0  0  0  0  0  0  0  0  0  0
    8.2276   -1.2895    0.0000 H   0  0  0  0  0  0  0  0  0  0  0  0
    7.7830    0.8203    0.0000 H   0  0  0  0  0  0  0  0  0  0  0  0
    7.0254    1.0679    0.0000 H   0  0  0  0  0  0  0  0  0  0  0  0
    6.1089   -1.7360    0.0000 H   0  0  0  0  0  0  0  0  0  0  0  0
    6.8665   -1.9836    0.0000 H   0  0  0  0  0  0  0  0  0  0  0  0
    6.2575    0.9061    0.0000 H   0  0  0  0  0  0  0  0  0  0  0  0
    5.6643    0.3738    0.0000 H   0  0  0  0  0  0  0  0  0  0  0  0
    4.9684   -0.2506    0.0000 H   0  0  0  0  0  0  0  0  0  0  0  0
    4.3751   -0.7829    0.0000 H   0  0  0  0  0  0  0  0  0  0  0  0
    9.0028   -1.1690    0.0000 H   0  0  0  0  0  0  0  0  0  0  0  0
    7.8732    1.5873    0.0000 H   0  0  0  0  0  0  0  0  0  0  0  0
    9.7471   -0.5011    0.0000 H   0  0  0  0  0  0  0  0  0  0  0  0
    5.8819   -2.6255    0.0000 H   0  0  0  0  0  0  0  0  0  0  0  0
   10.9529    0.5808    0.0000 H   0  0  0  0  0  0  0  0  0  0  0  0
    4.8709   -4.0196    0.0000 H   0  0  0  0  0  0  0  0  0  0  0  0
   10.6188    2.1660    0.0000 H   0  0  0  0  0  0  0  0  0  0  0  0
    2.8660   -1.0055    0.0000 H   0  0  0  0  0  0  0  0  0  0  0  0
    2.8660   -4.2455    0.0000 H   0  0  0  0  0  0  0  0  0  0  0  0
    1.4631   -1.8155    0.0000 H   0  0  0  0  0  0  0  0  0  0  0  0
    1.4631   -3.4355    0.0000 H   0  0  0  0  0  0  0  0  0  0  0  0
  1 24  1  0  0  0  0
  2 24  1  0  0  0  0
  3 24  1  0  0  0  0
  4  7  1  0  0  0  0
  4 38  1  0  0  0  0
  5 10  1  0  0  0  0
  5 11  1  0  0  0  0
  5 13  1  0  0  0  0
  6 18  1  0  0  0  0
  6 20  1  0  0  0  0
  6 43  1  0  0  0  0
  7  8  1  0  0  0  0
  7  9  1  0  0  0  0
  7 12  1  0  0  0  0
  8 10  1  0  0  0  0
  8 28  1  0  0  0  0
  8 29  1  0  0  0  0
  9 11  1  0  0  0  0
  9 30  1  0  0  0  0
  9 31  1  0  0  0  0
 10 32  1  0  0  0  0
 10 33  1  0  0  0  0
 11 34  1  0  0  0  0
 11 35  1  0  0  0  0
 12 15  2  0  0  0  0
 12 16  1  0  0  0  0
 13 14  1  0  0  0  0
 13 36  1  0  0  0  0
 13 37  1  0  0  0  0
 14 17  1  0  0  0  0
 14 18  2  0  0  0  0
 15 19  1  0  0  0  0
 15 39  1  0  0  0  0
 16 21  2  0  0  0  0
 16 40  1  0  0  0  0
 17 20  1  0  0  0  0
 17 23  2  0  0  0  0
 18 41  1  0  0  0  0
 19 22  2  0  0  0  0
 19 24  1  0  0  0  0
 20 25  2  0  0  0  0
 21 22  1  0  0  0  0
 21 42  1  0  0  0  0
 22 44  1  0  0  0  0
 23 26  1  0  0  0  0
 23 45  1  0  0  0  0
 25 27  1  0  0  0  0
 25 46  1  0  0  0  0
 26 27  2  0  0  0  0
 26 47  1  0  0  0  0
 27 48  1  0  0  0  0
M  END
> <PUBCHEM_COMPOUND_CID>
44438203

> <PUBCHEM_COMPOUND_CANONICALIZED>
1

> <PUBCHEM_CACTVS_COMPLEXITY>
504

> <PUBCHEM_CACTVS_HBOND_ACCEPTOR>
5

> <PUBCHEM_CACTVS_HBOND_DONOR>
2

> <PUBCHEM_CACTVS_ROTATABLE_BOND>
3

> <PUBCHEM_CACTVS_SUBSKEYS>
AAADceB7IYAAAAAAAAAAAAAAAAAAAWAAAAA8YIAAAAAAAFgB9AAAHwAQCAAADEzBnhQ8wPPJkgCgAzRnRACCgCAxAiAI2aA4bJgIJuLA0ZGEcAhm0AHI2AeQwOAOgAACAAACAAAAAAQAAAQAAAAAAAAAAA==

> <PUBCHEM_IUPAC_OPENEYE_NAME>
1-(1H-indol-3-ylmethyl)-4-[3-(trifluoromethyl)phenyl]piperidin-4-ol

> <PUBCHEM_IUPAC_CAS_NAME>
1-(1H-indol-3-ylmethyl)-4-[3-(trifluoromethyl)phenyl]-4-piperidinol

> <PUBCHEM_IUPAC_NAME_MARKUP>
1-(1<I>H</I>-indol-3-ylmethyl)-4-[3-(trifluoromethyl)phenyl]piperidin-4-ol

> <PUBCHEM_IUPAC_NAME>
1-(1H-indol-3-ylmethyl)-4-[3-(trifluoromethyl)phenyl]piperidin-4-ol

> <PUBCHEM_IUPAC_SYSTEMATIC_NAME>
1-(1H-indol-3-ylmethyl)-4-[3-(trifluoromethyl)phenyl]piperidin-4-ol

> <PUBCHEM_IUPAC_TRADITIONAL_NAME>
1-(1H-indol-3-ylmethyl)-4-[3-(trifluoromethyl)phenyl]piperidin-4-ol

> <PUBCHEM_IUPAC_INCHI>
InChI=1S/C21H21F3N2O/c22-21(23,24)17-5-3-4-16(12-17)20(27)8-10-26(11-9-20)14-15-13-25-19-7-2-1-6-18(15)19/h1-7,12-13,25,27H,8-11,14H2

> <PUBCHEM_IUPAC_INCHIKEY>
NXIZGEWMXVGBLH-UHFFFAOYSA-N

> <PUBCHEM_XLOGP3_AA>
3.9

> <PUBCHEM_EXACT_MASS>
374.16059778

> <PUBCHEM_MOLECULAR_FORMULA>
C21H21F3N2O

> <PUBCHEM_MOLECULAR_WEIGHT>
374.4

> <PUBCHEM_OPENEYE_CAN_SMILES>
C1CN(CCC1(C2=CC(=CC=C2)C(F)(F)F)O)CC3=CNC4=CC=CC=C43

> <PUBCHEM_OPENEYE_ISO_SMILES>
C1CN(CCC1(C2=CC(=CC=C2)C(F)(F)F)O)CC3=CNC4=CC=CC=C43

> <PUBCHEM_CACTVS_TPSA>
39.3

> <PUBCHEM_MONOISOTOPIC_WEIGHT>
374.16059778

> <PUBCHEM_TOTAL_CHARGE>
0

> <PUBCHEM_HEAVY_ATOM_COUNT>
27

> <PUBCHEM_ATOM_DEF_STEREO_COUNT>
0

> <PUBCHEM_ATOM_UDEF_STEREO_COUNT>
0

> <PUBCHEM_BOND_DEF_STEREO_COUNT>
0

> <PUBCHEM_BOND_UDEF_STEREO_COUNT>
0

> <PUBCHEM_ISOTOPIC_ATOM_COUNT>
0

> <PUBCHEM_COMPONENT_COUNT>
1

> <PUBCHEM_CACTVS_TAUTO_COUNT>
-1

> <PUBCHEM_COORDINATE_TYPE>
1
5
255

> <PUBCHEM_BONDANNOTATIONS>
12  15  8
12  16  8
14  17  8
14  18  8
15  19  8
16  21  8
17  20  8
17  23  8
19  22  8
20  25  8
21  22  8
23  26  8
25  27  8
26  27  8
6  18  8
6  20  8

$$$$
