56944955
  -OEChem-09292322392D

 56 60  0     1  0  0  0  0  0999 V2000
    5.1132   -5.4812    0.0000 Cl  0  0  0  0  0  0  0  0  0  0  0  0
    8.5214    2.4466    0.0000 S   0  0  0  0  0  0  0  0  0  0  0  0
    7.5214    2.4466    0.0000 O   0  0  0  0  0  0  0  0  0  0  0  0
    9.5214    2.4466    0.0000 O   0  0  0  0  0  0  0  0  0  0  0  0
    6.7893   -0.5534    0.0000 N   0  0  3  0  0  0  0  0  0  0  0  0
    8.5214    1.4466    0.0000 N   0  0  0  0  0  0  0  0  0  0  0  0
    2.6164   -2.3853    0.0000 N   0  0  0  0  0  0  0  0  0  0  0  0
    5.9233   -0.0534    0.0000 C   0  0  0  0  0  0  0  0  0  0  0  0
    5.0573   -0.5534    0.0000 C   0  0  0  0  0  0  0  0  0  0  0  0
    6.7893   -1.5534    0.0000 C   0  0  0  0  0  0  0  0  0  0  0  0
    5.0573   -1.5534    0.0000 C   0  0  0  0  0  0  0  0  0  0  0  0
    7.6554   -0.0534    0.0000 C   0  0  0  0  0  0  0  0  0  0  0  0
    5.9233   -2.0534    0.0000 C   0  0  0  0  0  0  0  0  0  0  0  0
    4.1912   -2.0534    0.0000 C   0  0  0  0  0  0  0  0  0  0  0  0
    7.6554    0.9466    0.0000 C   0  0  0  0  0  0  0  0  0  0  0  0
    4.0882   -3.0421    0.0000 C   0  0  0  0  0  0  0  0  0  0  0  0
    3.2835   -1.6483    0.0000 C   0  0  0  0  0  0  0  0  0  0  0  0
    3.1097   -3.2484    0.0000 C   0  0  0  0  0  0  0  0  0  0  0  0
    8.5214    3.4466    0.0000 C   0  0  0  0  0  0  0  0  0  0  0  0
    4.7560   -3.7864    0.0000 C   0  0  0  0  0  0  0  0  0  0  0  0
    2.7990   -4.1989    0.0000 C   0  0  0  0  0  0  0  0  0  0  0  0
    9.3874    3.9466    0.0000 C   0  0  0  0  0  0  0  0  0  0  0  0
    4.4454   -4.7370    0.0000 C   0  0  0  0  0  0  0  0  0  0  0  0
    9.3874    4.9466    0.0000 C   0  0  0  0  0  0  0  0  0  0  0  0
    3.4669   -4.9432    0.0000 C   0  0  0  0  0  0  0  0  0  0  0  0
    7.6554    3.9466    0.0000 C   0  0  0  0  0  0  0  0  0  0  0  0
   10.2813    3.4119    0.0000 C   0  0  0  0  0  0  0  0  0  0  0  0
    8.5214    5.4466    0.0000 C   0  0  0  0  0  0  0  0  0  0  0  0
    7.6554    4.9466    0.0000 C   0  0  0  0  0  0  0  0  0  0  0  0
   10.2813    5.4812    0.0000 C   0  0  0  0  0  0  0  0  0  0  0  0
   11.1874    3.9258    0.0000 C   0  0  0  0  0  0  0  0  0  0  0  0
   11.1874    4.9674    0.0000 C   0  0  0  0  0  0  0  0  0  0  0  0
    6.3218    0.4215    0.0000 H   0  0  0  0  0  0  0  0  0  0  0  0
    5.5248    0.4215    0.0000 H   0  0  0  0  0  0  0  0  0  0  0  0
    4.8452    0.0292    0.0000 H   0  0  0  0  0  0  0  0  0  0  0  0
    4.4467   -0.6611    0.0000 H   0  0  0  0  0  0  0  0  0  0  0  0
    7.0014   -2.1360    0.0000 H   0  0  0  0  0  0  0  0  0  0  0  0
    7.3999   -1.4458    0.0000 H   0  0  0  0  0  0  0  0  0  0  0  0
    7.8674   -0.6360    0.0000 H   0  0  0  0  0  0  0  0  0  0  0  0
    8.2659    0.0543    0.0000 H   0  0  0  0  0  0  0  0  0  0  0  0
    5.9233   -2.6734    0.0000 H   0  0  0  0  0  0  0  0  0  0  0  0
    7.4433    1.5292    0.0000 H   0  0  0  0  0  0  0  0  0  0  0  0
    7.0448    0.8389    0.0000 H   0  0  0  0  0  0  0  0  0  0  0  0
    3.1556   -1.0416    0.0000 H   0  0  0  0  0  0  0  0  0  0  0  0
    9.0583    1.1366    0.0000 H   0  0  0  0  0  0  0  0  0  0  0  0
    2.0000   -2.3184    0.0000 H   0  0  0  0  0  0  0  0  0  0  0  0
    5.3627   -3.6586    0.0000 H   0  0  0  0  0  0  0  0  0  0  0  0
    2.1923   -4.3267    0.0000 H   0  0  0  0  0  0  0  0  0  0  0  0
    7.1184    3.6366    0.0000 H   0  0  0  0  0  0  0  0  0  0  0  0
    3.2743   -5.5325    0.0000 H   0  0  0  0  0  0  0  0  0  0  0  0
   10.2742    2.7920    0.0000 H   0  0  0  0  0  0  0  0  0  0  0  0
    8.5214    6.0666    0.0000 H   0  0  0  0  0  0  0  0  0  0  0  0
    7.1184    5.2566    0.0000 H   0  0  0  0  0  0  0  0  0  0  0  0
   10.2742    6.1012    0.0000 H   0  0  0  0  0  0  0  0  0  0  0  0
   11.7231    3.6137    0.0000 H   0  0  0  0  0  0  0  0  0  0  0  0
   11.7231    5.2795    0.0000 H   0  0  0  0  0  0  0  0  0  0  0  0
  1 23  1  0  0  0  0
  2  3  2  0  0  0  0
  2  4  2  0  0  0  0
  2  6  1  0  0  0  0
  2 19  1  0  0  0  0
  5  8  1  0  0  0  0
  5 10  1  0  0  0  0
  5 12  1  0  0  0  0
  6 15  1  0  0  0  0
  6 45  1  0  0  0  0
  7 17  1  0  0  0  0
  7 18  1  0  0  0  0
  7 46  1  0  0  0  0
  8  9  1  0  0  0  0
  8 33  1  0  0  0  0
  8 34  1  0  0  0  0
  9 11  1  0  0  0  0
  9 35  1  0  0  0  0
  9 36  1  0  0  0  0
 10 13  1  0  0  0  0
 10 37  1  0  0  0  0
 10 38  1  0  0  0  0
 11 13  2  0  0  0  0
 11 14  1  0  0  0  0
 12 15  1  0  0  0  0
 12 39  1  0  0  0  0
 12 40  1  0  0  0  0
 13 41  1  0  0  0  0
 14 16  1  0  0  0  0
 14 17  2  0  0  0  0
 15 42  1  0  0  0  0
 15 43  1  0  0  0  0
 16 18  2  0  0  0  0
 16 20  1  0  0  0  0
 17 44  1  0  0  0  0
 18 21  1  0  0  0  0
 19 22  1  0  0  0  0
 19 26  2  0  0  0  0
 20 23  2  0  0  0  0
 20 47  1  0  0  0  0
 21 25  2  0  0  0  0
 21 48  1  0  0  0  0
 22 24  1  0  0  0  0
 22 27  2  0  0  0  0
 23 25  1  0  0  0  0
 24 28  1  0  0  0  0
 24 30  2  0  0  0  0
 25 50  1  0  0  0  0
 26 29  1  0  0  0  0
 26 49  1  0  0  0  0
 27 31  1  0  0  0  0
 27 51  1  0  0  0  0
 28 29  2  0  0  0  0
 28 52  1  0  0  0  0
 29 53  1  0  0  0  0
 30 32  1  0  0  0  0
 30 54  1  0  0  0  0
 31 32  2  0  0  0  0
 31 55  1  0  0  0  0
 32 56  1  0  0  0  0
M  END
> <PUBCHEM_COMPOUND_CID>
56944955

> <PUBCHEM_COMPOUND_CANONICALIZED>
1

> <PUBCHEM_CACTVS_COMPLEXITY>
783

> <PUBCHEM_CACTVS_HBOND_ACCEPTOR>
4

> <PUBCHEM_CACTVS_HBOND_DONOR>
2

> <PUBCHEM_CACTVS_ROTATABLE_BOND>
6

> <PUBCHEM_CACTVS_SUBSKEYS>
AAADceB7MABEAAAAAAAAAAAAAAAAAWAAAAAwYMEAAAAAAFjB9AAAHAYQQAAADArBXiQ8wfPJkAKgAzRnRHDCgDAxByAI2bg4ZpgIYOLBk5GUIAhgkADIyAcQgMAOgABAoAAWAAAAAIFAACwAAAAAAAAAAA==

> <PUBCHEM_IUPAC_OPENEYE_NAME>
N-[2-[4-(5-chloro-1H-indol-3-yl)-3,6-dihydro-2H-pyridin-1-yl]ethyl]naphthalene-1-sulfonamide

> <PUBCHEM_IUPAC_CAS_NAME>
N-[2-[4-(5-chloro-1H-indol-3-yl)-3,6-dihydro-2H-pyridin-1-yl]ethyl]-1-naphthalenesulfonamide

> <PUBCHEM_IUPAC_NAME_MARKUP>
<I>N</I>-[2-[4-(5-chloro-1<I>H</I>-indol-3-yl)-3,6-dihydro-2<I>H</I>-pyridin-1-yl]ethyl]naphthalene-1-sulfonamide

> <PUBCHEM_IUPAC_NAME>
N-[2-[4-(5-chloro-1H-indol-3-yl)-3,6-dihydro-2H-pyridin-1-yl]ethyl]naphthalene-1-sulfonamide

> <PUBCHEM_IUPAC_SYSTEMATIC_NAME>
N-[2-[4-(5-chloranyl-1H-indol-3-yl)-3,6-dihydro-2H-pyridin-1-yl]ethyl]naphthalene-1-sulfonamide

> <PUBCHEM_IUPAC_TRADITIONAL_NAME>
N-[2-[4-(5-chloro-1H-indol-3-yl)-3,6-dihydro-2H-pyridin-1-yl]ethyl]naphthalene-1-sulfonamide

> <PUBCHEM_IUPAC_INCHI>
InChI=1S/C25H24ClN3O2S/c26-20-8-9-24-22(16-20)23(17-27-24)19-10-13-29(14-11-19)15-12-28-32(30,31)25-7-3-5-18-4-1-2-6-21(18)25/h1-10,16-17,27-28H,11-15H2

> <PUBCHEM_IUPAC_INCHIKEY>
UEDMFDWWGVDRAR-UHFFFAOYSA-N

> <PUBCHEM_XLOGP3_AA>
4.8

> <PUBCHEM_EXACT_MASS>
465.1277759

> <PUBCHEM_MOLECULAR_FORMULA>
C25H24ClN3O2S

> <PUBCHEM_MOLECULAR_WEIGHT>
466.0

> <PUBCHEM_OPENEYE_CAN_SMILES>
C1CN(CC=C1C2=CNC3=C2C=C(C=C3)Cl)CCNS(=O)(=O)C4=CC=CC5=CC=CC=C54

> <PUBCHEM_OPENEYE_ISO_SMILES>
C1CN(CC=C1C2=CNC3=C2C=C(C=C3)Cl)CCNS(=O)(=O)C4=CC=CC5=CC=CC=C54

> <PUBCHEM_CACTVS_TPSA>
73.6

> <PUBCHEM_MONOISOTOPIC_WEIGHT>
465.1277759

> <PUBCHEM_TOTAL_CHARGE>
0

> <PUBCHEM_HEAVY_ATOM_COUNT>
32

> <PUBCHEM_ATOM_DEF_STEREO_COUNT>
0

> <PUBCHEM_ATOM_UDEF_STEREO_COUNT>
0

> <PUBCHEM_BOND_DEF_STEREO_COUNT>
0

> <PUBCHEM_BOND_UDEF_STEREO_COUNT>
0

> <PUBCHEM_ISOTOPIC_ATOM_COUNT>
0

> <PUBCHEM_COMPONENT_COUNT>
1

> <PUBCHEM_CACTVS_TAUTO_COUNT>
-1

> <PUBCHEM_COORDINATE_TYPE>
1
5
255

> <PUBCHEM_BONDANNOTATIONS>
14  16  8
14  17  8
16  18  8
16  20  8
18  21  8
19  22  8
19  26  8
20  23  8
21  25  8
22  24  8
22  27  8
23  25  8
24  28  8
24  30  8
26  29  8
27  31  8
28  29  8
30  32  8
31  32  8
7  17  8
7  18  8

$$$$
