42605994
  -OEChem-09292322482D

 46 48  0     0  0  0  0  0  0999 V2000
    2.0933   -4.1070    0.0000 Br  0  0  0  0  0  0  0  0  0  0  0  0
    2.6691   -1.5843    0.0000 S   0  0  0  0  0  0  0  0  0  0  0  0
    3.9487    2.3750    0.0000 F   0  0  0  0  0  0  0  0  0  0  0  0
    5.3147   -1.9910    0.0000 O   0  0  0  0  0  0  0  0  0  0  0  0
    4.4487   -0.4910    0.0000 N   0  0  0  0  0  0  0  0  0  0  0  0
    5.9487    2.3750    0.0000 N   0  0  0  0  0  0  0  0  0  0  0  0
    7.9487    4.1070    0.0000 N   0  0  0  0  0  0  0  0  0  0  0  0
    4.4487    1.5090    0.0000 C   0  0  0  0  0  0  0  0  0  0  0  0
    3.5827    1.0090    0.0000 C   0  0  0  0  0  0  0  0  0  0  0  0
    5.3147    1.0090    0.0000 C   0  0  0  0  0  0  0  0  0  0  0  0
    3.5827    0.0090    0.0000 C   0  0  0  0  0  0  0  0  0  0  0  0
    5.3147    0.0090    0.0000 C   0  0  0  0  0  0  0  0  0  0  0  0
    4.9487    2.3750    0.0000 C   0  0  0  0  0  0  0  0  0  0  0  0
    4.4487   -1.4910    0.0000 C   0  0  0  0  0  0  0  0  0  0  0  0
    6.4487    3.2410    0.0000 C   0  0  0  0  0  0  0  0  0  0  0  0
    3.5827   -1.9910    0.0000 C   0  0  0  0  0  0  0  0  0  0  0  0
    7.4487    3.2410    0.0000 C   0  0  0  0  0  0  0  0  0  0  0  0
    3.4782   -2.9856    0.0000 C   0  0  0  0  0  0  0  0  0  0  0  0
    7.9487    2.3750    0.0000 C   0  0  0  0  0  0  0  0  0  0  0  0
    2.5000   -3.1935    0.0000 C   0  0  0  0  0  0  0  0  0  0  0  0
    2.0000   -2.3275    0.0000 C   0  0  0  0  0  0  0  0  0  0  0  0
    8.9487    2.3750    0.0000 C   0  0  0  0  0  0  0  0  0  0  0  0
    9.4487    3.2410    0.0000 C   0  0  0  0  0  0  0  0  0  0  0  0
    8.9487    4.1070    0.0000 C   0  0  0  0  0  0  0  0  0  0  0  0
   10.4487    3.2410    0.0000 C   0  0  0  0  0  0  0  0  0  0  0  0
    3.3706    1.5916    0.0000 H   0  0  0  0  0  0  0  0  0  0  0  0
    2.9721    0.9013    0.0000 H   0  0  0  0  0  0  0  0  0  0  0  0
    5.9253    0.9013    0.0000 H   0  0  0  0  0  0  0  0  0  0  0  0
    5.5268    1.5916    0.0000 H   0  0  0  0  0  0  0  0  0  0  0  0
    2.9721    0.1166    0.0000 H   0  0  0  0  0  0  0  0  0  0  0  0
    3.3706   -0.5737    0.0000 H   0  0  0  0  0  0  0  0  0  0  0  0
    5.5268   -0.5737    0.0000 H   0  0  0  0  0  0  0  0  0  0  0  0
    5.9253    0.1166    0.0000 H   0  0  0  0  0  0  0  0  0  0  0  0
    5.0564    2.9856    0.0000 H   0  0  0  0  0  0  0  0  0  0  0  0
    4.3661    2.5870    0.0000 H   0  0  0  0  0  0  0  0  0  0  0  0
    6.2587    1.8380    0.0000 H   0  0  0  0  0  0  0  0  0  0  0  0
    6.5564    3.8516    0.0000 H   0  0  0  0  0  0  0  0  0  0  0  0
    5.8661    3.4530    0.0000 H   0  0  0  0  0  0  0  0  0  0  0  0
    3.9389   -3.4004    0.0000 H   0  0  0  0  0  0  0  0  0  0  0  0
    7.6387    1.8380    0.0000 H   0  0  0  0  0  0  0  0  0  0  0  0
    1.3834   -2.2626    0.0000 H   0  0  0  0  0  0  0  0  0  0  0  0
    9.2587    1.8380    0.0000 H   0  0  0  0  0  0  0  0  0  0  0  0
    9.2587    4.6440    0.0000 H   0  0  0  0  0  0  0  0  0  0  0  0
   10.4487    2.6210    0.0000 H   0  0  0  0  0  0  0  0  0  0  0  0
   11.0687    3.2410    0.0000 H   0  0  0  0  0  0  0  0  0  0  0  0
   10.4487    3.8610    0.0000 H   0  0  0  0  0  0  0  0  0  0  0  0
  1 20  1  0  0  0  0
  2 16  1  0  0  0  0
  2 21  1  0  0  0  0
  3  8  1  0  0  0  0
  4 14  2  0  0  0  0
  5 11  1  0  0  0  0
  5 12  1  0  0  0  0
  5 14  1  0  0  0  0
  6 13  1  0  0  0  0
  6 15  1  0  0  0  0
  6 36  1  0  0  0  0
  7 17  2  0  0  0  0
  7 24  1  0  0  0  0
  8  9  1  0  0  0  0
  8 10  1  0  0  0  0
  8 13  1  0  0  0  0
  9 11  1  0  0  0  0
  9 26  1  0  0  0  0
  9 27  1  0  0  0  0
 10 12  1  0  0  0  0
 10 28  1  0  0  0  0
 10 29  1  0  0  0  0
 11 30  1  0  0  0  0
 11 31  1  0  0  0  0
 12 32  1  0  0  0  0
 12 33  1  0  0  0  0
 13 34  1  0  0  0  0
 13 35  1  0  0  0  0
 14 16  1  0  0  0  0
 15 17  1  0  0  0  0
 15 37  1  0  0  0  0
 15 38  1  0  0  0  0
 16 18  2  0  0  0  0
 17 19  1  0  0  0  0
 18 20  1  0  0  0  0
 18 39  1  0  0  0  0
 19 22  2  0  0  0  0
 19 40  1  0  0  0  0
 20 21  2  0  0  0  0
 21 41  1  0  0  0  0
 22 23  1  0  0  0  0
 22 42  1  0  0  0  0
 23 24  2  0  0  0  0
 23 25  1  0  0  0  0
 24 43  1  0  0  0  0
 25 44  1  0  0  0  0
 25 45  1  0  0  0  0
 25 46  1  0  0  0  0
M  END
> <PUBCHEM_COMPOUND_CID>
42605994

> <PUBCHEM_COMPOUND_CANONICALIZED>
1

> <PUBCHEM_CACTVS_COMPLEXITY>
462

> <PUBCHEM_CACTVS_HBOND_ACCEPTOR>
5

> <PUBCHEM_CACTVS_HBOND_DONOR>
1

> <PUBCHEM_CACTVS_ROTATABLE_BOND>
5

> <PUBCHEM_CACTVS_SUBSKEYS>
AAADceB7IQBAEAAAAAAAAAAAAAAAASAAAAAsWAAAAAAAAAAB4AAAHwRQAAABrAjF3gS+gZPIEAisAzV3VACDgKA1CjRI2Lk4ZPgIYPLglZGUIQhghgDoy4cYAAAOAAAAAAAAAAAAAAAAAAAAAAAAAAAAAA==

> <PUBCHEM_IUPAC_OPENEYE_NAME>
(4-bromo-2-thienyl)-[4-fluoro-4-[[(5-methyl-2-pyridyl)methylamino]methyl]-1-piperidyl]methanone

> <PUBCHEM_IUPAC_CAS_NAME>
(4-bromo-2-thiophenyl)-[4-fluoro-4-[[(5-methyl-2-pyridinyl)methylamino]methyl]-1-piperidinyl]methanone

> <PUBCHEM_IUPAC_NAME_MARKUP>
(4-bromothiophen-2-yl)-[4-fluoro-4-[[(5-methylpyridin-2-yl)methylamino]methyl]piperidin-1-yl]methanone

> <PUBCHEM_IUPAC_NAME>
(4-bromothiophen-2-yl)-[4-fluoro-4-[[(5-methylpyridin-2-yl)methylamino]methyl]piperidin-1-yl]methanone

> <PUBCHEM_IUPAC_SYSTEMATIC_NAME>
(4-bromanylthiophen-2-yl)-[4-fluoranyl-4-[[(5-methylpyridin-2-yl)methylamino]methyl]piperidin-1-yl]methanone

> <PUBCHEM_IUPAC_TRADITIONAL_NAME>
(4-bromo-2-thienyl)-[4-fluoro-4-[[(5-methyl-2-pyridyl)methylamino]methyl]piperidino]methanone

> <PUBCHEM_IUPAC_INCHI>
InChI=1S/C18H21BrFN3OS/c1-13-2-3-15(22-9-13)10-21-12-18(20)4-6-23(7-5-18)17(24)16-8-14(19)11-25-16/h2-3,8-9,11,21H,4-7,10,12H2,1H3

> <PUBCHEM_IUPAC_INCHIKEY>
VSVDMIMYERSROL-UHFFFAOYSA-N

> <PUBCHEM_XLOGP3_AA>
3.2

> <PUBCHEM_EXACT_MASS>
425.05727

> <PUBCHEM_MOLECULAR_FORMULA>
C18H21BrFN3OS

> <PUBCHEM_MOLECULAR_WEIGHT>
426.3

> <PUBCHEM_OPENEYE_CAN_SMILES>
CC1=CN=C(C=C1)CNCC2(CCN(CC2)C(=O)C3=CC(=CS3)Br)F

> <PUBCHEM_OPENEYE_ISO_SMILES>
CC1=CN=C(C=C1)CNCC2(CCN(CC2)C(=O)C3=CC(=CS3)Br)F

> <PUBCHEM_CACTVS_TPSA>
73.5

> <PUBCHEM_MONOISOTOPIC_WEIGHT>
425.05727

> <PUBCHEM_TOTAL_CHARGE>
0

> <PUBCHEM_HEAVY_ATOM_COUNT>
25

> <PUBCHEM_ATOM_DEF_STEREO_COUNT>
0

> <PUBCHEM_ATOM_UDEF_STEREO_COUNT>
0

> <PUBCHEM_BOND_DEF_STEREO_COUNT>
0

> <PUBCHEM_BOND_UDEF_STEREO_COUNT>
0

> <PUBCHEM_ISOTOPIC_ATOM_COUNT>
0

> <PUBCHEM_COMPONENT_COUNT>
1

> <PUBCHEM_CACTVS_TAUTO_COUNT>
-1

> <PUBCHEM_COORDINATE_TYPE>
1
5
255

> <PUBCHEM_BONDANNOTATIONS>
16  18  8
17  19  8
18  20  8
19  22  8
2  16  8
2  21  8
20  21  8
22  23  8
23  24  8
7  17  8
7  24  8

$$$$
