57326593
  -OEChem-09292322052D

114121  0     0  0  0  0  0  0999 V2000
    7.1076   -7.0770    0.0000 Cl  0  0  0  0  0  0  0  0  0  0  0  0
    8.7204    7.0770    0.0000 Cl  0  0  0  0  0  0  0  0  0  0  0  0
    9.2130   -4.7500    0.0000 O   0  0  0  0  0  0  0  0  0  0  0  0
    6.6150    4.7500    0.0000 O   0  0  0  0  0  0  0  0  0  0  0  0
    8.3470   -1.2500    0.0000 O   0  0  0  0  0  0  0  0  0  0  0  0
    7.4810    1.2500    0.0000 O   0  0  0  0  0  0  0  0  0  0  0  0
   10.0791   -1.2500    0.0000 O   0  0  0  0  0  0  0  0  0  0  0  0
    5.7490    1.2500    0.0000 O   0  0  0  0  0  0  0  0  0  0  0  0
   11.8789   -8.8416    0.0000 N   0  0  0  0  0  0  0  0  0  0  0  0
    3.9491    8.8416    0.0000 N   0  0  0  0  0  0  0  0  0  0  0  0
   12.7467  -10.6436    0.0000 N   0  0  0  0  0  0  0  0  0  0  0  0
    3.0814   10.6436    0.0000 N   0  0  0  0  0  0  0  0  0  0  0  0
   10.4451   -7.9407    0.0000 N   0  0  0  0  0  0  0  0  0  0  0  0
    5.3830    7.9407    0.0000 N   0  0  0  0  0  0  0  0  0  0  0  0
   10.9451   -5.7500    0.0000 N   0  0  0  0  0  0  0  0  0  0  0  0
    4.8830    5.7500    0.0000 N   0  0  0  0  0  0  0  0  0  0  0  0
   10.9451   -4.7500    0.0000 N   0  0  0  0  0  0  0  0  0  0  0  0
    4.8830    4.7500    0.0000 N   0  0  0  0  0  0  0  0  0  0  0  0
   11.3156   -9.6679    0.0000 C   0  0  0  0  0  0  0  0  0  0  0  0
   12.8761   -8.9164    0.0000 C   0  0  0  0  0  0  0  0  0  0  0  0
    4.5125    9.6679    0.0000 C   0  0  0  0  0  0  0  0  0  0  0  0
    2.9519    8.9164    0.0000 C   0  0  0  0  0  0  0  0  0  0  0  0
   11.7495  -10.5688    0.0000 C   0  0  0  0  0  0  0  0  0  0  0  0
   13.3100   -9.8174    0.0000 C   0  0  0  0  0  0  0  0  0  0  0  0
    4.0786   10.5688    0.0000 C   0  0  0  0  0  0  0  0  0  0  0  0
    2.5180    9.8174    0.0000 C   0  0  0  0  0  0  0  0  0  0  0  0
   11.4451   -7.9407    0.0000 C   0  0  0  0  0  0  0  0  0  0  0  0
    4.3830    7.9407    0.0000 C   0  0  0  0  0  0  0  0  0  0  0  0
   13.1806  -11.5446    0.0000 C   0  0  0  0  0  0  0  0  0  0  0  0
    2.6475   11.5446    0.0000 C   0  0  0  0  0  0  0  0  0  0  0  0
   12.0686   -7.1588    0.0000 C   0  0  0  0  0  0  0  0  0  0  0  0
    3.7595    7.1588    0.0000 C   0  0  0  0  0  0  0  0  0  0  0  0
   11.8461   -6.1839    0.0000 C   0  0  0  0  0  0  0  0  0  0  0  0
    3.9820    6.1839    0.0000 C   0  0  0  0  0  0  0  0  0  0  0  0
    9.8216   -7.1588    0.0000 C   0  0  0  0  0  0  0  0  0  0  0  0
    6.0065    7.1588    0.0000 C   0  0  0  0  0  0  0  0  0  0  0  0
   10.0441   -6.1839    0.0000 C   0  0  0  0  0  0  0  0  0  0  0  0
    5.7840    6.1839    0.0000 C   0  0  0  0  0  0  0  0  0  0  0  0
   13.0591   -7.4812    0.0000 C   0  0  0  0  0  0  0  0  0  0  0  0
    2.7690    7.4812    0.0000 C   0  0  0  0  0  0  0  0  0  0  0  0
   12.5986   -5.4637    0.0000 C   0  0  0  0  0  0  0  0  0  0  0  0
    3.2295    5.4637    0.0000 C   0  0  0  0  0  0  0  0  0  0  0  0
   13.8281   -6.7786    0.0000 C   0  0  0  0  0  0  0  0  0  0  0  0
    2.0000    6.7786    0.0000 C   0  0  0  0  0  0  0  0  0  0  0  0
   13.5963   -5.7631    0.0000 C   0  0  0  0  0  0  0  0  0  0  0  0
    2.2318    5.7631    0.0000 C   0  0  0  0  0  0  0  0  0  0  0  0
    8.8311   -7.4812    0.0000 C   0  0  0  0  0  0  0  0  0  0  0  0
    6.9970    7.4812    0.0000 C   0  0  0  0  0  0  0  0  0  0  0  0
    9.2916   -5.4637    0.0000 C   0  0  0  0  0  0  0  0  0  0  0  0
    6.5365    5.4637    0.0000 C   0  0  0  0  0  0  0  0  0  0  0  0
    8.0621   -6.7786    0.0000 C   0  0  0  0  0  0  0  0  0  0  0  0
    7.7660    6.7786    0.0000 C   0  0  0  0  0  0  0  0  0  0  0  0
    8.2939   -5.7630    0.0000 C   0  0  0  0  0  0  0  0  0  0  0  0
    7.5342    5.7630    0.0000 C   0  0  0  0  0  0  0  0  0  0  0  0
   10.0791   -4.2500    0.0000 C   0  0  0  0  0  0  0  0  0  0  0  0
    5.7490    4.2500    0.0000 C   0  0  0  0  0  0  0  0  0  0  0  0
   10.0791   -3.2500    0.0000 C   0  0  0  0  0  0  0  0  0  0  0  0
    5.7490    3.2500    0.0000 C   0  0  0  0  0  0  0  0  0  0  0  0
    9.2131   -2.7500    0.0000 C   0  0  0  0  0  0  0  0  0  0  0  0
    6.6150    2.7500    0.0000 C   0  0  0  0  0  0  0  0  0  0  0  0
    9.2131   -1.7500    0.0000 C   0  0  0  0  0  0  0  0  0  0  0  0
    6.6150    1.7500    0.0000 C   0  0  0  0  0  0  0  0  0  0  0  0
    8.3470   -0.2500    0.0000 C   0  0  0  0  0  0  0  0  0  0  0  0
    7.4810    0.2500    0.0000 C   0  0  0  0  0  0  0  0  0  0  0  0
   10.8718   -9.2350    0.0000 H   0  0  0  0  0  0  0  0  0  0  0  0
   10.8122  -10.0298    0.0000 H   0  0  0  0  0  0  0  0  0  0  0  0
   13.4730   -8.7485    0.0000 H   0  0  0  0  0  0  0  0  0  0  0  0
   12.8144   -8.2995    0.0000 H   0  0  0  0  0  0  0  0  0  0  0  0
    4.9563    9.2350    0.0000 H   0  0  0  0  0  0  0  0  0  0  0  0
    5.0159   10.0298    0.0000 H   0  0  0  0  0  0  0  0  0  0  0  0
    2.3551    8.7485    0.0000 H   0  0  0  0  0  0  0  0  0  0  0  0
    3.0137    8.2995    0.0000 H   0  0  0  0  0  0  0  0  0  0  0  0
   11.1527  -10.7368    0.0000 H   0  0  0  0  0  0  0  0  0  0  0  0
   11.8112  -11.1858    0.0000 H   0  0  0  0  0  0  0  0  0  0  0  0
   13.7539  -10.2503    0.0000 H   0  0  0  0  0  0  0  0  0  0  0  0
   13.8134   -9.4554    0.0000 H   0  0  0  0  0  0  0  0  0  0  0  0
    4.6754   10.7368    0.0000 H   0  0  0  0  0  0  0  0  0  0  0  0
    4.0168   11.1858    0.0000 H   0  0  0  0  0  0  0  0  0  0  0  0
    2.0742   10.2503    0.0000 H   0  0  0  0  0  0  0  0  0  0  0  0
    2.0146    9.4554    0.0000 H   0  0  0  0  0  0  0  0  0  0  0  0
   12.6220  -11.8136    0.0000 H   0  0  0  0  0  0  0  0  0  0  0  0
   13.4496  -12.1032    0.0000 H   0  0  0  0  0  0  0  0  0  0  0  0
   13.7392  -11.2756    0.0000 H   0  0  0  0  0  0  0  0  0  0  0  0
    3.2061   11.8136    0.0000 H   0  0  0  0  0  0  0  0  0  0  0  0
    2.3785   12.1032    0.0000 H   0  0  0  0  0  0  0  0  0  0  0  0
    2.0889   11.2756    0.0000 H   0  0  0  0  0  0  0  0  0  0  0  0
   13.1900   -8.0872    0.0000 H   0  0  0  0  0  0  0  0  0  0  0  0
    2.6380    8.0872    0.0000 H   0  0  0  0  0  0  0  0  0  0  0  0
   12.4537   -4.8609    0.0000 H   0  0  0  0  0  0  0  0  0  0  0  0
    3.3744    4.8609    0.0000 H   0  0  0  0  0  0  0  0  0  0  0  0
   14.4198   -6.9636    0.0000 H   0  0  0  0  0  0  0  0  0  0  0  0
    1.4083    6.9636    0.0000 H   0  0  0  0  0  0  0  0  0  0  0  0
   14.0492   -5.3396    0.0000 H   0  0  0  0  0  0  0  0  0  0  0  0
    1.7789    5.3396    0.0000 H   0  0  0  0  0  0  0  0  0  0  0  0
   11.4820   -4.4400    0.0000 H   0  0  0  0  0  0  0  0  0  0  0  0
    4.3460    4.4400    0.0000 H   0  0  0  0  0  0  0  0  0  0  0  0
    8.7001   -8.0872    0.0000 H   0  0  0  0  0  0  0  0  0  0  0  0
    7.1280    8.0872    0.0000 H   0  0  0  0  0  0  0  0  0  0  0  0
    9.4365   -4.8609    0.0000 H   0  0  0  0  0  0  0  0  0  0  0  0
    6.3916    4.8609    0.0000 H   0  0  0  0  0  0  0  0  0  0  0  0
    7.8410   -5.3396    0.0000 H   0  0  0  0  0  0  0  0  0  0  0  0
    7.9871    5.3396    0.0000 H   0  0  0  0  0  0  0  0  0  0  0  0
   10.6897   -3.3577    0.0000 H   0  0  0  0  0  0  0  0  0  0  0  0
   10.2911   -2.6674    0.0000 H   0  0  0  0  0  0  0  0  0  0  0  0
    5.1384    3.3577    0.0000 H   0  0  0  0  0  0  0  0  0  0  0  0
    5.5369    2.6674    0.0000 H   0  0  0  0  0  0  0  0  0  0  0  0
    8.6025   -2.6423    0.0000 H   0  0  0  0  0  0  0  0  0  0  0  0
    9.0010   -3.3326    0.0000 H   0  0  0  0  0  0  0  0  0  0  0  0
    7.2256    2.6423    0.0000 H   0  0  0  0  0  0  0  0  0  0  0  0
    6.8271    3.3326    0.0000 H   0  0  0  0  0  0  0  0  0  0  0  0
    8.9576   -0.3577    0.0000 H   0  0  0  0  0  0  0  0  0  0  0  0
    8.5591    0.3326    0.0000 H   0  0  0  0  0  0  0  0  0  0  0  0
    6.8704    0.3577    0.0000 H   0  0  0  0  0  0  0  0  0  0  0  0
    7.2690   -0.3326    0.0000 H   0  0  0  0  0  0  0  0  0  0  0  0
  1 51  1  0  0  0  0
  2 52  1  0  0  0  0
  3 55  2  0  0  0  0
  4 56  2  0  0  0  0
  5 61  1  0  0  0  0
  5 63  1  0  0  0  0
  6 62  1  0  0  0  0
  6 64  1  0  0  0  0
  7 61  2  0  0  0  0
  8 62  2  0  0  0  0
  9 19  1  0  0  0  0
  9 20  1  0  0  0  0
  9 27  1  0  0  0  0
 10 21  1  0  0  0  0
 10 22  1  0  0  0  0
 10 28  1  0  0  0  0
 11 23  1  0  0  0  0
 11 24  1  0  0  0  0
 11 29  1  0  0  0  0
 12 25  1  0  0  0  0
 12 26  1  0  0  0  0
 12 30  1  0  0  0  0
 13 27  2  0  0  0  0
 13 35  1  0  0  0  0
 14 28  2  0  0  0  0
 14 36  1  0  0  0  0
 15 17  1  0  0  0  0
 15 33  1  0  0  0  0
 15 37  1  0  0  0  0
 16 18  1  0  0  0  0
 16 34  1  0  0  0  0
 16 38  1  0  0  0  0
 17 55  1  0  0  0  0
 17 95  1  0  0  0  0
 18 56  1  0  0  0  0
 18 96  1  0  0  0  0
 19 23  1  0  0  0  0
 19 65  1  0  0  0  0
 19 66  1  0  0  0  0
 20 24  1  0  0  0  0
 20 67  1  0  0  0  0
 20 68  1  0  0  0  0
 21 25  1  0  0  0  0
 21 69  1  0  0  0  0
 21 70  1  0  0  0  0
 22 26  1  0  0  0  0
 22 71  1  0  0  0  0
 22 72  1  0  0  0  0
 23 73  1  0  0  0  0
 23 74  1  0  0  0  0
 24 75  1  0  0  0  0
 24 76  1  0  0  0  0
 25 77  1  0  0  0  0
 25 78  1  0  0  0  0
 26 79  1  0  0  0  0
 26 80  1  0  0  0  0
 27 31  1  0  0  0  0
 28 32  1  0  0  0  0
 29 81  1  0  0  0  0
 29 82  1  0  0  0  0
 29 83  1  0  0  0  0
 30 84  1  0  0  0  0
 30 85  1  0  0  0  0
 30 86  1  0  0  0  0
 31 33  1  0  0  0  0
 31 39  2  0  0  0  0
 32 34  1  0  0  0  0
 32 40  2  0  0  0  0
 33 41  2  0  0  0  0
 34 42  2  0  0  0  0
 35 37  2  0  0  0  0
 35 47  1  0  0  0  0
 36 38  2  0  0  0  0
 36 48  1  0  0  0  0
 37 49  1  0  0  0  0
 38 50  1  0  0  0  0
 39 43  1  0  0  0  0
 39 87  1  0  0  0  0
 40 44  1  0  0  0  0
 40 88  1  0  0  0  0
 41 45  1  0  0  0  0
 41 89  1  0  0  0  0
 42 46  1  0  0  0  0
 42 90  1  0  0  0  0
 43 45  2  0  0  0  0
 43 91  1  0  0  0  0
 44 46  2  0  0  0  0
 44 92  1  0  0  0  0
 45 93  1  0  0  0  0
 46 94  1  0  0  0  0
 47 51  2  0  0  0  0
 47 97  1  0  0  0  0
 48 52  2  0  0  0  0
 48 98  1  0  0  0  0
 49 53  2  0  0  0  0
 49 99  1  0  0  0  0
 50 54  2  0  0  0  0
 50100  1  0  0  0  0
 51 53  1  0  0  0  0
 52 54  1  0  0  0  0
 53101  1  0  0  0  0
 54102  1  0  0  0  0
 55 57  1  0  0  0  0
 56 58  1  0  0  0  0
 57 59  1  0  0  0  0
 57103  1  0  0  0  0
 57104  1  0  0  0  0
 58 60  1  0  0  0  0
 58105  1  0  0  0  0
 58106  1  0  0  0  0
 59 61  1  0  0  0  0
 59107  1  0  0  0  0
 59108  1  0  0  0  0
 60 62  1  0  0  0  0
 60109  1  0  0  0  0
 60110  1  0  0  0  0
 63 64  1  0  0  0  0
 63111  1  0  0  0  0
 63112  1  0  0  0  0
 64113  1  0  0  0  0
 64114  1  0  0  0  0
M  END
> <PUBCHEM_COMPOUND_CID>
57326593

> <PUBCHEM_COMPOUND_CANONICALIZED>
1

> <PUBCHEM_CACTVS_COMPLEXITY>
1570

> <PUBCHEM_CACTVS_HBOND_ACCEPTOR>
12

> <PUBCHEM_CACTVS_HBOND_DONOR>
2

> <PUBCHEM_CACTVS_ROTATABLE_BOND>
15

> <PUBCHEM_CACTVS_SUBSKEYS>
AAADcfB/+AAGAAAAAAAAAAAAAAAAAAAAAAA8eMGCBAgAAAABVAAAHgIYAAAADArhmCYzyINiBACoAifyfACCBAEhBwAbqAEodpgJYPLB25GWIAhkkADKyAc3gAAOAABAAAICACAAAIAABAQAQAAAAAAAAA==

> <PUBCHEM_IUPAC_OPENEYE_NAME>
2-[4-[[3-chloro-6-(4-methylpiperazin-1-yl)benzo[b][1,4]benzodiazepin-11-yl]amino]-4-oxo-butanoyl]oxyethyl 4-[[3-chloro-6-(4-methylpiperazin-1-yl)benzo[b][1,4]benzodiazepin-11-yl]amino]-4-oxo-butanoate

> <PUBCHEM_IUPAC_CAS_NAME>
4-[[3-chloro-6-(4-methyl-1-piperazinyl)-11-benzo[b][1,4]benzodiazepinyl]amino]-4-oxobutanoic acid 2-[4-[[3-chloro-6-(4-methyl-1-piperazinyl)-11-benzo[b][1,4]benzodiazepinyl]amino]-1,4-dioxobutoxy]ethyl ester

> <PUBCHEM_IUPAC_NAME_MARKUP>
2-[4-[[3-chloro-6-(4-methylpiperazin-1-yl)benzo[b][1,4]benzodiazepin-11-yl]amino]-4-oxobutanoyl]oxyethyl 4-[[3-chloro-6-(4-methylpiperazin-1-yl)benzo[b][1,4]benzodiazepin-11-yl]amino]-4-oxobutanoate

> <PUBCHEM_IUPAC_NAME>
2-[4-[[3-chloro-6-(4-methylpiperazin-1-yl)benzo[b][1,4]benzodiazepin-11-yl]amino]-4-oxobutanoyl]oxyethyl 4-[[3-chloro-6-(4-methylpiperazin-1-yl)benzo[b][1,4]benzodiazepin-11-yl]amino]-4-oxobutanoate

> <PUBCHEM_IUPAC_SYSTEMATIC_NAME>
2-[4-[[3-chloranyl-6-(4-methylpiperazin-1-yl)benzo[b][1,4]benzodiazepin-11-yl]amino]-4-oxidanylidene-butanoyl]oxyethyl 4-[[3-chloranyl-6-(4-methylpiperazin-1-yl)benzo[b][1,4]benzodiazepin-11-yl]amino]-4-oxidanylidene-butanoate

> <PUBCHEM_IUPAC_TRADITIONAL_NAME>
4-[[3-chloro-6-(4-methylpiperazino)benzo[b][1,4]benzodiazepin-11-yl]amino]-4-keto-butyric acid 2-[4-[[3-chloro-6-(4-methylpiperazino)benzo[b][1,4]benzodiazepin-11-yl]amino]-4-keto-butanoyl]oxyethyl ester

> <PUBCHEM_IUPAC_INCHI>
InChI=1S/C46H50Cl2N10O6/c1-53-19-23-55(24-20-53)45-33-7-3-5-9-37(33)57(39-13-11-31(47)29-35(39)49-45)51-41(59)15-17-43(61)63-27-28-64-44(62)18-16-42(60)52-58-38-10-6-4-8-34(38)46(56-25-21-54(2)22-26-56)50-36-30-32(48)12-14-40(36)58/h3-14,29-30H,15-28H2,1-2H3,(H,51,59)(H,52,60)

> <PUBCHEM_IUPAC_INCHIKEY>
LRLXFJXJJIVVFZ-UHFFFAOYSA-N

> <PUBCHEM_XLOGP3_AA>
4.7

> <PUBCHEM_EXACT_MASS>
908.3291847

> <PUBCHEM_MOLECULAR_FORMULA>
C46H50Cl2N10O6

> <PUBCHEM_MOLECULAR_WEIGHT>
909.9

> <PUBCHEM_OPENEYE_CAN_SMILES>
CN1CCN(CC1)C2=NC3=C(C=CC(=C3)Cl)N(C4=CC=CC=C42)NC(=O)CCC(=O)OCCOC(=O)CCC(=O)NN5C6=C(C=C(C=C6)Cl)N=C(C7=CC=CC=C75)N8CCN(CC8)C

> <PUBCHEM_OPENEYE_ISO_SMILES>
CN1CCN(CC1)C2=NC3=C(C=CC(=C3)Cl)N(C4=CC=CC=C42)NC(=O)CCC(=O)OCCOC(=O)CCC(=O)NN5C6=C(C=C(C=C6)Cl)N=C(C7=CC=CC=C75)N8CCN(CC8)C

> <PUBCHEM_CACTVS_TPSA>
155

> <PUBCHEM_MONOISOTOPIC_WEIGHT>
908.3291847

> <PUBCHEM_TOTAL_CHARGE>
0

> <PUBCHEM_HEAVY_ATOM_COUNT>
64

> <PUBCHEM_ATOM_DEF_STEREO_COUNT>
0

> <PUBCHEM_ATOM_UDEF_STEREO_COUNT>
0

> <PUBCHEM_BOND_DEF_STEREO_COUNT>
0

> <PUBCHEM_BOND_UDEF_STEREO_COUNT>
0

> <PUBCHEM_ISOTOPIC_ATOM_COUNT>
0

> <PUBCHEM_COMPONENT_COUNT>
1

> <PUBCHEM_CACTVS_TAUTO_COUNT>
-1

> <PUBCHEM_COORDINATE_TYPE>
1
5
255

> <PUBCHEM_BONDANNOTATIONS>
31  33  8
31  39  8
32  34  8
32  40  8
33  41  8
34  42  8
35  37  8
35  47  8
36  38  8
36  48  8
37  49  8
38  50  8
39  43  8
40  44  8
41  45  8
42  46  8
43  45  8
44  46  8
47  51  8
48  52  8
49  53  8
50  54  8
51  53  8
52  54  8

$$$$
