44350754
  -OEChem-09292322112D

 80 81  0     0  0  0  0  0  0999 V2000
    7.0749    2.6200    0.0000 O   0  0  0  0  0  0  0  0  0  0  0  0
   12.2711    9.6200    0.0000 O   0  0  0  0  0  0  0  0  0  0  0  0
    3.1350    8.3700    0.0000 O   0  0  0  0  0  0  0  0  0  0  0  0
    0.5369    8.8700    0.0000 O   0  0  0  0  0  0  0  0  0  0  0  0
    2.2690    9.8700    0.0000 O   0  0  0  0  0  0  0  0  0  0  0  0
    1.4030    7.3700    0.0000 O   0  0  0  0  0  0  0  0  0  0  0  0
    8.8070    5.6200    0.0000 N   0  0  0  0  0  0  0  0  0  0  0  0
    8.8070    3.6200    0.0000 N   0  0  0  0  0  0  0  0  0  0  0  0
   10.5390    9.6200    0.0000 N   0  0  0  0  0  0  0  0  0  0  0  0
    9.6730    5.1200    0.0000 C   0  0  0  0  0  0  0  0  0  0  0  0
    7.9409    5.1200    0.0000 C   0  0  0  0  0  0  0  0  0  0  0  0
    9.6730    4.1200    0.0000 C   0  0  0  0  0  0  0  0  0  0  0  0
    7.9409    4.1200    0.0000 C   0  0  0  0  0  0  0  0  0  0  0  0
    8.8070    6.6200    0.0000 C   0  0  0  0  0  0  0  0  0  0  0  0
    9.6730    7.1200    0.0000 C   0  0  0  0  0  0  0  0  0  0  0  0
    8.8070    2.6200    0.0000 C   0  0  0  0  0  0  0  0  0  0  0  0
    9.6730    8.1200    0.0000 C   0  0  0  0  0  0  0  0  0  0  0  0
   10.5390    8.6200    0.0000 C   0  0  0  0  0  0  0  0  0  0  0  0
    7.9409    2.1200    0.0000 C   0  0  0  0  0  0  0  0  0  0  0  0
    9.6730    2.1200    0.0000 C   0  0  0  0  0  0  0  0  0  0  0  0
   12.2711   15.6200    0.0000 C   0  0  0  0  0  0  0  0  0  0  0  0
    7.9409    1.1200    0.0000 C   0  0  0  0  0  0  0  0  0  0  0  0
    9.6730    1.1200    0.0000 C   0  0  0  0  0  0  0  0  0  0  0  0
   12.2711   14.6200    0.0000 C   0  0  0  0  0  0  0  0  0  0  0  0
    8.8070    0.6200    0.0000 C   0  0  0  0  0  0  0  0  0  0  0  0
   12.2711   16.6200    0.0000 C   0  0  0  0  0  0  0  0  0  0  0  0
   13.2711   15.6200    0.0000 C   0  0  0  0  0  0  0  0  0  0  0  0
   11.2711   15.6200    0.0000 C   0  0  0  0  0  0  0  0  0  0  0  0
   11.4050   14.1200    0.0000 C   0  0  0  0  0  0  0  0  0  0  0  0
   13.1371   14.1200    0.0000 C   0  0  0  0  0  0  0  0  0  0  0  0
   11.4050   10.1200    0.0000 C   0  0  0  0  0  0  0  0  0  0  0  0
   12.2711   12.6200    0.0000 C   0  0  0  0  0  0  0  0  0  0  0  0
   11.4050   13.1200    0.0000 C   0  0  0  0  0  0  0  0  0  0  0  0
   13.1371   13.1200    0.0000 C   0  0  0  0  0  0  0  0  0  0  0  0
    6.2089    2.1200    0.0000 C   0  0  0  0  0  0  0  0  0  0  0  0
   11.4050   11.1200    0.0000 C   0  0  0  0  0  0  0  0  0  0  0  0
   12.2711   11.6200    0.0000 C   0  0  0  0  0  0  0  0  0  0  0  0
    2.2690    8.8700    0.0000 C   0  0  0  0  0  0  0  0  0  0  0  0
    1.4030    8.3700    0.0000 C   0  0  0  0  0  0  0  0  0  0  0  0
   10.2836    5.0123    0.0000 H   0  0  0  0  0  0  0  0  0  0  0  0
    9.8850    5.7026    0.0000 H   0  0  0  0  0  0  0  0  0  0  0  0
    7.7289    5.7026    0.0000 H   0  0  0  0  0  0  0  0  0  0  0  0
    7.3304    5.0123    0.0000 H   0  0  0  0  0  0  0  0  0  0  0  0
    9.8850    3.5374    0.0000 H   0  0  0  0  0  0  0  0  0  0  0  0
   10.2836    4.2277    0.0000 H   0  0  0  0  0  0  0  0  0  0  0  0
    7.3304    4.2277    0.0000 H   0  0  0  0  0  0  0  0  0  0  0  0
    7.7289    3.5374    0.0000 H   0  0  0  0  0  0  0  0  0  0  0  0
    8.5949    7.2026    0.0000 H   0  0  0  0  0  0  0  0  0  0  0  0
    8.1964    6.5123    0.0000 H   0  0  0  0  0  0  0  0  0  0  0  0
    9.8850    6.5374    0.0000 H   0  0  0  0  0  0  0  0  0  0  0  0
   10.2836    7.2277    0.0000 H   0  0  0  0  0  0  0  0  0  0  0  0
    9.4609    8.7026    0.0000 H   0  0  0  0  0  0  0  0  0  0  0  0
    9.0624    8.0123    0.0000 H   0  0  0  0  0  0  0  0  0  0  0  0
   10.7511    8.0374    0.0000 H   0  0  0  0  0  0  0  0  0  0  0  0
   11.1496    8.7277    0.0000 H   0  0  0  0  0  0  0  0  0  0  0  0
   10.2099    2.4300    0.0000 H   0  0  0  0  0  0  0  0  0  0  0  0
    7.4040    0.8100    0.0000 H   0  0  0  0  0  0  0  0  0  0  0  0
   10.2099    0.8100    0.0000 H   0  0  0  0  0  0  0  0  0  0  0  0
   10.0021    9.9300    0.0000 H   0  0  0  0  0  0  0  0  0  0  0  0
    8.8070    0.0000    0.0000 H   0  0  0  0  0  0  0  0  0  0  0  0
   12.8911   16.6200    0.0000 H   0  0  0  0  0  0  0  0  0  0  0  0
   12.2711   17.2400    0.0000 H   0  0  0  0  0  0  0  0  0  0  0  0
   11.6511   16.6200    0.0000 H   0  0  0  0  0  0  0  0  0  0  0  0
   13.2711   15.0000    0.0000 H   0  0  0  0  0  0  0  0  0  0  0  0
   13.8911   15.6200    0.0000 H   0  0  0  0  0  0  0  0  0  0  0  0
   13.2711   16.2400    0.0000 H   0  0  0  0  0  0  0  0  0  0  0  0
   11.2711   16.2400    0.0000 H   0  0  0  0  0  0  0  0  0  0  0  0
   10.6511   15.6200    0.0000 H   0  0  0  0  0  0  0  0  0  0  0  0
   11.2711   15.0000    0.0000 H   0  0  0  0  0  0  0  0  0  0  0  0
   10.8681   14.4300    0.0000 H   0  0  0  0  0  0  0  0  0  0  0  0
   13.6740   14.4300    0.0000 H   0  0  0  0  0  0  0  0  0  0  0  0
   10.8681   12.8100    0.0000 H   0  0  0  0  0  0  0  0  0  0  0  0
   13.6740   12.8100    0.0000 H   0  0  0  0  0  0  0  0  0  0  0  0
    5.8989    2.6569    0.0000 H   0  0  0  0  0  0  0  0  0  0  0  0
    5.6720    1.8100    0.0000 H   0  0  0  0  0  0  0  0  0  0  0  0
    6.5189    1.5831    0.0000 H   0  0  0  0  0  0  0  0  0  0  0  0
   10.8681   11.4300    0.0000 H   0  0  0  0  0  0  0  0  0  0  0  0
   12.8080   11.3100    0.0000 H   0  0  0  0  0  0  0  0  0  0  0  0
    3.6720    8.6800    0.0000 H   0  0  0  0  0  0  0  0  0  0  0  0
    0.0000    8.5600    0.0000 H   0  0  0  0  0  0  0  0  0  0  0  0
  1 19  1  0  0  0  0
  1 35  1  0  0  0  0
  2 31  2  0  0  0  0
  3 38  1  0  0  0  0
  3 79  1  0  0  0  0
  4 39  1  0  0  0  0
  4 80  1  0  0  0  0
  5 38  2  0  0  0  0
  6 39  2  0  0  0  0
  7 10  1  0  0  0  0
  7 11  1  0  0  0  0
  7 14  1  0  0  0  0
  8 12  1  0  0  0  0
  8 13  1  0  0  0  0
  8 16  1  0  0  0  0
  9 18  1  0  0  0  0
  9 31  1  0  0  0  0
  9 59  1  0  0  0  0
 10 12  1  0  0  0  0
 10 40  1  0  0  0  0
 10 41  1  0  0  0  0
 11 13  1  0  0  0  0
 11 42  1  0  0  0  0
 11 43  1  0  0  0  0
 12 44  1  0  0  0  0
 12 45  1  0  0  0  0
 13 46  1  0  0  0  0
 13 47  1  0  0  0  0
 14 15  1  0  0  0  0
 14 48  1  0  0  0  0
 14 49  1  0  0  0  0
 15 17  1  0  0  0  0
 15 50  1  0  0  0  0
 15 51  1  0  0  0  0
 16 19  1  0  0  0  0
 16 20  2  0  0  0  0
 17 18  1  0  0  0  0
 17 52  1  0  0  0  0
 17 53  1  0  0  0  0
 18 54  1  0  0  0  0
 18 55  1  0  0  0  0
 19 22  2  0  0  0  0
 20 23  1  0  0  0  0
 20 56  1  0  0  0  0
 21 24  1  0  0  0  0
 21 26  1  0  0  0  0
 21 27  1  0  0  0  0
 21 28  1  0  0  0  0
 22 25  1  0  0  0  0
 22 57  1  0  0  0  0
 23 25  2  0  0  0  0
 23 58  1  0  0  0  0
 24 29  2  0  0  0  0
 24 30  1  0  0  0  0
 25 60  1  0  0  0  0
 26 61  1  0  0  0  0
 26 62  1  0  0  0  0
 26 63  1  0  0  0  0
 27 64  1  0  0  0  0
 27 65  1  0  0  0  0
 27 66  1  0  0  0  0
 28 67  1  0  0  0  0
 28 68  1  0  0  0  0
 28 69  1  0  0  0  0
 29 33  1  0  0  0  0
 29 70  1  0  0  0  0
 30 34  2  0  0  0  0
 30 71  1  0  0  0  0
 31 36  1  0  0  0  0
 32 33  2  0  0  0  0
 32 34  1  0  0  0  0
 32 37  1  0  0  0  0
 33 72  1  0  0  0  0
 34 73  1  0  0  0  0
 35 74  1  0  0  0  0
 35 75  1  0  0  0  0
 35 76  1  0  0  0  0
 36 37  2  0  0  0  0
 36 77  1  0  0  0  0
 37 78  1  0  0  0  0
 38 39  1  0  0  0  0
M  END
> <PUBCHEM_COMPOUND_CID>
44350754

> <PUBCHEM_COMPOUND_CANONICALIZED>
1

> <PUBCHEM_CACTVS_COMPLEXITY>
670

> <PUBCHEM_CACTVS_HBOND_ACCEPTOR>
8

> <PUBCHEM_CACTVS_HBOND_DONOR>
3

> <PUBCHEM_CACTVS_ROTATABLE_BOND>
11

> <PUBCHEM_CACTVS_SUBSKEYS>
AAADcfB7OAAAAAAAAAAAAAAAAAAAAAAAAAA8YIAAAAAAAAABQAAAHgAQCAAADgzBmAYyzoPABgCIAiXSWAKCCAAhIgAIiIBPbMgPZiLEsZuVMChk1hHZ6YeQwMAPwAAAAAAAEACAAAAAAAAgAAAAAAAAAA==

> <PUBCHEM_IUPAC_OPENEYE_NAME>
(E)-3-(4-tert-butylphenyl)-N-[4-[4-(2-methoxyphenyl)piperazin-1-yl]butyl]prop-2-enamide;oxalic acid

> <PUBCHEM_IUPAC_CAS_NAME>
(E)-3-(4-tert-butylphenyl)-N-[4-[4-(2-methoxyphenyl)-1-piperazinyl]butyl]-2-propenamide;oxalic acid

> <PUBCHEM_IUPAC_NAME_MARKUP>
(<I>E</I>)-3-(4-<I>tert</I>-butylphenyl)-<I>N</I>-[4-[4-(2-methoxyphenyl)piperazin-1-yl]butyl]prop-2-enamide;oxalic acid

> <PUBCHEM_IUPAC_NAME>
(E)-3-(4-tert-butylphenyl)-N-[4-[4-(2-methoxyphenyl)piperazin-1-yl]butyl]prop-2-enamide;oxalic acid

> <PUBCHEM_IUPAC_SYSTEMATIC_NAME>
(E)-3-(4-tert-butylphenyl)-N-[4-[4-(2-methoxyphenyl)piperazin-1-yl]butyl]prop-2-enamide;ethanedioic acid

> <PUBCHEM_IUPAC_TRADITIONAL_NAME>
(E)-3-(4-tert-butylphenyl)-N-[4-[4-(2-methoxyphenyl)piperazino]butyl]acrylamide;oxalic acid

> <PUBCHEM_IUPAC_INCHI>
InChI=1S/C28H39N3O2.C2H2O4/c1-28(2,3)24-14-11-23(12-15-24)13-16-27(32)29-17-7-8-18-30-19-21-31(22-20-30)25-9-5-6-10-26(25)33-4;3-1(4)2(5)6/h5-6,9-16H,7-8,17-22H2,1-4H3,(H,29,32);(H,3,4)(H,5,6)/b16-13+;

> <PUBCHEM_IUPAC_INCHIKEY>
BDCQVRFUTQVIGY-ZUQRMPMESA-N

> <PUBCHEM_EXACT_MASS>
539.29953604

> <PUBCHEM_MOLECULAR_FORMULA>
C30H41N3O6

> <PUBCHEM_MOLECULAR_WEIGHT>
539.7

> <PUBCHEM_OPENEYE_CAN_SMILES>
CC(C)(C)C1=CC=C(C=C1)C=CC(=O)NCCCCN2CCN(CC2)C3=CC=CC=C3OC.C(=O)(C(=O)O)O

> <PUBCHEM_OPENEYE_ISO_SMILES>
CC(C)(C)C1=CC=C(C=C1)/C=C/C(=O)NCCCCN2CCN(CC2)C3=CC=CC=C3OC.C(=O)(C(=O)O)O

> <PUBCHEM_CACTVS_TPSA>
119

> <PUBCHEM_MONOISOTOPIC_WEIGHT>
539.29953604

> <PUBCHEM_TOTAL_CHARGE>
0

> <PUBCHEM_HEAVY_ATOM_COUNT>
39

> <PUBCHEM_ATOM_DEF_STEREO_COUNT>
0

> <PUBCHEM_ATOM_UDEF_STEREO_COUNT>
0

> <PUBCHEM_BOND_DEF_STEREO_COUNT>
1

> <PUBCHEM_BOND_UDEF_STEREO_COUNT>
0

> <PUBCHEM_ISOTOPIC_ATOM_COUNT>
0

> <PUBCHEM_COMPONENT_COUNT>
2

> <PUBCHEM_CACTVS_TAUTO_COUNT>
-1

> <PUBCHEM_COORDINATE_TYPE>
1
5
255

> <PUBCHEM_BONDANNOTATIONS>
16  19  8
16  20  8
19  22  8
20  23  8
22  25  8
23  25  8
24  29  8
24  30  8
29  33  8
30  34  8
32  33  8
32  34  8

$$$$
