10735344
  -OEChem-09292322512D

 49 52  0     0  0  0  0  0  0999 V2000
    3.7320    1.2852    0.0000 N   0  0  0  0  0  0  0  0  0  0  0  0
    3.7320   -0.7148    0.0000 N   0  0  0  0  0  0  0  0  0  0  0  0
    2.9230   -2.3026    0.0000 N   0  0  0  0  0  0  0  0  0  0  0  0
    3.2320   -3.2536    0.0000 N   0  0  0  0  0  0  0  0  0  0  0  0
    4.5981    0.7852    0.0000 C   0  0  0  0  0  0  0  0  0  0  0  0
    2.8660    0.7852    0.0000 C   0  0  0  0  0  0  0  0  0  0  0  0
    4.5981   -0.2148    0.0000 C   0  0  0  0  0  0  0  0  0  0  0  0
    2.8660   -0.2148    0.0000 C   0  0  0  0  0  0  0  0  0  0  0  0
    3.7320    2.2852    0.0000 C   0  0  0  0  0  0  0  0  0  0  0  0
    2.8660    2.7852    0.0000 C   0  0  0  0  0  0  0  0  0  0  0  0
    3.7320   -1.7148    0.0000 C   0  0  0  0  0  0  0  0  0  0  0  0
    4.5411   -2.3026    0.0000 C   0  0  0  0  0  0  0  0  0  0  0  0
    2.8660    3.7852    0.0000 C   0  0  0  0  0  0  0  0  0  0  0  0
    4.2320   -3.2536    0.0000 C   0  0  0  0  0  0  0  0  0  0  0  0
    3.7320    4.2852    0.0000 C   0  0  0  0  0  0  0  0  0  0  0  0
    2.0000    4.2852    0.0000 C   0  0  0  0  0  0  0  0  0  0  0  0
    4.8198   -4.0626    0.0000 C   0  0  0  0  0  0  0  0  0  0  0  0
    3.7320    5.2852    0.0000 C   0  0  0  0  0  0  0  0  0  0  0  0
    2.0000    5.2852    0.0000 C   0  0  0  0  0  0  0  0  0  0  0  0
    4.4131   -4.9762    0.0000 C   0  0  0  0  0  0  0  0  0  0  0  0
    5.8144   -3.9581    0.0000 C   0  0  0  0  0  0  0  0  0  0  0  0
    2.8660    5.7852    0.0000 C   0  0  0  0  0  0  0  0  0  0  0  0
    5.0009   -5.7852    0.0000 C   0  0  0  0  0  0  0  0  0  0  0  0
    6.4021   -4.7671    0.0000 C   0  0  0  0  0  0  0  0  0  0  0  0
    5.9954   -5.6807    0.0000 C   0  0  0  0  0  0  0  0  0  0  0  0
    5.2087    0.6775    0.0000 H   0  0  0  0  0  0  0  0  0  0  0  0
    4.8101    1.3678    0.0000 H   0  0  0  0  0  0  0  0  0  0  0  0
    2.6540    1.3678    0.0000 H   0  0  0  0  0  0  0  0  0  0  0  0
    2.2554    0.6775    0.0000 H   0  0  0  0  0  0  0  0  0  0  0  0
    4.8101   -0.7974    0.0000 H   0  0  0  0  0  0  0  0  0  0  0  0
    5.2087   -0.1071    0.0000 H   0  0  0  0  0  0  0  0  0  0  0  0
    2.2554   -0.1071    0.0000 H   0  0  0  0  0  0  0  0  0  0  0  0
    2.6540   -0.7974    0.0000 H   0  0  0  0  0  0  0  0  0  0  0  0
    4.3426    2.1776    0.0000 H   0  0  0  0  0  0  0  0  0  0  0  0
    3.9441    2.8678    0.0000 H   0  0  0  0  0  0  0  0  0  0  0  0
    2.2554    2.8929    0.0000 H   0  0  0  0  0  0  0  0  0  0  0  0
    2.6540    2.2026    0.0000 H   0  0  0  0  0  0  0  0  0  0  0  0
    5.1307   -2.1110    0.0000 H   0  0  0  0  0  0  0  0  0  0  0  0
    2.8676   -3.7552    0.0000 H   0  0  0  0  0  0  0  0  0  0  0  0
    4.2690    3.9752    0.0000 H   0  0  0  0  0  0  0  0  0  0  0  0
    1.4631    3.9752    0.0000 H   0  0  0  0  0  0  0  0  0  0  0  0
    4.2690    5.5952    0.0000 H   0  0  0  0  0  0  0  0  0  0  0  0
    1.4631    5.5952    0.0000 H   0  0  0  0  0  0  0  0  0  0  0  0
    3.7965   -5.0410    0.0000 H   0  0  0  0  0  0  0  0  0  0  0  0
    6.0665   -3.3917    0.0000 H   0  0  0  0  0  0  0  0  0  0  0  0
    2.8660    6.4052    0.0000 H   0  0  0  0  0  0  0  0  0  0  0  0
    4.7487   -6.3516    0.0000 H   0  0  0  0  0  0  0  0  0  0  0  0
    7.0188   -4.7023    0.0000 H   0  0  0  0  0  0  0  0  0  0  0  0
    6.3598   -6.1823    0.0000 H   0  0  0  0  0  0  0  0  0  0  0  0
  1  5  1  0  0  0  0
  1  6  1  0  0  0  0
  1  9  1  0  0  0  0
  2  7  1  0  0  0  0
  2  8  1  0  0  0  0
  2 11  1  0  0  0  0
  3  4  1  0  0  0  0
  3 11  2  0  0  0  0
  4 14  1  0  0  0  0
  4 39  1  0  0  0  0
  5  7  1  0  0  0  0
  5 26  1  0  0  0  0
  5 27  1  0  0  0  0
  6  8  1  0  0  0  0
  6 28  1  0  0  0  0
  6 29  1  0  0  0  0
  7 30  1  0  0  0  0
  7 31  1  0  0  0  0
  8 32  1  0  0  0  0
  8 33  1  0  0  0  0
  9 10  1  0  0  0  0
  9 34  1  0  0  0  0
  9 35  1  0  0  0  0
 10 13  1  0  0  0  0
 10 36  1  0  0  0  0
 10 37  1  0  0  0  0
 11 12  1  0  0  0  0
 12 14  2  0  0  0  0
 12 38  1  0  0  0  0
 13 15  2  0  0  0  0
 13 16  1  0  0  0  0
 14 17  1  0  0  0  0
 15 18  1  0  0  0  0
 15 40  1  0  0  0  0
 16 19  2  0  0  0  0
 16 41  1  0  0  0  0
 17 20  2  0  0  0  0
 17 21  1  0  0  0  0
 18 22  2  0  0  0  0
 18 42  1  0  0  0  0
 19 22  1  0  0  0  0
 19 43  1  0  0  0  0
 20 23  1  0  0  0  0
 20 44  1  0  0  0  0
 21 24  2  0  0  0  0
 21 45  1  0  0  0  0
 22 46  1  0  0  0  0
 23 25  2  0  0  0  0
 23 47  1  0  0  0  0
 24 25  1  0  0  0  0
 24 48  1  0  0  0  0
 25 49  1  0  0  0  0
M  END
> <PUBCHEM_COMPOUND_CID>
10735344

> <PUBCHEM_COMPOUND_CANONICALIZED>
1

> <PUBCHEM_CACTVS_COMPLEXITY>
381

> <PUBCHEM_CACTVS_HBOND_ACCEPTOR>
3

> <PUBCHEM_CACTVS_HBOND_DONOR>
1

> <PUBCHEM_CACTVS_ROTATABLE_BOND>
5

> <PUBCHEM_CACTVS_SUBSKEYS>
AAADceB7gAAAAAAAAAAAAAAAAAAAAWAAAAA8YIAAAAAAAAAB0AAAHAAYAAAADAjBHgQxsJNjAACiAyZiYACSBAIhAgAduSA4ZJiIYKLA2dGUpAhgmALIyAcQgIAOAAAAAAAAAAAAAAAAAAAAAAAAAAAAAA==

> <PUBCHEM_IUPAC_OPENEYE_NAME>
1-(2-phenylethyl)-4-(5-phenyl-1H-pyrazol-3-yl)piperazine

> <PUBCHEM_IUPAC_CAS_NAME>
1-(2-phenylethyl)-4-(5-phenyl-1H-pyrazol-3-yl)piperazine

> <PUBCHEM_IUPAC_NAME_MARKUP>
1-(2-phenylethyl)-4-(5-phenyl-1<I>H</I>-pyrazol-3-yl)piperazine

> <PUBCHEM_IUPAC_NAME>
1-(2-phenylethyl)-4-(5-phenyl-1H-pyrazol-3-yl)piperazine

> <PUBCHEM_IUPAC_SYSTEMATIC_NAME>
1-(2-phenylethyl)-4-(5-phenyl-1H-pyrazol-3-yl)piperazine

> <PUBCHEM_IUPAC_TRADITIONAL_NAME>
1-phenethyl-4-(5-phenyl-1H-pyrazol-3-yl)piperazine

> <PUBCHEM_IUPAC_INCHI>
InChI=1S/C21H24N4/c1-3-7-18(8-4-1)11-12-24-13-15-25(16-14-24)21-17-20(22-23-21)19-9-5-2-6-10-19/h1-10,17H,11-16H2,(H,22,23)

> <PUBCHEM_IUPAC_INCHIKEY>
ZLLPRPCSBDCTBZ-UHFFFAOYSA-N

> <PUBCHEM_XLOGP3_AA>
4.1

> <PUBCHEM_EXACT_MASS>
332.20009678

> <PUBCHEM_MOLECULAR_FORMULA>
C21H24N4

> <PUBCHEM_MOLECULAR_WEIGHT>
332.4

> <PUBCHEM_OPENEYE_CAN_SMILES>
C1CN(CCN1CCC2=CC=CC=C2)C3=NNC(=C3)C4=CC=CC=C4

> <PUBCHEM_OPENEYE_ISO_SMILES>
C1CN(CCN1CCC2=CC=CC=C2)C3=NNC(=C3)C4=CC=CC=C4

> <PUBCHEM_CACTVS_TPSA>
35.2

> <PUBCHEM_MONOISOTOPIC_WEIGHT>
332.20009678

> <PUBCHEM_TOTAL_CHARGE>
0

> <PUBCHEM_HEAVY_ATOM_COUNT>
25

> <PUBCHEM_ATOM_DEF_STEREO_COUNT>
0

> <PUBCHEM_ATOM_UDEF_STEREO_COUNT>
0

> <PUBCHEM_BOND_DEF_STEREO_COUNT>
0

> <PUBCHEM_BOND_UDEF_STEREO_COUNT>
0

> <PUBCHEM_ISOTOPIC_ATOM_COUNT>
0

> <PUBCHEM_COMPONENT_COUNT>
1

> <PUBCHEM_CACTVS_TAUTO_COUNT>
-1

> <PUBCHEM_COORDINATE_TYPE>
1
5
255

> <PUBCHEM_BONDANNOTATIONS>
11  12  8
12  14  8
13  15  8
13  16  8
15  18  8
16  19  8
17  20  8
17  21  8
18  22  8
19  22  8
20  23  8
21  24  8
23  25  8
24  25  8
3  11  8
3  4  8
4  14  8

$$$$
