155536040
  -OEChem-09292322092D

 49 51  0     0  0  0  0  0  0999 V2000
    6.5981    5.7320    0.0000 Cl  0  0  0  0  0  0  0  0  0  0  0  0
    4.5981   -3.7320    0.0000 Cl  0  0  0  0  0  0  0  0  0  0  0  0
    4.0981    3.1340    0.0000 O   0  0  0  0  0  0  0  0  0  0  0  0
    2.0000   -2.2320    0.0000 O   0  0  0  0  0  0  0  0  0  0  0  0
    4.5981    0.2679    0.0000 N   0  0  0  0  0  0  0  0  0  0  0  0
    4.5981    2.2680    0.0000 C   0  0  0  0  0  0  0  0  0  0  0  0
    3.7320    1.7680    0.0000 C   0  0  0  0  0  0  0  0  0  0  0  0
    5.4641    1.7680    0.0000 C   0  0  0  0  0  0  0  0  0  0  0  0
    3.7320    0.7679    0.0000 C   0  0  0  0  0  0  0  0  0  0  0  0
    5.4641    0.7679    0.0000 C   0  0  0  0  0  0  0  0  0  0  0  0
    4.5981   -0.7321    0.0000 C   0  0  0  0  0  0  0  0  0  0  0  0
    5.0981    3.1340    0.0000 C   0  0  0  0  0  0  0  0  0  0  0  0
    3.7320   -1.2320    0.0000 C   0  0  0  0  0  0  0  0  0  0  0  0
    4.5981    4.0000    0.0000 C   0  0  0  0  0  0  0  0  0  0  0  0
    6.0981    3.1340    0.0000 C   0  0  0  0  0  0  0  0  0  0  0  0
    3.7320   -2.2320    0.0000 C   0  0  0  0  0  0  0  0  0  0  0  0
    5.0981    4.8660    0.0000 C   0  0  0  0  0  0  0  0  0  0  0  0
    6.5981    4.0000    0.0000 C   0  0  0  0  0  0  0  0  0  0  0  0
    2.8660   -2.7320    0.0000 C   0  0  0  0  0  0  0  0  0  0  0  0
    6.0981    4.8660    0.0000 C   0  0  0  0  0  0  0  0  0  0  0  0
    2.8660   -3.7320    0.0000 C   0  0  0  0  0  0  0  0  0  0  0  0
    3.7320   -4.2320    0.0000 C   0  0  0  0  0  0  0  0  0  0  0  0
    2.0000   -4.2320    0.0000 C   0  0  0  0  0  0  0  0  0  0  0  0
    3.7320   -5.2320    0.0000 C   0  0  0  0  0  0  0  0  0  0  0  0
    2.0000   -5.2320    0.0000 C   0  0  0  0  0  0  0  0  0  0  0  0
    2.8660   -5.7320    0.0000 C   0  0  0  0  0  0  0  0  0  0  0  0
    3.5200    2.3506    0.0000 H   0  0  0  0  0  0  0  0  0  0  0  0
    3.1215    1.6603    0.0000 H   0  0  0  0  0  0  0  0  0  0  0  0
    6.0747    1.6603    0.0000 H   0  0  0  0  0  0  0  0  0  0  0  0
    5.6762    2.3506    0.0000 H   0  0  0  0  0  0  0  0  0  0  0  0
    3.1215    0.8756    0.0000 H   0  0  0  0  0  0  0  0  0  0  0  0
    3.5200    0.1853    0.0000 H   0  0  0  0  0  0  0  0  0  0  0  0
    5.6762    0.1853    0.0000 H   0  0  0  0  0  0  0  0  0  0  0  0
    6.0747    0.8756    0.0000 H   0  0  0  0  0  0  0  0  0  0  0  0
    4.8101   -1.3147    0.0000 H   0  0  0  0  0  0  0  0  0  0  0  0
    5.2087   -0.6244    0.0000 H   0  0  0  0  0  0  0  0  0  0  0  0
    3.5200   -0.6494    0.0000 H   0  0  0  0  0  0  0  0  0  0  0  0
    3.1215   -1.3397    0.0000 H   0  0  0  0  0  0  0  0  0  0  0  0
    3.4781    3.1340    0.0000 H   0  0  0  0  0  0  0  0  0  0  0  0
    3.9781    4.0000    0.0000 H   0  0  0  0  0  0  0  0  0  0  0  0
    6.4081    2.5970    0.0000 H   0  0  0  0  0  0  0  0  0  0  0  0
    3.9441   -2.8147    0.0000 H   0  0  0  0  0  0  0  0  0  0  0  0
    4.3426   -2.1244    0.0000 H   0  0  0  0  0  0  0  0  0  0  0  0
    4.7881    5.4030    0.0000 H   0  0  0  0  0  0  0  0  0  0  0  0
    7.2181    4.0000    0.0000 H   0  0  0  0  0  0  0  0  0  0  0  0
    1.4631   -3.9220    0.0000 H   0  0  0  0  0  0  0  0  0  0  0  0
    4.2690   -5.5420    0.0000 H   0  0  0  0  0  0  0  0  0  0  0  0
    1.4631   -5.5420    0.0000 H   0  0  0  0  0  0  0  0  0  0  0  0
    2.8660   -6.3520    0.0000 H   0  0  0  0  0  0  0  0  0  0  0  0
  1 20  1  0  0  0  0
  2 22  1  0  0  0  0
  3  6  1  0  0  0  0
  3 39  1  0  0  0  0
  4 19  2  0  0  0  0
  5  9  1  0  0  0  0
  5 10  1  0  0  0  0
  5 11  1  0  0  0  0
  6  7  1  0  0  0  0
  6  8  1  0  0  0  0
  6 12  1  0  0  0  0
  7  9  1  0  0  0  0
  7 27  1  0  0  0  0
  7 28  1  0  0  0  0
  8 10  1  0  0  0  0
  8 29  1  0  0  0  0
  8 30  1  0  0  0  0
  9 31  1  0  0  0  0
  9 32  1  0  0  0  0
 10 33  1  0  0  0  0
 10 34  1  0  0  0  0
 11 13  1  0  0  0  0
 11 35  1  0  0  0  0
 11 36  1  0  0  0  0
 12 14  2  0  0  0  0
 12 15  1  0  0  0  0
 13 16  1  0  0  0  0
 13 37  1  0  0  0  0
 13 38  1  0  0  0  0
 14 17  1  0  0  0  0
 14 40  1  0  0  0  0
 15 18  2  0  0  0  0
 15 41  1  0  0  0  0
 16 19  1  0  0  0  0
 16 42  1  0  0  0  0
 16 43  1  0  0  0  0
 17 20  2  0  0  0  0
 17 44  1  0  0  0  0
 18 20  1  0  0  0  0
 18 45  1  0  0  0  0
 19 21  1  0  0  0  0
 21 22  1  0  0  0  0
 21 23  2  0  0  0  0
 22 24  2  0  0  0  0
 23 25  1  0  0  0  0
 23 46  1  0  0  0  0
 24 26  1  0  0  0  0
 24 47  1  0  0  0  0
 25 26  2  0  0  0  0
 25 48  1  0  0  0  0
 26 49  1  0  0  0  0
M  END
> <PUBCHEM_COMPOUND_CID>
155536040

> <PUBCHEM_COMPOUND_CANONICALIZED>
1

> <PUBCHEM_CACTVS_COMPLEXITY>
457

> <PUBCHEM_CACTVS_HBOND_ACCEPTOR>
3

> <PUBCHEM_CACTVS_HBOND_DONOR>
1

> <PUBCHEM_CACTVS_ROTATABLE_BOND>
6

> <PUBCHEM_CACTVS_SUBSKEYS>
AAADceB6MAAGAAAAAAAAAAAAAAAAAAAAAAA8YIAAAAAAAAABQAAAHgIACAAADEbBmCQwAIMAAgCIAqBSAAACAAAkBQAIiAEICsgIJjKBlxCEcQAmwAGInYecyOCOhAAAAAABAAAIAAAAAAIAAAAAAAAAAA==

> <PUBCHEM_IUPAC_OPENEYE_NAME>
1-(2-chlorophenyl)-4-[4-(4-chlorophenyl)-4-hydroxy-1-piperidyl]butan-1-one

> <PUBCHEM_IUPAC_CAS_NAME>
1-(2-chlorophenyl)-4-[4-(4-chlorophenyl)-4-hydroxy-1-piperidinyl]-1-butanone

> <PUBCHEM_IUPAC_NAME_MARKUP>
1-(2-chlorophenyl)-4-[4-(4-chlorophenyl)-4-hydroxypiperidin-1-yl]butan-1-one

> <PUBCHEM_IUPAC_NAME>
1-(2-chlorophenyl)-4-[4-(4-chlorophenyl)-4-hydroxypiperidin-1-yl]butan-1-one

> <PUBCHEM_IUPAC_SYSTEMATIC_NAME>
1-(2-chlorophenyl)-4-[4-(4-chlorophenyl)-4-oxidanyl-piperidin-1-yl]butan-1-one

> <PUBCHEM_IUPAC_TRADITIONAL_NAME>
1-(2-chlorophenyl)-4-[4-(4-chlorophenyl)-4-hydroxy-piperidino]butan-1-one

> <PUBCHEM_IUPAC_INCHI>
InChI=1S/C21H23Cl2NO2/c22-17-9-7-16(8-10-17)21(26)11-14-24(15-12-21)13-3-6-20(25)18-4-1-2-5-19(18)23/h1-2,4-5,7-10,26H,3,6,11-15H2

> <PUBCHEM_IUPAC_INCHIKEY>
ACWQOQSFTNXQMA-UHFFFAOYSA-N

> <PUBCHEM_XLOGP3>
3.8

> <PUBCHEM_EXACT_MASS>
391.1105844

> <PUBCHEM_MOLECULAR_FORMULA>
C21H23Cl2NO2

> <PUBCHEM_MOLECULAR_WEIGHT>
392.3

> <PUBCHEM_OPENEYE_CAN_SMILES>
C1CN(CCC1(C2=CC=C(C=C2)Cl)O)CCCC(=O)C3=CC=CC=C3Cl

> <PUBCHEM_OPENEYE_ISO_SMILES>
C1CN(CCC1(C2=CC=C(C=C2)Cl)O)CCCC(=O)C3=CC=CC=C3Cl

> <PUBCHEM_CACTVS_TPSA>
40.5

> <PUBCHEM_MONOISOTOPIC_WEIGHT>
391.1105844

> <PUBCHEM_TOTAL_CHARGE>
0

> <PUBCHEM_HEAVY_ATOM_COUNT>
26

> <PUBCHEM_ATOM_DEF_STEREO_COUNT>
0

> <PUBCHEM_ATOM_UDEF_STEREO_COUNT>
0

> <PUBCHEM_BOND_DEF_STEREO_COUNT>
0

> <PUBCHEM_BOND_UDEF_STEREO_COUNT>
0

> <PUBCHEM_ISOTOPIC_ATOM_COUNT>
0

> <PUBCHEM_COMPONENT_COUNT>
1

> <PUBCHEM_CACTVS_TAUTO_COUNT>
-1

> <PUBCHEM_COORDINATE_TYPE>
1
5
255

> <PUBCHEM_BONDANNOTATIONS>
12  14  8
12  15  8
14  17  8
15  18  8
17  20  8
18  20  8
21  22  8
21  23  8
22  24  8
23  25  8
24  26  8
25  26  8

$$$$
