76335466
  -OEChem-09292321592D

 49 50  0     1  0  0  0  0  0999 V2000
    3.0378    0.0000    0.0000 F   0  0  0  0  0  0  0  0  0  0  0  0
    1.6718    0.3660    0.0000 F   0  0  0  0  0  0  0  0  0  0  0  0
    2.0378    1.7320    0.0000 F   0  0  0  0  0  0  0  0  0  0  0  0
    1.4534    4.7142    0.0000 O   0  0  0  0  0  0  0  0  0  0  0  0
    4.2699    0.8660    0.0000 O   0  0  0  0  0  0  0  0  0  0  0  0
    3.4039    2.3660    0.0000 O   0  0  0  0  0  0  0  0  0  0  0  0
    4.9617    7.7835    0.0000 N   0  0  3  0  0  0  0  0  0  0  0  0
    4.0678    6.2488    0.0000 C   0  0  2  0  0  0  0  0  0  0  0  0
    4.0678    7.2488    0.0000 C   0  0  1  0  0  0  0  0  0  0  0  0
    4.9617    5.7142    0.0000 C   0  0  0  0  0  0  0  0  0  0  0  0
    3.2018    5.7488    0.0000 C   0  0  0  0  0  0  0  0  0  0  0  0
    3.2018    7.7488    0.0000 C   0  0  0  0  0  0  0  0  0  0  0  0
    5.8678    6.2280    0.0000 C   0  0  0  0  0  0  0  0  0  0  0  0
    5.8678    7.2696    0.0000 C   0  0  0  0  0  0  0  0  0  0  0  0
    2.3358    6.2488    0.0000 C   0  0  0  0  0  0  0  0  0  0  0  0
    2.3358    7.2488    0.0000 C   0  0  0  0  0  0  0  0  0  0  0  0
    4.9502    8.7834    0.0000 C   0  0  0  0  0  0  0  0  0  0  0  0
    5.8104    9.2934    0.0000 C   0  0  0  0  0  0  0  0  0  0  0  0
    1.4418    5.7142    0.0000 C   0  0  0  0  0  0  0  0  0  0  0  0
    1.4418    7.7835    0.0000 C   0  0  0  0  0  0  0  0  0  0  0  0
    0.5357    6.2280    0.0000 C   0  0  0  0  0  0  0  0  0  0  0  0
    0.5357    7.2696    0.0000 C   0  0  0  0  0  0  0  0  0  0  0  0
    5.7988   10.2933    0.0000 C   0  0  0  0  0  0  0  0  0  0  0  0
    2.5378    0.8660    0.0000 C   0  0  0  0  0  0  0  0  0  0  0  0
    3.4039    1.3660    0.0000 C   0  0  0  0  0  0  0  0  0  0  0  0
    4.0612    5.3989    0.0000 H   0  0  0  0  0  0  0  0  0  0  0  0
    4.0612    8.0988    0.0000 H   0  0  0  0  0  0  0  0  0  0  0  0
    4.5571    5.2444    0.0000 H   0  0  0  0  0  0  0  0  0  0  0  0
    5.3554    5.2352    0.0000 H   0  0  0  0  0  0  0  0  0  0  0  0
    2.8032    5.2739    0.0000 H   0  0  0  0  0  0  0  0  0  0  0  0
    3.6003    5.2739    0.0000 H   0  0  0  0  0  0  0  0  0  0  0  0
    3.6003    8.2238    0.0000 H   0  0  0  0  0  0  0  0  0  0  0  0
    2.8032    8.2238    0.0000 H   0  0  0  0  0  0  0  0  0  0  0  0
    6.0769    5.6443    0.0000 H   0  0  0  0  0  0  0  0  0  0  0  0
    6.4787    6.3341    0.0000 H   0  0  0  0  0  0  0  0  0  0  0  0
    6.4787    7.1636    0.0000 H   0  0  0  0  0  0  0  0  0  0  0  0
    6.0769    7.8533    0.0000 H   0  0  0  0  0  0  0  0  0  0  0  0
    4.7314    9.3635    0.0000 H   0  0  0  0  0  0  0  0  0  0  0  0
    4.3409    8.6687    0.0000 H   0  0  0  0  0  0  0  0  0  0  0  0
    6.0291    8.7133    0.0000 H   0  0  0  0  0  0  0  0  0  0  0  0
    6.4197    9.4081    0.0000 H   0  0  0  0  0  0  0  0  0  0  0  0
    1.4490    8.4034    0.0000 H   0  0  0  0  0  0  0  0  0  0  0  0
    0.0000    5.9159    0.0000 H   0  0  0  0  0  0  0  0  0  0  0  0
    0.0000    7.5817    0.0000 H   0  0  0  0  0  0  0  0  0  0  0  0
    6.4188   10.3005    0.0000 H   0  0  0  0  0  0  0  0  0  0  0  0
    5.7916   10.9133    0.0000 H   0  0  0  0  0  0  0  0  0  0  0  0
    5.1788   10.2862    0.0000 H   0  0  0  0  0  0  0  0  0  0  0  0
    0.9201    4.3980    0.0000 H   0  0  0  0  0  0  0  0  0  0  0  0
    4.8068    1.1760    0.0000 H   0  0  0  0  0  0  0  0  0  0  0  0
  1 24  1  0  0  0  0
  2 24  1  0  0  0  0
  3 24  1  0  0  0  0
  4 19  1  0  0  0  0
  4 48  1  0  0  0  0
  5 25  1  0  0  0  0
  5 49  1  0  0  0  0
  6 25  2  0  0  0  0
  7  9  1  0  0  0  0
  7 14  1  0  0  0  0
  7 17  1  0  0  0  0
  8  9  1  0  0  0  0
  8 10  1  0  0  0  0
  8 11  1  0  0  0  0
  8 26  1  1  0  0  0
  9 12  1  0  0  0  0
  9 27  1  6  0  0  0
 10 13  1  0  0  0  0
 10 28  1  0  0  0  0
 10 29  1  0  0  0  0
 11 15  1  0  0  0  0
 11 30  1  0  0  0  0
 11 31  1  0  0  0  0
 12 16  1  0  0  0  0
 12 32  1  0  0  0  0
 12 33  1  0  0  0  0
 13 14  1  0  0  0  0
 13 34  1  0  0  0  0
 13 35  1  0  0  0  0
 14 36  1  0  0  0  0
 14 37  1  0  0  0  0
 15 16  2  0  0  0  0
 15 19  1  0  0  0  0
 16 20  1  0  0  0  0
 17 18  1  0  0  0  0
 17 38  1  0  0  0  0
 17 39  1  0  0  0  0
 18 23  1  0  0  0  0
 18 40  1  0  0  0  0
 18 41  1  0  0  0  0
 19 21  2  0  0  0  0
 20 22  2  0  0  0  0
 20 42  1  0  0  0  0
 21 22  1  0  0  0  0
 21 43  1  0  0  0  0
 22 44  1  0  0  0  0
 23 45  1  0  0  0  0
 23 46  1  0  0  0  0
 23 47  1  0  0  0  0
 24 25  1  0  0  0  0
M  END
> <PUBCHEM_COMPOUND_CID>
76335466

> <PUBCHEM_COMPOUND_CANONICALIZED>
1

> <PUBCHEM_CACTVS_COMPLEXITY>
364

> <PUBCHEM_CACTVS_HBOND_ACCEPTOR>
7

> <PUBCHEM_CACTVS_HBOND_DONOR>
2

> <PUBCHEM_CACTVS_ROTATABLE_BOND>
2

> <PUBCHEM_CACTVS_SUBSKEYS>
AAADceB6MYAAAAAAAAAAAAAAAAAAAAAAAAA8YIAAAAAAAADxAAAAHwAACAAADSzBmBQyDoMAAgCIAiDSCAACAAAgIAAIiAAOCIgIJiKCkROEcAAkwBGImAeQ0PMOgAABAAAYAACQAAaAADQAAAAAAAAAAA==

> <PUBCHEM_IUPAC_OPENEYE_NAME>
(4aR,10aR)-1-propyl-3,4,4a,5,10,10a-hexahydro-2H-benzo[g]quinolin-6-ol;2,2,2-trifluoroacetic acid

> <PUBCHEM_IUPAC_CAS_NAME>
(4aR,10aR)-1-propyl-3,4,4a,5,10,10a-hexahydro-2H-benzo[g]quinolin-6-ol;2,2,2-trifluoroacetic acid

> <PUBCHEM_IUPAC_NAME_MARKUP>
(4<I>a</I><I>R</I>,10<I>a</I><I>R</I>)-1-propyl-3,4,4<I>a</I>,5,10,10<I>a</I>-hexahydro-2<I>H</I>-benzo[g]quinolin-6-ol;2,2,2-trifluoroacetic acid

> <PUBCHEM_IUPAC_NAME>
(4aR,10aR)-1-propyl-3,4,4a,5,10,10a-hexahydro-2H-benzo[g]quinolin-6-ol;2,2,2-trifluoroacetic acid

> <PUBCHEM_IUPAC_SYSTEMATIC_NAME>
(4aR,10aR)-1-propyl-3,4,4a,5,10,10a-hexahydro-2H-benzo[g]quinolin-6-ol;2,2,2-tris(fluoranyl)ethanoic acid

> <PUBCHEM_IUPAC_TRADITIONAL_NAME>
(4aR,10aR)-1-propyl-3,4,4a,5,10,10a-hexahydro-2H-benzo[g]quinolin-6-ol;2,2,2-trifluoroacetic acid

> <PUBCHEM_IUPAC_INCHI>
InChI=1S/C16H23NO.C2HF3O2/c1-2-8-17-9-4-6-13-10-14-12(11-15(13)17)5-3-7-16(14)18;3-2(4,5)1(6)7/h3,5,7,13,15,18H,2,4,6,8-11H2,1H3;(H,6,7)/t13-,15-;/m1./s1

> <PUBCHEM_IUPAC_INCHIKEY>
GITRAKCASHJKNC-SWYZXDRTSA-N

> <PUBCHEM_EXACT_MASS>
359.17082811

> <PUBCHEM_MOLECULAR_FORMULA>
C18H24F3NO3

> <PUBCHEM_MOLECULAR_WEIGHT>
359.4

> <PUBCHEM_OPENEYE_CAN_SMILES>
CCCN1CCCC2C1CC3=C(C2)C(=CC=C3)O.C(=O)(C(F)(F)F)O

> <PUBCHEM_OPENEYE_ISO_SMILES>
CCCN1CCC[C@H]2[C@H]1CC3=C(C2)C(=CC=C3)O.C(=O)(C(F)(F)F)O

> <PUBCHEM_CACTVS_TPSA>
60.8

> <PUBCHEM_MONOISOTOPIC_WEIGHT>
359.17082811

> <PUBCHEM_TOTAL_CHARGE>
0

> <PUBCHEM_HEAVY_ATOM_COUNT>
25

> <PUBCHEM_ATOM_DEF_STEREO_COUNT>
2

> <PUBCHEM_ATOM_UDEF_STEREO_COUNT>
0

> <PUBCHEM_BOND_DEF_STEREO_COUNT>
0

> <PUBCHEM_BOND_UDEF_STEREO_COUNT>
0

> <PUBCHEM_ISOTOPIC_ATOM_COUNT>
0

> <PUBCHEM_COMPONENT_COUNT>
2

> <PUBCHEM_CACTVS_TAUTO_COUNT>
-1

> <PUBCHEM_COORDINATE_TYPE>
1
5
255

> <PUBCHEM_BONDANNOTATIONS>
15  16  8
15  19  8
16  20  8
19  21  8
20  22  8
21  22  8
8  26  5
9  27  6

$$$$
