11543992
  -OEChem-09292322482D

 45 49  0     1  0  0  0  0  0999 V2000
    6.9654    1.4856    0.0000 N   0  0  3  0  0  0  0  0  0  0  0  0
    4.5124    0.3681    0.0000 N   0  0  0  0  0  0  0  0  0  0  0  0
    6.2962    0.7424    0.0000 C   0  0  3  0  0  0  0  0  0  0  0  0
    6.6028   -0.2531    0.0000 C   0  0  3  0  0  0  0  0  0  0  0  0
    7.6200   -0.4775    0.0000 C   0  0  0  0  0  0  0  0  0  0  0  0
    5.3181    0.9504    0.0000 C   0  0  0  0  0  0  0  0  0  0  0  0
    7.9875    1.2848    0.0000 C   0  0  0  0  0  0  0  0  0  0  0  0
    6.6564    2.4367    0.0000 C   0  0  0  0  0  0  0  0  0  0  0  0
    8.3170    0.2966    0.0000 C   0  0  0  0  0  0  0  0  0  0  0  0
    5.0091    1.9014    0.0000 C   0  0  0  0  0  0  0  0  0  0  0  0
    5.6782    2.6446    0.0000 C   0  0  0  0  0  0  0  0  0  0  0  0
    5.9251   -0.9884    0.0000 C   0  0  0  0  0  0  0  0  0  0  0  0
    4.0150    1.8988    0.0000 C   0  0  0  0  0  0  0  0  0  0  0  0
    3.7086    0.9531    0.0000 C   0  0  0  0  0  0  0  0  0  0  0  0
    6.2231   -1.9430    0.0000 C   0  0  0  0  0  0  0  0  0  0  0  0
    4.9494   -0.7692    0.0000 C   0  0  0  0  0  0  0  0  0  0  0  0
    3.3334    2.6783    0.0000 C   0  0  0  0  0  0  0  0  0  0  0  0
    2.6994    0.7214    0.0000 C   0  0  0  0  0  0  0  0  0  0  0  0
    2.3191    2.4700    0.0000 C   0  0  0  0  0  0  0  0  0  0  0  0
    5.5454   -2.6783    0.0000 C   0  0  0  0  0  0  0  0  0  0  0  0
    4.2718   -1.5046    0.0000 C   0  0  0  0  0  0  0  0  0  0  0  0
    2.0000    1.4849    0.0000 C   0  0  0  0  0  0  0  0  0  0  0  0
    4.5698   -2.4591    0.0000 C   0  0  0  0  0  0  0  0  0  0  0  0
    5.8778    0.2849    0.0000 H   0  0  0  0  0  0  0  0  0  0  0  0
    6.7887   -0.8445    0.0000 H   0  0  0  0  0  0  0  0  0  0  0  0
    7.3848   -1.0511    0.0000 H   0  0  0  0  0  0  0  0  0  0  0  0
    8.1449   -0.8074    0.0000 H   0  0  0  0  0  0  0  0  0  0  0  0
    8.6005    1.3774    0.0000 H   0  0  0  0  0  0  0  0  0  0  0  0
    8.0011    1.9046    0.0000 H   0  0  0  0  0  0  0  0  0  0  0  0
    7.2703    2.5229    0.0000 H   0  0  0  0  0  0  0  0  0  0  0  0
    6.6780    3.0563    0.0000 H   0  0  0  0  0  0  0  0  0  0  0  0
    8.6999   -0.1910    0.0000 H   0  0  0  0  0  0  0  0  0  0  0  0
    8.8629    0.5905    0.0000 H   0  0  0  0  0  0  0  0  0  0  0  0
    5.9105    3.2194    0.0000 H   0  0  0  0  0  0  0  0  0  0  0  0
    5.1524    2.9731    0.0000 H   0  0  0  0  0  0  0  0  0  0  0  0
    4.5113   -0.2519    0.0000 H   0  0  0  0  0  0  0  0  0  0  0  0
    6.8280   -2.0789    0.0000 H   0  0  0  0  0  0  0  0  0  0  0  0
    4.7647   -0.1774    0.0000 H   0  0  0  0  0  0  0  0  0  0  0  0
    3.5313    3.2659    0.0000 H   0  0  0  0  0  0  0  0  0  0  0  0
    2.5152    0.1294    0.0000 H   0  0  0  0  0  0  0  0  0  0  0  0
    1.9056    2.9320    0.0000 H   0  0  0  0  0  0  0  0  0  0  0  0
    5.7302   -3.2702    0.0000 H   0  0  0  0  0  0  0  0  0  0  0  0
    3.6668   -1.3686    0.0000 H   0  0  0  0  0  0  0  0  0  0  0  0
    1.3942    1.3532    0.0000 H   0  0  0  0  0  0  0  0  0  0  0  0
    4.1496   -2.9150    0.0000 H   0  0  0  0  0  0  0  0  0  0  0  0
  1  3  1  0  0  0  0
  1  7  1  0  0  0  0
  1  8  1  0  0  0  0
  2  6  1  0  0  0  0
  2 14  1  0  0  0  0
  2 36  1  0  0  0  0
  3  4  1  0  0  0  0
  3  6  1  0  0  0  0
  3 24  1  0  0  0  0
  4  5  1  0  0  0  0
  4 12  1  0  0  0  0
  4 25  1  0  0  0  0
  5  9  1  0  0  0  0
  5 26  1  0  0  0  0
  5 27  1  0  0  0  0
  6 10  2  0  0  0  0
  7  9  1  0  0  0  0
  7 28  1  0  0  0  0
  7 29  1  0  0  0  0
  8 11  1  0  0  0  0
  8 30  1  0  0  0  0
  8 31  1  0  0  0  0
  9 32  1  0  0  0  0
  9 33  1  0  0  0  0
 10 11  1  0  0  0  0
 10 13  1  0  0  0  0
 11 34  1  0  0  0  0
 11 35  1  0  0  0  0
 12 15  2  0  0  0  0
 12 16  1  0  0  0  0
 13 14  1  0  0  0  0
 13 17  2  0  0  0  0
 14 18  2  0  0  0  0
 15 20  1  0  0  0  0
 15 37  1  0  0  0  0
 16 21  2  0  0  0  0
 16 38  1  0  0  0  0
 17 19  1  0  0  0  0
 17 39  1  0  0  0  0
 18 22  1  0  0  0  0
 18 40  1  0  0  0  0
 19 22  2  0  0  0  0
 19 41  1  0  0  0  0
 20 23  2  0  0  0  0
 20 42  1  0  0  0  0
 21 23  1  0  0  0  0
 21 43  1  0  0  0  0
 22 44  1  0  0  0  0
 23 45  1  0  0  0  0
M  END
> <PUBCHEM_COMPOUND_CID>
11543992

> <PUBCHEM_COMPOUND_CANONICALIZED>
1

> <PUBCHEM_CACTVS_COMPLEXITY>
416

> <PUBCHEM_CACTVS_HBOND_ACCEPTOR>
1

> <PUBCHEM_CACTVS_HBOND_DONOR>
1

> <PUBCHEM_CACTVS_ROTATABLE_BOND>
1

> <PUBCHEM_CACTVS_SUBSKEYS>
AAADceB7AAAAAAAAAAAAAAAAAAAAAWAAAAA8eIEAAAAAAFix9AAAHAAQAAAADSjBHgQwwPPJkACgAyRiRACCgCAhAiAImSA4ZJgIYOLAkZGUIAhgkADIyAcQgMAOgAAAAAACAAAAAAAAAAQAAAAAAAAAAA==

> <PUBCHEM_IUPAC_OPENEYE_NAME>
1-phenyl-1,2,3,4,6,7,12,12b-octahydroindolo[2,3-a]quinolizine

> <PUBCHEM_IUPAC_CAS_NAME>
1-phenyl-1,2,3,4,6,7,12,12b-octahydroindolo[2,3-a]quinolizine

> <PUBCHEM_IUPAC_NAME_MARKUP>
1-phenyl-1,2,3,4,6,7,12,12<I>b</I>-octahydroindolo[2,3-a]quinolizine

> <PUBCHEM_IUPAC_NAME>
1-phenyl-1,2,3,4,6,7,12,12b-octahydroindolo[2,3-a]quinolizine

> <PUBCHEM_IUPAC_SYSTEMATIC_NAME>
1-phenyl-1,2,3,4,6,7,12,12b-octahydroindolo[2,3-a]quinolizine

> <PUBCHEM_IUPAC_TRADITIONAL_NAME>
1-phenyl-1,2,3,4,6,7,12,12b-octahydropyrido[2,1-a]beta-carboline

> <PUBCHEM_IUPAC_INCHI>
InChI=1S/C21H22N2/c1-2-7-15(8-3-1)16-10-6-13-23-14-12-18-17-9-4-5-11-19(17)22-20(18)21(16)23/h1-5,7-9,11,16,21-22H,6,10,12-14H2

> <PUBCHEM_IUPAC_INCHIKEY>
KRAYBRNWGRIQNM-UHFFFAOYSA-N

> <PUBCHEM_XLOGP3_AA>
4.2

> <PUBCHEM_EXACT_MASS>
302.178298710

> <PUBCHEM_MOLECULAR_FORMULA>
C21H22N2

> <PUBCHEM_MOLECULAR_WEIGHT>
302.4

> <PUBCHEM_OPENEYE_CAN_SMILES>
C1CC(C2C3=C(CCN2C1)C4=CC=CC=C4N3)C5=CC=CC=C5

> <PUBCHEM_OPENEYE_ISO_SMILES>
C1CC(C2C3=C(CCN2C1)C4=CC=CC=C4N3)C5=CC=CC=C5

> <PUBCHEM_CACTVS_TPSA>
19

> <PUBCHEM_MONOISOTOPIC_WEIGHT>
302.178298710

> <PUBCHEM_TOTAL_CHARGE>
0

> <PUBCHEM_HEAVY_ATOM_COUNT>
23

> <PUBCHEM_ATOM_DEF_STEREO_COUNT>
0

> <PUBCHEM_ATOM_UDEF_STEREO_COUNT>
2

> <PUBCHEM_BOND_DEF_STEREO_COUNT>
0

> <PUBCHEM_BOND_UDEF_STEREO_COUNT>
0

> <PUBCHEM_ISOTOPIC_ATOM_COUNT>
0

> <PUBCHEM_COMPONENT_COUNT>
1

> <PUBCHEM_CACTVS_TAUTO_COUNT>
-1

> <PUBCHEM_COORDINATE_TYPE>
1
5
255

> <PUBCHEM_BONDANNOTATIONS>
10  13  8
12  15  8
12  16  8
13  14  8
13  17  8
14  18  8
15  20  8
16  21  8
17  19  8
18  22  8
19  22  8
2  14  8
2  6  8
20  23  8
21  23  8
3  6  3
4  12  3
6  10  8

$$$$
