44404412
  -OEChem-09292322262D

 74 79  0     1  0  0  0  0  0999 V2000
    4.9556   -4.6502    0.0000 S   0  0  0  0  0  0  0  0  0  0  0  0
    6.1343    0.9180    0.0000 O   0  0  0  0  0  0  0  0  0  0  0  0
    7.0003    2.4180    0.0000 N   0  0  0  0  0  0  0  0  0  0  0  0
    4.4033   -0.1265    0.0000 N   0  0  0  0  0  0  0  0  0  0  0  0
    4.4264   -2.1264    0.0000 N   0  0  0  0  0  0  0  0  0  0  0  0
    5.2494   -3.7006    0.0000 N   0  0  0  0  0  0  0  0  0  0  0  0
    7.8663    0.9180    0.0000 C   0  0  0  0  0  0  0  0  0  0  0  0
    7.8663   -0.0820    0.0000 C   0  0  0  0  0  0  0  0  0  0  0  0
    8.7323    1.4180    0.0000 C   0  0  0  0  0  0  0  0  0  0  0  0
    7.0003    4.4180    0.0000 C   0  0  3  0  0  0  0  0  0  0  0  0
    6.1343    2.9180    0.0000 C   0  0  0  0  0  0  0  0  0  0  0  0
    8.7323   -0.5820    0.0000 C   0  0  0  0  0  0  0  0  0  0  0  0
    9.5984    0.9180    0.0000 C   0  0  0  0  0  0  0  0  0  0  0  0
    7.8663    2.9180    0.0000 C   0  0  0  0  0  0  0  0  0  0  0  0
    7.0003    1.4180    0.0000 C   0  0  0  0  0  0  0  0  0  0  0  0
    7.8663    3.9180    0.0000 C   0  0  0  0  0  0  0  0  0  0  0  0
    9.5984   -0.0820    0.0000 C   0  0  0  0  0  0  0  0  0  0  0  0
    6.1343    3.9180    0.0000 C   0  0  0  0  0  0  0  0  0  0  0  0
    5.2403    2.3834    0.0000 C   0  0  0  0  0  0  0  0  0  0  0  0
    5.2519    1.3834    0.0000 C   0  0  0  0  0  0  0  0  0  0  0  0
    4.3917    0.8734    0.0000 C   0  0  0  0  0  0  0  0  0  0  0  0
    7.0003    5.4180    0.0000 C   0  0  0  0  0  0  0  0  0  0  0  0
    5.2750   -0.6165    0.0000 C   0  0  0  0  0  0  0  0  0  0  0  0
    3.5431   -0.6365    0.0000 C   0  0  0  0  0  0  0  0  0  0  0  0
    5.2403    4.4527    0.0000 C   0  0  0  0  0  0  0  0  0  0  0  0
    5.2866   -1.6164    0.0000 C   0  0  0  0  0  0  0  0  0  0  0  0
    3.5546   -1.6364    0.0000 C   0  0  0  0  0  0  0  0  0  0  0  0
    4.3342    2.8972    0.0000 C   0  0  0  0  0  0  0  0  0  0  0  0
    4.3342    3.9388    0.0000 C   0  0  0  0  0  0  0  0  0  0  0  0
    4.4380   -3.1263    0.0000 C   0  0  0  0  0  0  0  0  0  0  0  0
    3.6400   -3.7192    0.0000 C   0  0  0  0  0  0  0  0  0  0  0  0
    3.9616   -4.6660    0.0000 C   0  0  0  0  0  0  0  0  0  0  0  0
    2.6592   -3.5243    0.0000 C   0  0  0  0  0  0  0  0  0  0  0  0
    3.3025   -5.4180    0.0000 C   0  0  0  0  0  0  0  0  0  0  0  0
    2.0000   -4.2763    0.0000 C   0  0  0  0  0  0  0  0  0  0  0  0
    2.3216   -5.2231    0.0000 C   0  0  0  0  0  0  0  0  0  0  0  0
    7.8663    1.5380    0.0000 H   0  0  0  0  0  0  0  0  0  0  0  0
    7.2557    0.0257    0.0000 H   0  0  0  0  0  0  0  0  0  0  0  0
    7.6543   -0.6646    0.0000 H   0  0  0  0  0  0  0  0  0  0  0  0
    9.1309    1.8930    0.0000 H   0  0  0  0  0  0  0  0  0  0  0  0
    8.3338    1.8930    0.0000 H   0  0  0  0  0  0  0  0  0  0  0  0
    7.5372    4.7280    0.0000 H   0  0  0  0  0  0  0  0  0  0  0  0
    8.3338   -1.0569    0.0000 H   0  0  0  0  0  0  0  0  0  0  0  0
    9.1309   -1.0569    0.0000 H   0  0  0  0  0  0  0  0  0  0  0  0
   10.2089    0.8103    0.0000 H   0  0  0  0  0  0  0  0  0  0  0  0
    9.8104    1.5006    0.0000 H   0  0  0  0  0  0  0  0  0  0  0  0
    8.0784    2.3354    0.0000 H   0  0  0  0  0  0  0  0  0  0  0  0
    8.4769    3.0257    0.0000 H   0  0  0  0  0  0  0  0  0  0  0  0
    8.4769    3.8104    0.0000 H   0  0  0  0  0  0  0  0  0  0  0  0
    8.0784    4.5006    0.0000 H   0  0  0  0  0  0  0  0  0  0  0  0
    9.8104   -0.6646    0.0000 H   0  0  0  0  0  0  0  0  0  0  0  0
   10.2089    0.0257    0.0000 H   0  0  0  0  0  0  0  0  0  0  0  0
    5.4707    0.8033    0.0000 H   0  0  0  0  0  0  0  0  0  0  0  0
    5.8612    1.4981    0.0000 H   0  0  0  0  0  0  0  0  0  0  0  0
    4.1729    1.4535    0.0000 H   0  0  0  0  0  0  0  0  0  0  0  0
    3.7824    0.7587    0.0000 H   0  0  0  0  0  0  0  0  0  0  0  0
    5.8868   -0.7170    0.0000 H   0  0  0  0  0  0  0  0  0  0  0  0
    5.4803   -0.0314    0.0000 H   0  0  0  0  0  0  0  0  0  0  0  0
    3.3243   -0.0564    0.0000 H   0  0  0  0  0  0  0  0  0  0  0  0
    2.9338   -0.7512    0.0000 H   0  0  0  0  0  0  0  0  0  0  0  0
    7.6203    5.4180    0.0000 H   0  0  0  0  0  0  0  0  0  0  0  0
    7.0003    6.0380    0.0000 H   0  0  0  0  0  0  0  0  0  0  0  0
    6.3803    5.4180    0.0000 H   0  0  0  0  0  0  0  0  0  0  0  0
    5.2475    5.0726    0.0000 H   0  0  0  0  0  0  0  0  0  0  0  0
    5.5054   -2.1965    0.0000 H   0  0  0  0  0  0  0  0  0  0  0  0
    5.8959   -1.5017    0.0000 H   0  0  0  0  0  0  0  0  0  0  0  0
    2.9428   -1.5358    0.0000 H   0  0  0  0  0  0  0  0  0  0  0  0
    3.3493   -2.2214    0.0000 H   0  0  0  0  0  0  0  0  0  0  0  0
    3.7985    2.5851    0.0000 H   0  0  0  0  0  0  0  0  0  0  0  0
    3.7985    4.2509    0.0000 H   0  0  0  0  0  0  0  0  0  0  0  0
    2.4598   -2.9372    0.0000 H   0  0  0  0  0  0  0  0  0  0  0  0
    3.5019   -6.0051    0.0000 H   0  0  0  0  0  0  0  0  0  0  0  0
    1.3919   -4.1554    0.0000 H   0  0  0  0  0  0  0  0  0  0  0  0
    1.9129   -5.6893    0.0000 H   0  0  0  0  0  0  0  0  0  0  0  0
  1  6  1  0  0  0  0
  1 32  1  0  0  0  0
  2 15  2  0  0  0  0
  3 11  1  0  0  0  0
  3 14  1  0  0  0  0
  3 15  1  0  0  0  0
  4 21  1  0  0  0  0
  4 23  1  0  0  0  0
  4 24  1  0  0  0  0
  5 26  1  0  0  0  0
  5 27  1  0  0  0  0
  5 30  1  0  0  0  0
  6 30  2  0  0  0  0
  7  8  1  0  0  0  0
  7  9  1  0  0  0  0
  7 15  1  0  0  0  0
  7 37  1  0  0  0  0
  8 12  1  0  0  0  0
  8 38  1  0  0  0  0
  8 39  1  0  0  0  0
  9 13  1  0  0  0  0
  9 40  1  0  0  0  0
  9 41  1  0  0  0  0
 10 16  1  0  0  0  0
 10 18  1  0  0  0  0
 10 22  1  0  0  0  0
 10 42  1  0  0  0  0
 11 18  1  0  0  0  0
 11 19  2  0  0  0  0
 12 17  1  0  0  0  0
 12 43  1  0  0  0  0
 12 44  1  0  0  0  0
 13 17  1  0  0  0  0
 13 45  1  0  0  0  0
 13 46  1  0  0  0  0
 14 16  1  0  0  0  0
 14 47  1  0  0  0  0
 14 48  1  0  0  0  0
 16 49  1  0  0  0  0
 16 50  1  0  0  0  0
 17 51  1  0  0  0  0
 17 52  1  0  0  0  0
 18 25  2  0  0  0  0
 19 20  1  0  0  0  0
 19 28  1  0  0  0  0
 20 21  1  0  0  0  0
 20 53  1  0  0  0  0
 20 54  1  0  0  0  0
 21 55  1  0  0  0  0
 21 56  1  0  0  0  0
 22 61  1  0  0  0  0
 22 62  1  0  0  0  0
 22 63  1  0  0  0  0
 23 26  1  0  0  0  0
 23 57  1  0  0  0  0
 23 58  1  0  0  0  0
 24 27  1  0  0  0  0
 24 59  1  0  0  0  0
 24 60  1  0  0  0  0
 25 29  1  0  0  0  0
 25 64  1  0  0  0  0
 26 65  1  0  0  0  0
 26 66  1  0  0  0  0
 27 67  1  0  0  0  0
 27 68  1  0  0  0  0
 28 29  2  0  0  0  0
 28 69  1  0  0  0  0
 29 70  1  0  0  0  0
 30 31  1  0  0  0  0
 31 32  1  0  0  0  0
 31 33  2  0  0  0  0
 32 34  2  0  0  0  0
 33 35  1  0  0  0  0
 33 71  1  0  0  0  0
 34 36  1  0  0  0  0
 34 72  1  0  0  0  0
 35 36  2  0  0  0  0
 35 73  1  0  0  0  0
 36 74  1  0  0  0  0
M  END
> <PUBCHEM_COMPOUND_CID>
44404412

> <PUBCHEM_COMPOUND_CANONICALIZED>
1

> <PUBCHEM_CACTVS_COMPLEXITY>
737

> <PUBCHEM_CACTVS_HBOND_ACCEPTOR>
5

> <PUBCHEM_CACTVS_HBOND_DONOR>
0

> <PUBCHEM_CACTVS_ROTATABLE_BOND>
5

> <PUBCHEM_CACTVS_SUBSKEYS>
AAADcfB7oABAAAAAAAAAAAAAAAAAAWAAAAA8eMECAAAAAFix9AAAHgQAQAAADQjB2gQz8dMAAACsAidycACDABAhAABJmDkoRJiIYLLAmZGUIAxghgLIyAcYiMCOgAACAAAGAAAAAAQAAAwAAAAAAAAAAA==

> <PUBCHEM_IUPAC_OPENEYE_NAME>
[8-[2-[4-(1,2-benzothiazol-3-yl)piperazin-1-yl]ethyl]-4-methyl-3,4-dihydro-2H-quinolin-1-yl]-cyclohexyl-methanone

> <PUBCHEM_IUPAC_CAS_NAME>
[8-[2-[4-(1,2-benzothiazol-3-yl)-1-piperazinyl]ethyl]-4-methyl-3,4-dihydro-2H-quinolin-1-yl]-cyclohexylmethanone

> <PUBCHEM_IUPAC_NAME_MARKUP>
[8-[2-[4-(1,2-benzothiazol-3-yl)piperazin-1-yl]ethyl]-4-methyl-3,4-dihydro-2<I>H</I>-quinolin-1-yl]-cyclohexylmethanone

> <PUBCHEM_IUPAC_NAME>
[8-[2-[4-(1,2-benzothiazol-3-yl)piperazin-1-yl]ethyl]-4-methyl-3,4-dihydro-2H-quinolin-1-yl]-cyclohexylmethanone

> <PUBCHEM_IUPAC_SYSTEMATIC_NAME>
[8-[2-[4-(1,2-benzothiazol-3-yl)piperazin-1-yl]ethyl]-4-methyl-3,4-dihydro-2H-quinolin-1-yl]-cyclohexyl-methanone

> <PUBCHEM_IUPAC_TRADITIONAL_NAME>
[8-[2-[4-(1,2-benzothiazol-3-yl)piperazino]ethyl]-4-methyl-3,4-dihydro-2H-quinolin-1-yl]-cyclohexyl-methanone

> <PUBCHEM_IUPAC_INCHI>
InChI=1S/C30H38N4OS/c1-22-14-17-34(30(35)24-8-3-2-4-9-24)28-23(10-7-12-25(22)28)15-16-32-18-20-33(21-19-32)29-26-11-5-6-13-27(26)36-31-29/h5-7,10-13,22,24H,2-4,8-9,14-21H2,1H3

> <PUBCHEM_IUPAC_INCHIKEY>
NUULIEKFIPBBLV-UHFFFAOYSA-N

> <PUBCHEM_XLOGP3_AA>
6.7

> <PUBCHEM_EXACT_MASS>
502.27663302

> <PUBCHEM_MOLECULAR_FORMULA>
C30H38N4OS

> <PUBCHEM_MOLECULAR_WEIGHT>
502.7

> <PUBCHEM_OPENEYE_CAN_SMILES>
CC1CCN(C2=C(C=CC=C12)CCN3CCN(CC3)C4=NSC5=CC=CC=C54)C(=O)C6CCCCC6

> <PUBCHEM_OPENEYE_ISO_SMILES>
CC1CCN(C2=C(C=CC=C12)CCN3CCN(CC3)C4=NSC5=CC=CC=C54)C(=O)C6CCCCC6

> <PUBCHEM_CACTVS_TPSA>
67.9

> <PUBCHEM_MONOISOTOPIC_WEIGHT>
502.27663302

> <PUBCHEM_TOTAL_CHARGE>
0

> <PUBCHEM_HEAVY_ATOM_COUNT>
36

> <PUBCHEM_ATOM_DEF_STEREO_COUNT>
0

> <PUBCHEM_ATOM_UDEF_STEREO_COUNT>
1

> <PUBCHEM_BOND_DEF_STEREO_COUNT>
0

> <PUBCHEM_BOND_UDEF_STEREO_COUNT>
0

> <PUBCHEM_ISOTOPIC_ATOM_COUNT>
0

> <PUBCHEM_COMPONENT_COUNT>
1

> <PUBCHEM_CACTVS_TAUTO_COUNT>
-1

> <PUBCHEM_COORDINATE_TYPE>
1
5
255

> <PUBCHEM_BONDANNOTATIONS>
1  32  8
1  6  8
10  22  3
11  18  8
11  19  8
18  25  8
19  28  8
25  29  8
28  29  8
30  31  8
31  32  8
31  33  8
32  34  8
33  35  8
34  36  8
35  36  8
6  30  8

$$$$
