44436762
  -OEChem-09292322252D

 68 72  0     1  0  0  0  0  0999 V2000
    4.9889    3.0427    0.0000 O   0  0  0  0  0  0  0  0  0  0  0  0
    4.9889   -0.4678    0.0000 O   0  0  0  0  0  0  0  0  0  0  0  0
    9.2619   -0.4446    0.0000 N   0  0  0  0  0  0  0  0  0  0  0  0
   12.2619   -0.4446    0.0000 N   0  0  3  0  0  0  0  0  0  0  0  0
    5.2619    1.2874    0.0000 N   0  0  0  0  0  0  0  0  0  0  0  0
   11.2619   -0.4446    0.0000 C   0  0  0  0  0  0  0  0  0  0  0  0
   10.7619   -1.3106    0.0000 C   0  0  0  0  0  0  0  0  0  0  0  0
   10.7619    0.4214    0.0000 C   0  0  0  0  0  0  0  0  0  0  0  0
    9.7619   -1.3106    0.0000 C   0  0  0  0  0  0  0  0  0  0  0  0
    9.7619    0.4214    0.0000 C   0  0  0  0  0  0  0  0  0  0  0  0
    8.2619   -0.4446    0.0000 C   0  0  0  0  0  0  0  0  0  0  0  0
    7.7619    0.4214    0.0000 C   0  0  0  0  0  0  0  0  0  0  0  0
   12.7619    0.4214    0.0000 C   0  0  0  0  0  0  0  0  0  0  0  0
   12.7619   -1.3106    0.0000 C   0  0  0  0  0  0  0  0  0  0  0  0
    6.7619    0.4214    0.0000 C   0  0  0  0  0  0  0  0  0  0  0  0
    6.2619    1.2874    0.0000 C   0  0  0  0  0  0  0  0  0  0  0  0
   13.7619    0.4214    0.0000 C   0  0  0  0  0  0  0  0  0  0  0  0
   12.2619   -2.1767    0.0000 C   0  0  0  0  0  0  0  0  0  0  0  0
   13.7619   -1.3106    0.0000 C   0  0  0  0  0  0  0  0  0  0  0  0
   14.2619   -0.4446    0.0000 C   0  0  0  0  0  0  0  0  0  0  0  0
   14.2619    1.2874    0.0000 C   0  0  0  0  0  0  0  0  0  0  0  0
   12.7619   -3.0427    0.0000 C   0  0  0  0  0  0  0  0  0  0  0  0
   14.2619   -2.1767    0.0000 C   0  0  0  0  0  0  0  0  0  0  0  0
    4.6783    2.0922    0.0000 C   0  0  0  0  0  0  0  0  0  0  0  0
    4.6783    0.4827    0.0000 C   0  0  0  0  0  0  0  0  0  0  0  0
    3.7320    1.7874    0.0000 C   0  0  0  0  0  0  0  0  0  0  0  0
    3.7320    0.7874    0.0000 C   0  0  0  0  0  0  0  0  0  0  0  0
   13.7619   -3.0427    0.0000 C   0  0  0  0  0  0  0  0  0  0  0  0
   15.2619   -0.4446    0.0000 C   0  0  0  0  0  0  0  0  0  0  0  0
   15.2619    1.2874    0.0000 C   0  0  0  0  0  0  0  0  0  0  0  0
   15.7619    0.4214    0.0000 C   0  0  0  0  0  0  0  0  0  0  0  0
    2.8660    2.2874    0.0000 C   0  0  0  0  0  0  0  0  0  0  0  0
    2.8660    0.2874    0.0000 C   0  0  0  0  0  0  0  0  0  0  0  0
    2.0000    1.7874    0.0000 C   0  0  0  0  0  0  0  0  0  0  0  0
    2.0000    0.7874    0.0000 C   0  0  0  0  0  0  0  0  0  0  0  0
   11.5719   -0.9815    0.0000 H   0  0  0  0  0  0  0  0  0  0  0  0
   10.6542   -1.9212    0.0000 H   0  0  0  0  0  0  0  0  0  0  0  0
   11.3445   -1.5227    0.0000 H   0  0  0  0  0  0  0  0  0  0  0  0
   11.3445    0.6335    0.0000 H   0  0  0  0  0  0  0  0  0  0  0  0
   10.6542    1.0320    0.0000 H   0  0  0  0  0  0  0  0  0  0  0  0
    9.1793   -1.5227    0.0000 H   0  0  0  0  0  0  0  0  0  0  0  0
    9.8695   -1.9212    0.0000 H   0  0  0  0  0  0  0  0  0  0  0  0
    9.8695    1.0320    0.0000 H   0  0  0  0  0  0  0  0  0  0  0  0
    9.1793    0.6335    0.0000 H   0  0  0  0  0  0  0  0  0  0  0  0
    7.6793   -0.6567    0.0000 H   0  0  0  0  0  0  0  0  0  0  0  0
    8.3695   -1.0552    0.0000 H   0  0  0  0  0  0  0  0  0  0  0  0
    8.3445    0.6335    0.0000 H   0  0  0  0  0  0  0  0  0  0  0  0
    7.6542    1.0320    0.0000 H   0  0  0  0  0  0  0  0  0  0  0  0
   12.8695    1.0320    0.0000 H   0  0  0  0  0  0  0  0  0  0  0  0
   12.1793    0.6335    0.0000 H   0  0  0  0  0  0  0  0  0  0  0  0
    6.1793    0.2094    0.0000 H   0  0  0  0  0  0  0  0  0  0  0  0
    6.8695   -0.1892    0.0000 H   0  0  0  0  0  0  0  0  0  0  0  0
    6.8445    1.4995    0.0000 H   0  0  0  0  0  0  0  0  0  0  0  0
    6.1542    1.8980    0.0000 H   0  0  0  0  0  0  0  0  0  0  0  0
   11.6419   -2.1767    0.0000 H   0  0  0  0  0  0  0  0  0  0  0  0
   14.0719   -0.7737    0.0000 H   0  0  0  0  0  0  0  0  0  0  0  0
   13.9519   -0.9815    0.0000 H   0  0  0  0  0  0  0  0  0  0  0  0
   13.9519    1.8244    0.0000 H   0  0  0  0  0  0  0  0  0  0  0  0
   12.4519   -3.5796    0.0000 H   0  0  0  0  0  0  0  0  0  0  0  0
   14.8819   -2.1767    0.0000 H   0  0  0  0  0  0  0  0  0  0  0  0
   14.0719   -3.5796    0.0000 H   0  0  0  0  0  0  0  0  0  0  0  0
   15.5719   -0.9815    0.0000 H   0  0  0  0  0  0  0  0  0  0  0  0
   15.5719    1.8244    0.0000 H   0  0  0  0  0  0  0  0  0  0  0  0
   16.3819    0.4214    0.0000 H   0  0  0  0  0  0  0  0  0  0  0  0
    2.8660    2.9074    0.0000 H   0  0  0  0  0  0  0  0  0  0  0  0
    2.8660   -0.3326    0.0000 H   0  0  0  0  0  0  0  0  0  0  0  0
    1.4631    2.0974    0.0000 H   0  0  0  0  0  0  0  0  0  0  0  0
    1.4631    0.4774    0.0000 H   0  0  0  0  0  0  0  0  0  0  0  0
  1 24  2  0  0  0  0
  2 25  2  0  0  0  0
  3  9  1  0  0  0  0
  3 10  1  0  0  0  0
  3 11  1  0  0  0  0
  4  6  1  0  0  0  0
  4 13  1  0  0  0  0
  4 14  1  0  0  0  0
  5 16  1  0  0  0  0
  5 24  1  0  0  0  0
  5 25  1  0  0  0  0
  6  7  1  0  0  0  0
  6  8  1  0  0  0  0
  6 36  1  0  0  0  0
  7  9  1  0  0  0  0
  7 37  1  0  0  0  0
  7 38  1  0  0  0  0
  8 10  1  0  0  0  0
  8 39  1  0  0  0  0
  8 40  1  0  0  0  0
  9 41  1  0  0  0  0
  9 42  1  0  0  0  0
 10 43  1  0  0  0  0
 10 44  1  0  0  0  0
 11 12  1  0  0  0  0
 11 45  1  0  0  0  0
 11 46  1  0  0  0  0
 12 15  1  0  0  0  0
 12 47  1  0  0  0  0
 12 48  1  0  0  0  0
 13 17  1  0  0  0  0
 13 49  1  0  0  0  0
 13 50  1  0  0  0  0
 14 18  2  0  0  0  0
 14 19  1  0  0  0  0
 15 16  1  0  0  0  0
 15 51  1  0  0  0  0
 15 52  1  0  0  0  0
 16 53  1  0  0  0  0
 16 54  1  0  0  0  0
 17 20  2  0  0  0  0
 17 21  1  0  0  0  0
 18 22  1  0  0  0  0
 18 55  1  0  0  0  0
 19 23  2  0  0  0  0
 19 56  1  0  0  0  0
 20 29  1  0  0  0  0
 20 57  1  0  0  0  0
 21 30  2  0  0  0  0
 21 58  1  0  0  0  0
 22 28  2  0  0  0  0
 22 59  1  0  0  0  0
 23 28  1  0  0  0  0
 23 60  1  0  0  0  0
 24 26  1  0  0  0  0
 25 27  1  0  0  0  0
 26 27  1  0  0  0  0
 26 32  2  0  0  0  0
 27 33  2  0  0  0  0
 28 61  1  0  0  0  0
 29 31  2  0  0  0  0
 29 62  1  0  0  0  0
 30 31  1  0  0  0  0
 30 63  1  0  0  0  0
 31 64  1  0  0  0  0
 32 34  1  0  0  0  0
 32 65  1  0  0  0  0
 33 35  1  0  0  0  0
 33 66  1  0  0  0  0
 34 35  2  0  0  0  0
 34 67  1  0  0  0  0
 35 68  1  0  0  0  0
M  END
> <PUBCHEM_COMPOUND_CID>
44436762

> <PUBCHEM_COMPOUND_CANONICALIZED>
1

> <PUBCHEM_CACTVS_COMPLEXITY>
668

> <PUBCHEM_CACTVS_HBOND_ACCEPTOR>
4

> <PUBCHEM_CACTVS_HBOND_DONOR>
0

> <PUBCHEM_CACTVS_ROTATABLE_BOND>
9

> <PUBCHEM_CACTVS_SUBSKEYS>
AAADcfB7MAAAAAAAAAAAAAAAAAAAAWAAAAA8YMEAAAAAAFgBUAAAHgAAAAAADCjBmAQwwIMAAACIAiVSUACCAAAlAgAIiAEIZMgIIDLA1ZGEIQhghiDIyYcdiICOgAAAAAAQAAAAAAAAACAAAAAAAAAAAA==

> <PUBCHEM_IUPAC_OPENEYE_NAME>
2-[4-[4-(N-benzylanilino)-1-piperidyl]butyl]isoindoline-1,3-dione

> <PUBCHEM_IUPAC_CAS_NAME>
2-[4-[4-(N-(phenylmethyl)anilino)-1-piperidinyl]butyl]isoindole-1,3-dione

> <PUBCHEM_IUPAC_NAME_MARKUP>
2-[4-[4-(<I>N</I>-benzylanilino)piperidin-1-yl]butyl]isoindole-1,3-dione

> <PUBCHEM_IUPAC_NAME>
2-[4-[4-(N-benzylanilino)piperidin-1-yl]butyl]isoindole-1,3-dione

> <PUBCHEM_IUPAC_SYSTEMATIC_NAME>
2-[4-[4-[phenyl-(phenylmethyl)amino]piperidin-1-yl]butyl]isoindole-1,3-dione

> <PUBCHEM_IUPAC_TRADITIONAL_NAME>
2-[4-[4-(N-benzylanilino)piperidino]butyl]isoindoline-1,3-quinone

> <PUBCHEM_IUPAC_INCHI>
InChI=1S/C30H33N3O2/c34-29-27-15-7-8-16-28(27)30(35)32(29)20-10-9-19-31-21-17-26(18-22-31)33(25-13-5-2-6-14-25)23-24-11-3-1-4-12-24/h1-8,11-16,26H,9-10,17-23H2

> <PUBCHEM_IUPAC_INCHIKEY>
GKIMLDRVPMXRGW-UHFFFAOYSA-N

> <PUBCHEM_XLOGP3_AA>
5.5

> <PUBCHEM_EXACT_MASS>
467.25727730

> <PUBCHEM_MOLECULAR_FORMULA>
C30H33N3O2

> <PUBCHEM_MOLECULAR_WEIGHT>
467.6

> <PUBCHEM_OPENEYE_CAN_SMILES>
C1CN(CCC1N(CC2=CC=CC=C2)C3=CC=CC=C3)CCCCN4C(=O)C5=CC=CC=C5C4=O

> <PUBCHEM_OPENEYE_ISO_SMILES>
C1CN(CCC1N(CC2=CC=CC=C2)C3=CC=CC=C3)CCCCN4C(=O)C5=CC=CC=C5C4=O

> <PUBCHEM_CACTVS_TPSA>
43.9

> <PUBCHEM_MONOISOTOPIC_WEIGHT>
467.25727730

> <PUBCHEM_TOTAL_CHARGE>
0

> <PUBCHEM_HEAVY_ATOM_COUNT>
35

> <PUBCHEM_ATOM_DEF_STEREO_COUNT>
0

> <PUBCHEM_ATOM_UDEF_STEREO_COUNT>
0

> <PUBCHEM_BOND_DEF_STEREO_COUNT>
0

> <PUBCHEM_BOND_UDEF_STEREO_COUNT>
0

> <PUBCHEM_ISOTOPIC_ATOM_COUNT>
0

> <PUBCHEM_COMPONENT_COUNT>
1

> <PUBCHEM_CACTVS_TAUTO_COUNT>
-1

> <PUBCHEM_COORDINATE_TYPE>
1
5
255

> <PUBCHEM_BONDANNOTATIONS>
14  18  8
14  19  8
17  20  8
17  21  8
18  22  8
19  23  8
20  29  8
21  30  8
22  28  8
23  28  8
26  27  8
26  32  8
27  33  8
29  31  8
30  31  8
32  34  8
33  35  8
34  35  8

$$$$
