44380921
  -OEChem-09292322222D

 62 64  0     1  0  0  0  0  0999 V2000
    6.3301   -3.3693    0.0000 Cl  0  0  0  0  0  0  0  0  0  0  0  0
    3.7320    0.1307    0.0000 O   0  0  0  0  0  0  0  0  0  0  0  0
    2.8660   -1.3693    0.0000 O   0  0  0  0  0  0  0  0  0  0  0  0
    7.4128    2.8331    0.0000 N   0  0  3  0  0  0  0  0  0  0  0  0
    5.4641    0.1307    0.0000 N   0  0  0  0  0  0  0  0  0  0  0  0
    4.5981   -4.3693    0.0000 N   0  0  0  0  0  0  0  0  0  0  0  0
    7.2437    1.2240    0.0000 C   0  0  2  0  0  0  0  0  0  0  0  0
    6.3301    1.6307    0.0000 C   0  0  2  0  0  0  0  0  0  0  0  0
    7.9128    1.9671    0.0000 C   0  0  0  0  0  0  0  0  0  0  0  0
    6.4347    2.6252    0.0000 C   0  0  0  0  0  0  0  0  0  0  0  0
    7.4516    0.2458    0.0000 C   0  0  0  0  0  0  0  0  0  0  0  0
    5.4641    1.1307    0.0000 C   0  0  0  0  0  0  0  0  0  0  0  0
    7.8195    3.7467    0.0000 C   0  0  0  0  0  0  0  0  0  0  0  0
    8.4026   -0.0632    0.0000 C   0  0  0  0  0  0  0  0  0  0  0  0
    8.8141    3.8512    0.0000 C   0  0  0  0  0  0  0  0  0  0  0  0
    8.6106   -1.0413    0.0000 C   0  0  0  0  0  0  0  0  0  0  0  0
    4.5981   -0.3693    0.0000 C   0  0  0  0  0  0  0  0  0  0  0  0
    9.2208    4.7648    0.0000 C   0  0  0  0  0  0  0  0  0  0  0  0
    9.4018    3.0422    0.0000 C   0  0  0  0  0  0  0  0  0  0  0  0
    4.5981   -1.3693    0.0000 C   0  0  0  0  0  0  0  0  0  0  0  0
   10.2153    4.8693    0.0000 C   0  0  0  0  0  0  0  0  0  0  0  0
   10.3964    3.1467    0.0000 C   0  0  0  0  0  0  0  0  0  0  0  0
   10.8031    4.0603    0.0000 C   0  0  0  0  0  0  0  0  0  0  0  0
    3.7320   -1.8693    0.0000 C   0  0  0  0  0  0  0  0  0  0  0  0
    5.4641   -1.8693    0.0000 C   0  0  0  0  0  0  0  0  0  0  0  0
    3.7320   -2.8693    0.0000 C   0  0  0  0  0  0  0  0  0  0  0  0
    5.4641   -2.8693    0.0000 C   0  0  0  0  0  0  0  0  0  0  0  0
    4.5981   -3.3693    0.0000 C   0  0  0  0  0  0  0  0  0  0  0  0
    2.0000   -1.8693    0.0000 C   0  0  0  0  0  0  0  0  0  0  0  0
    3.7320   -4.8693    0.0000 C   0  0  0  0  0  0  0  0  0  0  0  0
    6.7618    0.8338    0.0000 H   0  0  0  0  0  0  0  0  0  0  0  0
    5.8102    1.9684    0.0000 H   0  0  0  0  0  0  0  0  0  0  0  0
    8.3277    1.5064    0.0000 H   0  0  0  0  0  0  0  0  0  0  0  0
    8.4144    2.3315    0.0000 H   0  0  0  0  0  0  0  0  0  0  0  0
    6.3698    3.2418    0.0000 H   0  0  0  0  0  0  0  0  0  0  0  0
    5.8147    2.6252    0.0000 H   0  0  0  0  0  0  0  0  0  0  0  0
    6.8320    0.2242    0.0000 H   0  0  0  0  0  0  0  0  0  0  0  0
    7.3653   -0.3681    0.0000 H   0  0  0  0  0  0  0  0  0  0  0  0
    5.2520    1.7133    0.0000 H   0  0  0  0  0  0  0  0  0  0  0  0
    4.8535    1.0230    0.0000 H   0  0  0  0  0  0  0  0  0  0  0  0
    7.8628    4.3652    0.0000 H   0  0  0  0  0  0  0  0  0  0  0  0
    7.2180    3.8967    0.0000 H   0  0  0  0  0  0  0  0  0  0  0  0
    9.0223   -0.0416    0.0000 H   0  0  0  0  0  0  0  0  0  0  0  0
    8.4889    0.5508    0.0000 H   0  0  0  0  0  0  0  0  0  0  0  0
    6.0010   -0.1793    0.0000 H   0  0  0  0  0  0  0  0  0  0  0  0
    8.0041   -1.1702    0.0000 H   0  0  0  0  0  0  0  0  0  0  0  0
    8.7395   -1.6478    0.0000 H   0  0  0  0  0  0  0  0  0  0  0  0
    9.2170   -0.9124    0.0000 H   0  0  0  0  0  0  0  0  0  0  0  0
    8.8564    5.2664    0.0000 H   0  0  0  0  0  0  0  0  0  0  0  0
    9.1497    2.4758    0.0000 H   0  0  0  0  0  0  0  0  0  0  0  0
   10.4675    5.4357    0.0000 H   0  0  0  0  0  0  0  0  0  0  0  0
   10.7608    2.6451    0.0000 H   0  0  0  0  0  0  0  0  0  0  0  0
   11.4197    4.1251    0.0000 H   0  0  0  0  0  0  0  0  0  0  0  0
    6.0010   -1.5593    0.0000 H   0  0  0  0  0  0  0  0  0  0  0  0
    3.1951   -3.1793    0.0000 H   0  0  0  0  0  0  0  0  0  0  0  0
    5.1350   -4.6793    0.0000 H   0  0  0  0  0  0  0  0  0  0  0  0
    1.6900   -1.3324    0.0000 H   0  0  0  0  0  0  0  0  0  0  0  0
    1.4631   -2.1793    0.0000 H   0  0  0  0  0  0  0  0  0  0  0  0
    2.3100   -2.4062    0.0000 H   0  0  0  0  0  0  0  0  0  0  0  0
    3.4220   -4.3324    0.0000 H   0  0  0  0  0  0  0  0  0  0  0  0
    3.1951   -5.1793    0.0000 H   0  0  0  0  0  0  0  0  0  0  0  0
    4.0420   -5.4062    0.0000 H   0  0  0  0  0  0  0  0  0  0  0  0
  1 27  1  0  0  0  0
  2 17  2  0  0  0  0
  3 24  1  0  0  0  0
  3 29  1  0  0  0  0
  4  9  1  0  0  0  0
  4 10  1  0  0  0  0
  4 13  1  0  0  0  0
  5 12  1  0  0  0  0
  5 17  1  0  0  0  0
  5 45  1  0  0  0  0
  6 28  1  0  0  0  0
  6 30  1  0  0  0  0
  6 56  1  0  0  0  0
  7  8  1  0  0  0  0
  7  9  1  0  0  0  0
  7 11  1  6  0  0  0
  7 31  1  0  0  0  0
  8 10  1  0  0  0  0
  8 12  1  1  0  0  0
  8 32  1  0  0  0  0
  9 33  1  0  0  0  0
  9 34  1  0  0  0  0
 10 35  1  0  0  0  0
 10 36  1  0  0  0  0
 11 14  1  0  0  0  0
 11 37  1  0  0  0  0
 11 38  1  0  0  0  0
 12 39  1  0  0  0  0
 12 40  1  0  0  0  0
 13 15  1  0  0  0  0
 13 41  1  0  0  0  0
 13 42  1  0  0  0  0
 14 16  1  0  0  0  0
 14 43  1  0  0  0  0
 14 44  1  0  0  0  0
 15 18  2  0  0  0  0
 15 19  1  0  0  0  0
 16 46  1  0  0  0  0
 16 47  1  0  0  0  0
 16 48  1  0  0  0  0
 17 20  1  0  0  0  0
 18 21  1  0  0  0  0
 18 49  1  0  0  0  0
 19 22  2  0  0  0  0
 19 50  1  0  0  0  0
 20 24  1  0  0  0  0
 20 25  2  0  0  0  0
 21 23  2  0  0  0  0
 21 51  1  0  0  0  0
 22 23  1  0  0  0  0
 22 52  1  0  0  0  0
 23 53  1  0  0  0  0
 24 26  2  0  0  0  0
 25 27  1  0  0  0  0
 25 54  1  0  0  0  0
 26 28  1  0  0  0  0
 26 55  1  0  0  0  0
 27 28  2  0  0  0  0
 29 57  1  0  0  0  0
 29 58  1  0  0  0  0
 29 59  1  0  0  0  0
 30 60  1  0  0  0  0
 30 61  1  0  0  0  0
 30 62  1  0  0  0  0
M  END
> <PUBCHEM_COMPOUND_CID>
44380921

> <PUBCHEM_COMPOUND_CANONICALIZED>
1

> <PUBCHEM_CACTVS_COMPLEXITY>
529

> <PUBCHEM_CACTVS_HBOND_ACCEPTOR>
4

> <PUBCHEM_CACTVS_HBOND_DONOR>
2

> <PUBCHEM_CACTVS_ROTATABLE_BOND>
9

> <PUBCHEM_CACTVS_SUBSKEYS>
AAADcfB7MAAEAAAAAAAAAAAAAAAAAWAAAAAwYAAAAAAAAAABQAAAHgIQAAAADQ7BmCYyxoPABACIAiVSUACCCAAlJwAIiIEObsgMJjbF95vEMWhm9hnI6YeY2SOeiCAAIgAIABAQQABEABAAIAAAAAAAAA==

> <PUBCHEM_IUPAC_OPENEYE_NAME>
N-[[(3S,4R)-1-benzyl-4-propyl-pyrrolidin-3-yl]methyl]-5-chloro-2-methoxy-4-(methylamino)benzamide

> <PUBCHEM_IUPAC_CAS_NAME>
5-chloro-2-methoxy-4-(methylamino)-N-[[(3S,4R)-1-(phenylmethyl)-4-propyl-3-pyrrolidinyl]methyl]benzamide

> <PUBCHEM_IUPAC_NAME_MARKUP>
<I>N</I>-[[(3<I>S</I>,4<I>R</I>)-1-benzyl-4-propylpyrrolidin-3-yl]methyl]-5-chloro-2-methoxy-4-(methylamino)benzamide

> <PUBCHEM_IUPAC_NAME>
N-[[(3S,4R)-1-benzyl-4-propylpyrrolidin-3-yl]methyl]-5-chloro-2-methoxy-4-(methylamino)benzamide

> <PUBCHEM_IUPAC_SYSTEMATIC_NAME>
5-chloranyl-2-methoxy-4-(methylamino)-N-[[(3S,4R)-1-(phenylmethyl)-4-propyl-pyrrolidin-3-yl]methyl]benzamide

> <PUBCHEM_IUPAC_TRADITIONAL_NAME>
N-[[(3S,4R)-1-benzyl-4-propyl-pyrrolidin-3-yl]methyl]-5-chloro-2-methoxy-4-(methylamino)benzamide

> <PUBCHEM_IUPAC_INCHI>
InChI=1S/C24H32ClN3O2/c1-4-8-18-15-28(14-17-9-6-5-7-10-17)16-19(18)13-27-24(29)20-11-21(25)22(26-2)12-23(20)30-3/h5-7,9-12,18-19,26H,4,8,13-16H2,1-3H3,(H,27,29)/t18-,19-/m0/s1

> <PUBCHEM_IUPAC_INCHIKEY>
FPHFICIJDHPAHE-OALUTQOASA-N

> <PUBCHEM_XLOGP3_AA>
5

> <PUBCHEM_EXACT_MASS>
429.2183050

> <PUBCHEM_MOLECULAR_FORMULA>
C24H32ClN3O2

> <PUBCHEM_MOLECULAR_WEIGHT>
430.0

> <PUBCHEM_OPENEYE_CAN_SMILES>
CCCC1CN(CC1CNC(=O)C2=CC(=C(C=C2OC)NC)Cl)CC3=CC=CC=C3

> <PUBCHEM_OPENEYE_ISO_SMILES>
CCC[C@H]1CN(C[C@@H]1CNC(=O)C2=CC(=C(C=C2OC)NC)Cl)CC3=CC=CC=C3

> <PUBCHEM_CACTVS_TPSA>
53.6

> <PUBCHEM_MONOISOTOPIC_WEIGHT>
429.2183050

> <PUBCHEM_TOTAL_CHARGE>
0

> <PUBCHEM_HEAVY_ATOM_COUNT>
30

> <PUBCHEM_ATOM_DEF_STEREO_COUNT>
2

> <PUBCHEM_ATOM_UDEF_STEREO_COUNT>
0

> <PUBCHEM_BOND_DEF_STEREO_COUNT>
0

> <PUBCHEM_BOND_UDEF_STEREO_COUNT>
0

> <PUBCHEM_ISOTOPIC_ATOM_COUNT>
0

> <PUBCHEM_COMPONENT_COUNT>
1

> <PUBCHEM_CACTVS_TAUTO_COUNT>
-1

> <PUBCHEM_COORDINATE_TYPE>
1
5
255

> <PUBCHEM_BONDANNOTATIONS>
15  18  8
15  19  8
18  21  8
19  22  8
20  24  8
20  25  8
21  23  8
22  23  8
24  26  8
25  27  8
26  28  8
27  28  8
7  11  6
8  12  5

$$$$
