44310792
  -OEChem-09292322202D

 52 54  0     0  0  0  0  0  0999 V2000
    5.4641    6.7500    0.0000 Br  0  0  0  0  0  0  0  0  0  0  0  0
    6.3301    2.2500    0.0000 O   0  0  0  0  0  0  0  0  0  0  0  0
    2.8660   -1.7500    0.0000 N   0  0  0  0  0  0  0  0  0  0  0  0
    2.8660   -3.7500    0.0000 N   0  0  0  0  0  0  0  0  0  0  0  0
    4.5981    2.2500    0.0000 N   0  0  0  0  0  0  0  0  0  0  0  0
    3.7320   -2.2500    0.0000 C   0  0  0  0  0  0  0  0  0  0  0  0
    2.0000   -2.2500    0.0000 C   0  0  0  0  0  0  0  0  0  0  0  0
    3.7320   -3.2500    0.0000 C   0  0  0  0  0  0  0  0  0  0  0  0
    2.0000   -3.2500    0.0000 C   0  0  0  0  0  0  0  0  0  0  0  0
    2.8660   -0.7500    0.0000 C   0  0  0  0  0  0  0  0  0  0  0  0
    3.7320   -0.2500    0.0000 C   0  0  0  0  0  0  0  0  0  0  0  0
    3.7320    0.7500    0.0000 C   0  0  0  0  0  0  0  0  0  0  0  0
    2.8660   -4.7500    0.0000 C   0  0  0  0  0  0  0  0  0  0  0  0
    4.5981    1.2500    0.0000 C   0  0  0  0  0  0  0  0  0  0  0  0
    2.0000   -5.2500    0.0000 C   0  0  0  0  0  0  0  0  0  0  0  0
    3.7320   -5.2500    0.0000 C   0  0  0  0  0  0  0  0  0  0  0  0
    2.0000   -6.2500    0.0000 C   0  0  0  0  0  0  0  0  0  0  0  0
    3.7320   -6.2500    0.0000 C   0  0  0  0  0  0  0  0  0  0  0  0
    2.8660   -6.7500    0.0000 C   0  0  0  0  0  0  0  0  0  0  0  0
    5.4641    2.7500    0.0000 C   0  0  0  0  0  0  0  0  0  0  0  0
    5.4641    3.7500    0.0000 C   0  0  0  0  0  0  0  0  0  0  0  0
    6.3301    4.2500    0.0000 C   0  0  0  0  0  0  0  0  0  0  0  0
    4.5981    4.2500    0.0000 C   0  0  0  0  0  0  0  0  0  0  0  0
    6.3301    5.2500    0.0000 C   0  0  0  0  0  0  0  0  0  0  0  0
    4.5981    5.2500    0.0000 C   0  0  0  0  0  0  0  0  0  0  0  0
    5.4641    5.7500    0.0000 C   0  0  0  0  0  0  0  0  0  0  0  0
    4.3426   -2.3577    0.0000 H   0  0  0  0  0  0  0  0  0  0  0  0
    3.9441   -1.6674    0.0000 H   0  0  0  0  0  0  0  0  0  0  0  0
    1.7880   -1.6674    0.0000 H   0  0  0  0  0  0  0  0  0  0  0  0
    1.3894   -2.3577    0.0000 H   0  0  0  0  0  0  0  0  0  0  0  0
    3.9441   -3.8326    0.0000 H   0  0  0  0  0  0  0  0  0  0  0  0
    4.3426   -3.1423    0.0000 H   0  0  0  0  0  0  0  0  0  0  0  0
    1.3894   -3.1423    0.0000 H   0  0  0  0  0  0  0  0  0  0  0  0
    1.7880   -3.8326    0.0000 H   0  0  0  0  0  0  0  0  0  0  0  0
    2.6540   -0.1674    0.0000 H   0  0  0  0  0  0  0  0  0  0  0  0
    2.2554   -0.8577    0.0000 H   0  0  0  0  0  0  0  0  0  0  0  0
    3.9441   -0.8326    0.0000 H   0  0  0  0  0  0  0  0  0  0  0  0
    4.3426   -0.1423    0.0000 H   0  0  0  0  0  0  0  0  0  0  0  0
    3.5200    1.3326    0.0000 H   0  0  0  0  0  0  0  0  0  0  0  0
    3.1215    0.6423    0.0000 H   0  0  0  0  0  0  0  0  0  0  0  0
    4.8101    0.6674    0.0000 H   0  0  0  0  0  0  0  0  0  0  0  0
    5.2087    1.3577    0.0000 H   0  0  0  0  0  0  0  0  0  0  0  0
    1.4631   -4.9400    0.0000 H   0  0  0  0  0  0  0  0  0  0  0  0
    4.2690   -4.9400    0.0000 H   0  0  0  0  0  0  0  0  0  0  0  0
    4.0611    2.5600    0.0000 H   0  0  0  0  0  0  0  0  0  0  0  0
    1.4631   -6.5600    0.0000 H   0  0  0  0  0  0  0  0  0  0  0  0
    4.2690   -6.5600    0.0000 H   0  0  0  0  0  0  0  0  0  0  0  0
    2.8660   -7.3700    0.0000 H   0  0  0  0  0  0  0  0  0  0  0  0
    6.8671    3.9400    0.0000 H   0  0  0  0  0  0  0  0  0  0  0  0
    4.0611    3.9400    0.0000 H   0  0  0  0  0  0  0  0  0  0  0  0
    6.8671    5.5600    0.0000 H   0  0  0  0  0  0  0  0  0  0  0  0
    4.0611    5.5600    0.0000 H   0  0  0  0  0  0  0  0  0  0  0  0
  1 26  1  0  0  0  0
  2 20  2  0  0  0  0
  3  6  1  0  0  0  0
  3  7  1  0  0  0  0
  3 10  1  0  0  0  0
  4  8  1  0  0  0  0
  4  9  1  0  0  0  0
  4 13  1  0  0  0  0
  5 14  1  0  0  0  0
  5 20  1  0  0  0  0
  5 45  1  0  0  0  0
  6  8  1  0  0  0  0
  6 27  1  0  0  0  0
  6 28  1  0  0  0  0
  7  9  1  0  0  0  0
  7 29  1  0  0  0  0
  7 30  1  0  0  0  0
  8 31  1  0  0  0  0
  8 32  1  0  0  0  0
  9 33  1  0  0  0  0
  9 34  1  0  0  0  0
 10 11  1  0  0  0  0
 10 35  1  0  0  0  0
 10 36  1  0  0  0  0
 11 12  1  0  0  0  0
 11 37  1  0  0  0  0
 11 38  1  0  0  0  0
 12 14  1  0  0  0  0
 12 39  1  0  0  0  0
 12 40  1  0  0  0  0
 13 15  2  0  0  0  0
 13 16  1  0  0  0  0
 14 41  1  0  0  0  0
 14 42  1  0  0  0  0
 15 17  1  0  0  0  0
 15 43  1  0  0  0  0
 16 18  2  0  0  0  0
 16 44  1  0  0  0  0
 17 19  2  0  0  0  0
 17 46  1  0  0  0  0
 18 19  1  0  0  0  0
 18 47  1  0  0  0  0
 19 48  1  0  0  0  0
 20 21  1  0  0  0  0
 21 22  2  0  0  0  0
 21 23  1  0  0  0  0
 22 24  1  0  0  0  0
 22 49  1  0  0  0  0
 23 25  2  0  0  0  0
 23 50  1  0  0  0  0
 24 26  2  0  0  0  0
 24 51  1  0  0  0  0
 25 26  1  0  0  0  0
 25 52  1  0  0  0  0
M  END
> <PUBCHEM_COMPOUND_CID>
44310792

> <PUBCHEM_COMPOUND_CANONICALIZED>
1

> <PUBCHEM_CACTVS_COMPLEXITY>
412

> <PUBCHEM_CACTVS_HBOND_ACCEPTOR>
3

> <PUBCHEM_CACTVS_HBOND_DONOR>
1

> <PUBCHEM_CACTVS_ROTATABLE_BOND>
7

> <PUBCHEM_CACTVS_SUBSKEYS>
AAADceB7IAAAEAAAAAAAAAAAAAAAAAAAAAA8YIAAAAAAAAABQAAAHgBQAAABrAjBmAQwwIPAAACIAiVSUACCAAAlAgQIiIEIZOgIYDLAlZGUIQhglgDIy5cYiACOAgAAAAAAAAAEAAAAAAAAAAAAAAAAAA==

> <PUBCHEM_IUPAC_OPENEYE_NAME>
4-bromo-N-[4-(4-phenylpiperazin-1-yl)butyl]benzamide

> <PUBCHEM_IUPAC_CAS_NAME>
4-bromo-N-[4-(4-phenyl-1-piperazinyl)butyl]benzamide

> <PUBCHEM_IUPAC_NAME_MARKUP>
4-bromo-<I>N</I>-[4-(4-phenylpiperazin-1-yl)butyl]benzamide

> <PUBCHEM_IUPAC_NAME>
4-bromo-N-[4-(4-phenylpiperazin-1-yl)butyl]benzamide

> <PUBCHEM_IUPAC_SYSTEMATIC_NAME>
4-bromanyl-N-[4-(4-phenylpiperazin-1-yl)butyl]benzamide

> <PUBCHEM_IUPAC_TRADITIONAL_NAME>
4-bromo-N-[4-(4-phenylpiperazino)butyl]benzamide

> <PUBCHEM_IUPAC_INCHI>
InChI=1S/C21H26BrN3O/c22-19-10-8-18(9-11-19)21(26)23-12-4-5-13-24-14-16-25(17-15-24)20-6-2-1-3-7-20/h1-3,6-11H,4-5,12-17H2,(H,23,26)

> <PUBCHEM_IUPAC_INCHIKEY>
NMOIRTBGCJKGJY-UHFFFAOYSA-N

> <PUBCHEM_XLOGP3_AA>
4.2

> <PUBCHEM_EXACT_MASS>
415.12593

> <PUBCHEM_MOLECULAR_FORMULA>
C21H26BrN3O

> <PUBCHEM_MOLECULAR_WEIGHT>
416.4

> <PUBCHEM_OPENEYE_CAN_SMILES>
C1CN(CCN1CCCCNC(=O)C2=CC=C(C=C2)Br)C3=CC=CC=C3

> <PUBCHEM_OPENEYE_ISO_SMILES>
C1CN(CCN1CCCCNC(=O)C2=CC=C(C=C2)Br)C3=CC=CC=C3

> <PUBCHEM_CACTVS_TPSA>
35.6

> <PUBCHEM_MONOISOTOPIC_WEIGHT>
415.12593

> <PUBCHEM_TOTAL_CHARGE>
0

> <PUBCHEM_HEAVY_ATOM_COUNT>
26

> <PUBCHEM_ATOM_DEF_STEREO_COUNT>
0

> <PUBCHEM_ATOM_UDEF_STEREO_COUNT>
0

> <PUBCHEM_BOND_DEF_STEREO_COUNT>
0

> <PUBCHEM_BOND_UDEF_STEREO_COUNT>
0

> <PUBCHEM_ISOTOPIC_ATOM_COUNT>
0

> <PUBCHEM_COMPONENT_COUNT>
1

> <PUBCHEM_CACTVS_TAUTO_COUNT>
-1

> <PUBCHEM_COORDINATE_TYPE>
1
5
255

> <PUBCHEM_BONDANNOTATIONS>
13  15  8
13  16  8
15  17  8
16  18  8
17  19  8
18  19  8
21  22  8
21  23  8
22  24  8
23  25  8
24  26  8
25  26  8

$$$$
