127051039
  -OEChem-09292322052D

 59 61  0     0  0  0  0  0  0999 V2000
    2.0000   -5.0000    0.0000 Cl  0  0  0  0  0  0  0  0  0  0  0  0
    2.0000   -7.0000    0.0000 Cl  0  0  0  0  0  0  0  0  0  0  0  0
    5.4641    2.0000    0.0000 O   0  0  0  0  0  0  0  0  0  0  0  0
    6.3301    5.5000    0.0000 O   0  0  0  0  0  0  0  0  0  0  0  0
    3.7320   -2.0000    0.0000 N   0  0  0  0  0  0  0  0  0  0  0  0
    3.7320   -4.0000    0.0000 N   0  0  0  0  0  0  0  0  0  0  0  0
    8.0622    5.5000    0.0000 N   0  0  0  0  0  0  0  0  0  0  0  0
    2.8660   -2.5000    0.0000 C   0  0  0  0  0  0  0  0  0  0  0  0
    4.5981   -2.5000    0.0000 C   0  0  0  0  0  0  0  0  0  0  0  0
    2.8660   -3.5000    0.0000 C   0  0  0  0  0  0  0  0  0  0  0  0
    4.5981   -3.5000    0.0000 C   0  0  0  0  0  0  0  0  0  0  0  0
    3.7320   -1.0000    0.0000 C   0  0  0  0  0  0  0  0  0  0  0  0
    4.5981   -0.5000    0.0000 C   0  0  0  0  0  0  0  0  0  0  0  0
    3.7320   -5.0000    0.0000 C   0  0  0  0  0  0  0  0  0  0  0  0
    4.5981    0.5000    0.0000 C   0  0  0  0  0  0  0  0  0  0  0  0
    5.4641    1.0000    0.0000 C   0  0  0  0  0  0  0  0  0  0  0  0
    2.8660   -5.5000    0.0000 C   0  0  0  0  0  0  0  0  0  0  0  0
    4.5981   -5.5000    0.0000 C   0  0  0  0  0  0  0  0  0  0  0  0
    2.8660   -6.5000    0.0000 C   0  0  0  0  0  0  0  0  0  0  0  0
    4.5981   -6.5000    0.0000 C   0  0  0  0  0  0  0  0  0  0  0  0
    3.7320   -7.0000    0.0000 C   0  0  0  0  0  0  0  0  0  0  0  0
    6.3301    2.5000    0.0000 C   0  0  0  0  0  0  0  0  0  0  0  0
    6.3301    3.5000    0.0000 C   0  0  0  0  0  0  0  0  0  0  0  0
    7.1962    2.0000    0.0000 C   0  0  0  0  0  0  0  0  0  0  0  0
    7.1962    4.0000    0.0000 C   0  0  0  0  0  0  0  0  0  0  0  0
    8.0622    2.5000    0.0000 C   0  0  0  0  0  0  0  0  0  0  0  0
    8.0622    3.5000    0.0000 C   0  0  0  0  0  0  0  0  0  0  0  0
    7.1962    5.0000    0.0000 C   0  0  0  0  0  0  0  0  0  0  0  0
    8.0622    6.5000    0.0000 C   0  0  0  0  0  0  0  0  0  0  0  0
    8.9282    7.0000    0.0000 C   0  0  0  0  0  0  0  0  0  0  0  0
    2.6540   -1.9174    0.0000 H   0  0  0  0  0  0  0  0  0  0  0  0
    2.2554   -2.6077    0.0000 H   0  0  0  0  0  0  0  0  0  0  0  0
    5.2087   -2.6077    0.0000 H   0  0  0  0  0  0  0  0  0  0  0  0
    4.8101   -1.9174    0.0000 H   0  0  0  0  0  0  0  0  0  0  0  0
    2.2554   -3.3923    0.0000 H   0  0  0  0  0  0  0  0  0  0  0  0
    2.6540   -4.0826    0.0000 H   0  0  0  0  0  0  0  0  0  0  0  0
    4.8101   -4.0826    0.0000 H   0  0  0  0  0  0  0  0  0  0  0  0
    5.2087   -3.3923    0.0000 H   0  0  0  0  0  0  0  0  0  0  0  0
    3.5200   -0.4174    0.0000 H   0  0  0  0  0  0  0  0  0  0  0  0
    3.1215   -1.1077    0.0000 H   0  0  0  0  0  0  0  0  0  0  0  0
    4.8101   -1.0826    0.0000 H   0  0  0  0  0  0  0  0  0  0  0  0
    5.2087   -0.3923    0.0000 H   0  0  0  0  0  0  0  0  0  0  0  0
    4.3860    1.0826    0.0000 H   0  0  0  0  0  0  0  0  0  0  0  0
    3.9875    0.3923    0.0000 H   0  0  0  0  0  0  0  0  0  0  0  0
    5.6762    0.4174    0.0000 H   0  0  0  0  0  0  0  0  0  0  0  0
    6.0747    1.1077    0.0000 H   0  0  0  0  0  0  0  0  0  0  0  0
    5.1350   -5.1900    0.0000 H   0  0  0  0  0  0  0  0  0  0  0  0
    5.1350   -6.8100    0.0000 H   0  0  0  0  0  0  0  0  0  0  0  0
    3.7320   -7.6200    0.0000 H   0  0  0  0  0  0  0  0  0  0  0  0
    5.7932    3.8100    0.0000 H   0  0  0  0  0  0  0  0  0  0  0  0
    7.1962    1.3800    0.0000 H   0  0  0  0  0  0  0  0  0  0  0  0
    8.5991    2.1900    0.0000 H   0  0  0  0  0  0  0  0  0  0  0  0
    8.5991    3.8100    0.0000 H   0  0  0  0  0  0  0  0  0  0  0  0
    8.5991    5.1900    0.0000 H   0  0  0  0  0  0  0  0  0  0  0  0
    7.8501    7.0826    0.0000 H   0  0  0  0  0  0  0  0  0  0  0  0
    7.4516    6.3923    0.0000 H   0  0  0  0  0  0  0  0  0  0  0  0
    9.2382    6.4631    0.0000 H   0  0  0  0  0  0  0  0  0  0  0  0
    9.4651    7.3100    0.0000 H   0  0  0  0  0  0  0  0  0  0  0  0
    8.6182    7.5369    0.0000 H   0  0  0  0  0  0  0  0  0  0  0  0
  1 17  1  0  0  0  0
  2 19  1  0  0  0  0
  3 16  1  0  0  0  0
  3 22  1  0  0  0  0
  4 28  2  0  0  0  0
  5  8  1  0  0  0  0
  5  9  1  0  0  0  0
  5 12  1  0  0  0  0
  6 10  1  0  0  0  0
  6 11  1  0  0  0  0
  6 14  1  0  0  0  0
  7 28  1  0  0  0  0
  7 29  1  0  0  0  0
  7 54  1  0  0  0  0
  8 10  1  0  0  0  0
  8 31  1  0  0  0  0
  8 32  1  0  0  0  0
  9 11  1  0  0  0  0
  9 33  1  0  0  0  0
  9 34  1  0  0  0  0
 10 35  1  0  0  0  0
 10 36  1  0  0  0  0
 11 37  1  0  0  0  0
 11 38  1  0  0  0  0
 12 13  1  0  0  0  0
 12 39  1  0  0  0  0
 12 40  1  0  0  0  0
 13 15  1  0  0  0  0
 13 41  1  0  0  0  0
 13 42  1  0  0  0  0
 14 17  2  0  0  0  0
 14 18  1  0  0  0  0
 15 16  1  0  0  0  0
 15 43  1  0  0  0  0
 15 44  1  0  0  0  0
 16 45  1  0  0  0  0
 16 46  1  0  0  0  0
 17 19  1  0  0  0  0
 18 20  2  0  0  0  0
 18 47  1  0  0  0  0
 19 21  2  0  0  0  0
 20 21  1  0  0  0  0
 20 48  1  0  0  0  0
 21 49  1  0  0  0  0
 22 23  1  0  0  0  0
 22 24  2  0  0  0  0
 23 25  2  0  0  0  0
 23 50  1  0  0  0  0
 24 26  1  0  0  0  0
 24 51  1  0  0  0  0
 25 27  1  0  0  0  0
 25 28  1  0  0  0  0
 26 27  2  0  0  0  0
 26 52  1  0  0  0  0
 27 53  1  0  0  0  0
 29 30  1  0  0  0  0
 29 55  1  0  0  0  0
 29 56  1  0  0  0  0
 30 57  1  0  0  0  0
 30 58  1  0  0  0  0
 30 59  1  0  0  0  0
M  END
> <PUBCHEM_COMPOUND_CID>
127051039

> <PUBCHEM_COMPOUND_CANONICALIZED>
1

> <PUBCHEM_CACTVS_COMPLEXITY>
517

> <PUBCHEM_CACTVS_HBOND_ACCEPTOR>
4

> <PUBCHEM_CACTVS_HBOND_DONOR>
1

> <PUBCHEM_CACTVS_ROTATABLE_BOND>
9

> <PUBCHEM_CACTVS_SUBSKEYS>
AAADceB7MAAGAAAAAAAAAAAAAAAAAAAAAAA8YIAAAAAAAAABQAAAHgIQAAAADA7hmCYyxoPABACIAiVSUACCCAAlJwAIisEObsgMZjLFt5vWOSjk1hHI6Ye6yBCOAAABAAIAABQAAAIABAAAKAAAAAAAAA==

> <PUBCHEM_IUPAC_OPENEYE_NAME>
3-[4-[4-(2,3-dichlorophenyl)piperazin-1-yl]butoxy]-N-ethyl-benzamide

> <PUBCHEM_IUPAC_CAS_NAME>
3-[4-[4-(2,3-dichlorophenyl)-1-piperazinyl]butoxy]-N-ethylbenzamide

> <PUBCHEM_IUPAC_NAME_MARKUP>
3-[4-[4-(2,3-dichlorophenyl)piperazin-1-yl]butoxy]-<I>N</I>-ethylbenzamide

> <PUBCHEM_IUPAC_NAME>
3-[4-[4-(2,3-dichlorophenyl)piperazin-1-yl]butoxy]-N-ethylbenzamide

> <PUBCHEM_IUPAC_SYSTEMATIC_NAME>
3-[4-[4-[2,3-bis(chloranyl)phenyl]piperazin-1-yl]butoxy]-N-ethyl-benzamide

> <PUBCHEM_IUPAC_TRADITIONAL_NAME>
3-[4-[4-(2,3-dichlorophenyl)piperazino]butoxy]-N-ethyl-benzamide

> <PUBCHEM_IUPAC_INCHI>
InChI=1S/C23H29Cl2N3O2/c1-2-26-23(29)18-7-5-8-19(17-18)30-16-4-3-11-27-12-14-28(15-13-27)21-10-6-9-20(24)22(21)25/h5-10,17H,2-4,11-16H2,1H3,(H,26,29)

> <PUBCHEM_IUPAC_INCHIKEY>
JVLDTZWMLFDIDQ-UHFFFAOYSA-N

> <PUBCHEM_XLOGP3_AA>
5.1

> <PUBCHEM_EXACT_MASS>
449.1636826

> <PUBCHEM_MOLECULAR_FORMULA>
C23H29Cl2N3O2

> <PUBCHEM_MOLECULAR_WEIGHT>
450.4

> <PUBCHEM_OPENEYE_CAN_SMILES>
CCNC(=O)C1=CC(=CC=C1)OCCCCN2CCN(CC2)C3=C(C(=CC=C3)Cl)Cl

> <PUBCHEM_OPENEYE_ISO_SMILES>
CCNC(=O)C1=CC(=CC=C1)OCCCCN2CCN(CC2)C3=C(C(=CC=C3)Cl)Cl

> <PUBCHEM_CACTVS_TPSA>
44.8

> <PUBCHEM_MONOISOTOPIC_WEIGHT>
449.1636826

> <PUBCHEM_TOTAL_CHARGE>
0

> <PUBCHEM_HEAVY_ATOM_COUNT>
30

> <PUBCHEM_ATOM_DEF_STEREO_COUNT>
0

> <PUBCHEM_ATOM_UDEF_STEREO_COUNT>
0

> <PUBCHEM_BOND_DEF_STEREO_COUNT>
0

> <PUBCHEM_BOND_UDEF_STEREO_COUNT>
0

> <PUBCHEM_ISOTOPIC_ATOM_COUNT>
0

> <PUBCHEM_COMPONENT_COUNT>
1

> <PUBCHEM_CACTVS_TAUTO_COUNT>
-1

> <PUBCHEM_COORDINATE_TYPE>
1
5
255

> <PUBCHEM_BONDANNOTATIONS>
14  17  8
14  18  8
17  19  8
18  20  8
19  21  8
20  21  8
22  23  8
22  24  8
23  25  8
24  26  8
25  27  8
26  27  8

$$$$
