155565768
  -OEChem-09292322462D

 68 70  0     1  0  0  0  0  0999 V2000
    6.7654    0.0000    0.0000 Cl  0  0  0  0  0  0  0  0  0  0  0  0
   14.1648   12.4126    0.0000 F   0  0  0  0  0  0  0  0  0  0  0  0
   14.5309   11.0466    0.0000 F   0  0  0  0  0  0  0  0  0  0  0  0
   12.7988   12.0466    0.0000 F   0  0  0  0  0  0  0  0  0  0  0  0
    5.2988    3.2524    0.0000 O   0  0  0  0  0  0  0  0  0  0  0  0
    9.2988    6.7165    0.0000 N   0  0  3  0  0  0  0  0  0  0  0  0
    5.2988    4.9844    0.0000 N   0  0  0  0  0  0  0  0  0  0  0  0
    3.2152    3.3137    0.0000 N   0  0  0  0  0  0  0  0  0  0  0  0
   10.7988    7.5825    0.0000 C   0  0  3  0  0  0  0  0  0  0  0  0
   11.6648    8.0825    0.0000 C   0  0  3  0  0  0  0  0  0  0  0  0
   11.6648    7.0825    0.0000 C   0  0  0  0  0  0  0  0  0  0  0  0
    9.7988    7.5825    0.0000 C   0  0  0  0  0  0  0  0  0  0  0  0
   12.1648    8.9485    0.0000 C   0  0  0  0  0  0  0  0  0  0  0  0
    8.2988    6.7165    0.0000 C   0  0  0  0  0  0  0  0  0  0  0  0
   11.6648    9.8146    0.0000 C   0  0  0  0  0  0  0  0  0  0  0  0
   13.1648    8.9485    0.0000 C   0  0  0  0  0  0  0  0  0  0  0  0
    9.7988    5.8505    0.0000 C   0  0  0  0  0  0  0  0  0  0  0  0
    7.7988    5.8505    0.0000 C   0  0  0  0  0  0  0  0  0  0  0  0
    9.2988    4.9844    0.0000 C   0  0  0  0  0  0  0  0  0  0  0  0
   12.1648   10.6806    0.0000 C   0  0  0  0  0  0  0  0  0  0  0  0
   13.6648    9.8146    0.0000 C   0  0  0  0  0  0  0  0  0  0  0  0
   13.1648   10.6806    0.0000 C   0  0  0  0  0  0  0  0  0  0  0  0
    6.7988    5.8505    0.0000 C   0  0  0  0  0  0  0  0  0  0  0  0
    9.7988    4.1184    0.0000 C   0  0  0  0  0  0  0  0  0  0  0  0
   13.6648   11.5466    0.0000 C   0  0  0  0  0  0  0  0  0  0  0  0
    6.2988    4.9844    0.0000 C   0  0  0  0  0  0  0  0  0  0  0  0
    4.7988    4.1184    0.0000 C   0  0  0  0  0  0  0  0  0  0  0  0
    3.7988    4.1184    0.0000 C   0  0  0  0  0  0  0  0  0  0  0  0
    3.2152    4.9231    0.0000 C   0  0  0  0  0  0  0  0  0  0  0  0
    2.2690    3.6184    0.0000 C   0  0  0  0  0  0  0  0  0  0  0  0
    2.2690    4.6184    0.0000 C   0  0  0  0  0  0  0  0  0  0  0  0
    1.4030    3.1184    0.0000 C   0  0  0  0  0  0  0  0  0  0  0  0
    1.4030    5.1184    0.0000 C   0  0  0  0  0  0  0  0  0  0  0  0
    0.5369    3.6184    0.0000 C   0  0  0  0  0  0  0  0  0  0  0  0
    0.5369    4.6184    0.0000 C   0  0  0  0  0  0  0  0  0  0  0  0
   10.6383    8.1814    0.0000 H   0  0  0  0  0  0  0  0  0  0  0  0
   11.2264    8.5209    0.0000 H   0  0  0  0  0  0  0  0  0  0  0  0
   11.4528    6.4999    0.0000 H   0  0  0  0  0  0  0  0  0  0  0  0
   12.2754    6.9748    0.0000 H   0  0  0  0  0  0  0  0  0  0  0  0
    9.9065    8.1931    0.0000 H   0  0  0  0  0  0  0  0  0  0  0  0
    9.2162    7.7946    0.0000 H   0  0  0  0  0  0  0  0  0  0  0  0
    8.4065    7.3271    0.0000 H   0  0  0  0  0  0  0  0  0  0  0  0
    7.7162    6.9285    0.0000 H   0  0  0  0  0  0  0  0  0  0  0  0
   11.0448    9.8146    0.0000 H   0  0  0  0  0  0  0  0  0  0  0  0
   13.4748    8.4116    0.0000 H   0  0  0  0  0  0  0  0  0  0  0  0
   10.2738    5.4519    0.0000 H   0  0  0  0  0  0  0  0  0  0  0  0
   10.2738    6.2490    0.0000 H   0  0  0  0  0  0  0  0  0  0  0  0
    7.6912    5.2399    0.0000 H   0  0  0  0  0  0  0  0  0  0  0  0
    8.3814    5.6384    0.0000 H   0  0  0  0  0  0  0  0  0  0  0  0
    8.8239    5.3830    0.0000 H   0  0  0  0  0  0  0  0  0  0  0  0
    8.8239    4.5859    0.0000 H   0  0  0  0  0  0  0  0  0  0  0  0
   11.8548   11.2175    0.0000 H   0  0  0  0  0  0  0  0  0  0  0  0
   14.2848    9.8146    0.0000 H   0  0  0  0  0  0  0  0  0  0  0  0
    6.9065    6.4610    0.0000 H   0  0  0  0  0  0  0  0  0  0  0  0
    6.2162    6.0625    0.0000 H   0  0  0  0  0  0  0  0  0  0  0  0
    9.2619    3.8084    0.0000 H   0  0  0  0  0  0  0  0  0  0  0  0
   10.1088    3.5815    0.0000 H   0  0  0  0  0  0  0  0  0  0  0  0
   10.3358    4.4284    0.0000 H   0  0  0  0  0  0  0  0  0  0  0  0
    6.1912    4.3738    0.0000 H   0  0  0  0  0  0  0  0  0  0  0  0
    6.8814    4.7724    0.0000 H   0  0  0  0  0  0  0  0  0  0  0  0
    4.9888    5.5214    0.0000 H   0  0  0  0  0  0  0  0  0  0  0  0
    3.4078    2.7243    0.0000 H   0  0  0  0  0  0  0  0  0  0  0  0
    3.4078    5.5124    0.0000 H   0  0  0  0  0  0  0  0  0  0  0  0
    1.4030    2.4984    0.0000 H   0  0  0  0  0  0  0  0  0  0  0  0
    1.4030    5.7384    0.0000 H   0  0  0  0  0  0  0  0  0  0  0  0
    0.0000    3.3084    0.0000 H   0  0  0  0  0  0  0  0  0  0  0  0
    0.0000    4.9284    0.0000 H   0  0  0  0  0  0  0  0  0  0  0  0
    7.7654    0.0000    0.0000 H   0  0  0  0  0  0  0  0  0  0  0  0
  1 68  1  0  0  0  0
  2 25  1  0  0  0  0
  3 25  1  0  0  0  0
  4 25  1  0  0  0  0
  5 27  2  0  0  0  0
  6 12  1  0  0  0  0
  6 14  1  0  0  0  0
  6 17  1  0  0  0  0
  7 26  1  0  0  0  0
  7 27  1  0  0  0  0
  7 61  1  0  0  0  0
  8 28  1  0  0  0  0
  8 30  1  0  0  0  0
  8 62  1  0  0  0  0
  9 10  1  0  0  0  0
  9 11  1  0  0  0  0
  9 12  1  0  0  0  0
  9 36  1  0  0  0  0
 10 11  1  0  0  0  0
 10 13  1  0  0  0  0
 10 37  1  0  0  0  0
 11 38  1  0  0  0  0
 11 39  1  0  0  0  0
 12 40  1  0  0  0  0
 12 41  1  0  0  0  0
 13 15  2  0  0  0  0
 13 16  1  0  0  0  0
 14 18  1  0  0  0  0
 14 42  1  0  0  0  0
 14 43  1  0  0  0  0
 15 20  1  0  0  0  0
 15 44  1  0  0  0  0
 16 21  2  0  0  0  0
 16 45  1  0  0  0  0
 17 19  1  0  0  0  0
 17 46  1  0  0  0  0
 17 47  1  0  0  0  0
 18 23  1  0  0  0  0
 18 48  1  0  0  0  0
 18 49  1  0  0  0  0
 19 24  1  0  0  0  0
 19 50  1  0  0  0  0
 19 51  1  0  0  0  0
 20 22  2  0  0  0  0
 20 52  1  0  0  0  0
 21 22  1  0  0  0  0
 21 53  1  0  0  0  0
 22 25  1  0  0  0  0
 23 26  1  0  0  0  0
 23 54  1  0  0  0  0
 23 55  1  0  0  0  0
 24 56  1  0  0  0  0
 24 57  1  0  0  0  0
 24 58  1  0  0  0  0
 26 59  1  0  0  0  0
 26 60  1  0  0  0  0
 27 28  1  0  0  0  0
 28 29  2  0  0  0  0
 29 31  1  0  0  0  0
 29 63  1  0  0  0  0
 30 31  1  0  0  0  0
 30 32  2  0  0  0  0
 31 33  2  0  0  0  0
 32 34  1  0  0  0  0
 32 64  1  0  0  0  0
 33 35  1  0  0  0  0
 33 65  1  0  0  0  0
 34 35  2  0  0  0  0
 34 66  1  0  0  0  0
 35 67  1  0  0  0  0
M  END
> <PUBCHEM_COMPOUND_CID>
155565768

> <PUBCHEM_COMPOUND_CANONICALIZED>
1

> <PUBCHEM_CACTVS_COMPLEXITY>
650

> <PUBCHEM_CACTVS_HBOND_ACCEPTOR>
5

> <PUBCHEM_CACTVS_HBOND_DONOR>
3

> <PUBCHEM_CACTVS_ROTATABLE_BOND>
11

> <PUBCHEM_CACTVS_SUBSKEYS>
AAADcfB7IYAEAAAAAAAAAAAAGAAAAWAAAAAwYAAAAAAAAFgB9AAAHwAQAAAADQjBnhQywPPJkACoAyVyVACCgCAnAiAImaG4ZNgIYPLAlbGUIQhglgDIyYcYicCewAAAAAACAACAAAAAAAQAAAAAAAAAAA==

> <PUBCHEM_IUPAC_OPENEYE_NAME>
N-[4-[propyl-[[2-[4-(trifluoromethyl)phenyl]cyclopropyl]methyl]amino]butyl]-1H-indole-2-carboxamide;hydrochloride

> <PUBCHEM_IUPAC_CAS_NAME>
N-[4-[propyl-[[2-[4-(trifluoromethyl)phenyl]cyclopropyl]methyl]amino]butyl]-1H-indole-2-carboxamide;hydrochloride

> <PUBCHEM_IUPAC_NAME_MARKUP>
<I>N</I>-[4-[propyl-[[2-[4-(trifluoromethyl)phenyl]cyclopropyl]methyl]amino]butyl]-1<I>H</I>-indole-2-carboxamide;hydrochloride

> <PUBCHEM_IUPAC_NAME>
N-[4-[propyl-[[2-[4-(trifluoromethyl)phenyl]cyclopropyl]methyl]amino]butyl]-1H-indole-2-carboxamide;hydrochloride

> <PUBCHEM_IUPAC_SYSTEMATIC_NAME>
N-[4-[propyl-[[2-[4-(trifluoromethyl)phenyl]cyclopropyl]methyl]amino]butyl]-1H-indole-2-carboxamide;hydrochloride

> <PUBCHEM_IUPAC_TRADITIONAL_NAME>
N-[4-[propyl-[[2-[4-(trifluoromethyl)phenyl]cyclopropyl]methyl]amino]butyl]-1H-indole-2-carboxamide;hydrochloride

> <PUBCHEM_IUPAC_INCHI>
InChI=1S/C27H32F3N3O.ClH/c1-2-14-33(18-21-16-23(21)19-9-11-22(12-10-19)27(28,29)30)15-6-5-13-31-26(34)25-17-20-7-3-4-8-24(20)32-25;/h3-4,7-12,17,21,23,32H,2,5-6,13-16,18H2,1H3,(H,31,34);1H

> <PUBCHEM_IUPAC_INCHIKEY>
VKQPVZHQHUZUHN-UHFFFAOYSA-N

> <PUBCHEM_EXACT_MASS>
507.2264249

> <PUBCHEM_MOLECULAR_FORMULA>
C27H33ClF3N3O

> <PUBCHEM_MOLECULAR_WEIGHT>
508.0

> <PUBCHEM_OPENEYE_CAN_SMILES>
CCCN(CCCCNC(=O)C1=CC2=CC=CC=C2N1)CC3CC3C4=CC=C(C=C4)C(F)(F)F.Cl

> <PUBCHEM_OPENEYE_ISO_SMILES>
CCCN(CCCCNC(=O)C1=CC2=CC=CC=C2N1)CC3CC3C4=CC=C(C=C4)C(F)(F)F.Cl

> <PUBCHEM_CACTVS_TPSA>
48.1

> <PUBCHEM_MONOISOTOPIC_WEIGHT>
507.2264249

> <PUBCHEM_TOTAL_CHARGE>
0

> <PUBCHEM_HEAVY_ATOM_COUNT>
35

> <PUBCHEM_ATOM_DEF_STEREO_COUNT>
0

> <PUBCHEM_ATOM_UDEF_STEREO_COUNT>
2

> <PUBCHEM_BOND_DEF_STEREO_COUNT>
0

> <PUBCHEM_BOND_UDEF_STEREO_COUNT>
0

> <PUBCHEM_ISOTOPIC_ATOM_COUNT>
0

> <PUBCHEM_COMPONENT_COUNT>
2

> <PUBCHEM_CACTVS_TAUTO_COUNT>
-1

> <PUBCHEM_COORDINATE_TYPE>
1
5
255

> <PUBCHEM_BONDANNOTATIONS>
10  13  3
13  15  8
13  16  8
15  20  8
16  21  8
20  22  8
21  22  8
28  29  8
29  31  8
30  31  8
30  32  8
31  33  8
32  34  8
33  35  8
34  35  8
8  28  8
8  30  8
9  12  3

$$$$
