164628176
  -OEChem-09292322432D

 61 62  0     0  0  0  0  0  0999 V2000
    4.0747    8.1200    0.0000 O   0  0  0  0  0  0  0  0  0  0  0  0
    4.9407   12.6200    0.0000 O   0  0  0  0  0  0  0  0  0  0  0  0
   10.0757    7.1200    0.0000 O   0  0  0  0  0  0  0  0  0  0  0  0
    7.4776    7.6200    0.0000 O   0  0  0  0  0  0  0  0  0  0  0  0
    9.2097    8.6200    0.0000 O   0  0  0  0  0  0  0  0  0  0  0  0
    8.3437    6.1200    0.0000 O   0  0  0  0  0  0  0  0  0  0  0  0
    1.4766    5.6200    0.0000 N   0  0  0  0  0  0  0  0  0  0  0  0
    1.4766    3.6200    0.0000 N   0  0  0  0  0  0  0  0  0  0  0  0
    0.6106    2.1200    0.0000 N   0  0  0  0  0  0  0  0  0  0  0  0
    3.2087   12.6200    0.0000 N   0  0  0  0  0  0  0  0  0  0  0  0
    0.6106    5.1200    0.0000 C   0  0  0  0  0  0  0  0  0  0  0  0
    2.3426    5.1200    0.0000 C   0  0  0  0  0  0  0  0  0  0  0  0
    0.6106    4.1200    0.0000 C   0  0  0  0  0  0  0  0  0  0  0  0
    2.3426    4.1200    0.0000 C   0  0  0  0  0  0  0  0  0  0  0  0
    1.4766    6.6200    0.0000 C   0  0  0  0  0  0  0  0  0  0  0  0
    2.3426    7.1200    0.0000 C   0  0  0  0  0  0  0  0  0  0  0  0
    1.4766    2.6200    0.0000 C   0  0  0  0  0  0  0  0  0  0  0  0
    2.3426    8.1200    0.0000 C   0  0  0  0  0  0  0  0  0  0  0  0
    2.3426    2.1200    0.0000 C   0  0  0  0  0  0  0  0  0  0  0  0
    3.2087    8.6200    0.0000 C   0  0  0  0  0  0  0  0  0  0  0  0
    3.2087    9.6200    0.0000 C   0  0  0  0  0  0  0  0  0  0  0  0
    2.3426    1.1200    0.0000 C   0  0  0  0  0  0  0  0  0  0  0  0
    0.6106    1.1200    0.0000 C   0  0  0  0  0  0  0  0  0  0  0  0
    1.4766    0.6200    0.0000 C   0  0  0  0  0  0  0  0  0  0  0  0
    4.0747   10.1200    0.0000 C   0  0  0  0  0  0  0  0  0  0  0  0
    2.3426   10.1200    0.0000 C   0  0  0  0  0  0  0  0  0  0  0  0
    4.0747   11.1200    0.0000 C   0  0  0  0  0  0  0  0  0  0  0  0
    2.3426   11.1200    0.0000 C   0  0  0  0  0  0  0  0  0  0  0  0
    3.2087   11.6200    0.0000 C   0  0  0  0  0  0  0  0  0  0  0  0
    4.0747   13.1200    0.0000 C   0  0  0  0  0  0  0  0  0  0  0  0
    4.0747   14.1200    0.0000 C   0  0  0  0  0  0  0  0  0  0  0  0
    9.2097    7.6200    0.0000 C   0  0  0  0  0  0  0  0  0  0  0  0
    8.3437    7.1200    0.0000 C   0  0  0  0  0  0  0  0  0  0  0  0
    0.3985    5.7026    0.0000 H   0  0  0  0  0  0  0  0  0  0  0  0
    0.0000    5.0123    0.0000 H   0  0  0  0  0  0  0  0  0  0  0  0
    2.9532    5.0123    0.0000 H   0  0  0  0  0  0  0  0  0  0  0  0
    2.5547    5.7026    0.0000 H   0  0  0  0  0  0  0  0  0  0  0  0
    0.0000    4.2277    0.0000 H   0  0  0  0  0  0  0  0  0  0  0  0
    0.3985    3.5374    0.0000 H   0  0  0  0  0  0  0  0  0  0  0  0
    2.5547    3.5374    0.0000 H   0  0  0  0  0  0  0  0  0  0  0  0
    2.9532    4.2277    0.0000 H   0  0  0  0  0  0  0  0  0  0  0  0
    1.2646    7.2026    0.0000 H   0  0  0  0  0  0  0  0  0  0  0  0
    0.8660    6.5123    0.0000 H   0  0  0  0  0  0  0  0  0  0  0  0
    2.5547    6.5374    0.0000 H   0  0  0  0  0  0  0  0  0  0  0  0
    2.9532    7.2277    0.0000 H   0  0  0  0  0  0  0  0  0  0  0  0
    2.1306    8.7026    0.0000 H   0  0  0  0  0  0  0  0  0  0  0  0
    1.7320    8.0123    0.0000 H   0  0  0  0  0  0  0  0  0  0  0  0
    2.8796    2.4300    0.0000 H   0  0  0  0  0  0  0  0  0  0  0  0
    2.8796    0.8100    0.0000 H   0  0  0  0  0  0  0  0  0  0  0  0
    0.0736    0.8100    0.0000 H   0  0  0  0  0  0  0  0  0  0  0  0
    1.4766    0.0000    0.0000 H   0  0  0  0  0  0  0  0  0  0  0  0
    4.6116    9.8100    0.0000 H   0  0  0  0  0  0  0  0  0  0  0  0
    1.8057    9.8100    0.0000 H   0  0  0  0  0  0  0  0  0  0  0  0
    4.6116   11.4300    0.0000 H   0  0  0  0  0  0  0  0  0  0  0  0
    1.8057   11.4300    0.0000 H   0  0  0  0  0  0  0  0  0  0  0  0
    2.6717   12.9300    0.0000 H   0  0  0  0  0  0  0  0  0  0  0  0
    4.6947   14.1200    0.0000 H   0  0  0  0  0  0  0  0  0  0  0  0
    4.0747   14.7400    0.0000 H   0  0  0  0  0  0  0  0  0  0  0  0
    3.4547   14.1200    0.0000 H   0  0  0  0  0  0  0  0  0  0  0  0
   10.6127    7.4300    0.0000 H   0  0  0  0  0  0  0  0  0  0  0  0
    6.9407    7.3100    0.0000 H   0  0  0  0  0  0  0  0  0  0  0  0
  1 20  2  0  0  0  0
  2 30  2  0  0  0  0
  3 32  1  0  0  0  0
  3 60  1  0  0  0  0
  4 33  1  0  0  0  0
  4 61  1  0  0  0  0
  5 32  2  0  0  0  0
  6 33  2  0  0  0  0
  7 11  1  0  0  0  0
  7 12  1  0  0  0  0
  7 15  1  0  0  0  0
  8 13  1  0  0  0  0
  8 14  1  0  0  0  0
  8 17  1  0  0  0  0
  9 17  1  0  0  0  0
  9 23  2  0  0  0  0
 10 29  1  0  0  0  0
 10 30  1  0  0  0  0
 10 56  1  0  0  0  0
 11 13  1  0  0  0  0
 11 34  1  0  0  0  0
 11 35  1  0  0  0  0
 12 14  1  0  0  0  0
 12 36  1  0  0  0  0
 12 37  1  0  0  0  0
 13 38  1  0  0  0  0
 13 39  1  0  0  0  0
 14 40  1  0  0  0  0
 14 41  1  0  0  0  0
 15 16  1  0  0  0  0
 15 42  1  0  0  0  0
 15 43  1  0  0  0  0
 16 18  1  0  0  0  0
 16 44  1  0  0  0  0
 16 45  1  0  0  0  0
 17 19  2  0  0  0  0
 18 20  1  0  0  0  0
 18 46  1  0  0  0  0
 18 47  1  0  0  0  0
 19 22  1  0  0  0  0
 19 48  1  0  0  0  0
 20 21  1  0  0  0  0
 21 25  2  0  0  0  0
 21 26  1  0  0  0  0
 22 24  2  0  0  0  0
 22 49  1  0  0  0  0
 23 24  1  0  0  0  0
 23 50  1  0  0  0  0
 24 51  1  0  0  0  0
 25 27  1  0  0  0  0
 25 52  1  0  0  0  0
 26 28  2  0  0  0  0
 26 53  1  0  0  0  0
 27 29  2  0  0  0  0
 27 54  1  0  0  0  0
 28 29  1  0  0  0  0
 28 55  1  0  0  0  0
 30 31  1  0  0  0  0
 31 57  1  0  0  0  0
 31 58  1  0  0  0  0
 31 59  1  0  0  0  0
 32 33  1  0  0  0  0
M  END
> <PUBCHEM_COMPOUND_CID>
164628176

> <PUBCHEM_COMPOUND_CANONICALIZED>
1

> <PUBCHEM_CACTVS_COMPLEXITY>
554

> <PUBCHEM_CACTVS_HBOND_ACCEPTOR>
9

> <PUBCHEM_CACTVS_HBOND_DONOR>
3

> <PUBCHEM_CACTVS_ROTATABLE_BOND>
8

> <PUBCHEM_CACTVS_SUBSKEYS>
AAADceB7uAAAAAAAAAAAAAAAAAAAAAAAAAA8WIAAAAAAAAABwAAAHgAQCAAADAzBmgQ/+JPIEgCoArf3fAKCgCk1AiAJ2CF4ZNiJYPLAnZGUIQholALJyacciYCeCAAAAAAAAAAQAAAAAAAAAAAAAAAAAA==

> <PUBCHEM_IUPAC_OPENEYE_NAME>
oxalic acid;N-[4-[4-[4-(2-pyridyl)piperazin-1-yl]butanoyl]phenyl]acetamide

> <PUBCHEM_IUPAC_CAS_NAME>
oxalic acid;N-[4-[1-oxo-4-[4-(2-pyridinyl)-1-piperazinyl]butyl]phenyl]acetamide

> <PUBCHEM_IUPAC_NAME_MARKUP>
oxalic acid;<I>N</I>-[4-[4-(4-pyridin-2-ylpiperazin-1-yl)butanoyl]phenyl]acetamide

> <PUBCHEM_IUPAC_NAME>
oxalic acid;N-[4-[4-(4-pyridin-2-ylpiperazin-1-yl)butanoyl]phenyl]acetamide

> <PUBCHEM_IUPAC_SYSTEMATIC_NAME>
ethanedioic acid;N-[4-[4-(4-pyridin-2-ylpiperazin-1-yl)butanoyl]phenyl]ethanamide

> <PUBCHEM_IUPAC_TRADITIONAL_NAME>
oxalic acid;N-[4-[4-[4-(2-pyridyl)piperazino]butanoyl]phenyl]acetamide

> <PUBCHEM_IUPAC_INCHI>
InChI=1S/C21H26N4O2.C2H2O4/c1-17(26)23-19-9-7-18(8-10-19)20(27)5-4-12-24-13-15-25(16-14-24)21-6-2-3-11-22-21;3-1(4)2(5)6/h2-3,6-11H,4-5,12-16H2,1H3,(H,23,26);(H,3,4)(H,5,6)

> <PUBCHEM_IUPAC_INCHIKEY>
LIMCWIAJWFVKMM-UHFFFAOYSA-N

> <PUBCHEM_EXACT_MASS>
456.20088463

> <PUBCHEM_MOLECULAR_FORMULA>
C23H28N4O6

> <PUBCHEM_MOLECULAR_WEIGHT>
456.5

> <PUBCHEM_OPENEYE_CAN_SMILES>
CC(=O)NC1=CC=C(C=C1)C(=O)CCCN2CCN(CC2)C3=CC=CC=N3.C(=O)(C(=O)O)O

> <PUBCHEM_OPENEYE_ISO_SMILES>
CC(=O)NC1=CC=C(C=C1)C(=O)CCCN2CCN(CC2)C3=CC=CC=N3.C(=O)(C(=O)O)O

> <PUBCHEM_CACTVS_TPSA>
140

> <PUBCHEM_MONOISOTOPIC_WEIGHT>
456.20088463

> <PUBCHEM_TOTAL_CHARGE>
0

> <PUBCHEM_HEAVY_ATOM_COUNT>
33

> <PUBCHEM_ATOM_DEF_STEREO_COUNT>
0

> <PUBCHEM_ATOM_UDEF_STEREO_COUNT>
0

> <PUBCHEM_BOND_DEF_STEREO_COUNT>
0

> <PUBCHEM_BOND_UDEF_STEREO_COUNT>
0

> <PUBCHEM_ISOTOPIC_ATOM_COUNT>
0

> <PUBCHEM_COMPONENT_COUNT>
2

> <PUBCHEM_CACTVS_TAUTO_COUNT>
-1

> <PUBCHEM_COORDINATE_TYPE>
1
5
255

> <PUBCHEM_BONDANNOTATIONS>
17  19  8
19  22  8
21  25  8
21  26  8
22  24  8
23  24  8
25  27  8
26  28  8
27  29  8
28  29  8
9  17  8
9  23  8

$$$$
