177336
  -OEChem-09292322132D

 58 61  0     0  0  0  0  0  0999 V2000
    6.3518   -2.6938    0.0000 O   0  0  0  0  0  0  0  0  0  0  0  0
    3.6613   -0.8382    0.0000 O   0  0  0  0  0  0  0  0  0  0  0  0
    7.9915    1.6618    0.0000 N   0  0  0  0  0  0  0  0  0  0  0  0
    5.3934   -0.8382    0.0000 N   0  0  0  0  0  0  0  0  0  0  0  0
    5.0274   -3.8770    0.0000 N   0  0  0  0  0  0  0  0  0  0  0  0
    6.2594    0.6618    0.0000 C   0  0  0  0  0  0  0  0  0  0  0  0
    7.1254    0.1618    0.0000 C   0  0  0  0  0  0  0  0  0  0  0  0
    6.2594    1.6618    0.0000 C   0  0  0  0  0  0  0  0  0  0  0  0
    7.9915    0.6618    0.0000 C   0  0  0  0  0  0  0  0  0  0  0  0
    7.1254    2.1618    0.0000 C   0  0  0  0  0  0  0  0  0  0  0  0
    5.3934    0.1618    0.0000 C   0  0  0  0  0  0  0  0  0  0  0  0
    8.8575    2.1618    0.0000 C   0  0  0  0  0  0  0  0  0  0  0  0
    8.8575    3.1618    0.0000 C   0  0  0  0  0  0  0  0  0  0  0  0
    4.5274   -2.3382    0.0000 C   0  0  0  0  0  0  0  0  0  0  0  0
    4.5274   -1.3382    0.0000 C   0  0  0  0  0  0  0  0  0  0  0  0
    5.3364   -2.9260    0.0000 C   0  0  0  0  0  0  0  0  0  0  0  0
    5.7123   -4.6618    0.0000 C   0  0  0  0  0  0  0  0  0  0  0  0
    9.7235    3.6618    0.0000 C   0  0  0  0  0  0  0  0  0  0  0  0
    3.7183   -2.9260    0.0000 C   0  0  0  0  0  0  0  0  0  0  0  0
    4.0274   -3.8770    0.0000 C   0  0  0  0  0  0  0  0  0  0  0  0
    6.7328   -4.4531    0.0000 C   0  0  0  0  0  0  0  0  0  0  0  0
    7.0547   -3.4624    0.0000 C   0  0  0  0  0  0  0  0  0  0  0  0
    2.7029   -2.6938    0.0000 C   0  0  0  0  0  0  0  0  0  0  0  0
    3.3424   -4.6618    0.0000 C   0  0  0  0  0  0  0  0  0  0  0  0
    9.7235    4.6618    0.0000 C   0  0  0  0  0  0  0  0  0  0  0  0
    2.0000   -3.4624    0.0000 C   0  0  0  0  0  0  0  0  0  0  0  0
    2.3219   -4.4531    0.0000 C   0  0  0  0  0  0  0  0  0  0  0  0
    6.2594    0.0418    0.0000 H   0  0  0  0  0  0  0  0  0  0  0  0
    6.7269   -0.3132    0.0000 H   0  0  0  0  0  0  0  0  0  0  0  0
    7.5240   -0.3132    0.0000 H   0  0  0  0  0  0  0  0  0  0  0  0
    6.0474    2.2444    0.0000 H   0  0  0  0  0  0  0  0  0  0  0  0
    5.6488    1.5541    0.0000 H   0  0  0  0  0  0  0  0  0  0  0  0
    8.2035    0.0792    0.0000 H   0  0  0  0  0  0  0  0  0  0  0  0
    8.6020    0.7695    0.0000 H   0  0  0  0  0  0  0  0  0  0  0  0
    7.5240    2.6367    0.0000 H   0  0  0  0  0  0  0  0  0  0  0  0
    6.7269    2.6367    0.0000 H   0  0  0  0  0  0  0  0  0  0  0  0
    5.1813    0.7444    0.0000 H   0  0  0  0  0  0  0  0  0  0  0  0
    4.7828    0.0541    0.0000 H   0  0  0  0  0  0  0  0  0  0  0  0
    9.0695    1.5792    0.0000 H   0  0  0  0  0  0  0  0  0  0  0  0
    9.4681    2.2694    0.0000 H   0  0  0  0  0  0  0  0  0  0  0  0
    8.6454    3.7444    0.0000 H   0  0  0  0  0  0  0  0  0  0  0  0
    8.2469    3.0541    0.0000 H   0  0  0  0  0  0  0  0  0  0  0  0
    5.9303   -1.1482    0.0000 H   0  0  0  0  0  0  0  0  0  0  0  0
    5.1824   -4.9836    0.0000 H   0  0  0  0  0  0  0  0  0  0  0  0
    5.9387   -5.2390    0.0000 H   0  0  0  0  0  0  0  0  0  0  0  0
    9.9356    3.0792    0.0000 H   0  0  0  0  0  0  0  0  0  0  0  0
   10.3341    3.7694    0.0000 H   0  0  0  0  0  0  0  0  0  0  0  0
    6.7513   -5.0728    0.0000 H   0  0  0  0  0  0  0  0  0  0  0  0
    7.3466   -4.5409    0.0000 H   0  0  0  0  0  0  0  0  0  0  0  0
    7.6029   -3.7521    0.0000 H   0  0  0  0  0  0  0  0  0  0  0  0
    7.4339   -2.9719    0.0000 H   0  0  0  0  0  0  0  0  0  0  0  0
    2.5182   -2.1019    0.0000 H   0  0  0  0  0  0  0  0  0  0  0  0
    3.5408   -5.2492    0.0000 H   0  0  0  0  0  0  0  0  0  0  0  0
   10.3435    4.6618    0.0000 H   0  0  0  0  0  0  0  0  0  0  0  0
    9.7235    5.2818    0.0000 H   0  0  0  0  0  0  0  0  0  0  0  0
    9.1035    4.6618    0.0000 H   0  0  0  0  0  0  0  0  0  0  0  0
    1.3940   -3.3312    0.0000 H   0  0  0  0  0  0  0  0  0  0  0  0
    1.9088   -4.9154    0.0000 H   0  0  0  0  0  0  0  0  0  0  0  0
  1 16  1  0  0  0  0
  1 22  1  0  0  0  0
  2 15  2  0  0  0  0
  3  9  1  0  0  0  0
  3 10  1  0  0  0  0
  3 12  1  0  0  0  0
  4 11  1  0  0  0  0
  4 15  1  0  0  0  0
  4 43  1  0  0  0  0
  5 16  1  0  0  0  0
  5 17  1  0  0  0  0
  5 20  1  0  0  0  0
  6  7  1  0  0  0  0
  6  8  1  0  0  0  0
  6 11  1  0  0  0  0
  6 28  1  0  0  0  0
  7  9  1  0  0  0  0
  7 29  1  0  0  0  0
  7 30  1  0  0  0  0
  8 10  1  0  0  0  0
  8 31  1  0  0  0  0
  8 32  1  0  0  0  0
  9 33  1  0  0  0  0
  9 34  1  0  0  0  0
 10 35  1  0  0  0  0
 10 36  1  0  0  0  0
 11 37  1  0  0  0  0
 11 38  1  0  0  0  0
 12 13  1  0  0  0  0
 12 39  1  0  0  0  0
 12 40  1  0  0  0  0
 13 18  1  0  0  0  0
 13 41  1  0  0  0  0
 13 42  1  0  0  0  0
 14 15  1  0  0  0  0
 14 16  2  0  0  0  0
 14 19  1  0  0  0  0
 17 21  1  0  0  0  0
 17 44  1  0  0  0  0
 17 45  1  0  0  0  0
 18 25  1  0  0  0  0
 18 46  1  0  0  0  0
 18 47  1  0  0  0  0
 19 20  1  0  0  0  0
 19 23  2  0  0  0  0
 20 24  2  0  0  0  0
 21 22  1  0  0  0  0
 21 48  1  0  0  0  0
 21 49  1  0  0  0  0
 22 50  1  0  0  0  0
 22 51  1  0  0  0  0
 23 26  1  0  0  0  0
 23 52  1  0  0  0  0
 24 27  1  0  0  0  0
 24 53  1  0  0  0  0
 25 54  1  0  0  0  0
 25 55  1  0  0  0  0
 25 56  1  0  0  0  0
 26 27  2  0  0  0  0
 26 57  1  0  0  0  0
 27 58  1  0  0  0  0
M  END
> <PUBCHEM_COMPOUND_CID>
177336

> <PUBCHEM_COMPOUND_CANONICALIZED>
1

> <PUBCHEM_CACTVS_COMPLEXITY>
492

> <PUBCHEM_CACTVS_HBOND_ACCEPTOR>
3

> <PUBCHEM_CACTVS_HBOND_DONOR>
1

> <PUBCHEM_CACTVS_ROTATABLE_BOND>
6

> <PUBCHEM_CACTVS_SUBSKEYS>
AAADceB7MAAAAAAAAAAAAAAAAAAAAWAAAAA8WIAAAAAAAFgB8AAAHgAQAAAADQjhngYyxPPMFACoAyVyVACCiCAlIiAI2KE8bNgMJv7E9ZuOOejm9hHI6Ue8yOCOgAAAAAACAAAAAAAAAAQAAAAAAAAAAA==

> <PUBCHEM_IUPAC_OPENEYE_NAME>
N-[(1-butyl-4-piperidyl)methyl]-3,4-dihydro-2H-[1,3]oxazino[3,2-a]indole-10-carboxamide

> <PUBCHEM_IUPAC_CAS_NAME>
N-[(1-butyl-4-piperidinyl)methyl]-3,4-dihydro-2H-[1,3]oxazino[3,2-a]indole-10-carboxamide

> <PUBCHEM_IUPAC_NAME_MARKUP>
<I>N</I>-[(1-butylpiperidin-4-yl)methyl]-3,4-dihydro-2<I>H</I>-[1,3]oxazino[3,2-a]indole-10-carboxamide

> <PUBCHEM_IUPAC_NAME>
N-[(1-butylpiperidin-4-yl)methyl]-3,4-dihydro-2H-[1,3]oxazino[3,2-a]indole-10-carboxamide

> <PUBCHEM_IUPAC_SYSTEMATIC_NAME>
N-[(1-butylpiperidin-4-yl)methyl]-3,4-dihydro-2H-[1,3]oxazino[3,2-a]indole-10-carboxamide

> <PUBCHEM_IUPAC_TRADITIONAL_NAME>
N-[(1-butyl-4-piperidyl)methyl]-3,4-dihydro-2H-[1,3]oxazin[3,2-a]indole-10-carboxamide

> <PUBCHEM_IUPAC_INCHI>
InChI=1S/C22H31N3O2/c1-2-3-11-24-13-9-17(10-14-24)16-23-21(26)20-18-7-4-5-8-19(18)25-12-6-15-27-22(20)25/h4-5,7-8,17H,2-3,6,9-16H2,1H3,(H,23,26)

> <PUBCHEM_IUPAC_INCHIKEY>
KVCSJPATKXABRQ-UHFFFAOYSA-N

> <PUBCHEM_XLOGP3_AA>
3.7

> <PUBCHEM_EXACT_MASS>
369.24162724

> <PUBCHEM_MOLECULAR_FORMULA>
C22H31N3O2

> <PUBCHEM_MOLECULAR_WEIGHT>
369.5

> <PUBCHEM_OPENEYE_CAN_SMILES>
CCCCN1CCC(CC1)CNC(=O)C2=C3N(CCCO3)C4=CC=CC=C42

> <PUBCHEM_OPENEYE_ISO_SMILES>
CCCCN1CCC(CC1)CNC(=O)C2=C3N(CCCO3)C4=CC=CC=C42

> <PUBCHEM_CACTVS_TPSA>
46.5

> <PUBCHEM_MONOISOTOPIC_WEIGHT>
369.24162724

> <PUBCHEM_TOTAL_CHARGE>
0

> <PUBCHEM_HEAVY_ATOM_COUNT>
27

> <PUBCHEM_ATOM_DEF_STEREO_COUNT>
0

> <PUBCHEM_ATOM_UDEF_STEREO_COUNT>
0

> <PUBCHEM_BOND_DEF_STEREO_COUNT>
0

> <PUBCHEM_BOND_UDEF_STEREO_COUNT>
0

> <PUBCHEM_ISOTOPIC_ATOM_COUNT>
0

> <PUBCHEM_COMPONENT_COUNT>
1

> <PUBCHEM_CACTVS_TAUTO_COUNT>
-1

> <PUBCHEM_COORDINATE_TYPE>
1
5
255

> <PUBCHEM_BONDANNOTATIONS>
14  16  8
14  19  8
19  20  8
19  23  8
20  24  8
23  26  8
24  27  8
26  27  8
5  16  8
5  20  8

$$$$
