44350685
  -OEChem-09292322122D

 61 63  0     0  0  0  0  0  0999 V2000
    9.7988    3.1350    0.0000 O   0  0  0  0  0  0  0  0  0  0  0  0
    3.5259    4.8439    0.0000 O   0  0  0  0  0  0  0  0  0  0  0  0
    3.5259    8.3544    0.0000 O   0  0  0  0  0  0  0  0  0  0  0  0
    4.4104   11.8531    0.0000 O   0  0  0  0  0  0  0  0  0  0  0  0
    7.0084   11.3531    0.0000 O   0  0  0  0  0  0  0  0  0  0  0  0
    5.2764   10.3531    0.0000 O   0  0  0  0  0  0  0  0  0  0  0  0
    6.1424   12.8531    0.0000 O   0  0  0  0  0  0  0  0  0  0  0  0
    6.7988    4.8671    0.0000 N   0  0  0  0  0  0  0  0  0  0  0  0
    7.7988    3.1350    0.0000 N   0  0  0  0  0  0  0  0  0  0  0  0
    3.7988    6.5991    0.0000 N   0  0  0  0  0  0  0  0  0  0  0  0
    7.7988    4.8671    0.0000 C   0  0  0  0  0  0  0  0  0  0  0  0
    6.2988    4.0010    0.0000 C   0  0  0  0  0  0  0  0  0  0  0  0
    8.2988    4.0010    0.0000 C   0  0  0  0  0  0  0  0  0  0  0  0
    6.7988    3.1350    0.0000 C   0  0  0  0  0  0  0  0  0  0  0  0
    6.2988    5.7331    0.0000 C   0  0  0  0  0  0  0  0  0  0  0  0
    5.2988    5.7331    0.0000 C   0  0  0  0  0  0  0  0  0  0  0  0
    4.7988    6.5991    0.0000 C   0  0  0  0  0  0  0  0  0  0  0  0
    8.2988    2.2690    0.0000 C   0  0  0  0  0  0  0  0  0  0  0  0
    9.2988    2.2690    0.0000 C   0  0  0  0  0  0  0  0  0  0  0  0
    7.7988    1.4030    0.0000 C   0  0  0  0  0  0  0  0  0  0  0  0
    3.2152    5.7944    0.0000 C   0  0  0  0  0  0  0  0  0  0  0  0
    3.2152    7.4038    0.0000 C   0  0  0  0  0  0  0  0  0  0  0  0
    2.2690    6.0991    0.0000 C   0  0  0  0  0  0  0  0  0  0  0  0
    2.2690    7.0991    0.0000 C   0  0  0  0  0  0  0  0  0  0  0  0
    9.7988    1.4030    0.0000 C   0  0  0  0  0  0  0  0  0  0  0  0
    8.2988    0.5369    0.0000 C   0  0  0  0  0  0  0  0  0  0  0  0
    9.2988    0.5369    0.0000 C   0  0  0  0  0  0  0  0  0  0  0  0
    1.4030    5.5991    0.0000 C   0  0  0  0  0  0  0  0  0  0  0  0
    1.4030    7.5991    0.0000 C   0  0  0  0  0  0  0  0  0  0  0  0
    0.5369    6.0991    0.0000 C   0  0  0  0  0  0  0  0  0  0  0  0
    0.5369    7.0991    0.0000 C   0  0  0  0  0  0  0  0  0  0  0  0
   10.7988    3.1350    0.0000 C   0  0  0  0  0  0  0  0  0  0  0  0
    5.2764   11.3531    0.0000 C   0  0  0  0  0  0  0  0  0  0  0  0
    6.1424   11.8531    0.0000 C   0  0  0  0  0  0  0  0  0  0  0  0
    8.3814    5.0791    0.0000 H   0  0  0  0  0  0  0  0  0  0  0  0
    7.6912    5.4776    0.0000 H   0  0  0  0  0  0  0  0  0  0  0  0
    5.8239    4.3996    0.0000 H   0  0  0  0  0  0  0  0  0  0  0  0
    5.8239    3.6025    0.0000 H   0  0  0  0  0  0  0  0  0  0  0  0
    8.7738    3.6025    0.0000 H   0  0  0  0  0  0  0  0  0  0  0  0
    8.7738    4.3996    0.0000 H   0  0  0  0  0  0  0  0  0  0  0  0
    6.2162    2.9230    0.0000 H   0  0  0  0  0  0  0  0  0  0  0  0
    6.9065    2.5244    0.0000 H   0  0  0  0  0  0  0  0  0  0  0  0
    6.8814    5.9451    0.0000 H   0  0  0  0  0  0  0  0  0  0  0  0
    6.1912    6.3437    0.0000 H   0  0  0  0  0  0  0  0  0  0  0  0
    4.7162    5.5210    0.0000 H   0  0  0  0  0  0  0  0  0  0  0  0
    5.4065    5.1225    0.0000 H   0  0  0  0  0  0  0  0  0  0  0  0
    5.3814    6.8112    0.0000 H   0  0  0  0  0  0  0  0  0  0  0  0
    4.6912    7.2097    0.0000 H   0  0  0  0  0  0  0  0  0  0  0  0
    7.1788    1.4030    0.0000 H   0  0  0  0  0  0  0  0  0  0  0  0
   10.4188    1.4030    0.0000 H   0  0  0  0  0  0  0  0  0  0  0  0
    7.9888    0.0000    0.0000 H   0  0  0  0  0  0  0  0  0  0  0  0
    9.6088    0.0000    0.0000 H   0  0  0  0  0  0  0  0  0  0  0  0
    1.4030    4.9791    0.0000 H   0  0  0  0  0  0  0  0  0  0  0  0
    1.4030    8.2191    0.0000 H   0  0  0  0  0  0  0  0  0  0  0  0
    0.0000    5.7891    0.0000 H   0  0  0  0  0  0  0  0  0  0  0  0
    0.0000    7.4091    0.0000 H   0  0  0  0  0  0  0  0  0  0  0  0
   10.7988    2.5150    0.0000 H   0  0  0  0  0  0  0  0  0  0  0  0
   11.4188    3.1350    0.0000 H   0  0  0  0  0  0  0  0  0  0  0  0
   10.7988    3.7550    0.0000 H   0  0  0  0  0  0  0  0  0  0  0  0
    3.8734   11.5430    0.0000 H   0  0  0  0  0  0  0  0  0  0  0  0
    7.5454   11.6631    0.0000 H   0  0  0  0  0  0  0  0  0  0  0  0
  1 19  1  0  0  0  0
  1 32  1  0  0  0  0
  2 21  2  0  0  0  0
  3 22  2  0  0  0  0
  4 33  1  0  0  0  0
  4 60  1  0  0  0  0
  5 34  1  0  0  0  0
  5 61  1  0  0  0  0
  6 33  2  0  0  0  0
  7 34  2  0  0  0  0
  8 11  1  0  0  0  0
  8 12  1  0  0  0  0
  8 15  1  0  0  0  0
  9 13  1  0  0  0  0
  9 14  1  0  0  0  0
  9 18  1  0  0  0  0
 10 17  1  0  0  0  0
 10 21  1  0  0  0  0
 10 22  1  0  0  0  0
 11 13  1  0  0  0  0
 11 35  1  0  0  0  0
 11 36  1  0  0  0  0
 12 14  1  0  0  0  0
 12 37  1  0  0  0  0
 12 38  1  0  0  0  0
 13 39  1  0  0  0  0
 13 40  1  0  0  0  0
 14 41  1  0  0  0  0
 14 42  1  0  0  0  0
 15 16  1  0  0  0  0
 15 43  1  0  0  0  0
 15 44  1  0  0  0  0
 16 17  1  0  0  0  0
 16 45  1  0  0  0  0
 16 46  1  0  0  0  0
 17 47  1  0  0  0  0
 17 48  1  0  0  0  0
 18 19  1  0  0  0  0
 18 20  2  0  0  0  0
 19 25  2  0  0  0  0
 20 26  1  0  0  0  0
 20 49  1  0  0  0  0
 21 23  1  0  0  0  0
 22 24  1  0  0  0  0
 23 24  1  0  0  0  0
 23 28  2  0  0  0  0
 24 29  2  0  0  0  0
 25 27  1  0  0  0  0
 25 50  1  0  0  0  0
 26 27  2  0  0  0  0
 26 51  1  0  0  0  0
 27 52  1  0  0  0  0
 28 30  1  0  0  0  0
 28 53  1  0  0  0  0
 29 31  1  0  0  0  0
 29 54  1  0  0  0  0
 30 31  2  0  0  0  0
 30 55  1  0  0  0  0
 31 56  1  0  0  0  0
 32 57  1  0  0  0  0
 32 58  1  0  0  0  0
 32 59  1  0  0  0  0
 33 34  1  0  0  0  0
M  END
> <PUBCHEM_COMPOUND_CID>
44350685

> <PUBCHEM_COMPOUND_CANONICALIZED>
1

> <PUBCHEM_CACTVS_COMPLEXITY>
609

> <PUBCHEM_CACTVS_HBOND_ACCEPTOR>
9

> <PUBCHEM_CACTVS_HBOND_DONOR>
2

> <PUBCHEM_CACTVS_ROTATABLE_BOND>
7

> <PUBCHEM_CACTVS_SUBSKEYS>
AAADceB7OAAAAAAAAAAAAAAAAAAAAWAAAAA8YIAAAAAAAFgBQAAAHgAACAAADAzBmAYyzoMABgCIAiXSWAKCCAAlIgAIiAFPbMgPZjLE9ZuVMShkxjHZ6YedyICOgAAAAAAQEAAAAAAAACAgAAAAAAAAAA==

> <PUBCHEM_IUPAC_OPENEYE_NAME>
2-[3-[4-(2-methoxyphenyl)piperazin-1-yl]propyl]isoindoline-1,3-dione;oxalic acid

> <PUBCHEM_IUPAC_CAS_NAME>
2-[3-[4-(2-methoxyphenyl)-1-piperazinyl]propyl]isoindole-1,3-dione;oxalic acid

> <PUBCHEM_IUPAC_NAME_MARKUP>
2-[3-[4-(2-methoxyphenyl)piperazin-1-yl]propyl]isoindole-1,3-dione;oxalic acid

> <PUBCHEM_IUPAC_NAME>
2-[3-[4-(2-methoxyphenyl)piperazin-1-yl]propyl]isoindole-1,3-dione;oxalic acid

> <PUBCHEM_IUPAC_SYSTEMATIC_NAME>
ethanedioic acid;2-[3-[4-(2-methoxyphenyl)piperazin-1-yl]propyl]isoindole-1,3-dione

> <PUBCHEM_IUPAC_TRADITIONAL_NAME>
2-[3-[4-(2-methoxyphenyl)piperazino]propyl]isoindoline-1,3-quinone;oxalic acid

> <PUBCHEM_IUPAC_INCHI>
InChI=1S/C22H25N3O3.C2H2O4/c1-28-20-10-5-4-9-19(20)24-15-13-23(14-16-24)11-6-12-25-21(26)17-7-2-3-8-18(17)22(25)27;3-1(4)2(5)6/h2-5,7-10H,6,11-16H2,1H3;(H,3,4)(H,5,6)

> <PUBCHEM_IUPAC_INCHIKEY>
CYJSKRQQVNFOIJ-UHFFFAOYSA-N

> <PUBCHEM_EXACT_MASS>
469.18490021

> <PUBCHEM_MOLECULAR_FORMULA>
C24H27N3O7

> <PUBCHEM_MOLECULAR_WEIGHT>
469.5

> <PUBCHEM_OPENEYE_CAN_SMILES>
COC1=CC=CC=C1N2CCN(CC2)CCCN3C(=O)C4=CC=CC=C4C3=O.C(=O)(C(=O)O)O

> <PUBCHEM_OPENEYE_ISO_SMILES>
COC1=CC=CC=C1N2CCN(CC2)CCCN3C(=O)C4=CC=CC=C4C3=O.C(=O)(C(=O)O)O

> <PUBCHEM_CACTVS_TPSA>
128

> <PUBCHEM_MONOISOTOPIC_WEIGHT>
469.18490021

> <PUBCHEM_TOTAL_CHARGE>
0

> <PUBCHEM_HEAVY_ATOM_COUNT>
34

> <PUBCHEM_ATOM_DEF_STEREO_COUNT>
0

> <PUBCHEM_ATOM_UDEF_STEREO_COUNT>
0

> <PUBCHEM_BOND_DEF_STEREO_COUNT>
0

> <PUBCHEM_BOND_UDEF_STEREO_COUNT>
0

> <PUBCHEM_ISOTOPIC_ATOM_COUNT>
0

> <PUBCHEM_COMPONENT_COUNT>
2

> <PUBCHEM_CACTVS_TAUTO_COUNT>
-1

> <PUBCHEM_COORDINATE_TYPE>
1
5
255

> <PUBCHEM_BONDANNOTATIONS>
18  19  8
18  20  8
19  25  8
20  26  8
23  24  8
23  28  8
24  29  8
25  27  8
26  27  8
28  30  8
29  31  8
30  31  8

$$$$
