44439388
  -OEChem-09292322492D

 41 44  0     0  0  0  0  0  0999 V2000
    2.9789   -2.9036    0.0000 O   0  0  0  0  0  0  0  0  0  0  0  0
   10.2225    1.9490    0.0000 O   0  0  0  0  0  0  0  0  0  0  0  0
    5.8507   -0.0430    0.0000 N   0  0  0  0  0  0  0  0  0  0  0  0
    8.3780   -1.1672    0.0000 N   0  0  0  0  0  0  0  0  0  0  0  0
    6.3507   -1.5818    0.0000 C   0  0  0  0  0  0  0  0  0  0  0  0
    6.6597   -0.6308    0.0000 C   0  0  0  0  0  0  0  0  0  0  0  0
    7.0356   -2.3666    0.0000 C   0  0  0  0  0  0  0  0  0  0  0  0
    5.3507   -1.5818    0.0000 C   0  0  0  0  0  0  0  0  0  0  0  0
    5.0417   -0.6308    0.0000 C   0  0  0  0  0  0  0  0  0  0  0  0
    7.6751   -0.3985    0.0000 C   0  0  0  0  0  0  0  0  0  0  0  0
    8.0562   -2.1579    0.0000 C   0  0  0  0  0  0  0  0  0  0  0  0
    4.6657   -2.3666    0.0000 C   0  0  0  0  0  0  0  0  0  0  0  0
    7.9731    0.5560    0.0000 C   0  0  0  0  0  0  0  0  0  0  0  0
    4.0263   -0.3985    0.0000 C   0  0  0  0  0  0  0  0  0  0  0  0
    3.6452   -2.1579    0.0000 C   0  0  0  0  0  0  0  0  0  0  0  0
    3.3233   -1.1672    0.0000 C   0  0  0  0  0  0  0  0  0  0  0  0
    8.9488    0.7752    0.0000 C   0  0  0  0  0  0  0  0  0  0  0  0
    7.2954    1.2914    0.0000 C   0  0  0  0  0  0  0  0  0  0  0  0
    9.2468    1.7298    0.0000 C   0  0  0  0  0  0  0  0  0  0  0  0
    7.5934    2.2460    0.0000 C   0  0  0  0  0  0  0  0  0  0  0  0
    8.5691    2.4652    0.0000 C   0  0  0  0  0  0  0  0  0  0  0  0
    2.0000   -2.6994    0.0000 C   0  0  0  0  0  0  0  0  0  0  0  0
   10.5205    2.9036    0.0000 C   0  0  0  0  0  0  0  0  0  0  0  0
    6.5057   -2.6883    0.0000 H   0  0  0  0  0  0  0  0  0  0  0  0
    7.2620   -2.9438    0.0000 H   0  0  0  0  0  0  0  0  0  0  0  0
    5.8507    0.5770    0.0000 H   0  0  0  0  0  0  0  0  0  0  0  0
    8.0746   -2.7776    0.0000 H   0  0  0  0  0  0  0  0  0  0  0  0
    8.6699   -2.2457    0.0000 H   0  0  0  0  0  0  0  0  0  0  0  0
    4.8641   -2.9540    0.0000 H   0  0  0  0  0  0  0  0  0  0  0  0
    3.8415    0.1933    0.0000 H   0  0  0  0  0  0  0  0  0  0  0  0
    2.7174   -1.0360    0.0000 H   0  0  0  0  0  0  0  0  0  0  0  0
    9.3690    0.3193    0.0000 H   0  0  0  0  0  0  0  0  0  0  0  0
    6.6905    1.1555    0.0000 H   0  0  0  0  0  0  0  0  0  0  0  0
    7.1733    2.7019    0.0000 H   0  0  0  0  0  0  0  0  0  0  0  0
    8.7539    3.0570    0.0000 H   0  0  0  0  0  0  0  0  0  0  0  0
    2.1266   -2.0925    0.0000 H   0  0  0  0  0  0  0  0  0  0  0  0
    1.3931   -2.5729    0.0000 H   0  0  0  0  0  0  0  0  0  0  0  0
    1.8734   -3.3064    0.0000 H   0  0  0  0  0  0  0  0  0  0  0  0
   11.1123    2.7188    0.0000 H   0  0  0  0  0  0  0  0  0  0  0  0
   10.7052    3.4954    0.0000 H   0  0  0  0  0  0  0  0  0  0  0  0
    9.9286    3.0883    0.0000 H   0  0  0  0  0  0  0  0  0  0  0  0
  1 15  1  0  0  0  0
  1 22  1  0  0  0  0
  2 19  1  0  0  0  0
  2 23  1  0  0  0  0
  3  6  1  0  0  0  0
  3  9  1  0  0  0  0
  3 26  1  0  0  0  0
  4 10  2  0  0  0  0
  4 11  1  0  0  0  0
  5  6  2  0  0  0  0
  5  7  1  0  0  0  0
  5  8  1  0  0  0  0
  6 10  1  0  0  0  0
  7 11  1  0  0  0  0
  7 24  1  0  0  0  0
  7 25  1  0  0  0  0
  8  9  2  0  0  0  0
  8 12  1  0  0  0  0
  9 14  1  0  0  0  0
 10 13  1  0  0  0  0
 11 27  1  0  0  0  0
 11 28  1  0  0  0  0
 12 15  2  0  0  0  0
 12 29  1  0  0  0  0
 13 17  2  0  0  0  0
 13 18  1  0  0  0  0
 14 16  2  0  0  0  0
 14 30  1  0  0  0  0
 15 16  1  0  0  0  0
 16 31  1  0  0  0  0
 17 19  1  0  0  0  0
 17 32  1  0  0  0  0
 18 20  2  0  0  0  0
 18 33  1  0  0  0  0
 19 21  2  0  0  0  0
 20 21  1  0  0  0  0
 20 34  1  0  0  0  0
 21 35  1  0  0  0  0
 22 36  1  0  0  0  0
 22 37  1  0  0  0  0
 22 38  1  0  0  0  0
 23 39  1  0  0  0  0
 23 40  1  0  0  0  0
 23 41  1  0  0  0  0
M  END
> <PUBCHEM_COMPOUND_CID>
44439388

> <PUBCHEM_COMPOUND_CANONICALIZED>
1

> <PUBCHEM_CACTVS_COMPLEXITY>
453

> <PUBCHEM_CACTVS_HBOND_ACCEPTOR>
3

> <PUBCHEM_CACTVS_HBOND_DONOR>
1

> <PUBCHEM_CACTVS_ROTATABLE_BOND>
3

> <PUBCHEM_CACTVS_SUBSKEYS>
AAADceB7MAAAAAAAAAAAAAAAAAAAAWAAAAAwYIAAAAAAAFgB9AAAHgAQAAAADAzBngYyxvLJlACgAyRiRACCiCAhIiAImSA2bJgMJuLEsZuEMChk0BHI6Aew0PMOgEABAAACAAAAgAIAAAQAAAAAAAAAAA==

> <PUBCHEM_IUPAC_OPENEYE_NAME>
6-methoxy-1-(3-methoxyphenyl)-4,9-dihydro-3H-pyrido[3,4-b]indole

> <PUBCHEM_IUPAC_CAS_NAME>
6-methoxy-1-(3-methoxyphenyl)-4,9-dihydro-3H-pyrido[3,4-b]indole

> <PUBCHEM_IUPAC_NAME_MARKUP>
6-methoxy-1-(3-methoxyphenyl)-4,9-dihydro-3<I>H</I>-pyrido[3,4-b]indole

> <PUBCHEM_IUPAC_NAME>
6-methoxy-1-(3-methoxyphenyl)-4,9-dihydro-3H-pyrido[3,4-b]indole

> <PUBCHEM_IUPAC_SYSTEMATIC_NAME>
6-methoxy-1-(3-methoxyphenyl)-4,9-dihydro-3H-pyrido[3,4-b]indole

> <PUBCHEM_IUPAC_TRADITIONAL_NAME>
6-methoxy-1-(3-methoxyphenyl)-4,9-dihydro-3H-beta-carboline

> <PUBCHEM_IUPAC_INCHI>
InChI=1S/C19H18N2O2/c1-22-13-5-3-4-12(10-13)18-19-15(8-9-20-18)16-11-14(23-2)6-7-17(16)21-19/h3-7,10-11,21H,8-9H2,1-2H3

> <PUBCHEM_IUPAC_INCHIKEY>
LGJFIMWHIPCVAQ-UHFFFAOYSA-N

> <PUBCHEM_XLOGP3_AA>
3.7

> <PUBCHEM_EXACT_MASS>
306.136827821

> <PUBCHEM_MOLECULAR_FORMULA>
C19H18N2O2

> <PUBCHEM_MOLECULAR_WEIGHT>
306.4

> <PUBCHEM_OPENEYE_CAN_SMILES>
COC1=CC2=C(C=C1)NC3=C2CCN=C3C4=CC(=CC=C4)OC

> <PUBCHEM_OPENEYE_ISO_SMILES>
COC1=CC2=C(C=C1)NC3=C2CCN=C3C4=CC(=CC=C4)OC

> <PUBCHEM_CACTVS_TPSA>
46.6

> <PUBCHEM_MONOISOTOPIC_WEIGHT>
306.136827821

> <PUBCHEM_TOTAL_CHARGE>
0

> <PUBCHEM_HEAVY_ATOM_COUNT>
23

> <PUBCHEM_ATOM_DEF_STEREO_COUNT>
0

> <PUBCHEM_ATOM_UDEF_STEREO_COUNT>
0

> <PUBCHEM_BOND_DEF_STEREO_COUNT>
0

> <PUBCHEM_BOND_UDEF_STEREO_COUNT>
0

> <PUBCHEM_ISOTOPIC_ATOM_COUNT>
0

> <PUBCHEM_COMPONENT_COUNT>
1

> <PUBCHEM_CACTVS_TAUTO_COUNT>
-1

> <PUBCHEM_COORDINATE_TYPE>
1
5
255

> <PUBCHEM_BONDANNOTATIONS>
12  15  8
13  17  8
13  18  8
14  16  8
15  16  8
17  19  8
18  20  8
19  21  8
20  21  8
3  6  8
3  9  8
5  6  8
5  8  8
8  12  8
8  9  8
9  14  8

$$$$
