11598123
  -OEChem-09292322492D

 65 69  0     1  0  0  0  0  0999 V2000
    6.8867   -0.8709    0.0000 S   0  0  0  0  0  0  0  0  0  0  0  0
    2.5878   -1.6497    0.0000 O   0  0  0  0  0  0  0  0  0  0  0  0
    9.8867    0.8611    0.0000 N   0  0  3  0  0  0  0  0  0  0  0  0
   14.8421    2.8802    0.0000 N   0  0  0  0  0  0  0  0  0  0  0  0
   15.8195    3.0919    0.0000 N   0  0  0  0  0  0  0  0  0  0  0  0
    5.2989   -1.6799    0.0000 N   0  0  0  0  0  0  0  0  0  0  0  0
    5.2989   -0.0619    0.0000 N   0  0  0  0  0  0  0  0  0  0  0  0
    4.3479   -0.3709    0.0000 N   0  0  0  0  0  0  0  0  0  0  0  0
    2.5878   -3.2677    0.0000 N   0  0  0  0  0  0  0  0  0  0  0  0
   10.3206    1.7621    0.0000 C   0  0  0  0  0  0  0  0  0  0  0  0
   10.3206   -0.0398    0.0000 C   0  0  0  0  0  0  0  0  0  0  0  0
   11.2955    1.9846    0.0000 C   0  0  0  0  0  0  0  0  0  0  0  0
   11.2955   -0.2623    0.0000 C   0  0  0  0  0  0  0  0  0  0  0  0
   12.0773    1.3612    0.0000 C   0  0  0  0  0  0  0  0  0  0  0  0
   12.0773    0.3611    0.0000 C   0  0  0  0  0  0  0  0  0  0  0  0
    8.8867    0.8611    0.0000 C   0  0  0  0  0  0  0  0  0  0  0  0
    8.3867   -0.0049    0.0000 C   0  0  0  0  0  0  0  0  0  0  0  0
   12.9713    1.8958    0.0000 C   0  0  0  0  0  0  0  0  0  0  0  0
   12.9713   -0.1735    0.0000 C   0  0  0  0  0  0  0  0  0  0  0  0
   13.8774    1.3820    0.0000 C   0  0  0  0  0  0  0  0  0  0  0  0
   13.8774    0.3403    0.0000 C   0  0  0  0  0  0  0  0  0  0  0  0
    7.3867   -0.0049    0.0000 C   0  0  0  0  0  0  0  0  0  0  0  0
   14.7414    1.8853    0.0000 C   0  0  0  0  0  0  0  0  0  0  0  0
   15.6566    1.4821    0.0000 C   0  0  0  0  0  0  0  0  0  0  0  0
   16.3228    2.2278    0.0000 C   0  0  0  0  0  0  0  0  0  0  0  0
   14.0964    3.5465    0.0000 C   0  0  0  0  0  0  0  0  0  0  0  0
    5.8867   -0.8709    0.0000 C   0  0  0  0  0  0  0  0  0  0  0  0
   17.3177    2.1271    0.0000 C   0  0  0  0  0  0  0  0  0  0  0  0
    4.3479   -1.3709    0.0000 C   0  0  0  0  0  0  0  0  0  0  0  0
    5.6079   -2.6310    0.0000 C   0  0  0  0  0  0  0  0  0  0  0  0
    3.5388   -1.9587    0.0000 C   0  0  0  0  0  0  0  0  0  0  0  0
    3.5388   -2.9587    0.0000 C   0  0  0  0  0  0  0  0  0  0  0  0
    4.3479   -3.5465    0.0000 C   0  0  0  0  0  0  0  0  0  0  0  0
    2.0000   -2.4587    0.0000 C   0  0  0  0  0  0  0  0  0  0  0  0
   10.3206    2.3821    0.0000 H   0  0  0  0  0  0  0  0  0  0  0  0
    9.7161    1.9001    0.0000 H   0  0  0  0  0  0  0  0  0  0  0  0
    9.7161   -0.1778    0.0000 H   0  0  0  0  0  0  0  0  0  0  0  0
   10.3206   -0.6598    0.0000 H   0  0  0  0  0  0  0  0  0  0  0  0
   11.7802    2.3712    0.0000 H   0  0  0  0  0  0  0  0  0  0  0  0
   11.0265    2.5432    0.0000 H   0  0  0  0  0  0  0  0  0  0  0  0
   11.0265   -0.8209    0.0000 H   0  0  0  0  0  0  0  0  0  0  0  0
   11.7802   -0.6489    0.0000 H   0  0  0  0  0  0  0  0  0  0  0  0
    8.9944    1.4717    0.0000 H   0  0  0  0  0  0  0  0  0  0  0  0
    8.3041    1.0732    0.0000 H   0  0  0  0  0  0  0  0  0  0  0  0
    8.2790   -0.6155    0.0000 H   0  0  0  0  0  0  0  0  0  0  0  0
    8.9693   -0.2169    0.0000 H   0  0  0  0  0  0  0  0  0  0  0  0
   12.9641    2.5158    0.0000 H   0  0  0  0  0  0  0  0  0  0  0  0
   12.9641   -0.7935    0.0000 H   0  0  0  0  0  0  0  0  0  0  0  0
   14.4131    0.0283    0.0000 H   0  0  0  0  0  0  0  0  0  0  0  0
    7.4944    0.6057    0.0000 H   0  0  0  0  0  0  0  0  0  0  0  0
    6.8041    0.2072    0.0000 H   0  0  0  0  0  0  0  0  0  0  0  0
   15.7878    0.8761    0.0000 H   0  0  0  0  0  0  0  0  0  0  0  0
   14.5095    4.0088    0.0000 H   0  0  0  0  0  0  0  0  0  0  0  0
   13.6341    3.9596    0.0000 H   0  0  0  0  0  0  0  0  0  0  0  0
   13.6833    3.0841    0.0000 H   0  0  0  0  0  0  0  0  0  0  0  0
   17.2553    1.5103    0.0000 H   0  0  0  0  0  0  0  0  0  0  0  0
   17.9346    2.0647    0.0000 H   0  0  0  0  0  0  0  0  0  0  0  0
   17.3802    2.7440    0.0000 H   0  0  0  0  0  0  0  0  0  0  0  0
    5.0183   -2.8226    0.0000 H   0  0  0  0  0  0  0  0  0  0  0  0
    5.7995   -3.2206    0.0000 H   0  0  0  0  0  0  0  0  0  0  0  0
    6.1976   -2.4394    0.0000 H   0  0  0  0  0  0  0  0  0  0  0  0
    3.9834   -4.0481    0.0000 H   0  0  0  0  0  0  0  0  0  0  0  0
    4.8494   -3.9109    0.0000 H   0  0  0  0  0  0  0  0  0  0  0  0
    4.7123   -3.0449    0.0000 H   0  0  0  0  0  0  0  0  0  0  0  0
    1.3800   -2.4587    0.0000 H   0  0  0  0  0  0  0  0  0  0  0  0
  1 22  1  0  0  0  0
  1 27  1  0  0  0  0
  2 31  1  0  0  0  0
  2 34  1  0  0  0  0
  3 10  1  0  0  0  0
  3 11  1  0  0  0  0
  3 16  1  0  0  0  0
  4  5  1  0  0  0  0
  4 23  1  0  0  0  0
  4 26  1  0  0  0  0
  5 25  2  0  0  0  0
  6 27  1  0  0  0  0
  6 29  1  0  0  0  0
  6 30  1  0  0  0  0
  7  8  1  0  0  0  0
  7 27  2  0  0  0  0
  8 29  2  0  0  0  0
  9 32  1  0  0  0  0
  9 34  2  0  0  0  0
 10 12  1  0  0  0  0
 10 35  1  0  0  0  0
 10 36  1  0  0  0  0
 11 13  1  0  0  0  0
 11 37  1  0  0  0  0
 11 38  1  0  0  0  0
 12 14  1  0  0  0  0
 12 39  1  0  0  0  0
 12 40  1  0  0  0  0
 13 15  1  0  0  0  0
 13 41  1  0  0  0  0
 13 42  1  0  0  0  0
 14 15  2  0  0  0  0
 14 18  1  0  0  0  0
 15 19  1  0  0  0  0
 16 17  1  0  0  0  0
 16 43  1  0  0  0  0
 16 44  1  0  0  0  0
 17 22  1  0  0  0  0
 17 45  1  0  0  0  0
 17 46  1  0  0  0  0
 18 20  2  0  0  0  0
 18 47  1  0  0  0  0
 19 21  2  0  0  0  0
 19 48  1  0  0  0  0
 20 21  1  0  0  0  0
 20 23  1  0  0  0  0
 21 49  1  0  0  0  0
 22 50  1  0  0  0  0
 22 51  1  0  0  0  0
 23 24  2  0  0  0  0
 24 25  1  0  0  0  0
 24 52  1  0  0  0  0
 25 28  1  0  0  0  0
 26 53  1  0  0  0  0
 26 54  1  0  0  0  0
 26 55  1  0  0  0  0
 28 56  1  0  0  0  0
 28 57  1  0  0  0  0
 28 58  1  0  0  0  0
 29 31  1  0  0  0  0
 30 59  1  0  0  0  0
 30 60  1  0  0  0  0
 30 61  1  0  0  0  0
 31 32  2  0  0  0  0
 32 33  1  0  0  0  0
 33 62  1  0  0  0  0
 33 63  1  0  0  0  0
 33 64  1  0  0  0  0
 34 65  1  0  0  0  0
M  END
> <PUBCHEM_COMPOUND_CID>
11598123

> <PUBCHEM_COMPOUND_CANONICALIZED>
1

> <PUBCHEM_CACTVS_COMPLEXITY>
659

> <PUBCHEM_CACTVS_HBOND_ACCEPTOR>
7

> <PUBCHEM_CACTVS_HBOND_DONOR>
0

> <PUBCHEM_CACTVS_ROTATABLE_BOND>
7

> <PUBCHEM_CACTVS_SUBSKEYS>
AAADceB7oABAAAAAAAAAAAAAAAAAAWLFgAAwAAAABYAAAAAB/AAAHgQIAAAADAzF3wa3lJcMFEiqA6Zz9ASS3Ct74rAd2CG9ZJiOKKLk2fGNpChgjALYyAcQgMAOwAACAAAQAACAAAQAACAAAAAAAAAAAA==

> <PUBCHEM_IUPAC_OPENEYE_NAME>
5-[5-[3-[7-(2,5-dimethylpyrazol-3-yl)-1,2,4,5-tetrahydro-3-benzazepin-3-yl]propylsulfanyl]-4-methyl-1,2,4-triazol-3-yl]-4-methyl-oxazole

> <PUBCHEM_IUPAC_CAS_NAME>
5-[5-[3-[7-(2,5-dimethyl-3-pyrazolyl)-1,2,4,5-tetrahydro-3-benzazepin-3-yl]propylthio]-4-methyl-1,2,4-triazol-3-yl]-4-methyloxazole

> <PUBCHEM_IUPAC_NAME_MARKUP>
5-[5-[3-[7-(2,5-dimethylpyrazol-3-yl)-1,2,4,5-tetrahydro-3-benzazepin-3-yl]propylsulfanyl]-4-methyl-1,2,4-triazol-3-yl]-4-methyl-1,3-oxazole

> <PUBCHEM_IUPAC_NAME>
5-[5-[3-[7-(2,5-dimethylpyrazol-3-yl)-1,2,4,5-tetrahydro-3-benzazepin-3-yl]propylsulfanyl]-4-methyl-1,2,4-triazol-3-yl]-4-methyl-1,3-oxazole

> <PUBCHEM_IUPAC_SYSTEMATIC_NAME>
5-[5-[3-[7-(2,5-dimethylpyrazol-3-yl)-1,2,4,5-tetrahydro-3-benzazepin-3-yl]propylsulfanyl]-4-methyl-1,2,4-triazol-3-yl]-4-methyl-1,3-oxazole

> <PUBCHEM_IUPAC_TRADITIONAL_NAME>
5-[5-[3-[7-(2,5-dimethylpyrazol-3-yl)-1,2,4,5-tetrahydro-3-benzazepin-3-yl]propylthio]-4-methyl-1,2,4-triazol-3-yl]-4-methyl-oxazole

> <PUBCHEM_IUPAC_INCHI>
InChI=1S/C25H31N7OS/c1-17-14-22(31(4)29-17)21-7-6-19-8-11-32(12-9-20(19)15-21)10-5-13-34-25-28-27-24(30(25)3)23-18(2)26-16-33-23/h6-7,14-16H,5,8-13H2,1-4H3

> <PUBCHEM_IUPAC_INCHIKEY>
RHHJVFYYCJWYII-UHFFFAOYSA-N

> <PUBCHEM_XLOGP3_AA>
3.5

> <PUBCHEM_EXACT_MASS>
477.23107981

> <PUBCHEM_MOLECULAR_FORMULA>
C25H31N7OS

> <PUBCHEM_MOLECULAR_WEIGHT>
477.6

> <PUBCHEM_OPENEYE_CAN_SMILES>
CC1=NN(C(=C1)C2=CC3=C(CCN(CC3)CCCSC4=NN=C(N4C)C5=C(N=CO5)C)C=C2)C

> <PUBCHEM_OPENEYE_ISO_SMILES>
CC1=NN(C(=C1)C2=CC3=C(CCN(CC3)CCCSC4=NN=C(N4C)C5=C(N=CO5)C)C=C2)C

> <PUBCHEM_CACTVS_TPSA>
103

> <PUBCHEM_MONOISOTOPIC_WEIGHT>
477.23107981

> <PUBCHEM_TOTAL_CHARGE>
0

> <PUBCHEM_HEAVY_ATOM_COUNT>
34

> <PUBCHEM_ATOM_DEF_STEREO_COUNT>
0

> <PUBCHEM_ATOM_UDEF_STEREO_COUNT>
0

> <PUBCHEM_BOND_DEF_STEREO_COUNT>
0

> <PUBCHEM_BOND_UDEF_STEREO_COUNT>
0

> <PUBCHEM_ISOTOPIC_ATOM_COUNT>
0

> <PUBCHEM_COMPONENT_COUNT>
1

> <PUBCHEM_CACTVS_TAUTO_COUNT>
-1

> <PUBCHEM_COORDINATE_TYPE>
1
5
255

> <PUBCHEM_BONDANNOTATIONS>
14  15  8
14  18  8
15  19  8
18  20  8
19  21  8
2  31  8
2  34  8
20  21  8
23  24  8
24  25  8
31  32  8
4  23  8
4  5  8
5  25  8
6  27  8
6  29  8
7  27  8
7  8  8
8  29  8
9  32  8
9  34  8

$$$$
