44447005
  -OEChem-09292322262D

 62 67  0     1  0  0  0  0  0999 V2000
    3.7899    2.2527    0.0000 S   0  0  0  0  0  0  0  0  0  0  0  0
   14.6962   -0.2281    0.0000 O   0  0  0  0  0  0  0  0  0  0  0  0
   13.0499    0.3100    0.0000 N   0  0  0  0  0  0  0  0  0  0  0  0
    7.4629   -0.4452    0.0000 N   0  0  0  0  0  0  0  0  0  0  0  0
    5.7308    0.5548    0.0000 N   0  0  0  0  0  0  0  0  0  0  0  0
    4.7617    2.0435    0.0000 N   0  0  0  0  0  0  0  0  0  0  0  0
   14.3391    1.4667    0.0000 C   0  0  0  0  0  0  0  0  0  0  0  0
   15.0834    2.1346    0.0000 C   0  0  0  0  0  0  0  0  0  0  0  0
   14.1328    2.4452    0.0000 C   0  0  0  0  0  0  0  0  0  0  0  0
   12.7392   -0.6405    0.0000 C   0  0  3  0  0  0  0  0  0  0  0  0
   14.0284    0.5162    0.0000 C   0  0  0  0  0  0  0  0  0  0  0  0
   13.3228   -1.4452    0.0000 C   0  0  0  0  0  0  0  0  0  0  0  0
   11.7930   -0.9452    0.0000 C   0  0  0  0  0  0  0  0  0  0  0  0
   12.7392   -2.2500    0.0000 C   0  0  0  0  0  0  0  0  0  0  0  0
   11.7930   -1.9452    0.0000 C   0  0  0  0  0  0  0  0  0  0  0  0
   10.9270   -0.4452    0.0000 C   0  0  0  0  0  0  0  0  0  0  0  0
   10.0610   -0.9452    0.0000 C   0  0  0  0  0  0  0  0  0  0  0  0
    8.3289   -0.9452    0.0000 C   0  0  0  0  0  0  0  0  0  0  0  0
    9.1949   -0.4452    0.0000 C   0  0  0  0  0  0  0  0  0  0  0  0
    7.4629    0.5548    0.0000 C   0  0  0  0  0  0  0  0  0  0  0  0
    6.5968   -0.9452    0.0000 C   0  0  0  0  0  0  0  0  0  0  0  0
   10.9270   -2.4452    0.0000 C   0  0  0  0  0  0  0  0  0  0  0  0
    6.5968    1.0548    0.0000 C   0  0  0  0  0  0  0  0  0  0  0  0
    5.7308   -0.4452    0.0000 C   0  0  0  0  0  0  0  0  0  0  0  0
   10.0610   -1.9452    0.0000 C   0  0  0  0  0  0  0  0  0  0  0  0
    4.8648    1.0548    0.0000 C   0  0  0  0  0  0  0  0  0  0  0  0
    3.9570    0.6496    0.0000 C   0  0  0  0  0  0  0  0  0  0  0  0
    3.2892    1.3939    0.0000 C   0  0  0  0  0  0  0  0  0  0  0  0
    3.6464   -0.3009    0.0000 C   0  0  0  0  0  0  0  0  0  0  0  0
    2.3107    1.1877    0.0000 C   0  0  0  0  0  0  0  0  0  0  0  0
    2.6678   -0.5071    0.0000 C   0  0  0  0  0  0  0  0  0  0  0  0
    2.0000    0.2372    0.0000 C   0  0  0  0  0  0  0  0  0  0  0  0
   14.8584    1.1282    0.0000 H   0  0  0  0  0  0  0  0  0  0  0  0
   15.5713    1.7520    0.0000 H   0  0  0  0  0  0  0  0  0  0  0  0
   15.3754    2.6815    0.0000 H   0  0  0  0  0  0  0  0  0  0  0  0
   14.2202    3.0591    0.0000 H   0  0  0  0  0  0  0  0  0  0  0  0
   13.5132    2.4247    0.0000 H   0  0  0  0  0  0  0  0  0  0  0  0
   13.3517   -0.5443    0.0000 H   0  0  0  0  0  0  0  0  0  0  0  0
   13.7837   -1.8600    0.0000 H   0  0  0  0  0  0  0  0  0  0  0  0
   13.7837   -1.0305    0.0000 H   0  0  0  0  0  0  0  0  0  0  0  0
   12.6358    0.7715    0.0000 H   0  0  0  0  0  0  0  0  0  0  0  0
   12.4882   -2.8169    0.0000 H   0  0  0  0  0  0  0  0  0  0  0  0
   13.2766   -2.5592    0.0000 H   0  0  0  0  0  0  0  0  0  0  0  0
   10.9270    0.1748    0.0000 H   0  0  0  0  0  0  0  0  0  0  0  0
    7.9304   -1.4202    0.0000 H   0  0  0  0  0  0  0  0  0  0  0  0
    8.7274   -1.4202    0.0000 H   0  0  0  0  0  0  0  0  0  0  0  0
    9.5934    0.0297    0.0000 H   0  0  0  0  0  0  0  0  0  0  0  0
    8.7964    0.0297    0.0000 H   0  0  0  0  0  0  0  0  0  0  0  0
    8.0734    0.4471    0.0000 H   0  0  0  0  0  0  0  0  0  0  0  0
    7.6749    1.1374    0.0000 H   0  0  0  0  0  0  0  0  0  0  0  0
    6.1983   -1.4202    0.0000 H   0  0  0  0  0  0  0  0  0  0  0  0
    6.9954   -1.4202    0.0000 H   0  0  0  0  0  0  0  0  0  0  0  0
    6.9954    1.5297    0.0000 H   0  0  0  0  0  0  0  0  0  0  0  0
    6.1983    1.5297    0.0000 H   0  0  0  0  0  0  0  0  0  0  0  0
    5.1202   -0.3376    0.0000 H   0  0  0  0  0  0  0  0  0  0  0  0
    5.5188   -1.0279    0.0000 H   0  0  0  0  0  0  0  0  0  0  0  0
   10.9270   -3.0652    0.0000 H   0  0  0  0  0  0  0  0  0  0  0  0
    9.5240   -2.2553    0.0000 H   0  0  0  0  0  0  0  0  0  0  0  0
    4.0604   -0.7624    0.0000 H   0  0  0  0  0  0  0  0  0  0  0  0
    1.8966    1.6492    0.0000 H   0  0  0  0  0  0  0  0  0  0  0  0
    2.4752   -1.0964    0.0000 H   0  0  0  0  0  0  0  0  0  0  0  0
    1.3933    0.1093    0.0000 H   0  0  0  0  0  0  0  0  0  0  0  0
  1  6  1  0  0  0  0
  1 28  1  0  0  0  0
  2 11  2  0  0  0  0
  3 10  1  0  0  0  0
  3 11  1  0  0  0  0
  3 41  1  0  0  0  0
  4 18  1  0  0  0  0
  4 20  1  0  0  0  0
  4 21  1  0  0  0  0
  5 23  1  0  0  0  0
  5 24  1  0  0  0  0
  5 26  1  0  0  0  0
  6 26  2  0  0  0  0
  7  8  1  0  0  0  0
  7  9  1  0  0  0  0
  7 11  1  0  0  0  0
  7 33  1  0  0  0  0
  8  9  1  0  0  0  0
  8 34  1  0  0  0  0
  8 35  1  0  0  0  0
  9 36  1  0  0  0  0
  9 37  1  0  0  0  0
 10 12  1  0  0  0  0
 10 13  1  0  0  0  0
 10 38  1  0  0  0  0
 12 14  1  0  0  0  0
 12 39  1  0  0  0  0
 12 40  1  0  0  0  0
 13 15  2  0  0  0  0
 13 16  1  0  0  0  0
 14 15  1  0  0  0  0
 14 42  1  0  0  0  0
 14 43  1  0  0  0  0
 15 22  1  0  0  0  0
 16 17  2  0  0  0  0
 16 44  1  0  0  0  0
 17 19  1  0  0  0  0
 17 25  1  0  0  0  0
 18 19  1  0  0  0  0
 18 45  1  0  0  0  0
 18 46  1  0  0  0  0
 19 47  1  0  0  0  0
 19 48  1  0  0  0  0
 20 23  1  0  0  0  0
 20 49  1  0  0  0  0
 20 50  1  0  0  0  0
 21 24  1  0  0  0  0
 21 51  1  0  0  0  0
 21 52  1  0  0  0  0
 22 25  2  0  0  0  0
 22 57  1  0  0  0  0
 23 53  1  0  0  0  0
 23 54  1  0  0  0  0
 24 55  1  0  0  0  0
 24 56  1  0  0  0  0
 25 58  1  0  0  0  0
 26 27  1  0  0  0  0
 27 28  1  0  0  0  0
 27 29  2  0  0  0  0
 28 30  2  0  0  0  0
 29 31  1  0  0  0  0
 29 59  1  0  0  0  0
 30 32  1  0  0  0  0
 30 60  1  0  0  0  0
 31 32  2  0  0  0  0
 31 61  1  0  0  0  0
 32 62  1  0  0  0  0
M  END
> <PUBCHEM_COMPOUND_CID>
44447005

> <PUBCHEM_COMPOUND_CANONICALIZED>
1

> <PUBCHEM_CACTVS_COMPLEXITY>
664

> <PUBCHEM_CACTVS_HBOND_ACCEPTOR>
5

> <PUBCHEM_CACTVS_HBOND_DONOR>
1

> <PUBCHEM_CACTVS_ROTATABLE_BOND>
6

> <PUBCHEM_CACTVS_SUBSKEYS>
AAADceB7oABAAAAAAAAAAAAAGAAAAeIAAAA8YIAAAAAAAHgB9AAAHgQQQAAADSjB2gQxsdPAAACsAiNycACDABAhAABJmLkoRJiIYLLAmZGUIAxglgLIyAcQgMAOwAACAAAUAACAAAQAACgAACAACQAAAA==

> <PUBCHEM_IUPAC_OPENEYE_NAME>
N-[6-[2-[4-(1,2-benzothiazol-3-yl)piperazin-1-yl]ethyl]indan-1-yl]cyclopropanecarboxamide

> <PUBCHEM_IUPAC_CAS_NAME>
N-[6-[2-[4-(1,2-benzothiazol-3-yl)-1-piperazinyl]ethyl]-2,3-dihydro-1H-inden-1-yl]cyclopropanecarboxamide

> <PUBCHEM_IUPAC_NAME_MARKUP>
<I>N</I>-[6-[2-[4-(1,2-benzothiazol-3-yl)piperazin-1-yl]ethyl]-2,3-dihydro-1<I>H</I>-inden-1-yl]cyclopropanecarboxamide

> <PUBCHEM_IUPAC_NAME>
N-[6-[2-[4-(1,2-benzothiazol-3-yl)piperazin-1-yl]ethyl]-2,3-dihydro-1H-inden-1-yl]cyclopropanecarboxamide

> <PUBCHEM_IUPAC_SYSTEMATIC_NAME>
N-[6-[2-[4-(1,2-benzothiazol-3-yl)piperazin-1-yl]ethyl]-2,3-dihydro-1H-inden-1-yl]cyclopropanecarboxamide

> <PUBCHEM_IUPAC_TRADITIONAL_NAME>
N-[6-[2-[4-(1,2-benzothiazol-3-yl)piperazino]ethyl]indan-1-yl]cyclopropanecarboxamide

> <PUBCHEM_IUPAC_INCHI>
InChI=1S/C26H30N4OS/c31-26(20-7-8-20)27-23-10-9-19-6-5-18(17-22(19)23)11-12-29-13-15-30(16-14-29)25-21-3-1-2-4-24(21)32-28-25/h1-6,17,20,23H,7-16H2,(H,27,31)

> <PUBCHEM_IUPAC_INCHIKEY>
GYVLPHYAFKCJIG-UHFFFAOYSA-N

> <PUBCHEM_XLOGP3_AA>
4.5

> <PUBCHEM_EXACT_MASS>
446.21403277

> <PUBCHEM_MOLECULAR_FORMULA>
C26H30N4OS

> <PUBCHEM_MOLECULAR_WEIGHT>
446.6

> <PUBCHEM_OPENEYE_CAN_SMILES>
C1CC1C(=O)NC2CCC3=C2C=C(C=C3)CCN4CCN(CC4)C5=NSC6=CC=CC=C65

> <PUBCHEM_OPENEYE_ISO_SMILES>
C1CC1C(=O)NC2CCC3=C2C=C(C=C3)CCN4CCN(CC4)C5=NSC6=CC=CC=C65

> <PUBCHEM_CACTVS_TPSA>
76.7

> <PUBCHEM_MONOISOTOPIC_WEIGHT>
446.21403277

> <PUBCHEM_TOTAL_CHARGE>
0

> <PUBCHEM_HEAVY_ATOM_COUNT>
32

> <PUBCHEM_ATOM_DEF_STEREO_COUNT>
0

> <PUBCHEM_ATOM_UDEF_STEREO_COUNT>
1

> <PUBCHEM_BOND_DEF_STEREO_COUNT>
0

> <PUBCHEM_BOND_UDEF_STEREO_COUNT>
0

> <PUBCHEM_ISOTOPIC_ATOM_COUNT>
0

> <PUBCHEM_COMPONENT_COUNT>
1

> <PUBCHEM_CACTVS_TAUTO_COUNT>
-1

> <PUBCHEM_COORDINATE_TYPE>
1
5
255

> <PUBCHEM_BONDANNOTATIONS>
1  28  8
1  6  8
13  15  8
13  16  8
15  22  8
16  17  8
17  25  8
22  25  8
26  27  8
27  28  8
27  29  8
28  30  8
29  31  8
10  3  3
30  32  8
31  32  8
6  26  8

$$$$
