138671398
  -OEChem-09292322452D

 70 74  0     1  0  0  0  0  0999 V2000
    3.1215    1.9637    0.0000 S   0  0  0  0  0  0  0  0  0  0  0  0
   18.6596   -2.2198    0.0000 F   0  0  0  0  0  0  0  0  0  0  0  0
   17.9478   -3.4418    0.0000 F   0  0  0  0  0  0  0  0  0  0  0  0
    6.1160    1.8591    0.0000 O   0  0  0  0  0  0  0  0  0  0  0  0
   11.6160   -0.7389    0.0000 N   0  0  3  0  0  0  0  0  0  0  0  0
    6.1160    0.1271    0.0000 N   0  0  0  0  0  0  0  0  0  0  0  0
   16.4707   -1.7631    0.0000 N   0  0  0  0  0  0  0  0  0  0  0  0
   14.7006   -1.7736    0.0000 N   0  0  0  0  0  0  0  0  0  0  0  0
    3.7796    3.4418    0.0000 N   0  0  0  0  0  0  0  0  0  0  0  0
    9.1160    0.1271    0.0000 C   0  0  0  0  0  0  0  0  0  0  0  0
    8.6160   -0.7389    0.0000 C   0  0  0  0  0  0  0  0  0  0  0  0
    8.6160    0.9931    0.0000 C   0  0  0  0  0  0  0  0  0  0  0  0
    7.1160    0.1271    0.0000 C   0  0  0  0  0  0  0  0  0  0  0  0
    7.6160   -0.7389    0.0000 C   0  0  0  0  0  0  0  0  0  0  0  0
    7.6160    0.9931    0.0000 C   0  0  0  0  0  0  0  0  0  0  0  0
   10.1160    0.1271    0.0000 C   0  0  0  0  0  0  0  0  0  0  0  0
   10.6160   -0.7389    0.0000 C   0  0  0  0  0  0  0  0  0  0  0  0
   12.0499    0.1620    0.0000 C   0  0  0  0  0  0  0  0  0  0  0  0
   12.0499   -1.6399    0.0000 C   0  0  0  0  0  0  0  0  0  0  0  0
   13.0248    0.3846    0.0000 C   0  0  0  0  0  0  0  0  0  0  0  0
   13.0248   -1.8624    0.0000 C   0  0  0  0  0  0  0  0  0  0  0  0
   13.8066   -0.2389    0.0000 C   0  0  0  0  0  0  0  0  0  0  0  0
   13.8066   -1.2389    0.0000 C   0  0  0  0  0  0  0  0  0  0  0  0
    5.6160    0.9931    0.0000 C   0  0  0  0  0  0  0  0  0  0  0  0
   16.7258   -2.7300    0.0000 C   0  0  0  0  0  0  0  0  0  0  0  0
   17.4376   -1.5080    0.0000 C   0  0  0  0  0  0  0  0  0  0  0  0
   17.6927   -2.4749    0.0000 C   0  0  0  0  0  0  0  0  0  0  0  0
   15.6066   -1.2598    0.0000 C   0  0  0  0  0  0  0  0  0  0  0  0
   14.7006    0.2957    0.0000 C   0  0  0  0  0  0  0  0  0  0  0  0
   15.6066   -0.2181    0.0000 C   0  0  0  0  0  0  0  0  0  0  0  0
    4.6160    0.9931    0.0000 C   0  0  0  0  0  0  0  0  0  0  0  0
    4.1160    1.8591    0.0000 C   0  0  0  0  0  0  0  0  0  0  0  0
    4.5227    2.7727    0.0000 C   0  0  0  0  0  0  0  0  0  0  0  0
    2.9136    2.9418    0.0000 C   0  0  0  0  0  0  0  0  0  0  0  0
    2.0000    3.3486    0.0000 C   0  0  0  0  0  0  0  0  0  0  0  0
    9.4260    0.6640    0.0000 H   0  0  0  0  0  0  0  0  0  0  0  0
    8.5083   -1.3495    0.0000 H   0  0  0  0  0  0  0  0  0  0  0  0
    9.1986   -0.9510    0.0000 H   0  0  0  0  0  0  0  0  0  0  0  0
    9.1986    1.2052    0.0000 H   0  0  0  0  0  0  0  0  0  0  0  0
    8.5083    1.6037    0.0000 H   0  0  0  0  0  0  0  0  0  0  0  0
    6.8060    0.6640    0.0000 H   0  0  0  0  0  0  0  0  0  0  0  0
    7.0334   -0.9510    0.0000 H   0  0  0  0  0  0  0  0  0  0  0  0
    7.7236   -1.3495    0.0000 H   0  0  0  0  0  0  0  0  0  0  0  0
    7.7236    1.6037    0.0000 H   0  0  0  0  0  0  0  0  0  0  0  0
    7.0334    1.2052    0.0000 H   0  0  0  0  0  0  0  0  0  0  0  0
   10.6986    0.3391    0.0000 H   0  0  0  0  0  0  0  0  0  0  0  0
   10.0083    0.7377    0.0000 H   0  0  0  0  0  0  0  0  0  0  0  0
   10.0334   -0.9510    0.0000 H   0  0  0  0  0  0  0  0  0  0  0  0
   10.7236   -1.3495    0.0000 H   0  0  0  0  0  0  0  0  0  0  0  0
    5.8060   -0.4098    0.0000 H   0  0  0  0  0  0  0  0  0  0  0  0
   12.0499    0.7820    0.0000 H   0  0  0  0  0  0  0  0  0  0  0  0
   11.4454    0.3000    0.0000 H   0  0  0  0  0  0  0  0  0  0  0  0
   11.4454   -1.7779    0.0000 H   0  0  0  0  0  0  0  0  0  0  0  0
   12.0499   -2.2599    0.0000 H   0  0  0  0  0  0  0  0  0  0  0  0
   13.5095    0.7711    0.0000 H   0  0  0  0  0  0  0  0  0  0  0  0
   12.7558    0.9432    0.0000 H   0  0  0  0  0  0  0  0  0  0  0  0
   12.7558   -2.4210    0.0000 H   0  0  0  0  0  0  0  0  0  0  0  0
   13.5095   -2.2490    0.0000 H   0  0  0  0  0  0  0  0  0  0  0  0
   16.1263   -2.8882    0.0000 H   0  0  0  0  0  0  0  0  0  0  0  0
   16.8840   -3.3295    0.0000 H   0  0  0  0  0  0  0  0  0  0  0  0
   18.0371   -1.3498    0.0000 H   0  0  0  0  0  0  0  0  0  0  0  0
   17.2795   -0.9085    0.0000 H   0  0  0  0  0  0  0  0  0  0  0  0
   14.6934    0.9157    0.0000 H   0  0  0  0  0  0  0  0  0  0  0  0
   16.1424    0.0940    0.0000 H   0  0  0  0  0  0  0  0  0  0  0  0
    4.0334    0.7811    0.0000 H   0  0  0  0  0  0  0  0  0  0  0  0
    4.7236    0.3825    0.0000 H   0  0  0  0  0  0  0  0  0  0  0  0
    5.1292    2.9016    0.0000 H   0  0  0  0  0  0  0  0  0  0  0  0
    2.2522    3.9150    0.0000 H   0  0  0  0  0  0  0  0  0  0  0  0
    1.4336    3.6007    0.0000 H   0  0  0  0  0  0  0  0  0  0  0  0
    1.7478    2.7822    0.0000 H   0  0  0  0  0  0  0  0  0  0  0  0
  1 32  1  0  0  0  0
  1 34  1  0  0  0  0
  2 27  1  0  0  0  0
  3 27  1  0  0  0  0
  4 24  2  0  0  0  0
  5 17  1  0  0  0  0
  5 18  1  0  0  0  0
  5 19  1  0  0  0  0
  6 13  1  0  0  0  0
  6 24  1  0  0  0  0
  6 50  1  0  0  0  0
  7 25  1  0  0  0  0
  7 26  1  0  0  0  0
  7 28  1  0  0  0  0
  8 23  1  0  0  0  0
  8 28  2  0  0  0  0
  9 33  1  0  0  0  0
  9 34  2  0  0  0  0
 10 11  1  0  0  0  0
 10 12  1  0  0  0  0
 10 16  1  0  0  0  0
 10 36  1  0  0  0  0
 11 14  1  0  0  0  0
 11 37  1  0  0  0  0
 11 38  1  0  0  0  0
 12 15  1  0  0  0  0
 12 39  1  0  0  0  0
 12 40  1  0  0  0  0
 13 14  1  0  0  0  0
 13 15  1  0  0  0  0
 13 41  1  0  0  0  0
 14 42  1  0  0  0  0
 14 43  1  0  0  0  0
 15 44  1  0  0  0  0
 15 45  1  0  0  0  0
 16 17  1  0  0  0  0
 16 46  1  0  0  0  0
 16 47  1  0  0  0  0
 17 48  1  0  0  0  0
 17 49  1  0  0  0  0
 18 20  1  0  0  0  0
 18 51  1  0  0  0  0
 18 52  1  0  0  0  0
 19 21  1  0  0  0  0
 19 53  1  0  0  0  0
 19 54  1  0  0  0  0
 20 22  1  0  0  0  0
 20 55  1  0  0  0  0
 20 56  1  0  0  0  0
 21 23  1  0  0  0  0
 21 57  1  0  0  0  0
 21 58  1  0  0  0  0
 22 23  2  0  0  0  0
 22 29  1  0  0  0  0
 24 31  1  0  0  0  0
 25 27  1  0  0  0  0
 25 59  1  0  0  0  0
 25 60  1  0  0  0  0
 26 27  1  0  0  0  0
 26 61  1  0  0  0  0
 26 62  1  0  0  0  0
 28 30  1  0  0  0  0
 29 30  2  0  0  0  0
 29 63  1  0  0  0  0
 30 64  1  0  0  0  0
 31 32  1  0  0  0  0
 31 65  1  0  0  0  0
 31 66  1  0  0  0  0
 32 33  2  0  0  0  0
 33 67  1  0  0  0  0
 34 35  1  0  0  0  0
 35 68  1  0  0  0  0
 35 69  1  0  0  0  0
 35 70  1  0  0  0  0
M  END
> <PUBCHEM_COMPOUND_CID>
138671398

> <PUBCHEM_COMPOUND_CANONICALIZED>
1

> <PUBCHEM_CACTVS_COMPLEXITY>
714

> <PUBCHEM_CACTVS_HBOND_ACCEPTOR>
8

> <PUBCHEM_CACTVS_HBOND_DONOR>
1

> <PUBCHEM_CACTVS_ROTATABLE_BOND>
7

> <PUBCHEM_CACTVS_SUBSKEYS>
AAADcfB7oYBAAAAAAAAAAAAAAABYAWAAAAA8QAAABYAAAAAB4AAAHwQQAAAADSjB3hQ/sZPIEAisAzd3dACC8KlxCjhJ2K04ZJiIIPLg3ZGEIAholgLoyCcUgIAOAAAAAAAAAAAQAAAAAAAAAAAAAAAAAA==

> <PUBCHEM_IUPAC_OPENEYE_NAME>
N-[4-[2-[2-(3,3-difluoroazetidin-1-yl)-5,6,8,9-tetrahydropyrido[2,3-d]azepin-7-yl]ethyl]cyclohexyl]-2-(2-methylthiazol-5-yl)acetamide

> <PUBCHEM_IUPAC_CAS_NAME>
N-[4-[2-[2-(3,3-difluoro-1-azetidinyl)-5,6,8,9-tetrahydropyrido[2,3-d]azepin-7-yl]ethyl]cyclohexyl]-2-(2-methyl-5-thiazolyl)acetamide

> <PUBCHEM_IUPAC_NAME_MARKUP>
<I>N</I>-[4-[2-[2-(3,3-difluoroazetidin-1-yl)-5,6,8,9-tetrahydropyrido[2,3-d]azepin-7-yl]ethyl]cyclohexyl]-2-(2-methyl-1,3-thiazol-5-yl)acetamide

> <PUBCHEM_IUPAC_NAME>
N-[4-[2-[2-(3,3-difluoroazetidin-1-yl)-5,6,8,9-tetrahydropyrido[2,3-d]azepin-7-yl]ethyl]cyclohexyl]-2-(2-methyl-1,3-thiazol-5-yl)acetamide

> <PUBCHEM_IUPAC_SYSTEMATIC_NAME>
N-[4-[2-[2-[3,3-bis(fluoranyl)azetidin-1-yl]-5,6,8,9-tetrahydropyrido[2,3-d]azepin-7-yl]ethyl]cyclohexyl]-2-(2-methyl-1,3-thiazol-5-yl)ethanamide

> <PUBCHEM_IUPAC_TRADITIONAL_NAME>
N-[4-[2-[2-(3,3-difluoroazetidin-1-yl)-5,6,8,9-tetrahydropyrid[2,3-d]azepin-7-yl]ethyl]cyclohexyl]-2-(2-methylthiazol-5-yl)acetamide

> <PUBCHEM_IUPAC_INCHI>
InChI=1S/C26H35F2N5OS/c1-18-29-15-22(35-18)14-25(34)30-21-5-2-19(3-6-21)8-11-32-12-9-20-4-7-24(31-23(20)10-13-32)33-16-26(27,28)17-33/h4,7,15,19,21H,2-3,5-6,8-14,16-17H2,1H3,(H,30,34)

> <PUBCHEM_IUPAC_INCHIKEY>
KVAJGAADTJZUNF-UHFFFAOYSA-N

> <PUBCHEM_XLOGP3_AA>
4.4

> <PUBCHEM_EXACT_MASS>
503.25303825

> <PUBCHEM_MOLECULAR_FORMULA>
C26H35F2N5OS

> <PUBCHEM_MOLECULAR_WEIGHT>
503.7

> <PUBCHEM_OPENEYE_CAN_SMILES>
CC1=NC=C(S1)CC(=O)NC2CCC(CC2)CCN3CCC4=C(CC3)N=C(C=C4)N5CC(C5)(F)F

> <PUBCHEM_OPENEYE_ISO_SMILES>
CC1=NC=C(S1)CC(=O)NC2CCC(CC2)CCN3CCC4=C(CC3)N=C(C=C4)N5CC(C5)(F)F

> <PUBCHEM_CACTVS_TPSA>
89.6

> <PUBCHEM_MONOISOTOPIC_WEIGHT>
503.25303825

> <PUBCHEM_TOTAL_CHARGE>
0

> <PUBCHEM_HEAVY_ATOM_COUNT>
35

> <PUBCHEM_ATOM_DEF_STEREO_COUNT>
0

> <PUBCHEM_ATOM_UDEF_STEREO_COUNT>
0

> <PUBCHEM_BOND_DEF_STEREO_COUNT>
0

> <PUBCHEM_BOND_UDEF_STEREO_COUNT>
0

> <PUBCHEM_ISOTOPIC_ATOM_COUNT>
0

> <PUBCHEM_COMPONENT_COUNT>
1

> <PUBCHEM_CACTVS_TAUTO_COUNT>
-1

> <PUBCHEM_COORDINATE_TYPE>
1
5
255

> <PUBCHEM_BONDANNOTATIONS>
1  32  8
1  34  8
22  23  8
22  29  8
28  30  8
29  30  8
32  33  8
8  23  8
8  28  8
9  33  8
9  34  8

$$$$
