10571274
  -OEChem-09292322112D

 53 57  0     1  0  0  0  0  0999 V2000
    5.6660    1.9836    0.0000 O   0  0  0  0  0  0  0  0  0  0  0  0
    2.9867   -0.2122    0.0000 O   0  0  0  0  0  0  0  0  0  0  0  0
    8.4445   -1.9193    0.0000 N   0  0  3  0  0  0  0  0  0  0  0  0
    7.5862   -1.4224    0.0000 C   0  0  1  0  0  0  0  0  0  0  0  0
    7.5862   -0.4224    0.0000 C   0  0  0  0  0  0  0  0  0  0  0  0
    6.7202   -1.9224    0.0000 C   0  0  0  0  0  0  0  0  0  0  0  0
    8.4962    0.0845    0.0000 C   0  0  0  0  0  0  0  0  0  0  0  0
    9.3099   -1.4352    0.0000 C   0  0  0  0  0  0  0  0  0  0  0  0
    6.7202    0.0776    0.0000 C   0  0  0  0  0  0  0  0  0  0  0  0
    9.3356   -0.4438    0.0000 C   0  0  0  0  0  0  0  0  0  0  0  0
    5.8542   -1.4224    0.0000 C   0  0  0  0  0  0  0  0  0  0  0  0
    5.8542   -0.4224    0.0000 C   0  0  0  0  0  0  0  0  0  0  0  0
    8.4371   -2.9193    0.0000 C   0  0  0  0  0  0  0  0  0  0  0  0
    8.5043    1.1260    0.0000 C   0  0  0  0  0  0  0  0  0  0  0  0
    4.9602    0.1123    0.0000 C   0  0  0  0  0  0  0  0  0  0  0  0
    6.7042    1.1191    0.0000 C   0  0  0  0  0  0  0  0  0  0  0  0
    4.9602   -1.9570    0.0000 C   0  0  0  0  0  0  0  0  0  0  0  0
    7.6022    1.6469    0.0000 C   0  0  0  0  0  0  0  0  0  0  0  0
    4.0542   -0.4016    0.0000 C   0  0  0  0  0  0  0  0  0  0  0  0
    4.0542   -1.4432    0.0000 C   0  0  0  0  0  0  0  0  0  0  0  0
    4.3264    0.8857    0.0000 C   0  0  0  0  0  0  0  0  0  0  0  0
    4.6792    1.8214    0.0000 C   0  0  0  0  0  0  0  0  0  0  0  0
    3.3396    0.7234    0.0000 C   0  0  0  0  0  0  0  0  0  0  0  0
    4.0453    2.5948    0.0000 C   0  0  0  0  0  0  0  0  0  0  0  0
    2.7057    1.4969    0.0000 C   0  0  0  0  0  0  0  0  0  0  0  0
    3.0586    2.4326    0.0000 C   0  0  0  0  0  0  0  0  0  0  0  0
    6.0188    2.9193    0.0000 C   0  0  0  0  0  0  0  0  0  0  0  0
    2.0000   -0.3745    0.0000 C   0  0  0  0  0  0  0  0  0  0  0  0
    7.5857   -2.2724    0.0000 H   0  0  0  0  0  0  0  0  0  0  0  0
    6.3217   -2.3973    0.0000 H   0  0  0  0  0  0  0  0  0  0  0  0
    7.1187   -2.3973    0.0000 H   0  0  0  0  0  0  0  0  0  0  0  0
    9.5117   -2.0214    0.0000 H   0  0  0  0  0  0  0  0  0  0  0  0
    9.9227   -1.3408    0.0000 H   0  0  0  0  0  0  0  0  0  0  0  0
    9.9426   -0.5697    0.0000 H   0  0  0  0  0  0  0  0  0  0  0  0
    9.5673    0.1313    0.0000 H   0  0  0  0  0  0  0  0  0  0  0  0
    7.8171   -2.9147    0.0000 H   0  0  0  0  0  0  0  0  0  0  0  0
    8.4325   -3.5393    0.0000 H   0  0  0  0  0  0  0  0  0  0  0  0
    9.0570   -2.9239    0.0000 H   0  0  0  0  0  0  0  0  0  0  0  0
    9.0424    1.4340    0.0000 H   0  0  0  0  0  0  0  0  0  0  0  0
    6.1637    1.4229    0.0000 H   0  0  0  0  0  0  0  0  0  0  0  0
    4.9674   -2.5770    0.0000 H   0  0  0  0  0  0  0  0  0  0  0  0
    7.5998    2.2669    0.0000 H   0  0  0  0  0  0  0  0  0  0  0  0
    3.5184   -0.0895    0.0000 H   0  0  0  0  0  0  0  0  0  0  0  0
    3.5184   -1.7553    0.0000 H   0  0  0  0  0  0  0  0  0  0  0  0
    4.2641    3.1749    0.0000 H   0  0  0  0  0  0  0  0  0  0  0  0
    2.0939    1.3963    0.0000 H   0  0  0  0  0  0  0  0  0  0  0  0
    2.6656    2.9121    0.0000 H   0  0  0  0  0  0  0  0  0  0  0  0
    6.5990    2.7005    0.0000 H   0  0  0  0  0  0  0  0  0  0  0  0
    6.2376    3.4994    0.0000 H   0  0  0  0  0  0  0  0  0  0  0  0
    5.4387    3.1381    0.0000 H   0  0  0  0  0  0  0  0  0  0  0  0
    1.8994    0.2373    0.0000 H   0  0  0  0  0  0  0  0  0  0  0  0
    1.3882   -0.4751    0.0000 H   0  0  0  0  0  0  0  0  0  0  0  0
    2.1006   -0.9863    0.0000 H   0  0  0  0  0  0  0  0  0  0  0  0
  1 22  1  0  0  0  0
  1 27  1  0  0  0  0
  2 23  1  0  0  0  0
  2 28  1  0  0  0  0
  3  4  1  0  0  0  0
  3  8  1  0  0  0  0
  3 13  1  0  0  0  0
  4  5  1  0  0  0  0
  4  6  1  0  0  0  0
  4 29  1  1  0  0  0
  5  7  2  0  0  0  0
  5  9  1  0  0  0  0
  6 11  1  0  0  0  0
  6 30  1  0  0  0  0
  6 31  1  0  0  0  0
  7 10  1  0  0  0  0
  7 14  1  0  0  0  0
  8 10  1  0  0  0  0
  8 32  1  0  0  0  0
  8 33  1  0  0  0  0
  9 12  1  0  0  0  0
  9 16  2  0  0  0  0
 10 34  1  0  0  0  0
 10 35  1  0  0  0  0
 11 12  2  0  0  0  0
 11 17  1  0  0  0  0
 12 15  1  0  0  0  0
 13 36  1  0  0  0  0
 13 37  1  0  0  0  0
 13 38  1  0  0  0  0
 14 18  2  0  0  0  0
 14 39  1  0  0  0  0
 15 19  2  0  0  0  0
 15 21  1  0  0  0  0
 16 18  1  0  0  0  0
 16 40  1  0  0  0  0
 17 20  2  0  0  0  0
 17 41  1  0  0  0  0
 18 42  1  0  0  0  0
 19 20  1  0  0  0  0
 19 43  1  0  0  0  0
 20 44  1  0  0  0  0
 21 22  2  0  0  0  0
 21 23  1  0  0  0  0
 22 24  1  0  0  0  0
 23 25  2  0  0  0  0
 24 26  2  0  0  0  0
 24 45  1  0  0  0  0
 25 26  1  0  0  0  0
 25 46  1  0  0  0  0
 26 47  1  0  0  0  0
 27 48  1  0  0  0  0
 27 49  1  0  0  0  0
 27 50  1  0  0  0  0
 28 51  1  0  0  0  0
 28 52  1  0  0  0  0
 28 53  1  0  0  0  0
M  END
> <PUBCHEM_COMPOUND_CID>
10571274

> <PUBCHEM_COMPOUND_CANONICALIZED>
1

> <PUBCHEM_CACTVS_COMPLEXITY>
527

> <PUBCHEM_CACTVS_HBOND_ACCEPTOR>
3

> <PUBCHEM_CACTVS_HBOND_DONOR>
0

> <PUBCHEM_CACTVS_ROTATABLE_BOND>
3

> <PUBCHEM_CACTVS_SUBSKEYS>
AAADceB6MAAAAAAAAAAAAAAAAAAAAAAAAAA8YMGCAAAAAADxUAAAHgAAAAAADCzBmAYyBoMABACAAiBCAACCCAAgIAAIiAAODIgMJyKEsRuEMChlwBWIqAeQ4PwOgAACCAAYAACQAASQADQAAAAAAAAAAA==

> <PUBCHEM_IUPAC_OPENEYE_NAME>
(6aR)-11-(2,6-dimethoxyphenyl)-6-methyl-5,6,6a,7-tetrahydro-4H-dibenzo[de,g]quinoline

> <PUBCHEM_IUPAC_CAS_NAME>
(6aR)-11-(2,6-dimethoxyphenyl)-6-methyl-5,6,6a,7-tetrahydro-4H-dibenzo[de,g]quinoline

> <PUBCHEM_IUPAC_NAME_MARKUP>
(6<I>a</I><I>R</I>)-11-(2,6-dimethoxyphenyl)-6-methyl-5,6,6<I>a</I>,7-tetrahydro-4<I>H</I>-dibenzo[de,g]quinoline

> <PUBCHEM_IUPAC_NAME>
(6aR)-11-(2,6-dimethoxyphenyl)-6-methyl-5,6,6a,7-tetrahydro-4H-dibenzo[de,g]quinoline

> <PUBCHEM_IUPAC_SYSTEMATIC_NAME>
(6aR)-11-(2,6-dimethoxyphenyl)-6-methyl-5,6,6a,7-tetrahydro-4H-dibenzo[de,g]quinoline

> <PUBCHEM_IUPAC_TRADITIONAL_NAME>
(6aR)-11-(2,6-dimethoxyphenyl)-6-methyl-5,6,6a,7-tetrahydro-4H-dibenzo[de,g]quinoline

> <PUBCHEM_IUPAC_INCHI>
InChI=1S/C25H25NO2/c1-26-14-13-16-7-4-9-18-23-17(15-20(26)24(16)18)8-5-10-19(23)25-21(27-2)11-6-12-22(25)28-3/h4-12,20H,13-15H2,1-3H3/t20-/m1/s1

> <PUBCHEM_IUPAC_INCHIKEY>
CCSCYJFJDDPPKK-HXUWFJFHSA-N

> <PUBCHEM_XLOGP3_AA>
5.1

> <PUBCHEM_EXACT_MASS>
371.188529040

> <PUBCHEM_MOLECULAR_FORMULA>
C25H25NO2

> <PUBCHEM_MOLECULAR_WEIGHT>
371.5

> <PUBCHEM_OPENEYE_CAN_SMILES>
CN1CCC2=C3C1CC4=C(C3=CC=C2)C(=CC=C4)C5=C(C=CC=C5OC)OC

> <PUBCHEM_OPENEYE_ISO_SMILES>
CN1CCC2=C3[C@H]1CC4=C(C3=CC=C2)C(=CC=C4)C5=C(C=CC=C5OC)OC

> <PUBCHEM_CACTVS_TPSA>
21.7

> <PUBCHEM_MONOISOTOPIC_WEIGHT>
371.188529040

> <PUBCHEM_TOTAL_CHARGE>
0

> <PUBCHEM_HEAVY_ATOM_COUNT>
28

> <PUBCHEM_ATOM_DEF_STEREO_COUNT>
1

> <PUBCHEM_ATOM_UDEF_STEREO_COUNT>
0

> <PUBCHEM_BOND_DEF_STEREO_COUNT>
0

> <PUBCHEM_BOND_UDEF_STEREO_COUNT>
0

> <PUBCHEM_ISOTOPIC_ATOM_COUNT>
0

> <PUBCHEM_COMPONENT_COUNT>
1

> <PUBCHEM_CACTVS_TAUTO_COUNT>
-1

> <PUBCHEM_COORDINATE_TYPE>
1
5
255

> <PUBCHEM_BONDANNOTATIONS>
11  12  8
11  17  8
12  15  8
14  18  8
15  19  8
16  18  8
17  20  8
19  20  8
21  22  8
21  23  8
22  24  8
23  25  8
24  26  8
25  26  8
4  29  5
5  7  8
5  9  8
7  14  8
9  16  8

$$$$
