137654511
  -OEChem-09292322392D

 36 38  0     0  0  0  0  0  0999 V2000
    2.8660   -3.3450    0.0000 O   0  0  0  0  0  0  0  0  0  0  0  0
    6.3961   -2.3692    0.0000 O   0  0  0  0  0  0  0  0  0  0  0  0
    2.8660    0.6550    0.0000 N   0  0  0  0  0  0  0  0  0  0  0  0
    2.8660    2.6550    0.0000 N   0  0  0  0  0  0  0  0  0  0  0  0
    4.6260   -2.3797    0.0000 N   0  0  0  0  0  0  0  0  0  0  0  0
    2.0000    1.1550    0.0000 C   0  0  0  0  0  0  0  0  0  0  0  0
    3.7320    1.1550    0.0000 C   0  0  0  0  0  0  0  0  0  0  0  0
    2.0000    2.1550    0.0000 C   0  0  0  0  0  0  0  0  0  0  0  0
    3.7320    2.1550    0.0000 C   0  0  0  0  0  0  0  0  0  0  0  0
    2.8660   -0.3450    0.0000 C   0  0  0  0  0  0  0  0  0  0  0  0
    3.7320   -0.8450    0.0000 C   0  0  0  0  0  0  0  0  0  0  0  0
    2.8660    3.6550    0.0000 C   0  0  0  0  0  0  0  0  0  0  0  0
    2.0000   -0.8450    0.0000 C   0  0  0  0  0  0  0  0  0  0  0  0
    3.7320   -1.8450    0.0000 C   0  0  0  0  0  0  0  0  0  0  0  0
    4.6260   -0.3103    0.0000 C   0  0  0  0  0  0  0  0  0  0  0  0
    2.8660   -2.3450    0.0000 C   0  0  0  0  0  0  0  0  0  0  0  0
    2.0000   -1.8450    0.0000 C   0  0  0  0  0  0  0  0  0  0  0  0
    5.5321   -0.8242    0.0000 C   0  0  0  0  0  0  0  0  0  0  0  0
    5.5321   -1.8658    0.0000 C   0  0  0  0  0  0  0  0  0  0  0  0
    1.3894    1.2627    0.0000 H   0  0  0  0  0  0  0  0  0  0  0  0
    1.7880    0.5724    0.0000 H   0  0  0  0  0  0  0  0  0  0  0  0
    3.9441    0.5724    0.0000 H   0  0  0  0  0  0  0  0  0  0  0  0
    4.3426    1.2627    0.0000 H   0  0  0  0  0  0  0  0  0  0  0  0
    1.7880    2.7376    0.0000 H   0  0  0  0  0  0  0  0  0  0  0  0
    1.3894    2.0473    0.0000 H   0  0  0  0  0  0  0  0  0  0  0  0
    4.3426    2.0473    0.0000 H   0  0  0  0  0  0  0  0  0  0  0  0
    3.9441    2.7376    0.0000 H   0  0  0  0  0  0  0  0  0  0  0  0
    3.4860    3.6550    0.0000 H   0  0  0  0  0  0  0  0  0  0  0  0
    2.8660    4.2750    0.0000 H   0  0  0  0  0  0  0  0  0  0  0  0
    2.2460    3.6550    0.0000 H   0  0  0  0  0  0  0  0  0  0  0  0
    1.4631   -0.5350    0.0000 H   0  0  0  0  0  0  0  0  0  0  0  0
    4.6188    0.3096    0.0000 H   0  0  0  0  0  0  0  0  0  0  0  0
    1.4631   -2.1550    0.0000 H   0  0  0  0  0  0  0  0  0  0  0  0
    4.6188   -2.9996    0.0000 H   0  0  0  0  0  0  0  0  0  0  0  0
    6.0678   -0.5121    0.0000 H   0  0  0  0  0  0  0  0  0  0  0  0
    2.3291   -3.6550    0.0000 H   0  0  0  0  0  0  0  0  0  0  0  0
  1 16  1  0  0  0  0
  1 36  1  0  0  0  0
  2 19  2  0  0  0  0
  3  6  1  0  0  0  0
  3  7  1  0  0  0  0
  3 10  1  0  0  0  0
  4  8  1  0  0  0  0
  4  9  1  0  0  0  0
  4 12  1  0  0  0  0
  5 14  1  0  0  0  0
  5 19  1  0  0  0  0
  5 34  1  0  0  0  0
  6  8  1  0  0  0  0
  6 20  1  0  0  0  0
  6 21  1  0  0  0  0
  7  9  1  0  0  0  0
  7 22  1  0  0  0  0
  7 23  1  0  0  0  0
  8 24  1  0  0  0  0
  8 25  1  0  0  0  0
  9 26  1  0  0  0  0
  9 27  1  0  0  0  0
 10 11  2  0  0  0  0
 10 13  1  0  0  0  0
 11 14  1  0  0  0  0
 11 15  1  0  0  0  0
 12 28  1  0  0  0  0
 12 29  1  0  0  0  0
 12 30  1  0  0  0  0
 13 17  2  0  0  0  0
 13 31  1  0  0  0  0
 14 16  2  0  0  0  0
 15 18  2  0  0  0  0
 15 32  1  0  0  0  0
 16 17  1  0  0  0  0
 17 33  1  0  0  0  0
 18 19  1  0  0  0  0
 18 35  1  0  0  0  0
M  END
> <PUBCHEM_COMPOUND_CID>
137654511

> <PUBCHEM_COMPOUND_CANONICALIZED>
1

> <PUBCHEM_CACTVS_COMPLEXITY>
377

> <PUBCHEM_CACTVS_HBOND_ACCEPTOR>
4

> <PUBCHEM_CACTVS_HBOND_DONOR>
2

> <PUBCHEM_CACTVS_ROTATABLE_BOND>
1

> <PUBCHEM_CACTVS_SUBSKEYS>
AAADceBzMAAAAAAAAAAAAAAAAAAAAAAAAAA8QIAAAAAAAACBAAAAHgAQCAAADAzBmAQyxoPAAgCIAiVSUACCAAAhIgAIiAAPbMgKZiLS0NOUcAhk1BHY2YewwBAOAEABAAQCEAAAgAIACAQgAAAAAAAAAA==

> <PUBCHEM_IUPAC_OPENEYE_NAME>
8-hydroxy-5-(4-methylpiperazin-1-yl)-1H-quinolin-2-one

> <PUBCHEM_IUPAC_CAS_NAME>
8-hydroxy-5-(4-methyl-1-piperazinyl)-1H-quinolin-2-one

> <PUBCHEM_IUPAC_NAME_MARKUP>
8-hydroxy-5-(4-methylpiperazin-1-yl)-1<I>H</I>-quinolin-2-one

> <PUBCHEM_IUPAC_NAME>
8-hydroxy-5-(4-methylpiperazin-1-yl)-1H-quinolin-2-one

> <PUBCHEM_IUPAC_SYSTEMATIC_NAME>
5-(4-methylpiperazin-1-yl)-8-oxidanyl-1H-quinolin-2-one

> <PUBCHEM_IUPAC_TRADITIONAL_NAME>
8-hydroxy-5-(4-methylpiperazino)carbostyril

> <PUBCHEM_IUPAC_INCHI>
InChI=1S/C14H17N3O2/c1-16-6-8-17(9-7-16)11-3-4-12(18)14-10(11)2-5-13(19)15-14/h2-5,18H,6-9H2,1H3,(H,15,19)

> <PUBCHEM_IUPAC_INCHIKEY>
UYCJWHABGCDKEQ-UHFFFAOYSA-N

> <PUBCHEM_XLOGP3_AA>
0.9

> <PUBCHEM_EXACT_MASS>
259.132076794

> <PUBCHEM_MOLECULAR_FORMULA>
C14H17N3O2

> <PUBCHEM_MOLECULAR_WEIGHT>
259.30

> <PUBCHEM_OPENEYE_CAN_SMILES>
CN1CCN(CC1)C2=C3C=CC(=O)NC3=C(C=C2)O

> <PUBCHEM_OPENEYE_ISO_SMILES>
CN1CCN(CC1)C2=C3C=CC(=O)NC3=C(C=C2)O

> <PUBCHEM_CACTVS_TPSA>
55.8

> <PUBCHEM_MONOISOTOPIC_WEIGHT>
259.132076794

> <PUBCHEM_TOTAL_CHARGE>
0

> <PUBCHEM_HEAVY_ATOM_COUNT>
19

> <PUBCHEM_ATOM_DEF_STEREO_COUNT>
0

> <PUBCHEM_ATOM_UDEF_STEREO_COUNT>
0

> <PUBCHEM_BOND_DEF_STEREO_COUNT>
0

> <PUBCHEM_BOND_UDEF_STEREO_COUNT>
0

> <PUBCHEM_ISOTOPIC_ATOM_COUNT>
0

> <PUBCHEM_COMPONENT_COUNT>
1

> <PUBCHEM_CACTVS_TAUTO_COUNT>
-1

> <PUBCHEM_COORDINATE_TYPE>
1
5
255

> <PUBCHEM_BONDANNOTATIONS>
10  11  8
10  13  8
11  14  8
11  15  8
13  17  8
14  16  8
15  18  8
16  17  8
18  19  8
5  14  8
5  19  8

$$$$
