46889014
  -OEChem-09292322292D

 66 72  0     1  0  0  0  0  0999 V2000
    7.1719   -2.1067    0.0000 O   0  0  0  0  0  0  0  0  0  0  0  0
    5.3798   -1.0720    0.0000 O   0  0  0  0  0  0  0  0  0  0  0  0
   16.4893    3.1692    0.0000 O   0  0  0  0  0  0  0  0  0  0  0  0
    2.0000   -3.1135    0.0000 O   0  0  0  0  0  0  0  0  0  0  0  0
    8.0517    0.4316    0.0000 N   0  0  0  0  0  0  0  0  0  0  0  0
   14.8272    2.5604    0.0000 N   0  0  0  0  0  0  0  0  0  0  0  0
    3.5836   -3.9183    0.0000 N   0  0  0  0  0  0  0  0  0  0  0  0
    7.9098    1.6514    0.0000 C   0  0  3  0  0  0  0  0  0  0  0  0
    8.6196    2.3558    0.0000 C   0  0  3  0  0  0  0  0  0  0  0  0
   10.5453    1.5887    0.0000 C   0  0  0  0  0  0  0  0  0  0  0  0
    9.8233    0.8968    0.0000 C   0  0  0  0  0  0  0  0  0  0  0  0
   10.1104    2.4892    0.0000 C   0  0  0  0  0  0  0  0  0  0  0  0
    6.9571    2.7952    0.0000 C   0  0  0  0  0  0  0  0  0  0  0  0
    7.6669    3.4996    0.0000 C   0  0  0  0  0  0  0  0  0  0  0  0
    8.0479   -0.5684    0.0000 C   0  0  0  0  0  0  0  0  0  0  0  0
   11.5294    1.4113    0.0000 C   0  0  0  0  0  0  0  0  0  0  0  0
    7.1799   -1.0651    0.0000 C   0  0  2  0  0  0  0  0  0  0  0  0
   12.1752    2.1748    0.0000 C   0  0  0  0  0  0  0  0  0  0  0  0
    6.2778   -0.5443    0.0000 C   0  0  0  0  0  0  0  0  0  0  0  0
   13.1593    1.9974    0.0000 C   0  0  0  0  0  0  0  0  0  0  0  0
   11.8368    3.1158    0.0000 C   0  0  0  0  0  0  0  0  0  0  0  0
    6.2619   -2.6135    0.0000 C   0  0  0  0  0  0  0  0  0  0  0  0
    5.3958   -2.1135    0.0000 C   0  0  0  0  0  0  0  0  0  0  0  0
   13.8050    2.7610    0.0000 C   0  0  0  0  0  0  0  0  0  0  0  0
   12.4825    3.8794    0.0000 C   0  0  0  0  0  0  0  0  0  0  0  0
   13.4667    3.7020    0.0000 C   0  0  0  0  0  0  0  0  0  0  0  0
    4.5298   -2.6135    0.0000 C   0  0  0  0  0  0  0  0  0  0  0  0
    6.2619   -3.6135    0.0000 C   0  0  0  0  0  0  0  0  0  0  0  0
   14.1269    4.5076    0.0000 C   0  0  0  0  0  0  0  0  0  0  0  0
    4.5298   -3.6135    0.0000 C   0  0  0  0  0  0  0  0  0  0  0  0
    3.5836   -2.3088    0.0000 C   0  0  0  0  0  0  0  0  0  0  0  0
    5.3958   -4.1135    0.0000 C   0  0  0  0  0  0  0  0  0  0  0  0
   15.1534    4.3307    0.0000 C   0  0  0  0  0  0  0  0  0  0  0  0
   15.5059    3.3505    0.0000 C   0  0  0  0  0  0  0  0  0  0  0  0
    3.0000   -3.1135    0.0000 C   0  0  0  0  0  0  0  0  0  0  0  0
    8.2730    2.1538    0.0000 H   0  0  0  0  0  0  0  0  0  0  0  0
    8.8574    2.9284    0.0000 H   0  0  0  0  0  0  0  0  0  0  0  0
   10.7243    0.9951    0.0000 H   0  0  0  0  0  0  0  0  0  0  0  0
    9.5156    0.3586    0.0000 H   0  0  0  0  0  0  0  0  0  0  0  0
   10.3120    0.5152    0.0000 H   0  0  0  0  0  0  0  0  0  0  0  0
   10.6970    2.6899    0.0000 H   0  0  0  0  0  0  0  0  0  0  0  0
    9.9815    3.0956    0.0000 H   0  0  0  0  0  0  0  0  0  0  0  0
    6.5333    3.2478    0.0000 H   0  0  0  0  0  0  0  0  0  0  0  0
    6.4924    2.3847    0.0000 H   0  0  0  0  0  0  0  0  0  0  0  0
    8.1316    3.9100    0.0000 H   0  0  0  0  0  0  0  0  0  0  0  0
    7.2432    3.9522    0.0000 H   0  0  0  0  0  0  0  0  0  0  0  0
    8.2577   -1.1518    0.0000 H   0  0  0  0  0  0  0  0  0  0  0  0
    8.6588   -0.4631    0.0000 H   0  0  0  0  0  0  0  0  0  0  0  0
   11.3152    0.8295    0.0000 H   0  0  0  0  0  0  0  0  0  0  0  0
   12.0652    1.0992    0.0000 H   0  0  0  0  0  0  0  0  0  0  0  0
    7.7150   -1.3782    0.0000 H   0  0  0  0  0  0  0  0  0  0  0  0
    6.6751   -0.0683    0.0000 H   0  0  0  0  0  0  0  0  0  0  0  0
    5.8769   -0.0714    0.0000 H   0  0  0  0  0  0  0  0  0  0  0  0
   13.3691    1.4140    0.0000 H   0  0  0  0  0  0  0  0  0  0  0  0
   11.2266    3.2259    0.0000 H   0  0  0  0  0  0  0  0  0  0  0  0
   12.2727    4.4628    0.0000 H   0  0  0  0  0  0  0  0  0  0  0  0
    6.7988   -3.9235    0.0000 H   0  0  0  0  0  0  0  0  0  0  0  0
   14.3352    5.0916    0.0000 H   0  0  0  0  0  0  0  0  0  0  0  0
   13.5872    4.8128    0.0000 H   0  0  0  0  0  0  0  0  0  0  0  0
   15.0302    1.9745    0.0000 H   0  0  0  0  0  0  0  0  0  0  0  0
    3.8346   -1.7419    0.0000 H   0  0  0  0  0  0  0  0  0  0  0  0
    3.0462   -1.9996    0.0000 H   0  0  0  0  0  0  0  0  0  0  0  0
    5.3958   -4.7335    0.0000 H   0  0  0  0  0  0  0  0  0  0  0  0
   15.7641    4.4375    0.0000 H   0  0  0  0  0  0  0  0  0  0  0  0
   15.1526    4.9507    0.0000 H   0  0  0  0  0  0  0  0  0  0  0  0
    3.3910   -4.5076    0.0000 H   0  0  0  0  0  0  0  0  0  0  0  0
  1 17  1  0  0  0  0
  1 22  1  0  0  0  0
  2 19  1  0  0  0  0
  2 23  1  0  0  0  0
  3 34  2  0  0  0  0
  4 35  2  0  0  0  0
  5  8  1  0  0  0  0
  5  9  1  0  0  0  0
  5 15  1  0  0  0  0
  6 24  1  0  0  0  0
  6 34  1  0  0  0  0
  6 60  1  0  0  0  0
  7 30  1  0  0  0  0
  7 35  1  0  0  0  0
  7 66  1  0  0  0  0
  8 11  1  0  0  0  0
  8 13  1  0  0  0  0
  8 36  1  0  0  0  0
  9 12  1  0  0  0  0
  9 14  1  0  0  0  0
  9 37  1  0  0  0  0
 10 11  1  0  0  0  0
 10 12  1  0  0  0  0
 10 16  1  0  0  0  0
 10 38  1  0  0  0  0
 11 39  1  0  0  0  0
 11 40  1  0  0  0  0
 12 41  1  0  0  0  0
 12 42  1  0  0  0  0
 13 14  1  0  0  0  0
 13 43  1  0  0  0  0
 13 44  1  0  0  0  0
 14 45  1  0  0  0  0
 14 46  1  0  0  0  0
 17 15  1  1  0  0  0
 15 47  1  0  0  0  0
 15 48  1  0  0  0  0
 16 18  1  0  0  0  0
 16 49  1  0  0  0  0
 16 50  1  0  0  0  0
 17 19  1  0  0  0  0
 17 51  1  0  0  0  0
 18 20  2  0  0  0  0
 18 21  1  0  0  0  0
 19 52  1  0  0  0  0
 19 53  1  0  0  0  0
 20 24  1  0  0  0  0
 20 54  1  0  0  0  0
 21 25  2  0  0  0  0
 21 55  1  0  0  0  0
 22 23  2  0  0  0  0
 22 28  1  0  0  0  0
 23 27  1  0  0  0  0
 24 26  2  0  0  0  0
 25 26  1  0  0  0  0
 25 56  1  0  0  0  0
 26 29  1  0  0  0  0
 27 30  2  0  0  0  0
 27 31  1  0  0  0  0
 28 32  2  0  0  0  0
 28 57  1  0  0  0  0
 29 33  1  0  0  0  0
 29 58  1  0  0  0  0
 29 59  1  0  0  0  0
 30 32  1  0  0  0  0
 31 35  1  0  0  0  0
 31 61  1  0  0  0  0
 31 62  1  0  0  0  0
 32 63  1  0  0  0  0
 33 34  1  0  0  0  0
 33 64  1  0  0  0  0
 33 65  1  0  0  0  0
M  END
> <PUBCHEM_COMPOUND_CID>
46889014

> <PUBCHEM_COMPOUND_CANONICALIZED>
1

> <PUBCHEM_CACTVS_COMPLEXITY>
823

> <PUBCHEM_CACTVS_HBOND_ACCEPTOR>
5

> <PUBCHEM_CACTVS_HBOND_DONOR>
2

> <PUBCHEM_CACTVS_ROTATABLE_BOND>
4

> <PUBCHEM_CACTVS_SUBSKEYS>
AAADceB7OAAAAAAAAAAAAAAAAAAAAWLAAAA8eJECBgAAAFixQAAAHgAQAAAADTzhmAYwxoPABACIAiVSUACCCAAhIgAIiAEO7IgPJjLEtZuHOCrm1Bna6Ae+3fPeQEABQgAKQACAgAKEABSAAAAAAAAAAA==

> <PUBCHEM_IUPAC_OPENEYE_NAME>
(3R)-3-[[3-[(2-oxo-3,4-dihydro-1H-quinolin-7-yl)methyl]-8-azabicyclo[3.2.1]octan-8-yl]methyl]-2,3,7,9-tetrahydro-[1,4]dioxino[2,3-e]indol-8-one

> <PUBCHEM_IUPAC_CAS_NAME>
(3R)-3-[[3-[(2-oxo-3,4-dihydro-1H-quinolin-7-yl)methyl]-8-azabicyclo[3.2.1]octan-8-yl]methyl]-2,3,7,9-tetrahydro-[1,4]dioxino[2,3-e]indol-8-one

> <PUBCHEM_IUPAC_NAME_MARKUP>
(3<I>R</I>)-3-[[3-[(2-oxo-3,4-dihydro-1<I>H</I>-quinolin-7-yl)methyl]-8-azabicyclo[3.2.1]octan-8-yl]methyl]-2,3,7,9-tetrahydro-[1,4]dioxino[2,3-e]indol-8-one

> <PUBCHEM_IUPAC_NAME>
(3R)-3-[[3-[(2-oxo-3,4-dihydro-1H-quinolin-7-yl)methyl]-8-azabicyclo[3.2.1]octan-8-yl]methyl]-2,3,7,9-tetrahydro-[1,4]dioxino[2,3-e]indol-8-one

> <PUBCHEM_IUPAC_SYSTEMATIC_NAME>
(3R)-3-[[3-[(2-oxidanylidene-3,4-dihydro-1H-quinolin-7-yl)methyl]-8-azabicyclo[3.2.1]octan-8-yl]methyl]-2,3,7,9-tetrahydro-[1,4]dioxino[2,3-e]indol-8-one

> <PUBCHEM_IUPAC_TRADITIONAL_NAME>
(3R)-3-[[3-[(2-keto-3,4-dihydro-1H-quinolin-7-yl)methyl]-8-azabicyclo[3.2.1]octan-8-yl]methyl]-2,3,7,9-tetrahydro-[1,4]dioxin[2,3-e]indol-8-one

> <PUBCHEM_IUPAC_INCHI>
InChI=1S/C28H31N3O4/c32-26-8-3-18-2-1-16(12-24(18)30-26)9-17-10-19-4-5-20(11-17)31(19)14-21-15-34-28-22-13-27(33)29-23(22)6-7-25(28)35-21/h1-2,6-7,12,17,19-21H,3-5,8-11,13-15H2,(H,29,33)(H,30,32)/t17?,19?,20?,21-/m1/s1

> <PUBCHEM_IUPAC_INCHIKEY>
DZVJBZTUTCHLSB-ZOZMAKRUSA-N

> <PUBCHEM_XLOGP3_AA>
3.1

> <PUBCHEM_EXACT_MASS>
473.23145648

> <PUBCHEM_MOLECULAR_FORMULA>
C28H31N3O4

> <PUBCHEM_MOLECULAR_WEIGHT>
473.6

> <PUBCHEM_OPENEYE_CAN_SMILES>
C1CC2CC(CC1N2CC3COC4=C(O3)C=CC5=C4CC(=O)N5)CC6=CC7=C(CCC(=O)N7)C=C6

> <PUBCHEM_OPENEYE_ISO_SMILES>
C1CC2CC(CC1N2C[C@@H]3COC4=C(O3)C=CC5=C4CC(=O)N5)CC6=CC7=C(CCC(=O)N7)C=C6

> <PUBCHEM_CACTVS_TPSA>
79.9

> <PUBCHEM_MONOISOTOPIC_WEIGHT>
473.23145648

> <PUBCHEM_TOTAL_CHARGE>
0

> <PUBCHEM_HEAVY_ATOM_COUNT>
35

> <PUBCHEM_ATOM_DEF_STEREO_COUNT>
1

> <PUBCHEM_ATOM_UDEF_STEREO_COUNT>
2

> <PUBCHEM_BOND_DEF_STEREO_COUNT>
0

> <PUBCHEM_BOND_UDEF_STEREO_COUNT>
0

> <PUBCHEM_ISOTOPIC_ATOM_COUNT>
0

> <PUBCHEM_COMPONENT_COUNT>
1

> <PUBCHEM_CACTVS_TAUTO_COUNT>
-1

> <PUBCHEM_COORDINATE_TYPE>
1
5
255

> <PUBCHEM_BONDANNOTATIONS>
17  15  5
18  20  8
18  21  8
20  24  8
21  25  8
22  23  8
22  28  8
23  27  8
24  26  8
25  26  8
27  30  8
28  32  8
30  32  8
8  13  3
9  14  3

$$$$
