135339854
  -OEChem-09292322452D

 60 63  0     0  0  0  0  0  0999 V2000
   11.5320   -0.5415    0.0000 O   0  0  0  0  0  0  0  0  0  0  0  0
   15.0621   -1.5173    0.0000 O   0  0  0  0  0  0  0  0  0  0  0  0
    7.2000   -0.0582    0.0000 N   0  0  0  0  0  0  0  0  0  0  0  0
    5.4641    0.9351    0.0000 N   0  0  0  0  0  0  0  0  0  0  0  0
   15.9281   -0.0173    0.0000 N   0  0  0  0  0  0  0  0  0  0  0  0
   15.0621    1.4827    0.0000 N   0  0  0  0  0  0  0  0  0  0  0  0
    7.1961    0.9418    0.0000 C   0  0  0  0  0  0  0  0  0  0  0  0
    6.3359   -0.5615    0.0000 C   0  0  0  0  0  0  0  0  0  0  0  0
    6.3282    1.4385    0.0000 C   0  0  0  0  0  0  0  0  0  0  0  0
    5.4679   -0.0649    0.0000 C   0  0  0  0  0  0  0  0  0  0  0  0
    8.0679   -0.5548    0.0000 C   0  0  0  0  0  0  0  0  0  0  0  0
    4.5961    1.4318    0.0000 C   0  0  0  0  0  0  0  0  0  0  0  0
    8.9320   -0.0515    0.0000 C   0  0  0  0  0  0  0  0  0  0  0  0
    9.8000   -0.5482    0.0000 C   0  0  0  0  0  0  0  0  0  0  0  0
    3.7320    0.9285    0.0000 C   0  0  0  0  0  0  0  0  0  0  0  0
   10.6640   -0.0448    0.0000 C   0  0  0  0  0  0  0  0  0  0  0  0
    3.7359   -0.0715    0.0000 C   0  0  0  0  0  0  0  0  0  0  0  0
    2.8641    1.4251    0.0000 C   0  0  0  0  0  0  0  0  0  0  0  0
    2.8718   -0.5749    0.0000 C   0  0  0  0  0  0  0  0  0  0  0  0
    2.0000    0.9218    0.0000 C   0  0  0  0  0  0  0  0  0  0  0  0
    2.0038   -0.0782    0.0000 C   0  0  0  0  0  0  0  0  0  0  0  0
   12.3961   -0.0381    0.0000 C   0  0  0  0  0  0  0  0  0  0  0  0
   13.3021   -0.5520    0.0000 C   0  0  0  0  0  0  0  0  0  0  0  0
   14.1961   -0.0173    0.0000 C   0  0  0  0  0  0  0  0  0  0  0  0
   12.3961    1.0035    0.0000 C   0  0  0  0  0  0  0  0  0  0  0  0
   14.1961    0.9827    0.0000 C   0  0  0  0  0  0  0  0  0  0  0  0
   13.3021    1.5173    0.0000 C   0  0  0  0  0  0  0  0  0  0  0  0
   15.0621   -0.5173    0.0000 C   0  0  0  0  0  0  0  0  0  0  0  0
   15.9281    0.9827    0.0000 C   0  0  0  0  0  0  0  0  0  0  0  0
   16.7942   -0.5173    0.0000 C   0  0  0  0  0  0  0  0  0  0  0  0
    7.8071    0.8365    0.0000 H   0  0  0  0  0  0  0  0  0  0  0  0
    7.4059    1.5252    0.0000 H   0  0  0  0  0  0  0  0  0  0  0  0
    5.9392   -1.0380    0.0000 H   0  0  0  0  0  0  0  0  0  0  0  0
    6.7362   -1.0349    0.0000 H   0  0  0  0  0  0  0  0  0  0  0  0
    6.7249    1.9150    0.0000 H   0  0  0  0  0  0  0  0  0  0  0  0
    5.9278    1.9119    0.0000 H   0  0  0  0  0  0  0  0  0  0  0  0
    4.8569    0.0405    0.0000 H   0  0  0  0  0  0  0  0  0  0  0  0
    5.2581   -0.6483    0.0000 H   0  0  0  0  0  0  0  0  0  0  0  0
    7.6712   -1.0313    0.0000 H   0  0  0  0  0  0  0  0  0  0  0  0
    8.4683   -1.0282    0.0000 H   0  0  0  0  0  0  0  0  0  0  0  0
    4.9928    1.9083    0.0000 H   0  0  0  0  0  0  0  0  0  0  0  0
    4.1958    1.9052    0.0000 H   0  0  0  0  0  0  0  0  0  0  0  0
    9.3287    0.4250    0.0000 H   0  0  0  0  0  0  0  0  0  0  0  0
    8.5317    0.4219    0.0000 H   0  0  0  0  0  0  0  0  0  0  0  0
    9.4033   -1.0246    0.0000 H   0  0  0  0  0  0  0  0  0  0  0  0
   10.2003   -1.0216    0.0000 H   0  0  0  0  0  0  0  0  0  0  0  0
   11.0607    0.4317    0.0000 H   0  0  0  0  0  0  0  0  0  0  0  0
   10.2637    0.4286    0.0000 H   0  0  0  0  0  0  0  0  0  0  0  0
    4.2740   -0.3795    0.0000 H   0  0  0  0  0  0  0  0  0  0  0  0
    2.8617    2.0451    0.0000 H   0  0  0  0  0  0  0  0  0  0  0  0
    2.8742   -1.1949    0.0000 H   0  0  0  0  0  0  0  0  0  0  0  0
    1.4619    1.2297    0.0000 H   0  0  0  0  0  0  0  0  0  0  0  0
    1.4681   -0.3903    0.0000 H   0  0  0  0  0  0  0  0  0  0  0  0
   13.3093   -1.1720    0.0000 H   0  0  0  0  0  0  0  0  0  0  0  0
   11.8603    1.3156    0.0000 H   0  0  0  0  0  0  0  0  0  0  0  0
   13.3093    2.1373    0.0000 H   0  0  0  0  0  0  0  0  0  0  0  0
   16.4651    1.2927    0.0000 H   0  0  0  0  0  0  0  0  0  0  0  0
   16.4842   -1.0543    0.0000 H   0  0  0  0  0  0  0  0  0  0  0  0
   17.3311   -0.8273    0.0000 H   0  0  0  0  0  0  0  0  0  0  0  0
   17.1042    0.0196    0.0000 H   0  0  0  0  0  0  0  0  0  0  0  0
  1 16  1  0  0  0  0
  1 22  1  0  0  0  0
  2 28  2  0  0  0  0
  3  7  1  0  0  0  0
  3  8  1  0  0  0  0
  3 11  1  0  0  0  0
  4  9  1  0  0  0  0
  4 10  1  0  0  0  0
  4 12  1  0  0  0  0
  5 28  1  0  0  0  0
  5 29  1  0  0  0  0
  5 30  1  0  0  0  0
  6 26  1  0  0  0  0
  6 29  2  0  0  0  0
  7  9  1  0  0  0  0
  7 31  1  0  0  0  0
  7 32  1  0  0  0  0
  8 10  1  0  0  0  0
  8 33  1  0  0  0  0
  8 34  1  0  0  0  0
  9 35  1  0  0  0  0
  9 36  1  0  0  0  0
 10 37  1  0  0  0  0
 10 38  1  0  0  0  0
 11 13  1  0  0  0  0
 11 39  1  0  0  0  0
 11 40  1  0  0  0  0
 12 15  1  0  0  0  0
 12 41  1  0  0  0  0
 12 42  1  0  0  0  0
 13 14  1  0  0  0  0
 13 43  1  0  0  0  0
 13 44  1  0  0  0  0
 14 16  1  0  0  0  0
 14 45  1  0  0  0  0
 14 46  1  0  0  0  0
 15 17  2  0  0  0  0
 15 18  1  0  0  0  0
 16 47  1  0  0  0  0
 16 48  1  0  0  0  0
 17 19  1  0  0  0  0
 17 49  1  0  0  0  0
 18 20  2  0  0  0  0
 18 50  1  0  0  0  0
 19 21  2  0  0  0  0
 19 51  1  0  0  0  0
 20 21  1  0  0  0  0
 20 52  1  0  0  0  0
 21 53  1  0  0  0  0
 22 23  2  0  0  0  0
 22 25  1  0  0  0  0
 23 24  1  0  0  0  0
 23 54  1  0  0  0  0
 24 26  2  0  0  0  0
 24 28  1  0  0  0  0
 25 27  2  0  0  0  0
 25 55  1  0  0  0  0
 26 27  1  0  0  0  0
 27 56  1  0  0  0  0
 29 57  1  0  0  0  0
 30 58  1  0  0  0  0
 30 59  1  0  0  0  0
 30 60  1  0  0  0  0
M  END
> <PUBCHEM_COMPOUND_CID>
135339854

> <PUBCHEM_COMPOUND_CANONICALIZED>
1

> <PUBCHEM_CACTVS_COMPLEXITY>
570

> <PUBCHEM_CACTVS_HBOND_ACCEPTOR>
5

> <PUBCHEM_CACTVS_HBOND_DONOR>
0

> <PUBCHEM_CACTVS_ROTATABLE_BOND>
8

> <PUBCHEM_CACTVS_SUBSKEYS>
AAADceB7sAAAAAAAAAAAAAAAAAAAAAAAAAA8YIEAAAAAAACBQAAAHgAAAAAADAzhmAYzxoMABACoAiVTdACCCAEkIgAJiAEObMgMZjqE/ZuWOajkwhGI6ce6yBCOAEABAAACAAAAgAIAAAQAAAAAAAAAAA==

> <PUBCHEM_IUPAC_OPENEYE_NAME>
6-[4-(4-benzylpiperazin-1-yl)butoxy]-3-methyl-quinazolin-4-one

> <PUBCHEM_IUPAC_CAS_NAME>
3-methyl-6-[4-[4-(phenylmethyl)-1-piperazinyl]butoxy]-4-quinazolinone

> <PUBCHEM_IUPAC_NAME_MARKUP>
6-[4-(4-benzylpiperazin-1-yl)butoxy]-3-methylquinazolin-4-one

> <PUBCHEM_IUPAC_NAME>
6-[4-(4-benzylpiperazin-1-yl)butoxy]-3-methylquinazolin-4-one

> <PUBCHEM_IUPAC_SYSTEMATIC_NAME>
3-methyl-6-[4-[4-(phenylmethyl)piperazin-1-yl]butoxy]quinazolin-4-one

> <PUBCHEM_IUPAC_TRADITIONAL_NAME>
6-[4-(4-benzylpiperazino)butoxy]-3-methyl-quinazolin-4-one

> <PUBCHEM_IUPAC_INCHI>
InChI=1S/C24H30N4O2/c1-26-19-25-23-10-9-21(17-22(23)24(26)29)30-16-6-5-11-27-12-14-28(15-13-27)18-20-7-3-2-4-8-20/h2-4,7-10,17,19H,5-6,11-16,18H2,1H3

> <PUBCHEM_IUPAC_INCHIKEY>
BLHRHYLDWYYUCO-UHFFFAOYSA-N

> <PUBCHEM_XLOGP3_AA>
2.9

> <PUBCHEM_EXACT_MASS>
406.23687621

> <PUBCHEM_MOLECULAR_FORMULA>
C24H30N4O2

> <PUBCHEM_MOLECULAR_WEIGHT>
406.5

> <PUBCHEM_OPENEYE_CAN_SMILES>
CN1C=NC2=C(C1=O)C=C(C=C2)OCCCCN3CCN(CC3)CC4=CC=CC=C4

> <PUBCHEM_OPENEYE_ISO_SMILES>
CN1C=NC2=C(C1=O)C=C(C=C2)OCCCCN3CCN(CC3)CC4=CC=CC=C4

> <PUBCHEM_CACTVS_TPSA>
48.4

> <PUBCHEM_MONOISOTOPIC_WEIGHT>
406.23687621

> <PUBCHEM_TOTAL_CHARGE>
0

> <PUBCHEM_HEAVY_ATOM_COUNT>
30

> <PUBCHEM_ATOM_DEF_STEREO_COUNT>
0

> <PUBCHEM_ATOM_UDEF_STEREO_COUNT>
0

> <PUBCHEM_BOND_DEF_STEREO_COUNT>
0

> <PUBCHEM_BOND_UDEF_STEREO_COUNT>
0

> <PUBCHEM_ISOTOPIC_ATOM_COUNT>
0

> <PUBCHEM_COMPONENT_COUNT>
1

> <PUBCHEM_CACTVS_TAUTO_COUNT>
-1

> <PUBCHEM_COORDINATE_TYPE>
1
5
255

> <PUBCHEM_BONDANNOTATIONS>
15  17  8
15  18  8
17  19  8
18  20  8
19  21  8
20  21  8
22  23  8
22  25  8
23  24  8
24  26  8
24  28  8
25  27  8
26  27  8
5  28  8
5  29  8
6  26  8
6  29  8

$$$$
