129103318
  -OEChem-09292322062D

 65 70  0     0  0  0  0  0  0999 V2000
   18.0337   -0.1227    0.0000 F   0  0  0  0  0  0  0  0  0  0  0  0
   15.2653    2.0990    0.0000 O   0  0  0  0  0  0  0  0  0  0  0  0
    2.0000    0.9252    0.0000 O   0  0  0  0  0  0  0  0  0  0  0  0
    7.2622   -2.0990    0.0000 O   0  0  0  0  0  0  0  0  0  0  0  0
   11.5923   -0.5990    0.0000 N   0  0  0  0  0  0  0  0  0  0  0  0
    3.7702    0.9357    0.0000 N   0  0  0  0  0  0  0  0  0  0  0  0
   14.2934    1.8898    0.0000 N   0  0  0  0  0  0  0  0  0  0  0  0
   13.3244    0.4010    0.0000 C   0  0  0  0  0  0  0  0  0  0  0  0
   12.4583    0.9010    0.0000 C   0  0  0  0  0  0  0  0  0  0  0  0
   13.3244   -0.5990    0.0000 C   0  0  0  0  0  0  0  0  0  0  0  0
   11.5923    0.4010    0.0000 C   0  0  0  0  0  0  0  0  0  0  0  0
   12.4583   -1.0990    0.0000 C   0  0  0  0  0  0  0  0  0  0  0  0
   10.7263   -1.0990    0.0000 C   0  0  0  0  0  0  0  0  0  0  0  0
   14.1904    0.9010    0.0000 C   0  0  0  0  0  0  0  0  0  0  0  0
    4.6641    0.4010    0.0000 C   0  0  0  0  0  0  0  0  0  0  0  0
    9.8602   -0.5990    0.0000 C   0  0  0  0  0  0  0  0  0  0  0  0
    5.5301    0.9010    0.0000 C   0  0  0  0  0  0  0  0  0  0  0  0
    4.1714    1.8449    0.0000 C   0  0  0  0  0  0  0  0  0  0  0  0
    5.1650    1.8254    0.0000 C   0  0  0  0  0  0  0  0  0  0  0  0
    4.6641   -0.5990    0.0000 C   0  0  0  0  0  0  0  0  0  0  0  0
    8.9942   -1.0990    0.0000 C   0  0  0  0  0  0  0  0  0  0  0  0
    3.7702   -1.1336    0.0000 C   0  0  0  0  0  0  0  0  0  0  0  0
    2.8641   -0.6198    0.0000 C   0  0  0  0  0  0  0  0  0  0  0  0
   15.0982    0.4959    0.0000 C   0  0  0  0  0  0  0  0  0  0  0  0
    2.8641    0.4219    0.0000 C   0  0  0  0  0  0  0  0  0  0  0  0
    6.3961   -0.5990    0.0000 C   0  0  0  0  0  0  0  0  0  0  0  0
    6.3961    0.4010    0.0000 C   0  0  0  0  0  0  0  0  0  0  0  0
    8.1282   -0.5990    0.0000 C   0  0  0  0  0  0  0  0  0  0  0  0
    5.5301   -1.0990    0.0000 C   0  0  0  0  0  0  0  0  0  0  0  0
    7.2622   -1.0990    0.0000 C   0  0  0  0  0  0  0  0  0  0  0  0
   15.7660    1.2402    0.0000 C   0  0  0  0  0  0  0  0  0  0  0  0
   15.4088   -0.4546    0.0000 C   0  0  0  0  0  0  0  0  0  0  0  0
   16.7445    1.0340    0.0000 C   0  0  0  0  0  0  0  0  0  0  0  0
   16.3873   -0.6608    0.0000 C   0  0  0  0  0  0  0  0  0  0  0  0
   17.0552    0.0835    0.0000 C   0  0  0  0  0  0  0  0  0  0  0  0
   13.3244    1.0210    0.0000 H   0  0  0  0  0  0  0  0  0  0  0  0
   12.8569    1.3760    0.0000 H   0  0  0  0  0  0  0  0  0  0  0  0
   12.0598    1.3760    0.0000 H   0  0  0  0  0  0  0  0  0  0  0  0
   13.5364   -1.1816    0.0000 H   0  0  0  0  0  0  0  0  0  0  0  0
   13.9349   -0.4913    0.0000 H   0  0  0  0  0  0  0  0  0  0  0  0
   11.3803    0.9836    0.0000 H   0  0  0  0  0  0  0  0  0  0  0  0
   10.9817    0.2934    0.0000 H   0  0  0  0  0  0  0  0  0  0  0  0
   12.0598   -1.5739    0.0000 H   0  0  0  0  0  0  0  0  0  0  0  0
   12.8569   -1.5739    0.0000 H   0  0  0  0  0  0  0  0  0  0  0  0
   10.3278   -1.5739    0.0000 H   0  0  0  0  0  0  0  0  0  0  0  0
   11.1248   -1.5739    0.0000 H   0  0  0  0  0  0  0  0  0  0  0  0
   10.2588   -0.1240    0.0000 H   0  0  0  0  0  0  0  0  0  0  0  0
    9.4617   -0.1240    0.0000 H   0  0  0  0  0  0  0  0  0  0  0  0
    4.2650    2.4578    0.0000 H   0  0  0  0  0  0  0  0  0  0  0  0
    3.5762    2.0184    0.0000 H   0  0  0  0  0  0  0  0  0  0  0  0
    5.7666    1.9753    0.0000 H   0  0  0  0  0  0  0  0  0  0  0  0
    5.0956    2.4414    0.0000 H   0  0  0  0  0  0  0  0  0  0  0  0
    8.5957   -1.5739    0.0000 H   0  0  0  0  0  0  0  0  0  0  0  0
    9.3928   -1.5739    0.0000 H   0  0  0  0  0  0  0  0  0  0  0  0
    3.3765   -1.6126    0.0000 H   0  0  0  0  0  0  0  0  0  0  0  0
    4.1748   -1.6034    0.0000 H   0  0  0  0  0  0  0  0  0  0  0  0
    2.2532   -0.5137    0.0000 H   0  0  0  0  0  0  0  0  0  0  0  0
    2.6550   -1.2035    0.0000 H   0  0  0  0  0  0  0  0  0  0  0  0
    6.9331    0.7110    0.0000 H   0  0  0  0  0  0  0  0  0  0  0  0
    8.5267   -0.1240    0.0000 H   0  0  0  0  0  0  0  0  0  0  0  0
    7.7297   -0.1240    0.0000 H   0  0  0  0  0  0  0  0  0  0  0  0
    5.5301   -1.7190    0.0000 H   0  0  0  0  0  0  0  0  0  0  0  0
   14.9948   -0.9161    0.0000 H   0  0  0  0  0  0  0  0  0  0  0  0
   17.1586    1.4955    0.0000 H   0  0  0  0  0  0  0  0  0  0  0  0
   16.5799   -1.2501    0.0000 H   0  0  0  0  0  0  0  0  0  0  0  0
  1 35  1  0  0  0  0
  2  7  1  0  0  0  0
  2 31  1  0  0  0  0
  3 25  2  0  0  0  0
  4 30  2  0  0  0  0
  5 11  1  0  0  0  0
  5 12  1  0  0  0  0
  5 13  1  0  0  0  0
  6 15  1  0  0  0  0
  6 18  1  0  0  0  0
  6 25  1  0  0  0  0
  7 14  2  0  0  0  0
  8  9  1  0  0  0  0
  8 10  1  0  0  0  0
  8 14  1  0  0  0  0
  8 36  1  0  0  0  0
  9 11  1  0  0  0  0
  9 37  1  0  0  0  0
  9 38  1  0  0  0  0
 10 12  1  0  0  0  0
 10 39  1  0  0  0  0
 10 40  1  0  0  0  0
 11 41  1  0  0  0  0
 11 42  1  0  0  0  0
 12 43  1  0  0  0  0
 12 44  1  0  0  0  0
 13 16  1  0  0  0  0
 13 45  1  0  0  0  0
 13 46  1  0  0  0  0
 14 24  1  0  0  0  0
 15 17  1  0  0  0  0
 15 20  2  0  0  0  0
 16 21  1  0  0  0  0
 16 47  1  0  0  0  0
 16 48  1  0  0  0  0
 17 19  1  0  0  0  0
 17 27  2  0  0  0  0
 18 19  1  0  0  0  0
 18 49  1  0  0  0  0
 18 50  1  0  0  0  0
 19 51  1  0  0  0  0
 19 52  1  0  0  0  0
 20 22  1  0  0  0  0
 20 29  1  0  0  0  0
 21 28  1  0  0  0  0
 21 53  1  0  0  0  0
 21 54  1  0  0  0  0
 22 23  1  0  0  0  0
 22 55  1  0  0  0  0
 22 56  1  0  0  0  0
 23 25  1  0  0  0  0
 23 57  1  0  0  0  0
 23 58  1  0  0  0  0
 24 31  2  0  0  0  0
 24 32  1  0  0  0  0
 26 27  1  0  0  0  0
 26 29  2  0  0  0  0
 26 30  1  0  0  0  0
 27 59  1  0  0  0  0
 28 30  1  0  0  0  0
 28 60  1  0  0  0  0
 28 61  1  0  0  0  0
 29 62  1  0  0  0  0
 31 33  1  0  0  0  0
 32 34  2  0  0  0  0
 32 63  1  0  0  0  0
 33 35  2  0  0  0  0
 33 64  1  0  0  0  0
 34 35  1  0  0  0  0
 34 65  1  0  0  0  0
M  END
> <PUBCHEM_COMPOUND_CID>
129103318

> <PUBCHEM_COMPOUND_CANONICALIZED>
1

> <PUBCHEM_CACTVS_COMPLEXITY>
787

> <PUBCHEM_CACTVS_HBOND_ACCEPTOR>
6

> <PUBCHEM_CACTVS_HBOND_DONOR>
0

> <PUBCHEM_CACTVS_ROTATABLE_BOND>
7

> <PUBCHEM_CACTVS_SUBSKEYS>
AAADceB7MQAAAAAAAAAAAAAAAAAAAWLAAAA8eIEAAAAAAFix9AAAHwAEAAAADQzBngwwxtMQAACpA6VyUgCCAAAlIAAomCE+TNoIJrrAlZOEMYhmxhnIyceYyeCeCAACAAAKAAAQAAQAABQAAAAAAAAAAA==

> <PUBCHEM_IUPAC_OPENEYE_NAME>
6-[5-[4-(6-fluoro-1,2-benzoxazol-3-yl)-1-piperidyl]pentanoyl]-1-azatricyclo[6.3.1.04,12]dodeca-4,6,8(12)-trien-11-one

> <PUBCHEM_IUPAC_CAS_NAME>
6-[5-[4-(6-fluoro-1,2-benzoxazol-3-yl)-1-piperidinyl]-1-oxopentyl]-1-azatricyclo[6.3.1.04,12]dodeca-4,6,8(12)-trien-11-one

> <PUBCHEM_IUPAC_NAME_MARKUP>
6-[5-[4-(6-fluoro-1,2-benzoxazol-3-yl)piperidin-1-yl]pentanoyl]-1-azatricyclo[6.3.1.0<SUP>4,12</SUP>]dodeca-4,6,8(12)-trien-11-one

> <PUBCHEM_IUPAC_NAME>
6-[5-[4-(6-fluoro-1,2-benzoxazol-3-yl)piperidin-1-yl]pentanoyl]-1-azatricyclo[6.3.1.04,12]dodeca-4,6,8(12)-trien-11-one

> <PUBCHEM_IUPAC_SYSTEMATIC_NAME>
6-[5-[4-(6-fluoranyl-1,2-benzoxazol-3-yl)piperidin-1-yl]pentanoyl]-1-azatricyclo[6.3.1.04,12]dodeca-4,6,8(12)-trien-11-one

> <PUBCHEM_IUPAC_TRADITIONAL_NAME>
6-[5-[4-(6-fluoroindoxazen-3-yl)piperidino]pentanoyl]-1-azatricyclo[6.3.1.04,12]dodeca-4,6,8(12)-trien-11-one

> <PUBCHEM_IUPAC_INCHI>
InChI=1S/C28H30FN3O3/c29-22-5-6-23-25(17-22)35-30-27(23)18-8-12-31(13-9-18)11-2-1-3-24(33)21-15-19-4-7-26(34)32-14-10-20(16-21)28(19)32/h5-6,15-18H,1-4,7-14H2

> <PUBCHEM_IUPAC_INCHIKEY>
ACOZPXLCYUQMHS-UHFFFAOYSA-N

> <PUBCHEM_XLOGP3_AA>
3.8

> <PUBCHEM_EXACT_MASS>
475.22711999

> <PUBCHEM_MOLECULAR_FORMULA>
C28H30FN3O3

> <PUBCHEM_MOLECULAR_WEIGHT>
475.6

> <PUBCHEM_OPENEYE_CAN_SMILES>
C1CN(CCC1C2=NOC3=C2C=CC(=C3)F)CCCCC(=O)C4=CC5=C6C(=C4)CCN6C(=O)CC5

> <PUBCHEM_OPENEYE_ISO_SMILES>
C1CN(CCC1C2=NOC3=C2C=CC(=C3)F)CCCCC(=O)C4=CC5=C6C(=C4)CCN6C(=O)CC5

> <PUBCHEM_CACTVS_TPSA>
66.6

> <PUBCHEM_MONOISOTOPIC_WEIGHT>
475.22711999

> <PUBCHEM_TOTAL_CHARGE>
0

> <PUBCHEM_HEAVY_ATOM_COUNT>
35

> <PUBCHEM_ATOM_DEF_STEREO_COUNT>
0

> <PUBCHEM_ATOM_UDEF_STEREO_COUNT>
0

> <PUBCHEM_BOND_DEF_STEREO_COUNT>
0

> <PUBCHEM_BOND_UDEF_STEREO_COUNT>
0

> <PUBCHEM_ISOTOPIC_ATOM_COUNT>
0

> <PUBCHEM_COMPONENT_COUNT>
1

> <PUBCHEM_CACTVS_TAUTO_COUNT>
-1

> <PUBCHEM_COORDINATE_TYPE>
1
5
255

> <PUBCHEM_BONDANNOTATIONS>
14  24  8
15  17  8
15  20  8
17  27  8
2  31  8
2  7  8
20  29  8
24  31  8
24  32  8
26  27  8
26  29  8
31  33  8
32  34  8
33  35  8
34  35  8
7  14  8

$$$$
