118726009
  -OEChem-09292321592D

 58 62  0     1  0  0  0  0  0999 V2000
    2.5118    2.6254    0.0000 O   0  0  0  0  0  0  0  0  0  0  0  0
   16.8536    0.4936    0.0000 O   0  0  0  0  0  0  0  0  0  0  0  0
    7.6738    0.6846    0.0000 N   0  0  3  0  0  0  0  0  0  0  0  0
    2.6067    0.8516    0.0000 N   0  0  0  0  0  0  0  0  0  0  0  0
   11.1379    0.6846    0.0000 N   0  0  0  0  0  0  0  0  0  0  0  0
   13.7360   -0.8154    0.0000 N   0  0  0  0  0  0  0  0  0  0  0  0
   12.8700    0.6846    0.0000 N   0  0  0  0  0  0  0  0  0  0  0  0
   12.0039   -0.8154    0.0000 N   0  0  0  0  0  0  0  0  0  0  0  0
   14.6822    0.4893    0.0000 N   0  0  0  0  0  0  0  0  0  0  0  0
   14.6822   -1.1202    0.0000 N   0  0  0  0  0  0  0  0  0  0  0  0
   12.8700   -2.3154    0.0000 N   0  0  0  0  0  0  0  0  0  0  0  0
    5.9418    0.6846    0.0000 C   0  0  0  0  0  0  0  0  0  0  0  0
    6.8078    0.1846    0.0000 C   0  0  0  0  0  0  0  0  0  0  0  0
    5.0757    0.1846    0.0000 C   0  0  0  0  0  0  0  0  0  0  0  0
    4.2097    0.6846    0.0000 C   0  0  0  0  0  0  0  0  0  0  0  0
    8.5398    0.1846    0.0000 C   0  0  0  0  0  0  0  0  0  0  0  0
    4.0005    1.6564    0.0000 C   0  0  0  0  0  0  0  0  0  0  0  0
    3.3437    0.1846    0.0000 C   0  0  0  0  0  0  0  0  0  0  0  0
    9.4059    0.6846    0.0000 C   0  0  0  0  0  0  0  0  0  0  0  0
    5.0757   -0.8154    0.0000 C   0  0  0  0  0  0  0  0  0  0  0  0
    3.0118    1.7594    0.0000 C   0  0  0  0  0  0  0  0  0  0  0  0
   10.2719    0.1846    0.0000 C   0  0  0  0  0  0  0  0  0  0  0  0
    7.6738    1.6846    0.0000 C   0  0  0  0  0  0  0  0  0  0  0  0
    3.3437   -0.8154    0.0000 C   0  0  0  0  0  0  0  0  0  0  0  0
    4.2097   -1.3154    0.0000 C   0  0  0  0  0  0  0  0  0  0  0  0
   12.0039    0.1846    0.0000 C   0  0  0  0  0  0  0  0  0  0  0  0
   13.7360    0.1846    0.0000 C   0  0  0  0  0  0  0  0  0  0  0  0
   12.8700   -1.3154    0.0000 C   0  0  0  0  0  0  0  0  0  0  0  0
   15.2658   -0.3154    0.0000 C   0  0  0  0  0  0  0  0  0  0  0  0
   16.2658   -0.3154    0.0000 C   0  0  0  0  0  0  0  0  0  0  0  0
   16.8536   -1.1245    0.0000 C   0  0  0  0  0  0  0  0  0  0  0  0
   17.8047   -0.8154    0.0000 C   0  0  0  0  0  0  0  0  0  0  0  0
   17.8047    0.1846    0.0000 C   0  0  0  0  0  0  0  0  0  0  0  0
    6.3403    1.1595    0.0000 H   0  0  0  0  0  0  0  0  0  0  0  0
    5.5432    1.1595    0.0000 H   0  0  0  0  0  0  0  0  0  0  0  0
    6.4093   -0.2904    0.0000 H   0  0  0  0  0  0  0  0  0  0  0  0
    7.2063   -0.2904    0.0000 H   0  0  0  0  0  0  0  0  0  0  0  0
    8.1413   -0.2904    0.0000 H   0  0  0  0  0  0  0  0  0  0  0  0
    8.9384   -0.2904    0.0000 H   0  0  0  0  0  0  0  0  0  0  0  0
    4.6170    1.7224    0.0000 H   0  0  0  0  0  0  0  0  0  0  0  0
    3.9996    2.2764    0.0000 H   0  0  0  0  0  0  0  0  0  0  0  0
    9.8044    1.1595    0.0000 H   0  0  0  0  0  0  0  0  0  0  0  0
    9.0073    1.1595    0.0000 H   0  0  0  0  0  0  0  0  0  0  0  0
    5.6127   -1.1254    0.0000 H   0  0  0  0  0  0  0  0  0  0  0  0
    9.8734   -0.2904    0.0000 H   0  0  0  0  0  0  0  0  0  0  0  0
   10.6704   -0.2904    0.0000 H   0  0  0  0  0  0  0  0  0  0  0  0
    2.0000    0.7238    0.0000 H   0  0  0  0  0  0  0  0  0  0  0  0
    8.2938    1.6846    0.0000 H   0  0  0  0  0  0  0  0  0  0  0  0
    7.6738    2.3046    0.0000 H   0  0  0  0  0  0  0  0  0  0  0  0
    7.0538    1.6846    0.0000 H   0  0  0  0  0  0  0  0  0  0  0  0
    2.8068   -1.1254    0.0000 H   0  0  0  0  0  0  0  0  0  0  0  0
    4.2097   -1.9354    0.0000 H   0  0  0  0  0  0  0  0  0  0  0  0
   11.1379    1.3046    0.0000 H   0  0  0  0  0  0  0  0  0  0  0  0
   12.3330   -2.6254    0.0000 H   0  0  0  0  0  0  0  0  0  0  0  0
   13.4069   -2.6254    0.0000 H   0  0  0  0  0  0  0  0  0  0  0  0
   16.6620   -1.7141    0.0000 H   0  0  0  0  0  0  0  0  0  0  0  0
   18.3063   -1.1799    0.0000 H   0  0  0  0  0  0  0  0  0  0  0  0
   18.3063    0.5490    0.0000 H   0  0  0  0  0  0  0  0  0  0  0  0
  1 21  2  0  0  0  0
  2 30  1  0  0  0  0
  2 33  1  0  0  0  0
  3 13  1  0  0  0  0
  3 16  1  0  0  0  0
  3 23  1  0  0  0  0
  4 18  1  0  0  0  0
  4 21  1  0  0  0  0
  4 47  1  0  0  0  0
  5 22  1  0  0  0  0
  5 26  1  0  0  0  0
  5 53  1  0  0  0  0
  6 10  1  0  0  0  0
  6 27  1  0  0  0  0
  6 28  1  0  0  0  0
  7 26  2  0  0  0  0
  7 27  1  0  0  0  0
  8 26  1  0  0  0  0
  8 28  2  0  0  0  0
  9 27  2  0  0  0  0
  9 29  1  0  0  0  0
 10 29  2  0  0  0  0
 11 28  1  0  0  0  0
 11 54  1  0  0  0  0
 11 55  1  0  0  0  0
 12 13  1  0  0  0  0
 12 14  1  0  0  0  0
 12 34  1  0  0  0  0
 12 35  1  0  0  0  0
 13 36  1  0  0  0  0
 13 37  1  0  0  0  0
 14 15  2  0  0  0  0
 14 20  1  0  0  0  0
 15 17  1  0  0  0  0
 15 18  1  0  0  0  0
 16 19  1  0  0  0  0
 16 38  1  0  0  0  0
 16 39  1  0  0  0  0
 17 21  1  0  0  0  0
 17 40  1  0  0  0  0
 17 41  1  0  0  0  0
 18 24  2  0  0  0  0
 19 22  1  0  0  0  0
 19 42  1  0  0  0  0
 19 43  1  0  0  0  0
 20 25  2  0  0  0  0
 20 44  1  0  0  0  0
 22 45  1  0  0  0  0
 22 46  1  0  0  0  0
 23 48  1  0  0  0  0
 23 49  1  0  0  0  0
 23 50  1  0  0  0  0
 24 25  1  0  0  0  0
 24 51  1  0  0  0  0
 25 52  1  0  0  0  0
 29 30  1  0  0  0  0
 30 31  2  0  0  0  0
 31 32  1  0  0  0  0
 31 56  1  0  0  0  0
 32 33  2  0  0  0  0
 32 57  1  0  0  0  0
 33 58  1  0  0  0  0
M  END
> <PUBCHEM_COMPOUND_CID>
118726009

> <PUBCHEM_COMPOUND_CANONICALIZED>
1

> <PUBCHEM_CACTVS_COMPLEXITY>
670

> <PUBCHEM_CACTVS_HBOND_ACCEPTOR>
9

> <PUBCHEM_CACTVS_HBOND_DONOR>
3

> <PUBCHEM_CACTVS_ROTATABLE_BOND>
9

> <PUBCHEM_CACTVS_SUBSKEYS>
AAADceB78AAAAAAAAAAAAAAAAAAAAWLEgAA8QAAAAAAAAFgB/AAAHgAYAAAADAzhmwYz1IfIFECqAq9y9ASSiAsnIqAdiKGubNiOLrLE/buHOSj83BPY6YecmYKOgAAAQAASAAAAAACAACQAAAAAAAAAAA==

> <PUBCHEM_IUPAC_OPENEYE_NAME>
4-[2-[3-[[7-amino-2-(2-furyl)-[1,2,4]triazolo[1,5-a][1,3,5]triazin-5-yl]amino]propyl-methyl-amino]ethyl]indolin-2-one

> <PUBCHEM_IUPAC_CAS_NAME>
4-[2-[3-[[7-amino-2-(2-furanyl)-[1,2,4]triazolo[1,5-a][1,3,5]triazin-5-yl]amino]propyl-methylamino]ethyl]-1,3-dihydroindol-2-one

> <PUBCHEM_IUPAC_NAME_MARKUP>
4-[2-[3-[[7-amino-2-(furan-2-yl)-[1,2,4]triazolo[1,5-a][1,3,5]triazin-5-yl]amino]propyl-methylamino]ethyl]-1,3-dihydroindol-2-one

> <PUBCHEM_IUPAC_NAME>
4-[2-[3-[[7-amino-2-(furan-2-yl)-[1,2,4]triazolo[1,5-a][1,3,5]triazin-5-yl]amino]propyl-methylamino]ethyl]-1,3-dihydroindol-2-one

> <PUBCHEM_IUPAC_SYSTEMATIC_NAME>
4-[2-[3-[[7-azanyl-2-(furan-2-yl)-[1,2,4]triazolo[1,5-a][1,3,5]triazin-5-yl]amino]propyl-methyl-amino]ethyl]-1,3-dihydroindol-2-one

> <PUBCHEM_IUPAC_TRADITIONAL_NAME>
4-[2-[3-[[7-amino-2-(2-furyl)-[1,2,4]triazolo[1,5-a][1,3,5]triazin-5-yl]amino]propyl-methyl-amino]ethyl]oxindole

> <PUBCHEM_IUPAC_INCHI>
InChI=1S/C22H25N9O2/c1-30(11-8-14-5-2-6-16-15(14)13-18(32)25-16)10-4-9-24-21-27-20(23)31-22(28-21)26-19(29-31)17-7-3-12-33-17/h2-3,5-7,12H,4,8-11,13H2,1H3,(H,25,32)(H3,23,24,26,27,28,29)

> <PUBCHEM_IUPAC_INCHIKEY>
MAEZWZVKVYVMBK-UHFFFAOYSA-N

> <PUBCHEM_XLOGP3_AA>
1.8

> <PUBCHEM_EXACT_MASS>
447.21312107

> <PUBCHEM_MOLECULAR_FORMULA>
C22H25N9O2

> <PUBCHEM_MOLECULAR_WEIGHT>
447.5

> <PUBCHEM_OPENEYE_CAN_SMILES>
CN(CCCNC1=NC2=NC(=NN2C(=N1)N)C3=CC=CO3)CCC4=C5CC(=O)NC5=CC=C4

> <PUBCHEM_OPENEYE_ISO_SMILES>
CN(CCCNC1=NC2=NC(=NN2C(=N1)N)C3=CC=CO3)CCC4=C5CC(=O)NC5=CC=C4

> <PUBCHEM_CACTVS_TPSA>
140

> <PUBCHEM_MONOISOTOPIC_WEIGHT>
447.21312107

> <PUBCHEM_TOTAL_CHARGE>
0

> <PUBCHEM_HEAVY_ATOM_COUNT>
33

> <PUBCHEM_ATOM_DEF_STEREO_COUNT>
0

> <PUBCHEM_ATOM_UDEF_STEREO_COUNT>
0

> <PUBCHEM_BOND_DEF_STEREO_COUNT>
0

> <PUBCHEM_BOND_UDEF_STEREO_COUNT>
0

> <PUBCHEM_ISOTOPIC_ATOM_COUNT>
0

> <PUBCHEM_COMPONENT_COUNT>
1

> <PUBCHEM_CACTVS_TAUTO_COUNT>
-1

> <PUBCHEM_COORDINATE_TYPE>
1
5
255

> <PUBCHEM_BONDANNOTATIONS>
10  29  8
14  15  8
14  20  8
15  18  8
18  24  8
2  30  8
2  33  8
20  25  8
24  25  8
30  31  8
31  32  8
32  33  8
6  10  8
6  27  8
6  28  8
7  26  8
7  27  8
8  26  8
8  28  8
9  27  8
9  29  8

$$$$
