12997412
  -OEChem-09292322112D

 60 64  0     0  0  0  0  0  0999 V2000
    5.9721   -0.0024    0.0000 O   0  0  0  0  0  0  0  0  0  0  0  0
   10.1728    1.8290    0.0000 N   0  0  0  0  0  0  0  0  0  0  0  0
   12.1242    2.2674    0.0000 N   0  0  0  0  0  0  0  0  0  0  0  0
    7.6255   -0.5186    0.0000 N   0  0  0  0  0  0  0  0  0  0  0  0
   10.8505    1.0936    0.0000 C   0  0  0  0  0  0  0  0  0  0  0  0
   10.4708    2.7836    0.0000 C   0  0  0  0  0  0  0  0  0  0  0  0
   11.8262    1.3128    0.0000 C   0  0  0  0  0  0  0  0  0  0  0  0
   11.4465    3.0028    0.0000 C   0  0  0  0  0  0  0  0  0  0  0  0
    9.1971    1.6098    0.0000 C   0  0  0  0  0  0  0  0  0  0  0  0
    8.8991    0.6552    0.0000 C   0  0  0  0  0  0  0  0  0  0  0  0
   13.0999    2.4866    0.0000 C   0  0  0  0  0  0  0  0  0  0  0  0
    7.9235    0.4360    0.0000 C   0  0  0  0  0  0  0  0  0  0  0  0
    5.3364   -1.9246    0.0000 C   0  0  0  0  0  0  0  0  0  0  0  0
    4.5274   -1.3368    0.0000 C   0  0  0  0  0  0  0  0  0  0  0  0
    5.0274   -2.8756    0.0000 C   0  0  0  0  0  0  0  0  0  0  0  0
    3.7183   -1.9246    0.0000 C   0  0  0  0  0  0  0  0  0  0  0  0
    4.0274   -2.8756    0.0000 C   0  0  0  0  0  0  0  0  0  0  0  0
    6.3518   -1.6923    0.0000 C   0  0  0  0  0  0  0  0  0  0  0  0
   13.7775    1.7512    0.0000 C   0  0  0  0  0  0  0  0  0  0  0  0
   13.3978    3.4412    0.0000 C   0  0  0  0  0  0  0  0  0  0  0  0
    6.6498   -0.7378    0.0000 C   0  0  0  0  0  0  0  0  0  0  0  0
    5.7123   -3.6604    0.0000 C   0  0  0  0  0  0  0  0  0  0  0  0
    7.0547   -2.4610    0.0000 C   0  0  0  0  0  0  0  0  0  0  0  0
    2.7029   -1.6923    0.0000 C   0  0  0  0  0  0  0  0  0  0  0  0
    3.3424   -3.6604    0.0000 C   0  0  0  0  0  0  0  0  0  0  0  0
    6.7328   -3.4517    0.0000 C   0  0  0  0  0  0  0  0  0  0  0  0
   14.7532    1.9705    0.0000 C   0  0  0  0  0  0  0  0  0  0  0  0
   14.3735    3.6604    0.0000 C   0  0  0  0  0  0  0  0  0  0  0  0
    2.0000   -2.4610    0.0000 C   0  0  0  0  0  0  0  0  0  0  0  0
    2.3219   -3.4517    0.0000 C   0  0  0  0  0  0  0  0  0  0  0  0
   15.0512    2.9250    0.0000 C   0  0  0  0  0  0  0  0  0  0  0  0
   10.3285    0.7590    0.0000 H   0  0  0  0  0  0  0  0  0  0  0  0
   11.0894    0.5215    0.0000 H   0  0  0  0  0  0  0  0  0  0  0  0
   10.4420    3.4029    0.0000 H   0  0  0  0  0  0  0  0  0  0  0  0
    9.8559    2.8627    0.0000 H   0  0  0  0  0  0  0  0  0  0  0  0
   11.8550    0.6935    0.0000 H   0  0  0  0  0  0  0  0  0  0  0  0
   12.4411    1.2336    0.0000 H   0  0  0  0  0  0  0  0  0  0  0  0
   11.9684    3.3374    0.0000 H   0  0  0  0  0  0  0  0  0  0  0  0
   11.2076    3.5749    0.0000 H   0  0  0  0  0  0  0  0  0  0  0  0
    9.1683    2.2291    0.0000 H   0  0  0  0  0  0  0  0  0  0  0  0
    8.5822    1.6890    0.0000 H   0  0  0  0  0  0  0  0  0  0  0  0
    8.9279    0.0359    0.0000 H   0  0  0  0  0  0  0  0  0  0  0  0
    9.5141    0.5760    0.0000 H   0  0  0  0  0  0  0  0  0  0  0  0
    7.8947    1.0553    0.0000 H   0  0  0  0  0  0  0  0  0  0  0  0
    7.3085    0.5152    0.0000 H   0  0  0  0  0  0  0  0  0  0  0  0
    4.9422   -0.8761    0.0000 H   0  0  0  0  0  0  0  0  0  0  0  0
    4.1125   -0.8761    0.0000 H   0  0  0  0  0  0  0  0  0  0  0  0
    8.0456   -0.9745    0.0000 H   0  0  0  0  0  0  0  0  0  0  0  0
   13.5928    1.1594    0.0000 H   0  0  0  0  0  0  0  0  0  0  0  0
   12.9777    3.8971    0.0000 H   0  0  0  0  0  0  0  0  0  0  0  0
    5.5139   -4.2478    0.0000 H   0  0  0  0  0  0  0  0  0  0  0  0
    7.6607   -2.3298    0.0000 H   0  0  0  0  0  0  0  0  0  0  0  0
    2.5182   -1.1005    0.0000 H   0  0  0  0  0  0  0  0  0  0  0  0
    3.5408   -4.2478    0.0000 H   0  0  0  0  0  0  0  0  0  0  0  0
    7.1459   -3.9140    0.0000 H   0  0  0  0  0  0  0  0  0  0  0  0
   15.1734    1.5145    0.0000 H   0  0  0  0  0  0  0  0  0  0  0  0
   14.5583    4.2522    0.0000 H   0  0  0  0  0  0  0  0  0  0  0  0
    1.3940   -2.3298    0.0000 H   0  0  0  0  0  0  0  0  0  0  0  0
    1.9088   -3.9140    0.0000 H   0  0  0  0  0  0  0  0  0  0  0  0
   15.6561    3.0609    0.0000 H   0  0  0  0  0  0  0  0  0  0  0  0
  1 21  2  0  0  0  0
  2  5  1  0  0  0  0
  2  6  1  0  0  0  0
  2  9  1  0  0  0  0
  3  7  1  0  0  0  0
  3  8  1  0  0  0  0
  3 11  1  0  0  0  0
  4 12  1  0  0  0  0
  4 21  1  0  0  0  0
  4 48  1  0  0  0  0
  5  7  1  0  0  0  0
  5 32  1  0  0  0  0
  5 33  1  0  0  0  0
  6  8  1  0  0  0  0
  6 34  1  0  0  0  0
  6 35  1  0  0  0  0
  7 36  1  0  0  0  0
  7 37  1  0  0  0  0
  8 38  1  0  0  0  0
  8 39  1  0  0  0  0
  9 10  1  0  0  0  0
  9 40  1  0  0  0  0
  9 41  1  0  0  0  0
 10 12  1  0  0  0  0
 10 42  1  0  0  0  0
 10 43  1  0  0  0  0
 11 19  2  0  0  0  0
 11 20  1  0  0  0  0
 12 44  1  0  0  0  0
 12 45  1  0  0  0  0
 13 14  1  0  0  0  0
 13 15  2  0  0  0  0
 13 18  1  0  0  0  0
 14 16  1  0  0  0  0
 14 46  1  0  0  0  0
 14 47  1  0  0  0  0
 15 17  1  0  0  0  0
 15 22  1  0  0  0  0
 16 17  1  0  0  0  0
 16 24  2  0  0  0  0
 17 25  2  0  0  0  0
 18 21  1  0  0  0  0
 18 23  2  0  0  0  0
 19 27  1  0  0  0  0
 19 49  1  0  0  0  0
 20 28  2  0  0  0  0
 20 50  1  0  0  0  0
 22 26  2  0  0  0  0
 22 51  1  0  0  0  0
 23 26  1  0  0  0  0
 23 52  1  0  0  0  0
 24 29  1  0  0  0  0
 24 53  1  0  0  0  0
 25 30  1  0  0  0  0
 25 54  1  0  0  0  0
 26 55  1  0  0  0  0
 27 31  2  0  0  0  0
 27 56  1  0  0  0  0
 28 31  1  0  0  0  0
 28 57  1  0  0  0  0
 29 30  2  0  0  0  0
 29 58  1  0  0  0  0
 30 59  1  0  0  0  0
 31 60  1  0  0  0  0
M  END
> <PUBCHEM_COMPOUND_CID>
12997412

> <PUBCHEM_COMPOUND_CANONICALIZED>
1

> <PUBCHEM_CACTVS_COMPLEXITY>
581

> <PUBCHEM_CACTVS_HBOND_ACCEPTOR>
3

> <PUBCHEM_CACTVS_HBOND_DONOR>
1

> <PUBCHEM_CACTVS_ROTATABLE_BOND>
6

> <PUBCHEM_CACTVS_SUBSKEYS>
AAADceB7IAAAAAAAAAAAAAAAAAAAAYAAAAA8YMEAAAAAAGABUAAAHgAQAAAADAjBmAQwwIPAAACIAiVSUACCAAAlAgAIiIEIZMgIYDLA1ZGUIQhglgDIyYcYiMCOgAACAAAQAAAAAAQAACAAAQAACAAAAA==

> <PUBCHEM_IUPAC_OPENEYE_NAME>
N-[3-(4-phenylpiperazin-1-yl)propyl]-9H-fluorene-1-carboxamide

> <PUBCHEM_IUPAC_CAS_NAME>
N-[3-(4-phenyl-1-piperazinyl)propyl]-9H-fluorene-1-carboxamide

> <PUBCHEM_IUPAC_NAME_MARKUP>
<I>N</I>-[3-(4-phenylpiperazin-1-yl)propyl]-9<I>H</I>-fluorene-1-carboxamide

> <PUBCHEM_IUPAC_NAME>
N-[3-(4-phenylpiperazin-1-yl)propyl]-9H-fluorene-1-carboxamide

> <PUBCHEM_IUPAC_SYSTEMATIC_NAME>
N-[3-(4-phenylpiperazin-1-yl)propyl]-9H-fluorene-1-carboxamide

> <PUBCHEM_IUPAC_TRADITIONAL_NAME>
N-[3-(4-phenylpiperazino)propyl]-9H-fluorene-1-carboxamide

> <PUBCHEM_IUPAC_INCHI>
InChI=1S/C27H29N3O/c31-27(25-13-6-12-24-23-11-5-4-8-21(23)20-26(24)25)28-14-7-15-29-16-18-30(19-17-29)22-9-2-1-3-10-22/h1-6,8-13H,7,14-20H2,(H,28,31)

> <PUBCHEM_IUPAC_INCHIKEY>
GGKGPBLSDOYJJD-UHFFFAOYSA-N

> <PUBCHEM_XLOGP3_AA>
4.8

> <PUBCHEM_EXACT_MASS>
411.231062557

> <PUBCHEM_MOLECULAR_FORMULA>
C27H29N3O

> <PUBCHEM_MOLECULAR_WEIGHT>
411.5

> <PUBCHEM_OPENEYE_CAN_SMILES>
C1CN(CCN1CCCNC(=O)C2=CC=CC3=C2CC4=CC=CC=C43)C5=CC=CC=C5

> <PUBCHEM_OPENEYE_ISO_SMILES>
C1CN(CCN1CCCNC(=O)C2=CC=CC3=C2CC4=CC=CC=C43)C5=CC=CC=C5

> <PUBCHEM_CACTVS_TPSA>
35.6

> <PUBCHEM_MONOISOTOPIC_WEIGHT>
411.231062557

> <PUBCHEM_TOTAL_CHARGE>
0

> <PUBCHEM_HEAVY_ATOM_COUNT>
31

> <PUBCHEM_ATOM_DEF_STEREO_COUNT>
0

> <PUBCHEM_ATOM_UDEF_STEREO_COUNT>
0

> <PUBCHEM_BOND_DEF_STEREO_COUNT>
0

> <PUBCHEM_BOND_UDEF_STEREO_COUNT>
0

> <PUBCHEM_ISOTOPIC_ATOM_COUNT>
0

> <PUBCHEM_COMPONENT_COUNT>
1

> <PUBCHEM_CACTVS_TAUTO_COUNT>
-1

> <PUBCHEM_COORDINATE_TYPE>
1
5
255

> <PUBCHEM_BONDANNOTATIONS>
11  19  8
11  20  8
13  15  8
13  18  8
15  22  8
16  17  8
16  24  8
17  25  8
18  23  8
19  27  8
20  28  8
22  26  8
23  26  8
24  29  8
25  30  8
27  31  8
28  31  8
29  30  8

$$$$
