57420188
  -OEChem-09292321592D

 56 57  0     0  0  0  0  0  0999 V2000
    2.8660   -3.7500    0.0000 O   0  0  0  0  0  0  0  0  0  0  0  0
    7.1962    3.7500    0.0000 O   0  0  0  0  0  0  0  0  0  0  0  0
    5.4641    3.7500    0.0000 O   0  0  0  0  0  0  0  0  0  0  0  0
    4.5981   -0.7500    0.0000 N   0  0  0  0  0  0  0  0  0  0  0  0
    4.5981   -2.7500    0.0000 N   0  0  0  0  0  0  0  0  0  0  0  0
    6.3301    2.2500    0.0000 N   0  0  0  0  0  0  0  0  0  0  0  0
    3.7320   -1.2500    0.0000 C   0  0  0  0  0  0  0  0  0  0  0  0
    5.4641   -1.2500    0.0000 C   0  0  0  0  0  0  0  0  0  0  0  0
    3.7320   -2.2500    0.0000 C   0  0  0  0  0  0  0  0  0  0  0  0
    5.4641   -2.2500    0.0000 C   0  0  0  0  0  0  0  0  0  0  0  0
    4.5981    0.2500    0.0000 C   0  0  0  0  0  0  0  0  0  0  0  0
    5.4641    0.7500    0.0000 C   0  0  0  0  0  0  0  0  0  0  0  0
    4.5981   -3.7500    0.0000 C   0  0  0  0  0  0  0  0  0  0  0  0
    5.4641    1.7500    0.0000 C   0  0  0  0  0  0  0  0  0  0  0  0
    3.7320   -4.2500    0.0000 C   0  0  0  0  0  0  0  0  0  0  0  0
    5.4641   -4.2500    0.0000 C   0  0  0  0  0  0  0  0  0  0  0  0
    3.7320   -5.2500    0.0000 C   0  0  0  0  0  0  0  0  0  0  0  0
    5.4641   -5.2500    0.0000 C   0  0  0  0  0  0  0  0  0  0  0  0
    7.1962    4.7500    0.0000 C   0  0  0  0  0  0  0  0  0  0  0  0
    4.5981   -5.7500    0.0000 C   0  0  0  0  0  0  0  0  0  0  0  0
    6.3301    3.2500    0.0000 C   0  0  0  0  0  0  0  0  0  0  0  0
    7.1962    5.7500    0.0000 C   0  0  0  0  0  0  0  0  0  0  0  0
    8.1962    4.7500    0.0000 C   0  0  0  0  0  0  0  0  0  0  0  0
    6.1962    4.7500    0.0000 C   0  0  0  0  0  0  0  0  0  0  0  0
    2.0000   -4.2500    0.0000 C   0  0  0  0  0  0  0  0  0  0  0  0
    3.5200   -0.6674    0.0000 H   0  0  0  0  0  0  0  0  0  0  0  0
    3.1215   -1.3577    0.0000 H   0  0  0  0  0  0  0  0  0  0  0  0
    6.0747   -1.3577    0.0000 H   0  0  0  0  0  0  0  0  0  0  0  0
    5.6762   -0.6674    0.0000 H   0  0  0  0  0  0  0  0  0  0  0  0
    3.1215   -2.1423    0.0000 H   0  0  0  0  0  0  0  0  0  0  0  0
    3.5200   -2.8326    0.0000 H   0  0  0  0  0  0  0  0  0  0  0  0
    5.6762   -2.8326    0.0000 H   0  0  0  0  0  0  0  0  0  0  0  0
    6.0747   -2.1423    0.0000 H   0  0  0  0  0  0  0  0  0  0  0  0
    4.3860    0.8326    0.0000 H   0  0  0  0  0  0  0  0  0  0  0  0
    3.9875    0.1423    0.0000 H   0  0  0  0  0  0  0  0  0  0  0  0
    5.6762    0.1674    0.0000 H   0  0  0  0  0  0  0  0  0  0  0  0
    6.0747    0.8577    0.0000 H   0  0  0  0  0  0  0  0  0  0  0  0
    5.2520    2.3326    0.0000 H   0  0  0  0  0  0  0  0  0  0  0  0
    4.8535    1.6423    0.0000 H   0  0  0  0  0  0  0  0  0  0  0  0
    6.0010   -3.9400    0.0000 H   0  0  0  0  0  0  0  0  0  0  0  0
    6.8671    1.9400    0.0000 H   0  0  0  0  0  0  0  0  0  0  0  0
    3.1951   -5.5600    0.0000 H   0  0  0  0  0  0  0  0  0  0  0  0
    6.0010   -5.5600    0.0000 H   0  0  0  0  0  0  0  0  0  0  0  0
    4.5981   -6.3700    0.0000 H   0  0  0  0  0  0  0  0  0  0  0  0
    7.8162    5.7500    0.0000 H   0  0  0  0  0  0  0  0  0  0  0  0
    7.1962    6.3700    0.0000 H   0  0  0  0  0  0  0  0  0  0  0  0
    6.5762    5.7500    0.0000 H   0  0  0  0  0  0  0  0  0  0  0  0
    8.1962    4.1300    0.0000 H   0  0  0  0  0  0  0  0  0  0  0  0
    8.8162    4.7500    0.0000 H   0  0  0  0  0  0  0  0  0  0  0  0
    8.1962    5.3700    0.0000 H   0  0  0  0  0  0  0  0  0  0  0  0
    6.1962    5.3700    0.0000 H   0  0  0  0  0  0  0  0  0  0  0  0
    5.5762    4.7500    0.0000 H   0  0  0  0  0  0  0  0  0  0  0  0
    6.1962    4.1300    0.0000 H   0  0  0  0  0  0  0  0  0  0  0  0
    1.6900   -3.7131    0.0000 H   0  0  0  0  0  0  0  0  0  0  0  0
    1.4631   -4.5600    0.0000 H   0  0  0  0  0  0  0  0  0  0  0  0
    2.3100   -4.7869    0.0000 H   0  0  0  0  0  0  0  0  0  0  0  0
  1 15  1  0  0  0  0
  1 25  1  0  0  0  0
  2 19  1  0  0  0  0
  2 21  1  0  0  0  0
  3 21  2  0  0  0  0
  4  7  1  0  0  0  0
  4  8  1  0  0  0  0
  4 11  1  0  0  0  0
  5  9  1  0  0  0  0
  5 10  1  0  0  0  0
  5 13  1  0  0  0  0
  6 14  1  0  0  0  0
  6 21  1  0  0  0  0
  6 41  1  0  0  0  0
  7  9  1  0  0  0  0
  7 26  1  0  0  0  0
  7 27  1  0  0  0  0
  8 10  1  0  0  0  0
  8 28  1  0  0  0  0
  8 29  1  0  0  0  0
  9 30  1  0  0  0  0
  9 31  1  0  0  0  0
 10 32  1  0  0  0  0
 10 33  1  0  0  0  0
 11 12  1  0  0  0  0
 11 34  1  0  0  0  0
 11 35  1  0  0  0  0
 12 14  1  0  0  0  0
 12 36  1  0  0  0  0
 12 37  1  0  0  0  0
 13 15  1  0  0  0  0
 13 16  2  0  0  0  0
 14 38  1  0  0  0  0
 14 39  1  0  0  0  0
 15 17  2  0  0  0  0
 16 18  1  0  0  0  0
 16 40  1  0  0  0  0
 17 20  1  0  0  0  0
 17 42  1  0  0  0  0
 18 20  2  0  0  0  0
 18 43  1  0  0  0  0
 19 22  1  0  0  0  0
 19 23  1  0  0  0  0
 19 24  1  0  0  0  0
 20 44  1  0  0  0  0
 22 45  1  0  0  0  0
 22 46  1  0  0  0  0
 22 47  1  0  0  0  0
 23 48  1  0  0  0  0
 23 49  1  0  0  0  0
 23 50  1  0  0  0  0
 24 51  1  0  0  0  0
 24 52  1  0  0  0  0
 24 53  1  0  0  0  0
 25 54  1  0  0  0  0
 25 55  1  0  0  0  0
 25 56  1  0  0  0  0
M  END
> <PUBCHEM_COMPOUND_CID>
57420188

> <PUBCHEM_COMPOUND_CANONICALIZED>
1

> <PUBCHEM_CACTVS_COMPLEXITY>
403

> <PUBCHEM_CACTVS_HBOND_ACCEPTOR>
5

> <PUBCHEM_CACTVS_HBOND_DONOR>
1

> <PUBCHEM_CACTVS_ROTATABLE_BOND>
8

> <PUBCHEM_CACTVS_SUBSKEYS>
AAADceB7MAAAAAAAAAAAAAAAAAAAAAAAAAA8QAAAAAAAAAABAAAAHgAQAAAADEzBkAYyzoPABACIACRCWACCCAAhIgAIiIAPbIkOZiLE8ZudMChk1hHY6AeQQAAAAAAAAAAAEAAAAAAAAAAgAAAAAAAAAA==

> <PUBCHEM_IUPAC_OPENEYE_NAME>
tert-butyl N-[3-[4-(2-methoxyphenyl)piperazin-1-yl]propyl]carbamate

> <PUBCHEM_IUPAC_CAS_NAME>
N-[3-[4-(2-methoxyphenyl)-1-piperazinyl]propyl]carbamic acid tert-butyl ester

> <PUBCHEM_IUPAC_NAME_MARKUP>
<I>tert</I>-butyl <I>N</I>-[3-[4-(2-methoxyphenyl)piperazin-1-yl]propyl]carbamate

> <PUBCHEM_IUPAC_NAME>
tert-butyl N-[3-[4-(2-methoxyphenyl)piperazin-1-yl]propyl]carbamate

> <PUBCHEM_IUPAC_SYSTEMATIC_NAME>
tert-butyl N-[3-[4-(2-methoxyphenyl)piperazin-1-yl]propyl]carbamate

> <PUBCHEM_IUPAC_TRADITIONAL_NAME>
N-[3-[4-(2-methoxyphenyl)piperazino]propyl]carbamic acid tert-butyl ester

> <PUBCHEM_IUPAC_INCHI>
InChI=1S/C19H31N3O3/c1-19(2,3)25-18(23)20-10-7-11-21-12-14-22(15-13-21)16-8-5-6-9-17(16)24-4/h5-6,8-9H,7,10-15H2,1-4H3,(H,20,23)

> <PUBCHEM_IUPAC_INCHIKEY>
LJPFHXAKXNKRIV-UHFFFAOYSA-N

> <PUBCHEM_XLOGP3_AA>
2.9

> <PUBCHEM_EXACT_MASS>
349.23654186

> <PUBCHEM_MOLECULAR_FORMULA>
C19H31N3O3

> <PUBCHEM_MOLECULAR_WEIGHT>
349.5

> <PUBCHEM_OPENEYE_CAN_SMILES>
CC(C)(C)OC(=O)NCCCN1CCN(CC1)C2=CC=CC=C2OC

> <PUBCHEM_OPENEYE_ISO_SMILES>
CC(C)(C)OC(=O)NCCCN1CCN(CC1)C2=CC=CC=C2OC

> <PUBCHEM_CACTVS_TPSA>
54

> <PUBCHEM_MONOISOTOPIC_WEIGHT>
349.23654186

> <PUBCHEM_TOTAL_CHARGE>
0

> <PUBCHEM_HEAVY_ATOM_COUNT>
25

> <PUBCHEM_ATOM_DEF_STEREO_COUNT>
0

> <PUBCHEM_ATOM_UDEF_STEREO_COUNT>
0

> <PUBCHEM_BOND_DEF_STEREO_COUNT>
0

> <PUBCHEM_BOND_UDEF_STEREO_COUNT>
0

> <PUBCHEM_ISOTOPIC_ATOM_COUNT>
0

> <PUBCHEM_COMPONENT_COUNT>
1

> <PUBCHEM_CACTVS_TAUTO_COUNT>
-1

> <PUBCHEM_COORDINATE_TYPE>
1
5
255

> <PUBCHEM_BONDANNOTATIONS>
13  15  8
13  16  8
15  17  8
16  18  8
17  20  8
18  20  8

$$$$
