162657836
  -OEChem-09292322432D

 59 62  0     0  0  0  0  0  0999 V2000
    2.0000   -6.2333    0.0000 F   0  0  0  0  0  0  0  0  0  0  0  0
    5.5443   -6.0381    0.0000 O   0  0  0  0  0  0  0  0  0  0  0  0
    9.0546    0.7364    0.0000 O   0  0  0  0  0  0  0  0  0  0  0  0
    8.6509    5.0766    0.0000 O   0  0  0  0  0  0  0  0  0  0  0  0
    6.4763   -1.5770    0.0000 N   0  0  0  0  0  0  0  0  0  0  0  0
    6.1279   -5.2333    0.0000 N   0  0  0  0  0  0  0  0  0  0  0  0
   10.2973    4.5385    0.0000 N   0  0  0  0  0  0  0  0  0  0  0  0
    5.8550   -3.4781    0.0000 C   0  0  0  0  0  0  0  0  0  0  0  0
    5.1871   -2.7338    0.0000 C   0  0  0  0  0  0  0  0  0  0  0  0
    6.8335   -3.2719    0.0000 C   0  0  0  0  0  0  0  0  0  0  0  0
    5.4978   -1.7833    0.0000 C   0  0  0  0  0  0  0  0  0  0  0  0
    7.1441   -2.3213    0.0000 C   0  0  0  0  0  0  0  0  0  0  0  0
    6.7870   -0.6265    0.0000 C   0  0  0  0  0  0  0  0  0  0  0  0
    5.5443   -4.4286    0.0000 C   0  0  0  0  0  0  0  0  0  0  0  0
    7.7654   -0.4203    0.0000 C   0  0  0  0  0  0  0  0  0  0  0  0
    4.5981   -4.7333    0.0000 C   0  0  0  0  0  0  0  0  0  0  0  0
    4.5981   -5.7333    0.0000 C   0  0  0  0  0  0  0  0  0  0  0  0
    8.0761    0.5302    0.0000 C   0  0  0  0  0  0  0  0  0  0  0  0
    3.7320   -4.2333    0.0000 C   0  0  0  0  0  0  0  0  0  0  0  0
    3.7320   -6.2333    0.0000 C   0  0  0  0  0  0  0  0  0  0  0  0
    2.8660   -4.7333    0.0000 C   0  0  0  0  0  0  0  0  0  0  0  0
    2.8660   -5.7333    0.0000 C   0  0  0  0  0  0  0  0  0  0  0  0
    9.3653    1.6870    0.0000 C   0  0  0  0  0  0  0  0  0  0  0  0
   10.3438    1.8932    0.0000 C   0  0  0  0  0  0  0  0  0  0  0  0
    8.6974    2.4313    0.0000 C   0  0  0  0  0  0  0  0  0  0  0  0
   10.6545    2.8437    0.0000 C   0  0  0  0  0  0  0  0  0  0  0  0
    9.9866    3.5880    0.0000 C   0  0  0  0  0  0  0  0  0  0  0  0
    9.0081    3.3818    0.0000 C   0  0  0  0  0  0  0  0  0  0  0  0
   11.6330    3.0499    0.0000 C   0  0  0  0  0  0  0  0  0  0  0  0
    9.6294    5.2828    0.0000 C   0  0  0  0  0  0  0  0  0  0  0  0
    9.9401    6.2333    0.0000 C   0  0  0  0  0  0  0  0  0  0  0  0
    6.2690   -3.9396    0.0000 H   0  0  0  0  0  0  0  0  0  0  0  0
    4.6402   -2.4418    0.0000 H   0  0  0  0  0  0  0  0  0  0  0  0
    4.8046   -3.2217    0.0000 H   0  0  0  0  0  0  0  0  0  0  0  0
    6.8540   -3.8915    0.0000 H   0  0  0  0  0  0  0  0  0  0  0  0
    7.4473   -3.3592    0.0000 H   0  0  0  0  0  0  0  0  0  0  0  0
    5.4772   -1.1636    0.0000 H   0  0  0  0  0  0  0  0  0  0  0  0
    4.8840   -1.6959    0.0000 H   0  0  0  0  0  0  0  0  0  0  0  0
    7.6910   -2.6134    0.0000 H   0  0  0  0  0  0  0  0  0  0  0  0
    7.5267   -1.8334    0.0000 H   0  0  0  0  0  0  0  0  0  0  0  0
    6.7664   -0.0069    0.0000 H   0  0  0  0  0  0  0  0  0  0  0  0
    6.1731   -0.5392    0.0000 H   0  0  0  0  0  0  0  0  0  0  0  0
    7.7860   -1.0400    0.0000 H   0  0  0  0  0  0  0  0  0  0  0  0
    8.3793   -0.5077    0.0000 H   0  0  0  0  0  0  0  0  0  0  0  0
    8.0556    1.1499    0.0000 H   0  0  0  0  0  0  0  0  0  0  0  0
    7.4623    0.6176    0.0000 H   0  0  0  0  0  0  0  0  0  0  0  0
    3.7320   -3.6133    0.0000 H   0  0  0  0  0  0  0  0  0  0  0  0
    3.7320   -6.8533    0.0000 H   0  0  0  0  0  0  0  0  0  0  0  0
    2.3291   -4.4233    0.0000 H   0  0  0  0  0  0  0  0  0  0  0  0
   10.7578    1.4317    0.0000 H   0  0  0  0  0  0  0  0  0  0  0  0
    8.0908    2.3034    0.0000 H   0  0  0  0  0  0  0  0  0  0  0  0
    8.5940    3.8432    0.0000 H   0  0  0  0  0  0  0  0  0  0  0  0
   11.7608    2.4432    0.0000 H   0  0  0  0  0  0  0  0  0  0  0  0
   12.2396    3.1778    0.0000 H   0  0  0  0  0  0  0  0  0  0  0  0
   11.5051    3.6566    0.0000 H   0  0  0  0  0  0  0  0  0  0  0  0
   10.9039    4.6664    0.0000 H   0  0  0  0  0  0  0  0  0  0  0  0
   10.5294    6.0407    0.0000 H   0  0  0  0  0  0  0  0  0  0  0  0
   10.1327    6.8227    0.0000 H   0  0  0  0  0  0  0  0  0  0  0  0
    9.3508    6.4260    0.0000 H   0  0  0  0  0  0  0  0  0  0  0  0
  1 22  1  0  0  0  0
  2  6  1  0  0  0  0
  2 17  1  0  0  0  0
  3 18  1  0  0  0  0
  3 23  1  0  0  0  0
  4 30  2  0  0  0  0
  5 11  1  0  0  0  0
  5 12  1  0  0  0  0
  5 13  1  0  0  0  0
  6 14  2  0  0  0  0
  7 27  1  0  0  0  0
  7 30  1  0  0  0  0
  7 56  1  0  0  0  0
  8  9  1  0  0  0  0
  8 10  1  0  0  0  0
  8 14  1  0  0  0  0
  8 32  1  0  0  0  0
  9 11  1  0  0  0  0
  9 33  1  0  0  0  0
  9 34  1  0  0  0  0
 10 12  1  0  0  0  0
 10 35  1  0  0  0  0
 10 36  1  0  0  0  0
 11 37  1  0  0  0  0
 11 38  1  0  0  0  0
 12 39  1  0  0  0  0
 12 40  1  0  0  0  0
 13 15  1  0  0  0  0
 13 41  1  0  0  0  0
 13 42  1  0  0  0  0
 14 16  1  0  0  0  0
 15 18  1  0  0  0  0
 15 43  1  0  0  0  0
 15 44  1  0  0  0  0
 16 17  2  0  0  0  0
 16 19  1  0  0  0  0
 17 20  1  0  0  0  0
 18 45  1  0  0  0  0
 18 46  1  0  0  0  0
 19 21  2  0  0  0  0
 19 47  1  0  0  0  0
 20 22  2  0  0  0  0
 20 48  1  0  0  0  0
 21 22  1  0  0  0  0
 21 49  1  0  0  0  0
 23 24  2  0  0  0  0
 23 25  1  0  0  0  0
 24 26  1  0  0  0  0
 24 50  1  0  0  0  0
 25 28  2  0  0  0  0
 25 51  1  0  0  0  0
 26 27  2  0  0  0  0
 26 29  1  0  0  0  0
 27 28  1  0  0  0  0
 28 52  1  0  0  0  0
 29 53  1  0  0  0  0
 29 54  1  0  0  0  0
 29 55  1  0  0  0  0
 30 31  1  0  0  0  0
 31 57  1  0  0  0  0
 31 58  1  0  0  0  0
 31 59  1  0  0  0  0
M  END
> <PUBCHEM_COMPOUND_CID>
162657836

> <PUBCHEM_COMPOUND_CANONICALIZED>
1

> <PUBCHEM_CACTVS_COMPLEXITY>
586

> <PUBCHEM_CACTVS_HBOND_ACCEPTOR>
6

> <PUBCHEM_CACTVS_HBOND_DONOR>
1

> <PUBCHEM_CACTVS_ROTATABLE_BOND>
7

> <PUBCHEM_CACTVS_SUBSKEYS>
AAADceB7MQAAAAAAAAAAAAAAAAAAAWAAAAA8YIAAAAAAAFgB9AAAHwAUAAAADQzhng4yxtPQBACpA6VyUgCCCAAlIgAomCE+bNoMJrrEtZuGOajm1BnI6ce4yPCOAEABAAAKAAAAgAIAABQAAAAAAAAAAA==

> <PUBCHEM_IUPAC_OPENEYE_NAME>
N-[4-[3-[4-(6-fluoro-1,2-benzoxazol-3-yl)-1-piperidyl]propoxy]-2-methyl-phenyl]acetamide

> <PUBCHEM_IUPAC_CAS_NAME>
N-[4-[3-[4-(6-fluoro-1,2-benzoxazol-3-yl)-1-piperidinyl]propoxy]-2-methylphenyl]acetamide

> <PUBCHEM_IUPAC_NAME_MARKUP>
<I>N</I>-[4-[3-[4-(6-fluoro-1,2-benzoxazol-3-yl)piperidin-1-yl]propoxy]-2-methylphenyl]acetamide

> <PUBCHEM_IUPAC_NAME>
N-[4-[3-[4-(6-fluoro-1,2-benzoxazol-3-yl)piperidin-1-yl]propoxy]-2-methylphenyl]acetamide

> <PUBCHEM_IUPAC_SYSTEMATIC_NAME>
N-[4-[3-[4-(6-fluoranyl-1,2-benzoxazol-3-yl)piperidin-1-yl]propoxy]-2-methyl-phenyl]ethanamide

> <PUBCHEM_IUPAC_TRADITIONAL_NAME>
N-[4-[3-[4-(6-fluoroindoxazen-3-yl)piperidino]propoxy]-2-methyl-phenyl]acetamide

> <PUBCHEM_IUPAC_INCHI>
InChI=1S/C24H28FN3O3/c1-16-14-20(5-7-22(16)26-17(2)29)30-13-3-10-28-11-8-18(9-12-28)24-21-6-4-19(25)15-23(21)31-27-24/h4-7,14-15,18H,3,8-13H2,1-2H3,(H,26,29)

> <PUBCHEM_IUPAC_INCHIKEY>
KXYAKNGCDOJWIC-UHFFFAOYSA-N

> <PUBCHEM_XLOGP3_AA>
4

> <PUBCHEM_EXACT_MASS>
425.21146993

> <PUBCHEM_MOLECULAR_FORMULA>
C24H28FN3O3

> <PUBCHEM_MOLECULAR_WEIGHT>
425.5

> <PUBCHEM_OPENEYE_CAN_SMILES>
CC1=C(C=CC(=C1)OCCCN2CCC(CC2)C3=NOC4=C3C=CC(=C4)F)NC(=O)C

> <PUBCHEM_OPENEYE_ISO_SMILES>
CC1=C(C=CC(=C1)OCCCN2CCC(CC2)C3=NOC4=C3C=CC(=C4)F)NC(=O)C

> <PUBCHEM_CACTVS_TPSA>
67.6

> <PUBCHEM_MONOISOTOPIC_WEIGHT>
425.21146993

> <PUBCHEM_TOTAL_CHARGE>
0

> <PUBCHEM_HEAVY_ATOM_COUNT>
31

> <PUBCHEM_ATOM_DEF_STEREO_COUNT>
0

> <PUBCHEM_ATOM_UDEF_STEREO_COUNT>
0

> <PUBCHEM_BOND_DEF_STEREO_COUNT>
0

> <PUBCHEM_BOND_UDEF_STEREO_COUNT>
0

> <PUBCHEM_ISOTOPIC_ATOM_COUNT>
0

> <PUBCHEM_COMPONENT_COUNT>
1

> <PUBCHEM_CACTVS_TAUTO_COUNT>
-1

> <PUBCHEM_COORDINATE_TYPE>
1
5
255

> <PUBCHEM_BONDANNOTATIONS>
14  16  8
16  17  8
16  19  8
17  20  8
19  21  8
2  17  8
2  6  8
20  22  8
21  22  8
23  24  8
23  25  8
24  26  8
25  28  8
26  27  8
27  28  8
6  14  8

$$$$
