44627468
  -OEChem-09292322302D

 53 57  0     1  0  0  0  0  0999 V2000
   11.4255    3.5205    0.0000 Cl  0  0  0  0  0  0  0  0  0  0  0  0
    6.8867   -2.7115    0.0000 S   0  0  0  0  0  0  0  0  0  0  0  0
   13.1576    0.5205    0.0000 F   0  0  0  0  0  0  0  0  0  0  0  0
    2.5878   -1.9328    0.0000 O   0  0  0  0  0  0  0  0  0  0  0  0
    9.8867   -0.9795    0.0000 N   0  0  3  0  0  0  0  0  0  0  0  0
    5.2989   -1.9025    0.0000 N   0  0  0  0  0  0  0  0  0  0  0  0
    5.2989   -3.5205    0.0000 N   0  0  0  0  0  0  0  0  0  0  0  0
    4.3479   -3.2115    0.0000 N   0  0  0  0  0  0  0  0  0  0  0  0
    2.5878   -0.3147    0.0000 N   0  0  0  0  0  0  0  0  0  0  0  0
   11.4255   -0.4795    0.0000 C   0  0  3  0  0  0  0  0  0  0  0  0
   11.4255   -1.4795    0.0000 C   0  0  3  0  0  0  0  0  0  0  0  0
   12.2921   -0.9795    0.0000 C   0  0  0  0  0  0  0  0  0  0  0  0
   10.4745   -0.1704    0.0000 C   0  0  0  0  0  0  0  0  0  0  0  0
   10.4745   -1.7885    0.0000 C   0  0  0  0  0  0  0  0  0  0  0  0
   11.4255    0.5205    0.0000 C   0  0  0  0  0  0  0  0  0  0  0  0
    8.8867   -0.9795    0.0000 C   0  0  0  0  0  0  0  0  0  0  0  0
   12.2916    1.0205    0.0000 C   0  0  0  0  0  0  0  0  0  0  0  0
   10.5595    1.0205    0.0000 C   0  0  0  0  0  0  0  0  0  0  0  0
    8.3867   -1.8455    0.0000 C   0  0  0  0  0  0  0  0  0  0  0  0
   12.2916    2.0205    0.0000 C   0  0  0  0  0  0  0  0  0  0  0  0
   10.5595    2.0205    0.0000 C   0  0  0  0  0  0  0  0  0  0  0  0
    7.3867   -1.8455    0.0000 C   0  0  0  0  0  0  0  0  0  0  0  0
   11.4255    2.5205    0.0000 C   0  0  0  0  0  0  0  0  0  0  0  0
    5.8867   -2.7115    0.0000 C   0  0  0  0  0  0  0  0  0  0  0  0
    4.3479   -2.2115    0.0000 C   0  0  0  0  0  0  0  0  0  0  0  0
    5.6079   -0.9514    0.0000 C   0  0  0  0  0  0  0  0  0  0  0  0
    3.5388   -1.6237    0.0000 C   0  0  0  0  0  0  0  0  0  0  0  0
    3.5388   -0.6237    0.0000 C   0  0  0  0  0  0  0  0  0  0  0  0
    4.3479   -0.0359    0.0000 C   0  0  0  0  0  0  0  0  0  0  0  0
    2.0000   -1.1237    0.0000 C   0  0  0  0  0  0  0  0  0  0  0  0
   11.6776   -2.0459    0.0000 H   0  0  0  0  0  0  0  0  0  0  0  0
   12.6906   -1.4544    0.0000 H   0  0  0  0  0  0  0  0  0  0  0  0
   12.6906   -0.5045    0.0000 H   0  0  0  0  0  0  0  0  0  0  0  0
   10.7267    0.3959    0.0000 H   0  0  0  0  0  0  0  0  0  0  0  0
    9.9376    0.1396    0.0000 H   0  0  0  0  0  0  0  0  0  0  0  0
    9.9376   -2.0985    0.0000 H   0  0  0  0  0  0  0  0  0  0  0  0
   10.7267   -2.3549    0.0000 H   0  0  0  0  0  0  0  0  0  0  0  0
    8.9944   -0.3689    0.0000 H   0  0  0  0  0  0  0  0  0  0  0  0
    8.3041   -0.7674    0.0000 H   0  0  0  0  0  0  0  0  0  0  0  0
   10.0226    0.7105    0.0000 H   0  0  0  0  0  0  0  0  0  0  0  0
    8.2790   -2.4561    0.0000 H   0  0  0  0  0  0  0  0  0  0  0  0
    8.9693   -2.0575    0.0000 H   0  0  0  0  0  0  0  0  0  0  0  0
   12.8285    2.3305    0.0000 H   0  0  0  0  0  0  0  0  0  0  0  0
   10.0226    2.3305    0.0000 H   0  0  0  0  0  0  0  0  0  0  0  0
    7.4944   -1.2349    0.0000 H   0  0  0  0  0  0  0  0  0  0  0  0
    6.8041   -1.6334    0.0000 H   0  0  0  0  0  0  0  0  0  0  0  0
    6.1976   -1.1430    0.0000 H   0  0  0  0  0  0  0  0  0  0  0  0
    5.7995   -0.3618    0.0000 H   0  0  0  0  0  0  0  0  0  0  0  0
    5.0183   -0.7599    0.0000 H   0  0  0  0  0  0  0  0  0  0  0  0
    4.7123   -0.5375    0.0000 H   0  0  0  0  0  0  0  0  0  0  0  0
    4.8494    0.3285    0.0000 H   0  0  0  0  0  0  0  0  0  0  0  0
    3.9834    0.4656    0.0000 H   0  0  0  0  0  0  0  0  0  0  0  0
    1.3800   -1.1237    0.0000 H   0  0  0  0  0  0  0  0  0  0  0  0
  1 23  1  0  0  0  0
  2 22  1  0  0  0  0
  2 24  1  0  0  0  0
  3 17  1  0  0  0  0
  4 27  1  0  0  0  0
  4 30  1  0  0  0  0
  5 13  1  0  0  0  0
  5 14  1  0  0  0  0
  5 16  1  0  0  0  0
  6 24  1  0  0  0  0
  6 25  1  0  0  0  0
  6 26  1  0  0  0  0
  7  8  1  0  0  0  0
  7 24  2  0  0  0  0
  8 25  2  0  0  0  0
  9 28  1  0  0  0  0
  9 30  2  0  0  0  0
 10 11  1  0  0  0  0
 10 12  1  0  0  0  0
 10 13  1  0  0  0  0
 10 15  1  0  0  0  0
 11 12  1  0  0  0  0
 11 14  1  0  0  0  0
 11 31  1  0  0  0  0
 12 32  1  0  0  0  0
 12 33  1  0  0  0  0
 13 34  1  0  0  0  0
 13 35  1  0  0  0  0
 14 36  1  0  0  0  0
 14 37  1  0  0  0  0
 15 17  2  0  0  0  0
 15 18  1  0  0  0  0
 16 19  1  0  0  0  0
 16 38  1  0  0  0  0
 16 39  1  0  0  0  0
 17 20  1  0  0  0  0
 18 21  2  0  0  0  0
 18 40  1  0  0  0  0
 19 22  1  0  0  0  0
 19 41  1  0  0  0  0
 19 42  1  0  0  0  0
 20 23  2  0  0  0  0
 20 43  1  0  0  0  0
 21 23  1  0  0  0  0
 21 44  1  0  0  0  0
 22 45  1  0  0  0  0
 22 46  1  0  0  0  0
 25 27  1  0  0  0  0
 26 47  1  0  0  0  0
 26 48  1  0  0  0  0
 26 49  1  0  0  0  0
 27 28  2  0  0  0  0
 28 29  1  0  0  0  0
 29 50  1  0  0  0  0
 29 51  1  0  0  0  0
 29 52  1  0  0  0  0
 30 53  1  0  0  0  0
M  END
> <PUBCHEM_COMPOUND_CID>
44627468

> <PUBCHEM_COMPOUND_CANONICALIZED>
1

> <PUBCHEM_CACTVS_COMPLEXITY>
622

> <PUBCHEM_CACTVS_HBOND_ACCEPTOR>
7

> <PUBCHEM_CACTVS_HBOND_DONOR>
0

> <PUBCHEM_CACTVS_ROTATABLE_BOND>
7

> <PUBCHEM_CACTVS_SUBSKEYS>
AAADceB7oQBEAAAAAAAAAAAAGAAAAWLFgAA8QAAAAAAAAAAB8AAAHwYIAAAADw7F3y63lJcMFEiqA6Zz9ASS2Ct7ZbAd2CG9RpiOKCLl2zGNIChgjALYiAcQgMAPhAAAAAAAAAAIAAAAAAAAAAAAAAAAAA==

> <PUBCHEM_IUPAC_OPENEYE_NAME>
5-[5-[3-[1-(4-chloro-2-fluoro-phenyl)-3-azabicyclo[3.1.0]hexan-3-yl]propylsulfanyl]-4-methyl-1,2,4-triazol-3-yl]-4-methyl-oxazole

> <PUBCHEM_IUPAC_CAS_NAME>
5-[5-[3-[1-(4-chloro-2-fluorophenyl)-3-azabicyclo[3.1.0]hexan-3-yl]propylthio]-4-methyl-1,2,4-triazol-3-yl]-4-methyloxazole

> <PUBCHEM_IUPAC_NAME_MARKUP>
5-[5-[3-[1-(4-chloro-2-fluorophenyl)-3-azabicyclo[3.1.0]hexan-3-yl]propylsulfanyl]-4-methyl-1,2,4-triazol-3-yl]-4-methyl-1,3-oxazole

> <PUBCHEM_IUPAC_NAME>
5-[5-[3-[1-(4-chloro-2-fluorophenyl)-3-azabicyclo[3.1.0]hexan-3-yl]propylsulfanyl]-4-methyl-1,2,4-triazol-3-yl]-4-methyl-1,3-oxazole

> <PUBCHEM_IUPAC_SYSTEMATIC_NAME>
5-[5-[3-[1-(4-chloranyl-2-fluoranyl-phenyl)-3-azabicyclo[3.1.0]hexan-3-yl]propylsulfanyl]-4-methyl-1,2,4-triazol-3-yl]-4-methyl-1,3-oxazole

> <PUBCHEM_IUPAC_TRADITIONAL_NAME>
5-[5-[3-[1-(4-chloro-2-fluoro-phenyl)-3-azabicyclo[3.1.0]hexan-3-yl]propylthio]-4-methyl-1,2,4-triazol-3-yl]-4-methyl-oxazole

> <PUBCHEM_IUPAC_INCHI>
InChI=1S/C21H23ClFN5OS/c1-13-18(29-12-24-13)19-25-26-20(27(19)2)30-7-3-6-28-10-14-9-21(14,11-28)16-5-4-15(22)8-17(16)23/h4-5,8,12,14H,3,6-7,9-11H2,1-2H3

> <PUBCHEM_IUPAC_INCHIKEY>
MDHNTQJUKKBCMM-UHFFFAOYSA-N

> <PUBCHEM_XLOGP3_AA>
3.8

> <PUBCHEM_EXACT_MASS>
447.1295874

> <PUBCHEM_MOLECULAR_FORMULA>
C21H23ClFN5OS

> <PUBCHEM_MOLECULAR_WEIGHT>
448.0

> <PUBCHEM_OPENEYE_CAN_SMILES>
CC1=C(OC=N1)C2=NN=C(N2C)SCCCN3CC4CC4(C3)C5=C(C=C(C=C5)Cl)F

> <PUBCHEM_OPENEYE_ISO_SMILES>
CC1=C(OC=N1)C2=NN=C(N2C)SCCCN3CC4CC4(C3)C5=C(C=C(C=C5)Cl)F

> <PUBCHEM_CACTVS_TPSA>
85.3

> <PUBCHEM_MONOISOTOPIC_WEIGHT>
447.1295874

> <PUBCHEM_TOTAL_CHARGE>
0

> <PUBCHEM_HEAVY_ATOM_COUNT>
30

> <PUBCHEM_ATOM_DEF_STEREO_COUNT>
0

> <PUBCHEM_ATOM_UDEF_STEREO_COUNT>
2

> <PUBCHEM_BOND_DEF_STEREO_COUNT>
0

> <PUBCHEM_BOND_UDEF_STEREO_COUNT>
0

> <PUBCHEM_ISOTOPIC_ATOM_COUNT>
0

> <PUBCHEM_COMPONENT_COUNT>
1

> <PUBCHEM_CACTVS_TAUTO_COUNT>
-1

> <PUBCHEM_COORDINATE_TYPE>
1
5
255

> <PUBCHEM_BONDANNOTATIONS>
10  15  3
11  12  3
15  17  8
15  18  8
17  20  8
18  21  8
20  23  8
21  23  8
27  28  8
4  27  8
4  30  8
6  24  8
6  25  8
7  24  8
7  8  8
8  25  8
9  28  8
9  30  8

$$$$
