19938405
  -OEChem-09292322202D

 86 91  0     0  0  0  0  0  0999 V2000
    9.2619   -2.5907    0.0000 O   0  0  0  0  0  0  0  0  0  0  0  0
    8.4487    0.4966    0.0000 O   0  0  0  0  0  0  0  0  0  0  0  0
    4.6783   -1.7860    0.0000 N   0  0  0  0  0  0  0  0  0  0  0  0
   12.2619   -4.3228    0.0000 N   0  0  0  0  0  0  0  0  0  0  0  0
    4.2746    2.5542    0.0000 N   0  0  0  0  0  0  0  0  0  0  0  0
    4.6783   -3.3955    0.0000 N   0  0  0  0  0  0  0  0  0  0  0  0
    5.2251    3.8530    0.0000 N   0  0  0  0  0  0  0  0  0  0  0  0
   11.2619   -4.3228    0.0000 C   0  0  0  0  0  0  0  0  0  0  0  0
   10.7619   -3.4568    0.0000 C   0  0  0  0  0  0  0  0  0  0  0  0
    4.9889   -0.8355    0.0000 C   0  0  0  0  0  0  0  0  0  0  0  0
    5.2619   -2.5907    0.0000 C   0  0  0  0  0  0  0  0  0  0  0  0
    3.7320   -2.0907    0.0000 C   0  0  0  0  0  0  0  0  0  0  0  0
    3.9639    1.6036    0.0000 C   0  0  0  0  0  0  0  0  0  0  0  0
    3.6910    3.3589    0.0000 C   0  0  0  0  0  0  0  0  0  0  0  0
    5.2208    2.8589    0.0000 C   0  0  0  0  0  0  0  0  0  0  0  0
    3.7320   -3.0907    0.0000 C   0  0  0  0  0  0  0  0  0  0  0  0
   12.7619   -5.1888    0.0000 C   0  0  0  0  0  0  0  0  0  0  0  0
   12.7619   -3.4568    0.0000 C   0  0  0  0  0  0  0  0  0  0  0  0
    6.2619   -2.5907    0.0000 C   0  0  0  0  0  0  0  0  0  0  0  0
    9.7619   -3.4568    0.0000 C   0  0  0  0  0  0  0  0  0  0  0  0
    4.2815    4.1659    0.0000 C   0  0  0  0  0  0  0  0  0  0  0  0
    4.3211   -0.0912    0.0000 C   0  0  0  0  0  0  0  0  0  0  0  0
    4.6318    0.8594    0.0000 C   0  0  0  0  0  0  0  0  0  0  0  0
    2.8660   -1.5907    0.0000 C   0  0  0  0  0  0  0  0  0  0  0  0
    6.0278    2.2683    0.0000 C   0  0  0  0  0  0  0  0  0  0  0  0
    2.6968    3.4669    0.0000 C   0  0  0  0  0  0  0  0  0  0  0  0
    2.8660   -3.5907    0.0000 C   0  0  0  0  0  0  0  0  0  0  0  0
    8.2619   -2.5907    0.0000 C   0  0  0  0  0  0  0  0  0  0  0  0
    6.7619   -3.4568    0.0000 C   0  0  0  0  0  0  0  0  0  0  0  0
    6.7619   -1.7247    0.0000 C   0  0  0  0  0  0  0  0  0  0  0  0
   13.7619   -5.1888    0.0000 C   0  0  0  0  0  0  0  0  0  0  0  0
   13.7619   -3.4568    0.0000 C   0  0  0  0  0  0  0  0  0  0  0  0
    3.8780    5.0808    0.0000 C   0  0  0  0  0  0  0  0  0  0  0  0
    7.7619   -3.4568    0.0000 C   0  0  0  0  0  0  0  0  0  0  0  0
    7.7619   -1.7247    0.0000 C   0  0  0  0  0  0  0  0  0  0  0  0
    2.0000   -2.0907    0.0000 C   0  0  0  0  0  0  0  0  0  0  0  0
    2.0000   -3.0907    0.0000 C   0  0  0  0  0  0  0  0  0  0  0  0
    2.2932    4.3818    0.0000 C   0  0  0  0  0  0  0  0  0  0  0  0
    2.8838    5.1888    0.0000 C   0  0  0  0  0  0  0  0  0  0  0  0
    5.9198    1.2742    0.0000 C   0  0  0  0  0  0  0  0  0  0  0  0
    6.9427    2.6719    0.0000 C   0  0  0  0  0  0  0  0  0  0  0  0
    6.7268    0.6836    0.0000 C   0  0  0  0  0  0  0  0  0  0  0  0
    7.7497    2.0813    0.0000 C   0  0  0  0  0  0  0  0  0  0  0  0
    7.6417    1.0872    0.0000 C   0  0  0  0  0  0  0  0  0  0  0  0
    9.3636    0.9002    0.0000 C   0  0  0  0  0  0  0  0  0  0  0  0
   10.6793   -4.5348    0.0000 H   0  0  0  0  0  0  0  0  0  0  0  0
   11.3695   -4.9334    0.0000 H   0  0  0  0  0  0  0  0  0  0  0  0
   11.3445   -3.2447    0.0000 H   0  0  0  0  0  0  0  0  0  0  0  0
   10.6542   -2.8462    0.0000 H   0  0  0  0  0  0  0  0  0  0  0  0
    5.5359   -1.1275    0.0000 H   0  0  0  0  0  0  0  0  0  0  0  0
    5.3715   -0.3476    0.0000 H   0  0  0  0  0  0  0  0  0  0  0  0
    3.4170    1.8957    0.0000 H   0  0  0  0  0  0  0  0  0  0  0  0
    3.5814    1.1158    0.0000 H   0  0  0  0  0  0  0  0  0  0  0  0
   12.1793   -5.4008    0.0000 H   0  0  0  0  0  0  0  0  0  0  0  0
   12.8695   -5.7994    0.0000 H   0  0  0  0  0  0  0  0  0  0  0  0
   12.8695   -2.8462    0.0000 H   0  0  0  0  0  0  0  0  0  0  0  0
   12.1793   -3.2447    0.0000 H   0  0  0  0  0  0  0  0  0  0  0  0
    9.1793   -3.6688    0.0000 H   0  0  0  0  0  0  0  0  0  0  0  0
    9.8695   -4.0673    0.0000 H   0  0  0  0  0  0  0  0  0  0  0  0
    3.7144   -0.2190    0.0000 H   0  0  0  0  0  0  0  0  0  0  0  0
    5.2384    0.9872    0.0000 H   0  0  0  0  0  0  0  0  0  0  0  0
    2.8660   -0.9707    0.0000 H   0  0  0  0  0  0  0  0  0  0  0  0
    2.3306    2.9665    0.0000 H   0  0  0  0  0  0  0  0  0  0  0  0
    2.8660   -4.2107    0.0000 H   0  0  0  0  0  0  0  0  0  0  0  0
    6.4519   -3.9937    0.0000 H   0  0  0  0  0  0  0  0  0  0  0  0
    6.4519   -1.1878    0.0000 H   0  0  0  0  0  0  0  0  0  0  0  0
   13.7619   -5.8088    0.0000 H   0  0  0  0  0  0  0  0  0  0  0  0
   14.3819   -5.1888    0.0000 H   0  0  0  0  0  0  0  0  0  0  0  0
   13.7619   -4.5688    0.0000 H   0  0  0  0  0  0  0  0  0  0  0  0
   13.7619   -4.0768    0.0000 H   0  0  0  0  0  0  0  0  0  0  0  0
   14.3819   -3.4568    0.0000 H   0  0  0  0  0  0  0  0  0  0  0  0
   13.7619   -2.8368    0.0000 H   0  0  0  0  0  0  0  0  0  0  0  0
    4.2441    5.5812    0.0000 H   0  0  0  0  0  0  0  0  0  0  0  0
    8.0719   -3.9937    0.0000 H   0  0  0  0  0  0  0  0  0  0  0  0
    8.0719   -1.1878    0.0000 H   0  0  0  0  0  0  0  0  0  0  0  0
    1.4631   -1.7807    0.0000 H   0  0  0  0  0  0  0  0  0  0  0  0
    1.4631   -3.4007    0.0000 H   0  0  0  0  0  0  0  0  0  0  0  0
    1.6769    4.4488    0.0000 H   0  0  0  0  0  0  0  0  0  0  0  0
    2.6336    5.7561    0.0000 H   0  0  0  0  0  0  0  0  0  0  0  0
    5.3525    1.0240    0.0000 H   0  0  0  0  0  0  0  0  0  0  0  0
    7.0097    3.2883    0.0000 H   0  0  0  0  0  0  0  0  0  0  0  0
    6.6598    0.0672    0.0000 H   0  0  0  0  0  0  0  0  0  0  0  0
    8.3170    2.3315    0.0000 H   0  0  0  0  0  0  0  0  0  0  0  0
    9.6139    0.3329    0.0000 H   0  0  0  0  0  0  0  0  0  0  0  0
    9.9309    1.1504    0.0000 H   0  0  0  0  0  0  0  0  0  0  0  0
    9.1134    1.4674    0.0000 H   0  0  0  0  0  0  0  0  0  0  0  0
  1 20  1  0  0  0  0
  1 28  1  0  0  0  0
  2 44  1  0  0  0  0
  2 45  1  0  0  0  0
  3 10  1  0  0  0  0
  3 11  1  0  0  0  0
  3 12  1  0  0  0  0
  4  8  1  0  0  0  0
  4 17  1  0  0  0  0
  4 18  1  0  0  0  0
  5 13  1  0  0  0  0
  5 14  1  0  0  0  0
  5 15  1  0  0  0  0
  6 11  2  0  0  0  0
  6 16  1  0  0  0  0
  7 15  2  0  0  0  0
  7 21  1  0  0  0  0
  8  9  1  0  0  0  0
  8 46  1  0  0  0  0
  8 47  1  0  0  0  0
  9 20  1  0  0  0  0
  9 48  1  0  0  0  0
  9 49  1  0  0  0  0
 10 22  1  0  0  0  0
 10 50  1  0  0  0  0
 10 51  1  0  0  0  0
 11 19  1  0  0  0  0
 12 16  1  0  0  0  0
 12 24  2  0  0  0  0
 13 23  1  0  0  0  0
 13 52  1  0  0  0  0
 13 53  1  0  0  0  0
 14 21  1  0  0  0  0
 14 26  2  0  0  0  0
 15 25  1  0  0  0  0
 16 27  2  0  0  0  0
 17 31  1  0  0  0  0
 17 54  1  0  0  0  0
 17 55  1  0  0  0  0
 18 32  1  0  0  0  0
 18 56  1  0  0  0  0
 18 57  1  0  0  0  0
 19 29  2  0  0  0  0
 19 30  1  0  0  0  0
 20 58  1  0  0  0  0
 20 59  1  0  0  0  0
 21 33  2  0  0  0  0
 22 23  2  0  0  0  0
 22 60  1  0  0  0  0
 23 61  1  0  0  0  0
 24 36  1  0  0  0  0
 24 62  1  0  0  0  0
 25 40  2  0  0  0  0
 25 41  1  0  0  0  0
 26 38  1  0  0  0  0
 26 63  1  0  0  0  0
 27 37  1  0  0  0  0
 27 64  1  0  0  0  0
 28 34  2  0  0  0  0
 28 35  1  0  0  0  0
 29 34  1  0  0  0  0
 29 65  1  0  0  0  0
 30 35  2  0  0  0  0
 30 66  1  0  0  0  0
 31 67  1  0  0  0  0
 31 68  1  0  0  0  0
 31 69  1  0  0  0  0
 32 70  1  0  0  0  0
 32 71  1  0  0  0  0
 32 72  1  0  0  0  0
 33 39  1  0  0  0  0
 33 73  1  0  0  0  0
 34 74  1  0  0  0  0
 35 75  1  0  0  0  0
 36 37  2  0  0  0  0
 36 76  1  0  0  0  0
 37 77  1  0  0  0  0
 38 39  2  0  0  0  0
 38 78  1  0  0  0  0
 39 79  1  0  0  0  0
 40 42  1  0  0  0  0
 40 80  1  0  0  0  0
 41 43  2  0  0  0  0
 41 81  1  0  0  0  0
 42 44  2  0  0  0  0
 42 82  1  0  0  0  0
 43 44  1  0  0  0  0
 43 83  1  0  0  0  0
 45 84  1  0  0  0  0
 45 85  1  0  0  0  0
 45 86  1  0  0  0  0
M  END
> <PUBCHEM_COMPOUND_CID>
19938405

> <PUBCHEM_COMPOUND_CANONICALIZED>
1

> <PUBCHEM_CACTVS_COMPLEXITY>
883

> <PUBCHEM_CACTVS_HBOND_ACCEPTOR>
5

> <PUBCHEM_CACTVS_HBOND_DONOR>
0

> <PUBCHEM_CACTVS_ROTATABLE_BOND>
14

> <PUBCHEM_CACTVS_SUBSKEYS>
AAADcfB/sAAAAAAAAAAAAAAAAAAAAWLAAAAwYMGAAAAAAFgB/gAAHgAAAAAADAzhnwYz1rcMFACgAyZiZACCiC0hMqAJ2CA+fJiMbqLEuZuWOCjuwBPI6CeQ0AIOIAAAAAAAACBAAAAAAAAAQAAAAAAAAA==

> <PUBCHEM_IUPAC_OPENEYE_NAME>
N,N-diethyl-3-[4-[1-[(E)-4-[2-(4-methoxyphenyl)benzimidazol-1-yl]but-2-enyl]benzimidazol-2-yl]phenoxy]propan-1-amine

> <PUBCHEM_IUPAC_CAS_NAME>
N,N-diethyl-3-[4-[1-[(E)-4-[2-(4-methoxyphenyl)-1-benzimidazolyl]but-2-enyl]-2-benzimidazolyl]phenoxy]-1-propanamine

> <PUBCHEM_IUPAC_NAME_MARKUP>
<I>N</I>,<I>N</I>-diethyl-3-[4-[1-[(<I>E</I>)-4-[2-(4-methoxyphenyl)benzimidazol-1-yl]but-2-enyl]benzimidazol-2-yl]phenoxy]propan-1-amine

> <PUBCHEM_IUPAC_NAME>
N,N-diethyl-3-[4-[1-[(E)-4-[2-(4-methoxyphenyl)benzimidazol-1-yl]but-2-enyl]benzimidazol-2-yl]phenoxy]propan-1-amine

> <PUBCHEM_IUPAC_SYSTEMATIC_NAME>
N,N-diethyl-3-[4-[1-[(E)-4-[2-(4-methoxyphenyl)benzimidazol-1-yl]but-2-enyl]benzimidazol-2-yl]phenoxy]propan-1-amine

> <PUBCHEM_IUPAC_TRADITIONAL_NAME>
diethyl-[3-[4-[1-[(E)-4-[2-(4-methoxyphenyl)benzimidazol-1-yl]but-2-enyl]benzimidazol-2-yl]phenoxy]propyl]amine

> <PUBCHEM_IUPAC_INCHI>
InChI=1S/C38H41N5O2/c1-4-41(5-2)25-12-28-45-32-23-19-30(20-24-32)38-40-34-14-7-9-16-36(34)43(38)27-11-10-26-42-35-15-8-6-13-33(35)39-37(42)29-17-21-31(44-3)22-18-29/h6-11,13-24H,4-5,12,25-28H2,1-3H3/b11-10+

> <PUBCHEM_IUPAC_INCHIKEY>
DNKCJBSJSPBJID-ZHACJKMWSA-N

> <PUBCHEM_XLOGP3_AA>
7.6

> <PUBCHEM_EXACT_MASS>
599.32602557

> <PUBCHEM_MOLECULAR_FORMULA>
C38H41N5O2

> <PUBCHEM_MOLECULAR_WEIGHT>
599.8

> <PUBCHEM_OPENEYE_CAN_SMILES>
CCN(CC)CCCOC1=CC=C(C=C1)C2=NC3=CC=CC=C3N2CC=CCN4C5=CC=CC=C5N=C4C6=CC=C(C=C6)OC

> <PUBCHEM_OPENEYE_ISO_SMILES>
CCN(CC)CCCOC1=CC=C(C=C1)C2=NC3=CC=CC=C3N2C/C=C/CN4C5=CC=CC=C5N=C4C6=CC=C(C=C6)OC

> <PUBCHEM_CACTVS_TPSA>
57.3

> <PUBCHEM_MONOISOTOPIC_WEIGHT>
599.32602557

> <PUBCHEM_TOTAL_CHARGE>
0

> <PUBCHEM_HEAVY_ATOM_COUNT>
45

> <PUBCHEM_ATOM_DEF_STEREO_COUNT>
0

> <PUBCHEM_ATOM_UDEF_STEREO_COUNT>
0

> <PUBCHEM_BOND_DEF_STEREO_COUNT>
1

> <PUBCHEM_BOND_UDEF_STEREO_COUNT>
0

> <PUBCHEM_ISOTOPIC_ATOM_COUNT>
0

> <PUBCHEM_COMPONENT_COUNT>
1

> <PUBCHEM_CACTVS_TAUTO_COUNT>
-1

> <PUBCHEM_COORDINATE_TYPE>
1
5
255

> <PUBCHEM_BONDANNOTATIONS>
12  16  8
12  24  8
14  21  8
14  26  8
16  27  8
19  29  8
19  30  8
21  33  8
24  36  8
25  40  8
25  41  8
26  38  8
27  37  8
28  34  8
28  35  8
29  34  8
3  11  8
3  12  8
30  35  8
33  39  8
36  37  8
38  39  8
40  42  8
41  43  8
42  44  8
43  44  8
5  14  8
5  15  8
6  11  8
6  16  8
7  15  8
7  21  8

$$$$
