145988180
  -OEChem-09292322382D

 55 56  0     1  0  0  0  0  0999 V2000
    2.0799   -6.2658    0.0000 O   0  0  0  0  0  0  0  0  0  0  0  0
    3.3120   -1.7270    0.0000 N   0  0  3  0  0  0  0  0  0  0  0  0
    3.8120   -3.2658    0.0000 C   0  0  3  0  0  0  0  0  0  0  0  0
    3.0030   -2.6780    0.0000 C   0  0  0  0  0  0  0  0  0  0  0  0
    4.6210   -2.6780    0.0000 C   0  0  0  0  0  0  0  0  0  0  0  0
    4.3120   -1.7270    0.0000 C   0  0  0  0  0  0  0  0  0  0  0  0
    2.7242   -0.9180    0.0000 C   0  0  0  0  0  0  0  0  0  0  0  0
    3.1309   -0.0044    0.0000 C   0  0  0  0  0  0  0  0  0  0  0  0
    3.8120   -4.2658    0.0000 C   0  0  0  0  0  0  0  0  0  0  0  0
    2.5431    0.8046    0.0000 C   0  0  0  0  0  0  0  0  0  0  0  0
    2.9499    1.7181    0.0000 C   0  0  0  0  0  0  0  0  0  0  0  0
    2.3621    2.5272    0.0000 C   0  0  0  0  0  0  0  0  0  0  0  0
    2.9460   -4.7658    0.0000 C   0  0  0  0  0  0  0  0  0  0  0  0
    4.6780   -4.7658    0.0000 C   0  0  0  0  0  0  0  0  0  0  0  0
    2.7688    3.4407    0.0000 C   0  0  0  0  0  0  0  0  0  0  0  0
    2.1810    4.2497    0.0000 C   0  0  0  0  0  0  0  0  0  0  0  0
    2.9460   -5.7658    0.0000 C   0  0  0  0  0  0  0  0  0  0  0  0
    4.6780   -5.7658    0.0000 C   0  0  0  0  0  0  0  0  0  0  0  0
    2.5878    5.1633    0.0000 C   0  0  0  0  0  0  0  0  0  0  0  0
    3.8120   -6.2658    0.0000 C   0  0  0  0  0  0  0  0  0  0  0  0
    2.0000    5.9723    0.0000 C   0  0  0  0  0  0  0  0  0  0  0  0
    2.4067    6.8858    0.0000 C   0  0  0  0  0  0  0  0  0  0  0  0
    4.3644   -3.5473    0.0000 H   0  0  0  0  0  0  0  0  0  0  0  0
    2.4366   -2.4259    0.0000 H   0  0  0  0  0  0  0  0  0  0  0  0
    2.6930   -3.2150    0.0000 H   0  0  0  0  0  0  0  0  0  0  0  0
    4.9310   -3.2150    0.0000 H   0  0  0  0  0  0  0  0  0  0  0  0
    5.1874   -2.4259    0.0000 H   0  0  0  0  0  0  0  0  0  0  0  0
    4.9184   -1.5981    0.0000 H   0  0  0  0  0  0  0  0  0  0  0  0
    4.2472   -1.1104    0.0000 H   0  0  0  0  0  0  0  0  0  0  0  0
    2.2102   -0.5713    0.0000 H   0  0  0  0  0  0  0  0  0  0  0  0
    2.2935   -1.3640    0.0000 H   0  0  0  0  0  0  0  0  0  0  0  0
    3.6449   -0.3511    0.0000 H   0  0  0  0  0  0  0  0  0  0  0  0
    3.5616    0.4416    0.0000 H   0  0  0  0  0  0  0  0  0  0  0  0
    2.0291    1.1513    0.0000 H   0  0  0  0  0  0  0  0  0  0  0  0
    2.1125    0.3586    0.0000 H   0  0  0  0  0  0  0  0  0  0  0  0
    3.4639    1.3714    0.0000 H   0  0  0  0  0  0  0  0  0  0  0  0
    3.3806    2.1641    0.0000 H   0  0  0  0  0  0  0  0  0  0  0  0
    1.8481    2.8739    0.0000 H   0  0  0  0  0  0  0  0  0  0  0  0
    1.9314    2.0812    0.0000 H   0  0  0  0  0  0  0  0  0  0  0  0
    2.4090   -4.4558    0.0000 H   0  0  0  0  0  0  0  0  0  0  0  0
    5.2149   -4.4558    0.0000 H   0  0  0  0  0  0  0  0  0  0  0  0
    3.2828    3.0940    0.0000 H   0  0  0  0  0  0  0  0  0  0  0  0
    3.1995    3.8867    0.0000 H   0  0  0  0  0  0  0  0  0  0  0  0
    1.6670    4.5964    0.0000 H   0  0  0  0  0  0  0  0  0  0  0  0
    1.7504    3.8037    0.0000 H   0  0  0  0  0  0  0  0  0  0  0  0
    3.1018    4.8166    0.0000 H   0  0  0  0  0  0  0  0  0  0  0  0
    3.0185    5.6093    0.0000 H   0  0  0  0  0  0  0  0  0  0  0  0
    5.2149   -6.0758    0.0000 H   0  0  0  0  0  0  0  0  0  0  0  0
    3.8120   -6.8858    0.0000 H   0  0  0  0  0  0  0  0  0  0  0  0
    1.4860    6.3190    0.0000 H   0  0  0  0  0  0  0  0  0  0  0  0
    1.5693    5.5263    0.0000 H   0  0  0  0  0  0  0  0  0  0  0  0
    2.9731    6.6336    0.0000 H   0  0  0  0  0  0  0  0  0  0  0  0
    2.6589    7.4522    0.0000 H   0  0  0  0  0  0  0  0  0  0  0  0
    1.8403    7.1380    0.0000 H   0  0  0  0  0  0  0  0  0  0  0  0
    2.0799   -6.8858    0.0000 H   0  0  0  0  0  0  0  0  0  0  0  0
  1 17  1  0  0  0  0
  1 55  1  0  0  0  0
  2  4  1  0  0  0  0
  2  6  1  0  0  0  0
  2  7  1  0  0  0  0
  3  4  1  0  0  0  0
  3  5  1  0  0  0  0
  3  9  1  0  0  0  0
  3 23  1  0  0  0  0
  4 24  1  0  0  0  0
  4 25  1  0  0  0  0
  5  6  1  0  0  0  0
  5 26  1  0  0  0  0
  5 27  1  0  0  0  0
  6 28  1  0  0  0  0
  6 29  1  0  0  0  0
  7  8  1  0  0  0  0
  7 30  1  0  0  0  0
  7 31  1  0  0  0  0
  8 10  1  0  0  0  0
  8 32  1  0  0  0  0
  8 33  1  0  0  0  0
  9 13  2  0  0  0  0
  9 14  1  0  0  0  0
 10 11  1  0  0  0  0
 10 34  1  0  0  0  0
 10 35  1  0  0  0  0
 11 12  1  0  0  0  0
 11 36  1  0  0  0  0
 11 37  1  0  0  0  0
 12 15  1  0  0  0  0
 12 38  1  0  0  0  0
 12 39  1  0  0  0  0
 13 17  1  0  0  0  0
 13 40  1  0  0  0  0
 14 18  2  0  0  0  0
 14 41  1  0  0  0  0
 15 16  1  0  0  0  0
 15 42  1  0  0  0  0
 15 43  1  0  0  0  0
 16 19  1  0  0  0  0
 16 44  1  0  0  0  0
 16 45  1  0  0  0  0
 17 20  2  0  0  0  0
 18 20  1  0  0  0  0
 18 48  1  0  0  0  0
 19 21  1  0  0  0  0
 19 46  1  0  0  0  0
 19 47  1  0  0  0  0
 20 49  1  0  0  0  0
 21 22  1  0  0  0  0
 21 50  1  0  0  0  0
 21 51  1  0  0  0  0
 22 52  1  0  0  0  0
 22 53  1  0  0  0  0
 22 54  1  0  0  0  0
M  END
> <PUBCHEM_COMPOUND_CID>
145988180

> <PUBCHEM_COMPOUND_CANONICALIZED>
1

> <PUBCHEM_CACTVS_COMPLEXITY>
281

> <PUBCHEM_CACTVS_HBOND_ACCEPTOR>
2

> <PUBCHEM_CACTVS_HBOND_DONOR>
1

> <PUBCHEM_CACTVS_ROTATABLE_BOND>
10

> <PUBCHEM_CACTVS_SUBSKEYS>
AAADcfB6IAAAAAAAAAAAAAAAAAAAAWAAAAAwAAAAAAAAAAABAAAAHgAACAAADQTBmAQyBoMAAgCAAiBCAAACAAAgIAAIiAAOCIgIJiKCkROEcAAkwBGImAeQ0PIOgAABAAAAAAAAAAIAAAAAAAAAAAAAAA==

> <PUBCHEM_IUPAC_OPENEYE_NAME>
3-(1-decylpyrrolidin-3-yl)phenol

> <PUBCHEM_IUPAC_CAS_NAME>
3-(1-decyl-3-pyrrolidinyl)phenol

> <PUBCHEM_IUPAC_NAME_MARKUP>
3-(1-decylpyrrolidin-3-yl)phenol

> <PUBCHEM_IUPAC_NAME>
3-(1-decylpyrrolidin-3-yl)phenol

> <PUBCHEM_IUPAC_SYSTEMATIC_NAME>
3-(1-decylpyrrolidin-3-yl)phenol

> <PUBCHEM_IUPAC_TRADITIONAL_NAME>
3-(1-decylpyrrolidin-3-yl)phenol

> <PUBCHEM_IUPAC_INCHI>
InChI=1S/C20H33NO/c1-2-3-4-5-6-7-8-9-14-21-15-13-19(17-21)18-11-10-12-20(22)16-18/h10-12,16,19,22H,2-9,13-15,17H2,1H3

> <PUBCHEM_IUPAC_INCHIKEY>
FBOQGLSPTCBDLZ-UHFFFAOYSA-N

> <PUBCHEM_XLOGP3_AA>
6.3

> <PUBCHEM_EXACT_MASS>
303.256214676

> <PUBCHEM_MOLECULAR_FORMULA>
C20H33NO

> <PUBCHEM_MOLECULAR_WEIGHT>
303.5

> <PUBCHEM_OPENEYE_CAN_SMILES>
CCCCCCCCCCN1CCC(C1)C2=CC(=CC=C2)O

> <PUBCHEM_OPENEYE_ISO_SMILES>
CCCCCCCCCCN1CCC(C1)C2=CC(=CC=C2)O

> <PUBCHEM_CACTVS_TPSA>
23.5

> <PUBCHEM_MONOISOTOPIC_WEIGHT>
303.256214676

> <PUBCHEM_TOTAL_CHARGE>
0

> <PUBCHEM_HEAVY_ATOM_COUNT>
22

> <PUBCHEM_ATOM_DEF_STEREO_COUNT>
0

> <PUBCHEM_ATOM_UDEF_STEREO_COUNT>
1

> <PUBCHEM_BOND_DEF_STEREO_COUNT>
0

> <PUBCHEM_BOND_UDEF_STEREO_COUNT>
0

> <PUBCHEM_ISOTOPIC_ATOM_COUNT>
0

> <PUBCHEM_COMPONENT_COUNT>
1

> <PUBCHEM_CACTVS_TAUTO_COUNT>
-1

> <PUBCHEM_COORDINATE_TYPE>
1
5
255

> <PUBCHEM_BONDANNOTATIONS>
13  17  8
14  18  8
17  20  8
18  20  8
3  9  3
9  13  8
9  14  8

$$$$
