126534122
  -OEChem-09292322442D

 64 68  0     1  0  0  0  0  0999 V2000
    9.0771    2.2926    0.0000 S   0  0  0  0  0  0  0  0  0  0  0  0
    3.5962   -0.2485    0.0000 N   0  0  3  0  0  0  0  0  0  0  0  0
    6.0771    0.5606    0.0000 N   0  0  3  0  0  0  0  0  0  0  0  0
    3.6473   -2.8937    0.0000 N   0  0  0  0  0  0  0  0  0  0  0  0
   10.6649    1.4836    0.0000 N   0  0  0  0  0  0  0  0  0  0  0  0
   11.6159    2.7926    0.0000 N   0  0  0  0  0  0  0  0  0  0  0  0
   10.6649    3.1016    0.0000 N   0  0  0  0  0  0  0  0  0  0  0  0
    4.5472    1.0606    0.0000 C   0  0  3  0  0  0  0  0  0  0  0  0
    4.5472    0.0606    0.0000 C   0  0  3  0  0  0  0  0  0  0  0  0
    5.4935    1.3653    0.0000 C   0  0  0  0  0  0  0  0  0  0  0  0
    3.5962    1.3696    0.0000 C   0  0  0  0  0  0  0  0  0  0  0  0
    5.4935   -0.2442    0.0000 C   0  0  0  0  0  0  0  0  0  0  0  0
    3.0084    0.5606    0.0000 C   0  0  0  0  0  0  0  0  0  0  0  0
    7.0771    0.5606    0.0000 C   0  0  0  0  0  0  0  0  0  0  0  0
    3.2872   -1.1995    0.0000 C   0  0  0  0  0  0  0  0  0  0  0  0
    7.5771    1.4266    0.0000 C   0  0  0  0  0  0  0  0  0  0  0  0
    2.3090   -1.4074    0.0000 C   0  0  0  0  0  0  0  0  0  0  0  0
    3.9563   -1.9427    0.0000 C   0  0  0  0  0  0  0  0  0  0  0  0
    8.5771    1.4266    0.0000 C   0  0  0  0  0  0  0  0  0  0  0  0
   12.4249    1.2048    0.0000 C   0  0  0  0  0  0  0  0  0  0  0  0
   13.3385    1.6116    0.0000 C   0  0  0  0  0  0  0  0  0  0  0  0
   12.3204    0.2103    0.0000 C   0  0  0  0  0  0  0  0  0  0  0  0
   14.1475    1.0238    0.0000 C   0  0  0  0  0  0  0  0  0  0  0  0
   13.1294   -0.3775    0.0000 C   0  0  0  0  0  0  0  0  0  0  0  0
   14.0430    0.0293    0.0000 C   0  0  0  0  0  0  0  0  0  0  0  0
   11.6159    1.7926    0.0000 C   0  0  0  0  0  0  0  0  0  0  0  0
    2.0000   -2.3585    0.0000 C   0  0  0  0  0  0  0  0  0  0  0  0
   10.0771    2.2926    0.0000 C   0  0  0  0  0  0  0  0  0  0  0  0
    2.6691   -3.1016    0.0000 C   0  0  0  0  0  0  0  0  0  0  0  0
   10.3558    0.5325    0.0000 C   0  0  0  0  0  0  0  0  0  0  0  0
    4.5480    1.6806    0.0000 H   0  0  0  0  0  0  0  0  0  0  0  0
    4.5480   -0.5594    0.0000 H   0  0  0  0  0  0  0  0  0  0  0  0
    6.0308    1.6745    0.0000 H   0  0  0  0  0  0  0  0  0  0  0  0
    5.2424    1.9322    0.0000 H   0  0  0  0  0  0  0  0  0  0  0  0
    3.8484    1.9360    0.0000 H   0  0  0  0  0  0  0  0  0  0  0  0
    3.0592    1.6796    0.0000 H   0  0  0  0  0  0  0  0  0  0  0  0
    5.2424   -0.8111    0.0000 H   0  0  0  0  0  0  0  0  0  0  0  0
    6.0308   -0.5534    0.0000 H   0  0  0  0  0  0  0  0  0  0  0  0
    2.5476    0.9754    0.0000 H   0  0  0  0  0  0  0  0  0  0  0  0
    2.5476    0.1457    0.0000 H   0  0  0  0  0  0  0  0  0  0  0  0
    6.9694   -0.0500    0.0000 H   0  0  0  0  0  0  0  0  0  0  0  0
    7.6597    0.3485    0.0000 H   0  0  0  0  0  0  0  0  0  0  0  0
    7.6847    2.0372    0.0000 H   0  0  0  0  0  0  0  0  0  0  0  0
    6.9945    1.6386    0.0000 H   0  0  0  0  0  0  0  0  0  0  0  0
    1.8942   -0.9467    0.0000 H   0  0  0  0  0  0  0  0  0  0  0  0
    4.5628   -1.8138    0.0000 H   0  0  0  0  0  0  0  0  0  0  0  0
    8.4694    0.8160    0.0000 H   0  0  0  0  0  0  0  0  0  0  0  0
    9.1597    1.2145    0.0000 H   0  0  0  0  0  0  0  0  0  0  0  0
   12.4897    1.8214    0.0000 H   0  0  0  0  0  0  0  0  0  0  0  0
   13.7845    2.0422    0.0000 H   0  0  0  0  0  0  0  0  0  0  0  0
   12.9918    2.1256    0.0000 H   0  0  0  0  0  0  0  0  0  0  0  0
   11.7244    0.3812    0.0000 H   0  0  0  0  0  0  0  0  0  0  0  0
   12.0486   -0.3469    0.0000 H   0  0  0  0  0  0  0  0  0  0  0  0
   14.7435    0.8529    0.0000 H   0  0  0  0  0  0  0  0  0  0  0  0
   14.4193    1.5810    0.0000 H   0  0  0  0  0  0  0  0  0  0  0  0
   12.6834   -0.8082    0.0000 H   0  0  0  0  0  0  0  0  0  0  0  0
   13.4761   -0.8915    0.0000 H   0  0  0  0  0  0  0  0  0  0  0  0
   14.1930   -0.5723    0.0000 H   0  0  0  0  0  0  0  0  0  0  0  0
   14.6614    0.0725    0.0000 H   0  0  0  0  0  0  0  0  0  0  0  0
    1.3936   -2.4874    0.0000 H   0  0  0  0  0  0  0  0  0  0  0  0
    2.4775   -3.6913    0.0000 H   0  0  0  0  0  0  0  0  0  0  0  0
    9.7662    0.7241    0.0000 H   0  0  0  0  0  0  0  0  0  0  0  0
   10.1642   -0.0571    0.0000 H   0  0  0  0  0  0  0  0  0  0  0  0
   10.9455    0.3409    0.0000 H   0  0  0  0  0  0  0  0  0  0  0  0
  1 19  1  0  0  0  0
  1 28  1  0  0  0  0
  2  9  1  0  0  0  0
  2 13  1  0  0  0  0
  2 15  1  0  0  0  0
  3 10  1  0  0  0  0
  3 12  1  0  0  0  0
  3 14  1  0  0  0  0
  4 18  1  0  0  0  0
  4 29  2  0  0  0  0
  5 26  1  0  0  0  0
  5 28  1  0  0  0  0
  5 30  1  0  0  0  0
  6  7  1  0  0  0  0
  6 26  2  0  0  0  0
  7 28  2  0  0  0  0
  8  9  1  0  0  0  0
  8 10  1  0  0  0  0
  8 11  1  0  0  0  0
  8 31  1  0  0  0  0
  9 12  1  0  0  0  0
  9 32  1  0  0  0  0
 10 33  1  0  0  0  0
 10 34  1  0  0  0  0
 11 13  1  0  0  0  0
 11 35  1  0  0  0  0
 11 36  1  0  0  0  0
 12 37  1  0  0  0  0
 12 38  1  0  0  0  0
 13 39  1  0  0  0  0
 13 40  1  0  0  0  0
 14 16  1  0  0  0  0
 14 41  1  0  0  0  0
 14 42  1  0  0  0  0
 15 17  1  0  0  0  0
 15 18  2  0  0  0  0
 16 19  1  0  0  0  0
 16 43  1  0  0  0  0
 16 44  1  0  0  0  0
 17 27  2  0  0  0  0
 17 45  1  0  0  0  0
 18 46  1  0  0  0  0
 19 47  1  0  0  0  0
 19 48  1  0  0  0  0
 20 21  1  0  0  0  0
 20 22  1  0  0  0  0
 20 26  1  0  0  0  0
 20 49  1  0  0  0  0
 21 23  1  0  0  0  0
 21 50  1  0  0  0  0
 21 51  1  0  0  0  0
 22 24  1  0  0  0  0
 22 52  1  0  0  0  0
 22 53  1  0  0  0  0
 23 25  1  0  0  0  0
 23 54  1  0  0  0  0
 23 55  1  0  0  0  0
 24 25  1  0  0  0  0
 24 56  1  0  0  0  0
 24 57  1  0  0  0  0
 25 58  1  0  0  0  0
 25 59  1  0  0  0  0
 27 29  1  0  0  0  0
 27 60  1  0  0  0  0
 29 61  1  0  0  0  0
 30 62  1  0  0  0  0
 30 63  1  0  0  0  0
 30 64  1  0  0  0  0
M  END
> <PUBCHEM_COMPOUND_CID>
126534122

> <PUBCHEM_COMPOUND_CANONICALIZED>
1

> <PUBCHEM_CACTVS_COMPLEXITY>
544

> <PUBCHEM_CACTVS_HBOND_ACCEPTOR>
6

> <PUBCHEM_CACTVS_HBOND_DONOR>
0

> <PUBCHEM_CACTVS_ROTATABLE_BOND>
7

> <PUBCHEM_CACTVS_SUBSKEYS>
AAADcfB7gABAAAAAAAAAAAAAAAAAAWLFgAA8QAAAAAAWAAAB4AAAHAQIAAAADSjFUwS/0JcMEAiiADZnZACS0CtxErAd2CA4dJiIaOLg2ZGUIAhgiALIyAcQgAAOAAAAAAAAAAAAAAAAAAAAAAAAAAAAAA==

> <PUBCHEM_IUPAC_OPENEYE_NAME>
5-[3-[(5-cyclohexyl-4-methyl-1,2,4-triazol-3-yl)sulfanyl]propyl]-1-(3-pyridyl)-2,3,3a,4,6,6a-hexahydropyrrolo[2,3-c]pyrrole

> <PUBCHEM_IUPAC_CAS_NAME>
5-[3-[(5-cyclohexyl-4-methyl-1,2,4-triazol-3-yl)thio]propyl]-1-(3-pyridinyl)-2,3,3a,4,6,6a-hexahydropyrrolo[2,3-c]pyrrole

> <PUBCHEM_IUPAC_NAME_MARKUP>
5-[3-[(5-cyclohexyl-4-methyl-1,2,4-triazol-3-yl)sulfanyl]propyl]-1-pyridin-3-yl-2,3,3<I>a</I>,4,6,6<I>a</I>-hexahydropyrrolo[2,3-c]pyrrole

> <PUBCHEM_IUPAC_NAME>
5-[3-[(5-cyclohexyl-4-methyl-1,2,4-triazol-3-yl)sulfanyl]propyl]-1-pyridin-3-yl-2,3,3a,4,6,6a-hexahydropyrrolo[2,3-c]pyrrole

> <PUBCHEM_IUPAC_SYSTEMATIC_NAME>
5-[3-[(5-cyclohexyl-4-methyl-1,2,4-triazol-3-yl)sulfanyl]propyl]-1-pyridin-3-yl-2,3,3a,4,6,6a-hexahydropyrrolo[2,3-c]pyrrole

> <PUBCHEM_IUPAC_TRADITIONAL_NAME>
5-[3-[(5-cyclohexyl-4-methyl-1,2,4-triazol-3-yl)thio]propyl]-1-(3-pyridyl)-2,3,3a,4,6,6a-hexahydropyrrolo[2,3-c]pyrrole

> <PUBCHEM_IUPAC_INCHI>
InChI=1S/C23H34N6S/c1-27-22(18-7-3-2-4-8-18)25-26-23(27)30-14-6-12-28-16-19-10-13-29(21(19)17-28)20-9-5-11-24-15-20/h5,9,11,15,18-19,21H,2-4,6-8,10,12-14,16-17H2,1H3

> <PUBCHEM_IUPAC_INCHIKEY>
RJNNVSGDFJTERT-UHFFFAOYSA-N

> <PUBCHEM_XLOGP3_AA>
3.8

> <PUBCHEM_EXACT_MASS>
426.25656628

> <PUBCHEM_MOLECULAR_FORMULA>
C23H34N6S

> <PUBCHEM_MOLECULAR_WEIGHT>
426.6

> <PUBCHEM_OPENEYE_CAN_SMILES>
CN1C(=NN=C1SCCCN2CC3CCN(C3C2)C4=CN=CC=C4)C5CCCCC5

> <PUBCHEM_OPENEYE_ISO_SMILES>
CN1C(=NN=C1SCCCN2CC3CCN(C3C2)C4=CN=CC=C4)C5CCCCC5

> <PUBCHEM_CACTVS_TPSA>
75.4

> <PUBCHEM_MONOISOTOPIC_WEIGHT>
426.25656628

> <PUBCHEM_TOTAL_CHARGE>
0

> <PUBCHEM_HEAVY_ATOM_COUNT>
30

> <PUBCHEM_ATOM_DEF_STEREO_COUNT>
0

> <PUBCHEM_ATOM_UDEF_STEREO_COUNT>
2

> <PUBCHEM_BOND_DEF_STEREO_COUNT>
0

> <PUBCHEM_BOND_UDEF_STEREO_COUNT>
0

> <PUBCHEM_ISOTOPIC_ATOM_COUNT>
0

> <PUBCHEM_COMPONENT_COUNT>
1

> <PUBCHEM_CACTVS_TAUTO_COUNT>
-1

> <PUBCHEM_COORDINATE_TYPE>
1
5
255

> <PUBCHEM_BONDANNOTATIONS>
15  17  8
15  18  8
17  27  8
27  29  8
4  18  8
4  29  8
5  26  8
5  28  8
6  26  8
6  7  8
7  28  8
8  11  3
9  12  3

$$$$
