138670319
  -OEChem-09292322452D

 68 71  0     1  0  0  0  0  0999 V2000
    3.1215    1.6276    0.0000 S   0  0  0  0  0  0  0  0  0  0  0  0
   19.0707   -1.6091    0.0000 F   0  0  0  0  0  0  0  0  0  0  0  0
   18.1989   -3.1058    0.0000 F   0  0  0  0  0  0  0  0  0  0  0  0
    6.1160    1.5231    0.0000 O   0  0  0  0  0  0  0  0  0  0  0  0
   16.4707   -2.0991    0.0000 O   0  0  0  0  0  0  0  0  0  0  0  0
   11.6160   -1.0750    0.0000 N   0  0  3  0  0  0  0  0  0  0  0  0
    6.1160   -0.2089    0.0000 N   0  0  0  0  0  0  0  0  0  0  0  0
   14.7006   -2.1096    0.0000 N   0  0  0  0  0  0  0  0  0  0  0  0
    3.7796    3.1058    0.0000 N   0  0  0  0  0  0  0  0  0  0  0  0
    9.1160   -0.2089    0.0000 C   0  0  0  0  0  0  0  0  0  0  0  0
    8.6160   -1.0750    0.0000 C   0  0  0  0  0  0  0  0  0  0  0  0
    8.6160    0.6571    0.0000 C   0  0  0  0  0  0  0  0  0  0  0  0
    7.1160   -0.2089    0.0000 C   0  0  0  0  0  0  0  0  0  0  0  0
    7.6160   -1.0750    0.0000 C   0  0  0  0  0  0  0  0  0  0  0  0
    7.6160    0.6571    0.0000 C   0  0  0  0  0  0  0  0  0  0  0  0
   10.1160   -0.2089    0.0000 C   0  0  0  0  0  0  0  0  0  0  0  0
   10.6160   -1.0750    0.0000 C   0  0  0  0  0  0  0  0  0  0  0  0
   12.0499   -0.1740    0.0000 C   0  0  0  0  0  0  0  0  0  0  0  0
   12.0499   -1.9759    0.0000 C   0  0  0  0  0  0  0  0  0  0  0  0
   13.0248    0.0485    0.0000 C   0  0  0  0  0  0  0  0  0  0  0  0
   13.0248   -2.1985    0.0000 C   0  0  0  0  0  0  0  0  0  0  0  0
    5.6160    0.6571    0.0000 C   0  0  0  0  0  0  0  0  0  0  0  0
   13.8066   -0.5750    0.0000 C   0  0  0  0  0  0  0  0  0  0  0  0
   13.8066   -1.5750    0.0000 C   0  0  0  0  0  0  0  0  0  0  0  0
    4.6160    0.6571    0.0000 C   0  0  0  0  0  0  0  0  0  0  0  0
   14.7006   -0.0403    0.0000 C   0  0  0  0  0  0  0  0  0  0  0  0
   15.6066   -0.5542    0.0000 C   0  0  0  0  0  0  0  0  0  0  0  0
    4.1160    1.5231    0.0000 C   0  0  0  0  0  0  0  0  0  0  0  0
   15.6066   -1.5958    0.0000 C   0  0  0  0  0  0  0  0  0  0  0  0
    4.5227    2.4367    0.0000 C   0  0  0  0  0  0  0  0  0  0  0  0
    2.9136    2.6058    0.0000 C   0  0  0  0  0  0  0  0  0  0  0  0
   17.3387   -1.6025    0.0000 C   0  0  0  0  0  0  0  0  0  0  0  0
    2.0000    3.0125    0.0000 C   0  0  0  0  0  0  0  0  0  0  0  0
   18.2028   -2.1058    0.0000 C   0  0  0  0  0  0  0  0  0  0  0  0
    9.4260   -0.7459    0.0000 H   0  0  0  0  0  0  0  0  0  0  0  0
    8.5083   -1.6856    0.0000 H   0  0  0  0  0  0  0  0  0  0  0  0
    9.1986   -1.2870    0.0000 H   0  0  0  0  0  0  0  0  0  0  0  0
    9.1986    0.8691    0.0000 H   0  0  0  0  0  0  0  0  0  0  0  0
    8.5083    1.2677    0.0000 H   0  0  0  0  0  0  0  0  0  0  0  0
    6.8060   -0.7459    0.0000 H   0  0  0  0  0  0  0  0  0  0  0  0
    7.0334   -1.2870    0.0000 H   0  0  0  0  0  0  0  0  0  0  0  0
    7.7236   -1.6856    0.0000 H   0  0  0  0  0  0  0  0  0  0  0  0
    7.7236    1.2677    0.0000 H   0  0  0  0  0  0  0  0  0  0  0  0
    7.0334    0.8691    0.0000 H   0  0  0  0  0  0  0  0  0  0  0  0
   10.6986    0.0031    0.0000 H   0  0  0  0  0  0  0  0  0  0  0  0
   10.0083    0.4016    0.0000 H   0  0  0  0  0  0  0  0  0  0  0  0
   10.0334   -1.2870    0.0000 H   0  0  0  0  0  0  0  0  0  0  0  0
   10.7236   -1.6856    0.0000 H   0  0  0  0  0  0  0  0  0  0  0  0
    5.8060   -0.7459    0.0000 H   0  0  0  0  0  0  0  0  0  0  0  0
   12.0499    0.4460    0.0000 H   0  0  0  0  0  0  0  0  0  0  0  0
   11.4454   -0.0360    0.0000 H   0  0  0  0  0  0  0  0  0  0  0  0
   11.4454   -2.1139    0.0000 H   0  0  0  0  0  0  0  0  0  0  0  0
   12.0499   -2.5959    0.0000 H   0  0  0  0  0  0  0  0  0  0  0  0
   13.5095    0.4351    0.0000 H   0  0  0  0  0  0  0  0  0  0  0  0
   12.7558    0.6071    0.0000 H   0  0  0  0  0  0  0  0  0  0  0  0
   12.7558   -2.7571    0.0000 H   0  0  0  0  0  0  0  0  0  0  0  0
   13.5095   -2.5850    0.0000 H   0  0  0  0  0  0  0  0  0  0  0  0
    4.0334    0.4450    0.0000 H   0  0  0  0  0  0  0  0  0  0  0  0
    4.7236    0.0465    0.0000 H   0  0  0  0  0  0  0  0  0  0  0  0
   14.6934    0.5797    0.0000 H   0  0  0  0  0  0  0  0  0  0  0  0
   16.1424   -0.2421    0.0000 H   0  0  0  0  0  0  0  0  0  0  0  0
    5.1292    2.5656    0.0000 H   0  0  0  0  0  0  0  0  0  0  0  0
   17.7390   -1.1291    0.0000 H   0  0  0  0  0  0  0  0  0  0  0  0
   16.9420   -1.1260    0.0000 H   0  0  0  0  0  0  0  0  0  0  0  0
    2.2522    3.5789    0.0000 H   0  0  0  0  0  0  0  0  0  0  0  0
    1.4336    3.2647    0.0000 H   0  0  0  0  0  0  0  0  0  0  0  0
    1.7478    2.4461    0.0000 H   0  0  0  0  0  0  0  0  0  0  0  0
   18.2052   -1.4858    0.0000 H   0  0  0  0  0  0  0  0  0  0  0  0
  1 28  1  0  0  0  0
  1 31  1  0  0  0  0
  2 34  1  0  0  0  0
  3 34  1  0  0  0  0
  4 22  2  0  0  0  0
  5 29  1  0  0  0  0
  5 32  1  0  0  0  0
  6 17  1  0  0  0  0
  6 18  1  0  0  0  0
  6 19  1  0  0  0  0
  7 13  1  0  0  0  0
  7 22  1  0  0  0  0
  7 49  1  0  0  0  0
  8 24  1  0  0  0  0
  8 29  2  0  0  0  0
  9 30  1  0  0  0  0
  9 31  2  0  0  0  0
 10 11  1  0  0  0  0
 10 12  1  0  0  0  0
 10 16  1  0  0  0  0
 10 35  1  0  0  0  0
 11 14  1  0  0  0  0
 11 36  1  0  0  0  0
 11 37  1  0  0  0  0
 12 15  1  0  0  0  0
 12 38  1  0  0  0  0
 12 39  1  0  0  0  0
 13 14  1  0  0  0  0
 13 15  1  0  0  0  0
 13 40  1  0  0  0  0
 14 41  1  0  0  0  0
 14 42  1  0  0  0  0
 15 43  1  0  0  0  0
 15 44  1  0  0  0  0
 16 17  1  0  0  0  0
 16 45  1  0  0  0  0
 16 46  1  0  0  0  0
 17 47  1  0  0  0  0
 17 48  1  0  0  0  0
 18 20  1  0  0  0  0
 18 50  1  0  0  0  0
 18 51  1  0  0  0  0
 19 21  1  0  0  0  0
 19 52  1  0  0  0  0
 19 53  1  0  0  0  0
 20 23  1  0  0  0  0
 20 54  1  0  0  0  0
 20 55  1  0  0  0  0
 21 24  1  0  0  0  0
 21 56  1  0  0  0  0
 21 57  1  0  0  0  0
 22 25  1  0  0  0  0
 23 24  2  0  0  0  0
 23 26  1  0  0  0  0
 25 28  1  0  0  0  0
 25 58  1  0  0  0  0
 25 59  1  0  0  0  0
 26 27  2  0  0  0  0
 26 60  1  0  0  0  0
 27 29  1  0  0  0  0
 27 61  1  0  0  0  0
 28 30  2  0  0  0  0
 30 62  1  0  0  0  0
 31 33  1  0  0  0  0
 32 34  1  0  0  0  0
 32 63  1  0  0  0  0
 32 64  1  0  0  0  0
 33 65  1  0  0  0  0
 33 66  1  0  0  0  0
 33 67  1  0  0  0  0
 34 68  1  0  0  0  0
M  END
> <PUBCHEM_COMPOUND_CID>
138670319

> <PUBCHEM_COMPOUND_CANONICALIZED>
1

> <PUBCHEM_CACTVS_COMPLEXITY>
638

> <PUBCHEM_CACTVS_HBOND_ACCEPTOR>
8

> <PUBCHEM_CACTVS_HBOND_DONOR>
1

> <PUBCHEM_CACTVS_ROTATABLE_BOND>
9

> <PUBCHEM_CACTVS_SUBSKEYS>
AAADcfB7sYBAAAAAAAAAAAAAAAAAAWAAAAA8QAAABYAAAAAB4AAAHwQQAAAADSjh3hY+hZPIFAisAzV3VACC+KBxKjhI2K0+bJgMJvLk9ZuOOCjk1hHo6AeU0KEOAAAAAAAAAAAQAAAAAAAAAAAAAAAAAA==

> <PUBCHEM_IUPAC_OPENEYE_NAME>
N-[4-[2-[2-(2,2-difluoroethoxy)-5,6,8,9-tetrahydropyrido[2,3-d]azepin-7-yl]ethyl]cyclohexyl]-2-(2-methylthiazol-5-yl)acetamide

> <PUBCHEM_IUPAC_CAS_NAME>
N-[4-[2-[2-(2,2-difluoroethoxy)-5,6,8,9-tetrahydropyrido[2,3-d]azepin-7-yl]ethyl]cyclohexyl]-2-(2-methyl-5-thiazolyl)acetamide

> <PUBCHEM_IUPAC_NAME_MARKUP>
<I>N</I>-[4-[2-[2-(2,2-difluoroethoxy)-5,6,8,9-tetrahydropyrido[2,3-d]azepin-7-yl]ethyl]cyclohexyl]-2-(2-methyl-1,3-thiazol-5-yl)acetamide

> <PUBCHEM_IUPAC_NAME>
N-[4-[2-[2-(2,2-difluoroethoxy)-5,6,8,9-tetrahydropyrido[2,3-d]azepin-7-yl]ethyl]cyclohexyl]-2-(2-methyl-1,3-thiazol-5-yl)acetamide

> <PUBCHEM_IUPAC_SYSTEMATIC_NAME>
N-[4-[2-[2-[2,2-bis(fluoranyl)ethoxy]-5,6,8,9-tetrahydropyrido[2,3-d]azepin-7-yl]ethyl]cyclohexyl]-2-(2-methyl-1,3-thiazol-5-yl)ethanamide

> <PUBCHEM_IUPAC_TRADITIONAL_NAME>
N-[4-[2-[2-(2,2-difluoroethoxy)-5,6,8,9-tetrahydropyrid[2,3-d]azepin-7-yl]ethyl]cyclohexyl]-2-(2-methylthiazol-5-yl)acetamide

> <PUBCHEM_IUPAC_INCHI>
InChI=1S/C25H34F2N4O2S/c1-17-28-15-21(34-17)14-24(32)29-20-5-2-18(3-6-20)8-11-31-12-9-19-4-7-25(33-16-23(26)27)30-22(19)10-13-31/h4,7,15,18,20,23H,2-3,5-6,8-14,16H2,1H3,(H,29,32)

> <PUBCHEM_IUPAC_INCHIKEY>
XGFFXWPMGJJBFH-UHFFFAOYSA-N

> <PUBCHEM_XLOGP3_AA>
4.6

> <PUBCHEM_EXACT_MASS>
492.23705384

> <PUBCHEM_MOLECULAR_FORMULA>
C25H34F2N4O2S

> <PUBCHEM_MOLECULAR_WEIGHT>
492.6

> <PUBCHEM_OPENEYE_CAN_SMILES>
CC1=NC=C(S1)CC(=O)NC2CCC(CC2)CCN3CCC4=C(CC3)N=C(C=C4)OCC(F)F

> <PUBCHEM_OPENEYE_ISO_SMILES>
CC1=NC=C(S1)CC(=O)NC2CCC(CC2)CCN3CCC4=C(CC3)N=C(C=C4)OCC(F)F

> <PUBCHEM_CACTVS_TPSA>
95.6

> <PUBCHEM_MONOISOTOPIC_WEIGHT>
492.23705384

> <PUBCHEM_TOTAL_CHARGE>
0

> <PUBCHEM_HEAVY_ATOM_COUNT>
34

> <PUBCHEM_ATOM_DEF_STEREO_COUNT>
0

> <PUBCHEM_ATOM_UDEF_STEREO_COUNT>
0

> <PUBCHEM_BOND_DEF_STEREO_COUNT>
0

> <PUBCHEM_BOND_UDEF_STEREO_COUNT>
0

> <PUBCHEM_ISOTOPIC_ATOM_COUNT>
0

> <PUBCHEM_COMPONENT_COUNT>
1

> <PUBCHEM_CACTVS_TAUTO_COUNT>
-1

> <PUBCHEM_COORDINATE_TYPE>
1
5
255

> <PUBCHEM_BONDANNOTATIONS>
1  28  8
1  31  8
23  24  8
23  26  8
26  27  8
27  29  8
28  30  8
8  24  8
8  29  8
9  30  8
9  31  8

$$$$
