24901413
  -OEChem-09292322072D

 69 73  0     1  0  0  0  0  0999 V2000
   13.1112   -4.4852    0.0000 S   0  0  0  0  0  0  0  0  0  0  0  0
   12.1650   -2.7899    0.0000 O   0  0  0  0  0  0  0  0  0  0  0  0
   11.2989   -7.2899    0.0000 O   0  0  0  0  0  0  0  0  0  0  0  0
   14.6948   -5.2899    0.0000 O   0  0  0  0  0  0  0  0  0  0  0  0
   10.4329   -1.7899    0.0000 N   0  0  0  0  0  0  0  0  0  0  0  0
    2.7959    5.0420    0.0000 N   0  0  0  0  0  0  0  0  0  0  0  0
    6.1028    2.7101    0.0000 N   0  0  0  0  0  0  0  0  0  0  0  0
   13.1112   -6.0946    0.0000 N   0  0  0  0  0  0  0  0  0  0  0  0
    4.3707    4.7101    0.0000 C   0  0  0  0  0  0  0  0  0  0  0  0
    5.2368    4.2101    0.0000 C   0  0  0  0  0  0  0  0  0  0  0  0
    4.2677    5.6988    0.0000 C   0  0  0  0  0  0  0  0  0  0  0  0
   11.2989   -3.2899    0.0000 C   0  0  1  0  0  0  0  0  0  0  0  0
    3.2892    5.9051    0.0000 C   0  0  0  0  0  0  0  0  0  0  0  0
    5.2368    3.2101    0.0000 C   0  0  0  0  0  0  0  0  0  0  0  0
   10.4329   -2.7899    0.0000 C   0  0  0  0  0  0  0  0  0  0  0  0
   11.2989   -4.2899    0.0000 C   0  0  0  0  0  0  0  0  0  0  0  0
    9.5669   -1.2899    0.0000 C   0  0  0  0  0  0  0  0  0  0  0  0
    9.5669   -0.2899    0.0000 C   0  0  0  0  0  0  0  0  0  0  0  0
    3.4629    4.3050    0.0000 C   0  0  0  0  0  0  0  0  0  0  0  0
    2.9785    6.8556    0.0000 C   0  0  0  0  0  0  0  0  0  0  0  0
    6.1028    1.7101    0.0000 C   0  0  0  0  0  0  0  0  0  0  0  0
    8.7009    0.2101    0.0000 C   0  0  0  0  0  0  0  0  0  0  0  0
   12.1650   -4.7899    0.0000 C   0  0  0  0  0  0  0  0  0  0  0  0
    6.9688    1.2101    0.0000 C   0  0  0  0  0  0  0  0  0  0  0  0
    4.9355    6.4431    0.0000 C   0  0  0  0  0  0  0  0  0  0  0  0
   12.1650   -5.7899    0.0000 C   0  0  0  0  0  0  0  0  0  0  0  0
   10.4329   -4.7899    0.0000 C   0  0  0  0  0  0  0  0  0  0  0  0
    7.8348   -0.2899    0.0000 C   0  0  0  0  0  0  0  0  0  0  0  0
    8.7009    1.2101    0.0000 C   0  0  0  0  0  0  0  0  0  0  0  0
    3.6464    7.5999    0.0000 C   0  0  0  0  0  0  0  0  0  0  0  0
    6.9688    0.2101    0.0000 C   0  0  0  0  0  0  0  0  0  0  0  0
    7.8348    1.7101    0.0000 C   0  0  0  0  0  0  0  0  0  0  0  0
    4.6249    7.3937    0.0000 C   0  0  0  0  0  0  0  0  0  0  0  0
   11.2989   -6.2899    0.0000 C   0  0  0  0  0  0  0  0  0  0  0  0
    2.0000    7.0618    0.0000 C   0  0  0  0  0  0  0  0  0  0  0  0
   10.4329   -5.7899    0.0000 C   0  0  0  0  0  0  0  0  0  0  0  0
   13.6948   -5.2899    0.0000 C   0  0  0  0  0  0  0  0  0  0  0  0
    5.8473    4.1025    0.0000 H   0  0  0  0  0  0  0  0  0  0  0  0
    5.4488    4.7927    0.0000 H   0  0  0  0  0  0  0  0  0  0  0  0
   11.2989   -2.6699    0.0000 H   0  0  0  0  0  0  0  0  0  0  0  0
    4.6262    3.3178    0.0000 H   0  0  0  0  0  0  0  0  0  0  0  0
    5.0247    2.6275    0.0000 H   0  0  0  0  0  0  0  0  0  0  0  0
    9.8223   -2.6822    0.0000 H   0  0  0  0  0  0  0  0  0  0  0  0
   10.2209   -3.3725    0.0000 H   0  0  0  0  0  0  0  0  0  0  0  0
    8.9563   -1.1822    0.0000 H   0  0  0  0  0  0  0  0  0  0  0  0
    9.3548   -1.8725    0.0000 H   0  0  0  0  0  0  0  0  0  0  0  0
   10.1775   -0.3975    0.0000 H   0  0  0  0  0  0  0  0  0  0  0  0
    9.7789    0.2927    0.0000 H   0  0  0  0  0  0  0  0  0  0  0  0
    3.3351    3.6983    0.0000 H   0  0  0  0  0  0  0  0  0  0  0  0
   10.9698   -1.4799    0.0000 H   0  0  0  0  0  0  0  0  0  0  0  0
    2.1795    4.9751    0.0000 H   0  0  0  0  0  0  0  0  0  0  0  0
    5.4922    1.8178    0.0000 H   0  0  0  0  0  0  0  0  0  0  0  0
    5.8907    1.1275    0.0000 H   0  0  0  0  0  0  0  0  0  0  0  0
    6.6397    3.0201    0.0000 H   0  0  0  0  0  0  0  0  0  0  0  0
    5.5422    6.3153    0.0000 H   0  0  0  0  0  0  0  0  0  0  0  0
    9.8960   -4.4799    0.0000 H   0  0  0  0  0  0  0  0  0  0  0  0
    7.8348   -0.9099    0.0000 H   0  0  0  0  0  0  0  0  0  0  0  0
    9.2378    1.5201    0.0000 H   0  0  0  0  0  0  0  0  0  0  0  0
    3.4537    8.1892    0.0000 H   0  0  0  0  0  0  0  0  0  0  0  0
    6.4319   -0.0999    0.0000 H   0  0  0  0  0  0  0  0  0  0  0  0
    7.8348    2.3301    0.0000 H   0  0  0  0  0  0  0  0  0  0  0  0
    5.0389    7.8551    0.0000 H   0  0  0  0  0  0  0  0  0  0  0  0
    2.1279    7.6685    0.0000 H   0  0  0  0  0  0  0  0  0  0  0  0
    1.3933    7.1896    0.0000 H   0  0  0  0  0  0  0  0  0  0  0  0
    1.8721    6.4551    0.0000 H   0  0  0  0  0  0  0  0  0  0  0  0
    9.8960   -6.0999    0.0000 H   0  0  0  0  0  0  0  0  0  0  0  0
   13.3038   -6.6839    0.0000 H   0  0  0  0  0  0  0  0  0  0  0  0
   12.1650   -2.1699    0.0000 H   0  0  0  0  0  0  0  0  0  0  0  0
   10.7620   -7.5999    0.0000 H   0  0  0  0  0  0  0  0  0  0  0  0
  1 23  1  0  0  0  0
  1 37  1  0  0  0  0
 12  2  1  6  0  0  0
  2 68  1  0  0  0  0
  3 34  1  0  0  0  0
  3 69  1  0  0  0  0
  4 37  2  0  0  0  0
  5 15  1  0  0  0  0
  5 17  1  0  0  0  0
  5 50  1  0  0  0  0
  6 13  1  0  0  0  0
  6 19  1  0  0  0  0
  6 51  1  0  0  0  0
  7 14  1  0  0  0  0
  7 21  1  0  0  0  0
  7 54  1  0  0  0  0
  8 26  1  0  0  0  0
  8 37  1  0  0  0  0
  8 67  1  0  0  0  0
  9 10  1  0  0  0  0
  9 11  1  0  0  0  0
  9 19  2  0  0  0  0
 10 14  1  0  0  0  0
 10 38  1  0  0  0  0
 10 39  1  0  0  0  0
 11 13  1  0  0  0  0
 11 25  2  0  0  0  0
 12 15  1  0  0  0  0
 12 16  1  0  0  0  0
 12 40  1  0  0  0  0
 13 20  2  0  0  0  0
 14 41  1  0  0  0  0
 14 42  1  0  0  0  0
 15 43  1  0  0  0  0
 15 44  1  0  0  0  0
 16 23  2  0  0  0  0
 16 27  1  0  0  0  0
 17 18  1  0  0  0  0
 17 45  1  0  0  0  0
 17 46  1  0  0  0  0
 18 22  1  0  0  0  0
 18 47  1  0  0  0  0
 18 48  1  0  0  0  0
 19 49  1  0  0  0  0
 20 30  1  0  0  0  0
 20 35  1  0  0  0  0
 21 24  1  0  0  0  0
 21 52  1  0  0  0  0
 21 53  1  0  0  0  0
 22 28  2  0  0  0  0
 22 29  1  0  0  0  0
 23 26  1  0  0  0  0
 24 31  2  0  0  0  0
 24 32  1  0  0  0  0
 25 33  1  0  0  0  0
 25 55  1  0  0  0  0
 26 34  2  0  0  0  0
 27 36  2  0  0  0  0
 27 56  1  0  0  0  0
 28 31  1  0  0  0  0
 28 57  1  0  0  0  0
 29 32  2  0  0  0  0
 29 58  1  0  0  0  0
 30 33  2  0  0  0  0
 30 59  1  0  0  0  0
 31 60  1  0  0  0  0
 32 61  1  0  0  0  0
 33 62  1  0  0  0  0
 34 36  1  0  0  0  0
 35 63  1  0  0  0  0
 35 64  1  0  0  0  0
 35 65  1  0  0  0  0
 36 66  1  0  0  0  0
M  END
> <PUBCHEM_COMPOUND_CID>
24901413

> <PUBCHEM_COMPOUND_CANONICALIZED>
1

> <PUBCHEM_CACTVS_COMPLEXITY>
736

> <PUBCHEM_CACTVS_HBOND_ACCEPTOR>
6

> <PUBCHEM_CACTVS_HBOND_DONOR>
6

> <PUBCHEM_CACTVS_ROTATABLE_BOND>
11

> <PUBCHEM_CACTVS_SUBSKEYS>
AAADcfB7sABAAAAAAAAAAAAAAAAAAWLAAAAwYMAAAAAAAFgB9AAAHgQQCAAADBzh3gY+x/LJkgioAzRnVACCgCBxKDAI2bQvTJgKNuLykZOEcAhk1BHY2Aew4OQO4AACRAAGEQDAAASIAAwiAAAAAAAAAA==

> <PUBCHEM_IUPAC_OPENEYE_NAME>
4-hydroxy-7-[(1R)-1-hydroxy-2-[2-[4-[[2-(7-methyl-1H-indol-3-yl)ethylamino]methyl]phenyl]ethylamino]ethyl]-3H-1,3-benzothiazol-2-one

> <PUBCHEM_IUPAC_CAS_NAME>
4-hydroxy-7-[(1R)-1-hydroxy-2-[2-[4-[[2-(7-methyl-1H-indol-3-yl)ethylamino]methyl]phenyl]ethylamino]ethyl]-3H-1,3-benzothiazol-2-one

> <PUBCHEM_IUPAC_NAME_MARKUP>
4-hydroxy-7-[(1<I>R</I>)-1-hydroxy-2-[2-[4-[[2-(7-methyl-1<I>H</I>-indol-3-yl)ethylamino]methyl]phenyl]ethylamino]ethyl]-3<I>H</I>-1,3-benzothiazol-2-one

> <PUBCHEM_IUPAC_NAME>
4-hydroxy-7-[(1R)-1-hydroxy-2-[2-[4-[[2-(7-methyl-1H-indol-3-yl)ethylamino]methyl]phenyl]ethylamino]ethyl]-3H-1,3-benzothiazol-2-one

> <PUBCHEM_IUPAC_SYSTEMATIC_NAME>
7-[(1R)-2-[2-[4-[[2-(7-methyl-1H-indol-3-yl)ethylamino]methyl]phenyl]ethylamino]-1-oxidanyl-ethyl]-4-oxidanyl-3H-1,3-benzothiazol-2-one

> <PUBCHEM_IUPAC_TRADITIONAL_NAME>
4-hydroxy-7-[(1R)-1-hydroxy-2-[2-[4-[[2-(7-methyl-1H-indol-3-yl)ethylamino]methyl]phenyl]ethylamino]ethyl]-3H-1,3-benzothiazol-2-one

> <PUBCHEM_IUPAC_INCHI>
InChI=1S/C29H32N4O3S/c1-18-3-2-4-22-21(16-32-26(18)22)12-14-30-15-20-7-5-19(6-8-20)11-13-31-17-25(35)23-9-10-24(34)27-28(23)37-29(36)33-27/h2-10,16,25,30-32,34-35H,11-15,17H2,1H3,(H,33,36)/t25-/m0/s1

> <PUBCHEM_IUPAC_INCHIKEY>
HRIMLSKWGJERPD-VWLOTQADSA-N

> <PUBCHEM_XLOGP3_AA>
3.8

> <PUBCHEM_EXACT_MASS>
516.21951207

> <PUBCHEM_MOLECULAR_FORMULA>
C29H32N4O3S

> <PUBCHEM_MOLECULAR_WEIGHT>
516.7

> <PUBCHEM_OPENEYE_CAN_SMILES>
CC1=C2C(=CC=C1)C(=CN2)CCNCC3=CC=C(C=C3)CCNCC(C4=C5C(=C(C=C4)O)NC(=O)S5)O

> <PUBCHEM_OPENEYE_ISO_SMILES>
CC1=C2C(=CC=C1)C(=CN2)CCNCC3=CC=C(C=C3)CCNC[C@@H](C4=C5C(=C(C=C4)O)NC(=O)S5)O

> <PUBCHEM_CACTVS_TPSA>
135

> <PUBCHEM_MONOISOTOPIC_WEIGHT>
516.21951207

> <PUBCHEM_TOTAL_CHARGE>
0

> <PUBCHEM_HEAVY_ATOM_COUNT>
37

> <PUBCHEM_ATOM_DEF_STEREO_COUNT>
1

> <PUBCHEM_ATOM_UDEF_STEREO_COUNT>
0

> <PUBCHEM_BOND_DEF_STEREO_COUNT>
0

> <PUBCHEM_BOND_UDEF_STEREO_COUNT>
0

> <PUBCHEM_ISOTOPIC_ATOM_COUNT>
0

> <PUBCHEM_COMPONENT_COUNT>
1

> <PUBCHEM_CACTVS_TAUTO_COUNT>
-1

> <PUBCHEM_COORDINATE_TYPE>
1
5
255

> <PUBCHEM_BONDANNOTATIONS>
1  23  8
1  37  8
11  13  8
11  25  8
13  20  8
16  23  8
16  27  8
12  2  6
20  30  8
22  28  8
22  29  8
23  26  8
24  31  8
24  32  8
25  33  8
26  34  8
27  36  8
28  31  8
29  32  8
30  33  8
34  36  8
6  13  8
6  19  8
8  26  8
8  37  8
9  11  8
9  19  8

$$$$
