49781477
  -OEChem-09292322482D

 62 66  0     1  0  0  0  0  0999 V2000
    7.7498    1.1810    0.0000 S   0  0  0  0  0  0  0  0  0  0  0  0
    2.0000   -3.2938    0.0000 F   0  0  0  0  0  0  0  0  0  0  0  0
    2.1233   -4.7026    0.0000 F   0  0  0  0  0  0  0  0  0  0  0  0
    3.4088   -3.1705    0.0000 F   0  0  0  0  0  0  0  0  0  0  0  0
    7.8839    5.1242    0.0000 O   0  0  0  0  0  0  0  0  0  0  0  0
    7.7498   -2.2831    0.0000 N   0  0  0  0  0  0  0  0  0  0  0  0
    7.6565    2.9606    0.0000 N   0  0  0  0  0  0  0  0  0  0  0  0
    6.2553    2.1516    0.0000 N   0  0  0  0  0  0  0  0  0  0  0  0
    6.0474    3.1297    0.0000 N   0  0  0  0  0  0  0  0  0  0  0  0
    6.6815    6.2069    0.0000 N   0  0  0  0  0  0  0  0  0  0  0  0
    8.2276   -4.2316    0.0000 C   0  0  2  0  0  0  0  0  0  0  0  0
    8.4864   -3.2657    0.0000 C   0  0  1  0  0  0  0  0  0  0  0  0
    9.6265   -4.7404    0.0000 C   0  0  0  0  0  0  0  0  0  0  0  0
    9.8853   -3.7745    0.0000 C   0  0  0  0  0  0  0  0  0  0  0  0
    7.0066   -5.0973    0.0000 C   0  0  0  0  0  0  0  0  0  0  0  0
    6.4532   -3.5768    0.0000 C   0  0  0  0  0  0  0  0  0  0  0  0
    6.1775   -4.5381    0.0000 C   0  0  0  0  0  0  0  0  0  0  0  0
    7.2498   -1.4170    0.0000 C   0  0  0  0  0  0  0  0  0  0  0  0
    5.2378   -4.8801    0.0000 C   0  0  0  0  0  0  0  0  0  0  0  0
    7.7498   -0.5510    0.0000 C   0  0  0  0  0  0  0  0  0  0  0  0
    4.4718   -4.2373    0.0000 C   0  0  0  0  0  0  0  0  0  0  0  0
    5.0642   -5.8649    0.0000 C   0  0  0  0  0  0  0  0  0  0  0  0
    7.2498    0.3150    0.0000 C   0  0  0  0  0  0  0  0  0  0  0  0
    3.5321   -4.5793    0.0000 C   0  0  0  0  0  0  0  0  0  0  0  0
    4.1245   -6.2069    0.0000 C   0  0  0  0  0  0  0  0  0  0  0  0
    3.3584   -5.5641    0.0000 C   0  0  0  0  0  0  0  0  0  0  0  0
    2.7660   -3.9366    0.0000 C   0  0  0  0  0  0  0  0  0  0  0  0
    7.2498    2.0470    0.0000 C   0  0  0  0  0  0  0  0  0  0  0  0
    6.9134    3.6297    0.0000 C   0  0  0  0  0  0  0  0  0  0  0  0
    8.6347    3.1685    0.0000 C   0  0  0  0  0  0  0  0  0  0  0  0
    7.0179    4.6242    0.0000 C   0  0  0  0  0  0  0  0  0  0  0  0
    6.2748    5.2934    0.0000 C   0  0  0  0  0  0  0  0  0  0  0  0
    5.2966    5.0855    0.0000 C   0  0  0  0  0  0  0  0  0  0  0  0
    7.6760    6.1024    0.0000 C   0  0  0  0  0  0  0  0  0  0  0  0
    8.0076   -5.0526    0.0000 H   0  0  0  0  0  0  0  0  0  0  0  0
    8.7064   -2.4447    0.0000 H   0  0  0  0  0  0  0  0  0  0  0  0
    9.4316   -5.3290    0.0000 H   0  0  0  0  0  0  0  0  0  0  0  0
   10.2205   -4.9182    0.0000 H   0  0  0  0  0  0  0  0  0  0  0  0
   10.4793   -3.9523    0.0000 H   0  0  0  0  0  0  0  0  0  0  0  0
   10.0803   -3.1860    0.0000 H   0  0  0  0  0  0  0  0  0  0  0  0
    6.6007   -5.5660    0.0000 H   0  0  0  0  0  0  0  0  0  0  0  0
    7.4232   -5.5564    0.0000 H   0  0  0  0  0  0  0  0  0  0  0  0
    6.4481   -2.9568    0.0000 H   0  0  0  0  0  0  0  0  0  0  0  0
    5.8388   -3.4930    0.0000 H   0  0  0  0  0  0  0  0  0  0  0  0
    5.7241   -4.1152    0.0000 H   0  0  0  0  0  0  0  0  0  0  0  0
    6.7748   -1.0185    0.0000 H   0  0  0  0  0  0  0  0  0  0  0  0
    6.7748   -1.8156    0.0000 H   0  0  0  0  0  0  0  0  0  0  0  0
    8.2247   -0.9496    0.0000 H   0  0  0  0  0  0  0  0  0  0  0  0
    8.2247   -0.1525    0.0000 H   0  0  0  0  0  0  0  0  0  0  0  0
    4.5794   -3.6267    0.0000 H   0  0  0  0  0  0  0  0  0  0  0  0
    5.5391   -6.2634    0.0000 H   0  0  0  0  0  0  0  0  0  0  0  0
    6.7748    0.7135    0.0000 H   0  0  0  0  0  0  0  0  0  0  0  0
    6.7748   -0.0835    0.0000 H   0  0  0  0  0  0  0  0  0  0  0  0
    4.0168   -6.8175    0.0000 H   0  0  0  0  0  0  0  0  0  0  0  0
    2.7758   -5.7762    0.0000 H   0  0  0  0  0  0  0  0  0  0  0  0
    8.7636    2.5621    0.0000 H   0  0  0  0  0  0  0  0  0  0  0  0
    9.2411    3.2974    0.0000 H   0  0  0  0  0  0  0  0  0  0  0  0
    8.5058    3.7750    0.0000 H   0  0  0  0  0  0  0  0  0  0  0  0
    5.1677    5.6919    0.0000 H   0  0  0  0  0  0  0  0  0  0  0  0
    4.6902    4.9566    0.0000 H   0  0  0  0  0  0  0  0  0  0  0  0
    5.4255    4.4790    0.0000 H   0  0  0  0  0  0  0  0  0  0  0  0
    8.0909    6.5632    0.0000 H   0  0  0  0  0  0  0  0  0  0  0  0
  1 23  1  0  0  0  0
  1 28  1  0  0  0  0
  2 27  1  0  0  0  0
  3 27  1  0  0  0  0
  4 27  1  0  0  0  0
  5 31  1  0  0  0  0
  5 34  1  0  0  0  0
  6 11  1  0  0  0  0
  6 12  1  0  0  0  0
  6 18  1  0  0  0  0
  7 28  1  0  0  0  0
  7 29  1  0  0  0  0
  7 30  1  0  0  0  0
  8  9  1  0  0  0  0
  8 28  2  0  0  0  0
  9 29  2  0  0  0  0
 10 32  1  0  0  0  0
 10 34  2  0  0  0  0
 11 13  1  0  0  0  0
 11 15  1  0  0  0  0
 11 35  1  1  0  0  0
 12 14  1  0  0  0  0
 12 16  1  0  0  0  0
 12 36  1  6  0  0  0
 13 14  1  0  0  0  0
 13 37  1  0  0  0  0
 13 38  1  0  0  0  0
 14 39  1  0  0  0  0
 14 40  1  0  0  0  0
 15 17  1  0  0  0  0
 15 41  1  0  0  0  0
 15 42  1  0  0  0  0
 16 17  1  0  0  0  0
 16 43  1  0  0  0  0
 16 44  1  0  0  0  0
 17 19  1  0  0  0  0
 17 45  1  0  0  0  0
 18 20  1  0  0  0  0
 18 46  1  0  0  0  0
 18 47  1  0  0  0  0
 19 21  2  0  0  0  0
 19 22  1  0  0  0  0
 20 23  1  0  0  0  0
 20 48  1  0  0  0  0
 20 49  1  0  0  0  0
 21 24  1  0  0  0  0
 21 50  1  0  0  0  0
 22 25  2  0  0  0  0
 22 51  1  0  0  0  0
 23 52  1  0  0  0  0
 23 53  1  0  0  0  0
 24 26  2  0  0  0  0
 24 27  1  0  0  0  0
 25 26  1  0  0  0  0
 25 54  1  0  0  0  0
 26 55  1  0  0  0  0
 29 31  1  0  0  0  0
 30 56  1  0  0  0  0
 30 57  1  0  0  0  0
 30 58  1  0  0  0  0
 31 32  2  0  0  0  0
 32 33  1  0  0  0  0
 33 59  1  0  0  0  0
 33 60  1  0  0  0  0
 33 61  1  0  0  0  0
 34 62  1  0  0  0  0
M  END
> <PUBCHEM_COMPOUND_CID>
49781477

> <PUBCHEM_COMPOUND_CANONICALIZED>
1

> <PUBCHEM_CACTVS_COMPLEXITY>
674

> <PUBCHEM_CACTVS_HBOND_ACCEPTOR>
9

> <PUBCHEM_CACTVS_HBOND_DONOR>
0

> <PUBCHEM_CACTVS_ROTATABLE_BOND>
7

> <PUBCHEM_CACTVS_SUBSKEYS>
AAADceB7oYBAAAAAAAAAAAAAAAAAAWLFgAA8QAAABgAAAAAB8AAAHwQIAAAADSzF3xa3lJcMFEiqA6Zz9ASS2Ct7YLAd2CG9RJiOKCLk2TCNIChgjALYiAcQgMAOgAACAAAAAAAAAAQAAAAAAAAAAAAAAA==

> <PUBCHEM_IUPAC_OPENEYE_NAME>
4-methyl-5-[4-methyl-5-[3-[(1R,5S)-3-[3-(trifluoromethyl)phenyl]-8-azabicyclo[3.2.1]octan-8-yl]propylsulfanyl]-1,2,4-triazol-3-yl]oxazole

> <PUBCHEM_IUPAC_CAS_NAME>
4-methyl-5-[4-methyl-5-[3-[(1R,5S)-3-[3-(trifluoromethyl)phenyl]-8-azabicyclo[3.2.1]octan-8-yl]propylthio]-1,2,4-triazol-3-yl]oxazole

> <PUBCHEM_IUPAC_NAME_MARKUP>
4-methyl-5-[4-methyl-5-[3-[(1<I>R</I>,5<I>S</I>)-3-[3-(trifluoromethyl)phenyl]-8-azabicyclo[3.2.1]octan-8-yl]propylsulfanyl]-1,2,4-triazol-3-yl]-1,3-oxazole

> <PUBCHEM_IUPAC_NAME>
4-methyl-5-[4-methyl-5-[3-[(1R,5S)-3-[3-(trifluoromethyl)phenyl]-8-azabicyclo[3.2.1]octan-8-yl]propylsulfanyl]-1,2,4-triazol-3-yl]-1,3-oxazole

> <PUBCHEM_IUPAC_SYSTEMATIC_NAME>
4-methyl-5-[4-methyl-5-[3-[(1R,5S)-3-[3-(trifluoromethyl)phenyl]-8-azabicyclo[3.2.1]octan-8-yl]propylsulfanyl]-1,2,4-triazol-3-yl]-1,3-oxazole

> <PUBCHEM_IUPAC_TRADITIONAL_NAME>
4-methyl-5-[4-methyl-5-[3-[(1R,5S)-3-[3-(trifluoromethyl)phenyl]-8-azabicyclo[3.2.1]octan-8-yl]propylthio]-1,2,4-triazol-3-yl]oxazole

> <PUBCHEM_IUPAC_INCHI>
InChI=1S/C24H28F3N5OS/c1-15-21(33-14-28-15)22-29-30-23(31(22)2)34-10-4-9-32-19-7-8-20(32)13-17(12-19)16-5-3-6-18(11-16)24(25,26)27/h3,5-6,11,14,17,19-20H,4,7-10,12-13H2,1-2H3/t17?,19-,20+

> <PUBCHEM_IUPAC_INCHIKEY>
QSDLVBSOCJOFJV-CTXDPNEZSA-N

> <PUBCHEM_XLOGP3_AA>
4.9

> <PUBCHEM_EXACT_MASS>
491.19666619

> <PUBCHEM_MOLECULAR_FORMULA>
C24H28F3N5OS

> <PUBCHEM_MOLECULAR_WEIGHT>
491.6

> <PUBCHEM_OPENEYE_CAN_SMILES>
CC1=C(OC=N1)C2=NN=C(N2C)SCCCN3C4CCC3CC(C4)C5=CC(=CC=C5)C(F)(F)F

> <PUBCHEM_OPENEYE_ISO_SMILES>
CC1=C(OC=N1)C2=NN=C(N2C)SCCCN3[C@@H]4CC[C@H]3CC(C4)C5=CC(=CC=C5)C(F)(F)F

> <PUBCHEM_CACTVS_TPSA>
85.3

> <PUBCHEM_MONOISOTOPIC_WEIGHT>
491.19666619

> <PUBCHEM_TOTAL_CHARGE>
0

> <PUBCHEM_HEAVY_ATOM_COUNT>
34

> <PUBCHEM_ATOM_DEF_STEREO_COUNT>
2

> <PUBCHEM_ATOM_UDEF_STEREO_COUNT>
0

> <PUBCHEM_BOND_DEF_STEREO_COUNT>
0

> <PUBCHEM_BOND_UDEF_STEREO_COUNT>
0

> <PUBCHEM_ISOTOPIC_ATOM_COUNT>
0

> <PUBCHEM_COMPONENT_COUNT>
1

> <PUBCHEM_CACTVS_TAUTO_COUNT>
-1

> <PUBCHEM_COORDINATE_TYPE>
1
5
255

> <PUBCHEM_BONDANNOTATIONS>
10  32  8
10  34  8
11  35  5
12  36  6
19  21  8
19  22  8
21  24  8
22  25  8
24  26  8
25  26  8
31  32  8
5  31  8
5  34  8
7  28  8
7  29  8
8  28  8
8  9  8
9  29  8

$$$$
