56944564
  -OEChem-09292322082D

 61 65  0     0  0  0  0  0  0999 V2000
   12.6590   -0.7890    0.0000 S   0  0  0  0  0  0  0  0  0  0  0  0
    3.7899    1.9090    0.0000 S   0  0  0  0  0  0  0  0  0  0  0  0
   12.1590    0.0771    0.0000 O   0  0  0  0  0  0  0  0  0  0  0  0
   13.1590   -1.6550    0.0000 O   0  0  0  0  0  0  0  0  0  0  0  0
    7.4629   -0.7890    0.0000 N   0  0  0  0  0  0  0  0  0  0  0  0
    5.7308    0.2110    0.0000 N   0  0  0  0  0  0  0  0  0  0  0  0
   11.7930   -1.2890    0.0000 N   0  0  0  0  0  0  0  0  0  0  0  0
    4.7617    1.6998    0.0000 N   0  0  0  0  0  0  0  0  0  0  0  0
    7.4629    0.2110    0.0000 C   0  0  0  0  0  0  0  0  0  0  0  0
    6.5968   -1.2890    0.0000 C   0  0  0  0  0  0  0  0  0  0  0  0
    6.5968    0.7110    0.0000 C   0  0  0  0  0  0  0  0  0  0  0  0
    5.7308   -0.7890    0.0000 C   0  0  0  0  0  0  0  0  0  0  0  0
    8.3289   -1.2890    0.0000 C   0  0  0  0  0  0  0  0  0  0  0  0
    9.1949   -0.7890    0.0000 C   0  0  0  0  0  0  0  0  0  0  0  0
   10.0610   -1.2890    0.0000 C   0  0  0  0  0  0  0  0  0  0  0  0
    4.8648    0.7110    0.0000 C   0  0  0  0  0  0  0  0  0  0  0  0
   10.9270   -0.7890    0.0000 C   0  0  0  0  0  0  0  0  0  0  0  0
    3.9570    0.3059    0.0000 C   0  0  0  0  0  0  0  0  0  0  0  0
    3.2892    1.0502    0.0000 C   0  0  0  0  0  0  0  0  0  0  0  0
    3.6464   -0.6446    0.0000 C   0  0  0  0  0  0  0  0  0  0  0  0
   13.5251   -0.2890    0.0000 C   0  0  0  0  0  0  0  0  0  0  0  0
    2.3107    0.8440    0.0000 C   0  0  0  0  0  0  0  0  0  0  0  0
    2.6678   -0.8508    0.0000 C   0  0  0  0  0  0  0  0  0  0  0  0
    2.0000   -0.1065    0.0000 C   0  0  0  0  0  0  0  0  0  0  0  0
   14.3911   -0.7890    0.0000 C   0  0  0  0  0  0  0  0  0  0  0  0
   13.5251    0.7110    0.0000 C   0  0  0  0  0  0  0  0  0  0  0  0
   15.2571   -0.2890    0.0000 C   0  0  0  0  0  0  0  0  0  0  0  0
   15.2571    0.7110    0.0000 C   0  0  0  0  0  0  0  0  0  0  0  0
   14.3911    1.2110    0.0000 C   0  0  0  0  0  0  0  0  0  0  0  0
   16.1510   -0.8236    0.0000 C   0  0  0  0  0  0  0  0  0  0  0  0
   16.1510    1.2457    0.0000 C   0  0  0  0  0  0  0  0  0  0  0  0
   17.0571   -0.3098    0.0000 C   0  0  0  0  0  0  0  0  0  0  0  0
   17.0571    0.7319    0.0000 C   0  0  0  0  0  0  0  0  0  0  0  0
    8.0734    0.1034    0.0000 H   0  0  0  0  0  0  0  0  0  0  0  0
    7.6749    0.7936    0.0000 H   0  0  0  0  0  0  0  0  0  0  0  0
    6.1983   -1.7639    0.0000 H   0  0  0  0  0  0  0  0  0  0  0  0
    6.9954   -1.7639    0.0000 H   0  0  0  0  0  0  0  0  0  0  0  0
    6.9954    1.1860    0.0000 H   0  0  0  0  0  0  0  0  0  0  0  0
    6.1983    1.1860    0.0000 H   0  0  0  0  0  0  0  0  0  0  0  0
    5.1202   -0.6813    0.0000 H   0  0  0  0  0  0  0  0  0  0  0  0
    5.5188   -1.3716    0.0000 H   0  0  0  0  0  0  0  0  0  0  0  0
    7.9304   -1.7639    0.0000 H   0  0  0  0  0  0  0  0  0  0  0  0
    8.7274   -1.7639    0.0000 H   0  0  0  0  0  0  0  0  0  0  0  0
    9.5934   -0.3140    0.0000 H   0  0  0  0  0  0  0  0  0  0  0  0
    8.7964   -0.3140    0.0000 H   0  0  0  0  0  0  0  0  0  0  0  0
    9.6624   -1.7639    0.0000 H   0  0  0  0  0  0  0  0  0  0  0  0
   10.4595   -1.7639    0.0000 H   0  0  0  0  0  0  0  0  0  0  0  0
   11.3255   -0.3140    0.0000 H   0  0  0  0  0  0  0  0  0  0  0  0
   10.5284   -0.3140    0.0000 H   0  0  0  0  0  0  0  0  0  0  0  0
   11.7930   -1.9090    0.0000 H   0  0  0  0  0  0  0  0  0  0  0  0
    4.0604   -1.1061    0.0000 H   0  0  0  0  0  0  0  0  0  0  0  0
    1.8966    1.3055    0.0000 H   0  0  0  0  0  0  0  0  0  0  0  0
    2.4752   -1.4401    0.0000 H   0  0  0  0  0  0  0  0  0  0  0  0
    1.3933   -0.2344    0.0000 H   0  0  0  0  0  0  0  0  0  0  0  0
   14.3911   -1.4090    0.0000 H   0  0  0  0  0  0  0  0  0  0  0  0
   12.9881    1.0210    0.0000 H   0  0  0  0  0  0  0  0  0  0  0  0
   14.3911    1.8310    0.0000 H   0  0  0  0  0  0  0  0  0  0  0  0
   16.1439   -1.4436    0.0000 H   0  0  0  0  0  0  0  0  0  0  0  0
   16.1439    1.8657    0.0000 H   0  0  0  0  0  0  0  0  0  0  0  0
   17.5928   -0.6218    0.0000 H   0  0  0  0  0  0  0  0  0  0  0  0
   17.5928    1.0439    0.0000 H   0  0  0  0  0  0  0  0  0  0  0  0
  1  3  2  0  0  0  0
  1  4  2  0  0  0  0
  1  7  1  0  0  0  0
  1 21  1  0  0  0  0
  2  8  1  0  0  0  0
  2 19  1  0  0  0  0
  5  9  1  0  0  0  0
  5 10  1  0  0  0  0
  5 13  1  0  0  0  0
  6 11  1  0  0  0  0
  6 12  1  0  0  0  0
  6 16  1  0  0  0  0
  7 17  1  0  0  0  0
  7 50  1  0  0  0  0
  8 16  2  0  0  0  0
  9 11  1  0  0  0  0
  9 34  1  0  0  0  0
  9 35  1  0  0  0  0
 10 12  1  0  0  0  0
 10 36  1  0  0  0  0
 10 37  1  0  0  0  0
 11 38  1  0  0  0  0
 11 39  1  0  0  0  0
 12 40  1  0  0  0  0
 12 41  1  0  0  0  0
 13 14  1  0  0  0  0
 13 42  1  0  0  0  0
 13 43  1  0  0  0  0
 14 15  1  0  0  0  0
 14 44  1  0  0  0  0
 14 45  1  0  0  0  0
 15 17  1  0  0  0  0
 15 46  1  0  0  0  0
 15 47  1  0  0  0  0
 16 18  1  0  0  0  0
 17 48  1  0  0  0  0
 17 49  1  0  0  0  0
 18 19  1  0  0  0  0
 18 20  2  0  0  0  0
 19 22  2  0  0  0  0
 20 23  1  0  0  0  0
 20 51  1  0  0  0  0
 21 25  2  0  0  0  0
 21 26  1  0  0  0  0
 22 24  1  0  0  0  0
 22 52  1  0  0  0  0
 23 24  2  0  0  0  0
 23 53  1  0  0  0  0
 24 54  1  0  0  0  0
 25 27  1  0  0  0  0
 25 55  1  0  0  0  0
 26 29  2  0  0  0  0
 26 56  1  0  0  0  0
 27 28  1  0  0  0  0
 27 30  2  0  0  0  0
 28 29  1  0  0  0  0
 28 31  2  0  0  0  0
 29 57  1  0  0  0  0
 30 32  1  0  0  0  0
 30 58  1  0  0  0  0
 31 33  1  0  0  0  0
 31 59  1  0  0  0  0
 32 33  2  0  0  0  0
 32 60  1  0  0  0  0
 33 61  1  0  0  0  0
M  END
> <PUBCHEM_COMPOUND_CID>
56944564

> <PUBCHEM_COMPOUND_CANONICALIZED>
1

> <PUBCHEM_CACTVS_COMPLEXITY>
722

> <PUBCHEM_CACTVS_HBOND_ACCEPTOR>
7

> <PUBCHEM_CACTVS_HBOND_DONOR>
1

> <PUBCHEM_CACTVS_ROTATABLE_BOND>
8

> <PUBCHEM_CACTVS_SUBSKEYS>
AAADceB7sABgAAAAAAAAAAAAAAAAAWAAAAA8YMEAAAAAAFjB9AAAHAQQQAAADADBWgQxsdNAAAKkAiJiYHDDABAhAABJmLgoRJiIYKLAmZGUIAxgkALIyAcQgIAOkAAAgAAUAAAgAAEAACgAAAAAAAAAAA==

> <PUBCHEM_IUPAC_OPENEYE_NAME>
N-[4-[4-(1,2-benzothiazol-3-yl)piperazin-1-yl]butyl]naphthalene-2-sulfonamide

> <PUBCHEM_IUPAC_CAS_NAME>
N-[4-[4-(1,2-benzothiazol-3-yl)-1-piperazinyl]butyl]-2-naphthalenesulfonamide

> <PUBCHEM_IUPAC_NAME_MARKUP>
<I>N</I>-[4-[4-(1,2-benzothiazol-3-yl)piperazin-1-yl]butyl]naphthalene-2-sulfonamide

> <PUBCHEM_IUPAC_NAME>
N-[4-[4-(1,2-benzothiazol-3-yl)piperazin-1-yl]butyl]naphthalene-2-sulfonamide

> <PUBCHEM_IUPAC_SYSTEMATIC_NAME>
N-[4-[4-(1,2-benzothiazol-3-yl)piperazin-1-yl]butyl]naphthalene-2-sulfonamide

> <PUBCHEM_IUPAC_TRADITIONAL_NAME>
N-[4-[4-(1,2-benzothiazol-3-yl)piperazino]butyl]naphthalene-2-sulfonamide

> <PUBCHEM_IUPAC_INCHI>
InChI=1S/C25H28N4O2S2/c30-33(31,22-12-11-20-7-1-2-8-21(20)19-22)26-13-5-6-14-28-15-17-29(18-16-28)25-23-9-3-4-10-24(23)32-27-25/h1-4,7-12,19,26H,5-6,13-18H2

> <PUBCHEM_IUPAC_INCHIKEY>
RCWSDRYOQJIECB-UHFFFAOYSA-N

> <PUBCHEM_XLOGP3_AA>
5.2

> <PUBCHEM_EXACT_MASS>
480.16536850

> <PUBCHEM_MOLECULAR_FORMULA>
C25H28N4O2S2

> <PUBCHEM_MOLECULAR_WEIGHT>
480.6

> <PUBCHEM_OPENEYE_CAN_SMILES>
C1CN(CCN1CCCCNS(=O)(=O)C2=CC3=CC=CC=C3C=C2)C4=NSC5=CC=CC=C54

> <PUBCHEM_OPENEYE_ISO_SMILES>
C1CN(CCN1CCCCNS(=O)(=O)C2=CC3=CC=CC=C3C=C2)C4=NSC5=CC=CC=C54

> <PUBCHEM_CACTVS_TPSA>
102

> <PUBCHEM_MONOISOTOPIC_WEIGHT>
480.16536850

> <PUBCHEM_TOTAL_CHARGE>
0

> <PUBCHEM_HEAVY_ATOM_COUNT>
33

> <PUBCHEM_ATOM_DEF_STEREO_COUNT>
0

> <PUBCHEM_ATOM_UDEF_STEREO_COUNT>
0

> <PUBCHEM_BOND_DEF_STEREO_COUNT>
0

> <PUBCHEM_BOND_UDEF_STEREO_COUNT>
0

> <PUBCHEM_ISOTOPIC_ATOM_COUNT>
0

> <PUBCHEM_COMPONENT_COUNT>
1

> <PUBCHEM_CACTVS_TAUTO_COUNT>
-1

> <PUBCHEM_COORDINATE_TYPE>
1
5
255

> <PUBCHEM_BONDANNOTATIONS>
16  18  8
18  19  8
18  20  8
19  22  8
2  19  8
2  8  8
20  23  8
21  25  8
21  26  8
22  24  8
23  24  8
25  27  8
26  29  8
27  28  8
27  30  8
28  29  8
28  31  8
30  32  8
31  33  8
32  33  8
8  16  8

$$$$
