11603119
  -OEChem-09292322472D

 54 56  0     0  0  0  0  0  0999 V2000
    7.1962   -5.7500    0.0000 O   0  0  0  0  0  0  0  0  0  0  0  0
    2.0000    3.2500    0.0000 O   0  0  0  0  0  0  0  0  0  0  0  0
    5.4641   -0.7500    0.0000 N   0  0  0  0  0  0  0  0  0  0  0  0
    5.4641   -2.7500    0.0000 N   0  0  0  0  0  0  0  0  0  0  0  0
    6.3301   -4.2500    0.0000 N   0  0  0  0  0  0  0  0  0  0  0  0
    3.7320    3.2500    0.0000 N   0  0  0  0  0  0  0  0  0  0  0  0
    3.7320    5.2500    0.0000 N   0  0  0  0  0  0  0  0  0  0  0  0
    4.5981   -1.2500    0.0000 C   0  0  0  0  0  0  0  0  0  0  0  0
    6.3301   -1.2500    0.0000 C   0  0  0  0  0  0  0  0  0  0  0  0
    4.5981   -2.2500    0.0000 C   0  0  0  0  0  0  0  0  0  0  0  0
    6.3301   -2.2500    0.0000 C   0  0  0  0  0  0  0  0  0  0  0  0
    5.4641    0.2500    0.0000 C   0  0  0  0  0  0  0  0  0  0  0  0
    4.5981    0.7500    0.0000 C   0  0  0  0  0  0  0  0  0  0  0  0
    4.5981    1.7500    0.0000 C   0  0  0  0  0  0  0  0  0  0  0  0
    5.4641   -3.7500    0.0000 C   0  0  0  0  0  0  0  0  0  0  0  0
    3.7320    2.2500    0.0000 C   0  0  0  0  0  0  0  0  0  0  0  0
    4.5981   -4.2500    0.0000 C   0  0  0  0  0  0  0  0  0  0  0  0
    4.5981   -5.2500    0.0000 C   0  0  0  0  0  0  0  0  0  0  0  0
    6.3301   -5.2500    0.0000 C   0  0  0  0  0  0  0  0  0  0  0  0
    5.4641   -5.7500    0.0000 C   0  0  0  0  0  0  0  0  0  0  0  0
    2.8660    3.7500    0.0000 C   0  0  0  0  0  0  0  0  0  0  0  0
    2.8660    4.7500    0.0000 C   0  0  0  0  0  0  0  0  0  0  0  0
    7.1962   -6.7500    0.0000 C   0  0  0  0  0  0  0  0  0  0  0  0
    2.0000    5.2500    0.0000 C   0  0  0  0  0  0  0  0  0  0  0  0
    2.0000    6.2500    0.0000 C   0  0  0  0  0  0  0  0  0  0  0  0
    3.7320    6.2500    0.0000 C   0  0  0  0  0  0  0  0  0  0  0  0
    2.8660    6.7500    0.0000 C   0  0  0  0  0  0  0  0  0  0  0  0
    4.3860   -0.6674    0.0000 H   0  0  0  0  0  0  0  0  0  0  0  0
    3.9875   -1.3577    0.0000 H   0  0  0  0  0  0  0  0  0  0  0  0
    6.9407   -1.3577    0.0000 H   0  0  0  0  0  0  0  0  0  0  0  0
    6.5422   -0.6674    0.0000 H   0  0  0  0  0  0  0  0  0  0  0  0
    3.9875   -2.1423    0.0000 H   0  0  0  0  0  0  0  0  0  0  0  0
    4.3860   -2.8326    0.0000 H   0  0  0  0  0  0  0  0  0  0  0  0
    6.5422   -2.8326    0.0000 H   0  0  0  0  0  0  0  0  0  0  0  0
    6.9407   -2.1423    0.0000 H   0  0  0  0  0  0  0  0  0  0  0  0
    6.0747    0.1423    0.0000 H   0  0  0  0  0  0  0  0  0  0  0  0
    5.6762    0.8326    0.0000 H   0  0  0  0  0  0  0  0  0  0  0  0
    3.9875    0.8577    0.0000 H   0  0  0  0  0  0  0  0  0  0  0  0
    4.3860    0.1674    0.0000 H   0  0  0  0  0  0  0  0  0  0  0  0
    5.2087    1.6423    0.0000 H   0  0  0  0  0  0  0  0  0  0  0  0
    4.8101    2.3326    0.0000 H   0  0  0  0  0  0  0  0  0  0  0  0
    3.1215    2.3577    0.0000 H   0  0  0  0  0  0  0  0  0  0  0  0
    3.5200    1.6674    0.0000 H   0  0  0  0  0  0  0  0  0  0  0  0
    4.0611   -3.9400    0.0000 H   0  0  0  0  0  0  0  0  0  0  0  0
    4.2690    3.5600    0.0000 H   0  0  0  0  0  0  0  0  0  0  0  0
    4.0611   -5.5600    0.0000 H   0  0  0  0  0  0  0  0  0  0  0  0
    5.4641   -6.3700    0.0000 H   0  0  0  0  0  0  0  0  0  0  0  0
    6.5762   -6.7500    0.0000 H   0  0  0  0  0  0  0  0  0  0  0  0
    7.1962   -7.3700    0.0000 H   0  0  0  0  0  0  0  0  0  0  0  0
    7.8162   -6.7500    0.0000 H   0  0  0  0  0  0  0  0  0  0  0  0
    1.4631    4.9400    0.0000 H   0  0  0  0  0  0  0  0  0  0  0  0
    1.4631    6.5600    0.0000 H   0  0  0  0  0  0  0  0  0  0  0  0
    4.2690    6.5600    0.0000 H   0  0  0  0  0  0  0  0  0  0  0  0
    2.8660    7.3700    0.0000 H   0  0  0  0  0  0  0  0  0  0  0  0
  1 19  1  0  0  0  0
  1 23  1  0  0  0  0
  2 21  2  0  0  0  0
  3  8  1  0  0  0  0
  3  9  1  0  0  0  0
  3 12  1  0  0  0  0
  4 10  1  0  0  0  0
  4 11  1  0  0  0  0
  4 15  1  0  0  0  0
  5 15  2  0  0  0  0
  5 19  1  0  0  0  0
  6 16  1  0  0  0  0
  6 21  1  0  0  0  0
  6 45  1  0  0  0  0
  7 22  1  0  0  0  0
  7 26  2  0  0  0  0
  8 10  1  0  0  0  0
  8 28  1  0  0  0  0
  8 29  1  0  0  0  0
  9 11  1  0  0  0  0
  9 30  1  0  0  0  0
  9 31  1  0  0  0  0
 10 32  1  0  0  0  0
 10 33  1  0  0  0  0
 11 34  1  0  0  0  0
 11 35  1  0  0  0  0
 12 13  1  0  0  0  0
 12 36  1  0  0  0  0
 12 37  1  0  0  0  0
 13 14  1  0  0  0  0
 13 38  1  0  0  0  0
 13 39  1  0  0  0  0
 14 16  1  0  0  0  0
 14 40  1  0  0  0  0
 14 41  1  0  0  0  0
 15 17  1  0  0  0  0
 16 42  1  0  0  0  0
 16 43  1  0  0  0  0
 17 18  2  0  0  0  0
 17 44  1  0  0  0  0
 18 20  1  0  0  0  0
 18 46  1  0  0  0  0
 19 20  2  0  0  0  0
 20 47  1  0  0  0  0
 21 22  1  0  0  0  0
 22 24  2  0  0  0  0
 23 48  1  0  0  0  0
 23 49  1  0  0  0  0
 23 50  1  0  0  0  0
 24 25  1  0  0  0  0
 24 51  1  0  0  0  0
 25 27  2  0  0  0  0
 25 52  1  0  0  0  0
 26 27  1  0  0  0  0
 26 53  1  0  0  0  0
 27 54  1  0  0  0  0
M  END
> <PUBCHEM_COMPOUND_CID>
11603119

> <PUBCHEM_COMPOUND_CANONICALIZED>
1

> <PUBCHEM_CACTVS_COMPLEXITY>
442

> <PUBCHEM_CACTVS_HBOND_ACCEPTOR>
6

> <PUBCHEM_CACTVS_HBOND_DONOR>
1

> <PUBCHEM_CACTVS_ROTATABLE_BOND>
8

> <PUBCHEM_CACTVS_SUBSKEYS>
AAADceB7sAAAAAAAAAAAAAAAAAAAAAAAAAAsWLAAAAAAAAAB4AAAHgAQAAAACAjBlgY/tJPIFACoATd3dACCiCk3IiAJ2KG+bNiMZvLEvbuUMShs1hPI6aeYGAIAAAAAAAAAAAAAAAAAAAAAAAAAAAAAAA==

> <PUBCHEM_IUPAC_OPENEYE_NAME>
N-[4-[4-(6-methoxy-2-pyridyl)piperazin-1-yl]butyl]pyridine-2-carboxamide

> <PUBCHEM_IUPAC_CAS_NAME>
N-[4-[4-(6-methoxy-2-pyridinyl)-1-piperazinyl]butyl]-2-pyridinecarboxamide

> <PUBCHEM_IUPAC_NAME_MARKUP>
<I>N</I>-[4-[4-(6-methoxypyridin-2-yl)piperazin-1-yl]butyl]pyridine-2-carboxamide

> <PUBCHEM_IUPAC_NAME>
N-[4-[4-(6-methoxypyridin-2-yl)piperazin-1-yl]butyl]pyridine-2-carboxamide

> <PUBCHEM_IUPAC_SYSTEMATIC_NAME>
N-[4-[4-(6-methoxypyridin-2-yl)piperazin-1-yl]butyl]pyridine-2-carboxamide

> <PUBCHEM_IUPAC_TRADITIONAL_NAME>
N-[4-[4-(6-methoxy-2-pyridyl)piperazino]butyl]picolinamide

> <PUBCHEM_IUPAC_INCHI>
InChI=1S/C20H27N5O2/c1-27-19-9-6-8-18(23-19)25-15-13-24(14-16-25)12-5-4-11-22-20(26)17-7-2-3-10-21-17/h2-3,6-10H,4-5,11-16H2,1H3,(H,22,26)

> <PUBCHEM_IUPAC_INCHIKEY>
CXYBQVQGXXMVAP-UHFFFAOYSA-N

> <PUBCHEM_XLOGP3_AA>
2.4

> <PUBCHEM_EXACT_MASS>
369.21647512

> <PUBCHEM_MOLECULAR_FORMULA>
C20H27N5O2

> <PUBCHEM_MOLECULAR_WEIGHT>
369.5

> <PUBCHEM_OPENEYE_CAN_SMILES>
COC1=CC=CC(=N1)N2CCN(CC2)CCCCNC(=O)C3=CC=CC=N3

> <PUBCHEM_OPENEYE_ISO_SMILES>
COC1=CC=CC(=N1)N2CCN(CC2)CCCCNC(=O)C3=CC=CC=N3

> <PUBCHEM_CACTVS_TPSA>
70.6

> <PUBCHEM_MONOISOTOPIC_WEIGHT>
369.21647512

> <PUBCHEM_TOTAL_CHARGE>
0

> <PUBCHEM_HEAVY_ATOM_COUNT>
27

> <PUBCHEM_ATOM_DEF_STEREO_COUNT>
0

> <PUBCHEM_ATOM_UDEF_STEREO_COUNT>
0

> <PUBCHEM_BOND_DEF_STEREO_COUNT>
0

> <PUBCHEM_BOND_UDEF_STEREO_COUNT>
0

> <PUBCHEM_ISOTOPIC_ATOM_COUNT>
0

> <PUBCHEM_COMPONENT_COUNT>
1

> <PUBCHEM_CACTVS_TAUTO_COUNT>
-1

> <PUBCHEM_COORDINATE_TYPE>
1
5
255

> <PUBCHEM_BONDANNOTATIONS>
15  17  8
17  18  8
18  20  8
19  20  8
22  24  8
24  25  8
25  27  8
26  27  8
5  15  8
5  19  8
7  22  8
7  26  8

$$$$
