45261760
  -OEChem-09292322132D

 56 58  0     0  0  0  0  0  0999 V2000
    7.4706    6.3430    0.0000 Cl  0  0  0  0  0  0  0  0  0  0  0  0
    4.0542    0.0000    0.0000 F   0  0  0  0  0  0  0  0  0  0  0  0
    0.5901    9.0000    0.0000 O   0  0  0  0  0  0  0  0  0  0  0  0
    4.9203    4.5000    0.0000 O   0  0  0  0  0  0  0  0  0  0  0  0
    2.3222    7.0000    0.0000 N   0  0  0  0  0  0  0  0  0  0  0  0
    2.3222    9.0000    0.0000 C   0  0  0  0  0  0  0  0  0  0  0  0
    1.4562    8.5000    0.0000 C   0  0  0  0  0  0  0  0  0  0  0  0
    3.1882    8.5000    0.0000 C   0  0  0  0  0  0  0  0  0  0  0  0
    3.1882    9.5000    0.0000 C   0  0  0  0  0  0  0  0  0  0  0  0
    1.4562    7.5000    0.0000 C   0  0  0  0  0  0  0  0  0  0  0  0
    3.1882    7.5000    0.0000 C   0  0  0  0  0  0  0  0  0  0  0  0
    1.4562    9.5000    0.0000 C   0  0  0  0  0  0  0  0  0  0  0  0
    3.1882   10.5000    0.0000 C   0  0  0  0  0  0  0  0  0  0  0  0
    1.4562   10.5000    0.0000 C   0  0  0  0  0  0  0  0  0  0  0  0
    2.3222   11.0000    0.0000 C   0  0  0  0  0  0  0  0  0  0  0  0
    2.3222    6.0000    0.0000 C   0  0  0  0  0  0  0  0  0  0  0  0
    3.1882    5.5000    0.0000 C   0  0  0  0  0  0  0  0  0  0  0  0
    0.5462   11.0068    0.0000 C   0  0  0  0  0  0  0  0  0  0  0  0
    2.3382   12.0415    0.0000 C   0  0  0  0  0  0  0  0  0  0  0  0
    3.1882    4.5000    0.0000 C   0  0  0  0  0  0  0  0  0  0  0  0
    0.5381   12.0484    0.0000 C   0  0  0  0  0  0  0  0  0  0  0  0
    1.4402   12.5693    0.0000 C   0  0  0  0  0  0  0  0  0  0  0  0
    4.0542    4.0000    0.0000 C   0  0  0  0  0  0  0  0  0  0  0  0
    4.0542    3.0000    0.0000 C   0  0  0  0  0  0  0  0  0  0  0  0
    4.9203    2.5000    0.0000 C   0  0  0  0  0  0  0  0  0  0  0  0
    3.1882    2.5000    0.0000 C   0  0  0  0  0  0  0  0  0  0  0  0
    4.9203    1.5000    0.0000 C   0  0  0  0  0  0  0  0  0  0  0  0
    3.1882    1.5000    0.0000 C   0  0  0  0  0  0  0  0  0  0  0  0
    4.0542    1.0000    0.0000 C   0  0  0  0  0  0  0  0  0  0  0  0
    1.2441    9.0826    0.0000 H   0  0  0  0  0  0  0  0  0  0  0  0
    0.8456    8.3923    0.0000 H   0  0  0  0  0  0  0  0  0  0  0  0
    3.7988    8.3923    0.0000 H   0  0  0  0  0  0  0  0  0  0  0  0
    3.4003    9.0826    0.0000 H   0  0  0  0  0  0  0  0  0  0  0  0
    3.4003    8.9174    0.0000 H   0  0  0  0  0  0  0  0  0  0  0  0
    3.7988    9.6077    0.0000 H   0  0  0  0  0  0  0  0  0  0  0  0
    0.8456    7.6077    0.0000 H   0  0  0  0  0  0  0  0  0  0  0  0
    1.2441    6.9174    0.0000 H   0  0  0  0  0  0  0  0  0  0  0  0
    3.4003    6.9174    0.0000 H   0  0  0  0  0  0  0  0  0  0  0  0
    3.7988    7.6077    0.0000 H   0  0  0  0  0  0  0  0  0  0  0  0
    3.7988   10.3923    0.0000 H   0  0  0  0  0  0  0  0  0  0  0  0
    3.4003   11.0826    0.0000 H   0  0  0  0  0  0  0  0  0  0  0  0
    1.7116    6.1077    0.0000 H   0  0  0  0  0  0  0  0  0  0  0  0
    2.1101    5.4174    0.0000 H   0  0  0  0  0  0  0  0  0  0  0  0
    3.7988    5.3923    0.0000 H   0  0  0  0  0  0  0  0  0  0  0  0
    3.4003    6.0826    0.0000 H   0  0  0  0  0  0  0  0  0  0  0  0
    0.0128   10.6907    0.0000 H   0  0  0  0  0  0  0  0  0  0  0  0
    2.8787   12.3453    0.0000 H   0  0  0  0  0  0  0  0  0  0  0  0
    2.5776    4.6077    0.0000 H   0  0  0  0  0  0  0  0  0  0  0  0
    2.9762    3.9174    0.0000 H   0  0  0  0  0  0  0  0  0  0  0  0
    0.0000   12.3564    0.0000 H   0  0  0  0  0  0  0  0  0  0  0  0
    1.4426   13.1893    0.0000 H   0  0  0  0  0  0  0  0  0  0  0  0
    5.4572    2.8100    0.0000 H   0  0  0  0  0  0  0  0  0  0  0  0
    2.6513    2.8100    0.0000 H   0  0  0  0  0  0  0  0  0  0  0  0
    5.4572    1.1900    0.0000 H   0  0  0  0  0  0  0  0  0  0  0  0
    2.6513    1.1900    0.0000 H   0  0  0  0  0  0  0  0  0  0  0  0
    8.4706    6.3430    0.0000 H   0  0  0  0  0  0  0  0  0  0  0  0
  1 56  1  0  0  0  0
  2 29  1  0  0  0  0
  3 12  2  0  0  0  0
  4 23  2  0  0  0  0
  5 10  1  0  0  0  0
  5 11  1  0  0  0  0
  5 16  1  0  0  0  0
  6  7  1  0  0  0  0
  6  8  1  0  0  0  0
  6  9  1  0  0  0  0
  6 12  1  0  0  0  0
  7 10  1  0  0  0  0
  7 30  1  0  0  0  0
  7 31  1  0  0  0  0
  8 11  1  0  0  0  0
  8 32  1  0  0  0  0
  8 33  1  0  0  0  0
  9 13  1  0  0  0  0
  9 34  1  0  0  0  0
  9 35  1  0  0  0  0
 10 36  1  0  0  0  0
 10 37  1  0  0  0  0
 11 38  1  0  0  0  0
 11 39  1  0  0  0  0
 12 14  1  0  0  0  0
 13 15  1  0  0  0  0
 13 40  1  0  0  0  0
 13 41  1  0  0  0  0
 14 15  1  0  0  0  0
 14 18  2  0  0  0  0
 15 19  2  0  0  0  0
 16 17  1  0  0  0  0
 16 42  1  0  0  0  0
 16 43  1  0  0  0  0
 17 20  1  0  0  0  0
 17 44  1  0  0  0  0
 17 45  1  0  0  0  0
 18 21  1  0  0  0  0
 18 46  1  0  0  0  0
 19 22  1  0  0  0  0
 19 47  1  0  0  0  0
 20 23  1  0  0  0  0
 20 48  1  0  0  0  0
 20 49  1  0  0  0  0
 21 22  2  0  0  0  0
 21 50  1  0  0  0  0
 22 51  1  0  0  0  0
 23 24  1  0  0  0  0
 24 25  2  0  0  0  0
 24 26  1  0  0  0  0
 25 27  1  0  0  0  0
 25 52  1  0  0  0  0
 26 28  2  0  0  0  0
 26 53  1  0  0  0  0
 27 29  2  0  0  0  0
 27 54  1  0  0  0  0
 28 29  1  0  0  0  0
 28 55  1  0  0  0  0
M  END
> <PUBCHEM_COMPOUND_CID>
45261760

> <PUBCHEM_COMPOUND_CANONICALIZED>
1

> <PUBCHEM_CACTVS_COMPLEXITY>
561

> <PUBCHEM_CACTVS_HBOND_ACCEPTOR>
4

> <PUBCHEM_CACTVS_HBOND_DONOR>
1

> <PUBCHEM_CACTVS_ROTATABLE_BOND>
5

> <PUBCHEM_CACTVS_SUBSKEYS>
AAADceB6MQAEAAAAAAAAAAAAAAAAAAAAAAA8YMEAAAAAAADBQAAAHwAAAAAADgTBmAwwAIMAAACIAqBSAAACAAAkAAAIiAEIAMgIIDKAlRCEIQAggACIiYcciMCPgAAAAAAQAACAAAQAACAAAAAAAAAAAA==

> <PUBCHEM_IUPAC_OPENEYE_NAME>
1-[4-(4-fluorophenyl)-4-oxo-butyl]spiro[piperidine-4,2'-tetralin]-1'-one;hydrochloride

> <PUBCHEM_IUPAC_CAS_NAME>
1'-[4-(4-fluorophenyl)-4-oxobutyl]-1-spiro[3,4-dihydronaphthalene-2,4'-piperidine]one;hydrochloride

> <PUBCHEM_IUPAC_NAME_MARKUP>
1&apos;-[4-(4-fluorophenyl)-4-oxobutyl]spiro[3,4-dihydronaphthalene-2,4&apos;-piperidine]-1-one;hydrochloride

> <PUBCHEM_IUPAC_NAME>
1'-[4-(4-fluorophenyl)-4-oxobutyl]spiro[3,4-dihydronaphthalene-2,4'-piperidine]-1-one;hydrochloride

> <PUBCHEM_IUPAC_SYSTEMATIC_NAME>
1'-[4-(4-fluorophenyl)-4-oxidanylidene-butyl]spiro[3,4-dihydronaphthalene-2,4'-piperidine]-1-one;hydrochloride

> <PUBCHEM_IUPAC_TRADITIONAL_NAME>
1-[4-(4-fluorophenyl)-4-keto-butyl]spiro[piperidine-4,2'-tetralin]-1'-one;hydrochloride

> <PUBCHEM_IUPAC_INCHI>
InChI=1S/C24H26FNO2.ClH/c25-20-9-7-19(8-10-20)22(27)6-3-15-26-16-13-24(14-17-26)12-11-18-4-1-2-5-21(18)23(24)28;/h1-2,4-5,7-10H,3,6,11-17H2;1H

> <PUBCHEM_IUPAC_INCHIKEY>
ORBUHQIBHKPCNN-UHFFFAOYSA-N

> <PUBCHEM_EXACT_MASS>
415.1714350

> <PUBCHEM_MOLECULAR_FORMULA>
C24H27ClFNO2

> <PUBCHEM_MOLECULAR_WEIGHT>
415.9

> <PUBCHEM_OPENEYE_CAN_SMILES>
C1CC2(CCN(CC2)CCCC(=O)C3=CC=C(C=C3)F)C(=O)C4=CC=CC=C41.Cl

> <PUBCHEM_OPENEYE_ISO_SMILES>
C1CC2(CCN(CC2)CCCC(=O)C3=CC=C(C=C3)F)C(=O)C4=CC=CC=C41.Cl

> <PUBCHEM_CACTVS_TPSA>
37.4

> <PUBCHEM_MONOISOTOPIC_WEIGHT>
415.1714350

> <PUBCHEM_TOTAL_CHARGE>
0

> <PUBCHEM_HEAVY_ATOM_COUNT>
29

> <PUBCHEM_ATOM_DEF_STEREO_COUNT>
0

> <PUBCHEM_ATOM_UDEF_STEREO_COUNT>
0

> <PUBCHEM_BOND_DEF_STEREO_COUNT>
0

> <PUBCHEM_BOND_UDEF_STEREO_COUNT>
0

> <PUBCHEM_ISOTOPIC_ATOM_COUNT>
0

> <PUBCHEM_COMPONENT_COUNT>
2

> <PUBCHEM_CACTVS_TAUTO_COUNT>
-1

> <PUBCHEM_COORDINATE_TYPE>
1
5
255

> <PUBCHEM_BONDANNOTATIONS>
14  15  8
14  18  8
15  19  8
18  21  8
19  22  8
21  22  8
24  25  8
24  26  8
25  27  8
26  28  8
27  29  8
28  29  8

$$$$
