49798856
  -OEChem-09292322302D

 64 67  0     1  0  0  0  0  0999 V2000
   11.0495    1.5961    0.0000 F   0  0  0  0  0  0  0  0  0  0  0  0
    7.2578    1.1049    0.0000 O   0  0  0  0  0  0  0  0  0  0  0  0
    3.1472    0.4240    0.0000 O   0  0  0  0  0  0  0  0  0  0  0  0
    4.2257   10.6155    0.0000 O   0  0  0  0  0  0  0  0  0  0  0  0
    6.8238   10.1155    0.0000 O   0  0  0  0  0  0  0  0  0  0  0  0
    5.0917    9.1156    0.0000 O   0  0  0  0  0  0  0  0  0  0  0  0
    5.9578   11.6155    0.0000 O   0  0  0  0  0  0  0  0  0  0  0  0
    7.5669    3.6739    0.0000 N   0  0  3  0  0  0  0  0  0  0  0  0
    4.9791    2.8649    0.0000 N   0  0  0  0  0  0  0  0  0  0  0  0
    8.5179    2.3649    0.0000 N   0  0  0  0  0  0  0  0  0  0  0  0
    6.9791    2.8649    0.0000 C   0  0  0  0  0  0  0  0  0  0  0  0
    6.4791    1.9989    0.0000 C   0  0  0  0  0  0  0  0  0  0  0  0
    6.4791    3.7310    0.0000 C   0  0  0  0  0  0  0  0  0  0  0  0
    5.4791    1.9989    0.0000 C   0  0  0  0  0  0  0  0  0  0  0  0
    5.4791    3.7310    0.0000 C   0  0  0  0  0  0  0  0  0  0  0  0
    7.5669    2.0559    0.0000 C   0  0  0  0  0  0  0  0  0  0  0  0
    8.5179    3.3649    0.0000 C   0  0  0  0  0  0  0  0  0  0  0  0
    7.2578    4.6250    0.0000 C   0  0  0  0  0  0  0  0  0  0  0  0
    3.9791    2.8649    0.0000 C   0  0  0  0  0  0  0  0  0  0  0  0
    9.3269    1.7771    0.0000 C   0  0  0  0  0  0  0  0  0  0  0  0
    3.4791    1.9989    0.0000 C   0  0  0  0  0  0  0  0  0  0  0  0
    6.2797    4.8329    0.0000 C   0  0  0  0  0  0  0  0  0  0  0  0
    7.9270    5.3681    0.0000 C   0  0  0  0  0  0  0  0  0  0  0  0
   10.2405    2.1839    0.0000 C   0  0  0  0  0  0  0  0  0  0  0  0
    2.4904    1.8958    0.0000 C   0  0  0  0  0  0  0  0  0  0  0  0
    5.9707    5.7840    0.0000 C   0  0  0  0  0  0  0  0  0  0  0  0
    7.6180    6.3192    0.0000 C   0  0  0  0  0  0  0  0  0  0  0  0
    3.8842    1.0911    0.0000 C   0  0  0  0  0  0  0  0  0  0  0  0
    6.6398    6.5271    0.0000 C   0  0  0  0  0  0  0  0  0  0  0  0
    2.2841    0.9173    0.0000 C   0  0  0  0  0  0  0  0  0  0  0  0
    1.7461    2.5637    0.0000 C   0  0  0  0  0  0  0  0  0  0  0  0
    1.3336    0.6067    0.0000 C   0  0  0  0  0  0  0  0  0  0  0  0
    0.7955    2.2530    0.0000 C   0  0  0  0  0  0  0  0  0  0  0  0
    0.5893    1.2745    0.0000 C   0  0  0  0  0  0  0  0  0  0  0  0
    5.0917   10.1155    0.0000 C   0  0  0  0  0  0  0  0  0  0  0  0
    5.9578   10.6155    0.0000 C   0  0  0  0  0  0  0  0  0  0  0  0
    6.3714    1.3883    0.0000 H   0  0  0  0  0  0  0  0  0  0  0  0
    7.0617    1.7868    0.0000 H   0  0  0  0  0  0  0  0  0  0  0  0
    7.0617    3.9430    0.0000 H   0  0  0  0  0  0  0  0  0  0  0  0
    6.3714    4.3415    0.0000 H   0  0  0  0  0  0  0  0  0  0  0  0
    4.8965    1.7868    0.0000 H   0  0  0  0  0  0  0  0  0  0  0  0
    5.5868    1.3883    0.0000 H   0  0  0  0  0  0  0  0  0  0  0  0
    5.5868    4.3415    0.0000 H   0  0  0  0  0  0  0  0  0  0  0  0
    4.8965    3.9430    0.0000 H   0  0  0  0  0  0  0  0  0  0  0  0
    9.1345    3.3001    0.0000 H   0  0  0  0  0  0  0  0  0  0  0  0
    8.6468    3.9714    0.0000 H   0  0  0  0  0  0  0  0  0  0  0  0
    4.0868    3.4755    0.0000 H   0  0  0  0  0  0  0  0  0  0  0  0
    3.3965    3.0770    0.0000 H   0  0  0  0  0  0  0  0  0  0  0  0
    8.8810    1.3464    0.0000 H   0  0  0  0  0  0  0  0  0  0  0  0
    9.6736    1.2631    0.0000 H   0  0  0  0  0  0  0  0  0  0  0  0
    5.8648    4.3722    0.0000 H   0  0  0  0  0  0  0  0  0  0  0  0
    8.5334    5.2392    0.0000 H   0  0  0  0  0  0  0  0  0  0  0  0
   10.6865    2.6146    0.0000 H   0  0  0  0  0  0  0  0  0  0  0  0
    9.8938    2.6979    0.0000 H   0  0  0  0  0  0  0  0  0  0  0  0
    5.3642    5.9129    0.0000 H   0  0  0  0  0  0  0  0  0  0  0  0
    8.0328    6.7800    0.0000 H   0  0  0  0  0  0  0  0  0  0  0  0
    4.4909    0.9633    0.0000 H   0  0  0  0  0  0  0  0  0  0  0  0
    6.4482    7.1168    0.0000 H   0  0  0  0  0  0  0  0  0  0  0  0
    1.8739    3.1704    0.0000 H   0  0  0  0  0  0  0  0  0  0  0  0
    1.2058    0.0000    0.0000 H   0  0  0  0  0  0  0  0  0  0  0  0
    0.3341    2.6671    0.0000 H   0  0  0  0  0  0  0  0  0  0  0  0
    0.0000    1.0819    0.0000 H   0  0  0  0  0  0  0  0  0  0  0  0
    3.6888   10.3055    0.0000 H   0  0  0  0  0  0  0  0  0  0  0  0
    7.3607   10.4255    0.0000 H   0  0  0  0  0  0  0  0  0  0  0  0
  1 24  1  0  0  0  0
  2 16  2  0  0  0  0
  3 28  1  0  0  0  0
  3 30  1  0  0  0  0
  4 35  1  0  0  0  0
  4 63  1  0  0  0  0
  5 36  1  0  0  0  0
  5 64  1  0  0  0  0
  6 35  2  0  0  0  0
  7 36  2  0  0  0  0
  8 11  1  0  0  0  0
  8 17  1  0  0  0  0
  8 18  1  0  0  0  0
  9 14  1  0  0  0  0
  9 15  1  0  0  0  0
  9 19  1  0  0  0  0
 10 16  1  0  0  0  0
 10 17  1  0  0  0  0
 10 20  1  0  0  0  0
 11 12  1  0  0  0  0
 11 13  1  0  0  0  0
 11 16  1  0  0  0  0
 12 14  1  0  0  0  0
 12 37  1  0  0  0  0
 12 38  1  0  0  0  0
 13 15  1  0  0  0  0
 13 39  1  0  0  0  0
 13 40  1  0  0  0  0
 14 41  1  0  0  0  0
 14 42  1  0  0  0  0
 15 43  1  0  0  0  0
 15 44  1  0  0  0  0
 17 45  1  0  0  0  0
 17 46  1  0  0  0  0
 18 22  2  0  0  0  0
 18 23  1  0  0  0  0
 19 21  1  0  0  0  0
 19 47  1  0  0  0  0
 19 48  1  0  0  0  0
 20 24  1  0  0  0  0
 20 49  1  0  0  0  0
 20 50  1  0  0  0  0
 21 25  1  0  0  0  0
 21 28  2  0  0  0  0
 22 26  1  0  0  0  0
 22 51  1  0  0  0  0
 23 27  2  0  0  0  0
 23 52  1  0  0  0  0
 24 53  1  0  0  0  0
 24 54  1  0  0  0  0
 25 30  1  0  0  0  0
 25 31  2  0  0  0  0
 26 29  2  0  0  0  0
 26 55  1  0  0  0  0
 27 29  1  0  0  0  0
 27 56  1  0  0  0  0
 28 57  1  0  0  0  0
 29 58  1  0  0  0  0
 30 32  2  0  0  0  0
 31 33  1  0  0  0  0
 31 59  1  0  0  0  0
 32 34  1  0  0  0  0
 32 60  1  0  0  0  0
 33 34  2  0  0  0  0
 33 61  1  0  0  0  0
 34 62  1  0  0  0  0
 35 36  1  0  0  0  0
M  END
> <PUBCHEM_COMPOUND_CID>
49798856

> <PUBCHEM_COMPOUND_CANONICALIZED>
1

> <PUBCHEM_CACTVS_COMPLEXITY>
675

> <PUBCHEM_CACTVS_HBOND_ACCEPTOR>
9

> <PUBCHEM_CACTVS_HBOND_DONOR>
2

> <PUBCHEM_CACTVS_ROTATABLE_BOND>
6

> <PUBCHEM_CACTVS_SUBSKEYS>
AAADceB7OQAAAAAAAAAAAAAAAAAAAWJAAAA8YIAAAAAAAEgB9AAAHwAACAAADIzhmAYxzsMABkCIAq3S2AKCCAAlIgAIiAHObMiNZjrE9buWOSjuxxPJ6ae8yOCOgAAAAAAIAAAAAAAAABAAAAAAAAAAAA==

> <PUBCHEM_IUPAC_OPENEYE_NAME>
8-(benzofuran-3-ylmethyl)-3-(2-fluoroethyl)-1-phenyl-1,3,8-triazaspiro[4.5]decan-4-one;oxalic acid

> <PUBCHEM_IUPAC_CAS_NAME>
8-(3-benzofuranylmethyl)-3-(2-fluoroethyl)-1-phenyl-1,3,8-triazaspiro[4.5]decan-4-one;oxalic acid

> <PUBCHEM_IUPAC_NAME_MARKUP>
8-(1-benzofuran-3-ylmethyl)-3-(2-fluoroethyl)-1-phenyl-1,3,8-triazaspiro[4.5]decan-4-one;oxalic acid

> <PUBCHEM_IUPAC_NAME>
8-(1-benzofuran-3-ylmethyl)-3-(2-fluoroethyl)-1-phenyl-1,3,8-triazaspiro[4.5]decan-4-one;oxalic acid

> <PUBCHEM_IUPAC_SYSTEMATIC_NAME>
8-(1-benzofuran-3-ylmethyl)-3-(2-fluoranylethyl)-1-phenyl-1,3,8-triazaspiro[4.5]decan-4-one;ethanedioic acid

> <PUBCHEM_IUPAC_TRADITIONAL_NAME>
8-(benzofuran-3-ylmethyl)-3-(2-fluoroethyl)-1-phenyl-1,3,8-triazaspiro[4.5]decan-4-one;oxalic acid

> <PUBCHEM_IUPAC_INCHI>
InChI=1S/C24H26FN3O2.C2H2O4/c25-12-15-27-18-28(20-6-2-1-3-7-20)24(23(27)29)10-13-26(14-11-24)16-19-17-30-22-9-5-4-8-21(19)22;3-1(4)2(5)6/h1-9,17H,10-16,18H2;(H,3,4)(H,5,6)

> <PUBCHEM_IUPAC_INCHIKEY>
XZYPSBZYPSZOMN-UHFFFAOYSA-N

> <PUBCHEM_EXACT_MASS>
497.19621378

> <PUBCHEM_MOLECULAR_FORMULA>
C26H28FN3O6

> <PUBCHEM_MOLECULAR_WEIGHT>
497.5

> <PUBCHEM_OPENEYE_CAN_SMILES>
C1CN(CCC12C(=O)N(CN2C3=CC=CC=C3)CCF)CC4=COC5=CC=CC=C54.C(=O)(C(=O)O)O

> <PUBCHEM_OPENEYE_ISO_SMILES>
C1CN(CCC12C(=O)N(CN2C3=CC=CC=C3)CCF)CC4=COC5=CC=CC=C54.C(=O)(C(=O)O)O

> <PUBCHEM_CACTVS_TPSA>
115

> <PUBCHEM_MONOISOTOPIC_WEIGHT>
497.19621378

> <PUBCHEM_TOTAL_CHARGE>
0

> <PUBCHEM_HEAVY_ATOM_COUNT>
36

> <PUBCHEM_ATOM_DEF_STEREO_COUNT>
0

> <PUBCHEM_ATOM_UDEF_STEREO_COUNT>
0

> <PUBCHEM_BOND_DEF_STEREO_COUNT>
0

> <PUBCHEM_BOND_UDEF_STEREO_COUNT>
0

> <PUBCHEM_ISOTOPIC_ATOM_COUNT>
0

> <PUBCHEM_COMPONENT_COUNT>
2

> <PUBCHEM_CACTVS_TAUTO_COUNT>
-1

> <PUBCHEM_COORDINATE_TYPE>
1
5
255

> <PUBCHEM_BONDANNOTATIONS>
18  22  8
18  23  8
21  25  8
21  28  8
22  26  8
23  27  8
25  30  8
25  31  8
26  29  8
27  29  8
3  28  8
3  30  8
30  32  8
31  33  8
32  34  8
33  34  8

$$$$
