44353414
  -OEChem-09292322192D

 64 68  0     1  0  0  0  0  0999 V2000
    2.0000   -3.3315    0.0000 F   0  0  0  0  0  0  0  0  0  0  0  0
   12.2620    2.2905    0.0000 O   0  0  0  0  0  0  0  0  0  0  0  0
   11.5381    5.7256    0.0000 O   0  0  0  0  0  0  0  0  0  0  0  0
    6.4763   -0.6752    0.0000 N   0  0  3  0  0  0  0  0  0  0  0  0
   11.6330    3.9518    0.0000 N   0  0  0  0  0  0  0  0  0  0  0  0
    5.5443   -5.1362    0.0000 N   0  0  0  0  0  0  0  0  0  0  0  0
    6.7870    0.2753    0.0000 C   0  0  0  0  0  0  0  0  0  0  0  0
    5.4978   -0.8814    0.0000 C   0  0  0  0  0  0  0  0  0  0  0  0
    7.7654    0.4815    0.0000 C   0  0  0  0  0  0  0  0  0  0  0  0
    5.1871   -1.8320    0.0000 C   0  0  0  0  0  0  0  0  0  0  0  0
    7.1441   -1.4195    0.0000 C   0  0  0  0  0  0  0  0  0  0  0  0
    8.0761    1.4320    0.0000 C   0  0  0  0  0  0  0  0  0  0  0  0
    5.8550   -2.5762    0.0000 C   0  0  0  0  0  0  0  0  0  0  0  0
    9.0546    1.6383    0.0000 C   0  0  0  0  0  0  0  0  0  0  0  0
    9.3653    2.5888    0.0000 C   0  0  0  0  0  0  0  0  0  0  0  0
    6.8335   -2.3700    0.0000 C   0  0  0  0  0  0  0  0  0  0  0  0
   10.3438    2.7950    0.0000 C   0  0  0  0  0  0  0  0  0  0  0  0
    5.5443   -3.5268    0.0000 C   0  0  0  0  0  0  0  0  0  0  0  0
   10.6545    3.7455    0.0000 C   0  0  0  0  0  0  0  0  0  0  0  0
    4.5981   -3.8315    0.0000 C   0  0  0  0  0  0  0  0  0  0  0  0
    6.1279   -4.3315    0.0000 C   0  0  0  0  0  0  0  0  0  0  0  0
    4.5981   -4.8315    0.0000 C   0  0  0  0  0  0  0  0  0  0  0  0
   12.3700    3.2847    0.0000 C   0  0  0  0  0  0  0  0  0  0  0  0
   12.0381    4.8595    0.0000 C   0  0  0  0  0  0  0  0  0  0  0  0
    3.7320   -3.3315    0.0000 C   0  0  0  0  0  0  0  0  0  0  0  0
   13.2330    3.7780    0.0000 C   0  0  0  0  0  0  0  0  0  0  0  0
   13.0268    4.7565    0.0000 C   0  0  0  0  0  0  0  0  0  0  0  0
    3.7320   -5.3315    0.0000 C   0  0  0  0  0  0  0  0  0  0  0  0
    2.8660   -3.8315    0.0000 C   0  0  0  0  0  0  0  0  0  0  0  0
    2.8660   -4.8315    0.0000 C   0  0  0  0  0  0  0  0  0  0  0  0
   14.1835    3.4673    0.0000 C   0  0  0  0  0  0  0  0  0  0  0  0
   13.7711    5.4243    0.0000 C   0  0  0  0  0  0  0  0  0  0  0  0
   14.9278    4.1352    0.0000 C   0  0  0  0  0  0  0  0  0  0  0  0
   14.7216    5.1137    0.0000 C   0  0  0  0  0  0  0  0  0  0  0  0
    6.7664    0.8950    0.0000 H   0  0  0  0  0  0  0  0  0  0  0  0
    6.1731    0.3627    0.0000 H   0  0  0  0  0  0  0  0  0  0  0  0
    5.4772   -0.2618    0.0000 H   0  0  0  0  0  0  0  0  0  0  0  0
    4.8840   -0.7941    0.0000 H   0  0  0  0  0  0  0  0  0  0  0  0
    7.7860   -0.1381    0.0000 H   0  0  0  0  0  0  0  0  0  0  0  0
    8.3793    0.3942    0.0000 H   0  0  0  0  0  0  0  0  0  0  0  0
    4.6402   -1.5399    0.0000 H   0  0  0  0  0  0  0  0  0  0  0  0
    4.8046   -2.3199    0.0000 H   0  0  0  0  0  0  0  0  0  0  0  0
    7.6910   -1.7115    0.0000 H   0  0  0  0  0  0  0  0  0  0  0  0
    7.5267   -0.9316    0.0000 H   0  0  0  0  0  0  0  0  0  0  0  0
    8.0556    2.0517    0.0000 H   0  0  0  0  0  0  0  0  0  0  0  0
    7.4623    1.5194    0.0000 H   0  0  0  0  0  0  0  0  0  0  0  0
    9.0752    1.0186    0.0000 H   0  0  0  0  0  0  0  0  0  0  0  0
    9.6684    1.5509    0.0000 H   0  0  0  0  0  0  0  0  0  0  0  0
    9.3447    3.2084    0.0000 H   0  0  0  0  0  0  0  0  0  0  0  0
    8.7515    2.6761    0.0000 H   0  0  0  0  0  0  0  0  0  0  0  0
    7.2475   -2.8315    0.0000 H   0  0  0  0  0  0  0  0  0  0  0  0
   10.3644    2.1754    0.0000 H   0  0  0  0  0  0  0  0  0  0  0  0
   10.9576    2.7077    0.0000 H   0  0  0  0  0  0  0  0  0  0  0  0
   10.6339    4.3652    0.0000 H   0  0  0  0  0  0  0  0  0  0  0  0
   10.0406    3.8329    0.0000 H   0  0  0  0  0  0  0  0  0  0  0  0
    6.7479   -4.3315    0.0000 H   0  0  0  0  0  0  0  0  0  0  0  0
    5.7369   -5.7256    0.0000 H   0  0  0  0  0  0  0  0  0  0  0  0
    3.7320   -2.7115    0.0000 H   0  0  0  0  0  0  0  0  0  0  0  0
    3.7320   -5.9515    0.0000 H   0  0  0  0  0  0  0  0  0  0  0  0
    2.3291   -5.1415    0.0000 H   0  0  0  0  0  0  0  0  0  0  0  0
   14.3114    2.8606    0.0000 H   0  0  0  0  0  0  0  0  0  0  0  0
   13.6432    6.0310    0.0000 H   0  0  0  0  0  0  0  0  0  0  0  0
   15.5172    3.9425    0.0000 H   0  0  0  0  0  0  0  0  0  0  0  0
   15.1831    5.5277    0.0000 H   0  0  0  0  0  0  0  0  0  0  0  0
  1 29  1  0  0  0  0
  2 23  2  0  0  0  0
  3 24  2  0  0  0  0
  4  7  1  0  0  0  0
  4  8  1  0  0  0  0
  4 11  1  0  0  0  0
  5 19  1  0  0  0  0
  5 23  1  0  0  0  0
  5 24  1  0  0  0  0
  6 21  1  0  0  0  0
  6 22  1  0  0  0  0
  6 57  1  0  0  0  0
  7  9  1  0  0  0  0
  7 35  1  0  0  0  0
  7 36  1  0  0  0  0
  8 10  1  0  0  0  0
  8 37  1  0  0  0  0
  8 38  1  0  0  0  0
  9 12  1  0  0  0  0
  9 39  1  0  0  0  0
  9 40  1  0  0  0  0
 10 13  1  0  0  0  0
 10 41  1  0  0  0  0
 10 42  1  0  0  0  0
 11 16  1  0  0  0  0
 11 43  1  0  0  0  0
 11 44  1  0  0  0  0
 12 14  1  0  0  0  0
 12 45  1  0  0  0  0
 12 46  1  0  0  0  0
 13 16  2  0  0  0  0
 13 18  1  0  0  0  0
 14 15  1  0  0  0  0
 14 47  1  0  0  0  0
 14 48  1  0  0  0  0
 15 17  1  0  0  0  0
 15 49  1  0  0  0  0
 15 50  1  0  0  0  0
 16 51  1  0  0  0  0
 17 19  1  0  0  0  0
 17 52  1  0  0  0  0
 17 53  1  0  0  0  0
 18 20  1  0  0  0  0
 18 21  2  0  0  0  0
 19 54  1  0  0  0  0
 19 55  1  0  0  0  0
 20 22  2  0  0  0  0
 20 25  1  0  0  0  0
 21 56  1  0  0  0  0
 22 28  1  0  0  0  0
 23 26  1  0  0  0  0
 24 27  1  0  0  0  0
 25 29  2  0  0  0  0
 25 58  1  0  0  0  0
 26 27  1  0  0  0  0
 26 31  2  0  0  0  0
 27 32  2  0  0  0  0
 28 30  2  0  0  0  0
 28 59  1  0  0  0  0
 29 30  1  0  0  0  0
 30 60  1  0  0  0  0
 31 33  1  0  0  0  0
 31 61  1  0  0  0  0
 32 34  1  0  0  0  0
 32 62  1  0  0  0  0
 33 34  2  0  0  0  0
 33 63  1  0  0  0  0
 34 64  1  0  0  0  0
M  END
> <PUBCHEM_COMPOUND_CID>
44353414

> <PUBCHEM_COMPOUND_CANONICALIZED>
1

> <PUBCHEM_CACTVS_COMPLEXITY>
747

> <PUBCHEM_CACTVS_HBOND_ACCEPTOR>
4

> <PUBCHEM_CACTVS_HBOND_DONOR>
1

> <PUBCHEM_CACTVS_ROTATABLE_BOND>
9

> <PUBCHEM_CACTVS_SUBSKEYS>
AAADceB7MQAAAAAAAAAAAAAAAAAAAWLAAAAwYIAAAAAAAFgB9AAAHwAQAAAADAjBngw8wPPJkACoAzV3VACCgCA1AiAI2aE4ZNgIIPLAlZGEIQhgliDIyYcdiMCOgAAAAAASAAAAAAAAACQAAAAAAAAAAA==

> <PUBCHEM_IUPAC_OPENEYE_NAME>
2-[7-[4-(5-fluoro-1H-indol-3-yl)-3,6-dihydro-2H-pyridin-1-yl]heptyl]isoindoline-1,3-dione

> <PUBCHEM_IUPAC_CAS_NAME>
2-[7-[4-(5-fluoro-1H-indol-3-yl)-3,6-dihydro-2H-pyridin-1-yl]heptyl]isoindole-1,3-dione

> <PUBCHEM_IUPAC_NAME_MARKUP>
2-[7-[4-(5-fluoro-1<I>H</I>-indol-3-yl)-3,6-dihydro-2<I>H</I>-pyridin-1-yl]heptyl]isoindole-1,3-dione

> <PUBCHEM_IUPAC_NAME>
2-[7-[4-(5-fluoro-1H-indol-3-yl)-3,6-dihydro-2H-pyridin-1-yl]heptyl]isoindole-1,3-dione

> <PUBCHEM_IUPAC_SYSTEMATIC_NAME>
2-[7-[4-(5-fluoranyl-1H-indol-3-yl)-3,6-dihydro-2H-pyridin-1-yl]heptyl]isoindole-1,3-dione

> <PUBCHEM_IUPAC_TRADITIONAL_NAME>
2-[7-[4-(5-fluoro-1H-indol-3-yl)-3,6-dihydro-2H-pyridin-1-yl]heptyl]isoindoline-1,3-quinone

> <PUBCHEM_IUPAC_INCHI>
InChI=1S/C28H30FN3O2/c29-21-10-11-26-24(18-21)25(19-30-26)20-12-16-31(17-13-20)14-6-2-1-3-7-15-32-27(33)22-8-4-5-9-23(22)28(32)34/h4-5,8-12,18-19,30H,1-3,6-7,13-17H2

> <PUBCHEM_IUPAC_INCHIKEY>
PJYMXWDDSLXHGG-UHFFFAOYSA-N

> <PUBCHEM_XLOGP3_AA>
5

> <PUBCHEM_EXACT_MASS>
459.23220537

> <PUBCHEM_MOLECULAR_FORMULA>
C28H30FN3O2

> <PUBCHEM_MOLECULAR_WEIGHT>
459.6

> <PUBCHEM_OPENEYE_CAN_SMILES>
C1CN(CC=C1C2=CNC3=C2C=C(C=C3)F)CCCCCCCN4C(=O)C5=CC=CC=C5C4=O

> <PUBCHEM_OPENEYE_ISO_SMILES>
C1CN(CC=C1C2=CNC3=C2C=C(C=C3)F)CCCCCCCN4C(=O)C5=CC=CC=C5C4=O

> <PUBCHEM_CACTVS_TPSA>
56.4

> <PUBCHEM_MONOISOTOPIC_WEIGHT>
459.23220537

> <PUBCHEM_TOTAL_CHARGE>
0

> <PUBCHEM_HEAVY_ATOM_COUNT>
34

> <PUBCHEM_ATOM_DEF_STEREO_COUNT>
0

> <PUBCHEM_ATOM_UDEF_STEREO_COUNT>
0

> <PUBCHEM_BOND_DEF_STEREO_COUNT>
0

> <PUBCHEM_BOND_UDEF_STEREO_COUNT>
0

> <PUBCHEM_ISOTOPIC_ATOM_COUNT>
0

> <PUBCHEM_COMPONENT_COUNT>
1

> <PUBCHEM_CACTVS_TAUTO_COUNT>
-1

> <PUBCHEM_COORDINATE_TYPE>
1
5
255

> <PUBCHEM_BONDANNOTATIONS>
18  20  8
18  21  8
20  22  8
20  25  8
22  28  8
25  29  8
26  27  8
26  31  8
27  32  8
28  30  8
29  30  8
31  33  8
32  34  8
33  34  8
6  21  8
6  22  8

$$$$
