15467372
  -OEChem-09292322222D

 43 45  0     0  0  0  0  0  0999 V2000
    3.0510   -0.2400    0.0000 N   0  0  0  0  0  0  0  0  0  0  0  0
    3.0510   -2.2400    0.0000 N   0  0  0  0  0  0  0  0  0  0  0  0
    4.9997    2.4624    0.0000 N   0  0  0  0  0  0  0  0  0  0  0  0
    2.0000    5.2400    0.0000 N   0  0  0  0  0  0  0  0  0  0  0  0
    5.3884    4.5198    0.0000 N   0  0  0  0  0  0  0  0  0  0  0  0
    3.9170   -0.7400    0.0000 C   0  0  0  0  0  0  0  0  0  0  0  0
    2.1849   -0.7400    0.0000 C   0  0  0  0  0  0  0  0  0  0  0  0
    3.9170   -1.7400    0.0000 C   0  0  0  0  0  0  0  0  0  0  0  0
    2.1849   -1.7400    0.0000 C   0  0  0  0  0  0  0  0  0  0  0  0
    3.0510    0.7600    0.0000 C   0  0  0  0  0  0  0  0  0  0  0  0
    3.0510   -3.2400    0.0000 C   0  0  0  0  0  0  0  0  0  0  0  0
    3.9170    1.2600    0.0000 C   0  0  0  0  0  0  0  0  0  0  0  0
    4.0215    2.2545    0.0000 C   0  0  0  0  0  0  0  0  0  0  0  0
    4.8305    0.8532    0.0000 C   0  0  0  0  0  0  0  0  0  0  0  0
    2.1849   -3.7400    0.0000 C   0  0  0  0  0  0  0  0  0  0  0  0
    3.9170   -3.7400    0.0000 C   0  0  0  0  0  0  0  0  0  0  0  0
    5.4997    1.5964    0.0000 C   0  0  0  0  0  0  0  0  0  0  0  0
    2.1849   -4.7400    0.0000 C   0  0  0  0  0  0  0  0  0  0  0  0
    3.9170   -4.7400    0.0000 C   0  0  0  0  0  0  0  0  0  0  0  0
    3.2784    2.9236    0.0000 C   0  0  0  0  0  0  0  0  0  0  0  0
    3.0510   -5.2400    0.0000 C   0  0  0  0  0  0  0  0  0  0  0  0
    3.4863    3.9018    0.0000 C   0  0  0  0  0  0  0  0  0  0  0  0
    2.7431    4.5709    0.0000 C   0  0  0  0  0  0  0  0  0  0  0  0
    4.4374    4.2108    0.0000 C   0  0  0  0  0  0  0  0  0  0  0  0
    4.5276   -0.8477    0.0000 H   0  0  0  0  0  0  0  0  0  0  0  0
    4.1290   -0.1574    0.0000 H   0  0  0  0  0  0  0  0  0  0  0  0
    1.9729   -0.1574    0.0000 H   0  0  0  0  0  0  0  0  0  0  0  0
    1.5744   -0.8477    0.0000 H   0  0  0  0  0  0  0  0  0  0  0  0
    4.1290   -2.3226    0.0000 H   0  0  0  0  0  0  0  0  0  0  0  0
    4.5276   -1.6324    0.0000 H   0  0  0  0  0  0  0  0  0  0  0  0
    1.5744   -1.6324    0.0000 H   0  0  0  0  0  0  0  0  0  0  0  0
    1.9729   -2.3226    0.0000 H   0  0  0  0  0  0  0  0  0  0  0  0
    2.8389    1.3426    0.0000 H   0  0  0  0  0  0  0  0  0  0  0  0
    2.4404    0.6523    0.0000 H   0  0  0  0  0  0  0  0  0  0  0  0
    4.9594    0.2468    0.0000 H   0  0  0  0  0  0  0  0  0  0  0  0
    1.6480   -3.4300    0.0000 H   0  0  0  0  0  0  0  0  0  0  0  0
    4.4539   -3.4300    0.0000 H   0  0  0  0  0  0  0  0  0  0  0  0
    5.2518    3.0288    0.0000 H   0  0  0  0  0  0  0  0  0  0  0  0
    6.1163    1.5316    0.0000 H   0  0  0  0  0  0  0  0  0  0  0  0
    1.6480   -5.0500    0.0000 H   0  0  0  0  0  0  0  0  0  0  0  0
    4.4539   -5.0500    0.0000 H   0  0  0  0  0  0  0  0  0  0  0  0
    2.6887    2.7320    0.0000 H   0  0  0  0  0  0  0  0  0  0  0  0
    3.0510   -5.8600    0.0000 H   0  0  0  0  0  0  0  0  0  0  0  0
  1  6  1  0  0  0  0
  1  7  1  0  0  0  0
  1 10  1  0  0  0  0
  2  8  1  0  0  0  0
  2  9  1  0  0  0  0
  2 11  1  0  0  0  0
  3 13  1  0  0  0  0
  3 17  1  0  0  0  0
  3 38  1  0  0  0  0
  4 23  3  0  0  0  0
  5 24  3  0  0  0  0
  6  8  1  0  0  0  0
  6 25  1  0  0  0  0
  6 26  1  0  0  0  0
  7  9  1  0  0  0  0
  7 27  1  0  0  0  0
  7 28  1  0  0  0  0
  8 29  1  0  0  0  0
  8 30  1  0  0  0  0
  9 31  1  0  0  0  0
  9 32  1  0  0  0  0
 10 12  1  0  0  0  0
 10 33  1  0  0  0  0
 10 34  1  0  0  0  0
 11 15  2  0  0  0  0
 11 16  1  0  0  0  0
 12 13  2  0  0  0  0
 12 14  1  0  0  0  0
 13 20  1  0  0  0  0
 14 17  2  0  0  0  0
 14 35  1  0  0  0  0
 15 18  1  0  0  0  0
 15 36  1  0  0  0  0
 16 19  2  0  0  0  0
 16 37  1  0  0  0  0
 17 39  1  0  0  0  0
 18 21  2  0  0  0  0
 18 40  1  0  0  0  0
 19 21  1  0  0  0  0
 19 41  1  0  0  0  0
 20 22  2  0  0  0  0
 20 42  1  0  0  0  0
 21 43  1  0  0  0  0
 22 23  1  0  0  0  0
 22 24  1  0  0  0  0
M  END
> <PUBCHEM_COMPOUND_CID>
15467372

> <PUBCHEM_COMPOUND_CANONICALIZED>
1

> <PUBCHEM_CACTVS_COMPLEXITY>
519

> <PUBCHEM_CACTVS_HBOND_ACCEPTOR>
4

> <PUBCHEM_CACTVS_HBOND_DONOR>
1

> <PUBCHEM_CACTVS_ROTATABLE_BOND>
4

> <PUBCHEM_CACTVS_SUBSKEYS>
AAADceB7gAAAAAAAAAAAAAAAAAAAAWAAAAA8QAAAAAAAAAABwAAAHAAQAAAADAjBHgQ8wJPJkACwBzRnRACigCAxAiAI2aA4ZJgI4OLA0ZGUIAhgkADIyAcQAAAKAAAAAAAAAAAAAAAAAAAAAAAAAAAAAA==

> <PUBCHEM_IUPAC_OPENEYE_NAME>
2-[[3-[(4-phenylpiperazin-1-yl)methyl]-1H-pyrrol-2-yl]methylene]propanedinitrile

> <PUBCHEM_IUPAC_CAS_NAME>
2-[[3-[(4-phenyl-1-piperazinyl)methyl]-1H-pyrrol-2-yl]methylidene]propanedinitrile

> <PUBCHEM_IUPAC_NAME_MARKUP>
2-[[3-[(4-phenylpiperazin-1-yl)methyl]-1<I>H</I>-pyrrol-2-yl]methylidene]propanedinitrile

> <PUBCHEM_IUPAC_NAME>
2-[[3-[(4-phenylpiperazin-1-yl)methyl]-1H-pyrrol-2-yl]methylidene]propanedinitrile

> <PUBCHEM_IUPAC_SYSTEMATIC_NAME>
2-[[3-[(4-phenylpiperazin-1-yl)methyl]-1H-pyrrol-2-yl]methylidene]propanedinitrile

> <PUBCHEM_IUPAC_TRADITIONAL_NAME>
2-[[3-[(4-phenylpiperazino)methyl]-1H-pyrrol-2-yl]methylene]malononitrile

> <PUBCHEM_IUPAC_INCHI>
InChI=1S/C19H19N5/c20-13-16(14-21)12-19-17(6-7-22-19)15-23-8-10-24(11-9-23)18-4-2-1-3-5-18/h1-7,12,22H,8-11,15H2

> <PUBCHEM_IUPAC_INCHIKEY>
JXPFVJLJUKGXQP-UHFFFAOYSA-N

> <PUBCHEM_XLOGP3_AA>
2.2

> <PUBCHEM_EXACT_MASS>
317.16404563

> <PUBCHEM_MOLECULAR_FORMULA>
C19H19N5

> <PUBCHEM_MOLECULAR_WEIGHT>
317.4

> <PUBCHEM_OPENEYE_CAN_SMILES>
C1CN(CCN1CC2=C(NC=C2)C=C(C#N)C#N)C3=CC=CC=C3

> <PUBCHEM_OPENEYE_ISO_SMILES>
C1CN(CCN1CC2=C(NC=C2)C=C(C#N)C#N)C3=CC=CC=C3

> <PUBCHEM_CACTVS_TPSA>
69.8

> <PUBCHEM_MONOISOTOPIC_WEIGHT>
317.16404563

> <PUBCHEM_TOTAL_CHARGE>
0

> <PUBCHEM_HEAVY_ATOM_COUNT>
24

> <PUBCHEM_ATOM_DEF_STEREO_COUNT>
0

> <PUBCHEM_ATOM_UDEF_STEREO_COUNT>
0

> <PUBCHEM_BOND_DEF_STEREO_COUNT>
0

> <PUBCHEM_BOND_UDEF_STEREO_COUNT>
0

> <PUBCHEM_ISOTOPIC_ATOM_COUNT>
0

> <PUBCHEM_COMPONENT_COUNT>
1

> <PUBCHEM_CACTVS_TAUTO_COUNT>
-1

> <PUBCHEM_COORDINATE_TYPE>
1
5
255

> <PUBCHEM_BONDANNOTATIONS>
11  15  8
11  16  8
12  13  8
12  14  8
14  17  8
15  18  8
16  19  8
18  21  8
19  21  8
3  13  8
3  17  8

$$$$
