145983760
  -OEChem-09292322392D

 71 76  0     1  0  0  0  0  0999 V2000
    3.1235   -0.0780    0.0000 S   0  0  0  0  0  0  0  0  0  0  0  0
   11.4054   -1.1046    0.0000 S   0  0  0  0  0  0  0  0  0  0  0  0
    2.1235   -0.0780    0.0000 O   0  0  0  0  0  0  0  0  0  0  0  0
    4.1235   -0.0780    0.0000 O   0  0  0  0  0  0  0  0  0  0  0  0
    3.1235    0.9220    0.0000 N   0  0  3  0  0  0  0  0  0  0  0  0
    6.5190    0.4743    0.0000 N   0  0  0  0  0  0  0  0  0  0  0  0
    8.0827   -0.7727    0.0000 N   0  0  0  0  0  0  0  0  0  0  0  0
    4.8835   -3.1126    0.0000 N   0  0  0  0  0  0  0  0  0  0  0  0
    4.0245    1.3559    0.0000 C   0  0  1  0  0  0  0  0  0  0  0  0
    4.2470    2.3308    0.0000 C   0  0  0  0  0  0  0  0  0  0  0  0
    4.8063    0.7324    0.0000 C   0  0  0  0  0  0  0  0  0  0  0  0
    3.6235    3.1126    0.0000 C   0  0  0  0  0  0  0  0  0  0  0  0
    2.2225    1.3559    0.0000 C   0  0  0  0  0  0  0  0  0  0  0  0
    5.7372    1.0977    0.0000 C   0  0  0  0  0  0  0  0  0  0  0  0
    2.6235    3.1126    0.0000 C   0  0  0  0  0  0  0  0  0  0  0  0
    2.0000    2.3308    0.0000 C   0  0  0  0  0  0  0  0  0  0  0  0
    6.3700   -0.5146    0.0000 C   0  0  0  0  0  0  0  0  0  0  0  0
    7.4499    0.8396    0.0000 C   0  0  0  0  0  0  0  0  0  0  0  0
    7.1518   -1.1381    0.0000 C   0  0  0  0  0  0  0  0  0  0  0  0
    8.2317    0.2161    0.0000 C   0  0  0  0  0  0  0  0  0  0  0  0
    3.1235   -1.0780    0.0000 C   0  0  0  0  0  0  0  0  0  0  0  0
    8.8645   -1.3962    0.0000 C   0  0  0  0  0  0  0  0  0  0  0  0
    3.9895   -1.5780    0.0000 C   0  0  0  0  0  0  0  0  0  0  0  0
    2.2575   -1.5780    0.0000 C   0  0  0  0  0  0  0  0  0  0  0  0
    9.7954   -1.0309    0.0000 C   0  0  0  0  0  0  0  0  0  0  0  0
    8.7154   -2.3850    0.0000 C   0  0  0  0  0  0  0  0  0  0  0  0
    3.9895   -2.5780    0.0000 C   0  0  0  0  0  0  0  0  0  0  0  0
   10.5772   -1.6544    0.0000 C   0  0  0  0  0  0  0  0  0  0  0  0
    2.2575   -2.5780    0.0000 C   0  0  0  0  0  0  0  0  0  0  0  0
    4.8835   -1.0433    0.0000 C   0  0  0  0  0  0  0  0  0  0  0  0
    3.1235   -3.0780    0.0000 C   0  0  0  0  0  0  0  0  0  0  0  0
   10.1471   -0.1011    0.0000 C   0  0  0  0  0  0  0  0  0  0  0  0
    9.4973   -3.0085    0.0000 C   0  0  0  0  0  0  0  0  0  0  0  0
   10.4282   -2.6432    0.0000 C   0  0  0  0  0  0  0  0  0  0  0  0
   11.1401   -0.1466    0.0000 C   0  0  0  0  0  0  0  0  0  0  0  0
    5.7895   -1.5572    0.0000 C   0  0  0  0  0  0  0  0  0  0  0  0
    5.7895   -2.5988    0.0000 C   0  0  0  0  0  0  0  0  0  0  0  0
    3.9550    0.7398    0.0000 H   0  0  0  0  0  0  0  0  0  0  0  0
    4.8056    2.0618    0.0000 H   0  0  0  0  0  0  0  0  0  0  0  0
    4.6335    2.8156    0.0000 H   0  0  0  0  0  0  0  0  0  0  0  0
    4.3414    0.3222    0.0000 H   0  0  0  0  0  0  0  0  0  0  0  0
    5.1296    0.2034    0.0000 H   0  0  0  0  0  0  0  0  0  0  0  0
    4.1821    3.3817    0.0000 H   0  0  0  0  0  0  0  0  0  0  0  0
    3.4855    3.7171    0.0000 H   0  0  0  0  0  0  0  0  0  0  0  0
    6.2020    1.5080    0.0000 H   0  0  0  0  0  0  0  0  0  0  0  0
    5.4139    1.6268    0.0000 H   0  0  0  0  0  0  0  0  0  0  0  0
    1.6025    1.3559    0.0000 H   0  0  0  0  0  0  0  0  0  0  0  0
    2.0846    0.7514    0.0000 H   0  0  0  0  0  0  0  0  0  0  0  0
    2.7614    3.7171    0.0000 H   0  0  0  0  0  0  0  0  0  0  0  0
    2.0649    3.3817    0.0000 H   0  0  0  0  0  0  0  0  0  0  0  0
    1.6134    2.8156    0.0000 H   0  0  0  0  0  0  0  0  0  0  0  0
    1.4414    2.0618    0.0000 H   0  0  0  0  0  0  0  0  0  0  0  0
    5.7822   -0.3171    0.0000 H   0  0  0  0  0  0  0  0  0  0  0  0
    6.0734   -1.0591    0.0000 H   0  0  0  0  0  0  0  0  0  0  0  0
    7.9147    1.2498    0.0000 H   0  0  0  0  0  0  0  0  0  0  0  0
    7.1266    1.3686    0.0000 H   0  0  0  0  0  0  0  0  0  0  0  0
    6.6869   -1.5483    0.0000 H   0  0  0  0  0  0  0  0  0  0  0  0
    7.4751   -1.6671    0.0000 H   0  0  0  0  0  0  0  0  0  0  0  0
    8.8194    0.0186    0.0000 H   0  0  0  0  0  0  0  0  0  0  0  0
    8.5282    0.7606    0.0000 H   0  0  0  0  0  0  0  0  0  0  0  0
    1.7205   -1.2680    0.0000 H   0  0  0  0  0  0  0  0  0  0  0  0
    8.1383   -2.6116    0.0000 H   0  0  0  0  0  0  0  0  0  0  0  0
    1.7205   -2.8880    0.0000 H   0  0  0  0  0  0  0  0  0  0  0  0
    4.8763   -0.4234    0.0000 H   0  0  0  0  0  0  0  0  0  0  0  0
    3.1235   -3.6980    0.0000 H   0  0  0  0  0  0  0  0  0  0  0  0
    9.8064    0.4169    0.0000 H   0  0  0  0  0  0  0  0  0  0  0  0
    9.4049   -3.6216    0.0000 H   0  0  0  0  0  0  0  0  0  0  0  0
   10.9129   -3.0298    0.0000 H   0  0  0  0  0  0  0  0  0  0  0  0
   11.5267    0.3382    0.0000 H   0  0  0  0  0  0  0  0  0  0  0  0
    6.3253   -1.2451    0.0000 H   0  0  0  0  0  0  0  0  0  0  0  0
    6.3253   -2.9109    0.0000 H   0  0  0  0  0  0  0  0  0  0  0  0
  1  3  2  0  0  0  0
  1  4  2  0  0  0  0
  1  5  1  0  0  0  0
  1 21  1  0  0  0  0
  2 28  1  0  0  0  0
  2 35  1  0  0  0  0
  5  9  1  0  0  0  0
  5 13  1  0  0  0  0
  6 14  1  0  0  0  0
  6 17  1  0  0  0  0
  6 18  1  0  0  0  0
  7 19  1  0  0  0  0
  7 20  1  0  0  0  0
  7 22  1  0  0  0  0
  8 27  1  0  0  0  0
  8 37  2  0  0  0  0
  9 10  1  0  0  0  0
  9 11  1  1  0  0  0
  9 38  1  0  0  0  0
 10 12  1  0  0  0  0
 10 39  1  0  0  0  0
 10 40  1  0  0  0  0
 11 14  1  0  0  0  0
 11 41  1  0  0  0  0
 11 42  1  0  0  0  0
 12 15  1  0  0  0  0
 12 43  1  0  0  0  0
 12 44  1  0  0  0  0
 13 16  1  0  0  0  0
 13 47  1  0  0  0  0
 13 48  1  0  0  0  0
 14 45  1  0  0  0  0
 14 46  1  0  0  0  0
 15 16  1  0  0  0  0
 15 49  1  0  0  0  0
 15 50  1  0  0  0  0
 16 51  1  0  0  0  0
 16 52  1  0  0  0  0
 17 19  1  0  0  0  0
 17 53  1  0  0  0  0
 17 54  1  0  0  0  0
 18 20  1  0  0  0  0
 18 55  1  0  0  0  0
 18 56  1  0  0  0  0
 19 57  1  0  0  0  0
 19 58  1  0  0  0  0
 20 59  1  0  0  0  0
 20 60  1  0  0  0  0
 21 23  1  0  0  0  0
 21 24  2  0  0  0  0
 22 25  2  0  0  0  0
 22 26  1  0  0  0  0
 23 27  2  0  0  0  0
 23 30  1  0  0  0  0
 24 29  1  0  0  0  0
 24 61  1  0  0  0  0
 25 28  1  0  0  0  0
 25 32  1  0  0  0  0
 26 33  2  0  0  0  0
 26 62  1  0  0  0  0
 27 31  1  0  0  0  0
 28 34  2  0  0  0  0
 29 31  2  0  0  0  0
 29 63  1  0  0  0  0
 30 36  2  0  0  0  0
 30 64  1  0  0  0  0
 31 65  1  0  0  0  0
 32 35  2  0  0  0  0
 32 66  1  0  0  0  0
 33 34  1  0  0  0  0
 33 67  1  0  0  0  0
 34 68  1  0  0  0  0
 35 69  1  0  0  0  0
 36 37  1  0  0  0  0
 36 70  1  0  0  0  0
 37 71  1  0  0  0  0
M  END
> <PUBCHEM_COMPOUND_CID>
145983760

> <PUBCHEM_COMPOUND_CANONICALIZED>
1

> <PUBCHEM_CACTVS_COMPLEXITY>
843

> <PUBCHEM_CACTVS_HBOND_ACCEPTOR>
7

> <PUBCHEM_CACTVS_HBOND_DONOR>
0

> <PUBCHEM_CACTVS_ROTATABLE_BOND>
6

> <PUBCHEM_CACTVS_SUBSKEYS>
AAADcfB7sABgAAAAAAAAAAAAAAAAASAAAAA8eIEABYAAAEix/gAAHAQAQAAADCjFXgS8wfMIEAqkAzRnRHDDgLAxCjBI2Dg4ZJgIYOLg0ZGUIAxggADoyAcQgIAOAAAAACAGAAAAAAAAQAwAAAAAAAAAAA==

> <PUBCHEM_IUPAC_OPENEYE_NAME>
5-[(2S)-2-[2-[4-(benzothiophen-4-yl)piperazin-1-yl]ethyl]azepan-1-yl]sulfonylquinoline

> <PUBCHEM_IUPAC_CAS_NAME>
5-[[(2S)-2-[2-[4-(1-benzothiophen-4-yl)-1-piperazinyl]ethyl]-1-azepanyl]sulfonyl]quinoline

> <PUBCHEM_IUPAC_NAME_MARKUP>
5-[(2<I>S</I>)-2-[2-[4-(1-benzothiophen-4-yl)piperazin-1-yl]ethyl]azepan-1-yl]sulfonylquinoline

> <PUBCHEM_IUPAC_NAME>
5-[(2S)-2-[2-[4-(1-benzothiophen-4-yl)piperazin-1-yl]ethyl]azepan-1-yl]sulfonylquinoline

> <PUBCHEM_IUPAC_SYSTEMATIC_NAME>
5-[(2S)-2-[2-[4-(1-benzothiophen-4-yl)piperazin-1-yl]ethyl]azepan-1-yl]sulfonylquinoline

> <PUBCHEM_IUPAC_TRADITIONAL_NAME>
5-[(2S)-2-[2-[4-(benzothiophen-4-yl)piperazino]ethyl]azepan-1-yl]sulfonylquinoline

> <PUBCHEM_IUPAC_INCHI>
InChI=1S/C29H34N4O2S2/c34-37(35,29-12-4-9-26-24(29)8-6-15-30-26)33-16-3-1-2-7-23(33)13-17-31-18-20-32(21-19-31)27-10-5-11-28-25(27)14-22-36-28/h4-6,8-12,14-15,22-23H,1-3,7,13,16-21H2/t23-/m0/s1

> <PUBCHEM_IUPAC_INCHIKEY>
ACSUMENHCIMTQG-QHCPKHFHSA-N

> <PUBCHEM_XLOGP3_AA>
5.6

> <PUBCHEM_EXACT_MASS>
534.21231869

> <PUBCHEM_MOLECULAR_FORMULA>
C29H34N4O2S2

> <PUBCHEM_MOLECULAR_WEIGHT>
534.7

> <PUBCHEM_OPENEYE_CAN_SMILES>
C1CCC(N(CC1)S(=O)(=O)C2=CC=CC3=C2C=CC=N3)CCN4CCN(CC4)C5=C6C=CSC6=CC=C5

> <PUBCHEM_OPENEYE_ISO_SMILES>
C1CC[C@H](N(CC1)S(=O)(=O)C2=CC=CC3=C2C=CC=N3)CCN4CCN(CC4)C5=C6C=CSC6=CC=C5

> <PUBCHEM_CACTVS_TPSA>
93.4

> <PUBCHEM_MONOISOTOPIC_WEIGHT>
534.21231869

> <PUBCHEM_TOTAL_CHARGE>
0

> <PUBCHEM_HEAVY_ATOM_COUNT>
37

> <PUBCHEM_ATOM_DEF_STEREO_COUNT>
1

> <PUBCHEM_ATOM_UDEF_STEREO_COUNT>
0

> <PUBCHEM_BOND_DEF_STEREO_COUNT>
0

> <PUBCHEM_BOND_UDEF_STEREO_COUNT>
0

> <PUBCHEM_ISOTOPIC_ATOM_COUNT>
0

> <PUBCHEM_COMPONENT_COUNT>
1

> <PUBCHEM_CACTVS_TAUTO_COUNT>
-1

> <PUBCHEM_COORDINATE_TYPE>
1
5
255

> <PUBCHEM_BONDANNOTATIONS>
2  28  8
2  35  8
21  23  8
21  24  8
22  25  8
22  26  8
23  27  8
23  30  8
24  29  8
25  28  8
25  32  8
26  33  8
27  31  8
28  34  8
29  31  8
30  36  8
32  35  8
33  34  8
36  37  8
8  27  8
8  37  8
9  11  5

$$$$
