10456166
  -OEChem-09292322112D

 56 59  0     0  0  0  0  0  0999 V2000
   13.7619   -0.1690    0.0000 Cl  0  0  0  0  0  0  0  0  0  0  0  0
   15.7619   -0.1690    0.0000 Cl  0  0  0  0  0  0  0  0  0  0  0  0
    6.7619   -1.9010    0.0000 O   0  0  0  0  0  0  0  0  0  0  0  0
   10.7619    1.5630    0.0000 N   0  0  0  0  0  0  0  0  0  0  0  0
   12.7619    1.5630    0.0000 N   0  0  0  0  0  0  0  0  0  0  0  0
    6.7619   -0.1690    0.0000 N   0  0  0  0  0  0  0  0  0  0  0  0
    4.6783   -1.8398    0.0000 N   0  0  0  0  0  0  0  0  0  0  0  0
   11.2619    0.6970    0.0000 C   0  0  0  0  0  0  0  0  0  0  0  0
   11.2619    2.4291    0.0000 C   0  0  0  0  0  0  0  0  0  0  0  0
   12.2619    0.6970    0.0000 C   0  0  0  0  0  0  0  0  0  0  0  0
   12.2619    2.4291    0.0000 C   0  0  0  0  0  0  0  0  0  0  0  0
    9.7619    1.5630    0.0000 C   0  0  0  0  0  0  0  0  0  0  0  0
    9.2619    0.6970    0.0000 C   0  0  0  0  0  0  0  0  0  0  0  0
    8.2619    0.6970    0.0000 C   0  0  0  0  0  0  0  0  0  0  0  0
   13.7619    1.5630    0.0000 C   0  0  0  0  0  0  0  0  0  0  0  0
    7.7619   -0.1690    0.0000 C   0  0  0  0  0  0  0  0  0  0  0  0
   14.2619    0.6970    0.0000 C   0  0  0  0  0  0  0  0  0  0  0  0
   14.2619    2.4291    0.0000 C   0  0  0  0  0  0  0  0  0  0  0  0
   15.2619    0.6970    0.0000 C   0  0  0  0  0  0  0  0  0  0  0  0
   15.2619    2.4291    0.0000 C   0  0  0  0  0  0  0  0  0  0  0  0
   15.7619    1.5630    0.0000 C   0  0  0  0  0  0  0  0  0  0  0  0
    6.2619   -1.0350    0.0000 C   0  0  0  0  0  0  0  0  0  0  0  0
    5.2619   -1.0350    0.0000 C   0  0  0  0  0  0  0  0  0  0  0  0
    3.7320   -1.5350    0.0000 C   0  0  0  0  0  0  0  0  0  0  0  0
    3.7320   -0.5350    0.0000 C   0  0  0  0  0  0  0  0  0  0  0  0
    4.6783   -0.2303    0.0000 C   0  0  0  0  0  0  0  0  0  0  0  0
    2.8660   -2.0350    0.0000 C   0  0  0  0  0  0  0  0  0  0  0  0
    2.8660   -0.0350    0.0000 C   0  0  0  0  0  0  0  0  0  0  0  0
    2.0000   -1.5350    0.0000 C   0  0  0  0  0  0  0  0  0  0  0  0
    2.0000   -0.5350    0.0000 C   0  0  0  0  0  0  0  0  0  0  0  0
   10.6793    0.4850    0.0000 H   0  0  0  0  0  0  0  0  0  0  0  0
   11.3695    0.0864    0.0000 H   0  0  0  0  0  0  0  0  0  0  0  0
   11.3695    3.0397    0.0000 H   0  0  0  0  0  0  0  0  0  0  0  0
   10.6793    2.6411    0.0000 H   0  0  0  0  0  0  0  0  0  0  0  0
   12.1542    0.0864    0.0000 H   0  0  0  0  0  0  0  0  0  0  0  0
   12.8445    0.4850    0.0000 H   0  0  0  0  0  0  0  0  0  0  0  0
   12.8445    2.6411    0.0000 H   0  0  0  0  0  0  0  0  0  0  0  0
   12.1542    3.0397    0.0000 H   0  0  0  0  0  0  0  0  0  0  0  0
    9.8695    2.1736    0.0000 H   0  0  0  0  0  0  0  0  0  0  0  0
    9.1793    1.7751    0.0000 H   0  0  0  0  0  0  0  0  0  0  0  0
    9.1542    0.0864    0.0000 H   0  0  0  0  0  0  0  0  0  0  0  0
    9.8445    0.4850    0.0000 H   0  0  0  0  0  0  0  0  0  0  0  0
    8.3695    1.3076    0.0000 H   0  0  0  0  0  0  0  0  0  0  0  0
    7.6793    0.9091    0.0000 H   0  0  0  0  0  0  0  0  0  0  0  0
    7.6542   -0.7796    0.0000 H   0  0  0  0  0  0  0  0  0  0  0  0
    8.3445   -0.3811    0.0000 H   0  0  0  0  0  0  0  0  0  0  0  0
   13.9519    2.9660    0.0000 H   0  0  0  0  0  0  0  0  0  0  0  0
    6.4519    0.3679    0.0000 H   0  0  0  0  0  0  0  0  0  0  0  0
   15.5719    2.9660    0.0000 H   0  0  0  0  0  0  0  0  0  0  0  0
   16.3819    1.5630    0.0000 H   0  0  0  0  0  0  0  0  0  0  0  0
    4.8709   -2.4291    0.0000 H   0  0  0  0  0  0  0  0  0  0  0  0
    4.8709    0.3590    0.0000 H   0  0  0  0  0  0  0  0  0  0  0  0
    2.8660   -2.6550    0.0000 H   0  0  0  0  0  0  0  0  0  0  0  0
    2.8660    0.5850    0.0000 H   0  0  0  0  0  0  0  0  0  0  0  0
    1.4631   -1.8450    0.0000 H   0  0  0  0  0  0  0  0  0  0  0  0
    1.4631   -0.2250    0.0000 H   0  0  0  0  0  0  0  0  0  0  0  0
  1 17  1  0  0  0  0
  2 19  1  0  0  0  0
  3 22  2  0  0  0  0
  4  8  1  0  0  0  0
  4  9  1  0  0  0  0
  4 12  1  0  0  0  0
  5 10  1  0  0  0  0
  5 11  1  0  0  0  0
  5 15  1  0  0  0  0
  6 16  1  0  0  0  0
  6 22  1  0  0  0  0
  6 48  1  0  0  0  0
  7 23  1  0  0  0  0
  7 24  1  0  0  0  0
  7 51  1  0  0  0  0
  8 10  1  0  0  0  0
  8 31  1  0  0  0  0
  8 32  1  0  0  0  0
  9 11  1  0  0  0  0
  9 33  1  0  0  0  0
  9 34  1  0  0  0  0
 10 35  1  0  0  0  0
 10 36  1  0  0  0  0
 11 37  1  0  0  0  0
 11 38  1  0  0  0  0
 12 13  1  0  0  0  0
 12 39  1  0  0  0  0
 12 40  1  0  0  0  0
 13 14  1  0  0  0  0
 13 41  1  0  0  0  0
 13 42  1  0  0  0  0
 14 16  1  0  0  0  0
 14 43  1  0  0  0  0
 14 44  1  0  0  0  0
 15 17  2  0  0  0  0
 15 18  1  0  0  0  0
 16 45  1  0  0  0  0
 16 46  1  0  0  0  0
 17 19  1  0  0  0  0
 18 20  2  0  0  0  0
 18 47  1  0  0  0  0
 19 21  2  0  0  0  0
 20 21  1  0  0  0  0
 20 49  1  0  0  0  0
 21 50  1  0  0  0  0
 22 23  1  0  0  0  0
 23 26  2  0  0  0  0
 24 25  1  0  0  0  0
 24 27  2  0  0  0  0
 25 26  1  0  0  0  0
 25 28  2  0  0  0  0
 26 52  1  0  0  0  0
 27 29  1  0  0  0  0
 27 53  1  0  0  0  0
 28 30  1  0  0  0  0
 28 54  1  0  0  0  0
 29 30  2  0  0  0  0
 29 55  1  0  0  0  0
 30 56  1  0  0  0  0
M  END
> <PUBCHEM_COMPOUND_CID>
10456166

> <PUBCHEM_COMPOUND_CANONICALIZED>
1

> <PUBCHEM_CACTVS_COMPLEXITY>
557

> <PUBCHEM_CACTVS_HBOND_ACCEPTOR>
3

> <PUBCHEM_CACTVS_HBOND_DONOR>
2

> <PUBCHEM_CACTVS_ROTATABLE_BOND>
7

> <PUBCHEM_CACTVS_SUBSKEYS>
AAADceB7oAAGAAAAAAAAAAAAAAAAAWAAAAA8YIAAAAAAAFgB9AAAHgIQAAAADArBniQwwPPJkACoAyVyVACCgCAnByAIm+G4ZtgIYPLBl7HUIQhglgDIyYcYiYCeAAAAAAICABQAAAAABAQAKAAAAAAAAA==

> <PUBCHEM_IUPAC_OPENEYE_NAME>
N-[4-[4-(2,3-dichlorophenyl)piperazin-1-yl]butyl]-1H-indole-2-carboxamide

> <PUBCHEM_IUPAC_CAS_NAME>
N-[4-[4-(2,3-dichlorophenyl)-1-piperazinyl]butyl]-1H-indole-2-carboxamide

> <PUBCHEM_IUPAC_NAME_MARKUP>
<I>N</I>-[4-[4-(2,3-dichlorophenyl)piperazin-1-yl]butyl]-1<I>H</I>-indole-2-carboxamide

> <PUBCHEM_IUPAC_NAME>
N-[4-[4-(2,3-dichlorophenyl)piperazin-1-yl]butyl]-1H-indole-2-carboxamide

> <PUBCHEM_IUPAC_SYSTEMATIC_NAME>
N-[4-[4-[2,3-bis(chloranyl)phenyl]piperazin-1-yl]butyl]-1H-indole-2-carboxamide

> <PUBCHEM_IUPAC_TRADITIONAL_NAME>
N-[4-[4-(2,3-dichlorophenyl)piperazino]butyl]-1H-indole-2-carboxamide

> <PUBCHEM_IUPAC_INCHI>
InChI=1S/C23H26Cl2N4O/c24-18-7-5-9-21(22(18)25)29-14-12-28(13-15-29)11-4-3-10-26-23(30)20-16-17-6-1-2-8-19(17)27-20/h1-2,5-9,16,27H,3-4,10-15H2,(H,26,30)

> <PUBCHEM_IUPAC_INCHIKEY>
WIYPXJWKJSYBKF-UHFFFAOYSA-N

> <PUBCHEM_XLOGP3_AA>
5.3

> <PUBCHEM_EXACT_MASS>
444.1483669

> <PUBCHEM_MOLECULAR_FORMULA>
C23H26Cl2N4O

> <PUBCHEM_MOLECULAR_WEIGHT>
445.4

> <PUBCHEM_OPENEYE_CAN_SMILES>
C1CN(CCN1CCCCNC(=O)C2=CC3=CC=CC=C3N2)C4=C(C(=CC=C4)Cl)Cl

> <PUBCHEM_OPENEYE_ISO_SMILES>
C1CN(CCN1CCCCNC(=O)C2=CC3=CC=CC=C3N2)C4=C(C(=CC=C4)Cl)Cl

> <PUBCHEM_CACTVS_TPSA>
51.4

> <PUBCHEM_MONOISOTOPIC_WEIGHT>
444.1483669

> <PUBCHEM_TOTAL_CHARGE>
0

> <PUBCHEM_HEAVY_ATOM_COUNT>
30

> <PUBCHEM_ATOM_DEF_STEREO_COUNT>
0

> <PUBCHEM_ATOM_UDEF_STEREO_COUNT>
0

> <PUBCHEM_BOND_DEF_STEREO_COUNT>
0

> <PUBCHEM_BOND_UDEF_STEREO_COUNT>
0

> <PUBCHEM_ISOTOPIC_ATOM_COUNT>
0

> <PUBCHEM_COMPONENT_COUNT>
1

> <PUBCHEM_CACTVS_TAUTO_COUNT>
-1

> <PUBCHEM_COORDINATE_TYPE>
1
5
255

> <PUBCHEM_BONDANNOTATIONS>
15  17  8
15  18  8
17  19  8
18  20  8
19  21  8
20  21  8
23  26  8
24  25  8
24  27  8
25  26  8
25  28  8
27  29  8
28  30  8
29  30  8
7  23  8
7  24  8

$$$$
