118709175
  -OEChem-09292322352D

 65 67  0     0  0  0  0  0  0999 V2000
    8.5000    6.2320    0.0000 Cl  0  0  0  0  0  0  0  0  0  0  0  0
    4.7680   -6.2320    0.0000 F   0  0  0  0  0  0  0  0  0  0  0  0
    6.0000    3.6340    0.0000 O   0  0  0  0  0  0  0  0  0  0  0  0
    4.5000    2.7680    0.0000 O   0  0  0  0  0  0  0  0  0  0  0  0
    3.9019   -1.7320    0.0000 O   0  0  0  0  0  0  0  0  0  0  0  0
    6.5000    0.7679    0.0000 N   0  0  0  0  0  0  0  0  0  0  0  0
    3.0000    5.3660    0.0000 N   0  0  0  0  0  0  0  0  0  0  0  0
    6.5000    2.7680    0.0000 C   0  0  0  0  0  0  0  0  0  0  0  0
    7.3660    2.2680    0.0000 C   0  0  0  0  0  0  0  0  0  0  0  0
    5.6340    2.2680    0.0000 C   0  0  0  0  0  0  0  0  0  0  0  0
    7.3660    1.2680    0.0000 C   0  0  0  0  0  0  0  0  0  0  0  0
    5.6340    1.2680    0.0000 C   0  0  0  0  0  0  0  0  0  0  0  0
    7.0000    3.6340    0.0000 C   0  0  0  0  0  0  0  0  0  0  0  0
    6.5000   -0.2321    0.0000 C   0  0  0  0  0  0  0  0  0  0  0  0
    5.6340   -0.7321    0.0000 C   0  0  0  0  0  0  0  0  0  0  0  0
    6.5000    4.5000    0.0000 C   0  0  0  0  0  0  0  0  0  0  0  0
    8.0000    3.6340    0.0000 C   0  0  0  0  0  0  0  0  0  0  0  0
    5.0000    3.6340    0.0000 C   0  0  0  0  0  0  0  0  0  0  0  0
    5.6340   -1.7320    0.0000 C   0  0  0  0  0  0  0  0  0  0  0  0
    7.0000    5.3660    0.0000 C   0  0  0  0  0  0  0  0  0  0  0  0
    8.5000    4.5000    0.0000 C   0  0  0  0  0  0  0  0  0  0  0  0
    4.5000    4.5000    0.0000 C   0  0  0  0  0  0  0  0  0  0  0  0
    8.0000    5.3660    0.0000 C   0  0  0  0  0  0  0  0  0  0  0  0
    4.7680   -2.2320    0.0000 C   0  0  0  0  0  0  0  0  0  0  0  0
    3.5000    4.5000    0.0000 C   0  0  0  0  0  0  0  0  0  0  0  0
    4.7680   -3.2320    0.0000 C   0  0  0  0  0  0  0  0  0  0  0  0
    2.0000    5.3660    0.0000 C   0  0  0  0  0  0  0  0  0  0  0  0
    3.5000    6.2320    0.0000 C   0  0  0  0  0  0  0  0  0  0  0  0
    5.6340   -3.7320    0.0000 C   0  0  0  0  0  0  0  0  0  0  0  0
    3.9019   -3.7320    0.0000 C   0  0  0  0  0  0  0  0  0  0  0  0
    5.6340   -4.7320    0.0000 C   0  0  0  0  0  0  0  0  0  0  0  0
    3.9019   -4.7320    0.0000 C   0  0  0  0  0  0  0  0  0  0  0  0
    4.7680   -5.2320    0.0000 C   0  0  0  0  0  0  0  0  0  0  0  0
    7.9766    2.1603    0.0000 H   0  0  0  0  0  0  0  0  0  0  0  0
    7.5781    2.8506    0.0000 H   0  0  0  0  0  0  0  0  0  0  0  0
    5.4219    2.8506    0.0000 H   0  0  0  0  0  0  0  0  0  0  0  0
    5.0234    2.1603    0.0000 H   0  0  0  0  0  0  0  0  0  0  0  0
    7.5781    0.6853    0.0000 H   0  0  0  0  0  0  0  0  0  0  0  0
    7.9766    1.3756    0.0000 H   0  0  0  0  0  0  0  0  0  0  0  0
    5.0234    1.3756    0.0000 H   0  0  0  0  0  0  0  0  0  0  0  0
    5.4219    0.6853    0.0000 H   0  0  0  0  0  0  0  0  0  0  0  0
    6.7120   -0.8147    0.0000 H   0  0  0  0  0  0  0  0  0  0  0  0
    7.1106   -0.1244    0.0000 H   0  0  0  0  0  0  0  0  0  0  0  0
    5.4219   -0.1494    0.0000 H   0  0  0  0  0  0  0  0  0  0  0  0
    5.0234   -0.8397    0.0000 H   0  0  0  0  0  0  0  0  0  0  0  0
    5.8800    4.5000    0.0000 H   0  0  0  0  0  0  0  0  0  0  0  0
    8.3100    3.0970    0.0000 H   0  0  0  0  0  0  0  0  0  0  0  0
    5.8460   -2.3147    0.0000 H   0  0  0  0  0  0  0  0  0  0  0  0
    6.2446   -1.6244    0.0000 H   0  0  0  0  0  0  0  0  0  0  0  0
    6.6900    5.9030    0.0000 H   0  0  0  0  0  0  0  0  0  0  0  0
    9.1200    4.5000    0.0000 H   0  0  0  0  0  0  0  0  0  0  0  0
    5.0826    4.7120    0.0000 H   0  0  0  0  0  0  0  0  0  0  0  0
    4.3923    5.1106    0.0000 H   0  0  0  0  0  0  0  0  0  0  0  0
    2.9174    4.2880    0.0000 H   0  0  0  0  0  0  0  0  0  0  0  0
    3.6077    3.8894    0.0000 H   0  0  0  0  0  0  0  0  0  0  0  0
    2.0000    5.9860    0.0000 H   0  0  0  0  0  0  0  0  0  0  0  0
    1.3800    5.3660    0.0000 H   0  0  0  0  0  0  0  0  0  0  0  0
    2.0000    4.7460    0.0000 H   0  0  0  0  0  0  0  0  0  0  0  0
    4.0369    5.9220    0.0000 H   0  0  0  0  0  0  0  0  0  0  0  0
    3.8100    6.7690    0.0000 H   0  0  0  0  0  0  0  0  0  0  0  0
    2.9631    6.5420    0.0000 H   0  0  0  0  0  0  0  0  0  0  0  0
    6.1709   -3.4220    0.0000 H   0  0  0  0  0  0  0  0  0  0  0  0
    3.3650   -3.4220    0.0000 H   0  0  0  0  0  0  0  0  0  0  0  0
    6.1709   -5.0420    0.0000 H   0  0  0  0  0  0  0  0  0  0  0  0
    3.3650   -5.0420    0.0000 H   0  0  0  0  0  0  0  0  0  0  0  0
  1 23  1  0  0  0  0
  2 33  1  0  0  0  0
  3  8  1  0  0  0  0
  3 18  1  0  0  0  0
  4 18  2  0  0  0  0
  5 24  2  0  0  0  0
  6 11  1  0  0  0  0
  6 12  1  0  0  0  0
  6 14  1  0  0  0  0
  7 25  1  0  0  0  0
  7 27  1  0  0  0  0
  7 28  1  0  0  0  0
  8  9  1  0  0  0  0
  8 10  1  0  0  0  0
  8 13  1  0  0  0  0
  9 11  1  0  0  0  0
  9 34  1  0  0  0  0
  9 35  1  0  0  0  0
 10 12  1  0  0  0  0
 10 36  1  0  0  0  0
 10 37  1  0  0  0  0
 11 38  1  0  0  0  0
 11 39  1  0  0  0  0
 12 40  1  0  0  0  0
 12 41  1  0  0  0  0
 13 16  2  0  0  0  0
 13 17  1  0  0  0  0
 14 15  1  0  0  0  0
 14 42  1  0  0  0  0
 14 43  1  0  0  0  0
 15 19  1  0  0  0  0
 15 44  1  0  0  0  0
 15 45  1  0  0  0  0
 16 20  1  0  0  0  0
 16 46  1  0  0  0  0
 17 21  2  0  0  0  0
 17 47  1  0  0  0  0
 18 22  1  0  0  0  0
 19 24  1  0  0  0  0
 19 48  1  0  0  0  0
 19 49  1  0  0  0  0
 20 23  2  0  0  0  0
 20 50  1  0  0  0  0
 21 23  1  0  0  0  0
 21 51  1  0  0  0  0
 22 25  1  0  0  0  0
 22 52  1  0  0  0  0
 22 53  1  0  0  0  0
 24 26  1  0  0  0  0
 25 54  1  0  0  0  0
 25 55  1  0  0  0  0
 26 29  2  0  0  0  0
 26 30  1  0  0  0  0
 27 56  1  0  0  0  0
 27 57  1  0  0  0  0
 27 58  1  0  0  0  0
 28 59  1  0  0  0  0
 28 60  1  0  0  0  0
 28 61  1  0  0  0  0
 29 31  1  0  0  0  0
 29 62  1  0  0  0  0
 30 32  2  0  0  0  0
 30 63  1  0  0  0  0
 31 33  2  0  0  0  0
 31 64  1  0  0  0  0
 32 33  1  0  0  0  0
 32 65  1  0  0  0  0
M  END
> <PUBCHEM_COMPOUND_CID>
118709175

> <PUBCHEM_COMPOUND_CANONICALIZED>
1

> <PUBCHEM_CACTVS_COMPLEXITY>
623

> <PUBCHEM_CACTVS_HBOND_ACCEPTOR>
6

> <PUBCHEM_CACTVS_HBOND_DONOR>
0

> <PUBCHEM_CACTVS_ROTATABLE_BOND>
11

> <PUBCHEM_CACTVS_SUBSKEYS>
AAADcfB7MQAEAAAAAAAAAAAAAAAAAAAAAAA8YIAAAAAAAAABQAAAHwIAAAAADEbBmCwyCIMABACIAqDSCAACAAAkBQAIiAEICsgIJjqBtxiGMQAmwAGIqYecyOCOhAAAAAAAAAAIAAAAAAAAAAAAAAAAAA==

> <PUBCHEM_IUPAC_OPENEYE_NAME>
[4-(4-chlorophenyl)-1-[4-(4-fluorophenyl)-4-oxo-butyl]-4-piperidyl] 3-(dimethylamino)propanoate

> <PUBCHEM_IUPAC_CAS_NAME>
3-(dimethylamino)propanoic acid [4-(4-chlorophenyl)-1-[4-(4-fluorophenyl)-4-oxobutyl]-4-piperidinyl] ester

> <PUBCHEM_IUPAC_NAME_MARKUP>
[4-(4-chlorophenyl)-1-[4-(4-fluorophenyl)-4-oxobutyl]piperidin-4-yl] 3-(dimethylamino)propanoate

> <PUBCHEM_IUPAC_NAME>
[4-(4-chlorophenyl)-1-[4-(4-fluorophenyl)-4-oxobutyl]piperidin-4-yl] 3-(dimethylamino)propanoate

> <PUBCHEM_IUPAC_SYSTEMATIC_NAME>
[4-(4-chlorophenyl)-1-[4-(4-fluorophenyl)-4-oxidanylidene-butyl]piperidin-4-yl] 3-(dimethylamino)propanoate

> <PUBCHEM_IUPAC_TRADITIONAL_NAME>
3-(dimethylamino)propionic acid [4-(4-chlorophenyl)-1-[4-(4-fluorophenyl)-4-keto-butyl]-4-piperidyl] ester

> <PUBCHEM_IUPAC_INCHI>
InChI=1S/C26H32ClFN2O3/c1-29(2)17-13-25(32)33-26(21-7-9-22(27)10-8-21)14-18-30(19-15-26)16-3-4-24(31)20-5-11-23(28)12-6-20/h5-12H,3-4,13-19H2,1-2H3

> <PUBCHEM_IUPAC_INCHIKEY>
KNNFNZWUUKLWQS-UHFFFAOYSA-N

> <PUBCHEM_XLOGP3>
3.8

> <PUBCHEM_EXACT_MASS>
474.2085487

> <PUBCHEM_MOLECULAR_FORMULA>
C26H32ClFN2O3

> <PUBCHEM_MOLECULAR_WEIGHT>
475.0

> <PUBCHEM_OPENEYE_CAN_SMILES>
CN(C)CCC(=O)OC1(CCN(CC1)CCCC(=O)C2=CC=C(C=C2)F)C3=CC=C(C=C3)Cl

> <PUBCHEM_OPENEYE_ISO_SMILES>
CN(C)CCC(=O)OC1(CCN(CC1)CCCC(=O)C2=CC=C(C=C2)F)C3=CC=C(C=C3)Cl

> <PUBCHEM_CACTVS_TPSA>
49.8

> <PUBCHEM_MONOISOTOPIC_WEIGHT>
474.2085487

> <PUBCHEM_TOTAL_CHARGE>
0

> <PUBCHEM_HEAVY_ATOM_COUNT>
33

> <PUBCHEM_ATOM_DEF_STEREO_COUNT>
0

> <PUBCHEM_ATOM_UDEF_STEREO_COUNT>
0

> <PUBCHEM_BOND_DEF_STEREO_COUNT>
0

> <PUBCHEM_BOND_UDEF_STEREO_COUNT>
0

> <PUBCHEM_ISOTOPIC_ATOM_COUNT>
0

> <PUBCHEM_COMPONENT_COUNT>
1

> <PUBCHEM_CACTVS_TAUTO_COUNT>
-1

> <PUBCHEM_COORDINATE_TYPE>
1
5
255

> <PUBCHEM_BONDANNOTATIONS>
13  16  8
13  17  8
16  20  8
17  21  8
20  23  8
21  23  8
26  29  8
26  30  8
29  31  8
30  32  8
31  33  8
32  33  8

$$$$
