118726004
  -OEChem-09292322022D

 92 95  0     0  0  0  0  0  0999 V2000
    2.8660   -0.6550    0.0000 O   0  0  0  0  0  0  0  0  0  0  0  0
   14.9904   -1.6550    0.0000 O   0  0  0  0  0  0  0  0  0  0  0  0
   18.4545   -0.6550    0.0000 O   0  0  0  0  0  0  0  0  0  0  0  0
    3.7320    0.8450    0.0000 O   0  0  0  0  0  0  0  0  0  0  0  0
   29.3663    1.1540    0.0000 O   0  0  0  0  0  0  0  0  0  0  0  0
   14.1244   -0.1550    0.0000 N   0  0  0  0  0  0  0  0  0  0  0  0
   23.6506    1.3450    0.0000 N   0  0  0  0  0  0  0  0  0  0  0  0
   26.2487   -0.1550    0.0000 N   0  0  0  0  0  0  0  0  0  0  0  0
   25.3827    1.3450    0.0000 N   0  0  0  0  0  0  0  0  0  0  0  0
   24.5167   -0.1550    0.0000 N   0  0  0  0  0  0  0  0  0  0  0  0
   27.1949   -0.4597    0.0000 N   0  0  0  0  0  0  0  0  0  0  0  0
   27.1949    1.1497    0.0000 N   0  0  0  0  0  0  0  0  0  0  0  0
   25.3827   -1.6550    0.0000 N   0  0  0  0  0  0  0  0  0  0  0  0
    8.9282   -0.1550    0.0000 C   0  0  0  0  0  0  0  0  0  0  0  0
    9.7942   -0.6550    0.0000 C   0  0  0  0  0  0  0  0  0  0  0  0
    8.0622   -0.6550    0.0000 C   0  0  0  0  0  0  0  0  0  0  0  0
   10.6603   -0.1550    0.0000 C   0  0  0  0  0  0  0  0  0  0  0  0
    7.1962   -0.1550    0.0000 C   0  0  0  0  0  0  0  0  0  0  0  0
   11.5263   -0.6550    0.0000 C   0  0  0  0  0  0  0  0  0  0  0  0
    6.3301   -0.6550    0.0000 C   0  0  0  0  0  0  0  0  0  0  0  0
   12.3923   -0.1550    0.0000 C   0  0  0  0  0  0  0  0  0  0  0  0
    5.4641   -0.1550    0.0000 C   0  0  0  0  0  0  0  0  0  0  0  0
   13.2583   -0.6550    0.0000 C   0  0  0  0  0  0  0  0  0  0  0  0
    4.5981   -0.6550    0.0000 C   0  0  0  0  0  0  0  0  0  0  0  0
   14.9904   -0.6550    0.0000 C   0  0  0  0  0  0  0  0  0  0  0  0
    3.7320   -0.1550    0.0000 C   0  0  0  0  0  0  0  0  0  0  0  0
   15.8564   -0.1550    0.0000 C   0  0  0  0  0  0  0  0  0  0  0  0
   16.7224   -0.6550    0.0000 C   0  0  0  0  0  0  0  0  0  0  0  0
   17.5885   -0.1550    0.0000 C   0  0  0  0  0  0  0  0  0  0  0  0
   21.9186    1.3450    0.0000 C   0  0  0  0  0  0  0  0  0  0  0  0
   21.0526    0.8450    0.0000 C   0  0  0  0  0  0  0  0  0  0  0  0
   19.3205   -0.1550    0.0000 C   0  0  0  0  0  0  0  0  0  0  0  0
   22.7846    0.8450    0.0000 C   0  0  0  0  0  0  0  0  0  0  0  0
    2.0000   -0.1550    0.0000 C   0  0  0  0  0  0  0  0  0  0  0  0
   21.0526   -0.1550    0.0000 C   0  0  0  0  0  0  0  0  0  0  0  0
   20.1865    1.3450    0.0000 C   0  0  0  0  0  0  0  0  0  0  0  0
   20.1865   -0.6550    0.0000 C   0  0  0  0  0  0  0  0  0  0  0  0
   19.3205    0.8450    0.0000 C   0  0  0  0  0  0  0  0  0  0  0  0
   24.5167    0.8450    0.0000 C   0  0  0  0  0  0  0  0  0  0  0  0
   26.2487    0.8450    0.0000 C   0  0  0  0  0  0  0  0  0  0  0  0
   25.3827   -0.6550    0.0000 C   0  0  0  0  0  0  0  0  0  0  0  0
   27.7785    0.3450    0.0000 C   0  0  0  0  0  0  0  0  0  0  0  0
   28.7785    0.3450    0.0000 C   0  0  0  0  0  0  0  0  0  0  0  0
   29.3663   -0.4640    0.0000 C   0  0  0  0  0  0  0  0  0  0  0  0
   30.3174   -0.1550    0.0000 C   0  0  0  0  0  0  0  0  0  0  0  0
   30.3174    0.8450    0.0000 C   0  0  0  0  0  0  0  0  0  0  0  0
    9.3267    0.3199    0.0000 H   0  0  0  0  0  0  0  0  0  0  0  0
    8.5297    0.3199    0.0000 H   0  0  0  0  0  0  0  0  0  0  0  0
    9.3957   -1.1300    0.0000 H   0  0  0  0  0  0  0  0  0  0  0  0
   10.1928   -1.1300    0.0000 H   0  0  0  0  0  0  0  0  0  0  0  0
    7.6636   -1.1300    0.0000 H   0  0  0  0  0  0  0  0  0  0  0  0
    8.4607   -1.1300    0.0000 H   0  0  0  0  0  0  0  0  0  0  0  0
   11.0588    0.3199    0.0000 H   0  0  0  0  0  0  0  0  0  0  0  0
   10.2617    0.3199    0.0000 H   0  0  0  0  0  0  0  0  0  0  0  0
    7.5947    0.3199    0.0000 H   0  0  0  0  0  0  0  0  0  0  0  0
    6.7976    0.3199    0.0000 H   0  0  0  0  0  0  0  0  0  0  0  0
   11.1278   -1.1300    0.0000 H   0  0  0  0  0  0  0  0  0  0  0  0
   11.9248   -1.1300    0.0000 H   0  0  0  0  0  0  0  0  0  0  0  0
    5.9316   -1.1300    0.0000 H   0  0  0  0  0  0  0  0  0  0  0  0
    6.7287   -1.1300    0.0000 H   0  0  0  0  0  0  0  0  0  0  0  0
   12.7908    0.3199    0.0000 H   0  0  0  0  0  0  0  0  0  0  0  0
   11.9938    0.3199    0.0000 H   0  0  0  0  0  0  0  0  0  0  0  0
    5.8626    0.3199    0.0000 H   0  0  0  0  0  0  0  0  0  0  0  0
    5.0656    0.3199    0.0000 H   0  0  0  0  0  0  0  0  0  0  0  0
   12.8598   -1.1300    0.0000 H   0  0  0  0  0  0  0  0  0  0  0  0
   13.6569   -1.1300    0.0000 H   0  0  0  0  0  0  0  0  0  0  0  0
    4.1996   -1.1300    0.0000 H   0  0  0  0  0  0  0  0  0  0  0  0
    4.9966   -1.1300    0.0000 H   0  0  0  0  0  0  0  0  0  0  0  0
   14.1244    0.4650    0.0000 H   0  0  0  0  0  0  0  0  0  0  0  0
   16.2549    0.3199    0.0000 H   0  0  0  0  0  0  0  0  0  0  0  0
   15.4579    0.3199    0.0000 H   0  0  0  0  0  0  0  0  0  0  0  0
   16.3239   -1.1300    0.0000 H   0  0  0  0  0  0  0  0  0  0  0  0
   17.1210   -1.1300    0.0000 H   0  0  0  0  0  0  0  0  0  0  0  0
   17.9870    0.3199    0.0000 H   0  0  0  0  0  0  0  0  0  0  0  0
   17.1899    0.3199    0.0000 H   0  0  0  0  0  0  0  0  0  0  0  0
   22.3171    1.8200    0.0000 H   0  0  0  0  0  0  0  0  0  0  0  0
   21.5201    1.8200    0.0000 H   0  0  0  0  0  0  0  0  0  0  0  0
   22.3861    0.3701    0.0000 H   0  0  0  0  0  0  0  0  0  0  0  0
   23.1831    0.3701    0.0000 H   0  0  0  0  0  0  0  0  0  0  0  0
    2.3100    0.3819    0.0000 H   0  0  0  0  0  0  0  0  0  0  0  0
    1.4631    0.1550    0.0000 H   0  0  0  0  0  0  0  0  0  0  0  0
    1.6900   -0.6919    0.0000 H   0  0  0  0  0  0  0  0  0  0  0  0
   21.5895   -0.4650    0.0000 H   0  0  0  0  0  0  0  0  0  0  0  0
   20.1865    1.9650    0.0000 H   0  0  0  0  0  0  0  0  0  0  0  0
   20.1865   -1.2750    0.0000 H   0  0  0  0  0  0  0  0  0  0  0  0
   18.7836    1.1550    0.0000 H   0  0  0  0  0  0  0  0  0  0  0  0
   23.6506    1.9650    0.0000 H   0  0  0  0  0  0  0  0  0  0  0  0
   24.8458   -1.9650    0.0000 H   0  0  0  0  0  0  0  0  0  0  0  0
   25.9196   -1.9650    0.0000 H   0  0  0  0  0  0  0  0  0  0  0  0
   29.1747   -1.0537    0.0000 H   0  0  0  0  0  0  0  0  0  0  0  0
   30.8190   -0.5194    0.0000 H   0  0  0  0  0  0  0  0  0  0  0  0
   30.8190    1.2094    0.0000 H   0  0  0  0  0  0  0  0  0  0  0  0
  1 26  1  0  0  0  0
  1 34  1  0  0  0  0
  2 25  2  0  0  0  0
  3 29  1  0  0  0  0
  3 32  1  0  0  0  0
  4 26  2  0  0  0  0
  5 43  1  0  0  0  0
  5 46  1  0  0  0  0
  6 23  1  0  0  0  0
  6 25  1  0  0  0  0
  6 69  1  0  0  0  0
  7 33  1  0  0  0  0
  7 39  1  0  0  0  0
  7 87  1  0  0  0  0
  8 11  1  0  0  0  0
  8 40  1  0  0  0  0
  8 41  1  0  0  0  0
  9 39  2  0  0  0  0
  9 40  1  0  0  0  0
 10 39  1  0  0  0  0
 10 41  2  0  0  0  0
 11 42  2  0  0  0  0
 12 40  2  0  0  0  0
 12 42  1  0  0  0  0
 13 41  1  0  0  0  0
 13 88  1  0  0  0  0
 13 89  1  0  0  0  0
 14 15  1  0  0  0  0
 14 16  1  0  0  0  0
 14 47  1  0  0  0  0
 14 48  1  0  0  0  0
 15 17  1  0  0  0  0
 15 49  1  0  0  0  0
 15 50  1  0  0  0  0
 16 18  1  0  0  0  0
 16 51  1  0  0  0  0
 16 52  1  0  0  0  0
 17 19  1  0  0  0  0
 17 53  1  0  0  0  0
 17 54  1  0  0  0  0
 18 20  1  0  0  0  0
 18 55  1  0  0  0  0
 18 56  1  0  0  0  0
 19 21  1  0  0  0  0
 19 57  1  0  0  0  0
 19 58  1  0  0  0  0
 20 22  1  0  0  0  0
 20 59  1  0  0  0  0
 20 60  1  0  0  0  0
 21 23  1  0  0  0  0
 21 61  1  0  0  0  0
 21 62  1  0  0  0  0
 22 24  1  0  0  0  0
 22 63  1  0  0  0  0
 22 64  1  0  0  0  0
 23 65  1  0  0  0  0
 23 66  1  0  0  0  0
 24 26  1  0  0  0  0
 24 67  1  0  0  0  0
 24 68  1  0  0  0  0
 25 27  1  0  0  0  0
 27 28  1  0  0  0  0
 27 70  1  0  0  0  0
 27 71  1  0  0  0  0
 28 29  1  0  0  0  0
 28 72  1  0  0  0  0
 28 73  1  0  0  0  0
 29 74  1  0  0  0  0
 29 75  1  0  0  0  0
 30 31  1  0  0  0  0
 30 33  1  0  0  0  0
 30 76  1  0  0  0  0
 30 77  1  0  0  0  0
 31 35  2  0  0  0  0
 31 36  1  0  0  0  0
 32 37  2  0  0  0  0
 32 38  1  0  0  0  0
 33 78  1  0  0  0  0
 33 79  1  0  0  0  0
 34 80  1  0  0  0  0
 34 81  1  0  0  0  0
 34 82  1  0  0  0  0
 35 37  1  0  0  0  0
 35 83  1  0  0  0  0
 36 38  2  0  0  0  0
 36 84  1  0  0  0  0
 37 85  1  0  0  0  0
 38 86  1  0  0  0  0
 42 43  1  0  0  0  0
 43 44  2  0  0  0  0
 44 45  1  0  0  0  0
 44 90  1  0  0  0  0
 45 46  2  0  0  0  0
 45 91  1  0  0  0  0
 46 92  1  0  0  0  0
M  END
> <PUBCHEM_COMPOUND_CID>
118726004

> <PUBCHEM_COMPOUND_CANONICALIZED>
1

> <PUBCHEM_CACTVS_COMPLEXITY>
864

> <PUBCHEM_CACTVS_HBOND_ACCEPTOR>
11

> <PUBCHEM_CACTVS_HBOND_DONOR>
3

> <PUBCHEM_CACTVS_ROTATABLE_BOND>
23

> <PUBCHEM_CACTVS_SUBSKEYS>
AAADcfB/+AAAAAAAAAAAAAAAAAAAAWJAAAA8QAAAAAAAAFgB/AAAHgAYAAAADAThmwYzHobIFECqAqvyvASSiAsmIKAdiKGuDNiOLrKEvTuHOSj83hOYqYe62aKOIAAAAAAAAABAAAAAAAAAAAAAAAAAAA==

> <PUBCHEM_IUPAC_OPENEYE_NAME>
methyl 12-[4-[4-[2-[[7-amino-2-(2-furyl)-[1,2,4]triazolo[1,5-a][1,3,5]triazin-5-yl]amino]ethyl]phenoxy]butanoylamino]dodecanoate

> <PUBCHEM_IUPAC_CAS_NAME>
12-[[4-[4-[2-[[7-amino-2-(2-furanyl)-[1,2,4]triazolo[1,5-a][1,3,5]triazin-5-yl]amino]ethyl]phenoxy]-1-oxobutyl]amino]dodecanoic acid methyl ester

> <PUBCHEM_IUPAC_NAME_MARKUP>
methyl 12-[4-[4-[2-[[7-amino-2-(furan-2-yl)-[1,2,4]triazolo[1,5-a][1,3,5]triazin-5-yl]amino]ethyl]phenoxy]butanoylamino]dodecanoate

> <PUBCHEM_IUPAC_NAME>
methyl 12-[4-[4-[2-[[7-amino-2-(furan-2-yl)-[1,2,4]triazolo[1,5-a][1,3,5]triazin-5-yl]amino]ethyl]phenoxy]butanoylamino]dodecanoate

> <PUBCHEM_IUPAC_SYSTEMATIC_NAME>
methyl 12-[4-[4-[2-[[7-azanyl-2-(furan-2-yl)-[1,2,4]triazolo[1,5-a][1,3,5]triazin-5-yl]amino]ethyl]phenoxy]butanoylamino]dodecanoate

> <PUBCHEM_IUPAC_TRADITIONAL_NAME>
12-[4-[4-[2-[[7-amino-2-(2-furyl)-[1,2,4]triazolo[1,5-a][1,3,5]triazin-5-yl]amino]ethyl]phenoxy]butanoylamino]lauric acid methyl ester

> <PUBCHEM_IUPAC_INCHI>
InChI=1S/C33H46N8O5/c1-44-29(43)15-9-7-5-3-2-4-6-8-10-21-35-28(42)14-12-23-45-26-18-16-25(17-19-26)20-22-36-32-38-31(34)41-33(39-32)37-30(40-41)27-13-11-24-46-27/h11,13,16-19,24H,2-10,12,14-15,20-23H2,1H3,(H,35,42)(H3,34,36,37,38,39,40)

> <PUBCHEM_IUPAC_INCHIKEY>
PNJGSZCARKYFRC-UHFFFAOYSA-N

> <PUBCHEM_XLOGP3_AA>
6.3

> <PUBCHEM_EXACT_MASS>
634.35911660

> <PUBCHEM_MOLECULAR_FORMULA>
C33H46N8O5

> <PUBCHEM_MOLECULAR_WEIGHT>
634.8

> <PUBCHEM_OPENEYE_CAN_SMILES>
COC(=O)CCCCCCCCCCCNC(=O)CCCOC1=CC=C(C=C1)CCNC2=NC3=NC(=NN3C(=N2)N)C4=CC=CO4

> <PUBCHEM_OPENEYE_ISO_SMILES>
COC(=O)CCCCCCCCCCCNC(=O)CCCOC1=CC=C(C=C1)CCNC2=NC3=NC(=NN3C(=N2)N)C4=CC=CO4

> <PUBCHEM_CACTVS_TPSA>
172

> <PUBCHEM_MONOISOTOPIC_WEIGHT>
634.35911660

> <PUBCHEM_TOTAL_CHARGE>
0

> <PUBCHEM_HEAVY_ATOM_COUNT>
46

> <PUBCHEM_ATOM_DEF_STEREO_COUNT>
0

> <PUBCHEM_ATOM_UDEF_STEREO_COUNT>
0

> <PUBCHEM_BOND_DEF_STEREO_COUNT>
0

> <PUBCHEM_BOND_UDEF_STEREO_COUNT>
0

> <PUBCHEM_ISOTOPIC_ATOM_COUNT>
0

> <PUBCHEM_COMPONENT_COUNT>
1

> <PUBCHEM_CACTVS_TAUTO_COUNT>
-1

> <PUBCHEM_COORDINATE_TYPE>
1
5
255

> <PUBCHEM_BONDANNOTATIONS>
10  39  8
10  41  8
11  42  8
12  40  8
12  42  8
31  35  8
31  36  8
32  37  8
32  38  8
35  37  8
36  38  8
43  44  8
44  45  8
45  46  8
5  43  8
5  46  8
8  11  8
8  40  8
8  41  8
9  39  8
9  40  8

$$$$
