44415345
  -OEChem-09292322282D

 60 64  0     0  0  0  0  0  0999 V2000
    8.7204    1.4297    0.0000 Cl  0  0  0  0  0  0  0  0  0  0  0  0
    6.6150   -0.8973    0.0000 O   0  0  0  0  0  0  0  0  0  0  0  0
    5.7490   -5.3973    0.0000 O   0  0  0  0  0  0  0  0  0  0  0  0
    3.9491    3.1944    0.0000 N   0  0  0  0  0  0  0  0  0  0  0  0
    3.0814    4.9963    0.0000 N   0  0  0  0  0  0  0  0  0  0  0  0
    4.8830    0.1027    0.0000 N   0  0  0  0  0  0  0  0  0  0  0  0
    5.3830    2.2934    0.0000 N   0  0  0  0  0  0  0  0  0  0  0  0
    4.8830   -0.8973    0.0000 N   0  0  0  0  0  0  0  0  0  0  0  0
    2.9519    3.2691    0.0000 C   0  0  0  0  0  0  0  0  0  0  0  0
    4.5125    4.0206    0.0000 C   0  0  0  0  0  0  0  0  0  0  0  0
    2.5180    4.1701    0.0000 C   0  0  0  0  0  0  0  0  0  0  0  0
    4.0786    4.9216    0.0000 C   0  0  0  0  0  0  0  0  0  0  0  0
    4.3830    2.2934    0.0000 C   0  0  0  0  0  0  0  0  0  0  0  0
    3.7595    1.5116    0.0000 C   0  0  0  0  0  0  0  0  0  0  0  0
    2.6475    5.8973    0.0000 C   0  0  0  0  0  0  0  0  0  0  0  0
    3.9820    0.5366    0.0000 C   0  0  0  0  0  0  0  0  0  0  0  0
    5.7840    0.5366    0.0000 C   0  0  0  0  0  0  0  0  0  0  0  0
    6.0065    1.5115    0.0000 C   0  0  0  0  0  0  0  0  0  0  0  0
    2.7690    1.8339    0.0000 C   0  0  0  0  0  0  0  0  0  0  0  0
    3.2295   -0.1835    0.0000 C   0  0  0  0  0  0  0  0  0  0  0  0
    2.0000    1.1313    0.0000 C   0  0  0  0  0  0  0  0  0  0  0  0
    6.5365   -0.1836    0.0000 C   0  0  0  0  0  0  0  0  0  0  0  0
    6.9970    1.8339    0.0000 C   0  0  0  0  0  0  0  0  0  0  0  0
    2.2318    0.1158    0.0000 C   0  0  0  0  0  0  0  0  0  0  0  0
    7.5342    0.1158    0.0000 C   0  0  0  0  0  0  0  0  0  0  0  0
    7.7660    1.1313    0.0000 C   0  0  0  0  0  0  0  0  0  0  0  0
    5.7490   -1.3973    0.0000 C   0  0  0  0  0  0  0  0  0  0  0  0
    5.7490   -2.3973    0.0000 C   0  0  0  0  0  0  0  0  0  0  0  0
    6.6150   -2.8973    0.0000 C   0  0  0  0  0  0  0  0  0  0  0  0
    4.8830   -2.8973    0.0000 C   0  0  0  0  0  0  0  0  0  0  0  0
    6.6150   -3.8973    0.0000 C   0  0  0  0  0  0  0  0  0  0  0  0
    4.8830   -3.8973    0.0000 C   0  0  0  0  0  0  0  0  0  0  0  0
    5.7490   -4.3973    0.0000 C   0  0  0  0  0  0  0  0  0  0  0  0
    6.6150   -5.8973    0.0000 C   0  0  0  0  0  0  0  0  0  0  0  0
    2.3551    3.1012    0.0000 H   0  0  0  0  0  0  0  0  0  0  0  0
    3.0137    2.6522    0.0000 H   0  0  0  0  0  0  0  0  0  0  0  0
    4.9563    3.5877    0.0000 H   0  0  0  0  0  0  0  0  0  0  0  0
    5.0159    4.3825    0.0000 H   0  0  0  0  0  0  0  0  0  0  0  0
    2.0742    4.6030    0.0000 H   0  0  0  0  0  0  0  0  0  0  0  0
    2.0146    3.8082    0.0000 H   0  0  0  0  0  0  0  0  0  0  0  0
    4.6754    5.0895    0.0000 H   0  0  0  0  0  0  0  0  0  0  0  0
    4.0168    5.5385    0.0000 H   0  0  0  0  0  0  0  0  0  0  0  0
    3.2061    6.1663    0.0000 H   0  0  0  0  0  0  0  0  0  0  0  0
    2.3785    6.4559    0.0000 H   0  0  0  0  0  0  0  0  0  0  0  0
    2.0889    5.6283    0.0000 H   0  0  0  0  0  0  0  0  0  0  0  0
    2.6380    2.4399    0.0000 H   0  0  0  0  0  0  0  0  0  0  0  0
    3.3744   -0.7864    0.0000 H   0  0  0  0  0  0  0  0  0  0  0  0
    1.4083    1.3164    0.0000 H   0  0  0  0  0  0  0  0  0  0  0  0
    6.3916   -0.7864    0.0000 H   0  0  0  0  0  0  0  0  0  0  0  0
    4.3460   -1.2073    0.0000 H   0  0  0  0  0  0  0  0  0  0  0  0
    7.1280    2.4399    0.0000 H   0  0  0  0  0  0  0  0  0  0  0  0
    1.7789   -0.3076    0.0000 H   0  0  0  0  0  0  0  0  0  0  0  0
    7.9871   -0.3077    0.0000 H   0  0  0  0  0  0  0  0  0  0  0  0
    7.1520   -2.5873    0.0000 H   0  0  0  0  0  0  0  0  0  0  0  0
    4.3460   -2.5873    0.0000 H   0  0  0  0  0  0  0  0  0  0  0  0
    7.1520   -4.2073    0.0000 H   0  0  0  0  0  0  0  0  0  0  0  0
    4.3460   -4.2073    0.0000 H   0  0  0  0  0  0  0  0  0  0  0  0
    6.3050   -6.4342    0.0000 H   0  0  0  0  0  0  0  0  0  0  0  0
    7.1519   -6.2073    0.0000 H   0  0  0  0  0  0  0  0  0  0  0  0
    6.9250   -5.3603    0.0000 H   0  0  0  0  0  0  0  0  0  0  0  0
  1 26  1  0  0  0  0
  2 27  2  0  0  0  0
  3 33  1  0  0  0  0
  3 34  1  0  0  0  0
  4  9  1  0  0  0  0
  4 10  1  0  0  0  0
  4 13  1  0  0  0  0
  5 11  1  0  0  0  0
  5 12  1  0  0  0  0
  5 15  1  0  0  0  0
  6  8  1  0  0  0  0
  6 16  1  0  0  0  0
  6 17  1  0  0  0  0
  7 13  2  0  0  0  0
  7 18  1  0  0  0  0
  8 27  1  0  0  0  0
  8 50  1  0  0  0  0
  9 11  1  0  0  0  0
  9 35  1  0  0  0  0
  9 36  1  0  0  0  0
 10 12  1  0  0  0  0
 10 37  1  0  0  0  0
 10 38  1  0  0  0  0
 11 39  1  0  0  0  0
 11 40  1  0  0  0  0
 12 41  1  0  0  0  0
 12 42  1  0  0  0  0
 13 14  1  0  0  0  0
 14 16  1  0  0  0  0
 14 19  2  0  0  0  0
 15 43  1  0  0  0  0
 15 44  1  0  0  0  0
 15 45  1  0  0  0  0
 16 20  2  0  0  0  0
 17 18  2  0  0  0  0
 17 22  1  0  0  0  0
 18 23  1  0  0  0  0
 19 21  1  0  0  0  0
 19 46  1  0  0  0  0
 20 24  1  0  0  0  0
 20 47  1  0  0  0  0
 21 24  2  0  0  0  0
 21 48  1  0  0  0  0
 22 25  2  0  0  0  0
 22 49  1  0  0  0  0
 23 26  2  0  0  0  0
 23 51  1  0  0  0  0
 24 52  1  0  0  0  0
 25 26  1  0  0  0  0
 25 53  1  0  0  0  0
 27 28  1  0  0  0  0
 28 29  2  0  0  0  0
 28 30  1  0  0  0  0
 29 31  1  0  0  0  0
 29 54  1  0  0  0  0
 30 32  2  0  0  0  0
 30 55  1  0  0  0  0
 31 33  2  0  0  0  0
 31 56  1  0  0  0  0
 32 33  1  0  0  0  0
 32 57  1  0  0  0  0
 34 58  1  0  0  0  0
 34 59  1  0  0  0  0
 34 60  1  0  0  0  0
M  END
> <PUBCHEM_COMPOUND_CID>
44415345

> <PUBCHEM_COMPOUND_CANONICALIZED>
1

> <PUBCHEM_CACTVS_COMPLEXITY>
735

> <PUBCHEM_CACTVS_HBOND_ACCEPTOR>
5

> <PUBCHEM_CACTVS_HBOND_DONOR>
1

> <PUBCHEM_CACTVS_ROTATABLE_BOND>
4

> <PUBCHEM_CACTVS_SUBSKEYS>
AAADceB7sAAEAAAAAAAAAAAAAAAAAAAAAAA8YMEABAAAAAABUAAAHgIYAAAADA7BmCYzxoNiBACoAidydACCDAElJwAbqAEuftgMZvLF/5uUMShkwBHI6YeY3ADOIABAAAICACBAAIAABAQAQAAAAAAAAA==

> <PUBCHEM_IUPAC_OPENEYE_NAME>
N-[3-chloro-6-(4-methylpiperazin-1-yl)benzo[b][1,4]benzodiazepin-11-yl]-4-methoxy-benzamide

> <PUBCHEM_IUPAC_CAS_NAME>
N-[3-chloro-6-(4-methyl-1-piperazinyl)-11-benzo[b][1,4]benzodiazepinyl]-4-methoxybenzamide

> <PUBCHEM_IUPAC_NAME_MARKUP>
<I>N</I>-[3-chloro-6-(4-methylpiperazin-1-yl)benzo[b][1,4]benzodiazepin-11-yl]-4-methoxybenzamide

> <PUBCHEM_IUPAC_NAME>
N-[3-chloro-6-(4-methylpiperazin-1-yl)benzo[b][1,4]benzodiazepin-11-yl]-4-methoxybenzamide

> <PUBCHEM_IUPAC_SYSTEMATIC_NAME>
N-[3-chloranyl-6-(4-methylpiperazin-1-yl)benzo[b][1,4]benzodiazepin-11-yl]-4-methoxy-benzamide

> <PUBCHEM_IUPAC_TRADITIONAL_NAME>
N-[3-chloro-6-(4-methylpiperazino)benzo[b][1,4]benzodiazepin-11-yl]-4-methoxy-benzamide

> <PUBCHEM_IUPAC_INCHI>
InChI=1S/C26H26ClN5O2/c1-30-13-15-31(16-14-30)25-21-5-3-4-6-23(21)32(24-12-9-19(27)17-22(24)28-25)29-26(33)18-7-10-20(34-2)11-8-18/h3-12,17H,13-16H2,1-2H3,(H,29,33)

> <PUBCHEM_IUPAC_INCHIKEY>
PXHYKZAQKZISEK-UHFFFAOYSA-N

> <PUBCHEM_XLOGP3_AA>
4.4

> <PUBCHEM_EXACT_MASS>
475.1775028

> <PUBCHEM_MOLECULAR_FORMULA>
C26H26ClN5O2

> <PUBCHEM_MOLECULAR_WEIGHT>
476.0

> <PUBCHEM_OPENEYE_CAN_SMILES>
CN1CCN(CC1)C2=NC3=C(C=CC(=C3)Cl)N(C4=CC=CC=C42)NC(=O)C5=CC=C(C=C5)OC

> <PUBCHEM_OPENEYE_ISO_SMILES>
CN1CCN(CC1)C2=NC3=C(C=CC(=C3)Cl)N(C4=CC=CC=C42)NC(=O)C5=CC=C(C=C5)OC

> <PUBCHEM_CACTVS_TPSA>
60.4

> <PUBCHEM_MONOISOTOPIC_WEIGHT>
475.1775028

> <PUBCHEM_TOTAL_CHARGE>
0

> <PUBCHEM_HEAVY_ATOM_COUNT>
34

> <PUBCHEM_ATOM_DEF_STEREO_COUNT>
0

> <PUBCHEM_ATOM_UDEF_STEREO_COUNT>
0

> <PUBCHEM_BOND_DEF_STEREO_COUNT>
0

> <PUBCHEM_BOND_UDEF_STEREO_COUNT>
0

> <PUBCHEM_ISOTOPIC_ATOM_COUNT>
0

> <PUBCHEM_COMPONENT_COUNT>
1

> <PUBCHEM_CACTVS_TAUTO_COUNT>
-1

> <PUBCHEM_COORDINATE_TYPE>
1
5
255

> <PUBCHEM_BONDANNOTATIONS>
14  16  8
14  19  8
16  20  8
17  18  8
17  22  8
18  23  8
19  21  8
20  24  8
21  24  8
22  25  8
23  26  8
25  26  8
28  29  8
28  30  8
29  31  8
30  32  8
31  33  8
32  33  8

$$$$
