44409911
  -OEChem-09292322272D

 67 69  0     0  0  0  0  0  0999 V2000
    2.3660   -4.9510    0.0000 F   0  0  0  0  0  0  0  0  0  0  0  0
    2.0000   -6.3170    0.0000 F   0  0  0  0  0  0  0  0  0  0  0  0
    3.3660   -6.6830    0.0000 F   0  0  0  0  0  0  0  0  0  0  0  0
    8.0622    3.1830    0.0000 O   0  0  0  0  0  0  0  0  0  0  0  0
    4.5981   -0.8170    0.0000 N   0  0  0  0  0  0  0  0  0  0  0  0
    4.5981   -2.8170    0.0000 N   0  0  0  0  0  0  0  0  0  0  0  0
    5.4641   -4.3170    0.0000 N   0  0  0  0  0  0  0  0  0  0  0  0
    4.5981   -5.8170    0.0000 N   0  0  0  0  0  0  0  0  0  0  0  0
    6.3301    3.1830    0.0000 N   0  0  0  0  0  0  0  0  0  0  0  0
    7.1962    4.6830    0.0000 N   0  0  0  0  0  0  0  0  0  0  0  0
    5.4641   -1.3170    0.0000 C   0  0  0  0  0  0  0  0  0  0  0  0
    3.7320   -1.3170    0.0000 C   0  0  0  0  0  0  0  0  0  0  0  0
    5.4641   -2.3170    0.0000 C   0  0  0  0  0  0  0  0  0  0  0  0
    3.7320   -2.3170    0.0000 C   0  0  0  0  0  0  0  0  0  0  0  0
    4.5981    0.1830    0.0000 C   0  0  0  0  0  0  0  0  0  0  0  0
    5.4641    0.6830    0.0000 C   0  0  0  0  0  0  0  0  0  0  0  0
    4.5981   -3.8170    0.0000 C   0  0  0  0  0  0  0  0  0  0  0  0
    5.4641    1.6830    0.0000 C   0  0  0  0  0  0  0  0  0  0  0  0
    6.3301   -5.8170    0.0000 C   0  0  0  0  0  0  0  0  0  0  0  0
    5.4641   -5.3170    0.0000 C   0  0  0  0  0  0  0  0  0  0  0  0
    3.7320   -4.3170    0.0000 C   0  0  0  0  0  0  0  0  0  0  0  0
    6.3301    2.1830    0.0000 C   0  0  0  0  0  0  0  0  0  0  0  0
    3.7320   -5.3170    0.0000 C   0  0  0  0  0  0  0  0  0  0  0  0
    7.1962   -6.3170    0.0000 C   0  0  0  0  0  0  0  0  0  0  0  0
    5.8301   -6.6830    0.0000 C   0  0  0  0  0  0  0  0  0  0  0  0
    6.8301   -4.9510    0.0000 C   0  0  0  0  0  0  0  0  0  0  0  0
    2.8660   -5.8170    0.0000 C   0  0  0  0  0  0  0  0  0  0  0  0
    7.1962    3.6830    0.0000 C   0  0  0  0  0  0  0  0  0  0  0  0
    8.0622    5.1830    0.0000 C   0  0  0  0  0  0  0  0  0  0  0  0
    8.0622    6.1830    0.0000 C   0  0  0  0  0  0  0  0  0  0  0  0
    8.9282    4.6830    0.0000 C   0  0  0  0  0  0  0  0  0  0  0  0
    8.9282    6.6830    0.0000 C   0  0  0  0  0  0  0  0  0  0  0  0
    9.7942    5.1830    0.0000 C   0  0  0  0  0  0  0  0  0  0  0  0
    9.7942    6.1830    0.0000 C   0  0  0  0  0  0  0  0  0  0  0  0
    6.0747   -1.4246    0.0000 H   0  0  0  0  0  0  0  0  0  0  0  0
    5.6762   -0.7344    0.0000 H   0  0  0  0  0  0  0  0  0  0  0  0
    3.5200   -0.7344    0.0000 H   0  0  0  0  0  0  0  0  0  0  0  0
    3.1215   -1.4246    0.0000 H   0  0  0  0  0  0  0  0  0  0  0  0
    5.6762   -2.8996    0.0000 H   0  0  0  0  0  0  0  0  0  0  0  0
    6.0747   -2.2093    0.0000 H   0  0  0  0  0  0  0  0  0  0  0  0
    3.1215   -2.2093    0.0000 H   0  0  0  0  0  0  0  0  0  0  0  0
    3.5200   -2.8996    0.0000 H   0  0  0  0  0  0  0  0  0  0  0  0
    4.3860    0.7656    0.0000 H   0  0  0  0  0  0  0  0  0  0  0  0
    3.9875    0.0754    0.0000 H   0  0  0  0  0  0  0  0  0  0  0  0
    5.6762    0.1004    0.0000 H   0  0  0  0  0  0  0  0  0  0  0  0
    6.0747    0.7907    0.0000 H   0  0  0  0  0  0  0  0  0  0  0  0
    5.2520    2.2656    0.0000 H   0  0  0  0  0  0  0  0  0  0  0  0
    4.8535    1.5754    0.0000 H   0  0  0  0  0  0  0  0  0  0  0  0
    3.1951   -4.0070    0.0000 H   0  0  0  0  0  0  0  0  0  0  0  0
    6.5422    1.6004    0.0000 H   0  0  0  0  0  0  0  0  0  0  0  0
    6.9407    2.2907    0.0000 H   0  0  0  0  0  0  0  0  0  0  0  0
    6.8862   -6.8539    0.0000 H   0  0  0  0  0  0  0  0  0  0  0  0
    7.7331   -6.6270    0.0000 H   0  0  0  0  0  0  0  0  0  0  0  0
    7.5062   -5.7800    0.0000 H   0  0  0  0  0  0  0  0  0  0  0  0
    5.2932   -6.3730    0.0000 H   0  0  0  0  0  0  0  0  0  0  0  0
    5.5201   -7.2200    0.0000 H   0  0  0  0  0  0  0  0  0  0  0  0
    6.3671   -6.9930    0.0000 H   0  0  0  0  0  0  0  0  0  0  0  0
    7.3671   -5.2610    0.0000 H   0  0  0  0  0  0  0  0  0  0  0  0
    7.1401   -4.4140    0.0000 H   0  0  0  0  0  0  0  0  0  0  0  0
    6.2932   -4.6410    0.0000 H   0  0  0  0  0  0  0  0  0  0  0  0
    5.7932    3.4930    0.0000 H   0  0  0  0  0  0  0  0  0  0  0  0
    6.6592    4.9930    0.0000 H   0  0  0  0  0  0  0  0  0  0  0  0
    7.5252    6.4930    0.0000 H   0  0  0  0  0  0  0  0  0  0  0  0
    8.9282    4.0630    0.0000 H   0  0  0  0  0  0  0  0  0  0  0  0
    8.9282    7.3030    0.0000 H   0  0  0  0  0  0  0  0  0  0  0  0
   10.3312    4.8730    0.0000 H   0  0  0  0  0  0  0  0  0  0  0  0
   10.3312    6.4930    0.0000 H   0  0  0  0  0  0  0  0  0  0  0  0
  1 27  1  0  0  0  0
  2 27  1  0  0  0  0
  3 27  1  0  0  0  0
  4 28  2  0  0  0  0
  5 11  1  0  0  0  0
  5 12  1  0  0  0  0
  5 15  1  0  0  0  0
  6 13  1  0  0  0  0
  6 14  1  0  0  0  0
  6 17  1  0  0  0  0
  7 17  2  0  0  0  0
  7 20  1  0  0  0  0
  8 20  2  0  0  0  0
  8 23  1  0  0  0  0
  9 22  1  0  0  0  0
  9 28  1  0  0  0  0
  9 61  1  0  0  0  0
 10 28  1  0  0  0  0
 10 29  1  0  0  0  0
 10 62  1  0  0  0  0
 11 13  1  0  0  0  0
 11 35  1  0  0  0  0
 11 36  1  0  0  0  0
 12 14  1  0  0  0  0
 12 37  1  0  0  0  0
 12 38  1  0  0  0  0
 13 39  1  0  0  0  0
 13 40  1  0  0  0  0
 14 41  1  0  0  0  0
 14 42  1  0  0  0  0
 15 16  1  0  0  0  0
 15 43  1  0  0  0  0
 15 44  1  0  0  0  0
 16 18  1  0  0  0  0
 16 45  1  0  0  0  0
 16 46  1  0  0  0  0
 17 21  1  0  0  0  0
 18 22  1  0  0  0  0
 18 47  1  0  0  0  0
 18 48  1  0  0  0  0
 19 20  1  0  0  0  0
 19 24  1  0  0  0  0
 19 25  1  0  0  0  0
 19 26  1  0  0  0  0
 21 23  2  0  0  0  0
 21 49  1  0  0  0  0
 22 50  1  0  0  0  0
 22 51  1  0  0  0  0
 23 27  1  0  0  0  0
 24 52  1  0  0  0  0
 24 53  1  0  0  0  0
 24 54  1  0  0  0  0
 25 55  1  0  0  0  0
 25 56  1  0  0  0  0
 25 57  1  0  0  0  0
 26 58  1  0  0  0  0
 26 59  1  0  0  0  0
 26 60  1  0  0  0  0
 29 30  2  0  0  0  0
 29 31  1  0  0  0  0
 30 32  1  0  0  0  0
 30 63  1  0  0  0  0
 31 33  2  0  0  0  0
 31 64  1  0  0  0  0
 32 34  2  0  0  0  0
 32 65  1  0  0  0  0
 33 34  1  0  0  0  0
 33 66  1  0  0  0  0
 34 67  1  0  0  0  0
M  END
> <PUBCHEM_COMPOUND_CID>
44409911

> <PUBCHEM_COMPOUND_CANONICALIZED>
1

> <PUBCHEM_CACTVS_COMPLEXITY>
627

> <PUBCHEM_CACTVS_HBOND_ACCEPTOR>
8

> <PUBCHEM_CACTVS_HBOND_DONOR>
2

> <PUBCHEM_CACTVS_ROTATABLE_BOND>
8

> <PUBCHEM_CACTVS_SUBSKEYS>
AAADcfB7oYAAAAAAAAAAAAAAAAAAAAAAAAA8WIAAAAAAAAABwAAAHwAQAAAADgjBFxQz8JfIEACoASZidACCgCkhAqAJmKA4ZJiIaCLA2dGUJAholgLIyCcQAAAAAAAAAAAAAAAAAAAAAAAAAAAAAAAAAA==

> <PUBCHEM_IUPAC_OPENEYE_NAME>
1-[4-[4-[2-tert-butyl-6-(trifluoromethyl)pyrimidin-4-yl]piperazin-1-yl]butyl]-3-phenyl-urea

> <PUBCHEM_IUPAC_CAS_NAME>
1-[4-[4-[2-tert-butyl-6-(trifluoromethyl)-4-pyrimidinyl]-1-piperazinyl]butyl]-3-phenylurea

> <PUBCHEM_IUPAC_NAME_MARKUP>
1-[4-[4-[2-<I>tert</I>-butyl-6-(trifluoromethyl)pyrimidin-4-yl]piperazin-1-yl]butyl]-3-phenylurea

> <PUBCHEM_IUPAC_NAME>
1-[4-[4-[2-tert-butyl-6-(trifluoromethyl)pyrimidin-4-yl]piperazin-1-yl]butyl]-3-phenylurea

> <PUBCHEM_IUPAC_SYSTEMATIC_NAME>
1-[4-[4-[2-tert-butyl-6-(trifluoromethyl)pyrimidin-4-yl]piperazin-1-yl]butyl]-3-phenyl-urea

> <PUBCHEM_IUPAC_TRADITIONAL_NAME>
1-[4-[4-[2-tert-butyl-6-(trifluoromethyl)pyrimidin-4-yl]piperazino]butyl]-3-phenyl-urea

> <PUBCHEM_IUPAC_INCHI>
InChI=1S/C24H33F3N6O/c1-23(2,3)21-30-19(24(25,26)27)17-20(31-21)33-15-13-32(14-16-33)12-8-7-11-28-22(34)29-18-9-5-4-6-10-18/h4-6,9-10,17H,7-8,11-16H2,1-3H3,(H2,28,29,34)

> <PUBCHEM_IUPAC_INCHIKEY>
NUYNDLVLQFHYBG-UHFFFAOYSA-N

> <PUBCHEM_XLOGP3_AA>
4.5

> <PUBCHEM_EXACT_MASS>
478.26679418

> <PUBCHEM_MOLECULAR_FORMULA>
C24H33F3N6O

> <PUBCHEM_MOLECULAR_WEIGHT>
478.6

> <PUBCHEM_OPENEYE_CAN_SMILES>
CC(C)(C)C1=NC(=CC(=N1)N2CCN(CC2)CCCCNC(=O)NC3=CC=CC=C3)C(F)(F)F

> <PUBCHEM_OPENEYE_ISO_SMILES>
CC(C)(C)C1=NC(=CC(=N1)N2CCN(CC2)CCCCNC(=O)NC3=CC=CC=C3)C(F)(F)F

> <PUBCHEM_CACTVS_TPSA>
73.4

> <PUBCHEM_MONOISOTOPIC_WEIGHT>
478.26679418

> <PUBCHEM_TOTAL_CHARGE>
0

> <PUBCHEM_HEAVY_ATOM_COUNT>
34

> <PUBCHEM_ATOM_DEF_STEREO_COUNT>
0

> <PUBCHEM_ATOM_UDEF_STEREO_COUNT>
0

> <PUBCHEM_BOND_DEF_STEREO_COUNT>
0

> <PUBCHEM_BOND_UDEF_STEREO_COUNT>
0

> <PUBCHEM_ISOTOPIC_ATOM_COUNT>
0

> <PUBCHEM_COMPONENT_COUNT>
1

> <PUBCHEM_CACTVS_TAUTO_COUNT>
-1

> <PUBCHEM_COORDINATE_TYPE>
1
5
255

> <PUBCHEM_BONDANNOTATIONS>
17  21  8
21  23  8
29  30  8
29  31  8
30  32  8
31  33  8
32  34  8
33  34  8
7  17  8
7  20  8
8  20  8
8  23  8

$$$$
