16731682
  -OEChem-09292322092D

105111  0     1  0  0  0  0  0999 V2000
    9.7884    2.2176    0.0000 O   0  0  0  0  0  0  0  0  0  0  0  0
    7.2077   -2.2924    0.0000 O   0  0  0  0  0  0  0  0  0  0  0  0
    6.3282    1.2042    0.0000 O   0  0  0  0  0  0  0  0  0  0  0  0
   11.5089    5.2242    0.0000 O   0  0  0  0  0  0  0  0  0  0  0  0
    2.0000    0.6875    0.0000 O   0  5  0  0  0  0  0  0  0  0  0  0
    2.8602    2.1909    0.0000 O   0  0  0  0  0  0  0  0  0  0  0  0
   10.7398   -2.2927    0.0000 N   0  0  3  0  0  0  0  0  0  0  0  0
    8.9166    3.7142    0.0000 N   0  0  0  0  0  0  0  0  0  0  0  0
    8.0602    1.2109    0.0000 N   0  0  0  0  0  0  0  0  0  0  0  0
   11.7279   -6.4828    0.0000 N   0  0  0  0  0  0  0  0  0  0  0  0
    8.0679   -0.7891    0.0000 N   0  0  0  0  0  0  0  0  0  0  0  0
   10.6371    6.7209    0.0000 N   0  0  0  0  0  0  0  0  0  0  0  0
    2.8641    1.1909    0.0000 N   0  3  0  0  0  0  0  0  0  0  0  0
    6.3166    4.2042    0.0000 C   0  0  0  0  0  0  0  0  0  0  0  0
    6.3128    5.2042    0.0000 C   0  0  0  0  0  0  0  0  0  0  0  0
    5.4525    3.7009    0.0000 C   0  0  0  0  0  0  0  0  0  0  0  0
    7.1846    3.7075    0.0000 C   0  0  0  0  0  0  0  0  0  0  0  0
   10.7238   -3.3342    0.0000 C   0  0  1  0  0  0  0  0  0  0  0  0
    5.4448    5.7008    0.0000 C   0  0  0  0  0  0  0  0  0  0  0  0
    4.5846    4.1975    0.0000 C   0  0  0  0  0  0  0  0  0  0  0  0
    4.5807    5.1975    0.0000 C   0  0  0  0  0  0  0  0  0  0  0  0
    7.1884    2.7075    0.0000 C   0  0  0  0  0  0  0  0  0  0  0  0
    9.8578   -3.8342    0.0000 C   0  0  0  0  0  0  0  0  0  0  0  0
   11.5898   -3.8342    0.0000 C   0  0  0  0  0  0  0  0  0  0  0  0
    8.0564    2.2109    0.0000 C   0  0  1  0  0  0  0  0  0  0  0  0
    8.9397   -2.2857    0.0000 C   0  0  1  0  0  0  0  0  0  0  0  0
    9.8418   -1.7649    0.0000 C   0  0  0  0  0  0  0  0  0  0  0  0
   11.5898   -4.8342    0.0000 C   0  0  0  0  0  0  0  0  0  0  0  0
    9.8578   -4.8342    0.0000 C   0  0  0  0  0  0  0  0  0  0  0  0
   10.7238   -5.3342    0.0000 C   0  0  0  0  0  0  0  0  0  0  0  0
    8.9477   -3.3273    0.0000 C   0  0  0  0  0  0  0  0  0  0  0  0
    8.9204    2.7142    0.0000 C   0  0  0  0  0  0  0  0  0  0  0  0
    9.7768    5.2175    0.0000 C   0  0  3  0  0  0  0  0  0  0  0  0
    9.7807    4.2176    0.0000 C   0  0  0  0  0  0  0  0  0  0  0  0
    8.0486    4.2109    0.0000 C   0  0  0  0  0  0  0  0  0  0  0  0
    8.9089    5.7142    0.0000 C   0  0  0  0  0  0  0  0  0  0  0  0
    8.0448    5.2109    0.0000 C   0  0  0  0  0  0  0  0  0  0  0  0
   10.7398   -6.3757    0.0000 C   0  0  0  0  0  0  0  0  0  0  0  0
    8.0718   -1.7891    0.0000 C   0  0  0  0  0  0  0  0  0  0  0  0
   11.6116   -1.8027    0.0000 C   0  0  0  0  0  0  0  0  0  0  0  0
   12.2077   -5.6126    0.0000 C   0  0  0  0  0  0  0  0  0  0  0  0
    7.2000   -0.2924    0.0000 C   0  0  2  0  0  0  0  0  0  0  0  0
    8.9477   -5.3410    0.0000 C   0  0  0  0  0  0  0  0  0  0  0  0
    7.1961    0.7076    0.0000 C   0  0  0  0  0  0  0  0  0  0  0  0
    9.8418   -6.9034    0.0000 C   0  0  0  0  0  0  0  0  0  0  0  0
    8.9397   -6.3826    0.0000 C   0  0  0  0  0  0  0  0  0  0  0  0
   10.6409    5.7209    0.0000 C   0  0  0  0  0  0  0  0  0  0  0  0
    6.3359   -0.7958    0.0000 C   0  0  0  0  0  0  0  0  0  0  0  0
    5.4679   -0.2991    0.0000 C   0  0  0  0  0  0  0  0  0  0  0  0
    4.6038   -0.8024    0.0000 C   0  0  0  0  0  0  0  0  0  0  0  0
    5.4641    0.7009    0.0000 C   0  0  0  0  0  0  0  0  0  0  0  0
    3.7359   -0.3058    0.0000 C   0  0  0  0  0  0  0  0  0  0  0  0
    4.5961    1.1975    0.0000 C   0  0  0  0  0  0  0  0  0  0  0  0
    3.7320    0.6942    0.0000 C   0  0  0  0  0  0  0  0  0  0  0  0
    6.8523    4.5163    0.0000 H   0  0  0  0  0  0  0  0  0  0  0  0
    6.9237    5.0989    0.0000 H   0  0  0  0  0  0  0  0  0  0  0  0
    6.5226    5.7876    0.0000 H   0  0  0  0  0  0  0  0  0  0  0  0
    5.0558    3.2244    0.0000 H   0  0  0  0  0  0  0  0  0  0  0  0
    5.8529    3.2274    0.0000 H   0  0  0  0  0  0  0  0  0  0  0  0
    7.7955    3.6022    0.0000 H   0  0  0  0  0  0  0  0  0  0  0  0
    7.3944    4.2910    0.0000 H   0  0  0  0  0  0  0  0  0  0  0  0
   11.4631   -2.9149    0.0000 H   0  0  0  0  0  0  0  0  0  0  0  0
    5.8415    6.1773    0.0000 H   0  0  0  0  0  0  0  0  0  0  0  0
    5.0444    6.1742    0.0000 H   0  0  0  0  0  0  0  0  0  0  0  0
    3.9736    4.3028    0.0000 H   0  0  0  0  0  0  0  0  0  0  0  0
    4.3748    3.6141    0.0000 H   0  0  0  0  0  0  0  0  0  0  0  0
    4.3664    5.7793    0.0000 H   0  0  0  0  0  0  0  0  0  0  0  0
    3.9706    5.0875    0.0000 H   0  0  0  0  0  0  0  0  0  0  0  0
    6.5774    2.8128    0.0000 H   0  0  0  0  0  0  0  0  0  0  0  0
    6.9786    2.1241    0.0000 H   0  0  0  0  0  0  0  0  0  0  0  0
   12.2004   -3.9418    0.0000 H   0  0  0  0  0  0  0  0  0  0  0  0
   11.8018   -3.2516    0.0000 H   0  0  0  0  0  0  0  0  0  0  0  0
    7.5206    1.8988    0.0000 H   0  0  0  0  0  0  0  0  0  0  0  0
    8.4046   -2.5988    0.0000 H   0  0  0  0  0  0  0  0  0  0  0  0
   10.2428   -1.2920    0.0000 H   0  0  0  0  0  0  0  0  0  0  0  0
    9.4445   -1.2890    0.0000 H   0  0  0  0  0  0  0  0  0  0  0  0
    8.4144   -3.6435    0.0000 H   0  0  0  0  0  0  0  0  0  0  0  0
   10.3150    4.9096    0.0000 H   0  0  0  0  0  0  0  0  0  0  0  0
    9.9950    3.6358    0.0000 H   0  0  0  0  0  0  0  0  0  0  0  0
   10.3908    4.3276    0.0000 H   0  0  0  0  0  0  0  0  0  0  0  0
    7.4376    4.3162    0.0000 H   0  0  0  0  0  0  0  0  0  0  0  0
    7.8388    3.6274    0.0000 H   0  0  0  0  0  0  0  0  0  0  0  0
    9.3056    6.1907    0.0000 H   0  0  0  0  0  0  0  0  0  0  0  0
    8.5085    6.1876    0.0000 H   0  0  0  0  0  0  0  0  0  0  0  0
    7.8305    5.7926    0.0000 H   0  0  0  0  0  0  0  0  0  0  0  0
    7.4346    5.1008    0.0000 H   0  0  0  0  0  0  0  0  0  0  0  0
    8.5983    0.9030    0.0000 H   0  0  0  0  0  0  0  0  0  0  0  0
   11.9154   -2.3432    0.0000 H   0  0  0  0  0  0  0  0  0  0  0  0
   12.1521   -1.4990    0.0000 H   0  0  0  0  0  0  0  0  0  0  0  0
   11.3078   -1.2622    0.0000 H   0  0  0  0  0  0  0  0  0  0  0  0
   12.8256   -5.5608    0.0000 H   0  0  0  0  0  0  0  0  0  0  0  0
    7.2024   -0.9124    0.0000 H   0  0  0  0  0  0  0  0  0  0  0  0
    8.4144   -5.0248    0.0000 H   0  0  0  0  0  0  0  0  0  0  0  0
   12.0139   -7.0329    0.0000 H   0  0  0  0  0  0  0  0  0  0  0  0
    8.6036   -0.4770    0.0000 H   0  0  0  0  0  0  0  0  0  0  0  0
    9.8442   -7.5234    0.0000 H   0  0  0  0  0  0  0  0  0  0  0  0
    8.4016   -6.6906    0.0000 H   0  0  0  0  0  0  0  0  0  0  0  0
    5.9392   -1.2723    0.0000 H   0  0  0  0  0  0  0  0  0  0  0  0
    6.7362   -1.2692    0.0000 H   0  0  0  0  0  0  0  0  0  0  0  0
   11.1728    7.0329    0.0000 H   0  0  0  0  0  0  0  0  0  0  0  0
   10.0989    7.0288    0.0000 H   0  0  0  0  0  0  0  0  0  0  0  0
    4.6062   -1.4224    0.0000 H   0  0  0  0  0  0  0  0  0  0  0  0
    5.9998    1.0130    0.0000 H   0  0  0  0  0  0  0  0  0  0  0  0
    3.2002   -0.6179    0.0000 H   0  0  0  0  0  0  0  0  0  0  0  0
    4.5937    1.8175    0.0000 H   0  0  0  0  0  0  0  0  0  0  0  0
  1 32  2  0  0  0  0
  2 39  2  0  0  0  0
  3 44  2  0  0  0  0
  4 47  2  0  0  0  0
  5 13  1  0  0  0  0
  6 13  2  0  0  0  0
  7 18  1  0  0  0  0
  7 27  1  0  0  0  0
  7 40  1  0  0  0  0
  8 32  1  0  0  0  0
  8 34  1  0  0  0  0
  8 35  1  0  0  0  0
 25  9  1  1  0  0  0
  9 44  1  0  0  0  0
  9 87  1  0  0  0  0
 10 38  1  0  0  0  0
 10 41  1  0  0  0  0
 10 94  1  0  0  0  0
 11 39  1  0  0  0  0
 42 11  1  1  0  0  0
 11 95  1  0  0  0  0
 12 47  1  0  0  0  0
 12100  1  0  0  0  0
 12101  1  0  0  0  0
 13 54  1  0  0  0  0
 14 15  1  0  0  0  0
 14 16  1  0  0  0  0
 14 17  1  0  0  0  0
 14 55  1  0  0  0  0
 15 19  1  0  0  0  0
 15 56  1  0  0  0  0
 15 57  1  0  0  0  0
 16 20  1  0  0  0  0
 16 58  1  0  0  0  0
 16 59  1  0  0  0  0
 17 22  1  0  0  0  0
 17 60  1  0  0  0  0
 17 61  1  0  0  0  0
 18 23  1  0  0  0  0
 18 24  1  0  0  0  0
 18 62  1  1  0  0  0
 19 21  1  0  0  0  0
 19 63  1  0  0  0  0
 19 64  1  0  0  0  0
 20 21  1  0  0  0  0
 20 65  1  0  0  0  0
 20 66  1  0  0  0  0
 21 67  1  0  0  0  0
 21 68  1  0  0  0  0
 22 25  1  0  0  0  0
 22 69  1  0  0  0  0
 22 70  1  0  0  0  0
 23 29  1  0  0  0  0
 23 31  2  0  0  0  0
 24 28  1  0  0  0  0
 24 71  1  0  0  0  0
 24 72  1  0  0  0  0
 25 32  1  0  0  0  0
 25 73  1  0  0  0  0
 26 27  1  0  0  0  0
 26 31  1  0  0  0  0
 26 39  1  1  0  0  0
 26 74  1  0  0  0  0
 27 75  1  0  0  0  0
 27 76  1  0  0  0  0
 28 30  1  0  0  0  0
 28 41  2  0  0  0  0
 29 30  2  0  0  0  0
 29 43  1  0  0  0  0
 30 38  1  0  0  0  0
 31 77  1  0  0  0  0
 33 34  1  0  0  0  0
 33 36  1  0  0  0  0
 33 47  1  0  0  0  0
 33 78  1  0  0  0  0
 34 79  1  0  0  0  0
 34 80  1  0  0  0  0
 35 37  1  0  0  0  0
 35 81  1  0  0  0  0
 35 82  1  0  0  0  0
 36 37  1  0  0  0  0
 36 83  1  0  0  0  0
 36 84  1  0  0  0  0
 37 85  1  0  0  0  0
 37 86  1  0  0  0  0
 38 45  2  0  0  0  0
 40 88  1  0  0  0  0
 40 89  1  0  0  0  0
 40 90  1  0  0  0  0
 41 91  1  0  0  0  0
 42 44  1  0  0  0  0
 42 48  1  0  0  0  0
 42 92  1  0  0  0  0
 43 46  2  0  0  0  0
 43 93  1  0  0  0  0
 45 46  1  0  0  0  0
 45 96  1  0  0  0  0
 46 97  1  0  0  0  0
 48 49  1  0  0  0  0
 48 98  1  0  0  0  0
 48 99  1  0  0  0  0
 49 50  2  0  0  0  0
 49 51  1  0  0  0  0
 50 52  1  0  0  0  0
 50102  1  0  0  0  0
 51 53  2  0  0  0  0
 51103  1  0  0  0  0
 52 54  2  0  0  0  0
 52104  1  0  0  0  0
 53 54  1  0  0  0  0
 53105  1  0  0  0  0
M  CHG  2   5  -1  13   1
M  END
> <PUBCHEM_COMPOUND_CID>
16731682

> <PUBCHEM_COMPOUND_CANONICALIZED>
1

> <PUBCHEM_CACTVS_COMPLEXITY>
1420

> <PUBCHEM_CACTVS_HBOND_ACCEPTOR>
7

> <PUBCHEM_CACTVS_HBOND_DONOR>
4

> <PUBCHEM_CACTVS_ROTATABLE_BOND>
11

> <PUBCHEM_CACTVS_SUBSKEYS>
AAADcfB/uAAAAAAAAAAAAAAAAAAAAWAAAAA8YMGCAAAAAFjB9AAAHgAUAAAADSjBngQ+wPPZ0ACpAzV3VwCCgCAxAiAo2aG4ZJoIYPrA0bGUIAhglgDIyAcYicCOiAAAQAASAAAQAASAACQAAAAAAAAAAA==

> <PUBCHEM_IUPAC_OPENEYE_NAME>
(6aR,9R)-N-[(1S)-2-[[(1S)-1-(3-carbamoylpiperidine-1-carbonyl)-3-cyclohexyl-propyl]amino]-1-[(4-nitrophenyl)methyl]-2-oxo-ethyl]-7-methyl-6,6a,8,9-tetrahydro-4H-indolo[4,3-fg]quinoline-9-carboxamide

> <PUBCHEM_IUPAC_CAS_NAME>
(6aR,9R)-N-[(2S)-1-[[(2S)-1-(3-carbamoyl-1-piperidinyl)-4-cyclohexyl-1-oxobutan-2-yl]amino]-3-(4-nitrophenyl)-1-oxopropan-2-yl]-7-methyl-6,6a,8,9-tetrahydro-4H-indolo[4,3-fg]quinoline-9-carboxamide

> <PUBCHEM_IUPAC_NAME_MARKUP>
(6<I>a</I><I>R</I>,9<I>R</I>)-<I>N</I>-[(2<I>S</I>)-1-[[(2<I>S</I>)-1-(3-carbamoylpiperidin-1-yl)-4-cyclohexyl-1-oxobutan-2-yl]amino]-3-(4-nitrophenyl)-1-oxopropan-2-yl]-7-methyl-6,6<I>a</I>,8,9-tetrahydro-4<I>H</I>-indolo[4,3-fg]quinoline-9-carboxamide

> <PUBCHEM_IUPAC_NAME>
(6aR,9R)-N-[(2S)-1-[[(2S)-1-(3-carbamoylpiperidin-1-yl)-4-cyclohexyl-1-oxobutan-2-yl]amino]-3-(4-nitrophenyl)-1-oxopropan-2-yl]-7-methyl-6,6a,8,9-tetrahydro-4H-indolo[4,3-fg]quinoline-9-carboxamide

> <PUBCHEM_IUPAC_SYSTEMATIC_NAME>
(6aR,9R)-N-[(2S)-1-[[(2S)-1-(3-aminocarbonylpiperidin-1-yl)-4-cyclohexyl-1-oxidanylidene-butan-2-yl]amino]-3-(4-nitrophenyl)-1-oxidanylidene-propan-2-yl]-7-methyl-6,6a,8,9-tetrahydro-4H-indolo[4,3-fg]quinoline-9-carboxamide

> <PUBCHEM_IUPAC_TRADITIONAL_NAME>
(6aR,9R)-N-[(1S)-2-[[(1S)-1-(3-carbamoylpiperidine-1-carbonyl)-3-cyclohexyl-propyl]amino]-2-keto-1-(4-nitrobenzyl)ethyl]-7-methyl-6,6a,8,9-tetrahydro-4H-indolo[4,3-fg]quinoline-9-carboxamide

> <PUBCHEM_IUPAC_INCHI>
InChI=1S/C41H51N7O6/c1-46-23-29(20-32-31-10-5-11-33-37(31)28(22-43-33)21-36(32)46)39(50)45-35(19-26-12-15-30(16-13-26)48(53)54)40(51)44-34(17-14-25-7-3-2-4-8-25)41(52)47-18-6-9-27(24-47)38(42)49/h5,10-13,15-16,20,22,25,27,29,34-36,43H,2-4,6-9,14,17-19,21,23-24H2,1H3,(H2,42,49)(H,44,51)(H,45,50)/t27?,29-,34+,35+,36-/m1/s1

> <PUBCHEM_IUPAC_INCHIKEY>
LZHXZGVGDIQVLP-XHXGFGLKSA-N

> <PUBCHEM_XLOGP3_AA>
4.9

> <PUBCHEM_EXACT_MASS>
737.39008237

> <PUBCHEM_MOLECULAR_FORMULA>
C41H51N7O6

> <PUBCHEM_MOLECULAR_WEIGHT>
737.9

> <PUBCHEM_OPENEYE_CAN_SMILES>
CN1CC(C=C2C1CC3=CNC4=CC=CC2=C34)C(=O)NC(CC5=CC=C(C=C5)[N+](=O)[O-])C(=O)NC(CCC6CCCCC6)C(=O)N7CCCC(C7)C(=O)N

> <PUBCHEM_OPENEYE_ISO_SMILES>
CN1C[C@@H](C=C2[C@H]1CC3=CNC4=CC=CC2=C34)C(=O)N[C@@H](CC5=CC=C(C=C5)[N+](=O)[O-])C(=O)N[C@@H](CCC6CCCCC6)C(=O)N7CCCC(C7)C(=O)N

> <PUBCHEM_CACTVS_TPSA>
186

> <PUBCHEM_MONOISOTOPIC_WEIGHT>
737.39008237

> <PUBCHEM_TOTAL_CHARGE>
0

> <PUBCHEM_HEAVY_ATOM_COUNT>
54

> <PUBCHEM_ATOM_DEF_STEREO_COUNT>
4

> <PUBCHEM_ATOM_UDEF_STEREO_COUNT>
1

> <PUBCHEM_BOND_DEF_STEREO_COUNT>
0

> <PUBCHEM_BOND_UDEF_STEREO_COUNT>
0

> <PUBCHEM_ISOTOPIC_ATOM_COUNT>
0

> <PUBCHEM_COMPONENT_COUNT>
1

> <PUBCHEM_CACTVS_TAUTO_COUNT>
-1

> <PUBCHEM_COORDINATE_TYPE>
1
5
255

> <PUBCHEM_BONDANNOTATIONS>
10  38  8
10  41  8
42  11  5
18  62  5
26  39  5
28  30  8
28  41  8
29  30  8
29  43  8
30  38  8
33  47  3
38  45  8
43  46  8
45  46  8
49  50  8
49  51  8
50  52  8
51  53  8
52  54  8
53  54  8
25  9  5

$$$$
