44409925
  -OEChem-09292322272D

 61 63  0     0  0  0  0  0  0999 V2000
    4.5981    5.9330    0.0000 Cl  0  0  0  0  0  0  0  0  0  0  0  0
    2.0000   -5.5670    0.0000 F   0  0  0  0  0  0  0  0  0  0  0  0
    2.3660   -4.2010    0.0000 F   0  0  0  0  0  0  0  0  0  0  0  0
    3.3660   -5.9330    0.0000 F   0  0  0  0  0  0  0  0  0  0  0  0
    8.0622    3.9330    0.0000 O   0  0  0  0  0  0  0  0  0  0  0  0
    4.5981   -0.0670    0.0000 N   0  0  0  0  0  0  0  0  0  0  0  0
    4.5981   -2.0670    0.0000 N   0  0  0  0  0  0  0  0  0  0  0  0
    5.4641   -3.5670    0.0000 N   0  0  0  0  0  0  0  0  0  0  0  0
    6.3301    3.9330    0.0000 N   0  0  0  0  0  0  0  0  0  0  0  0
    4.5981   -5.0670    0.0000 N   0  0  0  0  0  0  0  0  0  0  0  0
    3.7320   -0.5670    0.0000 C   0  0  0  0  0  0  0  0  0  0  0  0
    5.4641   -0.5670    0.0000 C   0  0  0  0  0  0  0  0  0  0  0  0
    3.7320   -1.5670    0.0000 C   0  0  0  0  0  0  0  0  0  0  0  0
    5.4641   -1.5670    0.0000 C   0  0  0  0  0  0  0  0  0  0  0  0
    4.5981    0.9330    0.0000 C   0  0  0  0  0  0  0  0  0  0  0  0
    5.4641    1.4330    0.0000 C   0  0  0  0  0  0  0  0  0  0  0  0
    4.5981   -3.0670    0.0000 C   0  0  0  0  0  0  0  0  0  0  0  0
    5.4641    2.4330    0.0000 C   0  0  0  0  0  0  0  0  0  0  0  0
    6.3301   -5.0670    0.0000 C   0  0  0  0  0  0  0  0  0  0  0  0
    6.3301    2.9330    0.0000 C   0  0  0  0  0  0  0  0  0  0  0  0
    5.4641   -4.5670    0.0000 C   0  0  0  0  0  0  0  0  0  0  0  0
    3.7320   -3.5670    0.0000 C   0  0  0  0  0  0  0  0  0  0  0  0
    3.7320   -4.5670    0.0000 C   0  0  0  0  0  0  0  0  0  0  0  0
    7.1962   -5.5670    0.0000 C   0  0  0  0  0  0  0  0  0  0  0  0
    5.8301   -5.9330    0.0000 C   0  0  0  0  0  0  0  0  0  0  0  0
    6.8301   -4.2010    0.0000 C   0  0  0  0  0  0  0  0  0  0  0  0
    2.8660   -5.0670    0.0000 C   0  0  0  0  0  0  0  0  0  0  0  0
    5.4641    4.4330    0.0000 C   0  0  0  0  0  0  0  0  0  0  0  0
    7.1962    4.4330    0.0000 C   0  0  0  0  0  0  0  0  0  0  0  0
    5.4641    5.4330    0.0000 C   0  0  0  0  0  0  0  0  0  0  0  0
    7.1962    5.4330    0.0000 C   0  0  0  0  0  0  0  0  0  0  0  0
    6.3301    5.9330    0.0000 C   0  0  0  0  0  0  0  0  0  0  0  0
    3.5200    0.0156    0.0000 H   0  0  0  0  0  0  0  0  0  0  0  0
    3.1215   -0.6746    0.0000 H   0  0  0  0  0  0  0  0  0  0  0  0
    6.0747   -0.6746    0.0000 H   0  0  0  0  0  0  0  0  0  0  0  0
    5.6762    0.0156    0.0000 H   0  0  0  0  0  0  0  0  0  0  0  0
    3.1215   -1.4593    0.0000 H   0  0  0  0  0  0  0  0  0  0  0  0
    3.5200   -2.1496    0.0000 H   0  0  0  0  0  0  0  0  0  0  0  0
    5.6762   -2.1496    0.0000 H   0  0  0  0  0  0  0  0  0  0  0  0
    6.0747   -1.4593    0.0000 H   0  0  0  0  0  0  0  0  0  0  0  0
    4.3860    1.5156    0.0000 H   0  0  0  0  0  0  0  0  0  0  0  0
    3.9875    0.8254    0.0000 H   0  0  0  0  0  0  0  0  0  0  0  0
    5.6762    0.8504    0.0000 H   0  0  0  0  0  0  0  0  0  0  0  0
    6.0747    1.5407    0.0000 H   0  0  0  0  0  0  0  0  0  0  0  0
    5.2520    3.0156    0.0000 H   0  0  0  0  0  0  0  0  0  0  0  0
    4.8535    2.3253    0.0000 H   0  0  0  0  0  0  0  0  0  0  0  0
    6.5422    2.3504    0.0000 H   0  0  0  0  0  0  0  0  0  0  0  0
    6.9407    3.0407    0.0000 H   0  0  0  0  0  0  0  0  0  0  0  0
    3.1951   -3.2570    0.0000 H   0  0  0  0  0  0  0  0  0  0  0  0
    6.8862   -6.1039    0.0000 H   0  0  0  0  0  0  0  0  0  0  0  0
    7.7331   -5.8770    0.0000 H   0  0  0  0  0  0  0  0  0  0  0  0
    7.5062   -5.0300    0.0000 H   0  0  0  0  0  0  0  0  0  0  0  0
    5.2932   -5.6230    0.0000 H   0  0  0  0  0  0  0  0  0  0  0  0
    5.5201   -6.4700    0.0000 H   0  0  0  0  0  0  0  0  0  0  0  0
    6.3671   -6.2430    0.0000 H   0  0  0  0  0  0  0  0  0  0  0  0
    7.3671   -4.5110    0.0000 H   0  0  0  0  0  0  0  0  0  0  0  0
    7.1401   -3.6640    0.0000 H   0  0  0  0  0  0  0  0  0  0  0  0
    6.2932   -3.8910    0.0000 H   0  0  0  0  0  0  0  0  0  0  0  0
    4.9272    4.1230    0.0000 H   0  0  0  0  0  0  0  0  0  0  0  0
    7.7331    5.7430    0.0000 H   0  0  0  0  0  0  0  0  0  0  0  0
    6.3301    6.5530    0.0000 H   0  0  0  0  0  0  0  0  0  0  0  0
  1 30  1  0  0  0  0
  2 27  1  0  0  0  0
  3 27  1  0  0  0  0
  4 27  1  0  0  0  0
  5 29  2  0  0  0  0
  6 11  1  0  0  0  0
  6 12  1  0  0  0  0
  6 15  1  0  0  0  0
  7 13  1  0  0  0  0
  7 14  1  0  0  0  0
  7 17  1  0  0  0  0
  8 17  2  0  0  0  0
  8 21  1  0  0  0  0
  9 20  1  0  0  0  0
  9 28  1  0  0  0  0
  9 29  1  0  0  0  0
 10 21  2  0  0  0  0
 10 23  1  0  0  0  0
 11 13  1  0  0  0  0
 11 33  1  0  0  0  0
 11 34  1  0  0  0  0
 12 14  1  0  0  0  0
 12 35  1  0  0  0  0
 12 36  1  0  0  0  0
 13 37  1  0  0  0  0
 13 38  1  0  0  0  0
 14 39  1  0  0  0  0
 14 40  1  0  0  0  0
 15 16  1  0  0  0  0
 15 41  1  0  0  0  0
 15 42  1  0  0  0  0
 16 18  1  0  0  0  0
 16 43  1  0  0  0  0
 16 44  1  0  0  0  0
 17 22  1  0  0  0  0
 18 20  1  0  0  0  0
 18 45  1  0  0  0  0
 18 46  1  0  0  0  0
 19 21  1  0  0  0  0
 19 24  1  0  0  0  0
 19 25  1  0  0  0  0
 19 26  1  0  0  0  0
 20 47  1  0  0  0  0
 20 48  1  0  0  0  0
 22 23  2  0  0  0  0
 22 49  1  0  0  0  0
 23 27  1  0  0  0  0
 24 50  1  0  0  0  0
 24 51  1  0  0  0  0
 24 52  1  0  0  0  0
 25 53  1  0  0  0  0
 25 54  1  0  0  0  0
 25 55  1  0  0  0  0
 26 56  1  0  0  0  0
 26 57  1  0  0  0  0
 26 58  1  0  0  0  0
 28 30  2  0  0  0  0
 28 59  1  0  0  0  0
 29 31  1  0  0  0  0
 30 32  1  0  0  0  0
 31 32  2  0  0  0  0
 31 60  1  0  0  0  0
 32 61  1  0  0  0  0
M  END
> <PUBCHEM_COMPOUND_CID>
44409925

> <PUBCHEM_COMPOUND_CANONICALIZED>
1

> <PUBCHEM_CACTVS_COMPLEXITY>
713

> <PUBCHEM_CACTVS_HBOND_ACCEPTOR>
8

> <PUBCHEM_CACTVS_HBOND_DONOR>
0

> <PUBCHEM_CACTVS_ROTATABLE_BOND>
7

> <PUBCHEM_CACTVS_SUBSKEYS>
AAADceB7oYAEAAAAAAAAAAAAAAAAAAAAAAAsWIAAAAAAAAABgAAAHwIAAAAADgrBlxQzsJcIEACoASd2dACAgCkhAqAJGCA4ZFiIaABAycAUBAhIBgLAwaAAAAAAAAAAAAAAAAAAAAAAAAAAAAAAAAAAAA==

> <PUBCHEM_IUPAC_OPENEYE_NAME>
1-[4-[4-[2-tert-butyl-6-(trifluoromethyl)pyrimidin-4-yl]piperazin-1-yl]butyl]-5-chloro-pyridin-2-one

> <PUBCHEM_IUPAC_CAS_NAME>
1-[4-[4-[2-tert-butyl-6-(trifluoromethyl)-4-pyrimidinyl]-1-piperazinyl]butyl]-5-chloro-2-pyridinone

> <PUBCHEM_IUPAC_NAME_MARKUP>
1-[4-[4-[2-<I>tert</I>-butyl-6-(trifluoromethyl)pyrimidin-4-yl]piperazin-1-yl]butyl]-5-chloropyridin-2-one

> <PUBCHEM_IUPAC_NAME>
1-[4-[4-[2-tert-butyl-6-(trifluoromethyl)pyrimidin-4-yl]piperazin-1-yl]butyl]-5-chloropyridin-2-one

> <PUBCHEM_IUPAC_SYSTEMATIC_NAME>
1-[4-[4-[2-tert-butyl-6-(trifluoromethyl)pyrimidin-4-yl]piperazin-1-yl]butyl]-5-chloranyl-pyridin-2-one

> <PUBCHEM_IUPAC_TRADITIONAL_NAME>
1-[4-[4-[2-tert-butyl-6-(trifluoromethyl)pyrimidin-4-yl]piperazino]butyl]-5-chloro-2-pyridone

> <PUBCHEM_IUPAC_INCHI>
InChI=1S/C22H29ClF3N5O/c1-21(2,3)20-27-17(22(24,25)26)14-18(28-20)30-12-10-29(11-13-30)8-4-5-9-31-15-16(23)6-7-19(31)32/h6-7,14-15H,4-5,8-13H2,1-3H3

> <PUBCHEM_IUPAC_INCHIKEY>
HAQWHYZIBLSPID-UHFFFAOYSA-N

> <PUBCHEM_XLOGP3_AA>
4.3

> <PUBCHEM_EXACT_MASS>
471.2012727

> <PUBCHEM_MOLECULAR_FORMULA>
C22H29ClF3N5O

> <PUBCHEM_MOLECULAR_WEIGHT>
471.9

> <PUBCHEM_OPENEYE_CAN_SMILES>
CC(C)(C)C1=NC(=CC(=N1)N2CCN(CC2)CCCCN3C=C(C=CC3=O)Cl)C(F)(F)F

> <PUBCHEM_OPENEYE_ISO_SMILES>
CC(C)(C)C1=NC(=CC(=N1)N2CCN(CC2)CCCCN3C=C(C=CC3=O)Cl)C(F)(F)F

> <PUBCHEM_CACTVS_TPSA>
52.6

> <PUBCHEM_MONOISOTOPIC_WEIGHT>
471.2012727

> <PUBCHEM_TOTAL_CHARGE>
0

> <PUBCHEM_HEAVY_ATOM_COUNT>
32

> <PUBCHEM_ATOM_DEF_STEREO_COUNT>
0

> <PUBCHEM_ATOM_UDEF_STEREO_COUNT>
0

> <PUBCHEM_BOND_DEF_STEREO_COUNT>
0

> <PUBCHEM_BOND_UDEF_STEREO_COUNT>
0

> <PUBCHEM_ISOTOPIC_ATOM_COUNT>
0

> <PUBCHEM_COMPONENT_COUNT>
1

> <PUBCHEM_CACTVS_TAUTO_COUNT>
-1

> <PUBCHEM_COORDINATE_TYPE>
1
5
255

> <PUBCHEM_BONDANNOTATIONS>
10  21  8
10  23  8
17  22  8
22  23  8
28  30  8
29  31  8
30  32  8
31  32  8
8  17  8
8  21  8
9  28  8
9  29  8

$$$$
