25068962
  -OEChem-09292322302D

 59 63  0     0  0  0  0  0  0999 V2000
    8.9796    4.7678    0.0000 O   0  0  0  0  0  0  0  0  0  0  0  0
    4.5816   -1.7114    0.0000 O   0  0  0  0  0  0  0  0  0  0  0  0
    2.0000   -4.6723    0.0000 O   0  0  0  0  0  0  0  0  0  0  0  0
    6.3136    1.2886    0.0000 N   0  0  0  0  0  0  0  0  0  0  0  0
    6.3136    3.2886    0.0000 N   0  0  0  0  0  0  0  0  0  0  0  0
    3.3836   -5.7863    0.0000 N   0  0  0  0  0  0  0  0  0  0  0  0
    5.4476    1.7886    0.0000 C   0  0  0  0  0  0  0  0  0  0  0  0
    7.1796    1.7886    0.0000 C   0  0  0  0  0  0  0  0  0  0  0  0
    5.4476    2.7886    0.0000 C   0  0  0  0  0  0  0  0  0  0  0  0
    7.1796    2.7886    0.0000 C   0  0  0  0  0  0  0  0  0  0  0  0
    6.3136    0.2886    0.0000 C   0  0  0  0  0  0  0  0  0  0  0  0
    6.3136    4.2886    0.0000 C   0  0  0  0  0  0  0  0  0  0  0  0
    7.1796    4.7886    0.0000 C   0  0  0  0  0  0  0  0  0  0  0  0
    5.4476   -0.2114    0.0000 C   0  0  0  0  0  0  0  0  0  0  0  0
    7.1796    5.7886    0.0000 C   0  0  0  0  0  0  0  0  0  0  0  0
    8.0736    4.2539    0.0000 C   0  0  0  0  0  0  0  0  0  0  0  0
    5.4476    4.7886    0.0000 C   0  0  0  0  0  0  0  0  0  0  0  0
    8.0736    6.3232    0.0000 C   0  0  0  0  0  0  0  0  0  0  0  0
    8.9796    5.8094    0.0000 C   0  0  0  0  0  0  0  0  0  0  0  0
    5.4476   -1.2114    0.0000 C   0  0  0  0  0  0  0  0  0  0  0  0
    6.3136    6.2886    0.0000 C   0  0  0  0  0  0  0  0  0  0  0  0
    5.4476    5.7886    0.0000 C   0  0  0  0  0  0  0  0  0  0  0  0
    4.5816   -2.7114    0.0000 C   0  0  0  0  0  0  0  0  0  0  0  0
    4.5816   -4.7114    0.0000 C   0  0  0  0  0  0  0  0  0  0  0  0
    3.7155   -4.2114    0.0000 C   0  0  0  0  0  0  0  0  0  0  0  0
    3.7155   -3.2114    0.0000 C   0  0  0  0  0  0  0  0  0  0  0  0
    4.3723   -5.6832    0.0000 C   0  0  0  0  0  0  0  0  0  0  0  0
    5.4476   -3.2114    0.0000 C   0  0  0  0  0  0  0  0  0  0  0  0
    5.4476   -4.2114    0.0000 C   0  0  0  0  0  0  0  0  0  0  0  0
    2.9785   -4.8785    0.0000 C   0  0  0  0  0  0  0  0  0  0  0  0
    4.8370    1.8962    0.0000 H   0  0  0  0  0  0  0  0  0  0  0  0
    5.2355    1.2060    0.0000 H   0  0  0  0  0  0  0  0  0  0  0  0
    7.3917    1.2060    0.0000 H   0  0  0  0  0  0  0  0  0  0  0  0
    7.7902    1.8962    0.0000 H   0  0  0  0  0  0  0  0  0  0  0  0
    5.2355    3.3712    0.0000 H   0  0  0  0  0  0  0  0  0  0  0  0
    4.8370    2.6809    0.0000 H   0  0  0  0  0  0  0  0  0  0  0  0
    7.7902    2.6809    0.0000 H   0  0  0  0  0  0  0  0  0  0  0  0
    7.3917    3.3712    0.0000 H   0  0  0  0  0  0  0  0  0  0  0  0
    6.5256   -0.2940    0.0000 H   0  0  0  0  0  0  0  0  0  0  0  0
    6.9242    0.3962    0.0000 H   0  0  0  0  0  0  0  0  0  0  0  0
    5.2355    0.3712    0.0000 H   0  0  0  0  0  0  0  0  0  0  0  0
    4.8370   -0.3191    0.0000 H   0  0  0  0  0  0  0  0  0  0  0  0
    7.6690    3.7841    0.0000 H   0  0  0  0  0  0  0  0  0  0  0  0
    8.4672    3.7749    0.0000 H   0  0  0  0  0  0  0  0  0  0  0  0
    4.9106    4.4786    0.0000 H   0  0  0  0  0  0  0  0  0  0  0  0
    8.4672    6.8022    0.0000 H   0  0  0  0  0  0  0  0  0  0  0  0
    7.6690    6.7930    0.0000 H   0  0  0  0  0  0  0  0  0  0  0  0
    9.5905    5.7033    0.0000 H   0  0  0  0  0  0  0  0  0  0  0  0
    9.1887    6.3931    0.0000 H   0  0  0  0  0  0  0  0  0  0  0  0
    5.6596   -1.7940    0.0000 H   0  0  0  0  0  0  0  0  0  0  0  0
    6.0582   -1.1038    0.0000 H   0  0  0  0  0  0  0  0  0  0  0  0
    6.3136    6.9086    0.0000 H   0  0  0  0  0  0  0  0  0  0  0  0
    4.9106    6.0986    0.0000 H   0  0  0  0  0  0  0  0  0  0  0  0
    3.1786   -2.9014    0.0000 H   0  0  0  0  0  0  0  0  0  0  0  0
    4.3714   -6.3032    0.0000 H   0  0  0  0  0  0  0  0  0  0  0  0
    4.9888   -5.7493    0.0000 H   0  0  0  0  0  0  0  0  0  0  0  0
    5.9845   -2.9014    0.0000 H   0  0  0  0  0  0  0  0  0  0  0  0
    5.9845   -4.5214    0.0000 H   0  0  0  0  0  0  0  0  0  0  0  0
    3.0736   -6.3232    0.0000 H   0  0  0  0  0  0  0  0  0  0  0  0
  1 16  1  0  0  0  0
  1 19  1  0  0  0  0
  2 20  1  0  0  0  0
  2 23  1  0  0  0  0
  3 30  2  0  0  0  0
  4  7  1  0  0  0  0
  4  8  1  0  0  0  0
  4 11  1  0  0  0  0
  5  9  1  0  0  0  0
  5 10  1  0  0  0  0
  5 12  1  0  0  0  0
  6 27  1  0  0  0  0
  6 30  1  0  0  0  0
  6 59  1  0  0  0  0
  7  9  1  0  0  0  0
  7 31  1  0  0  0  0
  7 32  1  0  0  0  0
  8 10  1  0  0  0  0
  8 33  1  0  0  0  0
  8 34  1  0  0  0  0
  9 35  1  0  0  0  0
  9 36  1  0  0  0  0
 10 37  1  0  0  0  0
 10 38  1  0  0  0  0
 11 14  1  0  0  0  0
 11 39  1  0  0  0  0
 11 40  1  0  0  0  0
 12 13  1  0  0  0  0
 12 17  2  0  0  0  0
 13 15  2  0  0  0  0
 13 16  1  0  0  0  0
 14 20  1  0  0  0  0
 14 41  1  0  0  0  0
 14 42  1  0  0  0  0
 15 18  1  0  0  0  0
 15 21  1  0  0  0  0
 16 43  1  0  0  0  0
 16 44  1  0  0  0  0
 17 22  1  0  0  0  0
 17 45  1  0  0  0  0
 18 19  1  0  0  0  0
 18 46  1  0  0  0  0
 18 47  1  0  0  0  0
 19 48  1  0  0  0  0
 19 49  1  0  0  0  0
 20 50  1  0  0  0  0
 20 51  1  0  0  0  0
 21 22  2  0  0  0  0
 21 52  1  0  0  0  0
 22 53  1  0  0  0  0
 23 26  2  0  0  0  0
 23 28  1  0  0  0  0
 24 25  2  0  0  0  0
 24 27  1  0  0  0  0
 24 29  1  0  0  0  0
 25 26  1  0  0  0  0
 25 30  1  0  0  0  0
 26 54  1  0  0  0  0
 27 55  1  0  0  0  0
 27 56  1  0  0  0  0
 28 29  2  0  0  0  0
 28 57  1  0  0  0  0
 29 58  1  0  0  0  0
M  END
> <PUBCHEM_COMPOUND_CID>
25068962

> <PUBCHEM_COMPOUND_CANONICALIZED>
1

> <PUBCHEM_CACTVS_COMPLEXITY>
580

> <PUBCHEM_CACTVS_HBOND_ACCEPTOR>
5

> <PUBCHEM_CACTVS_HBOND_DONOR>
1

> <PUBCHEM_CACTVS_ROTATABLE_BOND>
6

> <PUBCHEM_CACTVS_SUBSKEYS>
AAADceB7MAAAAAAAAAAAAAAAAAAAAWAAAAA8aIEAAAAAAFiRQAAAHgAQAAAADAzhmAYwxoPABACIAiVSUACCCAAlIgAIiIEObMgMZjLEtZuWOSjmxhHI6Ye+2LOOoAABQAASAABAAAKAACQAAAAAAAAAAA==

> <PUBCHEM_IUPAC_OPENEYE_NAME>
6-[3-(4-isochroman-8-ylpiperazin-1-yl)propoxy]isoindolin-1-one

> <PUBCHEM_IUPAC_CAS_NAME>
6-[3-[4-(3,4-dihydro-1H-2-benzopyran-8-yl)-1-piperazinyl]propoxy]-2,3-dihydroisoindol-1-one

> <PUBCHEM_IUPAC_NAME_MARKUP>
6-[3-[4-(3,4-dihydro-1<I>H</I>-isochromen-8-yl)piperazin-1-yl]propoxy]-2,3-dihydroisoindol-1-one

> <PUBCHEM_IUPAC_NAME>
6-[3-[4-(3,4-dihydro-1H-isochromen-8-yl)piperazin-1-yl]propoxy]-2,3-dihydroisoindol-1-one

> <PUBCHEM_IUPAC_SYSTEMATIC_NAME>
6-[3-[4-(3,4-dihydro-1H-isochromen-8-yl)piperazin-1-yl]propoxy]-2,3-dihydroisoindol-1-one

> <PUBCHEM_IUPAC_TRADITIONAL_NAME>
6-[3-(4-isochroman-8-ylpiperazino)propoxy]isoindolin-1-one

> <PUBCHEM_IUPAC_INCHI>
InChI=1S/C24H29N3O3/c28-24-21-15-20(6-5-19(21)16-25-24)30-13-2-8-26-9-11-27(12-10-26)23-4-1-3-18-7-14-29-17-22(18)23/h1,3-6,15H,2,7-14,16-17H2,(H,25,28)

> <PUBCHEM_IUPAC_INCHIKEY>
FEPNYAFFRMEINW-UHFFFAOYSA-N

> <PUBCHEM_XLOGP3_AA>
2.4

> <PUBCHEM_EXACT_MASS>
407.22089180

> <PUBCHEM_MOLECULAR_FORMULA>
C24H29N3O3

> <PUBCHEM_MOLECULAR_WEIGHT>
407.5

> <PUBCHEM_OPENEYE_CAN_SMILES>
C1COCC2=C1C=CC=C2N3CCN(CC3)CCCOC4=CC5=C(CNC5=O)C=C4

> <PUBCHEM_OPENEYE_ISO_SMILES>
C1COCC2=C1C=CC=C2N3CCN(CC3)CCCOC4=CC5=C(CNC5=O)C=C4

> <PUBCHEM_CACTVS_TPSA>
54

> <PUBCHEM_MONOISOTOPIC_WEIGHT>
407.22089180

> <PUBCHEM_TOTAL_CHARGE>
0

> <PUBCHEM_HEAVY_ATOM_COUNT>
30

> <PUBCHEM_ATOM_DEF_STEREO_COUNT>
0

> <PUBCHEM_ATOM_UDEF_STEREO_COUNT>
0

> <PUBCHEM_BOND_DEF_STEREO_COUNT>
0

> <PUBCHEM_BOND_UDEF_STEREO_COUNT>
0

> <PUBCHEM_ISOTOPIC_ATOM_COUNT>
0

> <PUBCHEM_COMPONENT_COUNT>
1

> <PUBCHEM_CACTVS_TAUTO_COUNT>
-1

> <PUBCHEM_COORDINATE_TYPE>
1
5
255

> <PUBCHEM_BONDANNOTATIONS>
12  13  8
12  17  8
13  15  8
15  21  8
17  22  8
21  22  8
23  26  8
23  28  8
24  25  8
24  29  8
25  26  8
28  29  8

$$$$
