46882009
  -OEChem-09292321592D

 49 51  0     0  0  0  0  0  0999 V2000
    3.9045   -0.5889    0.0000 O   0  0  0  0  0  0  0  0  0  0  0  0
    6.5306    2.1899    0.0000 N   0  0  0  0  0  0  0  0  0  0  0  0
    5.6646   -0.3101    0.0000 N   0  0  0  0  0  0  0  0  0  0  0  0
    5.1646   -1.8490    0.0000 N   0  0  0  0  0  0  0  0  0  0  0  0
    5.6297    2.6238    0.0000 C   0  0  0  0  0  0  0  0  0  0  0  0
    7.4316    2.6238    0.0000 C   0  0  0  0  0  0  0  0  0  0  0  0
    6.5306    1.1899    0.0000 C   0  0  0  0  0  0  0  0  0  0  0  0
    5.4072    3.5987    0.0000 C   0  0  0  0  0  0  0  0  0  0  0  0
    7.6541    3.5987    0.0000 C   0  0  0  0  0  0  0  0  0  0  0  0
    6.0306    4.3805    0.0000 C   0  0  0  0  0  0  0  0  0  0  0  0
    7.0306    4.3805    0.0000 C   0  0  0  0  0  0  0  0  0  0  0  0
    5.6646    0.6899    0.0000 C   0  0  0  0  0  0  0  0  0  0  0  0
    6.4736   -0.8979    0.0000 C   0  0  0  0  0  0  0  0  0  0  0  0
    6.1646   -1.8490    0.0000 C   0  0  0  0  0  0  0  0  0  0  0  0
    4.8556   -0.8979    0.0000 C   0  0  0  0  0  0  0  0  0  0  0  0
    4.5768   -2.6580    0.0000 C   0  0  0  0  0  0  0  0  0  0  0  0
    3.5823   -2.5534    0.0000 C   0  0  0  0  0  0  0  0  0  0  0  0
    4.9836   -3.5715    0.0000 C   0  0  0  0  0  0  0  0  0  0  0  0
    2.9945   -3.3625    0.0000 C   0  0  0  0  0  0  0  0  0  0  0  0
    4.3958   -4.3805    0.0000 C   0  0  0  0  0  0  0  0  0  0  0  0
    3.4013   -4.2760    0.0000 C   0  0  0  0  0  0  0  0  0  0  0  0
    2.0000   -3.2579    0.0000 C   0  0  0  0  0  0  0  0  0  0  0  0
    5.0097    2.6238    0.0000 H   0  0  0  0  0  0  0  0  0  0  0  0
    5.4917    2.0193    0.0000 H   0  0  0  0  0  0  0  0  0  0  0  0
    7.5696    2.0193    0.0000 H   0  0  0  0  0  0  0  0  0  0  0  0
    8.0516    2.6238    0.0000 H   0  0  0  0  0  0  0  0  0  0  0  0
    6.7427    0.6073    0.0000 H   0  0  0  0  0  0  0  0  0  0  0  0
    7.1412    1.2976    0.0000 H   0  0  0  0  0  0  0  0  0  0  0  0
    5.0206    4.0834    0.0000 H   0  0  0  0  0  0  0  0  0  0  0  0
    4.8486    3.3297    0.0000 H   0  0  0  0  0  0  0  0  0  0  0  0
    8.2127    3.3297    0.0000 H   0  0  0  0  0  0  0  0  0  0  0  0
    8.0407    4.0834    0.0000 H   0  0  0  0  0  0  0  0  0  0  0  0
    6.1686    4.9850    0.0000 H   0  0  0  0  0  0  0  0  0  0  0  0
    5.4720    4.6495    0.0000 H   0  0  0  0  0  0  0  0  0  0  0  0
    7.5892    4.6495    0.0000 H   0  0  0  0  0  0  0  0  0  0  0  0
    6.8927    4.9850    0.0000 H   0  0  0  0  0  0  0  0  0  0  0  0
    5.4526    1.2725    0.0000 H   0  0  0  0  0  0  0  0  0  0  0  0
    5.0540    0.5822    0.0000 H   0  0  0  0  0  0  0  0  0  0  0  0
    7.0400   -1.1501    0.0000 H   0  0  0  0  0  0  0  0  0  0  0  0
    6.7836   -0.3610    0.0000 H   0  0  0  0  0  0  0  0  0  0  0  0
    6.0998   -2.4656    0.0000 H   0  0  0  0  0  0  0  0  0  0  0  0
    6.7711   -1.9779    0.0000 H   0  0  0  0  0  0  0  0  0  0  0  0
    3.3301   -1.9870    0.0000 H   0  0  0  0  0  0  0  0  0  0  0  0
    5.6002   -3.6363    0.0000 H   0  0  0  0  0  0  0  0  0  0  0  0
    4.6480   -4.9469    0.0000 H   0  0  0  0  0  0  0  0  0  0  0  0
    3.0368   -4.7776    0.0000 H   0  0  0  0  0  0  0  0  0  0  0  0
    2.0648   -2.6413    0.0000 H   0  0  0  0  0  0  0  0  0  0  0  0
    1.3834   -3.1931    0.0000 H   0  0  0  0  0  0  0  0  0  0  0  0
    1.9352   -3.8745    0.0000 H   0  0  0  0  0  0  0  0  0  0  0  0
  1 15  2  0  0  0  0
  2  5  1  0  0  0  0
  2  6  1  0  0  0  0
  2  7  1  0  0  0  0
  3 12  1  0  0  0  0
  3 13  1  0  0  0  0
  3 15  1  0  0  0  0
  4 14  1  0  0  0  0
  4 15  1  0  0  0  0
  4 16  1  0  0  0  0
  5  8  1  0  0  0  0
  5 23  1  0  0  0  0
  5 24  1  0  0  0  0
  6  9  1  0  0  0  0
  6 25  1  0  0  0  0
  6 26  1  0  0  0  0
  7 12  1  0  0  0  0
  7 27  1  0  0  0  0
  7 28  1  0  0  0  0
  8 10  1  0  0  0  0
  8 29  1  0  0  0  0
  8 30  1  0  0  0  0
  9 11  1  0  0  0  0
  9 31  1  0  0  0  0
  9 32  1  0  0  0  0
 10 11  1  0  0  0  0
 10 33  1  0  0  0  0
 10 34  1  0  0  0  0
 11 35  1  0  0  0  0
 11 36  1  0  0  0  0
 12 37  1  0  0  0  0
 12 38  1  0  0  0  0
 13 14  1  0  0  0  0
 13 39  1  0  0  0  0
 13 40  1  0  0  0  0
 14 41  1  0  0  0  0
 14 42  1  0  0  0  0
 16 17  1  0  0  0  0
 16 18  2  0  0  0  0
 17 19  2  0  0  0  0
 17 43  1  0  0  0  0
 18 20  1  0  0  0  0
 18 44  1  0  0  0  0
 19 21  1  0  0  0  0
 19 22  1  0  0  0  0
 20 21  2  0  0  0  0
 20 45  1  0  0  0  0
 21 46  1  0  0  0  0
 22 47  1  0  0  0  0
 22 48  1  0  0  0  0
 22 49  1  0  0  0  0
M  END
> <PUBCHEM_COMPOUND_CID>
46882009

> <PUBCHEM_COMPOUND_CANONICALIZED>
1

> <PUBCHEM_CACTVS_COMPLEXITY>
365

> <PUBCHEM_CACTVS_HBOND_ACCEPTOR>
2

> <PUBCHEM_CACTVS_HBOND_DONOR>
0

> <PUBCHEM_CACTVS_ROTATABLE_BOND>
4

> <PUBCHEM_CACTVS_SUBSKEYS>
AAADceB7IAAAAAAAAAAAAAAAAAAAAWAAAAAwAAAABYAAAAABAAAAHgAAAAAADAjBGAQzwIMAAACIAiRCUACCAAAhAgAIiAAIZIiIYCLAkZGUIAhohgLIyCcQgAAOAAAAQAAAAAAAAACAAAAAAAAAAAAAAA==

> <PUBCHEM_IUPAC_OPENEYE_NAME>
1-[2-(azepan-1-yl)ethyl]-3-(m-tolyl)imidazolidin-2-one

> <PUBCHEM_IUPAC_CAS_NAME>
1-[2-(1-azepanyl)ethyl]-3-(3-methylphenyl)-2-imidazolidinone

> <PUBCHEM_IUPAC_NAME_MARKUP>
1-[2-(azepan-1-yl)ethyl]-3-(3-methylphenyl)imidazolidin-2-one

> <PUBCHEM_IUPAC_NAME>
1-[2-(azepan-1-yl)ethyl]-3-(3-methylphenyl)imidazolidin-2-one

> <PUBCHEM_IUPAC_SYSTEMATIC_NAME>
1-[2-(azepan-1-yl)ethyl]-3-(3-methylphenyl)imidazolidin-2-one

> <PUBCHEM_IUPAC_TRADITIONAL_NAME>
1-[2-(azepan-1-yl)ethyl]-3-(m-tolyl)-2-imidazolidinone

> <PUBCHEM_IUPAC_INCHI>
InChI=1S/C18H27N3O/c1-16-7-6-8-17(15-16)21-14-13-20(18(21)22)12-11-19-9-4-2-3-5-10-19/h6-8,15H,2-5,9-14H2,1H3

> <PUBCHEM_IUPAC_INCHIKEY>
MQISIMYBHGTURV-UHFFFAOYSA-N

> <PUBCHEM_XLOGP3_AA>
2.7

> <PUBCHEM_EXACT_MASS>
301.215412493

> <PUBCHEM_MOLECULAR_FORMULA>
C18H27N3O

> <PUBCHEM_MOLECULAR_WEIGHT>
301.4

> <PUBCHEM_OPENEYE_CAN_SMILES>
CC1=CC(=CC=C1)N2CCN(C2=O)CCN3CCCCCC3

> <PUBCHEM_OPENEYE_ISO_SMILES>
CC1=CC(=CC=C1)N2CCN(C2=O)CCN3CCCCCC3

> <PUBCHEM_CACTVS_TPSA>
26.8

> <PUBCHEM_MONOISOTOPIC_WEIGHT>
301.215412493

> <PUBCHEM_TOTAL_CHARGE>
0

> <PUBCHEM_HEAVY_ATOM_COUNT>
22

> <PUBCHEM_ATOM_DEF_STEREO_COUNT>
0

> <PUBCHEM_ATOM_UDEF_STEREO_COUNT>
0

> <PUBCHEM_BOND_DEF_STEREO_COUNT>
0

> <PUBCHEM_BOND_UDEF_STEREO_COUNT>
0

> <PUBCHEM_ISOTOPIC_ATOM_COUNT>
0

> <PUBCHEM_COMPONENT_COUNT>
1

> <PUBCHEM_CACTVS_TAUTO_COUNT>
-1

> <PUBCHEM_COORDINATE_TYPE>
1
5
255

> <PUBCHEM_BONDANNOTATIONS>
16  17  8
16  18  8
17  19  8
18  20  8
19  21  8
20  21  8

$$$$
