23625539
  -OEChem-09292322252D

 59 63  0     0  0  0  0  0  0999 V2000
   15.2619   -2.2320    0.0000 Cl  0  0  0  0  0  0  0  0  0  0  0  0
   17.2619   -2.2320    0.0000 Cl  0  0  0  0  0  0  0  0  0  0  0  0
    9.2619    1.2320    0.0000 O   0  0  0  0  0  0  0  0  0  0  0  0
   12.2619   -0.5000    0.0000 N   0  0  0  0  0  0  0  0  0  0  0  0
   14.2619   -0.5000    0.0000 N   0  0  0  0  0  0  0  0  0  0  0  0
    3.7320    1.7320    0.0000 N   0  0  0  0  0  0  0  0  0  0  0  0
    4.6783    0.4273    0.0000 N   0  0  0  0  0  0  0  0  0  0  0  0
   12.7619   -1.3660    0.0000 C   0  0  0  0  0  0  0  0  0  0  0  0
   12.7619    0.3660    0.0000 C   0  0  0  0  0  0  0  0  0  0  0  0
   13.7619   -1.3660    0.0000 C   0  0  0  0  0  0  0  0  0  0  0  0
   13.7619    0.3660    0.0000 C   0  0  0  0  0  0  0  0  0  0  0  0
   11.2619   -0.5000    0.0000 C   0  0  0  0  0  0  0  0  0  0  0  0
   10.7619    0.3660    0.0000 C   0  0  0  0  0  0  0  0  0  0  0  0
   15.2619   -0.5000    0.0000 C   0  0  0  0  0  0  0  0  0  0  0  0
    9.7619    0.3660    0.0000 C   0  0  0  0  0  0  0  0  0  0  0  0
   15.7619   -1.3660    0.0000 C   0  0  0  0  0  0  0  0  0  0  0  0
   15.7619    0.3660    0.0000 C   0  0  0  0  0  0  0  0  0  0  0  0
   16.7619   -1.3660    0.0000 C   0  0  0  0  0  0  0  0  0  0  0  0
   16.7619    0.3660    0.0000 C   0  0  0  0  0  0  0  0  0  0  0  0
   17.2619   -0.5000    0.0000 C   0  0  0  0  0  0  0  0  0  0  0  0
    8.2619    1.2320    0.0000 C   0  0  0  0  0  0  0  0  0  0  0  0
    7.7619    2.0981    0.0000 C   0  0  0  0  0  0  0  0  0  0  0  0
    7.7619    0.3660    0.0000 C   0  0  0  0  0  0  0  0  0  0  0  0
    6.2619    1.2320    0.0000 C   0  0  0  0  0  0  0  0  0  0  0  0
    5.2619    1.2320    0.0000 C   0  0  0  0  0  0  0  0  0  0  0  0
    6.7619    2.0981    0.0000 C   0  0  0  0  0  0  0  0  0  0  0  0
    6.7619    0.3660    0.0000 C   0  0  0  0  0  0  0  0  0  0  0  0
    4.6783    2.0368    0.0000 C   0  0  0  0  0  0  0  0  0  0  0  0
    3.7320    0.7321    0.0000 C   0  0  0  0  0  0  0  0  0  0  0  0
    2.8660    2.2320    0.0000 C   0  0  0  0  0  0  0  0  0  0  0  0
    2.8660    0.2321    0.0000 C   0  0  0  0  0  0  0  0  0  0  0  0
    2.0000    1.7320    0.0000 C   0  0  0  0  0  0  0  0  0  0  0  0
    2.0000    0.7321    0.0000 C   0  0  0  0  0  0  0  0  0  0  0  0
   12.1793   -1.5781    0.0000 H   0  0  0  0  0  0  0  0  0  0  0  0
   12.8695   -1.9766    0.0000 H   0  0  0  0  0  0  0  0  0  0  0  0
   12.8695    0.9766    0.0000 H   0  0  0  0  0  0  0  0  0  0  0  0
   12.1793    0.5781    0.0000 H   0  0  0  0  0  0  0  0  0  0  0  0
   13.6542   -1.9766    0.0000 H   0  0  0  0  0  0  0  0  0  0  0  0
   14.3445   -1.5781    0.0000 H   0  0  0  0  0  0  0  0  0  0  0  0
   14.3445    0.5781    0.0000 H   0  0  0  0  0  0  0  0  0  0  0  0
   13.6542    0.9766    0.0000 H   0  0  0  0  0  0  0  0  0  0  0  0
   10.6793   -0.7121    0.0000 H   0  0  0  0  0  0  0  0  0  0  0  0
   11.3695   -1.1106    0.0000 H   0  0  0  0  0  0  0  0  0  0  0  0
   11.3445    0.5781    0.0000 H   0  0  0  0  0  0  0  0  0  0  0  0
   10.6542    0.9766    0.0000 H   0  0  0  0  0  0  0  0  0  0  0  0
    9.1793    0.1540    0.0000 H   0  0  0  0  0  0  0  0  0  0  0  0
    9.8695   -0.2446    0.0000 H   0  0  0  0  0  0  0  0  0  0  0  0
   15.4519    0.9030    0.0000 H   0  0  0  0  0  0  0  0  0  0  0  0
   17.0719    0.9030    0.0000 H   0  0  0  0  0  0  0  0  0  0  0  0
   17.8819   -0.5000    0.0000 H   0  0  0  0  0  0  0  0  0  0  0  0
    8.0719    2.6350    0.0000 H   0  0  0  0  0  0  0  0  0  0  0  0
    8.0719   -0.1709    0.0000 H   0  0  0  0  0  0  0  0  0  0  0  0
    6.4519    2.6350    0.0000 H   0  0  0  0  0  0  0  0  0  0  0  0
    6.4519   -0.1709    0.0000 H   0  0  0  0  0  0  0  0  0  0  0  0
    4.8709    2.6261    0.0000 H   0  0  0  0  0  0  0  0  0  0  0  0
    2.8660    2.8521    0.0000 H   0  0  0  0  0  0  0  0  0  0  0  0
    2.8660   -0.3879    0.0000 H   0  0  0  0  0  0  0  0  0  0  0  0
    1.4631    2.0420    0.0000 H   0  0  0  0  0  0  0  0  0  0  0  0
    1.4631    0.4221    0.0000 H   0  0  0  0  0  0  0  0  0  0  0  0
  1 16  1  0  0  0  0
  2 18  1  0  0  0  0
  3 15  1  0  0  0  0
  3 21  1  0  0  0  0
  4  8  1  0  0  0  0
  4  9  1  0  0  0  0
  4 12  1  0  0  0  0
  5 10  1  0  0  0  0
  5 11  1  0  0  0  0
  5 14  1  0  0  0  0
  6 28  1  0  0  0  0
  6 29  1  0  0  0  0
  6 30  1  0  0  0  0
  7 25  1  0  0  0  0
  7 29  2  0  0  0  0
  8 10  1  0  0  0  0
  8 34  1  0  0  0  0
  8 35  1  0  0  0  0
  9 11  1  0  0  0  0
  9 36  1  0  0  0  0
  9 37  1  0  0  0  0
 10 38  1  0  0  0  0
 10 39  1  0  0  0  0
 11 40  1  0  0  0  0
 11 41  1  0  0  0  0
 12 13  1  0  0  0  0
 12 42  1  0  0  0  0
 12 43  1  0  0  0  0
 13 15  1  0  0  0  0
 13 44  1  0  0  0  0
 13 45  1  0  0  0  0
 14 16  2  0  0  0  0
 14 17  1  0  0  0  0
 15 46  1  0  0  0  0
 15 47  1  0  0  0  0
 16 18  1  0  0  0  0
 17 19  2  0  0  0  0
 17 48  1  0  0  0  0
 18 20  2  0  0  0  0
 19 20  1  0  0  0  0
 19 49  1  0  0  0  0
 20 50  1  0  0  0  0
 21 22  2  0  0  0  0
 21 23  1  0  0  0  0
 22 26  1  0  0  0  0
 22 51  1  0  0  0  0
 23 27  2  0  0  0  0
 23 52  1  0  0  0  0
 24 25  1  0  0  0  0
 24 26  2  0  0  0  0
 24 27  1  0  0  0  0
 25 28  2  0  0  0  0
 26 53  1  0  0  0  0
 27 54  1  0  0  0  0
 28 55  1  0  0  0  0
 29 31  1  0  0  0  0
 30 32  2  0  0  0  0
 30 56  1  0  0  0  0
 31 33  2  0  0  0  0
 31 57  1  0  0  0  0
 32 33  1  0  0  0  0
 32 58  1  0  0  0  0
 33 59  1  0  0  0  0
M  END
> <PUBCHEM_COMPOUND_CID>
23625539

> <PUBCHEM_COMPOUND_CANONICALIZED>
1

> <PUBCHEM_CACTVS_COMPLEXITY>
597

> <PUBCHEM_CACTVS_HBOND_ACCEPTOR>
4

> <PUBCHEM_CACTVS_HBOND_DONOR>
0

> <PUBCHEM_CACTVS_ROTATABLE_BOND>
7

> <PUBCHEM_CACTVS_SUBSKEYS>
AAADceB7oAAGAAAAAAAAAAAAAAAAAWAAAAA8eIEAAAAAAFgB9AAAHgIAAAAADA7hnyY99p8MHACgAzZnZACCiC0xN6AJ2mA+fpiMbuLFu5vWOCjuwBPI6CeQ0IMOIAAAAAIAABRAAAAABAAAKAAAAAAAAA==

> <PUBCHEM_IUPAC_OPENEYE_NAME>
2-[4-[3-[4-(2,3-dichlorophenyl)piperazin-1-yl]propoxy]phenyl]imidazo[1,2-a]pyridine

> <PUBCHEM_IUPAC_CAS_NAME>
2-[4-[3-[4-(2,3-dichlorophenyl)-1-piperazinyl]propoxy]phenyl]imidazo[1,2-a]pyridine

> <PUBCHEM_IUPAC_NAME_MARKUP>
2-[4-[3-[4-(2,3-dichlorophenyl)piperazin-1-yl]propoxy]phenyl]imidazo[1,2-a]pyridine

> <PUBCHEM_IUPAC_NAME>
2-[4-[3-[4-(2,3-dichlorophenyl)piperazin-1-yl]propoxy]phenyl]imidazo[1,2-a]pyridine

> <PUBCHEM_IUPAC_SYSTEMATIC_NAME>
2-[4-[3-[4-[2,3-bis(chloranyl)phenyl]piperazin-1-yl]propoxy]phenyl]imidazo[1,2-a]pyridine

> <PUBCHEM_IUPAC_TRADITIONAL_NAME>
2-[4-[3-[4-(2,3-dichlorophenyl)piperazino]propoxy]phenyl]imidazo[1,2-a]pyridine

> <PUBCHEM_IUPAC_INCHI>
InChI=1S/C26H26Cl2N4O/c27-22-5-3-6-24(26(22)28)31-16-14-30(15-17-31)12-4-18-33-21-10-8-20(9-11-21)23-19-32-13-2-1-7-25(32)29-23/h1-3,5-11,13,19H,4,12,14-18H2

> <PUBCHEM_IUPAC_INCHIKEY>
UKWKGPXTOBMYJV-UHFFFAOYSA-N

> <PUBCHEM_XLOGP3_AA>
6.6

> <PUBCHEM_EXACT_MASS>
480.1483669

> <PUBCHEM_MOLECULAR_FORMULA>
C26H26Cl2N4O

> <PUBCHEM_MOLECULAR_WEIGHT>
481.4

> <PUBCHEM_OPENEYE_CAN_SMILES>
C1CN(CCN1CCCOC2=CC=C(C=C2)C3=CN4C=CC=CC4=N3)C5=C(C(=CC=C5)Cl)Cl

> <PUBCHEM_OPENEYE_ISO_SMILES>
C1CN(CCN1CCCOC2=CC=C(C=C2)C3=CN4C=CC=CC4=N3)C5=C(C(=CC=C5)Cl)Cl

> <PUBCHEM_CACTVS_TPSA>
33

> <PUBCHEM_MONOISOTOPIC_WEIGHT>
480.1483669

> <PUBCHEM_TOTAL_CHARGE>
0

> <PUBCHEM_HEAVY_ATOM_COUNT>
33

> <PUBCHEM_ATOM_DEF_STEREO_COUNT>
0

> <PUBCHEM_ATOM_UDEF_STEREO_COUNT>
0

> <PUBCHEM_BOND_DEF_STEREO_COUNT>
0

> <PUBCHEM_BOND_UDEF_STEREO_COUNT>
0

> <PUBCHEM_ISOTOPIC_ATOM_COUNT>
0

> <PUBCHEM_COMPONENT_COUNT>
1

> <PUBCHEM_CACTVS_TAUTO_COUNT>
-1

> <PUBCHEM_COORDINATE_TYPE>
1
5
255

> <PUBCHEM_BONDANNOTATIONS>
14  16  8
14  17  8
16  18  8
17  19  8
18  20  8
19  20  8
21  22  8
21  23  8
22  26  8
23  27  8
24  26  8
24  27  8
25  28  8
29  31  8
30  32  8
31  33  8
32  33  8
6  28  8
6  29  8
6  30  8
7  25  8
7  29  8

$$$$
