9844106
  -OEChem-09292322192D

 52 56  0     1  0  0  0  0  0999 V2000
    2.0000   -2.1748    0.0000 F   0  0  0  0  0  0  0  0  0  0  0  0
    8.9597    4.5688    0.0000 O   0  0  0  0  0  0  0  0  0  0  0  0
    9.6837    1.1338    0.0000 O   0  0  0  0  0  0  0  0  0  0  0  0
    6.4763    0.4815    0.0000 N   0  0  3  0  0  0  0  0  0  0  0  0
    9.0546    2.7950    0.0000 N   0  0  0  0  0  0  0  0  0  0  0  0
    5.5443   -3.9795    0.0000 N   0  0  0  0  0  0  0  0  0  0  0  0
    5.4978    0.2753    0.0000 C   0  0  0  0  0  0  0  0  0  0  0  0
    6.7870    1.4320    0.0000 C   0  0  0  0  0  0  0  0  0  0  0  0
    5.1871   -0.6752    0.0000 C   0  0  0  0  0  0  0  0  0  0  0  0
    7.1441   -0.2628    0.0000 C   0  0  0  0  0  0  0  0  0  0  0  0
    5.8550   -1.4195    0.0000 C   0  0  0  0  0  0  0  0  0  0  0  0
    7.7654    1.6383    0.0000 C   0  0  0  0  0  0  0  0  0  0  0  0
    6.8335   -1.2133    0.0000 C   0  0  0  0  0  0  0  0  0  0  0  0
    8.0761    2.5888    0.0000 C   0  0  0  0  0  0  0  0  0  0  0  0
    5.5443   -2.3700    0.0000 C   0  0  0  0  0  0  0  0  0  0  0  0
    4.5981   -2.6748    0.0000 C   0  0  0  0  0  0  0  0  0  0  0  0
    6.1279   -3.1748    0.0000 C   0  0  0  0  0  0  0  0  0  0  0  0
    4.5981   -3.6748    0.0000 C   0  0  0  0  0  0  0  0  0  0  0  0
    9.4597    3.7028    0.0000 C   0  0  0  0  0  0  0  0  0  0  0  0
    9.7916    2.1279    0.0000 C   0  0  0  0  0  0  0  0  0  0  0  0
   10.4485    3.5997    0.0000 C   0  0  0  0  0  0  0  0  0  0  0  0
   10.6547    2.6212    0.0000 C   0  0  0  0  0  0  0  0  0  0  0  0
    3.7320   -2.1748    0.0000 C   0  0  0  0  0  0  0  0  0  0  0  0
    3.7320   -4.1748    0.0000 C   0  0  0  0  0  0  0  0  0  0  0  0
   11.1928    4.2676    0.0000 C   0  0  0  0  0  0  0  0  0  0  0  0
   11.6052    2.3106    0.0000 C   0  0  0  0  0  0  0  0  0  0  0  0
    2.8660   -2.6748    0.0000 C   0  0  0  0  0  0  0  0  0  0  0  0
    2.8660   -3.6748    0.0000 C   0  0  0  0  0  0  0  0  0  0  0  0
   12.1433    3.9569    0.0000 C   0  0  0  0  0  0  0  0  0  0  0  0
   12.3495    2.9784    0.0000 C   0  0  0  0  0  0  0  0  0  0  0  0
    5.4772    0.8950    0.0000 H   0  0  0  0  0  0  0  0  0  0  0  0
    4.8840    0.3627    0.0000 H   0  0  0  0  0  0  0  0  0  0  0  0
    6.7664    2.0517    0.0000 H   0  0  0  0  0  0  0  0  0  0  0  0
    6.1731    1.5194    0.0000 H   0  0  0  0  0  0  0  0  0  0  0  0
    4.6402   -0.3832    0.0000 H   0  0  0  0  0  0  0  0  0  0  0  0
    4.8046   -1.1631    0.0000 H   0  0  0  0  0  0  0  0  0  0  0  0
    7.6910   -0.5548    0.0000 H   0  0  0  0  0  0  0  0  0  0  0  0
    7.5267    0.2251    0.0000 H   0  0  0  0  0  0  0  0  0  0  0  0
    7.7860    1.0186    0.0000 H   0  0  0  0  0  0  0  0  0  0  0  0
    8.3793    1.5509    0.0000 H   0  0  0  0  0  0  0  0  0  0  0  0
    7.2475   -1.6748    0.0000 H   0  0  0  0  0  0  0  0  0  0  0  0
    8.0556    3.2084    0.0000 H   0  0  0  0  0  0  0  0  0  0  0  0
    7.4623    2.6761    0.0000 H   0  0  0  0  0  0  0  0  0  0  0  0
    6.7479   -3.1748    0.0000 H   0  0  0  0  0  0  0  0  0  0  0  0
    5.7369   -4.5688    0.0000 H   0  0  0  0  0  0  0  0  0  0  0  0
    3.7320   -1.5548    0.0000 H   0  0  0  0  0  0  0  0  0  0  0  0
    3.7320   -4.7948    0.0000 H   0  0  0  0  0  0  0  0  0  0  0  0
   11.0649    4.8743    0.0000 H   0  0  0  0  0  0  0  0  0  0  0  0
   11.7331    1.7039    0.0000 H   0  0  0  0  0  0  0  0  0  0  0  0
    2.3291   -3.9848    0.0000 H   0  0  0  0  0  0  0  0  0  0  0  0
   12.6047    4.3710    0.0000 H   0  0  0  0  0  0  0  0  0  0  0  0
   12.9388    2.7858    0.0000 H   0  0  0  0  0  0  0  0  0  0  0  0
  1 27  1  0  0  0  0
  2 19  2  0  0  0  0
  3 20  2  0  0  0  0
  4  7  1  0  0  0  0
  4  8  1  0  0  0  0
  4 10  1  0  0  0  0
  5 14  1  0  0  0  0
  5 19  1  0  0  0  0
  5 20  1  0  0  0  0
  6 17  1  0  0  0  0
  6 18  1  0  0  0  0
  6 45  1  0  0  0  0
  7  9  1  0  0  0  0
  7 31  1  0  0  0  0
  7 32  1  0  0  0  0
  8 12  1  0  0  0  0
  8 33  1  0  0  0  0
  8 34  1  0  0  0  0
  9 11  1  0  0  0  0
  9 35  1  0  0  0  0
  9 36  1  0  0  0  0
 10 13  1  0  0  0  0
 10 37  1  0  0  0  0
 10 38  1  0  0  0  0
 11 13  2  0  0  0  0
 11 15  1  0  0  0  0
 12 14  1  0  0  0  0
 12 39  1  0  0  0  0
 12 40  1  0  0  0  0
 13 41  1  0  0  0  0
 14 42  1  0  0  0  0
 14 43  1  0  0  0  0
 15 16  1  0  0  0  0
 15 17  2  0  0  0  0
 16 18  2  0  0  0  0
 16 23  1  0  0  0  0
 17 44  1  0  0  0  0
 18 24  1  0  0  0  0
 19 21  1  0  0  0  0
 20 22  1  0  0  0  0
 21 22  1  0  0  0  0
 21 25  2  0  0  0  0
 22 26  2  0  0  0  0
 23 27  2  0  0  0  0
 23 46  1  0  0  0  0
 24 28  2  0  0  0  0
 24 47  1  0  0  0  0
 25 29  1  0  0  0  0
 25 48  1  0  0  0  0
 26 30  1  0  0  0  0
 26 49  1  0  0  0  0
 27 28  1  0  0  0  0
 28 50  1  0  0  0  0
 29 30  2  0  0  0  0
 29 51  1  0  0  0  0
 30 52  1  0  0  0  0
M  END
> <PUBCHEM_COMPOUND_CID>
9844106

> <PUBCHEM_COMPOUND_CANONICALIZED>
1

> <PUBCHEM_CACTVS_COMPLEXITY>
687

> <PUBCHEM_CACTVS_HBOND_ACCEPTOR>
4

> <PUBCHEM_CACTVS_HBOND_DONOR>
1

> <PUBCHEM_CACTVS_ROTATABLE_BOND>
5

> <PUBCHEM_CACTVS_SUBSKEYS>
AAADceB7MQAAAAAAAAAAAAAAAAAAAWLAAAAwYIAAAAAAAFgB9AAAHwAQAAAADAjBngw8wPPJkACoAzV3VACCgCA1AiAI2aE4ZNgIIPLA1ZGEIQhgliDIyYcdiMCOgAAAAAASAAAAAAAAACQAAAAAAAAAAA==

> <PUBCHEM_IUPAC_OPENEYE_NAME>
2-[3-[4-(5-fluoro-1H-indol-3-yl)-3,6-dihydro-2H-pyridin-1-yl]propyl]isoindoline-1,3-dione

> <PUBCHEM_IUPAC_CAS_NAME>
2-[3-[4-(5-fluoro-1H-indol-3-yl)-3,6-dihydro-2H-pyridin-1-yl]propyl]isoindole-1,3-dione

> <PUBCHEM_IUPAC_NAME_MARKUP>
2-[3-[4-(5-fluoro-1<I>H</I>-indol-3-yl)-3,6-dihydro-2<I>H</I>-pyridin-1-yl]propyl]isoindole-1,3-dione

> <PUBCHEM_IUPAC_NAME>
2-[3-[4-(5-fluoro-1H-indol-3-yl)-3,6-dihydro-2H-pyridin-1-yl]propyl]isoindole-1,3-dione

> <PUBCHEM_IUPAC_SYSTEMATIC_NAME>
2-[3-[4-(5-fluoranyl-1H-indol-3-yl)-3,6-dihydro-2H-pyridin-1-yl]propyl]isoindole-1,3-dione

> <PUBCHEM_IUPAC_TRADITIONAL_NAME>
2-[3-[4-(5-fluoro-1H-indol-3-yl)-3,6-dihydro-2H-pyridin-1-yl]propyl]isoindoline-1,3-quinone

> <PUBCHEM_IUPAC_INCHI>
InChI=1S/C24H22FN3O2/c25-17-6-7-22-20(14-17)21(15-26-22)16-8-12-27(13-9-16)10-3-11-28-23(29)18-4-1-2-5-19(18)24(28)30/h1-2,4-8,14-15,26H,3,9-13H2

> <PUBCHEM_IUPAC_INCHIKEY>
MKIPKEANVGLYQX-UHFFFAOYSA-N

> <PUBCHEM_XLOGP3_AA>
3.4

> <PUBCHEM_EXACT_MASS>
403.16960512

> <PUBCHEM_MOLECULAR_FORMULA>
C24H22FN3O2

> <PUBCHEM_MOLECULAR_WEIGHT>
403.4

> <PUBCHEM_OPENEYE_CAN_SMILES>
C1CN(CC=C1C2=CNC3=C2C=C(C=C3)F)CCCN4C(=O)C5=CC=CC=C5C4=O

> <PUBCHEM_OPENEYE_ISO_SMILES>
C1CN(CC=C1C2=CNC3=C2C=C(C=C3)F)CCCN4C(=O)C5=CC=CC=C5C4=O

> <PUBCHEM_CACTVS_TPSA>
56.4

> <PUBCHEM_MONOISOTOPIC_WEIGHT>
403.16960512

> <PUBCHEM_TOTAL_CHARGE>
0

> <PUBCHEM_HEAVY_ATOM_COUNT>
30

> <PUBCHEM_ATOM_DEF_STEREO_COUNT>
0

> <PUBCHEM_ATOM_UDEF_STEREO_COUNT>
0

> <PUBCHEM_BOND_DEF_STEREO_COUNT>
0

> <PUBCHEM_BOND_UDEF_STEREO_COUNT>
0

> <PUBCHEM_ISOTOPIC_ATOM_COUNT>
0

> <PUBCHEM_COMPONENT_COUNT>
1

> <PUBCHEM_CACTVS_TAUTO_COUNT>
-1

> <PUBCHEM_COORDINATE_TYPE>
1
5
255

> <PUBCHEM_BONDANNOTATIONS>
15  16  8
15  17  8
16  18  8
16  23  8
18  24  8
21  22  8
21  25  8
22  26  8
23  27  8
24  28  8
25  29  8
26  30  8
27  28  8
29  30  8
6  17  8
6  18  8

$$$$
