71456780
  -OEChem-09292322332D

 52 54  0     0  0  0  0  0  0999 V2000
    2.0000   -6.0000    0.0000 Cl  0  0  0  0  0  0  0  0  0  0  0  0
    3.7320   -3.0000    0.0000 S   0  0  0  0  0  0  0  0  0  0  0  0
    8.9282    4.0000    0.0000 F   0  0  0  0  0  0  0  0  0  0  0  0
    5.4641    4.0000    0.0000 O   0  0  0  0  0  0  0  0  0  0  0  0
    4.7320   -3.0000    0.0000 O   0  0  0  0  0  0  0  0  0  0  0  0
    2.7320   -3.0000    0.0000 O   0  0  0  0  0  0  0  0  0  0  0  0
    4.5981    1.5000    0.0000 N   0  0  0  0  0  0  0  0  0  0  0  0
    3.7320   -2.0000    0.0000 N   0  0  0  0  0  0  0  0  0  0  0  0
    4.5981   -0.5000    0.0000 C   0  0  0  0  0  0  0  0  0  0  0  0
    5.4641   -0.0000    0.0000 C   0  0  0  0  0  0  0  0  0  0  0  0
    3.7320   -0.0000    0.0000 C   0  0  0  0  0  0  0  0  0  0  0  0
    5.4641    1.0000    0.0000 C   0  0  0  0  0  0  0  0  0  0  0  0
    3.7320    1.0000    0.0000 C   0  0  0  0  0  0  0  0  0  0  0  0
    4.5981   -1.5000    0.0000 C   0  0  0  0  0  0  0  0  0  0  0  0
    4.5981    2.5000    0.0000 C   0  0  0  0  0  0  0  0  0  0  0  0
    5.4641    3.0000    0.0000 C   0  0  0  0  0  0  0  0  0  0  0  0
    3.7320   -4.0000    0.0000 C   0  0  0  0  0  0  0  0  0  0  0  0
    2.8660   -4.5000    0.0000 C   0  0  0  0  0  0  0  0  0  0  0  0
    4.5981   -4.5000    0.0000 C   0  0  0  0  0  0  0  0  0  0  0  0
    6.3301    4.5000    0.0000 C   0  0  0  0  0  0  0  0  0  0  0  0
    2.8660   -5.5000    0.0000 C   0  0  0  0  0  0  0  0  0  0  0  0
    4.5981   -5.5000    0.0000 C   0  0  0  0  0  0  0  0  0  0  0  0
    7.1962    4.0000    0.0000 C   0  0  0  0  0  0  0  0  0  0  0  0
    6.3301    5.5000    0.0000 C   0  0  0  0  0  0  0  0  0  0  0  0
    3.7320   -6.0000    0.0000 C   0  0  0  0  0  0  0  0  0  0  0  0
    8.0622    4.5000    0.0000 C   0  0  0  0  0  0  0  0  0  0  0  0
    7.1962    6.0000    0.0000 C   0  0  0  0  0  0  0  0  0  0  0  0
    8.0622    5.5000    0.0000 C   0  0  0  0  0  0  0  0  0  0  0  0
    5.1350   -0.8100    0.0000 H   0  0  0  0  0  0  0  0  0  0  0  0
    5.6762   -0.5826    0.0000 H   0  0  0  0  0  0  0  0  0  0  0  0
    6.0747    0.1077    0.0000 H   0  0  0  0  0  0  0  0  0  0  0  0
    3.1215    0.1077    0.0000 H   0  0  0  0  0  0  0  0  0  0  0  0
    3.5200   -0.5826    0.0000 H   0  0  0  0  0  0  0  0  0  0  0  0
    6.0747    0.8923    0.0000 H   0  0  0  0  0  0  0  0  0  0  0  0
    5.6762    1.5826    0.0000 H   0  0  0  0  0  0  0  0  0  0  0  0
    3.5200    1.5826    0.0000 H   0  0  0  0  0  0  0  0  0  0  0  0
    3.1215    0.8923    0.0000 H   0  0  0  0  0  0  0  0  0  0  0  0
    4.8101   -2.0826    0.0000 H   0  0  0  0  0  0  0  0  0  0  0  0
    5.2087   -1.3923    0.0000 H   0  0  0  0  0  0  0  0  0  0  0  0
    4.3860    3.0826    0.0000 H   0  0  0  0  0  0  0  0  0  0  0  0
    3.9875    2.3923    0.0000 H   0  0  0  0  0  0  0  0  0  0  0  0
    3.1951   -1.6900    0.0000 H   0  0  0  0  0  0  0  0  0  0  0  0
    5.6762    2.4174    0.0000 H   0  0  0  0  0  0  0  0  0  0  0  0
    6.0747    3.1077    0.0000 H   0  0  0  0  0  0  0  0  0  0  0  0
    2.3291   -4.1900    0.0000 H   0  0  0  0  0  0  0  0  0  0  0  0
    5.1350   -4.1900    0.0000 H   0  0  0  0  0  0  0  0  0  0  0  0
    5.1350   -5.8100    0.0000 H   0  0  0  0  0  0  0  0  0  0  0  0
    7.1962    3.3800    0.0000 H   0  0  0  0  0  0  0  0  0  0  0  0
    5.7932    5.8100    0.0000 H   0  0  0  0  0  0  0  0  0  0  0  0
    3.7320   -6.6200    0.0000 H   0  0  0  0  0  0  0  0  0  0  0  0
    7.1962    6.6200    0.0000 H   0  0  0  0  0  0  0  0  0  0  0  0
    8.5991    5.8100    0.0000 H   0  0  0  0  0  0  0  0  0  0  0  0
  1 21  1  0  0  0  0
  2  5  2  0  0  0  0
  2  6  2  0  0  0  0
  2  8  1  0  0  0  0
  2 17  1  0  0  0  0
  3 26  1  0  0  0  0
  4 16  1  0  0  0  0
  4 20  1  0  0  0  0
  7 12  1  0  0  0  0
  7 13  1  0  0  0  0
  7 15  1  0  0  0  0
  8 14  1  0  0  0  0
  8 42  1  0  0  0  0
  9 10  1  0  0  0  0
  9 11  1  0  0  0  0
  9 14  1  0  0  0  0
  9 29  1  0  0  0  0
 10 12  1  0  0  0  0
 10 30  1  0  0  0  0
 10 31  1  0  0  0  0
 11 13  1  0  0  0  0
 11 32  1  0  0  0  0
 11 33  1  0  0  0  0
 12 34  1  0  0  0  0
 12 35  1  0  0  0  0
 13 36  1  0  0  0  0
 13 37  1  0  0  0  0
 14 38  1  0  0  0  0
 14 39  1  0  0  0  0
 15 16  1  0  0  0  0
 15 40  1  0  0  0  0
 15 41  1  0  0  0  0
 16 43  1  0  0  0  0
 16 44  1  0  0  0  0
 17 18  2  0  0  0  0
 17 19  1  0  0  0  0
 18 21  1  0  0  0  0
 18 45  1  0  0  0  0
 19 22  2  0  0  0  0
 19 46  1  0  0  0  0
 20 23  2  0  0  0  0
 20 24  1  0  0  0  0
 21 25  2  0  0  0  0
 22 25  1  0  0  0  0
 22 47  1  0  0  0  0
 23 26  1  0  0  0  0
 23 48  1  0  0  0  0
 24 27  2  0  0  0  0
 24 49  1  0  0  0  0
 25 50  1  0  0  0  0
 26 28  2  0  0  0  0
 27 28  1  0  0  0  0
 27 51  1  0  0  0  0
 28 52  1  0  0  0  0
M  END
> <PUBCHEM_COMPOUND_CID>
71456780

> <PUBCHEM_COMPOUND_CANONICALIZED>
1

> <PUBCHEM_CACTVS_COMPLEXITY>
566

> <PUBCHEM_CACTVS_HBOND_ACCEPTOR>
6

> <PUBCHEM_CACTVS_HBOND_DONOR>
1

> <PUBCHEM_CACTVS_ROTATABLE_BOND>
8

> <PUBCHEM_CACTVS_SUBSKEYS>
AAADceB7MQBEAAAAAAAAAAAAAAAAAAAAAAA8YIAAAAAAAAABQAAAHwYQQAAADQbh0C4wB4NABAKAACBCAHBCCBAgJQAIiJgOCogOJiKFsxqHOCCk0BGYqAeQQAAKAAAAABAAAAAAAAAAIAAAAAAAAAAAAA==

> <PUBCHEM_IUPAC_OPENEYE_NAME>
3-chloro-N-[[1-[2-(3-fluorophenoxy)ethyl]-4-piperidyl]methyl]benzenesulfonamide

> <PUBCHEM_IUPAC_CAS_NAME>
3-chloro-N-[[1-[2-(3-fluorophenoxy)ethyl]-4-piperidinyl]methyl]benzenesulfonamide

> <PUBCHEM_IUPAC_NAME_MARKUP>
3-chloro-<I>N</I>-[[1-[2-(3-fluorophenoxy)ethyl]piperidin-4-yl]methyl]benzenesulfonamide

> <PUBCHEM_IUPAC_NAME>
3-chloro-N-[[1-[2-(3-fluorophenoxy)ethyl]piperidin-4-yl]methyl]benzenesulfonamide

> <PUBCHEM_IUPAC_SYSTEMATIC_NAME>
3-chloranyl-N-[[1-[2-(3-fluoranylphenoxy)ethyl]piperidin-4-yl]methyl]benzenesulfonamide

> <PUBCHEM_IUPAC_TRADITIONAL_NAME>
3-chloro-N-[[1-[2-(3-fluorophenoxy)ethyl]-4-piperidyl]methyl]benzenesulfonamide

> <PUBCHEM_IUPAC_INCHI>
InChI=1S/C20H24ClFN2O3S/c21-17-3-1-6-20(13-17)28(25,26)23-15-16-7-9-24(10-8-16)11-12-27-19-5-2-4-18(22)14-19/h1-6,13-14,16,23H,7-12,15H2

> <PUBCHEM_IUPAC_INCHIKEY>
JJOQQHOWCXQERZ-UHFFFAOYSA-N

> <PUBCHEM_XLOGP3_AA>
4.1

> <PUBCHEM_EXACT_MASS>
426.1180197

> <PUBCHEM_MOLECULAR_FORMULA>
C20H24ClFN2O3S

> <PUBCHEM_MOLECULAR_WEIGHT>
426.9

> <PUBCHEM_OPENEYE_CAN_SMILES>
C1CN(CCC1CNS(=O)(=O)C2=CC(=CC=C2)Cl)CCOC3=CC(=CC=C3)F

> <PUBCHEM_OPENEYE_ISO_SMILES>
C1CN(CCC1CNS(=O)(=O)C2=CC(=CC=C2)Cl)CCOC3=CC(=CC=C3)F

> <PUBCHEM_CACTVS_TPSA>
67

> <PUBCHEM_MONOISOTOPIC_WEIGHT>
426.1180197

> <PUBCHEM_TOTAL_CHARGE>
0

> <PUBCHEM_HEAVY_ATOM_COUNT>
28

> <PUBCHEM_ATOM_DEF_STEREO_COUNT>
0

> <PUBCHEM_ATOM_UDEF_STEREO_COUNT>
0

> <PUBCHEM_BOND_DEF_STEREO_COUNT>
0

> <PUBCHEM_BOND_UDEF_STEREO_COUNT>
0

> <PUBCHEM_ISOTOPIC_ATOM_COUNT>
0

> <PUBCHEM_COMPONENT_COUNT>
1

> <PUBCHEM_CACTVS_TAUTO_COUNT>
-1

> <PUBCHEM_COORDINATE_TYPE>
1
5
255

> <PUBCHEM_BONDANNOTATIONS>
17  18  8
17  19  8
18  21  8
19  22  8
20  23  8
20  24  8
21  25  8
22  25  8
23  26  8
24  27  8
26  28  8
27  28  8

$$$$
