15467369
  -OEChem-09292322502D

 43 45  0     0  0  0  0  0  0999 V2000
    2.8660   -0.2738    0.0000 N   0  0  0  0  0  0  0  0  0  0  0  0
    2.8660   -2.2738    0.0000 N   0  0  0  0  0  0  0  0  0  0  0  0
    3.8366    2.2207    0.0000 N   0  0  0  0  0  0  0  0  0  0  0  0
    7.0295    5.2738    0.0000 N   0  0  0  0  0  0  0  0  0  0  0  0
    7.3916    1.8287    0.0000 N   0  0  0  0  0  0  0  0  0  0  0  0
    3.7320   -0.7738    0.0000 C   0  0  0  0  0  0  0  0  0  0  0  0
    2.0000   -0.7738    0.0000 C   0  0  0  0  0  0  0  0  0  0  0  0
    3.7320   -1.7738    0.0000 C   0  0  0  0  0  0  0  0  0  0  0  0
    2.0000   -1.7738    0.0000 C   0  0  0  0  0  0  0  0  0  0  0  0
    2.8660    0.7262    0.0000 C   0  0  0  0  0  0  0  0  0  0  0  0
    2.8660   -3.2738    0.0000 C   0  0  0  0  0  0  0  0  0  0  0  0
    3.7320    1.2262    0.0000 C   0  0  0  0  0  0  0  0  0  0  0  0
    4.6456    0.8195    0.0000 C   0  0  0  0  0  0  0  0  0  0  0  0
    3.7320   -3.7738    0.0000 C   0  0  0  0  0  0  0  0  0  0  0  0
    2.0000   -3.7738    0.0000 C   0  0  0  0  0  0  0  0  0  0  0  0
    4.8147    2.4286    0.0000 C   0  0  0  0  0  0  0  0  0  0  0  0
    5.3147    1.5626    0.0000 C   0  0  0  0  0  0  0  0  0  0  0  0
    3.7320   -4.7738    0.0000 C   0  0  0  0  0  0  0  0  0  0  0  0
    2.0000   -4.7738    0.0000 C   0  0  0  0  0  0  0  0  0  0  0  0
    2.8660   -5.2738    0.0000 C   0  0  0  0  0  0  0  0  0  0  0  0
    5.2215    3.3422    0.0000 C   0  0  0  0  0  0  0  0  0  0  0  0
    6.2160    3.4467    0.0000 C   0  0  0  0  0  0  0  0  0  0  0  0
    6.6227    4.3602    0.0000 C   0  0  0  0  0  0  0  0  0  0  0  0
    6.8038    2.6377    0.0000 C   0  0  0  0  0  0  0  0  0  0  0  0
    4.3426   -0.8815    0.0000 H   0  0  0  0  0  0  0  0  0  0  0  0
    3.9441   -0.1912    0.0000 H   0  0  0  0  0  0  0  0  0  0  0  0
    1.7880   -0.1912    0.0000 H   0  0  0  0  0  0  0  0  0  0  0  0
    1.3894   -0.8815    0.0000 H   0  0  0  0  0  0  0  0  0  0  0  0
    3.9441   -2.3564    0.0000 H   0  0  0  0  0  0  0  0  0  0  0  0
    4.3426   -1.6661    0.0000 H   0  0  0  0  0  0  0  0  0  0  0  0
    1.3894   -1.6661    0.0000 H   0  0  0  0  0  0  0  0  0  0  0  0
    1.7880   -2.3564    0.0000 H   0  0  0  0  0  0  0  0  0  0  0  0
    2.6540    1.3088    0.0000 H   0  0  0  0  0  0  0  0  0  0  0  0
    2.2554    0.6185    0.0000 H   0  0  0  0  0  0  0  0  0  0  0  0
    3.3758    2.6356    0.0000 H   0  0  0  0  0  0  0  0  0  0  0  0
    4.7745    0.2130    0.0000 H   0  0  0  0  0  0  0  0  0  0  0  0
    4.2690   -3.4638    0.0000 H   0  0  0  0  0  0  0  0  0  0  0  0
    1.4631   -3.4638    0.0000 H   0  0  0  0  0  0  0  0  0  0  0  0
    5.9313    1.4978    0.0000 H   0  0  0  0  0  0  0  0  0  0  0  0
    4.2690   -5.0838    0.0000 H   0  0  0  0  0  0  0  0  0  0  0  0
    1.4631   -5.0838    0.0000 H   0  0  0  0  0  0  0  0  0  0  0  0
    2.8660   -5.8938    0.0000 H   0  0  0  0  0  0  0  0  0  0  0  0
    4.8570    3.8438    0.0000 H   0  0  0  0  0  0  0  0  0  0  0  0
  1  6  1  0  0  0  0
  1  7  1  0  0  0  0
  1 10  1  0  0  0  0
  2  8  1  0  0  0  0
  2  9  1  0  0  0  0
  2 11  1  0  0  0  0
  3 12  1  0  0  0  0
  3 16  1  0  0  0  0
  3 35  1  0  0  0  0
  4 23  3  0  0  0  0
  5 24  3  0  0  0  0
  6  8  1  0  0  0  0
  6 25  1  0  0  0  0
  6 26  1  0  0  0  0
  7  9  1  0  0  0  0
  7 27  1  0  0  0  0
  7 28  1  0  0  0  0
  8 29  1  0  0  0  0
  8 30  1  0  0  0  0
  9 31  1  0  0  0  0
  9 32  1  0  0  0  0
 10 12  1  0  0  0  0
 10 33  1  0  0  0  0
 10 34  1  0  0  0  0
 11 14  2  0  0  0  0
 11 15  1  0  0  0  0
 12 13  2  0  0  0  0
 13 17  1  0  0  0  0
 13 36  1  0  0  0  0
 14 18  1  0  0  0  0
 14 37  1  0  0  0  0
 15 19  2  0  0  0  0
 15 38  1  0  0  0  0
 16 17  2  0  0  0  0
 16 21  1  0  0  0  0
 17 39  1  0  0  0  0
 18 20  2  0  0  0  0
 18 40  1  0  0  0  0
 19 20  1  0  0  0  0
 19 41  1  0  0  0  0
 20 42  1  0  0  0  0
 21 22  2  0  0  0  0
 21 43  1  0  0  0  0
 22 23  1  0  0  0  0
 22 24  1  0  0  0  0
M  END
> <PUBCHEM_COMPOUND_CID>
15467369

> <PUBCHEM_COMPOUND_CANONICALIZED>
1

> <PUBCHEM_CACTVS_COMPLEXITY>
519

> <PUBCHEM_CACTVS_HBOND_ACCEPTOR>
4

> <PUBCHEM_CACTVS_HBOND_DONOR>
1

> <PUBCHEM_CACTVS_ROTATABLE_BOND>
4

> <PUBCHEM_CACTVS_SUBSKEYS>
AAADceB7gAAAAAAAAAAAAAAAAAAAAWAAAAA8QAAAAAAAAAABwAAAHAAQAAAADAjBFgQwwJPJkACwByRiRACigCAhAiAImSA4ZJgI4OLAkZGUIAhgkADIyAcQAAAAAAAAAAAAAAAAAAAAAAAAAAAAAAAAAA==

> <PUBCHEM_IUPAC_OPENEYE_NAME>
2-[[5-[(4-phenylpiperazin-1-yl)methyl]-1H-pyrrol-2-yl]methylene]propanedinitrile

> <PUBCHEM_IUPAC_CAS_NAME>
2-[[5-[(4-phenyl-1-piperazinyl)methyl]-1H-pyrrol-2-yl]methylidene]propanedinitrile

> <PUBCHEM_IUPAC_NAME_MARKUP>
2-[[5-[(4-phenylpiperazin-1-yl)methyl]-1<I>H</I>-pyrrol-2-yl]methylidene]propanedinitrile

> <PUBCHEM_IUPAC_NAME>
2-[[5-[(4-phenylpiperazin-1-yl)methyl]-1H-pyrrol-2-yl]methylidene]propanedinitrile

> <PUBCHEM_IUPAC_SYSTEMATIC_NAME>
2-[[5-[(4-phenylpiperazin-1-yl)methyl]-1H-pyrrol-2-yl]methylidene]propanedinitrile

> <PUBCHEM_IUPAC_TRADITIONAL_NAME>
2-[[5-[(4-phenylpiperazino)methyl]-1H-pyrrol-2-yl]methylene]malononitrile

> <PUBCHEM_IUPAC_INCHI>
InChI=1S/C19H19N5/c20-13-16(14-21)12-17-6-7-18(22-17)15-23-8-10-24(11-9-23)19-4-2-1-3-5-19/h1-7,12,22H,8-11,15H2

> <PUBCHEM_IUPAC_INCHIKEY>
FMWVLGRDWGHGJV-UHFFFAOYSA-N

> <PUBCHEM_XLOGP3_AA>
2.3

> <PUBCHEM_EXACT_MASS>
317.16404563

> <PUBCHEM_MOLECULAR_FORMULA>
C19H19N5

> <PUBCHEM_MOLECULAR_WEIGHT>
317.4

> <PUBCHEM_OPENEYE_CAN_SMILES>
C1CN(CCN1CC2=CC=C(N2)C=C(C#N)C#N)C3=CC=CC=C3

> <PUBCHEM_OPENEYE_ISO_SMILES>
C1CN(CCN1CC2=CC=C(N2)C=C(C#N)C#N)C3=CC=CC=C3

> <PUBCHEM_CACTVS_TPSA>
69.8

> <PUBCHEM_MONOISOTOPIC_WEIGHT>
317.16404563

> <PUBCHEM_TOTAL_CHARGE>
0

> <PUBCHEM_HEAVY_ATOM_COUNT>
24

> <PUBCHEM_ATOM_DEF_STEREO_COUNT>
0

> <PUBCHEM_ATOM_UDEF_STEREO_COUNT>
0

> <PUBCHEM_BOND_DEF_STEREO_COUNT>
0

> <PUBCHEM_BOND_UDEF_STEREO_COUNT>
0

> <PUBCHEM_ISOTOPIC_ATOM_COUNT>
0

> <PUBCHEM_COMPONENT_COUNT>
1

> <PUBCHEM_CACTVS_TAUTO_COUNT>
-1

> <PUBCHEM_COORDINATE_TYPE>
1
5
255

> <PUBCHEM_BONDANNOTATIONS>
11  14  8
11  15  8
12  13  8
13  17  8
14  18  8
15  19  8
16  17  8
18  20  8
19  20  8
3  12  8
3  16  8

$$$$
