10247457
  -OEChem-09292322342D

 49 52  0     0  0  0  0  0  0999 V2000
   14.0561    0.5530    0.0000 S   0  0  0  0  0  0  0  0  0  0  0  0
    6.3301    1.0530    0.0000 N   0  0  0  0  0  0  0  0  0  0  0  0
    4.5981    0.0530    0.0000 N   0  0  0  0  0  0  0  0  0  0  0  0
   12.4725    1.3577    0.0000 N   0  0  0  0  0  0  0  0  0  0  0  0
   12.4725   -0.2518    0.0000 N   0  0  0  0  0  0  0  0  0  0  0  0
    5.4641    1.5530    0.0000 C   0  0  0  0  0  0  0  0  0  0  0  0
    6.3301    0.0530    0.0000 C   0  0  0  0  0  0  0  0  0  0  0  0
    4.5981    1.0530    0.0000 C   0  0  0  0  0  0  0  0  0  0  0  0
    5.4641   -0.4470    0.0000 C   0  0  0  0  0  0  0  0  0  0  0  0
    7.1962    1.5530    0.0000 C   0  0  0  0  0  0  0  0  0  0  0  0
    8.0622    1.0530    0.0000 C   0  0  0  0  0  0  0  0  0  0  0  0
    8.9282    1.5530    0.0000 C   0  0  0  0  0  0  0  0  0  0  0  0
    3.7320   -0.4470    0.0000 C   0  0  0  0  0  0  0  0  0  0  0  0
    9.7942    1.0530    0.0000 C   0  0  0  0  0  0  0  0  0  0  0  0
    2.8660    0.0530    0.0000 C   0  0  0  0  0  0  0  0  0  0  0  0
    3.7320   -1.4470    0.0000 C   0  0  0  0  0  0  0  0  0  0  0  0
   10.6603    1.5530    0.0000 C   0  0  0  0  0  0  0  0  0  0  0  0
    9.7942    0.0530    0.0000 C   0  0  0  0  0  0  0  0  0  0  0  0
   11.5263    1.0530    0.0000 C   0  0  0  0  0  0  0  0  0  0  0  0
   11.5263    0.0530    0.0000 C   0  0  0  0  0  0  0  0  0  0  0  0
   10.6603   -0.4470    0.0000 C   0  0  0  0  0  0  0  0  0  0  0  0
    2.0000   -0.4470    0.0000 C   0  0  0  0  0  0  0  0  0  0  0  0
    2.8660   -1.9470    0.0000 C   0  0  0  0  0  0  0  0  0  0  0  0
    2.0000   -1.4470    0.0000 C   0  0  0  0  0  0  0  0  0  0  0  0
   13.0561    0.5530    0.0000 C   0  0  0  0  0  0  0  0  0  0  0  0
    5.8626    2.0279    0.0000 H   0  0  0  0  0  0  0  0  0  0  0  0
    5.0656    2.0279    0.0000 H   0  0  0  0  0  0  0  0  0  0  0  0
    6.5422   -0.5296    0.0000 H   0  0  0  0  0  0  0  0  0  0  0  0
    6.9407    0.1606    0.0000 H   0  0  0  0  0  0  0  0  0  0  0  0
    4.3860    1.6356    0.0000 H   0  0  0  0  0  0  0  0  0  0  0  0
    3.9875    0.9453    0.0000 H   0  0  0  0  0  0  0  0  0  0  0  0
    5.0656   -0.9220    0.0000 H   0  0  0  0  0  0  0  0  0  0  0  0
    5.8626   -0.9220    0.0000 H   0  0  0  0  0  0  0  0  0  0  0  0
    7.5947    2.0279    0.0000 H   0  0  0  0  0  0  0  0  0  0  0  0
    6.7976    2.0279    0.0000 H   0  0  0  0  0  0  0  0  0  0  0  0
    7.6636    0.5780    0.0000 H   0  0  0  0  0  0  0  0  0  0  0  0
    8.4607    0.5780    0.0000 H   0  0  0  0  0  0  0  0  0  0  0  0
    9.3267    2.0279    0.0000 H   0  0  0  0  0  0  0  0  0  0  0  0
    8.5297    2.0279    0.0000 H   0  0  0  0  0  0  0  0  0  0  0  0
    2.8660    0.6730    0.0000 H   0  0  0  0  0  0  0  0  0  0  0  0
    4.2690   -1.7570    0.0000 H   0  0  0  0  0  0  0  0  0  0  0  0
   10.6603    2.1730    0.0000 H   0  0  0  0  0  0  0  0  0  0  0  0
    9.2573   -0.2570    0.0000 H   0  0  0  0  0  0  0  0  0  0  0  0
   10.6603   -1.0670    0.0000 H   0  0  0  0  0  0  0  0  0  0  0  0
    1.4631   -0.1370    0.0000 H   0  0  0  0  0  0  0  0  0  0  0  0
    2.8660   -2.5670    0.0000 H   0  0  0  0  0  0  0  0  0  0  0  0
   12.6651    1.9470    0.0000 H   0  0  0  0  0  0  0  0  0  0  0  0
   12.6651   -0.8411    0.0000 H   0  0  0  0  0  0  0  0  0  0  0  0
    1.4631   -1.7570    0.0000 H   0  0  0  0  0  0  0  0  0  0  0  0
  1 25  2  0  0  0  0
  2  6  1  0  0  0  0
  2  7  1  0  0  0  0
  2 10  1  0  0  0  0
  3  8  1  0  0  0  0
  3  9  1  0  0  0  0
  3 13  1  0  0  0  0
  4 19  1  0  0  0  0
  4 25  1  0  0  0  0
  4 47  1  0  0  0  0
  5 20  1  0  0  0  0
  5 25  1  0  0  0  0
  5 48  1  0  0  0  0
  6  8  1  0  0  0  0
  6 26  1  0  0  0  0
  6 27  1  0  0  0  0
  7  9  1  0  0  0  0
  7 28  1  0  0  0  0
  7 29  1  0  0  0  0
  8 30  1  0  0  0  0
  8 31  1  0  0  0  0
  9 32  1  0  0  0  0
  9 33  1  0  0  0  0
 10 11  1  0  0  0  0
 10 34  1  0  0  0  0
 10 35  1  0  0  0  0
 11 12  1  0  0  0  0
 11 36  1  0  0  0  0
 11 37  1  0  0  0  0
 12 14  1  0  0  0  0
 12 38  1  0  0  0  0
 12 39  1  0  0  0  0
 13 15  2  0  0  0  0
 13 16  1  0  0  0  0
 14 17  2  0  0  0  0
 14 18  1  0  0  0  0
 15 22  1  0  0  0  0
 15 40  1  0  0  0  0
 16 23  2  0  0  0  0
 16 41  1  0  0  0  0
 17 19  1  0  0  0  0
 17 42  1  0  0  0  0
 18 21  2  0  0  0  0
 18 43  1  0  0  0  0
 19 20  2  0  0  0  0
 20 21  1  0  0  0  0
 21 44  1  0  0  0  0
 22 24  2  0  0  0  0
 22 45  1  0  0  0  0
 23 24  1  0  0  0  0
 23 46  1  0  0  0  0
 24 49  1  0  0  0  0
M  END
> <PUBCHEM_COMPOUND_CID>
10247457

> <PUBCHEM_COMPOUND_CANONICALIZED>
1

> <PUBCHEM_CACTVS_COMPLEXITY>
443

> <PUBCHEM_CACTVS_HBOND_ACCEPTOR>
3

> <PUBCHEM_CACTVS_HBOND_DONOR>
2

> <PUBCHEM_CACTVS_ROTATABLE_BOND>
5

> <PUBCHEM_CACTVS_SUBSKEYS>
AAADceB7gABAAAAAAAAAAAAAAAAAAWAAAAA8YIAAAAAAAFgBQAAAHAQQAAAADAjBGAQxwIPAAACEAiRCQACCAAAhAgkIiAAIdIiIYCLAkZGUIAhokALIyCcQgIAOCAAAQAAAACAQAACAAAAAQAAAAAAAAA==

> <PUBCHEM_IUPAC_OPENEYE_NAME>
5-[3-(4-phenylpiperazin-1-yl)propyl]-1,3-dihydrobenzimidazole-2-thione

> <PUBCHEM_IUPAC_CAS_NAME>
5-[3-(4-phenyl-1-piperazinyl)propyl]-1,3-dihydrobenzimidazole-2-thione

> <PUBCHEM_IUPAC_NAME_MARKUP>
5-[3-(4-phenylpiperazin-1-yl)propyl]-1,3-dihydrobenzimidazole-2-thione

> <PUBCHEM_IUPAC_NAME>
5-[3-(4-phenylpiperazin-1-yl)propyl]-1,3-dihydrobenzimidazole-2-thione

> <PUBCHEM_IUPAC_SYSTEMATIC_NAME>
5-[3-(4-phenylpiperazin-1-yl)propyl]-1,3-dihydrobenzimidazole-2-thione

> <PUBCHEM_IUPAC_TRADITIONAL_NAME>
5-[3-(4-phenylpiperazino)propyl]-1,3-dihydrobenzimidazole-2-thione

> <PUBCHEM_IUPAC_INCHI>
InChI=1S/C20H24N4S/c25-20-21-18-9-8-16(15-19(18)22-20)5-4-10-23-11-13-24(14-12-23)17-6-2-1-3-7-17/h1-3,6-9,15H,4-5,10-14H2,(H2,21,22,25)

> <PUBCHEM_IUPAC_INCHIKEY>
NEUIVMZLDPIEPD-UHFFFAOYSA-N

> <PUBCHEM_XLOGP3_AA>
3.4

> <PUBCHEM_EXACT_MASS>
352.17216796

> <PUBCHEM_MOLECULAR_FORMULA>
C20H24N4S

> <PUBCHEM_MOLECULAR_WEIGHT>
352.5

> <PUBCHEM_OPENEYE_CAN_SMILES>
C1CN(CCN1CCCC2=CC3=C(C=C2)NC(=S)N3)C4=CC=CC=C4

> <PUBCHEM_OPENEYE_ISO_SMILES>
C1CN(CCN1CCCC2=CC3=C(C=C2)NC(=S)N3)C4=CC=CC=C4

> <PUBCHEM_CACTVS_TPSA>
62.6

> <PUBCHEM_MONOISOTOPIC_WEIGHT>
352.17216796

> <PUBCHEM_TOTAL_CHARGE>
0

> <PUBCHEM_HEAVY_ATOM_COUNT>
25

> <PUBCHEM_ATOM_DEF_STEREO_COUNT>
0

> <PUBCHEM_ATOM_UDEF_STEREO_COUNT>
0

> <PUBCHEM_BOND_DEF_STEREO_COUNT>
0

> <PUBCHEM_BOND_UDEF_STEREO_COUNT>
0

> <PUBCHEM_ISOTOPIC_ATOM_COUNT>
0

> <PUBCHEM_COMPONENT_COUNT>
1

> <PUBCHEM_CACTVS_TAUTO_COUNT>
-1

> <PUBCHEM_COORDINATE_TYPE>
1
5
255

> <PUBCHEM_BONDANNOTATIONS>
13  15  8
13  16  8
14  17  8
14  18  8
15  22  8
16  23  8
17  19  8
18  21  8
19  20  8
20  21  8
22  24  8
23  24  8
4  19  8
4  25  8
5  20  8
5  25  8

$$$$
