9805456
  -OEChem-09292322152D

 55 59  0     1  0  0  0  0  0999 V2000
    2.0000   -2.4932    0.0000 Cl  0  0  0  0  0  0  0  0  0  0  0  0
    6.9409   -0.7952    0.0000 S   0  0  0  0  0  0  0  0  0  0  0  0
    5.9718   -2.2840    0.0000 S   0  0  0  0  0  0  0  0  0  0  0  0
    6.4409    0.0708    0.0000 O   0  0  0  0  0  0  0  0  0  0  0  0
    7.4409   -1.6613    0.0000 O   0  0  0  0  0  0  0  0  0  0  0  0
   11.2874    0.7394    0.0000 N   0  0  3  0  0  0  0  0  0  0  0  0
   11.2642    2.7392    0.0000 N   0  0  0  0  0  0  0  0  0  0  0  0
    7.8069   -0.2952    0.0000 N   0  0  0  0  0  0  0  0  0  0  0  0
   11.2989   -2.3299    0.0000 N   0  0  0  0  0  0  0  0  0  0  0  0
   12.1360    2.2493    0.0000 C   0  0  2  0  0  0  0  0  0  0  0  0
   12.1476    1.2493    0.0000 C   0  0  0  0  0  0  0  0  0  0  0  0
   10.4156    1.2293    0.0000 C   0  0  0  0  0  0  0  0  0  0  0  0
   10.4041    2.2292    0.0000 C   0  0  0  0  0  0  0  0  0  0  0  0
   11.2989   -0.2606    0.0000 C   0  0  0  0  0  0  0  0  0  0  0  0
   12.9962    2.7593    0.0000 C   0  0  0  0  0  0  0  0  0  0  0  0
   10.4050   -0.7952    0.0000 C   0  0  0  0  0  0  0  0  0  0  0  0
   12.2050   -0.7744    0.0000 C   0  0  0  0  0  0  0  0  0  0  0  0
   10.4050   -1.7952    0.0000 C   0  0  0  0  0  0  0  0  0  0  0  0
    9.5390   -0.2952    0.0000 C   0  0  0  0  0  0  0  0  0  0  0  0
    8.6730   -0.7952    0.0000 C   0  0  0  0  0  0  0  0  0  0  0  0
   12.2050   -1.8160    0.0000 C   0  0  0  0  0  0  0  0  0  0  0  0
    9.5390   -2.2952    0.0000 C   0  0  0  0  0  0  0  0  0  0  0  0
    8.6730   -1.7952    0.0000 C   0  0  0  0  0  0  0  0  0  0  0  0
    6.0749   -1.2952    0.0000 C   0  0  0  0  0  0  0  0  0  0  0  0
    5.1671   -0.8901    0.0000 C   0  0  0  0  0  0  0  0  0  0  0  0
    4.5000   -1.6271    0.0000 C   0  0  0  0  0  0  0  0  0  0  0  0
    5.0000   -2.4932    0.0000 C   0  0  0  0  0  0  0  0  0  0  0  0
    4.9609    0.0884    0.0000 C   0  0  0  0  0  0  0  0  0  0  0  0
    3.5000   -1.6271    0.0000 C   0  0  0  0  0  0  0  0  0  0  0  0
    4.5000   -3.3592    0.0000 C   0  0  0  0  0  0  0  0  0  0  0  0
    3.0000   -2.4932    0.0000 C   0  0  0  0  0  0  0  0  0  0  0  0
    3.5000   -3.3592    0.0000 C   0  0  0  0  0  0  0  0  0  0  0  0
   12.1288    2.8692    0.0000 H   0  0  0  0  0  0  0  0  0  0  0  0
   12.3663    0.6692    0.0000 H   0  0  0  0  0  0  0  0  0  0  0  0
   12.7569    1.3641    0.0000 H   0  0  0  0  0  0  0  0  0  0  0  0
    9.8038    1.3299    0.0000 H   0  0  0  0  0  0  0  0  0  0  0  0
   10.2103    0.6443    0.0000 H   0  0  0  0  0  0  0  0  0  0  0  0
   10.1853    2.8094    0.0000 H   0  0  0  0  0  0  0  0  0  0  0  0
    9.7948    2.1145    0.0000 H   0  0  0  0  0  0  0  0  0  0  0  0
   11.2571    3.3592    0.0000 H   0  0  0  0  0  0  0  0  0  0  0  0
   13.3124    2.2259    0.0000 H   0  0  0  0  0  0  0  0  0  0  0  0
   13.5295    3.0754    0.0000 H   0  0  0  0  0  0  0  0  0  0  0  0
   12.6800    3.2926    0.0000 H   0  0  0  0  0  0  0  0  0  0  0  0
   12.7407   -0.4624    0.0000 H   0  0  0  0  0  0  0  0  0  0  0  0
    9.5390    0.3248    0.0000 H   0  0  0  0  0  0  0  0  0  0  0  0
   12.7407   -2.1281    0.0000 H   0  0  0  0  0  0  0  0  0  0  0  0
    9.5390   -2.9152    0.0000 H   0  0  0  0  0  0  0  0  0  0  0  0
    8.1360   -2.1052    0.0000 H   0  0  0  0  0  0  0  0  0  0  0  0
    7.8069    0.3248    0.0000 H   0  0  0  0  0  0  0  0  0  0  0  0
    5.5675    0.2162    0.0000 H   0  0  0  0  0  0  0  0  0  0  0  0
    4.8330    0.6951    0.0000 H   0  0  0  0  0  0  0  0  0  0  0  0
    4.3542   -0.0395    0.0000 H   0  0  0  0  0  0  0  0  0  0  0  0
    3.1900   -1.0902    0.0000 H   0  0  0  0  0  0  0  0  0  0  0  0
    4.8100   -3.8961    0.0000 H   0  0  0  0  0  0  0  0  0  0  0  0
    3.1900   -3.8961    0.0000 H   0  0  0  0  0  0  0  0  0  0  0  0
  1 31  1  0  0  0  0
  2  4  2  0  0  0  0
  2  5  2  0  0  0  0
  2  8  1  0  0  0  0
  2 24  1  0  0  0  0
  3 24  1  0  0  0  0
  3 27  1  0  0  0  0
  6 11  1  0  0  0  0
  6 12  1  0  0  0  0
  6 14  1  0  0  0  0
  7 10  1  0  0  0  0
  7 13  1  0  0  0  0
  7 40  1  0  0  0  0
  8 20  1  0  0  0  0
  8 49  1  0  0  0  0
  9 18  2  0  0  0  0
  9 21  1  0  0  0  0
 10 11  1  0  0  0  0
 10 15  1  1  0  0  0
 10 33  1  0  0  0  0
 11 34  1  0  0  0  0
 11 35  1  0  0  0  0
 12 13  1  0  0  0  0
 12 36  1  0  0  0  0
 12 37  1  0  0  0  0
 13 38  1  0  0  0  0
 13 39  1  0  0  0  0
 14 16  2  0  0  0  0
 14 17  1  0  0  0  0
 15 41  1  0  0  0  0
 15 42  1  0  0  0  0
 15 43  1  0  0  0  0
 16 18  1  0  0  0  0
 16 19  1  0  0  0  0
 17 21  2  0  0  0  0
 17 44  1  0  0  0  0
 18 22  1  0  0  0  0
 19 20  2  0  0  0  0
 19 45  1  0  0  0  0
 20 23  1  0  0  0  0
 21 46  1  0  0  0  0
 22 23  2  0  0  0  0
 22 47  1  0  0  0  0
 23 48  1  0  0  0  0
 24 25  2  0  0  0  0
 25 26  1  0  0  0  0
 25 28  1  0  0  0  0
 26 27  2  0  0  0  0
 26 29  1  0  0  0  0
 27 30  1  0  0  0  0
 28 50  1  0  0  0  0
 28 51  1  0  0  0  0
 28 52  1  0  0  0  0
 29 31  2  0  0  0  0
 29 53  1  0  0  0  0
 30 32  2  0  0  0  0
 30 54  1  0  0  0  0
 31 32  1  0  0  0  0
 32 55  1  0  0  0  0
M  END
> <PUBCHEM_COMPOUND_CID>
9805456

> <PUBCHEM_COMPOUND_CANONICALIZED>
1

> <PUBCHEM_CACTVS_COMPLEXITY>
766

> <PUBCHEM_CACTVS_HBOND_ACCEPTOR>
7

> <PUBCHEM_CACTVS_HBOND_DONOR>
2

> <PUBCHEM_CACTVS_ROTATABLE_BOND>
4

> <PUBCHEM_CACTVS_SUBSKEYS>
AAADceB7sABkAAAAAAAAAAAAAAAAASAAAAA8eIEAAAAAAEix/gAAHAYQQAAADCrBXiQ+wfPIEAqkAzRnRHDDgbAxDzBI2Lg4ZpgIYOLh09GUJAhgkADoyAcQgMAOgAKAYAAGAAAABQDAAAwAAAAAAAAAAA==

> <PUBCHEM_IUPAC_OPENEYE_NAME>
5-chloro-3-methyl-N-[4-[(3S)-3-methylpiperazin-1-yl]-6-quinolyl]benzothiophene-2-sulfonamide

> <PUBCHEM_IUPAC_CAS_NAME>
5-chloro-3-methyl-N-[4-[(3S)-3-methyl-1-piperazinyl]-6-quinolinyl]-1-benzothiophene-2-sulfonamide

> <PUBCHEM_IUPAC_NAME_MARKUP>
5-chloro-3-methyl-<I>N</I>-[4-[(3<I>S</I>)-3-methylpiperazin-1-yl]quinolin-6-yl]-1-benzothiophene-2-sulfonamide

> <PUBCHEM_IUPAC_NAME>
5-chloro-3-methyl-N-[4-[(3S)-3-methylpiperazin-1-yl]quinolin-6-yl]-1-benzothiophene-2-sulfonamide

> <PUBCHEM_IUPAC_SYSTEMATIC_NAME>
5-chloranyl-3-methyl-N-[4-[(3S)-3-methylpiperazin-1-yl]quinolin-6-yl]-1-benzothiophene-2-sulfonamide

> <PUBCHEM_IUPAC_TRADITIONAL_NAME>
5-chloro-3-methyl-N-[4-[(3S)-3-methylpiperazino]-6-quinolyl]benzothiophene-2-sulfonamide

> <PUBCHEM_IUPAC_INCHI>
InChI=1S/C23H23ClN4O2S2/c1-14-13-28(10-9-25-14)21-7-8-26-20-5-4-17(12-19(20)21)27-32(29,30)23-15(2)18-11-16(24)3-6-22(18)31-23/h3-8,11-12,14,25,27H,9-10,13H2,1-2H3/t14-/m0/s1

> <PUBCHEM_IUPAC_INCHIKEY>
XYJTURUCNQJUDF-AWEZNQCLSA-N

> <PUBCHEM_XLOGP3_AA>
5

> <PUBCHEM_EXACT_MASS>
486.0950960

> <PUBCHEM_MOLECULAR_FORMULA>
C23H23ClN4O2S2

> <PUBCHEM_MOLECULAR_WEIGHT>
487.0

> <PUBCHEM_OPENEYE_CAN_SMILES>
CC1CN(CCN1)C2=C3C=C(C=CC3=NC=C2)NS(=O)(=O)C4=C(C5=C(S4)C=CC(=C5)Cl)C

> <PUBCHEM_OPENEYE_ISO_SMILES>
C[C@H]1CN(CCN1)C2=C3C=C(C=CC3=NC=C2)NS(=O)(=O)C4=C(C5=C(S4)C=CC(=C5)Cl)C

> <PUBCHEM_CACTVS_TPSA>
111

> <PUBCHEM_MONOISOTOPIC_WEIGHT>
486.0950960

> <PUBCHEM_TOTAL_CHARGE>
0

> <PUBCHEM_HEAVY_ATOM_COUNT>
32

> <PUBCHEM_ATOM_DEF_STEREO_COUNT>
1

> <PUBCHEM_ATOM_UDEF_STEREO_COUNT>
0

> <PUBCHEM_BOND_DEF_STEREO_COUNT>
0

> <PUBCHEM_BOND_UDEF_STEREO_COUNT>
0

> <PUBCHEM_ISOTOPIC_ATOM_COUNT>
0

> <PUBCHEM_COMPONENT_COUNT>
1

> <PUBCHEM_CACTVS_TAUTO_COUNT>
-1

> <PUBCHEM_COORDINATE_TYPE>
1
5
255

> <PUBCHEM_BONDANNOTATIONS>
10  15  5
14  16  8
14  17  8
16  18  8
16  19  8
17  21  8
18  22  8
19  20  8
20  23  8
22  23  8
24  25  8
25  26  8
26  27  8
26  29  8
27  30  8
29  31  8
3  24  8
3  27  8
30  32  8
31  32  8
9  18  8
9  21  8

$$$$
