71151757
  -OEChem-09292322352D

 70 74  0     0  0  0  0  0  0999 V2000
    8.4530   -5.1068    0.0000 S   0  0  0  0  0  0  0  0  0  0  0  0
    4.5981    4.6484    0.0000 O   0  0  0  0  0  0  0  0  0  0  0  0
    9.4035   -4.7962    0.0000 O   0  0  0  0  0  0  0  0  0  0  0  0
    7.5025   -5.4175    0.0000 O   0  0  0  0  0  0  0  0  0  0  0  0
    5.4641    6.1484    0.0000 O   0  0  0  0  0  0  0  0  0  0  0  0
    6.3301    0.6484    0.0000 N   0  0  0  0  0  0  0  0  0  0  0  0
    6.3301   -1.3516    0.0000 N   0  0  0  0  0  0  0  0  0  0  0  0
    8.1424   -4.1563    0.0000 N   0  0  0  0  0  0  0  0  0  0  0  0
    4.5981    7.6484    0.0000 N   0  0  0  0  0  0  0  0  0  0  0  0
    5.4641    0.1484    0.0000 C   0  0  0  0  0  0  0  0  0  0  0  0
    7.1962    0.1484    0.0000 C   0  0  0  0  0  0  0  0  0  0  0  0
    5.4641   -0.8516    0.0000 C   0  0  0  0  0  0  0  0  0  0  0  0
    7.1962   -0.8516    0.0000 C   0  0  0  0  0  0  0  0  0  0  0  0
    6.3301    1.6484    0.0000 C   0  0  0  0  0  0  0  0  0  0  0  0
    6.3301   -2.3516    0.0000 C   0  0  0  0  0  0  0  0  0  0  0  0
    5.4641    2.1484    0.0000 C   0  0  0  0  0  0  0  0  0  0  0  0
    7.1962   -2.8516    0.0000 C   0  0  0  0  0  0  0  0  0  0  0  0
    7.1962   -3.8516    0.0000 C   0  0  0  0  0  0  0  0  0  0  0  0
    5.4641    3.1484    0.0000 C   0  0  0  0  0  0  0  0  0  0  0  0
    5.4641   -2.8516    0.0000 C   0  0  0  0  0  0  0  0  0  0  0  0
    8.1424   -2.5469    0.0000 C   0  0  0  0  0  0  0  0  0  0  0  0
    6.3301   -4.3516    0.0000 C   0  0  0  0  0  0  0  0  0  0  0  0
    8.7260   -3.3516    0.0000 C   0  0  0  0  0  0  0  0  0  0  0  0
    5.4641   -3.8516    0.0000 C   0  0  0  0  0  0  0  0  0  0  0  0
    4.5981    3.6484    0.0000 C   0  0  0  0  0  0  0  0  0  0  0  0
    8.7637   -6.0574    0.0000 C   0  0  0  0  0  0  0  0  0  0  0  0
    8.0958   -6.8017    0.0000 C   0  0  0  0  0  0  0  0  0  0  0  0
    9.7422   -6.2636    0.0000 C   0  0  0  0  0  0  0  0  0  0  0  0
    3.7320    5.1484    0.0000 C   0  0  0  0  0  0  0  0  0  0  0  0
    8.4065   -7.7522    0.0000 C   0  0  0  0  0  0  0  0  0  0  0  0
   10.0529   -7.2141    0.0000 C   0  0  0  0  0  0  0  0  0  0  0  0
    9.3850   -7.9584    0.0000 C   0  0  0  0  0  0  0  0  0  0  0  0
    3.7320    6.1484    0.0000 C   0  0  0  0  0  0  0  0  0  0  0  0
    2.8660    4.6484    0.0000 C   0  0  0  0  0  0  0  0  0  0  0  0
    2.8660    6.6484    0.0000 C   0  0  0  0  0  0  0  0  0  0  0  0
    2.0000    5.1484    0.0000 C   0  0  0  0  0  0  0  0  0  0  0  0
    2.0000    6.1484    0.0000 C   0  0  0  0  0  0  0  0  0  0  0  0
    4.5981    6.6484    0.0000 C   0  0  0  0  0  0  0  0  0  0  0  0
    5.2520    0.7310    0.0000 H   0  0  0  0  0  0  0  0  0  0  0  0
    4.8535    0.0407    0.0000 H   0  0  0  0  0  0  0  0  0  0  0  0
    7.8067    0.0407    0.0000 H   0  0  0  0  0  0  0  0  0  0  0  0
    7.4082    0.7310    0.0000 H   0  0  0  0  0  0  0  0  0  0  0  0
    4.8535   -0.7439    0.0000 H   0  0  0  0  0  0  0  0  0  0  0  0
    5.2520   -1.4342    0.0000 H   0  0  0  0  0  0  0  0  0  0  0  0
    7.4082   -1.4342    0.0000 H   0  0  0  0  0  0  0  0  0  0  0  0
    7.8067   -0.7439    0.0000 H   0  0  0  0  0  0  0  0  0  0  0  0
    6.9407    1.5408    0.0000 H   0  0  0  0  0  0  0  0  0  0  0  0
    6.5422    2.2310    0.0000 H   0  0  0  0  0  0  0  0  0  0  0  0
    4.8535    2.2561    0.0000 H   0  0  0  0  0  0  0  0  0  0  0  0
    5.2520    1.5658    0.0000 H   0  0  0  0  0  0  0  0  0  0  0  0
    6.0747    3.0407    0.0000 H   0  0  0  0  0  0  0  0  0  0  0  0
    5.6762    3.7310    0.0000 H   0  0  0  0  0  0  0  0  0  0  0  0
    4.9272   -2.5416    0.0000 H   0  0  0  0  0  0  0  0  0  0  0  0
    8.3350   -1.9575    0.0000 H   0  0  0  0  0  0  0  0  0  0  0  0
    6.3301   -4.9716    0.0000 H   0  0  0  0  0  0  0  0  0  0  0  0
    9.3460   -3.3516    0.0000 H   0  0  0  0  0  0  0  0  0  0  0  0
    4.9272   -4.1616    0.0000 H   0  0  0  0  0  0  0  0  0  0  0  0
    3.9875    3.7561    0.0000 H   0  0  0  0  0  0  0  0  0  0  0  0
    4.3860    3.0658    0.0000 H   0  0  0  0  0  0  0  0  0  0  0  0
    7.4892   -6.6738    0.0000 H   0  0  0  0  0  0  0  0  0  0  0  0
   10.1563   -5.8021    0.0000 H   0  0  0  0  0  0  0  0  0  0  0  0
    7.9924   -8.2137    0.0000 H   0  0  0  0  0  0  0  0  0  0  0  0
   10.6595   -7.3420    0.0000 H   0  0  0  0  0  0  0  0  0  0  0  0
    9.5776   -8.5477    0.0000 H   0  0  0  0  0  0  0  0  0  0  0  0
    2.8660    4.0284    0.0000 H   0  0  0  0  0  0  0  0  0  0  0  0
    2.8660    7.2684    0.0000 H   0  0  0  0  0  0  0  0  0  0  0  0
    1.4631    4.8384    0.0000 H   0  0  0  0  0  0  0  0  0  0  0  0
    1.4631    6.4584    0.0000 H   0  0  0  0  0  0  0  0  0  0  0  0
    5.1350    7.9584    0.0000 H   0  0  0  0  0  0  0  0  0  0  0  0
    4.0611    7.9584    0.0000 H   0  0  0  0  0  0  0  0  0  0  0  0
  1  3  2  0  0  0  0
  1  4  2  0  0  0  0
  1  8  1  0  0  0  0
  1 26  1  0  0  0  0
  2 25  1  0  0  0  0
  2 29  1  0  0  0  0
  5 38  2  0  0  0  0
  6 10  1  0  0  0  0
  6 11  1  0  0  0  0
  6 14  1  0  0  0  0
  7 12  1  0  0  0  0
  7 13  1  0  0  0  0
  7 15  1  0  0  0  0
  8 18  1  0  0  0  0
  8 23  1  0  0  0  0
  9 38  1  0  0  0  0
  9 69  1  0  0  0  0
  9 70  1  0  0  0  0
 10 12  1  0  0  0  0
 10 39  1  0  0  0  0
 10 40  1  0  0  0  0
 11 13  1  0  0  0  0
 11 41  1  0  0  0  0
 11 42  1  0  0  0  0
 12 43  1  0  0  0  0
 12 44  1  0  0  0  0
 13 45  1  0  0  0  0
 13 46  1  0  0  0  0
 14 16  1  0  0  0  0
 14 47  1  0  0  0  0
 14 48  1  0  0  0  0
 15 17  1  0  0  0  0
 15 20  2  0  0  0  0
 16 19  1  0  0  0  0
 16 49  1  0  0  0  0
 16 50  1  0  0  0  0
 17 18  2  0  0  0  0
 17 21  1  0  0  0  0
 18 22  1  0  0  0  0
 19 25  1  0  0  0  0
 19 51  1  0  0  0  0
 19 52  1  0  0  0  0
 20 24  1  0  0  0  0
 20 53  1  0  0  0  0
 21 23  2  0  0  0  0
 21 54  1  0  0  0  0
 22 24  2  0  0  0  0
 22 55  1  0  0  0  0
 23 56  1  0  0  0  0
 24 57  1  0  0  0  0
 25 58  1  0  0  0  0
 25 59  1  0  0  0  0
 26 27  2  0  0  0  0
 26 28  1  0  0  0  0
 27 30  1  0  0  0  0
 27 60  1  0  0  0  0
 28 31  2  0  0  0  0
 28 61  1  0  0  0  0
 29 33  1  0  0  0  0
 29 34  2  0  0  0  0
 30 32  2  0  0  0  0
 30 62  1  0  0  0  0
 31 32  1  0  0  0  0
 31 63  1  0  0  0  0
 32 64  1  0  0  0  0
 33 35  2  0  0  0  0
 33 38  1  0  0  0  0
 34 36  1  0  0  0  0
 34 65  1  0  0  0  0
 35 37  1  0  0  0  0
 35 66  1  0  0  0  0
 36 37  2  0  0  0  0
 36 67  1  0  0  0  0
 37 68  1  0  0  0  0
M  END
> <PUBCHEM_COMPOUND_CID>
71151757

> <PUBCHEM_COMPOUND_CANONICALIZED>
1

> <PUBCHEM_CACTVS_COMPLEXITY>
866

> <PUBCHEM_CACTVS_HBOND_ACCEPTOR>
6

> <PUBCHEM_CACTVS_HBOND_DONOR>
1

> <PUBCHEM_CACTVS_ROTATABLE_BOND>
10

> <PUBCHEM_CACTVS_SUBSKEYS>
AAADcfB7uABAAAAAAAAAAAAAAAAAAWAAAAA8YMEAAAAAAFgB9AAAHgQQQAAADAzh3gY8x/NIFAKoAzV3VHDCiDA1IiAI2Dk+bNgMZvbE9duWPWjm4BHI6Ye4yKCOAAAAAAQKAAAAAAAACBQAAAAAAAAAAA==

> <PUBCHEM_IUPAC_OPENEYE_NAME>
2-[4-[4-[1-(benzenesulfonyl)indol-4-yl]piperazin-1-yl]butoxy]benzamide

> <PUBCHEM_IUPAC_CAS_NAME>
2-[4-[4-[1-(benzenesulfonyl)-4-indolyl]-1-piperazinyl]butoxy]benzamide

> <PUBCHEM_IUPAC_NAME_MARKUP>
2-[4-[4-[1-(benzenesulfonyl)indol-4-yl]piperazin-1-yl]butoxy]benzamide

> <PUBCHEM_IUPAC_NAME>
2-[4-[4-[1-(benzenesulfonyl)indol-4-yl]piperazin-1-yl]butoxy]benzamide

> <PUBCHEM_IUPAC_SYSTEMATIC_NAME>
2-[4-[4-[1-(phenylsulfonyl)indol-4-yl]piperazin-1-yl]butoxy]benzamide

> <PUBCHEM_IUPAC_TRADITIONAL_NAME>
2-[4-[4-(1-besylindol-4-yl)piperazino]butoxy]benzamide

> <PUBCHEM_IUPAC_INCHI>
InChI=1S/C29H32N4O4S/c30-29(34)25-11-4-5-14-28(25)37-22-7-6-16-31-18-20-32(21-19-31)26-12-8-13-27-24(26)15-17-33(27)38(35,36)23-9-2-1-3-10-23/h1-5,8-15,17H,6-7,16,18-22H2,(H2,30,34)

> <PUBCHEM_IUPAC_INCHIKEY>
UQFXXDIPHBBVJR-UHFFFAOYSA-N

> <PUBCHEM_XLOGP3_AA>
4.4

> <PUBCHEM_EXACT_MASS>
532.21442669

> <PUBCHEM_MOLECULAR_FORMULA>
C29H32N4O4S

> <PUBCHEM_MOLECULAR_WEIGHT>
532.7

> <PUBCHEM_OPENEYE_CAN_SMILES>
C1CN(CCN1CCCCOC2=CC=CC=C2C(=O)N)C3=CC=CC4=C3C=CN4S(=O)(=O)C5=CC=CC=C5

> <PUBCHEM_OPENEYE_ISO_SMILES>
C1CN(CCN1CCCCOC2=CC=CC=C2C(=O)N)C3=CC=CC4=C3C=CN4S(=O)(=O)C5=CC=CC=C5

> <PUBCHEM_CACTVS_TPSA>
106

> <PUBCHEM_MONOISOTOPIC_WEIGHT>
532.21442669

> <PUBCHEM_TOTAL_CHARGE>
0

> <PUBCHEM_HEAVY_ATOM_COUNT>
38

> <PUBCHEM_ATOM_DEF_STEREO_COUNT>
0

> <PUBCHEM_ATOM_UDEF_STEREO_COUNT>
0

> <PUBCHEM_BOND_DEF_STEREO_COUNT>
0

> <PUBCHEM_BOND_UDEF_STEREO_COUNT>
0

> <PUBCHEM_ISOTOPIC_ATOM_COUNT>
0

> <PUBCHEM_COMPONENT_COUNT>
1

> <PUBCHEM_CACTVS_TAUTO_COUNT>
-1

> <PUBCHEM_COORDINATE_TYPE>
1
5
255

> <PUBCHEM_BONDANNOTATIONS>
15  17  8
15  20  8
17  18  8
17  21  8
18  22  8
20  24  8
21  23  8
22  24  8
26  27  8
26  28  8
27  30  8
28  31  8
29  33  8
29  34  8
30  32  8
31  32  8
33  35  8
34  36  8
35  37  8
36  37  8
8  18  8
8  23  8

$$$$
