10927750
  -OEChem-09292322112D

 60 64  0     0  0  0  0  0  0999 V2000
    8.3374    3.3325    0.0000 O   0  0  0  0  0  0  0  0  0  0  0  0
   12.0027    0.5820    0.0000 N   0  0  0  0  0  0  0  0  0  0  0  0
   13.3467   -0.8992    0.0000 N   0  0  0  0  0  0  0  0  0  0  0  0
    8.7040    1.6397    0.0000 N   0  0  0  0  0  0  0  0  0  0  0  0
   12.9800    0.7936    0.0000 C   0  0  0  0  0  0  0  0  0  0  0  0
   11.6974   -0.3703    0.0000 C   0  0  0  0  0  0  0  0  0  0  0  0
   13.6520    0.0531    0.0000 C   0  0  0  0  0  0  0  0  0  0  0  0
   12.3693   -1.1108    0.0000 C   0  0  0  0  0  0  0  0  0  0  0  0
   11.3307    1.3225    0.0000 C   0  0  0  0  0  0  0  0  0  0  0  0
   10.3534    1.1108    0.0000 C   0  0  0  0  0  0  0  0  0  0  0  0
   14.0187   -1.6397    0.0000 C   0  0  0  0  0  0  0  0  0  0  0  0
    9.6814    1.8514    0.0000 C   0  0  0  0  0  0  0  0  0  0  0  0
    5.3364    2.7050    0.0000 C   0  0  0  0  0  0  0  0  0  0  0  0
    4.5274    3.2928    0.0000 C   0  0  0  0  0  0  0  0  0  0  0  0
    5.0274    1.7540    0.0000 C   0  0  0  0  0  0  0  0  0  0  0  0
    3.7183    2.7050    0.0000 C   0  0  0  0  0  0  0  0  0  0  0  0
    4.0274    1.7540    0.0000 C   0  0  0  0  0  0  0  0  0  0  0  0
   13.7133   -2.5920    0.0000 C   0  0  0  0  0  0  0  0  0  0  0  0
   14.9960   -1.4280    0.0000 C   0  0  0  0  0  0  0  0  0  0  0  0
    6.3518    2.9373    0.0000 C   0  0  0  0  0  0  0  0  0  0  0  0
    7.0547    2.1686    0.0000 C   0  0  0  0  0  0  0  0  0  0  0  0
    5.7123    0.9692    0.0000 C   0  0  0  0  0  0  0  0  0  0  0  0
    8.0321    2.3803    0.0000 C   0  0  0  0  0  0  0  0  0  0  0  0
    6.7328    1.1780    0.0000 C   0  0  0  0  0  0  0  0  0  0  0  0
    2.7029    2.9373    0.0000 C   0  0  0  0  0  0  0  0  0  0  0  0
    3.3424    0.9692    0.0000 C   0  0  0  0  0  0  0  0  0  0  0  0
   14.3853   -3.3325    0.0000 C   0  0  0  0  0  0  0  0  0  0  0  0
   15.6680   -2.1686    0.0000 C   0  0  0  0  0  0  0  0  0  0  0  0
    2.0000    2.1686    0.0000 C   0  0  0  0  0  0  0  0  0  0  0  0
    2.3219    1.1780    0.0000 C   0  0  0  0  0  0  0  0  0  0  0  0
   15.3627   -3.1208    0.0000 C   0  0  0  0  0  0  0  0  0  0  0  0
   13.5046    1.1242    0.0000 H   0  0  0  0  0  0  0  0  0  0  0  0
   12.7456    1.3676    0.0000 H   0  0  0  0  0  0  0  0  0  0  0  0
   11.1488   -0.0813    0.0000 H   0  0  0  0  0  0  0  0  0  0  0  0
   11.3175   -0.8603    0.0000 H   0  0  0  0  0  0  0  0  0  0  0  0
   14.2006   -0.2359    0.0000 H   0  0  0  0  0  0  0  0  0  0  0  0
   14.0319    0.5431    0.0000 H   0  0  0  0  0  0  0  0  0  0  0  0
   11.8448   -1.4414    0.0000 H   0  0  0  0  0  0  0  0  0  0  0  0
   12.6038   -1.6848    0.0000 H   0  0  0  0  0  0  0  0  0  0  0  0
   11.8552    1.6531    0.0000 H   0  0  0  0  0  0  0  0  0  0  0  0
   11.0962    1.8965    0.0000 H   0  0  0  0  0  0  0  0  0  0  0  0
    9.8289    0.7803    0.0000 H   0  0  0  0  0  0  0  0  0  0  0  0
   10.5878    0.5369    0.0000 H   0  0  0  0  0  0  0  0  0  0  0  0
   10.2059    2.1820    0.0000 H   0  0  0  0  0  0  0  0  0  0  0  0
    9.4469    2.4254    0.0000 H   0  0  0  0  0  0  0  0  0  0  0  0
    4.9422    3.7536    0.0000 H   0  0  0  0  0  0  0  0  0  0  0  0
    4.1125    3.7536    0.0000 H   0  0  0  0  0  0  0  0  0  0  0  0
    8.5147    1.0493    0.0000 H   0  0  0  0  0  0  0  0  0  0  0  0
   13.1074   -2.7232    0.0000 H   0  0  0  0  0  0  0  0  0  0  0  0
   15.1853   -0.8376    0.0000 H   0  0  0  0  0  0  0  0  0  0  0  0
    6.5365    3.5291    0.0000 H   0  0  0  0  0  0  0  0  0  0  0  0
    5.5139    0.3818    0.0000 H   0  0  0  0  0  0  0  0  0  0  0  0
    7.1459    0.7156    0.0000 H   0  0  0  0  0  0  0  0  0  0  0  0
    2.5182    3.5291    0.0000 H   0  0  0  0  0  0  0  0  0  0  0  0
    3.5408    0.3818    0.0000 H   0  0  0  0  0  0  0  0  0  0  0  0
   14.1960   -3.9229    0.0000 H   0  0  0  0  0  0  0  0  0  0  0  0
   16.2740   -2.0374    0.0000 H   0  0  0  0  0  0  0  0  0  0  0  0
    1.3940    2.2998    0.0000 H   0  0  0  0  0  0  0  0  0  0  0  0
    1.9088    0.7156    0.0000 H   0  0  0  0  0  0  0  0  0  0  0  0
   15.7793   -3.5800    0.0000 H   0  0  0  0  0  0  0  0  0  0  0  0
  1 23  2  0  0  0  0
  2  5  1  0  0  0  0
  2  6  1  0  0  0  0
  2  9  1  0  0  0  0
  3  7  1  0  0  0  0
  3  8  1  0  0  0  0
  3 11  1  0  0  0  0
  4 12  1  0  0  0  0
  4 23  1  0  0  0  0
  4 48  1  0  0  0  0
  5  7  1  0  0  0  0
  5 32  1  0  0  0  0
  5 33  1  0  0  0  0
  6  8  1  0  0  0  0
  6 34  1  0  0  0  0
  6 35  1  0  0  0  0
  7 36  1  0  0  0  0
  7 37  1  0  0  0  0
  8 38  1  0  0  0  0
  8 39  1  0  0  0  0
  9 10  1  0  0  0  0
  9 40  1  0  0  0  0
  9 41  1  0  0  0  0
 10 12  1  0  0  0  0
 10 42  1  0  0  0  0
 10 43  1  0  0  0  0
 11 18  2  0  0  0  0
 11 19  1  0  0  0  0
 12 44  1  0  0  0  0
 12 45  1  0  0  0  0
 13 14  1  0  0  0  0
 13 15  2  0  0  0  0
 13 20  1  0  0  0  0
 14 16  1  0  0  0  0
 14 46  1  0  0  0  0
 14 47  1  0  0  0  0
 15 17  1  0  0  0  0
 15 22  1  0  0  0  0
 16 17  1  0  0  0  0
 16 25  2  0  0  0  0
 17 26  2  0  0  0  0
 18 27  1  0  0  0  0
 18 49  1  0  0  0  0
 19 28  2  0  0  0  0
 19 50  1  0  0  0  0
 20 21  2  0  0  0  0
 20 51  1  0  0  0  0
 21 23  1  0  0  0  0
 21 24  1  0  0  0  0
 22 24  2  0  0  0  0
 22 52  1  0  0  0  0
 24 53  1  0  0  0  0
 25 29  1  0  0  0  0
 25 54  1  0  0  0  0
 26 30  1  0  0  0  0
 26 55  1  0  0  0  0
 27 31  2  0  0  0  0
 27 56  1  0  0  0  0
 28 31  1  0  0  0  0
 28 57  1  0  0  0  0
 29 30  2  0  0  0  0
 29 58  1  0  0  0  0
 30 59  1  0  0  0  0
 31 60  1  0  0  0  0
M  END
> <PUBCHEM_COMPOUND_CID>
10927750

> <PUBCHEM_COMPOUND_CANONICALIZED>
1

> <PUBCHEM_CACTVS_COMPLEXITY>
581

> <PUBCHEM_CACTVS_HBOND_ACCEPTOR>
3

> <PUBCHEM_CACTVS_HBOND_DONOR>
1

> <PUBCHEM_CACTVS_ROTATABLE_BOND>
6

> <PUBCHEM_CACTVS_SUBSKEYS>
AAADceB7IAAAAAAAAAAAAAAAAAAAAYAAAAA8YMEAAAAAAGABUAAAHgAQAAAADAjBmAQwwIPAAACIAiVSUACCAAAlAgAIiIEIZMgIYDLA1ZGUIQhglgDIyYcYiMCOwAACAAAQAACAAAQAACAAAQAACAAAAA==

> <PUBCHEM_IUPAC_OPENEYE_NAME>
N-[3-(4-phenylpiperazin-1-yl)propyl]-9H-fluorene-2-carboxamide

> <PUBCHEM_IUPAC_CAS_NAME>
N-[3-(4-phenyl-1-piperazinyl)propyl]-9H-fluorene-2-carboxamide

> <PUBCHEM_IUPAC_NAME_MARKUP>
<I>N</I>-[3-(4-phenylpiperazin-1-yl)propyl]-9<I>H</I>-fluorene-2-carboxamide

> <PUBCHEM_IUPAC_NAME>
N-[3-(4-phenylpiperazin-1-yl)propyl]-9H-fluorene-2-carboxamide

> <PUBCHEM_IUPAC_SYSTEMATIC_NAME>
N-[3-(4-phenylpiperazin-1-yl)propyl]-9H-fluorene-2-carboxamide

> <PUBCHEM_IUPAC_TRADITIONAL_NAME>
N-[3-(4-phenylpiperazino)propyl]-9H-fluorene-2-carboxamide

> <PUBCHEM_IUPAC_INCHI>
InChI=1S/C27H29N3O/c31-27(22-11-12-26-23(20-22)19-21-7-4-5-10-25(21)26)28-13-6-14-29-15-17-30(18-16-29)24-8-2-1-3-9-24/h1-5,7-12,20H,6,13-19H2,(H,28,31)

> <PUBCHEM_IUPAC_INCHIKEY>
MPLFOTCUGHQPTL-UHFFFAOYSA-N

> <PUBCHEM_XLOGP3_AA>
4.8

> <PUBCHEM_EXACT_MASS>
411.231062557

> <PUBCHEM_MOLECULAR_FORMULA>
C27H29N3O

> <PUBCHEM_MOLECULAR_WEIGHT>
411.5

> <PUBCHEM_OPENEYE_CAN_SMILES>
C1CN(CCN1CCCNC(=O)C2=CC3=C(C=C2)C4=CC=CC=C4C3)C5=CC=CC=C5

> <PUBCHEM_OPENEYE_ISO_SMILES>
C1CN(CCN1CCCNC(=O)C2=CC3=C(C=C2)C4=CC=CC=C4C3)C5=CC=CC=C5

> <PUBCHEM_CACTVS_TPSA>
35.6

> <PUBCHEM_MONOISOTOPIC_WEIGHT>
411.231062557

> <PUBCHEM_TOTAL_CHARGE>
0

> <PUBCHEM_HEAVY_ATOM_COUNT>
31

> <PUBCHEM_ATOM_DEF_STEREO_COUNT>
0

> <PUBCHEM_ATOM_UDEF_STEREO_COUNT>
0

> <PUBCHEM_BOND_DEF_STEREO_COUNT>
0

> <PUBCHEM_BOND_UDEF_STEREO_COUNT>
0

> <PUBCHEM_ISOTOPIC_ATOM_COUNT>
0

> <PUBCHEM_COMPONENT_COUNT>
1

> <PUBCHEM_CACTVS_TAUTO_COUNT>
-1

> <PUBCHEM_COORDINATE_TYPE>
1
5
255

> <PUBCHEM_BONDANNOTATIONS>
11  18  8
11  19  8
13  15  8
13  20  8
15  22  8
16  17  8
16  25  8
17  26  8
18  27  8
19  28  8
20  21  8
21  24  8
22  24  8
25  29  8
26  30  8
27  31  8
28  31  8
29  30  8

$$$$
