10497193
  -OEChem-09292322142D

 44 47  0     1  0  0  0  0  0999 V2000
    2.8660   -5.2712    0.0000 Cl  0  0  0  0  0  0  0  0  0  0  0  0
    5.2628    2.0277    0.0000 N   0  0  3  0  0  0  0  0  0  0  0  0
    2.3660    0.2677    0.0000 N   0  0  0  0  0  0  0  0  0  0  0  0
    2.0570   -0.6834    0.0000 N   0  0  0  0  0  0  0  0  0  0  0  0
    3.9538    1.0767    0.0000 C   0  0  3  0  0  0  0  0  0  0  0  0
    3.6448    2.0277    0.0000 C   0  0  0  0  0  0  0  0  0  0  0  0
    4.9538    1.0767    0.0000 C   0  0  0  0  0  0  0  0  0  0  0  0
    4.4538    2.6155    0.0000 C   0  0  0  0  0  0  0  0  0  0  0  0
    3.3660    0.2677    0.0000 C   0  0  0  0  0  0  0  0  0  0  0  0
    6.2139    2.3367    0.0000 C   0  0  0  0  0  0  0  0  0  0  0  0
    3.6750   -0.6834    0.0000 C   0  0  0  0  0  0  0  0  0  0  0  0
    6.4218    3.3149    0.0000 C   0  0  0  0  0  0  0  0  0  0  0  0
    2.8660   -1.2712    0.0000 C   0  0  0  0  0  0  0  0  0  0  0  0
    5.6786    3.9840    0.0000 C   0  0  0  0  0  0  0  0  0  0  0  0
    7.3728    3.6239    0.0000 C   0  0  0  0  0  0  0  0  0  0  0  0
    2.8660   -2.2712    0.0000 C   0  0  0  0  0  0  0  0  0  0  0  0
    5.8866    4.9622    0.0000 C   0  0  0  0  0  0  0  0  0  0  0  0
    7.5808    4.6021    0.0000 C   0  0  0  0  0  0  0  0  0  0  0  0
    2.0000   -2.7712    0.0000 C   0  0  0  0  0  0  0  0  0  0  0  0
    3.7320   -2.7712    0.0000 C   0  0  0  0  0  0  0  0  0  0  0  0
    6.8376    5.2712    0.0000 C   0  0  0  0  0  0  0  0  0  0  0  0
    2.0000   -3.7712    0.0000 C   0  0  0  0  0  0  0  0  0  0  0  0
    3.7320   -3.7712    0.0000 C   0  0  0  0  0  0  0  0  0  0  0  0
    2.8660   -4.2712    0.0000 C   0  0  0  0  0  0  0  0  0  0  0  0
    3.3414    1.1737    0.0000 H   0  0  0  0  0  0  0  0  0  0  0  0
    3.3348    2.5647    0.0000 H   0  0  0  0  0  0  0  0  0  0  0  0
    3.0784    1.7756    0.0000 H   0  0  0  0  0  0  0  0  0  0  0  0
    4.8890    0.4601    0.0000 H   0  0  0  0  0  0  0  0  0  0  0  0
    5.5603    0.9478    0.0000 H   0  0  0  0  0  0  0  0  0  0  0  0
    4.8687    3.0763    0.0000 H   0  0  0  0  0  0  0  0  0  0  0  0
    4.0390    3.0763    0.0000 H   0  0  0  0  0  0  0  0  0  0  0  0
    6.3002    1.7228    0.0000 H   0  0  0  0  0  0  0  0  0  0  0  0
    6.8335    2.3151    0.0000 H   0  0  0  0  0  0  0  0  0  0  0  0
    4.2647   -0.8750    0.0000 H   0  0  0  0  0  0  0  0  0  0  0  0
    2.0016    0.7692    0.0000 H   0  0  0  0  0  0  0  0  0  0  0  0
    5.0890    3.7924    0.0000 H   0  0  0  0  0  0  0  0  0  0  0  0
    7.8336    3.2090    0.0000 H   0  0  0  0  0  0  0  0  0  0  0  0
    5.4258    5.3770    0.0000 H   0  0  0  0  0  0  0  0  0  0  0  0
    8.1704    4.7937    0.0000 H   0  0  0  0  0  0  0  0  0  0  0  0
    1.4631   -2.4612    0.0000 H   0  0  0  0  0  0  0  0  0  0  0  0
    4.2690   -2.4612    0.0000 H   0  0  0  0  0  0  0  0  0  0  0  0
    6.9665    5.8776    0.0000 H   0  0  0  0  0  0  0  0  0  0  0  0
    1.4631   -4.0812    0.0000 H   0  0  0  0  0  0  0  0  0  0  0  0
    4.2690   -4.0812    0.0000 H   0  0  0  0  0  0  0  0  0  0  0  0
  1 24  1  0  0  0  0
  2  7  1  0  0  0  0
  2  8  1  0  0  0  0
  2 10  1  0  0  0  0
  3  4  1  0  0  0  0
  3  9  1  0  0  0  0
  3 35  1  0  0  0  0
  4 13  2  0  0  0  0
  5  6  1  0  0  0  0
  5  7  1  0  0  0  0
  5  9  1  0  0  0  0
  5 25  1  0  0  0  0
  6  8  1  0  0  0  0
  6 26  1  0  0  0  0
  6 27  1  0  0  0  0
  7 28  1  0  0  0  0
  7 29  1  0  0  0  0
  8 30  1  0  0  0  0
  8 31  1  0  0  0  0
  9 11  2  0  0  0  0
 10 12  1  0  0  0  0
 10 32  1  0  0  0  0
 10 33  1  0  0  0  0
 11 13  1  0  0  0  0
 11 34  1  0  0  0  0
 12 14  2  0  0  0  0
 12 15  1  0  0  0  0
 13 16  1  0  0  0  0
 14 17  1  0  0  0  0
 14 36  1  0  0  0  0
 15 18  2  0  0  0  0
 15 37  1  0  0  0  0
 16 19  2  0  0  0  0
 16 20  1  0  0  0  0
 17 21  2  0  0  0  0
 17 38  1  0  0  0  0
 18 21  1  0  0  0  0
 18 39  1  0  0  0  0
 19 22  1  0  0  0  0
 19 40  1  0  0  0  0
 20 23  2  0  0  0  0
 20 41  1  0  0  0  0
 21 42  1  0  0  0  0
 22 24  2  0  0  0  0
 22 43  1  0  0  0  0
 23 24  1  0  0  0  0
 23 44  1  0  0  0  0
M  END
> <PUBCHEM_COMPOUND_CID>
10497193

> <PUBCHEM_COMPOUND_CANONICALIZED>
1

> <PUBCHEM_CACTVS_COMPLEXITY>
390

> <PUBCHEM_CACTVS_HBOND_ACCEPTOR>
2

> <PUBCHEM_CACTVS_HBOND_DONOR>
1

> <PUBCHEM_CACTVS_ROTATABLE_BOND>
4

> <PUBCHEM_CACTVS_SUBSKEYS>
AAADceB7AAAEAAAAAAAAAAAAAAAAAWLAAAAwYAAAAAAAAAAB0AAAHAIYAAAADQrBHiQwgJNjAACiAyRiQACSBAAgBwAYuSA4ZpgIIKKB09GEpAhgmACIyAcQgMAOBAAAAAAAAAAIAAAAAAAAAAAAAAAAAA==

> <PUBCHEM_IUPAC_OPENEYE_NAME>
5-(1-benzylpyrrolidin-3-yl)-3-(4-chlorophenyl)-1H-pyrazole

> <PUBCHEM_IUPAC_CAS_NAME>
3-(4-chlorophenyl)-5-[1-(phenylmethyl)-3-pyrrolidinyl]-1H-pyrazole

> <PUBCHEM_IUPAC_NAME_MARKUP>
5-(1-benzylpyrrolidin-3-yl)-3-(4-chlorophenyl)-1<I>H</I>-pyrazole

> <PUBCHEM_IUPAC_NAME>
5-(1-benzylpyrrolidin-3-yl)-3-(4-chlorophenyl)-1H-pyrazole

> <PUBCHEM_IUPAC_SYSTEMATIC_NAME>
3-(4-chlorophenyl)-5-[1-(phenylmethyl)pyrrolidin-3-yl]-1H-pyrazole

> <PUBCHEM_IUPAC_TRADITIONAL_NAME>
5-(1-benzylpyrrolidin-3-yl)-3-(4-chlorophenyl)-1H-pyrazole

> <PUBCHEM_IUPAC_INCHI>
InChI=1S/C20H20ClN3/c21-18-8-6-16(7-9-18)19-12-20(23-22-19)17-10-11-24(14-17)13-15-4-2-1-3-5-15/h1-9,12,17H,10-11,13-14H2,(H,22,23)

> <PUBCHEM_IUPAC_INCHIKEY>
HISVPUHXONHOSX-UHFFFAOYSA-N

> <PUBCHEM_XLOGP3_AA>
4.3

> <PUBCHEM_EXACT_MASS>
337.1345753

> <PUBCHEM_MOLECULAR_FORMULA>
C20H20ClN3

> <PUBCHEM_MOLECULAR_WEIGHT>
337.8

> <PUBCHEM_OPENEYE_CAN_SMILES>
C1CN(CC1C2=CC(=NN2)C3=CC=C(C=C3)Cl)CC4=CC=CC=C4

> <PUBCHEM_OPENEYE_ISO_SMILES>
C1CN(CC1C2=CC(=NN2)C3=CC=C(C=C3)Cl)CC4=CC=CC=C4

> <PUBCHEM_CACTVS_TPSA>
31.9

> <PUBCHEM_MONOISOTOPIC_WEIGHT>
337.1345753

> <PUBCHEM_TOTAL_CHARGE>
0

> <PUBCHEM_HEAVY_ATOM_COUNT>
24

> <PUBCHEM_ATOM_DEF_STEREO_COUNT>
0

> <PUBCHEM_ATOM_UDEF_STEREO_COUNT>
1

> <PUBCHEM_BOND_DEF_STEREO_COUNT>
0

> <PUBCHEM_BOND_UDEF_STEREO_COUNT>
0

> <PUBCHEM_ISOTOPIC_ATOM_COUNT>
0

> <PUBCHEM_COMPONENT_COUNT>
1

> <PUBCHEM_CACTVS_TAUTO_COUNT>
-1

> <PUBCHEM_COORDINATE_TYPE>
1
5
255

> <PUBCHEM_BONDANNOTATIONS>
11  13  8
12  14  8
12  15  8
14  17  8
15  18  8
16  19  8
16  20  8
17  21  8
18  21  8
19  22  8
20  23  8
22  24  8
23  24  8
3  4  8
3  9  8
4  13  8
5  9  3
9  11  8

$$$$
