25110765
  -OEChem-09292322072D

 62 66  0     0  0  0  0  0  0999 V2000
    2.0000   -2.7136    0.0000 F   0  0  0  0  0  0  0  0  0  0  0  0
    7.1279   -3.7136    0.0000 O   0  0  0  0  0  0  0  0  0  0  0  0
    6.4763   -0.0573    0.0000 N   0  0  0  0  0  0  0  0  0  0  0  0
    7.4083    2.7942    0.0000 N   0  0  0  0  0  0  0  0  0  0  0  0
    5.5443   -2.9089    0.0000 N   0  0  0  0  0  0  0  0  0  0  0  0
    5.5443   -4.5184    0.0000 N   0  0  0  0  0  0  0  0  0  0  0  0
    6.7870    0.8932    0.0000 C   0  0  0  0  0  0  0  0  0  0  0  0
    5.8550   -1.9584    0.0000 C   0  0  0  0  0  0  0  0  0  0  0  0
    5.4978   -0.2636    0.0000 C   0  0  0  0  0  0  0  0  0  0  0  0
    7.1441   -0.8016    0.0000 C   0  0  0  0  0  0  0  0  0  0  0  0
    6.1191    1.6375    0.0000 C   0  0  0  0  0  0  0  0  0  0  0  0
    7.7654    1.0994    0.0000 C   0  0  0  0  0  0  0  0  0  0  0  0
    5.1871   -1.2141    0.0000 C   0  0  0  0  0  0  0  0  0  0  0  0
    6.8335   -1.7522    0.0000 C   0  0  0  0  0  0  0  0  0  0  0  0
    6.4298    2.5880    0.0000 C   0  0  0  0  0  0  0  0  0  0  0  0
    8.0761    2.0499    0.0000 C   0  0  0  0  0  0  0  0  0  0  0  0
    7.7189    3.7447    0.0000 C   0  0  0  0  0  0  0  0  0  0  0  0
    4.5981   -3.2136    0.0000 C   0  0  0  0  0  0  0  0  0  0  0  0
    6.1279   -3.7136    0.0000 C   0  0  0  0  0  0  0  0  0  0  0  0
    4.5981   -4.2136    0.0000 C   0  0  0  0  0  0  0  0  0  0  0  0
    8.6974    3.9510    0.0000 C   0  0  0  0  0  0  0  0  0  0  0  0
    3.7320   -2.7136    0.0000 C   0  0  0  0  0  0  0  0  0  0  0  0
    3.7320   -4.7136    0.0000 C   0  0  0  0  0  0  0  0  0  0  0  0
    9.3653    3.2066    0.0000 C   0  0  0  0  0  0  0  0  0  0  0  0
    9.0081    4.9015    0.0000 C   0  0  0  0  0  0  0  0  0  0  0  0
    2.8660   -3.2136    0.0000 C   0  0  0  0  0  0  0  0  0  0  0  0
    2.8660   -4.2136    0.0000 C   0  0  0  0  0  0  0  0  0  0  0  0
   10.3438    3.4129    0.0000 C   0  0  0  0  0  0  0  0  0  0  0  0
    9.0546    2.2561    0.0000 C   0  0  0  0  0  0  0  0  0  0  0  0
    9.9866    5.1077    0.0000 C   0  0  0  0  0  0  0  0  0  0  0  0
   10.6545    4.3634    0.0000 C   0  0  0  0  0  0  0  0  0  0  0  0
    7.2010    0.4317    0.0000 H   0  0  0  0  0  0  0  0  0  0  0  0
    6.2690   -2.4198    0.0000 H   0  0  0  0  0  0  0  0  0  0  0  0
    5.4772    0.3561    0.0000 H   0  0  0  0  0  0  0  0  0  0  0  0
    4.8840   -0.1762    0.0000 H   0  0  0  0  0  0  0  0  0  0  0  0
    7.6910   -1.0937    0.0000 H   0  0  0  0  0  0  0  0  0  0  0  0
    7.5267   -0.3137    0.0000 H   0  0  0  0  0  0  0  0  0  0  0  0
    5.5722    1.9295    0.0000 H   0  0  0  0  0  0  0  0  0  0  0  0
    5.7366    1.1496    0.0000 H   0  0  0  0  0  0  0  0  0  0  0  0
    7.7860    0.4797    0.0000 H   0  0  0  0  0  0  0  0  0  0  0  0
    8.3793    1.0120    0.0000 H   0  0  0  0  0  0  0  0  0  0  0  0
    4.6402   -0.9221    0.0000 H   0  0  0  0  0  0  0  0  0  0  0  0
    4.8046   -1.7020    0.0000 H   0  0  0  0  0  0  0  0  0  0  0  0
    6.8540   -2.3718    0.0000 H   0  0  0  0  0  0  0  0  0  0  0  0
    7.4473   -1.8395    0.0000 H   0  0  0  0  0  0  0  0  0  0  0  0
    6.4092    3.2077    0.0000 H   0  0  0  0  0  0  0  0  0  0  0  0
    5.8160    2.6754    0.0000 H   0  0  0  0  0  0  0  0  0  0  0  0
    8.6230    1.7579    0.0000 H   0  0  0  0  0  0  0  0  0  0  0  0
    8.4587    2.5378    0.0000 H   0  0  0  0  0  0  0  0  0  0  0  0
    7.6984    4.3644    0.0000 H   0  0  0  0  0  0  0  0  0  0  0  0
    7.1051    3.8321    0.0000 H   0  0  0  0  0  0  0  0  0  0  0  0
    5.7369   -5.1077    0.0000 H   0  0  0  0  0  0  0  0  0  0  0  0
    3.7320   -2.0936    0.0000 H   0  0  0  0  0  0  0  0  0  0  0  0
    3.7320   -5.3336    0.0000 H   0  0  0  0  0  0  0  0  0  0  0  0
    8.5940    5.3629    0.0000 H   0  0  0  0  0  0  0  0  0  0  0  0
    2.3291   -4.5236    0.0000 H   0  0  0  0  0  0  0  0  0  0  0  0
   10.7578    2.9514    0.0000 H   0  0  0  0  0  0  0  0  0  0  0  0
    8.4653    2.4487    0.0000 H   0  0  0  0  0  0  0  0  0  0  0  0
    8.8620    1.6668    0.0000 H   0  0  0  0  0  0  0  0  0  0  0  0
    9.6439    2.0635    0.0000 H   0  0  0  0  0  0  0  0  0  0  0  0
   10.1792    5.6970    0.0000 H   0  0  0  0  0  0  0  0  0  0  0  0
   11.2611    4.4912    0.0000 H   0  0  0  0  0  0  0  0  0  0  0  0
  1 26  1  0  0  0  0
  2 19  2  0  0  0  0
  3  7  1  0  0  0  0
  3  9  1  0  0  0  0
  3 10  1  0  0  0  0
  4 15  1  0  0  0  0
  4 16  1  0  0  0  0
  4 17  1  0  0  0  0
  5  8  1  0  0  0  0
  5 18  1  0  0  0  0
  5 19  1  0  0  0  0
  6 19  1  0  0  0  0
  6 20  1  0  0  0  0
  6 52  1  0  0  0  0
  7 11  1  0  0  0  0
  7 12  1  0  0  0  0
  7 32  1  0  0  0  0
  8 13  1  0  0  0  0
  8 14  1  0  0  0  0
  8 33  1  0  0  0  0
  9 13  1  0  0  0  0
  9 34  1  0  0  0  0
  9 35  1  0  0  0  0
 10 14  1  0  0  0  0
 10 36  1  0  0  0  0
 10 37  1  0  0  0  0
 11 15  1  0  0  0  0
 11 38  1  0  0  0  0
 11 39  1  0  0  0  0
 12 16  1  0  0  0  0
 12 40  1  0  0  0  0
 12 41  1  0  0  0  0
 13 42  1  0  0  0  0
 13 43  1  0  0  0  0
 14 44  1  0  0  0  0
 14 45  1  0  0  0  0
 15 46  1  0  0  0  0
 15 47  1  0  0  0  0
 16 48  1  0  0  0  0
 16 49  1  0  0  0  0
 17 21  1  0  0  0  0
 17 50  1  0  0  0  0
 17 51  1  0  0  0  0
 18 20  2  0  0  0  0
 18 22  1  0  0  0  0
 20 23  1  0  0  0  0
 21 24  1  0  0  0  0
 21 25  2  0  0  0  0
 22 26  2  0  0  0  0
 22 53  1  0  0  0  0
 23 27  2  0  0  0  0
 23 54  1  0  0  0  0
 24 28  2  0  0  0  0
 24 29  1  0  0  0  0
 25 30  1  0  0  0  0
 25 55  1  0  0  0  0
 26 27  1  0  0  0  0
 27 56  1  0  0  0  0
 28 31  1  0  0  0  0
 28 57  1  0  0  0  0
 29 58  1  0  0  0  0
 29 59  1  0  0  0  0
 29 60  1  0  0  0  0
 30 31  2  0  0  0  0
 30 61  1  0  0  0  0
 31 62  1  0  0  0  0
M  END
> <PUBCHEM_COMPOUND_CID>
25110765

> <PUBCHEM_COMPOUND_CANONICALIZED>
1

> <PUBCHEM_CACTVS_COMPLEXITY>
617

> <PUBCHEM_CACTVS_HBOND_ACCEPTOR>
4

> <PUBCHEM_CACTVS_HBOND_DONOR>
1

> <PUBCHEM_CACTVS_ROTATABLE_BOND>
4

> <PUBCHEM_CACTVS_SUBSKEYS>
AAADceB7oQAAAAAAAAAAAAAAAAAAAWAAAAA8eIEAAAAAAFgBQAAAHwAQAAAADCjBGAwzwIPAAACIAiRCUACCAAAhAgAIiAAIdIiIYCLA0ZGUIAholgLIyCcQgIAOgAAAAAAQACAAAAAAACAAQAAAAAAAAA==

> <PUBCHEM_IUPAC_OPENEYE_NAME>
5-fluoro-3-[1-[1-(o-tolylmethyl)-4-piperidyl]-4-piperidyl]-1H-benzimidazol-2-one

> <PUBCHEM_IUPAC_CAS_NAME>
5-fluoro-3-[1-[1-[(2-methylphenyl)methyl]-4-piperidinyl]-4-piperidinyl]-1H-benzimidazol-2-one

> <PUBCHEM_IUPAC_NAME_MARKUP>
5-fluoro-3-[1-[1-[(2-methylphenyl)methyl]piperidin-4-yl]piperidin-4-yl]-1<I>H</I>-benzimidazol-2-one

> <PUBCHEM_IUPAC_NAME>
5-fluoro-3-[1-[1-[(2-methylphenyl)methyl]piperidin-4-yl]piperidin-4-yl]-1H-benzimidazol-2-one

> <PUBCHEM_IUPAC_SYSTEMATIC_NAME>
5-fluoranyl-3-[1-[1-[(2-methylphenyl)methyl]piperidin-4-yl]piperidin-4-yl]-1H-benzimidazol-2-one

> <PUBCHEM_IUPAC_TRADITIONAL_NAME>
5-fluoro-3-[1-[1-(2-methylbenzyl)-4-piperidyl]-4-piperidyl]-1H-benzimidazol-2-one

> <PUBCHEM_IUPAC_INCHI>
InChI=1S/C25H31FN4O/c1-18-4-2-3-5-19(18)17-28-12-8-21(9-13-28)29-14-10-22(11-15-29)30-24-16-20(26)6-7-23(24)27-25(30)31/h2-7,16,21-22H,8-15,17H2,1H3,(H,27,31)

> <PUBCHEM_IUPAC_INCHIKEY>
IVSZXUDAZZHELN-UHFFFAOYSA-N

> <PUBCHEM_XLOGP3_AA>
3.9

> <PUBCHEM_EXACT_MASS>
422.24818979

> <PUBCHEM_MOLECULAR_FORMULA>
C25H31FN4O

> <PUBCHEM_MOLECULAR_WEIGHT>
422.5

> <PUBCHEM_OPENEYE_CAN_SMILES>
CC1=CC=CC=C1CN2CCC(CC2)N3CCC(CC3)N4C5=C(C=CC(=C5)F)NC4=O

> <PUBCHEM_OPENEYE_ISO_SMILES>
CC1=CC=CC=C1CN2CCC(CC2)N3CCC(CC3)N4C5=C(C=CC(=C5)F)NC4=O

> <PUBCHEM_CACTVS_TPSA>
38.8

> <PUBCHEM_MONOISOTOPIC_WEIGHT>
422.24818979

> <PUBCHEM_TOTAL_CHARGE>
0

> <PUBCHEM_HEAVY_ATOM_COUNT>
31

> <PUBCHEM_ATOM_DEF_STEREO_COUNT>
0

> <PUBCHEM_ATOM_UDEF_STEREO_COUNT>
0

> <PUBCHEM_BOND_DEF_STEREO_COUNT>
0

> <PUBCHEM_BOND_UDEF_STEREO_COUNT>
0

> <PUBCHEM_ISOTOPIC_ATOM_COUNT>
0

> <PUBCHEM_COMPONENT_COUNT>
1

> <PUBCHEM_CACTVS_TAUTO_COUNT>
-1

> <PUBCHEM_COORDINATE_TYPE>
1
5
255

> <PUBCHEM_BONDANNOTATIONS>
18  20  8
18  22  8
20  23  8
21  24  8
21  25  8
22  26  8
23  27  8
24  28  8
25  30  8
26  27  8
28  31  8
30  31  8
5  18  8
5  19  8
6  19  8
6  20  8

$$$$
