45486363
  -OEChem-09292322292D

 70 74  0     1  0  0  0  0  0999 V2000
   15.1084   -0.5242    0.0000 O   0  0  0  0  0  0  0  0  0  0  0  0
    9.8462   -0.5000    0.0000 N   0  0  3  0  0  0  0  0  0  0  0  0
    7.2482    0.0000    0.0000 N   0  0  0  0  0  0  0  0  0  0  0  0
    5.5161    1.0000    0.0000 N   0  0  0  0  0  0  0  0  0  0  0  0
   10.7123   -0.0000    0.0000 C   0  0  3  0  0  0  0  0  0  0  0  0
   10.7123    1.0000    0.0000 C   0  0  0  0  0  0  0  0  0  0  0  0
   11.5783   -0.5000    0.0000 C   0  0  0  0  0  0  0  0  0  0  0  0
    8.9802   -0.0000    0.0000 C   0  0  0  0  0  0  0  0  0  0  0  0
   11.5783    1.5000    0.0000 C   0  0  0  0  0  0  0  0  0  0  0  0
    8.1142   -0.5000    0.0000 C   0  0  0  0  0  0  0  0  0  0  0  0
   12.4443   -0.0000    0.0000 C   0  0  0  0  0  0  0  0  0  0  0  0
    9.8462   -1.5000    0.0000 C   0  0  0  0  0  0  0  0  0  0  0  0
   12.4443    1.0000    0.0000 C   0  0  0  0  0  0  0  0  0  0  0  0
    7.2482    1.0000    0.0000 C   0  0  0  0  0  0  0  0  0  0  0  0
    6.3821   -0.5000    0.0000 C   0  0  0  0  0  0  0  0  0  0  0  0
    6.3821    1.5000    0.0000 C   0  0  0  0  0  0  0  0  0  0  0  0
    5.5161    0.0000    0.0000 C   0  0  0  0  0  0  0  0  0  0  0  0
    8.9802   -2.0000    0.0000 C   0  0  0  0  0  0  0  0  0  0  0  0
   13.3383   -0.5347    0.0000 C   0  0  0  0  0  0  0  0  0  0  0  0
   13.3383    1.5347    0.0000 C   0  0  0  0  0  0  0  0  0  0  0  0
    4.6501    1.5000    0.0000 C   0  0  0  0  0  0  0  0  0  0  0  0
   14.2443   -0.0208    0.0000 C   0  0  0  0  0  0  0  0  0  0  0  0
   14.2443    1.0208    0.0000 C   0  0  0  0  0  0  0  0  0  0  0  0
    8.9802   -3.0000    0.0000 C   0  0  0  0  0  0  0  0  0  0  0  0
    3.7841    1.0000    0.0000 C   0  0  0  0  0  0  0  0  0  0  0  0
    4.6501    2.5000    0.0000 C   0  0  0  0  0  0  0  0  0  0  0  0
    2.9180    1.5000    0.0000 C   0  0  0  0  0  0  0  0  0  0  0  0
    3.7841    3.0000    0.0000 C   0  0  0  0  0  0  0  0  0  0  0  0
    3.8001   -0.0415    0.0000 C   0  0  0  0  0  0  0  0  0  0  0  0
    2.9180    2.5000    0.0000 C   0  0  0  0  0  0  0  0  0  0  0  0
    2.0080    0.9932    0.0000 C   0  0  0  0  0  0  0  0  0  0  0  0
    2.9021   -0.5693    0.0000 C   0  0  0  0  0  0  0  0  0  0  0  0
    2.0000   -0.0484    0.0000 C   0  0  0  0  0  0  0  0  0  0  0  0
   10.1753    0.3100    0.0000 H   0  0  0  0  0  0  0  0  0  0  0  0
   10.5002    1.5826    0.0000 H   0  0  0  0  0  0  0  0  0  0  0  0
   10.1017    0.8923    0.0000 H   0  0  0  0  0  0  0  0  0  0  0  0
   11.1798   -0.9749    0.0000 H   0  0  0  0  0  0  0  0  0  0  0  0
   11.9768   -0.9749    0.0000 H   0  0  0  0  0  0  0  0  0  0  0  0
    9.3787    0.4749    0.0000 H   0  0  0  0  0  0  0  0  0  0  0  0
    8.5817    0.4749    0.0000 H   0  0  0  0  0  0  0  0  0  0  0  0
   11.9768    1.9750    0.0000 H   0  0  0  0  0  0  0  0  0  0  0  0
   11.1798    1.9750    0.0000 H   0  0  0  0  0  0  0  0  0  0  0  0
    7.7156   -0.9749    0.0000 H   0  0  0  0  0  0  0  0  0  0  0  0
    8.5127   -0.9749    0.0000 H   0  0  0  0  0  0  0  0  0  0  0  0
   10.0583   -2.0826    0.0000 H   0  0  0  0  0  0  0  0  0  0  0  0
   10.4568   -1.3923    0.0000 H   0  0  0  0  0  0  0  0  0  0  0  0
    7.8587    0.8923    0.0000 H   0  0  0  0  0  0  0  0  0  0  0  0
    7.4602    1.5826    0.0000 H   0  0  0  0  0  0  0  0  0  0  0  0
    5.9836   -0.9749    0.0000 H   0  0  0  0  0  0  0  0  0  0  0  0
    6.7807   -0.9749    0.0000 H   0  0  0  0  0  0  0  0  0  0  0  0
    6.7807    1.9750    0.0000 H   0  0  0  0  0  0  0  0  0  0  0  0
    5.9836    1.9750    0.0000 H   0  0  0  0  0  0  0  0  0  0  0  0
    4.9055    0.1077    0.0000 H   0  0  0  0  0  0  0  0  0  0  0  0
    5.3040   -0.5826    0.0000 H   0  0  0  0  0  0  0  0  0  0  0  0
    8.7682   -1.4174    0.0000 H   0  0  0  0  0  0  0  0  0  0  0  0
    8.3696   -2.1077    0.0000 H   0  0  0  0  0  0  0  0  0  0  0  0
   13.3311   -1.1546    0.0000 H   0  0  0  0  0  0  0  0  0  0  0  0
   13.3311    2.1546    0.0000 H   0  0  0  0  0  0  0  0  0  0  0  0
   14.7801    1.3329    0.0000 H   0  0  0  0  0  0  0  0  0  0  0  0
    8.3602   -3.0000    0.0000 H   0  0  0  0  0  0  0  0  0  0  0  0
    8.9802   -3.6200    0.0000 H   0  0  0  0  0  0  0  0  0  0  0  0
    9.6002   -3.0000    0.0000 H   0  0  0  0  0  0  0  0  0  0  0  0
    5.1870    2.8100    0.0000 H   0  0  0  0  0  0  0  0  0  0  0  0
    3.7841    3.6200    0.0000 H   0  0  0  0  0  0  0  0  0  0  0  0
    4.3406   -0.3453    0.0000 H   0  0  0  0  0  0  0  0  0  0  0  0
    2.3811    2.8100    0.0000 H   0  0  0  0  0  0  0  0  0  0  0  0
   15.6465   -0.2162    0.0000 H   0  0  0  0  0  0  0  0  0  0  0  0
    1.4747    1.3093    0.0000 H   0  0  0  0  0  0  0  0  0  0  0  0
    2.9045   -1.1893    0.0000 H   0  0  0  0  0  0  0  0  0  0  0  0
    1.4619   -0.3564    0.0000 H   0  0  0  0  0  0  0  0  0  0  0  0
  1 22  1  0  0  0  0
  1 67  1  0  0  0  0
  2  5  1  0  0  0  0
  2  8  1  0  0  0  0
  2 12  1  0  0  0  0
  3 10  1  0  0  0  0
  3 14  1  0  0  0  0
  3 15  1  0  0  0  0
  4 16  1  0  0  0  0
  4 17  1  0  0  0  0
  4 21  1  0  0  0  0
  5  6  1  0  0  0  0
  5  7  1  0  0  0  0
  5 34  1  0  0  0  0
  6  9  1  0  0  0  0
  6 35  1  0  0  0  0
  6 36  1  0  0  0  0
  7 11  1  0  0  0  0
  7 37  1  0  0  0  0
  7 38  1  0  0  0  0
  8 10  1  0  0  0  0
  8 39  1  0  0  0  0
  8 40  1  0  0  0  0
  9 13  1  0  0  0  0
  9 41  1  0  0  0  0
  9 42  1  0  0  0  0
 10 43  1  0  0  0  0
 10 44  1  0  0  0  0
 11 13  2  0  0  0  0
 11 19  1  0  0  0  0
 12 18  1  0  0  0  0
 12 45  1  0  0  0  0
 12 46  1  0  0  0  0
 13 20  1  0  0  0  0
 14 16  1  0  0  0  0
 14 47  1  0  0  0  0
 14 48  1  0  0  0  0
 15 17  1  0  0  0  0
 15 49  1  0  0  0  0
 15 50  1  0  0  0  0
 16 51  1  0  0  0  0
 16 52  1  0  0  0  0
 17 53  1  0  0  0  0
 17 54  1  0  0  0  0
 18 24  1  0  0  0  0
 18 55  1  0  0  0  0
 18 56  1  0  0  0  0
 19 22  2  0  0  0  0
 19 57  1  0  0  0  0
 20 23  2  0  0  0  0
 20 58  1  0  0  0  0
 21 25  1  0  0  0  0
 21 26  2  0  0  0  0
 22 23  1  0  0  0  0
 23 59  1  0  0  0  0
 24 60  1  0  0  0  0
 24 61  1  0  0  0  0
 24 62  1  0  0  0  0
 25 27  1  0  0  0  0
 25 29  2  0  0  0  0
 26 28  1  0  0  0  0
 26 63  1  0  0  0  0
 27 30  1  0  0  0  0
 27 31  2  0  0  0  0
 28 30  2  0  0  0  0
 28 64  1  0  0  0  0
 29 32  1  0  0  0  0
 29 65  1  0  0  0  0
 30 66  1  0  0  0  0
 31 33  1  0  0  0  0
 31 68  1  0  0  0  0
 32 33  2  0  0  0  0
 32 69  1  0  0  0  0
 33 70  1  0  0  0  0
M  END
> <PUBCHEM_COMPOUND_CID>
45486363

> <PUBCHEM_COMPOUND_CANONICALIZED>
1

> <PUBCHEM_CACTVS_COMPLEXITY>
591

> <PUBCHEM_CACTVS_HBOND_ACCEPTOR>
4

> <PUBCHEM_CACTVS_HBOND_DONOR>
1

> <PUBCHEM_CACTVS_ROTATABLE_BOND>
7

> <PUBCHEM_CACTVS_SUBSKEYS>
AAADcfB7IAAAAAAAAAAAAAAAAAAAAAAAAAA8YMGCAAAAAADBVAAAHgAACAAADCzBmAQyxsMAAgCAAiRCQACCAAAhIgAIiAAObIgIZiLCkZOUcAhkwBHI2AeQ0LMOoAABQAASAABQAAKAACQAAAAAAAAAAA==

> <PUBCHEM_IUPAC_OPENEYE_NAME>
3-[2-[4-(1-naphthyl)piperazin-1-yl]ethyl-propyl-amino]tetralin-6-ol

> <PUBCHEM_IUPAC_CAS_NAME>
7-[2-[4-(1-naphthalenyl)-1-piperazinyl]ethyl-propylamino]-5,6,7,8-tetrahydronaphthalen-2-ol

> <PUBCHEM_IUPAC_NAME_MARKUP>
7-[2-(4-naphthalen-1-ylpiperazin-1-yl)ethyl-propylamino]-5,6,7,8-tetrahydronaphthalen-2-ol

> <PUBCHEM_IUPAC_NAME>
7-[2-(4-naphthalen-1-ylpiperazin-1-yl)ethyl-propylamino]-5,6,7,8-tetrahydronaphthalen-2-ol

> <PUBCHEM_IUPAC_SYSTEMATIC_NAME>
7-[2-(4-naphthalen-1-ylpiperazin-1-yl)ethyl-propyl-amino]-5,6,7,8-tetrahydronaphthalen-2-ol

> <PUBCHEM_IUPAC_TRADITIONAL_NAME>
3-[2-[4-(1-naphthyl)piperazino]ethyl-propyl-amino]tetralin-6-ol

> <PUBCHEM_IUPAC_INCHI>
InChI=1S/C29H37N3O/c1-2-14-31(26-12-10-23-11-13-27(33)22-25(23)21-26)18-15-30-16-19-32(20-17-30)29-9-5-7-24-6-3-4-8-28(24)29/h3-9,11,13,22,26,33H,2,10,12,14-21H2,1H3

> <PUBCHEM_IUPAC_INCHIKEY>
JCZBIVTZYYLWOL-UHFFFAOYSA-N

> <PUBCHEM_XLOGP3_AA>
6.1

> <PUBCHEM_EXACT_MASS>
443.293662812

> <PUBCHEM_MOLECULAR_FORMULA>
C29H37N3O

> <PUBCHEM_MOLECULAR_WEIGHT>
443.6

> <PUBCHEM_OPENEYE_CAN_SMILES>
CCCN(CCN1CCN(CC1)C2=CC=CC3=CC=CC=C32)C4CCC5=C(C4)C=C(C=C5)O

> <PUBCHEM_OPENEYE_ISO_SMILES>
CCCN(CCN1CCN(CC1)C2=CC=CC3=CC=CC=C32)C4CCC5=C(C4)C=C(C=C5)O

> <PUBCHEM_CACTVS_TPSA>
30

> <PUBCHEM_MONOISOTOPIC_WEIGHT>
443.293662812

> <PUBCHEM_TOTAL_CHARGE>
0

> <PUBCHEM_HEAVY_ATOM_COUNT>
33

> <PUBCHEM_ATOM_DEF_STEREO_COUNT>
0

> <PUBCHEM_ATOM_UDEF_STEREO_COUNT>
1

> <PUBCHEM_BOND_DEF_STEREO_COUNT>
0

> <PUBCHEM_BOND_UDEF_STEREO_COUNT>
0

> <PUBCHEM_ISOTOPIC_ATOM_COUNT>
0

> <PUBCHEM_COMPONENT_COUNT>
1

> <PUBCHEM_CACTVS_TAUTO_COUNT>
-1

> <PUBCHEM_COORDINATE_TYPE>
1
5
255

> <PUBCHEM_BONDANNOTATIONS>
11  13  8
11  19  8
13  20  8
19  22  8
5  2  3
20  23  8
21  25  8
21  26  8
22  23  8
25  27  8
25  29  8
26  28  8
27  30  8
27  31  8
28  30  8
29  32  8
31  33  8
32  33  8

$$$$
