16090814
  -OEChem-09292322232D

 47 50  0     1  0  0  0  0  0999 V2000
    6.3279   -1.8623    0.0000 N   0  0  3  0  0  0  0  0  0  0  0  0
    4.9084    1.1776    0.0000 N   0  0  0  0  0  0  0  0  0  0  0  0
    4.6549   -0.4140    0.0000 C   0  0  0  0  0  0  0  0  0  0  0  0
    4.6549   -1.4140    0.0000 C   0  0  0  0  0  0  0  0  0  0  0  0
    5.3620    0.2931    0.0000 C   0  0  0  0  0  0  0  0  0  0  0  0
    5.3620   -2.1212    0.0000 C   0  0  0  0  0  0  0  0  0  0  0  0
    6.3620    0.2931    0.0000 C   0  0  0  0  0  0  0  0  0  0  0  0
    3.7703    0.0396    0.0000 C   0  0  0  0  0  0  0  0  0  0  0  0
    7.1940   -2.3623    0.0000 C   0  0  0  0  0  0  0  0  0  0  0  0
    8.0600   -1.8623    0.0000 C   0  0  0  0  0  0  0  0  0  0  0  0
    8.0940   -0.7069    0.0000 C   0  0  0  0  0  0  0  0  0  0  0  0
    7.2280    0.7931    0.0000 C   0  0  0  0  0  0  0  0  0  0  0  0
    8.0940    0.2931    0.0000 C   0  0  0  0  0  0  0  0  0  0  0  0
    3.9267    1.0213    0.0000 C   0  0  0  0  0  0  0  0  0  0  0  0
    6.4584   -0.8709    0.0000 C   0  0  0  0  0  0  0  0  0  0  0  0
    2.8091   -0.3455    0.0000 C   0  0  0  0  0  0  0  0  0  0  0  0
    7.2120    1.8346    0.0000 C   0  0  0  0  0  0  0  0  0  0  0  0
    3.1327    1.6859    0.0000 C   0  0  0  0  0  0  0  0  0  0  0  0
    9.0040    0.7999    0.0000 C   0  0  0  0  0  0  0  0  0  0  0  0
    2.0000    0.3006    0.0000 C   0  0  0  0  0  0  0  0  0  0  0  0
    2.1629    1.3232    0.0000 C   0  0  0  0  0  0  0  0  0  0  0  0
    8.1100    2.3623    0.0000 C   0  0  0  0  0  0  0  0  0  0  0  0
    9.0121    1.8415    0.0000 C   0  0  0  0  0  0  0  0  0  0  0  0
    4.0560   -1.2536    0.0000 H   0  0  0  0  0  0  0  0  0  0  0  0
    4.3449   -1.9510    0.0000 H   0  0  0  0  0  0  0  0  0  0  0  0
    4.8541   -2.4768    0.0000 H   0  0  0  0  0  0  0  0  0  0  0  0
    5.6240   -2.6831    0.0000 H   0  0  0  0  0  0  0  0  0  0  0  0
    6.1499   -0.2895    0.0000 H   0  0  0  0  0  0  0  0  0  0  0  0
    6.2015    0.8919    0.0000 H   0  0  0  0  0  0  0  0  0  0  0  0
    6.7954   -2.8373    0.0000 H   0  0  0  0  0  0  0  0  0  0  0  0
    7.5925   -2.8373    0.0000 H   0  0  0  0  0  0  0  0  0  0  0  0
    8.2663   -2.4470    0.0000 H   0  0  0  0  0  0  0  0  0  0  0  0
    8.6726   -1.7667    0.0000 H   0  0  0  0  0  0  0  0  0  0  0  0
    8.6248   -1.0274    0.0000 H   0  0  0  0  0  0  0  0  0  0  0  0
    7.4741   -0.6978    0.0000 H   0  0  0  0  0  0  0  0  0  0  0  0
    5.1889    1.7305    0.0000 H   0  0  0  0  0  0  0  0  0  0  0  0
    7.0731   -0.9518    0.0000 H   0  0  0  0  0  0  0  0  0  0  0  0
    6.5394   -0.2562    0.0000 H   0  0  0  0  0  0  0  0  0  0  0  0
    5.8438   -0.7900    0.0000 H   0  0  0  0  0  0  0  0  0  0  0  0
    2.7187   -0.9589    0.0000 H   0  0  0  0  0  0  0  0  0  0  0  0
    6.6715    2.1383    0.0000 H   0  0  0  0  0  0  0  0  0  0  0  0
    3.2373    2.2970    0.0000 H   0  0  0  0  0  0  0  0  0  0  0  0
    9.5374    0.4837    0.0000 H   0  0  0  0  0  0  0  0  0  0  0  0
    1.4218    0.0767    0.0000 H   0  0  0  0  0  0  0  0  0  0  0  0
    1.6829    1.7156    0.0000 H   0  0  0  0  0  0  0  0  0  0  0  0
    8.1076    2.9823    0.0000 H   0  0  0  0  0  0  0  0  0  0  0  0
    9.5502    2.1494    0.0000 H   0  0  0  0  0  0  0  0  0  0  0  0
  1  6  1  0  0  0  0
  1  9  1  0  0  0  0
  1 15  1  0  0  0  0
  2  5  1  0  0  0  0
  2 14  1  0  0  0  0
  2 36  1  0  0  0  0
  3  4  1  0  0  0  0
  3  5  2  0  0  0  0
  3  8  1  0  0  0  0
  4  6  1  0  0  0  0
  4 24  1  0  0  0  0
  4 25  1  0  0  0  0
  5  7  1  0  0  0  0
  6 26  1  0  0  0  0
  6 27  1  0  0  0  0
  7 12  1  0  0  0  0
  7 28  1  0  0  0  0
  7 29  1  0  0  0  0
  8 14  1  0  0  0  0
  8 16  2  0  0  0  0
  9 10  1  0  0  0  0
  9 30  1  0  0  0  0
  9 31  1  0  0  0  0
 10 11  1  0  0  0  0
 10 32  1  0  0  0  0
 10 33  1  0  0  0  0
 11 13  1  0  0  0  0
 11 34  1  0  0  0  0
 11 35  1  0  0  0  0
 12 13  1  0  0  0  0
 12 17  2  0  0  0  0
 13 19  2  0  0  0  0
 14 18  2  0  0  0  0
 15 37  1  0  0  0  0
 15 38  1  0  0  0  0
 15 39  1  0  0  0  0
 16 20  1  0  0  0  0
 16 40  1  0  0  0  0
 17 22  1  0  0  0  0
 17 41  1  0  0  0  0
 18 21  1  0  0  0  0
 18 42  1  0  0  0  0
 19 23  1  0  0  0  0
 19 43  1  0  0  0  0
 20 21  2  0  0  0  0
 20 44  1  0  0  0  0
 21 45  1  0  0  0  0
 22 23  2  0  0  0  0
 22 46  1  0  0  0  0
 23 47  1  0  0  0  0
M  END
> <PUBCHEM_COMPOUND_CID>
16090814

> <PUBCHEM_COMPOUND_CANONICALIZED>
1

> <PUBCHEM_CACTVS_COMPLEXITY>
382

> <PUBCHEM_CACTVS_HBOND_ACCEPTOR>
1

> <PUBCHEM_CACTVS_HBOND_DONOR>
1

> <PUBCHEM_CACTVS_ROTATABLE_BOND>
0

> <PUBCHEM_CACTVS_SUBSKEYS>
AAADceB7AAAAAAAAAAAAAAAAAAAAAWAAAAAwYAAAAAAAAFgB9AAAHAAQAAAADAjBHgQywPPJkACgAyRiRACCgCAhAiAImSA4ZJgIIOLAkZGEIAhgkADIyAcQgMAOgAAAAAASAAAAAAAAACQAAAAAAAAAAA==

> <PUBCHEM_IUPAC_OPENEYE_NAME>
12-methyl-12,22-diazatetracyclo[13.7.0.03,8.016,21]docosa-1(15),3,5,7,16,18,20-heptaene

> <PUBCHEM_IUPAC_CAS_NAME>
12-methyl-12,22-diazatetracyclo[13.7.0.03,8.016,21]docosa-1(15),3,5,7,16,18,20-heptaene

> <PUBCHEM_IUPAC_NAME_MARKUP>
12-methyl-12,22-diazatetracyclo[13.7.0.0<SUP>3,8</SUP>.0<SUP>16,21</SUP>]docosa-1(15),3,5,7,16,18,20-heptaene

> <PUBCHEM_IUPAC_NAME>
12-methyl-12,22-diazatetracyclo[13.7.0.03,8.016,21]docosa-1(15),3,5,7,16,18,20-heptaene

> <PUBCHEM_IUPAC_SYSTEMATIC_NAME>
12-methyl-12,22-diazatetracyclo[13.7.0.03,8.016,21]docosa-1(15),3,5,7,16,18,20-heptaene

> <PUBCHEM_IUPAC_TRADITIONAL_NAME>
12-methyl-12,22-diazatetracyclo[13.7.0.03,8.016,21]docosa-1(15),3,5,7,16,18,20-heptaene

> <PUBCHEM_IUPAC_INCHI>
InChI=1S/C21H24N2/c1-23-13-6-9-16-7-2-3-8-17(16)15-21-19(12-14-23)18-10-4-5-11-20(18)22-21/h2-5,7-8,10-11,22H,6,9,12-15H2,1H3

> <PUBCHEM_IUPAC_INCHIKEY>
SJSQVUBCTSCTIM-UHFFFAOYSA-N

> <PUBCHEM_XLOGP3_AA>
4.7

> <PUBCHEM_EXACT_MASS>
304.193948774

> <PUBCHEM_MOLECULAR_FORMULA>
C21H24N2

> <PUBCHEM_MOLECULAR_WEIGHT>
304.4

> <PUBCHEM_OPENEYE_CAN_SMILES>
CN1CCCC2=CC=CC=C2CC3=C(CC1)C4=CC=CC=C4N3

> <PUBCHEM_OPENEYE_ISO_SMILES>
CN1CCCC2=CC=CC=C2CC3=C(CC1)C4=CC=CC=C4N3

> <PUBCHEM_CACTVS_TPSA>
19

> <PUBCHEM_MONOISOTOPIC_WEIGHT>
304.193948774

> <PUBCHEM_TOTAL_CHARGE>
0

> <PUBCHEM_HEAVY_ATOM_COUNT>
23

> <PUBCHEM_ATOM_DEF_STEREO_COUNT>
0

> <PUBCHEM_ATOM_UDEF_STEREO_COUNT>
0

> <PUBCHEM_BOND_DEF_STEREO_COUNT>
0

> <PUBCHEM_BOND_UDEF_STEREO_COUNT>
0

> <PUBCHEM_ISOTOPIC_ATOM_COUNT>
0

> <PUBCHEM_COMPONENT_COUNT>
1

> <PUBCHEM_CACTVS_TAUTO_COUNT>
-1

> <PUBCHEM_COORDINATE_TYPE>
1
5
255

> <PUBCHEM_BONDANNOTATIONS>
12  13  8
12  17  8
13  19  8
14  18  8
16  20  8
17  22  8
18  21  8
19  23  8
2  14  8
2  5  8
20  21  8
22  23  8
3  5  8
3  8  8
8  14  8
8  16  8

$$$$
