71658203
  -OEChem-09292322332D

 69 73  0     1  0  0  0  0  0999 V2000
    4.5904   -5.5170    0.0000 O   0  0  0  0  0  0  0  0  0  0  0  0
    4.4118    2.8217    0.0000 O   0  0  0  0  0  0  0  0  0  0  0  0
    4.5274    7.2893    0.0000 O   0  0  0  0  0  0  0  0  0  0  0  0
    6.4138   -2.0765    0.0000 N   0  0  3  0  0  0  0  0  0  0  0  0
    6.1866   -4.3120    0.0000 N   0  0  3  0  0  0  0  0  0  0  0  0
    6.0528    2.2674    0.0000 N   0  0  0  0  0  0  0  0  0  0  0  0
    5.4214   -2.1993    0.0000 C   0  0  0  0  0  0  0  0  0  0  0  0
    7.1286   -2.7759    0.0000 C   0  0  0  0  0  0  0  0  0  0  0  0
    4.8986   -3.0517    0.0000 C   0  0  0  0  0  0  0  0  0  0  0  0
    7.0274   -3.7707    0.0000 C   0  0  0  0  0  0  0  0  0  0  0  0
    5.2391   -3.9920    0.0000 C   0  0  0  0  0  0  0  0  0  0  0  0
    6.7338   -1.1291    0.0000 C   0  0  0  0  0  0  0  0  0  0  0  0
    6.0733   -0.3782    0.0000 C   0  0  0  0  0  0  0  0  0  0  0  0
    6.3933    0.5692    0.0000 C   0  0  0  0  0  0  0  0  0  0  0  0
    6.3093   -5.3044    0.0000 C   0  0  0  0  0  0  0  0  0  0  0  0
    5.7328    1.3200    0.0000 C   0  0  0  0  0  0  0  0  0  0  0  0
    5.5112   -5.9069    0.0000 C   0  0  0  0  0  0  0  0  0  0  0  0
    7.2302   -5.6943    0.0000 C   0  0  0  0  0  0  0  0  0  0  0  0
    5.0274    4.7504    0.0000 C   0  0  0  0  0  0  0  0  0  0  0  0
    5.6340   -6.8994    0.0000 C   0  0  0  0  0  0  0  0  0  0  0  0
    5.7123    3.9657    0.0000 C   0  0  0  0  0  0  0  0  0  0  0  0
    7.3529   -6.6867    0.0000 C   0  0  0  0  0  0  0  0  0  0  0  0
    4.0274    4.7504    0.0000 C   0  0  0  0  0  0  0  0  0  0  0  0
    5.3923    3.0183    0.0000 C   0  0  0  0  0  0  0  0  0  0  0  0
    5.3364    5.7015    0.0000 C   0  0  0  0  0  0  0  0  0  0  0  0
    3.7183    5.7015    0.0000 C   0  0  0  0  0  0  0  0  0  0  0  0
    6.5548   -7.2893    0.0000 C   0  0  0  0  0  0  0  0  0  0  0  0
    4.5274    6.2893    0.0000 C   0  0  0  0  0  0  0  0  0  0  0  0
    6.7328    4.1744    0.0000 C   0  0  0  0  0  0  0  0  0  0  0  0
    6.3518    5.9337    0.0000 C   0  0  0  0  0  0  0  0  0  0  0  0
    3.3424    3.9657    0.0000 C   0  0  0  0  0  0  0  0  0  0  0  0
    7.0547    5.1650    0.0000 C   0  0  0  0  0  0  0  0  0  0  0  0
    2.7029    5.9337    0.0000 C   0  0  0  0  0  0  0  0  0  0  0  0
    2.3219    4.1744    0.0000 C   0  0  0  0  0  0  0  0  0  0  0  0
    3.7923   -6.1196    0.0000 C   0  0  0  0  0  0  0  0  0  0  0  0
    2.0000    5.1650    0.0000 C   0  0  0  0  0  0  0  0  0  0  0  0
    5.4841   -1.5824    0.0000 H   0  0  0  0  0  0  0  0  0  0  0  0
    4.8340   -2.0009    0.0000 H   0  0  0  0  0  0  0  0  0  0  0  0
    7.7160   -2.9743    0.0000 H   0  0  0  0  0  0  0  0  0  0  0  0
    7.4527   -2.2473    0.0000 H   0  0  0  0  0  0  0  0  0  0  0  0
    4.4555   -2.6181    0.0000 H   0  0  0  0  0  0  0  0  0  0  0  0
    4.3772   -3.3873    0.0000 H   0  0  0  0  0  0  0  0  0  0  0  0
    7.2386   -4.3537    0.0000 H   0  0  0  0  0  0  0  0  0  0  0  0
    7.6428   -3.6946    0.0000 H   0  0  0  0  0  0  0  0  0  0  0  0
    4.6238   -4.0681    0.0000 H   0  0  0  0  0  0  0  0  0  0  0  0
    5.1764   -4.6088    0.0000 H   0  0  0  0  0  0  0  0  0  0  0  0
    7.2778   -1.4265    0.0000 H   0  0  0  0  0  0  0  0  0  0  0  0
    7.1212   -0.6450    0.0000 H   0  0  0  0  0  0  0  0  0  0  0  0
    5.5293   -0.0809    0.0000 H   0  0  0  0  0  0  0  0  0  0  0  0
    5.6860   -0.8624    0.0000 H   0  0  0  0  0  0  0  0  0  0  0  0
    6.9374    0.2718    0.0000 H   0  0  0  0  0  0  0  0  0  0  0  0
    6.7807    1.0533    0.0000 H   0  0  0  0  0  0  0  0  0  0  0  0
    5.1888    1.6174    0.0000 H   0  0  0  0  0  0  0  0  0  0  0  0
    5.3455    0.8359    0.0000 H   0  0  0  0  0  0  0  0  0  0  0  0
    7.7250   -5.3207    0.0000 H   0  0  0  0  0  0  0  0  0  0  0  0
    6.6607    2.3893    0.0000 H   0  0  0  0  0  0  0  0  0  0  0  0
    5.1392   -7.2729    0.0000 H   0  0  0  0  0  0  0  0  0  0  0  0
    7.9239   -6.9285    0.0000 H   0  0  0  0  0  0  0  0  0  0  0  0
    6.6310   -7.9046    0.0000 H   0  0  0  0  0  0  0  0  0  0  0  0
    7.1459    3.7120    0.0000 H   0  0  0  0  0  0  0  0  0  0  0  0
    6.5365    6.5256    0.0000 H   0  0  0  0  0  0  0  0  0  0  0  0
    3.5408    3.3783    0.0000 H   0  0  0  0  0  0  0  0  0  0  0  0
    7.6607    5.2963    0.0000 H   0  0  0  0  0  0  0  0  0  0  0  0
    2.5182    6.5256    0.0000 H   0  0  0  0  0  0  0  0  0  0  0  0
    1.9088    3.7120    0.0000 H   0  0  0  0  0  0  0  0  0  0  0  0
    1.3940    5.2963    0.0000 H   0  0  0  0  0  0  0  0  0  0  0  0
    3.4187   -5.6247    0.0000 H   0  0  0  0  0  0  0  0  0  0  0  0
    3.2975   -6.4931    0.0000 H   0  0  0  0  0  0  0  0  0  0  0  0
    4.1658   -6.6144    0.0000 H   0  0  0  0  0  0  0  0  0  0  0  0
  1 17  1  0  0  0  0
  1 35  1  0  0  0  0
  2 24  2  0  0  0  0
  3 28  2  0  0  0  0
  4  7  1  0  0  0  0
  4  8  1  0  0  0  0
  4 12  1  0  0  0  0
  5 10  1  0  0  0  0
  5 11  1  0  0  0  0
  5 15  1  0  0  0  0
  6 16  1  0  0  0  0
  6 24  1  0  0  0  0
  6 56  1  0  0  0  0
  7  9  1  0  0  0  0
  7 37  1  0  0  0  0
  7 38  1  0  0  0  0
  8 10  1  0  0  0  0
  8 39  1  0  0  0  0
  8 40  1  0  0  0  0
  9 11  1  0  0  0  0
  9 41  1  0  0  0  0
  9 42  1  0  0  0  0
 10 43  1  0  0  0  0
 10 44  1  0  0  0  0
 11 45  1  0  0  0  0
 11 46  1  0  0  0  0
 12 13  1  0  0  0  0
 12 47  1  0  0  0  0
 12 48  1  0  0  0  0
 13 14  1  0  0  0  0
 13 49  1  0  0  0  0
 13 50  1  0  0  0  0
 14 16  1  0  0  0  0
 14 51  1  0  0  0  0
 14 52  1  0  0  0  0
 15 17  1  0  0  0  0
 15 18  2  0  0  0  0
 16 53  1  0  0  0  0
 16 54  1  0  0  0  0
 17 20  2  0  0  0  0
 18 22  1  0  0  0  0
 18 55  1  0  0  0  0
 19 21  1  0  0  0  0
 19 23  1  0  0  0  0
 19 25  2  0  0  0  0
 20 27  1  0  0  0  0
 20 57  1  0  0  0  0
 21 24  1  0  0  0  0
 21 29  2  0  0  0  0
 22 27  2  0  0  0  0
 22 58  1  0  0  0  0
 23 26  1  0  0  0  0
 23 31  2  0  0  0  0
 25 28  1  0  0  0  0
 25 30  1  0  0  0  0
 26 28  1  0  0  0  0
 26 33  2  0  0  0  0
 27 59  1  0  0  0  0
 29 32  1  0  0  0  0
 29 60  1  0  0  0  0
 30 32  2  0  0  0  0
 30 61  1  0  0  0  0
 31 34  1  0  0  0  0
 31 62  1  0  0  0  0
 32 63  1  0  0  0  0
 33 36  1  0  0  0  0
 33 64  1  0  0  0  0
 34 36  2  0  0  0  0
 34 65  1  0  0  0  0
 35 67  1  0  0  0  0
 35 68  1  0  0  0  0
 35 69  1  0  0  0  0
 36 66  1  0  0  0  0
M  END
> <PUBCHEM_COMPOUND_CID>
71658203

> <PUBCHEM_COMPOUND_CANONICALIZED>
1

> <PUBCHEM_CACTVS_COMPLEXITY>
745

> <PUBCHEM_CACTVS_HBOND_ACCEPTOR>
5

> <PUBCHEM_CACTVS_HBOND_DONOR>
1

> <PUBCHEM_CACTVS_ROTATABLE_BOND>
8

> <PUBCHEM_CACTVS_SUBSKEYS>
AAADcfB7MAAAAAAAAAAAAAAAAAAAAYAAAAAwYMAABYAAAGABUAAAHgAQAAAADAzBmAYyxoPABACIAqVSUACCCAAlIgAIiIEPbMgOZjLE9ZuVMShk1hHY6YeYy8CugAACAAAQEAAAAAQAACAgAQAACAAAAA==

> <PUBCHEM_IUPAC_OPENEYE_NAME>
N-[4-[4-(2-methoxyphenyl)-1,4-diazepan-1-yl]butyl]-9-oxo-fluorene-4-carboxamide

> <PUBCHEM_IUPAC_CAS_NAME>
N-[4-[4-(2-methoxyphenyl)-1,4-diazepan-1-yl]butyl]-9-oxo-4-fluorenecarboxamide

> <PUBCHEM_IUPAC_NAME_MARKUP>
<I>N</I>-[4-[4-(2-methoxyphenyl)-1,4-diazepan-1-yl]butyl]-9-oxofluorene-4-carboxamide

> <PUBCHEM_IUPAC_NAME>
N-[4-[4-(2-methoxyphenyl)-1,4-diazepan-1-yl]butyl]-9-oxofluorene-4-carboxamide

> <PUBCHEM_IUPAC_SYSTEMATIC_NAME>
N-[4-[4-(2-methoxyphenyl)-1,4-diazepan-1-yl]butyl]-9-oxidanylidene-fluorene-4-carboxamide

> <PUBCHEM_IUPAC_TRADITIONAL_NAME>
9-keto-N-[4-[4-(2-methoxyphenyl)-1,4-diazepan-1-yl]butyl]fluorene-4-carboxamide

> <PUBCHEM_IUPAC_INCHI>
InChI=1S/C30H33N3O3/c1-36-27-15-5-4-14-26(27)33-19-9-18-32(20-21-33)17-7-6-16-31-30(35)25-13-8-12-24-28(25)22-10-2-3-11-23(22)29(24)34/h2-5,8,10-15H,6-7,9,16-21H2,1H3,(H,31,35)

> <PUBCHEM_IUPAC_INCHIKEY>
MWNMVEFIIAOCJG-UHFFFAOYSA-N

> <PUBCHEM_XLOGP3_AA>
5

> <PUBCHEM_EXACT_MASS>
483.25219192

> <PUBCHEM_MOLECULAR_FORMULA>
C30H33N3O3

> <PUBCHEM_MOLECULAR_WEIGHT>
483.6

> <PUBCHEM_OPENEYE_CAN_SMILES>
COC1=CC=CC=C1N2CCCN(CC2)CCCCNC(=O)C3=CC=CC4=C3C5=CC=CC=C5C4=O

> <PUBCHEM_OPENEYE_ISO_SMILES>
COC1=CC=CC=C1N2CCCN(CC2)CCCCNC(=O)C3=CC=CC4=C3C5=CC=CC=C5C4=O

> <PUBCHEM_CACTVS_TPSA>
61.9

> <PUBCHEM_MONOISOTOPIC_WEIGHT>
483.25219192

> <PUBCHEM_TOTAL_CHARGE>
0

> <PUBCHEM_HEAVY_ATOM_COUNT>
36

> <PUBCHEM_ATOM_DEF_STEREO_COUNT>
0

> <PUBCHEM_ATOM_UDEF_STEREO_COUNT>
0

> <PUBCHEM_BOND_DEF_STEREO_COUNT>
0

> <PUBCHEM_BOND_UDEF_STEREO_COUNT>
0

> <PUBCHEM_ISOTOPIC_ATOM_COUNT>
0

> <PUBCHEM_COMPONENT_COUNT>
1

> <PUBCHEM_CACTVS_TAUTO_COUNT>
-1

> <PUBCHEM_COORDINATE_TYPE>
1
5
255

> <PUBCHEM_BONDANNOTATIONS>
15  17  8
15  18  8
17  20  8
18  22  8
19  21  8
19  25  8
20  27  8
21  29  8
22  27  8
23  26  8
23  31  8
25  30  8
26  33  8
29  32  8
30  32  8
31  34  8
33  36  8
34  36  8

$$$$
