145983763
  -OEChem-09292322392D

136141  0     1  0  0  0  0  0999 V2000
    7.1541   17.7763    0.0000 S   0  0  0  0  0  0  0  0  0  0  0  0
    7.1962  -16.8696    0.0000 O   0  0  0  0  0  0  0  0  0  0  0  0
    4.5981   -9.3696    0.0000 O   0  0  0  0  0  0  0  0  0  0  0  0
    2.8660  -10.3696    0.0000 O   0  0  0  0  0  0  0  0  0  0  0  0
    6.5990    9.2769    0.0000 O   0  0  0  0  0  0  0  0  0  0  0  0
    7.7746   10.8949    0.0000 O   0  0  0  0  0  0  0  0  0  0  0  0
    5.4641  -13.8696    0.0000 N   0  0  0  0  0  0  0  0  0  0  0  0
    7.1962  -14.8696    0.0000 N   0  0  0  0  0  0  0  0  0  0  0  0
    7.4571    3.0911    0.0000 N   0  0  3  0  0  0  0  0  0  0  0  0
    5.9641   -6.3307    0.0000 N   0  0  0  0  0  0  0  0  0  0  0  0
    8.0003    8.2588    0.0000 N   0  0  0  0  0  0  0  0  0  0  0  0
    4.9641   -6.3307    0.0000 N   0  0  0  0  0  0  0  0  0  0  0  0
    4.6551   -7.2818    0.0000 N   0  0  0  0  0  0  0  0  0  0  0  0
    6.3451   16.3750    0.0000 N   0  0  0  0  0  0  0  0  0  0  0  0
    5.4641  -14.8696    0.0000 C   0  0  0  0  0  0  0  0  0  0  0  0
    6.3301  -13.3696    0.0000 C   0  0  0  0  0  0  0  0  0  0  0  0
    6.3301  -15.3696    0.0000 C   0  0  0  0  0  0  0  0  0  0  0  0
    7.1962  -13.8696    0.0000 C   0  0  0  0  0  0  0  0  0  0  0  0
    4.5981  -13.3696    0.0000 C   0  0  0  0  0  0  0  0  0  0  0  0
    8.0622  -15.3696    0.0000 C   0  0  0  0  0  0  0  0  0  0  0  0
    7.0950   -0.3540    0.0000 C   0  0  0  0  0  0  0  0  0  0  0  0
    6.5072   -1.1630    0.0000 C   0  0  0  0  0  0  0  0  0  0  0  0
    6.6883    0.5595    0.0000 C   0  0  0  0  0  0  0  0  0  0  0  0
    4.5981  -12.3696    0.0000 C   0  0  0  0  0  0  0  0  0  0  0  0
    6.9140   -2.0766    0.0000 C   0  0  0  0  0  0  0  0  0  0  0  0
    7.2761    1.3686    0.0000 C   0  0  0  0  0  0  0  0  0  0  0  0
    6.3262   -2.8856    0.0000 C   0  0  0  0  0  0  0  0  0  0  0  0
    6.8693    2.2821    0.0000 C   0  0  0  0  0  0  0  0  0  0  0  0
    6.7329   -3.7991    0.0000 C   0  0  0  0  0  0  0  0  0  0  0  0
    8.0622  -16.3696    0.0000 C   0  0  0  0  0  0  0  0  0  0  0  0
    7.0504    4.0047    0.0000 C   0  0  0  0  0  0  0  0  0  0  0  0
    8.9282  -14.8696    0.0000 C   0  0  0  0  0  0  0  0  0  0  0  0
    7.6382    4.8137    0.0000 C   0  0  0  0  0  0  0  0  0  0  0  0
    6.1452   -4.6082    0.0000 C   0  0  0  0  0  0  0  0  0  0  0  0
    3.7320  -11.8696    0.0000 C   0  0  0  0  0  0  0  0  0  0  0  0
    5.4641  -11.8696    0.0000 C   0  0  0  0  0  0  0  0  0  0  0  0
    7.2314    5.7272    0.0000 C   0  0  0  0  0  0  0  0  0  0  0  0
    6.5519   -5.5217    0.0000 C   0  0  0  0  0  0  0  0  0  0  0  0
    8.9282  -16.8696    0.0000 C   0  0  0  0  0  0  0  0  0  0  0  0
    8.4517    2.9866    0.0000 C   0  0  0  0  0  0  0  0  0  0  0  0
    9.7942  -15.3696    0.0000 C   0  0  0  0  0  0  0  0  0  0  0  0
    7.8192    6.5362    0.0000 C   0  0  0  0  0  0  0  0  0  0  0  0
    3.7320  -10.8696    0.0000 C   0  0  0  0  0  0  0  0  0  0  0  0
    5.4641  -10.8696    0.0000 C   0  0  0  0  0  0  0  0  0  0  0  0
    4.5981  -10.3696    0.0000 C   0  0  0  0  0  0  0  0  0  0  0  0
    9.7942  -16.3696    0.0000 C   0  0  0  0  0  0  0  0  0  0  0  0
    7.4125    7.4498    0.0000 C   0  0  0  0  0  0  0  0  0  0  0  0
    6.2731   -7.2818    0.0000 C   0  0  0  0  0  0  0  0  0  0  0  0
    5.4641   -8.8696    0.0000 C   0  0  0  0  0  0  0  0  0  0  0  0
    5.4641   -7.8696    0.0000 C   0  0  0  0  0  0  0  0  0  0  0  0
    7.1962  -17.8696    0.0000 C   0  0  0  0  0  0  0  0  0  0  0  0
    2.0000  -10.8696    0.0000 C   0  0  0  0  0  0  0  0  0  0  0  0
    7.5935    9.1724    0.0000 C   0  0  0  0  0  0  0  0  0  0  0  0
    8.1813    9.9814    0.0000 C   0  0  0  0  0  0  0  0  0  0  0  0
    8.3624   11.7039    0.0000 C   0  0  0  0  0  0  0  0  0  0  0  0
    7.9556   12.6175    0.0000 C   0  0  0  0  0  0  0  0  0  0  0  0
    9.3569   11.5994    0.0000 C   0  0  0  0  0  0  0  0  0  0  0  0
    8.5434   13.4265    0.0000 C   0  0  0  0  0  0  0  0  0  0  0  0
    9.9447   12.4084    0.0000 C   0  0  0  0  0  0  0  0  0  0  0  0
    9.5379   13.3220    0.0000 C   0  0  0  0  0  0  0  0  0  0  0  0
    8.1367   14.3400    0.0000 C   0  0  0  0  0  0  0  0  0  0  0  0
    7.7300   15.2536    0.0000 C   0  0  0  0  0  0  0  0  0  0  0  0
    7.3232   16.1671    0.0000 C   0  0  0  0  0  0  0  0  0  0  0  0
    7.8232   17.0331    0.0000 C   0  0  0  0  0  0  0  0  0  0  0  0
    6.2405   17.3696    0.0000 C   0  0  0  0  0  0  0  0  0  0  0  0
    5.3745   17.8696    0.0000 C   0  0  0  0  0  0  0  0  0  0  0  0
    4.8535  -14.7619    0.0000 H   0  0  0  0  0  0  0  0  0  0  0  0
    5.2520  -15.4522    0.0000 H   0  0  0  0  0  0  0  0  0  0  0  0
    6.7287  -12.8946    0.0000 H   0  0  0  0  0  0  0  0  0  0  0  0
    5.9316  -12.8946    0.0000 H   0  0  0  0  0  0  0  0  0  0  0  0
    5.9316  -15.8445    0.0000 H   0  0  0  0  0  0  0  0  0  0  0  0
    6.7287  -15.8445    0.0000 H   0  0  0  0  0  0  0  0  0  0  0  0
    7.8067  -13.9772    0.0000 H   0  0  0  0  0  0  0  0  0  0  0  0
    7.4082  -13.2869    0.0000 H   0  0  0  0  0  0  0  0  0  0  0  0
    3.9875  -13.2619    0.0000 H   0  0  0  0  0  0  0  0  0  0  0  0
    4.3860  -13.9522    0.0000 H   0  0  0  0  0  0  0  0  0  0  0  0
    7.5257   -0.8000    0.0000 H   0  0  0  0  0  0  0  0  0  0  0  0
    7.6090   -0.0073    0.0000 H   0  0  0  0  0  0  0  0  0  0  0  0
    6.0766   -0.7170    0.0000 H   0  0  0  0  0  0  0  0  0  0  0  0
    5.9932   -1.5097    0.0000 H   0  0  0  0  0  0  0  0  0  0  0  0
    6.2576    1.0055    0.0000 H   0  0  0  0  0  0  0  0  0  0  0  0
    6.1743    0.2128    0.0000 H   0  0  0  0  0  0  0  0  0  0  0  0
    7.3447   -2.5226    0.0000 H   0  0  0  0  0  0  0  0  0  0  0  0
    7.4280   -1.7299    0.0000 H   0  0  0  0  0  0  0  0  0  0  0  0
    7.7068    0.9226    0.0000 H   0  0  0  0  0  0  0  0  0  0  0  0
    7.7901    1.7152    0.0000 H   0  0  0  0  0  0  0  0  0  0  0  0
    5.8955   -2.4396    0.0000 H   0  0  0  0  0  0  0  0  0  0  0  0
    5.8122   -3.2323    0.0000 H   0  0  0  0  0  0  0  0  0  0  0  0
    6.4387    2.7281    0.0000 H   0  0  0  0  0  0  0  0  0  0  0  0
    6.3553    1.9354    0.0000 H   0  0  0  0  0  0  0  0  0  0  0  0
    7.1636   -4.2451    0.0000 H   0  0  0  0  0  0  0  0  0  0  0  0
    7.2469   -3.4524    0.0000 H   0  0  0  0  0  0  0  0  0  0  0  0
    6.6197    4.4507    0.0000 H   0  0  0  0  0  0  0  0  0  0  0  0
    6.5364    3.6580    0.0000 H   0  0  0  0  0  0  0  0  0  0  0  0
    8.9282  -14.2496    0.0000 H   0  0  0  0  0  0  0  0  0  0  0  0
    8.0689    4.3677    0.0000 H   0  0  0  0  0  0  0  0  0  0  0  0
    8.1522    5.1604    0.0000 H   0  0  0  0  0  0  0  0  0  0  0  0
    5.7145   -4.1622    0.0000 H   0  0  0  0  0  0  0  0  0  0  0  0
    5.6312   -4.9549    0.0000 H   0  0  0  0  0  0  0  0  0  0  0  0
    3.1951  -12.1796    0.0000 H   0  0  0  0  0  0  0  0  0  0  0  0
    6.0010  -12.1796    0.0000 H   0  0  0  0  0  0  0  0  0  0  0  0
    6.8008    6.1732    0.0000 H   0  0  0  0  0  0  0  0  0  0  0  0
    6.7174    5.3805    0.0000 H   0  0  0  0  0  0  0  0  0  0  0  0
    6.9826   -5.9677    0.0000 H   0  0  0  0  0  0  0  0  0  0  0  0
    7.0659   -5.1750    0.0000 H   0  0  0  0  0  0  0  0  0  0  0  0
    8.9282  -17.4896    0.0000 H   0  0  0  0  0  0  0  0  0  0  0  0
    8.3868    2.3700    0.0000 H   0  0  0  0  0  0  0  0  0  0  0  0
    9.0683    2.9218    0.0000 H   0  0  0  0  0  0  0  0  0  0  0  0
    8.5165    3.6032    0.0000 H   0  0  0  0  0  0  0  0  0  0  0  0
   10.3312  -15.0596    0.0000 H   0  0  0  0  0  0  0  0  0  0  0  0
    8.2499    6.0902    0.0000 H   0  0  0  0  0  0  0  0  0  0  0  0
    8.3332    6.8829    0.0000 H   0  0  0  0  0  0  0  0  0  0  0  0
    6.0010  -10.5596    0.0000 H   0  0  0  0  0  0  0  0  0  0  0  0
   10.3312  -16.6796    0.0000 H   0  0  0  0  0  0  0  0  0  0  0  0
    6.9818    7.8958    0.0000 H   0  0  0  0  0  0  0  0  0  0  0  0
    6.8985    7.1031    0.0000 H   0  0  0  0  0  0  0  0  0  0  0  0
    6.8628   -7.4734    0.0000 H   0  0  0  0  0  0  0  0  0  0  0  0
    5.6762   -9.4522    0.0000 H   0  0  0  0  0  0  0  0  0  0  0  0
    6.0747   -8.7619    0.0000 H   0  0  0  0  0  0  0  0  0  0  0  0
    6.5762  -17.8696    0.0000 H   0  0  0  0  0  0  0  0  0  0  0  0
    7.1962  -18.4896    0.0000 H   0  0  0  0  0  0  0  0  0  0  0  0
    7.8162  -17.8696    0.0000 H   0  0  0  0  0  0  0  0  0  0  0  0
    8.6169    8.1940    0.0000 H   0  0  0  0  0  0  0  0  0  0  0  0
    1.6900  -10.3326    0.0000 H   0  0  0  0  0  0  0  0  0  0  0  0
    1.4631  -11.1796    0.0000 H   0  0  0  0  0  0  0  0  0  0  0  0
    2.3100  -11.4065    0.0000 H   0  0  0  0  0  0  0  0  0  0  0  0
    8.6120    9.5354    0.0000 H   0  0  0  0  0  0  0  0  0  0  0  0
    8.6953   10.3281    0.0000 H   0  0  0  0  0  0  0  0  0  0  0  0
    7.3390   12.6823    0.0000 H   0  0  0  0  0  0  0  0  0  0  0  0
    9.6091   11.0330    0.0000 H   0  0  0  0  0  0  0  0  0  0  0  0
   10.5613   12.3436    0.0000 H   0  0  0  0  0  0  0  0  0  0  0  0
    9.9024   13.8236    0.0000 H   0  0  0  0  0  0  0  0  0  0  0  0
    8.4398   17.0980    0.0000 H   0  0  0  0  0  0  0  0  0  0  0  0
    5.6845   18.4065    0.0000 H   0  0  0  0  0  0  0  0  0  0  0  0
    4.8376   18.1796    0.0000 H   0  0  0  0  0  0  0  0  0  0  0  0
    5.0645   17.3326    0.0000 H   0  0  0  0  0  0  0  0  0  0  0  0
  1 64  1  0  0  0  0
  1 65  1  0  0  0  0
  2 30  1  0  0  0  0
  2 51  1  0  0  0  0
  3 45  1  0  0  0  0
  3 49  1  0  0  0  0
  4 43  1  0  0  0  0
  4 52  1  0  0  0  0
  5 53  2  0  0  0  0
  6 54  1  0  0  0  0
  6 55  1  0  0  0  0
  7 15  1  0  0  0  0
  7 16  1  0  0  0  0
  7 19  1  0  0  0  0
  8 17  1  0  0  0  0
  8 18  1  0  0  0  0
  8 20  1  0  0  0  0
  9 28  1  0  0  0  0
  9 31  1  0  0  0  0
  9 40  1  0  0  0  0
 10 12  1  0  0  0  0
 10 38  1  0  0  0  0
 10 48  1  0  0  0  0
 11 47  1  0  0  0  0
 11 53  1  0  0  0  0
 11123  1  0  0  0  0
 12 13  2  0  0  0  0
 13 50  1  0  0  0  0
 14 63  1  0  0  0  0
 14 65  2  0  0  0  0
 15 17  1  0  0  0  0
 15 67  1  0  0  0  0
 15 68  1  0  0  0  0
 16 18  1  0  0  0  0
 16 69  1  0  0  0  0
 16 70  1  0  0  0  0
 17 71  1  0  0  0  0
 17 72  1  0  0  0  0
 18 73  1  0  0  0  0
 18 74  1  0  0  0  0
 19 24  1  0  0  0  0
 19 75  1  0  0  0  0
 19 76  1  0  0  0  0
 20 30  1  0  0  0  0
 20 32  2  0  0  0  0
 21 22  1  0  0  0  0
 21 23  1  0  0  0  0
 21 77  1  0  0  0  0
 21 78  1  0  0  0  0
 22 25  1  0  0  0  0
 22 79  1  0  0  0  0
 22 80  1  0  0  0  0
 23 26  1  0  0  0  0
 23 81  1  0  0  0  0
 23 82  1  0  0  0  0
 24 35  2  0  0  0  0
 24 36  1  0  0  0  0
 25 27  1  0  0  0  0
 25 83  1  0  0  0  0
 25 84  1  0  0  0  0
 26 28  1  0  0  0  0
 26 85  1  0  0  0  0
 26 86  1  0  0  0  0
 27 29  1  0  0  0  0
 27 87  1  0  0  0  0
 27 88  1  0  0  0  0
 28 89  1  0  0  0  0
 28 90  1  0  0  0  0
 29 34  1  0  0  0  0
 29 91  1  0  0  0  0
 29 92  1  0  0  0  0
 30 39  2  0  0  0  0
 31 33  1  0  0  0  0
 31 93  1  0  0  0  0
 31 94  1  0  0  0  0
 32 41  1  0  0  0  0
 32 95  1  0  0  0  0
 33 37  1  0  0  0  0
 33 96  1  0  0  0  0
 33 97  1  0  0  0  0
 34 38  1  0  0  0  0
 34 98  1  0  0  0  0
 34 99  1  0  0  0  0
 35 43  1  0  0  0  0
 35100  1  0  0  0  0
 36 44  2  0  0  0  0
 36101  1  0  0  0  0
 37 42  1  0  0  0  0
 37102  1  0  0  0  0
 37103  1  0  0  0  0
 38104  1  0  0  0  0
 38105  1  0  0  0  0
 39 46  1  0  0  0  0
 39106  1  0  0  0  0
 40107  1  0  0  0  0
 40108  1  0  0  0  0
 40109  1  0  0  0  0
 41 46  2  0  0  0  0
 41110  1  0  0  0  0
 42 47  1  0  0  0  0
 42111  1  0  0  0  0
 42112  1  0  0  0  0
 43 45  2  0  0  0  0
 44 45  1  0  0  0  0
 44113  1  0  0  0  0
 46114  1  0  0  0  0
 47115  1  0  0  0  0
 47116  1  0  0  0  0
 48 50  2  0  0  0  0
 48117  1  0  0  0  0
 49 50  1  0  0  0  0
 49118  1  0  0  0  0
 49119  1  0  0  0  0
 51120  1  0  0  0  0
 51121  1  0  0  0  0
 51122  1  0  0  0  0
 52124  1  0  0  0  0
 52125  1  0  0  0  0
 52126  1  0  0  0  0
 53 54  1  0  0  0  0
 54127  1  0  0  0  0
 54128  1  0  0  0  0
 55 56  1  0  0  0  0
 55 57  2  0  0  0  0
 56 58  2  0  0  0  0
 56129  1  0  0  0  0
 57 59  1  0  0  0  0
 57130  1  0  0  0  0
 58 60  1  0  0  0  0
 58 61  1  0  0  0  0
 59 60  2  0  0  0  0
 59131  1  0  0  0  0
 60132  1  0  0  0  0
 61 62  3  0  0  0  0
 62 63  1  0  0  0  0
 63 64  2  0  0  0  0
 64133  1  0  0  0  0
 65 66  1  0  0  0  0
 66134  1  0  0  0  0
 66135  1  0  0  0  0
 66136  1  0  0  0  0
M  END
> <PUBCHEM_COMPOUND_CID>
145983763

> <PUBCHEM_COMPOUND_CANONICALIZED>
1

> <PUBCHEM_CACTVS_COMPLEXITY>
1400

> <PUBCHEM_CACTVS_HBOND_ACCEPTOR>
12

> <PUBCHEM_CACTVS_HBOND_DONOR>
1

> <PUBCHEM_CACTVS_ROTATABLE_BOND>
30

> <PUBCHEM_CACTVS_SUBSKEYS>
AAADcfB/+ABAAAAAAAAAAAAAAAAAAWLAAAA8YMEAAAAAAAAB9AAAHgQYAAAADAzl3ga+x5PIFAjuEzV3VA6C/KRxujgY2JR//IgPZiLksZ+XOCrm1hH66Aew0JIOIAABAAAAUABAAAIAAACgAAAAAAAAAA==

> <PUBCHEM_IUPAC_OPENEYE_NAME>
N-[5-[10-[4-[[2-methoxy-4-[[4-(2-methoxyphenyl)piperazin-1-yl]methyl]phenoxy]methyl]triazol-1-yl]decyl-methyl-amino]pentyl]-2-[3-[2-(2-methylthiazol-4-yl)ethynyl]phenoxy]acetamide

> <PUBCHEM_IUPAC_CAS_NAME>
N-[5-[10-[4-[[2-methoxy-4-[[4-(2-methoxyphenyl)-1-piperazinyl]methyl]phenoxy]methyl]-1-triazolyl]decyl-methylamino]pentyl]-2-[3-[2-(2-methyl-4-thiazolyl)ethynyl]phenoxy]acetamide

> <PUBCHEM_IUPAC_NAME_MARKUP>
<I>N</I>-[5-[10-[4-[[2-methoxy-4-[[4-(2-methoxyphenyl)piperazin-1-yl]methyl]phenoxy]methyl]triazol-1-yl]decyl-methylamino]pentyl]-2-[3-[2-(2-methyl-1,3-thiazol-4-yl)ethynyl]phenoxy]acetamide

> <PUBCHEM_IUPAC_NAME>
N-[5-[10-[4-[[2-methoxy-4-[[4-(2-methoxyphenyl)piperazin-1-yl]methyl]phenoxy]methyl]triazol-1-yl]decyl-methylamino]pentyl]-2-[3-[2-(2-methyl-1,3-thiazol-4-yl)ethynyl]phenoxy]acetamide

> <PUBCHEM_IUPAC_SYSTEMATIC_NAME>
N-[5-[10-[4-[[2-methoxy-4-[[4-(2-methoxyphenyl)piperazin-1-yl]methyl]phenoxy]methyl]-1,2,3-triazol-1-yl]decyl-methyl-amino]pentyl]-2-[3-[2-(2-methyl-1,3-thiazol-4-yl)ethynyl]phenoxy]ethanamide

> <PUBCHEM_IUPAC_TRADITIONAL_NAME>
N-[5-[10-[4-[[2-methoxy-4-[[4-(2-methoxyphenyl)piperazino]methyl]phenoxy]methyl]triazol-1-yl]decyl-methyl-amino]pentyl]-2-[3-[2-(2-methylthiazol-4-yl)ethynyl]phenoxy]acetamide

> <PUBCHEM_IUPAC_INCHI>
InChI=1S/C52H70N8O5S/c1-42-54-45(41-66-42)25-23-43-19-18-20-47(35-43)64-40-52(61)53-27-14-11-16-29-57(2)28-15-9-7-5-6-8-10-17-30-60-38-46(55-56-60)39-65-50-26-24-44(36-51(50)63-4)37-58-31-33-59(34-32-58)48-21-12-13-22-49(48)62-3/h12-13,18-22,24,26,35-36,38,41H,5-11,14-17,27-34,37,39-40H2,1-4H3,(H,53,61)

> <PUBCHEM_IUPAC_INCHIKEY>
XYQZBAPGVRTOEI-UHFFFAOYSA-N

> <PUBCHEM_XLOGP3_AA>
9.7

> <PUBCHEM_EXACT_MASS>
918.51898854

> <PUBCHEM_MOLECULAR_FORMULA>
C52H70N8O5S

> <PUBCHEM_MOLECULAR_WEIGHT>
919.2

> <PUBCHEM_OPENEYE_CAN_SMILES>
CC1=NC(=CS1)C#CC2=CC(=CC=C2)OCC(=O)NCCCCCN(C)CCCCCCCCCCN3C=C(N=N3)COC4=C(C=C(C=C4)CN5CCN(CC5)C6=CC=CC=C6OC)OC

> <PUBCHEM_OPENEYE_ISO_SMILES>
CC1=NC(=CS1)C#CC2=CC(=CC=C2)OCC(=O)NCCCCCN(C)CCCCCCCCCCN3C=C(N=N3)COC4=C(C=C(C=C4)CN5CCN(CC5)C6=CC=CC=C6OC)OC

> <PUBCHEM_CACTVS_TPSA>
148

> <PUBCHEM_MONOISOTOPIC_WEIGHT>
918.51898854

> <PUBCHEM_TOTAL_CHARGE>
0

> <PUBCHEM_HEAVY_ATOM_COUNT>
66

> <PUBCHEM_ATOM_DEF_STEREO_COUNT>
0

> <PUBCHEM_ATOM_UDEF_STEREO_COUNT>
0

> <PUBCHEM_BOND_DEF_STEREO_COUNT>
0

> <PUBCHEM_BOND_UDEF_STEREO_COUNT>
0

> <PUBCHEM_ISOTOPIC_ATOM_COUNT>
0

> <PUBCHEM_COMPONENT_COUNT>
1

> <PUBCHEM_CACTVS_TAUTO_COUNT>
-1

> <PUBCHEM_COORDINATE_TYPE>
1
5
255

> <PUBCHEM_BONDANNOTATIONS>
1  64  8
1  65  8
10  12  8
10  48  8
12  13  8
13  50  8
14  63  8
14  65  8
20  30  8
20  32  8
24  35  8
24  36  8
30  39  8
32  41  8
35  43  8
36  44  8
39  46  8
41  46  8
43  45  8
44  45  8
48  50  8
55  56  8
55  57  8
56  58  8
57  59  8
58  60  8
59  60  8
63  64  8

$$$$
