71724944
  -OEChem-09292322012D

 48 51  0     0  0  0  0  0  0999 V2000
    2.0000   -2.9010    0.0000 Cl  0  0  0  0  0  0  0  0  0  0  0  0
   10.6279    2.4291    0.0000 O   0  0  0  0  0  0  0  0  0  0  0  0
    7.6279   -2.7671    0.0000 O   0  0  0  0  0  0  0  0  0  0  0  0
    8.6279    0.6970    0.0000 N   0  0  0  0  0  0  0  0  0  0  0  0
    7.6279   -1.0350    0.0000 N   0  0  0  0  0  0  0  0  0  0  0  0
    5.5443   -2.7058    0.0000 N   0  0  0  0  0  0  0  0  0  0  0  0
   13.1279    1.5630    0.0000 N   0  0  0  0  0  0  0  0  0  0  0  0
    7.6279    0.6970    0.0000 C   0  0  0  0  0  0  0  0  0  0  0  0
    9.1279   -0.1690    0.0000 C   0  0  0  0  0  0  0  0  0  0  0  0
    7.1279   -0.1690    0.0000 C   0  0  0  0  0  0  0  0  0  0  0  0
    8.6279   -1.0350    0.0000 C   0  0  0  0  0  0  0  0  0  0  0  0
    9.1279    1.5630    0.0000 C   0  0  0  0  0  0  0  0  0  0  0  0
    7.1279   -1.9010    0.0000 C   0  0  0  0  0  0  0  0  0  0  0  0
   10.1279    1.5630    0.0000 C   0  0  0  0  0  0  0  0  0  0  0  0
    6.1279   -1.9010    0.0000 C   0  0  0  0  0  0  0  0  0  0  0  0
    5.5443   -1.0963    0.0000 C   0  0  0  0  0  0  0  0  0  0  0  0
    4.5981   -2.4010    0.0000 C   0  0  0  0  0  0  0  0  0  0  0  0
    4.5981   -1.4010    0.0000 C   0  0  0  0  0  0  0  0  0  0  0  0
    3.7320   -2.9010    0.0000 C   0  0  0  0  0  0  0  0  0  0  0  0
    3.7320   -0.9010    0.0000 C   0  0  0  0  0  0  0  0  0  0  0  0
   11.6279    2.4291    0.0000 C   0  0  0  0  0  0  0  0  0  0  0  0
    2.8660   -2.4010    0.0000 C   0  0  0  0  0  0  0  0  0  0  0  0
    2.8660   -1.4010    0.0000 C   0  0  0  0  0  0  0  0  0  0  0  0
   12.1279    3.2951    0.0000 C   0  0  0  0  0  0  0  0  0  0  0  0
   12.1279    1.5630    0.0000 C   0  0  0  0  0  0  0  0  0  0  0  0
   13.1279    3.2951    0.0000 C   0  0  0  0  0  0  0  0  0  0  0  0
   13.6279    2.4291    0.0000 C   0  0  0  0  0  0  0  0  0  0  0  0
    7.7356    1.3076    0.0000 H   0  0  0  0  0  0  0  0  0  0  0  0
    7.0453    0.9091    0.0000 H   0  0  0  0  0  0  0  0  0  0  0  0
    9.6028   -0.5675    0.0000 H   0  0  0  0  0  0  0  0  0  0  0  0
    9.6028    0.2295    0.0000 H   0  0  0  0  0  0  0  0  0  0  0  0
    6.6530    0.2295    0.0000 H   0  0  0  0  0  0  0  0  0  0  0  0
    6.6530   -0.5675    0.0000 H   0  0  0  0  0  0  0  0  0  0  0  0
    8.5202   -1.6456    0.0000 H   0  0  0  0  0  0  0  0  0  0  0  0
    9.2105   -1.2471    0.0000 H   0  0  0  0  0  0  0  0  0  0  0  0
    9.2356    2.1736    0.0000 H   0  0  0  0  0  0  0  0  0  0  0  0
    8.5453    1.7751    0.0000 H   0  0  0  0  0  0  0  0  0  0  0  0
   10.0202    0.9525    0.0000 H   0  0  0  0  0  0  0  0  0  0  0  0
   10.7105    1.3510    0.0000 H   0  0  0  0  0  0  0  0  0  0  0  0
    5.7369   -3.2951    0.0000 H   0  0  0  0  0  0  0  0  0  0  0  0
    5.7369   -0.5070    0.0000 H   0  0  0  0  0  0  0  0  0  0  0  0
    3.7320   -3.5210    0.0000 H   0  0  0  0  0  0  0  0  0  0  0  0
    3.7320   -0.2810    0.0000 H   0  0  0  0  0  0  0  0  0  0  0  0
    2.3291   -1.0910    0.0000 H   0  0  0  0  0  0  0  0  0  0  0  0
   11.8179    3.8320    0.0000 H   0  0  0  0  0  0  0  0  0  0  0  0
   11.8179    1.0261    0.0000 H   0  0  0  0  0  0  0  0  0  0  0  0
   13.4379    3.8320    0.0000 H   0  0  0  0  0  0  0  0  0  0  0  0
   14.2479    2.4291    0.0000 H   0  0  0  0  0  0  0  0  0  0  0  0
  1 22  1  0  0  0  0
  2 14  1  0  0  0  0
  2 21  1  0  0  0  0
  3 13  2  0  0  0  0
  4  8  1  0  0  0  0
  4  9  1  0  0  0  0
  4 12  1  0  0  0  0
  5 10  1  0  0  0  0
  5 11  1  0  0  0  0
  5 13  1  0  0  0  0
  6 15  1  0  0  0  0
  6 17  1  0  0  0  0
  6 40  1  0  0  0  0
  7 25  1  0  0  0  0
  7 27  2  0  0  0  0
  8 10  1  0  0  0  0
  8 28  1  0  0  0  0
  8 29  1  0  0  0  0
  9 11  1  0  0  0  0
  9 30  1  0  0  0  0
  9 31  1  0  0  0  0
 10 32  1  0  0  0  0
 10 33  1  0  0  0  0
 11 34  1  0  0  0  0
 11 35  1  0  0  0  0
 12 14  1  0  0  0  0
 12 36  1  0  0  0  0
 12 37  1  0  0  0  0
 13 15  1  0  0  0  0
 14 38  1  0  0  0  0
 14 39  1  0  0  0  0
 15 16  2  0  0  0  0
 16 18  1  0  0  0  0
 16 41  1  0  0  0  0
 17 18  2  0  0  0  0
 17 19  1  0  0  0  0
 18 20  1  0  0  0  0
 19 22  2  0  0  0  0
 19 42  1  0  0  0  0
 20 23  2  0  0  0  0
 20 43  1  0  0  0  0
 21 24  1  0  0  0  0
 21 25  2  0  0  0  0
 22 23  1  0  0  0  0
 23 44  1  0  0  0  0
 24 26  2  0  0  0  0
 24 45  1  0  0  0  0
 25 46  1  0  0  0  0
 26 27  1  0  0  0  0
 26 47  1  0  0  0  0
 27 48  1  0  0  0  0
M  END
> <PUBCHEM_COMPOUND_CID>
71724944

> <PUBCHEM_COMPOUND_CANONICALIZED>
1

> <PUBCHEM_CACTVS_COMPLEXITY>
500

> <PUBCHEM_CACTVS_HBOND_ACCEPTOR>
4

> <PUBCHEM_CACTVS_HBOND_DONOR>
1

> <PUBCHEM_CACTVS_ROTATABLE_BOND>
5

> <PUBCHEM_CACTVS_SUBSKEYS>
AAADceB7sAAEAAAAAAAAAAAAAAAAAWAAAAA8WIAAAAAAAFgB/AAAHgIQAAAADA7hniY8xvPJlACoAzV3VASCiCA3ZyAI2SG/btgOZvLFt7uXOSjk1hHY6Yc4iYCeBAAAAAICAAAIAAAABAQAAAAAAAAAAA==

> <PUBCHEM_IUPAC_OPENEYE_NAME>
(6-chloro-1H-indol-2-yl)-[4-[2-(3-pyridyloxy)ethyl]piperazin-1-yl]methanone

> <PUBCHEM_IUPAC_CAS_NAME>
(6-chloro-1H-indol-2-yl)-[4-[2-(3-pyridinyloxy)ethyl]-1-piperazinyl]methanone

> <PUBCHEM_IUPAC_NAME_MARKUP>
(6-chloro-1<I>H</I>-indol-2-yl)-[4-(2-pyridin-3-yloxyethyl)piperazin-1-yl]methanone

> <PUBCHEM_IUPAC_NAME>
(6-chloro-1H-indol-2-yl)-[4-(2-pyridin-3-yloxyethyl)piperazin-1-yl]methanone

> <PUBCHEM_IUPAC_SYSTEMATIC_NAME>
(6-chloranyl-1H-indol-2-yl)-[4-(2-pyridin-3-yloxyethyl)piperazin-1-yl]methanone

> <PUBCHEM_IUPAC_TRADITIONAL_NAME>
(6-chloro-1H-indol-2-yl)-[4-[2-(3-pyridyloxy)ethyl]piperazino]methanone

> <PUBCHEM_IUPAC_INCHI>
InChI=1S/C20H21ClN4O2/c21-16-4-3-15-12-19(23-18(15)13-16)20(26)25-8-6-24(7-9-25)10-11-27-17-2-1-5-22-14-17/h1-5,12-14,23H,6-11H2

> <PUBCHEM_IUPAC_INCHIKEY>
BQOOCNJGXJVXRO-UHFFFAOYSA-N

> <PUBCHEM_XLOGP3_AA>
2.9

> <PUBCHEM_EXACT_MASS>
384.1353036

> <PUBCHEM_MOLECULAR_FORMULA>
C20H21ClN4O2

> <PUBCHEM_MOLECULAR_WEIGHT>
384.9

> <PUBCHEM_OPENEYE_CAN_SMILES>
C1CN(CCN1CCOC2=CN=CC=C2)C(=O)C3=CC4=C(N3)C=C(C=C4)Cl

> <PUBCHEM_OPENEYE_ISO_SMILES>
C1CN(CCN1CCOC2=CN=CC=C2)C(=O)C3=CC4=C(N3)C=C(C=C4)Cl

> <PUBCHEM_CACTVS_TPSA>
61.5

> <PUBCHEM_MONOISOTOPIC_WEIGHT>
384.1353036

> <PUBCHEM_TOTAL_CHARGE>
0

> <PUBCHEM_HEAVY_ATOM_COUNT>
27

> <PUBCHEM_ATOM_DEF_STEREO_COUNT>
0

> <PUBCHEM_ATOM_UDEF_STEREO_COUNT>
0

> <PUBCHEM_BOND_DEF_STEREO_COUNT>
0

> <PUBCHEM_BOND_UDEF_STEREO_COUNT>
0

> <PUBCHEM_ISOTOPIC_ATOM_COUNT>
0

> <PUBCHEM_COMPONENT_COUNT>
1

> <PUBCHEM_CACTVS_TAUTO_COUNT>
-1

> <PUBCHEM_COORDINATE_TYPE>
1
5
255

> <PUBCHEM_BONDANNOTATIONS>
15  16  8
16  18  8
17  18  8
17  19  8
18  20  8
19  22  8
20  23  8
21  24  8
21  25  8
22  23  8
24  26  8
26  27  8
6  15  8
6  17  8
7  25  8
7  27  8

$$$$
