162671032
  -OEChem-09292322422D

 54 55  0     0  0  0  0  0  0999 V2000
    8.8806   12.6200    0.0000 F   0  0  0  0  0  0  0  0  0  0  0  0
    9.7466    8.1200    0.0000 O   0  0  0  0  0  0  0  0  0  0  0  0
    3.1350    6.0600    0.0000 O   0  0  0  0  0  0  0  0  0  0  0  0
    0.5369    6.5600    0.0000 O   0  0  0  0  0  0  0  0  0  0  0  0
    2.2690    7.5600    0.0000 O   0  0  0  0  0  0  0  0  0  0  0  0
    1.4030    5.0600    0.0000 O   0  0  0  0  0  0  0  0  0  0  0  0
    7.1486    5.6200    0.0000 N   0  0  0  0  0  0  0  0  0  0  0  0
    7.1486    3.6200    0.0000 N   0  0  0  0  0  0  0  0  0  0  0  0
    8.0146    1.1200    0.0000 N   0  0  0  0  0  0  0  0  0  0  0  0
    8.0146    5.1200    0.0000 C   0  0  0  0  0  0  0  0  0  0  0  0
    6.2825    5.1200    0.0000 C   0  0  0  0  0  0  0  0  0  0  0  0
    8.0146    4.1200    0.0000 C   0  0  0  0  0  0  0  0  0  0  0  0
    6.2825    4.1200    0.0000 C   0  0  0  0  0  0  0  0  0  0  0  0
    7.1486    6.6200    0.0000 C   0  0  0  0  0  0  0  0  0  0  0  0
    8.0146    7.1200    0.0000 C   0  0  0  0  0  0  0  0  0  0  0  0
    7.1486    2.6200    0.0000 C   0  0  0  0  0  0  0  0  0  0  0  0
    8.0146    8.1200    0.0000 C   0  0  0  0  0  0  0  0  0  0  0  0
    6.2825    2.1200    0.0000 C   0  0  0  0  0  0  0  0  0  0  0  0
    8.0146    2.1200    0.0000 C   0  0  0  0  0  0  0  0  0  0  0  0
    8.8806    8.6200    0.0000 C   0  0  0  0  0  0  0  0  0  0  0  0
    6.2825    1.1200    0.0000 C   0  0  0  0  0  0  0  0  0  0  0  0
    8.8806    9.6200    0.0000 C   0  0  0  0  0  0  0  0  0  0  0  0
    7.1486    0.6200    0.0000 C   0  0  0  0  0  0  0  0  0  0  0  0
    9.7466   10.1200    0.0000 C   0  0  0  0  0  0  0  0  0  0  0  0
    8.0146   10.1200    0.0000 C   0  0  0  0  0  0  0  0  0  0  0  0
    9.7466   11.1200    0.0000 C   0  0  0  0  0  0  0  0  0  0  0  0
    8.0146   11.1200    0.0000 C   0  0  0  0  0  0  0  0  0  0  0  0
    8.8806   11.6200    0.0000 C   0  0  0  0  0  0  0  0  0  0  0  0
    2.2690    6.5600    0.0000 C   0  0  0  0  0  0  0  0  0  0  0  0
    1.4030    6.0600    0.0000 C   0  0  0  0  0  0  0  0  0  0  0  0
    8.6252    5.0123    0.0000 H   0  0  0  0  0  0  0  0  0  0  0  0
    8.2266    5.7026    0.0000 H   0  0  0  0  0  0  0  0  0  0  0  0
    6.0705    5.7026    0.0000 H   0  0  0  0  0  0  0  0  0  0  0  0
    5.6720    5.0123    0.0000 H   0  0  0  0  0  0  0  0  0  0  0  0
    8.2266    3.5374    0.0000 H   0  0  0  0  0  0  0  0  0  0  0  0
    8.6252    4.2277    0.0000 H   0  0  0  0  0  0  0  0  0  0  0  0
    5.6720    4.2277    0.0000 H   0  0  0  0  0  0  0  0  0  0  0  0
    6.0705    3.5374    0.0000 H   0  0  0  0  0  0  0  0  0  0  0  0
    6.9365    7.2026    0.0000 H   0  0  0  0  0  0  0  0  0  0  0  0
    6.5380    6.5123    0.0000 H   0  0  0  0  0  0  0  0  0  0  0  0
    8.2266    6.5374    0.0000 H   0  0  0  0  0  0  0  0  0  0  0  0
    8.6252    7.2277    0.0000 H   0  0  0  0  0  0  0  0  0  0  0  0
    7.8025    8.7026    0.0000 H   0  0  0  0  0  0  0  0  0  0  0  0
    7.4040    8.0123    0.0000 H   0  0  0  0  0  0  0  0  0  0  0  0
    5.7456    2.4300    0.0000 H   0  0  0  0  0  0  0  0  0  0  0  0
    8.5515    2.4300    0.0000 H   0  0  0  0  0  0  0  0  0  0  0  0
    5.7456    0.8100    0.0000 H   0  0  0  0  0  0  0  0  0  0  0  0
    7.1486    0.0000    0.0000 H   0  0  0  0  0  0  0  0  0  0  0  0
   10.2836    9.8100    0.0000 H   0  0  0  0  0  0  0  0  0  0  0  0
    7.4776    9.8100    0.0000 H   0  0  0  0  0  0  0  0  0  0  0  0
   10.2836   11.4300    0.0000 H   0  0  0  0  0  0  0  0  0  0  0  0
    7.4776   11.4300    0.0000 H   0  0  0  0  0  0  0  0  0  0  0  0
    3.6720    6.3700    0.0000 H   0  0  0  0  0  0  0  0  0  0  0  0
    0.0000    6.2500    0.0000 H   0  0  0  0  0  0  0  0  0  0  0  0
  1 28  1  0  0  0  0
  2 20  2  0  0  0  0
  3 29  1  0  0  0  0
  3 53  1  0  0  0  0
  4 30  1  0  0  0  0
  4 54  1  0  0  0  0
  5 29  2  0  0  0  0
  6 30  2  0  0  0  0
  7 10  1  0  0  0  0
  7 11  1  0  0  0  0
  7 14  1  0  0  0  0
  8 12  1  0  0  0  0
  8 13  1  0  0  0  0
  8 16  1  0  0  0  0
  9 19  1  0  0  0  0
  9 23  2  0  0  0  0
 10 12  1  0  0  0  0
 10 31  1  0  0  0  0
 10 32  1  0  0  0  0
 11 13  1  0  0  0  0
 11 33  1  0  0  0  0
 11 34  1  0  0  0  0
 12 35  1  0  0  0  0
 12 36  1  0  0  0  0
 13 37  1  0  0  0  0
 13 38  1  0  0  0  0
 14 15  1  0  0  0  0
 14 39  1  0  0  0  0
 14 40  1  0  0  0  0
 15 17  1  0  0  0  0
 15 41  1  0  0  0  0
 15 42  1  0  0  0  0
 16 18  1  0  0  0  0
 16 19  2  0  0  0  0
 17 20  1  0  0  0  0
 17 43  1  0  0  0  0
 17 44  1  0  0  0  0
 18 21  2  0  0  0  0
 18 45  1  0  0  0  0
 19 46  1  0  0  0  0
 20 22  1  0  0  0  0
 21 23  1  0  0  0  0
 21 47  1  0  0  0  0
 22 24  2  0  0  0  0
 22 25  1  0  0  0  0
 23 48  1  0  0  0  0
 24 26  1  0  0  0  0
 24 49  1  0  0  0  0
 25 27  2  0  0  0  0
 25 50  1  0  0  0  0
 26 28  2  0  0  0  0
 26 51  1  0  0  0  0
 27 28  1  0  0  0  0
 27 52  1  0  0  0  0
 29 30  1  0  0  0  0
M  END
> <PUBCHEM_COMPOUND_CID>
162671032

> <PUBCHEM_COMPOUND_CANONICALIZED>
1

> <PUBCHEM_CACTVS_COMPLEXITY>
462

> <PUBCHEM_CACTVS_HBOND_ACCEPTOR>
9

> <PUBCHEM_CACTVS_HBOND_DONOR>
2

> <PUBCHEM_CACTVS_ROTATABLE_BOND>
7

> <PUBCHEM_CACTVS_SUBSKEYS>
AAADceB7OQAAAAAAAAAAAAAAAAAAAAAAAAA8WIAAAAAAAAABwAAAHwAACAAADAzBmgw8yJMIEgCoArT3TAKCgCA1EiAI2CF4dNgJYPLAlZGUIQhggADJyYcciICOAAAAAAAAAAAAAAAAAAAAAAAAAAAAAA==

> <PUBCHEM_IUPAC_OPENEYE_NAME>
1-(4-fluorophenyl)-4-[4-(3-pyridyl)piperazin-1-yl]butan-1-one;oxalic acid

> <PUBCHEM_IUPAC_CAS_NAME>
1-(4-fluorophenyl)-4-[4-(3-pyridinyl)-1-piperazinyl]-1-butanone;oxalic acid

> <PUBCHEM_IUPAC_NAME_MARKUP>
1-(4-fluorophenyl)-4-(4-pyridin-3-ylpiperazin-1-yl)butan-1-one;oxalic acid

> <PUBCHEM_IUPAC_NAME>
1-(4-fluorophenyl)-4-(4-pyridin-3-ylpiperazin-1-yl)butan-1-one;oxalic acid

> <PUBCHEM_IUPAC_SYSTEMATIC_NAME>
ethanedioic acid;1-(4-fluorophenyl)-4-(4-pyridin-3-ylpiperazin-1-yl)butan-1-one

> <PUBCHEM_IUPAC_TRADITIONAL_NAME>
1-(4-fluorophenyl)-4-[4-(3-pyridyl)piperazino]butan-1-one;oxalic acid

> <PUBCHEM_IUPAC_INCHI>
InChI=1S/C19H22FN3O.C2H2O4/c20-17-7-5-16(6-8-17)19(24)4-2-10-22-11-13-23(14-12-22)18-3-1-9-21-15-18;3-1(4)2(5)6/h1,3,5-9,15H,2,4,10-14H2;(H,3,4)(H,5,6)

> <PUBCHEM_IUPAC_INCHIKEY>
NZKLDRWYUXOVJK-UHFFFAOYSA-N

> <PUBCHEM_EXACT_MASS>
417.16999904

> <PUBCHEM_MOLECULAR_FORMULA>
C21H24FN3O5

> <PUBCHEM_MOLECULAR_WEIGHT>
417.4

> <PUBCHEM_OPENEYE_CAN_SMILES>
C1CN(CCN1CCCC(=O)C2=CC=C(C=C2)F)C3=CN=CC=C3.C(=O)(C(=O)O)O

> <PUBCHEM_OPENEYE_ISO_SMILES>
C1CN(CCN1CCCC(=O)C2=CC=C(C=C2)F)C3=CN=CC=C3.C(=O)(C(=O)O)O

> <PUBCHEM_CACTVS_TPSA>
111

> <PUBCHEM_MONOISOTOPIC_WEIGHT>
417.16999904

> <PUBCHEM_TOTAL_CHARGE>
0

> <PUBCHEM_HEAVY_ATOM_COUNT>
30

> <PUBCHEM_ATOM_DEF_STEREO_COUNT>
0

> <PUBCHEM_ATOM_UDEF_STEREO_COUNT>
0

> <PUBCHEM_BOND_DEF_STEREO_COUNT>
0

> <PUBCHEM_BOND_UDEF_STEREO_COUNT>
0

> <PUBCHEM_ISOTOPIC_ATOM_COUNT>
0

> <PUBCHEM_COMPONENT_COUNT>
2

> <PUBCHEM_CACTVS_TAUTO_COUNT>
-1

> <PUBCHEM_COORDINATE_TYPE>
1
5
255

> <PUBCHEM_BONDANNOTATIONS>
16  18  8
16  19  8
18  21  8
21  23  8
22  24  8
22  25  8
24  26  8
25  27  8
26  28  8
27  28  8
9  19  8
9  23  8

$$$$
