76314097
  -OEChem-09292322072D

 34 36  0     0  0  0  0  0  0999 V2000
    6.0682   -2.2521    0.0000 O   0  0  0  0  0  0  0  0  0  0  0  0
    7.8003   -2.2521    0.0000 O   0  0  0  0  0  0  0  0  0  0  0  0
    7.8003    0.7479    0.0000 N   0  0  0  0  0  0  0  0  0  0  0  0
    2.5381   -0.2279    0.0000 N   0  0  0  0  0  0  0  0  0  0  0  0
    8.6093    1.3357    0.0000 C   0  0  0  0  0  0  0  0  0  0  0  0
    6.9913    1.3357    0.0000 C   0  0  0  0  0  0  0  0  0  0  0  0
    8.3003    2.2868    0.0000 C   0  0  0  0  0  0  0  0  0  0  0  0
    7.3003    2.2868    0.0000 C   0  0  0  0  0  0  0  0  0  0  0  0
    7.8003   -0.2521    0.0000 C   0  0  0  0  0  0  0  0  0  0  0  0
    6.9343   -0.7521    0.0000 C   0  0  0  0  0  0  0  0  0  0  0  0
    6.0682   -0.2521    0.0000 C   0  0  0  0  0  0  0  0  0  0  0  0
    6.9343   -1.7521    0.0000 C   0  0  0  0  0  0  0  0  0  0  0  0
    5.2022   -0.7521    0.0000 C   0  0  0  0  0  0  0  0  0  0  0  0
    5.2022   -1.7521    0.0000 C   0  0  0  0  0  0  0  0  0  0  0  0
    4.3083   -0.2174    0.0000 C   0  0  0  0  0  0  0  0  0  0  0  0
    4.3083   -2.2868    0.0000 C   0  0  0  0  0  0  0  0  0  0  0  0
    3.4022   -0.7313    0.0000 C   0  0  0  0  0  0  0  0  0  0  0  0
    3.4022   -1.7729    0.0000 C   0  0  0  0  0  0  0  0  0  0  0  0
    8.9193    0.7988    0.0000 H   0  0  0  0  0  0  0  0  0  0  0  0
    9.1757    1.5879    0.0000 H   0  0  0  0  0  0  0  0  0  0  0  0
    6.4249    1.5879    0.0000 H   0  0  0  0  0  0  0  0  0  0  0  0
    6.6813    0.7988    0.0000 H   0  0  0  0  0  0  0  0  0  0  0  0
    8.9068    2.4157    0.0000 H   0  0  0  0  0  0  0  0  0  0  0  0
    8.2355    2.9034    0.0000 H   0  0  0  0  0  0  0  0  0  0  0  0
    7.3651    2.9034    0.0000 H   0  0  0  0  0  0  0  0  0  0  0  0
    6.6938    2.4157    0.0000 H   0  0  0  0  0  0  0  0  0  0  0  0
    8.0124   -0.8347    0.0000 H   0  0  0  0  0  0  0  0  0  0  0  0
    8.4109   -0.1444    0.0000 H   0  0  0  0  0  0  0  0  0  0  0  0
    6.0682    0.3679    0.0000 H   0  0  0  0  0  0  0  0  0  0  0  0
    4.3154    0.4025    0.0000 H   0  0  0  0  0  0  0  0  0  0  0  0
    4.3154   -2.9067    0.0000 H   0  0  0  0  0  0  0  0  0  0  0  0
    2.8665   -2.0850    0.0000 H   0  0  0  0  0  0  0  0  0  0  0  0
    2.0000   -0.5359    0.0000 H   0  0  0  0  0  0  0  0  0  0  0  0
    2.5405    0.3921    0.0000 H   0  0  0  0  0  0  0  0  0  0  0  0
  1 12  1  0  0  0  0
  1 14  1  0  0  0  0
  2 12  2  0  0  0  0
  3  5  1  0  0  0  0
  3  6  1  0  0  0  0
  3  9  1  0  0  0  0
  4 17  1  0  0  0  0
  4 33  1  0  0  0  0
  4 34  1  0  0  0  0
  5  7  1  0  0  0  0
  5 19  1  0  0  0  0
  5 20  1  0  0  0  0
  6  8  1  0  0  0  0
  6 21  1  0  0  0  0
  6 22  1  0  0  0  0
  7  8  1  0  0  0  0
  7 23  1  0  0  0  0
  7 24  1  0  0  0  0
  8 25  1  0  0  0  0
  8 26  1  0  0  0  0
  9 10  1  0  0  0  0
  9 27  1  0  0  0  0
  9 28  1  0  0  0  0
 10 11  2  0  0  0  0
 10 12  1  0  0  0  0
 11 13  1  0  0  0  0
 11 29  1  0  0  0  0
 13 14  2  0  0  0  0
 13 15  1  0  0  0  0
 14 16  1  0  0  0  0
 15 17  2  0  0  0  0
 15 30  1  0  0  0  0
 16 18  2  0  0  0  0
 16 31  1  0  0  0  0
 17 18  1  0  0  0  0
 18 32  1  0  0  0  0
M  END
> <PUBCHEM_COMPOUND_CID>
76314097

> <PUBCHEM_COMPOUND_CANONICALIZED>
1

> <PUBCHEM_CACTVS_COMPLEXITY>
361

> <PUBCHEM_CACTVS_HBOND_ACCEPTOR>
4

> <PUBCHEM_CACTVS_HBOND_DONOR>
1

> <PUBCHEM_CACTVS_ROTATABLE_BOND>
2

> <PUBCHEM_CACTVS_SUBSKEYS>
AAADceBzMAAAAAAAAAAAAAAAAAAAAWAAAAAwQAAAAAAAAACBAAAAHgAQAAAADAzBmAQwzoNABACIAiTSSACCCAAgIgAIiAEObMgMJiqEsZuGOiDm0BGI6YewwCAOAEAAQAAIAAAAgACAABAAAAAAAAAAAA==

> <PUBCHEM_IUPAC_OPENEYE_NAME>
6-amino-3-(pyrrolidin-1-ylmethyl)chromen-2-one

> <PUBCHEM_IUPAC_CAS_NAME>
6-amino-3-(1-pyrrolidinylmethyl)-1-benzopyran-2-one

> <PUBCHEM_IUPAC_NAME_MARKUP>
6-amino-3-(pyrrolidin-1-ylmethyl)chromen-2-one

> <PUBCHEM_IUPAC_NAME>
6-amino-3-(pyrrolidin-1-ylmethyl)chromen-2-one

> <PUBCHEM_IUPAC_SYSTEMATIC_NAME>
6-azanyl-3-(pyrrolidin-1-ylmethyl)chromen-2-one

> <PUBCHEM_IUPAC_TRADITIONAL_NAME>
6-amino-3-(pyrrolidinomethyl)coumarin

> <PUBCHEM_IUPAC_INCHI>
InChI=1S/C14H16N2O2/c15-12-3-4-13-10(8-12)7-11(14(17)18-13)9-16-5-1-2-6-16/h3-4,7-8H,1-2,5-6,9,15H2

> <PUBCHEM_IUPAC_INCHIKEY>
ORDPXOCNLOPGLX-UHFFFAOYSA-N

> <PUBCHEM_XLOGP3_AA>
1.6

> <PUBCHEM_EXACT_MASS>
244.121177757

> <PUBCHEM_MOLECULAR_FORMULA>
C14H16N2O2

> <PUBCHEM_MOLECULAR_WEIGHT>
244.29

> <PUBCHEM_OPENEYE_CAN_SMILES>
C1CCN(C1)CC2=CC3=C(C=CC(=C3)N)OC2=O

> <PUBCHEM_OPENEYE_ISO_SMILES>
C1CCN(C1)CC2=CC3=C(C=CC(=C3)N)OC2=O

> <PUBCHEM_CACTVS_TPSA>
55.6

> <PUBCHEM_MONOISOTOPIC_WEIGHT>
244.121177757

> <PUBCHEM_TOTAL_CHARGE>
0

> <PUBCHEM_HEAVY_ATOM_COUNT>
18

> <PUBCHEM_ATOM_DEF_STEREO_COUNT>
0

> <PUBCHEM_ATOM_UDEF_STEREO_COUNT>
0

> <PUBCHEM_BOND_DEF_STEREO_COUNT>
0

> <PUBCHEM_BOND_UDEF_STEREO_COUNT>
0

> <PUBCHEM_ISOTOPIC_ATOM_COUNT>
0

> <PUBCHEM_COMPONENT_COUNT>
1

> <PUBCHEM_CACTVS_TAUTO_COUNT>
-1

> <PUBCHEM_COORDINATE_TYPE>
1
5
255

> <PUBCHEM_BONDANNOTATIONS>
1  12  8
1  14  8
10  11  8
10  12  8
11  13  8
13  14  8
13  15  8
14  16  8
15  17  8
16  18  8
17  18  8

$$$$
