11673558
  -OEChem-09292322492D

 45 46  0     1  0  0  0  0  0999 V2000
    9.4315    0.7115    0.0000 O   0  0  0  0  0  0  0  0  0  0  0  0
    7.7852    1.2496    0.0000 O   0  0  0  0  0  0  0  0  0  0  0  0
    4.5981   -0.2500    0.0000 N   0  0  0  0  0  0  0  0  0  0  0  0
    7.1962   -1.7500    0.0000 N   0  0  0  0  0  0  0  0  0  0  0  0
    8.1424   -2.0547    0.0000 N   0  0  0  0  0  0  0  0  0  0  0  0
    5.4641   -0.7500    0.0000 C   0  0  3  0  0  0  0  0  0  0  0  0
    5.4641   -1.7500    0.0000 C   0  0  0  0  0  0  0  0  0  0  0  0
    6.3301   -0.2500    0.0000 C   0  0  0  0  0  0  0  0  0  0  0  0
    6.3301   -2.2500    0.0000 C   0  0  0  0  0  0  0  0  0  0  0  0
    7.1962   -0.7500    0.0000 C   0  0  0  0  0  0  0  0  0  0  0  0
    3.7320   -0.7500    0.0000 C   0  0  0  0  0  0  0  0  0  0  0  0
    4.5981    0.7500    0.0000 C   0  0  0  0  0  0  0  0  0  0  0  0
    8.1424   -0.4453    0.0000 C   0  0  0  0  0  0  0  0  0  0  0  0
    2.8660   -0.2500    0.0000 C   0  0  0  0  0  0  0  0  0  0  0  0
    3.7320    1.2500    0.0000 C   0  0  0  0  0  0  0  0  0  0  0  0
    8.7260   -1.2500    0.0000 C   0  0  0  0  0  0  0  0  0  0  0  0
    2.0000   -0.7500    0.0000 C   0  0  0  0  0  0  0  0  0  0  0  0
    3.7320    2.2500    0.0000 C   0  0  0  0  0  0  0  0  0  0  0  0
    8.4530    0.5053    0.0000 C   0  0  0  0  0  0  0  0  0  0  0  0
    9.7422    1.6620    0.0000 C   0  0  0  0  0  0  0  0  0  0  0  0
    5.4641   -0.1300    0.0000 H   0  0  0  0  0  0  0  0  0  0  0  0
    4.8535   -1.6423    0.0000 H   0  0  0  0  0  0  0  0  0  0  0  0
    5.2520   -2.3326    0.0000 H   0  0  0  0  0  0  0  0  0  0  0  0
    6.7287    0.2249    0.0000 H   0  0  0  0  0  0  0  0  0  0  0  0
    5.9316    0.2249    0.0000 H   0  0  0  0  0  0  0  0  0  0  0  0
    5.9316   -2.7250    0.0000 H   0  0  0  0  0  0  0  0  0  0  0  0
    6.7287   -2.7250    0.0000 H   0  0  0  0  0  0  0  0  0  0  0  0
    3.3335   -1.2250    0.0000 H   0  0  0  0  0  0  0  0  0  0  0  0
    4.1306   -1.2250    0.0000 H   0  0  0  0  0  0  0  0  0  0  0  0
    5.2087    0.6423    0.0000 H   0  0  0  0  0  0  0  0  0  0  0  0
    4.8101    1.3326    0.0000 H   0  0  0  0  0  0  0  0  0  0  0  0
    3.2646    0.2249    0.0000 H   0  0  0  0  0  0  0  0  0  0  0  0
    2.4675    0.2249    0.0000 H   0  0  0  0  0  0  0  0  0  0  0  0
    3.1215    1.3577    0.0000 H   0  0  0  0  0  0  0  0  0  0  0  0
    3.5200    0.6674    0.0000 H   0  0  0  0  0  0  0  0  0  0  0  0
    9.3460   -1.2500    0.0000 H   0  0  0  0  0  0  0  0  0  0  0  0
    1.6900   -0.2131    0.0000 H   0  0  0  0  0  0  0  0  0  0  0  0
    1.4631   -1.0600    0.0000 H   0  0  0  0  0  0  0  0  0  0  0  0
    2.3100   -1.2869    0.0000 H   0  0  0  0  0  0  0  0  0  0  0  0
    4.3520    2.2500    0.0000 H   0  0  0  0  0  0  0  0  0  0  0  0
    3.7320    2.8700    0.0000 H   0  0  0  0  0  0  0  0  0  0  0  0
    3.1120    2.2500    0.0000 H   0  0  0  0  0  0  0  0  0  0  0  0
   10.3315    1.4694    0.0000 H   0  0  0  0  0  0  0  0  0  0  0  0
    9.9348    2.2513    0.0000 H   0  0  0  0  0  0  0  0  0  0  0  0
    9.1529    1.8546    0.0000 H   0  0  0  0  0  0  0  0  0  0  0  0
  1 19  1  0  0  0  0
  1 20  1  0  0  0  0
  2 19  2  0  0  0  0
  3  6  1  0  0  0  0
  3 11  1  0  0  0  0
  3 12  1  0  0  0  0
  4  5  1  0  0  0  0
  4  9  1  0  0  0  0
  4 10  1  0  0  0  0
  5 16  2  0  0  0  0
  6  7  1  0  0  0  0
  6  8  1  0  0  0  0
  6 21  1  0  0  0  0
  7  9  1  0  0  0  0
  7 22  1  0  0  0  0
  7 23  1  0  0  0  0
  8 10  1  0  0  0  0
  8 24  1  0  0  0  0
  8 25  1  0  0  0  0
  9 26  1  0  0  0  0
  9 27  1  0  0  0  0
 10 13  2  0  0  0  0
 11 14  1  0  0  0  0
 11 28  1  0  0  0  0
 11 29  1  0  0  0  0
 12 15  1  0  0  0  0
 12 30  1  0  0  0  0
 12 31  1  0  0  0  0
 13 16  1  0  0  0  0
 13 19  1  0  0  0  0
 14 17  1  0  0  0  0
 14 32  1  0  0  0  0
 14 33  1  0  0  0  0
 15 18  1  0  0  0  0
 15 34  1  0  0  0  0
 15 35  1  0  0  0  0
 16 36  1  0  0  0  0
 17 37  1  0  0  0  0
 17 38  1  0  0  0  0
 17 39  1  0  0  0  0
 18 40  1  0  0  0  0
 18 41  1  0  0  0  0
 18 42  1  0  0  0  0
 20 43  1  0  0  0  0
 20 44  1  0  0  0  0
 20 45  1  0  0  0  0
M  END
> <PUBCHEM_COMPOUND_CID>
11673558

> <PUBCHEM_COMPOUND_CANONICALIZED>
1

> <PUBCHEM_CACTVS_COMPLEXITY>
318

> <PUBCHEM_CACTVS_HBOND_ACCEPTOR>
4

> <PUBCHEM_CACTVS_HBOND_DONOR>
0

> <PUBCHEM_CACTVS_ROTATABLE_BOND>
7

> <PUBCHEM_CACTVS_SUBSKEYS>
AAADceBzMAAAAAAAAAAAAAAAAAAAAWAAAAAsAAAAAAAAAFgBgAAAHgAIAAAADCjBngYuiJMIBACqAxT3TACQBAAlgAAQWCE4TFgAJppA8MmElYhmiADIacOY2WOcAAAAAAAAAAAAAAAAAAAAAAAAAAAAAA==

> <PUBCHEM_IUPAC_OPENEYE_NAME>
methyl 5-(dipropylamino)-4,5,6,7-tetrahydropyrazolo[1,5-a]pyridine-3-carboxylate

> <PUBCHEM_IUPAC_CAS_NAME>
5-(dipropylamino)-4,5,6,7-tetrahydropyrazolo[1,5-a]pyridine-3-carboxylic acid methyl ester

> <PUBCHEM_IUPAC_NAME_MARKUP>
methyl 5-(dipropylamino)-4,5,6,7-tetrahydropyrazolo[1,5-a]pyridine-3-carboxylate

> <PUBCHEM_IUPAC_NAME>
methyl 5-(dipropylamino)-4,5,6,7-tetrahydropyrazolo[1,5-a]pyridine-3-carboxylate

> <PUBCHEM_IUPAC_SYSTEMATIC_NAME>
methyl 5-(dipropylamino)-4,5,6,7-tetrahydropyrazolo[1,5-a]pyridine-3-carboxylate

> <PUBCHEM_IUPAC_TRADITIONAL_NAME>
5-(dipropylamino)-4,5,6,7-tetrahydropyrazolo[1,5-a]pyridine-3-carboxylic acid methyl ester

> <PUBCHEM_IUPAC_INCHI>
InChI=1S/C15H25N3O2/c1-4-7-17(8-5-2)12-6-9-18-14(10-12)13(11-16-18)15(19)20-3/h11-12H,4-10H2,1-3H3

> <PUBCHEM_IUPAC_INCHIKEY>
PBNAEPBSIPQZEL-UHFFFAOYSA-N

> <PUBCHEM_XLOGP3_AA>
2.3

> <PUBCHEM_EXACT_MASS>
279.19467705

> <PUBCHEM_MOLECULAR_FORMULA>
C15H25N3O2

> <PUBCHEM_MOLECULAR_WEIGHT>
279.38

> <PUBCHEM_OPENEYE_CAN_SMILES>
CCCN(CCC)C1CCN2C(=C(C=N2)C(=O)OC)C1

> <PUBCHEM_OPENEYE_ISO_SMILES>
CCCN(CCC)C1CCN2C(=C(C=N2)C(=O)OC)C1

> <PUBCHEM_CACTVS_TPSA>
47.4

> <PUBCHEM_MONOISOTOPIC_WEIGHT>
279.19467705

> <PUBCHEM_TOTAL_CHARGE>
0

> <PUBCHEM_HEAVY_ATOM_COUNT>
20

> <PUBCHEM_ATOM_DEF_STEREO_COUNT>
0

> <PUBCHEM_ATOM_UDEF_STEREO_COUNT>
1

> <PUBCHEM_BOND_DEF_STEREO_COUNT>
0

> <PUBCHEM_BOND_UDEF_STEREO_COUNT>
0

> <PUBCHEM_ISOTOPIC_ATOM_COUNT>
0

> <PUBCHEM_COMPONENT_COUNT>
1

> <PUBCHEM_CACTVS_TAUTO_COUNT>
-1

> <PUBCHEM_COORDINATE_TYPE>
1
5
255

> <PUBCHEM_BONDANNOTATIONS>
10  13  8
13  16  8
6  3  3
4  10  8
4  5  8
5  16  8

$$$$
