73354845
  -OEChem-09292322032D

 68 69  0     1  0  0  0  0  0999 V2000
    6.9997    0.0000    0.0000 Cl  0  0  0  0  0  0  0  0  0  0  0  0
    6.9997    2.5153    0.0000 Cl  0  0  0  0  0  0  0  0  0  0  0  0
    7.4651   10.1506    0.0000 O   0  0  0  0  0  0  0  0  0  0  0  0
   13.5933    8.6265    0.0000 O   0  0  0  0  0  0  0  0  0  0  0  0
    1.4030    8.6506    0.0000 O   0  0  0  0  0  0  0  0  0  0  0  0
    4.8671    8.6506    0.0000 N   0  0  0  0  0  0  0  0  0  0  0  0
    3.1350    7.6506    0.0000 N   0  0  0  0  0  0  0  0  0  0  0  0
    8.3312    8.6506    0.0000 N   0  0  0  0  0  0  0  0  0  0  0  0
    9.1972    9.1506    0.0000 C   0  0  3  0  0  0  0  0  0  0  0  0
    9.1972   10.1506    0.0000 C   0  0  0  0  0  0  0  0  0  0  0  0
   10.0632    8.6506    0.0000 C   0  0  0  0  0  0  0  0  0  0  0  0
   10.0632   10.6506    0.0000 C   0  0  0  0  0  0  0  0  0  0  0  0
    4.0010    9.1506    0.0000 C   0  0  0  0  0  0  0  0  0  0  0  0
    4.8671    7.6506    0.0000 C   0  0  0  0  0  0  0  0  0  0  0  0
    3.1350    8.6506    0.0000 C   0  0  0  0  0  0  0  0  0  0  0  0
    4.0010    7.1506    0.0000 C   0  0  0  0  0  0  0  0  0  0  0  0
   10.9292    9.1506    0.0000 C   0  0  0  0  0  0  0  0  0  0  0  0
    5.7331    9.1506    0.0000 C   0  0  0  0  0  0  0  0  0  0  0  0
   10.9292   10.1506    0.0000 C   0  0  0  0  0  0  0  0  0  0  0  0
    6.5991    8.6506    0.0000 C   0  0  0  0  0  0  0  0  0  0  0  0
    7.4651    9.1506    0.0000 C   0  0  0  0  0  0  0  0  0  0  0  0
    2.2690    7.1506    0.0000 C   0  0  0  0  0  0  0  0  0  0  0  0
   11.8232    8.6160    0.0000 C   0  0  0  0  0  0  0  0  0  0  0  0
   11.8232   10.6853    0.0000 C   0  0  0  0  0  0  0  0  0  0  0  0
   12.7292    9.1298    0.0000 C   0  0  0  0  0  0  0  0  0  0  0  0
   12.7292   10.1714    0.0000 C   0  0  0  0  0  0  0  0  0  0  0  0
    1.4030    7.6506    0.0000 C   0  0  0  0  0  0  0  0  0  0  0  0
    2.2690    6.1506    0.0000 C   0  0  0  0  0  0  0  0  0  0  0  0
    0.5369    7.1506    0.0000 C   0  0  0  0  0  0  0  0  0  0  0  0
    1.4030    5.6506    0.0000 C   0  0  0  0  0  0  0  0  0  0  0  0
    0.5369    6.1506    0.0000 C   0  0  0  0  0  0  0  0  0  0  0  0
   14.4613    9.1231    0.0000 C   0  0  0  0  0  0  0  0  0  0  0  0
    0.5369    9.1506    0.0000 C   0  0  0  0  0  0  0  0  0  0  0  0
    8.6602    9.4606    0.0000 H   0  0  0  0  0  0  0  0  0  0  0  0
    8.9851   10.7332    0.0000 H   0  0  0  0  0  0  0  0  0  0  0  0
    8.5866   10.0429    0.0000 H   0  0  0  0  0  0  0  0  0  0  0  0
    9.6647    8.1757    0.0000 H   0  0  0  0  0  0  0  0  0  0  0  0
   10.4617    8.1757    0.0000 H   0  0  0  0  0  0  0  0  0  0  0  0
    4.3996    9.6256    0.0000 H   0  0  0  0  0  0  0  0  0  0  0  0
    3.6025    9.6256    0.0000 H   0  0  0  0  0  0  0  0  0  0  0  0
    5.0791    7.0680    0.0000 H   0  0  0  0  0  0  0  0  0  0  0  0
    5.4776    7.7583    0.0000 H   0  0  0  0  0  0  0  0  0  0  0  0
   10.4617   11.1256    0.0000 H   0  0  0  0  0  0  0  0  0  0  0  0
    9.6647   11.1256    0.0000 H   0  0  0  0  0  0  0  0  0  0  0  0
    2.9230    9.2332    0.0000 H   0  0  0  0  0  0  0  0  0  0  0  0
    2.5244    8.5430    0.0000 H   0  0  0  0  0  0  0  0  0  0  0  0
    3.6025    6.6757    0.0000 H   0  0  0  0  0  0  0  0  0  0  0  0
    4.3996    6.6757    0.0000 H   0  0  0  0  0  0  0  0  0  0  0  0
    6.1316    9.6256    0.0000 H   0  0  0  0  0  0  0  0  0  0  0  0
    5.3346    9.6256    0.0000 H   0  0  0  0  0  0  0  0  0  0  0  0
    8.3312    8.0306    0.0000 H   0  0  0  0  0  0  0  0  0  0  0  0
    6.2006    8.1757    0.0000 H   0  0  0  0  0  0  0  0  0  0  0  0
    6.9976    8.1757    0.0000 H   0  0  0  0  0  0  0  0  0  0  0  0
   11.8160    7.9960    0.0000 H   0  0  0  0  0  0  0  0  0  0  0  0
   11.8160   11.3052    0.0000 H   0  0  0  0  0  0  0  0  0  0  0  0
   13.2650   10.4835    0.0000 H   0  0  0  0  0  0  0  0  0  0  0  0
    2.8059    5.8406    0.0000 H   0  0  0  0  0  0  0  0  0  0  0  0
    0.0000    7.4606    0.0000 H   0  0  0  0  0  0  0  0  0  0  0  0
    1.4030    5.0306    0.0000 H   0  0  0  0  0  0  0  0  0  0  0  0
    0.0000    5.8406    0.0000 H   0  0  0  0  0  0  0  0  0  0  0  0
   14.7692    8.5850    0.0000 H   0  0  0  0  0  0  0  0  0  0  0  0
   14.9994    9.4311    0.0000 H   0  0  0  0  0  0  0  0  0  0  0  0
   14.1534    9.6613    0.0000 H   0  0  0  0  0  0  0  0  0  0  0  0
    0.8469    9.6876    0.0000 H   0  0  0  0  0  0  0  0  0  0  0  0
    0.0000    9.4606    0.0000 H   0  0  0  0  0  0  0  0  0  0  0  0
    0.2269    8.6137    0.0000 H   0  0  0  0  0  0  0  0  0  0  0  0
    7.9997    0.0000    0.0000 H   0  0  0  0  0  0  0  0  0  0  0  0
    7.9997    2.5153    0.0000 H   0  0  0  0  0  0  0  0  0  0  0  0
  1 67  1  0  0  0  0
  2 68  1  0  0  0  0
  3 21  2  0  0  0  0
  4 25  1  0  0  0  0
  4 32  1  0  0  0  0
  5 27  1  0  0  0  0
  5 33  1  0  0  0  0
  6 13  1  0  0  0  0
  6 14  1  0  0  0  0
  6 18  1  0  0  0  0
  7 15  1  0  0  0  0
  7 16  1  0  0  0  0
  7 22  1  0  0  0  0
  8  9  1  0  0  0  0
  8 21  1  0  0  0  0
  8 51  1  0  0  0  0
  9 10  1  0  0  0  0
  9 11  1  0  0  0  0
  9 34  1  0  0  0  0
 10 12  1  0  0  0  0
 10 35  1  0  0  0  0
 10 36  1  0  0  0  0
 11 17  1  0  0  0  0
 11 37  1  0  0  0  0
 11 38  1  0  0  0  0
 12 19  1  0  0  0  0
 12 43  1  0  0  0  0
 12 44  1  0  0  0  0
 13 15  1  0  0  0  0
 13 39  1  0  0  0  0
 13 40  1  0  0  0  0
 14 16  1  0  0  0  0
 14 41  1  0  0  0  0
 14 42  1  0  0  0  0
 15 45  1  0  0  0  0
 15 46  1  0  0  0  0
 16 47  1  0  0  0  0
 16 48  1  0  0  0  0
 17 19  2  0  0  0  0
 17 23  1  0  0  0  0
 18 20  1  0  0  0  0
 18 49  1  0  0  0  0
 18 50  1  0  0  0  0
 19 24  1  0  0  0  0
 20 21  1  0  0  0  0
 20 52  1  0  0  0  0
 20 53  1  0  0  0  0
 22 27  1  0  0  0  0
 22 28  2  0  0  0  0
 23 25  2  0  0  0  0
 23 54  1  0  0  0  0
 24 26  2  0  0  0  0
 24 55  1  0  0  0  0
 25 26  1  0  0  0  0
 26 56  1  0  0  0  0
 27 29  2  0  0  0  0
 28 30  1  0  0  0  0
 28 57  1  0  0  0  0
 29 31  1  0  0  0  0
 29 58  1  0  0  0  0
 30 31  2  0  0  0  0
 30 59  1  0  0  0  0
 31 60  1  0  0  0  0
 32 61  1  0  0  0  0
 32 62  1  0  0  0  0
 32 63  1  0  0  0  0
 33 64  1  0  0  0  0
 33 65  1  0  0  0  0
 33 66  1  0  0  0  0
M  END
> <PUBCHEM_COMPOUND_CID>
73354845

> <PUBCHEM_COMPOUND_CANONICALIZED>
1

> <PUBCHEM_CACTVS_COMPLEXITY>
566

> <PUBCHEM_CACTVS_HBOND_ACCEPTOR>
5

> <PUBCHEM_CACTVS_HBOND_DONOR>
3

> <PUBCHEM_CACTVS_ROTATABLE_BOND>
7

> <PUBCHEM_CACTVS_SUBSKEYS>
AAADcfB7MAAGAAAAAAAAAAAAAAAAAAAAAAA8YMEAAAAAAADBQAAAHgAQAAAADCzBmAYyxoPABACIAiVSUACCCAAhIgAIiIEPbIgOZirE8ZuVMChk1hHY6AeQ0LMOoAABAAAQEABQAAKAACAgAAAAAAAAAA==

> <PUBCHEM_IUPAC_OPENEYE_NAME>
3-[4-(2-methoxyphenyl)piperazin-1-yl]-N-(7-methoxytetralin-2-yl)propanamide;dihydrochloride

> <PUBCHEM_IUPAC_CAS_NAME>
3-[4-(2-methoxyphenyl)-1-piperazinyl]-N-(7-methoxy-1,2,3,4-tetrahydronaphthalen-2-yl)propanamide;dihydrochloride

> <PUBCHEM_IUPAC_NAME_MARKUP>
3-[4-(2-methoxyphenyl)piperazin-1-yl]-<I>N</I>-(7-methoxy-1,2,3,4-tetrahydronaphthalen-2-yl)propanamide;dihydrochloride

> <PUBCHEM_IUPAC_NAME>
3-[4-(2-methoxyphenyl)piperazin-1-yl]-N-(7-methoxy-1,2,3,4-tetrahydronaphthalen-2-yl)propanamide;dihydrochloride

> <PUBCHEM_IUPAC_SYSTEMATIC_NAME>
3-[4-(2-methoxyphenyl)piperazin-1-yl]-N-(7-methoxy-1,2,3,4-tetrahydronaphthalen-2-yl)propanamide;dihydrochloride

> <PUBCHEM_IUPAC_TRADITIONAL_NAME>
3-[4-(2-methoxyphenyl)piperazino]-N-(7-methoxytetralin-2-yl)propionamide;dihydrochloride

> <PUBCHEM_IUPAC_INCHI>
InChI=1S/C25H33N3O3.2ClH/c1-30-22-10-8-19-7-9-21(17-20(19)18-22)26-25(29)11-12-27-13-15-28(16-14-27)23-5-3-4-6-24(23)31-2;;/h3-6,8,10,18,21H,7,9,11-17H2,1-2H3,(H,26,29);2*1H

> <PUBCHEM_IUPAC_INCHIKEY>
XHIAWXRTGOFODI-UHFFFAOYSA-N

> <PUBCHEM_EXACT_MASS>
495.2055474

> <PUBCHEM_MOLECULAR_FORMULA>
C25H35Cl2N3O3

> <PUBCHEM_MOLECULAR_WEIGHT>
496.5

> <PUBCHEM_OPENEYE_CAN_SMILES>
COC1=CC2=C(CCC(C2)NC(=O)CCN3CCN(CC3)C4=CC=CC=C4OC)C=C1.Cl.Cl

> <PUBCHEM_OPENEYE_ISO_SMILES>
COC1=CC2=C(CCC(C2)NC(=O)CCN3CCN(CC3)C4=CC=CC=C4OC)C=C1.Cl.Cl

> <PUBCHEM_CACTVS_TPSA>
54

> <PUBCHEM_MONOISOTOPIC_WEIGHT>
495.2055474

> <PUBCHEM_TOTAL_CHARGE>
0

> <PUBCHEM_HEAVY_ATOM_COUNT>
33

> <PUBCHEM_ATOM_DEF_STEREO_COUNT>
0

> <PUBCHEM_ATOM_UDEF_STEREO_COUNT>
1

> <PUBCHEM_BOND_DEF_STEREO_COUNT>
0

> <PUBCHEM_BOND_UDEF_STEREO_COUNT>
0

> <PUBCHEM_ISOTOPIC_ATOM_COUNT>
0

> <PUBCHEM_COMPONENT_COUNT>
3

> <PUBCHEM_CACTVS_TAUTO_COUNT>
-1

> <PUBCHEM_COORDINATE_TYPE>
1
5
255

> <PUBCHEM_BONDANNOTATIONS>
17  19  8
17  23  8
19  24  8
22  27  8
22  28  8
23  25  8
24  26  8
25  26  8
27  29  8
28  30  8
29  31  8
30  31  8
9  8  3

$$$$
