132525570
  -OEChem-09292322382D

 46 48  0     0  0  0  0  0  0999 V2000
    2.0000   -2.0864    0.0000 O   0  0  0  0  0  0  0  0  0  0  0  0
    7.0468   -1.7500    0.0000 N   0  0  0  0  0  0  0  0  0  0  0  0
    8.7788   -2.7500    0.0000 N   0  0  0  0  0  0  0  0  0  0  0  0
    6.1808   -0.2500    0.0000 N   0  0  0  0  0  0  0  0  0  0  0  0
    5.3147   -1.7500    0.0000 N   0  0  0  0  0  0  0  0  0  0  0  0
    7.9128   -1.2500    0.0000 C   0  0  0  0  0  0  0  0  0  0  0  0
    7.0468   -2.7500    0.0000 C   0  0  0  0  0  0  0  0  0  0  0  0
    8.7788   -1.7500    0.0000 C   0  0  0  0  0  0  0  0  0  0  0  0
    7.9128   -3.2500    0.0000 C   0  0  0  0  0  0  0  0  0  0  0  0
    6.1808   -1.2500    0.0000 C   0  0  0  0  0  0  0  0  0  0  0  0
    9.6448   -3.2500    0.0000 C   0  0  0  0  0  0  0  0  0  0  0  0
    5.3147    0.2500    0.0000 C   0  0  0  0  0  0  0  0  0  0  0  0
    5.3147    1.2500    0.0000 C   0  0  0  0  0  0  0  0  0  0  0  0
    4.4487    1.7500    0.0000 C   0  0  0  0  0  0  0  0  0  0  0  0
    4.4487   -1.2500    0.0000 C   0  0  0  0  0  0  0  0  0  0  0  0
    4.4487   -0.2500    0.0000 C   0  0  0  0  0  0  0  0  0  0  0  0
    4.4487    2.7500    0.0000 C   0  0  0  0  0  0  0  0  0  0  0  0
    3.5827   -1.7500    0.0000 C   0  0  0  0  0  0  0  0  0  0  0  0
    3.5827    3.2500    0.0000 C   0  0  0  0  0  0  0  0  0  0  0  0
    3.4782   -2.7445    0.0000 C   0  0  0  0  0  0  0  0  0  0  0  0
    2.6691   -1.3433    0.0000 C   0  0  0  0  0  0  0  0  0  0  0  0
    2.5000   -2.9524    0.0000 C   0  0  0  0  0  0  0  0  0  0  0  0
    8.3113   -0.7751    0.0000 H   0  0  0  0  0  0  0  0  0  0  0  0
    7.5143   -0.7751    0.0000 H   0  0  0  0  0  0  0  0  0  0  0  0
    6.4362   -2.6423    0.0000 H   0  0  0  0  0  0  0  0  0  0  0  0
    6.8347   -3.3326    0.0000 H   0  0  0  0  0  0  0  0  0  0  0  0
    9.3894   -1.8577    0.0000 H   0  0  0  0  0  0  0  0  0  0  0  0
    8.9909   -1.1674    0.0000 H   0  0  0  0  0  0  0  0  0  0  0  0
    7.5143   -3.7250    0.0000 H   0  0  0  0  0  0  0  0  0  0  0  0
    8.3113   -3.7250    0.0000 H   0  0  0  0  0  0  0  0  0  0  0  0
    9.3348   -3.7869    0.0000 H   0  0  0  0  0  0  0  0  0  0  0  0
   10.1818   -3.5600    0.0000 H   0  0  0  0  0  0  0  0  0  0  0  0
    9.9548   -2.7131    0.0000 H   0  0  0  0  0  0  0  0  0  0  0  0
    5.9253    1.1423    0.0000 H   0  0  0  0  0  0  0  0  0  0  0  0
    5.5268    1.8326    0.0000 H   0  0  0  0  0  0  0  0  0  0  0  0
    3.8381    1.8577    0.0000 H   0  0  0  0  0  0  0  0  0  0  0  0
    4.2366    1.1674    0.0000 H   0  0  0  0  0  0  0  0  0  0  0  0
    3.9118    0.0600    0.0000 H   0  0  0  0  0  0  0  0  0  0  0  0
    5.0593    2.6423    0.0000 H   0  0  0  0  0  0  0  0  0  0  0  0
    4.6608    3.3326    0.0000 H   0  0  0  0  0  0  0  0  0  0  0  0
    3.8927    3.7869    0.0000 H   0  0  0  0  0  0  0  0  0  0  0  0
    3.0457    3.5600    0.0000 H   0  0  0  0  0  0  0  0  0  0  0  0
    3.2727    2.7131    0.0000 H   0  0  0  0  0  0  0  0  0  0  0  0
    3.9389   -3.1594    0.0000 H   0  0  0  0  0  0  0  0  0  0  0  0
    2.5402   -0.7368    0.0000 H   0  0  0  0  0  0  0  0  0  0  0  0
    2.2478   -3.5188    0.0000 H   0  0  0  0  0  0  0  0  0  0  0  0
  1 21  1  0  0  0  0
  1 22  1  0  0  0  0
  2  6  1  0  0  0  0
  2  7  1  0  0  0  0
  2 10  1  0  0  0  0
  3  8  1  0  0  0  0
  3  9  1  0  0  0  0
  3 11  1  0  0  0  0
  4 10  2  0  0  0  0
  4 12  1  0  0  0  0
  5 10  1  0  0  0  0
  5 15  2  0  0  0  0
  6  8  1  0  0  0  0
  6 23  1  0  0  0  0
  6 24  1  0  0  0  0
  7  9  1  0  0  0  0
  7 25  1  0  0  0  0
  7 26  1  0  0  0  0
  8 27  1  0  0  0  0
  8 28  1  0  0  0  0
  9 29  1  0  0  0  0
  9 30  1  0  0  0  0
 11 31  1  0  0  0  0
 11 32  1  0  0  0  0
 11 33  1  0  0  0  0
 12 13  1  0  0  0  0
 12 16  2  0  0  0  0
 13 14  1  0  0  0  0
 13 34  1  0  0  0  0
 13 35  1  0  0  0  0
 14 17  1  0  0  0  0
 14 36  1  0  0  0  0
 14 37  1  0  0  0  0
 15 16  1  0  0  0  0
 15 18  1  0  0  0  0
 16 38  1  0  0  0  0
 17 19  1  0  0  0  0
 17 39  1  0  0  0  0
 17 40  1  0  0  0  0
 18 20  1  0  0  0  0
 18 21  2  0  0  0  0
 19 41  1  0  0  0  0
 19 42  1  0  0  0  0
 19 43  1  0  0  0  0
 20 22  2  0  0  0  0
 20 44  1  0  0  0  0
 21 45  1  0  0  0  0
 22 46  1  0  0  0  0
M  END
> <PUBCHEM_COMPOUND_CID>
132525570

> <PUBCHEM_COMPOUND_CANONICALIZED>
1

> <PUBCHEM_CACTVS_COMPLEXITY>
333

> <PUBCHEM_CACTVS_HBOND_ACCEPTOR>
5

> <PUBCHEM_CACTVS_HBOND_DONOR>
0

> <PUBCHEM_CACTVS_ROTATABLE_BOND>
5

> <PUBCHEM_CACTVS_SUBSKEYS>
AAADceB7oAAAAAAAAAAAAAAAAAAAASAAAAAsWAAAAAAAAAAB4AAAHgAAAAAADAjhngYzlJcIFECoAyxy5ACCiCklIqAJmCE+bNiMbrrE/duWPSjuwBPI6ae82eOeAAAAAAAAAAAAAAAAAAAAAAAAAAAAAA==

> <PUBCHEM_IUPAC_OPENEYE_NAME>
4-butyl-6-(3-furyl)-2-(4-methylpiperazin-1-yl)pyrimidine

> <PUBCHEM_IUPAC_CAS_NAME>
4-butyl-6-(3-furanyl)-2-(4-methyl-1-piperazinyl)pyrimidine

> <PUBCHEM_IUPAC_NAME_MARKUP>
4-butyl-6-(furan-3-yl)-2-(4-methylpiperazin-1-yl)pyrimidine

> <PUBCHEM_IUPAC_NAME>
4-butyl-6-(furan-3-yl)-2-(4-methylpiperazin-1-yl)pyrimidine

> <PUBCHEM_IUPAC_SYSTEMATIC_NAME>
4-butyl-6-(furan-3-yl)-2-(4-methylpiperazin-1-yl)pyrimidine

> <PUBCHEM_IUPAC_TRADITIONAL_NAME>
4-butyl-6-(3-furyl)-2-(4-methylpiperazino)pyrimidine

> <PUBCHEM_IUPAC_INCHI>
InChI=1S/C17H24N4O/c1-3-4-5-15-12-16(14-6-11-22-13-14)19-17(18-15)21-9-7-20(2)8-10-21/h6,11-13H,3-5,7-10H2,1-2H3

> <PUBCHEM_IUPAC_INCHIKEY>
HLPZIBGYIXVOLZ-UHFFFAOYSA-N

> <PUBCHEM_XLOGP3_AA>
2.9

> <PUBCHEM_EXACT_MASS>
300.19501140

> <PUBCHEM_MOLECULAR_FORMULA>
C17H24N4O

> <PUBCHEM_MOLECULAR_WEIGHT>
300.4

> <PUBCHEM_OPENEYE_CAN_SMILES>
CCCCC1=CC(=NC(=N1)N2CCN(CC2)C)C3=COC=C3

> <PUBCHEM_OPENEYE_ISO_SMILES>
CCCCC1=CC(=NC(=N1)N2CCN(CC2)C)C3=COC=C3

> <PUBCHEM_CACTVS_TPSA>
45.4

> <PUBCHEM_MONOISOTOPIC_WEIGHT>
300.19501140

> <PUBCHEM_TOTAL_CHARGE>
0

> <PUBCHEM_HEAVY_ATOM_COUNT>
22

> <PUBCHEM_ATOM_DEF_STEREO_COUNT>
0

> <PUBCHEM_ATOM_UDEF_STEREO_COUNT>
0

> <PUBCHEM_BOND_DEF_STEREO_COUNT>
0

> <PUBCHEM_BOND_UDEF_STEREO_COUNT>
0

> <PUBCHEM_ISOTOPIC_ATOM_COUNT>
0

> <PUBCHEM_COMPONENT_COUNT>
1

> <PUBCHEM_CACTVS_TAUTO_COUNT>
-1

> <PUBCHEM_COORDINATE_TYPE>
1
5
255

> <PUBCHEM_BONDANNOTATIONS>
1  21  8
1  22  8
12  16  8
15  16  8
18  20  8
18  21  8
20  22  8
4  10  8
4  12  8
5  10  8
5  15  8

$$$$
