44589180
  -OEChem-09292322502D

 60 63  0     0  0  0  0  0  0999 V2000
    2.0000    4.0000    0.0000 F   0  0  0  0  0  0  0  0  0  0  0  0
    3.7320    2.0000    0.0000 O   0  0  0  0  0  0  0  0  0  0  0  0
   12.3923   -1.0000    0.0000 O   0  0  0  0  0  0  0  0  0  0  0  0
   16.5202   -3.0000    0.0000 O   0  0  0  0  0  0  0  0  0  0  0  0
    7.1962   -2.0000    0.0000 N   0  0  0  0  0  0  0  0  0  0  0  0
    5.4641   -1.0000    0.0000 N   0  0  0  0  0  0  0  0  0  0  0  0
   11.5263   -2.5000    0.0000 N   0  0  0  0  0  0  0  0  0  0  0  0
   15.9366   -2.1953    0.0000 N   0  0  0  0  0  0  0  0  0  0  0  0
   15.9366   -3.8047    0.0000 N   0  0  0  0  0  0  0  0  0  0  0  0
    7.1962   -1.0000    0.0000 C   0  0  0  0  0  0  0  0  0  0  0  0
    6.3301   -2.5000    0.0000 C   0  0  0  0  0  0  0  0  0  0  0  0
    6.3301   -0.5000    0.0000 C   0  0  0  0  0  0  0  0  0  0  0  0
    5.4641   -2.0000    0.0000 C   0  0  0  0  0  0  0  0  0  0  0  0
    8.0622   -2.5000    0.0000 C   0  0  0  0  0  0  0  0  0  0  0  0
    8.9282   -2.0000    0.0000 C   0  0  0  0  0  0  0  0  0  0  0  0
    4.5981   -0.5000    0.0000 C   0  0  0  0  0  0  0  0  0  0  0  0
    9.7942   -2.5000    0.0000 C   0  0  0  0  0  0  0  0  0  0  0  0
   10.6603   -2.0000    0.0000 C   0  0  0  0  0  0  0  0  0  0  0  0
    4.5981    0.5000    0.0000 C   0  0  0  0  0  0  0  0  0  0  0  0
    3.7320   -1.0000    0.0000 C   0  0  0  0  0  0  0  0  0  0  0  0
    3.7320    1.0000    0.0000 C   0  0  0  0  0  0  0  0  0  0  0  0
    2.8660   -0.5000    0.0000 C   0  0  0  0  0  0  0  0  0  0  0  0
    2.8660    0.5000    0.0000 C   0  0  0  0  0  0  0  0  0  0  0  0
   12.3923   -2.0000    0.0000 C   0  0  0  0  0  0  0  0  0  0  0  0
   13.2583   -2.5000    0.0000 C   0  0  0  0  0  0  0  0  0  0  0  0
    2.8660    2.5000    0.0000 C   0  0  0  0  0  0  0  0  0  0  0  0
   14.1244   -2.0000    0.0000 C   0  0  0  0  0  0  0  0  0  0  0  0
   13.2583   -3.5000    0.0000 C   0  0  0  0  0  0  0  0  0  0  0  0
   14.9904   -2.5000    0.0000 C   0  0  0  0  0  0  0  0  0  0  0  0
    2.8660    3.5000    0.0000 C   0  0  0  0  0  0  0  0  0  0  0  0
   14.1244   -4.0000    0.0000 C   0  0  0  0  0  0  0  0  0  0  0  0
   14.9904   -3.5000    0.0000 C   0  0  0  0  0  0  0  0  0  0  0  0
    7.8067   -1.1077    0.0000 H   0  0  0  0  0  0  0  0  0  0  0  0
    7.4082   -0.4174    0.0000 H   0  0  0  0  0  0  0  0  0  0  0  0
    5.9316   -2.9750    0.0000 H   0  0  0  0  0  0  0  0  0  0  0  0
    6.7287   -2.9750    0.0000 H   0  0  0  0  0  0  0  0  0  0  0  0
    6.7287   -0.0251    0.0000 H   0  0  0  0  0  0  0  0  0  0  0  0
    5.9316   -0.0251    0.0000 H   0  0  0  0  0  0  0  0  0  0  0  0
    4.8535   -1.8923    0.0000 H   0  0  0  0  0  0  0  0  0  0  0  0
    5.2520   -2.5826    0.0000 H   0  0  0  0  0  0  0  0  0  0  0  0
    7.6636   -2.9750    0.0000 H   0  0  0  0  0  0  0  0  0  0  0  0
    8.4607   -2.9750    0.0000 H   0  0  0  0  0  0  0  0  0  0  0  0
    9.3267   -1.5250    0.0000 H   0  0  0  0  0  0  0  0  0  0  0  0
    8.5297   -1.5250    0.0000 H   0  0  0  0  0  0  0  0  0  0  0  0
    9.3957   -2.9750    0.0000 H   0  0  0  0  0  0  0  0  0  0  0  0
   10.1928   -2.9750    0.0000 H   0  0  0  0  0  0  0  0  0  0  0  0
   11.0588   -1.5250    0.0000 H   0  0  0  0  0  0  0  0  0  0  0  0
   10.2617   -1.5250    0.0000 H   0  0  0  0  0  0  0  0  0  0  0  0
    5.1350    0.8100    0.0000 H   0  0  0  0  0  0  0  0  0  0  0  0
    3.7320   -1.6200    0.0000 H   0  0  0  0  0  0  0  0  0  0  0  0
    2.3291   -0.8100    0.0000 H   0  0  0  0  0  0  0  0  0  0  0  0
   11.5263   -3.1200    0.0000 H   0  0  0  0  0  0  0  0  0  0  0  0
    2.3291    0.8100    0.0000 H   0  0  0  0  0  0  0  0  0  0  0  0
    2.2554    2.6077    0.0000 H   0  0  0  0  0  0  0  0  0  0  0  0
    2.6540    1.9174    0.0000 H   0  0  0  0  0  0  0  0  0  0  0  0
   14.1244   -1.3800    0.0000 H   0  0  0  0  0  0  0  0  0  0  0  0
   12.7214   -3.8100    0.0000 H   0  0  0  0  0  0  0  0  0  0  0  0
    3.4766    3.3923    0.0000 H   0  0  0  0  0  0  0  0  0  0  0  0
    3.0781    4.0826    0.0000 H   0  0  0  0  0  0  0  0  0  0  0  0
   14.1244   -4.6200    0.0000 H   0  0  0  0  0  0  0  0  0  0  0  0
  1 30  1  0  0  0  0
  2 21  1  0  0  0  0
  2 26  1  0  0  0  0
  3 24  2  0  0  0  0
  4  8  1  0  0  0  0
  4  9  1  0  0  0  0
  5 10  1  0  0  0  0
  5 11  1  0  0  0  0
  5 14  1  0  0  0  0
  6 12  1  0  0  0  0
  6 13  1  0  0  0  0
  6 16  1  0  0  0  0
  7 18  1  0  0  0  0
  7 24  1  0  0  0  0
  7 52  1  0  0  0  0
  8 29  2  0  0  0  0
  9 32  2  0  0  0  0
 10 12  1  0  0  0  0
 10 33  1  0  0  0  0
 10 34  1  0  0  0  0
 11 13  1  0  0  0  0
 11 35  1  0  0  0  0
 11 36  1  0  0  0  0
 12 37  1  0  0  0  0
 12 38  1  0  0  0  0
 13 39  1  0  0  0  0
 13 40  1  0  0  0  0
 14 15  1  0  0  0  0
 14 41  1  0  0  0  0
 14 42  1  0  0  0  0
 15 17  1  0  0  0  0
 15 43  1  0  0  0  0
 15 44  1  0  0  0  0
 16 19  2  0  0  0  0
 16 20  1  0  0  0  0
 17 18  1  0  0  0  0
 17 45  1  0  0  0  0
 17 46  1  0  0  0  0
 18 47  1  0  0  0  0
 18 48  1  0  0  0  0
 19 21  1  0  0  0  0
 19 49  1  0  0  0  0
 20 22  2  0  0  0  0
 20 50  1  0  0  0  0
 21 23  2  0  0  0  0
 22 23  1  0  0  0  0
 22 51  1  0  0  0  0
 23 53  1  0  0  0  0
 24 25  1  0  0  0  0
 25 27  2  0  0  0  0
 25 28  1  0  0  0  0
 26 30  1  0  0  0  0
 26 54  1  0  0  0  0
 26 55  1  0  0  0  0
 27 29  1  0  0  0  0
 27 56  1  0  0  0  0
 28 31  2  0  0  0  0
 28 57  1  0  0  0  0
 29 32  1  0  0  0  0
 30 58  1  0  0  0  0
 30 59  1  0  0  0  0
 31 32  1  0  0  0  0
 31 60  1  0  0  0  0
M  END
> <PUBCHEM_COMPOUND_CID>
44589180

> <PUBCHEM_COMPOUND_CANONICALIZED>
1

> <PUBCHEM_CACTVS_COMPLEXITY>
578

> <PUBCHEM_CACTVS_HBOND_ACCEPTOR>
8

> <PUBCHEM_CACTVS_HBOND_DONOR>
1

> <PUBCHEM_CACTVS_ROTATABLE_BOND>
10

> <PUBCHEM_CACTVS_SUBSKEYS>
AAADceB7sQAAAAAAAAAAAAAAAAAAAWAAAAA8YIAAAAAAAFgB9AAAHwAUAAAADAzhngYwxrPQBACpAyVyUgCCCAQlMgAomKE+fNoMZrLEtZuWOSjm1pnI6Yec2QOeCAAAQgAAACAQAACEAAAAQAAAAAAAAA==

> <PUBCHEM_IUPAC_OPENEYE_NAME>
N-[4-[4-[3-(2-fluoroethoxy)phenyl]piperazin-1-yl]butyl]-2,1,3-benzoxadiazole-5-carboxamide

> <PUBCHEM_IUPAC_CAS_NAME>
N-[4-[4-[3-(2-fluoroethoxy)phenyl]-1-piperazinyl]butyl]-2,1,3-benzoxadiazole-5-carboxamide

> <PUBCHEM_IUPAC_NAME_MARKUP>
<I>N</I>-[4-[4-[3-(2-fluoroethoxy)phenyl]piperazin-1-yl]butyl]-2,1,3-benzoxadiazole-5-carboxamide

> <PUBCHEM_IUPAC_NAME>
N-[4-[4-[3-(2-fluoroethoxy)phenyl]piperazin-1-yl]butyl]-2,1,3-benzoxadiazole-5-carboxamide

> <PUBCHEM_IUPAC_SYSTEMATIC_NAME>
N-[4-[4-[3-(2-fluoranylethoxy)phenyl]piperazin-1-yl]butyl]-2,1,3-benzoxadiazole-5-carboxamide

> <PUBCHEM_IUPAC_TRADITIONAL_NAME>
N-[4-[4-[3-(2-fluoroethoxy)phenyl]piperazino]butyl]benzofurazan-5-carboxamide

> <PUBCHEM_IUPAC_INCHI>
InChI=1S/C23H28FN5O3/c24-8-15-31-20-5-3-4-19(17-20)29-13-11-28(12-14-29)10-2-1-9-25-23(30)18-6-7-21-22(16-18)27-32-26-21/h3-7,16-17H,1-2,8-15H2,(H,25,30)

> <PUBCHEM_IUPAC_INCHIKEY>
BCWFLMWROQYMGK-UHFFFAOYSA-N

> <PUBCHEM_XLOGP3_AA>
3.1

> <PUBCHEM_EXACT_MASS>
441.21761793

> <PUBCHEM_MOLECULAR_FORMULA>
C23H28FN5O3

> <PUBCHEM_MOLECULAR_WEIGHT>
441.5

> <PUBCHEM_OPENEYE_CAN_SMILES>
C1CN(CCN1CCCCNC(=O)C2=CC3=NON=C3C=C2)C4=CC(=CC=C4)OCCF

> <PUBCHEM_OPENEYE_ISO_SMILES>
C1CN(CCN1CCCCNC(=O)C2=CC3=NON=C3C=C2)C4=CC(=CC=C4)OCCF

> <PUBCHEM_CACTVS_TPSA>
83.7

> <PUBCHEM_MONOISOTOPIC_WEIGHT>
441.21761793

> <PUBCHEM_TOTAL_CHARGE>
0

> <PUBCHEM_HEAVY_ATOM_COUNT>
32

> <PUBCHEM_ATOM_DEF_STEREO_COUNT>
0

> <PUBCHEM_ATOM_UDEF_STEREO_COUNT>
0

> <PUBCHEM_BOND_DEF_STEREO_COUNT>
0

> <PUBCHEM_BOND_UDEF_STEREO_COUNT>
0

> <PUBCHEM_ISOTOPIC_ATOM_COUNT>
0

> <PUBCHEM_COMPONENT_COUNT>
1

> <PUBCHEM_CACTVS_TAUTO_COUNT>
-1

> <PUBCHEM_COORDINATE_TYPE>
1
5
255

> <PUBCHEM_BONDANNOTATIONS>
16  19  8
16  20  8
19  21  8
20  22  8
21  23  8
22  23  8
25  27  8
25  28  8
27  29  8
28  31  8
29  32  8
31  32  8
4  8  8
4  9  8
8  29  8
9  32  8

$$$$
