44336003
  -OEChem-09292322152D

 59 62  0     1  0  0  0  0  0999 V2000
    8.9962   -4.7673    0.0000 Cl  0  0  0  0  0  0  0  0  0  0  0  0
    3.8000    1.2327    0.0000 O   0  0  0  0  0  0  0  0  0  0  0  0
    4.6660    2.7327    0.0000 N   0  0  0  0  0  0  0  0  0  0  0  0
    5.5321    0.2327    0.0000 N   0  0  0  0  0  0  0  0  0  0  0  0
    5.5321   -1.7673    0.0000 N   0  0  0  0  0  0  0  0  0  0  0  0
    3.8000    4.2327    0.0000 C   0  0  3  0  0  0  0  0  0  0  0  0
    3.8000    3.2327    0.0000 C   0  0  3  0  0  0  0  0  0  0  0  0
    2.9061    4.7673    0.0000 C   0  0  0  0  0  0  0  0  0  0  0  0
    4.6660    4.7327    0.0000 C   0  0  0  0  0  0  0  0  0  0  0  0
    2.9061    2.6980    0.0000 C   0  0  0  0  0  0  0  0  0  0  0  0
    2.0000    4.2535    0.0000 C   0  0  0  0  0  0  0  0  0  0  0  0
    2.0000    3.2118    0.0000 C   0  0  0  0  0  0  0  0  0  0  0  0
    5.5321    4.2327    0.0000 C   0  0  0  0  0  0  0  0  0  0  0  0
    5.5321    3.2327    0.0000 C   0  0  0  0  0  0  0  0  0  0  0  0
    4.6660    1.7327    0.0000 C   0  0  0  0  0  0  0  0  0  0  0  0
    5.5321    1.2327    0.0000 C   0  0  0  0  0  0  0  0  0  0  0  0
    4.6660   -0.2673    0.0000 C   0  0  0  0  0  0  0  0  0  0  0  0
    6.3981   -0.2673    0.0000 C   0  0  0  0  0  0  0  0  0  0  0  0
    4.6660   -1.2673    0.0000 C   0  0  0  0  0  0  0  0  0  0  0  0
    6.3981   -1.2673    0.0000 C   0  0  0  0  0  0  0  0  0  0  0  0
    5.5321   -2.7673    0.0000 C   0  0  0  0  0  0  0  0  0  0  0  0
    6.3981   -3.2673    0.0000 C   0  0  0  0  0  0  0  0  0  0  0  0
    6.3981   -4.2673    0.0000 C   0  0  0  0  0  0  0  0  0  0  0  0
    7.2641   -2.7673    0.0000 C   0  0  0  0  0  0  0  0  0  0  0  0
    7.2641   -4.7673    0.0000 C   0  0  0  0  0  0  0  0  0  0  0  0
    8.1301   -3.2673    0.0000 C   0  0  0  0  0  0  0  0  0  0  0  0
    8.1301   -4.2673    0.0000 C   0  0  0  0  0  0  0  0  0  0  0  0
    3.8048    4.8526    0.0000 H   0  0  0  0  0  0  0  0  0  0  0  0
    3.8048    2.6127    0.0000 H   0  0  0  0  0  0  0  0  0  0  0  0
    3.3107    5.2371    0.0000 H   0  0  0  0  0  0  0  0  0  0  0  0
    2.5124    5.2463    0.0000 H   0  0  0  0  0  0  0  0  0  0  0  0
    5.0646    5.2076    0.0000 H   0  0  0  0  0  0  0  0  0  0  0  0
    4.2675    5.2076    0.0000 H   0  0  0  0  0  0  0  0  0  0  0  0
    2.5124    2.2190    0.0000 H   0  0  0  0  0  0  0  0  0  0  0  0
    3.3107    2.2282    0.0000 H   0  0  0  0  0  0  0  0  0  0  0  0
    1.7909    4.8372    0.0000 H   0  0  0  0  0  0  0  0  0  0  0  0
    1.3891    4.1474    0.0000 H   0  0  0  0  0  0  0  0  0  0  0  0
    1.3891    3.3180    0.0000 H   0  0  0  0  0  0  0  0  0  0  0  0
    1.7909    2.6282    0.0000 H   0  0  0  0  0  0  0  0  0  0  0  0
    6.1426    4.1250    0.0000 H   0  0  0  0  0  0  0  0  0  0  0  0
    5.7441    4.8153    0.0000 H   0  0  0  0  0  0  0  0  0  0  0  0
    5.7441    2.6501    0.0000 H   0  0  0  0  0  0  0  0  0  0  0  0
    6.1426    3.3403    0.0000 H   0  0  0  0  0  0  0  0  0  0  0  0
    6.1426    1.1250    0.0000 H   0  0  0  0  0  0  0  0  0  0  0  0
    5.7441    1.8153    0.0000 H   0  0  0  0  0  0  0  0  0  0  0  0
    4.4540    0.3153    0.0000 H   0  0  0  0  0  0  0  0  0  0  0  0
    4.0555   -0.3750    0.0000 H   0  0  0  0  0  0  0  0  0  0  0  0
    7.0087   -0.3750    0.0000 H   0  0  0  0  0  0  0  0  0  0  0  0
    6.6101    0.3153    0.0000 H   0  0  0  0  0  0  0  0  0  0  0  0
    4.0555   -1.1597    0.0000 H   0  0  0  0  0  0  0  0  0  0  0  0
    4.4540   -1.8499    0.0000 H   0  0  0  0  0  0  0  0  0  0  0  0
    6.6101   -1.8499    0.0000 H   0  0  0  0  0  0  0  0  0  0  0  0
    7.0087   -1.1597    0.0000 H   0  0  0  0  0  0  0  0  0  0  0  0
    4.9215   -2.6597    0.0000 H   0  0  0  0  0  0  0  0  0  0  0  0
    5.3200   -3.3499    0.0000 H   0  0  0  0  0  0  0  0  0  0  0  0
    5.8612   -4.5773    0.0000 H   0  0  0  0  0  0  0  0  0  0  0  0
    7.2641   -2.1473    0.0000 H   0  0  0  0  0  0  0  0  0  0  0  0
    7.2641   -5.3873    0.0000 H   0  0  0  0  0  0  0  0  0  0  0  0
    8.6671   -2.9573    0.0000 H   0  0  0  0  0  0  0  0  0  0  0  0
  1 27  1  0  0  0  0
  2 15  2  0  0  0  0
  3  7  1  0  0  0  0
  3 14  1  0  0  0  0
  3 15  1  0  0  0  0
  4 16  1  0  0  0  0
  4 17  1  0  0  0  0
  4 18  1  0  0  0  0
  5 19  1  0  0  0  0
  5 20  1  0  0  0  0
  5 21  1  0  0  0  0
  6  7  1  0  0  0  0
  6  8  1  0  0  0  0
  6  9  1  0  0  0  0
  6 28  1  0  0  0  0
  7 10  1  0  0  0  0
  7 29  1  0  0  0  0
  8 11  1  0  0  0  0
  8 30  1  0  0  0  0
  8 31  1  0  0  0  0
  9 13  1  0  0  0  0
  9 32  1  0  0  0  0
  9 33  1  0  0  0  0
 10 12  1  0  0  0  0
 10 34  1  0  0  0  0
 10 35  1  0  0  0  0
 11 12  1  0  0  0  0
 11 36  1  0  0  0  0
 11 37  1  0  0  0  0
 12 38  1  0  0  0  0
 12 39  1  0  0  0  0
 13 14  1  0  0  0  0
 13 40  1  0  0  0  0
 13 41  1  0  0  0  0
 14 42  1  0  0  0  0
 14 43  1  0  0  0  0
 15 16  1  0  0  0  0
 16 44  1  0  0  0  0
 16 45  1  0  0  0  0
 17 19  1  0  0  0  0
 17 46  1  0  0  0  0
 17 47  1  0  0  0  0
 18 20  1  0  0  0  0
 18 48  1  0  0  0  0
 18 49  1  0  0  0  0
 19 50  1  0  0  0  0
 19 51  1  0  0  0  0
 20 52  1  0  0  0  0
 20 53  1  0  0  0  0
 21 22  1  0  0  0  0
 21 54  1  0  0  0  0
 21 55  1  0  0  0  0
 22 23  2  0  0  0  0
 22 24  1  0  0  0  0
 23 25  1  0  0  0  0
 23 56  1  0  0  0  0
 24 26  2  0  0  0  0
 24 57  1  0  0  0  0
 25 27  2  0  0  0  0
 25 58  1  0  0  0  0
 26 27  1  0  0  0  0
 26 59  1  0  0  0  0
M  END
> <PUBCHEM_COMPOUND_CID>
44336003

> <PUBCHEM_COMPOUND_CANONICALIZED>
1

> <PUBCHEM_CACTVS_COMPLEXITY>
486

> <PUBCHEM_CACTVS_HBOND_ACCEPTOR>
3

> <PUBCHEM_CACTVS_HBOND_DONOR>
0

> <PUBCHEM_CACTVS_ROTATABLE_BOND>
4

> <PUBCHEM_CACTVS_SUBSKEYS>
AAADcfB7IAAEAAAAAAAAAAAAAAAAAAAAAAA8eIEAAAAAAACxAAAAHgIAAAAADSrBmCQwAIMAAACIAiFSEACCAAAgBQAIiACIBogIYCKBkzGUIAhghgCIiAcQgIAOBAAAAAAAAAAIAAAAAAQAAAAAAAAAAA==

> <PUBCHEM_IUPAC_OPENEYE_NAME>
1-(3,4,4a,5,6,7,8,8a-octahydro-2H-quinolin-1-yl)-2-[4-[(4-chlorophenyl)methyl]piperazin-1-yl]ethanone

> <PUBCHEM_IUPAC_CAS_NAME>
1-(3,4,4a,5,6,7,8,8a-octahydro-2H-quinolin-1-yl)-2-[4-[(4-chlorophenyl)methyl]-1-piperazinyl]ethanone

> <PUBCHEM_IUPAC_NAME_MARKUP>
1-(3,4,4<I>a</I>,5,6,7,8,8<I>a</I>-octahydro-2<I>H</I>-quinolin-1-yl)-2-[4-[(4-chlorophenyl)methyl]piperazin-1-yl]ethanone

> <PUBCHEM_IUPAC_NAME>
1-(3,4,4a,5,6,7,8,8a-octahydro-2H-quinolin-1-yl)-2-[4-[(4-chlorophenyl)methyl]piperazin-1-yl]ethanone

> <PUBCHEM_IUPAC_SYSTEMATIC_NAME>
1-(3,4,4a,5,6,7,8,8a-octahydro-2H-quinolin-1-yl)-2-[4-[(4-chlorophenyl)methyl]piperazin-1-yl]ethanone

> <PUBCHEM_IUPAC_TRADITIONAL_NAME>
1-(3,4,4a,5,6,7,8,8a-octahydro-2H-quinolin-1-yl)-2-[4-(4-chlorobenzyl)piperazino]ethanone

> <PUBCHEM_IUPAC_INCHI>
InChI=1S/C22H32ClN3O/c23-20-9-7-18(8-10-20)16-24-12-14-25(15-13-24)17-22(27)26-11-3-5-19-4-1-2-6-21(19)26/h7-10,19,21H,1-6,11-17H2

> <PUBCHEM_IUPAC_INCHIKEY>
WIBZNJPNKFYUFU-UHFFFAOYSA-N

> <PUBCHEM_XLOGP3_AA>
3.9

> <PUBCHEM_EXACT_MASS>
389.2233903

> <PUBCHEM_MOLECULAR_FORMULA>
C22H32ClN3O

> <PUBCHEM_MOLECULAR_WEIGHT>
390.0

> <PUBCHEM_OPENEYE_CAN_SMILES>
C1CCC2C(C1)CCCN2C(=O)CN3CCN(CC3)CC4=CC=C(C=C4)Cl

> <PUBCHEM_OPENEYE_ISO_SMILES>
C1CCC2C(C1)CCCN2C(=O)CN3CCN(CC3)CC4=CC=C(C=C4)Cl

> <PUBCHEM_CACTVS_TPSA>
26.8

> <PUBCHEM_MONOISOTOPIC_WEIGHT>
389.2233903

> <PUBCHEM_TOTAL_CHARGE>
0

> <PUBCHEM_HEAVY_ATOM_COUNT>
27

> <PUBCHEM_ATOM_DEF_STEREO_COUNT>
0

> <PUBCHEM_ATOM_UDEF_STEREO_COUNT>
2

> <PUBCHEM_BOND_DEF_STEREO_COUNT>
0

> <PUBCHEM_BOND_UDEF_STEREO_COUNT>
0

> <PUBCHEM_ISOTOPIC_ATOM_COUNT>
0

> <PUBCHEM_COMPONENT_COUNT>
1

> <PUBCHEM_CACTVS_TAUTO_COUNT>
-1

> <PUBCHEM_COORDINATE_TYPE>
1
5
255

> <PUBCHEM_BONDANNOTATIONS>
22  23  8
22  24  8
23  25  8
24  26  8
25  27  8
26  27  8
6  8  3
7  10  3

$$$$
