46180331
  -OEChem-09292322482D

 52 56  0     1  0  0  0  0  0999 V2000
    3.8769   -2.3826    0.0000 O   0  0  0  0  0  0  0  0  0  0  0  0
    4.6673    2.3396    0.0000 N   0  0  3  0  0  0  0  0  0  0  0  0
    4.6660    1.3478    0.0000 C   0  0  1  0  0  0  0  0  0  0  0  0
    3.8000    0.8478    0.0000 C   0  0  0  0  0  0  0  0  0  0  0  0
    5.5321    0.8478    0.0000 C   0  0  0  0  0  0  0  0  0  0  0  0
    4.6660   -0.6522    0.0000 C   0  0  0  0  0  0  0  0  0  0  0  0
    3.8000   -0.1522    0.0000 C   0  0  0  0  0  0  0  0  0  0  0  0
    5.5321   -0.1522    0.0000 C   0  0  0  0  0  0  0  0  0  0  0  0
    3.8152    2.8470    0.0000 C   0  0  0  0  0  0  0  0  0  0  0  0
    2.9061    1.3825    0.0000 C   0  0  0  0  0  0  0  0  0  0  0  0
    2.9439    2.3735    0.0000 C   0  0  0  0  0  0  0  0  0  0  0  0
    4.6500   -1.6937    0.0000 C   0  0  0  0  0  0  0  0  0  0  0  0
    4.2916   -3.3314    0.0000 C   0  0  0  0  0  0  0  0  0  0  0  0
    5.5480   -2.2214    0.0000 C   0  0  0  0  0  0  0  0  0  0  0  0
    5.3223   -3.2320    0.0000 C   0  0  0  0  0  0  0  0  0  0  0  0
    5.5370    2.8331    0.0000 C   0  0  0  0  0  0  0  0  0  0  0  0
    6.4421   -0.6590    0.0000 C   0  0  0  0  0  0  0  0  0  0  0  0
    2.9061   -0.6868    0.0000 C   0  0  0  0  0  0  0  0  0  0  0  0
    6.4501   -1.7006    0.0000 C   0  0  0  0  0  0  0  0  0  0  0  0
    2.0000    0.8687    0.0000 C   0  0  0  0  0  0  0  0  0  0  0  0
    5.5444    3.8331    0.0000 C   0  0  0  0  0  0  0  0  0  0  0  0
    4.3885   -4.3267    0.0000 C   0  0  0  0  0  0  0  0  0  0  0  0
    3.3750   -3.7311    0.0000 C   0  0  0  0  0  0  0  0  0  0  0  0
    2.0000   -0.1730    0.0000 C   0  0  0  0  0  0  0  0  0  0  0  0
    6.4141    4.3267    0.0000 C   0  0  0  0  0  0  0  0  0  0  0  0
    5.4024    1.7724    0.0000 H   0  0  0  0  0  0  0  0  0  0  0  0
    6.1426    0.7402    0.0000 H   0  0  0  0  0  0  0  0  0  0  0  0
    5.7441    1.4305    0.0000 H   0  0  0  0  0  0  0  0  0  0  0  0
    4.2221    3.3148    0.0000 H   0  0  0  0  0  0  0  0  0  0  0  0
    3.4271    3.3305    0.0000 H   0  0  0  0  0  0  0  0  0  0  0  0
    2.7494    2.9622    0.0000 H   0  0  0  0  0  0  0  0  0  0  0  0
    2.3300    2.2867    0.0000 H   0  0  0  0  0  0  0  0  0  0  0  0
    5.3166   -3.8520    0.0000 H   0  0  0  0  0  0  0  0  0  0  0  0
    5.9382   -3.3028    0.0000 H   0  0  0  0  0  0  0  0  0  0  0  0
    5.7447    2.2490    0.0000 H   0  0  0  0  0  0  0  0  0  0  0  0
    6.1483    2.9363    0.0000 H   0  0  0  0  0  0  0  0  0  0  0  0
    6.9754   -0.3428    0.0000 H   0  0  0  0  0  0  0  0  0  0  0  0
    2.9132   -1.3068    0.0000 H   0  0  0  0  0  0  0  0  0  0  0  0
    6.9882   -2.0085    0.0000 H   0  0  0  0  0  0  0  0  0  0  0  0
    1.4643    1.1807    0.0000 H   0  0  0  0  0  0  0  0  0  0  0  0
    5.3366    4.4173    0.0000 H   0  0  0  0  0  0  0  0  0  0  0  0
    4.9330    3.7300    0.0000 H   0  0  0  0  0  0  0  0  0  0  0  0
    3.7714   -4.3867    0.0000 H   0  0  0  0  0  0  0  0  0  0  0  0
    4.4485   -4.9438    0.0000 H   0  0  0  0  0  0  0  0  0  0  0  0
    5.0056   -4.2666    0.0000 H   0  0  0  0  0  0  0  0  0  0  0  0
    3.1272   -3.1627    0.0000 H   0  0  0  0  0  0  0  0  0  0  0  0
    2.8066   -3.9789    0.0000 H   0  0  0  0  0  0  0  0  0  0  0  0
    3.6228   -4.2994    0.0000 H   0  0  0  0  0  0  0  0  0  0  0  0
    1.4643   -0.4850    0.0000 H   0  0  0  0  0  0  0  0  0  0  0  0
    6.7201    3.7875    0.0000 H   0  0  0  0  0  0  0  0  0  0  0  0
    6.9533    4.6327    0.0000 H   0  0  0  0  0  0  0  0  0  0  0  0
    6.1081    4.8659    0.0000 H   0  0  0  0  0  0  0  0  0  0  0  0
  1 12  1  0  0  0  0
  1 13  1  0  0  0  0
  2  3  1  0  0  0  0
  2  9  1  0  0  0  0
  2 16  1  0  0  0  0
  3  4  1  0  0  0  0
  3  5  1  0  0  0  0
  3 26  1  1  0  0  0
  4  7  1  0  0  0  0
  4 10  2  0  0  0  0
  5  8  1  0  0  0  0
  5 27  1  0  0  0  0
  5 28  1  0  0  0  0
  6  7  1  0  0  0  0
  6  8  2  0  0  0  0
  6 12  1  0  0  0  0
  7 18  2  0  0  0  0
  8 17  1  0  0  0  0
  9 11  1  0  0  0  0
  9 29  1  0  0  0  0
  9 30  1  0  0  0  0
 10 11  1  0  0  0  0
 10 20  1  0  0  0  0
 11 31  1  0  0  0  0
 11 32  1  0  0  0  0
 12 14  2  0  0  0  0
 13 15  1  0  0  0  0
 13 22  1  0  0  0  0
 13 23  1  0  0  0  0
 14 15  1  0  0  0  0
 14 19  1  0  0  0  0
 15 33  1  0  0  0  0
 15 34  1  0  0  0  0
 16 21  1  0  0  0  0
 16 35  1  0  0  0  0
 16 36  1  0  0  0  0
 17 19  2  0  0  0  0
 17 37  1  0  0  0  0
 18 24  1  0  0  0  0
 18 38  1  0  0  0  0
 19 39  1  0  0  0  0
 20 24  2  0  0  0  0
 20 40  1  0  0  0  0
 21 25  1  0  0  0  0
 21 41  1  0  0  0  0
 21 42  1  0  0  0  0
 22 43  1  0  0  0  0
 22 44  1  0  0  0  0
 22 45  1  0  0  0  0
 23 46  1  0  0  0  0
 23 47  1  0  0  0  0
 23 48  1  0  0  0  0
 24 49  1  0  0  0  0
 25 50  1  0  0  0  0
 25 51  1  0  0  0  0
 25 52  1  0  0  0  0
M  END
> <PUBCHEM_COMPOUND_CID>
46180331

> <PUBCHEM_COMPOUND_CANONICALIZED>
1

> <PUBCHEM_CACTVS_COMPLEXITY>
502

> <PUBCHEM_CACTVS_HBOND_ACCEPTOR>
2

> <PUBCHEM_CACTVS_HBOND_DONOR>
0

> <PUBCHEM_CACTVS_ROTATABLE_BOND>
2

> <PUBCHEM_CACTVS_SUBSKEYS>
AAADceB6IAAAAAAAAAAAAAAAAAAAASAAAAA8YMEAAAAAAEjxQAAAHgAAAAAADGzBmAQyBoMABACAAiBCAACCCAAgIAAIiAAMDIgMJiKEsRuGOCjkwBGIqAeQ0PMOwAADAAAYAACQAAaAADQAAAAAAAAAAA==

> <PUBCHEM_IUPAC_OPENEYE_NAME>
(12R)-5,5-dimethyl-13-propyl-4-oxa-13-azapentacyclo[10.7.1.02,10.03,7.016,20]icosa-1(19),2(10),3(7),8,16(20),17-hexaene

> <PUBCHEM_IUPAC_CAS_NAME>
(12R)-5,5-dimethyl-13-propyl-4-oxa-13-azapentacyclo[10.7.1.02,10.03,7.016,20]eicosa-1(19),2(10),3(7),8,16(20),17-hexaene

> <PUBCHEM_IUPAC_NAME_MARKUP>
(12<I>R</I>)-5,5-dimethyl-13-propyl-4-oxa-13-azapentacyclo[10.7.1.0<SUP>2,10</SUP>.0<SUP>3,7</SUP>.0<SUP>16,20</SUP>]icosa-1(19),2(10),3(7),8,16(20),17-hexaene

> <PUBCHEM_IUPAC_NAME>
(12R)-5,5-dimethyl-13-propyl-4-oxa-13-azapentacyclo[10.7.1.02,10.03,7.016,20]icosa-1(19),2(10),3(7),8,16(20),17-hexaene

> <PUBCHEM_IUPAC_SYSTEMATIC_NAME>
(12R)-5,5-dimethyl-13-propyl-4-oxa-13-azapentacyclo[10.7.1.02,10.03,7.016,20]icosa-1(19),2(10),3(7),8,16(20),17-hexaene

> <PUBCHEM_IUPAC_TRADITIONAL_NAME>
(12R)-5,5-dimethyl-13-propyl-4-oxa-13-azapentacyclo[10.7.1.02,10.03,7.016,20]eicosa-1(19),2(10),3(7),8,16(20),17-hexaene

> <PUBCHEM_IUPAC_INCHI>
InChI=1S/C23H27NO/c1-4-11-24-12-10-15-6-5-7-18-20(15)19(24)13-16-8-9-17-14-23(2,3)25-22(17)21(16)18/h5-9,19H,4,10-14H2,1-3H3/t19-/m1/s1

> <PUBCHEM_IUPAC_INCHIKEY>
CGBZFQGLUFWQAF-LJQANCHMSA-N

> <PUBCHEM_XLOGP3_AA>
5

> <PUBCHEM_EXACT_MASS>
333.209264485

> <PUBCHEM_MOLECULAR_FORMULA>
C23H27NO

> <PUBCHEM_MOLECULAR_WEIGHT>
333.5

> <PUBCHEM_OPENEYE_CAN_SMILES>
CCCN1CCC2=C3C1CC4=C(C3=CC=C2)C5=C(CC(O5)(C)C)C=C4

> <PUBCHEM_OPENEYE_ISO_SMILES>
CCCN1CCC2=C3[C@H]1CC4=C(C3=CC=C2)C5=C(CC(O5)(C)C)C=C4

> <PUBCHEM_CACTVS_TPSA>
12.5

> <PUBCHEM_MONOISOTOPIC_WEIGHT>
333.209264485

> <PUBCHEM_TOTAL_CHARGE>
0

> <PUBCHEM_HEAVY_ATOM_COUNT>
25

> <PUBCHEM_ATOM_DEF_STEREO_COUNT>
1

> <PUBCHEM_ATOM_UDEF_STEREO_COUNT>
0

> <PUBCHEM_BOND_DEF_STEREO_COUNT>
0

> <PUBCHEM_BOND_UDEF_STEREO_COUNT>
0

> <PUBCHEM_ISOTOPIC_ATOM_COUNT>
0

> <PUBCHEM_COMPONENT_COUNT>
1

> <PUBCHEM_CACTVS_TAUTO_COUNT>
-1

> <PUBCHEM_COORDINATE_TYPE>
1
5
255

> <PUBCHEM_BONDANNOTATIONS>
10  20  8
12  14  8
14  19  8
17  19  8
18  24  8
20  24  8
3  26  5
4  10  8
4  7  8
6  12  8
6  8  8
7  18  8
8  17  8

$$$$
