11732013
  -OEChem-09292322112D

 54 58  0     0  0  0  0  0  0999 V2000
    2.0000   -2.1612    0.0000 Cl  0  0  0  0  0  0  0  0  0  0  0  0
    4.0358    1.4053    0.0000 N   0  0  0  0  0  0  0  0  0  0  0  0
    4.9036   -0.3966    0.0000 N   0  0  0  0  0  0  0  0  0  0  0  0
    6.3374   -1.2976    0.0000 N   0  0  0  0  0  0  0  0  0  0  0  0
    5.8374   -3.4882    0.0000 N   0  0  0  0  0  0  0  0  0  0  0  0
    7.4909   -3.7746    0.0000 N   0  0  0  0  0  0  0  0  0  0  0  0
    3.6019    2.3063    0.0000 C   0  0  0  0  0  0  0  0  0  0  0  0
    4.1652    3.1325    0.0000 C   0  0  0  0  0  0  0  0  0  0  0  0
    2.6047    2.3810    0.0000 C   0  0  0  0  0  0  0  0  0  0  0  0
    3.7314    4.0335    0.0000 C   0  0  0  0  0  0  0  0  0  0  0  0
    2.1708    3.2820    0.0000 C   0  0  0  0  0  0  0  0  0  0  0  0
    5.0330    1.3306    0.0000 C   0  0  0  0  0  0  0  0  0  0  0  0
    3.4725    0.5791    0.0000 C   0  0  0  0  0  0  0  0  0  0  0  0
    2.7342    4.1082    0.0000 C   0  0  0  0  0  0  0  0  0  0  0  0
    5.4669    0.4296    0.0000 C   0  0  0  0  0  0  0  0  0  0  0  0
    3.9064   -0.3219    0.0000 C   0  0  0  0  0  0  0  0  0  0  0  0
    5.3374   -1.2976    0.0000 C   0  0  0  0  0  0  0  0  0  0  0  0
    4.7139   -2.0794    0.0000 C   0  0  0  0  0  0  0  0  0  0  0  0
    4.9364   -3.0544    0.0000 C   0  0  0  0  0  0  0  0  0  0  0  0
    3.7234   -1.7571    0.0000 C   0  0  0  0  0  0  0  0  0  0  0  0
    6.9609   -2.0794    0.0000 C   0  0  0  0  0  0  0  0  0  0  0  0
    6.7384   -3.0544    0.0000 C   0  0  0  0  0  0  0  0  0  0  0  0
    4.1839   -3.7745    0.0000 C   0  0  0  0  0  0  0  0  0  0  0  0
    2.9544   -2.4596    0.0000 C   0  0  0  0  0  0  0  0  0  0  0  0
    3.1862   -3.4752    0.0000 C   0  0  0  0  0  0  0  0  0  0  0  0
    7.9514   -1.7571    0.0000 C   0  0  0  0  0  0  0  0  0  0  0  0
    8.7204   -2.4597    0.0000 C   0  0  0  0  0  0  0  0  0  0  0  0
    8.4886   -3.4752    0.0000 C   0  0  0  0  0  0  0  0  0  0  0  0
    3.2527    1.7940    0.0000 H   0  0  0  0  0  0  0  0  0  0  0  0
    4.6091    2.6996    0.0000 H   0  0  0  0  0  0  0  0  0  0  0  0
    4.6687    3.4944    0.0000 H   0  0  0  0  0  0  0  0  0  0  0  0
    2.0079    2.2131    0.0000 H   0  0  0  0  0  0  0  0  0  0  0  0
    2.6665    1.7641    0.0000 H   0  0  0  0  0  0  0  0  0  0  0  0
    4.3282    4.2014    0.0000 H   0  0  0  0  0  0  0  0  0  0  0  0
    3.6696    4.6504    0.0000 H   0  0  0  0  0  0  0  0  0  0  0  0
    1.7270    3.7149    0.0000 H   0  0  0  0  0  0  0  0  0  0  0  0
    1.6674    2.9201    0.0000 H   0  0  0  0  0  0  0  0  0  0  0  0
    5.6298    1.4985    0.0000 H   0  0  0  0  0  0  0  0  0  0  0  0
    4.9713    1.9475    0.0000 H   0  0  0  0  0  0  0  0  0  0  0  0
    3.0286    1.0120    0.0000 H   0  0  0  0  0  0  0  0  0  0  0  0
    2.9691    0.2172    0.0000 H   0  0  0  0  0  0  0  0  0  0  0  0
    2.8872    4.7091    0.0000 H   0  0  0  0  0  0  0  0  0  0  0  0
    2.1690    4.3632    0.0000 H   0  0  0  0  0  0  0  0  0  0  0  0
    5.9107   -0.0033    0.0000 H   0  0  0  0  0  0  0  0  0  0  0  0
    5.9703    0.7915    0.0000 H   0  0  0  0  0  0  0  0  0  0  0  0
    3.3095   -0.4898    0.0000 H   0  0  0  0  0  0  0  0  0  0  0  0
    3.9681   -0.9388    0.0000 H   0  0  0  0  0  0  0  0  0  0  0  0
    3.5925   -1.1511    0.0000 H   0  0  0  0  0  0  0  0  0  0  0  0
    5.8374   -4.1082    0.0000 H   0  0  0  0  0  0  0  0  0  0  0  0
    4.3288   -4.3773    0.0000 H   0  0  0  0  0  0  0  0  0  0  0  0
    2.7333   -3.8986    0.0000 H   0  0  0  0  0  0  0  0  0  0  0  0
    8.0824   -1.1511    0.0000 H   0  0  0  0  0  0  0  0  0  0  0  0
    9.3122   -2.2747    0.0000 H   0  0  0  0  0  0  0  0  0  0  0  0
    8.9415   -3.8987    0.0000 H   0  0  0  0  0  0  0  0  0  0  0  0
  1 24  1  0  0  0  0
  2  7  1  0  0  0  0
  2 12  1  0  0  0  0
  2 13  1  0  0  0  0
  3 15  1  0  0  0  0
  3 16  1  0  0  0  0
  3 17  1  0  0  0  0
  4 17  2  0  0  0  0
  4 21  1  0  0  0  0
  5 19  1  0  0  0  0
  5 22  1  0  0  0  0
  5 49  1  0  0  0  0
  6 22  1  0  0  0  0
  6 28  2  0  0  0  0
  7  8  1  0  0  0  0
  7  9  1  0  0  0  0
  7 29  1  0  0  0  0
  8 10  1  0  0  0  0
  8 30  1  0  0  0  0
  8 31  1  0  0  0  0
  9 11  1  0  0  0  0
  9 32  1  0  0  0  0
  9 33  1  0  0  0  0
 10 14  1  0  0  0  0
 10 34  1  0  0  0  0
 10 35  1  0  0  0  0
 11 14  1  0  0  0  0
 11 36  1  0  0  0  0
 11 37  1  0  0  0  0
 12 15  1  0  0  0  0
 12 38  1  0  0  0  0
 12 39  1  0  0  0  0
 13 16  1  0  0  0  0
 13 40  1  0  0  0  0
 13 41  1  0  0  0  0
 14 42  1  0  0  0  0
 14 43  1  0  0  0  0
 15 44  1  0  0  0  0
 15 45  1  0  0  0  0
 16 46  1  0  0  0  0
 16 47  1  0  0  0  0
 17 18  1  0  0  0  0
 18 19  2  0  0  0  0
 18 20  1  0  0  0  0
 19 23  1  0  0  0  0
 20 24  2  0  0  0  0
 20 48  1  0  0  0  0
 21 22  2  0  0  0  0
 21 26  1  0  0  0  0
 23 25  2  0  0  0  0
 23 50  1  0  0  0  0
 24 25  1  0  0  0  0
 25 51  1  0  0  0  0
 26 27  2  0  0  0  0
 26 52  1  0  0  0  0
 27 28  1  0  0  0  0
 27 53  1  0  0  0  0
 28 54  1  0  0  0  0
M  END
> <PUBCHEM_COMPOUND_CID>
11732013

> <PUBCHEM_COMPOUND_CANONICALIZED>
1

> <PUBCHEM_CACTVS_COMPLEXITY>
555

> <PUBCHEM_CACTVS_HBOND_ACCEPTOR>
4

> <PUBCHEM_CACTVS_HBOND_DONOR>
1

> <PUBCHEM_CACTVS_ROTATABLE_BOND>
2

> <PUBCHEM_CACTVS_SUBSKEYS>
AAADceB7gAAEAAAAAAAAAAAAAAAAAAAAAAA8eIEABAAAAAABwAAAHAIQAAAADCrBGiQ98JPIEACgAjZnZACCgCkxFyAJ2CA4dpiIYOLB25GUIAhokALIyCcQgAAOAABAIAACAAAAAIBAAAQAAAAAAAAAAA==

> <PUBCHEM_IUPAC_OPENEYE_NAME>
8-chloro-6-(4-cyclohexylpiperazin-1-yl)-11H-pyrido[2,3-b][1,4]benzodiazepine

> <PUBCHEM_IUPAC_CAS_NAME>
8-chloro-6-(4-cyclohexyl-1-piperazinyl)-11H-pyrido[2,3-b][1,4]benzodiazepine

> <PUBCHEM_IUPAC_NAME_MARKUP>
8-chloro-6-(4-cyclohexylpiperazin-1-yl)-11<I>H</I>-pyrido[2,3-b][1,4]benzodiazepine

> <PUBCHEM_IUPAC_NAME>
8-chloro-6-(4-cyclohexylpiperazin-1-yl)-11H-pyrido[2,3-b][1,4]benzodiazepine

> <PUBCHEM_IUPAC_SYSTEMATIC_NAME>
8-chloranyl-6-(4-cyclohexylpiperazin-1-yl)-11H-pyrido[2,3-b][1,4]benzodiazepine

> <PUBCHEM_IUPAC_TRADITIONAL_NAME>
8-chloro-6-(4-cyclohexylpiperazino)-11H-pyrido[2,3-b][1,4]benzodiazepine

> <PUBCHEM_IUPAC_INCHI>
InChI=1S/C22H26ClN5/c23-16-8-9-19-18(15-16)22(26-20-7-4-10-24-21(20)25-19)28-13-11-27(12-14-28)17-5-2-1-3-6-17/h4,7-10,15,17H,1-3,5-6,11-14H2,(H,24,25)

> <PUBCHEM_IUPAC_INCHIKEY>
YQKVPKZIEDUDMI-UHFFFAOYSA-N

> <PUBCHEM_XLOGP3_AA>
4.1

> <PUBCHEM_EXACT_MASS>
395.1876735

> <PUBCHEM_MOLECULAR_FORMULA>
C22H26ClN5

> <PUBCHEM_MOLECULAR_WEIGHT>
395.9

> <PUBCHEM_OPENEYE_CAN_SMILES>
C1CCC(CC1)N2CCN(CC2)C3=NC4=C(NC5=C3C=C(C=C5)Cl)N=CC=C4

> <PUBCHEM_OPENEYE_ISO_SMILES>
C1CCC(CC1)N2CCN(CC2)C3=NC4=C(NC5=C3C=C(C=C5)Cl)N=CC=C4

> <PUBCHEM_CACTVS_TPSA>
43.8

> <PUBCHEM_MONOISOTOPIC_WEIGHT>
395.1876735

> <PUBCHEM_TOTAL_CHARGE>
0

> <PUBCHEM_HEAVY_ATOM_COUNT>
28

> <PUBCHEM_ATOM_DEF_STEREO_COUNT>
0

> <PUBCHEM_ATOM_UDEF_STEREO_COUNT>
0

> <PUBCHEM_BOND_DEF_STEREO_COUNT>
0

> <PUBCHEM_BOND_UDEF_STEREO_COUNT>
0

> <PUBCHEM_ISOTOPIC_ATOM_COUNT>
0

> <PUBCHEM_COMPONENT_COUNT>
1

> <PUBCHEM_CACTVS_TAUTO_COUNT>
-1

> <PUBCHEM_COORDINATE_TYPE>
1
5
255

> <PUBCHEM_BONDANNOTATIONS>
18  19  8
18  20  8
19  23  8
20  24  8
21  22  8
21  26  8
23  25  8
24  25  8
26  27  8
27  28  8
6  22  8
6  28  8

$$$$
