118726017
  -OEChem-09292322022D

 52 54  0     0  0  0  0  0  0999 V2000
    3.0000    3.1970    0.0000 O   0  0  0  0  0  0  0  0  0  0  0  0
    4.7320    3.1970    0.0000 O   0  0  0  0  0  0  0  0  0  0  0  0
    8.1279   -3.8030    0.0000 O   0  0  0  0  0  0  0  0  0  0  0  0
    3.8660   -0.3030    0.0000 N   0  0  0  0  0  0  0  0  0  0  0  0
    3.8660    1.6970    0.0000 N   0  0  0  0  0  0  0  0  0  0  0  0
    6.5443   -4.6077    0.0000 N   0  0  0  0  0  0  0  0  0  0  0  0
    4.7320    0.1970    0.0000 C   0  0  0  0  0  0  0  0  0  0  0  0
    3.0000    0.1970    0.0000 C   0  0  0  0  0  0  0  0  0  0  0  0
    4.7320    1.1970    0.0000 C   0  0  0  0  0  0  0  0  0  0  0  0
    3.0000    1.1970    0.0000 C   0  0  0  0  0  0  0  0  0  0  0  0
    3.8660   -1.3030    0.0000 C   0  0  0  0  0  0  0  0  0  0  0  0
    4.7320   -1.8030    0.0000 C   0  0  0  0  0  0  0  0  0  0  0  0
    4.7320   -2.8030    0.0000 C   0  0  0  0  0  0  0  0  0  0  0  0
    5.5981   -3.3030    0.0000 C   0  0  0  0  0  0  0  0  0  0  0  0
    3.8660    2.6970    0.0000 C   0  0  0  0  0  0  0  0  0  0  0  0
    6.5443   -2.9982    0.0000 C   0  0  0  0  0  0  0  0  0  0  0  0
    5.5981   -4.3030    0.0000 C   0  0  0  0  0  0  0  0  0  0  0  0
    3.0000    4.1970    0.0000 C   0  0  0  0  0  0  0  0  0  0  0  0
    3.8660   -3.3030    0.0000 C   0  0  0  0  0  0  0  0  0  0  0  0
    7.1279   -3.8030    0.0000 C   0  0  0  0  0  0  0  0  0  0  0  0
    4.7320   -4.8030    0.0000 C   0  0  0  0  0  0  0  0  0  0  0  0
    3.8660   -4.3030    0.0000 C   0  0  0  0  0  0  0  0  0  0  0  0
    3.0000    5.1970    0.0000 C   0  0  0  0  0  0  0  0  0  0  0  0
    2.0000    4.1970    0.0000 C   0  0  0  0  0  0  0  0  0  0  0  0
    4.0000    4.1970    0.0000 C   0  0  0  0  0  0  0  0  0  0  0  0
    4.9441   -0.3856    0.0000 H   0  0  0  0  0  0  0  0  0  0  0  0
    5.3426    0.3047    0.0000 H   0  0  0  0  0  0  0  0  0  0  0  0
    2.3894    0.3047    0.0000 H   0  0  0  0  0  0  0  0  0  0  0  0
    2.7880   -0.3856    0.0000 H   0  0  0  0  0  0  0  0  0  0  0  0
    5.3426    1.0894    0.0000 H   0  0  0  0  0  0  0  0  0  0  0  0
    4.9441    1.7796    0.0000 H   0  0  0  0  0  0  0  0  0  0  0  0
    2.7880    1.7796    0.0000 H   0  0  0  0  0  0  0  0  0  0  0  0
    2.3894    1.0894    0.0000 H   0  0  0  0  0  0  0  0  0  0  0  0
    3.2554   -1.1953    0.0000 H   0  0  0  0  0  0  0  0  0  0  0  0
    3.6540   -1.8856    0.0000 H   0  0  0  0  0  0  0  0  0  0  0  0
    5.3426   -1.9106    0.0000 H   0  0  0  0  0  0  0  0  0  0  0  0
    4.9441   -1.2204    0.0000 H   0  0  0  0  0  0  0  0  0  0  0  0
    7.0817   -2.6890    0.0000 H   0  0  0  0  0  0  0  0  0  0  0  0
    6.2933   -2.4313    0.0000 H   0  0  0  0  0  0  0  0  0  0  0  0
    3.3291   -2.9930    0.0000 H   0  0  0  0  0  0  0  0  0  0  0  0
    6.7369   -5.1970    0.0000 H   0  0  0  0  0  0  0  0  0  0  0  0
    4.7320   -5.4230    0.0000 H   0  0  0  0  0  0  0  0  0  0  0  0
    3.3291   -4.6130    0.0000 H   0  0  0  0  0  0  0  0  0  0  0  0
    3.6200    5.1970    0.0000 H   0  0  0  0  0  0  0  0  0  0  0  0
    3.0000    5.8170    0.0000 H   0  0  0  0  0  0  0  0  0  0  0  0
    2.3800    5.1970    0.0000 H   0  0  0  0  0  0  0  0  0  0  0  0
    2.0000    4.8170    0.0000 H   0  0  0  0  0  0  0  0  0  0  0  0
    1.3800    4.1970    0.0000 H   0  0  0  0  0  0  0  0  0  0  0  0
    2.0000    3.5770    0.0000 H   0  0  0  0  0  0  0  0  0  0  0  0
    4.0000    3.5770    0.0000 H   0  0  0  0  0  0  0  0  0  0  0  0
    4.6200    4.1970    0.0000 H   0  0  0  0  0  0  0  0  0  0  0  0
    4.0000    4.8170    0.0000 H   0  0  0  0  0  0  0  0  0  0  0  0
  1 15  1  0  0  0  0
  1 18  1  0  0  0  0
  2 15  2  0  0  0  0
  3 20  2  0  0  0  0
  4  7  1  0  0  0  0
  4  8  1  0  0  0  0
  4 11  1  0  0  0  0
  5  9  1  0  0  0  0
  5 10  1  0  0  0  0
  5 15  1  0  0  0  0
  6 17  1  0  0  0  0
  6 20  1  0  0  0  0
  6 41  1  0  0  0  0
  7  9  1  0  0  0  0
  7 26  1  0  0  0  0
  7 27  1  0  0  0  0
  8 10  1  0  0  0  0
  8 28  1  0  0  0  0
  8 29  1  0  0  0  0
  9 30  1  0  0  0  0
  9 31  1  0  0  0  0
 10 32  1  0  0  0  0
 10 33  1  0  0  0  0
 11 12  1  0  0  0  0
 11 34  1  0  0  0  0
 11 35  1  0  0  0  0
 12 13  1  0  0  0  0
 12 36  1  0  0  0  0
 12 37  1  0  0  0  0
 13 14  2  0  0  0  0
 13 19  1  0  0  0  0
 14 16  1  0  0  0  0
 14 17  1  0  0  0  0
 16 20  1  0  0  0  0
 16 38  1  0  0  0  0
 16 39  1  0  0  0  0
 17 21  2  0  0  0  0
 18 23  1  0  0  0  0
 18 24  1  0  0  0  0
 18 25  1  0  0  0  0
 19 22  2  0  0  0  0
 19 40  1  0  0  0  0
 21 22  1  0  0  0  0
 21 42  1  0  0  0  0
 22 43  1  0  0  0  0
 23 44  1  0  0  0  0
 23 45  1  0  0  0  0
 23 46  1  0  0  0  0
 24 47  1  0  0  0  0
 24 48  1  0  0  0  0
 24 49  1  0  0  0  0
 25 50  1  0  0  0  0
 25 51  1  0  0  0  0
 25 52  1  0  0  0  0
M  END
> <PUBCHEM_COMPOUND_CID>
118726017

> <PUBCHEM_COMPOUND_CANONICALIZED>
1

> <PUBCHEM_CACTVS_COMPLEXITY>
495

> <PUBCHEM_CACTVS_HBOND_ACCEPTOR>
4

> <PUBCHEM_CACTVS_HBOND_DONOR>
1

> <PUBCHEM_CACTVS_ROTATABLE_BOND>
5

> <PUBCHEM_CACTVS_SUBSKEYS>
AAADceB7MAAAAAAAAAAAAAAAAAAAAWAAAAA8QAAAAAAAAFgBAAAAHgAQAAAADEzBmAQyyIPABACIAiVSWACCAAAhAgAIiAEIZIgIYDLAlZGcIAhglgDIyAcciICOgAAAQAASAAAAAACAACQAAAAAAAAAAA==

> <PUBCHEM_IUPAC_OPENEYE_NAME>
tert-butyl 4-[2-(2-oxoindolin-4-yl)ethyl]piperazine-1-carboxylate

> <PUBCHEM_IUPAC_CAS_NAME>
4-[2-(2-oxo-1,3-dihydroindol-4-yl)ethyl]-1-piperazinecarboxylic acid tert-butyl ester

> <PUBCHEM_IUPAC_NAME_MARKUP>
<I>tert</I>-butyl 4-[2-(2-oxo-1,3-dihydroindol-4-yl)ethyl]piperazine-1-carboxylate

> <PUBCHEM_IUPAC_NAME>
tert-butyl 4-[2-(2-oxo-1,3-dihydroindol-4-yl)ethyl]piperazine-1-carboxylate

> <PUBCHEM_IUPAC_SYSTEMATIC_NAME>
tert-butyl 4-[2-(2-oxidanylidene-1,3-dihydroindol-4-yl)ethyl]piperazine-1-carboxylate

> <PUBCHEM_IUPAC_TRADITIONAL_NAME>
4-[2-(2-ketoindolin-4-yl)ethyl]piperazine-1-carboxylic acid tert-butyl ester

> <PUBCHEM_IUPAC_INCHI>
InChI=1S/C19H27N3O3/c1-19(2,3)25-18(24)22-11-9-21(10-12-22)8-7-14-5-4-6-16-15(14)13-17(23)20-16/h4-6H,7-13H2,1-3H3,(H,20,23)

> <PUBCHEM_IUPAC_INCHIKEY>
ABUFQEJQVYVITO-UHFFFAOYSA-N

> <PUBCHEM_XLOGP3>
1.6

> <PUBCHEM_EXACT_MASS>
345.20524173

> <PUBCHEM_MOLECULAR_FORMULA>
C19H27N3O3

> <PUBCHEM_MOLECULAR_WEIGHT>
345.4

> <PUBCHEM_OPENEYE_CAN_SMILES>
CC(C)(C)OC(=O)N1CCN(CC1)CCC2=C3CC(=O)NC3=CC=C2

> <PUBCHEM_OPENEYE_ISO_SMILES>
CC(C)(C)OC(=O)N1CCN(CC1)CCC2=C3CC(=O)NC3=CC=C2

> <PUBCHEM_CACTVS_TPSA>
61.9

> <PUBCHEM_MONOISOTOPIC_WEIGHT>
345.20524173

> <PUBCHEM_TOTAL_CHARGE>
0

> <PUBCHEM_HEAVY_ATOM_COUNT>
25

> <PUBCHEM_ATOM_DEF_STEREO_COUNT>
0

> <PUBCHEM_ATOM_UDEF_STEREO_COUNT>
0

> <PUBCHEM_BOND_DEF_STEREO_COUNT>
0

> <PUBCHEM_BOND_UDEF_STEREO_COUNT>
0

> <PUBCHEM_ISOTOPIC_ATOM_COUNT>
0

> <PUBCHEM_COMPONENT_COUNT>
1

> <PUBCHEM_CACTVS_TAUTO_COUNT>
-1

> <PUBCHEM_COORDINATE_TYPE>
1
5
255

> <PUBCHEM_BONDANNOTATIONS>
13  14  8
13  19  8
14  17  8
17  21  8
19  22  8
21  22  8

$$$$
