25129458
  -OEChem-09292322232D

 54 59  0     1  0  0  0  0  0999 V2000
    3.8905   -5.5835    0.0000 Cl  0  0  0  0  0  0  0  0  0  0  0  0
    5.2410   -2.2405    0.0000 O   0  0  0  0  0  0  0  0  0  0  0  0
    6.3716    3.8190    0.0000 O   0  0  0  0  0  0  0  0  0  0  0  0
    5.0824    1.0528    0.0000 N   0  0  0  0  0  0  0  0  0  0  0  0
    3.3130    0.1071    0.0000 C   0  0  2  0  0  0  0  0  0  0  0  0
    3.8591    0.9448    0.0000 C   0  0  1  0  0  0  0  0  0  0  0  0
    4.4540   -1.6234    0.0000 C   0  0  0  0  0  0  0  0  0  0  0  0
    3.4841   -1.3798    0.0000 C   0  0  0  0  0  0  0  0  0  0  0  0
    4.9854   -0.7763    0.0000 C   0  0  0  0  0  0  0  0  0  0  0  0
    2.0000    0.8085    0.0000 C   0  0  0  0  0  0  0  0  0  0  0  0
    2.5461    1.6462    0.0000 C   0  0  0  0  0  0  0  0  0  0  0  0
    6.0609    1.2590    0.0000 C   0  0  0  0  0  0  0  0  0  0  0  0
    4.3131   -2.6135    0.0000 C   0  0  0  0  0  0  0  0  0  0  0  0
    6.3716    2.2095    0.0000 C   0  0  0  0  0  0  0  0  0  0  0  0
    5.1001   -3.2305    0.0000 C   0  0  0  0  0  0  0  0  0  0  0  0
    3.3853   -2.9865    0.0000 C   0  0  0  0  0  0  0  0  0  0  0  0
    7.3178    2.5143    0.0000 C   0  0  0  0  0  0  0  0  0  0  0  0
    5.7879    3.0143    0.0000 C   0  0  0  0  0  0  0  0  0  0  0  0
    4.9592   -4.2205    0.0000 C   0  0  0  0  0  0  0  0  0  0  0  0
    3.2444   -3.9765    0.0000 C   0  0  0  0  0  0  0  0  0  0  0  0
    7.3178    3.5143    0.0000 C   0  0  0  0  0  0  0  0  0  0  0  0
    4.0313   -4.5935    0.0000 C   0  0  0  0  0  0  0  0  0  0  0  0
    8.1838    2.0143    0.0000 C   0  0  0  0  0  0  0  0  0  0  0  0
    8.1838    4.0143    0.0000 C   0  0  0  0  0  0  0  0  0  0  0  0
    9.0498    2.5143    0.0000 C   0  0  0  0  0  0  0  0  0  0  0  0
    9.0498    3.5143    0.0000 C   0  0  0  0  0  0  0  0  0  0  0  0
    8.1677    5.0558    0.0000 C   0  0  0  0  0  0  0  0  0  0  0  0
    9.9598    4.0211    0.0000 C   0  0  0  0  0  0  0  0  0  0  0  0
    9.0658    5.5835    0.0000 C   0  0  0  0  0  0  0  0  0  0  0  0
    9.9678    5.0627    0.0000 C   0  0  0  0  0  0  0  0  0  0  0  0
    2.8488   -0.6050    0.0000 H   0  0  0  0  0  0  0  0  0  0  0  0
    4.3232    1.6569    0.0000 H   0  0  0  0  0  0  0  0  0  0  0  0
    2.8641   -1.3763    0.0000 H   0  0  0  0  0  0  0  0  0  0  0  0
    3.4063   -1.9949    0.0000 H   0  0  0  0  0  0  0  0  0  0  0  0
    5.4580   -1.1776    0.0000 H   0  0  0  0  0  0  0  0  0  0  0  0
    5.4502   -0.3660    0.0000 H   0  0  0  0  0  0  0  0  0  0  0  0
    1.4710    1.1319    0.0000 H   0  0  0  0  0  0  0  0  0  0  0  0
    1.6921    0.2704    0.0000 H   0  0  0  0  0  0  0  0  0  0  0  0
    2.8540    2.1844    0.0000 H   0  0  0  0  0  0  0  0  0  0  0  0
    2.0171    1.9696    0.0000 H   0  0  0  0  0  0  0  0  0  0  0  0
    6.0814    0.6394    0.0000 H   0  0  0  0  0  0  0  0  0  0  0  0
    6.6747    1.1717    0.0000 H   0  0  0  0  0  0  0  0  0  0  0  0
    5.8162   -2.0092    0.0000 H   0  0  0  0  0  0  0  0  0  0  0  0
    5.6753   -2.9992    0.0000 H   0  0  0  0  0  0  0  0  0  0  0  0
    2.8974   -2.6039    0.0000 H   0  0  0  0  0  0  0  0  0  0  0  0
    5.1679    3.0143    0.0000 H   0  0  0  0  0  0  0  0  0  0  0  0
    5.4471   -4.6031    0.0000 H   0  0  0  0  0  0  0  0  0  0  0  0
    2.6691   -4.2078    0.0000 H   0  0  0  0  0  0  0  0  0  0  0  0
    8.1838    1.3943    0.0000 H   0  0  0  0  0  0  0  0  0  0  0  0
    9.5868    2.2043    0.0000 H   0  0  0  0  0  0  0  0  0  0  0  0
    7.6272    5.3595    0.0000 H   0  0  0  0  0  0  0  0  0  0  0  0
   10.4931    3.7049    0.0000 H   0  0  0  0  0  0  0  0  0  0  0  0
    9.0634    6.2035    0.0000 H   0  0  0  0  0  0  0  0  0  0  0  0
   10.5060    5.3707    0.0000 H   0  0  0  0  0  0  0  0  0  0  0  0
  1 22  1  0  0  0  0
  2  7  1  0  0  0  0
  2 43  1  0  0  0  0
  3 18  1  0  0  0  0
  3 21  1  0  0  0  0
  4  5  1  0  0  0  0
  4  6  1  0  0  0  0
  4 12  1  0  0  0  0
  5  8  1  0  0  0  0
  5 10  1  0  0  0  0
  5 31  1  1  0  0  0
  6  9  1  0  0  0  0
  6 11  1  0  0  0  0
  6 32  1  6  0  0  0
  7  8  1  0  0  0  0
  7  9  1  0  0  0  0
  7 13  1  0  0  0  0
  8 33  1  0  0  0  0
  8 34  1  0  0  0  0
  9 35  1  0  0  0  0
  9 36  1  0  0  0  0
 10 11  1  0  0  0  0
 10 37  1  0  0  0  0
 10 38  1  0  0  0  0
 11 39  1  0  0  0  0
 11 40  1  0  0  0  0
 12 14  1  0  0  0  0
 12 41  1  0  0  0  0
 12 42  1  0  0  0  0
 13 15  2  0  0  0  0
 13 16  1  0  0  0  0
 14 17  1  0  0  0  0
 14 18  2  0  0  0  0
 15 19  1  0  0  0  0
 15 44  1  0  0  0  0
 16 20  2  0  0  0  0
 16 45  1  0  0  0  0
 17 21  2  0  0  0  0
 17 23  1  0  0  0  0
 18 46  1  0  0  0  0
 19 22  2  0  0  0  0
 19 47  1  0  0  0  0
 20 22  1  0  0  0  0
 20 48  1  0  0  0  0
 21 24  1  0  0  0  0
 23 25  2  0  0  0  0
 23 49  1  0  0  0  0
 24 26  1  0  0  0  0
 24 27  2  0  0  0  0
 25 26  1  0  0  0  0
 25 50  1  0  0  0  0
 26 28  2  0  0  0  0
 27 29  1  0  0  0  0
 27 51  1  0  0  0  0
 28 30  1  0  0  0  0
 28 52  1  0  0  0  0
 29 30  2  0  0  0  0
 29 53  1  0  0  0  0
 30 54  1  0  0  0  0
M  END
> <PUBCHEM_COMPOUND_CID>
25129458

> <PUBCHEM_COMPOUND_CANONICALIZED>
1

> <PUBCHEM_CACTVS_COMPLEXITY>
606

> <PUBCHEM_CACTVS_HBOND_ACCEPTOR>
3

> <PUBCHEM_CACTVS_HBOND_DONOR>
1

> <PUBCHEM_CACTVS_ROTATABLE_BOND>
3

> <PUBCHEM_CACTVS_SUBSKEYS>
AAADceB6MAAEAAAAAAAAAAAAAAAAAWJAAAA8YMEABgAAAEjB9AAAHgIACAAADG7hmCYwBsMABkCIAqhSgACCCAAkJQAIiAEMDsgMJjqFtxuGeSjmwBGIuYe8yPCOxAADAAAYAACIAAYAADAAAAAAAAAAAA==

> <PUBCHEM_IUPAC_OPENEYE_NAME>
(1S,5R)-8-(benzo[g]benzofuran-3-ylmethyl)-3-(4-chlorophenyl)-8-azabicyclo[3.2.1]octan-3-ol

> <PUBCHEM_IUPAC_CAS_NAME>
(1S,5R)-8-(3-benzo[g]benzofuranylmethyl)-3-(4-chlorophenyl)-8-azabicyclo[3.2.1]octan-3-ol

> <PUBCHEM_IUPAC_NAME_MARKUP>
(1<I>S</I>,5<I>R</I>)-8-(benzo[g][1]benzofuran-3-ylmethyl)-3-(4-chlorophenyl)-8-azabicyclo[3.2.1]octan-3-ol

> <PUBCHEM_IUPAC_NAME>
(1S,5R)-8-(benzo[g][1]benzofuran-3-ylmethyl)-3-(4-chlorophenyl)-8-azabicyclo[3.2.1]octan-3-ol

> <PUBCHEM_IUPAC_SYSTEMATIC_NAME>
(1S,5R)-8-(benzo[g][1]benzofuran-3-ylmethyl)-3-(4-chlorophenyl)-8-azabicyclo[3.2.1]octan-3-ol

> <PUBCHEM_IUPAC_TRADITIONAL_NAME>
(1S,5R)-8-(benzo[g]benzofuran-3-ylmethyl)-3-(4-chlorophenyl)-8-azabicyclo[3.2.1]octan-3-ol

> <PUBCHEM_IUPAC_INCHI>
InChI=1S/C26H24ClNO2/c27-20-8-6-19(7-9-20)26(29)13-21-10-11-22(14-26)28(21)15-18-16-30-25-23-4-2-1-3-17(23)5-12-24(18)25/h1-9,12,16,21-22,29H,10-11,13-15H2/t21-,22+,26?

> <PUBCHEM_IUPAC_INCHIKEY>
UNGWGGUPRUDQFM-KMXBQNHCSA-N

> <PUBCHEM_XLOGP3_AA>
5.8

> <PUBCHEM_EXACT_MASS>
417.1495567

> <PUBCHEM_MOLECULAR_FORMULA>
C26H24ClNO2

> <PUBCHEM_MOLECULAR_WEIGHT>
417.9

> <PUBCHEM_OPENEYE_CAN_SMILES>
C1CC2CC(CC1N2CC3=COC4=C3C=CC5=CC=CC=C54)(C6=CC=C(C=C6)Cl)O

> <PUBCHEM_OPENEYE_ISO_SMILES>
C1C[C@H]2CC(C[C@@H]1N2CC3=COC4=C3C=CC5=CC=CC=C54)(C6=CC=C(C=C6)Cl)O

> <PUBCHEM_CACTVS_TPSA>
36.6

> <PUBCHEM_MONOISOTOPIC_WEIGHT>
417.1495567

> <PUBCHEM_TOTAL_CHARGE>
0

> <PUBCHEM_HEAVY_ATOM_COUNT>
30

> <PUBCHEM_ATOM_DEF_STEREO_COUNT>
2

> <PUBCHEM_ATOM_UDEF_STEREO_COUNT>
0

> <PUBCHEM_BOND_DEF_STEREO_COUNT>
0

> <PUBCHEM_BOND_UDEF_STEREO_COUNT>
0

> <PUBCHEM_ISOTOPIC_ATOM_COUNT>
0

> <PUBCHEM_COMPONENT_COUNT>
1

> <PUBCHEM_CACTVS_TAUTO_COUNT>
-1

> <PUBCHEM_COORDINATE_TYPE>
1
5
255

> <PUBCHEM_BONDANNOTATIONS>
13  15  8
13  16  8
14  17  8
14  18  8
15  19  8
16  20  8
17  21  8
17  23  8
19  22  8
20  22  8
21  24  8
23  25  8
24  26  8
24  27  8
25  26  8
26  28  8
27  29  8
28  30  8
29  30  8
3  18  8
3  21  8
5  31  5
6  32  6

$$$$
