11102301
  -OEChem-09292322112D

 66 69  0     0  0  0  0  0  0999 V2000
    4.5981   -2.0173    0.0000 O   0  0  0  0  0  0  0  0  0  0  0  0
   11.5263   -0.0173    0.0000 O   0  0  0  0  0  0  0  0  0  0  0  0
    6.3301    0.9827    0.0000 N   0  0  0  0  0  0  0  0  0  0  0  0
    4.5981   -0.0173    0.0000 N   0  0  0  0  0  0  0  0  0  0  0  0
   10.6603    1.4827    0.0000 N   0  0  0  0  0  0  0  0  0  0  0  0
    6.3301   -0.0173    0.0000 C   0  0  0  0  0  0  0  0  0  0  0  0
    5.4641    1.4827    0.0000 C   0  0  0  0  0  0  0  0  0  0  0  0
    5.4641   -0.5173    0.0000 C   0  0  0  0  0  0  0  0  0  0  0  0
    4.5981    0.9827    0.0000 C   0  0  0  0  0  0  0  0  0  0  0  0
    7.1962    1.4827    0.0000 C   0  0  0  0  0  0  0  0  0  0  0  0
    8.0622    0.9827    0.0000 C   0  0  0  0  0  0  0  0  0  0  0  0
    3.7320   -0.5173    0.0000 C   0  0  0  0  0  0  0  0  0  0  0  0
    8.9282    1.4827    0.0000 C   0  0  0  0  0  0  0  0  0  0  0  0
    9.7942    0.9827    0.0000 C   0  0  0  0  0  0  0  0  0  0  0  0
    3.7320   -1.5173    0.0000 C   0  0  0  0  0  0  0  0  0  0  0  0
    2.8660   -0.0173    0.0000 C   0  0  0  0  0  0  0  0  0  0  0  0
    2.8660   -2.0173    0.0000 C   0  0  0  0  0  0  0  0  0  0  0  0
    2.0000   -0.5173    0.0000 C   0  0  0  0  0  0  0  0  0  0  0  0
    2.0000   -1.5173    0.0000 C   0  0  0  0  0  0  0  0  0  0  0  0
   11.5263    0.9827    0.0000 C   0  0  0  0  0  0  0  0  0  0  0  0
    4.5981   -3.0173    0.0000 C   0  0  0  0  0  0  0  0  0  0  0  0
   12.3923    1.4827    0.0000 C   0  0  0  0  0  0  0  0  0  0  0  0
   13.2583    0.9827    0.0000 C   0  0  0  0  0  0  0  0  0  0  0  0
   14.1244    1.4827    0.0000 C   0  0  0  0  0  0  0  0  0  0  0  0
   15.8564    1.4827    0.0000 C   0  0  0  0  0  0  0  0  0  0  0  0
   15.8564    2.4827    0.0000 C   0  0  0  0  0  0  0  0  0  0  0  0
   14.9904    0.9827    0.0000 C   0  0  0  0  0  0  0  0  0  0  0  0
   14.1244    2.4827    0.0000 C   0  0  0  0  0  0  0  0  0  0  0  0
   14.9904    2.9827    0.0000 C   0  0  0  0  0  0  0  0  0  0  0  0
   16.7503    0.9480    0.0000 C   0  0  0  0  0  0  0  0  0  0  0  0
   16.7503    3.0173    0.0000 C   0  0  0  0  0  0  0  0  0  0  0  0
   17.6564    1.4619    0.0000 C   0  0  0  0  0  0  0  0  0  0  0  0
   17.6564    2.5035    0.0000 C   0  0  0  0  0  0  0  0  0  0  0  0
    6.5422   -0.5999    0.0000 H   0  0  0  0  0  0  0  0  0  0  0  0
    6.9407    0.0903    0.0000 H   0  0  0  0  0  0  0  0  0  0  0  0
    5.8626    1.9576    0.0000 H   0  0  0  0  0  0  0  0  0  0  0  0
    5.0656    1.9576    0.0000 H   0  0  0  0  0  0  0  0  0  0  0  0
    5.0656   -0.9923    0.0000 H   0  0  0  0  0  0  0  0  0  0  0  0
    5.8626   -0.9923    0.0000 H   0  0  0  0  0  0  0  0  0  0  0  0
    4.3860    1.5653    0.0000 H   0  0  0  0  0  0  0  0  0  0  0  0
    3.9875    0.8750    0.0000 H   0  0  0  0  0  0  0  0  0  0  0  0
    7.5947    1.9576    0.0000 H   0  0  0  0  0  0  0  0  0  0  0  0
    6.7976    1.9576    0.0000 H   0  0  0  0  0  0  0  0  0  0  0  0
    7.6636    0.5077    0.0000 H   0  0  0  0  0  0  0  0  0  0  0  0
    8.4607    0.5077    0.0000 H   0  0  0  0  0  0  0  0  0  0  0  0
    9.3267    1.9576    0.0000 H   0  0  0  0  0  0  0  0  0  0  0  0
    8.5297    1.9576    0.0000 H   0  0  0  0  0  0  0  0  0  0  0  0
    9.3957    0.5077    0.0000 H   0  0  0  0  0  0  0  0  0  0  0  0
   10.1928    0.5077    0.0000 H   0  0  0  0  0  0  0  0  0  0  0  0
    2.8660    0.6027    0.0000 H   0  0  0  0  0  0  0  0  0  0  0  0
    2.8660   -2.6373    0.0000 H   0  0  0  0  0  0  0  0  0  0  0  0
    1.4631   -0.2073    0.0000 H   0  0  0  0  0  0  0  0  0  0  0  0
   10.6603    2.1027    0.0000 H   0  0  0  0  0  0  0  0  0  0  0  0
    1.4631   -1.8273    0.0000 H   0  0  0  0  0  0  0  0  0  0  0  0
    3.9781   -3.0173    0.0000 H   0  0  0  0  0  0  0  0  0  0  0  0
    4.5981   -3.6373    0.0000 H   0  0  0  0  0  0  0  0  0  0  0  0
    5.2181   -3.0173    0.0000 H   0  0  0  0  0  0  0  0  0  0  0  0
   12.3923    2.1027    0.0000 H   0  0  0  0  0  0  0  0  0  0  0  0
   13.2583    0.3627    0.0000 H   0  0  0  0  0  0  0  0  0  0  0  0
   14.9904    0.3627    0.0000 H   0  0  0  0  0  0  0  0  0  0  0  0
   13.5874    2.7927    0.0000 H   0  0  0  0  0  0  0  0  0  0  0  0
   14.9904    3.6027    0.0000 H   0  0  0  0  0  0  0  0  0  0  0  0
   16.7432    0.3280    0.0000 H   0  0  0  0  0  0  0  0  0  0  0  0
   16.7432    3.6373    0.0000 H   0  0  0  0  0  0  0  0  0  0  0  0
   18.1922    1.1498    0.0000 H   0  0  0  0  0  0  0  0  0  0  0  0
   18.1922    2.8156    0.0000 H   0  0  0  0  0  0  0  0  0  0  0  0
  1 15  1  0  0  0  0
  1 21  1  0  0  0  0
  2 20  2  0  0  0  0
  3  6  1  0  0  0  0
  3  7  1  0  0  0  0
  3 10  1  0  0  0  0
  4  8  1  0  0  0  0
  4  9  1  0  0  0  0
  4 12  1  0  0  0  0
  5 14  1  0  0  0  0
  5 20  1  0  0  0  0
  5 53  1  0  0  0  0
  6  8  1  0  0  0  0
  6 34  1  0  0  0  0
  6 35  1  0  0  0  0
  7  9  1  0  0  0  0
  7 36  1  0  0  0  0
  7 37  1  0  0  0  0
  8 38  1  0  0  0  0
  8 39  1  0  0  0  0
  9 40  1  0  0  0  0
  9 41  1  0  0  0  0
 10 11  1  0  0  0  0
 10 42  1  0  0  0  0
 10 43  1  0  0  0  0
 11 13  1  0  0  0  0
 11 44  1  0  0  0  0
 11 45  1  0  0  0  0
 12 15  1  0  0  0  0
 12 16  2  0  0  0  0
 13 14  1  0  0  0  0
 13 46  1  0  0  0  0
 13 47  1  0  0  0  0
 14 48  1  0  0  0  0
 14 49  1  0  0  0  0
 15 17  2  0  0  0  0
 16 18  1  0  0  0  0
 16 50  1  0  0  0  0
 17 19  1  0  0  0  0
 17 51  1  0  0  0  0
 18 19  2  0  0  0  0
 18 52  1  0  0  0  0
 19 54  1  0  0  0  0
 20 22  1  0  0  0  0
 21 55  1  0  0  0  0
 21 56  1  0  0  0  0
 21 57  1  0  0  0  0
 22 23  2  0  0  0  0
 22 58  1  0  0  0  0
 23 24  1  0  0  0  0
 23 59  1  0  0  0  0
 24 27  2  0  0  0  0
 24 28  1  0  0  0  0
 25 26  1  0  0  0  0
 25 27  1  0  0  0  0
 25 30  2  0  0  0  0
 26 29  1  0  0  0  0
 26 31  2  0  0  0  0
 27 60  1  0  0  0  0
 28 29  2  0  0  0  0
 28 61  1  0  0  0  0
 29 62  1  0  0  0  0
 30 32  1  0  0  0  0
 30 63  1  0  0  0  0
 31 33  1  0  0  0  0
 31 64  1  0  0  0  0
 32 33  2  0  0  0  0
 32 65  1  0  0  0  0
 33 66  1  0  0  0  0
M  END
> <PUBCHEM_COMPOUND_CID>
11102301

> <PUBCHEM_COMPOUND_CANONICALIZED>
1

> <PUBCHEM_CACTVS_COMPLEXITY>
616

> <PUBCHEM_CACTVS_HBOND_ACCEPTOR>
4

> <PUBCHEM_CACTVS_HBOND_DONOR>
1

> <PUBCHEM_CACTVS_ROTATABLE_BOND>
9

> <PUBCHEM_CACTVS_SUBSKEYS>
AAADcfB7MAAAAAAAAAAAAAAAAAAAAAAAAAA8YMEAAAAAAADBVAAAHgAQAAAADAzBmAYyxsPABACIAiVSUACCCAAhIgAIiIAPbMgOZiLEsZuVMChk1hHY6YeQwMAOwAACAAAQEACAAAQAACAgAAAAAAAAAA==

> <PUBCHEM_IUPAC_OPENEYE_NAME>
(E)-N-[4-[4-(2-methoxyphenyl)piperazin-1-yl]butyl]-3-(2-naphthyl)prop-2-enamide

> <PUBCHEM_IUPAC_CAS_NAME>
(E)-N-[4-[4-(2-methoxyphenyl)-1-piperazinyl]butyl]-3-(2-naphthalenyl)-2-propenamide

> <PUBCHEM_IUPAC_NAME_MARKUP>
(<I>E</I>)-<I>N</I>-[4-[4-(2-methoxyphenyl)piperazin-1-yl]butyl]-3-naphthalen-2-ylprop-2-enamide

> <PUBCHEM_IUPAC_NAME>
(E)-N-[4-[4-(2-methoxyphenyl)piperazin-1-yl]butyl]-3-naphthalen-2-ylprop-2-enamide

> <PUBCHEM_IUPAC_SYSTEMATIC_NAME>
(E)-N-[4-[4-(2-methoxyphenyl)piperazin-1-yl]butyl]-3-naphthalen-2-yl-prop-2-enamide

> <PUBCHEM_IUPAC_TRADITIONAL_NAME>
(E)-N-[4-[4-(2-methoxyphenyl)piperazino]butyl]-3-(2-naphthyl)acrylamide

> <PUBCHEM_IUPAC_INCHI>
InChI=1S/C28H33N3O2/c1-33-27-11-5-4-10-26(27)31-20-18-30(19-21-31)17-7-6-16-29-28(32)15-13-23-12-14-24-8-2-3-9-25(24)22-23/h2-5,8-15,22H,6-7,16-21H2,1H3,(H,29,32)/b15-13+

> <PUBCHEM_IUPAC_INCHIKEY>
WZTXLKNXNIFASN-FYWRMAATSA-N

> <PUBCHEM_XLOGP3_AA>
5.2

> <PUBCHEM_EXACT_MASS>
443.25727730

> <PUBCHEM_MOLECULAR_FORMULA>
C28H33N3O2

> <PUBCHEM_MOLECULAR_WEIGHT>
443.6

> <PUBCHEM_OPENEYE_CAN_SMILES>
COC1=CC=CC=C1N2CCN(CC2)CCCCNC(=O)C=CC3=CC4=CC=CC=C4C=C3

> <PUBCHEM_OPENEYE_ISO_SMILES>
COC1=CC=CC=C1N2CCN(CC2)CCCCNC(=O)/C=C/C3=CC4=CC=CC=C4C=C3

> <PUBCHEM_CACTVS_TPSA>
44.8

> <PUBCHEM_MONOISOTOPIC_WEIGHT>
443.25727730

> <PUBCHEM_TOTAL_CHARGE>
0

> <PUBCHEM_HEAVY_ATOM_COUNT>
33

> <PUBCHEM_ATOM_DEF_STEREO_COUNT>
0

> <PUBCHEM_ATOM_UDEF_STEREO_COUNT>
0

> <PUBCHEM_BOND_DEF_STEREO_COUNT>
1

> <PUBCHEM_BOND_UDEF_STEREO_COUNT>
0

> <PUBCHEM_ISOTOPIC_ATOM_COUNT>
0

> <PUBCHEM_COMPONENT_COUNT>
1

> <PUBCHEM_CACTVS_TAUTO_COUNT>
-1

> <PUBCHEM_COORDINATE_TYPE>
1
5
255

> <PUBCHEM_BONDANNOTATIONS>
12  15  8
12  16  8
15  17  8
16  18  8
17  19  8
18  19  8
24  27  8
24  28  8
25  26  8
25  27  8
25  30  8
26  29  8
26  31  8
28  29  8
30  32  8
31  33  8
32  33  8

$$$$
