45261737
  -OEChem-09292322132D

 51 53  0     1  0  0  0  0  0999 V2000
    4.4903    0.0000    0.0000 Br  0  0  0  0  0  0  0  0  0  0  0  0
    6.7788    4.6408    0.0000 O   0  0  0  0  0  0  0  0  0  0  0  0
    3.3147    4.6408    0.0000 N   0  0  0  0  0  0  0  0  0  0  0  0
    1.5826    4.6408    0.0000 C   0  0  0  0  0  0  0  0  0  0  0  0
    2.4486    4.1408    0.0000 C   0  0  3  0  0  0  0  0  0  0  0  0
    1.0826    5.5068    0.0000 C   0  0  0  0  0  0  0  0  0  0  0  0
    0.5826    4.6408    0.0000 C   0  0  0  0  0  0  0  0  0  0  0  0
    5.0467    5.6408    0.0000 C   0  0  0  0  0  0  0  0  0  0  0  0
    4.1807    4.1408    0.0000 C   0  0  0  0  0  0  0  0  0  0  0  0
    3.3147    5.6408    0.0000 C   0  0  0  0  0  0  0  0  0  0  0  0
    5.0467    4.6408    0.0000 C   0  0  0  0  0  0  0  0  0  0  0  0
    4.1807    6.1408    0.0000 C   0  0  0  0  0  0  0  0  0  0  0  0
    5.9127    6.1408    0.0000 C   0  0  3  0  0  0  0  0  0  0  0  0
    2.4486    3.1408    0.0000 C   0  0  0  0  0  0  0  0  0  0  0  0
    5.9127    7.1408    0.0000 C   0  0  0  0  0  0  0  0  0  0  0  0
    6.7788    5.6408    0.0000 C   0  0  0  0  0  0  0  0  0  0  0  0
    6.7788    7.6408    0.0000 C   0  0  0  0  0  0  0  0  0  0  0  0
    7.6448    6.1408    0.0000 C   0  0  0  0  0  0  0  0  0  0  0  0
    7.6448    7.1408    0.0000 C   0  0  0  0  0  0  0  0  0  0  0  0
    8.5387    5.6062    0.0000 C   0  0  0  0  0  0  0  0  0  0  0  0
    8.5387    7.6755    0.0000 C   0  0  0  0  0  0  0  0  0  0  0  0
    9.4448    6.1200    0.0000 C   0  0  0  0  0  0  0  0  0  0  0  0
    9.4448    7.1616    0.0000 C   0  0  0  0  0  0  0  0  0  0  0  0
    1.4221    4.0419    0.0000 H   0  0  0  0  0  0  0  0  0  0  0  0
    2.9856    3.8308    0.0000 H   0  0  0  0  0  0  0  0  0  0  0  0
    1.5576    5.9054    0.0000 H   0  0  0  0  0  0  0  0  0  0  0  0
    0.6077    5.9054    0.0000 H   0  0  0  0  0  0  0  0  0  0  0  0
    0.0000    4.8529    0.0000 H   0  0  0  0  0  0  0  0  0  0  0  0
    0.4749    4.0302    0.0000 H   0  0  0  0  0  0  0  0  0  0  0  0
    5.5836    5.3308    0.0000 H   0  0  0  0  0  0  0  0  0  0  0  0
    3.7822    3.6659    0.0000 H   0  0  0  0  0  0  0  0  0  0  0  0
    4.5792    3.6659    0.0000 H   0  0  0  0  0  0  0  0  0  0  0  0
    3.1026    6.2234    0.0000 H   0  0  0  0  0  0  0  0  0  0  0  0
    2.7041    5.5332    0.0000 H   0  0  0  0  0  0  0  0  0  0  0  0
    5.2588    4.0582    0.0000 H   0  0  0  0  0  0  0  0  0  0  0  0
    5.6573    4.7485    0.0000 H   0  0  0  0  0  0  0  0  0  0  0  0
    4.5792    6.6158    0.0000 H   0  0  0  0  0  0  0  0  0  0  0  0
    3.7822    6.6158    0.0000 H   0  0  0  0  0  0  0  0  0  0  0  0
    5.3758    6.4508    0.0000 H   0  0  0  0  0  0  0  0  0  0  0  0
    1.8286    3.1408    0.0000 H   0  0  0  0  0  0  0  0  0  0  0  0
    2.4486    2.5208    0.0000 H   0  0  0  0  0  0  0  0  0  0  0  0
    3.0686    3.1408    0.0000 H   0  0  0  0  0  0  0  0  0  0  0  0
    5.7007    7.7234    0.0000 H   0  0  0  0  0  0  0  0  0  0  0  0
    5.3022    7.0332    0.0000 H   0  0  0  0  0  0  0  0  0  0  0  0
    7.1773    8.1158    0.0000 H   0  0  0  0  0  0  0  0  0  0  0  0
    6.3802    8.1158    0.0000 H   0  0  0  0  0  0  0  0  0  0  0  0
    8.5316    4.9862    0.0000 H   0  0  0  0  0  0  0  0  0  0  0  0
    8.5316    8.2954    0.0000 H   0  0  0  0  0  0  0  0  0  0  0  0
    9.9805    5.8079    0.0000 H   0  0  0  0  0  0  0  0  0  0  0  0
    9.9805    7.4737    0.0000 H   0  0  0  0  0  0  0  0  0  0  0  0
    5.4903    0.0000    0.0000 H   0  0  0  0  0  0  0  0  0  0  0  0
  1 51  1  0  0  0  0
  2 16  2  0  0  0  0
  3  5  1  0  0  0  0
  3  9  1  0  0  0  0
  3 10  1  0  0  0  0
  4  5  1  0  0  0  0
  4  6  1  0  0  0  0
  4  7  1  0  0  0  0
  4 24  1  0  0  0  0
  5 14  1  0  0  0  0
  5 25  1  0  0  0  0
  6  7  1  0  0  0  0
  6 26  1  0  0  0  0
  6 27  1  0  0  0  0
  7 28  1  0  0  0  0
  7 29  1  0  0  0  0
  8 11  1  0  0  0  0
  8 12  1  0  0  0  0
  8 13  1  0  0  0  0
  8 30  1  0  0  0  0
  9 11  1  0  0  0  0
  9 31  1  0  0  0  0
  9 32  1  0  0  0  0
 10 12  1  0  0  0  0
 10 33  1  0  0  0  0
 10 34  1  0  0  0  0
 11 35  1  0  0  0  0
 11 36  1  0  0  0  0
 12 37  1  0  0  0  0
 12 38  1  0  0  0  0
 13 15  1  0  0  0  0
 13 16  1  0  0  0  0
 13 39  1  0  0  0  0
 14 40  1  0  0  0  0
 14 41  1  0  0  0  0
 14 42  1  0  0  0  0
 15 17  1  0  0  0  0
 15 43  1  0  0  0  0
 15 44  1  0  0  0  0
 16 18  1  0  0  0  0
 17 19  1  0  0  0  0
 17 45  1  0  0  0  0
 17 46  1  0  0  0  0
 18 19  1  0  0  0  0
 18 20  2  0  0  0  0
 19 21  2  0  0  0  0
 20 22  1  0  0  0  0
 20 47  1  0  0  0  0
 21 23  1  0  0  0  0
 21 48  1  0  0  0  0
 22 23  2  0  0  0  0
 22 49  1  0  0  0  0
 23 50  1  0  0  0  0
M  END
> <PUBCHEM_COMPOUND_CID>
45261737

> <PUBCHEM_COMPOUND_CANONICALIZED>
1

> <PUBCHEM_CACTVS_COMPLEXITY>
408

> <PUBCHEM_CACTVS_HBOND_ACCEPTOR>
2

> <PUBCHEM_CACTVS_HBOND_DONOR>
1

> <PUBCHEM_CACTVS_ROTATABLE_BOND>
3

> <PUBCHEM_CACTVS_SUBSKEYS>
AAADceB6IAAAEAAAAAAAAAAAGAAAAAAAAAA8YIAAAAAAAADBAAAAHgAAAAAADSzBmAQyAIMAAACIAqBSAAACAAAkAAAIiAEIAMgIIDKAlRCEIQAggACIiYcYicCOgAAAAAAQAACAAAQAACAAAAAAAAAAAA==

> <PUBCHEM_IUPAC_OPENEYE_NAME>
2-[1-(1-cyclopropylethyl)-4-piperidyl]tetralin-1-one;hydrobromide

> <PUBCHEM_IUPAC_CAS_NAME>
2-[1-(1-cyclopropylethyl)-4-piperidinyl]-3,4-dihydro-2H-naphthalen-1-one;hydrobromide

> <PUBCHEM_IUPAC_NAME_MARKUP>
2-[1-(1-cyclopropylethyl)piperidin-4-yl]-3,4-dihydro-2<I>H</I>-naphthalen-1-one;hydrobromide

> <PUBCHEM_IUPAC_NAME>
2-[1-(1-cyclopropylethyl)piperidin-4-yl]-3,4-dihydro-2H-naphthalen-1-one;hydrobromide

> <PUBCHEM_IUPAC_SYSTEMATIC_NAME>
2-[1-(1-cyclopropylethyl)piperidin-4-yl]-3,4-dihydro-2H-naphthalen-1-one;hydrobromide

> <PUBCHEM_IUPAC_TRADITIONAL_NAME>
2-[1-(1-cyclopropylethyl)-4-piperidyl]tetralin-1-one;hydrobromide

> <PUBCHEM_IUPAC_INCHI>
InChI=1S/C20H27NO.BrH/c1-14(15-6-7-15)21-12-10-17(11-13-21)19-9-8-16-4-2-3-5-18(16)20(19)22;/h2-5,14-15,17,19H,6-13H2,1H3;1H

> <PUBCHEM_IUPAC_INCHIKEY>
UOTPYULTEHYCJV-UHFFFAOYSA-N

> <PUBCHEM_EXACT_MASS>
377.13543

> <PUBCHEM_MOLECULAR_FORMULA>
C20H28BrNO

> <PUBCHEM_MOLECULAR_WEIGHT>
378.3

> <PUBCHEM_OPENEYE_CAN_SMILES>
CC(C1CC1)N2CCC(CC2)C3CCC4=CC=CC=C4C3=O.Br

> <PUBCHEM_OPENEYE_ISO_SMILES>
CC(C1CC1)N2CCC(CC2)C3CCC4=CC=CC=C4C3=O.Br

> <PUBCHEM_CACTVS_TPSA>
20.3

> <PUBCHEM_MONOISOTOPIC_WEIGHT>
377.13543

> <PUBCHEM_TOTAL_CHARGE>
0

> <PUBCHEM_HEAVY_ATOM_COUNT>
23

> <PUBCHEM_ATOM_DEF_STEREO_COUNT>
0

> <PUBCHEM_ATOM_UDEF_STEREO_COUNT>
2

> <PUBCHEM_BOND_DEF_STEREO_COUNT>
0

> <PUBCHEM_BOND_UDEF_STEREO_COUNT>
0

> <PUBCHEM_ISOTOPIC_ATOM_COUNT>
0

> <PUBCHEM_COMPONENT_COUNT>
2

> <PUBCHEM_CACTVS_TAUTO_COUNT>
-1

> <PUBCHEM_COORDINATE_TYPE>
1
5
255

> <PUBCHEM_BONDANNOTATIONS>
18  19  8
18  20  8
19  21  8
20  22  8
21  23  8
22  23  8
5  14  3
13  8  3

$$$$
