10367367
  -OEChem-09292322262D

 62 67  0     1  0  0  0  0  0999 V2000
    4.9556   -5.6502    0.0000 S   0  0  0  0  0  0  0  0  0  0  0  0
    8.7323    1.4180    0.0000 O   0  0  0  0  0  0  0  0  0  0  0  0
    4.4033   -1.1265    0.0000 N   0  0  0  0  0  0  0  0  0  0  0  0
    4.4264   -3.1264    0.0000 N   0  0  0  0  0  0  0  0  0  0  0  0
    7.0003    1.4180    0.0000 N   0  0  0  0  0  0  0  0  0  0  0  0
    5.2494   -4.7006    0.0000 N   0  0  0  0  0  0  0  0  0  0  0  0
    3.5431   -1.6365    0.0000 C   0  0  0  0  0  0  0  0  0  0  0  0
    5.2750   -1.6164    0.0000 C   0  0  0  0  0  0  0  0  0  0  0  0
    4.3917   -0.1266    0.0000 C   0  0  0  0  0  0  0  0  0  0  0  0
    3.5546   -2.6364    0.0000 C   0  0  0  0  0  0  0  0  0  0  0  0
    5.2866   -2.6164    0.0000 C   0  0  0  0  0  0  0  0  0  0  0  0
    5.2519    0.3834    0.0000 C   0  0  0  0  0  0  0  0  0  0  0  0
    7.0003    3.4180    0.0000 C   0  0  3  0  0  0  0  0  0  0  0  0
    5.2403    1.3834    0.0000 C   0  0  0  0  0  0  0  0  0  0  0  0
    6.1343    2.9180    0.0000 C   0  0  0  0  0  0  0  0  0  0  0  0
    6.1343    1.9180    0.0000 C   0  0  0  0  0  0  0  0  0  0  0  0
    7.8663    2.9180    0.0000 C   0  0  0  0  0  0  0  0  0  0  0  0
    4.4380   -4.1263    0.0000 C   0  0  0  0  0  0  0  0  0  0  0  0
    7.0003    4.4180    0.0000 C   0  0  0  0  0  0  0  0  0  0  0  0
    4.3342    1.8972    0.0000 C   0  0  0  0  0  0  0  0  0  0  0  0
    7.8663    1.9180    0.0000 C   0  0  0  0  0  0  0  0  0  0  0  0
    5.2403    3.4527    0.0000 C   0  0  0  0  0  0  0  0  0  0  0  0
    4.3342    2.9388    0.0000 C   0  0  0  0  0  0  0  0  0  0  0  0
    3.6400   -4.7192    0.0000 C   0  0  0  0  0  0  0  0  0  0  0  0
    7.8663    4.9180    0.0000 C   0  0  0  0  0  0  0  0  0  0  0  0
    6.1343    4.9180    0.0000 C   0  0  0  0  0  0  0  0  0  0  0  0
    3.9616   -5.6660    0.0000 C   0  0  0  0  0  0  0  0  0  0  0  0
    2.6592   -4.5243    0.0000 C   0  0  0  0  0  0  0  0  0  0  0  0
    7.8663    5.9180    0.0000 C   0  0  0  0  0  0  0  0  0  0  0  0
    6.1343    5.9180    0.0000 C   0  0  0  0  0  0  0  0  0  0  0  0
    3.3025   -6.4180    0.0000 C   0  0  0  0  0  0  0  0  0  0  0  0
    7.0003    6.4180    0.0000 C   0  0  0  0  0  0  0  0  0  0  0  0
    2.0000   -5.2763    0.0000 C   0  0  0  0  0  0  0  0  0  0  0  0
    2.3216   -6.2231    0.0000 C   0  0  0  0  0  0  0  0  0  0  0  0
    3.3243   -1.0564    0.0000 H   0  0  0  0  0  0  0  0  0  0  0  0
    2.9338   -1.7512    0.0000 H   0  0  0  0  0  0  0  0  0  0  0  0
    5.8868   -1.7170    0.0000 H   0  0  0  0  0  0  0  0  0  0  0  0
    5.4803   -1.0314    0.0000 H   0  0  0  0  0  0  0  0  0  0  0  0
    4.1729    0.4536    0.0000 H   0  0  0  0  0  0  0  0  0  0  0  0
    3.7824   -0.2413    0.0000 H   0  0  0  0  0  0  0  0  0  0  0  0
    2.9428   -2.5358    0.0000 H   0  0  0  0  0  0  0  0  0  0  0  0
    3.3493   -3.2214    0.0000 H   0  0  0  0  0  0  0  0  0  0  0  0
    5.5054   -3.1965    0.0000 H   0  0  0  0  0  0  0  0  0  0  0  0
    5.8959   -2.5017    0.0000 H   0  0  0  0  0  0  0  0  0  0  0  0
    5.4707   -0.1967    0.0000 H   0  0  0  0  0  0  0  0  0  0  0  0
    5.8612    0.4981    0.0000 H   0  0  0  0  0  0  0  0  0  0  0  0
    7.5372    3.7280    0.0000 H   0  0  0  0  0  0  0  0  0  0  0  0
    8.4769    2.8104    0.0000 H   0  0  0  0  0  0  0  0  0  0  0  0
    8.0784    3.5006    0.0000 H   0  0  0  0  0  0  0  0  0  0  0  0
    7.0003    0.7980    0.0000 H   0  0  0  0  0  0  0  0  0  0  0  0
    3.7985    1.5851    0.0000 H   0  0  0  0  0  0  0  0  0  0  0  0
    5.2475    4.0726    0.0000 H   0  0  0  0  0  0  0  0  0  0  0  0
    3.7985    3.2509    0.0000 H   0  0  0  0  0  0  0  0  0  0  0  0
    8.4032    4.6080    0.0000 H   0  0  0  0  0  0  0  0  0  0  0  0
    5.5973    4.6080    0.0000 H   0  0  0  0  0  0  0  0  0  0  0  0
    2.4598   -3.9372    0.0000 H   0  0  0  0  0  0  0  0  0  0  0  0
    8.4032    6.2280    0.0000 H   0  0  0  0  0  0  0  0  0  0  0  0
    5.5973    6.2280    0.0000 H   0  0  0  0  0  0  0  0  0  0  0  0
    3.5019   -7.0051    0.0000 H   0  0  0  0  0  0  0  0  0  0  0  0
    7.0003    7.0380    0.0000 H   0  0  0  0  0  0  0  0  0  0  0  0
    1.3919   -5.1554    0.0000 H   0  0  0  0  0  0  0  0  0  0  0  0
    1.9129   -6.6893    0.0000 H   0  0  0  0  0  0  0  0  0  0  0  0
  1  6  1  0  0  0  0
  1 27  1  0  0  0  0
  2 21  2  0  0  0  0
  3  7  1  0  0  0  0
  3  8  1  0  0  0  0
  3  9  1  0  0  0  0
  4 10  1  0  0  0  0
  4 11  1  0  0  0  0
  4 18  1  0  0  0  0
  5 16  1  0  0  0  0
  5 21  1  0  0  0  0
  5 50  1  0  0  0  0
  6 18  2  0  0  0  0
  7 10  1  0  0  0  0
  7 35  1  0  0  0  0
  7 36  1  0  0  0  0
  8 11  1  0  0  0  0
  8 37  1  0  0  0  0
  8 38  1  0  0  0  0
  9 12  1  0  0  0  0
  9 39  1  0  0  0  0
  9 40  1  0  0  0  0
 10 41  1  0  0  0  0
 10 42  1  0  0  0  0
 11 43  1  0  0  0  0
 11 44  1  0  0  0  0
 12 14  1  0  0  0  0
 12 45  1  0  0  0  0
 12 46  1  0  0  0  0
 13 15  1  0  0  0  0
 13 17  1  0  0  0  0
 13 19  1  0  0  0  0
 13 47  1  0  0  0  0
 14 16  2  0  0  0  0
 14 20  1  0  0  0  0
 15 16  1  0  0  0  0
 15 22  2  0  0  0  0
 17 21  1  0  0  0  0
 17 48  1  0  0  0  0
 17 49  1  0  0  0  0
 18 24  1  0  0  0  0
 19 25  2  0  0  0  0
 19 26  1  0  0  0  0
 20 23  2  0  0  0  0
 20 51  1  0  0  0  0
 22 23  1  0  0  0  0
 22 52  1  0  0  0  0
 23 53  1  0  0  0  0
 24 27  1  0  0  0  0
 24 28  2  0  0  0  0
 25 29  1  0  0  0  0
 25 54  1  0  0  0  0
 26 30  2  0  0  0  0
 26 55  1  0  0  0  0
 27 31  2  0  0  0  0
 28 33  1  0  0  0  0
 28 56  1  0  0  0  0
 29 32  2  0  0  0  0
 29 57  1  0  0  0  0
 30 32  1  0  0  0  0
 30 58  1  0  0  0  0
 31 34  1  0  0  0  0
 31 59  1  0  0  0  0
 32 60  1  0  0  0  0
 33 34  2  0  0  0  0
 33 61  1  0  0  0  0
 34 62  1  0  0  0  0
M  END
> <PUBCHEM_COMPOUND_CID>
10367367

> <PUBCHEM_COMPOUND_CANONICALIZED>
1

> <PUBCHEM_CACTVS_COMPLEXITY>
692

> <PUBCHEM_CACTVS_HBOND_ACCEPTOR>
5

> <PUBCHEM_CACTVS_HBOND_DONOR>
1

> <PUBCHEM_CACTVS_ROTATABLE_BOND>
5

> <PUBCHEM_CACTVS_SUBSKEYS>
AAADceB7oABAAAAAAAAAAAAAAAAAAWAAAAA8eMECAAAAAFix9AAAHgQQQAAADQjB2gQx8dPAAACsAidycACDABAhAABJmDkoRJiIYLLAmZGUIAxglALIyAcYicCegAACAAAGAAAAAAQAAAwAAAAAAAAAAA==

> <PUBCHEM_IUPAC_OPENEYE_NAME>
8-[2-[4-(1,2-benzothiazol-3-yl)piperazin-1-yl]ethyl]-4-phenyl-3,4-dihydro-1H-quinolin-2-one

> <PUBCHEM_IUPAC_CAS_NAME>
8-[2-[4-(1,2-benzothiazol-3-yl)-1-piperazinyl]ethyl]-4-phenyl-3,4-dihydro-1H-quinolin-2-one

> <PUBCHEM_IUPAC_NAME_MARKUP>
8-[2-[4-(1,2-benzothiazol-3-yl)piperazin-1-yl]ethyl]-4-phenyl-3,4-dihydro-1<I>H</I>-quinolin-2-one

> <PUBCHEM_IUPAC_NAME>
8-[2-[4-(1,2-benzothiazol-3-yl)piperazin-1-yl]ethyl]-4-phenyl-3,4-dihydro-1H-quinolin-2-one

> <PUBCHEM_IUPAC_SYSTEMATIC_NAME>
8-[2-[4-(1,2-benzothiazol-3-yl)piperazin-1-yl]ethyl]-4-phenyl-3,4-dihydro-1H-quinolin-2-one

> <PUBCHEM_IUPAC_TRADITIONAL_NAME>
8-[2-[4-(1,2-benzothiazol-3-yl)piperazino]ethyl]-4-phenyl-3,4-dihydrocarbostyril

> <PUBCHEM_IUPAC_INCHI>
InChI=1S/C28H28N4OS/c33-26-19-24(20-7-2-1-3-8-20)22-11-6-9-21(27(22)29-26)13-14-31-15-17-32(18-16-31)28-23-10-4-5-12-25(23)34-30-28/h1-12,24H,13-19H2,(H,29,33)

> <PUBCHEM_IUPAC_INCHIKEY>
TWLLJXZOTXAUCG-UHFFFAOYSA-N

> <PUBCHEM_XLOGP3_AA>
5.1

> <PUBCHEM_EXACT_MASS>
468.19838270

> <PUBCHEM_MOLECULAR_FORMULA>
C28H28N4OS

> <PUBCHEM_MOLECULAR_WEIGHT>
468.6

> <PUBCHEM_OPENEYE_CAN_SMILES>
C1CN(CCN1CCC2=C3C(=CC=C2)C(CC(=O)N3)C4=CC=CC=C4)C5=NSC6=CC=CC=C65

> <PUBCHEM_OPENEYE_ISO_SMILES>
C1CN(CCN1CCC2=C3C(=CC=C2)C(CC(=O)N3)C4=CC=CC=C4)C5=NSC6=CC=CC=C65

> <PUBCHEM_CACTVS_TPSA>
76.7

> <PUBCHEM_MONOISOTOPIC_WEIGHT>
468.19838270

> <PUBCHEM_TOTAL_CHARGE>
0

> <PUBCHEM_HEAVY_ATOM_COUNT>
34

> <PUBCHEM_ATOM_DEF_STEREO_COUNT>
0

> <PUBCHEM_ATOM_UDEF_STEREO_COUNT>
1

> <PUBCHEM_BOND_DEF_STEREO_COUNT>
0

> <PUBCHEM_BOND_UDEF_STEREO_COUNT>
0

> <PUBCHEM_ISOTOPIC_ATOM_COUNT>
0

> <PUBCHEM_COMPONENT_COUNT>
1

> <PUBCHEM_CACTVS_TAUTO_COUNT>
-1

> <PUBCHEM_COORDINATE_TYPE>
1
5
255

> <PUBCHEM_BONDANNOTATIONS>
1  27  8
1  6  8
13  19  3
14  16  8
14  20  8
15  16  8
15  22  8
18  24  8
19  25  8
19  26  8
20  23  8
22  23  8
24  27  8
24  28  8
25  29  8
26  30  8
27  31  8
28  33  8
29  32  8
30  32  8
31  34  8
33  34  8
6  18  8

$$$$
