117365679
  -OEChem-09292322022D

 37 39  0     0  0  0  0  0  0999 V2000
    7.1279   -2.3630    0.0000 O   0  0  0  0  0  0  0  0  0  0  0  0
    2.8660    1.1370    0.0000 N   0  0  0  0  0  0  0  0  0  0  0  0
    2.8660    3.1370    0.0000 N   0  0  0  0  0  0  0  0  0  0  0  0
    5.5443   -3.1677    0.0000 N   0  0  0  0  0  0  0  0  0  0  0  0
    2.8660    0.1370    0.0000 C   0  0  0  0  0  0  0  0  0  0  0  0
    3.7320    1.6370    0.0000 C   0  0  0  0  0  0  0  0  0  0  0  0
    2.0000    1.6370    0.0000 C   0  0  0  0  0  0  0  0  0  0  0  0
    3.7320   -0.3630    0.0000 C   0  0  0  0  0  0  0  0  0  0  0  0
    3.7320    2.6370    0.0000 C   0  0  0  0  0  0  0  0  0  0  0  0
    2.0000    2.6370    0.0000 C   0  0  0  0  0  0  0  0  0  0  0  0
    3.7320   -1.3630    0.0000 C   0  0  0  0  0  0  0  0  0  0  0  0
    4.5981   -1.8630    0.0000 C   0  0  0  0  0  0  0  0  0  0  0  0
    5.5443   -1.5582    0.0000 C   0  0  0  0  0  0  0  0  0  0  0  0
    4.5981   -2.8630    0.0000 C   0  0  0  0  0  0  0  0  0  0  0  0
    2.8660   -1.8630    0.0000 C   0  0  0  0  0  0  0  0  0  0  0  0
    6.1279   -2.3630    0.0000 C   0  0  0  0  0  0  0  0  0  0  0  0
    3.7320   -3.3630    0.0000 C   0  0  0  0  0  0  0  0  0  0  0  0
    2.8660   -2.8630    0.0000 C   0  0  0  0  0  0  0  0  0  0  0  0
    2.2554    0.2447    0.0000 H   0  0  0  0  0  0  0  0  0  0  0  0
    2.6540   -0.4456    0.0000 H   0  0  0  0  0  0  0  0  0  0  0  0
    3.9441    1.0544    0.0000 H   0  0  0  0  0  0  0  0  0  0  0  0
    4.3426    1.7447    0.0000 H   0  0  0  0  0  0  0  0  0  0  0  0
    1.3894    1.7447    0.0000 H   0  0  0  0  0  0  0  0  0  0  0  0
    1.7880    1.0544    0.0000 H   0  0  0  0  0  0  0  0  0  0  0  0
    4.3426   -0.4706    0.0000 H   0  0  0  0  0  0  0  0  0  0  0  0
    3.9441    0.2196    0.0000 H   0  0  0  0  0  0  0  0  0  0  0  0
    4.3426    2.5294    0.0000 H   0  0  0  0  0  0  0  0  0  0  0  0
    3.9441    3.2196    0.0000 H   0  0  0  0  0  0  0  0  0  0  0  0
    1.7880    3.2196    0.0000 H   0  0  0  0  0  0  0  0  0  0  0  0
    1.3894    2.5294    0.0000 H   0  0  0  0  0  0  0  0  0  0  0  0
    2.8660    3.7570    0.0000 H   0  0  0  0  0  0  0  0  0  0  0  0
    6.0817   -1.2490    0.0000 H   0  0  0  0  0  0  0  0  0  0  0  0
    5.2933   -0.9913    0.0000 H   0  0  0  0  0  0  0  0  0  0  0  0
    2.3291   -1.5530    0.0000 H   0  0  0  0  0  0  0  0  0  0  0  0
    5.7369   -3.7570    0.0000 H   0  0  0  0  0  0  0  0  0  0  0  0
    3.7320   -3.9830    0.0000 H   0  0  0  0  0  0  0  0  0  0  0  0
    2.3291   -3.1730    0.0000 H   0  0  0  0  0  0  0  0  0  0  0  0
  1 16  2  0  0  0  0
  2  5  1  0  0  0  0
  2  6  1  0  0  0  0
  2  7  1  0  0  0  0
  3  9  1  0  0  0  0
  3 10  1  0  0  0  0
  3 31  1  0  0  0  0
  4 14  1  0  0  0  0
  4 16  1  0  0  0  0
  4 35  1  0  0  0  0
  5  8  1  0  0  0  0
  5 19  1  0  0  0  0
  5 20  1  0  0  0  0
  6  9  1  0  0  0  0
  6 21  1  0  0  0  0
  6 22  1  0  0  0  0
  7 10  1  0  0  0  0
  7 23  1  0  0  0  0
  7 24  1  0  0  0  0
  8 11  1  0  0  0  0
  8 25  1  0  0  0  0
  8 26  1  0  0  0  0
  9 27  1  0  0  0  0
  9 28  1  0  0  0  0
 10 29  1  0  0  0  0
 10 30  1  0  0  0  0
 11 12  2  0  0  0  0
 11 15  1  0  0  0  0
 12 13  1  0  0  0  0
 12 14  1  0  0  0  0
 13 16  1  0  0  0  0
 13 32  1  0  0  0  0
 13 33  1  0  0  0  0
 14 17  2  0  0  0  0
 15 18  2  0  0  0  0
 15 34  1  0  0  0  0
 17 18  1  0  0  0  0
 17 36  1  0  0  0  0
 18 37  1  0  0  0  0
M  END
> <PUBCHEM_COMPOUND_CID>
117365679

> <PUBCHEM_COMPOUND_CANONICALIZED>
1

> <PUBCHEM_CACTVS_COMPLEXITY>
301

> <PUBCHEM_CACTVS_HBOND_ACCEPTOR>
3

> <PUBCHEM_CACTVS_HBOND_DONOR>
2

> <PUBCHEM_CACTVS_ROTATABLE_BOND>
3

> <PUBCHEM_CACTVS_SUBSKEYS>
AAADceBzIAAAAAAAAAAAAAAAAAAAAWAAAAA8QAAAAAAAAFgBAAAAHgAQAAAADAjBmAQwwIPAAACIAiVSUACCAAAhAgAIiIEIZIgIYDLAlZGUIAhglADIyAcciICOgAAAQAASAAAAAACAACQAAAAAAAAAAA==

> <PUBCHEM_IUPAC_OPENEYE_NAME>
4-(2-piperazin-1-ylethyl)indolin-2-one

> <PUBCHEM_IUPAC_CAS_NAME>
4-[2-(1-piperazinyl)ethyl]-1,3-dihydroindol-2-one

> <PUBCHEM_IUPAC_NAME_MARKUP>
4-(2-piperazin-1-ylethyl)-1,3-dihydroindol-2-one

> <PUBCHEM_IUPAC_NAME>
4-(2-piperazin-1-ylethyl)-1,3-dihydroindol-2-one

> <PUBCHEM_IUPAC_SYSTEMATIC_NAME>
4-(2-piperazin-1-ylethyl)-1,3-dihydroindol-2-one

> <PUBCHEM_IUPAC_TRADITIONAL_NAME>
4-(2-piperazinoethyl)oxindole

> <PUBCHEM_IUPAC_INCHI>
InChI=1S/C14H19N3O/c18-14-10-12-11(2-1-3-13(12)16-14)4-7-17-8-5-15-6-9-17/h1-3,15H,4-10H2,(H,16,18)

> <PUBCHEM_IUPAC_INCHIKEY>
AUAOSPZQHSHFPE-UHFFFAOYSA-N

> <PUBCHEM_XLOGP3>
0.3

> <PUBCHEM_EXACT_MASS>
245.152812238

> <PUBCHEM_MOLECULAR_FORMULA>
C14H19N3O

> <PUBCHEM_MOLECULAR_WEIGHT>
245.32

> <PUBCHEM_OPENEYE_CAN_SMILES>
C1CN(CCN1)CCC2=C3CC(=O)NC3=CC=C2

> <PUBCHEM_OPENEYE_ISO_SMILES>
C1CN(CCN1)CCC2=C3CC(=O)NC3=CC=C2

> <PUBCHEM_CACTVS_TPSA>
44.4

> <PUBCHEM_MONOISOTOPIC_WEIGHT>
245.152812238

> <PUBCHEM_TOTAL_CHARGE>
0

> <PUBCHEM_HEAVY_ATOM_COUNT>
18

> <PUBCHEM_ATOM_DEF_STEREO_COUNT>
0

> <PUBCHEM_ATOM_UDEF_STEREO_COUNT>
0

> <PUBCHEM_BOND_DEF_STEREO_COUNT>
0

> <PUBCHEM_BOND_UDEF_STEREO_COUNT>
0

> <PUBCHEM_ISOTOPIC_ATOM_COUNT>
0

> <PUBCHEM_COMPONENT_COUNT>
1

> <PUBCHEM_CACTVS_TAUTO_COUNT>
-1

> <PUBCHEM_COORDINATE_TYPE>
1
5
255

> <PUBCHEM_BONDANNOTATIONS>
11  12  8
11  15  8
12  14  8
14  17  8
15  18  8
17  18  8

$$$$
