53248345
  -OEChem-09292322312D

 77 81  0     1  0  0  0  0  0999 V2000
   16.2787   -1.4079    0.0000 O   0  0  0  0  0  0  0  0  0  0  0  0
   12.9800   -0.3501    0.0000 N   0  0  0  0  0  0  0  0  0  0  0  0
   14.9347    0.0733    0.0000 N   0  0  0  0  0  0  0  0  0  0  0  0
    8.7040    0.4960    0.0000 N   0  0  3  0  0  0  0  0  0  0  0  0
   13.6520   -1.0907    0.0000 C   0  0  0  0  0  0  0  0  0  0  0  0
   13.2854    0.6021    0.0000 C   0  0  0  0  0  0  0  0  0  0  0  0
   12.0027   -0.5618    0.0000 C   0  0  0  0  0  0  0  0  0  0  0  0
   14.6294   -0.8790    0.0000 C   0  0  0  0  0  0  0  0  0  0  0  0
   14.2627    0.8138    0.0000 C   0  0  0  0  0  0  0  0  0  0  0  0
   11.3307    0.1788    0.0000 C   0  0  0  0  0  0  0  0  0  0  0  0
   10.3534   -0.0329    0.0000 C   0  0  0  0  0  0  0  0  0  0  0  0
    9.6814    0.7076    0.0000 C   0  0  0  0  0  0  0  0  0  0  0  0
   15.9121    0.2849    0.0000 C   0  0  0  0  0  0  0  0  0  0  0  0
    8.0321    1.2365    0.0000 C   0  0  0  0  0  0  0  0  0  0  0  0
    8.3987   -0.4563    0.0000 C   0  0  0  0  0  0  0  0  0  0  0  0
    7.0547    1.0248    0.0000 C   0  0  0  0  0  0  0  0  0  0  0  0
    5.3364    1.5613    0.0000 C   0  0  0  0  0  0  0  0  0  0  0  0
    5.0274    0.6102    0.0000 C   0  0  0  0  0  0  0  0  0  0  0  0
    4.5274    2.1491    0.0000 C   0  0  0  0  0  0  0  0  0  0  0  0
    6.3518    1.7935    0.0000 C   0  0  0  0  0  0  0  0  0  0  0  0
    4.0274    0.6102    0.0000 C   0  0  0  0  0  0  0  0  0  0  0  0
    3.7183    1.5613    0.0000 C   0  0  0  0  0  0  0  0  0  0  0  0
    9.0707   -1.1968    0.0000 C   0  0  0  0  0  0  0  0  0  0  0  0
   16.5841   -0.4556    0.0000 C   0  0  0  0  0  0  0  0  0  0  0  0
    6.7328    0.0342    0.0000 C   0  0  0  0  0  0  0  0  0  0  0  0
   16.2174    1.2372    0.0000 C   0  0  0  0  0  0  0  0  0  0  0  0
    5.7123   -0.1745    0.0000 C   0  0  0  0  0  0  0  0  0  0  0  0
    3.3424   -0.1745    0.0000 C   0  0  0  0  0  0  0  0  0  0  0  0
    2.7029    1.7935    0.0000 C   0  0  0  0  0  0  0  0  0  0  0  0
    8.7653   -2.1491    0.0000 C   0  0  0  0  0  0  0  0  0  0  0  0
   17.5614   -0.2439    0.0000 C   0  0  0  0  0  0  0  0  0  0  0  0
   17.1947    1.4488    0.0000 C   0  0  0  0  0  0  0  0  0  0  0  0
   17.8667    0.7083    0.0000 C   0  0  0  0  0  0  0  0  0  0  0  0
    2.3219    0.0342    0.0000 C   0  0  0  0  0  0  0  0  0  0  0  0
    2.0000    1.0248    0.0000 C   0  0  0  0  0  0  0  0  0  0  0  0
   16.9507   -2.1484    0.0000 C   0  0  0  0  0  0  0  0  0  0  0  0
   13.1275   -1.4212    0.0000 H   0  0  0  0  0  0  0  0  0  0  0  0
   13.8865   -1.6646    0.0000 H   0  0  0  0  0  0  0  0  0  0  0  0
   13.2614    1.2217    0.0000 H   0  0  0  0  0  0  0  0  0  0  0  0
   12.6711    0.6861    0.0000 H   0  0  0  0  0  0  0  0  0  0  0  0
   11.4782   -0.8924    0.0000 H   0  0  0  0  0  0  0  0  0  0  0  0
   12.2372   -1.1357    0.0000 H   0  0  0  0  0  0  0  0  0  0  0  0
   14.6534   -1.4985    0.0000 H   0  0  0  0  0  0  0  0  0  0  0  0
   15.2437   -0.9629    0.0000 H   0  0  0  0  0  0  0  0  0  0  0  0
   14.7873    1.1444    0.0000 H   0  0  0  0  0  0  0  0  0  0  0  0
   14.0283    1.3878    0.0000 H   0  0  0  0  0  0  0  0  0  0  0  0
   11.8552    0.5093    0.0000 H   0  0  0  0  0  0  0  0  0  0  0  0
   11.0962    0.7527    0.0000 H   0  0  0  0  0  0  0  0  0  0  0  0
    9.8289   -0.3635    0.0000 H   0  0  0  0  0  0  0  0  0  0  0  0
   10.5878   -0.6069    0.0000 H   0  0  0  0  0  0  0  0  0  0  0  0
   10.2059    1.0382    0.0000 H   0  0  0  0  0  0  0  0  0  0  0  0
    9.4469    1.2816    0.0000 H   0  0  0  0  0  0  0  0  0  0  0  0
    8.5566    1.5671    0.0000 H   0  0  0  0  0  0  0  0  0  0  0  0
    7.7976    1.8105    0.0000 H   0  0  0  0  0  0  0  0  0  0  0  0
    7.8502   -0.1673    0.0000 H   0  0  0  0  0  0  0  0  0  0  0  0
    8.0189   -0.9463    0.0000 H   0  0  0  0  0  0  0  0  0  0  0  0
    4.9422    2.6098    0.0000 H   0  0  0  0  0  0  0  0  0  0  0  0
    4.1125    2.6098    0.0000 H   0  0  0  0  0  0  0  0  0  0  0  0
    6.5365    2.3854    0.0000 H   0  0  0  0  0  0  0  0  0  0  0  0
    9.6192   -1.4858    0.0000 H   0  0  0  0  0  0  0  0  0  0  0  0
    9.4505   -0.7068    0.0000 H   0  0  0  0  0  0  0  0  0  0  0  0
    7.1459   -0.4281    0.0000 H   0  0  0  0  0  0  0  0  0  0  0  0
   15.8008    1.6963    0.0000 H   0  0  0  0  0  0  0  0  0  0  0  0
    5.5139   -0.7619    0.0000 H   0  0  0  0  0  0  0  0  0  0  0  0
    3.5408   -0.7619    0.0000 H   0  0  0  0  0  0  0  0  0  0  0  0
    2.5182    2.3854    0.0000 H   0  0  0  0  0  0  0  0  0  0  0  0
    8.1750   -1.9598    0.0000 H   0  0  0  0  0  0  0  0  0  0  0  0
    8.5760   -2.7395    0.0000 H   0  0  0  0  0  0  0  0  0  0  0  0
    9.3557   -2.3384    0.0000 H   0  0  0  0  0  0  0  0  0  0  0  0
   17.9780   -0.7031    0.0000 H   0  0  0  0  0  0  0  0  0  0  0  0
   17.3841    2.0392    0.0000 H   0  0  0  0  0  0  0  0  0  0  0  0
   18.4727    0.8395    0.0000 H   0  0  0  0  0  0  0  0  0  0  0  0
    1.9088   -0.4281    0.0000 H   0  0  0  0  0  0  0  0  0  0  0  0
    1.3940    1.1561    0.0000 H   0  0  0  0  0  0  0  0  0  0  0  0
   16.4915   -2.5651    0.0000 H   0  0  0  0  0  0  0  0  0  0  0  0
   17.3673   -2.6076    0.0000 H   0  0  0  0  0  0  0  0  0  0  0  0
   17.4098   -1.7318    0.0000 H   0  0  0  0  0  0  0  0  0  0  0  0
  1 24  1  0  0  0  0
  1 36  1  0  0  0  0
  2  5  1  0  0  0  0
  2  6  1  0  0  0  0
  2  7  1  0  0  0  0
  3  8  1  0  0  0  0
  3  9  1  0  0  0  0
  3 13  1  0  0  0  0
  4 12  1  0  0  0  0
  4 14  1  0  0  0  0
  4 15  1  0  0  0  0
  5  8  1  0  0  0  0
  5 37  1  0  0  0  0
  5 38  1  0  0  0  0
  6  9  1  0  0  0  0
  6 39  1  0  0  0  0
  6 40  1  0  0  0  0
  7 10  1  0  0  0  0
  7 41  1  0  0  0  0
  7 42  1  0  0  0  0
  8 43  1  0  0  0  0
  8 44  1  0  0  0  0
  9 45  1  0  0  0  0
  9 46  1  0  0  0  0
 10 11  1  0  0  0  0
 10 47  1  0  0  0  0
 10 48  1  0  0  0  0
 11 12  1  0  0  0  0
 11 49  1  0  0  0  0
 11 50  1  0  0  0  0
 12 51  1  0  0  0  0
 12 52  1  0  0  0  0
 13 24  1  0  0  0  0
 13 26  2  0  0  0  0
 14 16  1  0  0  0  0
 14 53  1  0  0  0  0
 14 54  1  0  0  0  0
 15 23  1  0  0  0  0
 15 55  1  0  0  0  0
 15 56  1  0  0  0  0
 16 20  2  0  0  0  0
 16 25  1  0  0  0  0
 17 18  2  0  0  0  0
 17 19  1  0  0  0  0
 17 20  1  0  0  0  0
 18 21  1  0  0  0  0
 18 27  1  0  0  0  0
 19 22  1  0  0  0  0
 19 57  1  0  0  0  0
 19 58  1  0  0  0  0
 20 59  1  0  0  0  0
 21 22  1  0  0  0  0
 21 28  2  0  0  0  0
 22 29  2  0  0  0  0
 23 30  1  0  0  0  0
 23 60  1  0  0  0  0
 23 61  1  0  0  0  0
 24 31  2  0  0  0  0
 25 27  2  0  0  0  0
 25 62  1  0  0  0  0
 26 32  1  0  0  0  0
 26 63  1  0  0  0  0
 27 64  1  0  0  0  0
 28 34  1  0  0  0  0
 28 65  1  0  0  0  0
 29 35  1  0  0  0  0
 29 66  1  0  0  0  0
 30 67  1  0  0  0  0
 30 68  1  0  0  0  0
 30 69  1  0  0  0  0
 31 33  1  0  0  0  0
 31 70  1  0  0  0  0
 32 33  2  0  0  0  0
 32 71  1  0  0  0  0
 33 72  1  0  0  0  0
 34 35  2  0  0  0  0
 34 73  1  0  0  0  0
 35 74  1  0  0  0  0
 36 75  1  0  0  0  0
 36 76  1  0  0  0  0
 36 77  1  0  0  0  0
M  END
> <PUBCHEM_COMPOUND_CID>
53248345

> <PUBCHEM_COMPOUND_CANONICALIZED>
1

> <PUBCHEM_CACTVS_COMPLEXITY>
635

> <PUBCHEM_CACTVS_HBOND_ACCEPTOR>
4

> <PUBCHEM_CACTVS_HBOND_DONOR>
0

> <PUBCHEM_CACTVS_ROTATABLE_BOND>
11

> <PUBCHEM_CACTVS_SUBSKEYS>
AAADcfB/IAAAAAAAAAAAAAAAAAAAAYAAAAA8YMEAAAAAAGABUAAAHgAAAAAADAzBmAYyxoMABACAAiRCQACCCAAhIgAIiAAPbIgOZiLEsZuVMChkwBHY6AeQwMAOwAACAAAQEACAAAQAACAgAQAACAAAAA==

> <PUBCHEM_IUPAC_OPENEYE_NAME>
N-(9H-fluoren-2-ylmethyl)-4-[4-(2-methoxyphenyl)piperazin-1-yl]-N-propyl-butan-1-amine

> <PUBCHEM_IUPAC_CAS_NAME>
N-(9H-fluoren-2-ylmethyl)-4-[4-(2-methoxyphenyl)-1-piperazinyl]-N-propyl-1-butanamine

> <PUBCHEM_IUPAC_NAME_MARKUP>
<I>N</I>-(9<I>H</I>-fluoren-2-ylmethyl)-4-[4-(2-methoxyphenyl)piperazin-1-yl]-<I>N</I>-propylbutan-1-amine

> <PUBCHEM_IUPAC_NAME>
N-(9H-fluoren-2-ylmethyl)-4-[4-(2-methoxyphenyl)piperazin-1-yl]-N-propylbutan-1-amine

> <PUBCHEM_IUPAC_SYSTEMATIC_NAME>
N-(9H-fluoren-2-ylmethyl)-4-[4-(2-methoxyphenyl)piperazin-1-yl]-N-propyl-butan-1-amine

> <PUBCHEM_IUPAC_TRADITIONAL_NAME>
9H-fluoren-2-ylmethyl-[4-[4-(2-methoxyphenyl)piperazino]butyl]-propyl-amine

> <PUBCHEM_IUPAC_INCHI>
InChI=1S/C32H41N3O/c1-3-16-34(25-26-14-15-30-28(23-26)24-27-10-4-5-11-29(27)30)18-9-8-17-33-19-21-35(22-20-33)31-12-6-7-13-32(31)36-2/h4-7,10-15,23H,3,8-9,16-22,24-25H2,1-2H3

> <PUBCHEM_IUPAC_INCHIKEY>
HUKSBDBJOJSVHS-UHFFFAOYSA-N

> <PUBCHEM_XLOGP3_AA>
6.6

> <PUBCHEM_EXACT_MASS>
483.324962940

> <PUBCHEM_MOLECULAR_FORMULA>
C32H41N3O

> <PUBCHEM_MOLECULAR_WEIGHT>
483.7

> <PUBCHEM_OPENEYE_CAN_SMILES>
CCCN(CCCCN1CCN(CC1)C2=CC=CC=C2OC)CC3=CC4=C(C=C3)C5=CC=CC=C5C4

> <PUBCHEM_OPENEYE_ISO_SMILES>
CCCN(CCCCN1CCN(CC1)C2=CC=CC=C2OC)CC3=CC4=C(C=C3)C5=CC=CC=C5C4

> <PUBCHEM_CACTVS_TPSA>
19

> <PUBCHEM_MONOISOTOPIC_WEIGHT>
483.324962940

> <PUBCHEM_TOTAL_CHARGE>
0

> <PUBCHEM_HEAVY_ATOM_COUNT>
36

> <PUBCHEM_ATOM_DEF_STEREO_COUNT>
0

> <PUBCHEM_ATOM_UDEF_STEREO_COUNT>
0

> <PUBCHEM_BOND_DEF_STEREO_COUNT>
0

> <PUBCHEM_BOND_UDEF_STEREO_COUNT>
0

> <PUBCHEM_ISOTOPIC_ATOM_COUNT>
0

> <PUBCHEM_COMPONENT_COUNT>
1

> <PUBCHEM_CACTVS_TAUTO_COUNT>
-1

> <PUBCHEM_COORDINATE_TYPE>
1
5
255

> <PUBCHEM_BONDANNOTATIONS>
13  24  8
13  26  8
16  20  8
16  25  8
17  18  8
17  20  8
18  27  8
21  22  8
21  28  8
22  29  8
24  31  8
25  27  8
26  32  8
28  34  8
29  35  8
31  33  8
32  33  8
34  35  8

$$$$
