146680920
  -OEChem-09292322412D

 51 55  0     0  0  0  0  0  0999 V2000
    4.6753   -1.2082    0.0000 S   0  0  0  0  0  0  0  0  0  0  0  0
    5.6753   -1.2082    0.0000 O   0  0  0  0  0  0  0  0  0  0  0  0
    3.6753   -1.2082    0.0000 O   0  0  0  0  0  0  0  0  0  0  0  0
    7.4836    2.6083    0.0000 O   0  0  0  0  0  0  0  0  0  0  0  0
    4.6753   -0.2082    0.0000 N   0  0  0  0  0  0  0  0  0  0  0  0
    2.4036    3.7426    0.0000 N   0  0  0  0  0  0  0  0  0  0  0  0
    5.5413   -3.7082    0.0000 N   0  0  0  0  0  0  0  0  0  0  0  0
    4.1753    1.3216    0.0000 C   0  0  0  0  0  0  0  0  0  0  0  0
    3.5847    2.1286    0.0000 C   0  0  0  0  0  0  0  0  0  0  0  0
    5.1694    1.3259    0.0000 C   0  0  0  0  0  0  0  0  0  0  0  0
    5.4800    0.3754    0.0000 C   0  0  0  0  0  0  0  0  0  0  0  0
    3.9883    3.0435    0.0000 C   0  0  0  0  0  0  0  0  0  0  0  0
    3.8706    0.3754    0.0000 C   0  0  0  0  0  0  0  0  0  0  0  0
    3.3977    3.8505    0.0000 C   0  0  0  0  0  0  0  0  0  0  0  0
    2.5906    2.0206    0.0000 C   0  0  0  0  0  0  0  0  0  0  0  0
    2.0000    2.8276    0.0000 C   0  0  0  0  0  0  0  0  0  0  0  0
    5.8372    2.0702    0.0000 C   0  0  0  0  0  0  0  0  0  0  0  0
    4.6753   -2.2082    0.0000 C   0  0  0  0  0  0  0  0  0  0  0  0
    6.4586    0.1692    0.0000 C   0  0  0  0  0  0  0  0  0  0  0  0
    6.8157    1.8640    0.0000 C   0  0  0  0  0  0  0  0  0  0  0  0
    3.8093   -2.7082    0.0000 C   0  0  0  0  0  0  0  0  0  0  0  0
    7.1264    0.9135    0.0000 C   0  0  0  0  0  0  0  0  0  0  0  0
    3.8093   -3.7082    0.0000 C   0  0  0  0  0  0  0  0  0  0  0  0
    5.5413   -2.7082    0.0000 C   0  0  0  0  0  0  0  0  0  0  0  0
    2.9154   -2.1736    0.0000 C   0  0  0  0  0  0  0  0  0  0  0  0
    4.6753   -4.2082    0.0000 C   0  0  0  0  0  0  0  0  0  0  0  0
    2.9154   -4.2429    0.0000 C   0  0  0  0  0  0  0  0  0  0  0  0
    2.0093   -2.6874    0.0000 C   0  0  0  0  0  0  0  0  0  0  0  0
    2.0093   -3.7290    0.0000 C   0  0  0  0  0  0  0  0  0  0  0  0
    8.4621    2.4021    0.0000 C   0  0  0  0  0  0  0  0  0  0  0  0
    4.5035    2.6986    0.0000 H   0  0  0  0  0  0  0  0  0  0  0  0
    4.4174    3.4910    0.0000 H   0  0  0  0  0  0  0  0  0  0  0  0
    3.2813    0.1828    0.0000 H   0  0  0  0  0  0  0  0  0  0  0  0
    3.9540    4.1242    0.0000 H   0  0  0  0  0  0  0  0  0  0  0  0
    3.2248    4.4459    0.0000 H   0  0  0  0  0  0  0  0  0  0  0  0
    2.3404    1.4534    0.0000 H   0  0  0  0  0  0  0  0  0  0  0  0
    1.4848    3.1725    0.0000 H   0  0  0  0  0  0  0  0  0  0  0  0
    1.5709    2.3801    0.0000 H   0  0  0  0  0  0  0  0  0  0  0  0
    5.6446    2.6595    0.0000 H   0  0  0  0  0  0  0  0  0  0  0  0
    2.0374    4.2429    0.0000 H   0  0  0  0  0  0  0  0  0  0  0  0
    6.6512   -0.4201    0.0000 H   0  0  0  0  0  0  0  0  0  0  0  0
    7.7331    0.7856    0.0000 H   0  0  0  0  0  0  0  0  0  0  0  0
    6.0783   -2.3982    0.0000 H   0  0  0  0  0  0  0  0  0  0  0  0
    2.9225   -1.5536    0.0000 H   0  0  0  0  0  0  0  0  0  0  0  0
    4.6753   -4.8282    0.0000 H   0  0  0  0  0  0  0  0  0  0  0  0
    2.9225   -4.8628    0.0000 H   0  0  0  0  0  0  0  0  0  0  0  0
    1.4736   -2.3753    0.0000 H   0  0  0  0  0  0  0  0  0  0  0  0
    1.4736   -4.0411    0.0000 H   0  0  0  0  0  0  0  0  0  0  0  0
    8.3342    1.7954    0.0000 H   0  0  0  0  0  0  0  0  0  0  0  0
    9.0688    2.2742    0.0000 H   0  0  0  0  0  0  0  0  0  0  0  0
    8.5899    3.0088    0.0000 H   0  0  0  0  0  0  0  0  0  0  0  0
  1  2  2  0  0  0  0
  1  3  2  0  0  0  0
  1  5  1  0  0  0  0
  1 18  1  0  0  0  0
  4 20  1  0  0  0  0
  4 30  1  0  0  0  0
  5 11  1  0  0  0  0
  5 13  1  0  0  0  0
  6 14  1  0  0  0  0
  6 16  1  0  0  0  0
  6 40  1  0  0  0  0
  7 24  1  0  0  0  0
  7 26  2  0  0  0  0
  8  9  1  0  0  0  0
  8 10  1  0  0  0  0
  8 13  2  0  0  0  0
  9 12  1  0  0  0  0
  9 15  2  0  0  0  0
 10 11  2  0  0  0  0
 10 17  1  0  0  0  0
 11 19  1  0  0  0  0
 12 14  1  0  0  0  0
 12 31  1  0  0  0  0
 12 32  1  0  0  0  0
 13 33  1  0  0  0  0
 14 34  1  0  0  0  0
 14 35  1  0  0  0  0
 15 16  1  0  0  0  0
 15 36  1  0  0  0  0
 16 37  1  0  0  0  0
 16 38  1  0  0  0  0
 17 20  2  0  0  0  0
 17 39  1  0  0  0  0
 18 21  1  0  0  0  0
 18 24  2  0  0  0  0
 19 22  2  0  0  0  0
 19 41  1  0  0  0  0
 20 22  1  0  0  0  0
 21 23  1  0  0  0  0
 21 25  2  0  0  0  0
 22 42  1  0  0  0  0
 23 26  1  0  0  0  0
 23 27  2  0  0  0  0
 24 43  1  0  0  0  0
 25 28  1  0  0  0  0
 25 44  1  0  0  0  0
 26 45  1  0  0  0  0
 27 29  1  0  0  0  0
 27 46  1  0  0  0  0
 28 29  2  0  0  0  0
 28 47  1  0  0  0  0
 29 48  1  0  0  0  0
 30 49  1  0  0  0  0
 30 50  1  0  0  0  0
 30 51  1  0  0  0  0
M  END
> <PUBCHEM_COMPOUND_CID>
146680920

> <PUBCHEM_COMPOUND_CANONICALIZED>
1

> <PUBCHEM_CACTVS_COMPLEXITY>
749

> <PUBCHEM_CACTVS_HBOND_ACCEPTOR>
5

> <PUBCHEM_CACTVS_HBOND_DONOR>
1

> <PUBCHEM_CACTVS_ROTATABLE_BOND>
4

> <PUBCHEM_CACTVS_SUBSKEYS>
AAADceB7MABAAAAAAAAAAAAAAAAAAWAAAAA8YIEAAAAAAFix/gAAHgQQQAAADAzB3gY+x/LIFAKgAzRnRHDCiDAxIiAI2Lw+bJgMJuLEsZuEMChk0BHI6Aew0PIOgEABAAASAAAAgAIAACQAAAAAAAAAAA==

> <PUBCHEM_IUPAC_OPENEYE_NAME>
4-[5-methoxy-3-(1,2,3,6-tetrahydropyridin-4-yl)indol-1-yl]sulfonylisoquinoline

> <PUBCHEM_IUPAC_CAS_NAME>
4-[[5-methoxy-3-(1,2,3,6-tetrahydropyridin-4-yl)-1-indolyl]sulfonyl]isoquinoline

> <PUBCHEM_IUPAC_NAME_MARKUP>
4-[5-methoxy-3-(1,2,3,6-tetrahydropyridin-4-yl)indol-1-yl]sulfonylisoquinoline

> <PUBCHEM_IUPAC_NAME>
4-[5-methoxy-3-(1,2,3,6-tetrahydropyridin-4-yl)indol-1-yl]sulfonylisoquinoline

> <PUBCHEM_IUPAC_SYSTEMATIC_NAME>
4-[5-methoxy-3-(1,2,3,6-tetrahydropyridin-4-yl)indol-1-yl]sulfonylisoquinoline

> <PUBCHEM_IUPAC_TRADITIONAL_NAME>
4-[5-methoxy-3-(1,2,3,6-tetrahydropyridin-4-yl)indol-1-yl]sulfonylisoquinoline

> <PUBCHEM_IUPAC_INCHI>
InChI=1S/C23H21N3O3S/c1-29-18-6-7-22-20(12-18)21(16-8-10-24-11-9-16)15-26(22)30(27,28)23-14-25-13-17-4-2-3-5-19(17)23/h2-8,12-15,24H,9-11H2,1H3

> <PUBCHEM_IUPAC_INCHIKEY>
GSHJIIAYCVNFDZ-UHFFFAOYSA-N

> <PUBCHEM_XLOGP3_AA>
3.1

> <PUBCHEM_EXACT_MASS>
419.13036271

> <PUBCHEM_MOLECULAR_FORMULA>
C23H21N3O3S

> <PUBCHEM_MOLECULAR_WEIGHT>
419.5

> <PUBCHEM_OPENEYE_CAN_SMILES>
COC1=CC2=C(C=C1)N(C=C2C3=CCNCC3)S(=O)(=O)C4=CN=CC5=CC=CC=C54

> <PUBCHEM_OPENEYE_ISO_SMILES>
COC1=CC2=C(C=C1)N(C=C2C3=CCNCC3)S(=O)(=O)C4=CN=CC5=CC=CC=C54

> <PUBCHEM_CACTVS_TPSA>
81.6

> <PUBCHEM_MONOISOTOPIC_WEIGHT>
419.13036271

> <PUBCHEM_TOTAL_CHARGE>
0

> <PUBCHEM_HEAVY_ATOM_COUNT>
30

> <PUBCHEM_ATOM_DEF_STEREO_COUNT>
0

> <PUBCHEM_ATOM_UDEF_STEREO_COUNT>
0

> <PUBCHEM_BOND_DEF_STEREO_COUNT>
0

> <PUBCHEM_BOND_UDEF_STEREO_COUNT>
0

> <PUBCHEM_ISOTOPIC_ATOM_COUNT>
0

> <PUBCHEM_COMPONENT_COUNT>
1

> <PUBCHEM_CACTVS_TAUTO_COUNT>
-1

> <PUBCHEM_COORDINATE_TYPE>
1
5
255

> <PUBCHEM_BONDANNOTATIONS>
10  11  8
10  17  8
11  19  8
17  20  8
18  21  8
18  24  8
19  22  8
20  22  8
21  23  8
21  25  8
23  26  8
23  27  8
25  28  8
27  29  8
28  29  8
5  11  8
5  13  8
7  24  8
7  26  8
8  10  8
8  13  8

$$$$
