155532545
  -OEChem-09292322462D

 43 46  0     0  0  0  0  0  0999 V2000
    4.9889   -2.4611    0.0000 S   0  0  0  0  0  0  0  0  0  0  0  0
    5.9394   -2.1504    0.0000 O   0  0  0  0  0  0  0  0  0  0  0  0
    4.0384   -2.7717    0.0000 O   0  0  0  0  0  0  0  0  0  0  0  0
    6.3326    4.1514    0.0000 O   0  0  0  0  0  0  0  0  0  0  0  0
    4.6783   -1.5106    0.0000 N   0  0  0  0  0  0  0  0  0  0  0  0
    4.4026    1.8595    0.0000 N   0  0  0  0  0  0  0  0  0  0  0  0
    5.9422    2.3568    0.0000 N   0  0  0  0  0  0  0  0  0  0  0  0
    4.6844    3.6191    0.0000 N   0  0  0  0  0  0  0  0  0  0  0  0
    3.7320   -1.2058    0.0000 C   0  0  0  0  0  0  0  0  0  0  0  0
    3.7320   -0.2058    0.0000 C   0  0  0  0  0  0  0  0  0  0  0  0
    4.6783    0.0989    0.0000 C   0  0  0  0  0  0  0  0  0  0  0  0
    5.2619   -0.7058    0.0000 C   0  0  0  0  0  0  0  0  0  0  0  0
    4.9889    1.0494    0.0000 C   0  0  0  0  0  0  0  0  0  0  0  0
    2.8660   -1.7058    0.0000 C   0  0  0  0  0  0  0  0  0  0  0  0
    2.8660    0.2942    0.0000 C   0  0  0  0  0  0  0  0  0  0  0  0
    5.2996   -3.4116    0.0000 C   0  0  0  0  0  0  0  0  0  0  0  0
    2.0000   -1.2058    0.0000 C   0  0  0  0  0  0  0  0  0  0  0  0
    2.0000   -0.2058    0.0000 C   0  0  0  0  0  0  0  0  0  0  0  0
    5.9405    1.3568    0.0000 C   0  0  0  0  0  0  0  0  0  0  0  0
    6.2781   -3.6178    0.0000 C   0  0  0  0  0  0  0  0  0  0  0  0
    4.6318   -4.1559    0.0000 C   0  0  0  0  0  0  0  0  0  0  0  0
    4.9917    2.6675    0.0000 C   0  0  0  0  0  0  0  0  0  0  0  0
    6.5888   -4.5683    0.0000 C   0  0  0  0  0  0  0  0  0  0  0  0
    4.9424   -5.1064    0.0000 C   0  0  0  0  0  0  0  0  0  0  0  0
    5.9209   -5.3126    0.0000 C   0  0  0  0  0  0  0  0  0  0  0  0
    5.3548    4.3610    0.0000 C   0  0  0  0  0  0  0  0  0  0  0  0
    5.0474    5.3126    0.0000 C   0  0  0  0  0  0  0  0  0  0  0  0
    5.8819   -0.7058    0.0000 H   0  0  0  0  0  0  0  0  0  0  0  0
    2.8660   -2.3258    0.0000 H   0  0  0  0  0  0  0  0  0  0  0  0
    2.8660    0.9142    0.0000 H   0  0  0  0  0  0  0  0  0  0  0  0
    1.4631   -1.5158    0.0000 H   0  0  0  0  0  0  0  0  0  0  0  0
    1.4631    0.1042    0.0000 H   0  0  0  0  0  0  0  0  0  0  0  0
    3.7826    1.8605    0.0000 H   0  0  0  0  0  0  0  0  0  0  0  0
    6.4415    0.9915    0.0000 H   0  0  0  0  0  0  0  0  0  0  0  0
    6.6922   -3.1563    0.0000 H   0  0  0  0  0  0  0  0  0  0  0  0
    4.0251   -4.0280    0.0000 H   0  0  0  0  0  0  0  0  0  0  0  0
    7.1954   -4.6962    0.0000 H   0  0  0  0  0  0  0  0  0  0  0  0
    4.5284   -5.5679    0.0000 H   0  0  0  0  0  0  0  0  0  0  0  0
    6.1135   -5.9020    0.0000 H   0  0  0  0  0  0  0  0  0  0  0  0
    4.0781    3.7490    0.0000 H   0  0  0  0  0  0  0  0  0  0  0  0
    5.6374    5.5032    0.0000 H   0  0  0  0  0  0  0  0  0  0  0  0
    4.8568    5.9026    0.0000 H   0  0  0  0  0  0  0  0  0  0  0  0
    4.4574    5.1221    0.0000 H   0  0  0  0  0  0  0  0  0  0  0  0
  1  2  2  0  0  0  0
  1  3  2  0  0  0  0
  1  5  1  0  0  0  0
  1 16  1  0  0  0  0
  4 26  2  0  0  0  0
  5  9  1  0  0  0  0
  5 12  1  0  0  0  0
  6 13  1  0  0  0  0
  6 22  1  0  0  0  0
  6 33  1  0  0  0  0
  7 19  1  0  0  0  0
  7 22  2  0  0  0  0
  8 22  1  0  0  0  0
  8 26  1  0  0  0  0
  8 40  1  0  0  0  0
  9 10  1  0  0  0  0
  9 14  2  0  0  0  0
 10 11  1  0  0  0  0
 10 15  2  0  0  0  0
 11 12  2  0  0  0  0
 11 13  1  0  0  0  0
 12 28  1  0  0  0  0
 13 19  2  0  0  0  0
 14 17  1  0  0  0  0
 14 29  1  0  0  0  0
 15 18  1  0  0  0  0
 15 30  1  0  0  0  0
 16 20  2  0  0  0  0
 16 21  1  0  0  0  0
 17 18  2  0  0  0  0
 17 31  1  0  0  0  0
 18 32  1  0  0  0  0
 19 34  1  0  0  0  0
 20 23  1  0  0  0  0
 20 35  1  0  0  0  0
 21 24  2  0  0  0  0
 21 36  1  0  0  0  0
 23 25  2  0  0  0  0
 23 37  1  0  0  0  0
 24 25  1  0  0  0  0
 24 38  1  0  0  0  0
 25 39  1  0  0  0  0
 26 27  1  0  0  0  0
 27 41  1  0  0  0  0
 27 42  1  0  0  0  0
 27 43  1  0  0  0  0
M  END
> <PUBCHEM_COMPOUND_CID>
155532545

> <PUBCHEM_COMPOUND_CANONICALIZED>
1

> <PUBCHEM_CACTVS_COMPLEXITY>
644

> <PUBCHEM_CACTVS_HBOND_ACCEPTOR>
4

> <PUBCHEM_CACTVS_HBOND_DONOR>
2

> <PUBCHEM_CACTVS_ROTATABLE_BOND>
4

> <PUBCHEM_CACTVS_SUBSKEYS>
AAADceB7sABAAAAAAAAAAAAAAAAAAWLAAAAwYAAAAAAAAFgB/AAAHgQQQAAADAjB3gQ/0fbJkAKoAzV3dHDCgD2xEqAJ2Tg4dJiIaOLA2ZGUIAhokQLIyCcQgMAOgAAAAAACAAAAAAAAAAQAAAAAAAAAAA==

> <PUBCHEM_IUPAC_OPENEYE_NAME>
N-[5-[1-(benzenesulfonyl)indol-3-yl]-1H-imidazol-2-yl]acetamide

> <PUBCHEM_IUPAC_CAS_NAME>
N-[5-[1-(benzenesulfonyl)-3-indolyl]-1H-imidazol-2-yl]acetamide

> <PUBCHEM_IUPAC_NAME_MARKUP>
<I>N</I>-[5-[1-(benzenesulfonyl)indol-3-yl]-1<I>H</I>-imidazol-2-yl]acetamide

> <PUBCHEM_IUPAC_NAME>
N-[5-[1-(benzenesulfonyl)indol-3-yl]-1H-imidazol-2-yl]acetamide

> <PUBCHEM_IUPAC_SYSTEMATIC_NAME>
N-[5-[1-(phenylsulfonyl)indol-3-yl]-1H-imidazol-2-yl]ethanamide

> <PUBCHEM_IUPAC_TRADITIONAL_NAME>
N-[5-(1-besylindol-3-yl)-1H-imidazol-2-yl]acetamide

> <PUBCHEM_IUPAC_INCHI>
InChI=1S/C19H16N4O3S/c1-13(24)21-19-20-11-17(22-19)16-12-23(18-10-6-5-9-15(16)18)27(25,26)14-7-3-2-4-8-14/h2-12H,1H3,(H2,20,21,22,24)

> <PUBCHEM_IUPAC_INCHIKEY>
BXDSOEQUZRFEHJ-UHFFFAOYSA-N

> <PUBCHEM_XLOGP3_AA>
2.5

> <PUBCHEM_EXACT_MASS>
380.09431156

> <PUBCHEM_MOLECULAR_FORMULA>
C19H16N4O3S

> <PUBCHEM_MOLECULAR_WEIGHT>
380.4

> <PUBCHEM_OPENEYE_CAN_SMILES>
CC(=O)NC1=NC=C(N1)C2=CN(C3=CC=CC=C32)S(=O)(=O)C4=CC=CC=C4

> <PUBCHEM_OPENEYE_ISO_SMILES>
CC(=O)NC1=NC=C(N1)C2=CN(C3=CC=CC=C32)S(=O)(=O)C4=CC=CC=C4

> <PUBCHEM_CACTVS_TPSA>
105

> <PUBCHEM_MONOISOTOPIC_WEIGHT>
380.09431156

> <PUBCHEM_TOTAL_CHARGE>
0

> <PUBCHEM_HEAVY_ATOM_COUNT>
27

> <PUBCHEM_ATOM_DEF_STEREO_COUNT>
0

> <PUBCHEM_ATOM_UDEF_STEREO_COUNT>
0

> <PUBCHEM_BOND_DEF_STEREO_COUNT>
0

> <PUBCHEM_BOND_UDEF_STEREO_COUNT>
0

> <PUBCHEM_ISOTOPIC_ATOM_COUNT>
0

> <PUBCHEM_COMPONENT_COUNT>
1

> <PUBCHEM_CACTVS_TAUTO_COUNT>
-1

> <PUBCHEM_COORDINATE_TYPE>
1
5
255

> <PUBCHEM_BONDANNOTATIONS>
10  11  8
10  15  8
11  12  8
13  19  8
14  17  8
15  18  8
16  20  8
16  21  8
17  18  8
20  23  8
21  24  8
23  25  8
24  25  8
5  12  8
5  9  8
6  13  8
6  22  8
7  19  8
7  22  8
9  10  8
9  14  8

$$$$
