122180573
  -OEChem-09292322362D

 65 70  0     0  0  0  0  0  0999 V2000
   14.0940    2.9770    0.0000 Cl  0  0  0  0  0  0  0  0  0  0  0  0
   15.4265    4.4685    0.0000 Cl  0  0  0  0  0  0  0  0  0  0  0  0
   13.3869   -0.4141    0.0000 N   0  0  0  0  0  0  0  0  0  0  0  0
   14.7194    1.0773    0.0000 N   0  0  0  0  0  0  0  0  0  0  0  0
    8.0321   -3.0574    0.0000 N   0  0  0  0  0  0  0  0  0  0  0  0
    9.6419   -3.2204    0.0000 N   0  0  0  0  0  0  0  0  0  0  0  0
    8.7778   -3.7237    0.0000 N   0  0  0  0  0  0  0  0  0  0  0  0
   14.3658   -0.6183    0.0000 C   0  0  0  0  0  0  0  0  0  0  0  0
   13.0742    0.5357    0.0000 C   0  0  0  0  0  0  0  0  0  0  0  0
   15.0321    0.1274    0.0000 C   0  0  0  0  0  0  0  0  0  0  0  0
   13.7404    1.2814    0.0000 C   0  0  0  0  0  0  0  0  0  0  0  0
   12.7206   -1.1598    0.0000 C   0  0  0  0  0  0  0  0  0  0  0  0
   11.7417   -0.9557    0.0000 C   0  0  0  0  0  0  0  0  0  0  0  0
   11.0754   -1.7014    0.0000 C   0  0  0  0  0  0  0  0  0  0  0  0
   15.3856    1.8230    0.0000 C   0  0  0  0  0  0  0  0  0  0  0  0
   10.0964   -1.4973    0.0000 C   0  0  0  0  0  0  0  0  0  0  0  0
    5.3364   -2.7327    0.0000 C   0  0  0  0  0  0  0  0  0  0  0  0
    4.5274   -2.1449    0.0000 C   0  0  0  0  0  0  0  0  0  0  0  0
    5.0274   -3.6837    0.0000 C   0  0  0  0  0  0  0  0  0  0  0  0
    9.4302   -2.2430    0.0000 C   0  0  0  0  0  0  0  0  0  0  0  0
    3.7183   -2.7327    0.0000 C   0  0  0  0  0  0  0  0  0  0  0  0
    4.0274   -3.6837    0.0000 C   0  0  0  0  0  0  0  0  0  0  0  0
   15.0730    2.7729    0.0000 C   0  0  0  0  0  0  0  0  0  0  0  0
   16.3646    1.6189    0.0000 C   0  0  0  0  0  0  0  0  0  0  0  0
    7.0547   -3.2691    0.0000 C   0  0  0  0  0  0  0  0  0  0  0  0
    6.3518   -2.5004    0.0000 C   0  0  0  0  0  0  0  0  0  0  0  0
    8.4353   -2.1423    0.0000 C   0  0  0  0  0  0  0  0  0  0  0  0
    5.7123   -4.4685    0.0000 C   0  0  0  0  0  0  0  0  0  0  0  0
    6.7328   -4.2598    0.0000 C   0  0  0  0  0  0  0  0  0  0  0  0
   15.7392    3.5186    0.0000 C   0  0  0  0  0  0  0  0  0  0  0  0
   17.0308    2.3646    0.0000 C   0  0  0  0  0  0  0  0  0  0  0  0
    2.7029   -2.5004    0.0000 C   0  0  0  0  0  0  0  0  0  0  0  0
    3.3424   -4.4685    0.0000 C   0  0  0  0  0  0  0  0  0  0  0  0
   16.7182    3.3145    0.0000 C   0  0  0  0  0  0  0  0  0  0  0  0
    2.0000   -3.2691    0.0000 C   0  0  0  0  0  0  0  0  0  0  0  0
    2.3219   -4.2598    0.0000 C   0  0  0  0  0  0  0  0  0  0  0  0
   14.1358   -1.1940    0.0000 H   0  0  0  0  0  0  0  0  0  0  0  0
   14.8928   -0.9448    0.0000 H   0  0  0  0  0  0  0  0  0  0  0  0
   12.6906    1.0228    0.0000 H   0  0  0  0  0  0  0  0  0  0  0  0
   12.5279    0.2425    0.0000 H   0  0  0  0  0  0  0  0  0  0  0  0
   15.4156   -0.3596    0.0000 H   0  0  0  0  0  0  0  0  0  0  0  0
   15.5784    0.4206    0.0000 H   0  0  0  0  0  0  0  0  0  0  0  0
   13.9705    1.8572    0.0000 H   0  0  0  0  0  0  0  0  0  0  0  0
   13.2134    1.6080    0.0000 H   0  0  0  0  0  0  0  0  0  0  0  0
   12.4906   -1.7356    0.0000 H   0  0  0  0  0  0  0  0  0  0  0  0
   13.2476   -1.4864    0.0000 H   0  0  0  0  0  0  0  0  0  0  0  0
   11.9717   -0.3800    0.0000 H   0  0  0  0  0  0  0  0  0  0  0  0
   11.2146   -0.6292    0.0000 H   0  0  0  0  0  0  0  0  0  0  0  0
   10.8454   -2.2772    0.0000 H   0  0  0  0  0  0  0  0  0  0  0  0
   11.6024   -2.0280    0.0000 H   0  0  0  0  0  0  0  0  0  0  0  0
   10.3265   -0.9215    0.0000 H   0  0  0  0  0  0  0  0  0  0  0  0
    9.5694   -1.1708    0.0000 H   0  0  0  0  0  0  0  0  0  0  0  0
    4.9422   -1.6841    0.0000 H   0  0  0  0  0  0  0  0  0  0  0  0
    4.1125   -1.6841    0.0000 H   0  0  0  0  0  0  0  0  0  0  0  0
   16.5584    1.0300    0.0000 H   0  0  0  0  0  0  0  0  0  0  0  0
    6.5365   -1.9086    0.0000 H   0  0  0  0  0  0  0  0  0  0  0  0
    8.1232   -1.6066    0.0000 H   0  0  0  0  0  0  0  0  0  0  0  0
    5.5139   -5.0559    0.0000 H   0  0  0  0  0  0  0  0  0  0  0  0
    7.1459   -4.7221    0.0000 H   0  0  0  0  0  0  0  0  0  0  0  0
    2.5182   -1.9086    0.0000 H   0  0  0  0  0  0  0  0  0  0  0  0
   17.6378    2.2380    0.0000 H   0  0  0  0  0  0  0  0  0  0  0  0
    3.5408   -5.0559    0.0000 H   0  0  0  0  0  0  0  0  0  0  0  0
   17.1312    3.7768    0.0000 H   0  0  0  0  0  0  0  0  0  0  0  0
    1.3940   -3.1379    0.0000 H   0  0  0  0  0  0  0  0  0  0  0  0
    1.9088   -4.7221    0.0000 H   0  0  0  0  0  0  0  0  0  0  0  0
  1 23  1  0  0  0  0
  2 30  1  0  0  0  0
  3  8  1  0  0  0  0
  3  9  1  0  0  0  0
  3 12  1  0  0  0  0
  4 10  1  0  0  0  0
  4 11  1  0  0  0  0
  4 15  1  0  0  0  0
  5  7  1  0  0  0  0
  5 25  1  0  0  0  0
  5 27  1  0  0  0  0
  6  7  2  0  0  0  0
  6 20  1  0  0  0  0
  8 10  1  0  0  0  0
  8 37  1  0  0  0  0
  8 38  1  0  0  0  0
  9 11  1  0  0  0  0
  9 39  1  0  0  0  0
  9 40  1  0  0  0  0
 10 41  1  0  0  0  0
 10 42  1  0  0  0  0
 11 43  1  0  0  0  0
 11 44  1  0  0  0  0
 12 13  1  0  0  0  0
 12 45  1  0  0  0  0
 12 46  1  0  0  0  0
 13 14  1  0  0  0  0
 13 47  1  0  0  0  0
 13 48  1  0  0  0  0
 14 16  1  0  0  0  0
 14 49  1  0  0  0  0
 14 50  1  0  0  0  0
 15 23  2  0  0  0  0
 15 24  1  0  0  0  0
 16 20  1  0  0  0  0
 16 51  1  0  0  0  0
 16 52  1  0  0  0  0
 17 18  1  0  0  0  0
 17 19  2  0  0  0  0
 17 26  1  0  0  0  0
 18 21  1  0  0  0  0
 18 53  1  0  0  0  0
 18 54  1  0  0  0  0
 19 22  1  0  0  0  0
 19 28  1  0  0  0  0
 20 27  2  0  0  0  0
 21 22  1  0  0  0  0
 21 32  2  0  0  0  0
 22 33  2  0  0  0  0
 23 30  1  0  0  0  0
 24 31  2  0  0  0  0
 24 55  1  0  0  0  0
 25 26  2  0  0  0  0
 25 29  1  0  0  0  0
 26 56  1  0  0  0  0
 27 57  1  0  0  0  0
 28 29  2  0  0  0  0
 28 58  1  0  0  0  0
 29 59  1  0  0  0  0
 30 34  2  0  0  0  0
 31 34  1  0  0  0  0
 31 61  1  0  0  0  0
 32 35  1  0  0  0  0
 32 60  1  0  0  0  0
 33 36  1  0  0  0  0
 33 62  1  0  0  0  0
 34 63  1  0  0  0  0
 35 36  2  0  0  0  0
 35 64  1  0  0  0  0
 36 65  1  0  0  0  0
M  END
> <PUBCHEM_COMPOUND_CID>
122180573

> <PUBCHEM_COMPOUND_CANONICALIZED>
1

> <PUBCHEM_CACTVS_COMPLEXITY>
703

> <PUBCHEM_CACTVS_HBOND_ACCEPTOR>
4

> <PUBCHEM_CACTVS_HBOND_DONOR>
0

> <PUBCHEM_CACTVS_ROTATABLE_BOND>
7

> <PUBCHEM_CACTVS_SUBSKEYS>
AAADceB7gAAGAAAAAAAAAAAAAAAAAeIAAAA8YMEAAAAAAGAB1AAAHAIIAAAADArBHiQ8wJMIAACiAzRnRACCBCQxlwAYmkA4dogIYGLBk5HUIAhggADIyAcQgMAOiAAAQAIQABQQAACABCAAKQAACAAAAA==

> <PUBCHEM_IUPAC_OPENEYE_NAME>
1-(2,3-dichlorophenyl)-4-[4-[1-(9H-fluoren-2-yl)triazol-4-yl]butyl]piperazine

> <PUBCHEM_IUPAC_CAS_NAME>
1-(2,3-dichlorophenyl)-4-[4-[1-(9H-fluoren-2-yl)-4-triazolyl]butyl]piperazine

> <PUBCHEM_IUPAC_NAME_MARKUP>
1-(2,3-dichlorophenyl)-4-[4-[1-(9<I>H</I>-fluoren-2-yl)triazol-4-yl]butyl]piperazine

> <PUBCHEM_IUPAC_NAME>
1-(2,3-dichlorophenyl)-4-[4-[1-(9H-fluoren-2-yl)triazol-4-yl]butyl]piperazine

> <PUBCHEM_IUPAC_SYSTEMATIC_NAME>
1-[2,3-bis(chloranyl)phenyl]-4-[4-[1-(9H-fluoren-2-yl)-1,2,3-triazol-4-yl]butyl]piperazine

> <PUBCHEM_IUPAC_TRADITIONAL_NAME>
1-(2,3-dichlorophenyl)-4-[4-[1-(9H-fluoren-2-yl)triazol-4-yl]butyl]piperazine

> <PUBCHEM_IUPAC_INCHI>
InChI=1S/C29H29Cl2N5/c30-27-9-5-10-28(29(27)31)35-16-14-34(15-17-35)13-4-3-7-23-20-36(33-32-23)24-11-12-26-22(19-24)18-21-6-1-2-8-25(21)26/h1-2,5-6,8-12,19-20H,3-4,7,13-18H2

> <PUBCHEM_IUPAC_INCHIKEY>
TZFNGJBTMKSJFD-UHFFFAOYSA-N

> <PUBCHEM_XLOGP3_AA>
6.9

> <PUBCHEM_EXACT_MASS>
517.1800013

> <PUBCHEM_MOLECULAR_FORMULA>
C29H29Cl2N5

> <PUBCHEM_MOLECULAR_WEIGHT>
518.5

> <PUBCHEM_OPENEYE_CAN_SMILES>
C1CN(CCN1CCCCC2=CN(N=N2)C3=CC4=C(C=C3)C5=CC=CC=C5C4)C6=C(C(=CC=C6)Cl)Cl

> <PUBCHEM_OPENEYE_ISO_SMILES>
C1CN(CCN1CCCCC2=CN(N=N2)C3=CC4=C(C=C3)C5=CC=CC=C5C4)C6=C(C(=CC=C6)Cl)Cl

> <PUBCHEM_CACTVS_TPSA>
37.2

> <PUBCHEM_MONOISOTOPIC_WEIGHT>
517.1800013

> <PUBCHEM_TOTAL_CHARGE>
0

> <PUBCHEM_HEAVY_ATOM_COUNT>
36

> <PUBCHEM_ATOM_DEF_STEREO_COUNT>
0

> <PUBCHEM_ATOM_UDEF_STEREO_COUNT>
0

> <PUBCHEM_BOND_DEF_STEREO_COUNT>
0

> <PUBCHEM_BOND_UDEF_STEREO_COUNT>
0

> <PUBCHEM_ISOTOPIC_ATOM_COUNT>
0

> <PUBCHEM_COMPONENT_COUNT>
1

> <PUBCHEM_CACTVS_TAUTO_COUNT>
-1

> <PUBCHEM_COORDINATE_TYPE>
1
5
255

> <PUBCHEM_BONDANNOTATIONS>
15  23  8
15  24  8
17  19  8
17  26  8
19  28  8
20  27  8
21  22  8
21  32  8
22  33  8
23  30  8
24  31  8
25  26  8
25  29  8
28  29  8
30  34  8
31  34  8
32  35  8
33  36  8
35  36  8
5  27  8
5  7  8
6  20  8
6  7  8

$$$$
