10546334
  -OEChem-09292322092D

 53 57  0     0  0  0  0  0  0999 V2000
    5.0757    0.4493    0.0000 N   0  0  0  0  0  0  0  0  0  0  0  0
    5.0757    2.4493    0.0000 N   0  0  0  0  0  0  0  0  0  0  0  0
    2.6067   -4.2178    0.0000 N   0  0  0  0  0  0  0  0  0  0  0  0
    4.0005   -5.0225    0.0000 N   0  0  0  0  0  0  0  0  0  0  0  0
    5.9418    0.9493    0.0000 C   0  0  0  0  0  0  0  0  0  0  0  0
    4.2097    0.9493    0.0000 C   0  0  0  0  0  0  0  0  0  0  0  0
    5.9418    1.9493    0.0000 C   0  0  0  0  0  0  0  0  0  0  0  0
    4.2097    1.9493    0.0000 C   0  0  0  0  0  0  0  0  0  0  0  0
    5.0757   -0.5507    0.0000 C   0  0  0  0  0  0  0  0  0  0  0  0
    4.2097   -1.0507    0.0000 C   0  0  0  0  0  0  0  0  0  0  0  0
    5.0757    3.4493    0.0000 C   0  0  0  0  0  0  0  0  0  0  0  0
    4.2097   -2.0507    0.0000 C   0  0  0  0  0  0  0  0  0  0  0  0
    5.9418    3.9493    0.0000 C   0  0  0  0  0  0  0  0  0  0  0  0
    4.2097    3.9493    0.0000 C   0  0  0  0  0  0  0  0  0  0  0  0
    3.3437   -2.5507    0.0000 C   0  0  0  0  0  0  0  0  0  0  0  0
    3.3437   -3.5507    0.0000 C   0  0  0  0  0  0  0  0  0  0  0  0
    5.9418    4.9493    0.0000 C   0  0  0  0  0  0  0  0  0  0  0  0
    5.0757   -2.5507    0.0000 C   0  0  0  0  0  0  0  0  0  0  0  0
    4.2097   -4.0507    0.0000 C   0  0  0  0  0  0  0  0  0  0  0  0
    5.0757   -3.5507    0.0000 C   0  0  0  0  0  0  0  0  0  0  0  0
    6.8357    3.4146    0.0000 C   0  0  0  0  0  0  0  0  0  0  0  0
    4.2097    4.9493    0.0000 C   0  0  0  0  0  0  0  0  0  0  0  0
    5.0757    5.4493    0.0000 C   0  0  0  0  0  0  0  0  0  0  0  0
    3.0118   -5.1256    0.0000 C   0  0  0  0  0  0  0  0  0  0  0  0
    6.8357    5.4840    0.0000 C   0  0  0  0  0  0  0  0  0  0  0  0
    7.7418    3.9285    0.0000 C   0  0  0  0  0  0  0  0  0  0  0  0
    7.7418    4.9701    0.0000 C   0  0  0  0  0  0  0  0  0  0  0  0
    6.1538    0.3667    0.0000 H   0  0  0  0  0  0  0  0  0  0  0  0
    6.5524    1.0570    0.0000 H   0  0  0  0  0  0  0  0  0  0  0  0
    3.5991    1.0570    0.0000 H   0  0  0  0  0  0  0  0  0  0  0  0
    3.9977    0.3667    0.0000 H   0  0  0  0  0  0  0  0  0  0  0  0
    6.5524    1.8416    0.0000 H   0  0  0  0  0  0  0  0  0  0  0  0
    6.1538    2.5319    0.0000 H   0  0  0  0  0  0  0  0  0  0  0  0
    3.9977    2.5319    0.0000 H   0  0  0  0  0  0  0  0  0  0  0  0
    3.5991    1.8416    0.0000 H   0  0  0  0  0  0  0  0  0  0  0  0
    5.2878   -1.1333    0.0000 H   0  0  0  0  0  0  0  0  0  0  0  0
    5.6863   -0.4430    0.0000 H   0  0  0  0  0  0  0  0  0  0  0  0
    3.9977   -0.4681    0.0000 H   0  0  0  0  0  0  0  0  0  0  0  0
    3.5991   -1.1584    0.0000 H   0  0  0  0  0  0  0  0  0  0  0  0
    3.6728    3.6393    0.0000 H   0  0  0  0  0  0  0  0  0  0  0  0
    2.8068   -2.2407    0.0000 H   0  0  0  0  0  0  0  0  0  0  0  0
    5.6127   -2.2407    0.0000 H   0  0  0  0  0  0  0  0  0  0  0  0
    5.6127   -3.8607    0.0000 H   0  0  0  0  0  0  0  0  0  0  0  0
    6.8285    2.7947    0.0000 H   0  0  0  0  0  0  0  0  0  0  0  0
    3.6728    5.2593    0.0000 H   0  0  0  0  0  0  0  0  0  0  0  0
    5.0757    6.0693    0.0000 H   0  0  0  0  0  0  0  0  0  0  0  0
    2.0000   -4.0899    0.0000 H   0  0  0  0  0  0  0  0  0  0  0  0
    2.4222   -5.3173    0.0000 H   0  0  0  0  0  0  0  0  0  0  0  0
    3.1405   -5.7320    0.0000 H   0  0  0  0  0  0  0  0  0  0  0  0
    4.4146   -5.4840    0.0000 H   0  0  0  0  0  0  0  0  0  0  0  0
    6.8285    6.1039    0.0000 H   0  0  0  0  0  0  0  0  0  0  0  0
    8.2775    3.6164    0.0000 H   0  0  0  0  0  0  0  0  0  0  0  0
    8.2775    5.2822    0.0000 H   0  0  0  0  0  0  0  0  0  0  0  0
  1  5  1  0  0  0  0
  1  6  1  0  0  0  0
  1  9  1  0  0  0  0
  2  7  1  0  0  0  0
  2  8  1  0  0  0  0
  2 11  1  0  0  0  0
  3 16  1  0  0  0  0
  3 24  1  0  0  0  0
  3 47  1  0  0  0  0
  4 19  1  0  0  0  0
  4 24  1  0  0  0  0
  4 50  1  0  0  0  0
  5  7  1  0  0  0  0
  5 28  1  0  0  0  0
  5 29  1  0  0  0  0
  6  8  1  0  0  0  0
  6 30  1  0  0  0  0
  6 31  1  0  0  0  0
  7 32  1  0  0  0  0
  7 33  1  0  0  0  0
  8 34  1  0  0  0  0
  8 35  1  0  0  0  0
  9 10  1  0  0  0  0
  9 36  1  0  0  0  0
  9 37  1  0  0  0  0
 10 12  1  0  0  0  0
 10 38  1  0  0  0  0
 10 39  1  0  0  0  0
 11 13  1  0  0  0  0
 11 14  2  0  0  0  0
 12 15  2  0  0  0  0
 12 18  1  0  0  0  0
 13 17  1  0  0  0  0
 13 21  2  0  0  0  0
 14 22  1  0  0  0  0
 14 40  1  0  0  0  0
 15 16  1  0  0  0  0
 15 41  1  0  0  0  0
 16 19  2  0  0  0  0
 17 23  1  0  0  0  0
 17 25  2  0  0  0  0
 18 20  2  0  0  0  0
 18 42  1  0  0  0  0
 19 20  1  0  0  0  0
 20 43  1  0  0  0  0
 21 26  1  0  0  0  0
 21 44  1  0  0  0  0
 22 23  2  0  0  0  0
 22 45  1  0  0  0  0
 23 46  1  0  0  0  0
 24 48  1  0  0  0  0
 24 49  1  0  0  0  0
 25 27  1  0  0  0  0
 25 51  1  0  0  0  0
 26 27  2  0  0  0  0
 26 52  1  0  0  0  0
 27 53  1  0  0  0  0
M  END
> <PUBCHEM_COMPOUND_CID>
10546334

> <PUBCHEM_COMPOUND_CANONICALIZED>
1

> <PUBCHEM_CACTVS_COMPLEXITY>
475

> <PUBCHEM_CACTVS_HBOND_ACCEPTOR>
4

> <PUBCHEM_CACTVS_HBOND_DONOR>
2

> <PUBCHEM_CACTVS_ROTATABLE_BOND>
4

> <PUBCHEM_CACTVS_SUBSKEYS>
AAADceB7gAAAAAAAAAAAAAAAAAAAAWAAAAA8YMEAAAAAAFjBVAAAHAAQAAAADAjBGAQxwMPAAACAAiRCQACCAAAhAgAIiIAIdIiIYCLAkZGUIAhokALIyCcQgIAOiAAAQAASACAQAACAACQAQAAAAAAAAA==

> <PUBCHEM_IUPAC_OPENEYE_NAME>
5-[2-[4-(1-naphthyl)piperazin-1-yl]ethyl]-2,3-dihydro-1H-benzimidazole

> <PUBCHEM_IUPAC_CAS_NAME>
5-[2-[4-(1-naphthalenyl)-1-piperazinyl]ethyl]-2,3-dihydro-1H-benzimidazole

> <PUBCHEM_IUPAC_NAME_MARKUP>
5-[2-(4-naphthalen-1-ylpiperazin-1-yl)ethyl]-2,3-dihydro-1<I>H</I>-benzimidazole

> <PUBCHEM_IUPAC_NAME>
5-[2-(4-naphthalen-1-ylpiperazin-1-yl)ethyl]-2,3-dihydro-1H-benzimidazole

> <PUBCHEM_IUPAC_SYSTEMATIC_NAME>
5-[2-(4-naphthalen-1-ylpiperazin-1-yl)ethyl]-2,3-dihydro-1H-benzimidazole

> <PUBCHEM_IUPAC_TRADITIONAL_NAME>
5-[2-[4-(1-naphthyl)piperazino]ethyl]-2,3-dihydro-1H-benzimidazole

> <PUBCHEM_IUPAC_INCHI>
InChI=1S/C23H26N4/c1-2-6-20-19(4-1)5-3-7-23(20)27-14-12-26(13-15-27)11-10-18-8-9-21-22(16-18)25-17-24-21/h1-9,16,24-25H,10-15,17H2

> <PUBCHEM_IUPAC_INCHIKEY>
XCKMSIBEVNAANY-UHFFFAOYSA-N

> <PUBCHEM_XLOGP3_AA>
4.9

> <PUBCHEM_EXACT_MASS>
358.21574685

> <PUBCHEM_MOLECULAR_FORMULA>
C23H26N4

> <PUBCHEM_MOLECULAR_WEIGHT>
358.5

> <PUBCHEM_OPENEYE_CAN_SMILES>
C1CN(CCN1CCC2=CC3=C(C=C2)NCN3)C4=CC=CC5=CC=CC=C54

> <PUBCHEM_OPENEYE_ISO_SMILES>
C1CN(CCN1CCC2=CC3=C(C=C2)NCN3)C4=CC=CC5=CC=CC=C54

> <PUBCHEM_CACTVS_TPSA>
30.5

> <PUBCHEM_MONOISOTOPIC_WEIGHT>
358.21574685

> <PUBCHEM_TOTAL_CHARGE>
0

> <PUBCHEM_HEAVY_ATOM_COUNT>
27

> <PUBCHEM_ATOM_DEF_STEREO_COUNT>
0

> <PUBCHEM_ATOM_UDEF_STEREO_COUNT>
0

> <PUBCHEM_BOND_DEF_STEREO_COUNT>
0

> <PUBCHEM_BOND_UDEF_STEREO_COUNT>
0

> <PUBCHEM_ISOTOPIC_ATOM_COUNT>
0

> <PUBCHEM_COMPONENT_COUNT>
1

> <PUBCHEM_CACTVS_TAUTO_COUNT>
-1

> <PUBCHEM_COORDINATE_TYPE>
1
5
255

> <PUBCHEM_BONDANNOTATIONS>
11  13  8
11  14  8
12  15  8
12  18  8
13  17  8
13  21  8
14  22  8
15  16  8
16  19  8
17  23  8
17  25  8
18  20  8
19  20  8
21  26  8
22  23  8
25  27  8
26  27  8

$$$$
