11562199
  -OEChem-09292322242D

 60 64  0     1  0  0  0  0  0999 V2000
    6.8867    2.3650    0.0000 S   0  0  0  0  0  0  0  0  0  0  0  0
   15.1012   -3.1740    0.0000 F   0  0  0  0  0  0  0  0  0  0  0  0
   15.4673   -1.8080    0.0000 F   0  0  0  0  0  0  0  0  0  0  0  0
   13.1125   -1.3389    0.0000 O   0  0  0  0  0  0  0  0  0  0  0  0
    3.5388    0.2772    0.0000 O   0  0  0  0  0  0  0  0  0  0  0  0
    9.8867    0.6329    0.0000 N   0  0  3  0  0  0  0  0  0  0  0  0
   14.5064   -0.5342    0.0000 N   0  0  0  0  0  0  0  0  0  0  0  0
    5.2989    1.5560    0.0000 N   0  0  0  0  0  0  0  0  0  0  0  0
    5.2989    3.1740    0.0000 N   0  0  0  0  0  0  0  0  0  0  0  0
    4.3479    2.8650    0.0000 N   0  0  0  0  0  0  0  0  0  0  0  0
    2.0000    0.7772    0.0000 N   0  0  0  0  0  0  0  0  0  0  0  0
   10.3111   -0.2513    0.0000 C   0  0  0  0  0  0  0  0  0  0  0  0
   10.3111    1.5172    0.0000 C   0  0  0  0  0  0  0  0  0  0  0  0
   11.2664   -0.4734    0.0000 C   0  0  0  0  0  0  0  0  0  0  0  0
   11.2664    1.7393    0.0000 C   0  0  0  0  0  0  0  0  0  0  0  0
   12.0373    0.1329    0.0000 C   0  0  0  0  0  0  0  0  0  0  0  0
   12.0373    1.1329    0.0000 C   0  0  0  0  0  0  0  0  0  0  0  0
    8.8867    0.6329    0.0000 C   0  0  0  0  0  0  0  0  0  0  0  0
   12.9033   -0.3671    0.0000 C   0  0  0  0  0  0  0  0  0  0  0  0
    8.3867    1.4990    0.0000 C   0  0  0  0  0  0  0  0  0  0  0  0
   12.9033    1.6329    0.0000 C   0  0  0  0  0  0  0  0  0  0  0  0
   13.7693    0.1329    0.0000 C   0  0  0  0  0  0  0  0  0  0  0  0
   13.7693    1.1329    0.0000 C   0  0  0  0  0  0  0  0  0  0  0  0
    7.3867    1.4990    0.0000 C   0  0  0  0  0  0  0  0  0  0  0  0
   14.1012   -1.4419    0.0000 C   0  0  0  0  0  0  0  0  0  0  0  0
   14.6012   -2.3080    0.0000 C   0  0  0  0  0  0  0  0  0  0  0  0
    5.8867    2.3650    0.0000 C   0  0  0  0  0  0  0  0  0  0  0  0
   13.7352   -2.8080    0.0000 C   0  0  0  0  0  0  0  0  0  0  0  0
    4.3479    1.8650    0.0000 C   0  0  0  0  0  0  0  0  0  0  0  0
    5.6079    0.6049    0.0000 C   0  0  0  0  0  0  0  0  0  0  0  0
    3.5388    1.2772    0.0000 C   0  0  0  0  0  0  0  0  0  0  0  0
    2.5878    1.5862    0.0000 C   0  0  0  0  0  0  0  0  0  0  0  0
    2.2788    2.5373    0.0000 C   0  0  0  0  0  0  0  0  0  0  0  0
    2.5878   -0.0318    0.0000 C   0  0  0  0  0  0  0  0  0  0  0  0
    9.7063   -0.3879    0.0000 H   0  0  0  0  0  0  0  0  0  0  0  0
   10.3091   -0.8713    0.0000 H   0  0  0  0  0  0  0  0  0  0  0  0
   10.3091    2.1372    0.0000 H   0  0  0  0  0  0  0  0  0  0  0  0
    9.7063    1.6538    0.0000 H   0  0  0  0  0  0  0  0  0  0  0  0
   10.9946   -1.0307    0.0000 H   0  0  0  0  0  0  0  0  0  0  0  0
   11.7488   -0.8628    0.0000 H   0  0  0  0  0  0  0  0  0  0  0  0
   11.7488    2.1286    0.0000 H   0  0  0  0  0  0  0  0  0  0  0  0
   10.9946    2.2965    0.0000 H   0  0  0  0  0  0  0  0  0  0  0  0
    8.3041    0.4209    0.0000 H   0  0  0  0  0  0  0  0  0  0  0  0
    8.9944    0.0223    0.0000 H   0  0  0  0  0  0  0  0  0  0  0  0
    8.9693    1.7110    0.0000 H   0  0  0  0  0  0  0  0  0  0  0  0
    8.2790    2.1095    0.0000 H   0  0  0  0  0  0  0  0  0  0  0  0
   12.9033    2.2529    0.0000 H   0  0  0  0  0  0  0  0  0  0  0  0
   14.3063    1.4429    0.0000 H   0  0  0  0  0  0  0  0  0  0  0  0
    6.8041    1.2869    0.0000 H   0  0  0  0  0  0  0  0  0  0  0  0
    7.4944    0.8884    0.0000 H   0  0  0  0  0  0  0  0  0  0  0  0
   13.4252   -2.2710    0.0000 H   0  0  0  0  0  0  0  0  0  0  0  0
   13.1983   -3.1180    0.0000 H   0  0  0  0  0  0  0  0  0  0  0  0
   14.0452   -3.3449    0.0000 H   0  0  0  0  0  0  0  0  0  0  0  0
    5.0183    0.4133    0.0000 H   0  0  0  0  0  0  0  0  0  0  0  0
    5.7995    0.0152    0.0000 H   0  0  0  0  0  0  0  0  0  0  0  0
    6.1976    0.7965    0.0000 H   0  0  0  0  0  0  0  0  0  0  0  0
    2.8684    2.7289    0.0000 H   0  0  0  0  0  0  0  0  0  0  0  0
    2.0872    3.1269    0.0000 H   0  0  0  0  0  0  0  0  0  0  0  0
    1.6891    2.3457    0.0000 H   0  0  0  0  0  0  0  0  0  0  0  0
    2.3962   -0.6215    0.0000 H   0  0  0  0  0  0  0  0  0  0  0  0
  1 24  1  0  0  0  0
  1 27  1  0  0  0  0
  2 26  1  0  0  0  0
  3 26  1  0  0  0  0
  4 19  1  0  0  0  0
  4 25  1  0  0  0  0
  5 31  1  0  0  0  0
  5 34  1  0  0  0  0
  6 12  1  0  0  0  0
  6 13  1  0  0  0  0
  6 18  1  0  0  0  0
  7 22  1  0  0  0  0
  7 25  2  0  0  0  0
  8 27  1  0  0  0  0
  8 29  1  0  0  0  0
  8 30  1  0  0  0  0
  9 10  1  0  0  0  0
  9 27  2  0  0  0  0
 10 29  2  0  0  0  0
 11 32  1  0  0  0  0
 11 34  2  0  0  0  0
 12 14  1  0  0  0  0
 12 35  1  0  0  0  0
 12 36  1  0  0  0  0
 13 15  1  0  0  0  0
 13 37  1  0  0  0  0
 13 38  1  0  0  0  0
 14 16  1  0  0  0  0
 14 39  1  0  0  0  0
 14 40  1  0  0  0  0
 15 17  1  0  0  0  0
 15 41  1  0  0  0  0
 15 42  1  0  0  0  0
 16 17  2  0  0  0  0
 16 19  1  0  0  0  0
 17 21  1  0  0  0  0
 18 20  1  0  0  0  0
 18 43  1  0  0  0  0
 18 44  1  0  0  0  0
 19 22  2  0  0  0  0
 20 24  1  0  0  0  0
 20 45  1  0  0  0  0
 20 46  1  0  0  0  0
 21 23  2  0  0  0  0
 21 47  1  0  0  0  0
 22 23  1  0  0  0  0
 23 48  1  0  0  0  0
 24 49  1  0  0  0  0
 24 50  1  0  0  0  0
 25 26  1  0  0  0  0
 26 28  1  0  0  0  0
 28 51  1  0  0  0  0
 28 52  1  0  0  0  0
 28 53  1  0  0  0  0
 29 31  1  0  0  0  0
 30 54  1  0  0  0  0
 30 55  1  0  0  0  0
 30 56  1  0  0  0  0
 31 32  2  0  0  0  0
 32 33  1  0  0  0  0
 33 57  1  0  0  0  0
 33 58  1  0  0  0  0
 33 59  1  0  0  0  0
 34 60  1  0  0  0  0
M  END
> <PUBCHEM_COMPOUND_CID>
11562199

> <PUBCHEM_COMPOUND_CANONICALIZED>
1

> <PUBCHEM_CACTVS_COMPLEXITY>
696

> <PUBCHEM_CACTVS_HBOND_ACCEPTOR>
10

> <PUBCHEM_CACTVS_HBOND_DONOR>
0

> <PUBCHEM_CACTVS_ROTATABLE_BOND>
7

> <PUBCHEM_CACTVS_SUBSKEYS>
AAADceB7sYBAAAAAAAAAAAAAAAAAAWLFgAAwAAAABYAAAFgB/gAAHwQIAAAADAzF3xa31rcMFEiqA6dz9ASS2Ct/YrAd2CG9bNiOLrLk/buPOSjkzBPY6Ye82bKOiAABQAAYEAAQAAKAADAgAAAAAAAAAA==

> <PUBCHEM_IUPAC_OPENEYE_NAME>
2-(1,1-difluoroethyl)-8-[3-[[4-methyl-5-(4-methyloxazol-5-yl)-1,2,4-triazol-3-yl]sulfanyl]propyl]-6,7,9,10-tetrahydrooxazolo[4,5-i][3]benzazepine

> <PUBCHEM_IUPAC_CAS_NAME>
2-(1,1-difluoroethyl)-8-[3-[[4-methyl-5-(4-methyl-5-oxazolyl)-1,2,4-triazol-3-yl]thio]propyl]-6,7,9,10-tetrahydrooxazolo[4,5-i][3]benzazepine

> <PUBCHEM_IUPAC_NAME_MARKUP>
2-(1,1-difluoroethyl)-8-[3-[[4-methyl-5-(4-methyl-1,3-oxazol-5-yl)-1,2,4-triazol-3-yl]sulfanyl]propyl]-6,7,9,10-tetrahydro-[1,3]oxazolo[4,5-i][3]benzazepine

> <PUBCHEM_IUPAC_NAME>
2-(1,1-difluoroethyl)-8-[3-[[4-methyl-5-(4-methyl-1,3-oxazol-5-yl)-1,2,4-triazol-3-yl]sulfanyl]propyl]-6,7,9,10-tetrahydro-[1,3]oxazolo[4,5-i][3]benzazepine

> <PUBCHEM_IUPAC_SYSTEMATIC_NAME>
2-[1,1-bis(fluoranyl)ethyl]-8-[3-[[4-methyl-5-(4-methyl-1,3-oxazol-5-yl)-1,2,4-triazol-3-yl]sulfanyl]propyl]-6,7,9,10-tetrahydro-[1,3]oxazolo[4,5-i][3]benzazepine

> <PUBCHEM_IUPAC_TRADITIONAL_NAME>
2-(1,1-difluoroethyl)-8-[3-[[4-methyl-5-(4-methyloxazol-5-yl)-1,2,4-triazol-3-yl]thio]propyl]-6,7,9,10-tetrahydrooxazolo[4,5-i][3]benzazepine

> <PUBCHEM_IUPAC_INCHI>
InChI=1S/C23H26F2N6O2S/c1-14-18(32-13-26-14)20-28-29-22(30(20)3)34-12-4-9-31-10-7-15-5-6-17-19(16(15)8-11-31)33-21(27-17)23(2,24)25/h5-6,13H,4,7-12H2,1-3H3

> <PUBCHEM_IUPAC_INCHIKEY>
YBTBFDQBPQHZEV-UHFFFAOYSA-N

> <PUBCHEM_XLOGP3_AA>
3.9

> <PUBCHEM_EXACT_MASS>
488.18060159

> <PUBCHEM_MOLECULAR_FORMULA>
C23H26F2N6O2S

> <PUBCHEM_MOLECULAR_WEIGHT>
488.6

> <PUBCHEM_OPENEYE_CAN_SMILES>
CC1=C(OC=N1)C2=NN=C(N2C)SCCCN3CCC4=C(CC3)C5=C(C=C4)N=C(O5)C(C)(F)F

> <PUBCHEM_OPENEYE_ISO_SMILES>
CC1=C(OC=N1)C2=NN=C(N2C)SCCCN3CCC4=C(CC3)C5=C(C=C4)N=C(O5)C(C)(F)F

> <PUBCHEM_CACTVS_TPSA>
111

> <PUBCHEM_MONOISOTOPIC_WEIGHT>
488.18060159

> <PUBCHEM_TOTAL_CHARGE>
0

> <PUBCHEM_HEAVY_ATOM_COUNT>
34

> <PUBCHEM_ATOM_DEF_STEREO_COUNT>
0

> <PUBCHEM_ATOM_UDEF_STEREO_COUNT>
0

> <PUBCHEM_BOND_DEF_STEREO_COUNT>
0

> <PUBCHEM_BOND_UDEF_STEREO_COUNT>
0

> <PUBCHEM_ISOTOPIC_ATOM_COUNT>
0

> <PUBCHEM_COMPONENT_COUNT>
1

> <PUBCHEM_CACTVS_TAUTO_COUNT>
-1

> <PUBCHEM_COORDINATE_TYPE>
1
5
255

> <PUBCHEM_BONDANNOTATIONS>
10  29  8
11  32  8
11  34  8
16  17  8
16  19  8
17  21  8
19  22  8
21  23  8
22  23  8
31  32  8
4  19  8
4  25  8
5  31  8
5  34  8
7  22  8
7  25  8
8  27  8
8  29  8
9  10  8
9  27  8

$$$$
