11706497
  -OEChem-09292322272D

 72 76  0     0  0  0  0  0  0999 V2000
    7.2232    3.5930    0.0000 Cl  0  0  0  0  0  0  0  0  0  0  0  0
    8.2232    5.3250    0.0000 Cl  0  0  0  0  0  0  0  0  0  0  0  0
    5.2081   -3.5089    0.0000 O   0  0  0  0  0  0  0  0  0  0  0  0
    4.2232    1.8609    0.0000 N   0  0  0  0  0  0  0  0  0  0  0  0
    5.2232    3.5930    0.0000 N   0  0  0  0  0  0  0  0  0  0  0  0
    3.7232   -2.4692    0.0000 N   0  0  0  0  0  0  0  0  0  0  0  0
    3.7232    2.7270    0.0000 C   0  0  0  0  0  0  0  0  0  0  0  0
    5.2232    1.8610    0.0000 C   0  0  0  0  0  0  0  0  0  0  0  0
    4.2232    3.5930    0.0000 C   0  0  0  0  0  0  0  0  0  0  0  0
    5.7232    2.7270    0.0000 C   0  0  0  0  0  0  0  0  0  0  0  0
    3.7232    0.9949    0.0000 C   0  0  0  0  0  0  0  0  0  0  0  0
    4.2232    0.1289    0.0000 C   0  0  0  0  0  0  0  0  0  0  0  0
    3.7232   -0.7371    0.0000 C   0  0  0  0  0  0  0  0  0  0  0  0
    5.7232    4.4590    0.0000 C   0  0  0  0  0  0  0  0  0  0  0  0
    4.2232   -1.6032    0.0000 C   0  0  0  0  0  0  0  0  0  0  0  0
    6.7232    4.4590    0.0000 C   0  0  0  0  0  0  0  0  0  0  0  0
    5.2232    5.3250    0.0000 C   0  0  0  0  0  0  0  0  0  0  0  0
    2.8616   -3.7038    0.0000 C   0  0  0  0  0  0  0  0  0  0  0  0
    3.7232   -4.2012    0.0000 C   0  0  0  0  0  0  0  0  0  0  0  0
    3.7232   -3.2063    0.0000 C   0  0  0  0  0  0  0  0  0  0  0  0
    2.8616   -5.6936    0.0000 C   0  0  0  0  0  0  0  0  0  0  0  0
    4.7637   -3.1842    0.0000 C   0  0  0  0  0  0  0  0  0  0  0  0
    3.7232   -6.1911    0.0000 C   0  0  0  0  0  0  0  0  0  0  0  0
    4.2232   -3.3352    0.0000 C   0  0  0  0  0  0  0  0  0  0  0  0
    4.7637   -6.1690    0.0000 C   0  0  0  0  0  0  0  0  0  0  0  0
    3.7232   -5.1962    0.0000 C   0  0  0  0  0  0  0  0  0  0  0  0
    7.2232    5.3250    0.0000 C   0  0  0  0  0  0  0  0  0  0  0  0
    5.7232    6.1911    0.0000 C   0  0  0  0  0  0  0  0  0  0  0  0
    5.6253   -3.6817    0.0000 C   0  0  0  0  0  0  0  0  0  0  0  0
    2.0000   -4.2012    0.0000 C   0  0  0  0  0  0  0  0  0  0  0  0
    5.6253   -5.6715    0.0000 C   0  0  0  0  0  0  0  0  0  0  0  0
    2.0000   -5.1962    0.0000 C   0  0  0  0  0  0  0  0  0  0  0  0
    6.7232    6.1911    0.0000 C   0  0  0  0  0  0  0  0  0  0  0  0
    4.7637   -4.1791    0.0000 C   0  0  0  0  0  0  0  0  0  0  0  0
    6.4869   -4.1791    0.0000 C   0  0  0  0  0  0  0  0  0  0  0  0
    4.7637   -5.1740    0.0000 C   0  0  0  0  0  0  0  0  0  0  0  0
    6.4869   -5.1740    0.0000 C   0  0  0  0  0  0  0  0  0  0  0  0
    3.2483    3.1255    0.0000 H   0  0  0  0  0  0  0  0  0  0  0  0
    3.2483    2.3284    0.0000 H   0  0  0  0  0  0  0  0  0  0  0  0
    5.1156    1.2504    0.0000 H   0  0  0  0  0  0  0  0  0  0  0  0
    5.8059    1.6489    0.0000 H   0  0  0  0  0  0  0  0  0  0  0  0
    4.3309    4.2036    0.0000 H   0  0  0  0  0  0  0  0  0  0  0  0
    3.6406    3.8050    0.0000 H   0  0  0  0  0  0  0  0  0  0  0  0
    6.1982    2.3284    0.0000 H   0  0  0  0  0  0  0  0  0  0  0  0
    6.1982    3.1255    0.0000 H   0  0  0  0  0  0  0  0  0  0  0  0
    3.2483    1.3934    0.0000 H   0  0  0  0  0  0  0  0  0  0  0  0
    3.2483    0.5964    0.0000 H   0  0  0  0  0  0  0  0  0  0  0  0
    4.6982   -0.2696    0.0000 H   0  0  0  0  0  0  0  0  0  0  0  0
    4.6982    0.5274    0.0000 H   0  0  0  0  0  0  0  0  0  0  0  0
    3.2483   -0.3386    0.0000 H   0  0  0  0  0  0  0  0  0  0  0  0
    3.2483   -1.1357    0.0000 H   0  0  0  0  0  0  0  0  0  0  0  0
    4.6982   -2.0017    0.0000 H   0  0  0  0  0  0  0  0  0  0  0  0
    4.6982   -1.2046    0.0000 H   0  0  0  0  0  0  0  0  0  0  0  0
    4.6032    5.3250    0.0000 H   0  0  0  0  0  0  0  0  0  0  0  0
    3.1032   -2.4692    0.0000 H   0  0  0  0  0  0  0  0  0  0  0  0
    3.9270   -2.6208    0.0000 H   0  0  0  0  0  0  0  0  0  0  0  0
    3.8901   -3.8034    0.0000 H   0  0  0  0  0  0  0  0  0  0  0  0
    5.2358   -2.7823    0.0000 H   0  0  0  0  0  0  0  0  0  0  0  0
    4.6096   -3.7848    0.0000 H   0  0  0  0  0  0  0  0  0  0  0  0
    3.2511   -6.5930    0.0000 H   0  0  0  0  0  0  0  0  0  0  0  0
    3.8774   -5.5905    0.0000 H   0  0  0  0  0  0  0  0  0  0  0  0
    4.5599   -6.7545    0.0000 H   0  0  0  0  0  0  0  0  0  0  0  0
    4.5968   -5.5718    0.0000 H   0  0  0  0  0  0  0  0  0  0  0  0
    4.2602   -5.5062    0.0000 H   0  0  0  0  0  0  0  0  0  0  0  0
    5.4132    6.7280    0.0000 H   0  0  0  0  0  0  0  0  0  0  0  0
    1.4631   -3.8912    0.0000 H   0  0  0  0  0  0  0  0  0  0  0  0
    1.4631   -5.5062    0.0000 H   0  0  0  0  0  0  0  0  0  0  0  0
    7.0332    6.7280    0.0000 H   0  0  0  0  0  0  0  0  0  0  0  0
    4.2267   -3.8691    0.0000 H   0  0  0  0  0  0  0  0  0  0  0  0
    7.0238   -3.8691    0.0000 H   0  0  0  0  0  0  0  0  0  0  0  0
    4.2267   -5.4840    0.0000 H   0  0  0  0  0  0  0  0  0  0  0  0
    7.0238   -5.4840    0.0000 H   0  0  0  0  0  0  0  0  0  0  0  0
  1 16  1  0  0  0  0
  2 27  1  0  0  0  0
  3 24  2  0  0  0  0
  4  7  1  0  0  0  0
  4  8  1  0  0  0  0
  4 11  1  0  0  0  0
  5  9  1  0  0  0  0
  5 10  1  0  0  0  0
  5 14  1  0  0  0  0
  6 15  1  0  0  0  0
  6 24  1  0  0  0  0
  6 55  1  0  0  0  0
  7  9  1  0  0  0  0
  7 38  1  0  0  0  0
  7 39  1  0  0  0  0
  8 10  1  0  0  0  0
  8 40  1  0  0  0  0
  8 41  1  0  0  0  0
  9 42  1  0  0  0  0
  9 43  1  0  0  0  0
 10 44  1  0  0  0  0
 10 45  1  0  0  0  0
 11 12  1  0  0  0  0
 11 46  1  0  0  0  0
 11 47  1  0  0  0  0
 12 13  1  0  0  0  0
 12 48  1  0  0  0  0
 12 49  1  0  0  0  0
 13 15  1  0  0  0  0
 13 50  1  0  0  0  0
 13 51  1  0  0  0  0
 14 16  2  0  0  0  0
 14 17  1  0  0  0  0
 15 52  1  0  0  0  0
 15 53  1  0  0  0  0
 16 27  1  0  0  0  0
 17 28  2  0  0  0  0
 17 54  1  0  0  0  0
 18 19  2  0  0  0  0
 18 20  1  0  0  0  0
 18 30  1  0  0  0  0
 19 24  1  0  0  0  0
 19 26  1  0  0  0  0
 20 22  1  0  0  0  0
 20 56  1  0  0  0  0
 20 57  1  0  0  0  0
 21 23  1  0  0  0  0
 21 26  2  0  0  0  0
 21 32  1  0  0  0  0
 22 29  1  0  0  0  0
 22 58  1  0  0  0  0
 22 59  1  0  0  0  0
 23 25  1  0  0  0  0
 23 60  1  0  0  0  0
 23 61  1  0  0  0  0
 25 31  1  0  0  0  0
 25 62  1  0  0  0  0
 25 63  1  0  0  0  0
 26 64  1  0  0  0  0
 27 33  2  0  0  0  0
 28 33  1  0  0  0  0
 28 65  1  0  0  0  0
 29 34  2  0  0  0  0
 29 35  1  0  0  0  0
 30 32  2  0  0  0  0
 30 66  1  0  0  0  0
 31 36  2  0  0  0  0
 31 37  1  0  0  0  0
 32 67  1  0  0  0  0
 33 68  1  0  0  0  0
 34 36  1  0  0  0  0
 34 69  1  0  0  0  0
 35 37  2  0  0  0  0
 35 70  1  0  0  0  0
 36 71  1  0  0  0  0
 37 72  1  0  0  0  0
M  END
> <PUBCHEM_COMPOUND_CID>
11706497

> <PUBCHEM_COMPOUND_CANONICALIZED>
1

> <PUBCHEM_CACTVS_COMPLEXITY>
707

> <PUBCHEM_CACTVS_HBOND_ACCEPTOR>
3

> <PUBCHEM_CACTVS_HBOND_DONOR>
1

> <PUBCHEM_CACTVS_ROTATABLE_BOND>
7

> <PUBCHEM_CACTVS_SUBSKEYS>
AAADcfB7IAAGAAAAAAAAAAAAAAAAAAAAAAA8YMEAAAAAAAABUAAAHgIQAAAADArBmCQwwIPAAACIAiVSUACCAAAlBwAIisEIZsgIYDLBl5HUIQhglgDIyYcYiMCOwAACAAIQABSAAAQABCAAKAAAAAAAAA==

> <PUBCHEM_IUPAC_OPENEYE_NAME>
N-[4-[4-(2,3-dichlorophenyl)piperazin-1-yl]butyl]tricyclo[8.2.2.24,7]hexadeca-1(13),4,6,10(14),11,15-hexaene-5-carboxamide

> <PUBCHEM_IUPAC_CAS_NAME>
N-[4-[4-(2,3-dichlorophenyl)-1-piperazinyl]butyl]-5-tricyclo[8.2.2.24,7]hexadeca-1(13),4,6,10(14),11,15-hexaenecarboxamide

> <PUBCHEM_IUPAC_NAME_MARKUP>
<I>N</I>-[4-[4-(2,3-dichlorophenyl)piperazin-1-yl]butyl]tricyclo[8.2.2.2<SUP>4,7</SUP>]hexadeca-1(13),4,6,10(14),11,15-hexaene-5-carboxamide

> <PUBCHEM_IUPAC_NAME>
N-[4-[4-(2,3-dichlorophenyl)piperazin-1-yl]butyl]tricyclo[8.2.2.24,7]hexadeca-1(13),4,6,10(14),11,15-hexaene-5-carboxamide

> <PUBCHEM_IUPAC_SYSTEMATIC_NAME>
N-[4-[4-[2,3-bis(chloranyl)phenyl]piperazin-1-yl]butyl]tricyclo[8.2.2.24,7]hexadeca-1(13),4,6,10(14),11,15-hexaene-5-carboxamide

> <PUBCHEM_IUPAC_TRADITIONAL_NAME>
N-[4-[4-(2,3-dichlorophenyl)piperazino]butyl]tricyclo[8.2.2.24,7]hexadeca-1(13),4,6,10(14),11,15-hexaene-5-carboxamide

> <PUBCHEM_IUPAC_INCHI>
InChI=1S/C31H35Cl2N3O/c32-28-4-3-5-29(30(28)33)36-20-18-35(19-21-36)17-2-1-16-34-31(37)27-22-25-11-10-23-6-8-24(9-7-23)12-14-26(27)15-13-25/h3-9,13,15,22H,1-2,10-12,14,16-21H2,(H,34,37)

> <PUBCHEM_IUPAC_INCHIKEY>
ACKGCCXJFAZCFF-UHFFFAOYSA-N

> <PUBCHEM_XLOGP3_AA>
7.3

> <PUBCHEM_EXACT_MASS>
535.2157181

> <PUBCHEM_MOLECULAR_FORMULA>
C31H35Cl2N3O

> <PUBCHEM_MOLECULAR_WEIGHT>
536.5

> <PUBCHEM_OPENEYE_CAN_SMILES>
C1CC2=CC(=C(CCC3=CC=C1C=C3)C=C2)C(=O)NCCCCN4CCN(CC4)C5=C(C(=CC=C5)Cl)Cl

> <PUBCHEM_OPENEYE_ISO_SMILES>
C1CC2=CC(=C(CCC3=CC=C1C=C3)C=C2)C(=O)NCCCCN4CCN(CC4)C5=C(C(=CC=C5)Cl)Cl

> <PUBCHEM_CACTVS_TPSA>
35.6

> <PUBCHEM_MONOISOTOPIC_WEIGHT>
535.2157181

> <PUBCHEM_TOTAL_CHARGE>
0

> <PUBCHEM_HEAVY_ATOM_COUNT>
37

> <PUBCHEM_ATOM_DEF_STEREO_COUNT>
0

> <PUBCHEM_ATOM_UDEF_STEREO_COUNT>
0

> <PUBCHEM_BOND_DEF_STEREO_COUNT>
0

> <PUBCHEM_BOND_UDEF_STEREO_COUNT>
0

> <PUBCHEM_ISOTOPIC_ATOM_COUNT>
0

> <PUBCHEM_COMPONENT_COUNT>
1

> <PUBCHEM_CACTVS_TAUTO_COUNT>
-1

> <PUBCHEM_COORDINATE_TYPE>
1
5
255

> <PUBCHEM_BONDANNOTATIONS>
14  16  8
14  17  8
16  27  8
17  28  8
18  19  8
18  30  8
19  26  8
21  26  8
21  32  8
27  33  8
28  33  8
29  34  8
29  35  8
30  32  8
31  36  8
31  37  8
34  36  8
35  37  8

$$$$
