168286425
  -OEChem-09292322092D

 73 72  0     1  0  0  0  0  0999 V2000
    2.0281   12.7133    0.0000 S   0  0  0  0  0  0  0  0  0  0  0  0
    8.9427    4.1612    0.0000 F   0  0  0  0  0  0  0  0  0  0  0  0
    9.3087    5.5272    0.0000 F   0  0  0  0  0  0  0  0  0  0  0  0
   10.3087    3.7952    0.0000 F   0  0  0  0  0  0  0  0  0  0  0  0
    8.9427    8.5272    0.0000 F   0  0  0  0  0  0  0  0  0  0  0  0
    9.3087    9.8933    0.0000 F   0  0  0  0  0  0  0  0  0  0  0  0
   10.3087    8.1612    0.0000 F   0  0  0  0  0  0  0  0  0  0  0  0
    3.8076    8.6200    0.0000 O   0  0  0  0  0  0  0  0  0  0  0  0
   11.5407    4.6612    0.0000 O   0  0  0  0  0  0  0  0  0  0  0  0
   11.5407    9.0272    0.0000 O   0  0  0  0  0  0  0  0  0  0  0  0
   10.6747    6.1612    0.0000 O   0  0  0  0  0  0  0  0  0  0  0  0
   10.6747   10.5272    0.0000 O   0  0  0  0  0  0  0  0  0  0  0  0
    4.6737    7.1200    0.0000 N   0  0  0  0  0  0  0  0  0  0  0  0
    5.5397    8.6200    0.0000 N   0  0  0  0  0  0  0  0  0  0  0  0
    4.6737   10.1200    0.0000 N   0  0  0  0  0  0  0  0  0  0  0  0
    6.4057   10.1200    0.0000 N   0  0  0  0  0  0  0  0  0  0  0  0
    2.8371   14.1145    0.0000 N   0  0  0  0  0  0  0  0  0  0  0  0
    1.8590   14.3224    0.0000 N   0  0  0  0  0  0  0  0  0  0  0  0
    0.3644   13.3519    0.0000 N   0  0  0  0  0  0  0  0  0  0  0  0
    3.8076    5.6200    0.0000 C   0  0  3  0  0  0  0  0  0  0  0  0
    2.9416    5.1200    0.0000 C   0  0  0  0  0  0  0  0  0  0  0  0
    2.9416    4.1200    0.0000 C   0  0  0  0  0  0  0  0  0  0  0  0
    3.8076    6.6200    0.0000 C   0  0  0  0  0  0  0  0  0  0  0  0
    2.0756    3.6200    0.0000 C   0  0  0  0  0  0  0  0  0  0  0  0
    4.6737    5.1200    0.0000 C   0  0  0  0  0  0  0  0  0  0  0  0
    2.0756    2.6200    0.0000 C   0  0  0  0  0  0  0  0  0  0  0  0
    2.9416    2.1200    0.0000 C   0  0  0  0  0  0  0  0  0  0  0  0
    1.2096    2.1200    0.0000 C   0  0  0  0  0  0  0  0  0  0  0  0
    4.6737    8.1200    0.0000 C   0  0  0  0  0  0  0  0  0  0  0  0
    2.9416    1.1200    0.0000 C   0  0  0  0  0  0  0  0  0  0  0  0
    1.2096    1.1200    0.0000 C   0  0  0  0  0  0  0  0  0  0  0  0
    2.0756    0.6200    0.0000 C   0  0  0  0  0  0  0  0  0  0  0  0
    5.5397    9.6200    0.0000 C   0  0  0  0  0  0  0  0  0  0  0  0
    3.8076   11.6200    0.0000 C   0  0  0  0  0  0  0  0  0  0  0  0
    4.6737   11.1200    0.0000 C   0  0  0  0  0  0  0  0  0  0  0  0
    3.8076   12.6200    0.0000 C   0  0  0  0  0  0  0  0  0  0  0  0
    2.9416   13.1200    0.0000 C   0  0  0  0  0  0  0  0  0  0  0  0
    1.3590   13.4564    0.0000 C   0  0  0  0  0  0  0  0  0  0  0  0
    9.8087    4.6612    0.0000 C   0  0  0  0  0  0  0  0  0  0  0  0
    9.8087    9.0272    0.0000 C   0  0  0  0  0  0  0  0  0  0  0  0
   10.6747    5.1612    0.0000 C   0  0  0  0  0  0  0  0  0  0  0  0
   10.6747    9.5272    0.0000 C   0  0  0  0  0  0  0  0  0  0  0  0
    3.8076    5.0000    0.0000 H   0  0  0  0  0  0  0  0  0  0  0  0
    2.7296    5.7026    0.0000 H   0  0  0  0  0  0  0  0  0  0  0  0
    2.3310    5.0123    0.0000 H   0  0  0  0  0  0  0  0  0  0  0  0
    3.1537    3.5374    0.0000 H   0  0  0  0  0  0  0  0  0  0  0  0
    3.5522    4.2277    0.0000 H   0  0  0  0  0  0  0  0  0  0  0  0
    3.5956    7.2026    0.0000 H   0  0  0  0  0  0  0  0  0  0  0  0
    3.1971    6.5123    0.0000 H   0  0  0  0  0  0  0  0  0  0  0  0
    1.8636    4.2026    0.0000 H   0  0  0  0  0  0  0  0  0  0  0  0
    1.4650    3.5123    0.0000 H   0  0  0  0  0  0  0  0  0  0  0  0
    4.3637    4.5831    0.0000 H   0  0  0  0  0  0  0  0  0  0  0  0
    5.2106    4.8100    0.0000 H   0  0  0  0  0  0  0  0  0  0  0  0
    4.9837    5.6569    0.0000 H   0  0  0  0  0  0  0  0  0  0  0  0
    5.2106    6.8100    0.0000 H   0  0  0  0  0  0  0  0  0  0  0  0
    3.4786    2.4300    0.0000 H   0  0  0  0  0  0  0  0  0  0  0  0
    0.6726    2.4300    0.0000 H   0  0  0  0  0  0  0  0  0  0  0  0
    3.4786    0.8100    0.0000 H   0  0  0  0  0  0  0  0  0  0  0  0
    0.6726    0.8100    0.0000 H   0  0  0  0  0  0  0  0  0  0  0  0
    2.0756    0.0000    0.0000 H   0  0  0  0  0  0  0  0  0  0  0  0
    6.0766    8.3100    0.0000 H   0  0  0  0  0  0  0  0  0  0  0  0
    3.1971   11.7277    0.0000 H   0  0  0  0  0  0  0  0  0  0  0  0
    3.5956   11.0374    0.0000 H   0  0  0  0  0  0  0  0  0  0  0  0
    5.2843   11.0123    0.0000 H   0  0  0  0  0  0  0  0  0  0  0  0
    4.8857   11.7026    0.0000 H   0  0  0  0  0  0  0  0  0  0  0  0
    4.4182   12.5123    0.0000 H   0  0  0  0  0  0  0  0  0  0  0  0
    4.0197   13.2026    0.0000 H   0  0  0  0  0  0  0  0  0  0  0  0
    6.4057   10.7400    0.0000 H   0  0  0  0  0  0  0  0  0  0  0  0
    6.9427    9.8100    0.0000 H   0  0  0  0  0  0  0  0  0  0  0  0
    0.0000   13.8535    0.0000 H   0  0  0  0  0  0  0  0  0  0  0  0
    0.1122   12.7855    0.0000 H   0  0  0  0  0  0  0  0  0  0  0  0
   12.0777    4.9712    0.0000 H   0  0  0  0  0  0  0  0  0  0  0  0
   12.0777    9.3372    0.0000 H   0  0  0  0  0  0  0  0  0  0  0  0
  1 37  1  0  0  0  0
  1 38  1  0  0  0  0
  2 39  1  0  0  0  0
  3 39  1  0  0  0  0
  4 39  1  0  0  0  0
  5 40  1  0  0  0  0
  6 40  1  0  0  0  0
  7 40  1  0  0  0  0
  8 29  2  0  0  0  0
  9 41  1  0  0  0  0
  9 72  1  0  0  0  0
 10 42  1  0  0  0  0
 10 73  1  0  0  0  0
 11 41  2  0  0  0  0
 12 42  2  0  0  0  0
 13 23  1  0  0  0  0
 13 29  1  0  0  0  0
 13 55  1  0  0  0  0
 14 29  1  0  0  0  0
 14 33  1  0  0  0  0
 14 61  1  0  0  0  0
 15 33  2  0  0  0  0
 15 35  1  0  0  0  0
 16 33  1  0  0  0  0
 16 68  1  0  0  0  0
 16 69  1  0  0  0  0
 17 18  1  0  0  0  0
 17 37  2  0  0  0  0
 18 38  2  0  0  0  0
 19 38  1  0  0  0  0
 19 70  1  0  0  0  0
 19 71  1  0  0  0  0
 20 21  1  0  0  0  0
 20 23  1  0  0  0  0
 20 25  1  0  0  0  0
 20 43  1  0  0  0  0
 21 22  1  0  0  0  0
 21 44  1  0  0  0  0
 21 45  1  0  0  0  0
 22 24  1  0  0  0  0
 22 46  1  0  0  0  0
 22 47  1  0  0  0  0
 23 48  1  0  0  0  0
 23 49  1  0  0  0  0
 24 26  1  0  0  0  0
 24 50  1  0  0  0  0
 24 51  1  0  0  0  0
 25 52  1  0  0  0  0
 25 53  1  0  0  0  0
 25 54  1  0  0  0  0
 26 27  2  0  0  0  0
 26 28  1  0  0  0  0
 27 30  1  0  0  0  0
 27 56  1  0  0  0  0
 28 31  2  0  0  0  0
 28 57  1  0  0  0  0
 30 32  2  0  0  0  0
 30 58  1  0  0  0  0
 31 32  1  0  0  0  0
 31 59  1  0  0  0  0
 32 60  1  0  0  0  0
 34 35  1  0  0  0  0
 34 36  1  0  0  0  0
 34 62  1  0  0  0  0
 34 63  1  0  0  0  0
 35 64  1  0  0  0  0
 35 65  1  0  0  0  0
 36 37  1  0  0  0  0
 36 66  1  0  0  0  0
 36 67  1  0  0  0  0
 39 41  1  0  0  0  0
 40 42  1  0  0  0  0
M  END
> <PUBCHEM_COMPOUND_CID>
168286425

> <PUBCHEM_COMPOUND_CANONICALIZED>
1

> <PUBCHEM_CACTVS_COMPLEXITY>
568

> <PUBCHEM_CACTVS_HBOND_ACCEPTOR>
16

> <PUBCHEM_CACTVS_HBOND_DONOR>
6

> <PUBCHEM_CACTVS_ROTATABLE_BOND>
11

> <PUBCHEM_CACTVS_SUBSKEYS>
AAADceB7ucBAAAAAAAAAAAAAAAAAAWAAAAAwAAAAAAAAAAABwAAAHwQYCAAADQDB2hQzGILAAgiuAiDyPAASAINgABEdiIA4AIiIICKgkRCEIAA4nwIIiAcQgMAOAAAAAAAAAAAAAAAAAAAAAAAAAAAAAA==

> <PUBCHEM_IUPAC_OPENEYE_NAME>
1-[N'-[3-(5-amino-1,3,4-thiadiazol-2-yl)propyl]carbamimidoyl]-3-(2-methyl-5-phenyl-pentyl)urea;2,2,2-trifluoroacetic acid

> <PUBCHEM_IUPAC_CAS_NAME>
1-[amino-[3-(5-amino-1,3,4-thiadiazol-2-yl)propylimino]methyl]-3-(2-methyl-5-phenylpentyl)urea;2,2,2-trifluoroacetic acid

> <PUBCHEM_IUPAC_NAME_MARKUP>
1-[<I>N</I>&apos;-[3-(5-amino-1,3,4-thiadiazol-2-yl)propyl]carbamimidoyl]-3-(2-methyl-5-phenylpentyl)urea;2,2,2-trifluoroacetic acid

> <PUBCHEM_IUPAC_NAME>
1-[N'-[3-(5-amino-1,3,4-thiadiazol-2-yl)propyl]carbamimidoyl]-3-(2-methyl-5-phenylpentyl)urea;2,2,2-trifluoroacetic acid

> <PUBCHEM_IUPAC_SYSTEMATIC_NAME>
1-[N'-[3-(5-azanyl-1,3,4-thiadiazol-2-yl)propyl]carbamimidoyl]-3-(2-methyl-5-phenyl-pentyl)urea;2,2,2-tris(fluoranyl)ethanoic acid

> <PUBCHEM_IUPAC_TRADITIONAL_NAME>
1-[N'-[3-(5-amino-1,3,4-thiadiazol-2-yl)propyl]amidino]-3-(2-methyl-5-phenyl-pentyl)urea;2,2,2-trifluoroacetic acid

> <PUBCHEM_IUPAC_INCHI>
InChI=1S/C19H29N7OS.2C2HF3O2/c1-14(7-5-10-15-8-3-2-4-9-15)13-23-19(27)24-17(20)22-12-6-11-16-25-26-18(21)28-16;2*3-2(4,5)1(6)7/h2-4,8-9,14H,5-7,10-13H2,1H3,(H2,21,26)(H4,20,22,23,24,27);2*(H,6,7)

> <PUBCHEM_IUPAC_INCHIKEY>
RMUCLANWKRJBIV-UHFFFAOYSA-N

> <PUBCHEM_EXACT_MASS>
631.20115726

> <PUBCHEM_MOLECULAR_FORMULA>
C23H31F6N7O5S

> <PUBCHEM_MOLECULAR_WEIGHT>
631.6

> <PUBCHEM_OPENEYE_CAN_SMILES>
CC(CCCC1=CC=CC=C1)CNC(=O)NC(=NCCCC2=NN=C(S2)N)N.C(=O)(C(F)(F)F)O.C(=O)(C(F)(F)F)O

> <PUBCHEM_OPENEYE_ISO_SMILES>
CC(CCCC1=CC=CC=C1)CNC(=O)NC(=NCCCC2=NN=C(S2)N)N.C(=O)(C(F)(F)F)O.C(=O)(C(F)(F)F)O

> <PUBCHEM_CACTVS_TPSA>
234

> <PUBCHEM_MONOISOTOPIC_WEIGHT>
631.20115726

> <PUBCHEM_TOTAL_CHARGE>
0

> <PUBCHEM_HEAVY_ATOM_COUNT>
42

> <PUBCHEM_ATOM_DEF_STEREO_COUNT>
0

> <PUBCHEM_ATOM_UDEF_STEREO_COUNT>
1

> <PUBCHEM_BOND_DEF_STEREO_COUNT>
0

> <PUBCHEM_BOND_UDEF_STEREO_COUNT>
0

> <PUBCHEM_ISOTOPIC_ATOM_COUNT>
0

> <PUBCHEM_COMPONENT_COUNT>
3

> <PUBCHEM_CACTVS_TAUTO_COUNT>
-1

> <PUBCHEM_COORDINATE_TYPE>
1
5
255

> <PUBCHEM_BONDANNOTATIONS>
1  37  8
1  38  8
17  18  8
17  37  8
18  38  8
20  25  3
26  27  8
26  28  8
27  30  8
28  31  8
30  32  8
31  32  8

$$$$
