25068966
  -OEChem-09292322302D

 56 60  0     0  0  0  0  0  0999 V2000
    2.0000    0.3329    0.0000 O   0  0  0  0  0  0  0  0  0  0  0  0
   10.5312   -0.5000    0.0000 O   0  0  0  0  0  0  0  0  0  0  0  0
   14.3862    0.2553    0.0000 O   0  0  0  0  0  0  0  0  0  0  0  0
    7.0671   -0.5000    0.0000 N   0  0  0  0  0  0  0  0  0  0  0  0
    5.3351    0.5000    0.0000 N   0  0  0  0  0  0  0  0  0  0  0  0
   14.6591   -1.5000    0.0000 N   0  0  0  0  0  0  0  0  0  0  0  0
    6.2011   -1.0000    0.0000 C   0  0  0  0  0  0  0  0  0  0  0  0
    7.0671    0.5000    0.0000 C   0  0  0  0  0  0  0  0  0  0  0  0
    5.3351   -0.5000    0.0000 C   0  0  0  0  0  0  0  0  0  0  0  0
    6.2011    1.0000    0.0000 C   0  0  0  0  0  0  0  0  0  0  0  0
    7.9332   -1.0000    0.0000 C   0  0  0  0  0  0  0  0  0  0  0  0
    4.4691    1.0000    0.0000 C   0  0  0  0  0  0  0  0  0  0  0  0
    3.6030    0.5000    0.0000 C   0  0  0  0  0  0  0  0  0  0  0  0
    8.7992   -0.5000    0.0000 C   0  0  0  0  0  0  0  0  0  0  0  0
    3.3938   -0.4718    0.0000 C   0  0  0  0  0  0  0  0  0  0  0  0
    2.7370    1.0000    0.0000 C   0  0  0  0  0  0  0  0  0  0  0  0
    4.4691    2.0000    0.0000 C   0  0  0  0  0  0  0  0  0  0  0  0
    2.4051   -0.5749    0.0000 C   0  0  0  0  0  0  0  0  0  0  0  0
    9.6652   -1.0000    0.0000 C   0  0  0  0  0  0  0  0  0  0  0  0
    2.7370    2.0000    0.0000 C   0  0  0  0  0  0  0  0  0  0  0  0
    3.6030    2.5000    0.0000 C   0  0  0  0  0  0  0  0  0  0  0  0
   11.3973   -1.0000    0.0000 C   0  0  0  0  0  0  0  0  0  0  0  0
   13.1293   -2.0000    0.0000 C   0  0  0  0  0  0  0  0  0  0  0  0
   13.1293   -1.0000    0.0000 C   0  0  0  0  0  0  0  0  0  0  0  0
   12.2633   -0.5000    0.0000 C   0  0  0  0  0  0  0  0  0  0  0  0
   14.0755   -2.3047    0.0000 C   0  0  0  0  0  0  0  0  0  0  0  0
   11.3973   -2.0000    0.0000 C   0  0  0  0  0  0  0  0  0  0  0  0
   12.2633   -2.5000    0.0000 C   0  0  0  0  0  0  0  0  0  0  0  0
   14.0755   -0.6953    0.0000 C   0  0  0  0  0  0  0  0  0  0  0  0
    5.8026   -1.4750    0.0000 H   0  0  0  0  0  0  0  0  0  0  0  0
    6.5996   -1.4750    0.0000 H   0  0  0  0  0  0  0  0  0  0  0  0
    7.6777    0.3923    0.0000 H   0  0  0  0  0  0  0  0  0  0  0  0
    7.2792    1.0826    0.0000 H   0  0  0  0  0  0  0  0  0  0  0  0
    4.7245   -0.3923    0.0000 H   0  0  0  0  0  0  0  0  0  0  0  0
    5.1230   -1.0826    0.0000 H   0  0  0  0  0  0  0  0  0  0  0  0
    6.5996    1.4750    0.0000 H   0  0  0  0  0  0  0  0  0  0  0  0
    5.8026    1.4750    0.0000 H   0  0  0  0  0  0  0  0  0  0  0  0
    7.5346   -1.4750    0.0000 H   0  0  0  0  0  0  0  0  0  0  0  0
    8.3317   -1.4750    0.0000 H   0  0  0  0  0  0  0  0  0  0  0  0
    9.1977   -0.0251    0.0000 H   0  0  0  0  0  0  0  0  0  0  0  0
    8.4007   -0.0251    0.0000 H   0  0  0  0  0  0  0  0  0  0  0  0
    3.3929   -1.0918    0.0000 H   0  0  0  0  0  0  0  0  0  0  0  0
    4.0103   -0.5379    0.0000 H   0  0  0  0  0  0  0  0  0  0  0  0
    5.0060    2.3100    0.0000 H   0  0  0  0  0  0  0  0  0  0  0  0
    1.8155   -0.7666    0.0000 H   0  0  0  0  0  0  0  0  0  0  0  0
    2.5338   -1.1814    0.0000 H   0  0  0  0  0  0  0  0  0  0  0  0
    9.2667   -1.4750    0.0000 H   0  0  0  0  0  0  0  0  0  0  0  0
   10.0637   -1.4750    0.0000 H   0  0  0  0  0  0  0  0  0  0  0  0
    2.2001    2.3100    0.0000 H   0  0  0  0  0  0  0  0  0  0  0  0
    3.6030    3.1200    0.0000 H   0  0  0  0  0  0  0  0  0  0  0  0
   13.8245   -2.8716    0.0000 H   0  0  0  0  0  0  0  0  0  0  0  0
   14.6129   -2.6140    0.0000 H   0  0  0  0  0  0  0  0  0  0  0  0
   12.2633    0.1200    0.0000 H   0  0  0  0  0  0  0  0  0  0  0  0
   10.8603   -2.3100    0.0000 H   0  0  0  0  0  0  0  0  0  0  0  0
   12.2633   -3.1200    0.0000 H   0  0  0  0  0  0  0  0  0  0  0  0
   15.2791   -1.5000    0.0000 H   0  0  0  0  0  0  0  0  0  0  0  0
  1 16  1  0  0  0  0
  1 18  1  0  0  0  0
  2 19  1  0  0  0  0
  2 22  1  0  0  0  0
  3 29  2  0  0  0  0
  4  7  1  0  0  0  0
  4  8  1  0  0  0  0
  4 11  1  0  0  0  0
  5  9  1  0  0  0  0
  5 10  1  0  0  0  0
  5 12  1  0  0  0  0
  6 26  1  0  0  0  0
  6 29  1  0  0  0  0
  6 56  1  0  0  0  0
  7  9  1  0  0  0  0
  7 30  1  0  0  0  0
  7 31  1  0  0  0  0
  8 10  1  0  0  0  0
  8 32  1  0  0  0  0
  8 33  1  0  0  0  0
  9 34  1  0  0  0  0
  9 35  1  0  0  0  0
 10 36  1  0  0  0  0
 10 37  1  0  0  0  0
 11 14  1  0  0  0  0
 11 38  1  0  0  0  0
 11 39  1  0  0  0  0
 12 13  2  0  0  0  0
 12 17  1  0  0  0  0
 13 15  1  0  0  0  0
 13 16  1  0  0  0  0
 14 19  1  0  0  0  0
 14 40  1  0  0  0  0
 14 41  1  0  0  0  0
 15 18  1  0  0  0  0
 15 42  1  0  0  0  0
 15 43  1  0  0  0  0
 16 20  2  0  0  0  0
 17 21  2  0  0  0  0
 17 44  1  0  0  0  0
 18 45  1  0  0  0  0
 18 46  1  0  0  0  0
 19 47  1  0  0  0  0
 19 48  1  0  0  0  0
 20 21  1  0  0  0  0
 20 49  1  0  0  0  0
 21 50  1  0  0  0  0
 22 25  2  0  0  0  0
 22 27  1  0  0  0  0
 23 24  2  0  0  0  0
 23 26  1  0  0  0  0
 23 28  1  0  0  0  0
 24 25  1  0  0  0  0
 24 29  1  0  0  0  0
 25 53  1  0  0  0  0
 26 51  1  0  0  0  0
 26 52  1  0  0  0  0
 27 28  2  0  0  0  0
 27 54  1  0  0  0  0
 28 55  1  0  0  0  0
M  END
> <PUBCHEM_COMPOUND_CID>
25068966

> <PUBCHEM_COMPOUND_CANONICALIZED>
1

> <PUBCHEM_CACTVS_COMPLEXITY>
566

> <PUBCHEM_CACTVS_HBOND_ACCEPTOR>
5

> <PUBCHEM_CACTVS_HBOND_DONOR>
1

> <PUBCHEM_CACTVS_ROTATABLE_BOND>
6

> <PUBCHEM_CACTVS_SUBSKEYS>
AAADceB7MAAAAAAAAAAAAAAAAAAAAWJAAAA8YIAAAAAAAFgBQAAAHgAQAAAADAzhmAYwxoPABACIAiVSUACCCAAlIgAIiIEObMgMZjLEtZuWOSjmxhnI6Ye+2LOOoAABAgAaAABAAAIEADQAAAAAAAAAAA==

> <PUBCHEM_IUPAC_OPENEYE_NAME>
6-[3-[4-(2,3-dihydrobenzofuran-4-yl)piperazin-1-yl]propoxy]isoindolin-1-one

> <PUBCHEM_IUPAC_CAS_NAME>
6-[3-[4-(2,3-dihydrobenzofuran-4-yl)-1-piperazinyl]propoxy]-2,3-dihydroisoindol-1-one

> <PUBCHEM_IUPAC_NAME_MARKUP>
6-[3-[4-(2,3-dihydro-1-benzofuran-4-yl)piperazin-1-yl]propoxy]-2,3-dihydroisoindol-1-one

> <PUBCHEM_IUPAC_NAME>
6-[3-[4-(2,3-dihydro-1-benzofuran-4-yl)piperazin-1-yl]propoxy]-2,3-dihydroisoindol-1-one

> <PUBCHEM_IUPAC_SYSTEMATIC_NAME>
6-[3-[4-(2,3-dihydro-1-benzofuran-4-yl)piperazin-1-yl]propoxy]-2,3-dihydroisoindol-1-one

> <PUBCHEM_IUPAC_TRADITIONAL_NAME>
6-[3-(4-coumaran-4-ylpiperazino)propoxy]isoindolin-1-one

> <PUBCHEM_IUPAC_INCHI>
InChI=1S/C23H27N3O3/c27-23-20-15-18(6-5-17(20)16-24-23)28-13-2-8-25-9-11-26(12-10-25)21-3-1-4-22-19(21)7-14-29-22/h1,3-6,15H,2,7-14,16H2,(H,24,27)

> <PUBCHEM_IUPAC_INCHIKEY>
LQUKOEAHGRXJMZ-UHFFFAOYSA-N

> <PUBCHEM_XLOGP3_AA>
2.7

> <PUBCHEM_EXACT_MASS>
393.20524173

> <PUBCHEM_MOLECULAR_FORMULA>
C23H27N3O3

> <PUBCHEM_MOLECULAR_WEIGHT>
393.5

> <PUBCHEM_OPENEYE_CAN_SMILES>
C1COC2=CC=CC(=C21)N3CCN(CC3)CCCOC4=CC5=C(CNC5=O)C=C4

> <PUBCHEM_OPENEYE_ISO_SMILES>
C1COC2=CC=CC(=C21)N3CCN(CC3)CCCOC4=CC5=C(CNC5=O)C=C4

> <PUBCHEM_CACTVS_TPSA>
54

> <PUBCHEM_MONOISOTOPIC_WEIGHT>
393.20524173

> <PUBCHEM_TOTAL_CHARGE>
0

> <PUBCHEM_HEAVY_ATOM_COUNT>
29

> <PUBCHEM_ATOM_DEF_STEREO_COUNT>
0

> <PUBCHEM_ATOM_UDEF_STEREO_COUNT>
0

> <PUBCHEM_BOND_DEF_STEREO_COUNT>
0

> <PUBCHEM_BOND_UDEF_STEREO_COUNT>
0

> <PUBCHEM_ISOTOPIC_ATOM_COUNT>
0

> <PUBCHEM_COMPONENT_COUNT>
1

> <PUBCHEM_CACTVS_TAUTO_COUNT>
-1

> <PUBCHEM_COORDINATE_TYPE>
1
5
255

> <PUBCHEM_BONDANNOTATIONS>
12  13  8
12  17  8
13  16  8
16  20  8
17  21  8
20  21  8
22  25  8
22  27  8
23  24  8
23  28  8
24  25  8
27  28  8

$$$$
