76332985
  -OEChem-09292322342D

 73 75  0     0  0  0  0  0  0999 V2000
   14.5309    0.0000    0.0000 F   0  0  0  0  0  0  0  0  0  0  0  0
   14.0309    2.5981    0.0000 O   0  0  0  0  0  0  0  0  0  0  0  0
    7.0309    0.8660    0.0000 O   0  0  0  0  0  0  0  0  0  0  0  0
    1.4030    2.7320    0.0000 O   0  0  0  0  0  0  0  0  0  0  0  0
    9.6245    8.8056    0.0000 O   0  0  0  0  0  0  0  0  0  0  0  0
    7.0264    9.3056    0.0000 O   0  0  0  0  0  0  0  0  0  0  0  0
    8.7584   10.3056    0.0000 O   0  0  0  0  0  0  0  0  0  0  0  0
    7.8924    7.8056    0.0000 O   0  0  0  0  0  0  0  0  0  0  0  0
   11.0309    4.3301    0.0000 N   0  0  0  0  0  0  0  0  0  0  0  0
   13.0309    4.3301    0.0000 N   0  0  0  0  0  0  0  0  0  0  0  0
    7.0309    2.5981    0.0000 N   0  0  0  0  0  0  0  0  0  0  0  0
    4.9473    0.9273    0.0000 N   0  0  0  0  0  0  0  0  0  0  0  0
   11.5309    5.1962    0.0000 C   0  0  0  0  0  0  0  0  0  0  0  0
   11.5309    3.4641    0.0000 C   0  0  0  0  0  0  0  0  0  0  0  0
   12.5309    5.1962    0.0000 C   0  0  0  0  0  0  0  0  0  0  0  0
   12.5309    3.4641    0.0000 C   0  0  0  0  0  0  0  0  0  0  0  0
   10.0309    4.3301    0.0000 C   0  0  0  0  0  0  0  0  0  0  0  0
   14.0309    4.3301    0.0000 C   0  0  0  0  0  0  0  0  0  0  0  0
   14.5309    3.4641    0.0000 C   0  0  0  0  0  0  0  0  0  0  0  0
    9.5309    3.4641    0.0000 C   0  0  0  0  0  0  0  0  0  0  0  0
   14.5309    5.1962    0.0000 C   0  0  0  0  0  0  0  0  0  0  0  0
   15.5309    3.4641    0.0000 C   0  0  0  0  0  0  0  0  0  0  0  0
   15.5309    5.1962    0.0000 C   0  0  0  0  0  0  0  0  0  0  0  0
    8.5309    3.4641    0.0000 C   0  0  0  0  0  0  0  0  0  0  0  0
   16.0309    4.3301    0.0000 C   0  0  0  0  0  0  0  0  0  0  0  0
    8.0309    2.5981    0.0000 C   0  0  0  0  0  0  0  0  0  0  0  0
   14.5309    1.7320    0.0000 C   0  0  0  0  0  0  0  0  0  0  0  0
    5.5309    1.7320    0.0000 C   0  0  0  0  0  0  0  0  0  0  0  0
    6.5309    1.7320    0.0000 C   0  0  0  0  0  0  0  0  0  0  0  0
    4.0010    2.2320    0.0000 C   0  0  0  0  0  0  0  0  0  0  0  0
    4.0010    1.2320    0.0000 C   0  0  0  0  0  0  0  0  0  0  0  0
   14.0309    0.8660    0.0000 C   0  0  0  0  0  0  0  0  0  0  0  0
    4.9473    2.5368    0.0000 C   0  0  0  0  0  0  0  0  0  0  0  0
    3.1350    2.7320    0.0000 C   0  0  0  0  0  0  0  0  0  0  0  0
    3.1350    0.7321    0.0000 C   0  0  0  0  0  0  0  0  0  0  0  0
    2.2690    2.2320    0.0000 C   0  0  0  0  0  0  0  0  0  0  0  0
    2.2690    1.2320    0.0000 C   0  0  0  0  0  0  0  0  0  0  0  0
    0.5369    2.2320    0.0000 C   0  0  0  0  0  0  0  0  0  0  0  0
    8.7584    9.3056    0.0000 C   0  0  0  0  0  0  0  0  0  0  0  0
    7.8924    8.8056    0.0000 C   0  0  0  0  0  0  0  0  0  0  0  0
   11.6385    5.8067    0.0000 H   0  0  0  0  0  0  0  0  0  0  0  0
   10.9483    5.4082    0.0000 H   0  0  0  0  0  0  0  0  0  0  0  0
   10.9483    3.2520    0.0000 H   0  0  0  0  0  0  0  0  0  0  0  0
   11.6385    2.8535    0.0000 H   0  0  0  0  0  0  0  0  0  0  0  0
   13.1135    5.4082    0.0000 H   0  0  0  0  0  0  0  0  0  0  0  0
   12.4232    5.8067    0.0000 H   0  0  0  0  0  0  0  0  0  0  0  0
   12.4232    2.8535    0.0000 H   0  0  0  0  0  0  0  0  0  0  0  0
   13.1135    3.2520    0.0000 H   0  0  0  0  0  0  0  0  0  0  0  0
   10.1385    4.9407    0.0000 H   0  0  0  0  0  0  0  0  0  0  0  0
    9.4483    4.5422    0.0000 H   0  0  0  0  0  0  0  0  0  0  0  0
    9.8409    2.9272    0.0000 H   0  0  0  0  0  0  0  0  0  0  0  0
   14.2209    5.7331    0.0000 H   0  0  0  0  0  0  0  0  0  0  0  0
   15.8409    2.9272    0.0000 H   0  0  0  0  0  0  0  0  0  0  0  0
   15.8409    5.7331    0.0000 H   0  0  0  0  0  0  0  0  0  0  0  0
    8.2209    4.0010    0.0000 H   0  0  0  0  0  0  0  0  0  0  0  0
   16.6509    4.3301    0.0000 H   0  0  0  0  0  0  0  0  0  0  0  0
    7.9232    1.9875    0.0000 H   0  0  0  0  0  0  0  0  0  0  0  0
    8.6135    2.3860    0.0000 H   0  0  0  0  0  0  0  0  0  0  0  0
   15.0058    1.3335    0.0000 H   0  0  0  0  0  0  0  0  0  0  0  0
   15.0058    2.1306    0.0000 H   0  0  0  0  0  0  0  0  0  0  0  0
    6.7209    3.1350    0.0000 H   0  0  0  0  0  0  0  0  0  0  0  0
    5.1399    3.1261    0.0000 H   0  0  0  0  0  0  0  0  0  0  0  0
    5.1399    0.3380    0.0000 H   0  0  0  0  0  0  0  0  0  0  0  0
   13.5559    1.2646    0.0000 H   0  0  0  0  0  0  0  0  0  0  0  0
   13.5559    0.4675    0.0000 H   0  0  0  0  0  0  0  0  0  0  0  0
    3.1350    3.3520    0.0000 H   0  0  0  0  0  0  0  0  0  0  0  0
    3.1350    0.1121    0.0000 H   0  0  0  0  0  0  0  0  0  0  0  0
    1.7320    0.9221    0.0000 H   0  0  0  0  0  0  0  0  0  0  0  0
    0.2269    2.7690    0.0000 H   0  0  0  0  0  0  0  0  0  0  0  0
    0.0000    1.9220    0.0000 H   0  0  0  0  0  0  0  0  0  0  0  0
    0.8469    1.6951    0.0000 H   0  0  0  0  0  0  0  0  0  0  0  0
   10.1614    9.1156    0.0000 H   0  0  0  0  0  0  0  0  0  0  0  0
    6.4895    8.9956    0.0000 H   0  0  0  0  0  0  0  0  0  0  0  0
  1 32  1  0  0  0  0
  2 19  1  0  0  0  0
  2 27  1  0  0  0  0
  3 29  2  0  0  0  0
  4 36  1  0  0  0  0
  4 38  1  0  0  0  0
  5 39  1  0  0  0  0
  5 72  1  0  0  0  0
  6 40  1  0  0  0  0
  6 73  1  0  0  0  0
  7 39  2  0  0  0  0
  8 40  2  0  0  0  0
  9 13  1  0  0  0  0
  9 14  1  0  0  0  0
  9 17  1  0  0  0  0
 10 15  1  0  0  0  0
 10 16  1  0  0  0  0
 10 18  1  0  0  0  0
 11 26  1  0  0  0  0
 11 29  1  0  0  0  0
 11 61  1  0  0  0  0
 12 28  1  0  0  0  0
 12 31  1  0  0  0  0
 12 63  1  0  0  0  0
 13 15  1  0  0  0  0
 13 41  1  0  0  0  0
 13 42  1  0  0  0  0
 14 16  1  0  0  0  0
 14 43  1  0  0  0  0
 14 44  1  0  0  0  0
 15 45  1  0  0  0  0
 15 46  1  0  0  0  0
 16 47  1  0  0  0  0
 16 48  1  0  0  0  0
 17 20  1  0  0  0  0
 17 49  1  0  0  0  0
 17 50  1  0  0  0  0
 18 19  1  0  0  0  0
 18 21  2  0  0  0  0
 19 22  2  0  0  0  0
 20 24  2  0  0  0  0
 20 51  1  0  0  0  0
 21 23  1  0  0  0  0
 21 52  1  0  0  0  0
 22 25  1  0  0  0  0
 22 53  1  0  0  0  0
 23 25  2  0  0  0  0
 23 54  1  0  0  0  0
 24 26  1  0  0  0  0
 24 55  1  0  0  0  0
 25 56  1  0  0  0  0
 26 57  1  0  0  0  0
 26 58  1  0  0  0  0
 27 32  1  0  0  0  0
 27 59  1  0  0  0  0
 27 60  1  0  0  0  0
 28 29  1  0  0  0  0
 28 33  2  0  0  0  0
 30 31  2  0  0  0  0
 30 33  1  0  0  0  0
 30 34  1  0  0  0  0
 31 35  1  0  0  0  0
 32 64  1  0  0  0  0
 32 65  1  0  0  0  0
 33 62  1  0  0  0  0
 34 36  2  0  0  0  0
 34 66  1  0  0  0  0
 35 37  2  0  0  0  0
 35 67  1  0  0  0  0
 36 37  1  0  0  0  0
 37 68  1  0  0  0  0
 38 69  1  0  0  0  0
 38 70  1  0  0  0  0
 38 71  1  0  0  0  0
 39 40  1  0  0  0  0
M  END
> <PUBCHEM_COMPOUND_CID>
76332985

> <PUBCHEM_COMPOUND_CANONICALIZED>
1

> <PUBCHEM_CACTVS_COMPLEXITY>
730

> <PUBCHEM_CACTVS_HBOND_ACCEPTOR>
10

> <PUBCHEM_CACTVS_HBOND_DONOR>
4

> <PUBCHEM_CACTVS_ROTATABLE_BOND>
11

> <PUBCHEM_CACTVS_SUBSKEYS>
AAADcfB7uQAAAAAAAAAAAAAAAAAAAWAAAAA8YIAAAAAAAFgB9AAAHwAQCAAADAzhngYyzvPJlgCoAyXyXAKCiCAnIiAImaH/bNgPZvLEtbuXOSjk1hHZ6Ye42bOeAEABAAACEAAAgAIAAAQgAAAAAAAAAA==

> <PUBCHEM_IUPAC_OPENEYE_NAME>
N-[(E)-4-[4-[2-(2-fluoroethoxy)phenyl]piperazin-1-yl]but-2-enyl]-5-methoxy-1H-indole-2-carboxamide;oxalic acid

> <PUBCHEM_IUPAC_CAS_NAME>
N-[(E)-4-[4-[2-(2-fluoroethoxy)phenyl]-1-piperazinyl]but-2-enyl]-5-methoxy-1H-indole-2-carboxamide;oxalic acid

> <PUBCHEM_IUPAC_NAME_MARKUP>
<I>N</I>-[(<I>E</I>)-4-[4-[2-(2-fluoroethoxy)phenyl]piperazin-1-yl]but-2-enyl]-5-methoxy-1<I>H</I>-indole-2-carboxamide;oxalic acid

> <PUBCHEM_IUPAC_NAME>
N-[(E)-4-[4-[2-(2-fluoroethoxy)phenyl]piperazin-1-yl]but-2-enyl]-5-methoxy-1H-indole-2-carboxamide;oxalic acid

> <PUBCHEM_IUPAC_SYSTEMATIC_NAME>
ethanedioic acid;N-[(E)-4-[4-[2-(2-fluoranylethoxy)phenyl]piperazin-1-yl]but-2-enyl]-5-methoxy-1H-indole-2-carboxamide

> <PUBCHEM_IUPAC_TRADITIONAL_NAME>
N-[(E)-4-[4-[2-(2-fluoroethoxy)phenyl]piperazino]but-2-enyl]-5-methoxy-1H-indole-2-carboxamide;oxalic acid

> <PUBCHEM_IUPAC_INCHI>
InChI=1S/C26H31FN4O3.C2H2O4/c1-33-21-8-9-22-20(18-21)19-23(29-22)26(32)28-11-4-5-12-30-13-15-31(16-14-30)24-6-2-3-7-25(24)34-17-10-27;3-1(4)2(5)6/h2-9,18-19,29H,10-17H2,1H3,(H,28,32);(H,3,4)(H,5,6)/b5-4+;

> <PUBCHEM_IUPAC_INCHIKEY>
MBJAKYGWEHKYGN-FXRZFVDSSA-N

> <PUBCHEM_EXACT_MASS>
556.23332757

> <PUBCHEM_MOLECULAR_FORMULA>
C28H33FN4O7

> <PUBCHEM_MOLECULAR_WEIGHT>
556.6

> <PUBCHEM_OPENEYE_CAN_SMILES>
COC1=CC2=C(C=C1)NC(=C2)C(=O)NCC=CCN3CCN(CC3)C4=CC=CC=C4OCCF.C(=O)(C(=O)O)O

> <PUBCHEM_OPENEYE_ISO_SMILES>
COC1=CC2=C(C=C1)NC(=C2)C(=O)NC/C=C/CN3CCN(CC3)C4=CC=CC=C4OCCF.C(=O)(C(=O)O)O

> <PUBCHEM_CACTVS_TPSA>
144

> <PUBCHEM_MONOISOTOPIC_WEIGHT>
556.23332757

> <PUBCHEM_TOTAL_CHARGE>
0

> <PUBCHEM_HEAVY_ATOM_COUNT>
40

> <PUBCHEM_ATOM_DEF_STEREO_COUNT>
0

> <PUBCHEM_ATOM_UDEF_STEREO_COUNT>
0

> <PUBCHEM_BOND_DEF_STEREO_COUNT>
1

> <PUBCHEM_BOND_UDEF_STEREO_COUNT>
0

> <PUBCHEM_ISOTOPIC_ATOM_COUNT>
0

> <PUBCHEM_COMPONENT_COUNT>
2

> <PUBCHEM_CACTVS_TAUTO_COUNT>
-1

> <PUBCHEM_COORDINATE_TYPE>
1
5
255

> <PUBCHEM_BONDANNOTATIONS>
12  28  8
12  31  8
18  19  8
18  21  8
19  22  8
21  23  8
22  25  8
23  25  8
28  33  8
30  31  8
30  33  8
30  34  8
31  35  8
34  36  8
35  37  8
36  37  8

$$$$
