155548038
  -OEChem-09292322462D

 72 76  0     0  0  0  0  0  0999 V2000
    4.8511   -2.1126    0.0000 S   0  0  0  0  0  0  0  0  0  0  0  0
    2.0000   -7.8874    0.0000 F   0  0  0  0  0  0  0  0  0  0  0  0
    8.3152    5.8874    0.0000 O   0  0  0  0  0  0  0  0  0  0  0  0
    6.5832    0.8875    0.0000 N   0  0  0  0  0  0  0  0  0  0  0  0
    6.5832    4.8874    0.0000 N   0  0  0  0  0  0  0  0  0  0  0  0
    4.0421   -3.7003    0.0000 N   0  0  0  0  0  0  0  0  0  0  0  0
    5.6602   -3.7003    0.0000 N   0  0  0  0  0  0  0  0  0  0  0  0
    5.3511   -4.6514    0.0000 N   0  0  0  0  0  0  0  0  0  0  0  0
    6.5832    2.8874    0.0000 C   0  0  0  0  0  0  0  0  0  0  0  0
    5.7172    2.3874    0.0000 C   0  0  0  0  0  0  0  0  0  0  0  0
    7.4492    2.3874    0.0000 C   0  0  0  0  0  0  0  0  0  0  0  0
    5.7172    3.3874    0.0000 C   0  0  0  0  0  0  0  0  0  0  0  0
    7.4492    3.3874    0.0000 C   0  0  0  0  0  0  0  0  0  0  0  0
    5.7172    1.3874    0.0000 C   0  0  0  0  0  0  0  0  0  0  0  0
    7.4492    1.3874    0.0000 C   0  0  0  0  0  0  0  0  0  0  0  0
    5.7172    4.3874    0.0000 C   0  0  0  0  0  0  0  0  0  0  0  0
    7.4492    4.3874    0.0000 C   0  0  0  0  0  0  0  0  0  0  0  0
    6.5832   -0.1125    0.0000 C   0  0  0  0  0  0  0  0  0  0  0  0
    6.5832    5.8874    0.0000 C   0  0  0  0  0  0  0  0  0  0  0  0
    5.7172   -0.6125    0.0000 C   0  0  0  0  0  0  0  0  0  0  0  0
    7.4492    6.3874    0.0000 C   0  0  0  0  0  0  0  0  0  0  0  0
    5.7172    6.3874    0.0000 C   0  0  0  0  0  0  0  0  0  0  0  0
    5.7172   -1.6126    0.0000 C   0  0  0  0  0  0  0  0  0  0  0  0
    7.4492    7.3874    0.0000 C   0  0  0  0  0  0  0  0  0  0  0  0
    5.7172    7.3874    0.0000 C   0  0  0  0  0  0  0  0  0  0  0  0
    6.5832    7.8874    0.0000 C   0  0  0  0  0  0  0  0  0  0  0  0
    9.1813    6.3874    0.0000 C   0  0  0  0  0  0  0  0  0  0  0  0
    4.8511   -3.1126    0.0000 C   0  0  0  0  0  0  0  0  0  0  0  0
    4.3511   -4.6514    0.0000 C   0  0  0  0  0  0  0  0  0  0  0  0
    3.0911   -3.3913    0.0000 C   0  0  0  0  0  0  0  0  0  0  0  0
    3.7634   -5.4604    0.0000 C   0  0  0  0  0  0  0  0  0  0  0  0
    2.7688   -5.3559    0.0000 C   0  0  0  0  0  0  0  0  0  0  0  0
    4.1701   -6.3740    0.0000 C   0  0  0  0  0  0  0  0  0  0  0  0
    2.1810   -6.1649    0.0000 C   0  0  0  0  0  0  0  0  0  0  0  0
    3.5823   -7.1830    0.0000 C   0  0  0  0  0  0  0  0  0  0  0  0
    2.5878   -7.0784    0.0000 C   0  0  0  0  0  0  0  0  0  0  0  0
    5.5051    2.9701    0.0000 H   0  0  0  0  0  0  0  0  0  0  0  0
    5.1066    2.2798    0.0000 H   0  0  0  0  0  0  0  0  0  0  0  0
    8.0598    2.2798    0.0000 H   0  0  0  0  0  0  0  0  0  0  0  0
    7.6613    2.9701    0.0000 H   0  0  0  0  0  0  0  0  0  0  0  0
    5.1066    3.4951    0.0000 H   0  0  0  0  0  0  0  0  0  0  0  0
    5.5051    2.8048    0.0000 H   0  0  0  0  0  0  0  0  0  0  0  0
    7.6613    2.8048    0.0000 H   0  0  0  0  0  0  0  0  0  0  0  0
    8.0598    3.4951    0.0000 H   0  0  0  0  0  0  0  0  0  0  0  0
    5.1066    1.4951    0.0000 H   0  0  0  0  0  0  0  0  0  0  0  0
    5.5051    0.8048    0.0000 H   0  0  0  0  0  0  0  0  0  0  0  0
    7.6613    0.8048    0.0000 H   0  0  0  0  0  0  0  0  0  0  0  0
    8.0598    1.4951    0.0000 H   0  0  0  0  0  0  0  0  0  0  0  0
    5.5051    4.9701    0.0000 H   0  0  0  0  0  0  0  0  0  0  0  0
    5.1066    4.2798    0.0000 H   0  0  0  0  0  0  0  0  0  0  0  0
    8.0598    4.2798    0.0000 H   0  0  0  0  0  0  0  0  0  0  0  0
    7.6613    4.9701    0.0000 H   0  0  0  0  0  0  0  0  0  0  0  0
    6.7952   -0.6952    0.0000 H   0  0  0  0  0  0  0  0  0  0  0  0
    7.1938   -0.0049    0.0000 H   0  0  0  0  0  0  0  0  0  0  0  0
    5.5051   -0.0299    0.0000 H   0  0  0  0  0  0  0  0  0  0  0  0
    5.1066   -0.7202    0.0000 H   0  0  0  0  0  0  0  0  0  0  0  0
    5.1802    6.0775    0.0000 H   0  0  0  0  0  0  0  0  0  0  0  0
    5.9292   -2.1952    0.0000 H   0  0  0  0  0  0  0  0  0  0  0  0
    6.3278   -1.5049    0.0000 H   0  0  0  0  0  0  0  0  0  0  0  0
    7.9862    7.6974    0.0000 H   0  0  0  0  0  0  0  0  0  0  0  0
    5.1802    7.6974    0.0000 H   0  0  0  0  0  0  0  0  0  0  0  0
    6.5832    8.5074    0.0000 H   0  0  0  0  0  0  0  0  0  0  0  0
    9.4913    5.8505    0.0000 H   0  0  0  0  0  0  0  0  0  0  0  0
    9.7182    6.6974    0.0000 H   0  0  0  0  0  0  0  0  0  0  0  0
    8.8713    6.9244    0.0000 H   0  0  0  0  0  0  0  0  0  0  0  0
    3.2827   -2.8017    0.0000 H   0  0  0  0  0  0  0  0  0  0  0  0
    2.5014   -3.1997    0.0000 H   0  0  0  0  0  0  0  0  0  0  0  0
    2.8995   -3.9810    0.0000 H   0  0  0  0  0  0  0  0  0  0  0  0
    2.5167   -4.7895    0.0000 H   0  0  0  0  0  0  0  0  0  0  0  0
    4.7867   -6.4388    0.0000 H   0  0  0  0  0  0  0  0  0  0  0  0
    1.5644   -6.1001    0.0000 H   0  0  0  0  0  0  0  0  0  0  0  0
    3.8345   -7.7494    0.0000 H   0  0  0  0  0  0  0  0  0  0  0  0
  1 23  1  0  0  0  0
  1 28  1  0  0  0  0
  2 36  1  0  0  0  0
  3 21  1  0  0  0  0
  3 27  1  0  0  0  0
  4 14  1  0  0  0  0
  4 15  1  0  0  0  0
  4 18  1  0  0  0  0
  5 16  1  0  0  0  0
  5 17  1  0  0  0  0
  5 19  1  0  0  0  0
  6 28  1  0  0  0  0
  6 29  1  0  0  0  0
  6 30  1  0  0  0  0
  7  8  1  0  0  0  0
  7 28  2  0  0  0  0
  8 29  2  0  0  0  0
  9 10  1  0  0  0  0
  9 11  1  0  0  0  0
  9 12  1  0  0  0  0
  9 13  1  0  0  0  0
 10 14  1  0  0  0  0
 10 37  1  0  0  0  0
 10 38  1  0  0  0  0
 11 15  1  0  0  0  0
 11 39  1  0  0  0  0
 11 40  1  0  0  0  0
 12 16  1  0  0  0  0
 12 41  1  0  0  0  0
 12 42  1  0  0  0  0
 13 17  1  0  0  0  0
 13 43  1  0  0  0  0
 13 44  1  0  0  0  0
 14 45  1  0  0  0  0
 14 46  1  0  0  0  0
 15 47  1  0  0  0  0
 15 48  1  0  0  0  0
 16 49  1  0  0  0  0
 16 50  1  0  0  0  0
 17 51  1  0  0  0  0
 17 52  1  0  0  0  0
 18 20  1  0  0  0  0
 18 53  1  0  0  0  0
 18 54  1  0  0  0  0
 19 21  1  0  0  0  0
 19 22  2  0  0  0  0
 20 23  1  0  0  0  0
 20 55  1  0  0  0  0
 20 56  1  0  0  0  0
 21 24  2  0  0  0  0
 22 25  1  0  0  0  0
 22 57  1  0  0  0  0
 23 58  1  0  0  0  0
 23 59  1  0  0  0  0
 24 26  1  0  0  0  0
 24 60  1  0  0  0  0
 25 26  2  0  0  0  0
 25 61  1  0  0  0  0
 26 62  1  0  0  0  0
 27 63  1  0  0  0  0
 27 64  1  0  0  0  0
 27 65  1  0  0  0  0
 29 31  1  0  0  0  0
 30 66  1  0  0  0  0
 30 67  1  0  0  0  0
 30 68  1  0  0  0  0
 31 32  2  0  0  0  0
 31 33  1  0  0  0  0
 32 34  1  0  0  0  0
 32 69  1  0  0  0  0
 33 35  2  0  0  0  0
 33 70  1  0  0  0  0
 34 36  2  0  0  0  0
 34 71  1  0  0  0  0
 35 36  1  0  0  0  0
 35 72  1  0  0  0  0
M  END
> <PUBCHEM_COMPOUND_CID>
155548038

> <PUBCHEM_COMPOUND_CANONICALIZED>
1

> <PUBCHEM_CACTVS_COMPLEXITY>
662

> <PUBCHEM_CACTVS_HBOND_ACCEPTOR>
7

> <PUBCHEM_CACTVS_HBOND_DONOR>
0

> <PUBCHEM_CACTVS_ROTATABLE_BOND>
8

> <PUBCHEM_CACTVS_SUBSKEYS>
AAADcfB7oQBAAAAAAAAAAAAAAAAAAWAAAAA8eIEAAAAAAAAB0AAAHwQIAAAADgzF2w6z1ocMFAiiAiZiZACS2AthIrAdyCAvbJiOLqLkuZuFMChkyBPY6AeQwAAPAAAAAAAAEAAAAAAAAAAgAAAAAAAAAA==

> <PUBCHEM_IUPAC_OPENEYE_NAME>
9-[3-[[5-(4-fluorophenyl)-4-methyl-1,2,4-triazol-3-yl]sulfanyl]propyl]-3-(2-methoxyphenyl)-3,9-diazaspiro[5.5]undecane

> <PUBCHEM_IUPAC_CAS_NAME>
9-[3-[[5-(4-fluorophenyl)-4-methyl-1,2,4-triazol-3-yl]thio]propyl]-3-(2-methoxyphenyl)-3,9-diazaspiro[5.5]undecane

> <PUBCHEM_IUPAC_NAME_MARKUP>
9-[3-[[5-(4-fluorophenyl)-4-methyl-1,2,4-triazol-3-yl]sulfanyl]propyl]-3-(2-methoxyphenyl)-3,9-diazaspiro[5.5]undecane

> <PUBCHEM_IUPAC_NAME>
9-[3-[[5-(4-fluorophenyl)-4-methyl-1,2,4-triazol-3-yl]sulfanyl]propyl]-3-(2-methoxyphenyl)-3,9-diazaspiro[5.5]undecane

> <PUBCHEM_IUPAC_SYSTEMATIC_NAME>
9-[3-[[5-(4-fluorophenyl)-4-methyl-1,2,4-triazol-3-yl]sulfanyl]propyl]-3-(2-methoxyphenyl)-3,9-diazaspiro[5.5]undecane

> <PUBCHEM_IUPAC_TRADITIONAL_NAME>
9-[3-[[5-(4-fluorophenyl)-4-methyl-1,2,4-triazol-3-yl]thio]propyl]-3-(2-methoxyphenyl)-3,9-diazaspiro[5.5]undecane

> <PUBCHEM_IUPAC_INCHI>
InChI=1S/C28H36FN5OS/c1-32-26(22-8-10-23(29)11-9-22)30-31-27(32)36-21-5-16-33-17-12-28(13-18-33)14-19-34(20-15-28)24-6-3-4-7-25(24)35-2/h3-4,6-11H,5,12-21H2,1-2H3

> <PUBCHEM_IUPAC_INCHIKEY>
GNSTWTHQXOJWPR-UHFFFAOYSA-N

> <PUBCHEM_XLOGP3_AA>
5.3

> <PUBCHEM_EXACT_MASS>
509.26246012

> <PUBCHEM_MOLECULAR_FORMULA>
C28H36FN5OS

> <PUBCHEM_MOLECULAR_WEIGHT>
509.7

> <PUBCHEM_OPENEYE_CAN_SMILES>
CN1C(=NN=C1SCCCN2CCC3(CC2)CCN(CC3)C4=CC=CC=C4OC)C5=CC=C(C=C5)F

> <PUBCHEM_OPENEYE_ISO_SMILES>
CN1C(=NN=C1SCCCN2CCC3(CC2)CCN(CC3)C4=CC=CC=C4OC)C5=CC=C(C=C5)F

> <PUBCHEM_CACTVS_TPSA>
71.7

> <PUBCHEM_MONOISOTOPIC_WEIGHT>
509.26246012

> <PUBCHEM_TOTAL_CHARGE>
0

> <PUBCHEM_HEAVY_ATOM_COUNT>
36

> <PUBCHEM_ATOM_DEF_STEREO_COUNT>
0

> <PUBCHEM_ATOM_UDEF_STEREO_COUNT>
0

> <PUBCHEM_BOND_DEF_STEREO_COUNT>
0

> <PUBCHEM_BOND_UDEF_STEREO_COUNT>
0

> <PUBCHEM_ISOTOPIC_ATOM_COUNT>
0

> <PUBCHEM_COMPONENT_COUNT>
1

> <PUBCHEM_CACTVS_TAUTO_COUNT>
-1

> <PUBCHEM_COORDINATE_TYPE>
1
5
255

> <PUBCHEM_BONDANNOTATIONS>
19  21  8
19  22  8
21  24  8
22  25  8
24  26  8
25  26  8
31  32  8
31  33  8
32  34  8
33  35  8
34  36  8
35  36  8
6  28  8
6  29  8
7  28  8
7  8  8
8  29  8

$$$$
