71456781
  -OEChem-09292322332D

 53 56  0     1  0  0  0  0  0999 V2000
    3.8968   -1.0965    0.0000 S   0  0  0  0  0  0  0  0  0  0  0  0
    3.6180   -2.8566    0.0000 S   0  0  0  0  0  0  0  0  0  0  0  0
    9.6599    0.4444    0.0000 O   0  0  0  0  0  0  0  0  0  0  0  0
    3.0878   -0.5087    0.0000 O   0  0  0  0  0  0  0  0  0  0  0  0
    4.7058   -1.6843    0.0000 O   0  0  0  0  0  0  0  0  0  0  0  0
    7.0618   -0.0556    0.0000 N   0  0  3  0  0  0  0  0  0  0  0  0
    4.4846   -0.2875    0.0000 N   0  0  0  0  0  0  0  0  0  0  0  0
    5.4791   -0.3920    0.0000 C   0  0  3  0  0  0  0  0  0  0  0  0
    5.9791   -1.2581    0.0000 C   0  0  0  0  0  0  0  0  0  0  0  0
    6.1482    0.3511    0.0000 C   0  0  0  0  0  0  0  0  0  0  0  0
    6.9573   -1.0501    0.0000 C   0  0  0  0  0  0  0  0  0  0  0  0
    7.9278    0.4444    0.0000 C   0  0  0  0  0  0  0  0  0  0  0  0
    8.7938   -0.0556    0.0000 C   0  0  0  0  0  0  0  0  0  0  0  0
    3.3090   -1.9055    0.0000 C   0  0  0  0  0  0  0  0  0  0  0  0
   10.5259   -0.0556    0.0000 C   0  0  0  0  0  0  0  0  0  0  0  0
    2.3090   -1.9055    0.0000 C   0  0  0  0  0  0  0  0  0  0  0  0
   11.3919    0.4444    0.0000 C   0  0  0  0  0  0  0  0  0  0  0  0
    2.0000   -2.8566    0.0000 C   0  0  0  0  0  0  0  0  0  0  0  0
    2.8090   -3.4444    0.0000 C   0  0  0  0  0  0  0  0  0  0  0  0
   10.5259   -1.0556    0.0000 C   0  0  0  0  0  0  0  0  0  0  0  0
   11.3919    1.4444    0.0000 C   0  0  0  0  0  0  0  0  0  0  0  0
   12.2579   -0.0556    0.0000 C   0  0  0  0  0  0  0  0  0  0  0  0
   11.3919   -1.5556    0.0000 C   0  0  0  0  0  0  0  0  0  0  0  0
   12.2579   -1.0556    0.0000 C   0  0  0  0  0  0  0  0  0  0  0  0
   12.2579    1.9444    0.0000 C   0  0  0  0  0  0  0  0  0  0  0  0
   10.5259    1.9444    0.0000 C   0  0  0  0  0  0  0  0  0  0  0  0
   12.2579    2.9444    0.0000 C   0  0  0  0  0  0  0  0  0  0  0  0
   10.5259    2.9444    0.0000 C   0  0  0  0  0  0  0  0  0  0  0  0
   11.3919    3.4444    0.0000 C   0  0  0  0  0  0  0  0  0  0  0  0
    5.2569    0.1868    0.0000 H   0  0  0  0  0  0  0  0  0  0  0  0
    5.4127   -1.5102    0.0000 H   0  0  0  0  0  0  0  0  0  0  0  0
    6.1707   -1.8477    0.0000 H   0  0  0  0  0  0  0  0  0  0  0  0
    6.4582    0.8880    0.0000 H   0  0  0  0  0  0  0  0  0  0  0  0
    5.6466    0.7155    0.0000 H   0  0  0  0  0  0  0  0  0  0  0  0
    7.0221   -1.6668    0.0000 H   0  0  0  0  0  0  0  0  0  0  0  0
    7.5773   -1.0501    0.0000 H   0  0  0  0  0  0  0  0  0  0  0  0
    8.3263    0.9193    0.0000 H   0  0  0  0  0  0  0  0  0  0  0  0
    7.5293    0.9193    0.0000 H   0  0  0  0  0  0  0  0  0  0  0  0
    4.2324    0.2789    0.0000 H   0  0  0  0  0  0  0  0  0  0  0  0
    8.3953   -0.5306    0.0000 H   0  0  0  0  0  0  0  0  0  0  0  0
    9.1924   -0.5306    0.0000 H   0  0  0  0  0  0  0  0  0  0  0  0
    1.9446   -1.4040    0.0000 H   0  0  0  0  0  0  0  0  0  0  0  0
    1.4103   -3.0482    0.0000 H   0  0  0  0  0  0  0  0  0  0  0  0
    2.8090   -4.0644    0.0000 H   0  0  0  0  0  0  0  0  0  0  0  0
    9.9890   -1.3656    0.0000 H   0  0  0  0  0  0  0  0  0  0  0  0
   12.7949    0.2544    0.0000 H   0  0  0  0  0  0  0  0  0  0  0  0
   11.3919   -2.1756    0.0000 H   0  0  0  0  0  0  0  0  0  0  0  0
   12.7949   -1.3656    0.0000 H   0  0  0  0  0  0  0  0  0  0  0  0
   12.7949    1.6344    0.0000 H   0  0  0  0  0  0  0  0  0  0  0  0
    9.9890    1.6344    0.0000 H   0  0  0  0  0  0  0  0  0  0  0  0
   12.7949    3.2544    0.0000 H   0  0  0  0  0  0  0  0  0  0  0  0
    9.9890    3.2544    0.0000 H   0  0  0  0  0  0  0  0  0  0  0  0
   11.3919    4.0644    0.0000 H   0  0  0  0  0  0  0  0  0  0  0  0
  1  4  2  0  0  0  0
  1  5  2  0  0  0  0
  1  7  1  0  0  0  0
  1 14  1  0  0  0  0
  2 14  1  0  0  0  0
  2 19  1  0  0  0  0
  3 13  1  0  0  0  0
  3 15  1  0  0  0  0
  6 10  1  0  0  0  0
  6 11  1  0  0  0  0
  6 12  1  0  0  0  0
  7  8  1  0  0  0  0
  7 39  1  0  0  0  0
  8  9  1  0  0  0  0
  8 10  1  0  0  0  0
  8 30  1  0  0  0  0
  9 11  1  0  0  0  0
  9 31  1  0  0  0  0
  9 32  1  0  0  0  0
 10 33  1  0  0  0  0
 10 34  1  0  0  0  0
 11 35  1  0  0  0  0
 11 36  1  0  0  0  0
 12 13  1  0  0  0  0
 12 37  1  0  0  0  0
 12 38  1  0  0  0  0
 13 40  1  0  0  0  0
 13 41  1  0  0  0  0
 14 16  2  0  0  0  0
 15 17  1  0  0  0  0
 15 20  2  0  0  0  0
 16 18  1  0  0  0  0
 16 42  1  0  0  0  0
 17 21  1  0  0  0  0
 17 22  2  0  0  0  0
 18 19  2  0  0  0  0
 18 43  1  0  0  0  0
 19 44  1  0  0  0  0
 20 23  1  0  0  0  0
 20 45  1  0  0  0  0
 21 25  2  0  0  0  0
 21 26  1  0  0  0  0
 22 24  1  0  0  0  0
 22 46  1  0  0  0  0
 23 24  2  0  0  0  0
 23 47  1  0  0  0  0
 24 48  1  0  0  0  0
 25 27  1  0  0  0  0
 25 49  1  0  0  0  0
 26 28  2  0  0  0  0
 26 50  1  0  0  0  0
 27 29  2  0  0  0  0
 27 51  1  0  0  0  0
 28 29  1  0  0  0  0
 28 52  1  0  0  0  0
 29 53  1  0  0  0  0
M  END
> <PUBCHEM_COMPOUND_CID>
71456781

> <PUBCHEM_COMPOUND_CANONICALIZED>
1

> <PUBCHEM_CACTVS_COMPLEXITY>
604

> <PUBCHEM_CACTVS_HBOND_ACCEPTOR>
6

> <PUBCHEM_CACTVS_HBOND_DONOR>
1

> <PUBCHEM_CACTVS_ROTATABLE_BOND>
8

> <PUBCHEM_CACTVS_SUBSKEYS>
AAADceB7MABgAAAAAAAAAAAAAAAAAWJAAAAwYAAAAAAAAAAB0AAAHgQQQAAADCzl2AawB4NABAqEAiBCAHBDCZAgKBBIiJgOCIgOZiKk8RqXOCCk0BG4qAeAwOAOgAAAAAAIAAAAAAAAABAAAAAAAAAAAA==

> <PUBCHEM_IUPAC_OPENEYE_NAME>
N-[1-[2-(2-phenylphenoxy)ethyl]pyrrolidin-3-yl]thiophene-2-sulfonamide

> <PUBCHEM_IUPAC_CAS_NAME>
N-[1-[2-(2-phenylphenoxy)ethyl]-3-pyrrolidinyl]-2-thiophenesulfonamide

> <PUBCHEM_IUPAC_NAME_MARKUP>
<I>N</I>-[1-[2-(2-phenylphenoxy)ethyl]pyrrolidin-3-yl]thiophene-2-sulfonamide

> <PUBCHEM_IUPAC_NAME>
N-[1-[2-(2-phenylphenoxy)ethyl]pyrrolidin-3-yl]thiophene-2-sulfonamide

> <PUBCHEM_IUPAC_SYSTEMATIC_NAME>
N-[1-[2-(2-phenylphenoxy)ethyl]pyrrolidin-3-yl]thiophene-2-sulfonamide

> <PUBCHEM_IUPAC_TRADITIONAL_NAME>
N-[1-[2-(2-phenylphenoxy)ethyl]pyrrolidin-3-yl]thiophene-2-sulfonamide

> <PUBCHEM_IUPAC_INCHI>
InChI=1S/C22H24N2O3S2/c25-29(26,22-11-6-16-28-22)23-19-12-13-24(17-19)14-15-27-21-10-5-4-9-20(21)18-7-2-1-3-8-18/h1-11,16,19,23H,12-15,17H2

> <PUBCHEM_IUPAC_INCHIKEY>
GXJGVXJVSZWVLE-UHFFFAOYSA-N

> <PUBCHEM_XLOGP3_AA>
4.4

> <PUBCHEM_EXACT_MASS>
428.12283498

> <PUBCHEM_MOLECULAR_FORMULA>
C22H24N2O3S2

> <PUBCHEM_MOLECULAR_WEIGHT>
428.6

> <PUBCHEM_OPENEYE_CAN_SMILES>
C1CN(CC1NS(=O)(=O)C2=CC=CS2)CCOC3=CC=CC=C3C4=CC=CC=C4

> <PUBCHEM_OPENEYE_ISO_SMILES>
C1CN(CC1NS(=O)(=O)C2=CC=CS2)CCOC3=CC=CC=C3C4=CC=CC=C4

> <PUBCHEM_CACTVS_TPSA>
95.3

> <PUBCHEM_MONOISOTOPIC_WEIGHT>
428.12283498

> <PUBCHEM_TOTAL_CHARGE>
0

> <PUBCHEM_HEAVY_ATOM_COUNT>
29

> <PUBCHEM_ATOM_DEF_STEREO_COUNT>
0

> <PUBCHEM_ATOM_UDEF_STEREO_COUNT>
1

> <PUBCHEM_BOND_DEF_STEREO_COUNT>
0

> <PUBCHEM_BOND_UDEF_STEREO_COUNT>
0

> <PUBCHEM_ISOTOPIC_ATOM_COUNT>
0

> <PUBCHEM_COMPONENT_COUNT>
1

> <PUBCHEM_CACTVS_TAUTO_COUNT>
-1

> <PUBCHEM_COORDINATE_TYPE>
1
5
255

> <PUBCHEM_BONDANNOTATIONS>
14  16  8
15  17  8
15  20  8
16  18  8
17  22  8
18  19  8
2  14  8
2  19  8
20  23  8
21  25  8
21  26  8
22  24  8
23  24  8
25  27  8
26  28  8
27  29  8
28  29  8
8  7  3

$$$$
