9817774
  -OEChem-09292322222D

 38 40  0     0  0  0  0  0  0999 V2000
    9.7260   -2.8030    0.0000 S   0  0  0  0  0  0  0  0  0  0  0  0
    6.3301   -0.8030    0.0000 O   0  0  0  0  0  0  0  0  0  0  0  0
    4.5981    1.1970    0.0000 N   0  0  0  0  0  0  0  0  0  0  0  0
    8.1424   -1.9982    0.0000 N   0  0  0  0  0  0  0  0  0  0  0  0
    8.1424   -3.6077    0.0000 N   0  0  0  0  0  0  0  0  0  0  0  0
    7.1962   -2.3030    0.0000 C   0  0  0  0  0  0  0  0  0  0  0  0
    7.1962   -3.3030    0.0000 C   0  0  0  0  0  0  0  0  0  0  0  0
    6.3301   -1.8030    0.0000 C   0  0  0  0  0  0  0  0  0  0  0  0
    5.4641    0.6970    0.0000 C   0  0  0  0  0  0  0  0  0  0  0  0
    5.4641   -0.3030    0.0000 C   0  0  0  0  0  0  0  0  0  0  0  0
    4.5981    2.1970    0.0000 C   0  0  0  0  0  0  0  0  0  0  0  0
    6.3301   -3.8030    0.0000 C   0  0  0  0  0  0  0  0  0  0  0  0
    5.4641   -2.3030    0.0000 C   0  0  0  0  0  0  0  0  0  0  0  0
    3.7320    2.6970    0.0000 C   0  0  0  0  0  0  0  0  0  0  0  0
    8.7260   -2.8030    0.0000 C   0  0  0  0  0  0  0  0  0  0  0  0
    5.4641   -3.3030    0.0000 C   0  0  0  0  0  0  0  0  0  0  0  0
    3.7320    3.6970    0.0000 C   0  0  0  0  0  0  0  0  0  0  0  0
    2.8660    2.1970    0.0000 C   0  0  0  0  0  0  0  0  0  0  0  0
    2.8660    4.1970    0.0000 C   0  0  0  0  0  0  0  0  0  0  0  0
    2.0000    2.6970    0.0000 C   0  0  0  0  0  0  0  0  0  0  0  0
    2.0000    3.6970    0.0000 C   0  0  0  0  0  0  0  0  0  0  0  0
    6.0747    0.5894    0.0000 H   0  0  0  0  0  0  0  0  0  0  0  0
    5.6762    1.2796    0.0000 H   0  0  0  0  0  0  0  0  0  0  0  0
    4.8535   -0.1953    0.0000 H   0  0  0  0  0  0  0  0  0  0  0  0
    5.2520   -0.8856    0.0000 H   0  0  0  0  0  0  0  0  0  0  0  0
    5.2087    2.0894    0.0000 H   0  0  0  0  0  0  0  0  0  0  0  0
    4.8101    2.7796    0.0000 H   0  0  0  0  0  0  0  0  0  0  0  0
    4.0611    0.8870    0.0000 H   0  0  0  0  0  0  0  0  0  0  0  0
    8.3350   -1.4089    0.0000 H   0  0  0  0  0  0  0  0  0  0  0  0
    8.3350   -4.1970    0.0000 H   0  0  0  0  0  0  0  0  0  0  0  0
    6.3301   -4.4230    0.0000 H   0  0  0  0  0  0  0  0  0  0  0  0
    4.9272   -1.9930    0.0000 H   0  0  0  0  0  0  0  0  0  0  0  0
    4.9272   -3.6130    0.0000 H   0  0  0  0  0  0  0  0  0  0  0  0
    4.2690    4.0070    0.0000 H   0  0  0  0  0  0  0  0  0  0  0  0
    2.8660    1.5770    0.0000 H   0  0  0  0  0  0  0  0  0  0  0  0
    2.8660    4.8170    0.0000 H   0  0  0  0  0  0  0  0  0  0  0  0
    1.4631    2.3870    0.0000 H   0  0  0  0  0  0  0  0  0  0  0  0
    1.4631    4.0070    0.0000 H   0  0  0  0  0  0  0  0  0  0  0  0
  1 15  2  0  0  0  0
  2  8  1  0  0  0  0
  2 10  1  0  0  0  0
  3  9  1  0  0  0  0
  3 11  1  0  0  0  0
  3 28  1  0  0  0  0
  4  6  1  0  0  0  0
  4 15  1  0  0  0  0
  4 29  1  0  0  0  0
  5  7  1  0  0  0  0
  5 15  1  0  0  0  0
  5 30  1  0  0  0  0
  6  7  2  0  0  0  0
  6  8  1  0  0  0  0
  7 12  1  0  0  0  0
  8 13  2  0  0  0  0
  9 10  1  0  0  0  0
  9 22  1  0  0  0  0
  9 23  1  0  0  0  0
 10 24  1  0  0  0  0
 10 25  1  0  0  0  0
 11 14  1  0  0  0  0
 11 26  1  0  0  0  0
 11 27  1  0  0  0  0
 12 16  2  0  0  0  0
 12 31  1  0  0  0  0
 13 16  1  0  0  0  0
 13 32  1  0  0  0  0
 14 17  2  0  0  0  0
 14 18  1  0  0  0  0
 16 33  1  0  0  0  0
 17 19  1  0  0  0  0
 17 34  1  0  0  0  0
 18 20  2  0  0  0  0
 18 35  1  0  0  0  0
 19 21  2  0  0  0  0
 19 36  1  0  0  0  0
 20 21  1  0  0  0  0
 20 37  1  0  0  0  0
 21 38  1  0  0  0  0
M  END
> <PUBCHEM_COMPOUND_CID>
9817774

> <PUBCHEM_COMPOUND_CANONICALIZED>
1

> <PUBCHEM_CACTVS_COMPLEXITY>
346

> <PUBCHEM_CACTVS_HBOND_ACCEPTOR>
3

> <PUBCHEM_CACTVS_HBOND_DONOR>
3

> <PUBCHEM_CACTVS_ROTATABLE_BOND>
6

> <PUBCHEM_CACTVS_SUBSKEYS>
AAADceB7IABAAAAAAAAAAAAAAAAAAWAAAAAwYAAAAAAAAFgBQAAAHgQQAAAADAzhmAYxxoLABACEAiRCQACCCAAhIgkIiIAPfIiOZiLEsZuXOCju0BvY6CeQ0AMOAAAAAgAAECAAAAAEAAAgQAAAAAAAAA==

> <PUBCHEM_IUPAC_OPENEYE_NAME>
4-[2-(benzylamino)ethoxy]-1,3-dihydrobenzimidazole-2-thione

> <PUBCHEM_IUPAC_CAS_NAME>
4-[2-[(phenylmethyl)amino]ethoxy]-1,3-dihydrobenzimidazole-2-thione

> <PUBCHEM_IUPAC_NAME_MARKUP>
4-[2-(benzylamino)ethoxy]-1,3-dihydrobenzimidazole-2-thione

> <PUBCHEM_IUPAC_NAME>
4-[2-(benzylamino)ethoxy]-1,3-dihydrobenzimidazole-2-thione

> <PUBCHEM_IUPAC_SYSTEMATIC_NAME>
4-[2-[(phenylmethyl)amino]ethoxy]-1,3-dihydrobenzimidazole-2-thione

> <PUBCHEM_IUPAC_TRADITIONAL_NAME>
4-[2-(benzylamino)ethoxy]-1,3-dihydrobenzimidazole-2-thione

> <PUBCHEM_IUPAC_INCHI>
InChI=1S/C16H17N3OS/c21-16-18-13-7-4-8-14(15(13)19-16)20-10-9-17-11-12-5-2-1-3-6-12/h1-8,17H,9-11H2,(H2,18,19,21)

> <PUBCHEM_IUPAC_INCHIKEY>
IMYFITBNCNWHTL-UHFFFAOYSA-N

> <PUBCHEM_XLOGP3_AA>
2.2

> <PUBCHEM_EXACT_MASS>
299.10923335

> <PUBCHEM_MOLECULAR_FORMULA>
C16H17N3OS

> <PUBCHEM_MOLECULAR_WEIGHT>
299.4

> <PUBCHEM_OPENEYE_CAN_SMILES>
C1=CC=C(C=C1)CNCCOC2=CC=CC3=C2NC(=S)N3

> <PUBCHEM_OPENEYE_ISO_SMILES>
C1=CC=C(C=C1)CNCCOC2=CC=CC3=C2NC(=S)N3

> <PUBCHEM_CACTVS_TPSA>
77.4

> <PUBCHEM_MONOISOTOPIC_WEIGHT>
299.10923335

> <PUBCHEM_TOTAL_CHARGE>
0

> <PUBCHEM_HEAVY_ATOM_COUNT>
21

> <PUBCHEM_ATOM_DEF_STEREO_COUNT>
0

> <PUBCHEM_ATOM_UDEF_STEREO_COUNT>
0

> <PUBCHEM_BOND_DEF_STEREO_COUNT>
0

> <PUBCHEM_BOND_UDEF_STEREO_COUNT>
0

> <PUBCHEM_ISOTOPIC_ATOM_COUNT>
0

> <PUBCHEM_COMPONENT_COUNT>
1

> <PUBCHEM_CACTVS_TAUTO_COUNT>
-1

> <PUBCHEM_COORDINATE_TYPE>
1
5
255

> <PUBCHEM_BONDANNOTATIONS>
12  16  8
13  16  8
14  17  8
14  18  8
17  19  8
18  20  8
19  21  8
20  21  8
4  15  8
4  6  8
5  15  8
5  7  8
6  7  8
6  8  8
7  12  8
8  13  8

$$$$
