11611862
  -OEChem-09292322272D

 63 66  0     0  0  0  0  0  0999 V2000
   13.7619    0.3840    0.0000 O   0  0  0  0  0  0  0  0  0  0  0  0
    4.6783   -1.2868    0.0000 O   0  0  0  0  0  0  0  0  0  0  0  0
    6.7619   -1.3481    0.0000 O   0  0  0  0  0  0  0  0  0  0  0  0
    2.8660   -2.4820    0.0000 O   0  0  0  0  0  0  0  0  0  0  0  0
   10.7619    2.1160    0.0000 N   0  0  0  0  0  0  0  0  0  0  0  0
   12.7619    2.1160    0.0000 N   0  0  0  0  0  0  0  0  0  0  0  0
    6.7619    0.3840    0.0000 N   0  0  0  0  0  0  0  0  0  0  0  0
   11.2619    1.2500    0.0000 C   0  0  0  0  0  0  0  0  0  0  0  0
   11.2619    2.9820    0.0000 C   0  0  0  0  0  0  0  0  0  0  0  0
   12.2619    1.2500    0.0000 C   0  0  0  0  0  0  0  0  0  0  0  0
   12.2619    2.9820    0.0000 C   0  0  0  0  0  0  0  0  0  0  0  0
    9.7619    2.1160    0.0000 C   0  0  0  0  0  0  0  0  0  0  0  0
    9.2619    1.2500    0.0000 C   0  0  0  0  0  0  0  0  0  0  0  0
   13.7619    2.1160    0.0000 C   0  0  0  0  0  0  0  0  0  0  0  0
    8.2619    1.2500    0.0000 C   0  0  0  0  0  0  0  0  0  0  0  0
    7.7619    0.3840    0.0000 C   0  0  0  0  0  0  0  0  0  0  0  0
   14.2619    1.2500    0.0000 C   0  0  0  0  0  0  0  0  0  0  0  0
   14.2619    2.9820    0.0000 C   0  0  0  0  0  0  0  0  0  0  0  0
   15.2619    1.2500    0.0000 C   0  0  0  0  0  0  0  0  0  0  0  0
   15.2619    2.9820    0.0000 C   0  0  0  0  0  0  0  0  0  0  0  0
   15.7619    2.1160    0.0000 C   0  0  0  0  0  0  0  0  0  0  0  0
    6.2619   -0.4821    0.0000 C   0  0  0  0  0  0  0  0  0  0  0  0
    5.2619   -0.4821    0.0000 C   0  0  0  0  0  0  0  0  0  0  0  0
   14.2619   -0.4821    0.0000 C   0  0  0  0  0  0  0  0  0  0  0  0
    4.6783    0.3227    0.0000 C   0  0  0  0  0  0  0  0  0  0  0  0
    3.7320    0.0179    0.0000 C   0  0  0  0  0  0  0  0  0  0  0  0
    3.7320   -0.9821    0.0000 C   0  0  0  0  0  0  0  0  0  0  0  0
    2.8660   -1.4820    0.0000 C   0  0  0  0  0  0  0  0  0  0  0  0
    2.8660    0.5179    0.0000 C   0  0  0  0  0  0  0  0  0  0  0  0
    2.0000   -0.9821    0.0000 C   0  0  0  0  0  0  0  0  0  0  0  0
    2.0000    0.0179    0.0000 C   0  0  0  0  0  0  0  0  0  0  0  0
    2.0000   -2.9820    0.0000 C   0  0  0  0  0  0  0  0  0  0  0  0
   10.6793    1.0380    0.0000 H   0  0  0  0  0  0  0  0  0  0  0  0
   11.3695    0.6394    0.0000 H   0  0  0  0  0  0  0  0  0  0  0  0
   11.3695    3.5926    0.0000 H   0  0  0  0  0  0  0  0  0  0  0  0
   10.6793    3.1941    0.0000 H   0  0  0  0  0  0  0  0  0  0  0  0
   12.1542    0.6394    0.0000 H   0  0  0  0  0  0  0  0  0  0  0  0
   12.8445    1.0380    0.0000 H   0  0  0  0  0  0  0  0  0  0  0  0
   12.8445    3.1941    0.0000 H   0  0  0  0  0  0  0  0  0  0  0  0
   12.1542    3.5926    0.0000 H   0  0  0  0  0  0  0  0  0  0  0  0
    9.8695    2.7266    0.0000 H   0  0  0  0  0  0  0  0  0  0  0  0
    9.1793    2.3281    0.0000 H   0  0  0  0  0  0  0  0  0  0  0  0
    9.1542    0.6394    0.0000 H   0  0  0  0  0  0  0  0  0  0  0  0
    9.8445    1.0380    0.0000 H   0  0  0  0  0  0  0  0  0  0  0  0
    8.3695    1.8606    0.0000 H   0  0  0  0  0  0  0  0  0  0  0  0
    7.6793    1.4620    0.0000 H   0  0  0  0  0  0  0  0  0  0  0  0
    7.6542   -0.2266    0.0000 H   0  0  0  0  0  0  0  0  0  0  0  0
    8.3445    0.1719    0.0000 H   0  0  0  0  0  0  0  0  0  0  0  0
   13.9519    3.5190    0.0000 H   0  0  0  0  0  0  0  0  0  0  0  0
    6.4519    0.9209    0.0000 H   0  0  0  0  0  0  0  0  0  0  0  0
   15.5719    0.7131    0.0000 H   0  0  0  0  0  0  0  0  0  0  0  0
   15.5719    3.5190    0.0000 H   0  0  0  0  0  0  0  0  0  0  0  0
   16.3819    2.1160    0.0000 H   0  0  0  0  0  0  0  0  0  0  0  0
   13.7249   -0.7921    0.0000 H   0  0  0  0  0  0  0  0  0  0  0  0
   14.5719   -1.0190    0.0000 H   0  0  0  0  0  0  0  0  0  0  0  0
   14.7988   -0.1721    0.0000 H   0  0  0  0  0  0  0  0  0  0  0  0
    4.8709    0.9120    0.0000 H   0  0  0  0  0  0  0  0  0  0  0  0
    2.8660    1.1380    0.0000 H   0  0  0  0  0  0  0  0  0  0  0  0
    1.4631   -1.2920    0.0000 H   0  0  0  0  0  0  0  0  0  0  0  0
    1.4631    0.3279    0.0000 H   0  0  0  0  0  0  0  0  0  0  0  0
    1.6900   -2.4451    0.0000 H   0  0  0  0  0  0  0  0  0  0  0  0
    1.4631   -3.2920    0.0000 H   0  0  0  0  0  0  0  0  0  0  0  0
    2.3100   -3.5190    0.0000 H   0  0  0  0  0  0  0  0  0  0  0  0
  1 17  1  0  0  0  0
  1 24  1  0  0  0  0
  2 23  1  0  0  0  0
  2 27  1  0  0  0  0
  3 22  2  0  0  0  0
  4 28  1  0  0  0  0
  4 32  1  0  0  0  0
  5  8  1  0  0  0  0
  5  9  1  0  0  0  0
  5 12  1  0  0  0  0
  6 10  1  0  0  0  0
  6 11  1  0  0  0  0
  6 14  1  0  0  0  0
  7 16  1  0  0  0  0
  7 22  1  0  0  0  0
  7 50  1  0  0  0  0
  8 10  1  0  0  0  0
  8 33  1  0  0  0  0
  8 34  1  0  0  0  0
  9 11  1  0  0  0  0
  9 35  1  0  0  0  0
  9 36  1  0  0  0  0
 10 37  1  0  0  0  0
 10 38  1  0  0  0  0
 11 39  1  0  0  0  0
 11 40  1  0  0  0  0
 12 13  1  0  0  0  0
 12 41  1  0  0  0  0
 12 42  1  0  0  0  0
 13 15  1  0  0  0  0
 13 43  1  0  0  0  0
 13 44  1  0  0  0  0
 14 17  1  0  0  0  0
 14 18  2  0  0  0  0
 15 16  1  0  0  0  0
 15 45  1  0  0  0  0
 15 46  1  0  0  0  0
 16 47  1  0  0  0  0
 16 48  1  0  0  0  0
 17 19  2  0  0  0  0
 18 20  1  0  0  0  0
 18 49  1  0  0  0  0
 19 21  1  0  0  0  0
 19 51  1  0  0  0  0
 20 21  2  0  0  0  0
 20 52  1  0  0  0  0
 21 53  1  0  0  0  0
 22 23  1  0  0  0  0
 23 25  2  0  0  0  0
 24 54  1  0  0  0  0
 24 55  1  0  0  0  0
 24 56  1  0  0  0  0
 25 26  1  0  0  0  0
 25 57  1  0  0  0  0
 26 27  2  0  0  0  0
 26 29  1  0  0  0  0
 27 28  1  0  0  0  0
 28 30  2  0  0  0  0
 29 31  2  0  0  0  0
 29 58  1  0  0  0  0
 30 31  1  0  0  0  0
 30 59  1  0  0  0  0
 31 60  1  0  0  0  0
 32 61  1  0  0  0  0
 32 62  1  0  0  0  0
 32 63  1  0  0  0  0
M  END
> <PUBCHEM_COMPOUND_CID>
11611862

> <PUBCHEM_COMPOUND_CANONICALIZED>
1

> <PUBCHEM_CACTVS_COMPLEXITY>
584

> <PUBCHEM_CACTVS_HBOND_ACCEPTOR>
6

> <PUBCHEM_CACTVS_HBOND_DONOR>
1

> <PUBCHEM_CACTVS_ROTATABLE_BOND>
9

> <PUBCHEM_CACTVS_SUBSKEYS>
AAADceB7OAAAAAAAAAAAAAAAAAAAASAAAAA8YIAAAAAAAEgB9AAAHgAQAAAADAzBmAYyxsPABECIAqVSUAKCCAAlIgAIiIHP7MgPZjLEtb+XOSrk1hHa6YeY/77uAAABAAAIUAAAAAIAABCgAAAAAAAAAA==

> <PUBCHEM_IUPAC_OPENEYE_NAME>
7-methoxy-N-[4-[4-(2-methoxyphenyl)piperazin-1-yl]butyl]benzofuran-2-carboxamide

> <PUBCHEM_IUPAC_CAS_NAME>
7-methoxy-N-[4-[4-(2-methoxyphenyl)-1-piperazinyl]butyl]-2-benzofurancarboxamide

> <PUBCHEM_IUPAC_NAME_MARKUP>
7-methoxy-<I>N</I>-[4-[4-(2-methoxyphenyl)piperazin-1-yl]butyl]-1-benzofuran-2-carboxamide

> <PUBCHEM_IUPAC_NAME>
7-methoxy-N-[4-[4-(2-methoxyphenyl)piperazin-1-yl]butyl]-1-benzofuran-2-carboxamide

> <PUBCHEM_IUPAC_SYSTEMATIC_NAME>
7-methoxy-N-[4-[4-(2-methoxyphenyl)piperazin-1-yl]butyl]-1-benzofuran-2-carboxamide

> <PUBCHEM_IUPAC_TRADITIONAL_NAME>
7-methoxy-N-[4-[4-(2-methoxyphenyl)piperazino]butyl]coumarilamide

> <PUBCHEM_IUPAC_INCHI>
InChI=1S/C25H31N3O4/c1-30-21-10-4-3-9-20(21)28-16-14-27(15-17-28)13-6-5-12-26-25(29)23-18-19-8-7-11-22(31-2)24(19)32-23/h3-4,7-11,18H,5-6,12-17H2,1-2H3,(H,26,29)

> <PUBCHEM_IUPAC_INCHIKEY>
RZJRKBKBJHIRPW-UHFFFAOYSA-N

> <PUBCHEM_XLOGP3_AA>
4.2

> <PUBCHEM_EXACT_MASS>
437.23145648

> <PUBCHEM_MOLECULAR_FORMULA>
C25H31N3O4

> <PUBCHEM_MOLECULAR_WEIGHT>
437.5

> <PUBCHEM_OPENEYE_CAN_SMILES>
COC1=CC=CC=C1N2CCN(CC2)CCCCNC(=O)C3=CC4=C(O3)C(=CC=C4)OC

> <PUBCHEM_OPENEYE_ISO_SMILES>
COC1=CC=CC=C1N2CCN(CC2)CCCCNC(=O)C3=CC4=C(O3)C(=CC=C4)OC

> <PUBCHEM_CACTVS_TPSA>
67.2

> <PUBCHEM_MONOISOTOPIC_WEIGHT>
437.23145648

> <PUBCHEM_TOTAL_CHARGE>
0

> <PUBCHEM_HEAVY_ATOM_COUNT>
32

> <PUBCHEM_ATOM_DEF_STEREO_COUNT>
0

> <PUBCHEM_ATOM_UDEF_STEREO_COUNT>
0

> <PUBCHEM_BOND_DEF_STEREO_COUNT>
0

> <PUBCHEM_BOND_UDEF_STEREO_COUNT>
0

> <PUBCHEM_ISOTOPIC_ATOM_COUNT>
0

> <PUBCHEM_COMPONENT_COUNT>
1

> <PUBCHEM_CACTVS_TAUTO_COUNT>
-1

> <PUBCHEM_COORDINATE_TYPE>
1
5
255

> <PUBCHEM_BONDANNOTATIONS>
14  17  8
14  18  8
17  19  8
18  20  8
19  21  8
2  23  8
2  27  8
20  21  8
23  25  8
25  26  8
26  27  8
26  29  8
27  28  8
28  30  8
29  31  8
30  31  8

$$$$
