44338310
  -OEChem-09292322192D

 48 51  0     0  0  0  0  0  0999 V2000
    8.9030    1.8870    0.0000 Cl  0  0  0  0  0  0  0  0  0  0  0  0
   11.2619   -2.4251    0.0000 O   0  0  0  0  0  0  0  0  0  0  0  0
   11.2619   -0.6931    0.0000 O   0  0  0  0  0  0  0  0  0  0  0  0
    4.6783    0.1117    0.0000 N   0  0  0  0  0  0  0  0  0  0  0  0
    4.6783   -1.4978    0.0000 N   0  0  0  0  0  0  0  0  0  0  0  0
    3.7320   -0.1931    0.0000 C   0  0  0  0  0  0  0  0  0  0  0  0
    4.9889    1.0622    0.0000 C   0  0  0  0  0  0  0  0  0  0  0  0
    5.2619   -0.6931    0.0000 C   0  0  0  0  0  0  0  0  0  0  0  0
    3.7320   -1.1931    0.0000 C   0  0  0  0  0  0  0  0  0  0  0  0
    5.9674    1.2684    0.0000 C   0  0  0  0  0  0  0  0  0  0  0  0
    2.8660    0.3069    0.0000 C   0  0  0  0  0  0  0  0  0  0  0  0
    2.8660   -1.6931    0.0000 C   0  0  0  0  0  0  0  0  0  0  0  0
    6.2619   -0.6931    0.0000 C   0  0  0  0  0  0  0  0  0  0  0  0
    2.0000   -0.1931    0.0000 C   0  0  0  0  0  0  0  0  0  0  0  0
    6.6353    0.5241    0.0000 C   0  0  0  0  0  0  0  0  0  0  0  0
    6.2781    2.2189    0.0000 C   0  0  0  0  0  0  0  0  0  0  0  0
    2.0000   -1.1931    0.0000 C   0  0  0  0  0  0  0  0  0  0  0  0
    6.7619   -1.5591    0.0000 C   0  0  0  0  0  0  0  0  0  0  0  0
    7.7619   -1.5591    0.0000 C   0  0  0  0  0  0  0  0  0  0  0  0
    7.6138    0.7303    0.0000 C   0  0  0  0  0  0  0  0  0  0  0  0
    7.2566    2.4251    0.0000 C   0  0  0  0  0  0  0  0  0  0  0  0
    7.9244    1.6808    0.0000 C   0  0  0  0  0  0  0  0  0  0  0  0
    8.2619   -0.6931    0.0000 C   0  0  0  0  0  0  0  0  0  0  0  0
    8.2619   -2.4251    0.0000 C   0  0  0  0  0  0  0  0  0  0  0  0
    9.7619   -1.5591    0.0000 C   0  0  0  0  0  0  0  0  0  0  0  0
    9.2619   -0.6931    0.0000 C   0  0  0  0  0  0  0  0  0  0  0  0
    9.2619   -2.4251    0.0000 C   0  0  0  0  0  0  0  0  0  0  0  0
   10.7619   -1.5591    0.0000 C   0  0  0  0  0  0  0  0  0  0  0  0
   12.2619   -2.4251    0.0000 C   0  0  0  0  0  0  0  0  0  0  0  0
    4.9684    1.6818    0.0000 H   0  0  0  0  0  0  0  0  0  0  0  0
    4.3751    1.1495    0.0000 H   0  0  0  0  0  0  0  0  0  0  0  0
    2.8660    0.9269    0.0000 H   0  0  0  0  0  0  0  0  0  0  0  0
    2.8660   -2.3131    0.0000 H   0  0  0  0  0  0  0  0  0  0  0  0
    6.5719   -0.1561    0.0000 H   0  0  0  0  0  0  0  0  0  0  0  0
    1.4631    0.1169    0.0000 H   0  0  0  0  0  0  0  0  0  0  0  0
    6.4427   -0.0652    0.0000 H   0  0  0  0  0  0  0  0  0  0  0  0
    5.8640    2.6804    0.0000 H   0  0  0  0  0  0  0  0  0  0  0  0
    1.4631   -1.5031    0.0000 H   0  0  0  0  0  0  0  0  0  0  0  0
    6.4519   -2.0960    0.0000 H   0  0  0  0  0  0  0  0  0  0  0  0
    8.0279    0.2688    0.0000 H   0  0  0  0  0  0  0  0  0  0  0  0
    7.4492    3.0144    0.0000 H   0  0  0  0  0  0  0  0  0  0  0  0
    7.9519   -0.1561    0.0000 H   0  0  0  0  0  0  0  0  0  0  0  0
    7.9519   -2.9621    0.0000 H   0  0  0  0  0  0  0  0  0  0  0  0
    9.5719   -0.1561    0.0000 H   0  0  0  0  0  0  0  0  0  0  0  0
    9.5719   -2.9621    0.0000 H   0  0  0  0  0  0  0  0  0  0  0  0
   12.2619   -3.0451    0.0000 H   0  0  0  0  0  0  0  0  0  0  0  0
   12.8819   -2.4251    0.0000 H   0  0  0  0  0  0  0  0  0  0  0  0
   12.2619   -1.8051    0.0000 H   0  0  0  0  0  0  0  0  0  0  0  0
  1 22  1  0  0  0  0
  2 28  1  0  0  0  0
  2 29  1  0  0  0  0
  3 28  2  0  0  0  0
  4  6  1  0  0  0  0
  4  7  1  0  0  0  0
  4  8  1  0  0  0  0
  5  8  2  0  0  0  0
  5  9  1  0  0  0  0
  6  9  1  0  0  0  0
  6 11  2  0  0  0  0
  7 10  1  0  0  0  0
  7 30  1  0  0  0  0
  7 31  1  0  0  0  0
  8 13  1  0  0  0  0
  9 12  2  0  0  0  0
 10 15  2  0  0  0  0
 10 16  1  0  0  0  0
 11 14  1  0  0  0  0
 11 32  1  0  0  0  0
 12 17  1  0  0  0  0
 12 33  1  0  0  0  0
 13 18  2  0  0  0  0
 13 34  1  0  0  0  0
 14 17  2  0  0  0  0
 14 35  1  0  0  0  0
 15 20  1  0  0  0  0
 15 36  1  0  0  0  0
 16 21  2  0  0  0  0
 16 37  1  0  0  0  0
 17 38  1  0  0  0  0
 18 19  1  0  0  0  0
 18 39  1  0  0  0  0
 19 23  2  0  0  0  0
 19 24  1  0  0  0  0
 20 22  2  0  0  0  0
 20 40  1  0  0  0  0
 21 22  1  0  0  0  0
 21 41  1  0  0  0  0
 23 26  1  0  0  0  0
 23 42  1  0  0  0  0
 24 27  2  0  0  0  0
 24 43  1  0  0  0  0
 25 26  2  0  0  0  0
 25 27  1  0  0  0  0
 25 28  1  0  0  0  0
 26 44  1  0  0  0  0
 27 45  1  0  0  0  0
 29 46  1  0  0  0  0
 29 47  1  0  0  0  0
 29 48  1  0  0  0  0
M  END
> <PUBCHEM_COMPOUND_CID>
44338310

> <PUBCHEM_COMPOUND_CANONICALIZED>
1

> <PUBCHEM_CACTVS_COMPLEXITY>
567

> <PUBCHEM_CACTVS_HBOND_ACCEPTOR>
3

> <PUBCHEM_CACTVS_HBOND_DONOR>
0

> <PUBCHEM_CACTVS_ROTATABLE_BOND>
6

> <PUBCHEM_CACTVS_SUBSKEYS>
AAADceB7MAAEAAAAAAAAAAAAAAAAAWAAAAAwYMAAAAAAAFgB9AAAHgIAAAAADArBnyYz2LcMFACoAybybACCgC0lF6AJ2CE4ftiIbrLBv5mUMQhswAPI6aeYyDCORAAAAAAAACCIAAAAAAAAQAAAAAAAAA==

> <PUBCHEM_IUPAC_OPENEYE_NAME>
methyl 4-[(E)-2-[1-[(4-chlorophenyl)methyl]benzimidazol-2-yl]vinyl]benzoate

> <PUBCHEM_IUPAC_CAS_NAME>
4-[(E)-2-[1-[(4-chlorophenyl)methyl]-2-benzimidazolyl]ethenyl]benzoic acid methyl ester

> <PUBCHEM_IUPAC_NAME_MARKUP>
methyl 4-[(<I>E</I>)-2-[1-[(4-chlorophenyl)methyl]benzimidazol-2-yl]ethenyl]benzoate

> <PUBCHEM_IUPAC_NAME>
methyl 4-[(E)-2-[1-[(4-chlorophenyl)methyl]benzimidazol-2-yl]ethenyl]benzoate

> <PUBCHEM_IUPAC_SYSTEMATIC_NAME>
methyl 4-[(E)-2-[1-[(4-chlorophenyl)methyl]benzimidazol-2-yl]ethenyl]benzoate

> <PUBCHEM_IUPAC_TRADITIONAL_NAME>
4-[(E)-2-[1-(4-chlorobenzyl)benzimidazol-2-yl]vinyl]benzoic acid methyl ester

> <PUBCHEM_IUPAC_INCHI>
InChI=1S/C24H19ClN2O2/c1-29-24(28)19-11-6-17(7-12-19)10-15-23-26-21-4-2-3-5-22(21)27(23)16-18-8-13-20(25)14-9-18/h2-15H,16H2,1H3/b15-10+

> <PUBCHEM_IUPAC_INCHIKEY>
XBIIFHQGMIKLAD-XNTDXEJSSA-N

> <PUBCHEM_XLOGP3_AA>
5.8

> <PUBCHEM_EXACT_MASS>
402.1135055

> <PUBCHEM_MOLECULAR_FORMULA>
C24H19ClN2O2

> <PUBCHEM_MOLECULAR_WEIGHT>
402.9

> <PUBCHEM_OPENEYE_CAN_SMILES>
COC(=O)C1=CC=C(C=C1)C=CC2=NC3=CC=CC=C3N2CC4=CC=C(C=C4)Cl

> <PUBCHEM_OPENEYE_ISO_SMILES>
COC(=O)C1=CC=C(C=C1)/C=C/C2=NC3=CC=CC=C3N2CC4=CC=C(C=C4)Cl

> <PUBCHEM_CACTVS_TPSA>
44.1

> <PUBCHEM_MONOISOTOPIC_WEIGHT>
402.1135055

> <PUBCHEM_TOTAL_CHARGE>
0

> <PUBCHEM_HEAVY_ATOM_COUNT>
29

> <PUBCHEM_ATOM_DEF_STEREO_COUNT>
0

> <PUBCHEM_ATOM_UDEF_STEREO_COUNT>
0

> <PUBCHEM_BOND_DEF_STEREO_COUNT>
1

> <PUBCHEM_BOND_UDEF_STEREO_COUNT>
0

> <PUBCHEM_ISOTOPIC_ATOM_COUNT>
0

> <PUBCHEM_COMPONENT_COUNT>
1

> <PUBCHEM_CACTVS_TAUTO_COUNT>
-1

> <PUBCHEM_COORDINATE_TYPE>
1
5
255

> <PUBCHEM_BONDANNOTATIONS>
10  15  8
10  16  8
11  14  8
12  17  8
14  17  8
15  20  8
16  21  8
19  23  8
19  24  8
20  22  8
21  22  8
23  26  8
24  27  8
25  26  8
25  27  8
4  6  8
4  8  8
5  8  8
5  9  8
6  11  8
6  9  8
9  12  8

$$$$
