11224758
  -OEChem-09292322252D

 69 72  0     1  0  0  0  0  0999 V2000
    2.8660   -2.5173    0.0000 S   0  0  0  0  0  0  0  0  0  0  0  0
    8.0622    2.4827    0.0000 O   0  0  0  0  0  0  0  0  0  0  0  0
    6.3301   -2.5173    0.0000 N   0  0  0  0  0  0  0  0  0  0  0  0
    4.5981   -3.5173    0.0000 N   0  0  0  0  0  0  0  0  0  0  0  0
    9.7942    2.4827    0.0000 N   0  0  0  0  0  0  0  0  0  0  0  0
    5.4641   -2.0173    0.0000 C   0  0  0  0  0  0  0  0  0  0  0  0
    6.3301   -3.5173    0.0000 C   0  0  0  0  0  0  0  0  0  0  0  0
    9.7942    3.4827    0.0000 C   0  0  3  0  0  0  0  0  0  0  0  0
    7.1962   -2.0173    0.0000 C   0  0  0  0  0  0  0  0  0  0  0  0
    4.5981   -2.5173    0.0000 C   0  0  0  0  0  0  0  0  0  0  0  0
    5.4641   -4.0173    0.0000 C   0  0  0  0  0  0  0  0  0  0  0  0
    8.9282    3.9827    0.0000 C   0  0  0  0  0  0  0  0  0  0  0  0
    8.9282    4.9827    0.0000 C   0  0  0  0  0  0  0  0  0  0  0  0
    7.1962   -1.0173    0.0000 C   0  0  0  0  0  0  0  0  0  0  0  0
   10.6603    3.9827    0.0000 C   0  0  0  0  0  0  0  0  0  0  0  0
    9.7942    5.4827    0.0000 C   0  0  0  0  0  0  0  0  0  0  0  0
   10.6603    4.9827    0.0000 C   0  0  0  0  0  0  0  0  0  0  0  0
    8.0622   -0.5173    0.0000 C   0  0  0  0  0  0  0  0  0  0  0  0
    8.0622    0.4827    0.0000 C   0  0  0  0  0  0  0  0  0  0  0  0
    3.7320   -4.0173    0.0000 C   0  0  0  0  0  0  0  0  0  0  0  0
    8.9282    0.9827    0.0000 C   0  0  0  0  0  0  0  0  0  0  0  0
    8.9282    1.9827    0.0000 C   0  0  0  0  0  0  0  0  0  0  0  0
   11.5542    3.4480    0.0000 C   0  0  0  0  0  0  0  0  0  0  0  0
   11.5542    5.5173    0.0000 C   0  0  0  0  0  0  0  0  0  0  0  0
    2.8660   -3.5173    0.0000 C   0  0  0  0  0  0  0  0  0  0  0  0
   12.4603    3.9618    0.0000 C   0  0  0  0  0  0  0  0  0  0  0  0
   12.4603    5.0035    0.0000 C   0  0  0  0  0  0  0  0  0  0  0  0
    3.7320   -5.0173    0.0000 C   0  0  0  0  0  0  0  0  0  0  0  0
    2.0000   -4.0173    0.0000 C   0  0  0  0  0  0  0  0  0  0  0  0
    2.8660   -5.5173    0.0000 C   0  0  0  0  0  0  0  0  0  0  0  0
    2.0000   -5.0173    0.0000 C   0  0  0  0  0  0  0  0  0  0  0  0
    2.0000   -2.0173    0.0000 C   0  0  0  0  0  0  0  0  0  0  0  0
    5.8626   -1.5424    0.0000 H   0  0  0  0  0  0  0  0  0  0  0  0
    5.0656   -1.5424    0.0000 H   0  0  0  0  0  0  0  0  0  0  0  0
    6.5422   -4.0999    0.0000 H   0  0  0  0  0  0  0  0  0  0  0  0
    6.9407   -3.4097    0.0000 H   0  0  0  0  0  0  0  0  0  0  0  0
    9.2573    3.1727    0.0000 H   0  0  0  0  0  0  0  0  0  0  0  0
    7.4082   -2.5999    0.0000 H   0  0  0  0  0  0  0  0  0  0  0  0
    7.8067   -1.9097    0.0000 H   0  0  0  0  0  0  0  0  0  0  0  0
    4.3860   -1.9347    0.0000 H   0  0  0  0  0  0  0  0  0  0  0  0
    3.9875   -2.6250    0.0000 H   0  0  0  0  0  0  0  0  0  0  0  0
    5.0656   -4.4923    0.0000 H   0  0  0  0  0  0  0  0  0  0  0  0
    5.8626   -4.4923    0.0000 H   0  0  0  0  0  0  0  0  0  0  0  0
    8.3176    4.0903    0.0000 H   0  0  0  0  0  0  0  0  0  0  0  0
    8.7162    3.4001    0.0000 H   0  0  0  0  0  0  0  0  0  0  0  0
    8.7162    5.5653    0.0000 H   0  0  0  0  0  0  0  0  0  0  0  0
    8.3176    4.8750    0.0000 H   0  0  0  0  0  0  0  0  0  0  0  0
    6.9841   -0.4347    0.0000 H   0  0  0  0  0  0  0  0  0  0  0  0
    6.5856   -1.1250    0.0000 H   0  0  0  0  0  0  0  0  0  0  0  0
   10.1928    5.9576    0.0000 H   0  0  0  0  0  0  0  0  0  0  0  0
    9.3957    5.9576    0.0000 H   0  0  0  0  0  0  0  0  0  0  0  0
    8.2742   -1.0999    0.0000 H   0  0  0  0  0  0  0  0  0  0  0  0
    8.6728   -0.4097    0.0000 H   0  0  0  0  0  0  0  0  0  0  0  0
    7.8501    1.0653    0.0000 H   0  0  0  0  0  0  0  0  0  0  0  0
    7.4516    0.3750    0.0000 H   0  0  0  0  0  0  0  0  0  0  0  0
   10.3312    2.1727    0.0000 H   0  0  0  0  0  0  0  0  0  0  0  0
    9.1403    0.4001    0.0000 H   0  0  0  0  0  0  0  0  0  0  0  0
    9.5388    1.0903    0.0000 H   0  0  0  0  0  0  0  0  0  0  0  0
   11.5470    2.8280    0.0000 H   0  0  0  0  0  0  0  0  0  0  0  0
   11.5470    6.1373    0.0000 H   0  0  0  0  0  0  0  0  0  0  0  0
   12.9960    3.6498    0.0000 H   0  0  0  0  0  0  0  0  0  0  0  0
   12.9960    5.3156    0.0000 H   0  0  0  0  0  0  0  0  0  0  0  0
    4.2690   -5.3273    0.0000 H   0  0  0  0  0  0  0  0  0  0  0  0
    1.4631   -3.7073    0.0000 H   0  0  0  0  0  0  0  0  0  0  0  0
    2.8660   -6.1373    0.0000 H   0  0  0  0  0  0  0  0  0  0  0  0
    1.4631   -5.3273    0.0000 H   0  0  0  0  0  0  0  0  0  0  0  0
    2.3100   -1.4804    0.0000 H   0  0  0  0  0  0  0  0  0  0  0  0
    1.4631   -1.7073    0.0000 H   0  0  0  0  0  0  0  0  0  0  0  0
    1.6900   -2.5543    0.0000 H   0  0  0  0  0  0  0  0  0  0  0  0
  1 25  1  0  0  0  0
  1 32  1  0  0  0  0
  2 22  2  0  0  0  0
  3  6  1  0  0  0  0
  3  7  1  0  0  0  0
  3  9  1  0  0  0  0
  4 10  1  0  0  0  0
  4 11  1  0  0  0  0
  4 20  1  0  0  0  0
  5  8  1  0  0  0  0
  5 22  1  0  0  0  0
  5 56  1  0  0  0  0
  6 10  1  0  0  0  0
  6 33  1  0  0  0  0
  6 34  1  0  0  0  0
  7 11  1  0  0  0  0
  7 35  1  0  0  0  0
  7 36  1  0  0  0  0
  8 12  1  0  0  0  0
  8 15  1  0  0  0  0
  8 37  1  0  0  0  0
  9 14  1  0  0  0  0
  9 38  1  0  0  0  0
  9 39  1  0  0  0  0
 10 40  1  0  0  0  0
 10 41  1  0  0  0  0
 11 42  1  0  0  0  0
 11 43  1  0  0  0  0
 12 13  1  0  0  0  0
 12 44  1  0  0  0  0
 12 45  1  0  0  0  0
 13 16  1  0  0  0  0
 13 46  1  0  0  0  0
 13 47  1  0  0  0  0
 14 18  1  0  0  0  0
 14 48  1  0  0  0  0
 14 49  1  0  0  0  0
 15 17  1  0  0  0  0
 15 23  2  0  0  0  0
 16 17  1  0  0  0  0
 16 50  1  0  0  0  0
 16 51  1  0  0  0  0
 17 24  2  0  0  0  0
 18 19  1  0  0  0  0
 18 52  1  0  0  0  0
 18 53  1  0  0  0  0
 19 21  1  0  0  0  0
 19 54  1  0  0  0  0
 19 55  1  0  0  0  0
 20 25  1  0  0  0  0
 20 28  2  0  0  0  0
 21 22  1  0  0  0  0
 21 57  1  0  0  0  0
 21 58  1  0  0  0  0
 23 26  1  0  0  0  0
 23 59  1  0  0  0  0
 24 27  1  0  0  0  0
 24 60  1  0  0  0  0
 25 29  2  0  0  0  0
 26 27  2  0  0  0  0
 26 61  1  0  0  0  0
 27 62  1  0  0  0  0
 28 30  1  0  0  0  0
 28 63  1  0  0  0  0
 29 31  1  0  0  0  0
 29 64  1  0  0  0  0
 30 31  2  0  0  0  0
 30 65  1  0  0  0  0
 31 66  1  0  0  0  0
 32 67  1  0  0  0  0
 32 68  1  0  0  0  0
 32 69  1  0  0  0  0
M  END
> <PUBCHEM_COMPOUND_CID>
11224758

> <PUBCHEM_COMPOUND_CANONICALIZED>
1

> <PUBCHEM_CACTVS_COMPLEXITY>
565

> <PUBCHEM_CACTVS_HBOND_ACCEPTOR>
4

> <PUBCHEM_CACTVS_HBOND_DONOR>
1

> <PUBCHEM_CACTVS_ROTATABLE_BOND>
9

> <PUBCHEM_CACTVS_SUBSKEYS>
AAADcfB7IABAAAAAAAAAAAAAAAAAAAAAAAA8YMEAAAAAAADBQAAAHgQQAAAADCjB2ASywYPAAAiIAiVSUACCAAAhChAIiJ0IZIgIYDLgkZGUIAhglgDIyAcYiIAOgAAAAAAQAQAAAACAACQCAAAAAAAAAA==

> <PUBCHEM_IUPAC_OPENEYE_NAME>
6-[4-(2-methylsulfanylphenyl)piperazin-1-yl]-N-tetralin-1-yl-hexanamide

> <PUBCHEM_IUPAC_CAS_NAME>
6-[4-[2-(methylthio)phenyl]-1-piperazinyl]-N-(1,2,3,4-tetrahydronaphthalen-1-yl)hexanamide

> <PUBCHEM_IUPAC_NAME_MARKUP>
6-[4-(2-methylsulfanylphenyl)piperazin-1-yl]-<I>N</I>-(1,2,3,4-tetrahydronaphthalen-1-yl)hexanamide

> <PUBCHEM_IUPAC_NAME>
6-[4-(2-methylsulfanylphenyl)piperazin-1-yl]-N-(1,2,3,4-tetrahydronaphthalen-1-yl)hexanamide

> <PUBCHEM_IUPAC_SYSTEMATIC_NAME>
6-[4-(2-methylsulfanylphenyl)piperazin-1-yl]-N-(1,2,3,4-tetrahydronaphthalen-1-yl)hexanamide

> <PUBCHEM_IUPAC_TRADITIONAL_NAME>
6-[4-[2-(methylthio)phenyl]piperazino]-N-tetralin-1-yl-hexanamide

> <PUBCHEM_IUPAC_INCHI>
InChI=1S/C27H37N3OS/c1-32-26-15-7-6-14-25(26)30-20-18-29(19-21-30)17-8-2-3-16-27(31)28-24-13-9-11-22-10-4-5-12-23(22)24/h4-7,10,12,14-15,24H,2-3,8-9,11,13,16-21H2,1H3,(H,28,31)

> <PUBCHEM_IUPAC_INCHIKEY>
JNBBJUHCODFLEG-UHFFFAOYSA-N

> <PUBCHEM_XLOGP3_AA>
5

> <PUBCHEM_EXACT_MASS>
451.26573399

> <PUBCHEM_MOLECULAR_FORMULA>
C27H37N3OS

> <PUBCHEM_MOLECULAR_WEIGHT>
451.7

> <PUBCHEM_OPENEYE_CAN_SMILES>
CSC1=CC=CC=C1N2CCN(CC2)CCCCCC(=O)NC3CCCC4=CC=CC=C34

> <PUBCHEM_OPENEYE_ISO_SMILES>
CSC1=CC=CC=C1N2CCN(CC2)CCCCCC(=O)NC3CCCC4=CC=CC=C34

> <PUBCHEM_CACTVS_TPSA>
60.9

> <PUBCHEM_MONOISOTOPIC_WEIGHT>
451.26573399

> <PUBCHEM_TOTAL_CHARGE>
0

> <PUBCHEM_HEAVY_ATOM_COUNT>
32

> <PUBCHEM_ATOM_DEF_STEREO_COUNT>
0

> <PUBCHEM_ATOM_UDEF_STEREO_COUNT>
1

> <PUBCHEM_BOND_DEF_STEREO_COUNT>
0

> <PUBCHEM_BOND_UDEF_STEREO_COUNT>
0

> <PUBCHEM_ISOTOPIC_ATOM_COUNT>
0

> <PUBCHEM_COMPONENT_COUNT>
1

> <PUBCHEM_CACTVS_TAUTO_COUNT>
2

> <PUBCHEM_COORDINATE_TYPE>
1
5
255

> <PUBCHEM_BONDANNOTATIONS>
15  17  8
15  23  8
17  24  8
20  25  8
20  28  8
23  26  8
24  27  8
25  29  8
26  27  8
28  30  8
29  31  8
30  31  8
8  5  3

$$$$
