155525431
  -OEChem-09292322072D

 40 42  0     0  0  0  0  0  0999 V2000
    2.8660   -5.2500    0.0000 Cl  0  0  0  0  0  0  0  0  0  0  0  0
    4.5981    1.7500    0.0000 O   0  0  0  0  0  0  0  0  0  0  0  0
    2.8660    0.7500    0.0000 N   0  0  0  0  0  0  0  0  0  0  0  0
    2.8660   -1.2500    0.0000 N   0  0  0  0  0  0  0  0  0  0  0  0
    3.7320   -2.7500    0.0000 N   0  0  0  0  0  0  0  0  0  0  0  0
    3.7320    3.2500    0.0000 N   0  0  0  0  0  0  0  0  0  0  0  0
    5.4641    5.2500    0.0000 N   0  0  0  0  0  0  0  0  0  0  0  0
    6.3301    3.7500    0.0000 N   0  0  0  0  0  0  0  0  0  0  0  0
    2.0000    0.2500    0.0000 C   0  0  0  0  0  0  0  0  0  0  0  0
    3.7320    0.2500    0.0000 C   0  0  0  0  0  0  0  0  0  0  0  0
    2.0000   -0.7500    0.0000 C   0  0  0  0  0  0  0  0  0  0  0  0
    3.7320   -0.7500    0.0000 C   0  0  0  0  0  0  0  0  0  0  0  0
    2.8660    1.7500    0.0000 C   0  0  0  0  0  0  0  0  0  0  0  0
    2.8660   -2.2500    0.0000 C   0  0  0  0  0  0  0  0  0  0  0  0
    3.7320    2.2500    0.0000 C   0  0  0  0  0  0  0  0  0  0  0  0
    2.0000   -2.7500    0.0000 C   0  0  0  0  0  0  0  0  0  0  0  0
    2.0000   -3.7500    0.0000 C   0  0  0  0  0  0  0  0  0  0  0  0
    3.7320   -3.7500    0.0000 C   0  0  0  0  0  0  0  0  0  0  0  0
    2.8660   -4.2500    0.0000 C   0  0  0  0  0  0  0  0  0  0  0  0
    4.5981    3.7500    0.0000 C   0  0  0  0  0  0  0  0  0  0  0  0
    4.5981    4.7500    0.0000 C   0  0  0  0  0  0  0  0  0  0  0  0
    5.4641    3.2500    0.0000 C   0  0  0  0  0  0  0  0  0  0  0  0
    6.3301    4.7500    0.0000 C   0  0  0  0  0  0  0  0  0  0  0  0
    1.7880    0.8326    0.0000 H   0  0  0  0  0  0  0  0  0  0  0  0
    1.3894    0.1423    0.0000 H   0  0  0  0  0  0  0  0  0  0  0  0
    4.3426    0.1423    0.0000 H   0  0  0  0  0  0  0  0  0  0  0  0
    3.9441    0.8326    0.0000 H   0  0  0  0  0  0  0  0  0  0  0  0
    1.3894   -0.6423    0.0000 H   0  0  0  0  0  0  0  0  0  0  0  0
    1.7880   -1.3326    0.0000 H   0  0  0  0  0  0  0  0  0  0  0  0
    3.9441   -1.3326    0.0000 H   0  0  0  0  0  0  0  0  0  0  0  0
    4.3426   -0.6423    0.0000 H   0  0  0  0  0  0  0  0  0  0  0  0
    2.6540    2.3326    0.0000 H   0  0  0  0  0  0  0  0  0  0  0  0
    2.2554    1.6423    0.0000 H   0  0  0  0  0  0  0  0  0  0  0  0
    1.4631   -2.4400    0.0000 H   0  0  0  0  0  0  0  0  0  0  0  0
    3.1951    3.5600    0.0000 H   0  0  0  0  0  0  0  0  0  0  0  0
    1.4631   -4.0600    0.0000 H   0  0  0  0  0  0  0  0  0  0  0  0
    4.2690   -4.0600    0.0000 H   0  0  0  0  0  0  0  0  0  0  0  0
    4.0611    5.0600    0.0000 H   0  0  0  0  0  0  0  0  0  0  0  0
    5.4641    2.6300    0.0000 H   0  0  0  0  0  0  0  0  0  0  0  0
    6.8671    5.0600    0.0000 H   0  0  0  0  0  0  0  0  0  0  0  0
  1 19  1  0  0  0  0
  2 15  2  0  0  0  0
  3  9  1  0  0  0  0
  3 10  1  0  0  0  0
  3 13  1  0  0  0  0
  4 11  1  0  0  0  0
  4 12  1  0  0  0  0
  4 14  1  0  0  0  0
  5 14  2  0  0  0  0
  5 18  1  0  0  0  0
  6 15  1  0  0  0  0
  6 20  1  0  0  0  0
  6 35  1  0  0  0  0
  7 21  2  0  0  0  0
  7 23  1  0  0  0  0
  8 22  1  0  0  0  0
  8 23  2  0  0  0  0
  9 11  1  0  0  0  0
  9 24  1  0  0  0  0
  9 25  1  0  0  0  0
 10 12  1  0  0  0  0
 10 26  1  0  0  0  0
 10 27  1  0  0  0  0
 11 28  1  0  0  0  0
 11 29  1  0  0  0  0
 12 30  1  0  0  0  0
 12 31  1  0  0  0  0
 13 15  1  0  0  0  0
 13 32  1  0  0  0  0
 13 33  1  0  0  0  0
 14 16  1  0  0  0  0
 16 17  2  0  0  0  0
 16 34  1  0  0  0  0
 17 19  1  0  0  0  0
 17 36  1  0  0  0  0
 18 19  2  0  0  0  0
 18 37  1  0  0  0  0
 20 21  1  0  0  0  0
 20 22  2  0  0  0  0
 21 38  1  0  0  0  0
 22 39  1  0  0  0  0
 23 40  1  0  0  0  0
M  END
> <PUBCHEM_COMPOUND_CID>
155525431

> <PUBCHEM_COMPOUND_CANONICALIZED>
1

> <PUBCHEM_CACTVS_COMPLEXITY>
384

> <PUBCHEM_CACTVS_HBOND_ACCEPTOR>
6

> <PUBCHEM_CACTVS_HBOND_DONOR>
1

> <PUBCHEM_CACTVS_ROTATABLE_BOND>
4

> <PUBCHEM_CACTVS_SUBSKEYS>
AAADceBzoAAEAAAAAAAAAAAAAAAAAAAAAAAsWLAAAAAAAAAB4AAAHgIQAAAACArBkiQ98JfIEACoADd3dACCgCkxF6AJ2CC4dpiIaOLB2/HUJAholALIyCYQAAAAAAAAAAAAAAAAAAAAAAAAAAAAAAAAAA==

> <PUBCHEM_IUPAC_OPENEYE_NAME>
2-[4-(5-chloro-2-pyridyl)piperazin-1-yl]-N-pyrimidin-5-yl-acetamide

> <PUBCHEM_IUPAC_CAS_NAME>
2-[4-(5-chloro-2-pyridinyl)-1-piperazinyl]-N-(5-pyrimidinyl)acetamide

> <PUBCHEM_IUPAC_NAME_MARKUP>
2-[4-(5-chloropyridin-2-yl)piperazin-1-yl]-<I>N</I>-pyrimidin-5-ylacetamide

> <PUBCHEM_IUPAC_NAME>
2-[4-(5-chloropyridin-2-yl)piperazin-1-yl]-N-pyrimidin-5-ylacetamide

> <PUBCHEM_IUPAC_SYSTEMATIC_NAME>
2-[4-(5-chloranylpyridin-2-yl)piperazin-1-yl]-N-pyrimidin-5-yl-ethanamide

> <PUBCHEM_IUPAC_TRADITIONAL_NAME>
2-[4-(5-chloro-2-pyridyl)piperazino]-N-(5-pyrimidyl)acetamide

> <PUBCHEM_IUPAC_INCHI>
InChI=1S/C15H17ClN6O/c16-12-1-2-14(19-7-12)22-5-3-21(4-6-22)10-15(23)20-13-8-17-11-18-9-13/h1-2,7-9,11H,3-6,10H2,(H,20,23)

> <PUBCHEM_IUPAC_INCHIKEY>
ZZGIOJNVAOUXRN-UHFFFAOYSA-N

> <PUBCHEM_XLOGP3_AA>
0.9

> <PUBCHEM_EXACT_MASS>
332.1152369

> <PUBCHEM_MOLECULAR_FORMULA>
C15H17ClN6O

> <PUBCHEM_MOLECULAR_WEIGHT>
332.79

> <PUBCHEM_OPENEYE_CAN_SMILES>
C1CN(CCN1CC(=O)NC2=CN=CN=C2)C3=NC=C(C=C3)Cl

> <PUBCHEM_OPENEYE_ISO_SMILES>
C1CN(CCN1CC(=O)NC2=CN=CN=C2)C3=NC=C(C=C3)Cl

> <PUBCHEM_CACTVS_TPSA>
74.2

> <PUBCHEM_MONOISOTOPIC_WEIGHT>
332.1152369

> <PUBCHEM_TOTAL_CHARGE>
0

> <PUBCHEM_HEAVY_ATOM_COUNT>
23

> <PUBCHEM_ATOM_DEF_STEREO_COUNT>
0

> <PUBCHEM_ATOM_UDEF_STEREO_COUNT>
0

> <PUBCHEM_BOND_DEF_STEREO_COUNT>
0

> <PUBCHEM_BOND_UDEF_STEREO_COUNT>
0

> <PUBCHEM_ISOTOPIC_ATOM_COUNT>
0

> <PUBCHEM_COMPONENT_COUNT>
1

> <PUBCHEM_CACTVS_TAUTO_COUNT>
-1

> <PUBCHEM_COORDINATE_TYPE>
1
5
255

> <PUBCHEM_BONDANNOTATIONS>
14  16  8
16  17  8
17  19  8
18  19  8
20  21  8
20  22  8
5  14  8
5  18  8
7  21  8
7  23  8
8  22  8
8  23  8

$$$$
