166629988
  -OEChem-09292322442D

 56 60  0     1  0  0  0  0  0999 V2000
    6.2619    4.2704    0.0000 S   0  0  0  0  0  0  0  0  0  0  0  0
   10.1352   -5.2704    0.0000 F   0  0  0  0  0  0  0  0  0  0  0  0
    6.2619    3.2704    0.0000 O   0  0  0  0  0  0  0  0  0  0  0  0
    6.2619    5.2704    0.0000 O   0  0  0  0  0  0  0  0  0  0  0  0
    4.6783    3.4656    0.0000 O   0  0  0  0  0  0  0  0  0  0  0  0
   11.0388   -1.8376    0.0000 O   0  0  0  0  0  0  0  0  0  0  0  0
    8.0983    1.8217    0.0000 N   0  0  3  0  0  0  0  0  0  0  0  0
    7.2619    4.2704    0.0000 N   0  0  0  0  0  0  0  0  0  0  0  0
   10.4524   -1.0349    0.0000 N   0  0  0  0  0  0  0  0  0  0  0  0
    8.9643    2.3217    0.0000 C   0  0  2  0  0  0  0  0  0  0  0  0
    7.7619    3.4044    0.0000 C   0  0  1  0  0  0  0  0  0  0  0  0
    8.7564    3.2998    0.0000 C   0  0  0  0  0  0  0  0  0  0  0  0
    7.3551    2.4908    0.0000 C   0  0  0  0  0  0  0  0  0  0  0  0
    7.9938    0.8272    0.0000 C   0  0  0  0  0  0  0  0  0  0  0  0
    9.8779    1.9149    0.0000 C   0  0  0  0  0  0  0  0  0  0  0  0
    8.8028    0.2394    0.0000 C   0  0  0  0  0  0  0  0  0  0  0  0
    8.6982   -0.7552    0.0000 C   0  0  0  0  0  0  0  0  0  0  0  0
    5.2619    4.2704    0.0000 C   0  0  0  0  0  0  0  0  0  0  0  0
    9.5073   -1.3429    0.0000 C   0  0  0  0  0  0  0  0  0  0  0  0
    4.6783    5.0751    0.0000 C   0  0  0  0  0  0  0  0  0  0  0  0
    9.5064   -2.3370    0.0000 C   0  0  0  0  0  0  0  0  0  0  0  0
    3.7320    4.7704    0.0000 C   0  0  0  0  0  0  0  0  0  0  0  0
    3.7320    3.7704    0.0000 C   0  0  0  0  0  0  0  0  0  0  0  0
   10.4580   -2.6444    0.0000 C   0  0  0  0  0  0  0  0  0  0  0  0
    8.7644   -3.0074    0.0000 C   0  0  0  0  0  0  0  0  0  0  0  0
    2.8660    5.2704    0.0000 C   0  0  0  0  0  0  0  0  0  0  0  0
    2.8660    3.2704    0.0000 C   0  0  0  0  0  0  0  0  0  0  0  0
   10.6676   -3.6222    0.0000 C   0  0  0  0  0  0  0  0  0  0  0  0
    8.9740   -3.9852    0.0000 C   0  0  0  0  0  0  0  0  0  0  0  0
    2.0000    4.7704    0.0000 C   0  0  0  0  0  0  0  0  0  0  0  0
    2.0000    3.7704    0.0000 C   0  0  0  0  0  0  0  0  0  0  0  0
    9.9256   -4.2926    0.0000 C   0  0  0  0  0  0  0  0  0  0  0  0
    8.9968    1.7025    0.0000 H   0  0  0  0  0  0  0  0  0  0  0  0
    7.1427    3.3719    0.0000 H   0  0  0  0  0  0  0  0  0  0  0  0
    9.3730    3.3646    0.0000 H   0  0  0  0  0  0  0  0  0  0  0  0
    8.7564    3.9198    0.0000 H   0  0  0  0  0  0  0  0  0  0  0  0
    6.8182    2.8008    0.0000 H   0  0  0  0  0  0  0  0  0  0  0  0
    6.9907    1.9892    0.0000 H   0  0  0  0  0  0  0  0  0  0  0  0
    7.3978    0.9980    0.0000 H   0  0  0  0  0  0  0  0  0  0  0  0
    7.7220    0.2699    0.0000 H   0  0  0  0  0  0  0  0  0  0  0  0
    9.6257    1.3485    0.0000 H   0  0  0  0  0  0  0  0  0  0  0  0
   10.4443    1.6628    0.0000 H   0  0  0  0  0  0  0  0  0  0  0  0
   10.1300    2.4813    0.0000 H   0  0  0  0  0  0  0  0  0  0  0  0
    7.5719    4.8073    0.0000 H   0  0  0  0  0  0  0  0  0  0  0  0
    9.3988    0.0685    0.0000 H   0  0  0  0  0  0  0  0  0  0  0  0
    9.0746    0.7966    0.0000 H   0  0  0  0  0  0  0  0  0  0  0  0
    8.1023   -0.5843    0.0000 H   0  0  0  0  0  0  0  0  0  0  0  0
    8.4265   -1.3124    0.0000 H   0  0  0  0  0  0  0  0  0  0  0  0
    4.8709    5.6644    0.0000 H   0  0  0  0  0  0  0  0  0  0  0  0
    8.1744   -2.8169    0.0000 H   0  0  0  0  0  0  0  0  0  0  0  0
    2.8660    5.8904    0.0000 H   0  0  0  0  0  0  0  0  0  0  0  0
    2.8660    2.6504    0.0000 H   0  0  0  0  0  0  0  0  0  0  0  0
   11.2576   -3.8127    0.0000 H   0  0  0  0  0  0  0  0  0  0  0  0
    8.5140   -4.4009    0.0000 H   0  0  0  0  0  0  0  0  0  0  0  0
    1.4631    5.0804    0.0000 H   0  0  0  0  0  0  0  0  0  0  0  0
    1.4631    3.4604    0.0000 H   0  0  0  0  0  0  0  0  0  0  0  0
  1  3  2  0  0  0  0
  1  4  2  0  0  0  0
  1  8  1  0  0  0  0
  1 18  1  0  0  0  0
  2 32  1  0  0  0  0
  5 18  1  0  0  0  0
  5 23  1  0  0  0  0
  6  9  1  0  0  0  0
  6 24  1  0  0  0  0
  7 10  1  0  0  0  0
  7 13  1  0  0  0  0
  7 14  1  0  0  0  0
 11  8  1  1  0  0  0
  8 44  1  0  0  0  0
  9 19  2  0  0  0  0
 10 12  1  0  0  0  0
 10 15  1  6  0  0  0
 10 33  1  0  0  0  0
 11 12  1  0  0  0  0
 11 13  1  0  0  0  0
 11 34  1  0  0  0  0
 12 35  1  0  0  0  0
 12 36  1  0  0  0  0
 13 37  1  0  0  0  0
 13 38  1  0  0  0  0
 14 16  1  0  0  0  0
 14 39  1  0  0  0  0
 14 40  1  0  0  0  0
 15 41  1  0  0  0  0
 15 42  1  0  0  0  0
 15 43  1  0  0  0  0
 16 17  1  0  0  0  0
 16 45  1  0  0  0  0
 16 46  1  0  0  0  0
 17 19  1  0  0  0  0
 17 47  1  0  0  0  0
 17 48  1  0  0  0  0
 18 20  2  0  0  0  0
 19 21  1  0  0  0  0
 20 22  1  0  0  0  0
 20 49  1  0  0  0  0
 21 24  2  0  0  0  0
 21 25  1  0  0  0  0
 22 23  1  0  0  0  0
 22 26  2  0  0  0  0
 23 27  2  0  0  0  0
 24 28  1  0  0  0  0
 25 29  2  0  0  0  0
 25 50  1  0  0  0  0
 26 30  1  0  0  0  0
 26 51  1  0  0  0  0
 27 31  1  0  0  0  0
 27 52  1  0  0  0  0
 28 32  2  0  0  0  0
 28 53  1  0  0  0  0
 29 32  1  0  0  0  0
 29 54  1  0  0  0  0
 30 31  2  0  0  0  0
 30 55  1  0  0  0  0
 31 56  1  0  0  0  0
M  END
> <PUBCHEM_COMPOUND_CID>
166629988

> <PUBCHEM_COMPOUND_CANONICALIZED>
1

> <PUBCHEM_CACTVS_COMPLEXITY>
750

> <PUBCHEM_CACTVS_HBOND_ACCEPTOR>
8

> <PUBCHEM_CACTVS_HBOND_DONOR>
1

> <PUBCHEM_CACTVS_ROTATABLE_BOND>
7

> <PUBCHEM_CACTVS_SUBSKEYS>
AAADceB7OQBAAAAAAAAAAAAAAAAAAWLEgAAwYAAAAAAAAFgB/gAAHwQUQAAADCzB3gwyh9NQBEKpA6RyQnDCCBAkIAAomLk+TNoMZrqE9ZuWOaDm0BmI6ceYyKCOAAAAAAAIAAAAAAAAABAAAAAAAAAAAA==

> <PUBCHEM_IUPAC_OPENEYE_NAME>
N-[(3S,5S)-1-[3-(6-fluoro-1,2-benzoxazol-3-yl)propyl]-5-methyl-pyrrolidin-3-yl]benzofuran-2-sulfonamide

> <PUBCHEM_IUPAC_CAS_NAME>
N-[(3S,5S)-1-[3-(6-fluoro-1,2-benzoxazol-3-yl)propyl]-5-methyl-3-pyrrolidinyl]-2-benzofuransulfonamide

> <PUBCHEM_IUPAC_NAME_MARKUP>
<I>N</I>-[(3<I>S</I>,5<I>S</I>)-1-[3-(6-fluoro-1,2-benzoxazol-3-yl)propyl]-5-methylpyrrolidin-3-yl]-1-benzofuran-2-sulfonamide

> <PUBCHEM_IUPAC_NAME>
N-[(3S,5S)-1-[3-(6-fluoro-1,2-benzoxazol-3-yl)propyl]-5-methylpyrrolidin-3-yl]-1-benzofuran-2-sulfonamide

> <PUBCHEM_IUPAC_SYSTEMATIC_NAME>
N-[(3S,5S)-1-[3-(6-fluoranyl-1,2-benzoxazol-3-yl)propyl]-5-methyl-pyrrolidin-3-yl]-1-benzofuran-2-sulfonamide

> <PUBCHEM_IUPAC_TRADITIONAL_NAME>
N-[(3S,5S)-1-[3-(6-fluoroindoxazen-3-yl)propyl]-5-methyl-pyrrolidin-3-yl]benzofuran-2-sulfonamide

> <PUBCHEM_IUPAC_INCHI>
InChI=1S/C23H24FN3O4S/c1-15-11-18(26-32(28,29)23-12-16-5-2-3-7-21(16)30-23)14-27(15)10-4-6-20-19-9-8-17(24)13-22(19)31-25-20/h2-3,5,7-9,12-13,15,18,26H,4,6,10-11,14H2,1H3/t15-,18-/m0/s1

> <PUBCHEM_IUPAC_INCHIKEY>
GBSOVNOVWIQDRP-YJBOKZPZSA-N

> <PUBCHEM_XLOGP3_AA>
4.5

> <PUBCHEM_EXACT_MASS>
457.14715559

> <PUBCHEM_MOLECULAR_FORMULA>
C23H24FN3O4S

> <PUBCHEM_MOLECULAR_WEIGHT>
457.5

> <PUBCHEM_OPENEYE_CAN_SMILES>
CC1CC(CN1CCCC2=NOC3=C2C=CC(=C3)F)NS(=O)(=O)C4=CC5=CC=CC=C5O4

> <PUBCHEM_OPENEYE_ISO_SMILES>
C[C@H]1C[C@@H](CN1CCCC2=NOC3=C2C=CC(=C3)F)NS(=O)(=O)C4=CC5=CC=CC=C5O4

> <PUBCHEM_CACTVS_TPSA>
97

> <PUBCHEM_MONOISOTOPIC_WEIGHT>
457.14715559

> <PUBCHEM_TOTAL_CHARGE>
0

> <PUBCHEM_HEAVY_ATOM_COUNT>
32

> <PUBCHEM_ATOM_DEF_STEREO_COUNT>
2

> <PUBCHEM_ATOM_UDEF_STEREO_COUNT>
0

> <PUBCHEM_BOND_DEF_STEREO_COUNT>
0

> <PUBCHEM_BOND_UDEF_STEREO_COUNT>
0

> <PUBCHEM_ISOTOPIC_ATOM_COUNT>
0

> <PUBCHEM_COMPONENT_COUNT>
1

> <PUBCHEM_CACTVS_TAUTO_COUNT>
-1

> <PUBCHEM_COORDINATE_TYPE>
1
5
255

> <PUBCHEM_BONDANNOTATIONS>
10  15  6
18  20  8
19  21  8
20  22  8
21  24  8
21  25  8
22  23  8
22  26  8
23  27  8
24  28  8
25  29  8
26  30  8
27  31  8
28  32  8
29  32  8
30  31  8
5  18  8
5  23  8
6  24  8
6  9  8
11  8  5
9  19  8

$$$$
