10414769
  -OEChem-09292322212D

 76 79  0     1  0  0  0  0  0999 V2000
   16.7329   -2.5922    0.0000 S   0  0  0  0  0  0  0  0  0  0  0  0
   15.8728   -2.0822    0.0000 O   0  0  0  0  0  0  0  0  0  0  0  0
   16.2230   -3.4524    0.0000 O   0  0  0  0  0  0  0  0  0  0  0  0
   17.2429   -1.7320    0.0000 O   0  0  0  0  0  0  0  0  0  0  0  0
    7.1962    1.9524    0.0000 O   0  0  0  0  0  0  0  0  0  0  0  0
   12.3923    0.9524    0.0000 N   0  0  3  0  0  0  0  0  0  0  0  0
    8.0622    0.4524    0.0000 N   0  0  0  0  0  0  0  0  0  0  0  0
   13.2583    0.4524    0.0000 C   0  0  3  0  0  0  0  0  0  0  0  0
   13.2583   -0.5476    0.0000 C   0  0  0  0  0  0  0  0  0  0  0  0
   14.1244    0.9524    0.0000 C   0  0  0  0  0  0  0  0  0  0  0  0
   14.1244   -1.0476    0.0000 C   0  0  0  0  0  0  0  0  0  0  0  0
   14.9904    0.4524    0.0000 C   0  0  0  0  0  0  0  0  0  0  0  0
   14.9904   -0.5476    0.0000 C   0  0  0  0  0  0  0  0  0  0  0  0
   11.5263    0.4524    0.0000 C   0  0  0  0  0  0  0  0  0  0  0  0
   12.3923    1.9524    0.0000 C   0  0  0  0  0  0  0  0  0  0  0  0
   10.6603    0.9524    0.0000 C   0  0  0  0  0  0  0  0  0  0  0  0
   15.8843   -1.0823    0.0000 C   0  0  0  0  0  0  0  0  0  0  0  0
   11.5263    2.4524    0.0000 C   0  0  0  0  0  0  0  0  0  0  0  0
   15.8843    0.9870    0.0000 C   0  0  0  0  0  0  0  0  0  0  0  0
    9.7942    0.4524    0.0000 C   0  0  0  0  0  0  0  0  0  0  0  0
   16.7904   -0.5684    0.0000 C   0  0  0  0  0  0  0  0  0  0  0  0
   16.7904    0.4732    0.0000 C   0  0  0  0  0  0  0  0  0  0  0  0
   11.5263    3.4524    0.0000 C   0  0  0  0  0  0  0  0  0  0  0  0
    8.9282    0.9524    0.0000 C   0  0  0  0  0  0  0  0  0  0  0  0
   17.5931   -3.1022    0.0000 C   0  0  0  0  0  0  0  0  0  0  0  0
    7.1962    0.9524    0.0000 C   0  0  0  0  0  0  0  0  0  0  0  0
    6.3301    0.4524    0.0000 C   0  0  0  0  0  0  0  0  0  0  0  0
    6.3301   -0.5476    0.0000 C   0  0  0  0  0  0  0  0  0  0  0  0
    5.4641    0.9524    0.0000 C   0  0  0  0  0  0  0  0  0  0  0  0
    4.5981   -0.5476    0.0000 C   0  0  0  0  0  0  0  0  0  0  0  0
    5.4641   -1.0476    0.0000 C   0  0  0  0  0  0  0  0  0  0  0  0
    4.5981    0.4524    0.0000 C   0  0  0  0  0  0  0  0  0  0  0  0
    3.7320   -1.0476    0.0000 C   0  0  0  0  0  0  0  0  0  0  0  0
    3.7320   -2.0476    0.0000 C   0  0  0  0  0  0  0  0  0  0  0  0
    2.8660   -0.5476    0.0000 C   0  0  0  0  0  0  0  0  0  0  0  0
    2.8660   -2.5476    0.0000 C   0  0  0  0  0  0  0  0  0  0  0  0
    2.0000   -1.0476    0.0000 C   0  0  0  0  0  0  0  0  0  0  0  0
    2.0000   -2.0476    0.0000 C   0  0  0  0  0  0  0  0  0  0  0  0
   13.2583    1.0724    0.0000 H   0  0  0  0  0  0  0  0  0  0  0  0
   12.6477   -0.4400    0.0000 H   0  0  0  0  0  0  0  0  0  0  0  0
   13.0463   -1.1302    0.0000 H   0  0  0  0  0  0  0  0  0  0  0  0
   14.5229    1.4273    0.0000 H   0  0  0  0  0  0  0  0  0  0  0  0
   13.7258    1.4273    0.0000 H   0  0  0  0  0  0  0  0  0  0  0  0
   13.7258   -1.5226    0.0000 H   0  0  0  0  0  0  0  0  0  0  0  0
   14.5229   -1.5226    0.0000 H   0  0  0  0  0  0  0  0  0  0  0  0
   11.1278   -0.0226    0.0000 H   0  0  0  0  0  0  0  0  0  0  0  0
   11.9248   -0.0226    0.0000 H   0  0  0  0  0  0  0  0  0  0  0  0
   13.0029    1.8447    0.0000 H   0  0  0  0  0  0  0  0  0  0  0  0
   12.6044    2.5350    0.0000 H   0  0  0  0  0  0  0  0  0  0  0  0
   11.0588    1.4273    0.0000 H   0  0  0  0  0  0  0  0  0  0  0  0
   10.2617    1.4273    0.0000 H   0  0  0  0  0  0  0  0  0  0  0  0
   10.9157    2.5600    0.0000 H   0  0  0  0  0  0  0  0  0  0  0  0
   11.3142    1.8698    0.0000 H   0  0  0  0  0  0  0  0  0  0  0  0
   15.8772    1.6070    0.0000 H   0  0  0  0  0  0  0  0  0  0  0  0
    9.3957   -0.0226    0.0000 H   0  0  0  0  0  0  0  0  0  0  0  0
   10.1928   -0.0226    0.0000 H   0  0  0  0  0  0  0  0  0  0  0  0
   17.3261   -0.8805    0.0000 H   0  0  0  0  0  0  0  0  0  0  0  0
   17.3261    0.7853    0.0000 H   0  0  0  0  0  0  0  0  0  0  0  0
   12.1463    3.4524    0.0000 H   0  0  0  0  0  0  0  0  0  0  0  0
   11.5263    4.0724    0.0000 H   0  0  0  0  0  0  0  0  0  0  0  0
   10.9063    3.4524    0.0000 H   0  0  0  0  0  0  0  0  0  0  0  0
    9.3267    1.4273    0.0000 H   0  0  0  0  0  0  0  0  0  0  0  0
    8.5297    1.4273    0.0000 H   0  0  0  0  0  0  0  0  0  0  0  0
    8.0622   -0.1676    0.0000 H   0  0  0  0  0  0  0  0  0  0  0  0
   17.2769   -3.6355    0.0000 H   0  0  0  0  0  0  0  0  0  0  0  0
   18.1264   -3.4184    0.0000 H   0  0  0  0  0  0  0  0  0  0  0  0
   17.9093   -2.5689    0.0000 H   0  0  0  0  0  0  0  0  0  0  0  0
    6.8671   -0.8576    0.0000 H   0  0  0  0  0  0  0  0  0  0  0  0
    5.4641    1.5724    0.0000 H   0  0  0  0  0  0  0  0  0  0  0  0
    5.4641   -1.6676    0.0000 H   0  0  0  0  0  0  0  0  0  0  0  0
    4.0611    0.7624    0.0000 H   0  0  0  0  0  0  0  0  0  0  0  0
    4.2690   -2.3576    0.0000 H   0  0  0  0  0  0  0  0  0  0  0  0
    2.8660    0.0724    0.0000 H   0  0  0  0  0  0  0  0  0  0  0  0
    2.8660   -3.1676    0.0000 H   0  0  0  0  0  0  0  0  0  0  0  0
    1.4631   -0.7376    0.0000 H   0  0  0  0  0  0  0  0  0  0  0  0
    1.4631   -2.3576    0.0000 H   0  0  0  0  0  0  0  0  0  0  0  0
  1  2  1  0  0  0  0
  1  3  2  0  0  0  0
  1  4  2  0  0  0  0
  1 25  1  0  0  0  0
  2 17  1  0  0  0  0
  5 26  2  0  0  0  0
  6  8  1  0  0  0  0
  6 14  1  0  0  0  0
  6 15  1  0  0  0  0
  7 24  1  0  0  0  0
  7 26  1  0  0  0  0
  7 64  1  0  0  0  0
  8  9  1  0  0  0  0
  8 10  1  0  0  0  0
  8 39  1  0  0  0  0
  9 11  1  0  0  0  0
  9 40  1  0  0  0  0
  9 41  1  0  0  0  0
 10 12  1  0  0  0  0
 10 42  1  0  0  0  0
 10 43  1  0  0  0  0
 11 13  1  0  0  0  0
 11 44  1  0  0  0  0
 11 45  1  0  0  0  0
 12 13  2  0  0  0  0
 12 19  1  0  0  0  0
 13 17  1  0  0  0  0
 14 16  1  0  0  0  0
 14 46  1  0  0  0  0
 14 47  1  0  0  0  0
 15 18  1  0  0  0  0
 15 48  1  0  0  0  0
 15 49  1  0  0  0  0
 16 20  1  0  0  0  0
 16 50  1  0  0  0  0
 16 51  1  0  0  0  0
 17 21  2  0  0  0  0
 18 23  1  0  0  0  0
 18 52  1  0  0  0  0
 18 53  1  0  0  0  0
 19 22  2  0  0  0  0
 19 54  1  0  0  0  0
 20 24  1  0  0  0  0
 20 55  1  0  0  0  0
 20 56  1  0  0  0  0
 21 22  1  0  0  0  0
 21 57  1  0  0  0  0
 22 58  1  0  0  0  0
 23 59  1  0  0  0  0
 23 60  1  0  0  0  0
 23 61  1  0  0  0  0
 24 62  1  0  0  0  0
 24 63  1  0  0  0  0
 25 65  1  0  0  0  0
 25 66  1  0  0  0  0
 25 67  1  0  0  0  0
 26 27  1  0  0  0  0
 27 28  2  0  0  0  0
 27 29  1  0  0  0  0
 28 31  1  0  0  0  0
 28 68  1  0  0  0  0
 29 32  2  0  0  0  0
 29 69  1  0  0  0  0
 30 31  2  0  0  0  0
 30 32  1  0  0  0  0
 30 33  1  0  0  0  0
 31 70  1  0  0  0  0
 32 71  1  0  0  0  0
 33 34  2  0  0  0  0
 33 35  1  0  0  0  0
 34 36  1  0  0  0  0
 34 72  1  0  0  0  0
 35 37  2  0  0  0  0
 35 73  1  0  0  0  0
 36 38  2  0  0  0  0
 36 74  1  0  0  0  0
 37 38  1  0  0  0  0
 37 75  1  0  0  0  0
 38 76  1  0  0  0  0
M  END
> <PUBCHEM_COMPOUND_CID>
10414769

> <PUBCHEM_COMPOUND_CANONICALIZED>
1

> <PUBCHEM_CACTVS_COMPLEXITY>
814

> <PUBCHEM_CACTVS_HBOND_ACCEPTOR>
5

> <PUBCHEM_CACTVS_HBOND_DONOR>
1

> <PUBCHEM_CACTVS_ROTATABLE_BOND>
12

> <PUBCHEM_CACTVS_SUBSKEYS>
AAADcfB7OABAAAAAAAAAAAAAAAAAAAAAAAAwYMGAAAAAAADBUAAAHgQQAAAADCzBmASyBoPAAAKIAiFSEHCCAAAkIAAIiIEODMgIJjKAlROEMQhk1hGIiYeY2POOwAABAAAYAACQAAKAADAAAAAAAAAAAA==

> <PUBCHEM_IUPAC_OPENEYE_NAME>
[2-[4-[(4-phenylbenzoyl)amino]butyl-propyl-amino]tetralin-5-yl] methanesulfonate

> <PUBCHEM_IUPAC_CAS_NAME>
methanesulfonic acid [6-[4-[[oxo-(4-phenylphenyl)methyl]amino]butyl-propylamino]-5,6,7,8-tetrahydronaphthalen-1-yl] ester

> <PUBCHEM_IUPAC_NAME_MARKUP>
[6-[4-[(4-phenylbenzoyl)amino]butyl-propylamino]-5,6,7,8-tetrahydronaphthalen-1-yl] methanesulfonate

> <PUBCHEM_IUPAC_NAME>
[6-[4-[(4-phenylbenzoyl)amino]butyl-propylamino]-5,6,7,8-tetrahydronaphthalen-1-yl] methanesulfonate

> <PUBCHEM_IUPAC_SYSTEMATIC_NAME>
[6-[4-[(4-phenylphenyl)carbonylamino]butyl-propyl-amino]-5,6,7,8-tetrahydronaphthalen-1-yl] methanesulfonate

> <PUBCHEM_IUPAC_TRADITIONAL_NAME>
methanesulfonic acid [2-[4-[(4-phenylbenzoyl)amino]butyl-propyl-amino]tetralin-5-yl] ester

> <PUBCHEM_IUPAC_INCHI>
InChI=1S/C31H38N2O4S/c1-3-21-33(28-18-19-29-27(23-28)12-9-13-30(29)37-38(2,35)36)22-8-7-20-32-31(34)26-16-14-25(15-17-26)24-10-5-4-6-11-24/h4-6,9-17,28H,3,7-8,18-23H2,1-2H3,(H,32,34)

> <PUBCHEM_IUPAC_INCHIKEY>
HYHZGIWTSKSXKP-UHFFFAOYSA-N

> <PUBCHEM_XLOGP3_AA>
6.4

> <PUBCHEM_EXACT_MASS>
534.25522887

> <PUBCHEM_MOLECULAR_FORMULA>
C31H38N2O4S

> <PUBCHEM_MOLECULAR_WEIGHT>
534.7

> <PUBCHEM_OPENEYE_CAN_SMILES>
CCCN(CCCCNC(=O)C1=CC=C(C=C1)C2=CC=CC=C2)C3CCC4=C(C3)C=CC=C4OS(=O)(=O)C

> <PUBCHEM_OPENEYE_ISO_SMILES>
CCCN(CCCCNC(=O)C1=CC=C(C=C1)C2=CC=CC=C2)C3CCC4=C(C3)C=CC=C4OS(=O)(=O)C

> <PUBCHEM_CACTVS_TPSA>
84.1

> <PUBCHEM_MONOISOTOPIC_WEIGHT>
534.25522887

> <PUBCHEM_TOTAL_CHARGE>
0

> <PUBCHEM_HEAVY_ATOM_COUNT>
38

> <PUBCHEM_ATOM_DEF_STEREO_COUNT>
0

> <PUBCHEM_ATOM_UDEF_STEREO_COUNT>
1

> <PUBCHEM_BOND_DEF_STEREO_COUNT>
0

> <PUBCHEM_BOND_UDEF_STEREO_COUNT>
0

> <PUBCHEM_ISOTOPIC_ATOM_COUNT>
0

> <PUBCHEM_COMPONENT_COUNT>
1

> <PUBCHEM_CACTVS_TAUTO_COUNT>
-1

> <PUBCHEM_COORDINATE_TYPE>
1
5
255

> <PUBCHEM_BONDANNOTATIONS>
12  13  8
12  19  8
13  17  8
17  21  8
19  22  8
21  22  8
27  28  8
27  29  8
28  31  8
29  32  8
30  31  8
30  32  8
33  34  8
33  35  8
34  36  8
35  37  8
36  38  8
37  38  8
8  6  3

$$$$
