45268120
  -OEChem-09292322282D

 56 59  0     0  0  0  0  0  0999 V2000
    8.0406   -0.8630    0.0000 O   0  0  0  0  0  0  0  0  0  0  0  0
    5.2619    1.7631    0.0000 N   0  0  0  0  0  0  0  0  0  0  0  0
    7.7619    0.8971    0.0000 N   0  0  0  0  0  0  0  0  0  0  0  0
    9.3007    0.3971    0.0000 N   0  0  0  0  0  0  0  0  0  0  0  0
    6.2619    1.7631    0.0000 C   0  0  0  0  0  0  0  0  0  0  0  0
    6.7619    0.8971    0.0000 C   0  0  0  0  0  0  0  0  0  0  0  0
    8.3497    1.7061    0.0000 C   0  0  0  0  0  0  0  0  0  0  0  0
    4.6783    0.9584    0.0000 C   0  0  0  0  0  0  0  0  0  0  0  0
    4.6783    2.5678    0.0000 C   0  0  0  0  0  0  0  0  0  0  0  0
    9.3007    1.3971    0.0000 C   0  0  0  0  0  0  0  0  0  0  0  0
    3.7320    1.2631    0.0000 C   0  0  0  0  0  0  0  0  0  0  0  0
    3.7320    2.2631    0.0000 C   0  0  0  0  0  0  0  0  0  0  0  0
    8.3497    0.0880    0.0000 C   0  0  0  0  0  0  0  0  0  0  0  0
   12.5368   -1.9541    0.0000 C   0  0  0  0  0  0  0  0  0  0  0  0
   10.1097   -0.1907    0.0000 C   0  0  0  0  0  0  0  0  0  0  0  0
   11.7278   -1.3663    0.0000 C   0  0  0  0  0  0  0  0  0  0  0  0
    2.8660    0.7631    0.0000 C   0  0  0  0  0  0  0  0  0  0  0  0
    2.8660    2.7631    0.0000 C   0  0  0  0  0  0  0  0  0  0  0  0
   11.0233    0.2160    0.0000 C   0  0  0  0  0  0  0  0  0  0  0  0
   10.0052   -1.1852    0.0000 C   0  0  0  0  0  0  0  0  0  0  0  0
   11.8323   -0.3718    0.0000 C   0  0  0  0  0  0  0  0  0  0  0  0
   10.8142   -1.7730    0.0000 C   0  0  0  0  0  0  0  0  0  0  0  0
   13.3458   -2.5419    0.0000 C   0  0  0  0  0  0  0  0  0  0  0  0
   13.1246   -1.1451    0.0000 C   0  0  0  0  0  0  0  0  0  0  0  0
   11.9490   -2.7631    0.0000 C   0  0  0  0  0  0  0  0  0  0  0  0
    2.0000    1.2631    0.0000 C   0  0  0  0  0  0  0  0  0  0  0  0
    2.0000    2.2631    0.0000 C   0  0  0  0  0  0  0  0  0  0  0  0
    6.8445    1.9751    0.0000 H   0  0  0  0  0  0  0  0  0  0  0  0
    6.1542    2.3737    0.0000 H   0  0  0  0  0  0  0  0  0  0  0  0
    6.1793    0.6850    0.0000 H   0  0  0  0  0  0  0  0  0  0  0  0
    6.8695    0.2865    0.0000 H   0  0  0  0  0  0  0  0  0  0  0  0
    8.6018    2.2725    0.0000 H   0  0  0  0  0  0  0  0  0  0  0  0
    7.8127    2.0161    0.0000 H   0  0  0  0  0  0  0  0  0  0  0  0
    4.4272    0.3915    0.0000 H   0  0  0  0  0  0  0  0  0  0  0  0
    5.2156    0.6491    0.0000 H   0  0  0  0  0  0  0  0  0  0  0  0
    5.2156    2.8770    0.0000 H   0  0  0  0  0  0  0  0  0  0  0  0
    4.4272    3.1347    0.0000 H   0  0  0  0  0  0  0  0  0  0  0  0
    9.9173    1.3323    0.0000 H   0  0  0  0  0  0  0  0  0  0  0  0
    9.4296    2.0035    0.0000 H   0  0  0  0  0  0  0  0  0  0  0  0
    2.8660    0.1431    0.0000 H   0  0  0  0  0  0  0  0  0  0  0  0
    2.8660    3.3831    0.0000 H   0  0  0  0  0  0  0  0  0  0  0  0
   11.0881    0.8326    0.0000 H   0  0  0  0  0  0  0  0  0  0  0  0
    9.4388   -1.4374    0.0000 H   0  0  0  0  0  0  0  0  0  0  0  0
   12.3987   -0.1196    0.0000 H   0  0  0  0  0  0  0  0  0  0  0  0
   10.7494   -2.3896    0.0000 H   0  0  0  0  0  0  0  0  0  0  0  0
   12.9814   -3.0434    0.0000 H   0  0  0  0  0  0  0  0  0  0  0  0
   13.8474   -2.9063    0.0000 H   0  0  0  0  0  0  0  0  0  0  0  0
   13.7102   -2.0403    0.0000 H   0  0  0  0  0  0  0  0  0  0  0  0
   13.6262   -1.5095    0.0000 H   0  0  0  0  0  0  0  0  0  0  0  0
   13.4890   -0.6435    0.0000 H   0  0  0  0  0  0  0  0  0  0  0  0
   12.6230   -0.7806    0.0000 H   0  0  0  0  0  0  0  0  0  0  0  0
   11.4474   -2.3987    0.0000 H   0  0  0  0  0  0  0  0  0  0  0  0
   11.5846   -3.2647    0.0000 H   0  0  0  0  0  0  0  0  0  0  0  0
   12.4506   -3.1275    0.0000 H   0  0  0  0  0  0  0  0  0  0  0  0
    1.4631    0.9531    0.0000 H   0  0  0  0  0  0  0  0  0  0  0  0
    1.4631    2.5731    0.0000 H   0  0  0  0  0  0  0  0  0  0  0  0
  1 13  2  0  0  0  0
  2  5  1  0  0  0  0
  2  8  1  0  0  0  0
  2  9  1  0  0  0  0
  3  6  1  0  0  0  0
  3  7  1  0  0  0  0
  3 13  1  0  0  0  0
  4 10  1  0  0  0  0
  4 13  1  0  0  0  0
  4 15  1  0  0  0  0
  5  6  1  0  0  0  0
  5 28  1  0  0  0  0
  5 29  1  0  0  0  0
  6 30  1  0  0  0  0
  6 31  1  0  0  0  0
  7 10  1  0  0  0  0
  7 32  1  0  0  0  0
  7 33  1  0  0  0  0
  8 11  1  0  0  0  0
  8 34  1  0  0  0  0
  8 35  1  0  0  0  0
  9 12  1  0  0  0  0
  9 36  1  0  0  0  0
  9 37  1  0  0  0  0
 10 38  1  0  0  0  0
 10 39  1  0  0  0  0
 11 12  1  0  0  0  0
 11 17  2  0  0  0  0
 12 18  2  0  0  0  0
 14 16  1  0  0  0  0
 14 23  1  0  0  0  0
 14 24  1  0  0  0  0
 14 25  1  0  0  0  0
 15 19  2  0  0  0  0
 15 20  1  0  0  0  0
 16 21  2  0  0  0  0
 16 22  1  0  0  0  0
 17 26  1  0  0  0  0
 17 40  1  0  0  0  0
 18 27  1  0  0  0  0
 18 41  1  0  0  0  0
 19 21  1  0  0  0  0
 19 42  1  0  0  0  0
 20 22  2  0  0  0  0
 20 43  1  0  0  0  0
 21 44  1  0  0  0  0
 22 45  1  0  0  0  0
 23 46  1  0  0  0  0
 23 47  1  0  0  0  0
 23 48  1  0  0  0  0
 24 49  1  0  0  0  0
 24 50  1  0  0  0  0
 24 51  1  0  0  0  0
 25 52  1  0  0  0  0
 25 53  1  0  0  0  0
 25 54  1  0  0  0  0
 26 27  2  0  0  0  0
 26 55  1  0  0  0  0
 27 56  1  0  0  0  0
M  END
> <PUBCHEM_COMPOUND_CID>
45268120

> <PUBCHEM_COMPOUND_CANONICALIZED>
1

> <PUBCHEM_CACTVS_COMPLEXITY>
506

> <PUBCHEM_CACTVS_HBOND_ACCEPTOR>
2

> <PUBCHEM_CACTVS_HBOND_DONOR>
0

> <PUBCHEM_CACTVS_ROTATABLE_BOND>
5

> <PUBCHEM_CACTVS_SUBSKEYS>
AAADceB7IAAAAAAAAAAAAAAAAAAAAWLAAAAwYAAAAAAAAFgBQAAAHgAAAAAADgjBGAQzwIMAAACIAiRCUACCAAAhAgAIiAAIZIiIYCLAkZGUIAhohgLIyCcQgMAPiAAAAAAQAAAQAAAAACAAAAAAAAAAAA==

> <PUBCHEM_IUPAC_OPENEYE_NAME>
1-(4-tert-butylphenyl)-3-(2-isoindolin-2-ylethyl)imidazolidin-2-one

> <PUBCHEM_IUPAC_CAS_NAME>
1-(4-tert-butylphenyl)-3-[2-(1,3-dihydroisoindol-2-yl)ethyl]-2-imidazolidinone

> <PUBCHEM_IUPAC_NAME_MARKUP>
1-(4-<I>tert</I>-butylphenyl)-3-[2-(1,3-dihydroisoindol-2-yl)ethyl]imidazolidin-2-one

> <PUBCHEM_IUPAC_NAME>
1-(4-tert-butylphenyl)-3-[2-(1,3-dihydroisoindol-2-yl)ethyl]imidazolidin-2-one

> <PUBCHEM_IUPAC_SYSTEMATIC_NAME>
1-(4-tert-butylphenyl)-3-[2-(1,3-dihydroisoindol-2-yl)ethyl]imidazolidin-2-one

> <PUBCHEM_IUPAC_TRADITIONAL_NAME>
1-(4-tert-butylphenyl)-3-(2-isoindolin-2-ylethyl)-2-imidazolidinone

> <PUBCHEM_IUPAC_INCHI>
InChI=1S/C23H29N3O/c1-23(2,3)20-8-10-21(11-9-20)26-15-14-25(22(26)27)13-12-24-16-18-6-4-5-7-19(18)17-24/h4-11H,12-17H2,1-3H3

> <PUBCHEM_IUPAC_INCHIKEY>
ZQIADMORWXCKPH-UHFFFAOYSA-N

> <PUBCHEM_XLOGP3_AA>
3.8

> <PUBCHEM_EXACT_MASS>
363.231062557

> <PUBCHEM_MOLECULAR_FORMULA>
C23H29N3O

> <PUBCHEM_MOLECULAR_WEIGHT>
363.5

> <PUBCHEM_OPENEYE_CAN_SMILES>
CC(C)(C)C1=CC=C(C=C1)N2CCN(C2=O)CCN3CC4=CC=CC=C4C3

> <PUBCHEM_OPENEYE_ISO_SMILES>
CC(C)(C)C1=CC=C(C=C1)N2CCN(C2=O)CCN3CC4=CC=CC=C4C3

> <PUBCHEM_CACTVS_TPSA>
26.8

> <PUBCHEM_MONOISOTOPIC_WEIGHT>
363.231062557

> <PUBCHEM_TOTAL_CHARGE>
0

> <PUBCHEM_HEAVY_ATOM_COUNT>
27

> <PUBCHEM_ATOM_DEF_STEREO_COUNT>
0

> <PUBCHEM_ATOM_UDEF_STEREO_COUNT>
0

> <PUBCHEM_BOND_DEF_STEREO_COUNT>
0

> <PUBCHEM_BOND_UDEF_STEREO_COUNT>
0

> <PUBCHEM_ISOTOPIC_ATOM_COUNT>
0

> <PUBCHEM_COMPONENT_COUNT>
1

> <PUBCHEM_CACTVS_TAUTO_COUNT>
-1

> <PUBCHEM_COORDINATE_TYPE>
1
5
255

> <PUBCHEM_BONDANNOTATIONS>
11  12  8
11  17  8
12  18  8
15  19  8
15  20  8
16  21  8
16  22  8
17  26  8
18  27  8
19  21  8
20  22  8
26  27  8

$$$$
