90644074
  -OEChem-09292322352D

 55 58  0     0  0  0  0  0  0999 V2000
    8.4993    2.5344    0.0000 S   0  0  0  0  0  0  0  0  0  0  0  0
    4.6783   -5.1907    0.0000 O   0  0  0  0  0  0  0  0  0  0  0  0
    9.4498    2.2237    0.0000 O   0  0  0  0  0  0  0  0  0  0  0  0
    7.5487    2.8450    0.0000 O   0  0  0  0  0  0  0  0  0  0  0  0
    5.6103   -0.7296    0.0000 N   0  0  0  0  0  0  0  0  0  0  0  0
    4.9889   -2.6307    0.0000 N   0  0  0  0  0  0  0  0  0  0  0  0
    8.1886    1.5838    0.0000 N   0  0  0  0  0  0  0  0  0  0  0  0
    5.2619   -4.3859    0.0000 N   0  0  0  0  0  0  0  0  0  0  0  0
    4.6318   -0.9359    0.0000 C   0  0  0  0  0  0  0  0  0  0  0  0
    6.2781   -1.4739    0.0000 C   0  0  0  0  0  0  0  0  0  0  0  0
    4.3211   -1.8864    0.0000 C   0  0  0  0  0  0  0  0  0  0  0  0
    5.9674   -2.4245    0.0000 C   0  0  0  0  0  0  0  0  0  0  0  0
    5.9209    0.2209    0.0000 C   0  0  0  0  0  0  0  0  0  0  0  0
    6.8994    0.4271    0.0000 C   0  0  0  0  0  0  0  0  0  0  0  0
    4.6783   -3.5812    0.0000 C   0  0  0  0  0  0  0  0  0  0  0  0
    7.2101    1.3776    0.0000 C   0  0  0  0  0  0  0  0  0  0  0  0
    3.7320   -3.8859    0.0000 C   0  0  0  0  0  0  0  0  0  0  0  0
    3.7320   -4.8859    0.0000 C   0  0  0  0  0  0  0  0  0  0  0  0
    2.8660   -3.3859    0.0000 C   0  0  0  0  0  0  0  0  0  0  0  0
    8.8099    3.4849    0.0000 C   0  0  0  0  0  0  0  0  0  0  0  0
    2.8660   -5.3859    0.0000 C   0  0  0  0  0  0  0  0  0  0  0  0
    2.0000   -3.8859    0.0000 C   0  0  0  0  0  0  0  0  0  0  0  0
    2.0000   -4.8859    0.0000 C   0  0  0  0  0  0  0  0  0  0  0  0
    9.7884    3.6911    0.0000 C   0  0  0  0  0  0  0  0  0  0  0  0
    8.1421    4.2292    0.0000 C   0  0  0  0  0  0  0  0  0  0  0  0
   10.0991    4.6416    0.0000 C   0  0  0  0  0  0  0  0  0  0  0  0
    8.4527    5.1797    0.0000 C   0  0  0  0  0  0  0  0  0  0  0  0
    9.4312    5.3859    0.0000 C   0  0  0  0  0  0  0  0  0  0  0  0
   11.0776    4.8478    0.0000 C   0  0  0  0  0  0  0  0  0  0  0  0
    4.6112   -0.3162    0.0000 H   0  0  0  0  0  0  0  0  0  0  0  0
    4.0179   -0.8485    0.0000 H   0  0  0  0  0  0  0  0  0  0  0  0
    6.8250   -1.7660    0.0000 H   0  0  0  0  0  0  0  0  0  0  0  0
    6.6607   -0.9860    0.0000 H   0  0  0  0  0  0  0  0  0  0  0  0
    3.7742   -1.5944    0.0000 H   0  0  0  0  0  0  0  0  0  0  0  0
    3.9385   -2.3743    0.0000 H   0  0  0  0  0  0  0  0  0  0  0  0
    5.9880   -3.0441    0.0000 H   0  0  0  0  0  0  0  0  0  0  0  0
    6.5812   -2.5118    0.0000 H   0  0  0  0  0  0  0  0  0  0  0  0
    5.9004    0.8405    0.0000 H   0  0  0  0  0  0  0  0  0  0  0  0
    5.3071    0.3082    0.0000 H   0  0  0  0  0  0  0  0  0  0  0  0
    6.9200   -0.1926    0.0000 H   0  0  0  0  0  0  0  0  0  0  0  0
    7.5132    0.3398    0.0000 H   0  0  0  0  0  0  0  0  0  0  0  0
    7.1895    1.9973    0.0000 H   0  0  0  0  0  0  0  0  0  0  0  0
    6.5963    1.4650    0.0000 H   0  0  0  0  0  0  0  0  0  0  0  0
    8.6027    1.1224    0.0000 H   0  0  0  0  0  0  0  0  0  0  0  0
    2.8660   -2.7659    0.0000 H   0  0  0  0  0  0  0  0  0  0  0  0
    2.8660   -6.0059    0.0000 H   0  0  0  0  0  0  0  0  0  0  0  0
    1.4631   -3.5759    0.0000 H   0  0  0  0  0  0  0  0  0  0  0  0
    1.4631   -5.1959    0.0000 H   0  0  0  0  0  0  0  0  0  0  0  0
   10.2025    3.2296    0.0000 H   0  0  0  0  0  0  0  0  0  0  0  0
    7.5354    4.1013    0.0000 H   0  0  0  0  0  0  0  0  0  0  0  0
    8.0387    5.6412    0.0000 H   0  0  0  0  0  0  0  0  0  0  0  0
    9.6238    5.9752    0.0000 H   0  0  0  0  0  0  0  0  0  0  0  0
   11.2054    4.2412    0.0000 H   0  0  0  0  0  0  0  0  0  0  0  0
   11.6843    4.9757    0.0000 H   0  0  0  0  0  0  0  0  0  0  0  0
   10.9497    5.4545    0.0000 H   0  0  0  0  0  0  0  0  0  0  0  0
  1  3  2  0  0  0  0
  1  4  2  0  0  0  0
  1  7  1  0  0  0  0
  1 20  1  0  0  0  0
  2  8  1  0  0  0  0
  2 18  1  0  0  0  0
  5  9  1  0  0  0  0
  5 10  1  0  0  0  0
  5 13  1  0  0  0  0
  6 11  1  0  0  0  0
  6 12  1  0  0  0  0
  6 15  1  0  0  0  0
  7 16  1  0  0  0  0
  7 44  1  0  0  0  0
  8 15  2  0  0  0  0
  9 11  1  0  0  0  0
  9 30  1  0  0  0  0
  9 31  1  0  0  0  0
 10 12  1  0  0  0  0
 10 32  1  0  0  0  0
 10 33  1  0  0  0  0
 11 34  1  0  0  0  0
 11 35  1  0  0  0  0
 12 36  1  0  0  0  0
 12 37  1  0  0  0  0
 13 14  1  0  0  0  0
 13 38  1  0  0  0  0
 13 39  1  0  0  0  0
 14 16  1  0  0  0  0
 14 40  1  0  0  0  0
 14 41  1  0  0  0  0
 15 17  1  0  0  0  0
 16 42  1  0  0  0  0
 16 43  1  0  0  0  0
 17 18  1  0  0  0  0
 17 19  2  0  0  0  0
 18 21  2  0  0  0  0
 19 22  1  0  0  0  0
 19 45  1  0  0  0  0
 20 24  1  0  0  0  0
 20 25  2  0  0  0  0
 21 23  1  0  0  0  0
 21 46  1  0  0  0  0
 22 23  2  0  0  0  0
 22 47  1  0  0  0  0
 23 48  1  0  0  0  0
 24 26  2  0  0  0  0
 24 49  1  0  0  0  0
 25 27  1  0  0  0  0
 25 50  1  0  0  0  0
 26 28  1  0  0  0  0
 26 29  1  0  0  0  0
 27 28  2  0  0  0  0
 27 51  1  0  0  0  0
 28 52  1  0  0  0  0
 29 53  1  0  0  0  0
 29 54  1  0  0  0  0
 29 55  1  0  0  0  0
M  END
> <PUBCHEM_COMPOUND_CID>
90644074

> <PUBCHEM_COMPOUND_CANONICALIZED>
1

> <PUBCHEM_CACTVS_COMPLEXITY>
618

> <PUBCHEM_CACTVS_HBOND_ACCEPTOR>
7

> <PUBCHEM_CACTVS_HBOND_DONOR>
1

> <PUBCHEM_CACTVS_ROTATABLE_BOND>
7

> <PUBCHEM_CACTVS_SUBSKEYS>
AAADceB7sABAAAAAAAAAAAAAAAAAAWAAAAA8YIAAAAAAAFgB9AAAHgQUQAAADATB2gQzt9NQAAKpAqJyYnDCABAlIAApmLkuTNqIZrrA3ZOUMYhm0BvIyceYyCCOAAAAgAAIAAAAAAEAABAAAAAAAAAAAA==

> <PUBCHEM_IUPAC_OPENEYE_NAME>
N-[3-[4-(1,2-benzoxazol-3-yl)piperazin-1-yl]propyl]-3-methyl-benzenesulfonamide

> <PUBCHEM_IUPAC_CAS_NAME>
N-[3-[4-(1,2-benzoxazol-3-yl)-1-piperazinyl]propyl]-3-methylbenzenesulfonamide

> <PUBCHEM_IUPAC_NAME_MARKUP>
<I>N</I>-[3-[4-(1,2-benzoxazol-3-yl)piperazin-1-yl]propyl]-3-methylbenzenesulfonamide

> <PUBCHEM_IUPAC_NAME>
N-[3-[4-(1,2-benzoxazol-3-yl)piperazin-1-yl]propyl]-3-methylbenzenesulfonamide

> <PUBCHEM_IUPAC_SYSTEMATIC_NAME>
N-[3-[4-(1,2-benzoxazol-3-yl)piperazin-1-yl]propyl]-3-methyl-benzenesulfonamide

> <PUBCHEM_IUPAC_TRADITIONAL_NAME>
N-[3-(4-indoxazen-3-ylpiperazino)propyl]-3-methyl-benzenesulfonamide

> <PUBCHEM_IUPAC_INCHI>
InChI=1S/C21H26N4O3S/c1-17-6-4-7-18(16-17)29(26,27)22-10-5-11-24-12-14-25(15-13-24)21-19-8-2-3-9-20(19)28-23-21/h2-4,6-9,16,22H,5,10-15H2,1H3

> <PUBCHEM_IUPAC_INCHIKEY>
NYRDAOIKGSCMQF-UHFFFAOYSA-N

> <PUBCHEM_XLOGP3_AA>
3.4

> <PUBCHEM_EXACT_MASS>
414.17256188

> <PUBCHEM_MOLECULAR_FORMULA>
C21H26N4O3S

> <PUBCHEM_MOLECULAR_WEIGHT>
414.5

> <PUBCHEM_OPENEYE_CAN_SMILES>
CC1=CC(=CC=C1)S(=O)(=O)NCCCN2CCN(CC2)C3=NOC4=CC=CC=C43

> <PUBCHEM_OPENEYE_ISO_SMILES>
CC1=CC(=CC=C1)S(=O)(=O)NCCCN2CCN(CC2)C3=NOC4=CC=CC=C43

> <PUBCHEM_CACTVS_TPSA>
87.1

> <PUBCHEM_MONOISOTOPIC_WEIGHT>
414.17256188

> <PUBCHEM_TOTAL_CHARGE>
0

> <PUBCHEM_HEAVY_ATOM_COUNT>
29

> <PUBCHEM_ATOM_DEF_STEREO_COUNT>
0

> <PUBCHEM_ATOM_UDEF_STEREO_COUNT>
0

> <PUBCHEM_BOND_DEF_STEREO_COUNT>
0

> <PUBCHEM_BOND_UDEF_STEREO_COUNT>
0

> <PUBCHEM_ISOTOPIC_ATOM_COUNT>
0

> <PUBCHEM_COMPONENT_COUNT>
1

> <PUBCHEM_CACTVS_TAUTO_COUNT>
-1

> <PUBCHEM_COORDINATE_TYPE>
1
5
255

> <PUBCHEM_BONDANNOTATIONS>
15  17  8
17  18  8
17  19  8
18  21  8
19  22  8
2  18  8
2  8  8
20  24  8
20  25  8
21  23  8
22  23  8
24  26  8
25  27  8
26  28  8
27  28  8
8  15  8

$$$$
