44297472
  -OEChem-09292322222D

 58 60  0     1  0  0  0  0  0999 V2000
    3.7320   -0.8941    0.0000 S   0  0  0  0  0  0  0  0  0  0  0  0
    2.0000    0.1059    0.0000 F   0  0  0  0  0  0  0  0  0  0  0  0
    2.3660   -1.2602    0.0000 F   0  0  0  0  0  0  0  0  0  0  0  0
    3.3660    0.4719    0.0000 F   0  0  0  0  0  0  0  0  0  0  0  0
    4.5981   -1.3941    0.0000 O   0  0  0  0  0  0  0  0  0  0  0  0
    3.2320   -1.7602    0.0000 O   0  0  0  0  0  0  0  0  0  0  0  0
    4.2320   -0.0281    0.0000 O   0  0  0  0  0  0  0  0  0  0  0  0
   14.1961    0.0650    0.0000 O   0  0  0  0  0  0  0  0  0  0  0  0
    8.9962   -0.9150    0.0000 N   0  0  3  0  0  0  0  0  0  0  0  0
   13.3243   -1.4316    0.0000 N   0  0  0  0  0  0  0  0  0  0  0  0
    8.9962    0.1267    0.0000 C   0  0  0  0  0  0  0  0  0  0  0  0
    8.0901   -1.4288    0.0000 C   0  0  0  0  0  0  0  0  0  0  0  0
    8.0901    0.6405    0.0000 C   0  0  0  0  0  0  0  0  0  0  0  0
    9.8602   -1.4183    0.0000 C   0  0  0  0  0  0  0  0  0  0  0  0
    7.1962   -0.8941    0.0000 C   0  0  0  0  0  0  0  0  0  0  0  0
    7.1962    0.1059    0.0000 C   0  0  0  0  0  0  0  0  0  0  0  0
   10.7282   -0.9216    0.0000 C   0  0  0  0  0  0  0  0  0  0  0  0
   11.5923   -1.4250    0.0000 C   0  0  0  0  0  0  0  0  0  0  0  0
    6.3301   -1.3941    0.0000 C   0  0  0  0  0  0  0  0  0  0  0  0
    6.3301    0.6059    0.0000 C   0  0  0  0  0  0  0  0  0  0  0  0
    5.4641   -0.8941    0.0000 C   0  0  0  0  0  0  0  0  0  0  0  0
   12.4602   -0.9283    0.0000 C   0  0  0  0  0  0  0  0  0  0  0  0
    5.4641    0.1059    0.0000 C   0  0  0  0  0  0  0  0  0  0  0  0
   14.1923   -0.9350    0.0000 C   0  0  0  0  0  0  0  0  0  0  0  0
    2.8660   -0.3941    0.0000 C   0  0  0  0  0  0  0  0  0  0  0  0
   15.0564   -1.4383    0.0000 C   0  0  0  0  0  0  0  0  0  0  0  0
   15.9243   -0.9417    0.0000 C   0  0  0  0  0  0  0  0  0  0  0  0
   15.9282    0.0583    0.0000 C   0  0  0  0  0  0  0  0  0  0  0  0
   15.0641    0.5617    0.0000 C   0  0  0  0  0  0  0  0  0  0  0  0
   16.7961    0.5550    0.0000 C   0  0  0  0  0  0  0  0  0  0  0  0
   15.0679    1.5617    0.0000 C   0  0  0  0  0  0  0  0  0  0  0  0
   16.8000    1.5550    0.0000 C   0  0  0  0  0  0  0  0  0  0  0  0
   15.9359    2.0583    0.0000 C   0  0  0  0  0  0  0  0  0  0  0  0
    9.6070    0.0206    0.0000 H   0  0  0  0  0  0  0  0  0  0  0  0
    9.2052    0.7104    0.0000 H   0  0  0  0  0  0  0  0  0  0  0  0
    7.6855   -1.8986    0.0000 H   0  0  0  0  0  0  0  0  0  0  0  0
    8.4837   -1.9078    0.0000 H   0  0  0  0  0  0  0  0  0  0  0  0
    8.4837    1.1195    0.0000 H   0  0  0  0  0  0  0  0  0  0  0  0
    7.6855    1.1103    0.0000 H   0  0  0  0  0  0  0  0  0  0  0  0
    9.4599   -1.8917    0.0000 H   0  0  0  0  0  0  0  0  0  0  0  0
   10.2569   -1.8948    0.0000 H   0  0  0  0  0  0  0  0  0  0  0  0
   11.1286   -0.4482    0.0000 H   0  0  0  0  0  0  0  0  0  0  0  0
   10.3315   -0.4452    0.0000 H   0  0  0  0  0  0  0  0  0  0  0  0
   11.1919   -1.8984    0.0000 H   0  0  0  0  0  0  0  0  0  0  0  0
   11.9890   -1.9014    0.0000 H   0  0  0  0  0  0  0  0  0  0  0  0
    6.3301   -2.0141    0.0000 H   0  0  0  0  0  0  0  0  0  0  0  0
    6.3301    1.2259    0.0000 H   0  0  0  0  0  0  0  0  0  0  0  0
   12.8606   -0.4549    0.0000 H   0  0  0  0  0  0  0  0  0  0  0  0
   12.0635   -0.4518    0.0000 H   0  0  0  0  0  0  0  0  0  0  0  0
    4.9272    0.4159    0.0000 H   0  0  0  0  0  0  0  0  0  0  0  0
   13.3219   -2.0516    0.0000 H   0  0  0  0  0  0  0  0  0  0  0  0
   15.0540   -2.0583    0.0000 H   0  0  0  0  0  0  0  0  0  0  0  0
   16.4601   -1.2537    0.0000 H   0  0  0  0  0  0  0  0  0  0  0  0
   14.5259    0.2537    0.0000 H   0  0  0  0  0  0  0  0  0  0  0  0
   17.3319    0.2429    0.0000 H   0  0  0  0  0  0  0  0  0  0  0  0
   14.5322    1.8737    0.0000 H   0  0  0  0  0  0  0  0  0  0  0  0
   17.3381    1.8629    0.0000 H   0  0  0  0  0  0  0  0  0  0  0  0
   15.9383    2.6783    0.0000 H   0  0  0  0  0  0  0  0  0  0  0  0
  1  5  1  0  0  0  0
  1  6  2  0  0  0  0
  1  7  2  0  0  0  0
  1 25  1  0  0  0  0
  2 25  1  0  0  0  0
  3 25  1  0  0  0  0
  4 25  1  0  0  0  0
  5 21  1  0  0  0  0
  8 24  2  0  0  0  0
  9 11  1  0  0  0  0
  9 12  1  0  0  0  0
  9 14  1  0  0  0  0
 10 22  1  0  0  0  0
 10 24  1  0  0  0  0
 10 51  1  0  0  0  0
 11 13  1  0  0  0  0
 11 34  1  0  0  0  0
 11 35  1  0  0  0  0
 12 15  1  0  0  0  0
 12 36  1  0  0  0  0
 12 37  1  0  0  0  0
 13 16  1  0  0  0  0
 13 38  1  0  0  0  0
 13 39  1  0  0  0  0
 14 17  1  0  0  0  0
 14 40  1  0  0  0  0
 14 41  1  0  0  0  0
 15 16  2  0  0  0  0
 15 19  1  0  0  0  0
 16 20  1  0  0  0  0
 17 18  1  0  0  0  0
 17 42  1  0  0  0  0
 17 43  1  0  0  0  0
 18 22  1  0  0  0  0
 18 44  1  0  0  0  0
 18 45  1  0  0  0  0
 19 21  2  0  0  0  0
 19 46  1  0  0  0  0
 20 23  2  0  0  0  0
 20 47  1  0  0  0  0
 21 23  1  0  0  0  0
 22 48  1  0  0  0  0
 22 49  1  0  0  0  0
 23 50  1  0  0  0  0
 24 26  1  0  0  0  0
 26 27  2  0  0  0  0
 26 52  1  0  0  0  0
 27 28  1  0  0  0  0
 27 53  1  0  0  0  0
 28 29  2  0  0  0  0
 28 30  1  0  0  0  0
 29 31  1  0  0  0  0
 29 54  1  0  0  0  0
 30 32  2  0  0  0  0
 30 55  1  0  0  0  0
 31 33  2  0  0  0  0
 31 56  1  0  0  0  0
 32 33  1  0  0  0  0
 32 57  1  0  0  0  0
 33 58  1  0  0  0  0
M  END
> <PUBCHEM_COMPOUND_CID>
44297472

> <PUBCHEM_COMPOUND_CANONICALIZED>
1

> <PUBCHEM_CACTVS_COMPLEXITY>
761

> <PUBCHEM_CACTVS_HBOND_ACCEPTOR>
8

> <PUBCHEM_CACTVS_HBOND_DONOR>
1

> <PUBCHEM_CACTVS_ROTATABLE_BOND>
9

> <PUBCHEM_CACTVS_SUBSKEYS>
AAADceB7OYBAAAAAAAAAAAAAAAAAAAAAAAA8YIAAAAAAAACxQAAAHwQQAAAADATBmBQwBoPAAAKIAiFSEHCCAAAgIAAIiIAODMgIJiKAkROEMAhk1hGIiYewwJAOoAABAAAQAABAAAIAACAAAAAAAAAAAA==

> <PUBCHEM_IUPAC_OPENEYE_NAME>
[2-[4-[[(Z)-3-phenylprop-2-enoyl]amino]butyl]-3,4-dihydro-1H-isoquinolin-7-yl] trifluoromethanesulfonate

> <PUBCHEM_IUPAC_CAS_NAME>
trifluoromethanesulfonic acid [2-[4-[[(Z)-1-oxo-3-phenylprop-2-enyl]amino]butyl]-3,4-dihydro-1H-isoquinolin-7-yl] ester

> <PUBCHEM_IUPAC_NAME_MARKUP>
[2-[4-[[(<I>Z</I>)-3-phenylprop-2-enoyl]amino]butyl]-3,4-dihydro-1<I>H</I>-isoquinolin-7-yl] trifluoromethanesulfonate

> <PUBCHEM_IUPAC_NAME>
[2-[4-[[(Z)-3-phenylprop-2-enoyl]amino]butyl]-3,4-dihydro-1H-isoquinolin-7-yl] trifluoromethanesulfonate

> <PUBCHEM_IUPAC_SYSTEMATIC_NAME>
[2-[4-[[(Z)-3-phenylprop-2-enoyl]amino]butyl]-3,4-dihydro-1H-isoquinolin-7-yl] tris(fluoranyl)methanesulfonate

> <PUBCHEM_IUPAC_TRADITIONAL_NAME>
trifluoromethanesulfonic acid [2-[4-[[(Z)-3-phenylacryloyl]amino]butyl]-3,4-dihydro-1H-isoquinolin-7-yl] ester

> <PUBCHEM_IUPAC_INCHI>
InChI=1S/C23H25F3N2O4S/c24-23(25,26)33(30,31)32-21-10-9-19-12-15-28(17-20(19)16-21)14-5-4-13-27-22(29)11-8-18-6-2-1-3-7-18/h1-3,6-11,16H,4-5,12-15,17H2,(H,27,29)/b11-8-

> <PUBCHEM_IUPAC_INCHIKEY>
QZPFGFWFHKJBJX-FLIBITNWSA-N

> <PUBCHEM_XLOGP3_AA>
4.7

> <PUBCHEM_EXACT_MASS>
482.14871294

> <PUBCHEM_MOLECULAR_FORMULA>
C23H25F3N2O4S

> <PUBCHEM_MOLECULAR_WEIGHT>
482.5

> <PUBCHEM_OPENEYE_CAN_SMILES>
C1CN(CC2=C1C=CC(=C2)OS(=O)(=O)C(F)(F)F)CCCCNC(=O)C=CC3=CC=CC=C3

> <PUBCHEM_OPENEYE_ISO_SMILES>
C1CN(CC2=C1C=CC(=C2)OS(=O)(=O)C(F)(F)F)CCCCNC(=O)/C=C\C3=CC=CC=C3

> <PUBCHEM_CACTVS_TPSA>
84.1

> <PUBCHEM_MONOISOTOPIC_WEIGHT>
482.14871294

> <PUBCHEM_TOTAL_CHARGE>
0

> <PUBCHEM_HEAVY_ATOM_COUNT>
33

> <PUBCHEM_ATOM_DEF_STEREO_COUNT>
0

> <PUBCHEM_ATOM_UDEF_STEREO_COUNT>
0

> <PUBCHEM_BOND_DEF_STEREO_COUNT>
1

> <PUBCHEM_BOND_UDEF_STEREO_COUNT>
0

> <PUBCHEM_ISOTOPIC_ATOM_COUNT>
0

> <PUBCHEM_COMPONENT_COUNT>
1

> <PUBCHEM_CACTVS_TAUTO_COUNT>
-1

> <PUBCHEM_COORDINATE_TYPE>
1
5
255

> <PUBCHEM_BONDANNOTATIONS>
15  16  8
15  19  8
16  20  8
19  21  8
20  23  8
21  23  8
28  29  8
28  30  8
29  31  8
30  32  8
31  33  8
32  33  8

$$$$
