137640967
  -OEChem-09292322062D

 57 60  0     0  0  0  0  0  0999 V2000
    5.4041    0.0000    0.0000 Cl  0  0  0  0  0  0  0  0  0  0  0  0
   11.8081    5.3011    0.0000 S   0  0  0  0  0  0  0  0  0  0  0  0
    3.2769    5.1340    0.0000 O   0  0  0  0  0  0  0  0  0  0  0  0
    6.7410    6.1340    0.0000 N   0  0  0  0  0  0  0  0  0  0  0  0
    8.4730    5.1340    0.0000 N   0  0  0  0  0  0  0  0  0  0  0  0
    2.4109    6.6340    0.0000 N   0  0  0  0  0  0  0  0  0  0  0  0
    3.2769    8.1340    0.0000 N   0  0  0  0  0  0  0  0  0  0  0  0
    7.6070    6.6340    0.0000 C   0  0  0  0  0  0  0  0  0  0  0  0
    6.7410    5.1340    0.0000 C   0  0  0  0  0  0  0  0  0  0  0  0
    8.4730    6.1340    0.0000 C   0  0  0  0  0  0  0  0  0  0  0  0
    7.6070    4.6340    0.0000 C   0  0  0  0  0  0  0  0  0  0  0  0
    5.8750    6.6340    0.0000 C   0  0  0  0  0  0  0  0  0  0  0  0
    5.0089    6.1340    0.0000 C   0  0  0  0  0  0  0  0  0  0  0  0
    9.3391    4.6340    0.0000 C   0  0  0  0  0  0  0  0  0  0  0  0
    4.1429    6.6340    0.0000 C   0  0  0  0  0  0  0  0  0  0  0  0
   10.2051    5.1340    0.0000 C   0  0  0  0  0  0  0  0  0  0  0  0
    3.2769    6.1340    0.0000 C   0  0  0  0  0  0  0  0  0  0  0  0
    4.1429    7.6340    0.0000 C   0  0  0  0  0  0  0  0  0  0  0  0
    9.3391    3.6340    0.0000 C   0  0  0  0  0  0  0  0  0  0  0  0
    1.5169    6.0993    0.0000 C   0  0  0  0  0  0  0  0  0  0  0  0
    2.4109    7.6340    0.0000 C   0  0  0  0  0  0  0  0  0  0  0  0
   11.0711    4.6340    0.0000 C   0  0  0  0  0  0  0  0  0  0  0  0
    0.6109    6.6132    0.0000 C   0  0  0  0  0  0  0  0  0  0  0  0
   10.4143    6.1058    0.0000 C   0  0  0  0  0  0  0  0  0  0  0  0
   10.2051    3.1340    0.0000 C   0  0  0  0  0  0  0  0  0  0  0  0
   11.0711    3.6340    0.0000 C   0  0  0  0  0  0  0  0  0  0  0  0
    1.5169    8.1686    0.0000 C   0  0  0  0  0  0  0  0  0  0  0  0
    5.0089    8.1340    0.0000 C   0  0  0  0  0  0  0  0  0  0  0  0
    0.6109    7.6548    0.0000 C   0  0  0  0  0  0  0  0  0  0  0  0
   11.4030    6.2088    0.0000 C   0  0  0  0  0  0  0  0  0  0  0  0
    8.0055    7.1089    0.0000 H   0  0  0  0  0  0  0  0  0  0  0  0
    7.2085    7.1089    0.0000 H   0  0  0  0  0  0  0  0  0  0  0  0
    6.1304    5.2416    0.0000 H   0  0  0  0  0  0  0  0  0  0  0  0
    6.5289    4.5514    0.0000 H   0  0  0  0  0  0  0  0  0  0  0  0
    9.0836    6.0263    0.0000 H   0  0  0  0  0  0  0  0  0  0  0  0
    8.6851    6.7166    0.0000 H   0  0  0  0  0  0  0  0  0  0  0  0
    7.2085    4.1590    0.0000 H   0  0  0  0  0  0  0  0  0  0  0  0
    8.0055    4.1590    0.0000 H   0  0  0  0  0  0  0  0  0  0  0  0
    6.2735    7.1089    0.0000 H   0  0  0  0  0  0  0  0  0  0  0  0
    5.4764    7.1089    0.0000 H   0  0  0  0  0  0  0  0  0  0  0  0
    4.6104    5.6590    0.0000 H   0  0  0  0  0  0  0  0  0  0  0  0
    5.4075    5.6590    0.0000 H   0  0  0  0  0  0  0  0  0  0  0  0
    8.8021    3.3240    0.0000 H   0  0  0  0  0  0  0  0  0  0  0  0
    1.1233    5.6203    0.0000 H   0  0  0  0  0  0  0  0  0  0  0  0
    1.9215    5.6295    0.0000 H   0  0  0  0  0  0  0  0  0  0  0  0
    0.0000    6.7192    0.0000 H   0  0  0  0  0  0  0  0  0  0  0  0
    0.4018    6.0295    0.0000 H   0  0  0  0  0  0  0  0  0  0  0  0
   10.0002    6.5673    0.0000 H   0  0  0  0  0  0  0  0  0  0  0  0
   10.2051    2.5140    0.0000 H   0  0  0  0  0  0  0  0  0  0  0  0
   11.6081    3.3240    0.0000 H   0  0  0  0  0  0  0  0  0  0  0  0
    1.5241    8.7886    0.0000 H   0  0  0  0  0  0  0  0  0  0  0  0
    5.3189    7.5970    0.0000 H   0  0  0  0  0  0  0  0  0  0  0  0
    5.5459    8.4440    0.0000 H   0  0  0  0  0  0  0  0  0  0  0  0
    4.6989    8.6709    0.0000 H   0  0  0  0  0  0  0  0  0  0  0  0
    0.0751    7.9669    0.0000 H   0  0  0  0  0  0  0  0  0  0  0  0
   11.7130    6.7458    0.0000 H   0  0  0  0  0  0  0  0  0  0  0  0
    6.4041    0.0000    0.0000 H   0  0  0  0  0  0  0  0  0  0  0  0
  1 57  1  0  0  0  0
  2 22  1  0  0  0  0
  2 30  1  0  0  0  0
  3 17  2  0  0  0  0
  4  8  1  0  0  0  0
  4  9  1  0  0  0  0
  4 12  1  0  0  0  0
  5 10  1  0  0  0  0
  5 11  1  0  0  0  0
  5 14  1  0  0  0  0
  6 17  1  0  0  0  0
  6 20  1  0  0  0  0
  6 21  1  0  0  0  0
  7 18  1  0  0  0  0
  7 21  2  0  0  0  0
  8 10  1  0  0  0  0
  8 31  1  0  0  0  0
  8 32  1  0  0  0  0
  9 11  1  0  0  0  0
  9 33  1  0  0  0  0
  9 34  1  0  0  0  0
 10 35  1  0  0  0  0
 10 36  1  0  0  0  0
 11 37  1  0  0  0  0
 11 38  1  0  0  0  0
 12 13  1  0  0  0  0
 12 39  1  0  0  0  0
 12 40  1  0  0  0  0
 13 15  1  0  0  0  0
 13 41  1  0  0  0  0
 13 42  1  0  0  0  0
 14 16  2  0  0  0  0
 14 19  1  0  0  0  0
 15 17  1  0  0  0  0
 15 18  2  0  0  0  0
 16 22  1  0  0  0  0
 16 24  1  0  0  0  0
 18 28  1  0  0  0  0
 19 25  2  0  0  0  0
 19 43  1  0  0  0  0
 20 23  1  0  0  0  0
 20 44  1  0  0  0  0
 20 45  1  0  0  0  0
 21 27  1  0  0  0  0
 22 26  2  0  0  0  0
 23 29  1  0  0  0  0
 23 46  1  0  0  0  0
 23 47  1  0  0  0  0
 24 30  2  0  0  0  0
 24 48  1  0  0  0  0
 25 26  1  0  0  0  0
 25 49  1  0  0  0  0
 26 50  1  0  0  0  0
 27 29  2  0  0  0  0
 27 51  1  0  0  0  0
 28 52  1  0  0  0  0
 28 53  1  0  0  0  0
 28 54  1  0  0  0  0
 29 55  1  0  0  0  0
 30 56  1  0  0  0  0
M  END
> <PUBCHEM_COMPOUND_CID>
137640967

> <PUBCHEM_COMPOUND_CANONICALIZED>
1

> <PUBCHEM_CACTVS_COMPLEXITY>
737

> <PUBCHEM_CACTVS_HBOND_ACCEPTOR>
5

> <PUBCHEM_CACTVS_HBOND_DONOR>
1

> <PUBCHEM_CACTVS_ROTATABLE_BOND>
4

> <PUBCHEM_CACTVS_SUBSKEYS>
AAADceB7oABEAAAAAAAAAAAAAAAAASAAAAA8QIEAAAAAAEiB8AAAHgQAAAAADAjF2ASzwcMAAAisAidydACDAIEhChBJiBkYZNgIYDLgmZGUIAxghgDoyUcUgIAOAAAAACAGAAAAAAAAQAwAAAAAAAAAAA==

> <PUBCHEM_IUPAC_OPENEYE_NAME>
3-[2-[4-(benzothiophen-4-yl)piperazin-1-yl]ethyl]-2-methyl-6,7-dihydropyrido[1,2-a]pyrimidin-4-one;hydrochloride

> <PUBCHEM_IUPAC_CAS_NAME>
3-[2-[4-(1-benzothiophen-4-yl)-1-piperazinyl]ethyl]-2-methyl-6,7-dihydropyrido[1,2-a]pyrimidin-4-one;hydrochloride

> <PUBCHEM_IUPAC_NAME_MARKUP>
3-[2-[4-(1-benzothiophen-4-yl)piperazin-1-yl]ethyl]-2-methyl-6,7-dihydropyrido[1,2-a]pyrimidin-4-one;hydrochloride

> <PUBCHEM_IUPAC_NAME>
3-[2-[4-(1-benzothiophen-4-yl)piperazin-1-yl]ethyl]-2-methyl-6,7-dihydropyrido[1,2-a]pyrimidin-4-one;hydrochloride

> <PUBCHEM_IUPAC_SYSTEMATIC_NAME>
3-[2-[4-(1-benzothiophen-4-yl)piperazin-1-yl]ethyl]-2-methyl-6,7-dihydropyrido[1,2-a]pyrimidin-4-one;hydrochloride

> <PUBCHEM_IUPAC_TRADITIONAL_NAME>
3-[2-[4-(benzothiophen-4-yl)piperazino]ethyl]-2-methyl-6,7-dihydropyrido[1,2-a]pyrimidin-4-one;hydrochloride

> <PUBCHEM_IUPAC_INCHI>
InChI=1S/C23H26N4OS.ClH/c1-17-18(23(28)27-10-3-2-7-22(27)24-17)8-11-25-12-14-26(15-13-25)20-5-4-6-21-19(20)9-16-29-21;/h2,4-7,9,16H,3,8,10-15H2,1H3;1H

> <PUBCHEM_IUPAC_INCHIKEY>
ZUPJZYNGLKKNEJ-UHFFFAOYSA-N

> <PUBCHEM_EXACT_MASS>
442.1594104

> <PUBCHEM_MOLECULAR_FORMULA>
C23H27ClN4OS

> <PUBCHEM_MOLECULAR_WEIGHT>
443.0

> <PUBCHEM_OPENEYE_CAN_SMILES>
CC1=C(C(=O)N2CCC=CC2=N1)CCN3CCN(CC3)C4=C5C=CSC5=CC=C4.Cl

> <PUBCHEM_OPENEYE_ISO_SMILES>
CC1=C(C(=O)N2CCC=CC2=N1)CCN3CCN(CC3)C4=C5C=CSC5=CC=C4.Cl

> <PUBCHEM_CACTVS_TPSA>
67.4

> <PUBCHEM_MONOISOTOPIC_WEIGHT>
442.1594104

> <PUBCHEM_TOTAL_CHARGE>
0

> <PUBCHEM_HEAVY_ATOM_COUNT>
30

> <PUBCHEM_ATOM_DEF_STEREO_COUNT>
0

> <PUBCHEM_ATOM_UDEF_STEREO_COUNT>
0

> <PUBCHEM_BOND_DEF_STEREO_COUNT>
0

> <PUBCHEM_BOND_UDEF_STEREO_COUNT>
0

> <PUBCHEM_ISOTOPIC_ATOM_COUNT>
0

> <PUBCHEM_COMPONENT_COUNT>
2

> <PUBCHEM_CACTVS_TAUTO_COUNT>
-1

> <PUBCHEM_COORDINATE_TYPE>
1
5
255

> <PUBCHEM_BONDANNOTATIONS>
14  16  8
14  19  8
15  17  8
15  18  8
16  22  8
16  24  8
19  25  8
2  22  8
2  30  8
22  26  8
24  30  8
25  26  8
6  17  8
6  21  8
7  18  8
7  21  8

$$$$
