3676358
  -OEChem-09292322482D

 54 58  0     0  0  0  0  0  0999 V2000
   10.6603   -1.7500    0.0000 O   0  0  0  0  0  0  0  0  0  0  0  0
    7.1962    2.2500    0.0000 O   0  0  0  0  0  0  0  0  0  0  0  0
    9.7942   -0.2500    0.0000 N   0  0  0  0  0  0  0  0  0  0  0  0
    8.0622    0.7500    0.0000 N   0  0  0  0  0  0  0  0  0  0  0  0
   14.2045   -0.5547    0.0000 N   0  0  0  0  0  0  0  0  0  0  0  0
    8.9282   -0.7500    0.0000 C   0  0  0  0  0  0  0  0  0  0  0  0
    9.7942    0.7500    0.0000 C   0  0  0  0  0  0  0  0  0  0  0  0
    8.0622   -0.2500    0.0000 C   0  0  0  0  0  0  0  0  0  0  0  0
    8.9282    1.2500    0.0000 C   0  0  0  0  0  0  0  0  0  0  0  0
   10.6603   -0.7500    0.0000 C   0  0  0  0  0  0  0  0  0  0  0  0
    7.1962    1.2500    0.0000 C   0  0  0  0  0  0  0  0  0  0  0  0
   11.5263   -0.2500    0.0000 C   0  0  0  0  0  0  0  0  0  0  0  0
    6.3301    0.7500    0.0000 C   0  0  0  0  0  0  0  0  0  0  0  0
   12.3923   -0.7500    0.0000 C   0  0  0  0  0  0  0  0  0  0  0  0
   13.2583   -0.2500    0.0000 C   0  0  0  0  0  0  0  0  0  0  0  0
   11.5263    0.7500    0.0000 C   0  0  0  0  0  0  0  0  0  0  0  0
   13.2583    0.7500    0.0000 C   0  0  0  0  0  0  0  0  0  0  0  0
    6.3301   -0.2500    0.0000 C   0  0  0  0  0  0  0  0  0  0  0  0
    5.4641    1.2500    0.0000 C   0  0  0  0  0  0  0  0  0  0  0  0
   12.3923    1.2500    0.0000 C   0  0  0  0  0  0  0  0  0  0  0  0
    4.5981   -0.2500    0.0000 C   0  0  0  0  0  0  0  0  0  0  0  0
    5.4641   -0.7500    0.0000 C   0  0  0  0  0  0  0  0  0  0  0  0
    4.5981    0.7500    0.0000 C   0  0  0  0  0  0  0  0  0  0  0  0
   14.2045    1.0547    0.0000 C   0  0  0  0  0  0  0  0  0  0  0  0
   14.7882    0.2500    0.0000 C   0  0  0  0  0  0  0  0  0  0  0  0
    3.7320   -0.7500    0.0000 C   0  0  0  0  0  0  0  0  0  0  0  0
    3.7320   -1.7500    0.0000 C   0  0  0  0  0  0  0  0  0  0  0  0
    2.8660   -0.2500    0.0000 C   0  0  0  0  0  0  0  0  0  0  0  0
    2.8660   -2.2500    0.0000 C   0  0  0  0  0  0  0  0  0  0  0  0
    2.0000   -0.7500    0.0000 C   0  0  0  0  0  0  0  0  0  0  0  0
    2.0000   -1.7500    0.0000 C   0  0  0  0  0  0  0  0  0  0  0  0
    8.5297   -1.2250    0.0000 H   0  0  0  0  0  0  0  0  0  0  0  0
    9.3267   -1.2250    0.0000 H   0  0  0  0  0  0  0  0  0  0  0  0
   10.4048    0.6423    0.0000 H   0  0  0  0  0  0  0  0  0  0  0  0
   10.0063    1.3326    0.0000 H   0  0  0  0  0  0  0  0  0  0  0  0
    7.4516   -0.1423    0.0000 H   0  0  0  0  0  0  0  0  0  0  0  0
    7.8501   -0.8326    0.0000 H   0  0  0  0  0  0  0  0  0  0  0  0
    9.3267    1.7250    0.0000 H   0  0  0  0  0  0  0  0  0  0  0  0
    8.5297    1.7250    0.0000 H   0  0  0  0  0  0  0  0  0  0  0  0
   12.3923   -1.3700    0.0000 H   0  0  0  0  0  0  0  0  0  0  0  0
   10.9893    1.0600    0.0000 H   0  0  0  0  0  0  0  0  0  0  0  0
    6.8671   -0.5600    0.0000 H   0  0  0  0  0  0  0  0  0  0  0  0
    5.4641    1.8700    0.0000 H   0  0  0  0  0  0  0  0  0  0  0  0
   12.3923    1.8700    0.0000 H   0  0  0  0  0  0  0  0  0  0  0  0
   14.3972   -1.1440    0.0000 H   0  0  0  0  0  0  0  0  0  0  0  0
    5.4641   -1.3700    0.0000 H   0  0  0  0  0  0  0  0  0  0  0  0
    4.0611    1.0600    0.0000 H   0  0  0  0  0  0  0  0  0  0  0  0
   14.3972    1.6441    0.0000 H   0  0  0  0  0  0  0  0  0  0  0  0
   15.4082    0.2500    0.0000 H   0  0  0  0  0  0  0  0  0  0  0  0
    4.2690   -2.0600    0.0000 H   0  0  0  0  0  0  0  0  0  0  0  0
    2.8660    0.3700    0.0000 H   0  0  0  0  0  0  0  0  0  0  0  0
    2.8660   -2.8700    0.0000 H   0  0  0  0  0  0  0  0  0  0  0  0
    1.4631   -0.4400    0.0000 H   0  0  0  0  0  0  0  0  0  0  0  0
    1.4631   -2.0600    0.0000 H   0  0  0  0  0  0  0  0  0  0  0  0
  1 10  2  0  0  0  0
  2 11  2  0  0  0  0
  3  6  1  0  0  0  0
  3  7  1  0  0  0  0
  3 10  1  0  0  0  0
  4  8  1  0  0  0  0
  4  9  1  0  0  0  0
  4 11  1  0  0  0  0
  5 15  1  0  0  0  0
  5 25  1  0  0  0  0
  5 45  1  0  0  0  0
  6  8  1  0  0  0  0
  6 32  1  0  0  0  0
  6 33  1  0  0  0  0
  7  9  1  0  0  0  0
  7 34  1  0  0  0  0
  7 35  1  0  0  0  0
  8 36  1  0  0  0  0
  8 37  1  0  0  0  0
  9 38  1  0  0  0  0
  9 39  1  0  0  0  0
 10 12  1  0  0  0  0
 11 13  1  0  0  0  0
 12 14  2  0  0  0  0
 12 16  1  0  0  0  0
 13 18  2  0  0  0  0
 13 19  1  0  0  0  0
 14 15  1  0  0  0  0
 14 40  1  0  0  0  0
 15 17  2  0  0  0  0
 16 20  2  0  0  0  0
 16 41  1  0  0  0  0
 17 20  1  0  0  0  0
 17 24  1  0  0  0  0
 18 22  1  0  0  0  0
 18 42  1  0  0  0  0
 19 23  2  0  0  0  0
 19 43  1  0  0  0  0
 20 44  1  0  0  0  0
 21 22  2  0  0  0  0
 21 23  1  0  0  0  0
 21 26  1  0  0  0  0
 22 46  1  0  0  0  0
 23 47  1  0  0  0  0
 24 25  2  0  0  0  0
 24 48  1  0  0  0  0
 25 49  1  0  0  0  0
 26 27  2  0  0  0  0
 26 28  1  0  0  0  0
 27 29  1  0  0  0  0
 27 50  1  0  0  0  0
 28 30  2  0  0  0  0
 28 51  1  0  0  0  0
 29 31  2  0  0  0  0
 29 52  1  0  0  0  0
 30 31  1  0  0  0  0
 30 53  1  0  0  0  0
 31 54  1  0  0  0  0
M  END
> <PUBCHEM_COMPOUND_CID>
3676358

> <PUBCHEM_COMPOUND_CANONICALIZED>
1

> <PUBCHEM_CACTVS_COMPLEXITY>
631

> <PUBCHEM_CACTVS_HBOND_ACCEPTOR>
2

> <PUBCHEM_CACTVS_HBOND_DONOR>
1

> <PUBCHEM_CACTVS_ROTATABLE_BOND>
3

> <PUBCHEM_CACTVS_SUBSKEYS>
AAADceB7MAAAAAAAAAAAAAAAAAAAAWAAAAA8YMEAAAAAAFgB9AAAHgAQAAAADAjBngQ8wPPJkACoAzV3VACCgCA1AiAI2aE4ZNgIYPLAlZGUIQhglgDIyYcciMCOwAAAQAACAACAAACAAAQAAAAAAAAAAA==

> <PUBCHEM_IUPAC_OPENEYE_NAME>
[4-(1H-indole-6-carbonyl)piperazin-1-yl]-(4-phenylphenyl)methanone

> <PUBCHEM_IUPAC_CAS_NAME>
[4-[1H-indol-6-yl(oxo)methyl]-1-piperazinyl]-(4-phenylphenyl)methanone

> <PUBCHEM_IUPAC_NAME_MARKUP>
[4-(1<I>H</I>-indole-6-carbonyl)piperazin-1-yl]-(4-phenylphenyl)methanone

> <PUBCHEM_IUPAC_NAME>
[4-(1H-indole-6-carbonyl)piperazin-1-yl]-(4-phenylphenyl)methanone

> <PUBCHEM_IUPAC_SYSTEMATIC_NAME>
[4-(1H-indol-6-ylcarbonyl)piperazin-1-yl]-(4-phenylphenyl)methanone

> <PUBCHEM_IUPAC_TRADITIONAL_NAME>
[4-(1H-indole-6-carbonyl)piperazino]-(4-phenylphenyl)methanone

> <PUBCHEM_IUPAC_INCHI>
InChI=1S/C26H23N3O2/c30-25(22-9-6-20(7-10-22)19-4-2-1-3-5-19)28-14-16-29(17-15-28)26(31)23-11-8-21-12-13-27-24(21)18-23/h1-13,18,27H,14-17H2

> <PUBCHEM_IUPAC_INCHIKEY>
APHXKHUFVKITGC-UHFFFAOYSA-N

> <PUBCHEM_XLOGP3_AA>
4.1

> <PUBCHEM_EXACT_MASS>
409.17902698

> <PUBCHEM_MOLECULAR_FORMULA>
C26H23N3O2

> <PUBCHEM_MOLECULAR_WEIGHT>
409.5

> <PUBCHEM_OPENEYE_CAN_SMILES>
C1CN(CCN1C(=O)C2=CC=C(C=C2)C3=CC=CC=C3)C(=O)C4=CC5=C(C=C4)C=CN5

> <PUBCHEM_OPENEYE_ISO_SMILES>
C1CN(CCN1C(=O)C2=CC=C(C=C2)C3=CC=CC=C3)C(=O)C4=CC5=C(C=C4)C=CN5

> <PUBCHEM_CACTVS_TPSA>
56.4

> <PUBCHEM_MONOISOTOPIC_WEIGHT>
409.17902698

> <PUBCHEM_TOTAL_CHARGE>
0

> <PUBCHEM_HEAVY_ATOM_COUNT>
31

> <PUBCHEM_ATOM_DEF_STEREO_COUNT>
0

> <PUBCHEM_ATOM_UDEF_STEREO_COUNT>
0

> <PUBCHEM_BOND_DEF_STEREO_COUNT>
0

> <PUBCHEM_BOND_UDEF_STEREO_COUNT>
0

> <PUBCHEM_ISOTOPIC_ATOM_COUNT>
0

> <PUBCHEM_COMPONENT_COUNT>
1

> <PUBCHEM_CACTVS_TAUTO_COUNT>
-1

> <PUBCHEM_COORDINATE_TYPE>
1
5
255

> <PUBCHEM_BONDANNOTATIONS>
12  14  8
12  16  8
13  18  8
13  19  8
14  15  8
15  17  8
16  20  8
17  20  8
17  24  8
18  22  8
19  23  8
21  22  8
21  23  8
24  25  8
26  27  8
26  28  8
27  29  8
28  30  8
29  31  8
30  31  8
5  15  8
5  25  8

$$$$
