44447039
  -OEChem-09292322262D

 62 67  0     1  0  0  0  0  0999 V2000
    3.7899    1.9329    0.0000 S   0  0  0  0  0  0  0  0  0  0  0  0
   14.6962   -0.5478    0.0000 O   0  0  0  0  0  0  0  0  0  0  0  0
   13.7527    1.9570    0.0000 O   0  0  0  0  0  0  0  0  0  0  0  0
    7.4629   -0.7650    0.0000 N   0  0  0  0  0  0  0  0  0  0  0  0
    5.7308    0.2350    0.0000 N   0  0  0  0  0  0  0  0  0  0  0  0
   13.0499   -0.0098    0.0000 N   0  0  0  0  0  0  0  0  0  0  0  0
    4.7617    1.7237    0.0000 N   0  0  0  0  0  0  0  0  0  0  0  0
   12.7392   -0.9603    0.0000 C   0  0  3  0  0  0  0  0  0  0  0  0
   11.7930   -1.2650    0.0000 C   0  0  0  0  0  0  0  0  0  0  0  0
   13.3228   -1.7650    0.0000 C   0  0  0  0  0  0  0  0  0  0  0  0
   12.7392   -2.5697    0.0000 C   0  0  0  0  0  0  0  0  0  0  0  0
   11.7930   -2.2650    0.0000 C   0  0  0  0  0  0  0  0  0  0  0  0
    6.5968   -1.2650    0.0000 C   0  0  0  0  0  0  0  0  0  0  0  0
    7.4629    0.2350    0.0000 C   0  0  0  0  0  0  0  0  0  0  0  0
    8.3289   -1.2650    0.0000 C   0  0  0  0  0  0  0  0  0  0  0  0
    5.7308   -0.7650    0.0000 C   0  0  0  0  0  0  0  0  0  0  0  0
    6.5968    0.7350    0.0000 C   0  0  0  0  0  0  0  0  0  0  0  0
    9.1949   -0.7650    0.0000 C   0  0  0  0  0  0  0  0  0  0  0  0
   10.0610   -1.2650    0.0000 C   0  0  0  0  0  0  0  0  0  0  0  0
   10.9270   -0.7650    0.0000 C   0  0  0  0  0  0  0  0  0  0  0  0
   10.9270   -2.7650    0.0000 C   0  0  0  0  0  0  0  0  0  0  0  0
   10.0610   -2.2650    0.0000 C   0  0  0  0  0  0  0  0  0  0  0  0
    4.8648    0.7350    0.0000 C   0  0  0  0  0  0  0  0  0  0  0  0
    3.9570    0.3299    0.0000 C   0  0  0  0  0  0  0  0  0  0  0  0
   14.0284    0.1965    0.0000 C   0  0  0  0  0  0  0  0  0  0  0  0
    3.2892    1.0742    0.0000 C   0  0  0  0  0  0  0  0  0  0  0  0
    3.6464   -0.6206    0.0000 C   0  0  0  0  0  0  0  0  0  0  0  0
   14.3391    1.1470    0.0000 C   0  0  0  0  0  0  0  0  0  0  0  0
    2.3107    0.8680    0.0000 C   0  0  0  0  0  0  0  0  0  0  0  0
    2.6678   -0.8269    0.0000 C   0  0  0  0  0  0  0  0  0  0  0  0
    2.0000   -0.0826    0.0000 C   0  0  0  0  0  0  0  0  0  0  0  0
   15.2906    1.4544    0.0000 C   0  0  0  0  0  0  0  0  0  0  0  0
   15.2924    2.4543    0.0000 C   0  0  0  0  0  0  0  0  0  0  0  0
   14.3419    2.7650    0.0000 C   0  0  0  0  0  0  0  0  0  0  0  0
   13.3517   -0.8641    0.0000 H   0  0  0  0  0  0  0  0  0  0  0  0
   13.7837   -2.1797    0.0000 H   0  0  0  0  0  0  0  0  0  0  0  0
   13.7837   -1.3503    0.0000 H   0  0  0  0  0  0  0  0  0  0  0  0
   12.4882   -3.1366    0.0000 H   0  0  0  0  0  0  0  0  0  0  0  0
   13.2766   -2.8790    0.0000 H   0  0  0  0  0  0  0  0  0  0  0  0
    6.1983   -1.7400    0.0000 H   0  0  0  0  0  0  0  0  0  0  0  0
    6.9954   -1.7400    0.0000 H   0  0  0  0  0  0  0  0  0  0  0  0
    8.0734    0.1273    0.0000 H   0  0  0  0  0  0  0  0  0  0  0  0
    7.6749    0.8176    0.0000 H   0  0  0  0  0  0  0  0  0  0  0  0
    7.9304   -1.7400    0.0000 H   0  0  0  0  0  0  0  0  0  0  0  0
    8.7274   -1.7400    0.0000 H   0  0  0  0  0  0  0  0  0  0  0  0
    5.1202   -0.6574    0.0000 H   0  0  0  0  0  0  0  0  0  0  0  0
    5.5188   -1.3476    0.0000 H   0  0  0  0  0  0  0  0  0  0  0  0
    6.9954    1.2099    0.0000 H   0  0  0  0  0  0  0  0  0  0  0  0
    6.1983    1.2099    0.0000 H   0  0  0  0  0  0  0  0  0  0  0  0
    9.5934   -0.2901    0.0000 H   0  0  0  0  0  0  0  0  0  0  0  0
    8.7964   -0.2901    0.0000 H   0  0  0  0  0  0  0  0  0  0  0  0
   10.9270   -0.1450    0.0000 H   0  0  0  0  0  0  0  0  0  0  0  0
   10.9270   -3.3850    0.0000 H   0  0  0  0  0  0  0  0  0  0  0  0
    9.5240   -2.5750    0.0000 H   0  0  0  0  0  0  0  0  0  0  0  0
   12.6358    0.4517    0.0000 H   0  0  0  0  0  0  0  0  0  0  0  0
    4.0604   -1.0821    0.0000 H   0  0  0  0  0  0  0  0  0  0  0  0
    1.8966    1.3294    0.0000 H   0  0  0  0  0  0  0  0  0  0  0  0
    2.4752   -1.4162    0.0000 H   0  0  0  0  0  0  0  0  0  0  0  0
    1.3933   -0.2104    0.0000 H   0  0  0  0  0  0  0  0  0  0  0  0
   15.7916    1.0891    0.0000 H   0  0  0  0  0  0  0  0  0  0  0  0
   15.7946    2.8179    0.0000 H   0  0  0  0  0  0  0  0  0  0  0  0
   14.1513    3.3550    0.0000 H   0  0  0  0  0  0  0  0  0  0  0  0
  1  7  1  0  0  0  0
  1 26  1  0  0  0  0
  2 25  2  0  0  0  0
  3 28  1  0  0  0  0
  3 34  1  0  0  0  0
  4 13  1  0  0  0  0
  4 14  1  0  0  0  0
  4 15  1  0  0  0  0
  5 16  1  0  0  0  0
  5 17  1  0  0  0  0
  5 23  1  0  0  0  0
  6  8  1  0  0  0  0
  6 25  1  0  0  0  0
  6 55  1  0  0  0  0
  7 23  2  0  0  0  0
  8  9  1  0  0  0  0
  8 10  1  0  0  0  0
  8 35  1  0  0  0  0
  9 12  2  0  0  0  0
  9 20  1  0  0  0  0
 10 11  1  0  0  0  0
 10 36  1  0  0  0  0
 10 37  1  0  0  0  0
 11 12  1  0  0  0  0
 11 38  1  0  0  0  0
 11 39  1  0  0  0  0
 12 21  1  0  0  0  0
 13 16  1  0  0  0  0
 13 40  1  0  0  0  0
 13 41  1  0  0  0  0
 14 17  1  0  0  0  0
 14 42  1  0  0  0  0
 14 43  1  0  0  0  0
 15 18  1  0  0  0  0
 15 44  1  0  0  0  0
 15 45  1  0  0  0  0
 16 46  1  0  0  0  0
 16 47  1  0  0  0  0
 17 48  1  0  0  0  0
 17 49  1  0  0  0  0
 18 19  1  0  0  0  0
 18 50  1  0  0  0  0
 18 51  1  0  0  0  0
 19 20  2  0  0  0  0
 19 22  1  0  0  0  0
 20 52  1  0  0  0  0
 21 22  2  0  0  0  0
 21 53  1  0  0  0  0
 22 54  1  0  0  0  0
 23 24  1  0  0  0  0
 24 26  1  0  0  0  0
 24 27  2  0  0  0  0
 25 28  1  0  0  0  0
 26 29  2  0  0  0  0
 27 30  1  0  0  0  0
 27 56  1  0  0  0  0
 28 32  2  0  0  0  0
 29 31  1  0  0  0  0
 29 57  1  0  0  0  0
 30 31  2  0  0  0  0
 30 58  1  0  0  0  0
 31 59  1  0  0  0  0
 32 33  1  0  0  0  0
 32 60  1  0  0  0  0
 33 34  2  0  0  0  0
 33 61  1  0  0  0  0
 34 62  1  0  0  0  0
M  END
> <PUBCHEM_COMPOUND_CID>
44447039

> <PUBCHEM_COMPOUND_CANONICALIZED>
1

> <PUBCHEM_CACTVS_COMPLEXITY>
702

> <PUBCHEM_CACTVS_HBOND_ACCEPTOR>
6

> <PUBCHEM_CACTVS_HBOND_DONOR>
1

> <PUBCHEM_CACTVS_ROTATABLE_BOND>
6

> <PUBCHEM_CACTVS_SUBSKEYS>
AAADceB7sABAAAAAAAAAAAAAAAAAAeJEAAA8YIAAAAAAAHgB/AAAHgQQQAAADCzh2gYxtdPABECsAqty8AKDCBAlIABJmLnuTNiOZrLEvb+XOSzk1hPY6YeYl8IOwAACAAAUAACAAAQAACgAACAACQAAAA==

> <PUBCHEM_IUPAC_OPENEYE_NAME>
N-[6-[2-[4-(1,2-benzothiazol-3-yl)piperazin-1-yl]ethyl]indan-1-yl]furan-2-carboxamide

> <PUBCHEM_IUPAC_CAS_NAME>
N-[6-[2-[4-(1,2-benzothiazol-3-yl)-1-piperazinyl]ethyl]-2,3-dihydro-1H-inden-1-yl]-2-furancarboxamide

> <PUBCHEM_IUPAC_NAME_MARKUP>
<I>N</I>-[6-[2-[4-(1,2-benzothiazol-3-yl)piperazin-1-yl]ethyl]-2,3-dihydro-1<I>H</I>-inden-1-yl]furan-2-carboxamide

> <PUBCHEM_IUPAC_NAME>
N-[6-[2-[4-(1,2-benzothiazol-3-yl)piperazin-1-yl]ethyl]-2,3-dihydro-1H-inden-1-yl]furan-2-carboxamide

> <PUBCHEM_IUPAC_SYSTEMATIC_NAME>
N-[6-[2-[4-(1,2-benzothiazol-3-yl)piperazin-1-yl]ethyl]-2,3-dihydro-1H-inden-1-yl]furan-2-carboxamide

> <PUBCHEM_IUPAC_TRADITIONAL_NAME>
N-[6-[2-[4-(1,2-benzothiazol-3-yl)piperazino]ethyl]indan-1-yl]-2-furamide

> <PUBCHEM_IUPAC_INCHI>
InChI=1S/C27H28N4O2S/c32-27(24-5-3-17-33-24)28-23-10-9-20-8-7-19(18-22(20)23)11-12-30-13-15-31(16-14-30)26-21-4-1-2-6-25(21)34-29-26/h1-8,17-18,23H,9-16H2,(H,28,32)

> <PUBCHEM_IUPAC_INCHIKEY>
XBIPCIFARHCNNE-UHFFFAOYSA-N

> <PUBCHEM_XLOGP3_AA>
5.1

> <PUBCHEM_EXACT_MASS>
472.19329732

> <PUBCHEM_MOLECULAR_FORMULA>
C27H28N4O2S

> <PUBCHEM_MOLECULAR_WEIGHT>
472.6

> <PUBCHEM_OPENEYE_CAN_SMILES>
C1CC2=C(C1NC(=O)C3=CC=CO3)C=C(C=C2)CCN4CCN(CC4)C5=NSC6=CC=CC=C65

> <PUBCHEM_OPENEYE_ISO_SMILES>
C1CC2=C(C1NC(=O)C3=CC=CO3)C=C(C=C2)CCN4CCN(CC4)C5=NSC6=CC=CC=C65

> <PUBCHEM_CACTVS_TPSA>
89.8

> <PUBCHEM_MONOISOTOPIC_WEIGHT>
472.19329732

> <PUBCHEM_TOTAL_CHARGE>
0

> <PUBCHEM_HEAVY_ATOM_COUNT>
34

> <PUBCHEM_ATOM_DEF_STEREO_COUNT>
0

> <PUBCHEM_ATOM_UDEF_STEREO_COUNT>
1

> <PUBCHEM_BOND_DEF_STEREO_COUNT>
0

> <PUBCHEM_BOND_UDEF_STEREO_COUNT>
0

> <PUBCHEM_ISOTOPIC_ATOM_COUNT>
0

> <PUBCHEM_COMPONENT_COUNT>
1

> <PUBCHEM_CACTVS_TAUTO_COUNT>
-1

> <PUBCHEM_COORDINATE_TYPE>
1
5
255

> <PUBCHEM_BONDANNOTATIONS>
1  26  8
1  7  8
12  21  8
19  20  8
19  22  8
21  22  8
23  24  8
24  26  8
24  27  8
26  29  8
27  30  8
28  32  8
29  31  8
3  28  8
3  34  8
30  31  8
32  33  8
33  34  8
8  6  3
7  23  8
9  12  8
9  20  8

$$$$
