49860024
  -OEChem-09292322032D

 52 54  0     1  0  0  0  0  0999 V2000
    6.6116    5.5530    0.0000 Br  0  0  0  0  0  0  0  0  0  0  0  0
    3.2087    2.6200    0.0000 O   0  0  0  0  0  0  0  0  0  0  0  0
    1.4766    5.6200    0.0000 N   0  0  0  0  0  0  0  0  0  0  0  0
    1.4766    3.6200    0.0000 N   0  0  0  0  0  0  0  0  0  0  0  0
    2.3426    7.1200    0.0000 C   0  0  2  0  0  0  0  0  0  0  0  0
    2.8426    7.9860    0.0000 C   0  0  2  0  0  0  0  0  0  0  0  0
    3.3426    7.1200    0.0000 C   0  0  0  0  0  0  0  0  0  0  0  0
    1.4766    6.6200    0.0000 C   0  0  0  0  0  0  0  0  0  0  0  0
    2.8426    8.9860    0.0000 C   0  0  0  0  0  0  0  0  0  0  0  0
    0.6106    5.1200    0.0000 C   0  0  0  0  0  0  0  0  0  0  0  0
    2.3426    5.1200    0.0000 C   0  0  0  0  0  0  0  0  0  0  0  0
    0.6106    4.1200    0.0000 C   0  0  0  0  0  0  0  0  0  0  0  0
    2.3426    4.1200    0.0000 C   0  0  0  0  0  0  0  0  0  0  0  0
    1.9766    9.4860    0.0000 C   0  0  0  0  0  0  0  0  0  0  0  0
    3.7087    9.4860    0.0000 C   0  0  0  0  0  0  0  0  0  0  0  0
    1.9766   10.4860    0.0000 C   0  0  0  0  0  0  0  0  0  0  0  0
    3.7087   10.4860    0.0000 C   0  0  0  0  0  0  0  0  0  0  0  0
    1.4766    2.6200    0.0000 C   0  0  0  0  0  0  0  0  0  0  0  0
    2.8426   10.9860    0.0000 C   0  0  0  0  0  0  0  0  0  0  0  0
    2.3426    2.1200    0.0000 C   0  0  0  0  0  0  0  0  0  0  0  0
    0.6106    2.1200    0.0000 C   0  0  0  0  0  0  0  0  0  0  0  0
    2.3426    1.1200    0.0000 C   0  0  0  0  0  0  0  0  0  0  0  0
    0.6106    1.1200    0.0000 C   0  0  0  0  0  0  0  0  0  0  0  0
    1.4766    0.6200    0.0000 C   0  0  0  0  0  0  0  0  0  0  0  0
    4.0747    2.1200    0.0000 C   0  0  0  0  0  0  0  0  0  0  0  0
    2.5031    6.5211    0.0000 H   0  0  0  0  0  0  0  0  0  0  0  0
    3.4415    8.1465    0.0000 H   0  0  0  0  0  0  0  0  0  0  0  0
    3.4503    6.5094    0.0000 H   0  0  0  0  0  0  0  0  0  0  0  0
    3.9252    7.3320    0.0000 H   0  0  0  0  0  0  0  0  0  0  0  0
    1.2646    7.2026    0.0000 H   0  0  0  0  0  0  0  0  0  0  0  0
    0.8660    6.5123    0.0000 H   0  0  0  0  0  0  0  0  0  0  0  0
    0.3985    5.7026    0.0000 H   0  0  0  0  0  0  0  0  0  0  0  0
    0.0000    5.0123    0.0000 H   0  0  0  0  0  0  0  0  0  0  0  0
    2.9532    5.0123    0.0000 H   0  0  0  0  0  0  0  0  0  0  0  0
    2.5547    5.7026    0.0000 H   0  0  0  0  0  0  0  0  0  0  0  0
    0.0000    4.2277    0.0000 H   0  0  0  0  0  0  0  0  0  0  0  0
    0.3985    3.5374    0.0000 H   0  0  0  0  0  0  0  0  0  0  0  0
    2.5547    3.5374    0.0000 H   0  0  0  0  0  0  0  0  0  0  0  0
    2.9532    4.2277    0.0000 H   0  0  0  0  0  0  0  0  0  0  0  0
    1.4397    9.1760    0.0000 H   0  0  0  0  0  0  0  0  0  0  0  0
    4.2456    9.1760    0.0000 H   0  0  0  0  0  0  0  0  0  0  0  0
    1.4397   10.7960    0.0000 H   0  0  0  0  0  0  0  0  0  0  0  0
    4.2456   10.7960    0.0000 H   0  0  0  0  0  0  0  0  0  0  0  0
    2.8426   11.6060    0.0000 H   0  0  0  0  0  0  0  0  0  0  0  0
    0.0736    2.4300    0.0000 H   0  0  0  0  0  0  0  0  0  0  0  0
    2.8796    0.8100    0.0000 H   0  0  0  0  0  0  0  0  0  0  0  0
    0.0736    0.8100    0.0000 H   0  0  0  0  0  0  0  0  0  0  0  0
    1.4766    0.0000    0.0000 H   0  0  0  0  0  0  0  0  0  0  0  0
    3.7647    1.5831    0.0000 H   0  0  0  0  0  0  0  0  0  0  0  0
    4.6116    1.8100    0.0000 H   0  0  0  0  0  0  0  0  0  0  0  0
    4.3847    2.6569    0.0000 H   0  0  0  0  0  0  0  0  0  0  0  0
    7.6116    5.5530    0.0000 H   0  0  0  0  0  0  0  0  0  0  0  0
  1 52  1  0  0  0  0
  2 20  1  0  0  0  0
  2 25  1  0  0  0  0
  3  8  1  0  0  0  0
  3 10  1  0  0  0  0
  3 11  1  0  0  0  0
  4 12  1  0  0  0  0
  4 13  1  0  0  0  0
  4 18  1  0  0  0  0
  5  6  1  0  0  0  0
  5  7  1  0  0  0  0
  5  8  1  6  0  0  0
  5 26  1  0  0  0  0
  6  7  1  0  0  0  0
  6  9  1  1  0  0  0
  6 27  1  0  0  0  0
  7 28  1  0  0  0  0
  7 29  1  0  0  0  0
  8 30  1  0  0  0  0
  8 31  1  0  0  0  0
  9 14  2  0  0  0  0
  9 15  1  0  0  0  0
 10 12  1  0  0  0  0
 10 32  1  0  0  0  0
 10 33  1  0  0  0  0
 11 13  1  0  0  0  0
 11 34  1  0  0  0  0
 11 35  1  0  0  0  0
 12 36  1  0  0  0  0
 12 37  1  0  0  0  0
 13 38  1  0  0  0  0
 13 39  1  0  0  0  0
 14 16  1  0  0  0  0
 14 40  1  0  0  0  0
 15 17  2  0  0  0  0
 15 41  1  0  0  0  0
 16 19  2  0  0  0  0
 16 42  1  0  0  0  0
 17 19  1  0  0  0  0
 17 43  1  0  0  0  0
 18 20  1  0  0  0  0
 18 21  2  0  0  0  0
 19 44  1  0  0  0  0
 20 22  2  0  0  0  0
 21 23  1  0  0  0  0
 21 45  1  0  0  0  0
 22 24  1  0  0  0  0
 22 46  1  0  0  0  0
 23 24  2  0  0  0  0
 23 47  1  0  0  0  0
 24 48  1  0  0  0  0
 25 49  1  0  0  0  0
 25 50  1  0  0  0  0
 25 51  1  0  0  0  0
M  END
> <PUBCHEM_COMPOUND_CID>
49860024

> <PUBCHEM_COMPOUND_CANONICALIZED>
1

> <PUBCHEM_CACTVS_COMPLEXITY>
387

> <PUBCHEM_CACTVS_HBOND_ACCEPTOR>
3

> <PUBCHEM_CACTVS_HBOND_DONOR>
1

> <PUBCHEM_CACTVS_ROTATABLE_BOND>
5

> <PUBCHEM_CACTVS_SUBSKEYS>
AAADceB7IAAAEAAAAAAAAAAAGAAAAAAAAAA8YIAAAAAAAAABQAAAHgAAAAAADQzBmAYyxoMABACAAiRCQACCCAAhIgAIiAAPbIgOZiLEsZuVMChkwBHY6AeQwMAOgAAAAAAAEAAAAAAAAAAgAAAAAAAAAA==

> <PUBCHEM_IUPAC_OPENEYE_NAME>
1-(2-methoxyphenyl)-4-[[(1S,2S)-2-phenylcyclopropyl]methyl]piperazine;hydrobromide

> <PUBCHEM_IUPAC_CAS_NAME>
1-(2-methoxyphenyl)-4-[[(1S,2S)-2-phenylcyclopropyl]methyl]piperazine;hydrobromide

> <PUBCHEM_IUPAC_NAME_MARKUP>
1-(2-methoxyphenyl)-4-[[(1<I>S</I>,2<I>S</I>)-2-phenylcyclopropyl]methyl]piperazine;hydrobromide

> <PUBCHEM_IUPAC_NAME>
1-(2-methoxyphenyl)-4-[[(1S,2S)-2-phenylcyclopropyl]methyl]piperazine;hydrobromide

> <PUBCHEM_IUPAC_SYSTEMATIC_NAME>
1-(2-methoxyphenyl)-4-[[(1S,2S)-2-phenylcyclopropyl]methyl]piperazine;hydrobromide

> <PUBCHEM_IUPAC_TRADITIONAL_NAME>
1-(2-methoxyphenyl)-4-[[(1S,2S)-2-phenylcyclopropyl]methyl]piperazine;hydrobromide

> <PUBCHEM_IUPAC_INCHI>
InChI=1S/C21H26N2O.BrH/c1-24-21-10-6-5-9-20(21)23-13-11-22(12-14-23)16-18-15-19(18)17-7-3-2-4-8-17;/h2-10,18-19H,11-16H2,1H3;1H/t18-,19-;/m1./s1

> <PUBCHEM_IUPAC_INCHIKEY>
TXWPUMRKOZKZRM-STYNFMPRSA-N

> <PUBCHEM_EXACT_MASS>
402.13068

> <PUBCHEM_MOLECULAR_FORMULA>
C21H27BrN2O

> <PUBCHEM_MOLECULAR_WEIGHT>
403.4

> <PUBCHEM_OPENEYE_CAN_SMILES>
COC1=CC=CC=C1N2CCN(CC2)CC3CC3C4=CC=CC=C4.Br

> <PUBCHEM_OPENEYE_ISO_SMILES>
COC1=CC=CC=C1N2CCN(CC2)C[C@H]3C[C@@H]3C4=CC=CC=C4.Br

> <PUBCHEM_CACTVS_TPSA>
15.7

> <PUBCHEM_MONOISOTOPIC_WEIGHT>
402.13068

> <PUBCHEM_TOTAL_CHARGE>
0

> <PUBCHEM_HEAVY_ATOM_COUNT>
25

> <PUBCHEM_ATOM_DEF_STEREO_COUNT>
2

> <PUBCHEM_ATOM_UDEF_STEREO_COUNT>
0

> <PUBCHEM_BOND_DEF_STEREO_COUNT>
0

> <PUBCHEM_BOND_UDEF_STEREO_COUNT>
0

> <PUBCHEM_ISOTOPIC_ATOM_COUNT>
0

> <PUBCHEM_COMPONENT_COUNT>
2

> <PUBCHEM_CACTVS_TAUTO_COUNT>
-1

> <PUBCHEM_COORDINATE_TYPE>
1
5
255

> <PUBCHEM_BONDANNOTATIONS>
14  16  8
15  17  8
16  19  8
17  19  8
18  20  8
18  21  8
20  22  8
21  23  8
22  24  8
23  24  8
5  8  6
6  9  5
9  14  8
9  15  8

$$$$
