68281137
  -OEChem-09292322352D

 59 62  0     0  0  0  0  0  0999 V2000
    9.4778    2.7003    0.0000 S   0  0  0  0  0  0  0  0  0  0  0  0
   14.0131    5.4262    0.0000 F   0  0  0  0  0  0  0  0  0  0  0  0
   14.6530    4.1650    0.0000 F   0  0  0  0  0  0  0  0  0  0  0  0
   12.7519    4.7864    0.0000 F   0  0  0  0  0  0  0  0  0  0  0  0
    4.6783   -5.2310    0.0000 O   0  0  0  0  0  0  0  0  0  0  0  0
    9.2715    3.6788    0.0000 O   0  0  0  0  0  0  0  0  0  0  0  0
    9.6840    1.7218    0.0000 O   0  0  0  0  0  0  0  0  0  0  0  0
   13.3918    3.5252    0.0000 O   0  0  0  0  0  0  0  0  0  0  0  0
    5.6103   -0.7699    0.0000 N   0  0  0  0  0  0  0  0  0  0  0  0
    4.9889   -2.6710    0.0000 N   0  0  0  0  0  0  0  0  0  0  0  0
    5.2619   -4.4262    0.0000 N   0  0  0  0  0  0  0  0  0  0  0  0
    8.4993    2.4941    0.0000 N   0  0  0  0  0  0  0  0  0  0  0  0
    4.6318   -0.9761    0.0000 C   0  0  0  0  0  0  0  0  0  0  0  0
    6.2781   -1.5142    0.0000 C   0  0  0  0  0  0  0  0  0  0  0  0
    4.3211   -1.9267    0.0000 C   0  0  0  0  0  0  0  0  0  0  0  0
    5.9674   -2.4647    0.0000 C   0  0  0  0  0  0  0  0  0  0  0  0
    5.9209    0.1806    0.0000 C   0  0  0  0  0  0  0  0  0  0  0  0
    6.8994    0.3868    0.0000 C   0  0  0  0  0  0  0  0  0  0  0  0
    7.2101    1.3373    0.0000 C   0  0  0  0  0  0  0  0  0  0  0  0
    4.6783   -3.6215    0.0000 C   0  0  0  0  0  0  0  0  0  0  0  0
    8.1886    1.5436    0.0000 C   0  0  0  0  0  0  0  0  0  0  0  0
    3.7320   -3.9262    0.0000 C   0  0  0  0  0  0  0  0  0  0  0  0
    3.7320   -4.9262    0.0000 C   0  0  0  0  0  0  0  0  0  0  0  0
    2.8660   -3.4262    0.0000 C   0  0  0  0  0  0  0  0  0  0  0  0
    2.8660   -5.4262    0.0000 C   0  0  0  0  0  0  0  0  0  0  0  0
    2.0000   -3.9262    0.0000 C   0  0  0  0  0  0  0  0  0  0  0  0
   10.4563    2.9065    0.0000 C   0  0  0  0  0  0  0  0  0  0  0  0
    2.0000   -4.9262    0.0000 C   0  0  0  0  0  0  0  0  0  0  0  0
   11.1241    2.1622    0.0000 C   0  0  0  0  0  0  0  0  0  0  0  0
   10.7669    3.8570    0.0000 C   0  0  0  0  0  0  0  0  0  0  0  0
   12.1026    2.3684    0.0000 C   0  0  0  0  0  0  0  0  0  0  0  0
   11.7454    4.0633    0.0000 C   0  0  0  0  0  0  0  0  0  0  0  0
   12.4133    3.3190    0.0000 C   0  0  0  0  0  0  0  0  0  0  0  0
   13.7024    4.4757    0.0000 C   0  0  0  0  0  0  0  0  0  0  0  0
    4.6112   -0.3565    0.0000 H   0  0  0  0  0  0  0  0  0  0  0  0
    4.0179   -0.8888    0.0000 H   0  0  0  0  0  0  0  0  0  0  0  0
    6.8250   -1.8062    0.0000 H   0  0  0  0  0  0  0  0  0  0  0  0
    6.6607   -1.0263    0.0000 H   0  0  0  0  0  0  0  0  0  0  0  0
    3.7742   -1.6346    0.0000 H   0  0  0  0  0  0  0  0  0  0  0  0
    3.9385   -2.4146    0.0000 H   0  0  0  0  0  0  0  0  0  0  0  0
    5.9880   -3.0844    0.0000 H   0  0  0  0  0  0  0  0  0  0  0  0
    6.5812   -2.5521    0.0000 H   0  0  0  0  0  0  0  0  0  0  0  0
    5.9004    0.8003    0.0000 H   0  0  0  0  0  0  0  0  0  0  0  0
    5.3071    0.2680    0.0000 H   0  0  0  0  0  0  0  0  0  0  0  0
    6.9200   -0.2328    0.0000 H   0  0  0  0  0  0  0  0  0  0  0  0
    7.5132    0.2995    0.0000 H   0  0  0  0  0  0  0  0  0  0  0  0
    7.1895    1.9570    0.0000 H   0  0  0  0  0  0  0  0  0  0  0  0
    6.5963    1.4247    0.0000 H   0  0  0  0  0  0  0  0  0  0  0  0
    8.2092    0.9239    0.0000 H   0  0  0  0  0  0  0  0  0  0  0  0
    8.8024    1.4562    0.0000 H   0  0  0  0  0  0  0  0  0  0  0  0
    8.0852    2.9556    0.0000 H   0  0  0  0  0  0  0  0  0  0  0  0
    2.8660   -2.8062    0.0000 H   0  0  0  0  0  0  0  0  0  0  0  0
    2.8660   -6.0462    0.0000 H   0  0  0  0  0  0  0  0  0  0  0  0
    1.4631   -3.6162    0.0000 H   0  0  0  0  0  0  0  0  0  0  0  0
    1.4631   -5.2362    0.0000 H   0  0  0  0  0  0  0  0  0  0  0  0
   10.9315    1.5729    0.0000 H   0  0  0  0  0  0  0  0  0  0  0  0
   10.3529    4.3185    0.0000 H   0  0  0  0  0  0  0  0  0  0  0  0
   12.5167    1.9070    0.0000 H   0  0  0  0  0  0  0  0  0  0  0  0
   11.9380    4.6526    0.0000 H   0  0  0  0  0  0  0  0  0  0  0  0
  1  6  2  0  0  0  0
  1  7  2  0  0  0  0
  1 12  1  0  0  0  0
  1 27  1  0  0  0  0
  2 34  1  0  0  0  0
  3 34  1  0  0  0  0
  4 34  1  0  0  0  0
  5 11  1  0  0  0  0
  5 23  1  0  0  0  0
  8 33  1  0  0  0  0
  8 34  1  0  0  0  0
  9 13  1  0  0  0  0
  9 14  1  0  0  0  0
  9 17  1  0  0  0  0
 10 15  1  0  0  0  0
 10 16  1  0  0  0  0
 10 20  1  0  0  0  0
 11 20  2  0  0  0  0
 12 21  1  0  0  0  0
 12 51  1  0  0  0  0
 13 15  1  0  0  0  0
 13 35  1  0  0  0  0
 13 36  1  0  0  0  0
 14 16  1  0  0  0  0
 14 37  1  0  0  0  0
 14 38  1  0  0  0  0
 15 39  1  0  0  0  0
 15 40  1  0  0  0  0
 16 41  1  0  0  0  0
 16 42  1  0  0  0  0
 17 18  1  0  0  0  0
 17 43  1  0  0  0  0
 17 44  1  0  0  0  0
 18 19  1  0  0  0  0
 18 45  1  0  0  0  0
 18 46  1  0  0  0  0
 19 21  1  0  0  0  0
 19 47  1  0  0  0  0
 19 48  1  0  0  0  0
 20 22  1  0  0  0  0
 21 49  1  0  0  0  0
 21 50  1  0  0  0  0
 22 23  1  0  0  0  0
 22 24  2  0  0  0  0
 23 25  2  0  0  0  0
 24 26  1  0  0  0  0
 24 52  1  0  0  0  0
 25 28  1  0  0  0  0
 25 53  1  0  0  0  0
 26 28  2  0  0  0  0
 26 54  1  0  0  0  0
 27 29  2  0  0  0  0
 27 30  1  0  0  0  0
 28 55  1  0  0  0  0
 29 31  1  0  0  0  0
 29 56  1  0  0  0  0
 30 32  2  0  0  0  0
 30 57  1  0  0  0  0
 31 33  2  0  0  0  0
 31 58  1  0  0  0  0
 32 33  1  0  0  0  0
 32 59  1  0  0  0  0
M  END
> <PUBCHEM_COMPOUND_CID>
68281137

> <PUBCHEM_COMPOUND_CANONICALIZED>
1

> <PUBCHEM_CACTVS_COMPLEXITY>
735

> <PUBCHEM_CACTVS_HBOND_ACCEPTOR>
11

> <PUBCHEM_CACTVS_HBOND_DONOR>
1

> <PUBCHEM_CACTVS_ROTATABLE_BOND>
9

> <PUBCHEM_CACTVS_SUBSKEYS>
AAADceB7uYBAAAAAAAAAAAAAAAAAAWAAAAA8YIAAAAAAAFgB9AAAHwQUQAAADATB2hQxt9NQBAKpAqJyYnDCCBAlIAApmLkuTNqMZrrEvZuUMahm0BvI6ceYyCCOAIAAAAAIAAABAAAAABAAAAAAAAAAAA==

> <PUBCHEM_IUPAC_OPENEYE_NAME>
N-[4-[4-(1,2-benzoxazol-3-yl)piperazin-1-yl]butyl]-4-(trifluoromethoxy)benzenesulfonamide

> <PUBCHEM_IUPAC_CAS_NAME>
N-[4-[4-(1,2-benzoxazol-3-yl)-1-piperazinyl]butyl]-4-(trifluoromethoxy)benzenesulfonamide

> <PUBCHEM_IUPAC_NAME_MARKUP>
<I>N</I>-[4-[4-(1,2-benzoxazol-3-yl)piperazin-1-yl]butyl]-4-(trifluoromethoxy)benzenesulfonamide

> <PUBCHEM_IUPAC_NAME>
N-[4-[4-(1,2-benzoxazol-3-yl)piperazin-1-yl]butyl]-4-(trifluoromethoxy)benzenesulfonamide

> <PUBCHEM_IUPAC_SYSTEMATIC_NAME>
N-[4-[4-(1,2-benzoxazol-3-yl)piperazin-1-yl]butyl]-4-(trifluoromethyloxy)benzenesulfonamide

> <PUBCHEM_IUPAC_TRADITIONAL_NAME>
N-[4-(4-indoxazen-3-ylpiperazino)butyl]-4-(trifluoromethoxy)benzenesulfonamide

> <PUBCHEM_IUPAC_INCHI>
InChI=1S/C22H25F3N4O4S/c23-22(24,25)32-17-7-9-18(10-8-17)34(30,31)26-11-3-4-12-28-13-15-29(16-14-28)21-19-5-1-2-6-20(19)33-27-21/h1-2,5-10,26H,3-4,11-16H2

> <PUBCHEM_IUPAC_INCHIKEY>
XCQOYNXZUPVYAF-UHFFFAOYSA-N

> <PUBCHEM_XLOGP3_AA>
4.5

> <PUBCHEM_EXACT_MASS>
498.15486095

> <PUBCHEM_MOLECULAR_FORMULA>
C22H25F3N4O4S

> <PUBCHEM_MOLECULAR_WEIGHT>
498.5

> <PUBCHEM_OPENEYE_CAN_SMILES>
C1CN(CCN1CCCCNS(=O)(=O)C2=CC=C(C=C2)OC(F)(F)F)C3=NOC4=CC=CC=C43

> <PUBCHEM_OPENEYE_ISO_SMILES>
C1CN(CCN1CCCCNS(=O)(=O)C2=CC=C(C=C2)OC(F)(F)F)C3=NOC4=CC=CC=C43

> <PUBCHEM_CACTVS_TPSA>
96.3

> <PUBCHEM_MONOISOTOPIC_WEIGHT>
498.15486095

> <PUBCHEM_TOTAL_CHARGE>
0

> <PUBCHEM_HEAVY_ATOM_COUNT>
34

> <PUBCHEM_ATOM_DEF_STEREO_COUNT>
0

> <PUBCHEM_ATOM_UDEF_STEREO_COUNT>
0

> <PUBCHEM_BOND_DEF_STEREO_COUNT>
0

> <PUBCHEM_BOND_UDEF_STEREO_COUNT>
0

> <PUBCHEM_ISOTOPIC_ATOM_COUNT>
0

> <PUBCHEM_COMPONENT_COUNT>
1

> <PUBCHEM_CACTVS_TAUTO_COUNT>
-1

> <PUBCHEM_COORDINATE_TYPE>
1
5
255

> <PUBCHEM_BONDANNOTATIONS>
11  20  8
20  22  8
22  23  8
22  24  8
23  25  8
24  26  8
25  28  8
26  28  8
27  29  8
27  30  8
29  31  8
30  32  8
31  33  8
32  33  8
5  11  8
5  23  8

$$$$
