11071079
  -OEChem-09292322032D

 67 70  0     0  0  0  0  0  0999 V2000
    6.3301    8.0000    0.0000 F   0  0  0  0  0  0  0  0  0  0  0  0
    9.7942    2.0000    0.0000 F   0  0  0  0  0  0  0  0  0  0  0  0
    2.8660   -8.0000    0.0000 F   0  0  0  0  0  0  0  0  0  0  0  0
    3.7320   -2.5000    0.0000 O   0  0  0  0  0  0  0  0  0  0  0  0
    5.4641   -2.5000    0.0000 O   0  0  0  0  0  0  0  0  0  0  0  0
    4.5981    1.0000    0.0000 N   0  0  0  0  0  0  0  0  0  0  0  0
    4.5981   -1.0000    0.0000 N   0  0  0  0  0  0  0  0  0  0  0  0
    4.5981    2.0000    0.0000 C   0  0  0  0  0  0  0  0  0  0  0  0
    5.4641    0.5000    0.0000 C   0  0  0  0  0  0  0  0  0  0  0  0
    3.7320    0.5000    0.0000 C   0  0  0  0  0  0  0  0  0  0  0  0
    5.4641    2.5000    0.0000 C   0  0  0  0  0  0  0  0  0  0  0  0
    5.4641   -0.5000    0.0000 C   0  0  0  0  0  0  0  0  0  0  0  0
    3.7320   -0.5000    0.0000 C   0  0  0  0  0  0  0  0  0  0  0  0
    5.4641    3.5000    0.0000 C   0  0  0  0  0  0  0  0  0  0  0  0
    6.3301    4.0000    0.0000 C   0  0  0  0  0  0  0  0  0  0  0  0
    6.3301    5.0000    0.0000 C   0  0  0  0  0  0  0  0  0  0  0  0
    7.1962    3.5000    0.0000 C   0  0  0  0  0  0  0  0  0  0  0  0
    4.5981   -2.0000    0.0000 C   0  0  0  0  0  0  0  0  0  0  0  0
    5.4641    5.5000    0.0000 C   0  0  0  0  0  0  0  0  0  0  0  0
    8.0622    4.0000    0.0000 C   0  0  0  0  0  0  0  0  0  0  0  0
    7.1962    5.5000    0.0000 C   0  0  0  0  0  0  0  0  0  0  0  0
    7.1962    2.5000    0.0000 C   0  0  0  0  0  0  0  0  0  0  0  0
    5.4641    6.5000    0.0000 C   0  0  0  0  0  0  0  0  0  0  0  0
    8.9282    3.5000    0.0000 C   0  0  0  0  0  0  0  0  0  0  0  0
    7.1962    6.5000    0.0000 C   0  0  0  0  0  0  0  0  0  0  0  0
    8.0622    2.0000    0.0000 C   0  0  0  0  0  0  0  0  0  0  0  0
    3.7320   -3.5000    0.0000 C   0  0  0  0  0  0  0  0  0  0  0  0
    6.3301    7.0000    0.0000 C   0  0  0  0  0  0  0  0  0  0  0  0
    8.9282    2.5000    0.0000 C   0  0  0  0  0  0  0  0  0  0  0  0
    2.8660   -4.0000    0.0000 C   0  0  0  0  0  0  0  0  0  0  0  0
    2.8660   -5.0000    0.0000 C   0  0  0  0  0  0  0  0  0  0  0  0
    3.7320   -5.5000    0.0000 C   0  0  0  0  0  0  0  0  0  0  0  0
    2.0000   -5.5000    0.0000 C   0  0  0  0  0  0  0  0  0  0  0  0
    3.7320   -6.5000    0.0000 C   0  0  0  0  0  0  0  0  0  0  0  0
    2.0000   -6.5000    0.0000 C   0  0  0  0  0  0  0  0  0  0  0  0
    2.8660   -7.0000    0.0000 C   0  0  0  0  0  0  0  0  0  0  0  0
    4.3860    2.5826    0.0000 H   0  0  0  0  0  0  0  0  0  0  0  0
    3.9875    1.8923    0.0000 H   0  0  0  0  0  0  0  0  0  0  0  0
    6.0747    0.3923    0.0000 H   0  0  0  0  0  0  0  0  0  0  0  0
    5.6762    1.0826    0.0000 H   0  0  0  0  0  0  0  0  0  0  0  0
    3.5200    1.0826    0.0000 H   0  0  0  0  0  0  0  0  0  0  0  0
    3.1215    0.3923    0.0000 H   0  0  0  0  0  0  0  0  0  0  0  0
    5.6762    1.9174    0.0000 H   0  0  0  0  0  0  0  0  0  0  0  0
    6.0747    2.6077    0.0000 H   0  0  0  0  0  0  0  0  0  0  0  0
    5.6762   -1.0826    0.0000 H   0  0  0  0  0  0  0  0  0  0  0  0
    6.0747   -0.3923    0.0000 H   0  0  0  0  0  0  0  0  0  0  0  0
    3.1215   -0.3923    0.0000 H   0  0  0  0  0  0  0  0  0  0  0  0
    3.5200   -1.0826    0.0000 H   0  0  0  0  0  0  0  0  0  0  0  0
    5.2520    4.0826    0.0000 H   0  0  0  0  0  0  0  0  0  0  0  0
    4.8535    3.3923    0.0000 H   0  0  0  0  0  0  0  0  0  0  0  0
    5.7932    4.3100    0.0000 H   0  0  0  0  0  0  0  0  0  0  0  0
    4.9272    5.1900    0.0000 H   0  0  0  0  0  0  0  0  0  0  0  0
    8.0622    4.6200    0.0000 H   0  0  0  0  0  0  0  0  0  0  0  0
    7.7331    5.1900    0.0000 H   0  0  0  0  0  0  0  0  0  0  0  0
    6.6592    2.1900    0.0000 H   0  0  0  0  0  0  0  0  0  0  0  0
    4.9272    6.8100    0.0000 H   0  0  0  0  0  0  0  0  0  0  0  0
    9.4651    3.8100    0.0000 H   0  0  0  0  0  0  0  0  0  0  0  0
    7.7331    6.8100    0.0000 H   0  0  0  0  0  0  0  0  0  0  0  0
    8.0622    1.3800    0.0000 H   0  0  0  0  0  0  0  0  0  0  0  0
    3.9441   -4.0826    0.0000 H   0  0  0  0  0  0  0  0  0  0  0  0
    4.3426   -3.3923    0.0000 H   0  0  0  0  0  0  0  0  0  0  0  0
    2.6540   -3.4174    0.0000 H   0  0  0  0  0  0  0  0  0  0  0  0
    2.2554   -4.1077    0.0000 H   0  0  0  0  0  0  0  0  0  0  0  0
    4.2690   -5.1900    0.0000 H   0  0  0  0  0  0  0  0  0  0  0  0
    1.4631   -5.1900    0.0000 H   0  0  0  0  0  0  0  0  0  0  0  0
    4.2690   -6.8100    0.0000 H   0  0  0  0  0  0  0  0  0  0  0  0
    1.4631   -6.8100    0.0000 H   0  0  0  0  0  0  0  0  0  0  0  0
  1 28  1  0  0  0  0
  2 29  1  0  0  0  0
  3 36  1  0  0  0  0
  4 18  1  0  0  0  0
  4 27  1  0  0  0  0
  5 18  2  0  0  0  0
  6  8  1  0  0  0  0
  6  9  1  0  0  0  0
  6 10  1  0  0  0  0
  7 12  1  0  0  0  0
  7 13  1  0  0  0  0
  7 18  1  0  0  0  0
  8 11  1  0  0  0  0
  8 37  1  0  0  0  0
  8 38  1  0  0  0  0
  9 12  1  0  0  0  0
  9 39  1  0  0  0  0
  9 40  1  0  0  0  0
 10 13  1  0  0  0  0
 10 41  1  0  0  0  0
 10 42  1  0  0  0  0
 11 14  1  0  0  0  0
 11 43  1  0  0  0  0
 11 44  1  0  0  0  0
 12 45  1  0  0  0  0
 12 46  1  0  0  0  0
 13 47  1  0  0  0  0
 13 48  1  0  0  0  0
 14 15  1  0  0  0  0
 14 49  1  0  0  0  0
 14 50  1  0  0  0  0
 15 16  1  0  0  0  0
 15 17  1  0  0  0  0
 15 51  1  0  0  0  0
 16 19  2  0  0  0  0
 16 21  1  0  0  0  0
 17 20  2  0  0  0  0
 17 22  1  0  0  0  0
 19 23  1  0  0  0  0
 19 52  1  0  0  0  0
 20 24  1  0  0  0  0
 20 53  1  0  0  0  0
 21 25  2  0  0  0  0
 21 54  1  0  0  0  0
 22 26  2  0  0  0  0
 22 55  1  0  0  0  0
 23 28  2  0  0  0  0
 23 56  1  0  0  0  0
 24 29  2  0  0  0  0
 24 57  1  0  0  0  0
 25 28  1  0  0  0  0
 25 58  1  0  0  0  0
 26 29  1  0  0  0  0
 26 59  1  0  0  0  0
 27 30  1  0  0  0  0
 27 60  1  0  0  0  0
 27 61  1  0  0  0  0
 30 31  1  0  0  0  0
 30 62  1  0  0  0  0
 30 63  1  0  0  0  0
 31 32  2  0  0  0  0
 31 33  1  0  0  0  0
 32 34  1  0  0  0  0
 32 64  1  0  0  0  0
 33 35  2  0  0  0  0
 33 65  1  0  0  0  0
 34 36  2  0  0  0  0
 34 66  1  0  0  0  0
 35 36  1  0  0  0  0
 35 67  1  0  0  0  0
M  END
> <PUBCHEM_COMPOUND_CID>
11071079

> <PUBCHEM_COMPOUND_CANONICALIZED>
1

> <PUBCHEM_CACTVS_COMPLEXITY>
614

> <PUBCHEM_CACTVS_HBOND_ACCEPTOR>
6

> <PUBCHEM_CACTVS_HBOND_DONOR>
0

> <PUBCHEM_CACTVS_ROTATABLE_BOND>
10

> <PUBCHEM_CACTVS_SUBSKEYS>
AAADceB7MYAAAAAAAAAAAAAAAAAAAAAAAAA8YMEAAAAAAAABUAAAHwAAAAAADQDhmA4wCIMABACIAiBCGAACAAAgAAAIiAAIAIgIYCKAkRCcIAAkxgGIiAeQwOAOgAAAAAAAAAAAAAAAAAAAAAAAAAAAAA==

> <PUBCHEM_IUPAC_OPENEYE_NAME>
2-(4-fluorophenyl)ethyl 4-[4,4-bis(4-fluorophenyl)butyl]piperazine-1-carboxylate

> <PUBCHEM_IUPAC_CAS_NAME>
4-[4,4-bis(4-fluorophenyl)butyl]-1-piperazinecarboxylic acid 2-(4-fluorophenyl)ethyl ester

> <PUBCHEM_IUPAC_NAME_MARKUP>
2-(4-fluorophenyl)ethyl 4-[4,4-bis(4-fluorophenyl)butyl]piperazine-1-carboxylate

> <PUBCHEM_IUPAC_NAME>
2-(4-fluorophenyl)ethyl 4-[4,4-bis(4-fluorophenyl)butyl]piperazine-1-carboxylate

> <PUBCHEM_IUPAC_SYSTEMATIC_NAME>
2-(4-fluorophenyl)ethyl 4-[4,4-bis(4-fluorophenyl)butyl]piperazine-1-carboxylate

> <PUBCHEM_IUPAC_TRADITIONAL_NAME>
4-[4,4-bis(4-fluorophenyl)butyl]piperazine-1-carboxylic acid 2-(4-fluorophenyl)ethyl ester

> <PUBCHEM_IUPAC_INCHI>
InChI=1S/C29H31F3N2O2/c30-25-9-3-22(4-10-25)15-21-36-29(35)34-19-17-33(18-20-34)16-1-2-28(23-5-11-26(31)12-6-23)24-7-13-27(32)14-8-24/h3-14,28H,1-2,15-21H2

> <PUBCHEM_IUPAC_INCHIKEY>
NEUFWHZAVWYYSZ-UHFFFAOYSA-N

> <PUBCHEM_XLOGP3_AA>
6.3

> <PUBCHEM_EXACT_MASS>
496.23376272

> <PUBCHEM_MOLECULAR_FORMULA>
C29H31F3N2O2

> <PUBCHEM_MOLECULAR_WEIGHT>
496.6

> <PUBCHEM_OPENEYE_CAN_SMILES>
C1CN(CCN1CCCC(C2=CC=C(C=C2)F)C3=CC=C(C=C3)F)C(=O)OCCC4=CC=C(C=C4)F

> <PUBCHEM_OPENEYE_ISO_SMILES>
C1CN(CCN1CCCC(C2=CC=C(C=C2)F)C3=CC=C(C=C3)F)C(=O)OCCC4=CC=C(C=C4)F

> <PUBCHEM_CACTVS_TPSA>
32.8

> <PUBCHEM_MONOISOTOPIC_WEIGHT>
496.23376272

> <PUBCHEM_TOTAL_CHARGE>
0

> <PUBCHEM_HEAVY_ATOM_COUNT>
36

> <PUBCHEM_ATOM_DEF_STEREO_COUNT>
0

> <PUBCHEM_ATOM_UDEF_STEREO_COUNT>
0

> <PUBCHEM_BOND_DEF_STEREO_COUNT>
0

> <PUBCHEM_BOND_UDEF_STEREO_COUNT>
0

> <PUBCHEM_ISOTOPIC_ATOM_COUNT>
0

> <PUBCHEM_COMPONENT_COUNT>
1

> <PUBCHEM_CACTVS_TAUTO_COUNT>
-1

> <PUBCHEM_COORDINATE_TYPE>
1
5
255

> <PUBCHEM_BONDANNOTATIONS>
16  19  8
16  21  8
17  20  8
17  22  8
19  23  8
20  24  8
21  25  8
22  26  8
23  28  8
24  29  8
25  28  8
26  29  8
31  32  8
31  33  8
32  34  8
33  35  8
34  36  8
35  36  8

$$$$
