137661635
  -OEChem-09292322002D

 73 75  0     0  0  0  0  0  0999 V2000
   12.9292    7.7150    0.0000 Cl  0  0  0  0  0  0  0  0  0  0  0  0
    9.5263   12.3100    0.0000 O   0  0  0  0  0  0  0  0  0  0  0  0
    2.5981    7.3100    0.0000 O   0  0  0  0  0  0  0  0  0  0  0  0
    4.3301    7.3100    0.0000 O   0  0  0  0  0  0  0  0  0  0  0  0
    0.0000    1.8100    0.0000 O   0  0  0  0  0  0  0  0  0  0  0  0
    6.0622   12.3100    0.0000 N   0  0  0  0  0  0  0  0  0  0  0  0
    7.7942   13.3100    0.0000 N   0  0  0  0  0  0  0  0  0  0  0  0
    3.4641    8.8100    0.0000 N   0  0  0  0  0  0  0  0  0  0  0  0
    0.8660    0.3100    0.0000 N   0  0  0  0  0  0  0  0  0  0  0  0
    6.9282   11.8100    0.0000 C   0  0  0  0  0  0  0  0  0  0  0  0
    6.0622   13.3100    0.0000 C   0  0  0  0  0  0  0  0  0  0  0  0
    7.7942   12.3100    0.0000 C   0  0  0  0  0  0  0  0  0  0  0  0
    6.9282   13.8100    0.0000 C   0  0  0  0  0  0  0  0  0  0  0  0
    5.1962   11.8100    0.0000 C   0  0  0  0  0  0  0  0  0  0  0  0
    5.1962   10.8100    0.0000 C   0  0  0  0  0  0  0  0  0  0  0  0
    8.6602   13.8100    0.0000 C   0  0  0  0  0  0  0  0  0  0  0  0
    4.3301   10.3100    0.0000 C   0  0  0  0  0  0  0  0  0  0  0  0
    4.3301    9.3100    0.0000 C   0  0  0  0  0  0  0  0  0  0  0  0
    9.5263   13.3100    0.0000 C   0  0  0  0  0  0  0  0  0  0  0  0
    8.6602   14.8100    0.0000 C   0  0  0  0  0  0  0  0  0  0  0  0
   10.3923   13.8100    0.0000 C   0  0  0  0  0  0  0  0  0  0  0  0
    9.5263   15.3100    0.0000 C   0  0  0  0  0  0  0  0  0  0  0  0
   10.3923   14.8100    0.0000 C   0  0  0  0  0  0  0  0  0  0  0  0
    3.4641    7.8100    0.0000 C   0  0  0  0  0  0  0  0  0  0  0  0
   10.3923   11.8100    0.0000 C   0  0  0  0  0  0  0  0  0  0  0  0
    2.5981    6.3100    0.0000 C   0  0  0  0  0  0  0  0  0  0  0  0
    2.5981    4.3100    0.0000 C   0  0  0  0  0  0  0  0  0  0  0  0
    1.7320    5.8100    0.0000 C   0  0  0  0  0  0  0  0  0  0  0  0
    3.4641    5.8100    0.0000 C   0  0  0  0  0  0  0  0  0  0  0  0
    2.5981    3.3100    0.0000 C   0  0  0  0  0  0  0  0  0  0  0  0
    1.7320    4.8100    0.0000 C   0  0  0  0  0  0  0  0  0  0  0  0
    3.4641    4.8100    0.0000 C   0  0  0  0  0  0  0  0  0  0  0  0
    1.7320    2.8100    0.0000 C   0  0  0  0  0  0  0  0  0  0  0  0
    3.4641    2.8100    0.0000 C   0  0  0  0  0  0  0  0  0  0  0  0
    1.7320    1.8100    0.0000 C   0  0  0  0  0  0  0  0  0  0  0  0
    3.4641    1.8100    0.0000 C   0  0  0  0  0  0  0  0  0  0  0  0
    2.5981    1.3100    0.0000 C   0  0  0  0  0  0  0  0  0  0  0  0
    0.8660    1.3100    0.0000 C   0  0  0  0  0  0  0  0  0  0  0  0
    6.5297   11.3351    0.0000 H   0  0  0  0  0  0  0  0  0  0  0  0
    7.3267   11.3351    0.0000 H   0  0  0  0  0  0  0  0  0  0  0  0
    5.8501   13.8926    0.0000 H   0  0  0  0  0  0  0  0  0  0  0  0
    5.4516   13.2023    0.0000 H   0  0  0  0  0  0  0  0  0  0  0  0
    8.0063   11.7274    0.0000 H   0  0  0  0  0  0  0  0  0  0  0  0
    8.4048   12.4177    0.0000 H   0  0  0  0  0  0  0  0  0  0  0  0
    7.3267   14.2849    0.0000 H   0  0  0  0  0  0  0  0  0  0  0  0
    6.5297   14.2849    0.0000 H   0  0  0  0  0  0  0  0  0  0  0  0
    4.9841   12.3926    0.0000 H   0  0  0  0  0  0  0  0  0  0  0  0
    4.5856   11.7023    0.0000 H   0  0  0  0  0  0  0  0  0  0  0  0
    5.4082   10.2274    0.0000 H   0  0  0  0  0  0  0  0  0  0  0  0
    5.8067   10.9177    0.0000 H   0  0  0  0  0  0  0  0  0  0  0  0
    4.1181   10.8926    0.0000 H   0  0  0  0  0  0  0  0  0  0  0  0
    3.7196   10.2023    0.0000 H   0  0  0  0  0  0  0  0  0  0  0  0
    4.5422    8.7274    0.0000 H   0  0  0  0  0  0  0  0  0  0  0  0
    4.9407    9.4177    0.0000 H   0  0  0  0  0  0  0  0  0  0  0  0
    8.1233   15.1200    0.0000 H   0  0  0  0  0  0  0  0  0  0  0  0
   10.9292   13.5000    0.0000 H   0  0  0  0  0  0  0  0  0  0  0  0
    9.5263   15.9300    0.0000 H   0  0  0  0  0  0  0  0  0  0  0  0
    2.9272    9.1200    0.0000 H   0  0  0  0  0  0  0  0  0  0  0  0
   10.9292   15.1200    0.0000 H   0  0  0  0  0  0  0  0  0  0  0  0
   10.0823   11.2731    0.0000 H   0  0  0  0  0  0  0  0  0  0  0  0
   10.9292   11.5000    0.0000 H   0  0  0  0  0  0  0  0  0  0  0  0
   10.7023   12.3469    0.0000 H   0  0  0  0  0  0  0  0  0  0  0  0
    1.1951    6.1200    0.0000 H   0  0  0  0  0  0  0  0  0  0  0  0
    4.0010    6.1200    0.0000 H   0  0  0  0  0  0  0  0  0  0  0  0
    1.1951    4.5000    0.0000 H   0  0  0  0  0  0  0  0  0  0  0  0
    4.0010    4.5000    0.0000 H   0  0  0  0  0  0  0  0  0  0  0  0
    1.1951    3.1200    0.0000 H   0  0  0  0  0  0  0  0  0  0  0  0
    4.0010    3.1200    0.0000 H   0  0  0  0  0  0  0  0  0  0  0  0
    4.0010    1.5000    0.0000 H   0  0  0  0  0  0  0  0  0  0  0  0
    2.5981    0.6900    0.0000 H   0  0  0  0  0  0  0  0  0  0  0  0
    0.3291    0.0000    0.0000 H   0  0  0  0  0  0  0  0  0  0  0  0
    1.4030    0.0000    0.0000 H   0  0  0  0  0  0  0  0  0  0  0  0
   13.9292    7.7150    0.0000 H   0  0  0  0  0  0  0  0  0  0  0  0
  1 73  1  0  0  0  0
  2 19  1  0  0  0  0
  2 25  1  0  0  0  0
  3 24  1  0  0  0  0
  3 26  1  0  0  0  0
  4 24  2  0  0  0  0
  5 38  2  0  0  0  0
  6 10  1  0  0  0  0
  6 11  1  0  0  0  0
  6 14  1  0  0  0  0
  7 12  1  0  0  0  0
  7 13  1  0  0  0  0
  7 16  1  0  0  0  0
  8 18  1  0  0  0  0
  8 24  1  0  0  0  0
  8 58  1  0  0  0  0
  9 38  1  0  0  0  0
  9 71  1  0  0  0  0
  9 72  1  0  0  0  0
 10 12  1  0  0  0  0
 10 39  1  0  0  0  0
 10 40  1  0  0  0  0
 11 13  1  0  0  0  0
 11 41  1  0  0  0  0
 11 42  1  0  0  0  0
 12 43  1  0  0  0  0
 12 44  1  0  0  0  0
 13 45  1  0  0  0  0
 13 46  1  0  0  0  0
 14 15  1  0  0  0  0
 14 47  1  0  0  0  0
 14 48  1  0  0  0  0
 15 17  1  0  0  0  0
 15 49  1  0  0  0  0
 15 50  1  0  0  0  0
 16 19  1  0  0  0  0
 16 20  2  0  0  0  0
 17 18  1  0  0  0  0
 17 51  1  0  0  0  0
 17 52  1  0  0  0  0
 18 53  1  0  0  0  0
 18 54  1  0  0  0  0
 19 21  2  0  0  0  0
 20 22  1  0  0  0  0
 20 55  1  0  0  0  0
 21 23  1  0  0  0  0
 21 56  1  0  0  0  0
 22 23  2  0  0  0  0
 22 57  1  0  0  0  0
 23 59  1  0  0  0  0
 25 60  1  0  0  0  0
 25 61  1  0  0  0  0
 25 62  1  0  0  0  0
 26 28  2  0  0  0  0
 26 29  1  0  0  0  0
 27 30  1  0  0  0  0
 27 31  2  0  0  0  0
 27 32  1  0  0  0  0
 28 31  1  0  0  0  0
 28 63  1  0  0  0  0
 29 32  2  0  0  0  0
 29 64  1  0  0  0  0
 30 33  2  0  0  0  0
 30 34  1  0  0  0  0
 31 65  1  0  0  0  0
 32 66  1  0  0  0  0
 33 35  1  0  0  0  0
 33 67  1  0  0  0  0
 34 36  2  0  0  0  0
 34 68  1  0  0  0  0
 35 37  2  0  0  0  0
 35 38  1  0  0  0  0
 36 37  1  0  0  0  0
 36 69  1  0  0  0  0
 37 70  1  0  0  0  0
M  END
> <PUBCHEM_COMPOUND_CID>
137661635

> <PUBCHEM_COMPOUND_CANONICALIZED>
1

> <PUBCHEM_CACTVS_COMPLEXITY>
706

> <PUBCHEM_CACTVS_HBOND_ACCEPTOR>
6

> <PUBCHEM_CACTVS_HBOND_DONOR>
3

> <PUBCHEM_CACTVS_ROTATABLE_BOND>
11

> <PUBCHEM_CACTVS_SUBSKEYS>
AAADcfB7uAAEAAAAAAAAAAAAAAAAAAAAAAA8YMEAAAAAAAABUAAAHgAQAAAADAzBmAYyzoPABACIAiVSWACCCAAlIgAIiIEPbMkOZjLEtZudMyhk1hHY6YeYyPCOoAACAAAAEABAAAQAAAAgAAAAAAAAAA==

> <PUBCHEM_IUPAC_OPENEYE_NAME>
[4-(3-carbamoylphenyl)phenyl] N-[4-[4-(2-methoxyphenyl)piperazin-1-yl]butyl]carbamate;hydrochloride

> <PUBCHEM_IUPAC_CAS_NAME>
N-[4-[4-(2-methoxyphenyl)-1-piperazinyl]butyl]carbamic acid [4-(3-carbamoylphenyl)phenyl] ester;hydrochloride

> <PUBCHEM_IUPAC_NAME_MARKUP>
[4-(3-carbamoylphenyl)phenyl] <I>N</I>-[4-[4-(2-methoxyphenyl)piperazin-1-yl]butyl]carbamate;hydrochloride

> <PUBCHEM_IUPAC_NAME>
[4-(3-carbamoylphenyl)phenyl] N-[4-[4-(2-methoxyphenyl)piperazin-1-yl]butyl]carbamate;hydrochloride

> <PUBCHEM_IUPAC_SYSTEMATIC_NAME>
[4-(3-aminocarbonylphenyl)phenyl] N-[4-[4-(2-methoxyphenyl)piperazin-1-yl]butyl]carbamate;hydrochloride

> <PUBCHEM_IUPAC_TRADITIONAL_NAME>
N-[4-[4-(2-methoxyphenyl)piperazino]butyl]carbamic acid [4-(3-carbamoylphenyl)phenyl] ester;hydrochloride

> <PUBCHEM_IUPAC_INCHI>
InChI=1S/C29H34N4O4.ClH/c1-36-27-10-3-2-9-26(27)33-19-17-32(18-20-33)16-5-4-15-31-29(35)37-25-13-11-22(12-14-25)23-7-6-8-24(21-23)28(30)34;/h2-3,6-14,21H,4-5,15-20H2,1H3,(H2,30,34)(H,31,35);1H

> <PUBCHEM_IUPAC_INCHIKEY>
URLRSAIUSUXDOJ-UHFFFAOYSA-N

> <PUBCHEM_EXACT_MASS>
538.2346833

> <PUBCHEM_MOLECULAR_FORMULA>
C29H35ClN4O4

> <PUBCHEM_MOLECULAR_WEIGHT>
539.1

> <PUBCHEM_OPENEYE_CAN_SMILES>
COC1=CC=CC=C1N2CCN(CC2)CCCCNC(=O)OC3=CC=C(C=C3)C4=CC(=CC=C4)C(=O)N.Cl

> <PUBCHEM_OPENEYE_ISO_SMILES>
COC1=CC=CC=C1N2CCN(CC2)CCCCNC(=O)OC3=CC=C(C=C3)C4=CC(=CC=C4)C(=O)N.Cl

> <PUBCHEM_CACTVS_TPSA>
97.1

> <PUBCHEM_MONOISOTOPIC_WEIGHT>
538.2346833

> <PUBCHEM_TOTAL_CHARGE>
0

> <PUBCHEM_HEAVY_ATOM_COUNT>
38

> <PUBCHEM_ATOM_DEF_STEREO_COUNT>
0

> <PUBCHEM_ATOM_UDEF_STEREO_COUNT>
0

> <PUBCHEM_BOND_DEF_STEREO_COUNT>
0

> <PUBCHEM_BOND_UDEF_STEREO_COUNT>
0

> <PUBCHEM_ISOTOPIC_ATOM_COUNT>
0

> <PUBCHEM_COMPONENT_COUNT>
2

> <PUBCHEM_CACTVS_TAUTO_COUNT>
-1

> <PUBCHEM_COORDINATE_TYPE>
1
5
255

> <PUBCHEM_BONDANNOTATIONS>
16  19  8
16  20  8
19  21  8
20  22  8
21  23  8
22  23  8
26  28  8
26  29  8
27  31  8
27  32  8
28  31  8
29  32  8
30  33  8
30  34  8
33  35  8
34  36  8
35  37  8
36  37  8

$$$$
