118726000
  -OEChem-09292321592D

107112  0     1  0  0  0  0  0999 V2000
    2.5118   -2.0009    0.0000 O   0  0  0  0  0  0  0  0  0  0  0  0
   12.0039    1.4400    0.0000 O   0  0  0  0  0  0  0  0  0  0  0  0
   19.7982   -0.0600    0.0000 O   0  0  0  0  0  0  0  0  0  0  0  0
   16.3341   -1.0600    0.0000 O   0  0  0  0  0  0  0  0  0  0  0  0
   30.7100    1.7490    0.0000 O   0  0  0  0  0  0  0  0  0  0  0  0
    7.6738   -0.0600    0.0000 N   0  0  3  0  0  0  0  0  0  0  0  0
    2.6067   -0.2271    0.0000 N   0  0  0  0  0  0  0  0  0  0  0  0
   11.1379   -0.0600    0.0000 N   0  0  0  0  0  0  0  0  0  0  0  0
   15.4680    0.4400    0.0000 N   0  0  0  0  0  0  0  0  0  0  0  0
   24.9943    1.9400    0.0000 N   0  0  0  0  0  0  0  0  0  0  0  0
   27.5924    0.4400    0.0000 N   0  0  0  0  0  0  0  0  0  0  0  0
   26.7264    1.9400    0.0000 N   0  0  0  0  0  0  0  0  0  0  0  0
   25.8603    0.4400    0.0000 N   0  0  0  0  0  0  0  0  0  0  0  0
   28.5386    0.1353    0.0000 N   0  0  0  0  0  0  0  0  0  0  0  0
   28.5386    1.7447    0.0000 N   0  0  0  0  0  0  0  0  0  0  0  0
   26.7264   -1.0600    0.0000 N   0  0  0  0  0  0  0  0  0  0  0  0
    6.8078    0.4400    0.0000 C   0  0  0  0  0  0  0  0  0  0  0  0
    5.9418   -0.0600    0.0000 C   0  0  0  0  0  0  0  0  0  0  0  0
    8.5398    0.4400    0.0000 C   0  0  0  0  0  0  0  0  0  0  0  0
    5.0757    0.4400    0.0000 C   0  0  0  0  0  0  0  0  0  0  0  0
    7.6738   -1.0600    0.0000 C   0  0  0  0  0  0  0  0  0  0  0  0
    4.2097   -0.0600    0.0000 C   0  0  0  0  0  0  0  0  0  0  0  0
    9.4059   -0.0600    0.0000 C   0  0  0  0  0  0  0  0  0  0  0  0
    4.0005   -1.0318    0.0000 C   0  0  0  0  0  0  0  0  0  0  0  0
    3.3437    0.4400    0.0000 C   0  0  0  0  0  0  0  0  0  0  0  0
    6.8078   -1.5600    0.0000 C   0  0  0  0  0  0  0  0  0  0  0  0
   10.2719    0.4400    0.0000 C   0  0  0  0  0  0  0  0  0  0  0  0
    5.0757    1.4400    0.0000 C   0  0  0  0  0  0  0  0  0  0  0  0
    3.0118   -1.1349    0.0000 C   0  0  0  0  0  0  0  0  0  0  0  0
    3.3437    1.4400    0.0000 C   0  0  0  0  0  0  0  0  0  0  0  0
    4.2097    1.9400    0.0000 C   0  0  0  0  0  0  0  0  0  0  0  0
    6.8078   -2.5600    0.0000 C   0  0  0  0  0  0  0  0  0  0  0  0
   12.0039    0.4400    0.0000 C   0  0  0  0  0  0  0  0  0  0  0  0
   12.8700   -0.0600    0.0000 C   0  0  0  0  0  0  0  0  0  0  0  0
   13.7360    0.4400    0.0000 C   0  0  0  0  0  0  0  0  0  0  0  0
   14.6020   -0.0600    0.0000 C   0  0  0  0  0  0  0  0  0  0  0  0
   17.2001    0.4400    0.0000 C   0  0  0  0  0  0  0  0  0  0  0  0
   16.3341   -0.0600    0.0000 C   0  0  0  0  0  0  0  0  0  0  0  0
   18.0661   -0.0600    0.0000 C   0  0  0  0  0  0  0  0  0  0  0  0
   18.9321    0.4400    0.0000 C   0  0  0  0  0  0  0  0  0  0  0  0
   23.2623    1.9400    0.0000 C   0  0  0  0  0  0  0  0  0  0  0  0
   22.3962    1.4400    0.0000 C   0  0  0  0  0  0  0  0  0  0  0  0
   24.1283    1.4400    0.0000 C   0  0  0  0  0  0  0  0  0  0  0  0
   20.6642    0.4400    0.0000 C   0  0  0  0  0  0  0  0  0  0  0  0
   22.3962    0.4400    0.0000 C   0  0  0  0  0  0  0  0  0  0  0  0
   21.5302    1.9400    0.0000 C   0  0  0  0  0  0  0  0  0  0  0  0
   21.5302   -0.0600    0.0000 C   0  0  0  0  0  0  0  0  0  0  0  0
   20.6642    1.4400    0.0000 C   0  0  0  0  0  0  0  0  0  0  0  0
   25.8603    1.4400    0.0000 C   0  0  0  0  0  0  0  0  0  0  0  0
   27.5924    1.4400    0.0000 C   0  0  0  0  0  0  0  0  0  0  0  0
   26.7264   -0.0600    0.0000 C   0  0  0  0  0  0  0  0  0  0  0  0
   29.1222    0.9400    0.0000 C   0  0  0  0  0  0  0  0  0  0  0  0
   30.1222    0.9400    0.0000 C   0  0  0  0  0  0  0  0  0  0  0  0
   30.7100    0.1310    0.0000 C   0  0  0  0  0  0  0  0  0  0  0  0
   31.6611    0.4400    0.0000 C   0  0  0  0  0  0  0  0  0  0  0  0
   31.6611    1.4400    0.0000 C   0  0  0  0  0  0  0  0  0  0  0  0
    7.2063    0.9149    0.0000 H   0  0  0  0  0  0  0  0  0  0  0  0
    6.4093    0.9149    0.0000 H   0  0  0  0  0  0  0  0  0  0  0  0
    5.5432   -0.5349    0.0000 H   0  0  0  0  0  0  0  0  0  0  0  0
    6.3403   -0.5349    0.0000 H   0  0  0  0  0  0  0  0  0  0  0  0
    8.9384    0.9149    0.0000 H   0  0  0  0  0  0  0  0  0  0  0  0
    8.1413    0.9149    0.0000 H   0  0  0  0  0  0  0  0  0  0  0  0
    7.8859   -1.6426    0.0000 H   0  0  0  0  0  0  0  0  0  0  0  0
    8.2844   -0.9523    0.0000 H   0  0  0  0  0  0  0  0  0  0  0  0
    9.0073   -0.5349    0.0000 H   0  0  0  0  0  0  0  0  0  0  0  0
    9.8044   -0.5349    0.0000 H   0  0  0  0  0  0  0  0  0  0  0  0
    3.9996   -1.6518    0.0000 H   0  0  0  0  0  0  0  0  0  0  0  0
    4.6170   -1.0979    0.0000 H   0  0  0  0  0  0  0  0  0  0  0  0
    6.5957   -0.9774    0.0000 H   0  0  0  0  0  0  0  0  0  0  0  0
    6.1972   -1.6677    0.0000 H   0  0  0  0  0  0  0  0  0  0  0  0
   10.6704    0.9149    0.0000 H   0  0  0  0  0  0  0  0  0  0  0  0
    9.8734    0.9149    0.0000 H   0  0  0  0  0  0  0  0  0  0  0  0
    5.6127    1.7500    0.0000 H   0  0  0  0  0  0  0  0  0  0  0  0
    2.0000   -0.0992    0.0000 H   0  0  0  0  0  0  0  0  0  0  0  0
    2.8068    1.7500    0.0000 H   0  0  0  0  0  0  0  0  0  0  0  0
    4.2097    2.5600    0.0000 H   0  0  0  0  0  0  0  0  0  0  0  0
    6.1878   -2.5600    0.0000 H   0  0  0  0  0  0  0  0  0  0  0  0
    6.8078   -3.1800    0.0000 H   0  0  0  0  0  0  0  0  0  0  0  0
    7.4278   -2.5600    0.0000 H   0  0  0  0  0  0  0  0  0  0  0  0
   11.1379   -0.6800    0.0000 H   0  0  0  0  0  0  0  0  0  0  0  0
   12.4714   -0.5349    0.0000 H   0  0  0  0  0  0  0  0  0  0  0  0
   13.2685   -0.5349    0.0000 H   0  0  0  0  0  0  0  0  0  0  0  0
   14.1345    0.9149    0.0000 H   0  0  0  0  0  0  0  0  0  0  0  0
   13.3375    0.9149    0.0000 H   0  0  0  0  0  0  0  0  0  0  0  0
   14.2035   -0.5349    0.0000 H   0  0  0  0  0  0  0  0  0  0  0  0
   15.0005   -0.5349    0.0000 H   0  0  0  0  0  0  0  0  0  0  0  0
   15.4680    1.0600    0.0000 H   0  0  0  0  0  0  0  0  0  0  0  0
   17.5986    0.9149    0.0000 H   0  0  0  0  0  0  0  0  0  0  0  0
   16.8016    0.9149    0.0000 H   0  0  0  0  0  0  0  0  0  0  0  0
   17.6676   -0.5349    0.0000 H   0  0  0  0  0  0  0  0  0  0  0  0
   18.4647   -0.5349    0.0000 H   0  0  0  0  0  0  0  0  0  0  0  0
   19.3307    0.9149    0.0000 H   0  0  0  0  0  0  0  0  0  0  0  0
   18.5336    0.9149    0.0000 H   0  0  0  0  0  0  0  0  0  0  0  0
   23.6608    2.4150    0.0000 H   0  0  0  0  0  0  0  0  0  0  0  0
   22.8637    2.4150    0.0000 H   0  0  0  0  0  0  0  0  0  0  0  0
   23.7298    0.9651    0.0000 H   0  0  0  0  0  0  0  0  0  0  0  0
   24.5268    0.9651    0.0000 H   0  0  0  0  0  0  0  0  0  0  0  0
   22.9332    0.1300    0.0000 H   0  0  0  0  0  0  0  0  0  0  0  0
   21.5302    2.5600    0.0000 H   0  0  0  0  0  0  0  0  0  0  0  0
   21.5302   -0.6800    0.0000 H   0  0  0  0  0  0  0  0  0  0  0  0
   20.1273    1.7500    0.0000 H   0  0  0  0  0  0  0  0  0  0  0  0
   24.9943    2.5600    0.0000 H   0  0  0  0  0  0  0  0  0  0  0  0
   26.1894   -1.3700    0.0000 H   0  0  0  0  0  0  0  0  0  0  0  0
   27.2633   -1.3700    0.0000 H   0  0  0  0  0  0  0  0  0  0  0  0
   30.5184   -0.4587    0.0000 H   0  0  0  0  0  0  0  0  0  0  0  0
   32.1627    0.0756    0.0000 H   0  0  0  0  0  0  0  0  0  0  0  0
   32.1627    1.8044    0.0000 H   0  0  0  0  0  0  0  0  0  0  0  0
  1 29  2  0  0  0  0
  2 33  2  0  0  0  0
  3 40  1  0  0  0  0
  3 44  1  0  0  0  0
  4 38  2  0  0  0  0
  5 53  1  0  0  0  0
  5 56  1  0  0  0  0
  6 17  1  0  0  0  0
  6 19  1  0  0  0  0
  6 21  1  0  0  0  0
  7 25  1  0  0  0  0
  7 29  1  0  0  0  0
  7 74  1  0  0  0  0
  8 27  1  0  0  0  0
  8 33  1  0  0  0  0
  8 80  1  0  0  0  0
  9 36  1  0  0  0  0
  9 38  1  0  0  0  0
  9 87  1  0  0  0  0
 10 43  1  0  0  0  0
 10 49  1  0  0  0  0
 10102  1  0  0  0  0
 11 14  1  0  0  0  0
 11 50  1  0  0  0  0
 11 51  1  0  0  0  0
 12 49  2  0  0  0  0
 12 50  1  0  0  0  0
 13 49  1  0  0  0  0
 13 51  2  0  0  0  0
 14 52  2  0  0  0  0
 15 50  2  0  0  0  0
 15 52  1  0  0  0  0
 16 51  1  0  0  0  0
 16103  1  0  0  0  0
 16104  1  0  0  0  0
 17 18  1  0  0  0  0
 17 57  1  0  0  0  0
 17 58  1  0  0  0  0
 18 20  1  0  0  0  0
 18 59  1  0  0  0  0
 18 60  1  0  0  0  0
 19 23  1  0  0  0  0
 19 61  1  0  0  0  0
 19 62  1  0  0  0  0
 20 22  2  0  0  0  0
 20 28  1  0  0  0  0
 21 26  1  0  0  0  0
 21 63  1  0  0  0  0
 21 64  1  0  0  0  0
 22 24  1  0  0  0  0
 22 25  1  0  0  0  0
 23 27  1  0  0  0  0
 23 65  1  0  0  0  0
 23 66  1  0  0  0  0
 24 29  1  0  0  0  0
 24 67  1  0  0  0  0
 24 68  1  0  0  0  0
 25 30  2  0  0  0  0
 26 32  1  0  0  0  0
 26 69  1  0  0  0  0
 26 70  1  0  0  0  0
 27 71  1  0  0  0  0
 27 72  1  0  0  0  0
 28 31  2  0  0  0  0
 28 73  1  0  0  0  0
 30 31  1  0  0  0  0
 30 75  1  0  0  0  0
 31 76  1  0  0  0  0
 32 77  1  0  0  0  0
 32 78  1  0  0  0  0
 32 79  1  0  0  0  0
 33 34  1  0  0  0  0
 34 35  1  0  0  0  0
 34 81  1  0  0  0  0
 34 82  1  0  0  0  0
 35 36  1  0  0  0  0
 35 83  1  0  0  0  0
 35 84  1  0  0  0  0
 36 85  1  0  0  0  0
 36 86  1  0  0  0  0
 37 38  1  0  0  0  0
 37 39  1  0  0  0  0
 37 88  1  0  0  0  0
 37 89  1  0  0  0  0
 39 40  1  0  0  0  0
 39 90  1  0  0  0  0
 39 91  1  0  0  0  0
 40 92  1  0  0  0  0
 40 93  1  0  0  0  0
 41 42  1  0  0  0  0
 41 43  1  0  0  0  0
 41 94  1  0  0  0  0
 41 95  1  0  0  0  0
 42 45  2  0  0  0  0
 42 46  1  0  0  0  0
 43 96  1  0  0  0  0
 43 97  1  0  0  0  0
 44 47  2  0  0  0  0
 44 48  1  0  0  0  0
 45 47  1  0  0  0  0
 45 98  1  0  0  0  0
 46 48  2  0  0  0  0
 46 99  1  0  0  0  0
 47100  1  0  0  0  0
 48101  1  0  0  0  0
 52 53  1  0  0  0  0
 53 54  2  0  0  0  0
 54 55  1  0  0  0  0
 54105  1  0  0  0  0
 55 56  2  0  0  0  0
 55106  1  0  0  0  0
 56107  1  0  0  0  0
M  END
> <PUBCHEM_COMPOUND_CID>
118726000

> <PUBCHEM_COMPOUND_CANONICALIZED>
1

> <PUBCHEM_CACTVS_COMPLEXITY>
1210

> <PUBCHEM_CACTVS_HBOND_ACCEPTOR>
12

> <PUBCHEM_CACTVS_HBOND_DONOR>
5

> <PUBCHEM_CACTVS_ROTATABLE_BOND>
23

> <PUBCHEM_CACTVS_SUBSKEYS>
AAADcfB/+AAAAAAAAAAAAAAAAAAAAWLEgAA8YIAAAAAAAFgB/AAAHgAYAAAADAzhmwYz1ofIFECqAq9y9ASSiAsnIqAdiKGubNiOLrLE/buHOSj83hPY6Ye+2YKOoAAAQAASAABAAACAACQAAAAAAAAAAA==

> <PUBCHEM_IUPAC_OPENEYE_NAME>
4-[4-[4-[2-[[7-amino-2-(2-furyl)-[1,2,4]triazolo[1,5-a][1,3,5]triazin-5-yl]amino]ethyl]phenoxy]butanoylamino]-N-[3-[2-(2-oxoindolin-4-yl)ethyl-propyl-amino]propyl]butanamide

> <PUBCHEM_IUPAC_CAS_NAME>
4-[[4-[4-[2-[[7-amino-2-(2-furanyl)-[1,2,4]triazolo[1,5-a][1,3,5]triazin-5-yl]amino]ethyl]phenoxy]-1-oxobutyl]amino]-N-[3-[2-(2-oxo-1,3-dihydroindol-4-yl)ethyl-propylamino]propyl]butanamide

> <PUBCHEM_IUPAC_NAME_MARKUP>
4-[4-[4-[2-[[7-amino-2-(furan-2-yl)-[1,2,4]triazolo[1,5-a][1,3,5]triazin-5-yl]amino]ethyl]phenoxy]butanoylamino]-<I>N</I>-[3-[2-(2-oxo-1,3-dihydroindol-4-yl)ethyl-propylamino]propyl]butanamide

> <PUBCHEM_IUPAC_NAME>
4-[4-[4-[2-[[7-amino-2-(furan-2-yl)-[1,2,4]triazolo[1,5-a][1,3,5]triazin-5-yl]amino]ethyl]phenoxy]butanoylamino]-N-[3-[2-(2-oxo-1,3-dihydroindol-4-yl)ethyl-propylamino]propyl]butanamide

> <PUBCHEM_IUPAC_SYSTEMATIC_NAME>
4-[4-[4-[2-[[7-azanyl-2-(furan-2-yl)-[1,2,4]triazolo[1,5-a][1,3,5]triazin-5-yl]amino]ethyl]phenoxy]butanoylamino]-N-[3-[2-(2-oxidanylidene-1,3-dihydroindol-4-yl)ethyl-propyl-amino]propyl]butanamide

> <PUBCHEM_IUPAC_TRADITIONAL_NAME>
4-[4-[4-[2-[[7-amino-2-(2-furyl)-[1,2,4]triazolo[1,5-a][1,3,5]triazin-5-yl]amino]ethyl]phenoxy]butanoylamino]-N-[3-[2-(2-ketoindolin-4-yl)ethyl-propyl-amino]propyl]butyramide

> <PUBCHEM_IUPAC_INCHI>
InChI=1S/C40H51N11O5/c1-2-22-50(24-18-29-8-3-9-32-31(29)27-36(54)45-32)23-7-20-43-34(52)11-4-19-42-35(53)12-6-25-55-30-15-13-28(14-16-30)17-21-44-39-47-38(41)51-40(48-39)46-37(49-51)33-10-5-26-56-33/h3,5,8-10,13-16,26H,2,4,6-7,11-12,17-25,27H2,1H3,(H,42,53)(H,43,52)(H,45,54)(H3,41,44,46,47,48,49)

> <PUBCHEM_IUPAC_INCHIKEY>
QXKURYVTBSPJPI-UHFFFAOYSA-N

> <PUBCHEM_XLOGP3_AA>
3.8

> <PUBCHEM_EXACT_MASS>
765.40746377

> <PUBCHEM_MOLECULAR_FORMULA>
C40H51N11O5

> <PUBCHEM_MOLECULAR_WEIGHT>
765.9

> <PUBCHEM_OPENEYE_CAN_SMILES>
CCCN(CCCNC(=O)CCCNC(=O)CCCOC1=CC=C(C=C1)CCNC2=NC3=NC(=NN3C(=N2)N)C4=CC=CO4)CCC5=C6CC(=O)NC6=CC=C5

> <PUBCHEM_OPENEYE_ISO_SMILES>
CCCN(CCCNC(=O)CCCNC(=O)CCCOC1=CC=C(C=C1)CCNC2=NC3=NC(=NN3C(=N2)N)C4=CC=CO4)CCC5=C6CC(=O)NC6=CC=C5

> <PUBCHEM_CACTVS_TPSA>
207

> <PUBCHEM_MONOISOTOPIC_WEIGHT>
765.40746377

> <PUBCHEM_TOTAL_CHARGE>
0

> <PUBCHEM_HEAVY_ATOM_COUNT>
56

> <PUBCHEM_ATOM_DEF_STEREO_COUNT>
0

> <PUBCHEM_ATOM_UDEF_STEREO_COUNT>
0

> <PUBCHEM_BOND_DEF_STEREO_COUNT>
0

> <PUBCHEM_BOND_UDEF_STEREO_COUNT>
0

> <PUBCHEM_ISOTOPIC_ATOM_COUNT>
0

> <PUBCHEM_COMPONENT_COUNT>
1

> <PUBCHEM_CACTVS_TAUTO_COUNT>
-1

> <PUBCHEM_COORDINATE_TYPE>
1
5
255

> <PUBCHEM_BONDANNOTATIONS>
11  14  8
11  50  8
11  51  8
12  49  8
12  50  8
13  49  8
13  51  8
14  52  8
15  50  8
15  52  8
20  22  8
20  28  8
22  25  8
25  30  8
28  31  8
30  31  8
42  45  8
42  46  8
44  47  8
44  48  8
45  47  8
46  48  8
5  53  8
5  56  8
53  54  8
54  55  8
55  56  8

$$$$
