2761023
  -OEChem-09292322192D

 29 31  0     0  0  0  0  0  0999 V2000
    5.6103    2.2305    0.0000 N   0  0  0  0  0  0  0  0  0  0  0  0
    4.6783   -2.2305    0.0000 N   0  0  0  0  0  0  0  0  0  0  0  0
    4.9889    0.3295    0.0000 C   0  0  0  0  0  0  0  0  0  0  0  0
    4.3211    1.0738    0.0000 C   0  0  0  0  0  0  0  0  0  0  0  0
    4.6783   -0.6210    0.0000 C   0  0  0  0  0  0  0  0  0  0  0  0
    4.6318    2.0243    0.0000 C   0  0  0  0  0  0  0  0  0  0  0  0
    3.7320   -0.9258    0.0000 C   0  0  0  0  0  0  0  0  0  0  0  0
    6.2781    1.4862    0.0000 C   0  0  0  0  0  0  0  0  0  0  0  0
    5.9674    0.5357    0.0000 C   0  0  0  0  0  0  0  0  0  0  0  0
    3.7320   -1.9258    0.0000 C   0  0  0  0  0  0  0  0  0  0  0  0
    5.2619   -1.4258    0.0000 C   0  0  0  0  0  0  0  0  0  0  0  0
    2.8660   -0.4258    0.0000 C   0  0  0  0  0  0  0  0  0  0  0  0
    2.8660   -2.4258    0.0000 C   0  0  0  0  0  0  0  0  0  0  0  0
    2.0000   -0.9258    0.0000 C   0  0  0  0  0  0  0  0  0  0  0  0
    2.0000   -1.9258    0.0000 C   0  0  0  0  0  0  0  0  0  0  0  0
    3.7742    1.3658    0.0000 H   0  0  0  0  0  0  0  0  0  0  0  0
    3.9385    0.5859    0.0000 H   0  0  0  0  0  0  0  0  0  0  0  0
    4.6112    2.6439    0.0000 H   0  0  0  0  0  0  0  0  0  0  0  0
    4.0179    2.1116    0.0000 H   0  0  0  0  0  0  0  0  0  0  0  0
    6.8250    1.1942    0.0000 H   0  0  0  0  0  0  0  0  0  0  0  0
    6.6607    1.9741    0.0000 H   0  0  0  0  0  0  0  0  0  0  0  0
    6.3815    0.0742    0.0000 H   0  0  0  0  0  0  0  0  0  0  0  0
    5.8029    2.8198    0.0000 H   0  0  0  0  0  0  0  0  0  0  0  0
    5.8819   -1.4258    0.0000 H   0  0  0  0  0  0  0  0  0  0  0  0
    4.8709   -2.8198    0.0000 H   0  0  0  0  0  0  0  0  0  0  0  0
    2.8660    0.1942    0.0000 H   0  0  0  0  0  0  0  0  0  0  0  0
    2.8660   -3.0458    0.0000 H   0  0  0  0  0  0  0  0  0  0  0  0
    1.4631   -0.6158    0.0000 H   0  0  0  0  0  0  0  0  0  0  0  0
    1.4631   -2.2358    0.0000 H   0  0  0  0  0  0  0  0  0  0  0  0
  1  6  1  0  0  0  0
  1  8  1  0  0  0  0
  1 23  1  0  0  0  0
  2 10  1  0  0  0  0
  2 11  1  0  0  0  0
  2 25  1  0  0  0  0
  3  4  1  0  0  0  0
  3  5  1  0  0  0  0
  3  9  2  0  0  0  0
  4  6  1  0  0  0  0
  4 16  1  0  0  0  0
  4 17  1  0  0  0  0
  5  7  1  0  0  0  0
  5 11  2  0  0  0  0
  6 18  1  0  0  0  0
  6 19  1  0  0  0  0
  7 10  1  0  0  0  0
  7 12  2  0  0  0  0
  8  9  1  0  0  0  0
  8 20  1  0  0  0  0
  8 21  1  0  0  0  0
  9 22  1  0  0  0  0
 10 13  2  0  0  0  0
 11 24  1  0  0  0  0
 12 14  1  0  0  0  0
 12 26  1  0  0  0  0
 13 15  1  0  0  0  0
 13 27  1  0  0  0  0
 14 15  2  0  0  0  0
 14 28  1  0  0  0  0
 15 29  1  0  0  0  0
M  END
> <PUBCHEM_COMPOUND_CID>
2761023

> <PUBCHEM_COMPOUND_CANONICALIZED>
1

> <PUBCHEM_CACTVS_COMPLEXITY>
259

> <PUBCHEM_CACTVS_HBOND_ACCEPTOR>
1

> <PUBCHEM_CACTVS_HBOND_DONOR>
2

> <PUBCHEM_CACTVS_ROTATABLE_BOND>
1

> <PUBCHEM_CACTVS_SUBSKEYS>
AAADccBzAAAAAAAAAAAAAAAAAAAAAWAAAAAwQAAAAAAAAFgB8AAAHAAQAAAADAjBHgQ8wPLJkACgAzRnRACCgCAxAiAI2aA4ZJgIIOLAkZGEIAhgkADIyAcQgMAOgAAAAAACAAAAAAAAAAQAAAAAAAAAAA==

> <PUBCHEM_IUPAC_OPENEYE_NAME>
3-(1,2,3,6-tetrahydropyridin-4-yl)-1H-indole

> <PUBCHEM_IUPAC_CAS_NAME>
3-(1,2,3,6-tetrahydropyridin-4-yl)-1H-indole

> <PUBCHEM_IUPAC_NAME_MARKUP>
3-(1,2,3,6-tetrahydropyridin-4-yl)-1<I>H</I>-indole

> <PUBCHEM_IUPAC_NAME>
3-(1,2,3,6-tetrahydropyridin-4-yl)-1H-indole

> <PUBCHEM_IUPAC_SYSTEMATIC_NAME>
3-(1,2,3,6-tetrahydropyridin-4-yl)-1H-indole

> <PUBCHEM_IUPAC_TRADITIONAL_NAME>
3-(1,2,3,6-tetrahydropyridin-4-yl)-1H-indole

> <PUBCHEM_IUPAC_INCHI>
InChI=1S/C13H14N2/c1-2-4-13-11(3-1)12(9-15-13)10-5-7-14-8-6-10/h1-5,9,14-15H,6-8H2

> <PUBCHEM_IUPAC_INCHIKEY>
CIRSPTXGPFAXRE-UHFFFAOYSA-N

> <PUBCHEM_XLOGP3_AA>
1.8

> <PUBCHEM_EXACT_MASS>
198.115698455

> <PUBCHEM_MOLECULAR_FORMULA>
C13H14N2

> <PUBCHEM_MOLECULAR_WEIGHT>
198.26

> <PUBCHEM_OPENEYE_CAN_SMILES>
C1CNCC=C1C2=CNC3=CC=CC=C32

> <PUBCHEM_OPENEYE_ISO_SMILES>
C1CNCC=C1C2=CNC3=CC=CC=C32

> <PUBCHEM_CACTVS_TPSA>
27.8

> <PUBCHEM_MONOISOTOPIC_WEIGHT>
198.115698455

> <PUBCHEM_TOTAL_CHARGE>
0

> <PUBCHEM_HEAVY_ATOM_COUNT>
15

> <PUBCHEM_ATOM_DEF_STEREO_COUNT>
0

> <PUBCHEM_ATOM_UDEF_STEREO_COUNT>
0

> <PUBCHEM_BOND_DEF_STEREO_COUNT>
0

> <PUBCHEM_BOND_UDEF_STEREO_COUNT>
0

> <PUBCHEM_ISOTOPIC_ATOM_COUNT>
0

> <PUBCHEM_COMPONENT_COUNT>
1

> <PUBCHEM_CACTVS_TAUTO_COUNT>
1

> <PUBCHEM_COORDINATE_TYPE>
1
5
255

> <PUBCHEM_BONDANNOTATIONS>
10  13  8
12  14  8
13  15  8
14  15  8
2  10  8
2  11  8
5  11  8
5  7  8
7  10  8
7  12  8

$$$$
