164614576
  -OEChem-09292322022D

 61 65  0     1  0  0  0  0  0999 V2000
    3.8001    1.2452    0.0000 O   0  0  0  0  0  0  0  0  0  0  0  0
    2.0120    0.2036    0.0000 O   0  0  0  0  0  0  0  0  0  0  0  0
   12.5842   -0.2625    0.0000 O   0  0  0  0  0  0  0  0  0  0  0  0
   17.8464   -0.2383    0.0000 O   0  0  0  0  0  0  0  0  0  0  0  0
    8.2522    0.2208    0.0000 N   0  0  0  0  0  0  0  0  0  0  0  0
   16.1143   -0.2383    0.0000 N   0  0  0  0  0  0  0  0  0  0  0  0
    6.5201    0.2142    0.0000 C   0  0  3  0  0  0  0  0  0  0  0  0
    5.5201    0.2103    0.0000 C   0  0  3  0  0  0  0  0  0  0  0  0
    6.0168    1.0783    0.0000 C   0  0  0  0  0  0  0  0  0  0  0  0
    7.3881   -0.2825    0.0000 C   0  0  0  0  0  0  0  0  0  0  0  0
    4.6560   -0.2930    0.0000 C   0  0  0  0  0  0  0  0  0  0  0  0
    3.7881    0.2036    0.0000 C   0  0  0  0  0  0  0  0  0  0  0  0
    4.6599   -1.2930    0.0000 C   0  0  0  0  0  0  0  0  0  0  0  0
    9.1201   -0.2758    0.0000 C   0  0  0  0  0  0  0  0  0  0  0  0
    2.9240   -0.2997    0.0000 C   0  0  0  0  0  0  0  0  0  0  0  0
    3.7958   -1.7964    0.0000 C   0  0  0  0  0  0  0  0  0  0  0  0
    9.9842    0.2275    0.0000 C   0  0  0  0  0  0  0  0  0  0  0  0
    2.9278   -1.2997    0.0000 C   0  0  0  0  0  0  0  0  0  0  0  0
    2.9001    1.7695    0.0000 C   0  0  0  0  0  0  0  0  0  0  0  0
    2.0000    1.2452    0.0000 C   0  0  0  0  0  0  0  0  0  0  0  0
   10.8521   -0.2691    0.0000 C   0  0  0  0  0  0  0  0  0  0  0  0
   11.7162    0.2342    0.0000 C   0  0  0  0  0  0  0  0  0  0  0  0
   13.4483    0.2409    0.0000 C   0  0  0  0  0  0  0  0  0  0  0  0
   15.2483    1.2617    0.0000 C   0  0  0  0  0  0  0  0  0  0  0  0
   16.1143    1.7617    0.0000 C   0  0  0  0  0  0  0  0  0  0  0  0
   15.2483    0.2617    0.0000 C   0  0  0  0  0  0  0  0  0  0  0  0
   16.9803    1.2617    0.0000 C   0  0  0  0  0  0  0  0  0  0  0  0
   14.3543   -0.2730    0.0000 C   0  0  0  0  0  0  0  0  0  0  0  0
   13.4483    1.2825    0.0000 C   0  0  0  0  0  0  0  0  0  0  0  0
   14.3543    1.7964    0.0000 C   0  0  0  0  0  0  0  0  0  0  0  0
   16.9803    0.2617    0.0000 C   0  0  0  0  0  0  0  0  0  0  0  0
    6.9568    0.6543    0.0000 H   0  0  0  0  0  0  0  0  0  0  0  0
    5.6829   -0.3879    0.0000 H   0  0  0  0  0  0  0  0  0  0  0  0
    6.4902    1.4786    0.0000 H   0  0  0  0  0  0  0  0  0  0  0  0
    5.5403    1.4750    0.0000 H   0  0  0  0  0  0  0  0  0  0  0  0
    6.9914   -0.7590    0.0000 H   0  0  0  0  0  0  0  0  0  0  0  0
    7.7884   -0.7559    0.0000 H   0  0  0  0  0  0  0  0  0  0  0  0
    8.2498    0.8408    0.0000 H   0  0  0  0  0  0  0  0  0  0  0  0
    5.1980   -1.6009    0.0000 H   0  0  0  0  0  0  0  0  0  0  0  0
    8.7234   -0.7523    0.0000 H   0  0  0  0  0  0  0  0  0  0  0  0
    9.5205   -0.7492    0.0000 H   0  0  0  0  0  0  0  0  0  0  0  0
    3.7982   -2.4163    0.0000 H   0  0  0  0  0  0  0  0  0  0  0  0
   10.3809    0.7040    0.0000 H   0  0  0  0  0  0  0  0  0  0  0  0
    9.5838    0.7009    0.0000 H   0  0  0  0  0  0  0  0  0  0  0  0
    2.3921   -1.6118    0.0000 H   0  0  0  0  0  0  0  0  0  0  0  0
    3.2992    2.2439    0.0000 H   0  0  0  0  0  0  0  0  0  0  0  0
    2.5009    2.2439    0.0000 H   0  0  0  0  0  0  0  0  0  0  0  0
    1.7842    1.8264    0.0000 H   0  0  0  0  0  0  0  0  0  0  0  0
    1.3904    1.1320    0.0000 H   0  0  0  0  0  0  0  0  0  0  0  0
   10.4554   -0.7456    0.0000 H   0  0  0  0  0  0  0  0  0  0  0  0
   11.2525   -0.7425    0.0000 H   0  0  0  0  0  0  0  0  0  0  0  0
   12.1129    0.7107    0.0000 H   0  0  0  0  0  0  0  0  0  0  0  0
   11.3159    0.7076    0.0000 H   0  0  0  0  0  0  0  0  0  0  0  0
   16.5128    2.2366    0.0000 H   0  0  0  0  0  0  0  0  0  0  0  0
   15.7158    2.2366    0.0000 H   0  0  0  0  0  0  0  0  0  0  0  0
   17.5909    1.1540    0.0000 H   0  0  0  0  0  0  0  0  0  0  0  0
   17.1924    1.8443    0.0000 H   0  0  0  0  0  0  0  0  0  0  0  0
   14.3615   -0.8929    0.0000 H   0  0  0  0  0  0  0  0  0  0  0  0
   12.9125    1.5946    0.0000 H   0  0  0  0  0  0  0  0  0  0  0  0
   14.3615    2.4163    0.0000 H   0  0  0  0  0  0  0  0  0  0  0  0
   16.1143   -0.8583    0.0000 H   0  0  0  0  0  0  0  0  0  0  0  0
  1 12  1  0  0  0  0
  1 19  1  0  0  0  0
  2 15  1  0  0  0  0
  2 20  1  0  0  0  0
  3 22  1  0  0  0  0
  3 23  1  0  0  0  0
  4 31  2  0  0  0  0
  5 10  1  0  0  0  0
  5 14  1  0  0  0  0
  5 38  1  0  0  0  0
  6 26  1  0  0  0  0
  6 31  1  0  0  0  0
  6 61  1  0  0  0  0
  7  8  1  0  0  0  0
  7  9  1  0  0  0  0
  7 10  1  0  0  0  0
  7 32  1  0  0  0  0
  8  9  1  0  0  0  0
  8 11  1  0  0  0  0
  8 33  1  0  0  0  0
  9 34  1  0  0  0  0
  9 35  1  0  0  0  0
 10 36  1  0  0  0  0
 10 37  1  0  0  0  0
 11 12  2  0  0  0  0
 11 13  1  0  0  0  0
 12 15  1  0  0  0  0
 13 16  2  0  0  0  0
 13 39  1  0  0  0  0
 14 17  1  0  0  0  0
 14 40  1  0  0  0  0
 14 41  1  0  0  0  0
 15 18  2  0  0  0  0
 16 18  1  0  0  0  0
 16 42  1  0  0  0  0
 17 21  1  0  0  0  0
 17 43  1  0  0  0  0
 17 44  1  0  0  0  0
 18 45  1  0  0  0  0
 19 20  1  0  0  0  0
 19 46  1  0  0  0  0
 19 47  1  0  0  0  0
 20 48  1  0  0  0  0
 20 49  1  0  0  0  0
 21 22  1  0  0  0  0
 21 50  1  0  0  0  0
 21 51  1  0  0  0  0
 22 52  1  0  0  0  0
 22 53  1  0  0  0  0
 23 28  2  0  0  0  0
 23 29  1  0  0  0  0
 24 25  1  0  0  0  0
 24 26  2  0  0  0  0
 24 30  1  0  0  0  0
 25 27  1  0  0  0  0
 25 54  1  0  0  0  0
 25 55  1  0  0  0  0
 26 28  1  0  0  0  0
 27 31  1  0  0  0  0
 27 56  1  0  0  0  0
 27 57  1  0  0  0  0
 28 58  1  0  0  0  0
 29 30  2  0  0  0  0
 29 59  1  0  0  0  0
 30 60  1  0  0  0  0
M  END
> <PUBCHEM_COMPOUND_CID>
164614576

> <PUBCHEM_COMPOUND_CANONICALIZED>
1

> <PUBCHEM_CACTVS_COMPLEXITY>
602

> <PUBCHEM_CACTVS_HBOND_ACCEPTOR>
5

> <PUBCHEM_CACTVS_HBOND_DONOR>
2

> <PUBCHEM_CACTVS_ROTATABLE_BOND>
9

> <PUBCHEM_CACTVS_SUBSKEYS>
AAADceB7OAAAAAAAAAAAAAAAGAAAAAAAAAA8aIEAAAAAAACxQAAAHgAQAAAADQzhmAYwxoLABACIAiVSUACCCAAhIgAIiIEO7IgNJjLEsZuGOCrm1BnK6Ae42fOeoAABAgAKQABAAAIEABSAAAAAAAAAAA==

> <PUBCHEM_IUPAC_OPENEYE_NAME>
7-[4-[[2-(2,3-dihydro-1,4-benzodioxin-5-yl)cyclopropyl]methylamino]butoxy]-3,4-dihydro-1H-quinolin-2-one

> <PUBCHEM_IUPAC_CAS_NAME>
7-[4-[[2-(2,3-dihydro-1,4-benzodioxin-5-yl)cyclopropyl]methylamino]butoxy]-3,4-dihydro-1H-quinolin-2-one

> <PUBCHEM_IUPAC_NAME_MARKUP>
7-[4-[[2-(2,3-dihydro-1,4-benzodioxin-5-yl)cyclopropyl]methylamino]butoxy]-3,4-dihydro-1<I>H</I>-quinolin-2-one

> <PUBCHEM_IUPAC_NAME>
7-[4-[[2-(2,3-dihydro-1,4-benzodioxin-5-yl)cyclopropyl]methylamino]butoxy]-3,4-dihydro-1H-quinolin-2-one

> <PUBCHEM_IUPAC_SYSTEMATIC_NAME>
7-[4-[[2-(2,3-dihydro-1,4-benzodioxin-5-yl)cyclopropyl]methylamino]butoxy]-3,4-dihydro-1H-quinolin-2-one

> <PUBCHEM_IUPAC_TRADITIONAL_NAME>
7-[4-[[2-(2,3-dihydro-1,4-benzodioxin-5-yl)cyclopropyl]methylamino]butoxy]-3,4-dihydrocarbostyril

> <PUBCHEM_IUPAC_INCHI>
InChI=1S/C25H30N2O4/c28-24-9-7-17-6-8-19(15-22(17)27-24)29-11-2-1-10-26-16-18-14-21(18)20-4-3-5-23-25(20)31-13-12-30-23/h3-6,8,15,18,21,26H,1-2,7,9-14,16H2,(H,27,28)

> <PUBCHEM_IUPAC_INCHIKEY>
FVLJNPGRJXOJPX-UHFFFAOYSA-N

> <PUBCHEM_XLOGP3_AA>
3.2

> <PUBCHEM_EXACT_MASS>
422.22055744

> <PUBCHEM_MOLECULAR_FORMULA>
C25H30N2O4

> <PUBCHEM_MOLECULAR_WEIGHT>
422.5

> <PUBCHEM_OPENEYE_CAN_SMILES>
C1CC(=O)NC2=C1C=CC(=C2)OCCCCNCC3CC3C4=C5C(=CC=C4)OCCO5

> <PUBCHEM_OPENEYE_ISO_SMILES>
C1CC(=O)NC2=C1C=CC(=C2)OCCCCNCC3CC3C4=C5C(=CC=C4)OCCO5

> <PUBCHEM_CACTVS_TPSA>
68.8

> <PUBCHEM_MONOISOTOPIC_WEIGHT>
422.22055744

> <PUBCHEM_TOTAL_CHARGE>
0

> <PUBCHEM_HEAVY_ATOM_COUNT>
31

> <PUBCHEM_ATOM_DEF_STEREO_COUNT>
0

> <PUBCHEM_ATOM_UDEF_STEREO_COUNT>
2

> <PUBCHEM_BOND_DEF_STEREO_COUNT>
0

> <PUBCHEM_BOND_UDEF_STEREO_COUNT>
0

> <PUBCHEM_ISOTOPIC_ATOM_COUNT>
0

> <PUBCHEM_COMPONENT_COUNT>
1

> <PUBCHEM_CACTVS_TAUTO_COUNT>
-1

> <PUBCHEM_COORDINATE_TYPE>
1
5
255

> <PUBCHEM_BONDANNOTATIONS>
11  12  8
11  13  8
12  15  8
13  16  8
15  18  8
16  18  8
23  28  8
23  29  8
24  26  8
24  30  8
26  28  8
29  30  8
7  10  3
8  11  3

$$$$
