54585745
  -OEChem-09292322482D

 63 70  0     1  0  0  0  0  0999 V2000
    4.9947    3.8054    0.0000 O   0  0  0  0  0  0  0  0  0  0  0  0
    9.7857    0.0037    0.0000 O   0  0  0  0  0  0  0  0  0  0  0  0
   10.7431    1.7596    0.0000 O   0  0  0  0  0  0  0  0  0  0  0  0
    5.2236    2.4911    0.0000 N   0  0  3  0  0  0  0  0  0  0  0  0
    3.1124    1.9008    0.0000 C   0  0  3  0  0  0  0  0  0  0  0  0
    3.1124    0.9928    0.0000 C   0  0  3  0  0  0  0  0  0  0  0  0
    4.1339    1.9008    0.0000 C   0  0  3  0  0  0  0  0  0  0  0  0
    4.1226    0.9814    0.0000 C   0  0  3  0  0  0  0  0  0  0  0  0
    3.6118    3.5750    0.0000 C   0  0  3  0  0  0  0  0  0  0  0  0
    3.6118    2.5535    0.0000 C   0  0  3  0  0  0  0  0  0  0  0  0
    2.7853    2.9745    0.0000 C   0  0  3  0  0  0  0  0  0  0  0  0
    2.7853    1.9530    0.0000 C   0  0  3  0  0  0  0  0  0  0  0  0
    4.4383    2.9745    0.0000 C   0  0  3  0  0  0  0  0  0  0  0  0
    4.4383    1.9530    0.0000 C   0  0  3  0  0  0  0  0  0  0  0  0
    2.0000    2.5819    0.0000 C   0  0  0  0  0  0  0  0  0  0  0  0
    6.2233    2.5155    0.0000 C   0  0  0  0  0  0  0  0  0  0  0  0
    6.7443    1.6619    0.0000 C   0  0  0  0  0  0  0  0  0  0  0  0
    7.7440    1.6864    0.0000 C   0  0  0  0  0  0  0  0  0  0  0  0
    8.2650    0.8328    0.0000 C   0  0  0  0  0  0  0  0  0  0  0  0
    8.2227    2.5644    0.0000 C   0  0  0  0  0  0  0  0  0  0  0  0
    9.2647    0.8572    0.0000 C   0  0  0  0  0  0  0  0  0  0  0  0
    9.2224    2.5888    0.0000 C   0  0  0  0  0  0  0  0  0  0  0  0
    9.7434    1.7352    0.0000 C   0  0  0  0  0  0  0  0  0  0  0  0
    9.3070   -0.8743    0.0000 C   0  0  0  0  0  0  0  0  0  0  0  0
   11.2218    2.6376    0.0000 C   0  0  0  0  0  0  0  0  0  0  0  0
    9.8280   -1.7278    0.0000 C   0  0  0  0  0  0  0  0  0  0  0  0
    9.3494   -2.6058    0.0000 C   0  0  0  0  0  0  0  0  0  0  0  0
    9.8704   -3.4594    0.0000 C   0  0  0  0  0  0  0  0  0  0  0  0
    8.3496   -2.6303    0.0000 C   0  0  0  0  0  0  0  0  0  0  0  0
    9.3917   -4.3374    0.0000 C   0  0  0  0  0  0  0  0  0  0  0  0
    7.8710   -3.5082    0.0000 C   0  0  0  0  0  0  0  0  0  0  0  0
    8.3920   -4.3618    0.0000 C   0  0  0  0  0  0  0  0  0  0  0  0
    2.4991    1.8095    0.0000 H   0  0  0  0  0  0  0  0  0  0  0  0
    2.7487    0.4907    0.0000 H   0  0  0  0  0  0  0  0  0  0  0  0
    4.7475    1.8117    0.0000 H   0  0  0  0  0  0  0  0  0  0  0  0
    4.4842    0.4778    0.0000 H   0  0  0  0  0  0  0  0  0  0  0  0
    3.6118    4.1950    0.0000 H   0  0  0  0  0  0  0  0  0  0  0  0
    4.1642    2.8349    0.0000 H   0  0  0  0  0  0  0  0  0  0  0  0
    2.4634    3.5044    0.0000 H   0  0  0  0  0  0  0  0  0  0  0  0
    2.2778    1.5968    0.0000 H   0  0  0  0  0  0  0  0  0  0  0  0
    4.9348    1.5817    0.0000 H   0  0  0  0  0  0  0  0  0  0  0  0
    1.6460    3.0909    0.0000 H   0  0  0  0  0  0  0  0  0  0  0  0
    1.5470    2.1585    0.0000 H   0  0  0  0  0  0  0  0  0  0  0  0
    4.7210    4.3618    0.0000 H   0  0  0  0  0  0  0  0  0  0  0  0
    6.8006    2.7417    0.0000 H   0  0  0  0  0  0  0  0  0  0  0  0
    6.1008    3.1233    0.0000 H   0  0  0  0  0  0  0  0  0  0  0  0
    6.1671    1.4357    0.0000 H   0  0  0  0  0  0  0  0  0  0  0  0
    6.8669    1.0542    0.0000 H   0  0  0  0  0  0  0  0  0  0  0  0
    7.9682    0.2885    0.0000 H   0  0  0  0  0  0  0  0  0  0  0  0
    7.8997    3.0936    0.0000 H   0  0  0  0  0  0  0  0  0  0  0  0
    9.5192    3.1331    0.0000 H   0  0  0  0  0  0  0  0  0  0  0  0
    8.8225   -0.4875    0.0000 H   0  0  0  0  0  0  0  0  0  0  0  0
    8.8420   -1.2843    0.0000 H   0  0  0  0  0  0  0  0  0  0  0  0
   11.7662    2.3408    0.0000 H   0  0  0  0  0  0  0  0  0  0  0  0
   11.5186    3.1820    0.0000 H   0  0  0  0  0  0  0  0  0  0  0  0
   10.6775    2.9344    0.0000 H   0  0  0  0  0  0  0  0  0  0  0  0
   10.3126   -2.1146    0.0000 H   0  0  0  0  0  0  0  0  0  0  0  0
   10.2931   -1.3178    0.0000 H   0  0  0  0  0  0  0  0  0  0  0  0
   10.4902   -3.4442    0.0000 H   0  0  0  0  0  0  0  0  0  0  0  0
    8.0266   -2.1010    0.0000 H   0  0  0  0  0  0  0  0  0  0  0  0
    9.7147   -4.8666    0.0000 H   0  0  0  0  0  0  0  0  0  0  0  0
    7.2511   -3.5234    0.0000 H   0  0  0  0  0  0  0  0  0  0  0  0
    8.0952   -4.9061    0.0000 H   0  0  0  0  0  0  0  0  0  0  0  0
  1 13  1  0  0  0  0
  1 44  1  0  0  0  0
  2 21  1  0  0  0  0
  2 24  1  0  0  0  0
  3 23  1  0  0  0  0
  3 25  1  0  0  0  0
  4 13  1  0  0  0  0
  4 14  1  0  0  0  0
  4 16  1  0  0  0  0
  5  6  1  0  0  0  0
  5  7  1  0  0  0  0
  5 11  1  0  0  0  0
  5 33  1  0  0  0  0
  6  8  1  0  0  0  0
  6 12  1  0  0  0  0
  6 34  1  0  0  0  0
  7  8  1  0  0  0  0
  7 13  1  0  0  0  0
  7 35  1  0  0  0  0
  8 14  1  0  0  0  0
  8 36  1  0  0  0  0
  9 10  1  0  0  0  0
  9 11  1  0  0  0  0
  9 13  1  0  0  0  0
  9 37  1  0  0  0  0
 10 12  1  0  0  0  0
 10 14  1  0  0  0  0
 10 38  1  0  0  0  0
 11 15  1  0  0  0  0
 11 39  1  0  0  0  0
 12 15  1  0  0  0  0
 12 40  1  0  0  0  0
 14 41  1  0  0  0  0
 15 42  1  0  0  0  0
 15 43  1  0  0  0  0
 16 17  1  0  0  0  0
 16 45  1  0  0  0  0
 16 46  1  0  0  0  0
 17 18  1  0  0  0  0
 17 47  1  0  0  0  0
 17 48  1  0  0  0  0
 18 19  2  0  0  0  0
 18 20  1  0  0  0  0
 19 21  1  0  0  0  0
 19 49  1  0  0  0  0
 20 22  2  0  0  0  0
 20 50  1  0  0  0  0
 21 23  2  0  0  0  0
 22 23  1  0  0  0  0
 22 51  1  0  0  0  0
 24 26  1  0  0  0  0
 24 52  1  0  0  0  0
 24 53  1  0  0  0  0
 25 54  1  0  0  0  0
 25 55  1  0  0  0  0
 25 56  1  0  0  0  0
 26 27  1  0  0  0  0
 26 57  1  0  0  0  0
 26 58  1  0  0  0  0
 27 28  2  0  0  0  0
 27 29  1  0  0  0  0
 28 30  1  0  0  0  0
 28 59  1  0  0  0  0
 29 31  2  0  0  0  0
 29 60  1  0  0  0  0
 30 32  2  0  0  0  0
 30 61  1  0  0  0  0
 31 32  1  0  0  0  0
 31 62  1  0  0  0  0
 32 63  1  0  0  0  0
M  END
> <PUBCHEM_COMPOUND_CID>
54585745

> <PUBCHEM_COMPOUND_CANONICALIZED>
1

> <PUBCHEM_CACTVS_COMPLEXITY>
768

> <PUBCHEM_CACTVS_HBOND_ACCEPTOR>
4

> <PUBCHEM_CACTVS_HBOND_DONOR>
1

> <PUBCHEM_CACTVS_ROTATABLE_BOND>
8

> <PUBCHEM_CACTVS_SUBSKEYS>
AAADceB6MAAAAAAAAAAAAAAAAABgAePGDBAwYAAAAAAAAAABQAAAHgAACAAADSzhmAYyBoMABgCAAiBCAAACCAAgIAAIiAAOiIgNJiKEsRuGeCKkwBGKqAew0PIOoAABAAAAQADAgAaAADSAAaAADQAAAA==

> <PUBCHEM_IUPAC_OPENEYE_NAME>
5-[2-[4-methoxy-3-(2-phenylethoxy)phenyl]ethyl]-5-azahexacyclo[5.4.1.02,6.03,10.04,8.09,12]dodecan-4-ol

> <PUBCHEM_IUPAC_CAS_NAME>
5-[2-[4-methoxy-3-(2-phenylethoxy)phenyl]ethyl]-5-azahexacyclo[5.4.1.02,6.03,10.04,8.09,12]dodecan-4-ol

> <PUBCHEM_IUPAC_NAME_MARKUP>
5-[2-[4-methoxy-3-(2-phenylethoxy)phenyl]ethyl]-5-azahexacyclo[5.4.1.0<SUP>2,6</SUP>.0<SUP>3,10</SUP>.0<SUP>4,8</SUP>.0<SUP>9,12</SUP>]dodecan-4-ol

> <PUBCHEM_IUPAC_NAME>
5-[2-[4-methoxy-3-(2-phenylethoxy)phenyl]ethyl]-5-azahexacyclo[5.4.1.02,6.03,10.04,8.09,12]dodecan-4-ol

> <PUBCHEM_IUPAC_SYSTEMATIC_NAME>
5-[2-[4-methoxy-3-(2-phenylethoxy)phenyl]ethyl]-5-azahexacyclo[5.4.1.02,6.03,10.04,8.09,12]dodecan-4-ol

> <PUBCHEM_IUPAC_TRADITIONAL_NAME>
5-[2-(4-methoxy-3-phenethoxy-phenyl)ethyl]-5-azahexacyclo[5.4.1.02,6.03,10.04,8.09,12]dodecan-4-ol

> <PUBCHEM_IUPAC_INCHI>
InChI=1S/C28H31NO3/c1-31-19-8-7-16(13-20(19)32-12-10-15-5-3-2-4-6-15)9-11-29-27-23-17-14-18-22-21(17)24(27)26(22)28(29,30)25(18)23/h2-8,13,17-18,21-27,30H,9-12,14H2,1H3

> <PUBCHEM_IUPAC_INCHIKEY>
QCBXRMVDVAHCPR-UHFFFAOYSA-N

> <PUBCHEM_XLOGP3_AA>
4.7

> <PUBCHEM_EXACT_MASS>
429.23039385

> <PUBCHEM_MOLECULAR_FORMULA>
C28H31NO3

> <PUBCHEM_MOLECULAR_WEIGHT>
429.5

> <PUBCHEM_OPENEYE_CAN_SMILES>
COC1=C(C=C(C=C1)CCN2C3C4C5CC6C4C2(C7C6C5C73)O)OCCC8=CC=CC=C8

> <PUBCHEM_OPENEYE_ISO_SMILES>
COC1=C(C=C(C=C1)CCN2C3C4C5CC6C4C2(C7C6C5C73)O)OCCC8=CC=CC=C8

> <PUBCHEM_CACTVS_TPSA>
41.9

> <PUBCHEM_MONOISOTOPIC_WEIGHT>
429.23039385

> <PUBCHEM_TOTAL_CHARGE>
0

> <PUBCHEM_HEAVY_ATOM_COUNT>
32

> <PUBCHEM_ATOM_DEF_STEREO_COUNT>
0

> <PUBCHEM_ATOM_UDEF_STEREO_COUNT>
10

> <PUBCHEM_BOND_DEF_STEREO_COUNT>
0

> <PUBCHEM_BOND_UDEF_STEREO_COUNT>
0

> <PUBCHEM_ISOTOPIC_ATOM_COUNT>
0

> <PUBCHEM_COMPONENT_COUNT>
1

> <PUBCHEM_CACTVS_TAUTO_COUNT>
-1

> <PUBCHEM_COORDINATE_TYPE>
1
5
255

> <PUBCHEM_BONDANNOTATIONS>
13  1  3
10  12  3
11  15  3
12  15  3
18  19  8
18  20  8
19  21  8
20  22  8
21  23  8
22  23  8
27  28  8
27  29  8
28  30  8
29  31  8
30  32  8
31  32  8
14  4  3
5  11  3
7  5  3
6  12  3
8  6  3
9  11  3

$$$$
