145974143
  -OEChem-09292322052D

 57 60  0     0  0  0  0  0  0999 V2000
    5.5443   -4.4464    0.0000 S   0  0  0  0  0  0  0  0  0  0  0  0
    2.0000   -4.6416    0.0000 F   0  0  0  0  0  0  0  0  0  0  0  0
    9.3653    3.2787    0.0000 O   0  0  0  0  0  0  0  0  0  0  0  0
   12.3473    1.2520    0.0000 O   0  0  0  0  0  0  0  0  0  0  0  0
    6.4763    0.0147    0.0000 N   0  0  0  0  0  0  0  0  0  0  0  0
    5.8550   -1.8864    0.0000 N   0  0  0  0  0  0  0  0  0  0  0  0
    6.1279   -3.6416    0.0000 N   0  0  0  0  0  0  0  0  0  0  0  0
   10.6545    4.4354    0.0000 N   0  0  0  0  0  0  0  0  0  0  0  0
   13.6365    2.4087    0.0000 N   0  0  0  0  0  0  0  0  0  0  0  0
    5.4978   -0.1916    0.0000 C   0  0  0  0  0  0  0  0  0  0  0  0
    7.1441   -0.7296    0.0000 C   0  0  0  0  0  0  0  0  0  0  0  0
    5.1871   -1.1421    0.0000 C   0  0  0  0  0  0  0  0  0  0  0  0
    6.8335   -1.6802    0.0000 C   0  0  0  0  0  0  0  0  0  0  0  0
    6.7870    0.9652    0.0000 C   0  0  0  0  0  0  0  0  0  0  0  0
    7.7654    1.1714    0.0000 C   0  0  0  0  0  0  0  0  0  0  0  0
    5.5443   -2.8369    0.0000 C   0  0  0  0  0  0  0  0  0  0  0  0
    8.0761    2.1219    0.0000 C   0  0  0  0  0  0  0  0  0  0  0  0
    4.5981   -3.1416    0.0000 C   0  0  0  0  0  0  0  0  0  0  0  0
    9.0546    2.3282    0.0000 C   0  0  0  0  0  0  0  0  0  0  0  0
    4.5981   -4.1416    0.0000 C   0  0  0  0  0  0  0  0  0  0  0  0
    3.7320   -2.6416    0.0000 C   0  0  0  0  0  0  0  0  0  0  0  0
    3.7320   -4.6416    0.0000 C   0  0  0  0  0  0  0  0  0  0  0  0
    2.8660   -3.1416    0.0000 C   0  0  0  0  0  0  0  0  0  0  0  0
    2.8660   -4.1416    0.0000 C   0  0  0  0  0  0  0  0  0  0  0  0
   10.3438    3.4849    0.0000 C   0  0  0  0  0  0  0  0  0  0  0  0
   11.0116    2.7406    0.0000 C   0  0  0  0  0  0  0  0  0  0  0  0
   11.9901    2.9468    0.0000 C   0  0  0  0  0  0  0  0  0  0  0  0
   11.6330    4.6416    0.0000 C   0  0  0  0  0  0  0  0  0  0  0  0
   12.3008    3.8973    0.0000 C   0  0  0  0  0  0  0  0  0  0  0  0
   12.6580    2.2025    0.0000 C   0  0  0  0  0  0  0  0  0  0  0  0
   14.3043    1.6644    0.0000 C   0  0  0  0  0  0  0  0  0  0  0  0
    5.4772    0.4281    0.0000 H   0  0  0  0  0  0  0  0  0  0  0  0
    4.8840   -0.1042    0.0000 H   0  0  0  0  0  0  0  0  0  0  0  0
    7.6910   -1.0216    0.0000 H   0  0  0  0  0  0  0  0  0  0  0  0
    7.5267   -0.2417    0.0000 H   0  0  0  0  0  0  0  0  0  0  0  0
    4.6402   -0.8501    0.0000 H   0  0  0  0  0  0  0  0  0  0  0  0
    4.8046   -1.6300    0.0000 H   0  0  0  0  0  0  0  0  0  0  0  0
    6.8540   -2.2998    0.0000 H   0  0  0  0  0  0  0  0  0  0  0  0
    7.4473   -1.7675    0.0000 H   0  0  0  0  0  0  0  0  0  0  0  0
    6.7664    1.5849    0.0000 H   0  0  0  0  0  0  0  0  0  0  0  0
    6.1731    1.0525    0.0000 H   0  0  0  0  0  0  0  0  0  0  0  0
    7.7860    0.5517    0.0000 H   0  0  0  0  0  0  0  0  0  0  0  0
    8.3793    1.0841    0.0000 H   0  0  0  0  0  0  0  0  0  0  0  0
    8.0556    2.7416    0.0000 H   0  0  0  0  0  0  0  0  0  0  0  0
    7.4623    2.2093    0.0000 H   0  0  0  0  0  0  0  0  0  0  0  0
    9.0752    1.7085    0.0000 H   0  0  0  0  0  0  0  0  0  0  0  0
    9.6684    2.2408    0.0000 H   0  0  0  0  0  0  0  0  0  0  0  0
    3.7320   -2.0216    0.0000 H   0  0  0  0  0  0  0  0  0  0  0  0
    3.7320   -5.2616    0.0000 H   0  0  0  0  0  0  0  0  0  0  0  0
    2.3291   -2.8316    0.0000 H   0  0  0  0  0  0  0  0  0  0  0  0
   10.8190    2.1513    0.0000 H   0  0  0  0  0  0  0  0  0  0  0  0
   11.8256    5.2310    0.0000 H   0  0  0  0  0  0  0  0  0  0  0  0
   12.9075    4.0252    0.0000 H   0  0  0  0  0  0  0  0  0  0  0  0
   13.8291    2.9980    0.0000 H   0  0  0  0  0  0  0  0  0  0  0  0
   13.8429    1.2504    0.0000 H   0  0  0  0  0  0  0  0  0  0  0  0
   14.7184    1.2030    0.0000 H   0  0  0  0  0  0  0  0  0  0  0  0
   14.7658    2.0785    0.0000 H   0  0  0  0  0  0  0  0  0  0  0  0
  1  7  1  0  0  0  0
  1 20  1  0  0  0  0
  2 24  1  0  0  0  0
  3 19  1  0  0  0  0
  3 25  1  0  0  0  0
  4 30  2  0  0  0  0
  5 10  1  0  0  0  0
  5 11  1  0  0  0  0
  5 14  1  0  0  0  0
  6 12  1  0  0  0  0
  6 13  1  0  0  0  0
  6 16  1  0  0  0  0
  7 16  2  0  0  0  0
  8 25  2  0  0  0  0
  8 28  1  0  0  0  0
  9 30  1  0  0  0  0
  9 31  1  0  0  0  0
  9 54  1  0  0  0  0
 10 12  1  0  0  0  0
 10 32  1  0  0  0  0
 10 33  1  0  0  0  0
 11 13  1  0  0  0  0
 11 34  1  0  0  0  0
 11 35  1  0  0  0  0
 12 36  1  0  0  0  0
 12 37  1  0  0  0  0
 13 38  1  0  0  0  0
 13 39  1  0  0  0  0
 14 15  1  0  0  0  0
 14 40  1  0  0  0  0
 14 41  1  0  0  0  0
 15 17  1  0  0  0  0
 15 42  1  0  0  0  0
 15 43  1  0  0  0  0
 16 18  1  0  0  0  0
 17 19  1  0  0  0  0
 17 44  1  0  0  0  0
 17 45  1  0  0  0  0
 18 20  2  0  0  0  0
 18 21  1  0  0  0  0
 19 46  1  0  0  0  0
 19 47  1  0  0  0  0
 20 22  1  0  0  0  0
 21 23  2  0  0  0  0
 21 48  1  0  0  0  0
 22 24  2  0  0  0  0
 22 49  1  0  0  0  0
 23 24  1  0  0  0  0
 23 50  1  0  0  0  0
 25 26  1  0  0  0  0
 26 27  2  0  0  0  0
 26 51  1  0  0  0  0
 27 29  1  0  0  0  0
 27 30  1  0  0  0  0
 28 29  2  0  0  0  0
 28 52  1  0  0  0  0
 29 53  1  0  0  0  0
 31 55  1  0  0  0  0
 31 56  1  0  0  0  0
 31 57  1  0  0  0  0
M  END
> <PUBCHEM_COMPOUND_CID>
145974143

> <PUBCHEM_COMPOUND_CANONICALIZED>
1

> <PUBCHEM_CACTVS_COMPLEXITY>
580

> <PUBCHEM_CACTVS_HBOND_ACCEPTOR>
8

> <PUBCHEM_CACTVS_HBOND_DONOR>
1

> <PUBCHEM_CACTVS_ROTATABLE_BOND>
8

> <PUBCHEM_CACTVS_SUBSKEYS>
AAADceB7sQBAAAAAAAAAAAAAAAAAAWAAAAA8WIAAAAAAAFgB/AAAHwQQQAAADADh2g4/tdPIFACsAjN3dACDiDA1IiBJ2Lk+bNiMZvLEvZueOSzkwhPI6Ye2kAAOAAAAAAAEAAAAAAAAAAgAAAAAAAAAAA==

> <PUBCHEM_IUPAC_OPENEYE_NAME>
2-[4-[4-(6-fluoro-1,2-benzothiazol-3-yl)piperazin-1-yl]butoxy]-N-methyl-pyridine-4-carboxamide

> <PUBCHEM_IUPAC_CAS_NAME>
2-[4-[4-(6-fluoro-1,2-benzothiazol-3-yl)-1-piperazinyl]butoxy]-N-methyl-4-pyridinecarboxamide

> <PUBCHEM_IUPAC_NAME_MARKUP>
2-[4-[4-(6-fluoro-1,2-benzothiazol-3-yl)piperazin-1-yl]butoxy]-<I>N</I>-methylpyridine-4-carboxamide

> <PUBCHEM_IUPAC_NAME>
2-[4-[4-(6-fluoro-1,2-benzothiazol-3-yl)piperazin-1-yl]butoxy]-N-methylpyridine-4-carboxamide

> <PUBCHEM_IUPAC_SYSTEMATIC_NAME>
2-[4-[4-(6-fluoranyl-1,2-benzothiazol-3-yl)piperazin-1-yl]butoxy]-N-methyl-pyridine-4-carboxamide

> <PUBCHEM_IUPAC_TRADITIONAL_NAME>
2-[4-[4-(6-fluoro-1,2-benzothiazol-3-yl)piperazino]butoxy]-N-methyl-isonicotinamide

> <PUBCHEM_IUPAC_INCHI>
InChI=1S/C22H26FN5O2S/c1-24-22(29)16-6-7-25-20(14-16)30-13-3-2-8-27-9-11-28(12-10-27)21-18-5-4-17(23)15-19(18)31-26-21/h4-7,14-15H,2-3,8-13H2,1H3,(H,24,29)

> <PUBCHEM_IUPAC_INCHIKEY>
IPVLSOVWVUCPMD-UHFFFAOYSA-N

> <PUBCHEM_XLOGP3_AA>
3.6

> <PUBCHEM_EXACT_MASS>
443.17912442

> <PUBCHEM_MOLECULAR_FORMULA>
C22H26FN5O2S

> <PUBCHEM_MOLECULAR_WEIGHT>
443.5

> <PUBCHEM_OPENEYE_CAN_SMILES>
CNC(=O)C1=CC(=NC=C1)OCCCCN2CCN(CC2)C3=NSC4=C3C=CC(=C4)F

> <PUBCHEM_OPENEYE_ISO_SMILES>
CNC(=O)C1=CC(=NC=C1)OCCCCN2CCN(CC2)C3=NSC4=C3C=CC(=C4)F

> <PUBCHEM_CACTVS_TPSA>
98.8

> <PUBCHEM_MONOISOTOPIC_WEIGHT>
443.17912442

> <PUBCHEM_TOTAL_CHARGE>
0

> <PUBCHEM_HEAVY_ATOM_COUNT>
31

> <PUBCHEM_ATOM_DEF_STEREO_COUNT>
0

> <PUBCHEM_ATOM_UDEF_STEREO_COUNT>
0

> <PUBCHEM_BOND_DEF_STEREO_COUNT>
0

> <PUBCHEM_BOND_UDEF_STEREO_COUNT>
0

> <PUBCHEM_ISOTOPIC_ATOM_COUNT>
0

> <PUBCHEM_COMPONENT_COUNT>
1

> <PUBCHEM_CACTVS_TAUTO_COUNT>
-1

> <PUBCHEM_COORDINATE_TYPE>
1
5
255

> <PUBCHEM_BONDANNOTATIONS>
1  20  8
1  7  8
16  18  8
18  20  8
18  21  8
20  22  8
21  23  8
22  24  8
23  24  8
25  26  8
26  27  8
27  29  8
28  29  8
7  16  8
8  25  8
8  28  8

$$$$
