11606456
  -OEChem-09292322492D

 78 83  0     1  0  0  0  0  0999 V2000
    6.7062    2.4621    0.0000 S   0  0  0  0  0  0  0  0  0  0  0  0
    5.1566   -7.1966    0.0000 O   0  0  0  0  0  0  0  0  0  0  0  0
    6.2062   -1.8680    0.0000 N   0  0  3  0  0  0  0  0  0  0  0  0
    3.5000   -6.5554    0.0000 N   0  0  0  0  0  0  0  0  0  0  0  0
    6.6130    4.2417    0.0000 N   0  0  0  0  0  0  0  0  0  0  0  0
    5.2117    3.4327    0.0000 N   0  0  0  0  0  0  0  0  0  0  0  0
    5.0038    4.4108    0.0000 N   0  0  0  0  0  0  0  0  0  0  0  0
    4.4367    8.1128    0.0000 N   0  0  0  0  0  0  0  0  0  0  0  0
    4.6979   -3.4805    0.0000 C   0  0  0  0  0  0  0  0  0  0  0  0
    5.5640   -3.9805    0.0000 C   0  0  0  0  0  0  0  0  0  0  0  0
    4.5583   -2.5097    0.0000 C   0  0  0  0  0  0  0  0  0  0  0  0
    6.4745   -3.6160    0.0000 C   0  0  0  0  0  0  0  0  0  0  0  0
    5.2283   -1.7934    0.0000 C   0  0  0  0  0  0  0  0  0  0  0  0
    6.7598   -2.6776    0.0000 C   0  0  0  0  0  0  0  0  0  0  0  0
    3.8319   -4.9805    0.0000 C   0  0  0  0  0  0  0  0  0  0  0  0
    4.6979   -5.4805    0.0000 C   0  0  0  0  0  0  0  0  0  0  0  0
    3.0949   -5.6476    0.0000 C   0  0  0  0  0  0  0  0  0  0  0  0
    3.8319   -3.9805    0.0000 C   0  0  0  0  0  0  0  0  0  0  0  0
    6.7062   -1.0020    0.0000 C   0  0  0  0  0  0  0  0  0  0  0  0
    5.5640   -4.9805    0.0000 C   0  0  0  0  0  0  0  0  0  0  0  0
    4.4887   -6.4523    0.0000 C   0  0  0  0  0  0  0  0  0  0  0  0
    3.0000   -7.4214    0.0000 C   0  0  0  0  0  0  0  0  0  0  0  0
    6.2062   -0.1360    0.0000 C   0  0  0  0  0  0  0  0  0  0  0  0
    6.7062    0.7301    0.0000 C   0  0  0  0  0  0  0  0  0  0  0  0
    2.0000   -7.4214    0.0000 C   0  0  0  0  0  0  0  0  0  0  0  0
    3.5000   -8.2874    0.0000 C   0  0  0  0  0  0  0  0  0  0  0  0
    6.2062    1.5961    0.0000 C   0  0  0  0  0  0  0  0  0  0  0  0
    6.2062    3.3281    0.0000 C   0  0  0  0  0  0  0  0  0  0  0  0
    5.8698    4.9108    0.0000 C   0  0  0  0  0  0  0  0  0  0  0  0
    5.9744    5.9053    0.0000 C   0  0  0  0  0  0  0  0  0  0  0  0
    5.1653    6.4931    0.0000 C   0  0  0  0  0  0  0  0  0  0  0  0
    7.5911    4.4496    0.0000 C   0  0  0  0  0  0  0  0  0  0  0  0
    5.2699    7.4876    0.0000 C   0  0  0  0  0  0  0  0  0  0  0  0
    6.8879    6.3121    0.0000 C   0  0  0  0  0  0  0  0  0  0  0  0
    4.2204    6.0548    0.0000 C   0  0  0  0  0  0  0  0  0  0  0  0
    6.1834    7.8944    0.0000 C   0  0  0  0  0  0  0  0  0  0  0  0
    6.9924    7.3066    0.0000 C   0  0  0  0  0  0  0  0  0  0  0  0
    3.3730    6.6606    0.0000 C   0  0  0  0  0  0  0  0  0  0  0  0
    3.4819    7.6965    0.0000 C   0  0  0  0  0  0  0  0  0  0  0  0
    2.6752    8.2874    0.0000 C   0  0  0  0  0  0  0  0  0  0  0  0
    4.2116   -1.9957    0.0000 H   0  0  0  0  0  0  0  0  0  0  0  0
    3.9798   -2.7328    0.0000 H   0  0  0  0  0  0  0  0  0  0  0  0
    6.5705   -4.2285    0.0000 H   0  0  0  0  0  0  0  0  0  0  0  0
    7.0930   -3.6593    0.0000 H   0  0  0  0  0  0  0  0  0  0  0  0
    5.4124   -1.2014    0.0000 H   0  0  0  0  0  0  0  0  0  0  0  0
    4.6923   -1.4817    0.0000 H   0  0  0  0  0  0  0  0  0  0  0  0
    7.2977   -2.9860    0.0000 H   0  0  0  0  0  0  0  0  0  0  0  0
    7.1805   -2.2222    0.0000 H   0  0  0  0  0  0  0  0  0  0  0  0
    2.7294   -5.1467    0.0000 H   0  0  0  0  0  0  0  0  0  0  0  0
    2.5584   -5.9583    0.0000 H   0  0  0  0  0  0  0  0  0  0  0  0
    3.2950   -3.6705    0.0000 H   0  0  0  0  0  0  0  0  0  0  0  0
    7.1812   -1.4005    0.0000 H   0  0  0  0  0  0  0  0  0  0  0  0
    7.1812   -0.6035    0.0000 H   0  0  0  0  0  0  0  0  0  0  0  0
    6.1009   -5.2905    0.0000 H   0  0  0  0  0  0  0  0  0  0  0  0
    3.6200   -7.4214    0.0000 H   0  0  0  0  0  0  0  0  0  0  0  0
    5.7313    0.2626    0.0000 H   0  0  0  0  0  0  0  0  0  0  0  0
    5.7313   -0.5345    0.0000 H   0  0  0  0  0  0  0  0  0  0  0  0
    7.1812    0.3315    0.0000 H   0  0  0  0  0  0  0  0  0  0  0  0
    7.1812    1.1286    0.0000 H   0  0  0  0  0  0  0  0  0  0  0  0
    2.0000   -6.8014    0.0000 H   0  0  0  0  0  0  0  0  0  0  0  0
    1.3800   -7.4214    0.0000 H   0  0  0  0  0  0  0  0  0  0  0  0
    2.0000   -8.0414    0.0000 H   0  0  0  0  0  0  0  0  0  0  0  0
    2.9631   -8.5974    0.0000 H   0  0  0  0  0  0  0  0  0  0  0  0
    3.8100   -8.8243    0.0000 H   0  0  0  0  0  0  0  0  0  0  0  0
    4.0369   -7.9774    0.0000 H   0  0  0  0  0  0  0  0  0  0  0  0
    5.7313    1.9946    0.0000 H   0  0  0  0  0  0  0  0  0  0  0  0
    5.7313    1.1976    0.0000 H   0  0  0  0  0  0  0  0  0  0  0  0
    7.7200    3.8431    0.0000 H   0  0  0  0  0  0  0  0  0  0  0  0
    8.1976    4.5785    0.0000 H   0  0  0  0  0  0  0  0  0  0  0  0
    7.4622    5.0560    0.0000 H   0  0  0  0  0  0  0  0  0  0  0  0
    7.3895    5.9476    0.0000 H   0  0  0  0  0  0  0  0  0  0  0  0
    4.1627    5.4375    0.0000 H   0  0  0  0  0  0  0  0  0  0  0  0
    6.2482    8.5110    0.0000 H   0  0  0  0  0  0  0  0  0  0  0  0
    7.5588    7.5588    0.0000 H   0  0  0  0  0  0  0  0  0  0  0  0
    2.8076    6.4062    0.0000 H   0  0  0  0  0  0  0  0  0  0  0  0
    3.0415    8.7876    0.0000 H   0  0  0  0  0  0  0  0  0  0  0  0
    2.1750    8.6538    0.0000 H   0  0  0  0  0  0  0  0  0  0  0  0
    2.3088    7.7872    0.0000 H   0  0  0  0  0  0  0  0  0  0  0  0
  1 27  1  0  0  0  0
  1 28  1  0  0  0  0
  2 21  2  0  0  0  0
  3 13  1  0  0  0  0
  3 14  1  0  0  0  0
  3 19  1  0  0  0  0
  4 17  1  0  0  0  0
  4 21  1  0  0  0  0
  4 22  1  0  0  0  0
  5 28  1  0  0  0  0
  5 29  1  0  0  0  0
  5 32  1  0  0  0  0
  6  7  1  0  0  0  0
  6 28  2  0  0  0  0
  7 29  2  0  0  0  0
  8 33  1  0  0  0  0
  8 39  2  0  0  0  0
  9 10  1  0  0  0  0
  9 11  1  0  0  0  0
  9 18  2  0  0  0  0
 10 12  1  0  0  0  0
 10 20  2  0  0  0  0
 11 13  1  0  0  0  0
 11 41  1  0  0  0  0
 11 42  1  0  0  0  0
 12 14  1  0  0  0  0
 12 43  1  0  0  0  0
 12 44  1  0  0  0  0
 13 45  1  0  0  0  0
 13 46  1  0  0  0  0
 14 47  1  0  0  0  0
 14 48  1  0  0  0  0
 15 16  2  0  0  0  0
 15 17  1  0  0  0  0
 15 18  1  0  0  0  0
 16 20  1  0  0  0  0
 16 21  1  0  0  0  0
 17 49  1  0  0  0  0
 17 50  1  0  0  0  0
 18 51  1  0  0  0  0
 19 23  1  0  0  0  0
 19 52  1  0  0  0  0
 19 53  1  0  0  0  0
 20 54  1  0  0  0  0
 22 25  1  0  0  0  0
 22 26  1  0  0  0  0
 22 55  1  0  0  0  0
 23 24  1  0  0  0  0
 23 56  1  0  0  0  0
 23 57  1  0  0  0  0
 24 27  1  0  0  0  0
 24 58  1  0  0  0  0
 24 59  1  0  0  0  0
 25 60  1  0  0  0  0
 25 61  1  0  0  0  0
 25 62  1  0  0  0  0
 26 63  1  0  0  0  0
 26 64  1  0  0  0  0
 26 65  1  0  0  0  0
 27 66  1  0  0  0  0
 27 67  1  0  0  0  0
 29 30  1  0  0  0  0
 30 31  2  0  0  0  0
 30 34  1  0  0  0  0
 31 33  1  0  0  0  0
 31 35  1  0  0  0  0
 32 68  1  0  0  0  0
 32 69  1  0  0  0  0
 32 70  1  0  0  0  0
 33 36  2  0  0  0  0
 34 37  2  0  0  0  0
 34 71  1  0  0  0  0
 35 38  2  0  0  0  0
 35 72  1  0  0  0  0
 36 37  1  0  0  0  0
 36 73  1  0  0  0  0
 37 74  1  0  0  0  0
 38 39  1  0  0  0  0
 38 75  1  0  0  0  0
 39 40  1  0  0  0  0
 40 76  1  0  0  0  0
 40 77  1  0  0  0  0
 40 78  1  0  0  0  0
M  END
> <PUBCHEM_COMPOUND_CID>
11606456

> <PUBCHEM_COMPOUND_CANONICALIZED>
1

> <PUBCHEM_CACTVS_COMPLEXITY>
859

> <PUBCHEM_CACTVS_HBOND_ACCEPTOR>
6

> <PUBCHEM_CACTVS_HBOND_DONOR>
0

> <PUBCHEM_CACTVS_ROTATABLE_BOND>
8

> <PUBCHEM_CACTVS_SUBSKEYS>
AAADcfB/oABAAAAAAAAAAAAAAAAAAWLAAAA8YIAABYAAAFix/AAAHgQIAAAADCjF3wSz0PcMEAiqAydydACS0CtlArAd2CE4ZNiIKPLgnZGEIQhgjgLIyYcciMCOwAACQAASAACAAASAACQAAAAAAAAAAA==

> <PUBCHEM_IUPAC_OPENEYE_NAME>
2-isopropyl-7-[4-[[4-methyl-5-(2-methyl-5-quinolyl)-1,2,4-triazol-3-yl]sulfanyl]butyl]-5,6,8,9-tetrahydro-1H-pyrrolo[3,4-h][3]benzazepin-3-one

> <PUBCHEM_IUPAC_CAS_NAME>
7-[4-[[4-methyl-5-(2-methyl-5-quinolinyl)-1,2,4-triazol-3-yl]thio]butyl]-2-propan-2-yl-5,6,8,9-tetrahydro-1H-pyrrolo[3,4-h][3]benzazepin-3-one

> <PUBCHEM_IUPAC_NAME_MARKUP>
7-[4-[[4-methyl-5-(2-methylquinolin-5-yl)-1,2,4-triazol-3-yl]sulfanyl]butyl]-2-propan-2-yl-5,6,8,9-tetrahydro-1<I>H</I>-pyrrolo[3,4-h][3]benzazepin-3-one

> <PUBCHEM_IUPAC_NAME>
7-[4-[[4-methyl-5-(2-methylquinolin-5-yl)-1,2,4-triazol-3-yl]sulfanyl]butyl]-2-propan-2-yl-5,6,8,9-tetrahydro-1H-pyrrolo[3,4-h][3]benzazepin-3-one

> <PUBCHEM_IUPAC_SYSTEMATIC_NAME>
7-[4-[[4-methyl-5-(2-methylquinolin-5-yl)-1,2,4-triazol-3-yl]sulfanyl]butyl]-2-propan-2-yl-5,6,8,9-tetrahydro-1H-pyrrolo[3,4-h][3]benzazepin-3-one

> <PUBCHEM_IUPAC_TRADITIONAL_NAME>
2-isopropyl-7-[4-[[4-methyl-5-(2-methyl-5-quinolyl)-1,2,4-triazol-3-yl]thio]butyl]-5,6,8,9-tetrahydro-1H-pyrrolo[3,4-h][3]benzazepin-3-one

> <PUBCHEM_IUPAC_INCHI>
InChI=1S/C32H38N6OS/c1-21(2)38-20-25-18-23-12-15-37(16-13-24(23)19-28(25)31(38)39)14-5-6-17-40-32-35-34-30(36(32)4)27-8-7-9-29-26(27)11-10-22(3)33-29/h7-11,18-19,21H,5-6,12-17,20H2,1-4H3

> <PUBCHEM_IUPAC_INCHIKEY>
JQVYPXIHEOFUGD-UHFFFAOYSA-N

> <PUBCHEM_XLOGP3_AA>
5.2

> <PUBCHEM_EXACT_MASS>
554.28278103

> <PUBCHEM_MOLECULAR_FORMULA>
C32H38N6OS

> <PUBCHEM_MOLECULAR_WEIGHT>
554.8

> <PUBCHEM_OPENEYE_CAN_SMILES>
CC1=NC2=CC=CC(=C2C=C1)C3=NN=C(N3C)SCCCCN4CCC5=CC6=C(C=C5CC4)C(=O)N(C6)C(C)C

> <PUBCHEM_OPENEYE_ISO_SMILES>
CC1=NC2=CC=CC(=C2C=C1)C3=NN=C(N3C)SCCCCN4CCC5=CC6=C(C=C5CC4)C(=O)N(C6)C(C)C

> <PUBCHEM_CACTVS_TPSA>
92.4

> <PUBCHEM_MONOISOTOPIC_WEIGHT>
554.28278103

> <PUBCHEM_TOTAL_CHARGE>
0

> <PUBCHEM_HEAVY_ATOM_COUNT>
40

> <PUBCHEM_ATOM_DEF_STEREO_COUNT>
0

> <PUBCHEM_ATOM_UDEF_STEREO_COUNT>
0

> <PUBCHEM_BOND_DEF_STEREO_COUNT>
0

> <PUBCHEM_BOND_UDEF_STEREO_COUNT>
0

> <PUBCHEM_ISOTOPIC_ATOM_COUNT>
0

> <PUBCHEM_COMPONENT_COUNT>
1

> <PUBCHEM_CACTVS_TAUTO_COUNT>
-1

> <PUBCHEM_COORDINATE_TYPE>
1
5
255

> <PUBCHEM_BONDANNOTATIONS>
10  20  8
15  16  8
15  18  8
16  20  8
30  31  8
30  34  8
31  33  8
31  35  8
33  36  8
34  37  8
35  38  8
36  37  8
38  39  8
5  28  8
5  29  8
6  28  8
6  7  8
7  29  8
8  33  8
8  39  8
9  10  8
9  18  8

$$$$
