44397670
  -OEChem-09292322092D

 99100  0     0  0  0  0  0  0999 V2000
    5.5010    9.5051    0.0000 F   0  0  0  0  0  0  0  0  0  0  0  0
    5.1350    8.1391    0.0000 F   0  0  0  0  0  0  0  0  0  0  0  0
    6.5010    7.7730    0.0000 F   0  0  0  0  0  0  0  0  0  0  0  0
    0.3660    9.5051    0.0000 F   0  0  0  0  0  0  0  0  0  0  0  0
    0.0000    8.1391    0.0000 F   0  0  0  0  0  0  0  0  0  0  0  0
    1.3660    7.7730    0.0000 F   0  0  0  0  0  0  0  0  0  0  0  0
   15.1371    3.2921    0.0000 O   0  0  0  0  0  0  0  0  0  0  0  0
    7.7331    8.6391    0.0000 O   0  0  0  0  0  0  0  0  0  0  0  0
    2.5981    8.6391    0.0000 O   0  0  0  0  0  0  0  0  0  0  0  0
    6.8671   10.1391    0.0000 O   0  0  0  0  0  0  0  0  0  0  0  0
    1.7320   10.1391    0.0000 O   0  0  0  0  0  0  0  0  0  0  0  0
   14.2711    4.7921    0.0000 N   0  0  0  0  0  0  0  0  0  0  0  0
   11.6730    5.2921    0.0000 N   0  0  0  0  0  0  0  0  0  0  0  0
   16.0031   12.7921    0.0000 N   0  0  0  0  0  0  0  0  0  0  0  0
   12.5390    1.7921    0.0000 C   0  0  0  0  0  0  0  0  0  0  0  0
   11.6255    2.1988    0.0000 C   0  0  0  0  0  0  0  0  0  0  0  0
   12.4345    0.7976    0.0000 C   0  0  0  0  0  0  0  0  0  0  0  0
   10.9563    1.4557    0.0000 C   0  0  0  0  0  0  0  0  0  0  0  0
   11.4563    0.5897    0.0000 C   0  0  0  0  0  0  0  0  0  0  0  0
   13.4050    2.2921    0.0000 C   0  0  0  0  0  0  0  0  0  0  0  0
   13.4050    3.2921    0.0000 C   0  0  0  0  0  0  0  0  0  0  0  0
   14.2711    3.7921    0.0000 C   0  0  0  0  0  0  0  0  0  0  0  0
   13.4050    5.2921    0.0000 C   0  0  0  0  0  0  0  0  0  0  0  0
   15.1371    5.2921    0.0000 C   0  0  0  0  0  0  0  0  0  0  0  0
   12.5390    4.7921    0.0000 C   0  0  0  0  0  0  0  0  0  0  0  0
   15.1371    6.2921    0.0000 C   0  0  0  0  0  0  0  0  0  0  0  0
   16.0031    6.7921    0.0000 C   0  0  0  0  0  0  0  0  0  0  0  0
   14.2711    6.7921    0.0000 C   0  0  0  0  0  0  0  0  0  0  0  0
   10.8070    4.7921    0.0000 C   0  0  0  0  0  0  0  0  0  0  0  0
   11.6730    6.2921    0.0000 C   0  0  0  0  0  0  0  0  0  0  0  0
   16.0031    7.7921    0.0000 C   0  0  0  0  0  0  0  0  0  0  0  0
   14.2711    7.7921    0.0000 C   0  0  0  0  0  0  0  0  0  0  0  0
   15.1371    8.2921    0.0000 C   0  0  0  0  0  0  0  0  0  0  0  0
   15.1371    9.2921    0.0000 C   0  0  0  0  0  0  0  0  0  0  0  0
   14.2711    9.7921    0.0000 C   0  0  0  0  0  0  0  0  0  0  0  0
   16.0031    9.7921    0.0000 C   0  0  0  0  0  0  0  0  0  0  0  0
   15.1371   11.2921    0.0000 C   0  0  0  0  0  0  0  0  0  0  0  0
   14.2711   10.7921    0.0000 C   0  0  0  0  0  0  0  0  0  0  0  0
   16.0031   10.7921    0.0000 C   0  0  0  0  0  0  0  0  0  0  0  0
   15.1371   12.2921    0.0000 C   0  0  0  0  0  0  0  0  0  0  0  0
   16.0031   13.7921    0.0000 C   0  0  0  0  0  0  0  0  0  0  0  0
   16.8691   14.2921    0.0000 C   0  0  0  0  0  0  0  0  0  0  0  0
   16.8691   15.2921    0.0000 C   0  0  0  0  0  0  0  0  0  0  0  0
   17.7352   15.7921    0.0000 C   0  0  0  0  0  0  0  0  0  0  0  0
   16.0031   15.7921    0.0000 C   0  0  0  0  0  0  0  0  0  0  0  0
   17.7352   16.7921    0.0000 C   0  0  0  0  0  0  0  0  0  0  0  0
   16.0031   16.7921    0.0000 C   0  0  0  0  0  0  0  0  0  0  0  0
   16.8691   17.2921    0.0000 C   0  0  0  0  0  0  0  0  0  0  0  0
    6.0010    8.6391    0.0000 C   0  0  0  0  0  0  0  0  0  0  0  0
    0.8660    8.6391    0.0000 C   0  0  0  0  0  0  0  0  0  0  0  0
    6.8671    9.1391    0.0000 C   0  0  0  0  0  0  0  0  0  0  0  0
    1.7320    9.1391    0.0000 C   0  0  0  0  0  0  0  0  0  0  0  0
   13.0590    1.4544    0.0000 H   0  0  0  0  0  0  0  0  0  0  0  0
   11.9355    2.7358    0.0000 H   0  0  0  0  0  0  0  0  0  0  0  0
   11.1239    2.5632    0.0000 H   0  0  0  0  0  0  0  0  0  0  0  0
   12.4993    0.1810    0.0000 H   0  0  0  0  0  0  0  0  0  0  0  0
   13.0545    0.7976    0.0000 H   0  0  0  0  0  0  0  0  0  0  0  0
   10.5415    1.9164    0.0000 H   0  0  0  0  0  0  0  0  0  0  0  0
   10.4547    1.0912    0.0000 H   0  0  0  0  0  0  0  0  0  0  0  0
   10.8899    0.3375    0.0000 H   0  0  0  0  0  0  0  0  0  0  0  0
   11.6479    0.0000    0.0000 H   0  0  0  0  0  0  0  0  0  0  0  0
   13.6171    1.7095    0.0000 H   0  0  0  0  0  0  0  0  0  0  0  0
   14.0156    2.3998    0.0000 H   0  0  0  0  0  0  0  0  0  0  0  0
   13.1930    3.8747    0.0000 H   0  0  0  0  0  0  0  0  0  0  0  0
   12.7945    3.1844    0.0000 H   0  0  0  0  0  0  0  0  0  0  0  0
   13.8036    5.7670    0.0000 H   0  0  0  0  0  0  0  0  0  0  0  0
   13.0065    5.7670    0.0000 H   0  0  0  0  0  0  0  0  0  0  0  0
   15.3491    4.7095    0.0000 H   0  0  0  0  0  0  0  0  0  0  0  0
   15.7477    5.3998    0.0000 H   0  0  0  0  0  0  0  0  0  0  0  0
   12.1405    4.3171    0.0000 H   0  0  0  0  0  0  0  0  0  0  0  0
   12.9375    4.3171    0.0000 H   0  0  0  0  0  0  0  0  0  0  0  0
   16.5400    6.4821    0.0000 H   0  0  0  0  0  0  0  0  0  0  0  0
   13.7341    6.4821    0.0000 H   0  0  0  0  0  0  0  0  0  0  0  0
   10.4970    5.3290    0.0000 H   0  0  0  0  0  0  0  0  0  0  0  0
   10.2700    4.4821    0.0000 H   0  0  0  0  0  0  0  0  0  0  0  0
   11.1170    4.2552    0.0000 H   0  0  0  0  0  0  0  0  0  0  0  0
   12.2930    6.2921    0.0000 H   0  0  0  0  0  0  0  0  0  0  0  0
   11.6730    6.9121    0.0000 H   0  0  0  0  0  0  0  0  0  0  0  0
   11.0530    6.2921    0.0000 H   0  0  0  0  0  0  0  0  0  0  0  0
   16.5400    8.1021    0.0000 H   0  0  0  0  0  0  0  0  0  0  0  0
   13.7341    8.1021    0.0000 H   0  0  0  0  0  0  0  0  0  0  0  0
   13.7341    9.4821    0.0000 H   0  0  0  0  0  0  0  0  0  0  0  0
   16.5400    9.4821    0.0000 H   0  0  0  0  0  0  0  0  0  0  0  0
   13.7341   11.1021    0.0000 H   0  0  0  0  0  0  0  0  0  0  0  0
   16.5400   11.1021    0.0000 H   0  0  0  0  0  0  0  0  0  0  0  0
   14.9250   12.8747    0.0000 H   0  0  0  0  0  0  0  0  0  0  0  0
   14.5265   12.1844    0.0000 H   0  0  0  0  0  0  0  0  0  0  0  0
   16.5400   12.4821    0.0000 H   0  0  0  0  0  0  0  0  0  0  0  0
   15.7911   14.3747    0.0000 H   0  0  0  0  0  0  0  0  0  0  0  0
   15.3925   13.6844    0.0000 H   0  0  0  0  0  0  0  0  0  0  0  0
   17.0812   13.7095    0.0000 H   0  0  0  0  0  0  0  0  0  0  0  0
   17.4797   14.3998    0.0000 H   0  0  0  0  0  0  0  0  0  0  0  0
   18.2721   15.4821    0.0000 H   0  0  0  0  0  0  0  0  0  0  0  0
   15.4662   15.4821    0.0000 H   0  0  0  0  0  0  0  0  0  0  0  0
   18.2721   17.1021    0.0000 H   0  0  0  0  0  0  0  0  0  0  0  0
   15.4662   17.1021    0.0000 H   0  0  0  0  0  0  0  0  0  0  0  0
   16.8691   17.9121    0.0000 H   0  0  0  0  0  0  0  0  0  0  0  0
    8.2700    8.9491    0.0000 H   0  0  0  0  0  0  0  0  0  0  0  0
    3.1350    8.9491    0.0000 H   0  0  0  0  0  0  0  0  0  0  0  0
  1 49  1  0  0  0  0
  2 49  1  0  0  0  0
  3 49  1  0  0  0  0
  4 50  1  0  0  0  0
  5 50  1  0  0  0  0
  6 50  1  0  0  0  0
  7 22  2  0  0  0  0
  8 51  1  0  0  0  0
  8 98  1  0  0  0  0
  9 52  1  0  0  0  0
  9 99  1  0  0  0  0
 10 51  2  0  0  0  0
 11 52  2  0  0  0  0
 12 22  1  0  0  0  0
 12 23  1  0  0  0  0
 12 24  1  0  0  0  0
 13 25  1  0  0  0  0
 13 29  1  0  0  0  0
 13 30  1  0  0  0  0
 14 40  1  0  0  0  0
 14 41  1  0  0  0  0
 14 88  1  0  0  0  0
 15 16  1  0  0  0  0
 15 17  1  0  0  0  0
 15 20  1  0  0  0  0
 15 53  1  0  0  0  0
 16 18  1  0  0  0  0
 16 54  1  0  0  0  0
 16 55  1  0  0  0  0
 17 19  1  0  0  0  0
 17 56  1  0  0  0  0
 17 57  1  0  0  0  0
 18 19  1  0  0  0  0
 18 58  1  0  0  0  0
 18 59  1  0  0  0  0
 19 60  1  0  0  0  0
 19 61  1  0  0  0  0
 20 21  1  0  0  0  0
 20 62  1  0  0  0  0
 20 63  1  0  0  0  0
 21 22  1  0  0  0  0
 21 64  1  0  0  0  0
 21 65  1  0  0  0  0
 23 25  1  0  0  0  0
 23 66  1  0  0  0  0
 23 67  1  0  0  0  0
 24 26  1  0  0  0  0
 24 68  1  0  0  0  0
 24 69  1  0  0  0  0
 25 70  1  0  0  0  0
 25 71  1  0  0  0  0
 26 27  2  0  0  0  0
 26 28  1  0  0  0  0
 27 31  1  0  0  0  0
 27 72  1  0  0  0  0
 28 32  2  0  0  0  0
 28 73  1  0  0  0  0
 29 74  1  0  0  0  0
 29 75  1  0  0  0  0
 29 76  1  0  0  0  0
 30 77  1  0  0  0  0
 30 78  1  0  0  0  0
 30 79  1  0  0  0  0
 31 33  2  0  0  0  0
 31 80  1  0  0  0  0
 32 33  1  0  0  0  0
 32 81  1  0  0  0  0
 33 34  1  0  0  0  0
 34 35  2  0  0  0  0
 34 36  1  0  0  0  0
 35 38  1  0  0  0  0
 35 82  1  0  0  0  0
 36 39  2  0  0  0  0
 36 83  1  0  0  0  0
 37 38  2  0  0  0  0
 37 39  1  0  0  0  0
 37 40  1  0  0  0  0
 38 84  1  0  0  0  0
 39 85  1  0  0  0  0
 40 86  1  0  0  0  0
 40 87  1  0  0  0  0
 41 42  1  0  0  0  0
 41 89  1  0  0  0  0
 41 90  1  0  0  0  0
 42 43  1  0  0  0  0
 42 91  1  0  0  0  0
 42 92  1  0  0  0  0
 43 44  2  0  0  0  0
 43 45  1  0  0  0  0
 44 46  1  0  0  0  0
 44 93  1  0  0  0  0
 45 47  2  0  0  0  0
 45 94  1  0  0  0  0
 46 48  2  0  0  0  0
 46 95  1  0  0  0  0
 47 48  1  0  0  0  0
 47 96  1  0  0  0  0
 48 97  1  0  0  0  0
 49 51  1  0  0  0  0
 50 52  1  0  0  0  0
M  END
> <PUBCHEM_COMPOUND_CID>
44397670

> <PUBCHEM_COMPOUND_CANONICALIZED>
1

> <PUBCHEM_CACTVS_COMPLEXITY>
722

> <PUBCHEM_CACTVS_HBOND_ACCEPTOR>
13

> <PUBCHEM_CACTVS_HBOND_DONOR>
3

> <PUBCHEM_CACTVS_ROTATABLE_BOND>
14

> <PUBCHEM_CACTVS_SUBSKEYS>
AAADcfB/OcAAAAAAAAAAAAAAAAAAAYAAAAAwYMAAAAAAAAABUAAAHwAQCAAADQDBmBQyCIPAAgCIAiHSGACCAAAgAAAIiIEIBIgIYDKAkRGUIAhglgCIiAcYiMCOwAAAAAAAAACAAAAAAAAAAAAAAAAAAA==

> <PUBCHEM_IUPAC_OPENEYE_NAME>
3-cyclopentyl-N-[2-(dimethylamino)ethyl]-N-[[4-[4-[(2-phenylethylamino)methyl]phenyl]phenyl]methyl]propanamide;2,2,2-trifluoroacetic acid

> <PUBCHEM_IUPAC_CAS_NAME>
3-cyclopentyl-N-[2-(dimethylamino)ethyl]-N-[[4-[4-[(2-phenylethylamino)methyl]phenyl]phenyl]methyl]propanamide;2,2,2-trifluoroacetic acid

> <PUBCHEM_IUPAC_NAME_MARKUP>
3-cyclopentyl-<I>N</I>-[2-(dimethylamino)ethyl]-<I>N</I>-[[4-[4-[(2-phenylethylamino)methyl]phenyl]phenyl]methyl]propanamide;2,2,2-trifluoroacetic acid

> <PUBCHEM_IUPAC_NAME>
3-cyclopentyl-N-[2-(dimethylamino)ethyl]-N-[[4-[4-[(2-phenylethylamino)methyl]phenyl]phenyl]methyl]propanamide;2,2,2-trifluoroacetic acid

> <PUBCHEM_IUPAC_SYSTEMATIC_NAME>
3-cyclopentyl-N-[2-(dimethylamino)ethyl]-N-[[4-[4-[(2-phenylethylamino)methyl]phenyl]phenyl]methyl]propanamide;2,2,2-tris(fluoranyl)ethanoic acid

> <PUBCHEM_IUPAC_TRADITIONAL_NAME>
3-cyclopentyl-N-[2-(dimethylamino)ethyl]-N-[4-[4-[(phenethylamino)methyl]phenyl]benzyl]propionamide;2,2,2-trifluoroacetic acid

> <PUBCHEM_IUPAC_INCHI>
InChI=1S/C34H45N3O.2C2HF3O2/c1-36(2)24-25-37(34(38)21-16-28-10-6-7-11-28)27-31-14-19-33(20-15-31)32-17-12-30(13-18-32)26-35-23-22-29-8-4-3-5-9-29;2*3-2(4,5)1(6)7/h3-5,8-9,12-15,17-20,28,35H,6-7,10-11,16,21-27H2,1-2H3;2*(H,6,7)

> <PUBCHEM_IUPAC_INCHIKEY>
GQTXLMGFFOLOLU-UHFFFAOYSA-N

> <PUBCHEM_EXACT_MASS>
739.34199058

> <PUBCHEM_MOLECULAR_FORMULA>
C38H47F6N3O5

> <PUBCHEM_MOLECULAR_WEIGHT>
739.8

> <PUBCHEM_OPENEYE_CAN_SMILES>
CN(C)CCN(CC1=CC=C(C=C1)C2=CC=C(C=C2)CNCCC3=CC=CC=C3)C(=O)CCC4CCCC4.C(=O)(C(F)(F)F)O.C(=O)(C(F)(F)F)O

> <PUBCHEM_OPENEYE_ISO_SMILES>
CN(C)CCN(CC1=CC=C(C=C1)C2=CC=C(C=C2)CNCCC3=CC=CC=C3)C(=O)CCC4CCCC4.C(=O)(C(F)(F)F)O.C(=O)(C(F)(F)F)O

> <PUBCHEM_CACTVS_TPSA>
110

> <PUBCHEM_MONOISOTOPIC_WEIGHT>
739.34199058

> <PUBCHEM_TOTAL_CHARGE>
0

> <PUBCHEM_HEAVY_ATOM_COUNT>
52

> <PUBCHEM_ATOM_DEF_STEREO_COUNT>
0

> <PUBCHEM_ATOM_UDEF_STEREO_COUNT>
0

> <PUBCHEM_BOND_DEF_STEREO_COUNT>
0

> <PUBCHEM_BOND_UDEF_STEREO_COUNT>
0

> <PUBCHEM_ISOTOPIC_ATOM_COUNT>
0

> <PUBCHEM_COMPONENT_COUNT>
3

> <PUBCHEM_CACTVS_TAUTO_COUNT>
-1

> <PUBCHEM_COORDINATE_TYPE>
1
5
255

> <PUBCHEM_BONDANNOTATIONS>
26  27  8
26  28  8
27  31  8
28  32  8
31  33  8
32  33  8
34  35  8
34  36  8
35  38  8
36  39  8
37  38  8
37  39  8
43  44  8
43  45  8
44  46  8
45  47  8
46  48  8
47  48  8

$$$$
