155559811
  -OEChem-09292322422D

 51 54  0     1  0  0  0  0  0999 V2000
    8.4530   -1.2018    0.0000 S   0  0  0  0  0  0  0  0  0  0  0  0
    9.4035   -0.8912    0.0000 O   0  0  0  0  0  0  0  0  0  0  0  0
    7.5025   -1.5125    0.0000 O   0  0  0  0  0  0  0  0  0  0  0  0
    4.5981    1.5534    0.0000 N   0  0  0  0  0  0  0  0  0  0  0  0
    2.8660    2.5534    0.0000 N   0  0  0  0  0  0  0  0  0  0  0  0
    8.1424   -0.2513    0.0000 N   0  0  3  0  0  0  0  0  0  0  0  0
    3.7320    1.0534    0.0000 C   0  0  0  0  0  0  0  0  0  0  0  0
    4.5981    2.5534    0.0000 C   0  0  0  0  0  0  0  0  0  0  0  0
    7.1962    1.0534    0.0000 C   0  0  0  0  0  0  0  0  0  0  0  0
    2.8660    1.5534    0.0000 C   0  0  0  0  0  0  0  0  0  0  0  0
    3.7320    3.0534    0.0000 C   0  0  0  0  0  0  0  0  0  0  0  0
    8.1424    1.3581    0.0000 C   0  0  0  0  0  0  0  0  0  0  0  0
    7.1962    0.0534    0.0000 C   0  0  0  0  0  0  0  0  0  0  0  0
    8.7260    0.5534    0.0000 C   0  0  0  0  0  0  0  0  0  0  0  0
    5.4641    1.0534    0.0000 C   0  0  0  0  0  0  0  0  0  0  0  0
    6.3301    1.5534    0.0000 C   0  0  0  0  0  0  0  0  0  0  0  0
    6.3301   -0.4466    0.0000 C   0  0  0  0  0  0  0  0  0  0  0  0
    2.0000    3.0534    0.0000 C   0  0  0  0  0  0  0  0  0  0  0  0
    5.4641    0.0534    0.0000 C   0  0  0  0  0  0  0  0  0  0  0  0
    8.7637   -2.1524    0.0000 C   0  0  0  0  0  0  0  0  0  0  0  0
    2.0000    4.0534    0.0000 C   0  0  0  0  0  0  0  0  0  0  0  0
    9.7422   -2.3586    0.0000 C   0  0  0  0  0  0  0  0  0  0  0  0
    8.0958   -2.8967    0.0000 C   0  0  0  0  0  0  0  0  0  0  0  0
   10.0529   -3.3091    0.0000 C   0  0  0  0  0  0  0  0  0  0  0  0
    8.4065   -3.8472    0.0000 C   0  0  0  0  0  0  0  0  0  0  0  0
    9.3850   -4.0534    0.0000 C   0  0  0  0  0  0  0  0  0  0  0  0
    3.3335    0.5785    0.0000 H   0  0  0  0  0  0  0  0  0  0  0  0
    4.1306    0.5785    0.0000 H   0  0  0  0  0  0  0  0  0  0  0  0
    5.2087    2.4457    0.0000 H   0  0  0  0  0  0  0  0  0  0  0  0
    4.8101    3.1360    0.0000 H   0  0  0  0  0  0  0  0  0  0  0  0
    2.2554    1.6611    0.0000 H   0  0  0  0  0  0  0  0  0  0  0  0
    2.6540    0.9708    0.0000 H   0  0  0  0  0  0  0  0  0  0  0  0
    4.1306    3.5284    0.0000 H   0  0  0  0  0  0  0  0  0  0  0  0
    3.3335    3.5284    0.0000 H   0  0  0  0  0  0  0  0  0  0  0  0
    8.6798    1.6674    0.0000 H   0  0  0  0  0  0  0  0  0  0  0  0
    7.8913    1.9250    0.0000 H   0  0  0  0  0  0  0  0  0  0  0  0
    9.1868    0.1387    0.0000 H   0  0  0  0  0  0  0  0  0  0  0  0
    9.1868    0.9681    0.0000 H   0  0  0  0  0  0  0  0  0  0  0  0
    6.3301    2.1734    0.0000 H   0  0  0  0  0  0  0  0  0  0  0  0
    6.3301   -1.0666    0.0000 H   0  0  0  0  0  0  0  0  0  0  0  0
    1.3894    3.1611    0.0000 H   0  0  0  0  0  0  0  0  0  0  0  0
    1.7880    2.4708    0.0000 H   0  0  0  0  0  0  0  0  0  0  0  0
    4.9272   -0.2566    0.0000 H   0  0  0  0  0  0  0  0  0  0  0  0
    2.6200    4.0534    0.0000 H   0  0  0  0  0  0  0  0  0  0  0  0
    2.0000    4.6734    0.0000 H   0  0  0  0  0  0  0  0  0  0  0  0
    1.3800    4.0534    0.0000 H   0  0  0  0  0  0  0  0  0  0  0  0
   10.1563   -1.8971    0.0000 H   0  0  0  0  0  0  0  0  0  0  0  0
    7.4892   -2.7688    0.0000 H   0  0  0  0  0  0  0  0  0  0  0  0
   10.6595   -3.4370    0.0000 H   0  0  0  0  0  0  0  0  0  0  0  0
    7.9924   -4.3087    0.0000 H   0  0  0  0  0  0  0  0  0  0  0  0
    9.5776   -4.6427    0.0000 H   0  0  0  0  0  0  0  0  0  0  0  0
  1  2  2  0  0  0  0
  1  3  2  0  0  0  0
  1  6  1  0  0  0  0
  1 20  1  0  0  0  0
  4  7  1  0  0  0  0
  4  8  1  0  0  0  0
  4 15  1  0  0  0  0
  5 10  1  0  0  0  0
  5 11  1  0  0  0  0
  5 18  1  0  0  0  0
  6 13  1  0  0  0  0
  6 14  1  0  0  0  0
  7 10  1  0  0  0  0
  7 27  1  0  0  0  0
  7 28  1  0  0  0  0
  8 11  1  0  0  0  0
  8 29  1  0  0  0  0
  8 30  1  0  0  0  0
  9 12  1  0  0  0  0
  9 13  2  0  0  0  0
  9 16  1  0  0  0  0
 10 31  1  0  0  0  0
 10 32  1  0  0  0  0
 11 33  1  0  0  0  0
 11 34  1  0  0  0  0
 12 14  1  0  0  0  0
 12 35  1  0  0  0  0
 12 36  1  0  0  0  0
 13 17  1  0  0  0  0
 14 37  1  0  0  0  0
 14 38  1  0  0  0  0
 15 16  2  0  0  0  0
 15 19  1  0  0  0  0
 16 39  1  0  0  0  0
 17 19  2  0  0  0  0
 17 40  1  0  0  0  0
 18 21  1  0  0  0  0
 18 41  1  0  0  0  0
 18 42  1  0  0  0  0
 19 43  1  0  0  0  0
 20 22  2  0  0  0  0
 20 23  1  0  0  0  0
 21 44  1  0  0  0  0
 21 45  1  0  0  0  0
 21 46  1  0  0  0  0
 22 24  1  0  0  0  0
 22 47  1  0  0  0  0
 23 25  2  0  0  0  0
 23 48  1  0  0  0  0
 24 26  2  0  0  0  0
 24 49  1  0  0  0  0
 25 26  1  0  0  0  0
 25 50  1  0  0  0  0
 26 51  1  0  0  0  0
M  END
> <PUBCHEM_COMPOUND_CID>
155559811

> <PUBCHEM_COMPOUND_CANONICALIZED>
1

> <PUBCHEM_CACTVS_COMPLEXITY>
562

> <PUBCHEM_CACTVS_HBOND_ACCEPTOR>
5

> <PUBCHEM_CACTVS_HBOND_DONOR>
0

> <PUBCHEM_CACTVS_ROTATABLE_BOND>
4

> <PUBCHEM_CACTVS_SUBSKEYS>
AAADceB7MABAAAAAAAAAAAAAAAAAAWAAAAA8YIAAAAAAAFgBQAAAHAQAQAAADAjBWAQywYMAAAKAAiRCQHDCABAhAgAIiBgIZIgIYCLAkZGUIAhggADIyAcQgIAOAACAQAACAAAAAQCAAAQAAAAAAAAAAA==

> <PUBCHEM_IUPAC_OPENEYE_NAME>
1-(benzenesulfonyl)-5-(4-ethylpiperazin-1-yl)indoline

> <PUBCHEM_IUPAC_CAS_NAME>
1-(benzenesulfonyl)-5-(4-ethyl-1-piperazinyl)-2,3-dihydroindole

> <PUBCHEM_IUPAC_NAME_MARKUP>
1-(benzenesulfonyl)-5-(4-ethylpiperazin-1-yl)-2,3-dihydroindole

> <PUBCHEM_IUPAC_NAME>
1-(benzenesulfonyl)-5-(4-ethylpiperazin-1-yl)-2,3-dihydroindole

> <PUBCHEM_IUPAC_SYSTEMATIC_NAME>
5-(4-ethylpiperazin-1-yl)-1-(phenylsulfonyl)-2,3-dihydroindole

> <PUBCHEM_IUPAC_TRADITIONAL_NAME>
1-besyl-5-(4-ethylpiperazino)indoline

> <PUBCHEM_IUPAC_INCHI>
InChI=1S/C20H25N3O2S/c1-2-21-12-14-22(15-13-21)18-8-9-20-17(16-18)10-11-23(20)26(24,25)19-6-4-3-5-7-19/h3-9,16H,2,10-15H2,1H3

> <PUBCHEM_IUPAC_INCHIKEY>
PRBBGEBXWKOEEQ-UHFFFAOYSA-N

> <PUBCHEM_XLOGP3_AA>
3

> <PUBCHEM_EXACT_MASS>
371.16674822

> <PUBCHEM_MOLECULAR_FORMULA>
C20H25N3O2S

> <PUBCHEM_MOLECULAR_WEIGHT>
371.5

> <PUBCHEM_OPENEYE_CAN_SMILES>
CCN1CCN(CC1)C2=CC3=C(C=C2)N(CC3)S(=O)(=O)C4=CC=CC=C4

> <PUBCHEM_OPENEYE_ISO_SMILES>
CCN1CCN(CC1)C2=CC3=C(C=C2)N(CC3)S(=O)(=O)C4=CC=CC=C4

> <PUBCHEM_CACTVS_TPSA>
52.2

> <PUBCHEM_MONOISOTOPIC_WEIGHT>
371.16674822

> <PUBCHEM_TOTAL_CHARGE>
0

> <PUBCHEM_HEAVY_ATOM_COUNT>
26

> <PUBCHEM_ATOM_DEF_STEREO_COUNT>
0

> <PUBCHEM_ATOM_UDEF_STEREO_COUNT>
0

> <PUBCHEM_BOND_DEF_STEREO_COUNT>
0

> <PUBCHEM_BOND_UDEF_STEREO_COUNT>
0

> <PUBCHEM_ISOTOPIC_ATOM_COUNT>
0

> <PUBCHEM_COMPONENT_COUNT>
1

> <PUBCHEM_CACTVS_TAUTO_COUNT>
-1

> <PUBCHEM_COORDINATE_TYPE>
1
5
255

> <PUBCHEM_BONDANNOTATIONS>
13  17  8
15  16  8
15  19  8
17  19  8
20  22  8
20  23  8
22  24  8
23  25  8
24  26  8
25  26  8
9  13  8
9  16  8

$$$$
