56837635
  -OEChem-09292322322D

173178  0     0  0  0  0  0  0999 V2000
    2.8660  -19.2500    0.0000 O   0  0  0  0  0  0  0  0  0  0  0  0
   27.9808   18.2500    0.0000 O   0  0  0  0  0  0  0  0  0  0  0  0
    8.0622  -12.2500    0.0000 O   0  0  0  0  0  0  0  0  0  0  0  0
   22.7846   13.2500    0.0000 O   0  0  0  0  0  0  0  0  0  0  0  0
    8.0622   -7.2500    0.0000 O   0  0  0  0  0  0  0  0  0  0  0  0
   18.4545   10.7500    0.0000 O   0  0  0  0  0  0  0  0  0  0  0  0
    8.9282   -4.7500    0.0000 O   0  0  0  0  0  0  0  0  0  0  0  0
   16.7224    8.7500    0.0000 O   0  0  0  0  0  0  0  0  0  0  0  0
   10.6603   -2.7500    0.0000 O   0  0  0  0  0  0  0  0  0  0  0  0
   15.8564    6.2500    0.0000 O   0  0  0  0  0  0  0  0  0  0  0  0
   11.5263   -0.2500    0.0000 O   0  0  0  0  0  0  0  0  0  0  0  0
   14.1244    4.2500    0.0000 O   0  0  0  0  0  0  0  0  0  0  0  0
   13.2583    1.7500    0.0000 O   0  0  0  0  0  0  0  0  0  0  0  0
    4.5981  -16.2500    0.0000 N   0  0  0  0  0  0  0  0  0  0  0  0
   24.5167   18.2500    0.0000 N   0  0  0  0  0  0  0  0  0  0  0  0
    4.5981  -18.2500    0.0000 N   0  0  0  0  0  0  0  0  0  0  0  0
   26.2487   19.2500    0.0000 N   0  0  0  0  0  0  0  0  0  0  0  0
    6.3301  -12.2500    0.0000 N   0  0  0  0  0  0  0  0  0  0  0  0
   21.9186   14.7500    0.0000 N   0  0  0  0  0  0  0  0  0  0  0  0
    3.7320  -16.7500    0.0000 C   0  0  0  0  0  0  0  0  0  0  0  0
    5.4641  -16.7500    0.0000 C   0  0  0  0  0  0  0  0  0  0  0  0
   25.3827   17.7500    0.0000 C   0  0  0  0  0  0  0  0  0  0  0  0
   24.5167   19.2500    0.0000 C   0  0  0  0  0  0  0  0  0  0  0  0
    3.7320  -17.7500    0.0000 C   0  0  0  0  0  0  0  0  0  0  0  0
    5.4641  -17.7500    0.0000 C   0  0  0  0  0  0  0  0  0  0  0  0
   26.2487   18.2500    0.0000 C   0  0  0  0  0  0  0  0  0  0  0  0
   25.3827   19.7500    0.0000 C   0  0  0  0  0  0  0  0  0  0  0  0
    4.5981  -15.2500    0.0000 C   0  0  0  0  0  0  0  0  0  0  0  0
   23.6506   17.7500    0.0000 C   0  0  0  0  0  0  0  0  0  0  0  0
    5.4641  -14.7500    0.0000 C   0  0  0  0  0  0  0  0  0  0  0  0
   23.6506   16.7500    0.0000 C   0  0  0  0  0  0  0  0  0  0  0  0
    4.5981  -19.2500    0.0000 C   0  0  0  0  0  0  0  0  0  0  0  0
   27.1147   19.7500    0.0000 C   0  0  0  0  0  0  0  0  0  0  0  0
    5.4641  -13.7500    0.0000 C   0  0  0  0  0  0  0  0  0  0  0  0
   22.7846   16.2500    0.0000 C   0  0  0  0  0  0  0  0  0  0  0  0
    3.7320  -19.7500    0.0000 C   0  0  0  0  0  0  0  0  0  0  0  0
   27.9808   19.2500    0.0000 C   0  0  0  0  0  0  0  0  0  0  0  0
    6.3301  -13.2500    0.0000 C   0  0  0  0  0  0  0  0  0  0  0  0
   22.7846   15.2500    0.0000 C   0  0  0  0  0  0  0  0  0  0  0  0
    5.4641  -19.7500    0.0000 C   0  0  0  0  0  0  0  0  0  0  0  0
   27.1147   20.7500    0.0000 C   0  0  0  0  0  0  0  0  0  0  0  0
    3.7320  -20.7500    0.0000 C   0  0  0  0  0  0  0  0  0  0  0  0
   28.8468   19.7500    0.0000 C   0  0  0  0  0  0  0  0  0  0  0  0
    5.4641  -20.7500    0.0000 C   0  0  0  0  0  0  0  0  0  0  0  0
   27.9808   21.2500    0.0000 C   0  0  0  0  0  0  0  0  0  0  0  0
    4.5981  -21.2500    0.0000 C   0  0  0  0  0  0  0  0  0  0  0  0
   28.8468   20.7500    0.0000 C   0  0  0  0  0  0  0  0  0  0  0  0
    7.1962  -11.7500    0.0000 C   0  0  0  0  0  0  0  0  0  0  0  0
   21.9186   13.7500    0.0000 C   0  0  0  0  0  0  0  0  0  0  0  0
    2.0000  -19.7500    0.0000 C   0  0  0  0  0  0  0  0  0  0  0  0
   28.8468   17.7500    0.0000 C   0  0  0  0  0  0  0  0  0  0  0  0
    7.1962  -10.7500    0.0000 C   0  0  0  0  0  0  0  0  0  0  0  0
   21.0526   13.2500    0.0000 C   0  0  0  0  0  0  0  0  0  0  0  0
    8.0622  -10.2500    0.0000 C   0  0  0  0  0  0  0  0  0  0  0  0
   21.0526   12.2500    0.0000 C   0  0  0  0  0  0  0  0  0  0  0  0
    6.3301  -10.2500    0.0000 C   0  0  0  0  0  0  0  0  0  0  0  0
   20.1865   13.7500    0.0000 C   0  0  0  0  0  0  0  0  0  0  0  0
    8.0622   -9.2500    0.0000 C   0  0  0  0  0  0  0  0  0  0  0  0
   20.1865   11.7500    0.0000 C   0  0  0  0  0  0  0  0  0  0  0  0
    6.3301   -9.2500    0.0000 C   0  0  0  0  0  0  0  0  0  0  0  0
   19.3205   13.2500    0.0000 C   0  0  0  0  0  0  0  0  0  0  0  0
    7.1962   -8.7500    0.0000 C   0  0  0  0  0  0  0  0  0  0  0  0
   19.3205   12.2500    0.0000 C   0  0  0  0  0  0  0  0  0  0  0  0
    7.1962   -7.7500    0.0000 C   0  0  0  0  0  0  0  0  0  0  0  0
   18.4545   11.7500    0.0000 C   0  0  0  0  0  0  0  0  0  0  0  0
    8.0622   -6.2500    0.0000 C   0  0  0  0  0  0  0  0  0  0  0  0
   17.5885   10.2500    0.0000 C   0  0  0  0  0  0  0  0  0  0  0  0
    8.9282   -5.7500    0.0000 C   0  0  0  0  0  0  0  0  0  0  0  0
   17.5885    9.2500    0.0000 C   0  0  0  0  0  0  0  0  0  0  0  0
    9.7942   -4.2500    0.0000 C   0  0  0  0  0  0  0  0  0  0  0  0
   16.7224    7.7500    0.0000 C   0  0  0  0  0  0  0  0  0  0  0  0
    9.7942   -3.2500    0.0000 C   0  0  0  0  0  0  0  0  0  0  0  0
   15.8564    7.2500    0.0000 C   0  0  0  0  0  0  0  0  0  0  0  0
   10.6603   -1.7500    0.0000 C   0  0  0  0  0  0  0  0  0  0  0  0
   14.9904    5.7500    0.0000 C   0  0  0  0  0  0  0  0  0  0  0  0
   11.5263   -1.2500    0.0000 C   0  0  0  0  0  0  0  0  0  0  0  0
   14.9904    4.7500    0.0000 C   0  0  0  0  0  0  0  0  0  0  0  0
   12.3923    0.2500    0.0000 C   0  0  0  0  0  0  0  0  0  0  0  0
   14.1244    3.2500    0.0000 C   0  0  0  0  0  0  0  0  0  0  0  0
   12.3923    1.2500    0.0000 C   0  0  0  0  0  0  0  0  0  0  0  0
   13.2583    2.7500    0.0000 C   0  0  0  0  0  0  0  0  0  0  0  0
    3.5200  -16.1674    0.0000 H   0  0  0  0  0  0  0  0  0  0  0  0
    3.1215  -16.8577    0.0000 H   0  0  0  0  0  0  0  0  0  0  0  0
    6.0747  -16.8577    0.0000 H   0  0  0  0  0  0  0  0  0  0  0  0
    5.6762  -16.1674    0.0000 H   0  0  0  0  0  0  0  0  0  0  0  0
   24.9842   17.2751    0.0000 H   0  0  0  0  0  0  0  0  0  0  0  0
   25.7812   17.2751    0.0000 H   0  0  0  0  0  0  0  0  0  0  0  0
   24.3046   19.8326    0.0000 H   0  0  0  0  0  0  0  0  0  0  0  0
   23.9061   19.1423    0.0000 H   0  0  0  0  0  0  0  0  0  0  0  0
    3.1215  -17.6423    0.0000 H   0  0  0  0  0  0  0  0  0  0  0  0
    3.5200  -18.3326    0.0000 H   0  0  0  0  0  0  0  0  0  0  0  0
    5.6762  -18.3326    0.0000 H   0  0  0  0  0  0  0  0  0  0  0  0
    6.0747  -17.6423    0.0000 H   0  0  0  0  0  0  0  0  0  0  0  0
   26.4608   17.6674    0.0000 H   0  0  0  0  0  0  0  0  0  0  0  0
   26.8593   18.3577    0.0000 H   0  0  0  0  0  0  0  0  0  0  0  0
   25.7812   20.2249    0.0000 H   0  0  0  0  0  0  0  0  0  0  0  0
   24.9842   20.2249    0.0000 H   0  0  0  0  0  0  0  0  0  0  0  0
    4.3860  -14.6674    0.0000 H   0  0  0  0  0  0  0  0  0  0  0  0
    3.9875  -15.3577    0.0000 H   0  0  0  0  0  0  0  0  0  0  0  0
   23.4386   18.3326    0.0000 H   0  0  0  0  0  0  0  0  0  0  0  0
   23.0401   17.6423    0.0000 H   0  0  0  0  0  0  0  0  0  0  0  0
    5.6762  -15.3326    0.0000 H   0  0  0  0  0  0  0  0  0  0  0  0
    6.0747  -14.6423    0.0000 H   0  0  0  0  0  0  0  0  0  0  0  0
   23.8627   16.1674    0.0000 H   0  0  0  0  0  0  0  0  0  0  0  0
   24.2612   16.8577    0.0000 H   0  0  0  0  0  0  0  0  0  0  0  0
    5.2520  -13.1674    0.0000 H   0  0  0  0  0  0  0  0  0  0  0  0
    4.8535  -13.8577    0.0000 H   0  0  0  0  0  0  0  0  0  0  0  0
   22.5726   16.8326    0.0000 H   0  0  0  0  0  0  0  0  0  0  0  0
   22.1740   16.1423    0.0000 H   0  0  0  0  0  0  0  0  0  0  0  0
    6.5422  -13.8326    0.0000 H   0  0  0  0  0  0  0  0  0  0  0  0
    6.9407  -13.1423    0.0000 H   0  0  0  0  0  0  0  0  0  0  0  0
   22.9967   14.6674    0.0000 H   0  0  0  0  0  0  0  0  0  0  0  0
   23.3952   15.3577    0.0000 H   0  0  0  0  0  0  0  0  0  0  0  0
    6.0010  -19.4400    0.0000 H   0  0  0  0  0  0  0  0  0  0  0  0
   26.5778   21.0600    0.0000 H   0  0  0  0  0  0  0  0  0  0  0  0
    3.1951  -21.0600    0.0000 H   0  0  0  0  0  0  0  0  0  0  0  0
   29.3837   19.4400    0.0000 H   0  0  0  0  0  0  0  0  0  0  0  0
    6.0010  -21.0600    0.0000 H   0  0  0  0  0  0  0  0  0  0  0  0
   27.9808   21.8700    0.0000 H   0  0  0  0  0  0  0  0  0  0  0  0
    5.7932  -11.9400    0.0000 H   0  0  0  0  0  0  0  0  0  0  0  0
   21.3816   15.0600    0.0000 H   0  0  0  0  0  0  0  0  0  0  0  0
    4.5981  -21.8700    0.0000 H   0  0  0  0  0  0  0  0  0  0  0  0
   29.3837   21.0600    0.0000 H   0  0  0  0  0  0  0  0  0  0  0  0
    1.6900  -19.2131    0.0000 H   0  0  0  0  0  0  0  0  0  0  0  0
    1.4631  -20.0600    0.0000 H   0  0  0  0  0  0  0  0  0  0  0  0
    2.3100  -20.2869    0.0000 H   0  0  0  0  0  0  0  0  0  0  0  0
   28.5368   17.2131    0.0000 H   0  0  0  0  0  0  0  0  0  0  0  0
   29.3837   17.4400    0.0000 H   0  0  0  0  0  0  0  0  0  0  0  0
   29.1568   18.2869    0.0000 H   0  0  0  0  0  0  0  0  0  0  0  0
    8.5991  -10.5600    0.0000 H   0  0  0  0  0  0  0  0  0  0  0  0
   21.5895   11.9400    0.0000 H   0  0  0  0  0  0  0  0  0  0  0  0
    5.7932  -10.5600    0.0000 H   0  0  0  0  0  0  0  0  0  0  0  0
   20.1865   14.3700    0.0000 H   0  0  0  0  0  0  0  0  0  0  0  0
    8.5991   -8.9400    0.0000 H   0  0  0  0  0  0  0  0  0  0  0  0
   20.1865   11.1300    0.0000 H   0  0  0  0  0  0  0  0  0  0  0  0
    5.7932   -8.9400    0.0000 H   0  0  0  0  0  0  0  0  0  0  0  0
   18.7836   13.5600    0.0000 H   0  0  0  0  0  0  0  0  0  0  0  0
    6.9841   -7.1674    0.0000 H   0  0  0  0  0  0  0  0  0  0  0  0
    6.5856   -7.8577    0.0000 H   0  0  0  0  0  0  0  0  0  0  0  0
   18.2424   12.3326    0.0000 H   0  0  0  0  0  0  0  0  0  0  0  0
   17.8439   11.6423    0.0000 H   0  0  0  0  0  0  0  0  0  0  0  0
    7.8501   -5.6674    0.0000 H   0  0  0  0  0  0  0  0  0  0  0  0
    7.4516   -6.3577    0.0000 H   0  0  0  0  0  0  0  0  0  0  0  0
   17.3764   10.8326    0.0000 H   0  0  0  0  0  0  0  0  0  0  0  0
   16.9779   10.1423    0.0000 H   0  0  0  0  0  0  0  0  0  0  0  0
    9.1403   -6.3326    0.0000 H   0  0  0  0  0  0  0  0  0  0  0  0
    9.5388   -5.6423    0.0000 H   0  0  0  0  0  0  0  0  0  0  0  0
   17.8005    8.6674    0.0000 H   0  0  0  0  0  0  0  0  0  0  0  0
   18.1990    9.3577    0.0000 H   0  0  0  0  0  0  0  0  0  0  0  0
   10.0063   -4.8326    0.0000 H   0  0  0  0  0  0  0  0  0  0  0  0
   10.4048   -4.1423    0.0000 H   0  0  0  0  0  0  0  0  0  0  0  0
   16.9345    7.1674    0.0000 H   0  0  0  0  0  0  0  0  0  0  0  0
   17.3330    7.8577    0.0000 H   0  0  0  0  0  0  0  0  0  0  0  0
    9.5822   -2.6674    0.0000 H   0  0  0  0  0  0  0  0  0  0  0  0
    9.1836   -3.3577    0.0000 H   0  0  0  0  0  0  0  0  0  0  0  0
   15.6444    7.8326    0.0000 H   0  0  0  0  0  0  0  0  0  0  0  0
   15.2458    7.1423    0.0000 H   0  0  0  0  0  0  0  0  0  0  0  0
   10.4482   -1.1674    0.0000 H   0  0  0  0  0  0  0  0  0  0  0  0
   10.0497   -1.8577    0.0000 H   0  0  0  0  0  0  0  0  0  0  0  0
   14.7783    6.3326    0.0000 H   0  0  0  0  0  0  0  0  0  0  0  0
   14.3798    5.6423    0.0000 H   0  0  0  0  0  0  0  0  0  0  0  0
   11.7383   -1.8326    0.0000 H   0  0  0  0  0  0  0  0  0  0  0  0
   12.1369   -1.1423    0.0000 H   0  0  0  0  0  0  0  0  0  0  0  0
   15.2024    4.1674    0.0000 H   0  0  0  0  0  0  0  0  0  0  0  0
   15.6010    4.8577    0.0000 H   0  0  0  0  0  0  0  0  0  0  0  0
   12.6044   -0.3326    0.0000 H   0  0  0  0  0  0  0  0  0  0  0  0
   13.0029    0.3577    0.0000 H   0  0  0  0  0  0  0  0  0  0  0  0
   14.3364    2.6674    0.0000 H   0  0  0  0  0  0  0  0  0  0  0  0
   14.7349    3.3577    0.0000 H   0  0  0  0  0  0  0  0  0  0  0  0
   12.1803    1.8326    0.0000 H   0  0  0  0  0  0  0  0  0  0  0  0
   11.7817    1.1423    0.0000 H   0  0  0  0  0  0  0  0  0  0  0  0
   13.0463    3.3326    0.0000 H   0  0  0  0  0  0  0  0  0  0  0  0
   12.6477    2.6423    0.0000 H   0  0  0  0  0  0  0  0  0  0  0  0
  1 36  1  0  0  0  0
  1 50  1  0  0  0  0
  2 37  1  0  0  0  0
  2 51  1  0  0  0  0
  3 48  2  0  0  0  0
  4 49  2  0  0  0  0
  5 64  1  0  0  0  0
  5 66  1  0  0  0  0
  6 65  1  0  0  0  0
  6 67  1  0  0  0  0
  7 68  1  0  0  0  0
  7 70  1  0  0  0  0
  8 69  1  0  0  0  0
  8 71  1  0  0  0  0
  9 72  1  0  0  0  0
  9 74  1  0  0  0  0
 10 73  1  0  0  0  0
 10 75  1  0  0  0  0
 11 76  1  0  0  0  0
 11 78  1  0  0  0  0
 12 77  1  0  0  0  0
 12 79  1  0  0  0  0
 13 80  1  0  0  0  0
 13 81  1  0  0  0  0
 14 20  1  0  0  0  0
 14 21  1  0  0  0  0
 14 28  1  0  0  0  0
 15 22  1  0  0  0  0
 15 23  1  0  0  0  0
 15 29  1  0  0  0  0
 16 24  1  0  0  0  0
 16 25  1  0  0  0  0
 16 32  1  0  0  0  0
 17 26  1  0  0  0  0
 17 27  1  0  0  0  0
 17 33  1  0  0  0  0
 18 38  1  0  0  0  0
 18 48  1  0  0  0  0
 18120  1  0  0  0  0
 19 39  1  0  0  0  0
 19 49  1  0  0  0  0
 19121  1  0  0  0  0
 20 24  1  0  0  0  0
 20 82  1  0  0  0  0
 20 83  1  0  0  0  0
 21 25  1  0  0  0  0
 21 84  1  0  0  0  0
 21 85  1  0  0  0  0
 22 26  1  0  0  0  0
 22 86  1  0  0  0  0
 22 87  1  0  0  0  0
 23 27  1  0  0  0  0
 23 88  1  0  0  0  0
 23 89  1  0  0  0  0
 24 90  1  0  0  0  0
 24 91  1  0  0  0  0
 25 92  1  0  0  0  0
 25 93  1  0  0  0  0
 26 94  1  0  0  0  0
 26 95  1  0  0  0  0
 27 96  1  0  0  0  0
 27 97  1  0  0  0  0
 28 30  1  0  0  0  0
 28 98  1  0  0  0  0
 28 99  1  0  0  0  0
 29 31  1  0  0  0  0
 29100  1  0  0  0  0
 29101  1  0  0  0  0
 30 34  1  0  0  0  0
 30102  1  0  0  0  0
 30103  1  0  0  0  0
 31 35  1  0  0  0  0
 31104  1  0  0  0  0
 31105  1  0  0  0  0
 32 36  1  0  0  0  0
 32 40  2  0  0  0  0
 33 37  1  0  0  0  0
 33 41  2  0  0  0  0
 34 38  1  0  0  0  0
 34106  1  0  0  0  0
 34107  1  0  0  0  0
 35 39  1  0  0  0  0
 35108  1  0  0  0  0
 35109  1  0  0  0  0
 36 42  2  0  0  0  0
 37 43  2  0  0  0  0
 38110  1  0  0  0  0
 38111  1  0  0  0  0
 39112  1  0  0  0  0
 39113  1  0  0  0  0
 40 44  1  0  0  0  0
 40114  1  0  0  0  0
 41 45  1  0  0  0  0
 41115  1  0  0  0  0
 42 46  1  0  0  0  0
 42116  1  0  0  0  0
 43 47  1  0  0  0  0
 43117  1  0  0  0  0
 44 46  2  0  0  0  0
 44118  1  0  0  0  0
 45 47  2  0  0  0  0
 45119  1  0  0  0  0
 46122  1  0  0  0  0
 47123  1  0  0  0  0
 48 52  1  0  0  0  0
 49 53  1  0  0  0  0
 50124  1  0  0  0  0
 50125  1  0  0  0  0
 50126  1  0  0  0  0
 51127  1  0  0  0  0
 51128  1  0  0  0  0
 51129  1  0  0  0  0
 52 54  2  0  0  0  0
 52 56  1  0  0  0  0
 53 55  2  0  0  0  0
 53 57  1  0  0  0  0
 54 58  1  0  0  0  0
 54130  1  0  0  0  0
 55 59  1  0  0  0  0
 55131  1  0  0  0  0
 56 60  2  0  0  0  0
 56132  1  0  0  0  0
 57 61  2  0  0  0  0
 57133  1  0  0  0  0
 58 62  2  0  0  0  0
 58134  1  0  0  0  0
 59 63  2  0  0  0  0
 59135  1  0  0  0  0
 60 62  1  0  0  0  0
 60136  1  0  0  0  0
 61 63  1  0  0  0  0
 61137  1  0  0  0  0
 62 64  1  0  0  0  0
 63 65  1  0  0  0  0
 64138  1  0  0  0  0
 64139  1  0  0  0  0
 65140  1  0  0  0  0
 65141  1  0  0  0  0
 66 68  1  0  0  0  0
 66142  1  0  0  0  0
 66143  1  0  0  0  0
 67 69  1  0  0  0  0
 67144  1  0  0  0  0
 67145  1  0  0  0  0
 68146  1  0  0  0  0
 68147  1  0  0  0  0
 69148  1  0  0  0  0
 69149  1  0  0  0  0
 70 72  1  0  0  0  0
 70150  1  0  0  0  0
 70151  1  0  0  0  0
 71 73  1  0  0  0  0
 71152  1  0  0  0  0
 71153  1  0  0  0  0
 72154  1  0  0  0  0
 72155  1  0  0  0  0
 73156  1  0  0  0  0
 73157  1  0  0  0  0
 74 76  1  0  0  0  0
 74158  1  0  0  0  0
 74159  1  0  0  0  0
 75 77  1  0  0  0  0
 75160  1  0  0  0  0
 75161  1  0  0  0  0
 76162  1  0  0  0  0
 76163  1  0  0  0  0
 77164  1  0  0  0  0
 77165  1  0  0  0  0
 78 80  1  0  0  0  0
 78166  1  0  0  0  0
 78167  1  0  0  0  0
 79 81  1  0  0  0  0
 79168  1  0  0  0  0
 79169  1  0  0  0  0
 80170  1  0  0  0  0
 80171  1  0  0  0  0
 81172  1  0  0  0  0
 81173  1  0  0  0  0
M  END
> <PUBCHEM_COMPOUND_CID>
56837635

> <PUBCHEM_COMPOUND_CANONICALIZED>
1

> <PUBCHEM_CACTVS_COMPLEXITY>
1440

> <PUBCHEM_CACTVS_HBOND_ACCEPTOR>
17

> <PUBCHEM_CACTVS_HBOND_DONOR>
2

> <PUBCHEM_CACTVS_ROTATABLE_BOND>
44

> <PUBCHEM_CACTVS_SUBSKEYS>
AAADcfB/vAAAAAAAAAAAAAAAAAAAAAAAAAA8eMGCAAAAAAABVAAAHgAQAAAADAzhmAYyxoPABACIAiVSUACCCAAlIgAIiIEPbMgPZjLEtZuXMShk1hHa6YeYyDCOQAAAAAAAEACAAAAAAAAgAAAAAAAAAA==

> <PUBCHEM_IUPAC_OPENEYE_NAME>
N-[4-[4-(2-methoxyphenyl)piperazin-1-yl]butyl]-4-[2-[2-[2-[2-[2-[2-[2-[2-[[4-[4-[4-(2-methoxyphenyl)piperazin-1-yl]butylcarbamoyl]phenyl]methoxy]ethoxy]ethoxy]ethoxy]ethoxy]ethoxy]ethoxy]ethoxy]ethoxymethyl]benzamide

> <PUBCHEM_IUPAC_CAS_NAME>
N-[4-[4-(2-methoxyphenyl)-1-piperazinyl]butyl]-4-[2-[2-[2-[2-[2-[2-[2-[2-[[4-[[4-[4-(2-methoxyphenyl)-1-piperazinyl]butylamino]-oxomethyl]phenyl]methoxy]ethoxy]ethoxy]ethoxy]ethoxy]ethoxy]ethoxy]ethoxy]ethoxymethyl]benzamide

> <PUBCHEM_IUPAC_NAME_MARKUP>
<I>N</I>-[4-[4-(2-methoxyphenyl)piperazin-1-yl]butyl]-4-[2-[2-[2-[2-[2-[2-[2-[2-[[4-[4-[4-(2-methoxyphenyl)piperazin-1-yl]butylcarbamoyl]phenyl]methoxy]ethoxy]ethoxy]ethoxy]ethoxy]ethoxy]ethoxy]ethoxy]ethoxymethyl]benzamide

> <PUBCHEM_IUPAC_NAME>
N-[4-[4-(2-methoxyphenyl)piperazin-1-yl]butyl]-4-[2-[2-[2-[2-[2-[2-[2-[2-[[4-[4-[4-(2-methoxyphenyl)piperazin-1-yl]butylcarbamoyl]phenyl]methoxy]ethoxy]ethoxy]ethoxy]ethoxy]ethoxy]ethoxy]ethoxy]ethoxymethyl]benzamide

> <PUBCHEM_IUPAC_SYSTEMATIC_NAME>
N-[4-[4-(2-methoxyphenyl)piperazin-1-yl]butyl]-4-[2-[2-[2-[2-[2-[2-[2-[2-[[4-[4-[4-(2-methoxyphenyl)piperazin-1-yl]butylcarbamoyl]phenyl]methoxy]ethoxy]ethoxy]ethoxy]ethoxy]ethoxy]ethoxy]ethoxy]ethoxymethyl]benzamide

> <PUBCHEM_IUPAC_TRADITIONAL_NAME>
N-[4-[4-(2-methoxyphenyl)piperazino]butyl]-4-[2-[2-[2-[2-[2-[2-[2-[2-[4-[4-[4-(2-methoxyphenyl)piperazino]butylcarbamoyl]benzyl]oxyethoxy]ethoxy]ethoxy]ethoxy]ethoxy]ethoxy]ethoxy]ethoxymethyl]benzamide

> <PUBCHEM_IUPAC_INCHI>
InChI=1S/C62H92N6O13/c1-71-59-13-5-3-11-57(59)67-31-27-65(28-32-67)25-9-7-23-63-61(69)55-19-15-53(16-20-55)51-80-49-47-78-45-43-76-41-39-74-37-35-73-36-38-75-40-42-77-44-46-79-48-50-81-52-54-17-21-56(22-18-54)62(70)64-24-8-10-26-66-29-33-68(34-30-66)58-12-4-6-14-60(58)72-2/h3-6,11-22H,7-10,23-52H2,1-2H3,(H,63,69)(H,64,70)

> <PUBCHEM_IUPAC_INCHIKEY>
AMKQYZPSQCPQGB-UHFFFAOYSA-N

> <PUBCHEM_XLOGP3_AA>
5.1

> <PUBCHEM_EXACT_MASS>
1128.67223701

> <PUBCHEM_MOLECULAR_FORMULA>
C62H92N6O13

> <PUBCHEM_MOLECULAR_WEIGHT>
1129.4

> <PUBCHEM_OPENEYE_CAN_SMILES>
COC1=CC=CC=C1N2CCN(CC2)CCCCNC(=O)C3=CC=C(C=C3)COCCOCCOCCOCCOCCOCCOCCOCCOCC4=CC=C(C=C4)C(=O)NCCCCN5CCN(CC5)C6=CC=CC=C6OC

> <PUBCHEM_OPENEYE_ISO_SMILES>
COC1=CC=CC=C1N2CCN(CC2)CCCCNC(=O)C3=CC=C(C=C3)COCCOCCOCCOCCOCCOCCOCCOCCOCC4=CC=C(C=C4)C(=O)NCCCCN5CCN(CC5)C6=CC=CC=C6OC

> <PUBCHEM_CACTVS_TPSA>
173

> <PUBCHEM_MONOISOTOPIC_WEIGHT>
1128.67223701

> <PUBCHEM_TOTAL_CHARGE>
0

> <PUBCHEM_HEAVY_ATOM_COUNT>
81

> <PUBCHEM_ATOM_DEF_STEREO_COUNT>
0

> <PUBCHEM_ATOM_UDEF_STEREO_COUNT>
0

> <PUBCHEM_BOND_DEF_STEREO_COUNT>
0

> <PUBCHEM_BOND_UDEF_STEREO_COUNT>
0

> <PUBCHEM_ISOTOPIC_ATOM_COUNT>
0

> <PUBCHEM_COMPONENT_COUNT>
1

> <PUBCHEM_CACTVS_TAUTO_COUNT>
-1

> <PUBCHEM_COORDINATE_TYPE>
1
5
255

> <PUBCHEM_BONDANNOTATIONS>
32  36  8
32  40  8
33  37  8
33  41  8
36  42  8
37  43  8
40  44  8
41  45  8
42  46  8
43  47  8
44  46  8
45  47  8
52  54  8
52  56  8
53  55  8
53  57  8
54  58  8
55  59  8
56  60  8
57  61  8
58  62  8
59  63  8
60  62  8
61  63  8

$$$$
