66559777
  -OEChem-09292321592D

 60 63  0     0  0  0  0  0  0999 V2000
    5.0995    0.7401    0.0000 F   0  0  0  0  0  0  0  0  0  0  0  0
    5.4602    2.1075    0.0000 F   0  0  0  0  0  0  0  0  0  0  0  0
    4.0928    2.4683    0.0000 F   0  0  0  0  0  0  0  0  0  0  0  0
   10.6718   -1.8724    0.0000 O   0  0  0  0  0  0  0  0  0  0  0  0
   15.9339   -1.8483    0.0000 O   0  0  0  0  0  0  0  0  0  0  0  0
    6.3397   -1.3891    0.0000 N   0  0  0  0  0  0  0  0  0  0  0  0
    4.6038   -0.3958    0.0000 N   0  0  0  0  0  0  0  0  0  0  0  0
   14.2019   -1.8483    0.0000 N   0  0  0  0  0  0  0  0  0  0  0  0
    6.3359   -0.3891    0.0000 C   0  0  0  0  0  0  0  0  0  0  0  0
    5.4756   -1.8924    0.0000 C   0  0  0  0  0  0  0  0  0  0  0  0
    5.4679    0.1075    0.0000 C   0  0  0  0  0  0  0  0  0  0  0  0
    4.6077   -1.3958    0.0000 C   0  0  0  0  0  0  0  0  0  0  0  0
    7.2077   -1.8858    0.0000 C   0  0  0  0  0  0  0  0  0  0  0  0
    8.0718   -1.3824    0.0000 C   0  0  0  0  0  0  0  0  0  0  0  0
    3.7359    0.1009    0.0000 C   0  0  0  0  0  0  0  0  0  0  0  0
    8.9397   -1.8791    0.0000 C   0  0  0  0  0  0  0  0  0  0  0  0
    3.7320    1.1009    0.0000 C   0  0  0  0  0  0  0  0  0  0  0  0
    9.8038   -1.3758    0.0000 C   0  0  0  0  0  0  0  0  0  0  0  0
    2.8718   -0.4025    0.0000 C   0  0  0  0  0  0  0  0  0  0  0  0
    2.8641    1.5975    0.0000 C   0  0  0  0  0  0  0  0  0  0  0  0
    4.5961    1.6042    0.0000 C   0  0  0  0  0  0  0  0  0  0  0  0
    2.0038    0.0942    0.0000 C   0  0  0  0  0  0  0  0  0  0  0  0
   13.3359   -0.3483    0.0000 C   0  0  0  0  0  0  0  0  0  0  0  0
    2.0000    1.0942    0.0000 C   0  0  0  0  0  0  0  0  0  0  0  0
   14.2019    0.1517    0.0000 C   0  0  0  0  0  0  0  0  0  0  0  0
   13.3359   -1.3483    0.0000 C   0  0  0  0  0  0  0  0  0  0  0  0
   11.5358   -1.3691    0.0000 C   0  0  0  0  0  0  0  0  0  0  0  0
   15.0679   -0.3483    0.0000 C   0  0  0  0  0  0  0  0  0  0  0  0
   12.4419   -1.8829    0.0000 C   0  0  0  0  0  0  0  0  0  0  0  0
   12.4419    0.1864    0.0000 C   0  0  0  0  0  0  0  0  0  0  0  0
   11.5358   -0.3275    0.0000 C   0  0  0  0  0  0  0  0  0  0  0  0
   15.0679   -1.3483    0.0000 C   0  0  0  0  0  0  0  0  0  0  0  0
    6.9469   -0.4944    0.0000 H   0  0  0  0  0  0  0  0  0  0  0  0
    6.5457    0.1943    0.0000 H   0  0  0  0  0  0  0  0  0  0  0  0
    5.0789   -2.3689    0.0000 H   0  0  0  0  0  0  0  0  0  0  0  0
    5.8760   -2.3659    0.0000 H   0  0  0  0  0  0  0  0  0  0  0  0
    5.8646    0.5840    0.0000 H   0  0  0  0  0  0  0  0  0  0  0  0
    5.0676    0.5809    0.0000 H   0  0  0  0  0  0  0  0  0  0  0  0
    3.9967   -1.2905    0.0000 H   0  0  0  0  0  0  0  0  0  0  0  0
    4.3979   -1.9792    0.0000 H   0  0  0  0  0  0  0  0  0  0  0  0
    6.8110   -2.3623    0.0000 H   0  0  0  0  0  0  0  0  0  0  0  0
    7.6080   -2.3592    0.0000 H   0  0  0  0  0  0  0  0  0  0  0  0
    8.4685   -0.9060    0.0000 H   0  0  0  0  0  0  0  0  0  0  0  0
    7.6714   -0.9090    0.0000 H   0  0  0  0  0  0  0  0  0  0  0  0
    8.5430   -2.3556    0.0000 H   0  0  0  0  0  0  0  0  0  0  0  0
    9.3401   -2.3525    0.0000 H   0  0  0  0  0  0  0  0  0  0  0  0
   10.2005   -0.8993    0.0000 H   0  0  0  0  0  0  0  0  0  0  0  0
    9.4034   -0.9024    0.0000 H   0  0  0  0  0  0  0  0  0  0  0  0
    2.8742   -1.0225    0.0000 H   0  0  0  0  0  0  0  0  0  0  0  0
    2.8617    2.2175    0.0000 H   0  0  0  0  0  0  0  0  0  0  0  0
    1.4681   -0.2179    0.0000 H   0  0  0  0  0  0  0  0  0  0  0  0
   14.6004    0.6267    0.0000 H   0  0  0  0  0  0  0  0  0  0  0  0
   13.8034    0.6267    0.0000 H   0  0  0  0  0  0  0  0  0  0  0  0
    1.4619    1.4021    0.0000 H   0  0  0  0  0  0  0  0  0  0  0  0
   15.6785   -0.4559    0.0000 H   0  0  0  0  0  0  0  0  0  0  0  0
   15.2800    0.2343    0.0000 H   0  0  0  0  0  0  0  0  0  0  0  0
   12.4491   -2.5029    0.0000 H   0  0  0  0  0  0  0  0  0  0  0  0
   12.4491    0.8063    0.0000 H   0  0  0  0  0  0  0  0  0  0  0  0
   11.0001   -0.0154    0.0000 H   0  0  0  0  0  0  0  0  0  0  0  0
   14.2019   -2.4683    0.0000 H   0  0  0  0  0  0  0  0  0  0  0  0
  1 21  1  0  0  0  0
  2 21  1  0  0  0  0
  3 21  1  0  0  0  0
  4 18  1  0  0  0  0
  4 27  1  0  0  0  0
  5 32  2  0  0  0  0
  6  9  1  0  0  0  0
  6 10  1  0  0  0  0
  6 13  1  0  0  0  0
  7 11  1  0  0  0  0
  7 12  1  0  0  0  0
  7 15  1  0  0  0  0
  8 26  1  0  0  0  0
  8 32  1  0  0  0  0
  8 60  1  0  0  0  0
  9 11  1  0  0  0  0
  9 33  1  0  0  0  0
  9 34  1  0  0  0  0
 10 12  1  0  0  0  0
 10 35  1  0  0  0  0
 10 36  1  0  0  0  0
 11 37  1  0  0  0  0
 11 38  1  0  0  0  0
 12 39  1  0  0  0  0
 12 40  1  0  0  0  0
 13 14  1  0  0  0  0
 13 41  1  0  0  0  0
 13 42  1  0  0  0  0
 14 16  1  0  0  0  0
 14 43  1  0  0  0  0
 14 44  1  0  0  0  0
 15 17  1  0  0  0  0
 15 19  2  0  0  0  0
 16 18  1  0  0  0  0
 16 45  1  0  0  0  0
 16 46  1  0  0  0  0
 17 20  2  0  0  0  0
 17 21  1  0  0  0  0
 18 47  1  0  0  0  0
 18 48  1  0  0  0  0
 19 22  1  0  0  0  0
 19 49  1  0  0  0  0
 20 24  1  0  0  0  0
 20 50  1  0  0  0  0
 22 24  2  0  0  0  0
 22 51  1  0  0  0  0
 23 25  1  0  0  0  0
 23 26  2  0  0  0  0
 23 30  1  0  0  0  0
 24 54  1  0  0  0  0
 25 28  1  0  0  0  0
 25 52  1  0  0  0  0
 25 53  1  0  0  0  0
 26 29  1  0  0  0  0
 27 29  2  0  0  0  0
 27 31  1  0  0  0  0
 28 32  1  0  0  0  0
 28 55  1  0  0  0  0
 28 56  1  0  0  0  0
 29 57  1  0  0  0  0
 30 31  2  0  0  0  0
 30 58  1  0  0  0  0
 31 59  1  0  0  0  0
M  END
> <PUBCHEM_COMPOUND_CID>
66559777

> <PUBCHEM_COMPOUND_CANONICALIZED>
1

> <PUBCHEM_CACTVS_COMPLEXITY>
610

> <PUBCHEM_CACTVS_HBOND_ACCEPTOR>
7

> <PUBCHEM_CACTVS_HBOND_DONOR>
1

> <PUBCHEM_CACTVS_ROTATABLE_BOND>
7

> <PUBCHEM_CACTVS_SUBSKEYS>
AAADceB7MYAAAAAAAAAAAAAAAAAAAAAAAAA8eIEAAAAAAACxQAAAHwAQAAAADAzhmBYwxoPABACIAiVSUACCCAAhIgAIiAEObIgMZjLEsZuWOCjm1BnI6Ae42aOeIAAAAgACAABAAAAEAAQAAAAAAAAAAA==

> <PUBCHEM_IUPAC_OPENEYE_NAME>
7-[4-[4-[2-(trifluoromethyl)phenyl]piperazin-1-yl]butoxy]-3,4-dihydro-1H-quinolin-2-one

> <PUBCHEM_IUPAC_CAS_NAME>
7-[4-[4-[2-(trifluoromethyl)phenyl]-1-piperazinyl]butoxy]-3,4-dihydro-1H-quinolin-2-one

> <PUBCHEM_IUPAC_NAME_MARKUP>
7-[4-[4-[2-(trifluoromethyl)phenyl]piperazin-1-yl]butoxy]-3,4-dihydro-1<I>H</I>-quinolin-2-one

> <PUBCHEM_IUPAC_NAME>
7-[4-[4-[2-(trifluoromethyl)phenyl]piperazin-1-yl]butoxy]-3,4-dihydro-1H-quinolin-2-one

> <PUBCHEM_IUPAC_SYSTEMATIC_NAME>
7-[4-[4-[2-(trifluoromethyl)phenyl]piperazin-1-yl]butoxy]-3,4-dihydro-1H-quinolin-2-one

> <PUBCHEM_IUPAC_TRADITIONAL_NAME>
7-[4-[4-[2-(trifluoromethyl)phenyl]piperazino]butoxy]-3,4-dihydrocarbostyril

> <PUBCHEM_IUPAC_INCHI>
InChI=1S/C24H28F3N3O2/c25-24(26,27)20-5-1-2-6-22(20)30-14-12-29(13-15-30)11-3-4-16-32-19-9-7-18-8-10-23(31)28-21(18)17-19/h1-2,5-7,9,17H,3-4,8,10-16H2,(H,28,31)

> <PUBCHEM_IUPAC_INCHIKEY>
NXHZOGJHNYRAGN-UHFFFAOYSA-N

> <PUBCHEM_XLOGP3_AA>
4.3

> <PUBCHEM_EXACT_MASS>
447.21336163

> <PUBCHEM_MOLECULAR_FORMULA>
C24H28F3N3O2

> <PUBCHEM_MOLECULAR_WEIGHT>
447.5

> <PUBCHEM_OPENEYE_CAN_SMILES>
C1CC(=O)NC2=C1C=CC(=C2)OCCCCN3CCN(CC3)C4=CC=CC=C4C(F)(F)F

> <PUBCHEM_OPENEYE_ISO_SMILES>
C1CC(=O)NC2=C1C=CC(=C2)OCCCCN3CCN(CC3)C4=CC=CC=C4C(F)(F)F

> <PUBCHEM_CACTVS_TPSA>
44.8

> <PUBCHEM_MONOISOTOPIC_WEIGHT>
447.21336163

> <PUBCHEM_TOTAL_CHARGE>
0

> <PUBCHEM_HEAVY_ATOM_COUNT>
32

> <PUBCHEM_ATOM_DEF_STEREO_COUNT>
0

> <PUBCHEM_ATOM_UDEF_STEREO_COUNT>
0

> <PUBCHEM_BOND_DEF_STEREO_COUNT>
0

> <PUBCHEM_BOND_UDEF_STEREO_COUNT>
0

> <PUBCHEM_ISOTOPIC_ATOM_COUNT>
0

> <PUBCHEM_COMPONENT_COUNT>
1

> <PUBCHEM_CACTVS_TAUTO_COUNT>
-1

> <PUBCHEM_COORDINATE_TYPE>
1
5
255

> <PUBCHEM_BONDANNOTATIONS>
15  17  8
15  19  8
17  20  8
19  22  8
20  24  8
22  24  8
23  26  8
23  30  8
26  29  8
27  29  8
27  31  8
30  31  8

$$$$
