138670409
  -OEChem-09292322452D

 64 67  0     1  0  0  0  0  0999 V2000
   14.4125    0.7698    0.0000 S   0  0  0  0  0  0  0  0  0  0  0  0
    9.2711    1.6715    0.0000 F   0  0  0  0  0  0  0  0  0  0  0  0
   18.5044   -0.8806    0.0000 F   0  0  0  0  0  0  0  0  0  0  0  0
   17.5094   -1.8856    0.0000 F   0  0  0  0  0  0  0  0  0  0  0  0
   17.4994    0.1144    0.0000 F   0  0  0  0  0  0  0  0  0  0  0  0
    5.3114    0.7857    0.0000 O   0  0  0  0  0  0  0  0  0  0  0  0
   16.0001   -0.0271    0.0000 O   0  0  0  0  0  0  0  0  0  0  0  0
    2.0000    0.1056    0.0000 O   0  0  0  0  0  0  0  0  0  0  0  0
   11.2797   -0.0506    0.0000 N   0  0  3  0  0  0  0  0  0  0  0  0
    6.1849   -0.7100    0.0000 N   0  0  0  0  0  0  0  0  0  0  0  0
   14.4206   -0.8397    0.0000 N   0  0  0  0  0  0  0  0  0  0  0  0
    3.4748    0.7710    0.0000 N   0  0  0  0  0  0  0  0  0  0  0  0
    2.6728   -0.6342    0.0000 N   0  0  0  0  0  0  0  0  0  0  0  0
    8.7754    0.8030    0.0000 C   0  0  0  0  0  0  0  0  0  0  0  0
    7.9069    1.2986    0.0000 C   0  0  0  0  0  0  0  0  0  0  0  0
    8.7804   -0.1970    0.0000 C   0  0  0  0  0  0  0  0  0  0  0  0
    7.0484   -0.2057    0.0000 C   0  0  0  0  0  0  0  0  0  0  0  0
    7.0434    0.7943    0.0000 C   0  0  0  0  0  0  0  0  0  0  0  0
    7.9169   -0.7013    0.0000 C   0  0  0  0  0  0  0  0  0  0  0  0
    9.7754    0.8079    0.0000 C   0  0  0  0  0  0  0  0  0  0  0  0
   10.2797   -0.0556    0.0000 C   0  0  0  0  0  0  0  0  0  0  0  0
   11.7091    0.8525    0.0000 C   0  0  0  0  0  0  0  0  0  0  0  0
   11.7181   -0.9494    0.0000 C   0  0  0  0  0  0  0  0  0  0  0  0
   12.6829    1.0799    0.0000 C   0  0  0  0  0  0  0  0  0  0  0  0
   12.6941   -1.1670    0.0000 C   0  0  0  0  0  0  0  0  0  0  0  0
    5.3164   -0.2143    0.0000 C   0  0  0  0  0  0  0  0  0  0  0  0
   13.4678    0.4603    0.0000 C   0  0  0  0  0  0  0  0  0  0  0  0
   13.4728   -0.5397    0.0000 C   0  0  0  0  0  0  0  0  0  0  0  0
    4.4528   -0.7186    0.0000 C   0  0  0  0  0  0  0  0  0  0  0  0
   15.0001   -0.0320    0.0000 C   0  0  0  0  0  0  0  0  0  0  0  0
    3.5843   -0.2229    0.0000 C   0  0  0  0  0  0  0  0  0  0  0  0
   16.5044   -0.8906    0.0000 C   0  0  0  0  0  0  0  0  0  0  0  0
    2.4957    0.9741    0.0000 C   0  0  0  0  0  0  0  0  0  0  0  0
   17.5044   -0.8856    0.0000 C   0  0  0  0  0  0  0  0  0  0  0  0
    2.0844    1.8856    0.0000 C   0  0  0  0  0  0  0  0  0  0  0  0
    8.3031    1.7756    0.0000 H   0  0  0  0  0  0  0  0  0  0  0  0
    7.5060    1.7716    0.0000 H   0  0  0  0  0  0  0  0  0  0  0  0
    8.9954   -0.7786    0.0000 H   0  0  0  0  0  0  0  0  0  0  0  0
    9.3905   -0.0863    0.0000 H   0  0  0  0  0  0  0  0  0  0  0  0
    6.5099    0.1016    0.0000 H   0  0  0  0  0  0  0  0  0  0  0  0
    6.8284    1.3759    0.0000 H   0  0  0  0  0  0  0  0  0  0  0  0
    6.4334    0.6836    0.0000 H   0  0  0  0  0  0  0  0  0  0  0  0
    7.5208   -1.1783    0.0000 H   0  0  0  0  0  0  0  0  0  0  0  0
    8.3178   -1.1743    0.0000 H   0  0  0  0  0  0  0  0  0  0  0  0
   10.3570    1.0229    0.0000 H   0  0  0  0  0  0  0  0  0  0  0  0
    9.6647    1.4180    0.0000 H   0  0  0  0  0  0  0  0  0  0  0  0
    9.6982   -0.2705    0.0000 H   0  0  0  0  0  0  0  0  0  0  0  0
   10.3904   -0.6656    0.0000 H   0  0  0  0  0  0  0  0  0  0  0  0
    6.1880   -1.3300    0.0000 H   0  0  0  0  0  0  0  0  0  0  0  0
   11.7060    1.4725    0.0000 H   0  0  0  0  0  0  0  0  0  0  0  0
   11.1040    0.9875    0.0000 H   0  0  0  0  0  0  0  0  0  0  0  0
   11.1143   -1.0904    0.0000 H   0  0  0  0  0  0  0  0  0  0  0  0
   11.7212   -1.5694    0.0000 H   0  0  0  0  0  0  0  0  0  0  0  0
   13.1657    1.4689    0.0000 H   0  0  0  0  0  0  0  0  0  0  0  0
   12.4111    1.6372    0.0000 H   0  0  0  0  0  0  0  0  0  0  0  0
   12.4279   -1.7270    0.0000 H   0  0  0  0  0  0  0  0  0  0  0  0
   13.1808   -1.5512    0.0000 H   0  0  0  0  0  0  0  0  0  0  0  0
    4.0567   -1.1955    0.0000 H   0  0  0  0  0  0  0  0  0  0  0  0
    4.8537   -1.1916    0.0000 H   0  0  0  0  0  0  0  0  0  0  0  0
   15.9229   -1.1055    0.0000 H   0  0  0  0  0  0  0  0  0  0  0  0
   16.6152   -1.5006    0.0000 H   0  0  0  0  0  0  0  0  0  0  0  0
    2.6495    2.1406    0.0000 H   0  0  0  0  0  0  0  0  0  0  0  0
    1.8294    2.4507    0.0000 H   0  0  0  0  0  0  0  0  0  0  0  0
    1.5192    1.6306    0.0000 H   0  0  0  0  0  0  0  0  0  0  0  0
  1 27  1  0  0  0  0
  1 30  1  0  0  0  0
  2 14  1  0  0  0  0
  3 34  1  0  0  0  0
  4 34  1  0  0  0  0
  5 34  1  0  0  0  0
  6 26  2  0  0  0  0
  7 30  1  0  0  0  0
  7 32  1  0  0  0  0
  8 13  1  0  0  0  0
  8 33  1  0  0  0  0
  9 21  1  0  0  0  0
  9 22  1  0  0  0  0
  9 23  1  0  0  0  0
 10 17  1  0  0  0  0
 10 26  1  0  0  0  0
 10 49  1  0  0  0  0
 11 28  1  0  0  0  0
 11 30  2  0  0  0  0
 12 31  1  0  0  0  0
 12 33  2  0  0  0  0
 13 31  2  0  0  0  0
 14 15  1  0  0  0  0
 14 16  1  0  0  0  0
 14 20  1  0  0  0  0
 15 18  1  0  0  0  0
 15 36  1  0  0  0  0
 15 37  1  0  0  0  0
 16 19  1  0  0  0  0
 16 38  1  0  0  0  0
 16 39  1  0  0  0  0
 17 18  1  0  0  0  0
 17 19  1  0  0  0  0
 17 40  1  0  0  0  0
 18 41  1  0  0  0  0
 18 42  1  0  0  0  0
 19 43  1  0  0  0  0
 19 44  1  0  0  0  0
 20 21  1  0  0  0  0
 20 45  1  0  0  0  0
 20 46  1  0  0  0  0
 21 47  1  0  0  0  0
 21 48  1  0  0  0  0
 22 24  1  0  0  0  0
 22 50  1  0  0  0  0
 22 51  1  0  0  0  0
 23 25  1  0  0  0  0
 23 52  1  0  0  0  0
 23 53  1  0  0  0  0
 24 27  1  0  0  0  0
 24 54  1  0  0  0  0
 24 55  1  0  0  0  0
 25 28  1  0  0  0  0
 25 56  1  0  0  0  0
 25 57  1  0  0  0  0
 26 29  1  0  0  0  0
 27 28  2  0  0  0  0
 29 31  1  0  0  0  0
 29 58  1  0  0  0  0
 29 59  1  0  0  0  0
 32 34  1  0  0  0  0
 32 60  1  0  0  0  0
 32 61  1  0  0  0  0
 33 35  1  0  0  0  0
 35 62  1  0  0  0  0
 35 63  1  0  0  0  0
 35 64  1  0  0  0  0
M  END
> <PUBCHEM_COMPOUND_CID>
138670409

> <PUBCHEM_COMPOUND_CANONICALIZED>
1

> <PUBCHEM_CACTVS_COMPLEXITY>
713

> <PUBCHEM_CACTVS_HBOND_ACCEPTOR>
12

> <PUBCHEM_CACTVS_HBOND_DONOR>
1

> <PUBCHEM_CACTVS_ROTATABLE_BOND>
8

> <PUBCHEM_CACTVS_SUBSKEYS>
AAADceB7scBAAAAAAAAAAAAAAAAAAWLAAAAwAAAABYAAAACx4AAAHwQUAAAADCjh1xYDkRfYFAitAQdwdgAA8KlhCLghGJU4QAiAKApgyAEMAAAgFwLISAMQgIAOAAAAAAAAAAAQAAAAAAAAAAAAAAAAAA==

> <PUBCHEM_IUPAC_OPENEYE_NAME>
N-[4-fluoro-4-[2-[2-(2,2,2-trifluoroethoxy)-4,5,7,8-tetrahydrothiazolo[4,5-d]azepin-6-yl]ethyl]cyclohexyl]-2-(5-methyl-1,2,4-oxadiazol-3-yl)acetamide

> <PUBCHEM_IUPAC_CAS_NAME>
N-[4-fluoro-4-[2-[2-(2,2,2-trifluoroethoxy)-4,5,7,8-tetrahydrothiazolo[4,5-d]azepin-6-yl]ethyl]cyclohexyl]-2-(5-methyl-1,2,4-oxadiazol-3-yl)acetamide

> <PUBCHEM_IUPAC_NAME_MARKUP>
<I>N</I>-[4-fluoro-4-[2-[2-(2,2,2-trifluoroethoxy)-4,5,7,8-tetrahydro-[1,3]thiazolo[4,5-d]azepin-6-yl]ethyl]cyclohexyl]-2-(5-methyl-1,2,4-oxadiazol-3-yl)acetamide

> <PUBCHEM_IUPAC_NAME>
N-[4-fluoro-4-[2-[2-(2,2,2-trifluoroethoxy)-4,5,7,8-tetrahydro-[1,3]thiazolo[4,5-d]azepin-6-yl]ethyl]cyclohexyl]-2-(5-methyl-1,2,4-oxadiazol-3-yl)acetamide

> <PUBCHEM_IUPAC_SYSTEMATIC_NAME>
N-[4-fluoranyl-4-[2-[2-[2,2,2-tris(fluoranyl)ethoxy]-4,5,7,8-tetrahydro-[1,3]thiazolo[4,5-d]azepin-6-yl]ethyl]cyclohexyl]-2-(5-methyl-1,2,4-oxadiazol-3-yl)ethanamide

> <PUBCHEM_IUPAC_TRADITIONAL_NAME>
N-[4-fluoro-4-[2-[2-(2,2,2-trifluoroethoxy)-4,5,7,8-tetrahydrothiazol[4,5-d]azepin-6-yl]ethyl]cyclohexyl]-2-(5-methyl-1,2,4-oxadiazol-3-yl)acetamide

> <PUBCHEM_IUPAC_INCHI>
InChI=1S/C22H29F4N5O3S/c1-14-27-18(30-34-14)12-19(32)28-15-2-6-21(23,7-3-15)8-11-31-9-4-16-17(5-10-31)35-20(29-16)33-13-22(24,25)26/h15H,2-13H2,1H3,(H,28,32)

> <PUBCHEM_IUPAC_INCHIKEY>
NWCJFZMQGGIAAN-UHFFFAOYSA-N

> <PUBCHEM_XLOGP3_AA>
4.2

> <PUBCHEM_EXACT_MASS>
519.19272363

> <PUBCHEM_MOLECULAR_FORMULA>
C22H29F4N5O3S

> <PUBCHEM_MOLECULAR_WEIGHT>
519.6

> <PUBCHEM_OPENEYE_CAN_SMILES>
CC1=NC(=NO1)CC(=O)NC2CCC(CC2)(CCN3CCC4=C(CC3)SC(=N4)OCC(F)(F)F)F

> <PUBCHEM_OPENEYE_ISO_SMILES>
CC1=NC(=NO1)CC(=O)NC2CCC(CC2)(CCN3CCC4=C(CC3)SC(=N4)OCC(F)(F)F)F

> <PUBCHEM_CACTVS_TPSA>
122

> <PUBCHEM_MONOISOTOPIC_WEIGHT>
519.19272363

> <PUBCHEM_TOTAL_CHARGE>
0

> <PUBCHEM_HEAVY_ATOM_COUNT>
35

> <PUBCHEM_ATOM_DEF_STEREO_COUNT>
0

> <PUBCHEM_ATOM_UDEF_STEREO_COUNT>
0

> <PUBCHEM_BOND_DEF_STEREO_COUNT>
0

> <PUBCHEM_BOND_UDEF_STEREO_COUNT>
0

> <PUBCHEM_ISOTOPIC_ATOM_COUNT>
0

> <PUBCHEM_COMPONENT_COUNT>
1

> <PUBCHEM_CACTVS_TAUTO_COUNT>
-1

> <PUBCHEM_COORDINATE_TYPE>
1
5
255

> <PUBCHEM_BONDANNOTATIONS>
1  27  8
1  30  8
11  28  8
11  30  8
12  31  8
12  33  8
13  31  8
27  28  8
8  13  8
8  33  8

$$$$
