44409888
  -OEChem-09292322272D

 64 66  0     0  0  0  0  0  0999 V2000
    3.3660   -5.9330    0.0000 F   0  0  0  0  0  0  0  0  0  0  0  0
    2.0000   -5.5670    0.0000 F   0  0  0  0  0  0  0  0  0  0  0  0
    2.3660   -4.2010    0.0000 F   0  0  0  0  0  0  0  0  0  0  0  0
    8.0622    3.9330    0.0000 O   0  0  0  0  0  0  0  0  0  0  0  0
    4.5981   -0.0670    0.0000 N   0  0  0  0  0  0  0  0  0  0  0  0
    4.5981   -2.0670    0.0000 N   0  0  0  0  0  0  0  0  0  0  0  0
    5.4641   -3.5670    0.0000 N   0  0  0  0  0  0  0  0  0  0  0  0
    6.3301    3.9330    0.0000 N   0  0  0  0  0  0  0  0  0  0  0  0
    4.5981   -5.0670    0.0000 N   0  0  0  0  0  0  0  0  0  0  0  0
    5.4641   -0.5670    0.0000 C   0  0  0  0  0  0  0  0  0  0  0  0
    3.7320   -0.5670    0.0000 C   0  0  0  0  0  0  0  0  0  0  0  0
    5.4641   -1.5670    0.0000 C   0  0  0  0  0  0  0  0  0  0  0  0
    3.7320   -1.5670    0.0000 C   0  0  0  0  0  0  0  0  0  0  0  0
    4.5981    0.9330    0.0000 C   0  0  0  0  0  0  0  0  0  0  0  0
    5.4641    1.4330    0.0000 C   0  0  0  0  0  0  0  0  0  0  0  0
    4.5981   -3.0670    0.0000 C   0  0  0  0  0  0  0  0  0  0  0  0
    5.4641    2.4330    0.0000 C   0  0  0  0  0  0  0  0  0  0  0  0
    6.3301   -5.0670    0.0000 C   0  0  0  0  0  0  0  0  0  0  0  0
    6.3301    2.9330    0.0000 C   0  0  0  0  0  0  0  0  0  0  0  0
    5.4641   -4.5670    0.0000 C   0  0  0  0  0  0  0  0  0  0  0  0
    3.7320   -3.5670    0.0000 C   0  0  0  0  0  0  0  0  0  0  0  0
    3.7320   -4.5670    0.0000 C   0  0  0  0  0  0  0  0  0  0  0  0
    7.1962   -5.5670    0.0000 C   0  0  0  0  0  0  0  0  0  0  0  0
    5.8301   -5.9330    0.0000 C   0  0  0  0  0  0  0  0  0  0  0  0
    6.8301   -4.2010    0.0000 C   0  0  0  0  0  0  0  0  0  0  0  0
    5.4641    4.4330    0.0000 C   0  0  0  0  0  0  0  0  0  0  0  0
    7.1962    4.4330    0.0000 C   0  0  0  0  0  0  0  0  0  0  0  0
    2.8660   -5.0670    0.0000 C   0  0  0  0  0  0  0  0  0  0  0  0
    5.4641    5.4330    0.0000 C   0  0  0  0  0  0  0  0  0  0  0  0
    4.5981    3.9330    0.0000 C   0  0  0  0  0  0  0  0  0  0  0  0
    7.1962    5.4330    0.0000 C   0  0  0  0  0  0  0  0  0  0  0  0
    6.3301    5.9330    0.0000 C   0  0  0  0  0  0  0  0  0  0  0  0
    6.0747   -0.6746    0.0000 H   0  0  0  0  0  0  0  0  0  0  0  0
    5.6762    0.0156    0.0000 H   0  0  0  0  0  0  0  0  0  0  0  0
    3.5200    0.0156    0.0000 H   0  0  0  0  0  0  0  0  0  0  0  0
    3.1215   -0.6746    0.0000 H   0  0  0  0  0  0  0  0  0  0  0  0
    5.6762   -2.1496    0.0000 H   0  0  0  0  0  0  0  0  0  0  0  0
    6.0747   -1.4593    0.0000 H   0  0  0  0  0  0  0  0  0  0  0  0
    3.1215   -1.4593    0.0000 H   0  0  0  0  0  0  0  0  0  0  0  0
    3.5200   -2.1496    0.0000 H   0  0  0  0  0  0  0  0  0  0  0  0
    4.3860    1.5156    0.0000 H   0  0  0  0  0  0  0  0  0  0  0  0
    3.9875    0.8254    0.0000 H   0  0  0  0  0  0  0  0  0  0  0  0
    5.6762    0.8504    0.0000 H   0  0  0  0  0  0  0  0  0  0  0  0
    6.0747    1.5407    0.0000 H   0  0  0  0  0  0  0  0  0  0  0  0
    5.2520    3.0156    0.0000 H   0  0  0  0  0  0  0  0  0  0  0  0
    4.8535    2.3253    0.0000 H   0  0  0  0  0  0  0  0  0  0  0  0
    6.5422    2.3504    0.0000 H   0  0  0  0  0  0  0  0  0  0  0  0
    6.9407    3.0407    0.0000 H   0  0  0  0  0  0  0  0  0  0  0  0
    3.1951   -3.2570    0.0000 H   0  0  0  0  0  0  0  0  0  0  0  0
    6.8862   -6.1039    0.0000 H   0  0  0  0  0  0  0  0  0  0  0  0
    7.7331   -5.8770    0.0000 H   0  0  0  0  0  0  0  0  0  0  0  0
    7.5062   -5.0300    0.0000 H   0  0  0  0  0  0  0  0  0  0  0  0
    5.2932   -5.6230    0.0000 H   0  0  0  0  0  0  0  0  0  0  0  0
    5.5201   -6.4700    0.0000 H   0  0  0  0  0  0  0  0  0  0  0  0
    6.3671   -6.2430    0.0000 H   0  0  0  0  0  0  0  0  0  0  0  0
    7.3671   -4.5110    0.0000 H   0  0  0  0  0  0  0  0  0  0  0  0
    7.1401   -3.6640    0.0000 H   0  0  0  0  0  0  0  0  0  0  0  0
    6.2932   -3.8910    0.0000 H   0  0  0  0  0  0  0  0  0  0  0  0
    4.9272    5.7430    0.0000 H   0  0  0  0  0  0  0  0  0  0  0  0
    4.2881    4.4700    0.0000 H   0  0  0  0  0  0  0  0  0  0  0  0
    4.0611    3.6230    0.0000 H   0  0  0  0  0  0  0  0  0  0  0  0
    4.9081    3.3961    0.0000 H   0  0  0  0  0  0  0  0  0  0  0  0
    7.7331    5.7430    0.0000 H   0  0  0  0  0  0  0  0  0  0  0  0
    6.3301    6.5530    0.0000 H   0  0  0  0  0  0  0  0  0  0  0  0
  1 28  1  0  0  0  0
  2 28  1  0  0  0  0
  3 28  1  0  0  0  0
  4 27  2  0  0  0  0
  5 10  1  0  0  0  0
  5 11  1  0  0  0  0
  5 14  1  0  0  0  0
  6 12  1  0  0  0  0
  6 13  1  0  0  0  0
  6 16  1  0  0  0  0
  7 16  2  0  0  0  0
  7 20  1  0  0  0  0
  8 19  1  0  0  0  0
  8 26  1  0  0  0  0
  8 27  1  0  0  0  0
  9 20  2  0  0  0  0
  9 22  1  0  0  0  0
 10 12  1  0  0  0  0
 10 33  1  0  0  0  0
 10 34  1  0  0  0  0
 11 13  1  0  0  0  0
 11 35  1  0  0  0  0
 11 36  1  0  0  0  0
 12 37  1  0  0  0  0
 12 38  1  0  0  0  0
 13 39  1  0  0  0  0
 13 40  1  0  0  0  0
 14 15  1  0  0  0  0
 14 41  1  0  0  0  0
 14 42  1  0  0  0  0
 15 17  1  0  0  0  0
 15 43  1  0  0  0  0
 15 44  1  0  0  0  0
 16 21  1  0  0  0  0
 17 19  1  0  0  0  0
 17 45  1  0  0  0  0
 17 46  1  0  0  0  0
 18 20  1  0  0  0  0
 18 23  1  0  0  0  0
 18 24  1  0  0  0  0
 18 25  1  0  0  0  0
 19 47  1  0  0  0  0
 19 48  1  0  0  0  0
 21 22  2  0  0  0  0
 21 49  1  0  0  0  0
 22 28  1  0  0  0  0
 23 50  1  0  0  0  0
 23 51  1  0  0  0  0
 23 52  1  0  0  0  0
 24 53  1  0  0  0  0
 24 54  1  0  0  0  0
 24 55  1  0  0  0  0
 25 56  1  0  0  0  0
 25 57  1  0  0  0  0
 25 58  1  0  0  0  0
 26 29  2  0  0  0  0
 26 30  1  0  0  0  0
 27 31  1  0  0  0  0
 29 32  1  0  0  0  0
 29 59  1  0  0  0  0
 30 60  1  0  0  0  0
 30 61  1  0  0  0  0
 30 62  1  0  0  0  0
 31 32  2  0  0  0  0
 31 63  1  0  0  0  0
 32 64  1  0  0  0  0
M  END
> <PUBCHEM_COMPOUND_CID>
44409888

> <PUBCHEM_COMPOUND_CANONICALIZED>
1

> <PUBCHEM_CACTVS_COMPLEXITY>
707

> <PUBCHEM_CACTVS_HBOND_ACCEPTOR>
8

> <PUBCHEM_CACTVS_HBOND_DONOR>
0

> <PUBCHEM_CACTVS_ROTATABLE_BOND>
7

> <PUBCHEM_CACTVS_SUBSKEYS>
AAADcfB7oYAAAAAAAAAAAAAAAAAAAAAAAAAsWIAAAAAAAAABgAAAHwAAAAAADgjBlxQzsJcIEACoASdydACAgCkhAqAJGCA4ZFiIaABAycAUBAhIBgLAwaAAAAAAAAAAAAAAAAAAAAAAAAAAAAAAAAAAAA==

> <PUBCHEM_IUPAC_OPENEYE_NAME>
1-[4-[4-[2-tert-butyl-6-(trifluoromethyl)pyrimidin-4-yl]piperazin-1-yl]butyl]-6-methyl-pyridin-2-one

> <PUBCHEM_IUPAC_CAS_NAME>
1-[4-[4-[2-tert-butyl-6-(trifluoromethyl)-4-pyrimidinyl]-1-piperazinyl]butyl]-6-methyl-2-pyridinone

> <PUBCHEM_IUPAC_NAME_MARKUP>
1-[4-[4-[2-<I>tert</I>-butyl-6-(trifluoromethyl)pyrimidin-4-yl]piperazin-1-yl]butyl]-6-methylpyridin-2-one

> <PUBCHEM_IUPAC_NAME>
1-[4-[4-[2-tert-butyl-6-(trifluoromethyl)pyrimidin-4-yl]piperazin-1-yl]butyl]-6-methylpyridin-2-one

> <PUBCHEM_IUPAC_SYSTEMATIC_NAME>
1-[4-[4-[2-tert-butyl-6-(trifluoromethyl)pyrimidin-4-yl]piperazin-1-yl]butyl]-6-methyl-pyridin-2-one

> <PUBCHEM_IUPAC_TRADITIONAL_NAME>
1-[4-[4-[2-tert-butyl-6-(trifluoromethyl)pyrimidin-4-yl]piperazino]butyl]-6-methyl-2-pyridone

> <PUBCHEM_IUPAC_INCHI>
InChI=1S/C23H32F3N5O/c1-17-8-7-9-20(32)31(17)11-6-5-10-29-12-14-30(15-13-29)19-16-18(23(24,25)26)27-21(28-19)22(2,3)4/h7-9,16H,5-6,10-15H2,1-4H3

> <PUBCHEM_IUPAC_INCHIKEY>
ZHMQRCVCUPPSNG-UHFFFAOYSA-N

> <PUBCHEM_XLOGP3_AA>
4.3

> <PUBCHEM_EXACT_MASS>
451.25589515

> <PUBCHEM_MOLECULAR_FORMULA>
C23H32F3N5O

> <PUBCHEM_MOLECULAR_WEIGHT>
451.5

> <PUBCHEM_OPENEYE_CAN_SMILES>
CC1=CC=CC(=O)N1CCCCN2CCN(CC2)C3=NC(=NC(=C3)C(F)(F)F)C(C)(C)C

> <PUBCHEM_OPENEYE_ISO_SMILES>
CC1=CC=CC(=O)N1CCCCN2CCN(CC2)C3=NC(=NC(=C3)C(F)(F)F)C(C)(C)C

> <PUBCHEM_CACTVS_TPSA>
52.6

> <PUBCHEM_MONOISOTOPIC_WEIGHT>
451.25589515

> <PUBCHEM_TOTAL_CHARGE>
0

> <PUBCHEM_HEAVY_ATOM_COUNT>
32

> <PUBCHEM_ATOM_DEF_STEREO_COUNT>
0

> <PUBCHEM_ATOM_UDEF_STEREO_COUNT>
0

> <PUBCHEM_BOND_DEF_STEREO_COUNT>
0

> <PUBCHEM_BOND_UDEF_STEREO_COUNT>
0

> <PUBCHEM_ISOTOPIC_ATOM_COUNT>
0

> <PUBCHEM_COMPONENT_COUNT>
1

> <PUBCHEM_CACTVS_TAUTO_COUNT>
-1

> <PUBCHEM_COORDINATE_TYPE>
1
5
255

> <PUBCHEM_BONDANNOTATIONS>
16  21  8
21  22  8
26  29  8
27  31  8
29  32  8
31  32  8
7  16  8
7  20  8
8  26  8
8  27  8
9  20  8
9  22  8

$$$$
