76336623
  -OEChem-09292321592D

 48 51  0     1  0  0  0  0  0999 V2000
    7.7839    1.7484    0.0000 O   0  0  0  0  0  0  0  0  0  0  0  0
    6.0022    0.7380    0.0000 O   0  0  0  0  0  0  0  0  0  0  0  0
   11.2566   -1.2831    0.0000 N   0  0  3  0  0  0  0  0  0  0  0  0
    2.5381    0.7513    0.0000 N   0  0  0  0  0  0  0  0  0  0  0  0
   10.3984   -0.7862    0.0000 C   0  0  1  0  0  0  0  0  0  0  0  0
   10.3984    0.2138    0.0000 C   0  0  0  0  0  0  0  0  0  0  0  0
    9.5323   -1.2862    0.0000 C   0  0  0  0  0  0  0  0  0  0  0  0
   11.3084    0.7207    0.0000 C   0  0  0  0  0  0  0  0  0  0  0  0
   12.1221   -0.7989    0.0000 C   0  0  0  0  0  0  0  0  0  0  0  0
   12.1477    0.1924    0.0000 C   0  0  0  0  0  0  0  0  0  0  0  0
    9.5323    0.7138    0.0000 C   0  0  0  0  0  0  0  0  0  0  0  0
    8.6663   -0.7862    0.0000 C   0  0  0  0  0  0  0  0  0  0  0  0
    8.6663    0.2138    0.0000 C   0  0  0  0  0  0  0  0  0  0  0  0
   11.2492   -2.2831    0.0000 C   0  0  0  0  0  0  0  0  0  0  0  0
   11.3164    1.7623    0.0000 C   0  0  0  0  0  0  0  0  0  0  0  0
    9.5163    1.7553    0.0000 C   0  0  0  0  0  0  0  0  0  0  0  0
    7.7724    0.7485    0.0000 C   0  0  0  0  0  0  0  0  0  0  0  0
    7.7724   -1.3208    0.0000 C   0  0  0  0  0  0  0  0  0  0  0  0
   10.4143    2.2831    0.0000 C   0  0  0  0  0  0  0  0  0  0  0  0
    6.8663    0.2346    0.0000 C   0  0  0  0  0  0  0  0  0  0  0  0
    6.8663   -0.8070    0.0000 C   0  0  0  0  0  0  0  0  0  0  0  0
    5.1343    0.2413    0.0000 C   0  0  0  0  0  0  0  0  0  0  0  0
    4.2702    0.7446    0.0000 C   0  0  0  0  0  0  0  0  0  0  0  0
    3.4022    0.2480    0.0000 C   0  0  0  0  0  0  0  0  0  0  0  0
   10.3978   -1.6362    0.0000 H   0  0  0  0  0  0  0  0  0  0  0  0
    9.1338   -1.7611    0.0000 H   0  0  0  0  0  0  0  0  0  0  0  0
    9.9309   -1.7611    0.0000 H   0  0  0  0  0  0  0  0  0  0  0  0
   12.3238   -1.3852    0.0000 H   0  0  0  0  0  0  0  0  0  0  0  0
   12.7348   -0.7046    0.0000 H   0  0  0  0  0  0  0  0  0  0  0  0
   12.7548    0.0665    0.0000 H   0  0  0  0  0  0  0  0  0  0  0  0
   12.3794    0.7675    0.0000 H   0  0  0  0  0  0  0  0  0  0  0  0
   10.6292   -2.2785    0.0000 H   0  0  0  0  0  0  0  0  0  0  0  0
   11.2446   -2.9031    0.0000 H   0  0  0  0  0  0  0  0  0  0  0  0
   11.8692   -2.2877    0.0000 H   0  0  0  0  0  0  0  0  0  0  0  0
   11.8545    2.0702    0.0000 H   0  0  0  0  0  0  0  0  0  0  0  0
    8.9758    2.0591    0.0000 H   0  0  0  0  0  0  0  0  0  0  0  0
    7.7795   -1.9408    0.0000 H   0  0  0  0  0  0  0  0  0  0  0  0
   10.4119    2.9031    0.0000 H   0  0  0  0  0  0  0  0  0  0  0  0
    6.3306   -1.1191    0.0000 H   0  0  0  0  0  0  0  0  0  0  0  0
    7.2506    2.0646    0.0000 H   0  0  0  0  0  0  0  0  0  0  0  0
    4.7339   -0.2321    0.0000 H   0  0  0  0  0  0  0  0  0  0  0  0
    5.5310   -0.2352    0.0000 H   0  0  0  0  0  0  0  0  0  0  0  0
    4.6705    1.2180    0.0000 H   0  0  0  0  0  0  0  0  0  0  0  0
    3.8735    1.2211    0.0000 H   0  0  0  0  0  0  0  0  0  0  0  0
    3.0019   -0.2254    0.0000 H   0  0  0  0  0  0  0  0  0  0  0  0
    3.7989   -0.2285    0.0000 H   0  0  0  0  0  0  0  0  0  0  0  0
    2.0000    0.4434    0.0000 H   0  0  0  0  0  0  0  0  0  0  0  0
    2.5405    1.3713    0.0000 H   0  0  0  0  0  0  0  0  0  0  0  0
  1 17  1  0  0  0  0
  1 40  1  0  0  0  0
  2 20  1  0  0  0  0
  2 22  1  0  0  0  0
  3  5  1  0  0  0  0
  3  9  1  0  0  0  0
  3 14  1  0  0  0  0
  4 24  1  0  0  0  0
  4 47  1  0  0  0  0
  4 48  1  0  0  0  0
  5  6  1  0  0  0  0
  5  7  1  0  0  0  0
  5 25  1  1  0  0  0
  6  8  2  0  0  0  0
  6 11  1  0  0  0  0
  7 12  1  0  0  0  0
  7 26  1  0  0  0  0
  7 27  1  0  0  0  0
  8 10  1  0  0  0  0
  8 15  1  0  0  0  0
  9 10  1  0  0  0  0
  9 28  1  0  0  0  0
  9 29  1  0  0  0  0
 10 30  1  0  0  0  0
 10 31  1  0  0  0  0
 11 13  1  0  0  0  0
 11 16  2  0  0  0  0
 12 13  2  0  0  0  0
 12 18  1  0  0  0  0
 13 17  1  0  0  0  0
 14 32  1  0  0  0  0
 14 33  1  0  0  0  0
 14 34  1  0  0  0  0
 15 19  2  0  0  0  0
 15 35  1  0  0  0  0
 16 19  1  0  0  0  0
 16 36  1  0  0  0  0
 17 20  2  0  0  0  0
 18 21  2  0  0  0  0
 18 37  1  0  0  0  0
 19 38  1  0  0  0  0
 20 21  1  0  0  0  0
 21 39  1  0  0  0  0
 22 23  1  0  0  0  0
 22 41  1  0  0  0  0
 22 42  1  0  0  0  0
 23 24  1  0  0  0  0
 23 43  1  0  0  0  0
 23 44  1  0  0  0  0
 24 45  1  0  0  0  0
 24 46  1  0  0  0  0
M  END
> <PUBCHEM_COMPOUND_CID>
76336623

> <PUBCHEM_COMPOUND_CANONICALIZED>
1

> <PUBCHEM_CACTVS_COMPLEXITY>
432

> <PUBCHEM_CACTVS_HBOND_ACCEPTOR>
4

> <PUBCHEM_CACTVS_HBOND_DONOR>
2

> <PUBCHEM_CACTVS_ROTATABLE_BOND>
4

> <PUBCHEM_CACTVS_SUBSKEYS>
AAADceB7MAAAAAAAAAAAAAAAAAAAAAAAAAA8YMEAAAAAAADxQAAAHgAQCAAADCzhmAYyBoNABgCAAiBCAACCCAAgIAAIiIAOjIgNJiKGsRuGeCvm0BGLuAeQ0PMOoAADAAAYQADQAAaAADSAAAAAAAAAAA==

> <PUBCHEM_IUPAC_OPENEYE_NAME>
(6aR)-10-(3-aminopropoxy)-6-methyl-5,6,6a,7-tetrahydro-4H-dibenzo[de,g]quinolin-11-ol

> <PUBCHEM_IUPAC_CAS_NAME>
(6aR)-10-(3-aminopropoxy)-6-methyl-5,6,6a,7-tetrahydro-4H-dibenzo[de,g]quinolin-11-ol

> <PUBCHEM_IUPAC_NAME_MARKUP>
(6<I>a</I><I>R</I>)-10-(3-aminopropoxy)-6-methyl-5,6,6<I>a</I>,7-tetrahydro-4<I>H</I>-dibenzo[de,g]quinolin-11-ol

> <PUBCHEM_IUPAC_NAME>
(6aR)-10-(3-aminopropoxy)-6-methyl-5,6,6a,7-tetrahydro-4H-dibenzo[de,g]quinolin-11-ol

> <PUBCHEM_IUPAC_SYSTEMATIC_NAME>
(6aR)-10-(3-azanylpropoxy)-6-methyl-5,6,6a,7-tetrahydro-4H-dibenzo[de,g]quinolin-11-ol

> <PUBCHEM_IUPAC_TRADITIONAL_NAME>
(6aR)-10-(3-aminopropoxy)-6-methyl-5,6,6a,7-tetrahydro-4H-dibenzo[de,g]quinolin-11-ol

> <PUBCHEM_IUPAC_INCHI>
InChI=1S/C20H24N2O2/c1-22-10-8-13-4-2-5-15-18(13)16(22)12-14-6-7-17(20(23)19(14)15)24-11-3-9-21/h2,4-7,16,23H,3,8-12,21H2,1H3/t16-/m1/s1

> <PUBCHEM_IUPAC_INCHIKEY>
BYNOKCOVEBNKRF-MRXNPFEDSA-N

> <PUBCHEM_XLOGP3>
2

> <PUBCHEM_EXACT_MASS>
324.183778013

> <PUBCHEM_MOLECULAR_FORMULA>
C20H24N2O2

> <PUBCHEM_MOLECULAR_WEIGHT>
324.4

> <PUBCHEM_OPENEYE_CAN_SMILES>
CN1CCC2=C3C1CC4=C(C3=CC=C2)C(=C(C=C4)OCCCN)O

> <PUBCHEM_OPENEYE_ISO_SMILES>
CN1CCC2=C3[C@H]1CC4=C(C3=CC=C2)C(=C(C=C4)OCCCN)O

> <PUBCHEM_CACTVS_TPSA>
58.7

> <PUBCHEM_MONOISOTOPIC_WEIGHT>
324.183778013

> <PUBCHEM_TOTAL_CHARGE>
0

> <PUBCHEM_HEAVY_ATOM_COUNT>
24

> <PUBCHEM_ATOM_DEF_STEREO_COUNT>
1

> <PUBCHEM_ATOM_UDEF_STEREO_COUNT>
0

> <PUBCHEM_BOND_DEF_STEREO_COUNT>
0

> <PUBCHEM_BOND_UDEF_STEREO_COUNT>
0

> <PUBCHEM_ISOTOPIC_ATOM_COUNT>
0

> <PUBCHEM_COMPONENT_COUNT>
1

> <PUBCHEM_CACTVS_TAUTO_COUNT>
-1

> <PUBCHEM_COORDINATE_TYPE>
1
5
255

> <PUBCHEM_BONDANNOTATIONS>
11  16  8
12  13  8
12  18  8
13  17  8
15  19  8
16  19  8
17  20  8
18  21  8
20  21  8
5  25  5
6  11  8
6  8  8
8  15  8

$$$$
