42273483
  -OEChem-09292322202D

 51 52  0     0  0  0  0  0  0999 V2000
    2.8660   -5.6830    0.0000 Cl  0  0  0  0  0  0  0  0  0  0  0  0
    3.7320    4.8170    0.0000 O   0  0  0  0  0  0  0  0  0  0  0  0
    2.8660    0.3170    0.0000 N   0  0  0  0  0  0  0  0  0  0  0  0
    2.8660   -1.6830    0.0000 N   0  0  0  0  0  0  0  0  0  0  0  0
    4.5981    3.3170    0.0000 N   0  0  0  0  0  0  0  0  0  0  0  0
    3.7320   -0.1830    0.0000 C   0  0  0  0  0  0  0  0  0  0  0  0
    2.0000   -0.1830    0.0000 C   0  0  0  0  0  0  0  0  0  0  0  0
    3.7320   -1.1830    0.0000 C   0  0  0  0  0  0  0  0  0  0  0  0
    2.0000   -1.1830    0.0000 C   0  0  0  0  0  0  0  0  0  0  0  0
    2.8660    1.3170    0.0000 C   0  0  0  0  0  0  0  0  0  0  0  0
    3.7320    1.8170    0.0000 C   0  0  0  0  0  0  0  0  0  0  0  0
    3.7320    2.8170    0.0000 C   0  0  0  0  0  0  0  0  0  0  0  0
    2.8660   -2.6830    0.0000 C   0  0  0  0  0  0  0  0  0  0  0  0
    5.4641    4.8170    0.0000 C   0  0  0  0  0  0  0  0  0  0  0  0
    4.5981    4.3170    0.0000 C   0  0  0  0  0  0  0  0  0  0  0  0
    3.7320   -3.1830    0.0000 C   0  0  0  0  0  0  0  0  0  0  0  0
    2.0000   -3.1830    0.0000 C   0  0  0  0  0  0  0  0  0  0  0  0
    6.3301    5.3170    0.0000 C   0  0  0  0  0  0  0  0  0  0  0  0
    4.9641    5.6830    0.0000 C   0  0  0  0  0  0  0  0  0  0  0  0
    5.9641    3.9510    0.0000 C   0  0  0  0  0  0  0  0  0  0  0  0
    3.7320   -4.1830    0.0000 C   0  0  0  0  0  0  0  0  0  0  0  0
    2.0000   -4.1830    0.0000 C   0  0  0  0  0  0  0  0  0  0  0  0
    2.8660   -4.6830    0.0000 C   0  0  0  0  0  0  0  0  0  0  0  0
    4.3426   -0.2907    0.0000 H   0  0  0  0  0  0  0  0  0  0  0  0
    3.9441    0.3996    0.0000 H   0  0  0  0  0  0  0  0  0  0  0  0
    1.7880    0.3996    0.0000 H   0  0  0  0  0  0  0  0  0  0  0  0
    1.3894   -0.2907    0.0000 H   0  0  0  0  0  0  0  0  0  0  0  0
    3.9441   -1.7656    0.0000 H   0  0  0  0  0  0  0  0  0  0  0  0
    4.3426   -1.0754    0.0000 H   0  0  0  0  0  0  0  0  0  0  0  0
    1.3894   -1.0754    0.0000 H   0  0  0  0  0  0  0  0  0  0  0  0
    1.7880   -1.7656    0.0000 H   0  0  0  0  0  0  0  0  0  0  0  0
    2.6540    1.8996    0.0000 H   0  0  0  0  0  0  0  0  0  0  0  0
    2.2554    1.2093    0.0000 H   0  0  0  0  0  0  0  0  0  0  0  0
    3.9441    1.2344    0.0000 H   0  0  0  0  0  0  0  0  0  0  0  0
    4.3426    1.9246    0.0000 H   0  0  0  0  0  0  0  0  0  0  0  0
    3.5200    3.3996    0.0000 H   0  0  0  0  0  0  0  0  0  0  0  0
    3.1215    2.7093    0.0000 H   0  0  0  0  0  0  0  0  0  0  0  0
    5.1350    3.0070    0.0000 H   0  0  0  0  0  0  0  0  0  0  0  0
    4.2690   -2.8730    0.0000 H   0  0  0  0  0  0  0  0  0  0  0  0
    1.4631   -2.8730    0.0000 H   0  0  0  0  0  0  0  0  0  0  0  0
    6.6401    4.7800    0.0000 H   0  0  0  0  0  0  0  0  0  0  0  0
    6.8671    5.6270    0.0000 H   0  0  0  0  0  0  0  0  0  0  0  0
    6.0201    5.8539    0.0000 H   0  0  0  0  0  0  0  0  0  0  0  0
    5.5010    5.9930    0.0000 H   0  0  0  0  0  0  0  0  0  0  0  0
    4.6541    6.2200    0.0000 H   0  0  0  0  0  0  0  0  0  0  0  0
    4.4272    5.3730    0.0000 H   0  0  0  0  0  0  0  0  0  0  0  0
    5.4272    3.6410    0.0000 H   0  0  0  0  0  0  0  0  0  0  0  0
    6.2741    3.4140    0.0000 H   0  0  0  0  0  0  0  0  0  0  0  0
    6.5010    4.2610    0.0000 H   0  0  0  0  0  0  0  0  0  0  0  0
    4.2690   -4.4930    0.0000 H   0  0  0  0  0  0  0  0  0  0  0  0
    1.4631   -4.4930    0.0000 H   0  0  0  0  0  0  0  0  0  0  0  0
  1 23  1  0  0  0  0
  2 15  2  0  0  0  0
  3  6  1  0  0  0  0
  3  7  1  0  0  0  0
  3 10  1  0  0  0  0
  4  8  1  0  0  0  0
  4  9  1  0  0  0  0
  4 13  1  0  0  0  0
  5 12  1  0  0  0  0
  5 15  1  0  0  0  0
  5 38  1  0  0  0  0
  6  8  1  0  0  0  0
  6 24  1  0  0  0  0
  6 25  1  0  0  0  0
  7  9  1  0  0  0  0
  7 26  1  0  0  0  0
  7 27  1  0  0  0  0
  8 28  1  0  0  0  0
  8 29  1  0  0  0  0
  9 30  1  0  0  0  0
  9 31  1  0  0  0  0
 10 11  1  0  0  0  0
 10 32  1  0  0  0  0
 10 33  1  0  0  0  0
 11 12  1  0  0  0  0
 11 34  1  0  0  0  0
 11 35  1  0  0  0  0
 12 36  1  0  0  0  0
 12 37  1  0  0  0  0
 13 16  2  0  0  0  0
 13 17  1  0  0  0  0
 14 15  1  0  0  0  0
 14 18  1  0  0  0  0
 14 19  1  0  0  0  0
 14 20  1  0  0  0  0
 16 21  1  0  0  0  0
 16 39  1  0  0  0  0
 17 22  2  0  0  0  0
 17 40  1  0  0  0  0
 18 41  1  0  0  0  0
 18 42  1  0  0  0  0
 18 43  1  0  0  0  0
 19 44  1  0  0  0  0
 19 45  1  0  0  0  0
 19 46  1  0  0  0  0
 20 47  1  0  0  0  0
 20 48  1  0  0  0  0
 20 49  1  0  0  0  0
 21 23  2  0  0  0  0
 21 50  1  0  0  0  0
 22 23  1  0  0  0  0
 22 51  1  0  0  0  0
M  END
> <PUBCHEM_COMPOUND_CID>
42273483

> <PUBCHEM_COMPOUND_CANONICALIZED>
1

> <PUBCHEM_CACTVS_COMPLEXITY>
367

> <PUBCHEM_CACTVS_HBOND_ACCEPTOR>
3

> <PUBCHEM_CACTVS_HBOND_DONOR>
1

> <PUBCHEM_CACTVS_ROTATABLE_BOND>
6

> <PUBCHEM_CACTVS_SUBSKEYS>
AAADceB7IAAEAAAAAAAAAAAAAAAAAAAAAAA8QAAAAAAAAAABAAAAHgIQAAAADgrBkCQywIPAAACIACVSUACCAAAhBwAIiIEIZogIYCLB05GUIAhglgDIyAcQAAAAAABAAAAAAAAAAIAAAAAAAAAAAAAAAA==

> <PUBCHEM_IUPAC_OPENEYE_NAME>
N-[3-[4-(4-chlorophenyl)piperazin-1-yl]propyl]-2,2-dimethyl-propanamide

> <PUBCHEM_IUPAC_CAS_NAME>
N-[3-[4-(4-chlorophenyl)-1-piperazinyl]propyl]-2,2-dimethylpropanamide

> <PUBCHEM_IUPAC_NAME_MARKUP>
<I>N</I>-[3-[4-(4-chlorophenyl)piperazin-1-yl]propyl]-2,2-dimethylpropanamide

> <PUBCHEM_IUPAC_NAME>
N-[3-[4-(4-chlorophenyl)piperazin-1-yl]propyl]-2,2-dimethylpropanamide

> <PUBCHEM_IUPAC_SYSTEMATIC_NAME>
N-[3-[4-(4-chlorophenyl)piperazin-1-yl]propyl]-2,2-dimethyl-propanamide

> <PUBCHEM_IUPAC_TRADITIONAL_NAME>
N-[3-[4-(4-chlorophenyl)piperazino]propyl]-2,2-dimethyl-propionamide

> <PUBCHEM_IUPAC_INCHI>
InChI=1S/C18H28ClN3O/c1-18(2,3)17(23)20-9-4-10-21-11-13-22(14-12-21)16-7-5-15(19)6-8-16/h5-8H,4,9-14H2,1-3H3,(H,20,23)

> <PUBCHEM_IUPAC_INCHIKEY>
MNNQCHFOLNAVFV-UHFFFAOYSA-N

> <PUBCHEM_XLOGP3_AA>
3.6

> <PUBCHEM_EXACT_MASS>
337.1920902

> <PUBCHEM_MOLECULAR_FORMULA>
C18H28ClN3O

> <PUBCHEM_MOLECULAR_WEIGHT>
337.9

> <PUBCHEM_OPENEYE_CAN_SMILES>
CC(C)(C)C(=O)NCCCN1CCN(CC1)C2=CC=C(C=C2)Cl

> <PUBCHEM_OPENEYE_ISO_SMILES>
CC(C)(C)C(=O)NCCCN1CCN(CC1)C2=CC=C(C=C2)Cl

> <PUBCHEM_CACTVS_TPSA>
35.6

> <PUBCHEM_MONOISOTOPIC_WEIGHT>
337.1920902

> <PUBCHEM_TOTAL_CHARGE>
0

> <PUBCHEM_HEAVY_ATOM_COUNT>
23

> <PUBCHEM_ATOM_DEF_STEREO_COUNT>
0

> <PUBCHEM_ATOM_UDEF_STEREO_COUNT>
0

> <PUBCHEM_BOND_DEF_STEREO_COUNT>
0

> <PUBCHEM_BOND_UDEF_STEREO_COUNT>
0

> <PUBCHEM_ISOTOPIC_ATOM_COUNT>
0

> <PUBCHEM_COMPONENT_COUNT>
1

> <PUBCHEM_CACTVS_TAUTO_COUNT>
-1

> <PUBCHEM_COORDINATE_TYPE>
1
5
255

> <PUBCHEM_BONDANNOTATIONS>
13  16  8
13  17  8
16  21  8
17  22  8
21  23  8
22  23  8

$$$$
