164614425
  -OEChem-09292322432D

 72 75  0     1  0  0  0  0  0999 V2000
    8.4395   -5.5320    0.0000 Cl  0  0  0  0  0  0  0  0  0  0  0  0
   10.7619    2.1150    0.0000 O   0  0  0  0  0  0  0  0  0  0  0  0
   11.2847   -3.3173    0.0000 O   0  0  0  0  0  0  0  0  0  0  0  0
   10.2666   -4.7185    0.0000 O   0  0  0  0  0  0  0  0  0  0  0  0
    8.8576   -1.5539    0.0000 O   0  0  0  0  0  0  0  0  0  0  0  0
    4.6783    3.9083    0.0000 O   0  0  0  0  0  0  0  0  0  0  0  0
    6.7619    5.5791    0.0000 O   0  0  0  0  0  0  0  0  0  0  0  0
   12.4643    0.1663    0.0000 N   0  0  0  0  0  0  0  0  0  0  0  0
   10.5802   -1.7350    0.0000 N   0  0  0  0  0  0  0  0  0  0  0  0
    6.7619    3.8470    0.0000 N   0  0  0  0  0  0  0  0  0  0  0  0
   11.5983   -0.3337    0.0000 C   0  0  1  0  0  0  0  0  0  0  0  0
   10.8551    0.3354    0.0000 C   0  0  0  0  0  0  0  0  0  0  0  0
   11.2619    1.2490    0.0000 C   0  0  2  0  0  0  0  0  0  0  0  0
   12.2564    1.1444    0.0000 C   0  0  0  0  0  0  0  0  0  0  0  0
   11.4938   -1.3282    0.0000 C   0  0  0  0  0  0  0  0  0  0  0  0
    9.7619    2.1150    0.0000 C   0  0  0  0  0  0  0  0  0  0  0  0
    9.2619    2.9810    0.0000 C   0  0  0  0  0  0  0  0  0  0  0  0
    8.2619    2.9810    0.0000 C   0  0  0  0  0  0  0  0  0  0  0  0
   10.4757   -2.7295    0.0000 C   0  0  0  0  0  0  0  0  0  0  0  0
    7.7619    3.8470    0.0000 C   0  0  0  0  0  0  0  0  0  0  0  0
    9.5621   -3.1362    0.0000 C   0  0  0  0  0  0  0  0  0  0  0  0
    8.7531   -2.5484    0.0000 C   0  0  0  0  0  0  0  0  0  0  0  0
    9.4576   -4.1308    0.0000 C   0  0  0  0  0  0  0  0  0  0  0  0
    7.8396   -2.9552    0.0000 C   0  0  0  0  0  0  0  0  0  0  0  0
    8.5441   -4.5375    0.0000 C   0  0  0  0  0  0  0  0  0  0  0  0
    7.7350   -3.9497    0.0000 C   0  0  0  0  0  0  0  0  0  0  0  0
    7.0306   -2.3674    0.0000 C   0  0  0  0  0  0  0  0  0  0  0  0
    6.2619    4.7131    0.0000 C   0  0  0  0  0  0  0  0  0  0  0  0
    5.2619    4.7131    0.0000 C   0  0  0  0  0  0  0  0  0  0  0  0
    6.1170   -2.7741    0.0000 C   0  0  0  0  0  0  0  0  0  0  0  0
    4.6783    5.5178    0.0000 C   0  0  0  0  0  0  0  0  0  0  0  0
    3.7320    5.2131    0.0000 C   0  0  0  0  0  0  0  0  0  0  0  0
    3.7320    4.2131    0.0000 C   0  0  0  0  0  0  0  0  0  0  0  0
   10.1621   -5.7131    0.0000 C   0  0  0  0  0  0  0  0  0  0  0  0
    2.8660    5.7131    0.0000 C   0  0  0  0  0  0  0  0  0  0  0  0
    2.8660    3.7131    0.0000 C   0  0  0  0  0  0  0  0  0  0  0  0
    2.0000    5.2131    0.0000 C   0  0  0  0  0  0  0  0  0  0  0  0
    2.0000    4.2131    0.0000 C   0  0  0  0  0  0  0  0  0  0  0  0
   12.1183   -0.6714    0.0000 H   0  0  0  0  0  0  0  0  0  0  0  0
   10.3182    0.6454    0.0000 H   0  0  0  0  0  0  0  0  0  0  0  0
   10.4907   -0.1662    0.0000 H   0  0  0  0  0  0  0  0  0  0  0  0
   11.5996    1.7689    0.0000 H   0  0  0  0  0  0  0  0  0  0  0  0
   12.8730    1.2092    0.0000 H   0  0  0  0  0  0  0  0  0  0  0  0
   12.2564    1.7644    0.0000 H   0  0  0  0  0  0  0  0  0  0  0  0
   13.0307   -0.0859    0.0000 H   0  0  0  0  0  0  0  0  0  0  0  0
   11.6438   -1.9298    0.0000 H   0  0  0  0  0  0  0  0  0  0  0  0
   12.1122   -1.2850    0.0000 H   0  0  0  0  0  0  0  0  0  0  0  0
    9.1793    1.9029    0.0000 H   0  0  0  0  0  0  0  0  0  0  0  0
    9.8695    1.5044    0.0000 H   0  0  0  0  0  0  0  0  0  0  0  0
   10.0786   -1.3706    0.0000 H   0  0  0  0  0  0  0  0  0  0  0  0
    9.8445    3.1931    0.0000 H   0  0  0  0  0  0  0  0  0  0  0  0
    9.1542    3.5916    0.0000 H   0  0  0  0  0  0  0  0  0  0  0  0
    7.6793    2.7690    0.0000 H   0  0  0  0  0  0  0  0  0  0  0  0
    8.3695    2.3704    0.0000 H   0  0  0  0  0  0  0  0  0  0  0  0
    8.3445    4.0591    0.0000 H   0  0  0  0  0  0  0  0  0  0  0  0
    7.6542    4.4576    0.0000 H   0  0  0  0  0  0  0  0  0  0  0  0
    6.4519    3.3101    0.0000 H   0  0  0  0  0  0  0  0  0  0  0  0
    7.1686   -4.2019    0.0000 H   0  0  0  0  0  0  0  0  0  0  0  0
    7.4766   -1.9367    0.0000 H   0  0  0  0  0  0  0  0  0  0  0  0
    6.6839   -1.8534    0.0000 H   0  0  0  0  0  0  0  0  0  0  0  0
    8.3561   -1.1895    0.0000 H   0  0  0  0  0  0  0  0  0  0  0  0
    5.8648   -2.2077    0.0000 H   0  0  0  0  0  0  0  0  0  0  0  0
    5.5506   -3.0263    0.0000 H   0  0  0  0  0  0  0  0  0  0  0  0
    6.3692   -3.3405    0.0000 H   0  0  0  0  0  0  0  0  0  0  0  0
    4.8709    6.1071    0.0000 H   0  0  0  0  0  0  0  0  0  0  0  0
    9.5455   -5.6482    0.0000 H   0  0  0  0  0  0  0  0  0  0  0  0
   10.0973   -6.3297    0.0000 H   0  0  0  0  0  0  0  0  0  0  0  0
   10.7787   -5.7779    0.0000 H   0  0  0  0  0  0  0  0  0  0  0  0
    2.8660    6.3331    0.0000 H   0  0  0  0  0  0  0  0  0  0  0  0
    2.8660    3.0931    0.0000 H   0  0  0  0  0  0  0  0  0  0  0  0
    1.4631    5.5231    0.0000 H   0  0  0  0  0  0  0  0  0  0  0  0
    1.4631    3.9031    0.0000 H   0  0  0  0  0  0  0  0  0  0  0  0
  1 25  1  0  0  0  0
 13  2  1  1  0  0  0
  2 16  1  0  0  0  0
  3 19  2  0  0  0  0
  4 23  1  0  0  0  0
  4 34  1  0  0  0  0
  5 22  1  0  0  0  0
  5 61  1  0  0  0  0
  6 29  1  0  0  0  0
  6 33  1  0  0  0  0
  7 28  2  0  0  0  0
  8 11  1  0  0  0  0
  8 14  1  0  0  0  0
  8 45  1  0  0  0  0
  9 15  1  0  0  0  0
  9 19  1  0  0  0  0
  9 50  1  0  0  0  0
 10 20  1  0  0  0  0
 10 28  1  0  0  0  0
 10 57  1  0  0  0  0
 11 12  1  0  0  0  0
 11 15  1  6  0  0  0
 11 39  1  0  0  0  0
 12 13  1  0  0  0  0
 12 40  1  0  0  0  0
 12 41  1  0  0  0  0
 13 14  1  0  0  0  0
 13 42  1  0  0  0  0
 14 43  1  0  0  0  0
 14 44  1  0  0  0  0
 15 46  1  0  0  0  0
 15 47  1  0  0  0  0
 16 17  1  0  0  0  0
 16 48  1  0  0  0  0
 16 49  1  0  0  0  0
 17 18  1  0  0  0  0
 17 51  1  0  0  0  0
 17 52  1  0  0  0  0
 18 20  1  0  0  0  0
 18 53  1  0  0  0  0
 18 54  1  0  0  0  0
 19 21  1  0  0  0  0
 20 55  1  0  0  0  0
 20 56  1  0  0  0  0
 21 22  2  0  0  0  0
 21 23  1  0  0  0  0
 22 24  1  0  0  0  0
 23 25  2  0  0  0  0
 24 26  2  0  0  0  0
 24 27  1  0  0  0  0
 25 26  1  0  0  0  0
 26 58  1  0  0  0  0
 27 30  1  0  0  0  0
 27 59  1  0  0  0  0
 27 60  1  0  0  0  0
 28 29  1  0  0  0  0
 29 31  2  0  0  0  0
 30 62  1  0  0  0  0
 30 63  1  0  0  0  0
 30 64  1  0  0  0  0
 31 32  1  0  0  0  0
 31 65  1  0  0  0  0
 32 33  1  0  0  0  0
 32 35  2  0  0  0  0
 33 36  2  0  0  0  0
 34 66  1  0  0  0  0
 34 67  1  0  0  0  0
 34 68  1  0  0  0  0
 35 37  1  0  0  0  0
 35 69  1  0  0  0  0
 36 38  1  0  0  0  0
 36 70  1  0  0  0  0
 37 38  2  0  0  0  0
 37 71  1  0  0  0  0
 38 72  1  0  0  0  0
M  END
> <PUBCHEM_COMPOUND_CID>
164614425

> <PUBCHEM_COMPOUND_CANONICALIZED>
1

> <PUBCHEM_CACTVS_COMPLEXITY>
775

> <PUBCHEM_CACTVS_HBOND_ACCEPTOR>
7

> <PUBCHEM_CACTVS_HBOND_DONOR>
4

> <PUBCHEM_CACTVS_ROTATABLE_BOND>
12

> <PUBCHEM_CACTVS_SUBSKEYS>
AAADcfB7OAAEAAAAAAAAAAAAAAAAAWJAAAAwYAAAAAAAAEgB9AAAHgIQCAAADD7hmCYyBsLABkCIAqFSEAKCCAAkJUAIiIHOD8gOZzeHtz+XeWjn9hWYuYe4/+7uICACKAAICABAQARQABAQAAAAAAAAAA==

> <PUBCHEM_IUPAC_OPENEYE_NAME>
N-[4-[(3R,5S)-5-[[(5-chloro-3-ethyl-2-hydroxy-6-methoxy-benzoyl)amino]methyl]pyrrolidin-3-yl]oxybutyl]benzofuran-2-carboxamide

> <PUBCHEM_IUPAC_CAS_NAME>
N-[4-[[(3R,5S)-5-[[[(5-chloro-3-ethyl-2-hydroxy-6-methoxyphenyl)-oxomethyl]amino]methyl]-3-pyrrolidinyl]oxy]butyl]-2-benzofurancarboxamide

> <PUBCHEM_IUPAC_NAME_MARKUP>
<I>N</I>-[4-[(3<I>R</I>,5<I>S</I>)-5-[[(5-chloro-3-ethyl-2-hydroxy-6-methoxybenzoyl)amino]methyl]pyrrolidin-3-yl]oxybutyl]-1-benzofuran-2-carboxamide

> <PUBCHEM_IUPAC_NAME>
N-[4-[(3R,5S)-5-[[(5-chloro-3-ethyl-2-hydroxy-6-methoxybenzoyl)amino]methyl]pyrrolidin-3-yl]oxybutyl]-1-benzofuran-2-carboxamide

> <PUBCHEM_IUPAC_SYSTEMATIC_NAME>
N-[4-[(3R,5S)-5-[[(3-chloranyl-5-ethyl-2-methoxy-6-oxidanyl-phenyl)carbonylamino]methyl]pyrrolidin-3-yl]oxybutyl]-1-benzofuran-2-carboxamide

> <PUBCHEM_IUPAC_TRADITIONAL_NAME>
N-[4-[(3R,5S)-5-[[(5-chloro-3-ethyl-2-hydroxy-6-methoxy-benzoyl)amino]methyl]pyrrolidin-3-yl]oxybutyl]coumarilamide

> <PUBCHEM_IUPAC_INCHI>
InChI=1S/C28H34ClN3O6/c1-3-17-12-21(29)26(36-2)24(25(17)33)28(35)32-15-19-14-20(16-31-19)37-11-7-6-10-30-27(34)23-13-18-8-4-5-9-22(18)38-23/h4-5,8-9,12-13,19-20,31,33H,3,6-7,10-11,14-16H2,1-2H3,(H,30,34)(H,32,35)/t19-,20+/m0/s1

> <PUBCHEM_IUPAC_INCHIKEY>
FIFCKHUAPMXUCB-VQTJNVASSA-N

> <PUBCHEM_XLOGP3_AA>
4.9

> <PUBCHEM_EXACT_MASS>
543.2136135

> <PUBCHEM_MOLECULAR_FORMULA>
C28H34ClN3O6

> <PUBCHEM_MOLECULAR_WEIGHT>
544.0

> <PUBCHEM_OPENEYE_CAN_SMILES>
CCC1=CC(=C(C(=C1O)C(=O)NCC2CC(CN2)OCCCCNC(=O)C3=CC4=CC=CC=C4O3)OC)Cl

> <PUBCHEM_OPENEYE_ISO_SMILES>
CCC1=CC(=C(C(=C1O)C(=O)NC[C@@H]2C[C@H](CN2)OCCCCNC(=O)C3=CC4=CC=CC=C4O3)OC)Cl

> <PUBCHEM_CACTVS_TPSA>
122

> <PUBCHEM_MONOISOTOPIC_WEIGHT>
543.2136135

> <PUBCHEM_TOTAL_CHARGE>
0

> <PUBCHEM_HEAVY_ATOM_COUNT>
38

> <PUBCHEM_ATOM_DEF_STEREO_COUNT>
2

> <PUBCHEM_ATOM_UDEF_STEREO_COUNT>
0

> <PUBCHEM_BOND_DEF_STEREO_COUNT>
0

> <PUBCHEM_BOND_UDEF_STEREO_COUNT>
0

> <PUBCHEM_ISOTOPIC_ATOM_COUNT>
0

> <PUBCHEM_COMPONENT_COUNT>
1

> <PUBCHEM_CACTVS_TAUTO_COUNT>
-1

> <PUBCHEM_COORDINATE_TYPE>
1
5
255

> <PUBCHEM_BONDANNOTATIONS>
11  15  6
13  2  5
21  22  8
21  23  8
22  24  8
23  25  8
24  26  8
25  26  8
29  31  8
31  32  8
32  33  8
32  35  8
33  36  8
35  37  8
36  38  8
37  38  8
6  29  8
6  33  8

$$$$
