24815976
  -OEChem-09292322292D

 49 52  0     0  0  0  0  0  0999 V2000
   10.6279   -2.9757    0.0000 F   0  0  0  0  0  0  0  0  0  0  0  0
   10.2619   -4.3417    0.0000 F   0  0  0  0  0  0  0  0  0  0  0  0
    8.8958   -3.9757    0.0000 F   0  0  0  0  0  0  0  0  0  0  0  0
    6.7619    1.7204    0.0000 N   0  0  0  0  0  0  0  0  0  0  0  0
    4.6783    3.3912    0.0000 N   0  0  0  0  0  0  0  0  0  0  0  0
    4.6783    1.7817    0.0000 N   0  0  0  0  0  0  0  0  0  0  0  0
    7.7619   -0.0116    0.0000 C   0  0  0  0  0  0  0  0  0  0  0  0
    8.2619    0.8544    0.0000 C   0  0  0  0  0  0  0  0  0  0  0  0
    6.7619   -0.0116    0.0000 C   0  0  0  0  0  0  0  0  0  0  0  0
    7.7619    1.7204    0.0000 C   0  0  0  0  0  0  0  0  0  0  0  0
    6.2619    0.8544    0.0000 C   0  0  0  0  0  0  0  0  0  0  0  0
    6.2619    2.5865    0.0000 C   0  0  0  0  0  0  0  0  0  0  0  0
    8.2619   -0.8776    0.0000 C   0  0  0  0  0  0  0  0  0  0  0  0
    5.2619    2.5865    0.0000 C   0  0  0  0  0  0  0  0  0  0  0  0
    7.7619   -1.7436    0.0000 C   0  0  0  0  0  0  0  0  0  0  0  0
    9.2619   -0.8776    0.0000 C   0  0  0  0  0  0  0  0  0  0  0  0
    3.7320    3.0865    0.0000 C   0  0  0  0  0  0  0  0  0  0  0  0
    8.2619   -2.6097    0.0000 C   0  0  0  0  0  0  0  0  0  0  0  0
    9.7619   -1.7436    0.0000 C   0  0  0  0  0  0  0  0  0  0  0  0
    3.7320    2.0865    0.0000 C   0  0  0  0  0  0  0  0  0  0  0  0
    9.2619   -2.6097    0.0000 C   0  0  0  0  0  0  0  0  0  0  0  0
    4.9889    4.3417    0.0000 C   0  0  0  0  0  0  0  0  0  0  0  0
    2.8660    3.5865    0.0000 C   0  0  0  0  0  0  0  0  0  0  0  0
    2.8660    1.5865    0.0000 C   0  0  0  0  0  0  0  0  0  0  0  0
    9.7619   -3.4757    0.0000 C   0  0  0  0  0  0  0  0  0  0  0  0
    2.0000    3.0865    0.0000 C   0  0  0  0  0  0  0  0  0  0  0  0
    2.0000    2.0865    0.0000 C   0  0  0  0  0  0  0  0  0  0  0  0
    7.4519   -0.5485    0.0000 H   0  0  0  0  0  0  0  0  0  0  0  0
    8.7368    0.4559    0.0000 H   0  0  0  0  0  0  0  0  0  0  0  0
    8.7368    1.2530    0.0000 H   0  0  0  0  0  0  0  0  0  0  0  0
    6.1793   -0.2237    0.0000 H   0  0  0  0  0  0  0  0  0  0  0  0
    6.8695   -0.6222    0.0000 H   0  0  0  0  0  0  0  0  0  0  0  0
    8.3445    1.9325    0.0000 H   0  0  0  0  0  0  0  0  0  0  0  0
    7.6542    2.3310    0.0000 H   0  0  0  0  0  0  0  0  0  0  0  0
    5.7869    1.2530    0.0000 H   0  0  0  0  0  0  0  0  0  0  0  0
    5.7869    0.4559    0.0000 H   0  0  0  0  0  0  0  0  0  0  0  0
    6.8445    2.7985    0.0000 H   0  0  0  0  0  0  0  0  0  0  0  0
    6.1542    3.1971    0.0000 H   0  0  0  0  0  0  0  0  0  0  0  0
    7.1419   -1.7436    0.0000 H   0  0  0  0  0  0  0  0  0  0  0  0
    9.5719   -0.3407    0.0000 H   0  0  0  0  0  0  0  0  0  0  0  0
    7.9519   -3.1466    0.0000 H   0  0  0  0  0  0  0  0  0  0  0  0
   10.3819   -1.7436    0.0000 H   0  0  0  0  0  0  0  0  0  0  0  0
    5.5783    4.1491    0.0000 H   0  0  0  0  0  0  0  0  0  0  0  0
    5.1815    4.9310    0.0000 H   0  0  0  0  0  0  0  0  0  0  0  0
    4.3996    4.5343    0.0000 H   0  0  0  0  0  0  0  0  0  0  0  0
    2.8660    4.2065    0.0000 H   0  0  0  0  0  0  0  0  0  0  0  0
    2.8660    0.9665    0.0000 H   0  0  0  0  0  0  0  0  0  0  0  0
    1.4631    3.3965    0.0000 H   0  0  0  0  0  0  0  0  0  0  0  0
    1.4631    1.7765    0.0000 H   0  0  0  0  0  0  0  0  0  0  0  0
  1 25  1  0  0  0  0
  2 25  1  0  0  0  0
  3 25  1  0  0  0  0
  4 10  1  0  0  0  0
  4 11  1  0  0  0  0
  4 12  1  0  0  0  0
  5 14  1  0  0  0  0
  5 17  1  0  0  0  0
  5 22  1  0  0  0  0
  6 14  2  0  0  0  0
  6 20  1  0  0  0  0
  7  8  1  0  0  0  0
  7  9  1  0  0  0  0
  7 13  1  0  0  0  0
  7 28  1  0  0  0  0
  8 10  1  0  0  0  0
  8 29  1  0  0  0  0
  8 30  1  0  0  0  0
  9 11  1  0  0  0  0
  9 31  1  0  0  0  0
  9 32  1  0  0  0  0
 10 33  1  0  0  0  0
 10 34  1  0  0  0  0
 11 35  1  0  0  0  0
 11 36  1  0  0  0  0
 12 14  1  0  0  0  0
 12 37  1  0  0  0  0
 12 38  1  0  0  0  0
 13 15  2  0  0  0  0
 13 16  1  0  0  0  0
 15 18  1  0  0  0  0
 15 39  1  0  0  0  0
 16 19  2  0  0  0  0
 16 40  1  0  0  0  0
 17 20  1  0  0  0  0
 17 23  2  0  0  0  0
 18 21  2  0  0  0  0
 18 41  1  0  0  0  0
 19 21  1  0  0  0  0
 19 42  1  0  0  0  0
 20 24  2  0  0  0  0
 21 25  1  0  0  0  0
 22 43  1  0  0  0  0
 22 44  1  0  0  0  0
 22 45  1  0  0  0  0
 23 26  1  0  0  0  0
 23 46  1  0  0  0  0
 24 27  1  0  0  0  0
 24 47  1  0  0  0  0
 26 27  2  0  0  0  0
 26 48  1  0  0  0  0
 27 49  1  0  0  0  0
M  END
> <PUBCHEM_COMPOUND_CID>
24815976

> <PUBCHEM_COMPOUND_CANONICALIZED>
1

> <PUBCHEM_CACTVS_COMPLEXITY>
482

> <PUBCHEM_CACTVS_HBOND_ACCEPTOR>
5

> <PUBCHEM_CACTVS_HBOND_DONOR>
0

> <PUBCHEM_CACTVS_ROTATABLE_BOND>
3

> <PUBCHEM_CACTVS_SUBSKEYS>
AAADceB7AYAAAAAAAAAAAAAAAAAAAWAAAAA8YIAAAAAAAFgB9AAAHQAAAAAADQjBHxQz0LcMEACgAyZiZACCgC0hEqAJ2CA4dJiIaKLAmZGUIAhogALIyCcQgMAOwAAAAAAAACCAAAAAAAAAQAAAAAAAAA==

> <PUBCHEM_IUPAC_OPENEYE_NAME>
1-methyl-2-[[4-[4-(trifluoromethyl)phenyl]-1-piperidyl]methyl]benzimidazole

> <PUBCHEM_IUPAC_CAS_NAME>
1-methyl-2-[[4-[4-(trifluoromethyl)phenyl]-1-piperidinyl]methyl]benzimidazole

> <PUBCHEM_IUPAC_NAME_MARKUP>
1-methyl-2-[[4-[4-(trifluoromethyl)phenyl]piperidin-1-yl]methyl]benzimidazole

> <PUBCHEM_IUPAC_NAME>
1-methyl-2-[[4-[4-(trifluoromethyl)phenyl]piperidin-1-yl]methyl]benzimidazole

> <PUBCHEM_IUPAC_SYSTEMATIC_NAME>
1-methyl-2-[[4-[4-(trifluoromethyl)phenyl]piperidin-1-yl]methyl]benzimidazole

> <PUBCHEM_IUPAC_TRADITIONAL_NAME>
1-methyl-2-[[4-[4-(trifluoromethyl)phenyl]piperidino]methyl]benzimidazole

> <PUBCHEM_IUPAC_INCHI>
InChI=1S/C21H22F3N3/c1-26-19-5-3-2-4-18(19)25-20(26)14-27-12-10-16(11-13-27)15-6-8-17(9-7-15)21(22,23)24/h2-9,16H,10-14H2,1H3

> <PUBCHEM_IUPAC_INCHIKEY>
SCFTWYRRDFJRSO-UHFFFAOYSA-N

> <PUBCHEM_XLOGP3_AA>
4.4

> <PUBCHEM_EXACT_MASS>
373.17658220

> <PUBCHEM_MOLECULAR_FORMULA>
C21H22F3N3

> <PUBCHEM_MOLECULAR_WEIGHT>
373.4

> <PUBCHEM_OPENEYE_CAN_SMILES>
CN1C2=CC=CC=C2N=C1CN3CCC(CC3)C4=CC=C(C=C4)C(F)(F)F

> <PUBCHEM_OPENEYE_ISO_SMILES>
CN1C2=CC=CC=C2N=C1CN3CCC(CC3)C4=CC=C(C=C4)C(F)(F)F

> <PUBCHEM_CACTVS_TPSA>
21.1

> <PUBCHEM_MONOISOTOPIC_WEIGHT>
373.17658220

> <PUBCHEM_TOTAL_CHARGE>
0

> <PUBCHEM_HEAVY_ATOM_COUNT>
27

> <PUBCHEM_ATOM_DEF_STEREO_COUNT>
0

> <PUBCHEM_ATOM_UDEF_STEREO_COUNT>
0

> <PUBCHEM_BOND_DEF_STEREO_COUNT>
0

> <PUBCHEM_BOND_UDEF_STEREO_COUNT>
0

> <PUBCHEM_ISOTOPIC_ATOM_COUNT>
0

> <PUBCHEM_COMPONENT_COUNT>
1

> <PUBCHEM_CACTVS_TAUTO_COUNT>
-1

> <PUBCHEM_COORDINATE_TYPE>
1
5
255

> <PUBCHEM_BONDANNOTATIONS>
13  15  8
13  16  8
15  18  8
16  19  8
17  20  8
17  23  8
18  21  8
19  21  8
20  24  8
23  26  8
24  27  8
26  27  8
5  14  8
5  17  8
6  14  8
6  20  8

$$$$
