24824061
  -OEChem-09292322262D

 41 44  0     0  0  0  0  0  0999 V2000
    7.7619   -3.5311    0.0000 Br  0  0  0  0  0  0  0  0  0  0  0  0
    6.7619    1.6651    0.0000 N   0  0  0  0  0  0  0  0  0  0  0  0
    7.7619   -0.0670    0.0000 N   0  0  0  0  0  0  0  0  0  0  0  0
    3.7320    2.0311    0.0000 N   0  0  0  0  0  0  0  0  0  0  0  0
    4.6783    1.7264    0.0000 N   0  0  0  0  0  0  0  0  0  0  0  0
    7.7619   -1.7990    0.0000 N   0  0  0  0  0  0  0  0  0  0  0  0
    6.2619    0.7990    0.0000 C   0  0  0  0  0  0  0  0  0  0  0  0
    7.7619    1.6651    0.0000 C   0  0  0  0  0  0  0  0  0  0  0  0
    6.7619   -0.0670    0.0000 C   0  0  0  0  0  0  0  0  0  0  0  0
    8.2619    0.7990    0.0000 C   0  0  0  0  0  0  0  0  0  0  0  0
    6.2619    2.5311    0.0000 C   0  0  0  0  0  0  0  0  0  0  0  0
    5.2619    2.5311    0.0000 C   0  0  0  0  0  0  0  0  0  0  0  0
    8.2619   -0.9330    0.0000 C   0  0  0  0  0  0  0  0  0  0  0  0
    4.6783    3.3358    0.0000 C   0  0  0  0  0  0  0  0  0  0  0  0
    3.7320    3.0311    0.0000 C   0  0  0  0  0  0  0  0  0  0  0  0
    9.2619   -0.9330    0.0000 C   0  0  0  0  0  0  0  0  0  0  0  0
    2.8660    3.5311    0.0000 C   0  0  0  0  0  0  0  0  0  0  0  0
    2.8660    1.5311    0.0000 C   0  0  0  0  0  0  0  0  0  0  0  0
    9.7619   -1.7990    0.0000 C   0  0  0  0  0  0  0  0  0  0  0  0
    8.2619   -2.6651    0.0000 C   0  0  0  0  0  0  0  0  0  0  0  0
    2.0000    3.0311    0.0000 C   0  0  0  0  0  0  0  0  0  0  0  0
    9.2619   -2.6651    0.0000 C   0  0  0  0  0  0  0  0  0  0  0  0
    2.0000    2.0311    0.0000 C   0  0  0  0  0  0  0  0  0  0  0  0
    5.7869    1.1976    0.0000 H   0  0  0  0  0  0  0  0  0  0  0  0
    5.7869    0.4005    0.0000 H   0  0  0  0  0  0  0  0  0  0  0  0
    8.3445    1.8771    0.0000 H   0  0  0  0  0  0  0  0  0  0  0  0
    7.6542    2.2756    0.0000 H   0  0  0  0  0  0  0  0  0  0  0  0
    6.1793   -0.2790    0.0000 H   0  0  0  0  0  0  0  0  0  0  0  0
    6.8695   -0.6776    0.0000 H   0  0  0  0  0  0  0  0  0  0  0  0
    8.7368    0.4005    0.0000 H   0  0  0  0  0  0  0  0  0  0  0  0
    8.7368    1.1976    0.0000 H   0  0  0  0  0  0  0  0  0  0  0  0
    6.8445    2.7431    0.0000 H   0  0  0  0  0  0  0  0  0  0  0  0
    6.1542    3.1417    0.0000 H   0  0  0  0  0  0  0  0  0  0  0  0
    4.8709    3.9251    0.0000 H   0  0  0  0  0  0  0  0  0  0  0  0
    9.5719   -0.3961    0.0000 H   0  0  0  0  0  0  0  0  0  0  0  0
    2.8660    4.1511    0.0000 H   0  0  0  0  0  0  0  0  0  0  0  0
    2.8660    0.9111    0.0000 H   0  0  0  0  0  0  0  0  0  0  0  0
   10.3819   -1.7990    0.0000 H   0  0  0  0  0  0  0  0  0  0  0  0
    1.4631    3.3411    0.0000 H   0  0  0  0  0  0  0  0  0  0  0  0
    1.4631    1.7211    0.0000 H   0  0  0  0  0  0  0  0  0  0  0  0
    9.5719   -3.2020    0.0000 H   0  0  0  0  0  0  0  0  0  0  0  0
  1 20  1  0  0  0  0
  2  7  1  0  0  0  0
  2  8  1  0  0  0  0
  2 11  1  0  0  0  0
  3  9  1  0  0  0  0
  3 10  1  0  0  0  0
  3 13  1  0  0  0  0
  4  5  1  0  0  0  0
  4 15  1  0  0  0  0
  4 18  1  0  0  0  0
  5 12  2  0  0  0  0
  6 13  2  0  0  0  0
  6 20  1  0  0  0  0
  7  9  1  0  0  0  0
  7 24  1  0  0  0  0
  7 25  1  0  0  0  0
  8 10  1  0  0  0  0
  8 26  1  0  0  0  0
  8 27  1  0  0  0  0
  9 28  1  0  0  0  0
  9 29  1  0  0  0  0
 10 30  1  0  0  0  0
 10 31  1  0  0  0  0
 11 12  1  0  0  0  0
 11 32  1  0  0  0  0
 11 33  1  0  0  0  0
 12 14  1  0  0  0  0
 13 16  1  0  0  0  0
 14 15  2  0  0  0  0
 14 34  1  0  0  0  0
 15 17  1  0  0  0  0
 16 19  2  0  0  0  0
 16 35  1  0  0  0  0
 17 21  2  0  0  0  0
 17 36  1  0  0  0  0
 18 23  2  0  0  0  0
 18 37  1  0  0  0  0
 19 22  1  0  0  0  0
 19 38  1  0  0  0  0
 20 22  2  0  0  0  0
 21 23  1  0  0  0  0
 21 39  1  0  0  0  0
 22 41  1  0  0  0  0
 23 40  1  0  0  0  0
M  END
> <PUBCHEM_COMPOUND_CID>
24824061

> <PUBCHEM_COMPOUND_CANONICALIZED>
1

> <PUBCHEM_CACTVS_COMPLEXITY>
387

> <PUBCHEM_CACTVS_HBOND_ACCEPTOR>
4

> <PUBCHEM_CACTVS_HBOND_DONOR>
0

> <PUBCHEM_CACTVS_ROTATABLE_BOND>
3

> <PUBCHEM_CACTVS_SUBSKEYS>
AAADceB7gAAAEAAAAAAAAAAAAAAAAWAAAAAsWLAAAAAAAFgB+AAAHABIAAABOAjBFgQ98LMIEACiATZnZACShCkxgiQZ2CA4ZLiIYOLA2dGUpAhoiALIyjcQgIAAAAAAAAAAAAAAAAAAAAAAAAAAAAAAAA==

> <PUBCHEM_IUPAC_OPENEYE_NAME>
2-[[4-(6-bromo-2-pyridyl)piperazin-1-yl]methyl]pyrazolo[1,5-a]pyridine

> <PUBCHEM_IUPAC_CAS_NAME>
2-[[4-(6-bromo-2-pyridinyl)-1-piperazinyl]methyl]pyrazolo[1,5-a]pyridine

> <PUBCHEM_IUPAC_NAME_MARKUP>
2-[[4-(6-bromopyridin-2-yl)piperazin-1-yl]methyl]pyrazolo[1,5-a]pyridine

> <PUBCHEM_IUPAC_NAME>
2-[[4-(6-bromopyridin-2-yl)piperazin-1-yl]methyl]pyrazolo[1,5-a]pyridine

> <PUBCHEM_IUPAC_SYSTEMATIC_NAME>
2-[[4-(6-bromanylpyridin-2-yl)piperazin-1-yl]methyl]pyrazolo[1,5-a]pyridine

> <PUBCHEM_IUPAC_TRADITIONAL_NAME>
2-[[4-(6-bromo-2-pyridyl)piperazino]methyl]pyrazolo[1,5-a]pyridine

> <PUBCHEM_IUPAC_INCHI>
InChI=1S/C17H18BrN5/c18-16-5-3-6-17(19-16)22-10-8-21(9-11-22)13-14-12-15-4-1-2-7-23(15)20-14/h1-7,12H,8-11,13H2

> <PUBCHEM_IUPAC_INCHIKEY>
ODVSDFIRQLJCEU-UHFFFAOYSA-N

> <PUBCHEM_XLOGP3_AA>
2.8

> <PUBCHEM_EXACT_MASS>
371.07456

> <PUBCHEM_MOLECULAR_FORMULA>
C17H18BrN5

> <PUBCHEM_MOLECULAR_WEIGHT>
372.3

> <PUBCHEM_OPENEYE_CAN_SMILES>
C1CN(CCN1CC2=NN3C=CC=CC3=C2)C4=NC(=CC=C4)Br

> <PUBCHEM_OPENEYE_ISO_SMILES>
C1CN(CCN1CC2=NN3C=CC=CC3=C2)C4=NC(=CC=C4)Br

> <PUBCHEM_CACTVS_TPSA>
36.7

> <PUBCHEM_MONOISOTOPIC_WEIGHT>
371.07456

> <PUBCHEM_TOTAL_CHARGE>
0

> <PUBCHEM_HEAVY_ATOM_COUNT>
23

> <PUBCHEM_ATOM_DEF_STEREO_COUNT>
0

> <PUBCHEM_ATOM_UDEF_STEREO_COUNT>
0

> <PUBCHEM_BOND_DEF_STEREO_COUNT>
0

> <PUBCHEM_BOND_UDEF_STEREO_COUNT>
0

> <PUBCHEM_ISOTOPIC_ATOM_COUNT>
0

> <PUBCHEM_COMPONENT_COUNT>
1

> <PUBCHEM_CACTVS_TAUTO_COUNT>
-1

> <PUBCHEM_COORDINATE_TYPE>
1
5
255

> <PUBCHEM_BONDANNOTATIONS>
12  14  8
13  16  8
14  15  8
15  17  8
16  19  8
17  21  8
18  23  8
19  22  8
20  22  8
21  23  8
4  15  8
4  18  8
4  5  8
5  12  8
6  13  8
6  20  8

$$$$
