11552027
  -OEChem-09292322272D

 49 53  0     0  0  0  0  0  0999 V2000
    6.8172    2.6429    0.0000 O   0  0  0  0  0  0  0  0  0  0  0  0
    6.8172    4.7122    0.0000 O   0  0  0  0  0  0  0  0  0  0  0  0
    5.0573   -0.3224    0.0000 N   0  0  0  0  0  0  0  0  0  0  0  0
    5.0573    1.6776    0.0000 N   0  0  0  0  0  0  0  0  0  0  0  0
    2.6164   -2.1544    0.0000 N   0  0  0  0  0  0  0  0  0  0  0  0
    5.9233    0.1776    0.0000 C   0  0  0  0  0  0  0  0  0  0  0  0
    4.1912    0.1776    0.0000 C   0  0  0  0  0  0  0  0  0  0  0  0
    5.9233    1.1776    0.0000 C   0  0  0  0  0  0  0  0  0  0  0  0
    4.1912    1.1776    0.0000 C   0  0  0  0  0  0  0  0  0  0  0  0
    5.0573   -1.3224    0.0000 C   0  0  0  0  0  0  0  0  0  0  0  0
    5.0573    2.6776    0.0000 C   0  0  0  0  0  0  0  0  0  0  0  0
    4.1912   -1.8224    0.0000 C   0  0  0  0  0  0  0  0  0  0  0  0
    5.9233    3.1776    0.0000 C   0  0  0  0  0  0  0  0  0  0  0  0
    4.0882   -2.8112    0.0000 C   0  0  0  0  0  0  0  0  0  0  0  0
    4.1912    3.1776    0.0000 C   0  0  0  0  0  0  0  0  0  0  0  0
    3.2835   -1.4173    0.0000 C   0  0  0  0  0  0  0  0  0  0  0  0
    3.1097   -3.0174    0.0000 C   0  0  0  0  0  0  0  0  0  0  0  0
    5.9233    4.1776    0.0000 C   0  0  0  0  0  0  0  0  0  0  0  0
    4.1912    4.1776    0.0000 C   0  0  0  0  0  0  0  0  0  0  0  0
    4.7560   -3.5555    0.0000 C   0  0  0  0  0  0  0  0  0  0  0  0
    5.0573    4.6776    0.0000 C   0  0  0  0  0  0  0  0  0  0  0  0
    7.7233    3.1567    0.0000 C   0  0  0  0  0  0  0  0  0  0  0  0
    7.7233    4.1984    0.0000 C   0  0  0  0  0  0  0  0  0  0  0  0
    2.7990   -3.9679    0.0000 C   0  0  0  0  0  0  0  0  0  0  0  0
    4.4454   -4.5060    0.0000 C   0  0  0  0  0  0  0  0  0  0  0  0
    3.4669   -4.7122    0.0000 C   0  0  0  0  0  0  0  0  0  0  0  0
    6.1354   -0.4051    0.0000 H   0  0  0  0  0  0  0  0  0  0  0  0
    6.5339    0.2852    0.0000 H   0  0  0  0  0  0  0  0  0  0  0  0
    3.5807    0.2852    0.0000 H   0  0  0  0  0  0  0  0  0  0  0  0
    3.9792   -0.4051    0.0000 H   0  0  0  0  0  0  0  0  0  0  0  0
    6.5339    1.0699    0.0000 H   0  0  0  0  0  0  0  0  0  0  0  0
    6.1354    1.7602    0.0000 H   0  0  0  0  0  0  0  0  0  0  0  0
    3.9792    1.7602    0.0000 H   0  0  0  0  0  0  0  0  0  0  0  0
    3.5807    1.0699    0.0000 H   0  0  0  0  0  0  0  0  0  0  0  0
    5.2693   -1.9051    0.0000 H   0  0  0  0  0  0  0  0  0  0  0  0
    5.6678   -1.2148    0.0000 H   0  0  0  0  0  0  0  0  0  0  0  0
    3.6543    2.8676    0.0000 H   0  0  0  0  0  0  0  0  0  0  0  0
    3.1556   -0.8107    0.0000 H   0  0  0  0  0  0  0  0  0  0  0  0
    2.0000   -2.0874    0.0000 H   0  0  0  0  0  0  0  0  0  0  0  0
    3.6543    4.4876    0.0000 H   0  0  0  0  0  0  0  0  0  0  0  0
    5.3627   -3.4276    0.0000 H   0  0  0  0  0  0  0  0  0  0  0  0
    5.0573    5.2976    0.0000 H   0  0  0  0  0  0  0  0  0  0  0  0
    7.9324    2.5730    0.0000 H   0  0  0  0  0  0  0  0  0  0  0  0
    8.3342    3.2628    0.0000 H   0  0  0  0  0  0  0  0  0  0  0  0
    8.3342    4.0923    0.0000 H   0  0  0  0  0  0  0  0  0  0  0  0
    7.9324    4.7821    0.0000 H   0  0  0  0  0  0  0  0  0  0  0  0
    2.1923   -4.0958    0.0000 H   0  0  0  0  0  0  0  0  0  0  0  0
    4.8594   -4.9675    0.0000 H   0  0  0  0  0  0  0  0  0  0  0  0
    3.2743   -5.3015    0.0000 H   0  0  0  0  0  0  0  0  0  0  0  0
  1 13  1  0  0  0  0
  1 22  1  0  0  0  0
  2 18  1  0  0  0  0
  2 23  1  0  0  0  0
  3  6  1  0  0  0  0
  3  7  1  0  0  0  0
  3 10  1  0  0  0  0
  4  8  1  0  0  0  0
  4  9  1  0  0  0  0
  4 11  1  0  0  0  0
  5 16  1  0  0  0  0
  5 17  1  0  0  0  0
  5 39  1  0  0  0  0
  6  8  1  0  0  0  0
  6 27  1  0  0  0  0
  6 28  1  0  0  0  0
  7  9  1  0  0  0  0
  7 29  1  0  0  0  0
  7 30  1  0  0  0  0
  8 31  1  0  0  0  0
  8 32  1  0  0  0  0
  9 33  1  0  0  0  0
  9 34  1  0  0  0  0
 10 12  1  0  0  0  0
 10 35  1  0  0  0  0
 10 36  1  0  0  0  0
 11 13  2  0  0  0  0
 11 15  1  0  0  0  0
 12 14  1  0  0  0  0
 12 16  2  0  0  0  0
 13 18  1  0  0  0  0
 14 17  1  0  0  0  0
 14 20  2  0  0  0  0
 15 19  2  0  0  0  0
 15 37  1  0  0  0  0
 16 38  1  0  0  0  0
 17 24  2  0  0  0  0
 18 21  2  0  0  0  0
 19 21  1  0  0  0  0
 19 40  1  0  0  0  0
 20 25  1  0  0  0  0
 20 41  1  0  0  0  0
 21 42  1  0  0  0  0
 22 23  1  0  0  0  0
 22 43  1  0  0  0  0
 22 44  1  0  0  0  0
 23 45  1  0  0  0  0
 23 46  1  0  0  0  0
 24 26  1  0  0  0  0
 24 47  1  0  0  0  0
 25 26  2  0  0  0  0
 25 48  1  0  0  0  0
 26 49  1  0  0  0  0
M  END
> <PUBCHEM_COMPOUND_CID>
11552027

> <PUBCHEM_COMPOUND_CANONICALIZED>
1

> <PUBCHEM_CACTVS_COMPLEXITY>
468

> <PUBCHEM_CACTVS_HBOND_ACCEPTOR>
4

> <PUBCHEM_CACTVS_HBOND_DONOR>
1

> <PUBCHEM_CACTVS_ROTATABLE_BOND>
3

> <PUBCHEM_CACTVS_SUBSKEYS>
AAADceB7MAAAAAAAAAAAAAAAAAAAAWAAAAA8aIEAAAAAAFiR9AAAHgAQAAAADAzhngY8xvPJlACgAzRnRACCiCAxIiAI2aA/7JgPZuLE8ZuXOCrm0Bna6AeQ0MMOgAAAAgACUAAAAAAEAASgAAAAAAAAAA==

> <PUBCHEM_IUPAC_OPENEYE_NAME>
3-[[4-(2,3-dihydro-1,4-benzodioxin-5-yl)piperazin-1-yl]methyl]-1H-indole

> <PUBCHEM_IUPAC_CAS_NAME>
3-[[4-(2,3-dihydro-1,4-benzodioxin-5-yl)-1-piperazinyl]methyl]-1H-indole

> <PUBCHEM_IUPAC_NAME_MARKUP>
3-[[4-(2,3-dihydro-1,4-benzodioxin-5-yl)piperazin-1-yl]methyl]-1<I>H</I>-indole

> <PUBCHEM_IUPAC_NAME>
3-[[4-(2,3-dihydro-1,4-benzodioxin-5-yl)piperazin-1-yl]methyl]-1H-indole

> <PUBCHEM_IUPAC_SYSTEMATIC_NAME>
3-[[4-(2,3-dihydro-1,4-benzodioxin-5-yl)piperazin-1-yl]methyl]-1H-indole

> <PUBCHEM_IUPAC_TRADITIONAL_NAME>
3-[[4-(2,3-dihydro-1,4-benzodioxin-5-yl)piperazino]methyl]-1H-indole

> <PUBCHEM_IUPAC_INCHI>
InChI=1S/C21H23N3O2/c1-2-5-18-17(4-1)16(14-22-18)15-23-8-10-24(11-9-23)19-6-3-7-20-21(19)26-13-12-25-20/h1-7,14,22H,8-13,15H2

> <PUBCHEM_IUPAC_INCHIKEY>
UVQHGCKWFYZHSI-UHFFFAOYSA-N

> <PUBCHEM_XLOGP3_AA>
3.2

> <PUBCHEM_EXACT_MASS>
349.17902698

> <PUBCHEM_MOLECULAR_FORMULA>
C21H23N3O2

> <PUBCHEM_MOLECULAR_WEIGHT>
349.4

> <PUBCHEM_OPENEYE_CAN_SMILES>
C1CN(CCN1CC2=CNC3=CC=CC=C32)C4=C5C(=CC=C4)OCCO5

> <PUBCHEM_OPENEYE_ISO_SMILES>
C1CN(CCN1CC2=CNC3=CC=CC=C32)C4=C5C(=CC=C4)OCCO5

> <PUBCHEM_CACTVS_TPSA>
40.7

> <PUBCHEM_MONOISOTOPIC_WEIGHT>
349.17902698

> <PUBCHEM_TOTAL_CHARGE>
0

> <PUBCHEM_HEAVY_ATOM_COUNT>
26

> <PUBCHEM_ATOM_DEF_STEREO_COUNT>
0

> <PUBCHEM_ATOM_UDEF_STEREO_COUNT>
0

> <PUBCHEM_BOND_DEF_STEREO_COUNT>
0

> <PUBCHEM_BOND_UDEF_STEREO_COUNT>
0

> <PUBCHEM_ISOTOPIC_ATOM_COUNT>
0

> <PUBCHEM_COMPONENT_COUNT>
1

> <PUBCHEM_CACTVS_TAUTO_COUNT>
-1

> <PUBCHEM_COORDINATE_TYPE>
1
5
255

> <PUBCHEM_BONDANNOTATIONS>
11  13  8
11  15  8
12  14  8
12  16  8
13  18  8
14  17  8
14  20  8
15  19  8
17  24  8
18  21  8
19  21  8
20  25  8
24  26  8
25  26  8
5  16  8
5  17  8

$$$$
