11603842
  -OEChem-09292322262D

 61 65  0     0  0  0  0  0  0999 V2000
    8.5493    4.1429    0.0000 O   0  0  0  0  0  0  0  0  0  0  0  0
    8.5493    6.2122    0.0000 O   0  0  0  0  0  0  0  0  0  0  0  0
    6.7893    1.1776    0.0000 N   0  0  0  0  0  0  0  0  0  0  0  0
    6.7893    3.1776    0.0000 N   0  0  0  0  0  0  0  0  0  0  0  0
    2.6164   -3.6544    0.0000 N   0  0  0  0  0  0  0  0  0  0  0  0
    7.6554    1.6776    0.0000 C   0  0  0  0  0  0  0  0  0  0  0  0
    5.9233    1.6776    0.0000 C   0  0  0  0  0  0  0  0  0  0  0  0
    7.6554    2.6776    0.0000 C   0  0  0  0  0  0  0  0  0  0  0  0
    5.9233    2.6776    0.0000 C   0  0  0  0  0  0  0  0  0  0  0  0
    6.7893    0.1776    0.0000 C   0  0  0  0  0  0  0  0  0  0  0  0
    5.9233   -0.3224    0.0000 C   0  0  0  0  0  0  0  0  0  0  0  0
    5.9233   -1.3224    0.0000 C   0  0  0  0  0  0  0  0  0  0  0  0
    6.7893    4.1776    0.0000 C   0  0  0  0  0  0  0  0  0  0  0  0
    5.0573   -1.8224    0.0000 C   0  0  0  0  0  0  0  0  0  0  0  0
    5.0573   -2.8224    0.0000 C   0  0  0  0  0  0  0  0  0  0  0  0
    7.6554    4.6776    0.0000 C   0  0  0  0  0  0  0  0  0  0  0  0
    5.9233    4.6776    0.0000 C   0  0  0  0  0  0  0  0  0  0  0  0
    4.1912   -3.3224    0.0000 C   0  0  0  0  0  0  0  0  0  0  0  0
    7.6554    5.6776    0.0000 C   0  0  0  0  0  0  0  0  0  0  0  0
    4.0882   -4.3112    0.0000 C   0  0  0  0  0  0  0  0  0  0  0  0
    5.9233    5.6776    0.0000 C   0  0  0  0  0  0  0  0  0  0  0  0
    3.2835   -2.9173    0.0000 C   0  0  0  0  0  0  0  0  0  0  0  0
    6.7893    6.1776    0.0000 C   0  0  0  0  0  0  0  0  0  0  0  0
    3.1097   -4.5174    0.0000 C   0  0  0  0  0  0  0  0  0  0  0  0
    9.4554    4.6567    0.0000 C   0  0  0  0  0  0  0  0  0  0  0  0
    9.4554    5.6984    0.0000 C   0  0  0  0  0  0  0  0  0  0  0  0
    4.7560   -5.0555    0.0000 C   0  0  0  0  0  0  0  0  0  0  0  0
    2.7990   -5.4679    0.0000 C   0  0  0  0  0  0  0  0  0  0  0  0
    4.4454   -6.0060    0.0000 C   0  0  0  0  0  0  0  0  0  0  0  0
    3.4669   -6.2122    0.0000 C   0  0  0  0  0  0  0  0  0  0  0  0
    7.8674    1.0949    0.0000 H   0  0  0  0  0  0  0  0  0  0  0  0
    8.2659    1.7852    0.0000 H   0  0  0  0  0  0  0  0  0  0  0  0
    5.3127    1.7852    0.0000 H   0  0  0  0  0  0  0  0  0  0  0  0
    5.7112    1.0949    0.0000 H   0  0  0  0  0  0  0  0  0  0  0  0
    8.2659    2.5699    0.0000 H   0  0  0  0  0  0  0  0  0  0  0  0
    7.8674    3.2602    0.0000 H   0  0  0  0  0  0  0  0  0  0  0  0
    5.7112    3.2602    0.0000 H   0  0  0  0  0  0  0  0  0  0  0  0
    5.3127    2.5699    0.0000 H   0  0  0  0  0  0  0  0  0  0  0  0
    7.0014   -0.4051    0.0000 H   0  0  0  0  0  0  0  0  0  0  0  0
    7.3999    0.2852    0.0000 H   0  0  0  0  0  0  0  0  0  0  0  0
    5.7112    0.2602    0.0000 H   0  0  0  0  0  0  0  0  0  0  0  0
    5.3127   -0.4301    0.0000 H   0  0  0  0  0  0  0  0  0  0  0  0
    6.1354   -1.9051    0.0000 H   0  0  0  0  0  0  0  0  0  0  0  0
    6.5339   -1.2148    0.0000 H   0  0  0  0  0  0  0  0  0  0  0  0
    4.8452   -1.2398    0.0000 H   0  0  0  0  0  0  0  0  0  0  0  0
    4.4467   -1.9301    0.0000 H   0  0  0  0  0  0  0  0  0  0  0  0
    5.2693   -3.4051    0.0000 H   0  0  0  0  0  0  0  0  0  0  0  0
    5.6678   -2.7148    0.0000 H   0  0  0  0  0  0  0  0  0  0  0  0
    5.3864    4.3675    0.0000 H   0  0  0  0  0  0  0  0  0  0  0  0
    5.3864    5.9876    0.0000 H   0  0  0  0  0  0  0  0  0  0  0  0
    3.1556   -2.3107    0.0000 H   0  0  0  0  0  0  0  0  0  0  0  0
    6.7893    6.7976    0.0000 H   0  0  0  0  0  0  0  0  0  0  0  0
    9.6644    4.0730    0.0000 H   0  0  0  0  0  0  0  0  0  0  0  0
   10.0662    4.7628    0.0000 H   0  0  0  0  0  0  0  0  0  0  0  0
   10.0662    5.5923    0.0000 H   0  0  0  0  0  0  0  0  0  0  0  0
    9.6644    6.2821    0.0000 H   0  0  0  0  0  0  0  0  0  0  0  0
    2.0000   -3.5874    0.0000 H   0  0  0  0  0  0  0  0  0  0  0  0
    5.3627   -4.9276    0.0000 H   0  0  0  0  0  0  0  0  0  0  0  0
    2.1923   -5.5958    0.0000 H   0  0  0  0  0  0  0  0  0  0  0  0
    4.8594   -6.4675    0.0000 H   0  0  0  0  0  0  0  0  0  0  0  0
    3.2743   -6.8015    0.0000 H   0  0  0  0  0  0  0  0  0  0  0  0
  1 16  1  0  0  0  0
  1 25  1  0  0  0  0
  2 19  1  0  0  0  0
  2 26  1  0  0  0  0
  3  6  1  0  0  0  0
  3  7  1  0  0  0  0
  3 10  1  0  0  0  0
  4  8  1  0  0  0  0
  4  9  1  0  0  0  0
  4 13  1  0  0  0  0
  5 22  1  0  0  0  0
  5 24  1  0  0  0  0
  5 57  1  0  0  0  0
  6  8  1  0  0  0  0
  6 31  1  0  0  0  0
  6 32  1  0  0  0  0
  7  9  1  0  0  0  0
  7 33  1  0  0  0  0
  7 34  1  0  0  0  0
  8 35  1  0  0  0  0
  8 36  1  0  0  0  0
  9 37  1  0  0  0  0
  9 38  1  0  0  0  0
 10 11  1  0  0  0  0
 10 39  1  0  0  0  0
 10 40  1  0  0  0  0
 11 12  1  0  0  0  0
 11 41  1  0  0  0  0
 11 42  1  0  0  0  0
 12 14  1  0  0  0  0
 12 43  1  0  0  0  0
 12 44  1  0  0  0  0
 13 16  2  0  0  0  0
 13 17  1  0  0  0  0
 14 15  1  0  0  0  0
 14 45  1  0  0  0  0
 14 46  1  0  0  0  0
 15 18  1  0  0  0  0
 15 47  1  0  0  0  0
 15 48  1  0  0  0  0
 16 19  1  0  0  0  0
 17 21  2  0  0  0  0
 17 49  1  0  0  0  0
 18 20  1  0  0  0  0
 18 22  2  0  0  0  0
 19 23  2  0  0  0  0
 20 24  1  0  0  0  0
 20 27  2  0  0  0  0
 21 23  1  0  0  0  0
 21 50  1  0  0  0  0
 22 51  1  0  0  0  0
 23 52  1  0  0  0  0
 24 28  2  0  0  0  0
 25 26  1  0  0  0  0
 25 53  1  0  0  0  0
 25 54  1  0  0  0  0
 26 55  1  0  0  0  0
 26 56  1  0  0  0  0
 27 29  1  0  0  0  0
 27 58  1  0  0  0  0
 28 30  1  0  0  0  0
 28 59  1  0  0  0  0
 29 30  2  0  0  0  0
 29 60  1  0  0  0  0
 30 61  1  0  0  0  0
M  END
> <PUBCHEM_COMPOUND_CID>
11603842

> <PUBCHEM_COMPOUND_CANONICALIZED>
1

> <PUBCHEM_CACTVS_COMPLEXITY>
525

> <PUBCHEM_CACTVS_HBOND_ACCEPTOR>
4

> <PUBCHEM_CACTVS_HBOND_DONOR>
1

> <PUBCHEM_CACTVS_ROTATABLE_BOND>
7

> <PUBCHEM_CACTVS_SUBSKEYS>
AAADceB7MAAAAAAAAAAAAAAAAAAAAWAAAAA8aIEAAAAAAFiR9AAAHgAQAAAADAzhngY8xvPJlACgAzRnRACCiCAxIiAI2aA/7JgPZuLEsZuXOCrm0Bna6AeQ0MMOgAAAAgACUAAAAAAEAASgAAAAAAAAAA==

> <PUBCHEM_IUPAC_OPENEYE_NAME>
3-[5-[4-(2,3-dihydro-1,4-benzodioxin-5-yl)piperazin-1-yl]pentyl]-1H-indole

> <PUBCHEM_IUPAC_CAS_NAME>
3-[5-[4-(2,3-dihydro-1,4-benzodioxin-5-yl)-1-piperazinyl]pentyl]-1H-indole

> <PUBCHEM_IUPAC_NAME_MARKUP>
3-[5-[4-(2,3-dihydro-1,4-benzodioxin-5-yl)piperazin-1-yl]pentyl]-1<I>H</I>-indole

> <PUBCHEM_IUPAC_NAME>
3-[5-[4-(2,3-dihydro-1,4-benzodioxin-5-yl)piperazin-1-yl]pentyl]-1H-indole

> <PUBCHEM_IUPAC_SYSTEMATIC_NAME>
3-[5-[4-(2,3-dihydro-1,4-benzodioxin-5-yl)piperazin-1-yl]pentyl]-1H-indole

> <PUBCHEM_IUPAC_TRADITIONAL_NAME>
3-[5-[4-(2,3-dihydro-1,4-benzodioxin-5-yl)piperazino]pentyl]-1H-indole

> <PUBCHEM_IUPAC_INCHI>
InChI=1S/C25H31N3O2/c1(2-7-20-19-26-22-9-4-3-8-21(20)22)5-12-27-13-15-28(16-14-27)23-10-6-11-24-25(23)30-18-17-29-24/h3-4,6,8-11,19,26H,1-2,5,7,12-18H2

> <PUBCHEM_IUPAC_INCHIKEY>
UIIYRSHAVQCSGP-UHFFFAOYSA-N

> <PUBCHEM_XLOGP3_AA>
4.9

> <PUBCHEM_EXACT_MASS>
405.24162724

> <PUBCHEM_MOLECULAR_FORMULA>
C25H31N3O2

> <PUBCHEM_MOLECULAR_WEIGHT>
405.5

> <PUBCHEM_OPENEYE_CAN_SMILES>
C1CN(CCN1CCCCCC2=CNC3=CC=CC=C32)C4=C5C(=CC=C4)OCCO5

> <PUBCHEM_OPENEYE_ISO_SMILES>
C1CN(CCN1CCCCCC2=CNC3=CC=CC=C32)C4=C5C(=CC=C4)OCCO5

> <PUBCHEM_CACTVS_TPSA>
40.7

> <PUBCHEM_MONOISOTOPIC_WEIGHT>
405.24162724

> <PUBCHEM_TOTAL_CHARGE>
0

> <PUBCHEM_HEAVY_ATOM_COUNT>
30

> <PUBCHEM_ATOM_DEF_STEREO_COUNT>
0

> <PUBCHEM_ATOM_UDEF_STEREO_COUNT>
0

> <PUBCHEM_BOND_DEF_STEREO_COUNT>
0

> <PUBCHEM_BOND_UDEF_STEREO_COUNT>
0

> <PUBCHEM_ISOTOPIC_ATOM_COUNT>
0

> <PUBCHEM_COMPONENT_COUNT>
1

> <PUBCHEM_CACTVS_TAUTO_COUNT>
-1

> <PUBCHEM_COORDINATE_TYPE>
1
5
255

> <PUBCHEM_BONDANNOTATIONS>
13  16  8
13  17  8
16  19  8
17  21  8
18  20  8
18  22  8
19  23  8
20  24  8
20  27  8
21  23  8
24  28  8
27  29  8
28  30  8
29  30  8
5  22  8
5  24  8

$$$$
