9849682
  -OEChem-09292322092D

 64 69  0     1  0  0  0  0  0999 V2000
    8.0197   -4.1214    0.0000 Br  0  0  0  0  0  0  0  0  0  0  0  0
    2.0231   -0.8847    0.0000 O   0  0  0  0  0  0  0  0  0  0  0  0
    4.5961    5.6252    0.0000 O   0  0  0  0  0  0  0  0  0  0  0  0
    5.5553   -0.8850    0.0000 N   0  0  3  0  0  0  0  0  0  0  0  0
    2.8834    0.6186    0.0000 N   0  0  0  0  0  0  0  0  0  0  0  0
    6.5433   -5.0751    0.0000 N   0  0  0  0  0  0  0  0  0  0  0  0
    2.8757    2.6186    0.0000 N   0  0  0  0  0  0  0  0  0  0  0  0
    3.7359    4.1219    0.0000 N   0  0  0  0  0  0  0  0  0  0  0  0
    4.6732   -2.4265    0.0000 C   0  0  2  0  0  0  0  0  0  0  0  0
    5.5392   -1.9265    0.0000 C   0  0  1  0  0  0  0  0  0  0  0  0
    3.7632   -1.9196    0.0000 C   0  0  0  0  0  0  0  0  0  0  0  0
    3.7552   -0.8780    0.0000 C   0  0  2  0  0  0  0  0  0  0  0  0
    6.4052   -2.4265    0.0000 C   0  0  0  0  0  0  0  0  0  0  0  0
    4.6572   -0.3572    0.0000 C   0  0  0  0  0  0  0  0  0  0  0  0
    4.6732   -3.4265    0.0000 C   0  0  0  0  0  0  0  0  0  0  0  0
    5.5392   -3.9265    0.0000 C   0  0  0  0  0  0  0  0  0  0  0  0
    6.4052   -3.4265    0.0000 C   0  0  0  0  0  0  0  0  0  0  0  0
    2.8872   -0.3814    0.0000 C   0  0  0  0  0  0  0  0  0  0  0  0
    6.4270   -0.3950    0.0000 C   0  0  0  0  0  0  0  0  0  0  0  0
    5.5553   -4.9680    0.0000 C   0  0  0  0  0  0  0  0  0  0  0  0
    3.7632   -3.9333    0.0000 C   0  0  0  0  0  0  0  0  0  0  0  0
    7.0232   -4.2049    0.0000 C   0  0  0  0  0  0  0  0  0  0  0  0
    3.7475    1.1219    0.0000 C   0  0  0  0  0  0  0  0  0  0  0  0
    2.0154    1.1153    0.0000 C   0  0  0  0  0  0  0  0  0  0  0  0
    4.6572   -5.4958    0.0000 C   0  0  0  0  0  0  0  0  0  0  0  0
    3.7552   -4.9749    0.0000 C   0  0  0  0  0  0  0  0  0  0  0  0
    3.7436    2.1219    0.0000 C   0  0  0  0  0  0  0  0  0  0  0  0
    2.0116    2.1152    0.0000 C   0  0  0  0  0  0  0  0  0  0  0  0
    2.8718    3.6186    0.0000 C   0  0  0  0  0  0  0  0  0  0  0  0
    2.0038    4.1152    0.0000 C   0  0  0  0  0  0  0  0  0  0  0  0
    3.7320    5.1219    0.0000 C   0  0  0  0  0  0  0  0  0  0  0  0
    4.6038    3.6253    0.0000 C   0  0  0  0  0  0  0  0  0  0  0  0
    2.0000    5.1152    0.0000 C   0  0  0  0  0  0  0  0  0  0  0  0
    2.8641    5.6186    0.0000 C   0  0  0  0  0  0  0  0  0  0  0  0
    3.9404   -2.8572    0.0000 H   0  0  0  0  0  0  0  0  0  0  0  0
    6.2786   -1.5072    0.0000 H   0  0  0  0  0  0  0  0  0  0  0  0
    3.1515   -1.8183    0.0000 H   0  0  0  0  0  0  0  0  0  0  0  0
    3.5586   -2.5049    0.0000 H   0  0  0  0  0  0  0  0  0  0  0  0
    3.7540   -0.2580    0.0000 H   0  0  0  0  0  0  0  0  0  0  0  0
    7.0158   -2.5342    0.0000 H   0  0  0  0  0  0  0  0  0  0  0  0
    6.6173   -1.8439    0.0000 H   0  0  0  0  0  0  0  0  0  0  0  0
    5.0582    0.1157    0.0000 H   0  0  0  0  0  0  0  0  0  0  0  0
    4.2599    0.1187    0.0000 H   0  0  0  0  0  0  0  0  0  0  0  0
    6.7308   -0.9355    0.0000 H   0  0  0  0  0  0  0  0  0  0  0  0
    6.9675   -0.0913    0.0000 H   0  0  0  0  0  0  0  0  0  0  0  0
    6.1233    0.1454    0.0000 H   0  0  0  0  0  0  0  0  0  0  0  0
    3.2299   -3.6172    0.0000 H   0  0  0  0  0  0  0  0  0  0  0  0
    6.8293   -5.6252    0.0000 H   0  0  0  0  0  0  0  0  0  0  0  0
    3.9618    0.5401    0.0000 H   0  0  0  0  0  0  0  0  0  0  0  0
    4.3576    1.2320    0.0000 H   0  0  0  0  0  0  0  0  0  0  0  0
    1.4044    1.2206    0.0000 H   0  0  0  0  0  0  0  0  0  0  0  0
    1.8056    0.5318    0.0000 H   0  0  0  0  0  0  0  0  0  0  0  0
    4.6596   -6.1158    0.0000 H   0  0  0  0  0  0  0  0  0  0  0  0
    3.2170   -5.2829    0.0000 H   0  0  0  0  0  0  0  0  0  0  0  0
    4.3546    2.0166    0.0000 H   0  0  0  0  0  0  0  0  0  0  0  0
    3.9534    2.7054    0.0000 H   0  0  0  0  0  0  0  0  0  0  0  0
    1.7973    2.6970    0.0000 H   0  0  0  0  0  0  0  0  0  0  0  0
    1.4014    2.0052    0.0000 H   0  0  0  0  0  0  0  0  0  0  0  0
    1.4681    3.8032    0.0000 H   0  0  0  0  0  0  0  0  0  0  0  0
    4.2959    3.0871    0.0000 H   0  0  0  0  0  0  0  0  0  0  0  0
    5.1420    3.3173    0.0000 H   0  0  0  0  0  0  0  0  0  0  0  0
    4.9118    4.1634    0.0000 H   0  0  0  0  0  0  0  0  0  0  0  0
    1.4619    5.4232    0.0000 H   0  0  0  0  0  0  0  0  0  0  0  0
    2.8617    6.2386    0.0000 H   0  0  0  0  0  0  0  0  0  0  0  0
  1 22  1  0  0  0  0
  2 18  2  0  0  0  0
  3 31  2  0  0  0  0
  4 10  1  0  0  0  0
  4 14  1  0  0  0  0
  4 19  1  0  0  0  0
  5 18  1  0  0  0  0
  5 23  1  0  0  0  0
  5 24  1  0  0  0  0
  6 20  1  0  0  0  0
  6 22  1  0  0  0  0
  6 48  1  0  0  0  0
  7 27  1  0  0  0  0
  7 28  1  0  0  0  0
  7 29  1  0  0  0  0
  8 29  1  0  0  0  0
  8 31  1  0  0  0  0
  8 32  1  0  0  0  0
  9 10  1  0  0  0  0
  9 11  1  0  0  0  0
  9 15  1  0  0  0  0
  9 35  1  6  0  0  0
 10 13  1  0  0  0  0
 10 36  1  1  0  0  0
 11 12  1  0  0  0  0
 11 37  1  0  0  0  0
 11 38  1  0  0  0  0
 12 14  1  0  0  0  0
 12 18  1  1  0  0  0
 12 39  1  0  0  0  0
 13 17  1  0  0  0  0
 13 40  1  0  0  0  0
 13 41  1  0  0  0  0
 14 42  1  0  0  0  0
 14 43  1  0  0  0  0
 15 16  2  0  0  0  0
 15 21  1  0  0  0  0
 16 17  1  0  0  0  0
 16 20  1  0  0  0  0
 17 22  2  0  0  0  0
 19 44  1  0  0  0  0
 19 45  1  0  0  0  0
 19 46  1  0  0  0  0
 20 25  2  0  0  0  0
 21 26  2  0  0  0  0
 21 47  1  0  0  0  0
 23 27  1  0  0  0  0
 23 49  1  0  0  0  0
 23 50  1  0  0  0  0
 24 28  1  0  0  0  0
 24 51  1  0  0  0  0
 24 52  1  0  0  0  0
 25 26  1  0  0  0  0
 25 53  1  0  0  0  0
 26 54  1  0  0  0  0
 27 55  1  0  0  0  0
 27 56  1  0  0  0  0
 28 57  1  0  0  0  0
 28 58  1  0  0  0  0
 29 30  2  0  0  0  0
 30 33  1  0  0  0  0
 30 59  1  0  0  0  0
 31 34  1  0  0  0  0
 32 60  1  0  0  0  0
 32 61  1  0  0  0  0
 32 62  1  0  0  0  0
 33 34  2  0  0  0  0
 33 63  1  0  0  0  0
 34 64  1  0  0  0  0
M  END
> <PUBCHEM_COMPOUND_CID>
9849682

> <PUBCHEM_COMPOUND_CANONICALIZED>
1

> <PUBCHEM_CACTVS_COMPLEXITY>
900

> <PUBCHEM_CACTVS_HBOND_ACCEPTOR>
4

> <PUBCHEM_CACTVS_HBOND_DONOR>
1

> <PUBCHEM_CACTVS_ROTATABLE_BOND>
2

> <PUBCHEM_CACTVS_SUBSKEYS>
AAADceB7sAAAEAAAAAAAAAAAAAAAAWAAAAA8eIECAAAAAFjx8AAAHgBQAAABPSjBngQzwPPJkACoAyVyVACCgCAhAiQImSE4ZPiIYPrA0ZGUIAholwLIy5cYicCegAAAQAASAACQAASAACQAAAAAAAAAAA==

> <PUBCHEM_IUPAC_OPENEYE_NAME>
6-[4-[(6aR,9R,10aR)-5-bromo-7-methyl-6,6a,8,9,10,10a-hexahydro-4H-indolo[4,3-fg]quinoline-9-carbonyl]piperazin-1-yl]-1-methyl-pyridin-2-one

> <PUBCHEM_IUPAC_CAS_NAME>
6-[4-[[(6aR,9R,10aR)-5-bromo-7-methyl-6,6a,8,9,10,10a-hexahydro-4H-indolo[4,3-fg]quinolin-9-yl]-oxomethyl]-1-piperazinyl]-1-methyl-2-pyridinone

> <PUBCHEM_IUPAC_NAME_MARKUP>
6-[4-[(6<I>a</I><I>R</I>,9<I>R</I>,10<I>a</I><I>R</I>)-5-bromo-7-methyl-6,6<I>a</I>,8,9,10,10<I>a</I>-hexahydro-4<I>H</I>-indolo[4,3-fg]quinoline-9-carbonyl]piperazin-1-yl]-1-methylpyridin-2-one

> <PUBCHEM_IUPAC_NAME>
6-[4-[(6aR,9R,10aR)-5-bromo-7-methyl-6,6a,8,9,10,10a-hexahydro-4H-indolo[4,3-fg]quinoline-9-carbonyl]piperazin-1-yl]-1-methylpyridin-2-one

> <PUBCHEM_IUPAC_SYSTEMATIC_NAME>
6-[4-[[(6aR,9R,10aR)-5-bromanyl-7-methyl-6,6a,8,9,10,10a-hexahydro-4H-indolo[4,3-fg]quinolin-9-yl]carbonyl]piperazin-1-yl]-1-methyl-pyridin-2-one

> <PUBCHEM_IUPAC_TRADITIONAL_NAME>
6-[4-[(6aR,9R,10aR)-5-bromo-7-methyl-6,6a,8,9,10,10a-hexahydro-4H-indolo[4,3-fg]quinoline-9-carbonyl]piperazino]-1-methyl-2-pyridone

> <PUBCHEM_IUPAC_INCHI>
InChI=1S/C26H30BrN5O2/c1-29-15-16(13-18-17-5-3-6-20-24(17)19(14-21(18)29)25(27)28-20)26(34)32-11-9-31(10-12-32)22-7-4-8-23(33)30(22)2/h3-8,16,18,21,28H,9-15H2,1-2H3/t16-,18-,21-/m1/s1

> <PUBCHEM_IUPAC_INCHIKEY>
AWFDCTXCTHGORH-HGHGUNKESA-N

> <PUBCHEM_XLOGP3_AA>
3.1

> <PUBCHEM_EXACT_MASS>
523.15829

> <PUBCHEM_MOLECULAR_FORMULA>
C26H30BrN5O2

> <PUBCHEM_MOLECULAR_WEIGHT>
524.5

> <PUBCHEM_OPENEYE_CAN_SMILES>
CN1CC(CC2C1CC3=C(NC4=CC=CC2=C34)Br)C(=O)N5CCN(CC5)C6=CC=CC(=O)N6C

> <PUBCHEM_OPENEYE_ISO_SMILES>
CN1C[C@@H](C[C@H]2[C@H]1CC3=C(NC4=CC=CC2=C34)Br)C(=O)N5CCN(CC5)C6=CC=CC(=O)N6C

> <PUBCHEM_CACTVS_TPSA>
62.9

> <PUBCHEM_MONOISOTOPIC_WEIGHT>
523.15829

> <PUBCHEM_TOTAL_CHARGE>
0

> <PUBCHEM_HEAVY_ATOM_COUNT>
34

> <PUBCHEM_ATOM_DEF_STEREO_COUNT>
3

> <PUBCHEM_ATOM_UDEF_STEREO_COUNT>
0

> <PUBCHEM_BOND_DEF_STEREO_COUNT>
0

> <PUBCHEM_BOND_UDEF_STEREO_COUNT>
0

> <PUBCHEM_ISOTOPIC_ATOM_COUNT>
0

> <PUBCHEM_COMPONENT_COUNT>
1

> <PUBCHEM_CACTVS_TAUTO_COUNT>
-1

> <PUBCHEM_COORDINATE_TYPE>
1
5
255

> <PUBCHEM_BONDANNOTATIONS>
10  36  5
12  18  5
15  16  8
15  21  8
16  17  8
16  20  8
17  22  8
20  25  8
21  26  8
25  26  8
29  30  8
30  33  8
31  34  8
33  34  8
6  20  8
6  22  8
8  29  8
8  31  8
9  35  6

$$$$
