46917637
  -OEChem-09292321592D

161168  0     1  0  0  0  0  0999 V2000
   11.2619    7.5915    0.0000 O   0  0  0  0  0  0  0  0  0  0  0  0
   32.1558  -10.1046    0.0000 O   0  0  0  0  0  0  0  0  0  0  0  0
   26.8539   -6.8047    0.0000 O   0  0  0  0  0  0  0  0  0  0  0  0
   28.1921   -8.2910    0.0000 O   0  0  0  0  0  0  0  0  0  0  0  0
   12.7619    3.2614    0.0000 O   0  0  0  0  0  0  0  0  0  0  0  0
   10.7619    3.2614    0.0000 O   0  0  0  0  0  0  0  0  0  0  0  0
    6.2619    9.3236    0.0000 N   0  0  3  0  0  0  0  0  0  0  0  0
    9.7619    6.7255    0.0000 N   0  0  0  0  0  0  0  0  0  0  0  0
   31.4356   -6.7162    0.0000 N   0  0  0  0  0  0  0  0  0  0  0  0
   32.7739   -8.2025    0.0000 N   0  0  0  0  0  0  0  0  0  0  0  0
   21.9502   -5.5651    0.0000 N   0  0  0  0  0  0  0  0  0  0  0  0
   16.9643    0.4467    0.0000 N   0  0  0  0  0  0  0  0  0  0  0  0
   22.1581   -6.5432    0.0000 N   0  0  0  0  0  0  0  0  0  0  0  0
   23.1526   -6.6478    0.0000 N   0  0  0  0  0  0  0  0  0  0  0  0
   16.0983   -0.0533    0.0000 N   0  0  0  0  0  0  0  0  0  0  0  0
   15.3551    0.6158    0.0000 N   0  0  0  0  0  0  0  0  0  0  0  0
    5.2619    9.3236    0.0000 C   0  0  0  0  0  0  0  0  0  0  0  0
    4.6783   10.1283    0.0000 C   0  0  0  0  0  0  0  0  0  0  0  0
    4.6783    8.5189    0.0000 C   0  0  0  0  0  0  0  0  0  0  0  0
    3.7320    9.8236    0.0000 C   0  0  0  0  0  0  0  0  0  0  0  0
    3.7320    8.8236    0.0000 C   0  0  0  0  0  0  0  0  0  0  0  0
    6.7619    8.4576    0.0000 C   0  0  0  0  0  0  0  0  0  0  0  0
    6.7619   10.1896    0.0000 C   0  0  0  0  0  0  0  0  0  0  0  0
    7.7619    8.4576    0.0000 C   0  0  0  0  0  0  0  0  0  0  0  0
    2.8660   10.3236    0.0000 C   0  0  0  0  0  0  0  0  0  0  0  0
    2.8660    8.3236    0.0000 C   0  0  0  0  0  0  0  0  0  0  0  0
    7.7619   10.1896    0.0000 C   0  0  0  0  0  0  0  0  0  0  0  0
    8.2619    7.5915    0.0000 C   0  0  0  0  0  0  0  0  0  0  0  0
    2.0000    9.8236    0.0000 C   0  0  0  0  0  0  0  0  0  0  0  0
    2.0000    8.8236    0.0000 C   0  0  0  0  0  0  0  0  0  0  0  0
    8.2619   11.0556    0.0000 C   0  0  0  0  0  0  0  0  0  0  0  0
    9.2619    7.5915    0.0000 C   0  0  0  0  0  0  0  0  0  0  0  0
   31.1266   -7.6672    0.0000 C   0  0  0  0  0  0  0  0  0  0  0  0
   32.4137   -6.5083    0.0000 C   0  0  0  0  0  0  0  0  0  0  0  0
   31.7957   -8.4104    0.0000 C   0  0  0  0  0  0  0  0  0  0  0  0
   33.0829   -7.2514    0.0000 C   0  0  0  0  0  0  0  0  0  0  0  0
   30.7665   -5.9730    0.0000 C   0  0  0  0  0  0  0  0  0  0  0  0
   10.7619    6.7255    0.0000 C   0  0  0  0  0  0  0  0  0  0  0  0
   33.4430   -8.9456    0.0000 C   0  0  0  0  0  0  0  0  0  0  0  0
   29.7883   -6.1810    0.0000 C   0  0  0  0  0  0  0  0  0  0  0  0
   33.1340   -9.8967    0.0000 C   0  0  0  0  0  0  0  0  0  0  0  0
   11.2619    5.8595    0.0000 C   0  0  0  0  0  0  0  0  0  0  0  0
   34.4211   -8.7377    0.0000 C   0  0  0  0  0  0  0  0  0  0  0  0
   29.4793   -7.1320    0.0000 C   0  0  0  0  0  0  0  0  0  0  0  0
   29.1192   -5.4378    0.0000 C   0  0  0  0  0  0  0  0  0  0  0  0
   33.8031  -10.6398    0.0000 C   0  0  0  0  0  0  0  0  0  0  0  0
   35.0903   -9.4808    0.0000 C   0  0  0  0  0  0  0  0  0  0  0  0
   28.5012   -7.3399    0.0000 C   0  0  0  0  0  0  0  0  0  0  0  0
   10.7619    4.9935    0.0000 C   0  0  0  0  0  0  0  0  0  0  0  0
   12.2619    5.8595    0.0000 C   0  0  0  0  0  0  0  0  0  0  0  0
   28.1410   -5.6457    0.0000 C   0  0  0  0  0  0  0  0  0  0  0  0
   34.7813  -10.4319    0.0000 C   0  0  0  0  0  0  0  0  0  0  0  0
   27.8320   -6.5968    0.0000 C   0  0  0  0  0  0  0  0  0  0  0  0
   19.9140   -2.7626    0.0000 C   0  0  0  0  0  0  0  0  0  0  0  0
   19.0005   -2.3558    0.0000 C   0  0  0  0  0  0  0  0  0  0  0  0
   20.0185   -3.7571    0.0000 C   0  0  0  0  0  0  0  0  0  0  0  0
   18.8959   -1.3613    0.0000 C   0  0  0  0  0  0  0  0  0  0  0  0
   20.9321   -4.1638    0.0000 C   0  0  0  0  0  0  0  0  0  0  0  0
   17.9824   -0.9546    0.0000 C   0  0  0  0  0  0  0  0  0  0  0  0
   11.2619    4.1274    0.0000 C   0  0  0  0  0  0  0  0  0  0  0  0
   12.7619    4.9935    0.0000 C   0  0  0  0  0  0  0  0  0  0  0  0
   21.0366   -5.1584    0.0000 C   0  0  0  0  0  0  0  0  0  0  0  0
   12.2619    4.1274    0.0000 C   0  0  0  0  0  0  0  0  0  0  0  0
   17.8779    0.0399    0.0000 C   0  0  0  0  0  0  0  0  0  0  0  0
   26.1847   -6.0615    0.0000 C   0  0  0  0  0  0  0  0  0  0  0  0
   31.8468  -11.0556    0.0000 C   0  0  0  0  0  0  0  0  0  0  0  0
   25.2066   -6.2694    0.0000 C   0  0  0  0  0  0  0  0  0  0  0  0
   24.5375   -5.5263    0.0000 C   0  0  0  0  0  0  0  0  0  0  0  0
   23.5593   -5.7342    0.0000 C   0  0  0  0  0  0  0  0  0  0  0  0
   22.8162   -5.0651    0.0000 C   0  0  0  0  0  0  0  0  0  0  0  0
   13.7619    3.2614    0.0000 C   0  0  0  0  0  0  0  0  0  0  0  0
   14.2619    2.3954    0.0000 C   0  0  0  0  0  0  0  0  0  0  0  0
   15.2619    2.3954    0.0000 C   0  0  0  0  0  0  0  0  0  0  0  0
   16.7564    1.4248    0.0000 C   0  0  0  0  0  0  0  0  0  0  0  0
   15.7619    1.5294    0.0000 C   0  0  0  0  0  0  0  0  0  0  0  0
   28.8613   -9.0341    0.0000 C   0  0  0  0  0  0  0  0  0  0  0  0
    9.7619    3.2614    0.0000 C   0  0  0  0  0  0  0  0  0  0  0  0
    5.5436    8.7713    0.0000 H   0  0  0  0  0  0  0  0  0  0  0  0
    5.2156   10.4375    0.0000 H   0  0  0  0  0  0  0  0  0  0  0  0
    4.4272   10.6952    0.0000 H   0  0  0  0  0  0  0  0  0  0  0  0
    4.4272    7.9520    0.0000 H   0  0  0  0  0  0  0  0  0  0  0  0
    5.2156    8.2096    0.0000 H   0  0  0  0  0  0  0  0  0  0  0  0
    6.1793    8.2455    0.0000 H   0  0  0  0  0  0  0  0  0  0  0  0
    6.8695    7.8470    0.0000 H   0  0  0  0  0  0  0  0  0  0  0  0
    6.8695   10.8002    0.0000 H   0  0  0  0  0  0  0  0  0  0  0  0
    6.1793   10.4017    0.0000 H   0  0  0  0  0  0  0  0  0  0  0  0
    8.3445    8.6696    0.0000 H   0  0  0  0  0  0  0  0  0  0  0  0
    7.6542    9.0681    0.0000 H   0  0  0  0  0  0  0  0  0  0  0  0
    2.8660   10.9436    0.0000 H   0  0  0  0  0  0  0  0  0  0  0  0
    2.8660    7.7036    0.0000 H   0  0  0  0  0  0  0  0  0  0  0  0
    7.6542    9.5790    0.0000 H   0  0  0  0  0  0  0  0  0  0  0  0
    8.3445    9.9776    0.0000 H   0  0  0  0  0  0  0  0  0  0  0  0
    7.6793    7.3795    0.0000 H   0  0  0  0  0  0  0  0  0  0  0  0
    8.3695    6.9810    0.0000 H   0  0  0  0  0  0  0  0  0  0  0  0
    1.4631   10.1336    0.0000 H   0  0  0  0  0  0  0  0  0  0  0  0
    1.4631    8.5136    0.0000 H   0  0  0  0  0  0  0  0  0  0  0  0
    8.7988   10.7456    0.0000 H   0  0  0  0  0  0  0  0  0  0  0  0
    8.5719   11.5926    0.0000 H   0  0  0  0  0  0  0  0  0  0  0  0
    7.7249   11.3656    0.0000 H   0  0  0  0  0  0  0  0  0  0  0  0
    9.8445    7.8036    0.0000 H   0  0  0  0  0  0  0  0  0  0  0  0
    9.1542    8.2021    0.0000 H   0  0  0  0  0  0  0  0  0  0  0  0
    9.4519    6.1886    0.0000 H   0  0  0  0  0  0  0  0  0  0  0  0
   30.5792   -7.3762    0.0000 H   0  0  0  0  0  0  0  0  0  0  0  0
   30.7449   -8.1558    0.0000 H   0  0  0  0  0  0  0  0  0  0  0  0
   32.9395   -6.1797    0.0000 H   0  0  0  0  0  0  0  0  0  0  0  0
   32.1815   -5.9334    0.0000 H   0  0  0  0  0  0  0  0  0  0  0  0
   31.2699   -8.7389    0.0000 H   0  0  0  0  0  0  0  0  0  0  0  0
   32.0280   -8.9852    0.0000 H   0  0  0  0  0  0  0  0  0  0  0  0
   33.6303   -7.5425    0.0000 H   0  0  0  0  0  0  0  0  0  0  0  0
   33.4646   -6.7628    0.0000 H   0  0  0  0  0  0  0  0  0  0  0  0
   31.2923   -5.6445    0.0000 H   0  0  0  0  0  0  0  0  0  0  0  0
   30.5342   -5.3982    0.0000 H   0  0  0  0  0  0  0  0  0  0  0  0
   34.6127   -8.1480    0.0000 H   0  0  0  0  0  0  0  0  0  0  0  0
   29.8942   -7.5928    0.0000 H   0  0  0  0  0  0  0  0  0  0  0  0
   29.3108   -4.8482    0.0000 H   0  0  0  0  0  0  0  0  0  0  0  0
   33.6115  -11.2295    0.0000 H   0  0  0  0  0  0  0  0  0  0  0  0
   35.6967   -9.3519    0.0000 H   0  0  0  0  0  0  0  0  0  0  0  0
   10.1419    4.9935    0.0000 H   0  0  0  0  0  0  0  0  0  0  0  0
   27.7262   -5.1850    0.0000 H   0  0  0  0  0  0  0  0  0  0  0  0
   12.5719    6.3964    0.0000 H   0  0  0  0  0  0  0  0  0  0  0  0
   35.1961  -10.8927    0.0000 H   0  0  0  0  0  0  0  0  0  0  0  0
   20.5325   -2.8058    0.0000 H   0  0  0  0  0  0  0  0  0  0  0  0
   20.0640   -2.1610    0.0000 H   0  0  0  0  0  0  0  0  0  0  0  0
   18.3820   -2.3126    0.0000 H   0  0  0  0  0  0  0  0  0  0  0  0
   18.8505   -2.9574    0.0000 H   0  0  0  0  0  0  0  0  0  0  0  0
   19.4000   -3.7138    0.0000 H   0  0  0  0  0  0  0  0  0  0  0  0
   19.8685   -4.3587    0.0000 H   0  0  0  0  0  0  0  0  0  0  0  0
   19.5144   -1.4046    0.0000 H   0  0  0  0  0  0  0  0  0  0  0  0
   19.0459   -0.7597    0.0000 H   0  0  0  0  0  0  0  0  0  0  0  0
   21.5506   -4.2071    0.0000 H   0  0  0  0  0  0  0  0  0  0  0  0
   21.0821   -3.5622    0.0000 H   0  0  0  0  0  0  0  0  0  0  0  0
   17.3639   -0.9113    0.0000 H   0  0  0  0  0  0  0  0  0  0  0  0
   17.8324   -1.5562    0.0000 H   0  0  0  0  0  0  0  0  0  0  0  0
   13.3819    4.9935    0.0000 H   0  0  0  0  0  0  0  0  0  0  0  0
   20.4181   -5.1151    0.0000 H   0  0  0  0  0  0  0  0  0  0  0  0
   20.8866   -5.7599    0.0000 H   0  0  0  0  0  0  0  0  0  0  0  0
   18.4963   -0.0033    0.0000 H   0  0  0  0  0  0  0  0  0  0  0  0
   18.0279    0.6415    0.0000 H   0  0  0  0  0  0  0  0  0  0  0  0
   26.7105   -5.7330    0.0000 H   0  0  0  0  0  0  0  0  0  0  0  0
   25.9525   -5.4867    0.0000 H   0  0  0  0  0  0  0  0  0  0  0  0
   31.2572  -10.8640    0.0000 H   0  0  0  0  0  0  0  0  0  0  0  0
   31.6552  -11.6453    0.0000 H   0  0  0  0  0  0  0  0  0  0  0  0
   32.4365  -11.2472    0.0000 H   0  0  0  0  0  0  0  0  0  0  0  0
   24.6808   -6.5980    0.0000 H   0  0  0  0  0  0  0  0  0  0  0  0
   25.4389   -6.8443    0.0000 H   0  0  0  0  0  0  0  0  0  0  0  0
   25.0633   -5.1978    0.0000 H   0  0  0  0  0  0  0  0  0  0  0  0
   24.3052   -4.9514    0.0000 H   0  0  0  0  0  0  0  0  0  0  0  0
   22.8810   -4.4485    0.0000 H   0  0  0  0  0  0  0  0  0  0  0  0
   14.3445    3.4735    0.0000 H   0  0  0  0  0  0  0  0  0  0  0  0
   13.6542    3.8720    0.0000 H   0  0  0  0  0  0  0  0  0  0  0  0
   13.6793    2.1833    0.0000 H   0  0  0  0  0  0  0  0  0  0  0  0
   14.3695    1.7848    0.0000 H   0  0  0  0  0  0  0  0  0  0  0  0
   15.8445    2.6074    0.0000 H   0  0  0  0  0  0  0  0  0  0  0  0
   15.1542    3.0060    0.0000 H   0  0  0  0  0  0  0  0  0  0  0  0
   17.1713    1.8856    0.0000 H   0  0  0  0  0  0  0  0  0  0  0  0
   28.4005   -9.4490    0.0000 H   0  0  0  0  0  0  0  0  0  0  0  0
   29.2761   -9.4949    0.0000 H   0  0  0  0  0  0  0  0  0  0  0  0
   29.3220   -8.6193    0.0000 H   0  0  0  0  0  0  0  0  0  0  0  0
    9.7619    3.8814    0.0000 H   0  0  0  0  0  0  0  0  0  0  0  0
    9.1419    3.2614    0.0000 H   0  0  0  0  0  0  0  0  0  0  0  0
    9.7619    2.6414    0.0000 H   0  0  0  0  0  0  0  0  0  0  0  0
  1 38  2  0  0  0  0
  2 41  1  0  0  0  0
  2 66  1  0  0  0  0
  3 53  1  0  0  0  0
  3 65  1  0  0  0  0
  4 48  1  0  0  0  0
  4 76  1  0  0  0  0
  5 63  1  0  0  0  0
  5 71  1  0  0  0  0
  6 60  1  0  0  0  0
  6 77  1  0  0  0  0
  7 17  1  0  0  0  0
  7 22  1  0  0  0  0
  7 23  1  0  0  0  0
  8 32  1  0  0  0  0
  8 38  1  0  0  0  0
  8102  1  0  0  0  0
  9 33  1  0  0  0  0
  9 34  1  0  0  0  0
  9 37  1  0  0  0  0
 10 35  1  0  0  0  0
 10 36  1  0  0  0  0
 10 39  1  0  0  0  0
 11 13  1  0  0  0  0
 11 62  1  0  0  0  0
 11 70  1  0  0  0  0
 12 15  1  0  0  0  0
 12 64  1  0  0  0  0
 12 74  1  0  0  0  0
 13 14  2  0  0  0  0
 14 69  1  0  0  0  0
 15 16  2  0  0  0  0
 16 75  1  0  0  0  0
 17 18  1  0  0  0  0
 17 19  1  0  0  0  0
 17 78  1  0  0  0  0
 18 20  1  0  0  0  0
 18 79  1  0  0  0  0
 18 80  1  0  0  0  0
 19 21  1  0  0  0  0
 19 81  1  0  0  0  0
 19 82  1  0  0  0  0
 20 21  1  0  0  0  0
 20 25  2  0  0  0  0
 21 26  2  0  0  0  0
 22 24  1  0  0  0  0
 22 83  1  0  0  0  0
 22 84  1  0  0  0  0
 23 27  1  0  0  0  0
 23 85  1  0  0  0  0
 23 86  1  0  0  0  0
 24 28  1  0  0  0  0
 24 87  1  0  0  0  0
 24 88  1  0  0  0  0
 25 29  1  0  0  0  0
 25 89  1  0  0  0  0
 26 30  1  0  0  0  0
 26 90  1  0  0  0  0
 27 31  1  0  0  0  0
 27 91  1  0  0  0  0
 27 92  1  0  0  0  0
 28 32  1  0  0  0  0
 28 93  1  0  0  0  0
 28 94  1  0  0  0  0
 29 30  2  0  0  0  0
 29 95  1  0  0  0  0
 30 96  1  0  0  0  0
 31 97  1  0  0  0  0
 31 98  1  0  0  0  0
 31 99  1  0  0  0  0
 32100  1  0  0  0  0
 32101  1  0  0  0  0
 33 35  1  0  0  0  0
 33103  1  0  0  0  0
 33104  1  0  0  0  0
 34 36  1  0  0  0  0
 34105  1  0  0  0  0
 34106  1  0  0  0  0
 35107  1  0  0  0  0
 35108  1  0  0  0  0
 36109  1  0  0  0  0
 36110  1  0  0  0  0
 37 40  1  0  0  0  0
 37111  1  0  0  0  0
 37112  1  0  0  0  0
 38 42  1  0  0  0  0
 39 41  1  0  0  0  0
 39 43  2  0  0  0  0
 40 44  2  0  0  0  0
 40 45  1  0  0  0  0
 41 46  2  0  0  0  0
 42 49  2  0  0  0  0
 42 50  1  0  0  0  0
 43 47  1  0  0  0  0
 43113  1  0  0  0  0
 44 48  1  0  0  0  0
 44114  1  0  0  0  0
 45 51  2  0  0  0  0
 45115  1  0  0  0  0
 46 52  1  0  0  0  0
 46116  1  0  0  0  0
 47 52  2  0  0  0  0
 47117  1  0  0  0  0
 48 53  2  0  0  0  0
 49 60  1  0  0  0  0
 49118  1  0  0  0  0
 50 61  2  0  0  0  0
 50120  1  0  0  0  0
 51 53  1  0  0  0  0
 51119  1  0  0  0  0
 52121  1  0  0  0  0
 54 55  1  0  0  0  0
 54 56  1  0  0  0  0
 54122  1  0  0  0  0
 54123  1  0  0  0  0
 55 57  1  0  0  0  0
 55124  1  0  0  0  0
 55125  1  0  0  0  0
 56 58  1  0  0  0  0
 56126  1  0  0  0  0
 56127  1  0  0  0  0
 57 59  1  0  0  0  0
 57128  1  0  0  0  0
 57129  1  0  0  0  0
 58 62  1  0  0  0  0
 58130  1  0  0  0  0
 58131  1  0  0  0  0
 59 64  1  0  0  0  0
 59132  1  0  0  0  0
 59133  1  0  0  0  0
 60 63  2  0  0  0  0
 61 63  1  0  0  0  0
 61134  1  0  0  0  0
 62135  1  0  0  0  0
 62136  1  0  0  0  0
 64137  1  0  0  0  0
 64138  1  0  0  0  0
 65 67  1  0  0  0  0
 65139  1  0  0  0  0
 65140  1  0  0  0  0
 66141  1  0  0  0  0
 66142  1  0  0  0  0
 66143  1  0  0  0  0
 67 68  1  0  0  0  0
 67144  1  0  0  0  0
 67145  1  0  0  0  0
 68 69  1  0  0  0  0
 68146  1  0  0  0  0
 68147  1  0  0  0  0
 69 70  2  0  0  0  0
 70148  1  0  0  0  0
 71 72  1  0  0  0  0
 71149  1  0  0  0  0
 71150  1  0  0  0  0
 72 73  1  0  0  0  0
 72151  1  0  0  0  0
 72152  1  0  0  0  0
 73 75  1  0  0  0  0
 73153  1  0  0  0  0
 73154  1  0  0  0  0
 74 75  2  0  0  0  0
 74155  1  0  0  0  0
 76156  1  0  0  0  0
 76157  1  0  0  0  0
 76158  1  0  0  0  0
 77159  1  0  0  0  0
 77160  1  0  0  0  0
 77161  1  0  0  0  0
M  END
> <PUBCHEM_COMPOUND_CID>
46917637

> <PUBCHEM_COMPOUND_CANONICALIZED>
1

> <PUBCHEM_CACTVS_COMPLEXITY>
1590

> <PUBCHEM_CACTVS_HBOND_ACCEPTOR>
13

> <PUBCHEM_CACTVS_HBOND_DONOR>
1

> <PUBCHEM_CACTVS_ROTATABLE_BOND>
34

> <PUBCHEM_CACTVS_SUBSKEYS>
AAADcfB/+AAAAAAAAAAAAAAAAAAAAeLEAAA8YMGCAAAAAGAB9AAAHgAYAAAADCzhngY+xpPIBACqAzV3VACCDAQ1sgAY2IE//MgPZjLEtZuXOSrk1hHa6Ye63JLOoAABAAAQUABAAAIAACCgACAACAAAAA==

> <PUBCHEM_IUPAC_OPENEYE_NAME>
N-[4-[indan-2-yl(propyl)amino]butyl]-3-methoxy-4-[3-[1-[8-[4-[3-[2-methoxy-4-[[4-(2-methoxyphenyl)piperazin-1-yl]methyl]phenoxy]propyl]triazol-1-yl]octyl]triazol-4-yl]propoxy]benzamide

> <PUBCHEM_IUPAC_CAS_NAME>
N-[4-[2,3-dihydro-1H-inden-2-yl(propyl)amino]butyl]-3-methoxy-4-[3-[1-[8-[4-[3-[2-methoxy-4-[[4-(2-methoxyphenyl)-1-piperazinyl]methyl]phenoxy]propyl]-1-triazolyl]octyl]-4-triazolyl]propoxy]benzamide

> <PUBCHEM_IUPAC_NAME_MARKUP>
<I>N</I>-[4-[2,3-dihydro-1<I>H</I>-inden-2-yl(propyl)amino]butyl]-3-methoxy-4-[3-[1-[8-[4-[3-[2-methoxy-4-[[4-(2-methoxyphenyl)piperazin-1-yl]methyl]phenoxy]propyl]triazol-1-yl]octyl]triazol-4-yl]propoxy]benzamide

> <PUBCHEM_IUPAC_NAME>
N-[4-[2,3-dihydro-1H-inden-2-yl(propyl)amino]butyl]-3-methoxy-4-[3-[1-[8-[4-[3-[2-methoxy-4-[[4-(2-methoxyphenyl)piperazin-1-yl]methyl]phenoxy]propyl]triazol-1-yl]octyl]triazol-4-yl]propoxy]benzamide

> <PUBCHEM_IUPAC_SYSTEMATIC_NAME>
N-[4-[2,3-dihydro-1H-inden-2-yl(propyl)amino]butyl]-3-methoxy-4-[3-[1-[8-[4-[3-[2-methoxy-4-[[4-(2-methoxyphenyl)piperazin-1-yl]methyl]phenoxy]propyl]-1,2,3-triazol-1-yl]octyl]-1,2,3-triazol-4-yl]propoxy]benzamide

> <PUBCHEM_IUPAC_TRADITIONAL_NAME>
N-[4-[indan-2-yl(propyl)amino]butyl]-3-methoxy-4-[3-[1-[8-[4-[3-[2-methoxy-4-[[4-(2-methoxyphenyl)piperazino]methyl]phenoxy]propyl]triazol-1-yl]octyl]triazol-4-yl]propoxy]benzamide

> <PUBCHEM_IUPAC_INCHI>
InChI=1S/C61H84N10O6/c1-5-31-68(54-42-49-20-10-11-21-50(49)43-54)32-17-14-30-62-61(72)51-27-29-58(60(44-51)75-4)77-40-19-23-53-47-71(66-64-53)34-16-9-7-6-8-15-33-70-46-52(63-65-70)22-18-39-76-57-28-26-48(41-59(57)74-3)45-67-35-37-69(38-36-67)55-24-12-13-25-56(55)73-2/h10-13,20-21,24-29,41,44,46-47,54H,5-9,14-19,22-23,30-40,42-43,45H2,1-4H3,(H,62,72)

> <PUBCHEM_IUPAC_INCHIKEY>
WMJCLJNBELMTPC-UHFFFAOYSA-N

> <PUBCHEM_XLOGP3_AA>
10.5

> <PUBCHEM_EXACT_MASS>
1052.65753044

> <PUBCHEM_MOLECULAR_FORMULA>
C61H84N10O6

> <PUBCHEM_MOLECULAR_WEIGHT>
1053.4

> <PUBCHEM_OPENEYE_CAN_SMILES>
CCCN(CCCCNC(=O)C1=CC(=C(C=C1)OCCCC2=CN(N=N2)CCCCCCCCN3C=C(N=N3)CCCOC4=C(C=C(C=C4)CN5CCN(CC5)C6=CC=CC=C6OC)OC)OC)C7CC8=CC=CC=C8C7

> <PUBCHEM_OPENEYE_ISO_SMILES>
CCCN(CCCCNC(=O)C1=CC(=C(C=C1)OCCCC2=CN(N=N2)CCCCCCCCN3C=C(N=N3)CCCOC4=C(C=C(C=C4)CN5CCN(CC5)C6=CC=CC=C6OC)OC)OC)C7CC8=CC=CC=C8C7

> <PUBCHEM_CACTVS_TPSA>
146

> <PUBCHEM_MONOISOTOPIC_WEIGHT>
1052.65753044

> <PUBCHEM_TOTAL_CHARGE>
0

> <PUBCHEM_HEAVY_ATOM_COUNT>
77

> <PUBCHEM_ATOM_DEF_STEREO_COUNT>
0

> <PUBCHEM_ATOM_UDEF_STEREO_COUNT>
0

> <PUBCHEM_BOND_DEF_STEREO_COUNT>
0

> <PUBCHEM_BOND_UDEF_STEREO_COUNT>
0

> <PUBCHEM_ISOTOPIC_ATOM_COUNT>
0

> <PUBCHEM_COMPONENT_COUNT>
1

> <PUBCHEM_CACTVS_TAUTO_COUNT>
-1

> <PUBCHEM_COORDINATE_TYPE>
1
5
255

> <PUBCHEM_BONDANNOTATIONS>
11  13  8
11  70  8
12  15  8
12  74  8
13  14  8
14  69  8
15  16  8
16  75  8
20  21  8
20  25  8
21  26  8
25  29  8
26  30  8
29  30  8
39  41  8
39  43  8
40  44  8
40  45  8
41  46  8
42  49  8
42  50  8
43  47  8
44  48  8
45  51  8
46  52  8
47  52  8
48  53  8
49  60  8
50  61  8
51  53  8
60  63  8
61  63  8
69  70  8
74  75  8

$$$$
