49798872
  -OEChem-09292322302D

 61 64  0     1  0  0  0  0  0999 V2000
    3.1472    0.4240    0.0000 S   0  0  0  0  0  0  0  0  0  0  0  0
    7.2578    1.1049    0.0000 O   0  0  0  0  0  0  0  0  0  0  0  0
    3.6152   10.6155    0.0000 O   0  0  0  0  0  0  0  0  0  0  0  0
    6.2133   10.1155    0.0000 O   0  0  0  0  0  0  0  0  0  0  0  0
    4.4813    9.1155    0.0000 O   0  0  0  0  0  0  0  0  0  0  0  0
    5.3473   11.6155    0.0000 O   0  0  0  0  0  0  0  0  0  0  0  0
    7.5669    3.6739    0.0000 N   0  0  3  0  0  0  0  0  0  0  0  0
    4.9791    2.8649    0.0000 N   0  0  0  0  0  0  0  0  0  0  0  0
    8.5179    2.3649    0.0000 N   0  0  0  0  0  0  0  0  0  0  0  0
    6.9791    2.8649    0.0000 C   0  0  0  0  0  0  0  0  0  0  0  0
    6.4791    3.7310    0.0000 C   0  0  0  0  0  0  0  0  0  0  0  0
    6.4791    1.9989    0.0000 C   0  0  0  0  0  0  0  0  0  0  0  0
    5.4791    3.7310    0.0000 C   0  0  0  0  0  0  0  0  0  0  0  0
    5.4791    1.9989    0.0000 C   0  0  0  0  0  0  0  0  0  0  0  0
    7.5669    2.0559    0.0000 C   0  0  0  0  0  0  0  0  0  0  0  0
    8.5179    3.3649    0.0000 C   0  0  0  0  0  0  0  0  0  0  0  0
    7.2578    4.6250    0.0000 C   0  0  0  0  0  0  0  0  0  0  0  0
    3.9791    2.8649    0.0000 C   0  0  0  0  0  0  0  0  0  0  0  0
    9.3269    1.7771    0.0000 C   0  0  0  0  0  0  0  0  0  0  0  0
    3.4791    1.9989    0.0000 C   0  0  0  0  0  0  0  0  0  0  0  0
    7.9270    5.3681    0.0000 C   0  0  0  0  0  0  0  0  0  0  0  0
    6.2797    4.8329    0.0000 C   0  0  0  0  0  0  0  0  0  0  0  0
    2.4904    1.8958    0.0000 C   0  0  0  0  0  0  0  0  0  0  0  0
    3.8842    1.0911    0.0000 C   0  0  0  0  0  0  0  0  0  0  0  0
    7.6180    6.3192    0.0000 C   0  0  0  0  0  0  0  0  0  0  0  0
    5.9707    5.7840    0.0000 C   0  0  0  0  0  0  0  0  0  0  0  0
    2.2841    0.9173    0.0000 C   0  0  0  0  0  0  0  0  0  0  0  0
    6.6398    6.5271    0.0000 C   0  0  0  0  0  0  0  0  0  0  0  0
    1.7461    2.5637    0.0000 C   0  0  0  0  0  0  0  0  0  0  0  0
    1.3336    0.6067    0.0000 C   0  0  0  0  0  0  0  0  0  0  0  0
    0.7955    2.2530    0.0000 C   0  0  0  0  0  0  0  0  0  0  0  0
    0.5893    1.2745    0.0000 C   0  0  0  0  0  0  0  0  0  0  0  0
    4.4813   10.1155    0.0000 C   0  0  0  0  0  0  0  0  0  0  0  0
    5.3473   10.6155    0.0000 C   0  0  0  0  0  0  0  0  0  0  0  0
    7.0617    3.9430    0.0000 H   0  0  0  0  0  0  0  0  0  0  0  0
    6.3714    4.3415    0.0000 H   0  0  0  0  0  0  0  0  0  0  0  0
    6.3714    1.3883    0.0000 H   0  0  0  0  0  0  0  0  0  0  0  0
    7.0617    1.7868    0.0000 H   0  0  0  0  0  0  0  0  0  0  0  0
    5.5868    4.3415    0.0000 H   0  0  0  0  0  0  0  0  0  0  0  0
    4.8965    3.9430    0.0000 H   0  0  0  0  0  0  0  0  0  0  0  0
    4.8965    1.7868    0.0000 H   0  0  0  0  0  0  0  0  0  0  0  0
    5.5868    1.3883    0.0000 H   0  0  0  0  0  0  0  0  0  0  0  0
    9.1345    3.3001    0.0000 H   0  0  0  0  0  0  0  0  0  0  0  0
    8.6468    3.9714    0.0000 H   0  0  0  0  0  0  0  0  0  0  0  0
    4.0868    3.4755    0.0000 H   0  0  0  0  0  0  0  0  0  0  0  0
    3.3965    3.0770    0.0000 H   0  0  0  0  0  0  0  0  0  0  0  0
    8.9625    1.2756    0.0000 H   0  0  0  0  0  0  0  0  0  0  0  0
    9.8285    1.4127    0.0000 H   0  0  0  0  0  0  0  0  0  0  0  0
    9.6914    2.2787    0.0000 H   0  0  0  0  0  0  0  0  0  0  0  0
    8.5334    5.2392    0.0000 H   0  0  0  0  0  0  0  0  0  0  0  0
    5.8648    4.3722    0.0000 H   0  0  0  0  0  0  0  0  0  0  0  0
    4.4909    0.9633    0.0000 H   0  0  0  0  0  0  0  0  0  0  0  0
    8.0328    6.7800    0.0000 H   0  0  0  0  0  0  0  0  0  0  0  0
    5.3642    5.9129    0.0000 H   0  0  0  0  0  0  0  0  0  0  0  0
    6.4482    7.1168    0.0000 H   0  0  0  0  0  0  0  0  0  0  0  0
    1.8739    3.1704    0.0000 H   0  0  0  0  0  0  0  0  0  0  0  0
    1.2058    0.0000    0.0000 H   0  0  0  0  0  0  0  0  0  0  0  0
    0.3341    2.6671    0.0000 H   0  0  0  0  0  0  0  0  0  0  0  0
    0.0000    1.0819    0.0000 H   0  0  0  0  0  0  0  0  0  0  0  0
    3.0783   10.3055    0.0000 H   0  0  0  0  0  0  0  0  0  0  0  0
    6.7502   10.4255    0.0000 H   0  0  0  0  0  0  0  0  0  0  0  0
  1 24  1  0  0  0  0
  1 27  1  0  0  0  0
  2 15  2  0  0  0  0
  3 33  1  0  0  0  0
  3 60  1  0  0  0  0
  4 34  1  0  0  0  0
  4 61  1  0  0  0  0
  5 33  2  0  0  0  0
  6 34  2  0  0  0  0
  7 10  1  0  0  0  0
  7 16  1  0  0  0  0
  7 17  1  0  0  0  0
  8 13  1  0  0  0  0
  8 14  1  0  0  0  0
  8 18  1  0  0  0  0
  9 15  1  0  0  0  0
  9 16  1  0  0  0  0
  9 19  1  0  0  0  0
 10 11  1  0  0  0  0
 10 12  1  0  0  0  0
 10 15  1  0  0  0  0
 11 13  1  0  0  0  0
 11 35  1  0  0  0  0
 11 36  1  0  0  0  0
 12 14  1  0  0  0  0
 12 37  1  0  0  0  0
 12 38  1  0  0  0  0
 13 39  1  0  0  0  0
 13 40  1  0  0  0  0
 14 41  1  0  0  0  0
 14 42  1  0  0  0  0
 16 43  1  0  0  0  0
 16 44  1  0  0  0  0
 17 21  2  0  0  0  0
 17 22  1  0  0  0  0
 18 20  1  0  0  0  0
 18 45  1  0  0  0  0
 18 46  1  0  0  0  0
 19 47  1  0  0  0  0
 19 48  1  0  0  0  0
 19 49  1  0  0  0  0
 20 23  1  0  0  0  0
 20 24  2  0  0  0  0
 21 25  1  0  0  0  0
 21 50  1  0  0  0  0
 22 26  2  0  0  0  0
 22 51  1  0  0  0  0
 23 27  1  0  0  0  0
 23 29  2  0  0  0  0
 24 52  1  0  0  0  0
 25 28  2  0  0  0  0
 25 53  1  0  0  0  0
 26 28  1  0  0  0  0
 26 54  1  0  0  0  0
 27 30  2  0  0  0  0
 28 55  1  0  0  0  0
 29 31  1  0  0  0  0
 29 56  1  0  0  0  0
 30 32  1  0  0  0  0
 30 57  1  0  0  0  0
 31 32  2  0  0  0  0
 31 58  1  0  0  0  0
 32 59  1  0  0  0  0
 33 34  1  0  0  0  0
M  END
> <PUBCHEM_COMPOUND_CID>
49798872

> <PUBCHEM_COMPOUND_CANONICALIZED>
1

> <PUBCHEM_CACTVS_COMPLEXITY>
642

> <PUBCHEM_CACTVS_HBOND_ACCEPTOR>
8

> <PUBCHEM_CACTVS_HBOND_DONOR>
2

> <PUBCHEM_CACTVS_ROTATABLE_BOND>
4

> <PUBCHEM_CACTVS_SUBSKEYS>
AAADceB7OABAAAAAAAAAAAAAAAAAAWJAAAA8YIAAAAAAAEgB9AAAHgQACAAADIjF2ASzycMAAgiMAiXSWAKDAIAhChBIiBnIZIiJYDLg0bGUIAhogwLpyCcUgMAOgAAAAAAEAAAAAAAAAAgAAAAAAAAAAA==

> <PUBCHEM_IUPAC_OPENEYE_NAME>
8-(benzothiophen-3-ylmethyl)-3-methyl-1-phenyl-1,3,8-triazaspiro[4.5]decan-4-one;oxalic acid

> <PUBCHEM_IUPAC_CAS_NAME>
8-(1-benzothiophen-3-ylmethyl)-3-methyl-1-phenyl-1,3,8-triazaspiro[4.5]decan-4-one;oxalic acid

> <PUBCHEM_IUPAC_NAME_MARKUP>
8-(1-benzothiophen-3-ylmethyl)-3-methyl-1-phenyl-1,3,8-triazaspiro[4.5]decan-4-one;oxalic acid

> <PUBCHEM_IUPAC_NAME>
8-(1-benzothiophen-3-ylmethyl)-3-methyl-1-phenyl-1,3,8-triazaspiro[4.5]decan-4-one;oxalic acid

> <PUBCHEM_IUPAC_SYSTEMATIC_NAME>
8-(1-benzothiophen-3-ylmethyl)-3-methyl-1-phenyl-1,3,8-triazaspiro[4.5]decan-4-one;ethanedioic acid

> <PUBCHEM_IUPAC_TRADITIONAL_NAME>
8-(benzothiophen-3-ylmethyl)-3-methyl-1-phenyl-1,3,8-triazaspiro[4.5]decan-4-one;oxalic acid

> <PUBCHEM_IUPAC_INCHI>
InChI=1S/C23H25N3OS.C2H2O4/c1-24-17-26(19-7-3-2-4-8-19)23(22(24)27)11-13-25(14-12-23)15-18-16-28-21-10-6-5-9-20(18)21;3-1(4)2(5)6/h2-10,16H,11-15,17H2,1H3;(H,3,4)(H,5,6)

> <PUBCHEM_IUPAC_INCHIKEY>
ZLXQVPVJMFEOCS-UHFFFAOYSA-N

> <PUBCHEM_EXACT_MASS>
481.16714214

> <PUBCHEM_MOLECULAR_FORMULA>
C25H27N3O5S

> <PUBCHEM_MOLECULAR_WEIGHT>
481.6

> <PUBCHEM_OPENEYE_CAN_SMILES>
CN1CN(C2(C1=O)CCN(CC2)CC3=CSC4=CC=CC=C43)C5=CC=CC=C5.C(=O)(C(=O)O)O

> <PUBCHEM_OPENEYE_ISO_SMILES>
CN1CN(C2(C1=O)CCN(CC2)CC3=CSC4=CC=CC=C43)C5=CC=CC=C5.C(=O)(C(=O)O)O

> <PUBCHEM_CACTVS_TPSA>
130

> <PUBCHEM_MONOISOTOPIC_WEIGHT>
481.16714214

> <PUBCHEM_TOTAL_CHARGE>
0

> <PUBCHEM_HEAVY_ATOM_COUNT>
34

> <PUBCHEM_ATOM_DEF_STEREO_COUNT>
0

> <PUBCHEM_ATOM_UDEF_STEREO_COUNT>
0

> <PUBCHEM_BOND_DEF_STEREO_COUNT>
0

> <PUBCHEM_BOND_UDEF_STEREO_COUNT>
0

> <PUBCHEM_ISOTOPIC_ATOM_COUNT>
0

> <PUBCHEM_COMPONENT_COUNT>
2

> <PUBCHEM_CACTVS_TAUTO_COUNT>
-1

> <PUBCHEM_COORDINATE_TYPE>
1
5
255

> <PUBCHEM_BONDANNOTATIONS>
1  24  8
1  27  8
17  21  8
17  22  8
20  23  8
20  24  8
21  25  8
22  26  8
23  27  8
23  29  8
25  28  8
26  28  8
27  30  8
29  31  8
30  32  8
31  32  8

$$$$
