44340985
  -OEChem-09292322212D

 61 63  0     1  0  0  0  0  0999 V2000
    6.3301   -4.2601    0.0000 S   0  0  0  0  0  0  0  0  0  0  0  0
    2.8660   -2.2601    0.0000 O   0  0  0  0  0  0  0  0  0  0  0  0
    5.8301   -5.1261    0.0000 O   0  0  0  0  0  0  0  0  0  0  0  0
    6.8301   -3.3940    0.0000 O   0  0  0  0  0  0  0  0  0  0  0  0
    6.1318    4.8465    0.0000 O   0  0  0  0  0  0  0  0  0  0  0  0
    3.9170    2.0014    0.0000 N   0  0  3  0  0  0  0  0  0  0  0  0
    3.7891   -0.6723    0.0000 N   0  0  0  0  0  0  0  0  0  0  0  0
    3.5103    1.0878    0.0000 C   0  0  0  0  0  0  0  0  0  0  0  0
    4.0981    0.2788    0.0000 C   0  0  0  0  0  0  0  0  0  0  0  0
    3.3292    2.8104    0.0000 C   0  0  0  0  0  0  0  0  0  0  0  0
    4.5981   -1.2601    0.0000 C   0  0  0  0  0  0  0  0  0  0  0  0
    4.9116    2.1059    0.0000 C   0  0  0  0  0  0  0  0  0  0  0  0
    4.5981   -2.2601    0.0000 C   0  0  0  0  0  0  0  0  0  0  0  0
    5.0981    0.2788    0.0000 C   0  0  0  0  0  0  0  0  0  0  0  0
    5.4071   -0.6723    0.0000 C   0  0  0  0  0  0  0  0  0  0  0  0
    3.7360    3.7239    0.0000 C   0  0  0  0  0  0  0  0  0  0  0  0
    5.4641   -3.7601    0.0000 C   0  0  0  0  0  0  0  0  0  0  0  0
    5.4641   -2.7601    0.0000 C   0  0  0  0  0  0  0  0  0  0  0  0
    3.7320   -2.7601    0.0000 C   0  0  0  0  0  0  0  0  0  0  0  0
    5.3183    3.0194    0.0000 C   0  0  0  0  0  0  0  0  0  0  0  0
    7.1962   -4.7601    0.0000 C   0  0  0  0  0  0  0  0  0  0  0  0
    4.5981   -4.2601    0.0000 C   0  0  0  0  0  0  0  0  0  0  0  0
    3.7320   -3.7601    0.0000 C   0  0  0  0  0  0  0  0  0  0  0  0
    4.7305    3.8284    0.0000 C   0  0  0  0  0  0  0  0  0  0  0  0
    3.1482    4.5329    0.0000 C   0  0  0  0  0  0  0  0  0  0  0  0
    5.1372    4.7420    0.0000 C   0  0  0  0  0  0  0  0  0  0  0  0
    7.1962   -5.7601    0.0000 C   0  0  0  0  0  0  0  0  0  0  0  0
    3.5549    5.4465    0.0000 C   0  0  0  0  0  0  0  0  0  0  0  0
    4.5494    5.5510    0.0000 C   0  0  0  0  0  0  0  0  0  0  0  0
    2.0000   -2.7601    0.0000 C   0  0  0  0  0  0  0  0  0  0  0  0
    6.5385    5.7601    0.0000 C   0  0  0  0  0  0  0  0  0  0  0  0
    2.9963    1.4345    0.0000 H   0  0  0  0  0  0  0  0  0  0  0  0
    3.0796    0.6418    0.0000 H   0  0  0  0  0  0  0  0  0  0  0  0
    2.8152    3.1571    0.0000 H   0  0  0  0  0  0  0  0  0  0  0  0
    2.8986    2.3644    0.0000 H   0  0  0  0  0  0  0  0  0  0  0  0
    4.8683    1.4874    0.0000 H   0  0  0  0  0  0  0  0  0  0  0  0
    5.5131    1.9559    0.0000 H   0  0  0  0  0  0  0  0  0  0  0  0
    3.1994   -0.8639    0.0000 H   0  0  0  0  0  0  0  0  0  0  0  0
    5.4625    0.7804    0.0000 H   0  0  0  0  0  0  0  0  0  0  0  0
    5.9967   -0.8639    0.0000 H   0  0  0  0  0  0  0  0  0  0  0  0
    6.0010   -2.4501    0.0000 H   0  0  0  0  0  0  0  0  0  0  0  0
    5.8847    2.7672    0.0000 H   0  0  0  0  0  0  0  0  0  0  0  0
    5.5705    3.5858    0.0000 H   0  0  0  0  0  0  0  0  0  0  0  0
    4.7519    3.2716    0.0000 H   0  0  0  0  0  0  0  0  0  0  0  0
    7.8067   -4.8677    0.0000 H   0  0  0  0  0  0  0  0  0  0  0  0
    7.4082   -4.1774    0.0000 H   0  0  0  0  0  0  0  0  0  0  0  0
    4.5981   -4.8801    0.0000 H   0  0  0  0  0  0  0  0  0  0  0  0
    3.1951   -4.0701    0.0000 H   0  0  0  0  0  0  0  0  0  0  0  0
    5.0949    3.3268    0.0000 H   0  0  0  0  0  0  0  0  0  0  0  0
    2.5316    4.4681    0.0000 H   0  0  0  0  0  0  0  0  0  0  0  0
    6.5762   -5.7601    0.0000 H   0  0  0  0  0  0  0  0  0  0  0  0
    7.1962   -6.3801    0.0000 H   0  0  0  0  0  0  0  0  0  0  0  0
    7.8162   -5.7601    0.0000 H   0  0  0  0  0  0  0  0  0  0  0  0
    3.1905    5.9481    0.0000 H   0  0  0  0  0  0  0  0  0  0  0  0
    4.8016    6.1174    0.0000 H   0  0  0  0  0  0  0  0  0  0  0  0
    1.6900   -2.2231    0.0000 H   0  0  0  0  0  0  0  0  0  0  0  0
    1.4631   -3.0701    0.0000 H   0  0  0  0  0  0  0  0  0  0  0  0
    2.3100   -3.2970    0.0000 H   0  0  0  0  0  0  0  0  0  0  0  0
    7.1049    5.5079    0.0000 H   0  0  0  0  0  0  0  0  0  0  0  0
    6.7907    6.3265    0.0000 H   0  0  0  0  0  0  0  0  0  0  0  0
    5.9721    6.0122    0.0000 H   0  0  0  0  0  0  0  0  0  0  0  0
  1  3  2  0  0  0  0
  1  4  2  0  0  0  0
  1 17  1  0  0  0  0
  1 21  1  0  0  0  0
  2 19  1  0  0  0  0
  2 30  1  0  0  0  0
  5 26  1  0  0  0  0
  5 31  1  0  0  0  0
  6  8  1  0  0  0  0
  6 10  1  0  0  0  0
  6 12  1  0  0  0  0
  7  9  1  0  0  0  0
  7 11  1  0  0  0  0
  7 38  1  0  0  0  0
  8  9  1  0  0  0  0
  8 32  1  0  0  0  0
  8 33  1  0  0  0  0
  9 14  2  0  0  0  0
 10 16  1  0  0  0  0
 10 34  1  0  0  0  0
 10 35  1  0  0  0  0
 11 13  1  0  0  0  0
 11 15  2  0  0  0  0
 12 20  1  0  0  0  0
 12 36  1  0  0  0  0
 12 37  1  0  0  0  0
 13 18  1  0  0  0  0
 13 19  2  0  0  0  0
 14 15  1  0  0  0  0
 14 39  1  0  0  0  0
 15 40  1  0  0  0  0
 16 24  2  0  0  0  0
 16 25  1  0  0  0  0
 17 18  2  0  0  0  0
 17 22  1  0  0  0  0
 18 41  1  0  0  0  0
 19 23  1  0  0  0  0
 20 42  1  0  0  0  0
 20 43  1  0  0  0  0
 20 44  1  0  0  0  0
 21 27  1  0  0  0  0
 21 45  1  0  0  0  0
 21 46  1  0  0  0  0
 22 23  2  0  0  0  0
 22 47  1  0  0  0  0
 23 48  1  0  0  0  0
 24 26  1  0  0  0  0
 24 49  1  0  0  0  0
 25 28  2  0  0  0  0
 25 50  1  0  0  0  0
 26 29  2  0  0  0  0
 27 51  1  0  0  0  0
 27 52  1  0  0  0  0
 27 53  1  0  0  0  0
 28 29  1  0  0  0  0
 28 54  1  0  0  0  0
 29 55  1  0  0  0  0
 30 56  1  0  0  0  0
 30 57  1  0  0  0  0
 30 58  1  0  0  0  0
 31 59  1  0  0  0  0
 31 60  1  0  0  0  0
 31 61  1  0  0  0  0
M  END
> <PUBCHEM_COMPOUND_CID>
44340985

> <PUBCHEM_COMPOUND_CANONICALIZED>
1

> <PUBCHEM_CACTVS_COMPLEXITY>
638

> <PUBCHEM_CACTVS_HBOND_ACCEPTOR>
5

> <PUBCHEM_CACTVS_HBOND_DONOR>
1

> <PUBCHEM_CACTVS_ROTATABLE_BOND>
10

> <PUBCHEM_CACTVS_SUBSKEYS>
AAADceB7OABAAAAAAAAAAAAAAAAAAWAAAAAwYAAAAAAAAAAB0AAAHgQQAAAADAzF3gayh5PJlAqgAyRiRHDCiCAhKjAImTg+bJgMZuLksZuUMChm0BHo6AewwPAOAIABgAAIAAABAAMAABAAAAAAAAAAAA==

> <PUBCHEM_IUPAC_OPENEYE_NAME>
N-[[5-(5-ethylsulfonyl-2-methoxy-phenyl)-1H-pyrrol-2-yl]methyl]-N-[(3-methoxyphenyl)methyl]ethanamine

> <PUBCHEM_IUPAC_CAS_NAME>
N-[[5-(5-ethylsulfonyl-2-methoxyphenyl)-1H-pyrrol-2-yl]methyl]-N-[(3-methoxyphenyl)methyl]ethanamine

> <PUBCHEM_IUPAC_NAME_MARKUP>
<I>N</I>-[[5-(5-ethylsulfonyl-2-methoxyphenyl)-1<I>H</I>-pyrrol-2-yl]methyl]-<I>N</I>-[(3-methoxyphenyl)methyl]ethanamine

> <PUBCHEM_IUPAC_NAME>
N-[[5-(5-ethylsulfonyl-2-methoxyphenyl)-1H-pyrrol-2-yl]methyl]-N-[(3-methoxyphenyl)methyl]ethanamine

> <PUBCHEM_IUPAC_SYSTEMATIC_NAME>
N-[[5-(5-ethylsulfonyl-2-methoxy-phenyl)-1H-pyrrol-2-yl]methyl]-N-[(3-methoxyphenyl)methyl]ethanamine

> <PUBCHEM_IUPAC_TRADITIONAL_NAME>
[5-(5-esyl-2-methoxy-phenyl)-1H-pyrrol-2-yl]methyl-ethyl-m-anisyl-amine

> <PUBCHEM_IUPAC_INCHI>
InChI=1S/C24H30N2O4S/c1-5-26(16-18-8-7-9-20(14-18)29-3)17-19-10-12-23(25-19)22-15-21(31(27,28)6-2)11-13-24(22)30-4/h7-15,25H,5-6,16-17H2,1-4H3

> <PUBCHEM_IUPAC_INCHIKEY>
YYHXUDXIKZMUCQ-UHFFFAOYSA-N

> <PUBCHEM_XLOGP3_AA>
3.7

> <PUBCHEM_EXACT_MASS>
442.19262862

> <PUBCHEM_MOLECULAR_FORMULA>
C24H30N2O4S

> <PUBCHEM_MOLECULAR_WEIGHT>
442.6

> <PUBCHEM_OPENEYE_CAN_SMILES>
CCN(CC1=CC(=CC=C1)OC)CC2=CC=C(N2)C3=C(C=CC(=C3)S(=O)(=O)CC)OC

> <PUBCHEM_OPENEYE_ISO_SMILES>
CCN(CC1=CC(=CC=C1)OC)CC2=CC=C(N2)C3=C(C=CC(=C3)S(=O)(=O)CC)OC

> <PUBCHEM_CACTVS_TPSA>
80

> <PUBCHEM_MONOISOTOPIC_WEIGHT>
442.19262862

> <PUBCHEM_TOTAL_CHARGE>
0

> <PUBCHEM_HEAVY_ATOM_COUNT>
31

> <PUBCHEM_ATOM_DEF_STEREO_COUNT>
0

> <PUBCHEM_ATOM_UDEF_STEREO_COUNT>
0

> <PUBCHEM_BOND_DEF_STEREO_COUNT>
0

> <PUBCHEM_BOND_UDEF_STEREO_COUNT>
0

> <PUBCHEM_ISOTOPIC_ATOM_COUNT>
0

> <PUBCHEM_COMPONENT_COUNT>
1

> <PUBCHEM_CACTVS_TAUTO_COUNT>
-1

> <PUBCHEM_COORDINATE_TYPE>
1
5
255

> <PUBCHEM_BONDANNOTATIONS>
11  15  8
13  18  8
13  19  8
14  15  8
16  24  8
16  25  8
17  18  8
17  22  8
19  23  8
22  23  8
24  26  8
25  28  8
26  29  8
28  29  8
7  11  8
7  9  8
9  14  8

$$$$
