45278882
  -OEChem-09292322042D

 69 72  0     0  0  0  0  0  0999 V2000
    2.0000   -4.7215    0.0000 Cl  0  0  0  0  0  0  0  0  0  0  0  0
    2.0000   -6.7215    0.0000 Cl  0  0  0  0  0  0  0  0  0  0  0  0
    4.5981    2.7785    0.0000 O   0  0  0  0  0  0  0  0  0  0  0  0
    3.7320   -1.7215    0.0000 N   0  0  0  0  0  0  0  0  0  0  0  0
    3.7320   -3.7215    0.0000 N   0  0  0  0  0  0  0  0  0  0  0  0
    7.9128    3.1149    0.0000 N   0  0  0  0  0  0  0  0  0  0  0  0
    5.4641    1.2785    0.0000 N   0  0  0  0  0  0  0  0  0  0  0  0
    2.8660   -2.2215    0.0000 C   0  0  0  0  0  0  0  0  0  0  0  0
    4.5981   -2.2215    0.0000 C   0  0  0  0  0  0  0  0  0  0  0  0
    2.8660   -3.2215    0.0000 C   0  0  0  0  0  0  0  0  0  0  0  0
    4.5981   -3.2215    0.0000 C   0  0  0  0  0  0  0  0  0  0  0  0
    3.7320   -0.7215    0.0000 C   0  0  0  0  0  0  0  0  0  0  0  0
    4.5981   -0.2215    0.0000 C   0  0  0  0  0  0  0  0  0  0  0  0
    3.7320   -4.7215    0.0000 C   0  0  0  0  0  0  0  0  0  0  0  0
    4.5981    0.7785    0.0000 C   0  0  0  0  0  0  0  0  0  0  0  0
    6.3301    2.7785    0.0000 C   0  0  0  0  0  0  0  0  0  0  0  0
    7.2437    2.3717    0.0000 C   0  0  0  0  0  0  0  0  0  0  0  0
    2.8660   -5.2215    0.0000 C   0  0  0  0  0  0  0  0  0  0  0  0
    4.5981   -5.2215    0.0000 C   0  0  0  0  0  0  0  0  0  0  0  0
    7.4128    3.9809    0.0000 C   0  0  0  0  0  0  0  0  0  0  0  0
    8.9073    3.0103    0.0000 C   0  0  0  0  0  0  0  0  0  0  0  0
    5.4641    2.2785    0.0000 C   0  0  0  0  0  0  0  0  0  0  0  0
    6.4347    3.7730    0.0000 C   0  0  0  0  0  0  0  0  0  0  0  0
    9.3141    2.0968    0.0000 C   0  0  0  0  0  0  0  0  0  0  0  0
    2.8660   -6.2215    0.0000 C   0  0  0  0  0  0  0  0  0  0  0  0
    4.5981   -6.2215    0.0000 C   0  0  0  0  0  0  0  0  0  0  0  0
    7.8195    4.8944    0.0000 C   0  0  0  0  0  0  0  0  0  0  0  0
    7.4516    1.3936    0.0000 C   0  0  0  0  0  0  0  0  0  0  0  0
    3.7320   -6.7215    0.0000 C   0  0  0  0  0  0  0  0  0  0  0  0
   10.3086    1.9923    0.0000 C   0  0  0  0  0  0  0  0  0  0  0  0
    7.2318    5.7035    0.0000 C   0  0  0  0  0  0  0  0  0  0  0  0
    8.8141    4.9990    0.0000 C   0  0  0  0  0  0  0  0  0  0  0  0
    7.6385    6.6170    0.0000 C   0  0  0  0  0  0  0  0  0  0  0  0
    9.2208    5.9125    0.0000 C   0  0  0  0  0  0  0  0  0  0  0  0
    8.6330    6.7215    0.0000 C   0  0  0  0  0  0  0  0  0  0  0  0
    2.6540   -1.6389    0.0000 H   0  0  0  0  0  0  0  0  0  0  0  0
    2.2554   -2.3292    0.0000 H   0  0  0  0  0  0  0  0  0  0  0  0
    5.2087   -2.3292    0.0000 H   0  0  0  0  0  0  0  0  0  0  0  0
    4.8101   -1.6389    0.0000 H   0  0  0  0  0  0  0  0  0  0  0  0
    2.2554   -3.1139    0.0000 H   0  0  0  0  0  0  0  0  0  0  0  0
    2.6540   -3.8041    0.0000 H   0  0  0  0  0  0  0  0  0  0  0  0
    4.8101   -3.8041    0.0000 H   0  0  0  0  0  0  0  0  0  0  0  0
    5.2087   -3.1139    0.0000 H   0  0  0  0  0  0  0  0  0  0  0  0
    3.5200   -0.1389    0.0000 H   0  0  0  0  0  0  0  0  0  0  0  0
    3.1215   -0.8292    0.0000 H   0  0  0  0  0  0  0  0  0  0  0  0
    4.8101   -0.8041    0.0000 H   0  0  0  0  0  0  0  0  0  0  0  0
    5.2087   -0.1139    0.0000 H   0  0  0  0  0  0  0  0  0  0  0  0
    4.3860    1.3611    0.0000 H   0  0  0  0  0  0  0  0  0  0  0  0
    3.9875    0.6708    0.0000 H   0  0  0  0  0  0  0  0  0  0  0  0
    6.0010    0.9685    0.0000 H   0  0  0  0  0  0  0  0  0  0  0  0
    5.1350   -4.9115    0.0000 H   0  0  0  0  0  0  0  0  0  0  0  0
    9.5089    3.1603    0.0000 H   0  0  0  0  0  0  0  0  0  0  0  0
    8.8641    3.6288    0.0000 H   0  0  0  0  0  0  0  0  0  0  0  0
    5.9739    4.1878    0.0000 H   0  0  0  0  0  0  0  0  0  0  0  0
    8.7125    1.9468    0.0000 H   0  0  0  0  0  0  0  0  0  0  0  0
    9.3573    1.4783    0.0000 H   0  0  0  0  0  0  0  0  0  0  0  0
    5.1350   -6.5315    0.0000 H   0  0  0  0  0  0  0  0  0  0  0  0
    6.8451    1.2647    0.0000 H   0  0  0  0  0  0  0  0  0  0  0  0
    7.5805    0.7871    0.0000 H   0  0  0  0  0  0  0  0  0  0  0  0
    8.0580    1.5225    0.0000 H   0  0  0  0  0  0  0  0  0  0  0  0
    3.7320   -7.3415    0.0000 H   0  0  0  0  0  0  0  0  0  0  0  0
   10.2438    1.3757    0.0000 H   0  0  0  0  0  0  0  0  0  0  0  0
   10.9252    1.9275    0.0000 H   0  0  0  0  0  0  0  0  0  0  0  0
   10.3734    2.6089    0.0000 H   0  0  0  0  0  0  0  0  0  0  0  0
    6.6152    5.6386    0.0000 H   0  0  0  0  0  0  0  0  0  0  0  0
    9.1785    4.4974    0.0000 H   0  0  0  0  0  0  0  0  0  0  0  0
    7.2741    7.1186    0.0000 H   0  0  0  0  0  0  0  0  0  0  0  0
    9.8374    5.9773    0.0000 H   0  0  0  0  0  0  0  0  0  0  0  0
    8.8852    7.2879    0.0000 H   0  0  0  0  0  0  0  0  0  0  0  0
  1 18  1  0  0  0  0
  2 25  1  0  0  0  0
  3 22  2  0  0  0  0
  4  8  1  0  0  0  0
  4  9  1  0  0  0  0
  4 12  1  0  0  0  0
  5 10  1  0  0  0  0
  5 11  1  0  0  0  0
  5 14  1  0  0  0  0
  6 17  1  0  0  0  0
  6 20  1  0  0  0  0
  6 21  1  0  0  0  0
  7 15  1  0  0  0  0
  7 22  1  0  0  0  0
  7 50  1  0  0  0  0
  8 10  1  0  0  0  0
  8 36  1  0  0  0  0
  8 37  1  0  0  0  0
  9 11  1  0  0  0  0
  9 38  1  0  0  0  0
  9 39  1  0  0  0  0
 10 40  1  0  0  0  0
 10 41  1  0  0  0  0
 11 42  1  0  0  0  0
 11 43  1  0  0  0  0
 12 13  1  0  0  0  0
 12 44  1  0  0  0  0
 12 45  1  0  0  0  0
 13 15  1  0  0  0  0
 13 46  1  0  0  0  0
 13 47  1  0  0  0  0
 14 18  2  0  0  0  0
 14 19  1  0  0  0  0
 15 48  1  0  0  0  0
 15 49  1  0  0  0  0
 16 17  2  0  0  0  0
 16 22  1  0  0  0  0
 16 23  1  0  0  0  0
 17 28  1  0  0  0  0
 18 25  1  0  0  0  0
 19 26  2  0  0  0  0
 19 51  1  0  0  0  0
 20 23  2  0  0  0  0
 20 27  1  0  0  0  0
 21 24  1  0  0  0  0
 21 52  1  0  0  0  0
 21 53  1  0  0  0  0
 23 54  1  0  0  0  0
 24 30  1  0  0  0  0
 24 55  1  0  0  0  0
 24 56  1  0  0  0  0
 25 29  2  0  0  0  0
 26 29  1  0  0  0  0
 26 57  1  0  0  0  0
 27 31  2  0  0  0  0
 27 32  1  0  0  0  0
 28 58  1  0  0  0  0
 28 59  1  0  0  0  0
 28 60  1  0  0  0  0
 29 61  1  0  0  0  0
 30 62  1  0  0  0  0
 30 63  1  0  0  0  0
 30 64  1  0  0  0  0
 31 33  1  0  0  0  0
 31 65  1  0  0  0  0
 32 34  2  0  0  0  0
 32 66  1  0  0  0  0
 33 35  2  0  0  0  0
 33 67  1  0  0  0  0
 34 35  1  0  0  0  0
 34 68  1  0  0  0  0
 35 69  1  0  0  0  0
M  END
> <PUBCHEM_COMPOUND_CID>
45278882

> <PUBCHEM_COMPOUND_CANONICALIZED>
1

> <PUBCHEM_CACTVS_COMPLEXITY>
653

> <PUBCHEM_CACTVS_HBOND_ACCEPTOR>
3

> <PUBCHEM_CACTVS_HBOND_DONOR>
1

> <PUBCHEM_CACTVS_ROTATABLE_BOND>
9

> <PUBCHEM_CACTVS_SUBSKEYS>
AAADcfB7oAAGAAAAAAAAAAAAAAAAAWAAAAA8YIAAAAAAAAAB0AAAHgIQAAAADArBniQywJPMEACoAyVyVACCgCAlByAI2uE4ZtgIYPrB15HUIYhglgDIyccciMCOAAAAAAIAABQAAAAABAAAKAAAAAAAAA==

> <PUBCHEM_IUPAC_OPENEYE_NAME>
N-[3-[4-(2,3-dichlorophenyl)piperazin-1-yl]propyl]-2-methyl-5-phenyl-1-propyl-pyrrole-3-carboxamide

> <PUBCHEM_IUPAC_CAS_NAME>
N-[3-[4-(2,3-dichlorophenyl)-1-piperazinyl]propyl]-2-methyl-5-phenyl-1-propyl-3-pyrrolecarboxamide

> <PUBCHEM_IUPAC_NAME_MARKUP>
<I>N</I>-[3-[4-(2,3-dichlorophenyl)piperazin-1-yl]propyl]-2-methyl-5-phenyl-1-propylpyrrole-3-carboxamide

> <PUBCHEM_IUPAC_NAME>
N-[3-[4-(2,3-dichlorophenyl)piperazin-1-yl]propyl]-2-methyl-5-phenyl-1-propylpyrrole-3-carboxamide

> <PUBCHEM_IUPAC_SYSTEMATIC_NAME>
N-[3-[4-[2,3-bis(chloranyl)phenyl]piperazin-1-yl]propyl]-2-methyl-5-phenyl-1-propyl-pyrrole-3-carboxamide

> <PUBCHEM_IUPAC_TRADITIONAL_NAME>
N-[3-[4-(2,3-dichlorophenyl)piperazino]propyl]-2-methyl-5-phenyl-1-propyl-pyrrole-3-carboxamide

> <PUBCHEM_IUPAC_INCHI>
InChI=1S/C28H34Cl2N4O/c1-3-14-34-21(2)23(20-26(34)22-9-5-4-6-10-22)28(35)31-13-8-15-32-16-18-33(19-17-32)25-12-7-11-24(29)27(25)30/h4-7,9-12,20H,3,8,13-19H2,1-2H3,(H,31,35)

> <PUBCHEM_IUPAC_INCHIKEY>
QQGJOZLAJLPARG-UHFFFAOYSA-N

> <PUBCHEM_XLOGP3_AA>
6.1

> <PUBCHEM_EXACT_MASS>
512.2109671

> <PUBCHEM_MOLECULAR_FORMULA>
C28H34Cl2N4O

> <PUBCHEM_MOLECULAR_WEIGHT>
513.5

> <PUBCHEM_OPENEYE_CAN_SMILES>
CCCN1C(=C(C=C1C2=CC=CC=C2)C(=O)NCCCN3CCN(CC3)C4=C(C(=CC=C4)Cl)Cl)C

> <PUBCHEM_OPENEYE_ISO_SMILES>
CCCN1C(=C(C=C1C2=CC=CC=C2)C(=O)NCCCN3CCN(CC3)C4=C(C(=CC=C4)Cl)Cl)C

> <PUBCHEM_CACTVS_TPSA>
40.5

> <PUBCHEM_MONOISOTOPIC_WEIGHT>
512.2109671

> <PUBCHEM_TOTAL_CHARGE>
0

> <PUBCHEM_HEAVY_ATOM_COUNT>
35

> <PUBCHEM_ATOM_DEF_STEREO_COUNT>
0

> <PUBCHEM_ATOM_UDEF_STEREO_COUNT>
0

> <PUBCHEM_BOND_DEF_STEREO_COUNT>
0

> <PUBCHEM_BOND_UDEF_STEREO_COUNT>
0

> <PUBCHEM_ISOTOPIC_ATOM_COUNT>
0

> <PUBCHEM_COMPONENT_COUNT>
1

> <PUBCHEM_CACTVS_TAUTO_COUNT>
-1

> <PUBCHEM_COORDINATE_TYPE>
1
5
255

> <PUBCHEM_BONDANNOTATIONS>
14  18  8
14  19  8
16  17  8
16  23  8
18  25  8
19  26  8
20  23  8
25  29  8
26  29  8
27  31  8
27  32  8
31  33  8
32  34  8
33  35  8
34  35  8
6  17  8
6  20  8

$$$$
