11495417
  -OEChem-09292322272D

 61 65  0     1  0  0  0  0  0999 V2000
    7.6106    2.9761    0.0000 O   0  0  0  0  0  0  0  0  0  0  0  0
    9.3426    4.9761    0.0000 O   0  0  0  0  0  0  0  0  0  0  0  0
    5.8853   -0.0583    0.0000 N   0  0  0  0  0  0  0  0  0  0  0  0
    5.8622    1.9415    0.0000 N   0  0  0  0  0  0  0  0  0  0  0  0
    7.6106    4.9761    0.0000 N   0  0  0  0  0  0  0  0  0  0  0  0
    2.6171   -3.4283    0.0000 N   0  0  0  0  0  0  0  0  0  0  0  0
    5.0135    0.4316    0.0000 C   0  0  0  0  0  0  0  0  0  0  0  0
    6.7455    0.4516    0.0000 C   0  0  0  0  0  0  0  0  0  0  0  0
    5.0020    1.4315    0.0000 C   0  0  0  0  0  0  0  0  0  0  0  0
    6.7339    1.4516    0.0000 C   0  0  0  0  0  0  0  0  0  0  0  0
    5.8968   -1.0583    0.0000 C   0  0  0  0  0  0  0  0  0  0  0  0
    5.0367   -1.5683    0.0000 C   0  0  0  0  0  0  0  0  0  0  0  0
    5.8506    2.9415    0.0000 C   0  0  0  0  0  0  0  0  0  0  0  0
    5.0482   -2.5682    0.0000 C   0  0  0  0  0  0  0  0  0  0  0  0
    6.7445    3.4761    0.0000 C   0  0  0  0  0  0  0  0  0  0  0  0
    6.7445    4.4761    0.0000 C   0  0  0  0  0  0  0  0  0  0  0  0
    4.1880   -3.0782    0.0000 C   0  0  0  0  0  0  0  0  0  0  0  0
    4.9445    3.4553    0.0000 C   0  0  0  0  0  0  0  0  0  0  0  0
    8.4766    3.4761    0.0000 C   0  0  3  0  0  0  0  0  0  0  0  0
    4.0964   -4.0680    0.0000 C   0  0  0  0  0  0  0  0  0  0  0  0
    5.8506    5.0108    0.0000 C   0  0  0  0  0  0  0  0  0  0  0  0
    4.9445    4.4969    0.0000 C   0  0  0  0  0  0  0  0  0  0  0  0
    8.4766    4.4761    0.0000 C   0  0  0  0  0  0  0  0  0  0  0  0
    3.2756   -2.6836    0.0000 C   0  0  0  0  0  0  0  0  0  0  0  0
    3.1204   -4.2855    0.0000 C   0  0  0  0  0  0  0  0  0  0  0  0
    9.3426    2.9761    0.0000 C   0  0  0  0  0  0  0  0  0  0  0  0
    7.6106    5.9761    0.0000 C   0  0  0  0  0  0  0  0  0  0  0  0
    4.7728   -4.8046    0.0000 C   0  0  0  0  0  0  0  0  0  0  0  0
    2.8207   -5.2396    0.0000 C   0  0  0  0  0  0  0  0  0  0  0  0
    4.4732   -5.7586    0.0000 C   0  0  0  0  0  0  0  0  0  0  0  0
    3.4971   -5.9761    0.0000 C   0  0  0  0  0  0  0  0  0  0  0  0
    4.4018    0.5322    0.0000 H   0  0  0  0  0  0  0  0  0  0  0  0
    4.8082   -0.1534    0.0000 H   0  0  0  0  0  0  0  0  0  0  0  0
    6.9642   -0.1285    0.0000 H   0  0  0  0  0  0  0  0  0  0  0  0
    7.3548    0.5664    0.0000 H   0  0  0  0  0  0  0  0  0  0  0  0
    4.7832    2.0117    0.0000 H   0  0  0  0  0  0  0  0  0  0  0  0
    4.3927    1.3168    0.0000 H   0  0  0  0  0  0  0  0  0  0  0  0
    7.3457    1.3510    0.0000 H   0  0  0  0  0  0  0  0  0  0  0  0
    6.9392    2.0366    0.0000 H   0  0  0  0  0  0  0  0  0  0  0  0
    6.1156   -1.6384    0.0000 H   0  0  0  0  0  0  0  0  0  0  0  0
    6.5061   -0.9436    0.0000 H   0  0  0  0  0  0  0  0  0  0  0  0
    4.8179   -0.9881    0.0000 H   0  0  0  0  0  0  0  0  0  0  0  0
    4.4274   -1.6830    0.0000 H   0  0  0  0  0  0  0  0  0  0  0  0
    5.2670   -3.1483    0.0000 H   0  0  0  0  0  0  0  0  0  0  0  0
    5.6575   -2.4535    0.0000 H   0  0  0  0  0  0  0  0  0  0  0  0
    4.4088    3.1432    0.0000 H   0  0  0  0  0  0  0  0  0  0  0  0
    8.4766    2.8561    0.0000 H   0  0  0  0  0  0  0  0  0  0  0  0
    5.8578    5.6307    0.0000 H   0  0  0  0  0  0  0  0  0  0  0  0
    4.4088    4.8090    0.0000 H   0  0  0  0  0  0  0  0  0  0  0  0
    3.1408   -2.0784    0.0000 H   0  0  0  0  0  0  0  0  0  0  0  0
    2.0000   -3.3684    0.0000 H   0  0  0  0  0  0  0  0  0  0  0  0
    9.0326    2.4392    0.0000 H   0  0  0  0  0  0  0  0  0  0  0  0
    9.8796    2.6661    0.0000 H   0  0  0  0  0  0  0  0  0  0  0  0
    9.6526    3.5130    0.0000 H   0  0  0  0  0  0  0  0  0  0  0  0
    8.2306    5.9761    0.0000 H   0  0  0  0  0  0  0  0  0  0  0  0
    7.6106    6.5961    0.0000 H   0  0  0  0  0  0  0  0  0  0  0  0
    6.9906    5.9761    0.0000 H   0  0  0  0  0  0  0  0  0  0  0  0
    5.3780   -4.6697    0.0000 H   0  0  0  0  0  0  0  0  0  0  0  0
    2.2156   -5.3745    0.0000 H   0  0  0  0  0  0  0  0  0  0  0  0
    4.8926   -6.2152    0.0000 H   0  0  0  0  0  0  0  0  0  0  0  0
    3.3113   -6.5676    0.0000 H   0  0  0  0  0  0  0  0  0  0  0  0
  1 15  1  0  0  0  0
  1 19  1  0  0  0  0
  2 23  2  0  0  0  0
  3  7  1  0  0  0  0
  3  8  1  0  0  0  0
  3 11  1  0  0  0  0
  4  9  1  0  0  0  0
  4 10  1  0  0  0  0
  4 13  1  0  0  0  0
  5 16  1  0  0  0  0
  5 23  1  0  0  0  0
  5 27  1  0  0  0  0
  6 24  1  0  0  0  0
  6 25  1  0  0  0  0
  6 51  1  0  0  0  0
  7  9  1  0  0  0  0
  7 32  1  0  0  0  0
  7 33  1  0  0  0  0
  8 10  1  0  0  0  0
  8 34  1  0  0  0  0
  8 35  1  0  0  0  0
  9 36  1  0  0  0  0
  9 37  1  0  0  0  0
 10 38  1  0  0  0  0
 10 39  1  0  0  0  0
 11 12  1  0  0  0  0
 11 40  1  0  0  0  0
 11 41  1  0  0  0  0
 12 14  1  0  0  0  0
 12 42  1  0  0  0  0
 12 43  1  0  0  0  0
 13 15  1  0  0  0  0
 13 18  2  0  0  0  0
 14 17  1  0  0  0  0
 14 44  1  0  0  0  0
 14 45  1  0  0  0  0
 15 16  2  0  0  0  0
 16 21  1  0  0  0  0
 17 20  1  0  0  0  0
 17 24  2  0  0  0  0
 18 22  1  0  0  0  0
 18 46  1  0  0  0  0
 19 23  1  0  0  0  0
 19 26  1  0  0  0  0
 19 47  1  0  0  0  0
 20 25  1  0  0  0  0
 20 28  2  0  0  0  0
 21 22  2  0  0  0  0
 21 48  1  0  0  0  0
 22 49  1  0  0  0  0
 24 50  1  0  0  0  0
 25 29  2  0  0  0  0
 26 52  1  0  0  0  0
 26 53  1  0  0  0  0
 26 54  1  0  0  0  0
 27 55  1  0  0  0  0
 27 56  1  0  0  0  0
 27 57  1  0  0  0  0
 28 30  1  0  0  0  0
 28 58  1  0  0  0  0
 29 31  1  0  0  0  0
 29 59  1  0  0  0  0
 30 31  2  0  0  0  0
 30 60  1  0  0  0  0
 31 61  1  0  0  0  0
M  END
> <PUBCHEM_COMPOUND_CID>
11495417

> <PUBCHEM_COMPOUND_CANONICALIZED>
1

> <PUBCHEM_CACTVS_COMPLEXITY>
623

> <PUBCHEM_CACTVS_HBOND_ACCEPTOR>
4

> <PUBCHEM_CACTVS_HBOND_DONOR>
1

> <PUBCHEM_CACTVS_ROTATABLE_BOND>
5

> <PUBCHEM_CACTVS_SUBSKEYS>
AAADceB7sAAAAAAAAAAAAAAAAAAAAWAAAAA8eIEAAAAAAFix9AAAHgAQAAAADBzhngY+xvPJlACoAzV3VAKCiCAxIiAI2aF9bJgOZuLE8d+XOCjk1hHY6AeQwMAOgAAAAAQCEAAAAAAACAQgAAAAAAAAAA==

> <PUBCHEM_IUPAC_OPENEYE_NAME>
8-[4-[3-(1H-indol-3-yl)propyl]piperazin-1-yl]-2,4-dimethyl-1,4-benzoxazin-3-one

> <PUBCHEM_IUPAC_CAS_NAME>
8-[4-[3-(1H-indol-3-yl)propyl]-1-piperazinyl]-2,4-dimethyl-1,4-benzoxazin-3-one

> <PUBCHEM_IUPAC_NAME_MARKUP>
8-[4-[3-(1<I>H</I>-indol-3-yl)propyl]piperazin-1-yl]-2,4-dimethyl-1,4-benzoxazin-3-one

> <PUBCHEM_IUPAC_NAME>
8-[4-[3-(1H-indol-3-yl)propyl]piperazin-1-yl]-2,4-dimethyl-1,4-benzoxazin-3-one

> <PUBCHEM_IUPAC_SYSTEMATIC_NAME>
8-[4-[3-(1H-indol-3-yl)propyl]piperazin-1-yl]-2,4-dimethyl-1,4-benzoxazin-3-one

> <PUBCHEM_IUPAC_TRADITIONAL_NAME>
8-[4-[3-(1H-indol-3-yl)propyl]piperazino]-2,4-dimethyl-1,4-benzoxazin-3-one

> <PUBCHEM_IUPAC_INCHI>
InChI=1S/C25H30N4O2/c1-18-25(30)27(2)22-10-5-11-23(24(22)31-18)29-15-13-28(14-16-29)12-6-7-19-17-26-21-9-4-3-8-20(19)21/h3-5,8-11,17-18,26H,6-7,12-16H2,1-2H3

> <PUBCHEM_IUPAC_INCHIKEY>
YEOWMZRSKXXMFL-UHFFFAOYSA-N

> <PUBCHEM_XLOGP3_AA>
3.8

> <PUBCHEM_EXACT_MASS>
418.23687621

> <PUBCHEM_MOLECULAR_FORMULA>
C25H30N4O2

> <PUBCHEM_MOLECULAR_WEIGHT>
418.5

> <PUBCHEM_OPENEYE_CAN_SMILES>
CC1C(=O)N(C2=C(O1)C(=CC=C2)N3CCN(CC3)CCCC4=CNC5=CC=CC=C54)C

> <PUBCHEM_OPENEYE_ISO_SMILES>
CC1C(=O)N(C2=C(O1)C(=CC=C2)N3CCN(CC3)CCCC4=CNC5=CC=CC=C54)C

> <PUBCHEM_CACTVS_TPSA>
51.8

> <PUBCHEM_MONOISOTOPIC_WEIGHT>
418.23687621

> <PUBCHEM_TOTAL_CHARGE>
0

> <PUBCHEM_HEAVY_ATOM_COUNT>
31

> <PUBCHEM_ATOM_DEF_STEREO_COUNT>
0

> <PUBCHEM_ATOM_UDEF_STEREO_COUNT>
1

> <PUBCHEM_BOND_DEF_STEREO_COUNT>
0

> <PUBCHEM_BOND_UDEF_STEREO_COUNT>
0

> <PUBCHEM_ISOTOPIC_ATOM_COUNT>
0

> <PUBCHEM_COMPONENT_COUNT>
1

> <PUBCHEM_CACTVS_TAUTO_COUNT>
-1

> <PUBCHEM_COORDINATE_TYPE>
1
5
255

> <PUBCHEM_BONDANNOTATIONS>
13  15  8
13  18  8
15  16  8
16  21  8
17  20  8
17  24  8
18  22  8
19  26  3
20  25  8
20  28  8
21  22  8
25  29  8
28  30  8
29  31  8
30  31  8
6  24  8
6  25  8

$$$$
