11517928
  -OEChem-09292322272D

 56 60  0     0  0  0  0  0  0999 V2000
   13.3600    2.5490    0.0000 Cl  0  0  0  0  0  0  0  0  0  0  0  0
   12.3600    4.2811    0.0000 Cl  0  0  0  0  0  0  0  0  0  0  0  0
    9.3600   -0.9151    0.0000 N   0  0  0  0  0  0  0  0  0  0  0  0
   10.3600    0.8170    0.0000 N   0  0  0  0  0  0  0  0  0  0  0  0
    3.7320   -2.7811    0.0000 N   0  0  0  0  0  0  0  0  0  0  0  0
    6.3301   -2.2811    0.0000 N   0  0  0  0  0  0  0  0  0  0  0  0
    5.4641   -2.7811    0.0000 N   0  0  0  0  0  0  0  0  0  0  0  0
    7.2764   -0.9764    0.0000 N   0  0  0  0  0  0  0  0  0  0  0  0
    8.8600   -0.0490    0.0000 C   0  0  0  0  0  0  0  0  0  0  0  0
   10.3600   -0.9151    0.0000 C   0  0  0  0  0  0  0  0  0  0  0  0
    9.3600    0.8170    0.0000 C   0  0  0  0  0  0  0  0  0  0  0  0
   10.8600   -0.0490    0.0000 C   0  0  0  0  0  0  0  0  0  0  0  0
    2.0000   -3.7811    0.0000 C   0  0  0  0  0  0  0  0  0  0  0  0
    2.0000   -2.7811    0.0000 C   0  0  0  0  0  0  0  0  0  0  0  0
    2.8660   -4.2811    0.0000 C   0  0  0  0  0  0  0  0  0  0  0  0
    2.8660   -2.2811    0.0000 C   0  0  0  0  0  0  0  0  0  0  0  0
    3.7320   -3.7811    0.0000 C   0  0  0  0  0  0  0  0  0  0  0  0
    8.8600   -1.7811    0.0000 C   0  0  0  0  0  0  0  0  0  0  0  0
    7.8600   -1.7811    0.0000 C   0  0  0  0  0  0  0  0  0  0  0  0
    4.5981   -2.2811    0.0000 C   0  0  0  0  0  0  0  0  0  0  0  0
   10.8600    1.6830    0.0000 C   0  0  0  0  0  0  0  0  0  0  0  0
    7.2764   -2.5858    0.0000 C   0  0  0  0  0  0  0  0  0  0  0  0
    6.3301   -1.2811    0.0000 C   0  0  0  0  0  0  0  0  0  0  0  0
    4.5981   -1.2811    0.0000 C   0  0  0  0  0  0  0  0  0  0  0  0
    5.4641   -0.7811    0.0000 C   0  0  0  0  0  0  0  0  0  0  0  0
   11.8600    1.6830    0.0000 C   0  0  0  0  0  0  0  0  0  0  0  0
   10.3600    2.5490    0.0000 C   0  0  0  0  0  0  0  0  0  0  0  0
   12.3600    2.5490    0.0000 C   0  0  0  0  0  0  0  0  0  0  0  0
   10.8600    3.4151    0.0000 C   0  0  0  0  0  0  0  0  0  0  0  0
   11.8600    3.4151    0.0000 C   0  0  0  0  0  0  0  0  0  0  0  0
    8.3850    0.3495    0.0000 H   0  0  0  0  0  0  0  0  0  0  0  0
    8.3850   -0.4476    0.0000 H   0  0  0  0  0  0  0  0  0  0  0  0
   10.2523   -1.5256    0.0000 H   0  0  0  0  0  0  0  0  0  0  0  0
   10.9426   -1.1271    0.0000 H   0  0  0  0  0  0  0  0  0  0  0  0
    9.4676    1.4276    0.0000 H   0  0  0  0  0  0  0  0  0  0  0  0
    8.7774    1.0290    0.0000 H   0  0  0  0  0  0  0  0  0  0  0  0
   11.3349   -0.4476    0.0000 H   0  0  0  0  0  0  0  0  0  0  0  0
   11.3349    0.3495    0.0000 H   0  0  0  0  0  0  0  0  0  0  0  0
    1.3894   -3.6734    0.0000 H   0  0  0  0  0  0  0  0  0  0  0  0
    1.7880   -4.3637    0.0000 H   0  0  0  0  0  0  0  0  0  0  0  0
    1.7880   -2.1985    0.0000 H   0  0  0  0  0  0  0  0  0  0  0  0
    1.3894   -2.8888    0.0000 H   0  0  0  0  0  0  0  0  0  0  0  0
    2.4675   -4.7560    0.0000 H   0  0  0  0  0  0  0  0  0  0  0  0
    3.2646   -4.7560    0.0000 H   0  0  0  0  0  0  0  0  0  0  0  0
    3.2646   -1.8061    0.0000 H   0  0  0  0  0  0  0  0  0  0  0  0
    2.4675   -1.8061    0.0000 H   0  0  0  0  0  0  0  0  0  0  0  0
    3.9441   -4.3637    0.0000 H   0  0  0  0  0  0  0  0  0  0  0  0
    4.3426   -3.6734    0.0000 H   0  0  0  0  0  0  0  0  0  0  0  0
    8.7523   -2.3917    0.0000 H   0  0  0  0  0  0  0  0  0  0  0  0
    9.4426   -1.9931    0.0000 H   0  0  0  0  0  0  0  0  0  0  0  0
    7.4690   -3.1751    0.0000 H   0  0  0  0  0  0  0  0  0  0  0  0
    4.0611   -0.9711    0.0000 H   0  0  0  0  0  0  0  0  0  0  0  0
    5.4641   -0.1611    0.0000 H   0  0  0  0  0  0  0  0  0  0  0  0
   12.1700    1.1461    0.0000 H   0  0  0  0  0  0  0  0  0  0  0  0
    9.7400    2.5490    0.0000 H   0  0  0  0  0  0  0  0  0  0  0  0
   10.5500    3.9520    0.0000 H   0  0  0  0  0  0  0  0  0  0  0  0
  1 28  1  0  0  0  0
  2 30  1  0  0  0  0
  3  9  1  0  0  0  0
  3 10  1  0  0  0  0
  3 18  1  0  0  0  0
  4 11  1  0  0  0  0
  4 12  1  0  0  0  0
  4 21  1  0  0  0  0
  5 16  1  0  0  0  0
  5 17  1  0  0  0  0
  5 20  1  0  0  0  0
  6  7  1  0  0  0  0
  6 22  1  0  0  0  0
  6 23  1  0  0  0  0
  7 20  2  0  0  0  0
  8 19  1  0  0  0  0
  8 23  2  0  0  0  0
  9 11  1  0  0  0  0
  9 31  1  0  0  0  0
  9 32  1  0  0  0  0
 10 12  1  0  0  0  0
 10 33  1  0  0  0  0
 10 34  1  0  0  0  0
 11 35  1  0  0  0  0
 11 36  1  0  0  0  0
 12 37  1  0  0  0  0
 12 38  1  0  0  0  0
 13 14  1  0  0  0  0
 13 15  1  0  0  0  0
 13 39  1  0  0  0  0
 13 40  1  0  0  0  0
 14 16  1  0  0  0  0
 14 41  1  0  0  0  0
 14 42  1  0  0  0  0
 15 17  1  0  0  0  0
 15 43  1  0  0  0  0
 15 44  1  0  0  0  0
 16 45  1  0  0  0  0
 16 46  1  0  0  0  0
 17 47  1  0  0  0  0
 17 48  1  0  0  0  0
 18 19  1  0  0  0  0
 18 49  1  0  0  0  0
 18 50  1  0  0  0  0
 19 22  2  0  0  0  0
 20 24  1  0  0  0  0
 21 26  2  0  0  0  0
 21 27  1  0  0  0  0
 22 51  1  0  0  0  0
 23 25  1  0  0  0  0
 24 25  2  0  0  0  0
 24 52  1  0  0  0  0
 25 53  1  0  0  0  0
 26 28  1  0  0  0  0
 26 54  1  0  0  0  0
 27 29  2  0  0  0  0
 27 55  1  0  0  0  0
 28 30  2  0  0  0  0
 29 30  1  0  0  0  0
 29 56  1  0  0  0  0
M  END
> <PUBCHEM_COMPOUND_CID>
11517928

> <PUBCHEM_COMPOUND_CANONICALIZED>
1

> <PUBCHEM_CACTVS_COMPLEXITY>
554

> <PUBCHEM_CACTVS_HBOND_ACCEPTOR>
5

> <PUBCHEM_CACTVS_HBOND_DONOR>
0

> <PUBCHEM_CACTVS_ROTATABLE_BOND>
4

> <PUBCHEM_CACTVS_SUBSKEYS>
AAADceB7gAAGAAAAAAAAAAAAAAAAAWAAAAA8WLEAAAAAAFgB8AAAHAIIAAAACArBFyQ98J8IEACiATZnZACShC8xl6Ad2mA4dpiIaOLB25GUoAhoiALIyCcQAAAAAABAAAIAAAQAAIAABAAACAAAAAAAAA==

> <PUBCHEM_IUPAC_OPENEYE_NAME>
2-[[4-(3,4-dichlorophenyl)piperazin-1-yl]methyl]-6-(1-piperidyl)imidazo[1,2-b]pyridazine

> <PUBCHEM_IUPAC_CAS_NAME>
2-[[4-(3,4-dichlorophenyl)-1-piperazinyl]methyl]-6-(1-piperidinyl)imidazo[1,2-b]pyridazine

> <PUBCHEM_IUPAC_NAME_MARKUP>
2-[[4-(3,4-dichlorophenyl)piperazin-1-yl]methyl]-6-piperidin-1-ylimidazo[1,2-b]pyridazine

> <PUBCHEM_IUPAC_NAME>
2-[[4-(3,4-dichlorophenyl)piperazin-1-yl]methyl]-6-piperidin-1-ylimidazo[1,2-b]pyridazine

> <PUBCHEM_IUPAC_SYSTEMATIC_NAME>
2-[[4-(3,4-dichlorophenyl)piperazin-1-yl]methyl]-6-piperidin-1-yl-imidazo[1,2-b]pyridazine

> <PUBCHEM_IUPAC_TRADITIONAL_NAME>
2-[[4-(3,4-dichlorophenyl)piperazino]methyl]-6-piperidino-imidazo[1,2-b]pyridazine

> <PUBCHEM_IUPAC_INCHI>
InChI=1S/C22H26Cl2N6/c23-19-5-4-18(14-20(19)24)28-12-10-27(11-13-28)15-17-16-30-21(25-17)6-7-22(26-30)29-8-2-1-3-9-29/h4-7,14,16H,1-3,8-13,15H2

> <PUBCHEM_IUPAC_INCHIKEY>
ACHQQXOLWIKHRK-UHFFFAOYSA-N

> <PUBCHEM_XLOGP3_AA>
4.3

> <PUBCHEM_EXACT_MASS>
444.1596002

> <PUBCHEM_MOLECULAR_FORMULA>
C22H26Cl2N6

> <PUBCHEM_MOLECULAR_WEIGHT>
445.4

> <PUBCHEM_OPENEYE_CAN_SMILES>
C1CCN(CC1)C2=NN3C=C(N=C3C=C2)CN4CCN(CC4)C5=CC(=C(C=C5)Cl)Cl

> <PUBCHEM_OPENEYE_ISO_SMILES>
C1CCN(CC1)C2=NN3C=C(N=C3C=C2)CN4CCN(CC4)C5=CC(=C(C=C5)Cl)Cl

> <PUBCHEM_CACTVS_TPSA>
39.9

> <PUBCHEM_MONOISOTOPIC_WEIGHT>
444.1596002

> <PUBCHEM_TOTAL_CHARGE>
0

> <PUBCHEM_HEAVY_ATOM_COUNT>
30

> <PUBCHEM_ATOM_DEF_STEREO_COUNT>
0

> <PUBCHEM_ATOM_UDEF_STEREO_COUNT>
0

> <PUBCHEM_BOND_DEF_STEREO_COUNT>
0

> <PUBCHEM_BOND_UDEF_STEREO_COUNT>
0

> <PUBCHEM_ISOTOPIC_ATOM_COUNT>
0

> <PUBCHEM_COMPONENT_COUNT>
1

> <PUBCHEM_CACTVS_TAUTO_COUNT>
-1

> <PUBCHEM_COORDINATE_TYPE>
1
5
255

> <PUBCHEM_BONDANNOTATIONS>
19  22  8
20  24  8
21  26  8
21  27  8
23  25  8
24  25  8
26  28  8
27  29  8
28  30  8
29  30  8
6  22  8
6  23  8
6  7  8
7  20  8
8  19  8
8  23  8

$$$$
