16041090
  -OEChem-09292322242D

 76 79  0     0  0  0  0  0  0999 V2000
   12.3923    2.5000    0.0000 O   0  0  0  0  0  0  0  0  0  0  0  0
    6.3301   -1.0000    0.0000 O   0  0  0  0  0  0  0  0  0  0  0  0
    2.8660   -2.0000    0.0000 O   0  0  0  0  0  0  0  0  0  0  0  0
    4.5981   -5.0000    0.0000 O   0  0  0  0  0  0  0  0  0  0  0  0
    8.9282    2.5000    0.0000 N   0  0  0  0  0  0  0  0  0  0  0  0
   10.6603    3.5000    0.0000 N   0  0  0  0  0  0  0  0  0  0  0  0
    5.4641    0.5000    0.0000 N   0  0  0  0  0  0  0  0  0  0  0  0
    4.5981   -1.0000    0.0000 N   0  0  0  0  0  0  0  0  0  0  0  0
    8.0622    2.0000    0.0000 C   0  0  0  0  0  0  0  0  0  0  0  0
    7.1962    2.5000    0.0000 C   0  0  0  0  0  0  0  0  0  0  0  0
    8.0622    1.0000    0.0000 C   0  0  0  0  0  0  0  0  0  0  0  0
    6.3301    1.0000    0.0000 C   0  0  0  0  0  0  0  0  0  0  0  0
    6.3301    2.0000    0.0000 C   0  0  0  0  0  0  0  0  0  0  0  0
    7.1962    0.5000    0.0000 C   0  0  0  0  0  0  0  0  0  0  0  0
    8.9282    3.5000    0.0000 C   0  0  0  0  0  0  0  0  0  0  0  0
    9.7942    2.0000    0.0000 C   0  0  0  0  0  0  0  0  0  0  0  0
    9.7942    4.0000    0.0000 C   0  0  0  0  0  0  0  0  0  0  0  0
   10.6603    2.5000    0.0000 C   0  0  0  0  0  0  0  0  0  0  0  0
   11.5263    4.0000    0.0000 C   0  0  0  0  0  0  0  0  0  0  0  0
    5.4641   -0.5000    0.0000 C   0  0  0  0  0  0  0  0  0  0  0  0
   12.3923    3.5000    0.0000 C   0  0  0  0  0  0  0  0  0  0  0  0
   11.5263    5.0000    0.0000 C   0  0  0  0  0  0  0  0  0  0  0  0
   13.2583    4.0000    0.0000 C   0  0  0  0  0  0  0  0  0  0  0  0
   12.3923    5.5000    0.0000 C   0  0  0  0  0  0  0  0  0  0  0  0
   13.2583    5.0000    0.0000 C   0  0  0  0  0  0  0  0  0  0  0  0
    4.5981   -2.0000    0.0000 C   0  0  0  0  0  0  0  0  0  0  0  0
   13.2583    2.0000    0.0000 C   0  0  0  0  0  0  0  0  0  0  0  0
    3.7320   -2.5000    0.0000 C   0  0  0  0  0  0  0  0  0  0  0  0
    5.4641   -2.5000    0.0000 C   0  0  0  0  0  0  0  0  0  0  0  0
   13.2583    1.0000    0.0000 C   0  0  0  0  0  0  0  0  0  0  0  0
   14.1244    2.5000    0.0000 C   0  0  0  0  0  0  0  0  0  0  0  0
    3.7320   -3.5000    0.0000 C   0  0  0  0  0  0  0  0  0  0  0  0
    5.4641   -3.5000    0.0000 C   0  0  0  0  0  0  0  0  0  0  0  0
    4.5981   -4.0000    0.0000 C   0  0  0  0  0  0  0  0  0  0  0  0
    2.0000   -2.5000    0.0000 C   0  0  0  0  0  0  0  0  0  0  0  0
    5.4641   -5.5000    0.0000 C   0  0  0  0  0  0  0  0  0  0  0  0
    8.0622    2.6200    0.0000 H   0  0  0  0  0  0  0  0  0  0  0  0
    7.5947    2.9750    0.0000 H   0  0  0  0  0  0  0  0  0  0  0  0
    6.7976    2.9750    0.0000 H   0  0  0  0  0  0  0  0  0  0  0  0
    8.2742    0.4174    0.0000 H   0  0  0  0  0  0  0  0  0  0  0  0
    8.6728    1.1077    0.0000 H   0  0  0  0  0  0  0  0  0  0  0  0
    5.7932    1.3100    0.0000 H   0  0  0  0  0  0  0  0  0  0  0  0
    6.1181    2.5826    0.0000 H   0  0  0  0  0  0  0  0  0  0  0  0
    5.7196    1.8923    0.0000 H   0  0  0  0  0  0  0  0  0  0  0  0
    6.7976    0.0251    0.0000 H   0  0  0  0  0  0  0  0  0  0  0  0
    7.5947    0.0251    0.0000 H   0  0  0  0  0  0  0  0  0  0  0  0
    8.7162    4.0826    0.0000 H   0  0  0  0  0  0  0  0  0  0  0  0
    8.3176    3.3923    0.0000 H   0  0  0  0  0  0  0  0  0  0  0  0
    9.3957    1.5250    0.0000 H   0  0  0  0  0  0  0  0  0  0  0  0
   10.1928    1.5250    0.0000 H   0  0  0  0  0  0  0  0  0  0  0  0
   10.1928    4.4750    0.0000 H   0  0  0  0  0  0  0  0  0  0  0  0
    9.3957    4.4750    0.0000 H   0  0  0  0  0  0  0  0  0  0  0  0
   10.8723    1.9174    0.0000 H   0  0  0  0  0  0  0  0  0  0  0  0
   11.2708    2.6077    0.0000 H   0  0  0  0  0  0  0  0  0  0  0  0
    4.9272    0.8100    0.0000 H   0  0  0  0  0  0  0  0  0  0  0  0
   10.9893    5.3100    0.0000 H   0  0  0  0  0  0  0  0  0  0  0  0
    4.0611   -0.6900    0.0000 H   0  0  0  0  0  0  0  0  0  0  0  0
   13.7953    3.6900    0.0000 H   0  0  0  0  0  0  0  0  0  0  0  0
   12.3923    6.1200    0.0000 H   0  0  0  0  0  0  0  0  0  0  0  0
   13.7953    5.3100    0.0000 H   0  0  0  0  0  0  0  0  0  0  0  0
   13.2583    2.6200    0.0000 H   0  0  0  0  0  0  0  0  0  0  0  0
    6.0010   -2.1900    0.0000 H   0  0  0  0  0  0  0  0  0  0  0  0
   12.6383    1.0000    0.0000 H   0  0  0  0  0  0  0  0  0  0  0  0
   13.2583    0.3800    0.0000 H   0  0  0  0  0  0  0  0  0  0  0  0
   13.8783    1.0000    0.0000 H   0  0  0  0  0  0  0  0  0  0  0  0
   14.4344    1.9631    0.0000 H   0  0  0  0  0  0  0  0  0  0  0  0
   14.6613    2.8100    0.0000 H   0  0  0  0  0  0  0  0  0  0  0  0
   13.8144    3.0369    0.0000 H   0  0  0  0  0  0  0  0  0  0  0  0
    3.1951   -3.8100    0.0000 H   0  0  0  0  0  0  0  0  0  0  0  0
    6.0010   -3.8100    0.0000 H   0  0  0  0  0  0  0  0  0  0  0  0
    1.6900   -1.9631    0.0000 H   0  0  0  0  0  0  0  0  0  0  0  0
    1.4631   -2.8100    0.0000 H   0  0  0  0  0  0  0  0  0  0  0  0
    2.3100   -3.0369    0.0000 H   0  0  0  0  0  0  0  0  0  0  0  0
    5.1541   -6.0369    0.0000 H   0  0  0  0  0  0  0  0  0  0  0  0
    6.0010   -5.8100    0.0000 H   0  0  0  0  0  0  0  0  0  0  0  0
    5.7741   -4.9631    0.0000 H   0  0  0  0  0  0  0  0  0  0  0  0
  1 21  1  0  0  0  0
  1 27  1  0  0  0  0
  2 20  2  0  0  0  0
  3 28  1  0  0  0  0
  3 35  1  0  0  0  0
  4 34  1  0  0  0  0
  4 36  1  0  0  0  0
  5  9  1  0  0  0  0
  5 15  1  0  0  0  0
  5 16  1  0  0  0  0
  6 17  1  0  0  0  0
  6 18  1  0  0  0  0
  6 19  1  0  0  0  0
  7 12  1  0  0  0  0
  7 20  1  0  0  0  0
  7 55  1  0  0  0  0
  8 20  1  0  0  0  0
  8 26  1  0  0  0  0
  8 57  1  0  0  0  0
  9 10  1  0  0  0  0
  9 11  1  0  0  0  0
  9 37  1  0  0  0  0
 10 13  1  0  0  0  0
 10 38  1  0  0  0  0
 10 39  1  0  0  0  0
 11 14  1  0  0  0  0
 11 40  1  0  0  0  0
 11 41  1  0  0  0  0
 12 13  1  0  0  0  0
 12 14  1  0  0  0  0
 12 42  1  0  0  0  0
 13 43  1  0  0  0  0
 13 44  1  0  0  0  0
 14 45  1  0  0  0  0
 14 46  1  0  0  0  0
 15 17  1  0  0  0  0
 15 47  1  0  0  0  0
 15 48  1  0  0  0  0
 16 18  1  0  0  0  0
 16 49  1  0  0  0  0
 16 50  1  0  0  0  0
 17 51  1  0  0  0  0
 17 52  1  0  0  0  0
 18 53  1  0  0  0  0
 18 54  1  0  0  0  0
 19 21  1  0  0  0  0
 19 22  2  0  0  0  0
 21 23  2  0  0  0  0
 22 24  1  0  0  0  0
 22 56  1  0  0  0  0
 23 25  1  0  0  0  0
 23 58  1  0  0  0  0
 24 25  2  0  0  0  0
 24 59  1  0  0  0  0
 25 60  1  0  0  0  0
 26 28  2  0  0  0  0
 26 29  1  0  0  0  0
 27 30  1  0  0  0  0
 27 31  1  0  0  0  0
 27 61  1  0  0  0  0
 28 32  1  0  0  0  0
 29 33  2  0  0  0  0
 29 62  1  0  0  0  0
 30 63  1  0  0  0  0
 30 64  1  0  0  0  0
 30 65  1  0  0  0  0
 31 66  1  0  0  0  0
 31 67  1  0  0  0  0
 31 68  1  0  0  0  0
 32 34  2  0  0  0  0
 32 69  1  0  0  0  0
 33 34  1  0  0  0  0
 33 70  1  0  0  0  0
 35 71  1  0  0  0  0
 35 72  1  0  0  0  0
 35 73  1  0  0  0  0
 36 74  1  0  0  0  0
 36 75  1  0  0  0  0
 36 76  1  0  0  0  0
M  END
> <PUBCHEM_COMPOUND_CID>
16041090

> <PUBCHEM_COMPOUND_CANONICALIZED>
1

> <PUBCHEM_CACTVS_COMPLEXITY>
664

> <PUBCHEM_CACTVS_HBOND_ACCEPTOR>
6

> <PUBCHEM_CACTVS_HBOND_DONOR>
2

> <PUBCHEM_CACTVS_ROTATABLE_BOND>
8

> <PUBCHEM_CACTVS_SUBSKEYS>
AAADcfB7uAAAAAAAAAAAAAAAAAAAAAAAAAA8YMEAAAAAAAABQAAAHgAQAAAACDzhkAYzxoPABACIACRCUACCCAAhIgAIiIAPbIiOZyLEsZuXOCjt1hfY6CewYAwAAEAACAAAEAAAgQAQAAAgAAAAAAAAAA==

> <PUBCHEM_IUPAC_OPENEYE_NAME>
1-(2,4-dimethoxyphenyl)-3-[4-[4-(2-isopropoxyphenyl)piperazin-1-yl]cyclohexyl]urea

> <PUBCHEM_IUPAC_CAS_NAME>
1-(2,4-dimethoxyphenyl)-3-[4-[4-(2-propan-2-yloxyphenyl)-1-piperazinyl]cyclohexyl]urea

> <PUBCHEM_IUPAC_NAME_MARKUP>
1-(2,4-dimethoxyphenyl)-3-[4-[4-(2-propan-2-yloxyphenyl)piperazin-1-yl]cyclohexyl]urea

> <PUBCHEM_IUPAC_NAME>
1-(2,4-dimethoxyphenyl)-3-[4-[4-(2-propan-2-yloxyphenyl)piperazin-1-yl]cyclohexyl]urea

> <PUBCHEM_IUPAC_SYSTEMATIC_NAME>
1-(2,4-dimethoxyphenyl)-3-[4-[4-(2-propan-2-yloxyphenyl)piperazin-1-yl]cyclohexyl]urea

> <PUBCHEM_IUPAC_TRADITIONAL_NAME>
1-(2,4-dimethoxyphenyl)-3-[4-[4-(2-isopropoxyphenyl)piperazino]cyclohexyl]urea

> <PUBCHEM_IUPAC_INCHI>
InChI=1S/C28H40N4O4/c1-20(2)36-26-8-6-5-7-25(26)32-17-15-31(16-18-32)22-11-9-21(10-12-22)29-28(33)30-24-14-13-23(34-3)19-27(24)35-4/h5-8,13-14,19-22H,9-12,15-18H2,1-4H3,(H2,29,30,33)

> <PUBCHEM_IUPAC_INCHIKEY>
HZACYYQCKLSFDB-UHFFFAOYSA-N

> <PUBCHEM_XLOGP3_AA>
4.6

> <PUBCHEM_EXACT_MASS>
496.30495577

> <PUBCHEM_MOLECULAR_FORMULA>
C28H40N4O4

> <PUBCHEM_MOLECULAR_WEIGHT>
496.6

> <PUBCHEM_OPENEYE_CAN_SMILES>
CC(C)OC1=CC=CC=C1N2CCN(CC2)C3CCC(CC3)NC(=O)NC4=C(C=C(C=C4)OC)OC

> <PUBCHEM_OPENEYE_ISO_SMILES>
CC(C)OC1=CC=CC=C1N2CCN(CC2)C3CCC(CC3)NC(=O)NC4=C(C=C(C=C4)OC)OC

> <PUBCHEM_CACTVS_TPSA>
75.3

> <PUBCHEM_MONOISOTOPIC_WEIGHT>
496.30495577

> <PUBCHEM_TOTAL_CHARGE>
0

> <PUBCHEM_HEAVY_ATOM_COUNT>
36

> <PUBCHEM_ATOM_DEF_STEREO_COUNT>
0

> <PUBCHEM_ATOM_UDEF_STEREO_COUNT>
0

> <PUBCHEM_BOND_DEF_STEREO_COUNT>
0

> <PUBCHEM_BOND_UDEF_STEREO_COUNT>
0

> <PUBCHEM_ISOTOPIC_ATOM_COUNT>
0

> <PUBCHEM_COMPONENT_COUNT>
1

> <PUBCHEM_CACTVS_TAUTO_COUNT>
-1

> <PUBCHEM_COORDINATE_TYPE>
1
5
255

> <PUBCHEM_BONDANNOTATIONS>
19  21  8
19  22  8
21  23  8
22  24  8
23  25  8
24  25  8
26  28  8
26  29  8
28  32  8
29  33  8
32  34  8
33  34  8

$$$$
