145984484
  -OEChem-09292322002D

138143  0     1  0  0  0  0  0999 V2000
    2.0000   -6.7835    0.0000 S   0  0  0  0  0  0  0  0  0  0  0  0
   35.6133    2.8367    0.0000 O   0  0  0  0  0  0  0  0  0  0  0  0
   26.0707    5.3713    0.0000 O   0  0  0  0  0  0  0  0  0  0  0  0
    9.6382   -3.0145    0.0000 O   0  0  0  0  0  0  0  0  0  0  0  0
    7.6492   -2.8055    0.0000 O   0  0  0  0  0  0  0  0  0  0  0  0
   32.1329    5.8713    0.0000 N   0  0  3  0  0  0  0  0  0  0  0  0
   14.5662    0.8215    0.0000 N   0  0  3  0  0  0  0  0  0  0  0  0
   26.9367    3.8713    0.0000 N   0  0  0  0  0  0  0  0  0  0  0  0
   21.8900    3.5349    0.0000 N   0  0  0  0  0  0  0  0  0  0  0  0
   22.3900    2.6689    0.0000 N   0  0  0  0  0  0  0  0  0  0  0  0
    9.8193   -1.2920    0.0000 N   0  0  0  0  0  0  0  0  0  0  0  0
   23.3681    2.8768    0.0000 N   0  0  0  0  0  0  0  0  0  0  0  0
    5.2534   -1.6829    0.0000 N   0  0  0  0  0  0  0  0  0  0  0  0
    3.6180   -6.7835    0.0000 N   0  0  0  0  0  0  0  0  0  0  0  0
   32.9989    5.3713    0.0000 C   0  0  3  0  0  0  0  0  0  0  0  0
   32.9989    4.3713    0.0000 C   0  0  0  0  0  0  0  0  0  0  0  0
   33.8649    5.8713    0.0000 C   0  0  0  0  0  0  0  0  0  0  0  0
   33.8649    3.8713    0.0000 C   0  0  0  0  0  0  0  0  0  0  0  0
   34.7310    5.3713    0.0000 C   0  0  0  0  0  0  0  0  0  0  0  0
   34.7310    4.3713    0.0000 C   0  0  0  0  0  0  0  0  0  0  0  0
   31.2669    5.3713    0.0000 C   0  0  0  0  0  0  0  0  0  0  0  0
   32.1329    6.8713    0.0000 C   0  0  0  0  0  0  0  0  0  0  0  0
   30.4008    5.8713    0.0000 C   0  0  0  0  0  0  0  0  0  0  0  0
   35.6249    5.9060    0.0000 C   0  0  0  0  0  0  0  0  0  0  0  0
   35.6249    3.8367    0.0000 C   0  0  0  0  0  0  0  0  0  0  0  0
   31.2669    7.3713    0.0000 C   0  0  0  0  0  0  0  0  0  0  0  0
   36.5310    5.3921    0.0000 C   0  0  0  0  0  0  0  0  0  0  0  0
   36.5310    4.3505    0.0000 C   0  0  0  0  0  0  0  0  0  0  0  0
   29.5348    5.3713    0.0000 C   0  0  0  0  0  0  0  0  0  0  0  0
   31.2669    8.3713    0.0000 C   0  0  0  0  0  0  0  0  0  0  0  0
   29.5348    4.3713    0.0000 C   0  0  0  0  0  0  0  0  0  0  0  0
   28.6688    5.8713    0.0000 C   0  0  0  0  0  0  0  0  0  0  0  0
   28.6688    3.8713    0.0000 C   0  0  0  0  0  0  0  0  0  0  0  0
   27.8028    5.3713    0.0000 C   0  0  0  0  0  0  0  0  0  0  0  0
   27.8028    4.3713    0.0000 C   0  0  0  0  0  0  0  0  0  0  0  0
   17.1430    1.4215    0.0000 C   0  0  0  0  0  0  0  0  0  0  0  0
   17.7308    2.2305    0.0000 C   0  0  0  0  0  0  0  0  0  0  0  0
   16.1485    1.5260    0.0000 C   0  0  0  0  0  0  0  0  0  0  0  0
   18.7254    2.1259    0.0000 C   0  0  0  0  0  0  0  0  0  0  0  0
   15.5607    0.7170    0.0000 C   0  0  0  0  0  0  0  0  0  0  0  0
   19.3131    2.9350    0.0000 C   0  0  0  0  0  0  0  0  0  0  0  0
   13.9784    0.0125    0.0000 C   0  0  0  0  0  0  0  0  0  0  0  0
   12.9839    0.1170    0.0000 C   0  0  0  0  0  0  0  0  0  0  0  0
   20.3077    2.8304    0.0000 C   0  0  0  0  0  0  0  0  0  0  0  0
   12.3961   -0.6920    0.0000 C   0  0  0  0  0  0  0  0  0  0  0  0
   20.8954    3.6394    0.0000 C   0  0  0  0  0  0  0  0  0  0  0  0
   14.1595    1.7350    0.0000 C   0  0  0  0  0  0  0  0  0  0  0  0
   11.4016   -0.5875    0.0000 C   0  0  0  0  0  0  0  0  0  0  0  0
   26.0707    4.3713    0.0000 C   0  0  0  0  0  0  0  0  0  0  0  0
   25.2047    3.8713    0.0000 C   0  0  0  0  0  0  0  0  0  0  0  0
   10.8138   -1.3965    0.0000 C   0  0  0  0  0  0  0  0  0  0  0  0
   24.3387    4.3713    0.0000 C   0  0  0  0  0  0  0  0  0  0  0  0
   23.4726    3.8713    0.0000 C   0  0  0  0  0  0  0  0  0  0  0  0
   22.5591    4.2781    0.0000 C   0  0  0  0  0  0  0  0  0  0  0  0
    9.2315   -2.1010    0.0000 C   0  0  0  0  0  0  0  0  0  0  0  0
    8.2370   -1.9965    0.0000 C   0  0  0  0  0  0  0  0  0  0  0  0
    6.6547   -2.7010    0.0000 C   0  0  0  0  0  0  0  0  0  0  0  0
    6.0669   -3.5100    0.0000 C   0  0  0  0  0  0  0  0  0  0  0  0
    6.2479   -1.7874    0.0000 C   0  0  0  0  0  0  0  0  0  0  0  0
    5.0724   -3.4054    0.0000 C   0  0  0  0  0  0  0  0  0  0  0  0
    4.6656   -2.4919    0.0000 C   0  0  0  0  0  0  0  0  0  0  0  0
    4.4846   -4.2144    0.0000 C   0  0  0  0  0  0  0  0  0  0  0  0
    3.8968   -5.0235    0.0000 C   0  0  0  0  0  0  0  0  0  0  0  0
    3.3090   -5.8325    0.0000 C   0  0  0  0  0  0  0  0  0  0  0  0
    2.3090   -5.8325    0.0000 C   0  0  0  0  0  0  0  0  0  0  0  0
    2.8090   -7.3713    0.0000 C   0  0  0  0  0  0  0  0  0  0  0  0
    2.8090   -8.3713    0.0000 C   0  0  0  0  0  0  0  0  0  0  0  0
   32.4620    5.0613    0.0000 H   0  0  0  0  0  0  0  0  0  0  0  0
   32.3883    4.4790    0.0000 H   0  0  0  0  0  0  0  0  0  0  0  0
   32.7869    3.7887    0.0000 H   0  0  0  0  0  0  0  0  0  0  0  0
   34.2635    6.3463    0.0000 H   0  0  0  0  0  0  0  0  0  0  0  0
   33.4664    6.3463    0.0000 H   0  0  0  0  0  0  0  0  0  0  0  0
   33.4664    3.3964    0.0000 H   0  0  0  0  0  0  0  0  0  0  0  0
   34.2635    3.3964    0.0000 H   0  0  0  0  0  0  0  0  0  0  0  0
   30.8683    4.8964    0.0000 H   0  0  0  0  0  0  0  0  0  0  0  0
   31.6654    4.8964    0.0000 H   0  0  0  0  0  0  0  0  0  0  0  0
   32.7435    6.7637    0.0000 H   0  0  0  0  0  0  0  0  0  0  0  0
   32.3449    7.4539    0.0000 H   0  0  0  0  0  0  0  0  0  0  0  0
   30.7994    6.3463    0.0000 H   0  0  0  0  0  0  0  0  0  0  0  0
   30.0023    6.3463    0.0000 H   0  0  0  0  0  0  0  0  0  0  0  0
   35.6177    6.5260    0.0000 H   0  0  0  0  0  0  0  0  0  0  0  0
   30.6563    7.4790    0.0000 H   0  0  0  0  0  0  0  0  0  0  0  0
   31.0548    6.7887    0.0000 H   0  0  0  0  0  0  0  0  0  0  0  0
   37.0667    5.7042    0.0000 H   0  0  0  0  0  0  0  0  0  0  0  0
   37.0667    4.0384    0.0000 H   0  0  0  0  0  0  0  0  0  0  0  0
   31.8869    8.3713    0.0000 H   0  0  0  0  0  0  0  0  0  0  0  0
   31.2669    8.9913    0.0000 H   0  0  0  0  0  0  0  0  0  0  0  0
   30.6469    8.3713    0.0000 H   0  0  0  0  0  0  0  0  0  0  0  0
   36.1467    2.5206    0.0000 H   0  0  0  0  0  0  0  0  0  0  0  0
   30.0718    4.0613    0.0000 H   0  0  0  0  0  0  0  0  0  0  0  0
   28.6688    6.4913    0.0000 H   0  0  0  0  0  0  0  0  0  0  0  0
   28.6688    3.2513    0.0000 H   0  0  0  0  0  0  0  0  0  0  0  0
   27.2658    5.6813    0.0000 H   0  0  0  0  0  0  0  0  0  0  0  0
   16.9722    0.8255    0.0000 H   0  0  0  0  0  0  0  0  0  0  0  0
   17.7003    1.1497    0.0000 H   0  0  0  0  0  0  0  0  0  0  0  0
   17.9017    2.8264    0.0000 H   0  0  0  0  0  0  0  0  0  0  0  0
   17.1736    2.5023    0.0000 H   0  0  0  0  0  0  0  0  0  0  0  0
   16.3194    2.1220    0.0000 H   0  0  0  0  0  0  0  0  0  0  0  0
   15.5913    1.7978    0.0000 H   0  0  0  0  0  0  0  0  0  0  0  0
   18.5545    1.5300    0.0000 H   0  0  0  0  0  0  0  0  0  0  0  0
   19.2826    1.8542    0.0000 H   0  0  0  0  0  0  0  0  0  0  0  0
   15.3898    0.1210    0.0000 H   0  0  0  0  0  0  0  0  0  0  0  0
   16.1180    0.4452    0.0000 H   0  0  0  0  0  0  0  0  0  0  0  0
   19.4840    3.5309    0.0000 H   0  0  0  0  0  0  0  0  0  0  0  0
   18.7559    3.2068    0.0000 H   0  0  0  0  0  0  0  0  0  0  0  0
   13.8075   -0.5835    0.0000 H   0  0  0  0  0  0  0  0  0  0  0  0
   14.5357   -0.2593    0.0000 H   0  0  0  0  0  0  0  0  0  0  0  0
   13.1548    0.7130    0.0000 H   0  0  0  0  0  0  0  0  0  0  0  0
   12.4267    0.3888    0.0000 H   0  0  0  0  0  0  0  0  0  0  0  0
   20.1368    2.2344    0.0000 H   0  0  0  0  0  0  0  0  0  0  0  0
   20.8649    2.5586    0.0000 H   0  0  0  0  0  0  0  0  0  0  0  0
   26.9367    3.2513    0.0000 H   0  0  0  0  0  0  0  0  0  0  0  0
   12.2252   -1.2880    0.0000 H   0  0  0  0  0  0  0  0  0  0  0  0
   12.9534   -0.9638    0.0000 H   0  0  0  0  0  0  0  0  0  0  0  0
   21.0663    4.2354    0.0000 H   0  0  0  0  0  0  0  0  0  0  0  0
   20.3382    3.9112    0.0000 H   0  0  0  0  0  0  0  0  0  0  0  0
   14.7259    1.9872    0.0000 H   0  0  0  0  0  0  0  0  0  0  0  0
   13.9073    2.3014    0.0000 H   0  0  0  0  0  0  0  0  0  0  0  0
   13.5931    1.4829    0.0000 H   0  0  0  0  0  0  0  0  0  0  0  0
   11.5725    0.0085    0.0000 H   0  0  0  0  0  0  0  0  0  0  0  0
   10.8443   -0.3157    0.0000 H   0  0  0  0  0  0  0  0  0  0  0  0
   24.8062    3.3964    0.0000 H   0  0  0  0  0  0  0  0  0  0  0  0
   25.6032    3.3964    0.0000 H   0  0  0  0  0  0  0  0  0  0  0  0
   10.6429   -1.9925    0.0000 H   0  0  0  0  0  0  0  0  0  0  0  0
   11.3711   -1.6683    0.0000 H   0  0  0  0  0  0  0  0  0  0  0  0
   24.7372    4.8463    0.0000 H   0  0  0  0  0  0  0  0  0  0  0  0
   23.9401    4.8463    0.0000 H   0  0  0  0  0  0  0  0  0  0  0  0
   22.4302    4.8845    0.0000 H   0  0  0  0  0  0  0  0  0  0  0  0
    9.5671   -0.7256    0.0000 H   0  0  0  0  0  0  0  0  0  0  0  0
    8.4079   -1.4005    0.0000 H   0  0  0  0  0  0  0  0  0  0  0  0
    7.6797   -1.7247    0.0000 H   0  0  0  0  0  0  0  0  0  0  0  0
    6.3191   -4.0764    0.0000 H   0  0  0  0  0  0  0  0  0  0  0  0
    6.6124   -1.2858    0.0000 H   0  0  0  0  0  0  0  0  0  0  0  0
    4.0490   -2.4271    0.0000 H   0  0  0  0  0  0  0  0  0  0  0  0
    1.9446   -5.3309    0.0000 H   0  0  0  0  0  0  0  0  0  0  0  0
    2.1890   -8.3713    0.0000 H   0  0  0  0  0  0  0  0  0  0  0  0
    2.8090   -8.9913    0.0000 H   0  0  0  0  0  0  0  0  0  0  0  0
    3.4290   -8.3713    0.0000 H   0  0  0  0  0  0  0  0  0  0  0  0
  1 65  1  0  0  0  0
  1 66  1  0  0  0  0
  2 25  1  0  0  0  0
  2 89  1  0  0  0  0
  3 49  2  0  0  0  0
  4 55  2  0  0  0  0
  5 56  1  0  0  0  0
  5 57  1  0  0  0  0
  6 15  1  0  0  0  0
  6 21  1  0  0  0  0
  6 22  1  0  0  0  0
  7 40  1  0  0  0  0
  7 42  1  0  0  0  0
  7 47  1  0  0  0  0
  8 35  1  0  0  0  0
  8 49  1  0  0  0  0
  8112  1  0  0  0  0
  9 10  1  0  0  0  0
  9 46  1  0  0  0  0
  9 54  1  0  0  0  0
 10 12  2  0  0  0  0
 11 51  1  0  0  0  0
 11 55  1  0  0  0  0
 11129  1  0  0  0  0
 12 53  1  0  0  0  0
 13 59  1  0  0  0  0
 13 61  2  0  0  0  0
 14 64  1  0  0  0  0
 14 66  2  0  0  0  0
 15 16  1  0  0  0  0
 15 17  1  0  0  0  0
 15 68  1  0  0  0  0
 16 18  1  0  0  0  0
 16 69  1  0  0  0  0
 16 70  1  0  0  0  0
 17 19  1  0  0  0  0
 17 71  1  0  0  0  0
 17 72  1  0  0  0  0
 18 20  1  0  0  0  0
 18 73  1  0  0  0  0
 18 74  1  0  0  0  0
 19 20  2  0  0  0  0
 19 24  1  0  0  0  0
 20 25  1  0  0  0  0
 21 23  1  0  0  0  0
 21 75  1  0  0  0  0
 21 76  1  0  0  0  0
 22 26  1  0  0  0  0
 22 77  1  0  0  0  0
 22 78  1  0  0  0  0
 23 29  1  0  0  0  0
 23 79  1  0  0  0  0
 23 80  1  0  0  0  0
 24 27  2  0  0  0  0
 24 81  1  0  0  0  0
 25 28  2  0  0  0  0
 26 30  1  0  0  0  0
 26 82  1  0  0  0  0
 26 83  1  0  0  0  0
 27 28  1  0  0  0  0
 27 84  1  0  0  0  0
 28 85  1  0  0  0  0
 29 31  2  0  0  0  0
 29 32  1  0  0  0  0
 30 86  1  0  0  0  0
 30 87  1  0  0  0  0
 30 88  1  0  0  0  0
 31 33  1  0  0  0  0
 31 90  1  0  0  0  0
 32 34  2  0  0  0  0
 32 91  1  0  0  0  0
 33 35  2  0  0  0  0
 33 92  1  0  0  0  0
 34 35  1  0  0  0  0
 34 93  1  0  0  0  0
 36 37  1  0  0  0  0
 36 38  1  0  0  0  0
 36 94  1  0  0  0  0
 36 95  1  0  0  0  0
 37 39  1  0  0  0  0
 37 96  1  0  0  0  0
 37 97  1  0  0  0  0
 38 40  1  0  0  0  0
 38 98  1  0  0  0  0
 38 99  1  0  0  0  0
 39 41  1  0  0  0  0
 39100  1  0  0  0  0
 39101  1  0  0  0  0
 40102  1  0  0  0  0
 40103  1  0  0  0  0
 41 44  1  0  0  0  0
 41104  1  0  0  0  0
 41105  1  0  0  0  0
 42 43  1  0  0  0  0
 42106  1  0  0  0  0
 42107  1  0  0  0  0
 43 45  1  0  0  0  0
 43108  1  0  0  0  0
 43109  1  0  0  0  0
 44 46  1  0  0  0  0
 44110  1  0  0  0  0
 44111  1  0  0  0  0
 45 48  1  0  0  0  0
 45113  1  0  0  0  0
 45114  1  0  0  0  0
 46115  1  0  0  0  0
 46116  1  0  0  0  0
 47117  1  0  0  0  0
 47118  1  0  0  0  0
 47119  1  0  0  0  0
 48 51  1  0  0  0  0
 48120  1  0  0  0  0
 48121  1  0  0  0  0
 49 50  1  0  0  0  0
 50 52  1  0  0  0  0
 50122  1  0  0  0  0
 50123  1  0  0  0  0
 51124  1  0  0  0  0
 51125  1  0  0  0  0
 52 53  1  0  0  0  0
 52126  1  0  0  0  0
 52127  1  0  0  0  0
 53 54  2  0  0  0  0
 54128  1  0  0  0  0
 55 56  1  0  0  0  0
 56130  1  0  0  0  0
 56131  1  0  0  0  0
 57 58  1  0  0  0  0
 57 59  2  0  0  0  0
 58 60  2  0  0  0  0
 58132  1  0  0  0  0
 59133  1  0  0  0  0
 60 61  1  0  0  0  0
 60 62  1  0  0  0  0
 61134  1  0  0  0  0
 62 63  3  0  0  0  0
 63 64  1  0  0  0  0
 64 65  2  0  0  0  0
 65135  1  0  0  0  0
 66 67  1  0  0  0  0
 67136  1  0  0  0  0
 67137  1  0  0  0  0
 67138  1  0  0  0  0
M  END
> <PUBCHEM_COMPOUND_CID>
145984484

> <PUBCHEM_COMPOUND_CANONICALIZED>
1

> <PUBCHEM_CACTVS_COMPLEXITY>
1480

> <PUBCHEM_CACTVS_HBOND_ACCEPTOR>
11

> <PUBCHEM_CACTVS_HBOND_DONOR>
3

> <PUBCHEM_CACTVS_ROTATABLE_BOND>
30

> <PUBCHEM_CACTVS_SUBSKEYS>
AAADcfB/+ABAAAAAAAAAAAAAAAAAAWLAAAA8YMEAAAAAAADB/AAAHgQYCAAADCzl3ga+x5PIFgjuEzV3VA6C/KRx+jgY2LV/fJgOZvLmsZ+XeCjk1hH4+Ae80bMOiAABAAAYAAAQAAKAADAAAAAAAAAAAA==

> <PUBCHEM_IUPAC_OPENEYE_NAME>
N-[4-[2-[(5-hydroxytetralin-2-yl)-propyl-amino]ethyl]phenyl]-3-[1-[8-[methyl-[5-[[2-[[5-[2-(2-methylthiazol-4-yl)ethynyl]-3-pyridyl]oxy]acetyl]amino]pentyl]amino]octyl]triazol-4-yl]propanamide

> <PUBCHEM_IUPAC_CAS_NAME>
N-[4-[2-[(5-hydroxy-1,2,3,4-tetrahydronaphthalen-2-yl)-propylamino]ethyl]phenyl]-3-[1-[8-[methyl-[5-[[2-[[5-[2-(2-methyl-4-thiazolyl)ethynyl]-3-pyridinyl]oxy]-1-oxoethyl]amino]pentyl]amino]octyl]-4-triazolyl]propanamide

> <PUBCHEM_IUPAC_NAME_MARKUP>
<I>N</I>-[4-[2-[(5-hydroxy-1,2,3,4-tetrahydronaphthalen-2-yl)-propylamino]ethyl]phenyl]-3-[1-[8-[methyl-[5-[[2-[5-[2-(2-methyl-1,3-thiazol-4-yl)ethynyl]pyridin-3-yl]oxyacetyl]amino]pentyl]amino]octyl]triazol-4-yl]propanamide

> <PUBCHEM_IUPAC_NAME>
N-[4-[2-[(5-hydroxy-1,2,3,4-tetrahydronaphthalen-2-yl)-propylamino]ethyl]phenyl]-3-[1-[8-[methyl-[5-[[2-[5-[2-(2-methyl-1,3-thiazol-4-yl)ethynyl]pyridin-3-yl]oxyacetyl]amino]pentyl]amino]octyl]triazol-4-yl]propanamide

> <PUBCHEM_IUPAC_SYSTEMATIC_NAME>
3-[1-[8-[methyl-[5-[2-[5-[2-(2-methyl-1,3-thiazol-4-yl)ethynyl]pyridin-3-yl]oxyethanoylamino]pentyl]amino]octyl]-1,2,3-triazol-4-yl]-N-[4-[2-[(5-oxidanyl-1,2,3,4-tetrahydronaphthalen-2-yl)-propyl-amino]ethyl]phenyl]propanamide

> <PUBCHEM_IUPAC_TRADITIONAL_NAME>
N-[4-[2-[(5-hydroxytetralin-2-yl)-propyl-amino]ethyl]phenyl]-3-[1-[8-[methyl-[5-[[2-[[5-[2-(2-methylthiazol-4-yl)ethynyl]-3-pyridyl]oxy]acetyl]amino]pentyl]amino]octyl]triazol-4-yl]propionamide

> <PUBCHEM_IUPAC_INCHI>
InChI=1S/C53H71N9O4S/c1-4-29-61(48-24-25-50-44(35-48)15-14-16-51(50)63)33-27-42-17-20-45(21-18-42)57-52(64)26-23-46-38-62(59-58-46)32-13-8-6-5-7-11-30-60(3)31-12-9-10-28-55-53(65)39-66-49-34-43(36-54-37-49)19-22-47-40-67-41(2)56-47/h14-18,20-21,34,36-38,40,48,63H,4-13,23-33,35,39H2,1-3H3,(H,55,65)(H,57,64)

> <PUBCHEM_IUPAC_INCHIKEY>
JARVFDGWRKYKRC-UHFFFAOYSA-N

> <PUBCHEM_XLOGP3_AA>
9

> <PUBCHEM_EXACT_MASS>
929.53497295

> <PUBCHEM_MOLECULAR_FORMULA>
C53H71N9O4S

> <PUBCHEM_MOLECULAR_WEIGHT>
930.3

> <PUBCHEM_OPENEYE_CAN_SMILES>
CCCN(CCC1=CC=C(C=C1)NC(=O)CCC2=CN(N=N2)CCCCCCCCN(C)CCCCCNC(=O)COC3=CN=CC(=C3)C#CC4=CSC(=N4)C)C5CCC6=C(C5)C=CC=C6O

> <PUBCHEM_OPENEYE_ISO_SMILES>
CCCN(CCC1=CC=C(C=C1)NC(=O)CCC2=CN(N=N2)CCCCCCCCN(C)CCCCCNC(=O)COC3=CN=CC(=C3)C#CC4=CSC(=N4)C)C5CCC6=C(C5)C=CC=C6O

> <PUBCHEM_CACTVS_TPSA>
179

> <PUBCHEM_MONOISOTOPIC_WEIGHT>
929.53497295

> <PUBCHEM_TOTAL_CHARGE>
0

> <PUBCHEM_HEAVY_ATOM_COUNT>
67

> <PUBCHEM_ATOM_DEF_STEREO_COUNT>
0

> <PUBCHEM_ATOM_UDEF_STEREO_COUNT>
1

> <PUBCHEM_BOND_DEF_STEREO_COUNT>
0

> <PUBCHEM_BOND_UDEF_STEREO_COUNT>
0

> <PUBCHEM_ISOTOPIC_ATOM_COUNT>
0

> <PUBCHEM_COMPONENT_COUNT>
1

> <PUBCHEM_CACTVS_TAUTO_COUNT>
-1

> <PUBCHEM_COORDINATE_TYPE>
1
5
255

> <PUBCHEM_BONDANNOTATIONS>
1  65  8
1  66  8
10  12  8
12  53  8
13  59  8
13  61  8
14  64  8
14  66  8
19  20  8
19  24  8
20  25  8
24  27  8
25  28  8
27  28  8
29  31  8
29  32  8
31  33  8
32  34  8
33  35  8
34  35  8
53  54  8
57  58  8
57  59  8
58  60  8
15  6  3
60  61  8
64  65  8
9  10  8
9  54  8

$$$$
