24882193
  -OEChem-09292322032D

109116  0     0  0  0  0  0  0999 V2000
   18.0634    9.1537    0.0000 F   0  0  0  0  0  0  0  0  0  0  0  0
    2.0000   -5.2596    0.0000 F   0  0  0  0  0  0  0  0  0  0  0  0
   20.6719    5.3859    0.0000 O   0  0  0  0  0  0  0  0  0  0  0  0
    5.4641   -8.2596    0.0000 O   0  0  0  0  0  0  0  0  0  0  0  0
   15.9631    0.5236    0.0000 N   0  0  0  0  0  0  0  0  0  0  0  0
   10.8064   -4.1034    0.0000 N   0  0  0  0  0  0  0  0  0  0  0  0
   20.4987    0.9685    0.0000 N   0  0  0  0  0  0  0  0  0  0  0  0
    9.8744   -8.5644    0.0000 N   0  0  0  0  0  0  0  0  0  0  0  0
   19.0872    4.6869    0.0000 N   0  0  0  0  0  0  0  0  0  0  0  0
    6.3301   -6.7596    0.0000 N   0  0  0  0  0  0  0  0  0  0  0  0
   17.9201    0.9360    0.0000 C   0  0  0  0  0  0  0  0  0  0  0  0
   10.1851   -6.0044    0.0000 C   0  0  0  0  0  0  0  0  0  0  0  0
   17.6094   -0.0145    0.0000 C   0  0  0  0  0  0  0  0  0  0  0  0
   17.2523    1.6804    0.0000 C   0  0  0  0  0  0  0  0  0  0  0  0
    9.5172   -5.2601    0.0000 C   0  0  0  0  0  0  0  0  0  0  0  0
   11.1636   -5.7982    0.0000 C   0  0  0  0  0  0  0  0  0  0  0  0
   16.6309   -0.2207    0.0000 C   0  0  0  0  0  0  0  0  0  0  0  0
   16.2737    1.4741    0.0000 C   0  0  0  0  0  0  0  0  0  0  0  0
    9.8279   -4.3096    0.0000 C   0  0  0  0  0  0  0  0  0  0  0  0
   11.4743   -4.8476    0.0000 C   0  0  0  0  0  0  0  0  0  0  0  0
   14.9846    0.3174    0.0000 C   0  0  0  0  0  0  0  0  0  0  0  0
   11.1171   -3.1528    0.0000 C   0  0  0  0  0  0  0  0  0  0  0  0
   18.8986    1.1423    0.0000 C   0  0  0  0  0  0  0  0  0  0  0  0
    9.8744   -6.9549    0.0000 C   0  0  0  0  0  0  0  0  0  0  0  0
   14.6739   -0.6331    0.0000 C   0  0  0  0  0  0  0  0  0  0  0  0
   12.0956   -2.9466    0.0000 C   0  0  0  0  0  0  0  0  0  0  0  0
   13.6954   -0.8393    0.0000 C   0  0  0  0  0  0  0  0  0  0  0  0
   12.4062   -1.9961    0.0000 C   0  0  0  0  0  0  0  0  0  0  0  0
   13.3847   -1.7899    0.0000 C   0  0  0  0  0  0  0  0  0  0  0  0
   19.3037    2.0500    0.0000 C   0  0  0  0  0  0  0  0  0  0  0  0
    8.9282   -7.2596    0.0000 C   0  0  0  0  0  0  0  0  0  0  0  0
   19.6356    0.4752    0.0000 C   0  0  0  0  0  0  0  0  0  0  0  0
   10.4580   -7.7596    0.0000 C   0  0  0  0  0  0  0  0  0  0  0  0
   20.2979    1.9421    0.0000 C   0  0  0  0  0  0  0  0  0  0  0  0
    8.9282   -8.2596    0.0000 C   0  0  0  0  0  0  0  0  0  0  0  0
   18.9001    2.9650    0.0000 C   0  0  0  0  0  0  0  0  0  0  0  0
    8.0622   -6.7596    0.0000 C   0  0  0  0  0  0  0  0  0  0  0  0
   20.8885    2.7491    0.0000 C   0  0  0  0  0  0  0  0  0  0  0  0
    8.0622   -8.7596    0.0000 C   0  0  0  0  0  0  0  0  0  0  0  0
   19.4907    3.7720    0.0000 C   0  0  0  0  0  0  0  0  0  0  0  0
    7.1962   -7.2596    0.0000 C   0  0  0  0  0  0  0  0  0  0  0  0
   20.4849    3.6640    0.0000 C   0  0  0  0  0  0  0  0  0  0  0  0
    7.1962   -8.2596    0.0000 C   0  0  0  0  0  0  0  0  0  0  0  0
   19.6777    5.4939    0.0000 C   0  0  0  0  0  0  0  0  0  0  0  0
    5.4641   -7.2596    0.0000 C   0  0  0  0  0  0  0  0  0  0  0  0
   19.2742    6.4088    0.0000 C   0  0  0  0  0  0  0  0  0  0  0  0
    4.5981   -6.7596    0.0000 C   0  0  0  0  0  0  0  0  0  0  0  0
   18.2800    6.5168    0.0000 C   0  0  0  0  0  0  0  0  0  0  0  0
    4.5981   -5.7596    0.0000 C   0  0  0  0  0  0  0  0  0  0  0  0
   19.8647    7.2158    0.0000 C   0  0  0  0  0  0  0  0  0  0  0  0
    3.7320   -7.2596    0.0000 C   0  0  0  0  0  0  0  0  0  0  0  0
   17.8764    7.4318    0.0000 C   0  0  0  0  0  0  0  0  0  0  0  0
    3.7320   -5.2596    0.0000 C   0  0  0  0  0  0  0  0  0  0  0  0
   19.4612    8.1308    0.0000 C   0  0  0  0  0  0  0  0  0  0  0  0
    2.8660   -6.7596    0.0000 C   0  0  0  0  0  0  0  0  0  0  0  0
   18.4670    8.2388    0.0000 C   0  0  0  0  0  0  0  0  0  0  0  0
    2.8660   -5.7596    0.0000 C   0  0  0  0  0  0  0  0  0  0  0  0
   18.3342    0.4746    0.0000 H   0  0  0  0  0  0  0  0  0  0  0  0
    9.5784   -6.1322    0.0000 H   0  0  0  0  0  0  0  0  0  0  0  0
   17.6300   -0.6341    0.0000 H   0  0  0  0  0  0  0  0  0  0  0  0
   18.2232   -0.1018    0.0000 H   0  0  0  0  0  0  0  0  0  0  0  0
   17.7786    2.0080    0.0000 H   0  0  0  0  0  0  0  0  0  0  0  0
   17.0210    2.2556    0.0000 H   0  0  0  0  0  0  0  0  0  0  0  0
    8.9703   -4.9681    0.0000 H   0  0  0  0  0  0  0  0  0  0  0  0
    9.1347   -5.7480    0.0000 H   0  0  0  0  0  0  0  0  0  0  0  0
   11.1842   -6.4178    0.0000 H   0  0  0  0  0  0  0  0  0  0  0  0
   11.7774   -5.8855    0.0000 H   0  0  0  0  0  0  0  0  0  0  0  0
   16.1046   -0.5483    0.0000 H   0  0  0  0  0  0  0  0  0  0  0  0
   16.8622   -0.7959    0.0000 H   0  0  0  0  0  0  0  0  0  0  0  0
   16.2532    2.0938    0.0000 H   0  0  0  0  0  0  0  0  0  0  0  0
   15.6599    1.5615    0.0000 H   0  0  0  0  0  0  0  0  0  0  0  0
    9.8073   -3.6899    0.0000 H   0  0  0  0  0  0  0  0  0  0  0  0
    9.2141   -4.2222    0.0000 H   0  0  0  0  0  0  0  0  0  0  0  0
   12.0212   -5.1397    0.0000 H   0  0  0  0  0  0  0  0  0  0  0  0
   11.8568   -4.3597    0.0000 H   0  0  0  0  0  0  0  0  0  0  0  0
   14.9640    0.9370    0.0000 H   0  0  0  0  0  0  0  0  0  0  0  0
   14.3708    0.4047    0.0000 H   0  0  0  0  0  0  0  0  0  0  0  0
   11.0965   -2.5332    0.0000 H   0  0  0  0  0  0  0  0  0  0  0  0
   10.5033   -3.0655    0.0000 H   0  0  0  0  0  0  0  0  0  0  0  0
   14.6945   -1.2528    0.0000 H   0  0  0  0  0  0  0  0  0  0  0  0
   15.2877   -0.7205    0.0000 H   0  0  0  0  0  0  0  0  0  0  0  0
   12.1161   -3.5663    0.0000 H   0  0  0  0  0  0  0  0  0  0  0  0
   12.7094   -3.0340    0.0000 H   0  0  0  0  0  0  0  0  0  0  0  0
   13.6748   -0.2197    0.0000 H   0  0  0  0  0  0  0  0  0  0  0  0
   13.0816   -0.7520    0.0000 H   0  0  0  0  0  0  0  0  0  0  0  0
   12.3857   -1.3764    0.0000 H   0  0  0  0  0  0  0  0  0  0  0  0
   11.7924   -1.9087    0.0000 H   0  0  0  0  0  0  0  0  0  0  0  0
   13.4053   -2.4095    0.0000 H   0  0  0  0  0  0  0  0  0  0  0  0
   13.9986   -1.8772    0.0000 H   0  0  0  0  0  0  0  0  0  0  0  0
   19.5687   -0.1412    0.0000 H   0  0  0  0  0  0  0  0  0  0  0  0
   11.0780   -7.7596    0.0000 H   0  0  0  0  0  0  0  0  0  0  0  0
   21.0637    0.7134    0.0000 H   0  0  0  0  0  0  0  0  0  0  0  0
   10.0670   -9.1537    0.0000 H   0  0  0  0  0  0  0  0  0  0  0  0
   18.2838    3.0319    0.0000 H   0  0  0  0  0  0  0  0  0  0  0  0
    8.0622   -6.1396    0.0000 H   0  0  0  0  0  0  0  0  0  0  0  0
   21.5048    2.6821    0.0000 H   0  0  0  0  0  0  0  0  0  0  0  0
    8.0622   -9.3796    0.0000 H   0  0  0  0  0  0  0  0  0  0  0  0
   20.8510    4.1643    0.0000 H   0  0  0  0  0  0  0  0  0  0  0  0
    6.6592   -8.5696    0.0000 H   0  0  0  0  0  0  0  0  0  0  0  0
   18.4708    4.7539    0.0000 H   0  0  0  0  0  0  0  0  0  0  0  0
    6.3301   -6.1396    0.0000 H   0  0  0  0  0  0  0  0  0  0  0  0
   17.9138    6.0165    0.0000 H   0  0  0  0  0  0  0  0  0  0  0  0
    5.1350   -5.4496    0.0000 H   0  0  0  0  0  0  0  0  0  0  0  0
   20.4811    7.1489    0.0000 H   0  0  0  0  0  0  0  0  0  0  0  0
    3.7320   -7.8796    0.0000 H   0  0  0  0  0  0  0  0  0  0  0  0
   17.2601    7.4987    0.0000 H   0  0  0  0  0  0  0  0  0  0  0  0
    3.7320   -4.6396    0.0000 H   0  0  0  0  0  0  0  0  0  0  0  0
   19.8273    8.6311    0.0000 H   0  0  0  0  0  0  0  0  0  0  0  0
    2.3291   -7.0696    0.0000 H   0  0  0  0  0  0  0  0  0  0  0  0
  1 56  1  0  0  0  0
  2 57  1  0  0  0  0
  3 44  2  0  0  0  0
  4 45  2  0  0  0  0
  5 17  1  0  0  0  0
  5 18  1  0  0  0  0
  5 21  1  0  0  0  0
  6 19  1  0  0  0  0
  6 20  1  0  0  0  0
  6 22  1  0  0  0  0
  7 32  1  0  0  0  0
  7 34  1  0  0  0  0
  7 92  1  0  0  0  0
  8 33  1  0  0  0  0
  8 35  1  0  0  0  0
  8 93  1  0  0  0  0
  9 40  1  0  0  0  0
  9 44  1  0  0  0  0
  9100  1  0  0  0  0
 10 41  1  0  0  0  0
 10 45  1  0  0  0  0
 10101  1  0  0  0  0
 11 13  1  0  0  0  0
 11 14  1  0  0  0  0
 11 23  1  0  0  0  0
 11 58  1  0  0  0  0
 12 15  1  0  0  0  0
 12 16  1  0  0  0  0
 12 24  1  0  0  0  0
 12 59  1  0  0  0  0
 13 17  1  0  0  0  0
 13 60  1  0  0  0  0
 13 61  1  0  0  0  0
 14 18  1  0  0  0  0
 14 62  1  0  0  0  0
 14 63  1  0  0  0  0
 15 19  1  0  0  0  0
 15 64  1  0  0  0  0
 15 65  1  0  0  0  0
 16 20  1  0  0  0  0
 16 66  1  0  0  0  0
 16 67  1  0  0  0  0
 17 68  1  0  0  0  0
 17 69  1  0  0  0  0
 18 70  1  0  0  0  0
 18 71  1  0  0  0  0
 19 72  1  0  0  0  0
 19 73  1  0  0  0  0
 20 74  1  0  0  0  0
 20 75  1  0  0  0  0
 21 25  1  0  0  0  0
 21 76  1  0  0  0  0
 21 77  1  0  0  0  0
 22 26  1  0  0  0  0
 22 78  1  0  0  0  0
 22 79  1  0  0  0  0
 23 30  1  0  0  0  0
 23 32  2  0  0  0  0
 24 31  1  0  0  0  0
 24 33  2  0  0  0  0
 25 27  1  0  0  0  0
 25 80  1  0  0  0  0
 25 81  1  0  0  0  0
 26 28  1  0  0  0  0
 26 82  1  0  0  0  0
 26 83  1  0  0  0  0
 27 29  1  0  0  0  0
 27 84  1  0  0  0  0
 27 85  1  0  0  0  0
 28 29  1  0  0  0  0
 28 86  1  0  0  0  0
 28 87  1  0  0  0  0
 29 88  1  0  0  0  0
 29 89  1  0  0  0  0
 30 34  2  0  0  0  0
 30 36  1  0  0  0  0
 31 35  2  0  0  0  0
 31 37  1  0  0  0  0
 32 90  1  0  0  0  0
 33 91  1  0  0  0  0
 34 38  1  0  0  0  0
 35 39  1  0  0  0  0
 36 40  2  0  0  0  0
 36 94  1  0  0  0  0
 37 41  2  0  0  0  0
 37 95  1  0  0  0  0
 38 42  2  0  0  0  0
 38 96  1  0  0  0  0
 39 43  2  0  0  0  0
 39 97  1  0  0  0  0
 40 42  1  0  0  0  0
 41 43  1  0  0  0  0
 42 98  1  0  0  0  0
 43 99  1  0  0  0  0
 44 46  1  0  0  0  0
 45 47  1  0  0  0  0
 46 48  2  0  0  0  0
 46 50  1  0  0  0  0
 47 49  2  0  0  0  0
 47 51  1  0  0  0  0
 48 52  1  0  0  0  0
 48102  1  0  0  0  0
 49 53  1  0  0  0  0
 49103  1  0  0  0  0
 50 54  2  0  0  0  0
 50104  1  0  0  0  0
 51 55  2  0  0  0  0
 51105  1  0  0  0  0
 52 56  2  0  0  0  0
 52106  1  0  0  0  0
 53 57  2  0  0  0  0
 53107  1  0  0  0  0
 54 56  1  0  0  0  0
 54108  1  0  0  0  0
 55 57  1  0  0  0  0
 55109  1  0  0  0  0
M  END
> <PUBCHEM_COMPOUND_CID>
24882193

> <PUBCHEM_COMPOUND_CANONICALIZED>
1

> <PUBCHEM_CACTVS_COMPLEXITY>
1170

> <PUBCHEM_CACTVS_HBOND_ACCEPTOR>
6

> <PUBCHEM_CACTVS_HBOND_DONOR>
4

> <PUBCHEM_CACTVS_ROTATABLE_BOND>
14

> <PUBCHEM_CACTVS_SUBSKEYS>
AAADcfB/sYAAAAAAAAAAAAAAAAAAAWLAAAA8eMGCAAAAAFgB/gAAHwAQAAAADQjBngw8wPPJkACoAzV3VACCgCA1AiAI2aE4ZNgIIPLAlZGEIQhglADIyYcYiMCOgACAQAACAAAAAQCAAAQAAAAAAAAAAA==

> <PUBCHEM_IUPAC_OPENEYE_NAME>
4-fluoro-N-[3-[1-[7-[4-[5-[(4-fluorobenzoyl)amino]-1H-indol-3-yl]-1-piperidyl]heptyl]-4-piperidyl]-1H-indol-5-yl]benzamide

> <PUBCHEM_IUPAC_CAS_NAME>
4-fluoro-N-[3-[1-[7-[4-[5-[[(4-fluorophenyl)-oxomethyl]amino]-1H-indol-3-yl]-1-piperidinyl]heptyl]-4-piperidinyl]-1H-indol-5-yl]benzamide

> <PUBCHEM_IUPAC_NAME_MARKUP>
4-fluoro-<I>N</I>-[3-[1-[7-[4-[5-[(4-fluorobenzoyl)amino]-1<I>H</I>-indol-3-yl]piperidin-1-yl]heptyl]piperidin-4-yl]-1<I>H</I>-indol-5-yl]benzamide

> <PUBCHEM_IUPAC_NAME>
4-fluoro-N-[3-[1-[7-[4-[5-[(4-fluorobenzoyl)amino]-1H-indol-3-yl]piperidin-1-yl]heptyl]piperidin-4-yl]-1H-indol-5-yl]benzamide

> <PUBCHEM_IUPAC_SYSTEMATIC_NAME>
4-fluoranyl-N-[3-[1-[7-[4-[5-[(4-fluorophenyl)carbonylamino]-1H-indol-3-yl]piperidin-1-yl]heptyl]piperidin-4-yl]-1H-indol-5-yl]benzamide

> <PUBCHEM_IUPAC_TRADITIONAL_NAME>
4-fluoro-N-[3-[1-[7-[4-[5-[(4-fluorobenzoyl)amino]-1H-indol-3-yl]piperidino]heptyl]-4-piperidyl]-1H-indol-5-yl]benzamide

> <PUBCHEM_IUPAC_INCHI>
InChI=1S/C47H52F2N6O2/c48-36-10-6-34(7-11-36)46(56)52-38-14-16-44-40(28-38)42(30-50-44)32-18-24-54(25-19-32)22-4-2-1-3-5-23-55-26-20-33(21-27-55)43-31-51-45-17-15-39(29-41(43)45)53-47(57)35-8-12-37(49)13-9-35/h6-17,28-33,50-51H,1-5,18-27H2,(H,52,56)(H,53,57)

> <PUBCHEM_IUPAC_INCHIKEY>
HXPLFONFARJCJA-UHFFFAOYSA-N

> <PUBCHEM_XLOGP3_AA>
8.9

> <PUBCHEM_EXACT_MASS>
770.41198125

> <PUBCHEM_MOLECULAR_FORMULA>
C47H52F2N6O2

> <PUBCHEM_MOLECULAR_WEIGHT>
770.9

> <PUBCHEM_OPENEYE_CAN_SMILES>
C1CN(CCC1C2=CNC3=C2C=C(C=C3)NC(=O)C4=CC=C(C=C4)F)CCCCCCCN5CCC(CC5)C6=CNC7=C6C=C(C=C7)NC(=O)C8=CC=C(C=C8)F

> <PUBCHEM_OPENEYE_ISO_SMILES>
C1CN(CCC1C2=CNC3=C2C=C(C=C3)NC(=O)C4=CC=C(C=C4)F)CCCCCCCN5CCC(CC5)C6=CNC7=C6C=C(C=C7)NC(=O)C8=CC=C(C=C8)F

> <PUBCHEM_CACTVS_TPSA>
96.3

> <PUBCHEM_MONOISOTOPIC_WEIGHT>
770.41198125

> <PUBCHEM_TOTAL_CHARGE>
0

> <PUBCHEM_HEAVY_ATOM_COUNT>
57

> <PUBCHEM_ATOM_DEF_STEREO_COUNT>
0

> <PUBCHEM_ATOM_UDEF_STEREO_COUNT>
0

> <PUBCHEM_BOND_DEF_STEREO_COUNT>
0

> <PUBCHEM_BOND_UDEF_STEREO_COUNT>
0

> <PUBCHEM_ISOTOPIC_ATOM_COUNT>
0

> <PUBCHEM_COMPONENT_COUNT>
1

> <PUBCHEM_CACTVS_TAUTO_COUNT>
-1

> <PUBCHEM_COORDINATE_TYPE>
1
5
255

> <PUBCHEM_BONDANNOTATIONS>
23  30  8
23  32  8
24  31  8
24  33  8
30  34  8
30  36  8
31  35  8
31  37  8
34  38  8
35  39  8
36  40  8
37  41  8
38  42  8
39  43  8
40  42  8
41  43  8
46  48  8
46  50  8
47  49  8
47  51  8
48  52  8
49  53  8
50  54  8
51  55  8
52  56  8
53  57  8
54  56  8
55  57  8
7  32  8
7  34  8
8  33  8
8  35  8

$$$$
