76328712
  -OEChem-09292322342D

 47 48  0     1  0  0  0  0  0999 V2000
    9.2644    0.0000    0.0000 I   0  0  0  0  0  0  0  0  0  0  0  0
    4.0682    1.0000    0.0000 O   0  0  0  0  0  0  0  0  0  0  0  0
    0.5381    0.9758    0.0000 O   0  0  0  0  0  0  0  0  0  0  0  0
    6.6327    6.6695    0.0000 O   0  0  0  0  0  0  0  0  0  0  0  0
    4.0346    7.1695    0.0000 O   0  0  0  0  0  0  0  0  0  0  0  0
    5.7667    8.1695    0.0000 O   0  0  0  0  0  0  0  0  0  0  0  0
    4.9007    5.6695    0.0000 O   0  0  0  0  0  0  0  0  0  0  0  0
    6.6663    1.5000    0.0000 N   0  0  0  0  0  0  0  0  0  0  0  0
    4.9343    1.5000    0.0000 C   0  0  2  0  0  0  0  0  0  0  0  0
    4.9343    2.5000    0.0000 C   0  0  0  0  0  0  0  0  0  0  0  0
    4.0682    3.0000    0.0000 C   0  0  0  0  0  0  0  0  0  0  0  0
    5.8003    1.0000    0.0000 C   0  0  0  0  0  0  0  0  0  0  0  0
    3.2022    2.5000    0.0000 C   0  0  0  0  0  0  0  0  0  0  0  0
    3.2022    1.5000    0.0000 C   0  0  0  0  0  0  0  0  0  0  0  0
    2.3083    3.0347    0.0000 C   0  0  0  0  0  0  0  0  0  0  0  0
    2.3083    0.9653    0.0000 C   0  0  0  0  0  0  0  0  0  0  0  0
    7.5324    1.0000    0.0000 C   0  0  0  0  0  0  0  0  0  0  0  0
    1.4022    2.5208    0.0000 C   0  0  0  0  0  0  0  0  0  0  0  0
    1.4022    1.4792    0.0000 C   0  0  0  0  0  0  0  0  0  0  0  0
    8.3984    1.5000    0.0000 C   0  0  0  0  0  0  0  0  0  0  0  0
    9.2644    1.0000    0.0000 C   0  0  0  0  0  0  0  0  0  0  0  0
    8.3984    2.5000    0.0000 C   0  0  0  0  0  0  0  0  0  0  0  0
   10.1304    1.5000    0.0000 C   0  0  0  0  0  0  0  0  0  0  0  0
    9.2644    3.0000    0.0000 C   0  0  0  0  0  0  0  0  0  0  0  0
   10.1304    2.5000    0.0000 C   0  0  0  0  0  0  0  0  0  0  0  0
    5.7667    7.1695    0.0000 C   0  0  0  0  0  0  0  0  0  0  0  0
    4.9007    6.6695    0.0000 C   0  0  0  0  0  0  0  0  0  0  0  0
    4.9343    0.8800    0.0000 H   0  0  0  0  0  0  0  0  0  0  0  0
    5.5449    2.3923    0.0000 H   0  0  0  0  0  0  0  0  0  0  0  0
    5.1463    3.0826    0.0000 H   0  0  0  0  0  0  0  0  0  0  0  0
    4.4668    3.4750    0.0000 H   0  0  0  0  0  0  0  0  0  0  0  0
    3.6697    3.4750    0.0000 H   0  0  0  0  0  0  0  0  0  0  0  0
    5.4018    0.5251    0.0000 H   0  0  0  0  0  0  0  0  0  0  0  0
    6.1988    0.5251    0.0000 H   0  0  0  0  0  0  0  0  0  0  0  0
    6.6663    2.1200    0.0000 H   0  0  0  0  0  0  0  0  0  0  0  0
    2.3154    3.6546    0.0000 H   0  0  0  0  0  0  0  0  0  0  0  0
    2.3154    0.3454    0.0000 H   0  0  0  0  0  0  0  0  0  0  0  0
    7.1338    0.5251    0.0000 H   0  0  0  0  0  0  0  0  0  0  0  0
    7.9309    0.5251    0.0000 H   0  0  0  0  0  0  0  0  0  0  0  0
    0.8665    2.8329    0.0000 H   0  0  0  0  0  0  0  0  0  0  0  0
    7.8614    2.8100    0.0000 H   0  0  0  0  0  0  0  0  0  0  0  0
    0.0000    1.2838    0.0000 H   0  0  0  0  0  0  0  0  0  0  0  0
   10.6674    1.1900    0.0000 H   0  0  0  0  0  0  0  0  0  0  0  0
    9.2644    3.6200    0.0000 H   0  0  0  0  0  0  0  0  0  0  0  0
   10.6674    2.8100    0.0000 H   0  0  0  0  0  0  0  0  0  0  0  0
    7.1697    6.9795    0.0000 H   0  0  0  0  0  0  0  0  0  0  0  0
    3.4977    6.8595    0.0000 H   0  0  0  0  0  0  0  0  0  0  0  0
  1 21  1  0  0  0  0
  2  9  1  0  0  0  0
  2 14  1  0  0  0  0
  3 19  1  0  0  0  0
  3 42  1  0  0  0  0
  4 26  1  0  0  0  0
  4 46  1  0  0  0  0
  5 27  1  0  0  0  0
  5 47  1  0  0  0  0
  6 26  2  0  0  0  0
  7 27  2  0  0  0  0
  8 12  1  0  0  0  0
  8 17  1  0  0  0  0
  8 35  1  0  0  0  0
  9 10  1  0  0  0  0
  9 12  1  6  0  0  0
  9 28  1  0  0  0  0
 10 11  1  0  0  0  0
 10 29  1  0  0  0  0
 10 30  1  0  0  0  0
 11 13  1  0  0  0  0
 11 31  1  0  0  0  0
 11 32  1  0  0  0  0
 12 33  1  0  0  0  0
 12 34  1  0  0  0  0
 13 14  2  0  0  0  0
 13 15  1  0  0  0  0
 14 16  1  0  0  0  0
 15 18  2  0  0  0  0
 15 36  1  0  0  0  0
 16 19  2  0  0  0  0
 16 37  1  0  0  0  0
 17 20  1  0  0  0  0
 17 38  1  0  0  0  0
 17 39  1  0  0  0  0
 18 19  1  0  0  0  0
 18 40  1  0  0  0  0
 20 21  1  0  0  0  0
 20 22  2  0  0  0  0
 21 23  2  0  0  0  0
 22 24  1  0  0  0  0
 22 41  1  0  0  0  0
 23 25  1  0  0  0  0
 23 43  1  0  0  0  0
 24 25  2  0  0  0  0
 24 44  1  0  0  0  0
 25 45  1  0  0  0  0
 26 27  1  0  0  0  0
M  END
> <PUBCHEM_COMPOUND_CID>
76328712

> <PUBCHEM_COMPOUND_CANONICALIZED>
1

> <PUBCHEM_CACTVS_COMPLEXITY>
400

> <PUBCHEM_CACTVS_HBOND_ACCEPTOR>
7

> <PUBCHEM_CACTVS_HBOND_DONOR>
4

> <PUBCHEM_CACTVS_ROTATABLE_BOND>
5

> <PUBCHEM_CACTVS_SUBSKEYS>
AAADceB6OAAAAgAAAAAAAAAAAAAAAAAAAAA0YIAAAAAAAACRQAAAHgAwCAAADBTjmAYwDoLABgCIAiDSCAKCCAAgIAAIiIBODIgPJyKGsRuHeCjl0BWZuAeQ4KwOIAAACAAIAABAAAAQABAAAAAAAAAAAA==

> <PUBCHEM_IUPAC_OPENEYE_NAME>
(2R)-2-[[(2-iodophenyl)methylamino]methyl]chroman-7-ol;oxalic acid

> <PUBCHEM_IUPAC_CAS_NAME>
(2R)-2-[[(2-iodophenyl)methylamino]methyl]-3,4-dihydro-2H-1-benzopyran-7-ol;oxalic acid

> <PUBCHEM_IUPAC_NAME_MARKUP>
(2<I>R</I>)-2-[[(2-iodophenyl)methylamino]methyl]-3,4-dihydro-2<I>H</I>-chromen-7-ol;oxalic acid

> <PUBCHEM_IUPAC_NAME>
(2R)-2-[[(2-iodophenyl)methylamino]methyl]-3,4-dihydro-2H-chromen-7-ol;oxalic acid

> <PUBCHEM_IUPAC_SYSTEMATIC_NAME>
ethanedioic acid;(2R)-2-[[(2-iodanylphenyl)methylamino]methyl]-3,4-dihydro-2H-chromen-7-ol

> <PUBCHEM_IUPAC_TRADITIONAL_NAME>
(2R)-2-[[(2-iodobenzyl)amino]methyl]chroman-7-ol;oxalic acid

> <PUBCHEM_IUPAC_INCHI>
InChI=1S/C17H18INO2.C2H2O4/c18-16-4-2-1-3-13(16)10-19-11-15-8-6-12-5-7-14(20)9-17(12)21-15;3-1(4)2(5)6/h1-5,7,9,15,19-20H,6,8,10-11H2;(H,3,4)(H,5,6)/t15-;/m1./s1

> <PUBCHEM_IUPAC_INCHIKEY>
HFCWEPPDBZXYEG-XFULWGLBSA-N

> <PUBCHEM_EXACT_MASS>
485.03353

> <PUBCHEM_MOLECULAR_FORMULA>
C19H20INO6

> <PUBCHEM_MOLECULAR_WEIGHT>
485.3

> <PUBCHEM_OPENEYE_CAN_SMILES>
C1CC2=C(C=C(C=C2)O)OC1CNCC3=CC=CC=C3I.C(=O)(C(=O)O)O

> <PUBCHEM_OPENEYE_ISO_SMILES>
C1CC2=C(C=C(C=C2)O)O[C@H]1CNCC3=CC=CC=C3I.C(=O)(C(=O)O)O

> <PUBCHEM_CACTVS_TPSA>
116

> <PUBCHEM_MONOISOTOPIC_WEIGHT>
485.03353

> <PUBCHEM_TOTAL_CHARGE>
0

> <PUBCHEM_HEAVY_ATOM_COUNT>
27

> <PUBCHEM_ATOM_DEF_STEREO_COUNT>
1

> <PUBCHEM_ATOM_UDEF_STEREO_COUNT>
0

> <PUBCHEM_BOND_DEF_STEREO_COUNT>
0

> <PUBCHEM_BOND_UDEF_STEREO_COUNT>
0

> <PUBCHEM_ISOTOPIC_ATOM_COUNT>
0

> <PUBCHEM_COMPONENT_COUNT>
2

> <PUBCHEM_CACTVS_TAUTO_COUNT>
-1

> <PUBCHEM_COORDINATE_TYPE>
1
5
255

> <PUBCHEM_BONDANNOTATIONS>
13  14  8
13  15  8
14  16  8
15  18  8
16  19  8
18  19  8
20  21  8
20  22  8
21  23  8
22  24  8
23  25  8
24  25  8
9  12  6

$$$$
