135339818
  -OEChem-09292322452D

 57 60  0     0  0  0  0  0  0999 V2000
    2.0000    2.2162    0.0000 F   0  0  0  0  0  0  0  0  0  0  0  0
   11.5397   -1.2470    0.0000 O   0  0  0  0  0  0  0  0  0  0  0  0
   15.0698   -2.2229    0.0000 O   0  0  0  0  0  0  0  0  0  0  0  0
    7.2077   -0.7637    0.0000 N   0  0  0  0  0  0  0  0  0  0  0  0
    5.4718    0.2296    0.0000 N   0  0  0  0  0  0  0  0  0  0  0  0
   15.9359   -0.7229    0.0000 N   0  0  0  0  0  0  0  0  0  0  0  0
   15.0698    0.7771    0.0000 N   0  0  0  0  0  0  0  0  0  0  0  0
    6.3436   -1.2671    0.0000 C   0  0  0  0  0  0  0  0  0  0  0  0
    7.2038    0.2363    0.0000 C   0  0  0  0  0  0  0  0  0  0  0  0
    5.4756   -0.7704    0.0000 C   0  0  0  0  0  0  0  0  0  0  0  0
    6.3359    0.7329    0.0000 C   0  0  0  0  0  0  0  0  0  0  0  0
    8.0756   -1.2604    0.0000 C   0  0  0  0  0  0  0  0  0  0  0  0
    8.9397   -0.7571    0.0000 C   0  0  0  0  0  0  0  0  0  0  0  0
    4.6038    0.7262    0.0000 C   0  0  0  0  0  0  0  0  0  0  0  0
    9.8077   -1.2537    0.0000 C   0  0  0  0  0  0  0  0  0  0  0  0
   10.6718   -0.7504    0.0000 C   0  0  0  0  0  0  0  0  0  0  0  0
    4.6000    1.7262    0.0000 C   0  0  0  0  0  0  0  0  0  0  0  0
    3.7398    0.2229    0.0000 C   0  0  0  0  0  0  0  0  0  0  0  0
    3.7320    2.2229    0.0000 C   0  0  0  0  0  0  0  0  0  0  0  0
    2.8718    0.7196    0.0000 C   0  0  0  0  0  0  0  0  0  0  0  0
    2.8680    1.7196    0.0000 C   0  0  0  0  0  0  0  0  0  0  0  0
   12.4038   -0.7437    0.0000 C   0  0  0  0  0  0  0  0  0  0  0  0
   13.3099   -1.2576    0.0000 C   0  0  0  0  0  0  0  0  0  0  0  0
   14.2038   -0.7229    0.0000 C   0  0  0  0  0  0  0  0  0  0  0  0
   12.4038    0.2979    0.0000 C   0  0  0  0  0  0  0  0  0  0  0  0
   14.2038    0.2771    0.0000 C   0  0  0  0  0  0  0  0  0  0  0  0
   13.3099    0.8118    0.0000 C   0  0  0  0  0  0  0  0  0  0  0  0
   15.0698   -1.2229    0.0000 C   0  0  0  0  0  0  0  0  0  0  0  0
   15.9359    0.2771    0.0000 C   0  0  0  0  0  0  0  0  0  0  0  0
   16.8019   -1.2229    0.0000 C   0  0  0  0  0  0  0  0  0  0  0  0
    5.9469   -1.7436    0.0000 H   0  0  0  0  0  0  0  0  0  0  0  0
    6.7439   -1.7405    0.0000 H   0  0  0  0  0  0  0  0  0  0  0  0
    7.8148    0.1310    0.0000 H   0  0  0  0  0  0  0  0  0  0  0  0
    7.4136    0.8197    0.0000 H   0  0  0  0  0  0  0  0  0  0  0  0
    4.8646   -0.6651    0.0000 H   0  0  0  0  0  0  0  0  0  0  0  0
    5.2658   -1.3538    0.0000 H   0  0  0  0  0  0  0  0  0  0  0  0
    6.7326    1.2094    0.0000 H   0  0  0  0  0  0  0  0  0  0  0  0
    5.9355    1.2063    0.0000 H   0  0  0  0  0  0  0  0  0  0  0  0
    7.6789   -1.7369    0.0000 H   0  0  0  0  0  0  0  0  0  0  0  0
    8.4760   -1.7338    0.0000 H   0  0  0  0  0  0  0  0  0  0  0  0
    9.3364   -0.2806    0.0000 H   0  0  0  0  0  0  0  0  0  0  0  0
    8.5394   -0.2836    0.0000 H   0  0  0  0  0  0  0  0  0  0  0  0
    9.4110   -1.7302    0.0000 H   0  0  0  0  0  0  0  0  0  0  0  0
   10.2080   -1.7271    0.0000 H   0  0  0  0  0  0  0  0  0  0  0  0
   11.0684   -0.2739    0.0000 H   0  0  0  0  0  0  0  0  0  0  0  0
   10.2714   -0.2770    0.0000 H   0  0  0  0  0  0  0  0  0  0  0  0
    5.1357    2.0383    0.0000 H   0  0  0  0  0  0  0  0  0  0  0  0
    3.7421   -0.3971    0.0000 H   0  0  0  0  0  0  0  0  0  0  0  0
    3.7296    2.8429    0.0000 H   0  0  0  0  0  0  0  0  0  0  0  0
    2.3361    0.4075    0.0000 H   0  0  0  0  0  0  0  0  0  0  0  0
   13.3170   -1.8775    0.0000 H   0  0  0  0  0  0  0  0  0  0  0  0
   11.8681    0.6100    0.0000 H   0  0  0  0  0  0  0  0  0  0  0  0
   13.3170    1.4317    0.0000 H   0  0  0  0  0  0  0  0  0  0  0  0
   16.4728    0.5871    0.0000 H   0  0  0  0  0  0  0  0  0  0  0  0
   16.4919   -1.7598    0.0000 H   0  0  0  0  0  0  0  0  0  0  0  0
   17.3388   -1.5329    0.0000 H   0  0  0  0  0  0  0  0  0  0  0  0
   17.1119   -0.6860    0.0000 H   0  0  0  0  0  0  0  0  0  0  0  0
  1 21  1  0  0  0  0
  2 16  1  0  0  0  0
  2 22  1  0  0  0  0
  3 28  2  0  0  0  0
  4  8  1  0  0  0  0
  4  9  1  0  0  0  0
  4 12  1  0  0  0  0
  5 10  1  0  0  0  0
  5 11  1  0  0  0  0
  5 14  1  0  0  0  0
  6 28  1  0  0  0  0
  6 29  1  0  0  0  0
  6 30  1  0  0  0  0
  7 26  1  0  0  0  0
  7 29  2  0  0  0  0
  8 10  1  0  0  0  0
  8 31  1  0  0  0  0
  8 32  1  0  0  0  0
  9 11  1  0  0  0  0
  9 33  1  0  0  0  0
  9 34  1  0  0  0  0
 10 35  1  0  0  0  0
 10 36  1  0  0  0  0
 11 37  1  0  0  0  0
 11 38  1  0  0  0  0
 12 13  1  0  0  0  0
 12 39  1  0  0  0  0
 12 40  1  0  0  0  0
 13 15  1  0  0  0  0
 13 41  1  0  0  0  0
 13 42  1  0  0  0  0
 14 17  2  0  0  0  0
 14 18  1  0  0  0  0
 15 16  1  0  0  0  0
 15 43  1  0  0  0  0
 15 44  1  0  0  0  0
 16 45  1  0  0  0  0
 16 46  1  0  0  0  0
 17 19  1  0  0  0  0
 17 47  1  0  0  0  0
 18 20  2  0  0  0  0
 18 48  1  0  0  0  0
 19 21  2  0  0  0  0
 19 49  1  0  0  0  0
 20 21  1  0  0  0  0
 20 50  1  0  0  0  0
 22 23  2  0  0  0  0
 22 25  1  0  0  0  0
 23 24  1  0  0  0  0
 23 51  1  0  0  0  0
 24 26  2  0  0  0  0
 24 28  1  0  0  0  0
 25 27  2  0  0  0  0
 25 52  1  0  0  0  0
 26 27  1  0  0  0  0
 27 53  1  0  0  0  0
 29 54  1  0  0  0  0
 30 55  1  0  0  0  0
 30 56  1  0  0  0  0
 30 57  1  0  0  0  0
M  END
> <PUBCHEM_COMPOUND_CID>
135339818

> <PUBCHEM_COMPOUND_CANONICALIZED>
1

> <PUBCHEM_CACTVS_COMPLEXITY>
588

> <PUBCHEM_CACTVS_HBOND_ACCEPTOR>
6

> <PUBCHEM_CACTVS_HBOND_DONOR>
0

> <PUBCHEM_CACTVS_ROTATABLE_BOND>
7

> <PUBCHEM_CACTVS_SUBSKEYS>
AAADceB7sQAAAAAAAAAAAAAAAAAAAAAAAAA8YIEAAAAAAACBQAAAHwAAAAAADAzhmA4zxoMABACoAiVTdACCCAElIgAJiAEObMgMZjrE/ZuWOajkwhHI6ce6yBCOAEABAAACAAAAgAIAAAQAAAAAAAAAAA==

> <PUBCHEM_IUPAC_OPENEYE_NAME>
6-[4-[4-(4-fluorophenyl)piperazin-1-yl]butoxy]-3-methyl-quinazolin-4-one

> <PUBCHEM_IUPAC_CAS_NAME>
6-[4-[4-(4-fluorophenyl)-1-piperazinyl]butoxy]-3-methyl-4-quinazolinone

> <PUBCHEM_IUPAC_NAME_MARKUP>
6-[4-[4-(4-fluorophenyl)piperazin-1-yl]butoxy]-3-methylquinazolin-4-one

> <PUBCHEM_IUPAC_NAME>
6-[4-[4-(4-fluorophenyl)piperazin-1-yl]butoxy]-3-methylquinazolin-4-one

> <PUBCHEM_IUPAC_SYSTEMATIC_NAME>
6-[4-[4-(4-fluorophenyl)piperazin-1-yl]butoxy]-3-methyl-quinazolin-4-one

> <PUBCHEM_IUPAC_TRADITIONAL_NAME>
6-[4-[4-(4-fluorophenyl)piperazino]butoxy]-3-methyl-quinazolin-4-one

> <PUBCHEM_IUPAC_INCHI>
InChI=1S/C23H27FN4O2/c1-26-17-25-22-9-8-20(16-21(22)23(26)29)30-15-3-2-10-27-11-13-28(14-12-27)19-6-4-18(24)5-7-19/h4-9,16-17H,2-3,10-15H2,1H3

> <PUBCHEM_IUPAC_INCHIKEY>
ZEGLGARCMOTFDG-UHFFFAOYSA-N

> <PUBCHEM_XLOGP3_AA>
3.3

> <PUBCHEM_EXACT_MASS>
410.21180428

> <PUBCHEM_MOLECULAR_FORMULA>
C23H27FN4O2

> <PUBCHEM_MOLECULAR_WEIGHT>
410.5

> <PUBCHEM_OPENEYE_CAN_SMILES>
CN1C=NC2=C(C1=O)C=C(C=C2)OCCCCN3CCN(CC3)C4=CC=C(C=C4)F

> <PUBCHEM_OPENEYE_ISO_SMILES>
CN1C=NC2=C(C1=O)C=C(C=C2)OCCCCN3CCN(CC3)C4=CC=C(C=C4)F

> <PUBCHEM_CACTVS_TPSA>
48.4

> <PUBCHEM_MONOISOTOPIC_WEIGHT>
410.21180428

> <PUBCHEM_TOTAL_CHARGE>
0

> <PUBCHEM_HEAVY_ATOM_COUNT>
30

> <PUBCHEM_ATOM_DEF_STEREO_COUNT>
0

> <PUBCHEM_ATOM_UDEF_STEREO_COUNT>
0

> <PUBCHEM_BOND_DEF_STEREO_COUNT>
0

> <PUBCHEM_BOND_UDEF_STEREO_COUNT>
0

> <PUBCHEM_ISOTOPIC_ATOM_COUNT>
0

> <PUBCHEM_COMPONENT_COUNT>
1

> <PUBCHEM_CACTVS_TAUTO_COUNT>
-1

> <PUBCHEM_COORDINATE_TYPE>
1
5
255

> <PUBCHEM_BONDANNOTATIONS>
14  17  8
14  18  8
17  19  8
18  20  8
19  21  8
20  21  8
22  23  8
22  25  8
23  24  8
24  26  8
24  28  8
25  27  8
26  27  8
6  28  8
6  29  8
7  26  8
7  29  8

$$$$
