44317468
  -OEChem-09292322212D

 63 66  0     0  0  0  0  0  0999 V2000
    5.4071    6.5684    0.0000 S   0  0  0  0  0  0  0  0  0  0  0  0
    5.4641    4.4806    0.0000 O   0  0  0  0  0  0  0  0  0  0  0  0
    2.8660   -7.0194    0.0000 O   0  0  0  0  0  0  0  0  0  0  0  0
    2.8660   -1.0194    0.0000 N   0  0  0  0  0  0  0  0  0  0  0  0
    3.7320    4.4806    0.0000 N   0  0  0  0  0  0  0  0  0  0  0  0
    2.8660   -3.0194    0.0000 N   0  0  0  0  0  0  0  0  0  0  0  0
    3.7320    1.4806    0.0000 C   0  0  0  0  0  0  0  0  0  0  0  0
    2.8660    1.9806    0.0000 C   0  0  0  0  0  0  0  0  0  0  0  0
    4.5981    1.9806    0.0000 C   0  0  0  0  0  0  0  0  0  0  0  0
    3.7320    3.4806    0.0000 C   0  0  0  0  0  0  0  0  0  0  0  0
    2.8660    2.9806    0.0000 C   0  0  0  0  0  0  0  0  0  0  0  0
    4.5981    2.9806    0.0000 C   0  0  0  0  0  0  0  0  0  0  0  0
    3.7320    0.4806    0.0000 C   0  0  0  0  0  0  0  0  0  0  0  0
    2.8660   -0.0194    0.0000 C   0  0  0  0  0  0  0  0  0  0  0  0
    2.0000   -1.5194    0.0000 C   0  0  0  0  0  0  0  0  0  0  0  0
    3.7320   -1.5194    0.0000 C   0  0  0  0  0  0  0  0  0  0  0  0
    2.0000   -2.5194    0.0000 C   0  0  0  0  0  0  0  0  0  0  0  0
    3.7320   -2.5194    0.0000 C   0  0  0  0  0  0  0  0  0  0  0  0
    4.5981    4.9806    0.0000 C   0  0  0  0  0  0  0  0  0  0  0  0
    2.8660   -4.0194    0.0000 C   0  0  0  0  0  0  0  0  0  0  0  0
    4.5981    5.9806    0.0000 C   0  0  0  0  0  0  0  0  0  0  0  0
    2.0000   -4.5194    0.0000 C   0  0  0  0  0  0  0  0  0  0  0  0
    3.7320   -4.5194    0.0000 C   0  0  0  0  0  0  0  0  0  0  0  0
    2.0000   -5.5194    0.0000 C   0  0  0  0  0  0  0  0  0  0  0  0
    3.7320   -5.5194    0.0000 C   0  0  0  0  0  0  0  0  0  0  0  0
    3.7891    6.5684    0.0000 C   0  0  0  0  0  0  0  0  0  0  0  0
    2.8660   -6.0194    0.0000 C   0  0  0  0  0  0  0  0  0  0  0  0
    4.0981    7.5194    0.0000 C   0  0  0  0  0  0  0  0  0  0  0  0
    5.0981    7.5194    0.0000 C   0  0  0  0  0  0  0  0  0  0  0  0
    2.0000   -7.5194    0.0000 C   0  0  0  0  0  0  0  0  0  0  0  0
    4.2690    1.1706    0.0000 H   0  0  0  0  0  0  0  0  0  0  0  0
    2.2554    2.0882    0.0000 H   0  0  0  0  0  0  0  0  0  0  0  0
    2.6540    1.3980    0.0000 H   0  0  0  0  0  0  0  0  0  0  0  0
    4.8101    1.3980    0.0000 H   0  0  0  0  0  0  0  0  0  0  0  0
    5.2087    2.0882    0.0000 H   0  0  0  0  0  0  0  0  0  0  0  0
    4.2690    3.7906    0.0000 H   0  0  0  0  0  0  0  0  0  0  0  0
    2.6540    3.5632    0.0000 H   0  0  0  0  0  0  0  0  0  0  0  0
    2.2554    2.8729    0.0000 H   0  0  0  0  0  0  0  0  0  0  0  0
    5.2087    2.8729    0.0000 H   0  0  0  0  0  0  0  0  0  0  0  0
    4.8101    3.5632    0.0000 H   0  0  0  0  0  0  0  0  0  0  0  0
    3.9441   -0.1020    0.0000 H   0  0  0  0  0  0  0  0  0  0  0  0
    4.3426    0.5882    0.0000 H   0  0  0  0  0  0  0  0  0  0  0  0
    2.6540    0.5632    0.0000 H   0  0  0  0  0  0  0  0  0  0  0  0
    2.2554   -0.1271    0.0000 H   0  0  0  0  0  0  0  0  0  0  0  0
    1.7880   -0.9368    0.0000 H   0  0  0  0  0  0  0  0  0  0  0  0
    1.3894   -1.6271    0.0000 H   0  0  0  0  0  0  0  0  0  0  0  0
    4.3426   -1.6271    0.0000 H   0  0  0  0  0  0  0  0  0  0  0  0
    3.9441   -0.9368    0.0000 H   0  0  0  0  0  0  0  0  0  0  0  0
    3.1951    4.7906    0.0000 H   0  0  0  0  0  0  0  0  0  0  0  0
    1.3894   -2.4118    0.0000 H   0  0  0  0  0  0  0  0  0  0  0  0
    1.7880   -3.1020    0.0000 H   0  0  0  0  0  0  0  0  0  0  0  0
    3.9441   -3.1020    0.0000 H   0  0  0  0  0  0  0  0  0  0  0  0
    4.3426   -2.4118    0.0000 H   0  0  0  0  0  0  0  0  0  0  0  0
    1.4631   -4.2094    0.0000 H   0  0  0  0  0  0  0  0  0  0  0  0
    4.2690   -4.2094    0.0000 H   0  0  0  0  0  0  0  0  0  0  0  0
    1.4631   -5.8294    0.0000 H   0  0  0  0  0  0  0  0  0  0  0  0
    4.2690   -5.8294    0.0000 H   0  0  0  0  0  0  0  0  0  0  0  0
    3.1994    6.3768    0.0000 H   0  0  0  0  0  0  0  0  0  0  0  0
    3.7336    8.0210    0.0000 H   0  0  0  0  0  0  0  0  0  0  0  0
    5.4625    8.0210    0.0000 H   0  0  0  0  0  0  0  0  0  0  0  0
    1.6900   -6.9825    0.0000 H   0  0  0  0  0  0  0  0  0  0  0  0
    1.4631   -7.8294    0.0000 H   0  0  0  0  0  0  0  0  0  0  0  0
    2.3100   -8.0564    0.0000 H   0  0  0  0  0  0  0  0  0  0  0  0
  1 21  1  0  0  0  0
  1 29  1  0  0  0  0
  2 19  2  0  0  0  0
  3 27  1  0  0  0  0
  3 30  1  0  0  0  0
  4 14  1  0  0  0  0
  4 15  1  0  0  0  0
  4 16  1  0  0  0  0
  5 10  1  0  0  0  0
  5 19  1  0  0  0  0
  5 49  1  0  0  0  0
  6 17  1  0  0  0  0
  6 18  1  0  0  0  0
  6 20  1  0  0  0  0
  7  8  1  0  0  0  0
  7  9  1  0  0  0  0
  7 13  1  0  0  0  0
  7 31  1  0  0  0  0
  8 11  1  0  0  0  0
  8 32  1  0  0  0  0
  8 33  1  0  0  0  0
  9 12  1  0  0  0  0
  9 34  1  0  0  0  0
  9 35  1  0  0  0  0
 10 11  1  0  0  0  0
 10 12  1  0  0  0  0
 10 36  1  0  0  0  0
 11 37  1  0  0  0  0
 11 38  1  0  0  0  0
 12 39  1  0  0  0  0
 12 40  1  0  0  0  0
 13 14  1  0  0  0  0
 13 41  1  0  0  0  0
 13 42  1  0  0  0  0
 14 43  1  0  0  0  0
 14 44  1  0  0  0  0
 15 17  1  0  0  0  0
 15 45  1  0  0  0  0
 15 46  1  0  0  0  0
 16 18  1  0  0  0  0
 16 47  1  0  0  0  0
 16 48  1  0  0  0  0
 17 50  1  0  0  0  0
 17 51  1  0  0  0  0
 18 52  1  0  0  0  0
 18 53  1  0  0  0  0
 19 21  1  0  0  0  0
 20 22  2  0  0  0  0
 20 23  1  0  0  0  0
 21 26  2  0  0  0  0
 22 24  1  0  0  0  0
 22 54  1  0  0  0  0
 23 25  2  0  0  0  0
 23 55  1  0  0  0  0
 24 27  2  0  0  0  0
 24 56  1  0  0  0  0
 25 27  1  0  0  0  0
 25 57  1  0  0  0  0
 26 28  1  0  0  0  0
 26 58  1  0  0  0  0
 28 29  2  0  0  0  0
 28 59  1  0  0  0  0
 29 60  1  0  0  0  0
 30 61  1  0  0  0  0
 30 62  1  0  0  0  0
 30 63  1  0  0  0  0
M  END
> <PUBCHEM_COMPOUND_CID>
44317468

> <PUBCHEM_COMPOUND_CANONICALIZED>
1

> <PUBCHEM_CACTVS_COMPLEXITY>
525

> <PUBCHEM_CACTVS_HBOND_ACCEPTOR>
5

> <PUBCHEM_CACTVS_HBOND_DONOR>
1

> <PUBCHEM_CACTVS_ROTATABLE_BOND>
7

> <PUBCHEM_CACTVS_SUBSKEYS>
AAADcfB7MABAAAAAAAAAAAAAAAAAASAAAAA8YIAAAAAAAAABwAAAHgQQAAAADSzF0Aayx4PABAiMACVSUACDCIAlKhBIiJkObMgMZjLktZuUMShk1hHo6Ye4wIAOAEAAAAAAAAAQgAAAAAAAAAAAAAAAAA==

> <PUBCHEM_IUPAC_OPENEYE_NAME>
N-[4-[2-[4-(4-methoxyphenyl)piperazin-1-yl]ethyl]cyclohexyl]thiophene-2-carboxamide

> <PUBCHEM_IUPAC_CAS_NAME>
N-[4-[2-[4-(4-methoxyphenyl)-1-piperazinyl]ethyl]cyclohexyl]-2-thiophenecarboxamide

> <PUBCHEM_IUPAC_NAME_MARKUP>
<I>N</I>-[4-[2-[4-(4-methoxyphenyl)piperazin-1-yl]ethyl]cyclohexyl]thiophene-2-carboxamide

> <PUBCHEM_IUPAC_NAME>
N-[4-[2-[4-(4-methoxyphenyl)piperazin-1-yl]ethyl]cyclohexyl]thiophene-2-carboxamide

> <PUBCHEM_IUPAC_SYSTEMATIC_NAME>
N-[4-[2-[4-(4-methoxyphenyl)piperazin-1-yl]ethyl]cyclohexyl]thiophene-2-carboxamide

> <PUBCHEM_IUPAC_TRADITIONAL_NAME>
N-[4-[2-[4-(4-methoxyphenyl)piperazino]ethyl]cyclohexyl]thiophene-2-carboxamide

> <PUBCHEM_IUPAC_INCHI>
InChI=1S/C24H33N3O2S/c1-29-22-10-8-21(9-11-22)27-16-14-26(15-17-27)13-12-19-4-6-20(7-5-19)25-24(28)23-3-2-18-30-23/h2-3,8-11,18-20H,4-7,12-17H2,1H3,(H,25,28)

> <PUBCHEM_IUPAC_INCHIKEY>
KGBITRQPRBXBFJ-UHFFFAOYSA-N

> <PUBCHEM_XLOGP3_AA>
4.7

> <PUBCHEM_EXACT_MASS>
427.22934848

> <PUBCHEM_MOLECULAR_FORMULA>
C24H33N3O2S

> <PUBCHEM_MOLECULAR_WEIGHT>
427.6

> <PUBCHEM_OPENEYE_CAN_SMILES>
COC1=CC=C(C=C1)N2CCN(CC2)CCC3CCC(CC3)NC(=O)C4=CC=CS4

> <PUBCHEM_OPENEYE_ISO_SMILES>
COC1=CC=C(C=C1)N2CCN(CC2)CCC3CCC(CC3)NC(=O)C4=CC=CS4

> <PUBCHEM_CACTVS_TPSA>
73

> <PUBCHEM_MONOISOTOPIC_WEIGHT>
427.22934848

> <PUBCHEM_TOTAL_CHARGE>
0

> <PUBCHEM_HEAVY_ATOM_COUNT>
30

> <PUBCHEM_ATOM_DEF_STEREO_COUNT>
0

> <PUBCHEM_ATOM_UDEF_STEREO_COUNT>
0

> <PUBCHEM_BOND_DEF_STEREO_COUNT>
0

> <PUBCHEM_BOND_UDEF_STEREO_COUNT>
0

> <PUBCHEM_ISOTOPIC_ATOM_COUNT>
0

> <PUBCHEM_COMPONENT_COUNT>
1

> <PUBCHEM_CACTVS_TAUTO_COUNT>
-1

> <PUBCHEM_COORDINATE_TYPE>
1
5
255

> <PUBCHEM_BONDANNOTATIONS>
1  21  8
1  29  8
20  22  8
20  23  8
21  26  8
22  24  8
23  25  8
24  27  8
25  27  8
26  28  8
28  29  8

$$$$
