127040715
  -OEChem-09292322362D

 61 64  0     1  0  0  0  0  0999 V2000
    6.9346    1.6672    0.0000 S   0  0  0  0  0  0  0  0  0  0  0  0
    9.5327   -7.8328    0.0000 F   0  0  0  0  0  0  0  0  0  0  0  0
    8.5327   -6.8328    0.0000 F   0  0  0  0  0  0  0  0  0  0  0  0
   10.5327   -6.8328    0.0000 F   0  0  0  0  0  0  0  0  0  0  0  0
   10.3987   -2.3328    0.0000 O   0  0  0  0  0  0  0  0  0  0  0  0
    3.9467    7.8328    0.0000 O   0  0  0  0  0  0  0  0  0  0  0  0
    8.6666   -1.3328    0.0000 N   0  0  3  0  0  0  0  0  0  0  0  0
    5.9640    3.1617    0.0000 N   0  0  0  0  0  0  0  0  0  0  0  0
    5.1550    1.7604    0.0000 N   0  0  0  0  0  0  0  0  0  0  0  0
    4.4859    2.5036    0.0000 N   0  0  0  0  0  0  0  0  0  0  0  0
    2.3644    7.1283    0.0000 N   0  0  0  0  0  0  0  0  0  0  0  0
    8.6666   -2.3328    0.0000 C   0  0  0  0  0  0  0  0  0  0  0  0
    9.5327   -2.8328    0.0000 C   0  0  3  0  0  0  0  0  0  0  0  0
    9.5327   -0.8328    0.0000 C   0  0  0  0  0  0  0  0  0  0  0  0
    7.8006   -0.8328    0.0000 C   0  0  0  0  0  0  0  0  0  0  0  0
   10.3987   -1.3328    0.0000 C   0  0  0  0  0  0  0  0  0  0  0  0
    9.5327   -3.8328    0.0000 C   0  0  0  0  0  0  0  0  0  0  0  0
    7.8006    0.1672    0.0000 C   0  0  0  0  0  0  0  0  0  0  0  0
    6.9346    0.6672    0.0000 C   0  0  0  0  0  0  0  0  0  0  0  0
   10.3987   -4.3328    0.0000 C   0  0  0  0  0  0  0  0  0  0  0  0
    8.6666   -4.3328    0.0000 C   0  0  0  0  0  0  0  0  0  0  0  0
   10.3987   -5.3328    0.0000 C   0  0  0  0  0  0  0  0  0  0  0  0
    8.6666   -5.3328    0.0000 C   0  0  0  0  0  0  0  0  0  0  0  0
    9.5327   -5.8328    0.0000 C   0  0  0  0  0  0  0  0  0  0  0  0
    6.0686    2.1672    0.0000 C   0  0  0  0  0  0  0  0  0  0  0  0
    9.5327   -6.8328    0.0000 C   0  0  0  0  0  0  0  0  0  0  0  0
    4.9859    3.3696    0.0000 C   0  0  0  0  0  0  0  0  0  0  0  0
    4.5792    4.2832    0.0000 C   0  0  0  0  0  0  0  0  0  0  0  0
    6.7072    3.8308    0.0000 C   0  0  0  0  0  0  0  0  0  0  0  0
    3.5846    4.3877    0.0000 C   0  0  0  0  0  0  0  0  0  0  0  0
    5.1669    5.0922    0.0000 C   0  0  0  0  0  0  0  0  0  0  0  0
    3.1779    5.3012    0.0000 C   0  0  0  0  0  0  0  0  0  0  0  0
    4.7602    6.0057    0.0000 C   0  0  0  0  0  0  0  0  0  0  0  0
    3.7657    6.1102    0.0000 C   0  0  0  0  0  0  0  0  0  0  0  0
    3.3590    7.0238    0.0000 C   0  0  0  0  0  0  0  0  0  0  0  0
    8.0561   -2.2252    0.0000 H   0  0  0  0  0  0  0  0  0  0  0  0
    8.4546   -2.9154    0.0000 H   0  0  0  0  0  0  0  0  0  0  0  0
    8.9957   -3.1428    0.0000 H   0  0  0  0  0  0  0  0  0  0  0  0
    9.9312   -0.3579    0.0000 H   0  0  0  0  0  0  0  0  0  0  0  0
    9.1341   -0.3579    0.0000 H   0  0  0  0  0  0  0  0  0  0  0  0
    7.1900   -0.7252    0.0000 H   0  0  0  0  0  0  0  0  0  0  0  0
    7.5886   -1.4154    0.0000 H   0  0  0  0  0  0  0  0  0  0  0  0
   11.0093   -1.4405    0.0000 H   0  0  0  0  0  0  0  0  0  0  0  0
   10.6108   -0.7502    0.0000 H   0  0  0  0  0  0  0  0  0  0  0  0
    8.4112    0.0595    0.0000 H   0  0  0  0  0  0  0  0  0  0  0  0
    8.0127    0.7498    0.0000 H   0  0  0  0  0  0  0  0  0  0  0  0
    6.3240    0.7748    0.0000 H   0  0  0  0  0  0  0  0  0  0  0  0
    6.7225    0.0846    0.0000 H   0  0  0  0  0  0  0  0  0  0  0  0
   10.9356   -4.0228    0.0000 H   0  0  0  0  0  0  0  0  0  0  0  0
    8.1297   -4.0228    0.0000 H   0  0  0  0  0  0  0  0  0  0  0  0
   10.9356   -5.6428    0.0000 H   0  0  0  0  0  0  0  0  0  0  0  0
    8.1297   -5.6428    0.0000 H   0  0  0  0  0  0  0  0  0  0  0  0
    7.1220    3.3701    0.0000 H   0  0  0  0  0  0  0  0  0  0  0  0
    7.1679    4.2457    0.0000 H   0  0  0  0  0  0  0  0  0  0  0  0
    6.2923    4.2916    0.0000 H   0  0  0  0  0  0  0  0  0  0  0  0
    3.2202    3.8861    0.0000 H   0  0  0  0  0  0  0  0  0  0  0  0
    5.7836    5.0274    0.0000 H   0  0  0  0  0  0  0  0  0  0  0  0
    2.5613    5.3660    0.0000 H   0  0  0  0  0  0  0  0  0  0  0  0
    5.1246    6.5073    0.0000 H   0  0  0  0  0  0  0  0  0  0  0  0
    2.1122    7.6947    0.0000 H   0  0  0  0  0  0  0  0  0  0  0  0
    2.0000    6.6267    0.0000 H   0  0  0  0  0  0  0  0  0  0  0  0
  1 19  1  0  0  0  0
  1 25  1  0  0  0  0
  2 26  1  0  0  0  0
  3 26  1  0  0  0  0
  4 26  1  0  0  0  0
  5 13  1  0  0  0  0
  5 16  1  0  0  0  0
  6 35  2  0  0  0  0
  7 12  1  0  0  0  0
  7 14  1  0  0  0  0
  7 15  1  0  0  0  0
  8 25  1  0  0  0  0
  8 27  1  0  0  0  0
  8 29  1  0  0  0  0
  9 10  1  0  0  0  0
  9 25  2  0  0  0  0
 10 27  2  0  0  0  0
 11 35  1  0  0  0  0
 11 60  1  0  0  0  0
 11 61  1  0  0  0  0
 12 13  1  0  0  0  0
 12 36  1  0  0  0  0
 12 37  1  0  0  0  0
 13 17  1  0  0  0  0
 13 38  1  0  0  0  0
 14 16  1  0  0  0  0
 14 39  1  0  0  0  0
 14 40  1  0  0  0  0
 15 18  1  0  0  0  0
 15 41  1  0  0  0  0
 15 42  1  0  0  0  0
 16 43  1  0  0  0  0
 16 44  1  0  0  0  0
 17 20  2  0  0  0  0
 17 21  1  0  0  0  0
 18 19  1  0  0  0  0
 18 45  1  0  0  0  0
 18 46  1  0  0  0  0
 19 47  1  0  0  0  0
 19 48  1  0  0  0  0
 20 22  1  0  0  0  0
 20 49  1  0  0  0  0
 21 23  2  0  0  0  0
 21 50  1  0  0  0  0
 22 24  2  0  0  0  0
 22 51  1  0  0  0  0
 23 24  1  0  0  0  0
 23 52  1  0  0  0  0
 24 26  1  0  0  0  0
 27 28  1  0  0  0  0
 28 30  2  0  0  0  0
 28 31  1  0  0  0  0
 29 53  1  0  0  0  0
 29 54  1  0  0  0  0
 29 55  1  0  0  0  0
 30 32  1  0  0  0  0
 30 56  1  0  0  0  0
 31 33  2  0  0  0  0
 31 57  1  0  0  0  0
 32 34  2  0  0  0  0
 32 58  1  0  0  0  0
 33 34  1  0  0  0  0
 33 59  1  0  0  0  0
 34 35  1  0  0  0  0
M  END
> <PUBCHEM_COMPOUND_CID>
127040715

> <PUBCHEM_COMPOUND_CANONICALIZED>
1

> <PUBCHEM_CACTVS_COMPLEXITY>
687

> <PUBCHEM_CACTVS_HBOND_ACCEPTOR>
9

> <PUBCHEM_CACTVS_HBOND_DONOR>
1

> <PUBCHEM_CACTVS_ROTATABLE_BOND>
8

> <PUBCHEM_CACTVS_SUBSKEYS>
AAADceB7sYBAAAAAAAAAAAAAAAAAAWAAAAA8YIAAAAAAAAAB0AAAHwQYAAAADBTl2xazEIdMFAiqAiNyNACS0AtkALAdyCEoDNiKLrKgvRmHMQhkyAOYqYeYyPCOQAAAAAAAAACAAAAAAAAAAAAAAAAAAA==

> <PUBCHEM_IUPAC_OPENEYE_NAME>
4-[4-methyl-5-[3-[2-[4-(trifluoromethyl)phenyl]morpholin-4-yl]propylsulfanyl]-1,2,4-triazol-3-yl]benzamide

> <PUBCHEM_IUPAC_CAS_NAME>
4-[4-methyl-5-[3-[2-[4-(trifluoromethyl)phenyl]-4-morpholinyl]propylthio]-1,2,4-triazol-3-yl]benzamide

> <PUBCHEM_IUPAC_NAME_MARKUP>
4-[4-methyl-5-[3-[2-[4-(trifluoromethyl)phenyl]morpholin-4-yl]propylsulfanyl]-1,2,4-triazol-3-yl]benzamide

> <PUBCHEM_IUPAC_NAME>
4-[4-methyl-5-[3-[2-[4-(trifluoromethyl)phenyl]morpholin-4-yl]propylsulfanyl]-1,2,4-triazol-3-yl]benzamide

> <PUBCHEM_IUPAC_SYSTEMATIC_NAME>
4-[4-methyl-5-[3-[2-[4-(trifluoromethyl)phenyl]morpholin-4-yl]propylsulfanyl]-1,2,4-triazol-3-yl]benzamide

> <PUBCHEM_IUPAC_TRADITIONAL_NAME>
4-[4-methyl-5-[3-[2-[4-(trifluoromethyl)phenyl]morpholino]propylthio]-1,2,4-triazol-3-yl]benzamide

> <PUBCHEM_IUPAC_INCHI>
InChI=1S/C24H26F3N5O2S/c1-31-22(18-5-3-17(4-6-18)21(28)33)29-30-23(31)35-14-2-11-32-12-13-34-20(15-32)16-7-9-19(10-8-16)24(25,26)27/h3-10,20H,2,11-15H2,1H3,(H2,28,33)

> <PUBCHEM_IUPAC_INCHIKEY>
UDVBAIMSAZRJGM-UHFFFAOYSA-N

> <PUBCHEM_XLOGP3_AA>
3.2

> <PUBCHEM_EXACT_MASS>
505.17593075

> <PUBCHEM_MOLECULAR_FORMULA>
C24H26F3N5O2S

> <PUBCHEM_MOLECULAR_WEIGHT>
505.6

> <PUBCHEM_OPENEYE_CAN_SMILES>
CN1C(=NN=C1SCCCN2CCOC(C2)C3=CC=C(C=C3)C(F)(F)F)C4=CC=C(C=C4)C(=O)N

> <PUBCHEM_OPENEYE_ISO_SMILES>
CN1C(=NN=C1SCCCN2CCOC(C2)C3=CC=C(C=C3)C(F)(F)F)C4=CC=C(C=C4)C(=O)N

> <PUBCHEM_CACTVS_TPSA>
112

> <PUBCHEM_MONOISOTOPIC_WEIGHT>
505.17593075

> <PUBCHEM_TOTAL_CHARGE>
0

> <PUBCHEM_HEAVY_ATOM_COUNT>
35

> <PUBCHEM_ATOM_DEF_STEREO_COUNT>
0

> <PUBCHEM_ATOM_UDEF_STEREO_COUNT>
1

> <PUBCHEM_BOND_DEF_STEREO_COUNT>
0

> <PUBCHEM_BOND_UDEF_STEREO_COUNT>
0

> <PUBCHEM_ISOTOPIC_ATOM_COUNT>
0

> <PUBCHEM_COMPONENT_COUNT>
1

> <PUBCHEM_CACTVS_TAUTO_COUNT>
-1

> <PUBCHEM_COORDINATE_TYPE>
1
5
255

> <PUBCHEM_BONDANNOTATIONS>
10  27  8
13  17  3
17  20  8
17  21  8
20  22  8
21  23  8
22  24  8
23  24  8
28  30  8
28  31  8
30  32  8
31  33  8
32  34  8
33  34  8
8  25  8
8  27  8
9  10  8
9  25  8

$$$$
