25158434
  -OEChem-09292322502D

 66 69  0     0  0  0  0  0  0999 V2000
    7.0622    4.0000    0.0000 F   0  0  0  0  0  0  0  0  0  0  0  0
    8.0622    5.0000    0.0000 F   0  0  0  0  0  0  0  0  0  0  0  0
    9.0622    4.0000    0.0000 F   0  0  0  0  0  0  0  0  0  0  0  0
    2.8660   -2.0000    0.0000 O   0  0  0  0  0  0  0  0  0  0  0  0
    8.9282   -3.5000    0.0000 O   0  0  0  0  0  0  0  0  0  0  0  0
    4.5981    0.0000    0.0000 N   0  0  0  0  0  0  0  0  0  0  0  0
    6.3301    1.0000    0.0000 N   0  0  0  0  0  0  0  0  0  0  0  0
    4.5981    1.0000    0.0000 C   0  0  0  0  0  0  0  0  0  0  0  0
    5.4641   -0.5000    0.0000 C   0  0  0  0  0  0  0  0  0  0  0  0
    5.4641    1.5000    0.0000 C   0  0  0  0  0  0  0  0  0  0  0  0
    6.3301   -0.0000    0.0000 C   0  0  0  0  0  0  0  0  0  0  0  0
    3.7320   -0.5000    0.0000 C   0  0  0  0  0  0  0  0  0  0  0  0
    7.1962    1.5000    0.0000 C   0  0  0  0  0  0  0  0  0  0  0  0
    3.7320   -1.5000    0.0000 C   0  0  0  0  0  0  0  0  0  0  0  0
    7.1962    2.5000    0.0000 C   0  0  0  0  0  0  0  0  0  0  0  0
    8.0622    1.0000    0.0000 C   0  0  0  0  0  0  0  0  0  0  0  0
    8.0622    3.0000    0.0000 C   0  0  0  0  0  0  0  0  0  0  0  0
    8.9282    1.5000    0.0000 C   0  0  0  0  0  0  0  0  0  0  0  0
    2.8660   -3.0000    0.0000 C   0  0  0  0  0  0  0  0  0  0  0  0
    8.9282    2.5000    0.0000 C   0  0  0  0  0  0  0  0  0  0  0  0
    3.7320   -3.5000    0.0000 C   0  0  0  0  0  0  0  0  0  0  0  0
    4.5981   -3.0000    0.0000 C   0  0  0  0  0  0  0  0  0  0  0  0
    5.4641   -3.5000    0.0000 C   0  0  0  0  0  0  0  0  0  0  0  0
    8.0622    4.0000    0.0000 C   0  0  0  0  0  0  0  0  0  0  0  0
    2.0000   -3.5000    0.0000 C   0  0  0  0  0  0  0  0  0  0  0  0
    3.7320   -4.5000    0.0000 C   0  0  0  0  0  0  0  0  0  0  0  0
    6.3301   -3.0000    0.0000 C   0  0  0  0  0  0  0  0  0  0  0  0
    2.0000   -4.5000    0.0000 C   0  0  0  0  0  0  0  0  0  0  0  0
    2.8660   -5.0000    0.0000 C   0  0  0  0  0  0  0  0  0  0  0  0
    7.1962   -3.5000    0.0000 C   0  0  0  0  0  0  0  0  0  0  0  0
    6.3301   -2.0000    0.0000 C   0  0  0  0  0  0  0  0  0  0  0  0
    8.0622   -3.0000    0.0000 C   0  0  0  0  0  0  0  0  0  0  0  0
    7.1962   -1.5000    0.0000 C   0  0  0  0  0  0  0  0  0  0  0  0
    8.0622   -2.0000    0.0000 C   0  0  0  0  0  0  0  0  0  0  0  0
    8.9282   -4.5000    0.0000 C   0  0  0  0  0  0  0  0  0  0  0  0
    4.3860    1.5826    0.0000 H   0  0  0  0  0  0  0  0  0  0  0  0
    3.9875    0.8923    0.0000 H   0  0  0  0  0  0  0  0  0  0  0  0
    5.0656   -0.9749    0.0000 H   0  0  0  0  0  0  0  0  0  0  0  0
    5.8626   -0.9749    0.0000 H   0  0  0  0  0  0  0  0  0  0  0  0
    5.8626    1.9750    0.0000 H   0  0  0  0  0  0  0  0  0  0  0  0
    5.0656    1.9750    0.0000 H   0  0  0  0  0  0  0  0  0  0  0  0
    6.5422   -0.5826    0.0000 H   0  0  0  0  0  0  0  0  0  0  0  0
    6.9407    0.1077    0.0000 H   0  0  0  0  0  0  0  0  0  0  0  0
    3.5200    0.0826    0.0000 H   0  0  0  0  0  0  0  0  0  0  0  0
    3.1215   -0.6077    0.0000 H   0  0  0  0  0  0  0  0  0  0  0  0
    3.9441   -2.0826    0.0000 H   0  0  0  0  0  0  0  0  0  0  0  0
    4.3426   -1.3923    0.0000 H   0  0  0  0  0  0  0  0  0  0  0  0
    6.6592    2.8100    0.0000 H   0  0  0  0  0  0  0  0  0  0  0  0
    8.0622    0.3800    0.0000 H   0  0  0  0  0  0  0  0  0  0  0  0
    9.4651    1.1900    0.0000 H   0  0  0  0  0  0  0  0  0  0  0  0
    9.4651    2.8100    0.0000 H   0  0  0  0  0  0  0  0  0  0  0  0
    4.9966   -2.5250    0.0000 H   0  0  0  0  0  0  0  0  0  0  0  0
    4.1996   -2.5250    0.0000 H   0  0  0  0  0  0  0  0  0  0  0  0
    5.0656   -3.9750    0.0000 H   0  0  0  0  0  0  0  0  0  0  0  0
    5.8626   -3.9750    0.0000 H   0  0  0  0  0  0  0  0  0  0  0  0
    1.4631   -3.1900    0.0000 H   0  0  0  0  0  0  0  0  0  0  0  0
    4.2690   -4.8100    0.0000 H   0  0  0  0  0  0  0  0  0  0  0  0
    1.4631   -4.8100    0.0000 H   0  0  0  0  0  0  0  0  0  0  0  0
    2.8660   -5.6200    0.0000 H   0  0  0  0  0  0  0  0  0  0  0  0
    7.1962   -4.1200    0.0000 H   0  0  0  0  0  0  0  0  0  0  0  0
    5.7932   -1.6900    0.0000 H   0  0  0  0  0  0  0  0  0  0  0  0
    7.1962   -0.8800    0.0000 H   0  0  0  0  0  0  0  0  0  0  0  0
    8.5991   -1.6900    0.0000 H   0  0  0  0  0  0  0  0  0  0  0  0
    8.3082   -4.5000    0.0000 H   0  0  0  0  0  0  0  0  0  0  0  0
    8.9282   -5.1200    0.0000 H   0  0  0  0  0  0  0  0  0  0  0  0
    9.5482   -4.5000    0.0000 H   0  0  0  0  0  0  0  0  0  0  0  0
  1 24  1  0  0  0  0
  2 24  1  0  0  0  0
  3 24  1  0  0  0  0
  4 14  1  0  0  0  0
  4 19  1  0  0  0  0
  5 32  1  0  0  0  0
  5 35  1  0  0  0  0
  6  8  1  0  0  0  0
  6  9  1  0  0  0  0
  6 12  1  0  0  0  0
  7 10  1  0  0  0  0
  7 11  1  0  0  0  0
  7 13  1  0  0  0  0
  8 10  1  0  0  0  0
  8 36  1  0  0  0  0
  8 37  1  0  0  0  0
  9 11  1  0  0  0  0
  9 38  1  0  0  0  0
  9 39  1  0  0  0  0
 10 40  1  0  0  0  0
 10 41  1  0  0  0  0
 11 42  1  0  0  0  0
 11 43  1  0  0  0  0
 12 14  1  0  0  0  0
 12 44  1  0  0  0  0
 12 45  1  0  0  0  0
 13 15  1  0  0  0  0
 13 16  2  0  0  0  0
 14 46  1  0  0  0  0
 14 47  1  0  0  0  0
 15 17  2  0  0  0  0
 15 48  1  0  0  0  0
 16 18  1  0  0  0  0
 16 49  1  0  0  0  0
 17 20  1  0  0  0  0
 17 24  1  0  0  0  0
 18 20  2  0  0  0  0
 18 50  1  0  0  0  0
 19 21  1  0  0  0  0
 19 25  2  0  0  0  0
 20 51  1  0  0  0  0
 21 22  1  0  0  0  0
 21 26  2  0  0  0  0
 22 23  1  0  0  0  0
 22 52  1  0  0  0  0
 22 53  1  0  0  0  0
 23 27  1  0  0  0  0
 23 54  1  0  0  0  0
 23 55  1  0  0  0  0
 25 28  1  0  0  0  0
 25 56  1  0  0  0  0
 26 29  1  0  0  0  0
 26 57  1  0  0  0  0
 27 30  2  0  0  0  0
 27 31  1  0  0  0  0
 28 29  2  0  0  0  0
 28 58  1  0  0  0  0
 29 59  1  0  0  0  0
 30 32  1  0  0  0  0
 30 60  1  0  0  0  0
 31 33  2  0  0  0  0
 31 61  1  0  0  0  0
 32 34  2  0  0  0  0
 33 34  1  0  0  0  0
 33 62  1  0  0  0  0
 34 63  1  0  0  0  0
 35 64  1  0  0  0  0
 35 65  1  0  0  0  0
 35 66  1  0  0  0  0
M  END
> <PUBCHEM_COMPOUND_CID>
25158434

> <PUBCHEM_COMPOUND_CANONICALIZED>
1

> <PUBCHEM_CACTVS_COMPLEXITY>
612

> <PUBCHEM_CACTVS_HBOND_ACCEPTOR>
7

> <PUBCHEM_CACTVS_HBOND_DONOR>
0

> <PUBCHEM_CACTVS_ROTATABLE_BOND>
9

> <PUBCHEM_CACTVS_SUBSKEYS>
AAADceB7MYAAAAAAAAAAAAAAAAAAAAAAAAA8YMEAAAAAAAABUAAAHwAAAAAADAzhmBYyxoMABACAAiRCQACCCAAhIgAIiAAObIgOZiLEsZuXOCjkwBHY6AeQwPAOAAABQAAIAAAAAAKAABAAAAAAAAAAAA==

> <PUBCHEM_IUPAC_OPENEYE_NAME>
1-[2-[2-[2-(3-methoxyphenyl)ethyl]phenoxy]ethyl]-4-[3-(trifluoromethyl)phenyl]piperazine

> <PUBCHEM_IUPAC_CAS_NAME>
1-[2-[2-[2-(3-methoxyphenyl)ethyl]phenoxy]ethyl]-4-[3-(trifluoromethyl)phenyl]piperazine

> <PUBCHEM_IUPAC_NAME_MARKUP>
1-[2-[2-[2-(3-methoxyphenyl)ethyl]phenoxy]ethyl]-4-[3-(trifluoromethyl)phenyl]piperazine

> <PUBCHEM_IUPAC_NAME>
1-[2-[2-[2-(3-methoxyphenyl)ethyl]phenoxy]ethyl]-4-[3-(trifluoromethyl)phenyl]piperazine

> <PUBCHEM_IUPAC_SYSTEMATIC_NAME>
1-[2-[2-[2-(3-methoxyphenyl)ethyl]phenoxy]ethyl]-4-[3-(trifluoromethyl)phenyl]piperazine

> <PUBCHEM_IUPAC_TRADITIONAL_NAME>
1-[2-[2-[2-(3-methoxyphenyl)ethyl]phenoxy]ethyl]-4-[3-(trifluoromethyl)phenyl]piperazine

> <PUBCHEM_IUPAC_INCHI>
InChI=1S/C28H31F3N2O2/c1-34-26-10-4-6-22(20-26)12-13-23-7-2-3-11-27(23)35-19-18-32-14-16-33(17-15-32)25-9-5-8-24(21-25)28(29,30)31/h2-11,20-21H,12-19H2,1H3

> <PUBCHEM_IUPAC_INCHIKEY>
PXVPRODQEGDLBS-UHFFFAOYSA-N

> <PUBCHEM_XLOGP3_AA>
6.6

> <PUBCHEM_EXACT_MASS>
484.23376272

> <PUBCHEM_MOLECULAR_FORMULA>
C28H31F3N2O2

> <PUBCHEM_MOLECULAR_WEIGHT>
484.6

> <PUBCHEM_OPENEYE_CAN_SMILES>
COC1=CC=CC(=C1)CCC2=CC=CC=C2OCCN3CCN(CC3)C4=CC=CC(=C4)C(F)(F)F

> <PUBCHEM_OPENEYE_ISO_SMILES>
COC1=CC=CC(=C1)CCC2=CC=CC=C2OCCN3CCN(CC3)C4=CC=CC(=C4)C(F)(F)F

> <PUBCHEM_CACTVS_TPSA>
24.9

> <PUBCHEM_MONOISOTOPIC_WEIGHT>
484.23376272

> <PUBCHEM_TOTAL_CHARGE>
0

> <PUBCHEM_HEAVY_ATOM_COUNT>
35

> <PUBCHEM_ATOM_DEF_STEREO_COUNT>
0

> <PUBCHEM_ATOM_UDEF_STEREO_COUNT>
0

> <PUBCHEM_BOND_DEF_STEREO_COUNT>
0

> <PUBCHEM_BOND_UDEF_STEREO_COUNT>
0

> <PUBCHEM_ISOTOPIC_ATOM_COUNT>
0

> <PUBCHEM_COMPONENT_COUNT>
1

> <PUBCHEM_CACTVS_TAUTO_COUNT>
-1

> <PUBCHEM_COORDINATE_TYPE>
1
5
255

> <PUBCHEM_BONDANNOTATIONS>
13  15  8
13  16  8
15  17  8
16  18  8
17  20  8
18  20  8
19  21  8
19  25  8
21  26  8
25  28  8
26  29  8
27  30  8
27  31  8
28  29  8
30  32  8
31  33  8
32  34  8
33  34  8

$$$$
