44319482
  -OEChem-09292322502D

104111  0     0  0  0  0  0  0999 V2000
   14.2619   -4.3228    0.0000 O   0  0  0  0  0  0  0  0  0  0  0  0
   13.5065   -1.0586    0.0000 O   0  0  0  0  0  0  0  0  0  0  0  0
    9.2619   -2.5907    0.0000 O   0  0  0  0  0  0  0  0  0  0  0  0
    8.4487    0.4966    0.0000 O   0  0  0  0  0  0  0  0  0  0  0  0
   12.2619   -4.3228    0.0000 N   0  0  0  0  0  0  0  0  0  0  0  0
   11.8926    0.1226    0.0000 N   0  0  0  0  0  0  0  0  0  0  0  0
    4.6783   -1.7860    0.0000 N   0  0  0  0  0  0  0  0  0  0  0  0
    4.2746    2.5542    0.0000 N   0  0  0  0  0  0  0  0  0  0  0  0
    4.6783   -3.3955    0.0000 N   0  0  0  0  0  0  0  0  0  0  0  0
    5.2251    3.8530    0.0000 N   0  0  0  0  0  0  0  0  0  0  0  0
   12.7619   -3.4568    0.0000 C   0  0  0  0  0  0  0  0  0  0  0  0
   12.7619   -5.1888    0.0000 C   0  0  0  0  0  0  0  0  0  0  0  0
   12.8075    0.5261    0.0000 C   0  0  0  0  0  0  0  0  0  0  0  0
   11.7846   -0.8716    0.0000 C   0  0  0  0  0  0  0  0  0  0  0  0
   11.2619   -4.3228    0.0000 C   0  0  0  0  0  0  0  0  0  0  0  0
   11.0856    0.7131    0.0000 C   0  0  0  0  0  0  0  0  0  0  0  0
   13.7619   -3.4568    0.0000 C   0  0  0  0  0  0  0  0  0  0  0  0
   13.7619   -5.1888    0.0000 C   0  0  0  0  0  0  0  0  0  0  0  0
   13.6145   -0.0644    0.0000 C   0  0  0  0  0  0  0  0  0  0  0  0
   12.5916   -1.4622    0.0000 C   0  0  0  0  0  0  0  0  0  0  0  0
   10.7619   -3.4568    0.0000 C   0  0  0  0  0  0  0  0  0  0  0  0
   10.1706    0.3096    0.0000 C   0  0  0  0  0  0  0  0  0  0  0  0
    9.7619   -3.4568    0.0000 C   0  0  0  0  0  0  0  0  0  0  0  0
    9.3636    0.9002    0.0000 C   0  0  0  0  0  0  0  0  0  0  0  0
    5.2619   -2.5907    0.0000 C   0  0  0  0  0  0  0  0  0  0  0  0
    5.2208    2.8589    0.0000 C   0  0  0  0  0  0  0  0  0  0  0  0
    4.9889   -0.8355    0.0000 C   0  0  0  0  0  0  0  0  0  0  0  0
    3.9639    1.6036    0.0000 C   0  0  0  0  0  0  0  0  0  0  0  0
    3.7320   -2.0907    0.0000 C   0  0  0  0  0  0  0  0  0  0  0  0
    3.6910    3.3589    0.0000 C   0  0  0  0  0  0  0  0  0  0  0  0
    6.2619   -2.5907    0.0000 C   0  0  0  0  0  0  0  0  0  0  0  0
    6.0278    2.2683    0.0000 C   0  0  0  0  0  0  0  0  0  0  0  0
    8.2619   -2.5907    0.0000 C   0  0  0  0  0  0  0  0  0  0  0  0
    7.6417    1.0872    0.0000 C   0  0  0  0  0  0  0  0  0  0  0  0
    3.7320   -3.0907    0.0000 C   0  0  0  0  0  0  0  0  0  0  0  0
    4.2815    4.1659    0.0000 C   0  0  0  0  0  0  0  0  0  0  0  0
    4.3211   -0.0912    0.0000 C   0  0  0  0  0  0  0  0  0  0  0  0
    4.6318    0.8594    0.0000 C   0  0  0  0  0  0  0  0  0  0  0  0
    6.7619   -3.4568    0.0000 C   0  0  0  0  0  0  0  0  0  0  0  0
    6.9427    2.6719    0.0000 C   0  0  0  0  0  0  0  0  0  0  0  0
    6.7619   -1.7247    0.0000 C   0  0  0  0  0  0  0  0  0  0  0  0
    5.9198    1.2742    0.0000 C   0  0  0  0  0  0  0  0  0  0  0  0
    7.7619   -3.4568    0.0000 C   0  0  0  0  0  0  0  0  0  0  0  0
    7.7497    2.0813    0.0000 C   0  0  0  0  0  0  0  0  0  0  0  0
    7.7619   -1.7247    0.0000 C   0  0  0  0  0  0  0  0  0  0  0  0
    6.7268    0.6836    0.0000 C   0  0  0  0  0  0  0  0  0  0  0  0
    2.8660   -1.5907    0.0000 C   0  0  0  0  0  0  0  0  0  0  0  0
    2.6968    3.4669    0.0000 C   0  0  0  0  0  0  0  0  0  0  0  0
    2.8660   -3.5907    0.0000 C   0  0  0  0  0  0  0  0  0  0  0  0
    3.8780    5.0808    0.0000 C   0  0  0  0  0  0  0  0  0  0  0  0
    2.0000   -2.0907    0.0000 C   0  0  0  0  0  0  0  0  0  0  0  0
    2.2932    4.3818    0.0000 C   0  0  0  0  0  0  0  0  0  0  0  0
    2.0000   -3.0907    0.0000 C   0  0  0  0  0  0  0  0  0  0  0  0
    2.8838    5.1888    0.0000 C   0  0  0  0  0  0  0  0  0  0  0  0
   12.8695   -2.8462    0.0000 H   0  0  0  0  0  0  0  0  0  0  0  0
   12.1793   -3.2447    0.0000 H   0  0  0  0  0  0  0  0  0  0  0  0
   12.1793   -5.4008    0.0000 H   0  0  0  0  0  0  0  0  0  0  0  0
   12.8695   -5.7994    0.0000 H   0  0  0  0  0  0  0  0  0  0  0  0
   13.2550    0.9553    0.0000 H   0  0  0  0  0  0  0  0  0  0  0  0
   12.4626    1.0413    0.0000 H   0  0  0  0  0  0  0  0  0  0  0  0
   11.1892   -0.6986    0.0000 H   0  0  0  0  0  0  0  0  0  0  0  0
   11.5109   -1.4279    0.0000 H   0  0  0  0  0  0  0  0  0  0  0  0
   10.6793   -4.5348    0.0000 H   0  0  0  0  0  0  0  0  0  0  0  0
   11.3695   -4.9334    0.0000 H   0  0  0  0  0  0  0  0  0  0  0  0
   11.5331    1.1423    0.0000 H   0  0  0  0  0  0  0  0  0  0  0  0
   10.7407    1.2283    0.0000 H   0  0  0  0  0  0  0  0  0  0  0  0
   14.3445   -3.2447    0.0000 H   0  0  0  0  0  0  0  0  0  0  0  0
   13.6542   -2.8462    0.0000 H   0  0  0  0  0  0  0  0  0  0  0  0
   13.6542   -5.7994    0.0000 H   0  0  0  0  0  0  0  0  0  0  0  0
   14.3445   -5.4008    0.0000 H   0  0  0  0  0  0  0  0  0  0  0  0
   14.2099   -0.2374    0.0000 H   0  0  0  0  0  0  0  0  0  0  0  0
   13.8882    0.4919    0.0000 H   0  0  0  0  0  0  0  0  0  0  0  0
   12.1441   -1.8913    0.0000 H   0  0  0  0  0  0  0  0  0  0  0  0
   12.9365   -1.9774    0.0000 H   0  0  0  0  0  0  0  0  0  0  0  0
   11.3445   -3.2447    0.0000 H   0  0  0  0  0  0  0  0  0  0  0  0
   10.6542   -2.8462    0.0000 H   0  0  0  0  0  0  0  0  0  0  0  0
    9.7232   -0.1196    0.0000 H   0  0  0  0  0  0  0  0  0  0  0  0
   10.5155   -0.2056    0.0000 H   0  0  0  0  0  0  0  0  0  0  0  0
    9.1793   -3.6688    0.0000 H   0  0  0  0  0  0  0  0  0  0  0  0
    9.8695   -4.0673    0.0000 H   0  0  0  0  0  0  0  0  0  0  0  0
    9.8111    1.3293    0.0000 H   0  0  0  0  0  0  0  0  0  0  0  0
    9.0187    1.4154    0.0000 H   0  0  0  0  0  0  0  0  0  0  0  0
    5.5359   -1.1275    0.0000 H   0  0  0  0  0  0  0  0  0  0  0  0
    5.3715   -0.3476    0.0000 H   0  0  0  0  0  0  0  0  0  0  0  0
    3.4170    1.8957    0.0000 H   0  0  0  0  0  0  0  0  0  0  0  0
    3.5814    1.1158    0.0000 H   0  0  0  0  0  0  0  0  0  0  0  0
    3.7144   -0.2190    0.0000 H   0  0  0  0  0  0  0  0  0  0  0  0
    5.2384    0.9872    0.0000 H   0  0  0  0  0  0  0  0  0  0  0  0
    6.4519   -3.9937    0.0000 H   0  0  0  0  0  0  0  0  0  0  0  0
    7.0097    3.2883    0.0000 H   0  0  0  0  0  0  0  0  0  0  0  0
    6.4519   -1.1878    0.0000 H   0  0  0  0  0  0  0  0  0  0  0  0
    5.3525    1.0240    0.0000 H   0  0  0  0  0  0  0  0  0  0  0  0
    8.0719   -3.9937    0.0000 H   0  0  0  0  0  0  0  0  0  0  0  0
    8.3170    2.3315    0.0000 H   0  0  0  0  0  0  0  0  0  0  0  0
    8.0719   -1.1878    0.0000 H   0  0  0  0  0  0  0  0  0  0  0  0
    6.6598    0.0672    0.0000 H   0  0  0  0  0  0  0  0  0  0  0  0
    2.8660   -0.9707    0.0000 H   0  0  0  0  0  0  0  0  0  0  0  0
    2.3306    2.9665    0.0000 H   0  0  0  0  0  0  0  0  0  0  0  0
    2.8660   -4.2107    0.0000 H   0  0  0  0  0  0  0  0  0  0  0  0
    4.2441    5.5812    0.0000 H   0  0  0  0  0  0  0  0  0  0  0  0
    1.4631   -1.7807    0.0000 H   0  0  0  0  0  0  0  0  0  0  0  0
    1.6769    4.4488    0.0000 H   0  0  0  0  0  0  0  0  0  0  0  0
    1.4631   -3.4007    0.0000 H   0  0  0  0  0  0  0  0  0  0  0  0
    2.6336    5.7561    0.0000 H   0  0  0  0  0  0  0  0  0  0  0  0
  1 17  1  0  0  0  0
  1 18  1  0  0  0  0
  2 19  1  0  0  0  0
  2 20  1  0  0  0  0
  3 23  1  0  0  0  0
  3 33  1  0  0  0  0
  4 24  1  0  0  0  0
  4 34  1  0  0  0  0
  5 11  1  0  0  0  0
  5 12  1  0  0  0  0
  5 15  1  0  0  0  0
  6 13  1  0  0  0  0
  6 14  1  0  0  0  0
  6 16  1  0  0  0  0
  7 25  1  0  0  0  0
  7 27  1  0  0  0  0
  7 29  1  0  0  0  0
  8 26  1  0  0  0  0
  8 28  1  0  0  0  0
  8 30  1  0  0  0  0
  9 25  2  0  0  0  0
  9 35  1  0  0  0  0
 10 26  2  0  0  0  0
 10 36  1  0  0  0  0
 11 17  1  0  0  0  0
 11 55  1  0  0  0  0
 11 56  1  0  0  0  0
 12 18  1  0  0  0  0
 12 57  1  0  0  0  0
 12 58  1  0  0  0  0
 13 19  1  0  0  0  0
 13 59  1  0  0  0  0
 13 60  1  0  0  0  0
 14 20  1  0  0  0  0
 14 61  1  0  0  0  0
 14 62  1  0  0  0  0
 15 21  1  0  0  0  0
 15 63  1  0  0  0  0
 15 64  1  0  0  0  0
 16 22  1  0  0  0  0
 16 65  1  0  0  0  0
 16 66  1  0  0  0  0
 17 67  1  0  0  0  0
 17 68  1  0  0  0  0
 18 69  1  0  0  0  0
 18 70  1  0  0  0  0
 19 71  1  0  0  0  0
 19 72  1  0  0  0  0
 20 73  1  0  0  0  0
 20 74  1  0  0  0  0
 21 23  1  0  0  0  0
 21 75  1  0  0  0  0
 21 76  1  0  0  0  0
 22 24  1  0  0  0  0
 22 77  1  0  0  0  0
 22 78  1  0  0  0  0
 23 79  1  0  0  0  0
 23 80  1  0  0  0  0
 24 81  1  0  0  0  0
 24 82  1  0  0  0  0
 25 31  1  0  0  0  0
 26 32  1  0  0  0  0
 27 37  1  0  0  0  0
 27 83  1  0  0  0  0
 27 84  1  0  0  0  0
 28 38  1  0  0  0  0
 28 85  1  0  0  0  0
 28 86  1  0  0  0  0
 29 35  1  0  0  0  0
 29 47  2  0  0  0  0
 30 36  1  0  0  0  0
 30 48  2  0  0  0  0
 31 39  2  0  0  0  0
 31 41  1  0  0  0  0
 32 40  2  0  0  0  0
 32 42  1  0  0  0  0
 33 43  2  0  0  0  0
 33 45  1  0  0  0  0
 34 44  2  0  0  0  0
 34 46  1  0  0  0  0
 35 49  2  0  0  0  0
 36 50  2  0  0  0  0
 37 38  2  0  0  0  0
 37 87  1  0  0  0  0
 38 88  1  0  0  0  0
 39 43  1  0  0  0  0
 39 89  1  0  0  0  0
 40 44  1  0  0  0  0
 40 90  1  0  0  0  0
 41 45  2  0  0  0  0
 41 91  1  0  0  0  0
 42 46  2  0  0  0  0
 42 92  1  0  0  0  0
 43 93  1  0  0  0  0
 44 94  1  0  0  0  0
 45 95  1  0  0  0  0
 46 96  1  0  0  0  0
 47 51  1  0  0  0  0
 47 97  1  0  0  0  0
 48 52  1  0  0  0  0
 48 98  1  0  0  0  0
 49 53  1  0  0  0  0
 49 99  1  0  0  0  0
 50 54  1  0  0  0  0
 50100  1  0  0  0  0
 51 53  2  0  0  0  0
 51101  1  0  0  0  0
 52 54  2  0  0  0  0
 52102  1  0  0  0  0
 53103  1  0  0  0  0
 54104  1  0  0  0  0
M  END
> <PUBCHEM_COMPOUND_CID>
44319482

> <PUBCHEM_COMPOUND_CANONICALIZED>
1

> <PUBCHEM_CACTVS_COMPLEXITY>
1020

> <PUBCHEM_CACTVS_HBOND_ACCEPTOR>
8

> <PUBCHEM_CACTVS_HBOND_DONOR>
0

> <PUBCHEM_CACTVS_ROTATABLE_BOND>
16

> <PUBCHEM_CACTVS_SUBSKEYS>
AAADcfB/uAAAAAAAAAAAAAAAAAAAAWLAAAA8eMGCAAAAAFgB/gAAHgAAAAAADAzhnwYx1rcMFACgAyZiZACCiC0hMqAJ2CA+fJiObqLEuZuXOCjuwBPY6CeQ0AIOIAAAAAAAACBAAAAAAAAAQAAAAAAAAA==

> <PUBCHEM_IUPAC_OPENEYE_NAME>
4-[3-[4-[1-[(E)-4-[2-[4-(3-morpholinopropoxy)phenyl]benzimidazol-1-yl]but-2-enyl]benzimidazol-2-yl]phenoxy]propyl]morpholine

> <PUBCHEM_IUPAC_CAS_NAME>
4-[3-[4-[1-[(E)-4-[2-[4-[3-(4-morpholinyl)propoxy]phenyl]-1-benzimidazolyl]but-2-enyl]-2-benzimidazolyl]phenoxy]propyl]morpholine

> <PUBCHEM_IUPAC_NAME_MARKUP>
4-[3-[4-[1-[(<I>E</I>)-4-[2-[4-(3-morpholin-4-ylpropoxy)phenyl]benzimidazol-1-yl]but-2-enyl]benzimidazol-2-yl]phenoxy]propyl]morpholine

> <PUBCHEM_IUPAC_NAME>
4-[3-[4-[1-[(E)-4-[2-[4-(3-morpholin-4-ylpropoxy)phenyl]benzimidazol-1-yl]but-2-enyl]benzimidazol-2-yl]phenoxy]propyl]morpholine

> <PUBCHEM_IUPAC_SYSTEMATIC_NAME>
4-[3-[4-[1-[(E)-4-[2-[4-(3-morpholin-4-ylpropoxy)phenyl]benzimidazol-1-yl]but-2-enyl]benzimidazol-2-yl]phenoxy]propyl]morpholine

> <PUBCHEM_IUPAC_TRADITIONAL_NAME>
4-[3-[4-[1-[(E)-4-[2-[4-(3-morpholinopropoxy)phenyl]benzimidazol-1-yl]but-2-enyl]benzimidazol-2-yl]phenoxy]propyl]morpholine

> <PUBCHEM_IUPAC_INCHI>
InChI=1S/C44H50N6O4/c1-3-11-41-39(9-1)45-43(35-13-17-37(18-14-35)53-29-7-21-47-25-31-51-32-26-47)49(41)23-5-6-24-50-42-12-4-2-10-40(42)46-44(50)36-15-19-38(20-16-36)54-30-8-22-48-27-33-52-34-28-48/h1-6,9-20H,7-8,21-34H2/b6-5+

> <PUBCHEM_IUPAC_INCHIKEY>
CQTGVKLTMSDNTL-AATRIKPKSA-N

> <PUBCHEM_XLOGP3_AA>
6.5

> <PUBCHEM_EXACT_MASS>
726.38935410

> <PUBCHEM_MOLECULAR_FORMULA>
C44H50N6O4

> <PUBCHEM_MOLECULAR_WEIGHT>
726.9

> <PUBCHEM_OPENEYE_CAN_SMILES>
C1COCCN1CCCOC2=CC=C(C=C2)C3=NC4=CC=CC=C4N3CC=CCN5C6=CC=CC=C6N=C5C7=CC=C(C=C7)OCCCN8CCOCC8

> <PUBCHEM_OPENEYE_ISO_SMILES>
C1COCCN1CCCOC2=CC=C(C=C2)C3=NC4=CC=CC=C4N3C/C=C/CN5C6=CC=CC=C6N=C5C7=CC=C(C=C7)OCCCN8CCOCC8

> <PUBCHEM_CACTVS_TPSA>
79

> <PUBCHEM_MONOISOTOPIC_WEIGHT>
726.38935410

> <PUBCHEM_TOTAL_CHARGE>
0

> <PUBCHEM_HEAVY_ATOM_COUNT>
54

> <PUBCHEM_ATOM_DEF_STEREO_COUNT>
0

> <PUBCHEM_ATOM_UDEF_STEREO_COUNT>
0

> <PUBCHEM_BOND_DEF_STEREO_COUNT>
1

> <PUBCHEM_BOND_UDEF_STEREO_COUNT>
0

> <PUBCHEM_ISOTOPIC_ATOM_COUNT>
0

> <PUBCHEM_COMPONENT_COUNT>
1

> <PUBCHEM_CACTVS_TAUTO_COUNT>
-1

> <PUBCHEM_COORDINATE_TYPE>
1
5
255

> <PUBCHEM_BONDANNOTATIONS>
10  26  8
10  36  8
29  35  8
29  47  8
30  36  8
30  48  8
31  39  8
31  41  8
32  40  8
32  42  8
33  43  8
33  45  8
34  44  8
34  46  8
35  49  8
36  50  8
39  43  8
40  44  8
41  45  8
42  46  8
47  51  8
48  52  8
49  53  8
50  54  8
51  53  8
52  54  8
7  25  8
7  29  8
8  26  8
8  30  8
9  25  8
9  35  8

$$$$
