135887935
  -OEChem-09292322502D

 63 65  0     0  0  0  0  0  0999 V2000
    3.2018   10.1316    0.0000 O   0  0  0  0  0  0  0  0  0  0  0  0
    8.7976    1.0000    0.0000 O   0  0  0  0  0  0  0  0  0  0  0  0
    4.4674    1.5000    0.0000 O   0  0  0  0  0  0  0  0  0  0  0  0
    7.9315    2.5000    0.0000 O   0  0  0  0  0  0  0  0  0  0  0  0
    5.3335    0.0000    0.0000 O   0  0  0  0  0  0  0  0  0  0  0  0
    8.3979    8.1316    0.0000 N   0  0  0  0  0  0  0  0  0  0  0  0
   10.1300    7.1316    0.0000 N   0  0  0  0  0  0  0  0  0  0  0  0
   11.8620    7.1316    0.0000 N   0  0  0  0  0  0  0  0  0  0  0  0
    4.9338    8.1316    0.0000 N   0  0  0  0  0  0  0  0  0  0  0  0
    3.2018    8.1316    0.0000 N   0  0  0  0  0  0  0  0  0  0  0  0
    8.3979    7.1316    0.0000 C   0  0  0  0  0  0  0  0  0  0  0  0
    9.2640    8.6316    0.0000 C   0  0  0  0  0  0  0  0  0  0  0  0
    9.2640    6.6316    0.0000 C   0  0  0  0  0  0  0  0  0  0  0  0
   10.1300    8.1316    0.0000 C   0  0  0  0  0  0  0  0  0  0  0  0
    7.5319    8.6316    0.0000 C   0  0  0  0  0  0  0  0  0  0  0  0
    6.6659    8.1316    0.0000 C   0  0  0  0  0  0  0  0  0  0  0  0
   10.9960    6.6316    0.0000 C   0  0  0  0  0  0  0  0  0  0  0  0
    5.7998    8.6316    0.0000 C   0  0  0  0  0  0  0  0  0  0  0  0
   10.9960    5.6316    0.0000 C   0  0  0  0  0  0  0  0  0  0  0  0
   11.8620    5.1316    0.0000 C   0  0  0  0  0  0  0  0  0  0  0  0
    4.0678    8.6316    0.0000 C   0  0  0  0  0  0  0  0  0  0  0  0
   12.7281    6.6316    0.0000 C   0  0  0  0  0  0  0  0  0  0  0  0
   12.7281    5.6316    0.0000 C   0  0  0  0  0  0  0  0  0  0  0  0
    4.0678    9.6316    0.0000 C   0  0  0  0  0  0  0  0  0  0  0  0
    2.3358    8.6316    0.0000 C   0  0  0  0  0  0  0  0  0  0  0  0
    2.3358    9.6316    0.0000 C   0  0  0  0  0  0  0  0  0  0  0  0
    1.4418    8.0969    0.0000 C   0  0  0  0  0  0  0  0  0  0  0  0
    1.4418   10.1662    0.0000 C   0  0  0  0  0  0  0  0  0  0  0  0
    0.5357    8.6108    0.0000 C   0  0  0  0  0  0  0  0  0  0  0  0
    0.5357    9.6524    0.0000 C   0  0  0  0  0  0  0  0  0  0  0  0
    7.0655    1.0000    0.0000 C   0  0  0  0  0  0  0  0  0  0  0  0
    6.1995    1.5000    0.0000 C   0  0  0  0  0  0  0  0  0  0  0  0
    7.9315    1.5000    0.0000 C   0  0  0  0  0  0  0  0  0  0  0  0
    5.3335    1.0000    0.0000 C   0  0  0  0  0  0  0  0  0  0  0  0
    7.7873    7.2392    0.0000 H   0  0  0  0  0  0  0  0  0  0  0  0
    8.1859    6.5489    0.0000 H   0  0  0  0  0  0  0  0  0  0  0  0
    9.6625    9.1065    0.0000 H   0  0  0  0  0  0  0  0  0  0  0  0
    8.8654    9.1065    0.0000 H   0  0  0  0  0  0  0  0  0  0  0  0
    8.8654    6.1566    0.0000 H   0  0  0  0  0  0  0  0  0  0  0  0
    9.6625    6.1566    0.0000 H   0  0  0  0  0  0  0  0  0  0  0  0
   10.7406    8.0239    0.0000 H   0  0  0  0  0  0  0  0  0  0  0  0
   10.3420    8.7142    0.0000 H   0  0  0  0  0  0  0  0  0  0  0  0
    7.9304    9.1065    0.0000 H   0  0  0  0  0  0  0  0  0  0  0  0
    7.1334    9.1065    0.0000 H   0  0  0  0  0  0  0  0  0  0  0  0
    6.2673    7.6566    0.0000 H   0  0  0  0  0  0  0  0  0  0  0  0
    7.0644    7.6566    0.0000 H   0  0  0  0  0  0  0  0  0  0  0  0
    6.1984    9.1065    0.0000 H   0  0  0  0  0  0  0  0  0  0  0  0
    5.4013    9.1065    0.0000 H   0  0  0  0  0  0  0  0  0  0  0  0
   10.4591    5.3216    0.0000 H   0  0  0  0  0  0  0  0  0  0  0  0
   11.8620    4.5116    0.0000 H   0  0  0  0  0  0  0  0  0  0  0  0
   13.2650    6.9416    0.0000 H   0  0  0  0  0  0  0  0  0  0  0  0
   13.2650    5.3216    0.0000 H   0  0  0  0  0  0  0  0  0  0  0  0
    4.6784    9.5239    0.0000 H   0  0  0  0  0  0  0  0  0  0  0  0
    4.2798   10.2142    0.0000 H   0  0  0  0  0  0  0  0  0  0  0  0
    3.2018    7.5116    0.0000 H   0  0  0  0  0  0  0  0  0  0  0  0
    1.4490    7.4769    0.0000 H   0  0  0  0  0  0  0  0  0  0  0  0
    1.4490   10.7862    0.0000 H   0  0  0  0  0  0  0  0  0  0  0  0
    0.0000    8.2987    0.0000 H   0  0  0  0  0  0  0  0  0  0  0  0
    0.0000    9.9644    0.0000 H   0  0  0  0  0  0  0  0  0  0  0  0
    7.0655    0.3800    0.0000 H   0  0  0  0  0  0  0  0  0  0  0  0
    6.1995    2.1200    0.0000 H   0  0  0  0  0  0  0  0  0  0  0  0
    9.3345    1.3100    0.0000 H   0  0  0  0  0  0  0  0  0  0  0  0
    3.9305    1.1900    0.0000 H   0  0  0  0  0  0  0  0  0  0  0  0
  1 24  1  0  0  0  0
  1 26  1  0  0  0  0
  2 33  1  0  0  0  0
  2 62  1  0  0  0  0
  3 34  1  0  0  0  0
  3 63  1  0  0  0  0
  4 33  2  0  0  0  0
  5 34  2  0  0  0  0
  6 11  1  0  0  0  0
  6 12  1  0  0  0  0
  6 15  1  0  0  0  0
  7 13  1  0  0  0  0
  7 14  1  0  0  0  0
  7 17  1  0  0  0  0
  8 17  1  0  0  0  0
  8 22  2  0  0  0  0
  9 18  1  0  0  0  0
  9 21  2  0  0  0  0
 10 21  1  0  0  0  0
 10 25  1  0  0  0  0
 10 55  1  0  0  0  0
 11 13  1  0  0  0  0
 11 35  1  0  0  0  0
 11 36  1  0  0  0  0
 12 14  1  0  0  0  0
 12 37  1  0  0  0  0
 12 38  1  0  0  0  0
 13 39  1  0  0  0  0
 13 40  1  0  0  0  0
 14 41  1  0  0  0  0
 14 42  1  0  0  0  0
 15 16  1  0  0  0  0
 15 43  1  0  0  0  0
 15 44  1  0  0  0  0
 16 18  1  0  0  0  0
 16 45  1  0  0  0  0
 16 46  1  0  0  0  0
 17 19  2  0  0  0  0
 18 47  1  0  0  0  0
 18 48  1  0  0  0  0
 19 20  1  0  0  0  0
 19 49  1  0  0  0  0
 20 23  2  0  0  0  0
 20 50  1  0  0  0  0
 21 24  1  0  0  0  0
 22 23  1  0  0  0  0
 22 51  1  0  0  0  0
 23 52  1  0  0  0  0
 24 53  1  0  0  0  0
 24 54  1  0  0  0  0
 25 26  1  0  0  0  0
 25 27  2  0  0  0  0
 26 28  2  0  0  0  0
 27 29  1  0  0  0  0
 27 56  1  0  0  0  0
 28 30  1  0  0  0  0
 28 57  1  0  0  0  0
 29 30  2  0  0  0  0
 29 58  1  0  0  0  0
 30 59  1  0  0  0  0
 31 32  2  0  0  0  0
 31 33  1  0  0  0  0
 31 60  1  0  0  0  0
 32 34  1  0  0  0  0
 32 61  1  0  0  0  0
M  END
> <PUBCHEM_COMPOUND_CID>
135887935

> <PUBCHEM_COMPOUND_CANONICALIZED>
1

> <PUBCHEM_CACTVS_COMPLEXITY>
582

> <PUBCHEM_CACTVS_HBOND_ACCEPTOR>
9

> <PUBCHEM_CACTVS_HBOND_DONOR>
3

> <PUBCHEM_CACTVS_ROTATABLE_BOND>
7

> <PUBCHEM_CACTVS_SUBSKEYS>
AAADceB7uAAAAAAAAAAAAAAAAAAAAAAAAAA8WLEAAAAAAACxwAAAHgAQCAAACAzhkgY9/pPIFgCoADb3bASCiCkxIiAJ2CA/bNiOZuLE+ZuXOCjs0BPY+aeQQAAAAAAAAAAAEAAAAAAAAAAgAAAAAAAAAA==

> <PUBCHEM_IUPAC_OPENEYE_NAME>
fumaric acid;N-[3-[4-(2-pyridyl)piperazin-1-yl]propyl]-4H-1,4-benzoxazin-3-imine

> <PUBCHEM_IUPAC_CAS_NAME>
(E)-2-butenedioic acid;N-[3-[4-(2-pyridinyl)-1-piperazinyl]propyl]-4H-1,4-benzoxazin-3-imine

> <PUBCHEM_IUPAC_NAME_MARKUP>
(<I>E</I>)-but-2-enedioic acid;<I>N</I>-[3-(4-pyridin-2-ylpiperazin-1-yl)propyl]-4<I>H</I>-1,4-benzoxazin-3-imine

> <PUBCHEM_IUPAC_NAME>
(E)-but-2-enedioic acid;N-[3-(4-pyridin-2-ylpiperazin-1-yl)propyl]-4H-1,4-benzoxazin-3-imine

> <PUBCHEM_IUPAC_SYSTEMATIC_NAME>
(E)-but-2-enedioic acid;N-[3-(4-pyridin-2-ylpiperazin-1-yl)propyl]-4H-1,4-benzoxazin-3-imine

> <PUBCHEM_IUPAC_TRADITIONAL_NAME>
4H-1,4-benzoxazin-3-ylidene-[3-[4-(2-pyridyl)piperazino]propyl]amine;fumaric acid

> <PUBCHEM_IUPAC_INCHI>
InChI=1S/C20H25N5O.C4H4O4/c1-2-7-18-17(6-1)23-19(16-26-18)21-10-5-11-24-12-14-25(15-13-24)20-8-3-4-9-22-20;5-3(6)1-2-4(7)8/h1-4,6-9H,5,10-16H2,(H,21,23);1-2H,(H,5,6)(H,7,8)/b;2-1+

> <PUBCHEM_IUPAC_INCHIKEY>
IRJWRVXIZNQJBA-WLHGVMLRSA-N

> <PUBCHEM_EXACT_MASS>
467.21686904

> <PUBCHEM_MOLECULAR_FORMULA>
C24H29N5O5

> <PUBCHEM_MOLECULAR_WEIGHT>
467.5

> <PUBCHEM_OPENEYE_CAN_SMILES>
C1CN(CCN1CCCN=C2COC3=CC=CC=C3N2)C4=CC=CC=N4.C(=CC(=O)O)C(=O)O

> <PUBCHEM_OPENEYE_ISO_SMILES>
C1CN(CCN1CCCN=C2COC3=CC=CC=C3N2)C4=CC=CC=N4.C(=C/C(=O)O)\C(=O)O

> <PUBCHEM_CACTVS_TPSA>
128

> <PUBCHEM_MONOISOTOPIC_WEIGHT>
467.21686904

> <PUBCHEM_TOTAL_CHARGE>
0

> <PUBCHEM_HEAVY_ATOM_COUNT>
34

> <PUBCHEM_ATOM_DEF_STEREO_COUNT>
0

> <PUBCHEM_ATOM_UDEF_STEREO_COUNT>
0

> <PUBCHEM_BOND_DEF_STEREO_COUNT>
1

> <PUBCHEM_BOND_UDEF_STEREO_COUNT>
0

> <PUBCHEM_ISOTOPIC_ATOM_COUNT>
0

> <PUBCHEM_COMPONENT_COUNT>
2

> <PUBCHEM_CACTVS_TAUTO_COUNT>
-1

> <PUBCHEM_COORDINATE_TYPE>
1
5
255

> <PUBCHEM_BONDANNOTATIONS>
17  19  8
19  20  8
20  23  8
22  23  8
25  26  8
25  27  8
26  28  8
27  29  8
28  30  8
29  30  8
8  17  8
8  22  8

$$$$
