44329483
  -OEChem-09292322102D

 38 40  0     1  0  0  0  0  0999 V2000
    6.0682   -1.2846    0.0000 S   0  0  3  0  0  0  0  0  0  0  0  0
    6.0522    1.7569    0.0000 O   0  0  0  0  0  0  0  0  0  0  0  0
    6.0682   -2.2846    0.0000 O   0  0  0  0  0  0  0  0  0  0  0  0
    2.5381    0.7395    0.0000 O   0  0  0  0  0  0  0  0  0  0  0  0
    7.8443    0.7222    0.0000 N   0  0  3  0  0  0  0  0  0  0  0  0
    6.9343    0.2154    0.0000 C   0  0  3  0  0  0  0  0  0  0  0  0
    6.0682    0.7154    0.0000 C   0  0  3  0  0  0  0  0  0  0  0  0
    6.9343   -0.7846    0.0000 C   0  0  0  0  0  0  0  0  0  0  0  0
    7.8523    1.7638    0.0000 C   0  0  0  0  0  0  0  0  0  0  0  0
    5.2022    0.2154    0.0000 C   0  0  0  0  0  0  0  0  0  0  0  0
    8.7045    0.2122    0.0000 C   0  0  0  0  0  0  0  0  0  0  0  0
    6.9502    2.2846    0.0000 C   0  0  0  0  0  0  0  0  0  0  0  0
    5.2022   -0.7846    0.0000 C   0  0  0  0  0  0  0  0  0  0  0  0
    9.5762    0.7022    0.0000 C   0  0  0  0  0  0  0  0  0  0  0  0
    4.3083    0.7500    0.0000 C   0  0  0  0  0  0  0  0  0  0  0  0
    4.3083   -1.3193    0.0000 C   0  0  0  0  0  0  0  0  0  0  0  0
    3.4022    0.2362    0.0000 C   0  0  0  0  0  0  0  0  0  0  0  0
    3.4022   -0.8054    0.0000 C   0  0  0  0  0  0  0  0  0  0  0  0
   10.4364    0.1922    0.0000 C   0  0  0  0  0  0  0  0  0  0  0  0
    7.4688   -0.0988    0.0000 H   0  0  0  0  0  0  0  0  0  0  0  0
    6.6028    1.0295    0.0000 H   0  0  0  0  0  0  0  0  0  0  0  0
    7.1463   -1.3672    0.0000 H   0  0  0  0  0  0  0  0  0  0  0  0
    7.5449   -0.6770    0.0000 H   0  0  0  0  0  0  0  0  0  0  0  0
    8.4623    1.6530    0.0000 H   0  0  0  0  0  0  0  0  0  0  0  0
    8.0659    2.3459    0.0000 H   0  0  0  0  0  0  0  0  0  0  0  0
    8.3005   -0.2581    0.0000 H   0  0  0  0  0  0  0  0  0  0  0  0
    9.0975   -0.2673    0.0000 H   0  0  0  0  0  0  0  0  0  0  0  0
    7.3475    2.7606    0.0000 H   0  0  0  0  0  0  0  0  0  0  0  0
    6.5493    2.7575    0.0000 H   0  0  0  0  0  0  0  0  0  0  0  0
    9.9802    1.1725    0.0000 H   0  0  0  0  0  0  0  0  0  0  0  0
    9.1832    1.1817    0.0000 H   0  0  0  0  0  0  0  0  0  0  0  0
    4.3154    1.3700    0.0000 H   0  0  0  0  0  0  0  0  0  0  0  0
    4.3154   -1.9392    0.0000 H   0  0  0  0  0  0  0  0  0  0  0  0
    2.8665   -1.1175    0.0000 H   0  0  0  0  0  0  0  0  0  0  0  0
   10.1202   -0.3411    0.0000 H   0  0  0  0  0  0  0  0  0  0  0  0
   10.9697   -0.1240    0.0000 H   0  0  0  0  0  0  0  0  0  0  0  0
   10.7526    0.7255    0.0000 H   0  0  0  0  0  0  0  0  0  0  0  0
    2.0000    0.4316    0.0000 H   0  0  0  0  0  0  0  0  0  0  0  0
  1  3  2  0  0  0  0
  1  8  1  0  0  0  0
  1 13  1  0  0  0  0
  2  7  1  0  0  0  0
  2 12  1  0  0  0  0
  4 17  1  0  0  0  0
  4 38  1  0  0  0  0
  5  6  1  0  0  0  0
  5  9  1  0  0  0  0
  5 11  1  0  0  0  0
  6  7  1  0  0  0  0
  6  8  1  0  0  0  0
  6 20  1  0  0  0  0
  7 10  1  0  0  0  0
  7 21  1  0  0  0  0
  8 22  1  0  0  0  0
  8 23  1  0  0  0  0
  9 12  1  0  0  0  0
  9 24  1  0  0  0  0
  9 25  1  0  0  0  0
 10 13  2  0  0  0  0
 10 15  1  0  0  0  0
 11 14  1  0  0  0  0
 11 26  1  0  0  0  0
 11 27  1  0  0  0  0
 12 28  1  0  0  0  0
 12 29  1  0  0  0  0
 13 16  1  0  0  0  0
 14 19  1  0  0  0  0
 14 30  1  0  0  0  0
 14 31  1  0  0  0  0
 15 17  2  0  0  0  0
 15 32  1  0  0  0  0
 16 18  2  0  0  0  0
 16 33  1  0  0  0  0
 17 18  1  0  0  0  0
 18 34  1  0  0  0  0
 19 35  1  0  0  0  0
 19 36  1  0  0  0  0
 19 37  1  0  0  0  0
M  END
> <PUBCHEM_COMPOUND_CID>
44329483

> <PUBCHEM_COMPOUND_CANONICALIZED>
1

> <PUBCHEM_CACTVS_COMPLEXITY>
352

> <PUBCHEM_CACTVS_HBOND_ACCEPTOR>
5

> <PUBCHEM_CACTVS_HBOND_DONOR>
1

> <PUBCHEM_CACTVS_ROTATABLE_BOND>
2

> <PUBCHEM_CACTVS_SUBSKEYS>
AAADceByMABAAAAAAAAAAAAAAAAAAAAAAAA8SIAAAAAAAACxAAAAHgQACAAADDzl2AayB4MABgqAAiBCAEBCAAAgKBAIiBgOCIgKJiKisRuHcAAkwBG4uAfQ0LMOAIABAAAEAAABAAIAAAgAAAAAAAAAAA==

> <PUBCHEM_IUPAC_OPENEYE_NAME>
6-oxo-4-propyl-3,4a,5,10b-tetrahydro-2H-thiochromeno[4,3-b][1,4]oxazin-9-ol

> <PUBCHEM_IUPAC_CAS_NAME>
6-oxo-4-propyl-3,4a,5,10b-tetrahydro-2H-thiochromeno[4,3-b][1,4]oxazin-9-ol

> <PUBCHEM_IUPAC_NAME_MARKUP>
6-oxo-4-propyl-3,4<I>a</I>,5,10<I>b</I>-tetrahydro-2<I>H</I>-thiochromeno[4,3-b][1,4]oxazin-9-ol

> <PUBCHEM_IUPAC_NAME>
6-oxo-4-propyl-3,4a,5,10b-tetrahydro-2H-thiochromeno[4,3-b][1,4]oxazin-9-ol

> <PUBCHEM_IUPAC_SYSTEMATIC_NAME>
6-oxidanylidene-4-propyl-3,4a,5,10b-tetrahydro-2H-thiochromeno[4,3-b][1,4]oxazin-9-ol

> <PUBCHEM_IUPAC_TRADITIONAL_NAME>
6-keto-4-propyl-3,4a,5,10b-tetrahydro-2H-thiochromeno[4,3-b][1,4]oxazin-9-ol

> <PUBCHEM_IUPAC_INCHI>
InChI=1S/C14H19NO3S/c1-2-5-15-6-7-18-14-11-8-10(16)3-4-13(11)19(17)9-12(14)15/h3-4,8,12,14,16H,2,5-7,9H2,1H3

> <PUBCHEM_IUPAC_INCHIKEY>
LMWAUEIFLCRUHZ-UHFFFAOYSA-N

> <PUBCHEM_XLOGP3_AA>
0.9

> <PUBCHEM_EXACT_MASS>
281.10856464

> <PUBCHEM_MOLECULAR_FORMULA>
C14H19NO3S

> <PUBCHEM_MOLECULAR_WEIGHT>
281.37

> <PUBCHEM_OPENEYE_CAN_SMILES>
CCCN1CCOC2C1CS(=O)C3=C2C=C(C=C3)O

> <PUBCHEM_OPENEYE_ISO_SMILES>
CCCN1CCOC2C1CS(=O)C3=C2C=C(C=C3)O

> <PUBCHEM_CACTVS_TPSA>
69

> <PUBCHEM_MONOISOTOPIC_WEIGHT>
281.10856464

> <PUBCHEM_TOTAL_CHARGE>
0

> <PUBCHEM_HEAVY_ATOM_COUNT>
19

> <PUBCHEM_ATOM_DEF_STEREO_COUNT>
0

> <PUBCHEM_ATOM_UDEF_STEREO_COUNT>
3

> <PUBCHEM_BOND_DEF_STEREO_COUNT>
0

> <PUBCHEM_BOND_UDEF_STEREO_COUNT>
0

> <PUBCHEM_ISOTOPIC_ATOM_COUNT>
0

> <PUBCHEM_COMPONENT_COUNT>
1

> <PUBCHEM_CACTVS_TAUTO_COUNT>
-1

> <PUBCHEM_COORDINATE_TYPE>
1
5
255

> <PUBCHEM_BONDANNOTATIONS>
1  8  3
10  13  8
10  15  8
13  16  8
15  17  8
16  18  8
17  18  8
7  2  3
6  8  3

$$$$
