45264523
  -OEChem-09292322192D

 45 45  0     1  0  0  0  0  0999 V2000
    5.8928    4.6394    0.0000 Cl  0  0  0  0  0  0  0  0  0  0  0  0
    2.5407    5.1588    0.0000 O   0  0  0  0  0  0  0  0  0  0  0  0
    0.2806    3.8988    0.0000 O   0  0  0  0  0  0  0  0  0  0  0  0
    2.4067    7.6588    0.0000 N   0  0  0  0  0  0  0  0  0  0  0  0
    1.5407    5.1588    0.0000 C   0  0  3  0  0  0  0  0  0  0  0  0
    1.5407    6.1588    0.0000 C   0  0  0  0  0  0  0  0  0  0  0  0
    2.4067    6.6588    0.0000 C   0  0  0  0  0  0  0  0  0  0  0  0
    1.2317    4.2078    0.0000 C   0  0  0  0  0  0  0  0  0  0  0  0
    0.5897    5.4679    0.0000 C   0  0  0  0  0  0  0  0  0  0  0  0
    2.0407    3.6200    0.0000 C   0  0  0  0  0  0  0  0  0  0  0  0
    3.2728    8.1588    0.0000 C   0  0  0  0  0  0  0  0  0  0  0  0
    1.5407    8.1588    0.0000 C   0  0  0  0  0  0  0  0  0  0  0  0
    2.8497    4.2078    0.0000 C   0  0  0  0  0  0  0  0  0  0  0  0
    2.0407    2.6200    0.0000 C   0  0  0  0  0  0  0  0  0  0  0  0
    3.2728    9.1588    0.0000 C   0  0  0  0  0  0  0  0  0  0  0  0
    1.5407    9.1588    0.0000 C   0  0  0  0  0  0  0  0  0  0  0  0
    2.9067    2.1200    0.0000 C   0  0  0  0  0  0  0  0  0  0  0  0
    1.1747    2.1200    0.0000 C   0  0  0  0  0  0  0  0  0  0  0  0
    2.9067    1.1200    0.0000 C   0  0  0  0  0  0  0  0  0  0  0  0
    1.1747    1.1200    0.0000 C   0  0  0  0  0  0  0  0  0  0  0  0
    2.0407    0.6200    0.0000 C   0  0  0  0  0  0  0  0  0  0  0  0
    1.3287    6.7414    0.0000 H   0  0  0  0  0  0  0  0  0  0  0  0
    0.9301    6.0512    0.0000 H   0  0  0  0  0  0  0  0  0  0  0  0
    2.6188    6.0762    0.0000 H   0  0  0  0  0  0  0  0  0  0  0  0
    3.0173    6.7665    0.0000 H   0  0  0  0  0  0  0  0  0  0  0  0
    0.7812    6.0575    0.0000 H   0  0  0  0  0  0  0  0  0  0  0  0
    0.0000    5.6594    0.0000 H   0  0  0  0  0  0  0  0  0  0  0  0
    0.3981    4.8782    0.0000 H   0  0  0  0  0  0  0  0  0  0  0  0
    3.4848    7.5762    0.0000 H   0  0  0  0  0  0  0  0  0  0  0  0
    3.8833    8.2665    0.0000 H   0  0  0  0  0  0  0  0  0  0  0  0
    0.9301    8.2665    0.0000 H   0  0  0  0  0  0  0  0  0  0  0  0
    1.3287    7.5762    0.0000 H   0  0  0  0  0  0  0  0  0  0  0  0
    3.4394    4.0162    0.0000 H   0  0  0  0  0  0  0  0  0  0  0  0
    3.8928    9.1588    0.0000 H   0  0  0  0  0  0  0  0  0  0  0  0
    3.2728    9.7788    0.0000 H   0  0  0  0  0  0  0  0  0  0  0  0
    2.6528    9.1588    0.0000 H   0  0  0  0  0  0  0  0  0  0  0  0
    2.1607    9.1588    0.0000 H   0  0  0  0  0  0  0  0  0  0  0  0
    1.5407    9.7788    0.0000 H   0  0  0  0  0  0  0  0  0  0  0  0
    0.9207    9.1588    0.0000 H   0  0  0  0  0  0  0  0  0  0  0  0
    3.4437    2.4300    0.0000 H   0  0  0  0  0  0  0  0  0  0  0  0
    0.6378    2.4300    0.0000 H   0  0  0  0  0  0  0  0  0  0  0  0
    3.4437    0.8100    0.0000 H   0  0  0  0  0  0  0  0  0  0  0  0
    0.6378    0.8100    0.0000 H   0  0  0  0  0  0  0  0  0  0  0  0
    2.0407    0.0000    0.0000 H   0  0  0  0  0  0  0  0  0  0  0  0
    6.8928    4.6394    0.0000 H   0  0  0  0  0  0  0  0  0  0  0  0
  1 45  1  0  0  0  0
  2  5  1  0  0  0  0
  2 13  1  0  0  0  0
  3  8  2  0  0  0  0
  4  7  1  0  0  0  0
  4 11  1  0  0  0  0
  4 12  1  0  0  0  0
  5  6  1  0  0  0  0
  5  8  1  0  0  0  0
  5  9  1  0  0  0  0
  6  7  1  0  0  0  0
  6 22  1  0  0  0  0
  6 23  1  0  0  0  0
  7 24  1  0  0  0  0
  7 25  1  0  0  0  0
  8 10  1  0  0  0  0
  9 26  1  0  0  0  0
  9 27  1  0  0  0  0
  9 28  1  0  0  0  0
 10 13  2  0  0  0  0
 10 14  1  0  0  0  0
 11 15  1  0  0  0  0
 11 29  1  0  0  0  0
 11 30  1  0  0  0  0
 12 16  1  0  0  0  0
 12 31  1  0  0  0  0
 12 32  1  0  0  0  0
 13 33  1  0  0  0  0
 14 17  2  0  0  0  0
 14 18  1  0  0  0  0
 15 34  1  0  0  0  0
 15 35  1  0  0  0  0
 15 36  1  0  0  0  0
 16 37  1  0  0  0  0
 16 38  1  0  0  0  0
 16 39  1  0  0  0  0
 17 19  1  0  0  0  0
 17 40  1  0  0  0  0
 18 20  2  0  0  0  0
 18 41  1  0  0  0  0
 19 21  2  0  0  0  0
 19 42  1  0  0  0  0
 20 21  1  0  0  0  0
 20 43  1  0  0  0  0
 21 44  1  0  0  0  0
M  END
> <PUBCHEM_COMPOUND_CID>
45264523

> <PUBCHEM_COMPOUND_CANONICALIZED>
1

> <PUBCHEM_CACTVS_COMPLEXITY>
367

> <PUBCHEM_CACTVS_HBOND_ACCEPTOR>
3

> <PUBCHEM_CACTVS_HBOND_DONOR>
1

> <PUBCHEM_CACTVS_ROTATABLE_BOND>
6

> <PUBCHEM_CACTVS_SUBSKEYS>
AAADceB6MAAEAAAAAAAAAAAAAAAAAQAAAAAwAAAAAAAAAAABAAAAHgAAAAAADEThmAYyAIMABACIAqBSAAICCAAgIAAIiAFIAMgIIDKAlRSEIAAmwACIiIecyOCOAAAAAAAAAAAAAAAAAAAAAAAAAAAAAA==

> <PUBCHEM_IUPAC_OPENEYE_NAME>
2-[2-(diethylamino)ethyl]-2-methyl-4-phenyl-furan-3-one;hydrochloride

> <PUBCHEM_IUPAC_CAS_NAME>
2-[2-(diethylamino)ethyl]-2-methyl-4-phenyl-3-furanone;hydrochloride

> <PUBCHEM_IUPAC_NAME_MARKUP>
2-[2-(diethylamino)ethyl]-2-methyl-4-phenylfuran-3-one;hydrochloride

> <PUBCHEM_IUPAC_NAME>
2-[2-(diethylamino)ethyl]-2-methyl-4-phenylfuran-3-one;hydrochloride

> <PUBCHEM_IUPAC_SYSTEMATIC_NAME>
2-[2-(diethylamino)ethyl]-2-methyl-4-phenyl-furan-3-one;hydrochloride

> <PUBCHEM_IUPAC_TRADITIONAL_NAME>
2-[2-(diethylamino)ethyl]-2-methyl-4-phenyl-furan-3-one;hydrochloride

> <PUBCHEM_IUPAC_INCHI>
InChI=1S/C17H23NO2.ClH/c1-4-18(5-2)12-11-17(3)16(19)15(13-20-17)14-9-7-6-8-10-14;/h6-10,13H,4-5,11-12H2,1-3H3;1H

> <PUBCHEM_IUPAC_INCHIKEY>
ZIQOWRFGTWLWEZ-UHFFFAOYSA-N

> <PUBCHEM_EXACT_MASS>
309.1495567

> <PUBCHEM_MOLECULAR_FORMULA>
C17H24ClNO2

> <PUBCHEM_MOLECULAR_WEIGHT>
309.8

> <PUBCHEM_OPENEYE_CAN_SMILES>
CCN(CC)CCC1(C(=O)C(=CO1)C2=CC=CC=C2)C.Cl

> <PUBCHEM_OPENEYE_ISO_SMILES>
CCN(CC)CCC1(C(=O)C(=CO1)C2=CC=CC=C2)C.Cl

> <PUBCHEM_CACTVS_TPSA>
29.5

> <PUBCHEM_MONOISOTOPIC_WEIGHT>
309.1495567

> <PUBCHEM_TOTAL_CHARGE>
0

> <PUBCHEM_HEAVY_ATOM_COUNT>
21

> <PUBCHEM_ATOM_DEF_STEREO_COUNT>
0

> <PUBCHEM_ATOM_UDEF_STEREO_COUNT>
1

> <PUBCHEM_BOND_DEF_STEREO_COUNT>
0

> <PUBCHEM_BOND_UDEF_STEREO_COUNT>
0

> <PUBCHEM_ISOTOPIC_ATOM_COUNT>
0

> <PUBCHEM_COMPONENT_COUNT>
2

> <PUBCHEM_CACTVS_TAUTO_COUNT>
-1

> <PUBCHEM_COORDINATE_TYPE>
1
5
255

> <PUBCHEM_BONDANNOTATIONS>
14  17  8
14  18  8
17  19  8
18  20  8
19  21  8
20  21  8
5  9  3

$$$$
