44297390
  -OEChem-09292322222D

 64 67  0     1  0  0  0  0  0999 V2000
    3.7320    0.2805    0.0000 S   0  0  0  0  0  0  0  0  0  0  0  0
    2.0000    1.2805    0.0000 F   0  0  0  0  0  0  0  0  0  0  0  0
    2.3660   -0.0855    0.0000 F   0  0  0  0  0  0  0  0  0  0  0  0
    3.3660    1.6465    0.0000 F   0  0  0  0  0  0  0  0  0  0  0  0
    4.5981   -0.2195    0.0000 O   0  0  0  0  0  0  0  0  0  0  0  0
    3.2320   -0.5855    0.0000 O   0  0  0  0  0  0  0  0  0  0  0  0
    4.2320    1.1465    0.0000 O   0  0  0  0  0  0  0  0  0  0  0  0
   14.1961    1.2396    0.0000 O   0  0  0  0  0  0  0  0  0  0  0  0
    8.9962    0.2597    0.0000 N   0  0  3  0  0  0  0  0  0  0  0  0
   13.3243   -0.2570    0.0000 N   0  0  0  0  0  0  0  0  0  0  0  0
    8.9962    1.3013    0.0000 C   0  0  0  0  0  0  0  0  0  0  0  0
    8.0901   -0.2542    0.0000 C   0  0  0  0  0  0  0  0  0  0  0  0
    8.0901    1.8151    0.0000 C   0  0  0  0  0  0  0  0  0  0  0  0
    9.8602   -0.2437    0.0000 C   0  0  0  0  0  0  0  0  0  0  0  0
    7.1962    0.2805    0.0000 C   0  0  0  0  0  0  0  0  0  0  0  0
    7.1962    1.2805    0.0000 C   0  0  0  0  0  0  0  0  0  0  0  0
   10.7282    0.2530    0.0000 C   0  0  0  0  0  0  0  0  0  0  0  0
   11.5923   -0.2503    0.0000 C   0  0  0  0  0  0  0  0  0  0  0  0
    6.3301   -0.2195    0.0000 C   0  0  0  0  0  0  0  0  0  0  0  0
    6.3301    1.7805    0.0000 C   0  0  0  0  0  0  0  0  0  0  0  0
    5.4641    0.2805    0.0000 C   0  0  0  0  0  0  0  0  0  0  0  0
   12.4602    0.2463    0.0000 C   0  0  0  0  0  0  0  0  0  0  0  0
    5.4641    1.2805    0.0000 C   0  0  0  0  0  0  0  0  0  0  0  0
   14.1923    0.2396    0.0000 C   0  0  0  0  0  0  0  0  0  0  0  0
    2.8660    0.7805    0.0000 C   0  0  0  0  0  0  0  0  0  0  0  0
   15.0564   -0.2637    0.0000 C   0  0  0  0  0  0  0  0  0  0  0  0
   16.7884   -0.2704    0.0000 C   0  0  0  0  0  0  0  0  0  0  0  0
   15.9243    0.2330    0.0000 C   0  0  0  0  0  0  0  0  0  0  0  0
   18.5204   -0.2770    0.0000 C   0  0  0  0  0  0  0  0  0  0  0  0
   18.5166   -1.2770    0.0000 C   0  0  0  0  0  0  0  0  0  0  0  0
   17.6564    0.2263    0.0000 C   0  0  0  0  0  0  0  0  0  0  0  0
   16.7845   -1.2704    0.0000 C   0  0  0  0  0  0  0  0  0  0  0  0
   17.6486   -1.7737    0.0000 C   0  0  0  0  0  0  0  0  0  0  0  0
   19.4164    0.2542    0.0000 C   0  0  0  0  0  0  0  0  0  0  0  0
   19.4085   -1.8151    0.0000 C   0  0  0  0  0  0  0  0  0  0  0  0
   20.3205   -0.2632    0.0000 C   0  0  0  0  0  0  0  0  0  0  0  0
   20.3165   -1.3048    0.0000 C   0  0  0  0  0  0  0  0  0  0  0  0
    9.6070    1.1952    0.0000 H   0  0  0  0  0  0  0  0  0  0  0  0
    9.2052    1.8850    0.0000 H   0  0  0  0  0  0  0  0  0  0  0  0
    7.6855   -0.7240    0.0000 H   0  0  0  0  0  0  0  0  0  0  0  0
    8.4837   -0.7332    0.0000 H   0  0  0  0  0  0  0  0  0  0  0  0
    8.4837    2.2942    0.0000 H   0  0  0  0  0  0  0  0  0  0  0  0
    7.6855    2.2849    0.0000 H   0  0  0  0  0  0  0  0  0  0  0  0
    9.4599   -0.7171    0.0000 H   0  0  0  0  0  0  0  0  0  0  0  0
   10.2569   -0.7201    0.0000 H   0  0  0  0  0  0  0  0  0  0  0  0
   11.1286    0.7264    0.0000 H   0  0  0  0  0  0  0  0  0  0  0  0
   10.3315    0.7295    0.0000 H   0  0  0  0  0  0  0  0  0  0  0  0
   11.1919   -0.7238    0.0000 H   0  0  0  0  0  0  0  0  0  0  0  0
   11.9890   -0.7268    0.0000 H   0  0  0  0  0  0  0  0  0  0  0  0
    6.3301   -0.8395    0.0000 H   0  0  0  0  0  0  0  0  0  0  0  0
    6.3301    2.4005    0.0000 H   0  0  0  0  0  0  0  0  0  0  0  0
   12.8606    0.7197    0.0000 H   0  0  0  0  0  0  0  0  0  0  0  0
   12.0635    0.7228    0.0000 H   0  0  0  0  0  0  0  0  0  0  0  0
    4.9272    1.5905    0.0000 H   0  0  0  0  0  0  0  0  0  0  0  0
   13.3219   -0.8770    0.0000 H   0  0  0  0  0  0  0  0  0  0  0  0
   15.0540   -0.8837    0.0000 H   0  0  0  0  0  0  0  0  0  0  0  0
   15.9267    0.8530    0.0000 H   0  0  0  0  0  0  0  0  0  0  0  0
   17.6587    0.8463    0.0000 H   0  0  0  0  0  0  0  0  0  0  0  0
   16.2464   -1.5783    0.0000 H   0  0  0  0  0  0  0  0  0  0  0  0
   17.6463   -2.3937    0.0000 H   0  0  0  0  0  0  0  0  0  0  0  0
   19.4117    0.8741    0.0000 H   0  0  0  0  0  0  0  0  0  0  0  0
   19.3989   -2.4351    0.0000 H   0  0  0  0  0  0  0  0  0  0  0  0
   20.8575    0.0468    0.0000 H   0  0  0  0  0  0  0  0  0  0  0  0
   20.8510   -1.6189    0.0000 H   0  0  0  0  0  0  0  0  0  0  0  0
  1  5  1  0  0  0  0
  1  6  2  0  0  0  0
  1  7  2  0  0  0  0
  1 25  1  0  0  0  0
  2 25  1  0  0  0  0
  3 25  1  0  0  0  0
  4 25  1  0  0  0  0
  5 21  1  0  0  0  0
  8 24  2  0  0  0  0
  9 11  1  0  0  0  0
  9 12  1  0  0  0  0
  9 14  1  0  0  0  0
 10 22  1  0  0  0  0
 10 24  1  0  0  0  0
 10 55  1  0  0  0  0
 11 13  1  0  0  0  0
 11 38  1  0  0  0  0
 11 39  1  0  0  0  0
 12 15  1  0  0  0  0
 12 40  1  0  0  0  0
 12 41  1  0  0  0  0
 13 16  1  0  0  0  0
 13 42  1  0  0  0  0
 13 43  1  0  0  0  0
 14 17  1  0  0  0  0
 14 44  1  0  0  0  0
 14 45  1  0  0  0  0
 15 16  2  0  0  0  0
 15 19  1  0  0  0  0
 16 20  1  0  0  0  0
 17 18  1  0  0  0  0
 17 46  1  0  0  0  0
 17 47  1  0  0  0  0
 18 22  1  0  0  0  0
 18 48  1  0  0  0  0
 18 49  1  0  0  0  0
 19 21  2  0  0  0  0
 19 50  1  0  0  0  0
 20 23  2  0  0  0  0
 20 51  1  0  0  0  0
 21 23  1  0  0  0  0
 22 52  1  0  0  0  0
 22 53  1  0  0  0  0
 23 54  1  0  0  0  0
 24 26  1  0  0  0  0
 26 28  2  0  0  0  0
 26 56  1  0  0  0  0
 27 28  1  0  0  0  0
 27 31  2  0  0  0  0
 27 32  1  0  0  0  0
 28 57  1  0  0  0  0
 29 30  1  0  0  0  0
 29 31  1  0  0  0  0
 29 34  2  0  0  0  0
 30 33  1  0  0  0  0
 30 35  2  0  0  0  0
 31 58  1  0  0  0  0
 32 33  2  0  0  0  0
 32 59  1  0  0  0  0
 33 60  1  0  0  0  0
 34 36  1  0  0  0  0
 34 61  1  0  0  0  0
 35 37  1  0  0  0  0
 35 62  1  0  0  0  0
 36 37  2  0  0  0  0
 36 63  1  0  0  0  0
 37 64  1  0  0  0  0
M  END
> <PUBCHEM_COMPOUND_CID>
44297390

> <PUBCHEM_COMPOUND_CANONICALIZED>
1

> <PUBCHEM_CACTVS_COMPLEXITY>
889

> <PUBCHEM_CACTVS_HBOND_ACCEPTOR>
8

> <PUBCHEM_CACTVS_HBOND_DONOR>
1

> <PUBCHEM_CACTVS_ROTATABLE_BOND>
9

> <PUBCHEM_CACTVS_SUBSKEYS>
AAADceB7OYBAAAAAAAAAAAAAAAAAAAAAAAA8YMEAAAAAAADxVAAAHwQQAAAADATBmBQwBsPAAAKIAiFSEHCCAAAgIAAIiIAODMgIJiKAkROEMAhk1hGIiYewwNAO4AADAAAQAADAAAYAACAAAAAAAAAAAA==

> <PUBCHEM_IUPAC_OPENEYE_NAME>
[2-[4-[[(E)-3-(2-naphthyl)prop-2-enoyl]amino]butyl]-3,4-dihydro-1H-isoquinolin-7-yl] trifluoromethanesulfonate

> <PUBCHEM_IUPAC_CAS_NAME>
trifluoromethanesulfonic acid [2-[4-[[(E)-3-(2-naphthalenyl)-1-oxoprop-2-enyl]amino]butyl]-3,4-dihydro-1H-isoquinolin-7-yl] ester

> <PUBCHEM_IUPAC_NAME_MARKUP>
[2-[4-[[(<I>E</I>)-3-naphthalen-2-ylprop-2-enoyl]amino]butyl]-3,4-dihydro-1<I>H</I>-isoquinolin-7-yl] trifluoromethanesulfonate

> <PUBCHEM_IUPAC_NAME>
[2-[4-[[(E)-3-naphthalen-2-ylprop-2-enoyl]amino]butyl]-3,4-dihydro-1H-isoquinolin-7-yl] trifluoromethanesulfonate

> <PUBCHEM_IUPAC_SYSTEMATIC_NAME>
[2-[4-[[(E)-3-naphthalen-2-ylprop-2-enoyl]amino]butyl]-3,4-dihydro-1H-isoquinolin-7-yl] tris(fluoranyl)methanesulfonate

> <PUBCHEM_IUPAC_TRADITIONAL_NAME>
trifluoromethanesulfonic acid [2-[4-[[(E)-3-(2-naphthyl)acryloyl]amino]butyl]-3,4-dihydro-1H-isoquinolin-7-yl] ester

> <PUBCHEM_IUPAC_INCHI>
InChI=1S/C27H27F3N2O4S/c28-27(29,30)37(34,35)36-25-11-10-22-13-16-32(19-24(22)18-25)15-4-3-14-31-26(33)12-8-20-7-9-21-5-1-2-6-23(21)17-20/h1-2,5-12,17-18H,3-4,13-16,19H2,(H,31,33)/b12-8+

> <PUBCHEM_IUPAC_INCHIKEY>
YFRPYRGBQBMLTB-XYOKQWHBSA-N

> <PUBCHEM_XLOGP3_AA>
5.9

> <PUBCHEM_EXACT_MASS>
532.16436301

> <PUBCHEM_MOLECULAR_FORMULA>
C27H27F3N2O4S

> <PUBCHEM_MOLECULAR_WEIGHT>
532.6

> <PUBCHEM_OPENEYE_CAN_SMILES>
C1CN(CC2=C1C=CC(=C2)OS(=O)(=O)C(F)(F)F)CCCCNC(=O)C=CC3=CC4=CC=CC=C4C=C3

> <PUBCHEM_OPENEYE_ISO_SMILES>
C1CN(CC2=C1C=CC(=C2)OS(=O)(=O)C(F)(F)F)CCCCNC(=O)/C=C/C3=CC4=CC=CC=C4C=C3

> <PUBCHEM_CACTVS_TPSA>
84.1

> <PUBCHEM_MONOISOTOPIC_WEIGHT>
532.16436301

> <PUBCHEM_TOTAL_CHARGE>
0

> <PUBCHEM_HEAVY_ATOM_COUNT>
37

> <PUBCHEM_ATOM_DEF_STEREO_COUNT>
0

> <PUBCHEM_ATOM_UDEF_STEREO_COUNT>
0

> <PUBCHEM_BOND_DEF_STEREO_COUNT>
1

> <PUBCHEM_BOND_UDEF_STEREO_COUNT>
0

> <PUBCHEM_ISOTOPIC_ATOM_COUNT>
0

> <PUBCHEM_COMPONENT_COUNT>
1

> <PUBCHEM_CACTVS_TAUTO_COUNT>
-1

> <PUBCHEM_COORDINATE_TYPE>
1
5
255

> <PUBCHEM_BONDANNOTATIONS>
15  16  8
15  19  8
16  20  8
19  21  8
20  23  8
21  23  8
27  31  8
27  32  8
29  30  8
29  31  8
29  34  8
30  33  8
30  35  8
32  33  8
34  36  8
35  37  8
36  37  8

$$$$
