118726001
  -OEChem-09292321592D

119124  0     1  0  0  0  0  0999 V2000
    2.5118   -2.0009    0.0000 O   0  0  0  0  0  0  0  0  0  0  0  0
   12.0039    1.4400    0.0000 O   0  0  0  0  0  0  0  0  0  0  0  0
   19.7982   -1.0600    0.0000 O   0  0  0  0  0  0  0  0  0  0  0  0
   23.2623   -0.0600    0.0000 O   0  0  0  0  0  0  0  0  0  0  0  0
   34.1741    1.7490    0.0000 O   0  0  0  0  0  0  0  0  0  0  0  0
    7.6738   -0.0600    0.0000 N   0  0  3  0  0  0  0  0  0  0  0  0
    2.6067   -0.2271    0.0000 N   0  0  0  0  0  0  0  0  0  0  0  0
   11.1379   -0.0600    0.0000 N   0  0  0  0  0  0  0  0  0  0  0  0
   18.9321    0.4400    0.0000 N   0  0  0  0  0  0  0  0  0  0  0  0
   28.4584    1.9400    0.0000 N   0  0  0  0  0  0  0  0  0  0  0  0
   31.0565    0.4400    0.0000 N   0  0  0  0  0  0  0  0  0  0  0  0
   30.1905    1.9400    0.0000 N   0  0  0  0  0  0  0  0  0  0  0  0
   29.3245    0.4400    0.0000 N   0  0  0  0  0  0  0  0  0  0  0  0
   32.0027    1.7447    0.0000 N   0  0  0  0  0  0  0  0  0  0  0  0
   32.0027    0.1353    0.0000 N   0  0  0  0  0  0  0  0  0  0  0  0
   30.1905   -1.0600    0.0000 N   0  0  0  0  0  0  0  0  0  0  0  0
    6.8078    0.4400    0.0000 C   0  0  0  0  0  0  0  0  0  0  0  0
    5.9418   -0.0600    0.0000 C   0  0  0  0  0  0  0  0  0  0  0  0
    8.5398    0.4400    0.0000 C   0  0  0  0  0  0  0  0  0  0  0  0
    7.6738   -1.0600    0.0000 C   0  0  0  0  0  0  0  0  0  0  0  0
    5.0757    0.4400    0.0000 C   0  0  0  0  0  0  0  0  0  0  0  0
    9.4059   -0.0600    0.0000 C   0  0  0  0  0  0  0  0  0  0  0  0
    4.2097   -0.0600    0.0000 C   0  0  0  0  0  0  0  0  0  0  0  0
    4.0005   -1.0318    0.0000 C   0  0  0  0  0  0  0  0  0  0  0  0
    6.8078   -1.5600    0.0000 C   0  0  0  0  0  0  0  0  0  0  0  0
    3.3437    0.4400    0.0000 C   0  0  0  0  0  0  0  0  0  0  0  0
   10.2719    0.4400    0.0000 C   0  0  0  0  0  0  0  0  0  0  0  0
    5.0757    1.4400    0.0000 C   0  0  0  0  0  0  0  0  0  0  0  0
   14.6020   -0.0600    0.0000 C   0  0  0  0  0  0  0  0  0  0  0  0
   15.4680    0.4400    0.0000 C   0  0  0  0  0  0  0  0  0  0  0  0
   13.7360    0.4400    0.0000 C   0  0  0  0  0  0  0  0  0  0  0  0
   16.3341   -0.0600    0.0000 C   0  0  0  0  0  0  0  0  0  0  0  0
    3.0118   -1.1349    0.0000 C   0  0  0  0  0  0  0  0  0  0  0  0
   12.8700   -0.0600    0.0000 C   0  0  0  0  0  0  0  0  0  0  0  0
    3.3437    1.4400    0.0000 C   0  0  0  0  0  0  0  0  0  0  0  0
    4.2097    1.9400    0.0000 C   0  0  0  0  0  0  0  0  0  0  0  0
   17.2001    0.4400    0.0000 C   0  0  0  0  0  0  0  0  0  0  0  0
    6.8078   -2.5600    0.0000 C   0  0  0  0  0  0  0  0  0  0  0  0
   12.0039    0.4400    0.0000 C   0  0  0  0  0  0  0  0  0  0  0  0
   18.0661   -0.0600    0.0000 C   0  0  0  0  0  0  0  0  0  0  0  0
   19.7982   -0.0600    0.0000 C   0  0  0  0  0  0  0  0  0  0  0  0
   20.6642    0.4400    0.0000 C   0  0  0  0  0  0  0  0  0  0  0  0
   21.5302   -0.0600    0.0000 C   0  0  0  0  0  0  0  0  0  0  0  0
   22.3962    0.4400    0.0000 C   0  0  0  0  0  0  0  0  0  0  0  0
   24.1283    0.4400    0.0000 C   0  0  0  0  0  0  0  0  0  0  0  0
   25.8603    1.4400    0.0000 C   0  0  0  0  0  0  0  0  0  0  0  0
   26.7264    1.9400    0.0000 C   0  0  0  0  0  0  0  0  0  0  0  0
   27.5924    1.4400    0.0000 C   0  0  0  0  0  0  0  0  0  0  0  0
   24.9943   -0.0600    0.0000 C   0  0  0  0  0  0  0  0  0  0  0  0
   24.1283    1.4400    0.0000 C   0  0  0  0  0  0  0  0  0  0  0  0
   25.8603    0.4400    0.0000 C   0  0  0  0  0  0  0  0  0  0  0  0
   24.9943    1.9400    0.0000 C   0  0  0  0  0  0  0  0  0  0  0  0
   29.3245    1.4400    0.0000 C   0  0  0  0  0  0  0  0  0  0  0  0
   31.0565    1.4400    0.0000 C   0  0  0  0  0  0  0  0  0  0  0  0
   30.1905   -0.0600    0.0000 C   0  0  0  0  0  0  0  0  0  0  0  0
   32.5863    0.9400    0.0000 C   0  0  0  0  0  0  0  0  0  0  0  0
   33.5863    0.9400    0.0000 C   0  0  0  0  0  0  0  0  0  0  0  0
   34.1741    0.1310    0.0000 C   0  0  0  0  0  0  0  0  0  0  0  0
   35.1252    0.4400    0.0000 C   0  0  0  0  0  0  0  0  0  0  0  0
   35.1252    1.4400    0.0000 C   0  0  0  0  0  0  0  0  0  0  0  0
    7.2063    0.9149    0.0000 H   0  0  0  0  0  0  0  0  0  0  0  0
    6.4093    0.9149    0.0000 H   0  0  0  0  0  0  0  0  0  0  0  0
    5.5432   -0.5349    0.0000 H   0  0  0  0  0  0  0  0  0  0  0  0
    6.3403   -0.5349    0.0000 H   0  0  0  0  0  0  0  0  0  0  0  0
    8.9384    0.9149    0.0000 H   0  0  0  0  0  0  0  0  0  0  0  0
    8.1413    0.9149    0.0000 H   0  0  0  0  0  0  0  0  0  0  0  0
    7.8859   -1.6426    0.0000 H   0  0  0  0  0  0  0  0  0  0  0  0
    8.2844   -0.9523    0.0000 H   0  0  0  0  0  0  0  0  0  0  0  0
    9.0073   -0.5349    0.0000 H   0  0  0  0  0  0  0  0  0  0  0  0
    9.8044   -0.5349    0.0000 H   0  0  0  0  0  0  0  0  0  0  0  0
    3.9996   -1.6518    0.0000 H   0  0  0  0  0  0  0  0  0  0  0  0
    4.6170   -1.0979    0.0000 H   0  0  0  0  0  0  0  0  0  0  0  0
    6.5957   -0.9774    0.0000 H   0  0  0  0  0  0  0  0  0  0  0  0
    6.1972   -1.6677    0.0000 H   0  0  0  0  0  0  0  0  0  0  0  0
   10.6704    0.9149    0.0000 H   0  0  0  0  0  0  0  0  0  0  0  0
    9.8734    0.9149    0.0000 H   0  0  0  0  0  0  0  0  0  0  0  0
    5.6127    1.7500    0.0000 H   0  0  0  0  0  0  0  0  0  0  0  0
   14.2035   -0.5349    0.0000 H   0  0  0  0  0  0  0  0  0  0  0  0
   15.0005   -0.5349    0.0000 H   0  0  0  0  0  0  0  0  0  0  0  0
   15.8666    0.9149    0.0000 H   0  0  0  0  0  0  0  0  0  0  0  0
   15.0695    0.9149    0.0000 H   0  0  0  0  0  0  0  0  0  0  0  0
   14.1345    0.9149    0.0000 H   0  0  0  0  0  0  0  0  0  0  0  0
   13.3375    0.9149    0.0000 H   0  0  0  0  0  0  0  0  0  0  0  0
   15.9355   -0.5349    0.0000 H   0  0  0  0  0  0  0  0  0  0  0  0
   16.7326   -0.5349    0.0000 H   0  0  0  0  0  0  0  0  0  0  0  0
    2.0000   -0.0992    0.0000 H   0  0  0  0  0  0  0  0  0  0  0  0
   12.4714   -0.5349    0.0000 H   0  0  0  0  0  0  0  0  0  0  0  0
   13.2685   -0.5349    0.0000 H   0  0  0  0  0  0  0  0  0  0  0  0
    2.8068    1.7500    0.0000 H   0  0  0  0  0  0  0  0  0  0  0  0
   11.1379   -0.6800    0.0000 H   0  0  0  0  0  0  0  0  0  0  0  0
    4.2097    2.5600    0.0000 H   0  0  0  0  0  0  0  0  0  0  0  0
   17.5986    0.9149    0.0000 H   0  0  0  0  0  0  0  0  0  0  0  0
   16.8016    0.9149    0.0000 H   0  0  0  0  0  0  0  0  0  0  0  0
    6.1878   -2.5600    0.0000 H   0  0  0  0  0  0  0  0  0  0  0  0
    6.8078   -3.1800    0.0000 H   0  0  0  0  0  0  0  0  0  0  0  0
    7.4278   -2.5600    0.0000 H   0  0  0  0  0  0  0  0  0  0  0  0
   17.6676   -0.5349    0.0000 H   0  0  0  0  0  0  0  0  0  0  0  0
   18.4647   -0.5349    0.0000 H   0  0  0  0  0  0  0  0  0  0  0  0
   18.9321    1.0600    0.0000 H   0  0  0  0  0  0  0  0  0  0  0  0
   21.0627    0.9149    0.0000 H   0  0  0  0  0  0  0  0  0  0  0  0
   20.2657    0.9149    0.0000 H   0  0  0  0  0  0  0  0  0  0  0  0
   21.1317   -0.5349    0.0000 H   0  0  0  0  0  0  0  0  0  0  0  0
   21.9288   -0.5349    0.0000 H   0  0  0  0  0  0  0  0  0  0  0  0
   22.7948    0.9149    0.0000 H   0  0  0  0  0  0  0  0  0  0  0  0
   21.9977    0.9149    0.0000 H   0  0  0  0  0  0  0  0  0  0  0  0
   27.1249    2.4150    0.0000 H   0  0  0  0  0  0  0  0  0  0  0  0
   26.3278    2.4150    0.0000 H   0  0  0  0  0  0  0  0  0  0  0  0
   27.1939    0.9651    0.0000 H   0  0  0  0  0  0  0  0  0  0  0  0
   27.9909    0.9651    0.0000 H   0  0  0  0  0  0  0  0  0  0  0  0
   24.9943   -0.6800    0.0000 H   0  0  0  0  0  0  0  0  0  0  0  0
   23.5914    1.7500    0.0000 H   0  0  0  0  0  0  0  0  0  0  0  0
   26.3973    0.1300    0.0000 H   0  0  0  0  0  0  0  0  0  0  0  0
   24.9943    2.5600    0.0000 H   0  0  0  0  0  0  0  0  0  0  0  0
   28.4584    2.5600    0.0000 H   0  0  0  0  0  0  0  0  0  0  0  0
   29.6535   -1.3700    0.0000 H   0  0  0  0  0  0  0  0  0  0  0  0
   30.7274   -1.3700    0.0000 H   0  0  0  0  0  0  0  0  0  0  0  0
   33.9825   -0.4587    0.0000 H   0  0  0  0  0  0  0  0  0  0  0  0
   35.6268    0.0756    0.0000 H   0  0  0  0  0  0  0  0  0  0  0  0
   35.6268    1.8044    0.0000 H   0  0  0  0  0  0  0  0  0  0  0  0
  1 33  2  0  0  0  0
  2 39  2  0  0  0  0
  3 41  2  0  0  0  0
  4 44  1  0  0  0  0
  4 45  1  0  0  0  0
  5 57  1  0  0  0  0
  5 60  1  0  0  0  0
  6 17  1  0  0  0  0
  6 19  1  0  0  0  0
  6 20  1  0  0  0  0
  7 26  1  0  0  0  0
  7 33  1  0  0  0  0
  7 86  1  0  0  0  0
  8 27  1  0  0  0  0
  8 39  1  0  0  0  0
  8 90  1  0  0  0  0
  9 40  1  0  0  0  0
  9 41  1  0  0  0  0
  9 99  1  0  0  0  0
 10 48  1  0  0  0  0
 10 53  1  0  0  0  0
 10114  1  0  0  0  0
 11 15  1  0  0  0  0
 11 54  1  0  0  0  0
 11 55  1  0  0  0  0
 12 53  2  0  0  0  0
 12 54  1  0  0  0  0
 13 53  1  0  0  0  0
 13 55  2  0  0  0  0
 14 54  2  0  0  0  0
 14 56  1  0  0  0  0
 15 56  2  0  0  0  0
 16 55  1  0  0  0  0
 16115  1  0  0  0  0
 16116  1  0  0  0  0
 17 18  1  0  0  0  0
 17 61  1  0  0  0  0
 17 62  1  0  0  0  0
 18 21  1  0  0  0  0
 18 63  1  0  0  0  0
 18 64  1  0  0  0  0
 19 22  1  0  0  0  0
 19 65  1  0  0  0  0
 19 66  1  0  0  0  0
 20 25  1  0  0  0  0
 20 67  1  0  0  0  0
 20 68  1  0  0  0  0
 21 23  2  0  0  0  0
 21 28  1  0  0  0  0
 22 27  1  0  0  0  0
 22 69  1  0  0  0  0
 22 70  1  0  0  0  0
 23 24  1  0  0  0  0
 23 26  1  0  0  0  0
 24 33  1  0  0  0  0
 24 71  1  0  0  0  0
 24 72  1  0  0  0  0
 25 38  1  0  0  0  0
 25 73  1  0  0  0  0
 25 74  1  0  0  0  0
 26 35  2  0  0  0  0
 27 75  1  0  0  0  0
 27 76  1  0  0  0  0
 28 36  2  0  0  0  0
 28 77  1  0  0  0  0
 29 30  1  0  0  0  0
 29 31  1  0  0  0  0
 29 78  1  0  0  0  0
 29 79  1  0  0  0  0
 30 32  1  0  0  0  0
 30 80  1  0  0  0  0
 30 81  1  0  0  0  0
 31 34  1  0  0  0  0
 31 82  1  0  0  0  0
 31 83  1  0  0  0  0
 32 37  1  0  0  0  0
 32 84  1  0  0  0  0
 32 85  1  0  0  0  0
 34 39  1  0  0  0  0
 34 87  1  0  0  0  0
 34 88  1  0  0  0  0
 35 36  1  0  0  0  0
 35 89  1  0  0  0  0
 36 91  1  0  0  0  0
 37 40  1  0  0  0  0
 37 92  1  0  0  0  0
 37 93  1  0  0  0  0
 38 94  1  0  0  0  0
 38 95  1  0  0  0  0
 38 96  1  0  0  0  0
 40 97  1  0  0  0  0
 40 98  1  0  0  0  0
 41 42  1  0  0  0  0
 42 43  1  0  0  0  0
 42100  1  0  0  0  0
 42101  1  0  0  0  0
 43 44  1  0  0  0  0
 43102  1  0  0  0  0
 43103  1  0  0  0  0
 44104  1  0  0  0  0
 44105  1  0  0  0  0
 45 49  2  0  0  0  0
 45 50  1  0  0  0  0
 46 47  1  0  0  0  0
 46 51  2  0  0  0  0
 46 52  1  0  0  0  0
 47 48  1  0  0  0  0
 47106  1  0  0  0  0
 47107  1  0  0  0  0
 48108  1  0  0  0  0
 48109  1  0  0  0  0
 49 51  1  0  0  0  0
 49110  1  0  0  0  0
 50 52  2  0  0  0  0
 50111  1  0  0  0  0
 51112  1  0  0  0  0
 52113  1  0  0  0  0
 56 57  1  0  0  0  0
 57 58  2  0  0  0  0
 58 59  1  0  0  0  0
 58117  1  0  0  0  0
 59 60  2  0  0  0  0
 59118  1  0  0  0  0
 60119  1  0  0  0  0
M  END
> <PUBCHEM_COMPOUND_CID>
118726001

> <PUBCHEM_COMPOUND_CANONICALIZED>
1

> <PUBCHEM_CACTVS_COMPLEXITY>
1280

> <PUBCHEM_CACTVS_HBOND_ACCEPTOR>
12

> <PUBCHEM_CACTVS_HBOND_DONOR>
5

> <PUBCHEM_CACTVS_ROTATABLE_BOND>
27

> <PUBCHEM_CACTVS_SUBSKEYS>
AAADcfB/+AAAAAAAAAAAAAAAAAAAAWLEgAA8YIAAAAAAAFgB/AAAHgAYAAAADAzhmwYz1ofIFECqAq9y9ASSiAsnIqAdiKGubNiOLrLE/buHOSj83hPY6Ye+2YKOoAAAQAASAABAAACAACQAAAAAAAAAAA==

> <PUBCHEM_IUPAC_OPENEYE_NAME>
8-[4-[4-[2-[[7-amino-2-(2-furyl)-[1,2,4]triazolo[1,5-a][1,3,5]triazin-5-yl]amino]ethyl]phenoxy]butanoylamino]-N-[3-[2-(2-oxoindolin-4-yl)ethyl-propyl-amino]propyl]octanamide

> <PUBCHEM_IUPAC_CAS_NAME>
8-[[4-[4-[2-[[7-amino-2-(2-furanyl)-[1,2,4]triazolo[1,5-a][1,3,5]triazin-5-yl]amino]ethyl]phenoxy]-1-oxobutyl]amino]-N-[3-[2-(2-oxo-1,3-dihydroindol-4-yl)ethyl-propylamino]propyl]octanamide

> <PUBCHEM_IUPAC_NAME_MARKUP>
8-[4-[4-[2-[[7-amino-2-(furan-2-yl)-[1,2,4]triazolo[1,5-a][1,3,5]triazin-5-yl]amino]ethyl]phenoxy]butanoylamino]-<I>N</I>-[3-[2-(2-oxo-1,3-dihydroindol-4-yl)ethyl-propylamino]propyl]octanamide

> <PUBCHEM_IUPAC_NAME>
8-[4-[4-[2-[[7-amino-2-(furan-2-yl)-[1,2,4]triazolo[1,5-a][1,3,5]triazin-5-yl]amino]ethyl]phenoxy]butanoylamino]-N-[3-[2-(2-oxo-1,3-dihydroindol-4-yl)ethyl-propylamino]propyl]octanamide

> <PUBCHEM_IUPAC_SYSTEMATIC_NAME>
8-[4-[4-[2-[[7-azanyl-2-(furan-2-yl)-[1,2,4]triazolo[1,5-a][1,3,5]triazin-5-yl]amino]ethyl]phenoxy]butanoylamino]-N-[3-[2-(2-oxidanylidene-1,3-dihydroindol-4-yl)ethyl-propyl-amino]propyl]octanamide

> <PUBCHEM_IUPAC_TRADITIONAL_NAME>
8-[4-[4-[2-[[7-amino-2-(2-furyl)-[1,2,4]triazolo[1,5-a][1,3,5]triazin-5-yl]amino]ethyl]phenoxy]butanoylamino]-N-[3-[2-(2-ketoindolin-4-yl)ethyl-propyl-amino]propyl]caprylamide

> <PUBCHEM_IUPAC_INCHI>
InChI=1S/C44H59N11O5/c1-2-26-54(28-22-33-12-8-13-36-35(33)31-40(58)49-36)27-11-24-47-38(56)15-6-4-3-5-7-23-46-39(57)16-10-29-59-34-19-17-32(18-20-34)21-25-48-43-51-42(45)55-44(52-43)50-41(53-55)37-14-9-30-60-37/h8-9,12-14,17-20,30H,2-7,10-11,15-16,21-29,31H2,1H3,(H,46,57)(H,47,56)(H,49,58)(H3,45,48,50,51,52,53)

> <PUBCHEM_IUPAC_INCHIKEY>
GRNZJJOLZMFJHZ-UHFFFAOYSA-N

> <PUBCHEM_XLOGP3_AA>
5.6

> <PUBCHEM_EXACT_MASS>
821.47006403

> <PUBCHEM_MOLECULAR_FORMULA>
C44H59N11O5

> <PUBCHEM_MOLECULAR_WEIGHT>
822.0

> <PUBCHEM_OPENEYE_CAN_SMILES>
CCCN(CCCNC(=O)CCCCCCCNC(=O)CCCOC1=CC=C(C=C1)CCNC2=NC3=NC(=NN3C(=N2)N)C4=CC=CO4)CCC5=C6CC(=O)NC6=CC=C5

> <PUBCHEM_OPENEYE_ISO_SMILES>
CCCN(CCCNC(=O)CCCCCCCNC(=O)CCCOC1=CC=C(C=C1)CCNC2=NC3=NC(=NN3C(=N2)N)C4=CC=CO4)CCC5=C6CC(=O)NC6=CC=C5

> <PUBCHEM_CACTVS_TPSA>
207

> <PUBCHEM_MONOISOTOPIC_WEIGHT>
821.47006403

> <PUBCHEM_TOTAL_CHARGE>
0

> <PUBCHEM_HEAVY_ATOM_COUNT>
60

> <PUBCHEM_ATOM_DEF_STEREO_COUNT>
0

> <PUBCHEM_ATOM_UDEF_STEREO_COUNT>
0

> <PUBCHEM_BOND_DEF_STEREO_COUNT>
0

> <PUBCHEM_BOND_UDEF_STEREO_COUNT>
0

> <PUBCHEM_ISOTOPIC_ATOM_COUNT>
0

> <PUBCHEM_COMPONENT_COUNT>
1

> <PUBCHEM_CACTVS_TAUTO_COUNT>
-1

> <PUBCHEM_COORDINATE_TYPE>
1
5
255

> <PUBCHEM_BONDANNOTATIONS>
11  15  8
11  54  8
11  55  8
12  53  8
12  54  8
13  53  8
13  55  8
14  54  8
14  56  8
15  56  8
21  23  8
21  28  8
23  26  8
26  35  8
28  36  8
35  36  8
45  49  8
45  50  8
46  51  8
46  52  8
49  51  8
5  57  8
5  60  8
50  52  8
57  58  8
58  59  8
59  60  8

$$$$
