11223004
  -OEChem-09292322522D

 46 49  0     1  0  0  0  0  0999 V2000
    2.8660    0.5441    0.0000 Cl  0  0  0  0  0  0  0  0  0  0  0  0
    4.5981   -0.4559    0.0000 S   0  0  0  0  0  0  0  0  0  0  0  0
    4.0981    0.4101    0.0000 O   0  0  0  0  0  0  0  0  0  0  0  0
    5.0981   -1.3219    0.0000 O   0  0  0  0  0  0  0  0  0  0  0  0
   10.7059    1.9184    0.0000 N   0  0  0  0  0  0  0  0  0  0  0  0
    9.0084   -1.7606    0.0000 N   0  0  0  0  0  0  0  0  0  0  0  0
    5.4641    0.0441    0.0000 N   0  0  0  0  0  0  0  0  0  0  0  0
   10.2976    1.0056    0.0000 C   0  0  2  0  0  0  0  0  0  0  0  0
   11.0396    0.3352    0.0000 C   0  0  0  0  0  0  0  0  0  0  0  0
   11.9064    0.8337    0.0000 C   0  0  0  0  0  0  0  0  0  0  0  0
    9.3191    0.7994    0.0000 C   0  0  0  0  0  0  0  0  0  0  0  0
   11.7002    1.8122    0.0000 C   0  0  0  0  0  0  0  0  0  0  0  0
    9.0084   -0.1512    0.0000 C   0  0  0  0  0  0  0  0  0  0  0  0
    8.0622   -0.4559    0.0000 C   0  0  0  0  0  0  0  0  0  0  0  0
    9.5920   -0.9559    0.0000 C   0  0  0  0  0  0  0  0  0  0  0  0
    8.0622   -1.4559    0.0000 C   0  0  0  0  0  0  0  0  0  0  0  0
    7.1962    0.0441    0.0000 C   0  0  0  0  0  0  0  0  0  0  0  0
    6.3301   -0.4559    0.0000 C   0  0  0  0  0  0  0  0  0  0  0  0
    7.1962   -1.9559    0.0000 C   0  0  0  0  0  0  0  0  0  0  0  0
    6.3301   -1.4559    0.0000 C   0  0  0  0  0  0  0  0  0  0  0  0
    3.7320   -0.9559    0.0000 C   0  0  0  0  0  0  0  0  0  0  0  0
    2.8660   -0.4559    0.0000 C   0  0  0  0  0  0  0  0  0  0  0  0
    3.7320   -1.9559    0.0000 C   0  0  0  0  0  0  0  0  0  0  0  0
    2.0000   -0.9559    0.0000 C   0  0  0  0  0  0  0  0  0  0  0  0
    2.8660   -2.4559    0.0000 C   0  0  0  0  0  0  0  0  0  0  0  0
    2.0000   -1.9559    0.0000 C   0  0  0  0  0  0  0  0  0  0  0  0
    9.9082    1.4881    0.0000 H   0  0  0  0  0  0  0  0  0  0  0  0
   10.5781   -0.0789    0.0000 H   0  0  0  0  0  0  0  0  0  0  0  0
   11.4031   -0.1671    0.0000 H   0  0  0  0  0  0  0  0  0  0  0  0
   12.1576    0.2668    0.0000 H   0  0  0  0  0  0  0  0  0  0  0  0
   12.4964    1.0242    0.0000 H   0  0  0  0  0  0  0  0  0  0  0  0
    9.2985    1.4190    0.0000 H   0  0  0  0  0  0  0  0  0  0  0  0
    8.7052    0.8867    0.0000 H   0  0  0  0  0  0  0  0  0  0  0  0
   12.3169    1.8759    0.0000 H   0  0  0  0  0  0  0  0  0  0  0  0
   11.7013    2.4322    0.0000 H   0  0  0  0  0  0  0  0  0  0  0  0
   10.3968    2.4559    0.0000 H   0  0  0  0  0  0  0  0  0  0  0  0
   10.2120   -0.9559    0.0000 H   0  0  0  0  0  0  0  0  0  0  0  0
    9.2010   -2.3500    0.0000 H   0  0  0  0  0  0  0  0  0  0  0  0
    7.1962    0.6641    0.0000 H   0  0  0  0  0  0  0  0  0  0  0  0
    7.1962   -2.5759    0.0000 H   0  0  0  0  0  0  0  0  0  0  0  0
    5.7932   -1.7659    0.0000 H   0  0  0  0  0  0  0  0  0  0  0  0
    5.4641    0.6641    0.0000 H   0  0  0  0  0  0  0  0  0  0  0  0
    4.2690   -2.2659    0.0000 H   0  0  0  0  0  0  0  0  0  0  0  0
    1.4631   -0.6459    0.0000 H   0  0  0  0  0  0  0  0  0  0  0  0
    2.8660   -3.0759    0.0000 H   0  0  0  0  0  0  0  0  0  0  0  0
    1.4631   -2.2659    0.0000 H   0  0  0  0  0  0  0  0  0  0  0  0
  1 22  1  0  0  0  0
  2  3  2  0  0  0  0
  2  4  2  0  0  0  0
  2  7  1  0  0  0  0
  2 21  1  0  0  0  0
  5  8  1  0  0  0  0
  5 12  1  0  0  0  0
  5 36  1  0  0  0  0
  6 15  1  0  0  0  0
  6 16  1  0  0  0  0
  6 38  1  0  0  0  0
  7 18  1  0  0  0  0
  7 42  1  0  0  0  0
  8  9  1  0  0  0  0
  8 11  1  6  0  0  0
  8 27  1  0  0  0  0
  9 10  1  0  0  0  0
  9 28  1  0  0  0  0
  9 29  1  0  0  0  0
 10 12  1  0  0  0  0
 10 30  1  0  0  0  0
 10 31  1  0  0  0  0
 11 13  1  0  0  0  0
 11 32  1  0  0  0  0
 11 33  1  0  0  0  0
 12 34  1  0  0  0  0
 12 35  1  0  0  0  0
 13 14  1  0  0  0  0
 13 15  2  0  0  0  0
 14 16  2  0  0  0  0
 14 17  1  0  0  0  0
 15 37  1  0  0  0  0
 16 19  1  0  0  0  0
 17 18  2  0  0  0  0
 17 39  1  0  0  0  0
 18 20  1  0  0  0  0
 19 20  2  0  0  0  0
 19 40  1  0  0  0  0
 20 41  1  0  0  0  0
 21 22  1  0  0  0  0
 21 23  2  0  0  0  0
 22 24  2  0  0  0  0
 23 25  1  0  0  0  0
 23 43  1  0  0  0  0
 24 26  1  0  0  0  0
 24 44  1  0  0  0  0
 25 26  2  0  0  0  0
 25 45  1  0  0  0  0
 26 46  1  0  0  0  0
M  END
> <PUBCHEM_COMPOUND_CID>
11223004

> <PUBCHEM_COMPOUND_CANONICALIZED>
1

> <PUBCHEM_CACTVS_COMPLEXITY>
582

> <PUBCHEM_CACTVS_HBOND_ACCEPTOR>
4

> <PUBCHEM_CACTVS_HBOND_DONOR>
3

> <PUBCHEM_CACTVS_ROTATABLE_BOND>
5

> <PUBCHEM_CACTVS_SUBSKEYS>
AAADceB7MABEAAAAAAAAAAAAAAAAAWLAAAAwYAAAAAAAAFgB9AAAHAYQQAAADCrBXiQ8wfLJkAKgAzRnRHDCgDAxByAI2bg4ZpgIIOLBk5GEIAhgkADIyAcQgMAOgACAQAACAIAAAQCAAAQBAAAAAAAAAA==

> <PUBCHEM_IUPAC_OPENEYE_NAME>
2-chloro-N-[3-[[(2R)-pyrrolidin-2-yl]methyl]-1H-indol-5-yl]benzenesulfonamide

> <PUBCHEM_IUPAC_CAS_NAME>
2-chloro-N-[3-[[(2R)-2-pyrrolidinyl]methyl]-1H-indol-5-yl]benzenesulfonamide

> <PUBCHEM_IUPAC_NAME_MARKUP>
2-chloro-<I>N</I>-[3-[[(2<I>R</I>)-pyrrolidin-2-yl]methyl]-1<I>H</I>-indol-5-yl]benzenesulfonamide

> <PUBCHEM_IUPAC_NAME>
2-chloro-N-[3-[[(2R)-pyrrolidin-2-yl]methyl]-1H-indol-5-yl]benzenesulfonamide

> <PUBCHEM_IUPAC_SYSTEMATIC_NAME>
2-chloranyl-N-[3-[[(2R)-pyrrolidin-2-yl]methyl]-1H-indol-5-yl]benzenesulfonamide

> <PUBCHEM_IUPAC_TRADITIONAL_NAME>
2-chloro-N-[3-[[(2R)-pyrrolidin-2-yl]methyl]-1H-indol-5-yl]benzenesulfonamide

> <PUBCHEM_IUPAC_INCHI>
InChI=1S/C19H20ClN3O2S/c20-17-5-1-2-6-19(17)26(24,25)23-15-7-8-18-16(11-15)13(12-22-18)10-14-4-3-9-21-14/h1-2,5-8,11-12,14,21-23H,3-4,9-10H2/t14-/m1/s1

> <PUBCHEM_IUPAC_INCHIKEY>
CZEUYEVFOZRSCP-CQSZACIVSA-N

> <PUBCHEM_XLOGP3_AA>
3.6

> <PUBCHEM_EXACT_MASS>
389.0964758

> <PUBCHEM_MOLECULAR_FORMULA>
C19H20ClN3O2S

> <PUBCHEM_MOLECULAR_WEIGHT>
389.9

> <PUBCHEM_OPENEYE_CAN_SMILES>
C1CC(NC1)CC2=CNC3=C2C=C(C=C3)NS(=O)(=O)C4=CC=CC=C4Cl

> <PUBCHEM_OPENEYE_ISO_SMILES>
C1C[C@@H](NC1)CC2=CNC3=C2C=C(C=C3)NS(=O)(=O)C4=CC=CC=C4Cl

> <PUBCHEM_CACTVS_TPSA>
82.4

> <PUBCHEM_MONOISOTOPIC_WEIGHT>
389.0964758

> <PUBCHEM_TOTAL_CHARGE>
0

> <PUBCHEM_HEAVY_ATOM_COUNT>
26

> <PUBCHEM_ATOM_DEF_STEREO_COUNT>
1

> <PUBCHEM_ATOM_UDEF_STEREO_COUNT>
0

> <PUBCHEM_BOND_DEF_STEREO_COUNT>
0

> <PUBCHEM_BOND_UDEF_STEREO_COUNT>
0

> <PUBCHEM_ISOTOPIC_ATOM_COUNT>
0

> <PUBCHEM_COMPONENT_COUNT>
1

> <PUBCHEM_CACTVS_TAUTO_COUNT>
-1

> <PUBCHEM_COORDINATE_TYPE>
1
5
255

> <PUBCHEM_BONDANNOTATIONS>
13  14  8
13  15  8
14  16  8
14  17  8
16  19  8
17  18  8
18  20  8
19  20  8
21  22  8
21  23  8
22  24  8
23  25  8
24  26  8
25  26  8
6  15  8
6  16  8
8  11  6

$$$$
