118711274
  -OEChem-09292322472D

 56 60  0     1  0  0  0  0  0999 V2000
    3.5949   -0.1368    0.0000 O   0  0  0  0  0  0  0  0  0  0  0  0
    6.7062    3.6427    0.0000 N   0  0  3  0  0  0  0  0  0  0  0  0
    3.5000   -1.9106    0.0000 N   0  0  0  0  0  0  0  0  0  0  0  0
    2.5000   -3.6427    0.0000 N   0  0  0  0  0  0  0  0  0  0  0  0
    4.9887   -0.9416    0.0000 N   0  0  0  0  0  0  0  0  0  0  0  0
    6.9745    1.8947    0.0000 C   0  0  3  0  0  0  0  0  0  0  0  0
    6.0640    1.5302    0.0000 C   0  0  0  0  0  0  0  0  0  0  0  0
    7.2598    2.8331    0.0000 C   0  0  0  0  0  0  0  0  0  0  0  0
    5.1979    2.0302    0.0000 C   0  0  0  0  0  0  0  0  0  0  0  0
    5.0583    3.0010    0.0000 C   0  0  0  0  0  0  0  0  0  0  0  0
    5.7283    3.7173    0.0000 C   0  0  0  0  0  0  0  0  0  0  0  0
    7.7112    1.2185    0.0000 C   0  0  0  0  0  0  0  0  0  0  0  0
    4.0000   -2.7767    0.0000 C   0  0  0  0  0  0  0  0  0  0  0  0
    2.5000   -1.9106    0.0000 C   0  0  0  0  0  0  0  0  0  0  0  0
    6.0640    0.5302    0.0000 C   0  0  0  0  0  0  0  0  0  0  0  0
    3.5000   -3.6427    0.0000 C   0  0  0  0  0  0  0  0  0  0  0  0
    2.0000   -2.7767    0.0000 C   0  0  0  0  0  0  0  0  0  0  0  0
    4.3319    1.5302    0.0000 C   0  0  0  0  0  0  0  0  0  0  0  0
    5.1979    0.0302    0.0000 C   0  0  0  0  0  0  0  0  0  0  0  0
    4.3319    0.5302    0.0000 C   0  0  0  0  0  0  0  0  0  0  0  0
    4.0000   -1.0446    0.0000 C   0  0  0  0  0  0  0  0  0  0  0  0
    7.2062    4.5087    0.0000 C   0  0  0  0  0  0  0  0  0  0  0  0
    8.6652    1.5184    0.0000 C   0  0  0  0  0  0  0  0  0  0  0  0
    7.4940    0.2424    0.0000 C   0  0  0  0  0  0  0  0  0  0  0  0
    2.0000   -4.5087    0.0000 C   0  0  0  0  0  0  0  0  0  0  0  0
    9.4019    0.8422    0.0000 C   0  0  0  0  0  0  0  0  0  0  0  0
    8.2306   -0.4338    0.0000 C   0  0  0  0  0  0  0  0  0  0  0  0
    9.1846   -0.1340    0.0000 C   0  0  0  0  0  0  0  0  0  0  0  0
    7.5726    2.0580    0.0000 H   0  0  0  0  0  0  0  0  0  0  0  0
    7.7977    2.5248    0.0000 H   0  0  0  0  0  0  0  0  0  0  0  0
    7.6805    3.2885    0.0000 H   0  0  0  0  0  0  0  0  0  0  0  0
    4.7116    3.5150    0.0000 H   0  0  0  0  0  0  0  0  0  0  0  0
    4.4798    2.7779    0.0000 H   0  0  0  0  0  0  0  0  0  0  0  0
    5.9124    4.3094    0.0000 H   0  0  0  0  0  0  0  0  0  0  0  0
    5.1923    4.0290    0.0000 H   0  0  0  0  0  0  0  0  0  0  0  0
    4.4750   -3.1752    0.0000 H   0  0  0  0  0  0  0  0  0  0  0  0
    4.4750   -2.3782    0.0000 H   0  0  0  0  0  0  0  0  0  0  0  0
    2.6077   -1.3001    0.0000 H   0  0  0  0  0  0  0  0  0  0  0  0
    1.9174   -1.6986    0.0000 H   0  0  0  0  0  0  0  0  0  0  0  0
    6.6009    0.2202    0.0000 H   0  0  0  0  0  0  0  0  0  0  0  0
    3.3923   -4.2533    0.0000 H   0  0  0  0  0  0  0  0  0  0  0  0
    4.0826   -3.8548    0.0000 H   0  0  0  0  0  0  0  0  0  0  0  0
    1.5250   -2.3782    0.0000 H   0  0  0  0  0  0  0  0  0  0  0  0
    1.5250   -3.1752    0.0000 H   0  0  0  0  0  0  0  0  0  0  0  0
    3.7950    1.8402    0.0000 H   0  0  0  0  0  0  0  0  0  0  0  0
    7.7432    4.1987    0.0000 H   0  0  0  0  0  0  0  0  0  0  0  0
    7.5162    5.0457    0.0000 H   0  0  0  0  0  0  0  0  0  0  0  0
    6.6693    4.8187    0.0000 H   0  0  0  0  0  0  0  0  0  0  0  0
    8.7999    2.1236    0.0000 H   0  0  0  0  0  0  0  0  0  0  0  0
    6.9025    0.0564    0.0000 H   0  0  0  0  0  0  0  0  0  0  0  0
    1.4631   -4.1987    0.0000 H   0  0  0  0  0  0  0  0  0  0  0  0
    1.6900   -5.0457    0.0000 H   0  0  0  0  0  0  0  0  0  0  0  0
    2.5369   -4.8187    0.0000 H   0  0  0  0  0  0  0  0  0  0  0  0
    9.9934    1.0281    0.0000 H   0  0  0  0  0  0  0  0  0  0  0  0
    8.0959   -1.0390    0.0000 H   0  0  0  0  0  0  0  0  0  0  0  0
    9.6414   -0.5532    0.0000 H   0  0  0  0  0  0  0  0  0  0  0  0
  1 20  1  0  0  0  0
  1 21  1  0  0  0  0
  2  8  1  0  0  0  0
  2 11  1  0  0  0  0
  2 22  1  0  0  0  0
  3 13  1  0  0  0  0
  3 14  1  0  0  0  0
  3 21  1  0  0  0  0
  4 16  1  0  0  0  0
  4 17  1  0  0  0  0
  4 25  1  0  0  0  0
  5 19  1  0  0  0  0
  5 21  2  0  0  0  0
  6  7  1  0  0  0  0
  6  8  1  0  0  0  0
  6 12  1  0  0  0  0
  6 29  1  0  0  0  0
  7  9  1  0  0  0  0
  7 15  2  0  0  0  0
  8 30  1  0  0  0  0
  8 31  1  0  0  0  0
  9 10  1  0  0  0  0
  9 18  2  0  0  0  0
 10 11  1  0  0  0  0
 10 32  1  0  0  0  0
 10 33  1  0  0  0  0
 11 34  1  0  0  0  0
 11 35  1  0  0  0  0
 12 23  2  0  0  0  0
 12 24  1  0  0  0  0
 13 16  1  0  0  0  0
 13 36  1  0  0  0  0
 13 37  1  0  0  0  0
 14 17  1  0  0  0  0
 14 38  1  0  0  0  0
 14 39  1  0  0  0  0
 15 19  1  0  0  0  0
 15 40  1  0  0  0  0
 16 41  1  0  0  0  0
 16 42  1  0  0  0  0
 17 43  1  0  0  0  0
 17 44  1  0  0  0  0
 18 20  1  0  0  0  0
 18 45  1  0  0  0  0
 19 20  2  0  0  0  0
 22 46  1  0  0  0  0
 22 47  1  0  0  0  0
 22 48  1  0  0  0  0
 23 26  1  0  0  0  0
 23 49  1  0  0  0  0
 24 27  2  0  0  0  0
 24 50  1  0  0  0  0
 25 51  1  0  0  0  0
 25 52  1  0  0  0  0
 25 53  1  0  0  0  0
 26 28  2  0  0  0  0
 26 54  1  0  0  0  0
 27 28  1  0  0  0  0
 27 55  1  0  0  0  0
 28 56  1  0  0  0  0
M  END
> <PUBCHEM_COMPOUND_CID>
118711274

> <PUBCHEM_COMPOUND_CANONICALIZED>
1

> <PUBCHEM_CACTVS_COMPLEXITY>
517

> <PUBCHEM_CACTVS_HBOND_ACCEPTOR>
5

> <PUBCHEM_CACTVS_HBOND_DONOR>
0

> <PUBCHEM_CACTVS_ROTATABLE_BOND>
2

> <PUBCHEM_CACTVS_SUBSKEYS>
AAADceB7oAAAAAAAAAAAAAAAAAAAAWAAAAA8YIAABYAAAFgB9AAAHgAAAAAADQzBngQz1rMIFECoA6RydASCiCkvYiAJmCG/bNiOZrLEvbudMShsxhPY6aeY2fKOqAABQAAQEABQAAKAACAgAAAAAAAAAA==

> <PUBCHEM_IUPAC_OPENEYE_NAME>
7-methyl-2-(4-methylpiperazin-1-yl)-5-phenyl-5,6,8,9-tetrahydrooxazolo[5,4-h][3]benzazepine

> <PUBCHEM_IUPAC_CAS_NAME>
7-methyl-2-(4-methyl-1-piperazinyl)-5-phenyl-5,6,8,9-tetrahydrooxazolo[5,4-h][3]benzazepine

> <PUBCHEM_IUPAC_NAME_MARKUP>
7-methyl-2-(4-methylpiperazin-1-yl)-5-phenyl-5,6,8,9-tetrahydro-[1,3]oxazolo[5,4-h][3]benzazepine

> <PUBCHEM_IUPAC_NAME>
7-methyl-2-(4-methylpiperazin-1-yl)-5-phenyl-5,6,8,9-tetrahydro-[1,3]oxazolo[5,4-h][3]benzazepine

> <PUBCHEM_IUPAC_SYSTEMATIC_NAME>
7-methyl-2-(4-methylpiperazin-1-yl)-5-phenyl-5,6,8,9-tetrahydro-[1,3]oxazolo[5,4-h][3]benzazepine

> <PUBCHEM_IUPAC_TRADITIONAL_NAME>
7-methyl-2-(4-methylpiperazino)-5-phenyl-5,6,8,9-tetrahydrooxazolo[5,4-h][3]benzazepine

> <PUBCHEM_IUPAC_INCHI>
InChI=1S/C23H28N4O/c1-25-10-12-27(13-11-25)23-24-21-15-19-18(14-22(21)28-23)8-9-26(2)16-20(19)17-6-4-3-5-7-17/h3-7,14-15,20H,8-13,16H2,1-2H3

> <PUBCHEM_IUPAC_INCHIKEY>
CQGFBLASKNNFBS-UHFFFAOYSA-N

> <PUBCHEM_XLOGP3_AA>
3.8

> <PUBCHEM_EXACT_MASS>
376.22631153

> <PUBCHEM_MOLECULAR_FORMULA>
C23H28N4O

> <PUBCHEM_MOLECULAR_WEIGHT>
376.5

> <PUBCHEM_OPENEYE_CAN_SMILES>
CN1CCN(CC1)C2=NC3=C(O2)C=C4CCN(CC(C4=C3)C5=CC=CC=C5)C

> <PUBCHEM_OPENEYE_ISO_SMILES>
CN1CCN(CC1)C2=NC3=C(O2)C=C4CCN(CC(C4=C3)C5=CC=CC=C5)C

> <PUBCHEM_CACTVS_TPSA>
35.8

> <PUBCHEM_MONOISOTOPIC_WEIGHT>
376.22631153

> <PUBCHEM_TOTAL_CHARGE>
0

> <PUBCHEM_HEAVY_ATOM_COUNT>
28

> <PUBCHEM_ATOM_DEF_STEREO_COUNT>
0

> <PUBCHEM_ATOM_UDEF_STEREO_COUNT>
1

> <PUBCHEM_BOND_DEF_STEREO_COUNT>
0

> <PUBCHEM_BOND_UDEF_STEREO_COUNT>
0

> <PUBCHEM_ISOTOPIC_ATOM_COUNT>
0

> <PUBCHEM_COMPONENT_COUNT>
1

> <PUBCHEM_CACTVS_TAUTO_COUNT>
-1

> <PUBCHEM_COORDINATE_TYPE>
1
5
255

> <PUBCHEM_BONDANNOTATIONS>
1  20  8
1  21  8
12  23  8
12  24  8
15  19  8
18  20  8
19  20  8
23  26  8
24  27  8
26  28  8
27  28  8
5  19  8
5  21  8
6  12  3
7  15  8
7  9  8
9  18  8

$$$$
