10515180
  -OEChem-09292322132D

 37 39  0     1  0  0  0  0  0999 V2000
    8.9446   -2.2673    0.0000 F   0  0  0  0  0  0  0  0  0  0  0  0
    5.4641    0.7673    0.0000 N   0  0  0  0  0  0  0  0  0  0  0  0
    6.3301    0.2673    0.0000 C   0  0  2  0  0  0  0  0  0  0  0  0
    6.3301   -0.7327    0.0000 C   0  0  0  0  0  0  0  0  0  0  0  0
    7.1962    0.7673    0.0000 C   0  0  0  0  0  0  0  0  0  0  0  0
    7.1962   -1.2327    0.0000 C   0  0  0  0  0  0  0  0  0  0  0  0
    8.0622    0.2673    0.0000 C   0  0  0  0  0  0  0  0  0  0  0  0
    8.0622   -0.7327    0.0000 C   0  0  0  0  0  0  0  0  0  0  0  0
    4.5981    0.2673    0.0000 C   0  0  0  0  0  0  0  0  0  0  0  0
    8.9561    0.8020    0.0000 C   0  0  0  0  0  0  0  0  0  0  0  0
    8.9561   -1.2674    0.0000 C   0  0  0  0  0  0  0  0  0  0  0  0
    9.8622    0.2881    0.0000 C   0  0  0  0  0  0  0  0  0  0  0  0
    9.8622   -0.7535    0.0000 C   0  0  0  0  0  0  0  0  0  0  0  0
    3.7320    0.7673    0.0000 C   0  0  0  0  0  0  0  0  0  0  0  0
    3.7320    1.7673    0.0000 C   0  0  0  0  0  0  0  0  0  0  0  0
    2.8660    0.2673    0.0000 C   0  0  0  0  0  0  0  0  0  0  0  0
    2.8660    2.2673    0.0000 C   0  0  0  0  0  0  0  0  0  0  0  0
    2.0000    0.7673    0.0000 C   0  0  0  0  0  0  0  0  0  0  0  0
    2.0000    1.7673    0.0000 C   0  0  0  0  0  0  0  0  0  0  0  0
    5.7932   -0.0427    0.0000 H   0  0  0  0  0  0  0  0  0  0  0  0
    5.7196   -0.6250    0.0000 H   0  0  0  0  0  0  0  0  0  0  0  0
    6.1181   -1.3153    0.0000 H   0  0  0  0  0  0  0  0  0  0  0  0
    7.5947    1.2422    0.0000 H   0  0  0  0  0  0  0  0  0  0  0  0
    6.7976    1.2422    0.0000 H   0  0  0  0  0  0  0  0  0  0  0  0
    6.7976   -1.7076    0.0000 H   0  0  0  0  0  0  0  0  0  0  0  0
    7.5947   -1.7076    0.0000 H   0  0  0  0  0  0  0  0  0  0  0  0
    5.4641    1.3873    0.0000 H   0  0  0  0  0  0  0  0  0  0  0  0
    4.1996   -0.2076    0.0000 H   0  0  0  0  0  0  0  0  0  0  0  0
    4.9966   -0.2076    0.0000 H   0  0  0  0  0  0  0  0  0  0  0  0
    8.9490    1.4219    0.0000 H   0  0  0  0  0  0  0  0  0  0  0  0
   10.3979    0.6002    0.0000 H   0  0  0  0  0  0  0  0  0  0  0  0
   10.3979   -1.0656    0.0000 H   0  0  0  0  0  0  0  0  0  0  0  0
    4.2690    2.0773    0.0000 H   0  0  0  0  0  0  0  0  0  0  0  0
    2.8660   -0.3527    0.0000 H   0  0  0  0  0  0  0  0  0  0  0  0
    2.8660    2.8873    0.0000 H   0  0  0  0  0  0  0  0  0  0  0  0
    1.4631    0.4573    0.0000 H   0  0  0  0  0  0  0  0  0  0  0  0
    1.4631    2.0773    0.0000 H   0  0  0  0  0  0  0  0  0  0  0  0
  1 11  1  0  0  0  0
  3  2  1  1  0  0  0
  2  9  1  0  0  0  0
  2 27  1  0  0  0  0
  3  4  1  0  0  0  0
  3  5  1  0  0  0  0
  3 20  1  0  0  0  0
  4  6  1  0  0  0  0
  4 21  1  0  0  0  0
  4 22  1  0  0  0  0
  5  7  1  0  0  0  0
  5 23  1  0  0  0  0
  5 24  1  0  0  0  0
  6  8  1  0  0  0  0
  6 25  1  0  0  0  0
  6 26  1  0  0  0  0
  7  8  2  0  0  0  0
  7 10  1  0  0  0  0
  8 11  1  0  0  0  0
  9 14  1  0  0  0  0
  9 28  1  0  0  0  0
  9 29  1  0  0  0  0
 10 12  2  0  0  0  0
 10 30  1  0  0  0  0
 11 13  2  0  0  0  0
 12 13  1  0  0  0  0
 12 31  1  0  0  0  0
 13 32  1  0  0  0  0
 14 15  2  0  0  0  0
 14 16  1  0  0  0  0
 15 17  1  0  0  0  0
 15 33  1  0  0  0  0
 16 18  2  0  0  0  0
 16 34  1  0  0  0  0
 17 19  2  0  0  0  0
 17 35  1  0  0  0  0
 18 19  1  0  0  0  0
 18 36  1  0  0  0  0
 19 37  1  0  0  0  0
M  END
> <PUBCHEM_COMPOUND_CID>
10515180

> <PUBCHEM_COMPOUND_CANONICALIZED>
1

> <PUBCHEM_CACTVS_COMPLEXITY>
274

> <PUBCHEM_CACTVS_HBOND_ACCEPTOR>
2

> <PUBCHEM_CACTVS_HBOND_DONOR>
1

> <PUBCHEM_CACTVS_ROTATABLE_BOND>
3

> <PUBCHEM_CACTVS_SUBSKEYS>
AAADceB6AQAAAAAAAAAAAAAAAAAAAAAAAAAwYMAAAAAAAADBQAAAHQAQAAAADCjBGAwwAILAAACAAiBCAACCAAAgAAAIiIAIBIgIICKAkRGEIAhgkACIiAcQgIAOgAAAAAAQAAAQAACAACAAAAAAAAAAAA==

> <PUBCHEM_IUPAC_OPENEYE_NAME>
(2R)-N-benzyl-5-fluoro-tetralin-2-amine

> <PUBCHEM_IUPAC_CAS_NAME>
(2R)-5-fluoro-N-(phenylmethyl)-1,2,3,4-tetrahydronaphthalen-2-amine

> <PUBCHEM_IUPAC_NAME_MARKUP>
(2<I>R</I>)-<I>N</I>-benzyl-5-fluoro-1,2,3,4-tetrahydronaphthalen-2-amine

> <PUBCHEM_IUPAC_NAME>
(2R)-N-benzyl-5-fluoro-1,2,3,4-tetrahydronaphthalen-2-amine

> <PUBCHEM_IUPAC_SYSTEMATIC_NAME>
(2R)-5-fluoranyl-N-(phenylmethyl)-1,2,3,4-tetrahydronaphthalen-2-amine

> <PUBCHEM_IUPAC_TRADITIONAL_NAME>
benzyl-[(2R)-5-fluorotetralin-2-yl]amine

> <PUBCHEM_IUPAC_INCHI>
InChI=1S/C17H18FN/c18-17-8-4-7-14-11-15(9-10-16(14)17)19-12-13-5-2-1-3-6-13/h1-8,15,19H,9-12H2/t15-/m1/s1

> <PUBCHEM_IUPAC_INCHIKEY>
QBTYVNHGXHWAKS-OAHLLOKOSA-N

> <PUBCHEM_XLOGP3_AA>
3.8

> <PUBCHEM_EXACT_MASS>
255.142327740

> <PUBCHEM_MOLECULAR_FORMULA>
C17H18FN

> <PUBCHEM_MOLECULAR_WEIGHT>
255.33

> <PUBCHEM_OPENEYE_CAN_SMILES>
C1CC2=C(CC1NCC3=CC=CC=C3)C=CC=C2F

> <PUBCHEM_OPENEYE_ISO_SMILES>
C1CC2=C(C[C@@H]1NCC3=CC=CC=C3)C=CC=C2F

> <PUBCHEM_CACTVS_TPSA>
12

> <PUBCHEM_MONOISOTOPIC_WEIGHT>
255.142327740

> <PUBCHEM_TOTAL_CHARGE>
0

> <PUBCHEM_HEAVY_ATOM_COUNT>
19

> <PUBCHEM_ATOM_DEF_STEREO_COUNT>
1

> <PUBCHEM_ATOM_UDEF_STEREO_COUNT>
0

> <PUBCHEM_BOND_DEF_STEREO_COUNT>
0

> <PUBCHEM_BOND_UDEF_STEREO_COUNT>
0

> <PUBCHEM_ISOTOPIC_ATOM_COUNT>
0

> <PUBCHEM_COMPONENT_COUNT>
1

> <PUBCHEM_CACTVS_TAUTO_COUNT>
-1

> <PUBCHEM_COORDINATE_TYPE>
1
5
255

> <PUBCHEM_BONDANNOTATIONS>
10  12  8
11  13  8
12  13  8
14  15  8
14  16  8
15  17  8
16  18  8
17  19  8
18  19  8
3  2  5
7  10  8
7  8  8
8  11  8

$$$$
