118736395
  -OEChem-09292322352D

 67 71  0     0  0  0  0  0  0999 V2000
   13.6975    4.0963    0.0000 O   0  0  0  0  0  0  0  0  0  0  0  0
    9.0094   -2.3296    0.0000 O   0  0  0  0  0  0  0  0  0  0  0  0
    4.6397   -4.6881    0.0000 O   0  0  0  0  0  0  0  0  0  0  0  0
    2.0000   -2.3296    0.0000 O   0  0  0  0  0  0  0  0  0  0  0  0
   11.1502    1.7487    0.0000 N   0  0  0  0  0  0  0  0  0  0  0  0
   13.1015    2.1871    0.0000 N   0  0  0  0  0  0  0  0  0  0  0  0
    7.3291   -1.7726    0.0000 N   0  0  0  0  0  0  0  0  0  0  0  0
    6.0047   -2.9559    0.0000 N   0  0  0  0  0  0  0  0  0  0  0  0
    5.5047   -1.4171    0.0000 N   0  0  0  0  0  0  0  0  0  0  0  0
    3.6803   -1.7726    0.0000 N   0  0  0  0  0  0  0  0  0  0  0  0
    3.2992   -3.5320    0.0000 N   0  0  0  0  0  0  0  0  0  0  0  0
   11.4482    2.7033    0.0000 C   0  0  0  0  0  0  0  0  0  0  0  0
   11.8278    1.0134    0.0000 C   0  0  0  0  0  0  0  0  0  0  0  0
   10.1745    1.5295    0.0000 C   0  0  0  0  0  0  0  0  0  0  0  0
   12.4238    2.9225    0.0000 C   0  0  0  0  0  0  0  0  0  0  0  0
   12.8035    1.2326    0.0000 C   0  0  0  0  0  0  0  0  0  0  0  0
    9.8765    0.5749    0.0000 C   0  0  0  0  0  0  0  0  0  0  0  0
    8.9008    0.3557    0.0000 C   0  0  0  0  0  0  0  0  0  0  0  0
    8.6028   -0.5988    0.0000 C   0  0  0  0  0  0  0  0  0  0  0  0
    7.6271   -0.8181    0.0000 C   0  0  0  0  0  0  0  0  0  0  0  0
   14.0772    2.4063    0.0000 C   0  0  0  0  0  0  0  0  0  0  0  0
    6.3137   -2.0049    0.0000 C   0  0  0  0  0  0  0  0  0  0  0  0
    5.0047   -2.9559    0.0000 C   0  0  0  0  0  0  0  0  0  0  0  0
   14.3752    3.3609    0.0000 C   0  0  0  0  0  0  0  0  0  0  0  0
    4.6957   -2.0049    0.0000 C   0  0  0  0  0  0  0  0  0  0  0  0
   14.7549    1.6710    0.0000 C   0  0  0  0  0  0  0  0  0  0  0  0
    8.0321   -2.5413    0.0000 C   0  0  0  0  0  0  0  0  0  0  0  0
    6.6897   -3.7407    0.0000 C   0  0  0  0  0  0  0  0  0  0  0  0
    7.7102   -3.5320    0.0000 C   0  0  0  0  0  0  0  0  0  0  0  0
    4.3197   -3.7407    0.0000 C   0  0  0  0  0  0  0  0  0  0  0  0
   15.3509    3.5801    0.0000 C   0  0  0  0  0  0  0  0  0  0  0  0
   15.7305    1.8902    0.0000 C   0  0  0  0  0  0  0  0  0  0  0  0
    2.9773   -2.5413    0.0000 C   0  0  0  0  0  0  0  0  0  0  0  0
   16.0285    2.8447    0.0000 C   0  0  0  0  0  0  0  0  0  0  0  0
    3.3823   -0.8181    0.0000 C   0  0  0  0  0  0  0  0  0  0  0  0
    2.6330   -4.2777    0.0000 C   0  0  0  0  0  0  0  0  0  0  0  0
   11.4194    3.3226    0.0000 H   0  0  0  0  0  0  0  0  0  0  0  0
   10.8332    2.7824    0.0000 H   0  0  0  0  0  0  0  0  0  0  0  0
   11.3059    0.6787    0.0000 H   0  0  0  0  0  0  0  0  0  0  0  0
   12.0667    0.4412    0.0000 H   0  0  0  0  0  0  0  0  0  0  0  0
   10.1457    2.1488    0.0000 H   0  0  0  0  0  0  0  0  0  0  0  0
    9.5596    1.6087    0.0000 H   0  0  0  0  0  0  0  0  0  0  0  0
   12.9458    3.2571    0.0000 H   0  0  0  0  0  0  0  0  0  0  0  0
   12.1849    3.4946    0.0000 H   0  0  0  0  0  0  0  0  0  0  0  0
   12.8323    0.6132    0.0000 H   0  0  0  0  0  0  0  0  0  0  0  0
   13.4184    1.1534    0.0000 H   0  0  0  0  0  0  0  0  0  0  0  0
    9.9053   -0.0444    0.0000 H   0  0  0  0  0  0  0  0  0  0  0  0
   10.4914    0.4957    0.0000 H   0  0  0  0  0  0  0  0  0  0  0  0
    8.8720    0.9751    0.0000 H   0  0  0  0  0  0  0  0  0  0  0  0
    8.2859    0.4349    0.0000 H   0  0  0  0  0  0  0  0  0  0  0  0
    8.6316   -1.2182    0.0000 H   0  0  0  0  0  0  0  0  0  0  0  0
    9.2177   -0.6780    0.0000 H   0  0  0  0  0  0  0  0  0  0  0  0
    7.5983   -0.1987    0.0000 H   0  0  0  0  0  0  0  0  0  0  0  0
    7.0122   -0.7389    0.0000 H   0  0  0  0  0  0  0  0  0  0  0  0
   14.5701    1.0791    0.0000 H   0  0  0  0  0  0  0  0  0  0  0  0
    6.4913   -4.3281    0.0000 H   0  0  0  0  0  0  0  0  0  0  0  0
    8.1233   -3.9943    0.0000 H   0  0  0  0  0  0  0  0  0  0  0  0
   15.5356    4.1719    0.0000 H   0  0  0  0  0  0  0  0  0  0  0  0
   16.1507    1.4343    0.0000 H   0  0  0  0  0  0  0  0  0  0  0  0
   16.6335    2.9806    0.0000 H   0  0  0  0  0  0  0  0  0  0  0  0
    3.9741   -0.6333    0.0000 H   0  0  0  0  0  0  0  0  0  0  0  0
    3.1975   -0.2262    0.0000 H   0  0  0  0  0  0  0  0  0  0  0  0
    2.7904   -1.0028    0.0000 H   0  0  0  0  0  0  0  0  0  0  0  0
   13.8823    4.6881    0.0000 H   0  0  0  0  0  0  0  0  0  0  0  0
    2.1706   -3.8646    0.0000 H   0  0  0  0  0  0  0  0  0  0  0  0
    2.2199   -4.7400    0.0000 H   0  0  0  0  0  0  0  0  0  0  0  0
    3.0953   -4.6908    0.0000 H   0  0  0  0  0  0  0  0  0  0  0  0
  1 24  1  0  0  0  0
  1 64  1  0  0  0  0
  2 27  2  0  0  0  0
  3 30  2  0  0  0  0
  4 33  2  0  0  0  0
  5 12  1  0  0  0  0
  5 13  1  0  0  0  0
  5 14  1  0  0  0  0
  6 15  1  0  0  0  0
  6 16  1  0  0  0  0
  6 21  1  0  0  0  0
  7 20  1  0  0  0  0
  7 22  1  0  0  0  0
  7 27  1  0  0  0  0
  8 22  1  0  0  0  0
  8 23  1  0  0  0  0
  8 28  1  0  0  0  0
  9 22  2  0  0  0  0
  9 25  1  0  0  0  0
 10 25  1  0  0  0  0
 10 33  1  0  0  0  0
 10 35  1  0  0  0  0
 11 30  1  0  0  0  0
 11 33  1  0  0  0  0
 11 36  1  0  0  0  0
 12 15  1  0  0  0  0
 12 37  1  0  0  0  0
 12 38  1  0  0  0  0
 13 16  1  0  0  0  0
 13 39  1  0  0  0  0
 13 40  1  0  0  0  0
 14 17  1  0  0  0  0
 14 41  1  0  0  0  0
 14 42  1  0  0  0  0
 15 43  1  0  0  0  0
 15 44  1  0  0  0  0
 16 45  1  0  0  0  0
 16 46  1  0  0  0  0
 17 18  1  0  0  0  0
 17 47  1  0  0  0  0
 17 48  1  0  0  0  0
 18 19  1  0  0  0  0
 18 49  1  0  0  0  0
 18 50  1  0  0  0  0
 19 20  1  0  0  0  0
 19 51  1  0  0  0  0
 19 52  1  0  0  0  0
 20 53  1  0  0  0  0
 20 54  1  0  0  0  0
 21 24  1  0  0  0  0
 21 26  2  0  0  0  0
 23 25  2  0  0  0  0
 23 30  1  0  0  0  0
 24 31  2  0  0  0  0
 26 32  1  0  0  0  0
 26 55  1  0  0  0  0
 27 29  1  0  0  0  0
 28 29  2  0  0  0  0
 28 56  1  0  0  0  0
 29 57  1  0  0  0  0
 31 34  1  0  0  0  0
 31 58  1  0  0  0  0
 32 34  2  0  0  0  0
 32 59  1  0  0  0  0
 34 60  1  0  0  0  0
 35 61  1  0  0  0  0
 35 62  1  0  0  0  0
 35 63  1  0  0  0  0
 36 65  1  0  0  0  0
 36 66  1  0  0  0  0
 36 67  1  0  0  0  0
M  END
> <PUBCHEM_COMPOUND_CID>
118736395

> <PUBCHEM_COMPOUND_CANONICALIZED>
1

> <PUBCHEM_CACTVS_COMPLEXITY>
877

> <PUBCHEM_CACTVS_HBOND_ACCEPTOR>
7

> <PUBCHEM_CACTVS_HBOND_DONOR>
1

> <PUBCHEM_CACTVS_ROTATABLE_BOND>
7

> <PUBCHEM_CACTVS_SUBSKEYS>
AAADceB7uAAAAAAAAAAAAAAAAAAAAWAAAAA8WIEAAAAAAFgBwAAAHgAACAAACAzBlgQz9pcMEgCoASd2dACCgC0nMqAJ2AGvfMiKbirS2bOUcIhsxzPY2OeQQAAAAAAAAAAAEAAAAAAAAAAgAAAAAAAAAA==

> <PUBCHEM_IUPAC_OPENEYE_NAME>
9-[5-[4-(2-hydroxyphenyl)piperazin-1-yl]pentyl]-1,3-dimethyl-purino[7,8-a]pyrimidine-2,4,8-trione

> <PUBCHEM_IUPAC_CAS_NAME>
9-[5-[4-(2-hydroxyphenyl)-1-piperazinyl]pentyl]-1,3-dimethylpurino[7,8-a]pyrimidine-2,4,8-trione

> <PUBCHEM_IUPAC_NAME_MARKUP>
9-[5-[4-(2-hydroxyphenyl)piperazin-1-yl]pentyl]-1,3-dimethylpurino[7,8-a]pyrimidine-2,4,8-trione

> <PUBCHEM_IUPAC_NAME>
9-[5-[4-(2-hydroxyphenyl)piperazin-1-yl]pentyl]-1,3-dimethylpurino[7,8-a]pyrimidine-2,4,8-trione

> <PUBCHEM_IUPAC_SYSTEMATIC_NAME>
9-[5-[4-(2-hydroxyphenyl)piperazin-1-yl]pentyl]-1,3-dimethyl-purino[7,8-a]pyrimidine-2,4,8-trione

> <PUBCHEM_IUPAC_TRADITIONAL_NAME>
9-[5-[4-(2-hydroxyphenyl)piperazino]pentyl]-1,3-dimethyl-purino[7,8-a]pyrimidine-2,4,8-trione

> <PUBCHEM_IUPAC_INCHI>
InChI=1S/C25H31N7O4/c1-27-22-21(23(35)28(2)25(27)36)32-13-10-20(34)31(24(32)26-22)12-7-3-6-11-29-14-16-30(17-15-29)18-8-4-5-9-19(18)33/h4-5,8-10,13,33H,3,6-7,11-12,14-17H2,1-2H3

> <PUBCHEM_IUPAC_INCHIKEY>
FKLGTWAUQNLMPV-UHFFFAOYSA-N

> <PUBCHEM_XLOGP3_AA>
1.6

> <PUBCHEM_EXACT_MASS>
493.24375250

> <PUBCHEM_MOLECULAR_FORMULA>
C25H31N7O4

> <PUBCHEM_MOLECULAR_WEIGHT>
493.6

> <PUBCHEM_OPENEYE_CAN_SMILES>
CN1C2=C(C(=O)N(C1=O)C)N3C=CC(=O)N(C3=N2)CCCCCN4CCN(CC4)C5=CC=CC=C5O

> <PUBCHEM_OPENEYE_ISO_SMILES>
CN1C2=C(C(=O)N(C1=O)C)N3C=CC(=O)N(C3=N2)CCCCCN4CCN(CC4)C5=CC=CC=C5O

> <PUBCHEM_CACTVS_TPSA>
106

> <PUBCHEM_MONOISOTOPIC_WEIGHT>
493.24375250

> <PUBCHEM_TOTAL_CHARGE>
0

> <PUBCHEM_HEAVY_ATOM_COUNT>
36

> <PUBCHEM_ATOM_DEF_STEREO_COUNT>
0

> <PUBCHEM_ATOM_UDEF_STEREO_COUNT>
0

> <PUBCHEM_BOND_DEF_STEREO_COUNT>
0

> <PUBCHEM_BOND_UDEF_STEREO_COUNT>
0

> <PUBCHEM_ISOTOPIC_ATOM_COUNT>
0

> <PUBCHEM_COMPONENT_COUNT>
1

> <PUBCHEM_CACTVS_TAUTO_COUNT>
-1

> <PUBCHEM_COORDINATE_TYPE>
1
5
255

> <PUBCHEM_BONDANNOTATIONS>
10  25  8
10  33  8
11  30  8
11  33  8
21  24  8
21  26  8
23  25  8
23  30  8
24  31  8
26  32  8
27  29  8
28  29  8
31  34  8
32  34  8
7  22  8
7  27  8
8  22  8
8  23  8
8  28  8
9  22  8
9  25  8

$$$$
