66801333
  -OEChem-09292322352D

 58 62  0     0  0  0  0  0  0999 V2000
    6.2619    2.8855    0.0000 S   0  0  0  0  0  0  0  0  0  0  0  0
    4.6783    2.0808    0.0000 S   0  0  0  0  0  0  0  0  0  0  0  0
   12.5938   -3.8855    0.0000 O   0  0  0  0  0  0  0  0  0  0  0  0
    6.2619    1.8855    0.0000 O   0  0  0  0  0  0  0  0  0  0  0  0
    6.2619    3.8855    0.0000 O   0  0  0  0  0  0  0  0  0  0  0  0
   10.7619    0.2874    0.0000 N   0  0  0  0  0  0  0  0  0  0  0  0
   11.7619   -1.4446    0.0000 N   0  0  0  0  0  0  0  0  0  0  0  0
    7.2619    2.8855    0.0000 N   0  0  0  0  0  0  0  0  0  0  0  0
   11.8568   -3.2184    0.0000 N   0  0  0  0  0  0  0  0  0  0  0  0
   10.2619   -0.5786    0.0000 C   0  0  0  0  0  0  0  0  0  0  0  0
   11.7619    0.2874    0.0000 C   0  0  0  0  0  0  0  0  0  0  0  0
   10.7619   -1.4446    0.0000 C   0  0  0  0  0  0  0  0  0  0  0  0
   12.2619   -0.5786    0.0000 C   0  0  0  0  0  0  0  0  0  0  0  0
   10.2619    1.1535    0.0000 C   0  0  0  0  0  0  0  0  0  0  0  0
    9.2619    1.1535    0.0000 C   0  0  0  0  0  0  0  0  0  0  0  0
    8.7619    2.0195    0.0000 C   0  0  0  0  0  0  0  0  0  0  0  0
   12.2619   -2.3106    0.0000 C   0  0  0  0  0  0  0  0  0  0  0  0
    7.7619    2.0195    0.0000 C   0  0  0  0  0  0  0  0  0  0  0  0
   13.2506   -2.4137    0.0000 C   0  0  0  0  0  0  0  0  0  0  0  0
   13.4568   -3.3922    0.0000 C   0  0  0  0  0  0  0  0  0  0  0  0
   13.9949   -1.7458    0.0000 C   0  0  0  0  0  0  0  0  0  0  0  0
   14.4073   -3.7029    0.0000 C   0  0  0  0  0  0  0  0  0  0  0  0
    5.2619    2.8855    0.0000 C   0  0  0  0  0  0  0  0  0  0  0  0
   14.9454   -2.0565    0.0000 C   0  0  0  0  0  0  0  0  0  0  0  0
   15.1516   -3.0350    0.0000 C   0  0  0  0  0  0  0  0  0  0  0  0
    4.6783    3.6902    0.0000 C   0  0  0  0  0  0  0  0  0  0  0  0
    3.7320    3.3855    0.0000 C   0  0  0  0  0  0  0  0  0  0  0  0
    3.7320    2.3855    0.0000 C   0  0  0  0  0  0  0  0  0  0  0  0
    2.8660    3.8855    0.0000 C   0  0  0  0  0  0  0  0  0  0  0  0
    2.8660    1.8855    0.0000 C   0  0  0  0  0  0  0  0  0  0  0  0
    2.0000    3.3855    0.0000 C   0  0  0  0  0  0  0  0  0  0  0  0
    2.0000    2.3855    0.0000 C   0  0  0  0  0  0  0  0  0  0  0  0
    9.7869   -0.1801    0.0000 H   0  0  0  0  0  0  0  0  0  0  0  0
    9.7869   -0.9771    0.0000 H   0  0  0  0  0  0  0  0  0  0  0  0
   12.3445    0.4995    0.0000 H   0  0  0  0  0  0  0  0  0  0  0  0
   11.6542    0.8980    0.0000 H   0  0  0  0  0  0  0  0  0  0  0  0
   10.1793   -1.6567    0.0000 H   0  0  0  0  0  0  0  0  0  0  0  0
   10.8695   -2.0552    0.0000 H   0  0  0  0  0  0  0  0  0  0  0  0
   12.7368   -0.9771    0.0000 H   0  0  0  0  0  0  0  0  0  0  0  0
   12.7368   -0.1801    0.0000 H   0  0  0  0  0  0  0  0  0  0  0  0
   10.8445    1.3655    0.0000 H   0  0  0  0  0  0  0  0  0  0  0  0
   10.1542    1.7640    0.0000 H   0  0  0  0  0  0  0  0  0  0  0  0
    8.6793    0.9414    0.0000 H   0  0  0  0  0  0  0  0  0  0  0  0
    9.3695    0.5429    0.0000 H   0  0  0  0  0  0  0  0  0  0  0  0
    9.3445    2.2315    0.0000 H   0  0  0  0  0  0  0  0  0  0  0  0
    8.6542    2.6301    0.0000 H   0  0  0  0  0  0  0  0  0  0  0  0
    7.1793    1.8074    0.0000 H   0  0  0  0  0  0  0  0  0  0  0  0
    7.8695    1.4089    0.0000 H   0  0  0  0  0  0  0  0  0  0  0  0
    7.5719    3.4224    0.0000 H   0  0  0  0  0  0  0  0  0  0  0  0
   13.8670   -1.1392    0.0000 H   0  0  0  0  0  0  0  0  0  0  0  0
   14.5352   -4.3095    0.0000 H   0  0  0  0  0  0  0  0  0  0  0  0
   15.4069   -1.6424    0.0000 H   0  0  0  0  0  0  0  0  0  0  0  0
   15.7410   -3.2276    0.0000 H   0  0  0  0  0  0  0  0  0  0  0  0
    4.8709    4.2796    0.0000 H   0  0  0  0  0  0  0  0  0  0  0  0
    2.8660    4.5055    0.0000 H   0  0  0  0  0  0  0  0  0  0  0  0
    2.8660    1.2655    0.0000 H   0  0  0  0  0  0  0  0  0  0  0  0
    1.4631    3.6955    0.0000 H   0  0  0  0  0  0  0  0  0  0  0  0
    1.4631    2.0755    0.0000 H   0  0  0  0  0  0  0  0  0  0  0  0
  1  4  2  0  0  0  0
  1  5  2  0  0  0  0
  1  8  1  0  0  0  0
  1 23  1  0  0  0  0
  2 23  1  0  0  0  0
  2 28  1  0  0  0  0
  3  9  1  0  0  0  0
  3 20  1  0  0  0  0
  6 10  1  0  0  0  0
  6 11  1  0  0  0  0
  6 14  1  0  0  0  0
  7 12  1  0  0  0  0
  7 13  1  0  0  0  0
  7 17  1  0  0  0  0
  8 18  1  0  0  0  0
  8 49  1  0  0  0  0
  9 17  2  0  0  0  0
 10 12  1  0  0  0  0
 10 33  1  0  0  0  0
 10 34  1  0  0  0  0
 11 13  1  0  0  0  0
 11 35  1  0  0  0  0
 11 36  1  0  0  0  0
 12 37  1  0  0  0  0
 12 38  1  0  0  0  0
 13 39  1  0  0  0  0
 13 40  1  0  0  0  0
 14 15  1  0  0  0  0
 14 41  1  0  0  0  0
 14 42  1  0  0  0  0
 15 16  1  0  0  0  0
 15 43  1  0  0  0  0
 15 44  1  0  0  0  0
 16 18  1  0  0  0  0
 16 45  1  0  0  0  0
 16 46  1  0  0  0  0
 17 19  1  0  0  0  0
 18 47  1  0  0  0  0
 18 48  1  0  0  0  0
 19 20  1  0  0  0  0
 19 21  2  0  0  0  0
 20 22  2  0  0  0  0
 21 24  1  0  0  0  0
 21 50  1  0  0  0  0
 22 25  1  0  0  0  0
 22 51  1  0  0  0  0
 23 26  2  0  0  0  0
 24 25  2  0  0  0  0
 24 52  1  0  0  0  0
 25 53  1  0  0  0  0
 26 27  1  0  0  0  0
 26 54  1  0  0  0  0
 27 28  1  0  0  0  0
 27 29  2  0  0  0  0
 28 30  2  0  0  0  0
 29 31  1  0  0  0  0
 29 55  1  0  0  0  0
 30 32  1  0  0  0  0
 30 56  1  0  0  0  0
 31 32  2  0  0  0  0
 31 57  1  0  0  0  0
 32 58  1  0  0  0  0
M  END
> <PUBCHEM_COMPOUND_CID>
66801333

> <PUBCHEM_COMPOUND_CANONICALIZED>
1

> <PUBCHEM_CACTVS_COMPLEXITY>
711

> <PUBCHEM_CACTVS_HBOND_ACCEPTOR>
8

> <PUBCHEM_CACTVS_HBOND_DONOR>
1

> <PUBCHEM_CACTVS_ROTATABLE_BOND>
8

> <PUBCHEM_CACTVS_SUBSKEYS>
AAADceB7sABgAAAAAAAAAAAAAAAAAWJAAAA8YIAAAAAAAFgB/gAAHgQUQAAADATB2gQxt9NQAAqtAqJyYnDDAZAlKBBpmLkuTNqIZrrgnZOUMYhm0BvoyceYyKCOAAAAAAAMAAAAAAAAABgAAAAAAAAAAA==

> <PUBCHEM_IUPAC_OPENEYE_NAME>
N-[4-[4-(1,2-benzoxazol-3-yl)piperazin-1-yl]butyl]benzothiophene-2-sulfonamide

> <PUBCHEM_IUPAC_CAS_NAME>
N-[4-[4-(1,2-benzoxazol-3-yl)-1-piperazinyl]butyl]-1-benzothiophene-2-sulfonamide

> <PUBCHEM_IUPAC_NAME_MARKUP>
<I>N</I>-[4-[4-(1,2-benzoxazol-3-yl)piperazin-1-yl]butyl]-1-benzothiophene-2-sulfonamide

> <PUBCHEM_IUPAC_NAME>
N-[4-[4-(1,2-benzoxazol-3-yl)piperazin-1-yl]butyl]-1-benzothiophene-2-sulfonamide

> <PUBCHEM_IUPAC_SYSTEMATIC_NAME>
N-[4-[4-(1,2-benzoxazol-3-yl)piperazin-1-yl]butyl]-1-benzothiophene-2-sulfonamide

> <PUBCHEM_IUPAC_TRADITIONAL_NAME>
N-[4-(4-indoxazen-3-ylpiperazino)butyl]benzothiophene-2-sulfonamide

> <PUBCHEM_IUPAC_INCHI>
InChI=1S/C23H26N4O3S2/c28-32(29,22-17-18-7-1-4-10-21(18)31-22)24-11-5-6-12-26-13-15-27(16-14-26)23-19-8-2-3-9-20(19)30-25-23/h1-4,7-10,17,24H,5-6,11-16H2

> <PUBCHEM_IUPAC_INCHIKEY>
JYPDEXJCUSDKRF-UHFFFAOYSA-N

> <PUBCHEM_XLOGP3_AA>
4.7

> <PUBCHEM_EXACT_MASS>
470.14463305

> <PUBCHEM_MOLECULAR_FORMULA>
C23H26N4O3S2

> <PUBCHEM_MOLECULAR_WEIGHT>
470.6

> <PUBCHEM_OPENEYE_CAN_SMILES>
C1CN(CCN1CCCCNS(=O)(=O)C2=CC3=CC=CC=C3S2)C4=NOC5=CC=CC=C54

> <PUBCHEM_OPENEYE_ISO_SMILES>
C1CN(CCN1CCCCNS(=O)(=O)C2=CC3=CC=CC=C3S2)C4=NOC5=CC=CC=C54

> <PUBCHEM_CACTVS_TPSA>
115

> <PUBCHEM_MONOISOTOPIC_WEIGHT>
470.14463305

> <PUBCHEM_TOTAL_CHARGE>
0

> <PUBCHEM_HEAVY_ATOM_COUNT>
32

> <PUBCHEM_ATOM_DEF_STEREO_COUNT>
0

> <PUBCHEM_ATOM_UDEF_STEREO_COUNT>
0

> <PUBCHEM_BOND_DEF_STEREO_COUNT>
0

> <PUBCHEM_BOND_UDEF_STEREO_COUNT>
0

> <PUBCHEM_ISOTOPIC_ATOM_COUNT>
0

> <PUBCHEM_COMPONENT_COUNT>
1

> <PUBCHEM_CACTVS_TAUTO_COUNT>
-1

> <PUBCHEM_COORDINATE_TYPE>
1
5
255

> <PUBCHEM_BONDANNOTATIONS>
17  19  8
19  20  8
19  21  8
2  23  8
2  28  8
20  22  8
21  24  8
22  25  8
23  26  8
24  25  8
26  27  8
27  28  8
27  29  8
28  30  8
29  31  8
3  20  8
3  9  8
30  32  8
31  32  8
9  17  8

$$$$
