155516569
  -OEChem-09292322082D

 62 65  0     0  0  0  0  0  0999 V2000
    4.5274    1.1950    0.0000 S   0  0  0  0  0  0  0  0  0  0  0  0
   12.5521    3.0337    0.0000 O   0  0  0  0  0  0  0  0  0  0  0  0
   10.5974    2.6103    0.0000 N   0  0  0  0  0  0  0  0  0  0  0  0
    5.3923   -2.0760    0.0000 N   0  0  0  0  0  0  0  0  0  0  0  0
    6.3518    0.8395    0.0000 N   0  0  0  0  0  0  0  0  0  0  0  0
    6.7328   -0.9199    0.0000 N   0  0  0  0  0  0  0  0  0  0  0  0
    4.0274   -0.3438    0.0000 C   0  0  0  0  0  0  0  0  0  0  0  0
    3.3424   -1.1286    0.0000 C   0  0  0  0  0  0  0  0  0  0  0  0
    2.3219   -0.9199    0.0000 C   0  0  0  0  0  0  0  0  0  0  0  0
    2.0000    0.0708    0.0000 C   0  0  0  0  0  0  0  0  0  0  0  0
    3.7183    0.6072    0.0000 C   0  0  0  0  0  0  0  0  0  0  0  0
    2.7029    0.8395    0.0000 C   0  0  0  0  0  0  0  0  0  0  0  0
    5.0274   -0.3438    0.0000 C   0  0  0  0  0  0  0  0  0  0  0  0
    5.3364    0.6072    0.0000 C   0  0  0  0  0  0  0  0  0  0  0  0
    5.7123   -1.1286    0.0000 C   0  0  0  0  0  0  0  0  0  0  0  0
    9.6201    2.3986    0.0000 C   0  0  0  0  0  0  0  0  0  0  0  0
    9.3148    1.4464    0.0000 C   0  0  0  0  0  0  0  0  0  0  0  0
    8.3374    1.2347    0.0000 C   0  0  0  0  0  0  0  0  0  0  0  0
    8.0321    0.2825    0.0000 C   0  0  0  0  0  0  0  0  0  0  0  0
   10.9028    3.5626    0.0000 C   0  0  0  0  0  0  0  0  0  0  0  0
   11.2694    1.8698    0.0000 C   0  0  0  0  0  0  0  0  0  0  0  0
    7.0547    0.0708    0.0000 C   0  0  0  0  0  0  0  0  0  0  0  0
   11.8801    3.7742    0.0000 C   0  0  0  0  0  0  0  0  0  0  0  0
   12.2468    2.0814    0.0000 C   0  0  0  0  0  0  0  0  0  0  0  0
    6.0528   -2.8268    0.0000 C   0  0  0  0  0  0  0  0  0  0  0  0
    4.4118   -2.2726    0.0000 C   0  0  0  0  0  0  0  0  0  0  0  0
    5.7328   -3.7742    0.0000 C   0  0  0  0  0  0  0  0  0  0  0  0
    4.0919   -3.2200    0.0000 C   0  0  0  0  0  0  0  0  0  0  0  0
    3.1160   -1.7058    0.0000 H   0  0  0  0  0  0  0  0  0  0  0  0
    3.8724   -1.4503    0.0000 H   0  0  0  0  0  0  0  0  0  0  0  0
    1.7081   -1.0077    0.0000 H   0  0  0  0  0  0  0  0  0  0  0  0
    2.3034   -1.5396    0.0000 H   0  0  0  0  0  0  0  0  0  0  0  0
    1.6208    0.5613    0.0000 H   0  0  0  0  0  0  0  0  0  0  0  0
    1.4518   -0.2189    0.0000 H   0  0  0  0  0  0  0  0  0  0  0  0
    2.9426    1.4113    0.0000 H   0  0  0  0  0  0  0  0  0  0  0  0
    2.1806    1.1734    0.0000 H   0  0  0  0  0  0  0  0  0  0  0  0
    9.5961    3.0182    0.0000 H   0  0  0  0  0  0  0  0  0  0  0  0
    9.0058    2.4825    0.0000 H   0  0  0  0  0  0  0  0  0  0  0  0
    9.3388    0.8269    0.0000 H   0  0  0  0  0  0  0  0  0  0  0  0
    9.9290    1.3625    0.0000 H   0  0  0  0  0  0  0  0  0  0  0  0
    8.3134    1.8542    0.0000 H   0  0  0  0  0  0  0  0  0  0  0  0
    7.7231    1.3186    0.0000 H   0  0  0  0  0  0  0  0  0  0  0  0
    8.0561   -0.3371    0.0000 H   0  0  0  0  0  0  0  0  0  0  0  0
    8.6464    0.1986    0.0000 H   0  0  0  0  0  0  0  0  0  0  0  0
   10.8788    4.1821    0.0000 H   0  0  0  0  0  0  0  0  0  0  0  0
   10.2885    3.6465    0.0000 H   0  0  0  0  0  0  0  0  0  0  0  0
   10.7449    1.5392    0.0000 H   0  0  0  0  0  0  0  0  0  0  0  0
   11.5039    1.2958    0.0000 H   0  0  0  0  0  0  0  0  0  0  0  0
   12.4046    4.1048    0.0000 H   0  0  0  0  0  0  0  0  0  0  0  0
   11.6457    4.3482    0.0000 H   0  0  0  0  0  0  0  0  0  0  0  0
   12.2708    1.4619    0.0000 H   0  0  0  0  0  0  0  0  0  0  0  0
   12.8611    1.9975    0.0000 H   0  0  0  0  0  0  0  0  0  0  0  0
    6.5968   -3.1242    0.0000 H   0  0  0  0  0  0  0  0  0  0  0  0
    6.4402   -2.3427    0.0000 H   0  0  0  0  0  0  0  0  0  0  0  0
    4.3974   -1.6527    0.0000 H   0  0  0  0  0  0  0  0  0  0  0  0
    3.7989   -2.1792    0.0000 H   0  0  0  0  0  0  0  0  0  0  0  0
    5.1454   -3.5758    0.0000 H   0  0  0  0  0  0  0  0  0  0  0  0
    5.5344   -4.3616    0.0000 H   0  0  0  0  0  0  0  0  0  0  0  0
    6.3202   -3.9726    0.0000 H   0  0  0  0  0  0  0  0  0  0  0  0
    3.5045   -3.0216    0.0000 H   0  0  0  0  0  0  0  0  0  0  0  0
    3.8935   -3.8074    0.0000 H   0  0  0  0  0  0  0  0  0  0  0  0
    4.6793   -3.4184    0.0000 H   0  0  0  0  0  0  0  0  0  0  0  0
  1 11  1  0  0  0  0
  1 14  1  0  0  0  0
  2 23  1  0  0  0  0
  2 24  1  0  0  0  0
  3 16  1  0  0  0  0
  3 20  1  0  0  0  0
  3 21  1  0  0  0  0
  4 15  1  0  0  0  0
  4 25  1  0  0  0  0
  4 26  1  0  0  0  0
  5 14  2  0  0  0  0
  5 22  1  0  0  0  0
  6 15  1  0  0  0  0
  6 22  2  0  0  0  0
  7  8  1  0  0  0  0
  7 11  2  0  0  0  0
  7 13  1  0  0  0  0
  8  9  1  0  0  0  0
  8 29  1  0  0  0  0
  8 30  1  0  0  0  0
  9 10  1  0  0  0  0
  9 31  1  0  0  0  0
  9 32  1  0  0  0  0
 10 12  1  0  0  0  0
 10 33  1  0  0  0  0
 10 34  1  0  0  0  0
 11 12  1  0  0  0  0
 12 35  1  0  0  0  0
 12 36  1  0  0  0  0
 13 14  1  0  0  0  0
 13 15  2  0  0  0  0
 16 17  1  0  0  0  0
 16 37  1  0  0  0  0
 16 38  1  0  0  0  0
 17 18  1  0  0  0  0
 17 39  1  0  0  0  0
 17 40  1  0  0  0  0
 18 19  1  0  0  0  0
 18 41  1  0  0  0  0
 18 42  1  0  0  0  0
 19 22  1  0  0  0  0
 19 43  1  0  0  0  0
 19 44  1  0  0  0  0
 20 23  1  0  0  0  0
 20 45  1  0  0  0  0
 20 46  1  0  0  0  0
 21 24  1  0  0  0  0
 21 47  1  0  0  0  0
 21 48  1  0  0  0  0
 23 49  1  0  0  0  0
 23 50  1  0  0  0  0
 24 51  1  0  0  0  0
 24 52  1  0  0  0  0
 25 27  1  0  0  0  0
 25 53  1  0  0  0  0
 25 54  1  0  0  0  0
 26 28  1  0  0  0  0
 26 55  1  0  0  0  0
 26 56  1  0  0  0  0
 27 57  1  0  0  0  0
 27 58  1  0  0  0  0
 27 59  1  0  0  0  0
 28 60  1  0  0  0  0
 28 61  1  0  0  0  0
 28 62  1  0  0  0  0
M  END
> <PUBCHEM_COMPOUND_CID>
155516569

> <PUBCHEM_COMPOUND_CANONICALIZED>
1

> <PUBCHEM_CACTVS_COMPLEXITY>
472

> <PUBCHEM_CACTVS_HBOND_ACCEPTOR>
6

> <PUBCHEM_CACTVS_HBOND_DONOR>
0

> <PUBCHEM_CACTVS_ROTATABLE_BOND>
8

> <PUBCHEM_CACTVS_SUBSKEYS>
AAADcfB7oABAAAAAAAAAAAAAAAAAASAAAAA8WIAAAAAAAFgB+AAAHgQAAAAADADh2wYDsdcIFAikAgJgZACD0KlhCLgBmDA4RJiKKCLg2NGHBAxogAL4yCcQgMAOgAAAAAAAAAAAAAAAAAgAAAAAAAAAAA==

> <PUBCHEM_IUPAC_OPENEYE_NAME>
N,N-diethyl-2-(4-morpholinobutyl)-5,6,7,8-tetrahydrobenzothiopheno[2,3-d]pyrimidin-4-amine

> <PUBCHEM_IUPAC_CAS_NAME>
N,N-diethyl-2-[4-(4-morpholinyl)butyl]-5,6,7,8-tetrahydro-[1]benzothiolo[2,3-d]pyrimidin-4-amine

> <PUBCHEM_IUPAC_NAME_MARKUP>
<I>N</I>,<I>N</I>-diethyl-2-(4-morpholin-4-ylbutyl)-5,6,7,8-tetrahydro-[1]benzothiolo[2,3-d]pyrimidin-4-amine

> <PUBCHEM_IUPAC_NAME>
N,N-diethyl-2-(4-morpholin-4-ylbutyl)-5,6,7,8-tetrahydro-[1]benzothiolo[2,3-d]pyrimidin-4-amine

> <PUBCHEM_IUPAC_SYSTEMATIC_NAME>
N,N-diethyl-2-(4-morpholin-4-ylbutyl)-5,6,7,8-tetrahydro-[1]benzothiolo[2,3-d]pyrimidin-4-amine

> <PUBCHEM_IUPAC_TRADITIONAL_NAME>
diethyl-[2-(4-morpholinobutyl)-5,6,7,8-tetrahydrobenzothiopheno[2,3-d]pyrimidin-4-yl]amine

> <PUBCHEM_IUPAC_INCHI>
InChI=1S/C22H34N4OS/c1-3-26(4-2)21-20-17-9-5-6-10-18(17)28-22(20)24-19(23-21)11-7-8-12-25-13-15-27-16-14-25/h3-16H2,1-2H3

> <PUBCHEM_IUPAC_INCHIKEY>
JWFKYWLJEICTDC-UHFFFAOYSA-N

> <PUBCHEM_XLOGP3_AA>
4.6

> <PUBCHEM_EXACT_MASS>
402.24533289

> <PUBCHEM_MOLECULAR_FORMULA>
C22H34N4OS

> <PUBCHEM_MOLECULAR_WEIGHT>
402.6

> <PUBCHEM_OPENEYE_CAN_SMILES>
CCN(CC)C1=C2C3=C(CCCC3)SC2=NC(=N1)CCCCN4CCOCC4

> <PUBCHEM_OPENEYE_ISO_SMILES>
CCN(CC)C1=C2C3=C(CCCC3)SC2=NC(=N1)CCCCN4CCOCC4

> <PUBCHEM_CACTVS_TPSA>
69.7

> <PUBCHEM_MONOISOTOPIC_WEIGHT>
402.24533289

> <PUBCHEM_TOTAL_CHARGE>
0

> <PUBCHEM_HEAVY_ATOM_COUNT>
28

> <PUBCHEM_ATOM_DEF_STEREO_COUNT>
0

> <PUBCHEM_ATOM_UDEF_STEREO_COUNT>
0

> <PUBCHEM_BOND_DEF_STEREO_COUNT>
0

> <PUBCHEM_BOND_UDEF_STEREO_COUNT>
0

> <PUBCHEM_ISOTOPIC_ATOM_COUNT>
0

> <PUBCHEM_COMPONENT_COUNT>
1

> <PUBCHEM_CACTVS_TAUTO_COUNT>
-1

> <PUBCHEM_COORDINATE_TYPE>
1
5
255

> <PUBCHEM_BONDANNOTATIONS>
1  11  8
1  14  8
13  14  8
13  15  8
5  14  8
5  22  8
6  15  8
6  22  8
7  11  8
7  13  8

$$$$
