46231645
  -OEChem-09292322292D

 66 70  0     1  0  0  0  0  0999 V2000
    8.6662   -5.2640    0.0000 Cl  0  0  0  0  0  0  0  0  0  0  0  0
    7.2884    2.0531    0.0000 F   0  0  0  0  0  0  0  0  0  0  0  0
    6.2673    5.3633    0.0000 F   0  0  0  0  0  0  0  0  0  0  0  0
    8.6662   -3.2156    0.0000 O   0  0  0  0  0  0  0  0  0  0  0  0
    3.8114   -4.2398    0.0000 N   0  0  3  0  0  0  0  0  0  0  0  0
    5.3772    1.4636    0.0000 N   0  0  3  0  0  0  0  0  0  0  0  0
    5.2202   -3.1163    0.0000 C   0  0  1  0  0  0  0  0  0  0  0  0
    4.2453   -3.3388    0.0000 C   0  0  0  0  0  0  0  0  0  0  0  0
    6.0020   -3.7398    0.0000 C   0  0  0  0  0  0  0  0  0  0  0  0
    4.2453   -5.1408    0.0000 C   0  0  0  0  0  0  0  0  0  0  0  0
    5.2202   -5.3633    0.0000 C   0  0  0  0  0  0  0  0  0  0  0  0
    6.0020   -4.7398    0.0000 C   0  0  0  0  0  0  0  0  0  0  0  0
    5.4427   -2.1414    0.0000 C   0  0  0  0  0  0  0  0  0  0  0  0
    6.8960   -3.2051    0.0000 C   0  0  0  0  0  0  0  0  0  0  0  0
    2.8114   -4.2398    0.0000 C   0  0  0  0  0  0  0  0  0  0  0  0
    6.8960   -5.2745    0.0000 C   0  0  0  0  0  0  0  0  0  0  0  0
    4.7097   -1.4612    0.0000 C   0  0  0  0  0  0  0  0  0  0  0  0
    6.3983   -1.8466    0.0000 C   0  0  0  0  0  0  0  0  0  0  0  0
    5.8878   -0.1915    0.0000 C   0  0  0  0  0  0  0  0  0  0  0  0
    7.8021   -3.7190    0.0000 C   0  0  0  0  0  0  0  0  0  0  0  0
    7.8021   -4.7606    0.0000 C   0  0  0  0  0  0  0  0  0  0  0  0
    4.9322   -0.4863    0.0000 C   0  0  0  0  0  0  0  0  0  0  0  0
    6.6208   -0.8717    0.0000 C   0  0  0  0  0  0  0  0  0  0  0  0
    6.1103    0.7834    0.0000 C   0  0  0  0  0  0  0  0  0  0  0  0
    4.4217    1.1688    0.0000 C   0  0  0  0  0  0  0  0  0  0  0  0
    5.5998    2.4385    0.0000 C   0  0  0  0  0  0  0  0  0  0  0  0
    3.6886    1.8490    0.0000 C   0  0  0  0  0  0  0  0  0  0  0  0
    6.5553    2.7333    0.0000 C   0  0  0  0  0  0  0  0  0  0  0  0
    4.8667    3.1187    0.0000 C   0  0  0  0  0  0  0  0  0  0  0  0
    2.7330    1.5542    0.0000 C   0  0  0  0  0  0  0  0  0  0  0  0
    3.9112    2.8239    0.0000 C   0  0  0  0  0  0  0  0  0  0  0  0
    6.7779    3.7082    0.0000 C   0  0  0  0  0  0  0  0  0  0  0  0
    5.0892    4.0936    0.0000 C   0  0  0  0  0  0  0  0  0  0  0  0
    6.0448    4.3884    0.0000 C   0  0  0  0  0  0  0  0  0  0  0  0
    2.0000    2.2344    0.0000 C   0  0  0  0  0  0  0  0  0  0  0  0
    3.1781    3.5041    0.0000 C   0  0  0  0  0  0  0  0  0  0  0  0
    2.2225    3.2093    0.0000 C   0  0  0  0  0  0  0  0  0  0  0  0
    4.7818   -2.6779    0.0000 H   0  0  0  0  0  0  0  0  0  0  0  0
    4.2453   -2.7188    0.0000 H   0  0  0  0  0  0  0  0  0  0  0  0
    3.6408   -3.2009    0.0000 H   0  0  0  0  0  0  0  0  0  0  0  0
    3.6408   -5.2787    0.0000 H   0  0  0  0  0  0  0  0  0  0  0  0
    4.2453   -5.7608    0.0000 H   0  0  0  0  0  0  0  0  0  0  0  0
    4.9512   -5.9219    0.0000 H   0  0  0  0  0  0  0  0  0  0  0  0
    5.7050   -5.7498    0.0000 H   0  0  0  0  0  0  0  0  0  0  0  0
    6.8888   -2.5852    0.0000 H   0  0  0  0  0  0  0  0  0  0  0  0
    2.8114   -3.6198    0.0000 H   0  0  0  0  0  0  0  0  0  0  0  0
    2.1914   -4.2398    0.0000 H   0  0  0  0  0  0  0  0  0  0  0  0
    2.8114   -4.8598    0.0000 H   0  0  0  0  0  0  0  0  0  0  0  0
    6.8888   -5.8944    0.0000 H   0  0  0  0  0  0  0  0  0  0  0  0
    4.1172   -1.6440    0.0000 H   0  0  0  0  0  0  0  0  0  0  0  0
    6.8528   -2.2683    0.0000 H   0  0  0  0  0  0  0  0  0  0  0  0
    4.4777   -0.0646    0.0000 H   0  0  0  0  0  0  0  0  0  0  0  0
    7.2133   -0.6889    0.0000 H   0  0  0  0  0  0  0  0  0  0  0  0
    6.6816    0.5426    0.0000 H   0  0  0  0  0  0  0  0  0  0  0  0
    6.4467    1.3042    0.0000 H   0  0  0  0  0  0  0  0  0  0  0  0
    3.9274    0.7945    0.0000 H   0  0  0  0  0  0  0  0  0  0  0  0
    4.7045    0.6171    0.0000 H   0  0  0  0  0  0  0  0  0  0  0  0
    9.2043   -3.5236    0.0000 H   0  0  0  0  0  0  0  0  0  0  0  0
    4.2743    2.9359    0.0000 H   0  0  0  0  0  0  0  0  0  0  0  0
    2.5951    0.9498    0.0000 H   0  0  0  0  0  0  0  0  0  0  0  0
    4.5036    3.0067    0.0000 H   0  0  0  0  0  0  0  0  0  0  0  0
    7.3703    3.8909    0.0000 H   0  0  0  0  0  0  0  0  0  0  0  0
    4.6348    4.5153    0.0000 H   0  0  0  0  0  0  0  0  0  0  0  0
    1.4075    2.0517    0.0000 H   0  0  0  0  0  0  0  0  0  0  0  0
    3.3161    4.1086    0.0000 H   0  0  0  0  0  0  0  0  0  0  0  0
    1.7680    3.6310    0.0000 H   0  0  0  0  0  0  0  0  0  0  0  0
  1 21  1  0  0  0  0
  2 28  1  0  0  0  0
  3 34  1  0  0  0  0
  4 20  1  0  0  0  0
  4 58  1  0  0  0  0
  5  8  1  0  0  0  0
  5 10  1  0  0  0  0
  5 15  1  0  0  0  0
  6 24  1  0  0  0  0
  6 25  1  0  0  0  0
  6 26  1  0  0  0  0
  7  8  1  0  0  0  0
  7  9  1  0  0  0  0
  7 13  1  6  0  0  0
  7 38  1  0  0  0  0
  8 39  1  0  0  0  0
  8 40  1  0  0  0  0
  9 12  1  0  0  0  0
  9 14  2  0  0  0  0
 10 11  1  0  0  0  0
 10 41  1  0  0  0  0
 10 42  1  0  0  0  0
 11 12  1  0  0  0  0
 11 43  1  0  0  0  0
 11 44  1  0  0  0  0
 12 16  2  0  0  0  0
 13 17  2  0  0  0  0
 13 18  1  0  0  0  0
 14 20  1  0  0  0  0
 14 45  1  0  0  0  0
 15 46  1  0  0  0  0
 15 47  1  0  0  0  0
 15 48  1  0  0  0  0
 16 21  1  0  0  0  0
 16 49  1  0  0  0  0
 17 22  1  0  0  0  0
 17 50  1  0  0  0  0
 18 23  2  0  0  0  0
 18 51  1  0  0  0  0
 19 22  2  0  0  0  0
 19 23  1  0  0  0  0
 19 24  1  0  0  0  0
 20 21  2  0  0  0  0
 22 52  1  0  0  0  0
 23 53  1  0  0  0  0
 24 54  1  0  0  0  0
 24 55  1  0  0  0  0
 25 27  1  0  0  0  0
 25 56  1  0  0  0  0
 25 57  1  0  0  0  0
 26 28  2  0  0  0  0
 26 29  1  0  0  0  0
 27 30  2  0  0  0  0
 27 31  1  0  0  0  0
 28 32  1  0  0  0  0
 29 33  2  0  0  0  0
 29 59  1  0  0  0  0
 30 35  1  0  0  0  0
 30 60  1  0  0  0  0
 31 36  2  0  0  0  0
 31 61  1  0  0  0  0
 32 34  2  0  0  0  0
 32 62  1  0  0  0  0
 33 34  1  0  0  0  0
 33 63  1  0  0  0  0
 35 37  2  0  0  0  0
 35 64  1  0  0  0  0
 36 37  1  0  0  0  0
 36 65  1  0  0  0  0
 37 66  1  0  0  0  0
M  END
> <PUBCHEM_COMPOUND_CID>
46231645

> <PUBCHEM_COMPOUND_CANONICALIZED>
1

> <PUBCHEM_CACTVS_COMPLEXITY>
701

> <PUBCHEM_CACTVS_HBOND_ACCEPTOR>
5

> <PUBCHEM_CACTVS_HBOND_DONOR>
1

> <PUBCHEM_CACTVS_ROTATABLE_BOND>
6

> <PUBCHEM_CACTVS_SUBSKEYS>
AAADceB7IYAEAAAAAAAAAAAAAAAAAAAAAAAwYMGABYAAAAABVAAAHwIACAAADQ7BmCwyxoMAAgCAAiRCQACCAAAhJ0AIiAAOb4gIJiLDk5OEcAhkwBHI2AeQ0PIO5AABIAAQCADIAAJAACAQAAAAAAAAAA==

> <PUBCHEM_IUPAC_OPENEYE_NAME>
(5R)-5-[4-[(N-benzyl-2,4-difluoro-anilino)methyl]phenyl]-8-chloro-3-methyl-1,2,4,5-tetrahydro-3-benzazepin-7-ol

> <PUBCHEM_IUPAC_CAS_NAME>
(5R)-8-chloro-5-[4-[(2,4-difluoro-N-(phenylmethyl)anilino)methyl]phenyl]-3-methyl-1,2,4,5-tetrahydro-3-benzazepin-7-ol

> <PUBCHEM_IUPAC_NAME_MARKUP>
(5<I>R</I>)-5-[4-[(<I>N</I>-benzyl-2,4-difluoroanilino)methyl]phenyl]-8-chloro-3-methyl-1,2,4,5-tetrahydro-3-benzazepin-7-ol

> <PUBCHEM_IUPAC_NAME>
(5R)-5-[4-[(N-benzyl-2,4-difluoroanilino)methyl]phenyl]-8-chloro-3-methyl-1,2,4,5-tetrahydro-3-benzazepin-7-ol

> <PUBCHEM_IUPAC_SYSTEMATIC_NAME>
(5R)-5-[4-[[[2,4-bis(fluoranyl)phenyl]-(phenylmethyl)amino]methyl]phenyl]-8-chloranyl-3-methyl-1,2,4,5-tetrahydro-3-benzazepin-7-ol

> <PUBCHEM_IUPAC_TRADITIONAL_NAME>
(5R)-5-[4-[(N-benzyl-2,4-difluoro-anilino)methyl]phenyl]-8-chloro-3-methyl-1,2,4,5-tetrahydro-3-benzazepin-7-ol

> <PUBCHEM_IUPAC_INCHI>
InChI=1S/C31H29ClF2N2O/c1-35-14-13-24-15-28(32)31(37)17-26(24)27(20-35)23-9-7-22(8-10-23)19-36(18-21-5-3-2-4-6-21)30-12-11-25(33)16-29(30)34/h2-12,15-17,27,37H,13-14,18-20H2,1H3/t27-/m1/s1

> <PUBCHEM_IUPAC_INCHIKEY>
AWUWWSPJQVWBIM-HHHXNRCGSA-N

> <PUBCHEM_XLOGP3_AA>
7.3

> <PUBCHEM_EXACT_MASS>
518.1936476

> <PUBCHEM_MOLECULAR_FORMULA>
C31H29ClF2N2O

> <PUBCHEM_MOLECULAR_WEIGHT>
519.0

> <PUBCHEM_OPENEYE_CAN_SMILES>
CN1CCC2=CC(=C(C=C2C(C1)C3=CC=C(C=C3)CN(CC4=CC=CC=C4)C5=C(C=C(C=C5)F)F)O)Cl

> <PUBCHEM_OPENEYE_ISO_SMILES>
CN1CCC2=CC(=C(C=C2[C@H](C1)C3=CC=C(C=C3)CN(CC4=CC=CC=C4)C5=C(C=C(C=C5)F)F)O)Cl

> <PUBCHEM_CACTVS_TPSA>
26.7

> <PUBCHEM_MONOISOTOPIC_WEIGHT>
518.1936476

> <PUBCHEM_TOTAL_CHARGE>
0

> <PUBCHEM_HEAVY_ATOM_COUNT>
37

> <PUBCHEM_ATOM_DEF_STEREO_COUNT>
1

> <PUBCHEM_ATOM_UDEF_STEREO_COUNT>
0

> <PUBCHEM_BOND_DEF_STEREO_COUNT>
0

> <PUBCHEM_BOND_UDEF_STEREO_COUNT>
0

> <PUBCHEM_ISOTOPIC_ATOM_COUNT>
0

> <PUBCHEM_COMPONENT_COUNT>
1

> <PUBCHEM_CACTVS_TAUTO_COUNT>
-1

> <PUBCHEM_COORDINATE_TYPE>
1
5
255

> <PUBCHEM_BONDANNOTATIONS>
12  16  8
13  17  8
13  18  8
14  20  8
16  21  8
17  22  8
18  23  8
19  22  8
19  23  8
20  21  8
26  28  8
26  29  8
27  30  8
27  31  8
28  32  8
29  33  8
30  35  8
31  36  8
32  34  8
33  34  8
35  37  8
36  37  8
7  13  6
9  12  8
9  14  8

$$$$
