9909089
  -OEChem-09292322232D

 56 60  0     0  0  0  0  0  0999 V2000
   13.3803    2.5048    0.0000 O   0  0  0  0  0  0  0  0  0  0  0  0
   15.1124    0.5047    0.0000 O   0  0  0  0  0  0  0  0  0  0  0  0
    8.1182    0.4739    0.0000 N   0  0  0  0  0  0  0  0  0  0  0  0
    6.3900   -0.5327    0.0000 N   0  0  0  0  0  0  0  0  0  0  0  0
    2.8819   -0.5394    0.0000 N   0  0  0  0  0  0  0  0  0  0  0  0
   13.3803    0.5047    0.0000 N   0  0  0  0  0  0  0  0  0  0  0  0
    8.1220   -0.5261    0.0000 C   0  0  0  0  0  0  0  0  0  0  0  0
    7.2502    0.9706    0.0000 C   0  0  0  0  0  0  0  0  0  0  0  0
    7.2579   -1.0294    0.0000 C   0  0  0  0  0  0  0  0  0  0  0  0
    6.3861    0.4672    0.0000 C   0  0  0  0  0  0  0  0  0  0  0  0
    8.9822    0.9773    0.0000 C   0  0  0  0  0  0  0  0  0  0  0  0
    5.5259   -1.0361    0.0000 C   0  0  0  0  0  0  0  0  0  0  0  0
    9.8502    0.4806    0.0000 C   0  0  0  0  0  0  0  0  0  0  0  0
    4.6579   -0.5394    0.0000 C   0  0  0  0  0  0  0  0  0  0  0  0
   10.7143    0.9839    0.0000 C   0  0  0  0  0  0  0  0  0  0  0  0
    5.5297   -2.0361    0.0000 C   0  0  0  0  0  0  0  0  0  0  0  0
    3.7938   -1.0428    0.0000 C   0  0  0  0  0  0  0  0  0  0  0  0
   11.6204    0.4701    0.0000 C   0  0  0  0  0  0  0  0  0  0  0  0
   10.7143    2.0256    0.0000 C   0  0  0  0  0  0  0  0  0  0  0  0
    4.6700    0.5021    0.0000 C   0  0  0  0  0  0  0  0  0  0  0  0
    4.6656   -2.5394    0.0000 C   0  0  0  0  0  0  0  0  0  0  0  0
    3.7977   -2.0428    0.0000 C   0  0  0  0  0  0  0  0  0  0  0  0
   12.5143    1.0048    0.0000 C   0  0  0  0  0  0  0  0  0  0  0  0
   12.5143    2.0048    0.0000 C   0  0  0  0  0  0  0  0  0  0  0  0
   11.6204    2.5394    0.0000 C   0  0  0  0  0  0  0  0  0  0  0  0
    3.7699    1.0264    0.0000 C   0  0  0  0  0  0  0  0  0  0  0  0
    2.8698    0.5021    0.0000 C   0  0  0  0  0  0  0  0  0  0  0  0
   14.2463    2.0048    0.0000 C   0  0  0  0  0  0  0  0  0  0  0  0
   14.2463    1.0048    0.0000 C   0  0  0  0  0  0  0  0  0  0  0  0
    2.0000    0.9954    0.0000 C   0  0  0  0  0  0  0  0  0  0  0  0
    8.3363   -1.1079    0.0000 H   0  0  0  0  0  0  0  0  0  0  0  0
    8.7322   -0.4161    0.0000 H   0  0  0  0  0  0  0  0  0  0  0  0
    7.6469    1.4471    0.0000 H   0  0  0  0  0  0  0  0  0  0  0  0
    6.8499    1.4440    0.0000 H   0  0  0  0  0  0  0  0  0  0  0  0
    6.8612   -1.5059    0.0000 H   0  0  0  0  0  0  0  0  0  0  0  0
    7.6583   -1.5028    0.0000 H   0  0  0  0  0  0  0  0  0  0  0  0
    6.1718    1.0490    0.0000 H   0  0  0  0  0  0  0  0  0  0  0  0
    5.7760    0.3572    0.0000 H   0  0  0  0  0  0  0  0  0  0  0  0
    9.3790    1.4537    0.0000 H   0  0  0  0  0  0  0  0  0  0  0  0
    8.5819    1.4507    0.0000 H   0  0  0  0  0  0  0  0  0  0  0  0
    9.4535    0.0041    0.0000 H   0  0  0  0  0  0  0  0  0  0  0  0
   10.2506    0.0072    0.0000 H   0  0  0  0  0  0  0  0  0  0  0  0
    6.0679   -2.3440    0.0000 H   0  0  0  0  0  0  0  0  0  0  0  0
   11.6275   -0.1499    0.0000 H   0  0  0  0  0  0  0  0  0  0  0  0
   10.1786    2.3376    0.0000 H   0  0  0  0  0  0  0  0  0  0  0  0
    5.2093    0.8080    0.0000 H   0  0  0  0  0  0  0  0  0  0  0  0
    4.6680   -3.1594    0.0000 H   0  0  0  0  0  0  0  0  0  0  0  0
    3.2620   -2.3548    0.0000 H   0  0  0  0  0  0  0  0  0  0  0  0
   11.6275    3.1594    0.0000 H   0  0  0  0  0  0  0  0  0  0  0  0
    3.7699    1.6464    0.0000 H   0  0  0  0  0  0  0  0  0  0  0  0
   13.3803   -0.1153    0.0000 H   0  0  0  0  0  0  0  0  0  0  0  0
   14.8569    1.8971    0.0000 H   0  0  0  0  0  0  0  0  0  0  0  0
   14.4584    2.5874    0.0000 H   0  0  0  0  0  0  0  0  0  0  0  0
    2.3058    1.5348    0.0000 H   0  0  0  0  0  0  0  0  0  0  0  0
    1.4607    1.3013    0.0000 H   0  0  0  0  0  0  0  0  0  0  0  0
    1.6942    0.4561    0.0000 H   0  0  0  0  0  0  0  0  0  0  0  0
  1 24  1  0  0  0  0
  1 28  1  0  0  0  0
  2 29  2  0  0  0  0
  3  7  1  0  0  0  0
  3  8  1  0  0  0  0
  3 11  1  0  0  0  0
  4  9  1  0  0  0  0
  4 10  1  0  0  0  0
  4 12  1  0  0  0  0
  5 17  1  0  0  0  0
  5 27  2  0  0  0  0
  6 23  1  0  0  0  0
  6 29  1  0  0  0  0
  6 51  1  0  0  0  0
  7  9  1  0  0  0  0
  7 31  1  0  0  0  0
  7 32  1  0  0  0  0
  8 10  1  0  0  0  0
  8 33  1  0  0  0  0
  8 34  1  0  0  0  0
  9 35  1  0  0  0  0
  9 36  1  0  0  0  0
 10 37  1  0  0  0  0
 10 38  1  0  0  0  0
 11 13  1  0  0  0  0
 11 39  1  0  0  0  0
 11 40  1  0  0  0  0
 12 14  1  0  0  0  0
 12 16  2  0  0  0  0
 13 15  1  0  0  0  0
 13 41  1  0  0  0  0
 13 42  1  0  0  0  0
 14 17  2  0  0  0  0
 14 20  1  0  0  0  0
 15 18  2  0  0  0  0
 15 19  1  0  0  0  0
 16 21  1  0  0  0  0
 16 43  1  0  0  0  0
 17 22  1  0  0  0  0
 18 23  1  0  0  0  0
 18 44  1  0  0  0  0
 19 25  2  0  0  0  0
 19 45  1  0  0  0  0
 20 26  2  0  0  0  0
 20 46  1  0  0  0  0
 21 22  2  0  0  0  0
 21 47  1  0  0  0  0
 22 48  1  0  0  0  0
 23 24  2  0  0  0  0
 24 25  1  0  0  0  0
 25 49  1  0  0  0  0
 26 27  1  0  0  0  0
 26 50  1  0  0  0  0
 27 30  1  0  0  0  0
 28 29  1  0  0  0  0
 28 52  1  0  0  0  0
 28 53  1  0  0  0  0
 30 54  1  0  0  0  0
 30 55  1  0  0  0  0
 30 56  1  0  0  0  0
M  END
> <PUBCHEM_COMPOUND_CID>
9909089

> <PUBCHEM_COMPOUND_CANONICALIZED>
1

> <PUBCHEM_CACTVS_COMPLEXITY>
594

> <PUBCHEM_CACTVS_HBOND_ACCEPTOR>
5

> <PUBCHEM_CACTVS_HBOND_DONOR>
1

> <PUBCHEM_CACTVS_ROTATABLE_BOND>
4

> <PUBCHEM_CACTVS_SUBSKEYS>
AAADceB7sAAAAAAAAAAAAAAAAAAAAAAAAAA8eLECAAAAAACx9AAAHgAQAAAADAzhngYyxvPIFACoAyVyVAKCiCAhIiAImCB/bJgOZuLE8d+XPCjk1BHY6AeQwIAOIAAAQAQCEABAAACACAQgAAAAAAAAAA==

> <PUBCHEM_IUPAC_OPENEYE_NAME>
6-[2-[4-(2-methyl-5-quinolyl)piperazin-1-yl]ethyl]-4H-1,4-benzoxazin-3-one

> <PUBCHEM_IUPAC_CAS_NAME>
6-[2-[4-(2-methyl-5-quinolinyl)-1-piperazinyl]ethyl]-4H-1,4-benzoxazin-3-one

> <PUBCHEM_IUPAC_NAME_MARKUP>
6-[2-[4-(2-methylquinolin-5-yl)piperazin-1-yl]ethyl]-4<I>H</I>-1,4-benzoxazin-3-one

> <PUBCHEM_IUPAC_NAME>
6-[2-[4-(2-methylquinolin-5-yl)piperazin-1-yl]ethyl]-4H-1,4-benzoxazin-3-one

> <PUBCHEM_IUPAC_SYSTEMATIC_NAME>
6-[2-[4-(2-methylquinolin-5-yl)piperazin-1-yl]ethyl]-4H-1,4-benzoxazin-3-one

> <PUBCHEM_IUPAC_TRADITIONAL_NAME>
6-[2-[4-(2-methyl-5-quinolyl)piperazino]ethyl]-4H-1,4-benzoxazin-3-one

> <PUBCHEM_IUPAC_INCHI>
InChI=1S/C24H26N4O2/c1-17-5-7-19-20(25-17)3-2-4-22(19)28-13-11-27(12-14-28)10-9-18-6-8-23-21(15-18)26-24(29)16-30-23/h2-8,15H,9-14,16H2,1H3,(H,26,29)

> <PUBCHEM_IUPAC_INCHIKEY>
KGVROJQOCQABGA-UHFFFAOYSA-N

> <PUBCHEM_XLOGP3_AA>
3.4

> <PUBCHEM_EXACT_MASS>
402.20557608

> <PUBCHEM_MOLECULAR_FORMULA>
C24H26N4O2

> <PUBCHEM_MOLECULAR_WEIGHT>
402.5

> <PUBCHEM_OPENEYE_CAN_SMILES>
CC1=NC2=C(C=C1)C(=CC=C2)N3CCN(CC3)CCC4=CC5=C(C=C4)OCC(=O)N5

> <PUBCHEM_OPENEYE_ISO_SMILES>
CC1=NC2=C(C=C1)C(=CC=C2)N3CCN(CC3)CCC4=CC5=C(C=C4)OCC(=O)N5

> <PUBCHEM_CACTVS_TPSA>
57.7

> <PUBCHEM_MONOISOTOPIC_WEIGHT>
402.20557608

> <PUBCHEM_TOTAL_CHARGE>
0

> <PUBCHEM_HEAVY_ATOM_COUNT>
30

> <PUBCHEM_ATOM_DEF_STEREO_COUNT>
0

> <PUBCHEM_ATOM_UDEF_STEREO_COUNT>
0

> <PUBCHEM_BOND_DEF_STEREO_COUNT>
0

> <PUBCHEM_BOND_UDEF_STEREO_COUNT>
0

> <PUBCHEM_ISOTOPIC_ATOM_COUNT>
0

> <PUBCHEM_COMPONENT_COUNT>
1

> <PUBCHEM_CACTVS_TAUTO_COUNT>
-1

> <PUBCHEM_COORDINATE_TYPE>
1
5
255

> <PUBCHEM_BONDANNOTATIONS>
12  14  8
12  16  8
14  17  8
14  20  8
15  18  8
15  19  8
16  21  8
17  22  8
18  23  8
19  25  8
20  26  8
21  22  8
23  24  8
24  25  8
26  27  8
5  17  8
5  27  8

$$$$
