135375002
  -OEChem-09292322452D

 61 64  0     0  0  0  0  0  0999 V2000
   11.5166    0.4873    0.0000 O   0  0  0  0  0  0  0  0  0  0  0  0
    2.8680   -2.5461    0.0000 O   0  0  0  0  0  0  0  0  0  0  0  0
   15.0467   -0.4886    0.0000 O   0  0  0  0  0  0  0  0  0  0  0  0
    8.0525    0.4739    0.0000 N   0  0  0  0  0  0  0  0  0  0  0  0
    6.3243   -0.5327    0.0000 N   0  0  0  0  0  0  0  0  0  0  0  0
   15.9127    1.0114    0.0000 N   0  0  0  0  0  0  0  0  0  0  0  0
    8.0564   -0.5261    0.0000 C   0  0  0  0  0  0  0  0  0  0  0  0
    7.1846    0.9706    0.0000 C   0  0  0  0  0  0  0  0  0  0  0  0
    7.1923   -1.0294    0.0000 C   0  0  0  0  0  0  0  0  0  0  0  0
    6.3205    0.4672    0.0000 C   0  0  0  0  0  0  0  0  0  0  0  0
    8.9166    0.9773    0.0000 C   0  0  0  0  0  0  0  0  0  0  0  0
    9.7845    0.4806    0.0000 C   0  0  0  0  0  0  0  0  0  0  0  0
    5.4602   -1.0361    0.0000 C   0  0  0  0  0  0  0  0  0  0  0  0
   10.6486    0.9839    0.0000 C   0  0  0  0  0  0  0  0  0  0  0  0
    4.5923   -0.5394    0.0000 C   0  0  0  0  0  0  0  0  0  0  0  0
    5.4641   -2.0361    0.0000 C   0  0  0  0  0  0  0  0  0  0  0  0
   15.0467    2.5114    0.0000 C   0  0  0  0  0  0  0  0  0  0  0  0
   14.1807    2.0114    0.0000 C   0  0  0  0  0  0  0  0  0  0  0  0
   15.9127    2.0114    0.0000 C   0  0  0  0  0  0  0  0  0  0  0  0
   14.1807    1.0114    0.0000 C   0  0  0  0  0  0  0  0  0  0  0  0
   12.3807    0.9906    0.0000 C   0  0  0  0  0  0  0  0  0  0  0  0
   15.0467    0.5114    0.0000 C   0  0  0  0  0  0  0  0  0  0  0  0
   13.2867    0.4768    0.0000 C   0  0  0  0  0  0  0  0  0  0  0  0
   13.2867    2.5461    0.0000 C   0  0  0  0  0  0  0  0  0  0  0  0
    3.7282   -1.0428    0.0000 C   0  0  0  0  0  0  0  0  0  0  0  0
    4.6000   -2.5394    0.0000 C   0  0  0  0  0  0  0  0  0  0  0  0
   12.3807    2.0322    0.0000 C   0  0  0  0  0  0  0  0  0  0  0  0
    3.7320   -2.0428    0.0000 C   0  0  0  0  0  0  0  0  0  0  0  0
   16.7787    0.5114    0.0000 C   0  0  0  0  0  0  0  0  0  0  0  0
    2.0000   -2.0494    0.0000 C   0  0  0  0  0  0  0  0  0  0  0  0
    8.2706   -1.1079    0.0000 H   0  0  0  0  0  0  0  0  0  0  0  0
    8.6665   -0.4161    0.0000 H   0  0  0  0  0  0  0  0  0  0  0  0
    7.5812    1.4471    0.0000 H   0  0  0  0  0  0  0  0  0  0  0  0
    6.7842    1.4440    0.0000 H   0  0  0  0  0  0  0  0  0  0  0  0
    6.7956   -1.5059    0.0000 H   0  0  0  0  0  0  0  0  0  0  0  0
    7.5926   -1.5028    0.0000 H   0  0  0  0  0  0  0  0  0  0  0  0
    6.1062    1.0490    0.0000 H   0  0  0  0  0  0  0  0  0  0  0  0
    5.7103    0.3572    0.0000 H   0  0  0  0  0  0  0  0  0  0  0  0
    9.3133    1.4537    0.0000 H   0  0  0  0  0  0  0  0  0  0  0  0
    8.5162    1.4507    0.0000 H   0  0  0  0  0  0  0  0  0  0  0  0
    9.3878    0.0041    0.0000 H   0  0  0  0  0  0  0  0  0  0  0  0
   10.1849    0.0072    0.0000 H   0  0  0  0  0  0  0  0  0  0  0  0
   11.0453    1.4604    0.0000 H   0  0  0  0  0  0  0  0  0  0  0  0
   10.2483    1.4573    0.0000 H   0  0  0  0  0  0  0  0  0  0  0  0
    4.5899    0.0806    0.0000 H   0  0  0  0  0  0  0  0  0  0  0  0
    6.0022   -2.3440    0.0000 H   0  0  0  0  0  0  0  0  0  0  0  0
   15.4452    2.9864    0.0000 H   0  0  0  0  0  0  0  0  0  0  0  0
   14.6482    2.9864    0.0000 H   0  0  0  0  0  0  0  0  0  0  0  0
   16.5233    1.9038    0.0000 H   0  0  0  0  0  0  0  0  0  0  0  0
   16.1248    2.5940    0.0000 H   0  0  0  0  0  0  0  0  0  0  0  0
   13.2939   -0.1432    0.0000 H   0  0  0  0  0  0  0  0  0  0  0  0
   13.2939    3.1660    0.0000 H   0  0  0  0  0  0  0  0  0  0  0  0
    3.1901   -0.7348    0.0000 H   0  0  0  0  0  0  0  0  0  0  0  0
    4.6024   -3.1594    0.0000 H   0  0  0  0  0  0  0  0  0  0  0  0
   11.8449    2.3443    0.0000 H   0  0  0  0  0  0  0  0  0  0  0  0
   16.4688   -0.0255    0.0000 H   0  0  0  0  0  0  0  0  0  0  0  0
   17.3157    0.2014    0.0000 H   0  0  0  0  0  0  0  0  0  0  0  0
   17.0887    1.0484    0.0000 H   0  0  0  0  0  0  0  0  0  0  0  0
    2.3079   -1.5113    0.0000 H   0  0  0  0  0  0  0  0  0  0  0  0
    1.4619   -1.7415    0.0000 H   0  0  0  0  0  0  0  0  0  0  0  0
    1.6921   -2.5875    0.0000 H   0  0  0  0  0  0  0  0  0  0  0  0
  1 14  1  0  0  0  0
  1 21  1  0  0  0  0
  2 28  1  0  0  0  0
  2 30  1  0  0  0  0
  3 22  2  0  0  0  0
  4  7  1  0  0  0  0
  4  8  1  0  0  0  0
  4 11  1  0  0  0  0
  5  9  1  0  0  0  0
  5 10  1  0  0  0  0
  5 13  1  0  0  0  0
  6 19  1  0  0  0  0
  6 22  1  0  0  0  0
  6 29  1  0  0  0  0
  7  9  1  0  0  0  0
  7 31  1  0  0  0  0
  7 32  1  0  0  0  0
  8 10  1  0  0  0  0
  8 33  1  0  0  0  0
  8 34  1  0  0  0  0
  9 35  1  0  0  0  0
  9 36  1  0  0  0  0
 10 37  1  0  0  0  0
 10 38  1  0  0  0  0
 11 12  1  0  0  0  0
 11 39  1  0  0  0  0
 11 40  1  0  0  0  0
 12 14  1  0  0  0  0
 12 41  1  0  0  0  0
 12 42  1  0  0  0  0
 13 15  2  0  0  0  0
 13 16  1  0  0  0  0
 14 43  1  0  0  0  0
 14 44  1  0  0  0  0
 15 25  1  0  0  0  0
 15 45  1  0  0  0  0
 16 26  2  0  0  0  0
 16 46  1  0  0  0  0
 17 18  1  0  0  0  0
 17 19  1  0  0  0  0
 17 47  1  0  0  0  0
 17 48  1  0  0  0  0
 18 20  2  0  0  0  0
 18 24  1  0  0  0  0
 19 49  1  0  0  0  0
 19 50  1  0  0  0  0
 20 22  1  0  0  0  0
 20 23  1  0  0  0  0
 21 23  2  0  0  0  0
 21 27  1  0  0  0  0
 23 51  1  0  0  0  0
 24 27  2  0  0  0  0
 24 52  1  0  0  0  0
 25 28  2  0  0  0  0
 25 53  1  0  0  0  0
 26 28  1  0  0  0  0
 26 54  1  0  0  0  0
 27 55  1  0  0  0  0
 29 56  1  0  0  0  0
 29 57  1  0  0  0  0
 29 58  1  0  0  0  0
 30 59  1  0  0  0  0
 30 60  1  0  0  0  0
 30 61  1  0  0  0  0
M  END
> <PUBCHEM_COMPOUND_CID>
135375002

> <PUBCHEM_COMPOUND_CANONICALIZED>
1

> <PUBCHEM_CACTVS_COMPLEXITY>
544

> <PUBCHEM_CACTVS_HBOND_ACCEPTOR>
5

> <PUBCHEM_CACTVS_HBOND_DONOR>
0

> <PUBCHEM_CACTVS_ROTATABLE_BOND>
7

> <PUBCHEM_CACTVS_SUBSKEYS>
AAADceB7MAAAAAAAAAAAAAAAAAAAAAAAAAA8eIEAAAAAAACxQAAAHgAAAAAADAzhmAYyxoMABACIAiVSUACCCAAlIgAIiAEObMgMZjLEtZuWOSjmxhHI6Ye6yZCOoEABAAAQAABAgAIAACAAAAAAAAAAAA==

> <PUBCHEM_IUPAC_OPENEYE_NAME>
7-[3-[4-(4-methoxyphenyl)piperazin-1-yl]propoxy]-2-methyl-3,4-dihydroisoquinolin-1-one

> <PUBCHEM_IUPAC_CAS_NAME>
7-[3-[4-(4-methoxyphenyl)-1-piperazinyl]propoxy]-2-methyl-3,4-dihydroisoquinolin-1-one

> <PUBCHEM_IUPAC_NAME_MARKUP>
7-[3-[4-(4-methoxyphenyl)piperazin-1-yl]propoxy]-2-methyl-3,4-dihydroisoquinolin-1-one

> <PUBCHEM_IUPAC_NAME>
7-[3-[4-(4-methoxyphenyl)piperazin-1-yl]propoxy]-2-methyl-3,4-dihydroisoquinolin-1-one

> <PUBCHEM_IUPAC_SYSTEMATIC_NAME>
7-[3-[4-(4-methoxyphenyl)piperazin-1-yl]propoxy]-2-methyl-3,4-dihydroisoquinolin-1-one

> <PUBCHEM_IUPAC_TRADITIONAL_NAME>
7-[3-[4-(4-methoxyphenyl)piperazino]propoxy]-2-methyl-3,4-dihydroisocarbostyril

> <PUBCHEM_IUPAC_INCHI>
InChI=1S/C24H31N3O3/c1-25-12-10-19-4-7-22(18-23(19)24(25)28)30-17-3-11-26-13-15-27(16-14-26)20-5-8-21(29-2)9-6-20/h4-9,18H,3,10-17H2,1-2H3

> <PUBCHEM_IUPAC_INCHIKEY>
AXTPDHOKNPRWNN-UHFFFAOYSA-N

> <PUBCHEM_XLOGP3_AA>
3.3

> <PUBCHEM_EXACT_MASS>
409.23654186

> <PUBCHEM_MOLECULAR_FORMULA>
C24H31N3O3

> <PUBCHEM_MOLECULAR_WEIGHT>
409.5

> <PUBCHEM_OPENEYE_CAN_SMILES>
CN1CCC2=C(C1=O)C=C(C=C2)OCCCN3CCN(CC3)C4=CC=C(C=C4)OC

> <PUBCHEM_OPENEYE_ISO_SMILES>
CN1CCC2=C(C1=O)C=C(C=C2)OCCCN3CCN(CC3)C4=CC=C(C=C4)OC

> <PUBCHEM_CACTVS_TPSA>
45.2

> <PUBCHEM_MONOISOTOPIC_WEIGHT>
409.23654186

> <PUBCHEM_TOTAL_CHARGE>
0

> <PUBCHEM_HEAVY_ATOM_COUNT>
30

> <PUBCHEM_ATOM_DEF_STEREO_COUNT>
0

> <PUBCHEM_ATOM_UDEF_STEREO_COUNT>
0

> <PUBCHEM_BOND_DEF_STEREO_COUNT>
0

> <PUBCHEM_BOND_UDEF_STEREO_COUNT>
0

> <PUBCHEM_ISOTOPIC_ATOM_COUNT>
0

> <PUBCHEM_COMPONENT_COUNT>
1

> <PUBCHEM_CACTVS_TAUTO_COUNT>
-1

> <PUBCHEM_COORDINATE_TYPE>
1
5
255

> <PUBCHEM_BONDANNOTATIONS>
13  15  8
13  16  8
15  25  8
16  26  8
18  20  8
18  24  8
20  23  8
21  23  8
21  27  8
24  27  8
25  28  8
26  28  8

$$$$
