118726005
  -OEChem-09292322022D

 60 65  0     0  0  0  0  0  0999 V2000
    2.0000   -1.8450    0.0000 Cl  0  0  0  0  0  0  0  0  0  0  0  0
    3.7320    3.1550    0.0000 O   0  0  0  0  0  0  0  0  0  0  0  0
    5.4641   -1.8450    0.0000 O   0  0  0  0  0  0  0  0  0  0  0  0
   16.3759   -0.0360    0.0000 O   0  0  0  0  0  0  0  0  0  0  0  0
    3.7320    1.1550    0.0000 N   0  0  0  0  0  0  0  0  0  0  0  0
    4.5981   -0.3450    0.0000 N   0  0  0  0  0  0  0  0  0  0  0  0
    2.8660   -0.3450    0.0000 N   0  0  0  0  0  0  0  0  0  0  0  0
   10.6603    0.1550    0.0000 N   0  0  0  0  0  0  0  0  0  0  0  0
   13.2583   -1.3450    0.0000 N   0  0  0  0  0  0  0  0  0  0  0  0
    3.7320   -1.8450    0.0000 N   0  0  0  0  0  0  0  0  0  0  0  0
   12.3923    0.1550    0.0000 N   0  0  0  0  0  0  0  0  0  0  0  0
   11.5263   -1.3450    0.0000 N   0  0  0  0  0  0  0  0  0  0  0  0
   14.2045   -1.6497    0.0000 N   0  0  0  0  0  0  0  0  0  0  0  0
   14.2045   -0.0403    0.0000 N   0  0  0  0  0  0  0  0  0  0  0  0
   12.3923   -2.8450    0.0000 N   0  0  0  0  0  0  0  0  0  0  0  0
    2.8660    1.6550    0.0000 C   0  0  0  0  0  0  0  0  0  0  0  0
    4.5981    1.6550    0.0000 C   0  0  0  0  0  0  0  0  0  0  0  0
    2.8660    2.6550    0.0000 C   0  0  0  0  0  0  0  0  0  0  0  0
    4.5981    2.6550    0.0000 C   0  0  0  0  0  0  0  0  0  0  0  0
    3.7320    0.1550    0.0000 C   0  0  0  0  0  0  0  0  0  0  0  0
    8.9282    0.1550    0.0000 C   0  0  0  0  0  0  0  0  0  0  0  0
    9.7942   -0.3450    0.0000 C   0  0  0  0  0  0  0  0  0  0  0  0
    8.0622   -0.3450    0.0000 C   0  0  0  0  0  0  0  0  0  0  0  0
    8.0622   -1.3450    0.0000 C   0  0  0  0  0  0  0  0  0  0  0  0
    7.1962    0.1550    0.0000 C   0  0  0  0  0  0  0  0  0  0  0  0
    4.5981   -1.3450    0.0000 C   0  0  0  0  0  0  0  0  0  0  0  0
    6.3301   -1.3450    0.0000 C   0  0  0  0  0  0  0  0  0  0  0  0
    7.1962   -1.8450    0.0000 C   0  0  0  0  0  0  0  0  0  0  0  0
    6.3301   -0.3450    0.0000 C   0  0  0  0  0  0  0  0  0  0  0  0
   11.5263   -0.3450    0.0000 C   0  0  0  0  0  0  0  0  0  0  0  0
    2.8660   -1.3450    0.0000 C   0  0  0  0  0  0  0  0  0  0  0  0
   13.2583   -0.3450    0.0000 C   0  0  0  0  0  0  0  0  0  0  0  0
   12.3923   -1.8450    0.0000 C   0  0  0  0  0  0  0  0  0  0  0  0
   14.7882   -0.8450    0.0000 C   0  0  0  0  0  0  0  0  0  0  0  0
   15.7882   -0.8450    0.0000 C   0  0  0  0  0  0  0  0  0  0  0  0
   16.3759   -1.6540    0.0000 C   0  0  0  0  0  0  0  0  0  0  0  0
   17.3270   -1.3450    0.0000 C   0  0  0  0  0  0  0  0  0  0  0  0
   17.3270   -0.3450    0.0000 C   0  0  0  0  0  0  0  0  0  0  0  0
    2.2554    1.7627    0.0000 H   0  0  0  0  0  0  0  0  0  0  0  0
    2.6540    1.0724    0.0000 H   0  0  0  0  0  0  0  0  0  0  0  0
    4.8101    1.0724    0.0000 H   0  0  0  0  0  0  0  0  0  0  0  0
    5.2087    1.7627    0.0000 H   0  0  0  0  0  0  0  0  0  0  0  0
    2.6540    3.2376    0.0000 H   0  0  0  0  0  0  0  0  0  0  0  0
    2.2554    2.5473    0.0000 H   0  0  0  0  0  0  0  0  0  0  0  0
    5.2087    2.5473    0.0000 H   0  0  0  0  0  0  0  0  0  0  0  0
    4.8101    3.2376    0.0000 H   0  0  0  0  0  0  0  0  0  0  0  0
    9.3267    0.6299    0.0000 H   0  0  0  0  0  0  0  0  0  0  0  0
    8.5297    0.6299    0.0000 H   0  0  0  0  0  0  0  0  0  0  0  0
    9.3957   -0.8199    0.0000 H   0  0  0  0  0  0  0  0  0  0  0  0
   10.1928   -0.8199    0.0000 H   0  0  0  0  0  0  0  0  0  0  0  0
   10.6603    0.7750    0.0000 H   0  0  0  0  0  0  0  0  0  0  0  0
    8.5991   -1.6550    0.0000 H   0  0  0  0  0  0  0  0  0  0  0  0
    7.1962    0.7750    0.0000 H   0  0  0  0  0  0  0  0  0  0  0  0
    7.1962   -2.4650    0.0000 H   0  0  0  0  0  0  0  0  0  0  0  0
    5.7932   -0.0350    0.0000 H   0  0  0  0  0  0  0  0  0  0  0  0
   11.8554   -3.1550    0.0000 H   0  0  0  0  0  0  0  0  0  0  0  0
   12.9292   -3.1550    0.0000 H   0  0  0  0  0  0  0  0  0  0  0  0
   16.1844   -2.2437    0.0000 H   0  0  0  0  0  0  0  0  0  0  0  0
   17.8286   -1.7094    0.0000 H   0  0  0  0  0  0  0  0  0  0  0  0
   17.8286    0.0194    0.0000 H   0  0  0  0  0  0  0  0  0  0  0  0
  1 31  1  0  0  0  0
  2 18  1  0  0  0  0
  2 19  1  0  0  0  0
  3 26  1  0  0  0  0
  3 27  1  0  0  0  0
  4 35  1  0  0  0  0
  4 38  1  0  0  0  0
  5 16  1  0  0  0  0
  5 17  1  0  0  0  0
  5 20  1  0  0  0  0
  6 20  2  0  0  0  0
  6 26  1  0  0  0  0
  7 20  1  0  0  0  0
  7 31  2  0  0  0  0
  8 22  1  0  0  0  0
  8 30  1  0  0  0  0
  8 51  1  0  0  0  0
  9 13  1  0  0  0  0
  9 32  1  0  0  0  0
  9 33  1  0  0  0  0
 10 26  2  0  0  0  0
 10 31  1  0  0  0  0
 11 30  2  0  0  0  0
 11 32  1  0  0  0  0
 12 30  1  0  0  0  0
 12 33  2  0  0  0  0
 13 34  2  0  0  0  0
 14 32  2  0  0  0  0
 14 34  1  0  0  0  0
 15 33  1  0  0  0  0
 15 56  1  0  0  0  0
 15 57  1  0  0  0  0
 16 18  1  0  0  0  0
 16 39  1  0  0  0  0
 16 40  1  0  0  0  0
 17 19  1  0  0  0  0
 17 41  1  0  0  0  0
 17 42  1  0  0  0  0
 18 43  1  0  0  0  0
 18 44  1  0  0  0  0
 19 45  1  0  0  0  0
 19 46  1  0  0  0  0
 21 22  1  0  0  0  0
 21 23  1  0  0  0  0
 21 47  1  0  0  0  0
 21 48  1  0  0  0  0
 22 49  1  0  0  0  0
 22 50  1  0  0  0  0
 23 24  2  0  0  0  0
 23 25  1  0  0  0  0
 24 28  1  0  0  0  0
 24 52  1  0  0  0  0
 25 29  2  0  0  0  0
 25 53  1  0  0  0  0
 27 28  2  0  0  0  0
 27 29  1  0  0  0  0
 28 54  1  0  0  0  0
 29 55  1  0  0  0  0
 34 35  1  0  0  0  0
 35 36  2  0  0  0  0
 36 37  1  0  0  0  0
 36 58  1  0  0  0  0
 37 38  2  0  0  0  0
 37 59  1  0  0  0  0
 38 60  1  0  0  0  0
M  END
> <PUBCHEM_COMPOUND_CID>
118726005

> <PUBCHEM_COMPOUND_CANONICALIZED>
1

> <PUBCHEM_CACTVS_COMPLEXITY>
747

> <PUBCHEM_CACTVS_HBOND_ACCEPTOR>
13

> <PUBCHEM_CACTVS_HBOND_DONOR>
2

> <PUBCHEM_CACTVS_ROTATABLE_BOND>
8

> <PUBCHEM_CACTVS_SUBSKEYS>
AAADceB78AAEAAAAAAAAAAAAAAAAAWJAAAA8WLEAAAAAAFgB/gAAHgIYAAAADAThmwYxFofIFECqAqpypASSiAsmIKAdiKGuDNiOLrKEvTuPOSj82BOYqYeY0YIOIAAAAAAAAABAAAAAAAAAAAAAAAAAAA==

> <PUBCHEM_IUPAC_OPENEYE_NAME>
N5-[2-[4-[(4-chloro-6-morpholino-1,3,5-triazin-2-yl)oxy]phenyl]ethyl]-2-(2-furyl)-[1,2,4]triazolo[1,5-a][1,3,5]triazine-5,7-diamine

> <PUBCHEM_IUPAC_CAS_NAME>
N5-[2-[4-[[4-chloro-6-(4-morpholinyl)-1,3,5-triazin-2-yl]oxy]phenyl]ethyl]-2-(2-furanyl)-[1,2,4]triazolo[1,5-a][1,3,5]triazine-5,7-diamine

> <PUBCHEM_IUPAC_NAME_MARKUP>
5-<I>N</I>-[2-[4-[(4-chloro-6-morpholin-4-yl-1,3,5-triazin-2-yl)oxy]phenyl]ethyl]-2-(furan-2-yl)-[1,2,4]triazolo[1,5-a][1,3,5]triazine-5,7-diamine

> <PUBCHEM_IUPAC_NAME>
5-N-[2-[4-[(4-chloro-6-morpholin-4-yl-1,3,5-triazin-2-yl)oxy]phenyl]ethyl]-2-(furan-2-yl)-[1,2,4]triazolo[1,5-a][1,3,5]triazine-5,7-diamine

> <PUBCHEM_IUPAC_SYSTEMATIC_NAME>
N5-[2-[4-[(4-chloranyl-6-morpholin-4-yl-1,3,5-triazin-2-yl)oxy]phenyl]ethyl]-2-(furan-2-yl)-[1,2,4]triazolo[1,5-a][1,3,5]triazine-5,7-diamine

> <PUBCHEM_IUPAC_TRADITIONAL_NAME>
[7-amino-2-(2-furyl)-[1,2,4]triazolo[1,5-a][1,3,5]triazin-5-yl]-[2-[4-[(4-chloro-6-morpholino-s-triazin-2-yl)oxy]phenyl]ethyl]amine

> <PUBCHEM_IUPAC_INCHI>
InChI=1S/C23H22ClN11O3/c24-18-28-21(34-9-12-36-13-10-34)32-23(29-18)38-15-5-3-14(4-6-15)7-8-26-20-30-19(25)35-22(31-20)27-17(33-35)16-2-1-11-37-16/h1-6,11H,7-10,12-13H2,(H3,25,26,27,30,31,33)

> <PUBCHEM_IUPAC_INCHIKEY>
OSRFFVKRRIWPDV-UHFFFAOYSA-N

> <PUBCHEM_XLOGP3_AA>
3.5

> <PUBCHEM_EXACT_MASS>
535.1595613

> <PUBCHEM_MOLECULAR_FORMULA>
C23H22ClN11O3

> <PUBCHEM_MOLECULAR_WEIGHT>
535.9

> <PUBCHEM_OPENEYE_CAN_SMILES>
C1COCCN1C2=NC(=NC(=N2)Cl)OC3=CC=C(C=C3)CCNC4=NC5=NC(=NN5C(=N4)N)C6=CC=CO6

> <PUBCHEM_OPENEYE_ISO_SMILES>
C1COCCN1C2=NC(=NC(=N2)Cl)OC3=CC=C(C=C3)CCNC4=NC5=NC(=NN5C(=N4)N)C6=CC=CO6

> <PUBCHEM_CACTVS_TPSA>
168

> <PUBCHEM_MONOISOTOPIC_WEIGHT>
535.1595613

> <PUBCHEM_TOTAL_CHARGE>
0

> <PUBCHEM_HEAVY_ATOM_COUNT>
38

> <PUBCHEM_ATOM_DEF_STEREO_COUNT>
0

> <PUBCHEM_ATOM_UDEF_STEREO_COUNT>
0

> <PUBCHEM_BOND_DEF_STEREO_COUNT>
0

> <PUBCHEM_BOND_UDEF_STEREO_COUNT>
0

> <PUBCHEM_ISOTOPIC_ATOM_COUNT>
0

> <PUBCHEM_COMPONENT_COUNT>
1

> <PUBCHEM_CACTVS_TAUTO_COUNT>
-1

> <PUBCHEM_COORDINATE_TYPE>
1
5
255

> <PUBCHEM_BONDANNOTATIONS>
10  26  8
10  31  8
11  30  8
11  32  8
12  30  8
12  33  8
13  34  8
14  32  8
14  34  8
23  24  8
23  25  8
24  28  8
25  29  8
27  28  8
27  29  8
35  36  8
36  37  8
37  38  8
4  35  8
4  38  8
6  20  8
6  26  8
7  20  8
7  31  8
9  13  8
9  32  8
9  33  8

$$$$
