44454418
  -OEChem-09292322242D

 60 64  0     1  0  0  0  0  0999 V2000
   13.1125   -1.7719    0.0000 S   0  0  0  0  0  0  0  0  0  0  0  0
    6.8867    1.9320    0.0000 S   0  0  0  0  0  0  0  0  0  0  0  0
    3.5388   -0.1558    0.0000 O   0  0  0  0  0  0  0  0  0  0  0  0
    9.8867    0.1999    0.0000 N   0  0  3  0  0  0  0  0  0  0  0  0
   14.5064   -0.9672    0.0000 N   0  0  0  0  0  0  0  0  0  0  0  0
    5.2989    1.1229    0.0000 N   0  0  0  0  0  0  0  0  0  0  0  0
    5.2989    2.7410    0.0000 N   0  0  0  0  0  0  0  0  0  0  0  0
    4.3479    2.4320    0.0000 N   0  0  0  0  0  0  0  0  0  0  0  0
    2.0000    0.3442    0.0000 N   0  0  0  0  0  0  0  0  0  0  0  0
   10.3111   -0.6843    0.0000 C   0  0  0  0  0  0  0  0  0  0  0  0
   10.3111    1.0842    0.0000 C   0  0  0  0  0  0  0  0  0  0  0  0
   11.2664   -0.9064    0.0000 C   0  0  0  0  0  0  0  0  0  0  0  0
   11.2664    1.3063    0.0000 C   0  0  0  0  0  0  0  0  0  0  0  0
   12.0373   -0.3001    0.0000 C   0  0  0  0  0  0  0  0  0  0  0  0
   12.0373    0.6999    0.0000 C   0  0  0  0  0  0  0  0  0  0  0  0
    8.8867    0.1999    0.0000 C   0  0  0  0  0  0  0  0  0  0  0  0
   12.9033   -0.8001    0.0000 C   0  0  0  0  0  0  0  0  0  0  0  0
    8.3867    1.0659    0.0000 C   0  0  0  0  0  0  0  0  0  0  0  0
   12.9033    1.1999    0.0000 C   0  0  0  0  0  0  0  0  0  0  0  0
   13.7693   -0.3001    0.0000 C   0  0  0  0  0  0  0  0  0  0  0  0
   13.7693    0.6999    0.0000 C   0  0  0  0  0  0  0  0  0  0  0  0
    7.3867    1.0659    0.0000 C   0  0  0  0  0  0  0  0  0  0  0  0
   14.1012   -1.8750    0.0000 C   0  0  0  0  0  0  0  0  0  0  0  0
   14.6012   -2.7410    0.0000 C   0  0  0  0  0  0  0  0  0  0  0  0
    5.8867    1.9320    0.0000 C   0  0  0  0  0  0  0  0  0  0  0  0
   15.6012   -2.7410    0.0000 C   0  0  0  0  0  0  0  0  0  0  0  0
    4.3479    1.4320    0.0000 C   0  0  0  0  0  0  0  0  0  0  0  0
    5.6079    0.1719    0.0000 C   0  0  0  0  0  0  0  0  0  0  0  0
    3.5388    0.8442    0.0000 C   0  0  0  0  0  0  0  0  0  0  0  0
    2.5878    1.1532    0.0000 C   0  0  0  0  0  0  0  0  0  0  0  0
    2.2788    2.1042    0.0000 C   0  0  0  0  0  0  0  0  0  0  0  0
    2.5878   -0.4648    0.0000 C   0  0  0  0  0  0  0  0  0  0  0  0
    9.7063   -0.8209    0.0000 H   0  0  0  0  0  0  0  0  0  0  0  0
   10.3091   -1.3043    0.0000 H   0  0  0  0  0  0  0  0  0  0  0  0
   10.3091    1.7042    0.0000 H   0  0  0  0  0  0  0  0  0  0  0  0
    9.7063    1.2208    0.0000 H   0  0  0  0  0  0  0  0  0  0  0  0
   10.9946   -1.4637    0.0000 H   0  0  0  0  0  0  0  0  0  0  0  0
   11.7488   -1.2958    0.0000 H   0  0  0  0  0  0  0  0  0  0  0  0
   11.7488    1.6956    0.0000 H   0  0  0  0  0  0  0  0  0  0  0  0
   10.9946    1.8635    0.0000 H   0  0  0  0  0  0  0  0  0  0  0  0
    8.3041   -0.0121    0.0000 H   0  0  0  0  0  0  0  0  0  0  0  0
    8.9944   -0.4107    0.0000 H   0  0  0  0  0  0  0  0  0  0  0  0
    8.9693    1.2780    0.0000 H   0  0  0  0  0  0  0  0  0  0  0  0
    8.2790    1.6765    0.0000 H   0  0  0  0  0  0  0  0  0  0  0  0
   12.9033    1.8199    0.0000 H   0  0  0  0  0  0  0  0  0  0  0  0
   14.3063    1.0099    0.0000 H   0  0  0  0  0  0  0  0  0  0  0  0
    6.8041    0.8539    0.0000 H   0  0  0  0  0  0  0  0  0  0  0  0
    7.4944    0.4554    0.0000 H   0  0  0  0  0  0  0  0  0  0  0  0
   14.0186   -2.9530    0.0000 H   0  0  0  0  0  0  0  0  0  0  0  0
   14.7089   -3.3516    0.0000 H   0  0  0  0  0  0  0  0  0  0  0  0
   15.6012   -3.3610    0.0000 H   0  0  0  0  0  0  0  0  0  0  0  0
   16.2212   -2.7410    0.0000 H   0  0  0  0  0  0  0  0  0  0  0  0
   15.6012   -2.1210    0.0000 H   0  0  0  0  0  0  0  0  0  0  0  0
    5.0183   -0.0197    0.0000 H   0  0  0  0  0  0  0  0  0  0  0  0
    5.7995   -0.4178    0.0000 H   0  0  0  0  0  0  0  0  0  0  0  0
    6.1976    0.3635    0.0000 H   0  0  0  0  0  0  0  0  0  0  0  0
    2.8684    2.2958    0.0000 H   0  0  0  0  0  0  0  0  0  0  0  0
    2.0872    2.6939    0.0000 H   0  0  0  0  0  0  0  0  0  0  0  0
    1.6891    1.9127    0.0000 H   0  0  0  0  0  0  0  0  0  0  0  0
    2.3962   -1.0545    0.0000 H   0  0  0  0  0  0  0  0  0  0  0  0
  1 17  1  0  0  0  0
  1 23  1  0  0  0  0
  2 22  1  0  0  0  0
  2 25  1  0  0  0  0
  3 29  1  0  0  0  0
  3 32  1  0  0  0  0
  4 10  1  0  0  0  0
  4 11  1  0  0  0  0
  4 16  1  0  0  0  0
  5 20  1  0  0  0  0
  5 23  2  0  0  0  0
  6 25  1  0  0  0  0
  6 27  1  0  0  0  0
  6 28  1  0  0  0  0
  7  8  1  0  0  0  0
  7 25  2  0  0  0  0
  8 27  2  0  0  0  0
  9 30  1  0  0  0  0
  9 32  2  0  0  0  0
 10 12  1  0  0  0  0
 10 33  1  0  0  0  0
 10 34  1  0  0  0  0
 11 13  1  0  0  0  0
 11 35  1  0  0  0  0
 11 36  1  0  0  0  0
 12 14  1  0  0  0  0
 12 37  1  0  0  0  0
 12 38  1  0  0  0  0
 13 15  1  0  0  0  0
 13 39  1  0  0  0  0
 13 40  1  0  0  0  0
 14 15  2  0  0  0  0
 14 17  1  0  0  0  0
 15 19  1  0  0  0  0
 16 18  1  0  0  0  0
 16 41  1  0  0  0  0
 16 42  1  0  0  0  0
 17 20  2  0  0  0  0
 18 22  1  0  0  0  0
 18 43  1  0  0  0  0
 18 44  1  0  0  0  0
 19 21  2  0  0  0  0
 19 45  1  0  0  0  0
 20 21  1  0  0  0  0
 21 46  1  0  0  0  0
 22 47  1  0  0  0  0
 22 48  1  0  0  0  0
 23 24  1  0  0  0  0
 24 26  1  0  0  0  0
 24 49  1  0  0  0  0
 24 50  1  0  0  0  0
 26 51  1  0  0  0  0
 26 52  1  0  0  0  0
 26 53  1  0  0  0  0
 27 29  1  0  0  0  0
 28 54  1  0  0  0  0
 28 55  1  0  0  0  0
 28 56  1  0  0  0  0
 29 30  2  0  0  0  0
 30 31  1  0  0  0  0
 31 57  1  0  0  0  0
 31 58  1  0  0  0  0
 31 59  1  0  0  0  0
 32 60  1  0  0  0  0
M  END
> <PUBCHEM_COMPOUND_CID>
44454418

> <PUBCHEM_COMPOUND_CANONICALIZED>
1

> <PUBCHEM_CACTVS_COMPLEXITY>
617

> <PUBCHEM_CACTVS_HBOND_ACCEPTOR>
8

> <PUBCHEM_CACTVS_HBOND_DONOR>
0

> <PUBCHEM_CACTVS_ROTATABLE_BOND>
7

> <PUBCHEM_CACTVS_SUBSKEYS>
AAADceB7oABgAAAAAAAAAAAAAAAAAWLFgAAwAAAABYAAAFgB/gAAHgQIAAAADAzF3wa31bcMFEiuA6Zz9AST+Kt7argd2DW9ZJiOKKLk2bGNIChgjAL4yAcQgIAOiAAAwAAUAQAQAAGAACgCAAAAAAAAAA==

> <PUBCHEM_IUPAC_OPENEYE_NAME>
5-[5-[3-(2-ethyl-6,7,9,10-tetrahydrothiazolo[4,5-i][3]benzazepin-8-yl)propylsulfanyl]-4-methyl-1,2,4-triazol-3-yl]-4-methyl-oxazole

> <PUBCHEM_IUPAC_CAS_NAME>
5-[5-[3-(2-ethyl-6,7,9,10-tetrahydrothiazolo[4,5-i][3]benzazepin-8-yl)propylthio]-4-methyl-1,2,4-triazol-3-yl]-4-methyloxazole

> <PUBCHEM_IUPAC_NAME_MARKUP>
5-[5-[3-(2-ethyl-6,7,9,10-tetrahydro-[1,3]thiazolo[4,5-i][3]benzazepin-8-yl)propylsulfanyl]-4-methyl-1,2,4-triazol-3-yl]-4-methyl-1,3-oxazole

> <PUBCHEM_IUPAC_NAME>
5-[5-[3-(2-ethyl-6,7,9,10-tetrahydro-[1,3]thiazolo[4,5-i][3]benzazepin-8-yl)propylsulfanyl]-4-methyl-1,2,4-triazol-3-yl]-4-methyl-1,3-oxazole

> <PUBCHEM_IUPAC_SYSTEMATIC_NAME>
5-[5-[3-(2-ethyl-6,7,9,10-tetrahydro-[1,3]thiazolo[4,5-i][3]benzazepin-8-yl)propylsulfanyl]-4-methyl-1,2,4-triazol-3-yl]-4-methyl-1,3-oxazole

> <PUBCHEM_IUPAC_TRADITIONAL_NAME>
5-[5-[3-(2-ethyl-6,7,9,10-tetrahydrothiazolo[4,5-i][3]benzazepin-8-yl)propylthio]-4-methyl-1,2,4-triazol-3-yl]-4-methyl-oxazole

> <PUBCHEM_IUPAC_INCHI>
InChI=1S/C23H28N6OS2/c1-4-19-25-18-7-6-16-8-11-29(12-9-17(16)21(18)32-19)10-5-13-31-23-27-26-22(28(23)3)20-15(2)24-14-30-20/h6-7,14H,4-5,8-13H2,1-3H3

> <PUBCHEM_IUPAC_INCHIKEY>
VCXXQIVAVCLUOT-UHFFFAOYSA-N

> <PUBCHEM_XLOGP3_AA>
4.5

> <PUBCHEM_EXACT_MASS>
468.17660188

> <PUBCHEM_MOLECULAR_FORMULA>
C23H28N6OS2

> <PUBCHEM_MOLECULAR_WEIGHT>
468.6

> <PUBCHEM_OPENEYE_CAN_SMILES>
CCC1=NC2=C(S1)C3=C(CCN(CC3)CCCSC4=NN=C(N4C)C5=C(N=CO5)C)C=C2

> <PUBCHEM_OPENEYE_ISO_SMILES>
CCC1=NC2=C(S1)C3=C(CCN(CC3)CCCSC4=NN=C(N4C)C5=C(N=CO5)C)C=C2

> <PUBCHEM_CACTVS_TPSA>
126

> <PUBCHEM_MONOISOTOPIC_WEIGHT>
468.17660188

> <PUBCHEM_TOTAL_CHARGE>
0

> <PUBCHEM_HEAVY_ATOM_COUNT>
32

> <PUBCHEM_ATOM_DEF_STEREO_COUNT>
0

> <PUBCHEM_ATOM_UDEF_STEREO_COUNT>
0

> <PUBCHEM_BOND_DEF_STEREO_COUNT>
0

> <PUBCHEM_BOND_UDEF_STEREO_COUNT>
0

> <PUBCHEM_ISOTOPIC_ATOM_COUNT>
0

> <PUBCHEM_COMPONENT_COUNT>
1

> <PUBCHEM_CACTVS_TAUTO_COUNT>
-1

> <PUBCHEM_COORDINATE_TYPE>
1
5
255

> <PUBCHEM_BONDANNOTATIONS>
1  17  8
1  23  8
14  15  8
14  17  8
15  19  8
17  20  8
19  21  8
20  21  8
29  30  8
3  29  8
3  32  8
5  20  8
5  23  8
6  25  8
6  27  8
7  25  8
7  8  8
8  27  8
9  30  8
9  32  8

$$$$
