10458892
  -OEChem-09292322352D

 63 65  0     1  0  0  0  0  0999 V2000
   15.0583    0.4712    0.0000 Br  0  0  0  0  0  0  0  0  0  0  0  0
    2.0000    0.0254    0.0000 O   0  0  0  0  0  0  0  0  0  0  0  0
    2.0000    2.0254    0.0000 O   0  0  0  0  0  0  0  0  0  0  0  0
   11.5981    1.4846    0.0000 O   0  0  0  0  0  0  0  0  0  0  0  0
   11.5865   -1.5154    0.0000 O   0  0  0  0  0  0  0  0  0  0  0  0
   13.3147   -2.5221    0.0000 O   0  0  0  0  0  0  0  0  0  0  0  0
    6.3981    0.5046    0.0000 N   0  0  3  0  0  0  0  0  0  0  0  0
   10.7263   -0.0121    0.0000 N   0  0  0  0  0  0  0  0  0  0  0  0
    6.3981    1.5462    0.0000 C   0  0  0  0  0  0  0  0  0  0  0  0
    5.4920   -0.0092    0.0000 C   0  0  0  0  0  0  0  0  0  0  0  0
    5.4920    2.0601    0.0000 C   0  0  0  0  0  0  0  0  0  0  0  0
    7.2622    0.0013    0.0000 C   0  0  0  0  0  0  0  0  0  0  0  0
    4.5981    0.5254    0.0000 C   0  0  0  0  0  0  0  0  0  0  0  0
    4.5981    1.5254    0.0000 C   0  0  0  0  0  0  0  0  0  0  0  0
    8.1301    0.4979    0.0000 C   0  0  0  0  0  0  0  0  0  0  0  0
    8.9942   -0.0054    0.0000 C   0  0  0  0  0  0  0  0  0  0  0  0
    3.7320    0.0254    0.0000 C   0  0  0  0  0  0  0  0  0  0  0  0
    3.7320    2.0254    0.0000 C   0  0  0  0  0  0  0  0  0  0  0  0
    2.8660    0.5254    0.0000 C   0  0  0  0  0  0  0  0  0  0  0  0
    2.8660    1.5254    0.0000 C   0  0  0  0  0  0  0  0  0  0  0  0
    9.8622    0.4912    0.0000 C   0  0  0  0  0  0  0  0  0  0  0  0
   11.5942    0.4846    0.0000 C   0  0  0  0  0  0  0  0  0  0  0  0
    2.0000   -0.9746    0.0000 C   0  0  0  0  0  0  0  0  0  0  0  0
    2.0000    3.0254    0.0000 C   0  0  0  0  0  0  0  0  0  0  0  0
   12.4583   -0.0188    0.0000 C   0  0  0  0  0  0  0  0  0  0  0  0
   12.4544   -1.0188    0.0000 C   0  0  0  0  0  0  0  0  0  0  0  0
   13.3262    0.4779    0.0000 C   0  0  0  0  0  0  0  0  0  0  0  0
   13.3185   -1.5221    0.0000 C   0  0  0  0  0  0  0  0  0  0  0  0
   14.1903   -0.0254    0.0000 C   0  0  0  0  0  0  0  0  0  0  0  0
   14.1865   -1.0254    0.0000 C   0  0  0  0  0  0  0  0  0  0  0  0
   11.5826   -2.5154    0.0000 C   0  0  0  0  0  0  0  0  0  0  0  0
   14.1788   -3.0254    0.0000 C   0  0  0  0  0  0  0  0  0  0  0  0
    7.0089    1.4401    0.0000 H   0  0  0  0  0  0  0  0  0  0  0  0
    6.6071    2.1299    0.0000 H   0  0  0  0  0  0  0  0  0  0  0  0
    5.0874   -0.4790    0.0000 H   0  0  0  0  0  0  0  0  0  0  0  0
    5.8856   -0.4883    0.0000 H   0  0  0  0  0  0  0  0  0  0  0  0
    5.8856    2.5391    0.0000 H   0  0  0  0  0  0  0  0  0  0  0  0
    5.0874    2.5299    0.0000 H   0  0  0  0  0  0  0  0  0  0  0  0
    6.8618   -0.4721    0.0000 H   0  0  0  0  0  0  0  0  0  0  0  0
    7.6589   -0.4752    0.0000 H   0  0  0  0  0  0  0  0  0  0  0  0
    8.5305    0.9713    0.0000 H   0  0  0  0  0  0  0  0  0  0  0  0
    7.7334    0.9744    0.0000 H   0  0  0  0  0  0  0  0  0  0  0  0
    8.5939   -0.4788    0.0000 H   0  0  0  0  0  0  0  0  0  0  0  0
    9.3909   -0.4819    0.0000 H   0  0  0  0  0  0  0  0  0  0  0  0
    3.7320   -0.5946    0.0000 H   0  0  0  0  0  0  0  0  0  0  0  0
    3.7320    2.6454    0.0000 H   0  0  0  0  0  0  0  0  0  0  0  0
   10.2625    0.9647    0.0000 H   0  0  0  0  0  0  0  0  0  0  0  0
    9.4655    0.9677    0.0000 H   0  0  0  0  0  0  0  0  0  0  0  0
   10.7239   -0.6321    0.0000 H   0  0  0  0  0  0  0  0  0  0  0  0
    1.3800   -0.9746    0.0000 H   0  0  0  0  0  0  0  0  0  0  0  0
    2.0000   -1.5946    0.0000 H   0  0  0  0  0  0  0  0  0  0  0  0
    2.6200   -0.9746    0.0000 H   0  0  0  0  0  0  0  0  0  0  0  0
    2.6200    3.0254    0.0000 H   0  0  0  0  0  0  0  0  0  0  0  0
    2.0000    3.6454    0.0000 H   0  0  0  0  0  0  0  0  0  0  0  0
    1.3800    3.0254    0.0000 H   0  0  0  0  0  0  0  0  0  0  0  0
   13.3286    1.0979    0.0000 H   0  0  0  0  0  0  0  0  0  0  0  0
   14.7222   -1.3375    0.0000 H   0  0  0  0  0  0  0  0  0  0  0  0
   10.9626   -2.5130    0.0000 H   0  0  0  0  0  0  0  0  0  0  0  0
   11.5802   -3.1354    0.0000 H   0  0  0  0  0  0  0  0  0  0  0  0
   12.2026   -2.5178    0.0000 H   0  0  0  0  0  0  0  0  0  0  0  0
   13.8667   -3.5612    0.0000 H   0  0  0  0  0  0  0  0  0  0  0  0
   14.7145   -3.3375    0.0000 H   0  0  0  0  0  0  0  0  0  0  0  0
   14.4908   -2.4897    0.0000 H   0  0  0  0  0  0  0  0  0  0  0  0
  1 29  1  0  0  0  0
  2 19  1  0  0  0  0
  2 23  1  0  0  0  0
  3 20  1  0  0  0  0
  3 24  1  0  0  0  0
  4 22  2  0  0  0  0
  5 26  1  0  0  0  0
  5 31  1  0  0  0  0
  6 28  1  0  0  0  0
  6 32  1  0  0  0  0
  7  9  1  0  0  0  0
  7 10  1  0  0  0  0
  7 12  1  0  0  0  0
  8 21  1  0  0  0  0
  8 22  1  0  0  0  0
  8 49  1  0  0  0  0
  9 11  1  0  0  0  0
  9 33  1  0  0  0  0
  9 34  1  0  0  0  0
 10 13  1  0  0  0  0
 10 35  1  0  0  0  0
 10 36  1  0  0  0  0
 11 14  1  0  0  0  0
 11 37  1  0  0  0  0
 11 38  1  0  0  0  0
 12 15  1  0  0  0  0
 12 39  1  0  0  0  0
 12 40  1  0  0  0  0
 13 14  1  0  0  0  0
 13 17  2  0  0  0  0
 14 18  2  0  0  0  0
 15 16  1  0  0  0  0
 15 41  1  0  0  0  0
 15 42  1  0  0  0  0
 16 21  1  0  0  0  0
 16 43  1  0  0  0  0
 16 44  1  0  0  0  0
 17 19  1  0  0  0  0
 17 45  1  0  0  0  0
 18 20  1  0  0  0  0
 18 46  1  0  0  0  0
 19 20  2  0  0  0  0
 21 47  1  0  0  0  0
 21 48  1  0  0  0  0
 22 25  1  0  0  0  0
 23 50  1  0  0  0  0
 23 51  1  0  0  0  0
 23 52  1  0  0  0  0
 24 53  1  0  0  0  0
 24 54  1  0  0  0  0
 24 55  1  0  0  0  0
 25 26  2  0  0  0  0
 25 27  1  0  0  0  0
 26 28  1  0  0  0  0
 27 29  2  0  0  0  0
 27 56  1  0  0  0  0
 28 30  2  0  0  0  0
 29 30  1  0  0  0  0
 30 57  1  0  0  0  0
 31 58  1  0  0  0  0
 31 59  1  0  0  0  0
 31 60  1  0  0  0  0
 32 61  1  0  0  0  0
 32 62  1  0  0  0  0
 32 63  1  0  0  0  0
M  END
> <PUBCHEM_COMPOUND_CID>
10458892

> <PUBCHEM_COMPOUND_CANONICALIZED>
1

> <PUBCHEM_CACTVS_COMPLEXITY>
583

> <PUBCHEM_CACTVS_HBOND_ACCEPTOR>
6

> <PUBCHEM_CACTVS_HBOND_DONOR>
1

> <PUBCHEM_CACTVS_ROTATABLE_BOND>
10

> <PUBCHEM_CACTVS_SUBSKEYS>
AAADceB7OAAAEAAAAAAAAAAAAAAAAAAAAAA8YIAAAAAAAACxQAAAHgBQAAABrATBmAYyBoPABACIAiFSEACCCAAkIAQAiIEOjOgNJjaEtRuEMWpm9hGKq5e62LKOoBABEIAYQABAIAIhADCAAAAAAAAAAA==

> <PUBCHEM_IUPAC_OPENEYE_NAME>
5-bromo-N-[4-(6,7-dimethoxy-3,4-dihydro-1H-isoquinolin-2-yl)butyl]-2,3-dimethoxy-benzamide

> <PUBCHEM_IUPAC_CAS_NAME>
5-bromo-N-[4-(6,7-dimethoxy-3,4-dihydro-1H-isoquinolin-2-yl)butyl]-2,3-dimethoxybenzamide

> <PUBCHEM_IUPAC_NAME_MARKUP>
5-bromo-<I>N</I>-[4-(6,7-dimethoxy-3,4-dihydro-1<I>H</I>-isoquinolin-2-yl)butyl]-2,3-dimethoxybenzamide

> <PUBCHEM_IUPAC_NAME>
5-bromo-N-[4-(6,7-dimethoxy-3,4-dihydro-1H-isoquinolin-2-yl)butyl]-2,3-dimethoxybenzamide

> <PUBCHEM_IUPAC_SYSTEMATIC_NAME>
5-bromanyl-N-[4-(6,7-dimethoxy-3,4-dihydro-1H-isoquinolin-2-yl)butyl]-2,3-dimethoxy-benzamide

> <PUBCHEM_IUPAC_TRADITIONAL_NAME>
5-bromo-N-[4-(6,7-dimethoxy-3,4-dihydro-1H-isoquinolin-2-yl)butyl]-2,3-dimethoxy-benzamide

> <PUBCHEM_IUPAC_INCHI>
InChI=1S/C24H31BrN2O5/c1-29-20-11-16-7-10-27(15-17(16)12-21(20)30-2)9-6-5-8-26-24(28)19-13-18(25)14-22(31-3)23(19)32-4/h11-14H,5-10,15H2,1-4H3,(H,26,28)

> <PUBCHEM_IUPAC_INCHIKEY>
UNYNHWPKQAKANT-UHFFFAOYSA-N

> <PUBCHEM_XLOGP3_AA>
4.1

> <PUBCHEM_EXACT_MASS>
506.14163

> <PUBCHEM_MOLECULAR_FORMULA>
C24H31BrN2O5

> <PUBCHEM_MOLECULAR_WEIGHT>
507.4

> <PUBCHEM_OPENEYE_CAN_SMILES>
COC1=CC(=CC(=C1OC)C(=O)NCCCCN2CCC3=CC(=C(C=C3C2)OC)OC)Br

> <PUBCHEM_OPENEYE_ISO_SMILES>
COC1=CC(=CC(=C1OC)C(=O)NCCCCN2CCC3=CC(=C(C=C3C2)OC)OC)Br

> <PUBCHEM_CACTVS_TPSA>
69.3

> <PUBCHEM_MONOISOTOPIC_WEIGHT>
506.14163

> <PUBCHEM_TOTAL_CHARGE>
0

> <PUBCHEM_HEAVY_ATOM_COUNT>
32

> <PUBCHEM_ATOM_DEF_STEREO_COUNT>
0

> <PUBCHEM_ATOM_UDEF_STEREO_COUNT>
0

> <PUBCHEM_BOND_DEF_STEREO_COUNT>
0

> <PUBCHEM_BOND_UDEF_STEREO_COUNT>
0

> <PUBCHEM_ISOTOPIC_ATOM_COUNT>
0

> <PUBCHEM_COMPONENT_COUNT>
1

> <PUBCHEM_CACTVS_TAUTO_COUNT>
-1

> <PUBCHEM_COORDINATE_TYPE>
1
5
255

> <PUBCHEM_BONDANNOTATIONS>
13  14  8
13  17  8
14  18  8
17  19  8
18  20  8
19  20  8
25  26  8
25  27  8
26  28  8
27  29  8
28  30  8
29  30  8

$$$$
