46888925
  -OEChem-09292322292D

 54 58  0     0  0  0  0  0  0999 V2000
   10.2775   -1.4404    0.0000 O   0  0  0  0  0  0  0  0  0  0  0  0
    4.0041   -0.9364    0.0000 O   0  0  0  0  0  0  0  0  0  0  0  0
    2.5191   -1.9112    0.0000 O   0  0  0  0  0  0  0  0  0  0  0  0
   15.5396   -1.4162    0.0000 O   0  0  0  0  0  0  0  0  0  0  0  0
    7.6775   -0.9504    0.0000 N   0  0  0  0  0  0  0  0  0  0  0  0
    5.9416    0.0429    0.0000 N   0  0  0  0  0  0  0  0  0  0  0  0
    2.6072   -0.1370    0.0000 N   0  0  0  0  0  0  0  0  0  0  0  0
   13.8076   -1.4162    0.0000 N   0  0  0  0  0  0  0  0  0  0  0  0
    7.6736    0.0496    0.0000 C   0  0  0  0  0  0  0  0  0  0  0  0
    6.8134   -1.4537    0.0000 C   0  0  0  0  0  0  0  0  0  0  0  0
    6.8057    0.5463    0.0000 C   0  0  0  0  0  0  0  0  0  0  0  0
    5.9454   -0.9571    0.0000 C   0  0  0  0  0  0  0  0  0  0  0  0
    8.5454   -1.4470    0.0000 C   0  0  0  0  0  0  0  0  0  0  0  0
    5.0736    0.5396    0.0000 C   0  0  0  0  0  0  0  0  0  0  0  0
    9.4095   -0.9437    0.0000 C   0  0  0  0  0  0  0  0  0  0  0  0
    4.2096    0.0362    0.0000 C   0  0  0  0  0  0  0  0  0  0  0  0
    5.0698    1.5396    0.0000 C   0  0  0  0  0  0  0  0  0  0  0  0
    3.3416    0.5329    0.0000 C   0  0  0  0  0  0  0  0  0  0  0  0
    4.2018    2.0362    0.0000 C   0  0  0  0  0  0  0  0  0  0  0  0
   12.9416    0.0838    0.0000 C   0  0  0  0  0  0  0  0  0  0  0  0
    3.3378    1.5329    0.0000 C   0  0  0  0  0  0  0  0  0  0  0  0
   11.1416   -0.9370    0.0000 C   0  0  0  0  0  0  0  0  0  0  0  0
   13.8076    0.5838    0.0000 C   0  0  0  0  0  0  0  0  0  0  0  0
   12.9416   -0.9162    0.0000 C   0  0  0  0  0  0  0  0  0  0  0  0
   14.6736    0.0838    0.0000 C   0  0  0  0  0  0  0  0  0  0  0  0
   12.0476   -1.4509    0.0000 C   0  0  0  0  0  0  0  0  0  0  0  0
   12.0476    0.6184    0.0000 C   0  0  0  0  0  0  0  0  0  0  0  0
   11.1416    0.1046    0.0000 C   0  0  0  0  0  0  0  0  0  0  0  0
    3.0158   -1.0432    0.0000 C   0  0  0  0  0  0  0  0  0  0  0  0
   14.6736   -0.9162    0.0000 C   0  0  0  0  0  0  0  0  0  0  0  0
    8.2846   -0.0557    0.0000 H   0  0  0  0  0  0  0  0  0  0  0  0
    7.8834    0.6330    0.0000 H   0  0  0  0  0  0  0  0  0  0  0  0
    6.4167   -1.9302    0.0000 H   0  0  0  0  0  0  0  0  0  0  0  0
    7.2137   -1.9271    0.0000 H   0  0  0  0  0  0  0  0  0  0  0  0
    7.2024    1.0227    0.0000 H   0  0  0  0  0  0  0  0  0  0  0  0
    6.4053    1.0197    0.0000 H   0  0  0  0  0  0  0  0  0  0  0  0
    5.3344   -0.8518    0.0000 H   0  0  0  0  0  0  0  0  0  0  0  0
    5.7356   -1.5405    0.0000 H   0  0  0  0  0  0  0  0  0  0  0  0
    8.1487   -1.9235    0.0000 H   0  0  0  0  0  0  0  0  0  0  0  0
    8.9458   -1.9205    0.0000 H   0  0  0  0  0  0  0  0  0  0  0  0
    9.8062   -0.4672    0.0000 H   0  0  0  0  0  0  0  0  0  0  0  0
    9.0092   -0.4703    0.0000 H   0  0  0  0  0  0  0  0  0  0  0  0
    5.6055    1.8516    0.0000 H   0  0  0  0  0  0  0  0  0  0  0  0
    4.1994    2.6562    0.0000 H   0  0  0  0  0  0  0  0  0  0  0  0
   14.2061    1.0587    0.0000 H   0  0  0  0  0  0  0  0  0  0  0  0
   13.4091    1.0587    0.0000 H   0  0  0  0  0  0  0  0  0  0  0  0
    2.7996    1.8408    0.0000 H   0  0  0  0  0  0  0  0  0  0  0  0
   15.2842   -0.0239    0.0000 H   0  0  0  0  0  0  0  0  0  0  0  0
   14.8857    0.6664    0.0000 H   0  0  0  0  0  0  0  0  0  0  0  0
    2.0000   -0.0115    0.0000 H   0  0  0  0  0  0  0  0  0  0  0  0
   12.0548   -2.0708    0.0000 H   0  0  0  0  0  0  0  0  0  0  0  0
   12.0548    1.2384    0.0000 H   0  0  0  0  0  0  0  0  0  0  0  0
   10.6058    0.4167    0.0000 H   0  0  0  0  0  0  0  0  0  0  0  0
   13.8076   -2.0362    0.0000 H   0  0  0  0  0  0  0  0  0  0  0  0
  1 15  1  0  0  0  0
  1 22  1  0  0  0  0
  2 16  1  0  0  0  0
  2 29  1  0  0  0  0
  3 29  2  0  0  0  0
  4 30  2  0  0  0  0
  5  9  1  0  0  0  0
  5 10  1  0  0  0  0
  5 13  1  0  0  0  0
  6 11  1  0  0  0  0
  6 12  1  0  0  0  0
  6 14  1  0  0  0  0
  7 18  1  0  0  0  0
  7 29  1  0  0  0  0
  7 50  1  0  0  0  0
  8 24  1  0  0  0  0
  8 30  1  0  0  0  0
  8 54  1  0  0  0  0
  9 11  1  0  0  0  0
  9 31  1  0  0  0  0
  9 32  1  0  0  0  0
 10 12  1  0  0  0  0
 10 33  1  0  0  0  0
 10 34  1  0  0  0  0
 11 35  1  0  0  0  0
 11 36  1  0  0  0  0
 12 37  1  0  0  0  0
 12 38  1  0  0  0  0
 13 15  1  0  0  0  0
 13 39  1  0  0  0  0
 13 40  1  0  0  0  0
 14 16  1  0  0  0  0
 14 17  2  0  0  0  0
 15 41  1  0  0  0  0
 15 42  1  0  0  0  0
 16 18  2  0  0  0  0
 17 19  1  0  0  0  0
 17 43  1  0  0  0  0
 18 21  1  0  0  0  0
 19 21  2  0  0  0  0
 19 44  1  0  0  0  0
 20 23  1  0  0  0  0
 20 24  2  0  0  0  0
 20 27  1  0  0  0  0
 21 47  1  0  0  0  0
 22 26  2  0  0  0  0
 22 28  1  0  0  0  0
 23 25  1  0  0  0  0
 23 45  1  0  0  0  0
 23 46  1  0  0  0  0
 24 26  1  0  0  0  0
 25 30  1  0  0  0  0
 25 48  1  0  0  0  0
 25 49  1  0  0  0  0
 26 51  1  0  0  0  0
 27 28  2  0  0  0  0
 27 52  1  0  0  0  0
 28 53  1  0  0  0  0
M  END
> <PUBCHEM_COMPOUND_CID>
46888925

> <PUBCHEM_COMPOUND_CANONICALIZED>
1

> <PUBCHEM_CACTVS_COMPLEXITY>
639

> <PUBCHEM_CACTVS_HBOND_ACCEPTOR>
6

> <PUBCHEM_CACTVS_HBOND_DONOR>
2

> <PUBCHEM_CACTVS_ROTATABLE_BOND>
5

> <PUBCHEM_CACTVS_SUBSKEYS>
AAADceB7uAAAAAAAAAAAAAAAAAAAAWAAAAA8eIEAAAAAAFixQAAAHgAQAAAADAzhmAYwzoPABACIAiVSWACCCAAhIgAIiAEPbIkOZjLE8dufOijm1BnY6AeY2aOeIAAAAgQCEABAAAAECAQgAAAAAAAAAA==

> <PUBCHEM_IUPAC_OPENEYE_NAME>
7-[4-[2-[(2-oxo-3,4-dihydro-1H-quinolin-7-yl)oxy]ethyl]piperazin-1-yl]-3H-1,3-benzoxazol-2-one

> <PUBCHEM_IUPAC_CAS_NAME>
7-[4-[2-[(2-oxo-3,4-dihydro-1H-quinolin-7-yl)oxy]ethyl]-1-piperazinyl]-3H-1,3-benzoxazol-2-one

> <PUBCHEM_IUPAC_NAME_MARKUP>
7-[4-[2-[(2-oxo-3,4-dihydro-1<I>H</I>-quinolin-7-yl)oxy]ethyl]piperazin-1-yl]-3<I>H</I>-1,3-benzoxazol-2-one

> <PUBCHEM_IUPAC_NAME>
7-[4-[2-[(2-oxo-3,4-dihydro-1H-quinolin-7-yl)oxy]ethyl]piperazin-1-yl]-3H-1,3-benzoxazol-2-one

> <PUBCHEM_IUPAC_SYSTEMATIC_NAME>
7-[4-[2-[(2-oxidanylidene-3,4-dihydro-1H-quinolin-7-yl)oxy]ethyl]piperazin-1-yl]-3H-1,3-benzoxazol-2-one

> <PUBCHEM_IUPAC_TRADITIONAL_NAME>
7-[4-[2-[(2-keto-3,4-dihydro-1H-quinolin-7-yl)oxy]ethyl]piperazino]-3H-1,3-benzoxazol-2-one

> <PUBCHEM_IUPAC_INCHI>
InChI=1S/C22H24N4O4/c27-20-7-5-15-4-6-16(14-18(15)23-20)29-13-12-25-8-10-26(11-9-25)19-3-1-2-17-21(19)30-22(28)24-17/h1-4,6,14H,5,7-13H2,(H,23,27)(H,24,28)

> <PUBCHEM_IUPAC_INCHIKEY>
DSJIJDFJKQAXLN-UHFFFAOYSA-N

> <PUBCHEM_XLOGP3_AA>
1.9

> <PUBCHEM_EXACT_MASS>
408.17975526

> <PUBCHEM_MOLECULAR_FORMULA>
C22H24N4O4

> <PUBCHEM_MOLECULAR_WEIGHT>
408.4

> <PUBCHEM_OPENEYE_CAN_SMILES>
C1CC(=O)NC2=C1C=CC(=C2)OCCN3CCN(CC3)C4=CC=CC5=C4OC(=O)N5

> <PUBCHEM_OPENEYE_ISO_SMILES>
C1CC(=O)NC2=C1C=CC(=C2)OCCN3CCN(CC3)C4=CC=CC5=C4OC(=O)N5

> <PUBCHEM_CACTVS_TPSA>
83.1

> <PUBCHEM_MONOISOTOPIC_WEIGHT>
408.17975526

> <PUBCHEM_TOTAL_CHARGE>
0

> <PUBCHEM_HEAVY_ATOM_COUNT>
30

> <PUBCHEM_ATOM_DEF_STEREO_COUNT>
0

> <PUBCHEM_ATOM_UDEF_STEREO_COUNT>
0

> <PUBCHEM_BOND_DEF_STEREO_COUNT>
0

> <PUBCHEM_BOND_UDEF_STEREO_COUNT>
0

> <PUBCHEM_ISOTOPIC_ATOM_COUNT>
0

> <PUBCHEM_COMPONENT_COUNT>
1

> <PUBCHEM_CACTVS_TAUTO_COUNT>
-1

> <PUBCHEM_COORDINATE_TYPE>
1
5
255

> <PUBCHEM_BONDANNOTATIONS>
14  16  8
14  17  8
16  18  8
17  19  8
18  21  8
19  21  8
2  16  8
2  29  8
20  24  8
20  27  8
22  26  8
22  28  8
24  26  8
27  28  8
7  18  8
7  29  8

$$$$
