118711264
  -OEChem-09292322472D

 54 58  0     1  0  0  0  0  0999 V2000
    7.8547    1.0501    0.0000 O   0  0  0  0  0  0  0  0  0  0  0  0
    3.0000    0.0259    0.0000 N   0  0  3  0  0  0  0  0  0  0  0  0
    4.4088    1.1494    0.0000 C   0  0  3  0  0  0  0  0  0  0  0  0
    3.4339    0.9269    0.0000 C   0  0  0  0  0  0  0  0  0  0  0  0
    5.1906    0.5259    0.0000 C   0  0  0  0  0  0  0  0  0  0  0  0
    5.1906   -0.4741    0.0000 C   0  0  0  0  0  0  0  0  0  0  0  0
    4.4088   -1.0976    0.0000 C   0  0  0  0  0  0  0  0  0  0  0  0
    3.4339   -0.8750    0.0000 C   0  0  0  0  0  0  0  0  0  0  0  0
    4.6313    2.1243    0.0000 C   0  0  0  0  0  0  0  0  0  0  0  0
    6.0846    1.0606    0.0000 C   0  0  0  0  0  0  0  0  0  0  0  0
    6.0846   -1.0087    0.0000 C   0  0  0  0  0  0  0  0  0  0  0  0
    6.9906   -0.4949    0.0000 C   0  0  0  0  0  0  0  0  0  0  0  0
    2.0000    0.0259    0.0000 C   0  0  0  0  0  0  0  0  0  0  0  0
    6.9906    0.5467    0.0000 C   0  0  0  0  0  0  0  0  0  0  0  0
    3.8983    2.8045    0.0000 C   0  0  0  0  0  0  0  0  0  0  0  0
    5.5869    2.4191    0.0000 C   0  0  0  0  0  0  0  0  0  0  0  0
    7.8547   -0.9982    0.0000 C   0  0  0  0  0  0  0  0  0  0  0  0
    4.1208    3.7794    0.0000 C   0  0  0  0  0  0  0  0  0  0  0  0
    5.8094    3.3940    0.0000 C   0  0  0  0  0  0  0  0  0  0  0  0
    7.8509   -1.9982    0.0000 C   0  0  0  0  0  0  0  0  0  0  0  0
    8.7227   -0.5016    0.0000 C   0  0  0  0  0  0  0  0  0  0  0  0
    5.0764    4.0742    0.0000 C   0  0  0  0  0  0  0  0  0  0  0  0
    8.7150   -2.5016    0.0000 C   0  0  0  0  0  0  0  0  0  0  0  0
    9.5829   -2.0049    0.0000 C   0  0  0  0  0  0  0  0  0  0  0  0
    9.5868   -1.0049    0.0000 C   0  0  0  0  0  0  0  0  0  0  0  0
    8.6949   -3.5430    0.0000 C   0  0  0  0  0  0  0  0  0  0  0  0
   10.4910   -2.5152    0.0000 C   0  0  0  0  0  0  0  0  0  0  0  0
    9.5909   -4.0742    0.0000 C   0  0  0  0  0  0  0  0  0  0  0  0
   10.4950   -3.5569    0.0000 C   0  0  0  0  0  0  0  0  0  0  0  0
    3.9704    1.5878    0.0000 H   0  0  0  0  0  0  0  0  0  0  0  0
    3.4339    1.5469    0.0000 H   0  0  0  0  0  0  0  0  0  0  0  0
    2.8294    1.0649    0.0000 H   0  0  0  0  0  0  0  0  0  0  0  0
    4.1398   -1.6562    0.0000 H   0  0  0  0  0  0  0  0  0  0  0  0
    4.8936   -1.4841    0.0000 H   0  0  0  0  0  0  0  0  0  0  0  0
    2.8294   -1.0130    0.0000 H   0  0  0  0  0  0  0  0  0  0  0  0
    3.4339   -1.4950    0.0000 H   0  0  0  0  0  0  0  0  0  0  0  0
    6.0774    1.6806    0.0000 H   0  0  0  0  0  0  0  0  0  0  0  0
    6.0774   -1.6287    0.0000 H   0  0  0  0  0  0  0  0  0  0  0  0
    2.0000    0.6459    0.0000 H   0  0  0  0  0  0  0  0  0  0  0  0
    1.3800    0.0259    0.0000 H   0  0  0  0  0  0  0  0  0  0  0  0
    2.0000   -0.5941    0.0000 H   0  0  0  0  0  0  0  0  0  0  0  0
    3.3058    2.6218    0.0000 H   0  0  0  0  0  0  0  0  0  0  0  0
    6.0414    1.9974    0.0000 H   0  0  0  0  0  0  0  0  0  0  0  0
    3.6663    4.2012    0.0000 H   0  0  0  0  0  0  0  0  0  0  0  0
    6.4019    3.5768    0.0000 H   0  0  0  0  0  0  0  0  0  0  0  0
    7.3128   -2.3061    0.0000 H   0  0  0  0  0  0  0  0  0  0  0  0
    8.7251    0.1184    0.0000 H   0  0  0  0  0  0  0  0  0  0  0  0
    5.2143    4.6787    0.0000 H   0  0  0  0  0  0  0  0  0  0  0  0
    7.8524    1.6701    0.0000 H   0  0  0  0  0  0  0  0  0  0  0  0
   10.1249   -0.6970    0.0000 H   0  0  0  0  0  0  0  0  0  0  0  0
    8.1533   -3.8447    0.0000 H   0  0  0  0  0  0  0  0  0  0  0  0
   11.0255   -2.2011    0.0000 H   0  0  0  0  0  0  0  0  0  0  0  0
    9.5861   -4.6942    0.0000 H   0  0  0  0  0  0  0  0  0  0  0  0
   11.0319   -3.8669    0.0000 H   0  0  0  0  0  0  0  0  0  0  0  0
  1 14  1  0  0  0  0
  1 49  1  0  0  0  0
  2  4  1  0  0  0  0
  2  8  1  0  0  0  0
  2 13  1  0  0  0  0
  3  4  1  0  0  0  0
  3  5  1  0  0  0  0
  3  9  1  0  0  0  0
  3 30  1  0  0  0  0
  4 31  1  0  0  0  0
  4 32  1  0  0  0  0
  5  6  1  0  0  0  0
  5 10  2  0  0  0  0
  6  7  1  0  0  0  0
  6 11  2  0  0  0  0
  7  8  1  0  0  0  0
  7 33  1  0  0  0  0
  7 34  1  0  0  0  0
  8 35  1  0  0  0  0
  8 36  1  0  0  0  0
  9 15  2  0  0  0  0
  9 16  1  0  0  0  0
 10 14  1  0  0  0  0
 10 37  1  0  0  0  0
 11 12  1  0  0  0  0
 11 38  1  0  0  0  0
 12 14  2  0  0  0  0
 12 17  1  0  0  0  0
 13 39  1  0  0  0  0
 13 40  1  0  0  0  0
 13 41  1  0  0  0  0
 15 18  1  0  0  0  0
 15 42  1  0  0  0  0
 16 19  2  0  0  0  0
 16 43  1  0  0  0  0
 17 20  2  0  0  0  0
 17 21  1  0  0  0  0
 18 22  2  0  0  0  0
 18 44  1  0  0  0  0
 19 22  1  0  0  0  0
 19 45  1  0  0  0  0
 20 23  1  0  0  0  0
 20 46  1  0  0  0  0
 21 25  2  0  0  0  0
 21 47  1  0  0  0  0
 22 48  1  0  0  0  0
 23 24  1  0  0  0  0
 23 26  2  0  0  0  0
 24 25  1  0  0  0  0
 24 27  2  0  0  0  0
 25 50  1  0  0  0  0
 26 28  1  0  0  0  0
 26 51  1  0  0  0  0
 27 29  1  0  0  0  0
 27 52  1  0  0  0  0
 28 29  2  0  0  0  0
 28 53  1  0  0  0  0
 29 54  1  0  0  0  0
M  END
> <PUBCHEM_COMPOUND_CID>
118711264

> <PUBCHEM_COMPOUND_CANONICALIZED>
1

> <PUBCHEM_CACTVS_COMPLEXITY>
529

> <PUBCHEM_CACTVS_HBOND_ACCEPTOR>
2

> <PUBCHEM_CACTVS_HBOND_DONOR>
1

> <PUBCHEM_CACTVS_ROTATABLE_BOND>
2

> <PUBCHEM_CACTVS_SUBSKEYS>
AAADceB6IAAAAAAAAAAAAAAAAAAAAAAAAAAwYMGABYAAAADBVAAAHgAACAAADQTBmAQyBsMAAgCAAiBCAAACAAAgIAAIiAAOCIgIJiKCkROEcAAkwBGImAeQ0PIO4AADAAAYAADAAAYAADAAAAAAAAAAAA==

> <PUBCHEM_IUPAC_OPENEYE_NAME>
3-methyl-8-(2-naphthyl)-5-phenyl-1,2,4,5-tetrahydro-3-benzazepin-7-ol

> <PUBCHEM_IUPAC_CAS_NAME>
3-methyl-8-(2-naphthalenyl)-5-phenyl-1,2,4,5-tetrahydro-3-benzazepin-7-ol

> <PUBCHEM_IUPAC_NAME_MARKUP>
3-methyl-8-naphthalen-2-yl-5-phenyl-1,2,4,5-tetrahydro-3-benzazepin-7-ol

> <PUBCHEM_IUPAC_NAME>
3-methyl-8-naphthalen-2-yl-5-phenyl-1,2,4,5-tetrahydro-3-benzazepin-7-ol

> <PUBCHEM_IUPAC_SYSTEMATIC_NAME>
3-methyl-8-naphthalen-2-yl-5-phenyl-1,2,4,5-tetrahydro-3-benzazepin-7-ol

> <PUBCHEM_IUPAC_TRADITIONAL_NAME>
3-methyl-8-(2-naphthyl)-5-phenyl-1,2,4,5-tetrahydro-3-benzazepin-7-ol

> <PUBCHEM_IUPAC_INCHI>
InChI=1S/C27H25NO/c1-28-14-13-23-16-25(22-12-11-19-7-5-6-10-21(19)15-22)27(29)17-24(23)26(18-28)20-8-3-2-4-9-20/h2-12,15-17,26,29H,13-14,18H2,1H3

> <PUBCHEM_IUPAC_INCHIKEY>
JWWAFXZDXMRKOT-UHFFFAOYSA-N

> <PUBCHEM_XLOGP3_AA>
6.2

> <PUBCHEM_EXACT_MASS>
379.193614421

> <PUBCHEM_MOLECULAR_FORMULA>
C27H25NO

> <PUBCHEM_MOLECULAR_WEIGHT>
379.5

> <PUBCHEM_OPENEYE_CAN_SMILES>
CN1CCC2=CC(=C(C=C2C(C1)C3=CC=CC=C3)O)C4=CC5=CC=CC=C5C=C4

> <PUBCHEM_OPENEYE_ISO_SMILES>
CN1CCC2=CC(=C(C=C2C(C1)C3=CC=CC=C3)O)C4=CC5=CC=CC=C5C=C4

> <PUBCHEM_CACTVS_TPSA>
23.5

> <PUBCHEM_MONOISOTOPIC_WEIGHT>
379.193614421

> <PUBCHEM_TOTAL_CHARGE>
0

> <PUBCHEM_HEAVY_ATOM_COUNT>
29

> <PUBCHEM_ATOM_DEF_STEREO_COUNT>
0

> <PUBCHEM_ATOM_UDEF_STEREO_COUNT>
1

> <PUBCHEM_BOND_DEF_STEREO_COUNT>
0

> <PUBCHEM_BOND_UDEF_STEREO_COUNT>
0

> <PUBCHEM_ISOTOPIC_ATOM_COUNT>
0

> <PUBCHEM_COMPONENT_COUNT>
1

> <PUBCHEM_CACTVS_TAUTO_COUNT>
-1

> <PUBCHEM_COORDINATE_TYPE>
1
5
255

> <PUBCHEM_BONDANNOTATIONS>
10  14  8
11  12  8
12  14  8
15  18  8
16  19  8
17  20  8
17  21  8
18  22  8
19  22  8
20  23  8
21  25  8
23  24  8
23  26  8
24  25  8
24  27  8
26  28  8
27  29  8
28  29  8
3  9  3
5  10  8
5  6  8
6  11  8
9  15  8
9  16  8

$$$$
