57873513
  -OEChem-09292322472D

 62 66  0     0  0  0  0  0  0999 V2000
   13.3263   -0.5000    0.0000 O   0  0  0  0  0  0  0  0  0  0  0  0
    8.1301    0.5000    0.0000 N   0  0  0  0  0  0  0  0  0  0  0  0
    6.3981   -0.5000    0.0000 N   0  0  0  0  0  0  0  0  0  0  0  0
   12.4603    1.0000    0.0000 N   0  0  0  0  0  0  0  0  0  0  0  0
    4.6660   -2.5000    0.0000 N   0  0  0  0  0  0  0  0  0  0  0  0
   14.1923    2.0000    0.0000 N   0  0  0  0  0  0  0  0  0  0  0  0
    7.2641    1.0000    0.0000 C   0  0  0  0  0  0  0  0  0  0  0  0
    8.1301   -0.5000    0.0000 C   0  0  0  0  0  0  0  0  0  0  0  0
    6.3981    0.5000    0.0000 C   0  0  0  0  0  0  0  0  0  0  0  0
    7.2641   -1.0000    0.0000 C   0  0  0  0  0  0  0  0  0  0  0  0
    8.9962    1.0000    0.0000 C   0  0  0  0  0  0  0  0  0  0  0  0
    9.8622    0.5000    0.0000 C   0  0  0  0  0  0  0  0  0  0  0  0
    5.5321   -1.0000    0.0000 C   0  0  0  0  0  0  0  0  0  0  0  0
   10.7282    1.0000    0.0000 C   0  0  0  0  0  0  0  0  0  0  0  0
   11.5942    0.5000    0.0000 C   0  0  0  0  0  0  0  0  0  0  0  0
    4.6660   -0.5000    0.0000 C   0  0  0  0  0  0  0  0  0  0  0  0
    5.5321   -2.0000    0.0000 C   0  0  0  0  0  0  0  0  0  0  0  0
    3.8000   -1.0000    0.0000 C   0  0  0  0  0  0  0  0  0  0  0  0
    3.8000   -2.0000    0.0000 C   0  0  0  0  0  0  0  0  0  0  0  0
    2.9061   -0.4653    0.0000 C   0  0  0  0  0  0  0  0  0  0  0  0
    2.9061   -2.5347    0.0000 C   0  0  0  0  0  0  0  0  0  0  0  0
   13.3263    0.5000    0.0000 C   0  0  0  0  0  0  0  0  0  0  0  0
    2.0000   -0.9792    0.0000 C   0  0  0  0  0  0  0  0  0  0  0  0
    2.0000   -2.0208    0.0000 C   0  0  0  0  0  0  0  0  0  0  0  0
   14.1923    1.0000    0.0000 C   0  0  0  0  0  0  0  0  0  0  0  0
   15.0583    0.5000    0.0000 C   0  0  0  0  0  0  0  0  0  0  0  0
   15.9244    1.0000    0.0000 C   0  0  0  0  0  0  0  0  0  0  0  0
   15.9244    2.0000    0.0000 C   0  0  0  0  0  0  0  0  0  0  0  0
   15.0583    2.5000    0.0000 C   0  0  0  0  0  0  0  0  0  0  0  0
   16.8183    0.4653    0.0000 C   0  0  0  0  0  0  0  0  0  0  0  0
   16.8183    2.5347    0.0000 C   0  0  0  0  0  0  0  0  0  0  0  0
   17.7244    0.9792    0.0000 C   0  0  0  0  0  0  0  0  0  0  0  0
   17.7244    2.0208    0.0000 C   0  0  0  0  0  0  0  0  0  0  0  0
    7.6626    1.4750    0.0000 H   0  0  0  0  0  0  0  0  0  0  0  0
    6.8656    1.4750    0.0000 H   0  0  0  0  0  0  0  0  0  0  0  0
    8.3422   -1.0826    0.0000 H   0  0  0  0  0  0  0  0  0  0  0  0
    8.7407   -0.3923    0.0000 H   0  0  0  0  0  0  0  0  0  0  0  0
    6.1860    1.0826    0.0000 H   0  0  0  0  0  0  0  0  0  0  0  0
    5.7875    0.3923    0.0000 H   0  0  0  0  0  0  0  0  0  0  0  0
    6.8656   -1.4750    0.0000 H   0  0  0  0  0  0  0  0  0  0  0  0
    7.6626   -1.4750    0.0000 H   0  0  0  0  0  0  0  0  0  0  0  0
    9.3947    1.4750    0.0000 H   0  0  0  0  0  0  0  0  0  0  0  0
    8.5976    1.4750    0.0000 H   0  0  0  0  0  0  0  0  0  0  0  0
    9.4637    0.0251    0.0000 H   0  0  0  0  0  0  0  0  0  0  0  0
   10.2607    0.0251    0.0000 H   0  0  0  0  0  0  0  0  0  0  0  0
   11.1267    1.4750    0.0000 H   0  0  0  0  0  0  0  0  0  0  0  0
   10.3297    1.4750    0.0000 H   0  0  0  0  0  0  0  0  0  0  0  0
   11.1957    0.0251    0.0000 H   0  0  0  0  0  0  0  0  0  0  0  0
   11.9928    0.0251    0.0000 H   0  0  0  0  0  0  0  0  0  0  0  0
    4.6660    0.1200    0.0000 H   0  0  0  0  0  0  0  0  0  0  0  0
    6.0690   -2.3100    0.0000 H   0  0  0  0  0  0  0  0  0  0  0  0
   12.4603    1.6200    0.0000 H   0  0  0  0  0  0  0  0  0  0  0  0
    2.9132    0.1546    0.0000 H   0  0  0  0  0  0  0  0  0  0  0  0
    2.9132   -3.1546    0.0000 H   0  0  0  0  0  0  0  0  0  0  0  0
    1.4643   -0.6671    0.0000 H   0  0  0  0  0  0  0  0  0  0  0  0
    1.4643   -2.3329    0.0000 H   0  0  0  0  0  0  0  0  0  0  0  0
   15.0583   -0.1200    0.0000 H   0  0  0  0  0  0  0  0  0  0  0  0
   15.0583    3.1200    0.0000 H   0  0  0  0  0  0  0  0  0  0  0  0
   16.8111   -0.1546    0.0000 H   0  0  0  0  0  0  0  0  0  0  0  0
   16.8111    3.1546    0.0000 H   0  0  0  0  0  0  0  0  0  0  0  0
   18.2601    0.6671    0.0000 H   0  0  0  0  0  0  0  0  0  0  0  0
   18.2601    2.3329    0.0000 H   0  0  0  0  0  0  0  0  0  0  0  0
  1 22  2  0  0  0  0
  2  7  1  0  0  0  0
  2  8  1  0  0  0  0
  2 11  1  0  0  0  0
  3  9  1  0  0  0  0
  3 10  1  0  0  0  0
  3 13  1  0  0  0  0
  4 15  1  0  0  0  0
  4 22  1  0  0  0  0
  4 52  1  0  0  0  0
  5 17  2  0  0  0  0
  5 19  1  0  0  0  0
  6 25  1  0  0  0  0
  6 29  2  0  0  0  0
  7  9  1  0  0  0  0
  7 34  1  0  0  0  0
  7 35  1  0  0  0  0
  8 10  1  0  0  0  0
  8 36  1  0  0  0  0
  8 37  1  0  0  0  0
  9 38  1  0  0  0  0
  9 39  1  0  0  0  0
 10 40  1  0  0  0  0
 10 41  1  0  0  0  0
 11 12  1  0  0  0  0
 11 42  1  0  0  0  0
 11 43  1  0  0  0  0
 12 14  1  0  0  0  0
 12 44  1  0  0  0  0
 12 45  1  0  0  0  0
 13 16  2  0  0  0  0
 13 17  1  0  0  0  0
 14 15  1  0  0  0  0
 14 46  1  0  0  0  0
 14 47  1  0  0  0  0
 15 48  1  0  0  0  0
 15 49  1  0  0  0  0
 16 18  1  0  0  0  0
 16 50  1  0  0  0  0
 17 51  1  0  0  0  0
 18 19  1  0  0  0  0
 18 20  2  0  0  0  0
 19 21  2  0  0  0  0
 20 23  1  0  0  0  0
 20 53  1  0  0  0  0
 21 24  1  0  0  0  0
 21 54  1  0  0  0  0
 22 25  1  0  0  0  0
 23 24  2  0  0  0  0
 23 55  1  0  0  0  0
 24 56  1  0  0  0  0
 25 26  2  0  0  0  0
 26 27  1  0  0  0  0
 26 57  1  0  0  0  0
 27 28  1  0  0  0  0
 27 30  2  0  0  0  0
 28 29  1  0  0  0  0
 28 31  2  0  0  0  0
 29 58  1  0  0  0  0
 30 32  1  0  0  0  0
 30 59  1  0  0  0  0
 31 33  1  0  0  0  0
 31 60  1  0  0  0  0
 32 33  2  0  0  0  0
 32 61  1  0  0  0  0
 33 62  1  0  0  0  0
M  END
> <PUBCHEM_COMPOUND_CID>
57873513

> <PUBCHEM_COMPOUND_CANONICALIZED>
1

> <PUBCHEM_CACTVS_COMPLEXITY>
622

> <PUBCHEM_CACTVS_HBOND_ACCEPTOR>
5

> <PUBCHEM_CACTVS_HBOND_DONOR>
1

> <PUBCHEM_CACTVS_ROTATABLE_BOND>
7

> <PUBCHEM_CACTVS_SUBSKEYS>
AAADceB7oAAAAAAAAAAAAAAAAAAAAAAAAAA8eLECAAAAAACx/gAAHgAQAAAADAjBngQ8wPPIEACoAzV3VACCgCA3EiAI2KG4dNgIYPLAlbGUIQhglgDIyYcYiICOgAAAAAASAAAAAAAAACQAAAAAAAAAAA==

> <PUBCHEM_IUPAC_OPENEYE_NAME>
N-[4-[4-(3-quinolyl)piperazin-1-yl]butyl]isoquinoline-3-carboxamide

> <PUBCHEM_IUPAC_CAS_NAME>
N-[4-[4-(3-quinolinyl)-1-piperazinyl]butyl]-3-isoquinolinecarboxamide

> <PUBCHEM_IUPAC_NAME_MARKUP>
<I>N</I>-[4-(4-quinolin-3-ylpiperazin-1-yl)butyl]isoquinoline-3-carboxamide

> <PUBCHEM_IUPAC_NAME>
N-[4-(4-quinolin-3-ylpiperazin-1-yl)butyl]isoquinoline-3-carboxamide

> <PUBCHEM_IUPAC_SYSTEMATIC_NAME>
N-[4-(4-quinolin-3-ylpiperazin-1-yl)butyl]isoquinoline-3-carboxamide

> <PUBCHEM_IUPAC_TRADITIONAL_NAME>
N-[4-[4-(3-quinolyl)piperazino]butyl]isoquinoline-3-carboxamide

> <PUBCHEM_IUPAC_INCHI>
InChI=1S/C27H29N5O/c33-27(26-18-21-7-1-2-9-23(21)19-29-26)28-11-5-6-12-31-13-15-32(16-14-31)24-17-22-8-3-4-10-25(22)30-20-24/h1-4,7-10,17-20H,5-6,11-16H2,(H,28,33)

> <PUBCHEM_IUPAC_INCHIKEY>
YPKNRVSBLNMPFJ-UHFFFAOYSA-N

> <PUBCHEM_XLOGP3_AA>
4.3

> <PUBCHEM_EXACT_MASS>
439.23721057

> <PUBCHEM_MOLECULAR_FORMULA>
C27H29N5O

> <PUBCHEM_MOLECULAR_WEIGHT>
439.6

> <PUBCHEM_OPENEYE_CAN_SMILES>
C1CN(CCN1CCCCNC(=O)C2=CC3=CC=CC=C3C=N2)C4=CC5=CC=CC=C5N=C4

> <PUBCHEM_OPENEYE_ISO_SMILES>
C1CN(CCN1CCCCNC(=O)C2=CC3=CC=CC=C3C=N2)C4=CC5=CC=CC=C5N=C4

> <PUBCHEM_CACTVS_TPSA>
61.4

> <PUBCHEM_MONOISOTOPIC_WEIGHT>
439.23721057

> <PUBCHEM_TOTAL_CHARGE>
0

> <PUBCHEM_HEAVY_ATOM_COUNT>
33

> <PUBCHEM_ATOM_DEF_STEREO_COUNT>
0

> <PUBCHEM_ATOM_UDEF_STEREO_COUNT>
0

> <PUBCHEM_BOND_DEF_STEREO_COUNT>
0

> <PUBCHEM_BOND_UDEF_STEREO_COUNT>
0

> <PUBCHEM_ISOTOPIC_ATOM_COUNT>
0

> <PUBCHEM_COMPONENT_COUNT>
1

> <PUBCHEM_CACTVS_TAUTO_COUNT>
-1

> <PUBCHEM_COORDINATE_TYPE>
1
5
255

> <PUBCHEM_BONDANNOTATIONS>
13  16  8
13  17  8
16  18  8
18  19  8
18  20  8
19  21  8
20  23  8
21  24  8
23  24  8
25  26  8
26  27  8
27  28  8
27  30  8
28  29  8
28  31  8
30  32  8
31  33  8
32  33  8
5  17  8
5  19  8
6  25  8
6  29  8

$$$$
