10642428
  -OEChem-09292322142D

 57 60  0     1  0  0  0  0  0999 V2000
    2.8660   -1.2500    0.0000 N   0  0  3  0  0  0  0  0  0  0  0  0
    3.7320    4.2500    0.0000 N   0  0  0  0  0  0  0  0  0  0  0  0
    5.4641    4.2500    0.0000 N   0  0  0  0  0  0  0  0  0  0  0  0
    4.5981    5.7500    0.0000 N   0  0  0  0  0  0  0  0  0  0  0  0
    3.7320    1.2500    0.0000 C   0  0  0  0  0  0  0  0  0  0  0  0
    4.5981    1.7500    0.0000 C   0  0  0  0  0  0  0  0  0  0  0  0
    2.8660    1.7500    0.0000 C   0  0  0  0  0  0  0  0  0  0  0  0
    3.7320    3.2500    0.0000 C   0  0  0  0  0  0  0  0  0  0  0  0
    4.5981    2.7500    0.0000 C   0  0  0  0  0  0  0  0  0  0  0  0
    2.8660    2.7500    0.0000 C   0  0  0  0  0  0  0  0  0  0  0  0
    3.7320    0.2500    0.0000 C   0  0  0  0  0  0  0  0  0  0  0  0
    2.8660   -0.2500    0.0000 C   0  0  0  0  0  0  0  0  0  0  0  0
    2.0000   -1.7500    0.0000 C   0  0  0  0  0  0  0  0  0  0  0  0
    3.7320   -1.7500    0.0000 C   0  0  0  0  0  0  0  0  0  0  0  0
    2.0000   -2.7500    0.0000 C   0  0  0  0  0  0  0  0  0  0  0  0
    2.8660   -3.2500    0.0000 C   0  0  0  0  0  0  0  0  0  0  0  0
    3.7320   -2.7500    0.0000 C   0  0  0  0  0  0  0  0  0  0  0  0
    4.5981    4.7500    0.0000 C   0  0  0  0  0  0  0  0  0  0  0  0
    2.8660   -4.2500    0.0000 C   0  0  0  0  0  0  0  0  0  0  0  0
    2.0000   -4.7500    0.0000 C   0  0  0  0  0  0  0  0  0  0  0  0
    3.7320   -4.7500    0.0000 C   0  0  0  0  0  0  0  0  0  0  0  0
    6.3301    4.7500    0.0000 C   0  0  0  0  0  0  0  0  0  0  0  0
    5.4641    6.2500    0.0000 C   0  0  0  0  0  0  0  0  0  0  0  0
    2.0000   -5.7500    0.0000 C   0  0  0  0  0  0  0  0  0  0  0  0
    3.7320   -5.7500    0.0000 C   0  0  0  0  0  0  0  0  0  0  0  0
    6.3301    5.7500    0.0000 C   0  0  0  0  0  0  0  0  0  0  0  0
    2.8660   -6.2500    0.0000 C   0  0  0  0  0  0  0  0  0  0  0  0
    4.2690    0.9400    0.0000 H   0  0  0  0  0  0  0  0  0  0  0  0
    4.8101    1.1674    0.0000 H   0  0  0  0  0  0  0  0  0  0  0  0
    5.2087    1.8577    0.0000 H   0  0  0  0  0  0  0  0  0  0  0  0
    2.2554    1.8577    0.0000 H   0  0  0  0  0  0  0  0  0  0  0  0
    2.6540    1.1674    0.0000 H   0  0  0  0  0  0  0  0  0  0  0  0
    4.2690    3.5600    0.0000 H   0  0  0  0  0  0  0  0  0  0  0  0
    5.2087    2.6423    0.0000 H   0  0  0  0  0  0  0  0  0  0  0  0
    4.8101    3.3326    0.0000 H   0  0  0  0  0  0  0  0  0  0  0  0
    2.6540    3.3326    0.0000 H   0  0  0  0  0  0  0  0  0  0  0  0
    2.2554    2.6423    0.0000 H   0  0  0  0  0  0  0  0  0  0  0  0
    3.9441   -0.3326    0.0000 H   0  0  0  0  0  0  0  0  0  0  0  0
    4.3426    0.3577    0.0000 H   0  0  0  0  0  0  0  0  0  0  0  0
    2.6540    0.3326    0.0000 H   0  0  0  0  0  0  0  0  0  0  0  0
    2.2554   -0.3577    0.0000 H   0  0  0  0  0  0  0  0  0  0  0  0
    3.1951    4.5600    0.0000 H   0  0  0  0  0  0  0  0  0  0  0  0
    1.7880   -1.1674    0.0000 H   0  0  0  0  0  0  0  0  0  0  0  0
    1.3894   -1.8577    0.0000 H   0  0  0  0  0  0  0  0  0  0  0  0
    4.3426   -1.8577    0.0000 H   0  0  0  0  0  0  0  0  0  0  0  0
    3.9441   -1.1674    0.0000 H   0  0  0  0  0  0  0  0  0  0  0  0
    1.3894   -2.6423    0.0000 H   0  0  0  0  0  0  0  0  0  0  0  0
    1.7880   -3.3326    0.0000 H   0  0  0  0  0  0  0  0  0  0  0  0
    4.2690   -3.0600    0.0000 H   0  0  0  0  0  0  0  0  0  0  0  0
    1.4631   -4.4400    0.0000 H   0  0  0  0  0  0  0  0  0  0  0  0
    4.2690   -4.4400    0.0000 H   0  0  0  0  0  0  0  0  0  0  0  0
    6.8671    4.4400    0.0000 H   0  0  0  0  0  0  0  0  0  0  0  0
    5.4641    6.8700    0.0000 H   0  0  0  0  0  0  0  0  0  0  0  0
    1.4631   -6.0600    0.0000 H   0  0  0  0  0  0  0  0  0  0  0  0
    4.2690   -6.0600    0.0000 H   0  0  0  0  0  0  0  0  0  0  0  0
    6.8671    6.0600    0.0000 H   0  0  0  0  0  0  0  0  0  0  0  0
    2.8660   -6.8700    0.0000 H   0  0  0  0  0  0  0  0  0  0  0  0
  1 12  1  0  0  0  0
  1 13  1  0  0  0  0
  1 14  1  0  0  0  0
  2  8  1  0  0  0  0
  2 18  1  0  0  0  0
  2 42  1  0  0  0  0
  3 18  2  0  0  0  0
  3 22  1  0  0  0  0
  4 18  1  0  0  0  0
  4 23  2  0  0  0  0
  5  6  1  0  0  0  0
  5  7  1  0  0  0  0
  5 11  1  0  0  0  0
  5 28  1  0  0  0  0
  6  9  1  0  0  0  0
  6 29  1  0  0  0  0
  6 30  1  0  0  0  0
  7 10  1  0  0  0  0
  7 31  1  0  0  0  0
  7 32  1  0  0  0  0
  8  9  1  0  0  0  0
  8 10  1  0  0  0  0
  8 33  1  0  0  0  0
  9 34  1  0  0  0  0
  9 35  1  0  0  0  0
 10 36  1  0  0  0  0
 10 37  1  0  0  0  0
 11 12  1  0  0  0  0
 11 38  1  0  0  0  0
 11 39  1  0  0  0  0
 12 40  1  0  0  0  0
 12 41  1  0  0  0  0
 13 15  1  0  0  0  0
 13 43  1  0  0  0  0
 13 44  1  0  0  0  0
 14 17  1  0  0  0  0
 14 45  1  0  0  0  0
 14 46  1  0  0  0  0
 15 16  1  0  0  0  0
 15 47  1  0  0  0  0
 15 48  1  0  0  0  0
 16 17  2  0  0  0  0
 16 19  1  0  0  0  0
 17 49  1  0  0  0  0
 19 20  2  0  0  0  0
 19 21  1  0  0  0  0
 20 24  1  0  0  0  0
 20 50  1  0  0  0  0
 21 25  2  0  0  0  0
 21 51  1  0  0  0  0
 22 26  2  0  0  0  0
 22 52  1  0  0  0  0
 23 26  1  0  0  0  0
 23 53  1  0  0  0  0
 24 27  2  0  0  0  0
 24 54  1  0  0  0  0
 25 27  1  0  0  0  0
 25 55  1  0  0  0  0
 26 56  1  0  0  0  0
 27 57  1  0  0  0  0
M  END
> <PUBCHEM_COMPOUND_CID>
10642428

> <PUBCHEM_COMPOUND_CANONICALIZED>
1

> <PUBCHEM_CACTVS_COMPLEXITY>
457

> <PUBCHEM_CACTVS_HBOND_ACCEPTOR>
4

> <PUBCHEM_CACTVS_HBOND_DONOR>
1

> <PUBCHEM_CACTVS_ROTATABLE_BOND>
6

> <PUBCHEM_CACTVS_SUBSKEYS>
AAADceB7gAAAAAAAAAAAAAAAAAAAAAAAAAA8YIEAAAAAAAABwAAAHAAQAAAADSjBGgQ9kJfIEACgAjBnZACCgCkxAqAJ2KA4ZJiIKKLA2VCEJAgokALIiCcQgIAOAAAAAAAAAAAQAAAAAAAAAAAAAAAAAA==

> <PUBCHEM_IUPAC_OPENEYE_NAME>
N-[4-[2-(4-phenyl-3,6-dihydro-2H-pyridin-1-yl)ethyl]cyclohexyl]pyrimidin-2-amine

> <PUBCHEM_IUPAC_CAS_NAME>
N-[4-[2-(4-phenyl-3,6-dihydro-2H-pyridin-1-yl)ethyl]cyclohexyl]-2-pyrimidinamine

> <PUBCHEM_IUPAC_NAME_MARKUP>
<I>N</I>-[4-[2-(4-phenyl-3,6-dihydro-2<I>H</I>-pyridin-1-yl)ethyl]cyclohexyl]pyrimidin-2-amine

> <PUBCHEM_IUPAC_NAME>
N-[4-[2-(4-phenyl-3,6-dihydro-2H-pyridin-1-yl)ethyl]cyclohexyl]pyrimidin-2-amine

> <PUBCHEM_IUPAC_SYSTEMATIC_NAME>
N-[4-[2-(4-phenyl-3,6-dihydro-2H-pyridin-1-yl)ethyl]cyclohexyl]pyrimidin-2-amine

> <PUBCHEM_IUPAC_TRADITIONAL_NAME>
[4-[2-(4-phenyl-3,6-dihydro-2H-pyridin-1-yl)ethyl]cyclohexyl]-(2-pyrimidyl)amine

> <PUBCHEM_IUPAC_INCHI>
InChI=1S/C23H30N4/c1-2-5-20(6-3-1)21-12-17-27(18-13-21)16-11-19-7-9-22(10-8-19)26-23-24-14-4-15-25-23/h1-6,12,14-15,19,22H,7-11,13,16-18H2,(H,24,25,26)

> <PUBCHEM_IUPAC_INCHIKEY>
BDHDIEVXYUODTG-UHFFFAOYSA-N

> <PUBCHEM_XLOGP3_AA>
4.3

> <PUBCHEM_EXACT_MASS>
362.24704697

> <PUBCHEM_MOLECULAR_FORMULA>
C23H30N4

> <PUBCHEM_MOLECULAR_WEIGHT>
362.5

> <PUBCHEM_OPENEYE_CAN_SMILES>
C1CC(CCC1CCN2CCC(=CC2)C3=CC=CC=C3)NC4=NC=CC=N4

> <PUBCHEM_OPENEYE_ISO_SMILES>
C1CC(CCC1CCN2CCC(=CC2)C3=CC=CC=C3)NC4=NC=CC=N4

> <PUBCHEM_CACTVS_TPSA>
41

> <PUBCHEM_MONOISOTOPIC_WEIGHT>
362.24704697

> <PUBCHEM_TOTAL_CHARGE>
0

> <PUBCHEM_HEAVY_ATOM_COUNT>
27

> <PUBCHEM_ATOM_DEF_STEREO_COUNT>
0

> <PUBCHEM_ATOM_UDEF_STEREO_COUNT>
0

> <PUBCHEM_BOND_DEF_STEREO_COUNT>
0

> <PUBCHEM_BOND_UDEF_STEREO_COUNT>
0

> <PUBCHEM_ISOTOPIC_ATOM_COUNT>
0

> <PUBCHEM_COMPONENT_COUNT>
1

> <PUBCHEM_CACTVS_TAUTO_COUNT>
-1

> <PUBCHEM_COORDINATE_TYPE>
1
5
255

> <PUBCHEM_BONDANNOTATIONS>
19  20  8
19  21  8
20  24  8
21  25  8
22  26  8
23  26  8
24  27  8
25  27  8
3  18  8
3  22  8
4  18  8
4  23  8

$$$$
