45269020
  -OEChem-09292322282D

 46 48  0     0  0  0  0  0  0999 V2000
    2.0000   -4.1626    0.0000 I   0  0  0  0  0  0  0  0  0  0  0  0
    6.5306    5.2852    0.0000 F   0  0  0  0  0  0  0  0  0  0  0  0
    7.5306    4.2852    0.0000 F   0  0  0  0  0  0  0  0  0  0  0  0
    5.5306    4.2852    0.0000 F   0  0  0  0  0  0  0  0  0  0  0  0
    3.9045   -1.4936    0.0000 O   0  0  0  0  0  0  0  0  0  0  0  0
    6.5306    1.2852    0.0000 N   0  0  0  0  0  0  0  0  0  0  0  0
    5.6646   -1.2148    0.0000 N   0  0  0  0  0  0  0  0  0  0  0  0
    5.1646   -2.7536    0.0000 N   0  0  0  0  0  0  0  0  0  0  0  0
    6.5306    3.2852    0.0000 C   0  0  0  0  0  0  0  0  0  0  0  0
    5.6646    2.7852    0.0000 C   0  0  0  0  0  0  0  0  0  0  0  0
    7.3967    2.7852    0.0000 C   0  0  0  0  0  0  0  0  0  0  0  0
    5.6646    1.7852    0.0000 C   0  0  0  0  0  0  0  0  0  0  0  0
    7.3967    1.7852    0.0000 C   0  0  0  0  0  0  0  0  0  0  0  0
    6.5306    0.2852    0.0000 C   0  0  0  0  0  0  0  0  0  0  0  0
    5.6646   -0.2148    0.0000 C   0  0  0  0  0  0  0  0  0  0  0  0
    6.5306    4.2852    0.0000 C   0  0  0  0  0  0  0  0  0  0  0  0
    6.4736   -1.8026    0.0000 C   0  0  0  0  0  0  0  0  0  0  0  0
    6.1646   -2.7536    0.0000 C   0  0  0  0  0  0  0  0  0  0  0  0
    4.8556   -1.8026    0.0000 C   0  0  0  0  0  0  0  0  0  0  0  0
    4.5768   -3.5626    0.0000 C   0  0  0  0  0  0  0  0  0  0  0  0
    3.5823   -3.4581    0.0000 C   0  0  0  0  0  0  0  0  0  0  0  0
    4.9836   -4.4762    0.0000 C   0  0  0  0  0  0  0  0  0  0  0  0
    2.9945   -4.2671    0.0000 C   0  0  0  0  0  0  0  0  0  0  0  0
    4.3958   -5.2852    0.0000 C   0  0  0  0  0  0  0  0  0  0  0  0
    3.4013   -5.1807    0.0000 C   0  0  0  0  0  0  0  0  0  0  0  0
    7.0676    3.5952    0.0000 H   0  0  0  0  0  0  0  0  0  0  0  0
    5.4526    3.3678    0.0000 H   0  0  0  0  0  0  0  0  0  0  0  0
    5.0540    2.6776    0.0000 H   0  0  0  0  0  0  0  0  0  0  0  0
    8.0073    2.6776    0.0000 H   0  0  0  0  0  0  0  0  0  0  0  0
    7.6087    3.3678    0.0000 H   0  0  0  0  0  0  0  0  0  0  0  0
    5.0540    1.8929    0.0000 H   0  0  0  0  0  0  0  0  0  0  0  0
    5.4526    1.2026    0.0000 H   0  0  0  0  0  0  0  0  0  0  0  0
    7.6087    1.2026    0.0000 H   0  0  0  0  0  0  0  0  0  0  0  0
    8.0073    1.8929    0.0000 H   0  0  0  0  0  0  0  0  0  0  0  0
    6.7427   -0.2974    0.0000 H   0  0  0  0  0  0  0  0  0  0  0  0
    7.1412    0.3929    0.0000 H   0  0  0  0  0  0  0  0  0  0  0  0
    5.4526    0.3678    0.0000 H   0  0  0  0  0  0  0  0  0  0  0  0
    5.0540   -0.3225    0.0000 H   0  0  0  0  0  0  0  0  0  0  0  0
    7.0400   -2.0548    0.0000 H   0  0  0  0  0  0  0  0  0  0  0  0
    6.7836   -1.2656    0.0000 H   0  0  0  0  0  0  0  0  0  0  0  0
    6.0998   -3.3702    0.0000 H   0  0  0  0  0  0  0  0  0  0  0  0
    6.7711   -2.8825    0.0000 H   0  0  0  0  0  0  0  0  0  0  0  0
    3.3301   -2.8917    0.0000 H   0  0  0  0  0  0  0  0  0  0  0  0
    5.6002   -4.5410    0.0000 H   0  0  0  0  0  0  0  0  0  0  0  0
    4.6480   -5.8516    0.0000 H   0  0  0  0  0  0  0  0  0  0  0  0
    3.0368   -5.6823    0.0000 H   0  0  0  0  0  0  0  0  0  0  0  0
  1 23  1  0  0  0  0
  2 16  1  0  0  0  0
  3 16  1  0  0  0  0
  4 16  1  0  0  0  0
  5 19  2  0  0  0  0
  6 12  1  0  0  0  0
  6 13  1  0  0  0  0
  6 14  1  0  0  0  0
  7 15  1  0  0  0  0
  7 17  1  0  0  0  0
  7 19  1  0  0  0  0
  8 18  1  0  0  0  0
  8 19  1  0  0  0  0
  8 20  1  0  0  0  0
  9 10  1  0  0  0  0
  9 11  1  0  0  0  0
  9 16  1  0  0  0  0
  9 26  1  0  0  0  0
 10 12  1  0  0  0  0
 10 27  1  0  0  0  0
 10 28  1  0  0  0  0
 11 13  1  0  0  0  0
 11 29  1  0  0  0  0
 11 30  1  0  0  0  0
 12 31  1  0  0  0  0
 12 32  1  0  0  0  0
 13 33  1  0  0  0  0
 13 34  1  0  0  0  0
 14 15  1  0  0  0  0
 14 35  1  0  0  0  0
 14 36  1  0  0  0  0
 15 37  1  0  0  0  0
 15 38  1  0  0  0  0
 17 18  1  0  0  0  0
 17 39  1  0  0  0  0
 17 40  1  0  0  0  0
 18 41  1  0  0  0  0
 18 42  1  0  0  0  0
 20 21  2  0  0  0  0
 20 22  1  0  0  0  0
 21 23  1  0  0  0  0
 21 43  1  0  0  0  0
 22 24  2  0  0  0  0
 22 44  1  0  0  0  0
 23 25  2  0  0  0  0
 24 25  1  0  0  0  0
 24 45  1  0  0  0  0
 25 46  1  0  0  0  0
M  END
> <PUBCHEM_COMPOUND_CID>
45269020

> <PUBCHEM_COMPOUND_CANONICALIZED>
1

> <PUBCHEM_CACTVS_COMPLEXITY>
469

> <PUBCHEM_CACTVS_HBOND_ACCEPTOR>
5

> <PUBCHEM_CACTVS_HBOND_DONOR>
0

> <PUBCHEM_CACTVS_ROTATABLE_BOND>
4

> <PUBCHEM_CACTVS_SUBSKEYS>
AAADceB7IYAAAgAAAAAAAAAAAAAAAWAAAAA8QAAAAAAAAAABAAAAHwAgAAAADQjDEBQxwIMAAACIACRCUACCAAAhAgAIiAAIZIiIYCLAkZGUIAhohgLIyCcQAAAKAAAAAAAAAAAAAAAAAAAAAAAAAAAAAA==

> <PUBCHEM_IUPAC_OPENEYE_NAME>
1-(3-iodophenyl)-3-[2-[4-(trifluoromethyl)-1-piperidyl]ethyl]imidazolidin-2-one

> <PUBCHEM_IUPAC_CAS_NAME>
1-(3-iodophenyl)-3-[2-[4-(trifluoromethyl)-1-piperidinyl]ethyl]-2-imidazolidinone

> <PUBCHEM_IUPAC_NAME_MARKUP>
1-(3-iodophenyl)-3-[2-[4-(trifluoromethyl)piperidin-1-yl]ethyl]imidazolidin-2-one

> <PUBCHEM_IUPAC_NAME>
1-(3-iodophenyl)-3-[2-[4-(trifluoromethyl)piperidin-1-yl]ethyl]imidazolidin-2-one

> <PUBCHEM_IUPAC_SYSTEMATIC_NAME>
1-(3-iodanylphenyl)-3-[2-[4-(trifluoromethyl)piperidin-1-yl]ethyl]imidazolidin-2-one

> <PUBCHEM_IUPAC_TRADITIONAL_NAME>
1-(3-iodophenyl)-3-[2-[4-(trifluoromethyl)piperidino]ethyl]-2-imidazolidinone

> <PUBCHEM_IUPAC_INCHI>
InChI=1S/C17H21F3IN3O/c18-17(19,20)13-4-6-22(7-5-13)8-9-23-10-11-24(16(23)25)15-3-1-2-14(21)12-15/h1-3,12-13H,4-11H2

> <PUBCHEM_IUPAC_INCHIKEY>
XZXRXUCWJOQZBL-UHFFFAOYSA-N

> <PUBCHEM_XLOGP3_AA>
3.6

> <PUBCHEM_EXACT_MASS>
467.06814

> <PUBCHEM_MOLECULAR_FORMULA>
C17H21F3IN3O

> <PUBCHEM_MOLECULAR_WEIGHT>
467.27

> <PUBCHEM_OPENEYE_CAN_SMILES>
C1CN(CCC1C(F)(F)F)CCN2CCN(C2=O)C3=CC(=CC=C3)I

> <PUBCHEM_OPENEYE_ISO_SMILES>
C1CN(CCC1C(F)(F)F)CCN2CCN(C2=O)C3=CC(=CC=C3)I

> <PUBCHEM_CACTVS_TPSA>
26.8

> <PUBCHEM_MONOISOTOPIC_WEIGHT>
467.06814

> <PUBCHEM_TOTAL_CHARGE>
0

> <PUBCHEM_HEAVY_ATOM_COUNT>
25

> <PUBCHEM_ATOM_DEF_STEREO_COUNT>
0

> <PUBCHEM_ATOM_UDEF_STEREO_COUNT>
0

> <PUBCHEM_BOND_DEF_STEREO_COUNT>
0

> <PUBCHEM_BOND_UDEF_STEREO_COUNT>
0

> <PUBCHEM_ISOTOPIC_ATOM_COUNT>
0

> <PUBCHEM_COMPONENT_COUNT>
1

> <PUBCHEM_CACTVS_TAUTO_COUNT>
-1

> <PUBCHEM_COORDINATE_TYPE>
1
5
255

> <PUBCHEM_BONDANNOTATIONS>
20  21  8
20  22  8
21  23  8
22  24  8
23  25  8
24  25  8

$$$$
