164628744
  -OEChem-09292322432D

 65 69  0     0  0  0  0  0  0999 V2000
    2.0000   -6.6055    0.0000 F   0  0  0  0  0  0  0  0  0  0  0  0
   11.6330    2.6778    0.0000 F   0  0  0  0  0  0  0  0  0  0  0  0
    5.5443   -6.4102    0.0000 O   0  0  0  0  0  0  0  0  0  0  0  0
    9.0546    0.3643    0.0000 O   0  0  0  0  0  0  0  0  0  0  0  0
    8.2937    6.3993    0.0000 O   0  0  0  0  0  0  0  0  0  0  0  0
    6.4763   -1.9492    0.0000 N   0  0  0  0  0  0  0  0  0  0  0  0
    6.1279   -5.6055    0.0000 N   0  0  0  0  0  0  0  0  0  0  0  0
    9.6294    4.9107    0.0000 N   0  0  0  0  0  0  0  0  0  0  0  0
    5.8550   -3.8502    0.0000 C   0  0  0  0  0  0  0  0  0  0  0  0
    5.1871   -3.1059    0.0000 C   0  0  0  0  0  0  0  0  0  0  0  0
    6.8335   -3.6440    0.0000 C   0  0  0  0  0  0  0  0  0  0  0  0
    5.4978   -2.1554    0.0000 C   0  0  0  0  0  0  0  0  0  0  0  0
    7.1441   -2.6935    0.0000 C   0  0  0  0  0  0  0  0  0  0  0  0
    6.7870   -0.9987    0.0000 C   0  0  0  0  0  0  0  0  0  0  0  0
    5.5443   -4.8008    0.0000 C   0  0  0  0  0  0  0  0  0  0  0  0
    7.7654   -0.7925    0.0000 C   0  0  0  0  0  0  0  0  0  0  0  0
    4.5981   -5.1055    0.0000 C   0  0  0  0  0  0  0  0  0  0  0  0
    8.0761    0.1581    0.0000 C   0  0  0  0  0  0  0  0  0  0  0  0
    4.5981   -6.1055    0.0000 C   0  0  0  0  0  0  0  0  0  0  0  0
    3.7320   -4.6055    0.0000 C   0  0  0  0  0  0  0  0  0  0  0  0
    8.6509    4.7044    0.0000 C   0  0  0  0  0  0  0  0  0  0  0  0
    9.9401    5.8612    0.0000 C   0  0  0  0  0  0  0  0  0  0  0  0
    3.7320   -6.6055    0.0000 C   0  0  0  0  0  0  0  0  0  0  0  0
   10.2973    4.1664    0.0000 C   0  0  0  0  0  0  0  0  0  0  0  0
    2.8660   -5.1055    0.0000 C   0  0  0  0  0  0  0  0  0  0  0  0
    7.9831    5.4488    0.0000 C   0  0  0  0  0  0  0  0  0  0  0  0
    9.2722    6.6055    0.0000 C   0  0  0  0  0  0  0  0  0  0  0  0
    9.9866    3.2158    0.0000 C   0  0  0  0  0  0  0  0  0  0  0  0
    2.8660   -6.1055    0.0000 C   0  0  0  0  0  0  0  0  0  0  0  0
    9.3653    1.3148    0.0000 C   0  0  0  0  0  0  0  0  0  0  0  0
   10.6545    2.4715    0.0000 C   0  0  0  0  0  0  0  0  0  0  0  0
    9.0081    3.0096    0.0000 C   0  0  0  0  0  0  0  0  0  0  0  0
   10.3438    1.5210    0.0000 C   0  0  0  0  0  0  0  0  0  0  0  0
    8.6974    2.0591    0.0000 C   0  0  0  0  0  0  0  0  0  0  0  0
    6.2690   -4.3117    0.0000 H   0  0  0  0  0  0  0  0  0  0  0  0
    4.6402   -2.8139    0.0000 H   0  0  0  0  0  0  0  0  0  0  0  0
    4.8046   -3.5938    0.0000 H   0  0  0  0  0  0  0  0  0  0  0  0
    6.8540   -4.2637    0.0000 H   0  0  0  0  0  0  0  0  0  0  0  0
    7.4473   -3.7314    0.0000 H   0  0  0  0  0  0  0  0  0  0  0  0
    5.4772   -1.5358    0.0000 H   0  0  0  0  0  0  0  0  0  0  0  0
    4.8840   -2.0681    0.0000 H   0  0  0  0  0  0  0  0  0  0  0  0
    7.6910   -2.9855    0.0000 H   0  0  0  0  0  0  0  0  0  0  0  0
    7.5267   -2.2056    0.0000 H   0  0  0  0  0  0  0  0  0  0  0  0
    6.7664   -0.3790    0.0000 H   0  0  0  0  0  0  0  0  0  0  0  0
    6.1731   -0.9113    0.0000 H   0  0  0  0  0  0  0  0  0  0  0  0
    7.7860   -1.4121    0.0000 H   0  0  0  0  0  0  0  0  0  0  0  0
    8.3793   -0.8798    0.0000 H   0  0  0  0  0  0  0  0  0  0  0  0
    8.0556    0.7777    0.0000 H   0  0  0  0  0  0  0  0  0  0  0  0
    7.4623    0.2454    0.0000 H   0  0  0  0  0  0  0  0  0  0  0  0
    3.7320   -3.9855    0.0000 H   0  0  0  0  0  0  0  0  0  0  0  0
    8.1246    4.3768    0.0000 H   0  0  0  0  0  0  0  0  0  0  0  0
    8.8822    4.1292    0.0000 H   0  0  0  0  0  0  0  0  0  0  0  0
   10.4870    5.5692    0.0000 H   0  0  0  0  0  0  0  0  0  0  0  0
   10.3226    6.3491    0.0000 H   0  0  0  0  0  0  0  0  0  0  0  0
   10.8442    3.8744    0.0000 H   0  0  0  0  0  0  0  0  0  0  0  0
   10.6798    4.6543    0.0000 H   0  0  0  0  0  0  0  0  0  0  0  0
    3.7320   -7.2255    0.0000 H   0  0  0  0  0  0  0  0  0  0  0  0
    7.4362    5.7408    0.0000 H   0  0  0  0  0  0  0  0  0  0  0  0
    7.6005    4.9608    0.0000 H   0  0  0  0  0  0  0  0  0  0  0  0
    9.7986    6.9331    0.0000 H   0  0  0  0  0  0  0  0  0  0  0  0
    9.0410    7.1807    0.0000 H   0  0  0  0  0  0  0  0  0  0  0  0
    2.3291   -4.7955    0.0000 H   0  0  0  0  0  0  0  0  0  0  0  0
    8.5940    3.4711    0.0000 H   0  0  0  0  0  0  0  0  0  0  0  0
   10.7578    1.0596    0.0000 H   0  0  0  0  0  0  0  0  0  0  0  0
    8.0908    1.9312    0.0000 H   0  0  0  0  0  0  0  0  0  0  0  0
  1 29  1  0  0  0  0
  2 31  1  0  0  0  0
  3  7  1  0  0  0  0
  3 19  1  0  0  0  0
  4 18  1  0  0  0  0
  4 30  1  0  0  0  0
  5 26  1  0  0  0  0
  5 27  1  0  0  0  0
  6 12  1  0  0  0  0
  6 13  1  0  0  0  0
  6 14  1  0  0  0  0
  7 15  2  0  0  0  0
  8 21  1  0  0  0  0
  8 22  1  0  0  0  0
  8 24  1  0  0  0  0
  9 10  1  0  0  0  0
  9 11  1  0  0  0  0
  9 15  1  0  0  0  0
  9 35  1  0  0  0  0
 10 12  1  0  0  0  0
 10 36  1  0  0  0  0
 10 37  1  0  0  0  0
 11 13  1  0  0  0  0
 11 38  1  0  0  0  0
 11 39  1  0  0  0  0
 12 40  1  0  0  0  0
 12 41  1  0  0  0  0
 13 42  1  0  0  0  0
 13 43  1  0  0  0  0
 14 16  1  0  0  0  0
 14 44  1  0  0  0  0
 14 45  1  0  0  0  0
 15 17  1  0  0  0  0
 16 18  1  0  0  0  0
 16 46  1  0  0  0  0
 16 47  1  0  0  0  0
 17 19  2  0  0  0  0
 17 20  1  0  0  0  0
 18 48  1  0  0  0  0
 18 49  1  0  0  0  0
 19 23  1  0  0  0  0
 20 25  2  0  0  0  0
 20 50  1  0  0  0  0
 21 26  1  0  0  0  0
 21 51  1  0  0  0  0
 21 52  1  0  0  0  0
 22 27  1  0  0  0  0
 22 53  1  0  0  0  0
 22 54  1  0  0  0  0
 23 29  2  0  0  0  0
 23 57  1  0  0  0  0
 24 28  1  0  0  0  0
 24 55  1  0  0  0  0
 24 56  1  0  0  0  0
 25 29  1  0  0  0  0
 25 62  1  0  0  0  0
 26 58  1  0  0  0  0
 26 59  1  0  0  0  0
 27 60  1  0  0  0  0
 27 61  1  0  0  0  0
 28 31  2  0  0  0  0
 28 32  1  0  0  0  0
 30 33  2  0  0  0  0
 30 34  1  0  0  0  0
 31 33  1  0  0  0  0
 32 34  2  0  0  0  0
 32 63  1  0  0  0  0
 33 64  1  0  0  0  0
 34 65  1  0  0  0  0
M  END
> <PUBCHEM_COMPOUND_CID>
164628744

> <PUBCHEM_COMPOUND_CANONICALIZED>
1

> <PUBCHEM_CACTVS_COMPLEXITY>
618

> <PUBCHEM_CACTVS_HBOND_ACCEPTOR>
8

> <PUBCHEM_CACTVS_HBOND_DONOR>
0

> <PUBCHEM_CACTVS_ROTATABLE_BOND>
8

> <PUBCHEM_CACTVS_SUBSKEYS>
AAADceB7MYAAAAAAAAAAAAAAAAAAAWAAAAA8eIEAAAAAAFgB9AAAHwAEAAAADQzhng4whtMQBACpA6RyQgCCCAAkIAAomCE+TNoOJrqEtZuHOajmwBmY6ceY2OKOIAAAAAAIAABAAAAAABAAAAAAAAAAAA==

> <PUBCHEM_IUPAC_OPENEYE_NAME>
6-fluoro-3-[1-[3-[3-fluoro-4-(morpholinomethyl)phenoxy]propyl]-4-piperidyl]-1,2-benzoxazole

> <PUBCHEM_IUPAC_CAS_NAME>
6-fluoro-3-[1-[3-[3-fluoro-4-(4-morpholinylmethyl)phenoxy]propyl]-4-piperidinyl]-1,2-benzoxazole

> <PUBCHEM_IUPAC_NAME_MARKUP>
6-fluoro-3-[1-[3-[3-fluoro-4-(morpholin-4-ylmethyl)phenoxy]propyl]piperidin-4-yl]-1,2-benzoxazole

> <PUBCHEM_IUPAC_NAME>
6-fluoro-3-[1-[3-[3-fluoro-4-(morpholin-4-ylmethyl)phenoxy]propyl]piperidin-4-yl]-1,2-benzoxazole

> <PUBCHEM_IUPAC_SYSTEMATIC_NAME>
6-fluoranyl-3-[1-[3-[3-fluoranyl-4-(morpholin-4-ylmethyl)phenoxy]propyl]piperidin-4-yl]-1,2-benzoxazole

> <PUBCHEM_IUPAC_TRADITIONAL_NAME>
6-fluoro-3-[1-[3-[3-fluoro-4-(morpholinomethyl)phenoxy]propyl]-4-piperidyl]indoxazene

> <PUBCHEM_IUPAC_INCHI>
InChI=1S/C26H31F2N3O3/c27-21-3-5-23-25(16-21)34-29-26(23)19-6-9-30(10-7-19)8-1-13-33-22-4-2-20(24(28)17-22)18-31-11-14-32-15-12-31/h2-5,16-17,19H,1,6-15,18H2

> <PUBCHEM_IUPAC_INCHIKEY>
KBVUBEVDDDEKLM-UHFFFAOYSA-N

> <PUBCHEM_XLOGP3_AA>
4

> <PUBCHEM_EXACT_MASS>
471.23334818

> <PUBCHEM_MOLECULAR_FORMULA>
C26H31F2N3O3

> <PUBCHEM_MOLECULAR_WEIGHT>
471.5

> <PUBCHEM_OPENEYE_CAN_SMILES>
C1CN(CCC1C2=NOC3=C2C=CC(=C3)F)CCCOC4=CC(=C(C=C4)CN5CCOCC5)F

> <PUBCHEM_OPENEYE_ISO_SMILES>
C1CN(CCC1C2=NOC3=C2C=CC(=C3)F)CCCOC4=CC(=C(C=C4)CN5CCOCC5)F

> <PUBCHEM_CACTVS_TPSA>
51

> <PUBCHEM_MONOISOTOPIC_WEIGHT>
471.23334818

> <PUBCHEM_TOTAL_CHARGE>
0

> <PUBCHEM_HEAVY_ATOM_COUNT>
34

> <PUBCHEM_ATOM_DEF_STEREO_COUNT>
0

> <PUBCHEM_ATOM_UDEF_STEREO_COUNT>
0

> <PUBCHEM_BOND_DEF_STEREO_COUNT>
0

> <PUBCHEM_BOND_UDEF_STEREO_COUNT>
0

> <PUBCHEM_ISOTOPIC_ATOM_COUNT>
0

> <PUBCHEM_COMPONENT_COUNT>
1

> <PUBCHEM_CACTVS_TAUTO_COUNT>
-1

> <PUBCHEM_COORDINATE_TYPE>
1
5
255

> <PUBCHEM_BONDANNOTATIONS>
15  17  8
17  19  8
17  20  8
19  23  8
20  25  8
23  29  8
25  29  8
28  31  8
28  32  8
3  19  8
3  7  8
30  33  8
30  34  8
31  33  8
32  34  8
7  15  8

$$$$
