57325596
  -OEChem-09292322072D

126133  0     0  0  0  0  0  0999 V2000
    8.7204    7.8270    0.0000 Cl  0  0  0  0  0  0  0  0  0  0  0  0
   15.6485   -7.8271    0.0000 Cl  0  0  0  0  0  0  0  0  0  0  0  0
    6.6150    5.5000    0.0000 O   0  0  0  0  0  0  0  0  0  0  0  0
   10.0791   -5.5000    0.0000 O   0  0  0  0  0  0  0  0  0  0  0  0
    3.9491    9.5916    0.0000 N   0  0  0  0  0  0  0  0  0  0  0  0
   10.8772   -9.5916    0.0000 N   0  0  0  0  0  0  0  0  0  0  0  0
    3.0814   11.3936    0.0000 N   0  0  0  0  0  0  0  0  0  0  0  0
   10.0094  -11.3936    0.0000 N   0  0  0  0  0  0  0  0  0  0  0  0
    4.8830    6.5000    0.0000 N   0  0  0  0  0  0  0  0  0  0  0  0
   11.8111   -6.5000    0.0000 N   0  0  0  0  0  0  0  0  0  0  0  0
    5.3830    8.6906    0.0000 N   0  0  0  0  0  0  0  0  0  0  0  0
   12.3111   -8.6907    0.0000 N   0  0  0  0  0  0  0  0  0  0  0  0
    4.8830    5.5000    0.0000 N   0  0  0  0  0  0  0  0  0  0  0  0
   11.8111   -5.5000    0.0000 N   0  0  0  0  0  0  0  0  0  0  0  0
    2.9519    9.6664    0.0000 C   0  0  0  0  0  0  0  0  0  0  0  0
    4.5125   10.4179    0.0000 C   0  0  0  0  0  0  0  0  0  0  0  0
    9.8800   -9.6664    0.0000 C   0  0  0  0  0  0  0  0  0  0  0  0
   11.4405  -10.4179    0.0000 C   0  0  0  0  0  0  0  0  0  0  0  0
    2.5180   10.5673    0.0000 C   0  0  0  0  0  0  0  0  0  0  0  0
    4.0786   11.3188    0.0000 C   0  0  0  0  0  0  0  0  0  0  0  0
    9.4461  -10.5673    0.0000 C   0  0  0  0  0  0  0  0  0  0  0  0
   11.0066  -11.3189    0.0000 C   0  0  0  0  0  0  0  0  0  0  0  0
    4.3830    8.6907    0.0000 C   0  0  0  0  0  0  0  0  0  0  0  0
   11.3111   -8.6907    0.0000 C   0  0  0  0  0  0  0  0  0  0  0  0
    8.3470    0.5000    0.0000 C   0  0  0  0  0  0  0  0  0  0  0  0
    8.3470   -0.5000    0.0000 C   0  0  0  0  0  0  0  0  0  0  0  0
    7.4810    1.0000    0.0000 C   0  0  0  0  0  0  0  0  0  0  0  0
    9.2131   -1.0000    0.0000 C   0  0  0  0  0  0  0  0  0  0  0  0
    7.4810    2.0000    0.0000 C   0  0  0  0  0  0  0  0  0  0  0  0
    9.2131   -2.0000    0.0000 C   0  0  0  0  0  0  0  0  0  0  0  0
    3.7595    7.9088    0.0000 C   0  0  0  0  0  0  0  0  0  0  0  0
   10.6876   -7.9088    0.0000 C   0  0  0  0  0  0  0  0  0  0  0  0
    6.6150    2.5000    0.0000 C   0  0  0  0  0  0  0  0  0  0  0  0
   10.0791   -2.5000    0.0000 C   0  0  0  0  0  0  0  0  0  0  0  0
    2.6475   12.2945    0.0000 C   0  0  0  0  0  0  0  0  0  0  0  0
    9.5755  -12.2945    0.0000 C   0  0  0  0  0  0  0  0  0  0  0  0
    3.9820    6.9339    0.0000 C   0  0  0  0  0  0  0  0  0  0  0  0
   10.9101   -6.9339    0.0000 C   0  0  0  0  0  0  0  0  0  0  0  0
    6.6150    3.5000    0.0000 C   0  0  0  0  0  0  0  0  0  0  0  0
   10.0791   -3.5000    0.0000 C   0  0  0  0  0  0  0  0  0  0  0  0
    5.7490    4.0000    0.0000 C   0  0  0  0  0  0  0  0  0  0  0  0
   10.9451   -4.0000    0.0000 C   0  0  0  0  0  0  0  0  0  0  0  0
    5.7840    6.9339    0.0000 C   0  0  0  0  0  0  0  0  0  0  0  0
   12.7121   -6.9339    0.0000 C   0  0  0  0  0  0  0  0  0  0  0  0
    6.0065    7.9088    0.0000 C   0  0  0  0  0  0  0  0  0  0  0  0
   12.9346   -7.9089    0.0000 C   0  0  0  0  0  0  0  0  0  0  0  0
    2.7690    8.2312    0.0000 C   0  0  0  0  0  0  0  0  0  0  0  0
    9.6971   -8.2312    0.0000 C   0  0  0  0  0  0  0  0  0  0  0  0
    3.2295    6.2137    0.0000 C   0  0  0  0  0  0  0  0  0  0  0  0
   10.1576   -6.2137    0.0000 C   0  0  0  0  0  0  0  0  0  0  0  0
    5.7490    5.0000    0.0000 C   0  0  0  0  0  0  0  0  0  0  0  0
   10.9451   -5.0000    0.0000 C   0  0  0  0  0  0  0  0  0  0  0  0
    2.0000    7.5286    0.0000 C   0  0  0  0  0  0  0  0  0  0  0  0
    8.9281   -7.5286    0.0000 C   0  0  0  0  0  0  0  0  0  0  0  0
    6.5365    6.2137    0.0000 C   0  0  0  0  0  0  0  0  0  0  0  0
   13.4646   -6.2138    0.0000 C   0  0  0  0  0  0  0  0  0  0  0  0
    2.2318    6.5131    0.0000 C   0  0  0  0  0  0  0  0  0  0  0  0
    9.1599   -6.5131    0.0000 C   0  0  0  0  0  0  0  0  0  0  0  0
    6.9970    8.2311    0.0000 C   0  0  0  0  0  0  0  0  0  0  0  0
   13.9251   -8.2312    0.0000 C   0  0  0  0  0  0  0  0  0  0  0  0
    7.5342    6.5130    0.0000 C   0  0  0  0  0  0  0  0  0  0  0  0
   14.4623   -6.5131    0.0000 C   0  0  0  0  0  0  0  0  0  0  0  0
    7.7660    7.5286    0.0000 C   0  0  0  0  0  0  0  0  0  0  0  0
   14.6941   -7.5286    0.0000 C   0  0  0  0  0  0  0  0  0  0  0  0
    2.3551    9.4984    0.0000 H   0  0  0  0  0  0  0  0  0  0  0  0
    3.0137    9.0494    0.0000 H   0  0  0  0  0  0  0  0  0  0  0  0
    4.9563    9.9850    0.0000 H   0  0  0  0  0  0  0  0  0  0  0  0
    5.0159   10.7798    0.0000 H   0  0  0  0  0  0  0  0  0  0  0  0
    9.9417   -9.0494    0.0000 H   0  0  0  0  0  0  0  0  0  0  0  0
    9.2832   -9.4984    0.0000 H   0  0  0  0  0  0  0  0  0  0  0  0
   11.9439  -10.7798    0.0000 H   0  0  0  0  0  0  0  0  0  0  0  0
   11.8843   -9.9850    0.0000 H   0  0  0  0  0  0  0  0  0  0  0  0
    2.0742   11.0002    0.0000 H   0  0  0  0  0  0  0  0  0  0  0  0
    2.0146   10.2054    0.0000 H   0  0  0  0  0  0  0  0  0  0  0  0
    4.6754   11.4868    0.0000 H   0  0  0  0  0  0  0  0  0  0  0  0
    4.0168   11.9358    0.0000 H   0  0  0  0  0  0  0  0  0  0  0  0
    8.9427  -10.2054    0.0000 H   0  0  0  0  0  0  0  0  0  0  0  0
    9.0023  -11.0002    0.0000 H   0  0  0  0  0  0  0  0  0  0  0  0
   10.9449  -11.9358    0.0000 H   0  0  0  0  0  0  0  0  0  0  0  0
   11.6034  -11.4868    0.0000 H   0  0  0  0  0  0  0  0  0  0  0  0
    8.9576    0.3923    0.0000 H   0  0  0  0  0  0  0  0  0  0  0  0
    8.5591    1.0826    0.0000 H   0  0  0  0  0  0  0  0  0  0  0  0
    7.7365   -0.3923    0.0000 H   0  0  0  0  0  0  0  0  0  0  0  0
    8.1350   -1.0826    0.0000 H   0  0  0  0  0  0  0  0  0  0  0  0
    6.8704    1.1077    0.0000 H   0  0  0  0  0  0  0  0  0  0  0  0
    7.2690    0.4174    0.0000 H   0  0  0  0  0  0  0  0  0  0  0  0
    9.8236   -1.1077    0.0000 H   0  0  0  0  0  0  0  0  0  0  0  0
    9.4251   -0.4174    0.0000 H   0  0  0  0  0  0  0  0  0  0  0  0
    8.0916    1.8923    0.0000 H   0  0  0  0  0  0  0  0  0  0  0  0
    7.6931    2.5826    0.0000 H   0  0  0  0  0  0  0  0  0  0  0  0
    8.6025   -1.8924    0.0000 H   0  0  0  0  0  0  0  0  0  0  0  0
    9.0010   -2.5826    0.0000 H   0  0  0  0  0  0  0  0  0  0  0  0
    6.0044    2.6077    0.0000 H   0  0  0  0  0  0  0  0  0  0  0  0
    6.4030    1.9174    0.0000 H   0  0  0  0  0  0  0  0  0  0  0  0
   10.6897   -2.6077    0.0000 H   0  0  0  0  0  0  0  0  0  0  0  0
   10.2911   -1.9174    0.0000 H   0  0  0  0  0  0  0  0  0  0  0  0
    3.2061   12.5635    0.0000 H   0  0  0  0  0  0  0  0  0  0  0  0
    2.3785   12.8531    0.0000 H   0  0  0  0  0  0  0  0  0  0  0  0
    2.0889   12.0255    0.0000 H   0  0  0  0  0  0  0  0  0  0  0  0
    9.0169  -12.0255    0.0000 H   0  0  0  0  0  0  0  0  0  0  0  0
    9.3065  -12.8531    0.0000 H   0  0  0  0  0  0  0  0  0  0  0  0
   10.1341  -12.5636    0.0000 H   0  0  0  0  0  0  0  0  0  0  0  0
    7.2256    3.3923    0.0000 H   0  0  0  0  0  0  0  0  0  0  0  0
    6.8271    4.0826    0.0000 H   0  0  0  0  0  0  0  0  0  0  0  0
    9.4685   -3.3924    0.0000 H   0  0  0  0  0  0  0  0  0  0  0  0
    9.8670   -4.0826    0.0000 H   0  0  0  0  0  0  0  0  0  0  0  0
    5.1384    4.1077    0.0000 H   0  0  0  0  0  0  0  0  0  0  0  0
    5.5369    3.4174    0.0000 H   0  0  0  0  0  0  0  0  0  0  0  0
   11.5557   -4.1077    0.0000 H   0  0  0  0  0  0  0  0  0  0  0  0
   11.1571   -3.4174    0.0000 H   0  0  0  0  0  0  0  0  0  0  0  0
    2.6380    8.8372    0.0000 H   0  0  0  0  0  0  0  0  0  0  0  0
    9.5661   -8.8372    0.0000 H   0  0  0  0  0  0  0  0  0  0  0  0
    4.3460    5.1900    0.0000 H   0  0  0  0  0  0  0  0  0  0  0  0
   12.3480   -5.1900    0.0000 H   0  0  0  0  0  0  0  0  0  0  0  0
    3.3744    5.6109    0.0000 H   0  0  0  0  0  0  0  0  0  0  0  0
   10.3025   -5.6109    0.0000 H   0  0  0  0  0  0  0  0  0  0  0  0
    1.4083    7.7136    0.0000 H   0  0  0  0  0  0  0  0  0  0  0  0
    8.3363   -7.7136    0.0000 H   0  0  0  0  0  0  0  0  0  0  0  0
    6.3916    5.6109    0.0000 H   0  0  0  0  0  0  0  0  0  0  0  0
   13.3197   -5.6109    0.0000 H   0  0  0  0  0  0  0  0  0  0  0  0
    1.7789    6.0896    0.0000 H   0  0  0  0  0  0  0  0  0  0  0  0
    8.7070   -6.0896    0.0000 H   0  0  0  0  0  0  0  0  0  0  0  0
    7.1280    8.8372    0.0000 H   0  0  0  0  0  0  0  0  0  0  0  0
   14.0560   -8.8372    0.0000 H   0  0  0  0  0  0  0  0  0  0  0  0
    7.9871    6.0896    0.0000 H   0  0  0  0  0  0  0  0  0  0  0  0
   14.9152   -6.0897    0.0000 H   0  0  0  0  0  0  0  0  0  0  0  0
  1 63  1  0  0  0  0
  2 64  1  0  0  0  0
  3 51  2  0  0  0  0
  4 52  2  0  0  0  0
  5 15  1  0  0  0  0
  5 16  1  0  0  0  0
  5 23  1  0  0  0  0
  6 17  1  0  0  0  0
  6 18  1  0  0  0  0
  6 24  1  0  0  0  0
  7 19  1  0  0  0  0
  7 20  1  0  0  0  0
  7 35  1  0  0  0  0
  8 21  1  0  0  0  0
  8 22  1  0  0  0  0
  8 36  1  0  0  0  0
  9 13  1  0  0  0  0
  9 37  1  0  0  0  0
  9 43  1  0  0  0  0
 10 14  1  0  0  0  0
 10 38  1  0  0  0  0
 10 44  1  0  0  0  0
 11 23  2  0  0  0  0
 11 45  1  0  0  0  0
 12 24  2  0  0  0  0
 12 46  1  0  0  0  0
 13 51  1  0  0  0  0
 13113  1  0  0  0  0
 14 52  1  0  0  0  0
 14114  1  0  0  0  0
 15 19  1  0  0  0  0
 15 65  1  0  0  0  0
 15 66  1  0  0  0  0
 16 20  1  0  0  0  0
 16 67  1  0  0  0  0
 16 68  1  0  0  0  0
 17 21  1  0  0  0  0
 17 69  1  0  0  0  0
 17 70  1  0  0  0  0
 18 22  1  0  0  0  0
 18 71  1  0  0  0  0
 18 72  1  0  0  0  0
 19 73  1  0  0  0  0
 19 74  1  0  0  0  0
 20 75  1  0  0  0  0
 20 76  1  0  0  0  0
 21 77  1  0  0  0  0
 21 78  1  0  0  0  0
 22 79  1  0  0  0  0
 22 80  1  0  0  0  0
 23 31  1  0  0  0  0
 24 32  1  0  0  0  0
 25 26  1  0  0  0  0
 25 27  1  0  0  0  0
 25 81  1  0  0  0  0
 25 82  1  0  0  0  0
 26 28  1  0  0  0  0
 26 83  1  0  0  0  0
 26 84  1  0  0  0  0
 27 29  1  0  0  0  0
 27 85  1  0  0  0  0
 27 86  1  0  0  0  0
 28 30  1  0  0  0  0
 28 87  1  0  0  0  0
 28 88  1  0  0  0  0
 29 33  1  0  0  0  0
 29 89  1  0  0  0  0
 29 90  1  0  0  0  0
 30 34  1  0  0  0  0
 30 91  1  0  0  0  0
 30 92  1  0  0  0  0
 31 37  1  0  0  0  0
 31 47  2  0  0  0  0
 32 38  1  0  0  0  0
 32 48  2  0  0  0  0
 33 39  1  0  0  0  0
 33 93  1  0  0  0  0
 33 94  1  0  0  0  0
 34 40  1  0  0  0  0
 34 95  1  0  0  0  0
 34 96  1  0  0  0  0
 35 97  1  0  0  0  0
 35 98  1  0  0  0  0
 35 99  1  0  0  0  0
 36100  1  0  0  0  0
 36101  1  0  0  0  0
 36102  1  0  0  0  0
 37 49  2  0  0  0  0
 38 50  2  0  0  0  0
 39 41  1  0  0  0  0
 39103  1  0  0  0  0
 39104  1  0  0  0  0
 40 42  1  0  0  0  0
 40105  1  0  0  0  0
 40106  1  0  0  0  0
 41 51  1  0  0  0  0
 41107  1  0  0  0  0
 41108  1  0  0  0  0
 42 52  1  0  0  0  0
 42109  1  0  0  0  0
 42110  1  0  0  0  0
 43 45  2  0  0  0  0
 43 55  1  0  0  0  0
 44 46  2  0  0  0  0
 44 56  1  0  0  0  0
 45 59  1  0  0  0  0
 46 60  1  0  0  0  0
 47 53  1  0  0  0  0
 47111  1  0  0  0  0
 48 54  1  0  0  0  0
 48112  1  0  0  0  0
 49 57  1  0  0  0  0
 49115  1  0  0  0  0
 50 58  1  0  0  0  0
 50116  1  0  0  0  0
 53 57  2  0  0  0  0
 53117  1  0  0  0  0
 54 58  2  0  0  0  0
 54118  1  0  0  0  0
 55 61  2  0  0  0  0
 55119  1  0  0  0  0
 56 62  2  0  0  0  0
 56120  1  0  0  0  0
 57121  1  0  0  0  0
 58122  1  0  0  0  0
 59 63  2  0  0  0  0
 59123  1  0  0  0  0
 60 64  2  0  0  0  0
 60124  1  0  0  0  0
 61 63  1  0  0  0  0
 61125  1  0  0  0  0
 62 64  1  0  0  0  0
 62126  1  0  0  0  0
M  END
> <PUBCHEM_COMPOUND_CID>
57325596

> <PUBCHEM_COMPOUND_CANONICALIZED>
1

> <PUBCHEM_CACTVS_COMPLEXITY>
1440

> <PUBCHEM_CACTVS_HBOND_ACCEPTOR>
8

> <PUBCHEM_CACTVS_HBOND_DONOR>
2

> <PUBCHEM_CACTVS_ROTATABLE_BOND>
17

> <PUBCHEM_CACTVS_SUBSKEYS>
AAADcfB/8AAGAAAAAAAAAAAAAAAAAAAAAAA8eMGCBAgAAAABVAAAHgIYAAAADArBmCQzwINiAACoAidydACCBAEhBwAbqAEodpgIYPLB25GUIAhgkADIyAcYiICOAABAAAICACAAAIAABAQAQAAAAAAAAA==

> <PUBCHEM_IUPAC_OPENEYE_NAME>
N,N'-bis[3-chloro-6-(4-methylpiperazin-1-yl)benzo[b][1,4]benzodiazepin-11-yl]tetradecanediamide

> <PUBCHEM_IUPAC_CAS_NAME>
N,N'-bis[3-chloro-6-(4-methyl-1-piperazinyl)-11-benzo[b][1,4]benzodiazepinyl]tetradecanediamide

> <PUBCHEM_IUPAC_NAME_MARKUP>
<I>N</I>,<I>N</I>&apos;-bis[3-chloro-6-(4-methylpiperazin-1-yl)benzo[b][1,4]benzodiazepin-11-yl]tetradecanediamide

> <PUBCHEM_IUPAC_NAME>
N,N'-bis[3-chloro-6-(4-methylpiperazin-1-yl)benzo[b][1,4]benzodiazepin-11-yl]tetradecanediamide

> <PUBCHEM_IUPAC_SYSTEMATIC_NAME>
N,N'-bis[3-chloranyl-6-(4-methylpiperazin-1-yl)benzo[b][1,4]benzodiazepin-11-yl]tetradecanediamide

> <PUBCHEM_IUPAC_TRADITIONAL_NAME>
N,N'-bis[3-chloro-6-(4-methylpiperazino)benzo[b][1,4]benzodiazepin-11-yl]tetradecanediamide

> <PUBCHEM_IUPAC_INCHI>
InChI=1S/C50H62Cl2N10O2/c1-57-27-31-59(32-28-57)49-39-17-13-15-19-43(39)61(45-25-23-37(51)35-41(45)53-49)55-47(63)21-11-9-7-5-3-4-6-8-10-12-22-48(64)56-62-44-20-16-14-18-40(44)50(60-33-29-58(2)30-34-60)54-42-36-38(52)24-26-46(42)62/h13-20,23-26,35-36H,3-12,21-22,27-34H2,1-2H3,(H,55,63)(H,56,64)

> <PUBCHEM_IUPAC_INCHIKEY>
ACYRRFBCTGQMNI-UHFFFAOYSA-N

> <PUBCHEM_XLOGP3_AA>
10.1

> <PUBCHEM_EXACT_MASS>
904.4434266

> <PUBCHEM_MOLECULAR_FORMULA>
C50H62Cl2N10O2

> <PUBCHEM_MOLECULAR_WEIGHT>
906.0

> <PUBCHEM_OPENEYE_CAN_SMILES>
CN1CCN(CC1)C2=NC3=C(C=CC(=C3)Cl)N(C4=CC=CC=C42)NC(=O)CCCCCCCCCCCCC(=O)NN5C6=C(C=C(C=C6)Cl)N=C(C7=CC=CC=C75)N8CCN(CC8)C

> <PUBCHEM_OPENEYE_ISO_SMILES>
CN1CCN(CC1)C2=NC3=C(C=CC(=C3)Cl)N(C4=CC=CC=C42)NC(=O)CCCCCCCCCCCCC(=O)NN5C6=C(C=C(C=C6)Cl)N=C(C7=CC=CC=C75)N8CCN(CC8)C

> <PUBCHEM_CACTVS_TPSA>
102

> <PUBCHEM_MONOISOTOPIC_WEIGHT>
904.4434266

> <PUBCHEM_TOTAL_CHARGE>
0

> <PUBCHEM_HEAVY_ATOM_COUNT>
64

> <PUBCHEM_ATOM_DEF_STEREO_COUNT>
0

> <PUBCHEM_ATOM_UDEF_STEREO_COUNT>
0

> <PUBCHEM_BOND_DEF_STEREO_COUNT>
0

> <PUBCHEM_BOND_UDEF_STEREO_COUNT>
0

> <PUBCHEM_ISOTOPIC_ATOM_COUNT>
0

> <PUBCHEM_COMPONENT_COUNT>
1

> <PUBCHEM_CACTVS_TAUTO_COUNT>
-1

> <PUBCHEM_COORDINATE_TYPE>
1
5
255

> <PUBCHEM_BONDANNOTATIONS>
31  37  8
31  47  8
32  38  8
32  48  8
37  49  8
38  50  8
43  45  8
43  55  8
44  46  8
44  56  8
45  59  8
46  60  8
47  53  8
48  54  8
49  57  8
50  58  8
53  57  8
54  58  8
55  61  8
56  62  8
59  63  8
60  64  8
61  63  8
62  64  8

$$$$
