10522334
  -OEChem-09292322142D

 54 58  0     0  0  0  0  0  0999 V2000
    4.1761   -1.3105    0.0000 N   0  0  0  0  0  0  0  0  0  0  0  0
    2.3730    1.2798    0.0000 N   0  0  0  0  0  0  0  0  0  0  0  0
    2.0666    2.2255    0.0000 N   0  0  0  0  0  0  0  0  0  0  0  0
    4.1761    0.6895    0.0000 C   0  0  0  0  0  0  0  0  0  0  0  0
    4.9851    1.2773    0.0000 C   0  0  0  0  0  0  0  0  0  0  0  0
    3.3101    0.1895    0.0000 C   0  0  0  0  0  0  0  0  0  0  0  0
    5.0421    0.1895    0.0000 C   0  0  0  0  0  0  0  0  0  0  0  0
    3.3671    1.2773    0.0000 C   0  0  0  0  0  0  0  0  0  0  0  0
    4.6761    2.2283    0.0000 C   0  0  0  0  0  0  0  0  0  0  0  0
    3.3101   -0.8105    0.0000 C   0  0  0  0  0  0  0  0  0  0  0  0
    5.0421   -0.8105    0.0000 C   0  0  0  0  0  0  0  0  0  0  0  0
    3.6761    2.2283    0.0000 C   0  0  0  0  0  0  0  0  0  0  0  0
    2.8704    2.8105    0.0000 C   0  0  0  0  0  0  0  0  0  0  0  0
    4.1761   -2.3105    0.0000 C   0  0  0  0  0  0  0  0  0  0  0  0
    5.0421   -2.8105    0.0000 C   0  0  0  0  0  0  0  0  0  0  0  0
    2.8686    3.8105    0.0000 C   0  0  0  0  0  0  0  0  0  0  0  0
    5.0421   -3.8105    0.0000 C   0  0  0  0  0  0  0  0  0  0  0  0
    3.7338    4.3120    0.0000 C   0  0  0  0  0  0  0  0  0  0  0  0
    2.0017    4.3090    0.0000 C   0  0  0  0  0  0  0  0  0  0  0  0
    4.1761   -4.3105    0.0000 C   0  0  0  0  0  0  0  0  0  0  0  0
    5.9081   -4.3105    0.0000 C   0  0  0  0  0  0  0  0  0  0  0  0
    3.7320    5.3120    0.0000 C   0  0  0  0  0  0  0  0  0  0  0  0
    2.0000    5.3090    0.0000 C   0  0  0  0  0  0  0  0  0  0  0  0
    2.8652    5.8105    0.0000 C   0  0  0  0  0  0  0  0  0  0  0  0
    4.1761   -5.3105    0.0000 C   0  0  0  0  0  0  0  0  0  0  0  0
    5.9081   -5.3105    0.0000 C   0  0  0  0  0  0  0  0  0  0  0  0
    5.0421   -5.8105    0.0000 C   0  0  0  0  0  0  0  0  0  0  0  0
    5.2951    0.7403    0.0000 H   0  0  0  0  0  0  0  0  0  0  0  0
    5.5515    1.5294    0.0000 H   0  0  0  0  0  0  0  0  0  0  0  0
    3.0980    0.7721    0.0000 H   0  0  0  0  0  0  0  0  0  0  0  0
    2.6995    0.0818    0.0000 H   0  0  0  0  0  0  0  0  0  0  0  0
    5.6527    0.0818    0.0000 H   0  0  0  0  0  0  0  0  0  0  0  0
    5.2542    0.7721    0.0000 H   0  0  0  0  0  0  0  0  0  0  0  0
    5.2825    2.3572    0.0000 H   0  0  0  0  0  0  0  0  0  0  0  0
    4.6113    2.8449    0.0000 H   0  0  0  0  0  0  0  0  0  0  0  0
    2.6995   -0.7029    0.0000 H   0  0  0  0  0  0  0  0  0  0  0  0
    3.0980   -1.3931    0.0000 H   0  0  0  0  0  0  0  0  0  0  0  0
    5.2542   -1.3931    0.0000 H   0  0  0  0  0  0  0  0  0  0  0  0
    5.6527   -0.7029    0.0000 H   0  0  0  0  0  0  0  0  0  0  0  0
    2.0077    0.7789    0.0000 H   0  0  0  0  0  0  0  0  0  0  0  0
    3.5655   -2.2029    0.0000 H   0  0  0  0  0  0  0  0  0  0  0  0
    3.9640   -2.8931    0.0000 H   0  0  0  0  0  0  0  0  0  0  0  0
    5.6527   -2.9182    0.0000 H   0  0  0  0  0  0  0  0  0  0  0  0
    5.2542   -2.2279    0.0000 H   0  0  0  0  0  0  0  0  0  0  0  0
    4.2712    4.0030    0.0000 H   0  0  0  0  0  0  0  0  0  0  0  0
    1.4653    3.9981    0.0000 H   0  0  0  0  0  0  0  0  0  0  0  0
    3.6392   -4.0005    0.0000 H   0  0  0  0  0  0  0  0  0  0  0  0
    6.4451   -4.0005    0.0000 H   0  0  0  0  0  0  0  0  0  0  0  0
    4.2684    5.6230    0.0000 H   0  0  0  0  0  0  0  0  0  0  0  0
    1.4625    5.6181    0.0000 H   0  0  0  0  0  0  0  0  0  0  0  0
    2.8641    6.4305    0.0000 H   0  0  0  0  0  0  0  0  0  0  0  0
    3.6392   -5.6205    0.0000 H   0  0  0  0  0  0  0  0  0  0  0  0
    6.4451   -5.6205    0.0000 H   0  0  0  0  0  0  0  0  0  0  0  0
    5.0421   -6.4305    0.0000 H   0  0  0  0  0  0  0  0  0  0  0  0
  1 10  1  0  0  0  0
  1 11  1  0  0  0  0
  1 14  1  0  0  0  0
  2  3  1  0  0  0  0
  2  8  1  0  0  0  0
  2 40  1  0  0  0  0
  3 13  2  0  0  0  0
  4  5  1  0  0  0  0
  4  6  1  0  0  0  0
  4  7  1  0  0  0  0
  4  8  1  0  0  0  0
  5  9  1  0  0  0  0
  5 28  1  0  0  0  0
  5 29  1  0  0  0  0
  6 10  1  0  0  0  0
  6 30  1  0  0  0  0
  6 31  1  0  0  0  0
  7 11  1  0  0  0  0
  7 32  1  0  0  0  0
  7 33  1  0  0  0  0
  8 12  2  0  0  0  0
  9 12  1  0  0  0  0
  9 34  1  0  0  0  0
  9 35  1  0  0  0  0
 10 36  1  0  0  0  0
 10 37  1  0  0  0  0
 11 38  1  0  0  0  0
 11 39  1  0  0  0  0
 12 13  1  0  0  0  0
 13 16  1  0  0  0  0
 14 15  1  0  0  0  0
 14 41  1  0  0  0  0
 14 42  1  0  0  0  0
 15 17  1  0  0  0  0
 15 43  1  0  0  0  0
 15 44  1  0  0  0  0
 16 18  2  0  0  0  0
 16 19  1  0  0  0  0
 17 20  2  0  0  0  0
 17 21  1  0  0  0  0
 18 22  1  0  0  0  0
 18 45  1  0  0  0  0
 19 23  2  0  0  0  0
 19 46  1  0  0  0  0
 20 25  1  0  0  0  0
 20 47  1  0  0  0  0
 21 26  2  0  0  0  0
 21 48  1  0  0  0  0
 22 24  2  0  0  0  0
 22 49  1  0  0  0  0
 23 24  1  0  0  0  0
 23 50  1  0  0  0  0
 24 51  1  0  0  0  0
 25 27  2  0  0  0  0
 25 52  1  0  0  0  0
 26 27  1  0  0  0  0
 26 53  1  0  0  0  0
 27 54  1  0  0  0  0
M  END
> <PUBCHEM_COMPOUND_CID>
10522334

> <PUBCHEM_COMPOUND_CANONICALIZED>
1

> <PUBCHEM_CACTVS_COMPLEXITY>
472

> <PUBCHEM_CACTVS_HBOND_ACCEPTOR>
2

> <PUBCHEM_CACTVS_HBOND_DONOR>
1

> <PUBCHEM_CACTVS_ROTATABLE_BOND>
4

> <PUBCHEM_CACTVS_SUBSKEYS>
AAADceB7AAAAAAAAAAAAAAAAAAAAAeIAAAA8YIAAAAAWAAAB0AAAHAAYAAAADgjBHgQwgJNjAACiAyRiQACSBAAgAAAYuSAoRJgIIKKA0dGEpABgiACIyAcQgMAPAAAAAAAAAAAAAAAAAAAAAQAAAQAAAA==

> <PUBCHEM_IUPAC_OPENEYE_NAME>
3-phenyl-1'-(2-phenylethyl)spiro[4,5-dihydro-1H-cyclopenta[c]pyrazole-6,4'-piperidine]

> <PUBCHEM_IUPAC_CAS_NAME>
3-phenyl-1'-(2-phenylethyl)spiro[4,5-dihydro-1H-cyclopenta[c]pyrazole-6,4'-piperidine]

> <PUBCHEM_IUPAC_NAME_MARKUP>
3-phenyl-1&apos;-(2-phenylethyl)spiro[4,5-dihydro-1<I>H</I>-cyclopenta[c]pyrazole-6,4&apos;-piperidine]

> <PUBCHEM_IUPAC_NAME>
3-phenyl-1'-(2-phenylethyl)spiro[4,5-dihydro-1H-cyclopenta[c]pyrazole-6,4'-piperidine]

> <PUBCHEM_IUPAC_SYSTEMATIC_NAME>
3-phenyl-1'-(2-phenylethyl)spiro[4,5-dihydro-1H-cyclopenta[c]pyrazole-6,4'-piperidine]

> <PUBCHEM_IUPAC_TRADITIONAL_NAME>
1'-phenethyl-3-phenyl-spiro[4,5-dihydro-1H-cyclopenta[c]pyrazole-6,4'-piperidine]

> <PUBCHEM_IUPAC_INCHI>
InChI=1S/C24H27N3/c1-3-7-19(8-4-1)12-16-27-17-14-24(15-18-27)13-11-21-22(25-26-23(21)24)20-9-5-2-6-10-20/h1-10H,11-18H2,(H,25,26)

> <PUBCHEM_IUPAC_INCHIKEY>
VOWFPVSNWUSCMB-UHFFFAOYSA-N

> <PUBCHEM_XLOGP3_AA>
4.8

> <PUBCHEM_EXACT_MASS>
357.220497874

> <PUBCHEM_MOLECULAR_FORMULA>
C24H27N3

> <PUBCHEM_MOLECULAR_WEIGHT>
357.5

> <PUBCHEM_OPENEYE_CAN_SMILES>
C1CC2(CCN(CC2)CCC3=CC=CC=C3)C4=C1C(=NN4)C5=CC=CC=C5

> <PUBCHEM_OPENEYE_ISO_SMILES>
C1CC2(CCN(CC2)CCC3=CC=CC=C3)C4=C1C(=NN4)C5=CC=CC=C5

> <PUBCHEM_CACTVS_TPSA>
31.9

> <PUBCHEM_MONOISOTOPIC_WEIGHT>
357.220497874

> <PUBCHEM_TOTAL_CHARGE>
0

> <PUBCHEM_HEAVY_ATOM_COUNT>
27

> <PUBCHEM_ATOM_DEF_STEREO_COUNT>
0

> <PUBCHEM_ATOM_UDEF_STEREO_COUNT>
0

> <PUBCHEM_BOND_DEF_STEREO_COUNT>
0

> <PUBCHEM_BOND_UDEF_STEREO_COUNT>
0

> <PUBCHEM_ISOTOPIC_ATOM_COUNT>
0

> <PUBCHEM_COMPONENT_COUNT>
1

> <PUBCHEM_CACTVS_TAUTO_COUNT>
-1

> <PUBCHEM_COORDINATE_TYPE>
1
5
255

> <PUBCHEM_BONDANNOTATIONS>
12  13  8
16  18  8
16  19  8
17  20  8
17  21  8
18  22  8
19  23  8
2  3  8
2  8  8
20  25  8
21  26  8
22  24  8
23  24  8
25  27  8
26  27  8
3  13  8
8  12  8

$$$$
