44332565
  -OEChem-09292322212D

 42 43  0     0  0  0  0  0  0999 V2000
    2.0000    2.8170    0.0000 Cl  0  0  0  0  0  0  0  0  0  0  0  0
    4.5981    4.3170    0.0000 S   0  0  0  0  0  0  0  0  0  0  0  0
    5.4641    0.8170    0.0000 O   0  0  0  0  0  0  0  0  0  0  0  0
    4.0981    5.1830    0.0000 O   0  0  0  0  0  0  0  0  0  0  0  0
    5.0981    3.4510    0.0000 O   0  0  0  0  0  0  0  0  0  0  0  0
    6.3301   -1.6830    0.0000 N   0  0  0  0  0  0  0  0  0  0  0  0
    3.7320    3.8170    0.0000 N   0  0  0  0  0  0  0  0  0  0  0  0
    6.3301   -0.6830    0.0000 C   0  0  0  0  0  0  0  0  0  0  0  0
    7.1962   -2.1830    0.0000 C   0  0  0  0  0  0  0  0  0  0  0  0
    5.4641   -0.1830    0.0000 C   0  0  0  0  0  0  0  0  0  0  0  0
    7.1962   -3.1830    0.0000 C   0  0  0  0  0  0  0  0  0  0  0  0
    4.5981    1.3170    0.0000 C   0  0  0  0  0  0  0  0  0  0  0  0
    3.7320    2.8170    0.0000 C   0  0  0  0  0  0  0  0  0  0  0  0
    4.5981    2.3170    0.0000 C   0  0  0  0  0  0  0  0  0  0  0  0
    3.7320    0.8170    0.0000 C   0  0  0  0  0  0  0  0  0  0  0  0
    2.8660    2.3170    0.0000 C   0  0  0  0  0  0  0  0  0  0  0  0
    8.0622   -3.6830    0.0000 C   0  0  0  0  0  0  0  0  0  0  0  0
    6.3301   -3.6830    0.0000 C   0  0  0  0  0  0  0  0  0  0  0  0
    2.8660    1.3170    0.0000 C   0  0  0  0  0  0  0  0  0  0  0  0
    8.0622   -4.6830    0.0000 C   0  0  0  0  0  0  0  0  0  0  0  0
    6.3301   -4.6830    0.0000 C   0  0  0  0  0  0  0  0  0  0  0  0
    5.4641    4.8170    0.0000 C   0  0  0  0  0  0  0  0  0  0  0  0
    7.1962   -5.1830    0.0000 C   0  0  0  0  0  0  0  0  0  0  0  0
    6.9407   -0.7907    0.0000 H   0  0  0  0  0  0  0  0  0  0  0  0
    6.5422   -0.1004    0.0000 H   0  0  0  0  0  0  0  0  0  0  0  0
    7.8067   -2.2907    0.0000 H   0  0  0  0  0  0  0  0  0  0  0  0
    7.4082   -1.6004    0.0000 H   0  0  0  0  0  0  0  0  0  0  0  0
    4.8535   -0.0754    0.0000 H   0  0  0  0  0  0  0  0  0  0  0  0
    5.2520   -0.7656    0.0000 H   0  0  0  0  0  0  0  0  0  0  0  0
    5.7932   -1.9930    0.0000 H   0  0  0  0  0  0  0  0  0  0  0  0
    5.1350    2.6270    0.0000 H   0  0  0  0  0  0  0  0  0  0  0  0
    3.1951    4.1270    0.0000 H   0  0  0  0  0  0  0  0  0  0  0  0
    3.7320    0.1970    0.0000 H   0  0  0  0  0  0  0  0  0  0  0  0
    8.5991   -3.3730    0.0000 H   0  0  0  0  0  0  0  0  0  0  0  0
    5.7932   -3.3730    0.0000 H   0  0  0  0  0  0  0  0  0  0  0  0
    2.3291    1.0070    0.0000 H   0  0  0  0  0  0  0  0  0  0  0  0
    8.5991   -4.9930    0.0000 H   0  0  0  0  0  0  0  0  0  0  0  0
    5.7932   -4.9930    0.0000 H   0  0  0  0  0  0  0  0  0  0  0  0
    5.7741    4.2800    0.0000 H   0  0  0  0  0  0  0  0  0  0  0  0
    6.0010    5.1270    0.0000 H   0  0  0  0  0  0  0  0  0  0  0  0
    5.1541    5.3539    0.0000 H   0  0  0  0  0  0  0  0  0  0  0  0
    7.1962   -5.8030    0.0000 H   0  0  0  0  0  0  0  0  0  0  0  0
  1 16  1  0  0  0  0
  2  4  2  0  0  0  0
  2  5  2  0  0  0  0
  2  7  1  0  0  0  0
  2 22  1  0  0  0  0
  3 10  1  0  0  0  0
  3 12  1  0  0  0  0
  6  8  1  0  0  0  0
  6  9  1  0  0  0  0
  6 30  1  0  0  0  0
  7 13  1  0  0  0  0
  7 32  1  0  0  0  0
  8 10  1  0  0  0  0
  8 24  1  0  0  0  0
  8 25  1  0  0  0  0
  9 11  1  0  0  0  0
  9 26  1  0  0  0  0
  9 27  1  0  0  0  0
 10 28  1  0  0  0  0
 10 29  1  0  0  0  0
 11 17  2  0  0  0  0
 11 18  1  0  0  0  0
 12 14  2  0  0  0  0
 12 15  1  0  0  0  0
 13 14  1  0  0  0  0
 13 16  2  0  0  0  0
 14 31  1  0  0  0  0
 15 19  2  0  0  0  0
 15 33  1  0  0  0  0
 16 19  1  0  0  0  0
 17 20  1  0  0  0  0
 17 34  1  0  0  0  0
 18 21  2  0  0  0  0
 18 35  1  0  0  0  0
 19 36  1  0  0  0  0
 20 23  2  0  0  0  0
 20 37  1  0  0  0  0
 21 23  1  0  0  0  0
 21 38  1  0  0  0  0
 22 39  1  0  0  0  0
 22 40  1  0  0  0  0
 22 41  1  0  0  0  0
 23 42  1  0  0  0  0
M  END
> <PUBCHEM_COMPOUND_CID>
44332565

> <PUBCHEM_COMPOUND_CANONICALIZED>
1

> <PUBCHEM_CACTVS_COMPLEXITY>
435

> <PUBCHEM_CACTVS_HBOND_ACCEPTOR>
5

> <PUBCHEM_CACTVS_HBOND_DONOR>
2

> <PUBCHEM_CACTVS_ROTATABLE_BOND>
8

> <PUBCHEM_CACTVS_SUBSKEYS>
AAADceB7MABEAAAAAAAAAAAAAAAAAAAAAAAwYAAAAAAAAAABQAAAHgYQQAAADA7hmCayxoLABAKAAiRCQHCCCAAgJwAIiIAObogOJiKFs5uHOCjm0BmY6AeQ0AEOACAAAgAAABAAQAAEAAAAIAAAAAAAAA==

> <PUBCHEM_IUPAC_OPENEYE_NAME>
N-[5-[2-(benzylamino)ethoxy]-2-chloro-phenyl]methanesulfonamide

> <PUBCHEM_IUPAC_CAS_NAME>
N-[2-chloro-5-[2-[(phenylmethyl)amino]ethoxy]phenyl]methanesulfonamide

> <PUBCHEM_IUPAC_NAME_MARKUP>
<I>N</I>-[5-[2-(benzylamino)ethoxy]-2-chlorophenyl]methanesulfonamide

> <PUBCHEM_IUPAC_NAME>
N-[5-[2-(benzylamino)ethoxy]-2-chlorophenyl]methanesulfonamide

> <PUBCHEM_IUPAC_SYSTEMATIC_NAME>
N-[2-chloranyl-5-[2-[(phenylmethyl)amino]ethoxy]phenyl]methanesulfonamide

> <PUBCHEM_IUPAC_TRADITIONAL_NAME>
N-[5-[2-(benzylamino)ethoxy]-2-chloro-phenyl]methanesulfonamide

> <PUBCHEM_IUPAC_INCHI>
InChI=1S/C16H19ClN2O3S/c1-23(20,21)19-16-11-14(7-8-15(16)17)22-10-9-18-12-13-5-3-2-4-6-13/h2-8,11,18-19H,9-10,12H2,1H3

> <PUBCHEM_IUPAC_INCHIKEY>
GJAYJBGLRYDTKW-UHFFFAOYSA-N

> <PUBCHEM_XLOGP3_AA>
2.6

> <PUBCHEM_EXACT_MASS>
354.0804913

> <PUBCHEM_MOLECULAR_FORMULA>
C16H19ClN2O3S

> <PUBCHEM_MOLECULAR_WEIGHT>
354.9

> <PUBCHEM_OPENEYE_CAN_SMILES>
CS(=O)(=O)NC1=C(C=CC(=C1)OCCNCC2=CC=CC=C2)Cl

> <PUBCHEM_OPENEYE_ISO_SMILES>
CS(=O)(=O)NC1=C(C=CC(=C1)OCCNCC2=CC=CC=C2)Cl

> <PUBCHEM_CACTVS_TPSA>
75.8

> <PUBCHEM_MONOISOTOPIC_WEIGHT>
354.0804913

> <PUBCHEM_TOTAL_CHARGE>
0

> <PUBCHEM_HEAVY_ATOM_COUNT>
23

> <PUBCHEM_ATOM_DEF_STEREO_COUNT>
0

> <PUBCHEM_ATOM_UDEF_STEREO_COUNT>
0

> <PUBCHEM_BOND_DEF_STEREO_COUNT>
0

> <PUBCHEM_BOND_UDEF_STEREO_COUNT>
0

> <PUBCHEM_ISOTOPIC_ATOM_COUNT>
0

> <PUBCHEM_COMPONENT_COUNT>
1

> <PUBCHEM_CACTVS_TAUTO_COUNT>
-1

> <PUBCHEM_COORDINATE_TYPE>
1
5
255

> <PUBCHEM_BONDANNOTATIONS>
11  17  8
11  18  8
12  14  8
12  15  8
13  14  8
13  16  8
15  19  8
16  19  8
17  20  8
18  21  8
20  23  8
21  23  8

$$$$
