129103161
  -OEChem-09292322432D

 62 67  0     0  0  0  0  0  0999 V2000
   17.1677   -0.5992    0.0000 F   0  0  0  0  0  0  0  0  0  0  0  0
   14.3992   -2.8209    0.0000 O   0  0  0  0  0  0  0  0  0  0  0  0
    2.0000    1.9012    0.0000 O   0  0  0  0  0  0  0  0  0  0  0  0
    7.2622   -1.1230    0.0000 O   0  0  0  0  0  0  0  0  0  0  0  0
   10.7263   -0.1230    0.0000 N   0  0  0  0  0  0  0  0  0  0  0  0
    3.7702    1.9117    0.0000 N   0  0  0  0  0  0  0  0  0  0  0  0
   13.4274   -2.6117    0.0000 N   0  0  0  0  0  0  0  0  0  0  0  0
   12.4583   -1.1230    0.0000 C   0  0  0  0  0  0  0  0  0  0  0  0
   12.4583   -0.1230    0.0000 C   0  0  0  0  0  0  0  0  0  0  0  0
   11.5923   -1.6230    0.0000 C   0  0  0  0  0  0  0  0  0  0  0  0
   11.5923    0.3770    0.0000 C   0  0  0  0  0  0  0  0  0  0  0  0
   10.7263   -1.1230    0.0000 C   0  0  0  0  0  0  0  0  0  0  0  0
    9.8602    0.3770    0.0000 C   0  0  0  0  0  0  0  0  0  0  0  0
   13.3244   -1.6230    0.0000 C   0  0  0  0  0  0  0  0  0  0  0  0
    4.6641    1.3770    0.0000 C   0  0  0  0  0  0  0  0  0  0  0  0
    5.5301    1.8770    0.0000 C   0  0  0  0  0  0  0  0  0  0  0  0
    8.9942   -0.1230    0.0000 C   0  0  0  0  0  0  0  0  0  0  0  0
    4.1714    2.8209    0.0000 C   0  0  0  0  0  0  0  0  0  0  0  0
    5.1650    2.8013    0.0000 C   0  0  0  0  0  0  0  0  0  0  0  0
    4.6641    0.3770    0.0000 C   0  0  0  0  0  0  0  0  0  0  0  0
    3.7702   -0.1576    0.0000 C   0  0  0  0  0  0  0  0  0  0  0  0
    8.1282    0.3770    0.0000 C   0  0  0  0  0  0  0  0  0  0  0  0
    2.8641    0.3562    0.0000 C   0  0  0  0  0  0  0  0  0  0  0  0
    6.3961    0.3770    0.0000 C   0  0  0  0  0  0  0  0  0  0  0  0
    2.8641    1.3978    0.0000 C   0  0  0  0  0  0  0  0  0  0  0  0
    6.3961    1.3770    0.0000 C   0  0  0  0  0  0  0  0  0  0  0  0
   14.2321   -1.2179    0.0000 C   0  0  0  0  0  0  0  0  0  0  0  0
    5.5301   -0.1230    0.0000 C   0  0  0  0  0  0  0  0  0  0  0  0
    7.2622   -0.1230    0.0000 C   0  0  0  0  0  0  0  0  0  0  0  0
   14.9000   -1.9622    0.0000 C   0  0  0  0  0  0  0  0  0  0  0  0
   14.5428   -0.2673    0.0000 C   0  0  0  0  0  0  0  0  0  0  0  0
   15.8785   -1.7560    0.0000 C   0  0  0  0  0  0  0  0  0  0  0  0
   15.5213   -0.0611    0.0000 C   0  0  0  0  0  0  0  0  0  0  0  0
   16.1892   -0.8054    0.0000 C   0  0  0  0  0  0  0  0  0  0  0  0
   12.9953   -0.8130    0.0000 H   0  0  0  0  0  0  0  0  0  0  0  0
   13.0689   -0.2306    0.0000 H   0  0  0  0  0  0  0  0  0  0  0  0
   12.6704    0.4596    0.0000 H   0  0  0  0  0  0  0  0  0  0  0  0
   11.1938   -2.0979    0.0000 H   0  0  0  0  0  0  0  0  0  0  0  0
   11.9908   -2.0979    0.0000 H   0  0  0  0  0  0  0  0  0  0  0  0
   11.9908    0.8520    0.0000 H   0  0  0  0  0  0  0  0  0  0  0  0
   11.1938    0.8520    0.0000 H   0  0  0  0  0  0  0  0  0  0  0  0
   10.1157   -1.0153    0.0000 H   0  0  0  0  0  0  0  0  0  0  0  0
   10.5142   -1.7056    0.0000 H   0  0  0  0  0  0  0  0  0  0  0  0
   10.2588    0.8520    0.0000 H   0  0  0  0  0  0  0  0  0  0  0  0
    9.4617    0.8520    0.0000 H   0  0  0  0  0  0  0  0  0  0  0  0
    8.5957   -0.5979    0.0000 H   0  0  0  0  0  0  0  0  0  0  0  0
    9.3928   -0.5979    0.0000 H   0  0  0  0  0  0  0  0  0  0  0  0
    4.2650    3.4338    0.0000 H   0  0  0  0  0  0  0  0  0  0  0  0
    3.5762    2.9944    0.0000 H   0  0  0  0  0  0  0  0  0  0  0  0
    5.7666    2.9513    0.0000 H   0  0  0  0  0  0  0  0  0  0  0  0
    5.0956    3.4174    0.0000 H   0  0  0  0  0  0  0  0  0  0  0  0
    3.3765   -0.6367    0.0000 H   0  0  0  0  0  0  0  0  0  0  0  0
    4.1748   -0.6274    0.0000 H   0  0  0  0  0  0  0  0  0  0  0  0
    8.5267    0.8520    0.0000 H   0  0  0  0  0  0  0  0  0  0  0  0
    7.7297    0.8520    0.0000 H   0  0  0  0  0  0  0  0  0  0  0  0
    2.2532    0.4623    0.0000 H   0  0  0  0  0  0  0  0  0  0  0  0
    2.6550   -0.2275    0.0000 H   0  0  0  0  0  0  0  0  0  0  0  0
    6.9331    1.6870    0.0000 H   0  0  0  0  0  0  0  0  0  0  0  0
    5.5301   -0.7430    0.0000 H   0  0  0  0  0  0  0  0  0  0  0  0
   14.1287    0.1941    0.0000 H   0  0  0  0  0  0  0  0  0  0  0  0
   16.2926   -2.2174    0.0000 H   0  0  0  0  0  0  0  0  0  0  0  0
   15.7139    0.5282    0.0000 H   0  0  0  0  0  0  0  0  0  0  0  0
  1 34  1  0  0  0  0
  2  7  1  0  0  0  0
  2 30  1  0  0  0  0
  3 25  2  0  0  0  0
  4 29  2  0  0  0  0
  5 11  1  0  0  0  0
  5 12  1  0  0  0  0
  5 13  1  0  0  0  0
  6 15  1  0  0  0  0
  6 18  1  0  0  0  0
  6 25  1  0  0  0  0
  7 14  2  0  0  0  0
  8  9  1  0  0  0  0
  8 10  1  0  0  0  0
  8 14  1  0  0  0  0
  8 35  1  0  0  0  0
  9 11  1  0  0  0  0
  9 36  1  0  0  0  0
  9 37  1  0  0  0  0
 10 12  1  0  0  0  0
 10 38  1  0  0  0  0
 10 39  1  0  0  0  0
 11 40  1  0  0  0  0
 11 41  1  0  0  0  0
 12 42  1  0  0  0  0
 12 43  1  0  0  0  0
 13 17  1  0  0  0  0
 13 44  1  0  0  0  0
 13 45  1  0  0  0  0
 14 27  1  0  0  0  0
 15 16  1  0  0  0  0
 15 20  2  0  0  0  0
 16 19  1  0  0  0  0
 16 26  2  0  0  0  0
 17 22  1  0  0  0  0
 17 46  1  0  0  0  0
 17 47  1  0  0  0  0
 18 19  1  0  0  0  0
 18 48  1  0  0  0  0
 18 49  1  0  0  0  0
 19 50  1  0  0  0  0
 19 51  1  0  0  0  0
 20 21  1  0  0  0  0
 20 28  1  0  0  0  0
 21 23  1  0  0  0  0
 21 52  1  0  0  0  0
 21 53  1  0  0  0  0
 22 29  1  0  0  0  0
 22 54  1  0  0  0  0
 22 55  1  0  0  0  0
 23 25  1  0  0  0  0
 23 56  1  0  0  0  0
 23 57  1  0  0  0  0
 24 26  1  0  0  0  0
 24 28  2  0  0  0  0
 24 29  1  0  0  0  0
 26 58  1  0  0  0  0
 27 30  2  0  0  0  0
 27 31  1  0  0  0  0
 28 59  1  0  0  0  0
 30 32  1  0  0  0  0
 31 33  2  0  0  0  0
 31 60  1  0  0  0  0
 32 34  2  0  0  0  0
 32 61  1  0  0  0  0
 33 34  1  0  0  0  0
 33 62  1  0  0  0  0
M  END
> <PUBCHEM_COMPOUND_CID>
129103161

> <PUBCHEM_COMPOUND_CANONICALIZED>
1

> <PUBCHEM_CACTVS_COMPLEXITY>
772

> <PUBCHEM_CACTVS_HBOND_ACCEPTOR>
6

> <PUBCHEM_CACTVS_HBOND_DONOR>
0

> <PUBCHEM_CACTVS_ROTATABLE_BOND>
6

> <PUBCHEM_CACTVS_SUBSKEYS>
AAADceB7MQAAAAAAAAAAAAAAAAAAAWLAAAA8eIEAAAAAAFix9AAAHwAEAAAADQzBngwwxtMQAACpA6VyUgCCAAAlIAAomCE+TNoIJrrAlZOEMYhmxhnIycecyeCeCAACAAAKAAAQAAQAABQAAAAAAAAAAA==

> <PUBCHEM_IUPAC_OPENEYE_NAME>
6-[4-[4-(6-fluoro-1,2-benzoxazol-3-yl)-1-piperidyl]butanoyl]-1-azatricyclo[6.3.1.04,12]dodeca-4,6,8(12)-trien-11-one

> <PUBCHEM_IUPAC_CAS_NAME>
6-[4-[4-(6-fluoro-1,2-benzoxazol-3-yl)-1-piperidinyl]-1-oxobutyl]-1-azatricyclo[6.3.1.04,12]dodeca-4,6,8(12)-trien-11-one

> <PUBCHEM_IUPAC_NAME_MARKUP>
6-[4-[4-(6-fluoro-1,2-benzoxazol-3-yl)piperidin-1-yl]butanoyl]-1-azatricyclo[6.3.1.0<SUP>4,12</SUP>]dodeca-4,6,8(12)-trien-11-one

> <PUBCHEM_IUPAC_NAME>
6-[4-[4-(6-fluoro-1,2-benzoxazol-3-yl)piperidin-1-yl]butanoyl]-1-azatricyclo[6.3.1.04,12]dodeca-4,6,8(12)-trien-11-one

> <PUBCHEM_IUPAC_SYSTEMATIC_NAME>
6-[4-[4-(6-fluoranyl-1,2-benzoxazol-3-yl)piperidin-1-yl]butanoyl]-1-azatricyclo[6.3.1.04,12]dodeca-4,6,8(12)-trien-11-one

> <PUBCHEM_IUPAC_TRADITIONAL_NAME>
6-[4-[4-(6-fluoroindoxazen-3-yl)piperidino]butanoyl]-1-azatricyclo[6.3.1.04,12]dodeca-4,6,8(12)-trien-11-one

> <PUBCHEM_IUPAC_INCHI>
InChI=1S/C27H28FN3O3/c28-21-4-5-22-24(16-21)34-29-26(22)17-7-11-30(12-8-17)10-1-2-23(32)20-14-18-3-6-25(33)31-13-9-19(15-20)27(18)31/h4-5,14-17H,1-3,6-13H2

> <PUBCHEM_IUPAC_INCHIKEY>
LFATXWJLBURBCJ-UHFFFAOYSA-N

> <PUBCHEM_XLOGP3_AA>
3.5

> <PUBCHEM_EXACT_MASS>
461.21146993

> <PUBCHEM_MOLECULAR_FORMULA>
C27H28FN3O3

> <PUBCHEM_MOLECULAR_WEIGHT>
461.5

> <PUBCHEM_OPENEYE_CAN_SMILES>
C1CN(CCC1C2=NOC3=C2C=CC(=C3)F)CCCC(=O)C4=CC5=C6C(=C4)CCN6C(=O)CC5

> <PUBCHEM_OPENEYE_ISO_SMILES>
C1CN(CCC1C2=NOC3=C2C=CC(=C3)F)CCCC(=O)C4=CC5=C6C(=C4)CCN6C(=O)CC5

> <PUBCHEM_CACTVS_TPSA>
66.6

> <PUBCHEM_MONOISOTOPIC_WEIGHT>
461.21146993

> <PUBCHEM_TOTAL_CHARGE>
0

> <PUBCHEM_HEAVY_ATOM_COUNT>
34

> <PUBCHEM_ATOM_DEF_STEREO_COUNT>
0

> <PUBCHEM_ATOM_UDEF_STEREO_COUNT>
0

> <PUBCHEM_BOND_DEF_STEREO_COUNT>
0

> <PUBCHEM_BOND_UDEF_STEREO_COUNT>
0

> <PUBCHEM_ISOTOPIC_ATOM_COUNT>
0

> <PUBCHEM_COMPONENT_COUNT>
1

> <PUBCHEM_CACTVS_TAUTO_COUNT>
-1

> <PUBCHEM_COORDINATE_TYPE>
1
5
255

> <PUBCHEM_BONDANNOTATIONS>
14  27  8
15  16  8
15  20  8
16  26  8
2  30  8
2  7  8
20  28  8
24  26  8
24  28  8
27  30  8
27  31  8
30  32  8
31  33  8
32  34  8
33  34  8
7  14  8

$$$$
