10428643
  -OEChem-09292322522D

 38 39  0     0  0  0  0  0  0999 V2000
    4.2690    5.1550    0.0000 I   0  0  0  0  0  0  0  0  0  0  0  0
    4.2690    1.1550    0.0000 O   0  0  0  0  0  0  0  0  0  0  0  0
    2.5369   -4.8450    0.0000 O   0  0  0  0  0  0  0  0  0  0  0  0
    3.4030   -2.3450    0.0000 N   0  0  0  0  0  0  0  0  0  0  0  0
    3.4030   -0.3450    0.0000 C   0  0  0  0  0  0  0  0  0  0  0  0
    2.5369   -0.8450    0.0000 C   0  0  0  0  0  0  0  0  0  0  0  0
    4.2690   -0.8450    0.0000 C   0  0  0  0  0  0  0  0  0  0  0  0
    2.5369   -1.8450    0.0000 C   0  0  0  0  0  0  0  0  0  0  0  0
    4.2690   -1.8450    0.0000 C   0  0  0  0  0  0  0  0  0  0  0  0
    3.4030    0.6550    0.0000 C   0  0  0  0  0  0  0  0  0  0  0  0
    3.4030   -3.3450    0.0000 C   0  0  0  0  0  0  0  0  0  0  0  0
    2.5369   -3.8450    0.0000 C   0  0  0  0  0  0  0  0  0  0  0  0
    4.2690    2.1550    0.0000 C   0  0  0  0  0  0  0  0  0  0  0  0
    5.1350    2.6550    0.0000 C   0  0  0  0  0  0  0  0  0  0  0  0
    3.4030    2.6550    0.0000 C   0  0  0  0  0  0  0  0  0  0  0  0
    5.1350    3.6550    0.0000 C   0  0  0  0  0  0  0  0  0  0  0  0
    3.4030    3.6550    0.0000 C   0  0  0  0  0  0  0  0  0  0  0  0
    4.2690    4.1550    0.0000 C   0  0  0  0  0  0  0  0  0  0  0  0
    3.9399   -0.0350    0.0000 H   0  0  0  0  0  0  0  0  0  0  0  0
    2.3249   -0.2624    0.0000 H   0  0  0  0  0  0  0  0  0  0  0  0
    1.9264   -0.9527    0.0000 H   0  0  0  0  0  0  0  0  0  0  0  0
    4.8796   -0.9527    0.0000 H   0  0  0  0  0  0  0  0  0  0  0  0
    4.4810   -0.2624    0.0000 H   0  0  0  0  0  0  0  0  0  0  0  0
    1.9264   -1.7373    0.0000 H   0  0  0  0  0  0  0  0  0  0  0  0
    2.3249   -2.4276    0.0000 H   0  0  0  0  0  0  0  0  0  0  0  0
    4.4810   -2.4276    0.0000 H   0  0  0  0  0  0  0  0  0  0  0  0
    4.8796   -1.7373    0.0000 H   0  0  0  0  0  0  0  0  0  0  0  0
    3.1909    1.2376    0.0000 H   0  0  0  0  0  0  0  0  0  0  0  0
    2.7924    0.5473    0.0000 H   0  0  0  0  0  0  0  0  0  0  0  0
    3.6150   -3.9276    0.0000 H   0  0  0  0  0  0  0  0  0  0  0  0
    4.0135   -3.2373    0.0000 H   0  0  0  0  0  0  0  0  0  0  0  0
    2.3249   -3.2624    0.0000 H   0  0  0  0  0  0  0  0  0  0  0  0
    1.9264   -3.9527    0.0000 H   0  0  0  0  0  0  0  0  0  0  0  0
    2.0000   -5.1550    0.0000 H   0  0  0  0  0  0  0  0  0  0  0  0
    5.6720    2.3450    0.0000 H   0  0  0  0  0  0  0  0  0  0  0  0
    2.8660    2.3450    0.0000 H   0  0  0  0  0  0  0  0  0  0  0  0
    5.6720    3.9650    0.0000 H   0  0  0  0  0  0  0  0  0  0  0  0
    2.8660    3.9650    0.0000 H   0  0  0  0  0  0  0  0  0  0  0  0
  1 18  1  0  0  0  0
  2 10  1  0  0  0  0
  2 13  1  0  0  0  0
  3 12  1  0  0  0  0
  3 34  1  0  0  0  0
  4  8  1  0  0  0  0
  4  9  1  0  0  0  0
  4 11  1  0  0  0  0
  5  6  1  0  0  0  0
  5  7  1  0  0  0  0
  5 10  1  0  0  0  0
  5 19  1  0  0  0  0
  6  8  1  0  0  0  0
  6 20  1  0  0  0  0
  6 21  1  0  0  0  0
  7  9  1  0  0  0  0
  7 22  1  0  0  0  0
  7 23  1  0  0  0  0
  8 24  1  0  0  0  0
  8 25  1  0  0  0  0
  9 26  1  0  0  0  0
  9 27  1  0  0  0  0
 10 28  1  0  0  0  0
 10 29  1  0  0  0  0
 11 12  1  0  0  0  0
 11 30  1  0  0  0  0
 11 31  1  0  0  0  0
 12 32  1  0  0  0  0
 12 33  1  0  0  0  0
 13 14  2  0  0  0  0
 13 15  1  0  0  0  0
 14 16  1  0  0  0  0
 14 35  1  0  0  0  0
 15 17  2  0  0  0  0
 15 36  1  0  0  0  0
 16 18  2  0  0  0  0
 16 37  1  0  0  0  0
 17 18  1  0  0  0  0
 17 38  1  0  0  0  0
M  END
> <PUBCHEM_COMPOUND_CID>
10428643

> <PUBCHEM_COMPOUND_CANONICALIZED>
1

> <PUBCHEM_CACTVS_COMPLEXITY>
224

> <PUBCHEM_CACTVS_HBOND_ACCEPTOR>
3

> <PUBCHEM_CACTVS_HBOND_DONOR>
1

> <PUBCHEM_CACTVS_ROTATABLE_BOND>
5

> <PUBCHEM_CACTVS_SUBSKEYS>
AAADceByMAAAAgAAAAAAAAAAAAAAAAAAAAA8QAAAAAAAAAABAAAAHgAgCAAADQTjkAYwBoMABgCAACBCAAACCAAgIAAIiAAOCIgONiKEsRqGOCCkwBGYqAewQAAKAAAAAAAAAAAAAAAAAAAAAAAAAAAAAA==

> <PUBCHEM_IUPAC_OPENEYE_NAME>
2-[4-[(4-iodophenoxy)methyl]-1-piperidyl]ethanol

> <PUBCHEM_IUPAC_CAS_NAME>
2-[4-[(4-iodophenoxy)methyl]-1-piperidinyl]ethanol

> <PUBCHEM_IUPAC_NAME_MARKUP>
2-[4-[(4-iodophenoxy)methyl]piperidin-1-yl]ethanol

> <PUBCHEM_IUPAC_NAME>
2-[4-[(4-iodophenoxy)methyl]piperidin-1-yl]ethanol

> <PUBCHEM_IUPAC_SYSTEMATIC_NAME>
2-[4-[(4-iodanylphenoxy)methyl]piperidin-1-yl]ethanol

> <PUBCHEM_IUPAC_TRADITIONAL_NAME>
2-[4-[(4-iodophenoxy)methyl]piperidino]ethanol

> <PUBCHEM_IUPAC_INCHI>
InChI=1S/C14H20INO2/c15-13-1-3-14(4-2-13)18-11-12-5-7-16(8-6-12)9-10-17/h1-4,12,17H,5-11H2

> <PUBCHEM_IUPAC_INCHIKEY>
XHNKRIKJZZBVIE-UHFFFAOYSA-N

> <PUBCHEM_XLOGP3_AA>
2.6

> <PUBCHEM_EXACT_MASS>
361.05388

> <PUBCHEM_MOLECULAR_FORMULA>
C14H20INO2

> <PUBCHEM_MOLECULAR_WEIGHT>
361.22

> <PUBCHEM_OPENEYE_CAN_SMILES>
C1CN(CCC1COC2=CC=C(C=C2)I)CCO

> <PUBCHEM_OPENEYE_ISO_SMILES>
C1CN(CCC1COC2=CC=C(C=C2)I)CCO

> <PUBCHEM_CACTVS_TPSA>
32.7

> <PUBCHEM_MONOISOTOPIC_WEIGHT>
361.05388

> <PUBCHEM_TOTAL_CHARGE>
0

> <PUBCHEM_HEAVY_ATOM_COUNT>
18

> <PUBCHEM_ATOM_DEF_STEREO_COUNT>
0

> <PUBCHEM_ATOM_UDEF_STEREO_COUNT>
0

> <PUBCHEM_BOND_DEF_STEREO_COUNT>
0

> <PUBCHEM_BOND_UDEF_STEREO_COUNT>
0

> <PUBCHEM_ISOTOPIC_ATOM_COUNT>
0

> <PUBCHEM_COMPONENT_COUNT>
1

> <PUBCHEM_CACTVS_TAUTO_COUNT>
-1

> <PUBCHEM_COORDINATE_TYPE>
1
5
255

> <PUBCHEM_BONDANNOTATIONS>
13  14  8
13  15  8
14  16  8
15  17  8
16  18  8
17  18  8

$$$$
