44315383
  -OEChem-09292322152D

 58 62  0     0  0  0  0  0  0999 V2000
    7.1962   -0.6727    0.0000 N   0  0  0  0  0  0  0  0  0  0  0  0
    7.1962    1.3273    0.0000 N   0  0  0  0  0  0  0  0  0  0  0  0
    8.9561   -3.7074    0.0000 N   0  0  0  0  0  0  0  0  0  0  0  0
    6.3301   -0.1727    0.0000 C   0  0  0  0  0  0  0  0  0  0  0  0
    8.0622   -0.1727    0.0000 C   0  0  0  0  0  0  0  0  0  0  0  0
    6.3301    0.8273    0.0000 C   0  0  0  0  0  0  0  0  0  0  0  0
    8.0622    0.8273    0.0000 C   0  0  0  0  0  0  0  0  0  0  0  0
    7.1962   -1.6727    0.0000 C   0  0  0  0  0  0  0  0  0  0  0  0
    8.0622   -2.1727    0.0000 C   0  0  0  0  0  0  0  0  0  0  0  0
    8.9561   -1.6380    0.0000 C   0  0  0  0  0  0  0  0  0  0  0  0
    7.1962    2.3273    0.0000 C   0  0  0  0  0  0  0  0  0  0  0  0
    8.0622   -3.1727    0.0000 C   0  0  0  0  0  0  0  0  0  0  0  0
    9.8622   -2.1519    0.0000 C   0  0  0  0  0  0  0  0  0  0  0  0
    9.8622   -3.1935    0.0000 C   0  0  0  0  0  0  0  0  0  0  0  0
    6.3301   -2.1727    0.0000 C   0  0  0  0  0  0  0  0  0  0  0  0
    6.3301    2.8273    0.0000 C   0  0  0  0  0  0  0  0  0  0  0  0
    7.1962   -3.6727    0.0000 C   0  0  0  0  0  0  0  0  0  0  0  0
    6.3301   -3.1727    0.0000 C   0  0  0  0  0  0  0  0  0  0  0  0
    5.4641    2.3273    0.0000 C   0  0  0  0  0  0  0  0  0  0  0  0
    6.3301    3.8273    0.0000 C   0  0  0  0  0  0  0  0  0  0  0  0
    4.5981    2.8273    0.0000 C   0  0  0  0  0  0  0  0  0  0  0  0
    5.4641    4.3273    0.0000 C   0  0  0  0  0  0  0  0  0  0  0  0
    4.5981    3.8273    0.0000 C   0  0  0  0  0  0  0  0  0  0  0  0
    3.7320    2.3273    0.0000 C   0  0  0  0  0  0  0  0  0  0  0  0
    2.8660    2.8273    0.0000 C   0  0  0  0  0  0  0  0  0  0  0  0
    3.7320    1.3273    0.0000 C   0  0  0  0  0  0  0  0  0  0  0  0
    2.0000    2.3273    0.0000 C   0  0  0  0  0  0  0  0  0  0  0  0
    2.8660    0.8273    0.0000 C   0  0  0  0  0  0  0  0  0  0  0  0
    2.0000    1.3273    0.0000 C   0  0  0  0  0  0  0  0  0  0  0  0
    5.7196   -0.0650    0.0000 H   0  0  0  0  0  0  0  0  0  0  0  0
    6.1181   -0.7553    0.0000 H   0  0  0  0  0  0  0  0  0  0  0  0
    8.2742   -0.7553    0.0000 H   0  0  0  0  0  0  0  0  0  0  0  0
    8.6728   -0.0650    0.0000 H   0  0  0  0  0  0  0  0  0  0  0  0
    6.1181    1.4099    0.0000 H   0  0  0  0  0  0  0  0  0  0  0  0
    5.7196    0.7196    0.0000 H   0  0  0  0  0  0  0  0  0  0  0  0
    8.6728    0.7196    0.0000 H   0  0  0  0  0  0  0  0  0  0  0  0
    8.2742    1.4099    0.0000 H   0  0  0  0  0  0  0  0  0  0  0  0
    9.3497   -1.1590    0.0000 H   0  0  0  0  0  0  0  0  0  0  0  0
    8.5515   -1.1682    0.0000 H   0  0  0  0  0  0  0  0  0  0  0  0
    7.8067    2.2196    0.0000 H   0  0  0  0  0  0  0  0  0  0  0  0
    7.4082    2.9099    0.0000 H   0  0  0  0  0  0  0  0  0  0  0  0
   10.4730   -2.2580    0.0000 H   0  0  0  0  0  0  0  0  0  0  0  0
   10.0712   -1.5682    0.0000 H   0  0  0  0  0  0  0  0  0  0  0  0
   10.0712   -3.7772    0.0000 H   0  0  0  0  0  0  0  0  0  0  0  0
   10.4730   -3.0874    0.0000 H   0  0  0  0  0  0  0  0  0  0  0  0
    5.7932   -1.8627    0.0000 H   0  0  0  0  0  0  0  0  0  0  0  0
    8.9490   -4.3273    0.0000 H   0  0  0  0  0  0  0  0  0  0  0  0
    7.1962   -4.2927    0.0000 H   0  0  0  0  0  0  0  0  0  0  0  0
    5.7932   -3.4827    0.0000 H   0  0  0  0  0  0  0  0  0  0  0  0
    5.4641    1.7073    0.0000 H   0  0  0  0  0  0  0  0  0  0  0  0
    6.8671    4.1373    0.0000 H   0  0  0  0  0  0  0  0  0  0  0  0
    5.4641    4.9473    0.0000 H   0  0  0  0  0  0  0  0  0  0  0  0
    4.0611    4.1373    0.0000 H   0  0  0  0  0  0  0  0  0  0  0  0
    2.8660    3.4473    0.0000 H   0  0  0  0  0  0  0  0  0  0  0  0
    4.2690    1.0173    0.0000 H   0  0  0  0  0  0  0  0  0  0  0  0
    1.4631    2.6373    0.0000 H   0  0  0  0  0  0  0  0  0  0  0  0
    2.8660    0.2073    0.0000 H   0  0  0  0  0  0  0  0  0  0  0  0
    1.4631    1.0173    0.0000 H   0  0  0  0  0  0  0  0  0  0  0  0
  1  4  1  0  0  0  0
  1  5  1  0  0  0  0
  1  8  1  0  0  0  0
  2  6  1  0  0  0  0
  2  7  1  0  0  0  0
  2 11  1  0  0  0  0
  3 12  1  0  0  0  0
  3 14  1  0  0  0  0
  3 47  1  0  0  0  0
  4  6  1  0  0  0  0
  4 30  1  0  0  0  0
  4 31  1  0  0  0  0
  5  7  1  0  0  0  0
  5 32  1  0  0  0  0
  5 33  1  0  0  0  0
  6 34  1  0  0  0  0
  6 35  1  0  0  0  0
  7 36  1  0  0  0  0
  7 37  1  0  0  0  0
  8  9  1  0  0  0  0
  8 15  2  0  0  0  0
  9 10  1  0  0  0  0
  9 12  2  0  0  0  0
 10 13  1  0  0  0  0
 10 38  1  0  0  0  0
 10 39  1  0  0  0  0
 11 16  1  0  0  0  0
 11 40  1  0  0  0  0
 11 41  1  0  0  0  0
 12 17  1  0  0  0  0
 13 14  1  0  0  0  0
 13 42  1  0  0  0  0
 13 43  1  0  0  0  0
 14 44  1  0  0  0  0
 14 45  1  0  0  0  0
 15 18  1  0  0  0  0
 15 46  1  0  0  0  0
 16 19  2  0  0  0  0
 16 20  1  0  0  0  0
 17 18  2  0  0  0  0
 17 48  1  0  0  0  0
 18 49  1  0  0  0  0
 19 21  1  0  0  0  0
 19 50  1  0  0  0  0
 20 22  2  0  0  0  0
 20 51  1  0  0  0  0
 21 23  2  0  0  0  0
 21 24  1  0  0  0  0
 22 23  1  0  0  0  0
 22 52  1  0  0  0  0
 23 53  1  0  0  0  0
 24 25  2  0  0  0  0
 24 26  1  0  0  0  0
 25 27  1  0  0  0  0
 25 54  1  0  0  0  0
 26 28  2  0  0  0  0
 26 55  1  0  0  0  0
 27 29  2  0  0  0  0
 27 56  1  0  0  0  0
 28 29  1  0  0  0  0
 28 57  1  0  0  0  0
 29 58  1  0  0  0  0
M  END
> <PUBCHEM_COMPOUND_CID>
44315383

> <PUBCHEM_COMPOUND_CANONICALIZED>
1

> <PUBCHEM_CACTVS_COMPLEXITY>
494

> <PUBCHEM_CACTVS_HBOND_ACCEPTOR>
3

> <PUBCHEM_CACTVS_HBOND_DONOR>
1

> <PUBCHEM_CACTVS_ROTATABLE_BOND>
4

> <PUBCHEM_CACTVS_SUBSKEYS>
AAADceB7AAAAAAAAAAAAAAAAAAAAAAAAAAA8eMECAAAAAACxUAAAHAAQAAAADAjBGAQwwIPAAACAAiRCQACCAAAhAgAIiIAIZIgIYCLA0dGUIAhgkADIyAcQgMAOgAACAAQCAAAAAAQACAQAAAAAAAAAAA==

> <PUBCHEM_IUPAC_OPENEYE_NAME>
5-[4-[(3-phenylphenyl)methyl]piperazin-1-yl]-1,2,3,4-tetrahydroquinoline

> <PUBCHEM_IUPAC_CAS_NAME>
5-[4-[(3-phenylphenyl)methyl]-1-piperazinyl]-1,2,3,4-tetrahydroquinoline

> <PUBCHEM_IUPAC_NAME_MARKUP>
5-[4-[(3-phenylphenyl)methyl]piperazin-1-yl]-1,2,3,4-tetrahydroquinoline

> <PUBCHEM_IUPAC_NAME>
5-[4-[(3-phenylphenyl)methyl]piperazin-1-yl]-1,2,3,4-tetrahydroquinoline

> <PUBCHEM_IUPAC_SYSTEMATIC_NAME>
5-[4-[(3-phenylphenyl)methyl]piperazin-1-yl]-1,2,3,4-tetrahydroquinoline

> <PUBCHEM_IUPAC_TRADITIONAL_NAME>
5-[4-(3-phenylbenzyl)piperazino]-1,2,3,4-tetrahydroquinoline

> <PUBCHEM_IUPAC_INCHI>
InChI=1S/C26H29N3/c1-2-8-22(9-3-1)23-10-4-7-21(19-23)20-28-15-17-29(18-16-28)26-13-5-12-25-24(26)11-6-14-27-25/h1-5,7-10,12-13,19,27H,6,11,14-18,20H2

> <PUBCHEM_IUPAC_INCHIKEY>
FJDXZJPLGPQEMF-UHFFFAOYSA-N

> <PUBCHEM_XLOGP3_AA>
5.4

> <PUBCHEM_EXACT_MASS>
383.236147938

> <PUBCHEM_MOLECULAR_FORMULA>
C26H29N3

> <PUBCHEM_MOLECULAR_WEIGHT>
383.5

> <PUBCHEM_OPENEYE_CAN_SMILES>
C1CC2=C(C=CC=C2N3CCN(CC3)CC4=CC(=CC=C4)C5=CC=CC=C5)NC1

> <PUBCHEM_OPENEYE_ISO_SMILES>
C1CC2=C(C=CC=C2N3CCN(CC3)CC4=CC(=CC=C4)C5=CC=CC=C5)NC1

> <PUBCHEM_CACTVS_TPSA>
18.5

> <PUBCHEM_MONOISOTOPIC_WEIGHT>
383.236147938

> <PUBCHEM_TOTAL_CHARGE>
0

> <PUBCHEM_HEAVY_ATOM_COUNT>
29

> <PUBCHEM_ATOM_DEF_STEREO_COUNT>
0

> <PUBCHEM_ATOM_UDEF_STEREO_COUNT>
0

> <PUBCHEM_BOND_DEF_STEREO_COUNT>
0

> <PUBCHEM_BOND_UDEF_STEREO_COUNT>
0

> <PUBCHEM_ISOTOPIC_ATOM_COUNT>
0

> <PUBCHEM_COMPONENT_COUNT>
1

> <PUBCHEM_CACTVS_TAUTO_COUNT>
-1

> <PUBCHEM_COORDINATE_TYPE>
1
5
255

> <PUBCHEM_BONDANNOTATIONS>
12  17  8
15  18  8
16  19  8
16  20  8
17  18  8
19  21  8
20  22  8
21  23  8
22  23  8
24  25  8
24  26  8
25  27  8
26  28  8
27  29  8
28  29  8
8  15  8
8  9  8
9  12  8

$$$$
