44295976
  -OEChem-09292321582D

 58 63  0     0  0  0  0  0  0999 V2000
    5.8616    1.1553    0.0000 N   0  0  0  0  0  0  0  0  0  0  0  0
    6.6804   -2.2608    0.0000 N   0  0  0  0  0  0  0  0  0  0  0  0
    5.1698   -2.8407    0.0000 N   0  0  0  0  0  0  0  0  0  0  0  0
    5.4133    2.8283    0.0000 C   0  0  0  0  0  0  0  0  0  0  0  0
    5.6721    3.7942    0.0000 C   0  0  0  0  0  0  0  0  0  0  0  0
    4.9355    4.7768    0.0000 C   0  0  0  0  0  0  0  0  0  0  0  0
    4.0406    2.2363    0.0000 C   0  0  0  0  0  0  0  0  0  0  0  0
    6.8122    2.3195    0.0000 C   0  0  0  0  0  0  0  0  0  0  0  0
    3.6986    3.1760    0.0000 C   0  0  0  0  0  0  0  0  0  0  0  0
    7.0711    3.2854    0.0000 C   0  0  0  0  0  0  0  0  0  0  0  0
    5.1545    1.8624    0.0000 C   0  0  0  0  0  0  0  0  0  0  0  0
    3.3834    1.4281    0.0000 C   0  0  0  0  0  0  0  0  0  0  0  0
    7.5373    1.5717    0.0000 C   0  0  0  0  0  0  0  0  0  0  0  0
    2.6757    3.3726    0.0000 C   0  0  0  0  0  0  0  0  0  0  0  0
    8.0729    3.5705    0.0000 C   0  0  0  0  0  0  0  0  0  0  0  0
    2.3563    1.6011    0.0000 C   0  0  0  0  0  0  0  0  0  0  0  0
    8.5455    1.8335    0.0000 C   0  0  0  0  0  0  0  0  0  0  0  0
    2.0000    2.5799    0.0000 C   0  0  0  0  0  0  0  0  0  0  0  0
    8.8151    2.8396    0.0000 C   0  0  0  0  0  0  0  0  0  0  0  0
    5.6028    0.1893    0.0000 C   0  0  0  0  0  0  0  0  0  0  0  0
    6.3099   -0.5178    0.0000 C   0  0  0  0  0  0  0  0  0  0  0  0
    6.0511   -1.4837    0.0000 C   0  0  0  0  0  0  0  0  0  0  0  0
    5.1175   -1.8420    0.0000 C   0  0  0  0  0  0  0  0  0  0  0  0
    7.6790   -2.2085    0.0000 C   0  0  0  0  0  0  0  0  0  0  0  0
    6.1357   -3.0995    0.0000 C   0  0  0  0  0  0  0  0  0  0  0  0
    8.2236   -3.0472    0.0000 C   0  0  0  0  0  0  0  0  0  0  0  0
    7.7696   -3.9382    0.0000 C   0  0  0  0  0  0  0  0  0  0  0  0
    9.2223   -2.9948    0.0000 C   0  0  0  0  0  0  0  0  0  0  0  0
    8.3143   -4.7768    0.0000 C   0  0  0  0  0  0  0  0  0  0  0  0
    9.7669   -3.8335    0.0000 C   0  0  0  0  0  0  0  0  0  0  0  0
    9.3129   -4.7245    0.0000 C   0  0  0  0  0  0  0  0  0  0  0  0
    6.0415    4.2922    0.0000 H   0  0  0  0  0  0  0  0  0  0  0  0
    5.2533    5.3092    0.0000 H   0  0  0  0  0  0  0  0  0  0  0  0
    4.3224    4.8688    0.0000 H   0  0  0  0  0  0  0  0  0  0  0  0
    4.5926    2.1244    0.0000 H   0  0  0  0  0  0  0  0  0  0  0  0
    4.7989    1.3545    0.0000 H   0  0  0  0  0  0  0  0  0  0  0  0
    3.6022    0.8480    0.0000 H   0  0  0  0  0  0  0  0  0  0  0  0
    7.3700    0.9747    0.0000 H   0  0  0  0  0  0  0  0  0  0  0  0
    2.4704    3.9577    0.0000 H   0  0  0  0  0  0  0  0  0  0  0  0
    8.2264    4.1712    0.0000 H   0  0  0  0  0  0  0  0  0  0  0  0
    6.4605    1.3157    0.0000 H   0  0  0  0  0  0  0  0  0  0  0  0
    1.9596    1.1246    0.0000 H   0  0  0  0  0  0  0  0  0  0  0  0
    8.9822    1.3934    0.0000 H   0  0  0  0  0  0  0  0  0  0  0  0
    1.3898    2.6899    0.0000 H   0  0  0  0  0  0  0  0  0  0  0  0
    9.4134    3.0024    0.0000 H   0  0  0  0  0  0  0  0  0  0  0  0
    5.0409    0.4514    0.0000 H   0  0  0  0  0  0  0  0  0  0  0  0
    5.2472   -0.3185    0.0000 H   0  0  0  0  0  0  0  0  0  0  0  0
    6.8718   -0.7798    0.0000 H   0  0  0  0  0  0  0  0  0  0  0  0
    6.6655   -0.0099    0.0000 H   0  0  0  0  0  0  0  0  0  0  0  0
    4.5975   -1.5044    0.0000 H   0  0  0  0  0  0  0  0  0  0  0  0
    8.2497   -1.9662    0.0000 H   0  0  0  0  0  0  0  0  0  0  0  0
    7.5395   -1.6044    0.0000 H   0  0  0  0  0  0  0  0  0  0  0  0
    6.3579   -3.6783    0.0000 H   0  0  0  0  0  0  0  0  0  0  0  0
    7.1505   -3.9706    0.0000 H   0  0  0  0  0  0  0  0  0  0  0  0
    9.5038   -2.4424    0.0000 H   0  0  0  0  0  0  0  0  0  0  0  0
    8.0328   -5.3293    0.0000 H   0  0  0  0  0  0  0  0  0  0  0  0
   10.3861   -3.8010    0.0000 H   0  0  0  0  0  0  0  0  0  0  0  0
    9.6506   -5.2445    0.0000 H   0  0  0  0  0  0  0  0  0  0  0  0
  1 11  1  0  0  0  0
  1 20  1  0  0  0  0
  1 41  1  0  0  0  0
  2 22  1  0  0  0  0
  2 24  1  0  0  0  0
  2 25  1  0  0  0  0
  3 23  1  0  0  0  0
  3 25  2  0  0  0  0
  4  6  1  0  0  0  0
  4  7  1  0  0  0  0
  4  8  1  0  0  0  0
  4 11  1  0  0  0  0
  5  6  1  0  0  0  0
  5  9  1  0  0  0  0
  5 10  1  0  0  0  0
  5 32  1  0  0  0  0
  6 33  1  0  0  0  0
  6 34  1  0  0  0  0
  7  9  1  0  0  0  0
  7 12  2  0  0  0  0
  8 10  1  0  0  0  0
  8 13  2  0  0  0  0
  9 14  2  0  0  0  0
 10 15  2  0  0  0  0
 11 35  1  0  0  0  0
 11 36  1  0  0  0  0
 12 16  1  0  0  0  0
 12 37  1  0  0  0  0
 13 17  1  0  0  0  0
 13 38  1  0  0  0  0
 14 18  1  0  0  0  0
 14 39  1  0  0  0  0
 15 19  1  0  0  0  0
 15 40  1  0  0  0  0
 16 18  2  0  0  0  0
 16 42  1  0  0  0  0
 17 19  2  0  0  0  0
 17 43  1  0  0  0  0
 18 44  1  0  0  0  0
 19 45  1  0  0  0  0
 20 21  1  0  0  0  0
 20 46  1  0  0  0  0
 20 47  1  0  0  0  0
 21 22  1  0  0  0  0
 21 48  1  0  0  0  0
 21 49  1  0  0  0  0
 22 23  2  0  0  0  0
 23 50  1  0  0  0  0
 24 26  1  0  0  0  0
 24 51  1  0  0  0  0
 24 52  1  0  0  0  0
 25 53  1  0  0  0  0
 26 27  2  0  0  0  0
 26 28  1  0  0  0  0
 27 29  1  0  0  0  0
 27 54  1  0  0  0  0
 28 30  2  0  0  0  0
 28 55  1  0  0  0  0
 29 31  2  0  0  0  0
 29 56  1  0  0  0  0
 30 31  1  0  0  0  0
 30 57  1  0  0  0  0
 31 58  1  0  0  0  0
M  END
> <PUBCHEM_COMPOUND_CID>
44295976

> <PUBCHEM_COMPOUND_CANONICALIZED>
1

> <PUBCHEM_CACTVS_COMPLEXITY>
575

> <PUBCHEM_CACTVS_HBOND_ACCEPTOR>
2

> <PUBCHEM_CACTVS_HBOND_DONOR>
1

> <PUBCHEM_CACTVS_ROTATABLE_BOND>
7

> <PUBCHEM_CACTVS_SUBSKEYS>
AAADceB7AAAAAAAAAAAAAAAAAAAAAeMEAAAwYMGAAAAAAGAB1AAAHAAQAAAADwjBHgQ9kJfMEACgAzRnZACCgC0xEqAJ2IA4dIiIaCLA2RGUIAhokALIyCcQgMAPgAAAAAAQAACAAAQAACAAAQAACAAAAA==

> <PUBCHEM_IUPAC_OPENEYE_NAME>
2-(3-benzylimidazol-4-yl)-N-(1-tetracyclo[6.6.1.02,7.09,14]pentadeca-2,4,6,9,11,13-hexaenylmethyl)ethanamine

> <PUBCHEM_IUPAC_CAS_NAME>
2-[3-(phenylmethyl)-4-imidazolyl]-N-(1-tetracyclo[6.6.1.02,7.09,14]pentadeca-2,4,6,9,11,13-hexaenylmethyl)ethanamine

> <PUBCHEM_IUPAC_NAME_MARKUP>
2-(3-benzylimidazol-4-yl)-<I>N</I>-(1-tetracyclo[6.6.1.0<SUP>2,7</SUP>.0<SUP>9,14</SUP>]pentadeca-2,4,6,9,11,13-hexaenylmethyl)ethanamine

> <PUBCHEM_IUPAC_NAME>
2-(3-benzylimidazol-4-yl)-N-(1-tetracyclo[6.6.1.02,7.09,14]pentadeca-2,4,6,9,11,13-hexaenylmethyl)ethanamine

> <PUBCHEM_IUPAC_SYSTEMATIC_NAME>
2-[3-(phenylmethyl)imidazol-4-yl]-N-(1-tetracyclo[6.6.1.02,7.09,14]pentadeca-2,4,6,9,11,13-hexaenylmethyl)ethanamine

> <PUBCHEM_IUPAC_TRADITIONAL_NAME>
2-(3-benzylimidazol-4-yl)ethyl-(1-tetracyclo[6.6.1.02,7.09,14]pentadeca-2,4,6,9,11,13-hexaenylmethyl)amine

> <PUBCHEM_IUPAC_INCHI>
InChI=1S/C28H27N3/c1-2-8-21(9-3-1)18-31-20-30-17-22(31)14-15-29-19-28-16-25(23-10-4-6-12-26(23)28)24-11-5-7-13-27(24)28/h1-13,17,20,25,29H,14-16,18-19H2

> <PUBCHEM_IUPAC_INCHIKEY>
OCXIJXCIYJPRSO-UHFFFAOYSA-N

> <PUBCHEM_XLOGP3_AA>
4.8

> <PUBCHEM_EXACT_MASS>
405.220497874

> <PUBCHEM_MOLECULAR_FORMULA>
C28H27N3

> <PUBCHEM_MOLECULAR_WEIGHT>
405.5

> <PUBCHEM_OPENEYE_CAN_SMILES>
C1C2C3=CC=CC=C3C1(C4=CC=CC=C24)CNCCC5=CN=CN5CC6=CC=CC=C6

> <PUBCHEM_OPENEYE_ISO_SMILES>
C1C2C3=CC=CC=C3C1(C4=CC=CC=C24)CNCCC5=CN=CN5CC6=CC=CC=C6

> <PUBCHEM_CACTVS_TPSA>
29.8

> <PUBCHEM_MONOISOTOPIC_WEIGHT>
405.220497874

> <PUBCHEM_TOTAL_CHARGE>
0

> <PUBCHEM_HEAVY_ATOM_COUNT>
31

> <PUBCHEM_ATOM_DEF_STEREO_COUNT>
0

> <PUBCHEM_ATOM_UDEF_STEREO_COUNT>
0

> <PUBCHEM_BOND_DEF_STEREO_COUNT>
0

> <PUBCHEM_BOND_UDEF_STEREO_COUNT>
0

> <PUBCHEM_ISOTOPIC_ATOM_COUNT>
0

> <PUBCHEM_COMPONENT_COUNT>
1

> <PUBCHEM_CACTVS_TAUTO_COUNT>
-1

> <PUBCHEM_COORDINATE_TYPE>
1
5
255

> <PUBCHEM_BONDANNOTATIONS>
10  15  8
12  16  8
13  17  8
14  18  8
15  19  8
16  18  8
17  19  8
2  22  8
2  25  8
22  23  8
26  27  8
26  28  8
27  29  8
28  30  8
29  31  8
3  23  8
3  25  8
30  31  8
7  12  8
7  9  8
8  10  8
8  13  8
9  14  8

$$$$
