44569093
  -OEChem-09292322232D

 50 53  0     1  0  0  0  0  0999 V2000
    4.0836    0.0000    0.0000 Cl  0  0  0  0  0  0  0  0  0  0  0  0
    0.0000    3.1162    0.0000 F   0  0  0  0  0  0  0  0  0  0  0  0
    7.5554   10.9447    0.0000 O   0  0  0  0  0  0  0  0  0  0  0  0
    3.5443    3.3114    0.0000 O   0  0  0  0  0  0  0  0  0  0  0  0
    8.0796    7.6468    0.0000 O   0  0  0  0  0  0  0  0  0  0  0  0
    4.4763    7.7725    0.0000 N   0  0  0  0  0  0  0  0  0  0  0  0
    4.1279    4.1162    0.0000 N   0  0  0  0  0  0  0  0  0  0  0  0
    3.8550    5.8714    0.0000 C   0  0  0  0  0  0  0  0  0  0  0  0
    5.7655    8.9292    0.0000 C   0  0  1  0  0  0  0  0  0  0  0  0
    4.7870    8.7230    0.0000 C   0  0  0  0  0  0  0  0  0  0  0  0
    4.8335    6.0776    0.0000 C   0  0  0  0  0  0  0  0  0  0  0  0
    3.1871    6.6157    0.0000 C   0  0  0  0  0  0  0  0  0  0  0  0
    5.1441    7.0282    0.0000 C   0  0  0  0  0  0  0  0  0  0  0  0
    3.4978    7.5662    0.0000 C   0  0  0  0  0  0  0  0  0  0  0  0
    6.0761    9.8797    0.0000 C   0  0  0  0  0  0  0  0  0  0  0  0
    6.4333    8.1849    0.0000 C   0  0  0  0  0  0  0  0  0  0  0  0
    3.5443    4.9209    0.0000 C   0  0  0  0  0  0  0  0  0  0  0  0
    7.0546   10.0860    0.0000 C   0  0  0  0  0  0  0  0  0  0  0  0
    7.4118    8.3911    0.0000 C   0  0  0  0  0  0  0  0  0  0  0  0
    7.7225    9.3416    0.0000 C   0  0  0  0  0  0  0  0  0  0  0  0
    2.5981    4.6162    0.0000 C   0  0  0  0  0  0  0  0  0  0  0  0
    8.6302    9.7468    0.0000 C   0  0  0  0  0  0  0  0  0  0  0  0
    2.5981    3.6162    0.0000 C   0  0  0  0  0  0  0  0  0  0  0  0
    8.5272   10.7355    0.0000 C   0  0  0  0  0  0  0  0  0  0  0  0
    1.7320    5.1162    0.0000 C   0  0  0  0  0  0  0  0  0  0  0  0
    1.7320    3.1162    0.0000 C   0  0  0  0  0  0  0  0  0  0  0  0
    0.8660    4.6162    0.0000 C   0  0  0  0  0  0  0  0  0  0  0  0
    0.8660    3.6162    0.0000 C   0  0  0  0  0  0  0  0  0  0  0  0
    3.2483    5.7436    0.0000 H   0  0  0  0  0  0  0  0  0  0  0  0
    5.5728    8.3399    0.0000 H   0  0  0  0  0  0  0  0  0  0  0  0
    4.7664    9.3427    0.0000 H   0  0  0  0  0  0  0  0  0  0  0  0
    4.1731    8.8103    0.0000 H   0  0  0  0  0  0  0  0  0  0  0  0
    4.8540    5.4580    0.0000 H   0  0  0  0  0  0  0  0  0  0  0  0
    5.4473    5.9903    0.0000 H   0  0  0  0  0  0  0  0  0  0  0  0
    2.6402    6.9078    0.0000 H   0  0  0  0  0  0  0  0  0  0  0  0
    2.8046    6.1278    0.0000 H   0  0  0  0  0  0  0  0  0  0  0  0
    5.6910    6.7362    0.0000 H   0  0  0  0  0  0  0  0  0  0  0  0
    5.5267    7.5161    0.0000 H   0  0  0  0  0  0  0  0  0  0  0  0
    3.4772    8.1859    0.0000 H   0  0  0  0  0  0  0  0  0  0  0  0
    2.8840    7.6536    0.0000 H   0  0  0  0  0  0  0  0  0  0  0  0
    6.0556   10.4994    0.0000 H   0  0  0  0  0  0  0  0  0  0  0  0
    5.4623    9.9671    0.0000 H   0  0  0  0  0  0  0  0  0  0  0  0
    5.9069    7.8573    0.0000 H   0  0  0  0  0  0  0  0  0  0  0  0
    6.6646    7.6097    0.0000 H   0  0  0  0  0  0  0  0  0  0  0  0
    9.1672    9.4368    0.0000 H   0  0  0  0  0  0  0  0  0  0  0  0
    8.9887   11.1496    0.0000 H   0  0  0  0  0  0  0  0  0  0  0  0
    1.7320    5.7362    0.0000 H   0  0  0  0  0  0  0  0  0  0  0  0
    1.7320    2.4962    0.0000 H   0  0  0  0  0  0  0  0  0  0  0  0
    0.3291    4.9262    0.0000 H   0  0  0  0  0  0  0  0  0  0  0  0
    5.0836    0.0000    0.0000 H   0  0  0  0  0  0  0  0  0  0  0  0
  1 50  1  0  0  0  0
  2 28  1  0  0  0  0
  3 18  1  0  0  0  0
  3 24  1  0  0  0  0
  4  7  1  0  0  0  0
  4 23  1  0  0  0  0
  5 19  2  0  0  0  0
  6 10  1  0  0  0  0
  6 13  1  0  0  0  0
  6 14  1  0  0  0  0
  7 17  2  0  0  0  0
  8 11  1  0  0  0  0
  8 12  1  0  0  0  0
  8 17  1  0  0  0  0
  8 29  1  0  0  0  0
  9 10  1  1  0  0  0
  9 15  1  0  0  0  0
  9 16  1  0  0  0  0
  9 30  1  0  0  0  0
 10 31  1  0  0  0  0
 10 32  1  0  0  0  0
 11 13  1  0  0  0  0
 11 33  1  0  0  0  0
 11 34  1  0  0  0  0
 12 14  1  0  0  0  0
 12 35  1  0  0  0  0
 12 36  1  0  0  0  0
 13 37  1  0  0  0  0
 13 38  1  0  0  0  0
 14 39  1  0  0  0  0
 14 40  1  0  0  0  0
 15 18  1  0  0  0  0
 15 41  1  0  0  0  0
 15 42  1  0  0  0  0
 16 19  1  0  0  0  0
 16 43  1  0  0  0  0
 16 44  1  0  0  0  0
 17 21  1  0  0  0  0
 18 20  2  0  0  0  0
 19 20  1  0  0  0  0
 20 22  1  0  0  0  0
 21 23  2  0  0  0  0
 21 25  1  0  0  0  0
 22 24  2  0  0  0  0
 22 45  1  0  0  0  0
 23 26  1  0  0  0  0
 24 46  1  0  0  0  0
 25 27  2  0  0  0  0
 25 47  1  0  0  0  0
 26 28  2  0  0  0  0
 26 48  1  0  0  0  0
 27 28  1  0  0  0  0
 27 49  1  0  0  0  0
M  END
> <PUBCHEM_COMPOUND_CID>
44569093

> <PUBCHEM_COMPOUND_CANONICALIZED>
1

> <PUBCHEM_CACTVS_COMPLEXITY>
554

> <PUBCHEM_CACTVS_HBOND_ACCEPTOR>
6

> <PUBCHEM_CACTVS_HBOND_DONOR>
1

> <PUBCHEM_CACTVS_ROTATABLE_BOND>
3

> <PUBCHEM_CACTVS_SUBSKEYS>
AAADceB7MQAEAAAAAAAAAAAAAAAAAWJAAAA8YIAAAAAAAFgB/AAAHwAEAAAADQzhng4whtMQBECpA6xywgCCCAAkIAAomCE+TNoMJr6MtZuGOeDm4BmI6ce/zvDuAAAAAAAIAACAAAIAABAAAAAAAAAAAA==

> <PUBCHEM_IUPAC_OPENEYE_NAME>
(6S)-6-[[4-(6-fluoro-1,2-benzoxazol-3-yl)-1-piperidyl]methyl]-6,7-dihydro-5H-benzofuran-4-one;hydrochloride

> <PUBCHEM_IUPAC_CAS_NAME>
(6S)-6-[[4-(6-fluoro-1,2-benzoxazol-3-yl)-1-piperidinyl]methyl]-6,7-dihydro-5H-benzofuran-4-one;hydrochloride

> <PUBCHEM_IUPAC_NAME_MARKUP>
(6<I>S</I>)-6-[[4-(6-fluoro-1,2-benzoxazol-3-yl)piperidin-1-yl]methyl]-6,7-dihydro-5<I>H</I>-1-benzofuran-4-one;hydrochloride

> <PUBCHEM_IUPAC_NAME>
(6S)-6-[[4-(6-fluoro-1,2-benzoxazol-3-yl)piperidin-1-yl]methyl]-6,7-dihydro-5H-1-benzofuran-4-one;hydrochloride

> <PUBCHEM_IUPAC_SYSTEMATIC_NAME>
(6S)-6-[[4-(6-fluoranyl-1,2-benzoxazol-3-yl)piperidin-1-yl]methyl]-6,7-dihydro-5H-1-benzofuran-4-one;hydrochloride

> <PUBCHEM_IUPAC_TRADITIONAL_NAME>
(6S)-6-[[4-(6-fluoroindoxazen-3-yl)piperidino]methyl]-6,7-dihydro-5H-benzofuran-4-one;hydrochloride

> <PUBCHEM_IUPAC_INCHI>
InChI=1S/C21H21FN2O3.ClH/c22-15-1-2-17-20(11-15)27-23-21(17)14-3-6-24(7-4-14)12-13-9-18(25)16-5-8-26-19(16)10-13;/h1-2,5,8,11,13-14H,3-4,6-7,9-10,12H2;1H/t13-;/m1./s1

> <PUBCHEM_IUPAC_INCHIKEY>
FAGYXEUZFUSTDW-BTQNPOSSSA-N

> <PUBCHEM_EXACT_MASS>
404.1302984

> <PUBCHEM_MOLECULAR_FORMULA>
C21H22ClFN2O3

> <PUBCHEM_MOLECULAR_WEIGHT>
404.9

> <PUBCHEM_OPENEYE_CAN_SMILES>
C1CN(CCC1C2=NOC3=C2C=CC(=C3)F)CC4CC5=C(C=CO5)C(=O)C4.Cl

> <PUBCHEM_OPENEYE_ISO_SMILES>
C1CN(CCC1C2=NOC3=C2C=CC(=C3)F)C[C@H]4CC5=C(C=CO5)C(=O)C4.Cl

> <PUBCHEM_CACTVS_TPSA>
59.5

> <PUBCHEM_MONOISOTOPIC_WEIGHT>
404.1302984

> <PUBCHEM_TOTAL_CHARGE>
0

> <PUBCHEM_HEAVY_ATOM_COUNT>
28

> <PUBCHEM_ATOM_DEF_STEREO_COUNT>
1

> <PUBCHEM_ATOM_UDEF_STEREO_COUNT>
0

> <PUBCHEM_BOND_DEF_STEREO_COUNT>
0

> <PUBCHEM_BOND_UDEF_STEREO_COUNT>
0

> <PUBCHEM_ISOTOPIC_ATOM_COUNT>
0

> <PUBCHEM_COMPONENT_COUNT>
2

> <PUBCHEM_CACTVS_TAUTO_COUNT>
-1

> <PUBCHEM_COORDINATE_TYPE>
1
5
255

> <PUBCHEM_BONDANNOTATIONS>
17  21  8
18  20  8
20  22  8
21  23  8
21  25  8
22  24  8
23  26  8
25  27  8
26  28  8
27  28  8
3  18  8
3  24  8
4  23  8
4  7  8
7  17  8
9  10  5

$$$$
