45483246
  -OEChem-09292322292D

 49 52  0     1  0  0  0  0  0999 V2000
    2.0000    1.4827    0.0000 F   0  0  0  0  0  0  0  0  0  0  0  0
    5.4641   -1.5173    0.0000 O   0  0  0  0  0  0  0  0  0  0  0  0
   10.6603   -1.5173    0.0000 O   0  0  0  0  0  0  0  0  0  0  0  0
    8.0622    0.9827    0.0000 N   0  0  0  0  0  0  0  0  0  0  0  0
   12.4202    1.5173    0.0000 N   0  0  0  0  0  0  0  0  0  0  0  0
   13.3263   -0.0381    0.0000 N   0  0  0  0  0  0  0  0  0  0  0  0
    9.7942    0.9827    0.0000 C   0  0  3  0  0  0  0  0  0  0  0  0
    6.3301   -0.0173    0.0000 C   0  0  0  0  0  0  0  0  0  0  0  0
    8.9282    1.4827    0.0000 C   0  0  0  0  0  0  0  0  0  0  0  0
    7.1962    1.4827    0.0000 C   0  0  0  0  0  0  0  0  0  0  0  0
    8.0622   -0.0173    0.0000 C   0  0  0  0  0  0  0  0  0  0  0  0
    6.3301    0.9827    0.0000 C   0  0  0  0  0  0  0  0  0  0  0  0
    7.1962   -0.5173    0.0000 C   0  0  0  0  0  0  0  0  0  0  0  0
   10.6603    1.4827    0.0000 C   0  0  0  0  0  0  0  0  0  0  0  0
    9.7942   -0.0173    0.0000 C   0  0  0  0  0  0  0  0  0  0  0  0
    5.4641   -0.5173    0.0000 C   0  0  0  0  0  0  0  0  0  0  0  0
   11.5263    0.9827    0.0000 C   0  0  0  0  0  0  0  0  0  0  0  0
   10.6603   -0.5173    0.0000 C   0  0  0  0  0  0  0  0  0  0  0  0
   11.5263   -0.0173    0.0000 C   0  0  0  0  0  0  0  0  0  0  0  0
    4.5981   -0.0173    0.0000 C   0  0  0  0  0  0  0  0  0  0  0  0
   12.4202   -0.5520    0.0000 C   0  0  0  0  0  0  0  0  0  0  0  0
    3.7320   -0.5173    0.0000 C   0  0  0  0  0  0  0  0  0  0  0  0
    4.5981    0.9827    0.0000 C   0  0  0  0  0  0  0  0  0  0  0  0
   13.3263    1.0035    0.0000 C   0  0  0  0  0  0  0  0  0  0  0  0
    2.8660   -0.0173    0.0000 C   0  0  0  0  0  0  0  0  0  0  0  0
    3.7320    1.4827    0.0000 C   0  0  0  0  0  0  0  0  0  0  0  0
    2.8660    0.9827    0.0000 C   0  0  0  0  0  0  0  0  0  0  0  0
    9.2573    0.6727    0.0000 H   0  0  0  0  0  0  0  0  0  0  0  0
    5.7932    0.2927    0.0000 H   0  0  0  0  0  0  0  0  0  0  0  0
    9.3267    1.9576    0.0000 H   0  0  0  0  0  0  0  0  0  0  0  0
    8.5297    1.9576    0.0000 H   0  0  0  0  0  0  0  0  0  0  0  0
    7.5947    1.9576    0.0000 H   0  0  0  0  0  0  0  0  0  0  0  0
    6.7976    1.9576    0.0000 H   0  0  0  0  0  0  0  0  0  0  0  0
    8.2742   -0.5999    0.0000 H   0  0  0  0  0  0  0  0  0  0  0  0
    8.6728    0.0903    0.0000 H   0  0  0  0  0  0  0  0  0  0  0  0
    6.1181    1.5653    0.0000 H   0  0  0  0  0  0  0  0  0  0  0  0
    5.7196    0.8750    0.0000 H   0  0  0  0  0  0  0  0  0  0  0  0
    6.7976   -0.9923    0.0000 H   0  0  0  0  0  0  0  0  0  0  0  0
    7.5947   -0.9923    0.0000 H   0  0  0  0  0  0  0  0  0  0  0  0
   11.0588    1.9576    0.0000 H   0  0  0  0  0  0  0  0  0  0  0  0
   10.2617    1.9576    0.0000 H   0  0  0  0  0  0  0  0  0  0  0  0
    9.1836    0.0903    0.0000 H   0  0  0  0  0  0  0  0  0  0  0  0
    9.5822   -0.5999    0.0000 H   0  0  0  0  0  0  0  0  0  0  0  0
   12.4131   -1.1720    0.0000 H   0  0  0  0  0  0  0  0  0  0  0  0
    3.7320   -1.1373    0.0000 H   0  0  0  0  0  0  0  0  0  0  0  0
    5.1350    1.2927    0.0000 H   0  0  0  0  0  0  0  0  0  0  0  0
   13.8620    1.3156    0.0000 H   0  0  0  0  0  0  0  0  0  0  0  0
    2.3291   -0.3273    0.0000 H   0  0  0  0  0  0  0  0  0  0  0  0
    3.7320    2.1027    0.0000 H   0  0  0  0  0  0  0  0  0  0  0  0
  1 27  1  0  0  0  0
  2 16  2  0  0  0  0
  3 18  2  0  0  0  0
  4  9  1  0  0  0  0
  4 10  1  0  0  0  0
  4 11  1  0  0  0  0
  5 17  2  0  0  0  0
  5 24  1  0  0  0  0
  6 21  1  0  0  0  0
  6 24  2  0  0  0  0
  7  9  1  0  0  0  0
  7 14  1  0  0  0  0
  7 15  1  0  0  0  0
  7 28  1  0  0  0  0
  8 12  1  0  0  0  0
  8 13  1  0  0  0  0
  8 16  1  0  0  0  0
  8 29  1  0  0  0  0
  9 30  1  0  0  0  0
  9 31  1  0  0  0  0
 10 12  1  0  0  0  0
 10 32  1  0  0  0  0
 10 33  1  0  0  0  0
 11 13  1  0  0  0  0
 11 34  1  0  0  0  0
 11 35  1  0  0  0  0
 12 36  1  0  0  0  0
 12 37  1  0  0  0  0
 13 38  1  0  0  0  0
 13 39  1  0  0  0  0
 14 17  1  0  0  0  0
 14 40  1  0  0  0  0
 14 41  1  0  0  0  0
 15 18  1  0  0  0  0
 15 42  1  0  0  0  0
 15 43  1  0  0  0  0
 16 20  1  0  0  0  0
 17 19  1  0  0  0  0
 18 19  1  0  0  0  0
 19 21  2  0  0  0  0
 20 22  2  0  0  0  0
 20 23  1  0  0  0  0
 21 44  1  0  0  0  0
 22 25  1  0  0  0  0
 22 45  1  0  0  0  0
 23 26  2  0  0  0  0
 23 46  1  0  0  0  0
 24 47  1  0  0  0  0
 25 27  2  0  0  0  0
 25 48  1  0  0  0  0
 26 27  1  0  0  0  0
 26 49  1  0  0  0  0
M  END
> <PUBCHEM_COMPOUND_CID>
45483246

> <PUBCHEM_COMPOUND_CANONICALIZED>
1

> <PUBCHEM_CACTVS_COMPLEXITY>
542

> <PUBCHEM_CACTVS_HBOND_ACCEPTOR>
6

> <PUBCHEM_CACTVS_HBOND_DONOR>
0

> <PUBCHEM_CACTVS_ROTATABLE_BOND>
4

> <PUBCHEM_CACTVS_SUBSKEYS>
AAADceB7MQAAAAAAAAAAAAAAAAAAAAAAAAA8eIEAAAAAAACxwAAAHwAAAAAADQzBngw9kJcIEACoA7R3ZACCgCk1AKAJ2CE4RNiIKLrA3dCEJYhogALIyeccicCeAAAAAAAAAACAAACAAAQAAAAAAAAAAA==

> <PUBCHEM_IUPAC_OPENEYE_NAME>
7-[[4-(4-fluorobenzoyl)-1-piperidyl]methyl]-7,8-dihydro-6H-quinazolin-5-one

> <PUBCHEM_IUPAC_CAS_NAME>
7-[[4-[(4-fluorophenyl)-oxomethyl]-1-piperidinyl]methyl]-7,8-dihydro-6H-quinazolin-5-one

> <PUBCHEM_IUPAC_NAME_MARKUP>
7-[[4-(4-fluorobenzoyl)piperidin-1-yl]methyl]-7,8-dihydro-6<I>H</I>-quinazolin-5-one

> <PUBCHEM_IUPAC_NAME>
7-[[4-(4-fluorobenzoyl)piperidin-1-yl]methyl]-7,8-dihydro-6H-quinazolin-5-one

> <PUBCHEM_IUPAC_SYSTEMATIC_NAME>
7-[[4-(4-fluorophenyl)carbonylpiperidin-1-yl]methyl]-7,8-dihydro-6H-quinazolin-5-one

> <PUBCHEM_IUPAC_TRADITIONAL_NAME>
7-[[4-(4-fluorobenzoyl)piperidino]methyl]-7,8-dihydro-6H-quinazolin-5-one

> <PUBCHEM_IUPAC_INCHI>
InChI=1S/C21H22FN3O2/c22-17-3-1-15(2-4-17)21(27)16-5-7-25(8-6-16)12-14-9-19-18(20(26)10-14)11-23-13-24-19/h1-4,11,13-14,16H,5-10,12H2

> <PUBCHEM_IUPAC_INCHIKEY>
APGISPPDWLSWQA-UHFFFAOYSA-N

> <PUBCHEM_XLOGP3_AA>
2.2

> <PUBCHEM_EXACT_MASS>
367.16960512

> <PUBCHEM_MOLECULAR_FORMULA>
C21H22FN3O2

> <PUBCHEM_MOLECULAR_WEIGHT>
367.4

> <PUBCHEM_OPENEYE_CAN_SMILES>
C1CN(CCC1C(=O)C2=CC=C(C=C2)F)CC3CC4=NC=NC=C4C(=O)C3

> <PUBCHEM_OPENEYE_ISO_SMILES>
C1CN(CCC1C(=O)C2=CC=C(C=C2)F)CC3CC4=NC=NC=C4C(=O)C3

> <PUBCHEM_CACTVS_TPSA>
63.2

> <PUBCHEM_MONOISOTOPIC_WEIGHT>
367.16960512

> <PUBCHEM_TOTAL_CHARGE>
0

> <PUBCHEM_HEAVY_ATOM_COUNT>
27

> <PUBCHEM_ATOM_DEF_STEREO_COUNT>
0

> <PUBCHEM_ATOM_UDEF_STEREO_COUNT>
1

> <PUBCHEM_BOND_DEF_STEREO_COUNT>
0

> <PUBCHEM_BOND_UDEF_STEREO_COUNT>
0

> <PUBCHEM_ISOTOPIC_ATOM_COUNT>
0

> <PUBCHEM_COMPONENT_COUNT>
1

> <PUBCHEM_CACTVS_TAUTO_COUNT>
-1

> <PUBCHEM_COORDINATE_TYPE>
1
5
255

> <PUBCHEM_BONDANNOTATIONS>
17  19  8
19  21  8
20  22  8
20  23  8
22  25  8
23  26  8
25  27  8
26  27  8
5  17  8
5  24  8
6  21  8
6  24  8
7  9  3

$$$$
