45260733
  -OEChem-09292322142D

 41 42  0     1  0  0  0  0  0999 V2000
    3.0064    0.0000    0.0000 Cl  0  0  0  0  0  0  0  0  0  0  0  0
    6.4747    5.2299    0.0000 O   0  0  0  0  0  0  0  0  0  0  0  0
    6.4747    3.1816    0.0000 O   0  0  0  0  0  0  0  0  0  0  0  0
    1.6200    4.2057    0.0000 N   0  0  3  0  0  0  0  0  0  0  0  0
    3.0288    5.3292    0.0000 C   0  0  3  0  0  0  0  0  0  0  0  0
    2.0539    5.1067    0.0000 C   0  0  0  0  0  0  0  0  0  0  0  0
    3.8106    4.7057    0.0000 C   0  0  0  0  0  0  0  0  0  0  0  0
    2.0539    3.3048    0.0000 C   0  0  0  0  0  0  0  0  0  0  0  0
    3.0288    3.0822    0.0000 C   0  0  0  0  0  0  0  0  0  0  0  0
    3.8106    3.7057    0.0000 C   0  0  0  0  0  0  0  0  0  0  0  0
    3.2513    6.3042    0.0000 C   0  0  0  0  0  0  0  0  0  0  0  0
    4.7046    5.2404    0.0000 C   0  0  0  0  0  0  0  0  0  0  0  0
    4.7046    3.1711    0.0000 C   0  0  0  0  0  0  0  0  0  0  0  0
    0.6200    4.2057    0.0000 C   0  0  0  0  0  0  0  0  0  0  0  0
    5.6106    4.7266    0.0000 C   0  0  0  0  0  0  0  0  0  0  0  0
    2.5183    6.9843    0.0000 C   0  0  0  0  0  0  0  0  0  0  0  0
    4.2069    6.5989    0.0000 C   0  0  0  0  0  0  0  0  0  0  0  0
    5.6106    3.6849    0.0000 C   0  0  0  0  0  0  0  0  0  0  0  0
    2.7408    7.9593    0.0000 C   0  0  0  0  0  0  0  0  0  0  0  0
    4.4294    7.5738    0.0000 C   0  0  0  0  0  0  0  0  0  0  0  0
    3.6964    8.2540    0.0000 C   0  0  0  0  0  0  0  0  0  0  0  0
    2.5904    5.7676    0.0000 H   0  0  0  0  0  0  0  0  0  0  0  0
    2.0539    5.7267    0.0000 H   0  0  0  0  0  0  0  0  0  0  0  0
    1.4494    5.2447    0.0000 H   0  0  0  0  0  0  0  0  0  0  0  0
    1.4494    3.1668    0.0000 H   0  0  0  0  0  0  0  0  0  0  0  0
    2.0539    2.6848    0.0000 H   0  0  0  0  0  0  0  0  0  0  0  0
    2.7598    2.5236    0.0000 H   0  0  0  0  0  0  0  0  0  0  0  0
    3.5136    2.6957    0.0000 H   0  0  0  0  0  0  0  0  0  0  0  0
    4.6974    5.8604    0.0000 H   0  0  0  0  0  0  0  0  0  0  0  0
    4.6974    2.5511    0.0000 H   0  0  0  0  0  0  0  0  0  0  0  0
    0.6200    4.8257    0.0000 H   0  0  0  0  0  0  0  0  0  0  0  0
    0.0000    4.2057    0.0000 H   0  0  0  0  0  0  0  0  0  0  0  0
    0.6200    3.5857    0.0000 H   0  0  0  0  0  0  0  0  0  0  0  0
    1.9258    6.8016    0.0000 H   0  0  0  0  0  0  0  0  0  0  0  0
    4.6614    6.1772    0.0000 H   0  0  0  0  0  0  0  0  0  0  0  0
    2.2863    8.3810    0.0000 H   0  0  0  0  0  0  0  0  0  0  0  0
    5.0219    7.7566    0.0000 H   0  0  0  0  0  0  0  0  0  0  0  0
    3.8343    8.8585    0.0000 H   0  0  0  0  0  0  0  0  0  0  0  0
    7.0129    4.9220    0.0000 H   0  0  0  0  0  0  0  0  0  0  0  0
    6.4723    2.5616    0.0000 H   0  0  0  0  0  0  0  0  0  0  0  0
    4.0064    0.0000    0.0000 H   0  0  0  0  0  0  0  0  0  0  0  0
  1 41  1  0  0  0  0
  2 15  1  0  0  0  0
  2 39  1  0  0  0  0
  3 18  1  0  0  0  0
  3 40  1  0  0  0  0
  4  6  1  0  0  0  0
  4  8  1  0  0  0  0
  4 14  1  0  0  0  0
  5  6  1  0  0  0  0
  5  7  1  0  0  0  0
  5 11  1  0  0  0  0
  5 22  1  0  0  0  0
  6 23  1  0  0  0  0
  6 24  1  0  0  0  0
  7 10  1  0  0  0  0
  7 12  2  0  0  0  0
  8  9  1  0  0  0  0
  8 25  1  0  0  0  0
  8 26  1  0  0  0  0
  9 10  1  0  0  0  0
  9 27  1  0  0  0  0
  9 28  1  0  0  0  0
 10 13  2  0  0  0  0
 11 16  2  0  0  0  0
 11 17  1  0  0  0  0
 12 15  1  0  0  0  0
 12 29  1  0  0  0  0
 13 18  1  0  0  0  0
 13 30  1  0  0  0  0
 14 31  1  0  0  0  0
 14 32  1  0  0  0  0
 14 33  1  0  0  0  0
 15 18  2  0  0  0  0
 16 19  1  0  0  0  0
 16 34  1  0  0  0  0
 17 20  2  0  0  0  0
 17 35  1  0  0  0  0
 19 21  2  0  0  0  0
 19 36  1  0  0  0  0
 20 21  1  0  0  0  0
 20 37  1  0  0  0  0
 21 38  1  0  0  0  0
M  END
> <PUBCHEM_COMPOUND_CID>
45260733

> <PUBCHEM_COMPOUND_CANONICALIZED>
1

> <PUBCHEM_CACTVS_COMPLEXITY>
316

> <PUBCHEM_CACTVS_HBOND_ACCEPTOR>
3

> <PUBCHEM_CACTVS_HBOND_DONOR>
3

> <PUBCHEM_CACTVS_ROTATABLE_BOND>
1

> <PUBCHEM_CACTVS_SUBSKEYS>
AAADceB6MAAEAAAAAAAAAAAAAAAAAAAAAAAwYAAABYAAAAABQAAAHgAACAAADQTBmAQyBoMAAgCAAiBCAAACAAAgIAAIiAAOiIgJJiKCkROEcAEkwBGJmAeQ0PIOoAABAAAQQABAAAIAACCAAAAAAAAAAA==

> <PUBCHEM_IUPAC_OPENEYE_NAME>
3-methyl-5-phenyl-1,2,4,5-tetrahydro-3-benzazepine-7,8-diol;hydrochloride

> <PUBCHEM_IUPAC_CAS_NAME>
3-methyl-5-phenyl-1,2,4,5-tetrahydro-3-benzazepine-7,8-diol;hydrochloride

> <PUBCHEM_IUPAC_NAME_MARKUP>
3-methyl-5-phenyl-1,2,4,5-tetrahydro-3-benzazepine-7,8-diol;hydrochloride

> <PUBCHEM_IUPAC_NAME>
3-methyl-5-phenyl-1,2,4,5-tetrahydro-3-benzazepine-7,8-diol;hydrochloride

> <PUBCHEM_IUPAC_SYSTEMATIC_NAME>
3-methyl-5-phenyl-1,2,4,5-tetrahydro-3-benzazepine-7,8-diol;hydrochloride

> <PUBCHEM_IUPAC_TRADITIONAL_NAME>
3-methyl-5-phenyl-1,2,4,5-tetrahydro-3-benzazepine-7,8-diol;hydrochloride

> <PUBCHEM_IUPAC_INCHI>
InChI=1S/C17H19NO2.ClH/c1-18-8-7-13-9-16(19)17(20)10-14(13)15(11-18)12-5-3-2-4-6-12;/h2-6,9-10,15,19-20H,7-8,11H2,1H3;1H

> <PUBCHEM_IUPAC_INCHIKEY>
SLYPQAGXLIHTFZ-UHFFFAOYSA-N

> <PUBCHEM_EXACT_MASS>
305.1182566

> <PUBCHEM_MOLECULAR_FORMULA>
C17H20ClNO2

> <PUBCHEM_MOLECULAR_WEIGHT>
305.8

> <PUBCHEM_OPENEYE_CAN_SMILES>
CN1CCC2=CC(=C(C=C2C(C1)C3=CC=CC=C3)O)O.Cl

> <PUBCHEM_OPENEYE_ISO_SMILES>
CN1CCC2=CC(=C(C=C2C(C1)C3=CC=CC=C3)O)O.Cl

> <PUBCHEM_CACTVS_TPSA>
43.7

> <PUBCHEM_MONOISOTOPIC_WEIGHT>
305.1182566

> <PUBCHEM_TOTAL_CHARGE>
0

> <PUBCHEM_HEAVY_ATOM_COUNT>
21

> <PUBCHEM_ATOM_DEF_STEREO_COUNT>
0

> <PUBCHEM_ATOM_UDEF_STEREO_COUNT>
1

> <PUBCHEM_BOND_DEF_STEREO_COUNT>
0

> <PUBCHEM_BOND_UDEF_STEREO_COUNT>
0

> <PUBCHEM_ISOTOPIC_ATOM_COUNT>
0

> <PUBCHEM_COMPONENT_COUNT>
2

> <PUBCHEM_CACTVS_TAUTO_COUNT>
-1

> <PUBCHEM_COORDINATE_TYPE>
1
5
255

> <PUBCHEM_BONDANNOTATIONS>
10  13  8
11  16  8
11  17  8
12  15  8
13  18  8
15  18  8
16  19  8
17  20  8
19  21  8
20  21  8
5  11  3
7  10  8
7  12  8

$$$$
