164613651
  -OEChem-09292322432D

 44 44  0     1  0  0  0  0  0999 V2000
    7.0841    1.6200    0.0000 Cl  0  0  0  0  0  0  0  0  0  0  0  0
    0.0000    3.9560    0.0000 Cl  0  0  0  0  0  0  0  0  0  0  0  0
    4.4860    5.1200    0.0000 O   0  0  0  0  0  0  0  0  0  0  0  0
    7.0841    3.6200    0.0000 O   0  0  0  0  0  0  0  0  0  0  0  0
    3.6200    3.6200    0.0000 O   0  0  0  0  0  0  0  0  0  0  0  0
    7.1886    7.6145    0.0000 N   0  0  0  0  0  0  0  0  0  0  0  0
    6.2181    5.1200    0.0000 N   0  0  0  0  0  0  0  0  0  0  0  0
    7.0841    6.6200    0.0000 C   0  0  1  0  0  0  0  0  0  0  0  0
    7.9976    6.2133    0.0000 C   0  0  0  0  0  0  0  0  0  0  0  0
    8.6668    6.9564    0.0000 C   0  0  0  0  0  0  0  0  0  0  0  0
    8.1668    7.8224    0.0000 C   0  0  0  0  0  0  0  0  0  0  0  0
    6.2181    6.1200    0.0000 C   0  0  0  0  0  0  0  0  0  0  0  0
    5.3520    4.6200    0.0000 C   0  0  0  0  0  0  0  0  0  0  0  0
    5.3520    3.6200    0.0000 C   0  0  0  0  0  0  0  0  0  0  0  0
    4.4860    3.1200    0.0000 C   0  0  0  0  0  0  0  0  0  0  0  0
    4.4860    2.1200    0.0000 C   0  0  0  0  0  0  0  0  0  0  0  0
    6.2181    3.1200    0.0000 C   0  0  0  0  0  0  0  0  0  0  0  0
    3.6200    1.6200    0.0000 C   0  0  0  0  0  0  0  0  0  0  0  0
    5.3520    1.6200    0.0000 C   0  0  0  0  0  0  0  0  0  0  0  0
    6.2181    2.1200    0.0000 C   0  0  0  0  0  0  0  0  0  0  0  0
    3.6200    0.6200    0.0000 C   0  0  0  0  0  0  0  0  0  0  0  0
    7.9501    3.1200    0.0000 C   0  0  0  0  0  0  0  0  0  0  0  0
    6.5641    6.9577    0.0000 H   0  0  0  0  0  0  0  0  0  0  0  0
    7.6876    5.6763    0.0000 H   0  0  0  0  0  0  0  0  0  0  0  0
    8.4992    5.8488    0.0000 H   0  0  0  0  0  0  0  0  0  0  0  0
    9.0816    6.4957    0.0000 H   0  0  0  0  0  0  0  0  0  0  0  0
    9.1684    7.3208    0.0000 H   0  0  0  0  0  0  0  0  0  0  0  0
    8.7332    8.0746    0.0000 H   0  0  0  0  0  0  0  0  0  0  0  0
    7.9752    8.4121    0.0000 H   0  0  0  0  0  0  0  0  0  0  0  0
    6.7279    8.0294    0.0000 H   0  0  0  0  0  0  0  0  0  0  0  0
    6.0060    6.7026    0.0000 H   0  0  0  0  0  0  0  0  0  0  0  0
    5.6075    6.0123    0.0000 H   0  0  0  0  0  0  0  0  0  0  0  0
    6.7550    4.8100    0.0000 H   0  0  0  0  0  0  0  0  0  0  0  0
    3.4080    2.2026    0.0000 H   0  0  0  0  0  0  0  0  0  0  0  0
    3.0094    1.5123    0.0000 H   0  0  0  0  0  0  0  0  0  0  0  0
    5.3520    1.0000    0.0000 H   0  0  0  0  0  0  0  0  0  0  0  0
    3.0000    0.6200    0.0000 H   0  0  0  0  0  0  0  0  0  0  0  0
    3.6200    0.0000    0.0000 H   0  0  0  0  0  0  0  0  0  0  0  0
    4.2400    0.6200    0.0000 H   0  0  0  0  0  0  0  0  0  0  0  0
    3.0831    3.3100    0.0000 H   0  0  0  0  0  0  0  0  0  0  0  0
    7.6401    2.5831    0.0000 H   0  0  0  0  0  0  0  0  0  0  0  0
    8.4871    2.8100    0.0000 H   0  0  0  0  0  0  0  0  0  0  0  0
    8.2601    3.6569    0.0000 H   0  0  0  0  0  0  0  0  0  0  0  0
    1.0000    3.9560    0.0000 H   0  0  0  0  0  0  0  0  0  0  0  0
  1 20  1  0  0  0  0
  2 44  1  0  0  0  0
  3 13  2  0  0  0  0
  4 17  1  0  0  0  0
  4 22  1  0  0  0  0
  5 15  1  0  0  0  0
  5 40  1  0  0  0  0
  6  8  1  0  0  0  0
  6 11  1  0  0  0  0
  6 30  1  0  0  0  0
  7 12  1  0  0  0  0
  7 13  1  0  0  0  0
  7 33  1  0  0  0  0
  8  9  1  0  0  0  0
  8 12  1  1  0  0  0
  8 23  1  0  0  0  0
  9 10  1  0  0  0  0
  9 24  1  0  0  0  0
  9 25  1  0  0  0  0
 10 11  1  0  0  0  0
 10 26  1  0  0  0  0
 10 27  1  0  0  0  0
 11 28  1  0  0  0  0
 11 29  1  0  0  0  0
 12 31  1  0  0  0  0
 12 32  1  0  0  0  0
 13 14  1  0  0  0  0
 14 15  2  0  0  0  0
 14 17  1  0  0  0  0
 15 16  1  0  0  0  0
 16 18  1  0  0  0  0
 16 19  2  0  0  0  0
 17 20  2  0  0  0  0
 18 21  1  0  0  0  0
 18 34  1  0  0  0  0
 18 35  1  0  0  0  0
 19 20  1  0  0  0  0
 19 36  1  0  0  0  0
 21 37  1  0  0  0  0
 21 38  1  0  0  0  0
 21 39  1  0  0  0  0
 22 41  1  0  0  0  0
 22 42  1  0  0  0  0
 22 43  1  0  0  0  0
M  END
> <PUBCHEM_COMPOUND_CID>
164613651

> <PUBCHEM_COMPOUND_CANONICALIZED>
1

> <PUBCHEM_CACTVS_COMPLEXITY>
356

> <PUBCHEM_CACTVS_HBOND_ACCEPTOR>
4

> <PUBCHEM_CACTVS_HBOND_DONOR>
4

> <PUBCHEM_CACTVS_ROTATABLE_BOND>
5

> <PUBCHEM_CACTVS_SUBSKEYS>
AAADceBzMAAGAAAAAAAAAAAAAAAAAWAAAAAwAAAAAAAAAAABAAAAHgIQCAAADC7BmCYyBoLABgCIAiFSEACCCAAkJUAAiIEMD8gMZzeHtxuUcWhn9hWIuQeY6OyOICACKAAICABAQARQABAQAAAAAAAAAA==

> <PUBCHEM_IUPAC_OPENEYE_NAME>
5-chloro-3-ethyl-2-hydroxy-6-methoxy-N-[[(2S)-pyrrolidin-2-yl]methyl]benzamide;hydrochloride

> <PUBCHEM_IUPAC_CAS_NAME>
5-chloro-3-ethyl-2-hydroxy-6-methoxy-N-[[(2S)-2-pyrrolidinyl]methyl]benzamide;hydrochloride

> <PUBCHEM_IUPAC_NAME_MARKUP>
5-chloro-3-ethyl-2-hydroxy-6-methoxy-<I>N</I>-[[(2<I>S</I>)-pyrrolidin-2-yl]methyl]benzamide;hydrochloride

> <PUBCHEM_IUPAC_NAME>
5-chloro-3-ethyl-2-hydroxy-6-methoxy-N-[[(2S)-pyrrolidin-2-yl]methyl]benzamide;hydrochloride

> <PUBCHEM_IUPAC_SYSTEMATIC_NAME>
3-chloranyl-5-ethyl-2-methoxy-6-oxidanyl-N-[[(2S)-pyrrolidin-2-yl]methyl]benzamide;hydrochloride

> <PUBCHEM_IUPAC_TRADITIONAL_NAME>
5-chloro-3-ethyl-2-hydroxy-6-methoxy-N-[[(2S)-pyrrolidin-2-yl]methyl]benzamide;hydrochloride

> <PUBCHEM_IUPAC_INCHI>
InChI=1S/C15H21ClN2O3.ClH/c1-3-9-7-11(16)14(21-2)12(13(9)19)15(20)18-8-10-5-4-6-17-10;/h7,10,17,19H,3-6,8H2,1-2H3,(H,18,20);1H/t10-;/m0./s1

> <PUBCHEM_IUPAC_INCHIKEY>
YIKQBBPHPBPWCJ-PPHPATTJSA-N

> <PUBCHEM_EXACT_MASS>
348.1007480

> <PUBCHEM_MOLECULAR_FORMULA>
C15H22Cl2N2O3

> <PUBCHEM_MOLECULAR_WEIGHT>
349.2

> <PUBCHEM_OPENEYE_CAN_SMILES>
CCC1=CC(=C(C(=C1O)C(=O)NCC2CCCN2)OC)Cl.Cl

> <PUBCHEM_OPENEYE_ISO_SMILES>
CCC1=CC(=C(C(=C1O)C(=O)NC[C@@H]2CCCN2)OC)Cl.Cl

> <PUBCHEM_CACTVS_TPSA>
70.6

> <PUBCHEM_MONOISOTOPIC_WEIGHT>
348.1007480

> <PUBCHEM_TOTAL_CHARGE>
0

> <PUBCHEM_HEAVY_ATOM_COUNT>
22

> <PUBCHEM_ATOM_DEF_STEREO_COUNT>
1

> <PUBCHEM_ATOM_UDEF_STEREO_COUNT>
0

> <PUBCHEM_BOND_DEF_STEREO_COUNT>
0

> <PUBCHEM_BOND_UDEF_STEREO_COUNT>
0

> <PUBCHEM_ISOTOPIC_ATOM_COUNT>
0

> <PUBCHEM_COMPONENT_COUNT>
2

> <PUBCHEM_CACTVS_TAUTO_COUNT>
-1

> <PUBCHEM_COORDINATE_TYPE>
1
5
255

> <PUBCHEM_BONDANNOTATIONS>
14  15  8
14  17  8
15  16  8
16  19  8
17  20  8
19  20  8
8  12  5

$$$$
