135887936
  -OEChem-09292322502D

 65 67  0     0  0  0  0  0  0999 V2000
    3.2018    7.1659    0.0000 O   0  0  0  0  0  0  0  0  0  0  0  0
    4.9004    1.5000    0.0000 O   0  0  0  0  0  0  0  0  0  0  0  0
    9.2306    1.0000    0.0000 O   0  0  0  0  0  0  0  0  0  0  0  0
    5.7665    0.0000    0.0000 O   0  0  0  0  0  0  0  0  0  0  0  0
    8.3645    2.5000    0.0000 O   0  0  0  0  0  0  0  0  0  0  0  0
    9.2640    5.6659    0.0000 N   0  0  0  0  0  0  0  0  0  0  0  0
   10.9960    6.6659    0.0000 N   0  0  0  0  0  0  0  0  0  0  0  0
   11.8620    8.1659    0.0000 N   0  0  0  0  0  0  0  0  0  0  0  0
   12.7281    6.6659    0.0000 N   0  0  0  0  0  0  0  0  0  0  0  0
    4.9338    5.1659    0.0000 N   0  0  0  0  0  0  0  0  0  0  0  0
    3.2018    5.1659    0.0000 N   0  0  0  0  0  0  0  0  0  0  0  0
   10.1300    5.1659    0.0000 C   0  0  0  0  0  0  0  0  0  0  0  0
    9.2640    6.6659    0.0000 C   0  0  0  0  0  0  0  0  0  0  0  0
   10.9960    5.6659    0.0000 C   0  0  0  0  0  0  0  0  0  0  0  0
   10.1300    7.1659    0.0000 C   0  0  0  0  0  0  0  0  0  0  0  0
    8.3979    5.1659    0.0000 C   0  0  0  0  0  0  0  0  0  0  0  0
    7.5319    5.6659    0.0000 C   0  0  0  0  0  0  0  0  0  0  0  0
    6.6659    5.1659    0.0000 C   0  0  0  0  0  0  0  0  0  0  0  0
   11.8620    7.1659    0.0000 C   0  0  0  0  0  0  0  0  0  0  0  0
    5.7998    5.6659    0.0000 C   0  0  0  0  0  0  0  0  0  0  0  0
    4.0678    5.6659    0.0000 C   0  0  0  0  0  0  0  0  0  0  0  0
   12.7281    8.6659    0.0000 C   0  0  0  0  0  0  0  0  0  0  0  0
   13.5941    7.1659    0.0000 C   0  0  0  0  0  0  0  0  0  0  0  0
    4.0678    6.6659    0.0000 C   0  0  0  0  0  0  0  0  0  0  0  0
   13.5941    8.1659    0.0000 C   0  0  0  0  0  0  0  0  0  0  0  0
    2.3358    5.6659    0.0000 C   0  0  0  0  0  0  0  0  0  0  0  0
    2.3358    6.6659    0.0000 C   0  0  0  0  0  0  0  0  0  0  0  0
    1.4418    5.1312    0.0000 C   0  0  0  0  0  0  0  0  0  0  0  0
    1.4418    7.2005    0.0000 C   0  0  0  0  0  0  0  0  0  0  0  0
    0.5357    5.6451    0.0000 C   0  0  0  0  0  0  0  0  0  0  0  0
    0.5357    6.6867    0.0000 C   0  0  0  0  0  0  0  0  0  0  0  0
    6.6325    1.5000    0.0000 C   0  0  0  0  0  0  0  0  0  0  0  0
    7.4985    1.0000    0.0000 C   0  0  0  0  0  0  0  0  0  0  0  0
    5.7665    1.0000    0.0000 C   0  0  0  0  0  0  0  0  0  0  0  0
    8.3645    1.5000    0.0000 C   0  0  0  0  0  0  0  0  0  0  0  0
    9.7314    4.6909    0.0000 H   0  0  0  0  0  0  0  0  0  0  0  0
   10.5285    4.6909    0.0000 H   0  0  0  0  0  0  0  0  0  0  0  0
    9.0519    7.2485    0.0000 H   0  0  0  0  0  0  0  0  0  0  0  0
    8.6534    6.5582    0.0000 H   0  0  0  0  0  0  0  0  0  0  0  0
   11.2081    5.0833    0.0000 H   0  0  0  0  0  0  0  0  0  0  0  0
   11.6066    5.7735    0.0000 H   0  0  0  0  0  0  0  0  0  0  0  0
   10.5285    7.6408    0.0000 H   0  0  0  0  0  0  0  0  0  0  0  0
    9.7314    7.6408    0.0000 H   0  0  0  0  0  0  0  0  0  0  0  0
    7.9994    4.6909    0.0000 H   0  0  0  0  0  0  0  0  0  0  0  0
    8.7964    4.6909    0.0000 H   0  0  0  0  0  0  0  0  0  0  0  0
    7.9304    6.1408    0.0000 H   0  0  0  0  0  0  0  0  0  0  0  0
    7.1334    6.1408    0.0000 H   0  0  0  0  0  0  0  0  0  0  0  0
    6.2673    4.6909    0.0000 H   0  0  0  0  0  0  0  0  0  0  0  0
    7.0644    4.6909    0.0000 H   0  0  0  0  0  0  0  0  0  0  0  0
    6.1984    6.1408    0.0000 H   0  0  0  0  0  0  0  0  0  0  0  0
    5.4013    6.1408    0.0000 H   0  0  0  0  0  0  0  0  0  0  0  0
   12.7281    9.2859    0.0000 H   0  0  0  0  0  0  0  0  0  0  0  0
   14.1310    6.8559    0.0000 H   0  0  0  0  0  0  0  0  0  0  0  0
    4.6784    6.5582    0.0000 H   0  0  0  0  0  0  0  0  0  0  0  0
    4.2798    7.2485    0.0000 H   0  0  0  0  0  0  0  0  0  0  0  0
   14.1310    8.4759    0.0000 H   0  0  0  0  0  0  0  0  0  0  0  0
    3.2018    4.5459    0.0000 H   0  0  0  0  0  0  0  0  0  0  0  0
    1.4490    4.5113    0.0000 H   0  0  0  0  0  0  0  0  0  0  0  0
    1.4490    7.8205    0.0000 H   0  0  0  0  0  0  0  0  0  0  0  0
    0.0000    5.3330    0.0000 H   0  0  0  0  0  0  0  0  0  0  0  0
    0.0000    6.9988    0.0000 H   0  0  0  0  0  0  0  0  0  0  0  0
    6.6325    2.1200    0.0000 H   0  0  0  0  0  0  0  0  0  0  0  0
    7.4985    0.3800    0.0000 H   0  0  0  0  0  0  0  0  0  0  0  0
    4.3635    1.1900    0.0000 H   0  0  0  0  0  0  0  0  0  0  0  0
    9.7675    1.3100    0.0000 H   0  0  0  0  0  0  0  0  0  0  0  0
  1 24  1  0  0  0  0
  1 27  1  0  0  0  0
  2 34  1  0  0  0  0
  2 64  1  0  0  0  0
  3 35  1  0  0  0  0
  3 65  1  0  0  0  0
  4 34  2  0  0  0  0
  5 35  2  0  0  0  0
  6 12  1  0  0  0  0
  6 13  1  0  0  0  0
  6 16  1  0  0  0  0
  7 14  1  0  0  0  0
  7 15  1  0  0  0  0
  7 19  1  0  0  0  0
  8 19  2  0  0  0  0
  8 22  1  0  0  0  0
  9 19  1  0  0  0  0
  9 23  2  0  0  0  0
 10 20  1  0  0  0  0
 10 21  2  0  0  0  0
 11 21  1  0  0  0  0
 11 26  1  0  0  0  0
 11 57  1  0  0  0  0
 12 14  1  0  0  0  0
 12 36  1  0  0  0  0
 12 37  1  0  0  0  0
 13 15  1  0  0  0  0
 13 38  1  0  0  0  0
 13 39  1  0  0  0  0
 14 40  1  0  0  0  0
 14 41  1  0  0  0  0
 15 42  1  0  0  0  0
 15 43  1  0  0  0  0
 16 17  1  0  0  0  0
 16 44  1  0  0  0  0
 16 45  1  0  0  0  0
 17 18  1  0  0  0  0
 17 46  1  0  0  0  0
 17 47  1  0  0  0  0
 18 20  1  0  0  0  0
 18 48  1  0  0  0  0
 18 49  1  0  0  0  0
 20 50  1  0  0  0  0
 20 51  1  0  0  0  0
 21 24  1  0  0  0  0
 22 25  2  0  0  0  0
 22 52  1  0  0  0  0
 23 25  1  0  0  0  0
 23 53  1  0  0  0  0
 24 54  1  0  0  0  0
 24 55  1  0  0  0  0
 25 56  1  0  0  0  0
 26 27  1  0  0  0  0
 26 28  2  0  0  0  0
 27 29  2  0  0  0  0
 28 30  1  0  0  0  0
 28 58  1  0  0  0  0
 29 31  1  0  0  0  0
 29 59  1  0  0  0  0
 30 31  2  0  0  0  0
 30 60  1  0  0  0  0
 31 61  1  0  0  0  0
 32 33  2  0  0  0  0
 32 34  1  0  0  0  0
 32 62  1  0  0  0  0
 33 35  1  0  0  0  0
 33 63  1  0  0  0  0
M  END
> <PUBCHEM_COMPOUND_CID>
135887936

> <PUBCHEM_COMPOUND_CANONICALIZED>
1

> <PUBCHEM_CACTVS_COMPLEXITY>
592

> <PUBCHEM_CACTVS_HBOND_ACCEPTOR>
10

> <PUBCHEM_CACTVS_HBOND_DONOR>
3

> <PUBCHEM_CACTVS_ROTATABLE_BOND>
8

> <PUBCHEM_CACTVS_SUBSKEYS>
AAADceB7uAAAAAAAAAAAAAAAAAAAAAAAAAA8WLEAAAAAAACxwAAAHgAQCAAACAzhkgY93pfIFgCoADb3bASCiCkxIqAJ2CA/bNiObqLE+duXPCjs0BPY+aeQQAAAAAAAAAAAEAAAAAAAAAAgAAAAAAAAAA==

> <PUBCHEM_IUPAC_OPENEYE_NAME>
fumaric acid;N-[4-(4-pyrimidin-2-ylpiperazin-1-yl)butyl]-4H-1,4-benzoxazin-3-imine

> <PUBCHEM_IUPAC_CAS_NAME>
(E)-2-butenedioic acid;N-[4-[4-(2-pyrimidinyl)-1-piperazinyl]butyl]-4H-1,4-benzoxazin-3-imine

> <PUBCHEM_IUPAC_NAME_MARKUP>
(<I>E</I>)-but-2-enedioic acid;<I>N</I>-[4-(4-pyrimidin-2-ylpiperazin-1-yl)butyl]-4<I>H</I>-1,4-benzoxazin-3-imine

> <PUBCHEM_IUPAC_NAME>
(E)-but-2-enedioic acid;N-[4-(4-pyrimidin-2-ylpiperazin-1-yl)butyl]-4H-1,4-benzoxazin-3-imine

> <PUBCHEM_IUPAC_SYSTEMATIC_NAME>
(E)-but-2-enedioic acid;N-[4-(4-pyrimidin-2-ylpiperazin-1-yl)butyl]-4H-1,4-benzoxazin-3-imine

> <PUBCHEM_IUPAC_TRADITIONAL_NAME>
4H-1,4-benzoxazin-3-ylidene-[4-[4-(2-pyrimidyl)piperazino]butyl]amine;fumaric acid

> <PUBCHEM_IUPAC_INCHI>
InChI=1S/C20H26N6O.C4H4O4/c1-2-7-18-17(6-1)24-19(16-27-18)21-8-3-4-11-25-12-14-26(15-13-25)20-22-9-5-10-23-20;5-3(6)1-2-4(7)8/h1-2,5-7,9-10H,3-4,8,11-16H2,(H,21,24);1-2H,(H,5,6)(H,7,8)/b;2-1+

> <PUBCHEM_IUPAC_INCHIKEY>
YOTBRGBBWUDEHV-WLHGVMLRSA-N

> <PUBCHEM_EXACT_MASS>
482.22776808

> <PUBCHEM_MOLECULAR_FORMULA>
C24H30N6O5

> <PUBCHEM_MOLECULAR_WEIGHT>
482.5

> <PUBCHEM_OPENEYE_CAN_SMILES>
C1CN(CCN1CCCCN=C2COC3=CC=CC=C3N2)C4=NC=CC=N4.C(=CC(=O)O)C(=O)O

> <PUBCHEM_OPENEYE_ISO_SMILES>
C1CN(CCN1CCCCN=C2COC3=CC=CC=C3N2)C4=NC=CC=N4.C(=C/C(=O)O)\C(=O)O

> <PUBCHEM_CACTVS_TPSA>
141

> <PUBCHEM_MONOISOTOPIC_WEIGHT>
482.22776808

> <PUBCHEM_TOTAL_CHARGE>
0

> <PUBCHEM_HEAVY_ATOM_COUNT>
35

> <PUBCHEM_ATOM_DEF_STEREO_COUNT>
0

> <PUBCHEM_ATOM_UDEF_STEREO_COUNT>
0

> <PUBCHEM_BOND_DEF_STEREO_COUNT>
1

> <PUBCHEM_BOND_UDEF_STEREO_COUNT>
0

> <PUBCHEM_ISOTOPIC_ATOM_COUNT>
0

> <PUBCHEM_COMPONENT_COUNT>
2

> <PUBCHEM_CACTVS_TAUTO_COUNT>
-1

> <PUBCHEM_COORDINATE_TYPE>
1
5
255

> <PUBCHEM_BONDANNOTATIONS>
22  25  8
23  25  8
26  27  8
26  28  8
27  29  8
28  30  8
29  31  8
30  31  8
8  19  8
8  22  8
9  19  8
9  23  8

$$$$
