11545687
  -OEChem-09292322262D

 55 59  0     0  0  0  0  0  0999 V2000
    3.1562   -5.9375    0.0000 F   0  0  0  0  0  0  0  0  0  0  0  0
    7.6833    3.8682    0.0000 O   0  0  0  0  0  0  0  0  0  0  0  0
    7.6833    5.9375    0.0000 O   0  0  0  0  0  0  0  0  0  0  0  0
    5.9233    0.9028    0.0000 N   0  0  0  0  0  0  0  0  0  0  0  0
    5.9233    2.9028    0.0000 N   0  0  0  0  0  0  0  0  0  0  0  0
    2.6164   -2.4291    0.0000 N   0  0  0  0  0  0  0  0  0  0  0  0
    6.7893    1.4028    0.0000 C   0  0  0  0  0  0  0  0  0  0  0  0
    5.0573    1.4028    0.0000 C   0  0  0  0  0  0  0  0  0  0  0  0
    6.7893    2.4028    0.0000 C   0  0  0  0  0  0  0  0  0  0  0  0
    5.0573    2.4028    0.0000 C   0  0  0  0  0  0  0  0  0  0  0  0
    5.9233   -0.0972    0.0000 C   0  0  0  0  0  0  0  0  0  0  0  0
    5.0573   -0.5972    0.0000 C   0  0  0  0  0  0  0  0  0  0  0  0
    5.9233    3.9028    0.0000 C   0  0  0  0  0  0  0  0  0  0  0  0
    5.0573   -1.5972    0.0000 C   0  0  0  0  0  0  0  0  0  0  0  0
    4.1912   -2.0972    0.0000 C   0  0  0  0  0  0  0  0  0  0  0  0
    6.7893    4.4028    0.0000 C   0  0  0  0  0  0  0  0  0  0  0  0
    5.0573    4.4028    0.0000 C   0  0  0  0  0  0  0  0  0  0  0  0
    4.0882   -3.0859    0.0000 C   0  0  0  0  0  0  0  0  0  0  0  0
    6.7893    5.4028    0.0000 C   0  0  0  0  0  0  0  0  0  0  0  0
    3.2835   -1.6921    0.0000 C   0  0  0  0  0  0  0  0  0  0  0  0
    3.1097   -3.2921    0.0000 C   0  0  0  0  0  0  0  0  0  0  0  0
    5.0573    5.4028    0.0000 C   0  0  0  0  0  0  0  0  0  0  0  0
    5.9233    5.9028    0.0000 C   0  0  0  0  0  0  0  0  0  0  0  0
    8.5893    4.3820    0.0000 C   0  0  0  0  0  0  0  0  0  0  0  0
    8.5893    5.4236    0.0000 C   0  0  0  0  0  0  0  0  0  0  0  0
    4.7560   -3.8302    0.0000 C   0  0  0  0  0  0  0  0  0  0  0  0
    2.7990   -4.2426    0.0000 C   0  0  0  0  0  0  0  0  0  0  0  0
    4.4454   -4.7807    0.0000 C   0  0  0  0  0  0  0  0  0  0  0  0
    3.4669   -4.9870    0.0000 C   0  0  0  0  0  0  0  0  0  0  0  0
    7.0014    0.8202    0.0000 H   0  0  0  0  0  0  0  0  0  0  0  0
    7.3999    1.5105    0.0000 H   0  0  0  0  0  0  0  0  0  0  0  0
    4.4467    1.5105    0.0000 H   0  0  0  0  0  0  0  0  0  0  0  0
    4.8452    0.8202    0.0000 H   0  0  0  0  0  0  0  0  0  0  0  0
    7.3999    2.2952    0.0000 H   0  0  0  0  0  0  0  0  0  0  0  0
    7.0014    2.9854    0.0000 H   0  0  0  0  0  0  0  0  0  0  0  0
    4.8452    2.9854    0.0000 H   0  0  0  0  0  0  0  0  0  0  0  0
    4.4467    2.2952    0.0000 H   0  0  0  0  0  0  0  0  0  0  0  0
    6.1354   -0.6798    0.0000 H   0  0  0  0  0  0  0  0  0  0  0  0
    6.5339    0.0105    0.0000 H   0  0  0  0  0  0  0  0  0  0  0  0
    4.8452   -0.0146    0.0000 H   0  0  0  0  0  0  0  0  0  0  0  0
    4.4467   -0.7048    0.0000 H   0  0  0  0  0  0  0  0  0  0  0  0
    5.2693   -2.1798    0.0000 H   0  0  0  0  0  0  0  0  0  0  0  0
    5.6678   -1.4895    0.0000 H   0  0  0  0  0  0  0  0  0  0  0  0
    4.5203    4.0928    0.0000 H   0  0  0  0  0  0  0  0  0  0  0  0
    3.1556   -1.0854    0.0000 H   0  0  0  0  0  0  0  0  0  0  0  0
    4.5203    5.7128    0.0000 H   0  0  0  0  0  0  0  0  0  0  0  0
    5.9233    6.5228    0.0000 H   0  0  0  0  0  0  0  0  0  0  0  0
    2.0000   -2.3622    0.0000 H   0  0  0  0  0  0  0  0  0  0  0  0
    8.7984    3.7983    0.0000 H   0  0  0  0  0  0  0  0  0  0  0  0
    9.2002    4.4881    0.0000 H   0  0  0  0  0  0  0  0  0  0  0  0
    9.2002    5.3175    0.0000 H   0  0  0  0  0  0  0  0  0  0  0  0
    8.7984    6.0073    0.0000 H   0  0  0  0  0  0  0  0  0  0  0  0
    5.3627   -3.7024    0.0000 H   0  0  0  0  0  0  0  0  0  0  0  0
    2.1923   -4.3705    0.0000 H   0  0  0  0  0  0  0  0  0  0  0  0
    4.8594   -5.2422    0.0000 H   0  0  0  0  0  0  0  0  0  0  0  0
  1 29  1  0  0  0  0
  2 16  1  0  0  0  0
  2 24  1  0  0  0  0
  3 19  1  0  0  0  0
  3 25  1  0  0  0  0
  4  7  1  0  0  0  0
  4  8  1  0  0  0  0
  4 11  1  0  0  0  0
  5  9  1  0  0  0  0
  5 10  1  0  0  0  0
  5 13  1  0  0  0  0
  6 20  1  0  0  0  0
  6 21  1  0  0  0  0
  6 48  1  0  0  0  0
  7  9  1  0  0  0  0
  7 30  1  0  0  0  0
  7 31  1  0  0  0  0
  8 10  1  0  0  0  0
  8 32  1  0  0  0  0
  8 33  1  0  0  0  0
  9 34  1  0  0  0  0
  9 35  1  0  0  0  0
 10 36  1  0  0  0  0
 10 37  1  0  0  0  0
 11 12  1  0  0  0  0
 11 38  1  0  0  0  0
 11 39  1  0  0  0  0
 12 14  1  0  0  0  0
 12 40  1  0  0  0  0
 12 41  1  0  0  0  0
 13 16  2  0  0  0  0
 13 17  1  0  0  0  0
 14 15  1  0  0  0  0
 14 42  1  0  0  0  0
 14 43  1  0  0  0  0
 15 18  1  0  0  0  0
 15 20  2  0  0  0  0
 16 19  1  0  0  0  0
 17 22  2  0  0  0  0
 17 44  1  0  0  0  0
 18 21  2  0  0  0  0
 18 26  1  0  0  0  0
 19 23  2  0  0  0  0
 20 45  1  0  0  0  0
 21 27  1  0  0  0  0
 22 23  1  0  0  0  0
 22 46  1  0  0  0  0
 23 47  1  0  0  0  0
 24 25  1  0  0  0  0
 24 49  1  0  0  0  0
 24 50  1  0  0  0  0
 25 51  1  0  0  0  0
 25 52  1  0  0  0  0
 26 28  2  0  0  0  0
 26 53  1  0  0  0  0
 27 29  2  0  0  0  0
 27 54  1  0  0  0  0
 28 29  1  0  0  0  0
 28 55  1  0  0  0  0
M  END
> <PUBCHEM_COMPOUND_CID>
11545687

> <PUBCHEM_COMPOUND_CANONICALIZED>
1

> <PUBCHEM_CACTVS_COMPLEXITY>
530

> <PUBCHEM_CACTVS_HBOND_ACCEPTOR>
5

> <PUBCHEM_CACTVS_HBOND_DONOR>
1

> <PUBCHEM_CACTVS_ROTATABLE_BOND>
5

> <PUBCHEM_CACTVS_SUBSKEYS>
AAADceB7MQAAAAAAAAAAAAAAAAAAAWAAAAA8aIEAAAAAAFiR9AAAHwAQAAAADAzhng48xvPJlACgAzRnRACCiCAxIiAI2aA/7JgPZuLEsZuXOCrm0Bna6AeQ0MMOgAAAAgACUAAAAAAEAASgAAAAAAAAAA==

> <PUBCHEM_IUPAC_OPENEYE_NAME>
3-[3-[4-(2,3-dihydro-1,4-benzodioxin-5-yl)piperazin-1-yl]propyl]-6-fluoro-1H-indole

> <PUBCHEM_IUPAC_CAS_NAME>
3-[3-[4-(2,3-dihydro-1,4-benzodioxin-5-yl)-1-piperazinyl]propyl]-6-fluoro-1H-indole

> <PUBCHEM_IUPAC_NAME_MARKUP>
3-[3-[4-(2,3-dihydro-1,4-benzodioxin-5-yl)piperazin-1-yl]propyl]-6-fluoro-1<I>H</I>-indole

> <PUBCHEM_IUPAC_NAME>
3-[3-[4-(2,3-dihydro-1,4-benzodioxin-5-yl)piperazin-1-yl]propyl]-6-fluoro-1H-indole

> <PUBCHEM_IUPAC_SYSTEMATIC_NAME>
3-[3-[4-(2,3-dihydro-1,4-benzodioxin-5-yl)piperazin-1-yl]propyl]-6-fluoranyl-1H-indole

> <PUBCHEM_IUPAC_TRADITIONAL_NAME>
3-[3-[4-(2,3-dihydro-1,4-benzodioxin-5-yl)piperazino]propyl]-6-fluoro-1H-indole

> <PUBCHEM_IUPAC_INCHI>
InChI=1S/C23H26FN3O2/c24-18-6-7-19-17(16-25-20(19)15-18)3-2-8-26-9-11-27(12-10-26)21-4-1-5-22-23(21)29-14-13-28-22/h1,4-7,15-16,25H,2-3,8-14H2

> <PUBCHEM_IUPAC_INCHIKEY>
CSPGDCAGTHQSNB-UHFFFAOYSA-N

> <PUBCHEM_XLOGP3_AA>
4.1

> <PUBCHEM_EXACT_MASS>
395.20090524

> <PUBCHEM_MOLECULAR_FORMULA>
C23H26FN3O2

> <PUBCHEM_MOLECULAR_WEIGHT>
395.5

> <PUBCHEM_OPENEYE_CAN_SMILES>
C1CN(CCN1CCCC2=CNC3=C2C=CC(=C3)F)C4=C5C(=CC=C4)OCCO5

> <PUBCHEM_OPENEYE_ISO_SMILES>
C1CN(CCN1CCCC2=CNC3=C2C=CC(=C3)F)C4=C5C(=CC=C4)OCCO5

> <PUBCHEM_CACTVS_TPSA>
40.7

> <PUBCHEM_MONOISOTOPIC_WEIGHT>
395.20090524

> <PUBCHEM_TOTAL_CHARGE>
0

> <PUBCHEM_HEAVY_ATOM_COUNT>
29

> <PUBCHEM_ATOM_DEF_STEREO_COUNT>
0

> <PUBCHEM_ATOM_UDEF_STEREO_COUNT>
0

> <PUBCHEM_BOND_DEF_STEREO_COUNT>
0

> <PUBCHEM_BOND_UDEF_STEREO_COUNT>
0

> <PUBCHEM_ISOTOPIC_ATOM_COUNT>
0

> <PUBCHEM_COMPONENT_COUNT>
1

> <PUBCHEM_CACTVS_TAUTO_COUNT>
-1

> <PUBCHEM_COORDINATE_TYPE>
1
5
255

> <PUBCHEM_BONDANNOTATIONS>
13  16  8
13  17  8
15  18  8
15  20  8
16  19  8
17  22  8
18  21  8
18  26  8
19  23  8
21  27  8
22  23  8
26  28  8
27  29  8
28  29  8
6  20  8
6  21  8

$$$$
