134139826
  -OEChem-09292322382D

 66 69  0     0  0  0  0  0  0999 V2000
    2.0000    4.5000    0.0000 F   0  0  0  0  0  0  0  0  0  0  0  0
    7.1962    0.5000    0.0000 O   0  0  0  0  0  0  0  0  0  0  0  0
    9.7942   -1.0000    0.0000 O   0  0  0  0  0  0  0  0  0  0  0  0
    6.3301    3.0000    0.0000 N   0  0  0  0  0  0  0  0  0  0  0  0
    6.3301    5.0000    0.0000 N   0  0  0  0  0  0  0  0  0  0  0  0
    7.1962    6.5000    0.0000 N   0  0  0  0  0  0  0  0  0  0  0  0
    8.9282   -2.5000    0.0000 N   0  0  0  0  0  0  0  0  0  0  0  0
    9.7942   -8.0000    0.0000 N   0  0  0  0  0  0  0  0  0  0  0  0
    7.1962    3.5000    0.0000 C   0  0  0  0  0  0  0  0  0  0  0  0
    5.4641    3.5000    0.0000 C   0  0  0  0  0  0  0  0  0  0  0  0
    7.1962    4.5000    0.0000 C   0  0  0  0  0  0  0  0  0  0  0  0
    5.4641    4.5000    0.0000 C   0  0  0  0  0  0  0  0  0  0  0  0
    6.3301    2.0000    0.0000 C   0  0  0  0  0  0  0  0  0  0  0  0
    6.3301    6.0000    0.0000 C   0  0  0  0  0  0  0  0  0  0  0  0
    7.1962    1.5000    0.0000 C   0  0  0  0  0  0  0  0  0  0  0  0
    5.4641    6.5000    0.0000 C   0  0  0  0  0  0  0  0  0  0  0  0
    4.5981    6.0000    0.0000 C   0  0  0  0  0  0  0  0  0  0  0  0
    5.4641    7.5000    0.0000 C   0  0  0  0  0  0  0  0  0  0  0  0
    8.0622    0.0000    0.0000 C   0  0  0  0  0  0  0  0  0  0  0  0
    7.1962    7.5000    0.0000 C   0  0  0  0  0  0  0  0  0  0  0  0
    6.3301    8.0000    0.0000 C   0  0  0  0  0  0  0  0  0  0  0  0
    8.0622   -1.0000    0.0000 C   0  0  0  0  0  0  0  0  0  0  0  0
    3.7320    6.5000    0.0000 C   0  0  0  0  0  0  0  0  0  0  0  0
    4.5981    5.0000    0.0000 C   0  0  0  0  0  0  0  0  0  0  0  0
    2.8660    6.0000    0.0000 C   0  0  0  0  0  0  0  0  0  0  0  0
    3.7320    4.5000    0.0000 C   0  0  0  0  0  0  0  0  0  0  0  0
    8.9282   -1.5000    0.0000 C   0  0  0  0  0  0  0  0  0  0  0  0
    2.8660    5.0000    0.0000 C   0  0  0  0  0  0  0  0  0  0  0  0
    9.7942   -3.0000    0.0000 C   0  0  0  0  0  0  0  0  0  0  0  0
    9.7942   -4.0000    0.0000 C   0  0  0  0  0  0  0  0  0  0  0  0
    8.9282   -4.5000    0.0000 C   0  0  0  0  0  0  0  0  0  0  0  0
   10.6603   -4.5000    0.0000 C   0  0  0  0  0  0  0  0  0  0  0  0
    8.9282   -5.5000    0.0000 C   0  0  0  0  0  0  0  0  0  0  0  0
   10.6603   -5.5000    0.0000 C   0  0  0  0  0  0  0  0  0  0  0  0
    9.7942   -6.0000    0.0000 C   0  0  0  0  0  0  0  0  0  0  0  0
    9.7942   -7.0000    0.0000 C   0  0  0  0  0  0  0  0  0  0  0  0
    7.4082    2.9174    0.0000 H   0  0  0  0  0  0  0  0  0  0  0  0
    7.8067    3.6077    0.0000 H   0  0  0  0  0  0  0  0  0  0  0  0
    4.8535    3.6077    0.0000 H   0  0  0  0  0  0  0  0  0  0  0  0
    5.2520    2.9174    0.0000 H   0  0  0  0  0  0  0  0  0  0  0  0
    7.8067    4.3923    0.0000 H   0  0  0  0  0  0  0  0  0  0  0  0
    7.4082    5.0826    0.0000 H   0  0  0  0  0  0  0  0  0  0  0  0
    5.2520    5.0826    0.0000 H   0  0  0  0  0  0  0  0  0  0  0  0
    4.8535    4.3923    0.0000 H   0  0  0  0  0  0  0  0  0  0  0  0
    5.7196    2.1077    0.0000 H   0  0  0  0  0  0  0  0  0  0  0  0
    6.1181    1.4174    0.0000 H   0  0  0  0  0  0  0  0  0  0  0  0
    7.8067    1.3923    0.0000 H   0  0  0  0  0  0  0  0  0  0  0  0
    7.4082    2.0826    0.0000 H   0  0  0  0  0  0  0  0  0  0  0  0
    4.9272    7.8100    0.0000 H   0  0  0  0  0  0  0  0  0  0  0  0
    8.6728   -0.1077    0.0000 H   0  0  0  0  0  0  0  0  0  0  0  0
    8.2742    0.5826    0.0000 H   0  0  0  0  0  0  0  0  0  0  0  0
    7.7331    7.8100    0.0000 H   0  0  0  0  0  0  0  0  0  0  0  0
    6.3301    8.6200    0.0000 H   0  0  0  0  0  0  0  0  0  0  0  0
    7.4516   -0.8923    0.0000 H   0  0  0  0  0  0  0  0  0  0  0  0
    7.8501   -1.5826    0.0000 H   0  0  0  0  0  0  0  0  0  0  0  0
    3.7320    7.1200    0.0000 H   0  0  0  0  0  0  0  0  0  0  0  0
    5.1350    4.6900    0.0000 H   0  0  0  0  0  0  0  0  0  0  0  0
    2.3291    6.3100    0.0000 H   0  0  0  0  0  0  0  0  0  0  0  0
    3.7320    3.8800    0.0000 H   0  0  0  0  0  0  0  0  0  0  0  0
    8.3913   -2.8100    0.0000 H   0  0  0  0  0  0  0  0  0  0  0  0
   10.4048   -3.1077    0.0000 H   0  0  0  0  0  0  0  0  0  0  0  0
   10.0063   -2.4174    0.0000 H   0  0  0  0  0  0  0  0  0  0  0  0
    8.3913   -4.1900    0.0000 H   0  0  0  0  0  0  0  0  0  0  0  0
   11.1972   -4.1900    0.0000 H   0  0  0  0  0  0  0  0  0  0  0  0
    8.3913   -5.8100    0.0000 H   0  0  0  0  0  0  0  0  0  0  0  0
   11.1972   -5.8100    0.0000 H   0  0  0  0  0  0  0  0  0  0  0  0
  1 28  1  0  0  0  0
  2 15  1  0  0  0  0
  2 19  1  0  0  0  0
  3 27  2  0  0  0  0
  4  9  1  0  0  0  0
  4 10  1  0  0  0  0
  4 13  1  0  0  0  0
  5 11  1  0  0  0  0
  5 12  1  0  0  0  0
  5 14  1  0  0  0  0
  6 14  1  0  0  0  0
  6 20  2  0  0  0  0
  7 27  1  0  0  0  0
  7 29  1  0  0  0  0
  7 60  1  0  0  0  0
  8 36  3  0  0  0  0
  9 11  1  0  0  0  0
  9 37  1  0  0  0  0
  9 38  1  0  0  0  0
 10 12  1  0  0  0  0
 10 39  1  0  0  0  0
 10 40  1  0  0  0  0
 11 41  1  0  0  0  0
 11 42  1  0  0  0  0
 12 43  1  0  0  0  0
 12 44  1  0  0  0  0
 13 15  1  0  0  0  0
 13 45  1  0  0  0  0
 13 46  1  0  0  0  0
 14 16  2  0  0  0  0
 15 47  1  0  0  0  0
 15 48  1  0  0  0  0
 16 17  1  0  0  0  0
 16 18  1  0  0  0  0
 17 23  2  0  0  0  0
 17 24  1  0  0  0  0
 18 21  2  0  0  0  0
 18 49  1  0  0  0  0
 19 22  1  0  0  0  0
 19 50  1  0  0  0  0
 19 51  1  0  0  0  0
 20 21  1  0  0  0  0
 20 52  1  0  0  0  0
 21 53  1  0  0  0  0
 22 27  1  0  0  0  0
 22 54  1  0  0  0  0
 22 55  1  0  0  0  0
 23 25  1  0  0  0  0
 23 56  1  0  0  0  0
 24 26  2  0  0  0  0
 24 57  1  0  0  0  0
 25 28  2  0  0  0  0
 25 58  1  0  0  0  0
 26 28  1  0  0  0  0
 26 59  1  0  0  0  0
 29 30  1  0  0  0  0
 29 61  1  0  0  0  0
 29 62  1  0  0  0  0
 30 31  2  0  0  0  0
 30 32  1  0  0  0  0
 31 33  1  0  0  0  0
 31 63  1  0  0  0  0
 32 34  2  0  0  0  0
 32 64  1  0  0  0  0
 33 35  2  0  0  0  0
 33 65  1  0  0  0  0
 34 35  1  0  0  0  0
 34 66  1  0  0  0  0
 35 36  1  0  0  0  0
M  END
> <PUBCHEM_COMPOUND_CID>
134139826

> <PUBCHEM_COMPOUND_CANONICALIZED>
1

> <PUBCHEM_CACTVS_COMPLEXITY>
706

> <PUBCHEM_CACTVS_HBOND_ACCEPTOR>
7

> <PUBCHEM_CACTVS_HBOND_DONOR>
1

> <PUBCHEM_CACTVS_ROTATABLE_BOND>
10

> <PUBCHEM_CACTVS_SUBSKEYS>
AAADceB7sQAAAAAAAAAAAAAAAAAAAAAAAAA8eIEAAAAAAAAB0AAAHwAQAAAADADhmg49sJPIFAC4BjN3dACigCkxAiAJ2KE4ZJiK4ObAmZGXIAhqtgLYyC8QgMAOwAAAAAAAAACAAAAAAAAAAAAAAAAAAA==

> <PUBCHEM_IUPAC_OPENEYE_NAME>
N-[(4-cyanophenyl)methyl]-3-[2-[4-[3-(4-fluorophenyl)-2-pyridyl]piperazin-1-yl]ethoxy]propanamide

> <PUBCHEM_IUPAC_CAS_NAME>
N-[(4-cyanophenyl)methyl]-3-[2-[4-[3-(4-fluorophenyl)-2-pyridinyl]-1-piperazinyl]ethoxy]propanamide

> <PUBCHEM_IUPAC_NAME_MARKUP>
<I>N</I>-[(4-cyanophenyl)methyl]-3-[2-[4-[3-(4-fluorophenyl)pyridin-2-yl]piperazin-1-yl]ethoxy]propanamide

> <PUBCHEM_IUPAC_NAME>
N-[(4-cyanophenyl)methyl]-3-[2-[4-[3-(4-fluorophenyl)pyridin-2-yl]piperazin-1-yl]ethoxy]propanamide

> <PUBCHEM_IUPAC_SYSTEMATIC_NAME>
N-[(4-cyanophenyl)methyl]-3-[2-[4-[3-(4-fluorophenyl)pyridin-2-yl]piperazin-1-yl]ethoxy]propanamide

> <PUBCHEM_IUPAC_TRADITIONAL_NAME>
N-(4-cyanobenzyl)-3-[2-[4-[3-(4-fluorophenyl)-2-pyridyl]piperazino]ethoxy]propionamide

> <PUBCHEM_IUPAC_INCHI>
InChI=1S/C28H30FN5O2/c29-25-9-7-24(8-10-25)26-2-1-12-31-28(26)34-15-13-33(14-16-34)17-19-36-18-11-27(35)32-21-23-5-3-22(20-30)4-6-23/h1-10,12H,11,13-19,21H2,(H,32,35)

> <PUBCHEM_IUPAC_INCHIKEY>
DZHFAWUKQABZMD-UHFFFAOYSA-N

> <PUBCHEM_XLOGP3_AA>
3.2

> <PUBCHEM_EXACT_MASS>
487.23835338

> <PUBCHEM_MOLECULAR_FORMULA>
C28H30FN5O2

> <PUBCHEM_MOLECULAR_WEIGHT>
487.6

> <PUBCHEM_OPENEYE_CAN_SMILES>
C1CN(CCN1CCOCCC(=O)NCC2=CC=C(C=C2)C#N)C3=C(C=CC=N3)C4=CC=C(C=C4)F

> <PUBCHEM_OPENEYE_ISO_SMILES>
C1CN(CCN1CCOCCC(=O)NCC2=CC=C(C=C2)C#N)C3=C(C=CC=N3)C4=CC=C(C=C4)F

> <PUBCHEM_CACTVS_TPSA>
81.5

> <PUBCHEM_MONOISOTOPIC_WEIGHT>
487.23835338

> <PUBCHEM_TOTAL_CHARGE>
0

> <PUBCHEM_HEAVY_ATOM_COUNT>
36

> <PUBCHEM_ATOM_DEF_STEREO_COUNT>
0

> <PUBCHEM_ATOM_UDEF_STEREO_COUNT>
0

> <PUBCHEM_BOND_DEF_STEREO_COUNT>
0

> <PUBCHEM_BOND_UDEF_STEREO_COUNT>
0

> <PUBCHEM_ISOTOPIC_ATOM_COUNT>
0

> <PUBCHEM_COMPONENT_COUNT>
1

> <PUBCHEM_CACTVS_TAUTO_COUNT>
-1

> <PUBCHEM_COORDINATE_TYPE>
1
5
255

> <PUBCHEM_BONDANNOTATIONS>
14  16  8
16  18  8
17  23  8
17  24  8
18  21  8
20  21  8
23  25  8
24  26  8
25  28  8
26  28  8
30  31  8
30  32  8
31  33  8
32  34  8
33  35  8
34  35  8
6  14  8
6  20  8

$$$$
