164621557
  -OEChem-09292322432D

 64 67  0     1  0  0  0  0  0999 V2000
   11.1882    3.6310    0.0000 O   0  0  0  0  0  0  0  0  0  0  0  0
   11.1882    5.7003    0.0000 O   0  0  0  0  0  0  0  0  0  0  0  0
    4.5981   -4.7003    0.0000 O   0  0  0  0  0  0  0  0  0  0  0  0
    8.0622    0.2997    0.0000 N   0  0  0  0  0  0  0  0  0  0  0  0
    3.7320   -3.2003    0.0000 N   0  0  0  0  0  0  0  0  0  0  0  0
    2.8660   -4.7003    0.0000 N   0  0  0  0  0  0  0  0  0  0  0  0
    8.9282    1.7997    0.0000 C   0  0  3  0  0  0  0  0  0  0  0  0
    9.4282    2.6657    0.0000 C   0  0  3  0  0  0  0  0  0  0  0  0
    9.9282    1.7997    0.0000 C   0  0  0  0  0  0  0  0  0  0  0  0
    8.0622    1.2997    0.0000 C   0  0  0  0  0  0  0  0  0  0  0  0
    9.4282    3.6657    0.0000 C   0  0  0  0  0  0  0  0  0  0  0  0
    6.3301   -1.7003    0.0000 C   0  0  0  0  0  0  0  0  0  0  0  0
    7.1962   -1.2003    0.0000 C   0  0  0  0  0  0  0  0  0  0  0  0
    7.1962   -0.2003    0.0000 C   0  0  0  0  0  0  0  0  0  0  0  0
    6.3301   -2.7003    0.0000 C   0  0  0  0  0  0  0  0  0  0  0  0
    5.4641   -1.2003    0.0000 C   0  0  0  0  0  0  0  0  0  0  0  0
    4.5981   -2.7003    0.0000 C   0  0  0  0  0  0  0  0  0  0  0  0
    5.4641   -3.2003    0.0000 C   0  0  0  0  0  0  0  0  0  0  0  0
    4.5981   -1.7003    0.0000 C   0  0  0  0  0  0  0  0  0  0  0  0
   10.2942    4.1657    0.0000 C   0  0  0  0  0  0  0  0  0  0  0  0
    8.5622    4.1657    0.0000 C   0  0  0  0  0  0  0  0  0  0  0  0
   10.2942    5.1657    0.0000 C   0  0  0  0  0  0  0  0  0  0  0  0
    8.5622    5.1657    0.0000 C   0  0  0  0  0  0  0  0  0  0  0  0
    9.4282    5.6657    0.0000 C   0  0  0  0  0  0  0  0  0  0  0  0
   12.0942    4.1449    0.0000 C   0  0  0  0  0  0  0  0  0  0  0  0
   12.0942    5.1865    0.0000 C   0  0  0  0  0  0  0  0  0  0  0  0
    3.7320   -4.2003    0.0000 C   0  0  0  0  0  0  0  0  0  0  0  0
    2.8660   -5.7003    0.0000 C   0  0  0  0  0  0  0  0  0  0  0  0
    2.0000   -4.2003    0.0000 C   0  0  0  0  0  0  0  0  0  0  0  0
    9.0887    1.2008    0.0000 H   0  0  0  0  0  0  0  0  0  0  0  0
   10.0271    2.8262    0.0000 H   0  0  0  0  0  0  0  0  0  0  0  0
   10.0359    1.1891    0.0000 H   0  0  0  0  0  0  0  0  0  0  0  0
   10.5108    2.0117    0.0000 H   0  0  0  0  0  0  0  0  0  0  0  0
    7.8501    1.8823    0.0000 H   0  0  0  0  0  0  0  0  0  0  0  0
    7.4516    1.1920    0.0000 H   0  0  0  0  0  0  0  0  0  0  0  0
    6.8671   -2.0103    0.0000 H   0  0  0  0  0  0  0  0  0  0  0  0
    8.5991   -0.0103    0.0000 H   0  0  0  0  0  0  0  0  0  0  0  0
    7.4082   -1.7830    0.0000 H   0  0  0  0  0  0  0  0  0  0  0  0
    7.8067   -1.0927    0.0000 H   0  0  0  0  0  0  0  0  0  0  0  0
    6.9841    0.3823    0.0000 H   0  0  0  0  0  0  0  0  0  0  0  0
    6.5856   -0.3080    0.0000 H   0  0  0  0  0  0  0  0  0  0  0  0
    6.5422   -3.2830    0.0000 H   0  0  0  0  0  0  0  0  0  0  0  0
    6.9407   -2.5927    0.0000 H   0  0  0  0  0  0  0  0  0  0  0  0
    5.8626   -0.7254    0.0000 H   0  0  0  0  0  0  0  0  0  0  0  0
    5.0656   -0.7254    0.0000 H   0  0  0  0  0  0  0  0  0  0  0  0
    4.5981   -3.3203    0.0000 H   0  0  0  0  0  0  0  0  0  0  0  0
    5.0656   -3.6753    0.0000 H   0  0  0  0  0  0  0  0  0  0  0  0
    5.8626   -3.6753    0.0000 H   0  0  0  0  0  0  0  0  0  0  0  0
    4.3860   -1.1177    0.0000 H   0  0  0  0  0  0  0  0  0  0  0  0
    3.9875   -1.8080    0.0000 H   0  0  0  0  0  0  0  0  0  0  0  0
    8.0252    3.8557    0.0000 H   0  0  0  0  0  0  0  0  0  0  0  0
    8.0252    5.4757    0.0000 H   0  0  0  0  0  0  0  0  0  0  0  0
    3.1951   -2.8903    0.0000 H   0  0  0  0  0  0  0  0  0  0  0  0
    9.4282    6.2857    0.0000 H   0  0  0  0  0  0  0  0  0  0  0  0
   12.3033    3.5612    0.0000 H   0  0  0  0  0  0  0  0  0  0  0  0
   12.7051    4.2510    0.0000 H   0  0  0  0  0  0  0  0  0  0  0  0
   12.7051    5.0804    0.0000 H   0  0  0  0  0  0  0  0  0  0  0  0
   12.3033    5.7702    0.0000 H   0  0  0  0  0  0  0  0  0  0  0  0
    2.2460   -5.7003    0.0000 H   0  0  0  0  0  0  0  0  0  0  0  0
    2.8660   -6.3203    0.0000 H   0  0  0  0  0  0  0  0  0  0  0  0
    3.4860   -5.7003    0.0000 H   0  0  0  0  0  0  0  0  0  0  0  0
    2.3100   -3.6634    0.0000 H   0  0  0  0  0  0  0  0  0  0  0  0
    1.4631   -3.8903    0.0000 H   0  0  0  0  0  0  0  0  0  0  0  0
    1.6900   -4.7373    0.0000 H   0  0  0  0  0  0  0  0  0  0  0  0
  1 20  1  0  0  0  0
  1 25  1  0  0  0  0
  2 22  1  0  0  0  0
  2 26  1  0  0  0  0
  3 27  2  0  0  0  0
  4 10  1  0  0  0  0
  4 14  1  0  0  0  0
  4 37  1  0  0  0  0
  5 17  1  0  0  0  0
  5 27  1  0  0  0  0
  5 53  1  0  0  0  0
  6 27  1  0  0  0  0
  6 28  1  0  0  0  0
  6 29  1  0  0  0  0
  7  8  1  0  0  0  0
  7  9  1  0  0  0  0
  7 10  1  0  0  0  0
  7 30  1  0  0  0  0
  8  9  1  0  0  0  0
  8 11  1  0  0  0  0
  8 31  1  0  0  0  0
  9 32  1  0  0  0  0
  9 33  1  0  0  0  0
 10 34  1  0  0  0  0
 10 35  1  0  0  0  0
 11 20  2  0  0  0  0
 11 21  1  0  0  0  0
 12 13  1  0  0  0  0
 12 15  1  0  0  0  0
 12 16  1  0  0  0  0
 12 36  1  0  0  0  0
 13 14  1  0  0  0  0
 13 38  1  0  0  0  0
 13 39  1  0  0  0  0
 14 40  1  0  0  0  0
 14 41  1  0  0  0  0
 15 18  1  0  0  0  0
 15 42  1  0  0  0  0
 15 43  1  0  0  0  0
 16 19  1  0  0  0  0
 16 44  1  0  0  0  0
 16 45  1  0  0  0  0
 17 18  1  0  0  0  0
 17 19  1  0  0  0  0
 17 46  1  0  0  0  0
 18 47  1  0  0  0  0
 18 48  1  0  0  0  0
 19 49  1  0  0  0  0
 19 50  1  0  0  0  0
 20 22  1  0  0  0  0
 21 23  2  0  0  0  0
 21 51  1  0  0  0  0
 22 24  2  0  0  0  0
 23 24  1  0  0  0  0
 23 52  1  0  0  0  0
 24 54  1  0  0  0  0
 25 26  1  0  0  0  0
 25 55  1  0  0  0  0
 25 56  1  0  0  0  0
 26 57  1  0  0  0  0
 26 58  1  0  0  0  0
 28 59  1  0  0  0  0
 28 60  1  0  0  0  0
 28 61  1  0  0  0  0
 29 62  1  0  0  0  0
 29 63  1  0  0  0  0
 29 64  1  0  0  0  0
M  END
> <PUBCHEM_COMPOUND_CID>
164621557

> <PUBCHEM_COMPOUND_CANONICALIZED>
1

> <PUBCHEM_CACTVS_COMPLEXITY>
536

> <PUBCHEM_CACTVS_HBOND_ACCEPTOR>
4

> <PUBCHEM_CACTVS_HBOND_DONOR>
2

> <PUBCHEM_CACTVS_ROTATABLE_BOND>
7

> <PUBCHEM_CACTVS_SUBSKEYS>
AAADcfB7MAAAAAAAAAAAAAAAGAAAAAAAAAA0YIAAAAAAAACRAAAAHgAQAAAADSzhmAYzBoPABACIAiBCEAACCAAgIAAIiIAOiIiNJiKEsRqGOCKs1hOKqAeQ0PIOgAABAAAIQAAQAAIAABCAAAAAAAAAAA==

> <PUBCHEM_IUPAC_OPENEYE_NAME>
3-[4-[2-[[2-(2,3-dihydro-1,4-benzodioxin-5-yl)cyclopropyl]methylamino]ethyl]cyclohexyl]-1,1-dimethyl-urea

> <PUBCHEM_IUPAC_CAS_NAME>
3-[4-[2-[[2-(2,3-dihydro-1,4-benzodioxin-5-yl)cyclopropyl]methylamino]ethyl]cyclohexyl]-1,1-dimethylurea

> <PUBCHEM_IUPAC_NAME_MARKUP>
3-[4-[2-[[2-(2,3-dihydro-1,4-benzodioxin-5-yl)cyclopropyl]methylamino]ethyl]cyclohexyl]-1,1-dimethylurea

> <PUBCHEM_IUPAC_NAME>
3-[4-[2-[[2-(2,3-dihydro-1,4-benzodioxin-5-yl)cyclopropyl]methylamino]ethyl]cyclohexyl]-1,1-dimethylurea

> <PUBCHEM_IUPAC_SYSTEMATIC_NAME>
3-[4-[2-[[2-(2,3-dihydro-1,4-benzodioxin-5-yl)cyclopropyl]methylamino]ethyl]cyclohexyl]-1,1-dimethyl-urea

> <PUBCHEM_IUPAC_TRADITIONAL_NAME>
3-[4-[2-[[2-(2,3-dihydro-1,4-benzodioxin-5-yl)cyclopropyl]methylamino]ethyl]cyclohexyl]-1,1-dimethyl-urea

> <PUBCHEM_IUPAC_INCHI>
InChI=1S/C23H35N3O3/c1-26(2)23(27)25-18-8-6-16(7-9-18)10-11-24-15-17-14-20(17)19-4-3-5-21-22(19)29-13-12-28-21/h3-5,16-18,20,24H,6-15H2,1-2H3,(H,25,27)

> <PUBCHEM_IUPAC_INCHIKEY>
XIEHRTNAVGHOGK-UHFFFAOYSA-N

> <PUBCHEM_XLOGP3_AA>
2.9

> <PUBCHEM_EXACT_MASS>
401.26784199

> <PUBCHEM_MOLECULAR_FORMULA>
C23H35N3O3

> <PUBCHEM_MOLECULAR_WEIGHT>
401.5

> <PUBCHEM_OPENEYE_CAN_SMILES>
CN(C)C(=O)NC1CCC(CC1)CCNCC2CC2C3=C4C(=CC=C3)OCCO4

> <PUBCHEM_OPENEYE_ISO_SMILES>
CN(C)C(=O)NC1CCC(CC1)CCNCC2CC2C3=C4C(=CC=C3)OCCO4

> <PUBCHEM_CACTVS_TPSA>
62.8

> <PUBCHEM_MONOISOTOPIC_WEIGHT>
401.26784199

> <PUBCHEM_TOTAL_CHARGE>
0

> <PUBCHEM_HEAVY_ATOM_COUNT>
29

> <PUBCHEM_ATOM_DEF_STEREO_COUNT>
0

> <PUBCHEM_ATOM_UDEF_STEREO_COUNT>
2

> <PUBCHEM_BOND_DEF_STEREO_COUNT>
0

> <PUBCHEM_BOND_UDEF_STEREO_COUNT>
0

> <PUBCHEM_ISOTOPIC_ATOM_COUNT>
0

> <PUBCHEM_COMPONENT_COUNT>
1

> <PUBCHEM_CACTVS_TAUTO_COUNT>
-1

> <PUBCHEM_COORDINATE_TYPE>
1
5
255

> <PUBCHEM_BONDANNOTATIONS>
11  20  8
11  21  8
20  22  8
21  23  8
22  24  8
23  24  8
7  10  3
8  11  3

$$$$
