10725712
  -OEChem-09292322132D

 24 25  0     1  0  0  0  0  0999 V2000
    6.0174   -1.8273    0.0000 F   0  0  0  0  0  0  0  0  0  0  0  0
    2.5369    1.2073    0.0000 N   0  0  0  0  0  0  0  0  0  0  0  0
    3.4030    0.7073    0.0000 C   0  0  2  0  0  0  0  0  0  0  0  0
    3.4030   -0.2927    0.0000 C   0  0  0  0  0  0  0  0  0  0  0  0
    4.2690    1.2073    0.0000 C   0  0  0  0  0  0  0  0  0  0  0  0
    4.2690   -0.7927    0.0000 C   0  0  0  0  0  0  0  0  0  0  0  0
    5.1350    0.7073    0.0000 C   0  0  0  0  0  0  0  0  0  0  0  0
    5.1350   -0.2927    0.0000 C   0  0  0  0  0  0  0  0  0  0  0  0
    6.0290    1.2420    0.0000 C   0  0  0  0  0  0  0  0  0  0  0  0
    6.0290   -0.8274    0.0000 C   0  0  0  0  0  0  0  0  0  0  0  0
    6.9350    0.7281    0.0000 C   0  0  0  0  0  0  0  0  0  0  0  0
    6.9350   -0.3135    0.0000 C   0  0  0  0  0  0  0  0  0  0  0  0
    3.4030    1.3273    0.0000 H   0  0  0  0  0  0  0  0  0  0  0  0
    2.7924   -0.1850    0.0000 H   0  0  0  0  0  0  0  0  0  0  0  0
    3.1909   -0.8753    0.0000 H   0  0  0  0  0  0  0  0  0  0  0  0
    4.6675    1.6822    0.0000 H   0  0  0  0  0  0  0  0  0  0  0  0
    3.8705    1.6822    0.0000 H   0  0  0  0  0  0  0  0  0  0  0  0
    3.8705   -1.2676    0.0000 H   0  0  0  0  0  0  0  0  0  0  0  0
    4.6675   -1.2676    0.0000 H   0  0  0  0  0  0  0  0  0  0  0  0
    6.0218    1.8619    0.0000 H   0  0  0  0  0  0  0  0  0  0  0  0
    2.0000    0.8973    0.0000 H   0  0  0  0  0  0  0  0  0  0  0  0
    2.5369    1.8273    0.0000 H   0  0  0  0  0  0  0  0  0  0  0  0
    7.4708    1.0402    0.0000 H   0  0  0  0  0  0  0  0  0  0  0  0
    7.4708   -0.6256    0.0000 H   0  0  0  0  0  0  0  0  0  0  0  0
  1 10  1  0  0  0  0
  3  2  1  1  0  0  0
  2 21  1  0  0  0  0
  2 22  1  0  0  0  0
  3  4  1  0  0  0  0
  3  5  1  0  0  0  0
  3 13  1  0  0  0  0
  4  6  1  0  0  0  0
  4 14  1  0  0  0  0
  4 15  1  0  0  0  0
  5  7  1  0  0  0  0
  5 16  1  0  0  0  0
  5 17  1  0  0  0  0
  6  8  1  0  0  0  0
  6 18  1  0  0  0  0
  6 19  1  0  0  0  0
  7  8  2  0  0  0  0
  7  9  1  0  0  0  0
  8 10  1  0  0  0  0
  9 11  2  0  0  0  0
  9 20  1  0  0  0  0
 10 12  2  0  0  0  0
 11 12  1  0  0  0  0
 11 23  1  0  0  0  0
 12 24  1  0  0  0  0
M  END
> <PUBCHEM_COMPOUND_CID>
10725712

> <PUBCHEM_COMPOUND_CANONICALIZED>
1

> <PUBCHEM_CACTVS_COMPLEXITY>
160

> <PUBCHEM_CACTVS_HBOND_ACCEPTOR>
2

> <PUBCHEM_CACTVS_HBOND_DONOR>
1

> <PUBCHEM_CACTVS_ROTATABLE_BOND>
0

> <PUBCHEM_CACTVS_SUBSKEYS>
AAADccByAQAAAAAAAAAAAAAAAAAAAAAAAAAwYAAAAAAAAADBAAAAHQAQAAAADCjBGAwwAIBAAACAAiBCAAACAAAgAAAIiIAAAIgIICKAkRGAIAAgkAAIiAcQgIAOgAAAAAAQAAAQAACAACAAAAAAAAAAAA==

> <PUBCHEM_IUPAC_OPENEYE_NAME>
(2R)-5-fluorotetralin-2-amine

> <PUBCHEM_IUPAC_CAS_NAME>
(2R)-5-fluoro-1,2,3,4-tetrahydronaphthalen-2-amine

> <PUBCHEM_IUPAC_NAME_MARKUP>
(2<I>R</I>)-5-fluoro-1,2,3,4-tetrahydronaphthalen-2-amine

> <PUBCHEM_IUPAC_NAME>
(2R)-5-fluoro-1,2,3,4-tetrahydronaphthalen-2-amine

> <PUBCHEM_IUPAC_SYSTEMATIC_NAME>
(2R)-5-fluoranyl-1,2,3,4-tetrahydronaphthalen-2-amine

> <PUBCHEM_IUPAC_TRADITIONAL_NAME>
[(2R)-5-fluorotetralin-2-yl]amine

> <PUBCHEM_IUPAC_INCHI>
InChI=1S/C10H12FN/c11-10-3-1-2-7-6-8(12)4-5-9(7)10/h1-3,8H,4-6,12H2/t8-/m1/s1

> <PUBCHEM_IUPAC_INCHIKEY>
VCSRUJJOQUHUJC-MRVPVSSYSA-N

> <PUBCHEM_XLOGP3_AA>
1.8

> <PUBCHEM_EXACT_MASS>
165.095377549

> <PUBCHEM_MOLECULAR_FORMULA>
C10H12FN

> <PUBCHEM_MOLECULAR_WEIGHT>
165.21

> <PUBCHEM_OPENEYE_CAN_SMILES>
C1CC2=C(CC1N)C=CC=C2F

> <PUBCHEM_OPENEYE_ISO_SMILES>
C1CC2=C(C[C@@H]1N)C=CC=C2F

> <PUBCHEM_CACTVS_TPSA>
26

> <PUBCHEM_MONOISOTOPIC_WEIGHT>
165.095377549

> <PUBCHEM_TOTAL_CHARGE>
0

> <PUBCHEM_HEAVY_ATOM_COUNT>
12

> <PUBCHEM_ATOM_DEF_STEREO_COUNT>
1

> <PUBCHEM_ATOM_UDEF_STEREO_COUNT>
0

> <PUBCHEM_BOND_DEF_STEREO_COUNT>
0

> <PUBCHEM_BOND_UDEF_STEREO_COUNT>
0

> <PUBCHEM_ISOTOPIC_ATOM_COUNT>
0

> <PUBCHEM_COMPONENT_COUNT>
1

> <PUBCHEM_CACTVS_TAUTO_COUNT>
-1

> <PUBCHEM_COORDINATE_TYPE>
1
5
255

> <PUBCHEM_BONDANNOTATIONS>
10  12  8
11  12  8
3  2  5
7  8  8
7  9  8
8  10  8
9  11  8

$$$$
