19694453
  -OEChem-09292322222D

 39 42  0     1  0  0  0  0  0999 V2000
    8.2619   -0.4856    0.0000 O   0  0  0  0  0  0  0  0  0  0  0  0
    5.0000    0.0144    0.0000 N   0  0  3  0  0  0  0  0  0  0  0  0
    6.5298   -0.4856    0.0000 C   0  0  3  0  0  0  0  0  0  0  0  0
    6.5298    0.5144    0.0000 C   0  0  3  0  0  0  0  0  0  0  0  0
    5.5836   -0.7903    0.0000 C   0  0  0  0  0  0  0  0  0  0  0  0
    5.5836    0.8191    0.0000 C   0  0  0  0  0  0  0  0  0  0  0  0
    7.3958   -0.9856    0.0000 C   0  0  0  0  0  0  0  0  0  0  0  0
    7.3958    1.0144    0.0000 C   0  0  0  0  0  0  0  0  0  0  0  0
    4.0000    0.0144    0.0000 C   0  0  0  0  0  0  0  0  0  0  0  0
    8.2619    0.5144    0.0000 C   0  0  0  0  0  0  0  0  0  0  0  0
    7.3798    2.0559    0.0000 C   0  0  0  0  0  0  0  0  0  0  0  0
    3.5000   -0.8516    0.0000 C   0  0  0  0  0  0  0  0  0  0  0  0
    9.1719    1.0212    0.0000 C   0  0  0  0  0  0  0  0  0  0  0  0
    8.2778    2.5837    0.0000 C   0  0  0  0  0  0  0  0  0  0  0  0
    9.1799    2.0628    0.0000 C   0  0  0  0  0  0  0  0  0  0  0  0
    2.5000   -0.8516    0.0000 C   0  0  0  0  0  0  0  0  0  0  0  0
    4.0000   -1.7176    0.0000 C   0  0  0  0  0  0  0  0  0  0  0  0
    2.0000   -1.7176    0.0000 C   0  0  0  0  0  0  0  0  0  0  0  0
    3.5000   -2.5837    0.0000 C   0  0  0  0  0  0  0  0  0  0  0  0
    2.5000   -2.5837    0.0000 C   0  0  0  0  0  0  0  0  0  0  0  0
    6.4642   -1.1021    0.0000 H   0  0  0  0  0  0  0  0  0  0  0  0
    6.4642    1.1309    0.0000 H   0  0  0  0  0  0  0  0  0  0  0  0
    5.0462   -1.0996    0.0000 H   0  0  0  0  0  0  0  0  0  0  0  0
    5.8346   -1.3572    0.0000 H   0  0  0  0  0  0  0  0  0  0  0  0
    5.8346    1.3860    0.0000 H   0  0  0  0  0  0  0  0  0  0  0  0
    5.0462    1.1284    0.0000 H   0  0  0  0  0  0  0  0  0  0  0  0
    6.9973   -1.4605    0.0000 H   0  0  0  0  0  0  0  0  0  0  0  0
    7.7944   -1.4605    0.0000 H   0  0  0  0  0  0  0  0  0  0  0  0
    4.1077    0.6250    0.0000 H   0  0  0  0  0  0  0  0  0  0  0  0
    3.4174    0.2265    0.0000 H   0  0  0  0  0  0  0  0  0  0  0  0
    6.8393    2.3597    0.0000 H   0  0  0  0  0  0  0  0  0  0  0  0
    9.7052    0.7051    0.0000 H   0  0  0  0  0  0  0  0  0  0  0  0
    8.2754    3.2037    0.0000 H   0  0  0  0  0  0  0  0  0  0  0  0
    9.7180    2.3708    0.0000 H   0  0  0  0  0  0  0  0  0  0  0  0
    2.1900   -0.3147    0.0000 H   0  0  0  0  0  0  0  0  0  0  0  0
    4.6200   -1.7176    0.0000 H   0  0  0  0  0  0  0  0  0  0  0  0
    1.3800   -1.7176    0.0000 H   0  0  0  0  0  0  0  0  0  0  0  0
    3.8100   -3.1206    0.0000 H   0  0  0  0  0  0  0  0  0  0  0  0
    2.1900   -3.1206    0.0000 H   0  0  0  0  0  0  0  0  0  0  0  0
  1  7  1  0  0  0  0
  1 10  1  0  0  0  0
  2  5  1  0  0  0  0
  2  6  1  0  0  0  0
  2  9  1  0  0  0  0
  3  4  1  0  0  0  0
  3  5  1  0  0  0  0
  3  7  1  0  0  0  0
  3 21  1  0  0  0  0
  4  6  1  0  0  0  0
  4  8  1  0  0  0  0
  4 22  1  0  0  0  0
  5 23  1  0  0  0  0
  5 24  1  0  0  0  0
  6 25  1  0  0  0  0
  6 26  1  0  0  0  0
  7 27  1  0  0  0  0
  7 28  1  0  0  0  0
  8 10  1  0  0  0  0
  8 11  2  0  0  0  0
  9 12  1  0  0  0  0
  9 29  1  0  0  0  0
  9 30  1  0  0  0  0
 10 13  2  0  0  0  0
 11 14  1  0  0  0  0
 11 31  1  0  0  0  0
 12 16  2  0  0  0  0
 12 17  1  0  0  0  0
 13 15  1  0  0  0  0
 13 32  1  0  0  0  0
 14 15  2  0  0  0  0
 14 33  1  0  0  0  0
 15 34  1  0  0  0  0
 16 18  1  0  0  0  0
 16 35  1  0  0  0  0
 17 19  2  0  0  0  0
 17 36  1  0  0  0  0
 18 20  2  0  0  0  0
 18 37  1  0  0  0  0
 19 20  1  0  0  0  0
 19 38  1  0  0  0  0
 20 39  1  0  0  0  0
M  END
> <PUBCHEM_COMPOUND_CID>
19694453

> <PUBCHEM_COMPOUND_CANONICALIZED>
1

> <PUBCHEM_CACTVS_COMPLEXITY>
325

> <PUBCHEM_CACTVS_HBOND_ACCEPTOR>
2

> <PUBCHEM_CACTVS_HBOND_DONOR>
0

> <PUBCHEM_CACTVS_ROTATABLE_BOND>
2

> <PUBCHEM_CACTVS_SUBSKEYS>
AAADceB6IAAAAAAAAAAAAAAAAAAAAWAAAAA0YIAAAAAAAFiRQAAAHgAAAAAADQThmAYwBoMABACAAiBCAACCCAAgIAAIiAAODIgMJiKEsRuGOCjmwBGIqAew0OIOgAAAAAAIAAAAAAAAABAAAAAAAAAAAA==

> <PUBCHEM_IUPAC_OPENEYE_NAME>
2-benzyl-3,3a,4,9b-tetrahydro-1H-chromeno[3,4-c]pyrrole

> <PUBCHEM_IUPAC_CAS_NAME>
2-(phenylmethyl)-3,3a,4,9b-tetrahydro-1H-[1]benzopyrano[3,4-c]pyrrole

> <PUBCHEM_IUPAC_NAME_MARKUP>
2-benzyl-3,3<I>a</I>,4,9<I>b</I>-tetrahydro-1<I>H</I>-chromeno[3,4-c]pyrrole

> <PUBCHEM_IUPAC_NAME>
2-benzyl-3,3a,4,9b-tetrahydro-1H-chromeno[3,4-c]pyrrole

> <PUBCHEM_IUPAC_SYSTEMATIC_NAME>
2-(phenylmethyl)-3,3a,4,9b-tetrahydro-1H-chromeno[3,4-c]pyrrole

> <PUBCHEM_IUPAC_TRADITIONAL_NAME>
2-benzyl-3,3a,4,9b-tetrahydro-1H-chromeno[3,4-c]pyrrole

> <PUBCHEM_IUPAC_INCHI>
InChI=1S/C18H19NO/c1-2-6-14(7-3-1)10-19-11-15-13-20-18-9-5-4-8-16(18)17(15)12-19/h1-9,15,17H,10-13H2

> <PUBCHEM_IUPAC_INCHIKEY>
JZKQROSAHVWKPB-UHFFFAOYSA-N

> <PUBCHEM_XLOGP3_AA>
3.3

> <PUBCHEM_EXACT_MASS>
265.146664230

> <PUBCHEM_MOLECULAR_FORMULA>
C18H19NO

> <PUBCHEM_MOLECULAR_WEIGHT>
265.3

> <PUBCHEM_OPENEYE_CAN_SMILES>
C1C2COC3=CC=CC=C3C2CN1CC4=CC=CC=C4

> <PUBCHEM_OPENEYE_ISO_SMILES>
C1C2COC3=CC=CC=C3C2CN1CC4=CC=CC=C4

> <PUBCHEM_CACTVS_TPSA>
12.5

> <PUBCHEM_MONOISOTOPIC_WEIGHT>
265.146664230

> <PUBCHEM_TOTAL_CHARGE>
0

> <PUBCHEM_HEAVY_ATOM_COUNT>
20

> <PUBCHEM_ATOM_DEF_STEREO_COUNT>
0

> <PUBCHEM_ATOM_UDEF_STEREO_COUNT>
2

> <PUBCHEM_BOND_DEF_STEREO_COUNT>
0

> <PUBCHEM_BOND_UDEF_STEREO_COUNT>
0

> <PUBCHEM_ISOTOPIC_ATOM_COUNT>
0

> <PUBCHEM_COMPONENT_COUNT>
1

> <PUBCHEM_CACTVS_TAUTO_COUNT>
-1

> <PUBCHEM_COORDINATE_TYPE>
1
5
255

> <PUBCHEM_BONDANNOTATIONS>
10  13  8
11  14  8
12  16  8
12  17  8
13  15  8
14  15  8
16  18  8
17  19  8
18  20  8
19  20  8
3  5  3
4  6  3
8  10  8
8  11  8

$$$$
