57339706
  -OEChem-09292322452D

 61 65  0     1  0  0  0  0  0999 V2000
   13.5784   -2.7148    0.0000 F   0  0  0  0  0  0  0  0  0  0  0  0
    4.9889    2.7148    0.0000 O   0  0  0  0  0  0  0  0  0  0  0  0
    6.7619   -1.6386    0.0000 O   0  0  0  0  0  0  0  0  0  0  0  0
   12.2917    0.5935    0.0000 O   0  0  0  0  0  0  0  0  0  0  0  0
    5.2619    0.9595    0.0000 N   0  0  0  0  0  0  0  0  0  0  0  0
    7.7619    0.0935    0.0000 N   0  0  0  0  0  0  0  0  0  0  0  0
   11.3455    0.8982    0.0000 N   0  0  0  0  0  0  0  0  0  0  0  0
    3.7320    0.4595    0.0000 C   0  0  1  0  0  0  0  0  0  0  0  0
    3.7320    1.4595    0.0000 C   0  0  2  0  0  0  0  0  0  0  0  0
    2.8660   -0.0405    0.0000 C   0  0  0  0  0  0  0  0  0  0  0  0
    2.8660    1.9595    0.0000 C   0  0  0  0  0  0  0  0  0  0  0  0
    4.6783    0.1548    0.0000 C   0  0  0  0  0  0  0  0  0  0  0  0
    4.6783    1.7642    0.0000 C   0  0  0  0  0  0  0  0  0  0  0  0
    2.0000    0.4595    0.0000 C   0  0  0  0  0  0  0  0  0  0  0  0
    2.0000    1.4595    0.0000 C   0  0  0  0  0  0  0  0  0  0  0  0
    6.7619    0.0935    0.0000 C   0  0  3  0  0  0  0  0  0  0  0  0
    6.2619    0.9595    0.0000 C   0  0  0  0  0  0  0  0  0  0  0  0
    9.7619    0.0935    0.0000 C   0  0  0  0  0  0  0  0  0  0  0  0
    8.2619   -0.7725    0.0000 C   0  0  0  0  0  0  0  0  0  0  0  0
    8.2619    0.9595    0.0000 C   0  0  0  0  0  0  0  0  0  0  0  0
    9.2619   -0.7725    0.0000 C   0  0  0  0  0  0  0  0  0  0  0  0
    9.2619    0.9595    0.0000 C   0  0  0  0  0  0  0  0  0  0  0  0
    6.2619   -0.7725    0.0000 C   0  0  0  0  0  0  0  0  0  0  0  0
    4.9889   -0.7957    0.0000 C   0  0  0  0  0  0  0  0  0  0  0  0
   10.7619    0.0935    0.0000 C   0  0  0  0  0  0  0  0  0  0  0  0
   11.3455   -0.7112    0.0000 C   0  0  0  0  0  0  0  0  0  0  0  0
   12.2960   -0.4006    0.0000 C   0  0  0  0  0  0  0  0  0  0  0  0
   11.1393   -1.6898    0.0000 C   0  0  0  0  0  0  0  0  0  0  0  0
   13.0403   -1.0684    0.0000 C   0  0  0  0  0  0  0  0  0  0  0  0
   11.8836   -2.3576    0.0000 C   0  0  0  0  0  0  0  0  0  0  0  0
   12.8341   -2.0469    0.0000 C   0  0  0  0  0  0  0  0  0  0  0  0
    3.8220   -0.3857    0.0000 H   0  0  0  0  0  0  0  0  0  0  0  0
    3.8220    2.3048    0.0000 H   0  0  0  0  0  0  0  0  0  0  0  0
    2.4675   -0.5154    0.0000 H   0  0  0  0  0  0  0  0  0  0  0  0
    3.2646   -0.5154    0.0000 H   0  0  0  0  0  0  0  0  0  0  0  0
    3.2646    2.4345    0.0000 H   0  0  0  0  0  0  0  0  0  0  0  0
    2.4675    2.4345    0.0000 H   0  0  0  0  0  0  0  0  0  0  0  0
    1.3894    0.5672    0.0000 H   0  0  0  0  0  0  0  0  0  0  0  0
    1.7880   -0.1231    0.0000 H   0  0  0  0  0  0  0  0  0  0  0  0
    1.7880    2.0421    0.0000 H   0  0  0  0  0  0  0  0  0  0  0  0
    1.3894    1.3519    0.0000 H   0  0  0  0  0  0  0  0  0  0  0  0
    7.0719   -0.4434    0.0000 H   0  0  0  0  0  0  0  0  0  0  0  0
    6.8445    1.1716    0.0000 H   0  0  0  0  0  0  0  0  0  0  0  0
    6.1542    1.5701    0.0000 H   0  0  0  0  0  0  0  0  0  0  0  0
   10.0719    0.6304    0.0000 H   0  0  0  0  0  0  0  0  0  0  0  0
    7.6793   -0.9846    0.0000 H   0  0  0  0  0  0  0  0  0  0  0  0
    8.3695   -1.3831    0.0000 H   0  0  0  0  0  0  0  0  0  0  0  0
    8.3695    1.5701    0.0000 H   0  0  0  0  0  0  0  0  0  0  0  0
    7.6793    1.1716    0.0000 H   0  0  0  0  0  0  0  0  0  0  0  0
    9.1542   -1.3831    0.0000 H   0  0  0  0  0  0  0  0  0  0  0  0
    9.8445   -0.9846    0.0000 H   0  0  0  0  0  0  0  0  0  0  0  0
    9.8445    1.1716    0.0000 H   0  0  0  0  0  0  0  0  0  0  0  0
    9.1542    1.5701    0.0000 H   0  0  0  0  0  0  0  0  0  0  0  0
    5.7869   -0.3740    0.0000 H   0  0  0  0  0  0  0  0  0  0  0  0
    5.7869   -1.1711    0.0000 H   0  0  0  0  0  0  0  0  0  0  0  0
    4.5749   -1.2572    0.0000 H   0  0  0  0  0  0  0  0  0  0  0  0
    5.5956   -0.9236    0.0000 H   0  0  0  0  0  0  0  0  0  0  0  0
    6.4519   -2.1755    0.0000 H   0  0  0  0  0  0  0  0  0  0  0  0
   10.5499   -1.8824    0.0000 H   0  0  0  0  0  0  0  0  0  0  0  0
   13.6296   -0.8758    0.0000 H   0  0  0  0  0  0  0  0  0  0  0  0
   11.7557   -2.9643    0.0000 H   0  0  0  0  0  0  0  0  0  0  0  0
  1 31  1  0  0  0  0
  2 13  2  0  0  0  0
  3 23  1  0  0  0  0
  3 58  1  0  0  0  0
  4  7  1  0  0  0  0
  4 27  1  0  0  0  0
  5 12  1  0  0  0  0
  5 13  1  0  0  0  0
  5 17  1  0  0  0  0
  6 16  1  0  0  0  0
  6 19  1  0  0  0  0
  6 20  1  0  0  0  0
  7 25  2  0  0  0  0
  8  9  1  0  0  0  0
  8 10  1  0  0  0  0
  8 12  1  0  0  0  0
  8 32  1  1  0  0  0
  9 11  1  0  0  0  0
  9 13  1  0  0  0  0
  9 33  1  1  0  0  0
 10 14  1  0  0  0  0
 10 34  1  0  0  0  0
 10 35  1  0  0  0  0
 11 15  1  0  0  0  0
 11 36  1  0  0  0  0
 11 37  1  0  0  0  0
 12 24  2  0  0  0  0
 14 15  1  0  0  0  0
 14 38  1  0  0  0  0
 14 39  1  0  0  0  0
 15 40  1  0  0  0  0
 15 41  1  0  0  0  0
 16 17  1  0  0  0  0
 16 23  1  0  0  0  0
 16 42  1  0  0  0  0
 17 43  1  0  0  0  0
 17 44  1  0  0  0  0
 18 21  1  0  0  0  0
 18 22  1  0  0  0  0
 18 25  1  0  0  0  0
 18 45  1  0  0  0  0
 19 21  1  0  0  0  0
 19 46  1  0  0  0  0
 19 47  1  0  0  0  0
 20 22  1  0  0  0  0
 20 48  1  0  0  0  0
 20 49  1  0  0  0  0
 21 50  1  0  0  0  0
 21 51  1  0  0  0  0
 22 52  1  0  0  0  0
 22 53  1  0  0  0  0
 23 54  1  0  0  0  0
 23 55  1  0  0  0  0
 24 56  1  0  0  0  0
 24 57  1  0  0  0  0
 25 26  1  0  0  0  0
 26 27  2  0  0  0  0
 26 28  1  0  0  0  0
 27 29  1  0  0  0  0
 28 30  2  0  0  0  0
 28 59  1  0  0  0  0
 29 31  2  0  0  0  0
 29 60  1  0  0  0  0
 30 31  1  0  0  0  0
 30 61  1  0  0  0  0
M  END
> <PUBCHEM_COMPOUND_CID>
57339706

> <PUBCHEM_COMPOUND_CANONICALIZED>
1

> <PUBCHEM_CACTVS_COMPLEXITY>
683

> <PUBCHEM_CACTVS_HBOND_ACCEPTOR>
6

> <PUBCHEM_CACTVS_HBOND_DONOR>
1

> <PUBCHEM_CACTVS_ROTATABLE_BOND>
5

> <PUBCHEM_CACTVS_SUBSKEYS>
AAADceB7MQAAAAAAAAAAAAAAAAAAAWLAAAA8YIAAAAAAAFgB8AAAHwAECAAADSzhng4whtMQAgCpA6VyUgCCAAAkIgAomCE+TNoKdrqAlZOUcYBmxhmYycecyOCOgAAAAAAIAAAAAAAAADAAAAAAAAAAAA==

> <PUBCHEM_IUPAC_OPENEYE_NAME>
(3aR,7aS)-2-[2-[4-(6-fluoro-1,2-benzoxazol-3-yl)-1-piperidyl]-3-hydroxy-propyl]-3-methylene-3a,4,5,6,7,7a-hexahydroisoindol-1-one

> <PUBCHEM_IUPAC_CAS_NAME>
(3aR,7aS)-2-[2-[4-(6-fluoro-1,2-benzoxazol-3-yl)-1-piperidinyl]-3-hydroxypropyl]-3-methylene-3a,4,5,6,7,7a-hexahydroisoindol-1-one

> <PUBCHEM_IUPAC_NAME_MARKUP>
(3<I>a</I><I>R</I>,7<I>a</I><I>S</I>)-2-[2-[4-(6-fluoro-1,2-benzoxazol-3-yl)piperidin-1-yl]-3-hydroxypropyl]-3-methylidene-3<I>a</I>,4,5,6,7,7<I>a</I>-hexahydroisoindol-1-one

> <PUBCHEM_IUPAC_NAME>
(3aR,7aS)-2-[2-[4-(6-fluoro-1,2-benzoxazol-3-yl)piperidin-1-yl]-3-hydroxypropyl]-3-methylidene-3a,4,5,6,7,7a-hexahydroisoindol-1-one

> <PUBCHEM_IUPAC_SYSTEMATIC_NAME>
(3aR,7aS)-2-[2-[4-(6-fluoranyl-1,2-benzoxazol-3-yl)piperidin-1-yl]-3-oxidanyl-propyl]-3-methylidene-3a,4,5,6,7,7a-hexahydroisoindol-1-one

> <PUBCHEM_IUPAC_TRADITIONAL_NAME>
(3aR,7aS)-2-[2-[4-(6-fluoroindoxazen-3-yl)piperidino]-3-hydroxy-propyl]-3-methylene-3a,4,5,6,7,7a-hexahydroisoindol-1-one

> <PUBCHEM_IUPAC_INCHI>
InChI=1S/C24H30FN3O3/c1-15-19-4-2-3-5-20(19)24(30)28(15)13-18(14-29)27-10-8-16(9-11-27)23-21-7-6-17(25)12-22(21)31-26-23/h6-7,12,16,18-20,29H,1-5,8-11,13-14H2/t18?,19-,20-/m0/s1

> <PUBCHEM_IUPAC_INCHIKEY>
JOEBPYFHQSFJJM-YPJRHXLCSA-N

> <PUBCHEM_XLOGP3_AA>
3.2

> <PUBCHEM_EXACT_MASS>
427.22711999

> <PUBCHEM_MOLECULAR_FORMULA>
C24H30FN3O3

> <PUBCHEM_MOLECULAR_WEIGHT>
427.5

> <PUBCHEM_OPENEYE_CAN_SMILES>
C=C1C2CCCCC2C(=O)N1CC(CO)N3CCC(CC3)C4=NOC5=C4C=CC(=C5)F

> <PUBCHEM_OPENEYE_ISO_SMILES>
C=C1[C@@H]2CCCC[C@@H]2C(=O)N1CC(CO)N3CCC(CC3)C4=NOC5=C4C=CC(=C5)F

> <PUBCHEM_CACTVS_TPSA>
69.8

> <PUBCHEM_MONOISOTOPIC_WEIGHT>
427.22711999

> <PUBCHEM_TOTAL_CHARGE>
0

> <PUBCHEM_HEAVY_ATOM_COUNT>
31

> <PUBCHEM_ATOM_DEF_STEREO_COUNT>
2

> <PUBCHEM_ATOM_UDEF_STEREO_COUNT>
1

> <PUBCHEM_BOND_DEF_STEREO_COUNT>
0

> <PUBCHEM_BOND_UDEF_STEREO_COUNT>
0

> <PUBCHEM_ISOTOPIC_ATOM_COUNT>
0

> <PUBCHEM_COMPONENT_COUNT>
1

> <PUBCHEM_CACTVS_TAUTO_COUNT>
-1

> <PUBCHEM_COORDINATE_TYPE>
1
5
255

> <PUBCHEM_BONDANNOTATIONS>
16  17  3
25  26  8
26  27  8
26  28  8
27  29  8
28  30  8
29  31  8
30  31  8
4  27  8
4  7  8
7  25  8
8  32  5
9  33  5

$$$$
