10854042
  -OEChem-09292322002D

 52 53  0     1  0  0  0  0  0999 V2000
    9.7260   -3.5530    0.0000 O   0  0  0  0  0  0  0  0  0  0  0  0
    2.8660    3.4470    0.0000 O   0  0  0  0  0  0  0  0  0  0  0  0
    4.5981    3.4470    0.0000 O   0  0  0  0  0  0  0  0  0  0  0  0
    5.4641   -0.0530    0.0000 N   0  0  3  0  0  0  0  0  0  0  0  0
    8.1424   -4.3577    0.0000 N   0  0  0  0  0  0  0  0  0  0  0  0
    5.4641   -1.0530    0.0000 C   0  0  0  0  0  0  0  0  0  0  0  0
    6.3301   -1.5530    0.0000 C   0  0  0  0  0  0  0  0  0  0  0  0
    4.5981    0.4470    0.0000 C   0  0  0  0  0  0  0  0  0  0  0  0
    6.3301    0.4470    0.0000 C   0  0  0  0  0  0  0  0  0  0  0  0
    6.3301   -2.5530    0.0000 C   0  0  0  0  0  0  0  0  0  0  0  0
    7.1962   -3.0530    0.0000 C   0  0  0  0  0  0  0  0  0  0  0  0
    4.5981    1.4470    0.0000 C   0  0  0  0  0  0  0  0  0  0  0  0
    8.1424   -2.7482    0.0000 C   0  0  0  0  0  0  0  0  0  0  0  0
    7.1962   -4.0530    0.0000 C   0  0  0  0  0  0  0  0  0  0  0  0
    6.3301    1.4470    0.0000 C   0  0  0  0  0  0  0  0  0  0  0  0
    5.4641   -3.0530    0.0000 C   0  0  0  0  0  0  0  0  0  0  0  0
    3.7320    1.9470    0.0000 C   0  0  0  0  0  0  0  0  0  0  0  0
    8.7260   -3.5530    0.0000 C   0  0  0  0  0  0  0  0  0  0  0  0
    6.3301   -4.5530    0.0000 C   0  0  0  0  0  0  0  0  0  0  0  0
    5.4641   -4.0530    0.0000 C   0  0  0  0  0  0  0  0  0  0  0  0
    7.1962    1.9470    0.0000 C   0  0  0  0  0  0  0  0  0  0  0  0
    3.7320    2.9470    0.0000 C   0  0  0  0  0  0  0  0  0  0  0  0
    2.8660    4.4470    0.0000 C   0  0  0  0  0  0  0  0  0  0  0  0
    2.0000    4.9470    0.0000 C   0  0  0  0  0  0  0  0  0  0  0  0
    4.8535   -0.9453    0.0000 H   0  0  0  0  0  0  0  0  0  0  0  0
    5.2520   -1.6356    0.0000 H   0  0  0  0  0  0  0  0  0  0  0  0
    6.9407   -1.6606    0.0000 H   0  0  0  0  0  0  0  0  0  0  0  0
    6.5422   -0.9704    0.0000 H   0  0  0  0  0  0  0  0  0  0  0  0
    3.9875    0.5547    0.0000 H   0  0  0  0  0  0  0  0  0  0  0  0
    4.3860   -0.1356    0.0000 H   0  0  0  0  0  0  0  0  0  0  0  0
    6.5422   -0.1356    0.0000 H   0  0  0  0  0  0  0  0  0  0  0  0
    6.9407    0.5547    0.0000 H   0  0  0  0  0  0  0  0  0  0  0  0
    5.2087    1.3394    0.0000 H   0  0  0  0  0  0  0  0  0  0  0  0
    4.8101    2.0296    0.0000 H   0  0  0  0  0  0  0  0  0  0  0  0
    8.6798   -2.4390    0.0000 H   0  0  0  0  0  0  0  0  0  0  0  0
    7.8913   -2.1813    0.0000 H   0  0  0  0  0  0  0  0  0  0  0  0
    6.1181    2.0296    0.0000 H   0  0  0  0  0  0  0  0  0  0  0  0
    5.7196    1.3394    0.0000 H   0  0  0  0  0  0  0  0  0  0  0  0
    4.9272   -2.7430    0.0000 H   0  0  0  0  0  0  0  0  0  0  0  0
    3.1215    2.0547    0.0000 H   0  0  0  0  0  0  0  0  0  0  0  0
    3.5200    1.3644    0.0000 H   0  0  0  0  0  0  0  0  0  0  0  0
    8.3350   -4.9470    0.0000 H   0  0  0  0  0  0  0  0  0  0  0  0
    6.3301   -5.1730    0.0000 H   0  0  0  0  0  0  0  0  0  0  0  0
    4.9272   -4.3630    0.0000 H   0  0  0  0  0  0  0  0  0  0  0  0
    7.5062    1.4101    0.0000 H   0  0  0  0  0  0  0  0  0  0  0  0
    7.7331    2.2570    0.0000 H   0  0  0  0  0  0  0  0  0  0  0  0
    6.8862    2.4840    0.0000 H   0  0  0  0  0  0  0  0  0  0  0  0
    3.4766    4.3394    0.0000 H   0  0  0  0  0  0  0  0  0  0  0  0
    3.0781    5.0296    0.0000 H   0  0  0  0  0  0  0  0  0  0  0  0
    2.3100    5.4840    0.0000 H   0  0  0  0  0  0  0  0  0  0  0  0
    1.4631    5.2570    0.0000 H   0  0  0  0  0  0  0  0  0  0  0  0
    1.6900    4.4101    0.0000 H   0  0  0  0  0  0  0  0  0  0  0  0
  1 18  2  0  0  0  0
  2 22  1  0  0  0  0
  2 23  1  0  0  0  0
  3 22  2  0  0  0  0
  4  6  1  0  0  0  0
  4  8  1  0  0  0  0
  4  9  1  0  0  0  0
  5 14  1  0  0  0  0
  5 18  1  0  0  0  0
  5 42  1  0  0  0  0
  6  7  1  0  0  0  0
  6 25  1  0  0  0  0
  6 26  1  0  0  0  0
  7 10  1  0  0  0  0
  7 27  1  0  0  0  0
  7 28  1  0  0  0  0
  8 12  1  0  0  0  0
  8 29  1  0  0  0  0
  8 30  1  0  0  0  0
  9 15  1  0  0  0  0
  9 31  1  0  0  0  0
  9 32  1  0  0  0  0
 10 11  2  0  0  0  0
 10 16  1  0  0  0  0
 11 13  1  0  0  0  0
 11 14  1  0  0  0  0
 12 17  1  0  0  0  0
 12 33  1  0  0  0  0
 12 34  1  0  0  0  0
 13 18  1  0  0  0  0
 13 35  1  0  0  0  0
 13 36  1  0  0  0  0
 14 19  2  0  0  0  0
 15 21  1  0  0  0  0
 15 37  1  0  0  0  0
 15 38  1  0  0  0  0
 16 20  2  0  0  0  0
 16 39  1  0  0  0  0
 17 22  1  0  0  0  0
 17 40  1  0  0  0  0
 17 41  1  0  0  0  0
 19 20  1  0  0  0  0
 19 43  1  0  0  0  0
 20 44  1  0  0  0  0
 21 45  1  0  0  0  0
 21 46  1  0  0  0  0
 21 47  1  0  0  0  0
 23 24  1  0  0  0  0
 23 48  1  0  0  0  0
 23 49  1  0  0  0  0
 24 50  1  0  0  0  0
 24 51  1  0  0  0  0
 24 52  1  0  0  0  0
M  END
> <PUBCHEM_COMPOUND_CID>
10854042

> <PUBCHEM_COMPOUND_CANONICALIZED>
1

> <PUBCHEM_CACTVS_COMPLEXITY>
413

> <PUBCHEM_CACTVS_HBOND_ACCEPTOR>
4

> <PUBCHEM_CACTVS_HBOND_DONOR>
1

> <PUBCHEM_CACTVS_ROTATABLE_BOND>
11

> <PUBCHEM_CACTVS_SUBSKEYS>
AAADceB7MAAAAAAAAAAAAAAAAAAAAWAAAAAwAAAAAAAAAFgBAAAAHgAQAAAADAjhmAYyyIPABACIAiXSWACCAAAhAgAIiAEIZIgIIDLAlZGGIAhklADIyAc8iICOgAAAQAASAAAAAACAACQAAAAAAAAAAA==

> <PUBCHEM_IUPAC_OPENEYE_NAME>
ethyl 4-[2-(2-oxoindolin-4-yl)ethyl-propyl-amino]butanoate

> <PUBCHEM_IUPAC_CAS_NAME>
4-[2-(2-oxo-1,3-dihydroindol-4-yl)ethyl-propylamino]butanoic acid ethyl ester

> <PUBCHEM_IUPAC_NAME_MARKUP>
ethyl 4-[2-(2-oxo-1,3-dihydroindol-4-yl)ethyl-propylamino]butanoate

> <PUBCHEM_IUPAC_NAME>
ethyl 4-[2-(2-oxo-1,3-dihydroindol-4-yl)ethyl-propylamino]butanoate

> <PUBCHEM_IUPAC_SYSTEMATIC_NAME>
ethyl 4-[2-(2-oxidanylidene-1,3-dihydroindol-4-yl)ethyl-propyl-amino]butanoate

> <PUBCHEM_IUPAC_TRADITIONAL_NAME>
4-[2-(2-ketoindolin-4-yl)ethyl-propyl-amino]butyric acid ethyl ester

> <PUBCHEM_IUPAC_INCHI>
InChI=1S/C19H28N2O3/c1-3-11-21(12-6-9-19(23)24-4-2)13-10-15-7-5-8-17-16(15)14-18(22)20-17/h5,7-8H,3-4,6,9-14H2,1-2H3,(H,20,22)

> <PUBCHEM_IUPAC_INCHIKEY>
WERKEUPGJIAGPV-UHFFFAOYSA-N

> <PUBCHEM_XLOGP3>
2.4

> <PUBCHEM_EXACT_MASS>
332.20999276

> <PUBCHEM_MOLECULAR_FORMULA>
C19H28N2O3

> <PUBCHEM_MOLECULAR_WEIGHT>
332.4

> <PUBCHEM_OPENEYE_CAN_SMILES>
CCCN(CCCC(=O)OCC)CCC1=C2CC(=O)NC2=CC=C1

> <PUBCHEM_OPENEYE_ISO_SMILES>
CCCN(CCCC(=O)OCC)CCC1=C2CC(=O)NC2=CC=C1

> <PUBCHEM_CACTVS_TPSA>
58.6

> <PUBCHEM_MONOISOTOPIC_WEIGHT>
332.20999276

> <PUBCHEM_TOTAL_CHARGE>
0

> <PUBCHEM_HEAVY_ATOM_COUNT>
24

> <PUBCHEM_ATOM_DEF_STEREO_COUNT>
0

> <PUBCHEM_ATOM_UDEF_STEREO_COUNT>
0

> <PUBCHEM_BOND_DEF_STEREO_COUNT>
0

> <PUBCHEM_BOND_UDEF_STEREO_COUNT>
0

> <PUBCHEM_ISOTOPIC_ATOM_COUNT>
0

> <PUBCHEM_COMPONENT_COUNT>
1

> <PUBCHEM_CACTVS_TAUTO_COUNT>
-1

> <PUBCHEM_COORDINATE_TYPE>
1
5
255

> <PUBCHEM_BONDANNOTATIONS>
10  11  8
10  16  8
11  14  8
14  19  8
16  20  8
19  20  8

$$$$
