122191607
  -OEChem-09292322362D

 63 66  0     1  0  0  0  0  0999 V2000
   12.4133    3.7625    0.0000 Br  0  0  0  0  0  0  0  0  0  0  0  0
    6.8994    0.8304    0.0000 N   0  0  0  0  0  0  0  0  0  0  0  0
    6.2781   -1.0707    0.0000 N   0  0  0  0  0  0  0  0  0  0  0  0
    8.4993    2.9376    0.0000 N   0  0  3  0  0  0  0  0  0  0  0  0
    4.6783   -4.7874    0.0000 N   0  0  0  0  0  0  0  0  0  0  0  0
    5.9209    0.6241    0.0000 C   0  0  0  0  0  0  0  0  0  0  0  0
    7.5673    0.0861    0.0000 C   0  0  0  0  0  0  0  0  0  0  0  0
    5.6103   -0.3264    0.0000 C   0  0  0  0  0  0  0  0  0  0  0  0
    7.2566   -0.8645    0.0000 C   0  0  0  0  0  0  0  0  0  0  0  0
    7.2101    1.7809    0.0000 C   0  0  0  0  0  0  0  0  0  0  0  0
    5.9674   -2.0212    0.0000 C   0  0  0  0  0  0  0  0  0  0  0  0
    8.1886    1.9871    0.0000 C   0  0  0  0  0  0  0  0  0  0  0  0
    4.9889   -2.2274    0.0000 C   0  0  0  0  0  0  0  0  0  0  0  0
    4.6783   -3.1780    0.0000 C   0  0  0  0  0  0  0  0  0  0  0  0
    7.8314    3.6819    0.0000 C   0  0  0  0  0  0  0  0  0  0  0  0
    3.7320   -3.4827    0.0000 C   0  0  0  0  0  0  0  0  0  0  0  0
    9.4778    3.1438    0.0000 C   0  0  0  0  0  0  0  0  0  0  0  0
    5.2619   -3.9827    0.0000 C   0  0  0  0  0  0  0  0  0  0  0  0
    3.7320   -4.4827    0.0000 C   0  0  0  0  0  0  0  0  0  0  0  0
    8.1421    4.6324    0.0000 C   0  0  0  0  0  0  0  0  0  0  0  0
    2.8660   -2.9827    0.0000 C   0  0  0  0  0  0  0  0  0  0  0  0
   10.1456    2.3995    0.0000 C   0  0  0  0  0  0  0  0  0  0  0  0
    9.7884    4.0944    0.0000 C   0  0  0  0  0  0  0  0  0  0  0  0
    2.8660   -4.9827    0.0000 C   0  0  0  0  0  0  0  0  0  0  0  0
    7.4742    5.3767    0.0000 C   0  0  0  0  0  0  0  0  0  0  0  0
    2.0000   -3.4827    0.0000 C   0  0  0  0  0  0  0  0  0  0  0  0
    2.0000   -4.4827    0.0000 C   0  0  0  0  0  0  0  0  0  0  0  0
   11.1241    2.6058    0.0000 C   0  0  0  0  0  0  0  0  0  0  0  0
   10.7669    4.3006    0.0000 C   0  0  0  0  0  0  0  0  0  0  0  0
   11.4348    3.5563    0.0000 C   0  0  0  0  0  0  0  0  0  0  0  0
    5.9004    1.2438    0.0000 H   0  0  0  0  0  0  0  0  0  0  0  0
    5.3071    0.7115    0.0000 H   0  0  0  0  0  0  0  0  0  0  0  0
    8.1142   -0.2060    0.0000 H   0  0  0  0  0  0  0  0  0  0  0  0
    7.9498    0.5740    0.0000 H   0  0  0  0  0  0  0  0  0  0  0  0
    5.0633   -0.0344    0.0000 H   0  0  0  0  0  0  0  0  0  0  0  0
    5.2277   -0.8143    0.0000 H   0  0  0  0  0  0  0  0  0  0  0  0
    7.2772   -1.4841    0.0000 H   0  0  0  0  0  0  0  0  0  0  0  0
    7.8704   -0.9518    0.0000 H   0  0  0  0  0  0  0  0  0  0  0  0
    7.1895    2.4005    0.0000 H   0  0  0  0  0  0  0  0  0  0  0  0
    6.5963    1.8682    0.0000 H   0  0  0  0  0  0  0  0  0  0  0  0
    5.9880   -2.6409    0.0000 H   0  0  0  0  0  0  0  0  0  0  0  0
    6.5812   -2.1086    0.0000 H   0  0  0  0  0  0  0  0  0  0  0  0
    8.2092    1.3674    0.0000 H   0  0  0  0  0  0  0  0  0  0  0  0
    8.8024    1.8997    0.0000 H   0  0  0  0  0  0  0  0  0  0  0  0
    4.9684   -1.6078    0.0000 H   0  0  0  0  0  0  0  0  0  0  0  0
    4.3751   -2.1401    0.0000 H   0  0  0  0  0  0  0  0  0  0  0  0
    7.2845    3.9739    0.0000 H   0  0  0  0  0  0  0  0  0  0  0  0
    7.4489    3.1940    0.0000 H   0  0  0  0  0  0  0  0  0  0  0  0
    5.8819   -3.9827    0.0000 H   0  0  0  0  0  0  0  0  0  0  0  0
    8.6890    4.3404    0.0000 H   0  0  0  0  0  0  0  0  0  0  0  0
    8.5246    5.1203    0.0000 H   0  0  0  0  0  0  0  0  0  0  0  0
    4.8709   -5.3767    0.0000 H   0  0  0  0  0  0  0  0  0  0  0  0
    2.8660   -2.3627    0.0000 H   0  0  0  0  0  0  0  0  0  0  0  0
    9.9530    1.8102    0.0000 H   0  0  0  0  0  0  0  0  0  0  0  0
    9.3744    4.5558    0.0000 H   0  0  0  0  0  0  0  0  0  0  0  0
    2.8660   -5.6027    0.0000 H   0  0  0  0  0  0  0  0  0  0  0  0
    7.9357    5.7908    0.0000 H   0  0  0  0  0  0  0  0  0  0  0  0
    7.0602    5.8382    0.0000 H   0  0  0  0  0  0  0  0  0  0  0  0
    7.0128    4.9627    0.0000 H   0  0  0  0  0  0  0  0  0  0  0  0
    1.4631   -3.1727    0.0000 H   0  0  0  0  0  0  0  0  0  0  0  0
    1.4631   -4.7927    0.0000 H   0  0  0  0  0  0  0  0  0  0  0  0
   11.5382    2.1443    0.0000 H   0  0  0  0  0  0  0  0  0  0  0  0
   10.9595    4.8899    0.0000 H   0  0  0  0  0  0  0  0  0  0  0  0
  1 30  1  0  0  0  0
  2  6  1  0  0  0  0
  2  7  1  0  0  0  0
  2 10  1  0  0  0  0
  3  8  1  0  0  0  0
  3  9  1  0  0  0  0
  3 11  1  0  0  0  0
  4 12  1  0  0  0  0
  4 15  1  0  0  0  0
  4 17  1  0  0  0  0
  5 18  1  0  0  0  0
  5 19  1  0  0  0  0
  5 52  1  0  0  0  0
  6  8  1  0  0  0  0
  6 31  1  0  0  0  0
  6 32  1  0  0  0  0
  7  9  1  0  0  0  0
  7 33  1  0  0  0  0
  7 34  1  0  0  0  0
  8 35  1  0  0  0  0
  8 36  1  0  0  0  0
  9 37  1  0  0  0  0
  9 38  1  0  0  0  0
 10 12  1  0  0  0  0
 10 39  1  0  0  0  0
 10 40  1  0  0  0  0
 11 13  1  0  0  0  0
 11 41  1  0  0  0  0
 11 42  1  0  0  0  0
 12 43  1  0  0  0  0
 12 44  1  0  0  0  0
 13 14  1  0  0  0  0
 13 45  1  0  0  0  0
 13 46  1  0  0  0  0
 14 16  1  0  0  0  0
 14 18  2  0  0  0  0
 15 20  1  0  0  0  0
 15 47  1  0  0  0  0
 15 48  1  0  0  0  0
 16 19  1  0  0  0  0
 16 21  2  0  0  0  0
 17 22  2  0  0  0  0
 17 23  1  0  0  0  0
 18 49  1  0  0  0  0
 19 24  2  0  0  0  0
 20 25  1  0  0  0  0
 20 50  1  0  0  0  0
 20 51  1  0  0  0  0
 21 26  1  0  0  0  0
 21 53  1  0  0  0  0
 22 28  1  0  0  0  0
 22 54  1  0  0  0  0
 23 29  2  0  0  0  0
 23 55  1  0  0  0  0
 24 27  1  0  0  0  0
 24 56  1  0  0  0  0
 25 57  1  0  0  0  0
 25 58  1  0  0  0  0
 25 59  1  0  0  0  0
 26 27  2  0  0  0  0
 26 60  1  0  0  0  0
 27 61  1  0  0  0  0
 28 30  2  0  0  0  0
 28 62  1  0  0  0  0
 29 30  1  0  0  0  0
 29 63  1  0  0  0  0
M  END
> <PUBCHEM_COMPOUND_CID>
122191607

> <PUBCHEM_COMPOUND_CANONICALIZED>
1

> <PUBCHEM_CACTVS_COMPLEXITY>
488

> <PUBCHEM_CACTVS_HBOND_ACCEPTOR>
3

> <PUBCHEM_CACTVS_HBOND_DONOR>
1

> <PUBCHEM_CACTVS_ROTATABLE_BOND>
9

> <PUBCHEM_CACTVS_SUBSKEYS>
AAADcfB7gAAAEAAAAAAAAAAAAAAAAWAAAAA8YIAAAAAAAFgB9AAAHABQAAABrAjBHgQ+wPPJkACgAzRnRACCgCAxAiQI2aA4ZLgIYOLAkZGUIAhgkADIyhcQgMAOgAAgAAACAAAAAEAAAAQAAAAAAAAAAA==

> <PUBCHEM_IUPAC_OPENEYE_NAME>
4-bromo-N-[2-[4-[2-(1H-indol-3-yl)ethyl]piperazin-1-yl]ethyl]-N-propyl-aniline

> <PUBCHEM_IUPAC_CAS_NAME>
4-bromo-N-[2-[4-[2-(1H-indol-3-yl)ethyl]-1-piperazinyl]ethyl]-N-propylaniline

> <PUBCHEM_IUPAC_NAME_MARKUP>
4-bromo-<I>N</I>-[2-[4-[2-(1<I>H</I>-indol-3-yl)ethyl]piperazin-1-yl]ethyl]-<I>N</I>-propylaniline

> <PUBCHEM_IUPAC_NAME>
4-bromo-N-[2-[4-[2-(1H-indol-3-yl)ethyl]piperazin-1-yl]ethyl]-N-propylaniline

> <PUBCHEM_IUPAC_SYSTEMATIC_NAME>
4-bromanyl-N-[2-[4-[2-(1H-indol-3-yl)ethyl]piperazin-1-yl]ethyl]-N-propyl-aniline

> <PUBCHEM_IUPAC_TRADITIONAL_NAME>
(4-bromophenyl)-[2-[4-[2-(1H-indol-3-yl)ethyl]piperazino]ethyl]-propyl-amine

> <PUBCHEM_IUPAC_INCHI>
InChI=1S/C25H33BrN4/c1-2-12-30(23-9-7-22(26)8-10-23)19-18-29-16-14-28(15-17-29)13-11-21-20-27-25-6-4-3-5-24(21)25/h3-10,20,27H,2,11-19H2,1H3

> <PUBCHEM_IUPAC_INCHIKEY>
XZUUIMQQOCYISH-UHFFFAOYSA-N

> <PUBCHEM_XLOGP3>
5.7

> <PUBCHEM_EXACT_MASS>
468.18886

> <PUBCHEM_MOLECULAR_FORMULA>
C25H33BrN4

> <PUBCHEM_MOLECULAR_WEIGHT>
469.5

> <PUBCHEM_OPENEYE_CAN_SMILES>
CCCN(CCN1CCN(CC1)CCC2=CNC3=CC=CC=C32)C4=CC=C(C=C4)Br

> <PUBCHEM_OPENEYE_ISO_SMILES>
CCCN(CCN1CCN(CC1)CCC2=CNC3=CC=CC=C32)C4=CC=C(C=C4)Br

> <PUBCHEM_CACTVS_TPSA>
25.5

> <PUBCHEM_MONOISOTOPIC_WEIGHT>
468.18886

> <PUBCHEM_TOTAL_CHARGE>
0

> <PUBCHEM_HEAVY_ATOM_COUNT>
30

> <PUBCHEM_ATOM_DEF_STEREO_COUNT>
0

> <PUBCHEM_ATOM_UDEF_STEREO_COUNT>
0

> <PUBCHEM_BOND_DEF_STEREO_COUNT>
0

> <PUBCHEM_BOND_UDEF_STEREO_COUNT>
0

> <PUBCHEM_ISOTOPIC_ATOM_COUNT>
0

> <PUBCHEM_COMPONENT_COUNT>
1

> <PUBCHEM_CACTVS_TAUTO_COUNT>
-1

> <PUBCHEM_COORDINATE_TYPE>
1
5
255

> <PUBCHEM_BONDANNOTATIONS>
14  16  8
14  18  8
16  19  8
16  21  8
17  22  8
17  23  8
19  24  8
21  26  8
22  28  8
23  29  8
24  27  8
26  27  8
28  30  8
29  30  8
5  18  8
5  19  8

$$$$
