118709160
  -OEChem-09292322352D

109114  0     0  0  0  0  0  0999 V2000
   12.6603    7.9641    0.0000 Cl  0  0  0  0  0  0  0  0  0  0  0  0
   18.6603    4.5000    0.0000 Cl  0  0  0  0  0  0  0  0  0  0  0  0
    2.0000    1.5000    0.0000 F   0  0  0  0  0  0  0  0  0  0  0  0
   14.9282   -7.9641    0.0000 F   0  0  0  0  0  0  0  0  0  0  0  0
   11.6603    4.5000    0.0000 O   0  0  0  0  0  0  0  0  0  0  0  0
   16.1603    1.9019    0.0000 O   0  0  0  0  0  0  0  0  0  0  0  0
   11.6603    2.7680    0.0000 O   0  0  0  0  0  0  0  0  0  0  0  0
   14.6603    1.0359    0.0000 O   0  0  0  0  0  0  0  0  0  0  0  0
    5.4641    4.5000    0.0000 O   0  0  0  0  0  0  0  0  0  0  0  0
   14.0622   -3.4641    0.0000 O   0  0  0  0  0  0  0  0  0  0  0  0
    8.9282    3.5000    0.0000 N   0  0  0  0  0  0  0  0  0  0  0  0
   16.6603   -0.9641    0.0000 N   0  0  0  0  0  0  0  0  0  0  0  0
   10.6603    4.5000    0.0000 C   0  0  0  0  0  0  0  0  0  0  0  0
   16.6603    1.0359    0.0000 C   0  0  0  0  0  0  0  0  0  0  0  0
   10.6603    3.5000    0.0000 C   0  0  0  0  0  0  0  0  0  0  0  0
    9.7942    5.0000    0.0000 C   0  0  0  0  0  0  0  0  0  0  0  0
   17.5263    0.5359    0.0000 C   0  0  0  0  0  0  0  0  0  0  0  0
   15.7942    0.5359    0.0000 C   0  0  0  0  0  0  0  0  0  0  0  0
    9.7942    3.0000    0.0000 C   0  0  0  0  0  0  0  0  0  0  0  0
    8.9282    4.5000    0.0000 C   0  0  0  0  0  0  0  0  0  0  0  0
   17.5263   -0.4641    0.0000 C   0  0  0  0  0  0  0  0  0  0  0  0
   15.7942   -0.4641    0.0000 C   0  0  0  0  0  0  0  0  0  0  0  0
   11.1603    5.3660    0.0000 C   0  0  0  0  0  0  0  0  0  0  0  0
   17.1603    1.9019    0.0000 C   0  0  0  0  0  0  0  0  0  0  0  0
    8.0622    3.0000    0.0000 C   0  0  0  0  0  0  0  0  0  0  0  0
   16.6603   -1.9641    0.0000 C   0  0  0  0  0  0  0  0  0  0  0  0
    7.1962    3.5000    0.0000 C   0  0  0  0  0  0  0  0  0  0  0  0
   15.7942   -2.4641    0.0000 C   0  0  0  0  0  0  0  0  0  0  0  0
   12.1603    5.3660    0.0000 C   0  0  0  0  0  0  0  0  0  0  0  0
   16.6603    2.7680    0.0000 C   0  0  0  0  0  0  0  0  0  0  0  0
   10.6603    6.2320    0.0000 C   0  0  0  0  0  0  0  0  0  0  0  0
   18.1603    1.9019    0.0000 C   0  0  0  0  0  0  0  0  0  0  0  0
   12.1603    3.6340    0.0000 C   0  0  0  0  0  0  0  0  0  0  0  0
   15.1603    1.9019    0.0000 C   0  0  0  0  0  0  0  0  0  0  0  0
   13.1603    3.6340    0.0000 C   0  0  0  0  0  0  0  0  0  0  0  0
   14.6603    2.7680    0.0000 C   0  0  0  0  0  0  0  0  0  0  0  0
   13.6603    2.7680    0.0000 C   0  0  0  0  0  0  0  0  0  0  0  0
    6.3301    3.0000    0.0000 C   0  0  0  0  0  0  0  0  0  0  0  0
   15.7942   -3.4641    0.0000 C   0  0  0  0  0  0  0  0  0  0  0  0
   12.6603    6.2320    0.0000 C   0  0  0  0  0  0  0  0  0  0  0  0
   17.1603    3.6340    0.0000 C   0  0  0  0  0  0  0  0  0  0  0  0
   11.1603    7.0981    0.0000 C   0  0  0  0  0  0  0  0  0  0  0  0
   18.6603    2.7680    0.0000 C   0  0  0  0  0  0  0  0  0  0  0  0
   12.1603    7.0981    0.0000 C   0  0  0  0  0  0  0  0  0  0  0  0
   18.1603    3.6340    0.0000 C   0  0  0  0  0  0  0  0  0  0  0  0
    5.4641    3.5000    0.0000 C   0  0  0  0  0  0  0  0  0  0  0  0
   14.9282   -3.9641    0.0000 C   0  0  0  0  0  0  0  0  0  0  0  0
    4.5981    3.0000    0.0000 C   0  0  0  0  0  0  0  0  0  0  0  0
   14.9282   -4.9641    0.0000 C   0  0  0  0  0  0  0  0  0  0  0  0
    4.5981    2.0000    0.0000 C   0  0  0  0  0  0  0  0  0  0  0  0
   14.0622   -5.4641    0.0000 C   0  0  0  0  0  0  0  0  0  0  0  0
    3.7320    3.5000    0.0000 C   0  0  0  0  0  0  0  0  0  0  0  0
   15.7942   -5.4641    0.0000 C   0  0  0  0  0  0  0  0  0  0  0  0
    3.7320    1.5000    0.0000 C   0  0  0  0  0  0  0  0  0  0  0  0
   14.0622   -6.4641    0.0000 C   0  0  0  0  0  0  0  0  0  0  0  0
    2.8660    3.0000    0.0000 C   0  0  0  0  0  0  0  0  0  0  0  0
   15.7942   -6.4641    0.0000 C   0  0  0  0  0  0  0  0  0  0  0  0
    2.8660    2.0000    0.0000 C   0  0  0  0  0  0  0  0  0  0  0  0
   14.9282   -6.9641    0.0000 C   0  0  0  0  0  0  0  0  0  0  0  0
   10.8723    2.9174    0.0000 H   0  0  0  0  0  0  0  0  0  0  0  0
   11.2708    3.6077    0.0000 H   0  0  0  0  0  0  0  0  0  0  0  0
   10.1928    5.4750    0.0000 H   0  0  0  0  0  0  0  0  0  0  0  0
    9.3957    5.4750    0.0000 H   0  0  0  0  0  0  0  0  0  0  0  0
   18.1369    0.4282    0.0000 H   0  0  0  0  0  0  0  0  0  0  0  0
   17.7383    1.1185    0.0000 H   0  0  0  0  0  0  0  0  0  0  0  0
   15.5822    1.1185    0.0000 H   0  0  0  0  0  0  0  0  0  0  0  0
   15.1836    0.4282    0.0000 H   0  0  0  0  0  0  0  0  0  0  0  0
    9.3957    2.5250    0.0000 H   0  0  0  0  0  0  0  0  0  0  0  0
   10.1928    2.5250    0.0000 H   0  0  0  0  0  0  0  0  0  0  0  0
    8.7162    5.0826    0.0000 H   0  0  0  0  0  0  0  0  0  0  0  0
    8.3176    4.3923    0.0000 H   0  0  0  0  0  0  0  0  0  0  0  0
   17.7383   -1.0467    0.0000 H   0  0  0  0  0  0  0  0  0  0  0  0
   18.1369   -0.3564    0.0000 H   0  0  0  0  0  0  0  0  0  0  0  0
   15.1836   -0.3564    0.0000 H   0  0  0  0  0  0  0  0  0  0  0  0
   15.5822   -1.0467    0.0000 H   0  0  0  0  0  0  0  0  0  0  0  0
    7.6636    2.5250    0.0000 H   0  0  0  0  0  0  0  0  0  0  0  0
    8.4607    2.5250    0.0000 H   0  0  0  0  0  0  0  0  0  0  0  0
   16.8723   -2.5467    0.0000 H   0  0  0  0  0  0  0  0  0  0  0  0
   17.2708   -1.8564    0.0000 H   0  0  0  0  0  0  0  0  0  0  0  0
    7.5947    3.9750    0.0000 H   0  0  0  0  0  0  0  0  0  0  0  0
    6.7976    3.9750    0.0000 H   0  0  0  0  0  0  0  0  0  0  0  0
   15.5822   -1.8815    0.0000 H   0  0  0  0  0  0  0  0  0  0  0  0
   15.1836   -2.5718    0.0000 H   0  0  0  0  0  0  0  0  0  0  0  0
   12.4703    4.8291    0.0000 H   0  0  0  0  0  0  0  0  0  0  0  0
   16.0403    2.7680    0.0000 H   0  0  0  0  0  0  0  0  0  0  0  0
   10.0403    6.2320    0.0000 H   0  0  0  0  0  0  0  0  0  0  0  0
   18.4703    1.3650    0.0000 H   0  0  0  0  0  0  0  0  0  0  0  0
   13.7429    3.8460    0.0000 H   0  0  0  0  0  0  0  0  0  0  0  0
   13.0526    4.2446    0.0000 H   0  0  0  0  0  0  0  0  0  0  0  0
   15.2429    2.9800    0.0000 H   0  0  0  0  0  0  0  0  0  0  0  0
   14.5526    3.3785    0.0000 H   0  0  0  0  0  0  0  0  0  0  0  0
   13.0776    2.5559    0.0000 H   0  0  0  0  0  0  0  0  0  0  0  0
   13.7679    2.1574    0.0000 H   0  0  0  0  0  0  0  0  0  0  0  0
    5.9316    2.5250    0.0000 H   0  0  0  0  0  0  0  0  0  0  0  0
    6.7287    2.5250    0.0000 H   0  0  0  0  0  0  0  0  0  0  0  0
   16.0063   -4.0467    0.0000 H   0  0  0  0  0  0  0  0  0  0  0  0
   16.4048   -3.3564    0.0000 H   0  0  0  0  0  0  0  0  0  0  0  0
   13.2803    6.2320    0.0000 H   0  0  0  0  0  0  0  0  0  0  0  0
   16.8503    4.1709    0.0000 H   0  0  0  0  0  0  0  0  0  0  0  0
   10.8503    7.6350    0.0000 H   0  0  0  0  0  0  0  0  0  0  0  0
   19.2803    2.7680    0.0000 H   0  0  0  0  0  0  0  0  0  0  0  0
    5.1350    1.6900    0.0000 H   0  0  0  0  0  0  0  0  0  0  0  0
   13.5252   -5.1541    0.0000 H   0  0  0  0  0  0  0  0  0  0  0  0
    3.7320    4.1200    0.0000 H   0  0  0  0  0  0  0  0  0  0  0  0
   16.3312   -5.1541    0.0000 H   0  0  0  0  0  0  0  0  0  0  0  0
    3.7320    0.8800    0.0000 H   0  0  0  0  0  0  0  0  0  0  0  0
   13.5252   -6.7741    0.0000 H   0  0  0  0  0  0  0  0  0  0  0  0
    2.3291    3.3100    0.0000 H   0  0  0  0  0  0  0  0  0  0  0  0
   16.3312   -6.7741    0.0000 H   0  0  0  0  0  0  0  0  0  0  0  0
  1 44  1  0  0  0  0
  2 45  1  0  0  0  0
  3 58  1  0  0  0  0
  4 59  1  0  0  0  0
  5 13  1  0  0  0  0
  5 33  1  0  0  0  0
  6 14  1  0  0  0  0
  6 34  1  0  0  0  0
  7 33  2  0  0  0  0
  8 34  2  0  0  0  0
  9 46  2  0  0  0  0
 10 47  2  0  0  0  0
 11 19  1  0  0  0  0
 11 20  1  0  0  0  0
 11 25  1  0  0  0  0
 12 21  1  0  0  0  0
 12 22  1  0  0  0  0
 12 26  1  0  0  0  0
 13 15  1  0  0  0  0
 13 16  1  0  0  0  0
 13 23  1  0  0  0  0
 14 17  1  0  0  0  0
 14 18  1  0  0  0  0
 14 24  1  0  0  0  0
 15 19  1  0  0  0  0
 15 60  1  0  0  0  0
 15 61  1  0  0  0  0
 16 20  1  0  0  0  0
 16 62  1  0  0  0  0
 16 63  1  0  0  0  0
 17 21  1  0  0  0  0
 17 64  1  0  0  0  0
 17 65  1  0  0  0  0
 18 22  1  0  0  0  0
 18 66  1  0  0  0  0
 18 67  1  0  0  0  0
 19 68  1  0  0  0  0
 19 69  1  0  0  0  0
 20 70  1  0  0  0  0
 20 71  1  0  0  0  0
 21 72  1  0  0  0  0
 21 73  1  0  0  0  0
 22 74  1  0  0  0  0
 22 75  1  0  0  0  0
 23 29  2  0  0  0  0
 23 31  1  0  0  0  0
 24 30  2  0  0  0  0
 24 32  1  0  0  0  0
 25 27  1  0  0  0  0
 25 76  1  0  0  0  0
 25 77  1  0  0  0  0
 26 28  1  0  0  0  0
 26 78  1  0  0  0  0
 26 79  1  0  0  0  0
 27 38  1  0  0  0  0
 27 80  1  0  0  0  0
 27 81  1  0  0  0  0
 28 39  1  0  0  0  0
 28 82  1  0  0  0  0
 28 83  1  0  0  0  0
 29 40  1  0  0  0  0
 29 84  1  0  0  0  0
 30 41  1  0  0  0  0
 30 85  1  0  0  0  0
 31 42  2  0  0  0  0
 31 86  1  0  0  0  0
 32 43  2  0  0  0  0
 32 87  1  0  0  0  0
 33 35  1  0  0  0  0
 34 36  1  0  0  0  0
 35 37  1  0  0  0  0
 35 88  1  0  0  0  0
 35 89  1  0  0  0  0
 36 37  1  0  0  0  0
 36 90  1  0  0  0  0
 36 91  1  0  0  0  0
 37 92  1  0  0  0  0
 37 93  1  0  0  0  0
 38 46  1  0  0  0  0
 38 94  1  0  0  0  0
 38 95  1  0  0  0  0
 39 47  1  0  0  0  0
 39 96  1  0  0  0  0
 39 97  1  0  0  0  0
 40 44  2  0  0  0  0
 40 98  1  0  0  0  0
 41 45  2  0  0  0  0
 41 99  1  0  0  0  0
 42 44  1  0  0  0  0
 42100  1  0  0  0  0
 43 45  1  0  0  0  0
 43101  1  0  0  0  0
 46 48  1  0  0  0  0
 47 49  1  0  0  0  0
 48 50  2  0  0  0  0
 48 52  1  0  0  0  0
 49 51  2  0  0  0  0
 49 53  1  0  0  0  0
 50 54  1  0  0  0  0
 50102  1  0  0  0  0
 51 55  1  0  0  0  0
 51103  1  0  0  0  0
 52 56  2  0  0  0  0
 52104  1  0  0  0  0
 53 57  2  0  0  0  0
 53105  1  0  0  0  0
 54 58  2  0  0  0  0
 54106  1  0  0  0  0
 55 59  2  0  0  0  0
 55107  1  0  0  0  0
 56 58  1  0  0  0  0
 56108  1  0  0  0  0
 57 59  1  0  0  0  0
 57109  1  0  0  0  0
M  END
> <PUBCHEM_COMPOUND_CID>
118709160

> <PUBCHEM_COMPOUND_CANONICALIZED>
1

> <PUBCHEM_CACTVS_COMPLEXITY>
1240

> <PUBCHEM_CACTVS_HBOND_ACCEPTOR>
10

> <PUBCHEM_CACTVS_HBOND_DONOR>
0

> <PUBCHEM_CACTVS_ROTATABLE_BOND>
20

> <PUBCHEM_CACTVS_SUBSKEYS>
AAADcfB/OYAGAAAAAAAAAAAAAAAAAAAAAAA8eMGCAAAAAAABVAAAHwIAAAAADEbBmCwwCIMABACIAqDSCAACAAAkBQAIiAEICsgIJjKBtxiGMQAmwAGIqYec7uiOhAAAAAAAAAAIAAAAAAAAAAAAAAAAAA==

> <PUBCHEM_IUPAC_OPENEYE_NAME>
bis[4-(4-chlorophenyl)-1-[4-(4-fluorophenyl)-4-oxo-butyl]-4-piperidyl] pentanedioate

> <PUBCHEM_IUPAC_CAS_NAME>
pentanedioic acid bis[4-(4-chlorophenyl)-1-[4-(4-fluorophenyl)-4-oxobutyl]-4-piperidinyl] ester

> <PUBCHEM_IUPAC_NAME_MARKUP>
bis[4-(4-chlorophenyl)-1-[4-(4-fluorophenyl)-4-oxobutyl]piperidin-4-yl] pentanedioate

> <PUBCHEM_IUPAC_NAME>
bis[4-(4-chlorophenyl)-1-[4-(4-fluorophenyl)-4-oxobutyl]piperidin-4-yl] pentanedioate

> <PUBCHEM_IUPAC_SYSTEMATIC_NAME>
bis[4-(4-chlorophenyl)-1-[4-(4-fluorophenyl)-4-oxidanylidene-butyl]piperidin-4-yl] pentanedioate

> <PUBCHEM_IUPAC_TRADITIONAL_NAME>
glutaric acid bis[4-(4-chlorophenyl)-1-[4-(4-fluorophenyl)-4-keto-butyl]-4-piperidyl] ester

> <PUBCHEM_IUPAC_INCHI>
InChI=1S/C47H50Cl2F2N2O6/c48-38-16-12-36(13-17-38)46(24-30-52(31-25-46)28-2-4-42(54)34-8-20-40(50)21-9-34)58-44(56)6-1-7-45(57)59-47(37-14-18-39(49)19-15-37)26-32-53(33-27-47)29-3-5-43(55)35-10-22-41(51)23-11-35/h8-23H,1-7,24-33H2

> <PUBCHEM_IUPAC_INCHIKEY>
ZNZYEIAZHCDSRA-UHFFFAOYSA-N

> <PUBCHEM_XLOGP3_AA>
8.8

> <PUBCHEM_EXACT_MASS>
846.3013990

> <PUBCHEM_MOLECULAR_FORMULA>
C47H50Cl2F2N2O6

> <PUBCHEM_MOLECULAR_WEIGHT>
847.8

> <PUBCHEM_OPENEYE_CAN_SMILES>
C1CN(CCC1(C2=CC=C(C=C2)Cl)OC(=O)CCCC(=O)OC3(CCN(CC3)CCCC(=O)C4=CC=C(C=C4)F)C5=CC=C(C=C5)Cl)CCCC(=O)C6=CC=C(C=C6)F

> <PUBCHEM_OPENEYE_ISO_SMILES>
C1CN(CCC1(C2=CC=C(C=C2)Cl)OC(=O)CCCC(=O)OC3(CCN(CC3)CCCC(=O)C4=CC=C(C=C4)F)C5=CC=C(C=C5)Cl)CCCC(=O)C6=CC=C(C=C6)F

> <PUBCHEM_CACTVS_TPSA>
93.2

> <PUBCHEM_MONOISOTOPIC_WEIGHT>
846.3013990

> <PUBCHEM_TOTAL_CHARGE>
0

> <PUBCHEM_HEAVY_ATOM_COUNT>
59

> <PUBCHEM_ATOM_DEF_STEREO_COUNT>
0

> <PUBCHEM_ATOM_UDEF_STEREO_COUNT>
0

> <PUBCHEM_BOND_DEF_STEREO_COUNT>
0

> <PUBCHEM_BOND_UDEF_STEREO_COUNT>
0

> <PUBCHEM_ISOTOPIC_ATOM_COUNT>
0

> <PUBCHEM_COMPONENT_COUNT>
1

> <PUBCHEM_CACTVS_TAUTO_COUNT>
-1

> <PUBCHEM_COORDINATE_TYPE>
1
5
255

> <PUBCHEM_BONDANNOTATIONS>
23  29  8
23  31  8
24  30  8
24  32  8
29  40  8
30  41  8
31  42  8
32  43  8
40  44  8
41  45  8
42  44  8
43  45  8
48  50  8
48  52  8
49  51  8
49  53  8
50  54  8
51  55  8
52  56  8
53  57  8
54  58  8
55  59  8
56  58  8
57  59  8

$$$$
