25132870
  -OEChem-09292322232D

 49 53  0     1  0  0  0  0  0999 V2000
    8.4515    2.2768    0.0000 Cl  0  0  0  0  0  0  0  0  0  0  0  0
    8.7332    4.2569    0.0000 Cl  0  0  0  0  0  0  0  0  0  0  0  0
    5.8089    2.1479    0.0000 O   0  0  0  0  0  0  0  0  0  0  0  0
    5.9674   -1.1454    0.0000 N   0  0  0  0  0  0  0  0  0  0  0  0
    4.6783   -3.9116    0.0000 N   0  0  0  0  0  0  0  0  0  0  0  0
    7.7368   -0.1997    0.0000 C   0  0  2  0  0  0  0  0  0  0  0  0
    7.1907   -1.0374    0.0000 C   0  0  1  0  0  0  0  0  0  0  0  0
    6.5958    1.5308    0.0000 C   0  0  0  0  0  0  0  0  0  0  0  0
    7.5657    1.2872    0.0000 C   0  0  0  0  0  0  0  0  0  0  0  0
    6.0644    0.6837    0.0000 C   0  0  0  0  0  0  0  0  0  0  0  0
    9.0498   -0.9011    0.0000 C   0  0  0  0  0  0  0  0  0  0  0  0
    8.5037   -1.7388    0.0000 C   0  0  0  0  0  0  0  0  0  0  0  0
    4.9889   -1.3516    0.0000 C   0  0  0  0  0  0  0  0  0  0  0  0
    6.7367    2.5209    0.0000 C   0  0  0  0  0  0  0  0  0  0  0  0
    4.6783   -2.3021    0.0000 C   0  0  0  0  0  0  0  0  0  0  0  0
    7.6645    2.8939    0.0000 C   0  0  0  0  0  0  0  0  0  0  0  0
    5.9498    3.1379    0.0000 C   0  0  0  0  0  0  0  0  0  0  0  0
    3.7320   -2.6069    0.0000 C   0  0  0  0  0  0  0  0  0  0  0  0
    5.2619   -3.1069    0.0000 C   0  0  0  0  0  0  0  0  0  0  0  0
    3.7320   -3.6069    0.0000 C   0  0  0  0  0  0  0  0  0  0  0  0
    7.8054    3.8839    0.0000 C   0  0  0  0  0  0  0  0  0  0  0  0
    6.0906    4.1279    0.0000 C   0  0  0  0  0  0  0  0  0  0  0  0
    7.0185    4.5009    0.0000 C   0  0  0  0  0  0  0  0  0  0  0  0
    2.8660   -2.1069    0.0000 C   0  0  0  0  0  0  0  0  0  0  0  0
    2.8660   -4.1069    0.0000 C   0  0  0  0  0  0  0  0  0  0  0  0
    2.0000   -2.6069    0.0000 C   0  0  0  0  0  0  0  0  0  0  0  0
    2.0000   -3.6069    0.0000 C   0  0  0  0  0  0  0  0  0  0  0  0
    8.2010    0.5124    0.0000 H   0  0  0  0  0  0  0  0  0  0  0  0
    6.7266   -1.7495    0.0000 H   0  0  0  0  0  0  0  0  0  0  0  0
    8.1857    1.2838    0.0000 H   0  0  0  0  0  0  0  0  0  0  0  0
    7.6435    1.9023    0.0000 H   0  0  0  0  0  0  0  0  0  0  0  0
    5.5918    1.0850    0.0000 H   0  0  0  0  0  0  0  0  0  0  0  0
    5.5996    0.2734    0.0000 H   0  0  0  0  0  0  0  0  0  0  0  0
    9.5788   -1.2245    0.0000 H   0  0  0  0  0  0  0  0  0  0  0  0
    9.3577   -0.3630    0.0000 H   0  0  0  0  0  0  0  0  0  0  0  0
    8.1958   -2.2770    0.0000 H   0  0  0  0  0  0  0  0  0  0  0  0
    9.0327   -2.0622    0.0000 H   0  0  0  0  0  0  0  0  0  0  0  0
    4.9684   -0.7320    0.0000 H   0  0  0  0  0  0  0  0  0  0  0  0
    4.3751   -1.2643    0.0000 H   0  0  0  0  0  0  0  0  0  0  0  0
    5.2336    1.9166    0.0000 H   0  0  0  0  0  0  0  0  0  0  0  0
    5.3745    2.9066    0.0000 H   0  0  0  0  0  0  0  0  0  0  0  0
    5.8819   -3.1069    0.0000 H   0  0  0  0  0  0  0  0  0  0  0  0
    5.6027    4.5105    0.0000 H   0  0  0  0  0  0  0  0  0  0  0  0
    4.8709   -4.5009    0.0000 H   0  0  0  0  0  0  0  0  0  0  0  0
    7.1058    5.1147    0.0000 H   0  0  0  0  0  0  0  0  0  0  0  0
    2.8660   -1.4869    0.0000 H   0  0  0  0  0  0  0  0  0  0  0  0
    2.8660   -4.7269    0.0000 H   0  0  0  0  0  0  0  0  0  0  0  0
    1.4631   -2.2969    0.0000 H   0  0  0  0  0  0  0  0  0  0  0  0
    1.4631   -3.9169    0.0000 H   0  0  0  0  0  0  0  0  0  0  0  0
  1 16  1  0  0  0  0
  2 21  1  0  0  0  0
  3  8  1  0  0  0  0
  3 40  1  0  0  0  0
  4  6  1  0  0  0  0
  4  7  1  0  0  0  0
  4 13  1  0  0  0  0
  5 19  1  0  0  0  0
  5 20  1  0  0  0  0
  5 44  1  0  0  0  0
  6  9  1  0  0  0  0
  6 11  1  0  0  0  0
  6 28  1  1  0  0  0
  7 10  1  0  0  0  0
  7 12  1  0  0  0  0
  7 29  1  6  0  0  0
  8  9  1  0  0  0  0
  8 10  1  0  0  0  0
  8 14  1  0  0  0  0
  9 30  1  0  0  0  0
  9 31  1  0  0  0  0
 10 32  1  0  0  0  0
 10 33  1  0  0  0  0
 11 12  1  0  0  0  0
 11 34  1  0  0  0  0
 11 35  1  0  0  0  0
 12 36  1  0  0  0  0
 12 37  1  0  0  0  0
 13 15  1  0  0  0  0
 13 38  1  0  0  0  0
 13 39  1  0  0  0  0
 14 16  2  0  0  0  0
 14 17  1  0  0  0  0
 15 18  1  0  0  0  0
 15 19  2  0  0  0  0
 16 21  1  0  0  0  0
 17 22  2  0  0  0  0
 17 41  1  0  0  0  0
 18 20  1  0  0  0  0
 18 24  2  0  0  0  0
 19 42  1  0  0  0  0
 20 25  2  0  0  0  0
 21 23  2  0  0  0  0
 22 23  1  0  0  0  0
 22 43  1  0  0  0  0
 23 45  1  0  0  0  0
 24 26  1  0  0  0  0
 24 46  1  0  0  0  0
 25 27  1  0  0  0  0
 25 47  1  0  0  0  0
 26 27  2  0  0  0  0
 26 48  1  0  0  0  0
 27 49  1  0  0  0  0
M  END
> <PUBCHEM_COMPOUND_CID>
25132870

> <PUBCHEM_COMPOUND_CANONICALIZED>
1

> <PUBCHEM_CACTVS_COMPLEXITY>
532

> <PUBCHEM_CACTVS_HBOND_ACCEPTOR>
2

> <PUBCHEM_CACTVS_HBOND_DONOR>
2

> <PUBCHEM_CACTVS_ROTATABLE_BOND>
3

> <PUBCHEM_CACTVS_SUBSKEYS>
AAADceB7IAAGAAAAAAAAAAAAAAAAAWLAAAA8YIAABgAAAFgB9AAAHgIQCAAADG7BniQ8wPPJkgCgAzRnRACCgCAxByAI2+A4bpgIJuLB05GEcAhm0AHI2AeQwOAOgAAAIAADAAQAAABAAAYACAAAAAAAAA==

> <PUBCHEM_IUPAC_OPENEYE_NAME>
(1S,5R)-3-(2,3-dichlorophenyl)-8-(1H-indol-3-ylmethyl)-8-azabicyclo[3.2.1]octan-3-ol

> <PUBCHEM_IUPAC_CAS_NAME>
(1S,5R)-3-(2,3-dichlorophenyl)-8-(1H-indol-3-ylmethyl)-8-azabicyclo[3.2.1]octan-3-ol

> <PUBCHEM_IUPAC_NAME_MARKUP>
(1<I>S</I>,5<I>R</I>)-3-(2,3-dichlorophenyl)-8-(1<I>H</I>-indol-3-ylmethyl)-8-azabicyclo[3.2.1]octan-3-ol

> <PUBCHEM_IUPAC_NAME>
(1S,5R)-3-(2,3-dichlorophenyl)-8-(1H-indol-3-ylmethyl)-8-azabicyclo[3.2.1]octan-3-ol

> <PUBCHEM_IUPAC_SYSTEMATIC_NAME>
(1S,5R)-3-[2,3-bis(chloranyl)phenyl]-8-(1H-indol-3-ylmethyl)-8-azabicyclo[3.2.1]octan-3-ol

> <PUBCHEM_IUPAC_TRADITIONAL_NAME>
(1S,5R)-3-(2,3-dichlorophenyl)-8-(1H-indol-3-ylmethyl)-8-azabicyclo[3.2.1]octan-3-ol

> <PUBCHEM_IUPAC_INCHI>
InChI=1S/C22H22Cl2N2O/c23-19-6-3-5-18(21(19)24)22(27)10-15-8-9-16(11-22)26(15)13-14-12-25-20-7-2-1-4-17(14)20/h1-7,12,15-16,25,27H,8-11,13H2/t15-,16+,22?

> <PUBCHEM_IUPAC_INCHIKEY>
UTSZTPIAGJECRH-XVQYUUQNSA-N

> <PUBCHEM_XLOGP3_AA>
4.9

> <PUBCHEM_EXACT_MASS>
400.1109187

> <PUBCHEM_MOLECULAR_FORMULA>
C22H22Cl2N2O

> <PUBCHEM_MOLECULAR_WEIGHT>
401.3

> <PUBCHEM_OPENEYE_CAN_SMILES>
C1CC2CC(CC1N2CC3=CNC4=CC=CC=C43)(C5=C(C(=CC=C5)Cl)Cl)O

> <PUBCHEM_OPENEYE_ISO_SMILES>
C1C[C@H]2CC(C[C@@H]1N2CC3=CNC4=CC=CC=C43)(C5=C(C(=CC=C5)Cl)Cl)O

> <PUBCHEM_CACTVS_TPSA>
39.3

> <PUBCHEM_MONOISOTOPIC_WEIGHT>
400.1109187

> <PUBCHEM_TOTAL_CHARGE>
0

> <PUBCHEM_HEAVY_ATOM_COUNT>
27

> <PUBCHEM_ATOM_DEF_STEREO_COUNT>
2

> <PUBCHEM_ATOM_UDEF_STEREO_COUNT>
0

> <PUBCHEM_BOND_DEF_STEREO_COUNT>
0

> <PUBCHEM_BOND_UDEF_STEREO_COUNT>
0

> <PUBCHEM_ISOTOPIC_ATOM_COUNT>
0

> <PUBCHEM_COMPONENT_COUNT>
1

> <PUBCHEM_CACTVS_TAUTO_COUNT>
-1

> <PUBCHEM_COORDINATE_TYPE>
1
5
255

> <PUBCHEM_BONDANNOTATIONS>
14  16  8
14  17  8
15  18  8
15  19  8
16  21  8
17  22  8
18  20  8
18  24  8
20  25  8
21  23  8
22  23  8
24  26  8
25  27  8
26  27  8
5  19  8
5  20  8
6  28  5
7  29  6

$$$$
