11558055
  -OEChem-09292322232D

 41 43  0     1  0  0  0  0  0999 V2000
    2.0024   -2.2125    0.0000 O   0  0  0  0  0  0  0  0  0  0  0  0
    4.6544    2.3326    0.0000 N   0  0  3  0  0  0  0  0  0  0  0  0
    4.6544    1.3325    0.0000 C   0  0  0  0  0  0  0  0  0  0  0  0
    5.5204    2.8326    0.0000 C   0  0  0  0  0  0  0  0  0  0  0  0
    3.7884    0.8326    0.0000 C   0  0  0  0  0  0  0  0  0  0  0  0
    6.3864    2.3326    0.0000 C   0  0  0  0  0  0  0  0  0  0  0  0
    3.7884   -0.1674    0.0000 C   0  0  0  0  0  0  0  0  0  0  0  0
    5.5204   -0.1674    0.0000 C   0  0  0  0  0  0  0  0  0  0  0  0
    6.3864    1.3325    0.0000 C   0  0  0  0  0  0  0  0  0  0  0  0
    4.6544   -0.6674    0.0000 C   0  0  0  0  0  0  0  0  0  0  0  0
    5.5204    0.8326    0.0000 C   0  0  0  0  0  0  0  0  0  0  0  0
    3.7884    2.8326    0.0000 C   0  0  0  0  0  0  0  0  0  0  0  0
    2.8784   -0.6743    0.0000 C   0  0  0  0  0  0  0  0  0  0  0  0
    4.6704   -1.7090    0.0000 C   0  0  0  0  0  0  0  0  0  0  0  0
    7.7978    0.7554    0.0000 C   0  0  0  0  0  0  0  0  0  0  0  0
    5.3146   -0.6782    0.0000 C   0  0  0  0  0  0  0  0  0  0  0  0
    2.8703   -1.7159    0.0000 C   0  0  0  0  0  0  0  0  0  0  0  0
    3.7724   -2.2367    0.0000 C   0  0  0  0  0  0  0  0  0  0  0  0
    7.9009   -0.7658    0.0000 C   0  0  0  0  0  0  0  0  0  0  0  0
    6.5804   -1.5282    0.0000 C   0  0  0  0  0  0  0  0  0  0  0  0
    4.8665    0.7499    0.0000 H   0  0  0  0  0  0  0  0  0  0  0  0
    5.2650    1.4402    0.0000 H   0  0  0  0  0  0  0  0  0  0  0  0
    5.9190    3.3075    0.0000 H   0  0  0  0  0  0  0  0  0  0  0  0
    5.1219    3.3075    0.0000 H   0  0  0  0  0  0  0  0  0  0  0  0
    3.5763    1.4152    0.0000 H   0  0  0  0  0  0  0  0  0  0  0  0
    3.1778    0.7249    0.0000 H   0  0  0  0  0  0  0  0  0  0  0  0
    6.9970    2.2249    0.0000 H   0  0  0  0  0  0  0  0  0  0  0  0
    6.5985    2.9152    0.0000 H   0  0  0  0  0  0  0  0  0  0  0  0
    5.7325   -0.7501    0.0000 H   0  0  0  0  0  0  0  0  0  0  0  0
    6.1310   -0.0598    0.0000 H   0  0  0  0  0  0  0  0  0  0  0  0
    4.0984    3.3695    0.0000 H   0  0  0  0  0  0  0  0  0  0  0  0
    3.2514    3.1426    0.0000 H   0  0  0  0  0  0  0  0  0  0  0  0
    3.4784    2.2956    0.0000 H   0  0  0  0  0  0  0  0  0  0  0  0
    2.3450   -0.3581    0.0000 H   0  0  0  0  0  0  0  0  0  0  0  0
    5.2109   -2.0127    0.0000 H   0  0  0  0  0  0  0  0  0  0  0  0
    8.3005    1.1183    0.0000 H   0  0  0  0  0  0  0  0  0  0  0  0
    4.7490   -0.9322    0.0000 H   0  0  0  0  0  0  0  0  0  0  0  0
    3.7748   -2.8567    0.0000 H   0  0  0  0  0  0  0  0  0  0  0  0
    8.4480   -1.0575    0.0000 H   0  0  0  0  0  0  0  0  0  0  0  0
    6.5594   -2.1479    0.0000 H   0  0  0  0  0  0  0  0  0  0  0  0
    2.0000   -2.8326    0.0000 H   0  0  0  0  0  0  0  0  0  0  0  0
  1 17  1  0  0  0  0
  1 41  1  0  0  0  0
  2  3  1  0  0  0  0
  2  4  1  0  0  0  0
  2 12  1  0  0  0  0
  3  5  1  0  0  0  0
  3 21  1  0  0  0  0
  3 22  1  0  0  0  0
  4  6  1  0  0  0  0
  4 23  1  0  0  0  0
  4 24  1  0  0  0  0
  5  7  1  0  0  0  0
  5 25  1  0  0  0  0
  5 26  1  0  0  0  0
  6  9  1  0  0  0  0
  6 27  1  0  0  0  0
  6 28  1  0  0  0  0
  7 10  2  0  0  0  0
  7 13  1  0  0  0  0
  8 10  1  0  0  0  0
  8 11  1  0  0  0  0
  8 29  1  0  0  0  0
  8 30  1  0  0  0  0
  9 11  1  0  0  0  0
  9 15  2  0  0  0  0
 10 14  1  0  0  0  0
 11 16  2  0  0  0  0
 12 31  1  0  0  0  0
 12 32  1  0  0  0  0
 12 33  1  0  0  0  0
 13 17  2  0  0  0  0
 13 34  1  0  0  0  0
 14 18  2  0  0  0  0
 14 35  1  0  0  0  0
 15 19  1  0  0  0  0
 15 36  1  0  0  0  0
 16 20  1  0  0  0  0
 16 37  1  0  0  0  0
 17 18  1  0  0  0  0
 18 38  1  0  0  0  0
 19 20  2  0  0  0  0
 19 39  1  0  0  0  0
 20 40  1  0  0  0  0
M  END
> <PUBCHEM_COMPOUND_CID>
11558055

> <PUBCHEM_COMPOUND_CANONICALIZED>
1

> <PUBCHEM_CACTVS_COMPLEXITY>
306

> <PUBCHEM_CACTVS_HBOND_ACCEPTOR>
2

> <PUBCHEM_CACTVS_HBOND_DONOR>
1

> <PUBCHEM_CACTVS_ROTATABLE_BOND>
0

> <PUBCHEM_CACTVS_SUBSKEYS>
AAADceB6IAAAAAAAAAAAAAAAAAAAAAAAAAAwYAAAAAAAAACxQAAAHgAACAAADATBmAQyBoMAAgCAAiBCAAACAAAgIAAIiAAOCIgIJiKCkROEcAAkwBGImAeQ0PIOoAABAAAQAABAAAIAACAAAAAAAAAAAA==

> <PUBCHEM_IUPAC_OPENEYE_NAME>
11-methyl-11-azatricyclo[12.4.0.03,8]octadeca-1(18),3(8),4,6,14,16-hexaen-6-ol

> <PUBCHEM_IUPAC_CAS_NAME>
11-methyl-11-azatricyclo[12.4.0.03,8]octadeca-1(18),3(8),4,6,14,16-hexaen-6-ol

> <PUBCHEM_IUPAC_NAME_MARKUP>
11-methyl-11-azatricyclo[12.4.0.0<SUP>3,8</SUP>]octadeca-1(18),3(8),4,6,14,16-hexaen-6-ol

> <PUBCHEM_IUPAC_NAME>
11-methyl-11-azatricyclo[12.4.0.03,8]octadeca-1(18),3(8),4,6,14,16-hexaen-6-ol

> <PUBCHEM_IUPAC_SYSTEMATIC_NAME>
11-methyl-11-azatricyclo[12.4.0.03,8]octadeca-1(18),3(8),4,6,14,16-hexaen-6-ol

> <PUBCHEM_IUPAC_TRADITIONAL_NAME>
11-methyl-11-azatricyclo[12.4.0.03,8]octadeca-1(18),3(8),4,6,14,16-hexaen-6-ol

> <PUBCHEM_IUPAC_INCHI>
InChI=1S/C18H21NO/c1-19-10-8-14-4-2-3-5-15(14)12-16-6-7-18(20)13-17(16)9-11-19/h2-7,13,20H,8-12H2,1H3

> <PUBCHEM_IUPAC_INCHIKEY>
ODBZJKXOIQSFOA-UHFFFAOYSA-N

> <PUBCHEM_XLOGP3_AA>
3.8

> <PUBCHEM_EXACT_MASS>
267.162314293

> <PUBCHEM_MOLECULAR_FORMULA>
C18H21NO

> <PUBCHEM_MOLECULAR_WEIGHT>
267.4

> <PUBCHEM_OPENEYE_CAN_SMILES>
CN1CCC2=CC=CC=C2CC3=C(CC1)C=C(C=C3)O

> <PUBCHEM_OPENEYE_ISO_SMILES>
CN1CCC2=CC=CC=C2CC3=C(CC1)C=C(C=C3)O

> <PUBCHEM_CACTVS_TPSA>
23.5

> <PUBCHEM_MONOISOTOPIC_WEIGHT>
267.162314293

> <PUBCHEM_TOTAL_CHARGE>
0

> <PUBCHEM_HEAVY_ATOM_COUNT>
20

> <PUBCHEM_ATOM_DEF_STEREO_COUNT>
0

> <PUBCHEM_ATOM_UDEF_STEREO_COUNT>
0

> <PUBCHEM_BOND_DEF_STEREO_COUNT>
0

> <PUBCHEM_BOND_UDEF_STEREO_COUNT>
0

> <PUBCHEM_ISOTOPIC_ATOM_COUNT>
0

> <PUBCHEM_COMPONENT_COUNT>
1

> <PUBCHEM_CACTVS_TAUTO_COUNT>
-1

> <PUBCHEM_COORDINATE_TYPE>
1
5
255

> <PUBCHEM_BONDANNOTATIONS>
10  14  8
11  16  8
13  17  8
14  18  8
15  19  8
16  20  8
17  18  8
19  20  8
7  10  8
7  13  8
9  11  8
9  15  8

$$$$
