10252272
  -OEChem-09292322242D

 49 52  0     1  0  0  0  0  0999 V2000
   15.1510   -0.1044    0.0000 Cl  0  0  0  0  0  0  0  0  0  0  0  0
    8.7227    0.2891    0.0000 S   0  0  0  0  0  0  0  0  0  0  0  0
   10.5026    0.2027    0.0000 S   0  0  0  0  0  0  0  0  0  0  0  0
    9.2194    1.1571    0.0000 O   0  0  0  0  0  0  0  0  0  0  0  0
    8.2260   -0.5788    0.0000 O   0  0  0  0  0  0  0  0  0  0  0  0
    3.0000   -0.2384    0.0000 N   0  0  3  0  0  0  0  0  0  0  0  0
    7.8547    0.7858    0.0000 N   0  0  0  0  0  0  0  0  0  0  0  0
    4.4088    0.8851    0.0000 C   0  0  0  0  0  0  0  0  0  0  0  0
    4.4088   -1.3618    0.0000 C   0  0  0  0  0  0  0  0  0  0  0  0
    3.4339    0.6626    0.0000 C   0  0  0  0  0  0  0  0  0  0  0  0
    3.4339   -1.1393    0.0000 C   0  0  0  0  0  0  0  0  0  0  0  0
    5.1906    0.2616    0.0000 C   0  0  0  0  0  0  0  0  0  0  0  0
    5.1906   -0.7384    0.0000 C   0  0  0  0  0  0  0  0  0  0  0  0
    6.0846    0.7963    0.0000 C   0  0  0  0  0  0  0  0  0  0  0  0
    6.0846   -1.2730    0.0000 C   0  0  0  0  0  0  0  0  0  0  0  0
    6.9906    0.2825    0.0000 C   0  0  0  0  0  0  0  0  0  0  0  0
    2.0000   -0.2384    0.0000 C   0  0  0  0  0  0  0  0  0  0  0  0
    6.9906   -0.7592    0.0000 C   0  0  0  0  0  0  0  0  0  0  0  0
    9.5906   -0.2075    0.0000 C   0  0  0  0  0  0  0  0  0  0  0  0
    9.6990   -1.2016    0.0000 C   0  0  0  0  0  0  0  0  0  0  0  0
   11.1746   -0.5378    0.0000 C   0  0  0  0  0  0  0  0  0  0  0  0
   10.6779   -1.4058    0.0000 C   0  0  0  0  0  0  0  0  0  0  0  0
   12.1687   -0.4295    0.0000 C   0  0  0  0  0  0  0  0  0  0  0  0
   12.7596   -1.2362    0.0000 C   0  0  0  0  0  0  0  0  0  0  0  0
   12.5719    0.4856    0.0000 C   0  0  0  0  0  0  0  0  0  0  0  0
   13.7537   -1.1279    0.0000 C   0  0  0  0  0  0  0  0  0  0  0  0
   13.5660    0.5940    0.0000 C   0  0  0  0  0  0  0  0  0  0  0  0
   14.1569   -0.2128    0.0000 C   0  0  0  0  0  0  0  0  0  0  0  0
    4.8936    1.2717    0.0000 H   0  0  0  0  0  0  0  0  0  0  0  0
    4.1398    1.4437    0.0000 H   0  0  0  0  0  0  0  0  0  0  0  0
    4.1398   -1.9204    0.0000 H   0  0  0  0  0  0  0  0  0  0  0  0
    4.8936   -1.7484    0.0000 H   0  0  0  0  0  0  0  0  0  0  0  0
    3.4339    1.2826    0.0000 H   0  0  0  0  0  0  0  0  0  0  0  0
    2.8294    0.8006    0.0000 H   0  0  0  0  0  0  0  0  0  0  0  0
    2.8294   -1.2773    0.0000 H   0  0  0  0  0  0  0  0  0  0  0  0
    3.4339   -1.7593    0.0000 H   0  0  0  0  0  0  0  0  0  0  0  0
    6.0774    1.4163    0.0000 H   0  0  0  0  0  0  0  0  0  0  0  0
    6.0774   -1.8930    0.0000 H   0  0  0  0  0  0  0  0  0  0  0  0
    2.0000    0.3816    0.0000 H   0  0  0  0  0  0  0  0  0  0  0  0
    1.3800   -0.2384    0.0000 H   0  0  0  0  0  0  0  0  0  0  0  0
    2.0000   -0.8584    0.0000 H   0  0  0  0  0  0  0  0  0  0  0  0
    7.5264   -1.0712    0.0000 H   0  0  0  0  0  0  0  0  0  0  0  0
    7.8524    1.4058    0.0000 H   0  0  0  0  0  0  0  0  0  0  0  0
    9.2398   -1.6183    0.0000 H   0  0  0  0  0  0  0  0  0  0  0  0
   10.9323   -1.9712    0.0000 H   0  0  0  0  0  0  0  0  0  0  0  0
   12.5096   -1.8036    0.0000 H   0  0  0  0  0  0  0  0  0  0  0  0
   12.2056    0.9858    0.0000 H   0  0  0  0  0  0  0  0  0  0  0  0
   14.1201   -1.6280    0.0000 H   0  0  0  0  0  0  0  0  0  0  0  0
   13.8160    1.1614    0.0000 H   0  0  0  0  0  0  0  0  0  0  0  0
  1 28  1  0  0  0  0
  2  4  2  0  0  0  0
  2  5  2  0  0  0  0
  2  7  1  0  0  0  0
  2 19  1  0  0  0  0
  3 19  1  0  0  0  0
  3 21  1  0  0  0  0
  6 10  1  0  0  0  0
  6 11  1  0  0  0  0
  6 17  1  0  0  0  0
  7 16  1  0  0  0  0
  7 43  1  0  0  0  0
  8 10  1  0  0  0  0
  8 12  1  0  0  0  0
  8 29  1  0  0  0  0
  8 30  1  0  0  0  0
  9 11  1  0  0  0  0
  9 13  1  0  0  0  0
  9 31  1  0  0  0  0
  9 32  1  0  0  0  0
 10 33  1  0  0  0  0
 10 34  1  0  0  0  0
 11 35  1  0  0  0  0
 11 36  1  0  0  0  0
 12 13  2  0  0  0  0
 12 14  1  0  0  0  0
 13 15  1  0  0  0  0
 14 16  2  0  0  0  0
 14 37  1  0  0  0  0
 15 18  2  0  0  0  0
 15 38  1  0  0  0  0
 16 18  1  0  0  0  0
 17 39  1  0  0  0  0
 17 40  1  0  0  0  0
 17 41  1  0  0  0  0
 18 42  1  0  0  0  0
 19 20  2  0  0  0  0
 20 22  1  0  0  0  0
 20 44  1  0  0  0  0
 21 22  2  0  0  0  0
 21 23  1  0  0  0  0
 22 45  1  0  0  0  0
 23 24  2  0  0  0  0
 23 25  1  0  0  0  0
 24 26  1  0  0  0  0
 24 46  1  0  0  0  0
 25 27  2  0  0  0  0
 25 47  1  0  0  0  0
 26 28  2  0  0  0  0
 26 48  1  0  0  0  0
 27 28  1  0  0  0  0
 27 49  1  0  0  0  0
M  END
> <PUBCHEM_COMPOUND_CID>
10252272

> <PUBCHEM_COMPOUND_CANONICALIZED>
1

> <PUBCHEM_CACTVS_COMPLEXITY>
618

> <PUBCHEM_CACTVS_HBOND_ACCEPTOR>
5

> <PUBCHEM_CACTVS_HBOND_DONOR>
1

> <PUBCHEM_CACTVS_ROTATABLE_BOND>
4

> <PUBCHEM_CACTVS_SUBSKEYS>
AAADceB7MABkAAAAAAAAAAAAAAAAASAAAAAwYAAABYAAAAAB0AAAHAYQQAAADArBWCQywYNAAAqEAiRCQHDDAZAgDxBIiBgIZogIICKhk5GEIABgkACoyAcQgIAOjAAAQAAQAAAYAACAACAAAAAAAAAAAA==

> <PUBCHEM_IUPAC_OPENEYE_NAME>
5-(4-chlorophenyl)-N-(3-methyl-1,2,4,5-tetrahydro-3-benzazepin-7-yl)thiophene-2-sulfonamide

> <PUBCHEM_IUPAC_CAS_NAME>
5-(4-chlorophenyl)-N-(3-methyl-1,2,4,5-tetrahydro-3-benzazepin-7-yl)-2-thiophenesulfonamide

> <PUBCHEM_IUPAC_NAME_MARKUP>
5-(4-chlorophenyl)-<I>N</I>-(3-methyl-1,2,4,5-tetrahydro-3-benzazepin-7-yl)thiophene-2-sulfonamide

> <PUBCHEM_IUPAC_NAME>
5-(4-chlorophenyl)-N-(3-methyl-1,2,4,5-tetrahydro-3-benzazepin-7-yl)thiophene-2-sulfonamide

> <PUBCHEM_IUPAC_SYSTEMATIC_NAME>
5-(4-chlorophenyl)-N-(3-methyl-1,2,4,5-tetrahydro-3-benzazepin-7-yl)thiophene-2-sulfonamide

> <PUBCHEM_IUPAC_TRADITIONAL_NAME>
5-(4-chlorophenyl)-N-(3-methyl-1,2,4,5-tetrahydro-3-benzazepin-7-yl)thiophene-2-sulfonamide

> <PUBCHEM_IUPAC_INCHI>
InChI=1S/C21H21ClN2O2S2/c1-24-12-10-15-4-7-19(14-17(15)11-13-24)23-28(25,26)21-9-8-20(27-21)16-2-5-18(22)6-3-16/h2-9,14,23H,10-13H2,1H3

> <PUBCHEM_IUPAC_INCHIKEY>
UZYOEBMFBYDQJT-UHFFFAOYSA-N

> <PUBCHEM_XLOGP3_AA>
5.1

> <PUBCHEM_EXACT_MASS>
432.0732980

> <PUBCHEM_MOLECULAR_FORMULA>
C21H21ClN2O2S2

> <PUBCHEM_MOLECULAR_WEIGHT>
433.0

> <PUBCHEM_OPENEYE_CAN_SMILES>
CN1CCC2=C(CC1)C=C(C=C2)NS(=O)(=O)C3=CC=C(S3)C4=CC=C(C=C4)Cl

> <PUBCHEM_OPENEYE_ISO_SMILES>
CN1CCC2=C(CC1)C=C(C=C2)NS(=O)(=O)C3=CC=C(S3)C4=CC=C(C=C4)Cl

> <PUBCHEM_CACTVS_TPSA>
86

> <PUBCHEM_MONOISOTOPIC_WEIGHT>
432.0732980

> <PUBCHEM_TOTAL_CHARGE>
0

> <PUBCHEM_HEAVY_ATOM_COUNT>
28

> <PUBCHEM_ATOM_DEF_STEREO_COUNT>
0

> <PUBCHEM_ATOM_UDEF_STEREO_COUNT>
0

> <PUBCHEM_BOND_DEF_STEREO_COUNT>
0

> <PUBCHEM_BOND_UDEF_STEREO_COUNT>
0

> <PUBCHEM_ISOTOPIC_ATOM_COUNT>
0

> <PUBCHEM_COMPONENT_COUNT>
1

> <PUBCHEM_CACTVS_TAUTO_COUNT>
-1

> <PUBCHEM_COORDINATE_TYPE>
1
5
255

> <PUBCHEM_BONDANNOTATIONS>
12  13  8
12  14  8
13  15  8
14  16  8
15  18  8
16  18  8
19  20  8
20  22  8
21  22  8
23  24  8
23  25  8
24  26  8
25  27  8
26  28  8
27  28  8
3  19  8
3  21  8

$$$$
