9796627
  -OEChem-09292322512D

 43 45  0     0  0  0  0  0  0999 V2000
    2.5369    0.7310    0.0000 O   0  0  0  0  0  0  0  0  0  0  0  0
    5.7240   -2.7686    0.0000 O   0  0  0  0  0  0  0  0  0  0  0  0
    6.0812   -1.0738    0.0000 N   0  0  0  0  0  0  0  0  0  0  0  0
    7.6811    2.6430    0.0000 N   0  0  0  0  0  0  0  0  0  0  0  0
    6.0812    0.5357    0.0000 C   0  0  0  0  0  0  0  0  0  0  0  0
    5.1350    0.2310    0.0000 C   0  0  0  0  0  0  0  0  0  0  0  0
    6.3919    1.4862    0.0000 C   0  0  0  0  0  0  0  0  0  0  0  0
    5.1350   -0.7690    0.0000 C   0  0  0  0  0  0  0  0  0  0  0  0
    6.6648   -0.2690    0.0000 C   0  0  0  0  0  0  0  0  0  0  0  0
    7.3704    1.6924    0.0000 C   0  0  0  0  0  0  0  0  0  0  0  0
    4.2690    0.7310    0.0000 C   0  0  0  0  0  0  0  0  0  0  0  0
    4.2690   -1.2690    0.0000 C   0  0  0  0  0  0  0  0  0  0  0  0
    6.3919   -2.0243    0.0000 C   0  0  0  0  0  0  0  0  0  0  0  0
    3.4030    0.2310    0.0000 C   0  0  0  0  0  0  0  0  0  0  0  0
    3.4030   -0.7690    0.0000 C   0  0  0  0  0  0  0  0  0  0  0  0
    7.3704   -2.2305    0.0000 C   0  0  0  0  0  0  0  0  0  0  0  0
    8.6596    2.8492    0.0000 C   0  0  0  0  0  0  0  0  0  0  0  0
    7.0132    3.3872    0.0000 C   0  0  0  0  0  0  0  0  0  0  0  0
    8.0382   -1.4862    0.0000 C   0  0  0  0  0  0  0  0  0  0  0  0
    7.6811   -3.1810    0.0000 C   0  0  0  0  0  0  0  0  0  0  0  0
    9.0168   -1.6924    0.0000 C   0  0  0  0  0  0  0  0  0  0  0  0
    8.6596   -3.3872    0.0000 C   0  0  0  0  0  0  0  0  0  0  0  0
    9.3274   -2.6430    0.0000 C   0  0  0  0  0  0  0  0  0  0  0  0
    6.3713    2.1059    0.0000 H   0  0  0  0  0  0  0  0  0  0  0  0
    5.7781    1.5736    0.0000 H   0  0  0  0  0  0  0  0  0  0  0  0
    7.2848   -0.2690    0.0000 H   0  0  0  0  0  0  0  0  0  0  0  0
    7.3910    1.0728    0.0000 H   0  0  0  0  0  0  0  0  0  0  0  0
    7.9842    1.6051    0.0000 H   0  0  0  0  0  0  0  0  0  0  0  0
    4.2690    1.3510    0.0000 H   0  0  0  0  0  0  0  0  0  0  0  0
    4.2690   -1.8890    0.0000 H   0  0  0  0  0  0  0  0  0  0  0  0
    2.8660   -1.0790    0.0000 H   0  0  0  0  0  0  0  0  0  0  0  0
    8.7874    2.2425    0.0000 H   0  0  0  0  0  0  0  0  0  0  0  0
    9.2662    2.9770    0.0000 H   0  0  0  0  0  0  0  0  0  0  0  0
    8.5317    3.4558    0.0000 H   0  0  0  0  0  0  0  0  0  0  0  0
    7.4747    3.8013    0.0000 H   0  0  0  0  0  0  0  0  0  0  0  0
    6.5992    3.8487    0.0000 H   0  0  0  0  0  0  0  0  0  0  0  0
    6.5518    2.9732    0.0000 H   0  0  0  0  0  0  0  0  0  0  0  0
    7.8456   -0.8969    0.0000 H   0  0  0  0  0  0  0  0  0  0  0  0
    7.2670   -3.6425    0.0000 H   0  0  0  0  0  0  0  0  0  0  0  0
    2.0000    0.4210    0.0000 H   0  0  0  0  0  0  0  0  0  0  0  0
    9.4308   -1.2310    0.0000 H   0  0  0  0  0  0  0  0  0  0  0  0
    8.8522   -3.9766    0.0000 H   0  0  0  0  0  0  0  0  0  0  0  0
    9.9341   -2.7708    0.0000 H   0  0  0  0  0  0  0  0  0  0  0  0
  1 14  1  0  0  0  0
  1 40  1  0  0  0  0
  2 13  2  0  0  0  0
  3  8  1  0  0  0  0
  3  9  1  0  0  0  0
  3 13  1  0  0  0  0
  4 10  1  0  0  0  0
  4 17  1  0  0  0  0
  4 18  1  0  0  0  0
  5  6  1  0  0  0  0
  5  7  1  0  0  0  0
  5  9  2  0  0  0  0
  6  8  2  0  0  0  0
  6 11  1  0  0  0  0
  7 10  1  0  0  0  0
  7 24  1  0  0  0  0
  7 25  1  0  0  0  0
  8 12  1  0  0  0  0
  9 26  1  0  0  0  0
 10 27  1  0  0  0  0
 10 28  1  0  0  0  0
 11 14  2  0  0  0  0
 11 29  1  0  0  0  0
 12 15  2  0  0  0  0
 12 30  1  0  0  0  0
 13 16  1  0  0  0  0
 14 15  1  0  0  0  0
 15 31  1  0  0  0  0
 16 19  2  0  0  0  0
 16 20  1  0  0  0  0
 17 32  1  0  0  0  0
 17 33  1  0  0  0  0
 17 34  1  0  0  0  0
 18 35  1  0  0  0  0
 18 36  1  0  0  0  0
 18 37  1  0  0  0  0
 19 21  1  0  0  0  0
 19 38  1  0  0  0  0
 20 22  2  0  0  0  0
 20 39  1  0  0  0  0
 21 23  2  0  0  0  0
 21 41  1  0  0  0  0
 22 23  1  0  0  0  0
 22 42  1  0  0  0  0
 23 43  1  0  0  0  0
M  END
> <PUBCHEM_COMPOUND_CID>
9796627

> <PUBCHEM_COMPOUND_CANONICALIZED>
1

> <PUBCHEM_CACTVS_COMPLEXITY>
406

> <PUBCHEM_CACTVS_HBOND_ACCEPTOR>
3

> <PUBCHEM_CACTVS_HBOND_DONOR>
1

> <PUBCHEM_CACTVS_ROTATABLE_BOND>
4

> <PUBCHEM_CACTVS_SUBSKEYS>
AAADceB7MAAAAAAAAAAAAAAAAAAAAWAAAAAwYAAAAAAAAFgB9AAAHgAACAAADAzBngQ+xvMMEgCoAzV3VACCgCA1IiAI2CE+bNgIJvLClZOEcQhkxhHI2Ye42PKOgEABAAACAAAAgAIAAAQAAAAAAAAAAA==

> <PUBCHEM_IUPAC_OPENEYE_NAME>
[3-[2-(dimethylamino)ethyl]-5-hydroxy-indol-1-yl]-phenyl-methanone

> <PUBCHEM_IUPAC_CAS_NAME>
[3-[2-(dimethylamino)ethyl]-5-hydroxy-1-indolyl]-phenylmethanone

> <PUBCHEM_IUPAC_NAME_MARKUP>
[3-[2-(dimethylamino)ethyl]-5-hydroxyindol-1-yl]-phenylmethanone

> <PUBCHEM_IUPAC_NAME>
[3-[2-(dimethylamino)ethyl]-5-hydroxyindol-1-yl]-phenylmethanone

> <PUBCHEM_IUPAC_SYSTEMATIC_NAME>
[3-[2-(dimethylamino)ethyl]-5-oxidanyl-indol-1-yl]-phenyl-methanone

> <PUBCHEM_IUPAC_TRADITIONAL_NAME>
[3-[2-(dimethylamino)ethyl]-5-hydroxy-indol-1-yl]-phenyl-methanone

> <PUBCHEM_IUPAC_INCHI>
InChI=1S/C19H20N2O2/c1-20(2)11-10-15-13-21(18-9-8-16(22)12-17(15)18)19(23)14-6-4-3-5-7-14/h3-9,12-13,22H,10-11H2,1-2H3

> <PUBCHEM_IUPAC_INCHIKEY>
UJELDYRUBKQNKE-UHFFFAOYSA-N

> <PUBCHEM_XLOGP3_AA>
3.5

> <PUBCHEM_EXACT_MASS>
308.152477885

> <PUBCHEM_MOLECULAR_FORMULA>
C19H20N2O2

> <PUBCHEM_MOLECULAR_WEIGHT>
308.4

> <PUBCHEM_OPENEYE_CAN_SMILES>
CN(C)CCC1=CN(C2=C1C=C(C=C2)O)C(=O)C3=CC=CC=C3

> <PUBCHEM_OPENEYE_ISO_SMILES>
CN(C)CCC1=CN(C2=C1C=C(C=C2)O)C(=O)C3=CC=CC=C3

> <PUBCHEM_CACTVS_TPSA>
45.5

> <PUBCHEM_MONOISOTOPIC_WEIGHT>
308.152477885

> <PUBCHEM_TOTAL_CHARGE>
0

> <PUBCHEM_HEAVY_ATOM_COUNT>
23

> <PUBCHEM_ATOM_DEF_STEREO_COUNT>
0

> <PUBCHEM_ATOM_UDEF_STEREO_COUNT>
0

> <PUBCHEM_BOND_DEF_STEREO_COUNT>
0

> <PUBCHEM_BOND_UDEF_STEREO_COUNT>
0

> <PUBCHEM_ISOTOPIC_ATOM_COUNT>
0

> <PUBCHEM_COMPONENT_COUNT>
1

> <PUBCHEM_CACTVS_TAUTO_COUNT>
-1

> <PUBCHEM_COORDINATE_TYPE>
1
5
255

> <PUBCHEM_BONDANNOTATIONS>
11  14  8
12  15  8
14  15  8
16  19  8
16  20  8
19  21  8
20  22  8
21  23  8
22  23  8
3  8  8
3  9  8
5  6  8
5  9  8
6  11  8
6  8  8
8  12  8

$$$$
