168291393
  -OEChem-09292322452D

 50 51  0     0  0  0  0  0  0999 V2000
    2.0000   -6.1550    0.0000 Cl  0  0  0  0  0  0  0  0  0  0  0  0
    8.0622    4.3450    0.0000 O   0  0  0  0  0  0  0  0  0  0  0  0
    3.7320   -1.1550    0.0000 N   0  0  0  0  0  0  0  0  0  0  0  0
    3.7320   -3.1550    0.0000 N   0  0  0  0  0  0  0  0  0  0  0  0
    6.3301    4.3450    0.0000 N   0  0  0  0  0  0  0  0  0  0  0  0
    7.1962    5.8450    0.0000 N   0  0  0  0  0  0  0  0  0  0  0  0
    4.5981   -1.6550    0.0000 C   0  0  0  0  0  0  0  0  0  0  0  0
    2.8660   -1.6550    0.0000 C   0  0  0  0  0  0  0  0  0  0  0  0
    3.7320   -0.1550    0.0000 C   0  0  0  0  0  0  0  0  0  0  0  0
    4.5981   -2.6550    0.0000 C   0  0  0  0  0  0  0  0  0  0  0  0
    2.8660   -2.6550    0.0000 C   0  0  0  0  0  0  0  0  0  0  0  0
    4.5981    0.3450    0.0000 C   0  0  0  0  0  0  0  0  0  0  0  0
    4.5981    1.3450    0.0000 C   0  0  0  0  0  0  0  0  0  0  0  0
    5.4641    1.8450    0.0000 C   0  0  0  0  0  0  0  0  0  0  0  0
    3.7320   -4.1550    0.0000 C   0  0  0  0  0  0  0  0  0  0  0  0
    5.4641    2.8450    0.0000 C   0  0  0  0  0  0  0  0  0  0  0  0
    2.8660   -4.6550    0.0000 C   0  0  0  0  0  0  0  0  0  0  0  0
    4.5981   -4.6550    0.0000 C   0  0  0  0  0  0  0  0  0  0  0  0
    6.3301    3.3450    0.0000 C   0  0  0  0  0  0  0  0  0  0  0  0
    2.8660   -5.6550    0.0000 C   0  0  0  0  0  0  0  0  0  0  0  0
    4.5981   -5.6550    0.0000 C   0  0  0  0  0  0  0  0  0  0  0  0
    3.7320   -6.1550    0.0000 C   0  0  0  0  0  0  0  0  0  0  0  0
    7.1962    4.8450    0.0000 C   0  0  0  0  0  0  0  0  0  0  0  0
    5.2087   -1.7627    0.0000 H   0  0  0  0  0  0  0  0  0  0  0  0
    4.8101   -1.0724    0.0000 H   0  0  0  0  0  0  0  0  0  0  0  0
    2.6540   -1.0724    0.0000 H   0  0  0  0  0  0  0  0  0  0  0  0
    2.2554   -1.7627    0.0000 H   0  0  0  0  0  0  0  0  0  0  0  0
    3.5200    0.4276    0.0000 H   0  0  0  0  0  0  0  0  0  0  0  0
    3.1215   -0.2627    0.0000 H   0  0  0  0  0  0  0  0  0  0  0  0
    4.8101   -3.2376    0.0000 H   0  0  0  0  0  0  0  0  0  0  0  0
    5.2087   -2.5473    0.0000 H   0  0  0  0  0  0  0  0  0  0  0  0
    2.2554   -2.5473    0.0000 H   0  0  0  0  0  0  0  0  0  0  0  0
    2.6540   -3.2376    0.0000 H   0  0  0  0  0  0  0  0  0  0  0  0
    4.8101   -0.2376    0.0000 H   0  0  0  0  0  0  0  0  0  0  0  0
    5.2087    0.4527    0.0000 H   0  0  0  0  0  0  0  0  0  0  0  0
    4.3860    1.9276    0.0000 H   0  0  0  0  0  0  0  0  0  0  0  0
    3.9875    1.2373    0.0000 H   0  0  0  0  0  0  0  0  0  0  0  0
    5.6762    1.2624    0.0000 H   0  0  0  0  0  0  0  0  0  0  0  0
    6.0747    1.9527    0.0000 H   0  0  0  0  0  0  0  0  0  0  0  0
    5.2520    3.4276    0.0000 H   0  0  0  0  0  0  0  0  0  0  0  0
    4.8535    2.7373    0.0000 H   0  0  0  0  0  0  0  0  0  0  0  0
    2.3291   -4.3450    0.0000 H   0  0  0  0  0  0  0  0  0  0  0  0
    5.1350   -4.3450    0.0000 H   0  0  0  0  0  0  0  0  0  0  0  0
    6.5422    2.7624    0.0000 H   0  0  0  0  0  0  0  0  0  0  0  0
    6.9407    3.4527    0.0000 H   0  0  0  0  0  0  0  0  0  0  0  0
    5.1350   -5.9650    0.0000 H   0  0  0  0  0  0  0  0  0  0  0  0
    3.7320   -6.7750    0.0000 H   0  0  0  0  0  0  0  0  0  0  0  0
    5.7932    4.6550    0.0000 H   0  0  0  0  0  0  0  0  0  0  0  0
    7.7331    6.1550    0.0000 H   0  0  0  0  0  0  0  0  0  0  0  0
    6.6592    6.1550    0.0000 H   0  0  0  0  0  0  0  0  0  0  0  0
  1 20  1  0  0  0  0
  2 23  2  0  0  0  0
  3  7  1  0  0  0  0
  3  8  1  0  0  0  0
  3  9  1  0  0  0  0
  4 10  1  0  0  0  0
  4 11  1  0  0  0  0
  4 15  1  0  0  0  0
  5 19  1  0  0  0  0
  5 23  1  0  0  0  0
  5 48  1  0  0  0  0
  6 23  1  0  0  0  0
  6 49  1  0  0  0  0
  6 50  1  0  0  0  0
  7 10  1  0  0  0  0
  7 24  1  0  0  0  0
  7 25  1  0  0  0  0
  8 11  1  0  0  0  0
  8 26  1  0  0  0  0
  8 27  1  0  0  0  0
  9 12  1  0  0  0  0
  9 28  1  0  0  0  0
  9 29  1  0  0  0  0
 10 30  1  0  0  0  0
 10 31  1  0  0  0  0
 11 32  1  0  0  0  0
 11 33  1  0  0  0  0
 12 13  1  0  0  0  0
 12 34  1  0  0  0  0
 12 35  1  0  0  0  0
 13 14  1  0  0  0  0
 13 36  1  0  0  0  0
 13 37  1  0  0  0  0
 14 16  1  0  0  0  0
 14 38  1  0  0  0  0
 14 39  1  0  0  0  0
 15 17  2  0  0  0  0
 15 18  1  0  0  0  0
 16 19  1  0  0  0  0
 16 40  1  0  0  0  0
 16 41  1  0  0  0  0
 17 20  1  0  0  0  0
 17 42  1  0  0  0  0
 18 21  2  0  0  0  0
 18 43  1  0  0  0  0
 19 44  1  0  0  0  0
 19 45  1  0  0  0  0
 20 22  2  0  0  0  0
 21 22  1  0  0  0  0
 21 46  1  0  0  0  0
 22 47  1  0  0  0  0
M  END
> <PUBCHEM_COMPOUND_CID>
168291393

> <PUBCHEM_COMPOUND_CANONICALIZED>
1

> <PUBCHEM_CACTVS_COMPLEXITY>
348

> <PUBCHEM_CACTVS_HBOND_ACCEPTOR>
3

> <PUBCHEM_CACTVS_HBOND_DONOR>
2

> <PUBCHEM_CACTVS_ROTATABLE_BOND>
8

> <PUBCHEM_CACTVS_SUBSKEYS>
AAADceB7oAAEAAAAAAAAAAAAAAAAAAAAAAA8QAAAAAAAAAABAAAAHgIQAAAACArBECQxwIPAAACIACRCUACCAAAhBwAIiIAIZoiIYCLBk5GUIAhglgLIyAcQAAAAAAAAAAIAAAAAAAAABAAAAAAAAAAAAA==

> <PUBCHEM_IUPAC_OPENEYE_NAME>
6-[4-(3-chlorophenyl)piperazin-1-yl]hexylurea

> <PUBCHEM_IUPAC_CAS_NAME>
6-[4-(3-chlorophenyl)-1-piperazinyl]hexylurea

> <PUBCHEM_IUPAC_NAME_MARKUP>
6-[4-(3-chlorophenyl)piperazin-1-yl]hexylurea

> <PUBCHEM_IUPAC_NAME>
6-[4-(3-chlorophenyl)piperazin-1-yl]hexylurea

> <PUBCHEM_IUPAC_SYSTEMATIC_NAME>
1-[6-[4-(3-chlorophenyl)piperazin-1-yl]hexyl]urea

> <PUBCHEM_IUPAC_TRADITIONAL_NAME>
6-[4-(3-chlorophenyl)piperazino]hexylurea

> <PUBCHEM_IUPAC_INCHI>
InChI=1S/C17H27ClN4O/c18-15-6-5-7-16(14-15)22-12-10-21(11-13-22)9-4-2-1-3-8-20-17(19)23/h5-7,14H,1-4,8-13H2,(H3,19,20,23)

> <PUBCHEM_IUPAC_INCHIKEY>
FQNXFBTXLFBRQD-UHFFFAOYSA-N

> <PUBCHEM_XLOGP3_AA>
2.7

> <PUBCHEM_EXACT_MASS>
338.1873392

> <PUBCHEM_MOLECULAR_FORMULA>
C17H27ClN4O

> <PUBCHEM_MOLECULAR_WEIGHT>
338.9

> <PUBCHEM_OPENEYE_CAN_SMILES>
C1CN(CCN1CCCCCCNC(=O)N)C2=CC(=CC=C2)Cl

> <PUBCHEM_OPENEYE_ISO_SMILES>
C1CN(CCN1CCCCCCNC(=O)N)C2=CC(=CC=C2)Cl

> <PUBCHEM_CACTVS_TPSA>
61.6

> <PUBCHEM_MONOISOTOPIC_WEIGHT>
338.1873392

> <PUBCHEM_TOTAL_CHARGE>
0

> <PUBCHEM_HEAVY_ATOM_COUNT>
23

> <PUBCHEM_ATOM_DEF_STEREO_COUNT>
0

> <PUBCHEM_ATOM_UDEF_STEREO_COUNT>
0

> <PUBCHEM_BOND_DEF_STEREO_COUNT>
0

> <PUBCHEM_BOND_UDEF_STEREO_COUNT>
0

> <PUBCHEM_ISOTOPIC_ATOM_COUNT>
0

> <PUBCHEM_COMPONENT_COUNT>
1

> <PUBCHEM_CACTVS_TAUTO_COUNT>
-1

> <PUBCHEM_COORDINATE_TYPE>
1
5
255

> <PUBCHEM_BONDANNOTATIONS>
15  17  8
15  18  8
17  20  8
18  21  8
20  22  8
21  22  8

$$$$
