57383425
  -OEChem-09292321582D

 47 50  0     1  0  0  0  0  0999 V2000
   11.4246   -0.6652    0.0000 S   0  0  3  0  0  0  0  0  0  0  0  0
   11.4246   -1.6652    0.0000 O   0  0  0  0  0  0  0  0  0  0  0  0
   12.3585    2.4264    0.0000 O   0  0  0  0  0  0  0  0  0  0  0  0
    7.3685    1.6376    0.0000 O   0  0  0  0  0  0  0  0  0  0  0  0
    2.9544   -2.4264    0.0000 O   0  0  0  0  0  0  0  0  0  0  0  0
   10.9247    1.5254    0.0000 N   0  0  0  0  0  0  0  0  0  0  0  0
    6.8516   -0.0155    0.0000 N   0  0  0  0  0  0  0  0  0  0  0  0
   10.5237   -0.2313    0.0000 C   0  0  0  0  0  0  0  0  0  0  0  0
   10.3012    0.7436    0.0000 C   0  0  0  0  0  0  0  0  0  0  0  0
   12.3256   -0.2313    0.0000 C   0  0  0  0  0  0  0  0  0  0  0  0
   12.5481    0.7436    0.0000 C   0  0  0  0  0  0  0  0  0  0  0  0
    8.5416    0.3634    0.0000 C   0  0  0  0  0  0  0  0  0  0  0  0
    9.3107    1.0660    0.0000 C   0  0  0  0  0  0  0  0  0  0  0  0
    9.7711   -0.9515    0.0000 C   0  0  0  0  0  0  0  0  0  0  0  0
   11.9247    1.5254    0.0000 C   0  0  0  0  0  0  0  0  0  0  0  0
    8.7734   -0.6521    0.0000 C   0  0  0  0  0  0  0  0  0  0  0  0
    7.5872    0.6618    0.0000 C   0  0  0  0  0  0  0  0  0  0  0  0
   13.0782   -0.9515    0.0000 C   0  0  0  0  0  0  0  0  0  0  0  0
    5.8971    0.2829    0.0000 C   0  0  0  0  0  0  0  0  0  0  0  0
   13.5386    1.0659    0.0000 C   0  0  0  0  0  0  0  0  0  0  0  0
    5.1614   -0.3944    0.0000 C   0  0  0  0  0  0  0  0  0  0  0  0
   14.0759   -0.6522    0.0000 C   0  0  0  0  0  0  0  0  0  0  0  0
   14.3076    0.3633    0.0000 C   0  0  0  0  0  0  0  0  0  0  0  0
    5.3802   -1.3702    0.0000 C   0  0  0  0  0  0  0  0  0  0  0  0
    4.2070   -0.0960    0.0000 C   0  0  0  0  0  0  0  0  0  0  0  0
    4.6445   -2.0475    0.0000 C   0  0  0  0  0  0  0  0  0  0  0  0
    3.4714   -0.7733    0.0000 C   0  0  0  0  0  0  0  0  0  0  0  0
    3.6901   -1.7491    0.0000 C   0  0  0  0  0  0  0  0  0  0  0  0
    2.0000   -2.1280    0.0000 C   0  0  0  0  0  0  0  0  0  0  0  0
    9.1797    1.6720    0.0000 H   0  0  0  0  0  0  0  0  0  0  0  0
    9.9160   -1.5543    0.0000 H   0  0  0  0  0  0  0  0  0  0  0  0
   10.6557    2.0840    0.0000 H   0  0  0  0  0  0  0  0  0  0  0  0
    8.3206   -1.0756    0.0000 H   0  0  0  0  0  0  0  0  0  0  0  0
    6.1821    0.8336    0.0000 H   0  0  0  0  0  0  0  0  0  0  0  0
    5.4044    0.6592    0.0000 H   0  0  0  0  0  0  0  0  0  0  0  0
   12.9332   -1.5543    0.0000 H   0  0  0  0  0  0  0  0  0  0  0  0
   13.6696    1.6719    0.0000 H   0  0  0  0  0  0  0  0  0  0  0  0
    6.9872   -0.6205    0.0000 H   0  0  0  0  0  0  0  0  0  0  0  0
   14.5287   -1.0756    0.0000 H   0  0  0  0  0  0  0  0  0  0  0  0
   14.8994    0.5484    0.0000 H   0  0  0  0  0  0  0  0  0  0  0  0
    5.9720   -1.5552    0.0000 H   0  0  0  0  0  0  0  0  0  0  0  0
    4.0714    0.5090    0.0000 H   0  0  0  0  0  0  0  0  0  0  0  0
    4.7802   -2.6525    0.0000 H   0  0  0  0  0  0  0  0  0  0  0  0
    2.8796   -0.5883    0.0000 H   0  0  0  0  0  0  0  0  0  0  0  0
    2.1850   -1.5362    0.0000 H   0  0  0  0  0  0  0  0  0  0  0  0
    1.4083   -1.9429    0.0000 H   0  0  0  0  0  0  0  0  0  0  0  0
    1.8150   -2.7197    0.0000 H   0  0  0  0  0  0  0  0  0  0  0  0
  1  2  2  0  0  0  0
  1  8  1  0  0  0  0
  1 10  1  0  0  0  0
  3 15  2  0  0  0  0
  4 17  2  0  0  0  0
  5 28  1  0  0  0  0
  5 29  1  0  0  0  0
  6  9  1  0  0  0  0
  6 15  1  0  0  0  0
  6 32  1  0  0  0  0
  7 17  1  0  0  0  0
  7 19  1  0  0  0  0
  7 38  1  0  0  0  0
  8  9  2  0  0  0  0
  8 14  1  0  0  0  0
  9 13  1  0  0  0  0
 10 11  1  0  0  0  0
 10 18  2  0  0  0  0
 11 15  1  0  0  0  0
 11 20  2  0  0  0  0
 12 13  2  0  0  0  0
 12 16  1  0  0  0  0
 12 17  1  0  0  0  0
 13 30  1  0  0  0  0
 14 16  2  0  0  0  0
 14 31  1  0  0  0  0
 16 33  1  0  0  0  0
 18 22  1  0  0  0  0
 18 36  1  0  0  0  0
 19 21  1  0  0  0  0
 19 34  1  0  0  0  0
 19 35  1  0  0  0  0
 20 23  1  0  0  0  0
 20 37  1  0  0  0  0
 21 24  2  0  0  0  0
 21 25  1  0  0  0  0
 22 23  2  0  0  0  0
 22 39  1  0  0  0  0
 23 40  1  0  0  0  0
 24 26  1  0  0  0  0
 24 41  1  0  0  0  0
 25 27  2  0  0  0  0
 25 42  1  0  0  0  0
 26 28  2  0  0  0  0
 26 43  1  0  0  0  0
 27 28  1  0  0  0  0
 27 44  1  0  0  0  0
 29 45  1  0  0  0  0
 29 46  1  0  0  0  0
 29 47  1  0  0  0  0
M  END
> <PUBCHEM_COMPOUND_CID>
57383425

> <PUBCHEM_COMPOUND_CANONICALIZED>
1

> <PUBCHEM_CACTVS_COMPLEXITY>
634

> <PUBCHEM_CACTVS_HBOND_ACCEPTOR>
5

> <PUBCHEM_CACTVS_HBOND_DONOR>
2

> <PUBCHEM_CACTVS_ROTATABLE_BOND>
4

> <PUBCHEM_CACTVS_SUBSKEYS>
AAADceB7OABAAAAAAAAAAAAAAAAAAAAAAAAwYMAABYAAAAABUAAAHgQQAAAADAzB2AYyx4LABAqIAiVSUEDCCAAlKhAIiJ0ObMgMJjLktZuEMShk1hHo6Yec2AKOMAAAQAAEAQBgAACAAAgCAAAAAAAAAA==

> <PUBCHEM_IUPAC_OPENEYE_NAME>
N-[(4-methoxyphenyl)methyl]-6,11-dioxo-5H-benzo[b][1,4]benzothiazepine-3-carboxamide

> <PUBCHEM_IUPAC_CAS_NAME>
N-[(4-methoxyphenyl)methyl]-6,11-dioxo-5H-benzo[b][1,4]benzothiazepine-3-carboxamide

> <PUBCHEM_IUPAC_NAME_MARKUP>
<I>N</I>-[(4-methoxyphenyl)methyl]-6,11-dioxo-5<I>H</I>-benzo[b][1,4]benzothiazepine-3-carboxamide

> <PUBCHEM_IUPAC_NAME>
N-[(4-methoxyphenyl)methyl]-6,11-dioxo-5H-benzo[b][1,4]benzothiazepine-3-carboxamide

> <PUBCHEM_IUPAC_SYSTEMATIC_NAME>
N-[(4-methoxyphenyl)methyl]-6,11-bis(oxidanylidene)-5H-benzo[b][1,4]benzothiazepine-3-carboxamide

> <PUBCHEM_IUPAC_TRADITIONAL_NAME>
6,11-diketo-N-p-anisyl-5H-benzo[b][1,4]benzothiazepine-3-carboxamide

> <PUBCHEM_IUPAC_INCHI>
InChI=1S/C22H18N2O4S/c1-28-16-9-6-14(7-10-16)13-23-21(25)15-8-11-20-18(12-15)24-22(26)17-4-2-3-5-19(17)29(20)27/h2-12H,13H2,1H3,(H,23,25)(H,24,26)

> <PUBCHEM_IUPAC_INCHIKEY>
HRPFQYYKTVOIMZ-UHFFFAOYSA-N

> <PUBCHEM_XLOGP3_AA>
2.4

> <PUBCHEM_EXACT_MASS>
406.09872823

> <PUBCHEM_MOLECULAR_FORMULA>
C22H18N2O4S

> <PUBCHEM_MOLECULAR_WEIGHT>
406.5

> <PUBCHEM_OPENEYE_CAN_SMILES>
COC1=CC=C(C=C1)CNC(=O)C2=CC3=C(C=C2)S(=O)C4=CC=CC=C4C(=O)N3

> <PUBCHEM_OPENEYE_ISO_SMILES>
COC1=CC=C(C=C1)CNC(=O)C2=CC3=C(C=C2)S(=O)C4=CC=CC=C4C(=O)N3

> <PUBCHEM_CACTVS_TPSA>
104

> <PUBCHEM_MONOISOTOPIC_WEIGHT>
406.09872823

> <PUBCHEM_TOTAL_CHARGE>
0

> <PUBCHEM_HEAVY_ATOM_COUNT>
29

> <PUBCHEM_ATOM_DEF_STEREO_COUNT>
0

> <PUBCHEM_ATOM_UDEF_STEREO_COUNT>
1

> <PUBCHEM_BOND_DEF_STEREO_COUNT>
0

> <PUBCHEM_BOND_UDEF_STEREO_COUNT>
0

> <PUBCHEM_ISOTOPIC_ATOM_COUNT>
0

> <PUBCHEM_COMPONENT_COUNT>
1

> <PUBCHEM_CACTVS_TAUTO_COUNT>
-1

> <PUBCHEM_COORDINATE_TYPE>
1
5
255

> <PUBCHEM_BONDANNOTATIONS>
1  10  3
10  11  8
10  18  8
11  20  8
12  13  8
12  16  8
14  16  8
18  22  8
20  23  8
21  24  8
21  25  8
22  23  8
24  26  8
25  27  8
26  28  8
27  28  8
8  14  8
8  9  8
9  13  8

$$$$
