10020914
  -OEChem-09292322102D

 48 51  0     1  0  0  0  0  0999 V2000
    5.6469    2.4992    0.0000 S   0  0  0  0  0  0  0  0  0  0  0  0
    4.1240   -0.4727    0.0000 O   0  0  0  0  0  0  0  0  0  0  0  0
    7.8240    0.2267    0.0000 O   0  0  0  0  0  0  0  0  0  0  0  0
    2.9639    0.5377    0.0000 O   0  0  0  0  0  0  0  0  0  0  0  0
    6.6651   -1.0604    0.0000 N   0  0  0  0  0  0  0  0  0  0  0  0
    4.9900    1.0273    0.0000 N   0  0  0  0  0  0  0  0  0  0  0  0
    9.3374   -1.2126    0.0000 N   0  0  0  0  0  0  0  0  0  0  0  0
    2.6067    2.2325    0.0000 N   0  0  0  0  0  0  0  0  0  0  0  0
    5.8561   -0.4727    0.0000 C   0  0  1  0  0  0  0  0  0  0  0  0
    6.7221    0.0273    0.0000 C   0  0  0  0  0  0  0  0  0  0  0  0
    5.0470   -1.0604    0.0000 C   0  0  0  0  0  0  0  0  0  0  0  0
    5.8561    1.5273    0.0000 C   0  0  1  0  0  0  0  0  0  0  0  0
    6.7221    1.0273    0.0000 C   0  0  0  0  0  0  0  0  0  0  0  0
    4.9900    0.0273    0.0000 C   0  0  0  0  0  0  0  0  0  0  0  0
    5.3561   -2.0115    0.0000 C   0  0  0  0  0  0  0  0  0  0  0  0
    6.3561   -2.0115    0.0000 C   0  0  0  0  0  0  0  0  0  0  0  0
    4.2530    1.6944    0.0000 C   0  0  2  0  0  0  0  0  0  0  0  0
    7.6161   -0.7514    0.0000 C   0  0  0  0  0  0  0  0  0  0  0  0
    4.6581    2.6022    0.0000 C   0  0  0  0  0  0  0  0  0  0  0  0
    8.3593   -1.4206    0.0000 C   0  0  2  0  0  0  0  0  0  0  0  0
    8.2548   -2.4151    0.0000 C   0  0  0  0  0  0  0  0  0  0  0  0
    9.1683   -2.8218    0.0000 C   0  0  0  0  0  0  0  0  0  0  0  0
    3.2745    1.4882    0.0000 C   0  0  0  0  0  0  0  0  0  0  0  0
    9.8374   -2.0787    0.0000 C   0  0  0  0  0  0  0  0  0  0  0  0
    6.9341   -0.5553    0.0000 H   0  0  0  0  0  0  0  0  0  0  0  0
    7.3327    0.1350    0.0000 H   0  0  0  0  0  0  0  0  0  0  0  0
    4.7370   -0.5235    0.0000 H   0  0  0  0  0  0  0  0  0  0  0  0
    4.4806   -1.3126    0.0000 H   0  0  0  0  0  0  0  0  0  0  0  0
    6.5431    2.0278    0.0000 H   0  0  0  0  0  0  0  0  0  0  0  0
    7.3327    0.9197    0.0000 H   0  0  0  0  0  0  0  0  0  0  0  0
    6.9341    1.6099    0.0000 H   0  0  0  0  0  0  0  0  0  0  0  0
    4.7496   -2.1404    0.0000 H   0  0  0  0  0  0  0  0  0  0  0  0
    5.4209   -2.6281    0.0000 H   0  0  0  0  0  0  0  0  0  0  0  0
    6.2913   -2.6281    0.0000 H   0  0  0  0  0  0  0  0  0  0  0  0
    6.9625   -2.1404    0.0000 H   0  0  0  0  0  0  0  0  0  0  0  0
    4.0913    1.0959    0.0000 H   0  0  0  0  0  0  0  0  0  0  0  0
    8.5198   -0.8217    0.0000 H   0  0  0  0  0  0  0  0  0  0  0  0
    4.7869    3.2087    0.0000 H   0  0  0  0  0  0  0  0  0  0  0  0
    4.0685    2.7940    0.0000 H   0  0  0  0  0  0  0  0  0  0  0  0
    7.6483   -2.2862    0.0000 H   0  0  0  0  0  0  0  0  0  0  0  0
    8.0632   -3.0047    0.0000 H   0  0  0  0  0  0  0  0  0  0  0  0
    9.5896   -0.6463    0.0000 H   0  0  0  0  0  0  0  0  0  0  0  0
    8.8583   -3.3588    0.0000 H   0  0  0  0  0  0  0  0  0  0  0  0
    9.6699   -3.1862    0.0000 H   0  0  0  0  0  0  0  0  0  0  0  0
   10.2523   -2.5394    0.0000 H   0  0  0  0  0  0  0  0  0  0  0  0
   10.3390   -1.7142    0.0000 H   0  0  0  0  0  0  0  0  0  0  0  0
    2.0000    2.1046    0.0000 H   0  0  0  0  0  0  0  0  0  0  0  0
    2.7993    2.8218    0.0000 H   0  0  0  0  0  0  0  0  0  0  0  0
  1 12  1  0  0  0  0
  1 19  1  0  0  0  0
  2 14  2  0  0  0  0
  3 18  2  0  0  0  0
  4 23  2  0  0  0  0
  9  5  1  1  0  0  0
  5 16  1  0  0  0  0
  5 18  1  0  0  0  0
  6 12  1  0  0  0  0
  6 14  1  0  0  0  0
  6 17  1  0  0  0  0
  7 20  1  0  0  0  0
  7 24  1  0  0  0  0
  7 42  1  0  0  0  0
  8 23  1  0  0  0  0
  8 47  1  0  0  0  0
  8 48  1  0  0  0  0
  9 10  1  0  0  0  0
  9 11  1  0  0  0  0
  9 14  1  0  0  0  0
 10 13  1  0  0  0  0
 10 25  1  0  0  0  0
 10 26  1  0  0  0  0
 11 15  1  0  0  0  0
 11 27  1  0  0  0  0
 11 28  1  0  0  0  0
 12 13  1  0  0  0  0
 12 29  1  1  0  0  0
 13 30  1  0  0  0  0
 13 31  1  0  0  0  0
 15 16  1  0  0  0  0
 15 32  1  0  0  0  0
 15 33  1  0  0  0  0
 16 34  1  0  0  0  0
 16 35  1  0  0  0  0
 17 19  1  0  0  0  0
 17 23  1  1  0  0  0
 17 36  1  0  0  0  0
 20 18  1  1  0  0  0
 19 38  1  0  0  0  0
 19 39  1  0  0  0  0
 20 21  1  0  0  0  0
 20 37  1  0  0  0  0
 21 22  1  0  0  0  0
 21 40  1  0  0  0  0
 21 41  1  0  0  0  0
 22 24  1  0  0  0  0
 22 43  1  0  0  0  0
 22 44  1  0  0  0  0
 24 45  1  0  0  0  0
 24 46  1  0  0  0  0
M  END
> <PUBCHEM_COMPOUND_CID>
10020914

> <PUBCHEM_COMPOUND_CANONICALIZED>
1

> <PUBCHEM_CACTVS_COMPLEXITY>
586

> <PUBCHEM_CACTVS_HBOND_ACCEPTOR>
5

> <PUBCHEM_CACTVS_HBOND_DONOR>
2

> <PUBCHEM_CACTVS_ROTATABLE_BOND>
2

> <PUBCHEM_CACTVS_SUBSKEYS>
AAADceB7sABAAAAAAAAAAAAAAAAAAWLFgAAsAAAAAAAAAFgAAAAAHgQQAAAADKjFwASAAAPAAAgIAAEQEAAAAABAABAAAIGIAAAAQBIggCAUAAAAFgCgAAEYgQAOAAAAAAAAAAAAAAAAAAAAAAAAAAAAAA==

> <PUBCHEM_IUPAC_OPENEYE_NAME>
(3S,6R,8aR)-5-oxo-1'-[(2S)-pyrrolidine-2-carbonyl]spiro[3,7,8,8a-tetrahydro-2H-thiazolo[3,2-a]pyridine-6,2'-pyrrolidine]-3-carboxamide

> <PUBCHEM_IUPAC_CAS_NAME>
(3S,6R,8aR)-5-oxo-1'-[oxo-[(2S)-2-pyrrolidinyl]methyl]-3-spiro[3,7,8,8a-tetrahydro-2H-thiazolo[3,2-a]pyridine-6,2'-pyrrolidine]carboxamide

> <PUBCHEM_IUPAC_NAME_MARKUP>
(3<I>S</I>,6<I>R</I>,8<I>a</I><I>R</I>)-5-oxo-1&apos;-[(2<I>S</I>)-pyrrolidine-2-carbonyl]spiro[3,7,8,8<I>a</I>-tetrahydro-2<I>H</I>-[1,3]thiazolo[3,2-a]pyridine-6,2&apos;-pyrrolidine]-3-carboxamide

> <PUBCHEM_IUPAC_NAME>
(3S,6R,8aR)-5-oxo-1'-[(2S)-pyrrolidine-2-carbonyl]spiro[3,7,8,8a-tetrahydro-2H-[1,3]thiazolo[3,2-a]pyridine-6,2'-pyrrolidine]-3-carboxamide

> <PUBCHEM_IUPAC_SYSTEMATIC_NAME>
(3S,6R,8aR)-5-oxidanylidene-1'-[(2S)-pyrrolidin-2-yl]carbonyl-spiro[3,7,8,8a-tetrahydro-2H-[1,3]thiazolo[3,2-a]pyridine-6,2'-pyrrolidine]-3-carboxamide

> <PUBCHEM_IUPAC_TRADITIONAL_NAME>
(3S,6R,8aR)-5-keto-1'-[(2S)-prolyl]spiro[3,7,8,8a-tetrahydro-2H-thiazolo[3,2-a]pyridine-6,2'-pyrrolidine]-3-carboxamide

> <PUBCHEM_IUPAC_INCHI>
InChI=1S/C16H24N4O3S/c17-13(21)11-9-24-12-4-6-16(15(23)20(11)12)5-2-8-19(16)14(22)10-3-1-7-18-10/h10-12,18H,1-9H2,(H2,17,21)/t10-,11+,12+,16+/m0/s1

> <PUBCHEM_IUPAC_INCHIKEY>
KMWWIPJCECUZFY-XSUJLISDSA-N

> <PUBCHEM_XLOGP3_AA>
-0.2

> <PUBCHEM_EXACT_MASS>
352.15691181

> <PUBCHEM_MOLECULAR_FORMULA>
C16H24N4O3S

> <PUBCHEM_MOLECULAR_WEIGHT>
352.5

> <PUBCHEM_OPENEYE_CAN_SMILES>
C1CC(NC1)C(=O)N2CCCC23CCC4N(C3=O)C(CS4)C(=O)N

> <PUBCHEM_OPENEYE_ISO_SMILES>
C1C[C@H](NC1)C(=O)N2CCC[C@]23CC[C@@H]4N(C3=O)[C@H](CS4)C(=O)N

> <PUBCHEM_CACTVS_TPSA>
121

> <PUBCHEM_MONOISOTOPIC_WEIGHT>
352.15691181

> <PUBCHEM_TOTAL_CHARGE>
0

> <PUBCHEM_HEAVY_ATOM_COUNT>
24

> <PUBCHEM_ATOM_DEF_STEREO_COUNT>
4

> <PUBCHEM_ATOM_UDEF_STEREO_COUNT>
0

> <PUBCHEM_BOND_DEF_STEREO_COUNT>
0

> <PUBCHEM_BOND_UDEF_STEREO_COUNT>
0

> <PUBCHEM_ISOTOPIC_ATOM_COUNT>
0

> <PUBCHEM_COMPONENT_COUNT>
1

> <PUBCHEM_CACTVS_TAUTO_COUNT>
-1

> <PUBCHEM_COORDINATE_TYPE>
1
5
255

> <PUBCHEM_BONDANNOTATIONS>
12  29  5
17  23  5
20  18  5
9  5  5

$$$$
