71724989
  -OEChem-09292322012D

 52 55  0     0  0  0  0  0  0999 V2000
    9.7619    2.4291    0.0000 O   0  0  0  0  0  0  0  0  0  0  0  0
    6.7619   -2.7671    0.0000 O   0  0  0  0  0  0  0  0  0  0  0  0
   13.7619    2.4291    0.0000 O   0  0  0  0  0  0  0  0  0  0  0  0
    7.7619    0.6970    0.0000 N   0  0  0  0  0  0  0  0  0  0  0  0
    6.7619   -1.0350    0.0000 N   0  0  0  0  0  0  0  0  0  0  0  0
    4.6783   -2.7058    0.0000 N   0  0  0  0  0  0  0  0  0  0  0  0
    2.8660   -2.9010    0.0000 N   0  0  0  0  0  0  0  0  0  0  0  0
    6.7619    0.6970    0.0000 C   0  0  0  0  0  0  0  0  0  0  0  0
    8.2619   -0.1690    0.0000 C   0  0  0  0  0  0  0  0  0  0  0  0
    6.2619   -0.1690    0.0000 C   0  0  0  0  0  0  0  0  0  0  0  0
    7.7619   -1.0350    0.0000 C   0  0  0  0  0  0  0  0  0  0  0  0
    8.2619    1.5630    0.0000 C   0  0  0  0  0  0  0  0  0  0  0  0
    6.2619   -1.9010    0.0000 C   0  0  0  0  0  0  0  0  0  0  0  0
    9.2619    1.5630    0.0000 C   0  0  0  0  0  0  0  0  0  0  0  0
    5.2619   -1.9010    0.0000 C   0  0  0  0  0  0  0  0  0  0  0  0
    4.6783   -1.0963    0.0000 C   0  0  0  0  0  0  0  0  0  0  0  0
    3.7320   -1.4010    0.0000 C   0  0  0  0  0  0  0  0  0  0  0  0
    3.7320   -2.4010    0.0000 C   0  0  0  0  0  0  0  0  0  0  0  0
   10.7619    2.4291    0.0000 C   0  0  0  0  0  0  0  0  0  0  0  0
    2.8660   -0.9010    0.0000 C   0  0  0  0  0  0  0  0  0  0  0  0
    2.0000   -1.4010    0.0000 C   0  0  0  0  0  0  0  0  0  0  0  0
    2.0000   -2.4010    0.0000 C   0  0  0  0  0  0  0  0  0  0  0  0
   11.2619    1.5630    0.0000 C   0  0  0  0  0  0  0  0  0  0  0  0
   11.2619    3.2951    0.0000 C   0  0  0  0  0  0  0  0  0  0  0  0
   12.2619    1.5630    0.0000 C   0  0  0  0  0  0  0  0  0  0  0  0
   12.2619    3.2951    0.0000 C   0  0  0  0  0  0  0  0  0  0  0  0
   12.7619    2.4291    0.0000 C   0  0  0  0  0  0  0  0  0  0  0  0
   14.2619    3.2951    0.0000 C   0  0  0  0  0  0  0  0  0  0  0  0
    6.8695    1.3076    0.0000 H   0  0  0  0  0  0  0  0  0  0  0  0
    6.1793    0.9091    0.0000 H   0  0  0  0  0  0  0  0  0  0  0  0
    8.7368   -0.5675    0.0000 H   0  0  0  0  0  0  0  0  0  0  0  0
    8.7368    0.2295    0.0000 H   0  0  0  0  0  0  0  0  0  0  0  0
    5.7869    0.2295    0.0000 H   0  0  0  0  0  0  0  0  0  0  0  0
    5.7869   -0.5675    0.0000 H   0  0  0  0  0  0  0  0  0  0  0  0
    7.6542   -1.6456    0.0000 H   0  0  0  0  0  0  0  0  0  0  0  0
    8.3445   -1.2471    0.0000 H   0  0  0  0  0  0  0  0  0  0  0  0
    8.3695    2.1736    0.0000 H   0  0  0  0  0  0  0  0  0  0  0  0
    7.6793    1.7751    0.0000 H   0  0  0  0  0  0  0  0  0  0  0  0
    9.1542    0.9525    0.0000 H   0  0  0  0  0  0  0  0  0  0  0  0
    9.8445    1.3510    0.0000 H   0  0  0  0  0  0  0  0  0  0  0  0
    4.8709   -0.5070    0.0000 H   0  0  0  0  0  0  0  0  0  0  0  0
    4.8709   -3.2951    0.0000 H   0  0  0  0  0  0  0  0  0  0  0  0
    2.8660   -0.2810    0.0000 H   0  0  0  0  0  0  0  0  0  0  0  0
    1.4631   -1.0910    0.0000 H   0  0  0  0  0  0  0  0  0  0  0  0
   10.9519    1.0261    0.0000 H   0  0  0  0  0  0  0  0  0  0  0  0
   10.9519    3.8320    0.0000 H   0  0  0  0  0  0  0  0  0  0  0  0
    1.4631   -2.7110    0.0000 H   0  0  0  0  0  0  0  0  0  0  0  0
   12.5719    1.0261    0.0000 H   0  0  0  0  0  0  0  0  0  0  0  0
   12.5719    3.8320    0.0000 H   0  0  0  0  0  0  0  0  0  0  0  0
   14.7988    2.9851    0.0000 H   0  0  0  0  0  0  0  0  0  0  0  0
   14.5719    3.8320    0.0000 H   0  0  0  0  0  0  0  0  0  0  0  0
   13.7249    3.6051    0.0000 H   0  0  0  0  0  0  0  0  0  0  0  0
  1 14  1  0  0  0  0
  1 19  1  0  0  0  0
  2 13  2  0  0  0  0
  3 27  1  0  0  0  0
  3 28  1  0  0  0  0
  4  8  1  0  0  0  0
  4  9  1  0  0  0  0
  4 12  1  0  0  0  0
  5 10  1  0  0  0  0
  5 11  1  0  0  0  0
  5 13  1  0  0  0  0
  6 15  1  0  0  0  0
  6 18  1  0  0  0  0
  6 42  1  0  0  0  0
  7 18  1  0  0  0  0
  7 22  2  0  0  0  0
  8 10  1  0  0  0  0
  8 29  1  0  0  0  0
  8 30  1  0  0  0  0
  9 11  1  0  0  0  0
  9 31  1  0  0  0  0
  9 32  1  0  0  0  0
 10 33  1  0  0  0  0
 10 34  1  0  0  0  0
 11 35  1  0  0  0  0
 11 36  1  0  0  0  0
 12 14  1  0  0  0  0
 12 37  1  0  0  0  0
 12 38  1  0  0  0  0
 13 15  1  0  0  0  0
 14 39  1  0  0  0  0
 14 40  1  0  0  0  0
 15 16  2  0  0  0  0
 16 17  1  0  0  0  0
 16 41  1  0  0  0  0
 17 18  2  0  0  0  0
 17 20  1  0  0  0  0
 19 23  2  0  0  0  0
 19 24  1  0  0  0  0
 20 21  2  0  0  0  0
 20 43  1  0  0  0  0
 21 22  1  0  0  0  0
 21 44  1  0  0  0  0
 22 47  1  0  0  0  0
 23 25  1  0  0  0  0
 23 45  1  0  0  0  0
 24 26  2  0  0  0  0
 24 46  1  0  0  0  0
 25 27  2  0  0  0  0
 25 48  1  0  0  0  0
 26 27  1  0  0  0  0
 26 49  1  0  0  0  0
 28 50  1  0  0  0  0
 28 51  1  0  0  0  0
 28 52  1  0  0  0  0
M  END
> <PUBCHEM_COMPOUND_CID>
71724989

> <PUBCHEM_COMPOUND_CANONICALIZED>
1

> <PUBCHEM_CACTVS_COMPLEXITY>
504

> <PUBCHEM_CACTVS_HBOND_ACCEPTOR>
5

> <PUBCHEM_CACTVS_HBOND_DONOR>
1

> <PUBCHEM_CACTVS_ROTATABLE_BOND>
6

> <PUBCHEM_CACTVS_SUBSKEYS>
AAADceB7sAAAAAAAAAAAAAAAAAAAAWAAAAA8WIAAAAAAAFgB/AAAHgAQAAAADAzhnwY/tt/JlACoAzd3dACCiCm3IqAJ2SG+bNiObvLEvbuXOSjs1hPY6afYyQCOAQAAAAAAAAACAAAAAAAAAAAAAAAAAA==

> <PUBCHEM_IUPAC_OPENEYE_NAME>
[4-[2-(4-methoxyphenoxy)ethyl]piperazin-1-yl]-(1H-pyrrolo[2,3-b]pyridin-2-yl)methanone

> <PUBCHEM_IUPAC_CAS_NAME>
[4-[2-(4-methoxyphenoxy)ethyl]-1-piperazinyl]-(1H-pyrrolo[2,3-b]pyridin-2-yl)methanone

> <PUBCHEM_IUPAC_NAME_MARKUP>
[4-[2-(4-methoxyphenoxy)ethyl]piperazin-1-yl]-(1<I>H</I>-pyrrolo[2,3-b]pyridin-2-yl)methanone

> <PUBCHEM_IUPAC_NAME>
[4-[2-(4-methoxyphenoxy)ethyl]piperazin-1-yl]-(1H-pyrrolo[2,3-b]pyridin-2-yl)methanone

> <PUBCHEM_IUPAC_SYSTEMATIC_NAME>
[4-[2-(4-methoxyphenoxy)ethyl]piperazin-1-yl]-(1H-pyrrolo[2,3-b]pyridin-2-yl)methanone

> <PUBCHEM_IUPAC_TRADITIONAL_NAME>
[4-[2-(4-methoxyphenoxy)ethyl]piperazino]-(1H-pyrrolo[2,3-b]pyridin-2-yl)methanone

> <PUBCHEM_IUPAC_INCHI>
InChI=1S/C21H24N4O3/c1-27-17-4-6-18(7-5-17)28-14-13-24-9-11-25(12-10-24)21(26)19-15-16-3-2-8-22-20(16)23-19/h2-8,15H,9-14H2,1H3,(H,22,23)

> <PUBCHEM_IUPAC_INCHIKEY>
KWKXRMCRBPRGNX-UHFFFAOYSA-N

> <PUBCHEM_XLOGP3_AA>
2.6

> <PUBCHEM_EXACT_MASS>
380.18484064

> <PUBCHEM_MOLECULAR_FORMULA>
C21H24N4O3

> <PUBCHEM_MOLECULAR_WEIGHT>
380.4

> <PUBCHEM_OPENEYE_CAN_SMILES>
COC1=CC=C(C=C1)OCCN2CCN(CC2)C(=O)C3=CC4=C(N3)N=CC=C4

> <PUBCHEM_OPENEYE_ISO_SMILES>
COC1=CC=C(C=C1)OCCN2CCN(CC2)C(=O)C3=CC4=C(N3)N=CC=C4

> <PUBCHEM_CACTVS_TPSA>
70.7

> <PUBCHEM_MONOISOTOPIC_WEIGHT>
380.18484064

> <PUBCHEM_TOTAL_CHARGE>
0

> <PUBCHEM_HEAVY_ATOM_COUNT>
28

> <PUBCHEM_ATOM_DEF_STEREO_COUNT>
0

> <PUBCHEM_ATOM_UDEF_STEREO_COUNT>
0

> <PUBCHEM_BOND_DEF_STEREO_COUNT>
0

> <PUBCHEM_BOND_UDEF_STEREO_COUNT>
0

> <PUBCHEM_ISOTOPIC_ATOM_COUNT>
0

> <PUBCHEM_COMPONENT_COUNT>
1

> <PUBCHEM_CACTVS_TAUTO_COUNT>
-1

> <PUBCHEM_COORDINATE_TYPE>
1
5
255

> <PUBCHEM_BONDANNOTATIONS>
15  16  8
16  17  8
17  18  8
17  20  8
19  23  8
19  24  8
20  21  8
21  22  8
23  25  8
24  26  8
25  27  8
26  27  8
6  15  8
6  18  8
7  18  8
7  22  8

$$$$
