23631173
  -OEChem-09292322252D

 66 70  0     1  0  0  0  0  0999 V2000
    8.7930   -1.1039    0.0000 S   0  0  0  0  0  0  0  0  0  0  0  0
   18.2291    1.9948    0.0000 O   0  0  0  0  0  0  0  0  0  0  0  0
    2.8090   -1.9660    0.0000 O   0  0  0  0  0  0  0  0  0  0  0  0
   11.7930    0.6281    0.0000 N   0  0  3  0  0  0  0  0  0  0  0  0
   17.5628    1.2491    0.0000 N   0  0  0  0  0  0  0  0  0  0  0  0
    7.2052   -1.9129    0.0000 N   0  0  0  0  0  0  0  0  0  0  0  0
    7.2052   -0.2949    0.0000 N   0  0  0  0  0  0  0  0  0  0  0  0
    6.2541   -0.6039    0.0000 N   0  0  0  0  0  0  0  0  0  0  0  0
   12.2269    1.5291    0.0000 C   0  0  0  0  0  0  0  0  0  0  0  0
   12.2269   -0.2728    0.0000 C   0  0  0  0  0  0  0  0  0  0  0  0
   13.2018    1.7516    0.0000 C   0  0  0  0  0  0  0  0  0  0  0  0
   13.2018   -0.4953    0.0000 C   0  0  0  0  0  0  0  0  0  0  0  0
   13.9836    1.1281    0.0000 C   0  0  0  0  0  0  0  0  0  0  0  0
   13.9836    0.1281    0.0000 C   0  0  0  0  0  0  0  0  0  0  0  0
   10.7930    0.6281    0.0000 C   0  0  0  0  0  0  0  0  0  0  0  0
   10.2930   -0.2379    0.0000 C   0  0  0  0  0  0  0  0  0  0  0  0
   14.8776    1.6628    0.0000 C   0  0  0  0  0  0  0  0  0  0  0  0
   14.8776   -0.4065    0.0000 C   0  0  0  0  0  0  0  0  0  0  0  0
   15.7836    1.1490    0.0000 C   0  0  0  0  0  0  0  0  0  0  0  0
    9.2930   -0.2379    0.0000 C   0  0  0  0  0  0  0  0  0  0  0  0
   15.7836    0.1073    0.0000 C   0  0  0  0  0  0  0  0  0  0  0  0
   16.6477    1.6523    0.0000 C   0  0  0  0  0  0  0  0  0  0  0  0
   16.7484    2.6472    0.0000 C   0  0  0  0  0  0  0  0  0  0  0  0
    7.7930   -1.1039    0.0000 C   0  0  0  0  0  0  0  0  0  0  0  0
   17.7258    2.8589    0.0000 C   0  0  0  0  0  0  0  0  0  0  0  0
    6.2541   -1.6039    0.0000 C   0  0  0  0  0  0  0  0  0  0  0  0
    7.5142   -2.8640    0.0000 C   0  0  0  0  0  0  0  0  0  0  0  0
    5.4451   -2.1917    0.0000 C   0  0  0  0  0  0  0  0  0  0  0  0
   18.1290    3.7740    0.0000 C   0  0  0  0  0  0  0  0  0  0  0  0
    4.5316   -1.7850    0.0000 C   0  0  0  0  0  0  0  0  0  0  0  0
    5.5496   -3.1862    0.0000 C   0  0  0  0  0  0  0  0  0  0  0  0
    3.7226   -2.3727    0.0000 C   0  0  0  0  0  0  0  0  0  0  0  0
    4.7406   -3.7740    0.0000 C   0  0  0  0  0  0  0  0  0  0  0  0
    3.8271   -3.3673    0.0000 C   0  0  0  0  0  0  0  0  0  0  0  0
    2.0000   -2.5538    0.0000 C   0  0  0  0  0  0  0  0  0  0  0  0
   12.2269    2.1491    0.0000 H   0  0  0  0  0  0  0  0  0  0  0  0
   11.6224    1.6671    0.0000 H   0  0  0  0  0  0  0  0  0  0  0  0
   11.6224   -0.4108    0.0000 H   0  0  0  0  0  0  0  0  0  0  0  0
   12.2269   -0.8928    0.0000 H   0  0  0  0  0  0  0  0  0  0  0  0
   13.6865    2.1382    0.0000 H   0  0  0  0  0  0  0  0  0  0  0  0
   12.9328    2.3102    0.0000 H   0  0  0  0  0  0  0  0  0  0  0  0
   12.9328   -1.0540    0.0000 H   0  0  0  0  0  0  0  0  0  0  0  0
   13.6865   -0.8819    0.0000 H   0  0  0  0  0  0  0  0  0  0  0  0
   10.9006    1.2387    0.0000 H   0  0  0  0  0  0  0  0  0  0  0  0
   10.2104    0.8402    0.0000 H   0  0  0  0  0  0  0  0  0  0  0  0
   10.1853   -0.8485    0.0000 H   0  0  0  0  0  0  0  0  0  0  0  0
   10.8756   -0.4499    0.0000 H   0  0  0  0  0  0  0  0  0  0  0  0
   14.8704    2.2828    0.0000 H   0  0  0  0  0  0  0  0  0  0  0  0
   14.8704   -1.0265    0.0000 H   0  0  0  0  0  0  0  0  0  0  0  0
    9.4006    0.3727    0.0000 H   0  0  0  0  0  0  0  0  0  0  0  0
    8.7104   -0.0258    0.0000 H   0  0  0  0  0  0  0  0  0  0  0  0
   16.3194   -0.2047    0.0000 H   0  0  0  0  0  0  0  0  0  0  0  0
   16.2861    3.0603    0.0000 H   0  0  0  0  0  0  0  0  0  0  0  0
    6.9246   -3.0556    0.0000 H   0  0  0  0  0  0  0  0  0  0  0  0
    7.7058   -3.4536    0.0000 H   0  0  0  0  0  0  0  0  0  0  0  0
    8.1039   -2.6724    0.0000 H   0  0  0  0  0  0  0  0  0  0  0  0
   18.6963    3.5240    0.0000 H   0  0  0  0  0  0  0  0  0  0  0  0
   18.3790    4.3414    0.0000 H   0  0  0  0  0  0  0  0  0  0  0  0
   17.5616    4.0240    0.0000 H   0  0  0  0  0  0  0  0  0  0  0  0
    4.4668   -1.1684    0.0000 H   0  0  0  0  0  0  0  0  0  0  0  0
    6.1161   -3.4384    0.0000 H   0  0  0  0  0  0  0  0  0  0  0  0
    4.8054   -4.3906    0.0000 H   0  0  0  0  0  0  0  0  0  0  0  0
    3.3255   -3.7317    0.0000 H   0  0  0  0  0  0  0  0  0  0  0  0
    1.6356   -2.0522    0.0000 H   0  0  0  0  0  0  0  0  0  0  0  0
    1.4984   -2.9182    0.0000 H   0  0  0  0  0  0  0  0  0  0  0  0
    2.3644   -3.0554    0.0000 H   0  0  0  0  0  0  0  0  0  0  0  0
  1 20  1  0  0  0  0
  1 24  1  0  0  0  0
  2  5  1  0  0  0  0
  2 25  1  0  0  0  0
  3 32  1  0  0  0  0
  3 35  1  0  0  0  0
  4  9  1  0  0  0  0
  4 10  1  0  0  0  0
  4 15  1  0  0  0  0
  5 22  2  0  0  0  0
  6 24  1  0  0  0  0
  6 26  1  0  0  0  0
  6 27  1  0  0  0  0
  7  8  1  0  0  0  0
  7 24  2  0  0  0  0
  8 26  2  0  0  0  0
  9 11  1  0  0  0  0
  9 36  1  0  0  0  0
  9 37  1  0  0  0  0
 10 12  1  0  0  0  0
 10 38  1  0  0  0  0
 10 39  1  0  0  0  0
 11 13  1  0  0  0  0
 11 40  1  0  0  0  0
 11 41  1  0  0  0  0
 12 14  1  0  0  0  0
 12 42  1  0  0  0  0
 12 43  1  0  0  0  0
 13 14  2  0  0  0  0
 13 17  1  0  0  0  0
 14 18  1  0  0  0  0
 15 16  1  0  0  0  0
 15 44  1  0  0  0  0
 15 45  1  0  0  0  0
 16 20  1  0  0  0  0
 16 46  1  0  0  0  0
 16 47  1  0  0  0  0
 17 19  2  0  0  0  0
 17 48  1  0  0  0  0
 18 21  2  0  0  0  0
 18 49  1  0  0  0  0
 19 21  1  0  0  0  0
 19 22  1  0  0  0  0
 20 50  1  0  0  0  0
 20 51  1  0  0  0  0
 21 52  1  0  0  0  0
 22 23  1  0  0  0  0
 23 25  2  0  0  0  0
 23 53  1  0  0  0  0
 25 29  1  0  0  0  0
 26 28  1  0  0  0  0
 27 54  1  0  0  0  0
 27 55  1  0  0  0  0
 27 56  1  0  0  0  0
 28 30  2  0  0  0  0
 28 31  1  0  0  0  0
 29 57  1  0  0  0  0
 29 58  1  0  0  0  0
 29 59  1  0  0  0  0
 30 32  1  0  0  0  0
 30 60  1  0  0  0  0
 31 33  2  0  0  0  0
 31 61  1  0  0  0  0
 32 34  2  0  0  0  0
 33 34  1  0  0  0  0
 33 62  1  0  0  0  0
 34 63  1  0  0  0  0
 35 64  1  0  0  0  0
 35 65  1  0  0  0  0
 35 66  1  0  0  0  0
M  END
> <PUBCHEM_COMPOUND_CID>
23631173

> <PUBCHEM_COMPOUND_CANONICALIZED>
1

> <PUBCHEM_CACTVS_COMPLEXITY>
659

> <PUBCHEM_CACTVS_HBOND_ACCEPTOR>
7

> <PUBCHEM_CACTVS_HBOND_DONOR>
0

> <PUBCHEM_CACTVS_ROTATABLE_BOND>
8

> <PUBCHEM_CACTVS_SUBSKEYS>
AAADceB7sABAAAAAAAAAAAAAAAAAAWLAAAAwYAAABYAAAAAB9AAAHgQMAAAADAzF3wazlpccFAirA6ZyZgCS2AtkIrA92CE+bNqMLrqkuZuEMahmyBuI6Ue4yPCOwAADAAAQAACAAAYAACAAAAAAAAAAAA==

> <PUBCHEM_IUPAC_OPENEYE_NAME>
3-[3-[3-[[5-(3-methoxyphenyl)-4-methyl-1,2,4-triazol-3-yl]sulfanyl]propyl]-1,2,4,5-tetrahydro-3-benzazepin-7-yl]-5-methyl-isoxazole

> <PUBCHEM_IUPAC_CAS_NAME>
3-[3-[3-[[5-(3-methoxyphenyl)-4-methyl-1,2,4-triazol-3-yl]thio]propyl]-1,2,4,5-tetrahydro-3-benzazepin-7-yl]-5-methylisoxazole

> <PUBCHEM_IUPAC_NAME_MARKUP>
3-[3-[3-[[5-(3-methoxyphenyl)-4-methyl-1,2,4-triazol-3-yl]sulfanyl]propyl]-1,2,4,5-tetrahydro-3-benzazepin-7-yl]-5-methyl-1,2-oxazole

> <PUBCHEM_IUPAC_NAME>
3-[3-[3-[[5-(3-methoxyphenyl)-4-methyl-1,2,4-triazol-3-yl]sulfanyl]propyl]-1,2,4,5-tetrahydro-3-benzazepin-7-yl]-5-methyl-1,2-oxazole

> <PUBCHEM_IUPAC_SYSTEMATIC_NAME>
3-[3-[3-[[5-(3-methoxyphenyl)-4-methyl-1,2,4-triazol-3-yl]sulfanyl]propyl]-1,2,4,5-tetrahydro-3-benzazepin-7-yl]-5-methyl-1,2-oxazole

> <PUBCHEM_IUPAC_TRADITIONAL_NAME>
3-[3-[3-[[5-(3-methoxyphenyl)-4-methyl-1,2,4-triazol-3-yl]thio]propyl]-1,2,4,5-tetrahydro-3-benzazepin-7-yl]-5-methyl-isoxazole

> <PUBCHEM_IUPAC_INCHI>
InChI=1S/C27H31N5O2S/c1-19-16-25(30-34-19)22-9-8-20-10-13-32(14-11-21(20)17-22)12-5-15-35-27-29-28-26(31(27)2)23-6-4-7-24(18-23)33-3/h4,6-9,16-18H,5,10-15H2,1-3H3

> <PUBCHEM_IUPAC_INCHIKEY>
CNYTYKJCKVUZFG-UHFFFAOYSA-N

> <PUBCHEM_XLOGP3_AA>
4.8

> <PUBCHEM_EXACT_MASS>
489.21984642

> <PUBCHEM_MOLECULAR_FORMULA>
C27H31N5O2S

> <PUBCHEM_MOLECULAR_WEIGHT>
489.6

> <PUBCHEM_OPENEYE_CAN_SMILES>
CC1=CC(=NO1)C2=CC3=C(CCN(CC3)CCCSC4=NN=C(N4C)C5=CC(=CC=C5)OC)C=C2

> <PUBCHEM_OPENEYE_ISO_SMILES>
CC1=CC(=NO1)C2=CC3=C(CCN(CC3)CCCSC4=NN=C(N4C)C5=CC(=CC=C5)OC)C=C2

> <PUBCHEM_CACTVS_TPSA>
94.5

> <PUBCHEM_MONOISOTOPIC_WEIGHT>
489.21984642

> <PUBCHEM_TOTAL_CHARGE>
0

> <PUBCHEM_HEAVY_ATOM_COUNT>
35

> <PUBCHEM_ATOM_DEF_STEREO_COUNT>
0

> <PUBCHEM_ATOM_UDEF_STEREO_COUNT>
0

> <PUBCHEM_BOND_DEF_STEREO_COUNT>
0

> <PUBCHEM_BOND_UDEF_STEREO_COUNT>
0

> <PUBCHEM_ISOTOPIC_ATOM_COUNT>
0

> <PUBCHEM_COMPONENT_COUNT>
1

> <PUBCHEM_CACTVS_TAUTO_COUNT>
-1

> <PUBCHEM_COORDINATE_TYPE>
1
5
255

> <PUBCHEM_BONDANNOTATIONS>
13  14  8
13  17  8
14  18  8
17  19  8
18  21  8
19  21  8
2  25  8
2  5  8
22  23  8
23  25  8
28  30  8
28  31  8
30  32  8
31  33  8
32  34  8
33  34  8
5  22  8
6  24  8
6  26  8
7  24  8
7  8  8
8  26  8

$$$$
