122180627
  -OEChem-09292322362D

 59 63  0     1  0  0  0  0  0999 V2000
    4.1701   -0.4232    0.0000 Cl  0  0  0  0  0  0  0  0  0  0  0  0
    2.1810   -0.6323    0.0000 Cl  0  0  0  0  0  0  0  0  0  0  0  0
    8.1482   -0.0051    0.0000 O   0  0  0  0  0  0  0  0  0  0  0  0
    6.9726    1.6130    0.0000 N   0  0  0  0  0  0  0  0  0  0  0  0
    4.9836    1.4039    0.0000 N   0  0  0  0  0  0  0  0  0  0  0  0
   11.1317    0.3085    0.0000 N   0  0  0  0  0  0  0  0  0  0  0  0
   11.6317    1.1745    0.0000 N   0  0  0  0  0  0  0  0  0  0  0  0
   12.6099    0.9666    0.0000 N   0  0  0  0  0  0  0  0  0  0  0  0
   16.2587   -1.8326    0.0000 N   0  0  0  0  0  0  0  0  0  0  0  0
    6.5659    0.6994    0.0000 C   0  0  0  0  0  0  0  0  0  0  0  0
    6.3848    2.4220    0.0000 C   0  0  0  0  0  0  0  0  0  0  0  0
    7.9671    1.7175    0.0000 C   0  0  0  0  0  0  0  0  0  0  0  0
    5.5714    0.5949    0.0000 C   0  0  0  0  0  0  0  0  0  0  0  0
    5.3903    2.3174    0.0000 C   0  0  0  0  0  0  0  0  0  0  0  0
    8.5549    0.9085    0.0000 C   0  0  3  0  0  0  0  0  0  0  0  0
    9.5494    1.0130    0.0000 C   0  0  0  0  0  0  0  0  0  0  0  0
    3.9890    1.2994    0.0000 C   0  0  0  0  0  0  0  0  0  0  0  0
   10.1372    0.2040    0.0000 C   0  0  0  0  0  0  0  0  0  0  0  0
    3.5823    0.3858    0.0000 C   0  0  0  0  0  0  0  0  0  0  0  0
    3.4013    2.1084    0.0000 C   0  0  0  0  0  0  0  0  0  0  0  0
   11.8009   -0.4346    0.0000 C   0  0  0  0  0  0  0  0  0  0  0  0
    2.5878    0.2813    0.0000 C   0  0  0  0  0  0  0  0  0  0  0  0
    2.4067    2.0038    0.0000 C   0  0  0  0  0  0  0  0  0  0  0  0
   12.7144   -0.0279    0.0000 C   0  0  0  0  0  0  0  0  0  0  0  0
    2.0000    1.0903    0.0000 C   0  0  0  0  0  0  0  0  0  0  0  0
   13.5804   -0.5279    0.0000 C   0  0  0  0  0  0  0  0  0  0  0  0
   14.4465   -0.0279    0.0000 C   0  0  0  0  0  0  0  0  0  0  0  0
   15.3125   -0.5279    0.0000 C   0  0  0  0  0  0  0  0  0  0  0  0
   15.3125   -1.5279    0.0000 C   0  0  0  0  0  0  0  0  0  0  0  0
   13.5804   -1.5279    0.0000 C   0  0  0  0  0  0  0  0  0  0  0  0
   14.4465   -2.0279    0.0000 C   0  0  0  0  0  0  0  0  0  0  0  0
   16.2587   -0.2232    0.0000 C   0  0  0  0  0  0  0  0  0  0  0  0
   16.8423   -1.0279    0.0000 C   0  0  0  0  0  0  0  0  0  0  0  0
    6.5226    0.0809    0.0000 H   0  0  0  0  0  0  0  0  0  0  0  0
    7.1675    0.5494    0.0000 H   0  0  0  0  0  0  0  0  0  0  0  0
    6.9421    2.6938    0.0000 H   0  0  0  0  0  0  0  0  0  0  0  0
    6.2139    3.0180    0.0000 H   0  0  0  0  0  0  0  0  0  0  0  0
    8.5244    1.9893    0.0000 H   0  0  0  0  0  0  0  0  0  0  0  0
    7.7962    2.3135    0.0000 H   0  0  0  0  0  0  0  0  0  0  0  0
    5.0141    0.3231    0.0000 H   0  0  0  0  0  0  0  0  0  0  0  0
    5.7422   -0.0011    0.0000 H   0  0  0  0  0  0  0  0  0  0  0  0
    5.4336    2.9359    0.0000 H   0  0  0  0  0  0  0  0  0  0  0  0
    4.7887    2.4674    0.0000 H   0  0  0  0  0  0  0  0  0  0  0  0
    7.9383    0.8437    0.0000 H   0  0  0  0  0  0  0  0  0  0  0  0
   10.1067    1.2848    0.0000 H   0  0  0  0  0  0  0  0  0  0  0  0
    9.3785    1.6090    0.0000 H   0  0  0  0  0  0  0  0  0  0  0  0
    9.5800   -0.0678    0.0000 H   0  0  0  0  0  0  0  0  0  0  0  0
   10.3081   -0.3920    0.0000 H   0  0  0  0  0  0  0  0  0  0  0  0
    8.5126   -0.5067    0.0000 H   0  0  0  0  0  0  0  0  0  0  0  0
    3.6534    2.6748    0.0000 H   0  0  0  0  0  0  0  0  0  0  0  0
   11.6720   -1.0411    0.0000 H   0  0  0  0  0  0  0  0  0  0  0  0
    2.0423    2.5054    0.0000 H   0  0  0  0  0  0  0  0  0  0  0  0
    1.3834    1.0255    0.0000 H   0  0  0  0  0  0  0  0  0  0  0  0
   14.4465    0.5921    0.0000 H   0  0  0  0  0  0  0  0  0  0  0  0
   13.0435   -1.8379    0.0000 H   0  0  0  0  0  0  0  0  0  0  0  0
   14.4465   -2.6479    0.0000 H   0  0  0  0  0  0  0  0  0  0  0  0
   16.4513    0.3661    0.0000 H   0  0  0  0  0  0  0  0  0  0  0  0
   16.4513   -2.4220    0.0000 H   0  0  0  0  0  0  0  0  0  0  0  0
   17.4623   -1.0279    0.0000 H   0  0  0  0  0  0  0  0  0  0  0  0
  1 19  1  0  0  0  0
  2 22  1  0  0  0  0
  3 15  1  0  0  0  0
  3 49  1  0  0  0  0
  4 10  1  0  0  0  0
  4 11  1  0  0  0  0
  4 12  1  0  0  0  0
  5 13  1  0  0  0  0
  5 14  1  0  0  0  0
  5 17  1  0  0  0  0
  6  7  1  0  0  0  0
  6 18  1  0  0  0  0
  6 21  1  0  0  0  0
  7  8  2  0  0  0  0
  8 24  1  0  0  0  0
  9 29  1  0  0  0  0
  9 33  1  0  0  0  0
  9 58  1  0  0  0  0
 10 13  1  0  0  0  0
 10 34  1  0  0  0  0
 10 35  1  0  0  0  0
 11 14  1  0  0  0  0
 11 36  1  0  0  0  0
 11 37  1  0  0  0  0
 12 15  1  0  0  0  0
 12 38  1  0  0  0  0
 12 39  1  0  0  0  0
 13 40  1  0  0  0  0
 13 41  1  0  0  0  0
 14 42  1  0  0  0  0
 14 43  1  0  0  0  0
 15 16  1  0  0  0  0
 15 44  1  0  0  0  0
 16 18  1  0  0  0  0
 16 45  1  0  0  0  0
 16 46  1  0  0  0  0
 17 19  2  0  0  0  0
 17 20  1  0  0  0  0
 18 47  1  0  0  0  0
 18 48  1  0  0  0  0
 19 22  1  0  0  0  0
 20 23  2  0  0  0  0
 20 50  1  0  0  0  0
 21 24  2  0  0  0  0
 21 51  1  0  0  0  0
 22 25  2  0  0  0  0
 23 25  1  0  0  0  0
 23 52  1  0  0  0  0
 24 26  1  0  0  0  0
 25 53  1  0  0  0  0
 26 27  2  0  0  0  0
 26 30  1  0  0  0  0
 27 28  1  0  0  0  0
 27 54  1  0  0  0  0
 28 29  2  0  0  0  0
 28 32  1  0  0  0  0
 29 31  1  0  0  0  0
 30 31  2  0  0  0  0
 30 55  1  0  0  0  0
 31 56  1  0  0  0  0
 32 33  2  0  0  0  0
 32 57  1  0  0  0  0
 33 59  1  0  0  0  0
M  END
> <PUBCHEM_COMPOUND_CID>
122180627

> <PUBCHEM_COMPOUND_CANONICALIZED>
1

> <PUBCHEM_CACTVS_COMPLEXITY>
624

> <PUBCHEM_CACTVS_HBOND_ACCEPTOR>
5

> <PUBCHEM_CACTVS_HBOND_DONOR>
2

> <PUBCHEM_CACTVS_ROTATABLE_BOND>
7

> <PUBCHEM_CACTVS_SUBSKEYS>
AAADceB7oAAGAAAAAAAAAAAAAAAAAWLAAAA8YIAAAAAAAFgB/AAAHgIYCAAADB7hniY8wPPJkgCiAzRnRACChCQxlyAY2+A4dpgKcOLBk5HUYAhikADYyAcQgMAOCAACAAICABQQAAQABAQAKAAAAAAAAA==

> <PUBCHEM_IUPAC_OPENEYE_NAME>
1-[4-(2,3-dichlorophenyl)piperazin-1-yl]-4-[4-(1H-indol-5-yl)triazol-1-yl]butan-2-ol

> <PUBCHEM_IUPAC_CAS_NAME>
1-[4-(2,3-dichlorophenyl)-1-piperazinyl]-4-[4-(1H-indol-5-yl)-1-triazolyl]-2-butanol

> <PUBCHEM_IUPAC_NAME_MARKUP>
1-[4-(2,3-dichlorophenyl)piperazin-1-yl]-4-[4-(1<I>H</I>-indol-5-yl)triazol-1-yl]butan-2-ol

> <PUBCHEM_IUPAC_NAME>
1-[4-(2,3-dichlorophenyl)piperazin-1-yl]-4-[4-(1H-indol-5-yl)triazol-1-yl]butan-2-ol

> <PUBCHEM_IUPAC_SYSTEMATIC_NAME>
1-[4-[2,3-bis(chloranyl)phenyl]piperazin-1-yl]-4-[4-(1H-indol-5-yl)-1,2,3-triazol-1-yl]butan-2-ol

> <PUBCHEM_IUPAC_TRADITIONAL_NAME>
1-[4-(2,3-dichlorophenyl)piperazino]-4-[4-(1H-indol-5-yl)triazol-1-yl]butan-2-ol

> <PUBCHEM_IUPAC_INCHI>
InChI=1S/C24H26Cl2N6O/c25-20-2-1-3-23(24(20)26)31-12-10-30(11-13-31)15-19(33)7-9-32-16-22(28-29-32)17-4-5-21-18(14-17)6-8-27-21/h1-6,8,14,16,19,27,33H,7,9-13,15H2

> <PUBCHEM_IUPAC_INCHIKEY>
HRFJJRGWVMXDND-UHFFFAOYSA-N

> <PUBCHEM_XLOGP3_AA>
4

> <PUBCHEM_EXACT_MASS>
484.1545149

> <PUBCHEM_MOLECULAR_FORMULA>
C24H26Cl2N6O

> <PUBCHEM_MOLECULAR_WEIGHT>
485.4

> <PUBCHEM_OPENEYE_CAN_SMILES>
C1CN(CCN1CC(CCN2C=C(N=N2)C3=CC4=C(C=C3)NC=C4)O)C5=C(C(=CC=C5)Cl)Cl

> <PUBCHEM_OPENEYE_ISO_SMILES>
C1CN(CCN1CC(CCN2C=C(N=N2)C3=CC4=C(C=C3)NC=C4)O)C5=C(C(=CC=C5)Cl)Cl

> <PUBCHEM_CACTVS_TPSA>
73.2

> <PUBCHEM_MONOISOTOPIC_WEIGHT>
484.1545149

> <PUBCHEM_TOTAL_CHARGE>
0

> <PUBCHEM_HEAVY_ATOM_COUNT>
33

> <PUBCHEM_ATOM_DEF_STEREO_COUNT>
0

> <PUBCHEM_ATOM_UDEF_STEREO_COUNT>
1

> <PUBCHEM_BOND_DEF_STEREO_COUNT>
0

> <PUBCHEM_BOND_UDEF_STEREO_COUNT>
0

> <PUBCHEM_ISOTOPIC_ATOM_COUNT>
0

> <PUBCHEM_COMPONENT_COUNT>
1

> <PUBCHEM_CACTVS_TAUTO_COUNT>
-1

> <PUBCHEM_COORDINATE_TYPE>
1
5
255

> <PUBCHEM_BONDANNOTATIONS>
17  19  8
17  20  8
19  22  8
20  23  8
21  24  8
22  25  8
23  25  8
26  27  8
26  30  8
27  28  8
28  29  8
28  32  8
29  31  8
15  3  3
30  31  8
32  33  8
6  21  8
6  7  8
7  8  8
8  24  8
9  29  8
9  33  8

$$$$
