155537074
  -OEChem-09292322402D

 49 52  0     0  0  0  0  0  0999 V2000
    2.8660   -1.4722    0.0000 O   0  0  0  0  0  0  0  0  0  0  0  0
    8.5189    0.9040    0.0000 O   0  0  0  0  0  0  0  0  0  0  0  0
   11.7607    4.2495    0.0000 O   0  0  0  0  0  0  0  0  0  0  0  0
    4.6783   -4.2769    0.0000 N   0  0  0  0  0  0  0  0  0  0  0  0
    6.2781   -0.5602    0.0000 N   0  0  0  0  0  0  0  0  0  0  0  0
    4.6783   -2.6674    0.0000 C   0  0  0  0  0  0  0  0  0  0  0  0
    4.9889   -1.7169    0.0000 C   0  0  0  0  0  0  0  0  0  0  0  0
    3.7320   -2.9722    0.0000 C   0  0  0  0  0  0  0  0  0  0  0  0
    5.9674   -1.5107    0.0000 C   0  0  0  0  0  0  0  0  0  0  0  0
    3.7320   -3.9722    0.0000 C   0  0  0  0  0  0  0  0  0  0  0  0
    5.2619   -3.4722    0.0000 C   0  0  0  0  0  0  0  0  0  0  0  0
    2.8660   -2.4722    0.0000 C   0  0  0  0  0  0  0  0  0  0  0  0
    7.2566   -0.3539    0.0000 C   0  0  0  0  0  0  0  0  0  0  0  0
    2.8660   -4.4722    0.0000 C   0  0  0  0  0  0  0  0  0  0  0  0
    7.5673    0.5966    0.0000 C   0  0  0  0  0  0  0  0  0  0  0  0
    2.0000   -2.9722    0.0000 C   0  0  0  0  0  0  0  0  0  0  0  0
    2.0000   -3.9722    0.0000 C   0  0  0  0  0  0  0  0  0  0  0  0
    8.5206    1.9040    0.0000 C   0  0  0  0  0  0  0  0  0  0  0  0
    6.9809    1.4066    0.0000 C   0  0  0  0  0  0  0  0  0  0  0  0
    7.5701    2.2146    0.0000 C   0  0  0  0  0  0  0  0  0  0  0  0
    9.3306    2.4903    0.0000 C   0  0  0  0  0  0  0  0  0  0  0  0
    2.0000   -0.9721    0.0000 C   0  0  0  0  0  0  0  0  0  0  0  0
   10.2435    2.0820    0.0000 C   0  0  0  0  0  0  0  0  0  0  0  0
    9.2278    3.4850    0.0000 C   0  0  0  0  0  0  0  0  0  0  0  0
   11.0535    2.6684    0.0000 C   0  0  0  0  0  0  0  0  0  0  0  0
   10.0378    4.0714    0.0000 C   0  0  0  0  0  0  0  0  0  0  0  0
   10.9507    3.6631    0.0000 C   0  0  0  0  0  0  0  0  0  0  0  0
    4.9684   -1.0972    0.0000 H   0  0  0  0  0  0  0  0  0  0  0  0
    4.3751   -1.6296    0.0000 H   0  0  0  0  0  0  0  0  0  0  0  0
    5.9880   -2.1303    0.0000 H   0  0  0  0  0  0  0  0  0  0  0  0
    6.5812   -1.5980    0.0000 H   0  0  0  0  0  0  0  0  0  0  0  0
    5.8819   -3.4722    0.0000 H   0  0  0  0  0  0  0  0  0  0  0  0
    4.8709   -4.8662    0.0000 H   0  0  0  0  0  0  0  0  0  0  0  0
    5.8640   -0.0987    0.0000 H   0  0  0  0  0  0  0  0  0  0  0  0
    7.2772   -0.9736    0.0000 H   0  0  0  0  0  0  0  0  0  0  0  0
    7.8704   -0.4413    0.0000 H   0  0  0  0  0  0  0  0  0  0  0  0
    2.8660   -5.0922    0.0000 H   0  0  0  0  0  0  0  0  0  0  0  0
    1.4631   -2.6622    0.0000 H   0  0  0  0  0  0  0  0  0  0  0  0
    1.4631   -4.2822    0.0000 H   0  0  0  0  0  0  0  0  0  0  0  0
    6.3609    1.4077    0.0000 H   0  0  0  0  0  0  0  0  0  0  0  0
    7.3795    2.8046    0.0000 H   0  0  0  0  0  0  0  0  0  0  0  0
   10.3072    1.4653    0.0000 H   0  0  0  0  0  0  0  0  0  0  0  0
    8.6618    3.7382    0.0000 H   0  0  0  0  0  0  0  0  0  0  0  0
    2.3100   -0.4352    0.0000 H   0  0  0  0  0  0  0  0  0  0  0  0
    1.4631   -0.6621    0.0000 H   0  0  0  0  0  0  0  0  0  0  0  0
    1.6900   -1.5091    0.0000 H   0  0  0  0  0  0  0  0  0  0  0  0
   11.6195    2.4152    0.0000 H   0  0  0  0  0  0  0  0  0  0  0  0
    9.9741    4.6881    0.0000 H   0  0  0  0  0  0  0  0  0  0  0  0
   11.6970    4.8662    0.0000 H   0  0  0  0  0  0  0  0  0  0  0  0
  1 12  1  0  0  0  0
  1 22  1  0  0  0  0
  2 15  1  0  0  0  0
  2 18  1  0  0  0  0
  3 27  1  0  0  0  0
  3 49  1  0  0  0  0
  4 10  1  0  0  0  0
  4 11  1  0  0  0  0
  4 33  1  0  0  0  0
  5  9  1  0  0  0  0
  5 13  1  0  0  0  0
  5 34  1  0  0  0  0
  6  7  1  0  0  0  0
  6  8  1  0  0  0  0
  6 11  2  0  0  0  0
  7  9  1  0  0  0  0
  7 28  1  0  0  0  0
  7 29  1  0  0  0  0
  8 10  2  0  0  0  0
  8 12  1  0  0  0  0
  9 30  1  0  0  0  0
  9 31  1  0  0  0  0
 10 14  1  0  0  0  0
 11 32  1  0  0  0  0
 12 16  2  0  0  0  0
 13 15  1  0  0  0  0
 13 35  1  0  0  0  0
 13 36  1  0  0  0  0
 14 17  2  0  0  0  0
 14 37  1  0  0  0  0
 15 19  2  0  0  0  0
 16 17  1  0  0  0  0
 16 38  1  0  0  0  0
 17 39  1  0  0  0  0
 18 20  2  0  0  0  0
 18 21  1  0  0  0  0
 19 20  1  0  0  0  0
 19 40  1  0  0  0  0
 20 41  1  0  0  0  0
 21 23  2  0  0  0  0
 21 24  1  0  0  0  0
 22 44  1  0  0  0  0
 22 45  1  0  0  0  0
 22 46  1  0  0  0  0
 23 25  1  0  0  0  0
 23 42  1  0  0  0  0
 24 26  2  0  0  0  0
 24 43  1  0  0  0  0
 25 27  2  0  0  0  0
 25 47  1  0  0  0  0
 26 27  1  0  0  0  0
 26 48  1  0  0  0  0
M  END
> <PUBCHEM_COMPOUND_CID>
155537074

> <PUBCHEM_COMPOUND_CANONICALIZED>
1

> <PUBCHEM_CACTVS_COMPLEXITY>
455

> <PUBCHEM_CACTVS_HBOND_ACCEPTOR>
4

> <PUBCHEM_CACTVS_HBOND_DONOR>
3

> <PUBCHEM_CACTVS_ROTATABLE_BOND>
7

> <PUBCHEM_CACTVS_SUBSKEYS>
AAADceB7MAAAAAAAAAAAAAAAAAAAAWJAAAAwYAAAAAAAAFgB/AAAHgAQCAAADAzBngY+xvLJlkCoA7R3RACCiCA1IiAI2aG+bNgOJvLGtbuHeSjm0BnY+Ye4/f/OoAAAAgAKAABAAAAEABQAAAAAAAAAAA==

> <PUBCHEM_IUPAC_OPENEYE_NAME>
4-[5-[[2-(4-methoxy-1H-indol-3-yl)ethylamino]methyl]-2-furyl]phenol

> <PUBCHEM_IUPAC_CAS_NAME>
4-[5-[[2-(4-methoxy-1H-indol-3-yl)ethylamino]methyl]-2-furanyl]phenol

> <PUBCHEM_IUPAC_NAME_MARKUP>
4-[5-[[2-(4-methoxy-1<I>H</I>-indol-3-yl)ethylamino]methyl]furan-2-yl]phenol

> <PUBCHEM_IUPAC_NAME>
4-[5-[[2-(4-methoxy-1H-indol-3-yl)ethylamino]methyl]furan-2-yl]phenol

> <PUBCHEM_IUPAC_SYSTEMATIC_NAME>
4-[5-[[2-(4-methoxy-1H-indol-3-yl)ethylamino]methyl]furan-2-yl]phenol

> <PUBCHEM_IUPAC_TRADITIONAL_NAME>
4-[5-[[2-(4-methoxy-1H-indol-3-yl)ethylamino]methyl]-2-furyl]phenol

> <PUBCHEM_IUPAC_INCHI>
InChI=1S/C22H22N2O3/c1-26-21-4-2-3-19-22(21)16(13-24-19)11-12-23-14-18-9-10-20(27-18)15-5-7-17(25)8-6-15/h2-10,13,23-25H,11-12,14H2,1H3

> <PUBCHEM_IUPAC_INCHIKEY>
CZLSEABFCZWLAR-UHFFFAOYSA-N

> <PUBCHEM_XLOGP3_AA>
3.8

> <PUBCHEM_EXACT_MASS>
362.16304257

> <PUBCHEM_MOLECULAR_FORMULA>
C22H22N2O3

> <PUBCHEM_MOLECULAR_WEIGHT>
362.4

> <PUBCHEM_OPENEYE_CAN_SMILES>
COC1=CC=CC2=C1C(=CN2)CCNCC3=CC=C(O3)C4=CC=C(C=C4)O

> <PUBCHEM_OPENEYE_ISO_SMILES>
COC1=CC=CC2=C1C(=CN2)CCNCC3=CC=C(O3)C4=CC=C(C=C4)O

> <PUBCHEM_CACTVS_TPSA>
70.4

> <PUBCHEM_MONOISOTOPIC_WEIGHT>
362.16304257

> <PUBCHEM_TOTAL_CHARGE>
0

> <PUBCHEM_HEAVY_ATOM_COUNT>
27

> <PUBCHEM_ATOM_DEF_STEREO_COUNT>
0

> <PUBCHEM_ATOM_UDEF_STEREO_COUNT>
0

> <PUBCHEM_BOND_DEF_STEREO_COUNT>
0

> <PUBCHEM_BOND_UDEF_STEREO_COUNT>
0

> <PUBCHEM_ISOTOPIC_ATOM_COUNT>
0

> <PUBCHEM_COMPONENT_COUNT>
1

> <PUBCHEM_CACTVS_TAUTO_COUNT>
-1

> <PUBCHEM_COORDINATE_TYPE>
1
5
255

> <PUBCHEM_BONDANNOTATIONS>
10  14  8
12  16  8
14  17  8
15  19  8
16  17  8
18  20  8
19  20  8
2  15  8
2  18  8
21  23  8
21  24  8
23  25  8
24  26  8
25  27  8
26  27  8
4  10  8
4  11  8
6  11  8
6  8  8
8  10  8
8  12  8

$$$$
