11569996
  -OEChem-09292322262D

 73 78  0     1  0  0  0  0  0999 V2000
    6.0898    1.6698    0.0000 S   0  0  0  0  0  0  0  0  0  0  0  0
    6.0898   -1.7943    0.0000 N   0  0  3  0  0  0  0  0  0  0  0  0
    2.9785   -5.5739    0.0000 N   0  0  0  0  0  0  0  0  0  0  0  0
    3.3836   -6.4817    0.0000 N   0  0  0  0  0  0  0  0  0  0  0  0
    7.5844    2.6403    0.0000 N   0  0  0  0  0  0  0  0  0  0  0  0
    6.1831    3.4493    0.0000 N   0  0  0  0  0  0  0  0  0  0  0  0
    6.9263    4.1185    0.0000 N   0  0  0  0  0  0  0  0  0  0  0  0
    9.8487    6.4606    0.0000 N   0  0  0  0  0  0  0  0  0  0  0  0
    6.6434   -2.6040    0.0000 C   0  0  0  0  0  0  0  0  0  0  0  0
    5.1119   -1.7197    0.0000 C   0  0  0  0  0  0  0  0  0  0  0  0
    6.3581   -3.5423    0.0000 C   0  0  0  0  0  0  0  0  0  0  0  0
    4.4419   -2.4360    0.0000 C   0  0  0  0  0  0  0  0  0  0  0  0
    5.4476   -3.9068    0.0000 C   0  0  0  0  0  0  0  0  0  0  0  0
    4.5816   -3.4068    0.0000 C   0  0  0  0  0  0  0  0  0  0  0  0
    6.5898   -0.9283    0.0000 C   0  0  0  0  0  0  0  0  0  0  0  0
    4.5816   -5.4068    0.0000 C   0  0  0  0  0  0  0  0  0  0  0  0
    5.4476   -4.9068    0.0000 C   0  0  0  0  0  0  0  0  0  0  0  0
    3.7155   -4.9068    0.0000 C   0  0  0  0  0  0  0  0  0  0  0  0
    3.7155   -3.9068    0.0000 C   0  0  0  0  0  0  0  0  0  0  0  0
    6.0898   -0.0623    0.0000 C   0  0  0  0  0  0  0  0  0  0  0  0
    4.3723   -6.3786    0.0000 C   0  0  0  0  0  0  0  0  0  0  0  0
    6.5898    0.8037    0.0000 C   0  0  0  0  0  0  0  0  0  0  0  0
    5.0402   -7.1229    0.0000 C   0  0  0  0  0  0  0  0  0  0  0  0
    2.0000   -5.3677    0.0000 C   0  0  0  0  0  0  0  0  0  0  0  0
    4.7295   -8.0734    0.0000 C   0  0  0  0  0  0  0  0  0  0  0  0
    6.5898    2.5358    0.0000 C   0  0  0  0  0  0  0  0  0  0  0  0
    7.7923    3.6185    0.0000 C   0  0  0  0  0  0  0  0  0  0  0  0
    8.7058    4.0252    0.0000 C   0  0  0  0  0  0  0  0  0  0  0  0
    8.8104    5.0197    0.0000 C   0  0  0  0  0  0  0  0  0  0  0  0
    8.2535    1.8972    0.0000 C   0  0  0  0  0  0  0  0  0  0  0  0
    9.7239    5.4265    0.0000 C   0  0  0  0  0  0  0  0  0  0  0  0
    9.5148    3.4374    0.0000 C   0  0  0  0  0  0  0  0  0  0  0  0
    7.9583    5.6189    0.0000 C   0  0  0  0  0  0  0  0  0  0  0  0
   10.5329    4.8387    0.0000 C   0  0  0  0  0  0  0  0  0  0  0  0
   10.4284    3.8442    0.0000 C   0  0  0  0  0  0  0  0  0  0  0  0
    8.0592    6.6556    0.0000 C   0  0  0  0  0  0  0  0  0  0  0  0
    9.0108    7.0793    0.0000 C   0  0  0  0  0  0  0  0  0  0  0  0
    9.1192    8.0734    0.0000 C   0  0  0  0  0  0  0  0  0  0  0  0
    7.1814   -2.9123    0.0000 H   0  0  0  0  0  0  0  0  0  0  0  0
    7.0641   -2.1485    0.0000 H   0  0  0  0  0  0  0  0  0  0  0  0
    5.2960   -1.1277    0.0000 H   0  0  0  0  0  0  0  0  0  0  0  0
    4.5759   -1.4080    0.0000 H   0  0  0  0  0  0  0  0  0  0  0  0
    6.4541   -4.1549    0.0000 H   0  0  0  0  0  0  0  0  0  0  0  0
    6.9766   -3.5856    0.0000 H   0  0  0  0  0  0  0  0  0  0  0  0
    4.0952   -1.9220    0.0000 H   0  0  0  0  0  0  0  0  0  0  0  0
    3.8634   -2.6591    0.0000 H   0  0  0  0  0  0  0  0  0  0  0  0
    7.0648   -1.3268    0.0000 H   0  0  0  0  0  0  0  0  0  0  0  0
    7.0648   -0.5298    0.0000 H   0  0  0  0  0  0  0  0  0  0  0  0
    5.9845   -5.2168    0.0000 H   0  0  0  0  0  0  0  0  0  0  0  0
    3.1786   -3.5968    0.0000 H   0  0  0  0  0  0  0  0  0  0  0  0
    5.6149    0.3362    0.0000 H   0  0  0  0  0  0  0  0  0  0  0  0
    5.6149   -0.4608    0.0000 H   0  0  0  0  0  0  0  0  0  0  0  0
    7.0648    0.4052    0.0000 H   0  0  0  0  0  0  0  0  0  0  0  0
    7.0648    1.2023    0.0000 H   0  0  0  0  0  0  0  0  0  0  0  0
    5.5871   -7.4149    0.0000 H   0  0  0  0  0  0  0  0  0  0  0  0
    5.4227   -6.6350    0.0000 H   0  0  0  0  0  0  0  0  0  0  0  0
    2.1279   -4.7610    0.0000 H   0  0  0  0  0  0  0  0  0  0  0  0
    1.3933   -5.2398    0.0000 H   0  0  0  0  0  0  0  0  0  0  0  0
    1.8721   -5.9743    0.0000 H   0  0  0  0  0  0  0  0  0  0  0  0
    4.1402   -7.8808    0.0000 H   0  0  0  0  0  0  0  0  0  0  0  0
    4.5369   -8.6628    0.0000 H   0  0  0  0  0  0  0  0  0  0  0  0
    5.3188   -8.2660    0.0000 H   0  0  0  0  0  0  0  0  0  0  0  0
    7.7928    1.4823    0.0000 H   0  0  0  0  0  0  0  0  0  0  0  0
    8.6684    1.4364    0.0000 H   0  0  0  0  0  0  0  0  0  0  0  0
    8.7143    2.3120    0.0000 H   0  0  0  0  0  0  0  0  0  0  0  0
    9.4500    2.8208    0.0000 H   0  0  0  0  0  0  0  0  0  0  0  0
    7.3949    5.3602    0.0000 H   0  0  0  0  0  0  0  0  0  0  0  0
   11.0993    5.0909    0.0000 H   0  0  0  0  0  0  0  0  0  0  0  0
   10.9300    3.4797    0.0000 H   0  0  0  0  0  0  0  0  0  0  0  0
    7.5562    7.0181    0.0000 H   0  0  0  0  0  0  0  0  0  0  0  0
    9.7355    8.0062    0.0000 H   0  0  0  0  0  0  0  0  0  0  0  0
    9.1863    8.6898    0.0000 H   0  0  0  0  0  0  0  0  0  0  0  0
    8.5028    8.1406    0.0000 H   0  0  0  0  0  0  0  0  0  0  0  0
  1 22  1  0  0  0  0
  1 26  1  0  0  0  0
  2  9  1  0  0  0  0
  2 10  1  0  0  0  0
  2 15  1  0  0  0  0
  3  4  1  0  0  0  0
  3 18  1  0  0  0  0
  3 24  1  0  0  0  0
  4 21  2  0  0  0  0
  5 26  1  0  0  0  0
  5 27  1  0  0  0  0
  5 30  1  0  0  0  0
  6  7  1  0  0  0  0
  6 26  2  0  0  0  0
  7 27  2  0  0  0  0
  8 31  1  0  0  0  0
  8 37  2  0  0  0  0
  9 11  1  0  0  0  0
  9 39  1  0  0  0  0
  9 40  1  0  0  0  0
 10 12  1  0  0  0  0
 10 41  1  0  0  0  0
 10 42  1  0  0  0  0
 11 13  1  0  0  0  0
 11 43  1  0  0  0  0
 11 44  1  0  0  0  0
 12 14  1  0  0  0  0
 12 45  1  0  0  0  0
 12 46  1  0  0  0  0
 13 14  1  0  0  0  0
 13 17  2  0  0  0  0
 14 19  2  0  0  0  0
 15 20  1  0  0  0  0
 15 47  1  0  0  0  0
 15 48  1  0  0  0  0
 16 17  1  0  0  0  0
 16 18  2  0  0  0  0
 16 21  1  0  0  0  0
 17 49  1  0  0  0  0
 18 19  1  0  0  0  0
 19 50  1  0  0  0  0
 20 22  1  0  0  0  0
 20 51  1  0  0  0  0
 20 52  1  0  0  0  0
 21 23  1  0  0  0  0
 22 53  1  0  0  0  0
 22 54  1  0  0  0  0
 23 25  1  0  0  0  0
 23 55  1  0  0  0  0
 23 56  1  0  0  0  0
 24 57  1  0  0  0  0
 24 58  1  0  0  0  0
 24 59  1  0  0  0  0
 25 60  1  0  0  0  0
 25 61  1  0  0  0  0
 25 62  1  0  0  0  0
 27 28  1  0  0  0  0
 28 29  2  0  0  0  0
 28 32  1  0  0  0  0
 29 31  1  0  0  0  0
 29 33  1  0  0  0  0
 30 63  1  0  0  0  0
 30 64  1  0  0  0  0
 30 65  1  0  0  0  0
 31 34  2  0  0  0  0
 32 35  2  0  0  0  0
 32 66  1  0  0  0  0
 33 36  2  0  0  0  0
 33 67  1  0  0  0  0
 34 35  1  0  0  0  0
 34 68  1  0  0  0  0
 35 69  1  0  0  0  0
 36 37  1  0  0  0  0
 36 70  1  0  0  0  0
 37 38  1  0  0  0  0
 38 71  1  0  0  0  0
 38 72  1  0  0  0  0
 38 73  1  0  0  0  0
M  END
> <PUBCHEM_COMPOUND_CID>
11569996

> <PUBCHEM_COMPOUND_CANONICALIZED>
1

> <PUBCHEM_CACTVS_COMPLEXITY>
771

> <PUBCHEM_CACTVS_HBOND_ACCEPTOR>
6

> <PUBCHEM_CACTVS_HBOND_DONOR>
0

> <PUBCHEM_CACTVS_ROTATABLE_BOND>
7

> <PUBCHEM_CACTVS_SUBSKEYS>
AAADcfB7gABAAAAAAAAAAAAAAAAAAWLAAAA8YIAABYAAAFix/gAAHAQIAAAADAjFXwSz0PcMEAiiAyZiZACS1CthgrAd2CA4ZJiIKOLg2dGEpAhgiALIyAcQgMAOyAACQAASAACQAASAACQAAAAAAAAAAA==

> <PUBCHEM_IUPAC_OPENEYE_NAME>
3-ethyl-1-methyl-7-[3-[[4-methyl-5-(2-methyl-5-quinolyl)-1,2,4-triazol-3-yl]sulfanyl]propyl]-5,6,8,9-tetrahydropyrazolo[3,4-h][3]benzazepine

> <PUBCHEM_IUPAC_CAS_NAME>
3-ethyl-1-methyl-7-[3-[[4-methyl-5-(2-methyl-5-quinolinyl)-1,2,4-triazol-3-yl]thio]propyl]-5,6,8,9-tetrahydropyrazolo[3,4-h][3]benzazepine

> <PUBCHEM_IUPAC_NAME_MARKUP>
3-ethyl-1-methyl-7-[3-[[4-methyl-5-(2-methylquinolin-5-yl)-1,2,4-triazol-3-yl]sulfanyl]propyl]-5,6,8,9-tetrahydropyrazolo[3,4-h][3]benzazepine

> <PUBCHEM_IUPAC_NAME>
3-ethyl-1-methyl-7-[3-[[4-methyl-5-(2-methylquinolin-5-yl)-1,2,4-triazol-3-yl]sulfanyl]propyl]-5,6,8,9-tetrahydropyrazolo[3,4-h][3]benzazepine

> <PUBCHEM_IUPAC_SYSTEMATIC_NAME>
3-ethyl-1-methyl-7-[3-[[4-methyl-5-(2-methylquinolin-5-yl)-1,2,4-triazol-3-yl]sulfanyl]propyl]-5,6,8,9-tetrahydropyrazolo[3,4-h][3]benzazepine

> <PUBCHEM_IUPAC_TRADITIONAL_NAME>
3-ethyl-1-methyl-7-[3-[[4-methyl-5-(2-methyl-5-quinolyl)-1,2,4-triazol-3-yl]thio]propyl]-5,6,8,9-tetrahydropyrazolo[3,4-h][3]benzazepine

> <PUBCHEM_IUPAC_INCHI>
InChI=1S/C30H35N7S/c1-5-26-25-18-21-12-15-37(16-13-22(21)19-28(25)36(4)34-26)14-7-17-38-30-33-32-29(35(30)3)24-8-6-9-27-23(24)11-10-20(2)31-27/h6,8-11,18-19H,5,7,12-17H2,1-4H3

> <PUBCHEM_IUPAC_INCHIKEY>
FXBRDXOXJHZPDA-UHFFFAOYSA-N

> <PUBCHEM_XLOGP3_AA>
5.5

> <PUBCHEM_EXACT_MASS>
525.26746532

> <PUBCHEM_MOLECULAR_FORMULA>
C30H35N7S

> <PUBCHEM_MOLECULAR_WEIGHT>
525.7

> <PUBCHEM_OPENEYE_CAN_SMILES>
CCC1=NN(C2=C1C=C3CCN(CCC3=C2)CCCSC4=NN=C(N4C)C5=C6C=CC(=NC6=CC=C5)C)C

> <PUBCHEM_OPENEYE_ISO_SMILES>
CCC1=NN(C2=C1C=C3CCN(CCC3=C2)CCCSC4=NN=C(N4C)C5=C6C=CC(=NC6=CC=C5)C)C

> <PUBCHEM_CACTVS_TPSA>
90

> <PUBCHEM_MONOISOTOPIC_WEIGHT>
525.26746532

> <PUBCHEM_TOTAL_CHARGE>
0

> <PUBCHEM_HEAVY_ATOM_COUNT>
38

> <PUBCHEM_ATOM_DEF_STEREO_COUNT>
0

> <PUBCHEM_ATOM_UDEF_STEREO_COUNT>
0

> <PUBCHEM_BOND_DEF_STEREO_COUNT>
0

> <PUBCHEM_BOND_UDEF_STEREO_COUNT>
0

> <PUBCHEM_ISOTOPIC_ATOM_COUNT>
0

> <PUBCHEM_COMPONENT_COUNT>
1

> <PUBCHEM_CACTVS_TAUTO_COUNT>
-1

> <PUBCHEM_COORDINATE_TYPE>
1
5
255

> <PUBCHEM_BONDANNOTATIONS>
13  14  8
13  17  8
14  19  8
16  17  8
16  18  8
16  21  8
18  19  8
28  29  8
28  32  8
29  31  8
29  33  8
3  18  8
3  4  8
31  34  8
32  35  8
33  36  8
34  35  8
36  37  8
4  21  8
5  26  8
5  27  8
6  26  8
6  7  8
7  27  8
8  31  8
8  37  8

$$$$
