10545941
  -OEChem-09292322102D

 50 53  0     0  0  0  0  0  0999 V2000
   12.4202    0.6120    0.0000 O   0  0  0  0  0  0  0  0  0  0  0  0
    2.8660    2.0773    0.0000 O   0  0  0  0  0  0  0  0  0  0  0  0
   14.1904   -1.4468    0.0000 O   0  0  0  0  0  0  0  0  0  0  0  0
    8.0622   -0.9227    0.0000 N   0  0  0  0  0  0  0  0  0  0  0  0
   12.4202   -1.4574    0.0000 N   0  0  0  0  0  0  0  0  0  0  0  0
    6.3301    0.0773    0.0000 C   0  0  0  0  0  0  0  0  0  0  0  0
    7.1962    0.5773    0.0000 C   0  0  0  0  0  0  0  0  0  0  0  0
    6.3301   -0.9227    0.0000 C   0  0  0  0  0  0  0  0  0  0  0  0
    8.0622    0.0773    0.0000 C   0  0  0  0  0  0  0  0  0  0  0  0
    7.1962   -1.4227    0.0000 C   0  0  0  0  0  0  0  0  0  0  0  0
    5.4641    0.5773    0.0000 C   0  0  0  0  0  0  0  0  0  0  0  0
    8.9282   -1.4227    0.0000 C   0  0  0  0  0  0  0  0  0  0  0  0
    9.7942   -0.9227    0.0000 C   0  0  0  0  0  0  0  0  0  0  0  0
    4.5981    0.0773    0.0000 C   0  0  0  0  0  0  0  0  0  0  0  0
    5.4641    1.5773    0.0000 C   0  0  0  0  0  0  0  0  0  0  0  0
   10.6603   -1.4227    0.0000 C   0  0  0  0  0  0  0  0  0  0  0  0
    9.7942    0.0773    0.0000 C   0  0  0  0  0  0  0  0  0  0  0  0
    3.7320    0.5773    0.0000 C   0  0  0  0  0  0  0  0  0  0  0  0
    4.5981    2.0773    0.0000 C   0  0  0  0  0  0  0  0  0  0  0  0
   11.5263   -0.9227    0.0000 C   0  0  0  0  0  0  0  0  0  0  0  0
    3.7320    1.5773    0.0000 C   0  0  0  0  0  0  0  0  0  0  0  0
   11.5263    0.0773    0.0000 C   0  0  0  0  0  0  0  0  0  0  0  0
   10.6603    0.5773    0.0000 C   0  0  0  0  0  0  0  0  0  0  0  0
   13.3263    0.0981    0.0000 C   0  0  0  0  0  0  0  0  0  0  0  0
   13.3263   -0.9435    0.0000 C   0  0  0  0  0  0  0  0  0  0  0  0
    2.0000    1.5773    0.0000 C   0  0  0  0  0  0  0  0  0  0  0  0
    5.7932   -0.2327    0.0000 H   0  0  0  0  0  0  0  0  0  0  0  0
    7.5947    1.0523    0.0000 H   0  0  0  0  0  0  0  0  0  0  0  0
    6.7976    1.0523    0.0000 H   0  0  0  0  0  0  0  0  0  0  0  0
    5.7196   -0.8150    0.0000 H   0  0  0  0  0  0  0  0  0  0  0  0
    6.1181   -1.5053    0.0000 H   0  0  0  0  0  0  0  0  0  0  0  0
    8.6728   -0.0304    0.0000 H   0  0  0  0  0  0  0  0  0  0  0  0
    8.2742    0.6599    0.0000 H   0  0  0  0  0  0  0  0  0  0  0  0
    6.7976   -1.8976    0.0000 H   0  0  0  0  0  0  0  0  0  0  0  0
    7.5947   -1.8976    0.0000 H   0  0  0  0  0  0  0  0  0  0  0  0
    8.5297   -1.8976    0.0000 H   0  0  0  0  0  0  0  0  0  0  0  0
    9.3267   -1.8976    0.0000 H   0  0  0  0  0  0  0  0  0  0  0  0
    4.5981   -0.5427    0.0000 H   0  0  0  0  0  0  0  0  0  0  0  0
    6.0010    1.8873    0.0000 H   0  0  0  0  0  0  0  0  0  0  0  0
   10.6603   -2.0427    0.0000 H   0  0  0  0  0  0  0  0  0  0  0  0
    9.2573    0.3873    0.0000 H   0  0  0  0  0  0  0  0  0  0  0  0
    3.1951    0.2673    0.0000 H   0  0  0  0  0  0  0  0  0  0  0  0
    4.5981    2.6973    0.0000 H   0  0  0  0  0  0  0  0  0  0  0  0
   10.6603    1.1973    0.0000 H   0  0  0  0  0  0  0  0  0  0  0  0
   12.4131   -2.0773    0.0000 H   0  0  0  0  0  0  0  0  0  0  0  0
   13.9371   -0.0080    0.0000 H   0  0  0  0  0  0  0  0  0  0  0  0
   13.5353    0.6818    0.0000 H   0  0  0  0  0  0  0  0  0  0  0  0
    1.6900    2.1143    0.0000 H   0  0  0  0  0  0  0  0  0  0  0  0
    1.4631    1.2673    0.0000 H   0  0  0  0  0  0  0  0  0  0  0  0
    2.3100    1.0404    0.0000 H   0  0  0  0  0  0  0  0  0  0  0  0
  1 22  1  0  0  0  0
  1 24  1  0  0  0  0
  2 21  1  0  0  0  0
  2 26  1  0  0  0  0
  3 25  2  0  0  0  0
  4  9  1  0  0  0  0
  4 10  1  0  0  0  0
  4 12  1  0  0  0  0
  5 20  1  0  0  0  0
  5 25  1  0  0  0  0
  5 45  1  0  0  0  0
  6  7  1  0  0  0  0
  6  8  1  0  0  0  0
  6 11  1  0  0  0  0
  6 27  1  0  0  0  0
  7  9  1  0  0  0  0
  7 28  1  0  0  0  0
  7 29  1  0  0  0  0
  8 10  1  0  0  0  0
  8 30  1  0  0  0  0
  8 31  1  0  0  0  0
  9 32  1  0  0  0  0
  9 33  1  0  0  0  0
 10 34  1  0  0  0  0
 10 35  1  0  0  0  0
 11 14  2  0  0  0  0
 11 15  1  0  0  0  0
 12 13  1  0  0  0  0
 12 36  1  0  0  0  0
 12 37  1  0  0  0  0
 13 16  2  0  0  0  0
 13 17  1  0  0  0  0
 14 18  1  0  0  0  0
 14 38  1  0  0  0  0
 15 19  2  0  0  0  0
 15 39  1  0  0  0  0
 16 20  1  0  0  0  0
 16 40  1  0  0  0  0
 17 23  2  0  0  0  0
 17 41  1  0  0  0  0
 18 21  2  0  0  0  0
 18 42  1  0  0  0  0
 19 21  1  0  0  0  0
 19 43  1  0  0  0  0
 20 22  2  0  0  0  0
 22 23  1  0  0  0  0
 23 44  1  0  0  0  0
 24 25  1  0  0  0  0
 24 46  1  0  0  0  0
 24 47  1  0  0  0  0
 26 48  1  0  0  0  0
 26 49  1  0  0  0  0
 26 50  1  0  0  0  0
M  END
> <PUBCHEM_COMPOUND_CID>
10545941

> <PUBCHEM_COMPOUND_CANONICALIZED>
1

> <PUBCHEM_CACTVS_COMPLEXITY>
470

> <PUBCHEM_CACTVS_HBOND_ACCEPTOR>
4

> <PUBCHEM_CACTVS_HBOND_DONOR>
1

> <PUBCHEM_CACTVS_ROTATABLE_BOND>
4

> <PUBCHEM_CACTVS_SUBSKEYS>
AAADceB7MAAAAAAAAAAAAAAAAAAAAAAAAAA8eIEAAAAAAACxQAAAHgAQAAAADQzhmAYyxoPABACIAiVSUAKCCAAhIgAIiABPbIgOJiLEsZ+HOCjk1BHY6AeQ0PIOoAAAQAAAEABAAACAAAAgAAAAAAAAAA==

> <PUBCHEM_IUPAC_OPENEYE_NAME>
6-[[4-(4-methoxyphenyl)-1-piperidyl]methyl]-4H-1,4-benzoxazin-3-one

> <PUBCHEM_IUPAC_CAS_NAME>
6-[[4-(4-methoxyphenyl)-1-piperidinyl]methyl]-4H-1,4-benzoxazin-3-one

> <PUBCHEM_IUPAC_NAME_MARKUP>
6-[[4-(4-methoxyphenyl)piperidin-1-yl]methyl]-4<I>H</I>-1,4-benzoxazin-3-one

> <PUBCHEM_IUPAC_NAME>
6-[[4-(4-methoxyphenyl)piperidin-1-yl]methyl]-4H-1,4-benzoxazin-3-one

> <PUBCHEM_IUPAC_SYSTEMATIC_NAME>
6-[[4-(4-methoxyphenyl)piperidin-1-yl]methyl]-4H-1,4-benzoxazin-3-one

> <PUBCHEM_IUPAC_TRADITIONAL_NAME>
6-[[4-(4-methoxyphenyl)piperidino]methyl]-4H-1,4-benzoxazin-3-one

> <PUBCHEM_IUPAC_INCHI>
InChI=1S/C21H24N2O3/c1-25-18-5-3-16(4-6-18)17-8-10-23(11-9-17)13-15-2-7-20-19(12-15)22-21(24)14-26-20/h2-7,12,17H,8-11,13-14H2,1H3,(H,22,24)

> <PUBCHEM_IUPAC_INCHIKEY>
OCMQSLHFQZYSMB-UHFFFAOYSA-N

> <PUBCHEM_XLOGP3_AA>
2.9

> <PUBCHEM_EXACT_MASS>
352.17869263

> <PUBCHEM_MOLECULAR_FORMULA>
C21H24N2O3

> <PUBCHEM_MOLECULAR_WEIGHT>
352.4

> <PUBCHEM_OPENEYE_CAN_SMILES>
COC1=CC=C(C=C1)C2CCN(CC2)CC3=CC4=C(C=C3)OCC(=O)N4

> <PUBCHEM_OPENEYE_ISO_SMILES>
COC1=CC=C(C=C1)C2CCN(CC2)CC3=CC4=C(C=C3)OCC(=O)N4

> <PUBCHEM_CACTVS_TPSA>
50.8

> <PUBCHEM_MONOISOTOPIC_WEIGHT>
352.17869263

> <PUBCHEM_TOTAL_CHARGE>
0

> <PUBCHEM_HEAVY_ATOM_COUNT>
26

> <PUBCHEM_ATOM_DEF_STEREO_COUNT>
0

> <PUBCHEM_ATOM_UDEF_STEREO_COUNT>
0

> <PUBCHEM_BOND_DEF_STEREO_COUNT>
0

> <PUBCHEM_BOND_UDEF_STEREO_COUNT>
0

> <PUBCHEM_ISOTOPIC_ATOM_COUNT>
0

> <PUBCHEM_COMPONENT_COUNT>
1

> <PUBCHEM_CACTVS_TAUTO_COUNT>
-1

> <PUBCHEM_COORDINATE_TYPE>
1
5
255

> <PUBCHEM_BONDANNOTATIONS>
11  14  8
11  15  8
13  16  8
13  17  8
14  18  8
15  19  8
16  20  8
17  23  8
18  21  8
19  21  8
20  22  8
22  23  8

$$$$
