134136921
  -OEChem-09292322472D

 45 48  0     1  0  0  0  0  0999 V2000
    3.5998    0.3575    0.0000 S   0  0  0  0  0  0  0  0  0  0  0  0
    9.9748    0.2666    0.0000 O   0  0  0  0  0  0  0  0  0  0  0  0
    2.6493    0.0468    0.0000 O   0  0  0  0  0  0  0  0  0  0  0  0
    4.5504    0.6681    0.0000 O   0  0  0  0  0  0  0  0  0  0  0  0
    8.3027   -2.6105    0.0000 N   0  0  0  0  0  0  0  0  0  0  0  0
    3.9105   -0.5931    0.0000 N   0  0  0  0  0  0  0  0  0  0  0  0
    7.5970   -0.8936    0.0000 C   0  0  1  0  0  0  0  0  0  0  0  0
    7.5970   -1.9019    0.0000 C   0  0  1  0  0  0  0  0  0  0  0  0
    6.5888   -0.8978    0.0000 C   0  0  0  0  0  0  0  0  0  0  0  0
    6.5888   -1.8978    0.0000 C   0  0  0  0  0  0  0  0  0  0  0  0
    8.3027   -0.1851    0.0000 C   0  0  0  0  0  0  0  0  0  0  0  0
    5.7227   -0.3978    0.0000 C   0  0  0  0  0  0  0  0  0  0  0  0
    5.7227   -2.3978    0.0000 C   0  0  0  0  0  0  0  0  0  0  0  0
    4.8567   -0.8978    0.0000 C   0  0  0  0  0  0  0  0  0  0  0  0
    4.8567   -1.8978    0.0000 C   0  0  0  0  0  0  0  0  0  0  0  0
    9.2692   -0.4419    0.0000 C   0  0  0  0  0  0  0  0  0  0  0  0
    3.9105   -2.2025    0.0000 C   0  0  0  0  0  0  0  0  0  0  0  0
    9.2692   -2.3536    0.0000 C   0  0  0  0  0  0  0  0  0  0  0  0
    3.3269   -1.3978    0.0000 C   0  0  0  0  0  0  0  0  0  0  0  0
    3.2892    1.3080    0.0000 C   0  0  0  0  0  0  0  0  0  0  0  0
    2.3107    1.5142    0.0000 C   0  0  0  0  0  0  0  0  0  0  0  0
    3.9570    2.0523    0.0000 C   0  0  0  0  0  0  0  0  0  0  0  0
    2.0000    2.4647    0.0000 C   0  0  0  0  0  0  0  0  0  0  0  0
    3.6464    3.0028    0.0000 C   0  0  0  0  0  0  0  0  0  0  0  0
    2.6678    3.2090    0.0000 C   0  0  0  0  0  0  0  0  0  0  0  0
    8.1701   -1.1303    0.0000 H   0  0  0  0  0  0  0  0  0  0  0  0
    8.1701   -1.6652    0.0000 H   0  0  0  0  0  0  0  0  0  0  0  0
    8.5636    0.3774    0.0000 H   0  0  0  0  0  0  0  0  0  0  0  0
    7.7941    0.1695    0.0000 H   0  0  0  0  0  0  0  0  0  0  0  0
    5.7227    0.2222    0.0000 H   0  0  0  0  0  0  0  0  0  0  0  0
    5.7227   -3.0178    0.0000 H   0  0  0  0  0  0  0  0  0  0  0  0
    8.1410   -3.2090    0.0000 H   0  0  0  0  0  0  0  0  0  0  0  0
    9.0083   -1.0044    0.0000 H   0  0  0  0  0  0  0  0  0  0  0  0
    9.7778   -0.7965    0.0000 H   0  0  0  0  0  0  0  0  0  0  0  0
    3.7179   -2.7918    0.0000 H   0  0  0  0  0  0  0  0  0  0  0  0
    9.4284   -2.9529    0.0000 H   0  0  0  0  0  0  0  0  0  0  0  0
    9.8684   -2.1944    0.0000 H   0  0  0  0  0  0  0  0  0  0  0  0
    9.1099   -1.7544    0.0000 H   0  0  0  0  0  0  0  0  0  0  0  0
    2.7069   -1.3978    0.0000 H   0  0  0  0  0  0  0  0  0  0  0  0
   10.5740    0.1074    0.0000 H   0  0  0  0  0  0  0  0  0  0  0  0
    1.8966    1.0527    0.0000 H   0  0  0  0  0  0  0  0  0  0  0  0
    4.5637    1.9244    0.0000 H   0  0  0  0  0  0  0  0  0  0  0  0
    1.3933    2.5926    0.0000 H   0  0  0  0  0  0  0  0  0  0  0  0
    4.0604    3.4643    0.0000 H   0  0  0  0  0  0  0  0  0  0  0  0
    2.4752    3.7984    0.0000 H   0  0  0  0  0  0  0  0  0  0  0  0
  1  3  2  0  0  0  0
  1  4  2  0  0  0  0
  1  6  1  0  0  0  0
  1 20  1  0  0  0  0
  2 16  1  0  0  0  0
  2 40  1  0  0  0  0
  8  5  1  6  0  0  0
  5 18  1  0  0  0  0
  5 32  1  0  0  0  0
  6 14  1  0  0  0  0
  6 19  1  0  0  0  0
  7  8  1  0  0  0  0
  7  9  1  0  0  0  0
  7 11  1  1  0  0  0
  7 26  1  0  0  0  0
  8 10  1  0  0  0  0
  8 27  1  0  0  0  0
  9 10  2  0  0  0  0
  9 12  1  0  0  0  0
 10 13  1  0  0  0  0
 11 16  1  0  0  0  0
 11 28  1  0  0  0  0
 11 29  1  0  0  0  0
 12 14  2  0  0  0  0
 12 30  1  0  0  0  0
 13 15  2  0  0  0  0
 13 31  1  0  0  0  0
 14 15  1  0  0  0  0
 15 17  1  0  0  0  0
 16 33  1  0  0  0  0
 16 34  1  0  0  0  0
 17 19  2  0  0  0  0
 17 35  1  0  0  0  0
 18 36  1  0  0  0  0
 18 37  1  0  0  0  0
 18 38  1  0  0  0  0
 19 39  1  0  0  0  0
 20 21  2  0  0  0  0
 20 22  1  0  0  0  0
 21 23  1  0  0  0  0
 21 41  1  0  0  0  0
 22 24  2  0  0  0  0
 22 42  1  0  0  0  0
 23 25  2  0  0  0  0
 23 43  1  0  0  0  0
 24 25  1  0  0  0  0
 24 44  1  0  0  0  0
 25 45  1  0  0  0  0
M  END
> <PUBCHEM_COMPOUND_CID>
134136921

> <PUBCHEM_COMPOUND_CANONICALIZED>
1

> <PUBCHEM_CACTVS_COMPLEXITY>
570

> <PUBCHEM_CACTVS_HBOND_ACCEPTOR>
4

> <PUBCHEM_CACTVS_HBOND_DONOR>
2

> <PUBCHEM_CACTVS_ROTATABLE_BOND>
5

> <PUBCHEM_CACTVS_SUBSKEYS>
AAADceB7MABAAAAAAAAAAAAAAABgAWAAAAAwYAAAAAAYAFgB9AAAHgQQSAAADSjh3gY+wfLIEgKgAzRnRHDCgDAxAiAI2Lg4ZJgIMOLAkZGEYAhkkADIyAewwPAOyAACQAASAACQAASAACQAAAAAAAAAAA==

> <PUBCHEM_IUPAC_OPENEYE_NAME>
2-[(4S,5R)-9-(benzenesulfonyl)-4-(methylamino)-9-azatricyclo[6.3.0.03,6]undeca-1,3(6),7,10-tetraen-5-yl]ethanol

> <PUBCHEM_IUPAC_CAS_NAME>
2-[(4S,5R)-9-(benzenesulfonyl)-4-(methylamino)-9-azatricyclo[6.3.0.03,6]undeca-1,3(6),7,10-tetraen-5-yl]ethanol

> <PUBCHEM_IUPAC_NAME_MARKUP>
2-[(4<I>S</I>,5<I>R</I>)-9-(benzenesulfonyl)-4-(methylamino)-9-azatricyclo[6.3.0.0<SUP>3,6</SUP>]undeca-1,3(6),7,10-tetraen-5-yl]ethanol

> <PUBCHEM_IUPAC_NAME>
2-[(4S,5R)-9-(benzenesulfonyl)-4-(methylamino)-9-azatricyclo[6.3.0.03,6]undeca-1,3(6),7,10-tetraen-5-yl]ethanol

> <PUBCHEM_IUPAC_SYSTEMATIC_NAME>
2-[(4S,5R)-4-(methylamino)-9-(phenylsulfonyl)-9-azatricyclo[6.3.0.03,6]undeca-1,3(6),7,10-tetraen-5-yl]ethanol

> <PUBCHEM_IUPAC_TRADITIONAL_NAME>
2-[(4S,5R)-9-besyl-4-(methylamino)-9-azatricyclo[6.3.0.03,6]undeca-1,3(6),7,10-tetraen-5-yl]ethanol

> <PUBCHEM_IUPAC_INCHI>
InChI=1S/C19H20N2O3S/c1-20-19-15(8-10-22)16-12-18-13(11-17(16)19)7-9-21(18)25(23,24)14-5-3-2-4-6-14/h2-7,9,11-12,15,19-20,22H,8,10H2,1H3/t15-,19+/m1/s1

> <PUBCHEM_IUPAC_INCHIKEY>
GNYULWALHKFYNF-BEFAXECRSA-N

> <PUBCHEM_XLOGP3_AA>
0.5

> <PUBCHEM_EXACT_MASS>
356.11946368

> <PUBCHEM_MOLECULAR_FORMULA>
C19H20N2O3S

> <PUBCHEM_MOLECULAR_WEIGHT>
356.4

> <PUBCHEM_OPENEYE_CAN_SMILES>
CNC1C(C2=C1C=C3C=CN(C3=C2)S(=O)(=O)C4=CC=CC=C4)CCO

> <PUBCHEM_OPENEYE_ISO_SMILES>
CN[C@H]1[C@@H](C2=C1C=C3C=CN(C3=C2)S(=O)(=O)C4=CC=CC=C4)CCO

> <PUBCHEM_CACTVS_TPSA>
79.7

> <PUBCHEM_MONOISOTOPIC_WEIGHT>
356.11946368

> <PUBCHEM_TOTAL_CHARGE>
0

> <PUBCHEM_HEAVY_ATOM_COUNT>
25

> <PUBCHEM_ATOM_DEF_STEREO_COUNT>
2

> <PUBCHEM_ATOM_UDEF_STEREO_COUNT>
0

> <PUBCHEM_BOND_DEF_STEREO_COUNT>
0

> <PUBCHEM_BOND_UDEF_STEREO_COUNT>
0

> <PUBCHEM_ISOTOPIC_ATOM_COUNT>
0

> <PUBCHEM_COMPONENT_COUNT>
1

> <PUBCHEM_CACTVS_TAUTO_COUNT>
-1

> <PUBCHEM_COORDINATE_TYPE>
1
5
255

> <PUBCHEM_BONDANNOTATIONS>
10  13  8
12  14  8
13  15  8
14  15  8
15  17  8
17  19  8
20  21  8
20  22  8
21  23  8
22  24  8
23  25  8
24  25  8
8  5  6
6  14  8
6  19  8
7  11  5
9  10  8
9  12  8

$$$$
