44626928
  -OEChem-09292322482D

 65 70  0     1  0  0  0  0  0999 V2000
    3.7759   -1.3808    0.0000 S   0  0  0  0  0  0  0  0  0  0  0  0
    6.9589    6.5421    0.0000 F   0  0  0  0  0  0  0  0  0  0  0  0
    5.5621    6.7633    0.0000 F   0  0  0  0  0  0  0  0  0  0  0  0
    6.7377    5.1453    0.0000 F   0  0  0  0  0  0  0  0  0  0  0  0
    3.4138    2.0643    0.0000 N   0  0  3  0  0  0  0  0  0  0  0  0
    4.0547   -3.1409    0.0000 N   0  0  0  0  0  0  0  0  0  0  0  0
    5.3637   -2.1898    0.0000 N   0  0  0  0  0  0  0  0  0  0  0  0
    5.6728   -3.1409    0.0000 N   0  0  0  0  0  0  0  0  0  0  0  0
    6.6237   -6.7633    0.0000 N   0  0  0  0  0  0  0  0  0  0  0  0
    2.9138    3.6032    0.0000 C   0  0  3  0  0  0  0  0  0  0  0  0
    2.1048    3.0154    0.0000 C   0  0  3  0  0  0  0  0  0  0  0  0
    2.0000    4.0103    0.0000 C   0  0  0  0  0  0  0  0  0  0  0  0
    3.7229    3.0154    0.0000 C   0  0  0  0  0  0  0  0  0  0  0  0
    2.4138    2.0643    0.0000 C   0  0  0  0  0  0  0  0  0  0  0  0
    3.7229    4.1910    0.0000 C   0  0  0  0  0  0  0  0  0  0  0  0
    4.0016    1.2553    0.0000 C   0  0  0  0  0  0  0  0  0  0  0  0
    3.6183    5.1855    0.0000 C   0  0  0  0  0  0  0  0  0  0  0  0
    4.6364    3.7842    0.0000 C   0  0  0  0  0  0  0  0  0  0  0  0
    3.5949    0.3418    0.0000 C   0  0  0  0  0  0  0  0  0  0  0  0
    4.4274    5.7733    0.0000 C   0  0  0  0  0  0  0  0  0  0  0  0
    5.4454    4.3720    0.0000 C   0  0  0  0  0  0  0  0  0  0  0  0
    5.3409    5.3665    0.0000 C   0  0  0  0  0  0  0  0  0  0  0  0
    4.1827   -0.4673    0.0000 C   0  0  0  0  0  0  0  0  0  0  0  0
    6.1499    5.9543    0.0000 C   0  0  0  0  0  0  0  0  0  0  0  0
    4.3637   -2.1898    0.0000 C   0  0  0  0  0  0  0  0  0  0  0  0
    4.8637   -3.7287    0.0000 C   0  0  0  0  0  0  0  0  0  0  0  0
    3.1037   -3.4499    0.0000 C   0  0  0  0  0  0  0  0  0  0  0  0
    4.8637   -4.7287    0.0000 C   0  0  0  0  0  0  0  0  0  0  0  0
    5.7298   -5.2287    0.0000 C   0  0  0  0  0  0  0  0  0  0  0  0
    3.9977   -5.2287    0.0000 C   0  0  0  0  0  0  0  0  0  0  0  0
    5.7298   -6.2287    0.0000 C   0  0  0  0  0  0  0  0  0  0  0  0
    6.6237   -4.6940    0.0000 C   0  0  0  0  0  0  0  0  0  0  0  0
    3.9977   -6.2287    0.0000 C   0  0  0  0  0  0  0  0  0  0  0  0
    4.8637   -6.7287    0.0000 C   0  0  0  0  0  0  0  0  0  0  0  0
    7.5298   -5.2078    0.0000 C   0  0  0  0  0  0  0  0  0  0  0  0
    7.5298   -6.2495    0.0000 C   0  0  0  0  0  0  0  0  0  0  0  0
    8.3939   -6.7528    0.0000 C   0  0  0  0  0  0  0  0  0  0  0  0
    1.4984    2.8864    0.0000 H   0  0  0  0  0  0  0  0  0  0  0  0
    2.1500    4.6119    0.0000 H   0  0  0  0  0  0  0  0  0  0  0  0
    1.3815    4.0535    0.0000 H   0  0  0  0  0  0  0  0  0  0  0  0
    4.2893    2.7632    0.0000 H   0  0  0  0  0  0  0  0  0  0  0  0
    4.0329    3.5523    0.0000 H   0  0  0  0  0  0  0  0  0  0  0  0
    1.8074    1.9354    0.0000 H   0  0  0  0  0  0  0  0  0  0  0  0
    2.4786    1.4477    0.0000 H   0  0  0  0  0  0  0  0  0  0  0  0
    4.5156    0.9086    0.0000 H   0  0  0  0  0  0  0  0  0  0  0  0
    4.4323    1.7013    0.0000 H   0  0  0  0  0  0  0  0  0  0  0  0
    3.0519    5.4376    0.0000 H   0  0  0  0  0  0  0  0  0  0  0  0
    4.7012    3.1676    0.0000 H   0  0  0  0  0  0  0  0  0  0  0  0
    3.0809    0.6885    0.0000 H   0  0  0  0  0  0  0  0  0  0  0  0
    3.1642   -0.1042    0.0000 H   0  0  0  0  0  0  0  0  0  0  0  0
    4.3625    6.3899    0.0000 H   0  0  0  0  0  0  0  0  0  0  0  0
    6.0118    4.1198    0.0000 H   0  0  0  0  0  0  0  0  0  0  0  0
    4.6967   -0.8140    0.0000 H   0  0  0  0  0  0  0  0  0  0  0  0
    4.6134   -0.0213    0.0000 H   0  0  0  0  0  0  0  0  0  0  0  0
    2.9121   -2.8602    0.0000 H   0  0  0  0  0  0  0  0  0  0  0  0
    2.5140   -3.6415    0.0000 H   0  0  0  0  0  0  0  0  0  0  0  0
    3.2952   -4.0396    0.0000 H   0  0  0  0  0  0  0  0  0  0  0  0
    3.4608   -4.9187    0.0000 H   0  0  0  0  0  0  0  0  0  0  0  0
    6.6165   -4.0740    0.0000 H   0  0  0  0  0  0  0  0  0  0  0  0
    3.4608   -6.5387    0.0000 H   0  0  0  0  0  0  0  0  0  0  0  0
    4.8637   -7.3487    0.0000 H   0  0  0  0  0  0  0  0  0  0  0  0
    8.0655   -4.8958    0.0000 H   0  0  0  0  0  0  0  0  0  0  0  0
    8.0818   -7.2886    0.0000 H   0  0  0  0  0  0  0  0  0  0  0  0
    8.9296   -7.0649    0.0000 H   0  0  0  0  0  0  0  0  0  0  0  0
    8.7059   -6.2171    0.0000 H   0  0  0  0  0  0  0  0  0  0  0  0
  1 23  1  0  0  0  0
  1 25  1  0  0  0  0
  2 24  1  0  0  0  0
  3 24  1  0  0  0  0
  4 24  1  0  0  0  0
  5 13  1  0  0  0  0
  5 14  1  0  0  0  0
  5 16  1  0  0  0  0
  6 25  1  0  0  0  0
  6 26  1  0  0  0  0
  6 27  1  0  0  0  0
  7  8  1  0  0  0  0
  7 25  2  0  0  0  0
  8 26  2  0  0  0  0
  9 31  1  0  0  0  0
  9 36  2  0  0  0  0
 10 11  1  0  0  0  0
 10 12  1  0  0  0  0
 10 13  1  0  0  0  0
 10 15  1  0  0  0  0
 11 12  1  0  0  0  0
 11 14  1  0  0  0  0
 11 38  1  0  0  0  0
 12 39  1  0  0  0  0
 12 40  1  0  0  0  0
 13 41  1  0  0  0  0
 13 42  1  0  0  0  0
 14 43  1  0  0  0  0
 14 44  1  0  0  0  0
 15 17  2  0  0  0  0
 15 18  1  0  0  0  0
 16 19  1  0  0  0  0
 16 45  1  0  0  0  0
 16 46  1  0  0  0  0
 17 20  1  0  0  0  0
 17 47  1  0  0  0  0
 18 21  2  0  0  0  0
 18 48  1  0  0  0  0
 19 23  1  0  0  0  0
 19 49  1  0  0  0  0
 19 50  1  0  0  0  0
 20 22  2  0  0  0  0
 20 51  1  0  0  0  0
 21 22  1  0  0  0  0
 21 52  1  0  0  0  0
 22 24  1  0  0  0  0
 23 53  1  0  0  0  0
 23 54  1  0  0  0  0
 26 28  1  0  0  0  0
 27 55  1  0  0  0  0
 27 56  1  0  0  0  0
 27 57  1  0  0  0  0
 28 29  2  0  0  0  0
 28 30  1  0  0  0  0
 29 31  1  0  0  0  0
 29 32  1  0  0  0  0
 30 33  2  0  0  0  0
 30 58  1  0  0  0  0
 31 34  2  0  0  0  0
 32 35  2  0  0  0  0
 32 59  1  0  0  0  0
 33 34  1  0  0  0  0
 33 60  1  0  0  0  0
 34 61  1  0  0  0  0
 35 36  1  0  0  0  0
 35 62  1  0  0  0  0
 36 37  1  0  0  0  0
 37 63  1  0  0  0  0
 37 64  1  0  0  0  0
 37 65  1  0  0  0  0
M  END
> <PUBCHEM_COMPOUND_CID>
44626928

> <PUBCHEM_COMPOUND_CANONICALIZED>
1

> <PUBCHEM_CACTVS_COMPLEXITY>
792

> <PUBCHEM_CACTVS_HBOND_ACCEPTOR>
8

> <PUBCHEM_CACTVS_HBOND_DONOR>
0

> <PUBCHEM_CACTVS_ROTATABLE_BOND>
7

> <PUBCHEM_CACTVS_SUBSKEYS>
AAADceB7gYBAAAAAAAAAAAAAGAAAAWLAAAA8eIEAAAAAAACx/AAAHQQIAAAADwjFXxSz0PcMEAiiAyZiZACS0CthArAd2CA4ZJiIKOLgmZGEIAhgiALIyAcQgMAPwAAAQAASAACAAACAACQAAAAAAAAAAA==

> <PUBCHEM_IUPAC_OPENEYE_NAME>
2-methyl-5-[4-methyl-5-[3-[1-[4-(trifluoromethyl)phenyl]-3-azabicyclo[3.1.0]hexan-3-yl]propylsulfanyl]-1,2,4-triazol-3-yl]quinoline

> <PUBCHEM_IUPAC_CAS_NAME>
2-methyl-5-[4-methyl-5-[3-[1-[4-(trifluoromethyl)phenyl]-3-azabicyclo[3.1.0]hexan-3-yl]propylthio]-1,2,4-triazol-3-yl]quinoline

> <PUBCHEM_IUPAC_NAME_MARKUP>
2-methyl-5-[4-methyl-5-[3-[1-[4-(trifluoromethyl)phenyl]-3-azabicyclo[3.1.0]hexan-3-yl]propylsulfanyl]-1,2,4-triazol-3-yl]quinoline

> <PUBCHEM_IUPAC_NAME>
2-methyl-5-[4-methyl-5-[3-[1-[4-(trifluoromethyl)phenyl]-3-azabicyclo[3.1.0]hexan-3-yl]propylsulfanyl]-1,2,4-triazol-3-yl]quinoline

> <PUBCHEM_IUPAC_SYSTEMATIC_NAME>
2-methyl-5-[4-methyl-5-[3-[1-[4-(trifluoromethyl)phenyl]-3-azabicyclo[3.1.0]hexan-3-yl]propylsulfanyl]-1,2,4-triazol-3-yl]quinoline

> <PUBCHEM_IUPAC_TRADITIONAL_NAME>
2-methyl-5-[4-methyl-5-[3-[1-[4-(trifluoromethyl)phenyl]-3-azabicyclo[3.1.0]hexan-3-yl]propylthio]-1,2,4-triazol-3-yl]quinoline

> <PUBCHEM_IUPAC_INCHI>
InChI=1S/C28H28F3N5S/c1-18-7-12-22-23(5-3-6-24(22)32-18)25-33-34-26(35(25)2)37-14-4-13-36-16-21-15-27(21,17-36)19-8-10-20(11-9-19)28(29,30)31/h3,5-12,21H,4,13-17H2,1-2H3

> <PUBCHEM_IUPAC_INCHIKEY>
AWJOAMPQOUEKCN-UHFFFAOYSA-N

> <PUBCHEM_XLOGP3_AA>
5.8

> <PUBCHEM_EXACT_MASS>
523.20175157

> <PUBCHEM_MOLECULAR_FORMULA>
C28H28F3N5S

> <PUBCHEM_MOLECULAR_WEIGHT>
523.6

> <PUBCHEM_OPENEYE_CAN_SMILES>
CC1=NC2=CC=CC(=C2C=C1)C3=NN=C(N3C)SCCCN4CC5CC5(C4)C6=CC=C(C=C6)C(F)(F)F

> <PUBCHEM_OPENEYE_ISO_SMILES>
CC1=NC2=CC=CC(=C2C=C1)C3=NN=C(N3C)SCCCN4CC5CC5(C4)C6=CC=C(C=C6)C(F)(F)F

> <PUBCHEM_CACTVS_TPSA>
72.1

> <PUBCHEM_MONOISOTOPIC_WEIGHT>
523.20175157

> <PUBCHEM_TOTAL_CHARGE>
0

> <PUBCHEM_HEAVY_ATOM_COUNT>
37

> <PUBCHEM_ATOM_DEF_STEREO_COUNT>
0

> <PUBCHEM_ATOM_UDEF_STEREO_COUNT>
2

> <PUBCHEM_BOND_DEF_STEREO_COUNT>
0

> <PUBCHEM_BOND_UDEF_STEREO_COUNT>
0

> <PUBCHEM_ISOTOPIC_ATOM_COUNT>
0

> <PUBCHEM_COMPONENT_COUNT>
1

> <PUBCHEM_CACTVS_TAUTO_COUNT>
-1

> <PUBCHEM_COORDINATE_TYPE>
1
5
255

> <PUBCHEM_BONDANNOTATIONS>
10  15  3
11  12  3
15  17  8
15  18  8
17  20  8
18  21  8
20  22  8
21  22  8
28  29  8
28  30  8
29  31  8
29  32  8
30  33  8
31  34  8
32  35  8
33  34  8
35  36  8
6  25  8
6  26  8
7  25  8
7  8  8
8  26  8
9  31  8
9  36  8

$$$$
