45483269
  -OEChem-09292322292D

 53 57  0     1  0  0  0  0  0999 V2000
   14.5696    1.6058    0.0000 S   0  0  0  0  0  0  0  0  0  0  0  0
    2.0000    0.6054    0.0000 F   0  0  0  0  0  0  0  0  0  0  0  0
    4.7684   -1.6163    0.0000 O   0  0  0  0  0  0  0  0  0  0  0  0
   11.0395   -1.4184    0.0000 O   0  0  0  0  0  0  0  0  0  0  0  0
    8.4414    1.0816    0.0000 N   0  0  0  0  0  0  0  0  0  0  0  0
    5.7402   -1.4071    0.0000 N   0  0  0  0  0  0  0  0  0  0  0  0
   12.7994    1.6163    0.0000 N   0  0  0  0  0  0  0  0  0  0  0  0
   13.7055    0.0608    0.0000 N   0  0  0  0  0  0  0  0  0  0  0  0
    6.7093    0.0816    0.0000 C   0  0  0  0  0  0  0  0  0  0  0  0
   10.1734    1.0816    0.0000 C   0  0  3  0  0  0  0  0  0  0  0  0
    6.7093    1.0816    0.0000 C   0  0  0  0  0  0  0  0  0  0  0  0
    7.5754   -0.4184    0.0000 C   0  0  0  0  0  0  0  0  0  0  0  0
    9.3074    1.5816    0.0000 C   0  0  0  0  0  0  0  0  0  0  0  0
    7.5754    1.5816    0.0000 C   0  0  0  0  0  0  0  0  0  0  0  0
    8.4414    0.0816    0.0000 C   0  0  0  0  0  0  0  0  0  0  0  0
   11.0395    1.5816    0.0000 C   0  0  0  0  0  0  0  0  0  0  0  0
   10.1734    0.0816    0.0000 C   0  0  0  0  0  0  0  0  0  0  0  0
    5.8433   -0.4184    0.0000 C   0  0  0  0  0  0  0  0  0  0  0  0
   11.9055    1.0816    0.0000 C   0  0  0  0  0  0  0  0  0  0  0  0
   11.0395   -0.4184    0.0000 C   0  0  0  0  0  0  0  0  0  0  0  0
   11.9055    0.0816    0.0000 C   0  0  0  0  0  0  0  0  0  0  0  0
    4.9355   -0.0133    0.0000 C   0  0  0  0  0  0  0  0  0  0  0  0
    4.2677   -0.7576    0.0000 C   0  0  0  0  0  0  0  0  0  0  0  0
   12.7994   -0.4530    0.0000 C   0  0  0  0  0  0  0  0  0  0  0  0
    4.6249    0.9373    0.0000 C   0  0  0  0  0  0  0  0  0  0  0  0
    3.2892   -0.5513    0.0000 C   0  0  0  0  0  0  0  0  0  0  0  0
   13.7055    1.1024    0.0000 C   0  0  0  0  0  0  0  0  0  0  0  0
    3.6464    1.1435    0.0000 C   0  0  0  0  0  0  0  0  0  0  0  0
    2.9785    0.3992    0.0000 C   0  0  0  0  0  0  0  0  0  0  0  0
   15.4375    1.1091    0.0000 C   0  0  0  0  0  0  0  0  0  0  0  0
    6.7093   -0.5384    0.0000 H   0  0  0  0  0  0  0  0  0  0  0  0
   10.1734    1.7016    0.0000 H   0  0  0  0  0  0  0  0  0  0  0  0
    6.4973    1.6642    0.0000 H   0  0  0  0  0  0  0  0  0  0  0  0
    6.0988    0.9740    0.0000 H   0  0  0  0  0  0  0  0  0  0  0  0
    7.1768   -0.8933    0.0000 H   0  0  0  0  0  0  0  0  0  0  0  0
    7.9739   -0.8933    0.0000 H   0  0  0  0  0  0  0  0  0  0  0  0
    9.7059    2.0566    0.0000 H   0  0  0  0  0  0  0  0  0  0  0  0
    8.9089    2.0566    0.0000 H   0  0  0  0  0  0  0  0  0  0  0  0
    7.9739    2.0566    0.0000 H   0  0  0  0  0  0  0  0  0  0  0  0
    7.1768    2.0566    0.0000 H   0  0  0  0  0  0  0  0  0  0  0  0
    8.6534   -0.5010    0.0000 H   0  0  0  0  0  0  0  0  0  0  0  0
    9.0520    0.1893    0.0000 H   0  0  0  0  0  0  0  0  0  0  0  0
   11.4380    2.0566    0.0000 H   0  0  0  0  0  0  0  0  0  0  0  0
   10.6409    2.0566    0.0000 H   0  0  0  0  0  0  0  0  0  0  0  0
    9.5628    0.1893    0.0000 H   0  0  0  0  0  0  0  0  0  0  0  0
    9.9614   -0.5010    0.0000 H   0  0  0  0  0  0  0  0  0  0  0  0
   12.7923   -1.0730    0.0000 H   0  0  0  0  0  0  0  0  0  0  0  0
    5.0389    1.3987    0.0000 H   0  0  0  0  0  0  0  0  0  0  0  0
    2.8751   -1.0128    0.0000 H   0  0  0  0  0  0  0  0  0  0  0  0
    3.4537    1.7328    0.0000 H   0  0  0  0  0  0  0  0  0  0  0  0
   15.1296    0.5710    0.0000 H   0  0  0  0  0  0  0  0  0  0  0  0
   15.9757    0.8012    0.0000 H   0  0  0  0  0  0  0  0  0  0  0  0
   15.7455    1.6472    0.0000 H   0  0  0  0  0  0  0  0  0  0  0  0
  1 27  1  0  0  0  0
  1 30  1  0  0  0  0
  2 29  1  0  0  0  0
  3  6  1  0  0  0  0
  3 23  1  0  0  0  0
  4 20  2  0  0  0  0
  5 13  1  0  0  0  0
  5 14  1  0  0  0  0
  5 15  1  0  0  0  0
  6 18  2  0  0  0  0
  7 19  2  0  0  0  0
  7 27  1  0  0  0  0
  8 24  1  0  0  0  0
  8 27  2  0  0  0  0
  9 11  1  0  0  0  0
  9 12  1  0  0  0  0
  9 18  1  0  0  0  0
  9 31  1  0  0  0  0
 10 13  1  0  0  0  0
 10 16  1  0  0  0  0
 10 17  1  0  0  0  0
 10 32  1  0  0  0  0
 11 14  1  0  0  0  0
 11 33  1  0  0  0  0
 11 34  1  0  0  0  0
 12 15  1  0  0  0  0
 12 35  1  0  0  0  0
 12 36  1  0  0  0  0
 13 37  1  0  0  0  0
 13 38  1  0  0  0  0
 14 39  1  0  0  0  0
 14 40  1  0  0  0  0
 15 41  1  0  0  0  0
 15 42  1  0  0  0  0
 16 19  1  0  0  0  0
 16 43  1  0  0  0  0
 16 44  1  0  0  0  0
 17 20  1  0  0  0  0
 17 45  1  0  0  0  0
 17 46  1  0  0  0  0
 18 22  1  0  0  0  0
 19 21  1  0  0  0  0
 20 21  1  0  0  0  0
 21 24  2  0  0  0  0
 22 23  2  0  0  0  0
 22 25  1  0  0  0  0
 23 26  1  0  0  0  0
 24 47  1  0  0  0  0
 25 28  2  0  0  0  0
 25 48  1  0  0  0  0
 26 29  2  0  0  0  0
 26 49  1  0  0  0  0
 28 29  1  0  0  0  0
 28 50  1  0  0  0  0
 30 51  1  0  0  0  0
 30 52  1  0  0  0  0
 30 53  1  0  0  0  0
M  END
> <PUBCHEM_COMPOUND_CID>
45483269

> <PUBCHEM_COMPOUND_CANONICALIZED>
1

> <PUBCHEM_CACTVS_COMPLEXITY>
620

> <PUBCHEM_CACTVS_HBOND_ACCEPTOR>
8

> <PUBCHEM_CACTVS_HBOND_DONOR>
0

> <PUBCHEM_CACTVS_ROTATABLE_BOND>
4

> <PUBCHEM_CACTVS_SUBSKEYS>
AAADceB7sQBAAAAAAAAAAAAAAAAAAWAAAAA8eIEAAAAAAFix/AAAHwQEAAAADQzBngy/ltcYEAipA7R3ZgCC0Cl1IKAp2CE+TNqILrrA3dOENYhuwBvIyeecyeCeAAAAAAAIAACAAACAABQAAAAAAAAAAA==

> <PUBCHEM_IUPAC_OPENEYE_NAME>
7-[[4-(6-fluoro-1,2-benzoxazol-3-yl)-1-piperidyl]methyl]-2-methylsulfanyl-7,8-dihydro-6H-quinazolin-5-one

> <PUBCHEM_IUPAC_CAS_NAME>
7-[[4-(6-fluoro-1,2-benzoxazol-3-yl)-1-piperidinyl]methyl]-2-(methylthio)-7,8-dihydro-6H-quinazolin-5-one

> <PUBCHEM_IUPAC_NAME_MARKUP>
7-[[4-(6-fluoro-1,2-benzoxazol-3-yl)piperidin-1-yl]methyl]-2-methylsulfanyl-7,8-dihydro-6<I>H</I>-quinazolin-5-one

> <PUBCHEM_IUPAC_NAME>
7-[[4-(6-fluoro-1,2-benzoxazol-3-yl)piperidin-1-yl]methyl]-2-methylsulfanyl-7,8-dihydro-6H-quinazolin-5-one

> <PUBCHEM_IUPAC_SYSTEMATIC_NAME>
7-[[4-(6-fluoranyl-1,2-benzoxazol-3-yl)piperidin-1-yl]methyl]-2-methylsulfanyl-7,8-dihydro-6H-quinazolin-5-one

> <PUBCHEM_IUPAC_TRADITIONAL_NAME>
7-[[4-(6-fluoroindoxazen-3-yl)piperidino]methyl]-2-(methylthio)-7,8-dihydro-6H-quinazolin-5-one

> <PUBCHEM_IUPAC_INCHI>
InChI=1S/C22H23FN4O2S/c1-30-22-24-11-17-18(25-22)8-13(9-19(17)28)12-27-6-4-14(5-7-27)21-16-3-2-15(23)10-20(16)29-26-21/h2-3,10-11,13-14H,4-9,12H2,1H3

> <PUBCHEM_IUPAC_INCHIKEY>
FNRRHBXSSQNLPH-UHFFFAOYSA-N

> <PUBCHEM_XLOGP3_AA>
3.3

> <PUBCHEM_EXACT_MASS>
426.15257532

> <PUBCHEM_MOLECULAR_FORMULA>
C22H23FN4O2S

> <PUBCHEM_MOLECULAR_WEIGHT>
426.5

> <PUBCHEM_OPENEYE_CAN_SMILES>
CSC1=NC=C2C(=N1)CC(CC2=O)CN3CCC(CC3)C4=NOC5=C4C=CC(=C5)F

> <PUBCHEM_OPENEYE_ISO_SMILES>
CSC1=NC=C2C(=N1)CC(CC2=O)CN3CCC(CC3)C4=NOC5=C4C=CC(=C5)F

> <PUBCHEM_CACTVS_TPSA>
97.4

> <PUBCHEM_MONOISOTOPIC_WEIGHT>
426.15257532

> <PUBCHEM_TOTAL_CHARGE>
0

> <PUBCHEM_HEAVY_ATOM_COUNT>
30

> <PUBCHEM_ATOM_DEF_STEREO_COUNT>
0

> <PUBCHEM_ATOM_UDEF_STEREO_COUNT>
1

> <PUBCHEM_BOND_DEF_STEREO_COUNT>
0

> <PUBCHEM_BOND_UDEF_STEREO_COUNT>
0

> <PUBCHEM_ISOTOPIC_ATOM_COUNT>
0

> <PUBCHEM_COMPONENT_COUNT>
1

> <PUBCHEM_CACTVS_TAUTO_COUNT>
-1

> <PUBCHEM_COORDINATE_TYPE>
1
5
255

> <PUBCHEM_BONDANNOTATIONS>
10  13  3
18  22  8
19  21  8
21  24  8
22  23  8
22  25  8
23  26  8
25  28  8
26  29  8
28  29  8
3  23  8
3  6  8
6  18  8
7  19  8
7  27  8
8  24  8
8  27  8

$$$$
