11545813
  -OEChem-09292322232D

 54 57  0     1  0  0  0  0  0999 V2000
    2.0000   -6.3917    0.0000 Cl  0  0  0  0  0  0  0  0  0  0  0  0
    4.1540    6.3917    0.0000 F   0  0  0  0  0  0  0  0  0  0  0  0
    7.1540    2.9276    0.0000 O   0  0  0  0  0  0  0  0  0  0  0  0
    6.1540   -0.5365    0.0000 N   0  0  3  0  0  0  0  0  0  0  0  0
    4.5712   -3.3275    0.0000 N   0  0  3  0  0  0  0  0  0  0  0  0
    6.8906   -1.5192    0.0000 C   0  0  3  0  0  0  0  0  0  0  0  0
    6.6318   -2.4851    0.0000 C   0  0  3  0  0  0  0  0  0  0  0  0
    8.2895   -2.0280    0.0000 C   0  0  0  0  0  0  0  0  0  0  0  0
    8.0307   -2.9939    0.0000 C   0  0  0  0  0  0  0  0  0  0  0  0
    4.8719   -1.6217    0.0000 C   0  0  0  0  0  0  0  0  0  0  0  0
    5.5560   -3.5011    0.0000 C   0  0  0  0  0  0  0  0  0  0  0  0
    4.2291   -2.3878    0.0000 C   0  0  0  0  0  0  0  0  0  0  0  0
    5.6540    0.3295    0.0000 C   0  0  0  0  0  0  0  0  0  0  0  0
    6.1540    1.1955    0.0000 C   0  0  0  0  0  0  0  0  0  0  0  0
    3.9284   -4.0935    0.0000 C   0  0  0  0  0  0  0  0  0  0  0  0
    5.6540    2.0615    0.0000 C   0  0  0  0  0  0  0  0  0  0  0  0
    2.9436   -3.9199    0.0000 C   0  0  0  0  0  0  0  0  0  0  0  0
    4.2704   -5.0332    0.0000 C   0  0  0  0  0  0  0  0  0  0  0  0
    6.1540    2.9276    0.0000 C   0  0  0  0  0  0  0  0  0  0  0  0
    2.3008   -4.6859    0.0000 C   0  0  0  0  0  0  0  0  0  0  0  0
    3.6276   -5.7993    0.0000 C   0  0  0  0  0  0  0  0  0  0  0  0
    2.6428   -5.6256    0.0000 C   0  0  0  0  0  0  0  0  0  0  0  0
    5.6540    3.7936    0.0000 C   0  0  0  0  0  0  0  0  0  0  0  0
    6.1540    4.6596    0.0000 C   0  0  0  0  0  0  0  0  0  0  0  0
    4.6540    3.7936    0.0000 C   0  0  0  0  0  0  0  0  0  0  0  0
    5.6540    5.5256    0.0000 C   0  0  0  0  0  0  0  0  0  0  0  0
    4.1540    4.6596    0.0000 C   0  0  0  0  0  0  0  0  0  0  0  0
    4.6540    5.5256    0.0000 C   0  0  0  0  0  0  0  0  0  0  0  0
    7.2599   -1.0212    0.0000 H   0  0  0  0  0  0  0  0  0  0  0  0
    6.7574   -3.0922    0.0000 H   0  0  0  0  0  0  0  0  0  0  0  0
    8.8835   -2.2058    0.0000 H   0  0  0  0  0  0  0  0  0  0  0  0
    8.4844   -1.4394    0.0000 H   0  0  0  0  0  0  0  0  0  0  0  0
    7.8358   -3.5825    0.0000 H   0  0  0  0  0  0  0  0  0  0  0  0
    8.6247   -3.1717    0.0000 H   0  0  0  0  0  0  0  0  0  0  0  0
    4.9944   -1.0140    0.0000 H   0  0  0  0  0  0  0  0  0  0  0  0
    4.3132   -1.3529    0.0000 H   0  0  0  0  0  0  0  0  0  0  0  0
    5.3216   -4.0751    0.0000 H   0  0  0  0  0  0  0  0  0  0  0  0
    6.0674   -3.8516    0.0000 H   0  0  0  0  0  0  0  0  0  0  0  0
    3.8306   -1.9128    0.0000 H   0  0  0  0  0  0  0  0  0  0  0  0
    3.6922   -2.6978    0.0000 H   0  0  0  0  0  0  0  0  0  0  0  0
    5.1790    0.7280    0.0000 H   0  0  0  0  0  0  0  0  0  0  0  0
    5.1790   -0.0690    0.0000 H   0  0  0  0  0  0  0  0  0  0  0  0
    6.6289    0.7970    0.0000 H   0  0  0  0  0  0  0  0  0  0  0  0
    6.6289    1.5940    0.0000 H   0  0  0  0  0  0  0  0  0  0  0  0
    5.1790    2.4601    0.0000 H   0  0  0  0  0  0  0  0  0  0  0  0
    5.1790    1.6630    0.0000 H   0  0  0  0  0  0  0  0  0  0  0  0
    2.7315   -3.3373    0.0000 H   0  0  0  0  0  0  0  0  0  0  0  0
    4.8810   -5.1409    0.0000 H   0  0  0  0  0  0  0  0  0  0  0  0
    1.6902   -4.5783    0.0000 H   0  0  0  0  0  0  0  0  0  0  0  0
    3.8396   -6.3819    0.0000 H   0  0  0  0  0  0  0  0  0  0  0  0
    6.7740    4.6596    0.0000 H   0  0  0  0  0  0  0  0  0  0  0  0
    4.3440    3.2566    0.0000 H   0  0  0  0  0  0  0  0  0  0  0  0
    5.9640    6.0626    0.0000 H   0  0  0  0  0  0  0  0  0  0  0  0
    3.5340    4.6596    0.0000 H   0  0  0  0  0  0  0  0  0  0  0  0
  1 22  1  0  0  0  0
  2 28  1  0  0  0  0
  3 19  2  0  0  0  0
  4  6  1  0  0  0  0
  4  7  1  0  0  0  0
  4 13  1  0  0  0  0
  5 11  1  0  0  0  0
  5 12  1  0  0  0  0
  5 15  1  0  0  0  0
  6  8  1  0  0  0  0
  6 10  1  0  0  0  0
  6 29  1  0  0  0  0
  7  9  1  0  0  0  0
  7 11  1  0  0  0  0
  7 30  1  0  0  0  0
  8  9  1  0  0  0  0
  8 31  1  0  0  0  0
  8 32  1  0  0  0  0
  9 33  1  0  0  0  0
  9 34  1  0  0  0  0
 10 12  1  0  0  0  0
 10 35  1  0  0  0  0
 10 36  1  0  0  0  0
 11 37  1  0  0  0  0
 11 38  1  0  0  0  0
 12 39  1  0  0  0  0
 12 40  1  0  0  0  0
 13 14  1  0  0  0  0
 13 41  1  0  0  0  0
 13 42  1  0  0  0  0
 14 16  1  0  0  0  0
 14 43  1  0  0  0  0
 14 44  1  0  0  0  0
 15 17  2  0  0  0  0
 15 18  1  0  0  0  0
 16 19  1  0  0  0  0
 16 45  1  0  0  0  0
 16 46  1  0  0  0  0
 17 20  1  0  0  0  0
 17 47  1  0  0  0  0
 18 21  2  0  0  0  0
 18 48  1  0  0  0  0
 19 23  1  0  0  0  0
 20 22  2  0  0  0  0
 20 49  1  0  0  0  0
 21 22  1  0  0  0  0
 21 50  1  0  0  0  0
 23 24  2  0  0  0  0
 23 25  1  0  0  0  0
 24 26  1  0  0  0  0
 24 51  1  0  0  0  0
 25 27  2  0  0  0  0
 25 52  1  0  0  0  0
 26 28  2  0  0  0  0
 26 53  1  0  0  0  0
 27 28  1  0  0  0  0
 27 54  1  0  0  0  0
M  END
> <PUBCHEM_COMPOUND_CID>
11545813

> <PUBCHEM_COMPOUND_CANONICALIZED>
1

> <PUBCHEM_CACTVS_COMPLEXITY>
517

> <PUBCHEM_CACTVS_HBOND_ACCEPTOR>
4

> <PUBCHEM_CACTVS_HBOND_DONOR>
0

> <PUBCHEM_CACTVS_ROTATABLE_BOND>
6

> <PUBCHEM_CACTVS_SUBSKEYS>
AAADceB7IQAEAAAAAAAAAAAAAAAAAWAAAAAwYAAABYAWAAABQAAAHwIAAAAADC7BmCwwwIMAAACIAqRSQACCAAAlBwAIiAEIZsgIYDLB15GUIQhggADIyYcciICOAABAAAAAAAAAAIAAAAAAAAAAAAAAAA==

> <PUBCHEM_IUPAC_OPENEYE_NAME>
4-[3-(4-chlorophenyl)-3,9-diazabicyclo[4.2.1]nonan-9-yl]-1-(4-fluorophenyl)butan-1-one

> <PUBCHEM_IUPAC_CAS_NAME>
4-[3-(4-chlorophenyl)-3,9-diazabicyclo[4.2.1]nonan-9-yl]-1-(4-fluorophenyl)-1-butanone

> <PUBCHEM_IUPAC_NAME_MARKUP>
4-[3-(4-chlorophenyl)-3,9-diazabicyclo[4.2.1]nonan-9-yl]-1-(4-fluorophenyl)butan-1-one

> <PUBCHEM_IUPAC_NAME>
4-[3-(4-chlorophenyl)-3,9-diazabicyclo[4.2.1]nonan-9-yl]-1-(4-fluorophenyl)butan-1-one

> <PUBCHEM_IUPAC_SYSTEMATIC_NAME>
4-[3-(4-chlorophenyl)-3,9-diazabicyclo[4.2.1]nonan-9-yl]-1-(4-fluorophenyl)butan-1-one

> <PUBCHEM_IUPAC_TRADITIONAL_NAME>
4-[3-(4-chlorophenyl)-3,9-diazabicyclo[4.2.1]nonan-9-yl]-1-(4-fluorophenyl)butan-1-one

> <PUBCHEM_IUPAC_INCHI>
InChI=1S/C23H26ClFN2O/c24-18-5-9-20(10-6-18)26-15-13-21-11-12-22(16-26)27(21)14-1-2-23(28)17-3-7-19(25)8-4-17/h3-10,21-22H,1-2,11-16H2

> <PUBCHEM_IUPAC_INCHIKEY>
YWOYXYWGFUHWBM-UHFFFAOYSA-N

> <PUBCHEM_XLOGP3_AA>
5.2

> <PUBCHEM_EXACT_MASS>
400.1717693

> <PUBCHEM_MOLECULAR_FORMULA>
C23H26ClFN2O

> <PUBCHEM_MOLECULAR_WEIGHT>
400.9

> <PUBCHEM_OPENEYE_CAN_SMILES>
C1CC2CN(CCC1N2CCCC(=O)C3=CC=C(C=C3)F)C4=CC=C(C=C4)Cl

> <PUBCHEM_OPENEYE_ISO_SMILES>
C1CC2CN(CCC1N2CCCC(=O)C3=CC=C(C=C3)F)C4=CC=C(C=C4)Cl

> <PUBCHEM_CACTVS_TPSA>
23.6

> <PUBCHEM_MONOISOTOPIC_WEIGHT>
400.1717693

> <PUBCHEM_TOTAL_CHARGE>
0

> <PUBCHEM_HEAVY_ATOM_COUNT>
28

> <PUBCHEM_ATOM_DEF_STEREO_COUNT>
0

> <PUBCHEM_ATOM_UDEF_STEREO_COUNT>
2

> <PUBCHEM_BOND_DEF_STEREO_COUNT>
0

> <PUBCHEM_BOND_UDEF_STEREO_COUNT>
0

> <PUBCHEM_ISOTOPIC_ATOM_COUNT>
0

> <PUBCHEM_COMPONENT_COUNT>
1

> <PUBCHEM_CACTVS_TAUTO_COUNT>
-1

> <PUBCHEM_COORDINATE_TYPE>
1
5
255

> <PUBCHEM_BONDANNOTATIONS>
15  17  8
15  18  8
17  20  8
18  21  8
20  22  8
21  22  8
23  24  8
23  25  8
24  26  8
25  27  8
26  28  8
27  28  8
6  8  3
7  9  3

$$$$
