11857864
  -OEChem-09292322242D

 76 79  0     0  0  0  0  0  0999 V2000
    4.5981   -1.2500    0.0000 S   0  0  0  0  0  0  0  0  0  0  0  0
   11.5263    5.7500    0.0000 F   0  0  0  0  0  0  0  0  0  0  0  0
   11.5263    1.7500    0.0000 O   0  0  0  0  0  0  0  0  0  0  0  0
    5.5981   -1.2500    0.0000 O   0  0  0  0  0  0  0  0  0  0  0  0
    3.5981   -1.2500    0.0000 O   0  0  0  0  0  0  0  0  0  0  0  0
    2.8660   -4.2500    0.0000 O   0  0  0  0  0  0  0  0  0  0  0  0
    4.5981   -5.2500    0.0000 O   0  0  0  0  0  0  0  0  0  0  0  0
    8.0622    1.7500    0.0000 N   0  0  0  0  0  0  0  0  0  0  0  0
    4.5981   -0.2500    0.0000 N   0  0  0  0  0  0  0  0  0  0  0  0
    7.1962    1.2500    0.0000 C   0  0  0  0  0  0  0  0  0  0  0  0
    7.1962    0.2500    0.0000 C   0  0  0  0  0  0  0  0  0  0  0  0
    6.3301    1.7500    0.0000 C   0  0  0  0  0  0  0  0  0  0  0  0
    5.4641    0.2500    0.0000 C   0  0  0  0  0  0  0  0  0  0  0  0
    6.3301   -0.2500    0.0000 C   0  0  0  0  0  0  0  0  0  0  0  0
    5.4641    1.2500    0.0000 C   0  0  0  0  0  0  0  0  0  0  0  0
    8.9282    1.2500    0.0000 C   0  0  0  0  0  0  0  0  0  0  0  0
    8.0622    2.7500    0.0000 C   0  0  0  0  0  0  0  0  0  0  0  0
    9.7942    2.7500    0.0000 C   0  0  0  0  0  0  0  0  0  0  0  0
    9.7942    1.7500    0.0000 C   0  0  0  0  0  0  0  0  0  0  0  0
    8.9282    3.2500    0.0000 C   0  0  0  0  0  0  0  0  0  0  0  0
   10.6603    3.2500    0.0000 C   0  0  0  0  0  0  0  0  0  0  0  0
   11.5263    2.7500    0.0000 C   0  0  0  0  0  0  0  0  0  0  0  0
   10.6603    4.2500    0.0000 C   0  0  0  0  0  0  0  0  0  0  0  0
    4.5981   -2.2500    0.0000 C   0  0  0  0  0  0  0  0  0  0  0  0
   12.3923    3.2500    0.0000 C   0  0  0  0  0  0  0  0  0  0  0  0
   11.5263    4.7500    0.0000 C   0  0  0  0  0  0  0  0  0  0  0  0
   12.3923    4.2500    0.0000 C   0  0  0  0  0  0  0  0  0  0  0  0
    3.7320   -2.7500    0.0000 C   0  0  0  0  0  0  0  0  0  0  0  0
    5.4641   -2.7500    0.0000 C   0  0  0  0  0  0  0  0  0  0  0  0
   12.3923    1.2500    0.0000 C   0  0  0  0  0  0  0  0  0  0  0  0
    3.7320   -3.7500    0.0000 C   0  0  0  0  0  0  0  0  0  0  0  0
    5.4641   -3.7500    0.0000 C   0  0  0  0  0  0  0  0  0  0  0  0
   12.3923    0.2500    0.0000 C   0  0  0  0  0  0  0  0  0  0  0  0
   13.2583    1.7500    0.0000 C   0  0  0  0  0  0  0  0  0  0  0  0
    4.5981   -4.2500    0.0000 C   0  0  0  0  0  0  0  0  0  0  0  0
    2.0000   -3.7500    0.0000 C   0  0  0  0  0  0  0  0  0  0  0  0
    5.4641   -5.7500    0.0000 C   0  0  0  0  0  0  0  0  0  0  0  0
    7.7331    0.9400    0.0000 H   0  0  0  0  0  0  0  0  0  0  0  0
    7.4082   -0.3326    0.0000 H   0  0  0  0  0  0  0  0  0  0  0  0
    7.8067    0.3577    0.0000 H   0  0  0  0  0  0  0  0  0  0  0  0
    6.7287    2.2250    0.0000 H   0  0  0  0  0  0  0  0  0  0  0  0
    5.9316    2.2250    0.0000 H   0  0  0  0  0  0  0  0  0  0  0  0
    5.4641   -0.3700    0.0000 H   0  0  0  0  0  0  0  0  0  0  0  0
    5.9316   -0.7249    0.0000 H   0  0  0  0  0  0  0  0  0  0  0  0
    6.7287   -0.7249    0.0000 H   0  0  0  0  0  0  0  0  0  0  0  0
    5.2520    1.8326    0.0000 H   0  0  0  0  0  0  0  0  0  0  0  0
    4.8535    1.1423    0.0000 H   0  0  0  0  0  0  0  0  0  0  0  0
    8.5297    0.7751    0.0000 H   0  0  0  0  0  0  0  0  0  0  0  0
    9.3267    0.7751    0.0000 H   0  0  0  0  0  0  0  0  0  0  0  0
    7.8501    3.3326    0.0000 H   0  0  0  0  0  0  0  0  0  0  0  0
    7.4516    2.6423    0.0000 H   0  0  0  0  0  0  0  0  0  0  0  0
    9.7942    3.3700    0.0000 H   0  0  0  0  0  0  0  0  0  0  0  0
   10.0063    1.1674    0.0000 H   0  0  0  0  0  0  0  0  0  0  0  0
   10.4048    1.8577    0.0000 H   0  0  0  0  0  0  0  0  0  0  0  0
    9.3267    3.7250    0.0000 H   0  0  0  0  0  0  0  0  0  0  0  0
    8.5297    3.7250    0.0000 H   0  0  0  0  0  0  0  0  0  0  0  0
    4.0611    0.0600    0.0000 H   0  0  0  0  0  0  0  0  0  0  0  0
   10.1233    4.5600    0.0000 H   0  0  0  0  0  0  0  0  0  0  0  0
   12.9292    2.9400    0.0000 H   0  0  0  0  0  0  0  0  0  0  0  0
   12.9292    4.5600    0.0000 H   0  0  0  0  0  0  0  0  0  0  0  0
    3.1951   -2.4400    0.0000 H   0  0  0  0  0  0  0  0  0  0  0  0
    6.0010   -2.4400    0.0000 H   0  0  0  0  0  0  0  0  0  0  0  0
   11.8554    0.9400    0.0000 H   0  0  0  0  0  0  0  0  0  0  0  0
    6.0010   -4.0600    0.0000 H   0  0  0  0  0  0  0  0  0  0  0  0
   11.7723    0.2500    0.0000 H   0  0  0  0  0  0  0  0  0  0  0  0
   12.3923   -0.3700    0.0000 H   0  0  0  0  0  0  0  0  0  0  0  0
   13.0123    0.2500    0.0000 H   0  0  0  0  0  0  0  0  0  0  0  0
   13.5683    1.2131    0.0000 H   0  0  0  0  0  0  0  0  0  0  0  0
   13.7953    2.0600    0.0000 H   0  0  0  0  0  0  0  0  0  0  0  0
   12.9483    2.2869    0.0000 H   0  0  0  0  0  0  0  0  0  0  0  0
    2.3100   -3.2131    0.0000 H   0  0  0  0  0  0  0  0  0  0  0  0
    1.4631   -3.4400    0.0000 H   0  0  0  0  0  0  0  0  0  0  0  0
    1.6900   -4.2869    0.0000 H   0  0  0  0  0  0  0  0  0  0  0  0
    5.1541   -6.2869    0.0000 H   0  0  0  0  0  0  0  0  0  0  0  0
    6.0010   -6.0600    0.0000 H   0  0  0  0  0  0  0  0  0  0  0  0
    5.7741   -5.2131    0.0000 H   0  0  0  0  0  0  0  0  0  0  0  0
  1  4  2  0  0  0  0
  1  5  2  0  0  0  0
  1  9  1  0  0  0  0
  1 24  1  0  0  0  0
  2 26  1  0  0  0  0
  3 22  1  0  0  0  0
  3 30  1  0  0  0  0
  6 31  1  0  0  0  0
  6 36  1  0  0  0  0
  7 35  1  0  0  0  0
  7 37  1  0  0  0  0
  8 10  1  0  0  0  0
  8 16  1  0  0  0  0
  8 17  1  0  0  0  0
  9 13  1  0  0  0  0
  9 57  1  0  0  0  0
 10 11  1  0  0  0  0
 10 12  1  0  0  0  0
 10 38  1  0  0  0  0
 11 14  1  0  0  0  0
 11 39  1  0  0  0  0
 11 40  1  0  0  0  0
 12 15  1  0  0  0  0
 12 41  1  0  0  0  0
 12 42  1  0  0  0  0
 13 14  1  0  0  0  0
 13 15  1  0  0  0  0
 13 43  1  0  0  0  0
 14 44  1  0  0  0  0
 14 45  1  0  0  0  0
 15 46  1  0  0  0  0
 15 47  1  0  0  0  0
 16 19  1  0  0  0  0
 16 48  1  0  0  0  0
 16 49  1  0  0  0  0
 17 20  1  0  0  0  0
 17 50  1  0  0  0  0
 17 51  1  0  0  0  0
 18 19  1  0  0  0  0
 18 20  1  0  0  0  0
 18 21  1  0  0  0  0
 18 52  1  0  0  0  0
 19 53  1  0  0  0  0
 19 54  1  0  0  0  0
 20 55  1  0  0  0  0
 20 56  1  0  0  0  0
 21 22  2  0  0  0  0
 21 23  1  0  0  0  0
 22 25  1  0  0  0  0
 23 26  2  0  0  0  0
 23 58  1  0  0  0  0
 24 28  2  0  0  0  0
 24 29  1  0  0  0  0
 25 27  2  0  0  0  0
 25 59  1  0  0  0  0
 26 27  1  0  0  0  0
 27 60  1  0  0  0  0
 28 31  1  0  0  0  0
 28 61  1  0  0  0  0
 29 32  2  0  0  0  0
 29 62  1  0  0  0  0
 30 33  1  0  0  0  0
 30 34  1  0  0  0  0
 30 63  1  0  0  0  0
 31 35  2  0  0  0  0
 32 35  1  0  0  0  0
 32 64  1  0  0  0  0
 33 65  1  0  0  0  0
 33 66  1  0  0  0  0
 33 67  1  0  0  0  0
 34 68  1  0  0  0  0
 34 69  1  0  0  0  0
 34 70  1  0  0  0  0
 36 71  1  0  0  0  0
 36 72  1  0  0  0  0
 36 73  1  0  0  0  0
 37 74  1  0  0  0  0
 37 75  1  0  0  0  0
 37 76  1  0  0  0  0
M  END
> <PUBCHEM_COMPOUND_CID>
11857864

> <PUBCHEM_COMPOUND_CANONICALIZED>
1

> <PUBCHEM_CACTVS_COMPLEXITY>
793

> <PUBCHEM_CACTVS_HBOND_ACCEPTOR>
8

> <PUBCHEM_CACTVS_HBOND_DONOR>
1

> <PUBCHEM_CACTVS_ROTATABLE_BOND>
9

> <PUBCHEM_CACTVS_SUBSKEYS>
AAADcfB7OQBAAAAAAAAAAAAAAAAAAAAAAAA8YMEAAAAAAAABQAAAHwQQQAAADTzh2A4yB4NABAKAAiBCAHBCCBAgIAAIiJgOiIgNJiKEsRqGOCKk0BGKqAeQ0OIOgIAABAAIQAABAQAIABCAAAAAAAAAAA==

> <PUBCHEM_IUPAC_OPENEYE_NAME>
N-[4-[4-(5-fluoro-2-isopropoxy-phenyl)-1-piperidyl]cyclohexyl]-3,4-dimethoxy-benzenesulfonamide

> <PUBCHEM_IUPAC_CAS_NAME>
N-[4-[4-(5-fluoro-2-propan-2-yloxyphenyl)-1-piperidinyl]cyclohexyl]-3,4-dimethoxybenzenesulfonamide

> <PUBCHEM_IUPAC_NAME_MARKUP>
<I>N</I>-[4-[4-(5-fluoro-2-propan-2-yloxyphenyl)piperidin-1-yl]cyclohexyl]-3,4-dimethoxybenzenesulfonamide

> <PUBCHEM_IUPAC_NAME>
N-[4-[4-(5-fluoro-2-propan-2-yloxyphenyl)piperidin-1-yl]cyclohexyl]-3,4-dimethoxybenzenesulfonamide

> <PUBCHEM_IUPAC_SYSTEMATIC_NAME>
N-[4-[4-(5-fluoranyl-2-propan-2-yloxy-phenyl)piperidin-1-yl]cyclohexyl]-3,4-dimethoxy-benzenesulfonamide

> <PUBCHEM_IUPAC_TRADITIONAL_NAME>
N-[4-[4-(5-fluoro-2-isopropoxy-phenyl)piperidino]cyclohexyl]-3,4-dimethoxy-benzenesulfonamide

> <PUBCHEM_IUPAC_INCHI>
InChI=1S/C28H39FN2O5S/c1-19(2)36-26-11-5-21(29)17-25(26)20-13-15-31(16-14-20)23-8-6-22(7-9-23)30-37(32,33)24-10-12-27(34-3)28(18-24)35-4/h5,10-12,17-20,22-23,30H,6-9,13-16H2,1-4H3

> <PUBCHEM_IUPAC_INCHIKEY>
AEJCTJSNUNXYQL-UHFFFAOYSA-N

> <PUBCHEM_XLOGP3_AA>
5.3

> <PUBCHEM_EXACT_MASS>
534.25637168

> <PUBCHEM_MOLECULAR_FORMULA>
C28H39FN2O5S

> <PUBCHEM_MOLECULAR_WEIGHT>
534.7

> <PUBCHEM_OPENEYE_CAN_SMILES>
CC(C)OC1=C(C=C(C=C1)F)C2CCN(CC2)C3CCC(CC3)NS(=O)(=O)C4=CC(=C(C=C4)OC)OC

> <PUBCHEM_OPENEYE_ISO_SMILES>
CC(C)OC1=C(C=C(C=C1)F)C2CCN(CC2)C3CCC(CC3)NS(=O)(=O)C4=CC(=C(C=C4)OC)OC

> <PUBCHEM_CACTVS_TPSA>
85.5

> <PUBCHEM_MONOISOTOPIC_WEIGHT>
534.25637168

> <PUBCHEM_TOTAL_CHARGE>
0

> <PUBCHEM_HEAVY_ATOM_COUNT>
37

> <PUBCHEM_ATOM_DEF_STEREO_COUNT>
0

> <PUBCHEM_ATOM_UDEF_STEREO_COUNT>
0

> <PUBCHEM_BOND_DEF_STEREO_COUNT>
0

> <PUBCHEM_BOND_UDEF_STEREO_COUNT>
0

> <PUBCHEM_ISOTOPIC_ATOM_COUNT>
0

> <PUBCHEM_COMPONENT_COUNT>
1

> <PUBCHEM_CACTVS_TAUTO_COUNT>
-1

> <PUBCHEM_COORDINATE_TYPE>
1
5
255

> <PUBCHEM_BONDANNOTATIONS>
21  22  8
21  23  8
22  25  8
23  26  8
24  28  8
24  29  8
25  27  8
26  27  8
28  31  8
29  32  8
31  35  8
32  35  8

$$$$
