137660395
  -OEChem-09292322022D

 75 78  0     1  0  0  0  0  0999 V2000
    4.8714   -4.1699    0.0000 O   0  0  0  0  0  0  0  0  0  0  0  0
    2.4637    2.7930    0.0000 O   0  0  0  0  0  0  0  0  0  0  0  0
    4.6660   -5.9155    0.0000 N   0  0  0  0  0  0  0  0  0  0  0  0
    3.3073   -4.9716    0.0000 N   0  0  0  0  0  0  0  0  0  0  0  0
    6.3981   -7.9155    0.0000 N   0  0  0  0  0  0  0  0  0  0  0  0
    5.5321   -7.4155    0.0000 C   0  0  1  0  0  0  0  0  0  0  0  0
    3.8000   -6.4155    0.0000 C   0  0  0  0  0  0  0  0  0  0  0  0
    5.5321   -6.4155    0.0000 C   0  0  0  0  0  0  0  0  0  0  0  0
    4.6660   -7.9155    0.0000 C   0  0  0  0  0  0  0  0  0  0  0  0
    3.8000   -7.4155    0.0000 C   0  0  0  0  0  0  0  0  0  0  0  0
    2.9061   -5.8808    0.0000 C   0  0  0  0  0  0  0  0  0  0  0  0
    4.3009   -4.9912    0.0000 C   0  0  0  0  0  0  0  0  0  0  0  0
    2.7696   -4.1285    0.0000 C   0  0  0  0  0  0  0  0  0  0  0  0
    3.2308   -3.2412    0.0000 C   0  0  0  0  0  0  0  0  0  0  0  0
    2.9061   -7.9501    0.0000 C   0  0  0  0  0  0  0  0  0  0  0  0
    2.0000   -6.3947    0.0000 C   0  0  0  0  0  0  0  0  0  0  0  0
    2.6931   -2.3981    0.0000 C   0  0  0  0  0  0  0  0  0  0  0  0
    2.0000   -7.4363    0.0000 C   0  0  0  0  0  0  0  0  0  0  0  0
    3.1544   -1.5108    0.0000 C   0  0  0  0  0  0  0  0  0  0  0  0
    2.6166   -0.6677    0.0000 C   0  0  0  0  0  0  0  0  0  0  0  0
    6.3981   -8.9155    0.0000 C   0  0  0  0  0  0  0  0  0  0  0  0
    3.0779    0.2195    0.0000 C   0  0  0  0  0  0  0  0  0  0  0  0
    2.5401    1.0626    0.0000 C   0  0  0  0  0  0  0  0  0  0  0  0
    3.0014    1.9499    0.0000 C   0  0  0  0  0  0  0  0  0  0  0  0
    2.9250    3.6802    0.0000 C   0  0  0  0  0  0  0  0  0  0  0  0
    2.3872    4.5233    0.0000 C   0  0  0  0  0  0  0  0  0  0  0  0
    2.8485    5.4106    0.0000 C   0  0  0  0  0  0  0  0  0  0  0  0
    2.3107    6.2537    0.0000 C   0  0  0  0  0  0  0  0  0  0  0  0
    2.7720    7.1410    0.0000 C   0  0  0  0  0  0  0  0  0  0  0  0
    2.2343    7.9841    0.0000 C   0  0  0  0  0  0  0  0  0  0  0  0
    3.7710    7.1851    0.0000 C   0  0  0  0  0  0  0  0  0  0  0  0
    2.6956    8.8713    0.0000 C   0  0  0  0  0  0  0  0  0  0  0  0
    4.2323    8.0724    0.0000 C   0  0  0  0  0  0  0  0  0  0  0  0
    3.6946    8.9155    0.0000 C   0  0  0  0  0  0  0  0  0  0  0  0
    5.5321   -8.0355    0.0000 H   0  0  0  0  0  0  0  0  0  0  0  0
    6.1426   -6.5231    0.0000 H   0  0  0  0  0  0  0  0  0  0  0  0
    5.7441   -5.8329    0.0000 H   0  0  0  0  0  0  0  0  0  0  0  0
    4.2675   -8.3904    0.0000 H   0  0  0  0  0  0  0  0  0  0  0  0
    5.0646   -8.3904    0.0000 H   0  0  0  0  0  0  0  0  0  0  0  0
    2.2775   -3.7513    0.0000 H   0  0  0  0  0  0  0  0  0  0  0  0
    2.3127   -4.5476    0.0000 H   0  0  0  0  0  0  0  0  0  0  0  0
    3.7229   -3.6184    0.0000 H   0  0  0  0  0  0  0  0  0  0  0  0
    3.6877   -2.8221    0.0000 H   0  0  0  0  0  0  0  0  0  0  0  0
    6.9350   -7.6055    0.0000 H   0  0  0  0  0  0  0  0  0  0  0  0
    2.9132   -8.5701    0.0000 H   0  0  0  0  0  0  0  0  0  0  0  0
    1.4643   -6.0826    0.0000 H   0  0  0  0  0  0  0  0  0  0  0  0
    2.2010   -2.0209    0.0000 H   0  0  0  0  0  0  0  0  0  0  0  0
    2.2362   -2.8172    0.0000 H   0  0  0  0  0  0  0  0  0  0  0  0
    1.4643   -7.7484    0.0000 H   0  0  0  0  0  0  0  0  0  0  0  0
    3.6464   -1.8880    0.0000 H   0  0  0  0  0  0  0  0  0  0  0  0
    3.6112   -1.0918    0.0000 H   0  0  0  0  0  0  0  0  0  0  0  0
    2.1245   -0.2906    0.0000 H   0  0  0  0  0  0  0  0  0  0  0  0
    2.1597   -1.0869    0.0000 H   0  0  0  0  0  0  0  0  0  0  0  0
    5.7781   -8.9155    0.0000 H   0  0  0  0  0  0  0  0  0  0  0  0
    6.3981   -9.5355    0.0000 H   0  0  0  0  0  0  0  0  0  0  0  0
    7.0181   -8.9155    0.0000 H   0  0  0  0  0  0  0  0  0  0  0  0
    3.5700   -0.1577    0.0000 H   0  0  0  0  0  0  0  0  0  0  0  0
    3.5348    0.6386    0.0000 H   0  0  0  0  0  0  0  0  0  0  0  0
    2.0481    1.4398    0.0000 H   0  0  0  0  0  0  0  0  0  0  0  0
    2.0832    0.6435    0.0000 H   0  0  0  0  0  0  0  0  0  0  0  0
    3.4935    1.5727    0.0000 H   0  0  0  0  0  0  0  0  0  0  0  0
    3.4583    2.3690    0.0000 H   0  0  0  0  0  0  0  0  0  0  0  0
    3.4170    3.3031    0.0000 H   0  0  0  0  0  0  0  0  0  0  0  0
    3.3818    4.0993    0.0000 H   0  0  0  0  0  0  0  0  0  0  0  0
    1.8951    4.9005    0.0000 H   0  0  0  0  0  0  0  0  0  0  0  0
    1.9303    4.1042    0.0000 H   0  0  0  0  0  0  0  0  0  0  0  0
    3.3406    5.0334    0.0000 H   0  0  0  0  0  0  0  0  0  0  0  0
    3.3054    5.8297    0.0000 H   0  0  0  0  0  0  0  0  0  0  0  0
    1.8187    6.6309    0.0000 H   0  0  0  0  0  0  0  0  0  0  0  0
    1.8538    5.8346    0.0000 H   0  0  0  0  0  0  0  0  0  0  0  0
    1.6149    7.9567    0.0000 H   0  0  0  0  0  0  0  0  0  0  0  0
    4.1044    6.6624    0.0000 H   0  0  0  0  0  0  0  0  0  0  0  0
    2.3622    9.3940    0.0000 H   0  0  0  0  0  0  0  0  0  0  0  0
    4.8517    8.0997    0.0000 H   0  0  0  0  0  0  0  0  0  0  0  0
    3.9806    9.4656    0.0000 H   0  0  0  0  0  0  0  0  0  0  0  0
  1 12  2  0  0  0  0
  2 24  1  0  0  0  0
  2 25  1  0  0  0  0
  3  7  1  0  0  0  0
  3  8  1  0  0  0  0
  3 12  1  0  0  0  0
  4 11  1  0  0  0  0
  4 12  1  0  0  0  0
  4 13  1  0  0  0  0
  6  5  1  6  0  0  0
  5 21  1  0  0  0  0
  5 44  1  0  0  0  0
  6  8  1  0  0  0  0
  6  9  1  0  0  0  0
  6 35  1  0  0  0  0
  7 10  2  0  0  0  0
  7 11  1  0  0  0  0
  8 36  1  0  0  0  0
  8 37  1  0  0  0  0
  9 10  1  0  0  0  0
  9 38  1  0  0  0  0
  9 39  1  0  0  0  0
 10 15  1  0  0  0  0
 11 16  2  0  0  0  0
 13 14  1  0  0  0  0
 13 40  1  0  0  0  0
 13 41  1  0  0  0  0
 14 17  1  0  0  0  0
 14 42  1  0  0  0  0
 14 43  1  0  0  0  0
 15 18  2  0  0  0  0
 15 45  1  0  0  0  0
 16 18  1  0  0  0  0
 16 46  1  0  0  0  0
 17 19  1  0  0  0  0
 17 47  1  0  0  0  0
 17 48  1  0  0  0  0
 18 49  1  0  0  0  0
 19 20  1  0  0  0  0
 19 50  1  0  0  0  0
 19 51  1  0  0  0  0
 20 22  1  0  0  0  0
 20 52  1  0  0  0  0
 20 53  1  0  0  0  0
 21 54  1  0  0  0  0
 21 55  1  0  0  0  0
 21 56  1  0  0  0  0
 22 23  1  0  0  0  0
 22 57  1  0  0  0  0
 22 58  1  0  0  0  0
 23 24  1  0  0  0  0
 23 59  1  0  0  0  0
 23 60  1  0  0  0  0
 24 61  1  0  0  0  0
 24 62  1  0  0  0  0
 25 26  1  0  0  0  0
 25 63  1  0  0  0  0
 25 64  1  0  0  0  0
 26 27  1  0  0  0  0
 26 65  1  0  0  0  0
 26 66  1  0  0  0  0
 27 28  1  0  0  0  0
 27 67  1  0  0  0  0
 27 68  1  0  0  0  0
 28 29  1  0  0  0  0
 28 69  1  0  0  0  0
 28 70  1  0  0  0  0
 29 30  2  0  0  0  0
 29 31  1  0  0  0  0
 30 32  1  0  0  0  0
 30 71  1  0  0  0  0
 31 33  2  0  0  0  0
 31 72  1  0  0  0  0
 32 34  2  0  0  0  0
 32 73  1  0  0  0  0
 33 34  1  0  0  0  0
 33 74  1  0  0  0  0
 34 75  1  0  0  0  0
M  END
> <PUBCHEM_COMPOUND_CID>
137660395

> <PUBCHEM_COMPOUND_CANONICALIZED>
1

> <PUBCHEM_CACTVS_COMPLEXITY>
594

> <PUBCHEM_CACTVS_HBOND_ACCEPTOR>
3

> <PUBCHEM_CACTVS_HBOND_DONOR>
1

> <PUBCHEM_CACTVS_ROTATABLE_BOND>
15

> <PUBCHEM_CACTVS_SUBSKEYS>
AAADcfB7MAAAAAAAAAAAAAAAAAAAAWAAAAA8YIAAAAAAAFixQAAAHgAQAAAADCjhmAYzwIPABACIAiRCUACCAAAhAgAIiIAIdIiIYCLAkZGWIAhslgLIyCeQwLAOAAAAQAACACAAAACAAAQAQAAAAAAAAA==

> <PUBCHEM_IUPAC_OPENEYE_NAME>
(10R)-10-(methylamino)-3-[8-(4-phenylbutoxy)octyl]-1,3-diazatricyclo[6.3.1.04,12]dodeca-4,6,8(12)-trien-2-one

> <PUBCHEM_IUPAC_CAS_NAME>
(10R)-10-(methylamino)-3-[8-(4-phenylbutoxy)octyl]-1,3-diazatricyclo[6.3.1.04,12]dodeca-4,6,8(12)-trien-2-one

> <PUBCHEM_IUPAC_NAME_MARKUP>
(10<I>R</I>)-10-(methylamino)-3-[8-(4-phenylbutoxy)octyl]-1,3-diazatricyclo[6.3.1.0<SUP>4,12</SUP>]dodeca-4,6,8(12)-trien-2-one

> <PUBCHEM_IUPAC_NAME>
(10R)-10-(methylamino)-3-[8-(4-phenylbutoxy)octyl]-1,3-diazatricyclo[6.3.1.04,12]dodeca-4,6,8(12)-trien-2-one

> <PUBCHEM_IUPAC_SYSTEMATIC_NAME>
(10R)-10-(methylamino)-3-[8-(4-phenylbutoxy)octyl]-1,3-diazatricyclo[6.3.1.04,12]dodeca-4,6,8(12)-trien-2-one

> <PUBCHEM_IUPAC_TRADITIONAL_NAME>
(10R)-10-(methylamino)-3-[8-(4-phenylbutoxy)octyl]-1,3-diazatricyclo[6.3.1.04,12]dodeca-4,6,8(12)-trien-2-one

> <PUBCHEM_IUPAC_INCHI>
InChI=1S/C29H41N3O2/c1-30-26-22-25-17-13-18-27-28(25)32(23-26)29(33)31(27)19-10-4-2-3-5-11-20-34-21-12-9-16-24-14-7-6-8-15-24/h6-8,13-15,17-18,26,30H,2-5,9-12,16,19-23H2,1H3/t26-/m1/s1

> <PUBCHEM_IUPAC_INCHIKEY>
QGNVJFHGWZQUHS-AREMUKBSSA-N

> <PUBCHEM_XLOGP3_AA>
5.6

> <PUBCHEM_EXACT_MASS>
463.31987756

> <PUBCHEM_MOLECULAR_FORMULA>
C29H41N3O2

> <PUBCHEM_MOLECULAR_WEIGHT>
463.7

> <PUBCHEM_OPENEYE_CAN_SMILES>
CNC1CC2=C3C(=CC=C2)N(C(=O)N3C1)CCCCCCCCOCCCCC4=CC=CC=C4

> <PUBCHEM_OPENEYE_ISO_SMILES>
CN[C@@H]1CC2=C3C(=CC=C2)N(C(=O)N3C1)CCCCCCCCOCCCCC4=CC=CC=C4

> <PUBCHEM_CACTVS_TPSA>
44.8

> <PUBCHEM_MONOISOTOPIC_WEIGHT>
463.31987756

> <PUBCHEM_TOTAL_CHARGE>
0

> <PUBCHEM_HEAVY_ATOM_COUNT>
34

> <PUBCHEM_ATOM_DEF_STEREO_COUNT>
1

> <PUBCHEM_ATOM_UDEF_STEREO_COUNT>
0

> <PUBCHEM_BOND_DEF_STEREO_COUNT>
0

> <PUBCHEM_BOND_UDEF_STEREO_COUNT>
0

> <PUBCHEM_ISOTOPIC_ATOM_COUNT>
0

> <PUBCHEM_COMPONENT_COUNT>
1

> <PUBCHEM_CACTVS_TAUTO_COUNT>
-1

> <PUBCHEM_COORDINATE_TYPE>
1
5
255

> <PUBCHEM_BONDANNOTATIONS>
10  15  8
11  16  8
15  18  8
16  18  8
29  30  8
29  31  8
3  12  8
3  7  8
30  32  8
31  33  8
32  34  8
33  34  8
4  11  8
4  12  8
6  5  6
7  10  8
7  11  8

$$$$
