118731502
  -OEChem-09292322352D

 73 78  0     1  0  0  0  0  0999 V2000
   11.7975   -3.0082    0.0000 O   0  0  0  0  0  0  0  0  0  0  0  0
   17.0597   -2.9841    0.0000 O   0  0  0  0  0  0  0  0  0  0  0  0
    7.4655   -2.5249    0.0000 N   0  0  3  0  0  0  0  0  0  0  0  0
    3.7822    0.1588    0.0000 N   0  0  0  0  0  0  0  0  0  0  0  0
   15.3276   -2.9841    0.0000 N   0  0  0  0  0  0  0  0  0  0  0  0
    7.4616   -1.5249    0.0000 C   0  0  0  0  0  0  0  0  0  0  0  0
    6.5937   -1.0283    0.0000 C   0  0  0  0  0  0  0  0  0  0  0  0
    5.7296   -1.5316    0.0000 C   0  0  0  0  0  0  0  0  0  0  0  0
    6.6014   -3.0283    0.0000 C   0  0  0  0  0  0  0  0  0  0  0  0
    8.3334   -3.0216    0.0000 C   0  0  0  0  0  0  0  0  0  0  0  0
    4.8616   -1.0350    0.0000 C   0  0  0  0  0  0  0  0  0  0  0  0
    5.7334   -2.5316    0.0000 C   0  0  0  0  0  0  0  0  0  0  0  0
    9.1975   -2.5182    0.0000 C   0  0  0  0  0  0  0  0  0  0  0  0
    3.9554   -1.4436    0.0000 C   0  0  0  0  0  0  0  0  0  0  0  0
    3.2847   -0.7018    0.0000 C   0  0  0  0  0  0  0  0  0  0  0  0
    4.7548   -0.0466    0.0000 C   0  0  0  0  0  0  0  0  0  0  0  0
   10.0654   -3.0149    0.0000 C   0  0  0  0  0  0  0  0  0  0  0  0
    3.3750    1.0722    0.0000 C   0  0  0  0  0  0  0  0  0  0  0  0
    3.6484   -2.3953    0.0000 C   0  0  0  0  0  0  0  0  0  0  0  0
   10.9295   -2.5116    0.0000 C   0  0  0  0  0  0  0  0  0  0  0  0
    2.3070   -0.9118    0.0000 C   0  0  0  0  0  0  0  0  0  0  0  0
    3.9625    1.8814    0.0000 C   0  0  0  0  0  0  0  0  0  0  0  0
    2.6707   -2.6053    0.0000 C   0  0  0  0  0  0  0  0  0  0  0  0
    2.0000   -1.8635    0.0000 C   0  0  0  0  0  0  0  0  0  0  0  0
   14.4616   -1.4841    0.0000 C   0  0  0  0  0  0  0  0  0  0  0  0
   15.3276   -0.9841    0.0000 C   0  0  0  0  0  0  0  0  0  0  0  0
   12.6616   -2.5049    0.0000 C   0  0  0  0  0  0  0  0  0  0  0  0
   14.4616   -2.4841    0.0000 C   0  0  0  0  0  0  0  0  0  0  0  0
   16.1936   -1.4841    0.0000 C   0  0  0  0  0  0  0  0  0  0  0  0
   13.5676   -3.0188    0.0000 C   0  0  0  0  0  0  0  0  0  0  0  0
    3.5554    2.7948    0.0000 C   0  0  0  0  0  0  0  0  0  0  0  0
    4.9571    1.7773    0.0000 C   0  0  0  0  0  0  0  0  0  0  0  0
   13.5676   -0.9494    0.0000 C   0  0  0  0  0  0  0  0  0  0  0  0
   12.6616   -1.4633    0.0000 C   0  0  0  0  0  0  0  0  0  0  0  0
   16.1936   -2.4841    0.0000 C   0  0  0  0  0  0  0  0  0  0  0  0
    4.1429    3.6041    0.0000 C   0  0  0  0  0  0  0  0  0  0  0  0
    5.5446    2.5866    0.0000 C   0  0  0  0  0  0  0  0  0  0  0  0
    5.1374    3.5000    0.0000 C   0  0  0  0  0  0  0  0  0  0  0  0
    8.0726   -1.6302    0.0000 H   0  0  0  0  0  0  0  0  0  0  0  0
    7.6714   -0.9415    0.0000 H   0  0  0  0  0  0  0  0  0  0  0  0
    6.9904   -0.5518    0.0000 H   0  0  0  0  0  0  0  0  0  0  0  0
    6.1933   -0.5549    0.0000 H   0  0  0  0  0  0  0  0  0  0  0  0
    6.2047   -3.5048    0.0000 H   0  0  0  0  0  0  0  0  0  0  0  0
    7.0017   -3.5017    0.0000 H   0  0  0  0  0  0  0  0  0  0  0  0
    7.9367   -3.4981    0.0000 H   0  0  0  0  0  0  0  0  0  0  0  0
    8.7338   -3.4950    0.0000 H   0  0  0  0  0  0  0  0  0  0  0  0
    5.1977   -2.8437    0.0000 H   0  0  0  0  0  0  0  0  0  0  0  0
    9.5942   -2.0418    0.0000 H   0  0  0  0  0  0  0  0  0  0  0  0
    8.7972   -2.0448    0.0000 H   0  0  0  0  0  0  0  0  0  0  0  0
    5.2146    0.3692    0.0000 H   0  0  0  0  0  0  0  0  0  0  0  0
    9.6688   -3.4914    0.0000 H   0  0  0  0  0  0  0  0  0  0  0  0
   10.4658   -3.4883    0.0000 H   0  0  0  0  0  0  0  0  0  0  0  0
    2.9442    1.5180    0.0000 H   0  0  0  0  0  0  0  0  0  0  0  0
    2.8612    0.7253    0.0000 H   0  0  0  0  0  0  0  0  0  0  0  0
    4.0642   -2.8551    0.0000 H   0  0  0  0  0  0  0  0  0  0  0  0
   11.3262   -2.0351    0.0000 H   0  0  0  0  0  0  0  0  0  0  0  0
   10.5292   -2.0382    0.0000 H   0  0  0  0  0  0  0  0  0  0  0  0
    1.8912   -0.4520    0.0000 H   0  0  0  0  0  0  0  0  0  0  0  0
    2.4804   -3.1953    0.0000 H   0  0  0  0  0  0  0  0  0  0  0  0
    1.3938   -1.9937    0.0000 H   0  0  0  0  0  0  0  0  0  0  0  0
   15.7261   -0.5091    0.0000 H   0  0  0  0  0  0  0  0  0  0  0  0
   14.9291   -0.5091    0.0000 H   0  0  0  0  0  0  0  0  0  0  0  0
   16.8042   -1.5918    0.0000 H   0  0  0  0  0  0  0  0  0  0  0  0
   16.4057   -0.9015    0.0000 H   0  0  0  0  0  0  0  0  0  0  0  0
   13.5748   -3.6387    0.0000 H   0  0  0  0  0  0  0  0  0  0  0  0
    2.9388    2.8594    0.0000 H   0  0  0  0  0  0  0  0  0  0  0  0
    5.2095    1.2110    0.0000 H   0  0  0  0  0  0  0  0  0  0  0  0
   13.5748   -0.3295    0.0000 H   0  0  0  0  0  0  0  0  0  0  0  0
   12.1258   -1.1512    0.0000 H   0  0  0  0  0  0  0  0  0  0  0  0
   15.3276   -3.6041    0.0000 H   0  0  0  0  0  0  0  0  0  0  0  0
    3.8905    4.1704    0.0000 H   0  0  0  0  0  0  0  0  0  0  0  0
    6.1612    2.5220    0.0000 H   0  0  0  0  0  0  0  0  0  0  0  0
    5.5017    4.0017    0.0000 H   0  0  0  0  0  0  0  0  0  0  0  0
  1 20  1  0  0  0  0
  1 27  1  0  0  0  0
  2 35  2  0  0  0  0
  3  6  1  0  0  0  0
  3  9  1  0  0  0  0
  3 10  1  0  0  0  0
  4 15  1  0  0  0  0
  4 16  1  0  0  0  0
  4 18  1  0  0  0  0
  5 28  1  0  0  0  0
  5 35  1  0  0  0  0
  5 70  1  0  0  0  0
  6  7  1  0  0  0  0
  6 39  1  0  0  0  0
  6 40  1  0  0  0  0
  7  8  1  0  0  0  0
  7 41  1  0  0  0  0
  7 42  1  0  0  0  0
  8 11  1  0  0  0  0
  8 12  2  0  0  0  0
  9 12  1  0  0  0  0
  9 43  1  0  0  0  0
  9 44  1  0  0  0  0
 10 13  1  0  0  0  0
 10 45  1  0  0  0  0
 10 46  1  0  0  0  0
 11 14  1  0  0  0  0
 11 16  2  0  0  0  0
 12 47  1  0  0  0  0
 13 17  1  0  0  0  0
 13 48  1  0  0  0  0
 13 49  1  0  0  0  0
 14 15  1  0  0  0  0
 14 19  2  0  0  0  0
 15 21  2  0  0  0  0
 16 50  1  0  0  0  0
 17 20  1  0  0  0  0
 17 51  1  0  0  0  0
 17 52  1  0  0  0  0
 18 22  1  0  0  0  0
 18 53  1  0  0  0  0
 18 54  1  0  0  0  0
 19 23  1  0  0  0  0
 19 55  1  0  0  0  0
 20 56  1  0  0  0  0
 20 57  1  0  0  0  0
 21 24  1  0  0  0  0
 21 58  1  0  0  0  0
 22 31  2  0  0  0  0
 22 32  1  0  0  0  0
 23 24  2  0  0  0  0
 23 59  1  0  0  0  0
 24 60  1  0  0  0  0
 25 26  1  0  0  0  0
 25 28  2  0  0  0  0
 25 33  1  0  0  0  0
 26 29  1  0  0  0  0
 26 61  1  0  0  0  0
 26 62  1  0  0  0  0
 27 30  2  0  0  0  0
 27 34  1  0  0  0  0
 28 30  1  0  0  0  0
 29 35  1  0  0  0  0
 29 63  1  0  0  0  0
 29 64  1  0  0  0  0
 30 65  1  0  0  0  0
 31 36  1  0  0  0  0
 31 66  1  0  0  0  0
 32 37  2  0  0  0  0
 32 67  1  0  0  0  0
 33 34  2  0  0  0  0
 33 68  1  0  0  0  0
 34 69  1  0  0  0  0
 36 38  2  0  0  0  0
 36 71  1  0  0  0  0
 37 38  1  0  0  0  0
 37 72  1  0  0  0  0
 38 73  1  0  0  0  0
M  END
> <PUBCHEM_COMPOUND_CID>
118731502

> <PUBCHEM_COMPOUND_CANONICALIZED>
1

> <PUBCHEM_CACTVS_COMPLEXITY>
808

> <PUBCHEM_CACTVS_HBOND_ACCEPTOR>
3

> <PUBCHEM_CACTVS_HBOND_DONOR>
1

> <PUBCHEM_CACTVS_ROTATABLE_BOND>
9

> <PUBCHEM_CACTVS_SUBSKEYS>
AAADcfB/MAAAAAAAAAAAAAAAAAAAAWAAAAA8YMECAAAAAFix9AAAHgAQAAAADAzhngY8xvPMFACoAzV3VACCiCAxIiAI2CE+bJgMJvLEsZuGOCjm1BnI6Ae42eOeoAAAAgACAABAAAAEAAQAAAAAAAAAAA==

> <PUBCHEM_IUPAC_OPENEYE_NAME>
7-[4-[4-(1-benzylindol-3-yl)-3,6-dihydro-2H-pyridin-1-yl]butoxy]-3,4-dihydro-1H-quinolin-2-one

> <PUBCHEM_IUPAC_CAS_NAME>
7-[4-[4-[1-(phenylmethyl)-3-indolyl]-3,6-dihydro-2H-pyridin-1-yl]butoxy]-3,4-dihydro-1H-quinolin-2-one

> <PUBCHEM_IUPAC_NAME_MARKUP>
7-[4-[4-(1-benzylindol-3-yl)-3,6-dihydro-2<I>H</I>-pyridin-1-yl]butoxy]-3,4-dihydro-1<I>H</I>-quinolin-2-one

> <PUBCHEM_IUPAC_NAME>
7-[4-[4-(1-benzylindol-3-yl)-3,6-dihydro-2H-pyridin-1-yl]butoxy]-3,4-dihydro-1H-quinolin-2-one

> <PUBCHEM_IUPAC_SYSTEMATIC_NAME>
7-[4-[4-[1-(phenylmethyl)indol-3-yl]-3,6-dihydro-2H-pyridin-1-yl]butoxy]-3,4-dihydro-1H-quinolin-2-one

> <PUBCHEM_IUPAC_TRADITIONAL_NAME>
7-[4-[4-(1-benzylindol-3-yl)-3,6-dihydro-2H-pyridin-1-yl]butoxy]-3,4-dihydrocarbostyril

> <PUBCHEM_IUPAC_INCHI>
InChI=1S/C33H35N3O2/c37-33-15-13-27-12-14-28(22-31(27)34-33)38-21-7-6-18-35-19-16-26(17-20-35)30-24-36(23-25-8-2-1-3-9-25)32-11-5-4-10-29(30)32/h1-5,8-12,14,16,22,24H,6-7,13,15,17-21,23H2,(H,34,37)

> <PUBCHEM_IUPAC_INCHIKEY>
PJDFUWIIHYWFLS-UHFFFAOYSA-N

> <PUBCHEM_XLOGP3_AA>
5.3

> <PUBCHEM_EXACT_MASS>
505.27292737

> <PUBCHEM_MOLECULAR_FORMULA>
C33H35N3O2

> <PUBCHEM_MOLECULAR_WEIGHT>
505.6

> <PUBCHEM_OPENEYE_CAN_SMILES>
C1CC(=O)NC2=C1C=CC(=C2)OCCCCN3CCC(=CC3)C4=CN(C5=CC=CC=C54)CC6=CC=CC=C6

> <PUBCHEM_OPENEYE_ISO_SMILES>
C1CC(=O)NC2=C1C=CC(=C2)OCCCCN3CCC(=CC3)C4=CN(C5=CC=CC=C54)CC6=CC=CC=C6

> <PUBCHEM_CACTVS_TPSA>
46.5

> <PUBCHEM_MONOISOTOPIC_WEIGHT>
505.27292737

> <PUBCHEM_TOTAL_CHARGE>
0

> <PUBCHEM_HEAVY_ATOM_COUNT>
38

> <PUBCHEM_ATOM_DEF_STEREO_COUNT>
0

> <PUBCHEM_ATOM_UDEF_STEREO_COUNT>
0

> <PUBCHEM_BOND_DEF_STEREO_COUNT>
0

> <PUBCHEM_BOND_UDEF_STEREO_COUNT>
0

> <PUBCHEM_ISOTOPIC_ATOM_COUNT>
0

> <PUBCHEM_COMPONENT_COUNT>
1

> <PUBCHEM_CACTVS_TAUTO_COUNT>
-1

> <PUBCHEM_COORDINATE_TYPE>
1
5
255

> <PUBCHEM_BONDANNOTATIONS>
11  14  8
11  16  8
14  15  8
14  19  8
15  21  8
19  23  8
21  24  8
22  31  8
22  32  8
23  24  8
25  28  8
25  33  8
27  30  8
27  34  8
28  30  8
31  36  8
32  37  8
33  34  8
36  38  8
37  38  8
4  15  8
4  16  8

$$$$
