21073563
  -OEChem-09292322312D

 62 65  0     0  0  0  0  0  0999 V2000
    7.2622   -1.9370    0.0000 O   0  0  0  0  0  0  0  0  0  0  0  0
    2.0000   -1.9129    0.0000 O   0  0  0  0  0  0  0  0  0  0  0  0
   11.5942   -1.4537    0.0000 N   0  0  0  0  0  0  0  0  0  0  0  0
   13.3301   -0.4604    0.0000 N   0  0  0  0  0  0  0  0  0  0  0  0
    3.7320   -1.9129    0.0000 N   0  0  0  0  0  0  0  0  0  0  0  0
    5.4920   -1.9476    0.0000 N   0  0  0  0  0  0  0  0  0  0  0  0
   12.4583   -1.9571    0.0000 C   0  0  0  0  0  0  0  0  0  0  0  0
   11.5981   -0.4537    0.0000 C   0  0  0  0  0  0  0  0  0  0  0  0
   13.3262   -1.4604    0.0000 C   0  0  0  0  0  0  0  0  0  0  0  0
   12.4660    0.0429    0.0000 C   0  0  0  0  0  0  0  0  0  0  0  0
   10.7263   -1.9504    0.0000 C   0  0  0  0  0  0  0  0  0  0  0  0
    9.8622   -1.4470    0.0000 C   0  0  0  0  0  0  0  0  0  0  0  0
   14.1980    0.0362    0.0000 C   0  0  0  0  0  0  0  0  0  0  0  0
    8.9942   -1.9437    0.0000 C   0  0  0  0  0  0  0  0  0  0  0  0
   14.2019    1.0362    0.0000 C   0  0  0  0  0  0  0  0  0  0  0  0
   15.0621   -0.4671    0.0000 C   0  0  0  0  0  0  0  0  0  0  0  0
    8.1301   -1.4404    0.0000 C   0  0  0  0  0  0  0  0  0  0  0  0
   15.0698    1.5329    0.0000 C   0  0  0  0  0  0  0  0  0  0  0  0
   13.3378    1.5396    0.0000 C   0  0  0  0  0  0  0  0  0  0  0  0
   15.9301    0.0296    0.0000 C   0  0  0  0  0  0  0  0  0  0  0  0
   15.9339    1.0296    0.0000 C   0  0  0  0  0  0  0  0  0  0  0  0
   15.0737    2.5329    0.0000 C   0  0  0  0  0  0  0  0  0  0  0  0
    4.5981   -0.4129    0.0000 C   0  0  0  0  0  0  0  0  0  0  0  0
    3.7320    0.0871    0.0000 C   0  0  0  0  0  0  0  0  0  0  0  0
    6.3981   -1.4337    0.0000 C   0  0  0  0  0  0  0  0  0  0  0  0
    4.5981   -1.4129    0.0000 C   0  0  0  0  0  0  0  0  0  0  0  0
    2.8660   -0.4129    0.0000 C   0  0  0  0  0  0  0  0  0  0  0  0
    5.4920    0.1218    0.0000 C   0  0  0  0  0  0  0  0  0  0  0  0
    6.3981   -0.3921    0.0000 C   0  0  0  0  0  0  0  0  0  0  0  0
    2.8660   -1.4129    0.0000 C   0  0  0  0  0  0  0  0  0  0  0  0
   12.0579   -2.4305    0.0000 H   0  0  0  0  0  0  0  0  0  0  0  0
   12.8550   -2.4336    0.0000 H   0  0  0  0  0  0  0  0  0  0  0  0
   11.3882    0.1297    0.0000 H   0  0  0  0  0  0  0  0  0  0  0  0
   10.9871   -0.5590    0.0000 H   0  0  0  0  0  0  0  0  0  0  0  0
   13.5360   -2.0438    0.0000 H   0  0  0  0  0  0  0  0  0  0  0  0
   13.9372   -1.3551    0.0000 H   0  0  0  0  0  0  0  0  0  0  0  0
   12.8664    0.5163    0.0000 H   0  0  0  0  0  0  0  0  0  0  0  0
   12.0693    0.5194    0.0000 H   0  0  0  0  0  0  0  0  0  0  0  0
   10.3259   -2.4238    0.0000 H   0  0  0  0  0  0  0  0  0  0  0  0
   11.1229   -2.4269    0.0000 H   0  0  0  0  0  0  0  0  0  0  0  0
   10.2625   -0.9736    0.0000 H   0  0  0  0  0  0  0  0  0  0  0  0
    9.4655   -0.9706    0.0000 H   0  0  0  0  0  0  0  0  0  0  0  0
    8.5939   -2.4171    0.0000 H   0  0  0  0  0  0  0  0  0  0  0  0
    9.3909   -2.4202    0.0000 H   0  0  0  0  0  0  0  0  0  0  0  0
   15.0597   -1.0871    0.0000 H   0  0  0  0  0  0  0  0  0  0  0  0
    8.5305   -0.9670    0.0000 H   0  0  0  0  0  0  0  0  0  0  0  0
    7.7334   -0.9639    0.0000 H   0  0  0  0  0  0  0  0  0  0  0  0
   13.6499    2.0753    0.0000 H   0  0  0  0  0  0  0  0  0  0  0  0
   12.8021    1.8516    0.0000 H   0  0  0  0  0  0  0  0  0  0  0  0
   13.0257    1.0038    0.0000 H   0  0  0  0  0  0  0  0  0  0  0  0
   16.4658   -0.2825    0.0000 H   0  0  0  0  0  0  0  0  0  0  0  0
   16.4721    1.3375    0.0000 H   0  0  0  0  0  0  0  0  0  0  0  0
   15.6937    2.5305    0.0000 H   0  0  0  0  0  0  0  0  0  0  0  0
   15.0761    3.1529    0.0000 H   0  0  0  0  0  0  0  0  0  0  0  0
   14.4537    2.5353    0.0000 H   0  0  0  0  0  0  0  0  0  0  0  0
    4.1306    0.5621    0.0000 H   0  0  0  0  0  0  0  0  0  0  0  0
    3.3335    0.5621    0.0000 H   0  0  0  0  0  0  0  0  0  0  0  0
    2.6540    0.1697    0.0000 H   0  0  0  0  0  0  0  0  0  0  0  0
    2.2554   -0.5205    0.0000 H   0  0  0  0  0  0  0  0  0  0  0  0
    5.4848    0.7417    0.0000 H   0  0  0  0  0  0  0  0  0  0  0  0
    6.9338   -0.0800    0.0000 H   0  0  0  0  0  0  0  0  0  0  0  0
    3.7320   -2.5329    0.0000 H   0  0  0  0  0  0  0  0  0  0  0  0
  1 17  1  0  0  0  0
  1 25  1  0  0  0  0
  2 30  2  0  0  0  0
  3  7  1  0  0  0  0
  3  8  1  0  0  0  0
  3 11  1  0  0  0  0
  4  9  1  0  0  0  0
  4 10  1  0  0  0  0
  4 13  1  0  0  0  0
  5 26  1  0  0  0  0
  5 30  1  0  0  0  0
  5 62  1  0  0  0  0
  6 25  2  0  0  0  0
  6 26  1  0  0  0  0
  7  9  1  0  0  0  0
  7 31  1  0  0  0  0
  7 32  1  0  0  0  0
  8 10  1  0  0  0  0
  8 33  1  0  0  0  0
  8 34  1  0  0  0  0
  9 35  1  0  0  0  0
  9 36  1  0  0  0  0
 10 37  1  0  0  0  0
 10 38  1  0  0  0  0
 11 12  1  0  0  0  0
 11 39  1  0  0  0  0
 11 40  1  0  0  0  0
 12 14  1  0  0  0  0
 12 41  1  0  0  0  0
 12 42  1  0  0  0  0
 13 15  1  0  0  0  0
 13 16  2  0  0  0  0
 14 17  1  0  0  0  0
 14 43  1  0  0  0  0
 14 44  1  0  0  0  0
 15 18  2  0  0  0  0
 15 19  1  0  0  0  0
 16 20  1  0  0  0  0
 16 45  1  0  0  0  0
 17 46  1  0  0  0  0
 17 47  1  0  0  0  0
 18 21  1  0  0  0  0
 18 22  1  0  0  0  0
 19 48  1  0  0  0  0
 19 49  1  0  0  0  0
 19 50  1  0  0  0  0
 20 21  2  0  0  0  0
 20 51  1  0  0  0  0
 21 52  1  0  0  0  0
 22 53  1  0  0  0  0
 22 54  1  0  0  0  0
 22 55  1  0  0  0  0
 23 24  1  0  0  0  0
 23 26  2  0  0  0  0
 23 28  1  0  0  0  0
 24 27  1  0  0  0  0
 24 56  1  0  0  0  0
 24 57  1  0  0  0  0
 25 29  1  0  0  0  0
 27 30  1  0  0  0  0
 27 58  1  0  0  0  0
 27 59  1  0  0  0  0
 28 29  2  0  0  0  0
 28 60  1  0  0  0  0
 29 61  1  0  0  0  0
M  END
> <PUBCHEM_COMPOUND_CID>
21073563

> <PUBCHEM_COMPOUND_CANONICALIZED>
1

> <PUBCHEM_CACTVS_COMPLEXITY>
551

> <PUBCHEM_CACTVS_HBOND_ACCEPTOR>
5

> <PUBCHEM_CACTVS_HBOND_DONOR>
1

> <PUBCHEM_CACTVS_ROTATABLE_BOND>
7

> <PUBCHEM_CACTVS_SUBSKEYS>
AAADcfB7sAAAAAAAAAAAAAAAAAAAAAAAAAA8WLEAAAAAAACxwAAAHgAQAAAADAjhmgYz9JPIFACoAidydACCiCkhIiAJmCE+bJiMZvLEuZueOCjs1RPI6Ce42aKOgAAAQAASAAAAAACAACQAAAAAAAAAAA==

> <PUBCHEM_IUPAC_OPENEYE_NAME>
7-[4-[4-(2,3-dimethylphenyl)piperazin-1-yl]butoxy]-3,4-dihydro-1H-1,8-naphthyridin-2-one

> <PUBCHEM_IUPAC_CAS_NAME>
7-[4-[4-(2,3-dimethylphenyl)-1-piperazinyl]butoxy]-3,4-dihydro-1H-1,8-naphthyridin-2-one

> <PUBCHEM_IUPAC_NAME_MARKUP>
7-[4-[4-(2,3-dimethylphenyl)piperazin-1-yl]butoxy]-3,4-dihydro-1<I>H</I>-1,8-naphthyridin-2-one

> <PUBCHEM_IUPAC_NAME>
7-[4-[4-(2,3-dimethylphenyl)piperazin-1-yl]butoxy]-3,4-dihydro-1H-1,8-naphthyridin-2-one

> <PUBCHEM_IUPAC_SYSTEMATIC_NAME>
7-[4-[4-(2,3-dimethylphenyl)piperazin-1-yl]butoxy]-3,4-dihydro-1H-1,8-naphthyridin-2-one

> <PUBCHEM_IUPAC_TRADITIONAL_NAME>
7-[4-[4-(2,3-dimethylphenyl)piperazino]butoxy]-3,4-dihydro-1H-1,8-naphthyridin-2-one

> <PUBCHEM_IUPAC_INCHI>
InChI=1S/C24H32N4O2/c1-18-6-5-7-21(19(18)2)28-15-13-27(14-16-28)12-3-4-17-30-23-11-9-20-8-10-22(29)25-24(20)26-23/h5-7,9,11H,3-4,8,10,12-17H2,1-2H3,(H,25,26,29)

> <PUBCHEM_IUPAC_INCHIKEY>
NVMHXLWQTVRZFA-UHFFFAOYSA-N

> <PUBCHEM_XLOGP3_AA>
3.7

> <PUBCHEM_EXACT_MASS>
408.25252628

> <PUBCHEM_MOLECULAR_FORMULA>
C24H32N4O2

> <PUBCHEM_MOLECULAR_WEIGHT>
408.5

> <PUBCHEM_OPENEYE_CAN_SMILES>
CC1=C(C(=CC=C1)N2CCN(CC2)CCCCOC3=NC4=C(CCC(=O)N4)C=C3)C

> <PUBCHEM_OPENEYE_ISO_SMILES>
CC1=C(C(=CC=C1)N2CCN(CC2)CCCCOC3=NC4=C(CCC(=O)N4)C=C3)C

> <PUBCHEM_CACTVS_TPSA>
57.7

> <PUBCHEM_MONOISOTOPIC_WEIGHT>
408.25252628

> <PUBCHEM_TOTAL_CHARGE>
0

> <PUBCHEM_HEAVY_ATOM_COUNT>
30

> <PUBCHEM_ATOM_DEF_STEREO_COUNT>
0

> <PUBCHEM_ATOM_UDEF_STEREO_COUNT>
0

> <PUBCHEM_BOND_DEF_STEREO_COUNT>
0

> <PUBCHEM_BOND_UDEF_STEREO_COUNT>
0

> <PUBCHEM_ISOTOPIC_ATOM_COUNT>
0

> <PUBCHEM_COMPONENT_COUNT>
1

> <PUBCHEM_CACTVS_TAUTO_COUNT>
-1

> <PUBCHEM_COORDINATE_TYPE>
1
5
255

> <PUBCHEM_BONDANNOTATIONS>
13  15  8
13  16  8
15  18  8
16  20  8
18  21  8
20  21  8
23  26  8
23  28  8
25  29  8
28  29  8
6  25  8
6  26  8

$$$$
