53364083
  -OEChem-09292322322D

102106  0     0  0  0  0  0  0999 V2000
    7.1962  -11.3885    0.0000 O   0  0  0  0  0  0  0  0  0  0  0  0
    4.5981   -3.8885    0.0000 O   0  0  0  0  0  0  0  0  0  0  0  0
    2.8660   -4.8885    0.0000 O   0  0  0  0  0  0  0  0  0  0  0  0
    5.4641   -8.3885    0.0000 N   0  0  0  0  0  0  0  0  0  0  0  0
    7.1962   -9.3885    0.0000 N   0  0  0  0  0  0  0  0  0  0  0  0
    6.8301    0.6504    0.0000 N   0  0  0  0  0  0  0  0  0  0  0  0
    8.1421    8.3496    0.0000 N   0  0  0  0  0  0  0  0  0  0  0  0
    5.8301    0.6504    0.0000 N   0  0  0  0  0  0  0  0  0  0  0  0
    5.5211   -0.3007    0.0000 N   0  0  0  0  0  0  0  0  0  0  0  0
    9.1421    8.3496    0.0000 N   0  0  0  0  0  0  0  0  0  0  0  0
    9.4511    9.3007    0.0000 N   0  0  0  0  0  0  0  0  0  0  0  0
    5.4641   -9.3885    0.0000 C   0  0  0  0  0  0  0  0  0  0  0  0
    6.3301   -7.8885    0.0000 C   0  0  0  0  0  0  0  0  0  0  0  0
    6.3301   -9.8885    0.0000 C   0  0  0  0  0  0  0  0  0  0  0  0
    7.1962   -8.3885    0.0000 C   0  0  0  0  0  0  0  0  0  0  0  0
    4.5981   -7.8885    0.0000 C   0  0  0  0  0  0  0  0  0  0  0  0
    8.0622   -9.8885    0.0000 C   0  0  0  0  0  0  0  0  0  0  0  0
    4.5981   -6.8885    0.0000 C   0  0  0  0  0  0  0  0  0  0  0  0
    8.0622  -10.8885    0.0000 C   0  0  0  0  0  0  0  0  0  0  0  0
    7.1922    4.0955    0.0000 C   0  0  0  0  0  0  0  0  0  0  0  0
    8.9282   -9.3885    0.0000 C   0  0  0  0  0  0  0  0  0  0  0  0
    7.7800    4.9045    0.0000 C   0  0  0  0  0  0  0  0  0  0  0  0
    7.5990    3.1820    0.0000 C   0  0  0  0  0  0  0  0  0  0  0  0
    7.3733    5.8181    0.0000 C   0  0  0  0  0  0  0  0  0  0  0  0
    3.7320   -6.3885    0.0000 C   0  0  0  0  0  0  0  0  0  0  0  0
    5.4641   -6.3885    0.0000 C   0  0  0  0  0  0  0  0  0  0  0  0
    7.0112    2.3729    0.0000 C   0  0  0  0  0  0  0  0  0  0  0  0
    7.9611    6.6271    0.0000 C   0  0  0  0  0  0  0  0  0  0  0  0
    7.4179    1.4594    0.0000 C   0  0  0  0  0  0  0  0  0  0  0  0
    8.9282  -11.3885    0.0000 C   0  0  0  0  0  0  0  0  0  0  0  0
    9.7942   -9.8885    0.0000 C   0  0  0  0  0  0  0  0  0  0  0  0
    3.7320   -5.3885    0.0000 C   0  0  0  0  0  0  0  0  0  0  0  0
    7.5543    7.5406    0.0000 C   0  0  0  0  0  0  0  0  0  0  0  0
    5.4641   -5.3885    0.0000 C   0  0  0  0  0  0  0  0  0  0  0  0
    4.5981   -4.8885    0.0000 C   0  0  0  0  0  0  0  0  0  0  0  0
    9.7942  -10.8885    0.0000 C   0  0  0  0  0  0  0  0  0  0  0  0
    5.4641   -2.3885    0.0000 C   0  0  0  0  0  0  0  0  0  0  0  0
    6.3301   -1.8885    0.0000 C   0  0  0  0  0  0  0  0  0  0  0  0
    5.4641   -3.3885    0.0000 C   0  0  0  0  0  0  0  0  0  0  0  0
    6.3301   -0.8885    0.0000 C   0  0  0  0  0  0  0  0  0  0  0  0
    7.1391   -0.3007    0.0000 C   0  0  0  0  0  0  0  0  0  0  0  0
    7.8331    9.3007    0.0000 C   0  0  0  0  0  0  0  0  0  0  0  0
    7.1962  -12.3885    0.0000 C   0  0  0  0  0  0  0  0  0  0  0  0
    8.6421    9.8885    0.0000 C   0  0  0  0  0  0  0  0  0  0  0  0
    8.6421   10.8885    0.0000 C   0  0  0  0  0  0  0  0  0  0  0  0
    2.0000   -5.3885    0.0000 C   0  0  0  0  0  0  0  0  0  0  0  0
    9.5081   11.3885    0.0000 C   0  0  0  0  0  0  0  0  0  0  0  0
    9.5081   12.3885    0.0000 C   0  0  0  0  0  0  0  0  0  0  0  0
    4.8535   -9.2808    0.0000 H   0  0  0  0  0  0  0  0  0  0  0  0
    5.2520   -9.9711    0.0000 H   0  0  0  0  0  0  0  0  0  0  0  0
    6.7287   -7.4135    0.0000 H   0  0  0  0  0  0  0  0  0  0  0  0
    5.9316   -7.4135    0.0000 H   0  0  0  0  0  0  0  0  0  0  0  0
    5.9316  -10.3634    0.0000 H   0  0  0  0  0  0  0  0  0  0  0  0
    6.7287  -10.3634    0.0000 H   0  0  0  0  0  0  0  0  0  0  0  0
    7.8067   -8.4961    0.0000 H   0  0  0  0  0  0  0  0  0  0  0  0
    7.4082   -7.8059    0.0000 H   0  0  0  0  0  0  0  0  0  0  0  0
    3.9875   -7.7808    0.0000 H   0  0  0  0  0  0  0  0  0  0  0  0
    4.3860   -8.4711    0.0000 H   0  0  0  0  0  0  0  0  0  0  0  0
    6.7615    4.5415    0.0000 H   0  0  0  0  0  0  0  0  0  0  0  0
    6.6782    3.7488    0.0000 H   0  0  0  0  0  0  0  0  0  0  0  0
    8.2107    4.4585    0.0000 H   0  0  0  0  0  0  0  0  0  0  0  0
    8.2940    5.2512    0.0000 H   0  0  0  0  0  0  0  0  0  0  0  0
    8.9282   -8.7685    0.0000 H   0  0  0  0  0  0  0  0  0  0  0  0
    8.0296    2.7360    0.0000 H   0  0  0  0  0  0  0  0  0  0  0  0
    8.1130    3.5286    0.0000 H   0  0  0  0  0  0  0  0  0  0  0  0
    6.9426    6.2640    0.0000 H   0  0  0  0  0  0  0  0  0  0  0  0
    6.8593    5.4714    0.0000 H   0  0  0  0  0  0  0  0  0  0  0  0
    3.1951   -6.6985    0.0000 H   0  0  0  0  0  0  0  0  0  0  0  0
    6.5805    2.8189    0.0000 H   0  0  0  0  0  0  0  0  0  0  0  0
    6.4972    2.0262    0.0000 H   0  0  0  0  0  0  0  0  0  0  0  0
    6.0010   -6.6985    0.0000 H   0  0  0  0  0  0  0  0  0  0  0  0
    8.3918    6.1811    0.0000 H   0  0  0  0  0  0  0  0  0  0  0  0
    8.4751    6.9738    0.0000 H   0  0  0  0  0  0  0  0  0  0  0  0
    7.8486    1.0134    0.0000 H   0  0  0  0  0  0  0  0  0  0  0  0
    7.9319    1.8061    0.0000 H   0  0  0  0  0  0  0  0  0  0  0  0
    8.9282  -12.0085    0.0000 H   0  0  0  0  0  0  0  0  0  0  0  0
   10.3312   -9.5785    0.0000 H   0  0  0  0  0  0  0  0  0  0  0  0
    7.1236    7.9866    0.0000 H   0  0  0  0  0  0  0  0  0  0  0  0
    7.0403    7.1939    0.0000 H   0  0  0  0  0  0  0  0  0  0  0  0
    6.0010   -5.0785    0.0000 H   0  0  0  0  0  0  0  0  0  0  0  0
   10.3312  -11.1985    0.0000 H   0  0  0  0  0  0  0  0  0  0  0  0
    5.2520   -1.8059    0.0000 H   0  0  0  0  0  0  0  0  0  0  0  0
    4.8535   -2.4961    0.0000 H   0  0  0  0  0  0  0  0  0  0  0  0
    6.5422   -2.4711    0.0000 H   0  0  0  0  0  0  0  0  0  0  0  0
    6.9407   -1.7808    0.0000 H   0  0  0  0  0  0  0  0  0  0  0  0
    5.6762   -3.9711    0.0000 H   0  0  0  0  0  0  0  0  0  0  0  0
    6.0747   -3.2808    0.0000 H   0  0  0  0  0  0  0  0  0  0  0  0
    7.7288   -0.4923    0.0000 H   0  0  0  0  0  0  0  0  0  0  0  0
    7.2434    9.4923    0.0000 H   0  0  0  0  0  0  0  0  0  0  0  0
    6.5762  -12.3885    0.0000 H   0  0  0  0  0  0  0  0  0  0  0  0
    7.1962  -13.0085    0.0000 H   0  0  0  0  0  0  0  0  0  0  0  0
    7.8162  -12.3885    0.0000 H   0  0  0  0  0  0  0  0  0  0  0  0
    8.4300   11.4711    0.0000 H   0  0  0  0  0  0  0  0  0  0  0  0
    8.0315   10.7808    0.0000 H   0  0  0  0  0  0  0  0  0  0  0  0
    1.6900   -4.8515    0.0000 H   0  0  0  0  0  0  0  0  0  0  0  0
    1.4631   -5.6985    0.0000 H   0  0  0  0  0  0  0  0  0  0  0  0
    2.3100   -5.9254    0.0000 H   0  0  0  0  0  0  0  0  0  0  0  0
    9.7202   10.8059    0.0000 H   0  0  0  0  0  0  0  0  0  0  0  0
   10.1187   11.4961    0.0000 H   0  0  0  0  0  0  0  0  0  0  0  0
   10.1281   12.3885    0.0000 H   0  0  0  0  0  0  0  0  0  0  0  0
    9.5081   13.0085    0.0000 H   0  0  0  0  0  0  0  0  0  0  0  0
    8.8881   12.3885    0.0000 H   0  0  0  0  0  0  0  0  0  0  0  0
  1 19  1  0  0  0  0
  1 43  1  0  0  0  0
  2 35  1  0  0  0  0
  2 39  1  0  0  0  0
  3 32  1  0  0  0  0
  3 46  1  0  0  0  0
  4 12  1  0  0  0  0
  4 13  1  0  0  0  0
  4 16  1  0  0  0  0
  5 14  1  0  0  0  0
  5 15  1  0  0  0  0
  5 17  1  0  0  0  0
  6  8  1  0  0  0  0
  6 29  1  0  0  0  0
  6 41  1  0  0  0  0
  7 10  1  0  0  0  0
  7 33  1  0  0  0  0
  7 42  1  0  0  0  0
  8  9  2  0  0  0  0
  9 40  1  0  0  0  0
 10 11  2  0  0  0  0
 11 44  1  0  0  0  0
 12 14  1  0  0  0  0
 12 49  1  0  0  0  0
 12 50  1  0  0  0  0
 13 15  1  0  0  0  0
 13 51  1  0  0  0  0
 13 52  1  0  0  0  0
 14 53  1  0  0  0  0
 14 54  1  0  0  0  0
 15 55  1  0  0  0  0
 15 56  1  0  0  0  0
 16 18  1  0  0  0  0
 16 57  1  0  0  0  0
 16 58  1  0  0  0  0
 17 19  1  0  0  0  0
 17 21  2  0  0  0  0
 18 25  2  0  0  0  0
 18 26  1  0  0  0  0
 19 30  2  0  0  0  0
 20 22  1  0  0  0  0
 20 23  1  0  0  0  0
 20 59  1  0  0  0  0
 20 60  1  0  0  0  0
 21 31  1  0  0  0  0
 21 63  1  0  0  0  0
 22 24  1  0  0  0  0
 22 61  1  0  0  0  0
 22 62  1  0  0  0  0
 23 27  1  0  0  0  0
 23 64  1  0  0  0  0
 23 65  1  0  0  0  0
 24 28  1  0  0  0  0
 24 66  1  0  0  0  0
 24 67  1  0  0  0  0
 25 32  1  0  0  0  0
 25 68  1  0  0  0  0
 26 34  2  0  0  0  0
 26 71  1  0  0  0  0
 27 29  1  0  0  0  0
 27 69  1  0  0  0  0
 27 70  1  0  0  0  0
 28 33  1  0  0  0  0
 28 72  1  0  0  0  0
 28 73  1  0  0  0  0
 29 74  1  0  0  0  0
 29 75  1  0  0  0  0
 30 36  1  0  0  0  0
 30 76  1  0  0  0  0
 31 36  2  0  0  0  0
 31 77  1  0  0  0  0
 32 35  2  0  0  0  0
 33 78  1  0  0  0  0
 33 79  1  0  0  0  0
 34 35  1  0  0  0  0
 34 80  1  0  0  0  0
 36 81  1  0  0  0  0
 37 38  1  0  0  0  0
 37 39  1  0  0  0  0
 37 82  1  0  0  0  0
 37 83  1  0  0  0  0
 38 40  1  0  0  0  0
 38 84  1  0  0  0  0
 38 85  1  0  0  0  0
 39 86  1  0  0  0  0
 39 87  1  0  0  0  0
 40 41  2  0  0  0  0
 41 88  1  0  0  0  0
 42 44  2  0  0  0  0
 42 89  1  0  0  0  0
 43 90  1  0  0  0  0
 43 91  1  0  0  0  0
 43 92  1  0  0  0  0
 44 45  1  0  0  0  0
 45 47  1  0  0  0  0
 45 93  1  0  0  0  0
 45 94  1  0  0  0  0
 46 95  1  0  0  0  0
 46 96  1  0  0  0  0
 46 97  1  0  0  0  0
 47 48  1  0  0  0  0
 47 98  1  0  0  0  0
 47 99  1  0  0  0  0
 48100  1  0  0  0  0
 48101  1  0  0  0  0
 48102  1  0  0  0  0
M  END
> <PUBCHEM_COMPOUND_CID>
53364083

> <PUBCHEM_COMPOUND_CANONICALIZED>
1

> <PUBCHEM_CACTVS_COMPLEXITY>
851

> <PUBCHEM_CACTVS_HBOND_ACCEPTOR>
9

> <PUBCHEM_CACTVS_HBOND_DONOR>
0

> <PUBCHEM_CACTVS_ROTATABLE_BOND>
21

> <PUBCHEM_CACTVS_SUBSKEYS>
AAADcfB/8AAAAAAAAAAAAAAAAAAAAWLAAAA8YIAAAAAAAAAB9AAAHgAIAAAADAzhngY+xpMIBACiAzRnRACCDAQxsgAY2AA//IgPZiLEsZuXOCrkwBHa6Aew0JIOIAABAAAAUABAAAIAAACgAAAAAAAAAA==

> <PUBCHEM_IUPAC_OPENEYE_NAME>
1-(2-methoxyphenyl)-4-[[3-methoxy-4-[3-[1-[8-(4-propyltriazol-1-yl)octyl]triazol-4-yl]propoxy]phenyl]methyl]piperazine

> <PUBCHEM_IUPAC_CAS_NAME>
1-(2-methoxyphenyl)-4-[[3-methoxy-4-[3-[1-[8-(4-propyl-1-triazolyl)octyl]-4-triazolyl]propoxy]phenyl]methyl]piperazine

> <PUBCHEM_IUPAC_NAME_MARKUP>
1-(2-methoxyphenyl)-4-[[3-methoxy-4-[3-[1-[8-(4-propyltriazol-1-yl)octyl]triazol-4-yl]propoxy]phenyl]methyl]piperazine

> <PUBCHEM_IUPAC_NAME>
1-(2-methoxyphenyl)-4-[[3-methoxy-4-[3-[1-[8-(4-propyltriazol-1-yl)octyl]triazol-4-yl]propoxy]phenyl]methyl]piperazine

> <PUBCHEM_IUPAC_SYSTEMATIC_NAME>
1-(2-methoxyphenyl)-4-[[3-methoxy-4-[3-[1-[8-(4-propyl-1,2,3-triazol-1-yl)octyl]-1,2,3-triazol-4-yl]propoxy]phenyl]methyl]piperazine

> <PUBCHEM_IUPAC_TRADITIONAL_NAME>
1-(2-methoxyphenyl)-4-[3-methoxy-4-[3-[1-[8-(4-propyltriazol-1-yl)octyl]triazol-4-yl]propoxy]benzyl]piperazine

> <PUBCHEM_IUPAC_INCHI>
InChI=1S/C37H54N8O3/c1-4-14-32-29-44(40-38-32)20-11-7-5-6-8-12-21-45-30-33(39-41-45)15-13-26-48-36-19-18-31(27-37(36)47-3)28-42-22-24-43(25-23-42)34-16-9-10-17-35(34)46-2/h9-10,16-19,27,29-30H,4-8,11-15,20-26,28H2,1-3H3

> <PUBCHEM_IUPAC_INCHIKEY>
RRSNTPLBDRZYRF-UHFFFAOYSA-N

> <PUBCHEM_XLOGP3_AA>
6.4

> <PUBCHEM_EXACT_MASS>
658.43188761

> <PUBCHEM_MOLECULAR_FORMULA>
C37H54N8O3

> <PUBCHEM_MOLECULAR_WEIGHT>
658.9

> <PUBCHEM_OPENEYE_CAN_SMILES>
CCCC1=CN(N=N1)CCCCCCCCN2C=C(N=N2)CCCOC3=C(C=C(C=C3)CN4CCN(CC4)C5=CC=CC=C5OC)OC

> <PUBCHEM_OPENEYE_ISO_SMILES>
CCCC1=CN(N=N1)CCCCCCCCN2C=C(N=N2)CCCOC3=C(C=C(C=C3)CN4CCN(CC4)C5=CC=CC=C5OC)OC

> <PUBCHEM_CACTVS_TPSA>
95.6

> <PUBCHEM_MONOISOTOPIC_WEIGHT>
658.43188761

> <PUBCHEM_TOTAL_CHARGE>
0

> <PUBCHEM_HEAVY_ATOM_COUNT>
48

> <PUBCHEM_ATOM_DEF_STEREO_COUNT>
0

> <PUBCHEM_ATOM_UDEF_STEREO_COUNT>
0

> <PUBCHEM_BOND_DEF_STEREO_COUNT>
0

> <PUBCHEM_BOND_UDEF_STEREO_COUNT>
0

> <PUBCHEM_ISOTOPIC_ATOM_COUNT>
0

> <PUBCHEM_COMPONENT_COUNT>
1

> <PUBCHEM_CACTVS_TAUTO_COUNT>
-1

> <PUBCHEM_COORDINATE_TYPE>
1
5
255

> <PUBCHEM_BONDANNOTATIONS>
10  11  8
11  44  8
17  19  8
17  21  8
18  25  8
18  26  8
19  30  8
21  31  8
25  32  8
26  34  8
30  36  8
31  36  8
32  35  8
34  35  8
40  41  8
42  44  8
6  41  8
6  8  8
7  10  8
7  42  8
8  9  8
9  40  8

$$$$
