10665598
  -OEChem-09292322102D

 44 47  0     0  0  0  0  0  0999 V2000
   10.9922   -0.2861    0.0000 Cl  0  0  0  0  0  0  0  0  0  0  0  0
    7.6995    0.7901    0.0000 N   0  0  0  0  0  0  0  0  0  0  0  0
    9.6565    1.2025    0.0000 N   0  0  0  0  0  0  0  0  0  0  0  0
    6.4103   -1.9761    0.0000 N   0  0  0  0  0  0  0  0  0  0  0  0
    2.0000    0.3286    0.0000 N   0  0  0  0  0  0  0  0  0  0  0  0
    8.3673    0.0458    0.0000 C   0  0  0  0  0  0  0  0  0  0  0  0
    8.0102    1.7406    0.0000 C   0  0  0  0  0  0  0  0  0  0  0  0
    9.3458    0.2520    0.0000 C   0  0  0  0  0  0  0  0  0  0  0  0
    8.9887    1.9468    0.0000 C   0  0  0  0  0  0  0  0  0  0  0  0
    6.7210    0.5838    0.0000 C   0  0  0  0  0  0  0  0  0  0  0  0
    6.4103   -0.3667    0.0000 C   0  0  0  0  0  0  0  0  0  0  0  0
   10.6350    1.4087    0.0000 C   0  0  0  0  0  0  0  0  0  0  0  0
    5.4641   -0.6714    0.0000 C   0  0  0  0  0  0  0  0  0  0  0  0
    6.9939   -1.1714    0.0000 C   0  0  0  0  0  0  0  0  0  0  0  0
    5.4641   -1.6714    0.0000 C   0  0  0  0  0  0  0  0  0  0  0  0
   11.3029    0.6644    0.0000 C   0  0  0  0  0  0  0  0  0  0  0  0
   10.9457    2.3592    0.0000 C   0  0  0  0  0  0  0  0  0  0  0  0
    4.5981   -0.1714    0.0000 C   0  0  0  0  0  0  0  0  0  0  0  0
    4.5981   -2.1714    0.0000 C   0  0  0  0  0  0  0  0  0  0  0  0
    3.7320   -0.6714    0.0000 C   0  0  0  0  0  0  0  0  0  0  0  0
   12.2814    0.8706    0.0000 C   0  0  0  0  0  0  0  0  0  0  0  0
   11.9242    2.5655    0.0000 C   0  0  0  0  0  0  0  0  0  0  0  0
    3.7320   -1.6714    0.0000 C   0  0  0  0  0  0  0  0  0  0  0  0
   12.5920    1.8212    0.0000 C   0  0  0  0  0  0  0  0  0  0  0  0
    2.8660   -0.1714    0.0000 C   0  0  0  0  0  0  0  0  0  0  0  0
    7.8410   -0.2819    0.0000 H   0  0  0  0  0  0  0  0  0  0  0  0
    8.5986   -0.5295    0.0000 H   0  0  0  0  0  0  0  0  0  0  0  0
    7.9896    2.3602    0.0000 H   0  0  0  0  0  0  0  0  0  0  0  0
    7.3963    1.8279    0.0000 H   0  0  0  0  0  0  0  0  0  0  0  0
    9.3664   -0.3677    0.0000 H   0  0  0  0  0  0  0  0  0  0  0  0
    9.9597    0.1646    0.0000 H   0  0  0  0  0  0  0  0  0  0  0  0
    9.5150    2.2744    0.0000 H   0  0  0  0  0  0  0  0  0  0  0  0
    8.7574    2.5221    0.0000 H   0  0  0  0  0  0  0  0  0  0  0  0
    6.7004    1.2035    0.0000 H   0  0  0  0  0  0  0  0  0  0  0  0
    6.1072    0.6712    0.0000 H   0  0  0  0  0  0  0  0  0  0  0  0
    7.6139   -1.1714    0.0000 H   0  0  0  0  0  0  0  0  0  0  0  0
    6.6029   -2.5655    0.0000 H   0  0  0  0  0  0  0  0  0  0  0  0
   10.5316    2.8207    0.0000 H   0  0  0  0  0  0  0  0  0  0  0  0
    4.5981    0.4486    0.0000 H   0  0  0  0  0  0  0  0  0  0  0  0
    4.5981   -2.7914    0.0000 H   0  0  0  0  0  0  0  0  0  0  0  0
   12.6954    0.4092    0.0000 H   0  0  0  0  0  0  0  0  0  0  0  0
   12.1168    3.1548    0.0000 H   0  0  0  0  0  0  0  0  0  0  0  0
    3.1951   -1.9814    0.0000 H   0  0  0  0  0  0  0  0  0  0  0  0
   13.1987    1.9490    0.0000 H   0  0  0  0  0  0  0  0  0  0  0  0
  1 16  1  0  0  0  0
  2  6  1  0  0  0  0
  2  7  1  0  0  0  0
  2 10  1  0  0  0  0
  3  8  1  0  0  0  0
  3  9  1  0  0  0  0
  3 12  1  0  0  0  0
  4 14  1  0  0  0  0
  4 15  1  0  0  0  0
  4 37  1  0  0  0  0
  5 25  3  0  0  0  0
  6  8  1  0  0  0  0
  6 26  1  0  0  0  0
  6 27  1  0  0  0  0
  7  9  1  0  0  0  0
  7 28  1  0  0  0  0
  7 29  1  0  0  0  0
  8 30  1  0  0  0  0
  8 31  1  0  0  0  0
  9 32  1  0  0  0  0
  9 33  1  0  0  0  0
 10 11  1  0  0  0  0
 10 34  1  0  0  0  0
 10 35  1  0  0  0  0
 11 13  1  0  0  0  0
 11 14  2  0  0  0  0
 12 16  1  0  0  0  0
 12 17  2  0  0  0  0
 13 15  2  0  0  0  0
 13 18  1  0  0  0  0
 14 36  1  0  0  0  0
 15 19  1  0  0  0  0
 16 21  2  0  0  0  0
 17 22  1  0  0  0  0
 17 38  1  0  0  0  0
 18 20  2  0  0  0  0
 18 39  1  0  0  0  0
 19 23  2  0  0  0  0
 19 40  1  0  0  0  0
 20 23  1  0  0  0  0
 20 25  1  0  0  0  0
 21 24  1  0  0  0  0
 21 41  1  0  0  0  0
 22 24  2  0  0  0  0
 22 42  1  0  0  0  0
 23 43  1  0  0  0  0
 24 44  1  0  0  0  0
M  END
> <PUBCHEM_COMPOUND_CID>
10665598

> <PUBCHEM_COMPOUND_CANONICALIZED>
1

> <PUBCHEM_CACTVS_COMPLEXITY>
495

> <PUBCHEM_CACTVS_HBOND_ACCEPTOR>
3

> <PUBCHEM_CACTVS_HBOND_DONOR>
1

> <PUBCHEM_CACTVS_ROTATABLE_BOND>
3

> <PUBCHEM_CACTVS_SUBSKEYS>
AAADceB7gAAEAAAAAAAAAAAAAAAAAWAAAAA8YIAAAAAAAFgB9AAAHAIQAAAADArBHiQ8wPPJkACwBzRnRACigCAxByAI2aA4ZpgI4OLB05HUIAhgkADIyA8QgMAOiAACAAACABAQAAQAAAQAIAAAAAAAAA==

> <PUBCHEM_IUPAC_OPENEYE_NAME>
3-[[4-(2-chlorophenyl)piperazin-1-yl]methyl]-1H-indole-5-carbonitrile

> <PUBCHEM_IUPAC_CAS_NAME>
3-[[4-(2-chlorophenyl)-1-piperazinyl]methyl]-1H-indole-5-carbonitrile

> <PUBCHEM_IUPAC_NAME_MARKUP>
3-[[4-(2-chlorophenyl)piperazin-1-yl]methyl]-1<I>H</I>-indole-5-carbonitrile

> <PUBCHEM_IUPAC_NAME>
3-[[4-(2-chlorophenyl)piperazin-1-yl]methyl]-1H-indole-5-carbonitrile

> <PUBCHEM_IUPAC_SYSTEMATIC_NAME>
3-[[4-(2-chlorophenyl)piperazin-1-yl]methyl]-1H-indole-5-carbonitrile

> <PUBCHEM_IUPAC_TRADITIONAL_NAME>
3-[[4-(2-chlorophenyl)piperazino]methyl]-1H-indole-5-carbonitrile

> <PUBCHEM_IUPAC_INCHI>
InChI=1S/C20H19ClN4/c21-18-3-1-2-4-20(18)25-9-7-24(8-10-25)14-16-13-23-19-6-5-15(12-22)11-17(16)19/h1-6,11,13,23H,7-10,14H2

> <PUBCHEM_IUPAC_INCHIKEY>
SNFLVHDMWFYRRB-UHFFFAOYSA-N

> <PUBCHEM_XLOGP3_AA>
3.8

> <PUBCHEM_EXACT_MASS>
350.1298243

> <PUBCHEM_MOLECULAR_FORMULA>
C20H19ClN4

> <PUBCHEM_MOLECULAR_WEIGHT>
350.8

> <PUBCHEM_OPENEYE_CAN_SMILES>
C1CN(CCN1CC2=CNC3=C2C=C(C=C3)C#N)C4=CC=CC=C4Cl

> <PUBCHEM_OPENEYE_ISO_SMILES>
C1CN(CCN1CC2=CNC3=C2C=C(C=C3)C#N)C4=CC=CC=C4Cl

> <PUBCHEM_CACTVS_TPSA>
46.1

> <PUBCHEM_MONOISOTOPIC_WEIGHT>
350.1298243

> <PUBCHEM_TOTAL_CHARGE>
0

> <PUBCHEM_HEAVY_ATOM_COUNT>
25

> <PUBCHEM_ATOM_DEF_STEREO_COUNT>
0

> <PUBCHEM_ATOM_UDEF_STEREO_COUNT>
0

> <PUBCHEM_BOND_DEF_STEREO_COUNT>
0

> <PUBCHEM_BOND_UDEF_STEREO_COUNT>
0

> <PUBCHEM_ISOTOPIC_ATOM_COUNT>
0

> <PUBCHEM_COMPONENT_COUNT>
1

> <PUBCHEM_CACTVS_TAUTO_COUNT>
-1

> <PUBCHEM_COORDINATE_TYPE>
1
5
255

> <PUBCHEM_BONDANNOTATIONS>
11  13  8
11  14  8
12  16  8
12  17  8
13  15  8
13  18  8
15  19  8
16  21  8
17  22  8
18  20  8
19  23  8
20  23  8
21  24  8
22  24  8
4  14  8
4  15  8

$$$$
