137657882
  -OEChem-09292322002D

 54 58  0     0  0  0  0  0  0999 V2000
    8.2592   -3.2140    0.0000 O   0  0  0  0  0  0  0  0  0  0  0  0
    4.6660    4.9531    0.0000 O   0  0  0  0  0  0  0  0  0  0  0  0
    6.3981    2.9531    0.0000 O   0  0  0  0  0  0  0  0  0  0  0  0
    8.1643   -4.9878    0.0000 O   0  0  0  0  0  0  0  0  0  0  0  0
    6.3981   -0.0469    0.0000 N   0  0  0  0  0  0  0  0  0  0  0  0
    8.1301   -1.0469    0.0000 N   0  0  0  0  0  0  0  0  0  0  0  0
    4.6660    2.9531    0.0000 N   0  0  0  0  0  0  0  0  0  0  0  0
    9.6530   -4.0187    0.0000 N   0  0  0  0  0  0  0  0  0  0  0  0
    7.2641    0.4531    0.0000 C   0  0  0  0  0  0  0  0  0  0  0  0
    6.3981   -1.0469    0.0000 C   0  0  0  0  0  0  0  0  0  0  0  0
    8.1301   -0.0469    0.0000 C   0  0  0  0  0  0  0  0  0  0  0  0
    7.2641   -1.5469    0.0000 C   0  0  0  0  0  0  0  0  0  0  0  0
    5.5321    0.4531    0.0000 C   0  0  0  0  0  0  0  0  0  0  0  0
    5.5321    1.4531    0.0000 C   0  0  0  0  0  0  0  0  0  0  0  0
    8.9962   -1.5469    0.0000 C   0  0  0  0  0  0  0  0  0  0  0  0
    4.6660    1.9531    0.0000 C   0  0  0  0  0  0  0  0  0  0  0  0
    8.9962   -2.5469    0.0000 C   0  0  0  0  0  0  0  0  0  0  0  0
    9.8622   -1.0469    0.0000 C   0  0  0  0  0  0  0  0  0  0  0  0
    9.8622   -3.0469    0.0000 C   0  0  0  0  0  0  0  0  0  0  0  0
    3.8000    3.4531    0.0000 C   0  0  0  0  0  0  0  0  0  0  0  0
    5.5321    3.4531    0.0000 C   0  0  0  0  0  0  0  0  0  0  0  0
   10.7282   -1.5469    0.0000 C   0  0  0  0  0  0  0  0  0  0  0  0
   10.7282   -2.5469    0.0000 C   0  0  0  0  0  0  0  0  0  0  0  0
    3.8000    4.4531    0.0000 C   0  0  0  0  0  0  0  0  0  0  0  0
    5.5321    4.4531    0.0000 C   0  0  0  0  0  0  0  0  0  0  0  0
    2.9061    2.9185    0.0000 C   0  0  0  0  0  0  0  0  0  0  0  0
    8.6643   -4.1217    0.0000 C   0  0  0  0  0  0  0  0  0  0  0  0
    2.9061    4.9878    0.0000 C   0  0  0  0  0  0  0  0  0  0  0  0
    2.0000    3.4323    0.0000 C   0  0  0  0  0  0  0  0  0  0  0  0
    2.0000    4.4739    0.0000 C   0  0  0  0  0  0  0  0  0  0  0  0
    7.6626    0.9281    0.0000 H   0  0  0  0  0  0  0  0  0  0  0  0
    6.8656    0.9281    0.0000 H   0  0  0  0  0  0  0  0  0  0  0  0
    5.7875   -0.9392    0.0000 H   0  0  0  0  0  0  0  0  0  0  0  0
    6.1860   -1.6295    0.0000 H   0  0  0  0  0  0  0  0  0  0  0  0
    8.7407   -0.1545    0.0000 H   0  0  0  0  0  0  0  0  0  0  0  0
    8.3422    0.5357    0.0000 H   0  0  0  0  0  0  0  0  0  0  0  0
    6.8656   -2.0218    0.0000 H   0  0  0  0  0  0  0  0  0  0  0  0
    7.6626   -2.0218    0.0000 H   0  0  0  0  0  0  0  0  0  0  0  0
    4.9215    0.5608    0.0000 H   0  0  0  0  0  0  0  0  0  0  0  0
    5.3200   -0.1295    0.0000 H   0  0  0  0  0  0  0  0  0  0  0  0
    6.1426    1.3455    0.0000 H   0  0  0  0  0  0  0  0  0  0  0  0
    5.7441    2.0357    0.0000 H   0  0  0  0  0  0  0  0  0  0  0  0
    4.0555    2.0608    0.0000 H   0  0  0  0  0  0  0  0  0  0  0  0
    4.4540    1.3705    0.0000 H   0  0  0  0  0  0  0  0  0  0  0  0
    9.8622   -0.4269    0.0000 H   0  0  0  0  0  0  0  0  0  0  0  0
   11.2651   -1.2369    0.0000 H   0  0  0  0  0  0  0  0  0  0  0  0
   11.2651   -2.8569    0.0000 H   0  0  0  0  0  0  0  0  0  0  0  0
    6.1426    4.3455    0.0000 H   0  0  0  0  0  0  0  0  0  0  0  0
    5.7441    5.0357    0.0000 H   0  0  0  0  0  0  0  0  0  0  0  0
   10.0670   -4.4802    0.0000 H   0  0  0  0  0  0  0  0  0  0  0  0
    2.9132    2.2985    0.0000 H   0  0  0  0  0  0  0  0  0  0  0  0
    2.9132    5.6077    0.0000 H   0  0  0  0  0  0  0  0  0  0  0  0
    1.4643    3.1202    0.0000 H   0  0  0  0  0  0  0  0  0  0  0  0
    1.4643    4.7860    0.0000 H   0  0  0  0  0  0  0  0  0  0  0  0
  1 17  1  0  0  0  0
  1 27  1  0  0  0  0
  2 24  1  0  0  0  0
  2 25  1  0  0  0  0
  3 21  2  0  0  0  0
  4 27  2  0  0  0  0
  5  9  1  0  0  0  0
  5 10  1  0  0  0  0
  5 13  1  0  0  0  0
  6 11  1  0  0  0  0
  6 12  1  0  0  0  0
  6 15  1  0  0  0  0
  7 16  1  0  0  0  0
  7 20  1  0  0  0  0
  7 21  1  0  0  0  0
  8 19  1  0  0  0  0
  8 27  1  0  0  0  0
  8 50  1  0  0  0  0
  9 11  1  0  0  0  0
  9 31  1  0  0  0  0
  9 32  1  0  0  0  0
 10 12  1  0  0  0  0
 10 33  1  0  0  0  0
 10 34  1  0  0  0  0
 11 35  1  0  0  0  0
 11 36  1  0  0  0  0
 12 37  1  0  0  0  0
 12 38  1  0  0  0  0
 13 14  1  0  0  0  0
 13 39  1  0  0  0  0
 13 40  1  0  0  0  0
 14 16  1  0  0  0  0
 14 41  1  0  0  0  0
 14 42  1  0  0  0  0
 15 17  1  0  0  0  0
 15 18  2  0  0  0  0
 16 43  1  0  0  0  0
 16 44  1  0  0  0  0
 17 19  2  0  0  0  0
 18 22  1  0  0  0  0
 18 45  1  0  0  0  0
 19 23  1  0  0  0  0
 20 24  1  0  0  0  0
 20 26  2  0  0  0  0
 21 25  1  0  0  0  0
 22 23  2  0  0  0  0
 22 46  1  0  0  0  0
 23 47  1  0  0  0  0
 24 28  2  0  0  0  0
 25 48  1  0  0  0  0
 25 49  1  0  0  0  0
 26 29  1  0  0  0  0
 26 51  1  0  0  0  0
 28 30  1  0  0  0  0
 28 52  1  0  0  0  0
 29 30  2  0  0  0  0
 29 53  1  0  0  0  0
 30 54  1  0  0  0  0
M  END
> <PUBCHEM_COMPOUND_CID>
137657882

> <PUBCHEM_COMPOUND_CANONICALIZED>
1

> <PUBCHEM_CACTVS_COMPLEXITY>
639

> <PUBCHEM_CACTVS_HBOND_ACCEPTOR>
6

> <PUBCHEM_CACTVS_HBOND_DONOR>
1

> <PUBCHEM_CACTVS_ROTATABLE_BOND>
5

> <PUBCHEM_CACTVS_SUBSKEYS>
AAADceB7uAAAAAAAAAAAAAAAAAAAAWAAAAA8eIEAAAAAAFixQAAAHgAQAAAACAzhkAYwzoPABACIACVSWAKCCAAhIgAIiABPbIkOZiLE8d+fOijk1hHY6AeQQAAAAAAAAAQAEAAAAAAACAAgAAAAAAAAAA==

> <PUBCHEM_IUPAC_OPENEYE_NAME>
4-[3-[4-(2-oxo-3H-1,3-benzoxazol-7-yl)piperazin-1-yl]propyl]-1,4-benzoxazin-3-one

> <PUBCHEM_IUPAC_CAS_NAME>
4-[3-[4-(2-oxo-3H-1,3-benzoxazol-7-yl)-1-piperazinyl]propyl]-1,4-benzoxazin-3-one

> <PUBCHEM_IUPAC_NAME_MARKUP>
4-[3-[4-(2-oxo-3<I>H</I>-1,3-benzoxazol-7-yl)piperazin-1-yl]propyl]-1,4-benzoxazin-3-one

> <PUBCHEM_IUPAC_NAME>
4-[3-[4-(2-oxo-3H-1,3-benzoxazol-7-yl)piperazin-1-yl]propyl]-1,4-benzoxazin-3-one

> <PUBCHEM_IUPAC_SYSTEMATIC_NAME>
4-[3-[4-(2-oxidanylidene-3H-1,3-benzoxazol-7-yl)piperazin-1-yl]propyl]-1,4-benzoxazin-3-one

> <PUBCHEM_IUPAC_TRADITIONAL_NAME>
4-[3-[4-(2-keto-3H-1,3-benzoxazol-7-yl)piperazino]propyl]-1,4-benzoxazin-3-one

> <PUBCHEM_IUPAC_INCHI>
InChI=1S/C22H24N4O4/c27-20-15-29-19-8-2-1-6-17(19)26(20)10-4-9-24-11-13-25(14-12-24)18-7-3-5-16-21(18)30-22(28)23-16/h1-3,5-8H,4,9-15H2,(H,23,28)

> <PUBCHEM_IUPAC_INCHIKEY>
VQKRYESCJYNAOI-UHFFFAOYSA-N

> <PUBCHEM_XLOGP3_AA>
2.3

> <PUBCHEM_EXACT_MASS>
408.17975526

> <PUBCHEM_MOLECULAR_FORMULA>
C22H24N4O4

> <PUBCHEM_MOLECULAR_WEIGHT>
408.4

> <PUBCHEM_OPENEYE_CAN_SMILES>
C1CN(CCN1CCCN2C(=O)COC3=CC=CC=C32)C4=CC=CC5=C4OC(=O)N5

> <PUBCHEM_OPENEYE_ISO_SMILES>
C1CN(CCN1CCCN2C(=O)COC3=CC=CC=C32)C4=CC=CC5=C4OC(=O)N5

> <PUBCHEM_CACTVS_TPSA>
74.4

> <PUBCHEM_MONOISOTOPIC_WEIGHT>
408.17975526

> <PUBCHEM_TOTAL_CHARGE>
0

> <PUBCHEM_HEAVY_ATOM_COUNT>
30

> <PUBCHEM_ATOM_DEF_STEREO_COUNT>
0

> <PUBCHEM_ATOM_UDEF_STEREO_COUNT>
0

> <PUBCHEM_BOND_DEF_STEREO_COUNT>
0

> <PUBCHEM_BOND_UDEF_STEREO_COUNT>
0

> <PUBCHEM_ISOTOPIC_ATOM_COUNT>
0

> <PUBCHEM_COMPONENT_COUNT>
1

> <PUBCHEM_CACTVS_TAUTO_COUNT>
-1

> <PUBCHEM_COORDINATE_TYPE>
1
5
255

> <PUBCHEM_BONDANNOTATIONS>
1  17  8
1  27  8
15  17  8
15  18  8
17  19  8
18  22  8
19  23  8
20  24  8
20  26  8
22  23  8
24  28  8
26  29  8
28  30  8
29  30  8
8  19  8
8  27  8

$$$$
