9916104
  -OEChem-09292322272D

 58 60  0     0  0  0  0  0  0999 V2000
    6.3301    2.9330    0.0000 S   0  0  0  0  0  0  0  0  0  0  0  0
    2.0000   -5.5670    0.0000 F   0  0  0  0  0  0  0  0  0  0  0  0
    2.3660   -4.2010    0.0000 F   0  0  0  0  0  0  0  0  0  0  0  0
    3.3660   -5.9330    0.0000 F   0  0  0  0  0  0  0  0  0  0  0  0
    4.5981    5.9330    0.0000 O   0  0  0  0  0  0  0  0  0  0  0  0
    4.5981   -0.0670    0.0000 N   0  0  0  0  0  0  0  0  0  0  0  0
    4.5981   -2.0670    0.0000 N   0  0  0  0  0  0  0  0  0  0  0  0
    5.4641   -3.5670    0.0000 N   0  0  0  0  0  0  0  0  0  0  0  0
    4.5981   -5.0670    0.0000 N   0  0  0  0  0  0  0  0  0  0  0  0
    5.4641    4.4330    0.0000 N   0  0  0  0  0  0  0  0  0  0  0  0
    7.1962    4.4330    0.0000 N   0  0  0  0  0  0  0  0  0  0  0  0
    3.7320   -0.5670    0.0000 C   0  0  0  0  0  0  0  0  0  0  0  0
    5.4641   -0.5670    0.0000 C   0  0  0  0  0  0  0  0  0  0  0  0
    3.7320   -1.5670    0.0000 C   0  0  0  0  0  0  0  0  0  0  0  0
    5.4641   -1.5670    0.0000 C   0  0  0  0  0  0  0  0  0  0  0  0
    4.5981    0.9330    0.0000 C   0  0  0  0  0  0  0  0  0  0  0  0
    4.5981   -3.0670    0.0000 C   0  0  0  0  0  0  0  0  0  0  0  0
    5.4641    1.4330    0.0000 C   0  0  0  0  0  0  0  0  0  0  0  0
    6.3301   -5.0670    0.0000 C   0  0  0  0  0  0  0  0  0  0  0  0
    5.4641   -4.5670    0.0000 C   0  0  0  0  0  0  0  0  0  0  0  0
    3.7320   -3.5670    0.0000 C   0  0  0  0  0  0  0  0  0  0  0  0
    5.4641    2.4330    0.0000 C   0  0  0  0  0  0  0  0  0  0  0  0
    7.1962   -5.5670    0.0000 C   0  0  0  0  0  0  0  0  0  0  0  0
    5.8301   -5.9330    0.0000 C   0  0  0  0  0  0  0  0  0  0  0  0
    6.8301   -4.2010    0.0000 C   0  0  0  0  0  0  0  0  0  0  0  0
    3.7320   -4.5670    0.0000 C   0  0  0  0  0  0  0  0  0  0  0  0
    2.8660   -5.0670    0.0000 C   0  0  0  0  0  0  0  0  0  0  0  0
    6.3301    3.9330    0.0000 C   0  0  0  0  0  0  0  0  0  0  0  0
    5.4641    5.4330    0.0000 C   0  0  0  0  0  0  0  0  0  0  0  0
    7.1962    5.4330    0.0000 C   0  0  0  0  0  0  0  0  0  0  0  0
    6.3301    5.9330    0.0000 C   0  0  0  0  0  0  0  0  0  0  0  0
    3.5200    0.0156    0.0000 H   0  0  0  0  0  0  0  0  0  0  0  0
    3.1215   -0.6746    0.0000 H   0  0  0  0  0  0  0  0  0  0  0  0
    6.0747   -0.6746    0.0000 H   0  0  0  0  0  0  0  0  0  0  0  0
    5.6762    0.0156    0.0000 H   0  0  0  0  0  0  0  0  0  0  0  0
    3.1215   -1.4593    0.0000 H   0  0  0  0  0  0  0  0  0  0  0  0
    3.5200   -2.1496    0.0000 H   0  0  0  0  0  0  0  0  0  0  0  0
    5.6762   -2.1496    0.0000 H   0  0  0  0  0  0  0  0  0  0  0  0
    6.0747   -1.4593    0.0000 H   0  0  0  0  0  0  0  0  0  0  0  0
    4.3860    1.5156    0.0000 H   0  0  0  0  0  0  0  0  0  0  0  0
    3.9875    0.8254    0.0000 H   0  0  0  0  0  0  0  0  0  0  0  0
    5.6762    0.8504    0.0000 H   0  0  0  0  0  0  0  0  0  0  0  0
    6.0747    1.5407    0.0000 H   0  0  0  0  0  0  0  0  0  0  0  0
    3.1951   -3.2570    0.0000 H   0  0  0  0  0  0  0  0  0  0  0  0
    5.2520    3.0156    0.0000 H   0  0  0  0  0  0  0  0  0  0  0  0
    4.8535    2.3253    0.0000 H   0  0  0  0  0  0  0  0  0  0  0  0
    6.8862   -6.1039    0.0000 H   0  0  0  0  0  0  0  0  0  0  0  0
    7.7331   -5.8770    0.0000 H   0  0  0  0  0  0  0  0  0  0  0  0
    7.5062   -5.0300    0.0000 H   0  0  0  0  0  0  0  0  0  0  0  0
    5.2932   -5.6230    0.0000 H   0  0  0  0  0  0  0  0  0  0  0  0
    5.5201   -6.4700    0.0000 H   0  0  0  0  0  0  0  0  0  0  0  0
    6.3671   -6.2430    0.0000 H   0  0  0  0  0  0  0  0  0  0  0  0
    7.3671   -4.5110    0.0000 H   0  0  0  0  0  0  0  0  0  0  0  0
    7.1401   -3.6640    0.0000 H   0  0  0  0  0  0  0  0  0  0  0  0
    6.2932   -3.8910    0.0000 H   0  0  0  0  0  0  0  0  0  0  0  0
    4.9272    4.1230    0.0000 H   0  0  0  0  0  0  0  0  0  0  0  0
    7.7331    5.7430    0.0000 H   0  0  0  0  0  0  0  0  0  0  0  0
    6.3301    6.5530    0.0000 H   0  0  0  0  0  0  0  0  0  0  0  0
  1 22  1  0  0  0  0
  1 28  1  0  0  0  0
  2 27  1  0  0  0  0
  3 27  1  0  0  0  0
  4 27  1  0  0  0  0
  5 29  2  0  0  0  0
  6 12  1  0  0  0  0
  6 13  1  0  0  0  0
  6 16  1  0  0  0  0
  7 14  1  0  0  0  0
  7 15  1  0  0  0  0
  7 17  1  0  0  0  0
  8 17  2  0  0  0  0
  8 20  1  0  0  0  0
  9 20  2  0  0  0  0
  9 26  1  0  0  0  0
 10 28  1  0  0  0  0
 10 29  1  0  0  0  0
 10 56  1  0  0  0  0
 11 28  2  0  0  0  0
 11 30  1  0  0  0  0
 12 14  1  0  0  0  0
 12 32  1  0  0  0  0
 12 33  1  0  0  0  0
 13 15  1  0  0  0  0
 13 34  1  0  0  0  0
 13 35  1  0  0  0  0
 14 36  1  0  0  0  0
 14 37  1  0  0  0  0
 15 38  1  0  0  0  0
 15 39  1  0  0  0  0
 16 18  1  0  0  0  0
 16 40  1  0  0  0  0
 16 41  1  0  0  0  0
 17 21  1  0  0  0  0
 18 22  1  0  0  0  0
 18 42  1  0  0  0  0
 18 43  1  0  0  0  0
 19 20  1  0  0  0  0
 19 23  1  0  0  0  0
 19 24  1  0  0  0  0
 19 25  1  0  0  0  0
 21 26  2  0  0  0  0
 21 44  1  0  0  0  0
 22 45  1  0  0  0  0
 22 46  1  0  0  0  0
 23 47  1  0  0  0  0
 23 48  1  0  0  0  0
 23 49  1  0  0  0  0
 24 50  1  0  0  0  0
 24 51  1  0  0  0  0
 24 52  1  0  0  0  0
 25 53  1  0  0  0  0
 25 54  1  0  0  0  0
 25 55  1  0  0  0  0
 26 27  1  0  0  0  0
 29 31  1  0  0  0  0
 30 31  2  0  0  0  0
 30 57  1  0  0  0  0
 31 58  1  0  0  0  0
M  END
> <PUBCHEM_COMPOUND_CID>
9916104

> <PUBCHEM_COMPOUND_CANONICALIZED>
1

> <PUBCHEM_CACTVS_COMPLEXITY>
685

> <PUBCHEM_CACTVS_HBOND_ACCEPTOR>
10

> <PUBCHEM_CACTVS_HBOND_DONOR>
1

> <PUBCHEM_CACTVS_ROTATABLE_BOND>
7

> <PUBCHEM_CACTVS_SUBSKEYS>
AAADceB7oYBAAAAAAAAAAAAAAAAAAAAAAAAsWIAAAAAAAAABgAAAHwQQAAAADgjF1xSzsJfIEAioASd2dACAkClhArAJGCA4ZFiAaABgyMAUBAhIEALAQOAAAAAAAAAAAAAAAAAAAAAAAAAAAAAAAAAAAA==

> <PUBCHEM_IUPAC_OPENEYE_NAME>
2-[3-[4-[2-tert-butyl-6-(trifluoromethyl)pyrimidin-4-yl]piperazin-1-yl]propylsulfanyl]-1H-pyrimidin-6-one

> <PUBCHEM_IUPAC_CAS_NAME>
2-[3-[4-[2-tert-butyl-6-(trifluoromethyl)-4-pyrimidinyl]-1-piperazinyl]propylthio]-1H-pyrimidin-6-one

> <PUBCHEM_IUPAC_NAME_MARKUP>
2-[3-[4-[2-<I>tert</I>-butyl-6-(trifluoromethyl)pyrimidin-4-yl]piperazin-1-yl]propylsulfanyl]-1<I>H</I>-pyrimidin-6-one

> <PUBCHEM_IUPAC_NAME>
2-[3-[4-[2-tert-butyl-6-(trifluoromethyl)pyrimidin-4-yl]piperazin-1-yl]propylsulfanyl]-1H-pyrimidin-6-one

> <PUBCHEM_IUPAC_SYSTEMATIC_NAME>
2-[3-[4-[2-tert-butyl-6-(trifluoromethyl)pyrimidin-4-yl]piperazin-1-yl]propylsulfanyl]-1H-pyrimidin-6-one

> <PUBCHEM_IUPAC_TRADITIONAL_NAME>
2-[3-[4-[2-tert-butyl-6-(trifluoromethyl)pyrimidin-4-yl]piperazino]propylthio]-1H-pyrimidin-6-one

> <PUBCHEM_IUPAC_INCHI>
InChI=1S/C20H27F3N6OS/c1-19(2,3)17-25-14(20(21,22)23)13-15(26-17)29-10-8-28(9-11-29)7-4-12-31-18-24-6-5-16(30)27-18/h5-6,13H,4,7-12H2,1-3H3,(H,24,27,30)

> <PUBCHEM_IUPAC_INCHIKEY>
KXVAICSRMHXLJN-UHFFFAOYSA-N

> <PUBCHEM_XLOGP3_AA>
3.4

> <PUBCHEM_EXACT_MASS>
456.19191517

> <PUBCHEM_MOLECULAR_FORMULA>
C20H27F3N6OS

> <PUBCHEM_MOLECULAR_WEIGHT>
456.5

> <PUBCHEM_OPENEYE_CAN_SMILES>
CC(C)(C)C1=NC(=CC(=N1)N2CCN(CC2)CCCSC3=NC=CC(=O)N3)C(F)(F)F

> <PUBCHEM_OPENEYE_ISO_SMILES>
CC(C)(C)C1=NC(=CC(=N1)N2CCN(CC2)CCCSC3=NC=CC(=O)N3)C(F)(F)F

> <PUBCHEM_CACTVS_TPSA>
99

> <PUBCHEM_MONOISOTOPIC_WEIGHT>
456.19191517

> <PUBCHEM_TOTAL_CHARGE>
0

> <PUBCHEM_HEAVY_ATOM_COUNT>
31

> <PUBCHEM_ATOM_DEF_STEREO_COUNT>
0

> <PUBCHEM_ATOM_UDEF_STEREO_COUNT>
0

> <PUBCHEM_BOND_DEF_STEREO_COUNT>
0

> <PUBCHEM_BOND_UDEF_STEREO_COUNT>
0

> <PUBCHEM_ISOTOPIC_ATOM_COUNT>
0

> <PUBCHEM_COMPONENT_COUNT>
1

> <PUBCHEM_CACTVS_TAUTO_COUNT>
3

> <PUBCHEM_COORDINATE_TYPE>
1
5
255

> <PUBCHEM_BONDANNOTATIONS>
10  28  8
10  29  8
11  28  8
11  30  8
17  21  8
21  26  8
29  31  8
30  31  8
8  17  8
8  20  8
9  20  8
9  26  8

$$$$
