23631092
  -OEChem-09292322252D

 62 66  0     1  0  0  0  0  0999 V2000
    2.0000   -1.9660    0.0000 Cl  0  0  0  0  0  0  0  0  0  0  0  0
    7.9840   -1.1039    0.0000 S   0  0  0  0  0  0  0  0  0  0  0  0
   17.4201    1.9948    0.0000 O   0  0  0  0  0  0  0  0  0  0  0  0
   10.9840    0.6281    0.0000 N   0  0  3  0  0  0  0  0  0  0  0  0
   16.7538    1.2491    0.0000 N   0  0  0  0  0  0  0  0  0  0  0  0
    6.3962   -1.9129    0.0000 N   0  0  0  0  0  0  0  0  0  0  0  0
    6.3962   -0.2949    0.0000 N   0  0  0  0  0  0  0  0  0  0  0  0
    5.4451   -0.6039    0.0000 N   0  0  0  0  0  0  0  0  0  0  0  0
   11.4179    1.5291    0.0000 C   0  0  0  0  0  0  0  0  0  0  0  0
   11.4179   -0.2728    0.0000 C   0  0  0  0  0  0  0  0  0  0  0  0
   12.3928    1.7516    0.0000 C   0  0  0  0  0  0  0  0  0  0  0  0
   12.3928   -0.4953    0.0000 C   0  0  0  0  0  0  0  0  0  0  0  0
   13.1746    1.1281    0.0000 C   0  0  0  0  0  0  0  0  0  0  0  0
   13.1746    0.1281    0.0000 C   0  0  0  0  0  0  0  0  0  0  0  0
    9.9840    0.6281    0.0000 C   0  0  0  0  0  0  0  0  0  0  0  0
    9.4840   -0.2379    0.0000 C   0  0  0  0  0  0  0  0  0  0  0  0
   14.0686    1.6628    0.0000 C   0  0  0  0  0  0  0  0  0  0  0  0
   14.0686   -0.4065    0.0000 C   0  0  0  0  0  0  0  0  0  0  0  0
   14.9746    1.1490    0.0000 C   0  0  0  0  0  0  0  0  0  0  0  0
    8.4840   -0.2379    0.0000 C   0  0  0  0  0  0  0  0  0  0  0  0
   14.9746    0.1073    0.0000 C   0  0  0  0  0  0  0  0  0  0  0  0
   15.8387    1.6523    0.0000 C   0  0  0  0  0  0  0  0  0  0  0  0
   15.9394    2.6472    0.0000 C   0  0  0  0  0  0  0  0  0  0  0  0
    6.9840   -1.1039    0.0000 C   0  0  0  0  0  0  0  0  0  0  0  0
   16.9167    2.8589    0.0000 C   0  0  0  0  0  0  0  0  0  0  0  0
    5.4451   -1.6039    0.0000 C   0  0  0  0  0  0  0  0  0  0  0  0
    6.7052   -2.8640    0.0000 C   0  0  0  0  0  0  0  0  0  0  0  0
    4.6361   -2.1917    0.0000 C   0  0  0  0  0  0  0  0  0  0  0  0
   17.3200    3.7740    0.0000 C   0  0  0  0  0  0  0  0  0  0  0  0
    3.7226   -1.7850    0.0000 C   0  0  0  0  0  0  0  0  0  0  0  0
    4.7406   -3.1862    0.0000 C   0  0  0  0  0  0  0  0  0  0  0  0
    2.9136   -2.3727    0.0000 C   0  0  0  0  0  0  0  0  0  0  0  0
    3.9316   -3.7740    0.0000 C   0  0  0  0  0  0  0  0  0  0  0  0
    3.0181   -3.3673    0.0000 C   0  0  0  0  0  0  0  0  0  0  0  0
   11.4179    2.1491    0.0000 H   0  0  0  0  0  0  0  0  0  0  0  0
   10.8134    1.6671    0.0000 H   0  0  0  0  0  0  0  0  0  0  0  0
   10.8134   -0.4108    0.0000 H   0  0  0  0  0  0  0  0  0  0  0  0
   11.4179   -0.8928    0.0000 H   0  0  0  0  0  0  0  0  0  0  0  0
   12.8775    2.1382    0.0000 H   0  0  0  0  0  0  0  0  0  0  0  0
   12.1238    2.3102    0.0000 H   0  0  0  0  0  0  0  0  0  0  0  0
   12.1238   -1.0540    0.0000 H   0  0  0  0  0  0  0  0  0  0  0  0
   12.8775   -0.8819    0.0000 H   0  0  0  0  0  0  0  0  0  0  0  0
   10.0916    1.2387    0.0000 H   0  0  0  0  0  0  0  0  0  0  0  0
    9.4014    0.8402    0.0000 H   0  0  0  0  0  0  0  0  0  0  0  0
    9.3763   -0.8485    0.0000 H   0  0  0  0  0  0  0  0  0  0  0  0
   10.0666   -0.4499    0.0000 H   0  0  0  0  0  0  0  0  0  0  0  0
   14.0614    2.2828    0.0000 H   0  0  0  0  0  0  0  0  0  0  0  0
   14.0614   -1.0265    0.0000 H   0  0  0  0  0  0  0  0  0  0  0  0
    8.5916    0.3727    0.0000 H   0  0  0  0  0  0  0  0  0  0  0  0
    7.9014   -0.0258    0.0000 H   0  0  0  0  0  0  0  0  0  0  0  0
   15.5104   -0.2047    0.0000 H   0  0  0  0  0  0  0  0  0  0  0  0
   15.4771    3.0603    0.0000 H   0  0  0  0  0  0  0  0  0  0  0  0
    6.1155   -3.0556    0.0000 H   0  0  0  0  0  0  0  0  0  0  0  0
    6.8968   -3.4536    0.0000 H   0  0  0  0  0  0  0  0  0  0  0  0
    7.2948   -2.6724    0.0000 H   0  0  0  0  0  0  0  0  0  0  0  0
   17.8873    3.5240    0.0000 H   0  0  0  0  0  0  0  0  0  0  0  0
   17.5699    4.3414    0.0000 H   0  0  0  0  0  0  0  0  0  0  0  0
   16.7526    4.0240    0.0000 H   0  0  0  0  0  0  0  0  0  0  0  0
    3.6578   -1.1684    0.0000 H   0  0  0  0  0  0  0  0  0  0  0  0
    5.3070   -3.4384    0.0000 H   0  0  0  0  0  0  0  0  0  0  0  0
    3.9964   -4.3906    0.0000 H   0  0  0  0  0  0  0  0  0  0  0  0
    2.5165   -3.7317    0.0000 H   0  0  0  0  0  0  0  0  0  0  0  0
  1 32  1  0  0  0  0
  2 20  1  0  0  0  0
  2 24  1  0  0  0  0
  3  5  1  0  0  0  0
  3 25  1  0  0  0  0
  4  9  1  0  0  0  0
  4 10  1  0  0  0  0
  4 15  1  0  0  0  0
  5 22  2  0  0  0  0
  6 24  1  0  0  0  0
  6 26  1  0  0  0  0
  6 27  1  0  0  0  0
  7  8  1  0  0  0  0
  7 24  2  0  0  0  0
  8 26  2  0  0  0  0
  9 11  1  0  0  0  0
  9 35  1  0  0  0  0
  9 36  1  0  0  0  0
 10 12  1  0  0  0  0
 10 37  1  0  0  0  0
 10 38  1  0  0  0  0
 11 13  1  0  0  0  0
 11 39  1  0  0  0  0
 11 40  1  0  0  0  0
 12 14  1  0  0  0  0
 12 41  1  0  0  0  0
 12 42  1  0  0  0  0
 13 14  2  0  0  0  0
 13 17  1  0  0  0  0
 14 18  1  0  0  0  0
 15 16  1  0  0  0  0
 15 43  1  0  0  0  0
 15 44  1  0  0  0  0
 16 20  1  0  0  0  0
 16 45  1  0  0  0  0
 16 46  1  0  0  0  0
 17 19  2  0  0  0  0
 17 47  1  0  0  0  0
 18 21  2  0  0  0  0
 18 48  1  0  0  0  0
 19 21  1  0  0  0  0
 19 22  1  0  0  0  0
 20 49  1  0  0  0  0
 20 50  1  0  0  0  0
 21 51  1  0  0  0  0
 22 23  1  0  0  0  0
 23 25  2  0  0  0  0
 23 52  1  0  0  0  0
 25 29  1  0  0  0  0
 26 28  1  0  0  0  0
 27 53  1  0  0  0  0
 27 54  1  0  0  0  0
 27 55  1  0  0  0  0
 28 30  2  0  0  0  0
 28 31  1  0  0  0  0
 29 56  1  0  0  0  0
 29 57  1  0  0  0  0
 29 58  1  0  0  0  0
 30 32  1  0  0  0  0
 30 59  1  0  0  0  0
 31 33  2  0  0  0  0
 31 60  1  0  0  0  0
 32 34  2  0  0  0  0
 33 34  1  0  0  0  0
 33 61  1  0  0  0  0
 34 62  1  0  0  0  0
M  END
> <PUBCHEM_COMPOUND_CID>
23631092

> <PUBCHEM_COMPOUND_CANONICALIZED>
1

> <PUBCHEM_CACTVS_COMPLEXITY>
646

> <PUBCHEM_CACTVS_HBOND_ACCEPTOR>
6

> <PUBCHEM_CACTVS_HBOND_DONOR>
0

> <PUBCHEM_CACTVS_ROTATABLE_BOND>
7

> <PUBCHEM_CACTVS_SUBSKEYS>
AAADceB7oABEAAAAAAAAAAAAAAAAAWLAAAAwYAAABYAAAAAB9AAAHgYMAAAADA7F3ySzlJccEAirA6ZyZgCS0AtkJ7A92CE+btqILrqhm5OEMYhmiBqIyUeYyOCOwAACIAAQAACAAARAACAAAAAAAAAAAA==

> <PUBCHEM_IUPAC_OPENEYE_NAME>
3-[3-[3-[[5-(3-chlorophenyl)-4-methyl-1,2,4-triazol-3-yl]sulfanyl]propyl]-1,2,4,5-tetrahydro-3-benzazepin-7-yl]-5-methyl-isoxazole

> <PUBCHEM_IUPAC_CAS_NAME>
3-[3-[3-[[5-(3-chlorophenyl)-4-methyl-1,2,4-triazol-3-yl]thio]propyl]-1,2,4,5-tetrahydro-3-benzazepin-7-yl]-5-methylisoxazole

> <PUBCHEM_IUPAC_NAME_MARKUP>
3-[3-[3-[[5-(3-chlorophenyl)-4-methyl-1,2,4-triazol-3-yl]sulfanyl]propyl]-1,2,4,5-tetrahydro-3-benzazepin-7-yl]-5-methyl-1,2-oxazole

> <PUBCHEM_IUPAC_NAME>
3-[3-[3-[[5-(3-chlorophenyl)-4-methyl-1,2,4-triazol-3-yl]sulfanyl]propyl]-1,2,4,5-tetrahydro-3-benzazepin-7-yl]-5-methyl-1,2-oxazole

> <PUBCHEM_IUPAC_SYSTEMATIC_NAME>
3-[3-[3-[[5-(3-chlorophenyl)-4-methyl-1,2,4-triazol-3-yl]sulfanyl]propyl]-1,2,4,5-tetrahydro-3-benzazepin-7-yl]-5-methyl-1,2-oxazole

> <PUBCHEM_IUPAC_TRADITIONAL_NAME>
3-[3-[3-[[5-(3-chlorophenyl)-4-methyl-1,2,4-triazol-3-yl]thio]propyl]-1,2,4,5-tetrahydro-3-benzazepin-7-yl]-5-methyl-isoxazole

> <PUBCHEM_IUPAC_INCHI>
InChI=1S/C26H28ClN5OS/c1-18-15-24(30-33-18)21-8-7-19-9-12-32(13-10-20(19)16-21)11-4-14-34-26-29-28-25(31(26)2)22-5-3-6-23(27)17-22/h3,5-8,15-17H,4,9-14H2,1-2H3

> <PUBCHEM_IUPAC_INCHIKEY>
DEIXGWIQADAVTO-UHFFFAOYSA-N

> <PUBCHEM_XLOGP3_AA>
5.5

> <PUBCHEM_EXACT_MASS>
493.1703094

> <PUBCHEM_MOLECULAR_FORMULA>
C26H28ClN5OS

> <PUBCHEM_MOLECULAR_WEIGHT>
494.1

> <PUBCHEM_OPENEYE_CAN_SMILES>
CC1=CC(=NO1)C2=CC3=C(CCN(CC3)CCCSC4=NN=C(N4C)C5=CC(=CC=C5)Cl)C=C2

> <PUBCHEM_OPENEYE_ISO_SMILES>
CC1=CC(=NO1)C2=CC3=C(CCN(CC3)CCCSC4=NN=C(N4C)C5=CC(=CC=C5)Cl)C=C2

> <PUBCHEM_CACTVS_TPSA>
85.3

> <PUBCHEM_MONOISOTOPIC_WEIGHT>
493.1703094

> <PUBCHEM_TOTAL_CHARGE>
0

> <PUBCHEM_HEAVY_ATOM_COUNT>
34

> <PUBCHEM_ATOM_DEF_STEREO_COUNT>
0

> <PUBCHEM_ATOM_UDEF_STEREO_COUNT>
0

> <PUBCHEM_BOND_DEF_STEREO_COUNT>
0

> <PUBCHEM_BOND_UDEF_STEREO_COUNT>
0

> <PUBCHEM_ISOTOPIC_ATOM_COUNT>
0

> <PUBCHEM_COMPONENT_COUNT>
1

> <PUBCHEM_CACTVS_TAUTO_COUNT>
-1

> <PUBCHEM_COORDINATE_TYPE>
1
5
255

> <PUBCHEM_BONDANNOTATIONS>
13  14  8
13  17  8
14  18  8
17  19  8
18  21  8
19  21  8
22  23  8
23  25  8
28  30  8
28  31  8
3  25  8
3  5  8
30  32  8
31  33  8
32  34  8
33  34  8
5  22  8
6  24  8
6  26  8
7  24  8
7  8  8
8  26  8

$$$$
