70684965
  -OEChem-09292322142D

 53 55  0     1  0  0  0  0  0999 V2000
   10.6766   -2.6092    0.0000 O   0  0  0  0  0  0  0  0  0  0  0  0
    7.1962    0.4254    0.0000 N   0  0  3  0  0  0  0  0  0  0  0  0
    8.0622   -0.0746    0.0000 C   0  0  1  0  0  0  0  0  0  0  0  0
    8.0622   -1.0746    0.0000 C   0  0  0  0  0  0  0  0  0  0  0  0
    8.9282    0.4254    0.0000 C   0  0  0  0  0  0  0  0  0  0  0  0
    8.9282   -1.5746    0.0000 C   0  0  0  0  0  0  0  0  0  0  0  0
    9.7942   -0.0746    0.0000 C   0  0  0  0  0  0  0  0  0  0  0  0
    9.7942   -1.0746    0.0000 C   0  0  0  0  0  0  0  0  0  0  0  0
    6.3301   -0.0746    0.0000 C   0  0  0  0  0  0  0  0  0  0  0  0
    7.1962    1.4254    0.0000 C   0  0  0  0  0  0  0  0  0  0  0  0
    5.4641    0.4254    0.0000 C   0  0  0  0  0  0  0  0  0  0  0  0
    6.3301    1.9254    0.0000 C   0  0  0  0  0  0  0  0  0  0  0  0
   10.6882    0.4601    0.0000 C   0  0  0  0  0  0  0  0  0  0  0  0
   10.6882   -1.6093    0.0000 C   0  0  0  0  0  0  0  0  0  0  0  0
   11.5942   -0.0538    0.0000 C   0  0  0  0  0  0  0  0  0  0  0  0
   11.5942   -1.0954    0.0000 C   0  0  0  0  0  0  0  0  0  0  0  0
    4.5981   -0.0746    0.0000 C   0  0  0  0  0  0  0  0  0  0  0  0
    6.3301    2.9254    0.0000 C   0  0  0  0  0  0  0  0  0  0  0  0
    3.7320    0.4254    0.0000 C   0  0  0  0  0  0  0  0  0  0  0  0
    4.5981   -1.0746    0.0000 C   0  0  0  0  0  0  0  0  0  0  0  0
    2.8660   -0.0746    0.0000 C   0  0  0  0  0  0  0  0  0  0  0  0
    3.7320   -1.5746    0.0000 C   0  0  0  0  0  0  0  0  0  0  0  0
    2.8660   -1.0746    0.0000 C   0  0  0  0  0  0  0  0  0  0  0  0
    2.0000   -1.5746    0.0000 C   0  0  0  0  0  0  0  0  0  0  0  0
    8.0622    0.5454    0.0000 H   0  0  0  0  0  0  0  0  0  0  0  0
    7.4516   -0.9669    0.0000 H   0  0  0  0  0  0  0  0  0  0  0  0
    7.8501   -1.6572    0.0000 H   0  0  0  0  0  0  0  0  0  0  0  0
    9.3267    0.9003    0.0000 H   0  0  0  0  0  0  0  0  0  0  0  0
    8.5297    0.9003    0.0000 H   0  0  0  0  0  0  0  0  0  0  0  0
    8.5297   -2.0496    0.0000 H   0  0  0  0  0  0  0  0  0  0  0  0
    9.3267   -2.0496    0.0000 H   0  0  0  0  0  0  0  0  0  0  0  0
    5.9316   -0.5496    0.0000 H   0  0  0  0  0  0  0  0  0  0  0  0
    6.7287   -0.5496    0.0000 H   0  0  0  0  0  0  0  0  0  0  0  0
    7.8067    1.3177    0.0000 H   0  0  0  0  0  0  0  0  0  0  0  0
    7.4082    2.0080    0.0000 H   0  0  0  0  0  0  0  0  0  0  0  0
    5.8626    0.9003    0.0000 H   0  0  0  0  0  0  0  0  0  0  0  0
    5.0656    0.9003    0.0000 H   0  0  0  0  0  0  0  0  0  0  0  0
    5.7196    2.0330    0.0000 H   0  0  0  0  0  0  0  0  0  0  0  0
    6.1181    1.3428    0.0000 H   0  0  0  0  0  0  0  0  0  0  0  0
   10.6810    1.0800    0.0000 H   0  0  0  0  0  0  0  0  0  0  0  0
   12.1300    0.2583    0.0000 H   0  0  0  0  0  0  0  0  0  0  0  0
   12.1300   -1.4075    0.0000 H   0  0  0  0  0  0  0  0  0  0  0  0
    6.9501    2.9254    0.0000 H   0  0  0  0  0  0  0  0  0  0  0  0
    6.3301    3.5454    0.0000 H   0  0  0  0  0  0  0  0  0  0  0  0
    5.7101    2.9254    0.0000 H   0  0  0  0  0  0  0  0  0  0  0  0
   11.2099   -2.9254    0.0000 H   0  0  0  0  0  0  0  0  0  0  0  0
    3.7320    1.0454    0.0000 H   0  0  0  0  0  0  0  0  0  0  0  0
    5.1350   -1.3846    0.0000 H   0  0  0  0  0  0  0  0  0  0  0  0
    2.3291    0.2354    0.0000 H   0  0  0  0  0  0  0  0  0  0  0  0
    3.7320   -2.1946    0.0000 H   0  0  0  0  0  0  0  0  0  0  0  0
    1.6900   -1.0377    0.0000 H   0  0  0  0  0  0  0  0  0  0  0  0
    1.4631   -1.8846    0.0000 H   0  0  0  0  0  0  0  0  0  0  0  0
    2.3100   -2.1115    0.0000 H   0  0  0  0  0  0  0  0  0  0  0  0
  1 14  1  0  0  0  0
  1 46  1  0  0  0  0
  3  2  1  6  0  0  0
  2  9  1  0  0  0  0
  2 10  1  0  0  0  0
  3  4  1  0  0  0  0
  3  5  1  0  0  0  0
  3 25  1  0  0  0  0
  4  6  1  0  0  0  0
  4 26  1  0  0  0  0
  4 27  1  0  0  0  0
  5  7  1  0  0  0  0
  5 28  1  0  0  0  0
  5 29  1  0  0  0  0
  6  8  1  0  0  0  0
  6 30  1  0  0  0  0
  6 31  1  0  0  0  0
  7  8  2  0  0  0  0
  7 13  1  0  0  0  0
  8 14  1  0  0  0  0
  9 11  1  0  0  0  0
  9 32  1  0  0  0  0
  9 33  1  0  0  0  0
 10 12  1  0  0  0  0
 10 34  1  0  0  0  0
 10 35  1  0  0  0  0
 11 17  1  0  0  0  0
 11 36  1  0  0  0  0
 11 37  1  0  0  0  0
 12 18  1  0  0  0  0
 12 38  1  0  0  0  0
 12 39  1  0  0  0  0
 13 15  2  0  0  0  0
 13 40  1  0  0  0  0
 14 16  2  0  0  0  0
 15 16  1  0  0  0  0
 15 41  1  0  0  0  0
 16 42  1  0  0  0  0
 17 19  2  0  0  0  0
 17 20  1  0  0  0  0
 18 43  1  0  0  0  0
 18 44  1  0  0  0  0
 18 45  1  0  0  0  0
 19 21  1  0  0  0  0
 19 47  1  0  0  0  0
 20 22  2  0  0  0  0
 20 48  1  0  0  0  0
 21 23  2  0  0  0  0
 21 49  1  0  0  0  0
 22 23  1  0  0  0  0
 22 50  1  0  0  0  0
 23 24  1  0  0  0  0
 24 51  1  0  0  0  0
 24 52  1  0  0  0  0
 24 53  1  0  0  0  0
M  END
> <PUBCHEM_COMPOUND_CID>
70684965

> <PUBCHEM_COMPOUND_CANONICALIZED>
1

> <PUBCHEM_CACTVS_COMPLEXITY>
363

> <PUBCHEM_CACTVS_HBOND_ACCEPTOR>
2

> <PUBCHEM_CACTVS_HBOND_DONOR>
1

> <PUBCHEM_CACTVS_ROTATABLE_BOND>
6

> <PUBCHEM_CACTVS_SUBSKEYS>
AAADceB6IAAAAAAAAAAAAAAAAAAAAAAAAAAwYMAAAAAAAADBQAAAHgAACAAADCzBmAQyBoMAAgCAAiBCAAACAAAgIAAIiAAOCIgIJiKCkROEcAAkwBGImAeQ0PMOwAABAAAYAACQAAKAADAAAAAAAAAAAA==

> <PUBCHEM_IUPAC_OPENEYE_NAME>
(2S)-2-[propyl-[2-(p-tolyl)ethyl]amino]tetralin-5-ol

> <PUBCHEM_IUPAC_CAS_NAME>
(6S)-6-[2-(4-methylphenyl)ethyl-propylamino]-5,6,7,8-tetrahydronaphthalen-1-ol

> <PUBCHEM_IUPAC_NAME_MARKUP>
(6<I>S</I>)-6-[2-(4-methylphenyl)ethyl-propylamino]-5,6,7,8-tetrahydronaphthalen-1-ol

> <PUBCHEM_IUPAC_NAME>
(6S)-6-[2-(4-methylphenyl)ethyl-propylamino]-5,6,7,8-tetrahydronaphthalen-1-ol

> <PUBCHEM_IUPAC_SYSTEMATIC_NAME>
(6S)-6-[2-(4-methylphenyl)ethyl-propyl-amino]-5,6,7,8-tetrahydronaphthalen-1-ol

> <PUBCHEM_IUPAC_TRADITIONAL_NAME>
(2S)-2-[propyl-[2-(p-tolyl)ethyl]amino]tetralin-5-ol

> <PUBCHEM_IUPAC_INCHI>
InChI=1S/C22H29NO/c1-3-14-23(15-13-18-9-7-17(2)8-10-18)20-11-12-21-19(16-20)5-4-6-22(21)24/h4-10,20,24H,3,11-16H2,1-2H3/t20-/m0/s1

> <PUBCHEM_IUPAC_INCHIKEY>
OGGBZQYMCSUKHZ-FQEVSTJZSA-N

> <PUBCHEM_XLOGP3_AA>
5.5

> <PUBCHEM_EXACT_MASS>
323.224914549

> <PUBCHEM_MOLECULAR_FORMULA>
C22H29NO

> <PUBCHEM_MOLECULAR_WEIGHT>
323.5

> <PUBCHEM_OPENEYE_CAN_SMILES>
CCCN(CCC1=CC=C(C=C1)C)C2CCC3=C(C2)C=CC=C3O

> <PUBCHEM_OPENEYE_ISO_SMILES>
CCCN(CCC1=CC=C(C=C1)C)[C@H]2CCC3=C(C2)C=CC=C3O

> <PUBCHEM_CACTVS_TPSA>
23.5

> <PUBCHEM_MONOISOTOPIC_WEIGHT>
323.224914549

> <PUBCHEM_TOTAL_CHARGE>
0

> <PUBCHEM_HEAVY_ATOM_COUNT>
24

> <PUBCHEM_ATOM_DEF_STEREO_COUNT>
1

> <PUBCHEM_ATOM_UDEF_STEREO_COUNT>
0

> <PUBCHEM_BOND_DEF_STEREO_COUNT>
0

> <PUBCHEM_BOND_UDEF_STEREO_COUNT>
0

> <PUBCHEM_ISOTOPIC_ATOM_COUNT>
0

> <PUBCHEM_COMPONENT_COUNT>
1

> <PUBCHEM_CACTVS_TAUTO_COUNT>
-1

> <PUBCHEM_COORDINATE_TYPE>
1
5
255

> <PUBCHEM_BONDANNOTATIONS>
13  15  8
14  16  8
15  16  8
17  19  8
17  20  8
19  21  8
3  2  6
20  22  8
21  23  8
22  23  8
7  13  8
7  8  8
8  14  8

$$$$
