45268142
  -OEChem-09292322282D

 50 52  0     0  0  0  0  0  0999 V2000
    6.1184    4.2852    0.0000 F   0  0  0  0  0  0  0  0  0  0  0  0
    7.1184    5.2852    0.0000 F   0  0  0  0  0  0  0  0  0  0  0  0
    8.1184    4.2852    0.0000 F   0  0  0  0  0  0  0  0  0  0  0  0
    4.4923   -1.4936    0.0000 O   0  0  0  0  0  0  0  0  0  0  0  0
    2.5878   -4.1626    0.0000 O   0  0  0  0  0  0  0  0  0  0  0  0
    7.1184    1.2852    0.0000 N   0  0  0  0  0  0  0  0  0  0  0  0
    6.2524   -1.2148    0.0000 N   0  0  0  0  0  0  0  0  0  0  0  0
    5.7524   -2.7536    0.0000 N   0  0  0  0  0  0  0  0  0  0  0  0
    7.1184    3.2852    0.0000 C   0  0  0  0  0  0  0  0  0  0  0  0
    6.2524    2.7852    0.0000 C   0  0  0  0  0  0  0  0  0  0  0  0
    7.9844    2.7852    0.0000 C   0  0  0  0  0  0  0  0  0  0  0  0
    6.2524    1.7852    0.0000 C   0  0  0  0  0  0  0  0  0  0  0  0
    7.9844    1.7852    0.0000 C   0  0  0  0  0  0  0  0  0  0  0  0
    7.1184    0.2852    0.0000 C   0  0  0  0  0  0  0  0  0  0  0  0
    6.2524   -0.2148    0.0000 C   0  0  0  0  0  0  0  0  0  0  0  0
    7.1184    4.2852    0.0000 C   0  0  0  0  0  0  0  0  0  0  0  0
    7.0614   -1.8026    0.0000 C   0  0  0  0  0  0  0  0  0  0  0  0
    6.7524   -2.7536    0.0000 C   0  0  0  0  0  0  0  0  0  0  0  0
    5.4434   -1.8026    0.0000 C   0  0  0  0  0  0  0  0  0  0  0  0
    5.1646   -3.5626    0.0000 C   0  0  0  0  0  0  0  0  0  0  0  0
    4.1701   -3.4581    0.0000 C   0  0  0  0  0  0  0  0  0  0  0  0
    5.5714   -4.4762    0.0000 C   0  0  0  0  0  0  0  0  0  0  0  0
    3.5823   -4.2671    0.0000 C   0  0  0  0  0  0  0  0  0  0  0  0
    4.9836   -5.2852    0.0000 C   0  0  0  0  0  0  0  0  0  0  0  0
    3.9890   -5.1807    0.0000 C   0  0  0  0  0  0  0  0  0  0  0  0
    2.0000   -4.9716    0.0000 C   0  0  0  0  0  0  0  0  0  0  0  0
    7.6554    3.5952    0.0000 H   0  0  0  0  0  0  0  0  0  0  0  0
    6.0404    3.3678    0.0000 H   0  0  0  0  0  0  0  0  0  0  0  0
    5.6418    2.6776    0.0000 H   0  0  0  0  0  0  0  0  0  0  0  0
    8.5950    2.6776    0.0000 H   0  0  0  0  0  0  0  0  0  0  0  0
    8.1965    3.3678    0.0000 H   0  0  0  0  0  0  0  0  0  0  0  0
    5.6418    1.8929    0.0000 H   0  0  0  0  0  0  0  0  0  0  0  0
    6.0404    1.2026    0.0000 H   0  0  0  0  0  0  0  0  0  0  0  0
    8.1965    1.2026    0.0000 H   0  0  0  0  0  0  0  0  0  0  0  0
    8.5950    1.8929    0.0000 H   0  0  0  0  0  0  0  0  0  0  0  0
    7.3305   -0.2974    0.0000 H   0  0  0  0  0  0  0  0  0  0  0  0
    7.7290    0.3929    0.0000 H   0  0  0  0  0  0  0  0  0  0  0  0
    6.0404    0.3678    0.0000 H   0  0  0  0  0  0  0  0  0  0  0  0
    5.6418   -0.3225    0.0000 H   0  0  0  0  0  0  0  0  0  0  0  0
    7.6278   -2.0548    0.0000 H   0  0  0  0  0  0  0  0  0  0  0  0
    7.3714   -1.2656    0.0000 H   0  0  0  0  0  0  0  0  0  0  0  0
    6.6876   -3.3702    0.0000 H   0  0  0  0  0  0  0  0  0  0  0  0
    7.3588   -2.8825    0.0000 H   0  0  0  0  0  0  0  0  0  0  0  0
    3.9179   -2.8917    0.0000 H   0  0  0  0  0  0  0  0  0  0  0  0
    6.1880   -4.5410    0.0000 H   0  0  0  0  0  0  0  0  0  0  0  0
    5.2357   -5.8516    0.0000 H   0  0  0  0  0  0  0  0  0  0  0  0
    3.6246   -5.6823    0.0000 H   0  0  0  0  0  0  0  0  0  0  0  0
    1.4984   -4.6072    0.0000 H   0  0  0  0  0  0  0  0  0  0  0  0
    1.6356   -5.4732    0.0000 H   0  0  0  0  0  0  0  0  0  0  0  0
    2.5016   -5.3360    0.0000 H   0  0  0  0  0  0  0  0  0  0  0  0
  1 16  1  0  0  0  0
  2 16  1  0  0  0  0
  3 16  1  0  0  0  0
  4 19  2  0  0  0  0
  5 23  1  0  0  0  0
  5 26  1  0  0  0  0
  6 12  1  0  0  0  0
  6 13  1  0  0  0  0
  6 14  1  0  0  0  0
  7 15  1  0  0  0  0
  7 17  1  0  0  0  0
  7 19  1  0  0  0  0
  8 18  1  0  0  0  0
  8 19  1  0  0  0  0
  8 20  1  0  0  0  0
  9 10  1  0  0  0  0
  9 11  1  0  0  0  0
  9 16  1  0  0  0  0
  9 27  1  0  0  0  0
 10 12  1  0  0  0  0
 10 28  1  0  0  0  0
 10 29  1  0  0  0  0
 11 13  1  0  0  0  0
 11 30  1  0  0  0  0
 11 31  1  0  0  0  0
 12 32  1  0  0  0  0
 12 33  1  0  0  0  0
 13 34  1  0  0  0  0
 13 35  1  0  0  0  0
 14 15  1  0  0  0  0
 14 36  1  0  0  0  0
 14 37  1  0  0  0  0
 15 38  1  0  0  0  0
 15 39  1  0  0  0  0
 17 18  1  0  0  0  0
 17 40  1  0  0  0  0
 17 41  1  0  0  0  0
 18 42  1  0  0  0  0
 18 43  1  0  0  0  0
 20 21  2  0  0  0  0
 20 22  1  0  0  0  0
 21 23  1  0  0  0  0
 21 44  1  0  0  0  0
 22 24  2  0  0  0  0
 22 45  1  0  0  0  0
 23 25  2  0  0  0  0
 24 25  1  0  0  0  0
 24 46  1  0  0  0  0
 25 47  1  0  0  0  0
 26 48  1  0  0  0  0
 26 49  1  0  0  0  0
 26 50  1  0  0  0  0
M  END
> <PUBCHEM_COMPOUND_CID>
45268142

> <PUBCHEM_COMPOUND_CANONICALIZED>
1

> <PUBCHEM_CACTVS_COMPLEXITY>
481

> <PUBCHEM_CACTVS_HBOND_ACCEPTOR>
6

> <PUBCHEM_CACTVS_HBOND_DONOR>
0

> <PUBCHEM_CACTVS_ROTATABLE_BOND>
5

> <PUBCHEM_CACTVS_SUBSKEYS>
AAADceB7MYAAAAAAAAAAAAAAAAAAAWAAAAA8QAAAAAAAAAABAAAAHwAAAAAADQzBkBYzxoMABACIACRCUACCCAAhIgAIiAAObIiMZiLEsZuUMChuxhvI6CeQUAMKAAAAAgAAAAAAAAAEAAAAAAAAAAAAAA==

> <PUBCHEM_IUPAC_OPENEYE_NAME>
1-(3-methoxyphenyl)-3-[2-[4-(trifluoromethyl)-1-piperidyl]ethyl]imidazolidin-2-one

> <PUBCHEM_IUPAC_CAS_NAME>
1-(3-methoxyphenyl)-3-[2-[4-(trifluoromethyl)-1-piperidinyl]ethyl]-2-imidazolidinone

> <PUBCHEM_IUPAC_NAME_MARKUP>
1-(3-methoxyphenyl)-3-[2-[4-(trifluoromethyl)piperidin-1-yl]ethyl]imidazolidin-2-one

> <PUBCHEM_IUPAC_NAME>
1-(3-methoxyphenyl)-3-[2-[4-(trifluoromethyl)piperidin-1-yl]ethyl]imidazolidin-2-one

> <PUBCHEM_IUPAC_SYSTEMATIC_NAME>
1-(3-methoxyphenyl)-3-[2-[4-(trifluoromethyl)piperidin-1-yl]ethyl]imidazolidin-2-one

> <PUBCHEM_IUPAC_TRADITIONAL_NAME>
1-(3-methoxyphenyl)-3-[2-[4-(trifluoromethyl)piperidino]ethyl]-2-imidazolidinone

> <PUBCHEM_IUPAC_INCHI>
InChI=1S/C18H24F3N3O2/c1-26-16-4-2-3-15(13-16)24-12-11-23(17(24)25)10-9-22-7-5-14(6-8-22)18(19,20)21/h2-4,13-14H,5-12H2,1H3

> <PUBCHEM_IUPAC_INCHIKEY>
JTHVEMXEJRSLPM-UHFFFAOYSA-N

> <PUBCHEM_XLOGP3_AA>
2.9

> <PUBCHEM_EXACT_MASS>
371.18206150

> <PUBCHEM_MOLECULAR_FORMULA>
C18H24F3N3O2

> <PUBCHEM_MOLECULAR_WEIGHT>
371.4

> <PUBCHEM_OPENEYE_CAN_SMILES>
COC1=CC=CC(=C1)N2CCN(C2=O)CCN3CCC(CC3)C(F)(F)F

> <PUBCHEM_OPENEYE_ISO_SMILES>
COC1=CC=CC(=C1)N2CCN(C2=O)CCN3CCC(CC3)C(F)(F)F

> <PUBCHEM_CACTVS_TPSA>
36

> <PUBCHEM_MONOISOTOPIC_WEIGHT>
371.18206150

> <PUBCHEM_TOTAL_CHARGE>
0

> <PUBCHEM_HEAVY_ATOM_COUNT>
26

> <PUBCHEM_ATOM_DEF_STEREO_COUNT>
0

> <PUBCHEM_ATOM_UDEF_STEREO_COUNT>
0

> <PUBCHEM_BOND_DEF_STEREO_COUNT>
0

> <PUBCHEM_BOND_UDEF_STEREO_COUNT>
0

> <PUBCHEM_ISOTOPIC_ATOM_COUNT>
0

> <PUBCHEM_COMPONENT_COUNT>
1

> <PUBCHEM_CACTVS_TAUTO_COUNT>
-1

> <PUBCHEM_COORDINATE_TYPE>
1
5
255

> <PUBCHEM_BONDANNOTATIONS>
20  21  8
20  22  8
21  23  8
22  24  8
23  25  8
24  25  8

$$$$
