10874342
  -OEChem-09292322112D

 66 70  0     0  0  0  0  0  0999 V2000
    7.0948   -5.7108    0.0000 O   0  0  0  0  0  0  0  0  0  0  0  0
    4.4118    2.5838    0.0000 O   0  0  0  0  0  0  0  0  0  0  0  0
    4.5274    7.0514    0.0000 O   0  0  0  0  0  0  0  0  0  0  0  0
    6.4138   -2.3143    0.0000 N   0  0  0  0  0  0  0  0  0  0  0  0
    5.7739   -4.2092    0.0000 N   0  0  0  0  0  0  0  0  0  0  0  0
    6.0528    2.0296    0.0000 N   0  0  0  0  0  0  0  0  0  0  0  0
    7.0743   -3.0652    0.0000 C   0  0  0  0  0  0  0  0  0  0  0  0
    5.4334   -2.5109    0.0000 C   0  0  0  0  0  0  0  0  0  0  0  0
    6.7543   -4.0126    0.0000 C   0  0  0  0  0  0  0  0  0  0  0  0
    5.1133   -3.4583    0.0000 C   0  0  0  0  0  0  0  0  0  0  0  0
    6.7338   -1.3669    0.0000 C   0  0  0  0  0  0  0  0  0  0  0  0
    6.0733   -0.6161    0.0000 C   0  0  0  0  0  0  0  0  0  0  0  0
    5.4538   -5.1566    0.0000 C   0  0  0  0  0  0  0  0  0  0  0  0
    6.3933    0.3313    0.0000 C   0  0  0  0  0  0  0  0  0  0  0  0
    5.7328    1.0822    0.0000 C   0  0  0  0  0  0  0  0  0  0  0  0
    6.1143   -5.9074    0.0000 C   0  0  0  0  0  0  0  0  0  0  0  0
    4.4734   -5.3532    0.0000 C   0  0  0  0  0  0  0  0  0  0  0  0
    5.0274    4.5126    0.0000 C   0  0  0  0  0  0  0  0  0  0  0  0
    5.7944   -6.8548    0.0000 C   0  0  0  0  0  0  0  0  0  0  0  0
    5.7123    3.7278    0.0000 C   0  0  0  0  0  0  0  0  0  0  0  0
    4.1534   -6.3006    0.0000 C   0  0  0  0  0  0  0  0  0  0  0  0
    4.0274    4.5126    0.0000 C   0  0  0  0  0  0  0  0  0  0  0  0
    5.3364    5.4636    0.0000 C   0  0  0  0  0  0  0  0  0  0  0  0
    5.3923    2.7804    0.0000 C   0  0  0  0  0  0  0  0  0  0  0  0
    3.7183    5.4636    0.0000 C   0  0  0  0  0  0  0  0  0  0  0  0
    4.8139   -7.0514    0.0000 C   0  0  0  0  0  0  0  0  0  0  0  0
    4.5274    6.0514    0.0000 C   0  0  0  0  0  0  0  0  0  0  0  0
    6.7328    3.9366    0.0000 C   0  0  0  0  0  0  0  0  0  0  0  0
    6.3518    5.6959    0.0000 C   0  0  0  0  0  0  0  0  0  0  0  0
    3.3424    3.7278    0.0000 C   0  0  0  0  0  0  0  0  0  0  0  0
    7.0547    4.9272    0.0000 C   0  0  0  0  0  0  0  0  0  0  0  0
    2.7029    5.6959    0.0000 C   0  0  0  0  0  0  0  0  0  0  0  0
    2.3219    3.9366    0.0000 C   0  0  0  0  0  0  0  0  0  0  0  0
    2.0000    4.9272    0.0000 C   0  0  0  0  0  0  0  0  0  0  0  0
    7.7553   -6.4617    0.0000 C   0  0  0  0  0  0  0  0  0  0  0  0
    7.6184   -3.3625    0.0000 H   0  0  0  0  0  0  0  0  0  0  0  0
    7.4617   -2.5810    0.0000 H   0  0  0  0  0  0  0  0  0  0  0  0
    5.4189   -1.8911    0.0000 H   0  0  0  0  0  0  0  0  0  0  0  0
    4.8204   -2.4175    0.0000 H   0  0  0  0  0  0  0  0  0  0  0  0
    6.7688   -4.6324    0.0000 H   0  0  0  0  0  0  0  0  0  0  0  0
    7.3673   -4.1060    0.0000 H   0  0  0  0  0  0  0  0  0  0  0  0
    4.5693   -3.1610    0.0000 H   0  0  0  0  0  0  0  0  0  0  0  0
    4.7260   -3.9425    0.0000 H   0  0  0  0  0  0  0  0  0  0  0  0
    7.2778   -1.6643    0.0000 H   0  0  0  0  0  0  0  0  0  0  0  0
    7.1212   -0.8828    0.0000 H   0  0  0  0  0  0  0  0  0  0  0  0
    5.5293   -0.3187    0.0000 H   0  0  0  0  0  0  0  0  0  0  0  0
    5.6860   -1.1002    0.0000 H   0  0  0  0  0  0  0  0  0  0  0  0
    6.9374    0.0340    0.0000 H   0  0  0  0  0  0  0  0  0  0  0  0
    6.7807    0.8155    0.0000 H   0  0  0  0  0  0  0  0  0  0  0  0
    5.1888    1.3796    0.0000 H   0  0  0  0  0  0  0  0  0  0  0  0
    5.3455    0.5981    0.0000 H   0  0  0  0  0  0  0  0  0  0  0  0
    4.0639   -4.8877    0.0000 H   0  0  0  0  0  0  0  0  0  0  0  0
    6.6607    2.1515    0.0000 H   0  0  0  0  0  0  0  0  0  0  0  0
    6.2039   -7.3204    0.0000 H   0  0  0  0  0  0  0  0  0  0  0  0
    3.5455   -6.4225    0.0000 H   0  0  0  0  0  0  0  0  0  0  0  0
    4.6155   -7.6388    0.0000 H   0  0  0  0  0  0  0  0  0  0  0  0
    7.1459    3.4742    0.0000 H   0  0  0  0  0  0  0  0  0  0  0  0
    6.5365    6.2877    0.0000 H   0  0  0  0  0  0  0  0  0  0  0  0
    3.5408    3.1404    0.0000 H   0  0  0  0  0  0  0  0  0  0  0  0
    7.6607    5.0584    0.0000 H   0  0  0  0  0  0  0  0  0  0  0  0
    2.5182    6.2877    0.0000 H   0  0  0  0  0  0  0  0  0  0  0  0
    1.9088    3.4742    0.0000 H   0  0  0  0  0  0  0  0  0  0  0  0
    1.3940    5.0584    0.0000 H   0  0  0  0  0  0  0  0  0  0  0  0
    7.2898   -6.8712    0.0000 H   0  0  0  0  0  0  0  0  0  0  0  0
    8.1648   -6.9272    0.0000 H   0  0  0  0  0  0  0  0  0  0  0  0
    8.2208   -6.0522    0.0000 H   0  0  0  0  0  0  0  0  0  0  0  0
  1 16  1  0  0  0  0
  1 35  1  0  0  0  0
  2 24  2  0  0  0  0
  3 27  2  0  0  0  0
  4  7  1  0  0  0  0
  4  8  1  0  0  0  0
  4 11  1  0  0  0  0
  5  9  1  0  0  0  0
  5 10  1  0  0  0  0
  5 13  1  0  0  0  0
  6 15  1  0  0  0  0
  6 24  1  0  0  0  0
  6 53  1  0  0  0  0
  7  9  1  0  0  0  0
  7 36  1  0  0  0  0
  7 37  1  0  0  0  0
  8 10  1  0  0  0  0
  8 38  1  0  0  0  0
  8 39  1  0  0  0  0
  9 40  1  0  0  0  0
  9 41  1  0  0  0  0
 10 42  1  0  0  0  0
 10 43  1  0  0  0  0
 11 12  1  0  0  0  0
 11 44  1  0  0  0  0
 11 45  1  0  0  0  0
 12 14  1  0  0  0  0
 12 46  1  0  0  0  0
 12 47  1  0  0  0  0
 13 16  1  0  0  0  0
 13 17  2  0  0  0  0
 14 15  1  0  0  0  0
 14 48  1  0  0  0  0
 14 49  1  0  0  0  0
 15 50  1  0  0  0  0
 15 51  1  0  0  0  0
 16 19  2  0  0  0  0
 17 21  1  0  0  0  0
 17 52  1  0  0  0  0
 18 20  1  0  0  0  0
 18 22  1  0  0  0  0
 18 23  2  0  0  0  0
 19 26  1  0  0  0  0
 19 54  1  0  0  0  0
 20 24  1  0  0  0  0
 20 28  2  0  0  0  0
 21 26  2  0  0  0  0
 21 55  1  0  0  0  0
 22 25  1  0  0  0  0
 22 30  2  0  0  0  0
 23 27  1  0  0  0  0
 23 29  1  0  0  0  0
 25 27  1  0  0  0  0
 25 32  2  0  0  0  0
 26 56  1  0  0  0  0
 28 31  1  0  0  0  0
 28 57  1  0  0  0  0
 29 31  2  0  0  0  0
 29 58  1  0  0  0  0
 30 33  1  0  0  0  0
 30 59  1  0  0  0  0
 31 60  1  0  0  0  0
 32 34  1  0  0  0  0
 32 61  1  0  0  0  0
 33 34  2  0  0  0  0
 33 62  1  0  0  0  0
 34 63  1  0  0  0  0
 35 64  1  0  0  0  0
 35 65  1  0  0  0  0
 35 66  1  0  0  0  0
M  END
> <PUBCHEM_COMPOUND_CID>
10874342

> <PUBCHEM_COMPOUND_CANONICALIZED>
1

> <PUBCHEM_CACTVS_COMPLEXITY>
722

> <PUBCHEM_CACTVS_HBOND_ACCEPTOR>
5

> <PUBCHEM_CACTVS_HBOND_DONOR>
1

> <PUBCHEM_CACTVS_ROTATABLE_BOND>
8

> <PUBCHEM_CACTVS_SUBSKEYS>
AAADceB7MAAAAAAAAAAAAAAAAAAAAYAAAAA8YMEAAAAAAGABUAAAHgAQAAAADAzBmAYyxoPABACIAqVSUACCCAAlIgAIiIEPbMgOZjLEtZuVMShk1hHY6YeYy8CugAACAAAQEAAAAAQAACAgAQAACAAAAA==

> <PUBCHEM_IUPAC_OPENEYE_NAME>
N-[4-[4-(2-methoxyphenyl)piperazin-1-yl]butyl]-9-oxo-fluorene-4-carboxamide

> <PUBCHEM_IUPAC_CAS_NAME>
N-[4-[4-(2-methoxyphenyl)-1-piperazinyl]butyl]-9-oxo-4-fluorenecarboxamide

> <PUBCHEM_IUPAC_NAME_MARKUP>
<I>N</I>-[4-[4-(2-methoxyphenyl)piperazin-1-yl]butyl]-9-oxofluorene-4-carboxamide

> <PUBCHEM_IUPAC_NAME>
N-[4-[4-(2-methoxyphenyl)piperazin-1-yl]butyl]-9-oxofluorene-4-carboxamide

> <PUBCHEM_IUPAC_SYSTEMATIC_NAME>
N-[4-[4-(2-methoxyphenyl)piperazin-1-yl]butyl]-9-oxidanylidene-fluorene-4-carboxamide

> <PUBCHEM_IUPAC_TRADITIONAL_NAME>
9-keto-N-[4-[4-(2-methoxyphenyl)piperazino]butyl]fluorene-4-carboxamide

> <PUBCHEM_IUPAC_INCHI>
InChI=1S/C29H31N3O3/c1-35-26-14-5-4-13-25(26)32-19-17-31(18-20-32)16-7-6-15-30-29(34)24-12-8-11-23-27(24)21-9-2-3-10-22(21)28(23)33/h2-5,8-14H,6-7,15-20H2,1H3,(H,30,34)

> <PUBCHEM_IUPAC_INCHIKEY>
VUDZLQDQARJUEH-UHFFFAOYSA-N

> <PUBCHEM_XLOGP3_AA>
4.7

> <PUBCHEM_EXACT_MASS>
469.23654186

> <PUBCHEM_MOLECULAR_FORMULA>
C29H31N3O3

> <PUBCHEM_MOLECULAR_WEIGHT>
469.6

> <PUBCHEM_OPENEYE_CAN_SMILES>
COC1=CC=CC=C1N2CCN(CC2)CCCCNC(=O)C3=CC=CC4=C3C5=CC=CC=C5C4=O

> <PUBCHEM_OPENEYE_ISO_SMILES>
COC1=CC=CC=C1N2CCN(CC2)CCCCNC(=O)C3=CC=CC4=C3C5=CC=CC=C5C4=O

> <PUBCHEM_CACTVS_TPSA>
61.9

> <PUBCHEM_MONOISOTOPIC_WEIGHT>
469.23654186

> <PUBCHEM_TOTAL_CHARGE>
0

> <PUBCHEM_HEAVY_ATOM_COUNT>
35

> <PUBCHEM_ATOM_DEF_STEREO_COUNT>
0

> <PUBCHEM_ATOM_UDEF_STEREO_COUNT>
0

> <PUBCHEM_BOND_DEF_STEREO_COUNT>
0

> <PUBCHEM_BOND_UDEF_STEREO_COUNT>
0

> <PUBCHEM_ISOTOPIC_ATOM_COUNT>
0

> <PUBCHEM_COMPONENT_COUNT>
1

> <PUBCHEM_CACTVS_TAUTO_COUNT>
-1

> <PUBCHEM_COORDINATE_TYPE>
1
5
255

> <PUBCHEM_BONDANNOTATIONS>
13  16  8
13  17  8
16  19  8
17  21  8
18  20  8
18  23  8
19  26  8
20  28  8
21  26  8
22  25  8
22  30  8
23  29  8
25  32  8
28  31  8
29  31  8
30  33  8
32  34  8
33  34  8

$$$$
