44374408
  -OEChem-09292322152D

 60 64  0     1  0  0  0  0  0999 V2000
    3.8000   -3.4796    0.0000 O   0  0  0  0  0  0  0  0  0  0  0  0
    6.3981    2.0204    0.0000 N   0  0  3  0  0  0  0  0  0  0  0  0
    5.5321   -3.4796    0.0000 N   0  0  0  0  0  0  0  0  0  0  0  0
    4.6660   -6.9796    0.0000 N   0  0  0  0  0  0  0  0  0  0  0  0
    7.8981    7.0143    0.0000 N   0  0  0  0  0  0  0  0  0  0  0  0
    5.5321   -0.4796    0.0000 C   0  0  0  0  0  0  0  0  0  0  0  0
    6.3981   -0.9796    0.0000 C   0  0  0  0  0  0  0  0  0  0  0  0
    4.6660   -0.9796    0.0000 C   0  0  0  0  0  0  0  0  0  0  0  0
    5.5321   -2.4796    0.0000 C   0  0  0  0  0  0  0  0  0  0  0  0
    6.3981   -1.9796    0.0000 C   0  0  0  0  0  0  0  0  0  0  0  0
    4.6660   -1.9796    0.0000 C   0  0  0  0  0  0  0  0  0  0  0  0
    5.5321    0.5204    0.0000 C   0  0  0  0  0  0  0  0  0  0  0  0
    6.3981    1.0204    0.0000 C   0  0  0  0  0  0  0  0  0  0  0  0
    7.2028    2.6040    0.0000 C   0  0  0  0  0  0  0  0  0  0  0  0
    5.5934    2.6040    0.0000 C   0  0  0  0  0  0  0  0  0  0  0  0
    6.8981    3.5502    0.0000 C   0  0  0  0  0  0  0  0  0  0  0  0
    5.8981    3.5502    0.0000 C   0  0  0  0  0  0  0  0  0  0  0  0
    4.6660   -3.9796    0.0000 C   0  0  0  0  0  0  0  0  0  0  0  0
    7.3981    4.4162    0.0000 C   0  0  0  0  0  0  0  0  0  0  0  0
    5.3981    4.4162    0.0000 C   0  0  0  0  0  0  0  0  0  0  0  0
    4.6660   -4.9796    0.0000 C   0  0  0  0  0  0  0  0  0  0  0  0
    6.8981    5.2822    0.0000 C   0  0  0  0  0  0  0  0  0  0  0  0
    5.8981    5.2822    0.0000 C   0  0  0  0  0  0  0  0  0  0  0  0
    3.8000   -5.4796    0.0000 C   0  0  0  0  0  0  0  0  0  0  0  0
    5.5321   -5.4796    0.0000 C   0  0  0  0  0  0  0  0  0  0  0  0
    3.8000   -6.4796    0.0000 C   0  0  0  0  0  0  0  0  0  0  0  0
    7.3981    6.1483    0.0000 C   0  0  0  0  0  0  0  0  0  0  0  0
    2.9061   -4.9450    0.0000 C   0  0  0  0  0  0  0  0  0  0  0  0
    5.5321   -6.4796    0.0000 C   0  0  0  0  0  0  0  0  0  0  0  0
    2.9061   -7.0143    0.0000 C   0  0  0  0  0  0  0  0  0  0  0  0
    2.0000   -5.4588    0.0000 C   0  0  0  0  0  0  0  0  0  0  0  0
    2.0000   -6.5004    0.0000 C   0  0  0  0  0  0  0  0  0  0  0  0
    6.0690   -0.1696    0.0000 H   0  0  0  0  0  0  0  0  0  0  0  0
    7.0087   -1.0873    0.0000 H   0  0  0  0  0  0  0  0  0  0  0  0
    6.6101   -0.3970    0.0000 H   0  0  0  0  0  0  0  0  0  0  0  0
    4.4540   -0.3970    0.0000 H   0  0  0  0  0  0  0  0  0  0  0  0
    4.0555   -1.0873    0.0000 H   0  0  0  0  0  0  0  0  0  0  0  0
    6.0690   -2.7896    0.0000 H   0  0  0  0  0  0  0  0  0  0  0  0
    6.6101   -2.5622    0.0000 H   0  0  0  0  0  0  0  0  0  0  0  0
    7.0087   -1.8720    0.0000 H   0  0  0  0  0  0  0  0  0  0  0  0
    4.0555   -1.8720    0.0000 H   0  0  0  0  0  0  0  0  0  0  0  0
    4.4540   -2.5622    0.0000 H   0  0  0  0  0  0  0  0  0  0  0  0
    5.3200    1.1030    0.0000 H   0  0  0  0  0  0  0  0  0  0  0  0
    4.9215    0.4127    0.0000 H   0  0  0  0  0  0  0  0  0  0  0  0
    6.6101    0.4378    0.0000 H   0  0  0  0  0  0  0  0  0  0  0  0
    7.0087    1.1280    0.0000 H   0  0  0  0  0  0  0  0  0  0  0  0
    6.0690   -3.7896    0.0000 H   0  0  0  0  0  0  0  0  0  0  0  0
    7.5120    2.0666    0.0000 H   0  0  0  0  0  0  0  0  0  0  0  0
    7.7697    2.8550    0.0000 H   0  0  0  0  0  0  0  0  0  0  0  0
    5.0264    2.8550    0.0000 H   0  0  0  0  0  0  0  0  0  0  0  0
    5.2841    2.0666    0.0000 H   0  0  0  0  0  0  0  0  0  0  0  0
    8.0181    4.4162    0.0000 H   0  0  0  0  0  0  0  0  0  0  0  0
    4.7781    4.4162    0.0000 H   0  0  0  0  0  0  0  0  0  0  0  0
    5.5881    5.8192    0.0000 H   0  0  0  0  0  0  0  0  0  0  0  0
    6.0690   -5.1696    0.0000 H   0  0  0  0  0  0  0  0  0  0  0  0
    2.9132   -4.3250    0.0000 H   0  0  0  0  0  0  0  0  0  0  0  0
    6.0690   -6.7896    0.0000 H   0  0  0  0  0  0  0  0  0  0  0  0
    2.9132   -7.6342    0.0000 H   0  0  0  0  0  0  0  0  0  0  0  0
    1.4643   -5.1468    0.0000 H   0  0  0  0  0  0  0  0  0  0  0  0
    1.4643   -6.8125    0.0000 H   0  0  0  0  0  0  0  0  0  0  0  0
  1 18  2  0  0  0  0
  2 13  1  0  0  0  0
  2 14  1  0  0  0  0
  2 15  1  0  0  0  0
  3  9  1  0  0  0  0
  3 18  1  0  0  0  0
  3 47  1  0  0  0  0
  4 26  1  0  0  0  0
  4 29  2  0  0  0  0
  5 27  3  0  0  0  0
  6  7  1  0  0  0  0
  6  8  1  0  0  0  0
  6 12  1  0  0  0  0
  6 33  1  0  0  0  0
  7 10  1  0  0  0  0
  7 34  1  0  0  0  0
  7 35  1  0  0  0  0
  8 11  1  0  0  0  0
  8 36  1  0  0  0  0
  8 37  1  0  0  0  0
  9 10  1  0  0  0  0
  9 11  1  0  0  0  0
  9 38  1  0  0  0  0
 10 39  1  0  0  0  0
 10 40  1  0  0  0  0
 11 41  1  0  0  0  0
 11 42  1  0  0  0  0
 12 13  1  0  0  0  0
 12 43  1  0  0  0  0
 12 44  1  0  0  0  0
 13 45  1  0  0  0  0
 13 46  1  0  0  0  0
 14 16  1  0  0  0  0
 14 48  1  0  0  0  0
 14 49  1  0  0  0  0
 15 17  1  0  0  0  0
 15 50  1  0  0  0  0
 15 51  1  0  0  0  0
 16 17  2  0  0  0  0
 16 19  1  0  0  0  0
 17 20  1  0  0  0  0
 18 21  1  0  0  0  0
 19 22  2  0  0  0  0
 19 52  1  0  0  0  0
 20 23  2  0  0  0  0
 20 53  1  0  0  0  0
 21 24  1  0  0  0  0
 21 25  2  0  0  0  0
 22 23  1  0  0  0  0
 22 27  1  0  0  0  0
 23 54  1  0  0  0  0
 24 26  1  0  0  0  0
 24 28  2  0  0  0  0
 25 29  1  0  0  0  0
 25 55  1  0  0  0  0
 26 30  2  0  0  0  0
 28 31  1  0  0  0  0
 28 56  1  0  0  0  0
 29 57  1  0  0  0  0
 30 32  1  0  0  0  0
 30 58  1  0  0  0  0
 31 32  2  0  0  0  0
 31 59  1  0  0  0  0
 32 60  1  0  0  0  0
M  END
> <PUBCHEM_COMPOUND_CID>
44374408

> <PUBCHEM_COMPOUND_CANONICALIZED>
1

> <PUBCHEM_CACTVS_COMPLEXITY>
693

> <PUBCHEM_CACTVS_HBOND_ACCEPTOR>
4

> <PUBCHEM_CACTVS_HBOND_DONOR>
1

> <PUBCHEM_CACTVS_ROTATABLE_BOND>
5

> <PUBCHEM_CACTVS_SUBSKEYS>
AAADceB7oAAAAAAAAAAAAAAAAAAAAWAAAAA8YMEAAAAAAFix9AAAHgAQAAAADSjBngQ8wPPIEAC4BzV3VACigCA1AiAI2KE4ZNgIoPLAlZGEIQhglgDIyY8ciMCOwAACAAASAACQAAQAACQAAAAAAAAAAA==

> <PUBCHEM_IUPAC_OPENEYE_NAME>
N-[4-[2-(5-cyanoisoindolin-2-yl)ethyl]cyclohexyl]quinoline-4-carboxamide

> <PUBCHEM_IUPAC_CAS_NAME>
N-[4-[2-(5-cyano-1,3-dihydroisoindol-2-yl)ethyl]cyclohexyl]-4-quinolinecarboxamide

> <PUBCHEM_IUPAC_NAME_MARKUP>
<I>N</I>-[4-[2-(5-cyano-1,3-dihydroisoindol-2-yl)ethyl]cyclohexyl]quinoline-4-carboxamide

> <PUBCHEM_IUPAC_NAME>
N-[4-[2-(5-cyano-1,3-dihydroisoindol-2-yl)ethyl]cyclohexyl]quinoline-4-carboxamide

> <PUBCHEM_IUPAC_SYSTEMATIC_NAME>
N-[4-[2-(5-cyano-1,3-dihydroisoindol-2-yl)ethyl]cyclohexyl]quinoline-4-carboxamide

> <PUBCHEM_IUPAC_TRADITIONAL_NAME>
N-[4-[2-(5-cyanoisoindolin-2-yl)ethyl]cyclohexyl]cinchoninamide

> <PUBCHEM_IUPAC_INCHI>
InChI=1S/C27H28N4O/c28-16-20-5-8-21-17-31(18-22(21)15-20)14-12-19-6-9-23(10-7-19)30-27(32)25-11-13-29-26-4-2-1-3-24(25)26/h1-5,8,11,13,15,19,23H,6-7,9-10,12,14,17-18H2,(H,30,32)

> <PUBCHEM_IUPAC_INCHIKEY>
JLKITJMRRRZCIH-UHFFFAOYSA-N

> <PUBCHEM_XLOGP3_AA>
4.2

> <PUBCHEM_EXACT_MASS>
424.22631153

> <PUBCHEM_MOLECULAR_FORMULA>
C27H28N4O

> <PUBCHEM_MOLECULAR_WEIGHT>
424.5

> <PUBCHEM_OPENEYE_CAN_SMILES>
C1CC(CCC1CCN2CC3=C(C2)C=C(C=C3)C#N)NC(=O)C4=CC=NC5=CC=CC=C45

> <PUBCHEM_OPENEYE_ISO_SMILES>
C1CC(CCC1CCN2CC3=C(C2)C=C(C=C3)C#N)NC(=O)C4=CC=NC5=CC=CC=C45

> <PUBCHEM_CACTVS_TPSA>
69

> <PUBCHEM_MONOISOTOPIC_WEIGHT>
424.22631153

> <PUBCHEM_TOTAL_CHARGE>
0

> <PUBCHEM_HEAVY_ATOM_COUNT>
32

> <PUBCHEM_ATOM_DEF_STEREO_COUNT>
0

> <PUBCHEM_ATOM_UDEF_STEREO_COUNT>
0

> <PUBCHEM_BOND_DEF_STEREO_COUNT>
0

> <PUBCHEM_BOND_UDEF_STEREO_COUNT>
0

> <PUBCHEM_ISOTOPIC_ATOM_COUNT>
0

> <PUBCHEM_COMPONENT_COUNT>
1

> <PUBCHEM_CACTVS_TAUTO_COUNT>
-1

> <PUBCHEM_COORDINATE_TYPE>
1
5
255

> <PUBCHEM_BONDANNOTATIONS>
16  17  8
16  19  8
17  20  8
19  22  8
20  23  8
21  24  8
21  25  8
22  23  8
24  26  8
24  28  8
25  29  8
26  30  8
28  31  8
30  32  8
31  32  8
4  26  8
4  29  8

$$$$
