132256728
  -OEChem-09292322452D

 52 54  0     0  0  0  0  0  0999 V2000
    2.0000   -2.2320    0.0000 Cl  0  0  0  0  0  0  0  0  0  0  0  0
    4.9641    1.6340    0.0000 F   0  0  0  0  0  0  0  0  0  0  0  0
    2.0000   -4.2320    0.0000 F   0  0  0  0  0  0  0  0  0  0  0  0
    6.3301   -2.7320    0.0000 O   0  0  0  0  0  0  0  0  0  0  0  0
    8.9641    3.3660    0.0000 O   0  0  0  0  0  0  0  0  0  0  0  0
    5.4641   -1.2320    0.0000 N   0  0  0  0  0  0  0  0  0  0  0  0
    6.9641    1.6340    0.0000 N   0  0  0  0  0  0  0  0  0  0  0  0
   10.4641    4.2320    0.0000 N   0  0  0  0  0  0  0  0  0  0  0  0
   10.4641    2.5000    0.0000 N   0  0  0  0  0  0  0  0  0  0  0  0
    5.4641    0.7679    0.0000 C   0  0  0  0  0  0  0  0  0  0  0  0
    4.5981    0.2679    0.0000 C   0  0  0  0  0  0  0  0  0  0  0  0
    6.3301    0.2679    0.0000 C   0  0  0  0  0  0  0  0  0  0  0  0
    4.5981   -0.7321    0.0000 C   0  0  0  0  0  0  0  0  0  0  0  0
    6.3301   -0.7321    0.0000 C   0  0  0  0  0  0  0  0  0  0  0  0
    5.9641    1.6340    0.0000 C   0  0  0  0  0  0  0  0  0  0  0  0
    5.4641   -2.2320    0.0000 C   0  0  0  0  0  0  0  0  0  0  0  0
    7.4641    2.5000    0.0000 C   0  0  0  0  0  0  0  0  0  0  0  0
    4.5981   -2.7320    0.0000 C   0  0  0  0  0  0  0  0  0  0  0  0
    8.4641    2.5000    0.0000 C   0  0  0  0  0  0  0  0  0  0  0  0
    3.7320   -2.2320    0.0000 C   0  0  0  0  0  0  0  0  0  0  0  0
    4.5981   -3.7320    0.0000 C   0  0  0  0  0  0  0  0  0  0  0  0
    2.8660   -2.7320    0.0000 C   0  0  0  0  0  0  0  0  0  0  0  0
    3.7320   -4.2320    0.0000 C   0  0  0  0  0  0  0  0  0  0  0  0
    2.8660   -3.7320    0.0000 C   0  0  0  0  0  0  0  0  0  0  0  0
    9.9641    3.3660    0.0000 C   0  0  0  0  0  0  0  0  0  0  0  0
   11.9641    3.3660    0.0000 C   0  0  0  0  0  0  0  0  0  0  0  0
   11.4641    4.2320    0.0000 C   0  0  0  0  0  0  0  0  0  0  0  0
   11.4641    2.5000    0.0000 C   0  0  0  0  0  0  0  0  0  0  0  0
   12.9641    3.3660    0.0000 C   0  0  0  0  0  0  0  0  0  0  0  0
    4.3860    0.8506    0.0000 H   0  0  0  0  0  0  0  0  0  0  0  0
    3.9875    0.1603    0.0000 H   0  0  0  0  0  0  0  0  0  0  0  0
    6.9407    0.1603    0.0000 H   0  0  0  0  0  0  0  0  0  0  0  0
    6.5422    0.8506    0.0000 H   0  0  0  0  0  0  0  0  0  0  0  0
    3.9875   -0.6244    0.0000 H   0  0  0  0  0  0  0  0  0  0  0  0
    4.3860   -1.3147    0.0000 H   0  0  0  0  0  0  0  0  0  0  0  0
    6.5422   -1.3147    0.0000 H   0  0  0  0  0  0  0  0  0  0  0  0
    6.9407   -0.6244    0.0000 H   0  0  0  0  0  0  0  0  0  0  0  0
    6.0718    2.2446    0.0000 H   0  0  0  0  0  0  0  0  0  0  0  0
    5.3815    1.8460    0.0000 H   0  0  0  0  0  0  0  0  0  0  0  0
    7.2741    1.0970    0.0000 H   0  0  0  0  0  0  0  0  0  0  0  0
    7.5718    3.1106    0.0000 H   0  0  0  0  0  0  0  0  0  0  0  0
    6.8815    2.7120    0.0000 H   0  0  0  0  0  0  0  0  0  0  0  0
    8.3564    1.8894    0.0000 H   0  0  0  0  0  0  0  0  0  0  0  0
    9.0467    2.2880    0.0000 H   0  0  0  0  0  0  0  0  0  0  0  0
    3.7320   -1.6120    0.0000 H   0  0  0  0  0  0  0  0  0  0  0  0
    5.1350   -4.0420    0.0000 H   0  0  0  0  0  0  0  0  0  0  0  0
    3.7320   -4.8520    0.0000 H   0  0  0  0  0  0  0  0  0  0  0  0
   11.7741    4.7690    0.0000 H   0  0  0  0  0  0  0  0  0  0  0  0
   11.7741    1.9631    0.0000 H   0  0  0  0  0  0  0  0  0  0  0  0
   12.9641    2.7460    0.0000 H   0  0  0  0  0  0  0  0  0  0  0  0
   13.5841    3.3660    0.0000 H   0  0  0  0  0  0  0  0  0  0  0  0
   12.9641    3.9860    0.0000 H   0  0  0  0  0  0  0  0  0  0  0  0
  1 22  1  0  0  0  0
  2 10  1  0  0  0  0
  3 24  1  0  0  0  0
  4 16  2  0  0  0  0
  5 19  1  0  0  0  0
  5 25  1  0  0  0  0
  6 13  1  0  0  0  0
  6 14  1  0  0  0  0
  6 16  1  0  0  0  0
  7 15  1  0  0  0  0
  7 17  1  0  0  0  0
  7 40  1  0  0  0  0
  8 25  2  0  0  0  0
  8 27  1  0  0  0  0
  9 25  1  0  0  0  0
  9 28  2  0  0  0  0
 10 11  1  0  0  0  0
 10 12  1  0  0  0  0
 10 15  1  0  0  0  0
 11 13  1  0  0  0  0
 11 30  1  0  0  0  0
 11 31  1  0  0  0  0
 12 14  1  0  0  0  0
 12 32  1  0  0  0  0
 12 33  1  0  0  0  0
 13 34  1  0  0  0  0
 13 35  1  0  0  0  0
 14 36  1  0  0  0  0
 14 37  1  0  0  0  0
 15 38  1  0  0  0  0
 15 39  1  0  0  0  0
 16 18  1  0  0  0  0
 17 19  1  0  0  0  0
 17 41  1  0  0  0  0
 17 42  1  0  0  0  0
 18 20  2  0  0  0  0
 18 21  1  0  0  0  0
 19 43  1  0  0  0  0
 19 44  1  0  0  0  0
 20 22  1  0  0  0  0
 20 45  1  0  0  0  0
 21 23  2  0  0  0  0
 21 46  1  0  0  0  0
 22 24  2  0  0  0  0
 23 24  1  0  0  0  0
 23 47  1  0  0  0  0
 26 27  2  0  0  0  0
 26 28  1  0  0  0  0
 26 29  1  0  0  0  0
 27 48  1  0  0  0  0
 28 49  1  0  0  0  0
 29 50  1  0  0  0  0
 29 51  1  0  0  0  0
 29 52  1  0  0  0  0
M  END
> <PUBCHEM_COMPOUND_CID>
132256728

> <PUBCHEM_COMPOUND_CANONICALIZED>
1

> <PUBCHEM_CACTVS_COMPLEXITY>
529

> <PUBCHEM_CACTVS_HBOND_ACCEPTOR>
7

> <PUBCHEM_CACTVS_HBOND_DONOR>
1

> <PUBCHEM_CACTVS_ROTATABLE_BOND>
7

> <PUBCHEM_CACTVS_SUBSKEYS>
AAADceB7sYAEAAAAAAAAAAAAAAAAAAAAAAA8WIAAAAAAAAABwAAAHwIQAAAADALhmi4/kJfIFACoAjF3dACCgCk1BaAJ2KEoRtiKKLLB31GNJQholgLYiacYiACOAAAAIAAAAAAAAABAAAAAAAAAAAAAAA==

> <PUBCHEM_IUPAC_OPENEYE_NAME>
(3-chloro-4-fluoro-phenyl)-[4-fluoro-4-[[2-(5-methylpyrimidin-2-yl)oxyethylamino]methyl]-1-piperidyl]methanone

> <PUBCHEM_IUPAC_CAS_NAME>
(3-chloro-4-fluorophenyl)-[4-fluoro-4-[[2-[(5-methyl-2-pyrimidinyl)oxy]ethylamino]methyl]-1-piperidinyl]methanone

> <PUBCHEM_IUPAC_NAME_MARKUP>
(3-chloro-4-fluorophenyl)-[4-fluoro-4-[[2-(5-methylpyrimidin-2-yl)oxyethylamino]methyl]piperidin-1-yl]methanone

> <PUBCHEM_IUPAC_NAME>
(3-chloro-4-fluorophenyl)-[4-fluoro-4-[[2-(5-methylpyrimidin-2-yl)oxyethylamino]methyl]piperidin-1-yl]methanone

> <PUBCHEM_IUPAC_SYSTEMATIC_NAME>
(3-chloranyl-4-fluoranyl-phenyl)-[4-fluoranyl-4-[[2-(5-methylpyrimidin-2-yl)oxyethylamino]methyl]piperidin-1-yl]methanone

> <PUBCHEM_IUPAC_TRADITIONAL_NAME>
(3-chloro-4-fluoro-phenyl)-[4-fluoro-4-[[2-(5-methylpyrimidin-2-yl)oxyethylamino]methyl]piperidino]methanone

> <PUBCHEM_IUPAC_INCHI>
InChI=1S/C20H23ClF2N4O2/c1-14-11-25-19(26-12-14)29-9-6-24-13-20(23)4-7-27(8-5-20)18(28)15-2-3-17(22)16(21)10-15/h2-3,10-12,24H,4-9,13H2,1H3

> <PUBCHEM_IUPAC_INCHIKEY>
BLJZKXJVIGQCID-UHFFFAOYSA-N

> <PUBCHEM_XLOGP3_AA>
3

> <PUBCHEM_EXACT_MASS>
424.1477600

> <PUBCHEM_MOLECULAR_FORMULA>
C20H23ClF2N4O2

> <PUBCHEM_MOLECULAR_WEIGHT>
424.9

> <PUBCHEM_OPENEYE_CAN_SMILES>
CC1=CN=C(N=C1)OCCNCC2(CCN(CC2)C(=O)C3=CC(=C(C=C3)F)Cl)F

> <PUBCHEM_OPENEYE_ISO_SMILES>
CC1=CN=C(N=C1)OCCNCC2(CCN(CC2)C(=O)C3=CC(=C(C=C3)F)Cl)F

> <PUBCHEM_CACTVS_TPSA>
67.4

> <PUBCHEM_MONOISOTOPIC_WEIGHT>
424.1477600

> <PUBCHEM_TOTAL_CHARGE>
0

> <PUBCHEM_HEAVY_ATOM_COUNT>
29

> <PUBCHEM_ATOM_DEF_STEREO_COUNT>
0

> <PUBCHEM_ATOM_UDEF_STEREO_COUNT>
0

> <PUBCHEM_BOND_DEF_STEREO_COUNT>
0

> <PUBCHEM_BOND_UDEF_STEREO_COUNT>
0

> <PUBCHEM_ISOTOPIC_ATOM_COUNT>
0

> <PUBCHEM_COMPONENT_COUNT>
1

> <PUBCHEM_CACTVS_TAUTO_COUNT>
-1

> <PUBCHEM_COORDINATE_TYPE>
1
5
255

> <PUBCHEM_BONDANNOTATIONS>
18  20  8
18  21  8
20  22  8
21  23  8
22  24  8
23  24  8
26  27  8
26  28  8
8  25  8
8  27  8
9  25  8
9  28  8

$$$$
