155568415
  -OEChem-09292322462D

 45 47  0     0  0  0  0  0  0999 V2000
    4.6701   -0.2748    0.0000 S   0  0  0  0  0  0  0  0  0  0  0  0
    6.4021    2.7252    0.0000 N   0  0  0  0  0  0  0  0  0  0  0  0
    6.4021    4.7252    0.0000 N   0  0  0  0  0  0  0  0  0  0  0  0
    3.8611   -1.8626    0.0000 N   0  0  0  0  0  0  0  0  0  0  0  0
    5.4791   -1.8626    0.0000 N   0  0  0  0  0  0  0  0  0  0  0  0
    5.1701   -2.8136    0.0000 N   0  0  0  0  0  0  0  0  0  0  0  0
    5.5361    3.2252    0.0000 C   0  0  0  0  0  0  0  0  0  0  0  0
    7.2682    3.2252    0.0000 C   0  0  0  0  0  0  0  0  0  0  0  0
    6.4021    1.7252    0.0000 C   0  0  0  0  0  0  0  0  0  0  0  0
    5.5361    4.2252    0.0000 C   0  0  0  0  0  0  0  0  0  0  0  0
    7.2682    4.2252    0.0000 C   0  0  0  0  0  0  0  0  0  0  0  0
    5.5361    1.2252    0.0000 C   0  0  0  0  0  0  0  0  0  0  0  0
    5.5361    0.2252    0.0000 C   0  0  0  0  0  0  0  0  0  0  0  0
    4.6701   -1.2748    0.0000 C   0  0  0  0  0  0  0  0  0  0  0  0
    4.1701   -2.8136    0.0000 C   0  0  0  0  0  0  0  0  0  0  0  0
    3.5823   -3.6226    0.0000 C   0  0  0  0  0  0  0  0  0  0  0  0
    2.9100   -1.5536    0.0000 C   0  0  0  0  0  0  0  0  0  0  0  0
    2.5878   -3.5181    0.0000 C   0  0  0  0  0  0  0  0  0  0  0  0
    3.9890   -4.5362    0.0000 C   0  0  0  0  0  0  0  0  0  0  0  0
    2.0000   -4.3271    0.0000 C   0  0  0  0  0  0  0  0  0  0  0  0
    3.4013   -5.3452    0.0000 C   0  0  0  0  0  0  0  0  0  0  0  0
    2.4067   -5.2407    0.0000 C   0  0  0  0  0  0  0  0  0  0  0  0
    4.9255    3.3329    0.0000 H   0  0  0  0  0  0  0  0  0  0  0  0
    5.3241    2.6426    0.0000 H   0  0  0  0  0  0  0  0  0  0  0  0
    7.4802    2.6426    0.0000 H   0  0  0  0  0  0  0  0  0  0  0  0
    7.8788    3.3329    0.0000 H   0  0  0  0  0  0  0  0  0  0  0  0
    6.6142    1.1426    0.0000 H   0  0  0  0  0  0  0  0  0  0  0  0
    7.0127    1.8329    0.0000 H   0  0  0  0  0  0  0  0  0  0  0  0
    5.3241    4.8078    0.0000 H   0  0  0  0  0  0  0  0  0  0  0  0
    4.9255    4.1175    0.0000 H   0  0  0  0  0  0  0  0  0  0  0  0
    7.8788    4.1175    0.0000 H   0  0  0  0  0  0  0  0  0  0  0  0
    7.4802    4.8078    0.0000 H   0  0  0  0  0  0  0  0  0  0  0  0
    6.4021    5.3452    0.0000 H   0  0  0  0  0  0  0  0  0  0  0  0
    5.3241    1.8078    0.0000 H   0  0  0  0  0  0  0  0  0  0  0  0
    4.9255    1.1176    0.0000 H   0  0  0  0  0  0  0  0  0  0  0  0
    5.7482   -0.3574    0.0000 H   0  0  0  0  0  0  0  0  0  0  0  0
    6.1467    0.3329    0.0000 H   0  0  0  0  0  0  0  0  0  0  0  0
    3.1016   -0.9639    0.0000 H   0  0  0  0  0  0  0  0  0  0  0  0
    2.3204   -1.3620    0.0000 H   0  0  0  0  0  0  0  0  0  0  0  0
    2.7184   -2.1432    0.0000 H   0  0  0  0  0  0  0  0  0  0  0  0
    2.3356   -2.9517    0.0000 H   0  0  0  0  0  0  0  0  0  0  0  0
    4.6056   -4.6010    0.0000 H   0  0  0  0  0  0  0  0  0  0  0  0
    1.3834   -4.2623    0.0000 H   0  0  0  0  0  0  0  0  0  0  0  0
    3.6534   -5.9116    0.0000 H   0  0  0  0  0  0  0  0  0  0  0  0
    2.0423   -5.7423    0.0000 H   0  0  0  0  0  0  0  0  0  0  0  0
  1 13  1  0  0  0  0
  1 14  1  0  0  0  0
  2  7  1  0  0  0  0
  2  8  1  0  0  0  0
  2  9  1  0  0  0  0
  3 10  1  0  0  0  0
  3 11  1  0  0  0  0
  3 33  1  0  0  0  0
  4 14  1  0  0  0  0
  4 15  1  0  0  0  0
  4 17  1  0  0  0  0
  5  6  1  0  0  0  0
  5 14  2  0  0  0  0
  6 15  2  0  0  0  0
  7 10  1  0  0  0  0
  7 23  1  0  0  0  0
  7 24  1  0  0  0  0
  8 11  1  0  0  0  0
  8 25  1  0  0  0  0
  8 26  1  0  0  0  0
  9 12  1  0  0  0  0
  9 27  1  0  0  0  0
  9 28  1  0  0  0  0
 10 29  1  0  0  0  0
 10 30  1  0  0  0  0
 11 31  1  0  0  0  0
 11 32  1  0  0  0  0
 12 13  1  0  0  0  0
 12 34  1  0  0  0  0
 12 35  1  0  0  0  0
 13 36  1  0  0  0  0
 13 37  1  0  0  0  0
 15 16  1  0  0  0  0
 16 18  2  0  0  0  0
 16 19  1  0  0  0  0
 17 38  1  0  0  0  0
 17 39  1  0  0  0  0
 17 40  1  0  0  0  0
 18 20  1  0  0  0  0
 18 41  1  0  0  0  0
 19 21  2  0  0  0  0
 19 42  1  0  0  0  0
 20 22  2  0  0  0  0
 20 43  1  0  0  0  0
 21 22  1  0  0  0  0
 21 44  1  0  0  0  0
 22 45  1  0  0  0  0
M  END
> <PUBCHEM_COMPOUND_CID>
155568415

> <PUBCHEM_COMPOUND_CANONICALIZED>
1

> <PUBCHEM_CACTVS_COMPLEXITY>
318

> <PUBCHEM_CACTVS_HBOND_ACCEPTOR>
5

> <PUBCHEM_CACTVS_HBOND_DONOR>
1

> <PUBCHEM_CACTVS_ROTATABLE_BOND>
6

> <PUBCHEM_CACTVS_SUBSKEYS>
AAADceB7gABAAAAAAAAAAAAAAAAAAWAAAAA8QAAAAAAAAAABwAAAHAQYAAAADADFWwSzEIfMEAiiAiJiJACS0AtgALAdyKAoBJiIaKKgmRGUIAhgmAKIiAcQgAAOAAAAAAAAAAAAAAAAAAAAAAAAAAAAAA==

> <PUBCHEM_IUPAC_OPENEYE_NAME>
1-[3-[(4-methyl-5-phenyl-1,2,4-triazol-3-yl)sulfanyl]propyl]piperazine

> <PUBCHEM_IUPAC_CAS_NAME>
1-[3-[(4-methyl-5-phenyl-1,2,4-triazol-3-yl)thio]propyl]piperazine

> <PUBCHEM_IUPAC_NAME_MARKUP>
1-[3-[(4-methyl-5-phenyl-1,2,4-triazol-3-yl)sulfanyl]propyl]piperazine

> <PUBCHEM_IUPAC_NAME>
1-[3-[(4-methyl-5-phenyl-1,2,4-triazol-3-yl)sulfanyl]propyl]piperazine

> <PUBCHEM_IUPAC_SYSTEMATIC_NAME>
1-[3-[(4-methyl-5-phenyl-1,2,4-triazol-3-yl)sulfanyl]propyl]piperazine

> <PUBCHEM_IUPAC_TRADITIONAL_NAME>
1-[3-[(4-methyl-5-phenyl-1,2,4-triazol-3-yl)thio]propyl]piperazine

> <PUBCHEM_IUPAC_INCHI>
InChI=1S/C16H23N5S/c1-20-15(14-6-3-2-4-7-14)18-19-16(20)22-13-5-10-21-11-8-17-9-12-21/h2-4,6-7,17H,5,8-13H2,1H3

> <PUBCHEM_IUPAC_INCHIKEY>
XJKRLEJMJPXVGM-UHFFFAOYSA-N

> <PUBCHEM_XLOGP3_AA>
1.7

> <PUBCHEM_EXACT_MASS>
317.16741693

> <PUBCHEM_MOLECULAR_FORMULA>
C16H23N5S

> <PUBCHEM_MOLECULAR_WEIGHT>
317.5

> <PUBCHEM_OPENEYE_CAN_SMILES>
CN1C(=NN=C1SCCCN2CCNCC2)C3=CC=CC=C3

> <PUBCHEM_OPENEYE_ISO_SMILES>
CN1C(=NN=C1SCCCN2CCNCC2)C3=CC=CC=C3

> <PUBCHEM_CACTVS_TPSA>
71.3

> <PUBCHEM_MONOISOTOPIC_WEIGHT>
317.16741693

> <PUBCHEM_TOTAL_CHARGE>
0

> <PUBCHEM_HEAVY_ATOM_COUNT>
22

> <PUBCHEM_ATOM_DEF_STEREO_COUNT>
0

> <PUBCHEM_ATOM_UDEF_STEREO_COUNT>
0

> <PUBCHEM_BOND_DEF_STEREO_COUNT>
0

> <PUBCHEM_BOND_UDEF_STEREO_COUNT>
0

> <PUBCHEM_ISOTOPIC_ATOM_COUNT>
0

> <PUBCHEM_COMPONENT_COUNT>
1

> <PUBCHEM_CACTVS_TAUTO_COUNT>
-1

> <PUBCHEM_COORDINATE_TYPE>
1
5
255

> <PUBCHEM_BONDANNOTATIONS>
16  18  8
16  19  8
18  20  8
19  21  8
20  22  8
21  22  8
4  14  8
4  15  8
5  14  8
5  6  8
6  15  8

$$$$
