44591605
  -OEChem-09292322502D

 46 49  0     1  0  0  0  0  0999 V2000
    5.5981   -1.2088    0.0000 O   0  0  0  0  0  0  0  0  0  0  0  0
    7.2116    2.3142    0.0000 O   0  0  0  0  0  0  0  0  0  0  0  0
    3.7398   -2.3009    0.0000 N   0  0  3  0  0  0  0  0  0  0  0  0
    5.8280    3.4282    0.0000 N   0  0  0  0  0  0  0  0  0  0  0  0
    3.7481   -1.2159    0.0000 C   0  0  1  0  0  0  0  0  0  0  0  0
    4.6461   -0.6882    0.0000 C   0  0  1  0  0  0  0  0  0  0  0  0
    2.8460   -0.6951    0.0000 C   0  0  0  0  0  0  0  0  0  0  0  0
    4.6301    0.3533    0.0000 C   0  0  0  0  0  0  0  0  0  0  0  0
    2.8541    0.3465    0.0000 C   0  0  0  0  0  0  0  0  0  0  0  0
    3.7641    0.8533    0.0000 C   0  0  0  0  0  0  0  0  0  0  0  0
    4.6794   -2.8434    0.0000 C   0  0  0  0  0  0  0  0  0  0  0  0
    5.6148   -2.2937    0.0000 C   0  0  0  0  0  0  0  0  0  0  0  0
    2.8718   -2.7976    0.0000 C   0  0  0  0  0  0  0  0  0  0  0  0
    5.4961    0.8533    0.0000 C   0  0  0  0  0  0  0  0  0  0  0  0
    3.7641    1.8533    0.0000 C   0  0  0  0  0  0  0  0  0  0  0  0
    4.6301    2.3533    0.0000 C   0  0  0  0  0  0  0  0  0  0  0  0
    5.4961    1.8533    0.0000 C   0  0  0  0  0  0  0  0  0  0  0  0
    2.8680   -3.7976    0.0000 C   0  0  0  0  0  0  0  0  0  0  0  0
    4.8393    3.3251    0.0000 C   0  0  0  0  0  0  0  0  0  0  0  0
    6.2331    2.5204    0.0000 C   0  0  0  0  0  0  0  0  0  0  0  0
    2.0000   -4.2942    0.0000 C   0  0  0  0  0  0  0  0  0  0  0  0
    6.3280    4.2942    0.0000 C   0  0  0  0  0  0  0  0  0  0  0  0
    3.0104   -1.6381    0.0000 H   0  0  0  0  0  0  0  0  0  0  0  0
    5.3739   -0.2491    0.0000 H   0  0  0  0  0  0  0  0  0  0  0  0
    2.2360   -0.5843    0.0000 H   0  0  0  0  0  0  0  0  0  0  0  0
    2.6325   -1.2772    0.0000 H   0  0  0  0  0  0  0  0  0  0  0  0
    2.6495    0.9318    0.0000 H   0  0  0  0  0  0  0  0  0  0  0  0
    2.2424    0.2451    0.0000 H   0  0  0  0  0  0  0  0  0  0  0  0
    4.2821   -3.3194    0.0000 H   0  0  0  0  0  0  0  0  0  0  0  0
    5.0803   -3.3163    0.0000 H   0  0  0  0  0  0  0  0  0  0  0  0
    5.8328   -2.8741    0.0000 H   0  0  0  0  0  0  0  0  0  0  0  0
    6.2240   -2.1782    0.0000 H   0  0  0  0  0  0  0  0  0  0  0  0
    2.6620   -2.2141    0.0000 H   0  0  0  0  0  0  0  0  0  0  0  0
    2.2608   -2.9029    0.0000 H   0  0  0  0  0  0  0  0  0  0  0  0
    6.0330    0.5433    0.0000 H   0  0  0  0  0  0  0  0  0  0  0  0
    3.2271    2.1633    0.0000 H   0  0  0  0  0  0  0  0  0  0  0  0
    3.0778   -4.3810    0.0000 H   0  0  0  0  0  0  0  0  0  0  0  0
    3.4789   -3.6922    0.0000 H   0  0  0  0  0  0  0  0  0  0  0  0
    4.8402    3.9451    0.0000 H   0  0  0  0  0  0  0  0  0  0  0  0
    4.2228    3.3912    0.0000 H   0  0  0  0  0  0  0  0  0  0  0  0
    1.6921   -3.7561    0.0000 H   0  0  0  0  0  0  0  0  0  0  0  0
    1.4619   -4.6021    0.0000 H   0  0  0  0  0  0  0  0  0  0  0  0
    2.3079   -4.8323    0.0000 H   0  0  0  0  0  0  0  0  0  0  0  0
    6.8650    3.9842    0.0000 H   0  0  0  0  0  0  0  0  0  0  0  0
    6.6380    4.8312    0.0000 H   0  0  0  0  0  0  0  0  0  0  0  0
    5.7911    4.6042    0.0000 H   0  0  0  0  0  0  0  0  0  0  0  0
  1  6  1  0  0  0  0
  1 12  1  0  0  0  0
  2 20  2  0  0  0  0
  3  5  1  0  0  0  0
  3 11  1  0  0  0  0
  3 13  1  0  0  0  0
  4 19  1  0  0  0  0
  4 20  1  0  0  0  0
  4 22  1  0  0  0  0
  5  6  1  0  0  0  0
  5  7  1  0  0  0  0
  5 23  1  1  0  0  0
  6  8  1  0  0  0  0
  6 24  1  6  0  0  0
  7  9  1  0  0  0  0
  7 25  1  0  0  0  0
  7 26  1  0  0  0  0
  8 10  1  0  0  0  0
  8 14  2  0  0  0  0
  9 10  1  0  0  0  0
  9 27  1  0  0  0  0
  9 28  1  0  0  0  0
 10 15  2  0  0  0  0
 11 12  1  0  0  0  0
 11 29  1  0  0  0  0
 11 30  1  0  0  0  0
 12 31  1  0  0  0  0
 12 32  1  0  0  0  0
 13 18  1  0  0  0  0
 13 33  1  0  0  0  0
 13 34  1  0  0  0  0
 14 17  1  0  0  0  0
 14 35  1  0  0  0  0
 15 16  1  0  0  0  0
 15 36  1  0  0  0  0
 16 17  2  0  0  0  0
 16 19  1  0  0  0  0
 17 20  1  0  0  0  0
 18 21  1  0  0  0  0
 18 37  1  0  0  0  0
 18 38  1  0  0  0  0
 19 39  1  0  0  0  0
 19 40  1  0  0  0  0
 21 41  1  0  0  0  0
 21 42  1  0  0  0  0
 21 43  1  0  0  0  0
 22 44  1  0  0  0  0
 22 45  1  0  0  0  0
 22 46  1  0  0  0  0
M  END
> <PUBCHEM_COMPOUND_CID>
44591605

> <PUBCHEM_COMPOUND_CANONICALIZED>
1

> <PUBCHEM_CACTVS_COMPLEXITY>
441

> <PUBCHEM_CACTVS_HBOND_ACCEPTOR>
3

> <PUBCHEM_CACTVS_HBOND_DONOR>
0

> <PUBCHEM_CACTVS_ROTATABLE_BOND>
2

> <PUBCHEM_CACTVS_SUBSKEYS>
AAADceB7MAAAAAAAAAAAAAAAAAAAAWAAAAA8YIAAAAAAAFjxAAAAHgAAAAAADDzhmAYyAIMABACIAiFSEACCAAAkAAAAiAEIDMgKJjKAtRmHMQhkxgGYqYec3PLOwAACAAAQAACQAAaAADAgAAAAAAAAAA==

> <PUBCHEM_IUPAC_OPENEYE_NAME>
(4aR,11bR)-9-methyl-4-propyl-3,4a,5,6,8,11b-hexahydro-2H-isoindolo[5,6-h][1,4]benzoxazin-10-one

> <PUBCHEM_IUPAC_CAS_NAME>
(4aR,11bR)-9-methyl-4-propyl-3,4a,5,6,8,11b-hexahydro-2H-isoindolo[5,6-h][1,4]benzoxazin-10-one

> <PUBCHEM_IUPAC_NAME_MARKUP>
(4<I>a</I><I>R</I>,11<I>b</I><I>R</I>)-9-methyl-4-propyl-3,4<I>a</I>,5,6,8,11<I>b</I>-hexahydro-2<I>H</I>-isoindolo[5,6-h][1,4]benzoxazin-10-one

> <PUBCHEM_IUPAC_NAME>
(4aR,11bR)-9-methyl-4-propyl-3,4a,5,6,8,11b-hexahydro-2H-isoindolo[5,6-h][1,4]benzoxazin-10-one

> <PUBCHEM_IUPAC_SYSTEMATIC_NAME>
(4aR,11bR)-9-methyl-4-propyl-3,4a,5,6,8,11b-hexahydro-2H-isoindolo[5,6-h][1,4]benzoxazin-10-one

> <PUBCHEM_IUPAC_TRADITIONAL_NAME>
(4aR,11bR)-9-methyl-4-propyl-3,4a,5,6,8,11b-hexahydro-2H-isoindolo[5,6-h][1,4]benzoxazin-10-one

> <PUBCHEM_IUPAC_INCHI>
InChI=1S/C18H24N2O2/c1-3-6-20-7-8-22-17-14-10-15-13(11-19(2)18(15)21)9-12(14)4-5-16(17)20/h9-10,16-17H,3-8,11H2,1-2H3/t16-,17-/m1/s1

> <PUBCHEM_IUPAC_INCHIKEY>
PDUUSJJPAUMGTJ-IAGOWNOFSA-N

> <PUBCHEM_XLOGP3_AA>
1.8

> <PUBCHEM_EXACT_MASS>
300.183778013

> <PUBCHEM_MOLECULAR_FORMULA>
C18H24N2O2

> <PUBCHEM_MOLECULAR_WEIGHT>
300.4

> <PUBCHEM_OPENEYE_CAN_SMILES>
CCCN1CCOC2C1CCC3=CC4=C(C=C23)C(=O)N(C4)C

> <PUBCHEM_OPENEYE_ISO_SMILES>
CCCN1CCO[C@H]2[C@H]1CCC3=CC4=C(C=C23)C(=O)N(C4)C

> <PUBCHEM_CACTVS_TPSA>
32.8

> <PUBCHEM_MONOISOTOPIC_WEIGHT>
300.183778013

> <PUBCHEM_TOTAL_CHARGE>
0

> <PUBCHEM_HEAVY_ATOM_COUNT>
22

> <PUBCHEM_ATOM_DEF_STEREO_COUNT>
2

> <PUBCHEM_ATOM_UDEF_STEREO_COUNT>
0

> <PUBCHEM_BOND_DEF_STEREO_COUNT>
0

> <PUBCHEM_BOND_UDEF_STEREO_COUNT>
0

> <PUBCHEM_ISOTOPIC_ATOM_COUNT>
0

> <PUBCHEM_COMPONENT_COUNT>
1

> <PUBCHEM_CACTVS_TAUTO_COUNT>
-1

> <PUBCHEM_COORDINATE_TYPE>
1
5
255

> <PUBCHEM_BONDANNOTATIONS>
10  15  8
14  17  8
15  16  8
16  17  8
5  23  5
6  24  6
8  10  8
8  14  8

$$$$
