45268113
  -OEChem-09292322282D

 48 51  0     0  0  0  0  0  0999 V2000
   12.1065   -1.8457    0.0000 F   0  0  0  0  0  0  0  0  0  0  0  0
   12.3277   -3.2425    0.0000 F   0  0  0  0  0  0  0  0  0  0  0  0
   10.9309   -3.4637    0.0000 F   0  0  0  0  0  0  0  0  0  0  0  0
    8.0406   -0.1624    0.0000 O   0  0  0  0  0  0  0  0  0  0  0  0
   10.7097   -2.0669    0.0000 O   0  0  0  0  0  0  0  0  0  0  0  0
    5.2619    2.4637    0.0000 N   0  0  0  0  0  0  0  0  0  0  0  0
    7.7619    1.5977    0.0000 N   0  0  0  0  0  0  0  0  0  0  0  0
    9.3007    1.0977    0.0000 N   0  0  0  0  0  0  0  0  0  0  0  0
    6.2619    2.4637    0.0000 C   0  0  0  0  0  0  0  0  0  0  0  0
    6.7619    1.5977    0.0000 C   0  0  0  0  0  0  0  0  0  0  0  0
    4.6783    1.6590    0.0000 C   0  0  0  0  0  0  0  0  0  0  0  0
    4.6783    3.2684    0.0000 C   0  0  0  0  0  0  0  0  0  0  0  0
    8.3497    2.4067    0.0000 C   0  0  0  0  0  0  0  0  0  0  0  0
    3.7320    1.9637    0.0000 C   0  0  0  0  0  0  0  0  0  0  0  0
    3.7320    2.9637    0.0000 C   0  0  0  0  0  0  0  0  0  0  0  0
    9.3007    2.0977    0.0000 C   0  0  0  0  0  0  0  0  0  0  0  0
    8.3497    0.7887    0.0000 C   0  0  0  0  0  0  0  0  0  0  0  0
    2.8660    1.4637    0.0000 C   0  0  0  0  0  0  0  0  0  0  0  0
    2.8660    3.4637    0.0000 C   0  0  0  0  0  0  0  0  0  0  0  0
   10.1097    0.5099    0.0000 C   0  0  0  0  0  0  0  0  0  0  0  0
    2.0000    1.9637    0.0000 C   0  0  0  0  0  0  0  0  0  0  0  0
    2.0000    2.9637    0.0000 C   0  0  0  0  0  0  0  0  0  0  0  0
   10.0052   -0.4846    0.0000 C   0  0  0  0  0  0  0  0  0  0  0  0
   11.0233    0.9166    0.0000 C   0  0  0  0  0  0  0  0  0  0  0  0
   10.8142   -1.0724    0.0000 C   0  0  0  0  0  0  0  0  0  0  0  0
   11.8323    0.3289    0.0000 C   0  0  0  0  0  0  0  0  0  0  0  0
   11.7278   -0.6657    0.0000 C   0  0  0  0  0  0  0  0  0  0  0  0
   11.5187   -2.6547    0.0000 C   0  0  0  0  0  0  0  0  0  0  0  0
    6.8445    2.6758    0.0000 H   0  0  0  0  0  0  0  0  0  0  0  0
    6.1542    3.0743    0.0000 H   0  0  0  0  0  0  0  0  0  0  0  0
    6.1793    1.3856    0.0000 H   0  0  0  0  0  0  0  0  0  0  0  0
    6.8695    0.9871    0.0000 H   0  0  0  0  0  0  0  0  0  0  0  0
    4.4272    1.0921    0.0000 H   0  0  0  0  0  0  0  0  0  0  0  0
    5.2156    1.3498    0.0000 H   0  0  0  0  0  0  0  0  0  0  0  0
    5.2156    3.5777    0.0000 H   0  0  0  0  0  0  0  0  0  0  0  0
    4.4272    3.8354    0.0000 H   0  0  0  0  0  0  0  0  0  0  0  0
    8.6018    2.9731    0.0000 H   0  0  0  0  0  0  0  0  0  0  0  0
    7.8127    2.7167    0.0000 H   0  0  0  0  0  0  0  0  0  0  0  0
    9.9173    2.0329    0.0000 H   0  0  0  0  0  0  0  0  0  0  0  0
    9.4296    2.7042    0.0000 H   0  0  0  0  0  0  0  0  0  0  0  0
    2.8660    0.8437    0.0000 H   0  0  0  0  0  0  0  0  0  0  0  0
    2.8660    4.0837    0.0000 H   0  0  0  0  0  0  0  0  0  0  0  0
    1.4631    1.6537    0.0000 H   0  0  0  0  0  0  0  0  0  0  0  0
    1.4631    3.2737    0.0000 H   0  0  0  0  0  0  0  0  0  0  0  0
    9.4388   -0.7368    0.0000 H   0  0  0  0  0  0  0  0  0  0  0  0
   11.0881    1.5332    0.0000 H   0  0  0  0  0  0  0  0  0  0  0  0
   12.3987    0.5810    0.0000 H   0  0  0  0  0  0  0  0  0  0  0  0
   12.2294   -1.0301    0.0000 H   0  0  0  0  0  0  0  0  0  0  0  0
  1 28  1  0  0  0  0
  2 28  1  0  0  0  0
  3 28  1  0  0  0  0
  4 17  2  0  0  0  0
  5 25  1  0  0  0  0
  5 28  1  0  0  0  0
  6  9  1  0  0  0  0
  6 11  1  0  0  0  0
  6 12  1  0  0  0  0
  7 10  1  0  0  0  0
  7 13  1  0  0  0  0
  7 17  1  0  0  0  0
  8 16  1  0  0  0  0
  8 17  1  0  0  0  0
  8 20  1  0  0  0  0
  9 10  1  0  0  0  0
  9 29  1  0  0  0  0
  9 30  1  0  0  0  0
 10 31  1  0  0  0  0
 10 32  1  0  0  0  0
 11 14  1  0  0  0  0
 11 33  1  0  0  0  0
 11 34  1  0  0  0  0
 12 15  1  0  0  0  0
 12 35  1  0  0  0  0
 12 36  1  0  0  0  0
 13 16  1  0  0  0  0
 13 37  1  0  0  0  0
 13 38  1  0  0  0  0
 14 15  1  0  0  0  0
 14 18  2  0  0  0  0
 15 19  2  0  0  0  0
 16 39  1  0  0  0  0
 16 40  1  0  0  0  0
 18 21  1  0  0  0  0
 18 41  1  0  0  0  0
 19 22  1  0  0  0  0
 19 42  1  0  0  0  0
 20 23  2  0  0  0  0
 20 24  1  0  0  0  0
 21 22  2  0  0  0  0
 21 43  1  0  0  0  0
 22 44  1  0  0  0  0
 23 25  1  0  0  0  0
 23 45  1  0  0  0  0
 24 26  2  0  0  0  0
 24 46  1  0  0  0  0
 25 27  2  0  0  0  0
 26 27  1  0  0  0  0
 26 47  1  0  0  0  0
 27 48  1  0  0  0  0
M  END
> <PUBCHEM_COMPOUND_CID>
45268113

> <PUBCHEM_COMPOUND_CANONICALIZED>
1

> <PUBCHEM_CACTVS_COMPLEXITY>
545

> <PUBCHEM_CACTVS_HBOND_ACCEPTOR>
6

> <PUBCHEM_CACTVS_HBOND_DONOR>
0

> <PUBCHEM_CACTVS_ROTATABLE_BOND>
5

> <PUBCHEM_CACTVS_SUBSKEYS>
AAADceB7MYAAAAAAAAAAAAAAAAAAAWLAAAAwYAAAAAAAAFgBQAAAHwAAAAAADAzBmBQxxoMABACIAiRCUACCCAAhIgAIiAAObIiMZiLEsZuUMChuxhvI6CeQ0IMOgAAAAgAQAAAAAAAEACAAAAAAAAAAAA==

> <PUBCHEM_IUPAC_OPENEYE_NAME>
1-(2-isoindolin-2-ylethyl)-3-[3-(trifluoromethoxy)phenyl]imidazolidin-2-one

> <PUBCHEM_IUPAC_CAS_NAME>
1-[2-(1,3-dihydroisoindol-2-yl)ethyl]-3-[3-(trifluoromethoxy)phenyl]-2-imidazolidinone

> <PUBCHEM_IUPAC_NAME_MARKUP>
1-[2-(1,3-dihydroisoindol-2-yl)ethyl]-3-[3-(trifluoromethoxy)phenyl]imidazolidin-2-one

> <PUBCHEM_IUPAC_NAME>
1-[2-(1,3-dihydroisoindol-2-yl)ethyl]-3-[3-(trifluoromethoxy)phenyl]imidazolidin-2-one

> <PUBCHEM_IUPAC_SYSTEMATIC_NAME>
1-[2-(1,3-dihydroisoindol-2-yl)ethyl]-3-[3-(trifluoromethyloxy)phenyl]imidazolidin-2-one

> <PUBCHEM_IUPAC_TRADITIONAL_NAME>
1-(2-isoindolin-2-ylethyl)-3-[3-(trifluoromethoxy)phenyl]-2-imidazolidinone

> <PUBCHEM_IUPAC_INCHI>
InChI=1S/C20H20F3N3O2/c21-20(22,23)28-18-7-3-6-17(12-18)26-11-10-25(19(26)27)9-8-24-13-15-4-1-2-5-16(15)14-24/h1-7,12H,8-11,13-14H2

> <PUBCHEM_IUPAC_INCHIKEY>
ZWBIIYBHVNHQOG-UHFFFAOYSA-N

> <PUBCHEM_XLOGP3_AA>
3.4

> <PUBCHEM_EXACT_MASS>
391.15076138

> <PUBCHEM_MOLECULAR_FORMULA>
C20H20F3N3O2

> <PUBCHEM_MOLECULAR_WEIGHT>
391.4

> <PUBCHEM_OPENEYE_CAN_SMILES>
C1CN(C(=O)N1CCN2CC3=CC=CC=C3C2)C4=CC(=CC=C4)OC(F)(F)F

> <PUBCHEM_OPENEYE_ISO_SMILES>
C1CN(C(=O)N1CCN2CC3=CC=CC=C3C2)C4=CC(=CC=C4)OC(F)(F)F

> <PUBCHEM_CACTVS_TPSA>
36

> <PUBCHEM_MONOISOTOPIC_WEIGHT>
391.15076138

> <PUBCHEM_TOTAL_CHARGE>
0

> <PUBCHEM_HEAVY_ATOM_COUNT>
28

> <PUBCHEM_ATOM_DEF_STEREO_COUNT>
0

> <PUBCHEM_ATOM_UDEF_STEREO_COUNT>
0

> <PUBCHEM_BOND_DEF_STEREO_COUNT>
0

> <PUBCHEM_BOND_UDEF_STEREO_COUNT>
0

> <PUBCHEM_ISOTOPIC_ATOM_COUNT>
0

> <PUBCHEM_COMPONENT_COUNT>
1

> <PUBCHEM_CACTVS_TAUTO_COUNT>
-1

> <PUBCHEM_COORDINATE_TYPE>
1
5
255

> <PUBCHEM_BONDANNOTATIONS>
14  15  8
14  18  8
15  19  8
18  21  8
19  22  8
20  23  8
20  24  8
21  22  8
23  25  8
24  26  8
25  27  8
26  27  8

$$$$
