66801116
  -OEChem-09292322472D

 54 58  0     0  0  0  0  0  0999 V2000
    6.1831   -3.1392    0.0000 S   0  0  0  0  0  0  0  0  0  0  0  0
    7.9954   -5.9440    0.0000 S   0  0  0  0  0  0  0  0  0  0  0  0
    4.9511    5.3906    0.0000 O   0  0  0  0  0  0  0  0  0  0  0  0
    5.1831   -3.1392    0.0000 O   0  0  0  0  0  0  0  0  0  0  0  0
    7.1831   -3.1392    0.0000 O   0  0  0  0  0  0  0  0  0  0  0  0
    4.4511    0.8608    0.0000 N   0  0  0  0  0  0  0  0  0  0  0  0
    4.4511    2.8608    0.0000 N   0  0  0  0  0  0  0  0  0  0  0  0
    6.1831   -2.1392    0.0000 N   0  0  0  0  0  0  0  0  0  0  0  0
    5.2558    4.4444    0.0000 N   0  0  0  0  0  0  0  0  0  0  0  0
    7.9954   -4.3345    0.0000 N   0  0  0  0  0  0  0  0  0  0  0  0
    5.3171    1.3608    0.0000 C   0  0  0  0  0  0  0  0  0  0  0  0
    3.5851    1.3608    0.0000 C   0  0  0  0  0  0  0  0  0  0  0  0
    5.3171    2.3608    0.0000 C   0  0  0  0  0  0  0  0  0  0  0  0
    3.5851    2.3608    0.0000 C   0  0  0  0  0  0  0  0  0  0  0  0
    4.4511   -0.1392    0.0000 C   0  0  0  0  0  0  0  0  0  0  0  0
    5.3171   -0.6392    0.0000 C   0  0  0  0  0  0  0  0  0  0  0  0
    4.4511    3.8608    0.0000 C   0  0  0  0  0  0  0  0  0  0  0  0
    5.3171   -1.6392    0.0000 C   0  0  0  0  0  0  0  0  0  0  0  0
    3.6464    4.4444    0.0000 C   0  0  0  0  0  0  0  0  0  0  0  0
    3.9570    5.3949    0.0000 C   0  0  0  0  0  0  0  0  0  0  0  0
    2.6678    4.2382    0.0000 C   0  0  0  0  0  0  0  0  0  0  0  0
    6.1831   -4.1392    0.0000 C   0  0  0  0  0  0  0  0  0  0  0  0
    3.2892    6.1392    0.0000 C   0  0  0  0  0  0  0  0  0  0  0  0
    2.0000    4.9825    0.0000 C   0  0  0  0  0  0  0  0  0  0  0  0
    7.0492   -4.6392    0.0000 C   0  0  0  0  0  0  0  0  0  0  0  0
    2.3107    5.9330    0.0000 C   0  0  0  0  0  0  0  0  0  0  0  0
    5.3171   -4.6392    0.0000 C   0  0  0  0  0  0  0  0  0  0  0  0
    7.0492   -5.6392    0.0000 C   0  0  0  0  0  0  0  0  0  0  0  0
    5.3171   -5.6392    0.0000 C   0  0  0  0  0  0  0  0  0  0  0  0
    6.1831   -6.1392    0.0000 C   0  0  0  0  0  0  0  0  0  0  0  0
    8.5790   -5.1392    0.0000 C   0  0  0  0  0  0  0  0  0  0  0  0
    5.5292    0.7782    0.0000 H   0  0  0  0  0  0  0  0  0  0  0  0
    5.9277    1.4684    0.0000 H   0  0  0  0  0  0  0  0  0  0  0  0
    2.9745    1.4684    0.0000 H   0  0  0  0  0  0  0  0  0  0  0  0
    3.3730    0.7782    0.0000 H   0  0  0  0  0  0  0  0  0  0  0  0
    5.9277    2.2531    0.0000 H   0  0  0  0  0  0  0  0  0  0  0  0
    5.5292    2.9434    0.0000 H   0  0  0  0  0  0  0  0  0  0  0  0
    3.3730    2.9434    0.0000 H   0  0  0  0  0  0  0  0  0  0  0  0
    2.9745    2.2531    0.0000 H   0  0  0  0  0  0  0  0  0  0  0  0
    3.8405   -0.0316    0.0000 H   0  0  0  0  0  0  0  0  0  0  0  0
    4.2390   -0.7218    0.0000 H   0  0  0  0  0  0  0  0  0  0  0  0
    5.9277   -0.7469    0.0000 H   0  0  0  0  0  0  0  0  0  0  0  0
    5.5292   -0.0566    0.0000 H   0  0  0  0  0  0  0  0  0  0  0  0
    4.7065   -1.5316    0.0000 H   0  0  0  0  0  0  0  0  0  0  0  0
    5.1050   -2.2218    0.0000 H   0  0  0  0  0  0  0  0  0  0  0  0
    6.7201   -1.8292    0.0000 H   0  0  0  0  0  0  0  0  0  0  0  0
    2.4752    3.6488    0.0000 H   0  0  0  0  0  0  0  0  0  0  0  0
    3.4818    6.7285    0.0000 H   0  0  0  0  0  0  0  0  0  0  0  0
    1.3933    4.8546    0.0000 H   0  0  0  0  0  0  0  0  0  0  0  0
    1.8966    6.3945    0.0000 H   0  0  0  0  0  0  0  0  0  0  0  0
    4.7802   -4.3292    0.0000 H   0  0  0  0  0  0  0  0  0  0  0  0
    4.7802   -5.9492    0.0000 H   0  0  0  0  0  0  0  0  0  0  0  0
    6.1831   -6.7592    0.0000 H   0  0  0  0  0  0  0  0  0  0  0  0
    9.1990   -5.1392    0.0000 H   0  0  0  0  0  0  0  0  0  0  0  0
  1  4  2  0  0  0  0
  1  5  2  0  0  0  0
  1  8  1  0  0  0  0
  1 22  1  0  0  0  0
  2 28  1  0  0  0  0
  2 31  1  0  0  0  0
  3  9  1  0  0  0  0
  3 20  1  0  0  0  0
  6 11  1  0  0  0  0
  6 12  1  0  0  0  0
  6 15  1  0  0  0  0
  7 13  1  0  0  0  0
  7 14  1  0  0  0  0
  7 17  1  0  0  0  0
  8 18  1  0  0  0  0
  8 46  1  0  0  0  0
  9 17  2  0  0  0  0
 10 25  1  0  0  0  0
 10 31  2  0  0  0  0
 11 13  1  0  0  0  0
 11 32  1  0  0  0  0
 11 33  1  0  0  0  0
 12 14  1  0  0  0  0
 12 34  1  0  0  0  0
 12 35  1  0  0  0  0
 13 36  1  0  0  0  0
 13 37  1  0  0  0  0
 14 38  1  0  0  0  0
 14 39  1  0  0  0  0
 15 16  1  0  0  0  0
 15 40  1  0  0  0  0
 15 41  1  0  0  0  0
 16 18  1  0  0  0  0
 16 42  1  0  0  0  0
 16 43  1  0  0  0  0
 17 19  1  0  0  0  0
 18 44  1  0  0  0  0
 18 45  1  0  0  0  0
 19 20  1  0  0  0  0
 19 21  2  0  0  0  0
 20 23  2  0  0  0  0
 21 24  1  0  0  0  0
 21 47  1  0  0  0  0
 22 25  1  0  0  0  0
 22 27  2  0  0  0  0
 23 26  1  0  0  0  0
 23 48  1  0  0  0  0
 24 26  2  0  0  0  0
 24 49  1  0  0  0  0
 25 28  2  0  0  0  0
 26 50  1  0  0  0  0
 27 29  1  0  0  0  0
 27 51  1  0  0  0  0
 28 30  1  0  0  0  0
 29 30  2  0  0  0  0
 29 52  1  0  0  0  0
 30 53  1  0  0  0  0
 31 54  1  0  0  0  0
M  END
> <PUBCHEM_COMPOUND_CID>
66801116

> <PUBCHEM_COMPOUND_CANONICALIZED>
1

> <PUBCHEM_CACTVS_COMPLEXITY>
698

> <PUBCHEM_CACTVS_HBOND_ACCEPTOR>
9

> <PUBCHEM_CACTVS_HBOND_DONOR>
1

> <PUBCHEM_CACTVS_ROTATABLE_BOND>
7

> <PUBCHEM_CACTVS_SUBSKEYS>
AAADceB7sABgAAAAAAAAAAAAAAAAAWLAAAA8YIAAAAAAAFgB/gAAHgQUQAAADAzB3gS19/NYEAqtA6ZzZnDD8LB1KDhp2L0uTNqIZrrg3ZOUMYhm0BvIyceYyCCOAAAAAEAIAQAAAAAAgBACAAAAAAAAAA==

> <PUBCHEM_IUPAC_OPENEYE_NAME>
N-[3-[4-(1,2-benzoxazol-3-yl)piperazin-1-yl]propyl]-1,3-benzothiazole-4-sulfonamide

> <PUBCHEM_IUPAC_CAS_NAME>
N-[3-[4-(1,2-benzoxazol-3-yl)-1-piperazinyl]propyl]-1,3-benzothiazole-4-sulfonamide

> <PUBCHEM_IUPAC_NAME_MARKUP>
<I>N</I>-[3-[4-(1,2-benzoxazol-3-yl)piperazin-1-yl]propyl]-1,3-benzothiazole-4-sulfonamide

> <PUBCHEM_IUPAC_NAME>
N-[3-[4-(1,2-benzoxazol-3-yl)piperazin-1-yl]propyl]-1,3-benzothiazole-4-sulfonamide

> <PUBCHEM_IUPAC_SYSTEMATIC_NAME>
N-[3-[4-(1,2-benzoxazol-3-yl)piperazin-1-yl]propyl]-1,3-benzothiazole-4-sulfonamide

> <PUBCHEM_IUPAC_TRADITIONAL_NAME>
N-[3-(4-indoxazen-3-ylpiperazino)propyl]-1,3-benzothiazole-4-sulfonamide

> <PUBCHEM_IUPAC_INCHI>
InChI=1S/C21H23N5O3S2/c27-31(28,19-8-3-7-18-20(19)22-15-30-18)23-9-4-10-25-11-13-26(14-12-25)21-16-5-1-2-6-17(16)29-24-21/h1-3,5-8,15,23H,4,9-14H2

> <PUBCHEM_IUPAC_INCHIKEY>
DIXICAHJOXMZSL-UHFFFAOYSA-N

> <PUBCHEM_XLOGP3_AA>
3.4

> <PUBCHEM_EXACT_MASS>
457.12423196

> <PUBCHEM_MOLECULAR_FORMULA>
C21H23N5O3S2

> <PUBCHEM_MOLECULAR_WEIGHT>
457.6

> <PUBCHEM_OPENEYE_CAN_SMILES>
C1CN(CCN1CCCNS(=O)(=O)C2=CC=CC3=C2N=CS3)C4=NOC5=CC=CC=C54

> <PUBCHEM_OPENEYE_ISO_SMILES>
C1CN(CCN1CCCNS(=O)(=O)C2=CC=CC3=C2N=CS3)C4=NOC5=CC=CC=C54

> <PUBCHEM_CACTVS_TPSA>
128

> <PUBCHEM_MONOISOTOPIC_WEIGHT>
457.12423196

> <PUBCHEM_TOTAL_CHARGE>
0

> <PUBCHEM_HEAVY_ATOM_COUNT>
31

> <PUBCHEM_ATOM_DEF_STEREO_COUNT>
0

> <PUBCHEM_ATOM_UDEF_STEREO_COUNT>
0

> <PUBCHEM_BOND_DEF_STEREO_COUNT>
0

> <PUBCHEM_BOND_UDEF_STEREO_COUNT>
0

> <PUBCHEM_ISOTOPIC_ATOM_COUNT>
0

> <PUBCHEM_COMPONENT_COUNT>
1

> <PUBCHEM_CACTVS_TAUTO_COUNT>
-1

> <PUBCHEM_COORDINATE_TYPE>
1
5
255

> <PUBCHEM_BONDANNOTATIONS>
10  25  8
10  31  8
17  19  8
19  20  8
19  21  8
2  28  8
2  31  8
20  23  8
21  24  8
22  25  8
22  27  8
23  26  8
24  26  8
25  28  8
27  29  8
28  30  8
29  30  8
3  20  8
3  9  8
9  17  8

$$$$
