44324801
  -OEChem-09292322222D

 67 70  0     1  0  0  0  0  0999 V2000
    7.1962   -1.5000    0.0000 O   0  0  0  0  0  0  0  0  0  0  0  0
   12.3923   -0.5000    0.0000 N   0  0  3  0  0  0  0  0  0  0  0  0
   15.8843    1.5347    0.0000 N   0  0  0  0  0  0  0  0  0  0  0  0
   16.7904   -0.0208    0.0000 N   0  0  0  0  0  0  0  0  0  0  0  0
    8.0622   -0.0000    0.0000 N   0  0  0  0  0  0  0  0  0  0  0  0
   13.2583   -0.0000    0.0000 C   0  0  3  0  0  0  0  0  0  0  0  0
   13.2583    1.0000    0.0000 C   0  0  0  0  0  0  0  0  0  0  0  0
   14.1244   -0.5000    0.0000 C   0  0  0  0  0  0  0  0  0  0  0  0
   14.1244    1.5000    0.0000 C   0  0  0  0  0  0  0  0  0  0  0  0
   11.5263   -0.0000    0.0000 C   0  0  0  0  0  0  0  0  0  0  0  0
   14.9904   -0.0000    0.0000 C   0  0  0  0  0  0  0  0  0  0  0  0
   12.3923   -1.5000    0.0000 C   0  0  0  0  0  0  0  0  0  0  0  0
   14.9904    1.0000    0.0000 C   0  0  0  0  0  0  0  0  0  0  0  0
   10.6603   -0.5000    0.0000 C   0  0  0  0  0  0  0  0  0  0  0  0
   11.5263   -2.0000    0.0000 C   0  0  0  0  0  0  0  0  0  0  0  0
    9.7942   -0.0000    0.0000 C   0  0  0  0  0  0  0  0  0  0  0  0
   15.8843   -0.5347    0.0000 C   0  0  0  0  0  0  0  0  0  0  0  0
    8.9282   -0.5000    0.0000 C   0  0  0  0  0  0  0  0  0  0  0  0
   11.5263   -3.0000    0.0000 C   0  0  0  0  0  0  0  0  0  0  0  0
   16.7904    1.0208    0.0000 C   0  0  0  0  0  0  0  0  0  0  0  0
    7.1962   -0.5000    0.0000 C   0  0  0  0  0  0  0  0  0  0  0  0
    6.3301    0.0000    0.0000 C   0  0  0  0  0  0  0  0  0  0  0  0
    5.4641   -0.5000    0.0000 C   0  0  0  0  0  0  0  0  0  0  0  0
    6.3301    1.0000    0.0000 C   0  0  0  0  0  0  0  0  0  0  0  0
    4.5981    1.0000    0.0000 C   0  0  0  0  0  0  0  0  0  0  0  0
    4.5981    0.0000    0.0000 C   0  0  0  0  0  0  0  0  0  0  0  0
    5.4641    1.5000    0.0000 C   0  0  0  0  0  0  0  0  0  0  0  0
    3.7320    1.5000    0.0000 C   0  0  0  0  0  0  0  0  0  0  0  0
    2.8660    1.0000    0.0000 C   0  0  0  0  0  0  0  0  0  0  0  0
    3.7320    2.5000    0.0000 C   0  0  0  0  0  0  0  0  0  0  0  0
    2.0000    1.5000    0.0000 C   0  0  0  0  0  0  0  0  0  0  0  0
    2.8660    3.0000    0.0000 C   0  0  0  0  0  0  0  0  0  0  0  0
    2.0000    2.5000    0.0000 C   0  0  0  0  0  0  0  0  0  0  0  0
   13.2583   -0.6200    0.0000 H   0  0  0  0  0  0  0  0  0  0  0  0
   13.0463    1.5826    0.0000 H   0  0  0  0  0  0  0  0  0  0  0  0
   12.6477    0.8923    0.0000 H   0  0  0  0  0  0  0  0  0  0  0  0
   13.7258   -0.9749    0.0000 H   0  0  0  0  0  0  0  0  0  0  0  0
   14.5229   -0.9749    0.0000 H   0  0  0  0  0  0  0  0  0  0  0  0
   14.5229    1.9750    0.0000 H   0  0  0  0  0  0  0  0  0  0  0  0
   13.7258    1.9750    0.0000 H   0  0  0  0  0  0  0  0  0  0  0  0
   11.9248    0.4749    0.0000 H   0  0  0  0  0  0  0  0  0  0  0  0
   11.1278    0.4749    0.0000 H   0  0  0  0  0  0  0  0  0  0  0  0
   12.6044   -2.0826    0.0000 H   0  0  0  0  0  0  0  0  0  0  0  0
   13.0029   -1.3923    0.0000 H   0  0  0  0  0  0  0  0  0  0  0  0
   10.2617   -0.9749    0.0000 H   0  0  0  0  0  0  0  0  0  0  0  0
   11.0588   -0.9749    0.0000 H   0  0  0  0  0  0  0  0  0  0  0  0
   11.3142   -1.4174    0.0000 H   0  0  0  0  0  0  0  0  0  0  0  0
   10.9157   -2.1077    0.0000 H   0  0  0  0  0  0  0  0  0  0  0  0
   10.1928    0.4749    0.0000 H   0  0  0  0  0  0  0  0  0  0  0  0
    9.3957    0.4749    0.0000 H   0  0  0  0  0  0  0  0  0  0  0  0
   15.8772   -1.1546    0.0000 H   0  0  0  0  0  0  0  0  0  0  0  0
    8.5297   -0.9749    0.0000 H   0  0  0  0  0  0  0  0  0  0  0  0
    9.3267   -0.9749    0.0000 H   0  0  0  0  0  0  0  0  0  0  0  0
   10.9063   -3.0000    0.0000 H   0  0  0  0  0  0  0  0  0  0  0  0
   11.5263   -3.6200    0.0000 H   0  0  0  0  0  0  0  0  0  0  0  0
   12.1463   -3.0000    0.0000 H   0  0  0  0  0  0  0  0  0  0  0  0
   17.3261    1.3329    0.0000 H   0  0  0  0  0  0  0  0  0  0  0  0
    8.0622    0.6200    0.0000 H   0  0  0  0  0  0  0  0  0  0  0  0
    5.4641   -1.1200    0.0000 H   0  0  0  0  0  0  0  0  0  0  0  0
    6.8671    1.3100    0.0000 H   0  0  0  0  0  0  0  0  0  0  0  0
    4.0611   -0.3100    0.0000 H   0  0  0  0  0  0  0  0  0  0  0  0
    5.4641    2.1200    0.0000 H   0  0  0  0  0  0  0  0  0  0  0  0
    2.8660    0.3800    0.0000 H   0  0  0  0  0  0  0  0  0  0  0  0
    4.2690    2.8100    0.0000 H   0  0  0  0  0  0  0  0  0  0  0  0
    1.4631    1.1900    0.0000 H   0  0  0  0  0  0  0  0  0  0  0  0
    2.8660    3.6200    0.0000 H   0  0  0  0  0  0  0  0  0  0  0  0
    1.4631    2.8100    0.0000 H   0  0  0  0  0  0  0  0  0  0  0  0
  1 21  2  0  0  0  0
  2  6  1  0  0  0  0
  2 10  1  0  0  0  0
  2 12  1  0  0  0  0
  3 13  2  0  0  0  0
  3 20  1  0  0  0  0
  4 17  1  0  0  0  0
  4 20  2  0  0  0  0
  5 18  1  0  0  0  0
  5 21  1  0  0  0  0
  5 58  1  0  0  0  0
  6  7  1  0  0  0  0
  6  8  1  0  0  0  0
  6 34  1  0  0  0  0
  7  9  1  0  0  0  0
  7 35  1  0  0  0  0
  7 36  1  0  0  0  0
  8 11  1  0  0  0  0
  8 37  1  0  0  0  0
  8 38  1  0  0  0  0
  9 13  1  0  0  0  0
  9 39  1  0  0  0  0
  9 40  1  0  0  0  0
 10 14  1  0  0  0  0
 10 41  1  0  0  0  0
 10 42  1  0  0  0  0
 11 13  1  0  0  0  0
 11 17  2  0  0  0  0
 12 15  1  0  0  0  0
 12 43  1  0  0  0  0
 12 44  1  0  0  0  0
 14 16  1  0  0  0  0
 14 45  1  0  0  0  0
 14 46  1  0  0  0  0
 15 19  1  0  0  0  0
 15 47  1  0  0  0  0
 15 48  1  0  0  0  0
 16 18  1  0  0  0  0
 16 49  1  0  0  0  0
 16 50  1  0  0  0  0
 17 51  1  0  0  0  0
 18 52  1  0  0  0  0
 18 53  1  0  0  0  0
 19 54  1  0  0  0  0
 19 55  1  0  0  0  0
 19 56  1  0  0  0  0
 20 57  1  0  0  0  0
 21 22  1  0  0  0  0
 22 23  2  0  0  0  0
 22 24  1  0  0  0  0
 23 26  1  0  0  0  0
 23 59  1  0  0  0  0
 24 27  2  0  0  0  0
 24 60  1  0  0  0  0
 25 26  2  0  0  0  0
 25 27  1  0  0  0  0
 25 28  1  0  0  0  0
 26 61  1  0  0  0  0
 27 62  1  0  0  0  0
 28 29  2  0  0  0  0
 28 30  1  0  0  0  0
 29 31  1  0  0  0  0
 29 63  1  0  0  0  0
 30 32  2  0  0  0  0
 30 64  1  0  0  0  0
 31 33  2  0  0  0  0
 31 65  1  0  0  0  0
 32 33  1  0  0  0  0
 32 66  1  0  0  0  0
 33 67  1  0  0  0  0
M  END
> <PUBCHEM_COMPOUND_CID>
44324801

> <PUBCHEM_COMPOUND_CANONICALIZED>
1

> <PUBCHEM_CACTVS_COMPLEXITY>
570

> <PUBCHEM_CACTVS_HBOND_ACCEPTOR>
4

> <PUBCHEM_CACTVS_HBOND_DONOR>
1

> <PUBCHEM_CACTVS_ROTATABLE_BOND>
10

> <PUBCHEM_CACTVS_SUBSKEYS>
AAADcfB7oAAAAAAAAAAAAAAAAAAAAAAAAAA8YMEAAAAAAACx0AAAHgAQAAAADCjBngQ/kJfIEACoAzV3dACCgCk1AKAJ2KE4RNiIKLLA3dGEJQholgLIyacYiMCOwAAAAAAAAACAAQCAAAQAAAAAAAAAAA==

> <PUBCHEM_IUPAC_OPENEYE_NAME>
4-phenyl-N-[4-[propyl(5,6,7,8-tetrahydroquinazolin-6-yl)amino]butyl]benzamide

> <PUBCHEM_IUPAC_CAS_NAME>
4-phenyl-N-[4-[propyl(5,6,7,8-tetrahydroquinazolin-6-yl)amino]butyl]benzamide

> <PUBCHEM_IUPAC_NAME_MARKUP>
4-phenyl-<I>N</I>-[4-[propyl(5,6,7,8-tetrahydroquinazolin-6-yl)amino]butyl]benzamide

> <PUBCHEM_IUPAC_NAME>
4-phenyl-N-[4-[propyl(5,6,7,8-tetrahydroquinazolin-6-yl)amino]butyl]benzamide

> <PUBCHEM_IUPAC_SYSTEMATIC_NAME>
4-phenyl-N-[4-[propyl(5,6,7,8-tetrahydroquinazolin-6-yl)amino]butyl]benzamide

> <PUBCHEM_IUPAC_TRADITIONAL_NAME>
4-phenyl-N-[4-[propyl(5,6,7,8-tetrahydroquinazolin-6-yl)amino]butyl]benzamide

> <PUBCHEM_IUPAC_INCHI>
InChI=1S/C28H34N4O/c1-2-17-32(26-14-15-27-25(19-26)20-29-21-31-27)18-7-6-16-30-28(33)24-12-10-23(11-13-24)22-8-4-3-5-9-22/h3-5,8-13,20-21,26H,2,6-7,14-19H2,1H3,(H,30,33)

> <PUBCHEM_IUPAC_INCHIKEY>
UYAJEEPVQYLWDN-UHFFFAOYSA-N

> <PUBCHEM_XLOGP3_AA>
5.2

> <PUBCHEM_EXACT_MASS>
442.27326172

> <PUBCHEM_MOLECULAR_FORMULA>
C28H34N4O

> <PUBCHEM_MOLECULAR_WEIGHT>
442.6

> <PUBCHEM_OPENEYE_CAN_SMILES>
CCCN(CCCCNC(=O)C1=CC=C(C=C1)C2=CC=CC=C2)C3CCC4=NC=NC=C4C3

> <PUBCHEM_OPENEYE_ISO_SMILES>
CCCN(CCCCNC(=O)C1=CC=C(C=C1)C2=CC=CC=C2)C3CCC4=NC=NC=C4C3

> <PUBCHEM_CACTVS_TPSA>
58.1

> <PUBCHEM_MONOISOTOPIC_WEIGHT>
442.27326172

> <PUBCHEM_TOTAL_CHARGE>
0

> <PUBCHEM_HEAVY_ATOM_COUNT>
33

> <PUBCHEM_ATOM_DEF_STEREO_COUNT>
0

> <PUBCHEM_ATOM_UDEF_STEREO_COUNT>
1

> <PUBCHEM_BOND_DEF_STEREO_COUNT>
0

> <PUBCHEM_BOND_UDEF_STEREO_COUNT>
0

> <PUBCHEM_ISOTOPIC_ATOM_COUNT>
0

> <PUBCHEM_COMPONENT_COUNT>
1

> <PUBCHEM_CACTVS_TAUTO_COUNT>
-1

> <PUBCHEM_COORDINATE_TYPE>
1
5
255

> <PUBCHEM_BONDANNOTATIONS>
11  13  8
11  17  8
6  2  3
22  23  8
22  24  8
23  26  8
24  27  8
25  26  8
25  27  8
28  29  8
28  30  8
29  31  8
3  13  8
3  20  8
30  32  8
31  33  8
32  33  8
4  17  8
4  20  8

$$$$
