85469680
  -OEChem-09292322002D

 64 67  0     0  0  0  0  0  0999 V2000
    4.5981    6.4050    0.0000 Cl  0  0  0  0  0  0  0  0  0  0  0  0
    2.8660    7.4050    0.0000 Cl  0  0  0  0  0  0  0  0  0  0  0  0
    8.9282   -1.0950    0.0000 O   0  0  0  0  0  0  0  0  0  0  0  0
    9.7942    0.4050    0.0000 O   0  0  0  0  0  0  0  0  0  0  0  0
    8.0622   -5.5950    0.0000 O   0  0  0  0  0  0  0  0  0  0  0  0
    6.3301    3.4050    0.0000 N   0  0  0  0  0  0  0  0  0  0  0  0
    4.5981    4.4050    0.0000 N   0  0  0  0  0  0  0  0  0  0  0  0
    8.0622    0.4050    0.0000 N   0  0  0  0  0  0  0  0  0  0  0  0
    8.9282   -7.0950    0.0000 N   0  0  0  0  0  0  0  0  0  0  0  0
    6.3301    4.4050    0.0000 C   0  0  0  0  0  0  0  0  0  0  0  0
    5.4641    2.9050    0.0000 C   0  0  0  0  0  0  0  0  0  0  0  0
    5.4641    4.9050    0.0000 C   0  0  0  0  0  0  0  0  0  0  0  0
    4.5981    3.4050    0.0000 C   0  0  0  0  0  0  0  0  0  0  0  0
    7.1962    2.9050    0.0000 C   0  0  0  0  0  0  0  0  0  0  0  0
    7.1962    1.9050    0.0000 C   0  0  0  0  0  0  0  0  0  0  0  0
    3.7320    4.9050    0.0000 C   0  0  0  0  0  0  0  0  0  0  0  0
    8.0622    1.4050    0.0000 C   0  0  0  0  0  0  0  0  0  0  0  0
    3.7320    5.9050    0.0000 C   0  0  0  0  0  0  0  0  0  0  0  0
    2.8660    4.4050    0.0000 C   0  0  0  0  0  0  0  0  0  0  0  0
    2.8660    6.4050    0.0000 C   0  0  0  0  0  0  0  0  0  0  0  0
    2.0000    4.9050    0.0000 C   0  0  0  0  0  0  0  0  0  0  0  0
    2.0000    5.9050    0.0000 C   0  0  0  0  0  0  0  0  0  0  0  0
    8.9282   -0.0950    0.0000 C   0  0  0  0  0  0  0  0  0  0  0  0
    9.7942   -1.5950    0.0000 C   0  0  0  0  0  0  0  0  0  0  0  0
   10.6603   -3.0950    0.0000 C   0  0  0  0  0  0  0  0  0  0  0  0
    9.7942   -2.5950    0.0000 C   0  0  0  0  0  0  0  0  0  0  0  0
   10.6603   -4.0950    0.0000 C   0  0  0  0  0  0  0  0  0  0  0  0
   10.6603   -1.0950    0.0000 C   0  0  0  0  0  0  0  0  0  0  0  0
   11.5263   -2.5950    0.0000 C   0  0  0  0  0  0  0  0  0  0  0  0
   11.5263   -1.5950    0.0000 C   0  0  0  0  0  0  0  0  0  0  0  0
    9.7942   -4.5950    0.0000 C   0  0  0  0  0  0  0  0  0  0  0  0
   11.5263   -4.5950    0.0000 C   0  0  0  0  0  0  0  0  0  0  0  0
    9.7942   -5.5950    0.0000 C   0  0  0  0  0  0  0  0  0  0  0  0
   11.5263   -5.5950    0.0000 C   0  0  0  0  0  0  0  0  0  0  0  0
   10.6603   -6.0950    0.0000 C   0  0  0  0  0  0  0  0  0  0  0  0
    8.9282   -6.0950    0.0000 C   0  0  0  0  0  0  0  0  0  0  0  0
    6.9407    4.2973    0.0000 H   0  0  0  0  0  0  0  0  0  0  0  0
    6.5422    4.9876    0.0000 H   0  0  0  0  0  0  0  0  0  0  0  0
    5.0656    2.4300    0.0000 H   0  0  0  0  0  0  0  0  0  0  0  0
    5.8626    2.4300    0.0000 H   0  0  0  0  0  0  0  0  0  0  0  0
    5.8626    5.3800    0.0000 H   0  0  0  0  0  0  0  0  0  0  0  0
    5.0656    5.3800    0.0000 H   0  0  0  0  0  0  0  0  0  0  0  0
    3.9875    3.5127    0.0000 H   0  0  0  0  0  0  0  0  0  0  0  0
    4.3860    2.8224    0.0000 H   0  0  0  0  0  0  0  0  0  0  0  0
    7.8067    2.7973    0.0000 H   0  0  0  0  0  0  0  0  0  0  0  0
    7.4082    3.4876    0.0000 H   0  0  0  0  0  0  0  0  0  0  0  0
    6.5856    2.0127    0.0000 H   0  0  0  0  0  0  0  0  0  0  0  0
    6.9841    1.3224    0.0000 H   0  0  0  0  0  0  0  0  0  0  0  0
    8.6728    1.2973    0.0000 H   0  0  0  0  0  0  0  0  0  0  0  0
    8.2742    1.9876    0.0000 H   0  0  0  0  0  0  0  0  0  0  0  0
    2.8660    3.7850    0.0000 H   0  0  0  0  0  0  0  0  0  0  0  0
    7.5252    0.0950    0.0000 H   0  0  0  0  0  0  0  0  0  0  0  0
    1.4631    4.5950    0.0000 H   0  0  0  0  0  0  0  0  0  0  0  0
    1.4631    6.2150    0.0000 H   0  0  0  0  0  0  0  0  0  0  0  0
    9.2573   -2.9050    0.0000 H   0  0  0  0  0  0  0  0  0  0  0  0
   10.6603   -0.4750    0.0000 H   0  0  0  0  0  0  0  0  0  0  0  0
   12.0632   -2.9050    0.0000 H   0  0  0  0  0  0  0  0  0  0  0  0
   12.0632   -1.2850    0.0000 H   0  0  0  0  0  0  0  0  0  0  0  0
    9.2573   -4.2850    0.0000 H   0  0  0  0  0  0  0  0  0  0  0  0
   12.0632   -4.2850    0.0000 H   0  0  0  0  0  0  0  0  0  0  0  0
   12.0632   -5.9050    0.0000 H   0  0  0  0  0  0  0  0  0  0  0  0
   10.6603   -6.7150    0.0000 H   0  0  0  0  0  0  0  0  0  0  0  0
    8.3913   -7.4050    0.0000 H   0  0  0  0  0  0  0  0  0  0  0  0
    9.4651   -7.4050    0.0000 H   0  0  0  0  0  0  0  0  0  0  0  0
  1 18  1  0  0  0  0
  2 20  1  0  0  0  0
  3 23  1  0  0  0  0
  3 24  1  0  0  0  0
  4 23  2  0  0  0  0
  5 36  2  0  0  0  0
  6 10  1  0  0  0  0
  6 11  1  0  0  0  0
  6 14  1  0  0  0  0
  7 12  1  0  0  0  0
  7 13  1  0  0  0  0
  7 16  1  0  0  0  0
  8 17  1  0  0  0  0
  8 23  1  0  0  0  0
  8 52  1  0  0  0  0
  9 36  1  0  0  0  0
  9 63  1  0  0  0  0
  9 64  1  0  0  0  0
 10 12  1  0  0  0  0
 10 37  1  0  0  0  0
 10 38  1  0  0  0  0
 11 13  1  0  0  0  0
 11 39  1  0  0  0  0
 11 40  1  0  0  0  0
 12 41  1  0  0  0  0
 12 42  1  0  0  0  0
 13 43  1  0  0  0  0
 13 44  1  0  0  0  0
 14 15  1  0  0  0  0
 14 45  1  0  0  0  0
 14 46  1  0  0  0  0
 15 17  1  0  0  0  0
 15 47  1  0  0  0  0
 15 48  1  0  0  0  0
 16 18  2  0  0  0  0
 16 19  1  0  0  0  0
 17 49  1  0  0  0  0
 17 50  1  0  0  0  0
 18 20  1  0  0  0  0
 19 21  2  0  0  0  0
 19 51  1  0  0  0  0
 20 22  2  0  0  0  0
 21 22  1  0  0  0  0
 21 53  1  0  0  0  0
 22 54  1  0  0  0  0
 24 26  1  0  0  0  0
 24 28  2  0  0  0  0
 25 26  2  0  0  0  0
 25 27  1  0  0  0  0
 25 29  1  0  0  0  0
 26 55  1  0  0  0  0
 27 31  2  0  0  0  0
 27 32  1  0  0  0  0
 28 30  1  0  0  0  0
 28 56  1  0  0  0  0
 29 30  2  0  0  0  0
 29 57  1  0  0  0  0
 30 58  1  0  0  0  0
 31 33  1  0  0  0  0
 31 59  1  0  0  0  0
 32 34  2  0  0  0  0
 32 60  1  0  0  0  0
 33 35  2  0  0  0  0
 33 36  1  0  0  0  0
 34 35  1  0  0  0  0
 34 61  1  0  0  0  0
 35 62  1  0  0  0  0
M  END
> <PUBCHEM_COMPOUND_CID>
85469680

> <PUBCHEM_COMPOUND_CANONICALIZED>
1

> <PUBCHEM_CACTVS_COMPLEXITY>
721

> <PUBCHEM_CACTVS_HBOND_ACCEPTOR>
5

> <PUBCHEM_CACTVS_HBOND_DONOR>
2

> <PUBCHEM_CACTVS_ROTATABLE_BOND>
9

> <PUBCHEM_CACTVS_SUBSKEYS>
AAADceB7sAAGAAAAAAAAAAAAAAAAAAAAAAA8YMEAAAAAAAABUAAAHgIQAAAADA7BmCQwzoPABACIAiVSWACCCAAlJwAIisEObskMZjLF95vcMyhk1hHI6YeYyPCOgAADAAIAABQAAAYABAAAKAAAAAAAAA==

> <PUBCHEM_IUPAC_OPENEYE_NAME>
[3-(3-carbamoylphenyl)phenyl] N-[3-[4-(2,3-dichlorophenyl)piperazin-1-yl]propyl]carbamate

> <PUBCHEM_IUPAC_CAS_NAME>
N-[3-[4-(2,3-dichlorophenyl)-1-piperazinyl]propyl]carbamic acid [3-(3-carbamoylphenyl)phenyl] ester

> <PUBCHEM_IUPAC_NAME_MARKUP>
[3-(3-carbamoylphenyl)phenyl] <I>N</I>-[3-[4-(2,3-dichlorophenyl)piperazin-1-yl]propyl]carbamate

> <PUBCHEM_IUPAC_NAME>
[3-(3-carbamoylphenyl)phenyl] N-[3-[4-(2,3-dichlorophenyl)piperazin-1-yl]propyl]carbamate

> <PUBCHEM_IUPAC_SYSTEMATIC_NAME>
[3-(3-aminocarbonylphenyl)phenyl] N-[3-[4-[2,3-bis(chloranyl)phenyl]piperazin-1-yl]propyl]carbamate

> <PUBCHEM_IUPAC_TRADITIONAL_NAME>
N-[3-[4-(2,3-dichlorophenyl)piperazino]propyl]carbamic acid [3-(3-carbamoylphenyl)phenyl] ester

> <PUBCHEM_IUPAC_INCHI>
InChI=1S/C27H28Cl2N4O3/c28-23-9-3-10-24(25(23)29)33-15-13-32(14-16-33)12-4-11-31-27(35)36-22-8-2-6-20(18-22)19-5-1-7-21(17-19)26(30)34/h1-3,5-10,17-18H,4,11-16H2,(H2,30,34)(H,31,35)

> <PUBCHEM_IUPAC_INCHIKEY>
CDXLFYUUESQKHV-UHFFFAOYSA-N

> <PUBCHEM_XLOGP3_AA>
5.2

> <PUBCHEM_EXACT_MASS>
526.1538462

> <PUBCHEM_MOLECULAR_FORMULA>
C27H28Cl2N4O3

> <PUBCHEM_MOLECULAR_WEIGHT>
527.4

> <PUBCHEM_OPENEYE_CAN_SMILES>
C1CN(CCN1CCCNC(=O)OC2=CC=CC(=C2)C3=CC(=CC=C3)C(=O)N)C4=C(C(=CC=C4)Cl)Cl

> <PUBCHEM_OPENEYE_ISO_SMILES>
C1CN(CCN1CCCNC(=O)OC2=CC=CC(=C2)C3=CC(=CC=C3)C(=O)N)C4=C(C(=CC=C4)Cl)Cl

> <PUBCHEM_CACTVS_TPSA>
87.9

> <PUBCHEM_MONOISOTOPIC_WEIGHT>
526.1538462

> <PUBCHEM_TOTAL_CHARGE>
0

> <PUBCHEM_HEAVY_ATOM_COUNT>
36

> <PUBCHEM_ATOM_DEF_STEREO_COUNT>
0

> <PUBCHEM_ATOM_UDEF_STEREO_COUNT>
0

> <PUBCHEM_BOND_DEF_STEREO_COUNT>
0

> <PUBCHEM_BOND_UDEF_STEREO_COUNT>
0

> <PUBCHEM_ISOTOPIC_ATOM_COUNT>
0

> <PUBCHEM_COMPONENT_COUNT>
1

> <PUBCHEM_CACTVS_TAUTO_COUNT>
-1

> <PUBCHEM_COORDINATE_TYPE>
1
5
255

> <PUBCHEM_BONDANNOTATIONS>
16  18  8
16  19  8
18  20  8
19  21  8
20  22  8
21  22  8
24  26  8
24  28  8
25  26  8
25  29  8
27  31  8
27  32  8
28  30  8
29  30  8
31  33  8
32  34  8
33  35  8
34  35  8

$$$$
