44579032
  -OEChem-09292322502D

 65 69  0     1  0  0  0  0  0999 V2000
    7.1380   -0.5059    0.0000 O   0  0  0  0  0  0  0  0  0  0  0  0
    5.4060   -0.4859    0.0000 O   0  0  0  0  0  0  0  0  0  0  0  0
    4.5806    3.0239    0.0000 O   0  0  0  0  0  0  0  0  0  0  0  0
    6.3125    3.0039    0.0000 O   0  0  0  0  0  0  0  0  0  0  0  0
   10.6106   -3.5374    0.0000 N   0  0  3  0  0  0  0  0  0  0  0  0
    5.4292    1.5140    0.0000 N   0  0  0  0  0  0  0  0  0  0  0  0
    9.7524   -3.0405    0.0000 C   0  0  1  0  0  0  0  0  0  0  0  0
    9.7524   -2.0405    0.0000 C   0  0  0  0  0  0  0  0  0  0  0  0
    8.8864   -3.5405    0.0000 C   0  0  0  0  0  0  0  0  0  0  0  0
   11.4761   -3.0532    0.0000 C   0  0  0  0  0  0  0  0  0  0  0  0
   10.6624   -1.5336    0.0000 C   0  0  0  0  0  0  0  0  0  0  0  0
   11.5017   -2.0619    0.0000 C   0  0  0  0  0  0  0  0  0  0  0  0
    8.8864   -1.5405    0.0000 C   0  0  0  0  0  0  0  0  0  0  0  0
    8.0204   -3.0405    0.0000 C   0  0  0  0  0  0  0  0  0  0  0  0
   10.6032   -4.5374    0.0000 C   0  0  0  0  0  0  0  0  0  0  0  0
    8.0204   -2.0405    0.0000 C   0  0  0  0  0  0  0  0  0  0  0  0
   10.6704   -0.4920    0.0000 C   0  0  0  0  0  0  0  0  0  0  0  0
    8.8703   -0.4990    0.0000 C   0  0  0  0  0  0  0  0  0  0  0  0
   11.4655   -5.0438    0.0000 C   0  0  0  0  0  0  0  0  0  0  0  0
    7.1264   -3.5751    0.0000 C   0  0  0  0  0  0  0  0  0  0  0  0
    7.1264   -1.5058    0.0000 C   0  0  0  0  0  0  0  0  0  0  0  0
    9.7684    0.0288    0.0000 C   0  0  0  0  0  0  0  0  0  0  0  0
    6.2204   -3.0613    0.0000 C   0  0  0  0  0  0  0  0  0  0  0  0
    6.2204   -2.0197    0.0000 C   0  0  0  0  0  0  0  0  0  0  0  0
   11.4581   -6.0438    0.0000 C   0  0  0  0  0  0  0  0  0  0  0  0
    6.2778    0.0041    0.0000 C   0  0  0  0  0  0  0  0  0  0  0  0
    6.2894    1.0040    0.0000 C   0  0  0  0  0  0  0  0  0  0  0  0
    5.4407    2.5139    0.0000 C   0  0  0  0  0  0  0  0  0  0  0  0
    4.5921    4.0239    0.0000 C   0  0  0  0  0  0  0  0  0  0  0  0
    3.7319    4.5338    0.0000 C   0  0  0  0  0  0  0  0  0  0  0  0
    2.8602    4.0439    0.0000 C   0  0  0  0  0  0  0  0  0  0  0  0
    3.7435    5.5338    0.0000 C   0  0  0  0  0  0  0  0  0  0  0  0
    2.0000    4.5539    0.0000 C   0  0  0  0  0  0  0  0  0  0  0  0
    2.8833    6.0438    0.0000 C   0  0  0  0  0  0  0  0  0  0  0  0
    2.0116    5.5538    0.0000 C   0  0  0  0  0  0  0  0  0  0  0  0
    9.7519   -3.8905    0.0000 H   0  0  0  0  0  0  0  0  0  0  0  0
    8.4879   -4.0154    0.0000 H   0  0  0  0  0  0  0  0  0  0  0  0
    9.2849   -4.0154    0.0000 H   0  0  0  0  0  0  0  0  0  0  0  0
   11.6779   -3.6395    0.0000 H   0  0  0  0  0  0  0  0  0  0  0  0
   12.0889   -2.9589    0.0000 H   0  0  0  0  0  0  0  0  0  0  0  0
   12.1088   -2.1878    0.0000 H   0  0  0  0  0  0  0  0  0  0  0  0
   11.7335   -1.4868    0.0000 H   0  0  0  0  0  0  0  0  0  0  0  0
    9.9935   -4.4252    0.0000 H   0  0  0  0  0  0  0  0  0  0  0  0
   10.3869   -5.1184    0.0000 H   0  0  0  0  0  0  0  0  0  0  0  0
   11.2086   -0.1841    0.0000 H   0  0  0  0  0  0  0  0  0  0  0  0
    8.3298   -0.1952    0.0000 H   0  0  0  0  0  0  0  0  0  0  0  0
   12.0753   -5.1560    0.0000 H   0  0  0  0  0  0  0  0  0  0  0  0
   11.6819   -4.4628    0.0000 H   0  0  0  0  0  0  0  0  0  0  0  0
    7.1336   -4.1951    0.0000 H   0  0  0  0  0  0  0  0  0  0  0  0
    9.7660    0.6488    0.0000 H   0  0  0  0  0  0  0  0  0  0  0  0
    5.6846   -1.7076    0.0000 H   0  0  0  0  0  0  0  0  0  0  0  0
    5.6846   -3.3734    0.0000 H   0  0  0  0  0  0  0  0  0  0  0  0
   10.8382   -6.0392    0.0000 H   0  0  0  0  0  0  0  0  0  0  0  0
   11.4535   -6.6637    0.0000 H   0  0  0  0  0  0  0  0  0  0  0  0
   12.0781   -6.0483    0.0000 H   0  0  0  0  0  0  0  0  0  0  0  0
    6.8987    0.8893    0.0000 H   0  0  0  0  0  0  0  0  0  0  0  0
    6.5081    1.5842    0.0000 H   0  0  0  0  0  0  0  0  0  0  0  0
    4.8887    1.2102    0.0000 H   0  0  0  0  0  0  0  0  0  0  0  0
    5.2014    3.9091    0.0000 H   0  0  0  0  0  0  0  0  0  0  0  0
    4.8109    4.6040    0.0000 H   0  0  0  0  0  0  0  0  0  0  0  0
    2.8530    3.4239    0.0000 H   0  0  0  0  0  0  0  0  0  0  0  0
    4.2840    5.8375    0.0000 H   0  0  0  0  0  0  0  0  0  0  0  0
    1.4595    4.2501    0.0000 H   0  0  0  0  0  0  0  0  0  0  0  0
    2.8905    6.6637    0.0000 H   0  0  0  0  0  0  0  0  0  0  0  0
    1.4782    5.8700    0.0000 H   0  0  0  0  0  0  0  0  0  0  0  0
  1 21  1  0  0  0  0
  1 26  1  0  0  0  0
  2 26  2  0  0  0  0
  3 28  1  0  0  0  0
  3 29  1  0  0  0  0
  4 28  2  0  0  0  0
  5  7  1  0  0  0  0
  5 10  1  0  0  0  0
  5 15  1  0  0  0  0
  6 27  1  0  0  0  0
  6 28  1  0  0  0  0
  6 58  1  0  0  0  0
  7  8  1  0  0  0  0
  7  9  1  0  0  0  0
  7 36  1  1  0  0  0
  8 11  2  0  0  0  0
  8 13  1  0  0  0  0
  9 14  1  0  0  0  0
  9 37  1  0  0  0  0
  9 38  1  0  0  0  0
 10 12  1  0  0  0  0
 10 39  1  0  0  0  0
 10 40  1  0  0  0  0
 11 12  1  0  0  0  0
 11 17  1  0  0  0  0
 12 41  1  0  0  0  0
 12 42  1  0  0  0  0
 13 16  1  0  0  0  0
 13 18  2  0  0  0  0
 14 16  2  0  0  0  0
 14 20  1  0  0  0  0
 15 19  1  0  0  0  0
 15 43  1  0  0  0  0
 15 44  1  0  0  0  0
 16 21  1  0  0  0  0
 17 22  2  0  0  0  0
 17 45  1  0  0  0  0
 18 22  1  0  0  0  0
 18 46  1  0  0  0  0
 19 25  1  0  0  0  0
 19 47  1  0  0  0  0
 19 48  1  0  0  0  0
 20 23  2  0  0  0  0
 20 49  1  0  0  0  0
 21 24  2  0  0  0  0
 22 50  1  0  0  0  0
 23 24  1  0  0  0  0
 23 52  1  0  0  0  0
 24 51  1  0  0  0  0
 25 53  1  0  0  0  0
 25 54  1  0  0  0  0
 25 55  1  0  0  0  0
 26 27  1  0  0  0  0
 27 56  1  0  0  0  0
 27 57  1  0  0  0  0
 29 30  1  0  0  0  0
 29 59  1  0  0  0  0
 29 60  1  0  0  0  0
 30 31  2  0  0  0  0
 30 32  1  0  0  0  0
 31 33  1  0  0  0  0
 31 61  1  0  0  0  0
 32 34  2  0  0  0  0
 32 62  1  0  0  0  0
 33 35  2  0  0  0  0
 33 63  1  0  0  0  0
 34 35  1  0  0  0  0
 34 64  1  0  0  0  0
 35 65  1  0  0  0  0
M  END
> <PUBCHEM_COMPOUND_CID>
44579032

> <PUBCHEM_COMPOUND_CANONICALIZED>
1

> <PUBCHEM_CACTVS_COMPLEXITY>
724

> <PUBCHEM_CACTVS_HBOND_ACCEPTOR>
5

> <PUBCHEM_CACTVS_HBOND_DONOR>
1

> <PUBCHEM_CACTVS_ROTATABLE_BOND>
9

> <PUBCHEM_CACTVS_SUBSKEYS>
AAADceB7OAAAAAAAAAAAAAAAAAAAAAAAAAA8YMGCAAAAAADxUAAAHgAQAAAADCzhmAYyDoPABACIAiDSGACCCAAgIAAIiICODIkOJiKEsTuPOijkxhGYqAeQ0PMOgAADAAAYAACQAAaAADQAAAAAAAAAAA==

> <PUBCHEM_IUPAC_OPENEYE_NAME>
[(6aR)-6-propyl-5,6,6a,7-tetrahydro-4H-dibenzo[de,g]quinolin-11-yl] 2-(benzyloxycarbonylamino)acetate

> <PUBCHEM_IUPAC_CAS_NAME>
2-(phenylmethoxycarbonylamino)acetic acid [(6aR)-6-propyl-5,6,6a,7-tetrahydro-4H-dibenzo[de,g]quinolin-11-yl] ester

> <PUBCHEM_IUPAC_NAME_MARKUP>
[(6<I>a</I><I>R</I>)-6-propyl-5,6,6<I>a</I>,7-tetrahydro-4<I>H</I>-dibenzo[de,g]quinolin-11-yl] 2-(phenylmethoxycarbonylamino)acetate

> <PUBCHEM_IUPAC_NAME>
[(6aR)-6-propyl-5,6,6a,7-tetrahydro-4H-dibenzo[de,g]quinolin-11-yl] 2-(phenylmethoxycarbonylamino)acetate

> <PUBCHEM_IUPAC_SYSTEMATIC_NAME>
[(6aR)-6-propyl-5,6,6a,7-tetrahydro-4H-dibenzo[de,g]quinolin-11-yl] 2-(phenylmethoxycarbonylamino)ethanoate

> <PUBCHEM_IUPAC_TRADITIONAL_NAME>
2-(benzyloxycarbonylamino)acetic acid [(6aR)-6-propyl-5,6,6a,7-tetrahydro-4H-dibenzo[de,g]quinolin-11-yl] ester

> <PUBCHEM_IUPAC_INCHI>
InChI=1S/C29H30N2O4/c1-2-15-31-16-14-21-10-6-12-23-27(21)24(31)17-22-11-7-13-25(28(22)23)35-26(32)18-30-29(33)34-19-20-8-4-3-5-9-20/h3-13,24H,2,14-19H2,1H3,(H,30,33)/t24-/m1/s1

> <PUBCHEM_IUPAC_INCHIKEY>
XDMMFCGVZPFDKE-XMMPIXPASA-N

> <PUBCHEM_XLOGP3_AA>
5.4

> <PUBCHEM_EXACT_MASS>
470.22055744

> <PUBCHEM_MOLECULAR_FORMULA>
C29H30N2O4

> <PUBCHEM_MOLECULAR_WEIGHT>
470.6

> <PUBCHEM_OPENEYE_CAN_SMILES>
CCCN1CCC2=C3C1CC4=C(C3=CC=C2)C(=CC=C4)OC(=O)CNC(=O)OCC5=CC=CC=C5

> <PUBCHEM_OPENEYE_ISO_SMILES>
CCCN1CCC2=C3[C@H]1CC4=C(C3=CC=C2)C(=CC=C4)OC(=O)CNC(=O)OCC5=CC=CC=C5

> <PUBCHEM_CACTVS_TPSA>
67.9

> <PUBCHEM_MONOISOTOPIC_WEIGHT>
470.22055744

> <PUBCHEM_TOTAL_CHARGE>
0

> <PUBCHEM_HEAVY_ATOM_COUNT>
35

> <PUBCHEM_ATOM_DEF_STEREO_COUNT>
1

> <PUBCHEM_ATOM_UDEF_STEREO_COUNT>
0

> <PUBCHEM_BOND_DEF_STEREO_COUNT>
0

> <PUBCHEM_BOND_UDEF_STEREO_COUNT>
0

> <PUBCHEM_ISOTOPIC_ATOM_COUNT>
0

> <PUBCHEM_COMPONENT_COUNT>
1

> <PUBCHEM_CACTVS_TAUTO_COUNT>
-1

> <PUBCHEM_COORDINATE_TYPE>
1
5
255

> <PUBCHEM_BONDANNOTATIONS>
11  17  8
13  18  8
14  16  8
14  20  8
16  21  8
17  22  8
18  22  8
20  23  8
21  24  8
23  24  8
30  31  8
30  32  8
31  33  8
32  34  8
33  35  8
34  35  8
7  36  5
8  11  8
8  13  8

$$$$
