137643395
  -OEChem-09292322062D

 60 64  0     1  0  0  0  0  0999 V2000
   13.1973   -1.0083    0.0000 S   0  0  0  0  0  0  0  0  0  0  0  0
    2.9176    2.8592    0.0000 O   0  0  0  0  0  0  0  0  0  0  0  0
    4.6660   -1.1754    0.0000 O   0  0  0  0  0  0  0  0  0  0  0  0
    8.1301   -0.1754    0.0000 N   0  0  0  0  0  0  0  0  0  0  0  0
    9.8622   -1.1754    0.0000 N   0  0  0  0  0  0  0  0  0  0  0  0
    3.8000    0.3246    0.0000 N   0  0  0  0  0  0  0  0  0  0  0  0
    4.6660    1.8246    0.0000 N   0  0  0  0  0  0  0  0  0  0  0  0
    8.1301   -1.1754    0.0000 C   0  0  0  0  0  0  0  0  0  0  0  0
    8.9962    0.3246    0.0000 C   0  0  0  0  0  0  0  0  0  0  0  0
    8.9962   -1.6754    0.0000 C   0  0  0  0  0  0  0  0  0  0  0  0
    9.8622   -0.1754    0.0000 C   0  0  0  0  0  0  0  0  0  0  0  0
    7.2641    0.3246    0.0000 C   0  0  0  0  0  0  0  0  0  0  0  0
    6.3981   -0.1754    0.0000 C   0  0  0  0  0  0  0  0  0  0  0  0
   10.7282   -1.6754    0.0000 C   0  0  0  0  0  0  0  0  0  0  0  0
    5.5321    0.3246    0.0000 C   0  0  0  0  0  0  0  0  0  0  0  0
    2.9061   -0.2101    0.0000 C   0  0  0  0  0  0  0  0  0  0  0  0
    2.9061    1.8593    0.0000 C   0  0  3  0  0  0  0  0  0  0  0  0
    2.0000    0.3038    0.0000 C   0  0  0  0  0  0  0  0  0  0  0  0
    2.0000    1.3454    0.0000 C   0  0  0  0  0  0  0  0  0  0  0  0
    3.8000    1.3246    0.0000 C   0  0  0  0  0  0  0  0  0  0  0  0
   11.5942   -1.1754    0.0000 C   0  0  0  0  0  0  0  0  0  0  0  0
    4.6660   -0.1754    0.0000 C   0  0  0  0  0  0  0  0  0  0  0  0
    5.5321    1.3246    0.0000 C   0  0  0  0  0  0  0  0  0  0  0  0
   11.8034   -0.2036    0.0000 C   0  0  0  0  0  0  0  0  0  0  0  0
   12.4603   -1.6754    0.0000 C   0  0  0  0  0  0  0  0  0  0  0  0
   10.7282   -2.6754    0.0000 C   0  0  0  0  0  0  0  0  0  0  0  0
   12.7922   -0.1005    0.0000 C   0  0  0  0  0  0  0  0  0  0  0  0
   12.4603   -2.6754    0.0000 C   0  0  0  0  0  0  0  0  0  0  0  0
   11.5942   -3.1754    0.0000 C   0  0  0  0  0  0  0  0  0  0  0  0
    6.3981    1.8246    0.0000 C   0  0  0  0  0  0  0  0  0  0  0  0
    7.5196   -1.0677    0.0000 H   0  0  0  0  0  0  0  0  0  0  0  0
    7.9181   -1.7580    0.0000 H   0  0  0  0  0  0  0  0  0  0  0  0
    9.3947    0.7996    0.0000 H   0  0  0  0  0  0  0  0  0  0  0  0
    8.5976    0.7996    0.0000 H   0  0  0  0  0  0  0  0  0  0  0  0
    8.5976   -2.1503    0.0000 H   0  0  0  0  0  0  0  0  0  0  0  0
    9.3947   -2.1503    0.0000 H   0  0  0  0  0  0  0  0  0  0  0  0
   10.4728   -0.2831    0.0000 H   0  0  0  0  0  0  0  0  0  0  0  0
   10.0742    0.4072    0.0000 H   0  0  0  0  0  0  0  0  0  0  0  0
    7.6626    0.7996    0.0000 H   0  0  0  0  0  0  0  0  0  0  0  0
    6.8656    0.7996    0.0000 H   0  0  0  0  0  0  0  0  0  0  0  0
    5.9996   -0.6503    0.0000 H   0  0  0  0  0  0  0  0  0  0  0  0
    6.7966   -0.6503    0.0000 H   0  0  0  0  0  0  0  0  0  0  0  0
    2.5124   -0.6891    0.0000 H   0  0  0  0  0  0  0  0  0  0  0  0
    3.3107   -0.6798    0.0000 H   0  0  0  0  0  0  0  0  0  0  0  0
    2.3721    2.1744    0.0000 H   0  0  0  0  0  0  0  0  0  0  0  0
    1.3891    0.4099    0.0000 H   0  0  0  0  0  0  0  0  0  0  0  0
    1.7909   -0.2799    0.0000 H   0  0  0  0  0  0  0  0  0  0  0  0
    1.7909    1.9291    0.0000 H   0  0  0  0  0  0  0  0  0  0  0  0
    1.3891    1.2393    0.0000 H   0  0  0  0  0  0  0  0  0  0  0  0
   11.8043    0.4164    0.0000 H   0  0  0  0  0  0  0  0  0  0  0  0
   11.1870   -0.1375    0.0000 H   0  0  0  0  0  0  0  0  0  0  0  0
   10.1913   -2.9854    0.0000 H   0  0  0  0  0  0  0  0  0  0  0  0
   13.3818    0.0912    0.0000 H   0  0  0  0  0  0  0  0  0  0  0  0
   12.6634    0.5060    0.0000 H   0  0  0  0  0  0  0  0  0  0  0  0
   12.9972   -2.9854    0.0000 H   0  0  0  0  0  0  0  0  0  0  0  0
   11.5942   -3.7954    0.0000 H   0  0  0  0  0  0  0  0  0  0  0  0
    6.7081    1.2877    0.0000 H   0  0  0  0  0  0  0  0  0  0  0  0
    6.9350    2.1346    0.0000 H   0  0  0  0  0  0  0  0  0  0  0  0
    6.0881    2.3615    0.0000 H   0  0  0  0  0  0  0  0  0  0  0  0
    2.3843    3.1754    0.0000 H   0  0  0  0  0  0  0  0  0  0  0  0
  1 25  1  0  0  0  0
  1 27  1  0  0  0  0
  2 17  1  0  0  0  0
  2 60  1  0  0  0  0
  3 22  2  0  0  0  0
  4  8  1  0  0  0  0
  4  9  1  0  0  0  0
  4 12  1  0  0  0  0
  5 10  1  0  0  0  0
  5 11  1  0  0  0  0
  5 14  1  0  0  0  0
  6 16  1  0  0  0  0
  6 20  1  0  0  0  0
  6 22  1  0  0  0  0
  7 20  2  0  0  0  0
  7 23  1  0  0  0  0
  8 10  1  0  0  0  0
  8 31  1  0  0  0  0
  8 32  1  0  0  0  0
  9 11  1  0  0  0  0
  9 33  1  0  0  0  0
  9 34  1  0  0  0  0
 10 35  1  0  0  0  0
 10 36  1  0  0  0  0
 11 37  1  0  0  0  0
 11 38  1  0  0  0  0
 12 13  1  0  0  0  0
 12 39  1  0  0  0  0
 12 40  1  0  0  0  0
 13 15  1  0  0  0  0
 13 41  1  0  0  0  0
 13 42  1  0  0  0  0
 14 21  2  0  0  0  0
 14 26  1  0  0  0  0
 15 22  1  0  0  0  0
 15 23  2  0  0  0  0
 16 18  1  0  0  0  0
 16 43  1  0  0  0  0
 16 44  1  0  0  0  0
 17 19  1  0  0  0  0
 17 20  1  0  0  0  0
 17 45  1  0  0  0  0
 18 19  1  0  0  0  0
 18 46  1  0  0  0  0
 18 47  1  0  0  0  0
 19 48  1  0  0  0  0
 19 49  1  0  0  0  0
 21 24  1  0  0  0  0
 21 25  1  0  0  0  0
 23 30  1  0  0  0  0
 24 27  1  0  0  0  0
 24 50  1  0  0  0  0
 24 51  1  0  0  0  0
 25 28  2  0  0  0  0
 26 29  2  0  0  0  0
 26 52  1  0  0  0  0
 27 53  1  0  0  0  0
 27 54  1  0  0  0  0
 28 29  1  0  0  0  0
 28 55  1  0  0  0  0
 29 56  1  0  0  0  0
 30 57  1  0  0  0  0
 30 58  1  0  0  0  0
 30 59  1  0  0  0  0
M  END
> <PUBCHEM_COMPOUND_CID>
137643395

> <PUBCHEM_COMPOUND_CANONICALIZED>
1

> <PUBCHEM_CACTVS_COMPLEXITY>
731

> <PUBCHEM_CACTVS_HBOND_ACCEPTOR>
6

> <PUBCHEM_CACTVS_HBOND_DONOR>
1

> <PUBCHEM_CACTVS_ROTATABLE_BOND>
4

> <PUBCHEM_CACTVS_SUBSKEYS>
AAADceB7sABAAAAAAAAAAAAAAAAAASAAAAA8WIEAAAAAAEiBAAAAHgQACAAADBzl2AazwYMAAgioAidydASCAAEhChAJiBk4ZMgKcDLgmZGUYAxkhgD4yUc0gIAOAAAAACAGAAAAAAAAQAwAAAAAAAAAAA==

> <PUBCHEM_IUPAC_OPENEYE_NAME>
3-[2-[4-(2,3-dihydrobenzothiophen-4-yl)piperazin-1-yl]ethyl]-9-hydroxy-2-methyl-6,7,8,9-tetrahydropyrido[1,2-a]pyrimidin-4-one

> <PUBCHEM_IUPAC_CAS_NAME>
3-[2-[4-(2,3-dihydro-1-benzothiophen-4-yl)-1-piperazinyl]ethyl]-9-hydroxy-2-methyl-6,7,8,9-tetrahydropyrido[1,2-a]pyrimidin-4-one

> <PUBCHEM_IUPAC_NAME_MARKUP>
3-[2-[4-(2,3-dihydro-1-benzothiophen-4-yl)piperazin-1-yl]ethyl]-9-hydroxy-2-methyl-6,7,8,9-tetrahydropyrido[1,2-a]pyrimidin-4-one

> <PUBCHEM_IUPAC_NAME>
3-[2-[4-(2,3-dihydro-1-benzothiophen-4-yl)piperazin-1-yl]ethyl]-9-hydroxy-2-methyl-6,7,8,9-tetrahydropyrido[1,2-a]pyrimidin-4-one

> <PUBCHEM_IUPAC_SYSTEMATIC_NAME>
3-[2-[4-(2,3-dihydro-1-benzothiophen-4-yl)piperazin-1-yl]ethyl]-2-methyl-9-oxidanyl-6,7,8,9-tetrahydropyrido[1,2-a]pyrimidin-4-one

> <PUBCHEM_IUPAC_TRADITIONAL_NAME>
3-[2-[4-(2,3-dihydrobenzothiophen-4-yl)piperazino]ethyl]-9-hydroxy-2-methyl-6,7,8,9-tetrahydropyrido[1,2-a]pyrimidin-4-one

> <PUBCHEM_IUPAC_INCHI>
InChI=1S/C23H30N4O2S/c1-16-17(23(29)27-9-3-5-20(28)22(27)24-16)7-10-25-11-13-26(14-12-25)19-4-2-6-21-18(19)8-15-30-21/h2,4,6,20,28H,3,5,7-15H2,1H3

> <PUBCHEM_IUPAC_INCHIKEY>
NFONCWBZHQCTIA-UHFFFAOYSA-N

> <PUBCHEM_XLOGP3_AA>
2.1

> <PUBCHEM_EXACT_MASS>
426.20894739

> <PUBCHEM_MOLECULAR_FORMULA>
C23H30N4O2S

> <PUBCHEM_MOLECULAR_WEIGHT>
426.6

> <PUBCHEM_OPENEYE_CAN_SMILES>
CC1=C(C(=O)N2CCCC(C2=N1)O)CCN3CCN(CC3)C4=C5CCSC5=CC=C4

> <PUBCHEM_OPENEYE_ISO_SMILES>
CC1=C(C(=O)N2CCCC(C2=N1)O)CCN3CCN(CC3)C4=C5CCSC5=CC=C4

> <PUBCHEM_CACTVS_TPSA>
84.7

> <PUBCHEM_MONOISOTOPIC_WEIGHT>
426.20894739

> <PUBCHEM_TOTAL_CHARGE>
0

> <PUBCHEM_HEAVY_ATOM_COUNT>
30

> <PUBCHEM_ATOM_DEF_STEREO_COUNT>
0

> <PUBCHEM_ATOM_UDEF_STEREO_COUNT>
1

> <PUBCHEM_BOND_DEF_STEREO_COUNT>
0

> <PUBCHEM_BOND_UDEF_STEREO_COUNT>
0

> <PUBCHEM_ISOTOPIC_ATOM_COUNT>
0

> <PUBCHEM_COMPONENT_COUNT>
1

> <PUBCHEM_CACTVS_TAUTO_COUNT>
-1

> <PUBCHEM_COORDINATE_TYPE>
1
5
255

> <PUBCHEM_BONDANNOTATIONS>
14  21  8
14  26  8
15  22  8
15  23  8
17  2  3
21  25  8
25  28  8
26  29  8
28  29  8
6  20  8
6  22  8
7  20  8
7  23  8

$$$$
