44581973
  -OEChem-09292322232D

 65 69  0     0  0  0  0  0  0999 V2000
    2.0000    4.4400    0.0000 Cl  0  0  0  0  0  0  0  0  0  0  0  0
    2.0000    2.4400    0.0000 O   0  0  0  0  0  0  0  0  0  0  0  0
    3.7320   -1.5600    0.0000 O   0  0  0  0  0  0  0  0  0  0  0  0
    3.7320    5.4400    0.0000 N   0  0  0  0  0  0  0  0  0  0  0  0
    3.7320    7.4400    0.0000 N   0  0  0  0  0  0  0  0  0  0  0  0
    3.7320    2.4400    0.0000 N   0  0  0  0  0  0  0  0  0  0  0  0
    4.5981    2.9400    0.0000 N   0  0  0  0  0  0  0  0  0  0  0  0
    5.4641   -1.5600    0.0000 N   0  0  0  0  0  0  0  0  0  0  0  0
    4.5981    5.9400    0.0000 C   0  0  0  0  0  0  0  0  0  0  0  0
    2.8660    5.9400    0.0000 C   0  0  0  0  0  0  0  0  0  0  0  0
    4.5981    6.9400    0.0000 C   0  0  0  0  0  0  0  0  0  0  0  0
    2.8660    6.9400    0.0000 C   0  0  0  0  0  0  0  0  0  0  0  0
    3.7320    4.4400    0.0000 C   0  0  0  0  0  0  0  0  0  0  0  0
    2.8660    3.9400    0.0000 C   0  0  0  0  0  0  0  0  0  0  0  0
    4.5981    3.9400    0.0000 C   0  0  0  0  0  0  0  0  0  0  0  0
    3.7320    1.4400    0.0000 C   0  0  0  0  0  0  0  0  0  0  0  0
    2.8660    2.9400    0.0000 C   0  0  0  0  0  0  0  0  0  0  0  0
    4.5981    0.9400    0.0000 C   0  0  0  0  0  0  0  0  0  0  0  0
    4.5981   -0.0600    0.0000 C   0  0  0  0  0  0  0  0  0  0  0  0
    5.4641   -0.5600    0.0000 C   0  0  0  0  0  0  0  0  0  0  0  0
    5.4641    1.4400    0.0000 C   0  0  0  0  0  0  0  0  0  0  0  0
    6.3301   -0.0600    0.0000 C   0  0  0  0  0  0  0  0  0  0  0  0
    6.3301    0.9400    0.0000 C   0  0  0  0  0  0  0  0  0  0  0  0
    7.1962   -0.5600    0.0000 C   0  0  0  0  0  0  0  0  0  0  0  0
    4.5981   -2.0600    0.0000 C   0  0  0  0  0  0  0  0  0  0  0  0
    4.5981   -3.0600    0.0000 C   0  0  0  0  0  0  0  0  0  0  0  0
    4.5981   -5.0600    0.0000 C   0  0  0  0  0  0  0  0  0  0  0  0
    5.4641   -3.5600    0.0000 C   0  0  0  0  0  0  0  0  0  0  0  0
    3.7320   -3.5600    0.0000 C   0  0  0  0  0  0  0  0  0  0  0  0
    5.4641   -4.5600    0.0000 C   0  0  0  0  0  0  0  0  0  0  0  0
    3.7320   -4.5600    0.0000 C   0  0  0  0  0  0  0  0  0  0  0  0
    4.5981   -6.0600    0.0000 C   0  0  0  0  0  0  0  0  0  0  0  0
    5.4641   -6.5600    0.0000 C   0  0  0  0  0  0  0  0  0  0  0  0
    3.7320   -6.5600    0.0000 C   0  0  0  0  0  0  0  0  0  0  0  0
    5.4641   -7.5600    0.0000 C   0  0  0  0  0  0  0  0  0  0  0  0
    3.7320   -7.5600    0.0000 C   0  0  0  0  0  0  0  0  0  0  0  0
    4.5981   -8.0600    0.0000 C   0  0  0  0  0  0  0  0  0  0  0  0
    4.8101    5.3574    0.0000 H   0  0  0  0  0  0  0  0  0  0  0  0
    5.2087    6.0477    0.0000 H   0  0  0  0  0  0  0  0  0  0  0  0
    2.2554    6.0477    0.0000 H   0  0  0  0  0  0  0  0  0  0  0  0
    2.6540    5.3574    0.0000 H   0  0  0  0  0  0  0  0  0  0  0  0
    5.2087    6.8323    0.0000 H   0  0  0  0  0  0  0  0  0  0  0  0
    4.8101    7.5226    0.0000 H   0  0  0  0  0  0  0  0  0  0  0  0
    2.6540    7.5226    0.0000 H   0  0  0  0  0  0  0  0  0  0  0  0
    2.2554    6.8323    0.0000 H   0  0  0  0  0  0  0  0  0  0  0  0
    3.7320    8.0600    0.0000 H   0  0  0  0  0  0  0  0  0  0  0  0
    5.1350    4.2500    0.0000 H   0  0  0  0  0  0  0  0  0  0  0  0
    3.1215    1.5477    0.0000 H   0  0  0  0  0  0  0  0  0  0  0  0
    3.5200    0.8574    0.0000 H   0  0  0  0  0  0  0  0  0  0  0  0
    4.0611   -0.3700    0.0000 H   0  0  0  0  0  0  0  0  0  0  0  0
    5.4641    2.0600    0.0000 H   0  0  0  0  0  0  0  0  0  0  0  0
    6.8671    1.2500    0.0000 H   0  0  0  0  0  0  0  0  0  0  0  0
    6.0010   -1.8700    0.0000 H   0  0  0  0  0  0  0  0  0  0  0  0
    6.8862   -1.0969    0.0000 H   0  0  0  0  0  0  0  0  0  0  0  0
    7.7331   -0.8700    0.0000 H   0  0  0  0  0  0  0  0  0  0  0  0
    7.5062   -0.0231    0.0000 H   0  0  0  0  0  0  0  0  0  0  0  0
    6.0010   -3.2500    0.0000 H   0  0  0  0  0  0  0  0  0  0  0  0
    3.1951   -3.2500    0.0000 H   0  0  0  0  0  0  0  0  0  0  0  0
    6.0010   -4.8700    0.0000 H   0  0  0  0  0  0  0  0  0  0  0  0
    3.1951   -4.8700    0.0000 H   0  0  0  0  0  0  0  0  0  0  0  0
    6.0010   -6.2500    0.0000 H   0  0  0  0  0  0  0  0  0  0  0  0
    3.1951   -6.2500    0.0000 H   0  0  0  0  0  0  0  0  0  0  0  0
    6.0010   -7.8700    0.0000 H   0  0  0  0  0  0  0  0  0  0  0  0
    3.1951   -7.8700    0.0000 H   0  0  0  0  0  0  0  0  0  0  0  0
    4.5981   -8.6800    0.0000 H   0  0  0  0  0  0  0  0  0  0  0  0
  1 14  1  0  0  0  0
  2 17  2  0  0  0  0
  3 25  2  0  0  0  0
  4  9  1  0  0  0  0
  4 10  1  0  0  0  0
  4 13  1  0  0  0  0
  5 11  1  0  0  0  0
  5 12  1  0  0  0  0
  5 46  1  0  0  0  0
  6  7  1  0  0  0  0
  6 16  1  0  0  0  0
  6 17  1  0  0  0  0
  7 15  2  0  0  0  0
  8 20  1  0  0  0  0
  8 25  1  0  0  0  0
  8 53  1  0  0  0  0
  9 11  1  0  0  0  0
  9 38  1  0  0  0  0
  9 39  1  0  0  0  0
 10 12  1  0  0  0  0
 10 40  1  0  0  0  0
 10 41  1  0  0  0  0
 11 42  1  0  0  0  0
 11 43  1  0  0  0  0
 12 44  1  0  0  0  0
 12 45  1  0  0  0  0
 13 14  2  0  0  0  0
 13 15  1  0  0  0  0
 14 17  1  0  0  0  0
 15 47  1  0  0  0  0
 16 18  1  0  0  0  0
 16 48  1  0  0  0  0
 16 49  1  0  0  0  0
 18 19  2  0  0  0  0
 18 21  1  0  0  0  0
 19 20  1  0  0  0  0
 19 50  1  0  0  0  0
 20 22  2  0  0  0  0
 21 23  2  0  0  0  0
 21 51  1  0  0  0  0
 22 23  1  0  0  0  0
 22 24  1  0  0  0  0
 23 52  1  0  0  0  0
 24 54  1  0  0  0  0
 24 55  1  0  0  0  0
 24 56  1  0  0  0  0
 25 26  1  0  0  0  0
 26 28  2  0  0  0  0
 26 29  1  0  0  0  0
 27 30  2  0  0  0  0
 27 31  1  0  0  0  0
 27 32  1  0  0  0  0
 28 30  1  0  0  0  0
 28 57  1  0  0  0  0
 29 31  2  0  0  0  0
 29 58  1  0  0  0  0
 30 59  1  0  0  0  0
 31 60  1  0  0  0  0
 32 33  2  0  0  0  0
 32 34  1  0  0  0  0
 33 35  1  0  0  0  0
 33 61  1  0  0  0  0
 34 36  2  0  0  0  0
 34 62  1  0  0  0  0
 35 37  2  0  0  0  0
 35 63  1  0  0  0  0
 36 37  1  0  0  0  0
 36 64  1  0  0  0  0
 37 65  1  0  0  0  0
M  END
> <PUBCHEM_COMPOUND_CID>
44581973

> <PUBCHEM_COMPOUND_CANONICALIZED>
1

> <PUBCHEM_CACTVS_COMPLEXITY>
872

> <PUBCHEM_CACTVS_HBOND_ACCEPTOR>
5

> <PUBCHEM_CACTVS_HBOND_DONOR>
2

> <PUBCHEM_CACTVS_ROTATABLE_BOND>
6

> <PUBCHEM_CACTVS_SUBSKEYS>
AAADceB7sAAEAAAAAAAAAAAAAAAAAAAAAAA8YMECAAAAAAABUAAAHgIYAAAADArBmAQywIPAAACoAjVzUACSAAAlAgAaiIEIZNhIYDLAlZHUIQhgngDIyccYiMCOwAAAQAACAACAAACAAAQAAAAAAAAAAA==

> <PUBCHEM_IUPAC_OPENEYE_NAME>
N-[5-[(5-chloro-6-oxo-4-piperazin-1-yl-pyridazin-1-yl)methyl]-2-methyl-phenyl]-4-phenyl-benzamide

> <PUBCHEM_IUPAC_CAS_NAME>
N-[5-[[5-chloro-6-oxo-4-(1-piperazinyl)-1-pyridazinyl]methyl]-2-methylphenyl]-4-phenylbenzamide

> <PUBCHEM_IUPAC_NAME_MARKUP>
<I>N</I>-[5-[(5-chloro-6-oxo-4-piperazin-1-ylpyridazin-1-yl)methyl]-2-methylphenyl]-4-phenylbenzamide

> <PUBCHEM_IUPAC_NAME>
N-[5-[(5-chloro-6-oxo-4-piperazin-1-ylpyridazin-1-yl)methyl]-2-methylphenyl]-4-phenylbenzamide

> <PUBCHEM_IUPAC_SYSTEMATIC_NAME>
N-[5-[(5-chloranyl-6-oxidanylidene-4-piperazin-1-yl-pyridazin-1-yl)methyl]-2-methyl-phenyl]-4-phenyl-benzamide

> <PUBCHEM_IUPAC_TRADITIONAL_NAME>
N-[5-[(5-chloro-6-keto-4-piperazino-pyridazin-1-yl)methyl]-2-methyl-phenyl]-4-phenyl-benzamide

> <PUBCHEM_IUPAC_INCHI>
InChI=1S/C29H28ClN5O2/c1-20-7-8-21(19-35-29(37)27(30)26(18-32-35)34-15-13-31-14-16-34)17-25(20)33-28(36)24-11-9-23(10-12-24)22-5-3-2-4-6-22/h2-12,17-18,31H,13-16,19H2,1H3,(H,33,36)

> <PUBCHEM_IUPAC_INCHIKEY>
ADETWEPXXIGKFW-UHFFFAOYSA-N

> <PUBCHEM_XLOGP3_AA>
4.3

> <PUBCHEM_EXACT_MASS>
513.1931528

> <PUBCHEM_MOLECULAR_FORMULA>
C29H28ClN5O2

> <PUBCHEM_MOLECULAR_WEIGHT>
514.0

> <PUBCHEM_OPENEYE_CAN_SMILES>
CC1=C(C=C(C=C1)CN2C(=O)C(=C(C=N2)N3CCNCC3)Cl)NC(=O)C4=CC=C(C=C4)C5=CC=CC=C5

> <PUBCHEM_OPENEYE_ISO_SMILES>
CC1=C(C=C(C=C1)CN2C(=O)C(=C(C=N2)N3CCNCC3)Cl)NC(=O)C4=CC=C(C=C4)C5=CC=CC=C5

> <PUBCHEM_CACTVS_TPSA>
77

> <PUBCHEM_MONOISOTOPIC_WEIGHT>
513.1931528

> <PUBCHEM_TOTAL_CHARGE>
0

> <PUBCHEM_HEAVY_ATOM_COUNT>
37

> <PUBCHEM_ATOM_DEF_STEREO_COUNT>
0

> <PUBCHEM_ATOM_UDEF_STEREO_COUNT>
0

> <PUBCHEM_BOND_DEF_STEREO_COUNT>
0

> <PUBCHEM_BOND_UDEF_STEREO_COUNT>
0

> <PUBCHEM_ISOTOPIC_ATOM_COUNT>
0

> <PUBCHEM_COMPONENT_COUNT>
1

> <PUBCHEM_CACTVS_TAUTO_COUNT>
-1

> <PUBCHEM_COORDINATE_TYPE>
1
5
255

> <PUBCHEM_BONDANNOTATIONS>
13  14  8
13  15  8
14  17  8
18  19  8
18  21  8
19  20  8
20  22  8
21  23  8
22  23  8
26  28  8
26  29  8
27  30  8
27  31  8
28  30  8
29  31  8
32  33  8
32  34  8
33  35  8
34  36  8
35  37  8
36  37  8
6  17  8
6  7  8
7  15  8

$$$$
