49860012
  -OEChem-09292322032D

 52 54  0     1  0  0  0  0  0999 V2000
    6.5010    6.2615    0.0000 Br  0  0  0  0  0  0  0  0  0  0  0  0
    3.4641    2.0369    0.0000 Cl  0  0  0  0  0  0  0  0  0  0  0  0
    0.0000    2.0369    0.0000 Cl  0  0  0  0  0  0  0  0  0  0  0  0
    1.7320    1.0369    0.0000 O   0  0  0  0  0  0  0  0  0  0  0  0
    1.7320    7.0369    0.0000 N   0  0  0  0  0  0  0  0  0  0  0  0
    1.7320    5.0369    0.0000 N   0  0  0  0  0  0  0  0  0  0  0  0
    2.5981    8.5369    0.0000 C   0  0  2  0  0  0  0  0  0  0  0  0
    3.0981    9.4030    0.0000 C   0  0  2  0  0  0  0  0  0  0  0  0
    3.5981    8.5369    0.0000 C   0  0  0  0  0  0  0  0  0  0  0  0
    1.7320    8.0369    0.0000 C   0  0  0  0  0  0  0  0  0  0  0  0
    3.0981   10.4030    0.0000 C   0  0  0  0  0  0  0  0  0  0  0  0
    2.5981    6.5369    0.0000 C   0  0  0  0  0  0  0  0  0  0  0  0
    0.8660    6.5369    0.0000 C   0  0  0  0  0  0  0  0  0  0  0  0
    2.5981    5.5369    0.0000 C   0  0  0  0  0  0  0  0  0  0  0  0
    0.8660    5.5369    0.0000 C   0  0  0  0  0  0  0  0  0  0  0  0
    2.2320   10.9030    0.0000 C   0  0  0  0  0  0  0  0  0  0  0  0
    3.9641   10.9030    0.0000 C   0  0  0  0  0  0  0  0  0  0  0  0
    2.2320   11.9030    0.0000 C   0  0  0  0  0  0  0  0  0  0  0  0
    3.9641   11.9030    0.0000 C   0  0  0  0  0  0  0  0  0  0  0  0
    1.7320    4.0369    0.0000 C   0  0  0  0  0  0  0  0  0  0  0  0
    3.0981   12.4030    0.0000 C   0  0  0  0  0  0  0  0  0  0  0  0
    0.8660    3.5369    0.0000 C   0  0  0  0  0  0  0  0  0  0  0  0
    2.5981    3.5369    0.0000 C   0  0  0  0  0  0  0  0  0  0  0  0
    2.5981    2.5369    0.0000 C   0  0  0  0  0  0  0  0  0  0  0  0
    0.8660    2.5369    0.0000 C   0  0  0  0  0  0  0  0  0  0  0  0
    1.7320    2.0369    0.0000 C   0  0  0  0  0  0  0  0  0  0  0  0
    0.8660    0.5369    0.0000 C   0  0  0  0  0  0  0  0  0  0  0  0
    2.7585    7.9381    0.0000 H   0  0  0  0  0  0  0  0  0  0  0  0
    2.4992    9.5634    0.0000 H   0  0  0  0  0  0  0  0  0  0  0  0
    3.7057    7.9264    0.0000 H   0  0  0  0  0  0  0  0  0  0  0  0
    4.1807    8.7490    0.0000 H   0  0  0  0  0  0  0  0  0  0  0  0
    1.5200    8.6195    0.0000 H   0  0  0  0  0  0  0  0  0  0  0  0
    1.1215    7.9293    0.0000 H   0  0  0  0  0  0  0  0  0  0  0  0
    3.2087    6.4293    0.0000 H   0  0  0  0  0  0  0  0  0  0  0  0
    2.8101    7.1195    0.0000 H   0  0  0  0  0  0  0  0  0  0  0  0
    0.6540    7.1195    0.0000 H   0  0  0  0  0  0  0  0  0  0  0  0
    0.2554    6.4293    0.0000 H   0  0  0  0  0  0  0  0  0  0  0  0
    2.8101    4.9543    0.0000 H   0  0  0  0  0  0  0  0  0  0  0  0
    3.2087    5.6446    0.0000 H   0  0  0  0  0  0  0  0  0  0  0  0
    0.2554    5.6446    0.0000 H   0  0  0  0  0  0  0  0  0  0  0  0
    0.6540    4.9543    0.0000 H   0  0  0  0  0  0  0  0  0  0  0  0
    1.6951   10.5930    0.0000 H   0  0  0  0  0  0  0  0  0  0  0  0
    4.5010   10.5930    0.0000 H   0  0  0  0  0  0  0  0  0  0  0  0
    1.6951   12.2130    0.0000 H   0  0  0  0  0  0  0  0  0  0  0  0
    4.5010   12.2130    0.0000 H   0  0  0  0  0  0  0  0  0  0  0  0
    3.0981   13.0230    0.0000 H   0  0  0  0  0  0  0  0  0  0  0  0
    0.3291    3.8469    0.0000 H   0  0  0  0  0  0  0  0  0  0  0  0
    3.1350    3.8469    0.0000 H   0  0  0  0  0  0  0  0  0  0  0  0
    0.5560    1.0739    0.0000 H   0  0  0  0  0  0  0  0  0  0  0  0
    0.3291    0.2269    0.0000 H   0  0  0  0  0  0  0  0  0  0  0  0
    1.1760    0.0000    0.0000 H   0  0  0  0  0  0  0  0  0  0  0  0
    7.5010    6.2615    0.0000 H   0  0  0  0  0  0  0  0  0  0  0  0
  1 52  1  0  0  0  0
  2 24  1  0  0  0  0
  3 25  1  0  0  0  0
  4 26  1  0  0  0  0
  4 27  1  0  0  0  0
  5 10  1  0  0  0  0
  5 12  1  0  0  0  0
  5 13  1  0  0  0  0
  6 14  1  0  0  0  0
  6 15  1  0  0  0  0
  6 20  1  0  0  0  0
  7  8  1  0  0  0  0
  7  9  1  0  0  0  0
  7 10  1  6  0  0  0
  7 28  1  0  0  0  0
  8  9  1  0  0  0  0
  8 11  1  1  0  0  0
  8 29  1  0  0  0  0
  9 30  1  0  0  0  0
  9 31  1  0  0  0  0
 10 32  1  0  0  0  0
 10 33  1  0  0  0  0
 11 16  2  0  0  0  0
 11 17  1  0  0  0  0
 12 14  1  0  0  0  0
 12 34  1  0  0  0  0
 12 35  1  0  0  0  0
 13 15  1  0  0  0  0
 13 36  1  0  0  0  0
 13 37  1  0  0  0  0
 14 38  1  0  0  0  0
 14 39  1  0  0  0  0
 15 40  1  0  0  0  0
 15 41  1  0  0  0  0
 16 18  1  0  0  0  0
 16 42  1  0  0  0  0
 17 19  2  0  0  0  0
 17 43  1  0  0  0  0
 18 21  2  0  0  0  0
 18 44  1  0  0  0  0
 19 21  1  0  0  0  0
 19 45  1  0  0  0  0
 20 22  2  0  0  0  0
 20 23  1  0  0  0  0
 21 46  1  0  0  0  0
 22 25  1  0  0  0  0
 22 47  1  0  0  0  0
 23 24  2  0  0  0  0
 23 48  1  0  0  0  0
 24 26  1  0  0  0  0
 25 26  2  0  0  0  0
 27 49  1  0  0  0  0
 27 50  1  0  0  0  0
 27 51  1  0  0  0  0
M  END
> <PUBCHEM_COMPOUND_CID>
49860012

> <PUBCHEM_COMPOUND_CANONICALIZED>
1

> <PUBCHEM_CACTVS_COMPLEXITY>
439

> <PUBCHEM_CACTVS_HBOND_ACCEPTOR>
3

> <PUBCHEM_CACTVS_HBOND_DONOR>
1

> <PUBCHEM_CACTVS_ROTATABLE_BOND>
5

> <PUBCHEM_CACTVS_SUBSKEYS>
AAADceB7IAAGEAAAAAAAAAAAGAAAAAAAAAA8YIAAAAAAAAABQAAAHgIAAAAADQ7BmCYyxoMABACAAiRCQACCCAAhJ0AIiAAMb4gMZiPFs5uUMChkwBHI6AewwMAOgEAAAAKACAAAgAAABQAQAAAAAAAAAA==

> <PUBCHEM_IUPAC_OPENEYE_NAME>
1-(3,5-dichloro-4-methoxy-phenyl)-4-[[(1S,2S)-2-phenylcyclopropyl]methyl]piperazine;hydrobromide

> <PUBCHEM_IUPAC_CAS_NAME>
1-(3,5-dichloro-4-methoxyphenyl)-4-[[(1S,2S)-2-phenylcyclopropyl]methyl]piperazine;hydrobromide

> <PUBCHEM_IUPAC_NAME_MARKUP>
1-(3,5-dichloro-4-methoxyphenyl)-4-[[(1<I>S</I>,2<I>S</I>)-2-phenylcyclopropyl]methyl]piperazine;hydrobromide

> <PUBCHEM_IUPAC_NAME>
1-(3,5-dichloro-4-methoxyphenyl)-4-[[(1S,2S)-2-phenylcyclopropyl]methyl]piperazine;hydrobromide

> <PUBCHEM_IUPAC_SYSTEMATIC_NAME>
1-[3,5-bis(chloranyl)-4-methoxy-phenyl]-4-[[(1S,2S)-2-phenylcyclopropyl]methyl]piperazine;hydrobromide

> <PUBCHEM_IUPAC_TRADITIONAL_NAME>
1-(3,5-dichloro-4-methoxy-phenyl)-4-[[(1S,2S)-2-phenylcyclopropyl]methyl]piperazine;hydrobromide

> <PUBCHEM_IUPAC_INCHI>
InChI=1S/C21H24Cl2N2O.BrH/c1-26-21-19(22)12-17(13-20(21)23)25-9-7-24(8-10-25)14-16-11-18(16)15-5-3-2-4-6-15;/h2-6,12-13,16,18H,7-11,14H2,1H3;1H/t16-,18-;/m1./s1

> <PUBCHEM_IUPAC_INCHIKEY>
QIYYNAYNQLAAOO-PHJLCXHGSA-N

> <PUBCHEM_EXACT_MASS>
470.05273

> <PUBCHEM_MOLECULAR_FORMULA>
C21H25BrCl2N2O

> <PUBCHEM_MOLECULAR_WEIGHT>
472.2

> <PUBCHEM_OPENEYE_CAN_SMILES>
COC1=C(C=C(C=C1Cl)N2CCN(CC2)CC3CC3C4=CC=CC=C4)Cl.Br

> <PUBCHEM_OPENEYE_ISO_SMILES>
COC1=C(C=C(C=C1Cl)N2CCN(CC2)C[C@H]3C[C@@H]3C4=CC=CC=C4)Cl.Br

> <PUBCHEM_CACTVS_TPSA>
15.7

> <PUBCHEM_MONOISOTOPIC_WEIGHT>
470.05273

> <PUBCHEM_TOTAL_CHARGE>
0

> <PUBCHEM_HEAVY_ATOM_COUNT>
27

> <PUBCHEM_ATOM_DEF_STEREO_COUNT>
2

> <PUBCHEM_ATOM_UDEF_STEREO_COUNT>
0

> <PUBCHEM_BOND_DEF_STEREO_COUNT>
0

> <PUBCHEM_BOND_UDEF_STEREO_COUNT>
0

> <PUBCHEM_ISOTOPIC_ATOM_COUNT>
0

> <PUBCHEM_COMPONENT_COUNT>
2

> <PUBCHEM_CACTVS_TAUTO_COUNT>
-1

> <PUBCHEM_COORDINATE_TYPE>
1
5
255

> <PUBCHEM_BONDANNOTATIONS>
11  16  8
11  17  8
16  18  8
17  19  8
18  21  8
19  21  8
20  22  8
20  23  8
22  25  8
23  24  8
24  26  8
25  26  8
7  10  6
8  11  5

$$$$
