145985233
  -OEChem-09292322392D

 65 70  0     1  0  0  0  0  0999 V2000
    3.0000    0.1692    0.0000 S   0  0  0  0  0  0  0  0  0  0  0  0
   12.8539    2.6815    0.0000 F   0  0  0  0  0  0  0  0  0  0  0  0
    2.0000    0.1692    0.0000 O   0  0  0  0  0  0  0  0  0  0  0  0
    4.0000    0.1692    0.0000 O   0  0  0  0  0  0  0  0  0  0  0  0
   10.6079   -0.0673    0.0000 O   0  0  0  0  0  0  0  0  0  0  0  0
    3.0000    1.1692    0.0000 N   0  0  3  0  0  0  0  0  0  0  0  0
    6.4543    1.8080    0.0000 N   0  0  0  0  0  0  0  0  0  0  0  0
    9.6138   -0.0647    0.0000 N   0  0  0  0  0  0  0  0  0  0  0  0
    4.7600   -2.8655    0.0000 N   0  0  0  0  0  0  0  0  0  0  0  0
    3.8090    1.7570    0.0000 C   0  0  1  0  0  0  0  0  0  0  0  0
    3.5000    2.7080    0.0000 C   0  0  0  0  0  0  0  0  0  0  0  0
    4.7601    1.4479    0.0000 C   0  0  0  0  0  0  0  0  0  0  0  0
    2.5000    2.7080    0.0000 C   0  0  0  0  0  0  0  0  0  0  0  0
    2.1910    1.7570    0.0000 C   0  0  0  0  0  0  0  0  0  0  0  0
    5.5032    2.1171    0.0000 C   0  0  0  0  0  0  0  0  0  0  0  0
    8.3564    1.1900    0.0000 C   0  0  0  0  0  0  0  0  0  0  0  0
    6.6622    0.8299    0.0000 C   0  0  0  0  0  0  0  0  0  0  0  0
    7.1974    2.4772    0.0000 C   0  0  0  0  0  0  0  0  0  0  0  0
    7.6132    0.5209    0.0000 C   0  0  0  0  0  0  0  0  0  0  0  0
    8.1485    2.1682    0.0000 C   0  0  0  0  0  0  0  0  0  0  0  0
    9.3074    0.8810    0.0000 C   0  0  0  0  0  0  0  0  0  0  0  0
    3.0000   -0.8308    0.0000 C   0  0  0  0  0  0  0  0  0  0  0  0
   10.1112    1.4660    0.0000 C   0  0  0  0  0  0  0  0  0  0  0  0
    3.8660   -1.3308    0.0000 C   0  0  0  0  0  0  0  0  0  0  0  0
    2.1340   -1.3308    0.0000 C   0  0  0  0  0  0  0  0  0  0  0  0
   10.9192    0.8768    0.0000 C   0  0  0  0  0  0  0  0  0  0  0  0
   10.2174    2.4603    0.0000 C   0  0  0  0  0  0  0  0  0  0  0  0
    3.8660   -2.3308    0.0000 C   0  0  0  0  0  0  0  0  0  0  0  0
    2.1340   -2.3308    0.0000 C   0  0  0  0  0  0  0  0  0  0  0  0
    4.7600   -0.7962    0.0000 C   0  0  0  0  0  0  0  0  0  0  0  0
    3.0000   -2.8308    0.0000 C   0  0  0  0  0  0  0  0  0  0  0  0
   11.8334    1.2820    0.0000 C   0  0  0  0  0  0  0  0  0  0  0  0
   11.1317    2.8655    0.0000 C   0  0  0  0  0  0  0  0  0  0  0  0
   11.9397    2.2763    0.0000 C   0  0  0  0  0  0  0  0  0  0  0  0
    5.6660   -1.3100    0.0000 C   0  0  0  0  0  0  0  0  0  0  0  0
    5.6660   -2.3516    0.0000 C   0  0  0  0  0  0  0  0  0  0  0  0
    3.9060    1.1446    0.0000 H   0  0  0  0  0  0  0  0  0  0  0  0
    4.1064    2.8369    0.0000 H   0  0  0  0  0  0  0  0  0  0  0  0
    3.4352    3.3246    0.0000 H   0  0  0  0  0  0  0  0  0  0  0  0
    4.4690    0.9005    0.0000 H   0  0  0  0  0  0  0  0  0  0  0  0
    5.2486    1.0662    0.0000 H   0  0  0  0  0  0  0  0  0  0  0  0
    2.5648    3.3246    0.0000 H   0  0  0  0  0  0  0  0  0  0  0  0
    1.8936    2.8369    0.0000 H   0  0  0  0  0  0  0  0  0  0  0  0
    1.6246    2.0091    0.0000 H   0  0  0  0  0  0  0  0  0  0  0  0
    1.8810    1.2200    0.0000 H   0  0  0  0  0  0  0  0  0  0  0  0
    5.7943    2.6645    0.0000 H   0  0  0  0  0  0  0  0  0  0  0  0
    5.0146    2.4988    0.0000 H   0  0  0  0  0  0  0  0  0  0  0  0
    8.4853    0.5836    0.0000 H   0  0  0  0  0  0  0  0  0  0  0  0
    6.0426    0.8083    0.0000 H   0  0  0  0  0  0  0  0  0  0  0  0
    6.5759    0.2159    0.0000 H   0  0  0  0  0  0  0  0  0  0  0  0
    7.4885    3.0246    0.0000 H   0  0  0  0  0  0  0  0  0  0  0  0
    6.7088    2.8589    0.0000 H   0  0  0  0  0  0  0  0  0  0  0  0
    7.3222   -0.0265    0.0000 H   0  0  0  0  0  0  0  0  0  0  0  0
    8.1018    0.1392    0.0000 H   0  0  0  0  0  0  0  0  0  0  0  0
    8.7681    2.1898    0.0000 H   0  0  0  0  0  0  0  0  0  0  0  0
    8.2348    2.7821    0.0000 H   0  0  0  0  0  0  0  0  0  0  0  0
    1.5970   -1.0208    0.0000 H   0  0  0  0  0  0  0  0  0  0  0  0
    9.7165    2.8256    0.0000 H   0  0  0  0  0  0  0  0  0  0  0  0
    1.5970   -2.6408    0.0000 H   0  0  0  0  0  0  0  0  0  0  0  0
    4.7528   -0.1762    0.0000 H   0  0  0  0  0  0  0  0  0  0  0  0
    3.0000   -3.4508    0.0000 H   0  0  0  0  0  0  0  0  0  0  0  0
   12.3344    0.9167    0.0000 H   0  0  0  0  0  0  0  0  0  0  0  0
   11.1975    3.4820    0.0000 H   0  0  0  0  0  0  0  0  0  0  0  0
    6.2018   -0.9980    0.0000 H   0  0  0  0  0  0  0  0  0  0  0  0
    6.2018   -2.6637    0.0000 H   0  0  0  0  0  0  0  0  0  0  0  0
  1  3  2  0  0  0  0
  1  4  2  0  0  0  0
  1  6  1  0  0  0  0
  1 22  1  0  0  0  0
  2 34  1  0  0  0  0
  5  8  1  0  0  0  0
  5 26  1  0  0  0  0
  6 10  1  0  0  0  0
  6 14  1  0  0  0  0
  7 15  1  0  0  0  0
  7 17  1  0  0  0  0
  7 18  1  0  0  0  0
  8 21  2  0  0  0  0
  9 28  1  0  0  0  0
  9 36  2  0  0  0  0
 10 11  1  0  0  0  0
 10 12  1  1  0  0  0
 10 37  1  0  0  0  0
 11 13  1  0  0  0  0
 11 38  1  0  0  0  0
 11 39  1  0  0  0  0
 12 15  1  0  0  0  0
 12 40  1  0  0  0  0
 12 41  1  0  0  0  0
 13 14  1  0  0  0  0
 13 42  1  0  0  0  0
 13 43  1  0  0  0  0
 14 44  1  0  0  0  0
 14 45  1  0  0  0  0
 15 46  1  0  0  0  0
 15 47  1  0  0  0  0
 16 19  1  0  0  0  0
 16 20  1  0  0  0  0
 16 21  1  0  0  0  0
 16 48  1  0  0  0  0
 17 19  1  0  0  0  0
 17 49  1  0  0  0  0
 17 50  1  0  0  0  0
 18 20  1  0  0  0  0
 18 51  1  0  0  0  0
 18 52  1  0  0  0  0
 19 53  1  0  0  0  0
 19 54  1  0  0  0  0
 20 55  1  0  0  0  0
 20 56  1  0  0  0  0
 21 23  1  0  0  0  0
 22 24  1  0  0  0  0
 22 25  2  0  0  0  0
 23 26  2  0  0  0  0
 23 27  1  0  0  0  0
 24 28  2  0  0  0  0
 24 30  1  0  0  0  0
 25 29  1  0  0  0  0
 25 57  1  0  0  0  0
 26 32  1  0  0  0  0
 27 33  2  0  0  0  0
 27 58  1  0  0  0  0
 28 31  1  0  0  0  0
 29 31  2  0  0  0  0
 29 59  1  0  0  0  0
 30 35  2  0  0  0  0
 30 60  1  0  0  0  0
 31 61  1  0  0  0  0
 32 34  2  0  0  0  0
 32 62  1  0  0  0  0
 33 34  1  0  0  0  0
 33 63  1  0  0  0  0
 35 36  1  0  0  0  0
 35 64  1  0  0  0  0
 36 65  1  0  0  0  0
M  END
> <PUBCHEM_COMPOUND_CID>
145985233

> <PUBCHEM_COMPOUND_CANONICALIZED>
1

> <PUBCHEM_CACTVS_COMPLEXITY>
848

> <PUBCHEM_CACTVS_HBOND_ACCEPTOR>
8

> <PUBCHEM_CACTVS_HBOND_DONOR>
0

> <PUBCHEM_CACTVS_ROTATABLE_BOND>
6

> <PUBCHEM_CACTVS_SUBSKEYS>
AAADceB7sQBAAAAAAAAAAAAAAAAAAWLAAAA8eIEAAAAAAFix/gAAHwQEQAAADSzB3gw8x/MYEAKpA7R3RnDCgDA1IiAo2Dk+bNoIJvrA1ZOEMYxmwBnIyceYyOCOAAAAACAOAAAAAAAAQBwAAAAAAAAAAA==

> <PUBCHEM_IUPAC_OPENEYE_NAME>
6-fluoro-3-[1-[2-[(2S)-1-(5-quinolylsulfonyl)pyrrolidin-2-yl]ethyl]-4-piperidyl]-1,2-benzoxazole

> <PUBCHEM_IUPAC_CAS_NAME>
6-fluoro-3-[1-[2-[(2S)-1-(5-quinolinylsulfonyl)-2-pyrrolidinyl]ethyl]-4-piperidinyl]-1,2-benzoxazole

> <PUBCHEM_IUPAC_NAME_MARKUP>
6-fluoro-3-[1-[2-[(2<I>S</I>)-1-quinolin-5-ylsulfonylpyrrolidin-2-yl]ethyl]piperidin-4-yl]-1,2-benzoxazole

> <PUBCHEM_IUPAC_NAME>
6-fluoro-3-[1-[2-[(2S)-1-quinolin-5-ylsulfonylpyrrolidin-2-yl]ethyl]piperidin-4-yl]-1,2-benzoxazole

> <PUBCHEM_IUPAC_SYSTEMATIC_NAME>
6-fluoranyl-3-[1-[2-[(2S)-1-quinolin-5-ylsulfonylpyrrolidin-2-yl]ethyl]piperidin-4-yl]-1,2-benzoxazole

> <PUBCHEM_IUPAC_TRADITIONAL_NAME>
6-fluoro-3-[1-[2-[(2S)-1-(5-quinolylsulfonyl)pyrrolidin-2-yl]ethyl]-4-piperidyl]indoxazene

> <PUBCHEM_IUPAC_INCHI>
InChI=1S/C27H29FN4O3S/c28-20-8-9-23-25(18-20)35-30-27(23)19-10-15-31(16-11-19)17-12-21-4-3-14-32(21)36(33,34)26-7-1-6-24-22(26)5-2-13-29-24/h1-2,5-9,13,18-19,21H,3-4,10-12,14-17H2/t21-/m0/s1

> <PUBCHEM_IUPAC_INCHIKEY>
AAYBHLNWKYXETD-NRFANRHFSA-N

> <PUBCHEM_XLOGP3_AA>
4.4

> <PUBCHEM_EXACT_MASS>
508.19444014

> <PUBCHEM_MOLECULAR_FORMULA>
C27H29FN4O3S

> <PUBCHEM_MOLECULAR_WEIGHT>
508.6

> <PUBCHEM_OPENEYE_CAN_SMILES>
C1CC(N(C1)S(=O)(=O)C2=CC=CC3=C2C=CC=N3)CCN4CCC(CC4)C5=NOC6=C5C=CC(=C6)F

> <PUBCHEM_OPENEYE_ISO_SMILES>
C1C[C@H](N(C1)S(=O)(=O)C2=CC=CC3=C2C=CC=N3)CCN4CCC(CC4)C5=NOC6=C5C=CC(=C6)F

> <PUBCHEM_CACTVS_TPSA>
87.9

> <PUBCHEM_MONOISOTOPIC_WEIGHT>
508.19444014

> <PUBCHEM_TOTAL_CHARGE>
0

> <PUBCHEM_HEAVY_ATOM_COUNT>
36

> <PUBCHEM_ATOM_DEF_STEREO_COUNT>
1

> <PUBCHEM_ATOM_UDEF_STEREO_COUNT>
0

> <PUBCHEM_BOND_DEF_STEREO_COUNT>
0

> <PUBCHEM_BOND_UDEF_STEREO_COUNT>
0

> <PUBCHEM_ISOTOPIC_ATOM_COUNT>
0

> <PUBCHEM_COMPONENT_COUNT>
1

> <PUBCHEM_CACTVS_TAUTO_COUNT>
-1

> <PUBCHEM_COORDINATE_TYPE>
1
5
255

> <PUBCHEM_BONDANNOTATIONS>
10  12  5
21  23  8
22  24  8
22  25  8
23  26  8
23  27  8
24  28  8
24  30  8
25  29  8
26  32  8
27  33  8
28  31  8
29  31  8
30  35  8
32  34  8
33  34  8
35  36  8
5  26  8
5  8  8
8  21  8
9  28  8
9  36  8

$$$$
