45278805
  -OEChem-09292322042D

 63 66  0     0  0  0  0  0  0999 V2000
    2.0000   -4.7215    0.0000 Cl  0  0  0  0  0  0  0  0  0  0  0  0
    2.0000   -6.7215    0.0000 Cl  0  0  0  0  0  0  0  0  0  0  0  0
    4.5981    2.7785    0.0000 O   0  0  0  0  0  0  0  0  0  0  0  0
    3.7320   -1.7215    0.0000 N   0  0  0  0  0  0  0  0  0  0  0  0
    3.7320   -3.7215    0.0000 N   0  0  0  0  0  0  0  0  0  0  0  0
    5.4641    1.2785    0.0000 N   0  0  0  0  0  0  0  0  0  0  0  0
    7.9128    3.1149    0.0000 N   0  0  0  0  0  0  0  0  0  0  0  0
    2.8660   -2.2215    0.0000 C   0  0  0  0  0  0  0  0  0  0  0  0
    4.5981   -2.2215    0.0000 C   0  0  0  0  0  0  0  0  0  0  0  0
    2.8660   -3.2215    0.0000 C   0  0  0  0  0  0  0  0  0  0  0  0
    4.5981   -3.2215    0.0000 C   0  0  0  0  0  0  0  0  0  0  0  0
    3.7320   -0.7215    0.0000 C   0  0  0  0  0  0  0  0  0  0  0  0
    4.5981   -0.2215    0.0000 C   0  0  0  0  0  0  0  0  0  0  0  0
    3.7320   -4.7215    0.0000 C   0  0  0  0  0  0  0  0  0  0  0  0
    4.5981    0.7785    0.0000 C   0  0  0  0  0  0  0  0  0  0  0  0
    2.8660   -5.2215    0.0000 C   0  0  0  0  0  0  0  0  0  0  0  0
    4.5981   -5.2215    0.0000 C   0  0  0  0  0  0  0  0  0  0  0  0
    6.3301    2.7785    0.0000 C   0  0  0  0  0  0  0  0  0  0  0  0
    5.4641    2.2785    0.0000 C   0  0  0  0  0  0  0  0  0  0  0  0
    7.2437    2.3717    0.0000 C   0  0  0  0  0  0  0  0  0  0  0  0
    7.4128    3.9809    0.0000 C   0  0  0  0  0  0  0  0  0  0  0  0
    2.8660   -6.2215    0.0000 C   0  0  0  0  0  0  0  0  0  0  0  0
    4.5981   -6.2215    0.0000 C   0  0  0  0  0  0  0  0  0  0  0  0
    6.4347    3.7730    0.0000 C   0  0  0  0  0  0  0  0  0  0  0  0
    3.7320   -6.7215    0.0000 C   0  0  0  0  0  0  0  0  0  0  0  0
    7.8195    4.8944    0.0000 C   0  0  0  0  0  0  0  0  0  0  0  0
    7.4516    1.3936    0.0000 C   0  0  0  0  0  0  0  0  0  0  0  0
    8.9073    3.0103    0.0000 C   0  0  0  0  0  0  0  0  0  0  0  0
    8.8141    4.9990    0.0000 C   0  0  0  0  0  0  0  0  0  0  0  0
    7.2318    5.7035    0.0000 C   0  0  0  0  0  0  0  0  0  0  0  0
    9.2208    5.9125    0.0000 C   0  0  0  0  0  0  0  0  0  0  0  0
    7.6385    6.6170    0.0000 C   0  0  0  0  0  0  0  0  0  0  0  0
    8.6330    6.7215    0.0000 C   0  0  0  0  0  0  0  0  0  0  0  0
    2.6540   -1.6389    0.0000 H   0  0  0  0  0  0  0  0  0  0  0  0
    2.2554   -2.3292    0.0000 H   0  0  0  0  0  0  0  0  0  0  0  0
    5.2087   -2.3292    0.0000 H   0  0  0  0  0  0  0  0  0  0  0  0
    4.8101   -1.6389    0.0000 H   0  0  0  0  0  0  0  0  0  0  0  0
    2.2554   -3.1139    0.0000 H   0  0  0  0  0  0  0  0  0  0  0  0
    2.6540   -3.8041    0.0000 H   0  0  0  0  0  0  0  0  0  0  0  0
    4.8101   -3.8041    0.0000 H   0  0  0  0  0  0  0  0  0  0  0  0
    5.2087   -3.1139    0.0000 H   0  0  0  0  0  0  0  0  0  0  0  0
    3.5200   -0.1389    0.0000 H   0  0  0  0  0  0  0  0  0  0  0  0
    3.1215   -0.8292    0.0000 H   0  0  0  0  0  0  0  0  0  0  0  0
    4.8101   -0.8041    0.0000 H   0  0  0  0  0  0  0  0  0  0  0  0
    5.2087   -0.1139    0.0000 H   0  0  0  0  0  0  0  0  0  0  0  0
    4.3860    1.3611    0.0000 H   0  0  0  0  0  0  0  0  0  0  0  0
    3.9875    0.6708    0.0000 H   0  0  0  0  0  0  0  0  0  0  0  0
    5.1350   -4.9115    0.0000 H   0  0  0  0  0  0  0  0  0  0  0  0
    6.0010    0.9685    0.0000 H   0  0  0  0  0  0  0  0  0  0  0  0
    5.1350   -6.5315    0.0000 H   0  0  0  0  0  0  0  0  0  0  0  0
    5.9739    4.1878    0.0000 H   0  0  0  0  0  0  0  0  0  0  0  0
    3.7320   -7.3415    0.0000 H   0  0  0  0  0  0  0  0  0  0  0  0
    6.8451    1.2647    0.0000 H   0  0  0  0  0  0  0  0  0  0  0  0
    7.5805    0.7871    0.0000 H   0  0  0  0  0  0  0  0  0  0  0  0
    8.0580    1.5225    0.0000 H   0  0  0  0  0  0  0  0  0  0  0  0
    8.8425    2.3937    0.0000 H   0  0  0  0  0  0  0  0  0  0  0  0
    9.5239    2.9455    0.0000 H   0  0  0  0  0  0  0  0  0  0  0  0
    8.9721    3.6270    0.0000 H   0  0  0  0  0  0  0  0  0  0  0  0
    9.1785    4.4974    0.0000 H   0  0  0  0  0  0  0  0  0  0  0  0
    6.6152    5.6386    0.0000 H   0  0  0  0  0  0  0  0  0  0  0  0
    9.8374    5.9773    0.0000 H   0  0  0  0  0  0  0  0  0  0  0  0
    7.2741    7.1186    0.0000 H   0  0  0  0  0  0  0  0  0  0  0  0
    8.8852    7.2879    0.0000 H   0  0  0  0  0  0  0  0  0  0  0  0
  1 16  1  0  0  0  0
  2 22  1  0  0  0  0
  3 19  2  0  0  0  0
  4  8  1  0  0  0  0
  4  9  1  0  0  0  0
  4 12  1  0  0  0  0
  5 10  1  0  0  0  0
  5 11  1  0  0  0  0
  5 14  1  0  0  0  0
  6 15  1  0  0  0  0
  6 19  1  0  0  0  0
  6 49  1  0  0  0  0
  7 20  1  0  0  0  0
  7 21  1  0  0  0  0
  7 28  1  0  0  0  0
  8 10  1  0  0  0  0
  8 34  1  0  0  0  0
  8 35  1  0  0  0  0
  9 11  1  0  0  0  0
  9 36  1  0  0  0  0
  9 37  1  0  0  0  0
 10 38  1  0  0  0  0
 10 39  1  0  0  0  0
 11 40  1  0  0  0  0
 11 41  1  0  0  0  0
 12 13  1  0  0  0  0
 12 42  1  0  0  0  0
 12 43  1  0  0  0  0
 13 15  1  0  0  0  0
 13 44  1  0  0  0  0
 13 45  1  0  0  0  0
 14 16  2  0  0  0  0
 14 17  1  0  0  0  0
 15 46  1  0  0  0  0
 15 47  1  0  0  0  0
 16 22  1  0  0  0  0
 17 23  2  0  0  0  0
 17 48  1  0  0  0  0
 18 19  1  0  0  0  0
 18 20  2  0  0  0  0
 18 24  1  0  0  0  0
 20 27  1  0  0  0  0
 21 24  2  0  0  0  0
 21 26  1  0  0  0  0
 22 25  2  0  0  0  0
 23 25  1  0  0  0  0
 23 50  1  0  0  0  0
 24 51  1  0  0  0  0
 25 52  1  0  0  0  0
 26 29  2  0  0  0  0
 26 30  1  0  0  0  0
 27 53  1  0  0  0  0
 27 54  1  0  0  0  0
 27 55  1  0  0  0  0
 28 56  1  0  0  0  0
 28 57  1  0  0  0  0
 28 58  1  0  0  0  0
 29 31  1  0  0  0  0
 29 59  1  0  0  0  0
 30 32  2  0  0  0  0
 30 60  1  0  0  0  0
 31 33  2  0  0  0  0
 31 61  1  0  0  0  0
 32 33  1  0  0  0  0
 32 62  1  0  0  0  0
 33 63  1  0  0  0  0
M  END
> <PUBCHEM_COMPOUND_CID>
45278805

> <PUBCHEM_COMPOUND_CANONICALIZED>
1

> <PUBCHEM_CACTVS_COMPLEXITY>
623

> <PUBCHEM_CACTVS_HBOND_ACCEPTOR>
3

> <PUBCHEM_CACTVS_HBOND_DONOR>
1

> <PUBCHEM_CACTVS_ROTATABLE_BOND>
7

> <PUBCHEM_CACTVS_SUBSKEYS>
AAADceB7oAAGAAAAAAAAAAAAAAAAAWAAAAA8YIAAAAAAAAAB0AAAHgIQAAAADArBniQywJPMEACoAyVyVACCgCAlByAI2uE4ZtgIYPrB15HUIYhglgDIyccciMCOAAAAAAIAABQAAAAABAAAKAAAAAAAAA==

> <PUBCHEM_IUPAC_OPENEYE_NAME>
N-[3-[4-(2,3-dichlorophenyl)piperazin-1-yl]propyl]-1,2-dimethyl-5-phenyl-pyrrole-3-carboxamide

> <PUBCHEM_IUPAC_CAS_NAME>
N-[3-[4-(2,3-dichlorophenyl)-1-piperazinyl]propyl]-1,2-dimethyl-5-phenyl-3-pyrrolecarboxamide

> <PUBCHEM_IUPAC_NAME_MARKUP>
<I>N</I>-[3-[4-(2,3-dichlorophenyl)piperazin-1-yl]propyl]-1,2-dimethyl-5-phenylpyrrole-3-carboxamide

> <PUBCHEM_IUPAC_NAME>
N-[3-[4-(2,3-dichlorophenyl)piperazin-1-yl]propyl]-1,2-dimethyl-5-phenylpyrrole-3-carboxamide

> <PUBCHEM_IUPAC_SYSTEMATIC_NAME>
N-[3-[4-[2,3-bis(chloranyl)phenyl]piperazin-1-yl]propyl]-1,2-dimethyl-5-phenyl-pyrrole-3-carboxamide

> <PUBCHEM_IUPAC_TRADITIONAL_NAME>
N-[3-[4-(2,3-dichlorophenyl)piperazino]propyl]-1,2-dimethyl-5-phenyl-pyrrole-3-carboxamide

> <PUBCHEM_IUPAC_INCHI>
InChI=1S/C26H30Cl2N4O/c1-19-21(18-24(30(19)2)20-8-4-3-5-9-20)26(33)29-12-7-13-31-14-16-32(17-15-31)23-11-6-10-22(27)25(23)28/h3-6,8-11,18H,7,12-17H2,1-2H3,(H,29,33)

> <PUBCHEM_IUPAC_INCHIKEY>
YIHQDWZWZRGAIH-UHFFFAOYSA-N

> <PUBCHEM_XLOGP3_AA>
5.2

> <PUBCHEM_EXACT_MASS>
484.1796670

> <PUBCHEM_MOLECULAR_FORMULA>
C26H30Cl2N4O

> <PUBCHEM_MOLECULAR_WEIGHT>
485.4

> <PUBCHEM_OPENEYE_CAN_SMILES>
CC1=C(C=C(N1C)C2=CC=CC=C2)C(=O)NCCCN3CCN(CC3)C4=C(C(=CC=C4)Cl)Cl

> <PUBCHEM_OPENEYE_ISO_SMILES>
CC1=C(C=C(N1C)C2=CC=CC=C2)C(=O)NCCCN3CCN(CC3)C4=C(C(=CC=C4)Cl)Cl

> <PUBCHEM_CACTVS_TPSA>
40.5

> <PUBCHEM_MONOISOTOPIC_WEIGHT>
484.1796670

> <PUBCHEM_TOTAL_CHARGE>
0

> <PUBCHEM_HEAVY_ATOM_COUNT>
33

> <PUBCHEM_ATOM_DEF_STEREO_COUNT>
0

> <PUBCHEM_ATOM_UDEF_STEREO_COUNT>
0

> <PUBCHEM_BOND_DEF_STEREO_COUNT>
0

> <PUBCHEM_BOND_UDEF_STEREO_COUNT>
0

> <PUBCHEM_ISOTOPIC_ATOM_COUNT>
0

> <PUBCHEM_COMPONENT_COUNT>
1

> <PUBCHEM_CACTVS_TAUTO_COUNT>
-1

> <PUBCHEM_COORDINATE_TYPE>
1
5
255

> <PUBCHEM_BONDANNOTATIONS>
14  16  8
14  17  8
16  22  8
17  23  8
18  20  8
18  24  8
21  24  8
22  25  8
23  25  8
26  29  8
26  30  8
29  31  8
30  32  8
31  33  8
32  33  8
7  20  8
7  21  8

$$$$
