3246443
  -OEChem-09292322052D

 43 47  0     1  0  0  0  0  0999 V2000
    9.0431   -3.0309    0.0000 O   0  0  0  0  0  0  0  0  0  0  0  0
   10.4950   -2.1927    0.0000 O   0  0  0  0  0  0  0  0  0  0  0  0
    4.3576    2.6283    0.0000 O   0  0  0  0  0  0  0  0  0  0  0  0
    2.5381    1.5964    0.0000 O   0  0  0  0  0  0  0  0  0  0  0  0
    7.0772    1.0506    0.0000 N   0  0  3  0  0  0  0  0  0  0  0  0
    7.0772    0.0506    0.0000 C   0  0  1  0  0  0  0  0  0  0  0  0
    6.1832   -0.4840    0.0000 C   0  0  0  0  0  0  0  0  0  0  0  0
    7.9432   -0.4494    0.0000 C   0  0  0  0  0  0  0  0  0  0  0  0
    7.9432    1.5506    0.0000 C   0  0  0  0  0  0  0  0  0  0  0  0
    6.1832    1.5853    0.0000 C   0  0  0  0  0  0  0  0  0  0  0  0
    8.8092    1.0506    0.0000 C   0  0  0  0  0  0  0  0  0  0  0  0
    8.8092    0.0506    0.0000 C   0  0  0  0  0  0  0  0  0  0  0  0
    5.2772    0.0298    0.0000 C   0  0  0  0  0  0  0  0  0  0  0  0
    5.2772    1.0714    0.0000 C   0  0  0  0  0  0  0  0  0  0  0  0
    7.9271   -1.4909    0.0000 C   0  0  0  0  0  0  0  0  0  0  0  0
    9.7192   -0.4562    0.0000 C   0  0  0  0  0  0  0  0  0  0  0  0
    4.3460    1.6284    0.0000 C   0  0  0  0  0  0  0  0  0  0  0  0
    4.3460   -0.5271    0.0000 C   0  0  0  0  0  0  0  0  0  0  0  0
    8.8252   -2.0186    0.0000 C   0  0  0  0  0  0  0  0  0  0  0  0
    9.7272   -1.4978    0.0000 C   0  0  0  0  0  0  0  0  0  0  0  0
    3.4022    1.0931    0.0000 C   0  0  0  0  0  0  0  0  0  0  0  0
    3.4022    0.0081    0.0000 C   0  0  0  0  0  0  0  0  0  0  0  0
   10.0730   -3.1383    0.0000 C   0  0  0  0  0  0  0  0  0  0  0  0
    3.4974    3.1383    0.0000 C   0  0  0  0  0  0  0  0  0  0  0  0
    7.0837   -0.7994    0.0000 H   0  0  0  0  0  0  0  0  0  0  0  0
    5.7896   -0.9631    0.0000 H   0  0  0  0  0  0  0  0  0  0  0  0
    6.5878   -0.9538    0.0000 H   0  0  0  0  0  0  0  0  0  0  0  0
    8.3417    2.0256    0.0000 H   0  0  0  0  0  0  0  0  0  0  0  0
    7.5447    2.0256    0.0000 H   0  0  0  0  0  0  0  0  0  0  0  0
    6.5878    2.0551    0.0000 H   0  0  0  0  0  0  0  0  0  0  0  0
    5.7896    2.0643    0.0000 H   0  0  0  0  0  0  0  0  0  0  0  0
    9.4198    0.9430    0.0000 H   0  0  0  0  0  0  0  0  0  0  0  0
    9.0213    1.6332    0.0000 H   0  0  0  0  0  0  0  0  0  0  0  0
    7.3866   -1.7947    0.0000 H   0  0  0  0  0  0  0  0  0  0  0  0
   10.2525   -0.1400    0.0000 H   0  0  0  0  0  0  0  0  0  0  0  0
    4.3532   -1.1471    0.0000 H   0  0  0  0  0  0  0  0  0  0  0  0
    2.8665   -0.3039    0.0000 H   0  0  0  0  0  0  0  0  0  0  0  0
    9.9442   -3.7448    0.0000 H   0  0  0  0  0  0  0  0  0  0  0  0
   10.6626   -3.3300    0.0000 H   0  0  0  0  0  0  0  0  0  0  0  0
    2.0000    1.2885    0.0000 H   0  0  0  0  0  0  0  0  0  0  0  0
    3.8136    3.6716    0.0000 H   0  0  0  0  0  0  0  0  0  0  0  0
    2.9641    3.4544    0.0000 H   0  0  0  0  0  0  0  0  0  0  0  0
    3.1812    2.6050    0.0000 H   0  0  0  0  0  0  0  0  0  0  0  0
  1 19  1  0  0  0  0
  1 23  1  0  0  0  0
  2 20  1  0  0  0  0
  2 23  1  0  0  0  0
  3 17  1  0  0  0  0
  3 24  1  0  0  0  0
  4 21  1  0  0  0  0
  4 40  1  0  0  0  0
  5  6  1  0  0  0  0
  5  9  1  0  0  0  0
  5 10  1  0  0  0  0
  6  7  1  0  0  0  0
  6  8  1  0  0  0  0
  6 25  1  1  0  0  0
  7 13  1  0  0  0  0
  7 26  1  0  0  0  0
  7 27  1  0  0  0  0
  8 12  1  0  0  0  0
  8 15  2  0  0  0  0
  9 11  1  0  0  0  0
  9 28  1  0  0  0  0
  9 29  1  0  0  0  0
 10 14  1  0  0  0  0
 10 30  1  0  0  0  0
 10 31  1  0  0  0  0
 11 12  1  0  0  0  0
 11 32  1  0  0  0  0
 11 33  1  0  0  0  0
 12 16  2  0  0  0  0
 13 14  2  0  0  0  0
 13 18  1  0  0  0  0
 14 17  1  0  0  0  0
 15 19  1  0  0  0  0
 15 34  1  0  0  0  0
 16 20  1  0  0  0  0
 16 35  1  0  0  0  0
 17 21  2  0  0  0  0
 18 22  2  0  0  0  0
 18 36  1  0  0  0  0
 19 20  2  0  0  0  0
 21 22  1  0  0  0  0
 22 37  1  0  0  0  0
 23 38  1  0  0  0  0
 23 39  1  0  0  0  0
 24 41  1  0  0  0  0
 24 42  1  0  0  0  0
 24 43  1  0  0  0  0
M  END
> <PUBCHEM_COMPOUND_CID>
3246443

> <PUBCHEM_COMPOUND_CANONICALIZED>
1

> <PUBCHEM_CACTVS_COMPLEXITY>
474

> <PUBCHEM_CACTVS_HBOND_ACCEPTOR>
5

> <PUBCHEM_CACTVS_HBOND_DONOR>
1

> <PUBCHEM_CACTVS_ROTATABLE_BOND>
1

> <PUBCHEM_CACTVS_SUBSKEYS>
AAADceB6OAAAAAAAAAAAAAAAAAAAASAAAAA8eIEAAAAAAEixQAAAHgAACAAADCzBmAcyDoMABgCAAiBCAACCCAAgIAAIiAAOjIgdJiKGsRukcCtmwBGPuAew0PMOoAABAAAYQABAAAIAADCAAAAAAAAAAA==

> <PUBCHEM_IUPAC_OPENEYE_NAME>
(1S)-16-methoxy-5,7-dioxa-13-azapentacyclo[11.8.0.02,10.04,8.015,20]henicosa-2,4(8),9,15(20),16,18-hexaen-17-ol

> <PUBCHEM_IUPAC_CAS_NAME>
(1S)-16-methoxy-5,7-dioxa-13-azapentacyclo[11.8.0.02,10.04,8.015,20]heneicosa-2,4(8),9,15(20),16,18-hexaen-17-ol

> <PUBCHEM_IUPAC_NAME_MARKUP>
(1<I>S</I>)-16-methoxy-5,7-dioxa-13-azapentacyclo[11.8.0.0<SUP>2,10</SUP>.0<SUP>4,8</SUP>.0<SUP>15,20</SUP>]henicosa-2,4(8),9,15(20),16,18-hexaen-17-ol

> <PUBCHEM_IUPAC_NAME>
(1S)-16-methoxy-5,7-dioxa-13-azapentacyclo[11.8.0.02,10.04,8.015,20]henicosa-2,4(8),9,15(20),16,18-hexaen-17-ol

> <PUBCHEM_IUPAC_SYSTEMATIC_NAME>
(1S)-16-methoxy-5,7-dioxa-13-azapentacyclo[11.8.0.02,10.04,8.015,20]henicosa-2,4(8),9,15(20),16,18-hexaen-17-ol

> <PUBCHEM_IUPAC_TRADITIONAL_NAME>
(1S)-16-methoxy-5,7-dioxa-13-azapentacyclo[11.8.0.02,10.04,8.015,20]heneicosa-2,4(8),9,15(20),16,18-hexaen-17-ol

> <PUBCHEM_IUPAC_INCHI>
InChI=1S/C19H19NO4/c1-22-19-14-9-20-5-4-12-7-17-18(24-10-23-17)8-13(12)15(20)6-11(14)2-3-16(19)21/h2-3,7-8,15,21H,4-6,9-10H2,1H3/t15-/m0/s1

> <PUBCHEM_IUPAC_INCHIKEY>
TUTLRKKYUXPDGN-HNNXBMFYSA-N

> <PUBCHEM_XLOGP3_AA>
2.8

> <PUBCHEM_EXACT_MASS>
325.13140809

> <PUBCHEM_MOLECULAR_FORMULA>
C19H19NO4

> <PUBCHEM_MOLECULAR_WEIGHT>
325.4

> <PUBCHEM_OPENEYE_CAN_SMILES>
COC1=C(C=CC2=C1CN3CCC4=CC5=C(C=C4C3C2)OCO5)O

> <PUBCHEM_OPENEYE_ISO_SMILES>
COC1=C(C=CC2=C1CN3CCC4=CC5=C(C=C4[C@@H]3C2)OCO5)O

> <PUBCHEM_CACTVS_TPSA>
51.2

> <PUBCHEM_MONOISOTOPIC_WEIGHT>
325.13140809

> <PUBCHEM_TOTAL_CHARGE>
0

> <PUBCHEM_HEAVY_ATOM_COUNT>
24

> <PUBCHEM_ATOM_DEF_STEREO_COUNT>
1

> <PUBCHEM_ATOM_UDEF_STEREO_COUNT>
0

> <PUBCHEM_BOND_DEF_STEREO_COUNT>
0

> <PUBCHEM_BOND_UDEF_STEREO_COUNT>
0

> <PUBCHEM_ISOTOPIC_ATOM_COUNT>
0

> <PUBCHEM_COMPONENT_COUNT>
1

> <PUBCHEM_CACTVS_TAUTO_COUNT>
-1

> <PUBCHEM_COORDINATE_TYPE>
1
5
255

> <PUBCHEM_BONDANNOTATIONS>
12  16  8
13  14  8
13  18  8
14  17  8
15  19  8
16  20  8
17  21  8
18  22  8
19  20  8
21  22  8
6  25  5
8  12  8
8  15  8

$$$$
