9980998
  -OEChem-09292322042D

 55 58  0     0  0  0  0  0  0999 V2000
   13.7619   -2.6651    0.0000 Cl  0  0  0  0  0  0  0  0  0  0  0  0
   15.7619   -2.6651    0.0000 Cl  0  0  0  0  0  0  0  0  0  0  0  0
    4.6783    0.8603    0.0000 O   0  0  0  0  0  0  0  0  0  0  0  0
    6.7619    2.5311    0.0000 O   0  0  0  0  0  0  0  0  0  0  0  0
   10.7619   -0.9330    0.0000 N   0  0  0  0  0  0  0  0  0  0  0  0
   12.7619   -0.9330    0.0000 N   0  0  0  0  0  0  0  0  0  0  0  0
    6.7619    0.7990    0.0000 N   0  0  0  0  0  0  0  0  0  0  0  0
   11.2619   -0.0670    0.0000 C   0  0  0  0  0  0  0  0  0  0  0  0
   11.2619   -1.7990    0.0000 C   0  0  0  0  0  0  0  0  0  0  0  0
   12.2619   -0.0670    0.0000 C   0  0  0  0  0  0  0  0  0  0  0  0
   12.2619   -1.7990    0.0000 C   0  0  0  0  0  0  0  0  0  0  0  0
    9.7619   -0.9330    0.0000 C   0  0  0  0  0  0  0  0  0  0  0  0
    9.2619   -0.0670    0.0000 C   0  0  0  0  0  0  0  0  0  0  0  0
    8.2619   -0.0670    0.0000 C   0  0  0  0  0  0  0  0  0  0  0  0
   13.7619   -0.9330    0.0000 C   0  0  0  0  0  0  0  0  0  0  0  0
    7.7619    0.7990    0.0000 C   0  0  0  0  0  0  0  0  0  0  0  0
   14.2619   -1.7990    0.0000 C   0  0  0  0  0  0  0  0  0  0  0  0
   14.2619   -0.0670    0.0000 C   0  0  0  0  0  0  0  0  0  0  0  0
   15.2619   -1.7990    0.0000 C   0  0  0  0  0  0  0  0  0  0  0  0
   15.2619   -0.0670    0.0000 C   0  0  0  0  0  0  0  0  0  0  0  0
   15.7619   -0.9330    0.0000 C   0  0  0  0  0  0  0  0  0  0  0  0
    6.2619    1.6651    0.0000 C   0  0  0  0  0  0  0  0  0  0  0  0
    5.2619    1.6651    0.0000 C   0  0  0  0  0  0  0  0  0  0  0  0
    4.6783    2.4698    0.0000 C   0  0  0  0  0  0  0  0  0  0  0  0
    3.7320    2.1651    0.0000 C   0  0  0  0  0  0  0  0  0  0  0  0
    3.7320    1.1651    0.0000 C   0  0  0  0  0  0  0  0  0  0  0  0
    2.8660    2.6651    0.0000 C   0  0  0  0  0  0  0  0  0  0  0  0
    2.8660    0.6651    0.0000 C   0  0  0  0  0  0  0  0  0  0  0  0
    2.0000    2.1651    0.0000 C   0  0  0  0  0  0  0  0  0  0  0  0
    2.0000    1.1651    0.0000 C   0  0  0  0  0  0  0  0  0  0  0  0
   11.3695    0.5436    0.0000 H   0  0  0  0  0  0  0  0  0  0  0  0
   10.6793    0.1451    0.0000 H   0  0  0  0  0  0  0  0  0  0  0  0
   10.6793   -2.0111    0.0000 H   0  0  0  0  0  0  0  0  0  0  0  0
   11.3695   -2.4096    0.0000 H   0  0  0  0  0  0  0  0  0  0  0  0
   12.8445    0.1451    0.0000 H   0  0  0  0  0  0  0  0  0  0  0  0
   12.1542    0.5436    0.0000 H   0  0  0  0  0  0  0  0  0  0  0  0
   12.1542   -2.4096    0.0000 H   0  0  0  0  0  0  0  0  0  0  0  0
   12.8445   -2.0111    0.0000 H   0  0  0  0  0  0  0  0  0  0  0  0
    9.1793   -1.1451    0.0000 H   0  0  0  0  0  0  0  0  0  0  0  0
    9.8695   -1.5436    0.0000 H   0  0  0  0  0  0  0  0  0  0  0  0
    9.8445    0.1451    0.0000 H   0  0  0  0  0  0  0  0  0  0  0  0
    9.1542    0.5436    0.0000 H   0  0  0  0  0  0  0  0  0  0  0  0
    7.6793   -0.2790    0.0000 H   0  0  0  0  0  0  0  0  0  0  0  0
    8.3695   -0.6776    0.0000 H   0  0  0  0  0  0  0  0  0  0  0  0
    8.3445    1.0111    0.0000 H   0  0  0  0  0  0  0  0  0  0  0  0
    7.6542    1.4096    0.0000 H   0  0  0  0  0  0  0  0  0  0  0  0
   13.9519    0.4699    0.0000 H   0  0  0  0  0  0  0  0  0  0  0  0
    6.4519    0.2621    0.0000 H   0  0  0  0  0  0  0  0  0  0  0  0
   15.5719    0.4699    0.0000 H   0  0  0  0  0  0  0  0  0  0  0  0
   16.3819   -0.9330    0.0000 H   0  0  0  0  0  0  0  0  0  0  0  0
    4.8709    3.0591    0.0000 H   0  0  0  0  0  0  0  0  0  0  0  0
    2.8660    3.2851    0.0000 H   0  0  0  0  0  0  0  0  0  0  0  0
    2.8660    0.0451    0.0000 H   0  0  0  0  0  0  0  0  0  0  0  0
    1.4631    2.4751    0.0000 H   0  0  0  0  0  0  0  0  0  0  0  0
    1.4631    0.8551    0.0000 H   0  0  0  0  0  0  0  0  0  0  0  0
  1 17  1  0  0  0  0
  2 19  1  0  0  0  0
  3 23  1  0  0  0  0
  3 26  1  0  0  0  0
  4 22  2  0  0  0  0
  5  8  1  0  0  0  0
  5  9  1  0  0  0  0
  5 12  1  0  0  0  0
  6 10  1  0  0  0  0
  6 11  1  0  0  0  0
  6 15  1  0  0  0  0
  7 16  1  0  0  0  0
  7 22  1  0  0  0  0
  7 48  1  0  0  0  0
  8 10  1  0  0  0  0
  8 31  1  0  0  0  0
  8 32  1  0  0  0  0
  9 11  1  0  0  0  0
  9 33  1  0  0  0  0
  9 34  1  0  0  0  0
 10 35  1  0  0  0  0
 10 36  1  0  0  0  0
 11 37  1  0  0  0  0
 11 38  1  0  0  0  0
 12 13  1  0  0  0  0
 12 39  1  0  0  0  0
 12 40  1  0  0  0  0
 13 14  1  0  0  0  0
 13 41  1  0  0  0  0
 13 42  1  0  0  0  0
 14 16  1  0  0  0  0
 14 43  1  0  0  0  0
 14 44  1  0  0  0  0
 15 17  2  0  0  0  0
 15 18  1  0  0  0  0
 16 45  1  0  0  0  0
 16 46  1  0  0  0  0
 17 19  1  0  0  0  0
 18 20  2  0  0  0  0
 18 47  1  0  0  0  0
 19 21  2  0  0  0  0
 20 21  1  0  0  0  0
 20 49  1  0  0  0  0
 21 50  1  0  0  0  0
 22 23  1  0  0  0  0
 23 24  2  0  0  0  0
 24 25  1  0  0  0  0
 24 51  1  0  0  0  0
 25 26  1  0  0  0  0
 25 27  2  0  0  0  0
 26 28  2  0  0  0  0
 27 29  1  0  0  0  0
 27 52  1  0  0  0  0
 28 30  1  0  0  0  0
 28 53  1  0  0  0  0
 29 30  2  0  0  0  0
 29 54  1  0  0  0  0
 30 55  1  0  0  0  0
M  END
> <PUBCHEM_COMPOUND_CID>
9980998

> <PUBCHEM_COMPOUND_CANONICALIZED>
1

> <PUBCHEM_CACTVS_COMPLEXITY>
559

> <PUBCHEM_CACTVS_HBOND_ACCEPTOR>
4

> <PUBCHEM_CACTVS_HBOND_DONOR>
1

> <PUBCHEM_CACTVS_ROTATABLE_BOND>
7

> <PUBCHEM_CACTVS_SUBSKEYS>
AAADceB7MAAGAAAAAAAAAAAAAAAAASAAAAA8YIAAAAAAAEgB9AAAHgIQAAAADA7BmCQwxsPABECIAqVSUAKCCAAlJwAIisHObsgOZjLFt7/XOSjk1hHY6YeY36LuAAAAAAIIABQAAAAABBAAKAAAAAAAAA==

> <PUBCHEM_IUPAC_OPENEYE_NAME>
N-[4-[4-(2,3-dichlorophenyl)piperazin-1-yl]butyl]benzofuran-2-carboxamide

> <PUBCHEM_IUPAC_CAS_NAME>
N-[4-[4-(2,3-dichlorophenyl)-1-piperazinyl]butyl]-2-benzofurancarboxamide

> <PUBCHEM_IUPAC_NAME_MARKUP>
<I>N</I>-[4-[4-(2,3-dichlorophenyl)piperazin-1-yl]butyl]-1-benzofuran-2-carboxamide

> <PUBCHEM_IUPAC_NAME>
N-[4-[4-(2,3-dichlorophenyl)piperazin-1-yl]butyl]-1-benzofuran-2-carboxamide

> <PUBCHEM_IUPAC_SYSTEMATIC_NAME>
N-[4-[4-[2,3-bis(chloranyl)phenyl]piperazin-1-yl]butyl]-1-benzofuran-2-carboxamide

> <PUBCHEM_IUPAC_TRADITIONAL_NAME>
N-[4-[4-(2,3-dichlorophenyl)piperazino]butyl]coumarilamide

> <PUBCHEM_IUPAC_INCHI>
InChI=1S/C23H25Cl2N3O2/c24-18-7-5-8-19(22(18)25)28-14-12-27(13-15-28)11-4-3-10-26-23(29)21-16-17-6-1-2-9-20(17)30-21/h1-2,5-9,16H,3-4,10-15H2,(H,26,29)

> <PUBCHEM_IUPAC_INCHIKEY>
YJYMXCFUNVLJOC-UHFFFAOYSA-N

> <PUBCHEM_XLOGP3_AA>
5.5

> <PUBCHEM_EXACT_MASS>
445.1323824

> <PUBCHEM_MOLECULAR_FORMULA>
C23H25Cl2N3O2

> <PUBCHEM_MOLECULAR_WEIGHT>
446.4

> <PUBCHEM_OPENEYE_CAN_SMILES>
C1CN(CCN1CCCCNC(=O)C2=CC3=CC=CC=C3O2)C4=C(C(=CC=C4)Cl)Cl

> <PUBCHEM_OPENEYE_ISO_SMILES>
C1CN(CCN1CCCCNC(=O)C2=CC3=CC=CC=C3O2)C4=C(C(=CC=C4)Cl)Cl

> <PUBCHEM_CACTVS_TPSA>
48.7

> <PUBCHEM_MONOISOTOPIC_WEIGHT>
445.1323824

> <PUBCHEM_TOTAL_CHARGE>
0

> <PUBCHEM_HEAVY_ATOM_COUNT>
30

> <PUBCHEM_ATOM_DEF_STEREO_COUNT>
0

> <PUBCHEM_ATOM_UDEF_STEREO_COUNT>
0

> <PUBCHEM_BOND_DEF_STEREO_COUNT>
0

> <PUBCHEM_BOND_UDEF_STEREO_COUNT>
0

> <PUBCHEM_ISOTOPIC_ATOM_COUNT>
0

> <PUBCHEM_COMPONENT_COUNT>
1

> <PUBCHEM_CACTVS_TAUTO_COUNT>
-1

> <PUBCHEM_COORDINATE_TYPE>
1
5
255

> <PUBCHEM_BONDANNOTATIONS>
15  17  8
15  18  8
17  19  8
18  20  8
19  21  8
20  21  8
23  24  8
24  25  8
25  26  8
25  27  8
26  28  8
27  29  8
28  30  8
29  30  8
3  23  8
3  26  8

$$$$
