127047899
  -OEChem-09292322372D

 60 63  0     0  0  0  0  0  0999 V2000
    8.4530   -2.2570    0.0000 S   0  0  0  0  0  0  0  0  0  0  0  0
    8.9282    3.9982    0.0000 F   0  0  0  0  0  0  0  0  0  0  0  0
    7.5622    4.3643    0.0000 F   0  0  0  0  0  0  0  0  0  0  0  0
    8.5622    2.6322    0.0000 F   0  0  0  0  0  0  0  0  0  0  0  0
    9.4035   -1.9464    0.0000 O   0  0  0  0  0  0  0  0  0  0  0  0
    7.5025   -2.5677    0.0000 O   0  0  0  0  0  0  0  0  0  0  0  0
    4.5981   -1.5018    0.0000 N   0  0  0  0  0  0  0  0  0  0  0  0
    2.8660   -2.5018    0.0000 N   0  0  0  0  0  0  0  0  0  0  0  0
    8.1424   -1.3065    0.0000 N   0  0  0  0  0  0  0  0  0  0  0  0
    6.3301   -1.5018    0.0000 N   0  0  0  0  0  0  0  0  0  0  0  0
    4.5981   -2.5018    0.0000 C   0  0  0  0  0  0  0  0  0  0  0  0
    3.7320   -1.0018    0.0000 C   0  0  0  0  0  0  0  0  0  0  0  0
    3.7320   -3.0018    0.0000 C   0  0  0  0  0  0  0  0  0  0  0  0
    2.8660   -1.5018    0.0000 C   0  0  0  0  0  0  0  0  0  0  0  0
    5.4641   -1.0018    0.0000 C   0  0  0  0  0  0  0  0  0  0  0  0
    7.1962   -1.0018    0.0000 C   0  0  0  0  0  0  0  0  0  0  0  0
    7.1962   -0.0018    0.0000 C   0  0  0  0  0  0  0  0  0  0  0  0
    8.7637   -3.2075    0.0000 C   0  0  0  0  0  0  0  0  0  0  0  0
    6.3301    0.4982    0.0000 C   0  0  0  0  0  0  0  0  0  0  0  0
    9.7422   -3.4138    0.0000 C   0  0  0  0  0  0  0  0  0  0  0  0
    5.4641   -0.0018    0.0000 C   0  0  0  0  0  0  0  0  0  0  0  0
    8.7260   -0.5018    0.0000 C   0  0  0  0  0  0  0  0  0  0  0  0
    8.1424    0.3030    0.0000 C   0  0  0  0  0  0  0  0  0  0  0  0
    2.0000   -3.0018    0.0000 C   0  0  0  0  0  0  0  0  0  0  0  0
    6.3301    1.4982    0.0000 C   0  0  0  0  0  0  0  0  0  0  0  0
   10.0529   -4.3643    0.0000 C   0  0  0  0  0  0  0  0  0  0  0  0
   10.4100   -2.6694    0.0000 C   0  0  0  0  0  0  0  0  0  0  0  0
    7.1962    1.9982    0.0000 C   0  0  0  0  0  0  0  0  0  0  0  0
    5.4641    1.9982    0.0000 C   0  0  0  0  0  0  0  0  0  0  0  0
    7.1962    2.9982    0.0000 C   0  0  0  0  0  0  0  0  0  0  0  0
    5.4641    2.9982    0.0000 C   0  0  0  0  0  0  0  0  0  0  0  0
    6.3301    3.4982    0.0000 C   0  0  0  0  0  0  0  0  0  0  0  0
    8.0622    3.4982    0.0000 C   0  0  0  0  0  0  0  0  0  0  0  0
    4.8101   -3.0844    0.0000 H   0  0  0  0  0  0  0  0  0  0  0  0
    5.2087   -2.3941    0.0000 H   0  0  0  0  0  0  0  0  0  0  0  0
    4.1306   -0.5268    0.0000 H   0  0  0  0  0  0  0  0  0  0  0  0
    3.3335   -0.5268    0.0000 H   0  0  0  0  0  0  0  0  0  0  0  0
    3.3335   -3.4767    0.0000 H   0  0  0  0  0  0  0  0  0  0  0  0
    4.1306   -3.4767    0.0000 H   0  0  0  0  0  0  0  0  0  0  0  0
    2.6540   -0.9191    0.0000 H   0  0  0  0  0  0  0  0  0  0  0  0
    2.2554   -1.6094    0.0000 H   0  0  0  0  0  0  0  0  0  0  0  0
    8.1499   -3.2949    0.0000 H   0  0  0  0  0  0  0  0  0  0  0  0
    8.7431   -3.8272    0.0000 H   0  0  0  0  0  0  0  0  0  0  0  0
    9.5496   -2.8244    0.0000 H   0  0  0  0  0  0  0  0  0  0  0  0
    4.9272    0.3082    0.0000 H   0  0  0  0  0  0  0  0  0  0  0  0
    9.3460   -0.5018    0.0000 H   0  0  0  0  0  0  0  0  0  0  0  0
    8.3350    0.8923    0.0000 H   0  0  0  0  0  0  0  0  0  0  0  0
    1.6900   -2.4648    0.0000 H   0  0  0  0  0  0  0  0  0  0  0  0
    1.4631   -3.3118    0.0000 H   0  0  0  0  0  0  0  0  0  0  0  0
    2.3100   -3.5387    0.0000 H   0  0  0  0  0  0  0  0  0  0  0  0
    9.4635   -4.5569    0.0000 H   0  0  0  0  0  0  0  0  0  0  0  0
   10.2455   -4.9536    0.0000 H   0  0  0  0  0  0  0  0  0  0  0  0
   10.6422   -4.1717    0.0000 H   0  0  0  0  0  0  0  0  0  0  0  0
   10.8715   -3.0835    0.0000 H   0  0  0  0  0  0  0  0  0  0  0  0
   10.8241   -2.2080    0.0000 H   0  0  0  0  0  0  0  0  0  0  0  0
    9.9486   -2.2554    0.0000 H   0  0  0  0  0  0  0  0  0  0  0  0
    7.7331    1.6882    0.0000 H   0  0  0  0  0  0  0  0  0  0  0  0
    4.9272    1.6882    0.0000 H   0  0  0  0  0  0  0  0  0  0  0  0
    4.9272    3.3082    0.0000 H   0  0  0  0  0  0  0  0  0  0  0  0
    6.3301    4.1182    0.0000 H   0  0  0  0  0  0  0  0  0  0  0  0
  1  5  2  0  0  0  0
  1  6  2  0  0  0  0
  1  9  1  0  0  0  0
  1 18  1  0  0  0  0
  2 33  1  0  0  0  0
  3 33  1  0  0  0  0
  4 33  1  0  0  0  0
  7 11  1  0  0  0  0
  7 12  1  0  0  0  0
  7 15  1  0  0  0  0
  8 13  1  0  0  0  0
  8 14  1  0  0  0  0
  8 24  1  0  0  0  0
  9 16  1  0  0  0  0
  9 22  1  0  0  0  0
 10 15  2  0  0  0  0
 10 16  1  0  0  0  0
 11 13  1  0  0  0  0
 11 34  1  0  0  0  0
 11 35  1  0  0  0  0
 12 14  1  0  0  0  0
 12 36  1  0  0  0  0
 12 37  1  0  0  0  0
 13 38  1  0  0  0  0
 13 39  1  0  0  0  0
 14 40  1  0  0  0  0
 14 41  1  0  0  0  0
 15 21  1  0  0  0  0
 16 17  2  0  0  0  0
 17 19  1  0  0  0  0
 17 23  1  0  0  0  0
 18 20  1  0  0  0  0
 18 42  1  0  0  0  0
 18 43  1  0  0  0  0
 19 21  2  0  0  0  0
 19 25  1  0  0  0  0
 20 26  1  0  0  0  0
 20 27  1  0  0  0  0
 20 44  1  0  0  0  0
 21 45  1  0  0  0  0
 22 23  2  0  0  0  0
 22 46  1  0  0  0  0
 23 47  1  0  0  0  0
 24 48  1  0  0  0  0
 24 49  1  0  0  0  0
 24 50  1  0  0  0  0
 25 28  2  0  0  0  0
 25 29  1  0  0  0  0
 26 51  1  0  0  0  0
 26 52  1  0  0  0  0
 26 53  1  0  0  0  0
 27 54  1  0  0  0  0
 27 55  1  0  0  0  0
 27 56  1  0  0  0  0
 28 30  1  0  0  0  0
 28 57  1  0  0  0  0
 29 31  2  0  0  0  0
 29 58  1  0  0  0  0
 30 32  2  0  0  0  0
 30 33  1  0  0  0  0
 31 32  1  0  0  0  0
 31 59  1  0  0  0  0
 32 60  1  0  0  0  0
M  END
> <PUBCHEM_COMPOUND_CID>
127047899

> <PUBCHEM_COMPOUND_CANONICALIZED>
1

> <PUBCHEM_CACTVS_COMPLEXITY>
765

> <PUBCHEM_CACTVS_HBOND_ACCEPTOR>
8

> <PUBCHEM_CACTVS_HBOND_DONOR>
0

> <PUBCHEM_CACTVS_ROTATABLE_BOND>
5

> <PUBCHEM_CACTVS_SUBSKEYS>
AAADceB7sYBAAAAAAAAAAAAAAAAAAWAAAAA8WIAAAAAAAFgB/AAAHQQAQAAADQDFWxS/sN8IEAKgAjJnZHDCgCkxAqAJ2CA4ZJiIaOLAmZGUIAhogALIyCcQgMAOgAACAAAAAAAAAAQAAAAAAAAAAAAAAA==

> <PUBCHEM_IUPAC_OPENEYE_NAME>
1-isobutylsulfonyl-6-(4-methylpiperazin-1-yl)-4-[3-(trifluoromethyl)phenyl]pyrrolo[2,3-b]pyridine

> <PUBCHEM_IUPAC_CAS_NAME>
6-(4-methyl-1-piperazinyl)-1-(2-methylpropylsulfonyl)-4-[3-(trifluoromethyl)phenyl]pyrrolo[2,3-b]pyridine

> <PUBCHEM_IUPAC_NAME_MARKUP>
6-(4-methylpiperazin-1-yl)-1-(2-methylpropylsulfonyl)-4-[3-(trifluoromethyl)phenyl]pyrrolo[2,3-b]pyridine

> <PUBCHEM_IUPAC_NAME>
6-(4-methylpiperazin-1-yl)-1-(2-methylpropylsulfonyl)-4-[3-(trifluoromethyl)phenyl]pyrrolo[2,3-b]pyridine

> <PUBCHEM_IUPAC_SYSTEMATIC_NAME>
6-(4-methylpiperazin-1-yl)-1-(2-methylpropylsulfonyl)-4-[3-(trifluoromethyl)phenyl]pyrrolo[2,3-b]pyridine

> <PUBCHEM_IUPAC_TRADITIONAL_NAME>
1-isobutylsulfonyl-6-(4-methylpiperazino)-4-[3-(trifluoromethyl)phenyl]pyrrolo[2,3-b]pyridine

> <PUBCHEM_IUPAC_INCHI>
InChI=1S/C23H27F3N4O2S/c1-16(2)15-33(31,32)30-8-7-19-20(17-5-4-6-18(13-17)23(24,25)26)14-21(27-22(19)30)29-11-9-28(3)10-12-29/h4-8,13-14,16H,9-12,15H2,1-3H3

> <PUBCHEM_IUPAC_INCHIKEY>
XMZPXAYYBORJQQ-UHFFFAOYSA-N

> <PUBCHEM_XLOGP3_AA>
5

> <PUBCHEM_EXACT_MASS>
480.18068178

> <PUBCHEM_MOLECULAR_FORMULA>
C23H27F3N4O2S

> <PUBCHEM_MOLECULAR_WEIGHT>
480.5

> <PUBCHEM_OPENEYE_CAN_SMILES>
CC(C)CS(=O)(=O)N1C=CC2=C1N=C(C=C2C3=CC(=CC=C3)C(F)(F)F)N4CCN(CC4)C

> <PUBCHEM_OPENEYE_ISO_SMILES>
CC(C)CS(=O)(=O)N1C=CC2=C1N=C(C=C2C3=CC(=CC=C3)C(F)(F)F)N4CCN(CC4)C

> <PUBCHEM_CACTVS_TPSA>
66.8

> <PUBCHEM_MONOISOTOPIC_WEIGHT>
480.18068178

> <PUBCHEM_TOTAL_CHARGE>
0

> <PUBCHEM_HEAVY_ATOM_COUNT>
33

> <PUBCHEM_ATOM_DEF_STEREO_COUNT>
0

> <PUBCHEM_ATOM_UDEF_STEREO_COUNT>
0

> <PUBCHEM_BOND_DEF_STEREO_COUNT>
0

> <PUBCHEM_BOND_UDEF_STEREO_COUNT>
0

> <PUBCHEM_ISOTOPIC_ATOM_COUNT>
0

> <PUBCHEM_COMPONENT_COUNT>
1

> <PUBCHEM_CACTVS_TAUTO_COUNT>
-1

> <PUBCHEM_COORDINATE_TYPE>
1
5
255

> <PUBCHEM_BONDANNOTATIONS>
10  15  8
10  16  8
15  21  8
16  17  8
17  19  8
17  23  8
19  21  8
22  23  8
25  28  8
25  29  8
28  30  8
29  31  8
30  32  8
31  32  8
9  16  8
9  22  8

$$$$
