71451458
  -OEChem-09292322332D

 50 52  0     1  0  0  0  0  0999 V2000
    2.0000   -4.3783    0.0000 Cl  0  0  0  0  0  0  0  0  0  0  0  0
    3.7320   -1.3783    0.0000 S   0  0  0  0  0  0  0  0  0  0  0  0
    8.6643    1.6377    0.0000 S   0  0  0  0  0  0  0  0  0  0  0  0
    7.4888    3.2557    0.0000 O   0  0  0  0  0  0  0  0  0  0  0  0
    4.7320   -1.3783    0.0000 O   0  0  0  0  0  0  0  0  0  0  0  0
    2.7320   -1.3783    0.0000 O   0  0  0  0  0  0  0  0  0  0  0  0
    5.6808    1.3241    0.0000 N   0  0  3  0  0  0  0  0  0  0  0  0
    3.7320   -0.3783    0.0000 N   0  0  0  0  0  0  0  0  0  0  0  0
    4.5981    0.1217    0.0000 C   0  0  3  0  0  0  0  0  0  0  0  0
    5.5116   -0.2851    0.0000 C   0  0  0  0  0  0  0  0  0  0  0  0
    4.7026    1.1162    0.0000 C   0  0  0  0  0  0  0  0  0  0  0  0
    6.1808    0.4581    0.0000 C   0  0  0  0  0  0  0  0  0  0  0  0
    6.0875    2.2376    0.0000 C   0  0  0  0  0  0  0  0  0  0  0  0
    7.0820    2.3422    0.0000 C   0  0  0  0  0  0  0  0  0  0  0  0
    3.7320   -2.3783    0.0000 C   0  0  0  0  0  0  0  0  0  0  0  0
    2.8660   -2.8783    0.0000 C   0  0  0  0  0  0  0  0  0  0  0  0
    4.5981   -2.8783    0.0000 C   0  0  0  0  0  0  0  0  0  0  0  0
    8.4833    3.3602    0.0000 C   0  0  0  0  0  0  0  0  0  0  0  0
    2.8660   -3.8783    0.0000 C   0  0  0  0  0  0  0  0  0  0  0  0
    4.5981   -3.8783    0.0000 C   0  0  0  0  0  0  0  0  0  0  0  0
    3.7320   -4.3783    0.0000 C   0  0  0  0  0  0  0  0  0  0  0  0
    9.0710    2.5512    0.0000 C   0  0  0  0  0  0  0  0  0  0  0  0
    8.8900    4.2738    0.0000 C   0  0  0  0  0  0  0  0  0  0  0  0
   10.0656    2.6558    0.0000 C   0  0  0  0  0  0  0  0  0  0  0  0
    9.8845    4.3783    0.0000 C   0  0  0  0  0  0  0  0  0  0  0  0
   10.4723    3.5693    0.0000 C   0  0  0  0  0  0  0  0  0  0  0  0
    9.2521    0.8287    0.0000 C   0  0  0  0  0  0  0  0  0  0  0  0
    4.0781    0.4593    0.0000 H   0  0  0  0  0  0  0  0  0  0  0  0
    5.2016   -0.8220    0.0000 H   0  0  0  0  0  0  0  0  0  0  0  0
    6.0132   -0.6495    0.0000 H   0  0  0  0  0  0  0  0  0  0  0  0
    4.6378    1.7328    0.0000 H   0  0  0  0  0  0  0  0  0  0  0  0
    4.0826    1.1162    0.0000 H   0  0  0  0  0  0  0  0  0  0  0  0
    6.5956   -0.0027    0.0000 H   0  0  0  0  0  0  0  0  0  0  0  0
    6.6823    0.8225    0.0000 H   0  0  0  0  0  0  0  0  0  0  0  0
    6.1307    2.8561    0.0000 H   0  0  0  0  0  0  0  0  0  0  0  0
    5.4859    2.3876    0.0000 H   0  0  0  0  0  0  0  0  0  0  0  0
    3.1951   -0.0683    0.0000 H   0  0  0  0  0  0  0  0  0  0  0  0
    7.0388    1.7237    0.0000 H   0  0  0  0  0  0  0  0  0  0  0  0
    7.6836    2.1922    0.0000 H   0  0  0  0  0  0  0  0  0  0  0  0
    2.3291   -2.5683    0.0000 H   0  0  0  0  0  0  0  0  0  0  0  0
    5.1350   -2.5683    0.0000 H   0  0  0  0  0  0  0  0  0  0  0  0
    5.1350   -4.1883    0.0000 H   0  0  0  0  0  0  0  0  0  0  0  0
    3.7320   -4.9983    0.0000 H   0  0  0  0  0  0  0  0  0  0  0  0
    8.5256    4.7754    0.0000 H   0  0  0  0  0  0  0  0  0  0  0  0
   10.4300    2.1542    0.0000 H   0  0  0  0  0  0  0  0  0  0  0  0
   10.1367    4.9447    0.0000 H   0  0  0  0  0  0  0  0  0  0  0  0
   11.0889    3.6341    0.0000 H   0  0  0  0  0  0  0  0  0  0  0  0
    8.7505    0.4642    0.0000 H   0  0  0  0  0  0  0  0  0  0  0  0
    9.6165    0.3271    0.0000 H   0  0  0  0  0  0  0  0  0  0  0  0
    9.7537    1.1931    0.0000 H   0  0  0  0  0  0  0  0  0  0  0  0
  1 19  1  0  0  0  0
  2  5  2  0  0  0  0
  2  6  2  0  0  0  0
  2  8  1  0  0  0  0
  2 15  1  0  0  0  0
  3 22  1  0  0  0  0
  3 27  1  0  0  0  0
  4 14  1  0  0  0  0
  4 18  1  0  0  0  0
  7 11  1  0  0  0  0
  7 12  1  0  0  0  0
  7 13  1  0  0  0  0
  8  9  1  0  0  0  0
  8 37  1  0  0  0  0
  9 10  1  0  0  0  0
  9 11  1  0  0  0  0
  9 28  1  0  0  0  0
 10 12  1  0  0  0  0
 10 29  1  0  0  0  0
 10 30  1  0  0  0  0
 11 31  1  0  0  0  0
 11 32  1  0  0  0  0
 12 33  1  0  0  0  0
 12 34  1  0  0  0  0
 13 14  1  0  0  0  0
 13 35  1  0  0  0  0
 13 36  1  0  0  0  0
 14 38  1  0  0  0  0
 14 39  1  0  0  0  0
 15 16  2  0  0  0  0
 15 17  1  0  0  0  0
 16 19  1  0  0  0  0
 16 40  1  0  0  0  0
 17 20  2  0  0  0  0
 17 41  1  0  0  0  0
 18 22  1  0  0  0  0
 18 23  2  0  0  0  0
 19 21  2  0  0  0  0
 20 21  1  0  0  0  0
 20 42  1  0  0  0  0
 21 43  1  0  0  0  0
 22 24  2  0  0  0  0
 23 25  1  0  0  0  0
 23 44  1  0  0  0  0
 24 26  1  0  0  0  0
 24 45  1  0  0  0  0
 25 26  2  0  0  0  0
 25 46  1  0  0  0  0
 26 47  1  0  0  0  0
 27 48  1  0  0  0  0
 27 49  1  0  0  0  0
 27 50  1  0  0  0  0
M  END
> <PUBCHEM_COMPOUND_CID>
71451458

> <PUBCHEM_COMPOUND_CANONICALIZED>
1

> <PUBCHEM_CACTVS_COMPLEXITY>
558

> <PUBCHEM_CACTVS_HBOND_ACCEPTOR>
6

> <PUBCHEM_CACTVS_HBOND_DONOR>
1

> <PUBCHEM_CACTVS_ROTATABLE_BOND>
8

> <PUBCHEM_CACTVS_SUBSKEYS>
AAADceB7MABkAAAAAAAAAAAAAAAAAWAAAAAwYAAAAAAAAAABQAAAHgYQQAAACC7h0CayB4NABAqAACBCAHBCCBAgLRAIiJoOCogOZiKl8xqXOCCk0BGYqAeAQAAAAAAAABAAIAAAAAAAIABAAAAAAAAAAA==

> <PUBCHEM_IUPAC_OPENEYE_NAME>
3-chloro-N-[1-[2-(2-methylsulfanylphenoxy)ethyl]pyrrolidin-3-yl]benzenesulfonamide

> <PUBCHEM_IUPAC_CAS_NAME>
3-chloro-N-[1-[2-[2-(methylthio)phenoxy]ethyl]-3-pyrrolidinyl]benzenesulfonamide

> <PUBCHEM_IUPAC_NAME_MARKUP>
3-chloro-<I>N</I>-[1-[2-(2-methylsulfanylphenoxy)ethyl]pyrrolidin-3-yl]benzenesulfonamide

> <PUBCHEM_IUPAC_NAME>
3-chloro-N-[1-[2-(2-methylsulfanylphenoxy)ethyl]pyrrolidin-3-yl]benzenesulfonamide

> <PUBCHEM_IUPAC_SYSTEMATIC_NAME>
3-chloranyl-N-[1-[2-(2-methylsulfanylphenoxy)ethyl]pyrrolidin-3-yl]benzenesulfonamide

> <PUBCHEM_IUPAC_TRADITIONAL_NAME>
3-chloro-N-[1-[2-[2-(methylthio)phenoxy]ethyl]pyrrolidin-3-yl]benzenesulfonamide

> <PUBCHEM_IUPAC_INCHI>
InChI=1S/C19H23ClN2O3S2/c1-26-19-8-3-2-7-18(19)25-12-11-22-10-9-16(14-22)21-27(23,24)17-6-4-5-15(20)13-17/h2-8,13,16,21H,9-12,14H2,1H3

> <PUBCHEM_IUPAC_INCHIKEY>
KGZLHIUAOKRDKJ-UHFFFAOYSA-N

> <PUBCHEM_XLOGP3_AA>
3.9

> <PUBCHEM_EXACT_MASS>
426.0838626

> <PUBCHEM_MOLECULAR_FORMULA>
C19H23ClN2O3S2

> <PUBCHEM_MOLECULAR_WEIGHT>
427.0

> <PUBCHEM_OPENEYE_CAN_SMILES>
CSC1=CC=CC=C1OCCN2CCC(C2)NS(=O)(=O)C3=CC(=CC=C3)Cl

> <PUBCHEM_OPENEYE_ISO_SMILES>
CSC1=CC=CC=C1OCCN2CCC(C2)NS(=O)(=O)C3=CC(=CC=C3)Cl

> <PUBCHEM_CACTVS_TPSA>
92.3

> <PUBCHEM_MONOISOTOPIC_WEIGHT>
426.0838626

> <PUBCHEM_TOTAL_CHARGE>
0

> <PUBCHEM_HEAVY_ATOM_COUNT>
27

> <PUBCHEM_ATOM_DEF_STEREO_COUNT>
0

> <PUBCHEM_ATOM_UDEF_STEREO_COUNT>
1

> <PUBCHEM_BOND_DEF_STEREO_COUNT>
0

> <PUBCHEM_BOND_UDEF_STEREO_COUNT>
0

> <PUBCHEM_ISOTOPIC_ATOM_COUNT>
0

> <PUBCHEM_COMPONENT_COUNT>
1

> <PUBCHEM_CACTVS_TAUTO_COUNT>
-1

> <PUBCHEM_COORDINATE_TYPE>
1
5
255

> <PUBCHEM_BONDANNOTATIONS>
15  16  8
15  17  8
16  19  8
17  20  8
18  22  8
18  23  8
19  21  8
20  21  8
22  24  8
23  25  8
24  26  8
25  26  8
9  8  3

$$$$
