11307899
  -OEChem-09292322122D

 83 89  0     1  0  0  0  0  0999 V2000
    6.3681    1.2798    0.0000 O   0  0  0  0  0  0  0  0  0  0  0  0
    5.3458    1.8575    0.0000 O   0  0  0  0  0  0  0  0  0  0  0  0
    8.8301    2.0468    0.0000 O   0  0  0  0  0  0  0  0  0  0  0  0
    6.5598    5.2525    0.0000 O   0  0  0  0  0  0  0  0  0  0  0  0
    7.3491   -0.9223    0.0000 O   0  0  0  0  0  0  0  0  0  0  0  0
    7.1697    2.6780    0.0000 N   0  0  0  0  0  0  0  0  0  0  0  0
    5.5472    3.8473    0.0000 N   0  0  0  0  0  0  0  0  0  0  0  0
    8.2093    0.5811    0.0000 N   0  0  0  0  0  0  0  0  0  0  0  0
   10.8812   -0.9225    0.0000 N   0  0  3  0  0  0  0  0  0  0  0  0
   11.8693   -5.1127    0.0000 N   0  0  0  0  0  0  0  0  0  0  0  0
    6.2578    2.2678    0.0000 C   0  0  2  0  0  0  0  0  0  0  0  0
    5.4465    2.8524    0.0000 C   0  0  2  0  0  0  0  0  0  0  0  0
    7.2704    3.6729    0.0000 C   0  0  1  0  0  0  0  0  0  0  0  0
    7.3414    1.0777    0.0000 C   0  0  1  0  0  0  0  0  0  0  0  0
    7.8358    1.9401    0.0000 C   0  0  0  0  0  0  0  0  0  0  0  0
    8.1824    4.0832    0.0000 C   0  0  0  0  0  0  0  0  0  0  0  0
    6.4592    4.2576    0.0000 C   0  0  0  0  0  0  0  0  0  0  0  0
    4.5345    2.4422    0.0000 C   0  0  0  0  0  0  0  0  0  0  0  0
   10.8652   -1.9640    0.0000 C   0  0  1  0  0  0  0  0  0  0  0  0
    9.0811   -0.9156    0.0000 C   0  0  2  0  0  0  0  0  0  0  0  0
    8.2831    5.0781    0.0000 C   0  0  0  0  0  0  0  0  0  0  0  0
    9.9992   -2.4640    0.0000 C   0  0  0  0  0  0  0  0  0  0  0  0
    9.9832   -0.3948    0.0000 C   0  0  0  0  0  0  0  0  0  0  0  0
    7.1372    0.0988    0.0000 C   0  0  0  0  0  0  0  0  0  0  0  0
   11.7312   -2.4640    0.0000 C   0  0  0  0  0  0  0  0  0  0  0  0
    8.2132   -0.4189    0.0000 C   0  0  0  0  0  0  0  0  0  0  0  0
    9.0892   -1.9572    0.0000 C   0  0  0  0  0  0  0  0  0  0  0  0
    9.9992   -3.4640    0.0000 C   0  0  0  0  0  0  0  0  0  0  0  0
   11.7312   -3.4640    0.0000 C   0  0  0  0  0  0  0  0  0  0  0  0
   10.8652   -3.9640    0.0000 C   0  0  0  0  0  0  0  0  0  0  0  0
    3.7232    3.0268    0.0000 C   0  0  0  0  0  0  0  0  0  0  0  0
    9.1951    5.4884    0.0000 C   0  0  0  0  0  0  0  0  0  0  0  0
    7.4718    5.6628    0.0000 C   0  0  0  0  0  0  0  0  0  0  0  0
   11.7530   -0.4326    0.0000 C   0  0  0  0  0  0  0  0  0  0  0  0
   10.8812   -5.0055    0.0000 C   0  0  0  0  0  0  0  0  0  0  0  0
   12.3491   -4.2424    0.0000 C   0  0  0  0  0  0  0  0  0  0  0  0
    9.0892   -3.9709    0.0000 C   0  0  0  0  0  0  0  0  0  0  0  0
    3.8239    4.0218    0.0000 C   0  0  0  0  0  0  0  0  0  0  0  0
    2.8113    2.6166    0.0000 C   0  0  0  0  0  0  0  0  0  0  0  0
    9.9832   -5.5333    0.0000 C   0  0  0  0  0  0  0  0  0  0  0  0
    9.0811   -5.0125    0.0000 C   0  0  0  0  0  0  0  0  0  0  0  0
    3.0127    4.6064    0.0000 C   0  0  0  0  0  0  0  0  0  0  0  0
    2.0000    3.2012    0.0000 C   0  0  0  0  0  0  0  0  0  0  0  0
    2.1007    4.1962    0.0000 C   0  0  0  0  0  0  0  0  0  0  0  0
    4.9435    3.2149    0.0000 H   0  0  0  0  0  0  0  0  0  0  0  0
    7.7734    3.3104    0.0000 H   0  0  0  0  0  0  0  0  0  0  0  0
    8.3347    3.4822    0.0000 H   0  0  0  0  0  0  0  0  0  0  0  0
    8.8007    4.1288    0.0000 H   0  0  0  0  0  0  0  0  0  0  0  0
    5.0442    4.2098    0.0000 H   0  0  0  0  0  0  0  0  0  0  0  0
    4.0902    2.0098    0.0000 H   0  0  0  0  0  0  0  0  0  0  0  0
    4.8832    1.9295    0.0000 H   0  0  0  0  0  0  0  0  0  0  0  0
   11.6046   -1.5447    0.0000 H   0  0  0  0  0  0  0  0  0  0  0  0
    8.5460   -1.2287    0.0000 H   0  0  0  0  0  0  0  0  0  0  0  0
    8.7451    0.8931    0.0000 H   0  0  0  0  0  0  0  0  0  0  0  0
    8.7861    4.7156    0.0000 H   0  0  0  0  0  0  0  0  0  0  0  0
   10.3842    0.0781    0.0000 H   0  0  0  0  0  0  0  0  0  0  0  0
    9.5859    0.0812    0.0000 H   0  0  0  0  0  0  0  0  0  0  0  0
    6.5303    0.2254    0.0000 H   0  0  0  0  0  0  0  0  0  0  0  0
    7.0107   -0.5082    0.0000 H   0  0  0  0  0  0  0  0  0  0  0  0
    7.7442   -0.0278    0.0000 H   0  0  0  0  0  0  0  0  0  0  0  0
   12.3418   -2.5717    0.0000 H   0  0  0  0  0  0  0  0  0  0  0  0
   11.9433   -1.8814    0.0000 H   0  0  0  0  0  0  0  0  0  0  0  0
    5.2834    1.2407    0.0000 H   0  0  0  0  0  0  0  0  0  0  0  0
    8.5558   -2.2734    0.0000 H   0  0  0  0  0  0  0  0  0  0  0  0
    9.4494    4.9229    0.0000 H   0  0  0  0  0  0  0  0  0  0  0  0
    9.7605    5.7427    0.0000 H   0  0  0  0  0  0  0  0  0  0  0  0
    8.9407    6.0538    0.0000 H   0  0  0  0  0  0  0  0  0  0  0  0
    7.8343    6.1658    0.0000 H   0  0  0  0  0  0  0  0  0  0  0  0
    6.9688    6.0253    0.0000 H   0  0  0  0  0  0  0  0  0  0  0  0
    7.1093    5.1598    0.0000 H   0  0  0  0  0  0  0  0  0  0  0  0
   12.0568   -0.9730    0.0000 H   0  0  0  0  0  0  0  0  0  0  0  0
   12.2935   -0.1288    0.0000 H   0  0  0  0  0  0  0  0  0  0  0  0
   11.4492    0.1079    0.0000 H   0  0  0  0  0  0  0  0  0  0  0  0
   12.9670   -4.1906    0.0000 H   0  0  0  0  0  0  0  0  0  0  0  0
    8.5558   -3.6547    0.0000 H   0  0  0  0  0  0  0  0  0  0  0  0
   12.1553   -5.6628    0.0000 H   0  0  0  0  0  0  0  0  0  0  0  0
    4.3894    4.2761    0.0000 H   0  0  0  0  0  0  0  0  0  0  0  0
    2.7488    1.9997    0.0000 H   0  0  0  0  0  0  0  0  0  0  0  0
    9.9856   -6.1533    0.0000 H   0  0  0  0  0  0  0  0  0  0  0  0
    8.5430   -5.3204    0.0000 H   0  0  0  0  0  0  0  0  0  0  0  0
    3.0751    5.2233    0.0000 H   0  0  0  0  0  0  0  0  0  0  0  0
    1.4346    2.9469    0.0000 H   0  0  0  0  0  0  0  0  0  0  0  0
    1.5977    4.5586    0.0000 H   0  0  0  0  0  0  0  0  0  0  0  0
  1 11  1  0  0  0  0
  1 14  1  0  0  0  0
 11  2  1  6  0  0  0
  2 63  1  0  0  0  0
  3 15  2  0  0  0  0
  4 17  2  0  0  0  0
  5 26  2  0  0  0  0
  6 11  1  0  0  0  0
  6 13  1  0  0  0  0
  6 15  1  0  0  0  0
  7 12  1  0  0  0  0
  7 17  1  0  0  0  0
  7 49  1  0  0  0  0
 14  8  1  6  0  0  0
  8 26  1  0  0  0  0
  8 54  1  0  0  0  0
  9 19  1  0  0  0  0
  9 23  1  0  0  0  0
  9 34  1  0  0  0  0
 10 35  1  0  0  0  0
 10 36  1  0  0  0  0
 10 76  1  0  0  0  0
 11 12  1  0  0  0  0
 12 18  1  6  0  0  0
 12 45  1  0  0  0  0
 13 16  1  6  0  0  0
 13 17  1  0  0  0  0
 13 46  1  0  0  0  0
 14 15  1  0  0  0  0
 14 24  1  0  0  0  0
 16 21  1  0  0  0  0
 16 47  1  0  0  0  0
 16 48  1  0  0  0  0
 18 31  1  0  0  0  0
 18 50  1  0  0  0  0
 18 51  1  0  0  0  0
 19 22  1  0  0  0  0
 19 25  1  0  0  0  0
 19 52  1  1  0  0  0
 20 23  1  0  0  0  0
 20 26  1  1  0  0  0
 20 27  1  0  0  0  0
 20 53  1  0  0  0  0
 21 32  1  0  0  0  0
 21 33  1  0  0  0  0
 21 55  1  0  0  0  0
 22 27  2  0  0  0  0
 22 28  1  0  0  0  0
 23 56  1  0  0  0  0
 23 57  1  0  0  0  0
 24 58  1  0  0  0  0
 24 59  1  0  0  0  0
 24 60  1  0  0  0  0
 25 29  1  0  0  0  0
 25 61  1  0  0  0  0
 25 62  1  0  0  0  0
 27 64  1  0  0  0  0
 28 30  2  0  0  0  0
 28 37  1  0  0  0  0
 29 30  1  0  0  0  0
 29 36  2  0  0  0  0
 30 35  1  0  0  0  0
 31 38  2  0  0  0  0
 31 39  1  0  0  0  0
 32 65  1  0  0  0  0
 32 66  1  0  0  0  0
 32 67  1  0  0  0  0
 33 68  1  0  0  0  0
 33 69  1  0  0  0  0
 33 70  1  0  0  0  0
 34 71  1  0  0  0  0
 34 72  1  0  0  0  0
 34 73  1  0  0  0  0
 35 40  2  0  0  0  0
 36 74  1  0  0  0  0
 37 41  2  0  0  0  0
 37 75  1  0  0  0  0
 38 42  1  0  0  0  0
 38 77  1  0  0  0  0
 39 43  2  0  0  0  0
 39 78  1  0  0  0  0
 40 41  1  0  0  0  0
 40 79  1  0  0  0  0
 41 80  1  0  0  0  0
 42 44  2  0  0  0  0
 42 81  1  0  0  0  0
 43 44  1  0  0  0  0
 43 82  1  0  0  0  0
 44 83  1  0  0  0  0
M  END
> <PUBCHEM_COMPOUND_CID>
11307899

> <PUBCHEM_COMPOUND_CANONICALIZED>
1

> <PUBCHEM_CACTVS_COMPLEXITY>
1200

> <PUBCHEM_CACTVS_HBOND_ACCEPTOR>
6

> <PUBCHEM_CACTVS_HBOND_DONOR>
4

> <PUBCHEM_CACTVS_ROTATABLE_BOND>
6

> <PUBCHEM_CACTVS_SUBSKEYS>
AAADcfB/uAAAAAAAAAAAAAAAAAAAAWLAAAA8YMECAAAAAFjB9AAAHgAQCAAADSzBngQ+yPPJlgCoAzV3VAKCgCAxAiAI2aH4ZJkaYPrA0bWfYAhklgDcyAeYwOAOgAAAQAASAAAQAASAACQAAAAAAAAAAA==

> <PUBCHEM_IUPAC_OPENEYE_NAME>
(6aR,9R)-N-[(2R,5S,8S,8aS)-8-benzyl-8a-hydroxy-5-isobutyl-2-methyl-3,6-dioxo-7,8-dihydro-5H-oxazolo[3,2-a]pyrazin-2-yl]-7-methyl-6,6a,8,9-tetrahydro-4H-indolo[4,3-fg]quinoline-9-carboxamide

> <PUBCHEM_IUPAC_CAS_NAME>
(6aR,9R)-N-[(2R,5S,8S,8aS)-8a-hydroxy-2-methyl-5-(2-methylpropyl)-3,6-dioxo-8-(phenylmethyl)-7,8-dihydro-5H-oxazolo[3,2-a]pyrazin-2-yl]-7-methyl-6,6a,8,9-tetrahydro-4H-indolo[4,3-fg]quinoline-9-carboxamide

> <PUBCHEM_IUPAC_NAME_MARKUP>
(6<I>a</I><I>R</I>,9<I>R</I>)-<I>N</I>-[(2<I>R</I>,5<I>S</I>,8<I>S</I>,8<I>a</I><I>S</I>)-8-benzyl-8<I>a</I>-hydroxy-2-methyl-5-(2-methylpropyl)-3,6-dioxo-7,8-dihydro-5<I>H</I>-[1,3]oxazolo[3,2-a]pyrazin-2-yl]-7-methyl-6,6<I>a</I>,8,9-tetrahydro-4<I>H</I>-indolo[4,3-fg]quinoline-9-carboxamide

> <PUBCHEM_IUPAC_NAME>
(6aR,9R)-N-[(2R,5S,8S,8aS)-8-benzyl-8a-hydroxy-2-methyl-5-(2-methylpropyl)-3,6-dioxo-7,8-dihydro-5H-[1,3]oxazolo[3,2-a]pyrazin-2-yl]-7-methyl-6,6a,8,9-tetrahydro-4H-indolo[4,3-fg]quinoline-9-carboxamide

> <PUBCHEM_IUPAC_SYSTEMATIC_NAME>
(6aR,9R)-N-[(2R,5S,8S,8aS)-2-methyl-5-(2-methylpropyl)-8a-oxidanyl-3,6-bis(oxidanylidene)-8-(phenylmethyl)-7,8-dihydro-5H-[1,3]oxazolo[3,2-a]pyrazin-2-yl]-7-methyl-6,6a,8,9-tetrahydro-4H-indolo[4,3-fg]quinoline-9-carboxamide

> <PUBCHEM_IUPAC_TRADITIONAL_NAME>
(6aR,9R)-N-[(2R,5S,8S,8aS)-8-benzyl-8a-hydroxy-5-isobutyl-3,6-diketo-2-methyl-7,8-dihydro-5H-oxazolo[3,2-a]pyrazin-2-yl]-7-methyl-6,6a,8,9-tetrahydro-4H-indolo[4,3-fg]quinoline-9-carboxamide

> <PUBCHEM_IUPAC_INCHI>
InChI=1S/C34H39N5O5/c1-19(2)13-27-31(41)36-28(14-20-9-6-5-7-10-20)34(43)39(27)32(42)33(3,44-34)37-30(40)22-15-24-23-11-8-12-25-29(23)21(17-35-25)16-26(24)38(4)18-22/h5-12,15,17,19,22,26-28,35,43H,13-14,16,18H2,1-4H3,(H,36,41)(H,37,40)/t22-,26-,27+,28+,33-,34+/m1/s1

> <PUBCHEM_IUPAC_INCHIKEY>
FRMZDOIYBVOLRB-CTTKVJGISA-N

> <PUBCHEM_XLOGP3_AA>
3

> <PUBCHEM_EXACT_MASS>
597.29511936

> <PUBCHEM_MOLECULAR_FORMULA>
C34H39N5O5

> <PUBCHEM_MOLECULAR_WEIGHT>
597.7

> <PUBCHEM_OPENEYE_CAN_SMILES>
CC(C)CC1C(=O)NC(C2(N1C(=O)C(O2)(C)NC(=O)C3CN(C4CC5=CNC6=CC=CC(=C56)C4=C3)C)O)CC7=CC=CC=C7

> <PUBCHEM_OPENEYE_ISO_SMILES>
CC(C)C[C@H]1C(=O)N[C@H]([C@]2(N1C(=O)[C@](O2)(C)NC(=O)[C@H]3CN([C@@H]4CC5=CNC6=CC=CC(=C56)C4=C3)C)O)CC7=CC=CC=C7

> <PUBCHEM_CACTVS_TPSA>
127

> <PUBCHEM_MONOISOTOPIC_WEIGHT>
597.29511936

> <PUBCHEM_TOTAL_CHARGE>
0

> <PUBCHEM_HEAVY_ATOM_COUNT>
44

> <PUBCHEM_ATOM_DEF_STEREO_COUNT>
6

> <PUBCHEM_ATOM_UDEF_STEREO_COUNT>
0

> <PUBCHEM_BOND_DEF_STEREO_COUNT>
0

> <PUBCHEM_BOND_UDEF_STEREO_COUNT>
0

> <PUBCHEM_ISOTOPIC_ATOM_COUNT>
0

> <PUBCHEM_COMPONENT_COUNT>
1

> <PUBCHEM_CACTVS_TAUTO_COUNT>
-1

> <PUBCHEM_COORDINATE_TYPE>
1
5
255

> <PUBCHEM_BONDANNOTATIONS>
10  35  8
10  36  8
12  18  6
13  16  6
19  52  5
11  2  6
20  26  5
28  30  8
28  37  8
29  30  8
29  36  8
30  35  8
31  38  8
31  39  8
35  40  8
37  41  8
38  42  8
39  43  8
40  41  8
42  44  8
43  44  8
14  8  6

$$$$
