53364155
  -OEChem-09292322322D

160167  0     0  0  0  0  0  0999 V2000
   20.5587   15.2206    0.0000 O   0  0  0  0  0  0  0  0  0  0  0  0
    7.1962  -15.8168    0.0000 O   0  0  0  0  0  0  0  0  0  0  0  0
   16.7235    8.2714    0.0000 O   0  0  0  0  0  0  0  0  0  0  0  0
    4.5981   -8.3168    0.0000 O   0  0  0  0  0  0  0  0  0  0  0  0
   18.6257    7.6534    0.0000 O   0  0  0  0  0  0  0  0  0  0  0  0
    2.8660   -9.3168    0.0000 O   0  0  0  0  0  0  0  0  0  0  0  0
   19.4882   11.9261    0.0000 N   0  0  0  0  0  0  0  0  0  0  0  0
    5.4641  -12.8168    0.0000 N   0  0  0  0  0  0  0  0  0  0  0  0
   19.0724   13.8824    0.0000 N   0  0  0  0  0  0  0  0  0  0  0  0
    7.1962  -13.8168    0.0000 N   0  0  0  0  0  0  0  0  0  0  0  0
   15.6919    2.3895    0.0000 N   0  0  0  0  0  0  0  0  0  0  0  0
    8.2788   -3.6144    0.0000 N   0  0  0  0  0  0  0  0  0  0  0  0
   16.6700    2.5974    0.0000 N   0  0  0  0  0  0  0  0  0  0  0  0
    8.7788   -4.4804    0.0000 N   0  0  0  0  0  0  0  0  0  0  0  0
   16.7745    3.5920    0.0000 N   0  0  0  0  0  0  0  0  0  0  0  0
    8.1097   -5.2236    0.0000 N   0  0  0  0  0  0  0  0  0  0  0  0
   18.5372   12.2351    0.0000 C   0  0  0  0  0  0  0  0  0  0  0  0
   20.2314   12.5952    0.0000 C   0  0  0  0  0  0  0  0  0  0  0  0
    5.4641  -13.8168    0.0000 C   0  0  0  0  0  0  0  0  0  0  0  0
    6.3301  -12.3168    0.0000 C   0  0  0  0  0  0  0  0  0  0  0  0
   18.3292   13.2132    0.0000 C   0  0  0  0  0  0  0  0  0  0  0  0
   20.0234   13.5734    0.0000 C   0  0  0  0  0  0  0  0  0  0  0  0
    6.3301  -14.3168    0.0000 C   0  0  0  0  0  0  0  0  0  0  0  0
    7.1962  -12.8168    0.0000 C   0  0  0  0  0  0  0  0  0  0  0  0
   19.6961   10.9479    0.0000 C   0  0  0  0  0  0  0  0  0  0  0  0
    4.5981  -12.3168    0.0000 C   0  0  0  0  0  0  0  0  0  0  0  0
   18.8645   14.8605    0.0000 C   0  0  0  0  0  0  0  0  0  0  0  0
    8.0622  -14.3168    0.0000 C   0  0  0  0  0  0  0  0  0  0  0  0
   18.9530   10.2788    0.0000 C   0  0  0  0  0  0  0  0  0  0  0  0
    4.5981  -11.3168    0.0000 C   0  0  0  0  0  0  0  0  0  0  0  0
   19.6076   15.5297    0.0000 C   0  0  0  0  0  0  0  0  0  0  0  0
    8.0622  -15.3168    0.0000 C   0  0  0  0  0  0  0  0  0  0  0  0
   17.9134   15.1695    0.0000 C   0  0  0  0  0  0  0  0  0  0  0  0
    8.9282  -13.8168    0.0000 C   0  0  0  0  0  0  0  0  0  0  0  0
   12.4826   -0.5602    0.0000 C   0  0  0  0  0  0  0  0  0  0  0  0
   11.4881   -0.6647    0.0000 C   0  0  0  0  0  0  0  0  0  0  0  0
   12.8893    0.3534    0.0000 C   0  0  0  0  0  0  0  0  0  0  0  0
   11.0813   -1.5782    0.0000 C   0  0  0  0  0  0  0  0  0  0  0  0
   19.1609    9.3006    0.0000 C   0  0  0  0  0  0  0  0  0  0  0  0
    3.7320  -10.8168    0.0000 C   0  0  0  0  0  0  0  0  0  0  0  0
   18.0019   10.5878    0.0000 C   0  0  0  0  0  0  0  0  0  0  0  0
    5.4641  -10.8168    0.0000 C   0  0  0  0  0  0  0  0  0  0  0  0
   13.8839    0.4579    0.0000 C   0  0  0  0  0  0  0  0  0  0  0  0
   10.0868   -1.6828    0.0000 C   0  0  0  0  0  0  0  0  0  0  0  0
   19.3997   16.5078    0.0000 C   0  0  0  0  0  0  0  0  0  0  0  0
    8.9282  -15.8168    0.0000 C   0  0  0  0  0  0  0  0  0  0  0  0
   14.2906    1.3715    0.0000 C   0  0  0  0  0  0  0  0  0  0  0  0
    9.6801   -2.5963    0.0000 C   0  0  0  0  0  0  0  0  0  0  0  0
   17.7055   16.1477    0.0000 C   0  0  0  0  0  0  0  0  0  0  0  0
    9.7942  -14.3168    0.0000 C   0  0  0  0  0  0  0  0  0  0  0  0
   18.4177    8.6315    0.0000 C   0  0  0  0  0  0  0  0  0  0  0  0
    3.7320   -9.8168    0.0000 C   0  0  0  0  0  0  0  0  0  0  0  0
   17.2588    9.9187    0.0000 C   0  0  0  0  0  0  0  0  0  0  0  0
    5.4641   -9.8168    0.0000 C   0  0  0  0  0  0  0  0  0  0  0  0
   17.4667    8.9405    0.0000 C   0  0  0  0  0  0  0  0  0  0  0  0
    4.5981   -9.3168    0.0000 C   0  0  0  0  0  0  0  0  0  0  0  0
   18.4487   16.8168    0.0000 C   0  0  0  0  0  0  0  0  0  0  0  0
    9.7942  -15.3168    0.0000 C   0  0  0  0  0  0  0  0  0  0  0  0
   15.2851    1.4760    0.0000 C   0  0  0  0  0  0  0  0  0  0  0  0
    8.6856   -2.7008    0.0000 C   0  0  0  0  0  0  0  0  0  0  0  0
   16.1883    6.6241    0.0000 C   0  0  0  0  0  0  0  0  0  0  0  0
    5.4641   -6.8168    0.0000 C   0  0  0  0  0  0  0  0  0  0  0  0
   16.9315    7.2933    0.0000 C   0  0  0  0  0  0  0  0  0  0  0  0
    5.4641   -7.8168    0.0000 C   0  0  0  0  0  0  0  0  0  0  0  0
   16.3962    5.6460    0.0000 C   0  0  0  0  0  0  0  0  0  0  0  0
    6.3301   -6.3168    0.0000 C   0  0  0  0  0  0  0  0  0  0  0  0
   15.6531    4.9768    0.0000 C   0  0  0  0  0  0  0  0  0  0  0  0
    6.3301   -5.3168    0.0000 C   0  0  0  0  0  0  0  0  0  0  0  0
   15.8610    3.9987    0.0000 C   0  0  0  0  0  0  0  0  0  0  0  0
    7.1962   -4.8168    0.0000 C   0  0  0  0  0  0  0  0  0  0  0  0
   21.3018   15.8898    0.0000 C   0  0  0  0  0  0  0  0  0  0  0  0
    7.1962  -16.8168    0.0000 C   0  0  0  0  0  0  0  0  0  0  0  0
   15.1919    3.2556    0.0000 C   0  0  0  0  0  0  0  0  0  0  0  0
    7.3007   -3.8223    0.0000 C   0  0  0  0  0  0  0  0  0  0  0  0
   19.5767    7.3444    0.0000 C   0  0  0  0  0  0  0  0  0  0  0  0
    2.0000   -9.8168    0.0000 C   0  0  0  0  0  0  0  0  0  0  0  0
   17.9175   12.2135    0.0000 H   0  0  0  0  0  0  0  0  0  0  0  0
   18.4509   11.6211    0.0000 H   0  0  0  0  0  0  0  0  0  0  0  0
   20.5599   12.0694    0.0000 H   0  0  0  0  0  0  0  0  0  0  0  0
   20.8062   12.8275    0.0000 H   0  0  0  0  0  0  0  0  0  0  0  0
    4.8535  -13.7092    0.0000 H   0  0  0  0  0  0  0  0  0  0  0  0
    5.2520  -14.3994    0.0000 H   0  0  0  0  0  0  0  0  0  0  0  0
    6.7287  -11.8419    0.0000 H   0  0  0  0  0  0  0  0  0  0  0  0
    5.9316  -11.8419    0.0000 H   0  0  0  0  0  0  0  0  0  0  0  0
   18.0007   13.7390    0.0000 H   0  0  0  0  0  0  0  0  0  0  0  0
   17.7544   12.9810    0.0000 H   0  0  0  0  0  0  0  0  0  0  0  0
   20.6431   13.5950    0.0000 H   0  0  0  0  0  0  0  0  0  0  0  0
   20.1097   14.1873    0.0000 H   0  0  0  0  0  0  0  0  0  0  0  0
    5.9316  -14.7918    0.0000 H   0  0  0  0  0  0  0  0  0  0  0  0
    6.7287  -14.7918    0.0000 H   0  0  0  0  0  0  0  0  0  0  0  0
    7.8067  -12.9245    0.0000 H   0  0  0  0  0  0  0  0  0  0  0  0
    7.4082  -12.2342    0.0000 H   0  0  0  0  0  0  0  0  0  0  0  0
   20.0247   10.4221    0.0000 H   0  0  0  0  0  0  0  0  0  0  0  0
   20.2710   11.1802    0.0000 H   0  0  0  0  0  0  0  0  0  0  0  0
    3.9875  -12.2092    0.0000 H   0  0  0  0  0  0  0  0  0  0  0  0
    4.3860  -12.8994    0.0000 H   0  0  0  0  0  0  0  0  0  0  0  0
   17.4527   14.7547    0.0000 H   0  0  0  0  0  0  0  0  0  0  0  0
    8.9282  -13.1968    0.0000 H   0  0  0  0  0  0  0  0  0  0  0  0
   12.4394   -1.1786    0.0000 H   0  0  0  0  0  0  0  0  0  0  0  0
   13.0842   -0.7102    0.0000 H   0  0  0  0  0  0  0  0  0  0  0  0
   11.5313   -0.0462    0.0000 H   0  0  0  0  0  0  0  0  0  0  0  0
   10.8865   -0.5147    0.0000 H   0  0  0  0  0  0  0  0  0  0  0  0
   12.9326    0.9719    0.0000 H   0  0  0  0  0  0  0  0  0  0  0  0
   12.2878    0.5034    0.0000 H   0  0  0  0  0  0  0  0  0  0  0  0
   11.0381   -2.1967    0.0000 H   0  0  0  0  0  0  0  0  0  0  0  0
   11.6829   -1.7282    0.0000 H   0  0  0  0  0  0  0  0  0  0  0  0
   19.7505    9.1091    0.0000 H   0  0  0  0  0  0  0  0  0  0  0  0
    3.1951  -11.1268    0.0000 H   0  0  0  0  0  0  0  0  0  0  0  0
   17.8730   11.1943    0.0000 H   0  0  0  0  0  0  0  0  0  0  0  0
    6.0010  -11.1268    0.0000 H   0  0  0  0  0  0  0  0  0  0  0  0
   13.8406   -0.1606    0.0000 H   0  0  0  0  0  0  0  0  0  0  0  0
   14.4854    0.3079    0.0000 H   0  0  0  0  0  0  0  0  0  0  0  0
   10.1301   -1.0643    0.0000 H   0  0  0  0  0  0  0  0  0  0  0  0
    9.4852   -1.5328    0.0000 H   0  0  0  0  0  0  0  0  0  0  0  0
   19.8605   16.9227    0.0000 H   0  0  0  0  0  0  0  0  0  0  0  0
    8.9282  -16.4368    0.0000 H   0  0  0  0  0  0  0  0  0  0  0  0
   14.3338    1.9900    0.0000 H   0  0  0  0  0  0  0  0  0  0  0  0
   13.6890    1.5214    0.0000 H   0  0  0  0  0  0  0  0  0  0  0  0
    9.6368   -3.2148    0.0000 H   0  0  0  0  0  0  0  0  0  0  0  0
   10.2817   -2.7463    0.0000 H   0  0  0  0  0  0  0  0  0  0  0  0
   17.1159   16.3393    0.0000 H   0  0  0  0  0  0  0  0  0  0  0  0
   10.3312  -14.0068    0.0000 H   0  0  0  0  0  0  0  0  0  0  0  0
   16.6691   10.1103    0.0000 H   0  0  0  0  0  0  0  0  0  0  0  0
    6.0010   -9.5068    0.0000 H   0  0  0  0  0  0  0  0  0  0  0  0
   18.3197   17.4233    0.0000 H   0  0  0  0  0  0  0  0  0  0  0  0
   10.3312  -15.6268    0.0000 H   0  0  0  0  0  0  0  0  0  0  0  0
   15.2419    0.8575    0.0000 H   0  0  0  0  0  0  0  0  0  0  0  0
   15.8867    1.3260    0.0000 H   0  0  0  0  0  0  0  0  0  0  0  0
    8.7288   -2.0824    0.0000 H   0  0  0  0  0  0  0  0  0  0  0  0
    8.0840   -2.5508    0.0000 H   0  0  0  0  0  0  0  0  0  0  0  0
   15.8598    7.1499    0.0000 H   0  0  0  0  0  0  0  0  0  0  0  0
   15.6135    6.3919    0.0000 H   0  0  0  0  0  0  0  0  0  0  0  0
    5.2520   -6.2342    0.0000 H   0  0  0  0  0  0  0  0  0  0  0  0
    4.8535   -6.9245    0.0000 H   0  0  0  0  0  0  0  0  0  0  0  0
   17.2600    6.7675    0.0000 H   0  0  0  0  0  0  0  0  0  0  0  0
   17.5063    7.5255    0.0000 H   0  0  0  0  0  0  0  0  0  0  0  0
    5.6762   -8.3994    0.0000 H   0  0  0  0  0  0  0  0  0  0  0  0
    6.0747   -7.7092    0.0000 H   0  0  0  0  0  0  0  0  0  0  0  0
   16.7248    5.1202    0.0000 H   0  0  0  0  0  0  0  0  0  0  0  0
   16.9711    5.8782    0.0000 H   0  0  0  0  0  0  0  0  0  0  0  0
    6.5422   -6.8994    0.0000 H   0  0  0  0  0  0  0  0  0  0  0  0
    6.9407   -6.2092    0.0000 H   0  0  0  0  0  0  0  0  0  0  0  0
   15.3245    5.5026    0.0000 H   0  0  0  0  0  0  0  0  0  0  0  0
   15.0782    4.7446    0.0000 H   0  0  0  0  0  0  0  0  0  0  0  0
    6.1181   -4.7342    0.0000 H   0  0  0  0  0  0  0  0  0  0  0  0
    5.7196   -5.4245    0.0000 H   0  0  0  0  0  0  0  0  0  0  0  0
   21.7167   15.4290    0.0000 H   0  0  0  0  0  0  0  0  0  0  0  0
   21.7626   16.3046    0.0000 H   0  0  0  0  0  0  0  0  0  0  0  0
   20.8870   16.3505    0.0000 H   0  0  0  0  0  0  0  0  0  0  0  0
    6.5762  -16.8168    0.0000 H   0  0  0  0  0  0  0  0  0  0  0  0
    7.1962  -17.4368    0.0000 H   0  0  0  0  0  0  0  0  0  0  0  0
    7.8162  -16.8168    0.0000 H   0  0  0  0  0  0  0  0  0  0  0  0
   14.5753    3.3204    0.0000 H   0  0  0  0  0  0  0  0  0  0  0  0
    6.8399   -3.4074    0.0000 H   0  0  0  0  0  0  0  0  0  0  0  0
   19.3851    6.7547    0.0000 H   0  0  0  0  0  0  0  0  0  0  0  0
   20.1664    7.1528    0.0000 H   0  0  0  0  0  0  0  0  0  0  0  0
   19.7683    7.9340    0.0000 H   0  0  0  0  0  0  0  0  0  0  0  0
    1.6900   -9.2799    0.0000 H   0  0  0  0  0  0  0  0  0  0  0  0
    1.4631  -10.1268    0.0000 H   0  0  0  0  0  0  0  0  0  0  0  0
    2.3100  -10.3538    0.0000 H   0  0  0  0  0  0  0  0  0  0  0  0
  1 31  1  0  0  0  0
  1 71  1  0  0  0  0
  2 32  1  0  0  0  0
  2 72  1  0  0  0  0
  3 55  1  0  0  0  0
  3 63  1  0  0  0  0
  4 56  1  0  0  0  0
  4 64  1  0  0  0  0
  5 51  1  0  0  0  0
  5 75  1  0  0  0  0
  6 52  1  0  0  0  0
  6 76  1  0  0  0  0
  7 17  1  0  0  0  0
  7 18  1  0  0  0  0
  7 25  1  0  0  0  0
  8 19  1  0  0  0  0
  8 20  1  0  0  0  0
  8 26  1  0  0  0  0
  9 21  1  0  0  0  0
  9 22  1  0  0  0  0
  9 27  1  0  0  0  0
 10 23  1  0  0  0  0
 10 24  1  0  0  0  0
 10 28  1  0  0  0  0
 11 13  1  0  0  0  0
 11 59  1  0  0  0  0
 11 73  1  0  0  0  0
 12 14  1  0  0  0  0
 12 60  1  0  0  0  0
 12 74  1  0  0  0  0
 13 15  2  0  0  0  0
 14 16  2  0  0  0  0
 15 69  1  0  0  0  0
 16 70  1  0  0  0  0
 17 21  1  0  0  0  0
 17 77  1  0  0  0  0
 17 78  1  0  0  0  0
 18 22  1  0  0  0  0
 18 79  1  0  0  0  0
 18 80  1  0  0  0  0
 19 23  1  0  0  0  0
 19 81  1  0  0  0  0
 19 82  1  0  0  0  0
 20 24  1  0  0  0  0
 20 83  1  0  0  0  0
 20 84  1  0  0  0  0
 21 85  1  0  0  0  0
 21 86  1  0  0  0  0
 22 87  1  0  0  0  0
 22 88  1  0  0  0  0
 23 89  1  0  0  0  0
 23 90  1  0  0  0  0
 24 91  1  0  0  0  0
 24 92  1  0  0  0  0
 25 29  1  0  0  0  0
 25 93  1  0  0  0  0
 25 94  1  0  0  0  0
 26 30  1  0  0  0  0
 26 95  1  0  0  0  0
 26 96  1  0  0  0  0
 27 31  1  0  0  0  0
 27 33  2  0  0  0  0
 28 32  1  0  0  0  0
 28 34  2  0  0  0  0
 29 39  2  0  0  0  0
 29 41  1  0  0  0  0
 30 40  2  0  0  0  0
 30 42  1  0  0  0  0
 31 45  2  0  0  0  0
 32 46  2  0  0  0  0
 33 49  1  0  0  0  0
 33 97  1  0  0  0  0
 34 50  1  0  0  0  0
 34 98  1  0  0  0  0
 35 36  1  0  0  0  0
 35 37  1  0  0  0  0
 35 99  1  0  0  0  0
 35100  1  0  0  0  0
 36 38  1  0  0  0  0
 36101  1  0  0  0  0
 36102  1  0  0  0  0
 37 43  1  0  0  0  0
 37103  1  0  0  0  0
 37104  1  0  0  0  0
 38 44  1  0  0  0  0
 38105  1  0  0  0  0
 38106  1  0  0  0  0
 39 51  1  0  0  0  0
 39107  1  0  0  0  0
 40 52  1  0  0  0  0
 40108  1  0  0  0  0
 41 53  2  0  0  0  0
 41109  1  0  0  0  0
 42 54  2  0  0  0  0
 42110  1  0  0  0  0
 43 47  1  0  0  0  0
 43111  1  0  0  0  0
 43112  1  0  0  0  0
 44 48  1  0  0  0  0
 44113  1  0  0  0  0
 44114  1  0  0  0  0
 45 57  1  0  0  0  0
 45115  1  0  0  0  0
 46 58  1  0  0  0  0
 46116  1  0  0  0  0
 47 59  1  0  0  0  0
 47117  1  0  0  0  0
 47118  1  0  0  0  0
 48 60  1  0  0  0  0
 48119  1  0  0  0  0
 48120  1  0  0  0  0
 49 57  2  0  0  0  0
 49121  1  0  0  0  0
 50 58  2  0  0  0  0
 50122  1  0  0  0  0
 51 55  2  0  0  0  0
 52 56  2  0  0  0  0
 53 55  1  0  0  0  0
 53123  1  0  0  0  0
 54 56  1  0  0  0  0
 54124  1  0  0  0  0
 57125  1  0  0  0  0
 58126  1  0  0  0  0
 59127  1  0  0  0  0
 59128  1  0  0  0  0
 60129  1  0  0  0  0
 60130  1  0  0  0  0
 61 63  1  0  0  0  0
 61 65  1  0  0  0  0
 61131  1  0  0  0  0
 61132  1  0  0  0  0
 62 64  1  0  0  0  0
 62 66  1  0  0  0  0
 62133  1  0  0  0  0
 62134  1  0  0  0  0
 63135  1  0  0  0  0
 63136  1  0  0  0  0
 64137  1  0  0  0  0
 64138  1  0  0  0  0
 65 67  1  0  0  0  0
 65139  1  0  0  0  0
 65140  1  0  0  0  0
 66 68  1  0  0  0  0
 66141  1  0  0  0  0
 66142  1  0  0  0  0
 67 69  1  0  0  0  0
 67143  1  0  0  0  0
 67144  1  0  0  0  0
 68 70  1  0  0  0  0
 68145  1  0  0  0  0
 68146  1  0  0  0  0
 69 73  2  0  0  0  0
 70 74  2  0  0  0  0
 71147  1  0  0  0  0
 71148  1  0  0  0  0
 71149  1  0  0  0  0
 72150  1  0  0  0  0
 72151  1  0  0  0  0
 72152  1  0  0  0  0
 73153  1  0  0  0  0
 74154  1  0  0  0  0
 75155  1  0  0  0  0
 75156  1  0  0  0  0
 75157  1  0  0  0  0
 76158  1  0  0  0  0
 76159  1  0  0  0  0
 76160  1  0  0  0  0
M  END
> <PUBCHEM_COMPOUND_CID>
53364155

> <PUBCHEM_COMPOUND_CANONICALIZED>
1

> <PUBCHEM_CACTVS_COMPLEXITY>
1410

> <PUBCHEM_CACTVS_HBOND_ACCEPTOR>
14

> <PUBCHEM_CACTVS_HBOND_DONOR>
0

> <PUBCHEM_CACTVS_ROTATABLE_BOND>
33

> <PUBCHEM_CACTVS_SUBSKEYS>
AAADcfB/+AAAAAAAAAAAAAAAAAAAAWLAAAA8eMGCAAAAAAAB9AAAHgAIAAAADAzhngY+xpMIBACiAzRnRACCDAQxsgAY2AA//IgPZiLEsZuXOCrkwBHa6Aew0JMOIAABAAAAUABAAAIAAACgAAAAAAAAAA==

> <PUBCHEM_IUPAC_OPENEYE_NAME>
1-[[3-methoxy-4-[4-[1-[10-[4-[4-[2-methoxy-4-[[4-(2-methoxyphenyl)piperazin-1-yl]methyl]phenoxy]butyl]triazol-1-yl]decyl]triazol-4-yl]butoxy]phenyl]methyl]-4-(2-methoxyphenyl)piperazine

> <PUBCHEM_IUPAC_CAS_NAME>
1-[[3-methoxy-4-[4-[1-[10-[4-[4-[2-methoxy-4-[[4-(2-methoxyphenyl)-1-piperazinyl]methyl]phenoxy]butyl]-1-triazolyl]decyl]-4-triazolyl]butoxy]phenyl]methyl]-4-(2-methoxyphenyl)piperazine

> <PUBCHEM_IUPAC_NAME_MARKUP>
1-[[3-methoxy-4-[4-[1-[10-[4-[4-[2-methoxy-4-[[4-(2-methoxyphenyl)piperazin-1-yl]methyl]phenoxy]butyl]triazol-1-yl]decyl]triazol-4-yl]butoxy]phenyl]methyl]-4-(2-methoxyphenyl)piperazine

> <PUBCHEM_IUPAC_NAME>
1-[[3-methoxy-4-[4-[1-[10-[4-[4-[2-methoxy-4-[[4-(2-methoxyphenyl)piperazin-1-yl]methyl]phenoxy]butyl]triazol-1-yl]decyl]triazol-4-yl]butoxy]phenyl]methyl]-4-(2-methoxyphenyl)piperazine

> <PUBCHEM_IUPAC_SYSTEMATIC_NAME>
1-[[3-methoxy-4-[4-[1-[10-[4-[4-[2-methoxy-4-[[4-(2-methoxyphenyl)piperazin-1-yl]methyl]phenoxy]butyl]-1,2,3-triazol-1-yl]decyl]-1,2,3-triazol-4-yl]butoxy]phenyl]methyl]-4-(2-methoxyphenyl)piperazine

> <PUBCHEM_IUPAC_TRADITIONAL_NAME>
1-[3-methoxy-4-[4-[1-[10-[4-[4-[2-methoxy-4-[[4-(2-methoxyphenyl)piperazino]methyl]phenoxy]butyl]triazol-1-yl]decyl]triazol-4-yl]butoxy]benzyl]-4-(2-methoxyphenyl)piperazine

> <PUBCHEM_IUPAC_INCHI>
InChI=1S/C60H84N10O6/c1-71-55-25-13-11-23-53(55)67-37-33-65(34-38-67)45-49-27-29-57(59(43-49)73-3)75-41-19-15-21-51-47-69(63-61-51)31-17-9-7-5-6-8-10-18-32-70-48-52(62-64-70)22-16-20-42-76-58-30-28-50(44-60(58)74-4)46-66-35-39-68(40-36-66)54-24-12-14-26-56(54)72-2/h11-14,23-30,43-44,47-48H,5-10,15-22,31-42,45-46H2,1-4H3

> <PUBCHEM_IUPAC_INCHIKEY>
KGEGCSUUIDNIBO-UHFFFAOYSA-N

> <PUBCHEM_XLOGP3_AA>
10.7

> <PUBCHEM_EXACT_MASS>
1040.65753044

> <PUBCHEM_MOLECULAR_FORMULA>
C60H84N10O6

> <PUBCHEM_MOLECULAR_WEIGHT>
1041.4

> <PUBCHEM_OPENEYE_CAN_SMILES>
COC1=CC=CC=C1N2CCN(CC2)CC3=CC(=C(C=C3)OCCCCC4=CN(N=N4)CCCCCCCCCCN5C=C(N=N5)CCCCOC6=C(C=C(C=C6)CN7CCN(CC7)C8=CC=CC=C8OC)OC)OC

> <PUBCHEM_OPENEYE_ISO_SMILES>
COC1=CC=CC=C1N2CCN(CC2)CC3=CC(=C(C=C3)OCCCCC4=CN(N=N4)CCCCCCCCCCN5C=C(N=N5)CCCCOC6=C(C=C(C=C6)CN7CCN(CC7)C8=CC=CC=C8OC)OC)OC

> <PUBCHEM_CACTVS_TPSA>
130

> <PUBCHEM_MONOISOTOPIC_WEIGHT>
1040.65753044

> <PUBCHEM_TOTAL_CHARGE>
0

> <PUBCHEM_HEAVY_ATOM_COUNT>
76

> <PUBCHEM_ATOM_DEF_STEREO_COUNT>
0

> <PUBCHEM_ATOM_UDEF_STEREO_COUNT>
0

> <PUBCHEM_BOND_DEF_STEREO_COUNT>
0

> <PUBCHEM_BOND_UDEF_STEREO_COUNT>
0

> <PUBCHEM_ISOTOPIC_ATOM_COUNT>
0

> <PUBCHEM_COMPONENT_COUNT>
1

> <PUBCHEM_CACTVS_TAUTO_COUNT>
-1

> <PUBCHEM_COORDINATE_TYPE>
1
5
255

> <PUBCHEM_BONDANNOTATIONS>
11  13  8
11  73  8
12  14  8
12  74  8
13  15  8
14  16  8
15  69  8
16  70  8
27  31  8
27  33  8
28  32  8
28  34  8
29  39  8
29  41  8
30  40  8
30  42  8
31  45  8
32  46  8
33  49  8
34  50  8
39  51  8
40  52  8
41  53  8
42  54  8
45  57  8
46  58  8
49  57  8
50  58  8
51  55  8
52  56  8
53  55  8
54  56  8
69  73  8
70  74  8

$$$$
