164627741
  -OEChem-09292322442D

 57 60  0     1  0  0  0  0  0999 V2000
    2.0000    3.7704    0.0000 O   0  0  0  0  0  0  0  0  0  0  0  0
    2.0000    1.7704    0.0000 O   0  0  0  0  0  0  0  0  0  0  0  0
    8.9826   -1.2604    0.0000 O   0  0  0  0  0  0  0  0  0  0  0  0
    6.3981    2.2496    0.0000 N   0  0  3  0  0  0  0  0  0  0  0  0
    9.8544    0.2362    0.0000 N   0  0  0  0  0  0  0  0  0  0  0  0
   11.5672   -4.7704    0.0000 N   0  0  0  0  0  0  0  0  0  0  0  0
    6.3981    3.2912    0.0000 C   0  0  0  0  0  0  0  0  0  0  0  0
    5.4920    1.7357    0.0000 C   0  0  0  0  0  0  0  0  0  0  0  0
    5.4920    3.8051    0.0000 C   0  0  0  0  0  0  0  0  0  0  0  0
    4.5981    2.2704    0.0000 C   0  0  0  0  0  0  0  0  0  0  0  0
    4.5981    3.2704    0.0000 C   0  0  0  0  0  0  0  0  0  0  0  0
    7.2622    1.7462    0.0000 C   0  0  0  0  0  0  0  0  0  0  0  0
    8.1301    2.2429    0.0000 C   0  0  0  0  0  0  0  0  0  0  0  0
    3.7320    3.7704    0.0000 C   0  0  0  0  0  0  0  0  0  0  0  0
    3.7320    1.7704    0.0000 C   0  0  0  0  0  0  0  0  0  0  0  0
    8.9942    1.7396    0.0000 C   0  0  0  0  0  0  0  0  0  0  0  0
    2.8660    3.2704    0.0000 C   0  0  0  0  0  0  0  0  0  0  0  0
    2.8660    2.2704    0.0000 C   0  0  0  0  0  0  0  0  0  0  0  0
    8.1340    3.2429    0.0000 C   0  0  0  0  0  0  0  0  0  0  0  0
    8.9904    0.7396    0.0000 C   0  0  0  0  0  0  0  0  0  0  0  0
    9.8622    2.2362    0.0000 C   0  0  0  0  0  0  0  0  0  0  0  0
    9.0019    3.7396    0.0000 C   0  0  0  0  0  0  0  0  0  0  0  0
    9.8660    3.2362    0.0000 C   0  0  0  0  0  0  0  0  0  0  0  0
    2.0000    4.7704    0.0000 C   0  0  0  0  0  0  0  0  0  0  0  0
    9.8506   -0.7638    0.0000 C   0  0  0  0  0  0  0  0  0  0  0  0
   10.7147   -1.2671    0.0000 C   0  0  0  0  0  0  0  0  0  0  0  0
   10.7108   -2.2671    0.0000 C   0  0  0  0  0  0  0  0  0  0  0  0
   11.5826   -0.7704    0.0000 C   0  0  0  0  0  0  0  0  0  0  0  0
   11.5749   -2.7704    0.0000 C   0  0  0  0  0  0  0  0  0  0  0  0
   12.4467   -1.2738    0.0000 C   0  0  0  0  0  0  0  0  0  0  0  0
   12.4429   -2.2738    0.0000 C   0  0  0  0  0  0  0  0  0  0  0  0
   11.5711   -3.7704    0.0000 C   0  0  0  0  0  0  0  0  0  0  0  0
    7.0089    3.1851    0.0000 H   0  0  0  0  0  0  0  0  0  0  0  0
    6.6071    3.8749    0.0000 H   0  0  0  0  0  0  0  0  0  0  0  0
    5.0874    1.2659    0.0000 H   0  0  0  0  0  0  0  0  0  0  0  0
    5.8856    1.2567    0.0000 H   0  0  0  0  0  0  0  0  0  0  0  0
    5.8856    4.2841    0.0000 H   0  0  0  0  0  0  0  0  0  0  0  0
    5.0874    4.2748    0.0000 H   0  0  0  0  0  0  0  0  0  0  0  0
    6.8618    1.2728    0.0000 H   0  0  0  0  0  0  0  0  0  0  0  0
    7.6589    1.2698    0.0000 H   0  0  0  0  0  0  0  0  0  0  0  0
    3.7320    4.3904    0.0000 H   0  0  0  0  0  0  0  0  0  0  0  0
    3.7320    1.1504    0.0000 H   0  0  0  0  0  0  0  0  0  0  0  0
    7.5982    3.5550    0.0000 H   0  0  0  0  0  0  0  0  0  0  0  0
    8.3802    0.8496    0.0000 H   0  0  0  0  0  0  0  0  0  0  0  0
    8.7761    0.1578    0.0000 H   0  0  0  0  0  0  0  0  0  0  0  0
   10.3979    1.9242    0.0000 H   0  0  0  0  0  0  0  0  0  0  0  0
    9.0043    4.3595    0.0000 H   0  0  0  0  0  0  0  0  0  0  0  0
   10.4041    3.5442    0.0000 H   0  0  0  0  0  0  0  0  0  0  0  0
   10.3926    0.5442    0.0000 H   0  0  0  0  0  0  0  0  0  0  0  0
    2.0000    1.1504    0.0000 H   0  0  0  0  0  0  0  0  0  0  0  0
    2.6200    4.7704    0.0000 H   0  0  0  0  0  0  0  0  0  0  0  0
    2.0000    5.3904    0.0000 H   0  0  0  0  0  0  0  0  0  0  0  0
    1.3800    4.7704    0.0000 H   0  0  0  0  0  0  0  0  0  0  0  0
   10.1727   -2.5750    0.0000 H   0  0  0  0  0  0  0  0  0  0  0  0
   11.5850   -0.1504    0.0000 H   0  0  0  0  0  0  0  0  0  0  0  0
   12.9849   -0.9658    0.0000 H   0  0  0  0  0  0  0  0  0  0  0  0
   12.9786   -2.5858    0.0000 H   0  0  0  0  0  0  0  0  0  0  0  0
  1 17  1  0  0  0  0
  1 24  1  0  0  0  0
  2 18  1  0  0  0  0
  2 50  1  0  0  0  0
  3 25  2  0  0  0  0
  4  7  1  0  0  0  0
  4  8  1  0  0  0  0
  4 12  1  0  0  0  0
  5 20  1  0  0  0  0
  5 25  1  0  0  0  0
  5 49  1  0  0  0  0
  6 32  3  0  0  0  0
  7  9  1  0  0  0  0
  7 33  1  0  0  0  0
  7 34  1  0  0  0  0
  8 10  1  0  0  0  0
  8 35  1  0  0  0  0
  8 36  1  0  0  0  0
  9 11  1  0  0  0  0
  9 37  1  0  0  0  0
  9 38  1  0  0  0  0
 10 11  1  0  0  0  0
 10 15  2  0  0  0  0
 11 14  2  0  0  0  0
 12 13  1  0  0  0  0
 12 39  1  0  0  0  0
 12 40  1  0  0  0  0
 13 16  1  0  0  0  0
 13 19  2  0  0  0  0
 14 17  1  0  0  0  0
 14 41  1  0  0  0  0
 15 18  1  0  0  0  0
 15 42  1  0  0  0  0
 16 20  1  0  0  0  0
 16 21  2  0  0  0  0
 17 18  2  0  0  0  0
 19 22  1  0  0  0  0
 19 43  1  0  0  0  0
 20 44  1  0  0  0  0
 20 45  1  0  0  0  0
 21 23  1  0  0  0  0
 21 46  1  0  0  0  0
 22 23  2  0  0  0  0
 22 47  1  0  0  0  0
 23 48  1  0  0  0  0
 24 51  1  0  0  0  0
 24 52  1  0  0  0  0
 24 53  1  0  0  0  0
 25 26  1  0  0  0  0
 26 27  1  0  0  0  0
 26 28  2  0  0  0  0
 27 29  2  0  0  0  0
 27 54  1  0  0  0  0
 28 30  1  0  0  0  0
 28 55  1  0  0  0  0
 29 31  1  0  0  0  0
 29 32  1  0  0  0  0
 30 31  2  0  0  0  0
 30 56  1  0  0  0  0
 31 57  1  0  0  0  0
M  END
> <PUBCHEM_COMPOUND_CID>
164627741

> <PUBCHEM_COMPOUND_CANONICALIZED>
1

> <PUBCHEM_CACTVS_COMPLEXITY>
677

> <PUBCHEM_CACTVS_HBOND_ACCEPTOR>
5

> <PUBCHEM_CACTVS_HBOND_DONOR>
2

> <PUBCHEM_CACTVS_ROTATABLE_BOND>
6

> <PUBCHEM_CACTVS_SUBSKEYS>
AAADceB7MAAAAAAAAAAAAAAAAAAAAAAAAAA8YMEAAAAAAACxUAAAHgAQCAAADATBmAYyBoPABgCYBiFSEACiCAAkIAAIiIEOjMgNpjKGtRuEcStkxhGLuY+42PKOoAADAAAQQABAAAYAACCAAAAAAAAAAA==

> <PUBCHEM_IUPAC_OPENEYE_NAME>
3-cyano-N-[[2-[(7-hydroxy-6-methoxy-3,4-dihydro-1H-isoquinolin-2-yl)methyl]phenyl]methyl]benzamide

> <PUBCHEM_IUPAC_CAS_NAME>
3-cyano-N-[[2-[(7-hydroxy-6-methoxy-3,4-dihydro-1H-isoquinolin-2-yl)methyl]phenyl]methyl]benzamide

> <PUBCHEM_IUPAC_NAME_MARKUP>
3-cyano-<I>N</I>-[[2-[(7-hydroxy-6-methoxy-3,4-dihydro-1<I>H</I>-isoquinolin-2-yl)methyl]phenyl]methyl]benzamide

> <PUBCHEM_IUPAC_NAME>
3-cyano-N-[[2-[(7-hydroxy-6-methoxy-3,4-dihydro-1H-isoquinolin-2-yl)methyl]phenyl]methyl]benzamide

> <PUBCHEM_IUPAC_SYSTEMATIC_NAME>
3-cyano-N-[[2-[(6-methoxy-7-oxidanyl-3,4-dihydro-1H-isoquinolin-2-yl)methyl]phenyl]methyl]benzamide

> <PUBCHEM_IUPAC_TRADITIONAL_NAME>
3-cyano-N-[2-[(7-hydroxy-6-methoxy-3,4-dihydro-1H-isoquinolin-2-yl)methyl]benzyl]benzamide

> <PUBCHEM_IUPAC_INCHI>
InChI=1S/C26H25N3O3/c1-32-25-13-19-9-10-29(17-23(19)12-24(25)30)16-22-7-3-2-6-21(22)15-28-26(31)20-8-4-5-18(11-20)14-27/h2-8,11-13,30H,9-10,15-17H2,1H3,(H,28,31)

> <PUBCHEM_IUPAC_INCHIKEY>
XFLGSSQRQNMLNA-UHFFFAOYSA-N

> <PUBCHEM_XLOGP3_AA>
3.4

> <PUBCHEM_EXACT_MASS>
427.18959167

> <PUBCHEM_MOLECULAR_FORMULA>
C26H25N3O3

> <PUBCHEM_MOLECULAR_WEIGHT>
427.5

> <PUBCHEM_OPENEYE_CAN_SMILES>
COC1=C(C=C2CN(CCC2=C1)CC3=CC=CC=C3CNC(=O)C4=CC=CC(=C4)C#N)O

> <PUBCHEM_OPENEYE_ISO_SMILES>
COC1=C(C=C2CN(CCC2=C1)CC3=CC=CC=C3CNC(=O)C4=CC=CC(=C4)C#N)O

> <PUBCHEM_CACTVS_TPSA>
85.6

> <PUBCHEM_MONOISOTOPIC_WEIGHT>
427.18959167

> <PUBCHEM_TOTAL_CHARGE>
0

> <PUBCHEM_HEAVY_ATOM_COUNT>
32

> <PUBCHEM_ATOM_DEF_STEREO_COUNT>
0

> <PUBCHEM_ATOM_UDEF_STEREO_COUNT>
0

> <PUBCHEM_BOND_DEF_STEREO_COUNT>
0

> <PUBCHEM_BOND_UDEF_STEREO_COUNT>
0

> <PUBCHEM_ISOTOPIC_ATOM_COUNT>
0

> <PUBCHEM_COMPONENT_COUNT>
1

> <PUBCHEM_CACTVS_TAUTO_COUNT>
-1

> <PUBCHEM_COORDINATE_TYPE>
1
5
255

> <PUBCHEM_BONDANNOTATIONS>
10  11  8
10  15  8
11  14  8
13  16  8
13  19  8
14  17  8
15  18  8
16  21  8
17  18  8
19  22  8
21  23  8
22  23  8
26  27  8
26  28  8
27  29  8
28  30  8
29  31  8
30  31  8

$$$$
