164610238
  -OEChem-09292322432D

 69 72  0     1  0  0  0  0  0999 V2000
    7.1149    4.0354    0.0000 O   0  0  0  0  0  0  0  0  0  0  0  0
    9.7408    2.5008    0.0000 O   0  0  0  0  0  0  0  0  0  0  0  0
    9.7530    6.5700    0.0000 O   0  0  0  0  0  0  0  0  0  0  0  0
    3.6972   -2.0737    0.0000 O   0  0  0  0  0  0  0  0  0  0  0  0
    2.8718   -5.5835    0.0000 O   0  0  0  0  0  0  0  0  0  0  0  0
    6.3356   -5.5434    0.0000 O   0  0  0  0  0  0  0  0  0  0  0  0
    4.6152   -6.5634    0.0000 O   0  0  0  0  0  0  0  0  0  0  0  0
    7.1149    1.9661    0.0000 N   0  0  3  0  0  0  0  0  0  0  0  0
    5.4292   -2.0537    0.0000 N   0  0  0  0  0  0  0  0  0  0  0  0
    8.0088    2.5008    0.0000 C   0  0  1  0  0  0  0  0  0  0  0  0
    8.0088    3.5008    0.0000 C   0  0  1  0  0  0  0  0  0  0  0  0
    6.2088    2.4800    0.0000 C   0  0  0  0  0  0  0  0  0  0  0  0
    8.8748    2.0008    0.0000 C   0  0  0  0  0  0  0  0  0  0  0  0
    7.1264    0.9662    0.0000 C   0  0  0  0  0  0  0  0  0  0  0  0
    8.8748    4.0008    0.0000 C   0  0  0  0  0  0  0  0  0  0  0  0
    6.2088    3.5216    0.0000 C   0  0  0  0  0  0  0  0  0  0  0  0
    6.2662    0.4562    0.0000 C   0  0  0  0  0  0  0  0  0  0  0  0
    9.7408    3.5008    0.0000 C   0  0  0  0  0  0  0  0  0  0  0  0
    8.8588    5.0423    0.0000 C   0  0  0  0  0  0  0  0  0  0  0  0
    6.2778   -0.5437    0.0000 C   0  0  0  0  0  0  0  0  0  0  0  0
   10.6509    4.0076    0.0000 C   0  0  0  0  0  0  0  0  0  0  0  0
    9.7568    5.5700    0.0000 C   0  0  0  0  0  0  0  0  0  0  0  0
    5.4176   -1.0537    0.0000 C   0  0  0  0  0  0  0  0  0  0  0  0
   10.6589    5.0492    0.0000 C   0  0  0  0  0  0  0  0  0  0  0  0
    4.5690   -2.5636    0.0000 C   0  0  0  0  0  0  0  0  0  0  0  0
   10.6170    7.0734    0.0000 C   0  0  0  0  0  0  0  0  0  0  0  0
    4.5806   -3.5636    0.0000 C   0  0  0  0  0  0  0  0  0  0  0  0
    5.4523   -4.0535    0.0000 C   0  0  0  0  0  0  0  0  0  0  0  0
    3.7204   -4.0736    0.0000 C   0  0  0  0  0  0  0  0  0  0  0  0
    3.7319   -5.0735    0.0000 C   0  0  0  0  0  0  0  0  0  0  0  0
    5.4639   -5.0535    0.0000 C   0  0  0  0  0  0  0  0  0  0  0  0
    4.6037   -5.5634    0.0000 C   0  0  0  0  0  0  0  0  0  0  0  0
    2.0000   -5.0935    0.0000 C   0  0  0  0  0  0  0  0  0  0  0  0
    7.1958   -5.0334    0.0000 C   0  0  0  0  0  0  0  0  0  0  0  0
    3.7551   -7.0734    0.0000 C   0  0  0  0  0  0  0  0  0  0  0  0
    8.0154    1.6508    0.0000 H   0  0  0  0  0  0  0  0  0  0  0  0
    8.0154    4.3507    0.0000 H   0  0  0  0  0  0  0  0  0  0  0  0
    5.5979    2.5860    0.0000 H   0  0  0  0  0  0  0  0  0  0  0  0
    5.9997    1.8963    0.0000 H   0  0  0  0  0  0  0  0  0  0  0  0
    8.4763    1.5258    0.0000 H   0  0  0  0  0  0  0  0  0  0  0  0
    9.2734    1.5258    0.0000 H   0  0  0  0  0  0  0  0  0  0  0  0
    7.3452    0.3861    0.0000 H   0  0  0  0  0  0  0  0  0  0  0  0
    7.7357    1.0809    0.0000 H   0  0  0  0  0  0  0  0  0  0  0  0
    5.9997    4.1053    0.0000 H   0  0  0  0  0  0  0  0  0  0  0  0
    5.5979    3.4155    0.0000 H   0  0  0  0  0  0  0  0  0  0  0  0
    6.0475    1.0363    0.0000 H   0  0  0  0  0  0  0  0  0  0  0  0
    5.6569    0.3415    0.0000 H   0  0  0  0  0  0  0  0  0  0  0  0
    8.3183    5.3460    0.0000 H   0  0  0  0  0  0  0  0  0  0  0  0
    6.4966   -1.1239    0.0000 H   0  0  0  0  0  0  0  0  0  0  0  0
    6.8871   -0.4290    0.0000 H   0  0  0  0  0  0  0  0  0  0  0  0
   11.1842    3.6914    0.0000 H   0  0  0  0  0  0  0  0  0  0  0  0
    5.1988   -0.4736    0.0000 H   0  0  0  0  0  0  0  0  0  0  0  0
    4.8083   -1.1684    0.0000 H   0  0  0  0  0  0  0  0  0  0  0  0
   11.1970    5.3571    0.0000 H   0  0  0  0  0  0  0  0  0  0  0  0
    5.9697   -2.3574    0.0000 H   0  0  0  0  0  0  0  0  0  0  0  0
   10.9291    6.5376    0.0000 H   0  0  0  0  0  0  0  0  0  0  0  0
   11.1528    7.3854    0.0000 H   0  0  0  0  0  0  0  0  0  0  0  0
   10.3050    7.6091    0.0000 H   0  0  0  0  0  0  0  0  0  0  0  0
    5.9856   -3.7373    0.0000 H   0  0  0  0  0  0  0  0  0  0  0  0
    3.1799   -3.7698    0.0000 H   0  0  0  0  0  0  0  0  0  0  0  0
    2.3038   -4.5530    0.0000 H   0  0  0  0  0  0  0  0  0  0  0  0
    1.4595   -4.7897    0.0000 H   0  0  0  0  0  0  0  0  0  0  0  0
    1.6962   -5.6340    0.0000 H   0  0  0  0  0  0  0  0  0  0  0  0
    7.5120   -5.5667    0.0000 H   0  0  0  0  0  0  0  0  0  0  0  0
    7.7291   -4.7172    0.0000 H   0  0  0  0  0  0  0  0  0  0  0  0
    6.8796   -4.5001    0.0000 H   0  0  0  0  0  0  0  0  0  0  0  0
    3.4389   -6.5400    0.0000 H   0  0  0  0  0  0  0  0  0  0  0  0
    3.2218   -7.3895    0.0000 H   0  0  0  0  0  0  0  0  0  0  0  0
    4.0712   -7.6067    0.0000 H   0  0  0  0  0  0  0  0  0  0  0  0
  1 11  1  0  0  0  0
  1 16  1  0  0  0  0
  2 13  1  0  0  0  0
  2 18  1  0  0  0  0
  3 22  1  0  0  0  0
  3 26  1  0  0  0  0
  4 25  2  0  0  0  0
  5 30  1  0  0  0  0
  5 33  1  0  0  0  0
  6 31  1  0  0  0  0
  6 34  1  0  0  0  0
  7 32  1  0  0  0  0
  7 35  1  0  0  0  0
  8 10  1  0  0  0  0
  8 12  1  0  0  0  0
  8 14  1  0  0  0  0
  9 23  1  0  0  0  0
  9 25  1  0  0  0  0
  9 55  1  0  0  0  0
 10 11  1  0  0  0  0
 10 13  1  0  0  0  0
 10 36  1  6  0  0  0
 11 15  1  0  0  0  0
 11 37  1  1  0  0  0
 12 16  1  0  0  0  0
 12 38  1  0  0  0  0
 12 39  1  0  0  0  0
 13 40  1  0  0  0  0
 13 41  1  0  0  0  0
 14 17  1  0  0  0  0
 14 42  1  0  0  0  0
 14 43  1  0  0  0  0
 15 18  2  0  0  0  0
 15 19  1  0  0  0  0
 16 44  1  0  0  0  0
 16 45  1  0  0  0  0
 17 20  1  0  0  0  0
 17 46  1  0  0  0  0
 17 47  1  0  0  0  0
 18 21  1  0  0  0  0
 19 22  2  0  0  0  0
 19 48  1  0  0  0  0
 20 23  1  0  0  0  0
 20 49  1  0  0  0  0
 20 50  1  0  0  0  0
 21 24  2  0  0  0  0
 21 51  1  0  0  0  0
 22 24  1  0  0  0  0
 23 52  1  0  0  0  0
 23 53  1  0  0  0  0
 24 54  1  0  0  0  0
 25 27  1  0  0  0  0
 26 56  1  0  0  0  0
 26 57  1  0  0  0  0
 26 58  1  0  0  0  0
 27 28  2  0  0  0  0
 27 29  1  0  0  0  0
 28 31  1  0  0  0  0
 28 59  1  0  0  0  0
 29 30  2  0  0  0  0
 29 60  1  0  0  0  0
 30 32  1  0  0  0  0
 31 32  2  0  0  0  0
 33 61  1  0  0  0  0
 33 62  1  0  0  0  0
 33 63  1  0  0  0  0
 34 64  1  0  0  0  0
 34 65  1  0  0  0  0
 34 66  1  0  0  0  0
 35 67  1  0  0  0  0
 35 68  1  0  0  0  0
 35 69  1  0  0  0  0
M  END
> <PUBCHEM_COMPOUND_CID>
164610238

> <PUBCHEM_COMPOUND_CANONICALIZED>
1

> <PUBCHEM_CACTVS_COMPLEXITY>
654

> <PUBCHEM_CACTVS_HBOND_ACCEPTOR>
8

> <PUBCHEM_CACTVS_HBOND_DONOR>
1

> <PUBCHEM_CACTVS_ROTATABLE_BOND>
10

> <PUBCHEM_CACTVS_SUBSKEYS>
AAADcfB7OAAAAAAAAAAAAAAAAAAAAAAAAAA8aIEAAAAAAACxQAAAHgAQAAAADDzhmAYyBoPABACIAiFSEACCCAAkIAAIiIEOjMgPJzKEtRuHOSrl1hWaqYf6/L/OIQABCAAIQABCAAIQABCAAAAAAAAAAA==

> <PUBCHEM_IUPAC_OPENEYE_NAME>
N-[4-[(4aR,10bR)-9-methoxy-3,4a,5,10b-tetrahydro-2H-chromeno[4,3-b][1,4]oxazin-4-yl]butyl]-3,4,5-trimethoxy-benzamide

> <PUBCHEM_IUPAC_CAS_NAME>
N-[4-[(4aR,10bR)-9-methoxy-3,4a,5,10b-tetrahydro-2H-[1]benzopyrano[4,3-b][1,4]oxazin-4-yl]butyl]-3,4,5-trimethoxybenzamide

> <PUBCHEM_IUPAC_NAME_MARKUP>
<I>N</I>-[4-[(4<I>a</I><I>R</I>,10<I>b</I><I>R</I>)-9-methoxy-3,4<I>a</I>,5,10<I>b</I>-tetrahydro-2<I>H</I>-chromeno[4,3-b][1,4]oxazin-4-yl]butyl]-3,4,5-trimethoxybenzamide

> <PUBCHEM_IUPAC_NAME>
N-[4-[(4aR,10bR)-9-methoxy-3,4a,5,10b-tetrahydro-2H-chromeno[4,3-b][1,4]oxazin-4-yl]butyl]-3,4,5-trimethoxybenzamide

> <PUBCHEM_IUPAC_SYSTEMATIC_NAME>
N-[4-[(4aR,10bR)-9-methoxy-3,4a,5,10b-tetrahydro-2H-chromeno[4,3-b][1,4]oxazin-4-yl]butyl]-3,4,5-trimethoxy-benzamide

> <PUBCHEM_IUPAC_TRADITIONAL_NAME>
N-[4-[(4aR,10bR)-9-methoxy-3,4a,5,10b-tetrahydro-2H-chromeno[4,3-b][1,4]oxazin-4-yl]butyl]-3,4,5-trimethoxy-benzamide

> <PUBCHEM_IUPAC_INCHI>
InChI=1S/C26H34N2O7/c1-30-18-7-8-21-19(15-18)24-20(16-35-21)28(11-12-34-24)10-6-5-9-27-26(29)17-13-22(31-2)25(33-4)23(14-17)32-3/h7-8,13-15,20,24H,5-6,9-12,16H2,1-4H3,(H,27,29)/t20-,24-/m1/s1

> <PUBCHEM_IUPAC_INCHIKEY>
DKYKYMRCBZJRME-HYBUGGRVSA-N

> <PUBCHEM_XLOGP3>
3

> <PUBCHEM_EXACT_MASS>
486.23660143

> <PUBCHEM_MOLECULAR_FORMULA>
C26H34N2O7

> <PUBCHEM_MOLECULAR_WEIGHT>
486.6

> <PUBCHEM_OPENEYE_CAN_SMILES>
COC1=CC2=C(C=C1)OCC3C2OCCN3CCCCNC(=O)C4=CC(=C(C(=C4)OC)OC)OC

> <PUBCHEM_OPENEYE_ISO_SMILES>
COC1=CC2=C(C=C1)OC[C@@H]3[C@@H]2OCCN3CCCCNC(=O)C4=CC(=C(C(=C4)OC)OC)OC

> <PUBCHEM_CACTVS_TPSA>
87.7

> <PUBCHEM_MONOISOTOPIC_WEIGHT>
486.23660143

> <PUBCHEM_TOTAL_CHARGE>
0

> <PUBCHEM_HEAVY_ATOM_COUNT>
35

> <PUBCHEM_ATOM_DEF_STEREO_COUNT>
2

> <PUBCHEM_ATOM_UDEF_STEREO_COUNT>
0

> <PUBCHEM_BOND_DEF_STEREO_COUNT>
0

> <PUBCHEM_BOND_UDEF_STEREO_COUNT>
0

> <PUBCHEM_ISOTOPIC_ATOM_COUNT>
0

> <PUBCHEM_COMPONENT_COUNT>
1

> <PUBCHEM_CACTVS_TAUTO_COUNT>
-1

> <PUBCHEM_COORDINATE_TYPE>
1
5
255

> <PUBCHEM_BONDANNOTATIONS>
10  36  6
11  37  5
15  18  8
15  19  8
18  21  8
19  22  8
21  24  8
22  24  8
27  28  8
27  29  8
28  31  8
29  30  8
30  32  8
31  32  8

$$$$
