46231769
  -OEChem-09292322292D

 53 57  0     1  0  0  0  0  0999 V2000
    2.1374    3.0969    0.0000 Cl  0  0  0  0  0  0  0  0  0  0  0  0
    6.5225   -2.9384    0.0000 O   0  0  0  0  0  0  0  0  0  0  0  0
    2.5932    1.0999    0.0000 O   0  0  0  0  0  0  0  0  0  0  0  0
    7.0983    3.1787    0.0000 N   0  0  3  0  0  0  0  0  0  0  0  0
    7.4927   -1.5036    0.0000 N   0  0  0  0  0  0  0  0  0  0  0  0
    6.8758    2.2038    0.0000 C   0  0  2  0  0  0  0  0  0  0  0  0
    5.9748    1.7699    0.0000 C   0  0  2  0  0  0  0  0  0  0  0  0
    7.7453    1.6303    0.0000 C   0  0  0  0  0  0  0  0  0  0  0  0
    5.8810    0.7325    0.0000 C   0  0  0  0  0  0  0  0  0  0  0  0
    7.6755    0.5910    0.0000 C   0  0  0  0  0  0  0  0  0  0  0  0
    6.7370    0.1391    0.0000 C   0  0  0  0  0  0  0  0  0  0  0  0
    5.0738    2.2038    0.0000 C   0  0  0  0  0  0  0  0  0  0  0  0
    8.2502   -3.0612    0.0000 C   0  0  0  0  0  0  0  0  0  0  0  0
    8.6876   -3.9605    0.0000 C   0  0  0  0  0  0  0  0  0  0  0  0
    9.2477   -3.1321    0.0000 C   0  0  0  0  0  0  0  0  0  0  0  0
    6.4748    3.9605    0.0000 C   0  0  0  0  0  0  0  0  0  0  0  0
    4.8513    3.1787    0.0000 C   0  0  0  0  0  0  0  0  0  0  0  0
    5.4748    3.9605    0.0000 C   0  0  0  0  0  0  0  0  0  0  0  0
    6.6643   -0.9435    0.0000 C   0  0  0  0  0  0  0  0  0  0  0  0
    4.8928    0.2844    0.0000 C   0  0  0  0  0  0  0  0  0  0  0  0
    7.4218   -2.5011    0.0000 C   0  0  0  0  0  0  0  0  0  0  0  0
    8.0732    3.4012    0.0000 C   0  0  0  0  0  0  0  0  0  0  0  0
    4.3213    1.4836    0.0000 C   0  0  0  0  0  0  0  0  0  0  0  0
    5.6868   -1.4142    0.0000 C   0  0  0  0  0  0  0  0  0  0  0  0
    3.8608    3.5010    0.0000 C   0  0  0  0  0  0  0  0  0  0  0  0
    4.7950   -0.7961    0.0000 C   0  0  0  0  0  0  0  0  0  0  0  0
    3.3236    1.7829    0.0000 C   0  0  0  0  0  0  0  0  0  0  0  0
    3.0918    2.7984    0.0000 C   0  0  0  0  0  0  0  0  0  0  0  0
    7.6646    2.5204    0.0000 H   0  0  0  0  0  0  0  0  0  0  0  0
    5.2354    1.3506    0.0000 H   0  0  0  0  0  0  0  0  0  0  0  0
    8.3477    1.4835    0.0000 H   0  0  0  0  0  0  0  0  0  0  0  0
    7.9931    2.1987    0.0000 H   0  0  0  0  0  0  0  0  0  0  0  0
    7.8450   -0.0054    0.0000 H   0  0  0  0  0  0  0  0  0  0  0  0
    8.2921    0.6559    0.0000 H   0  0  0  0  0  0  0  0  0  0  0  0
    7.7818   -3.4674    0.0000 H   0  0  0  0  0  0  0  0  0  0  0  0
    8.1856   -4.3244    0.0000 H   0  0  0  0  0  0  0  0  0  0  0  0
    9.1331   -4.3917    0.0000 H   0  0  0  0  0  0  0  0  0  0  0  0
    9.8138   -3.3849    0.0000 H   0  0  0  0  0  0  0  0  0  0  0  0
    9.3984   -2.5307    0.0000 H   0  0  0  0  0  0  0  0  0  0  0  0
    7.0334    4.2295    0.0000 H   0  0  0  0  0  0  0  0  0  0  0  0
    6.3368    4.5650    0.0000 H   0  0  0  0  0  0  0  0  0  0  0  0
    5.6128    4.5650    0.0000 H   0  0  0  0  0  0  0  0  0  0  0  0
    4.9162    4.2295    0.0000 H   0  0  0  0  0  0  0  0  0  0  0  0
    4.3873    0.6435    0.0000 H   0  0  0  0  0  0  0  0  0  0  0  0
    8.2112    2.7967    0.0000 H   0  0  0  0  0  0  0  0  0  0  0  0
    8.6777    3.5392    0.0000 H   0  0  0  0  0  0  0  0  0  0  0  0
    7.9352    4.0056    0.0000 H   0  0  0  0  0  0  0  0  0  0  0  0
    4.4662    0.8808    0.0000 H   0  0  0  0  0  0  0  0  0  0  0  0
    8.0503   -1.2324    0.0000 H   0  0  0  0  0  0  0  0  0  0  0  0
    5.6380   -2.0323    0.0000 H   0  0  0  0  0  0  0  0  0  0  0  0
    3.7298    4.1070    0.0000 H   0  0  0  0  0  0  0  0  0  0  0  0
    4.2334   -1.0587    0.0000 H   0  0  0  0  0  0  0  0  0  0  0  0
    2.0000    1.2804    0.0000 H   0  0  0  0  0  0  0  0  0  0  0  0
  1 28  1  0  0  0  0
  2 21  2  0  0  0  0
  3 27  1  0  0  0  0
  3 53  1  0  0  0  0
  4  6  1  0  0  0  0
  4 16  1  0  0  0  0
  4 22  1  0  0  0  0
  5 19  1  0  0  0  0
  5 21  1  0  0  0  0
  5 49  1  0  0  0  0
  6  7  1  0  0  0  0
  6  8  1  0  0  0  0
  6 29  1  6  0  0  0
  7  9  1  0  0  0  0
  7 12  1  0  0  0  0
  7 30  1  1  0  0  0
  8 10  1  0  0  0  0
  8 31  1  0  0  0  0
  8 32  1  0  0  0  0
  9 11  2  0  0  0  0
  9 20  1  0  0  0  0
 10 11  1  0  0  0  0
 10 33  1  0  0  0  0
 10 34  1  0  0  0  0
 11 19  1  0  0  0  0
 12 17  1  0  0  0  0
 12 23  2  0  0  0  0
 13 14  1  0  0  0  0
 13 15  1  0  0  0  0
 13 21  1  0  0  0  0
 13 35  1  0  0  0  0
 14 15  1  0  0  0  0
 14 36  1  0  0  0  0
 14 37  1  0  0  0  0
 15 38  1  0  0  0  0
 15 39  1  0  0  0  0
 16 18  1  0  0  0  0
 16 40  1  0  0  0  0
 16 41  1  0  0  0  0
 17 18  1  0  0  0  0
 17 25  2  0  0  0  0
 18 42  1  0  0  0  0
 18 43  1  0  0  0  0
 19 24  2  0  0  0  0
 20 26  2  0  0  0  0
 20 44  1  0  0  0  0
 22 45  1  0  0  0  0
 22 46  1  0  0  0  0
 22 47  1  0  0  0  0
 23 27  1  0  0  0  0
 23 48  1  0  0  0  0
 24 26  1  0  0  0  0
 24 50  1  0  0  0  0
 25 28  1  0  0  0  0
 25 51  1  0  0  0  0
 26 52  1  0  0  0  0
 27 28  2  0  0  0  0
M  END
> <PUBCHEM_COMPOUND_CID>
46231769

> <PUBCHEM_COMPOUND_CANONICALIZED>
1

> <PUBCHEM_CACTVS_COMPLEXITY>
597

> <PUBCHEM_CACTVS_HBOND_ACCEPTOR>
3

> <PUBCHEM_CACTVS_HBOND_DONOR>
2

> <PUBCHEM_CACTVS_ROTATABLE_BOND>
2

> <PUBCHEM_CACTVS_SUBSKEYS>
AAADceB7MAAEAAAAAAAAAAAAGAAAAAAAAAAwYMAABYAAAADBQAAAHgIQCAAADS7BmCQyxoPAAgCIAiVSUACCAAAhJ0AIiAEOb4gIJjLDk5OEcAhk1BHI2AeQ0PMOpAABYAASCABYAAbAACQQAAAAAAAAAA==

> <PUBCHEM_IUPAC_OPENEYE_NAME>
N-[(6aS,13bS)-11-chloro-12-hydroxy-7-methyl-5,6,6a,8,9,13b-hexahydronaphtho[1,2-a][3]benzazepin-4-yl]cyclopropanecarboxamide

> <PUBCHEM_IUPAC_CAS_NAME>
N-[(6aS,13bS)-11-chloro-12-hydroxy-7-methyl-5,6,6a,8,9,13b-hexahydronaphtho[1,2-a][3]benzazepin-4-yl]cyclopropanecarboxamide

> <PUBCHEM_IUPAC_NAME_MARKUP>
<I>N</I>-[(6<I>a</I><I>S</I>,13<I>b</I><I>S</I>)-11-chloro-12-hydroxy-7-methyl-5,6,6<I>a</I>,8,9,13<I>b</I>-hexahydronaphtho[1,2-a][3]benzazepin-4-yl]cyclopropanecarboxamide

> <PUBCHEM_IUPAC_NAME>
N-[(6aS,13bS)-11-chloro-12-hydroxy-7-methyl-5,6,6a,8,9,13b-hexahydronaphtho[1,2-a][3]benzazepin-4-yl]cyclopropanecarboxamide

> <PUBCHEM_IUPAC_SYSTEMATIC_NAME>
N-[(6aS,13bS)-11-chloranyl-7-methyl-12-oxidanyl-5,6,6a,8,9,13b-hexahydronaphtho[1,2-a][3]benzazepin-4-yl]cyclopropanecarboxamide

> <PUBCHEM_IUPAC_TRADITIONAL_NAME>
N-[(6aS,13bS)-11-chloro-12-hydroxy-7-methyl-5,6,6a,8,9,13b-hexahydronaphtho[1,2-a][3]benzazepin-4-yl]cyclopropanecarboxamide

> <PUBCHEM_IUPAC_INCHI>
InChI=1S/C23H25ClN2O2/c1-26-10-9-14-11-18(24)21(27)12-17(14)22-16-3-2-4-19(15(16)7-8-20(22)26)25-23(28)13-5-6-13/h2-4,11-13,20,22,27H,5-10H2,1H3,(H,25,28)/t20-,22+/m0/s1

> <PUBCHEM_IUPAC_INCHIKEY>
VQPCZLCMOKJHPB-RBBKRZOGSA-N

> <PUBCHEM_XLOGP3_AA>
4.1

> <PUBCHEM_EXACT_MASS>
396.1604557

> <PUBCHEM_MOLECULAR_FORMULA>
C23H25ClN2O2

> <PUBCHEM_MOLECULAR_WEIGHT>
396.9

> <PUBCHEM_OPENEYE_CAN_SMILES>
CN1CCC2=CC(=C(C=C2C3C1CCC4=C3C=CC=C4NC(=O)C5CC5)O)Cl

> <PUBCHEM_OPENEYE_ISO_SMILES>
CN1CCC2=CC(=C(C=C2[C@@H]3[C@@H]1CCC4=C3C=CC=C4NC(=O)C5CC5)O)Cl

> <PUBCHEM_CACTVS_TPSA>
52.6

> <PUBCHEM_MONOISOTOPIC_WEIGHT>
396.1604557

> <PUBCHEM_TOTAL_CHARGE>
0

> <PUBCHEM_HEAVY_ATOM_COUNT>
28

> <PUBCHEM_ATOM_DEF_STEREO_COUNT>
2

> <PUBCHEM_ATOM_UDEF_STEREO_COUNT>
0

> <PUBCHEM_BOND_DEF_STEREO_COUNT>
0

> <PUBCHEM_BOND_UDEF_STEREO_COUNT>
0

> <PUBCHEM_ISOTOPIC_ATOM_COUNT>
0

> <PUBCHEM_COMPONENT_COUNT>
1

> <PUBCHEM_CACTVS_TAUTO_COUNT>
-1

> <PUBCHEM_COORDINATE_TYPE>
1
5
255

> <PUBCHEM_BONDANNOTATIONS>
11  19  8
12  17  8
12  23  8
17  25  8
19  24  8
20  26  8
23  27  8
24  26  8
25  28  8
27  28  8
6  29  6
7  30  5
9  11  8
9  20  8

$$$$
