10983103
  -OEChem-09292322112D

 62 66  0     0  0  0  0  0  0999 V2000
   14.0619   -2.1767    0.0000 O   0  0  0  0  0  0  0  0  0  0  0  0
    6.7889    3.0427    0.0000 O   0  0  0  0  0  0  0  0  0  0  0  0
    6.7889   -0.4678    0.0000 O   0  0  0  0  0  0  0  0  0  0  0  0
   11.0619   -0.4446    0.0000 N   0  0  0  0  0  0  0  0  0  0  0  0
   13.0619   -0.4446    0.0000 N   0  0  0  0  0  0  0  0  0  0  0  0
    7.0619    1.2874    0.0000 N   0  0  0  0  0  0  0  0  0  0  0  0
   11.5619    0.4214    0.0000 C   0  0  0  0  0  0  0  0  0  0  0  0
   11.5619   -1.3106    0.0000 C   0  0  0  0  0  0  0  0  0  0  0  0
   12.5619    0.4214    0.0000 C   0  0  0  0  0  0  0  0  0  0  0  0
   12.5619   -1.3106    0.0000 C   0  0  0  0  0  0  0  0  0  0  0  0
   10.0619   -0.4446    0.0000 C   0  0  0  0  0  0  0  0  0  0  0  0
    9.5619    0.4214    0.0000 C   0  0  0  0  0  0  0  0  0  0  0  0
    8.5619    0.4214    0.0000 C   0  0  0  0  0  0  0  0  0  0  0  0
    8.0619    1.2874    0.0000 C   0  0  0  0  0  0  0  0  0  0  0  0
   14.0619   -0.4446    0.0000 C   0  0  0  0  0  0  0  0  0  0  0  0
   14.5619   -1.3106    0.0000 C   0  0  0  0  0  0  0  0  0  0  0  0
    6.4783    2.0922    0.0000 C   0  0  0  0  0  0  0  0  0  0  0  0
    6.4783    0.4827    0.0000 C   0  0  0  0  0  0  0  0  0  0  0  0
    5.5321    1.7874    0.0000 C   0  0  0  0  0  0  0  0  0  0  0  0
    5.5321    0.7874    0.0000 C   0  0  0  0  0  0  0  0  0  0  0  0
   14.5619    0.4214    0.0000 C   0  0  0  0  0  0  0  0  0  0  0  0
    4.6660    2.2874    0.0000 C   0  0  0  0  0  0  0  0  0  0  0  0
    4.6660    0.2874    0.0000 C   0  0  0  0  0  0  0  0  0  0  0  0
    3.8000    1.7874    0.0000 C   0  0  0  0  0  0  0  0  0  0  0  0
    3.8000    0.7874    0.0000 C   0  0  0  0  0  0  0  0  0  0  0  0
   15.5619   -1.3106    0.0000 C   0  0  0  0  0  0  0  0  0  0  0  0
   15.5619    0.4214    0.0000 C   0  0  0  0  0  0  0  0  0  0  0  0
   16.0619   -0.4446    0.0000 C   0  0  0  0  0  0  0  0  0  0  0  0
    2.9061    2.3221    0.0000 C   0  0  0  0  0  0  0  0  0  0  0  0
    2.9061    0.2528    0.0000 C   0  0  0  0  0  0  0  0  0  0  0  0
    2.0000    1.8082    0.0000 C   0  0  0  0  0  0  0  0  0  0  0  0
    2.0000    0.7666    0.0000 C   0  0  0  0  0  0  0  0  0  0  0  0
   14.5619   -3.0427    0.0000 C   0  0  0  0  0  0  0  0  0  0  0  0
   11.6696    1.0320    0.0000 H   0  0  0  0  0  0  0  0  0  0  0  0
   10.9793    0.6335    0.0000 H   0  0  0  0  0  0  0  0  0  0  0  0
   10.9793   -1.5227    0.0000 H   0  0  0  0  0  0  0  0  0  0  0  0
   11.6696   -1.9212    0.0000 H   0  0  0  0  0  0  0  0  0  0  0  0
   13.1445    0.6335    0.0000 H   0  0  0  0  0  0  0  0  0  0  0  0
   12.4542    1.0320    0.0000 H   0  0  0  0  0  0  0  0  0  0  0  0
   12.4542   -1.9212    0.0000 H   0  0  0  0  0  0  0  0  0  0  0  0
   13.1445   -1.5227    0.0000 H   0  0  0  0  0  0  0  0  0  0  0  0
    9.4793   -0.6567    0.0000 H   0  0  0  0  0  0  0  0  0  0  0  0
   10.1696   -1.0552    0.0000 H   0  0  0  0  0  0  0  0  0  0  0  0
   10.1445    0.6335    0.0000 H   0  0  0  0  0  0  0  0  0  0  0  0
    9.4542    1.0320    0.0000 H   0  0  0  0  0  0  0  0  0  0  0  0
    7.9793    0.2094    0.0000 H   0  0  0  0  0  0  0  0  0  0  0  0
    8.6695   -0.1892    0.0000 H   0  0  0  0  0  0  0  0  0  0  0  0
    8.6445    1.4995    0.0000 H   0  0  0  0  0  0  0  0  0  0  0  0
    7.9542    1.8980    0.0000 H   0  0  0  0  0  0  0  0  0  0  0  0
   14.2519    0.9583    0.0000 H   0  0  0  0  0  0  0  0  0  0  0  0
    4.6660    2.9074    0.0000 H   0  0  0  0  0  0  0  0  0  0  0  0
    4.6660   -0.3326    0.0000 H   0  0  0  0  0  0  0  0  0  0  0  0
   15.8719   -1.8476    0.0000 H   0  0  0  0  0  0  0  0  0  0  0  0
   15.8719    0.9583    0.0000 H   0  0  0  0  0  0  0  0  0  0  0  0
   16.6819   -0.4446    0.0000 H   0  0  0  0  0  0  0  0  0  0  0  0
    2.9132    2.9421    0.0000 H   0  0  0  0  0  0  0  0  0  0  0  0
    2.9132   -0.3672    0.0000 H   0  0  0  0  0  0  0  0  0  0  0  0
    1.4643    2.1203    0.0000 H   0  0  0  0  0  0  0  0  0  0  0  0
    1.4643    0.4546    0.0000 H   0  0  0  0  0  0  0  0  0  0  0  0
   14.0250   -3.3527    0.0000 H   0  0  0  0  0  0  0  0  0  0  0  0
   14.8719   -3.5796    0.0000 H   0  0  0  0  0  0  0  0  0  0  0  0
   15.0988   -2.7327    0.0000 H   0  0  0  0  0  0  0  0  0  0  0  0
  1 16  1  0  0  0  0
  1 33  1  0  0  0  0
  2 17  2  0  0  0  0
  3 18  2  0  0  0  0
  4  7  1  0  0  0  0
  4  8  1  0  0  0  0
  4 11  1  0  0  0  0
  5  9  1  0  0  0  0
  5 10  1  0  0  0  0
  5 15  1  0  0  0  0
  6 14  1  0  0  0  0
  6 17  1  0  0  0  0
  6 18  1  0  0  0  0
  7  9  1  0  0  0  0
  7 34  1  0  0  0  0
  7 35  1  0  0  0  0
  8 10  1  0  0  0  0
  8 36  1  0  0  0  0
  8 37  1  0  0  0  0
  9 38  1  0  0  0  0
  9 39  1  0  0  0  0
 10 40  1  0  0  0  0
 10 41  1  0  0  0  0
 11 12  1  0  0  0  0
 11 42  1  0  0  0  0
 11 43  1  0  0  0  0
 12 13  1  0  0  0  0
 12 44  1  0  0  0  0
 12 45  1  0  0  0  0
 13 14  1  0  0  0  0
 13 46  1  0  0  0  0
 13 47  1  0  0  0  0
 14 48  1  0  0  0  0
 14 49  1  0  0  0  0
 15 16  1  0  0  0  0
 15 21  2  0  0  0  0
 16 26  2  0  0  0  0
 17 19  1  0  0  0  0
 18 20  1  0  0  0  0
 19 20  1  0  0  0  0
 19 22  2  0  0  0  0
 20 23  2  0  0  0  0
 21 27  1  0  0  0  0
 21 50  1  0  0  0  0
 22 24  1  0  0  0  0
 22 51  1  0  0  0  0
 23 25  1  0  0  0  0
 23 52  1  0  0  0  0
 24 25  1  0  0  0  0
 24 29  2  0  0  0  0
 25 30  2  0  0  0  0
 26 28  1  0  0  0  0
 26 53  1  0  0  0  0
 27 28  2  0  0  0  0
 27 54  1  0  0  0  0
 28 55  1  0  0  0  0
 29 31  1  0  0  0  0
 29 56  1  0  0  0  0
 30 32  1  0  0  0  0
 30 57  1  0  0  0  0
 31 32  2  0  0  0  0
 31 58  1  0  0  0  0
 32 59  1  0  0  0  0
 33 60  1  0  0  0  0
 33 61  1  0  0  0  0
 33 62  1  0  0  0  0
M  END
> <PUBCHEM_COMPOUND_CID>
10983103

> <PUBCHEM_COMPOUND_CANONICALIZED>
1

> <PUBCHEM_CACTVS_COMPLEXITY>
660

> <PUBCHEM_CACTVS_HBOND_ACCEPTOR>
5

> <PUBCHEM_CACTVS_HBOND_DONOR>
0

> <PUBCHEM_CACTVS_ROTATABLE_BOND>
7

> <PUBCHEM_CACTVS_SUBSKEYS>
AAADceB7MAAAAAAAAAAAAAAAAAAAAWAAAAA8YMEAAAAAAFjBVAAAHgAAAAAADAzBmAYyxsMABACIAiVSUACCCAAlIgAIiAEPbMgOZjLEtZuVMShkxjHY6YedyMCOwAACAAAQEACAAAQAACAgAAAAAAAAAA==

> <PUBCHEM_IUPAC_OPENEYE_NAME>
2-[4-[4-(2-methoxyphenyl)piperazin-1-yl]butyl]benzo[f]isoindole-1,3-dione

> <PUBCHEM_IUPAC_CAS_NAME>
2-[4-[4-(2-methoxyphenyl)-1-piperazinyl]butyl]benzo[f]isoindole-1,3-dione

> <PUBCHEM_IUPAC_NAME_MARKUP>
2-[4-[4-(2-methoxyphenyl)piperazin-1-yl]butyl]benzo[f]isoindole-1,3-dione

> <PUBCHEM_IUPAC_NAME>
2-[4-[4-(2-methoxyphenyl)piperazin-1-yl]butyl]benzo[f]isoindole-1,3-dione

> <PUBCHEM_IUPAC_SYSTEMATIC_NAME>
2-[4-[4-(2-methoxyphenyl)piperazin-1-yl]butyl]benzo[f]isoindole-1,3-dione

> <PUBCHEM_IUPAC_TRADITIONAL_NAME>
2-[4-[4-(2-methoxyphenyl)piperazino]butyl]benz[f]isoindole-1,3-quinone

> <PUBCHEM_IUPAC_INCHI>
InChI=1S/C27H29N3O3/c1-33-25-11-5-4-10-24(25)29-16-14-28(15-17-29)12-6-7-13-30-26(31)22-18-20-8-2-3-9-21(20)19-23(22)27(30)32/h2-5,8-11,18-19H,6-7,12-17H2,1H3

> <PUBCHEM_IUPAC_INCHIKEY>
YAWDPUHJRVVYKE-UHFFFAOYSA-N

> <PUBCHEM_XLOGP3_AA>
4.5

> <PUBCHEM_EXACT_MASS>
443.22089180

> <PUBCHEM_MOLECULAR_FORMULA>
C27H29N3O3

> <PUBCHEM_MOLECULAR_WEIGHT>
443.5

> <PUBCHEM_OPENEYE_CAN_SMILES>
COC1=CC=CC=C1N2CCN(CC2)CCCCN3C(=O)C4=CC5=CC=CC=C5C=C4C3=O

> <PUBCHEM_OPENEYE_ISO_SMILES>
COC1=CC=CC=C1N2CCN(CC2)CCCCN3C(=O)C4=CC5=CC=CC=C5C=C4C3=O

> <PUBCHEM_CACTVS_TPSA>
53.1

> <PUBCHEM_MONOISOTOPIC_WEIGHT>
443.22089180

> <PUBCHEM_TOTAL_CHARGE>
0

> <PUBCHEM_HEAVY_ATOM_COUNT>
33

> <PUBCHEM_ATOM_DEF_STEREO_COUNT>
0

> <PUBCHEM_ATOM_UDEF_STEREO_COUNT>
0

> <PUBCHEM_BOND_DEF_STEREO_COUNT>
0

> <PUBCHEM_BOND_UDEF_STEREO_COUNT>
0

> <PUBCHEM_ISOTOPIC_ATOM_COUNT>
0

> <PUBCHEM_COMPONENT_COUNT>
1

> <PUBCHEM_CACTVS_TAUTO_COUNT>
-1

> <PUBCHEM_COORDINATE_TYPE>
1
5
255

> <PUBCHEM_BONDANNOTATIONS>
15  16  8
15  21  8
16  26  8
19  20  8
19  22  8
20  23  8
21  27  8
22  24  8
23  25  8
24  25  8
24  29  8
25  30  8
26  28  8
27  28  8
29  31  8
30  32  8
31  32  8

$$$$
