13091268
  -OEChem-09292322192D

 53 56  0     1  0  0  0  0  0999 V2000
    2.0000   -6.1237    0.0000 Cl  0  0  0  0  0  0  0  0  0  0  0  0
    4.1434    6.1237    0.0000 F   0  0  0  0  0  0  0  0  0  0  0  0
    3.5863   -2.8859    0.0000 O   0  0  0  0  0  0  0  0  0  0  0  0
    7.1434    2.6596    0.0000 O   0  0  0  0  0  0  0  0  0  0  0  0
    6.1434   -0.8045    0.0000 N   0  0  0  0  0  0  0  0  0  0  0  0
    6.8800   -1.7871    0.0000 C   0  0  3  0  0  0  0  0  0  0  0  0
    6.6212   -2.7530    0.0000 C   0  0  3  0  0  0  0  0  0  0  0  0
    4.5712   -3.0595    0.0000 C   0  0  0  0  0  0  0  0  0  0  0  0
    4.8468   -2.0983    0.0000 C   0  0  0  0  0  0  0  0  0  0  0  0
    5.4002   -3.6187    0.0000 C   0  0  0  0  0  0  0  0  0  0  0  0
    8.2790   -2.2959    0.0000 C   0  0  0  0  0  0  0  0  0  0  0  0
    8.0201   -3.2619    0.0000 C   0  0  0  0  0  0  0  0  0  0  0  0
    5.6434    0.0615    0.0000 C   0  0  0  0  0  0  0  0  0  0  0  0
    3.9284   -3.8256    0.0000 C   0  0  0  0  0  0  0  0  0  0  0  0
    6.1434    0.9275    0.0000 C   0  0  0  0  0  0  0  0  0  0  0  0
    4.2704   -4.7652    0.0000 C   0  0  0  0  0  0  0  0  0  0  0  0
    2.9436   -3.6519    0.0000 C   0  0  0  0  0  0  0  0  0  0  0  0
    5.6434    1.7936    0.0000 C   0  0  0  0  0  0  0  0  0  0  0  0
    3.6276   -5.5313    0.0000 C   0  0  0  0  0  0  0  0  0  0  0  0
    2.3008   -4.4180    0.0000 C   0  0  0  0  0  0  0  0  0  0  0  0
    6.1434    2.6596    0.0000 C   0  0  0  0  0  0  0  0  0  0  0  0
    2.6428   -5.3576    0.0000 C   0  0  0  0  0  0  0  0  0  0  0  0
    5.6434    3.5256    0.0000 C   0  0  0  0  0  0  0  0  0  0  0  0
    4.6434    3.5256    0.0000 C   0  0  0  0  0  0  0  0  0  0  0  0
    6.1434    4.3916    0.0000 C   0  0  0  0  0  0  0  0  0  0  0  0
    4.1434    4.3916    0.0000 C   0  0  0  0  0  0  0  0  0  0  0  0
    5.6434    5.2577    0.0000 C   0  0  0  0  0  0  0  0  0  0  0  0
    4.6434    5.2577    0.0000 C   0  0  0  0  0  0  0  0  0  0  0  0
    7.2494   -1.2892    0.0000 H   0  0  0  0  0  0  0  0  0  0  0  0
    6.7040   -3.3675    0.0000 H   0  0  0  0  0  0  0  0  0  0  0  0
    4.8417   -1.4783    0.0000 H   0  0  0  0  0  0  0  0  0  0  0  0
    4.2325   -2.0145    0.0000 H   0  0  0  0  0  0  0  0  0  0  0  0
    4.9943   -4.0874    0.0000 H   0  0  0  0  0  0  0  0  0  0  0  0
    5.8168   -4.0778    0.0000 H   0  0  0  0  0  0  0  0  0  0  0  0
    8.8729   -2.4737    0.0000 H   0  0  0  0  0  0  0  0  0  0  0  0
    8.4739   -1.7074    0.0000 H   0  0  0  0  0  0  0  0  0  0  0  0
    7.8252   -3.8504    0.0000 H   0  0  0  0  0  0  0  0  0  0  0  0
    8.6141   -3.4396    0.0000 H   0  0  0  0  0  0  0  0  0  0  0  0
    5.1685    0.4600    0.0000 H   0  0  0  0  0  0  0  0  0  0  0  0
    5.1685   -0.3370    0.0000 H   0  0  0  0  0  0  0  0  0  0  0  0
    6.6184    0.5290    0.0000 H   0  0  0  0  0  0  0  0  0  0  0  0
    6.6184    1.3261    0.0000 H   0  0  0  0  0  0  0  0  0  0  0  0
    3.3743   -2.3033    0.0000 H   0  0  0  0  0  0  0  0  0  0  0  0
    4.8810   -4.8729    0.0000 H   0  0  0  0  0  0  0  0  0  0  0  0
    2.7315   -3.0693    0.0000 H   0  0  0  0  0  0  0  0  0  0  0  0
    5.1685    2.1921    0.0000 H   0  0  0  0  0  0  0  0  0  0  0  0
    5.1685    1.3950    0.0000 H   0  0  0  0  0  0  0  0  0  0  0  0
    3.8396   -6.1139    0.0000 H   0  0  0  0  0  0  0  0  0  0  0  0
    1.6902   -4.3103    0.0000 H   0  0  0  0  0  0  0  0  0  0  0  0
    4.3334    2.9887    0.0000 H   0  0  0  0  0  0  0  0  0  0  0  0
    6.7634    4.3916    0.0000 H   0  0  0  0  0  0  0  0  0  0  0  0
    3.5234    4.3916    0.0000 H   0  0  0  0  0  0  0  0  0  0  0  0
    5.9534    5.7946    0.0000 H   0  0  0  0  0  0  0  0  0  0  0  0
  1 22  1  0  0  0  0
  2 28  1  0  0  0  0
  3  8  1  0  0  0  0
  3 43  1  0  0  0  0
  4 21  2  0  0  0  0
  5  6  1  0  0  0  0
  5  7  1  0  0  0  0
  5 13  1  0  0  0  0
  6  9  1  0  0  0  0
  6 11  1  0  0  0  0
  6 29  1  0  0  0  0
  7 10  1  0  0  0  0
  7 12  1  0  0  0  0
  7 30  1  0  0  0  0
  8  9  1  0  0  0  0
  8 10  1  0  0  0  0
  8 14  1  0  0  0  0
  9 31  1  0  0  0  0
  9 32  1  0  0  0  0
 10 33  1  0  0  0  0
 10 34  1  0  0  0  0
 11 12  1  0  0  0  0
 11 35  1  0  0  0  0
 11 36  1  0  0  0  0
 12 37  1  0  0  0  0
 12 38  1  0  0  0  0
 13 15  1  0  0  0  0
 13 39  1  0  0  0  0
 13 40  1  0  0  0  0
 14 16  2  0  0  0  0
 14 17  1  0  0  0  0
 15 18  1  0  0  0  0
 15 41  1  0  0  0  0
 15 42  1  0  0  0  0
 16 19  1  0  0  0  0
 16 44  1  0  0  0  0
 17 20  2  0  0  0  0
 17 45  1  0  0  0  0
 18 21  1  0  0  0  0
 18 46  1  0  0  0  0
 18 47  1  0  0  0  0
 19 22  2  0  0  0  0
 19 48  1  0  0  0  0
 20 22  1  0  0  0  0
 20 49  1  0  0  0  0
 21 23  1  0  0  0  0
 23 24  2  0  0  0  0
 23 25  1  0  0  0  0
 24 26  1  0  0  0  0
 24 50  1  0  0  0  0
 25 27  2  0  0  0  0
 25 51  1  0  0  0  0
 26 28  2  0  0  0  0
 26 52  1  0  0  0  0
 27 28  1  0  0  0  0
 27 53  1  0  0  0  0
M  END
> <PUBCHEM_COMPOUND_CID>
13091268

> <PUBCHEM_COMPOUND_CANONICALIZED>
1

> <PUBCHEM_CACTVS_COMPLEXITY>
529

> <PUBCHEM_CACTVS_HBOND_ACCEPTOR>
4

> <PUBCHEM_CACTVS_HBOND_DONOR>
1

> <PUBCHEM_CACTVS_ROTATABLE_BOND>
6

> <PUBCHEM_CACTVS_SUBSKEYS>
AAADceB6MQAEAAAAAAAAAAAAAAAAAWAAAAA8YIAABgAAAAABQAAAHwIACAAADG7BmCwwAIMAAgCIAqBSAAACAAAkBQAIiAEICsgIJjKBlxCEcQAmwAGImYecyOCOhAAAAAAAAAAIAAAAAAAAAAAAAAAAAA==

> <PUBCHEM_IUPAC_OPENEYE_NAME>
4-[3-(4-chlorophenyl)-3-hydroxy-8-azabicyclo[3.2.1]octan-8-yl]-1-(4-fluorophenyl)butan-1-one

> <PUBCHEM_IUPAC_CAS_NAME>
4-[3-(4-chlorophenyl)-3-hydroxy-8-azabicyclo[3.2.1]octan-8-yl]-1-(4-fluorophenyl)-1-butanone

> <PUBCHEM_IUPAC_NAME_MARKUP>
4-[3-(4-chlorophenyl)-3-hydroxy-8-azabicyclo[3.2.1]octan-8-yl]-1-(4-fluorophenyl)butan-1-one

> <PUBCHEM_IUPAC_NAME>
4-[3-(4-chlorophenyl)-3-hydroxy-8-azabicyclo[3.2.1]octan-8-yl]-1-(4-fluorophenyl)butan-1-one

> <PUBCHEM_IUPAC_SYSTEMATIC_NAME>
4-[3-(4-chlorophenyl)-3-oxidanyl-8-azabicyclo[3.2.1]octan-8-yl]-1-(4-fluorophenyl)butan-1-one

> <PUBCHEM_IUPAC_TRADITIONAL_NAME>
4-[3-(4-chlorophenyl)-3-hydroxy-8-azabicyclo[3.2.1]octan-8-yl]-1-(4-fluorophenyl)butan-1-one

> <PUBCHEM_IUPAC_INCHI>
InChI=1S/C23H25ClFNO2/c24-18-7-5-17(6-8-18)23(28)14-20-11-12-21(15-23)26(20)13-1-2-22(27)16-3-9-19(25)10-4-16/h3-10,20-21,28H,1-2,11-15H2

> <PUBCHEM_IUPAC_INCHIKEY>
CXQUOFVDYCOSEZ-UHFFFAOYSA-N

> <PUBCHEM_XLOGP3_AA>
4.4

> <PUBCHEM_EXACT_MASS>
401.1557849

> <PUBCHEM_MOLECULAR_FORMULA>
C23H25ClFNO2

> <PUBCHEM_MOLECULAR_WEIGHT>
401.9

> <PUBCHEM_OPENEYE_CAN_SMILES>
C1CC2CC(CC1N2CCCC(=O)C3=CC=C(C=C3)F)(C4=CC=C(C=C4)Cl)O

> <PUBCHEM_OPENEYE_ISO_SMILES>
C1CC2CC(CC1N2CCCC(=O)C3=CC=C(C=C3)F)(C4=CC=C(C=C4)Cl)O

> <PUBCHEM_CACTVS_TPSA>
40.5

> <PUBCHEM_MONOISOTOPIC_WEIGHT>
401.1557849

> <PUBCHEM_TOTAL_CHARGE>
0

> <PUBCHEM_HEAVY_ATOM_COUNT>
28

> <PUBCHEM_ATOM_DEF_STEREO_COUNT>
0

> <PUBCHEM_ATOM_UDEF_STEREO_COUNT>
2

> <PUBCHEM_BOND_DEF_STEREO_COUNT>
0

> <PUBCHEM_BOND_UDEF_STEREO_COUNT>
0

> <PUBCHEM_ISOTOPIC_ATOM_COUNT>
0

> <PUBCHEM_COMPONENT_COUNT>
1

> <PUBCHEM_CACTVS_TAUTO_COUNT>
-1

> <PUBCHEM_COORDINATE_TYPE>
1
5
255

> <PUBCHEM_BONDANNOTATIONS>
14  16  8
14  17  8
16  19  8
17  20  8
19  22  8
20  22  8
23  24  8
23  25  8
24  26  8
25  27  8
26  28  8
27  28  8
6  11  3
7  12  3

$$$$
