11504077
  -OEChem-09292322242D

 60 64  0     1  0  0  0  0  0999 V2000
    6.8867    1.4317    0.0000 S   0  0  0  0  0  0  0  0  0  0  0  0
   15.1012   -4.1073    0.0000 F   0  0  0  0  0  0  0  0  0  0  0  0
   15.4673   -2.7412    0.0000 F   0  0  0  0  0  0  0  0  0  0  0  0
   14.5064   -1.4674    0.0000 O   0  0  0  0  0  0  0  0  0  0  0  0
    2.5878    2.2105    0.0000 O   0  0  0  0  0  0  0  0  0  0  0  0
    9.8867   -0.3004    0.0000 N   0  0  3  0  0  0  0  0  0  0  0  0
   13.1125   -2.2722    0.0000 N   0  0  0  0  0  0  0  0  0  0  0  0
    5.2989    2.2407    0.0000 N   0  0  0  0  0  0  0  0  0  0  0  0
    5.2989    0.6227    0.0000 N   0  0  0  0  0  0  0  0  0  0  0  0
    4.3479    0.9317    0.0000 N   0  0  0  0  0  0  0  0  0  0  0  0
    2.5878    3.8285    0.0000 N   0  0  0  0  0  0  0  0  0  0  0  0
   10.3111   -1.1846    0.0000 C   0  0  0  0  0  0  0  0  0  0  0  0
   10.3111    0.5839    0.0000 C   0  0  0  0  0  0  0  0  0  0  0  0
   11.2664   -1.4067    0.0000 C   0  0  0  0  0  0  0  0  0  0  0  0
   11.2664    0.8060    0.0000 C   0  0  0  0  0  0  0  0  0  0  0  0
   12.0373   -0.8004    0.0000 C   0  0  0  0  0  0  0  0  0  0  0  0
   12.0373    0.1996    0.0000 C   0  0  0  0  0  0  0  0  0  0  0  0
    8.8867   -0.3004    0.0000 C   0  0  0  0  0  0  0  0  0  0  0  0
   12.9033   -1.3003    0.0000 C   0  0  0  0  0  0  0  0  0  0  0  0
    8.3867    0.5657    0.0000 C   0  0  0  0  0  0  0  0  0  0  0  0
   12.9033    0.6996    0.0000 C   0  0  0  0  0  0  0  0  0  0  0  0
   13.7693   -0.8004    0.0000 C   0  0  0  0  0  0  0  0  0  0  0  0
   13.7693    0.1996    0.0000 C   0  0  0  0  0  0  0  0  0  0  0  0
    7.3867    0.5657    0.0000 C   0  0  0  0  0  0  0  0  0  0  0  0
   14.1012   -2.3752    0.0000 C   0  0  0  0  0  0  0  0  0  0  0  0
   14.6012   -3.2412    0.0000 C   0  0  0  0  0  0  0  0  0  0  0  0
    5.8867    1.4317    0.0000 C   0  0  0  0  0  0  0  0  0  0  0  0
   13.7352   -3.7412    0.0000 C   0  0  0  0  0  0  0  0  0  0  0  0
    4.3479    1.9317    0.0000 C   0  0  0  0  0  0  0  0  0  0  0  0
    5.6079    3.1918    0.0000 C   0  0  0  0  0  0  0  0  0  0  0  0
    3.5388    2.5195    0.0000 C   0  0  0  0  0  0  0  0  0  0  0  0
    3.5388    3.5195    0.0000 C   0  0  0  0  0  0  0  0  0  0  0  0
    4.3479    4.1073    0.0000 C   0  0  0  0  0  0  0  0  0  0  0  0
    2.0000    3.0195    0.0000 C   0  0  0  0  0  0  0  0  0  0  0  0
    9.7063   -1.3212    0.0000 H   0  0  0  0  0  0  0  0  0  0  0  0
   10.3091   -1.8046    0.0000 H   0  0  0  0  0  0  0  0  0  0  0  0
   10.3091    1.2039    0.0000 H   0  0  0  0  0  0  0  0  0  0  0  0
    9.7063    0.7205    0.0000 H   0  0  0  0  0  0  0  0  0  0  0  0
   10.9946   -1.9640    0.0000 H   0  0  0  0  0  0  0  0  0  0  0  0
   11.7488   -1.7961    0.0000 H   0  0  0  0  0  0  0  0  0  0  0  0
   11.7488    1.1954    0.0000 H   0  0  0  0  0  0  0  0  0  0  0  0
   10.9946    1.3633    0.0000 H   0  0  0  0  0  0  0  0  0  0  0  0
    8.3041   -0.5124    0.0000 H   0  0  0  0  0  0  0  0  0  0  0  0
    8.9944   -0.9109    0.0000 H   0  0  0  0  0  0  0  0  0  0  0  0
    8.9693    0.7777    0.0000 H   0  0  0  0  0  0  0  0  0  0  0  0
    8.2790    1.1763    0.0000 H   0  0  0  0  0  0  0  0  0  0  0  0
   12.9033    1.3196    0.0000 H   0  0  0  0  0  0  0  0  0  0  0  0
   14.3063    0.5097    0.0000 H   0  0  0  0  0  0  0  0  0  0  0  0
    6.8041    0.3536    0.0000 H   0  0  0  0  0  0  0  0  0  0  0  0
    7.4944   -0.0449    0.0000 H   0  0  0  0  0  0  0  0  0  0  0  0
   13.4252   -3.2043    0.0000 H   0  0  0  0  0  0  0  0  0  0  0  0
   13.1983   -4.0512    0.0000 H   0  0  0  0  0  0  0  0  0  0  0  0
   14.0452   -4.2782    0.0000 H   0  0  0  0  0  0  0  0  0  0  0  0
    6.1976    3.0002    0.0000 H   0  0  0  0  0  0  0  0  0  0  0  0
    5.7995    3.7814    0.0000 H   0  0  0  0  0  0  0  0  0  0  0  0
    5.0183    3.3834    0.0000 H   0  0  0  0  0  0  0  0  0  0  0  0
    4.7123    3.6057    0.0000 H   0  0  0  0  0  0  0  0  0  0  0  0
    4.8494    4.4717    0.0000 H   0  0  0  0  0  0  0  0  0  0  0  0
    3.9834    4.6089    0.0000 H   0  0  0  0  0  0  0  0  0  0  0  0
    1.3800    3.0195    0.0000 H   0  0  0  0  0  0  0  0  0  0  0  0
  1 24  1  0  0  0  0
  1 27  1  0  0  0  0
  2 26  1  0  0  0  0
  3 26  1  0  0  0  0
  4 22  1  0  0  0  0
  4 25  1  0  0  0  0
  5 31  1  0  0  0  0
  5 34  1  0  0  0  0
  6 12  1  0  0  0  0
  6 13  1  0  0  0  0
  6 18  1  0  0  0  0
  7 19  1  0  0  0  0
  7 25  2  0  0  0  0
  8 27  1  0  0  0  0
  8 29  1  0  0  0  0
  8 30  1  0  0  0  0
  9 10  1  0  0  0  0
  9 27  2  0  0  0  0
 10 29  2  0  0  0  0
 11 32  1  0  0  0  0
 11 34  2  0  0  0  0
 12 14  1  0  0  0  0
 12 35  1  0  0  0  0
 12 36  1  0  0  0  0
 13 15  1  0  0  0  0
 13 37  1  0  0  0  0
 13 38  1  0  0  0  0
 14 16  1  0  0  0  0
 14 39  1  0  0  0  0
 14 40  1  0  0  0  0
 15 17  1  0  0  0  0
 15 41  1  0  0  0  0
 15 42  1  0  0  0  0
 16 17  2  0  0  0  0
 16 19  1  0  0  0  0
 17 21  1  0  0  0  0
 18 20  1  0  0  0  0
 18 43  1  0  0  0  0
 18 44  1  0  0  0  0
 19 22  2  0  0  0  0
 20 24  1  0  0  0  0
 20 45  1  0  0  0  0
 20 46  1  0  0  0  0
 21 23  2  0  0  0  0
 21 47  1  0  0  0  0
 22 23  1  0  0  0  0
 23 48  1  0  0  0  0
 24 49  1  0  0  0  0
 24 50  1  0  0  0  0
 25 26  1  0  0  0  0
 26 28  1  0  0  0  0
 28 51  1  0  0  0  0
 28 52  1  0  0  0  0
 28 53  1  0  0  0  0
 29 31  1  0  0  0  0
 30 54  1  0  0  0  0
 30 55  1  0  0  0  0
 30 56  1  0  0  0  0
 31 32  2  0  0  0  0
 32 33  1  0  0  0  0
 33 57  1  0  0  0  0
 33 58  1  0  0  0  0
 33 59  1  0  0  0  0
 34 60  1  0  0  0  0
M  END
> <PUBCHEM_COMPOUND_CID>
11504077

> <PUBCHEM_COMPOUND_CANONICALIZED>
1

> <PUBCHEM_CACTVS_COMPLEXITY>
696

> <PUBCHEM_CACTVS_HBOND_ACCEPTOR>
10

> <PUBCHEM_CACTVS_HBOND_DONOR>
0

> <PUBCHEM_CACTVS_ROTATABLE_BOND>
7

> <PUBCHEM_CACTVS_SUBSKEYS>
AAADceB7sYBAAAAAAAAAAAAAAAAAAWLFgAAwAAAABYAAAFgB/gAAHwQIAAAADAzF3xa31rcMFEiqA6dz9ASS2Ct/YLAd2CG/TNiOLrLk/buPOSjkzBPY6YeY2bKOoAABQAASEABAAAKAACQgAAAAAAAAAA==

> <PUBCHEM_IUPAC_OPENEYE_NAME>
2-(1,1-difluoroethyl)-8-[3-[[4-methyl-5-(4-methyloxazol-5-yl)-1,2,4-triazol-3-yl]sulfanyl]propyl]-6,7,9,10-tetrahydrooxazolo[5,4-i][3]benzazepine

> <PUBCHEM_IUPAC_CAS_NAME>
2-(1,1-difluoroethyl)-8-[3-[[4-methyl-5-(4-methyl-5-oxazolyl)-1,2,4-triazol-3-yl]thio]propyl]-6,7,9,10-tetrahydrooxazolo[5,4-i][3]benzazepine

> <PUBCHEM_IUPAC_NAME_MARKUP>
2-(1,1-difluoroethyl)-8-[3-[[4-methyl-5-(4-methyl-1,3-oxazol-5-yl)-1,2,4-triazol-3-yl]sulfanyl]propyl]-6,7,9,10-tetrahydro-[1,3]oxazolo[5,4-i][3]benzazepine

> <PUBCHEM_IUPAC_NAME>
2-(1,1-difluoroethyl)-8-[3-[[4-methyl-5-(4-methyl-1,3-oxazol-5-yl)-1,2,4-triazol-3-yl]sulfanyl]propyl]-6,7,9,10-tetrahydro-[1,3]oxazolo[5,4-i][3]benzazepine

> <PUBCHEM_IUPAC_SYSTEMATIC_NAME>
2-[1,1-bis(fluoranyl)ethyl]-8-[3-[[4-methyl-5-(4-methyl-1,3-oxazol-5-yl)-1,2,4-triazol-3-yl]sulfanyl]propyl]-6,7,9,10-tetrahydro-[1,3]oxazolo[5,4-i][3]benzazepine

> <PUBCHEM_IUPAC_TRADITIONAL_NAME>
2-(1,1-difluoroethyl)-8-[3-[[4-methyl-5-(4-methyloxazol-5-yl)-1,2,4-triazol-3-yl]thio]propyl]-6,7,9,10-tetrahydrooxazolo[5,4-i][3]benzazepine

> <PUBCHEM_IUPAC_INCHI>
InChI=1S/C23H26F2N6O2S/c1-14-19(32-13-26-14)20-28-29-22(30(20)3)34-12-4-9-31-10-7-15-5-6-17-18(16(15)8-11-31)27-21(33-17)23(2,24)25/h5-6,13H,4,7-12H2,1-3H3

> <PUBCHEM_IUPAC_INCHIKEY>
QJNRRDWLNVGLID-UHFFFAOYSA-N

> <PUBCHEM_XLOGP3_AA>
3.9

> <PUBCHEM_EXACT_MASS>
488.18060159

> <PUBCHEM_MOLECULAR_FORMULA>
C23H26F2N6O2S

> <PUBCHEM_MOLECULAR_WEIGHT>
488.6

> <PUBCHEM_OPENEYE_CAN_SMILES>
CC1=C(OC=N1)C2=NN=C(N2C)SCCCN3CCC4=C(CC3)C5=C(C=C4)OC(=N5)C(C)(F)F

> <PUBCHEM_OPENEYE_ISO_SMILES>
CC1=C(OC=N1)C2=NN=C(N2C)SCCCN3CCC4=C(CC3)C5=C(C=C4)OC(=N5)C(C)(F)F

> <PUBCHEM_CACTVS_TPSA>
111

> <PUBCHEM_MONOISOTOPIC_WEIGHT>
488.18060159

> <PUBCHEM_TOTAL_CHARGE>
0

> <PUBCHEM_HEAVY_ATOM_COUNT>
34

> <PUBCHEM_ATOM_DEF_STEREO_COUNT>
0

> <PUBCHEM_ATOM_UDEF_STEREO_COUNT>
0

> <PUBCHEM_BOND_DEF_STEREO_COUNT>
0

> <PUBCHEM_BOND_UDEF_STEREO_COUNT>
0

> <PUBCHEM_ISOTOPIC_ATOM_COUNT>
0

> <PUBCHEM_COMPONENT_COUNT>
1

> <PUBCHEM_CACTVS_TAUTO_COUNT>
-1

> <PUBCHEM_COORDINATE_TYPE>
1
5
255

> <PUBCHEM_BONDANNOTATIONS>
10  29  8
11  32  8
11  34  8
16  17  8
16  19  8
17  21  8
19  22  8
21  23  8
22  23  8
31  32  8
4  22  8
4  25  8
5  31  8
5  34  8
7  19  8
7  25  8
8  27  8
8  29  8
9  10  8
9  27  8

$$$$
