71541081
  -OEChem-09292322052D

 35 37  0     1  0  0  0  0  0999 V2000
    4.1087   -2.4052    0.0000 S   0  0  0  0  0  0  0  0  0  0  0  0
    7.8262    3.9112    0.0000 O   0  0  0  0  0  0  0  0  0  0  0  0
    5.8262    2.1791    0.0000 N   0  0  3  0  0  0  0  0  0  0  0  0
    2.7149   -1.6004    0.0000 N   0  0  0  0  0  0  0  0  0  0  0  0
    2.6200   -3.3742    0.0000 N   0  0  0  0  0  0  0  0  0  0  0  0
    6.3798    1.3695    0.0000 C   0  0  0  0  0  0  0  0  0  0  0  0
    4.8483    2.2537    0.0000 C   0  0  0  0  0  0  0  0  0  0  0  0
    6.0945    0.4311    0.0000 C   0  0  0  0  0  0  0  0  0  0  0  0
    4.1783    1.5375    0.0000 C   0  0  0  0  0  0  0  0  0  0  0  0
    5.1840    0.0667    0.0000 C   0  0  0  0  0  0  0  0  0  0  0  0
    4.3179    0.5667    0.0000 C   0  0  0  0  0  0  0  0  0  0  0  0
    6.3262    3.0452    0.0000 C   0  0  0  0  0  0  0  0  0  0  0  0
    5.1840   -0.9333    0.0000 C   0  0  0  0  0  0  0  0  0  0  0  0
    3.4519    0.0667    0.0000 C   0  0  0  0  0  0  0  0  0  0  0  0
    4.3179   -1.4333    0.0000 C   0  0  0  0  0  0  0  0  0  0  0  0
    3.4519   -0.9333    0.0000 C   0  0  0  0  0  0  0  0  0  0  0  0
    7.3262    3.0452    0.0000 C   0  0  0  0  0  0  0  0  0  0  0  0
    3.1200   -2.5082    0.0000 C   0  0  0  0  0  0  0  0  0  0  0  0
    6.9177    1.0612    0.0000 H   0  0  0  0  0  0  0  0  0  0  0  0
    6.8005    1.8249    0.0000 H   0  0  0  0  0  0  0  0  0  0  0  0
    5.0324    2.8458    0.0000 H   0  0  0  0  0  0  0  0  0  0  0  0
    4.3123    2.5654    0.0000 H   0  0  0  0  0  0  0  0  0  0  0  0
    6.1905   -0.1814    0.0000 H   0  0  0  0  0  0  0  0  0  0  0  0
    6.7130    0.3878    0.0000 H   0  0  0  0  0  0  0  0  0  0  0  0
    3.8316    2.0514    0.0000 H   0  0  0  0  0  0  0  0  0  0  0  0
    3.5998    1.3143    0.0000 H   0  0  0  0  0  0  0  0  0  0  0  0
    6.4339    3.6557    0.0000 H   0  0  0  0  0  0  0  0  0  0  0  0
    5.7436    3.2572    0.0000 H   0  0  0  0  0  0  0  0  0  0  0  0
    5.7209   -1.2433    0.0000 H   0  0  0  0  0  0  0  0  0  0  0  0
    2.9150    0.3767    0.0000 H   0  0  0  0  0  0  0  0  0  0  0  0
    7.2186    2.4346    0.0000 H   0  0  0  0  0  0  0  0  0  0  0  0
    7.9088    2.8331    0.0000 H   0  0  0  0  0  0  0  0  0  0  0  0
    8.4462    3.9112    0.0000 H   0  0  0  0  0  0  0  0  0  0  0  0
    2.0000   -3.3742    0.0000 H   0  0  0  0  0  0  0  0  0  0  0  0
    2.9300   -3.9112    0.0000 H   0  0  0  0  0  0  0  0  0  0  0  0
  1 15  1  0  0  0  0
  1 18  1  0  0  0  0
  2 17  1  0  0  0  0
  2 33  1  0  0  0  0
  3  6  1  0  0  0  0
  3  7  1  0  0  0  0
  3 12  1  0  0  0  0
  4 16  1  0  0  0  0
  4 18  2  0  0  0  0
  5 18  1  0  0  0  0
  5 34  1  0  0  0  0
  5 35  1  0  0  0  0
  6  8  1  0  0  0  0
  6 19  1  0  0  0  0
  6 20  1  0  0  0  0
  7  9  1  0  0  0  0
  7 21  1  0  0  0  0
  7 22  1  0  0  0  0
  8 10  1  0  0  0  0
  8 23  1  0  0  0  0
  8 24  1  0  0  0  0
  9 11  1  0  0  0  0
  9 25  1  0  0  0  0
  9 26  1  0  0  0  0
 10 11  1  0  0  0  0
 10 13  2  0  0  0  0
 11 14  2  0  0  0  0
 12 17  1  0  0  0  0
 12 27  1  0  0  0  0
 12 28  1  0  0  0  0
 13 15  1  0  0  0  0
 13 29  1  0  0  0  0
 14 16  1  0  0  0  0
 14 30  1  0  0  0  0
 15 16  2  0  0  0  0
 17 31  1  0  0  0  0
 17 32  1  0  0  0  0
M  END
> <PUBCHEM_COMPOUND_CID>
71541081

> <PUBCHEM_COMPOUND_CANONICALIZED>
1

> <PUBCHEM_CACTVS_COMPLEXITY>
291

> <PUBCHEM_CACTVS_HBOND_ACCEPTOR>
5

> <PUBCHEM_CACTVS_HBOND_DONOR>
2

> <PUBCHEM_CACTVS_ROTATABLE_BOND>
2

> <PUBCHEM_CACTVS_SUBSKEYS>
AAADceBzIABAAAAAAAAAAAAAAAAAAWAAAAAwAAAABYAAAFgB8AAAHgQQCAAADAjh3gYx0bNIEgikAyRiZACD8KlhCjlAmDw4ZJiKMKLgkZGEIAhggALYyCcQgIAOmAAAwAAQAQAwAAGAACACAAAAAAAAAA==

> <PUBCHEM_IUPAC_OPENEYE_NAME>
2-(2-amino-5,6,8,9-tetrahydrothiazolo[4,5-h][3]benzazepin-7-yl)ethanol

> <PUBCHEM_IUPAC_CAS_NAME>
2-(2-amino-5,6,8,9-tetrahydrothiazolo[4,5-h][3]benzazepin-7-yl)ethanol

> <PUBCHEM_IUPAC_NAME_MARKUP>
2-(2-amino-5,6,8,9-tetrahydro-[1,3]thiazolo[4,5-h][3]benzazepin-7-yl)ethanol

> <PUBCHEM_IUPAC_NAME>
2-(2-amino-5,6,8,9-tetrahydro-[1,3]thiazolo[4,5-h][3]benzazepin-7-yl)ethanol

> <PUBCHEM_IUPAC_SYSTEMATIC_NAME>
2-(2-azanyl-5,6,8,9-tetrahydro-[1,3]thiazolo[4,5-h][3]benzazepin-7-yl)ethanol

> <PUBCHEM_IUPAC_TRADITIONAL_NAME>
2-(2-amino-5,6,8,9-tetrahydrothiazolo[4,5-h][3]benzazepin-7-yl)ethanol

> <PUBCHEM_IUPAC_INCHI>
InChI=1S/C13H17N3OS/c14-13-15-11-7-9-1-3-16(5-6-17)4-2-10(9)8-12(11)18-13/h7-8,17H,1-6H2,(H2,14,15)

> <PUBCHEM_IUPAC_INCHIKEY>
XHEBHLZOXYYZHW-UHFFFAOYSA-N

> <PUBCHEM_XLOGP3_AA>
1.7

> <PUBCHEM_EXACT_MASS>
263.10923335

> <PUBCHEM_MOLECULAR_FORMULA>
C13H17N3OS

> <PUBCHEM_MOLECULAR_WEIGHT>
263.36

> <PUBCHEM_OPENEYE_CAN_SMILES>
C1CN(CCC2=CC3=C(C=C21)N=C(S3)N)CCO

> <PUBCHEM_OPENEYE_ISO_SMILES>
C1CN(CCC2=CC3=C(C=C21)N=C(S3)N)CCO

> <PUBCHEM_CACTVS_TPSA>
90.6

> <PUBCHEM_MONOISOTOPIC_WEIGHT>
263.10923335

> <PUBCHEM_TOTAL_CHARGE>
0

> <PUBCHEM_HEAVY_ATOM_COUNT>
18

> <PUBCHEM_ATOM_DEF_STEREO_COUNT>
0

> <PUBCHEM_ATOM_UDEF_STEREO_COUNT>
0

> <PUBCHEM_BOND_DEF_STEREO_COUNT>
0

> <PUBCHEM_BOND_UDEF_STEREO_COUNT>
0

> <PUBCHEM_ISOTOPIC_ATOM_COUNT>
0

> <PUBCHEM_COMPONENT_COUNT>
1

> <PUBCHEM_CACTVS_TAUTO_COUNT>
-1

> <PUBCHEM_COORDINATE_TYPE>
1
5
255

> <PUBCHEM_BONDANNOTATIONS>
1  15  8
1  18  8
10  11  8
10  13  8
11  14  8
13  15  8
14  16  8
15  16  8
4  16  8
4  18  8

$$$$
