71724976
  -OEChem-09292322012D

 51 54  0     0  0  0  0  0  0999 V2000
    9.7619    2.7320    0.0000 O   0  0  0  0  0  0  0  0  0  0  0  0
    6.7619   -2.4641    0.0000 O   0  0  0  0  0  0  0  0  0  0  0  0
    7.7619    1.0000    0.0000 N   0  0  0  0  0  0  0  0  0  0  0  0
    6.7619   -0.7321    0.0000 N   0  0  0  0  0  0  0  0  0  0  0  0
    4.6783   -2.4028    0.0000 N   0  0  0  0  0  0  0  0  0  0  0  0
   12.2619    1.8660    0.0000 N   0  0  0  0  0  0  0  0  0  0  0  0
    6.7619    1.0000    0.0000 C   0  0  0  0  0  0  0  0  0  0  0  0
    8.2619    0.1340    0.0000 C   0  0  0  0  0  0  0  0  0  0  0  0
    6.2619    0.1340    0.0000 C   0  0  0  0  0  0  0  0  0  0  0  0
    7.7619   -0.7321    0.0000 C   0  0  0  0  0  0  0  0  0  0  0  0
    8.2619    1.8660    0.0000 C   0  0  0  0  0  0  0  0  0  0  0  0
    6.2619   -1.5981    0.0000 C   0  0  0  0  0  0  0  0  0  0  0  0
    9.2619    1.8660    0.0000 C   0  0  0  0  0  0  0  0  0  0  0  0
    5.2619   -1.5981    0.0000 C   0  0  0  0  0  0  0  0  0  0  0  0
    3.7320   -2.0981    0.0000 C   0  0  0  0  0  0  0  0  0  0  0  0
    4.6783   -0.7933    0.0000 C   0  0  0  0  0  0  0  0  0  0  0  0
    3.7320   -1.0981    0.0000 C   0  0  0  0  0  0  0  0  0  0  0  0
    2.8660   -2.5981    0.0000 C   0  0  0  0  0  0  0  0  0  0  0  0
    2.8660   -0.5981    0.0000 C   0  0  0  0  0  0  0  0  0  0  0  0
    2.0000   -2.0981    0.0000 C   0  0  0  0  0  0  0  0  0  0  0  0
    2.0000   -1.0981    0.0000 C   0  0  0  0  0  0  0  0  0  0  0  0
    2.8660   -3.5981    0.0000 C   0  0  0  0  0  0  0  0  0  0  0  0
   10.7619    2.7320    0.0000 C   0  0  0  0  0  0  0  0  0  0  0  0
   11.2619    3.5981    0.0000 C   0  0  0  0  0  0  0  0  0  0  0  0
   11.2619    1.8660    0.0000 C   0  0  0  0  0  0  0  0  0  0  0  0
   12.2619    3.5981    0.0000 C   0  0  0  0  0  0  0  0  0  0  0  0
   12.7619    2.7320    0.0000 C   0  0  0  0  0  0  0  0  0  0  0  0
    6.8695    1.6106    0.0000 H   0  0  0  0  0  0  0  0  0  0  0  0
    6.1793    1.2120    0.0000 H   0  0  0  0  0  0  0  0  0  0  0  0
    8.7368   -0.2646    0.0000 H   0  0  0  0  0  0  0  0  0  0  0  0
    8.7368    0.5325    0.0000 H   0  0  0  0  0  0  0  0  0  0  0  0
    5.7869    0.5325    0.0000 H   0  0  0  0  0  0  0  0  0  0  0  0
    5.7869   -0.2646    0.0000 H   0  0  0  0  0  0  0  0  0  0  0  0
    7.6542   -1.3426    0.0000 H   0  0  0  0  0  0  0  0  0  0  0  0
    8.3445   -0.9441    0.0000 H   0  0  0  0  0  0  0  0  0  0  0  0
    8.3695    2.4766    0.0000 H   0  0  0  0  0  0  0  0  0  0  0  0
    7.6793    2.0781    0.0000 H   0  0  0  0  0  0  0  0  0  0  0  0
    9.1542    1.2554    0.0000 H   0  0  0  0  0  0  0  0  0  0  0  0
    9.8445    1.6540    0.0000 H   0  0  0  0  0  0  0  0  0  0  0  0
    4.8709   -2.9921    0.0000 H   0  0  0  0  0  0  0  0  0  0  0  0
    4.8709   -0.2040    0.0000 H   0  0  0  0  0  0  0  0  0  0  0  0
    2.8660    0.0219    0.0000 H   0  0  0  0  0  0  0  0  0  0  0  0
    1.4631   -2.4081    0.0000 H   0  0  0  0  0  0  0  0  0  0  0  0
    1.4631   -0.7881    0.0000 H   0  0  0  0  0  0  0  0  0  0  0  0
    2.2460   -3.5981    0.0000 H   0  0  0  0  0  0  0  0  0  0  0  0
    2.8660   -4.2181    0.0000 H   0  0  0  0  0  0  0  0  0  0  0  0
    3.4860   -3.5981    0.0000 H   0  0  0  0  0  0  0  0  0  0  0  0
   10.9519    4.1350    0.0000 H   0  0  0  0  0  0  0  0  0  0  0  0
   10.9519    1.3291    0.0000 H   0  0  0  0  0  0  0  0  0  0  0  0
   12.5719    4.1350    0.0000 H   0  0  0  0  0  0  0  0  0  0  0  0
   13.3819    2.7320    0.0000 H   0  0  0  0  0  0  0  0  0  0  0  0
  1 13  1  0  0  0  0
  1 23  1  0  0  0  0
  2 12  2  0  0  0  0
  3  7  1  0  0  0  0
  3  8  1  0  0  0  0
  3 11  1  0  0  0  0
  4  9  1  0  0  0  0
  4 10  1  0  0  0  0
  4 12  1  0  0  0  0
  5 14  1  0  0  0  0
  5 15  1  0  0  0  0
  5 40  1  0  0  0  0
  6 25  1  0  0  0  0
  6 27  2  0  0  0  0
  7  9  1  0  0  0  0
  7 28  1  0  0  0  0
  7 29  1  0  0  0  0
  8 10  1  0  0  0  0
  8 30  1  0  0  0  0
  8 31  1  0  0  0  0
  9 32  1  0  0  0  0
  9 33  1  0  0  0  0
 10 34  1  0  0  0  0
 10 35  1  0  0  0  0
 11 13  1  0  0  0  0
 11 36  1  0  0  0  0
 11 37  1  0  0  0  0
 12 14  1  0  0  0  0
 13 38  1  0  0  0  0
 13 39  1  0  0  0  0
 14 16  2  0  0  0  0
 15 17  1  0  0  0  0
 15 18  2  0  0  0  0
 16 17  1  0  0  0  0
 16 41  1  0  0  0  0
 17 19  2  0  0  0  0
 18 20  1  0  0  0  0
 18 22  1  0  0  0  0
 19 21  1  0  0  0  0
 19 42  1  0  0  0  0
 20 21  2  0  0  0  0
 20 43  1  0  0  0  0
 21 44  1  0  0  0  0
 22 45  1  0  0  0  0
 22 46  1  0  0  0  0
 22 47  1  0  0  0  0
 23 24  1  0  0  0  0
 23 25  2  0  0  0  0
 24 26  2  0  0  0  0
 24 48  1  0  0  0  0
 25 49  1  0  0  0  0
 26 27  1  0  0  0  0
 26 50  1  0  0  0  0
 27 51  1  0  0  0  0
M  END
> <PUBCHEM_COMPOUND_CID>
71724976

> <PUBCHEM_COMPOUND_CANONICALIZED>
1

> <PUBCHEM_CACTVS_COMPLEXITY>
495

> <PUBCHEM_CACTVS_HBOND_ACCEPTOR>
4

> <PUBCHEM_CACTVS_HBOND_DONOR>
1

> <PUBCHEM_CACTVS_ROTATABLE_BOND>
5

> <PUBCHEM_CACTVS_SUBSKEYS>
AAADceB7sAAAAAAAAAAAAAAAAAAAAWAAAAA8WIAAAAAAAFgB/AAAHgAQAAAADAzhngY+xvPJlACoAzV3VASCiCA3YiAI2SG/bNgOZvLEtbuXOSjk1hHY6Yc4icCeAAACAAACAAAAAAQAAAQAAAAAAAAAAA==

> <PUBCHEM_IUPAC_OPENEYE_NAME>
(7-methyl-1H-indol-2-yl)-[4-[2-(3-pyridyloxy)ethyl]piperazin-1-yl]methanone

> <PUBCHEM_IUPAC_CAS_NAME>
(7-methyl-1H-indol-2-yl)-[4-[2-(3-pyridinyloxy)ethyl]-1-piperazinyl]methanone

> <PUBCHEM_IUPAC_NAME_MARKUP>
(7-methyl-1<I>H</I>-indol-2-yl)-[4-(2-pyridin-3-yloxyethyl)piperazin-1-yl]methanone

> <PUBCHEM_IUPAC_NAME>
(7-methyl-1H-indol-2-yl)-[4-(2-pyridin-3-yloxyethyl)piperazin-1-yl]methanone

> <PUBCHEM_IUPAC_SYSTEMATIC_NAME>
(7-methyl-1H-indol-2-yl)-[4-(2-pyridin-3-yloxyethyl)piperazin-1-yl]methanone

> <PUBCHEM_IUPAC_TRADITIONAL_NAME>
(7-methyl-1H-indol-2-yl)-[4-[2-(3-pyridyloxy)ethyl]piperazino]methanone

> <PUBCHEM_IUPAC_INCHI>
InChI=1S/C21H24N4O2/c1-16-4-2-5-17-14-19(23-20(16)17)21(26)25-10-8-24(9-11-25)12-13-27-18-6-3-7-22-15-18/h2-7,14-15,23H,8-13H2,1H3

> <PUBCHEM_IUPAC_INCHIKEY>
VDOKRNXOPISLCW-UHFFFAOYSA-N

> <PUBCHEM_XLOGP3_AA>
2.6

> <PUBCHEM_EXACT_MASS>
364.18992602

> <PUBCHEM_MOLECULAR_FORMULA>
C21H24N4O2

> <PUBCHEM_MOLECULAR_WEIGHT>
364.4

> <PUBCHEM_OPENEYE_CAN_SMILES>
CC1=C2C(=CC=C1)C=C(N2)C(=O)N3CCN(CC3)CCOC4=CN=CC=C4

> <PUBCHEM_OPENEYE_ISO_SMILES>
CC1=C2C(=CC=C1)C=C(N2)C(=O)N3CCN(CC3)CCOC4=CN=CC=C4

> <PUBCHEM_CACTVS_TPSA>
61.5

> <PUBCHEM_MONOISOTOPIC_WEIGHT>
364.18992602

> <PUBCHEM_TOTAL_CHARGE>
0

> <PUBCHEM_HEAVY_ATOM_COUNT>
27

> <PUBCHEM_ATOM_DEF_STEREO_COUNT>
0

> <PUBCHEM_ATOM_UDEF_STEREO_COUNT>
0

> <PUBCHEM_BOND_DEF_STEREO_COUNT>
0

> <PUBCHEM_BOND_UDEF_STEREO_COUNT>
0

> <PUBCHEM_ISOTOPIC_ATOM_COUNT>
0

> <PUBCHEM_COMPONENT_COUNT>
1

> <PUBCHEM_CACTVS_TAUTO_COUNT>
-1

> <PUBCHEM_COORDINATE_TYPE>
1
5
255

> <PUBCHEM_BONDANNOTATIONS>
14  16  8
15  17  8
15  18  8
16  17  8
17  19  8
18  20  8
19  21  8
20  21  8
23  24  8
23  25  8
24  26  8
26  27  8
5  14  8
5  15  8
6  25  8
6  27  8

$$$$
