52950060
  -OEChem-09292322302D

 57 61  0     0  0  0  0  0  0999 V2000
    2.8495   -2.7114    0.0000 Cl  0  0  0  0  0  0  0  0  0  0  0  0
    4.5816   -1.7114    0.0000 O   0  0  0  0  0  0  0  0  0  0  0  0
    2.0000   -4.6723    0.0000 O   0  0  0  0  0  0  0  0  0  0  0  0
    6.3136    1.2886    0.0000 N   0  0  0  0  0  0  0  0  0  0  0  0
    6.3136    3.2886    0.0000 N   0  0  0  0  0  0  0  0  0  0  0  0
    3.3836   -5.7863    0.0000 N   0  0  0  0  0  0  0  0  0  0  0  0
    7.1796    1.7886    0.0000 C   0  0  0  0  0  0  0  0  0  0  0  0
    5.4476    1.7886    0.0000 C   0  0  0  0  0  0  0  0  0  0  0  0
    7.1796    2.7886    0.0000 C   0  0  0  0  0  0  0  0  0  0  0  0
    5.4476    2.7886    0.0000 C   0  0  0  0  0  0  0  0  0  0  0  0
    6.3136    0.2886    0.0000 C   0  0  0  0  0  0  0  0  0  0  0  0
    6.3136    4.2886    0.0000 C   0  0  0  0  0  0  0  0  0  0  0  0
    5.4476   -0.2114    0.0000 C   0  0  0  0  0  0  0  0  0  0  0  0
    7.1796    4.7886    0.0000 C   0  0  0  0  0  0  0  0  0  0  0  0
    5.4476   -1.2114    0.0000 C   0  0  0  0  0  0  0  0  0  0  0  0
    5.4476    4.7886    0.0000 C   0  0  0  0  0  0  0  0  0  0  0  0
    7.1796    5.7886    0.0000 C   0  0  0  0  0  0  0  0  0  0  0  0
    8.0736    4.2539    0.0000 C   0  0  0  0  0  0  0  0  0  0  0  0
    5.4476    5.7886    0.0000 C   0  0  0  0  0  0  0  0  0  0  0  0
    6.3136    6.2886    0.0000 C   0  0  0  0  0  0  0  0  0  0  0  0
    8.0736    6.3232    0.0000 C   0  0  0  0  0  0  0  0  0  0  0  0
    4.5816   -2.7114    0.0000 C   0  0  0  0  0  0  0  0  0  0  0  0
    4.5816   -4.7114    0.0000 C   0  0  0  0  0  0  0  0  0  0  0  0
    3.7155   -4.2114    0.0000 C   0  0  0  0  0  0  0  0  0  0  0  0
    8.9796    4.7678    0.0000 C   0  0  0  0  0  0  0  0  0  0  0  0
    4.3723   -5.6832    0.0000 C   0  0  0  0  0  0  0  0  0  0  0  0
    3.7155   -3.2114    0.0000 C   0  0  0  0  0  0  0  0  0  0  0  0
    8.9796    5.8094    0.0000 C   0  0  0  0  0  0  0  0  0  0  0  0
    5.4476   -3.2114    0.0000 C   0  0  0  0  0  0  0  0  0  0  0  0
    5.4476   -4.2114    0.0000 C   0  0  0  0  0  0  0  0  0  0  0  0
    2.9785   -4.8785    0.0000 C   0  0  0  0  0  0  0  0  0  0  0  0
    7.3917    1.2060    0.0000 H   0  0  0  0  0  0  0  0  0  0  0  0
    7.7902    1.8962    0.0000 H   0  0  0  0  0  0  0  0  0  0  0  0
    4.8370    1.8962    0.0000 H   0  0  0  0  0  0  0  0  0  0  0  0
    5.2355    1.2060    0.0000 H   0  0  0  0  0  0  0  0  0  0  0  0
    7.7902    2.6809    0.0000 H   0  0  0  0  0  0  0  0  0  0  0  0
    7.3917    3.3712    0.0000 H   0  0  0  0  0  0  0  0  0  0  0  0
    5.2355    3.3712    0.0000 H   0  0  0  0  0  0  0  0  0  0  0  0
    4.8370    2.6809    0.0000 H   0  0  0  0  0  0  0  0  0  0  0  0
    6.5256   -0.2940    0.0000 H   0  0  0  0  0  0  0  0  0  0  0  0
    6.9242    0.3962    0.0000 H   0  0  0  0  0  0  0  0  0  0  0  0
    5.2355    0.3712    0.0000 H   0  0  0  0  0  0  0  0  0  0  0  0
    4.8370   -0.3191    0.0000 H   0  0  0  0  0  0  0  0  0  0  0  0
    5.6596   -1.7940    0.0000 H   0  0  0  0  0  0  0  0  0  0  0  0
    6.0582   -1.1038    0.0000 H   0  0  0  0  0  0  0  0  0  0  0  0
    4.9106    4.4786    0.0000 H   0  0  0  0  0  0  0  0  0  0  0  0
    8.0664    3.6340    0.0000 H   0  0  0  0  0  0  0  0  0  0  0  0
    4.9106    6.0986    0.0000 H   0  0  0  0  0  0  0  0  0  0  0  0
    6.3136    6.9086    0.0000 H   0  0  0  0  0  0  0  0  0  0  0  0
    8.0664    6.9432    0.0000 H   0  0  0  0  0  0  0  0  0  0  0  0
    9.5154    4.4557    0.0000 H   0  0  0  0  0  0  0  0  0  0  0  0
    4.3714   -6.3032    0.0000 H   0  0  0  0  0  0  0  0  0  0  0  0
    4.9888   -5.7493    0.0000 H   0  0  0  0  0  0  0  0  0  0  0  0
    9.5154    6.1215    0.0000 H   0  0  0  0  0  0  0  0  0  0  0  0
    5.9845   -2.9014    0.0000 H   0  0  0  0  0  0  0  0  0  0  0  0
    5.9845   -4.5214    0.0000 H   0  0  0  0  0  0  0  0  0  0  0  0
    3.0736   -6.3232    0.0000 H   0  0  0  0  0  0  0  0  0  0  0  0
  1 27  1  0  0  0  0
  2 15  1  0  0  0  0
  2 22  1  0  0  0  0
  3 31  2  0  0  0  0
  4  7  1  0  0  0  0
  4  8  1  0  0  0  0
  4 11  1  0  0  0  0
  5  9  1  0  0  0  0
  5 10  1  0  0  0  0
  5 12  1  0  0  0  0
  6 26  1  0  0  0  0
  6 31  1  0  0  0  0
  6 57  1  0  0  0  0
  7  9  1  0  0  0  0
  7 32  1  0  0  0  0
  7 33  1  0  0  0  0
  8 10  1  0  0  0  0
  8 34  1  0  0  0  0
  8 35  1  0  0  0  0
  9 36  1  0  0  0  0
  9 37  1  0  0  0  0
 10 38  1  0  0  0  0
 10 39  1  0  0  0  0
 11 13  1  0  0  0  0
 11 40  1  0  0  0  0
 11 41  1  0  0  0  0
 12 14  1  0  0  0  0
 12 16  2  0  0  0  0
 13 15  1  0  0  0  0
 13 42  1  0  0  0  0
 13 43  1  0  0  0  0
 14 17  1  0  0  0  0
 14 18  2  0  0  0  0
 15 44  1  0  0  0  0
 15 45  1  0  0  0  0
 16 19  1  0  0  0  0
 16 46  1  0  0  0  0
 17 20  1  0  0  0  0
 17 21  2  0  0  0  0
 18 25  1  0  0  0  0
 18 47  1  0  0  0  0
 19 20  2  0  0  0  0
 19 48  1  0  0  0  0
 20 49  1  0  0  0  0
 21 28  1  0  0  0  0
 21 50  1  0  0  0  0
 22 27  2  0  0  0  0
 22 29  1  0  0  0  0
 23 24  2  0  0  0  0
 23 26  1  0  0  0  0
 23 30  1  0  0  0  0
 24 27  1  0  0  0  0
 24 31  1  0  0  0  0
 25 28  2  0  0  0  0
 25 51  1  0  0  0  0
 26 52  1  0  0  0  0
 26 53  1  0  0  0  0
 28 54  1  0  0  0  0
 29 30  2  0  0  0  0
 29 55  1  0  0  0  0
 30 56  1  0  0  0  0
M  END
> <PUBCHEM_COMPOUND_CID>
52950060

> <PUBCHEM_COMPOUND_CANONICALIZED>
1

> <PUBCHEM_CACTVS_COMPLEXITY>
612

> <PUBCHEM_CACTVS_HBOND_ACCEPTOR>
4

> <PUBCHEM_CACTVS_HBOND_DONOR>
1

> <PUBCHEM_CACTVS_ROTATABLE_BOND>
6

> <PUBCHEM_CACTVS_SUBSKEYS>
AAADceB7MAAEAAAAAAAAAAAAAAAAAWAAAAA8YMEAAAAAAFjBVAAAHgIQAAAADA7hmCYwxsPABACIAiVSUACCCAAlJkAIiIEOb8gMZjPFt5uWOSjmxhHI7Qe+2JKOoAABYAATCABAAALAACYQAAAAAAAAAA==

> <PUBCHEM_IUPAC_OPENEYE_NAME>
7-chloro-6-[3-[4-(1-naphthyl)piperazin-1-yl]propoxy]isoindolin-1-one

> <PUBCHEM_IUPAC_CAS_NAME>
7-chloro-6-[3-[4-(1-naphthalenyl)-1-piperazinyl]propoxy]-2,3-dihydroisoindol-1-one

> <PUBCHEM_IUPAC_NAME_MARKUP>
7-chloro-6-[3-(4-naphthalen-1-ylpiperazin-1-yl)propoxy]-2,3-dihydroisoindol-1-one

> <PUBCHEM_IUPAC_NAME>
7-chloro-6-[3-(4-naphthalen-1-ylpiperazin-1-yl)propoxy]-2,3-dihydroisoindol-1-one

> <PUBCHEM_IUPAC_SYSTEMATIC_NAME>
7-chloranyl-6-[3-(4-naphthalen-1-ylpiperazin-1-yl)propoxy]-2,3-dihydroisoindol-1-one

> <PUBCHEM_IUPAC_TRADITIONAL_NAME>
7-chloro-6-[3-[4-(1-naphthyl)piperazino]propoxy]isoindolin-1-one

> <PUBCHEM_IUPAC_INCHI>
InChI=1S/C25H26ClN3O2/c26-24-22(10-9-19-17-27-25(30)23(19)24)31-16-4-11-28-12-14-29(15-13-28)21-8-3-6-18-5-1-2-7-20(18)21/h1-3,5-10H,4,11-17H2,(H,27,30)

> <PUBCHEM_IUPAC_INCHIKEY>
ZWIOIIOCCRESNK-UHFFFAOYSA-N

> <PUBCHEM_XLOGP3_AA>
4.6

> <PUBCHEM_EXACT_MASS>
435.1713548

> <PUBCHEM_MOLECULAR_FORMULA>
C25H26ClN3O2

> <PUBCHEM_MOLECULAR_WEIGHT>
435.9

> <PUBCHEM_OPENEYE_CAN_SMILES>
C1CN(CCN1CCCOC2=C(C3=C(CNC3=O)C=C2)Cl)C4=CC=CC5=CC=CC=C54

> <PUBCHEM_OPENEYE_ISO_SMILES>
C1CN(CCN1CCCOC2=C(C3=C(CNC3=O)C=C2)Cl)C4=CC=CC5=CC=CC=C54

> <PUBCHEM_CACTVS_TPSA>
44.8

> <PUBCHEM_MONOISOTOPIC_WEIGHT>
435.1713548

> <PUBCHEM_TOTAL_CHARGE>
0

> <PUBCHEM_HEAVY_ATOM_COUNT>
31

> <PUBCHEM_ATOM_DEF_STEREO_COUNT>
0

> <PUBCHEM_ATOM_UDEF_STEREO_COUNT>
0

> <PUBCHEM_BOND_DEF_STEREO_COUNT>
0

> <PUBCHEM_BOND_UDEF_STEREO_COUNT>
0

> <PUBCHEM_ISOTOPIC_ATOM_COUNT>
0

> <PUBCHEM_COMPONENT_COUNT>
1

> <PUBCHEM_CACTVS_TAUTO_COUNT>
-1

> <PUBCHEM_COORDINATE_TYPE>
1
5
255

> <PUBCHEM_BONDANNOTATIONS>
12  14  8
12  16  8
14  17  8
14  18  8
16  19  8
17  20  8
17  21  8
18  25  8
19  20  8
21  28  8
22  27  8
22  29  8
23  24  8
23  30  8
24  27  8
25  28  8
29  30  8

$$$$
