132256800
  -OEChem-09292322422D

 62 65  0     0  0  0  0  0  0999 V2000
    2.0000   -3.2500    0.0000 Cl  0  0  0  0  0  0  0  0  0  0  0  0
    8.8660   -2.0180    0.0000 F   0  0  0  0  0  0  0  0  0  0  0  0
    3.0000   -4.9820    0.0000 F   0  0  0  0  0  0  0  0  0  0  0  0
   12.4103    3.1773    0.0000 O   0  0  0  0  0  0  0  0  0  0  0  0
   10.5981    1.9820    0.0000 O   0  0  0  0  0  0  0  0  0  0  0  0
    4.5000   -0.6519    0.0000 O   0  0  0  0  0  0  0  0  0  0  0  0
    6.0000   -1.5180    0.0000 N   0  0  0  0  0  0  0  0  0  0  0  0
    8.8660   -0.0179    0.0000 N   0  0  0  0  0  0  0  0  0  0  0  0
    8.0000   -1.5180    0.0000 C   0  0  0  0  0  0  0  0  0  0  0  0
    7.5000   -2.3840    0.0000 C   0  0  0  0  0  0  0  0  0  0  0  0
    7.5000   -0.6519    0.0000 C   0  0  0  0  0  0  0  0  0  0  0  0
    6.5000   -2.3840    0.0000 C   0  0  0  0  0  0  0  0  0  0  0  0
    6.5000   -0.6519    0.0000 C   0  0  0  0  0  0  0  0  0  0  0  0
    8.8660   -1.0180    0.0000 C   0  0  0  0  0  0  0  0  0  0  0  0
   12.9939    3.9820    0.0000 C   0  0  0  0  0  0  0  0  0  0  0  0
   12.4103    4.7868    0.0000 C   0  0  0  0  0  0  0  0  0  0  0  0
    5.0000   -1.5180    0.0000 C   0  0  0  0  0  0  0  0  0  0  0  0
    9.7320    0.4821    0.0000 C   0  0  0  0  0  0  0  0  0  0  0  0
   11.4641    4.4820    0.0000 C   0  0  0  0  0  0  0  0  0  0  0  0
   11.4641    3.4820    0.0000 C   0  0  0  0  0  0  0  0  0  0  0  0
   13.8029    4.5698    0.0000 C   0  0  0  0  0  0  0  0  0  0  0  0
   13.8029    3.3943    0.0000 C   0  0  0  0  0  0  0  0  0  0  0  0
    9.7320    1.4820    0.0000 C   0  0  0  0  0  0  0  0  0  0  0  0
   10.5981    2.9820    0.0000 C   0  0  0  0  0  0  0  0  0  0  0  0
    4.5000   -2.3840    0.0000 C   0  0  0  0  0  0  0  0  0  0  0  0
   10.5981    4.9820    0.0000 C   0  0  0  0  0  0  0  0  0  0  0  0
    9.7320    3.4820    0.0000 C   0  0  0  0  0  0  0  0  0  0  0  0
    9.7320    4.4820    0.0000 C   0  0  0  0  0  0  0  0  0  0  0  0
    3.5000   -2.3840    0.0000 C   0  0  0  0  0  0  0  0  0  0  0  0
    5.0000   -3.2500    0.0000 C   0  0  0  0  0  0  0  0  0  0  0  0
    3.0000   -3.2500    0.0000 C   0  0  0  0  0  0  0  0  0  0  0  0
    4.5000   -4.1160    0.0000 C   0  0  0  0  0  0  0  0  0  0  0  0
    3.5000   -4.1160    0.0000 C   0  0  0  0  0  0  0  0  0  0  0  0
    7.3923   -2.9946    0.0000 H   0  0  0  0  0  0  0  0  0  0  0  0
    8.0826   -2.5960    0.0000 H   0  0  0  0  0  0  0  0  0  0  0  0
    8.0826   -0.4399    0.0000 H   0  0  0  0  0  0  0  0  0  0  0  0
    7.3923   -0.0413    0.0000 H   0  0  0  0  0  0  0  0  0  0  0  0
    5.9174   -2.5960    0.0000 H   0  0  0  0  0  0  0  0  0  0  0  0
    6.6077   -2.9946    0.0000 H   0  0  0  0  0  0  0  0  0  0  0  0
    6.6077   -0.0413    0.0000 H   0  0  0  0  0  0  0  0  0  0  0  0
    5.9174   -0.4399    0.0000 H   0  0  0  0  0  0  0  0  0  0  0  0
    9.0781   -1.6006    0.0000 H   0  0  0  0  0  0  0  0  0  0  0  0
    9.4766   -0.9103    0.0000 H   0  0  0  0  0  0  0  0  0  0  0  0
    8.3291    0.2921    0.0000 H   0  0  0  0  0  0  0  0  0  0  0  0
   12.9477    5.0960    0.0000 H   0  0  0  0  0  0  0  0  0  0  0  0
   12.1593    5.3537    0.0000 H   0  0  0  0  0  0  0  0  0  0  0  0
    9.9441   -0.1006    0.0000 H   0  0  0  0  0  0  0  0  0  0  0  0
   10.3426    0.5897    0.0000 H   0  0  0  0  0  0  0  0  0  0  0  0
   14.1674    4.0682    0.0000 H   0  0  0  0  0  0  0  0  0  0  0  0
   14.3045    4.9343    0.0000 H   0  0  0  0  0  0  0  0  0  0  0  0
   13.4385    5.0714    0.0000 H   0  0  0  0  0  0  0  0  0  0  0  0
   13.4385    2.8927    0.0000 H   0  0  0  0  0  0  0  0  0  0  0  0
   14.3045    3.0298    0.0000 H   0  0  0  0  0  0  0  0  0  0  0  0
   14.1674    3.8959    0.0000 H   0  0  0  0  0  0  0  0  0  0  0  0
    9.5200    2.0647    0.0000 H   0  0  0  0  0  0  0  0  0  0  0  0
    9.1215    1.3744    0.0000 H   0  0  0  0  0  0  0  0  0  0  0  0
   10.5981    5.6020    0.0000 H   0  0  0  0  0  0  0  0  0  0  0  0
    9.1951    3.1720    0.0000 H   0  0  0  0  0  0  0  0  0  0  0  0
    9.1951    4.7920    0.0000 H   0  0  0  0  0  0  0  0  0  0  0  0
    3.1900   -1.8470    0.0000 H   0  0  0  0  0  0  0  0  0  0  0  0
    5.6200   -3.2500    0.0000 H   0  0  0  0  0  0  0  0  0  0  0  0
    4.8100   -4.6530    0.0000 H   0  0  0  0  0  0  0  0  0  0  0  0
  1 31  1  0  0  0  0
  2  9  1  0  0  0  0
  3 33  1  0  0  0  0
  4 15  1  0  0  0  0
  4 20  1  0  0  0  0
  5 23  1  0  0  0  0
  5 24  1  0  0  0  0
  6 17  2  0  0  0  0
  7 12  1  0  0  0  0
  7 13  1  0  0  0  0
  7 17  1  0  0  0  0
  8 14  1  0  0  0  0
  8 18  1  0  0  0  0
  8 44  1  0  0  0  0
  9 10  1  0  0  0  0
  9 11  1  0  0  0  0
  9 14  1  0  0  0  0
 10 12  1  0  0  0  0
 10 34  1  0  0  0  0
 10 35  1  0  0  0  0
 11 13  1  0  0  0  0
 11 36  1  0  0  0  0
 11 37  1  0  0  0  0
 12 38  1  0  0  0  0
 12 39  1  0  0  0  0
 13 40  1  0  0  0  0
 13 41  1  0  0  0  0
 14 42  1  0  0  0  0
 14 43  1  0  0  0  0
 15 16  1  0  0  0  0
 15 21  1  0  0  0  0
 15 22  1  0  0  0  0
 16 19  1  0  0  0  0
 16 45  1  0  0  0  0
 16 46  1  0  0  0  0
 17 25  1  0  0  0  0
 18 23  1  0  0  0  0
 18 47  1  0  0  0  0
 18 48  1  0  0  0  0
 19 20  2  0  0  0  0
 19 26  1  0  0  0  0
 20 24  1  0  0  0  0
 21 49  1  0  0  0  0
 21 50  1  0  0  0  0
 21 51  1  0  0  0  0
 22 52  1  0  0  0  0
 22 53  1  0  0  0  0
 22 54  1  0  0  0  0
 23 55  1  0  0  0  0
 23 56  1  0  0  0  0
 24 27  2  0  0  0  0
 25 29  2  0  0  0  0
 25 30  1  0  0  0  0
 26 28  2  0  0  0  0
 26 57  1  0  0  0  0
 27 28  1  0  0  0  0
 27 58  1  0  0  0  0
 28 59  1  0  0  0  0
 29 31  1  0  0  0  0
 29 60  1  0  0  0  0
 30 32  2  0  0  0  0
 30 61  1  0  0  0  0
 31 33  2  0  0  0  0
 32 33  1  0  0  0  0
 32 62  1  0  0  0  0
M  END
> <PUBCHEM_COMPOUND_CID>
132256800

> <PUBCHEM_COMPOUND_CANONICALIZED>
1

> <PUBCHEM_CACTVS_COMPLEXITY>
674

> <PUBCHEM_CACTVS_HBOND_ACCEPTOR>
6

> <PUBCHEM_CACTVS_HBOND_DONOR>
1

> <PUBCHEM_CACTVS_ROTATABLE_BOND>
7

> <PUBCHEM_CACTVS_SUBSKEYS>
AAADceB7MYAEAAAAAAAAAAAAAAAAASAAAAA8YIAAAAAAAEgBQAAAHwIQAAAADEbhmC4yBoPABACIAiFSEACCCAAkJQAIiIEOjsgPJjKFtxuHOSrk1hGaqYeY6PyOAAABIAAIQAAAAAJAABCAAAAAAAAAAA==

> <PUBCHEM_IUPAC_OPENEYE_NAME>
(3-chloro-4-fluoro-phenyl)-[4-[[2-[(2,2-dimethyl-3H-benzofuran-7-yl)oxy]ethylamino]methyl]-4-fluoro-1-piperidyl]methanone

> <PUBCHEM_IUPAC_CAS_NAME>
(3-chloro-4-fluorophenyl)-[4-[[2-[(2,2-dimethyl-3H-benzofuran-7-yl)oxy]ethylamino]methyl]-4-fluoro-1-piperidinyl]methanone

> <PUBCHEM_IUPAC_NAME_MARKUP>
(3-chloro-4-fluorophenyl)-[4-[[2-[(2,2-dimethyl-3<I>H</I>-1-benzofuran-7-yl)oxy]ethylamino]methyl]-4-fluoropiperidin-1-yl]methanone

> <PUBCHEM_IUPAC_NAME>
(3-chloro-4-fluorophenyl)-[4-[[2-[(2,2-dimethyl-3H-1-benzofuran-7-yl)oxy]ethylamino]methyl]-4-fluoropiperidin-1-yl]methanone

> <PUBCHEM_IUPAC_SYSTEMATIC_NAME>
(3-chloranyl-4-fluoranyl-phenyl)-[4-[[2-[(2,2-dimethyl-3H-1-benzofuran-7-yl)oxy]ethylamino]methyl]-4-fluoranyl-piperidin-1-yl]methanone

> <PUBCHEM_IUPAC_TRADITIONAL_NAME>
(3-chloro-4-fluoro-phenyl)-[4-[[2-(2,2-dimethylcoumaran-7-yl)oxyethylamino]methyl]-4-fluoro-piperidino]methanone

> <PUBCHEM_IUPAC_INCHI>
InChI=1S/C25H29ClF2N2O3/c1-24(2)15-18-4-3-5-21(22(18)33-24)32-13-10-29-16-25(28)8-11-30(12-9-25)23(31)17-6-7-20(27)19(26)14-17/h3-7,14,29H,8-13,15-16H2,1-2H3

> <PUBCHEM_IUPAC_INCHIKEY>
BXPJDTCYZQOTIA-UHFFFAOYSA-N

> <PUBCHEM_XLOGP3_AA>
4.7

> <PUBCHEM_EXACT_MASS>
478.1834768

> <PUBCHEM_MOLECULAR_FORMULA>
C25H29ClF2N2O3

> <PUBCHEM_MOLECULAR_WEIGHT>
479.0

> <PUBCHEM_OPENEYE_CAN_SMILES>
CC1(CC2=C(O1)C(=CC=C2)OCCNCC3(CCN(CC3)C(=O)C4=CC(=C(C=C4)F)Cl)F)C

> <PUBCHEM_OPENEYE_ISO_SMILES>
CC1(CC2=C(O1)C(=CC=C2)OCCNCC3(CCN(CC3)C(=O)C4=CC(=C(C=C4)F)Cl)F)C

> <PUBCHEM_CACTVS_TPSA>
50.8

> <PUBCHEM_MONOISOTOPIC_WEIGHT>
478.1834768

> <PUBCHEM_TOTAL_CHARGE>
0

> <PUBCHEM_HEAVY_ATOM_COUNT>
33

> <PUBCHEM_ATOM_DEF_STEREO_COUNT>
0

> <PUBCHEM_ATOM_UDEF_STEREO_COUNT>
0

> <PUBCHEM_BOND_DEF_STEREO_COUNT>
0

> <PUBCHEM_BOND_UDEF_STEREO_COUNT>
0

> <PUBCHEM_ISOTOPIC_ATOM_COUNT>
0

> <PUBCHEM_COMPONENT_COUNT>
1

> <PUBCHEM_CACTVS_TAUTO_COUNT>
-1

> <PUBCHEM_COORDINATE_TYPE>
1
5
255

> <PUBCHEM_BONDANNOTATIONS>
19  20  8
19  26  8
20  24  8
24  27  8
25  29  8
25  30  8
26  28  8
27  28  8
29  31  8
30  32  8
31  33  8
32  33  8

$$$$
