45262417
  -OEChem-09292322122D

 77 80  0     1  0  0  0  0  0999 V2000
    7.8917    0.0000    0.0000 Cl  0  0  0  0  0  0  0  0  0  0  0  0
   15.3773    7.9861    0.0000 S   0  0  0  0  0  0  0  0  0  0  0  0
    4.1546    4.8605    0.0000 O   0  0  0  0  0  0  0  0  0  0  0  0
   14.5094    8.4828    0.0000 O   0  0  0  0  0  0  0  0  0  0  0  0
   15.8740    8.8540    0.0000 O   0  0  0  0  0  0  0  0  0  0  0  0
   14.8807    7.1182    0.0000 O   0  0  0  0  0  0  0  0  0  0  0  0
    9.6546    7.4586    0.0000 N   0  0  3  0  0  0  0  0  0  0  0  0
    4.1546    6.5926    0.0000 N   0  0  0  0  0  0  0  0  0  0  0  0
    0.6546    5.7265    0.0000 N   0  0  0  0  0  0  0  0  0  0  0  0
    7.1546    6.5926    0.0000 C   0  0  0  0  0  0  0  0  0  0  0  0
    6.6546    7.4586    0.0000 C   0  0  0  0  0  0  0  0  0  0  0  0
    6.6546    5.7265    0.0000 C   0  0  0  0  0  0  0  0  0  0  0  0
    5.1546    6.5926    0.0000 C   0  0  0  0  0  0  0  0  0  0  0  0
    5.6546    7.4586    0.0000 C   0  0  0  0  0  0  0  0  0  0  0  0
    5.6546    5.7265    0.0000 C   0  0  0  0  0  0  0  0  0  0  0  0
    8.1546    6.5926    0.0000 C   0  0  0  0  0  0  0  0  0  0  0  0
    8.6546    7.4586    0.0000 C   0  0  0  0  0  0  0  0  0  0  0  0
   10.0885    8.3596    0.0000 C   0  0  0  0  0  0  0  0  0  0  0  0
   10.0885    6.5576    0.0000 C   0  0  0  0  0  0  0  0  0  0  0  0
   11.0634    8.5821    0.0000 C   0  0  0  0  0  0  0  0  0  0  0  0
   11.0634    6.3351    0.0000 C   0  0  0  0  0  0  0  0  0  0  0  0
   11.8453    7.9586    0.0000 C   0  0  0  0  0  0  0  0  0  0  0  0
   11.8453    6.9586    0.0000 C   0  0  0  0  0  0  0  0  0  0  0  0
    3.6546    5.7265    0.0000 C   0  0  0  0  0  0  0  0  0  0  0  0
    2.6546    5.7265    0.0000 C   0  0  0  0  0  0  0  0  0  0  0  0
   12.7392    8.4933    0.0000 C   0  0  0  0  0  0  0  0  0  0  0  0
   12.7392    6.4239    0.0000 C   0  0  0  0  0  0  0  0  0  0  0  0
   13.6453    7.9794    0.0000 C   0  0  0  0  0  0  0  0  0  0  0  0
   13.6453    6.9378    0.0000 C   0  0  0  0  0  0  0  0  0  0  0  0
    2.1546    4.8605    0.0000 C   0  0  0  0  0  0  0  0  0  0  0  0
    2.1546    6.5926    0.0000 C   0  0  0  0  0  0  0  0  0  0  0  0
    1.1546    4.8605    0.0000 C   0  0  0  0  0  0  0  0  0  0  0  0
    1.1546    6.5926    0.0000 C   0  0  0  0  0  0  0  0  0  0  0  0
    2.6893    3.9666    0.0000 C   0  0  0  0  0  0  0  0  0  0  0  0
    0.6200    3.9666    0.0000 C   0  0  0  0  0  0  0  0  0  0  0  0
    2.1754    3.0605    0.0000 C   0  0  0  0  0  0  0  0  0  0  0  0
    0.6546    7.4586    0.0000 C   0  0  0  0  0  0  0  0  0  0  0  0
    1.1338    3.0605    0.0000 C   0  0  0  0  0  0  0  0  0  0  0  0
   16.2453    7.4894    0.0000 C   0  0  0  0  0  0  0  0  0  0  0  0
    7.4646    7.1295    0.0000 H   0  0  0  0  0  0  0  0  0  0  0  0
    7.2372    7.6706    0.0000 H   0  0  0  0  0  0  0  0  0  0  0  0
    6.5470    8.0692    0.0000 H   0  0  0  0  0  0  0  0  0  0  0  0
    6.5470    5.1160    0.0000 H   0  0  0  0  0  0  0  0  0  0  0  0
    7.2372    5.5145    0.0000 H   0  0  0  0  0  0  0  0  0  0  0  0
    4.8446    7.1295    0.0000 H   0  0  0  0  0  0  0  0  0  0  0  0
    5.7623    8.0692    0.0000 H   0  0  0  0  0  0  0  0  0  0  0  0
    5.0720    7.6706    0.0000 H   0  0  0  0  0  0  0  0  0  0  0  0
    5.0720    5.5145    0.0000 H   0  0  0  0  0  0  0  0  0  0  0  0
    5.7623    5.1160    0.0000 H   0  0  0  0  0  0  0  0  0  0  0  0
    8.0470    5.9820    0.0000 H   0  0  0  0  0  0  0  0  0  0  0  0
    8.7372    6.3805    0.0000 H   0  0  0  0  0  0  0  0  0  0  0  0
    8.7623    8.0692    0.0000 H   0  0  0  0  0  0  0  0  0  0  0  0
    8.0720    7.6706    0.0000 H   0  0  0  0  0  0  0  0  0  0  0  0
    3.8446    7.1295    0.0000 H   0  0  0  0  0  0  0  0  0  0  0  0
   10.0885    8.9796    0.0000 H   0  0  0  0  0  0  0  0  0  0  0  0
    9.4840    8.4975    0.0000 H   0  0  0  0  0  0  0  0  0  0  0  0
    9.4840    6.4197    0.0000 H   0  0  0  0  0  0  0  0  0  0  0  0
   10.0885    5.9376    0.0000 H   0  0  0  0  0  0  0  0  0  0  0  0
   11.5482    8.9686    0.0000 H   0  0  0  0  0  0  0  0  0  0  0  0
   10.7944    9.1407    0.0000 H   0  0  0  0  0  0  0  0  0  0  0  0
   10.7944    5.7765    0.0000 H   0  0  0  0  0  0  0  0  0  0  0  0
   11.5482    5.9486    0.0000 H   0  0  0  0  0  0  0  0  0  0  0  0
   12.7320    9.1132    0.0000 H   0  0  0  0  0  0  0  0  0  0  0  0
   12.7320    5.8040    0.0000 H   0  0  0  0  0  0  0  0  0  0  0  0
   14.1810    6.6257    0.0000 H   0  0  0  0  0  0  0  0  0  0  0  0
    2.4646    7.1295    0.0000 H   0  0  0  0  0  0  0  0  0  0  0  0
    3.3092    3.9738    0.0000 H   0  0  0  0  0  0  0  0  0  0  0  0
    0.0000    3.9738    0.0000 H   0  0  0  0  0  0  0  0  0  0  0  0
    2.4875    2.5248    0.0000 H   0  0  0  0  0  0  0  0  0  0  0  0
    1.1916    7.7686    0.0000 H   0  0  0  0  0  0  0  0  0  0  0  0
    0.3446    7.9955    0.0000 H   0  0  0  0  0  0  0  0  0  0  0  0
    0.1177    7.1486    0.0000 H   0  0  0  0  0  0  0  0  0  0  0  0
    0.8217    2.5248    0.0000 H   0  0  0  0  0  0  0  0  0  0  0  0
   15.9373    6.9513    0.0000 H   0  0  0  0  0  0  0  0  0  0  0  0
   16.7834    7.1815    0.0000 H   0  0  0  0  0  0  0  0  0  0  0  0
   16.5532    8.0276    0.0000 H   0  0  0  0  0  0  0  0  0  0  0  0
    8.8917    0.0000    0.0000 H   0  0  0  0  0  0  0  0  0  0  0  0
  1 77  1  0  0  0  0
  2  4  1  0  0  0  0
  2  5  2  0  0  0  0
  2  6  2  0  0  0  0
  2 39  1  0  0  0  0
  3 24  2  0  0  0  0
  4 28  1  0  0  0  0
  7 17  1  0  0  0  0
  7 18  1  0  0  0  0
  7 19  1  0  0  0  0
  8 13  1  0  0  0  0
  8 24  1  0  0  0  0
  8 54  1  0  0  0  0
  9 32  1  0  0  0  0
  9 33  2  0  0  0  0
 10 11  1  0  0  0  0
 10 12  1  0  0  0  0
 10 16  1  0  0  0  0
 10 40  1  0  0  0  0
 11 14  1  0  0  0  0
 11 41  1  0  0  0  0
 11 42  1  0  0  0  0
 12 15  1  0  0  0  0
 12 43  1  0  0  0  0
 12 44  1  0  0  0  0
 13 14  1  0  0  0  0
 13 15  1  0  0  0  0
 13 45  1  0  0  0  0
 14 46  1  0  0  0  0
 14 47  1  0  0  0  0
 15 48  1  0  0  0  0
 15 49  1  0  0  0  0
 16 17  1  0  0  0  0
 16 50  1  0  0  0  0
 16 51  1  0  0  0  0
 17 52  1  0  0  0  0
 17 53  1  0  0  0  0
 18 20  1  0  0  0  0
 18 55  1  0  0  0  0
 18 56  1  0  0  0  0
 19 21  1  0  0  0  0
 19 57  1  0  0  0  0
 19 58  1  0  0  0  0
 20 22  1  0  0  0  0
 20 59  1  0  0  0  0
 20 60  1  0  0  0  0
 21 23  1  0  0  0  0
 21 61  1  0  0  0  0
 21 62  1  0  0  0  0
 22 23  2  0  0  0  0
 22 26  1  0  0  0  0
 23 27  1  0  0  0  0
 24 25  1  0  0  0  0
 25 30  1  0  0  0  0
 25 31  2  0  0  0  0
 26 28  2  0  0  0  0
 26 63  1  0  0  0  0
 27 29  2  0  0  0  0
 27 64  1  0  0  0  0
 28 29  1  0  0  0  0
 29 65  1  0  0  0  0
 30 32  1  0  0  0  0
 30 34  2  0  0  0  0
 31 33  1  0  0  0  0
 31 66  1  0  0  0  0
 32 35  2  0  0  0  0
 33 37  1  0  0  0  0
 34 36  1  0  0  0  0
 34 67  1  0  0  0  0
 35 38  1  0  0  0  0
 35 68  1  0  0  0  0
 36 38  2  0  0  0  0
 36 69  1  0  0  0  0
 37 70  1  0  0  0  0
 37 71  1  0  0  0  0
 37 72  1  0  0  0  0
 38 73  1  0  0  0  0
 39 74  1  0  0  0  0
 39 75  1  0  0  0  0
 39 76  1  0  0  0  0
M  END
> <PUBCHEM_COMPOUND_CID>
45262417

> <PUBCHEM_COMPOUND_CANONICALIZED>
1

> <PUBCHEM_CACTVS_COMPLEXITY>
884

> <PUBCHEM_CACTVS_HBOND_ACCEPTOR>
6

> <PUBCHEM_CACTVS_HBOND_DONOR>
2

> <PUBCHEM_CACTVS_ROTATABLE_BOND>
7

> <PUBCHEM_CACTVS_SUBSKEYS>
AAADcfB7OABEAAAAAAAAAAAAAAAAAAAAAAA8YMEABYAAAACx9AAAHgQQAAAADSzBngSyxvPIEAKoAyVyVHCCgCAlIiAImKE+bNgIJvLAlZOEMQhk1hHIyYec2PKOoAABAAASAABQAAIAACQAAAAAAAAAAA==

> <PUBCHEM_IUPAC_OPENEYE_NAME>
[3-[2-[4-[(2-methylquinoline-4-carbonyl)amino]cyclohexyl]ethyl]-1,2,4,5-tetrahydro-3-benzazepin-7-yl] methanesulfonate;hydrochloride

> <PUBCHEM_IUPAC_CAS_NAME>
methanesulfonic acid [3-[2-[4-[[(2-methyl-4-quinolinyl)-oxomethyl]amino]cyclohexyl]ethyl]-1,2,4,5-tetrahydro-3-benzazepin-7-yl] ester;hydrochloride

> <PUBCHEM_IUPAC_NAME_MARKUP>
[3-[2-[4-[(2-methylquinoline-4-carbonyl)amino]cyclohexyl]ethyl]-1,2,4,5-tetrahydro-3-benzazepin-7-yl] methanesulfonate;hydrochloride

> <PUBCHEM_IUPAC_NAME>
[3-[2-[4-[(2-methylquinoline-4-carbonyl)amino]cyclohexyl]ethyl]-1,2,4,5-tetrahydro-3-benzazepin-7-yl] methanesulfonate;hydrochloride

> <PUBCHEM_IUPAC_SYSTEMATIC_NAME>
[3-[2-[4-[(2-methylquinolin-4-yl)carbonylamino]cyclohexyl]ethyl]-1,2,4,5-tetrahydro-3-benzazepin-7-yl] methanesulfonate;hydrochloride

> <PUBCHEM_IUPAC_TRADITIONAL_NAME>
methanesulfonic acid [3-[2-[4-[(2-methylquinoline-4-carbonyl)amino]cyclohexyl]ethyl]-1,2,4,5-tetrahydro-3-benzazepin-7-yl] ester;hydrochloride

> <PUBCHEM_IUPAC_INCHI>
InChI=1S/C30H37N3O4S.ClH/c1-21-19-28(27-5-3-4-6-29(27)31-21)30(34)32-25-10-7-22(8-11-25)13-16-33-17-14-23-9-12-26(37-38(2,35)36)20-24(23)15-18-33;/h3-6,9,12,19-20,22,25H,7-8,10-11,13-18H2,1-2H3,(H,32,34);1H

> <PUBCHEM_IUPAC_INCHIKEY>
FTZCQBWRLSISAD-UHFFFAOYSA-N

> <PUBCHEM_EXACT_MASS>
571.2271556

> <PUBCHEM_MOLECULAR_FORMULA>
C30H38ClN3O4S

> <PUBCHEM_MOLECULAR_WEIGHT>
572.2

> <PUBCHEM_OPENEYE_CAN_SMILES>
CC1=NC2=CC=CC=C2C(=C1)C(=O)NC3CCC(CC3)CCN4CCC5=C(CC4)C=C(C=C5)OS(=O)(=O)C.Cl

> <PUBCHEM_OPENEYE_ISO_SMILES>
CC1=NC2=CC=CC=C2C(=C1)C(=O)NC3CCC(CC3)CCN4CCC5=C(CC4)C=C(C=C5)OS(=O)(=O)C.Cl

> <PUBCHEM_CACTVS_TPSA>
97

> <PUBCHEM_MONOISOTOPIC_WEIGHT>
571.2271556

> <PUBCHEM_TOTAL_CHARGE>
0

> <PUBCHEM_HEAVY_ATOM_COUNT>
39

> <PUBCHEM_ATOM_DEF_STEREO_COUNT>
0

> <PUBCHEM_ATOM_UDEF_STEREO_COUNT>
0

> <PUBCHEM_BOND_DEF_STEREO_COUNT>
0

> <PUBCHEM_BOND_UDEF_STEREO_COUNT>
0

> <PUBCHEM_ISOTOPIC_ATOM_COUNT>
0

> <PUBCHEM_COMPONENT_COUNT>
2

> <PUBCHEM_CACTVS_TAUTO_COUNT>
-1

> <PUBCHEM_COORDINATE_TYPE>
1
5
255

> <PUBCHEM_BONDANNOTATIONS>
22  23  8
22  26  8
23  27  8
25  30  8
25  31  8
26  28  8
27  29  8
28  29  8
30  32  8
30  34  8
31  33  8
32  35  8
34  36  8
35  38  8
36  38  8
9  32  8
9  33  8

$$$$
