9891618
  -OEChem-09292322152D

 55 59  0     0  0  0  0  0  0999 V2000
    2.0000   -2.6832    0.0000 Cl  0  0  0  0  0  0  0  0  0  0  0  0
    6.9409   -0.9852    0.0000 S   0  0  0  0  0  0  0  0  0  0  0  0
    5.9718   -2.4739    0.0000 S   0  0  0  0  0  0  0  0  0  0  0  0
    6.4409   -0.1192    0.0000 O   0  0  0  0  0  0  0  0  0  0  0  0
    7.4409   -1.8512    0.0000 O   0  0  0  0  0  0  0  0  0  0  0  0
   11.2874    0.5494    0.0000 N   0  0  0  0  0  0  0  0  0  0  0  0
   11.2642    2.5492    0.0000 N   0  0  0  0  0  0  0  0  0  0  0  0
    7.8069   -0.4852    0.0000 N   0  0  0  0  0  0  0  0  0  0  0  0
   11.2989   -2.5199    0.0000 N   0  0  0  0  0  0  0  0  0  0  0  0
   10.4156    1.0393    0.0000 C   0  0  0  0  0  0  0  0  0  0  0  0
   12.1476    1.0594    0.0000 C   0  0  0  0  0  0  0  0  0  0  0  0
   10.4041    2.0393    0.0000 C   0  0  0  0  0  0  0  0  0  0  0  0
   12.1360    2.0593    0.0000 C   0  0  0  0  0  0  0  0  0  0  0  0
   11.2989   -0.4506    0.0000 C   0  0  0  0  0  0  0  0  0  0  0  0
   10.4050   -0.9852    0.0000 C   0  0  0  0  0  0  0  0  0  0  0  0
   11.2527    3.5492    0.0000 C   0  0  0  0  0  0  0  0  0  0  0  0
   12.2050   -0.9644    0.0000 C   0  0  0  0  0  0  0  0  0  0  0  0
   10.4050   -1.9852    0.0000 C   0  0  0  0  0  0  0  0  0  0  0  0
    9.5390   -0.4852    0.0000 C   0  0  0  0  0  0  0  0  0  0  0  0
    8.6730   -0.9852    0.0000 C   0  0  0  0  0  0  0  0  0  0  0  0
    9.5390   -2.4852    0.0000 C   0  0  0  0  0  0  0  0  0  0  0  0
   12.2050   -2.0060    0.0000 C   0  0  0  0  0  0  0  0  0  0  0  0
    6.0749   -1.4852    0.0000 C   0  0  0  0  0  0  0  0  0  0  0  0
    8.6730   -1.9852    0.0000 C   0  0  0  0  0  0  0  0  0  0  0  0
    5.1671   -1.0801    0.0000 C   0  0  0  0  0  0  0  0  0  0  0  0
    4.5000   -1.8171    0.0000 C   0  0  0  0  0  0  0  0  0  0  0  0
    5.0000   -2.6832    0.0000 C   0  0  0  0  0  0  0  0  0  0  0  0
    4.9609   -0.1016    0.0000 C   0  0  0  0  0  0  0  0  0  0  0  0
    3.5000   -1.8171    0.0000 C   0  0  0  0  0  0  0  0  0  0  0  0
    4.5000   -3.5492    0.0000 C   0  0  0  0  0  0  0  0  0  0  0  0
    3.0000   -2.6832    0.0000 C   0  0  0  0  0  0  0  0  0  0  0  0
    3.5000   -3.5492    0.0000 C   0  0  0  0  0  0  0  0  0  0  0  0
    9.8038    1.1399    0.0000 H   0  0  0  0  0  0  0  0  0  0  0  0
   10.2103    0.4543    0.0000 H   0  0  0  0  0  0  0  0  0  0  0  0
   12.3663    0.4792    0.0000 H   0  0  0  0  0  0  0  0  0  0  0  0
   12.7569    1.1741    0.0000 H   0  0  0  0  0  0  0  0  0  0  0  0
   10.1853    2.6194    0.0000 H   0  0  0  0  0  0  0  0  0  0  0  0
    9.7948    1.9245    0.0000 H   0  0  0  0  0  0  0  0  0  0  0  0
   12.7478    1.9587    0.0000 H   0  0  0  0  0  0  0  0  0  0  0  0
   12.3413    2.6443    0.0000 H   0  0  0  0  0  0  0  0  0  0  0  0
   11.8726    3.5563    0.0000 H   0  0  0  0  0  0  0  0  0  0  0  0
   11.2455    4.1691    0.0000 H   0  0  0  0  0  0  0  0  0  0  0  0
   10.6327    3.5420    0.0000 H   0  0  0  0  0  0  0  0  0  0  0  0
   12.7407   -0.6523    0.0000 H   0  0  0  0  0  0  0  0  0  0  0  0
    9.5390    0.1348    0.0000 H   0  0  0  0  0  0  0  0  0  0  0  0
    9.5390   -3.1052    0.0000 H   0  0  0  0  0  0  0  0  0  0  0  0
   12.7407   -2.3181    0.0000 H   0  0  0  0  0  0  0  0  0  0  0  0
    7.8069    0.1348    0.0000 H   0  0  0  0  0  0  0  0  0  0  0  0
    8.1360   -2.2952    0.0000 H   0  0  0  0  0  0  0  0  0  0  0  0
    5.5675    0.0263    0.0000 H   0  0  0  0  0  0  0  0  0  0  0  0
    4.8330    0.5051    0.0000 H   0  0  0  0  0  0  0  0  0  0  0  0
    4.3542   -0.2295    0.0000 H   0  0  0  0  0  0  0  0  0  0  0  0
    3.1900   -1.2802    0.0000 H   0  0  0  0  0  0  0  0  0  0  0  0
    4.8100   -4.0861    0.0000 H   0  0  0  0  0  0  0  0  0  0  0  0
    3.1900   -4.0861    0.0000 H   0  0  0  0  0  0  0  0  0  0  0  0
  1 31  1  0  0  0  0
  2  4  2  0  0  0  0
  2  5  2  0  0  0  0
  2  8  1  0  0  0  0
  2 23  1  0  0  0  0
  3 23  1  0  0  0  0
  3 27  1  0  0  0  0
  6 10  1  0  0  0  0
  6 11  1  0  0  0  0
  6 14  1  0  0  0  0
  7 12  1  0  0  0  0
  7 13  1  0  0  0  0
  7 16  1  0  0  0  0
  8 20  1  0  0  0  0
  8 48  1  0  0  0  0
  9 18  2  0  0  0  0
  9 22  1  0  0  0  0
 10 12  1  0  0  0  0
 10 33  1  0  0  0  0
 10 34  1  0  0  0  0
 11 13  1  0  0  0  0
 11 35  1  0  0  0  0
 11 36  1  0  0  0  0
 12 37  1  0  0  0  0
 12 38  1  0  0  0  0
 13 39  1  0  0  0  0
 13 40  1  0  0  0  0
 14 15  2  0  0  0  0
 14 17  1  0  0  0  0
 15 18  1  0  0  0  0
 15 19  1  0  0  0  0
 16 41  1  0  0  0  0
 16 42  1  0  0  0  0
 16 43  1  0  0  0  0
 17 22  2  0  0  0  0
 17 44  1  0  0  0  0
 18 21  1  0  0  0  0
 19 20  2  0  0  0  0
 19 45  1  0  0  0  0
 20 24  1  0  0  0  0
 21 24  2  0  0  0  0
 21 46  1  0  0  0  0
 22 47  1  0  0  0  0
 23 25  2  0  0  0  0
 24 49  1  0  0  0  0
 25 26  1  0  0  0  0
 25 28  1  0  0  0  0
 26 27  2  0  0  0  0
 26 29  1  0  0  0  0
 27 30  1  0  0  0  0
 28 50  1  0  0  0  0
 28 51  1  0  0  0  0
 28 52  1  0  0  0  0
 29 31  2  0  0  0  0
 29 53  1  0  0  0  0
 30 32  2  0  0  0  0
 30 54  1  0  0  0  0
 31 32  1  0  0  0  0
 32 55  1  0  0  0  0
M  END
> <PUBCHEM_COMPOUND_CID>
9891618

> <PUBCHEM_COMPOUND_CANONICALIZED>
1

> <PUBCHEM_CACTVS_COMPLEXITY>
758

> <PUBCHEM_CACTVS_HBOND_ACCEPTOR>
7

> <PUBCHEM_CACTVS_HBOND_DONOR>
1

> <PUBCHEM_CACTVS_ROTATABLE_BOND>
4

> <PUBCHEM_CACTVS_SUBSKEYS>
AAADceB7sABkAAAAAAAAAAAAAAAAASAAAAA8eIEAAAAAAEix/gAAHAYQQAAADArBXiQ+wfNIEAqkAzRnRHDDgbAxDzBI2Dg4ZpgIYOLh09GUJAhgkADoyAcQgMAOgAKAYAAGAAAABQDAAAwAAAAAAAAAAA==

> <PUBCHEM_IUPAC_OPENEYE_NAME>
5-chloro-3-methyl-N-[4-(4-methylpiperazin-1-yl)-6-quinolyl]benzothiophene-2-sulfonamide

> <PUBCHEM_IUPAC_CAS_NAME>
5-chloro-3-methyl-N-[4-(4-methyl-1-piperazinyl)-6-quinolinyl]-1-benzothiophene-2-sulfonamide

> <PUBCHEM_IUPAC_NAME_MARKUP>
5-chloro-3-methyl-<I>N</I>-[4-(4-methylpiperazin-1-yl)quinolin-6-yl]-1-benzothiophene-2-sulfonamide

> <PUBCHEM_IUPAC_NAME>
5-chloro-3-methyl-N-[4-(4-methylpiperazin-1-yl)quinolin-6-yl]-1-benzothiophene-2-sulfonamide

> <PUBCHEM_IUPAC_SYSTEMATIC_NAME>
5-chloranyl-3-methyl-N-[4-(4-methylpiperazin-1-yl)quinolin-6-yl]-1-benzothiophene-2-sulfonamide

> <PUBCHEM_IUPAC_TRADITIONAL_NAME>
5-chloro-3-methyl-N-[4-(4-methylpiperazino)-6-quinolyl]benzothiophene-2-sulfonamide

> <PUBCHEM_IUPAC_INCHI>
InChI=1S/C23H23ClN4O2S2/c1-15-18-13-16(24)3-6-22(18)31-23(15)32(29,30)26-17-4-5-20-19(14-17)21(7-8-25-20)28-11-9-27(2)10-12-28/h3-8,13-14,26H,9-12H2,1-2H3

> <PUBCHEM_IUPAC_INCHIKEY>
WFMXGGGKNJIUGJ-UHFFFAOYSA-N

> <PUBCHEM_XLOGP3_AA>
5

> <PUBCHEM_EXACT_MASS>
486.0950960

> <PUBCHEM_MOLECULAR_FORMULA>
C23H23ClN4O2S2

> <PUBCHEM_MOLECULAR_WEIGHT>
487.0

> <PUBCHEM_OPENEYE_CAN_SMILES>
CC1=C(SC2=C1C=C(C=C2)Cl)S(=O)(=O)NC3=CC4=C(C=CN=C4C=C3)N5CCN(CC5)C

> <PUBCHEM_OPENEYE_ISO_SMILES>
CC1=C(SC2=C1C=C(C=C2)Cl)S(=O)(=O)NC3=CC4=C(C=CN=C4C=C3)N5CCN(CC5)C

> <PUBCHEM_CACTVS_TPSA>
102

> <PUBCHEM_MONOISOTOPIC_WEIGHT>
486.0950960

> <PUBCHEM_TOTAL_CHARGE>
0

> <PUBCHEM_HEAVY_ATOM_COUNT>
32

> <PUBCHEM_ATOM_DEF_STEREO_COUNT>
0

> <PUBCHEM_ATOM_UDEF_STEREO_COUNT>
0

> <PUBCHEM_BOND_DEF_STEREO_COUNT>
0

> <PUBCHEM_BOND_UDEF_STEREO_COUNT>
0

> <PUBCHEM_ISOTOPIC_ATOM_COUNT>
0

> <PUBCHEM_COMPONENT_COUNT>
1

> <PUBCHEM_CACTVS_TAUTO_COUNT>
-1

> <PUBCHEM_COORDINATE_TYPE>
1
5
255

> <PUBCHEM_BONDANNOTATIONS>
14  15  8
14  17  8
15  18  8
15  19  8
17  22  8
18  21  8
19  20  8
20  24  8
21  24  8
23  25  8
25  26  8
26  27  8
26  29  8
27  30  8
29  31  8
3  23  8
3  27  8
30  32  8
31  32  8
9  18  8
9  22  8

$$$$
