44451982
  -OEChem-09292322032D

 73 77  0     0  0  0  0  0  0999 V2000
    2.0000   -4.0242    0.0000 F   0  0  0  0  0  0  0  0  0  0  0  0
    8.9942   -1.0000    0.0000 O   0  0  0  0  0  0  0  0  0  0  0  0
    5.5301   -5.0000    0.0000 O   0  0  0  0  0  0  0  0  0  0  0  0
    9.8602    2.5000    0.0000 N   0  0  0  0  0  0  0  0  0  0  0  0
   11.5923    3.5000    0.0000 N   0  0  0  0  0  0  0  0  0  0  0  0
    7.2622   -1.0000    0.0000 N   0  0  0  0  0  0  0  0  0  0  0  0
    6.3961   -3.5000    0.0000 N   0  0  0  0  0  0  0  0  0  0  0  0
    5.5301   -2.0000    0.0000 N   0  0  0  0  0  0  0  0  0  0  0  0
   10.7263    2.0000    0.0000 C   0  0  0  0  0  0  0  0  0  0  0  0
    9.8602    3.5000    0.0000 C   0  0  0  0  0  0  0  0  0  0  0  0
   11.5923    2.5000    0.0000 C   0  0  0  0  0  0  0  0  0  0  0  0
   10.7263    4.0000    0.0000 C   0  0  0  0  0  0  0  0  0  0  0  0
    8.9942    2.0000    0.0000 C   0  0  0  0  0  0  0  0  0  0  0  0
   12.4583    4.0000    0.0000 C   0  0  0  0  0  0  0  0  0  0  0  0
    8.9942    1.0000    0.0000 C   0  0  0  0  0  0  0  0  0  0  0  0
   13.3244    3.5000    0.0000 C   0  0  0  0  0  0  0  0  0  0  0  0
    8.1282    0.5000    0.0000 C   0  0  0  0  0  0  0  0  0  0  0  0
   12.4583    5.0000    0.0000 C   0  0  0  0  0  0  0  0  0  0  0  0
   14.1904    4.0000    0.0000 C   0  0  0  0  0  0  0  0  0  0  0  0
   13.3244    2.5000    0.0000 C   0  0  0  0  0  0  0  0  0  0  0  0
   13.3244    5.5000    0.0000 C   0  0  0  0  0  0  0  0  0  0  0  0
    8.1282   -0.5000    0.0000 C   0  0  0  0  0  0  0  0  0  0  0  0
   14.1904    5.0000    0.0000 C   0  0  0  0  0  0  0  0  0  0  0  0
   15.0564    3.5000    0.0000 C   0  0  0  0  0  0  0  0  0  0  0  0
    7.2622   -2.0000    0.0000 C   0  0  0  0  0  0  0  0  0  0  0  0
    6.3961   -2.5000    0.0000 C   0  0  0  0  0  0  0  0  0  0  0  0
    5.5301   -4.0000    0.0000 C   0  0  0  0  0  0  0  0  0  0  0  0
    4.6641   -3.5000    0.0000 C   0  0  0  0  0  0  0  0  0  0  0  0
    4.6641   -2.5000    0.0000 C   0  0  0  0  0  0  0  0  0  0  0  0
    7.2622   -4.0000    0.0000 C   0  0  0  0  0  0  0  0  0  0  0  0
    3.7702   -4.0347    0.0000 C   0  0  0  0  0  0  0  0  0  0  0  0
    3.7702   -1.9653    0.0000 C   0  0  0  0  0  0  0  0  0  0  0  0
    8.1282   -3.5000    0.0000 C   0  0  0  0  0  0  0  0  0  0  0  0
    7.2622   -5.0000    0.0000 C   0  0  0  0  0  0  0  0  0  0  0  0
    2.8641   -3.5208    0.0000 C   0  0  0  0  0  0  0  0  0  0  0  0
    2.8641   -2.4792    0.0000 C   0  0  0  0  0  0  0  0  0  0  0  0
    8.9942   -4.0000    0.0000 C   0  0  0  0  0  0  0  0  0  0  0  0
    8.1282   -5.5000    0.0000 C   0  0  0  0  0  0  0  0  0  0  0  0
    8.9942   -5.0000    0.0000 C   0  0  0  0  0  0  0  0  0  0  0  0
   10.3278    1.5250    0.0000 H   0  0  0  0  0  0  0  0  0  0  0  0
   11.1248    1.5250    0.0000 H   0  0  0  0  0  0  0  0  0  0  0  0
    9.6482    4.0826    0.0000 H   0  0  0  0  0  0  0  0  0  0  0  0
    9.2497    3.3923    0.0000 H   0  0  0  0  0  0  0  0  0  0  0  0
   11.8044    1.9174    0.0000 H   0  0  0  0  0  0  0  0  0  0  0  0
   12.2029    2.6077    0.0000 H   0  0  0  0  0  0  0  0  0  0  0  0
   11.1248    4.4750    0.0000 H   0  0  0  0  0  0  0  0  0  0  0  0
   10.3278    4.4750    0.0000 H   0  0  0  0  0  0  0  0  0  0  0  0
    8.7822    2.5826    0.0000 H   0  0  0  0  0  0  0  0  0  0  0  0
    8.3836    1.8923    0.0000 H   0  0  0  0  0  0  0  0  0  0  0  0
    9.2063    0.4174    0.0000 H   0  0  0  0  0  0  0  0  0  0  0  0
    9.6048    1.1077    0.0000 H   0  0  0  0  0  0  0  0  0  0  0  0
    7.9162    1.0826    0.0000 H   0  0  0  0  0  0  0  0  0  0  0  0
    7.5176    0.3923    0.0000 H   0  0  0  0  0  0  0  0  0  0  0  0
   11.9214    5.3100    0.0000 H   0  0  0  0  0  0  0  0  0  0  0  0
   12.7044    2.5000    0.0000 H   0  0  0  0  0  0  0  0  0  0  0  0
   13.3244    1.8800    0.0000 H   0  0  0  0  0  0  0  0  0  0  0  0
   13.9444    2.5000    0.0000 H   0  0  0  0  0  0  0  0  0  0  0  0
   13.3244    6.1200    0.0000 H   0  0  0  0  0  0  0  0  0  0  0  0
   14.7273    5.3100    0.0000 H   0  0  0  0  0  0  0  0  0  0  0  0
   14.7464    2.9631    0.0000 H   0  0  0  0  0  0  0  0  0  0  0  0
   15.5933    3.1900    0.0000 H   0  0  0  0  0  0  0  0  0  0  0  0
   15.3664    4.0369    0.0000 H   0  0  0  0  0  0  0  0  0  0  0  0
    6.7252   -0.6900    0.0000 H   0  0  0  0  0  0  0  0  0  0  0  0
    7.4742   -2.5826    0.0000 H   0  0  0  0  0  0  0  0  0  0  0  0
    7.8728   -1.8923    0.0000 H   0  0  0  0  0  0  0  0  0  0  0  0
    3.7773   -4.6546    0.0000 H   0  0  0  0  0  0  0  0  0  0  0  0
    3.7773   -1.3454    0.0000 H   0  0  0  0  0  0  0  0  0  0  0  0
    8.1282   -2.8800    0.0000 H   0  0  0  0  0  0  0  0  0  0  0  0
    6.7252   -5.3100    0.0000 H   0  0  0  0  0  0  0  0  0  0  0  0
    2.3284   -2.1671    0.0000 H   0  0  0  0  0  0  0  0  0  0  0  0
    9.5312   -3.6900    0.0000 H   0  0  0  0  0  0  0  0  0  0  0  0
    8.1282   -6.1200    0.0000 H   0  0  0  0  0  0  0  0  0  0  0  0
    9.5312   -5.3100    0.0000 H   0  0  0  0  0  0  0  0  0  0  0  0
  1 35  1  0  0  0  0
  2 22  2  0  0  0  0
  3 27  2  0  0  0  0
  4  9  1  0  0  0  0
  4 10  1  0  0  0  0
  4 13  1  0  0  0  0
  5 11  1  0  0  0  0
  5 12  1  0  0  0  0
  5 14  1  0  0  0  0
  6 22  1  0  0  0  0
  6 25  1  0  0  0  0
  6 63  1  0  0  0  0
  7 26  1  0  0  0  0
  7 27  1  0  0  0  0
  7 30  1  0  0  0  0
  8 26  2  0  0  0  0
  8 29  1  0  0  0  0
  9 11  1  0  0  0  0
  9 40  1  0  0  0  0
  9 41  1  0  0  0  0
 10 12  1  0  0  0  0
 10 42  1  0  0  0  0
 10 43  1  0  0  0  0
 11 44  1  0  0  0  0
 11 45  1  0  0  0  0
 12 46  1  0  0  0  0
 12 47  1  0  0  0  0
 13 15  1  0  0  0  0
 13 48  1  0  0  0  0
 13 49  1  0  0  0  0
 14 16  1  0  0  0  0
 14 18  2  0  0  0  0
 15 17  1  0  0  0  0
 15 50  1  0  0  0  0
 15 51  1  0  0  0  0
 16 19  2  0  0  0  0
 16 20  1  0  0  0  0
 17 22  1  0  0  0  0
 17 52  1  0  0  0  0
 17 53  1  0  0  0  0
 18 21  1  0  0  0  0
 18 54  1  0  0  0  0
 19 23  1  0  0  0  0
 19 24  1  0  0  0  0
 20 55  1  0  0  0  0
 20 56  1  0  0  0  0
 20 57  1  0  0  0  0
 21 23  2  0  0  0  0
 21 58  1  0  0  0  0
 23 59  1  0  0  0  0
 24 60  1  0  0  0  0
 24 61  1  0  0  0  0
 24 62  1  0  0  0  0
 25 26  1  0  0  0  0
 25 64  1  0  0  0  0
 25 65  1  0  0  0  0
 27 28  1  0  0  0  0
 28 29  2  0  0  0  0
 28 31  1  0  0  0  0
 29 32  1  0  0  0  0
 30 33  2  0  0  0  0
 30 34  1  0  0  0  0
 31 35  2  0  0  0  0
 31 66  1  0  0  0  0
 32 36  2  0  0  0  0
 32 67  1  0  0  0  0
 33 37  1  0  0  0  0
 33 68  1  0  0  0  0
 34 38  2  0  0  0  0
 34 69  1  0  0  0  0
 35 36  1  0  0  0  0
 36 70  1  0  0  0  0
 37 39  2  0  0  0  0
 37 71  1  0  0  0  0
 38 39  1  0  0  0  0
 38 72  1  0  0  0  0
 39 73  1  0  0  0  0
M  END
> <PUBCHEM_COMPOUND_CID>
44451982

> <PUBCHEM_COMPOUND_CANONICALIZED>
1

> <PUBCHEM_CACTVS_COMPLEXITY>
869

> <PUBCHEM_CACTVS_HBOND_ACCEPTOR>
6

> <PUBCHEM_CACTVS_HBOND_DONOR>
1

> <PUBCHEM_CACTVS_ROTATABLE_BOND>
8

> <PUBCHEM_CACTVS_SUBSKEYS>
AAADcfB7sQAAAAAAAAAAAAAAAAAAAAAAAAA8YMECAAAAAACBUAAAHwAQAAAADAjBmAwzwIPAAACoAidydACCAAElAgAJiIEYZMgIYDrA3ZGUIYhglgDIyccciICOgAAAQAASAAAAAACAACQAAAAAAAAAAA==

> <PUBCHEM_IUPAC_OPENEYE_NAME>
4-[4-(2,3-dimethylphenyl)piperazin-1-yl]-N-[(6-fluoro-4-oxo-3-phenyl-quinazolin-2-yl)methyl]butanamide

> <PUBCHEM_IUPAC_CAS_NAME>
4-[4-(2,3-dimethylphenyl)-1-piperazinyl]-N-[(6-fluoro-4-oxo-3-phenyl-2-quinazolinyl)methyl]butanamide

> <PUBCHEM_IUPAC_NAME_MARKUP>
4-[4-(2,3-dimethylphenyl)piperazin-1-yl]-<I>N</I>-[(6-fluoro-4-oxo-3-phenylquinazolin-2-yl)methyl]butanamide

> <PUBCHEM_IUPAC_NAME>
4-[4-(2,3-dimethylphenyl)piperazin-1-yl]-N-[(6-fluoro-4-oxo-3-phenylquinazolin-2-yl)methyl]butanamide

> <PUBCHEM_IUPAC_SYSTEMATIC_NAME>
4-[4-(2,3-dimethylphenyl)piperazin-1-yl]-N-[(6-fluoranyl-4-oxidanylidene-3-phenyl-quinazolin-2-yl)methyl]butanamide

> <PUBCHEM_IUPAC_TRADITIONAL_NAME>
4-[4-(2,3-dimethylphenyl)piperazino]-N-[(6-fluoro-4-keto-3-phenyl-quinazolin-2-yl)methyl]butyramide

> <PUBCHEM_IUPAC_INCHI>
InChI=1S/C31H34FN5O2/c1-22-8-6-11-28(23(22)2)36-18-16-35(17-19-36)15-7-12-30(38)33-21-29-34-27-14-13-24(32)20-26(27)31(39)37(29)25-9-4-3-5-10-25/h3-6,8-11,13-14,20H,7,12,15-19,21H2,1-2H3,(H,33,38)

> <PUBCHEM_IUPAC_INCHIKEY>
XITNJWUZFRCEAM-UHFFFAOYSA-N

> <PUBCHEM_XLOGP3_AA>
4.5

> <PUBCHEM_EXACT_MASS>
527.26965351

> <PUBCHEM_MOLECULAR_FORMULA>
C31H34FN5O2

> <PUBCHEM_MOLECULAR_WEIGHT>
527.6

> <PUBCHEM_OPENEYE_CAN_SMILES>
CC1=C(C(=CC=C1)N2CCN(CC2)CCCC(=O)NCC3=NC4=C(C=C(C=C4)F)C(=O)N3C5=CC=CC=C5)C

> <PUBCHEM_OPENEYE_ISO_SMILES>
CC1=C(C(=CC=C1)N2CCN(CC2)CCCC(=O)NCC3=NC4=C(C=C(C=C4)F)C(=O)N3C5=CC=CC=C5)C

> <PUBCHEM_CACTVS_TPSA>
68.2

> <PUBCHEM_MONOISOTOPIC_WEIGHT>
527.26965351

> <PUBCHEM_TOTAL_CHARGE>
0

> <PUBCHEM_HEAVY_ATOM_COUNT>
39

> <PUBCHEM_ATOM_DEF_STEREO_COUNT>
0

> <PUBCHEM_ATOM_UDEF_STEREO_COUNT>
0

> <PUBCHEM_BOND_DEF_STEREO_COUNT>
0

> <PUBCHEM_BOND_UDEF_STEREO_COUNT>
0

> <PUBCHEM_ISOTOPIC_ATOM_COUNT>
0

> <PUBCHEM_COMPONENT_COUNT>
1

> <PUBCHEM_CACTVS_TAUTO_COUNT>
-1

> <PUBCHEM_COORDINATE_TYPE>
1
5
255

> <PUBCHEM_BONDANNOTATIONS>
14  16  8
14  18  8
16  19  8
18  21  8
19  23  8
21  23  8
27  28  8
28  29  8
28  31  8
29  32  8
30  33  8
30  34  8
31  35  8
32  36  8
33  37  8
34  38  8
35  36  8
37  39  8
38  39  8
7  26  8
7  27  8
8  26  8
8  29  8

$$$$
