44591087
  -OEChem-09292322502D

 49 53  0     1  0  0  0  0  0999 V2000
    7.5512    5.1788    0.0000 Cl  0  0  0  0  0  0  0  0  0  0  0  0
    5.9674   -1.8233    0.0000 N   0  0  3  0  0  0  0  0  0  0  0  0
    6.9877    1.2187    0.0000 N   0  0  3  0  0  0  0  0  0  0  0  0
    4.6783   -4.5895    0.0000 N   0  0  0  0  0  0  0  0  0  0  0  0
    2.8660   -4.7848    0.0000 N   0  0  0  0  0  0  0  0  0  0  0  0
    7.1907   -1.7153    0.0000 C   0  0  3  0  0  0  0  0  0  0  0  0
    7.7368   -0.8776    0.0000 C   0  0  3  0  0  0  0  0  0  0  0  0
    8.5037   -2.4167    0.0000 C   0  0  0  0  0  0  0  0  0  0  0  0
    9.0498   -1.5790    0.0000 C   0  0  0  0  0  0  0  0  0  0  0  0
    5.9190   -0.1443    0.0000 C   0  0  0  0  0  0  0  0  0  0  0  0
    7.7746    0.6017    0.0000 C   0  0  0  0  0  0  0  0  0  0  0  0
    6.0598    0.8457    0.0000 C   0  0  0  0  0  0  0  0  0  0  0  0
    4.9889   -2.0295    0.0000 C   0  0  0  0  0  0  0  0  0  0  0  0
    4.6783   -2.9800    0.0000 C   0  0  0  0  0  0  0  0  0  0  0  0
    7.1286    2.2087    0.0000 C   0  0  0  0  0  0  0  0  0  0  0  0
    3.7320   -3.2848    0.0000 C   0  0  0  0  0  0  0  0  0  0  0  0
    5.2619   -3.7848    0.0000 C   0  0  0  0  0  0  0  0  0  0  0  0
    6.3416    2.8258    0.0000 C   0  0  0  0  0  0  0  0  0  0  0  0
    8.0564    2.5817    0.0000 C   0  0  0  0  0  0  0  0  0  0  0  0
    3.7320   -4.2848    0.0000 C   0  0  0  0  0  0  0  0  0  0  0  0
    2.8660   -2.7848    0.0000 C   0  0  0  0  0  0  0  0  0  0  0  0
    6.4825    3.8158    0.0000 C   0  0  0  0  0  0  0  0  0  0  0  0
    8.1973    3.5718    0.0000 C   0  0  0  0  0  0  0  0  0  0  0  0
    7.4103    4.1888    0.0000 C   0  0  0  0  0  0  0  0  0  0  0  0
    2.0000   -3.2848    0.0000 C   0  0  0  0  0  0  0  0  0  0  0  0
    2.0000   -4.2848    0.0000 C   0  0  0  0  0  0  0  0  0  0  0  0
    7.5856   -1.2373    0.0000 H   0  0  0  0  0  0  0  0  0  0  0  0
    8.2726   -0.5656    0.0000 H   0  0  0  0  0  0  0  0  0  0  0  0
    8.1958   -2.9549    0.0000 H   0  0  0  0  0  0  0  0  0  0  0  0
    9.0327   -2.7401    0.0000 H   0  0  0  0  0  0  0  0  0  0  0  0
    9.5788   -1.9024    0.0000 H   0  0  0  0  0  0  0  0  0  0  0  0
    9.3577   -1.0409    0.0000 H   0  0  0  0  0  0  0  0  0  0  0  0
    5.3457    0.0920    0.0000 H   0  0  0  0  0  0  0  0  0  0  0  0
    5.5484   -0.6414    0.0000 H   0  0  0  0  0  0  0  0  0  0  0  0
    8.3770    0.4551    0.0000 H   0  0  0  0  0  0  0  0  0  0  0  0
    8.0453    1.1595    0.0000 H   0  0  0  0  0  0  0  0  0  0  0  0
    5.9320    1.4524    0.0000 H   0  0  0  0  0  0  0  0  0  0  0  0
    5.4402    0.8251    0.0000 H   0  0  0  0  0  0  0  0  0  0  0  0
    4.9684   -1.4098    0.0000 H   0  0  0  0  0  0  0  0  0  0  0  0
    4.3751   -1.9422    0.0000 H   0  0  0  0  0  0  0  0  0  0  0  0
    5.8819   -3.7848    0.0000 H   0  0  0  0  0  0  0  0  0  0  0  0
    5.7664    2.5945    0.0000 H   0  0  0  0  0  0  0  0  0  0  0  0
    8.5443    2.1992    0.0000 H   0  0  0  0  0  0  0  0  0  0  0  0
    4.8709   -5.1788    0.0000 H   0  0  0  0  0  0  0  0  0  0  0  0
    2.8660   -2.1648    0.0000 H   0  0  0  0  0  0  0  0  0  0  0  0
    5.9946    4.1983    0.0000 H   0  0  0  0  0  0  0  0  0  0  0  0
    8.7725    3.8030    0.0000 H   0  0  0  0  0  0  0  0  0  0  0  0
    1.4631   -2.9748    0.0000 H   0  0  0  0  0  0  0  0  0  0  0  0
    1.4631   -4.5948    0.0000 H   0  0  0  0  0  0  0  0  0  0  0  0
  1 24  1  0  0  0  0
  2  6  1  0  0  0  0
  2  7  1  0  0  0  0
  2 13  1  0  0  0  0
  3 11  1  0  0  0  0
  3 12  1  0  0  0  0
  3 15  1  0  0  0  0
  4 17  1  0  0  0  0
  4 20  1  0  0  0  0
  4 44  1  0  0  0  0
  5 20  1  0  0  0  0
  5 26  2  0  0  0  0
  6  8  1  0  0  0  0
  6 10  1  0  0  0  0
  6 27  1  0  0  0  0
  7  9  1  0  0  0  0
  7 11  1  0  0  0  0
  7 28  1  0  0  0  0
  8  9  1  0  0  0  0
  8 29  1  0  0  0  0
  8 30  1  0  0  0  0
  9 31  1  0  0  0  0
  9 32  1  0  0  0  0
 10 12  1  0  0  0  0
 10 33  1  0  0  0  0
 10 34  1  0  0  0  0
 11 35  1  0  0  0  0
 11 36  1  0  0  0  0
 12 37  1  0  0  0  0
 12 38  1  0  0  0  0
 13 14  1  0  0  0  0
 13 39  1  0  0  0  0
 13 40  1  0  0  0  0
 14 16  1  0  0  0  0
 14 17  2  0  0  0  0
 15 18  2  0  0  0  0
 15 19  1  0  0  0  0
 16 20  2  0  0  0  0
 16 21  1  0  0  0  0
 17 41  1  0  0  0  0
 18 22  1  0  0  0  0
 18 42  1  0  0  0  0
 19 23  2  0  0  0  0
 19 43  1  0  0  0  0
 21 25  2  0  0  0  0
 21 45  1  0  0  0  0
 22 24  2  0  0  0  0
 22 46  1  0  0  0  0
 23 24  1  0  0  0  0
 23 47  1  0  0  0  0
 25 26  1  0  0  0  0
 25 48  1  0  0  0  0
 26 49  1  0  0  0  0
M  END
> <PUBCHEM_COMPOUND_CID>
44591087

> <PUBCHEM_COMPOUND_CANONICALIZED>
1

> <PUBCHEM_CACTVS_COMPLEXITY>
481

> <PUBCHEM_CACTVS_HBOND_ACCEPTOR>
3

> <PUBCHEM_CACTVS_HBOND_DONOR>
1

> <PUBCHEM_CACTVS_ROTATABLE_BOND>
3

> <PUBCHEM_CACTVS_SUBSKEYS>
AAADceB7gAAEAAAAAAAAAAAAAAAAAWLAAAA8QAAABYAWAFgB/AAAHAIQAAAADCrBGyQ98N/JkACgAjZnZACCgCmxB6AJ2aA4ZpiIaOLB25GUIAhogALIyCcQgAAOgABAAAAAAAAAAIAAAAAAAAAAAAAAAA==

> <PUBCHEM_IUPAC_OPENEYE_NAME>
3-[[3-(4-chlorophenyl)-3,9-diazabicyclo[4.2.1]nonan-9-yl]methyl]-1H-pyrrolo[2,3-b]pyridine

> <PUBCHEM_IUPAC_CAS_NAME>
3-[[3-(4-chlorophenyl)-3,9-diazabicyclo[4.2.1]nonan-9-yl]methyl]-1H-pyrrolo[2,3-b]pyridine

> <PUBCHEM_IUPAC_NAME_MARKUP>
3-[[3-(4-chlorophenyl)-3,9-diazabicyclo[4.2.1]nonan-9-yl]methyl]-1<I>H</I>-pyrrolo[2,3-b]pyridine

> <PUBCHEM_IUPAC_NAME>
3-[[3-(4-chlorophenyl)-3,9-diazabicyclo[4.2.1]nonan-9-yl]methyl]-1H-pyrrolo[2,3-b]pyridine

> <PUBCHEM_IUPAC_SYSTEMATIC_NAME>
3-[[3-(4-chlorophenyl)-3,9-diazabicyclo[4.2.1]nonan-9-yl]methyl]-1H-pyrrolo[2,3-b]pyridine

> <PUBCHEM_IUPAC_TRADITIONAL_NAME>
3-[[3-(4-chlorophenyl)-3,9-diazabicyclo[4.2.1]nonan-9-yl]methyl]-1H-pyrrolo[2,3-b]pyridine

> <PUBCHEM_IUPAC_INCHI>
InChI=1S/C21H23ClN4/c22-16-3-5-17(6-4-16)25-11-9-18-7-8-19(14-25)26(18)13-15-12-24-21-20(15)2-1-10-23-21/h1-6,10,12,18-19H,7-9,11,13-14H2,(H,23,24)

> <PUBCHEM_IUPAC_INCHIKEY>
UPZQTOBGZYRXMC-UHFFFAOYSA-N

> <PUBCHEM_XLOGP3_AA>
4.3

> <PUBCHEM_EXACT_MASS>
366.1611244

> <PUBCHEM_MOLECULAR_FORMULA>
C21H23ClN4

> <PUBCHEM_MOLECULAR_WEIGHT>
366.9

> <PUBCHEM_OPENEYE_CAN_SMILES>
C1CC2CN(CCC1N2CC3=CNC4=C3C=CC=N4)C5=CC=C(C=C5)Cl

> <PUBCHEM_OPENEYE_ISO_SMILES>
C1CC2CN(CCC1N2CC3=CNC4=C3C=CC=N4)C5=CC=C(C=C5)Cl

> <PUBCHEM_CACTVS_TPSA>
35.2

> <PUBCHEM_MONOISOTOPIC_WEIGHT>
366.1611244

> <PUBCHEM_TOTAL_CHARGE>
0

> <PUBCHEM_HEAVY_ATOM_COUNT>
26

> <PUBCHEM_ATOM_DEF_STEREO_COUNT>
0

> <PUBCHEM_ATOM_UDEF_STEREO_COUNT>
2

> <PUBCHEM_BOND_DEF_STEREO_COUNT>
0

> <PUBCHEM_BOND_UDEF_STEREO_COUNT>
0

> <PUBCHEM_ISOTOPIC_ATOM_COUNT>
0

> <PUBCHEM_COMPONENT_COUNT>
1

> <PUBCHEM_CACTVS_TAUTO_COUNT>
-1

> <PUBCHEM_COORDINATE_TYPE>
1
5
255

> <PUBCHEM_BONDANNOTATIONS>
14  16  8
14  17  8
15  18  8
15  19  8
16  20  8
16  21  8
18  22  8
19  23  8
21  25  8
22  24  8
23  24  8
25  26  8
4  17  8
4  20  8
5  20  8
5  26  8
6  8  3
7  9  3

$$$$
