25032525
  -OEChem-09292322262D

 58 62  0     1  0  0  0  0  0999 V2000
    3.7899   -3.3050    0.0000 S   0  0  0  0  0  0  0  0  0  0  0  0
   14.6962    1.6101    0.0000 O   0  0  0  0  0  0  0  0  0  0  0  0
    7.4629   -0.6070    0.0000 N   0  0  0  0  0  0  0  0  0  0  0  0
    5.7308   -1.6070    0.0000 N   0  0  0  0  0  0  0  0  0  0  0  0
   13.0499    2.1482    0.0000 N   0  0  0  0  0  0  0  0  0  0  0  0
    4.7617   -3.0958    0.0000 N   0  0  0  0  0  0  0  0  0  0  0  0
   12.7392    1.1977    0.0000 C   0  0  3  0  0  0  0  0  0  0  0  0
   13.3228    0.3930    0.0000 C   0  0  0  0  0  0  0  0  0  0  0  0
   11.7930    0.8930    0.0000 C   0  0  0  0  0  0  0  0  0  0  0  0
   11.7930   -0.1070    0.0000 C   0  0  0  0  0  0  0  0  0  0  0  0
   12.7392   -0.4118    0.0000 C   0  0  0  0  0  0  0  0  0  0  0  0
    6.5968   -0.1070    0.0000 C   0  0  0  0  0  0  0  0  0  0  0  0
    7.4629   -1.6070    0.0000 C   0  0  0  0  0  0  0  0  0  0  0  0
    8.3289   -0.1070    0.0000 C   0  0  0  0  0  0  0  0  0  0  0  0
    5.7308   -0.6070    0.0000 C   0  0  0  0  0  0  0  0  0  0  0  0
    6.5968   -2.1070    0.0000 C   0  0  0  0  0  0  0  0  0  0  0  0
    9.1949   -0.6070    0.0000 C   0  0  0  0  0  0  0  0  0  0  0  0
   10.0610   -0.1070    0.0000 C   0  0  0  0  0  0  0  0  0  0  0  0
   10.9270   -0.6070    0.0000 C   0  0  0  0  0  0  0  0  0  0  0  0
   10.9270    1.3930    0.0000 C   0  0  0  0  0  0  0  0  0  0  0  0
   10.0610    0.8930    0.0000 C   0  0  0  0  0  0  0  0  0  0  0  0
    4.8648   -2.1070    0.0000 C   0  0  0  0  0  0  0  0  0  0  0  0
    3.9570   -1.7019    0.0000 C   0  0  0  0  0  0  0  0  0  0  0  0
   14.0284    2.3544    0.0000 C   0  0  0  0  0  0  0  0  0  0  0  0
    3.2892   -2.4462    0.0000 C   0  0  0  0  0  0  0  0  0  0  0  0
    3.6464   -0.7514    0.0000 C   0  0  0  0  0  0  0  0  0  0  0  0
   14.3391    3.3050    0.0000 C   0  0  0  0  0  0  0  0  0  0  0  0
    2.3107   -2.2400    0.0000 C   0  0  0  0  0  0  0  0  0  0  0  0
    2.6678   -0.5452    0.0000 C   0  0  0  0  0  0  0  0  0  0  0  0
    2.0000   -1.2895    0.0000 C   0  0  0  0  0  0  0  0  0  0  0  0
   13.3517    1.2939    0.0000 H   0  0  0  0  0  0  0  0  0  0  0  0
   13.7837   -0.0218    0.0000 H   0  0  0  0  0  0  0  0  0  0  0  0
   13.7837    0.8077    0.0000 H   0  0  0  0  0  0  0  0  0  0  0  0
   12.4882   -0.9787    0.0000 H   0  0  0  0  0  0  0  0  0  0  0  0
   13.2766   -0.7210    0.0000 H   0  0  0  0  0  0  0  0  0  0  0  0
    6.9954    0.3679    0.0000 H   0  0  0  0  0  0  0  0  0  0  0  0
    6.1983    0.3679    0.0000 H   0  0  0  0  0  0  0  0  0  0  0  0
    7.6749   -2.1896    0.0000 H   0  0  0  0  0  0  0  0  0  0  0  0
    8.0734   -1.4994    0.0000 H   0  0  0  0  0  0  0  0  0  0  0  0
    8.7274    0.3679    0.0000 H   0  0  0  0  0  0  0  0  0  0  0  0
    7.9304    0.3679    0.0000 H   0  0  0  0  0  0  0  0  0  0  0  0
    5.5188   -0.0244    0.0000 H   0  0  0  0  0  0  0  0  0  0  0  0
    5.1202   -0.7147    0.0000 H   0  0  0  0  0  0  0  0  0  0  0  0
    6.1983   -2.5820    0.0000 H   0  0  0  0  0  0  0  0  0  0  0  0
    6.9954   -2.5820    0.0000 H   0  0  0  0  0  0  0  0  0  0  0  0
    8.7964   -1.0820    0.0000 H   0  0  0  0  0  0  0  0  0  0  0  0
    9.5934   -1.0820    0.0000 H   0  0  0  0  0  0  0  0  0  0  0  0
   10.9270   -1.2270    0.0000 H   0  0  0  0  0  0  0  0  0  0  0  0
   10.9270    2.0130    0.0000 H   0  0  0  0  0  0  0  0  0  0  0  0
    9.5240    1.2030    0.0000 H   0  0  0  0  0  0  0  0  0  0  0  0
   12.6358    2.6097    0.0000 H   0  0  0  0  0  0  0  0  0  0  0  0
    4.0604   -0.2899    0.0000 H   0  0  0  0  0  0  0  0  0  0  0  0
   14.9284    3.1124    0.0000 H   0  0  0  0  0  0  0  0  0  0  0  0
   14.5317    3.8943    0.0000 H   0  0  0  0  0  0  0  0  0  0  0  0
   13.7497    3.4976    0.0000 H   0  0  0  0  0  0  0  0  0  0  0  0
    1.8966   -2.7015    0.0000 H   0  0  0  0  0  0  0  0  0  0  0  0
    2.4752    0.0441    0.0000 H   0  0  0  0  0  0  0  0  0  0  0  0
    1.3933   -1.1616    0.0000 H   0  0  0  0  0  0  0  0  0  0  0  0
  1  6  1  0  0  0  0
  1 25  1  0  0  0  0
  2 24  2  0  0  0  0
  3 12  1  0  0  0  0
  3 13  1  0  0  0  0
  3 14  1  0  0  0  0
  4 15  1  0  0  0  0
  4 16  1  0  0  0  0
  4 22  1  0  0  0  0
  5  7  1  0  0  0  0
  5 24  1  0  0  0  0
  5 51  1  0  0  0  0
  6 22  2  0  0  0  0
  7  8  1  0  0  0  0
  7  9  1  0  0  0  0
  7 31  1  0  0  0  0
  8 11  1  0  0  0  0
  8 32  1  0  0  0  0
  8 33  1  0  0  0  0
  9 10  2  0  0  0  0
  9 20  1  0  0  0  0
 10 11  1  0  0  0  0
 10 19  1  0  0  0  0
 11 34  1  0  0  0  0
 11 35  1  0  0  0  0
 12 15  1  0  0  0  0
 12 36  1  0  0  0  0
 12 37  1  0  0  0  0
 13 16  1  0  0  0  0
 13 38  1  0  0  0  0
 13 39  1  0  0  0  0
 14 17  1  0  0  0  0
 14 40  1  0  0  0  0
 14 41  1  0  0  0  0
 15 42  1  0  0  0  0
 15 43  1  0  0  0  0
 16 44  1  0  0  0  0
 16 45  1  0  0  0  0
 17 18  1  0  0  0  0
 17 46  1  0  0  0  0
 17 47  1  0  0  0  0
 18 19  2  0  0  0  0
 18 21  1  0  0  0  0
 19 48  1  0  0  0  0
 20 21  2  0  0  0  0
 20 49  1  0  0  0  0
 21 50  1  0  0  0  0
 22 23  1  0  0  0  0
 23 25  1  0  0  0  0
 23 26  2  0  0  0  0
 24 27  1  0  0  0  0
 25 28  2  0  0  0  0
 26 29  1  0  0  0  0
 26 52  1  0  0  0  0
 27 53  1  0  0  0  0
 27 54  1  0  0  0  0
 27 55  1  0  0  0  0
 28 30  1  0  0  0  0
 28 56  1  0  0  0  0
 29 30  2  0  0  0  0
 29 57  1  0  0  0  0
 30 58  1  0  0  0  0
M  END
> <PUBCHEM_COMPOUND_CID>
25032525

> <PUBCHEM_COMPOUND_CANONICALIZED>
1

> <PUBCHEM_CACTVS_COMPLEXITY>
596

> <PUBCHEM_CACTVS_HBOND_ACCEPTOR>
5

> <PUBCHEM_CACTVS_HBOND_DONOR>
1

> <PUBCHEM_CACTVS_ROTATABLE_BOND>
5

> <PUBCHEM_CACTVS_SUBSKEYS>
AAADceB7oABAAAAAAAAAAAAAAAAAAeIAAAA8YIAAAAAAAHgB9AAAHgQQQAAADCjB2gQzsdPAAACsAiNycACDABAhAABJmLgoRJiIYKLAmZGUIAxglgLIyAcQgMAOwAACAAAUAACAAAQAACgAACAACQAAAA==

> <PUBCHEM_IUPAC_OPENEYE_NAME>
N-[5-[2-[4-(1,2-benzothiazol-3-yl)piperazin-1-yl]ethyl]indan-1-yl]acetamide

> <PUBCHEM_IUPAC_CAS_NAME>
N-[5-[2-[4-(1,2-benzothiazol-3-yl)-1-piperazinyl]ethyl]-2,3-dihydro-1H-inden-1-yl]acetamide

> <PUBCHEM_IUPAC_NAME_MARKUP>
<I>N</I>-[5-[2-[4-(1,2-benzothiazol-3-yl)piperazin-1-yl]ethyl]-2,3-dihydro-1<I>H</I>-inden-1-yl]acetamide

> <PUBCHEM_IUPAC_NAME>
N-[5-[2-[4-(1,2-benzothiazol-3-yl)piperazin-1-yl]ethyl]-2,3-dihydro-1H-inden-1-yl]acetamide

> <PUBCHEM_IUPAC_SYSTEMATIC_NAME>
N-[5-[2-[4-(1,2-benzothiazol-3-yl)piperazin-1-yl]ethyl]-2,3-dihydro-1H-inden-1-yl]ethanamide

> <PUBCHEM_IUPAC_TRADITIONAL_NAME>
N-[5-[2-[4-(1,2-benzothiazol-3-yl)piperazino]ethyl]indan-1-yl]acetamide

> <PUBCHEM_IUPAC_INCHI>
InChI=1S/C24H28N4OS/c1-17(29)25-22-9-7-19-16-18(6-8-20(19)22)10-11-27-12-14-28(15-13-27)24-21-4-2-3-5-23(21)30-26-24/h2-6,8,16,22H,7,9-15H2,1H3,(H,25,29)

> <PUBCHEM_IUPAC_INCHIKEY>
IKINOGQZTQWAIL-UHFFFAOYSA-N

> <PUBCHEM_XLOGP3_AA>
4.1

> <PUBCHEM_EXACT_MASS>
420.19838270

> <PUBCHEM_MOLECULAR_FORMULA>
C24H28N4OS

> <PUBCHEM_MOLECULAR_WEIGHT>
420.6

> <PUBCHEM_OPENEYE_CAN_SMILES>
CC(=O)NC1CCC2=C1C=CC(=C2)CCN3CCN(CC3)C4=NSC5=CC=CC=C54

> <PUBCHEM_OPENEYE_ISO_SMILES>
CC(=O)NC1CCC2=C1C=CC(=C2)CCN3CCN(CC3)C4=NSC5=CC=CC=C54

> <PUBCHEM_CACTVS_TPSA>
76.7

> <PUBCHEM_MONOISOTOPIC_WEIGHT>
420.19838270

> <PUBCHEM_TOTAL_CHARGE>
0

> <PUBCHEM_HEAVY_ATOM_COUNT>
30

> <PUBCHEM_ATOM_DEF_STEREO_COUNT>
0

> <PUBCHEM_ATOM_UDEF_STEREO_COUNT>
1

> <PUBCHEM_BOND_DEF_STEREO_COUNT>
0

> <PUBCHEM_BOND_UDEF_STEREO_COUNT>
0

> <PUBCHEM_ISOTOPIC_ATOM_COUNT>
0

> <PUBCHEM_COMPONENT_COUNT>
1

> <PUBCHEM_CACTVS_TAUTO_COUNT>
-1

> <PUBCHEM_COORDINATE_TYPE>
1
5
255

> <PUBCHEM_BONDANNOTATIONS>
1  25  8
1  6  8
10  19  8
18  19  8
18  21  8
20  21  8
22  23  8
23  25  8
23  26  8
25  28  8
26  29  8
28  30  8
29  30  8
7  5  3
6  22  8
9  10  8
9  20  8

$$$$
