156012433
  -OEChem-09292322422D

 42 45  0     1  0  0  0  0  0999 V2000
    5.5103    1.4936    0.0000 O   0  0  0  0  0  0  0  0  0  0  0  0
    7.2762    2.5314    0.0000 O   0  0  0  0  0  0  0  0  0  0  0  0
    2.0000   -0.5104    0.0000 O   0  5  0  0  0  0  0  0  0  0  0  0
    2.8718    0.9863    0.0000 O   0  0  0  0  0  0  0  0  0  0  0  0
    8.1223   -2.0348    0.0000 N   0  0  3  0  0  0  0  0  0  0  0  0
    2.8680   -0.0137    0.0000 N   0  3  0  0  0  0  0  0  0  0  0  0
    7.2641   -1.5378    0.0000 C   0  0  3  0  0  0  0  0  0  0  0  0
    7.2641   -0.5378    0.0000 C   0  0  0  0  0  0  0  0  0  0  0  0
    6.3981   -2.0378    0.0000 C   0  0  0  0  0  0  0  0  0  0  0  0
    8.1741   -0.0310    0.0000 C   0  0  0  0  0  0  0  0  0  0  0  0
    8.9878   -1.5506    0.0000 C   0  0  0  0  0  0  0  0  0  0  0  0
    6.3981   -0.0378    0.0000 C   0  0  0  0  0  0  0  0  0  0  0  0
    9.0134   -0.5592    0.0000 C   0  0  0  0  0  0  0  0  0  0  0  0
    5.5320   -1.5378    0.0000 C   0  0  0  0  0  0  0  0  0  0  0  0
    5.5320   -0.5378    0.0000 C   0  0  0  0  0  0  0  0  0  0  0  0
    8.1821    1.0106    0.0000 C   0  0  0  0  0  0  0  0  0  0  0  0
    6.3820    1.0037    0.0000 C   0  0  0  0  0  0  0  0  0  0  0  0
    8.1149   -3.0348    0.0000 C   0  0  0  0  0  0  0  0  0  0  0  0
    7.2800    1.5314    0.0000 C   0  0  0  0  0  0  0  0  0  0  0  0
    4.6381   -2.0725    0.0000 C   0  0  0  0  0  0  0  0  0  0  0  0
    4.6381   -0.0032    0.0000 C   0  0  0  0  0  0  0  0  0  0  0  0
    3.7320   -0.5170    0.0000 C   0  0  0  0  0  0  0  0  0  0  0  0
    3.7320   -1.5587    0.0000 C   0  0  0  0  0  0  0  0  0  0  0  0
    8.1403    3.0348    0.0000 C   0  0  0  0  0  0  0  0  0  0  0  0
    7.2637   -2.1578    0.0000 H   0  0  0  0  0  0  0  0  0  0  0  0
    5.9995   -2.5128    0.0000 H   0  0  0  0  0  0  0  0  0  0  0  0
    6.7966   -2.5128    0.0000 H   0  0  0  0  0  0  0  0  0  0  0  0
    9.1895   -2.1369    0.0000 H   0  0  0  0  0  0  0  0  0  0  0  0
    9.6006   -1.4562    0.0000 H   0  0  0  0  0  0  0  0  0  0  0  0
    9.6205   -0.6851    0.0000 H   0  0  0  0  0  0  0  0  0  0  0  0
    9.2452    0.0158    0.0000 H   0  0  0  0  0  0  0  0  0  0  0  0
    8.7203    1.3185    0.0000 H   0  0  0  0  0  0  0  0  0  0  0  0
    7.4949   -3.0302    0.0000 H   0  0  0  0  0  0  0  0  0  0  0  0
    8.1103   -3.6547    0.0000 H   0  0  0  0  0  0  0  0  0  0  0  0
    8.7349   -3.0393    0.0000 H   0  0  0  0  0  0  0  0  0  0  0  0
    4.6453   -2.6925    0.0000 H   0  0  0  0  0  0  0  0  0  0  0  0
    4.6453    0.6168    0.0000 H   0  0  0  0  0  0  0  0  0  0  0  0
    3.1963   -1.8707    0.0000 H   0  0  0  0  0  0  0  0  0  0  0  0
    5.5031    2.1136    0.0000 H   0  0  0  0  0  0  0  0  0  0  0  0
    8.4523    2.4990    0.0000 H   0  0  0  0  0  0  0  0  0  0  0  0
    8.6760    3.3468    0.0000 H   0  0  0  0  0  0  0  0  0  0  0  0
    7.8282    3.5705    0.0000 H   0  0  0  0  0  0  0  0  0  0  0  0
  1 17  1  0  0  0  0
  1 39  1  0  0  0  0
  2 19  1  0  0  0  0
  2 24  1  0  0  0  0
  3  6  1  0  0  0  0
  4  6  2  0  0  0  0
  5  7  1  0  0  0  0
  5 11  1  0  0  0  0
  5 18  1  0  0  0  0
  6 22  1  0  0  0  0
  7  8  1  0  0  0  0
  7  9  1  0  0  0  0
  7 25  1  0  0  0  0
  8 10  1  0  0  0  0
  8 12  2  0  0  0  0
  9 14  1  0  0  0  0
  9 26  1  0  0  0  0
  9 27  1  0  0  0  0
 10 13  1  0  0  0  0
 10 16  2  0  0  0  0
 11 13  1  0  0  0  0
 11 28  1  0  0  0  0
 11 29  1  0  0  0  0
 12 15  1  0  0  0  0
 12 17  1  0  0  0  0
 13 30  1  0  0  0  0
 13 31  1  0  0  0  0
 14 15  2  0  0  0  0
 14 20  1  0  0  0  0
 15 21  1  0  0  0  0
 16 19  1  0  0  0  0
 16 32  1  0  0  0  0
 17 19  2  0  0  0  0
 18 33  1  0  0  0  0
 18 34  1  0  0  0  0
 18 35  1  0  0  0  0
 20 23  2  0  0  0  0
 20 36  1  0  0  0  0
 21 22  2  0  0  0  0
 21 37  1  0  0  0  0
 22 23  1  0  0  0  0
 23 38  1  0  0  0  0
 24 40  1  0  0  0  0
 24 41  1  0  0  0  0
 24 42  1  0  0  0  0
M  CHG  2   3  -1   6   1
M  END
> <PUBCHEM_COMPOUND_CID>
156012433

> <PUBCHEM_COMPOUND_CANONICALIZED>
1

> <PUBCHEM_CACTVS_COMPLEXITY>
496

> <PUBCHEM_CACTVS_HBOND_ACCEPTOR>
5

> <PUBCHEM_CACTVS_HBOND_DONOR>
1

> <PUBCHEM_CACTVS_ROTATABLE_BOND>
1

> <PUBCHEM_CACTVS_SUBSKEYS>
AAADceB7OAAAAAAAAAAAAAAAAAAAAAAAAAA8YMEAAAAAAADxQAAAHgAECAAADCzBmAYyxoMQRgCBAiRCQwCCCAAgIgAoiAAO7IoNJiKGsZuEcCtkwBGL+Aew0PMOqAADQAAYQADQAAaAADSAAAAAAAAAAA==

> <PUBCHEM_IUPAC_OPENEYE_NAME>
2-methoxy-6-methyl-10-nitro-5,6,6a,7-tetrahydro-4H-dibenzo[de,g]quinolin-1-ol

> <PUBCHEM_IUPAC_CAS_NAME>
2-methoxy-6-methyl-10-nitro-5,6,6a,7-tetrahydro-4H-dibenzo[de,g]quinolin-1-ol

> <PUBCHEM_IUPAC_NAME_MARKUP>
2-methoxy-6-methyl-10-nitro-5,6,6<I>a</I>,7-tetrahydro-4<I>H</I>-dibenzo[de,g]quinolin-1-ol

> <PUBCHEM_IUPAC_NAME>
2-methoxy-6-methyl-10-nitro-5,6,6a,7-tetrahydro-4H-dibenzo[de,g]quinolin-1-ol

> <PUBCHEM_IUPAC_SYSTEMATIC_NAME>
2-methoxy-6-methyl-10-nitro-5,6,6a,7-tetrahydro-4H-dibenzo[de,g]quinolin-1-ol

> <PUBCHEM_IUPAC_TRADITIONAL_NAME>
2-methoxy-6-methyl-10-nitro-5,6,6a,7-tetrahydro-4H-dibenzo[de,g]quinolin-1-ol

> <PUBCHEM_IUPAC_INCHI>
InChI=1S/C18H18N2O4/c1-19-6-5-11-8-15(24-2)18(21)17-13-9-12(20(22)23)4-3-10(13)7-14(19)16(11)17/h3-4,8-9,14,21H,5-7H2,1-2H3

> <PUBCHEM_IUPAC_INCHIKEY>
COEIYPFBVNMGKP-UHFFFAOYSA-N

> <PUBCHEM_XLOGP3>
2.5

> <PUBCHEM_EXACT_MASS>
326.12665706

> <PUBCHEM_MOLECULAR_FORMULA>
C18H18N2O4

> <PUBCHEM_MOLECULAR_WEIGHT>
326.3

> <PUBCHEM_OPENEYE_CAN_SMILES>
CN1CCC2=CC(=C(C3=C2C1CC4=C3C=C(C=C4)[N+](=O)[O-])O)OC

> <PUBCHEM_OPENEYE_ISO_SMILES>
CN1CCC2=CC(=C(C3=C2C1CC4=C3C=C(C=C4)[N+](=O)[O-])O)OC

> <PUBCHEM_CACTVS_TPSA>
78.5

> <PUBCHEM_MONOISOTOPIC_WEIGHT>
326.12665706

> <PUBCHEM_TOTAL_CHARGE>
0

> <PUBCHEM_HEAVY_ATOM_COUNT>
24

> <PUBCHEM_ATOM_DEF_STEREO_COUNT>
0

> <PUBCHEM_ATOM_UDEF_STEREO_COUNT>
1

> <PUBCHEM_BOND_DEF_STEREO_COUNT>
0

> <PUBCHEM_BOND_UDEF_STEREO_COUNT>
0

> <PUBCHEM_ISOTOPIC_ATOM_COUNT>
0

> <PUBCHEM_COMPONENT_COUNT>
1

> <PUBCHEM_CACTVS_TAUTO_COUNT>
-1

> <PUBCHEM_COORDINATE_TYPE>
1
5
255

> <PUBCHEM_BONDANNOTATIONS>
10  16  8
12  17  8
14  15  8
14  20  8
15  21  8
16  19  8
17  19  8
20  23  8
21  22  8
22  23  8
7  9  3
8  10  8
8  12  8

$$$$
