44336571
  -OEChem-09292322502D

 44 46  0     0  0  0  0  0  0999 V2000
    4.5981   -2.4397    0.0000 N   0  0  0  0  0  0  0  0  0  0  0  0
    4.5981    0.5603    0.0000 N   0  0  0  0  0  0  0  0  0  0  0  0
    6.4547    5.4397    0.0000 N   0  0  0  0  0  0  0  0  0  0  0  0
    3.2901    4.0307    0.0000 N   0  0  0  0  0  0  0  0  0  0  0  0
    4.5981   -0.4397    0.0000 C   0  0  0  0  0  0  0  0  0  0  0  0
    3.7320   -0.9397    0.0000 C   0  0  0  0  0  0  0  0  0  0  0  0
    5.4641   -0.9397    0.0000 C   0  0  0  0  0  0  0  0  0  0  0  0
    3.7320   -1.9397    0.0000 C   0  0  0  0  0  0  0  0  0  0  0  0
    5.4641   -1.9397    0.0000 C   0  0  0  0  0  0  0  0  0  0  0  0
    4.5981   -3.4397    0.0000 C   0  0  0  0  0  0  0  0  0  0  0  0
    5.4071    1.1481    0.0000 C   0  0  0  0  0  0  0  0  0  0  0  0
    3.7891    1.1481    0.0000 C   0  0  0  0  0  0  0  0  0  0  0  0
    3.7320   -3.9397    0.0000 C   0  0  0  0  0  0  0  0  0  0  0  0
    5.0981    2.0991    0.0000 C   0  0  0  0  0  0  0  0  0  0  0  0
    4.0981    2.0991    0.0000 C   0  0  0  0  0  0  0  0  0  0  0  0
    2.8660   -3.4397    0.0000 C   0  0  0  0  0  0  0  0  0  0  0  0
    3.7320   -4.9397    0.0000 C   0  0  0  0  0  0  0  0  0  0  0  0
    5.6859    2.9081    0.0000 C   0  0  0  0  0  0  0  0  0  0  0  0
    2.0000   -3.9397    0.0000 C   0  0  0  0  0  0  0  0  0  0  0  0
    2.8660   -5.4397    0.0000 C   0  0  0  0  0  0  0  0  0  0  0  0
    2.0000   -4.9397    0.0000 C   0  0  0  0  0  0  0  0  0  0  0  0
    5.2791    3.8217    0.0000 C   0  0  0  0  0  0  0  0  0  0  0  0
    5.8669    4.6307    0.0000 C   0  0  0  0  0  0  0  0  0  0  0  0
    4.2846    3.9262    0.0000 C   0  0  0  0  0  0  0  0  0  0  0  0
    5.1350   -0.1297    0.0000 H   0  0  0  0  0  0  0  0  0  0  0  0
    3.5200   -0.3571    0.0000 H   0  0  0  0  0  0  0  0  0  0  0  0
    3.1215   -1.0474    0.0000 H   0  0  0  0  0  0  0  0  0  0  0  0
    6.0747   -1.0474    0.0000 H   0  0  0  0  0  0  0  0  0  0  0  0
    5.6762   -0.3571    0.0000 H   0  0  0  0  0  0  0  0  0  0  0  0
    3.1215   -1.8321    0.0000 H   0  0  0  0  0  0  0  0  0  0  0  0
    3.5200   -2.5223    0.0000 H   0  0  0  0  0  0  0  0  0  0  0  0
    5.6762   -2.5223    0.0000 H   0  0  0  0  0  0  0  0  0  0  0  0
    6.0747   -1.8321    0.0000 H   0  0  0  0  0  0  0  0  0  0  0  0
    4.8101   -4.0223    0.0000 H   0  0  0  0  0  0  0  0  0  0  0  0
    5.2087   -3.3321    0.0000 H   0  0  0  0  0  0  0  0  0  0  0  0
    5.9967    0.9565    0.0000 H   0  0  0  0  0  0  0  0  0  0  0  0
    3.1994    0.9565    0.0000 H   0  0  0  0  0  0  0  0  0  0  0  0
    3.7336    2.6007    0.0000 H   0  0  0  0  0  0  0  0  0  0  0  0
    2.8660   -2.8197    0.0000 H   0  0  0  0  0  0  0  0  0  0  0  0
    4.2690   -5.2497    0.0000 H   0  0  0  0  0  0  0  0  0  0  0  0
    6.3025    2.8433    0.0000 H   0  0  0  0  0  0  0  0  0  0  0  0
    1.4631   -3.6297    0.0000 H   0  0  0  0  0  0  0  0  0  0  0  0
    2.8660   -6.0597    0.0000 H   0  0  0  0  0  0  0  0  0  0  0  0
    1.4631   -5.2497    0.0000 H   0  0  0  0  0  0  0  0  0  0  0  0
  1  8  1  0  0  0  0
  1  9  1  0  0  0  0
  1 10  1  0  0  0  0
  2  5  1  0  0  0  0
  2 11  1  0  0  0  0
  2 12  1  0  0  0  0
  3 23  3  0  0  0  0
  4 24  3  0  0  0  0
  5  6  1  0  0  0  0
  5  7  1  0  0  0  0
  5 25  1  0  0  0  0
  6  8  1  0  0  0  0
  6 26  1  0  0  0  0
  6 27  1  0  0  0  0
  7  9  1  0  0  0  0
  7 28  1  0  0  0  0
  7 29  1  0  0  0  0
  8 30  1  0  0  0  0
  8 31  1  0  0  0  0
  9 32  1  0  0  0  0
  9 33  1  0  0  0  0
 10 13  1  0  0  0  0
 10 34  1  0  0  0  0
 10 35  1  0  0  0  0
 11 14  2  0  0  0  0
 11 36  1  0  0  0  0
 12 15  2  0  0  0  0
 12 37  1  0  0  0  0
 13 16  2  0  0  0  0
 13 17  1  0  0  0  0
 14 15  1  0  0  0  0
 14 18  1  0  0  0  0
 15 38  1  0  0  0  0
 16 19  1  0  0  0  0
 16 39  1  0  0  0  0
 17 20  2  0  0  0  0
 17 40  1  0  0  0  0
 18 22  2  0  0  0  0
 18 41  1  0  0  0  0
 19 21  2  0  0  0  0
 19 42  1  0  0  0  0
 20 21  1  0  0  0  0
 20 43  1  0  0  0  0
 21 44  1  0  0  0  0
 22 23  1  0  0  0  0
 22 24  1  0  0  0  0
M  END
> <PUBCHEM_COMPOUND_CID>
44336571

> <PUBCHEM_COMPOUND_CANONICALIZED>
1

> <PUBCHEM_CACTVS_COMPLEXITY>
517

> <PUBCHEM_CACTVS_HBOND_ACCEPTOR>
3

> <PUBCHEM_CACTVS_HBOND_DONOR>
0

> <PUBCHEM_CACTVS_ROTATABLE_BOND>
4

> <PUBCHEM_CACTVS_SUBSKEYS>
AAADceB7gAAAAAAAAAAAAAAAAAAAAWAAAAA8QAAAAAAAAAABwAAAHAAAAAAADCjBGgQ8gJMMEACwBjBnRACigCAxAiAI2CA4ZJgIoOLA0ZGEIAhggADIyAcQgAAOAAAAAAAAAAAAAAAAAAAAAAAAAAAAAA==

> <PUBCHEM_IUPAC_OPENEYE_NAME>
2-[[1-(1-benzyl-4-piperidyl)pyrrol-3-yl]methylene]propanedinitrile

> <PUBCHEM_IUPAC_CAS_NAME>
2-[[1-[1-(phenylmethyl)-4-piperidinyl]-3-pyrrolyl]methylidene]propanedinitrile

> <PUBCHEM_IUPAC_NAME_MARKUP>
2-[[1-(1-benzylpiperidin-4-yl)pyrrol-3-yl]methylidene]propanedinitrile

> <PUBCHEM_IUPAC_NAME>
2-[[1-(1-benzylpiperidin-4-yl)pyrrol-3-yl]methylidene]propanedinitrile

> <PUBCHEM_IUPAC_SYSTEMATIC_NAME>
2-[[1-[1-(phenylmethyl)piperidin-4-yl]pyrrol-3-yl]methylidene]propanedinitrile

> <PUBCHEM_IUPAC_TRADITIONAL_NAME>
2-[[1-(1-benzyl-4-piperidyl)pyrrol-3-yl]methylene]malononitrile

> <PUBCHEM_IUPAC_INCHI>
InChI=1S/C20H20N4/c21-13-19(14-22)12-18-6-11-24(16-18)20-7-9-23(10-8-20)15-17-4-2-1-3-5-17/h1-6,11-12,16,20H,7-10,15H2

> <PUBCHEM_IUPAC_INCHIKEY>
BUGYAANIQPCORQ-UHFFFAOYSA-N

> <PUBCHEM_XLOGP3_AA>
2.7

> <PUBCHEM_EXACT_MASS>
316.16879665

> <PUBCHEM_MOLECULAR_FORMULA>
C20H20N4

> <PUBCHEM_MOLECULAR_WEIGHT>
316.4

> <PUBCHEM_OPENEYE_CAN_SMILES>
C1CN(CCC1N2C=CC(=C2)C=C(C#N)C#N)CC3=CC=CC=C3

> <PUBCHEM_OPENEYE_ISO_SMILES>
C1CN(CCC1N2C=CC(=C2)C=C(C#N)C#N)CC3=CC=CC=C3

> <PUBCHEM_CACTVS_TPSA>
55.8

> <PUBCHEM_MONOISOTOPIC_WEIGHT>
316.16879665

> <PUBCHEM_TOTAL_CHARGE>
0

> <PUBCHEM_HEAVY_ATOM_COUNT>
24

> <PUBCHEM_ATOM_DEF_STEREO_COUNT>
0

> <PUBCHEM_ATOM_UDEF_STEREO_COUNT>
0

> <PUBCHEM_BOND_DEF_STEREO_COUNT>
0

> <PUBCHEM_BOND_UDEF_STEREO_COUNT>
0

> <PUBCHEM_ISOTOPIC_ATOM_COUNT>
0

> <PUBCHEM_COMPONENT_COUNT>
1

> <PUBCHEM_CACTVS_TAUTO_COUNT>
-1

> <PUBCHEM_COORDINATE_TYPE>
1
5
255

> <PUBCHEM_BONDANNOTATIONS>
11  14  8
12  15  8
13  16  8
13  17  8
14  15  8
16  19  8
17  20  8
19  21  8
2  11  8
2  12  8
20  21  8

$$$$
