162658416
  -OEChem-09292322422D

 65 68  0     1  0  0  0  0  0999 V2000
   15.8547    2.1400    0.0000 Cl  0  0  0  0  0  0  0  0  0  0  0  0
    5.5000   -1.4822    0.0000 O   0  0  0  0  0  0  0  0  0  0  0  0
   11.0000    1.1158    0.0000 N   0  0  3  0  0  0  0  0  0  0  0  0
    5.5000    0.2498    0.0000 N   0  0  0  0  0  0  0  0  0  0  0  0
    4.0000   -0.6162    0.0000 N   0  0  0  0  0  0  0  0  0  0  0  0
    8.5000    0.2498    0.0000 C   0  0  0  0  0  0  0  0  0  0  0  0
    8.0000   -0.6162    0.0000 C   0  0  0  0  0  0  0  0  0  0  0  0
    8.0000    1.1158    0.0000 C   0  0  0  0  0  0  0  0  0  0  0  0
    6.5000    0.2498    0.0000 C   0  0  0  0  0  0  0  0  0  0  0  0
    7.0000   -0.6162    0.0000 C   0  0  0  0  0  0  0  0  0  0  0  0
    7.0000    1.1158    0.0000 C   0  0  0  0  0  0  0  0  0  0  0  0
    9.5000    0.2498    0.0000 C   0  0  0  0  0  0  0  0  0  0  0  0
   10.0000    1.1158    0.0000 C   0  0  0  0  0  0  0  0  0  0  0  0
   11.4339    2.0168    0.0000 C   0  0  0  0  0  0  0  0  0  0  0  0
   11.4339    0.2149    0.0000 C   0  0  0  0  0  0  0  0  0  0  0  0
   12.4088    2.2393    0.0000 C   0  0  1  0  0  0  0  0  0  0  0  0
   12.4088   -0.0076    0.0000 C   0  0  0  0  0  0  0  0  0  0  0  0
   13.1906    1.6158    0.0000 C   0  0  0  0  0  0  0  0  0  0  0  0
   13.1906    0.6159    0.0000 C   0  0  0  0  0  0  0  0  0  0  0  0
   12.6313    3.2143    0.0000 C   0  0  0  0  0  0  0  0  0  0  0  0
    5.0000   -0.6162    0.0000 C   0  0  0  0  0  0  0  0  0  0  0  0
   14.0846    2.1505    0.0000 C   0  0  0  0  0  0  0  0  0  0  0  0
   14.0846    0.0812    0.0000 C   0  0  0  0  0  0  0  0  0  0  0  0
   14.9907    1.6367    0.0000 C   0  0  0  0  0  0  0  0  0  0  0  0
   14.9907    0.5950    0.0000 C   0  0  0  0  0  0  0  0  0  0  0  0
    3.5000   -1.4822    0.0000 C   0  0  0  0  0  0  0  0  0  0  0  0
    4.0000   -2.3482    0.0000 C   0  0  0  0  0  0  0  0  0  0  0  0
    2.5000   -1.4822    0.0000 C   0  0  0  0  0  0  0  0  0  0  0  0
    3.5000   -3.2143    0.0000 C   0  0  0  0  0  0  0  0  0  0  0  0
    2.0000   -2.3482    0.0000 C   0  0  0  0  0  0  0  0  0  0  0  0
    2.5000   -3.2143    0.0000 C   0  0  0  0  0  0  0  0  0  0  0  0
    8.8100   -0.2871    0.0000 H   0  0  0  0  0  0  0  0  0  0  0  0
    7.8923   -1.2268    0.0000 H   0  0  0  0  0  0  0  0  0  0  0  0
    8.5826   -0.8282    0.0000 H   0  0  0  0  0  0  0  0  0  0  0  0
    8.5826    1.3279    0.0000 H   0  0  0  0  0  0  0  0  0  0  0  0
    7.8923    1.7264    0.0000 H   0  0  0  0  0  0  0  0  0  0  0  0
    6.1900   -0.2871    0.0000 H   0  0  0  0  0  0  0  0  0  0  0  0
    6.4174   -0.8282    0.0000 H   0  0  0  0  0  0  0  0  0  0  0  0
    7.1077   -1.2268    0.0000 H   0  0  0  0  0  0  0  0  0  0  0  0
    7.1077    1.7264    0.0000 H   0  0  0  0  0  0  0  0  0  0  0  0
    6.4174    1.3279    0.0000 H   0  0  0  0  0  0  0  0  0  0  0  0
    9.3923   -0.3608    0.0000 H   0  0  0  0  0  0  0  0  0  0  0  0
   10.0826    0.0378    0.0000 H   0  0  0  0  0  0  0  0  0  0  0  0
   10.1077    1.7264    0.0000 H   0  0  0  0  0  0  0  0  0  0  0  0
    9.4174    1.3279    0.0000 H   0  0  0  0  0  0  0  0  0  0  0  0
   11.4339    2.6368    0.0000 H   0  0  0  0  0  0  0  0  0  0  0  0
   10.8294    2.1548    0.0000 H   0  0  0  0  0  0  0  0  0  0  0  0
   10.8294    0.0769    0.0000 H   0  0  0  0  0  0  0  0  0  0  0  0
   11.4339   -0.4051    0.0000 H   0  0  0  0  0  0  0  0  0  0  0  0
   12.9940    2.4441    0.0000 H   0  0  0  0  0  0  0  0  0  0  0  0
    5.1900    0.7868    0.0000 H   0  0  0  0  0  0  0  0  0  0  0  0
   12.1398   -0.5662    0.0000 H   0  0  0  0  0  0  0  0  0  0  0  0
   12.8935   -0.3942    0.0000 H   0  0  0  0  0  0  0  0  0  0  0  0
   13.2358    3.0763    0.0000 H   0  0  0  0  0  0  0  0  0  0  0  0
   12.7693    3.8187    0.0000 H   0  0  0  0  0  0  0  0  0  0  0  0
   12.0269    3.3522    0.0000 H   0  0  0  0  0  0  0  0  0  0  0  0
   14.0774    2.7705    0.0000 H   0  0  0  0  0  0  0  0  0  0  0  0
   14.0774   -0.5388    0.0000 H   0  0  0  0  0  0  0  0  0  0  0  0
   15.5264    0.2830    0.0000 H   0  0  0  0  0  0  0  0  0  0  0  0
    3.6900   -0.0793    0.0000 H   0  0  0  0  0  0  0  0  0  0  0  0
    4.6200   -2.3482    0.0000 H   0  0  0  0  0  0  0  0  0  0  0  0
    2.1900   -0.9453    0.0000 H   0  0  0  0  0  0  0  0  0  0  0  0
    3.8100   -3.7512    0.0000 H   0  0  0  0  0  0  0  0  0  0  0  0
    1.3800   -2.3482    0.0000 H   0  0  0  0  0  0  0  0  0  0  0  0
    2.1900   -3.7512    0.0000 H   0  0  0  0  0  0  0  0  0  0  0  0
  1 24  1  0  0  0  0
  2 21  2  0  0  0  0
  3 13  1  0  0  0  0
  3 14  1  0  0  0  0
  3 15  1  0  0  0  0
  4  9  1  0  0  0  0
  4 21  1  0  0  0  0
  4 51  1  0  0  0  0
  5 21  1  0  0  0  0
  5 26  1  0  0  0  0
  5 60  1  0  0  0  0
  6  7  1  0  0  0  0
  6  8  1  0  0  0  0
  6 12  1  0  0  0  0
  6 32  1  0  0  0  0
  7 10  1  0  0  0  0
  7 33  1  0  0  0  0
  7 34  1  0  0  0  0
  8 11  1  0  0  0  0
  8 35  1  0  0  0  0
  8 36  1  0  0  0  0
  9 10  1  0  0  0  0
  9 11  1  0  0  0  0
  9 37  1  0  0  0  0
 10 38  1  0  0  0  0
 10 39  1  0  0  0  0
 11 40  1  0  0  0  0
 11 41  1  0  0  0  0
 12 13  1  0  0  0  0
 12 42  1  0  0  0  0
 12 43  1  0  0  0  0
 13 44  1  0  0  0  0
 13 45  1  0  0  0  0
 14 16  1  0  0  0  0
 14 46  1  0  0  0  0
 14 47  1  0  0  0  0
 15 17  1  0  0  0  0
 15 48  1  0  0  0  0
 15 49  1  0  0  0  0
 16 18  1  0  0  0  0
 16 20  1  6  0  0  0
 16 50  1  0  0  0  0
 17 19  1  0  0  0  0
 17 52  1  0  0  0  0
 17 53  1  0  0  0  0
 18 19  2  0  0  0  0
 18 22  1  0  0  0  0
 19 23  1  0  0  0  0
 20 54  1  0  0  0  0
 20 55  1  0  0  0  0
 20 56  1  0  0  0  0
 22 24  2  0  0  0  0
 22 57  1  0  0  0  0
 23 25  2  0  0  0  0
 23 58  1  0  0  0  0
 24 25  1  0  0  0  0
 25 59  1  0  0  0  0
 26 27  2  0  0  0  0
 26 28  1  0  0  0  0
 27 29  1  0  0  0  0
 27 61  1  0  0  0  0
 28 30  2  0  0  0  0
 28 62  1  0  0  0  0
 29 31  2  0  0  0  0
 29 63  1  0  0  0  0
 30 31  1  0  0  0  0
 30 64  1  0  0  0  0
 31 65  1  0  0  0  0
M  END
> <PUBCHEM_COMPOUND_CID>
162658416

> <PUBCHEM_COMPOUND_CANONICALIZED>
1

> <PUBCHEM_CACTVS_COMPLEXITY>
559

> <PUBCHEM_CACTVS_HBOND_ACCEPTOR>
2

> <PUBCHEM_CACTVS_HBOND_DONOR>
2

> <PUBCHEM_CACTVS_ROTATABLE_BOND>
5

> <PUBCHEM_CACTVS_SUBSKEYS>
AAADcfB7IAAEAAAAAAAAAAAAAAAAAAAAAAAwYMAABYAAAAABQAAAHgIQAAAADSrBGCQzwIPAAACIAiRCUACCAAAhBwAIiIAIZoiIICLBk5GEIAholgLIyCcQgMAOhAAAIAAQAAAYAABAACAAAAAAAAAAAA==

> <PUBCHEM_IUPAC_OPENEYE_NAME>
1-[4-[2-[(5R)-7-chloro-5-methyl-1,2,4,5-tetrahydro-3-benzazepin-3-yl]ethyl]cyclohexyl]-3-phenyl-urea

> <PUBCHEM_IUPAC_CAS_NAME>
1-[4-[2-[(5R)-7-chloro-5-methyl-1,2,4,5-tetrahydro-3-benzazepin-3-yl]ethyl]cyclohexyl]-3-phenylurea

> <PUBCHEM_IUPAC_NAME_MARKUP>
1-[4-[2-[(5<I>R</I>)-7-chloro-5-methyl-1,2,4,5-tetrahydro-3-benzazepin-3-yl]ethyl]cyclohexyl]-3-phenylurea

> <PUBCHEM_IUPAC_NAME>
1-[4-[2-[(5R)-7-chloro-5-methyl-1,2,4,5-tetrahydro-3-benzazepin-3-yl]ethyl]cyclohexyl]-3-phenylurea

> <PUBCHEM_IUPAC_SYSTEMATIC_NAME>
1-[4-[2-[(5R)-7-chloranyl-5-methyl-1,2,4,5-tetrahydro-3-benzazepin-3-yl]ethyl]cyclohexyl]-3-phenyl-urea

> <PUBCHEM_IUPAC_TRADITIONAL_NAME>
1-[4-[2-[(5R)-7-chloro-5-methyl-1,2,4,5-tetrahydro-3-benzazepin-3-yl]ethyl]cyclohexyl]-3-phenyl-urea

> <PUBCHEM_IUPAC_INCHI>
InChI=1S/C26H34ClN3O/c1-19-18-30(16-14-21-9-10-22(27)17-25(19)21)15-13-20-7-11-24(12-8-20)29-26(31)28-23-5-3-2-4-6-23/h2-6,9-10,17,19-20,24H,7-8,11-16,18H2,1H3,(H2,28,29,31)/t19-,20?,24?/m0/s1

> <PUBCHEM_IUPAC_INCHIKEY>
DCIOHCJFMCIMPE-HDJSMCDHSA-N

> <PUBCHEM_XLOGP3_AA>
5.8

> <PUBCHEM_EXACT_MASS>
439.2390404

> <PUBCHEM_MOLECULAR_FORMULA>
C26H34ClN3O

> <PUBCHEM_MOLECULAR_WEIGHT>
440.0

> <PUBCHEM_OPENEYE_CAN_SMILES>
CC1CN(CCC2=C1C=C(C=C2)Cl)CCC3CCC(CC3)NC(=O)NC4=CC=CC=C4

> <PUBCHEM_OPENEYE_ISO_SMILES>
C[C@H]1CN(CCC2=C1C=C(C=C2)Cl)CCC3CCC(CC3)NC(=O)NC4=CC=CC=C4

> <PUBCHEM_CACTVS_TPSA>
44.4

> <PUBCHEM_MONOISOTOPIC_WEIGHT>
439.2390404

> <PUBCHEM_TOTAL_CHARGE>
0

> <PUBCHEM_HEAVY_ATOM_COUNT>
31

> <PUBCHEM_ATOM_DEF_STEREO_COUNT>
1

> <PUBCHEM_ATOM_UDEF_STEREO_COUNT>
0

> <PUBCHEM_BOND_DEF_STEREO_COUNT>
0

> <PUBCHEM_BOND_UDEF_STEREO_COUNT>
0

> <PUBCHEM_ISOTOPIC_ATOM_COUNT>
0

> <PUBCHEM_COMPONENT_COUNT>
1

> <PUBCHEM_CACTVS_TAUTO_COUNT>
-1

> <PUBCHEM_COORDINATE_TYPE>
1
5
255

> <PUBCHEM_BONDANNOTATIONS>
16  20  6
18  19  8
18  22  8
19  23  8
22  24  8
23  25  8
24  25  8
26  27  8
26  28  8
27  29  8
28  30  8
29  31  8
30  31  8

$$$$
