118722109
  -OEChem-09292322072D

 51 54  0     1  0  0  0  0  0999 V2000
    6.6353   -3.5098    0.0000 F   0  0  0  0  0  0  0  0  0  0  0  0
    7.4742    4.6324    0.0000 F   0  0  0  0  0  0  0  0  0  0  0  0
    6.1385    6.1210    0.0000 F   0  0  0  0  0  0  0  0  0  0  0  0
    6.2619   -4.7270    0.0000 O   0  0  0  0  0  0  0  0  0  0  0  0
    3.9174    2.1127    0.0000 O   0  0  0  0  0  0  0  0  0  0  0  0
    5.6103   -1.0707    0.0000 N   0  0  3  0  0  0  0  0  0  0  0  0
    4.6783   -3.9222    0.0000 N   0  0  0  0  0  0  0  0  0  0  0  0
    4.6783   -5.5317    0.0000 N   0  0  0  0  0  0  0  0  0  0  0  0
    5.5637    1.5747    0.0000 N   0  0  0  0  0  0  0  0  0  0  0  0
    4.9889   -2.9717    0.0000 C   0  0  3  0  0  0  0  0  0  0  0  0
    5.9674   -2.7655    0.0000 C   0  0  3  0  0  0  0  0  0  0  0  0
    4.3211   -2.2274    0.0000 C   0  0  0  0  0  0  0  0  0  0  0  0
    6.2781   -1.8150    0.0000 C   0  0  0  0  0  0  0  0  0  0  0  0
    4.6318   -1.2769    0.0000 C   0  0  0  0  0  0  0  0  0  0  0  0
    5.9209   -0.1202    0.0000 C   0  0  0  0  0  0  0  0  0  0  0  0
    3.7320   -4.2270    0.0000 C   0  0  0  0  0  0  0  0  0  0  0  0
    5.2619   -4.7270    0.0000 C   0  0  0  0  0  0  0  0  0  0  0  0
    5.2531    0.6241    0.0000 C   0  0  0  0  0  0  0  0  0  0  0  0
    3.7320   -5.2270    0.0000 C   0  0  0  0  0  0  0  0  0  0  0  0
    2.8660   -3.7270    0.0000 C   0  0  0  0  0  0  0  0  0  0  0  0
    2.8660   -5.7270    0.0000 C   0  0  0  0  0  0  0  0  0  0  0  0
    2.0000   -4.2270    0.0000 C   0  0  0  0  0  0  0  0  0  0  0  0
    2.0000   -5.2270    0.0000 C   0  0  0  0  0  0  0  0  0  0  0  0
    4.8959    2.3190    0.0000 C   0  0  0  0  0  0  0  0  0  0  0  0
    5.2066    3.2695    0.0000 C   0  0  0  0  0  0  0  0  0  0  0  0
    6.1851    3.4757    0.0000 C   0  0  0  0  0  0  0  0  0  0  0  0
    4.5387    4.0138    0.0000 C   0  0  0  0  0  0  0  0  0  0  0  0
    6.4957    4.4262    0.0000 C   0  0  0  0  0  0  0  0  0  0  0  0
    4.8494    4.9643    0.0000 C   0  0  0  0  0  0  0  0  0  0  0  0
    5.8279    5.1705    0.0000 C   0  0  0  0  0  0  0  0  0  0  0  0
    4.3823   -3.0996    0.0000 H   0  0  0  0  0  0  0  0  0  0  0  0
    5.7748   -3.3548    0.0000 H   0  0  0  0  0  0  0  0  0  0  0  0
    3.7742   -1.9354    0.0000 H   0  0  0  0  0  0  0  0  0  0  0  0
    3.9385   -2.7153    0.0000 H   0  0  0  0  0  0  0  0  0  0  0  0
    6.8250   -2.1070    0.0000 H   0  0  0  0  0  0  0  0  0  0  0  0
    6.6607   -1.3271    0.0000 H   0  0  0  0  0  0  0  0  0  0  0  0
    4.6112   -0.6572    0.0000 H   0  0  0  0  0  0  0  0  0  0  0  0
    4.0179   -1.1896    0.0000 H   0  0  0  0  0  0  0  0  0  0  0  0
    6.4678   -0.4122    0.0000 H   0  0  0  0  0  0  0  0  0  0  0  0
    6.3035    0.3677    0.0000 H   0  0  0  0  0  0  0  0  0  0  0  0
    4.7062    0.9162    0.0000 H   0  0  0  0  0  0  0  0  0  0  0  0
    4.8705    0.1362    0.0000 H   0  0  0  0  0  0  0  0  0  0  0  0
    4.8709   -6.1210    0.0000 H   0  0  0  0  0  0  0  0  0  0  0  0
    2.8660   -3.1070    0.0000 H   0  0  0  0  0  0  0  0  0  0  0  0
    2.8660   -6.3470    0.0000 H   0  0  0  0  0  0  0  0  0  0  0  0
    6.1704    1.7025    0.0000 H   0  0  0  0  0  0  0  0  0  0  0  0
    1.4631   -3.9170    0.0000 H   0  0  0  0  0  0  0  0  0  0  0  0
    1.4631   -5.5370    0.0000 H   0  0  0  0  0  0  0  0  0  0  0  0
    6.5991    3.0142    0.0000 H   0  0  0  0  0  0  0  0  0  0  0  0
    3.9320    3.8859    0.0000 H   0  0  0  0  0  0  0  0  0  0  0  0
    4.4353    5.4258    0.0000 H   0  0  0  0  0  0  0  0  0  0  0  0
  1 11  1  0  0  0  0
  2 28  1  0  0  0  0
  3 30  1  0  0  0  0
  4 17  2  0  0  0  0
  5 24  2  0  0  0  0
  6 13  1  0  0  0  0
  6 14  1  0  0  0  0
  6 15  1  0  0  0  0
  7 10  1  0  0  0  0
  7 16  1  0  0  0  0
  7 17  1  0  0  0  0
  8 17  1  0  0  0  0
  8 19  1  0  0  0  0
  8 43  1  0  0  0  0
  9 18  1  0  0  0  0
  9 24  1  0  0  0  0
  9 46  1  0  0  0  0
 10 11  1  0  0  0  0
 10 12  1  0  0  0  0
 10 31  1  0  0  0  0
 11 13  1  0  0  0  0
 11 32  1  0  0  0  0
 12 14  1  0  0  0  0
 12 33  1  0  0  0  0
 12 34  1  0  0  0  0
 13 35  1  0  0  0  0
 13 36  1  0  0  0  0
 14 37  1  0  0  0  0
 14 38  1  0  0  0  0
 15 18  1  0  0  0  0
 15 39  1  0  0  0  0
 15 40  1  0  0  0  0
 16 19  1  0  0  0  0
 16 20  2  0  0  0  0
 18 41  1  0  0  0  0
 18 42  1  0  0  0  0
 19 21  2  0  0  0  0
 20 22  1  0  0  0  0
 20 44  1  0  0  0  0
 21 23  1  0  0  0  0
 21 45  1  0  0  0  0
 22 23  2  0  0  0  0
 22 47  1  0  0  0  0
 23 48  1  0  0  0  0
 24 25  1  0  0  0  0
 25 26  2  0  0  0  0
 25 27  1  0  0  0  0
 26 28  1  0  0  0  0
 26 49  1  0  0  0  0
 27 29  2  0  0  0  0
 27 50  1  0  0  0  0
 28 30  2  0  0  0  0
 29 30  1  0  0  0  0
 29 51  1  0  0  0  0
M  END
> <PUBCHEM_COMPOUND_CID>
118722109

> <PUBCHEM_COMPOUND_CANONICALIZED>
1

> <PUBCHEM_CACTVS_COMPLEXITY>
639

> <PUBCHEM_CACTVS_HBOND_ACCEPTOR>
6

> <PUBCHEM_CACTVS_HBOND_DONOR>
2

> <PUBCHEM_CACTVS_ROTATABLE_BOND>
5

> <PUBCHEM_CACTVS_SUBSKEYS>
AAADceB7sYAAAAAAAAAAAAAAAAAAAWAAAAA8YIAAAAAAAFgBQAAAHwAQAAAADCjBmAwxwIPAAACIAiVSUACCAAAlAgAIiIEIdMiIYDLA1ZGUIQholgLIyacYiACOAAAAAAAAACAAAAAAAAAAQAAAAAAAAA==

> <PUBCHEM_IUPAC_OPENEYE_NAME>
3,4-difluoro-N-[2-[3-fluoro-4-(2-oxo-3H-benzimidazol-1-yl)-1-piperidyl]ethyl]benzamide

> <PUBCHEM_IUPAC_CAS_NAME>
3,4-difluoro-N-[2-[3-fluoro-4-(2-oxo-3H-benzimidazol-1-yl)-1-piperidinyl]ethyl]benzamide

> <PUBCHEM_IUPAC_NAME_MARKUP>
3,4-difluoro-<I>N</I>-[2-[3-fluoro-4-(2-oxo-3<I>H</I>-benzimidazol-1-yl)piperidin-1-yl]ethyl]benzamide

> <PUBCHEM_IUPAC_NAME>
3,4-difluoro-N-[2-[3-fluoro-4-(2-oxo-3H-benzimidazol-1-yl)piperidin-1-yl]ethyl]benzamide

> <PUBCHEM_IUPAC_SYSTEMATIC_NAME>
3,4-bis(fluoranyl)-N-[2-[3-fluoranyl-4-(2-oxidanylidene-3H-benzimidazol-1-yl)piperidin-1-yl]ethyl]benzamide

> <PUBCHEM_IUPAC_TRADITIONAL_NAME>
3,4-difluoro-N-[2-[3-fluoro-4-(2-keto-3H-benzimidazol-1-yl)piperidino]ethyl]benzamide

> <PUBCHEM_IUPAC_INCHI>
InChI=1S/C21H21F3N4O2/c22-14-6-5-13(11-15(14)23)20(29)25-8-10-27-9-7-18(16(24)12-27)28-19-4-2-1-3-17(19)26-21(28)30/h1-6,11,16,18H,7-10,12H2,(H,25,29)(H,26,30)

> <PUBCHEM_IUPAC_INCHIKEY>
AQTISJBZVLTTCT-UHFFFAOYSA-N

> <PUBCHEM_XLOGP3_AA>
2.6

> <PUBCHEM_EXACT_MASS>
418.16166041

> <PUBCHEM_MOLECULAR_FORMULA>
C21H21F3N4O2

> <PUBCHEM_MOLECULAR_WEIGHT>
418.4

> <PUBCHEM_OPENEYE_CAN_SMILES>
C1CN(CC(C1N2C3=CC=CC=C3NC2=O)F)CCNC(=O)C4=CC(=C(C=C4)F)F

> <PUBCHEM_OPENEYE_ISO_SMILES>
C1CN(CC(C1N2C3=CC=CC=C3NC2=O)F)CCNC(=O)C4=CC(=C(C=C4)F)F

> <PUBCHEM_CACTVS_TPSA>
64.7

> <PUBCHEM_MONOISOTOPIC_WEIGHT>
418.16166041

> <PUBCHEM_TOTAL_CHARGE>
0

> <PUBCHEM_HEAVY_ATOM_COUNT>
30

> <PUBCHEM_ATOM_DEF_STEREO_COUNT>
0

> <PUBCHEM_ATOM_UDEF_STEREO_COUNT>
2

> <PUBCHEM_BOND_DEF_STEREO_COUNT>
0

> <PUBCHEM_BOND_UDEF_STEREO_COUNT>
0

> <PUBCHEM_ISOTOPIC_ATOM_COUNT>
0

> <PUBCHEM_COMPONENT_COUNT>
1

> <PUBCHEM_CACTVS_TAUTO_COUNT>
-1

> <PUBCHEM_COORDINATE_TYPE>
1
5
255

> <PUBCHEM_BONDANNOTATIONS>
11  1  3
16  19  8
16  20  8
19  21  8
20  22  8
21  23  8
22  23  8
25  26  8
25  27  8
26  28  8
27  29  8
28  30  8
29  30  8
10  7  3
7  16  8
7  17  8
8  17  8
8  19  8

$$$$
