162654269
  -OEChem-09292322012D

135140  0     1  0  0  0  0  0999 V2000
   12.8959    6.7181    0.0000 O   0  0  0  0  0  0  0  0  0  0  0  0
   19.0044   -1.6894    0.0000 O   0  0  0  0  0  0  0  0  0  0  0  0
   14.0185    4.3223    0.0000 O   0  0  0  0  0  0  0  0  0  0  0  0
   17.0728    0.1186    0.0000 O   0  0  0  0  0  0  0  0  0  0  0  0
   15.9502    2.5143    0.0000 O   0  0  0  0  0  0  0  0  0  0  0  0
    6.2619   12.2069    0.0000 N   0  0  3  0  0  0  0  0  0  0  0  0
   19.2906   -9.9980    0.0000 N   0  0  3  0  0  0  0  0  0  0  0  0
    9.3551    8.6952    0.0000 N   0  0  0  0  0  0  0  0  0  0  0  0
   20.7851   -5.5634    0.0000 N   0  0  0  0  0  0  0  0  0  0  0  0
   10.9643    8.5261    0.0000 N   0  0  0  0  0  0  0  0  0  0  0  0
   20.1270   -4.0852    0.0000 N   0  0  0  0  0  0  0  0  0  0  0  0
   10.0983    8.0261    0.0000 N   0  0  0  0  0  0  0  0  0  0  0  0
   20.9930   -4.5852    0.0000 N   0  0  0  0  0  0  0  0  0  0  0  0
    5.2619   12.2069    0.0000 C   0  0  0  0  0  0  0  0  0  0  0  0
   19.7906  -10.8640    0.0000 C   0  0  0  0  0  0  0  0  0  0  0  0
    4.6783   11.4021    0.0000 C   0  0  0  0  0  0  0  0  0  0  0  0
    4.6783   13.0116    0.0000 C   0  0  0  0  0  0  0  0  0  0  0  0
   19.3855  -11.7718    0.0000 C   0  0  0  0  0  0  0  0  0  0  0  0
   20.7793  -10.9671    0.0000 C   0  0  0  0  0  0  0  0  0  0  0  0
    3.7320   11.7069    0.0000 C   0  0  0  0  0  0  0  0  0  0  0  0
    3.7320   12.7069    0.0000 C   0  0  0  0  0  0  0  0  0  0  0  0
   20.1225  -12.4389    0.0000 C   0  0  0  0  0  0  0  0  0  0  0  0
   20.9885  -11.9389    0.0000 C   0  0  0  0  0  0  0  0  0  0  0  0
    6.7619   11.3408    0.0000 C   0  0  0  0  0  0  0  0  0  0  0  0
   19.7906   -9.1320    0.0000 C   0  0  0  0  0  0  0  0  0  0  0  0
    6.7619   13.0729    0.0000 C   0  0  0  0  0  0  0  0  0  0  0  0
   18.2906   -9.9980    0.0000 C   0  0  0  0  0  0  0  0  0  0  0  0
    7.7619   11.3408    0.0000 C   0  0  0  0  0  0  0  0  0  0  0  0
   19.2906   -8.2660    0.0000 C   0  0  0  0  0  0  0  0  0  0  0  0
    2.8660   11.2069    0.0000 C   0  0  0  0  0  0  0  0  0  0  0  0
    2.8660   13.2069    0.0000 C   0  0  0  0  0  0  0  0  0  0  0  0
   20.1225  -13.4389    0.0000 C   0  0  0  0  0  0  0  0  0  0  0  0
   21.8545  -12.4389    0.0000 C   0  0  0  0  0  0  0  0  0  0  0  0
    7.7619   13.0729    0.0000 C   0  0  0  0  0  0  0  0  0  0  0  0
   17.7906   -9.1320    0.0000 C   0  0  0  0  0  0  0  0  0  0  0  0
    8.2619   10.4748    0.0000 C   0  0  0  0  0  0  0  0  0  0  0  0
   19.7906   -7.3999    0.0000 C   0  0  0  0  0  0  0  0  0  0  0  0
    2.0000   11.7069    0.0000 C   0  0  0  0  0  0  0  0  0  0  0  0
    2.0000   12.7069    0.0000 C   0  0  0  0  0  0  0  0  0  0  0  0
   20.9885  -13.9389    0.0000 C   0  0  0  0  0  0  0  0  0  0  0  0
   21.8545  -13.4389    0.0000 C   0  0  0  0  0  0  0  0  0  0  0  0
    8.2619   13.9389    0.0000 C   0  0  0  0  0  0  0  0  0  0  0  0
   16.7906   -9.1320    0.0000 C   0  0  0  0  0  0  0  0  0  0  0  0
    9.2619   10.4748    0.0000 C   0  0  0  0  0  0  0  0  0  0  0  0
   19.2906   -6.5339    0.0000 C   0  0  0  0  0  0  0  0  0  0  0  0
    9.7619    9.6088    0.0000 C   0  0  0  0  0  0  0  0  0  0  0  0
   19.7906   -5.6679    0.0000 C   0  0  0  0  0  0  0  0  0  0  0  0
   10.7564    9.5043    0.0000 C   0  0  0  0  0  0  0  0  0  0  0  0
   19.3838   -4.7543    0.0000 C   0  0  0  0  0  0  0  0  0  0  0  0
   11.8779    8.1194    0.0000 C   0  0  0  0  0  0  0  0  0  0  0  0
   20.0224   -3.0907    0.0000 C   0  0  0  0  0  0  0  0  0  0  0  0
   11.9824    7.1248    0.0000 C   0  0  0  0  0  0  0  0  0  0  0  0
   19.1089   -2.6840    0.0000 C   0  0  0  0  0  0  0  0  0  0  0  0
   13.0005    5.7236    0.0000 C   0  0  0  0  0  0  0  0  0  0  0  0
   18.0908   -1.2827    0.0000 C   0  0  0  0  0  0  0  0  0  0  0  0
   13.9140    5.3169    0.0000 C   0  0  0  0  0  0  0  0  0  0  0  0
   17.9863   -0.2882    0.0000 C   0  0  0  0  0  0  0  0  0  0  0  0
   14.9321    3.9156    0.0000 C   0  0  0  0  0  0  0  0  0  0  0  0
   16.9682    1.1131    0.0000 C   0  0  0  0  0  0  0  0  0  0  0  0
   15.0366    2.9211    0.0000 C   0  0  0  0  0  0  0  0  0  0  0  0
   16.0547    1.5198    0.0000 C   0  0  0  0  0  0  0  0  0  0  0  0
    5.5436   11.6546    0.0000 H   0  0  0  0  0  0  0  0  0  0  0  0
   20.1280  -10.3439    0.0000 H   0  0  0  0  0  0  0  0  0  0  0  0
    4.4272   10.8352    0.0000 H   0  0  0  0  0  0  0  0  0  0  0  0
    5.2156   11.0929    0.0000 H   0  0  0  0  0  0  0  0  0  0  0  0
    5.2156   13.3208    0.0000 H   0  0  0  0  0  0  0  0  0  0  0  0
    4.4272   13.5785    0.0000 H   0  0  0  0  0  0  0  0  0  0  0  0
   18.8490  -11.4611    0.0000 H   0  0  0  0  0  0  0  0  0  0  0  0
   19.0200  -12.2727    0.0000 H   0  0  0  0  0  0  0  0  0  0  0  0
   21.3958  -10.9010    0.0000 H   0  0  0  0  0  0  0  0  0  0  0  0
   20.7784  -10.3471    0.0000 H   0  0  0  0  0  0  0  0  0  0  0  0
    6.1793   11.1288    0.0000 H   0  0  0  0  0  0  0  0  0  0  0  0
    6.8695   10.7303    0.0000 H   0  0  0  0  0  0  0  0  0  0  0  0
   20.2655   -9.5305    0.0000 H   0  0  0  0  0  0  0  0  0  0  0  0
   20.2655   -8.7335    0.0000 H   0  0  0  0  0  0  0  0  0  0  0  0
    6.8695   13.6835    0.0000 H   0  0  0  0  0  0  0  0  0  0  0  0
    6.1793   13.2849    0.0000 H   0  0  0  0  0  0  0  0  0  0  0  0
   17.7080  -10.2101    0.0000 H   0  0  0  0  0  0  0  0  0  0  0  0
   18.3982  -10.6086    0.0000 H   0  0  0  0  0  0  0  0  0  0  0  0
    8.3445   11.5529    0.0000 H   0  0  0  0  0  0  0  0  0  0  0  0
    7.6542   11.9514    0.0000 H   0  0  0  0  0  0  0  0  0  0  0  0
   18.8156   -7.8674    0.0000 H   0  0  0  0  0  0  0  0  0  0  0  0
   18.8156   -8.6645    0.0000 H   0  0  0  0  0  0  0  0  0  0  0  0
    2.8660   10.5869    0.0000 H   0  0  0  0  0  0  0  0  0  0  0  0
    2.8660   13.8269    0.0000 H   0  0  0  0  0  0  0  0  0  0  0  0
   19.5855  -13.7489    0.0000 H   0  0  0  0  0  0  0  0  0  0  0  0
   22.3915  -12.1289    0.0000 H   0  0  0  0  0  0  0  0  0  0  0  0
    7.6542   12.4623    0.0000 H   0  0  0  0  0  0  0  0  0  0  0  0
    8.3445   12.8608    0.0000 H   0  0  0  0  0  0  0  0  0  0  0  0
   18.3732   -8.9199    0.0000 H   0  0  0  0  0  0  0  0  0  0  0  0
   17.6829   -8.5214    0.0000 H   0  0  0  0  0  0  0  0  0  0  0  0
    7.6793   10.2628    0.0000 H   0  0  0  0  0  0  0  0  0  0  0  0
    8.3695    9.8642    0.0000 H   0  0  0  0  0  0  0  0  0  0  0  0
   20.2655   -7.7985    0.0000 H   0  0  0  0  0  0  0  0  0  0  0  0
   20.2655   -7.0014    0.0000 H   0  0  0  0  0  0  0  0  0  0  0  0
    1.4631   11.3969    0.0000 H   0  0  0  0  0  0  0  0  0  0  0  0
    1.4631   13.0169    0.0000 H   0  0  0  0  0  0  0  0  0  0  0  0
   20.9885  -14.5589    0.0000 H   0  0  0  0  0  0  0  0  0  0  0  0
   22.3915  -13.7489    0.0000 H   0  0  0  0  0  0  0  0  0  0  0  0
    8.7988   13.6289    0.0000 H   0  0  0  0  0  0  0  0  0  0  0  0
    8.5719   14.4759    0.0000 H   0  0  0  0  0  0  0  0  0  0  0  0
    7.7249   14.2489    0.0000 H   0  0  0  0  0  0  0  0  0  0  0  0
   16.7906   -8.5120    0.0000 H   0  0  0  0  0  0  0  0  0  0  0  0
   16.1706   -9.1320    0.0000 H   0  0  0  0  0  0  0  0  0  0  0  0
   16.7906   -9.7520    0.0000 H   0  0  0  0  0  0  0  0  0  0  0  0
    9.8445   10.6869    0.0000 H   0  0  0  0  0  0  0  0  0  0  0  0
    9.1542   11.0854    0.0000 H   0  0  0  0  0  0  0  0  0  0  0  0
   18.8156   -6.1354    0.0000 H   0  0  0  0  0  0  0  0  0  0  0  0
   18.8156   -6.9324    0.0000 H   0  0  0  0  0  0  0  0  0  0  0  0
   11.1713    9.9650    0.0000 H   0  0  0  0  0  0  0  0  0  0  0  0
   18.7774   -4.6254    0.0000 H   0  0  0  0  0  0  0  0  0  0  0  0
   12.4963    8.0761    0.0000 H   0  0  0  0  0  0  0  0  0  0  0  0
   12.0279    8.7210    0.0000 H   0  0  0  0  0  0  0  0  0  0  0  0
   20.6409   -3.1339    0.0000 H   0  0  0  0  0  0  0  0  0  0  0  0
   20.1724   -2.4891    0.0000 H   0  0  0  0  0  0  0  0  0  0  0  0
   11.3639    7.1681    0.0000 H   0  0  0  0  0  0  0  0  0  0  0  0
   11.8324    6.5233    0.0000 H   0  0  0  0  0  0  0  0  0  0  0  0
   18.4904   -2.6407    0.0000 H   0  0  0  0  0  0  0  0  0  0  0  0
   18.9589   -3.2855    0.0000 H   0  0  0  0  0  0  0  0  0  0  0  0
   12.3820    5.7668    0.0000 H   0  0  0  0  0  0  0  0  0  0  0  0
   12.8505    5.1220    0.0000 H   0  0  0  0  0  0  0  0  0  0  0  0
   17.4723   -1.2394    0.0000 H   0  0  0  0  0  0  0  0  0  0  0  0
   17.9408   -1.8843    0.0000 H   0  0  0  0  0  0  0  0  0  0  0  0
   14.5325    5.2736    0.0000 H   0  0  0  0  0  0  0  0  0  0  0  0
   14.0640    5.9184    0.0000 H   0  0  0  0  0  0  0  0  0  0  0  0
   18.6048   -0.3314    0.0000 H   0  0  0  0  0  0  0  0  0  0  0  0
   18.1363    0.3134    0.0000 H   0  0  0  0  0  0  0  0  0  0  0  0
   15.5506    3.8724    0.0000 H   0  0  0  0  0  0  0  0  0  0  0  0
   15.0821    4.5172    0.0000 H   0  0  0  0  0  0  0  0  0  0  0  0
   17.5867    1.0698    0.0000 H   0  0  0  0  0  0  0  0  0  0  0  0
   17.1182    1.7147    0.0000 H   0  0  0  0  0  0  0  0  0  0  0  0
   14.4181    2.9643    0.0000 H   0  0  0  0  0  0  0  0  0  0  0  0
   14.8866    2.3195    0.0000 H   0  0  0  0  0  0  0  0  0  0  0  0
   15.4362    1.5631    0.0000 H   0  0  0  0  0  0  0  0  0  0  0  0
   15.9047    0.9182    0.0000 H   0  0  0  0  0  0  0  0  0  0  0  0
  1 52  1  0  0  0  0
  1 54  1  0  0  0  0
  2 53  1  0  0  0  0
  2 55  1  0  0  0  0
  3 56  1  0  0  0  0
  3 58  1  0  0  0  0
  4 57  1  0  0  0  0
  4 59  1  0  0  0  0
  5 60  1  0  0  0  0
  5 61  1  0  0  0  0
  6 14  1  0  0  0  0
  6 24  1  0  0  0  0
  6 26  1  0  0  0  0
  7 15  1  0  0  0  0
  7 25  1  0  0  0  0
  7 27  1  0  0  0  0
  8 12  2  0  0  0  0
  8 46  1  0  0  0  0
  9 13  2  0  0  0  0
  9 47  1  0  0  0  0
 10 12  1  0  0  0  0
 10 48  1  0  0  0  0
 10 50  1  0  0  0  0
 11 13  1  0  0  0  0
 11 49  1  0  0  0  0
 11 51  1  0  0  0  0
 14 16  1  0  0  0  0
 14 17  1  0  0  0  0
 14 62  1  0  0  0  0
 15 18  1  0  0  0  0
 15 19  1  0  0  0  0
 15 63  1  0  0  0  0
 16 20  1  0  0  0  0
 16 64  1  0  0  0  0
 16 65  1  0  0  0  0
 17 21  1  0  0  0  0
 17 66  1  0  0  0  0
 17 67  1  0  0  0  0
 18 22  1  0  0  0  0
 18 68  1  0  0  0  0
 18 69  1  0  0  0  0
 19 23  1  0  0  0  0
 19 70  1  0  0  0  0
 19 71  1  0  0  0  0
 20 21  1  0  0  0  0
 20 30  2  0  0  0  0
 21 31  2  0  0  0  0
 22 23  1  0  0  0  0
 22 32  2  0  0  0  0
 23 33  2  0  0  0  0
 24 28  1  0  0  0  0
 24 72  1  0  0  0  0
 24 73  1  0  0  0  0
 25 29  1  0  0  0  0
 25 74  1  0  0  0  0
 25 75  1  0  0  0  0
 26 34  1  0  0  0  0
 26 76  1  0  0  0  0
 26 77  1  0  0  0  0
 27 35  1  0  0  0  0
 27 78  1  0  0  0  0
 27 79  1  0  0  0  0
 28 36  1  0  0  0  0
 28 80  1  0  0  0  0
 28 81  1  0  0  0  0
 29 37  1  0  0  0  0
 29 82  1  0  0  0  0
 29 83  1  0  0  0  0
 30 38  1  0  0  0  0
 30 84  1  0  0  0  0
 31 39  1  0  0  0  0
 31 85  1  0  0  0  0
 32 40  1  0  0  0  0
 32 86  1  0  0  0  0
 33 41  1  0  0  0  0
 33 87  1  0  0  0  0
 34 42  1  0  0  0  0
 34 88  1  0  0  0  0
 34 89  1  0  0  0  0
 35 43  1  0  0  0  0
 35 90  1  0  0  0  0
 35 91  1  0  0  0  0
 36 44  1  0  0  0  0
 36 92  1  0  0  0  0
 36 93  1  0  0  0  0
 37 45  1  0  0  0  0
 37 94  1  0  0  0  0
 37 95  1  0  0  0  0
 38 39  2  0  0  0  0
 38 96  1  0  0  0  0
 39 97  1  0  0  0  0
 40 41  2  0  0  0  0
 40 98  1  0  0  0  0
 41 99  1  0  0  0  0
 42100  1  0  0  0  0
 42101  1  0  0  0  0
 42102  1  0  0  0  0
 43103  1  0  0  0  0
 43104  1  0  0  0  0
 43105  1  0  0  0  0
 44 46  1  0  0  0  0
 44106  1  0  0  0  0
 44107  1  0  0  0  0
 45 47  1  0  0  0  0
 45108  1  0  0  0  0
 45109  1  0  0  0  0
 46 48  2  0  0  0  0
 47 49  2  0  0  0  0
 48110  1  0  0  0  0
 49111  1  0  0  0  0
 50 52  1  0  0  0  0
 50112  1  0  0  0  0
 50113  1  0  0  0  0
 51 53  1  0  0  0  0
 51114  1  0  0  0  0
 51115  1  0  0  0  0
 52116  1  0  0  0  0
 52117  1  0  0  0  0
 53118  1  0  0  0  0
 53119  1  0  0  0  0
 54 56  1  0  0  0  0
 54120  1  0  0  0  0
 54121  1  0  0  0  0
 55 57  1  0  0  0  0
 55122  1  0  0  0  0
 55123  1  0  0  0  0
 56124  1  0  0  0  0
 56125  1  0  0  0  0
 57126  1  0  0  0  0
 57127  1  0  0  0  0
 58 60  1  0  0  0  0
 58128  1  0  0  0  0
 58129  1  0  0  0  0
 59 61  1  0  0  0  0
 59130  1  0  0  0  0
 59131  1  0  0  0  0
 60132  1  0  0  0  0
 60133  1  0  0  0  0
 61134  1  0  0  0  0
 61135  1  0  0  0  0
M  END
> <PUBCHEM_COMPOUND_CID>
162654269

> <PUBCHEM_COMPOUND_CANONICALIZED>
1

> <PUBCHEM_CACTVS_COMPLEXITY>
1010

> <PUBCHEM_CACTVS_HBOND_ACCEPTOR>
11

> <PUBCHEM_CACTVS_HBOND_DONOR>
0

> <PUBCHEM_CACTVS_ROTATABLE_BOND>
34

> <PUBCHEM_CACTVS_SUBSKEYS>
AAADcfB/+AAAAAAAAAAAAAAAAAAAAePECAAwYAAAAAAAAGAB9AAAHgAIAAAADCjhngY+gJMIBACiAzRnRAACBAQxkgAY2AA4cIgLYCLAkRGXIAAggADayAcQgIAOgAAAAAAQAAAAAAAAACAAACAACAAAAA==

> <PUBCHEM_IUPAC_OPENEYE_NAME>
N-[4-[1-[2-[2-[2-[2-[2-[2-[4-[4-[indan-2-yl(propyl)amino]butyl]triazol-1-yl]ethoxy]ethoxy]ethoxy]ethoxy]ethoxy]ethyl]triazol-4-yl]butyl]-N-propyl-indan-2-amine

> <PUBCHEM_IUPAC_CAS_NAME>
N-[4-[1-[2-[2-[2-[2-[2-[2-[4-[4-[2,3-dihydro-1H-inden-2-yl(propyl)amino]butyl]-1-triazolyl]ethoxy]ethoxy]ethoxy]ethoxy]ethoxy]ethyl]-4-triazolyl]butyl]-N-propyl-2,3-dihydro-1H-inden-2-amine

> <PUBCHEM_IUPAC_NAME_MARKUP>
<I>N</I>-[4-[1-[2-[2-[2-[2-[2-[2-[4-[4-[2,3-dihydro-1<I>H</I>-inden-2-yl(propyl)amino]butyl]triazol-1-yl]ethoxy]ethoxy]ethoxy]ethoxy]ethoxy]ethyl]triazol-4-yl]butyl]-<I>N</I>-propyl-2,3-dihydro-1<I>H</I>-inden-2-amine

> <PUBCHEM_IUPAC_NAME>
N-[4-[1-[2-[2-[2-[2-[2-[2-[4-[4-[2,3-dihydro-1H-inden-2-yl(propyl)amino]butyl]triazol-1-yl]ethoxy]ethoxy]ethoxy]ethoxy]ethoxy]ethyl]triazol-4-yl]butyl]-N-propyl-2,3-dihydro-1H-inden-2-amine

> <PUBCHEM_IUPAC_SYSTEMATIC_NAME>
N-[4-[1-[2-[2-[2-[2-[2-[2-[4-[4-[2,3-dihydro-1H-inden-2-yl(propyl)amino]butyl]-1,2,3-triazol-1-yl]ethoxy]ethoxy]ethoxy]ethoxy]ethoxy]ethyl]-1,2,3-triazol-4-yl]butyl]-N-propyl-2,3-dihydro-1H-inden-2-amine

> <PUBCHEM_IUPAC_TRADITIONAL_NAME>
indan-2-yl-[4-[1-[2-[2-[2-[2-[2-[2-[4-[4-[indan-2-yl(propyl)amino]butyl]triazol-1-yl]ethoxy]ethoxy]ethoxy]ethoxy]ethoxy]ethyl]triazol-4-yl]butyl]-propyl-amine

> <PUBCHEM_IUPAC_INCHI>
InChI=1S/C48H74N8O5/c1-3-19-53(47-35-41-13-5-6-14-42(41)36-47)21-11-9-17-45-39-55(51-49-45)23-25-57-27-29-59-31-33-61-34-32-60-30-28-58-26-24-56-40-46(50-52-56)18-10-12-22-54(20-4-2)48-37-43-15-7-8-16-44(43)38-48/h5-8,13-16,39-40,47-48H,3-4,9-12,17-38H2,1-2H3

> <PUBCHEM_IUPAC_INCHIKEY>
CGDGQEFCZTTZBO-UHFFFAOYSA-N

> <PUBCHEM_XLOGP3_AA>
6.3

> <PUBCHEM_EXACT_MASS>
842.57821749

> <PUBCHEM_MOLECULAR_FORMULA>
C48H74N8O5

> <PUBCHEM_MOLECULAR_WEIGHT>
843.2

> <PUBCHEM_OPENEYE_CAN_SMILES>
CCCN(CCCCC1=CN(N=N1)CCOCCOCCOCCOCCOCCN2C=C(N=N2)CCCCN(CCC)C3CC4=CC=CC=C4C3)C5CC6=CC=CC=C6C5

> <PUBCHEM_OPENEYE_ISO_SMILES>
CCCN(CCCCC1=CN(N=N1)CCOCCOCCOCCOCCOCCN2C=C(N=N2)CCCCN(CCC)C3CC4=CC=CC=C4C3)C5CC6=CC=CC=C6C5

> <PUBCHEM_CACTVS_TPSA>
114

> <PUBCHEM_MONOISOTOPIC_WEIGHT>
842.57821749

> <PUBCHEM_TOTAL_CHARGE>
0

> <PUBCHEM_HEAVY_ATOM_COUNT>
61

> <PUBCHEM_ATOM_DEF_STEREO_COUNT>
0

> <PUBCHEM_ATOM_UDEF_STEREO_COUNT>
0

> <PUBCHEM_BOND_DEF_STEREO_COUNT>
0

> <PUBCHEM_BOND_UDEF_STEREO_COUNT>
0

> <PUBCHEM_ISOTOPIC_ATOM_COUNT>
0

> <PUBCHEM_COMPONENT_COUNT>
1

> <PUBCHEM_CACTVS_TAUTO_COUNT>
-1

> <PUBCHEM_COORDINATE_TYPE>
1
5
255

> <PUBCHEM_BONDANNOTATIONS>
10  12  8
10  48  8
11  13  8
11  49  8
20  21  8
20  30  8
21  31  8
22  23  8
22  32  8
23  33  8
30  38  8
31  39  8
32  40  8
33  41  8
38  39  8
40  41  8
46  48  8
47  49  8
8  12  8
8  46  8
9  13  8
9  47  8

$$$$
