1243
  -OEChem-09292322142D

 38 40  0     1  0  0  0  0  0999 V2000
    7.8547   -2.4865    0.0000 Br  0  0  0  0  0  0  0  0  0  0  0  0
    7.8547   -0.4382    0.0000 O   0  0  0  0  0  0  0  0  0  0  0  0
    3.0000   -1.4624    0.0000 N   0  0  3  0  0  0  0  0  0  0  0  0
    4.4088   -0.3389    0.0000 C   0  0  3  0  0  0  0  0  0  0  0  0
    3.4339   -0.5614    0.0000 C   0  0  0  0  0  0  0  0  0  0  0  0
    5.1906   -0.9624    0.0000 C   0  0  0  0  0  0  0  0  0  0  0  0
    3.4339   -2.3634    0.0000 C   0  0  0  0  0  0  0  0  0  0  0  0
    4.4088   -2.5859    0.0000 C   0  0  0  0  0  0  0  0  0  0  0  0
    5.1906   -1.9624    0.0000 C   0  0  0  0  0  0  0  0  0  0  0  0
    4.6313    0.6360    0.0000 C   0  0  0  0  0  0  0  0  0  0  0  0
    6.0846   -0.4277    0.0000 C   0  0  0  0  0  0  0  0  0  0  0  0
    2.0000   -1.4624    0.0000 C   0  0  0  0  0  0  0  0  0  0  0  0
    6.0846   -2.4971    0.0000 C   0  0  0  0  0  0  0  0  0  0  0  0
    5.5869    0.9308    0.0000 C   0  0  0  0  0  0  0  0  0  0  0  0
    3.8983    1.3162    0.0000 C   0  0  0  0  0  0  0  0  0  0  0  0
    6.9906   -0.9416    0.0000 C   0  0  0  0  0  0  0  0  0  0  0  0
    6.9906   -1.9832    0.0000 C   0  0  0  0  0  0  0  0  0  0  0  0
    5.8094    1.9057    0.0000 C   0  0  0  0  0  0  0  0  0  0  0  0
    4.1208    2.2911    0.0000 C   0  0  0  0  0  0  0  0  0  0  0  0
    5.0764    2.5859    0.0000 C   0  0  0  0  0  0  0  0  0  0  0  0
    3.9704    0.0995    0.0000 H   0  0  0  0  0  0  0  0  0  0  0  0
    3.4339    0.0586    0.0000 H   0  0  0  0  0  0  0  0  0  0  0  0
    2.8294   -0.4235    0.0000 H   0  0  0  0  0  0  0  0  0  0  0  0
    2.8294   -2.5013    0.0000 H   0  0  0  0  0  0  0  0  0  0  0  0
    3.4339   -2.9834    0.0000 H   0  0  0  0  0  0  0  0  0  0  0  0
    4.1398   -3.1445    0.0000 H   0  0  0  0  0  0  0  0  0  0  0  0
    4.8936   -2.9724    0.0000 H   0  0  0  0  0  0  0  0  0  0  0  0
    6.0774    0.1922    0.0000 H   0  0  0  0  0  0  0  0  0  0  0  0
    2.0000   -0.8424    0.0000 H   0  0  0  0  0  0  0  0  0  0  0  0
    1.3800   -1.4624    0.0000 H   0  0  0  0  0  0  0  0  0  0  0  0
    2.0000   -2.0824    0.0000 H   0  0  0  0  0  0  0  0  0  0  0  0
    6.0774   -3.1170    0.0000 H   0  0  0  0  0  0  0  0  0  0  0  0
    6.0414    0.5091    0.0000 H   0  0  0  0  0  0  0  0  0  0  0  0
    3.3058    1.1334    0.0000 H   0  0  0  0  0  0  0  0  0  0  0  0
    6.4019    2.0885    0.0000 H   0  0  0  0  0  0  0  0  0  0  0  0
    3.6663    2.7128    0.0000 H   0  0  0  0  0  0  0  0  0  0  0  0
    5.2143    3.1903    0.0000 H   0  0  0  0  0  0  0  0  0  0  0  0
    8.3929   -0.7462    0.0000 H   0  0  0  0  0  0  0  0  0  0  0  0
  1 17  1  0  0  0  0
  2 16  1  0  0  0  0
  2 38  1  0  0  0  0
  3  5  1  0  0  0  0
  3  7  1  0  0  0  0
  3 12  1  0  0  0  0
  4  5  1  0  0  0  0
  4  6  1  0  0  0  0
  4 10  1  0  0  0  0
  4 21  1  0  0  0  0
  5 22  1  0  0  0  0
  5 23  1  0  0  0  0
  6  9  1  0  0  0  0
  6 11  2  0  0  0  0
  7  8  1  0  0  0  0
  7 24  1  0  0  0  0
  7 25  1  0  0  0  0
  8  9  1  0  0  0  0
  8 26  1  0  0  0  0
  8 27  1  0  0  0  0
  9 13  2  0  0  0  0
 10 14  2  0  0  0  0
 10 15  1  0  0  0  0
 11 16  1  0  0  0  0
 11 28  1  0  0  0  0
 12 29  1  0  0  0  0
 12 30  1  0  0  0  0
 12 31  1  0  0  0  0
 13 17  1  0  0  0  0
 13 32  1  0  0  0  0
 14 18  1  0  0  0  0
 14 33  1  0  0  0  0
 15 19  2  0  0  0  0
 15 34  1  0  0  0  0
 16 17  2  0  0  0  0
 18 20  2  0  0  0  0
 18 35  1  0  0  0  0
 19 20  1  0  0  0  0
 19 36  1  0  0  0  0
 20 37  1  0  0  0  0
M  END
> <PUBCHEM_COMPOUND_CID>
1243

> <PUBCHEM_COMPOUND_CANONICALIZED>
1

> <PUBCHEM_CACTVS_COMPLEXITY>
318

> <PUBCHEM_CACTVS_HBOND_ACCEPTOR>
2

> <PUBCHEM_CACTVS_HBOND_DONOR>
1

> <PUBCHEM_CACTVS_ROTATABLE_BOND>
1

> <PUBCHEM_CACTVS_SUBSKEYS>
AAADceB6IAAAEAAAAAAAAAAAAAAAAAAAAAAwYAAABYAAAAABQAAAHgBACAABrQTBmAQyBoMAAgCAAiBCAAACAAAgIAQIiAAOCKgIJiKCkROEcAAkwBGImheQ0PIOogABEAAQBABEAAIgACAIAAAAAAAAAA==

> <PUBCHEM_IUPAC_OPENEYE_NAME>
8-bromo-3-methyl-5-phenyl-1,2,4,5-tetrahydro-3-benzazepin-7-ol

> <PUBCHEM_IUPAC_CAS_NAME>
8-bromo-3-methyl-5-phenyl-1,2,4,5-tetrahydro-3-benzazepin-7-ol

> <PUBCHEM_IUPAC_NAME_MARKUP>
8-bromo-3-methyl-5-phenyl-1,2,4,5-tetrahydro-3-benzazepin-7-ol

> <PUBCHEM_IUPAC_NAME>
8-bromo-3-methyl-5-phenyl-1,2,4,5-tetrahydro-3-benzazepin-7-ol

> <PUBCHEM_IUPAC_SYSTEMATIC_NAME>
8-bromanyl-3-methyl-5-phenyl-1,2,4,5-tetrahydro-3-benzazepin-7-ol

> <PUBCHEM_IUPAC_TRADITIONAL_NAME>
8-bromo-3-methyl-5-phenyl-1,2,4,5-tetrahydro-3-benzazepin-7-ol

> <PUBCHEM_IUPAC_INCHI>
InChI=1S/C17H18BrNO/c1-19-8-7-13-9-16(18)17(20)10-14(13)15(11-19)12-5-3-2-4-6-12/h2-6,9-10,15,20H,7-8,11H2,1H3

> <PUBCHEM_IUPAC_INCHIKEY>
XFTVOHWWEQGXLS-UHFFFAOYSA-N

> <PUBCHEM_XLOGP3_AA>
4

> <PUBCHEM_EXACT_MASS>
331.05718

> <PUBCHEM_MOLECULAR_FORMULA>
C17H18BrNO

> <PUBCHEM_MOLECULAR_WEIGHT>
332.2

> <PUBCHEM_OPENEYE_CAN_SMILES>
CN1CCC2=CC(=C(C=C2C(C1)C3=CC=CC=C3)O)Br

> <PUBCHEM_OPENEYE_ISO_SMILES>
CN1CCC2=CC(=C(C=C2C(C1)C3=CC=CC=C3)O)Br

> <PUBCHEM_CACTVS_TPSA>
23.5

> <PUBCHEM_MONOISOTOPIC_WEIGHT>
331.05718

> <PUBCHEM_TOTAL_CHARGE>
0

> <PUBCHEM_HEAVY_ATOM_COUNT>
20

> <PUBCHEM_ATOM_DEF_STEREO_COUNT>
0

> <PUBCHEM_ATOM_UDEF_STEREO_COUNT>
1

> <PUBCHEM_BOND_DEF_STEREO_COUNT>
0

> <PUBCHEM_BOND_UDEF_STEREO_COUNT>
0

> <PUBCHEM_ISOTOPIC_ATOM_COUNT>
0

> <PUBCHEM_COMPONENT_COUNT>
1

> <PUBCHEM_CACTVS_TAUTO_COUNT>
9

> <PUBCHEM_COORDINATE_TYPE>
1
5
255

> <PUBCHEM_BONDANNOTATIONS>
10  14  8
10  15  8
11  16  8
13  17  8
14  18  8
15  19  8
16  17  8
18  20  8
19  20  8
4  10  3
6  11  8
6  9  8
9  13  8

$$$$
