155552676
  -OEChem-09292322412D

 62 64  0     1  0  0  0  0  0999 V2000
   13.8015    6.7478    0.0000 Cl  0  0  0  0  0  0  0  0  0  0  0  0
    7.4282    8.9860    0.0000 S   0  0  0  0  0  0  0  0  0  0  0  0
    6.0622    0.6200    0.0000 F   0  0  0  0  0  0  0  0  0  0  0  0
    0.0000    2.1200    0.0000 F   0  0  0  0  0  0  0  0  0  0  0  0
    2.5981    2.6200    0.0000 O   0  0  0  0  0  0  0  0  0  0  0  0
    5.6962    5.9860    0.0000 N   0  0  0  0  0  0  0  0  0  0  0  0
    8.3988   10.4805    0.0000 N   0  0  0  0  0  0  0  0  0  0  0  0
    9.2078    9.0793    0.0000 N   0  0  0  0  0  0  0  0  0  0  0  0
    9.8769    9.8224    0.0000 N   0  0  0  0  0  0  0  0  0  0  0  0
    4.8301    4.4860    0.0000 C   0  0  3  0  0  0  0  0  0  0  0  0
    4.3301    3.6200    0.0000 C   0  0  3  0  0  0  0  0  0  0  0  0
    3.8301    4.4860    0.0000 C   0  0  0  0  0  0  0  0  0  0  0  0
    5.6962    4.9860    0.0000 C   0  0  0  0  0  0  0  0  0  0  0  0
    4.3301    2.6200    0.0000 C   0  0  0  0  0  0  0  0  0  0  0  0
    3.4641    2.1200    0.0000 C   0  0  0  0  0  0  0  0  0  0  0  0
    5.1962    2.1200    0.0000 C   0  0  0  0  0  0  0  0  0  0  0  0
    6.5622    6.4860    0.0000 C   0  0  0  0  0  0  0  0  0  0  0  0
    3.4641    1.1200    0.0000 C   0  0  0  0  0  0  0  0  0  0  0  0
    5.1962    1.1200    0.0000 C   0  0  0  0  0  0  0  0  0  0  0  0
    6.5622    7.4860    0.0000 C   0  0  0  0  0  0  0  0  0  0  0  0
    4.3301    0.6200    0.0000 C   0  0  0  0  0  0  0  0  0  0  0  0
    7.4282    7.9860    0.0000 C   0  0  0  0  0  0  0  0  0  0  0  0
    1.7320    2.1200    0.0000 C   0  0  0  0  0  0  0  0  0  0  0  0
    0.8660    2.6200    0.0000 C   0  0  0  0  0  0  0  0  0  0  0  0
    8.2942    9.4860    0.0000 C   0  0  0  0  0  0  0  0  0  0  0  0
    9.3769   10.6885    0.0000 C   0  0  0  0  0  0  0  0  0  0  0  0
    7.6556   11.1497    0.0000 C   0  0  0  0  0  0  0  0  0  0  0  0
    9.7836   11.6020    0.0000 C   0  0  0  0  0  0  0  0  0  0  0  0
    9.1959   12.4110    0.0000 C   0  0  0  0  0  0  0  0  0  0  0  0
   10.7782   11.7065    0.0000 C   0  0  0  0  0  0  0  0  0  0  0  0
    9.6026   13.3246    0.0000 C   0  0  0  0  0  0  0  0  0  0  0  0
   11.1849   12.6201    0.0000 C   0  0  0  0  0  0  0  0  0  0  0  0
   10.5971   13.4291    0.0000 C   0  0  0  0  0  0  0  0  0  0  0  0
    4.6697    5.0849    0.0000 H   0  0  0  0  0  0  0  0  0  0  0  0
    4.9290    3.4595    0.0000 H   0  0  0  0  0  0  0  0  0  0  0  0
    3.7225    5.0966    0.0000 H   0  0  0  0  0  0  0  0  0  0  0  0
    3.2475    4.2740    0.0000 H   0  0  0  0  0  0  0  0  0  0  0  0
    5.9082    4.4034    0.0000 H   0  0  0  0  0  0  0  0  0  0  0  0
    6.3067    5.0937    0.0000 H   0  0  0  0  0  0  0  0  0  0  0  0
    5.1592    6.2960    0.0000 H   0  0  0  0  0  0  0  0  0  0  0  0
    5.7331    2.4300    0.0000 H   0  0  0  0  0  0  0  0  0  0  0  0
    6.7742    5.9034    0.0000 H   0  0  0  0  0  0  0  0  0  0  0  0
    7.1728    6.5937    0.0000 H   0  0  0  0  0  0  0  0  0  0  0  0
    2.9272    0.8100    0.0000 H   0  0  0  0  0  0  0  0  0  0  0  0
    6.3501    8.0686    0.0000 H   0  0  0  0  0  0  0  0  0  0  0  0
    5.9516    7.3784    0.0000 H   0  0  0  0  0  0  0  0  0  0  0  0
    4.3301    0.0000    0.0000 H   0  0  0  0  0  0  0  0  0  0  0  0
    7.6403    7.4034    0.0000 H   0  0  0  0  0  0  0  0  0  0  0  0
    8.0388    8.0937    0.0000 H   0  0  0  0  0  0  0  0  0  0  0  0
    1.3335    1.6450    0.0000 H   0  0  0  0  0  0  0  0  0  0  0  0
    2.1306    1.6450    0.0000 H   0  0  0  0  0  0  0  0  0  0  0  0
    1.2646    3.0950    0.0000 H   0  0  0  0  0  0  0  0  0  0  0  0
    0.4675    3.0950    0.0000 H   0  0  0  0  0  0  0  0  0  0  0  0
    8.0705   11.6104    0.0000 H   0  0  0  0  0  0  0  0  0  0  0  0
    7.1949   11.5645    0.0000 H   0  0  0  0  0  0  0  0  0  0  0  0
    7.2408   10.6889    0.0000 H   0  0  0  0  0  0  0  0  0  0  0  0
    8.5792   12.3462    0.0000 H   0  0  0  0  0  0  0  0  0  0  0  0
   11.1426   11.2049    0.0000 H   0  0  0  0  0  0  0  0  0  0  0  0
    9.2382   13.8262    0.0000 H   0  0  0  0  0  0  0  0  0  0  0  0
   11.8015   12.6849    0.0000 H   0  0  0  0  0  0  0  0  0  0  0  0
   10.8493   13.9955    0.0000 H   0  0  0  0  0  0  0  0  0  0  0  0
   14.8015    6.7478    0.0000 H   0  0  0  0  0  0  0  0  0  0  0  0
  1 62  1  0  0  0  0
  2 22  1  0  0  0  0
  2 25  1  0  0  0  0
  3 19  1  0  0  0  0
  4 24  1  0  0  0  0
  5 15  1  0  0  0  0
  5 23  1  0  0  0  0
  6 13  1  0  0  0  0
  6 17  1  0  0  0  0
  6 40  1  0  0  0  0
  7 25  1  0  0  0  0
  7 26  1  0  0  0  0
  7 27  1  0  0  0  0
  8  9  1  0  0  0  0
  8 25  2  0  0  0  0
  9 26  2  0  0  0  0
 10 11  1  0  0  0  0
 10 12  1  0  0  0  0
 10 13  1  0  0  0  0
 10 34  1  0  0  0  0
 11 12  1  0  0  0  0
 11 14  1  0  0  0  0
 11 35  1  0  0  0  0
 12 36  1  0  0  0  0
 12 37  1  0  0  0  0
 13 38  1  0  0  0  0
 13 39  1  0  0  0  0
 14 15  2  0  0  0  0
 14 16  1  0  0  0  0
 15 18  1  0  0  0  0
 16 19  2  0  0  0  0
 16 41  1  0  0  0  0
 17 20  1  0  0  0  0
 17 42  1  0  0  0  0
 17 43  1  0  0  0  0
 18 21  2  0  0  0  0
 18 44  1  0  0  0  0
 19 21  1  0  0  0  0
 20 22  1  0  0  0  0
 20 45  1  0  0  0  0
 20 46  1  0  0  0  0
 21 47  1  0  0  0  0
 22 48  1  0  0  0  0
 22 49  1  0  0  0  0
 23 24  1  0  0  0  0
 23 50  1  0  0  0  0
 23 51  1  0  0  0  0
 24 52  1  0  0  0  0
 24 53  1  0  0  0  0
 26 28  1  0  0  0  0
 27 54  1  0  0  0  0
 27 55  1  0  0  0  0
 27 56  1  0  0  0  0
 28 29  2  0  0  0  0
 28 30  1  0  0  0  0
 29 31  1  0  0  0  0
 29 57  1  0  0  0  0
 30 32  2  0  0  0  0
 30 58  1  0  0  0  0
 31 33  2  0  0  0  0
 31 59  1  0  0  0  0
 32 33  1  0  0  0  0
 32 60  1  0  0  0  0
 33 61  1  0  0  0  0
M  END
> <PUBCHEM_COMPOUND_CID>
155552676

> <PUBCHEM_COMPOUND_CANONICALIZED>
1

> <PUBCHEM_CACTVS_COMPLEXITY>
556

> <PUBCHEM_CACTVS_HBOND_ACCEPTOR>
7

> <PUBCHEM_CACTVS_HBOND_DONOR>
2

> <PUBCHEM_CACTVS_ROTATABLE_BOND>
12

> <PUBCHEM_CACTVS_SUBSKEYS>
AAADceB7oYBEAAAAAAAAAAAAGAAAAWAAAAAwYAAAAAAAAAAB0AAAHwQYAAAADQTl2w6zFofMFAiiAiJiJACS2AtgILAdyKAuDJiMLqKkuRuGOCjk2BOIqAeQ0OIOgAAAAAAIAAAAAAAAABAAAAAAAAAAAA==

> <PUBCHEM_IUPAC_OPENEYE_NAME>
N-[[2-[5-fluoro-2-(2-fluoroethoxy)phenyl]cyclopropyl]methyl]-3-[(4-methyl-5-phenyl-1,2,4-triazol-3-yl)sulfanyl]propan-1-amine;hydrochloride

> <PUBCHEM_IUPAC_CAS_NAME>
N-[[2-[5-fluoro-2-(2-fluoroethoxy)phenyl]cyclopropyl]methyl]-3-[(4-methyl-5-phenyl-1,2,4-triazol-3-yl)thio]-1-propanamine;hydrochloride

> <PUBCHEM_IUPAC_NAME_MARKUP>
<I>N</I>-[[2-[5-fluoro-2-(2-fluoroethoxy)phenyl]cyclopropyl]methyl]-3-[(4-methyl-5-phenyl-1,2,4-triazol-3-yl)sulfanyl]propan-1-amine;hydrochloride

> <PUBCHEM_IUPAC_NAME>
N-[[2-[5-fluoro-2-(2-fluoroethoxy)phenyl]cyclopropyl]methyl]-3-[(4-methyl-5-phenyl-1,2,4-triazol-3-yl)sulfanyl]propan-1-amine;hydrochloride

> <PUBCHEM_IUPAC_SYSTEMATIC_NAME>
N-[[2-[5-fluoranyl-2-(2-fluoranylethoxy)phenyl]cyclopropyl]methyl]-3-[(4-methyl-5-phenyl-1,2,4-triazol-3-yl)sulfanyl]propan-1-amine;hydrochloride

> <PUBCHEM_IUPAC_TRADITIONAL_NAME>
[2-[5-fluoro-2-(2-fluoroethoxy)phenyl]cyclopropyl]methyl-[3-[(4-methyl-5-phenyl-1,2,4-triazol-3-yl)thio]propyl]amine;hydrochloride

> <PUBCHEM_IUPAC_INCHI>
InChI=1S/C24H28F2N4OS.ClH/c1-30-23(17-6-3-2-4-7-17)28-29-24(30)32-13-5-11-27-16-18-14-20(18)21-15-19(26)8-9-22(21)31-12-10-25;/h2-4,6-9,15,18,20,27H,5,10-14,16H2,1H3;1H

> <PUBCHEM_IUPAC_INCHIKEY>
JFPQLMHSAZGNCS-UHFFFAOYSA-N

> <PUBCHEM_EXACT_MASS>
494.1718668

> <PUBCHEM_MOLECULAR_FORMULA>
C24H29ClF2N4OS

> <PUBCHEM_MOLECULAR_WEIGHT>
495.0

> <PUBCHEM_OPENEYE_CAN_SMILES>
CN1C(=NN=C1SCCCNCC2CC2C3=C(C=CC(=C3)F)OCCF)C4=CC=CC=C4.Cl

> <PUBCHEM_OPENEYE_ISO_SMILES>
CN1C(=NN=C1SCCCNCC2CC2C3=C(C=CC(=C3)F)OCCF)C4=CC=CC=C4.Cl

> <PUBCHEM_CACTVS_TPSA>
77.3

> <PUBCHEM_MONOISOTOPIC_WEIGHT>
494.1718668

> <PUBCHEM_TOTAL_CHARGE>
0

> <PUBCHEM_HEAVY_ATOM_COUNT>
33

> <PUBCHEM_ATOM_DEF_STEREO_COUNT>
0

> <PUBCHEM_ATOM_UDEF_STEREO_COUNT>
2

> <PUBCHEM_BOND_DEF_STEREO_COUNT>
0

> <PUBCHEM_BOND_UDEF_STEREO_COUNT>
0

> <PUBCHEM_ISOTOPIC_ATOM_COUNT>
0

> <PUBCHEM_COMPONENT_COUNT>
2

> <PUBCHEM_CACTVS_TAUTO_COUNT>
-1

> <PUBCHEM_COORDINATE_TYPE>
1
5
255

> <PUBCHEM_BONDANNOTATIONS>
10  13  3
11  14  3
14  15  8
14  16  8
15  18  8
16  19  8
18  21  8
19  21  8
28  29  8
28  30  8
29  31  8
30  32  8
31  33  8
32  33  8
7  25  8
7  26  8
8  25  8
8  9  8
9  26  8

$$$$
