44381146
  -OEChem-09292322502D

 58 60  0     1  0  0  0  0  0999 V2000
    6.3301   -2.8693    0.0000 Cl  0  0  0  0  0  0  0  0  0  0  0  0
    3.7320    0.6307    0.0000 O   0  0  0  0  0  0  0  0  0  0  0  0
    2.8660   -0.8693    0.0000 O   0  0  0  0  0  0  0  0  0  0  0  0
    2.8660   -3.8693    0.0000 O   0  0  0  0  0  0  0  0  0  0  0  0
    7.4128    3.3331    0.0000 N   0  0  3  0  0  0  0  0  0  0  0  0
    5.4641    0.6307    0.0000 N   0  0  0  0  0  0  0  0  0  0  0  0
    4.5981   -3.8693    0.0000 N   0  0  0  0  0  0  0  0  0  0  0  0
    6.3301    2.1307    0.0000 C   0  0  2  0  0  0  0  0  0  0  0  0
    7.2437    1.7240    0.0000 C   0  0  0  0  0  0  0  0  0  0  0  0
    6.4347    3.1252    0.0000 C   0  0  0  0  0  0  0  0  0  0  0  0
    7.9128    2.4671    0.0000 C   0  0  0  0  0  0  0  0  0  0  0  0
    5.4641    1.6307    0.0000 C   0  0  0  0  0  0  0  0  0  0  0  0
    7.8195    4.2467    0.0000 C   0  0  0  0  0  0  0  0  0  0  0  0
    8.8141    4.3512    0.0000 C   0  0  0  0  0  0  0  0  0  0  0  0
    4.5981    0.1307    0.0000 C   0  0  0  0  0  0  0  0  0  0  0  0
    9.2208    5.2648    0.0000 C   0  0  0  0  0  0  0  0  0  0  0  0
    9.4018    3.5422    0.0000 C   0  0  0  0  0  0  0  0  0  0  0  0
    4.5981   -0.8693    0.0000 C   0  0  0  0  0  0  0  0  0  0  0  0
   10.2153    5.3693    0.0000 C   0  0  0  0  0  0  0  0  0  0  0  0
   10.3964    3.6467    0.0000 C   0  0  0  0  0  0  0  0  0  0  0  0
   10.8031    4.5603    0.0000 C   0  0  0  0  0  0  0  0  0  0  0  0
    3.7320   -1.3693    0.0000 C   0  0  0  0  0  0  0  0  0  0  0  0
    5.4641   -1.3693    0.0000 C   0  0  0  0  0  0  0  0  0  0  0  0
    3.7320   -2.3693    0.0000 C   0  0  0  0  0  0  0  0  0  0  0  0
    4.5981   -2.8693    0.0000 C   0  0  0  0  0  0  0  0  0  0  0  0
    5.4641   -2.3693    0.0000 C   0  0  0  0  0  0  0  0  0  0  0  0
    5.4641   -4.3693    0.0000 C   0  0  0  0  0  0  0  0  0  0  0  0
    3.7320   -4.3693    0.0000 C   0  0  0  0  0  0  0  0  0  0  0  0
    2.0000   -1.3693    0.0000 C   0  0  0  0  0  0  0  0  0  0  0  0
    3.7320   -5.3693    0.0000 C   0  0  0  0  0  0  0  0  0  0  0  0
    6.3626    1.5116    0.0000 H   0  0  0  0  0  0  0  0  0  0  0  0
    6.9337    1.1870    0.0000 H   0  0  0  0  0  0  0  0  0  0  0  0
    7.7453    1.3596    0.0000 H   0  0  0  0  0  0  0  0  0  0  0  0
    6.3698    3.7418    0.0000 H   0  0  0  0  0  0  0  0  0  0  0  0
    5.8147    3.1252    0.0000 H   0  0  0  0  0  0  0  0  0  0  0  0
    8.3277    2.0064    0.0000 H   0  0  0  0  0  0  0  0  0  0  0  0
    8.4144    2.8315    0.0000 H   0  0  0  0  0  0  0  0  0  0  0  0
    5.2520    2.2133    0.0000 H   0  0  0  0  0  0  0  0  0  0  0  0
    4.8535    1.5230    0.0000 H   0  0  0  0  0  0  0  0  0  0  0  0
    7.8628    4.8652    0.0000 H   0  0  0  0  0  0  0  0  0  0  0  0
    7.2180    4.3967    0.0000 H   0  0  0  0  0  0  0  0  0  0  0  0
    6.0010    0.3207    0.0000 H   0  0  0  0  0  0  0  0  0  0  0  0
    8.8564    5.7664    0.0000 H   0  0  0  0  0  0  0  0  0  0  0  0
    9.1497    2.9758    0.0000 H   0  0  0  0  0  0  0  0  0  0  0  0
   10.4675    5.9357    0.0000 H   0  0  0  0  0  0  0  0  0  0  0  0
   10.7608    3.1451    0.0000 H   0  0  0  0  0  0  0  0  0  0  0  0
   11.4197    4.6251    0.0000 H   0  0  0  0  0  0  0  0  0  0  0  0
    6.0010   -1.0593    0.0000 H   0  0  0  0  0  0  0  0  0  0  0  0
    3.1951   -2.6793    0.0000 H   0  0  0  0  0  0  0  0  0  0  0  0
    5.1541   -4.9062    0.0000 H   0  0  0  0  0  0  0  0  0  0  0  0
    6.0010   -4.6793    0.0000 H   0  0  0  0  0  0  0  0  0  0  0  0
    5.7741   -3.8324    0.0000 H   0  0  0  0  0  0  0  0  0  0  0  0
    1.6900   -0.8324    0.0000 H   0  0  0  0  0  0  0  0  0  0  0  0
    1.4631   -1.6793    0.0000 H   0  0  0  0  0  0  0  0  0  0  0  0
    2.3100   -1.9062    0.0000 H   0  0  0  0  0  0  0  0  0  0  0  0
    3.1120   -5.3693    0.0000 H   0  0  0  0  0  0  0  0  0  0  0  0
    3.7320   -5.9893    0.0000 H   0  0  0  0  0  0  0  0  0  0  0  0
    4.3520   -5.3693    0.0000 H   0  0  0  0  0  0  0  0  0  0  0  0
  1 26  1  0  0  0  0
  2 15  2  0  0  0  0
  3 22  1  0  0  0  0
  3 29  1  0  0  0  0
  4 28  2  0  0  0  0
  5 10  1  0  0  0  0
  5 11  1  0  0  0  0
  5 13  1  0  0  0  0
  6 12  1  0  0  0  0
  6 15  1  0  0  0  0
  6 42  1  0  0  0  0
  7 25  1  0  0  0  0
  7 27  1  0  0  0  0
  7 28  1  0  0  0  0
  8  9  1  0  0  0  0
  8 10  1  0  0  0  0
  8 12  1  1  0  0  0
  8 31  1  0  0  0  0
  9 11  1  0  0  0  0
  9 32  1  0  0  0  0
  9 33  1  0  0  0  0
 10 34  1  0  0  0  0
 10 35  1  0  0  0  0
 11 36  1  0  0  0  0
 11 37  1  0  0  0  0
 12 38  1  0  0  0  0
 12 39  1  0  0  0  0
 13 14  1  0  0  0  0
 13 40  1  0  0  0  0
 13 41  1  0  0  0  0
 14 16  2  0  0  0  0
 14 17  1  0  0  0  0
 15 18  1  0  0  0  0
 16 19  1  0  0  0  0
 16 43  1  0  0  0  0
 17 20  2  0  0  0  0
 17 44  1  0  0  0  0
 18 22  1  0  0  0  0
 18 23  2  0  0  0  0
 19 21  2  0  0  0  0
 19 45  1  0  0  0  0
 20 21  1  0  0  0  0
 20 46  1  0  0  0  0
 21 47  1  0  0  0  0
 22 24  2  0  0  0  0
 23 26  1  0  0  0  0
 23 48  1  0  0  0  0
 24 25  1  0  0  0  0
 24 49  1  0  0  0  0
 25 26  2  0  0  0  0
 27 50  1  0  0  0  0
 27 51  1  0  0  0  0
 27 52  1  0  0  0  0
 28 30  1  0  0  0  0
 29 53  1  0  0  0  0
 29 54  1  0  0  0  0
 29 55  1  0  0  0  0
 30 56  1  0  0  0  0
 30 57  1  0  0  0  0
 30 58  1  0  0  0  0
M  END
> <PUBCHEM_COMPOUND_CID>
44381146

> <PUBCHEM_COMPOUND_CANONICALIZED>
1

> <PUBCHEM_CACTVS_COMPLEXITY>
584

> <PUBCHEM_CACTVS_HBOND_ACCEPTOR>
4

> <PUBCHEM_CACTVS_HBOND_DONOR>
1

> <PUBCHEM_CACTVS_ROTATABLE_BOND>
7

> <PUBCHEM_CACTVS_SUBSKEYS>
AAADceB7MAAEAAAAAAAAAAAAAAAAAWAAAAAwYAAAAAAAAAABQAAAHgIQAAAADQ7BmCYyxoPABACIAiVSUACCCAAlJwAIiIEObsgMJjbF95vEMWhm9hnI6YeY2SOeCCAAIgAIABAQQABEABAAIAAAAAAAAA==

> <PUBCHEM_IUPAC_OPENEYE_NAME>
4-[acetyl(methyl)amino]-N-[[(3S)-1-benzylpyrrolidin-3-yl]methyl]-5-chloro-2-methoxy-benzamide

> <PUBCHEM_IUPAC_CAS_NAME>
4-[acetyl(methyl)amino]-5-chloro-2-methoxy-N-[[(3S)-1-(phenylmethyl)-3-pyrrolidinyl]methyl]benzamide

> <PUBCHEM_IUPAC_NAME_MARKUP>
4-[acetyl(methyl)amino]-<I>N</I>-[[(3<I>S</I>)-1-benzylpyrrolidin-3-yl]methyl]-5-chloro-2-methoxybenzamide

> <PUBCHEM_IUPAC_NAME>
4-[acetyl(methyl)amino]-N-[[(3S)-1-benzylpyrrolidin-3-yl]methyl]-5-chloro-2-methoxybenzamide

> <PUBCHEM_IUPAC_SYSTEMATIC_NAME>
5-chloranyl-4-[ethanoyl(methyl)amino]-2-methoxy-N-[[(3S)-1-(phenylmethyl)pyrrolidin-3-yl]methyl]benzamide

> <PUBCHEM_IUPAC_TRADITIONAL_NAME>
4-[acetyl(methyl)amino]-N-[[(3S)-1-benzylpyrrolidin-3-yl]methyl]-5-chloro-2-methoxy-benzamide

> <PUBCHEM_IUPAC_INCHI>
InChI=1S/C23H28ClN3O3/c1-16(28)26(2)21-12-22(30-3)19(11-20(21)24)23(29)25-13-18-9-10-27(15-18)14-17-7-5-4-6-8-17/h4-8,11-12,18H,9-10,13-15H2,1-3H3,(H,25,29)/t18-/m0/s1

> <PUBCHEM_IUPAC_INCHIKEY>
PCPQHGBAGOWPLH-SFHVURJKSA-N

> <PUBCHEM_XLOGP3_AA>
3.1

> <PUBCHEM_EXACT_MASS>
429.1819195

> <PUBCHEM_MOLECULAR_FORMULA>
C23H28ClN3O3

> <PUBCHEM_MOLECULAR_WEIGHT>
429.9

> <PUBCHEM_OPENEYE_CAN_SMILES>
CC(=O)N(C)C1=C(C=C(C(=C1)OC)C(=O)NCC2CCN(C2)CC3=CC=CC=C3)Cl

> <PUBCHEM_OPENEYE_ISO_SMILES>
CC(=O)N(C)C1=C(C=C(C(=C1)OC)C(=O)NC[C@@H]2CCN(C2)CC3=CC=CC=C3)Cl

> <PUBCHEM_CACTVS_TPSA>
61.9

> <PUBCHEM_MONOISOTOPIC_WEIGHT>
429.1819195

> <PUBCHEM_TOTAL_CHARGE>
0

> <PUBCHEM_HEAVY_ATOM_COUNT>
30

> <PUBCHEM_ATOM_DEF_STEREO_COUNT>
1

> <PUBCHEM_ATOM_UDEF_STEREO_COUNT>
0

> <PUBCHEM_BOND_DEF_STEREO_COUNT>
0

> <PUBCHEM_BOND_UDEF_STEREO_COUNT>
0

> <PUBCHEM_ISOTOPIC_ATOM_COUNT>
0

> <PUBCHEM_COMPONENT_COUNT>
1

> <PUBCHEM_CACTVS_TAUTO_COUNT>
-1

> <PUBCHEM_COORDINATE_TYPE>
1
5
255

> <PUBCHEM_BONDANNOTATIONS>
14  16  8
14  17  8
16  19  8
17  20  8
18  22  8
18  23  8
19  21  8
20  21  8
22  24  8
23  26  8
24  25  8
25  26  8
8  12  5

$$$$
