71657945
  -OEChem-09292322332D

 65 67  0     1  0  0  0  0  0999 V2000
    6.3159    7.8517    0.0000 F   0  0  0  0  0  0  0  0  0  0  0  0
    2.8660   -5.8517    0.0000 O   0  0  0  0  0  0  0  0  0  0  0  0
    3.7126    2.4459    0.0000 O   0  0  0  0  0  0  0  0  0  0  0  0
    5.0981   -2.6610    0.0000 N   0  0  3  0  0  0  0  0  0  0  0  0
    4.5981   -4.8517    0.0000 N   0  0  3  0  0  0  0  0  0  0  0  0
    5.2731    1.6944    0.0000 N   0  0  0  0  0  0  0  0  0  0  0  0
    4.0981   -2.6610    0.0000 C   0  0  0  0  0  0  0  0  0  0  0  0
    5.7216   -3.4429    0.0000 C   0  0  0  0  0  0  0  0  0  0  0  0
    3.4746   -3.4429    0.0000 C   0  0  0  0  0  0  0  0  0  0  0  0
    5.4990   -4.4178    0.0000 C   0  0  0  0  0  0  0  0  0  0  0  0
    3.6971   -4.4178    0.0000 C   0  0  0  0  0  0  0  0  0  0  0  0
    5.5320   -1.7601    0.0000 C   0  0  0  0  0  0  0  0  0  0  0  0
    4.9686   -0.9338    0.0000 C   0  0  0  0  0  0  0  0  0  0  0  0
    4.5981   -5.8517    0.0000 C   0  0  0  0  0  0  0  0  0  0  0  0
    5.4025   -0.0329    0.0000 C   0  0  0  0  0  0  0  0  0  0  0  0
    4.8392    0.7934    0.0000 C   0  0  0  0  0  0  0  0  0  0  0  0
    3.7320   -6.3517    0.0000 C   0  0  0  0  0  0  0  0  0  0  0  0
    5.4641   -6.3517    0.0000 C   0  0  0  0  0  0  0  0  0  0  0  0
    3.7320   -7.3517    0.0000 C   0  0  0  0  0  0  0  0  0  0  0  0
    5.4641   -7.3517    0.0000 C   0  0  0  0  0  0  0  0  0  0  0  0
    4.5981   -7.8517    0.0000 C   0  0  0  0  0  0  0  0  0  0  0  0
    4.7098    2.5206    0.0000 C   0  0  0  0  0  0  0  0  0  0  0  0
    5.1436    3.4216    0.0000 C   0  0  0  0  0  0  0  0  0  0  0  0
    2.0000   -6.3517    0.0000 C   0  0  0  0  0  0  0  0  0  0  0  0
    6.1408    3.4963    0.0000 C   0  0  0  0  0  0  0  0  0  0  0  0
    4.5803    4.2478    0.0000 C   0  0  0  0  0  0  0  0  0  0  0  0
    6.0114    5.2235    0.0000 C   0  0  0  0  0  0  0  0  0  0  0  0
    6.5747    4.3973    0.0000 C   0  0  0  0  0  0  0  0  0  0  0  0
    5.0142    5.1488    0.0000 C   0  0  0  0  0  0  0  0  0  0  0  0
    6.4453    6.1245    0.0000 C   0  0  0  0  0  0  0  0  0  0  0  0
    5.8820    6.9507    0.0000 C   0  0  0  0  0  0  0  0  0  0  0  0
    4.2360   -2.0566    0.0000 H   0  0  0  0  0  0  0  0  0  0  0  0
    3.5395   -2.3920    0.0000 H   0  0  0  0  0  0  0  0  0  0  0  0
    6.2802   -3.7119    0.0000 H   0  0  0  0  0  0  0  0  0  0  0  0
    6.1081   -2.9581    0.0000 H   0  0  0  0  0  0  0  0  0  0  0  0
    3.0880   -2.9581    0.0000 H   0  0  0  0  0  0  0  0  0  0  0  0
    2.9160   -3.7119    0.0000 H   0  0  0  0  0  0  0  0  0  0  0  0
    5.6370   -5.0222    0.0000 H   0  0  0  0  0  0  0  0  0  0  0  0
    6.1190   -4.4178    0.0000 H   0  0  0  0  0  0  0  0  0  0  0  0
    3.0771   -4.4178    0.0000 H   0  0  0  0  0  0  0  0  0  0  0  0
    3.5591   -5.0222    0.0000 H   0  0  0  0  0  0  0  0  0  0  0  0
    6.0354   -2.1220    0.0000 H   0  0  0  0  0  0  0  0  0  0  0  0
    5.9758   -1.3272    0.0000 H   0  0  0  0  0  0  0  0  0  0  0  0
    4.4652   -0.5719    0.0000 H   0  0  0  0  0  0  0  0  0  0  0  0
    4.5248   -1.3667    0.0000 H   0  0  0  0  0  0  0  0  0  0  0  0
    5.9059   -0.3948    0.0000 H   0  0  0  0  0  0  0  0  0  0  0  0
    5.8464    0.4001    0.0000 H   0  0  0  0  0  0  0  0  0  0  0  0
    4.3358    1.1553    0.0000 H   0  0  0  0  0  0  0  0  0  0  0  0
    4.3954    0.3605    0.0000 H   0  0  0  0  0  0  0  0  0  0  0  0
    6.0010   -6.0417    0.0000 H   0  0  0  0  0  0  0  0  0  0  0  0
    3.1951   -7.6617    0.0000 H   0  0  0  0  0  0  0  0  0  0  0  0
    5.8914    1.7407    0.0000 H   0  0  0  0  0  0  0  0  0  0  0  0
    6.0010   -7.6617    0.0000 H   0  0  0  0  0  0  0  0  0  0  0  0
    4.5981   -8.4717    0.0000 H   0  0  0  0  0  0  0  0  0  0  0  0
    1.6900   -5.8147    0.0000 H   0  0  0  0  0  0  0  0  0  0  0  0
    1.4631   -6.6617    0.0000 H   0  0  0  0  0  0  0  0  0  0  0  0
    2.3100   -6.8886    0.0000 H   0  0  0  0  0  0  0  0  0  0  0  0
    6.4901    2.9840    0.0000 H   0  0  0  0  0  0  0  0  0  0  0  0
    3.9621    4.2015    0.0000 H   0  0  0  0  0  0  0  0  0  0  0  0
    7.1930    4.4436    0.0000 H   0  0  0  0  0  0  0  0  0  0  0  0
    4.6650    5.6610    0.0000 H   0  0  0  0  0  0  0  0  0  0  0  0
    6.9487    5.7626    0.0000 H   0  0  0  0  0  0  0  0  0  0  0  0
    6.8891    6.5574    0.0000 H   0  0  0  0  0  0  0  0  0  0  0  0
    5.3786    7.3126    0.0000 H   0  0  0  0  0  0  0  0  0  0  0  0
    5.4381    6.5178    0.0000 H   0  0  0  0  0  0  0  0  0  0  0  0
  1 31  1  0  0  0  0
  2 17  1  0  0  0  0
  2 24  1  0  0  0  0
  3 22  2  0  0  0  0
  4  7  1  0  0  0  0
  4  8  1  0  0  0  0
  4 12  1  0  0  0  0
  5 10  1  0  0  0  0
  5 11  1  0  0  0  0
  5 14  1  0  0  0  0
  6 16  1  0  0  0  0
  6 22  1  0  0  0  0
  6 52  1  0  0  0  0
  7  9  1  0  0  0  0
  7 32  1  0  0  0  0
  7 33  1  0  0  0  0
  8 10  1  0  0  0  0
  8 34  1  0  0  0  0
  8 35  1  0  0  0  0
  9 11  1  0  0  0  0
  9 36  1  0  0  0  0
  9 37  1  0  0  0  0
 10 38  1  0  0  0  0
 10 39  1  0  0  0  0
 11 40  1  0  0  0  0
 11 41  1  0  0  0  0
 12 13  1  0  0  0  0
 12 42  1  0  0  0  0
 12 43  1  0  0  0  0
 13 15  1  0  0  0  0
 13 44  1  0  0  0  0
 13 45  1  0  0  0  0
 14 17  1  0  0  0  0
 14 18  2  0  0  0  0
 15 16  1  0  0  0  0
 15 46  1  0  0  0  0
 15 47  1  0  0  0  0
 16 48  1  0  0  0  0
 16 49  1  0  0  0  0
 17 19  2  0  0  0  0
 18 20  1  0  0  0  0
 18 50  1  0  0  0  0
 19 21  1  0  0  0  0
 19 51  1  0  0  0  0
 20 21  2  0  0  0  0
 20 53  1  0  0  0  0
 21 54  1  0  0  0  0
 22 23  1  0  0  0  0
 23 25  2  0  0  0  0
 23 26  1  0  0  0  0
 24 55  1  0  0  0  0
 24 56  1  0  0  0  0
 24 57  1  0  0  0  0
 25 28  1  0  0  0  0
 25 58  1  0  0  0  0
 26 29  2  0  0  0  0
 26 59  1  0  0  0  0
 27 28  2  0  0  0  0
 27 29  1  0  0  0  0
 27 30  1  0  0  0  0
 28 60  1  0  0  0  0
 29 61  1  0  0  0  0
 30 31  1  0  0  0  0
 30 62  1  0  0  0  0
 30 63  1  0  0  0  0
 31 64  1  0  0  0  0
 31 65  1  0  0  0  0
M  END
> <PUBCHEM_COMPOUND_CID>
71657945

> <PUBCHEM_COMPOUND_CANONICALIZED>
1

> <PUBCHEM_CACTVS_COMPLEXITY>
513

> <PUBCHEM_CACTVS_HBOND_ACCEPTOR>
5

> <PUBCHEM_CACTVS_HBOND_DONOR>
1

> <PUBCHEM_CACTVS_ROTATABLE_BOND>
10

> <PUBCHEM_CACTVS_SUBSKEYS>
AAADcfB7MQAAAAAAAAAAAAAAAAAAAAAAAAAwYAAABYAAAAABQAAAHwAQAAAADAzBmAYyxoPABACIAiVSUACCCAAlIgAIiIEPbMgOZjLE9ZuVMShk1hHY6YeYyMCOQAAAAAAAEACAAAAAAAAgAAAAAAAAAA==

> <PUBCHEM_IUPAC_OPENEYE_NAME>
4-(2-fluoroethyl)-N-[4-[4-(2-methoxyphenyl)-1,4-diazepan-1-yl]butyl]benzamide

> <PUBCHEM_IUPAC_CAS_NAME>
4-(2-fluoroethyl)-N-[4-[4-(2-methoxyphenyl)-1,4-diazepan-1-yl]butyl]benzamide

> <PUBCHEM_IUPAC_NAME_MARKUP>
4-(2-fluoroethyl)-<I>N</I>-[4-[4-(2-methoxyphenyl)-1,4-diazepan-1-yl]butyl]benzamide

> <PUBCHEM_IUPAC_NAME>
4-(2-fluoroethyl)-N-[4-[4-(2-methoxyphenyl)-1,4-diazepan-1-yl]butyl]benzamide

> <PUBCHEM_IUPAC_SYSTEMATIC_NAME>
4-(2-fluoranylethyl)-N-[4-[4-(2-methoxyphenyl)-1,4-diazepan-1-yl]butyl]benzamide

> <PUBCHEM_IUPAC_TRADITIONAL_NAME>
4-(2-fluoroethyl)-N-[4-[4-(2-methoxyphenyl)-1,4-diazepan-1-yl]butyl]benzamide

> <PUBCHEM_IUPAC_INCHI>
InChI=1S/C25H34FN3O2/c1-31-24-8-3-2-7-23(24)29-18-6-17-28(19-20-29)16-5-4-15-27-25(30)22-11-9-21(10-12-22)13-14-26/h2-3,7-12H,4-6,13-20H2,1H3,(H,27,30)

> <PUBCHEM_IUPAC_INCHIKEY>
MRZXGFAYAQXVTL-UHFFFAOYSA-N

> <PUBCHEM_XLOGP3_AA>
4.5

> <PUBCHEM_EXACT_MASS>
427.26350550

> <PUBCHEM_MOLECULAR_FORMULA>
C25H34FN3O2

> <PUBCHEM_MOLECULAR_WEIGHT>
427.6

> <PUBCHEM_OPENEYE_CAN_SMILES>
COC1=CC=CC=C1N2CCCN(CC2)CCCCNC(=O)C3=CC=C(C=C3)CCF

> <PUBCHEM_OPENEYE_ISO_SMILES>
COC1=CC=CC=C1N2CCCN(CC2)CCCCNC(=O)C3=CC=C(C=C3)CCF

> <PUBCHEM_CACTVS_TPSA>
44.8

> <PUBCHEM_MONOISOTOPIC_WEIGHT>
427.26350550

> <PUBCHEM_TOTAL_CHARGE>
0

> <PUBCHEM_HEAVY_ATOM_COUNT>
31

> <PUBCHEM_ATOM_DEF_STEREO_COUNT>
0

> <PUBCHEM_ATOM_UDEF_STEREO_COUNT>
0

> <PUBCHEM_BOND_DEF_STEREO_COUNT>
0

> <PUBCHEM_BOND_UDEF_STEREO_COUNT>
0

> <PUBCHEM_ISOTOPIC_ATOM_COUNT>
0

> <PUBCHEM_COMPONENT_COUNT>
1

> <PUBCHEM_CACTVS_TAUTO_COUNT>
-1

> <PUBCHEM_COORDINATE_TYPE>
1
5
255

> <PUBCHEM_BONDANNOTATIONS>
14  17  8
14  18  8
17  19  8
18  20  8
19  21  8
20  21  8
23  25  8
23  26  8
25  28  8
26  29  8
27  28  8
27  29  8

$$$$
