44338237
  -OEChem-09292322192D

 52 55  0     0  0  0  0  0  0999 V2000
    8.9030    2.3201    0.0000 Cl  0  0  0  0  0  0  0  0  0  0  0  0
    6.2619   -0.2601    0.0000 S   0  0  0  0  0  0  0  0  0  0  0  0
   11.2619   -0.2601    0.0000 O   0  0  0  0  0  0  0  0  0  0  0  0
    4.6783    0.5447    0.0000 N   0  0  0  0  0  0  0  0  0  0  0  0
    4.6783   -1.0648    0.0000 N   0  0  0  0  0  0  0  0  0  0  0  0
   11.2619   -1.9921    0.0000 N   0  0  0  0  0  0  0  0  0  0  0  0
    3.7320    0.2399    0.0000 C   0  0  0  0  0  0  0  0  0  0  0  0
    4.9889    1.4952    0.0000 C   0  0  0  0  0  0  0  0  0  0  0  0
    5.2619   -0.2601    0.0000 C   0  0  0  0  0  0  0  0  0  0  0  0
    3.7320   -0.7601    0.0000 C   0  0  0  0  0  0  0  0  0  0  0  0
    5.9674    1.7014    0.0000 C   0  0  0  0  0  0  0  0  0  0  0  0
    2.8660    0.7399    0.0000 C   0  0  0  0  0  0  0  0  0  0  0  0
    2.8660   -1.2601    0.0000 C   0  0  0  0  0  0  0  0  0  0  0  0
    6.7619   -1.1261    0.0000 C   0  0  0  0  0  0  0  0  0  0  0  0
    7.7619   -1.1261    0.0000 C   0  0  0  0  0  0  0  0  0  0  0  0
    2.0000    0.2399    0.0000 C   0  0  0  0  0  0  0  0  0  0  0  0
    6.2781    2.6519    0.0000 C   0  0  0  0  0  0  0  0  0  0  0  0
    6.6353    0.9571    0.0000 C   0  0  0  0  0  0  0  0  0  0  0  0
    2.0000   -0.7601    0.0000 C   0  0  0  0  0  0  0  0  0  0  0  0
    8.2619   -1.9921    0.0000 C   0  0  0  0  0  0  0  0  0  0  0  0
    8.2619   -0.2601    0.0000 C   0  0  0  0  0  0  0  0  0  0  0  0
    9.7619   -1.1261    0.0000 C   0  0  0  0  0  0  0  0  0  0  0  0
    7.2566    2.8581    0.0000 C   0  0  0  0  0  0  0  0  0  0  0  0
    7.6138    1.1633    0.0000 C   0  0  0  0  0  0  0  0  0  0  0  0
    9.2619   -1.9921    0.0000 C   0  0  0  0  0  0  0  0  0  0  0  0
    9.2619   -0.2601    0.0000 C   0  0  0  0  0  0  0  0  0  0  0  0
    7.9244    2.1138    0.0000 C   0  0  0  0  0  0  0  0  0  0  0  0
   10.7619   -1.1261    0.0000 C   0  0  0  0  0  0  0  0  0  0  0  0
   12.2619   -1.9921    0.0000 C   0  0  0  0  0  0  0  0  0  0  0  0
   10.7619   -2.8581    0.0000 C   0  0  0  0  0  0  0  0  0  0  0  0
    4.9684    2.1148    0.0000 H   0  0  0  0  0  0  0  0  0  0  0  0
    4.3751    1.5825    0.0000 H   0  0  0  0  0  0  0  0  0  0  0  0
    2.8660    1.3599    0.0000 H   0  0  0  0  0  0  0  0  0  0  0  0
    2.8660   -1.8801    0.0000 H   0  0  0  0  0  0  0  0  0  0  0  0
    6.1793   -1.3382    0.0000 H   0  0  0  0  0  0  0  0  0  0  0  0
    6.8695   -1.7367    0.0000 H   0  0  0  0  0  0  0  0  0  0  0  0
    1.4631    0.5499    0.0000 H   0  0  0  0  0  0  0  0  0  0  0  0
    5.8640    3.1134    0.0000 H   0  0  0  0  0  0  0  0  0  0  0  0
    6.4427    0.3678    0.0000 H   0  0  0  0  0  0  0  0  0  0  0  0
    1.4631   -1.0701    0.0000 H   0  0  0  0  0  0  0  0  0  0  0  0
    7.9519   -2.5290    0.0000 H   0  0  0  0  0  0  0  0  0  0  0  0
    7.9519    0.2769    0.0000 H   0  0  0  0  0  0  0  0  0  0  0  0
    7.4492    3.4475    0.0000 H   0  0  0  0  0  0  0  0  0  0  0  0
    8.0279    0.7019    0.0000 H   0  0  0  0  0  0  0  0  0  0  0  0
    9.5719   -2.5290    0.0000 H   0  0  0  0  0  0  0  0  0  0  0  0
    9.5719    0.2769    0.0000 H   0  0  0  0  0  0  0  0  0  0  0  0
   12.2619   -2.6121    0.0000 H   0  0  0  0  0  0  0  0  0  0  0  0
   12.8819   -1.9921    0.0000 H   0  0  0  0  0  0  0  0  0  0  0  0
   12.2619   -1.3721    0.0000 H   0  0  0  0  0  0  0  0  0  0  0  0
   10.2249   -2.5481    0.0000 H   0  0  0  0  0  0  0  0  0  0  0  0
   10.4519   -3.3951    0.0000 H   0  0  0  0  0  0  0  0  0  0  0  0
   11.2988   -3.1681    0.0000 H   0  0  0  0  0  0  0  0  0  0  0  0
  1 27  1  0  0  0  0
  2  9  1  0  0  0  0
  2 14  1  0  0  0  0
  3 28  2  0  0  0  0
  4  7  1  0  0  0  0
  4  8  1  0  0  0  0
  4  9  1  0  0  0  0
  5  9  2  0  0  0  0
  5 10  1  0  0  0  0
  6 28  1  0  0  0  0
  6 29  1  0  0  0  0
  6 30  1  0  0  0  0
  7 10  1  0  0  0  0
  7 12  2  0  0  0  0
  8 11  1  0  0  0  0
  8 31  1  0  0  0  0
  8 32  1  0  0  0  0
 10 13  2  0  0  0  0
 11 17  2  0  0  0  0
 11 18  1  0  0  0  0
 12 16  1  0  0  0  0
 12 33  1  0  0  0  0
 13 19  1  0  0  0  0
 13 34  1  0  0  0  0
 14 15  1  0  0  0  0
 14 35  1  0  0  0  0
 14 36  1  0  0  0  0
 15 20  2  0  0  0  0
 15 21  1  0  0  0  0
 16 19  2  0  0  0  0
 16 37  1  0  0  0  0
 17 23  1  0  0  0  0
 17 38  1  0  0  0  0
 18 24  2  0  0  0  0
 18 39  1  0  0  0  0
 19 40  1  0  0  0  0
 20 25  1  0  0  0  0
 20 41  1  0  0  0  0
 21 26  2  0  0  0  0
 21 42  1  0  0  0  0
 22 25  2  0  0  0  0
 22 26  1  0  0  0  0
 22 28  1  0  0  0  0
 23 27  2  0  0  0  0
 23 43  1  0  0  0  0
 24 27  1  0  0  0  0
 24 44  1  0  0  0  0
 25 45  1  0  0  0  0
 26 46  1  0  0  0  0
 29 47  1  0  0  0  0
 29 48  1  0  0  0  0
 29 49  1  0  0  0  0
 30 50  1  0  0  0  0
 30 51  1  0  0  0  0
 30 52  1  0  0  0  0
M  END
> <PUBCHEM_COMPOUND_CID>
44338237

> <PUBCHEM_COMPOUND_CANONICALIZED>
1

> <PUBCHEM_CACTVS_COMPLEXITY>
561

> <PUBCHEM_CACTVS_HBOND_ACCEPTOR>
3

> <PUBCHEM_CACTVS_HBOND_DONOR>
0

> <PUBCHEM_CACTVS_ROTATABLE_BOND>
6

> <PUBCHEM_CACTVS_SUBSKEYS>
AAADceB7IABEAAAAAAAAAAAAAAAAAWAAAAAwYMAAAAAAAFgB9AAAHgYAAAAADArF3iSz0LcMEAioAyVydACC0C1lF7AJ2CE4dtiIaLLhn5GUIQhoggLIyacYiACORAAAAAAAACCIAAAAAAAAQAAAAAAAAA==

> <PUBCHEM_IUPAC_OPENEYE_NAME>
4-[[1-[(4-chlorophenyl)methyl]benzimidazol-2-yl]sulfanylmethyl]-N,N-dimethyl-benzamide

> <PUBCHEM_IUPAC_CAS_NAME>
4-[[[1-[(4-chlorophenyl)methyl]-2-benzimidazolyl]thio]methyl]-N,N-dimethylbenzamide

> <PUBCHEM_IUPAC_NAME_MARKUP>
4-[[1-[(4-chlorophenyl)methyl]benzimidazol-2-yl]sulfanylmethyl]-<I>N</I>,<I>N</I>-dimethylbenzamide

> <PUBCHEM_IUPAC_NAME>
4-[[1-[(4-chlorophenyl)methyl]benzimidazol-2-yl]sulfanylmethyl]-N,N-dimethylbenzamide

> <PUBCHEM_IUPAC_SYSTEMATIC_NAME>
4-[[1-[(4-chlorophenyl)methyl]benzimidazol-2-yl]sulfanylmethyl]-N,N-dimethyl-benzamide

> <PUBCHEM_IUPAC_TRADITIONAL_NAME>
4-[[[1-(4-chlorobenzyl)benzimidazol-2-yl]thio]methyl]-N,N-dimethyl-benzamide

> <PUBCHEM_IUPAC_INCHI>
InChI=1S/C24H22ClN3OS/c1-27(2)23(29)19-11-7-18(8-12-19)16-30-24-26-21-5-3-4-6-22(21)28(24)15-17-9-13-20(25)14-10-17/h3-14H,15-16H2,1-2H3

> <PUBCHEM_IUPAC_INCHIKEY>
TXJCSVPVPOVNIL-UHFFFAOYSA-N

> <PUBCHEM_XLOGP3_AA>
5.5

> <PUBCHEM_EXACT_MASS>
435.1172112

> <PUBCHEM_MOLECULAR_FORMULA>
C24H22ClN3OS

> <PUBCHEM_MOLECULAR_WEIGHT>
436.0

> <PUBCHEM_OPENEYE_CAN_SMILES>
CN(C)C(=O)C1=CC=C(C=C1)CSC2=NC3=CC=CC=C3N2CC4=CC=C(C=C4)Cl

> <PUBCHEM_OPENEYE_ISO_SMILES>
CN(C)C(=O)C1=CC=C(C=C1)CSC2=NC3=CC=CC=C3N2CC4=CC=C(C=C4)Cl

> <PUBCHEM_CACTVS_TPSA>
63.4

> <PUBCHEM_MONOISOTOPIC_WEIGHT>
435.1172112

> <PUBCHEM_TOTAL_CHARGE>
0

> <PUBCHEM_HEAVY_ATOM_COUNT>
30

> <PUBCHEM_ATOM_DEF_STEREO_COUNT>
0

> <PUBCHEM_ATOM_UDEF_STEREO_COUNT>
0

> <PUBCHEM_BOND_DEF_STEREO_COUNT>
0

> <PUBCHEM_BOND_UDEF_STEREO_COUNT>
0

> <PUBCHEM_ISOTOPIC_ATOM_COUNT>
0

> <PUBCHEM_COMPONENT_COUNT>
1

> <PUBCHEM_CACTVS_TAUTO_COUNT>
-1

> <PUBCHEM_COORDINATE_TYPE>
1
5
255

> <PUBCHEM_BONDANNOTATIONS>
10  13  8
11  17  8
11  18  8
12  16  8
13  19  8
15  20  8
15  21  8
16  19  8
17  23  8
18  24  8
20  25  8
21  26  8
22  25  8
22  26  8
23  27  8
24  27  8
4  7  8
4  9  8
5  10  8
5  9  8
7  10  8
7  12  8

$$$$
