134136134
  -OEChem-09292322382D

 91 95  0     0  0  0  0  0  0999 V2000
   10.6603   10.0000    0.0000 O   0  0  0  0  0  0  0  0  0  0  0  0
    8.9282    5.0000    0.0000 O   0  0  0  0  0  0  0  0  0  0  0  0
    8.9282   -1.0000    0.0000 O   0  0  0  0  0  0  0  0  0  0  0  0
    5.4641   -5.0000    0.0000 N   0  0  0  0  0  0  0  0  0  0  0  0
    5.4641   -7.0000    0.0000 N   0  0  0  0  0  0  0  0  0  0  0  0
   10.6603    8.0000    0.0000 N   0  0  0  0  0  0  0  0  0  0  0  0
    8.0622    0.5000    0.0000 N   0  0  0  0  0  0  0  0  0  0  0  0
    4.5981   -5.5000    0.0000 C   0  0  0  0  0  0  0  0  0  0  0  0
    6.3301   -5.5000    0.0000 C   0  0  0  0  0  0  0  0  0  0  0  0
    4.5981   -6.5000    0.0000 C   0  0  0  0  0  0  0  0  0  0  0  0
    6.3301   -6.5000    0.0000 C   0  0  0  0  0  0  0  0  0  0  0  0
    5.4641   -4.0000    0.0000 C   0  0  0  0  0  0  0  0  0  0  0  0
    6.3301   -3.5000    0.0000 C   0  0  0  0  0  0  0  0  0  0  0  0
    5.4641   -8.0000    0.0000 C   0  0  0  0  0  0  0  0  0  0  0  0
    6.3301   -2.5000    0.0000 C   0  0  0  0  0  0  0  0  0  0  0  0
    7.1962   -2.0000    0.0000 C   0  0  0  0  0  0  0  0  0  0  0  0
    4.5981   -8.5000    0.0000 C   0  0  0  0  0  0  0  0  0  0  0  0
    6.3301   -8.5000    0.0000 C   0  0  0  0  0  0  0  0  0  0  0  0
    7.1962   -1.0000    0.0000 C   0  0  0  0  0  0  0  0  0  0  0  0
    4.5981   -9.5000    0.0000 C   0  0  0  0  0  0  0  0  0  0  0  0
    3.7320   -8.0000    0.0000 C   0  0  0  0  0  0  0  0  0  0  0  0
    9.7942    8.5000    0.0000 C   0  0  0  0  0  0  0  0  0  0  0  0
   11.5263    8.5000    0.0000 C   0  0  0  0  0  0  0  0  0  0  0  0
   10.6603    7.0000    0.0000 C   0  0  0  0  0  0  0  0  0  0  0  0
    6.3301   -9.5000    0.0000 C   0  0  0  0  0  0  0  0  0  0  0  0
    5.4641  -10.0000    0.0000 C   0  0  0  0  0  0  0  0  0  0  0  0
    9.7942    9.5000    0.0000 C   0  0  0  0  0  0  0  0  0  0  0  0
   11.5263    9.5000    0.0000 C   0  0  0  0  0  0  0  0  0  0  0  0
    9.7942    6.5000    0.0000 C   0  0  0  0  0  0  0  0  0  0  0  0
    8.0622   -0.5000    0.0000 C   0  0  0  0  0  0  0  0  0  0  0  0
    3.7320   -7.0000    0.0000 C   0  0  0  0  0  0  0  0  0  0  0  0
    2.8660   -8.5000    0.0000 C   0  0  0  0  0  0  0  0  0  0  0  0
    9.7942    5.5000    0.0000 C   0  0  0  0  0  0  0  0  0  0  0  0
    8.9282    1.0000    0.0000 C   0  0  0  0  0  0  0  0  0  0  0  0
    2.8660   -6.5000    0.0000 C   0  0  0  0  0  0  0  0  0  0  0  0
    2.0000   -8.0000    0.0000 C   0  0  0  0  0  0  0  0  0  0  0  0
    2.0000   -7.0000    0.0000 C   0  0  0  0  0  0  0  0  0  0  0  0
    8.9282    2.0000    0.0000 C   0  0  0  0  0  0  0  0  0  0  0  0
    8.9282    4.0000    0.0000 C   0  0  0  0  0  0  0  0  0  0  0  0
    9.7942    2.5000    0.0000 C   0  0  0  0  0  0  0  0  0  0  0  0
    8.0622    2.5000    0.0000 C   0  0  0  0  0  0  0  0  0  0  0  0
    9.7942    3.5000    0.0000 C   0  0  0  0  0  0  0  0  0  0  0  0
    8.0622    3.5000    0.0000 C   0  0  0  0  0  0  0  0  0  0  0  0
    4.3860   -4.9174    0.0000 H   0  0  0  0  0  0  0  0  0  0  0  0
    3.9875   -5.6077    0.0000 H   0  0  0  0  0  0  0  0  0  0  0  0
    6.9407   -5.6077    0.0000 H   0  0  0  0  0  0  0  0  0  0  0  0
    6.5422   -4.9174    0.0000 H   0  0  0  0  0  0  0  0  0  0  0  0
    3.9875   -6.3923    0.0000 H   0  0  0  0  0  0  0  0  0  0  0  0
    4.3860   -7.0826    0.0000 H   0  0  0  0  0  0  0  0  0  0  0  0
    6.5422   -7.0826    0.0000 H   0  0  0  0  0  0  0  0  0  0  0  0
    6.9407   -6.3923    0.0000 H   0  0  0  0  0  0  0  0  0  0  0  0
    5.2520   -3.4174    0.0000 H   0  0  0  0  0  0  0  0  0  0  0  0
    4.8535   -4.1077    0.0000 H   0  0  0  0  0  0  0  0  0  0  0  0
    6.5422   -4.0826    0.0000 H   0  0  0  0  0  0  0  0  0  0  0  0
    6.9407   -3.3923    0.0000 H   0  0  0  0  0  0  0  0  0  0  0  0
    6.1181   -1.9174    0.0000 H   0  0  0  0  0  0  0  0  0  0  0  0
    5.7196   -2.6077    0.0000 H   0  0  0  0  0  0  0  0  0  0  0  0
    7.4082   -2.5826    0.0000 H   0  0  0  0  0  0  0  0  0  0  0  0
    7.8067   -1.8923    0.0000 H   0  0  0  0  0  0  0  0  0  0  0  0
    6.8671   -8.1900    0.0000 H   0  0  0  0  0  0  0  0  0  0  0  0
    6.9841   -0.4174    0.0000 H   0  0  0  0  0  0  0  0  0  0  0  0
    6.5856   -1.1077    0.0000 H   0  0  0  0  0  0  0  0  0  0  0  0
    4.0611   -9.8100    0.0000 H   0  0  0  0  0  0  0  0  0  0  0  0
    9.1836    8.6077    0.0000 H   0  0  0  0  0  0  0  0  0  0  0  0
    9.5822    7.9174    0.0000 H   0  0  0  0  0  0  0  0  0  0  0  0
   11.7383    7.9174    0.0000 H   0  0  0  0  0  0  0  0  0  0  0  0
   12.1369    8.6077    0.0000 H   0  0  0  0  0  0  0  0  0  0  0  0
   10.8723    6.4174    0.0000 H   0  0  0  0  0  0  0  0  0  0  0  0
   11.2708    7.1077    0.0000 H   0  0  0  0  0  0  0  0  0  0  0  0
    6.8671   -9.8100    0.0000 H   0  0  0  0  0  0  0  0  0  0  0  0
    9.5822   10.0826    0.0000 H   0  0  0  0  0  0  0  0  0  0  0  0
    9.1836    9.3923    0.0000 H   0  0  0  0  0  0  0  0  0  0  0  0
   12.1369    9.3923    0.0000 H   0  0  0  0  0  0  0  0  0  0  0  0
   11.7383   10.0826    0.0000 H   0  0  0  0  0  0  0  0  0  0  0  0
    5.4641  -10.6200    0.0000 H   0  0  0  0  0  0  0  0  0  0  0  0
    9.5822    7.0826    0.0000 H   0  0  0  0  0  0  0  0  0  0  0  0
    9.1836    6.3923    0.0000 H   0  0  0  0  0  0  0  0  0  0  0  0
    4.2690   -6.6900    0.0000 H   0  0  0  0  0  0  0  0  0  0  0  0
    2.8660   -9.1200    0.0000 H   0  0  0  0  0  0  0  0  0  0  0  0
   10.0063    4.9174    0.0000 H   0  0  0  0  0  0  0  0  0  0  0  0
   10.4048    5.6077    0.0000 H   0  0  0  0  0  0  0  0  0  0  0  0
    7.5252    0.8100    0.0000 H   0  0  0  0  0  0  0  0  0  0  0  0
    9.1403    0.4174    0.0000 H   0  0  0  0  0  0  0  0  0  0  0  0
    9.5388    1.1077    0.0000 H   0  0  0  0  0  0  0  0  0  0  0  0
    2.8660   -5.8800    0.0000 H   0  0  0  0  0  0  0  0  0  0  0  0
    1.4631   -8.3100    0.0000 H   0  0  0  0  0  0  0  0  0  0  0  0
    1.4631   -6.6900    0.0000 H   0  0  0  0  0  0  0  0  0  0  0  0
   10.3312    2.1900    0.0000 H   0  0  0  0  0  0  0  0  0  0  0  0
    7.5252    2.1900    0.0000 H   0  0  0  0  0  0  0  0  0  0  0  0
   10.3312    3.8100    0.0000 H   0  0  0  0  0  0  0  0  0  0  0  0
    7.5252    3.8100    0.0000 H   0  0  0  0  0  0  0  0  0  0  0  0
  1 27  1  0  0  0  0
  1 28  1  0  0  0  0
  2 33  1  0  0  0  0
  2 39  1  0  0  0  0
  3 30  2  0  0  0  0
  4  8  1  0  0  0  0
  4  9  1  0  0  0  0
  4 12  1  0  0  0  0
  5 10  1  0  0  0  0
  5 11  1  0  0  0  0
  5 14  1  0  0  0  0
  6 22  1  0  0  0  0
  6 23  1  0  0  0  0
  6 24  1  0  0  0  0
  7 30  1  0  0  0  0
  7 34  1  0  0  0  0
  7 82  1  0  0  0  0
  8 10  1  0  0  0  0
  8 44  1  0  0  0  0
  8 45  1  0  0  0  0
  9 11  1  0  0  0  0
  9 46  1  0  0  0  0
  9 47  1  0  0  0  0
 10 48  1  0  0  0  0
 10 49  1  0  0  0  0
 11 50  1  0  0  0  0
 11 51  1  0  0  0  0
 12 13  1  0  0  0  0
 12 52  1  0  0  0  0
 12 53  1  0  0  0  0
 13 15  1  0  0  0  0
 13 54  1  0  0  0  0
 13 55  1  0  0  0  0
 14 17  1  0  0  0  0
 14 18  2  0  0  0  0
 15 16  1  0  0  0  0
 15 56  1  0  0  0  0
 15 57  1  0  0  0  0
 16 19  1  0  0  0  0
 16 58  1  0  0  0  0
 16 59  1  0  0  0  0
 17 20  2  0  0  0  0
 17 21  1  0  0  0  0
 18 25  1  0  0  0  0
 18 60  1  0  0  0  0
 19 30  1  0  0  0  0
 19 61  1  0  0  0  0
 19 62  1  0  0  0  0
 20 26  1  0  0  0  0
 20 63  1  0  0  0  0
 21 31  2  0  0  0  0
 21 32  1  0  0  0  0
 22 27  1  0  0  0  0
 22 64  1  0  0  0  0
 22 65  1  0  0  0  0
 23 28  1  0  0  0  0
 23 66  1  0  0  0  0
 23 67  1  0  0  0  0
 24 29  1  0  0  0  0
 24 68  1  0  0  0  0
 24 69  1  0  0  0  0
 25 26  2  0  0  0  0
 25 70  1  0  0  0  0
 26 75  1  0  0  0  0
 27 71  1  0  0  0  0
 27 72  1  0  0  0  0
 28 73  1  0  0  0  0
 28 74  1  0  0  0  0
 29 33  1  0  0  0  0
 29 76  1  0  0  0  0
 29 77  1  0  0  0  0
 31 35  1  0  0  0  0
 31 78  1  0  0  0  0
 32 36  2  0  0  0  0
 32 79  1  0  0  0  0
 33 80  1  0  0  0  0
 33 81  1  0  0  0  0
 34 38  1  0  0  0  0
 34 83  1  0  0  0  0
 34 84  1  0  0  0  0
 35 37  2  0  0  0  0
 35 85  1  0  0  0  0
 36 37  1  0  0  0  0
 36 86  1  0  0  0  0
 37 87  1  0  0  0  0
 38 40  2  0  0  0  0
 38 41  1  0  0  0  0
 39 42  2  0  0  0  0
 39 43  1  0  0  0  0
 40 42  1  0  0  0  0
 40 88  1  0  0  0  0
 41 43  2  0  0  0  0
 41 89  1  0  0  0  0
 42 90  1  0  0  0  0
 43 91  1  0  0  0  0
M  END
> <PUBCHEM_COMPOUND_CID>
134136134

> <PUBCHEM_COMPOUND_CANONICALIZED>
1

> <PUBCHEM_CACTVS_COMPLEXITY>
756

> <PUBCHEM_CACTVS_HBOND_ACCEPTOR>
6

> <PUBCHEM_CACTVS_HBOND_DONOR>
1

> <PUBCHEM_CACTVS_ROTATABLE_BOND>
15

> <PUBCHEM_CACTVS_SUBSKEYS>
AAADcfB/sAAAAAAAAAAAAAAAAAAAAAAAAAA8eMECAAAAAAABUAAAHgAQAAAADAzhmAYwxoPABACIAiVSUACCCAAhIgAIiIEObIgOZjLEsZuXOCjm1hHY6AeY2MIOoAAAAAACAABAAAAAAAQAAAAAAAAAAA==

> <PUBCHEM_IUPAC_OPENEYE_NAME>
N-[[4-(3-morpholinopropoxy)phenyl]methyl]-6-[4-(2-phenylphenyl)piperazin-1-yl]hexanamide

> <PUBCHEM_IUPAC_CAS_NAME>
N-[[4-[3-(4-morpholinyl)propoxy]phenyl]methyl]-6-[4-(2-phenylphenyl)-1-piperazinyl]hexanamide

> <PUBCHEM_IUPAC_NAME_MARKUP>
<I>N</I>-[[4-(3-morpholin-4-ylpropoxy)phenyl]methyl]-6-[4-(2-phenylphenyl)piperazin-1-yl]hexanamide

> <PUBCHEM_IUPAC_NAME>
N-[[4-(3-morpholin-4-ylpropoxy)phenyl]methyl]-6-[4-(2-phenylphenyl)piperazin-1-yl]hexanamide

> <PUBCHEM_IUPAC_SYSTEMATIC_NAME>
N-[[4-(3-morpholin-4-ylpropoxy)phenyl]methyl]-6-[4-(2-phenylphenyl)piperazin-1-yl]hexanamide

> <PUBCHEM_IUPAC_TRADITIONAL_NAME>
N-[4-(3-morpholinopropoxy)benzyl]-6-[4-(2-phenylphenyl)piperazino]hexanamide

> <PUBCHEM_IUPAC_INCHI>
InChI=1S/C36H48N4O3/c41-36(37-30-31-15-17-33(18-16-31)43-27-9-20-39-25-28-42-29-26-39)14-5-2-8-19-38-21-23-40(24-22-38)35-13-7-6-12-34(35)32-10-3-1-4-11-32/h1,3-4,6-7,10-13,15-18H,2,5,8-9,14,19-30H2,(H,37,41)

> <PUBCHEM_IUPAC_INCHIKEY>
HCQHYAXNIILCGJ-UHFFFAOYSA-N

> <PUBCHEM_XLOGP3_AA>
5.3

> <PUBCHEM_EXACT_MASS>
584.37264141

> <PUBCHEM_MOLECULAR_FORMULA>
C36H48N4O3

> <PUBCHEM_MOLECULAR_WEIGHT>
584.8

> <PUBCHEM_OPENEYE_CAN_SMILES>
C1CN(CCN1CCCCCC(=O)NCC2=CC=C(C=C2)OCCCN3CCOCC3)C4=CC=CC=C4C5=CC=CC=C5

> <PUBCHEM_OPENEYE_ISO_SMILES>
C1CN(CCN1CCCCCC(=O)NCC2=CC=C(C=C2)OCCCN3CCOCC3)C4=CC=CC=C4C5=CC=CC=C5

> <PUBCHEM_CACTVS_TPSA>
57.3

> <PUBCHEM_MONOISOTOPIC_WEIGHT>
584.37264141

> <PUBCHEM_TOTAL_CHARGE>
0

> <PUBCHEM_HEAVY_ATOM_COUNT>
43

> <PUBCHEM_ATOM_DEF_STEREO_COUNT>
0

> <PUBCHEM_ATOM_UDEF_STEREO_COUNT>
0

> <PUBCHEM_BOND_DEF_STEREO_COUNT>
0

> <PUBCHEM_BOND_UDEF_STEREO_COUNT>
0

> <PUBCHEM_ISOTOPIC_ATOM_COUNT>
0

> <PUBCHEM_COMPONENT_COUNT>
1

> <PUBCHEM_CACTVS_TAUTO_COUNT>
-1

> <PUBCHEM_COORDINATE_TYPE>
1
5
255

> <PUBCHEM_BONDANNOTATIONS>
14  17  8
14  18  8
17  20  8
18  25  8
20  26  8
21  31  8
21  32  8
25  26  8
31  35  8
32  36  8
35  37  8
36  37  8
38  40  8
38  41  8
39  42  8
39  43  8
40  42  8
41  43  8

$$$$
