56941366
  -OEChem-09292321592D

 72 76  0     1  0  0  0  0  0999 V2000
   16.4735    1.0547    0.0000 S   0  0  0  0  0  0  0  0  0  0  0  0
    2.5369   -1.7500    0.0000 O   0  0  0  0  0  0  0  0  0  0  0  0
   12.9292    1.2500    0.0000 N   0  0  3  0  0  0  0  0  0  0  0  0
   10.3312    0.7500    0.0000 N   0  0  0  0  0  0  0  0  0  0  0  0
    8.5991   -0.2500    0.0000 N   0  0  0  0  0  0  0  0  0  0  0  0
   16.4735   -0.5547    0.0000 N   0  0  0  0  0  0  0  0  0  0  0  0
   18.0571    0.2500    0.0000 N   0  0  0  0  0  0  0  0  0  0  0  0
   13.7953    0.7500    0.0000 C   0  0  1  0  0  0  0  0  0  0  0  0
   13.7953   -0.2500    0.0000 C   0  0  0  0  0  0  0  0  0  0  0  0
   14.6613    1.2500    0.0000 C   0  0  0  0  0  0  0  0  0  0  0  0
   12.0632    0.7500    0.0000 C   0  0  0  0  0  0  0  0  0  0  0  0
   11.1972    1.2500    0.0000 C   0  0  0  0  0  0  0  0  0  0  0  0
   14.6613   -0.7500    0.0000 C   0  0  0  0  0  0  0  0  0  0  0  0
   12.9292    2.2500    0.0000 C   0  0  0  0  0  0  0  0  0  0  0  0
   15.5273    0.7500    0.0000 C   0  0  0  0  0  0  0  0  0  0  0  0
    9.4651    1.2500    0.0000 C   0  0  0  0  0  0  0  0  0  0  0  0
   10.3312   -0.2500    0.0000 C   0  0  0  0  0  0  0  0  0  0  0  0
   15.5273   -0.2500    0.0000 C   0  0  0  0  0  0  0  0  0  0  0  0
    8.5991    0.7500    0.0000 C   0  0  0  0  0  0  0  0  0  0  0  0
    9.4651   -0.7500    0.0000 C   0  0  0  0  0  0  0  0  0  0  0  0
   12.0632    2.7500    0.0000 C   0  0  0  0  0  0  0  0  0  0  0  0
    7.7331   -0.7500    0.0000 C   0  0  0  0  0  0  0  0  0  0  0  0
   17.0571    0.2500    0.0000 C   0  0  0  0  0  0  0  0  0  0  0  0
   12.0632    3.7500    0.0000 C   0  0  0  0  0  0  0  0  0  0  0  0
    6.8671   -0.2500    0.0000 C   0  0  0  0  0  0  0  0  0  0  0  0
    7.7331   -1.7500    0.0000 C   0  0  0  0  0  0  0  0  0  0  0  0
    6.0010   -0.7500    0.0000 C   0  0  0  0  0  0  0  0  0  0  0  0
    6.8671   -2.2500    0.0000 C   0  0  0  0  0  0  0  0  0  0  0  0
    6.0010   -1.7500    0.0000 C   0  0  0  0  0  0  0  0  0  0  0  0
    5.1350   -2.2500    0.0000 C   0  0  0  0  0  0  0  0  0  0  0  0
    4.2690   -1.7500    0.0000 C   0  0  0  0  0  0  0  0  0  0  0  0
    5.1350   -3.2500    0.0000 C   0  0  0  0  0  0  0  0  0  0  0  0
    3.4030   -2.2500    0.0000 C   0  0  0  0  0  0  0  0  0  0  0  0
    4.2690   -3.7500    0.0000 C   0  0  0  0  0  0  0  0  0  0  0  0
    3.4030   -3.2500    0.0000 C   0  0  0  0  0  0  0  0  0  0  0  0
   13.7953    1.3700    0.0000 H   0  0  0  0  0  0  0  0  0  0  0  0
   13.1847   -0.1423    0.0000 H   0  0  0  0  0  0  0  0  0  0  0  0
   13.5832   -0.8326    0.0000 H   0  0  0  0  0  0  0  0  0  0  0  0
   15.0598    1.7250    0.0000 H   0  0  0  0  0  0  0  0  0  0  0  0
   14.2628    1.7250    0.0000 H   0  0  0  0  0  0  0  0  0  0  0  0
   11.6647    0.2751    0.0000 H   0  0  0  0  0  0  0  0  0  0  0  0
   12.4617    0.2751    0.0000 H   0  0  0  0  0  0  0  0  0  0  0  0
   11.5957    1.7250    0.0000 H   0  0  0  0  0  0  0  0  0  0  0  0
   10.7987    1.7250    0.0000 H   0  0  0  0  0  0  0  0  0  0  0  0
   14.2628   -1.2250    0.0000 H   0  0  0  0  0  0  0  0  0  0  0  0
   15.0598   -1.2250    0.0000 H   0  0  0  0  0  0  0  0  0  0  0  0
   13.5398    2.1423    0.0000 H   0  0  0  0  0  0  0  0  0  0  0  0
   13.1413    2.8326    0.0000 H   0  0  0  0  0  0  0  0  0  0  0  0
    9.8637    1.7250    0.0000 H   0  0  0  0  0  0  0  0  0  0  0  0
    9.0666    1.7250    0.0000 H   0  0  0  0  0  0  0  0  0  0  0  0
   10.5432   -0.8326    0.0000 H   0  0  0  0  0  0  0  0  0  0  0  0
   10.9417   -0.1423    0.0000 H   0  0  0  0  0  0  0  0  0  0  0  0
    8.3871    1.3326    0.0000 H   0  0  0  0  0  0  0  0  0  0  0  0
    7.9885    0.6423    0.0000 H   0  0  0  0  0  0  0  0  0  0  0  0
    9.0666   -1.2250    0.0000 H   0  0  0  0  0  0  0  0  0  0  0  0
    9.8637   -1.2250    0.0000 H   0  0  0  0  0  0  0  0  0  0  0  0
   11.4526    2.8577    0.0000 H   0  0  0  0  0  0  0  0  0  0  0  0
   11.8512    2.1674    0.0000 H   0  0  0  0  0  0  0  0  0  0  0  0
   12.6832    3.7500    0.0000 H   0  0  0  0  0  0  0  0  0  0  0  0
   12.0632    4.3700    0.0000 H   0  0  0  0  0  0  0  0  0  0  0  0
   11.4432    3.7500    0.0000 H   0  0  0  0  0  0  0  0  0  0  0  0
    6.8671    0.3700    0.0000 H   0  0  0  0  0  0  0  0  0  0  0  0
    8.2700   -2.0600    0.0000 H   0  0  0  0  0  0  0  0  0  0  0  0
   18.3671   -0.2869    0.0000 H   0  0  0  0  0  0  0  0  0  0  0  0
   18.3671    0.7869    0.0000 H   0  0  0  0  0  0  0  0  0  0  0  0
    5.4641   -0.4400    0.0000 H   0  0  0  0  0  0  0  0  0  0  0  0
    6.8671   -2.8700    0.0000 H   0  0  0  0  0  0  0  0  0  0  0  0
    4.2690   -1.1300    0.0000 H   0  0  0  0  0  0  0  0  0  0  0  0
    5.6720   -3.5600    0.0000 H   0  0  0  0  0  0  0  0  0  0  0  0
    4.2690   -4.3700    0.0000 H   0  0  0  0  0  0  0  0  0  0  0  0
    2.8660   -3.5600    0.0000 H   0  0  0  0  0  0  0  0  0  0  0  0
    2.0000   -2.0600    0.0000 H   0  0  0  0  0  0  0  0  0  0  0  0
  1 15  1  0  0  0  0
  1 23  1  0  0  0  0
  2 33  1  0  0  0  0
  2 72  1  0  0  0  0
  8  3  1  6  0  0  0
  3 11  1  0  0  0  0
  3 14  1  0  0  0  0
  4 12  1  0  0  0  0
  4 16  1  0  0  0  0
  4 17  1  0  0  0  0
  5 19  1  0  0  0  0
  5 20  1  0  0  0  0
  5 22  1  0  0  0  0
  6 18  1  0  0  0  0
  6 23  2  0  0  0  0
  7 23  1  0  0  0  0
  7 64  1  0  0  0  0
  7 65  1  0  0  0  0
  8  9  1  0  0  0  0
  8 10  1  0  0  0  0
  8 36  1  0  0  0  0
  9 13  1  0  0  0  0
  9 37  1  0  0  0  0
  9 38  1  0  0  0  0
 10 15  1  0  0  0  0
 10 39  1  0  0  0  0
 10 40  1  0  0  0  0
 11 12  1  0  0  0  0
 11 41  1  0  0  0  0
 11 42  1  0  0  0  0
 12 43  1  0  0  0  0
 12 44  1  0  0  0  0
 13 18  1  0  0  0  0
 13 45  1  0  0  0  0
 13 46  1  0  0  0  0
 14 21  1  0  0  0  0
 14 47  1  0  0  0  0
 14 48  1  0  0  0  0
 15 18  2  0  0  0  0
 16 19  1  0  0  0  0
 16 49  1  0  0  0  0
 16 50  1  0  0  0  0
 17 20  1  0  0  0  0
 17 51  1  0  0  0  0
 17 52  1  0  0  0  0
 19 53  1  0  0  0  0
 19 54  1  0  0  0  0
 20 55  1  0  0  0  0
 20 56  1  0  0  0  0
 21 24  1  0  0  0  0
 21 57  1  0  0  0  0
 21 58  1  0  0  0  0
 22 25  2  0  0  0  0
 22 26  1  0  0  0  0
 24 59  1  0  0  0  0
 24 60  1  0  0  0  0
 24 61  1  0  0  0  0
 25 27  1  0  0  0  0
 25 62  1  0  0  0  0
 26 28  2  0  0  0  0
 26 63  1  0  0  0  0
 27 29  2  0  0  0  0
 27 66  1  0  0  0  0
 28 29  1  0  0  0  0
 28 67  1  0  0  0  0
 29 30  1  0  0  0  0
 30 31  2  0  0  0  0
 30 32  1  0  0  0  0
 31 33  1  0  0  0  0
 31 68  1  0  0  0  0
 32 34  2  0  0  0  0
 32 69  1  0  0  0  0
 33 35  2  0  0  0  0
 34 35  1  0  0  0  0
 34 70  1  0  0  0  0
 35 71  1  0  0  0  0
M  END
> <PUBCHEM_COMPOUND_CID>
56941366

> <PUBCHEM_COMPOUND_CANONICALIZED>
1

> <PUBCHEM_CACTVS_COMPLEXITY>
639

> <PUBCHEM_CACTVS_HBOND_ACCEPTOR>
7

> <PUBCHEM_CACTVS_HBOND_DONOR>
2

> <PUBCHEM_CACTVS_ROTATABLE_BOND>
8

> <PUBCHEM_CACTVS_SUBSKEYS>
AAADcfB7oABAAAAAAAAAAAAAAAAAAWAAAAA8YMEAAAAAAFgB0AAAHgQQCAAADCzB3gQz15NIEgikAyRiZACC8KlhKjkImBQ+bIiIZiLikZOUcAhkwBPI2CeQwPAOiAABAAAAAAAQAQIAQAACAAAAAAAAAA==

> <PUBCHEM_IUPAC_OPENEYE_NAME>
3-[4-[4-[2-[[(6S)-2-amino-4,5,6,7-tetrahydro-1,3-benzothiazol-6-yl]-propyl-amino]ethyl]piperazin-1-yl]phenyl]phenol

> <PUBCHEM_IUPAC_CAS_NAME>
3-[4-[4-[2-[[(6S)-2-amino-4,5,6,7-tetrahydro-1,3-benzothiazol-6-yl]-propylamino]ethyl]-1-piperazinyl]phenyl]phenol

> <PUBCHEM_IUPAC_NAME_MARKUP>
3-[4-[4-[2-[[(6<I>S</I>)-2-amino-4,5,6,7-tetrahydro-1,3-benzothiazol-6-yl]-propylamino]ethyl]piperazin-1-yl]phenyl]phenol

> <PUBCHEM_IUPAC_NAME>
3-[4-[4-[2-[[(6S)-2-amino-4,5,6,7-tetrahydro-1,3-benzothiazol-6-yl]-propylamino]ethyl]piperazin-1-yl]phenyl]phenol

> <PUBCHEM_IUPAC_SYSTEMATIC_NAME>
3-[4-[4-[2-[[(6S)-2-azanyl-4,5,6,7-tetrahydro-1,3-benzothiazol-6-yl]-propyl-amino]ethyl]piperazin-1-yl]phenyl]phenol

> <PUBCHEM_IUPAC_TRADITIONAL_NAME>
3-[4-[4-[2-[[(6S)-2-amino-4,5,6,7-tetrahydro-1,3-benzothiazol-6-yl]-propyl-amino]ethyl]piperazino]phenyl]phenol

> <PUBCHEM_IUPAC_INCHI>
InChI=1S/C28H37N5OS/c1-2-12-32(24-10-11-26-27(20-24)35-28(29)30-26)16-13-31-14-17-33(18-15-31)23-8-6-21(7-9-23)22-4-3-5-25(34)19-22/h3-9,19,24,34H,2,10-18,20H2,1H3,(H2,29,30)/t24-/m0/s1

> <PUBCHEM_IUPAC_INCHIKEY>
VITUDJAVASFPKN-DEOSSOPVSA-N

> <PUBCHEM_XLOGP3_AA>
5.2

> <PUBCHEM_EXACT_MASS>
491.27188199

> <PUBCHEM_MOLECULAR_FORMULA>
C28H37N5OS

> <PUBCHEM_MOLECULAR_WEIGHT>
491.7

> <PUBCHEM_OPENEYE_CAN_SMILES>
CCCN(CCN1CCN(CC1)C2=CC=C(C=C2)C3=CC(=CC=C3)O)C4CCC5=C(C4)SC(=N5)N

> <PUBCHEM_OPENEYE_ISO_SMILES>
CCCN(CCN1CCN(CC1)C2=CC=C(C=C2)C3=CC(=CC=C3)O)[C@H]4CCC5=C(C4)SC(=N5)N

> <PUBCHEM_CACTVS_TPSA>
97.1

> <PUBCHEM_MONOISOTOPIC_WEIGHT>
491.27188199

> <PUBCHEM_TOTAL_CHARGE>
0

> <PUBCHEM_HEAVY_ATOM_COUNT>
35

> <PUBCHEM_ATOM_DEF_STEREO_COUNT>
1

> <PUBCHEM_ATOM_UDEF_STEREO_COUNT>
0

> <PUBCHEM_BOND_DEF_STEREO_COUNT>
0

> <PUBCHEM_BOND_UDEF_STEREO_COUNT>
0

> <PUBCHEM_ISOTOPIC_ATOM_COUNT>
0

> <PUBCHEM_COMPONENT_COUNT>
1

> <PUBCHEM_CACTVS_TAUTO_COUNT>
-1

> <PUBCHEM_COORDINATE_TYPE>
1
5
255

> <PUBCHEM_BONDANNOTATIONS>
1  15  8
1  23  8
15  18  8
22  25  8
22  26  8
25  27  8
26  28  8
27  29  8
28  29  8
8  3  6
30  31  8
30  32  8
31  33  8
32  34  8
33  35  8
34  35  8
6  18  8
6  23  8

$$$$
