44441225
  -OEChem-09292322262D

 50 54  0     1  0  0  0  0  0999 V2000
    2.0000   -0.6227    0.0000 F   0  0  0  0  0  0  0  0  0  0  0  0
   12.8517   -1.4037    0.0000 O   0  0  0  0  0  0  0  0  0  0  0  0
    4.7684    1.5990    0.0000 O   0  0  0  0  0  0  0  0  0  0  0  0
   11.0395    1.4010    0.0000 O   0  0  0  0  0  0  0  0  0  0  0  0
    8.4414   -1.0990    0.0000 N   0  0  0  0  0  0  0  0  0  0  0  0
    5.7402    1.3898    0.0000 N   0  0  0  0  0  0  0  0  0  0  0  0
   13.4353   -0.5990    0.0000 N   0  0  0  0  0  0  0  0  0  0  0  0
    6.7093   -0.0990    0.0000 C   0  0  0  0  0  0  0  0  0  0  0  0
   10.1734   -1.0990    0.0000 C   0  0  3  0  0  0  0  0  0  0  0  0
    9.3074   -1.5990    0.0000 C   0  0  0  0  0  0  0  0  0  0  0  0
    7.5754    0.4010    0.0000 C   0  0  0  0  0  0  0  0  0  0  0  0
    6.7093   -1.0990    0.0000 C   0  0  0  0  0  0  0  0  0  0  0  0
    8.4414   -0.0990    0.0000 C   0  0  0  0  0  0  0  0  0  0  0  0
    7.5754   -1.5990    0.0000 C   0  0  0  0  0  0  0  0  0  0  0  0
   11.0395   -1.5990    0.0000 C   0  0  0  0  0  0  0  0  0  0  0  0
   10.1734   -0.0990    0.0000 C   0  0  0  0  0  0  0  0  0  0  0  0
    5.8433    0.4010    0.0000 C   0  0  0  0  0  0  0  0  0  0  0  0
   11.9055   -1.0990    0.0000 C   0  0  0  0  0  0  0  0  0  0  0  0
   11.0395    0.4010    0.0000 C   0  0  0  0  0  0  0  0  0  0  0  0
   11.9055   -0.0990    0.0000 C   0  0  0  0  0  0  0  0  0  0  0  0
    4.9355   -0.0041    0.0000 C   0  0  0  0  0  0  0  0  0  0  0  0
   12.8517    0.2058    0.0000 C   0  0  0  0  0  0  0  0  0  0  0  0
    4.2677    0.7402    0.0000 C   0  0  0  0  0  0  0  0  0  0  0  0
    4.6249   -0.9546    0.0000 C   0  0  0  0  0  0  0  0  0  0  0  0
   13.1624    1.1563    0.0000 C   0  0  0  0  0  0  0  0  0  0  0  0
    3.2892    0.5340    0.0000 C   0  0  0  0  0  0  0  0  0  0  0  0
    3.6464   -1.1608    0.0000 C   0  0  0  0  0  0  0  0  0  0  0  0
    2.9785   -0.4165    0.0000 C   0  0  0  0  0  0  0  0  0  0  0  0
    6.7093    0.5210    0.0000 H   0  0  0  0  0  0  0  0  0  0  0  0
   10.1734   -1.7190    0.0000 H   0  0  0  0  0  0  0  0  0  0  0  0
    8.9089   -2.0739    0.0000 H   0  0  0  0  0  0  0  0  0  0  0  0
    9.7059   -2.0739    0.0000 H   0  0  0  0  0  0  0  0  0  0  0  0
    7.9739    0.8760    0.0000 H   0  0  0  0  0  0  0  0  0  0  0  0
    7.1768    0.8760    0.0000 H   0  0  0  0  0  0  0  0  0  0  0  0
    6.0988   -0.9913    0.0000 H   0  0  0  0  0  0  0  0  0  0  0  0
    6.4973   -1.6816    0.0000 H   0  0  0  0  0  0  0  0  0  0  0  0
    9.0520   -0.2066    0.0000 H   0  0  0  0  0  0  0  0  0  0  0  0
    8.6534    0.4836    0.0000 H   0  0  0  0  0  0  0  0  0  0  0  0
    7.1768   -2.0739    0.0000 H   0  0  0  0  0  0  0  0  0  0  0  0
    7.9739   -2.0739    0.0000 H   0  0  0  0  0  0  0  0  0  0  0  0
   10.6409   -2.0739    0.0000 H   0  0  0  0  0  0  0  0  0  0  0  0
   11.4380   -2.0739    0.0000 H   0  0  0  0  0  0  0  0  0  0  0  0
    9.9614    0.4836    0.0000 H   0  0  0  0  0  0  0  0  0  0  0  0
    9.5628   -0.2066    0.0000 H   0  0  0  0  0  0  0  0  0  0  0  0
    5.0389   -1.4161    0.0000 H   0  0  0  0  0  0  0  0  0  0  0  0
   13.7517    0.9637    0.0000 H   0  0  0  0  0  0  0  0  0  0  0  0
   13.3550    1.7456    0.0000 H   0  0  0  0  0  0  0  0  0  0  0  0
   12.5730    1.3489    0.0000 H   0  0  0  0  0  0  0  0  0  0  0  0
    2.8751    0.9955    0.0000 H   0  0  0  0  0  0  0  0  0  0  0  0
    3.4537   -1.7501    0.0000 H   0  0  0  0  0  0  0  0  0  0  0  0
  1 28  1  0  0  0  0
  2  7  1  0  0  0  0
  2 18  1  0  0  0  0
  3  6  1  0  0  0  0
  3 23  1  0  0  0  0
  4 19  2  0  0  0  0
  5 10  1  0  0  0  0
  5 13  1  0  0  0  0
  5 14  1  0  0  0  0
  6 17  2  0  0  0  0
  7 22  2  0  0  0  0
  8 11  1  0  0  0  0
  8 12  1  0  0  0  0
  8 17  1  0  0  0  0
  8 29  1  0  0  0  0
  9 10  1  0  0  0  0
  9 15  1  0  0  0  0
  9 16  1  0  0  0  0
  9 30  1  0  0  0  0
 10 31  1  0  0  0  0
 10 32  1  0  0  0  0
 11 13  1  0  0  0  0
 11 33  1  0  0  0  0
 11 34  1  0  0  0  0
 12 14  1  0  0  0  0
 12 35  1  0  0  0  0
 12 36  1  0  0  0  0
 13 37  1  0  0  0  0
 13 38  1  0  0  0  0
 14 39  1  0  0  0  0
 14 40  1  0  0  0  0
 15 18  1  0  0  0  0
 15 41  1  0  0  0  0
 15 42  1  0  0  0  0
 16 19  1  0  0  0  0
 16 43  1  0  0  0  0
 16 44  1  0  0  0  0
 17 21  1  0  0  0  0
 18 20  2  0  0  0  0
 19 20  1  0  0  0  0
 20 22  1  0  0  0  0
 21 23  2  0  0  0  0
 21 24  1  0  0  0  0
 22 25  1  0  0  0  0
 23 26  1  0  0  0  0
 24 27  2  0  0  0  0
 24 45  1  0  0  0  0
 25 46  1  0  0  0  0
 25 47  1  0  0  0  0
 25 48  1  0  0  0  0
 26 28  2  0  0  0  0
 26 49  1  0  0  0  0
 27 28  1  0  0  0  0
 27 50  1  0  0  0  0
M  END
> <PUBCHEM_COMPOUND_CID>
44441225

> <PUBCHEM_COMPOUND_CANONICALIZED>
1

> <PUBCHEM_CACTVS_COMPLEXITY>
585

> <PUBCHEM_CACTVS_HBOND_ACCEPTOR>
7

> <PUBCHEM_CACTVS_HBOND_DONOR>
0

> <PUBCHEM_CACTVS_ROTATABLE_BOND>
3

> <PUBCHEM_CACTVS_SUBSKEYS>
AAADceB7MQAAAAAAAAAAAAAAAAAAAWLAAAA8YIAAAAAAAFgB/AAAHwAEAAAADQzBngwyhtMQAACpA6RyQgCCAAAkIAAomCE+TNoIJr6IlZOEMcBm4BmIyce8zvDuAAAAAAAIAACAAAIAABAAAAAAAAAAAA==

> <PUBCHEM_IUPAC_OPENEYE_NAME>
6-[[4-(6-fluoro-1,2-benzoxazol-3-yl)-1-piperidyl]methyl]-3-methyl-6,7-dihydro-5H-1,2-benzoxazol-4-one

> <PUBCHEM_IUPAC_CAS_NAME>
6-[[4-(6-fluoro-1,2-benzoxazol-3-yl)-1-piperidinyl]methyl]-3-methyl-6,7-dihydro-5H-1,2-benzoxazol-4-one

> <PUBCHEM_IUPAC_NAME_MARKUP>
6-[[4-(6-fluoro-1,2-benzoxazol-3-yl)piperidin-1-yl]methyl]-3-methyl-6,7-dihydro-5<I>H</I>-1,2-benzoxazol-4-one

> <PUBCHEM_IUPAC_NAME>
6-[[4-(6-fluoro-1,2-benzoxazol-3-yl)piperidin-1-yl]methyl]-3-methyl-6,7-dihydro-5H-1,2-benzoxazol-4-one

> <PUBCHEM_IUPAC_SYSTEMATIC_NAME>
6-[[4-(6-fluoranyl-1,2-benzoxazol-3-yl)piperidin-1-yl]methyl]-3-methyl-6,7-dihydro-5H-1,2-benzoxazol-4-one

> <PUBCHEM_IUPAC_TRADITIONAL_NAME>
6-[[4-(6-fluoroindoxazen-3-yl)piperidino]methyl]-3-methyl-6,7-dihydro-5H-indoxazen-4-one

> <PUBCHEM_IUPAC_INCHI>
InChI=1S/C21H22FN3O3/c1-12-20-17(26)8-13(9-19(20)28-23-12)11-25-6-4-14(5-7-25)21-16-3-2-15(22)10-18(16)27-24-21/h2-3,10,13-14H,4-9,11H2,1H3

> <PUBCHEM_IUPAC_INCHIKEY>
YVVDXXSBUJWADQ-UHFFFAOYSA-N

> <PUBCHEM_XLOGP3_AA>
3

> <PUBCHEM_EXACT_MASS>
383.16451973

> <PUBCHEM_MOLECULAR_FORMULA>
C21H22FN3O3

> <PUBCHEM_MOLECULAR_WEIGHT>
383.4

> <PUBCHEM_OPENEYE_CAN_SMILES>
CC1=NOC2=C1C(=O)CC(C2)CN3CCC(CC3)C4=NOC5=C4C=CC(=C5)F

> <PUBCHEM_OPENEYE_ISO_SMILES>
CC1=NOC2=C1C(=O)CC(C2)CN3CCC(CC3)C4=NOC5=C4C=CC(=C5)F

> <PUBCHEM_CACTVS_TPSA>
72.4

> <PUBCHEM_MONOISOTOPIC_WEIGHT>
383.16451973

> <PUBCHEM_TOTAL_CHARGE>
0

> <PUBCHEM_HEAVY_ATOM_COUNT>
28

> <PUBCHEM_ATOM_DEF_STEREO_COUNT>
0

> <PUBCHEM_ATOM_UDEF_STEREO_COUNT>
1

> <PUBCHEM_BOND_DEF_STEREO_COUNT>
0

> <PUBCHEM_BOND_UDEF_STEREO_COUNT>
0

> <PUBCHEM_ISOTOPIC_ATOM_COUNT>
0

> <PUBCHEM_COMPONENT_COUNT>
1

> <PUBCHEM_CACTVS_TAUTO_COUNT>
-1

> <PUBCHEM_COORDINATE_TYPE>
1
5
255

> <PUBCHEM_BONDANNOTATIONS>
17  21  8
18  20  8
2  18  8
2  7  8
20  22  8
21  23  8
21  24  8
23  26  8
24  27  8
26  28  8
27  28  8
3  23  8
3  6  8
6  17  8
7  22  8
9  10  3

$$$$
