45262755
  -OEChem-09292322132D

 48 50  0     1  0  0  0  0  0999 V2000
    8.9815    3.7326    0.0000 Cl  0  0  0  0  0  0  0  0  0  0  0  0
    1.6731    6.5136    0.0000 N   0  0  3  0  0  0  0  0  0  0  0  0
    3.4747    1.6200    0.0000 C   0  0  3  0  0  0  0  0  0  0  0  0
    2.5409    4.7116    0.0000 C   0  0  0  0  0  0  0  0  0  0  0  0
    2.9747    3.8106    0.0000 C   0  0  0  0  0  0  0  0  0  0  0  0
    1.5437    4.7864    0.0000 C   0  0  0  0  0  0  0  0  0  0  0  0
    2.5738    2.0539    0.0000 C   0  0  0  0  0  0  0  0  0  0  0  0
    2.3513    3.0288    0.0000 C   0  0  0  0  0  0  0  0  0  0  0  0
    1.1098    5.6873    0.0000 C   0  0  0  0  0  0  0  0  0  0  0  0
    4.3757    2.0539    0.0000 C   0  0  0  0  0  0  0  0  0  0  0  0
    2.6703    6.4388    0.0000 C   0  0  0  0  0  0  0  0  0  0  0  0
    4.5982    3.0288    0.0000 C   0  0  0  0  0  0  0  0  0  0  0  0
    3.1042    5.5378    0.0000 C   0  0  0  0  0  0  0  0  0  0  0  0
    3.9748    3.8106    0.0000 C   0  0  0  0  0  0  0  0  0  0  0  0
    3.4747    0.6200    0.0000 C   0  0  0  0  0  0  0  0  0  0  0  0
    1.8212    1.3337    0.0000 C   0  0  0  0  0  0  0  0  0  0  0  0
    1.3608    3.3512    0.0000 C   0  0  0  0  0  0  0  0  0  0  0  0
    5.1283    1.3337    0.0000 C   0  0  0  0  0  0  0  0  0  0  0  0
    1.2392    7.4145    0.0000 C   0  0  0  0  0  0  0  0  0  0  0  0
    5.5887    3.3511    0.0000 C   0  0  0  0  0  0  0  0  0  0  0  0
    0.8235    1.6331    0.0000 C   0  0  0  0  0  0  0  0  0  0  0  0
    0.5917    2.6486    0.0000 C   0  0  0  0  0  0  0  0  0  0  0  0
    6.1259    1.6330    0.0000 C   0  0  0  0  0  0  0  0  0  0  0  0
    6.3578    2.6485    0.0000 C   0  0  0  0  0  0  0  0  0  0  0  0
    3.9997    1.2901    0.0000 H   0  0  0  0  0  0  0  0  0  0  0  0
    0.9468    4.6184    0.0000 H   0  0  0  0  0  0  0  0  0  0  0  0
    1.6054    4.1694    0.0000 H   0  0  0  0  0  0  0  0  0  0  0  0
    0.6660    6.1202    0.0000 H   0  0  0  0  0  0  0  0  0  0  0  0
    0.6064    5.3254    0.0000 H   0  0  0  0  0  0  0  0  0  0  0  0
    3.2672    6.6067    0.0000 H   0  0  0  0  0  0  0  0  0  0  0  0
    2.6086    7.0558    0.0000 H   0  0  0  0  0  0  0  0  0  0  0  0
    3.7225    5.4915    0.0000 H   0  0  0  0  0  0  0  0  0  0  0  0
    4.2438    4.3692    0.0000 H   0  0  0  0  0  0  0  0  0  0  0  0
    2.8547    0.6200    0.0000 H   0  0  0  0  0  0  0  0  0  0  0  0
    3.4747    0.0000    0.0000 H   0  0  0  0  0  0  0  0  0  0  0  0
    4.0947    0.6200    0.0000 H   0  0  0  0  0  0  0  0  0  0  0  0
    1.9662    0.7309    0.0000 H   0  0  0  0  0  0  0  0  0  0  0  0
    1.2298    3.9572    0.0000 H   0  0  0  0  0  0  0  0  0  0  0  0
    4.9833    0.7309    0.0000 H   0  0  0  0  0  0  0  0  0  0  0  0
    1.7978    7.6835    0.0000 H   0  0  0  0  0  0  0  0  0  0  0  0
    0.9702    7.9731    0.0000 H   0  0  0  0  0  0  0  0  0  0  0  0
    0.6806    7.1455    0.0000 H   0  0  0  0  0  0  0  0  0  0  0  0
    5.7197    3.9571    0.0000 H   0  0  0  0  0  0  0  0  0  0  0  0
    0.3707    1.2096    0.0000 H   0  0  0  0  0  0  0  0  0  0  0  0
    0.0000    2.8336    0.0000 H   0  0  0  0  0  0  0  0  0  0  0  0
    6.5788    1.2096    0.0000 H   0  0  0  0  0  0  0  0  0  0  0  0
    6.9495    2.8336    0.0000 H   0  0  0  0  0  0  0  0  0  0  0  0
    9.9815    3.7326    0.0000 H   0  0  0  0  0  0  0  0  0  0  0  0
  1 48  1  0  0  0  0
  2  9  1  0  0  0  0
  2 11  1  0  0  0  0
  2 19  1  0  0  0  0
  3  7  1  0  0  0  0
  3 10  1  0  0  0  0
  3 15  1  0  0  0  0
  3 25  1  0  0  0  0
  4  5  1  0  0  0  0
  4  6  1  0  0  0  0
  4 13  2  0  0  0  0
  5  8  1  0  0  0  0
  5 14  2  0  0  0  0
  6  9  1  0  0  0  0
  6 26  1  0  0  0  0
  6 27  1  0  0  0  0
  7  8  1  0  0  0  0
  7 16  2  0  0  0  0
  8 17  2  0  0  0  0
  9 28  1  0  0  0  0
  9 29  1  0  0  0  0
 10 12  1  0  0  0  0
 10 18  2  0  0  0  0
 11 13  1  0  0  0  0
 11 30  1  0  0  0  0
 11 31  1  0  0  0  0
 12 14  1  0  0  0  0
 12 20  2  0  0  0  0
 13 32  1  0  0  0  0
 14 33  1  0  0  0  0
 15 34  1  0  0  0  0
 15 35  1  0  0  0  0
 15 36  1  0  0  0  0
 16 21  1  0  0  0  0
 16 37  1  0  0  0  0
 17 22  1  0  0  0  0
 17 38  1  0  0  0  0
 18 23  1  0  0  0  0
 18 39  1  0  0  0  0
 19 40  1  0  0  0  0
 19 41  1  0  0  0  0
 19 42  1  0  0  0  0
 20 24  1  0  0  0  0
 20 43  1  0  0  0  0
 21 22  2  0  0  0  0
 21 44  1  0  0  0  0
 22 45  1  0  0  0  0
 23 24  2  0  0  0  0
 23 46  1  0  0  0  0
 24 47  1  0  0  0  0
M  END
> <PUBCHEM_COMPOUND_CID>
45262755

> <PUBCHEM_COMPOUND_CANONICALIZED>
1

> <PUBCHEM_CACTVS_COMPLEXITY>
488

> <PUBCHEM_CACTVS_HBOND_ACCEPTOR>
1

> <PUBCHEM_CACTVS_HBOND_DONOR>
1

> <PUBCHEM_CACTVS_ROTATABLE_BOND>
1

> <PUBCHEM_CACTVS_SUBSKEYS>
AAADceB6AAAEAAAAAAAAAAAAAAAAAAAAAAAwYIAABAAAAAABQAAAHAAAAAAADQDBGAQyAIMAAACAAiBCAACCAAAgAAAIiAAIAIgIICKAkRCEIAAggACIiAcQgMAOgAAAAAAQAAAAAAAAACAAAAAAAAAAAA==

> <PUBCHEM_IUPAC_OPENEYE_NAME>
1-methyl-4-(2-methyl-9-tricyclo[9.4.0.03,8]pentadeca-1(15),3,5,7,9,11,13-heptaenyl)-3,6-dihydro-2H-pyridine;hydrochloride

> <PUBCHEM_IUPAC_CAS_NAME>
1-methyl-4-(2-methyl-9-tricyclo[9.4.0.03,8]pentadeca-1(15),3,5,7,9,11,13-heptaenyl)-3,6-dihydro-2H-pyridine;hydrochloride

> <PUBCHEM_IUPAC_NAME_MARKUP>
1-methyl-4-(2-methyl-9-tricyclo[9.4.0.0<SUP>3,8</SUP>]pentadeca-1(15),3,5,7,9,11,13-heptaenyl)-3,6-dihydro-2<I>H</I>-pyridine;hydrochloride

> <PUBCHEM_IUPAC_NAME>
1-methyl-4-(2-methyl-9-tricyclo[9.4.0.03,8]pentadeca-1(15),3,5,7,9,11,13-heptaenyl)-3,6-dihydro-2H-pyridine;hydrochloride

> <PUBCHEM_IUPAC_SYSTEMATIC_NAME>
1-methyl-4-(2-methyl-9-tricyclo[9.4.0.03,8]pentadeca-1(15),3,5,7,9,11,13-heptaenyl)-3,6-dihydro-2H-pyridine;hydrochloride

> <PUBCHEM_IUPAC_TRADITIONAL_NAME>
1-methyl-4-(2-methyl-9-tricyclo[9.4.0.03,8]pentadeca-1(15),3,5,7,9,11,13-heptaenyl)-3,6-dihydro-2H-pyridine;hydrochloride

> <PUBCHEM_IUPAC_INCHI>
InChI=1S/C22H23N.ClH/c1-16-19-8-4-3-7-18(19)15-22(17-11-13-23(2)14-12-17)21-10-6-5-9-20(16)21;/h3-11,15-16H,12-14H2,1-2H3;1H

> <PUBCHEM_IUPAC_INCHIKEY>
LPRAYDPTWMEWRN-UHFFFAOYSA-N

> <PUBCHEM_EXACT_MASS>
337.1597275

> <PUBCHEM_MOLECULAR_FORMULA>
C22H24ClN

> <PUBCHEM_MOLECULAR_WEIGHT>
337.9

> <PUBCHEM_OPENEYE_CAN_SMILES>
CC1C2=CC=CC=C2C=C(C3=CC=CC=C13)C4=CCN(CC4)C.Cl

> <PUBCHEM_OPENEYE_ISO_SMILES>
CC1C2=CC=CC=C2C=C(C3=CC=CC=C13)C4=CCN(CC4)C.Cl

> <PUBCHEM_CACTVS_TPSA>
3.2

> <PUBCHEM_MONOISOTOPIC_WEIGHT>
337.1597275

> <PUBCHEM_TOTAL_CHARGE>
0

> <PUBCHEM_HEAVY_ATOM_COUNT>
24

> <PUBCHEM_ATOM_DEF_STEREO_COUNT>
0

> <PUBCHEM_ATOM_UDEF_STEREO_COUNT>
1

> <PUBCHEM_BOND_DEF_STEREO_COUNT>
0

> <PUBCHEM_BOND_UDEF_STEREO_COUNT>
0

> <PUBCHEM_ISOTOPIC_ATOM_COUNT>
0

> <PUBCHEM_COMPONENT_COUNT>
2

> <PUBCHEM_CACTVS_TAUTO_COUNT>
-1

> <PUBCHEM_COORDINATE_TYPE>
1
5
255

> <PUBCHEM_BONDANNOTATIONS>
10  12  8
10  18  8
12  20  8
16  21  8
17  22  8
18  23  8
20  24  8
21  22  8
23  24  8
3  15  3
7  16  8
7  8  8
8  17  8

$$$$
