127031397
  -OEChem-09292322372D

 60 63  0     1  0  0  0  0  0999 V2000
    2.8963    1.8419    0.0000 O   0  0  0  0  0  0  0  0  0  0  0  0
    4.6622    2.8797    0.0000 O   0  0  0  0  0  0  0  0  0  0  0  0
    3.8372   -5.8863    0.0000 O   0  0  0  0  0  0  0  0  0  0  0  0
    5.6405   -4.8266    0.0000 O   0  0  0  0  0  0  0  0  0  0  0  0
    2.9180   -1.1896    0.0000 N   0  0  3  0  0  0  0  0  0  0  0  0
    3.7841   -1.6896    0.0000 C   0  0  3  0  0  0  0  0  0  0  0  0
    4.6501   -1.1896    0.0000 C   0  0  0  0  0  0  0  0  0  0  0  0
    2.0080   -1.6964    0.0000 C   0  0  0  0  0  0  0  0  0  0  0  0
    3.8001   -2.7311    0.0000 C   0  0  0  0  0  0  0  0  0  0  0  0
    2.9180   -0.1896    0.0000 C   0  0  0  0  0  0  0  0  0  0  0  0
    2.0000   -2.7380    0.0000 C   0  0  0  0  0  0  0  0  0  0  0  0
    4.6501   -0.1896    0.0000 C   0  0  0  0  0  0  0  0  0  0  0  0
    3.7841    0.3104    0.0000 C   0  0  0  0  0  0  0  0  0  0  0  0
    2.9021   -3.2589    0.0000 C   0  0  0  0  0  0  0  0  0  0  0  0
    4.7520   -3.2517    0.0000 C   0  0  0  0  0  0  0  0  0  0  0  0
    3.7680    1.3519    0.0000 C   0  0  0  0  0  0  0  0  0  0  0  0
    5.5601    0.3172    0.0000 C   0  0  0  0  0  0  0  0  0  0  0  0
    2.8937   -4.3438    0.0000 C   0  0  0  0  0  0  0  0  0  0  0  0
    4.6660    1.8797    0.0000 C   0  0  0  0  0  0  0  0  0  0  0  0
    4.7688   -4.3366    0.0000 C   0  0  0  0  0  0  0  0  0  0  0  0
    3.8334   -4.8863    0.0000 C   0  0  0  0  0  0  0  0  0  0  0  0
    5.5681    1.3588    0.0000 C   0  0  0  0  0  0  0  0  0  0  0  0
    5.5263    3.3830    0.0000 C   0  0  0  0  0  0  0  0  0  0  0  0
    5.5224    4.3830    0.0000 C   0  0  0  0  0  0  0  0  0  0  0  0
    2.8847    2.8418    0.0000 C   0  0  0  0  0  0  0  0  0  0  0  0
    6.3865    4.8863    0.0000 C   0  0  0  0  0  0  0  0  0  0  0  0
    2.9731   -6.3896    0.0000 C   0  0  0  0  0  0  0  0  0  0  0  0
    6.3826    5.8863    0.0000 C   0  0  0  0  0  0  0  0  0  0  0  0
    7.2468    6.3896    0.0000 C   0  0  0  0  0  0  0  0  0  0  0  0
    4.3234   -1.9954    0.0000 H   0  0  0  0  0  0  0  0  0  0  0  0
    4.8621   -1.7722    0.0000 H   0  0  0  0  0  0  0  0  0  0  0  0
    5.2607   -1.0819    0.0000 H   0  0  0  0  0  0  0  0  0  0  0  0
    1.8035   -1.1112    0.0000 H   0  0  0  0  0  0  0  0  0  0  0  0
    1.3964   -1.7978    0.0000 H   0  0  0  0  0  0  0  0  0  0  0  0
    2.7060    0.3930    0.0000 H   0  0  0  0  0  0  0  0  0  0  0  0
    2.3074   -0.2973    0.0000 H   0  0  0  0  0  0  0  0  0  0  0  0
    1.3900   -2.6272    0.0000 H   0  0  0  0  0  0  0  0  0  0  0  0
    1.7864   -3.3201    0.0000 H   0  0  0  0  0  0  0  0  0  0  0  0
    5.2829   -2.9314    0.0000 H   0  0  0  0  0  0  0  0  0  0  0  0
    6.0934    0.0011    0.0000 H   0  0  0  0  0  0  0  0  0  0  0  0
    2.3556   -4.6518    0.0000 H   0  0  0  0  0  0  0  0  0  0  0  0
    6.1062    1.6668    0.0000 H   0  0  0  0  0  0  0  0  0  0  0  0
    5.7406    2.8012    0.0000 H   0  0  0  0  0  0  0  0  0  0  0  0
    6.1364    3.4930    0.0000 H   0  0  0  0  0  0  0  0  0  0  0  0
    5.6477   -5.4465    0.0000 H   0  0  0  0  0  0  0  0  0  0  0  0
    5.3081    4.9648    0.0000 H   0  0  0  0  0  0  0  0  0  0  0  0
    4.9123    4.2730    0.0000 H   0  0  0  0  0  0  0  0  0  0  0  0
    3.5046    2.8490    0.0000 H   0  0  0  0  0  0  0  0  0  0  0  0
    2.8775    3.4618    0.0000 H   0  0  0  0  0  0  0  0  0  0  0  0
    2.2647    2.8346    0.0000 H   0  0  0  0  0  0  0  0  0  0  0  0
    6.6008    4.3045    0.0000 H   0  0  0  0  0  0  0  0  0  0  0  0
    6.9967    4.9963    0.0000 H   0  0  0  0  0  0  0  0  0  0  0  0
    2.6610   -5.8539    0.0000 H   0  0  0  0  0  0  0  0  0  0  0  0
    2.4374   -6.7017    0.0000 H   0  0  0  0  0  0  0  0  0  0  0  0
    3.2852   -6.9254    0.0000 H   0  0  0  0  0  0  0  0  0  0  0  0
    6.1684    6.4681    0.0000 H   0  0  0  0  0  0  0  0  0  0  0  0
    5.7725    5.7763    0.0000 H   0  0  0  0  0  0  0  0  0  0  0  0
    7.5588    5.8539    0.0000 H   0  0  0  0  0  0  0  0  0  0  0  0
    7.7825    6.7017    0.0000 H   0  0  0  0  0  0  0  0  0  0  0  0
    6.9347    6.9254    0.0000 H   0  0  0  0  0  0  0  0  0  0  0  0
  1 16  1  0  0  0  0
  1 25  1  0  0  0  0
  2 19  1  0  0  0  0
  2 23  1  0  0  0  0
  3 21  1  0  0  0  0
  3 27  1  0  0  0  0
  4 20  1  0  0  0  0
  4 45  1  0  0  0  0
  5  6  1  0  0  0  0
  5  8  1  0  0  0  0
  5 10  1  0  0  0  0
  6  7  1  0  0  0  0
  6  9  1  0  0  0  0
  6 30  1  0  0  0  0
  7 12  1  0  0  0  0
  7 31  1  0  0  0  0
  7 32  1  0  0  0  0
  8 11  1  0  0  0  0
  8 33  1  0  0  0  0
  8 34  1  0  0  0  0
  9 14  1  0  0  0  0
  9 15  2  0  0  0  0
 10 13  1  0  0  0  0
 10 35  1  0  0  0  0
 10 36  1  0  0  0  0
 11 14  1  0  0  0  0
 11 37  1  0  0  0  0
 11 38  1  0  0  0  0
 12 13  2  0  0  0  0
 12 17  1  0  0  0  0
 13 16  1  0  0  0  0
 14 18  2  0  0  0  0
 15 20  1  0  0  0  0
 15 39  1  0  0  0  0
 16 19  2  0  0  0  0
 17 22  2  0  0  0  0
 17 40  1  0  0  0  0
 18 21  1  0  0  0  0
 18 41  1  0  0  0  0
 19 22  1  0  0  0  0
 20 21  2  0  0  0  0
 22 42  1  0  0  0  0
 23 24  1  0  0  0  0
 23 43  1  0  0  0  0
 23 44  1  0  0  0  0
 24 26  1  0  0  0  0
 24 46  1  0  0  0  0
 24 47  1  0  0  0  0
 25 48  1  0  0  0  0
 25 49  1  0  0  0  0
 25 50  1  0  0  0  0
 26 28  1  0  0  0  0
 26 51  1  0  0  0  0
 26 52  1  0  0  0  0
 27 53  1  0  0  0  0
 27 54  1  0  0  0  0
 27 55  1  0  0  0  0
 28 29  1  0  0  0  0
 28 56  1  0  0  0  0
 28 57  1  0  0  0  0
 29 58  1  0  0  0  0
 29 59  1  0  0  0  0
 29 60  1  0  0  0  0
M  END
> <PUBCHEM_COMPOUND_CID>
127031397

> <PUBCHEM_COMPOUND_CANONICALIZED>
1

> <PUBCHEM_CACTVS_COMPLEXITY>
517

> <PUBCHEM_CACTVS_HBOND_ACCEPTOR>
5

> <PUBCHEM_CACTVS_HBOND_DONOR>
1

> <PUBCHEM_CACTVS_ROTATABLE_BOND>
7

> <PUBCHEM_CACTVS_SUBSKEYS>
AAADceB6OAAAAAAAAAAAAAAAAAAAAAAAAAA8eIEAAAAAAACxQAAAHgAACAAADCzhmAYyBoMABgCAAiBCAACCCAAgIAAIiAAOjIgNJiKGsRuGeCvmwBGLuAew0PMOoAABAAAYQABAAAIAADCAAAAAAAAAAA==

> <PUBCHEM_IUPAC_OPENEYE_NAME>
3,9-dimethoxy-10-pentoxy-6,8,13,13a-tetrahydro-5H-isoquinolino[2,1-b]isoquinolin-2-ol

> <PUBCHEM_IUPAC_CAS_NAME>
3,9-dimethoxy-10-pentoxy-6,8,13,13a-tetrahydro-5H-isoquinolino[2,1-b]isoquinolin-2-ol

> <PUBCHEM_IUPAC_NAME_MARKUP>
3,9-dimethoxy-10-pentoxy-6,8,13,13<I>a</I>-tetrahydro-5<I>H</I>-isoquinolino[2,1-b]isoquinolin-2-ol

> <PUBCHEM_IUPAC_NAME>
3,9-dimethoxy-10-pentoxy-6,8,13,13a-tetrahydro-5H-isoquinolino[2,1-b]isoquinolin-2-ol

> <PUBCHEM_IUPAC_SYSTEMATIC_NAME>
3,9-dimethoxy-10-pentoxy-6,8,13,13a-tetrahydro-5H-isoquinolino[2,1-b]isoquinolin-2-ol

> <PUBCHEM_IUPAC_TRADITIONAL_NAME>
10-amoxy-3,9-dimethoxy-6,8,13,13a-tetrahydro-5H-isoquinolin[2,1-b]isoquinolin-2-ol

> <PUBCHEM_IUPAC_INCHI>
InChI=1S/C24H31NO4/c1-4-5-6-11-29-22-8-7-16-12-20-18-14-21(26)23(27-2)13-17(18)9-10-25(20)15-19(16)24(22)28-3/h7-8,13-14,20,26H,4-6,9-12,15H2,1-3H3

> <PUBCHEM_IUPAC_INCHIKEY>
JKAFEYNVKSARQQ-UHFFFAOYSA-N

> <PUBCHEM_XLOGP3_AA>
4.7

> <PUBCHEM_EXACT_MASS>
397.22530847

> <PUBCHEM_MOLECULAR_FORMULA>
C24H31NO4

> <PUBCHEM_MOLECULAR_WEIGHT>
397.5

> <PUBCHEM_OPENEYE_CAN_SMILES>
CCCCCOC1=C(C2=C(CC3C4=CC(=C(C=C4CCN3C2)OC)O)C=C1)OC

> <PUBCHEM_OPENEYE_ISO_SMILES>
CCCCCOC1=C(C2=C(CC3C4=CC(=C(C=C4CCN3C2)OC)O)C=C1)OC

> <PUBCHEM_CACTVS_TPSA>
51.2

> <PUBCHEM_MONOISOTOPIC_WEIGHT>
397.22530847

> <PUBCHEM_TOTAL_CHARGE>
0

> <PUBCHEM_HEAVY_ATOM_COUNT>
29

> <PUBCHEM_ATOM_DEF_STEREO_COUNT>
0

> <PUBCHEM_ATOM_UDEF_STEREO_COUNT>
1

> <PUBCHEM_BOND_DEF_STEREO_COUNT>
0

> <PUBCHEM_BOND_UDEF_STEREO_COUNT>
0

> <PUBCHEM_ISOTOPIC_ATOM_COUNT>
0

> <PUBCHEM_COMPONENT_COUNT>
1

> <PUBCHEM_CACTVS_TAUTO_COUNT>
-1

> <PUBCHEM_COORDINATE_TYPE>
1
5
255

> <PUBCHEM_BONDANNOTATIONS>
12  13  8
12  17  8
13  16  8
14  18  8
15  20  8
16  19  8
17  22  8
18  21  8
19  22  8
20  21  8
6  7  3
9  14  8
9  15  8

$$$$
