121304711
  -OEChem-09292322372D

 59 63  0     1  0  0  0  0  0999 V2000
    6.7500    2.6799    0.0000 S   0  0  0  0  0  0  0  0  0  0  0  0
    8.1121   -5.1701    0.0000 F   0  0  0  0  0  0  0  0  0  0  0  0
   12.4422   -5.6701    0.0000 F   0  0  0  0  0  0  0  0  0  0  0  0
   12.0762   -4.3041    0.0000 F   0  0  0  0  0  0  0  0  0  0  0  0
   11.0762   -6.0361    0.0000 F   0  0  0  0  0  0  0  0  0  0  0  0
    7.1121   -0.7652    0.0000 N   0  0  3  0  0  0  0  0  0  0  0  0
    5.1622    3.4889    0.0000 N   0  0  0  0  0  0  0  0  0  0  0  0
    6.4712    4.4399    0.0000 N   0  0  0  0  0  0  0  0  0  0  0  0
    5.6622    5.0277    0.0000 N   0  0  0  0  0  0  0  0  0  0  0  0
    2.2079    4.3889    0.0000 N   0  0  0  0  0  0  0  0  0  0  0  0
    7.6121   -2.3041    0.0000 C   0  0  2  0  0  0  0  0  0  0  0  0
    8.1121   -3.1701    0.0000 C   0  0  2  0  0  0  0  0  0  0  0  0
    7.1121   -3.1701    0.0000 C   0  0  0  0  0  0  0  0  0  0  0  0
    8.4211   -1.7163    0.0000 C   0  0  0  0  0  0  0  0  0  0  0  0
    6.8030   -1.7163    0.0000 C   0  0  0  0  0  0  0  0  0  0  0  0
    8.1121   -0.7652    0.0000 C   0  0  0  0  0  0  0  0  0  0  0  0
    8.9781   -3.6701    0.0000 C   0  0  0  0  0  0  0  0  0  0  0  0
    6.5243    0.0438    0.0000 C   0  0  0  0  0  0  0  0  0  0  0  0
    8.9781   -4.6701    0.0000 C   0  0  0  0  0  0  0  0  0  0  0  0
    9.8441   -3.1701    0.0000 C   0  0  0  0  0  0  0  0  0  0  0  0
    6.9310    0.9573    0.0000 C   0  0  0  0  0  0  0  0  0  0  0  0
    9.8441   -5.1701    0.0000 C   0  0  0  0  0  0  0  0  0  0  0  0
   10.7101   -3.6701    0.0000 C   0  0  0  0  0  0  0  0  0  0  0  0
   10.7101   -4.6701    0.0000 C   0  0  0  0  0  0  0  0  0  0  0  0
    6.3432    1.7663    0.0000 C   0  0  0  0  0  0  0  0  0  0  0  0
   11.5762   -5.1701    0.0000 C   0  0  0  0  0  0  0  0  0  0  0  0
    6.1622    3.4889    0.0000 C   0  0  0  0  0  0  0  0  0  0  0  0
    4.8532    4.4399    0.0000 C   0  0  0  0  0  0  0  0  0  0  0  0
    4.5744    2.6799    0.0000 C   0  0  0  0  0  0  0  0  0  0  0  0
    3.9021    4.7490    0.0000 C   0  0  0  0  0  0  0  0  0  0  0  0
    3.6942    5.7271    0.0000 C   0  0  0  0  0  0  0  0  0  0  0  0
    3.1590    4.0798    0.0000 C   0  0  0  0  0  0  0  0  0  0  0  0
    2.7431    6.0361    0.0000 C   0  0  0  0  0  0  0  0  0  0  0  0
    2.0000    5.3670    0.0000 C   0  0  0  0  0  0  0  0  0  0  0  0
    7.9516   -3.7690    0.0000 H   0  0  0  0  0  0  0  0  0  0  0  0
    6.5295   -2.9581    0.0000 H   0  0  0  0  0  0  0  0  0  0  0  0
    7.0044   -3.7807    0.0000 H   0  0  0  0  0  0  0  0  0  0  0  0
    8.7311   -2.2532    0.0000 H   0  0  0  0  0  0  0  0  0  0  0  0
    8.9875   -1.4641    0.0000 H   0  0  0  0  0  0  0  0  0  0  0  0
    6.2366   -1.4641    0.0000 H   0  0  0  0  0  0  0  0  0  0  0  0
    6.4930   -2.2532    0.0000 H   0  0  0  0  0  0  0  0  0  0  0  0
    8.7185   -0.6363    0.0000 H   0  0  0  0  0  0  0  0  0  0  0  0
    8.0473   -0.1486    0.0000 H   0  0  0  0  0  0  0  0  0  0  0  0
    6.0103    0.3905    0.0000 H   0  0  0  0  0  0  0  0  0  0  0  0
    6.0936   -0.4022    0.0000 H   0  0  0  0  0  0  0  0  0  0  0  0
    9.8441   -2.5501    0.0000 H   0  0  0  0  0  0  0  0  0  0  0  0
    7.4450    0.6106    0.0000 H   0  0  0  0  0  0  0  0  0  0  0  0
    7.3617    1.4033    0.0000 H   0  0  0  0  0  0  0  0  0  0  0  0
    9.8441   -5.7901    0.0000 H   0  0  0  0  0  0  0  0  0  0  0  0
   11.2471   -3.3601    0.0000 H   0  0  0  0  0  0  0  0  0  0  0  0
    5.8292    2.1130    0.0000 H   0  0  0  0  0  0  0  0  0  0  0  0
    5.9126    1.3204    0.0000 H   0  0  0  0  0  0  0  0  0  0  0  0
    4.0728    3.0443    0.0000 H   0  0  0  0  0  0  0  0  0  0  0  0
    4.2100    2.1783    0.0000 H   0  0  0  0  0  0  0  0  0  0  0  0
    5.0760    2.3154    0.0000 H   0  0  0  0  0  0  0  0  0  0  0  0
    4.1550    6.1420    0.0000 H   0  0  0  0  0  0  0  0  0  0  0  0
    3.2879    3.4734    0.0000 H   0  0  0  0  0  0  0  0  0  0  0  0
    2.6142    6.6426    0.0000 H   0  0  0  0  0  0  0  0  0  0  0  0
    1.4103    5.5586    0.0000 H   0  0  0  0  0  0  0  0  0  0  0  0
  1 25  1  0  0  0  0
  1 27  1  0  0  0  0
  2 19  1  0  0  0  0
  3 26  1  0  0  0  0
  4 26  1  0  0  0  0
  5 26  1  0  0  0  0
  6 15  1  0  0  0  0
  6 16  1  0  0  0  0
  6 18  1  0  0  0  0
  7 27  1  0  0  0  0
  7 28  1  0  0  0  0
  7 29  1  0  0  0  0
  8  9  1  0  0  0  0
  8 27  2  0  0  0  0
  9 28  2  0  0  0  0
 10 32  1  0  0  0  0
 10 34  2  0  0  0  0
 11 12  1  0  0  0  0
 11 13  1  6  0  0  0
 11 14  1  0  0  0  0
 11 15  1  0  0  0  0
 12 13  1  0  0  0  0
 12 17  1  1  0  0  0
 12 35  1  0  0  0  0
 13 36  1  0  0  0  0
 13 37  1  0  0  0  0
 14 16  1  0  0  0  0
 14 38  1  0  0  0  0
 14 39  1  0  0  0  0
 15 40  1  0  0  0  0
 15 41  1  0  0  0  0
 16 42  1  0  0  0  0
 16 43  1  0  0  0  0
 17 19  2  0  0  0  0
 17 20  1  0  0  0  0
 18 21  1  0  0  0  0
 18 44  1  0  0  0  0
 18 45  1  0  0  0  0
 19 22  1  0  0  0  0
 20 23  2  0  0  0  0
 20 46  1  0  0  0  0
 21 25  1  0  0  0  0
 21 47  1  0  0  0  0
 21 48  1  0  0  0  0
 22 24  2  0  0  0  0
 22 49  1  0  0  0  0
 23 24  1  0  0  0  0
 23 50  1  0  0  0  0
 24 26  1  0  0  0  0
 25 51  1  0  0  0  0
 25 52  1  0  0  0  0
 28 30  1  0  0  0  0
 29 53  1  0  0  0  0
 29 54  1  0  0  0  0
 29 55  1  0  0  0  0
 30 31  1  0  0  0  0
 30 32  2  0  0  0  0
 31 33  2  0  0  0  0
 31 56  1  0  0  0  0
 32 57  1  0  0  0  0
 33 34  1  0  0  0  0
 33 58  1  0  0  0  0
 34 59  1  0  0  0  0
M  END
> <PUBCHEM_COMPOUND_CID>
121304711

> <PUBCHEM_COMPOUND_CANONICALIZED>
1

> <PUBCHEM_CACTVS_COMPLEXITY>
699

> <PUBCHEM_CACTVS_HBOND_ACCEPTOR>
9

> <PUBCHEM_CACTVS_HBOND_DONOR>
0

> <PUBCHEM_CACTVS_ROTATABLE_BOND>
7

> <PUBCHEM_CACTVS_SUBSKEYS>
AAADceB7gcBAAAAAAAAAAAAAGAAAAWLAAAA8QAAAAAAAAAAB8AAAHQQIAAAADwDFWxy/kJcMEAiiAjJnZACS0CtxArAd2CA4ZJiIKOLg2ZGEIAhgiALIyAcQgMAPwAAAAAAAAACAAAAAAAAAAAAAAAAAAA==

> <PUBCHEM_IUPAC_OPENEYE_NAME>
(2S,3S)-2-[2-fluoro-4-(trifluoromethyl)phenyl]-5-[3-[[4-methyl-5-(3-pyridyl)-1,2,4-triazol-3-yl]sulfanyl]propyl]-5-azaspiro[2.4]heptane

> <PUBCHEM_IUPAC_CAS_NAME>
(2S,3S)-2-[2-fluoro-4-(trifluoromethyl)phenyl]-5-[3-[[4-methyl-5-(3-pyridinyl)-1,2,4-triazol-3-yl]thio]propyl]-5-azaspiro[2.4]heptane

> <PUBCHEM_IUPAC_NAME_MARKUP>
(2<I>S</I>,3<I>S</I>)-2-[2-fluoro-4-(trifluoromethyl)phenyl]-5-[3-[(4-methyl-5-pyridin-3-yl-1,2,4-triazol-3-yl)sulfanyl]propyl]-5-azaspiro[2.4]heptane

> <PUBCHEM_IUPAC_NAME>
(2S,3S)-2-[2-fluoro-4-(trifluoromethyl)phenyl]-5-[3-[(4-methyl-5-pyridin-3-yl-1,2,4-triazol-3-yl)sulfanyl]propyl]-5-azaspiro[2.4]heptane

> <PUBCHEM_IUPAC_SYSTEMATIC_NAME>
(2S,3S)-2-[2-fluoranyl-4-(trifluoromethyl)phenyl]-5-[3-[(4-methyl-5-pyridin-3-yl-1,2,4-triazol-3-yl)sulfanyl]propyl]-5-azaspiro[2.4]heptane

> <PUBCHEM_IUPAC_TRADITIONAL_NAME>
(2S,3S)-2-[2-fluoro-4-(trifluoromethyl)phenyl]-5-[3-[[4-methyl-5-(3-pyridyl)-1,2,4-triazol-3-yl]thio]propyl]-5-azaspiro[2.4]heptane

> <PUBCHEM_IUPAC_INCHI>
InChI=1S/C24H25F4N5S/c1-32-21(16-4-2-8-29-14-16)30-31-22(32)34-11-3-9-33-10-7-23(15-33)13-19(23)18-6-5-17(12-20(18)25)24(26,27)28/h2,4-6,8,12,14,19H,3,7,9-11,13,15H2,1H3/t19-,23+/m1/s1

> <PUBCHEM_IUPAC_INCHIKEY>
JZCCFPRFOOIKRY-XXBNENTESA-N

> <PUBCHEM_XLOGP3_AA>
4.4

> <PUBCHEM_EXACT_MASS>
491.17667964

> <PUBCHEM_MOLECULAR_FORMULA>
C24H25F4N5S

> <PUBCHEM_MOLECULAR_WEIGHT>
491.5

> <PUBCHEM_OPENEYE_CAN_SMILES>
CN1C(=NN=C1SCCCN2CCC3(C2)CC3C4=C(C=C(C=C4)C(F)(F)F)F)C5=CN=CC=C5

> <PUBCHEM_OPENEYE_ISO_SMILES>
CN1C(=NN=C1SCCCN2CC[C@@]3(C2)C[C@@H]3C4=C(C=C(C=C4)C(F)(F)F)F)C5=CN=CC=C5

> <PUBCHEM_CACTVS_TPSA>
72.1

> <PUBCHEM_MONOISOTOPIC_WEIGHT>
491.17667964

> <PUBCHEM_TOTAL_CHARGE>
0

> <PUBCHEM_HEAVY_ATOM_COUNT>
34

> <PUBCHEM_ATOM_DEF_STEREO_COUNT>
2

> <PUBCHEM_ATOM_UDEF_STEREO_COUNT>
0

> <PUBCHEM_BOND_DEF_STEREO_COUNT>
0

> <PUBCHEM_BOND_UDEF_STEREO_COUNT>
0

> <PUBCHEM_ISOTOPIC_ATOM_COUNT>
0

> <PUBCHEM_COMPONENT_COUNT>
1

> <PUBCHEM_CACTVS_TAUTO_COUNT>
-1

> <PUBCHEM_COORDINATE_TYPE>
1
5
255

> <PUBCHEM_BONDANNOTATIONS>
10  32  8
10  34  8
11  13  6
12  17  5
17  19  8
17  20  8
19  22  8
20  23  8
22  24  8
23  24  8
30  31  8
30  32  8
31  33  8
33  34  8
7  27  8
7  28  8
8  27  8
8  9  8
9  28  8

$$$$
