11696788
  -OEChem-09292322272D

 55 59  0     0  0  0  0  0  0999 V2000
    7.6106    3.1661    0.0000 O   0  0  0  0  0  0  0  0  0  0  0  0
    9.3426    5.1661    0.0000 O   0  0  0  0  0  0  0  0  0  0  0  0
    5.8853    0.1317    0.0000 N   0  0  0  0  0  0  0  0  0  0  0  0
    5.8622    2.1315    0.0000 N   0  0  0  0  0  0  0  0  0  0  0  0
    2.6171   -3.2383    0.0000 N   0  0  0  0  0  0  0  0  0  0  0  0
    7.6106    5.1661    0.0000 N   0  0  0  0  0  0  0  0  0  0  0  0
    5.0135    0.6216    0.0000 C   0  0  0  0  0  0  0  0  0  0  0  0
    6.7455    0.6416    0.0000 C   0  0  0  0  0  0  0  0  0  0  0  0
    5.0020    1.6215    0.0000 C   0  0  0  0  0  0  0  0  0  0  0  0
    6.7339    1.6416    0.0000 C   0  0  0  0  0  0  0  0  0  0  0  0
    5.8968   -0.8683    0.0000 C   0  0  0  0  0  0  0  0  0  0  0  0
    5.0367   -1.3783    0.0000 C   0  0  0  0  0  0  0  0  0  0  0  0
    5.8506    3.1315    0.0000 C   0  0  0  0  0  0  0  0  0  0  0  0
    5.0482   -2.3782    0.0000 C   0  0  0  0  0  0  0  0  0  0  0  0
    4.1880   -2.8882    0.0000 C   0  0  0  0  0  0  0  0  0  0  0  0
    6.7445    3.6661    0.0000 C   0  0  0  0  0  0  0  0  0  0  0  0
    4.9445    3.6453    0.0000 C   0  0  0  0  0  0  0  0  0  0  0  0
    4.0964   -3.8780    0.0000 C   0  0  0  0  0  0  0  0  0  0  0  0
    6.7445    4.6661    0.0000 C   0  0  0  0  0  0  0  0  0  0  0  0
    3.2756   -2.4936    0.0000 C   0  0  0  0  0  0  0  0  0  0  0  0
    3.1204   -4.0955    0.0000 C   0  0  0  0  0  0  0  0  0  0  0  0
    4.9445    4.6869    0.0000 C   0  0  0  0  0  0  0  0  0  0  0  0
    5.8506    5.2008    0.0000 C   0  0  0  0  0  0  0  0  0  0  0  0
    4.7728   -4.6146    0.0000 C   0  0  0  0  0  0  0  0  0  0  0  0
    8.4766    3.6661    0.0000 C   0  0  0  0  0  0  0  0  0  0  0  0
    8.4766    4.6661    0.0000 C   0  0  0  0  0  0  0  0  0  0  0  0
    2.8207   -5.0496    0.0000 C   0  0  0  0  0  0  0  0  0  0  0  0
    4.4732   -5.5686    0.0000 C   0  0  0  0  0  0  0  0  0  0  0  0
    3.4971   -5.7861    0.0000 C   0  0  0  0  0  0  0  0  0  0  0  0
    4.4018    0.7222    0.0000 H   0  0  0  0  0  0  0  0  0  0  0  0
    4.8082    0.0366    0.0000 H   0  0  0  0  0  0  0  0  0  0  0  0
    6.9642    0.0615    0.0000 H   0  0  0  0  0  0  0  0  0  0  0  0
    7.3548    0.7564    0.0000 H   0  0  0  0  0  0  0  0  0  0  0  0
    4.7832    2.2017    0.0000 H   0  0  0  0  0  0  0  0  0  0  0  0
    4.3927    1.5068    0.0000 H   0  0  0  0  0  0  0  0  0  0  0  0
    7.3457    1.5410    0.0000 H   0  0  0  0  0  0  0  0  0  0  0  0
    6.9392    2.2266    0.0000 H   0  0  0  0  0  0  0  0  0  0  0  0
    6.1156   -1.4484    0.0000 H   0  0  0  0  0  0  0  0  0  0  0  0
    6.5061   -0.7536    0.0000 H   0  0  0  0  0  0  0  0  0  0  0  0
    4.8179   -0.7981    0.0000 H   0  0  0  0  0  0  0  0  0  0  0  0
    4.4274   -1.4930    0.0000 H   0  0  0  0  0  0  0  0  0  0  0  0
    5.2670   -2.9583    0.0000 H   0  0  0  0  0  0  0  0  0  0  0  0
    5.6575   -2.2635    0.0000 H   0  0  0  0  0  0  0  0  0  0  0  0
    4.4088    3.3332    0.0000 H   0  0  0  0  0  0  0  0  0  0  0  0
    3.1408   -1.8884    0.0000 H   0  0  0  0  0  0  0  0  0  0  0  0
    4.4088    4.9990    0.0000 H   0  0  0  0  0  0  0  0  0  0  0  0
    5.8578    5.8207    0.0000 H   0  0  0  0  0  0  0  0  0  0  0  0
    2.0000   -3.1785    0.0000 H   0  0  0  0  0  0  0  0  0  0  0  0
    7.6106    5.7861    0.0000 H   0  0  0  0  0  0  0  0  0  0  0  0
    5.3780   -4.4797    0.0000 H   0  0  0  0  0  0  0  0  0  0  0  0
    8.6886    3.0835    0.0000 H   0  0  0  0  0  0  0  0  0  0  0  0
    9.0872    3.7738    0.0000 H   0  0  0  0  0  0  0  0  0  0  0  0
    2.2156   -5.1844    0.0000 H   0  0  0  0  0  0  0  0  0  0  0  0
    4.8926   -6.0252    0.0000 H   0  0  0  0  0  0  0  0  0  0  0  0
    3.3113   -6.3776    0.0000 H   0  0  0  0  0  0  0  0  0  0  0  0
  1 16  1  0  0  0  0
  1 25  1  0  0  0  0
  2 26  2  0  0  0  0
  3  7  1  0  0  0  0
  3  8  1  0  0  0  0
  3 11  1  0  0  0  0
  4  9  1  0  0  0  0
  4 10  1  0  0  0  0
  4 13  1  0  0  0  0
  5 20  1  0  0  0  0
  5 21  1  0  0  0  0
  5 48  1  0  0  0  0
  6 19  1  0  0  0  0
  6 26  1  0  0  0  0
  6 49  1  0  0  0  0
  7  9  1  0  0  0  0
  7 30  1  0  0  0  0
  7 31  1  0  0  0  0
  8 10  1  0  0  0  0
  8 32  1  0  0  0  0
  8 33  1  0  0  0  0
  9 34  1  0  0  0  0
  9 35  1  0  0  0  0
 10 36  1  0  0  0  0
 10 37  1  0  0  0  0
 11 12  1  0  0  0  0
 11 38  1  0  0  0  0
 11 39  1  0  0  0  0
 12 14  1  0  0  0  0
 12 40  1  0  0  0  0
 12 41  1  0  0  0  0
 13 16  1  0  0  0  0
 13 17  2  0  0  0  0
 14 15  1  0  0  0  0
 14 42  1  0  0  0  0
 14 43  1  0  0  0  0
 15 18  1  0  0  0  0
 15 20  2  0  0  0  0
 16 19  2  0  0  0  0
 17 22  1  0  0  0  0
 17 44  1  0  0  0  0
 18 21  1  0  0  0  0
 18 24  2  0  0  0  0
 19 23  1  0  0  0  0
 20 45  1  0  0  0  0
 21 27  2  0  0  0  0
 22 23  2  0  0  0  0
 22 46  1  0  0  0  0
 23 47  1  0  0  0  0
 24 28  1  0  0  0  0
 24 50  1  0  0  0  0
 25 26  1  0  0  0  0
 25 51  1  0  0  0  0
 25 52  1  0  0  0  0
 27 29  1  0  0  0  0
 27 53  1  0  0  0  0
 28 29  2  0  0  0  0
 28 54  1  0  0  0  0
 29 55  1  0  0  0  0
M  END
> <PUBCHEM_COMPOUND_CID>
11696788

> <PUBCHEM_COMPOUND_CANONICALIZED>
1

> <PUBCHEM_CACTVS_COMPLEXITY>
565

> <PUBCHEM_CACTVS_HBOND_ACCEPTOR>
4

> <PUBCHEM_CACTVS_HBOND_DONOR>
2

> <PUBCHEM_CACTVS_ROTATABLE_BOND>
5

> <PUBCHEM_CACTVS_SUBSKEYS>
AAADceB7sAAAAAAAAAAAAAAAAAAAAWAAAAA8eIEAAAAAAFix9AAAHgAQAAAADAzhngY8xvPJlACoAzV3VAKCiCAxIiAI2aB9bJgOZuLE8d+XOCjk1BHY6AeQwMAOgAAAAAQCEAAAAAAACAQgAAAAAAAAAA==

> <PUBCHEM_IUPAC_OPENEYE_NAME>
8-[4-[3-(1H-indol-3-yl)propyl]piperazin-1-yl]-4H-1,4-benzoxazin-3-one

> <PUBCHEM_IUPAC_CAS_NAME>
8-[4-[3-(1H-indol-3-yl)propyl]-1-piperazinyl]-4H-1,4-benzoxazin-3-one

> <PUBCHEM_IUPAC_NAME_MARKUP>
8-[4-[3-(1<I>H</I>-indol-3-yl)propyl]piperazin-1-yl]-4<I>H</I>-1,4-benzoxazin-3-one

> <PUBCHEM_IUPAC_NAME>
8-[4-[3-(1H-indol-3-yl)propyl]piperazin-1-yl]-4H-1,4-benzoxazin-3-one

> <PUBCHEM_IUPAC_SYSTEMATIC_NAME>
8-[4-[3-(1H-indol-3-yl)propyl]piperazin-1-yl]-4H-1,4-benzoxazin-3-one

> <PUBCHEM_IUPAC_TRADITIONAL_NAME>
8-[4-[3-(1H-indol-3-yl)propyl]piperazino]-4H-1,4-benzoxazin-3-one

> <PUBCHEM_IUPAC_INCHI>
InChI=1S/C23H26N4O2/c28-22-16-29-23-20(25-22)8-3-9-21(23)27-13-11-26(12-14-27)10-4-5-17-15-24-19-7-2-1-6-18(17)19/h1-3,6-9,15,24H,4-5,10-14,16H2,(H,25,28)

> <PUBCHEM_IUPAC_INCHIKEY>
MKNKEMCPBIDCMA-UHFFFAOYSA-N

> <PUBCHEM_XLOGP3_AA>
3.2

> <PUBCHEM_EXACT_MASS>
390.20557608

> <PUBCHEM_MOLECULAR_FORMULA>
C23H26N4O2

> <PUBCHEM_MOLECULAR_WEIGHT>
390.5

> <PUBCHEM_OPENEYE_CAN_SMILES>
C1CN(CCN1CCCC2=CNC3=CC=CC=C32)C4=CC=CC5=C4OCC(=O)N5

> <PUBCHEM_OPENEYE_ISO_SMILES>
C1CN(CCN1CCCC2=CNC3=CC=CC=C32)C4=CC=CC5=C4OCC(=O)N5

> <PUBCHEM_CACTVS_TPSA>
60.6

> <PUBCHEM_MONOISOTOPIC_WEIGHT>
390.20557608

> <PUBCHEM_TOTAL_CHARGE>
0

> <PUBCHEM_HEAVY_ATOM_COUNT>
29

> <PUBCHEM_ATOM_DEF_STEREO_COUNT>
0

> <PUBCHEM_ATOM_UDEF_STEREO_COUNT>
0

> <PUBCHEM_BOND_DEF_STEREO_COUNT>
0

> <PUBCHEM_BOND_UDEF_STEREO_COUNT>
0

> <PUBCHEM_ISOTOPIC_ATOM_COUNT>
0

> <PUBCHEM_COMPONENT_COUNT>
1

> <PUBCHEM_CACTVS_TAUTO_COUNT>
-1

> <PUBCHEM_COORDINATE_TYPE>
1
5
255

> <PUBCHEM_BONDANNOTATIONS>
13  16  8
13  17  8
15  18  8
15  20  8
16  19  8
17  22  8
18  21  8
18  24  8
19  23  8
21  27  8
22  23  8
24  28  8
27  29  8
28  29  8
5  20  8
5  21  8

$$$$
