44336046
  -OEChem-09292322162D

 57 60  0     1  0  0  0  0  0999 V2000
    7.6861   -4.9148    0.0000 Cl  0  0  0  0  0  0  0  0  0  0  0  0
    4.3211    1.4152    0.0000 O   0  0  0  0  0  0  0  0  0  0  0  0
    6.2781    1.0028    0.0000 N   0  3  1  0  0  0  0  0  0  0  0  0
    7.7667   -0.3329    0.0000 N   0  0  3  0  0  0  0  0  0  0  0  0
    4.6783    3.1100    0.0000 N   0  0  0  0  0  0  0  0  0  0  0  0
    7.2286    1.3134    0.0000 C   0  0  1  0  0  0  0  0  0  0  0  0
    6.0719    0.0243    0.0000 C   0  0  0  0  0  0  0  0  0  0  0  0
    7.9729    0.6456    0.0000 C   0  0  0  0  0  0  0  0  0  0  0  0
    5.9674    1.9533    0.0000 C   0  0  0  0  0  0  0  0  0  0  0  0
    6.8162   -0.6436    0.0000 C   0  0  0  0  0  0  0  0  0  0  0  0
    5.2996    1.2090    0.0000 C   0  0  0  0  0  0  0  0  0  0  0  0
    7.4348    2.2920    0.0000 C   0  0  0  0  0  0  0  0  0  0  0  0
    8.5110   -1.0008    0.0000 C   0  0  0  0  0  0  0  0  0  0  0  0
    4.9889    2.1595    0.0000 C   0  0  0  0  0  0  0  0  0  0  0  0
    5.2619    3.9148    0.0000 C   0  0  0  0  0  0  0  0  0  0  0  0
    8.3048   -1.9793    0.0000 C   0  0  0  0  0  0  0  0  0  0  0  0
    3.7320    3.4148    0.0000 C   0  0  0  0  0  0  0  0  0  0  0  0
    4.6783    4.7195    0.0000 C   0  0  0  0  0  0  0  0  0  0  0  0
    3.7320    4.4148    0.0000 C   0  0  0  0  0  0  0  0  0  0  0  0
    2.8660    2.9148    0.0000 C   0  0  0  0  0  0  0  0  0  0  0  0
    7.3543   -2.2899    0.0000 C   0  0  0  0  0  0  0  0  0  0  0  0
    9.0491   -2.6471    0.0000 C   0  0  0  0  0  0  0  0  0  0  0  0
    2.8660    4.9148    0.0000 C   0  0  0  0  0  0  0  0  0  0  0  0
    2.0000    3.4148    0.0000 C   0  0  0  0  0  0  0  0  0  0  0  0
    2.0000    4.4148    0.0000 C   0  0  0  0  0  0  0  0  0  0  0  0
    7.1480   -3.2684    0.0000 C   0  0  0  0  0  0  0  0  0  0  0  0
    8.8429   -3.6256    0.0000 C   0  0  0  0  0  0  0  0  0  0  0  0
    7.8924   -3.9363    0.0000 C   0  0  0  0  0  0  0  0  0  0  0  0
    6.7672    1.7275    0.0000 H   0  0  0  0  0  0  0  0  0  0  0  0
    5.4966    0.2555    0.0000 H   0  0  0  0  0  0  0  0  0  0  0  0
    5.7442   -0.5021    0.0000 H   0  0  0  0  0  0  0  0  0  0  0  0
    8.5482    0.4143    0.0000 H   0  0  0  0  0  0  0  0  0  0  0  0
    8.3006    1.1720    0.0000 H   0  0  0  0  0  0  0  0  0  0  0  0
    6.5812    2.0406    0.0000 H   0  0  0  0  0  0  0  0  0  0  0  0
    5.9880    2.5730    0.0000 H   0  0  0  0  0  0  0  0  0  0  0  0
    6.3283   -1.0261    0.0000 H   0  0  0  0  0  0  0  0  0  0  0  0
    7.1082   -1.1905    0.0000 H   0  0  0  0  0  0  0  0  0  0  0  0
    5.4274    1.8157    0.0000 H   0  0  0  0  0  0  0  0  0  0  0  0
    4.6929    1.3369    0.0000 H   0  0  0  0  0  0  0  0  0  0  0  0
    5.1717    0.6023    0.0000 H   0  0  0  0  0  0  0  0  0  0  0  0
    8.0415    2.1641    0.0000 H   0  0  0  0  0  0  0  0  0  0  0  0
    7.5627    2.8986    0.0000 H   0  0  0  0  0  0  0  0  0  0  0  0
    6.8282    2.4198    0.0000 H   0  0  0  0  0  0  0  0  0  0  0  0
    9.0863   -1.2320    0.0000 H   0  0  0  0  0  0  0  0  0  0  0  0
    8.8386   -0.4744    0.0000 H   0  0  0  0  0  0  0  0  0  0  0  0
    5.7227    3.5000    0.0000 H   0  0  0  0  0  0  0  0  0  0  0  0
    5.7227    4.3295    0.0000 H   0  0  0  0  0  0  0  0  0  0  0  0
    5.2156    5.0287    0.0000 H   0  0  0  0  0  0  0  0  0  0  0  0
    4.4272    5.2864    0.0000 H   0  0  0  0  0  0  0  0  0  0  0  0
    2.8660    2.2948    0.0000 H   0  0  0  0  0  0  0  0  0  0  0  0
    6.8928   -1.8758    0.0000 H   0  0  0  0  0  0  0  0  0  0  0  0
    9.6384   -2.4545    0.0000 H   0  0  0  0  0  0  0  0  0  0  0  0
    2.8660    5.5348    0.0000 H   0  0  0  0  0  0  0  0  0  0  0  0
    1.4631    3.1048    0.0000 H   0  0  0  0  0  0  0  0  0  0  0  0
    1.4631    4.7248    0.0000 H   0  0  0  0  0  0  0  0  0  0  0  0
    6.5587   -3.4610    0.0000 H   0  0  0  0  0  0  0  0  0  0  0  0
    9.3043   -4.0397    0.0000 H   0  0  0  0  0  0  0  0  0  0  0  0
  1 28  1  0  0  0  0
  2 14  2  0  0  0  0
  3  6  1  0  0  0  0
  3  7  1  0  0  0  0
  3  9  1  0  0  0  0
  3 11  1  6  0  0  0
  4  8  1  0  0  0  0
  4 10  1  0  0  0  0
  4 13  1  0  0  0  0
  5 14  1  0  0  0  0
  5 15  1  0  0  0  0
  5 17  1  0  0  0  0
  6  8  1  0  0  0  0
  6 12  1  6  0  0  0
  6 29  1  0  0  0  0
  7 10  1  0  0  0  0
  7 30  1  0  0  0  0
  7 31  1  0  0  0  0
  8 32  1  0  0  0  0
  8 33  1  0  0  0  0
  9 14  1  0  0  0  0
  9 34  1  0  0  0  0
  9 35  1  0  0  0  0
 10 36  1  0  0  0  0
 10 37  1  0  0  0  0
 11 38  1  0  0  0  0
 11 39  1  0  0  0  0
 11 40  1  0  0  0  0
 12 41  1  0  0  0  0
 12 42  1  0  0  0  0
 12 43  1  0  0  0  0
 13 16  1  0  0  0  0
 13 44  1  0  0  0  0
 13 45  1  0  0  0  0
 15 18  1  0  0  0  0
 15 46  1  0  0  0  0
 15 47  1  0  0  0  0
 16 21  2  0  0  0  0
 16 22  1  0  0  0  0
 17 19  1  0  0  0  0
 17 20  2  0  0  0  0
 18 19  1  0  0  0  0
 18 48  1  0  0  0  0
 18 49  1  0  0  0  0
 19 23  2  0  0  0  0
 20 24  1  0  0  0  0
 20 50  1  0  0  0  0
 21 26  1  0  0  0  0
 21 51  1  0  0  0  0
 22 27  2  0  0  0  0
 22 52  1  0  0  0  0
 23 25  1  0  0  0  0
 23 53  1  0  0  0  0
 24 25  2  0  0  0  0
 24 54  1  0  0  0  0
 25 55  1  0  0  0  0
 26 28  2  0  0  0  0
 26 56  1  0  0  0  0
 27 28  1  0  0  0  0
 27 57  1  0  0  0  0
M  CHG  1   3   1
M  END
> <PUBCHEM_COMPOUND_CID>
44336046

> <PUBCHEM_COMPOUND_CANONICALIZED>
1

> <PUBCHEM_CACTVS_COMPLEXITY>
550

> <PUBCHEM_CACTVS_HBOND_ACCEPTOR>
2

> <PUBCHEM_CACTVS_HBOND_DONOR>
0

> <PUBCHEM_CACTVS_ROTATABLE_BOND>
4

> <PUBCHEM_CACTVS_SUBSKEYS>
AAADceB7IAAEAAAAAAAAAAAAAAAAAWAAAAA8YIAAAAAAAFgBQAAAHgIAAAAADCrBmCQywIMAAACIAiVSUACCAAAhBwAIiACIZogIYCLBk7GUIAhghgDIyAcQgIAOBAAAAAACAAAIAAAAAAQAAAAAAAAAAA==

> <PUBCHEM_IUPAC_OPENEYE_NAME>
2-[(1S,2R)-4-[(4-chlorophenyl)methyl]-1,2-dimethyl-piperazin-1-ium-1-yl]-1-indolin-1-yl-ethanone

> <PUBCHEM_IUPAC_CAS_NAME>
2-[(1S,2R)-4-[(4-chlorophenyl)methyl]-1,2-dimethyl-1-piperazin-1-iumyl]-1-(2,3-dihydroindol-1-yl)ethanone

> <PUBCHEM_IUPAC_NAME_MARKUP>
2-[(1<I>S</I>,2<I>R</I>)-4-[(4-chlorophenyl)methyl]-1,2-dimethylpiperazin-1-ium-1-yl]-1-(2,3-dihydroindol-1-yl)ethanone

> <PUBCHEM_IUPAC_NAME>
2-[(1S,2R)-4-[(4-chlorophenyl)methyl]-1,2-dimethylpiperazin-1-ium-1-yl]-1-(2,3-dihydroindol-1-yl)ethanone

> <PUBCHEM_IUPAC_SYSTEMATIC_NAME>
2-[(1S,2R)-4-[(4-chlorophenyl)methyl]-1,2-dimethyl-piperazin-1-ium-1-yl]-1-(2,3-dihydroindol-1-yl)ethanone

> <PUBCHEM_IUPAC_TRADITIONAL_NAME>
2-[(1S,2R)-4-(4-chlorobenzyl)-1,2-dimethyl-piperazin-1-ium-1-yl]-1-indolin-1-yl-ethanone

> <PUBCHEM_IUPAC_INCHI>
InChI=1S/C23H29ClN3O/c1-18-15-25(16-19-7-9-21(24)10-8-19)13-14-27(18,2)17-23(28)26-12-11-20-5-3-4-6-22(20)26/h3-10,18H,11-17H2,1-2H3/q+1/t18-,27+/m1/s1

> <PUBCHEM_IUPAC_INCHIKEY>
IZWDJSXJHNPRDP-CLYVBNDRSA-N

> <PUBCHEM_XLOGP3_AA>
3.8

> <PUBCHEM_EXACT_MASS>
398.1999153

> <PUBCHEM_MOLECULAR_FORMULA>
C23H29ClN3O+

> <PUBCHEM_MOLECULAR_WEIGHT>
398.9

> <PUBCHEM_OPENEYE_CAN_SMILES>
CC1CN(CC[N+]1(C)CC(=O)N2CCC3=CC=CC=C32)CC4=CC=C(C=C4)Cl

> <PUBCHEM_OPENEYE_ISO_SMILES>
C[C@@H]1CN(CC[N@@+]1(C)CC(=O)N2CCC3=CC=CC=C32)CC4=CC=C(C=C4)Cl

> <PUBCHEM_CACTVS_TPSA>
23.6

> <PUBCHEM_MONOISOTOPIC_WEIGHT>
398.1999153

> <PUBCHEM_TOTAL_CHARGE>
1

> <PUBCHEM_HEAVY_ATOM_COUNT>
28

> <PUBCHEM_ATOM_DEF_STEREO_COUNT>
2

> <PUBCHEM_ATOM_UDEF_STEREO_COUNT>
0

> <PUBCHEM_BOND_DEF_STEREO_COUNT>
0

> <PUBCHEM_BOND_UDEF_STEREO_COUNT>
0

> <PUBCHEM_ISOTOPIC_ATOM_COUNT>
0

> <PUBCHEM_COMPONENT_COUNT>
1

> <PUBCHEM_CACTVS_TAUTO_COUNT>
-1

> <PUBCHEM_COORDINATE_TYPE>
1
5
255

> <PUBCHEM_BONDANNOTATIONS>
16  21  8
16  22  8
17  19  8
17  20  8
19  23  8
20  24  8
21  26  8
22  27  8
23  25  8
24  25  8
26  28  8
27  28  8
3  11  6
6  12  6

$$$$
