14576389
  -OEChem-09292322062D

 62 67  0     1  0  0  0  0  0999 V2000
    2.0000    0.4919    0.0000 F   0  0  0  0  0  0  0  0  0  0  0  0
   13.6342   -1.9732    0.0000 O   0  0  0  0  0  0  0  0  0  0  0  0
   12.4335    1.3256    0.0000 O   0  0  0  0  0  0  0  0  0  0  0  0
    4.3406   -2.1768    0.0000 O   0  0  0  0  0  0  0  0  0  0  0  0
   12.7774   -0.4172    0.0000 N   0  0  0  0  0  0  0  0  0  0  0  0
    8.4262   -0.1576    0.0000 N   0  0  0  0  0  0  0  0  0  0  0  0
    5.3340   -2.1395    0.0000 N   0  0  0  0  0  0  0  0  0  0  0  0
   15.7587    0.2282    0.0000 C   0  0  2  0  0  0  0  0  0  0  0  0
   16.0175    1.1942    0.0000 C   0  0  1  0  0  0  0  0  0  0  0  0
   14.3860   -0.3638    0.0000 C   0  0  2  0  0  0  0  0  0  0  0  0
   14.0439    0.5759    0.0000 C   0  0  1  0  0  0  0  0  0  0  0  0
   15.2809    2.1768    0.0000 C   0  0  0  0  0  0  0  0  0  0  0  0
   17.1576   -0.2806    0.0000 C   0  0  0  0  0  0  0  0  0  0  0  0
   17.4164    0.6854    0.0000 C   0  0  0  0  0  0  0  0  0  0  0  0
   13.6010   -0.9738    0.0000 C   0  0  0  0  0  0  0  0  0  0  0  0
   13.0506    0.5386    0.0000 C   0  0  0  0  0  0  0  0  0  0  0  0
   11.8377   -0.7592    0.0000 C   0  0  0  0  0  0  0  0  0  0  0  0
   11.0716   -0.1164    0.0000 C   0  0  0  0  0  0  0  0  0  0  0  0
   10.1320   -0.4584    0.0000 C   0  0  0  0  0  0  0  0  0  0  0  0
    9.3659    0.1844    0.0000 C   0  0  0  0  0  0  0  0  0  0  0  0
    6.5468   -0.8417    0.0000 C   0  0  0  0  0  0  0  0  0  0  0  0
    7.6602    0.4851    0.0000 C   0  0  0  0  0  0  0  0  0  0  0  0
    8.2526   -1.1424    0.0000 C   0  0  0  0  0  0  0  0  0  0  0  0
    6.7205    0.1431    0.0000 C   0  0  0  0  0  0  0  0  0  0  0  0
    7.3129   -1.4845    0.0000 C   0  0  0  0  0  0  0  0  0  0  0  0
    5.6071   -1.1837    0.0000 C   0  0  0  0  0  0  0  0  0  0  0  0
    4.7835   -0.6271    0.0000 C   0  0  0  0  0  0  0  0  0  0  0  0
    3.9966   -1.2441    0.0000 C   0  0  0  0  0  0  0  0  0  0  0  0
    4.6426    0.3629    0.0000 C   0  0  0  0  0  0  0  0  0  0  0  0
    3.0687   -0.8711    0.0000 C   0  0  0  0  0  0  0  0  0  0  0  0
    3.7148    0.7359    0.0000 C   0  0  0  0  0  0  0  0  0  0  0  0
    2.9278    0.1189    0.0000 C   0  0  0  0  0  0  0  0  0  0  0  0
   15.5387   -0.5928    0.0000 H   0  0  0  0  0  0  0  0  0  0  0  0
   16.2375    2.0152    0.0000 H   0  0  0  0  0  0  0  0  0  0  0  0
   14.6767   -1.1625    0.0000 H   0  0  0  0  0  0  0  0  0  0  0  0
   13.7532    1.3747    0.0000 H   0  0  0  0  0  0  0  0  0  0  0  0
   15.5987    2.7091    0.0000 H   0  0  0  0  0  0  0  0  0  0  0  0
   14.6677    2.2687    0.0000 H   0  0  0  0  0  0  0  0  0  0  0  0
   16.9627   -0.8691    0.0000 H   0  0  0  0  0  0  0  0  0  0  0  0
   17.7516   -0.4583    0.0000 H   0  0  0  0  0  0  0  0  0  0  0  0
   18.0104    0.5076    0.0000 H   0  0  0  0  0  0  0  0  0  0  0  0
   17.6114    1.2739    0.0000 H   0  0  0  0  0  0  0  0  0  0  0  0
   11.3627   -1.1577    0.0000 H   0  0  0  0  0  0  0  0  0  0  0  0
   12.1477   -1.2961    0.0000 H   0  0  0  0  0  0  0  0  0  0  0  0
   11.5466    0.2821    0.0000 H   0  0  0  0  0  0  0  0  0  0  0  0
   10.7616    0.4205    0.0000 H   0  0  0  0  0  0  0  0  0  0  0  0
    9.6570   -0.8569    0.0000 H   0  0  0  0  0  0  0  0  0  0  0  0
   10.4420   -0.9953    0.0000 H   0  0  0  0  0  0  0  0  0  0  0  0
    9.8409    0.5829    0.0000 H   0  0  0  0  0  0  0  0  0  0  0  0
    9.0559    0.7213    0.0000 H   0  0  0  0  0  0  0  0  0  0  0  0
    6.0719   -0.4432    0.0000 H   0  0  0  0  0  0  0  0  0  0  0  0
    8.1351    0.8837    0.0000 H   0  0  0  0  0  0  0  0  0  0  0  0
    7.3502    1.0221    0.0000 H   0  0  0  0  0  0  0  0  0  0  0  0
    8.3602   -1.7530    0.0000 H   0  0  0  0  0  0  0  0  0  0  0  0
    8.8726   -1.1424    0.0000 H   0  0  0  0  0  0  0  0  0  0  0  0
    6.6128    0.7537    0.0000 H   0  0  0  0  0  0  0  0  0  0  0  0
    6.1005    0.1431    0.0000 H   0  0  0  0  0  0  0  0  0  0  0  0
    6.8379   -1.8830    0.0000 H   0  0  0  0  0  0  0  0  0  0  0  0
    7.6229   -2.0214    0.0000 H   0  0  0  0  0  0  0  0  0  0  0  0
    5.1305    0.7455    0.0000 H   0  0  0  0  0  0  0  0  0  0  0  0
    2.5808   -1.2537    0.0000 H   0  0  0  0  0  0  0  0  0  0  0  0
    3.6274    1.3497    0.0000 H   0  0  0  0  0  0  0  0  0  0  0  0
  1 32  1  0  0  0  0
  2 15  2  0  0  0  0
  3 16  2  0  0  0  0
  4  7  1  0  0  0  0
  4 28  1  0  0  0  0
  5 15  1  0  0  0  0
  5 16  1  0  0  0  0
  5 17  1  0  0  0  0
  6 20  1  0  0  0  0
  6 22  1  0  0  0  0
  6 23  1  0  0  0  0
  7 26  2  0  0  0  0
  8 10  1  0  0  0  0
  8 12  1  0  0  0  0
  8 13  1  0  0  0  0
  8 33  1  1  0  0  0
  9 11  1  0  0  0  0
  9 12  1  0  0  0  0
  9 14  1  0  0  0  0
  9 34  1  6  0  0  0
 10 11  1  0  0  0  0
 10 15  1  0  0  0  0
 10 35  1  6  0  0  0
 11 16  1  0  0  0  0
 11 36  1  6  0  0  0
 12 37  1  0  0  0  0
 12 38  1  0  0  0  0
 13 14  1  0  0  0  0
 13 39  1  0  0  0  0
 13 40  1  0  0  0  0
 14 41  1  0  0  0  0
 14 42  1  0  0  0  0
 17 18  1  0  0  0  0
 17 43  1  0  0  0  0
 17 44  1  0  0  0  0
 18 19  1  0  0  0  0
 18 45  1  0  0  0  0
 18 46  1  0  0  0  0
 19 20  1  0  0  0  0
 19 47  1  0  0  0  0
 19 48  1  0  0  0  0
 20 49  1  0  0  0  0
 20 50  1  0  0  0  0
 21 24  1  0  0  0  0
 21 25  1  0  0  0  0
 21 26  1  0  0  0  0
 21 51  1  0  0  0  0
 22 24  1  0  0  0  0
 22 52  1  0  0  0  0
 22 53  1  0  0  0  0
 23 25  1  0  0  0  0
 23 54  1  0  0  0  0
 23 55  1  0  0  0  0
 24 56  1  0  0  0  0
 24 57  1  0  0  0  0
 25 58  1  0  0  0  0
 25 59  1  0  0  0  0
 26 27  1  0  0  0  0
 27 28  2  0  0  0  0
 27 29  1  0  0  0  0
 28 30  1  0  0  0  0
 29 31  2  0  0  0  0
 29 60  1  0  0  0  0
 30 32  2  0  0  0  0
 30 61  1  0  0  0  0
 31 32  1  0  0  0  0
 31 62  1  0  0  0  0
M  END
> <PUBCHEM_COMPOUND_CID>
14576389

> <PUBCHEM_COMPOUND_CANONICALIZED>
1

> <PUBCHEM_CACTVS_COMPLEXITY>
714

> <PUBCHEM_CACTVS_HBOND_ACCEPTOR>
6

> <PUBCHEM_CACTVS_HBOND_DONOR>
0

> <PUBCHEM_CACTVS_ROTATABLE_BOND>
6

> <PUBCHEM_CACTVS_SUBSKEYS>
AAADceB7MQAAAAAAAAAAAAAAAAAAAePECAA8YIAAAAAWAFgB8AAAHwAEAAAADQzBngwwhtMQAACpA6VyUgCCAAAkIAAomCE+TNoIJrqAlZOEMYBmxjmIycedyOCOgAAAAAAIAAAAAAQAADAAAQAACAAAAA==

> <PUBCHEM_IUPAC_OPENEYE_NAME>
(1S,2R,6S,7R)-4-[4-[4-(6-fluoro-1,2-benzoxazol-3-yl)-1-piperidyl]butyl]-4-azatricyclo[5.2.1.02,6]decane-3,5-dione

> <PUBCHEM_IUPAC_CAS_NAME>
(1S,2R,6S,7R)-4-[4-[4-(6-fluoro-1,2-benzoxazol-3-yl)-1-piperidinyl]butyl]-4-azatricyclo[5.2.1.02,6]decane-3,5-dione

> <PUBCHEM_IUPAC_NAME_MARKUP>
(1<I>S</I>,2<I>R</I>,6<I>S</I>,7<I>R</I>)-4-[4-[4-(6-fluoro-1,2-benzoxazol-3-yl)piperidin-1-yl]butyl]-4-azatricyclo[5.2.1.0<SUP>2,6</SUP>]decane-3,5-dione

> <PUBCHEM_IUPAC_NAME>
(1S,2R,6S,7R)-4-[4-[4-(6-fluoro-1,2-benzoxazol-3-yl)piperidin-1-yl]butyl]-4-azatricyclo[5.2.1.02,6]decane-3,5-dione

> <PUBCHEM_IUPAC_SYSTEMATIC_NAME>
(1S,2R,6S,7R)-4-[4-[4-(6-fluoranyl-1,2-benzoxazol-3-yl)piperidin-1-yl]butyl]-4-azatricyclo[5.2.1.02,6]decane-3,5-dione

> <PUBCHEM_IUPAC_TRADITIONAL_NAME>
(1S,2R,6S,7R)-4-[4-[4-(6-fluoroindoxazen-3-yl)piperidino]butyl]-4-azatricyclo[5.2.1.02,6]decane-3,5-quinone

> <PUBCHEM_IUPAC_INCHI>
InChI=1S/C25H30FN3O3/c26-18-5-6-19-20(14-18)32-27-23(19)15-7-11-28(12-8-15)9-1-2-10-29-24(30)21-16-3-4-17(13-16)22(21)25(29)31/h5-6,14-17,21-22H,1-4,7-13H2/t16-,17+,21+,22-

> <PUBCHEM_IUPAC_INCHIKEY>
ZXRTUAYDQBCOPH-UWSKWSKGSA-N

> <PUBCHEM_XLOGP3_AA>
3.8

> <PUBCHEM_EXACT_MASS>
439.22711999

> <PUBCHEM_MOLECULAR_FORMULA>
C25H30FN3O3

> <PUBCHEM_MOLECULAR_WEIGHT>
439.5

> <PUBCHEM_OPENEYE_CAN_SMILES>
C1CC2CC1C3C2C(=O)N(C3=O)CCCCN4CCC(CC4)C5=NOC6=C5C=CC(=C6)F

> <PUBCHEM_OPENEYE_ISO_SMILES>
C1C[C@H]2C[C@@H]1[C@H]3[C@@H]2C(=O)N(C3=O)CCCCN4CCC(CC4)C5=NOC6=C5C=CC(=C6)F

> <PUBCHEM_CACTVS_TPSA>
66.6

> <PUBCHEM_MONOISOTOPIC_WEIGHT>
439.22711999

> <PUBCHEM_TOTAL_CHARGE>
0

> <PUBCHEM_HEAVY_ATOM_COUNT>
32

> <PUBCHEM_ATOM_DEF_STEREO_COUNT>
4

> <PUBCHEM_ATOM_UDEF_STEREO_COUNT>
0

> <PUBCHEM_BOND_DEF_STEREO_COUNT>
0

> <PUBCHEM_BOND_UDEF_STEREO_COUNT>
0

> <PUBCHEM_ISOTOPIC_ATOM_COUNT>
0

> <PUBCHEM_COMPONENT_COUNT>
1

> <PUBCHEM_CACTVS_TAUTO_COUNT>
-1

> <PUBCHEM_COORDINATE_TYPE>
1
5
255

> <PUBCHEM_BONDANNOTATIONS>
10  35  6
11  36  6
26  27  8
27  28  8
27  29  8
28  30  8
29  31  8
30  32  8
31  32  8
4  28  8
4  7  8
7  26  8
8  33  5
9  34  6

$$$$
