127047898
  -OEChem-09292322372D

 63 66  0     0  0  0  0  0  0999 V2000
    8.4530   -2.5740    0.0000 S   0  0  0  0  0  0  0  0  0  0  0  0
    9.4035   -2.2633    0.0000 O   0  0  0  0  0  0  0  0  0  0  0  0
    7.5025   -2.8847    0.0000 O   0  0  0  0  0  0  0  0  0  0  0  0
    4.5981   -1.8187    0.0000 N   0  0  0  0  0  0  0  0  0  0  0  0
    2.8660   -2.8187    0.0000 N   0  0  0  0  0  0  0  0  0  0  0  0
    8.1424   -1.6235    0.0000 N   0  0  0  0  0  0  0  0  0  0  0  0
    6.3301   -1.8187    0.0000 N   0  0  0  0  0  0  0  0  0  0  0  0
    4.5981   -2.8187    0.0000 C   0  0  0  0  0  0  0  0  0  0  0  0
    3.7320   -1.3187    0.0000 C   0  0  0  0  0  0  0  0  0  0  0  0
    3.7320   -3.3187    0.0000 C   0  0  0  0  0  0  0  0  0  0  0  0
    2.8660   -1.8187    0.0000 C   0  0  0  0  0  0  0  0  0  0  0  0
    5.4641   -1.3187    0.0000 C   0  0  0  0  0  0  0  0  0  0  0  0
    7.1962   -1.3187    0.0000 C   0  0  0  0  0  0  0  0  0  0  0  0
    7.1962   -0.3187    0.0000 C   0  0  0  0  0  0  0  0  0  0  0  0
    8.7637   -3.5245    0.0000 C   0  0  0  0  0  0  0  0  0  0  0  0
    6.3301    0.1813    0.0000 C   0  0  0  0  0  0  0  0  0  0  0  0
    5.4641   -0.3187    0.0000 C   0  0  0  0  0  0  0  0  0  0  0  0
    9.7422   -3.7307    0.0000 C   0  0  0  0  0  0  0  0  0  0  0  0
    8.7260   -0.8187    0.0000 C   0  0  0  0  0  0  0  0  0  0  0  0
    2.0000   -3.3187    0.0000 C   0  0  0  0  0  0  0  0  0  0  0  0
    8.1424   -0.0140    0.0000 C   0  0  0  0  0  0  0  0  0  0  0  0
    6.3301    1.1813    0.0000 C   0  0  0  0  0  0  0  0  0  0  0  0
   10.0529   -4.6813    0.0000 C   0  0  0  0  0  0  0  0  0  0  0  0
   10.4100   -2.9864    0.0000 C   0  0  0  0  0  0  0  0  0  0  0  0
    7.1962    1.6813    0.0000 C   0  0  0  0  0  0  0  0  0  0  0  0
    5.4641    1.6813    0.0000 C   0  0  0  0  0  0  0  0  0  0  0  0
    6.3301    3.1813    0.0000 C   0  0  0  0  0  0  0  0  0  0  0  0
    7.1962    2.6813    0.0000 C   0  0  0  0  0  0  0  0  0  0  0  0
    5.4641    2.6813    0.0000 C   0  0  0  0  0  0  0  0  0  0  0  0
    6.3301    4.1813    0.0000 C   0  0  0  0  0  0  0  0  0  0  0  0
    5.4641    4.6813    0.0000 C   0  0  0  0  0  0  0  0  0  0  0  0
    4.8101   -3.4014    0.0000 H   0  0  0  0  0  0  0  0  0  0  0  0
    5.2087   -2.7111    0.0000 H   0  0  0  0  0  0  0  0  0  0  0  0
    4.1306   -0.8438    0.0000 H   0  0  0  0  0  0  0  0  0  0  0  0
    3.3335   -0.8438    0.0000 H   0  0  0  0  0  0  0  0  0  0  0  0
    3.3335   -3.7937    0.0000 H   0  0  0  0  0  0  0  0  0  0  0  0
    4.1306   -3.7937    0.0000 H   0  0  0  0  0  0  0  0  0  0  0  0
    2.6540   -1.2361    0.0000 H   0  0  0  0  0  0  0  0  0  0  0  0
    2.2554   -1.9264    0.0000 H   0  0  0  0  0  0  0  0  0  0  0  0
    8.1499   -3.6119    0.0000 H   0  0  0  0  0  0  0  0  0  0  0  0
    8.7431   -4.1442    0.0000 H   0  0  0  0  0  0  0  0  0  0  0  0
    4.9272   -0.0087    0.0000 H   0  0  0  0  0  0  0  0  0  0  0  0
    9.5496   -3.1414    0.0000 H   0  0  0  0  0  0  0  0  0  0  0  0
    9.3460   -0.8187    0.0000 H   0  0  0  0  0  0  0  0  0  0  0  0
    1.6900   -2.7818    0.0000 H   0  0  0  0  0  0  0  0  0  0  0  0
    1.4631   -3.6287    0.0000 H   0  0  0  0  0  0  0  0  0  0  0  0
    2.3100   -3.8557    0.0000 H   0  0  0  0  0  0  0  0  0  0  0  0
    8.3350    0.5753    0.0000 H   0  0  0  0  0  0  0  0  0  0  0  0
    9.4635   -4.8739    0.0000 H   0  0  0  0  0  0  0  0  0  0  0  0
   10.2455   -5.2706    0.0000 H   0  0  0  0  0  0  0  0  0  0  0  0
   10.6422   -4.4886    0.0000 H   0  0  0  0  0  0  0  0  0  0  0  0
   10.8715   -3.4005    0.0000 H   0  0  0  0  0  0  0  0  0  0  0  0
   10.8241   -2.5250    0.0000 H   0  0  0  0  0  0  0  0  0  0  0  0
    9.9486   -2.5724    0.0000 H   0  0  0  0  0  0  0  0  0  0  0  0
    7.7331    1.3713    0.0000 H   0  0  0  0  0  0  0  0  0  0  0  0
    4.9272    1.3713    0.0000 H   0  0  0  0  0  0  0  0  0  0  0  0
    7.7331    2.9913    0.0000 H   0  0  0  0  0  0  0  0  0  0  0  0
    4.9272    2.9913    0.0000 H   0  0  0  0  0  0  0  0  0  0  0  0
    6.9407    4.0736    0.0000 H   0  0  0  0  0  0  0  0  0  0  0  0
    6.5422    4.7639    0.0000 H   0  0  0  0  0  0  0  0  0  0  0  0
    5.7741    5.2182    0.0000 H   0  0  0  0  0  0  0  0  0  0  0  0
    4.9272    4.9913    0.0000 H   0  0  0  0  0  0  0  0  0  0  0  0
    5.1541    4.1443    0.0000 H   0  0  0  0  0  0  0  0  0  0  0  0
  1  2  2  0  0  0  0
  1  3  2  0  0  0  0
  1  6  1  0  0  0  0
  1 15  1  0  0  0  0
  4  8  1  0  0  0  0
  4  9  1  0  0  0  0
  4 12  1  0  0  0  0
  5 10  1  0  0  0  0
  5 11  1  0  0  0  0
  5 20  1  0  0  0  0
  6 13  1  0  0  0  0
  6 19  1  0  0  0  0
  7 12  2  0  0  0  0
  7 13  1  0  0  0  0
  8 10  1  0  0  0  0
  8 32  1  0  0  0  0
  8 33  1  0  0  0  0
  9 11  1  0  0  0  0
  9 34  1  0  0  0  0
  9 35  1  0  0  0  0
 10 36  1  0  0  0  0
 10 37  1  0  0  0  0
 11 38  1  0  0  0  0
 11 39  1  0  0  0  0
 12 17  1  0  0  0  0
 13 14  2  0  0  0  0
 14 16  1  0  0  0  0
 14 21  1  0  0  0  0
 15 18  1  0  0  0  0
 15 40  1  0  0  0  0
 15 41  1  0  0  0  0
 16 17  2  0  0  0  0
 16 22  1  0  0  0  0
 17 42  1  0  0  0  0
 18 23  1  0  0  0  0
 18 24  1  0  0  0  0
 18 43  1  0  0  0  0
 19 21  2  0  0  0  0
 19 44  1  0  0  0  0
 20 45  1  0  0  0  0
 20 46  1  0  0  0  0
 20 47  1  0  0  0  0
 21 48  1  0  0  0  0
 22 25  2  0  0  0  0
 22 26  1  0  0  0  0
 23 49  1  0  0  0  0
 23 50  1  0  0  0  0
 23 51  1  0  0  0  0
 24 52  1  0  0  0  0
 24 53  1  0  0  0  0
 24 54  1  0  0  0  0
 25 28  1  0  0  0  0
 25 55  1  0  0  0  0
 26 29  2  0  0  0  0
 26 56  1  0  0  0  0
 27 28  2  0  0  0  0
 27 29  1  0  0  0  0
 27 30  1  0  0  0  0
 28 57  1  0  0  0  0
 29 58  1  0  0  0  0
 30 31  1  0  0  0  0
 30 59  1  0  0  0  0
 30 60  1  0  0  0  0
 31 61  1  0  0  0  0
 31 62  1  0  0  0  0
 31 63  1  0  0  0  0
M  END
> <PUBCHEM_COMPOUND_CID>
127047898

> <PUBCHEM_COMPOUND_CANONICALIZED>
1

> <PUBCHEM_CACTVS_COMPLEXITY>
678

> <PUBCHEM_CACTVS_HBOND_ACCEPTOR>
5

> <PUBCHEM_CACTVS_HBOND_DONOR>
0

> <PUBCHEM_CACTVS_ROTATABLE_BOND>
6

> <PUBCHEM_CACTVS_SUBSKEYS>
AAADcfB7sABAAAAAAAAAAAAAAAAAAWAAAAA8WIAAAAAAAFgB/AAAHAQAQAAADQDFWwS/sN8IEAKgAjJnZHDCgCkxAqAJ2CA4ZJiIaOLAmZGUIAhogALIyCcQgMAOwAAAAAAAAACAAAAAAAAAAAAAAAAAAA==

> <PUBCHEM_IUPAC_OPENEYE_NAME>
4-(4-ethylphenyl)-1-isobutylsulfonyl-6-(4-methylpiperazin-1-yl)pyrrolo[2,3-b]pyridine

> <PUBCHEM_IUPAC_CAS_NAME>
4-(4-ethylphenyl)-6-(4-methyl-1-piperazinyl)-1-(2-methylpropylsulfonyl)pyrrolo[2,3-b]pyridine

> <PUBCHEM_IUPAC_NAME_MARKUP>
4-(4-ethylphenyl)-6-(4-methylpiperazin-1-yl)-1-(2-methylpropylsulfonyl)pyrrolo[2,3-b]pyridine

> <PUBCHEM_IUPAC_NAME>
4-(4-ethylphenyl)-6-(4-methylpiperazin-1-yl)-1-(2-methylpropylsulfonyl)pyrrolo[2,3-b]pyridine

> <PUBCHEM_IUPAC_SYSTEMATIC_NAME>
4-(4-ethylphenyl)-6-(4-methylpiperazin-1-yl)-1-(2-methylpropylsulfonyl)pyrrolo[2,3-b]pyridine

> <PUBCHEM_IUPAC_TRADITIONAL_NAME>
4-(4-ethylphenyl)-1-isobutylsulfonyl-6-(4-methylpiperazino)pyrrolo[2,3-b]pyridine

> <PUBCHEM_IUPAC_INCHI>
InChI=1S/C24H32N4O2S/c1-5-19-6-8-20(9-7-19)22-16-23(27-14-12-26(4)13-15-27)25-24-21(22)10-11-28(24)31(29,30)17-18(2)3/h6-11,16,18H,5,12-15,17H2,1-4H3

> <PUBCHEM_IUPAC_INCHIKEY>
LBZMBFXUYVOEEN-UHFFFAOYSA-N

> <PUBCHEM_XLOGP3_AA>
5

> <PUBCHEM_EXACT_MASS>
440.22459745

> <PUBCHEM_MOLECULAR_FORMULA>
C24H32N4O2S

> <PUBCHEM_MOLECULAR_WEIGHT>
440.6

> <PUBCHEM_OPENEYE_CAN_SMILES>
CCC1=CC=C(C=C1)C2=CC(=NC3=C2C=CN3S(=O)(=O)CC(C)C)N4CCN(CC4)C

> <PUBCHEM_OPENEYE_ISO_SMILES>
CCC1=CC=C(C=C1)C2=CC(=NC3=C2C=CN3S(=O)(=O)CC(C)C)N4CCN(CC4)C

> <PUBCHEM_CACTVS_TPSA>
66.8

> <PUBCHEM_MONOISOTOPIC_WEIGHT>
440.22459745

> <PUBCHEM_TOTAL_CHARGE>
0

> <PUBCHEM_HEAVY_ATOM_COUNT>
31

> <PUBCHEM_ATOM_DEF_STEREO_COUNT>
0

> <PUBCHEM_ATOM_UDEF_STEREO_COUNT>
0

> <PUBCHEM_BOND_DEF_STEREO_COUNT>
0

> <PUBCHEM_BOND_UDEF_STEREO_COUNT>
0

> <PUBCHEM_ISOTOPIC_ATOM_COUNT>
0

> <PUBCHEM_COMPONENT_COUNT>
1

> <PUBCHEM_CACTVS_TAUTO_COUNT>
-1

> <PUBCHEM_COORDINATE_TYPE>
1
5
255

> <PUBCHEM_BONDANNOTATIONS>
12  17  8
13  14  8
14  16  8
14  21  8
16  17  8
19  21  8
22  25  8
22  26  8
25  28  8
26  29  8
27  28  8
27  29  8
6  13  8
6  19  8
7  12  8
7  13  8

$$$$
