57527911
  -OEChem-09292322462D

 41 42  0     0  0  0  0  0  0999 V2000
    6.7619   -1.4680    0.0000 O   0  0  0  0  0  0  0  0  0  0  0  0
    6.7619    0.2640    0.0000 N   0  0  0  0  0  0  0  0  0  0  0  0
    4.6783   -1.4067    0.0000 N   0  0  0  0  0  0  0  0  0  0  0  0
    7.7619    0.2640    0.0000 C   0  0  0  0  0  0  0  0  0  0  0  0
    8.2619    1.1300    0.0000 C   0  0  0  0  0  0  0  0  0  0  0  0
    8.2619   -0.6020    0.0000 C   0  0  0  0  0  0  0  0  0  0  0  0
    9.2619    1.1300    0.0000 C   0  0  0  0  0  0  0  0  0  0  0  0
    9.2619   -0.6020    0.0000 C   0  0  0  0  0  0  0  0  0  0  0  0
    6.2619   -0.6020    0.0000 C   0  0  0  0  0  0  0  0  0  0  0  0
    5.2619   -0.6020    0.0000 C   0  0  0  0  0  0  0  0  0  0  0  0
    9.7619    1.9961    0.0000 C   0  0  0  0  0  0  0  0  0  0  0  0
    9.7619   -1.4680    0.0000 C   0  0  0  0  0  0  0  0  0  0  0  0
    3.7320   -1.1020    0.0000 C   0  0  0  0  0  0  0  0  0  0  0  0
    3.7320   -0.1020    0.0000 C   0  0  0  0  0  0  0  0  0  0  0  0
    4.6783    0.2027    0.0000 C   0  0  0  0  0  0  0  0  0  0  0  0
    2.8660   -1.6020    0.0000 C   0  0  0  0  0  0  0  0  0  0  0  0
    2.8660    0.3980    0.0000 C   0  0  0  0  0  0  0  0  0  0  0  0
    2.0000   -1.1020    0.0000 C   0  0  0  0  0  0  0  0  0  0  0  0
    2.0000   -0.1020    0.0000 C   0  0  0  0  0  0  0  0  0  0  0  0
    7.4519    0.8010    0.0000 H   0  0  0  0  0  0  0  0  0  0  0  0
    8.3695    1.7406    0.0000 H   0  0  0  0  0  0  0  0  0  0  0  0
    7.6793    1.3421    0.0000 H   0  0  0  0  0  0  0  0  0  0  0  0
    7.6793   -0.8141    0.0000 H   0  0  0  0  0  0  0  0  0  0  0  0
    8.3695   -1.2126    0.0000 H   0  0  0  0  0  0  0  0  0  0  0  0
    9.1542    0.5195    0.0000 H   0  0  0  0  0  0  0  0  0  0  0  0
    9.8445    0.9180    0.0000 H   0  0  0  0  0  0  0  0  0  0  0  0
    9.8445   -0.3900    0.0000 H   0  0  0  0  0  0  0  0  0  0  0  0
    9.1542    0.0086    0.0000 H   0  0  0  0  0  0  0  0  0  0  0  0
    6.4519    0.8010    0.0000 H   0  0  0  0  0  0  0  0  0  0  0  0
   10.2988    1.6861    0.0000 H   0  0  0  0  0  0  0  0  0  0  0  0
   10.0719    2.5330    0.0000 H   0  0  0  0  0  0  0  0  0  0  0  0
    9.2249    2.3061    0.0000 H   0  0  0  0  0  0  0  0  0  0  0  0
    9.2249   -1.7780    0.0000 H   0  0  0  0  0  0  0  0  0  0  0  0
   10.0719   -2.0050    0.0000 H   0  0  0  0  0  0  0  0  0  0  0  0
   10.2988   -1.1580    0.0000 H   0  0  0  0  0  0  0  0  0  0  0  0
    4.8709   -1.9961    0.0000 H   0  0  0  0  0  0  0  0  0  0  0  0
    4.8709    0.7920    0.0000 H   0  0  0  0  0  0  0  0  0  0  0  0
    2.8660   -2.2220    0.0000 H   0  0  0  0  0  0  0  0  0  0  0  0
    2.8660    1.0180    0.0000 H   0  0  0  0  0  0  0  0  0  0  0  0
    1.4631   -1.4120    0.0000 H   0  0  0  0  0  0  0  0  0  0  0  0
    1.4631    0.2080    0.0000 H   0  0  0  0  0  0  0  0  0  0  0  0
  1  9  2  0  0  0  0
  2  4  1  0  0  0  0
  2  9  1  0  0  0  0
  2 29  1  0  0  0  0
  3 10  1  0  0  0  0
  3 13  1  0  0  0  0
  3 36  1  0  0  0  0
  4  5  1  0  0  0  0
  4  6  1  0  0  0  0
  4 20  1  0  0  0  0
  5  7  1  0  0  0  0
  5 21  1  0  0  0  0
  5 22  1  0  0  0  0
  6  8  1  0  0  0  0
  6 23  1  0  0  0  0
  6 24  1  0  0  0  0
  7 11  1  0  0  0  0
  7 25  1  0  0  0  0
  7 26  1  0  0  0  0
  8 12  1  0  0  0  0
  8 27  1  0  0  0  0
  8 28  1  0  0  0  0
  9 10  1  0  0  0  0
 10 15  2  0  0  0  0
 11 30  1  0  0  0  0
 11 31  1  0  0  0  0
 11 32  1  0  0  0  0
 12 33  1  0  0  0  0
 12 34  1  0  0  0  0
 12 35  1  0  0  0  0
 13 14  1  0  0  0  0
 13 16  2  0  0  0  0
 14 15  1  0  0  0  0
 14 17  2  0  0  0  0
 15 37  1  0  0  0  0
 16 18  1  0  0  0  0
 16 38  1  0  0  0  0
 17 19  1  0  0  0  0
 17 39  1  0  0  0  0
 18 19  2  0  0  0  0
 18 40  1  0  0  0  0
 19 41  1  0  0  0  0
M  END
> <PUBCHEM_COMPOUND_CID>
57527911

> <PUBCHEM_COMPOUND_CANONICALIZED>
1

> <PUBCHEM_CACTVS_COMPLEXITY>
287

> <PUBCHEM_CACTVS_HBOND_ACCEPTOR>
1

> <PUBCHEM_CACTVS_HBOND_DONOR>
2

> <PUBCHEM_CACTVS_ROTATABLE_BOND>
6

> <PUBCHEM_CACTVS_SUBSKEYS>
AAADceB7IAAAAAAAAAAAAAAAAAAAAWAAAAAwAAAAAAAAAFgB8AAAHgAQAAAADCjBngQywPLJkACoAyVyVACCgCAnAiAImaG4ZNgIYPLAlbGUIQhglgDIyYcYiYCeAAAAAAACAAAAAAAAAAQAAAAAAAAAAA==

> <PUBCHEM_IUPAC_OPENEYE_NAME>
N-(1-propylbutyl)-1H-indole-2-carboxamide

> <PUBCHEM_IUPAC_CAS_NAME>
N-heptan-4-yl-1H-indole-2-carboxamide

> <PUBCHEM_IUPAC_NAME_MARKUP>
<I>N</I>-heptan-4-yl-1<I>H</I>-indole-2-carboxamide

> <PUBCHEM_IUPAC_NAME>
N-heptan-4-yl-1H-indole-2-carboxamide

> <PUBCHEM_IUPAC_SYSTEMATIC_NAME>
N-heptan-4-yl-1H-indole-2-carboxamide

> <PUBCHEM_IUPAC_TRADITIONAL_NAME>
N-(1-propylbutyl)-1H-indole-2-carboxamide

> <PUBCHEM_IUPAC_INCHI>
InChI=1S/C16H22N2O/c1-3-7-13(8-4-2)17-16(19)15-11-12-9-5-6-10-14(12)18-15/h5-6,9-11,13,18H,3-4,7-8H2,1-2H3,(H,17,19)

> <PUBCHEM_IUPAC_INCHIKEY>
DJPVPEMWQNODRR-UHFFFAOYSA-N

> <PUBCHEM_XLOGP3>
4.6

> <PUBCHEM_EXACT_MASS>
258.173213330

> <PUBCHEM_MOLECULAR_FORMULA>
C16H22N2O

> <PUBCHEM_MOLECULAR_WEIGHT>
258.36

> <PUBCHEM_OPENEYE_CAN_SMILES>
CCCC(CCC)NC(=O)C1=CC2=CC=CC=C2N1

> <PUBCHEM_OPENEYE_ISO_SMILES>
CCCC(CCC)NC(=O)C1=CC2=CC=CC=C2N1

> <PUBCHEM_CACTVS_TPSA>
44.9

> <PUBCHEM_MONOISOTOPIC_WEIGHT>
258.173213330

> <PUBCHEM_TOTAL_CHARGE>
0

> <PUBCHEM_HEAVY_ATOM_COUNT>
19

> <PUBCHEM_ATOM_DEF_STEREO_COUNT>
0

> <PUBCHEM_ATOM_UDEF_STEREO_COUNT>
0

> <PUBCHEM_BOND_DEF_STEREO_COUNT>
0

> <PUBCHEM_BOND_UDEF_STEREO_COUNT>
0

> <PUBCHEM_ISOTOPIC_ATOM_COUNT>
0

> <PUBCHEM_COMPONENT_COUNT>
1

> <PUBCHEM_CACTVS_TAUTO_COUNT>
-1

> <PUBCHEM_COORDINATE_TYPE>
1
5
255

> <PUBCHEM_BONDANNOTATIONS>
10  15  8
13  14  8
13  16  8
14  15  8
14  17  8
16  18  8
17  19  8
18  19  8
3  10  8
3  13  8

$$$$
