71449034
  -OEChem-09292322142D

 52 55  0     1  0  0  0  0  0999 V2000
    8.6278   -5.6325    0.0000 Br  0  0  0  0  0  0  0  0  0  0  0  0
    7.7048   -2.0447    0.0000 O   0  0  0  0  0  0  0  0  0  0  0  0
    5.1637   -3.6325    0.0000 O   0  0  0  0  0  0  0  0  0  0  0  0
    4.3179    2.3890    0.0000 N   0  0  3  0  0  0  0  0  0  0  0  0
    6.2147    0.6289    0.0000 N   0  0  0  0  0  0  0  0  0  0  0  0
    6.0868   -2.0447    0.0000 N   0  0  0  0  0  0  0  0  0  0  0  0
    5.6270    1.4380    0.0000 C   0  0  3  0  0  0  0  0  0  0  0  0
    5.9360    2.3890    0.0000 C   0  0  0  0  0  0  0  0  0  0  0  0
    4.6270    1.4380    0.0000 C   0  0  0  0  0  0  0  0  0  0  0  0
    5.1270    2.9768    0.0000 C   0  0  0  0  0  0  0  0  0  0  0  0
    3.3669    2.6980    0.0000 C   0  0  0  0  0  0  0  0  0  0  0  0
    5.8080   -0.2846    0.0000 C   0  0  0  0  0  0  0  0  0  0  0  0
    3.1590    3.6762    0.0000 C   0  0  0  0  0  0  0  0  0  0  0  0
    6.3958   -1.0936    0.0000 C   0  0  0  0  0  0  0  0  0  0  0  0
    2.2079    3.9852    0.0000 C   0  0  0  0  0  0  0  0  0  0  0  0
    3.9021    4.3453    0.0000 C   0  0  0  0  0  0  0  0  0  0  0  0
    7.3958   -1.0936    0.0000 C   0  0  0  0  0  0  0  0  0  0  0  0
    2.0000    4.9633    0.0000 C   0  0  0  0  0  0  0  0  0  0  0  0
    3.6942    5.3234    0.0000 C   0  0  0  0  0  0  0  0  0  0  0  0
    6.8958   -2.6325    0.0000 C   0  0  0  0  0  0  0  0  0  0  0  0
    2.7431    5.6325    0.0000 C   0  0  0  0  0  0  0  0  0  0  0  0
    6.8958   -3.6325    0.0000 C   0  0  0  0  0  0  0  0  0  0  0  0
    6.0298   -4.1325    0.0000 C   0  0  0  0  0  0  0  0  0  0  0  0
    7.7618   -4.1325    0.0000 C   0  0  0  0  0  0  0  0  0  0  0  0
    6.0298   -5.1325    0.0000 C   0  0  0  0  0  0  0  0  0  0  0  0
    7.7618   -5.1325    0.0000 C   0  0  0  0  0  0  0  0  0  0  0  0
    6.8958   -5.6325    0.0000 C   0  0  0  0  0  0  0  0  0  0  0  0
    4.2977   -4.1325    0.0000 C   0  0  0  0  0  0  0  0  0  0  0  0
    6.2393    1.5349    0.0000 H   0  0  0  0  0  0  0  0  0  0  0  0
    6.5024    2.1368    0.0000 H   0  0  0  0  0  0  0  0  0  0  0  0
    6.2460    2.9259    0.0000 H   0  0  0  0  0  0  0  0  0  0  0  0
    4.0205    1.3090    0.0000 H   0  0  0  0  0  0  0  0  0  0  0  0
    4.6918    0.8213    0.0000 H   0  0  0  0  0  0  0  0  0  0  0  0
    5.5418    3.4375    0.0000 H   0  0  0  0  0  0  0  0  0  0  0  0
    4.7121    3.4375    0.0000 H   0  0  0  0  0  0  0  0  0  0  0  0
    2.7473    2.6764    0.0000 H   0  0  0  0  0  0  0  0  0  0  0  0
    3.2806    2.0841    0.0000 H   0  0  0  0  0  0  0  0  0  0  0  0
    6.8313    0.6937    0.0000 H   0  0  0  0  0  0  0  0  0  0  0  0
    5.2940    0.0621    0.0000 H   0  0  0  0  0  0  0  0  0  0  0  0
    5.3773   -0.7306    0.0000 H   0  0  0  0  0  0  0  0  0  0  0  0
    1.7472    3.5703    0.0000 H   0  0  0  0  0  0  0  0  0  0  0  0
    4.4918    4.1537    0.0000 H   0  0  0  0  0  0  0  0  0  0  0  0
    7.7602   -0.5920    0.0000 H   0  0  0  0  0  0  0  0  0  0  0  0
    1.4103    5.1549    0.0000 H   0  0  0  0  0  0  0  0  0  0  0  0
    4.1550    5.7383    0.0000 H   0  0  0  0  0  0  0  0  0  0  0  0
    2.6142    6.2389    0.0000 H   0  0  0  0  0  0  0  0  0  0  0  0
    8.2988   -3.8225    0.0000 H   0  0  0  0  0  0  0  0  0  0  0  0
    5.4928   -5.4425    0.0000 H   0  0  0  0  0  0  0  0  0  0  0  0
    6.8958   -6.2525    0.0000 H   0  0  0  0  0  0  0  0  0  0  0  0
    3.9877   -3.5955    0.0000 H   0  0  0  0  0  0  0  0  0  0  0  0
    3.7608   -4.4425    0.0000 H   0  0  0  0  0  0  0  0  0  0  0  0
    4.6077   -4.6694    0.0000 H   0  0  0  0  0  0  0  0  0  0  0  0
  1 26  1  0  0  0  0
  2 17  1  0  0  0  0
  2 20  1  0  0  0  0
  3 23  1  0  0  0  0
  3 28  1  0  0  0  0
  4  9  1  0  0  0  0
  4 10  1  0  0  0  0
  4 11  1  0  0  0  0
  5  7  1  0  0  0  0
  5 12  1  0  0  0  0
  5 38  1  0  0  0  0
  6 14  1  0  0  0  0
  6 20  2  0  0  0  0
  7  8  1  0  0  0  0
  7  9  1  0  0  0  0
  7 29  1  0  0  0  0
  8 10  1  0  0  0  0
  8 30  1  0  0  0  0
  8 31  1  0  0  0  0
  9 32  1  0  0  0  0
  9 33  1  0  0  0  0
 10 34  1  0  0  0  0
 10 35  1  0  0  0  0
 11 13  1  0  0  0  0
 11 36  1  0  0  0  0
 11 37  1  0  0  0  0
 12 14  1  0  0  0  0
 12 39  1  0  0  0  0
 12 40  1  0  0  0  0
 13 15  2  0  0  0  0
 13 16  1  0  0  0  0
 14 17  2  0  0  0  0
 15 18  1  0  0  0  0
 15 41  1  0  0  0  0
 16 19  2  0  0  0  0
 16 42  1  0  0  0  0
 17 43  1  0  0  0  0
 18 21  2  0  0  0  0
 18 44  1  0  0  0  0
 19 21  1  0  0  0  0
 19 45  1  0  0  0  0
 20 22  1  0  0  0  0
 21 46  1  0  0  0  0
 22 23  2  0  0  0  0
 22 24  1  0  0  0  0
 23 25  1  0  0  0  0
 24 26  2  0  0  0  0
 24 47  1  0  0  0  0
 25 27  2  0  0  0  0
 25 48  1  0  0  0  0
 26 27  1  0  0  0  0
 27 49  1  0  0  0  0
 28 50  1  0  0  0  0
 28 51  1  0  0  0  0
 28 52  1  0  0  0  0
M  END
> <PUBCHEM_COMPOUND_CID>
71449034

> <PUBCHEM_COMPOUND_CANONICALIZED>
1

> <PUBCHEM_CACTVS_COMPLEXITY>
477

> <PUBCHEM_CACTVS_HBOND_ACCEPTOR>
5

> <PUBCHEM_CACTVS_HBOND_DONOR>
1

> <PUBCHEM_CACTVS_ROTATABLE_BOND>
7

> <PUBCHEM_CACTVS_SUBSKEYS>
AAADceB7MAAAEAAAAAAAAAAAAAAAAWLAAAAwYAAAAAAAAAAB0AAAHgBQAAABrCzhngYyhpPIFECoAy1y1ASCiCAvYiQIiKG/LPgOZ76E9TufOWjn9BGYq5eYyCCOABAAEAAIAAAAIAAgABAAAAAAAAAAAA==

> <PUBCHEM_IUPAC_OPENEYE_NAME>
1-benzyl-N-[[2-(5-bromo-2-methoxy-phenyl)oxazol-4-yl]methyl]pyrrolidin-3-amine

> <PUBCHEM_IUPAC_CAS_NAME>
N-[[2-(5-bromo-2-methoxyphenyl)-4-oxazolyl]methyl]-1-(phenylmethyl)-3-pyrrolidinamine

> <PUBCHEM_IUPAC_NAME_MARKUP>
1-benzyl-<I>N</I>-[[2-(5-bromo-2-methoxyphenyl)-1,3-oxazol-4-yl]methyl]pyrrolidin-3-amine

> <PUBCHEM_IUPAC_NAME>
1-benzyl-N-[[2-(5-bromo-2-methoxyphenyl)-1,3-oxazol-4-yl]methyl]pyrrolidin-3-amine

> <PUBCHEM_IUPAC_SYSTEMATIC_NAME>
N-[[2-(5-bromanyl-2-methoxy-phenyl)-1,3-oxazol-4-yl]methyl]-1-(phenylmethyl)pyrrolidin-3-amine

> <PUBCHEM_IUPAC_TRADITIONAL_NAME>
(1-benzylpyrrolidin-3-yl)-[[2-(5-bromo-2-methoxy-phenyl)oxazol-4-yl]methyl]amine

> <PUBCHEM_IUPAC_INCHI>
InChI=1S/C22H24BrN3O2/c1-27-21-8-7-17(23)11-20(21)22-25-19(15-28-22)12-24-18-9-10-26(14-18)13-16-5-3-2-4-6-16/h2-8,11,15,18,24H,9-10,12-14H2,1H3

> <PUBCHEM_IUPAC_INCHIKEY>
NPLOIWFMUHLKNW-UHFFFAOYSA-N

> <PUBCHEM_XLOGP3_AA>
3.8

> <PUBCHEM_EXACT_MASS>
441.10519

> <PUBCHEM_MOLECULAR_FORMULA>
C22H24BrN3O2

> <PUBCHEM_MOLECULAR_WEIGHT>
442.3

> <PUBCHEM_OPENEYE_CAN_SMILES>
COC1=C(C=C(C=C1)Br)C2=NC(=CO2)CNC3CCN(C3)CC4=CC=CC=C4

> <PUBCHEM_OPENEYE_ISO_SMILES>
COC1=C(C=C(C=C1)Br)C2=NC(=CO2)CNC3CCN(C3)CC4=CC=CC=C4

> <PUBCHEM_CACTVS_TPSA>
50.5

> <PUBCHEM_MONOISOTOPIC_WEIGHT>
441.10519

> <PUBCHEM_TOTAL_CHARGE>
0

> <PUBCHEM_HEAVY_ATOM_COUNT>
28

> <PUBCHEM_ATOM_DEF_STEREO_COUNT>
0

> <PUBCHEM_ATOM_UDEF_STEREO_COUNT>
1

> <PUBCHEM_BOND_DEF_STEREO_COUNT>
0

> <PUBCHEM_BOND_UDEF_STEREO_COUNT>
0

> <PUBCHEM_ISOTOPIC_ATOM_COUNT>
0

> <PUBCHEM_COMPONENT_COUNT>
1

> <PUBCHEM_CACTVS_TAUTO_COUNT>
-1

> <PUBCHEM_COORDINATE_TYPE>
1
5
255

> <PUBCHEM_BONDANNOTATIONS>
13  15  8
13  16  8
14  17  8
15  18  8
16  19  8
18  21  8
19  21  8
2  17  8
2  20  8
22  23  8
22  24  8
23  25  8
24  26  8
25  27  8
26  27  8
7  5  3
6  14  8
6  20  8

$$$$
