44309876
  -OEChem-09292322022D

 56 59  0     0  0  0  0  0  0999 V2000
   14.6279   -0.1690    0.0000 Cl  0  0  0  0  0  0  0  0  0  0  0  0
   16.6279   -0.1690    0.0000 Cl  0  0  0  0  0  0  0  0  0  0  0  0
    2.0000   -0.0350    0.0000 F   0  0  0  0  0  0  0  0  0  0  0  0
    7.6279   -1.9010    0.0000 O   0  0  0  0  0  0  0  0  0  0  0  0
   11.6279    1.5630    0.0000 N   0  0  0  0  0  0  0  0  0  0  0  0
   13.6279    1.5630    0.0000 N   0  0  0  0  0  0  0  0  0  0  0  0
    7.6279   -0.1690    0.0000 N   0  0  0  0  0  0  0  0  0  0  0  0
    5.5443   -1.8398    0.0000 N   0  0  0  0  0  0  0  0  0  0  0  0
   12.1279    2.4291    0.0000 C   0  0  0  0  0  0  0  0  0  0  0  0
   12.1279    0.6970    0.0000 C   0  0  0  0  0  0  0  0  0  0  0  0
   13.1279    2.4291    0.0000 C   0  0  0  0  0  0  0  0  0  0  0  0
   13.1279    0.6970    0.0000 C   0  0  0  0  0  0  0  0  0  0  0  0
   10.6279    1.5630    0.0000 C   0  0  0  0  0  0  0  0  0  0  0  0
   10.1279    0.6970    0.0000 C   0  0  0  0  0  0  0  0  0  0  0  0
    9.1279    0.6970    0.0000 C   0  0  0  0  0  0  0  0  0  0  0  0
   14.6279    1.5630    0.0000 C   0  0  0  0  0  0  0  0  0  0  0  0
    8.6279   -0.1690    0.0000 C   0  0  0  0  0  0  0  0  0  0  0  0
   15.1279    0.6970    0.0000 C   0  0  0  0  0  0  0  0  0  0  0  0
   15.1279    2.4291    0.0000 C   0  0  0  0  0  0  0  0  0  0  0  0
   16.1279    0.6970    0.0000 C   0  0  0  0  0  0  0  0  0  0  0  0
   16.1279    2.4291    0.0000 C   0  0  0  0  0  0  0  0  0  0  0  0
    7.1279   -1.0350    0.0000 C   0  0  0  0  0  0  0  0  0  0  0  0
   16.6279    1.5630    0.0000 C   0  0  0  0  0  0  0  0  0  0  0  0
    6.1279   -1.0350    0.0000 C   0  0  0  0  0  0  0  0  0  0  0  0
    4.5981   -1.5350    0.0000 C   0  0  0  0  0  0  0  0  0  0  0  0
    4.5981   -0.5350    0.0000 C   0  0  0  0  0  0  0  0  0  0  0  0
    5.5443   -0.2303    0.0000 C   0  0  0  0  0  0  0  0  0  0  0  0
    3.7320   -2.0350    0.0000 C   0  0  0  0  0  0  0  0  0  0  0  0
    3.7320   -0.0350    0.0000 C   0  0  0  0  0  0  0  0  0  0  0  0
    2.8660   -1.5350    0.0000 C   0  0  0  0  0  0  0  0  0  0  0  0
    2.8660   -0.5350    0.0000 C   0  0  0  0  0  0  0  0  0  0  0  0
   12.2356    3.0397    0.0000 H   0  0  0  0  0  0  0  0  0  0  0  0
   11.5453    2.6411    0.0000 H   0  0  0  0  0  0  0  0  0  0  0  0
   11.5453    0.4850    0.0000 H   0  0  0  0  0  0  0  0  0  0  0  0
   12.2356    0.0864    0.0000 H   0  0  0  0  0  0  0  0  0  0  0  0
   13.7105    2.6411    0.0000 H   0  0  0  0  0  0  0  0  0  0  0  0
   13.0202    3.0397    0.0000 H   0  0  0  0  0  0  0  0  0  0  0  0
   13.0202    0.0864    0.0000 H   0  0  0  0  0  0  0  0  0  0  0  0
   13.7105    0.4850    0.0000 H   0  0  0  0  0  0  0  0  0  0  0  0
   10.7356    2.1736    0.0000 H   0  0  0  0  0  0  0  0  0  0  0  0
   10.0453    1.7751    0.0000 H   0  0  0  0  0  0  0  0  0  0  0  0
   10.0202    0.0864    0.0000 H   0  0  0  0  0  0  0  0  0  0  0  0
   10.7105    0.4850    0.0000 H   0  0  0  0  0  0  0  0  0  0  0  0
    9.2356    1.3076    0.0000 H   0  0  0  0  0  0  0  0  0  0  0  0
    8.5453    0.9091    0.0000 H   0  0  0  0  0  0  0  0  0  0  0  0
    8.5202   -0.7796    0.0000 H   0  0  0  0  0  0  0  0  0  0  0  0
    9.2105   -0.3810    0.0000 H   0  0  0  0  0  0  0  0  0  0  0  0
   14.8179    2.9660    0.0000 H   0  0  0  0  0  0  0  0  0  0  0  0
    7.3179    0.3679    0.0000 H   0  0  0  0  0  0  0  0  0  0  0  0
   16.4379    2.9660    0.0000 H   0  0  0  0  0  0  0  0  0  0  0  0
   17.2479    1.5630    0.0000 H   0  0  0  0  0  0  0  0  0  0  0  0
    5.7369   -2.4291    0.0000 H   0  0  0  0  0  0  0  0  0  0  0  0
    5.7369    0.3590    0.0000 H   0  0  0  0  0  0  0  0  0  0  0  0
    3.7320   -2.6550    0.0000 H   0  0  0  0  0  0  0  0  0  0  0  0
    3.7320    0.5850    0.0000 H   0  0  0  0  0  0  0  0  0  0  0  0
    2.3291   -1.8450    0.0000 H   0  0  0  0  0  0  0  0  0  0  0  0
  1 18  1  0  0  0  0
  2 20  1  0  0  0  0
  3 31  1  0  0  0  0
  4 22  2  0  0  0  0
  5  9  1  0  0  0  0
  5 10  1  0  0  0  0
  5 13  1  0  0  0  0
  6 11  1  0  0  0  0
  6 12  1  0  0  0  0
  6 16  1  0  0  0  0
  7 17  1  0  0  0  0
  7 22  1  0  0  0  0
  7 49  1  0  0  0  0
  8 24  1  0  0  0  0
  8 25  1  0  0  0  0
  8 52  1  0  0  0  0
  9 11  1  0  0  0  0
  9 32  1  0  0  0  0
  9 33  1  0  0  0  0
 10 12  1  0  0  0  0
 10 34  1  0  0  0  0
 10 35  1  0  0  0  0
 11 36  1  0  0  0  0
 11 37  1  0  0  0  0
 12 38  1  0  0  0  0
 12 39  1  0  0  0  0
 13 14  1  0  0  0  0
 13 40  1  0  0  0  0
 13 41  1  0  0  0  0
 14 15  1  0  0  0  0
 14 42  1  0  0  0  0
 14 43  1  0  0  0  0
 15 17  1  0  0  0  0
 15 44  1  0  0  0  0
 15 45  1  0  0  0  0
 16 18  2  0  0  0  0
 16 19  1  0  0  0  0
 17 46  1  0  0  0  0
 17 47  1  0  0  0  0
 18 20  1  0  0  0  0
 19 21  2  0  0  0  0
 19 48  1  0  0  0  0
 20 23  2  0  0  0  0
 21 23  1  0  0  0  0
 21 50  1  0  0  0  0
 22 24  1  0  0  0  0
 23 51  1  0  0  0  0
 24 27  2  0  0  0  0
 25 26  2  0  0  0  0
 25 28  1  0  0  0  0
 26 27  1  0  0  0  0
 26 29  1  0  0  0  0
 27 53  1  0  0  0  0
 28 30  2  0  0  0  0
 28 54  1  0  0  0  0
 29 31  2  0  0  0  0
 29 55  1  0  0  0  0
 30 31  1  0  0  0  0
 30 56  1  0  0  0  0
M  END
> <PUBCHEM_COMPOUND_CID>
44309876

> <PUBCHEM_COMPOUND_CANONICALIZED>
1

> <PUBCHEM_CACTVS_COMPLEXITY>
592

> <PUBCHEM_CACTVS_HBOND_ACCEPTOR>
4

> <PUBCHEM_CACTVS_HBOND_DONOR>
2

> <PUBCHEM_CACTVS_ROTATABLE_BOND>
7

> <PUBCHEM_CACTVS_SUBSKEYS>
AAADceB7oQAGAAAAAAAAAAAAAAAAAWAAAAA8YIAAAAAAAFgB9AAAHwIQAAAADArBniwwwPPJkACoAyVyVACCgCAnByAIm+G4ZtgIYPLBl7HUIQhglgDIyYcYiYCeAAAAAAICABQAAAAABAQAKAAAAAAAAA==

> <PUBCHEM_IUPAC_OPENEYE_NAME>
N-[4-[4-(2,3-dichlorophenyl)piperazin-1-yl]butyl]-5-fluoro-1H-indole-2-carboxamide

> <PUBCHEM_IUPAC_CAS_NAME>
N-[4-[4-(2,3-dichlorophenyl)-1-piperazinyl]butyl]-5-fluoro-1H-indole-2-carboxamide

> <PUBCHEM_IUPAC_NAME_MARKUP>
<I>N</I>-[4-[4-(2,3-dichlorophenyl)piperazin-1-yl]butyl]-5-fluoro-1<I>H</I>-indole-2-carboxamide

> <PUBCHEM_IUPAC_NAME>
N-[4-[4-(2,3-dichlorophenyl)piperazin-1-yl]butyl]-5-fluoro-1H-indole-2-carboxamide

> <PUBCHEM_IUPAC_SYSTEMATIC_NAME>
N-[4-[4-[2,3-bis(chloranyl)phenyl]piperazin-1-yl]butyl]-5-fluoranyl-1H-indole-2-carboxamide

> <PUBCHEM_IUPAC_TRADITIONAL_NAME>
N-[4-[4-(2,3-dichlorophenyl)piperazino]butyl]-5-fluoro-1H-indole-2-carboxamide

> <PUBCHEM_IUPAC_INCHI>
InChI=1S/C23H25Cl2FN4O/c24-18-4-3-5-21(22(18)25)30-12-10-29(11-13-30)9-2-1-8-27-23(31)20-15-16-14-17(26)6-7-19(16)28-20/h3-7,14-15,28H,1-2,8-13H2,(H,27,31)

> <PUBCHEM_IUPAC_INCHIKEY>
IMCPEGAWOYJDMH-UHFFFAOYSA-N

> <PUBCHEM_XLOGP3_AA>
5.4

> <PUBCHEM_EXACT_MASS>
462.1389450

> <PUBCHEM_MOLECULAR_FORMULA>
C23H25Cl2FN4O

> <PUBCHEM_MOLECULAR_WEIGHT>
463.4

> <PUBCHEM_OPENEYE_CAN_SMILES>
C1CN(CCN1CCCCNC(=O)C2=CC3=C(N2)C=CC(=C3)F)C4=C(C(=CC=C4)Cl)Cl

> <PUBCHEM_OPENEYE_ISO_SMILES>
C1CN(CCN1CCCCNC(=O)C2=CC3=C(N2)C=CC(=C3)F)C4=C(C(=CC=C4)Cl)Cl

> <PUBCHEM_CACTVS_TPSA>
51.4

> <PUBCHEM_MONOISOTOPIC_WEIGHT>
462.1389450

> <PUBCHEM_TOTAL_CHARGE>
0

> <PUBCHEM_HEAVY_ATOM_COUNT>
31

> <PUBCHEM_ATOM_DEF_STEREO_COUNT>
0

> <PUBCHEM_ATOM_UDEF_STEREO_COUNT>
0

> <PUBCHEM_BOND_DEF_STEREO_COUNT>
0

> <PUBCHEM_BOND_UDEF_STEREO_COUNT>
0

> <PUBCHEM_ISOTOPIC_ATOM_COUNT>
0

> <PUBCHEM_COMPONENT_COUNT>
1

> <PUBCHEM_CACTVS_TAUTO_COUNT>
-1

> <PUBCHEM_COORDINATE_TYPE>
1
5
255

> <PUBCHEM_BONDANNOTATIONS>
16  18  8
16  19  8
18  20  8
19  21  8
20  23  8
21  23  8
24  27  8
25  26  8
25  28  8
26  27  8
26  29  8
28  30  8
29  31  8
30  31  8
8  24  8
8  25  8

$$$$
