122178774
  -OEChem-09292322082D

 60 64  0     1  0  0  0  0  0999 V2000
   13.3224    0.7646    0.0000 O   0  0  0  0  0  0  0  0  0  0  0  0
   15.0962   -0.3302    0.0000 O   0  0  0  0  0  0  0  0  0  0  0  0
    7.2602    1.2646    0.0000 N   0  0  3  0  0  0  0  0  0  0  0  0
   12.4564   -0.7354    0.0000 N   0  0  0  0  0  0  0  0  0  0  0  0
   14.2915   -1.7241    0.0000 N   0  0  0  0  0  0  0  0  0  0  0  0
    2.0000    0.2372    0.0000 N   0  0  0  0  0  0  0  0  0  0  0  0
    9.8583    0.7646    0.0000 C   0  0  0  0  0  0  0  0  0  0  0  0
    9.8583   -0.2354    0.0000 C   0  0  0  0  0  0  0  0  0  0  0  0
   10.7243    1.2646    0.0000 C   0  0  0  0  0  0  0  0  0  0  0  0
   11.5904   -0.2354    0.0000 C   0  0  0  0  0  0  0  0  0  0  0  0
   10.7243   -0.7354    0.0000 C   0  0  0  0  0  0  0  0  0  0  0  0
   11.5904    0.7646    0.0000 C   0  0  0  0  0  0  0  0  0  0  0  0
    8.9923    1.2646    0.0000 C   0  0  0  0  0  0  0  0  0  0  0  0
    8.1263    0.7646    0.0000 C   0  0  0  0  0  0  0  0  0  0  0  0
    7.2602    2.2646    0.0000 C   0  0  0  0  0  0  0  0  0  0  0  0
    6.3942    0.7646    0.0000 C   0  0  0  0  0  0  0  0  0  0  0  0
    6.3942    2.7646    0.0000 C   0  0  0  0  0  0  0  0  0  0  0  0
    5.5282    1.2646    0.0000 C   0  0  0  0  0  0  0  0  0  0  0  0
    5.5282    2.2646    0.0000 C   0  0  0  0  0  0  0  0  0  0  0  0
   13.3224   -0.2354    0.0000 C   0  0  0  0  0  0  0  0  0  0  0  0
    4.6342    0.7300    0.0000 C   0  0  0  0  0  0  0  0  0  0  0  0
    4.6342    2.7993    0.0000 C   0  0  0  0  0  0  0  0  0  0  0  0
   14.1884   -0.7354    0.0000 C   0  0  0  0  0  0  0  0  0  0  0  0
    3.7282    1.2438    0.0000 C   0  0  0  0  0  0  0  0  0  0  0  0
    3.7282    2.2855    0.0000 C   0  0  0  0  0  0  0  0  0  0  0  0
   15.7633   -1.0673    0.0000 C   0  0  0  0  0  0  0  0  0  0  0  0
   15.2633   -1.9333    0.0000 C   0  0  0  0  0  0  0  0  0  0  0  0
    2.8641    0.7405    0.0000 C   0  0  0  0  0  0  0  0  0  0  0  0
   16.7633   -1.0673    0.0000 C   0  0  0  0  0  0  0  0  0  0  0  0
   15.7633   -2.7993    0.0000 C   0  0  0  0  0  0  0  0  0  0  0  0
   17.2633   -1.9333    0.0000 C   0  0  0  0  0  0  0  0  0  0  0  0
   16.7633   -2.7993    0.0000 C   0  0  0  0  0  0  0  0  0  0  0  0
    9.3214    0.4546    0.0000 H   0  0  0  0  0  0  0  0  0  0  0  0
    9.2477   -0.1277    0.0000 H   0  0  0  0  0  0  0  0  0  0  0  0
    9.6463   -0.8180    0.0000 H   0  0  0  0  0  0  0  0  0  0  0  0
   11.1229    1.7396    0.0000 H   0  0  0  0  0  0  0  0  0  0  0  0
   10.3258    1.7396    0.0000 H   0  0  0  0  0  0  0  0  0  0  0  0
   12.1273    0.0746    0.0000 H   0  0  0  0  0  0  0  0  0  0  0  0
   10.3258   -1.2103    0.0000 H   0  0  0  0  0  0  0  0  0  0  0  0
   11.1229   -1.2103    0.0000 H   0  0  0  0  0  0  0  0  0  0  0  0
   12.2010    0.6570    0.0000 H   0  0  0  0  0  0  0  0  0  0  0  0
   11.8024    1.3473    0.0000 H   0  0  0  0  0  0  0  0  0  0  0  0
    9.3908    1.7396    0.0000 H   0  0  0  0  0  0  0  0  0  0  0  0
    8.5938    1.7396    0.0000 H   0  0  0  0  0  0  0  0  0  0  0  0
    7.7277    0.2897    0.0000 H   0  0  0  0  0  0  0  0  0  0  0  0
    8.5248    0.2897    0.0000 H   0  0  0  0  0  0  0  0  0  0  0  0
   12.4564   -1.3554    0.0000 H   0  0  0  0  0  0  0  0  0  0  0  0
    7.8708    2.1570    0.0000 H   0  0  0  0  0  0  0  0  0  0  0  0
    7.4723    2.8472    0.0000 H   0  0  0  0  0  0  0  0  0  0  0  0
    5.9957    0.2897    0.0000 H   0  0  0  0  0  0  0  0  0  0  0  0
    6.7928    0.2897    0.0000 H   0  0  0  0  0  0  0  0  0  0  0  0
    6.7928    3.2396    0.0000 H   0  0  0  0  0  0  0  0  0  0  0  0
    5.9957    3.2396    0.0000 H   0  0  0  0  0  0  0  0  0  0  0  0
    4.6414    0.1100    0.0000 H   0  0  0  0  0  0  0  0  0  0  0  0
    4.6414    3.4193    0.0000 H   0  0  0  0  0  0  0  0  0  0  0  0
    3.1924    2.5975    0.0000 H   0  0  0  0  0  0  0  0  0  0  0  0
   17.0733   -0.5303    0.0000 H   0  0  0  0  0  0  0  0  0  0  0  0
   15.4533   -3.3362    0.0000 H   0  0  0  0  0  0  0  0  0  0  0  0
   17.8833   -1.9333    0.0000 H   0  0  0  0  0  0  0  0  0  0  0  0
   17.0733   -3.3362    0.0000 H   0  0  0  0  0  0  0  0  0  0  0  0
  1 20  2  0  0  0  0
  2 23  1  0  0  0  0
  2 26  1  0  0  0  0
  3 14  1  0  0  0  0
  3 15  1  0  0  0  0
  3 16  1  0  0  0  0
  4 10  1  0  0  0  0
  4 20  1  0  0  0  0
  4 47  1  0  0  0  0
  5 23  2  0  0  0  0
  5 27  1  0  0  0  0
  6 28  3  0  0  0  0
  7  8  1  0  0  0  0
  7  9  1  0  0  0  0
  7 13  1  0  0  0  0
  7 33  1  0  0  0  0
  8 11  1  0  0  0  0
  8 34  1  0  0  0  0
  8 35  1  0  0  0  0
  9 12  1  0  0  0  0
  9 36  1  0  0  0  0
  9 37  1  0  0  0  0
 10 11  1  0  0  0  0
 10 12  1  0  0  0  0
 10 38  1  0  0  0  0
 11 39  1  0  0  0  0
 11 40  1  0  0  0  0
 12 41  1  0  0  0  0
 12 42  1  0  0  0  0
 13 14  1  0  0  0  0
 13 43  1  0  0  0  0
 13 44  1  0  0  0  0
 14 45  1  0  0  0  0
 14 46  1  0  0  0  0
 15 17  1  0  0  0  0
 15 48  1  0  0  0  0
 15 49  1  0  0  0  0
 16 18  1  0  0  0  0
 16 50  1  0  0  0  0
 16 51  1  0  0  0  0
 17 19  1  0  0  0  0
 17 52  1  0  0  0  0
 17 53  1  0  0  0  0
 18 19  2  0  0  0  0
 18 21  1  0  0  0  0
 19 22  1  0  0  0  0
 20 23  1  0  0  0  0
 21 24  2  0  0  0  0
 21 54  1  0  0  0  0
 22 25  2  0  0  0  0
 22 55  1  0  0  0  0
 24 25  1  0  0  0  0
 24 28  1  0  0  0  0
 25 56  1  0  0  0  0
 26 27  1  0  0  0  0
 26 29  2  0  0  0  0
 27 30  2  0  0  0  0
 29 31  1  0  0  0  0
 29 57  1  0  0  0  0
 30 32  1  0  0  0  0
 30 58  1  0  0  0  0
 31 32  2  0  0  0  0
 31 59  1  0  0  0  0
 32 60  1  0  0  0  0
M  END
> <PUBCHEM_COMPOUND_CID>
122178774

> <PUBCHEM_COMPOUND_CANONICALIZED>
1

> <PUBCHEM_CACTVS_COMPLEXITY>
697

> <PUBCHEM_CACTVS_HBOND_ACCEPTOR>
5

> <PUBCHEM_CACTVS_HBOND_DONOR>
1

> <PUBCHEM_CACTVS_ROTATABLE_BOND>
5

> <PUBCHEM_CACTVS_SUBSKEYS>
AAADceB7sAAAAAAAAAAAAAAAAAAAAWAAAAA8YMEAAAAAAFix9AAAHgAQAAAADSzBngQwxrPIFEC4B6VyVAaiiCAvYiAImKH/bNgO5rLEtb+fOSjk1hHY6Y+YyMAOwAACAAAQEACQAAQAACAgAAAAAAAAAA==

> <PUBCHEM_IUPAC_OPENEYE_NAME>
N-[4-[2-(7-cyano-3,4-dihydro-1H-isoquinolin-2-yl)ethyl]cyclohexyl]-1,3-benzoxazole-2-carboxamide

> <PUBCHEM_IUPAC_CAS_NAME>
N-[4-[2-(7-cyano-3,4-dihydro-1H-isoquinolin-2-yl)ethyl]cyclohexyl]-1,3-benzoxazole-2-carboxamide

> <PUBCHEM_IUPAC_NAME_MARKUP>
<I>N</I>-[4-[2-(7-cyano-3,4-dihydro-1<I>H</I>-isoquinolin-2-yl)ethyl]cyclohexyl]-1,3-benzoxazole-2-carboxamide

> <PUBCHEM_IUPAC_NAME>
N-[4-[2-(7-cyano-3,4-dihydro-1H-isoquinolin-2-yl)ethyl]cyclohexyl]-1,3-benzoxazole-2-carboxamide

> <PUBCHEM_IUPAC_SYSTEMATIC_NAME>
N-[4-[2-(7-cyano-3,4-dihydro-1H-isoquinolin-2-yl)ethyl]cyclohexyl]-1,3-benzoxazole-2-carboxamide

> <PUBCHEM_IUPAC_TRADITIONAL_NAME>
N-[4-[2-(7-cyano-3,4-dihydro-1H-isoquinolin-2-yl)ethyl]cyclohexyl]-1,3-benzoxazole-2-carboxamide

> <PUBCHEM_IUPAC_INCHI>
InChI=1S/C26H28N4O2/c27-16-19-5-8-20-12-14-30(17-21(20)15-19)13-11-18-6-9-22(10-7-18)28-25(31)26-29-23-3-1-2-4-24(23)32-26/h1-5,8,15,18,22H,6-7,9-14,17H2,(H,28,31)

> <PUBCHEM_IUPAC_INCHIKEY>
IUQPFKFHVGYGIY-UHFFFAOYSA-N

> <PUBCHEM_XLOGP3_AA>
4.5

> <PUBCHEM_EXACT_MASS>
428.22122615

> <PUBCHEM_MOLECULAR_FORMULA>
C26H28N4O2

> <PUBCHEM_MOLECULAR_WEIGHT>
428.5

> <PUBCHEM_OPENEYE_CAN_SMILES>
C1CC(CCC1CCN2CCC3=C(C2)C=C(C=C3)C#N)NC(=O)C4=NC5=CC=CC=C5O4

> <PUBCHEM_OPENEYE_ISO_SMILES>
C1CC(CCC1CCN2CCC3=C(C2)C=C(C=C3)C#N)NC(=O)C4=NC5=CC=CC=C5O4

> <PUBCHEM_CACTVS_TPSA>
82.2

> <PUBCHEM_MONOISOTOPIC_WEIGHT>
428.22122615

> <PUBCHEM_TOTAL_CHARGE>
0

> <PUBCHEM_HEAVY_ATOM_COUNT>
32

> <PUBCHEM_ATOM_DEF_STEREO_COUNT>
0

> <PUBCHEM_ATOM_UDEF_STEREO_COUNT>
0

> <PUBCHEM_BOND_DEF_STEREO_COUNT>
0

> <PUBCHEM_BOND_UDEF_STEREO_COUNT>
0

> <PUBCHEM_ISOTOPIC_ATOM_COUNT>
0

> <PUBCHEM_COMPONENT_COUNT>
1

> <PUBCHEM_CACTVS_TAUTO_COUNT>
-1

> <PUBCHEM_COORDINATE_TYPE>
1
5
255

> <PUBCHEM_BONDANNOTATIONS>
18  19  8
18  21  8
19  22  8
2  23  8
2  26  8
21  24  8
22  25  8
24  25  8
26  27  8
26  29  8
27  30  8
29  31  8
30  32  8
31  32  8
5  23  8
5  27  8

$$$$
