9865490
  -OEChem-09292322182D

 54 57  0     1  0  0  0  0  0999 V2000
   11.1241   -3.5252    0.0000 Cl  0  0  0  0  0  0  0  0  0  0  0  0
    4.3211    0.5637    0.0000 O   0  0  0  0  0  0  0  0  0  0  0  0
    6.2781    0.1513    0.0000 N   0  0  0  0  0  0  0  0  0  0  0  0
    6.8994   -1.7498    0.0000 N   0  0  0  0  0  0  0  0  0  0  0  0
    4.6783    2.2585    0.0000 N   0  0  0  0  0  0  0  0  0  0  0  0
    5.6103   -0.5930    0.0000 C   0  0  0  0  0  0  0  0  0  0  0  0
    7.2566   -0.0550    0.0000 C   0  0  0  0  0  0  0  0  0  0  0  0
    5.9209   -1.5436    0.0000 C   0  0  0  0  0  0  0  0  0  0  0  0
    7.5673   -1.0055    0.0000 C   0  0  0  0  0  0  0  0  0  0  0  0
    5.2619    3.0633    0.0000 C   0  0  1  0  0  0  0  0  0  0  0  0
    5.9674    1.1018    0.0000 C   0  0  0  0  0  0  0  0  0  0  0  0
    4.6783    3.8680    0.0000 C   0  0  0  0  0  0  0  0  0  0  0  0
    3.7320    2.5633    0.0000 C   0  0  0  0  0  0  0  0  0  0  0  0
    4.9889    1.3080    0.0000 C   0  0  0  0  0  0  0  0  0  0  0  0
    3.7320    3.5633    0.0000 C   0  0  0  0  0  0  0  0  0  0  0  0
    7.2101   -2.7003    0.0000 C   0  0  0  0  0  0  0  0  0  0  0  0
    6.2619    3.0633    0.0000 C   0  0  0  0  0  0  0  0  0  0  0  0
    2.8660    2.0633    0.0000 C   0  0  0  0  0  0  0  0  0  0  0  0
    2.8660    4.0633    0.0000 C   0  0  0  0  0  0  0  0  0  0  0  0
    8.1886   -2.9065    0.0000 C   0  0  0  0  0  0  0  0  0  0  0  0
    2.0000    2.5633    0.0000 C   0  0  0  0  0  0  0  0  0  0  0  0
    2.0000    3.5633    0.0000 C   0  0  0  0  0  0  0  0  0  0  0  0
    8.4993   -3.8570    0.0000 C   0  0  0  0  0  0  0  0  0  0  0  0
    8.8564   -2.1622    0.0000 C   0  0  0  0  0  0  0  0  0  0  0  0
    6.7619    3.9293    0.0000 C   0  0  0  0  0  0  0  0  0  0  0  0
    9.4778   -4.0633    0.0000 C   0  0  0  0  0  0  0  0  0  0  0  0
    9.8349   -2.3684    0.0000 C   0  0  0  0  0  0  0  0  0  0  0  0
   10.1456   -3.3190    0.0000 C   0  0  0  0  0  0  0  0  0  0  0  0
    5.2277   -0.1051    0.0000 H   0  0  0  0  0  0  0  0  0  0  0  0
    5.0633   -0.8851    0.0000 H   0  0  0  0  0  0  0  0  0  0  0  0
    7.8704    0.0324    0.0000 H   0  0  0  0  0  0  0  0  0  0  0  0
    7.2772    0.5647    0.0000 H   0  0  0  0  0  0  0  0  0  0  0  0
    5.3071   -1.6309    0.0000 H   0  0  0  0  0  0  0  0  0  0  0  0
    5.9004   -2.1632    0.0000 H   0  0  0  0  0  0  0  0  0  0  0  0
    7.9498   -1.4934    0.0000 H   0  0  0  0  0  0  0  0  0  0  0  0
    8.1142   -0.7135    0.0000 H   0  0  0  0  0  0  0  0  0  0  0  0
    5.5436    2.5109    0.0000 H   0  0  0  0  0  0  0  0  0  0  0  0
    6.5812    1.1891    0.0000 H   0  0  0  0  0  0  0  0  0  0  0  0
    5.9880    1.7214    0.0000 H   0  0  0  0  0  0  0  0  0  0  0  0
    5.2156    4.1772    0.0000 H   0  0  0  0  0  0  0  0  0  0  0  0
    4.4272    4.4349    0.0000 H   0  0  0  0  0  0  0  0  0  0  0  0
    6.5963   -2.7877    0.0000 H   0  0  0  0  0  0  0  0  0  0  0  0
    7.1895   -3.3200    0.0000 H   0  0  0  0  0  0  0  0  0  0  0  0
    6.5719    2.5263    0.0000 H   0  0  0  0  0  0  0  0  0  0  0  0
    2.8660    1.4433    0.0000 H   0  0  0  0  0  0  0  0  0  0  0  0
    2.8660    4.6833    0.0000 H   0  0  0  0  0  0  0  0  0  0  0  0
    1.4631    2.2533    0.0000 H   0  0  0  0  0  0  0  0  0  0  0  0
    1.4631    3.8733    0.0000 H   0  0  0  0  0  0  0  0  0  0  0  0
    8.0852   -4.3185    0.0000 H   0  0  0  0  0  0  0  0  0  0  0  0
    8.6638   -1.5729    0.0000 H   0  0  0  0  0  0  0  0  0  0  0  0
    7.3819    3.9293    0.0000 H   0  0  0  0  0  0  0  0  0  0  0  0
    6.4519    4.4662    0.0000 H   0  0  0  0  0  0  0  0  0  0  0  0
    9.6704   -4.6526    0.0000 H   0  0  0  0  0  0  0  0  0  0  0  0
   10.2490   -1.9070    0.0000 H   0  0  0  0  0  0  0  0  0  0  0  0
  1 28  1  0  0  0  0
  2 14  2  0  0  0  0
  3  6  1  0  0  0  0
  3  7  1  0  0  0  0
  3 11  1  0  0  0  0
  4  8  1  0  0  0  0
  4  9  1  0  0  0  0
  4 16  1  0  0  0  0
  5 10  1  0  0  0  0
  5 13  1  0  0  0  0
  5 14  1  0  0  0  0
  6  8  1  0  0  0  0
  6 29  1  0  0  0  0
  6 30  1  0  0  0  0
  7  9  1  0  0  0  0
  7 31  1  0  0  0  0
  7 32  1  0  0  0  0
  8 33  1  0  0  0  0
  8 34  1  0  0  0  0
  9 35  1  0  0  0  0
  9 36  1  0  0  0  0
 10 12  1  0  0  0  0
 10 17  1  1  0  0  0
 10 37  1  0  0  0  0
 11 14  1  0  0  0  0
 11 38  1  0  0  0  0
 11 39  1  0  0  0  0
 12 15  1  0  0  0  0
 12 40  1  0  0  0  0
 12 41  1  0  0  0  0
 13 15  1  0  0  0  0
 13 18  2  0  0  0  0
 15 19  2  0  0  0  0
 16 20  1  0  0  0  0
 16 42  1  0  0  0  0
 16 43  1  0  0  0  0
 17 25  2  0  0  0  0
 17 44  1  0  0  0  0
 18 21  1  0  0  0  0
 18 45  1  0  0  0  0
 19 22  1  0  0  0  0
 19 46  1  0  0  0  0
 20 23  2  0  0  0  0
 20 24  1  0  0  0  0
 21 22  2  0  0  0  0
 21 47  1  0  0  0  0
 22 48  1  0  0  0  0
 23 26  1  0  0  0  0
 23 49  1  0  0  0  0
 24 27  2  0  0  0  0
 24 50  1  0  0  0  0
 25 51  1  0  0  0  0
 25 52  1  0  0  0  0
 26 28  2  0  0  0  0
 26 53  1  0  0  0  0
 27 28  1  0  0  0  0
 27 54  1  0  0  0  0
M  END
> <PUBCHEM_COMPOUND_CID>
9865490

> <PUBCHEM_COMPOUND_CANONICALIZED>
1

> <PUBCHEM_CACTVS_COMPLEXITY>
540

> <PUBCHEM_CACTVS_HBOND_ACCEPTOR>
3

> <PUBCHEM_CACTVS_HBOND_DONOR>
0

> <PUBCHEM_CACTVS_ROTATABLE_BOND>
5

> <PUBCHEM_CACTVS_SUBSKEYS>
AAADceB7IAAEAAAAAAAAAAAAAAAAAWAAAAA8YIAAAAAAAFgBQAAAHgIAAAAADCrBmCQwwIMAAACIAiVSUACCAAAhBwAIiACIZogIYCLBk7GUIAhghgDIyAcQgIAOBAAAAAACAAAIAAAAAAQAAAAAAAAAAA==

> <PUBCHEM_IUPAC_OPENEYE_NAME>
2-[4-[(4-chlorophenyl)methyl]piperazin-1-yl]-1-[(2S)-2-vinylindolin-1-yl]ethanone

> <PUBCHEM_IUPAC_CAS_NAME>
2-[4-[(4-chlorophenyl)methyl]-1-piperazinyl]-1-[(2S)-2-ethenyl-2,3-dihydroindol-1-yl]ethanone

> <PUBCHEM_IUPAC_NAME_MARKUP>
2-[4-[(4-chlorophenyl)methyl]piperazin-1-yl]-1-[(2<I>S</I>)-2-ethenyl-2,3-dihydroindol-1-yl]ethanone

> <PUBCHEM_IUPAC_NAME>
2-[4-[(4-chlorophenyl)methyl]piperazin-1-yl]-1-[(2S)-2-ethenyl-2,3-dihydroindol-1-yl]ethanone

> <PUBCHEM_IUPAC_SYSTEMATIC_NAME>
2-[4-[(4-chlorophenyl)methyl]piperazin-1-yl]-1-[(2S)-2-ethenyl-2,3-dihydroindol-1-yl]ethanone

> <PUBCHEM_IUPAC_TRADITIONAL_NAME>
2-[4-(4-chlorobenzyl)piperazino]-1-[(2S)-2-vinylindolin-1-yl]ethanone

> <PUBCHEM_IUPAC_INCHI>
InChI=1S/C23H26ClN3O/c1-2-21-15-19-5-3-4-6-22(19)27(21)23(28)17-26-13-11-25(12-14-26)16-18-7-9-20(24)10-8-18/h2-10,21H,1,11-17H2/t21-/m1/s1

> <PUBCHEM_IUPAC_INCHIKEY>
UIRKAHAECJAUIH-OAQYLSRUSA-N

> <PUBCHEM_XLOGP3_AA>
4

> <PUBCHEM_EXACT_MASS>
395.1764402

> <PUBCHEM_MOLECULAR_FORMULA>
C23H26ClN3O

> <PUBCHEM_MOLECULAR_WEIGHT>
395.9

> <PUBCHEM_OPENEYE_CAN_SMILES>
C=CC1CC2=CC=CC=C2N1C(=O)CN3CCN(CC3)CC4=CC=C(C=C4)Cl

> <PUBCHEM_OPENEYE_ISO_SMILES>
C=C[C@@H]1CC2=CC=CC=C2N1C(=O)CN3CCN(CC3)CC4=CC=C(C=C4)Cl

> <PUBCHEM_CACTVS_TPSA>
26.8

> <PUBCHEM_MONOISOTOPIC_WEIGHT>
395.1764402

> <PUBCHEM_TOTAL_CHARGE>
0

> <PUBCHEM_HEAVY_ATOM_COUNT>
28

> <PUBCHEM_ATOM_DEF_STEREO_COUNT>
1

> <PUBCHEM_ATOM_UDEF_STEREO_COUNT>
0

> <PUBCHEM_BOND_DEF_STEREO_COUNT>
0

> <PUBCHEM_BOND_UDEF_STEREO_COUNT>
0

> <PUBCHEM_ISOTOPIC_ATOM_COUNT>
0

> <PUBCHEM_COMPONENT_COUNT>
1

> <PUBCHEM_CACTVS_TAUTO_COUNT>
-1

> <PUBCHEM_COORDINATE_TYPE>
1
5
255

> <PUBCHEM_BONDANNOTATIONS>
10  17  5
13  15  8
13  18  8
15  19  8
18  21  8
19  22  8
20  23  8
20  24  8
21  22  8
23  26  8
24  27  8
26  28  8
27  28  8

$$$$
