134135507
  -OEChem-09292322382D

 61 64  0     0  0  0  0  0  0999 V2000
    4.6783   -5.7690    0.0000 S   0  0  0  0  0  0  0  0  0  0  0  0
    9.7884    3.1127    0.0000 O   0  0  0  0  0  0  0  0  0  0  0  0
   10.4097    5.0138    0.0000 O   0  0  0  0  0  0  0  0  0  0  0  0
    5.6103   -1.3080    0.0000 N   0  0  0  0  0  0  0  0  0  0  0  0
    8.1421    3.6508    0.0000 N   0  0  0  0  0  0  0  0  0  0  0  0
    4.9889   -3.2090    0.0000 N   0  0  0  0  0  0  0  0  0  0  0  0
    5.2619   -4.9643    0.0000 N   0  0  0  0  0  0  0  0  0  0  0  0
    7.2101    0.7993    0.0000 C   0  0  0  0  0  0  0  0  0  0  0  0
    6.5422    1.5436    0.0000 C   0  0  0  0  0  0  0  0  0  0  0  0
    8.1886    1.0055    0.0000 C   0  0  0  0  0  0  0  0  0  0  0  0
    7.8314    2.7003    0.0000 C   0  0  0  0  0  0  0  0  0  0  0  0
    6.8529    2.4941    0.0000 C   0  0  0  0  0  0  0  0  0  0  0  0
    8.4993    1.9560    0.0000 C   0  0  0  0  0  0  0  0  0  0  0  0
    6.8994   -0.1513    0.0000 C   0  0  0  0  0  0  0  0  0  0  0  0
    5.9209   -0.3575    0.0000 C   0  0  0  0  0  0  0  0  0  0  0  0
    6.2781   -2.0523    0.0000 C   0  0  0  0  0  0  0  0  0  0  0  0
    4.6318   -1.5142    0.0000 C   0  0  0  0  0  0  0  0  0  0  0  0
    5.9674   -3.0028    0.0000 C   0  0  0  0  0  0  0  0  0  0  0  0
    4.3211   -2.4647    0.0000 C   0  0  0  0  0  0  0  0  0  0  0  0
    9.1206    3.8570    0.0000 C   0  0  0  0  0  0  0  0  0  0  0  0
    4.6783   -4.1596    0.0000 C   0  0  0  0  0  0  0  0  0  0  0  0
    3.7320   -4.4643    0.0000 C   0  0  0  0  0  0  0  0  0  0  0  0
    9.4312    4.8076    0.0000 C   0  0  0  0  0  0  0  0  0  0  0  0
    3.7320   -5.4643    0.0000 C   0  0  0  0  0  0  0  0  0  0  0  0
    2.8660   -3.9643    0.0000 C   0  0  0  0  0  0  0  0  0  0  0  0
    2.8660   -5.9643    0.0000 C   0  0  0  0  0  0  0  0  0  0  0  0
    2.0000   -4.4643    0.0000 C   0  0  0  0  0  0  0  0  0  0  0  0
    2.0000   -5.4643    0.0000 C   0  0  0  0  0  0  0  0  0  0  0  0
   10.7204    5.9643    0.0000 C   0  0  0  0  0  0  0  0  0  0  0  0
    7.6242    0.3378    0.0000 H   0  0  0  0  0  0  0  0  0  0  0  0
    5.9953    1.8356    0.0000 H   0  0  0  0  0  0  0  0  0  0  0  0
    6.1597    1.0556    0.0000 H   0  0  0  0  0  0  0  0  0  0  0  0
    8.2092    0.3858    0.0000 H   0  0  0  0  0  0  0  0  0  0  0  0
    8.8024    0.9181    0.0000 H   0  0  0  0  0  0  0  0  0  0  0  0
    8.4381    2.8282    0.0000 H   0  0  0  0  0  0  0  0  0  0  0  0
    6.8323    3.1137    0.0000 H   0  0  0  0  0  0  0  0  0  0  0  0
    6.2391    2.5814    0.0000 H   0  0  0  0  0  0  0  0  0  0  0  0
    9.0462    1.6640    0.0000 H   0  0  0  0  0  0  0  0  0  0  0  0
    8.8818    2.4439    0.0000 H   0  0  0  0  0  0  0  0  0  0  0  0
    6.9200   -0.7709    0.0000 H   0  0  0  0  0  0  0  0  0  0  0  0
    7.5132   -0.2386    0.0000 H   0  0  0  0  0  0  0  0  0  0  0  0
    5.9004    0.2622    0.0000 H   0  0  0  0  0  0  0  0  0  0  0  0
    5.3071   -0.2701    0.0000 H   0  0  0  0  0  0  0  0  0  0  0  0
    6.8250   -2.3443    0.0000 H   0  0  0  0  0  0  0  0  0  0  0  0
    6.6607   -1.5644    0.0000 H   0  0  0  0  0  0  0  0  0  0  0  0
    4.6112   -0.8946    0.0000 H   0  0  0  0  0  0  0  0  0  0  0  0
    4.0179   -1.4269    0.0000 H   0  0  0  0  0  0  0  0  0  0  0  0
    7.7280    4.1123    0.0000 H   0  0  0  0  0  0  0  0  0  0  0  0
    5.9880   -3.6225    0.0000 H   0  0  0  0  0  0  0  0  0  0  0  0
    6.5812   -3.0902    0.0000 H   0  0  0  0  0  0  0  0  0  0  0  0
    3.7742   -2.1727    0.0000 H   0  0  0  0  0  0  0  0  0  0  0  0
    3.9385   -2.9527    0.0000 H   0  0  0  0  0  0  0  0  0  0  0  0
    9.4107    5.4272    0.0000 H   0  0  0  0  0  0  0  0  0  0  0  0
    8.8174    4.8949    0.0000 H   0  0  0  0  0  0  0  0  0  0  0  0
    2.8660   -3.3443    0.0000 H   0  0  0  0  0  0  0  0  0  0  0  0
    2.8660   -6.5843    0.0000 H   0  0  0  0  0  0  0  0  0  0  0  0
    1.4631   -4.1543    0.0000 H   0  0  0  0  0  0  0  0  0  0  0  0
    1.4631   -5.7743    0.0000 H   0  0  0  0  0  0  0  0  0  0  0  0
   11.3097    5.7717    0.0000 H   0  0  0  0  0  0  0  0  0  0  0  0
   10.9130    6.5536    0.0000 H   0  0  0  0  0  0  0  0  0  0  0  0
   10.1311    6.1569    0.0000 H   0  0  0  0  0  0  0  0  0  0  0  0
  1  7  1  0  0  0  0
  1 24  1  0  0  0  0
  2 20  2  0  0  0  0
  3 23  1  0  0  0  0
  3 29  1  0  0  0  0
  4 15  1  0  0  0  0
  4 16  1  0  0  0  0
  4 17  1  0  0  0  0
  5 11  1  0  0  0  0
  5 20  1  0  0  0  0
  5 48  1  0  0  0  0
  6 18  1  0  0  0  0
  6 19  1  0  0  0  0
  6 21  1  0  0  0  0
  7 21  2  0  0  0  0
  8  9  1  0  0  0  0
  8 10  1  0  0  0  0
  8 14  1  0  0  0  0
  8 30  1  0  0  0  0
  9 12  1  0  0  0  0
  9 31  1  0  0  0  0
  9 32  1  0  0  0  0
 10 13  1  0  0  0  0
 10 33  1  0  0  0  0
 10 34  1  0  0  0  0
 11 12  1  0  0  0  0
 11 13  1  0  0  0  0
 11 35  1  0  0  0  0
 12 36  1  0  0  0  0
 12 37  1  0  0  0  0
 13 38  1  0  0  0  0
 13 39  1  0  0  0  0
 14 15  1  0  0  0  0
 14 40  1  0  0  0  0
 14 41  1  0  0  0  0
 15 42  1  0  0  0  0
 15 43  1  0  0  0  0
 16 18  1  0  0  0  0
 16 44  1  0  0  0  0
 16 45  1  0  0  0  0
 17 19  1  0  0  0  0
 17 46  1  0  0  0  0
 17 47  1  0  0  0  0
 18 49  1  0  0  0  0
 18 50  1  0  0  0  0
 19 51  1  0  0  0  0
 19 52  1  0  0  0  0
 20 23  1  0  0  0  0
 21 22  1  0  0  0  0
 22 24  1  0  0  0  0
 22 25  2  0  0  0  0
 23 53  1  0  0  0  0
 23 54  1  0  0  0  0
 24 26  2  0  0  0  0
 25 27  1  0  0  0  0
 25 55  1  0  0  0  0
 26 28  1  0  0  0  0
 26 56  1  0  0  0  0
 27 28  2  0  0  0  0
 27 57  1  0  0  0  0
 28 58  1  0  0  0  0
 29 59  1  0  0  0  0
 29 60  1  0  0  0  0
 29 61  1  0  0  0  0
M  END
> <PUBCHEM_COMPOUND_CID>
134135507

> <PUBCHEM_COMPOUND_CANONICALIZED>
1

> <PUBCHEM_CACTVS_COMPLEXITY>
521

> <PUBCHEM_CACTVS_HBOND_ACCEPTOR>
6

> <PUBCHEM_CACTVS_HBOND_DONOR>
1

> <PUBCHEM_CACTVS_ROTATABLE_BOND>
7

> <PUBCHEM_CACTVS_SUBSKEYS>
AAADcfB7sABAAAAAAAAAAAAAAAAAAWAAAAA8YIAAAAAAAFgB8AAAHgQQQAAADSjh2gYzsdPABACsAiNycAKDABAhAABJmLhoRJiKYKLAmZWVIAxglgLYyAcQgIAOAAAAAAAEAAAQAAAAAAgAAAAAAAAAAA==

> <PUBCHEM_IUPAC_OPENEYE_NAME>
N-[4-[2-[4-(1,2-benzothiazol-3-yl)piperazin-1-yl]ethyl]cyclohexyl]-2-methoxy-acetamide

> <PUBCHEM_IUPAC_CAS_NAME>
N-[4-[2-[4-(1,2-benzothiazol-3-yl)-1-piperazinyl]ethyl]cyclohexyl]-2-methoxyacetamide

> <PUBCHEM_IUPAC_NAME_MARKUP>
<I>N</I>-[4-[2-[4-(1,2-benzothiazol-3-yl)piperazin-1-yl]ethyl]cyclohexyl]-2-methoxyacetamide

> <PUBCHEM_IUPAC_NAME>
N-[4-[2-[4-(1,2-benzothiazol-3-yl)piperazin-1-yl]ethyl]cyclohexyl]-2-methoxyacetamide

> <PUBCHEM_IUPAC_SYSTEMATIC_NAME>
N-[4-[2-[4-(1,2-benzothiazol-3-yl)piperazin-1-yl]ethyl]cyclohexyl]-2-methoxy-ethanamide

> <PUBCHEM_IUPAC_TRADITIONAL_NAME>
N-[4-[2-[4-(1,2-benzothiazol-3-yl)piperazino]ethyl]cyclohexyl]-2-methoxy-acetamide

> <PUBCHEM_IUPAC_INCHI>
InChI=1S/C22H32N4O2S/c1-28-16-21(27)23-18-8-6-17(7-9-18)10-11-25-12-14-26(15-13-25)22-19-4-2-3-5-20(19)29-24-22/h2-5,17-18H,6-16H2,1H3,(H,23,27)

> <PUBCHEM_IUPAC_INCHIKEY>
DSNSWHGDQTZOTM-UHFFFAOYSA-N

> <PUBCHEM_XLOGP3_AA>
3.7

> <PUBCHEM_EXACT_MASS>
416.22459745

> <PUBCHEM_MOLECULAR_FORMULA>
C22H32N4O2S

> <PUBCHEM_MOLECULAR_WEIGHT>
416.6

> <PUBCHEM_OPENEYE_CAN_SMILES>
COCC(=O)NC1CCC(CC1)CCN2CCN(CC2)C3=NSC4=CC=CC=C43

> <PUBCHEM_OPENEYE_ISO_SMILES>
COCC(=O)NC1CCC(CC1)CCN2CCN(CC2)C3=NSC4=CC=CC=C43

> <PUBCHEM_CACTVS_TPSA>
85.9

> <PUBCHEM_MONOISOTOPIC_WEIGHT>
416.22459745

> <PUBCHEM_TOTAL_CHARGE>
0

> <PUBCHEM_HEAVY_ATOM_COUNT>
29

> <PUBCHEM_ATOM_DEF_STEREO_COUNT>
0

> <PUBCHEM_ATOM_UDEF_STEREO_COUNT>
0

> <PUBCHEM_BOND_DEF_STEREO_COUNT>
0

> <PUBCHEM_BOND_UDEF_STEREO_COUNT>
0

> <PUBCHEM_ISOTOPIC_ATOM_COUNT>
0

> <PUBCHEM_COMPONENT_COUNT>
1

> <PUBCHEM_CACTVS_TAUTO_COUNT>
-1

> <PUBCHEM_COORDINATE_TYPE>
1
5
255

> <PUBCHEM_BONDANNOTATIONS>
1  24  8
1  7  8
21  22  8
22  24  8
22  25  8
24  26  8
25  27  8
26  28  8
27  28  8
7  21  8

$$$$
