155565059
  -OEChem-09292322412D

 53 56  0     1  0  0  0  0  0999 V2000
    3.7320   -1.2879    0.0000 O   0  0  0  0  0  0  0  0  0  0  0  0
   11.8117    1.2428    0.0000 O   0  0  0  0  0  0  0  0  0  0  0  0
    8.2083    1.3684    0.0000 N   0  0  3  0  0  0  0  0  0  0  0  0
    7.2764   -3.0926    0.0000 N   0  0  0  0  0  0  0  0  0  0  0  0
    7.2298    1.1622    0.0000 C   0  0  0  0  0  0  0  0  0  0  0  0
    6.9192    0.2117    0.0000 C   0  0  0  0  0  0  0  0  0  0  0  0
    7.5870   -0.5326    0.0000 C   0  0  0  0  0  0  0  0  0  0  0  0
    8.8762    0.6241    0.0000 C   0  0  0  0  0  0  0  0  0  0  0  0
    8.5655   -0.3264    0.0000 C   0  0  0  0  0  0  0  0  0  0  0  0
    7.2764   -1.4831    0.0000 C   0  0  0  0  0  0  0  0  0  0  0  0
    8.5190    2.3190    0.0000 C   0  0  0  0  0  0  0  0  0  0  0  0
    6.3301   -1.7879    0.0000 C   0  0  0  0  0  0  0  0  0  0  0  0
    6.3301   -2.7879    0.0000 C   0  0  0  0  0  0  0  0  0  0  0  0
    7.8600   -2.2879    0.0000 C   0  0  0  0  0  0  0  0  0  0  0  0
    9.4975    2.5252    0.0000 C   0  0  0  0  0  0  0  0  0  0  0  0
    5.4641   -1.2879    0.0000 C   0  0  0  0  0  0  0  0  0  0  0  0
    5.4641   -3.2879    0.0000 C   0  0  0  0  0  0  0  0  0  0  0  0
    4.5981   -1.7879    0.0000 C   0  0  0  0  0  0  0  0  0  0  0  0
   10.1653    1.7809    0.0000 C   0  0  0  0  0  0  0  0  0  0  0  0
    9.8082    3.4757    0.0000 C   0  0  0  0  0  0  0  0  0  0  0  0
    4.5981   -2.7879    0.0000 C   0  0  0  0  0  0  0  0  0  0  0  0
   11.1439    1.9871    0.0000 C   0  0  0  0  0  0  0  0  0  0  0  0
   10.7867    3.6819    0.0000 C   0  0  0  0  0  0  0  0  0  0  0  0
   11.4545    2.9376    0.0000 C   0  0  0  0  0  0  0  0  0  0  0  0
    2.8660   -1.7879    0.0000 C   0  0  0  0  0  0  0  0  0  0  0  0
    2.0000   -1.2879    0.0000 C   0  0  0  0  0  0  0  0  0  0  0  0
   12.7902    1.4490    0.0000 C   0  0  0  0  0  0  0  0  0  0  0  0
    7.2093    1.7819    0.0000 H   0  0  0  0  0  0  0  0  0  0  0  0
    6.6160    1.2496    0.0000 H   0  0  0  0  0  0  0  0  0  0  0  0
    6.3722    0.5037    0.0000 H   0  0  0  0  0  0  0  0  0  0  0  0
    6.5366   -0.2762    0.0000 H   0  0  0  0  0  0  0  0  0  0  0  0
    9.4231    0.3321    0.0000 H   0  0  0  0  0  0  0  0  0  0  0  0
    9.2587    1.1120    0.0000 H   0  0  0  0  0  0  0  0  0  0  0  0
    8.9796   -0.7879    0.0000 H   0  0  0  0  0  0  0  0  0  0  0  0
    8.4984    2.9386    0.0000 H   0  0  0  0  0  0  0  0  0  0  0  0
    7.9052    2.4063    0.0000 H   0  0  0  0  0  0  0  0  0  0  0  0
    8.4800   -2.2879    0.0000 H   0  0  0  0  0  0  0  0  0  0  0  0
    7.4690   -3.6819    0.0000 H   0  0  0  0  0  0  0  0  0  0  0  0
    5.4641   -0.6679    0.0000 H   0  0  0  0  0  0  0  0  0  0  0  0
    5.4641   -3.9079    0.0000 H   0  0  0  0  0  0  0  0  0  0  0  0
    9.9727    1.1916    0.0000 H   0  0  0  0  0  0  0  0  0  0  0  0
    9.3941    3.9372    0.0000 H   0  0  0  0  0  0  0  0  0  0  0  0
    4.0611   -3.0979    0.0000 H   0  0  0  0  0  0  0  0  0  0  0  0
   10.9793    4.2712    0.0000 H   0  0  0  0  0  0  0  0  0  0  0  0
   12.0612    3.0655    0.0000 H   0  0  0  0  0  0  0  0  0  0  0  0
    2.4675   -2.2628    0.0000 H   0  0  0  0  0  0  0  0  0  0  0  0
    3.2646   -2.2628    0.0000 H   0  0  0  0  0  0  0  0  0  0  0  0
    2.3100   -0.7509    0.0000 H   0  0  0  0  0  0  0  0  0  0  0  0
    1.4631   -0.9779    0.0000 H   0  0  0  0  0  0  0  0  0  0  0  0
    1.6900   -1.8248    0.0000 H   0  0  0  0  0  0  0  0  0  0  0  0
   12.9181    0.8423    0.0000 H   0  0  0  0  0  0  0  0  0  0  0  0
   13.3969    1.5769    0.0000 H   0  0  0  0  0  0  0  0  0  0  0  0
   12.6623    2.0557    0.0000 H   0  0  0  0  0  0  0  0  0  0  0  0
  1 18  1  0  0  0  0
  1 25  1  0  0  0  0
  2 22  1  0  0  0  0
  2 27  1  0  0  0  0
  3  5  1  0  0  0  0
  3  8  1  0  0  0  0
  3 11  1  0  0  0  0
  4 13  1  0  0  0  0
  4 14  1  0  0  0  0
  4 38  1  0  0  0  0
  5  6  1  0  0  0  0
  5 28  1  0  0  0  0
  5 29  1  0  0  0  0
  6  7  1  0  0  0  0
  6 30  1  0  0  0  0
  6 31  1  0  0  0  0
  7  9  2  0  0  0  0
  7 10  1  0  0  0  0
  8  9  1  0  0  0  0
  8 32  1  0  0  0  0
  8 33  1  0  0  0  0
  9 34  1  0  0  0  0
 10 12  1  0  0  0  0
 10 14  2  0  0  0  0
 11 15  1  0  0  0  0
 11 35  1  0  0  0  0
 11 36  1  0  0  0  0
 12 13  2  0  0  0  0
 12 16  1  0  0  0  0
 13 17  1  0  0  0  0
 14 37  1  0  0  0  0
 15 19  2  0  0  0  0
 15 20  1  0  0  0  0
 16 18  2  0  0  0  0
 16 39  1  0  0  0  0
 17 21  2  0  0  0  0
 17 40  1  0  0  0  0
 18 21  1  0  0  0  0
 19 22  1  0  0  0  0
 19 41  1  0  0  0  0
 20 23  2  0  0  0  0
 20 42  1  0  0  0  0
 21 43  1  0  0  0  0
 22 24  2  0  0  0  0
 23 24  1  0  0  0  0
 23 44  1  0  0  0  0
 24 45  1  0  0  0  0
 25 26  1  0  0  0  0
 25 46  1  0  0  0  0
 25 47  1  0  0  0  0
 26 48  1  0  0  0  0
 26 49  1  0  0  0  0
 26 50  1  0  0  0  0
 27 51  1  0  0  0  0
 27 52  1  0  0  0  0
 27 53  1  0  0  0  0
M  END
> <PUBCHEM_COMPOUND_CID>
155565059

> <PUBCHEM_COMPOUND_CANONICALIZED>
1

> <PUBCHEM_CACTVS_COMPLEXITY>
509

> <PUBCHEM_CACTVS_HBOND_ACCEPTOR>
3

> <PUBCHEM_CACTVS_HBOND_DONOR>
1

> <PUBCHEM_CACTVS_ROTATABLE_BOND>
6

> <PUBCHEM_CACTVS_SUBSKEYS>
AAADceB7MAAAAAAAAAAAAAAAAAAAAWAAAAAwYIAAAAAAAFgB9AAAHgAQAAAADAzhngY+xvPJlACgAzRnRACCiCAxIiAI2aA+bJgMJuLEsZuGOCjk0BHI6Aew0PIOgEABAAACAAAAgAIAAAQAAAAAAAAAAA==

> <PUBCHEM_IUPAC_OPENEYE_NAME>
5-ethoxy-3-[1-[(3-methoxyphenyl)methyl]-3,6-dihydro-2H-pyridin-4-yl]-1H-indole

> <PUBCHEM_IUPAC_CAS_NAME>
5-ethoxy-3-[1-[(3-methoxyphenyl)methyl]-3,6-dihydro-2H-pyridin-4-yl]-1H-indole

> <PUBCHEM_IUPAC_NAME_MARKUP>
5-ethoxy-3-[1-[(3-methoxyphenyl)methyl]-3,6-dihydro-2<I>H</I>-pyridin-4-yl]-1<I>H</I>-indole

> <PUBCHEM_IUPAC_NAME>
5-ethoxy-3-[1-[(3-methoxyphenyl)methyl]-3,6-dihydro-2H-pyridin-4-yl]-1H-indole

> <PUBCHEM_IUPAC_SYSTEMATIC_NAME>
5-ethoxy-3-[1-[(3-methoxyphenyl)methyl]-3,6-dihydro-2H-pyridin-4-yl]-1H-indole

> <PUBCHEM_IUPAC_TRADITIONAL_NAME>
5-ethoxy-3-(1-m-anisyl-3,6-dihydro-2H-pyridin-4-yl)-1H-indole

> <PUBCHEM_IUPAC_INCHI>
InChI=1S/C23H26N2O2/c1-3-27-20-7-8-23-21(14-20)22(15-24-23)18-9-11-25(12-10-18)16-17-5-4-6-19(13-17)26-2/h4-9,13-15,24H,3,10-12,16H2,1-2H3

> <PUBCHEM_IUPAC_INCHIKEY>
LNXJKTLOXRPPBG-UHFFFAOYSA-N

> <PUBCHEM_XLOGP3_AA>
4.1

> <PUBCHEM_EXACT_MASS>
362.199428076

> <PUBCHEM_MOLECULAR_FORMULA>
C23H26N2O2

> <PUBCHEM_MOLECULAR_WEIGHT>
362.5

> <PUBCHEM_OPENEYE_CAN_SMILES>
CCOC1=CC2=C(C=C1)NC=C2C3=CCN(CC3)CC4=CC(=CC=C4)OC

> <PUBCHEM_OPENEYE_ISO_SMILES>
CCOC1=CC2=C(C=C1)NC=C2C3=CCN(CC3)CC4=CC(=CC=C4)OC

> <PUBCHEM_CACTVS_TPSA>
37.5

> <PUBCHEM_MONOISOTOPIC_WEIGHT>
362.199428076

> <PUBCHEM_TOTAL_CHARGE>
0

> <PUBCHEM_HEAVY_ATOM_COUNT>
27

> <PUBCHEM_ATOM_DEF_STEREO_COUNT>
0

> <PUBCHEM_ATOM_UDEF_STEREO_COUNT>
0

> <PUBCHEM_BOND_DEF_STEREO_COUNT>
0

> <PUBCHEM_BOND_UDEF_STEREO_COUNT>
0

> <PUBCHEM_ISOTOPIC_ATOM_COUNT>
0

> <PUBCHEM_COMPONENT_COUNT>
1

> <PUBCHEM_CACTVS_TAUTO_COUNT>
-1

> <PUBCHEM_COORDINATE_TYPE>
1
5
255

> <PUBCHEM_BONDANNOTATIONS>
10  12  8
10  14  8
12  13  8
12  16  8
13  17  8
15  19  8
15  20  8
16  18  8
17  21  8
18  21  8
19  22  8
20  23  8
22  24  8
23  24  8
4  13  8
4  14  8

$$$$
