11978813
  -OEChem-09292322012D

 58 62  0     0  0  0  0  0  0999 V2000
    2.0000   -0.1404    0.0000 S   0  0  0  0  0  0  0  0  0  0  0  0
   11.4023   -1.4370    0.0000 O   0  0  0  0  0  0  0  0  0  0  0  0
   16.6645   -1.4129    0.0000 O   0  0  0  0  0  0  0  0  0  0  0  0
    7.0703   -0.9537    0.0000 N   0  0  0  0  0  0  0  0  0  0  0  0
    5.3344    0.0396    0.0000 N   0  0  0  0  0  0  0  0  0  0  0  0
   14.9325   -1.4129    0.0000 N   0  0  0  0  0  0  0  0  0  0  0  0
    6.2062   -1.4571    0.0000 C   0  0  0  0  0  0  0  0  0  0  0  0
    7.0665    0.0463    0.0000 C   0  0  0  0  0  0  0  0  0  0  0  0
    5.3383   -0.9604    0.0000 C   0  0  0  0  0  0  0  0  0  0  0  0
    6.1985    0.5429    0.0000 C   0  0  0  0  0  0  0  0  0  0  0  0
    7.9383   -1.4504    0.0000 C   0  0  0  0  0  0  0  0  0  0  0  0
    8.8024   -0.9471    0.0000 C   0  0  0  0  0  0  0  0  0  0  0  0
    4.4665    0.5362    0.0000 C   0  0  0  0  0  0  0  0  0  0  0  0
    9.6703   -1.4437    0.0000 C   0  0  0  0  0  0  0  0  0  0  0  0
    3.6024    0.0329    0.0000 C   0  0  0  0  0  0  0  0  0  0  0  0
    4.4626    1.5362    0.0000 C   0  0  0  0  0  0  0  0  0  0  0  0
   10.5344   -0.9404    0.0000 C   0  0  0  0  0  0  0  0  0  0  0  0
    2.7344    0.5296    0.0000 C   0  0  0  0  0  0  0  0  0  0  0  0
    3.3969   -0.9397    0.0000 C   0  0  0  0  0  0  0  0  0  0  0  0
    3.5947    2.0329    0.0000 C   0  0  0  0  0  0  0  0  0  0  0  0
    2.7306    1.5296    0.0000 C   0  0  0  0  0  0  0  0  0  0  0  0
    2.4086   -1.0466    0.0000 C   0  0  0  0  0  0  0  0  0  0  0  0
   12.2664   -0.9337    0.0000 C   0  0  0  0  0  0  0  0  0  0  0  0
   13.1725   -1.4475    0.0000 C   0  0  0  0  0  0  0  0  0  0  0  0
   14.0664   -0.9129    0.0000 C   0  0  0  0  0  0  0  0  0  0  0  0
   12.2664    0.1079    0.0000 C   0  0  0  0  0  0  0  0  0  0  0  0
   14.0664    0.0871    0.0000 C   0  0  0  0  0  0  0  0  0  0  0  0
   13.1725    0.6218    0.0000 C   0  0  0  0  0  0  0  0  0  0  0  0
   14.9325    0.5871    0.0000 C   0  0  0  0  0  0  0  0  0  0  0  0
   15.7985   -0.9129    0.0000 C   0  0  0  0  0  0  0  0  0  0  0  0
   15.7985    0.0871    0.0000 C   0  0  0  0  0  0  0  0  0  0  0  0
    5.8095   -1.9336    0.0000 H   0  0  0  0  0  0  0  0  0  0  0  0
    6.6066   -1.9305    0.0000 H   0  0  0  0  0  0  0  0  0  0  0  0
    7.6774   -0.0590    0.0000 H   0  0  0  0  0  0  0  0  0  0  0  0
    7.2763    0.6297    0.0000 H   0  0  0  0  0  0  0  0  0  0  0  0
    4.7273   -0.8551    0.0000 H   0  0  0  0  0  0  0  0  0  0  0  0
    5.1285   -1.5438    0.0000 H   0  0  0  0  0  0  0  0  0  0  0  0
    6.5952    1.0194    0.0000 H   0  0  0  0  0  0  0  0  0  0  0  0
    5.7982    1.0163    0.0000 H   0  0  0  0  0  0  0  0  0  0  0  0
    7.5416   -1.9269    0.0000 H   0  0  0  0  0  0  0  0  0  0  0  0
    8.3386   -1.9238    0.0000 H   0  0  0  0  0  0  0  0  0  0  0  0
    9.1990   -0.4706    0.0000 H   0  0  0  0  0  0  0  0  0  0  0  0
    8.4020   -0.4736    0.0000 H   0  0  0  0  0  0  0  0  0  0  0  0
    9.2736   -1.9202    0.0000 H   0  0  0  0  0  0  0  0  0  0  0  0
   10.0707   -1.9171    0.0000 H   0  0  0  0  0  0  0  0  0  0  0  0
    4.9984    1.8483    0.0000 H   0  0  0  0  0  0  0  0  0  0  0  0
   10.9311   -0.4639    0.0000 H   0  0  0  0  0  0  0  0  0  0  0  0
   10.1340   -0.4670    0.0000 H   0  0  0  0  0  0  0  0  0  0  0  0
    3.8128   -1.3996    0.0000 H   0  0  0  0  0  0  0  0  0  0  0  0
    3.5923    2.6529    0.0000 H   0  0  0  0  0  0  0  0  0  0  0  0
    2.1925    1.8375    0.0000 H   0  0  0  0  0  0  0  0  0  0  0  0
    2.1007   -1.5847    0.0000 H   0  0  0  0  0  0  0  0  0  0  0  0
   13.1797   -2.0675    0.0000 H   0  0  0  0  0  0  0  0  0  0  0  0
   11.7307    0.4200    0.0000 H   0  0  0  0  0  0  0  0  0  0  0  0
   13.1797    1.2417    0.0000 H   0  0  0  0  0  0  0  0  0  0  0  0
   14.9325   -2.0329    0.0000 H   0  0  0  0  0  0  0  0  0  0  0  0
   14.9325    1.2071    0.0000 H   0  0  0  0  0  0  0  0  0  0  0  0
   16.3354    0.3971    0.0000 H   0  0  0  0  0  0  0  0  0  0  0  0
  1 18  1  0  0  0  0
  1 22  1  0  0  0  0
  2 17  1  0  0  0  0
  2 23  1  0  0  0  0
  3 30  2  0  0  0  0
  4  7  1  0  0  0  0
  4  8  1  0  0  0  0
  4 11  1  0  0  0  0
  5  9  1  0  0  0  0
  5 10  1  0  0  0  0
  5 13  1  0  0  0  0
  6 25  1  0  0  0  0
  6 30  1  0  0  0  0
  6 56  1  0  0  0  0
  7  9  1  0  0  0  0
  7 32  1  0  0  0  0
  7 33  1  0  0  0  0
  8 10  1  0  0  0  0
  8 34  1  0  0  0  0
  8 35  1  0  0  0  0
  9 36  1  0  0  0  0
  9 37  1  0  0  0  0
 10 38  1  0  0  0  0
 10 39  1  0  0  0  0
 11 12  1  0  0  0  0
 11 40  1  0  0  0  0
 11 41  1  0  0  0  0
 12 14  1  0  0  0  0
 12 42  1  0  0  0  0
 12 43  1  0  0  0  0
 13 15  2  0  0  0  0
 13 16  1  0  0  0  0
 14 17  1  0  0  0  0
 14 44  1  0  0  0  0
 14 45  1  0  0  0  0
 15 18  1  0  0  0  0
 15 19  1  0  0  0  0
 16 20  2  0  0  0  0
 16 46  1  0  0  0  0
 17 47  1  0  0  0  0
 17 48  1  0  0  0  0
 18 21  2  0  0  0  0
 19 22  2  0  0  0  0
 19 49  1  0  0  0  0
 20 21  1  0  0  0  0
 20 50  1  0  0  0  0
 21 51  1  0  0  0  0
 22 52  1  0  0  0  0
 23 24  2  0  0  0  0
 23 26  1  0  0  0  0
 24 25  1  0  0  0  0
 24 53  1  0  0  0  0
 25 27  2  0  0  0  0
 26 28  2  0  0  0  0
 26 54  1  0  0  0  0
 27 28  1  0  0  0  0
 27 29  1  0  0  0  0
 28 55  1  0  0  0  0
 29 31  2  0  0  0  0
 29 57  1  0  0  0  0
 30 31  1  0  0  0  0
 31 58  1  0  0  0  0
M  END
> <PUBCHEM_COMPOUND_CID>
11978813

> <PUBCHEM_COMPOUND_CANONICALIZED>
1

> <PUBCHEM_CACTVS_COMPLEXITY>
636

> <PUBCHEM_CACTVS_HBOND_ACCEPTOR>
5

> <PUBCHEM_CACTVS_HBOND_DONOR>
1

> <PUBCHEM_CACTVS_ROTATABLE_BOND>
7

> <PUBCHEM_CACTVS_SUBSKEYS>
AAADceB7MABAAAAAAAAAAAAAAAAAASAAAAA8YIEAAAAAAEiB9AAAHgQQAAAADAzl2Aawx8PABAiMAiVSUACDCIAhKhBIiBgObMgMZiLksZuWOCzm1Bno6Yew0IMOIAAAAiAGAABAAAAEQAwAAAAAAAAAAA==

> <PUBCHEM_IUPAC_OPENEYE_NAME>
7-[4-[4-(benzothiophen-4-yl)piperazin-1-yl]butoxy]-1H-quinolin-2-one

> <PUBCHEM_IUPAC_CAS_NAME>
7-[4-[4-(1-benzothiophen-4-yl)-1-piperazinyl]butoxy]-1H-quinolin-2-one

> <PUBCHEM_IUPAC_NAME_MARKUP>
7-[4-[4-(1-benzothiophen-4-yl)piperazin-1-yl]butoxy]-1<I>H</I>-quinolin-2-one

> <PUBCHEM_IUPAC_NAME>
7-[4-[4-(1-benzothiophen-4-yl)piperazin-1-yl]butoxy]-1H-quinolin-2-one

> <PUBCHEM_IUPAC_SYSTEMATIC_NAME>
7-[4-[4-(1-benzothiophen-4-yl)piperazin-1-yl]butoxy]-1H-quinolin-2-one

> <PUBCHEM_IUPAC_TRADITIONAL_NAME>
7-[4-[4-(benzothiophen-4-yl)piperazino]butoxy]carbostyril

> <PUBCHEM_IUPAC_INCHI>
InChI=1S/C25H27N3O2S/c29-25-9-7-19-6-8-20(18-22(19)26-25)30-16-2-1-11-27-12-14-28(15-13-27)23-4-3-5-24-21(23)10-17-31-24/h3-10,17-18H,1-2,11-16H2,(H,26,29)

> <PUBCHEM_IUPAC_INCHIKEY>
ZKIAIYBUSXZPLP-UHFFFAOYSA-N

> <PUBCHEM_XLOGP3_AA>
4.7

> <PUBCHEM_EXACT_MASS>
433.18239829

> <PUBCHEM_MOLECULAR_FORMULA>
C25H27N3O2S

> <PUBCHEM_MOLECULAR_WEIGHT>
433.6

> <PUBCHEM_OPENEYE_CAN_SMILES>
C1CN(CCN1CCCCOC2=CC3=C(C=C2)C=CC(=O)N3)C4=C5C=CSC5=CC=C4

> <PUBCHEM_OPENEYE_ISO_SMILES>
C1CN(CCN1CCCCOC2=CC3=C(C=C2)C=CC(=O)N3)C4=C5C=CSC5=CC=C4

> <PUBCHEM_CACTVS_TPSA>
73

> <PUBCHEM_MONOISOTOPIC_WEIGHT>
433.18239829

> <PUBCHEM_TOTAL_CHARGE>
0

> <PUBCHEM_HEAVY_ATOM_COUNT>
31

> <PUBCHEM_ATOM_DEF_STEREO_COUNT>
0

> <PUBCHEM_ATOM_UDEF_STEREO_COUNT>
0

> <PUBCHEM_BOND_DEF_STEREO_COUNT>
0

> <PUBCHEM_BOND_UDEF_STEREO_COUNT>
0

> <PUBCHEM_ISOTOPIC_ATOM_COUNT>
0

> <PUBCHEM_COMPONENT_COUNT>
1

> <PUBCHEM_CACTVS_TAUTO_COUNT>
-1

> <PUBCHEM_COORDINATE_TYPE>
1
5
255

> <PUBCHEM_BONDANNOTATIONS>
1  18  8
1  22  8
13  15  8
13  16  8
15  18  8
15  19  8
16  20  8
18  21  8
19  22  8
20  21  8
23  24  8
23  26  8
24  25  8
25  27  8
26  28  8
27  28  8
27  29  8
29  31  8
30  31  8
6  25  8
6  30  8

$$$$
