155550445
  -OEChem-09292322402D

 60 63  0     0  0  0  0  0  0999 V2000
    4.9641    8.1744    0.0000 S   0  0  0  0  0  0  0  0  0  0  0  0
    2.8660   -7.8644    0.0000 O   0  0  0  0  0  0  0  0  0  0  0  0
    6.3301    2.1356    0.0000 O   0  0  0  0  0  0  0  0  0  0  0  0
    2.8660   -1.8644    0.0000 N   0  0  0  0  0  0  0  0  0  0  0  0
    2.8660   -3.8644    0.0000 N   0  0  0  0  0  0  0  0  0  0  0  0
    4.5981    2.1356    0.0000 N   0  0  0  0  0  0  0  0  0  0  0  0
    2.0000   -2.3644    0.0000 C   0  0  0  0  0  0  0  0  0  0  0  0
    3.7320   -2.3644    0.0000 C   0  0  0  0  0  0  0  0  0  0  0  0
    2.0000   -3.3644    0.0000 C   0  0  0  0  0  0  0  0  0  0  0  0
    3.7320   -3.3644    0.0000 C   0  0  0  0  0  0  0  0  0  0  0  0
    2.8660   -0.8644    0.0000 C   0  0  0  0  0  0  0  0  0  0  0  0
    3.7320   -0.3644    0.0000 C   0  0  0  0  0  0  0  0  0  0  0  0
    2.8660   -4.8644    0.0000 C   0  0  0  0  0  0  0  0  0  0  0  0
    3.7320    0.6356    0.0000 C   0  0  0  0  0  0  0  0  0  0  0  0
    4.5981    1.1356    0.0000 C   0  0  0  0  0  0  0  0  0  0  0  0
    3.7320   -5.3644    0.0000 C   0  0  0  0  0  0  0  0  0  0  0  0
    2.0000   -5.3644    0.0000 C   0  0  0  0  0  0  0  0  0  0  0  0
    3.7320   -6.3644    0.0000 C   0  0  0  0  0  0  0  0  0  0  0  0
    2.0000   -6.3644    0.0000 C   0  0  0  0  0  0  0  0  0  0  0  0
    2.8660   -6.8644    0.0000 C   0  0  0  0  0  0  0  0  0  0  0  0
    5.4641    2.6356    0.0000 C   0  0  0  0  0  0  0  0  0  0  0  0
    5.4641    3.6356    0.0000 C   0  0  0  0  0  0  0  0  0  0  0  0
    6.3301    4.1356    0.0000 C   0  0  0  0  0  0  0  0  0  0  0  0
    4.5981    4.1356    0.0000 C   0  0  0  0  0  0  0  0  0  0  0  0
    5.4641    5.6356    0.0000 C   0  0  0  0  0  0  0  0  0  0  0  0
    6.3301    5.1356    0.0000 C   0  0  0  0  0  0  0  0  0  0  0  0
    4.5981    5.1356    0.0000 C   0  0  0  0  0  0  0  0  0  0  0  0
    5.4641    6.6356    0.0000 C   0  0  0  0  0  0  0  0  0  0  0  0
    6.2731    7.2234    0.0000 C   0  0  0  0  0  0  0  0  0  0  0  0
    4.6551    7.2234    0.0000 C   0  0  0  0  0  0  0  0  0  0  0  0
    5.9641    8.1744    0.0000 C   0  0  0  0  0  0  0  0  0  0  0  0
    1.7880   -1.7818    0.0000 H   0  0  0  0  0  0  0  0  0  0  0  0
    1.3894   -2.4721    0.0000 H   0  0  0  0  0  0  0  0  0  0  0  0
    4.3426   -2.4721    0.0000 H   0  0  0  0  0  0  0  0  0  0  0  0
    3.9441   -1.7818    0.0000 H   0  0  0  0  0  0  0  0  0  0  0  0
    1.3894   -3.2568    0.0000 H   0  0  0  0  0  0  0  0  0  0  0  0
    1.7880   -3.9470    0.0000 H   0  0  0  0  0  0  0  0  0  0  0  0
    3.9441   -3.9470    0.0000 H   0  0  0  0  0  0  0  0  0  0  0  0
    4.3426   -3.2568    0.0000 H   0  0  0  0  0  0  0  0  0  0  0  0
    2.6540   -0.2818    0.0000 H   0  0  0  0  0  0  0  0  0  0  0  0
    2.2554   -0.9721    0.0000 H   0  0  0  0  0  0  0  0  0  0  0  0
    3.9441   -0.9470    0.0000 H   0  0  0  0  0  0  0  0  0  0  0  0
    4.3426   -0.2568    0.0000 H   0  0  0  0  0  0  0  0  0  0  0  0
    3.5200    1.2182    0.0000 H   0  0  0  0  0  0  0  0  0  0  0  0
    3.1215    0.5279    0.0000 H   0  0  0  0  0  0  0  0  0  0  0  0
    4.8101    0.5530    0.0000 H   0  0  0  0  0  0  0  0  0  0  0  0
    5.2087    1.2432    0.0000 H   0  0  0  0  0  0  0  0  0  0  0  0
    4.2690   -5.0544    0.0000 H   0  0  0  0  0  0  0  0  0  0  0  0
    1.4631   -5.0544    0.0000 H   0  0  0  0  0  0  0  0  0  0  0  0
    4.0611    2.4456    0.0000 H   0  0  0  0  0  0  0  0  0  0  0  0
    4.2690   -6.6744    0.0000 H   0  0  0  0  0  0  0  0  0  0  0  0
    1.4631   -6.6744    0.0000 H   0  0  0  0  0  0  0  0  0  0  0  0
    2.3291   -8.1744    0.0000 H   0  0  0  0  0  0  0  0  0  0  0  0
    6.8671    3.8256    0.0000 H   0  0  0  0  0  0  0  0  0  0  0  0
    4.0611    3.8256    0.0000 H   0  0  0  0  0  0  0  0  0  0  0  0
    6.8671    5.4456    0.0000 H   0  0  0  0  0  0  0  0  0  0  0  0
    4.0611    5.4456    0.0000 H   0  0  0  0  0  0  0  0  0  0  0  0
    6.8628    7.0318    0.0000 H   0  0  0  0  0  0  0  0  0  0  0  0
    4.0654    7.0318    0.0000 H   0  0  0  0  0  0  0  0  0  0  0  0
    6.3285    8.6760    0.0000 H   0  0  0  0  0  0  0  0  0  0  0  0
  1 30  1  0  0  0  0
  1 31  1  0  0  0  0
  2 20  1  0  0  0  0
  2 53  1  0  0  0  0
  3 21  2  0  0  0  0
  4  7  1  0  0  0  0
  4  8  1  0  0  0  0
  4 11  1  0  0  0  0
  5  9  1  0  0  0  0
  5 10  1  0  0  0  0
  5 13  1  0  0  0  0
  6 15  1  0  0  0  0
  6 21  1  0  0  0  0
  6 50  1  0  0  0  0
  7  9  1  0  0  0  0
  7 32  1  0  0  0  0
  7 33  1  0  0  0  0
  8 10  1  0  0  0  0
  8 34  1  0  0  0  0
  8 35  1  0  0  0  0
  9 36  1  0  0  0  0
  9 37  1  0  0  0  0
 10 38  1  0  0  0  0
 10 39  1  0  0  0  0
 11 12  1  0  0  0  0
 11 40  1  0  0  0  0
 11 41  1  0  0  0  0
 12 14  1  0  0  0  0
 12 42  1  0  0  0  0
 12 43  1  0  0  0  0
 13 16  2  0  0  0  0
 13 17  1  0  0  0  0
 14 15  1  0  0  0  0
 14 44  1  0  0  0  0
 14 45  1  0  0  0  0
 15 46  1  0  0  0  0
 15 47  1  0  0  0  0
 16 18  1  0  0  0  0
 16 48  1  0  0  0  0
 17 19  2  0  0  0  0
 17 49  1  0  0  0  0
 18 20  2  0  0  0  0
 18 51  1  0  0  0  0
 19 20  1  0  0  0  0
 19 52  1  0  0  0  0
 21 22  1  0  0  0  0
 22 23  2  0  0  0  0
 22 24  1  0  0  0  0
 23 26  1  0  0  0  0
 23 54  1  0  0  0  0
 24 27  2  0  0  0  0
 24 55  1  0  0  0  0
 25 26  2  0  0  0  0
 25 27  1  0  0  0  0
 25 28  1  0  0  0  0
 26 56  1  0  0  0  0
 27 57  1  0  0  0  0
 28 29  1  0  0  0  0
 28 30  2  0  0  0  0
 29 31  2  0  0  0  0
 29 58  1  0  0  0  0
 30 59  1  0  0  0  0
 31 60  1  0  0  0  0
M  END
> <PUBCHEM_COMPOUND_CID>
155550445

> <PUBCHEM_COMPOUND_CANONICALIZED>
1

> <PUBCHEM_CACTVS_COMPLEXITY>
539

> <PUBCHEM_CACTVS_HBOND_ACCEPTOR>
5

> <PUBCHEM_CACTVS_HBOND_DONOR>
2

> <PUBCHEM_CACTVS_ROTATABLE_BOND>
8

> <PUBCHEM_CACTVS_SUBSKEYS>
AAADceB7MABAAAAAAAAAAAAAAAAAASAAAAA8YIAAAAAAAAAB0AAAHgQQCAAADAzF2ASwx4PAAgiMAiVSUACDAIAlKhBIiJkObMgIZjLilZOUcQhk1hHo2Ye4yMCOwEAAAAAAAACAgAAAAAAAAAAAAAAAAA==

> <PUBCHEM_IUPAC_OPENEYE_NAME>
N-[4-[4-(4-hydroxyphenyl)piperazin-1-yl]butyl]-4-(3-thienyl)benzamide

> <PUBCHEM_IUPAC_CAS_NAME>
N-[4-[4-(4-hydroxyphenyl)-1-piperazinyl]butyl]-4-(3-thiophenyl)benzamide

> <PUBCHEM_IUPAC_NAME_MARKUP>
<I>N</I>-[4-[4-(4-hydroxyphenyl)piperazin-1-yl]butyl]-4-thiophen-3-ylbenzamide

> <PUBCHEM_IUPAC_NAME>
N-[4-[4-(4-hydroxyphenyl)piperazin-1-yl]butyl]-4-thiophen-3-ylbenzamide

> <PUBCHEM_IUPAC_SYSTEMATIC_NAME>
N-[4-[4-(4-hydroxyphenyl)piperazin-1-yl]butyl]-4-thiophen-3-yl-benzamide

> <PUBCHEM_IUPAC_TRADITIONAL_NAME>
N-[4-[4-(4-hydroxyphenyl)piperazino]butyl]-4-(3-thienyl)benzamide

> <PUBCHEM_IUPAC_INCHI>
InChI=1S/C25H29N3O2S/c29-24-9-7-23(8-10-24)28-16-14-27(15-17-28)13-2-1-12-26-25(30)21-5-3-20(4-6-21)22-11-18-31-19-22/h3-11,18-19,29H,1-2,12-17H2,(H,26,30)

> <PUBCHEM_IUPAC_INCHIKEY>
NERCWRWKDLNUBZ-UHFFFAOYSA-N

> <PUBCHEM_XLOGP3_AA>
4.5

> <PUBCHEM_EXACT_MASS>
435.19804835

> <PUBCHEM_MOLECULAR_FORMULA>
C25H29N3O2S

> <PUBCHEM_MOLECULAR_WEIGHT>
435.6

> <PUBCHEM_OPENEYE_CAN_SMILES>
C1CN(CCN1CCCCNC(=O)C2=CC=C(C=C2)C3=CSC=C3)C4=CC=C(C=C4)O

> <PUBCHEM_OPENEYE_ISO_SMILES>
C1CN(CCN1CCCCNC(=O)C2=CC=C(C=C2)C3=CSC=C3)C4=CC=C(C=C4)O

> <PUBCHEM_CACTVS_TPSA>
84

> <PUBCHEM_MONOISOTOPIC_WEIGHT>
435.19804835

> <PUBCHEM_TOTAL_CHARGE>
0

> <PUBCHEM_HEAVY_ATOM_COUNT>
31

> <PUBCHEM_ATOM_DEF_STEREO_COUNT>
0

> <PUBCHEM_ATOM_UDEF_STEREO_COUNT>
0

> <PUBCHEM_BOND_DEF_STEREO_COUNT>
0

> <PUBCHEM_BOND_UDEF_STEREO_COUNT>
0

> <PUBCHEM_ISOTOPIC_ATOM_COUNT>
0

> <PUBCHEM_COMPONENT_COUNT>
1

> <PUBCHEM_CACTVS_TAUTO_COUNT>
-1

> <PUBCHEM_COORDINATE_TYPE>
1
5
255

> <PUBCHEM_BONDANNOTATIONS>
1  30  8
1  31  8
13  16  8
13  17  8
16  18  8
17  19  8
18  20  8
19  20  8
22  23  8
22  24  8
23  26  8
24  27  8
25  26  8
25  27  8
28  29  8
28  30  8
29  31  8

$$$$
