52942395
  -OEChem-09292322312D

 52 56  0     0  0  0  0  0  0999 V2000
    8.5190   -4.6068    0.0000 F   0  0  0  0  0  0  0  0  0  0  0  0
    8.2083    3.6563    0.0000 N   0  0  0  0  0  0  0  0  0  0  0  0
    7.2764   -0.8047    0.0000 N   0  0  0  0  0  0  0  0  0  0  0  0
    2.0000    1.0000    0.0000 N   0  0  0  0  0  0  0  0  0  0  0  0
    2.8660    2.5000    0.0000 N   0  0  0  0  0  0  0  0  0  0  0  0
    7.5870    1.7552    0.0000 C   0  0  0  0  0  0  0  0  0  0  0  0
    6.9192    2.4996    0.0000 C   0  0  0  0  0  0  0  0  0  0  0  0
    8.5655    1.9615    0.0000 C   0  0  0  0  0  0  0  0  0  0  0  0
    7.2764    0.8047    0.0000 C   0  0  0  0  0  0  0  0  0  0  0  0
    7.2298    3.4501    0.0000 C   0  0  0  0  0  0  0  0  0  0  0  0
    8.8762    2.9120    0.0000 C   0  0  0  0  0  0  0  0  0  0  0  0
    6.3301    0.5000    0.0000 C   0  0  0  0  0  0  0  0  0  0  0  0
    7.8600    0.0000    0.0000 C   0  0  0  0  0  0  0  0  0  0  0  0
    6.3301   -0.5000    0.0000 C   0  0  0  0  0  0  0  0  0  0  0  0
    8.5190    4.6068    0.0000 C   0  0  0  0  0  0  0  0  0  0  0  0
    5.4641    1.0000    0.0000 C   0  0  0  0  0  0  0  0  0  0  0  0
    5.4641   -1.0000    0.0000 C   0  0  0  0  0  0  0  0  0  0  0  0
    7.5870   -1.7552    0.0000 C   0  0  0  0  0  0  0  0  0  0  0  0
    4.5981    0.5000    0.0000 C   0  0  0  0  0  0  0  0  0  0  0  0
    4.5981   -0.5000    0.0000 C   0  0  0  0  0  0  0  0  0  0  0  0
    6.9192   -2.4996    0.0000 C   0  0  0  0  0  0  0  0  0  0  0  0
    8.5655   -1.9615    0.0000 C   0  0  0  0  0  0  0  0  0  0  0  0
    3.7320    1.0000    0.0000 C   0  0  0  0  0  0  0  0  0  0  0  0
    7.2298   -3.4501    0.0000 C   0  0  0  0  0  0  0  0  0  0  0  0
    8.8762   -2.9120    0.0000 C   0  0  0  0  0  0  0  0  0  0  0  0
    8.2083   -3.6563    0.0000 C   0  0  0  0  0  0  0  0  0  0  0  0
    2.8660    0.5000    0.0000 C   0  0  0  0  0  0  0  0  0  0  0  0
    3.7320    2.0000    0.0000 C   0  0  0  0  0  0  0  0  0  0  0  0
    2.0000    2.0000    0.0000 C   0  0  0  0  0  0  0  0  0  0  0  0
    6.9803    1.6274    0.0000 H   0  0  0  0  0  0  0  0  0  0  0  0
    6.3722    2.7916    0.0000 H   0  0  0  0  0  0  0  0  0  0  0  0
    6.5366    2.0116    0.0000 H   0  0  0  0  0  0  0  0  0  0  0  0
    8.5861    1.3418    0.0000 H   0  0  0  0  0  0  0  0  0  0  0  0
    9.1793    1.8741    0.0000 H   0  0  0  0  0  0  0  0  0  0  0  0
    7.2093    4.0697    0.0000 H   0  0  0  0  0  0  0  0  0  0  0  0
    6.6160    3.5374    0.0000 H   0  0  0  0  0  0  0  0  0  0  0  0
    9.4231    2.6200    0.0000 H   0  0  0  0  0  0  0  0  0  0  0  0
    9.2587    3.3999    0.0000 H   0  0  0  0  0  0  0  0  0  0  0  0
    8.4800    0.0000    0.0000 H   0  0  0  0  0  0  0  0  0  0  0  0
    9.1083    4.4142    0.0000 H   0  0  0  0  0  0  0  0  0  0  0  0
    8.7116    5.1961    0.0000 H   0  0  0  0  0  0  0  0  0  0  0  0
    7.9297    4.7994    0.0000 H   0  0  0  0  0  0  0  0  0  0  0  0
    5.4641    1.6200    0.0000 H   0  0  0  0  0  0  0  0  0  0  0  0
    5.4641   -1.6200    0.0000 H   0  0  0  0  0  0  0  0  0  0  0  0
    4.0611   -0.8100    0.0000 H   0  0  0  0  0  0  0  0  0  0  0  0
    6.3125   -2.3717    0.0000 H   0  0  0  0  0  0  0  0  0  0  0  0
    8.9796   -1.5000    0.0000 H   0  0  0  0  0  0  0  0  0  0  0  0
    6.8158   -3.9115    0.0000 H   0  0  0  0  0  0  0  0  0  0  0  0
    9.4828   -3.0398    0.0000 H   0  0  0  0  0  0  0  0  0  0  0  0
    2.8660   -0.1200    0.0000 H   0  0  0  0  0  0  0  0  0  0  0  0
    4.2690    2.3100    0.0000 H   0  0  0  0  0  0  0  0  0  0  0  0
    1.4631    2.3100    0.0000 H   0  0  0  0  0  0  0  0  0  0  0  0
  1 26  1  0  0  0  0
  2 10  1  0  0  0  0
  2 11  1  0  0  0  0
  2 15  1  0  0  0  0
  3 13  1  0  0  0  0
  3 14  1  0  0  0  0
  3 18  1  0  0  0  0
  4 27  2  0  0  0  0
  4 29  1  0  0  0  0
  5 28  1  0  0  0  0
  5 29  2  0  0  0  0
  6  7  1  0  0  0  0
  6  8  1  0  0  0  0
  6  9  1  0  0  0  0
  6 30  1  0  0  0  0
  7 10  1  0  0  0  0
  7 31  1  0  0  0  0
  7 32  1  0  0  0  0
  8 11  1  0  0  0  0
  8 33  1  0  0  0  0
  8 34  1  0  0  0  0
  9 12  1  0  0  0  0
  9 13  2  0  0  0  0
 10 35  1  0  0  0  0
 10 36  1  0  0  0  0
 11 37  1  0  0  0  0
 11 38  1  0  0  0  0
 12 14  2  0  0  0  0
 12 16  1  0  0  0  0
 13 39  1  0  0  0  0
 14 17  1  0  0  0  0
 15 40  1  0  0  0  0
 15 41  1  0  0  0  0
 15 42  1  0  0  0  0
 16 19  2  0  0  0  0
 16 43  1  0  0  0  0
 17 20  2  0  0  0  0
 17 44  1  0  0  0  0
 18 21  2  0  0  0  0
 18 22  1  0  0  0  0
 19 20  1  0  0  0  0
 19 23  1  0  0  0  0
 20 45  1  0  0  0  0
 21 24  1  0  0  0  0
 21 46  1  0  0  0  0
 22 25  2  0  0  0  0
 22 47  1  0  0  0  0
 23 27  1  0  0  0  0
 23 28  2  0  0  0  0
 24 26  2  0  0  0  0
 24 48  1  0  0  0  0
 25 26  1  0  0  0  0
 25 49  1  0  0  0  0
 27 50  1  0  0  0  0
 28 51  1  0  0  0  0
 29 52  1  0  0  0  0
M  END
> <PUBCHEM_COMPOUND_CID>
52942395

> <PUBCHEM_COMPOUND_CANONICALIZED>
1

> <PUBCHEM_CACTVS_COMPLEXITY>
523

> <PUBCHEM_CACTVS_HBOND_ACCEPTOR>
4

> <PUBCHEM_CACTVS_HBOND_DONOR>
0

> <PUBCHEM_CACTVS_ROTATABLE_BOND>
3

> <PUBCHEM_CACTVS_SUBSKEYS>
AAADceB7gQAAAAAAAAAAAAAAAAAAAWAAAAA8eIEAAAAAAFgB/AAAHQAAAAAADQjBHgw/0PcMEACgAzRnZACCgCkxAqAJ2CA4ZJiIKOLA2dGEJAhogALIyCcQgMAOiAACAAACAAAQAAQAAAQAAAAAAAAAAA==

> <PUBCHEM_IUPAC_OPENEYE_NAME>
1-(4-fluorophenyl)-3-(1-methyl-4-piperidyl)-5-pyrimidin-5-yl-indole

> <PUBCHEM_IUPAC_CAS_NAME>
1-(4-fluorophenyl)-3-(1-methyl-4-piperidinyl)-5-(5-pyrimidinyl)indole

> <PUBCHEM_IUPAC_NAME_MARKUP>
1-(4-fluorophenyl)-3-(1-methylpiperidin-4-yl)-5-pyrimidin-5-ylindole

> <PUBCHEM_IUPAC_NAME>
1-(4-fluorophenyl)-3-(1-methylpiperidin-4-yl)-5-pyrimidin-5-ylindole

> <PUBCHEM_IUPAC_SYSTEMATIC_NAME>
1-(4-fluorophenyl)-3-(1-methylpiperidin-4-yl)-5-pyrimidin-5-yl-indole

> <PUBCHEM_IUPAC_TRADITIONAL_NAME>
1-(4-fluorophenyl)-3-(1-methyl-4-piperidyl)-5-(5-pyrimidyl)indole

> <PUBCHEM_IUPAC_INCHI>
InChI=1S/C24H23FN4/c1-28-10-8-17(9-11-28)23-15-29(21-5-3-20(25)4-6-21)24-7-2-18(12-22(23)24)19-13-26-16-27-14-19/h2-7,12-17H,8-11H2,1H3

> <PUBCHEM_IUPAC_INCHIKEY>
WAWSGWZTHJAPIA-UHFFFAOYSA-N

> <PUBCHEM_XLOGP3_AA>
4.2

> <PUBCHEM_EXACT_MASS>
386.19067491

> <PUBCHEM_MOLECULAR_FORMULA>
C24H23FN4

> <PUBCHEM_MOLECULAR_WEIGHT>
386.5

> <PUBCHEM_OPENEYE_CAN_SMILES>
CN1CCC(CC1)C2=CN(C3=C2C=C(C=C3)C4=CN=CN=C4)C5=CC=C(C=C5)F

> <PUBCHEM_OPENEYE_ISO_SMILES>
CN1CCC(CC1)C2=CN(C3=C2C=C(C=C3)C4=CN=CN=C4)C5=CC=C(C=C5)F

> <PUBCHEM_CACTVS_TPSA>
34

> <PUBCHEM_MONOISOTOPIC_WEIGHT>
386.19067491

> <PUBCHEM_TOTAL_CHARGE>
0

> <PUBCHEM_HEAVY_ATOM_COUNT>
29

> <PUBCHEM_ATOM_DEF_STEREO_COUNT>
0

> <PUBCHEM_ATOM_UDEF_STEREO_COUNT>
0

> <PUBCHEM_BOND_DEF_STEREO_COUNT>
0

> <PUBCHEM_BOND_UDEF_STEREO_COUNT>
0

> <PUBCHEM_ISOTOPIC_ATOM_COUNT>
0

> <PUBCHEM_COMPONENT_COUNT>
1

> <PUBCHEM_CACTVS_TAUTO_COUNT>
-1

> <PUBCHEM_COORDINATE_TYPE>
1
5
255

> <PUBCHEM_BONDANNOTATIONS>
12  14  8
12  16  8
14  17  8
16  19  8
17  20  8
18  21  8
18  22  8
19  20  8
21  24  8
22  25  8
23  27  8
23  28  8
24  26  8
25  26  8
3  13  8
3  14  8
4  27  8
4  29  8
5  28  8
5  29  8
9  12  8
9  13  8

$$$$
