90656844
  -OEChem-09292322352D

226232  0     1  0  0  0  0  0999 V2000
   16.3369   10.6493    0.0000 S   0  0  0  0  0  0  0  0  0  0  0  0
    8.1892   -9.9548    0.0000 O   0  0  0  0  0  0  0  0  0  0  0  0
    8.9128  -12.8094    0.0000 O   0  0  0  0  0  0  0  0  0  0  0  0
   20.7958   14.6641    0.0000 O   0  0  0  0  0  0  0  0  0  0  0  0
    7.4460   -9.2856    0.0000 O   0  0  0  0  0  0  0  0  0  0  0  0
    6.3147  -10.3094    0.0000 O   0  0  0  0  0  0  0  0  0  0  0  0
   19.6368   15.9513    0.0000 O   0  0  0  0  0  0  0  0  0  0  0  0
   17.7347   16.5693    0.0000 O   0  0  0  0  0  0  0  0  0  0  0  0
    5.4245   -6.3001    0.0000 O   0  0  0  0  0  0  0  0  0  0  0  0
   11.1308   -4.4460    0.0000 O   0  0  0  0  0  0  0  0  0  0  0  0
    2.7166  -11.3094    0.0000 O   0  0  0  0  0  0  0  0  0  0  0  0
    3.5827  -12.8094    0.0000 O   0  0  0  0  0  0  0  0  0  0  0  0
    6.9993   -3.0566    0.0000 O   0  0  0  0  0  0  0  0  0  0  0  0
   16.5643    8.4857    0.0000 O   0  0  0  0  0  0  0  0  0  0  0  0
   13.1211    9.2175    0.0000 O   0  0  0  0  0  0  0  0  0  0  0  0
    7.2072   -2.0785    0.0000 O   0  0  0  0  0  0  0  0  0  0  0  0
    7.6230   -0.1222    0.0000 O   0  0  0  0  0  0  0  0  0  0  0  0
   10.5647    5.3866    0.0000 O   0  0  0  0  0  0  0  0  0  0  0  0
    8.9899    2.1431    0.0000 O   0  0  0  0  0  0  0  0  0  0  0  0
   22.3330   11.3229    0.0000 N   0  0  3  0  0  0  0  0  0  0  0  0
    9.8834  -10.3149    0.0000 N   0  0  0  0  0  0  0  0  0  0  0  0
   20.2605   13.0168    0.0000 N   0  0  0  0  0  0  0  0  0  0  0  0
    8.0468  -11.3094    0.0000 N   0  0  0  0  0  0  0  0  0  0  0  0
    8.6050   -7.9985    0.0000 N   0  0  0  0  0  0  0  0  0  0  0  0
    7.1187   -6.6602    0.0000 N   0  0  0  0  0  0  0  0  0  0  0  0
    5.3147  -11.8094    0.0000 N   0  0  0  0  0  0  0  0  0  0  0  0
    5.4487  -14.8094    0.0000 N   0  0  0  0  0  0  0  0  0  0  0  0
    5.8403   -4.3438    0.0000 N   0  0  0  0  0  0  0  0  0  0  0  0
   14.7847    8.5789    0.0000 N   0  0  0  0  0  0  0  0  0  0  0  0
    3.4782   -8.8149    0.0000 N   0  0  0  0  0  0  0  0  0  0  0  0
    2.0000   -9.4730    0.0000 N   0  0  0  0  0  0  0  0  0  0  0  0
    4.5827  -16.3094    0.0000 N   0  0  0  0  0  0  0  0  0  0  0  0
    6.3147  -16.3094    0.0000 N   0  0  0  0  0  0  0  0  0  0  0  0
    5.5130   -1.7184    0.0000 N   0  0  0  0  0  0  0  0  0  0  0  0
    2.6327   -2.5443    0.0000 N   0  0  0  0  0  0  0  0  0  0  0  0
    2.8019   -0.9352    0.0000 N   0  0  0  0  0  0  0  0  0  0  0  0
   11.0999    3.7393    0.0000 N   0  0  0  0  0  0  0  0  0  0  0  0
   21.4195   11.7297    0.0000 C   0  0  1  0  0  0  0  0  0  0  0  0
   20.7504   10.9865    0.0000 C   0  0  0  0  0  0  0  0  0  0  0  0
   21.2504   10.1205    0.0000 C   0  0  0  0  0  0  0  0  0  0  0  0
   22.2285   10.3284    0.0000 C   0  0  0  0  0  0  0  0  0  0  0  0
   21.2116   12.7078    0.0000 C   0  0  0  0  0  0  0  0  0  0  0  0
    9.7788  -11.3094    0.0000 C   0  0  1  0  0  0  0  0  0  0  0  0
   23.1991   11.8229    0.0000 C   0  0  0  0  0  0  0  0  0  0  0  0
   10.6924  -11.7162    0.0000 C   0  0  0  0  0  0  0  0  0  0  0  0
   11.3615  -10.9730    0.0000 C   0  0  0  0  0  0  0  0  0  0  0  0
   10.8615  -10.1070    0.0000 C   0  0  0  0  0  0  0  0  0  0  0  0
    9.1402   -9.6458    0.0000 C   0  0  0  0  0  0  0  0  0  0  0  0
    8.9128  -11.8094    0.0000 C   0  0  0  0  0  0  0  0  0  0  0  0
    9.3481   -8.6676    0.0000 C   0  0  2  0  0  0  0  0  0  0  0  0
   24.0651   11.3229    0.0000 C   0  0  0  0  0  0  0  0  0  0  0  0
   10.2992   -8.3586    0.0000 C   0  0  0  0  0  0  0  0  0  0  0  0
    7.1808  -11.8094    0.0000 C   0  0  1  0  0  0  0  0  0  0  0  0
   20.0526   13.9950    0.0000 C   0  0  0  0  0  0  0  0  0  0  0  0
    6.9108   -7.6384    0.0000 C   0  0  2  0  0  0  0  0  0  0  0  0
    7.1808  -12.8094    0.0000 C   0  0  0  0  0  0  0  0  0  0  0  0
    7.6539   -8.3075    0.0000 C   0  0  0  0  0  0  0  0  0  0  0  0
    5.9597   -7.9474    0.0000 C   0  0  2  0  0  0  0  0  0  0  0  0
   10.5071   -7.3804    0.0000 C   0  0  0  0  0  0  0  0  0  0  0  0
   24.9311   11.8229    0.0000 C   0  0  0  0  0  0  0  0  0  0  0  0
   19.1016   14.3040    0.0000 C   0  0  0  0  0  0  0  0  0  0  0  0
    6.3147  -11.3094    0.0000 C   0  0  0  0  0  0  0  0  0  0  0  0
    6.3147  -13.3094    0.0000 C   0  0  0  0  0  0  0  0  0  0  0  0
    5.2166   -7.2783    0.0000 C   0  0  0  0  0  0  0  0  0  0  0  0
    5.7518   -8.9255    0.0000 C   0  0  0  0  0  0  0  0  0  0  0  0
   18.3584   13.6349    0.0000 C   0  0  0  0  0  0  0  0  0  0  0  0
   18.8937   15.2821    0.0000 C   0  0  0  0  0  0  0  0  0  0  0  0
    9.7640   -6.7113    0.0000 C   0  0  0  0  0  0  0  0  0  0  0  0
   11.4581   -7.0714    0.0000 C   0  0  0  0  0  0  0  0  0  0  0  0
    6.3147  -14.3094    0.0000 C   0  0  0  0  0  0  0  0  0  0  0  0
   17.4074   13.9439    0.0000 C   0  0  0  0  0  0  0  0  0  0  0  0
    4.4487  -11.3094    0.0000 C   0  0  1  0  0  0  0  0  0  0  0  0
    4.2655   -7.5873    0.0000 C   0  0  0  0  0  0  0  0  0  0  0  0
    6.3755   -5.9911    0.0000 C   0  0  0  0  0  0  0  0  0  0  0  0
   17.9426   15.5912    0.0000 C   0  0  0  0  0  0  0  0  0  0  0  0
    9.9719   -5.7332    0.0000 C   0  0  0  0  0  0  0  0  0  0  0  0
   11.6661   -6.0933    0.0000 C   0  0  0  0  0  0  0  0  0  0  0  0
   16.6642   13.2747    0.0000 C   0  0  0  0  0  0  0  0  0  0  0  0
   17.1995   14.9220    0.0000 C   0  0  0  0  0  0  0  0  0  0  0  0
    6.5835   -5.0129    0.0000 C   0  0  2  0  0  0  0  0  0  0  0  0
    4.4487  -10.3094    0.0000 C   0  0  0  0  0  0  0  0  0  0  0  0
   10.9229   -5.4242    0.0000 C   0  0  0  0  0  0  0  0  0  0  0  0
   16.8721   12.2966    0.0000 C   0  0  0  0  0  0  0  0  0  0  0  0
    3.5827  -11.8094    0.0000 C   0  0  0  0  0  0  0  0  0  0  0  0
    7.5345   -4.7039    0.0000 C   0  0  0  0  0  0  0  0  0  0  0  0
   16.1290   11.6275    0.0000 C   0  0  0  0  0  0  0  0  0  0  0  0
    3.5827   -9.8094    0.0000 C   0  0  0  0  0  0  0  0  0  0  0  0
   15.5938    9.9802    0.0000 C   0  0  3  0  0  0  0  0  0  0  0  0
   19.4289   16.9294    0.0000 C   0  0  0  0  0  0  0  0  0  0  0  0
   14.6156   10.1881    0.0000 C   0  0  0  0  0  0  0  0  0  0  0  0
    5.4487  -15.8094    0.0000 C   0  0  0  0  0  0  0  0  0  0  0  0
    6.0482   -3.3657    0.0000 C   0  0  0  0  0  0  0  0  0  0  0  0
   15.6983    8.9857    0.0000 C   0  0  0  0  0  0  0  0  0  0  0  0
    5.3051   -2.6965    0.0000 C   0  0  2  0  0  0  0  0  0  0  0  0
    2.6691  -10.2162    0.0000 C   0  0  0  0  0  0  0  0  0  0  0  0
   16.7836   16.8783    0.0000 C   0  0  0  0  0  0  0  0  0  0  0  0
   14.1156    9.3221    0.0000 C   0  0  0  0  0  0  0  0  0  0  0  0
   14.5768    7.6008    0.0000 C   0  0  0  0  0  0  0  0  0  0  0  0
   13.6258    7.2918    0.0000 C   0  0  0  0  0  0  0  0  0  0  0  0
    4.3540   -3.0056    0.0000 C   0  0  0  0  0  0  0  0  0  0  0  0
   13.4179    6.3136    0.0000 C   0  0  0  0  0  0  0  0  0  0  0  0
    2.5000   -8.6070    0.0000 C   0  0  0  0  0  0  0  0  0  0  0  0
   12.4668    6.0046    0.0000 C   0  0  0  0  0  0  0  0  0  0  0  0
    3.6109   -2.3364    0.0000 C   0  0  0  0  0  0  0  0  0  0  0  0
   12.2589    5.0264    0.0000 C   0  0  0  0  0  0  0  0  0  0  0  0
    6.4640   -1.4094    0.0000 C   0  0  0  0  0  0  0  0  0  0  0  0
    3.7154   -1.3419    0.0000 C   0  0  0  0  0  0  0  0  0  0  0  0
   11.3078    4.7174    0.0000 C   0  0  0  0  0  0  0  0  0  0  0  0
    6.6720   -0.4312    0.0000 C   0  0  0  0  0  0  0  0  0  0  0  0
    2.1327   -1.6783    0.0000 C   0  0  0  0  0  0  0  0  0  0  0  0
   10.1489    3.4303    0.0000 C   0  0  0  0  0  0  0  0  0  0  0  0
    7.8309    0.8559    0.0000 C   0  0  0  0  0  0  0  0  0  0  0  0
    9.9410    2.4521    0.0000 C   0  0  0  0  0  0  0  0  0  0  0  0
    8.7820    1.1650    0.0000 C   0  0  0  0  0  0  0  0  0  0  0  0
   21.9013   12.1198    0.0000 H   0  0  0  0  0  0  0  0  0  0  0  0
   20.3355   11.4473    0.0000 H   0  0  0  0  0  0  0  0  0  0  0  0
   20.2488   10.6221    0.0000 H   0  0  0  0  0  0  0  0  0  0  0  0
   20.6840    9.8683    0.0000 H   0  0  0  0  0  0  0  0  0  0  0  0
   21.4420    9.5308    0.0000 H   0  0  0  0  0  0  0  0  0  0  0  0
   22.2933    9.7118    0.0000 H   0  0  0  0  0  0  0  0  0  0  0  0
   22.8485   10.3284    0.0000 H   0  0  0  0  0  0  0  0  0  0  0  0
   21.8312   12.7294    0.0000 H   0  0  0  0  0  0  0  0  0  0  0  0
   21.2979   13.3218    0.0000 H   0  0  0  0  0  0  0  0  0  0  0  0
    9.2588  -10.9717    0.0000 H   0  0  0  0  0  0  0  0  0  0  0  0
   23.5976   12.2979    0.0000 H   0  0  0  0  0  0  0  0  0  0  0  0
   22.8005   12.2979    0.0000 H   0  0  0  0  0  0  0  0  0  0  0  0
   10.3824  -12.2531    0.0000 H   0  0  0  0  0  0  0  0  0  0  0  0
   11.1940  -12.0806    0.0000 H   0  0  0  0  0  0  0  0  0  0  0  0
   11.7764  -11.4338    0.0000 H   0  0  0  0  0  0  0  0  0  0  0  0
   11.8631  -10.6086    0.0000 H   0  0  0  0  0  0  0  0  0  0  0  0
   11.4279   -9.8548    0.0000 H   0  0  0  0  0  0  0  0  0  0  0  0
   10.6699   -9.5173    0.0000 H   0  0  0  0  0  0  0  0  0  0  0  0
   19.7998   12.6020    0.0000 H   0  0  0  0  0  0  0  0  0  0  0  0
    9.4770   -8.0612    0.0000 H   0  0  0  0  0  0  0  0  0  0  0  0
   24.0651   10.7029    0.0000 H   0  0  0  0  0  0  0  0  0  0  0  0
    8.0468  -10.6894    0.0000 H   0  0  0  0  0  0  0  0  0  0  0  0
   10.3855   -8.9726    0.0000 H   0  0  0  0  0  0  0  0  0  0  0  0
   10.9188   -8.3802    0.0000 H   0  0  0  0  0  0  0  0  0  0  0  0
    7.1808  -11.1894    0.0000 H   0  0  0  0  0  0  0  0  0  0  0  0
    8.7339   -7.3920    0.0000 H   0  0  0  0  0  0  0  0  0  0  0  0
    6.4500   -7.2235    0.0000 H   0  0  0  0  0  0  0  0  0  0  0  0
    7.3928  -13.3920    0.0000 H   0  0  0  0  0  0  0  0  0  0  0  0
    7.7913  -12.7018    0.0000 H   0  0  0  0  0  0  0  0  0  0  0  0
    5.3701   -8.1390    0.0000 H   0  0  0  0  0  0  0  0  0  0  0  0
   25.4681   11.5129    0.0000 H   0  0  0  0  0  0  0  0  0  0  0  0
   24.9311   12.4429    0.0000 H   0  0  0  0  0  0  0  0  0  0  0  0
    6.1027  -12.7268    0.0000 H   0  0  0  0  0  0  0  0  0  0  0  0
    5.7042  -13.4171    0.0000 H   0  0  0  0  0  0  0  0  0  0  0  0
    5.7051   -6.8966    0.0000 H   0  0  0  0  0  0  0  0  0  0  0  0
    4.9255   -6.7308    0.0000 H   0  0  0  0  0  0  0  0  0  0  0  0
    7.7083   -6.4686    0.0000 H   0  0  0  0  0  0  0  0  0  0  0  0
    5.1454   -8.7966    0.0000 H   0  0  0  0  0  0  0  0  0  0  0  0
    5.6229   -9.5320    0.0000 H   0  0  0  0  0  0  0  0  0  0  0  0
    6.3583   -9.0544    0.0000 H   0  0  0  0  0  0  0  0  0  0  0  0
   18.4873   13.0284    0.0000 H   0  0  0  0  0  0  0  0  0  0  0  0
    9.1743   -6.9029    0.0000 H   0  0  0  0  0  0  0  0  0  0  0  0
   11.9189   -7.4863    0.0000 H   0  0  0  0  0  0  0  0  0  0  0  0
    5.8517  -12.1194    0.0000 H   0  0  0  0  0  0  0  0  0  0  0  0
    6.5268  -14.8920    0.0000 H   0  0  0  0  0  0  0  0  0  0  0  0
    6.9253  -14.2018    0.0000 H   0  0  0  0  0  0  0  0  0  0  0  0
    4.9856  -10.9994    0.0000 H   0  0  0  0  0  0  0  0  0  0  0  0
    4.0739   -6.9976    0.0000 H   0  0  0  0  0  0  0  0  0  0  0  0
    3.6759   -7.7789    0.0000 H   0  0  0  0  0  0  0  0  0  0  0  0
    4.4571   -8.1769    0.0000 H   0  0  0  0  0  0  0  0  0  0  0  0
    9.5111   -5.3183    0.0000 H   0  0  0  0  0  0  0  0  0  0  0  0
   12.2557   -5.9017    0.0000 H   0  0  0  0  0  0  0  0  0  0  0  0
   16.3357   13.8005    0.0000 H   0  0  0  0  0  0  0  0  0  0  0  0
   16.0894   13.0425    0.0000 H   0  0  0  0  0  0  0  0  0  0  0  0
   16.6098   15.1136    0.0000 H   0  0  0  0  0  0  0  0  0  0  0  0
    6.7124   -4.4065    0.0000 H   0  0  0  0  0  0  0  0  0  0  0  0
    5.0593  -10.4171    0.0000 H   0  0  0  0  0  0  0  0  0  0  0  0
    4.6608   -9.7268    0.0000 H   0  0  0  0  0  0  0  0  0  0  0  0
   17.2007   11.7708    0.0000 H   0  0  0  0  0  0  0  0  0  0  0  0
   17.4470   12.5289    0.0000 H   0  0  0  0  0  0  0  0  0  0  0  0
    7.7261   -5.2936    0.0000 H   0  0  0  0  0  0  0  0  0  0  0  0
    8.1242   -4.5123    0.0000 H   0  0  0  0  0  0  0  0  0  0  0  0
    7.3429   -4.1143    0.0000 H   0  0  0  0  0  0  0  0  0  0  0  0
   15.8004   12.1533    0.0000 H   0  0  0  0  0  0  0  0  0  0  0  0
   15.5541   11.3952    0.0000 H   0  0  0  0  0  0  0  0  0  0  0  0
    5.2507   -4.5354    0.0000 H   0  0  0  0  0  0  0  0  0  0  0  0
   15.4333   10.5791    0.0000 H   0  0  0  0  0  0  0  0  0  0  0  0
   20.0353   17.0583    0.0000 H   0  0  0  0  0  0  0  0  0  0  0  0
   19.3000   17.5359    0.0000 H   0  0  0  0  0  0  0  0  0  0  0  0
   18.8224   16.8005    0.0000 H   0  0  0  0  0  0  0  0  0  0  0  0
   14.8072   10.7778    0.0000 H   0  0  0  0  0  0  0  0  0  0  0  0
   14.0492   10.4403    0.0000 H   0  0  0  0  0  0  0  0  0  0  0  0
   11.7205   -4.2544    0.0000 H   0  0  0  0  0  0  0  0  0  0  0  0
    4.8443   -2.2817    0.0000 H   0  0  0  0  0  0  0  0  0  0  0  0
    3.9389   -8.4000    0.0000 H   0  0  0  0  0  0  0  0  0  0  0  0
    2.5402  -10.8226    0.0000 H   0  0  0  0  0  0  0  0  0  0  0  0
   14.6631    6.9868    0.0000 H   0  0  0  0  0  0  0  0  0  0  0  0
   15.1964    7.5791    0.0000 H   0  0  0  0  0  0  0  0  0  0  0  0
   16.9752   17.4680    0.0000 H   0  0  0  0  0  0  0  0  0  0  0  0
   16.1940   17.0699    0.0000 H   0  0  0  0  0  0  0  0  0  0  0  0
   16.5920   16.2887    0.0000 H   0  0  0  0  0  0  0  0  0  0  0  0
    2.1797  -11.6194    0.0000 H   0  0  0  0  0  0  0  0  0  0  0  0
   13.5395    7.9057    0.0000 H   0  0  0  0  0  0  0  0  0  0  0  0
   13.0061    7.3134    0.0000 H   0  0  0  0  0  0  0  0  0  0  0  0
    3.8654   -3.3873    0.0000 H   0  0  0  0  0  0  0  0  0  0  0  0
    4.6451   -3.5530    0.0000 H   0  0  0  0  0  0  0  0  0  0  0  0
   13.5041    5.6996    0.0000 H   0  0  0  0  0  0  0  0  0  0  0  0
   14.0375    6.2920    0.0000 H   0  0  0  0  0  0  0  0  0  0  0  0
    2.2478   -8.0406    0.0000 H   0  0  0  0  0  0  0  0  0  0  0  0
    4.5827  -16.9294    0.0000 H   0  0  0  0  0  0  0  0  0  0  0  0
    4.0457  -15.9994    0.0000 H   0  0  0  0  0  0  0  0  0  0  0  0
    6.3147  -16.9294    0.0000 H   0  0  0  0  0  0  0  0  0  0  0  0
    6.8517  -15.9994    0.0000 H   0  0  0  0  0  0  0  0  0  0  0  0
    5.0522   -1.3035    0.0000 H   0  0  0  0  0  0  0  0  0  0  0  0
   12.3805    6.6186    0.0000 H   0  0  0  0  0  0  0  0  0  0  0  0
   11.8472    6.0262    0.0000 H   0  0  0  0  0  0  0  0  0  0  0  0
   12.3452    4.4125    0.0000 H   0  0  0  0  0  0  0  0  0  0  0  0
   12.8785    5.0048    0.0000 H   0  0  0  0  0  0  0  0  0  0  0  0
    2.3806   -3.1107    0.0000 H   0  0  0  0  0  0  0  0  0  0  0  0
    4.2523   -1.0319    0.0000 H   0  0  0  0  0  0  0  0  0  0  0  0
    6.5857    0.1827    0.0000 H   0  0  0  0  0  0  0  0  0  0  0  0
    6.0523   -0.4096    0.0000 H   0  0  0  0  0  0  0  0  0  0  0  0
    1.5161   -1.6135    0.0000 H   0  0  0  0  0  0  0  0  0  0  0  0
   11.5607    3.3244    0.0000 H   0  0  0  0  0  0  0  0  0  0  0  0
   10.0626    4.0442    0.0000 H   0  0  0  0  0  0  0  0  0  0  0  0
    9.5292    3.4519    0.0000 H   0  0  0  0  0  0  0  0  0  0  0  0
    7.7446    1.4699    0.0000 H   0  0  0  0  0  0  0  0  0  0  0  0
    7.2113    0.8776    0.0000 H   0  0  0  0  0  0  0  0  0  0  0  0
   10.0272    1.8382    0.0000 H   0  0  0  0  0  0  0  0  0  0  0  0
   10.5606    2.4305    0.0000 H   0  0  0  0  0  0  0  0  0  0  0  0
    8.8683    0.5510    0.0000 H   0  0  0  0  0  0  0  0  0  0  0  0
    9.4016    1.1433    0.0000 H   0  0  0  0  0  0  0  0  0  0  0  0
  1 86  1  0  0  0  0
  1 88  1  0  0  0  0
  2 48  2  0  0  0  0
  3 49  2  0  0  0  0
  4 54  2  0  0  0  0
  5 57  2  0  0  0  0
  6 62  2  0  0  0  0
  7 67  1  0  0  0  0
  7 89  1  0  0  0  0
  8 75  1  0  0  0  0
  8 96  1  0  0  0  0
  9 74  2  0  0  0  0
 10 82  1  0  0  0  0
 10187  1  0  0  0  0
 11 84  1  0  0  0  0
 11196  1  0  0  0  0
 12 84  2  0  0  0  0
 13 92  2  0  0  0  0
 14 93  2  0  0  0  0
 15 97  2  0  0  0  0
 16106  2  0  0  0  0
 17109  1  0  0  0  0
 17112  1  0  0  0  0
 18108  2  0  0  0  0
 19113  1  0  0  0  0
 19114  1  0  0  0  0
 20 38  1  0  0  0  0
 20 41  1  0  0  0  0
 20 44  1  0  0  0  0
 21 43  1  0  0  0  0
 21 47  1  0  0  0  0
 21 48  1  0  0  0  0
 22 42  1  0  0  0  0
 22 54  1  0  0  0  0
 22133  1  0  0  0  0
 23 49  1  0  0  0  0
 53 23  1  1  0  0  0
 23136  1  0  0  0  0
 50 24  1  1  0  0  0
 24 57  1  0  0  0  0
 24140  1  0  0  0  0
 55 25  1  6  0  0  0
 25 74  1  0  0  0  0
 25151  1  0  0  0  0
 26 62  1  0  0  0  0
 72 26  1  6  0  0  0
 26158  1  0  0  0  0
 27 70  1  0  0  0  0
 27 91  2  0  0  0  0
 80 28  1  1  0  0  0
 28 92  1  0  0  0  0
 28180  1  0  0  0  0
 29 93  1  0  0  0  0
 29 97  1  0  0  0  0
 29 98  1  0  0  0  0
 30 87  1  0  0  0  0
 30102  1  0  0  0  0
 30189  1  0  0  0  0
 31 95  1  0  0  0  0
 31102  2  0  0  0  0
 32 91  1  0  0  0  0
 32204  1  0  0  0  0
 32205  1  0  0  0  0
 33 91  1  0  0  0  0
 33206  1  0  0  0  0
 33207  1  0  0  0  0
 94 34  1  6  0  0  0
 34106  1  0  0  0  0
 34208  1  0  0  0  0
 35104  1  0  0  0  0
 35110  1  0  0  0  0
 35213  1  0  0  0  0
 36107  1  0  0  0  0
 36110  2  0  0  0  0
 37108  1  0  0  0  0
 37111  1  0  0  0  0
 37218  1  0  0  0  0
 38 39  1  0  0  0  0
 38 42  1  1  0  0  0
 38115  1  0  0  0  0
 39 40  1  0  0  0  0
 39116  1  0  0  0  0
 39117  1  0  0  0  0
 40 41  1  0  0  0  0
 40118  1  0  0  0  0
 40119  1  0  0  0  0
 41120  1  0  0  0  0
 41121  1  0  0  0  0
 42122  1  0  0  0  0
 42123  1  0  0  0  0
 43 45  1  0  0  0  0
 43 49  1  1  0  0  0
 43124  1  0  0  0  0
 44 51  1  0  0  0  0
 44125  1  0  0  0  0
 44126  1  0  0  0  0
 45 46  1  0  0  0  0
 45127  1  0  0  0  0
 45128  1  0  0  0  0
 46 47  1  0  0  0  0
 46129  1  0  0  0  0
 46130  1  0  0  0  0
 47131  1  0  0  0  0
 47132  1  0  0  0  0
 48 50  1  0  0  0  0
 50 52  1  0  0  0  0
 50134  1  0  0  0  0
 51 60  2  0  0  0  0
 51135  1  0  0  0  0
 52 59  1  0  0  0  0
 52137  1  0  0  0  0
 52138  1  0  0  0  0
 53 56  1  0  0  0  0
 53 62  1  0  0  0  0
 53139  1  0  0  0  0
 54 61  1  0  0  0  0
 55 57  1  0  0  0  0
 55 58  1  0  0  0  0
 55141  1  0  0  0  0
 56 63  1  0  0  0  0
 56142  1  0  0  0  0
 56143  1  0  0  0  0
 58 64  1  0  0  0  0
 58 65  1  1  0  0  0
 58144  1  0  0  0  0
 59 68  2  0  0  0  0
 59 69  1  0  0  0  0
 60145  1  0  0  0  0
 60146  1  0  0  0  0
 61 66  1  0  0  0  0
 61 67  2  0  0  0  0
 63 70  1  0  0  0  0
 63147  1  0  0  0  0
 63148  1  0  0  0  0
 64 73  1  0  0  0  0
 64149  1  0  0  0  0
 64150  1  0  0  0  0
 65152  1  0  0  0  0
 65153  1  0  0  0  0
 65154  1  0  0  0  0
 66 71  2  0  0  0  0
 66155  1  0  0  0  0
 67 75  1  0  0  0  0
 68 76  1  0  0  0  0
 68156  1  0  0  0  0
 69 77  2  0  0  0  0
 69157  1  0  0  0  0
 70159  1  0  0  0  0
 70160  1  0  0  0  0
 71 78  1  0  0  0  0
 71 79  1  0  0  0  0
 72 81  1  0  0  0  0
 72 84  1  0  0  0  0
 72161  1  0  0  0  0
 73162  1  0  0  0  0
 73163  1  0  0  0  0
 73164  1  0  0  0  0
 74 80  1  0  0  0  0
 75 79  2  0  0  0  0
 76 82  2  0  0  0  0
 76165  1  0  0  0  0
 77 82  1  0  0  0  0
 77166  1  0  0  0  0
 78 83  1  0  0  0  0
 78167  1  0  0  0  0
 78168  1  0  0  0  0
 79169  1  0  0  0  0
 80 85  1  0  0  0  0
 80170  1  0  0  0  0
 81 87  1  0  0  0  0
 81171  1  0  0  0  0
 81172  1  0  0  0  0
 83 86  1  0  0  0  0
 83173  1  0  0  0  0
 83174  1  0  0  0  0
 85175  1  0  0  0  0
 85176  1  0  0  0  0
 85177  1  0  0  0  0
 86178  1  0  0  0  0
 86179  1  0  0  0  0
 87 95  2  0  0  0  0
 88 90  1  0  0  0  0
 88 93  1  0  0  0  0
 88181  1  0  0  0  0
 89182  1  0  0  0  0
 89183  1  0  0  0  0
 89184  1  0  0  0  0
 90 97  1  0  0  0  0
 90185  1  0  0  0  0
 90186  1  0  0  0  0
 92 94  1  0  0  0  0
 94100  1  0  0  0  0
 94188  1  0  0  0  0
 95190  1  0  0  0  0
 96193  1  0  0  0  0
 96194  1  0  0  0  0
 96195  1  0  0  0  0
 98 99  1  0  0  0  0
 98191  1  0  0  0  0
 98192  1  0  0  0  0
 99101  1  0  0  0  0
 99197  1  0  0  0  0
 99198  1  0  0  0  0
100104  1  0  0  0  0
100199  1  0  0  0  0
100200  1  0  0  0  0
101103  1  0  0  0  0
101201  1  0  0  0  0
101202  1  0  0  0  0
102203  1  0  0  0  0
103105  1  0  0  0  0
103209  1  0  0  0  0
103210  1  0  0  0  0
104107  2  0  0  0  0
105108  1  0  0  0  0
105211  1  0  0  0  0
105212  1  0  0  0  0
106109  1  0  0  0  0
107214  1  0  0  0  0
109215  1  0  0  0  0
109216  1  0  0  0  0
110217  1  0  0  0  0
111113  1  0  0  0  0
111219  1  0  0  0  0
111220  1  0  0  0  0
112114  1  0  0  0  0
112221  1  0  0  0  0
112222  1  0  0  0  0
113223  1  0  0  0  0
113224  1  0  0  0  0
114225  1  0  0  0  0
114226  1  0  0  0  0
M  END
> <PUBCHEM_COMPOUND_CID>
90656844

> <PUBCHEM_COMPOUND_CANONICALIZED>
1

> <PUBCHEM_CACTVS_COMPLEXITY>
3170

> <PUBCHEM_CACTVS_HBOND_ACCEPTOR>
23

> <PUBCHEM_CACTVS_HBOND_DONOR>
14

> <PUBCHEM_CACTVS_ROTATABLE_BOND>
51

> <PUBCHEM_CACTVS_SUBSKEYS>
AAADcfB//gBAAAAAAAAAAAAAAAAAAWLFixYwYAAAAAAAAAAB9AAAHgQQCAAADSzl3ga/npfJlgioAzX3fAKCiC21MrAJ2YH+/MiPbjbm/T+XcWpu9jP6+ae/2fKOIAADAAAIQABAAAYAABCAAAAAAAAAAA==

> <PUBCHEM_IUPAC_OPENEYE_NAME>
(2S)-2-[[(2S)-2-[[(2S)-1-[(2S)-2-[[(2S,3S)-2-[[(2S)-2-[[(2S)-2-[[2-[2-[2-[6-[3-[3-[3-[[(2S)-1-allylpyrrolidin-2-yl]methylcarbamoyl]-4,5-dimethoxy-phenyl]propylsulfanyl]-2,5-dioxo-pyrrolidin-1-yl]hexanoylamino]ethoxy]ethoxy]acetyl]amino]-3-(1H-imidazol-5-yl)propanoyl]amino]propanoyl]amino]-3-methyl-pentanoyl]amino]-3-(4-hydroxyphenyl)propanoyl]pyrrolidine-2-carbonyl]amino]-5-guanidino-pentanoyl]amino]-3-(1H-imidazol-5-yl)propanoic acid

> <PUBCHEM_IUPAC_CAS_NAME>
(2S)-2-[[(2S)-5-(diaminomethylideneamino)-2-[[[(2S)-1-[(2S)-2-[[(2S,3S)-2-[[(2S)-2-[[(2S)-2-[[2-[2-[2-[[6-[3-[3-[3,4-dimethoxy-5-[oxo-[[(2S)-1-prop-2-enyl-2-pyrrolidinyl]methylamino]methyl]phenyl]propylthio]-2,5-dioxo-1-pyrrolidinyl]-1-oxohexyl]amino]ethoxy]ethoxy]-1-oxoethyl]amino]-3-(1H-imidazol-5-yl)-1-oxopropyl]amino]-1-oxopropyl]amino]-3-methyl-1-oxopentyl]amino]-3-(4-hydroxyphenyl)-1-oxopropyl]-2-pyrrolidinyl]-oxomethyl]amino]-1-oxopentyl]amino]-3-(1H-imidazol-5-yl)propanoic acid

> <PUBCHEM_IUPAC_NAME_MARKUP>
(2<I>S</I>)-2-[[(2<I>S</I>)-5-(diaminomethylideneamino)-2-[[(2<I>S</I>)-1-[(2<I>S</I>)-2-[[(2<I>S</I>,3<I>S</I>)-2-[[(2<I>S</I>)-2-[[(2<I>S</I>)-2-[[2-[2-[2-[6-[3-[3-[3,4-dimethoxy-5-[[(2<I>S</I>)-1-prop-2-enylpyrrolidin-2-yl]methylcarbamoyl]phenyl]propylsulfanyl]-2,5-dioxopyrrolidin-1-yl]hexanoylamino]ethoxy]ethoxy]acetyl]amino]-3-(1<I>H</I>-imidazol-5-yl)propanoyl]amino]propanoyl]amino]-3-methylpentanoyl]amino]-3-(4-hydroxyphenyl)propanoyl]pyrrolidine-2-carbonyl]amino]pentanoyl]amino]-3-(1<I>H</I>-imidazol-5-yl)propanoic acid

> <PUBCHEM_IUPAC_NAME>
(2S)-2-[[(2S)-5-(diaminomethylideneamino)-2-[[(2S)-1-[(2S)-2-[[(2S,3S)-2-[[(2S)-2-[[(2S)-2-[[2-[2-[2-[6-[3-[3-[3,4-dimethoxy-5-[[(2S)-1-prop-2-enylpyrrolidin-2-yl]methylcarbamoyl]phenyl]propylsulfanyl]-2,5-dioxopyrrolidin-1-yl]hexanoylamino]ethoxy]ethoxy]acetyl]amino]-3-(1H-imidazol-5-yl)propanoyl]amino]propanoyl]amino]-3-methylpentanoyl]amino]-3-(4-hydroxyphenyl)propanoyl]pyrrolidine-2-carbonyl]amino]pentanoyl]amino]-3-(1H-imidazol-5-yl)propanoic acid

> <PUBCHEM_IUPAC_SYSTEMATIC_NAME>
(2S)-2-[[(2S)-5-[bis(azanyl)methylideneamino]-2-[[(2S)-1-[(2S)-2-[[(2S,3S)-2-[[(2S)-2-[[(2S)-2-[2-[2-[2-[6-[3-[3-[3,4-dimethoxy-5-[[(2S)-1-prop-2-enylpyrrolidin-2-yl]methylcarbamoyl]phenyl]propylsulfanyl]-2,5-bis(oxidanylidene)pyrrolidin-1-yl]hexanoylamino]ethoxy]ethoxy]ethanoylamino]-3-(1H-imidazol-5-yl)propanoyl]amino]propanoyl]amino]-3-methyl-pentanoyl]amino]-3-(4-hydroxyphenyl)propanoyl]pyrrolidin-2-yl]carbonylamino]pentanoyl]amino]-3-(1H-imidazol-5-yl)propanoic acid

> <PUBCHEM_IUPAC_TRADITIONAL_NAME>
(2S)-2-[[(2S)-2-[[(2S)-1-[(2S)-2-[[(2S,3S)-2-[[(2S)-2-[[(2S)-2-[[2-[2-[2-[6-[3-[3-[3-[[(2S)-1-allylpyrrolidin-2-yl]methylcarbamoyl]-4,5-dimethoxy-phenyl]propylthio]-2,5-diketo-pyrrolidino]hexanoylamino]ethoxy]ethoxy]acetyl]amino]-3-(1H-imidazol-5-yl)propanoyl]amino]propanoyl]amino]-3-methyl-pentanoyl]amino]-3-(4-hydroxyphenyl)propanoyl]prolyl]amino]-5-guanidino-pentanoyl]amino]-3-(1H-imidazol-5-yl)propionic acid

> <PUBCHEM_IUPAC_INCHI>
InChI=1S/C77H112N18O18S/c1-7-27-93-28-13-17-53(93)43-84-69(101)55-35-50(37-61(110-5)67(55)111-6)16-15-34-114-62-40-65(99)95(75(62)107)29-11-9-10-20-63(97)82-26-31-112-32-33-113-44-64(98)88-57(38-51-41-80-45-85-51)71(103)87-48(4)68(100)92-66(47(3)8-2)73(105)90-58(36-49-21-23-54(96)24-22-49)74(106)94-30-14-19-60(94)72(104)89-56(18-12-25-83-77(78)79)70(102)91-59(76(108)109)39-52-42-81-46-86-52/h7,21-24,35,37,41-42,45-48,53,56-60,62,66,96H,1,8-20,25-34,36,38-40,43-44H2,2-6H3,(H,80,85)(H,81,86)(H,82,97)(H,84,101)(H,87,103)(H,88,98)(H,89,104)(H,90,105)(H,91,102)(H,92,100)(H,108,109)(H4,78,79,83)/t47-,48-,53-,56-,57-,58-,59-,60-,62?,66-/m0/s1

> <PUBCHEM_IUPAC_INCHIKEY>
HZFJQBUUXZYDBD-LGIDIJRNSA-N

> <PUBCHEM_XLOGP3_AA>
-0.5

> <PUBCHEM_EXACT_MASS>
1608.81226997

> <PUBCHEM_MOLECULAR_FORMULA>
C77H112N18O18S

> <PUBCHEM_MOLECULAR_WEIGHT>
1609.9

> <PUBCHEM_OPENEYE_CAN_SMILES>
CCC(C)C(C(=O)NC(CC1=CC=C(C=C1)O)C(=O)N2CCCC2C(=O)NC(CCCN=C(N)N)C(=O)NC(CC3=CN=CN3)C(=O)O)NC(=O)C(C)NC(=O)C(CC4=CN=CN4)NC(=O)COCCOCCNC(=O)CCCCCN5C(=O)CC(C5=O)SCCCC6=CC(=C(C(=C6)OC)OC)C(=O)NCC7CCCN7CC=C

> <PUBCHEM_OPENEYE_ISO_SMILES>
CC[C@H](C)[C@@H](C(=O)N[C@@H](CC1=CC=C(C=C1)O)C(=O)N2CCC[C@H]2C(=O)N[C@@H](CCCN=C(N)N)C(=O)N[C@@H](CC3=CN=CN3)C(=O)O)NC(=O)[C@H](C)NC(=O)[C@H](CC4=CN=CN4)NC(=O)COCCOCCNC(=O)CCCCCN5C(=O)CC(C5=O)SCCCC6=CC(=C(C(=C6)OC)OC)C(=O)NC[C@@H]7CCCN7CC=C

> <PUBCHEM_CACTVS_TPSA>
535

> <PUBCHEM_MONOISOTOPIC_WEIGHT>
1608.81226997

> <PUBCHEM_TOTAL_CHARGE>
0

> <PUBCHEM_HEAVY_ATOM_COUNT>
114

> <PUBCHEM_ATOM_DEF_STEREO_COUNT>
9

> <PUBCHEM_ATOM_UDEF_STEREO_COUNT>
1

> <PUBCHEM_BOND_DEF_STEREO_COUNT>
0

> <PUBCHEM_BOND_UDEF_STEREO_COUNT>
0

> <PUBCHEM_ISOTOPIC_ATOM_COUNT>
0

> <PUBCHEM_COMPONENT_COUNT>
1

> <PUBCHEM_CACTVS_TAUTO_COUNT>
-1

> <PUBCHEM_COORDINATE_TYPE>
1
5
255

> <PUBCHEM_BONDANNOTATIONS>
88  1  3
104  107  8
53  23  5
50  24  5
55  25  6
72  26  6
80  28  5
30  102  8
30  87  8
31  102  8
31  95  8
94  34  6
35  104  8
35  110  8
36  107  8
36  110  8
38  42  5
43  49  5
58  65  5
59  68  8
59  69  8
61  66  8
61  67  8
66  71  8
67  75  8
68  76  8
69  77  8
71  79  8
75  79  8
76  82  8
77  82  8
87  95  8

$$$$
