136072266
  -OEChem-09292322212D

 60 62  0     0  0  0  0  0  0999 V2000
    6.9985    0.0000    0.0000 Br  0  0  0  0  0  0  0  0  0  0  0  0
    3.2018    8.1368    0.0000 O   0  0  0  0  0  0  0  0  0  0  0  0
   10.1300    6.1368    0.0000 N   0  0  0  0  0  0  0  0  0  0  0  0
   11.8620    5.1368    0.0000 N   0  0  0  0  0  0  0  0  0  0  0  0
    4.9338    6.1368    0.0000 N   0  0  0  0  0  0  0  0  0  0  0  0
    3.2018    6.1368    0.0000 N   0  0  0  0  0  0  0  0  0  0  0  0
   10.1300    5.1368    0.0000 C   0  0  0  0  0  0  0  0  0  0  0  0
   10.9960    6.6368    0.0000 C   0  0  0  0  0  0  0  0  0  0  0  0
   10.9960    4.6368    0.0000 C   0  0  0  0  0  0  0  0  0  0  0  0
   11.8620    6.1368    0.0000 C   0  0  0  0  0  0  0  0  0  0  0  0
    9.2640    6.6368    0.0000 C   0  0  0  0  0  0  0  0  0  0  0  0
    8.3979    6.1368    0.0000 C   0  0  0  0  0  0  0  0  0  0  0  0
    7.5319    6.6368    0.0000 C   0  0  0  0  0  0  0  0  0  0  0  0
   12.7281    4.6368    0.0000 C   0  0  0  0  0  0  0  0  0  0  0  0
    6.6659    6.1368    0.0000 C   0  0  0  0  0  0  0  0  0  0  0  0
    5.7998    6.6368    0.0000 C   0  0  0  0  0  0  0  0  0  0  0  0
   13.5941    5.1368    0.0000 C   0  0  0  0  0  0  0  0  0  0  0  0
   12.7281    3.6368    0.0000 C   0  0  0  0  0  0  0  0  0  0  0  0
   14.4601    4.6368    0.0000 C   0  0  0  0  0  0  0  0  0  0  0  0
   13.5941    3.1368    0.0000 C   0  0  0  0  0  0  0  0  0  0  0  0
   14.4601    3.6368    0.0000 C   0  0  0  0  0  0  0  0  0  0  0  0
    4.0678    6.6368    0.0000 C   0  0  0  0  0  0  0  0  0  0  0  0
    4.0678    7.6368    0.0000 C   0  0  0  0  0  0  0  0  0  0  0  0
    2.3358    6.6368    0.0000 C   0  0  0  0  0  0  0  0  0  0  0  0
    2.3358    7.6368    0.0000 C   0  0  0  0  0  0  0  0  0  0  0  0
    1.4418    6.1021    0.0000 C   0  0  0  0  0  0  0  0  0  0  0  0
    1.4418    8.1714    0.0000 C   0  0  0  0  0  0  0  0  0  0  0  0
    0.5357    6.6160    0.0000 C   0  0  0  0  0  0  0  0  0  0  0  0
    0.5357    7.6576    0.0000 C   0  0  0  0  0  0  0  0  0  0  0  0
    9.5194    5.2444    0.0000 H   0  0  0  0  0  0  0  0  0  0  0  0
    9.9179    4.5542    0.0000 H   0  0  0  0  0  0  0  0  0  0  0  0
   11.3945    7.1117    0.0000 H   0  0  0  0  0  0  0  0  0  0  0  0
   10.5975    7.1117    0.0000 H   0  0  0  0  0  0  0  0  0  0  0  0
   10.5975    4.1618    0.0000 H   0  0  0  0  0  0  0  0  0  0  0  0
   11.3945    4.1618    0.0000 H   0  0  0  0  0  0  0  0  0  0  0  0
   12.4726    6.0291    0.0000 H   0  0  0  0  0  0  0  0  0  0  0  0
   12.0741    6.7194    0.0000 H   0  0  0  0  0  0  0  0  0  0  0  0
    9.6625    7.1117    0.0000 H   0  0  0  0  0  0  0  0  0  0  0  0
    8.8654    7.1117    0.0000 H   0  0  0  0  0  0  0  0  0  0  0  0
    7.9994    5.6618    0.0000 H   0  0  0  0  0  0  0  0  0  0  0  0
    8.7964    5.6618    0.0000 H   0  0  0  0  0  0  0  0  0  0  0  0
    7.9304    7.1117    0.0000 H   0  0  0  0  0  0  0  0  0  0  0  0
    7.1334    7.1117    0.0000 H   0  0  0  0  0  0  0  0  0  0  0  0
    6.2673    5.6618    0.0000 H   0  0  0  0  0  0  0  0  0  0  0  0
    7.0644    5.6618    0.0000 H   0  0  0  0  0  0  0  0  0  0  0  0
    6.1984    7.1117    0.0000 H   0  0  0  0  0  0  0  0  0  0  0  0
    5.4013    7.1117    0.0000 H   0  0  0  0  0  0  0  0  0  0  0  0
   13.5941    5.7568    0.0000 H   0  0  0  0  0  0  0  0  0  0  0  0
   12.1911    3.3268    0.0000 H   0  0  0  0  0  0  0  0  0  0  0  0
   14.9970    4.9468    0.0000 H   0  0  0  0  0  0  0  0  0  0  0  0
   13.5941    2.5168    0.0000 H   0  0  0  0  0  0  0  0  0  0  0  0
   14.9970    3.3268    0.0000 H   0  0  0  0  0  0  0  0  0  0  0  0
    4.6784    7.5291    0.0000 H   0  0  0  0  0  0  0  0  0  0  0  0
    4.2798    8.2194    0.0000 H   0  0  0  0  0  0  0  0  0  0  0  0
    3.2018    5.5168    0.0000 H   0  0  0  0  0  0  0  0  0  0  0  0
    1.4490    5.4822    0.0000 H   0  0  0  0  0  0  0  0  0  0  0  0
    1.4490    8.7914    0.0000 H   0  0  0  0  0  0  0  0  0  0  0  0
    0.0000    6.3039    0.0000 H   0  0  0  0  0  0  0  0  0  0  0  0
    0.0000    7.9697    0.0000 H   0  0  0  0  0  0  0  0  0  0  0  0
    7.9985    0.0000    0.0000 H   0  0  0  0  0  0  0  0  0  0  0  0
  1 60  1  0  0  0  0
  2 23  1  0  0  0  0
  2 25  1  0  0  0  0
  3  7  1  0  0  0  0
  3  8  1  0  0  0  0
  3 11  1  0  0  0  0
  4  9  1  0  0  0  0
  4 10  1  0  0  0  0
  4 14  1  0  0  0  0
  5 16  1  0  0  0  0
  5 22  2  0  0  0  0
  6 22  1  0  0  0  0
  6 24  1  0  0  0  0
  6 55  1  0  0  0  0
  7  9  1  0  0  0  0
  7 30  1  0  0  0  0
  7 31  1  0  0  0  0
  8 10  1  0  0  0  0
  8 32  1  0  0  0  0
  8 33  1  0  0  0  0
  9 34  1  0  0  0  0
  9 35  1  0  0  0  0
 10 36  1  0  0  0  0
 10 37  1  0  0  0  0
 11 12  1  0  0  0  0
 11 38  1  0  0  0  0
 11 39  1  0  0  0  0
 12 13  1  0  0  0  0
 12 40  1  0  0  0  0
 12 41  1  0  0  0  0
 13 15  1  0  0  0  0
 13 42  1  0  0  0  0
 13 43  1  0  0  0  0
 14 17  2  0  0  0  0
 14 18  1  0  0  0  0
 15 16  1  0  0  0  0
 15 44  1  0  0  0  0
 15 45  1  0  0  0  0
 16 46  1  0  0  0  0
 16 47  1  0  0  0  0
 17 19  1  0  0  0  0
 17 48  1  0  0  0  0
 18 20  2  0  0  0  0
 18 49  1  0  0  0  0
 19 21  2  0  0  0  0
 19 50  1  0  0  0  0
 20 21  1  0  0  0  0
 20 51  1  0  0  0  0
 21 52  1  0  0  0  0
 22 23  1  0  0  0  0
 23 53  1  0  0  0  0
 23 54  1  0  0  0  0
 24 25  1  0  0  0  0
 24 26  2  0  0  0  0
 25 27  2  0  0  0  0
 26 28  1  0  0  0  0
 26 56  1  0  0  0  0
 27 29  1  0  0  0  0
 27 57  1  0  0  0  0
 28 29  2  0  0  0  0
 28 58  1  0  0  0  0
 29 59  1  0  0  0  0
M  END
> <PUBCHEM_COMPOUND_CID>
136072266

> <PUBCHEM_COMPOUND_CANONICALIZED>
1

> <PUBCHEM_CACTVS_COMPLEXITY>
483

> <PUBCHEM_CACTVS_HBOND_ACCEPTOR>
4

> <PUBCHEM_CACTVS_HBOND_DONOR>
2

> <PUBCHEM_CACTVS_ROTATABLE_BOND>
7

> <PUBCHEM_CACTVS_SUBSKEYS>
AAADceB7oAAAEAAAAAAAAAAAAAAAAAAAAAA8eIEAAAAAAACxQAAAHgAQAAAACAzhkAYxxoPABACgACZiZASCCAEhIgAJiAAfbIgOZiLEuZuXOCjk0BHY6AeQQAAAAAAAAAAAEAAAAAAAAAAgAAAAAAAAAA==

> <PUBCHEM_IUPAC_OPENEYE_NAME>
N-[5-(4-phenylpiperazin-1-yl)pentyl]-4H-1,4-benzoxazin-3-imine;hydrobromide

> <PUBCHEM_IUPAC_CAS_NAME>
N-[5-(4-phenyl-1-piperazinyl)pentyl]-4H-1,4-benzoxazin-3-imine;hydrobromide

> <PUBCHEM_IUPAC_NAME_MARKUP>
<I>N</I>-[5-(4-phenylpiperazin-1-yl)pentyl]-4<I>H</I>-1,4-benzoxazin-3-imine;hydrobromide

> <PUBCHEM_IUPAC_NAME>
N-[5-(4-phenylpiperazin-1-yl)pentyl]-4H-1,4-benzoxazin-3-imine;hydrobromide

> <PUBCHEM_IUPAC_SYSTEMATIC_NAME>
N-[5-(4-phenylpiperazin-1-yl)pentyl]-4H-1,4-benzoxazin-3-imine;hydrobromide

> <PUBCHEM_IUPAC_TRADITIONAL_NAME>
4H-1,4-benzoxazin-3-ylidene-[5-(4-phenylpiperazino)pentyl]amine;hydrobromide

> <PUBCHEM_IUPAC_INCHI>
InChI=1S/C23H30N4O.BrH/c1-3-9-20(10-4-1)27-17-15-26(16-18-27)14-8-2-7-13-24-23-19-28-22-12-6-5-11-21(22)25-23;/h1,3-6,9-12H,2,7-8,13-19H2,(H,24,25);1H

> <PUBCHEM_IUPAC_INCHIKEY>
UEITZSRVSGIJGE-UHFFFAOYSA-N

> <PUBCHEM_EXACT_MASS>
458.16812

> <PUBCHEM_MOLECULAR_FORMULA>
C23H31BrN4O

> <PUBCHEM_MOLECULAR_WEIGHT>
459.4

> <PUBCHEM_OPENEYE_CAN_SMILES>
C1CN(CCN1CCCCCN=C2COC3=CC=CC=C3N2)C4=CC=CC=C4.Br

> <PUBCHEM_OPENEYE_ISO_SMILES>
C1CN(CCN1CCCCCN=C2COC3=CC=CC=C3N2)C4=CC=CC=C4.Br

> <PUBCHEM_CACTVS_TPSA>
40.1

> <PUBCHEM_MONOISOTOPIC_WEIGHT>
458.16812

> <PUBCHEM_TOTAL_CHARGE>
0

> <PUBCHEM_HEAVY_ATOM_COUNT>
29

> <PUBCHEM_ATOM_DEF_STEREO_COUNT>
0

> <PUBCHEM_ATOM_UDEF_STEREO_COUNT>
0

> <PUBCHEM_BOND_DEF_STEREO_COUNT>
0

> <PUBCHEM_BOND_UDEF_STEREO_COUNT>
0

> <PUBCHEM_ISOTOPIC_ATOM_COUNT>
0

> <PUBCHEM_COMPONENT_COUNT>
2

> <PUBCHEM_CACTVS_TAUTO_COUNT>
-1

> <PUBCHEM_COORDINATE_TYPE>
1
5
255

> <PUBCHEM_BONDANNOTATIONS>
14  17  8
14  18  8
17  19  8
18  20  8
19  21  8
20  21  8
24  25  8
24  26  8
25  27  8
26  28  8
27  29  8
28  29  8

$$$$
