51355425
  -OEChem-09292322312D

 88 89  0     0  0  0  0  0  0999 V2000
    5.6720    2.1200    0.0000 F   0  0  0  0  0  0  0  0  0  0  0  0
   16.9303   20.6200    0.0000 F   0  0  0  0  0  0  0  0  0  0  0  0
    8.2700    2.6200    0.0000 O   0  0  0  0  0  0  0  0  0  0  0  0
   13.4662    9.6200    0.0000 O   0  0  0  0  0  0  0  0  0  0  0  0
   12.6002   14.1200    0.0000 O   0  0  0  0  0  0  0  0  0  0  0  0
   14.3322   16.1200    0.0000 O   0  0  0  0  0  0  0  0  0  0  0  0
   15.1982   18.6200    0.0000 O   0  0  0  0  0  0  0  0  0  0  0  0
    3.1350   10.1013    0.0000 O   0  0  0  0  0  0  0  0  0  0  0  0
    0.5369   10.6013    0.0000 O   0  0  0  0  0  0  0  0  0  0  0  0
    2.2690   11.6013    0.0000 O   0  0  0  0  0  0  0  0  0  0  0  0
    1.4030    9.1013    0.0000 O   0  0  0  0  0  0  0  0  0  0  0  0
   10.0021    5.6200    0.0000 N   0  0  0  0  0  0  0  0  0  0  0  0
   10.0021    3.6200    0.0000 N   0  0  0  0  0  0  0  0  0  0  0  0
   11.7341    9.6200    0.0000 N   0  0  0  0  0  0  0  0  0  0  0  0
   10.8681    5.1200    0.0000 C   0  0  0  0  0  0  0  0  0  0  0  0
    9.1360    5.1200    0.0000 C   0  0  0  0  0  0  0  0  0  0  0  0
   10.8681    4.1200    0.0000 C   0  0  0  0  0  0  0  0  0  0  0  0
    9.1360    4.1200    0.0000 C   0  0  0  0  0  0  0  0  0  0  0  0
   10.0021    6.6200    0.0000 C   0  0  0  0  0  0  0  0  0  0  0  0
   10.8681    7.1200    0.0000 C   0  0  0  0  0  0  0  0  0  0  0  0
   10.0021    2.6200    0.0000 C   0  0  0  0  0  0  0  0  0  0  0  0
   10.8681    8.1200    0.0000 C   0  0  0  0  0  0  0  0  0  0  0  0
    9.1360    2.1200    0.0000 C   0  0  0  0  0  0  0  0  0  0  0  0
   11.7341    8.6200    0.0000 C   0  0  0  0  0  0  0  0  0  0  0  0
   10.8681    2.1200    0.0000 C   0  0  0  0  0  0  0  0  0  0  0  0
    9.1360    1.1200    0.0000 C   0  0  0  0  0  0  0  0  0  0  0  0
   10.8681    1.1200    0.0000 C   0  0  0  0  0  0  0  0  0  0  0  0
   10.0021    0.6200    0.0000 C   0  0  0  0  0  0  0  0  0  0  0  0
    7.4040    2.1200    0.0000 C   0  0  0  0  0  0  0  0  0  0  0  0
   12.6002   10.1200    0.0000 C   0  0  0  0  0  0  0  0  0  0  0  0
   12.6002   11.1200    0.0000 C   0  0  0  0  0  0  0  0  0  0  0  0
    6.5380    2.6200    0.0000 C   0  0  0  0  0  0  0  0  0  0  0  0
   13.4662   11.6200    0.0000 C   0  0  0  0  0  0  0  0  0  0  0  0
   11.7341   11.6200    0.0000 C   0  0  0  0  0  0  0  0  0  0  0  0
   13.4662   12.6200    0.0000 C   0  0  0  0  0  0  0  0  0  0  0  0
   11.7341   12.6200    0.0000 C   0  0  0  0  0  0  0  0  0  0  0  0
   12.6002   13.1200    0.0000 C   0  0  0  0  0  0  0  0  0  0  0  0
   13.4662   14.6200    0.0000 C   0  0  0  0  0  0  0  0  0  0  0  0
   13.4662   15.6200    0.0000 C   0  0  0  0  0  0  0  0  0  0  0  0
   14.3322   17.1200    0.0000 C   0  0  0  0  0  0  0  0  0  0  0  0
   15.1982   17.6200    0.0000 C   0  0  0  0  0  0  0  0  0  0  0  0
   16.0643   19.1200    0.0000 C   0  0  0  0  0  0  0  0  0  0  0  0
   16.0643   20.1200    0.0000 C   0  0  0  0  0  0  0  0  0  0  0  0
    2.2690   10.6013    0.0000 C   0  0  0  0  0  0  0  0  0  0  0  0
    1.4030   10.1013    0.0000 C   0  0  0  0  0  0  0  0  0  0  0  0
   11.4787    5.0123    0.0000 H   0  0  0  0  0  0  0  0  0  0  0  0
   11.0802    5.7026    0.0000 H   0  0  0  0  0  0  0  0  0  0  0  0
    8.9240    5.7026    0.0000 H   0  0  0  0  0  0  0  0  0  0  0  0
    8.5255    5.0123    0.0000 H   0  0  0  0  0  0  0  0  0  0  0  0
   11.0802    3.5374    0.0000 H   0  0  0  0  0  0  0  0  0  0  0  0
   11.4787    4.2277    0.0000 H   0  0  0  0  0  0  0  0  0  0  0  0
    8.5255    4.2277    0.0000 H   0  0  0  0  0  0  0  0  0  0  0  0
    8.9240    3.5374    0.0000 H   0  0  0  0  0  0  0  0  0  0  0  0
    9.7900    7.2026    0.0000 H   0  0  0  0  0  0  0  0  0  0  0  0
    9.3915    6.5123    0.0000 H   0  0  0  0  0  0  0  0  0  0  0  0
   11.0802    6.5374    0.0000 H   0  0  0  0  0  0  0  0  0  0  0  0
   11.4787    7.2277    0.0000 H   0  0  0  0  0  0  0  0  0  0  0  0
   10.6560    8.7026    0.0000 H   0  0  0  0  0  0  0  0  0  0  0  0
   10.2575    8.0123    0.0000 H   0  0  0  0  0  0  0  0  0  0  0  0
   11.9462    8.0374    0.0000 H   0  0  0  0  0  0  0  0  0  0  0  0
   12.3447    8.7277    0.0000 H   0  0  0  0  0  0  0  0  0  0  0  0
   11.4050    2.4300    0.0000 H   0  0  0  0  0  0  0  0  0  0  0  0
    8.5991    0.8100    0.0000 H   0  0  0  0  0  0  0  0  0  0  0  0
   11.4050    0.8100    0.0000 H   0  0  0  0  0  0  0  0  0  0  0  0
   11.1972    9.9300    0.0000 H   0  0  0  0  0  0  0  0  0  0  0  0
   10.0021    0.0000    0.0000 H   0  0  0  0  0  0  0  0  0  0  0  0
    7.0055    1.6450    0.0000 H   0  0  0  0  0  0  0  0  0  0  0  0
    7.8025    1.6450    0.0000 H   0  0  0  0  0  0  0  0  0  0  0  0
    6.9365    3.0950    0.0000 H   0  0  0  0  0  0  0  0  0  0  0  0
    6.1394    3.0950    0.0000 H   0  0  0  0  0  0  0  0  0  0  0  0
   14.0031   11.3100    0.0000 H   0  0  0  0  0  0  0  0  0  0  0  0
   11.1972   11.3100    0.0000 H   0  0  0  0  0  0  0  0  0  0  0  0
   14.0031   12.9300    0.0000 H   0  0  0  0  0  0  0  0  0  0  0  0
   11.1972   12.9300    0.0000 H   0  0  0  0  0  0  0  0  0  0  0  0
   13.6782   14.0374    0.0000 H   0  0  0  0  0  0  0  0  0  0  0  0
   14.0768   14.7277    0.0000 H   0  0  0  0  0  0  0  0  0  0  0  0
   13.2541   16.2026    0.0000 H   0  0  0  0  0  0  0  0  0  0  0  0
   12.8556   15.5123    0.0000 H   0  0  0  0  0  0  0  0  0  0  0  0
   14.1202   17.7026    0.0000 H   0  0  0  0  0  0  0  0  0  0  0  0
   13.7216   17.0123    0.0000 H   0  0  0  0  0  0  0  0  0  0  0  0
   15.4103   17.0374    0.0000 H   0  0  0  0  0  0  0  0  0  0  0  0
   15.8088   17.7277    0.0000 H   0  0  0  0  0  0  0  0  0  0  0  0
   16.2763   18.5374    0.0000 H   0  0  0  0  0  0  0  0  0  0  0  0
   16.6748   19.2277    0.0000 H   0  0  0  0  0  0  0  0  0  0  0  0
   15.8522   20.7026    0.0000 H   0  0  0  0  0  0  0  0  0  0  0  0
   15.4537   20.0123    0.0000 H   0  0  0  0  0  0  0  0  0  0  0  0
    3.6720   10.4113    0.0000 H   0  0  0  0  0  0  0  0  0  0  0  0
    0.0000   10.2913    0.0000 H   0  0  0  0  0  0  0  0  0  0  0  0
  1 32  1  0  0  0  0
  2 43  1  0  0  0  0
  3 23  1  0  0  0  0
  3 29  1  0  0  0  0
  4 30  2  0  0  0  0
  5 37  1  0  0  0  0
  5 38  1  0  0  0  0
  6 39  1  0  0  0  0
  6 40  1  0  0  0  0
  7 41  1  0  0  0  0
  7 42  1  0  0  0  0
  8 44  1  0  0  0  0
  8 87  1  0  0  0  0
  9 45  1  0  0  0  0
  9 88  1  0  0  0  0
 10 44  2  0  0  0  0
 11 45  2  0  0  0  0
 12 15  1  0  0  0  0
 12 16  1  0  0  0  0
 12 19  1  0  0  0  0
 13 17  1  0  0  0  0
 13 18  1  0  0  0  0
 13 21  1  0  0  0  0
 14 24  1  0  0  0  0
 14 30  1  0  0  0  0
 14 65  1  0  0  0  0
 15 17  1  0  0  0  0
 15 46  1  0  0  0  0
 15 47  1  0  0  0  0
 16 18  1  0  0  0  0
 16 48  1  0  0  0  0
 16 49  1  0  0  0  0
 17 50  1  0  0  0  0
 17 51  1  0  0  0  0
 18 52  1  0  0  0  0
 18 53  1  0  0  0  0
 19 20  1  0  0  0  0
 19 54  1  0  0  0  0
 19 55  1  0  0  0  0
 20 22  1  0  0  0  0
 20 56  1  0  0  0  0
 20 57  1  0  0  0  0
 21 23  1  0  0  0  0
 21 25  2  0  0  0  0
 22 24  1  0  0  0  0
 22 58  1  0  0  0  0
 22 59  1  0  0  0  0
 23 26  2  0  0  0  0
 24 60  1  0  0  0  0
 24 61  1  0  0  0  0
 25 27  1  0  0  0  0
 25 62  1  0  0  0  0
 26 28  1  0  0  0  0
 26 63  1  0  0  0  0
 27 28  2  0  0  0  0
 27 64  1  0  0  0  0
 28 66  1  0  0  0  0
 29 32  1  0  0  0  0
 29 67  1  0  0  0  0
 29 68  1  0  0  0  0
 30 31  1  0  0  0  0
 31 33  2  0  0  0  0
 31 34  1  0  0  0  0
 32 69  1  0  0  0  0
 32 70  1  0  0  0  0
 33 35  1  0  0  0  0
 33 71  1  0  0  0  0
 34 36  2  0  0  0  0
 34 72  1  0  0  0  0
 35 37  2  0  0  0  0
 35 73  1  0  0  0  0
 36 37  1  0  0  0  0
 36 74  1  0  0  0  0
 38 39  1  0  0  0  0
 38 75  1  0  0  0  0
 38 76  1  0  0  0  0
 39 77  1  0  0  0  0
 39 78  1  0  0  0  0
 40 41  1  0  0  0  0
 40 79  1  0  0  0  0
 40 80  1  0  0  0  0
 41 81  1  0  0  0  0
 41 82  1  0  0  0  0
 42 43  1  0  0  0  0
 42 83  1  0  0  0  0
 42 84  1  0  0  0  0
 43 85  1  0  0  0  0
 43 86  1  0  0  0  0
 44 45  1  0  0  0  0
M  END
> <PUBCHEM_COMPOUND_CID>
51355425

> <PUBCHEM_COMPOUND_CANONICALIZED>
1

> <PUBCHEM_CACTVS_COMPLEXITY>
706

> <PUBCHEM_CACTVS_HBOND_ACCEPTOR>
13

> <PUBCHEM_CACTVS_HBOND_DONOR>
3

> <PUBCHEM_CACTVS_ROTATABLE_BOND>
20

> <PUBCHEM_CACTVS_SUBSKEYS>
AAADcfB7PYAAAAAAAAAAAAAAAAAAAAAAAAA8YIAAAAAAAAABQAAAHwAQCAAADAzhmAYwzoPABgCIAiXSWAKCCAAlIgAIiIFPbMgPZjLEtZuXOSjk1hHb6YeY3ALOIAAAAAAAEABAAAAAAAAgAAAAAAAAAA==

> <PUBCHEM_IUPAC_OPENEYE_NAME>
4-[2-[2-(2-fluoroethoxy)ethoxy]ethoxy]-N-[4-[4-[2-(2-fluoroethoxy)phenyl]piperazin-1-yl]butyl]benzamide;oxalic acid

> <PUBCHEM_IUPAC_CAS_NAME>
4-[2-[2-(2-fluoroethoxy)ethoxy]ethoxy]-N-[4-[4-[2-(2-fluoroethoxy)phenyl]-1-piperazinyl]butyl]benzamide;oxalic acid

> <PUBCHEM_IUPAC_NAME_MARKUP>
4-[2-[2-(2-fluoroethoxy)ethoxy]ethoxy]-<I>N</I>-[4-[4-[2-(2-fluoroethoxy)phenyl]piperazin-1-yl]butyl]benzamide;oxalic acid

> <PUBCHEM_IUPAC_NAME>
4-[2-[2-(2-fluoroethoxy)ethoxy]ethoxy]-N-[4-[4-[2-(2-fluoroethoxy)phenyl]piperazin-1-yl]butyl]benzamide;oxalic acid

> <PUBCHEM_IUPAC_SYSTEMATIC_NAME>
ethanedioic acid;4-[2-[2-(2-fluoranylethoxy)ethoxy]ethoxy]-N-[4-[4-[2-(2-fluoranylethoxy)phenyl]piperazin-1-yl]butyl]benzamide

> <PUBCHEM_IUPAC_TRADITIONAL_NAME>
4-[2-[2-(2-fluoroethoxy)ethoxy]ethoxy]-N-[4-[4-[2-(2-fluoroethoxy)phenyl]piperazino]butyl]benzamide;oxalic acid

> <PUBCHEM_IUPAC_INCHI>
InChI=1S/C29H41F2N3O5.C2H2O4/c30-11-19-36-21-22-37-23-24-38-26-9-7-25(8-10-26)29(35)32-13-3-4-14-33-15-17-34(18-16-33)27-5-1-2-6-28(27)39-20-12-31;3-1(4)2(5)6/h1-2,5-10H,3-4,11-24H2,(H,32,35);(H,3,4)(H,5,6)

> <PUBCHEM_IUPAC_INCHIKEY>
UQNNVEPWZGKHJL-UHFFFAOYSA-N

> <PUBCHEM_EXACT_MASS>
639.29673628

> <PUBCHEM_MOLECULAR_FORMULA>
C31H43F2N3O9

> <PUBCHEM_MOLECULAR_WEIGHT>
639.7

> <PUBCHEM_OPENEYE_CAN_SMILES>
C1CN(CCN1CCCCNC(=O)C2=CC=C(C=C2)OCCOCCOCCF)C3=CC=CC=C3OCCF.C(=O)(C(=O)O)O

> <PUBCHEM_OPENEYE_ISO_SMILES>
C1CN(CCN1CCCCNC(=O)C2=CC=C(C=C2)OCCOCCOCCF)C3=CC=CC=C3OCCF.C(=O)(C(=O)O)O

> <PUBCHEM_CACTVS_TPSA>
147

> <PUBCHEM_MONOISOTOPIC_WEIGHT>
639.29673628

> <PUBCHEM_TOTAL_CHARGE>
0

> <PUBCHEM_HEAVY_ATOM_COUNT>
45

> <PUBCHEM_ATOM_DEF_STEREO_COUNT>
0

> <PUBCHEM_ATOM_UDEF_STEREO_COUNT>
0

> <PUBCHEM_BOND_DEF_STEREO_COUNT>
0

> <PUBCHEM_BOND_UDEF_STEREO_COUNT>
0

> <PUBCHEM_ISOTOPIC_ATOM_COUNT>
0

> <PUBCHEM_COMPONENT_COUNT>
2

> <PUBCHEM_CACTVS_TAUTO_COUNT>
-1

> <PUBCHEM_COORDINATE_TYPE>
1
5
255

> <PUBCHEM_BONDANNOTATIONS>
21  23  8
21  25  8
23  26  8
25  27  8
26  28  8
27  28  8
31  33  8
31  34  8
33  35  8
34  36  8
35  37  8
36  37  8

$$$$
