155569612
  -OEChem-09292322082D

 60 64  0     0  0  0  0  0  0999 V2000
    4.5274    2.2534    0.0000 S   0  0  0  0  0  0  0  0  0  0  0  0
    5.7533   -5.3615    0.0000 F   0  0  0  0  0  0  0  0  0  0  0  0
    7.0208   -4.7341    0.0000 F   0  0  0  0  0  0  0  0  0  0  0  0
    5.1259   -4.0941    0.0000 F   0  0  0  0  0  0  0  0  0  0  0  0
   10.2308    5.3615    0.0000 O   0  0  0  0  0  0  0  0  0  0  0  0
    9.6201    3.4570    0.0000 N   0  0  0  0  0  0  0  0  0  0  0  0
    6.3518    1.8979    0.0000 N   0  0  0  0  0  0  0  0  0  0  0  0
    6.7328    0.1385    0.0000 N   0  0  0  0  0  0  0  0  0  0  0  0
    5.3923   -1.0176    0.0000 N   0  0  0  0  0  0  0  0  0  0  0  0
    4.0274    0.7146    0.0000 C   0  0  0  0  0  0  0  0  0  0  0  0
    3.3424   -0.0702    0.0000 C   0  0  0  0  0  0  0  0  0  0  0  0
    2.3219    0.1385    0.0000 C   0  0  0  0  0  0  0  0  0  0  0  0
    2.0000    1.1292    0.0000 C   0  0  0  0  0  0  0  0  0  0  0  0
    2.7029    1.8979    0.0000 C   0  0  0  0  0  0  0  0  0  0  0  0
    3.7183    1.6656    0.0000 C   0  0  0  0  0  0  0  0  0  0  0  0
    5.0274    0.7146    0.0000 C   0  0  0  0  0  0  0  0  0  0  0  0
    9.3148    2.5048    0.0000 C   0  0  0  0  0  0  0  0  0  0  0  0
    5.3364    1.6656    0.0000 C   0  0  0  0  0  0  0  0  0  0  0  0
    8.3374    2.2931    0.0000 C   0  0  0  0  0  0  0  0  0  0  0  0
    8.9481    4.1976    0.0000 C   0  0  0  0  0  0  0  0  0  0  0  0
   10.5974    3.6687    0.0000 C   0  0  0  0  0  0  0  0  0  0  0  0
    8.0321    1.3409    0.0000 C   0  0  0  0  0  0  0  0  0  0  0  0
    5.7123   -0.0702    0.0000 C   0  0  0  0  0  0  0  0  0  0  0  0
    7.0547    1.1292    0.0000 C   0  0  0  0  0  0  0  0  0  0  0  0
    9.2535    5.1498    0.0000 C   0  0  0  0  0  0  0  0  0  0  0  0
   10.9028    4.6210    0.0000 C   0  0  0  0  0  0  0  0  0  0  0  0
    6.0528   -1.7684    0.0000 C   0  0  0  0  0  0  0  0  0  0  0  0
    5.7328   -2.7158    0.0000 C   0  0  0  0  0  0  0  0  0  0  0  0
    7.0333   -1.5718    0.0000 C   0  0  0  0  0  0  0  0  0  0  0  0
    6.3933   -3.4667    0.0000 C   0  0  0  0  0  0  0  0  0  0  0  0
    7.6938   -2.3227    0.0000 C   0  0  0  0  0  0  0  0  0  0  0  0
    7.3738   -3.2701    0.0000 C   0  0  0  0  0  0  0  0  0  0  0  0
    6.0733   -4.4141    0.0000 C   0  0  0  0  0  0  0  0  0  0  0  0
    3.1160   -0.6474    0.0000 H   0  0  0  0  0  0  0  0  0  0  0  0
    3.8724   -0.3919    0.0000 H   0  0  0  0  0  0  0  0  0  0  0  0
    1.7081    0.0507    0.0000 H   0  0  0  0  0  0  0  0  0  0  0  0
    2.3034   -0.4812    0.0000 H   0  0  0  0  0  0  0  0  0  0  0  0
    1.6208    1.6197    0.0000 H   0  0  0  0  0  0  0  0  0  0  0  0
    1.4518    0.8395    0.0000 H   0  0  0  0  0  0  0  0  0  0  0  0
    2.9426    2.4697    0.0000 H   0  0  0  0  0  0  0  0  0  0  0  0
    2.1806    2.2318    0.0000 H   0  0  0  0  0  0  0  0  0  0  0  0
    9.3388    1.8853    0.0000 H   0  0  0  0  0  0  0  0  0  0  0  0
    9.9290    2.4209    0.0000 H   0  0  0  0  0  0  0  0  0  0  0  0
    8.3134    2.9126    0.0000 H   0  0  0  0  0  0  0  0  0  0  0  0
    7.7231    2.3770    0.0000 H   0  0  0  0  0  0  0  0  0  0  0  0
    8.3996    4.4866    0.0000 H   0  0  0  0  0  0  0  0  0  0  0  0
    8.5683    3.7076    0.0000 H   0  0  0  0  0  0  0  0  0  0  0  0
   10.6215    3.0492    0.0000 H   0  0  0  0  0  0  0  0  0  0  0  0
   11.2117    3.5848    0.0000 H   0  0  0  0  0  0  0  0  0  0  0  0
    8.0561    0.7213    0.0000 H   0  0  0  0  0  0  0  0  0  0  0  0
    8.6464    1.2570    0.0000 H   0  0  0  0  0  0  0  0  0  0  0  0
    9.2294    5.7694    0.0000 H   0  0  0  0  0  0  0  0  0  0  0  0
    8.6392    5.2338    0.0000 H   0  0  0  0  0  0  0  0  0  0  0  0
   11.4513    4.3320    0.0000 H   0  0  0  0  0  0  0  0  0  0  0  0
   11.2826    5.1110    0.0000 H   0  0  0  0  0  0  0  0  0  0  0  0
    4.7844   -1.1395    0.0000 H   0  0  0  0  0  0  0  0  0  0  0  0
    5.1249   -2.8377    0.0000 H   0  0  0  0  0  0  0  0  0  0  0  0
    7.2317   -0.9844    0.0000 H   0  0  0  0  0  0  0  0  0  0  0  0
    8.3017   -2.2008    0.0000 H   0  0  0  0  0  0  0  0  0  0  0  0
    7.7833   -3.7356    0.0000 H   0  0  0  0  0  0  0  0  0  0  0  0
  1 15  1  0  0  0  0
  1 18  1  0  0  0  0
  2 33  1  0  0  0  0
  3 33  1  0  0  0  0
  4 33  1  0  0  0  0
  5 25  1  0  0  0  0
  5 26  1  0  0  0  0
  6 17  1  0  0  0  0
  6 20  1  0  0  0  0
  6 21  1  0  0  0  0
  7 18  2  0  0  0  0
  7 24  1  0  0  0  0
  8 23  1  0  0  0  0
  8 24  2  0  0  0  0
  9 23  1  0  0  0  0
  9 27  1  0  0  0  0
  9 56  1  0  0  0  0
 10 11  1  0  0  0  0
 10 15  2  0  0  0  0
 10 16  1  0  0  0  0
 11 12  1  0  0  0  0
 11 34  1  0  0  0  0
 11 35  1  0  0  0  0
 12 13  1  0  0  0  0
 12 36  1  0  0  0  0
 12 37  1  0  0  0  0
 13 14  1  0  0  0  0
 13 38  1  0  0  0  0
 13 39  1  0  0  0  0
 14 15  1  0  0  0  0
 14 40  1  0  0  0  0
 14 41  1  0  0  0  0
 16 18  1  0  0  0  0
 16 23  2  0  0  0  0
 17 19  1  0  0  0  0
 17 42  1  0  0  0  0
 17 43  1  0  0  0  0
 19 22  1  0  0  0  0
 19 44  1  0  0  0  0
 19 45  1  0  0  0  0
 20 25  1  0  0  0  0
 20 46  1  0  0  0  0
 20 47  1  0  0  0  0
 21 26  1  0  0  0  0
 21 48  1  0  0  0  0
 21 49  1  0  0  0  0
 22 24  1  0  0  0  0
 22 50  1  0  0  0  0
 22 51  1  0  0  0  0
 25 52  1  0  0  0  0
 25 53  1  0  0  0  0
 26 54  1  0  0  0  0
 26 55  1  0  0  0  0
 27 28  1  0  0  0  0
 27 29  2  0  0  0  0
 28 30  2  0  0  0  0
 28 57  1  0  0  0  0
 29 31  1  0  0  0  0
 29 58  1  0  0  0  0
 30 32  1  0  0  0  0
 30 33  1  0  0  0  0
 31 32  2  0  0  0  0
 31 59  1  0  0  0  0
 32 60  1  0  0  0  0
M  END
> <PUBCHEM_COMPOUND_CID>
155569612

> <PUBCHEM_COMPOUND_CANONICALIZED>
1

> <PUBCHEM_CACTVS_COMPLEXITY>
635

> <PUBCHEM_CACTVS_HBOND_ACCEPTOR>
9

> <PUBCHEM_CACTVS_HBOND_DONOR>
1

> <PUBCHEM_CACTVS_ROTATABLE_BOND>
6

> <PUBCHEM_CACTVS_SUBSKEYS>
AAADceB7oYBAAAAAAAAAAAAAAAAAASAAAAA8eIEAAAAAAFgB/AAAHwQQAAAADAjh2xYx8dfIFAikAiZiZACD0KlhCrgJmDA4ZJiKKGLg2dGHJAxokAL4yCcQgMAOgAAAQAAAAAAAAACAAAgAAAAAAAAAAA==

> <PUBCHEM_IUPAC_OPENEYE_NAME>
2-(3-morpholinopropyl)-N-[3-(trifluoromethyl)phenyl]-5,6,7,8-tetrahydrobenzothiopheno[2,3-d]pyrimidin-4-amine

> <PUBCHEM_IUPAC_CAS_NAME>
2-[3-(4-morpholinyl)propyl]-N-[3-(trifluoromethyl)phenyl]-5,6,7,8-tetrahydro-[1]benzothiolo[2,3-d]pyrimidin-4-amine

> <PUBCHEM_IUPAC_NAME_MARKUP>
2-(3-morpholin-4-ylpropyl)-<I>N</I>-[3-(trifluoromethyl)phenyl]-5,6,7,8-tetrahydro-[1]benzothiolo[2,3-d]pyrimidin-4-amine

> <PUBCHEM_IUPAC_NAME>
2-(3-morpholin-4-ylpropyl)-N-[3-(trifluoromethyl)phenyl]-5,6,7,8-tetrahydro-[1]benzothiolo[2,3-d]pyrimidin-4-amine

> <PUBCHEM_IUPAC_SYSTEMATIC_NAME>
2-(3-morpholin-4-ylpropyl)-N-[3-(trifluoromethyl)phenyl]-5,6,7,8-tetrahydro-[1]benzothiolo[2,3-d]pyrimidin-4-amine

> <PUBCHEM_IUPAC_TRADITIONAL_NAME>
[2-(3-morpholinopropyl)-5,6,7,8-tetrahydrobenzothiopheno[2,3-d]pyrimidin-4-yl]-[3-(trifluoromethyl)phenyl]amine

> <PUBCHEM_IUPAC_INCHI>
InChI=1S/C24H27F3N4OS/c25-24(26,27)16-5-3-6-17(15-16)28-22-21-18-7-1-2-8-19(18)33-23(21)30-20(29-22)9-4-10-31-11-13-32-14-12-31/h3,5-6,15H,1-2,4,7-14H2,(H,28,29,30)

> <PUBCHEM_IUPAC_INCHIKEY>
KKAWHABNSKWLPX-UHFFFAOYSA-N

> <PUBCHEM_XLOGP3_AA>
5.9

> <PUBCHEM_EXACT_MASS>
476.18576716

> <PUBCHEM_MOLECULAR_FORMULA>
C24H27F3N4OS

> <PUBCHEM_MOLECULAR_WEIGHT>
476.6

> <PUBCHEM_OPENEYE_CAN_SMILES>
C1CCC2=C(C1)C3=C(N=C(N=C3S2)CCCN4CCOCC4)NC5=CC=CC(=C5)C(F)(F)F

> <PUBCHEM_OPENEYE_ISO_SMILES>
C1CCC2=C(C1)C3=C(N=C(N=C3S2)CCCN4CCOCC4)NC5=CC=CC(=C5)C(F)(F)F

> <PUBCHEM_CACTVS_TPSA>
78.5

> <PUBCHEM_MONOISOTOPIC_WEIGHT>
476.18576716

> <PUBCHEM_TOTAL_CHARGE>
0

> <PUBCHEM_HEAVY_ATOM_COUNT>
33

> <PUBCHEM_ATOM_DEF_STEREO_COUNT>
0

> <PUBCHEM_ATOM_UDEF_STEREO_COUNT>
0

> <PUBCHEM_BOND_DEF_STEREO_COUNT>
0

> <PUBCHEM_BOND_UDEF_STEREO_COUNT>
0

> <PUBCHEM_ISOTOPIC_ATOM_COUNT>
0

> <PUBCHEM_COMPONENT_COUNT>
1

> <PUBCHEM_CACTVS_TAUTO_COUNT>
-1

> <PUBCHEM_COORDINATE_TYPE>
1
5
255

> <PUBCHEM_BONDANNOTATIONS>
1  15  8
1  18  8
10  15  8
10  16  8
16  18  8
16  23  8
27  28  8
27  29  8
28  30  8
29  31  8
30  32  8
31  32  8
7  18  8
7  24  8
8  23  8
8  24  8

$$$$
