66800942
  -OEChem-09292322342D

 52 55  0     0  0  0  0  0  0999 V2000
    8.1886    2.8034    0.0000 S   0  0  0  0  0  0  0  0  0  0  0  0
    4.6783   -3.9711    0.0000 S   0  0  0  0  0  0  0  0  0  0  0  0
    7.9824    3.7819    0.0000 O   0  0  0  0  0  0  0  0  0  0  0  0
    8.3948    1.8249    0.0000 O   0  0  0  0  0  0  0  0  0  0  0  0
    5.6103    0.4899    0.0000 N   0  0  0  0  0  0  0  0  0  0  0  0
    4.9889   -1.4111    0.0000 N   0  0  0  0  0  0  0  0  0  0  0  0
    7.2101    2.5972    0.0000 N   0  0  0  0  0  0  0  0  0  0  0  0
    5.2619   -3.1664    0.0000 N   0  0  0  0  0  0  0  0  0  0  0  0
    4.6318    0.2837    0.0000 C   0  0  0  0  0  0  0  0  0  0  0  0
    6.2781   -0.2544    0.0000 C   0  0  0  0  0  0  0  0  0  0  0  0
    4.3211   -0.6668    0.0000 C   0  0  0  0  0  0  0  0  0  0  0  0
    5.9674   -1.2049    0.0000 C   0  0  0  0  0  0  0  0  0  0  0  0
    5.9209    1.4404    0.0000 C   0  0  0  0  0  0  0  0  0  0  0  0
    4.6783   -2.3616    0.0000 C   0  0  0  0  0  0  0  0  0  0  0  0
    6.8994    1.6467    0.0000 C   0  0  0  0  0  0  0  0  0  0  0  0
    3.7320   -2.6664    0.0000 C   0  0  0  0  0  0  0  0  0  0  0  0
    3.7320   -3.6664    0.0000 C   0  0  0  0  0  0  0  0  0  0  0  0
    2.8660   -2.1664    0.0000 C   0  0  0  0  0  0  0  0  0  0  0  0
    9.1671    3.0096    0.0000 C   0  0  0  0  0  0  0  0  0  0  0  0
    2.8660   -4.1664    0.0000 C   0  0  0  0  0  0  0  0  0  0  0  0
    2.0000   -2.6664    0.0000 C   0  0  0  0  0  0  0  0  0  0  0  0
    2.0000   -3.6664    0.0000 C   0  0  0  0  0  0  0  0  0  0  0  0
    9.8349    2.2653    0.0000 C   0  0  0  0  0  0  0  0  0  0  0  0
    9.4778    3.9602    0.0000 C   0  0  0  0  0  0  0  0  0  0  0  0
   10.8134    2.4715    0.0000 C   0  0  0  0  0  0  0  0  0  0  0  0
   10.4563    4.1664    0.0000 C   0  0  0  0  0  0  0  0  0  0  0  0
   11.1241    3.4221    0.0000 C   0  0  0  0  0  0  0  0  0  0  0  0
   11.4813    1.7272    0.0000 C   0  0  0  0  0  0  0  0  0  0  0  0
    4.6112    0.9034    0.0000 H   0  0  0  0  0  0  0  0  0  0  0  0
    4.0179    0.3711    0.0000 H   0  0  0  0  0  0  0  0  0  0  0  0
    6.8250   -0.5464    0.0000 H   0  0  0  0  0  0  0  0  0  0  0  0
    6.6607    0.2335    0.0000 H   0  0  0  0  0  0  0  0  0  0  0  0
    3.7742   -0.3748    0.0000 H   0  0  0  0  0  0  0  0  0  0  0  0
    3.9385   -1.1547    0.0000 H   0  0  0  0  0  0  0  0  0  0  0  0
    5.9880   -1.8246    0.0000 H   0  0  0  0  0  0  0  0  0  0  0  0
    6.5812   -1.2922    0.0000 H   0  0  0  0  0  0  0  0  0  0  0  0
    5.9004    2.0601    0.0000 H   0  0  0  0  0  0  0  0  0  0  0  0
    5.3071    1.5278    0.0000 H   0  0  0  0  0  0  0  0  0  0  0  0
    6.9200    1.0270    0.0000 H   0  0  0  0  0  0  0  0  0  0  0  0
    7.5132    1.5593    0.0000 H   0  0  0  0  0  0  0  0  0  0  0  0
    6.7960    3.0587    0.0000 H   0  0  0  0  0  0  0  0  0  0  0  0
    2.8660   -1.5464    0.0000 H   0  0  0  0  0  0  0  0  0  0  0  0
    2.8660   -4.7864    0.0000 H   0  0  0  0  0  0  0  0  0  0  0  0
    1.4631   -2.3564    0.0000 H   0  0  0  0  0  0  0  0  0  0  0  0
    1.4631   -3.9764    0.0000 H   0  0  0  0  0  0  0  0  0  0  0  0
    9.6423    1.6760    0.0000 H   0  0  0  0  0  0  0  0  0  0  0  0
    9.0637    4.4216    0.0000 H   0  0  0  0  0  0  0  0  0  0  0  0
   10.6489    4.7557    0.0000 H   0  0  0  0  0  0  0  0  0  0  0  0
   11.7308    3.5499    0.0000 H   0  0  0  0  0  0  0  0  0  0  0  0
   11.0198    1.3132    0.0000 H   0  0  0  0  0  0  0  0  0  0  0  0
   11.8954    1.2658    0.0000 H   0  0  0  0  0  0  0  0  0  0  0  0
   11.9428    2.1413    0.0000 H   0  0  0  0  0  0  0  0  0  0  0  0
  1  3  2  0  0  0  0
  1  4  2  0  0  0  0
  1  7  1  0  0  0  0
  1 19  1  0  0  0  0
  2  8  1  0  0  0  0
  2 17  1  0  0  0  0
  5  9  1  0  0  0  0
  5 10  1  0  0  0  0
  5 13  1  0  0  0  0
  6 11  1  0  0  0  0
  6 12  1  0  0  0  0
  6 14  1  0  0  0  0
  7 15  1  0  0  0  0
  7 41  1  0  0  0  0
  8 14  2  0  0  0  0
  9 11  1  0  0  0  0
  9 29  1  0  0  0  0
  9 30  1  0  0  0  0
 10 12  1  0  0  0  0
 10 31  1  0  0  0  0
 10 32  1  0  0  0  0
 11 33  1  0  0  0  0
 11 34  1  0  0  0  0
 12 35  1  0  0  0  0
 12 36  1  0  0  0  0
 13 15  1  0  0  0  0
 13 37  1  0  0  0  0
 13 38  1  0  0  0  0
 14 16  1  0  0  0  0
 15 39  1  0  0  0  0
 15 40  1  0  0  0  0
 16 17  1  0  0  0  0
 16 18  2  0  0  0  0
 17 20  2  0  0  0  0
 18 21  1  0  0  0  0
 18 42  1  0  0  0  0
 19 23  1  0  0  0  0
 19 24  2  0  0  0  0
 20 22  1  0  0  0  0
 20 43  1  0  0  0  0
 21 22  2  0  0  0  0
 21 44  1  0  0  0  0
 22 45  1  0  0  0  0
 23 25  2  0  0  0  0
 23 46  1  0  0  0  0
 24 26  1  0  0  0  0
 24 47  1  0  0  0  0
 25 27  1  0  0  0  0
 25 28  1  0  0  0  0
 26 27  2  0  0  0  0
 26 48  1  0  0  0  0
 27 49  1  0  0  0  0
 28 50  1  0  0  0  0
 28 51  1  0  0  0  0
 28 52  1  0  0  0  0
M  END
> <PUBCHEM_COMPOUND_CID>
66800942

> <PUBCHEM_COMPOUND_CANONICALIZED>
1

> <PUBCHEM_CACTVS_COMPLEXITY>
604

> <PUBCHEM_CACTVS_HBOND_ACCEPTOR>
7

> <PUBCHEM_CACTVS_HBOND_DONOR>
1

> <PUBCHEM_CACTVS_ROTATABLE_BOND>
6

> <PUBCHEM_CACTVS_SUBSKEYS>
AAADceB7sABgAAAAAAAAAAAAAAAAAWAAAAA8YIAAAAAAAFgB9AAAHAQQQAAADADBWgQzsdNAAAKkAiJiYHDDABAhAABJmLgoRJiIYKLAmZGUIAxgkALIyAcQgAAOAAAAgAAEAAAAAAEAAAgAAAAAAAAAAA==

> <PUBCHEM_IUPAC_OPENEYE_NAME>
N-[2-[4-(1,2-benzothiazol-3-yl)piperazin-1-yl]ethyl]-3-methyl-benzenesulfonamide

> <PUBCHEM_IUPAC_CAS_NAME>
N-[2-[4-(1,2-benzothiazol-3-yl)-1-piperazinyl]ethyl]-3-methylbenzenesulfonamide

> <PUBCHEM_IUPAC_NAME_MARKUP>
<I>N</I>-[2-[4-(1,2-benzothiazol-3-yl)piperazin-1-yl]ethyl]-3-methylbenzenesulfonamide

> <PUBCHEM_IUPAC_NAME>
N-[2-[4-(1,2-benzothiazol-3-yl)piperazin-1-yl]ethyl]-3-methylbenzenesulfonamide

> <PUBCHEM_IUPAC_SYSTEMATIC_NAME>
N-[2-[4-(1,2-benzothiazol-3-yl)piperazin-1-yl]ethyl]-3-methyl-benzenesulfonamide

> <PUBCHEM_IUPAC_TRADITIONAL_NAME>
N-[2-[4-(1,2-benzothiazol-3-yl)piperazino]ethyl]-3-methyl-benzenesulfonamide

> <PUBCHEM_IUPAC_INCHI>
InChI=1S/C20H24N4O2S2/c1-16-5-4-6-17(15-16)28(25,26)21-9-10-23-11-13-24(14-12-23)20-18-7-2-3-8-19(18)27-22-20/h2-8,15,21H,9-14H2,1H3

> <PUBCHEM_IUPAC_INCHIKEY>
IHUSAUOGQDOBGQ-UHFFFAOYSA-N

> <PUBCHEM_XLOGP3_AA>
3.6

> <PUBCHEM_EXACT_MASS>
416.13406837

> <PUBCHEM_MOLECULAR_FORMULA>
C20H24N4O2S2

> <PUBCHEM_MOLECULAR_WEIGHT>
416.6

> <PUBCHEM_OPENEYE_CAN_SMILES>
CC1=CC(=CC=C1)S(=O)(=O)NCCN2CCN(CC2)C3=NSC4=CC=CC=C43

> <PUBCHEM_OPENEYE_ISO_SMILES>
CC1=CC(=CC=C1)S(=O)(=O)NCCN2CCN(CC2)C3=NSC4=CC=CC=C43

> <PUBCHEM_CACTVS_TPSA>
102

> <PUBCHEM_MONOISOTOPIC_WEIGHT>
416.13406837

> <PUBCHEM_TOTAL_CHARGE>
0

> <PUBCHEM_HEAVY_ATOM_COUNT>
28

> <PUBCHEM_ATOM_DEF_STEREO_COUNT>
0

> <PUBCHEM_ATOM_UDEF_STEREO_COUNT>
0

> <PUBCHEM_BOND_DEF_STEREO_COUNT>
0

> <PUBCHEM_BOND_UDEF_STEREO_COUNT>
0

> <PUBCHEM_ISOTOPIC_ATOM_COUNT>
0

> <PUBCHEM_COMPONENT_COUNT>
1

> <PUBCHEM_CACTVS_TAUTO_COUNT>
-1

> <PUBCHEM_COORDINATE_TYPE>
1
5
255

> <PUBCHEM_BONDANNOTATIONS>
14  16  8
16  17  8
16  18  8
17  20  8
18  21  8
19  23  8
19  24  8
2  17  8
2  8  8
20  22  8
21  22  8
23  25  8
24  26  8
25  27  8
26  27  8
8  14  8

$$$$
