162664513
  -OEChem-09292322012D

 44 45  0     1  0  0  0  0  0999 V2000
    6.2619    1.1345    0.0000 N   0  0  3  0  0  0  0  0  0  0  0  0
    5.2619    1.1345    0.0000 C   0  0  0  0  0  0  0  0  0  0  0  0
    4.6783    0.3298    0.0000 C   0  0  0  0  0  0  0  0  0  0  0  0
    4.6783    1.9392    0.0000 C   0  0  0  0  0  0  0  0  0  0  0  0
    3.7320    0.6345    0.0000 C   0  0  0  0  0  0  0  0  0  0  0  0
    3.7320    1.6345    0.0000 C   0  0  0  0  0  0  0  0  0  0  0  0
    6.7619    0.2685    0.0000 C   0  0  0  0  0  0  0  0  0  0  0  0
    6.7619    2.0005    0.0000 C   0  0  0  0  0  0  0  0  0  0  0  0
    7.7619    0.2685    0.0000 C   0  0  0  0  0  0  0  0  0  0  0  0
    7.7619    2.0005    0.0000 C   0  0  0  0  0  0  0  0  0  0  0  0
    2.8660    0.1345    0.0000 C   0  0  0  0  0  0  0  0  0  0  0  0
    2.8660    2.1345    0.0000 C   0  0  0  0  0  0  0  0  0  0  0  0
    8.2619   -0.5976    0.0000 C   0  0  0  0  0  0  0  0  0  0  0  0
    2.0000    0.6345    0.0000 C   0  0  0  0  0  0  0  0  0  0  0  0
    2.0000    1.6345    0.0000 C   0  0  0  0  0  0  0  0  0  0  0  0
    8.2619    2.8665    0.0000 C   0  0  0  0  0  0  0  0  0  0  0  0
    9.2619   -0.5976    0.0000 C   0  0  0  0  0  0  0  0  0  0  0  0
    9.7619   -1.4636    0.0000 C   0  0  0  0  0  0  0  0  0  0  0  0
   10.2619   -2.3296    0.0000 C   0  0  0  0  0  0  0  0  0  0  0  0
    5.5436    0.5822    0.0000 H   0  0  0  0  0  0  0  0  0  0  0  0
    4.4272   -0.2371    0.0000 H   0  0  0  0  0  0  0  0  0  0  0  0
    5.2156    0.0205    0.0000 H   0  0  0  0  0  0  0  0  0  0  0  0
    5.2156    2.2484    0.0000 H   0  0  0  0  0  0  0  0  0  0  0  0
    4.4272    2.5061    0.0000 H   0  0  0  0  0  0  0  0  0  0  0  0
    6.1793    0.0564    0.0000 H   0  0  0  0  0  0  0  0  0  0  0  0
    6.8695   -0.3421    0.0000 H   0  0  0  0  0  0  0  0  0  0  0  0
    6.8695    2.6111    0.0000 H   0  0  0  0  0  0  0  0  0  0  0  0
    6.1793    2.2126    0.0000 H   0  0  0  0  0  0  0  0  0  0  0  0
    8.3445    0.4805    0.0000 H   0  0  0  0  0  0  0  0  0  0  0  0
    7.6542    0.8790    0.0000 H   0  0  0  0  0  0  0  0  0  0  0  0
    7.6542    1.3899    0.0000 H   0  0  0  0  0  0  0  0  0  0  0  0
    8.3445    1.7885    0.0000 H   0  0  0  0  0  0  0  0  0  0  0  0
    2.8660   -0.4855    0.0000 H   0  0  0  0  0  0  0  0  0  0  0  0
    2.8660    2.7545    0.0000 H   0  0  0  0  0  0  0  0  0  0  0  0
    7.6793   -0.8096    0.0000 H   0  0  0  0  0  0  0  0  0  0  0  0
    8.3695   -1.2081    0.0000 H   0  0  0  0  0  0  0  0  0  0  0  0
    1.4631    0.3245    0.0000 H   0  0  0  0  0  0  0  0  0  0  0  0
    1.4631    1.9445    0.0000 H   0  0  0  0  0  0  0  0  0  0  0  0
    8.7988    2.5565    0.0000 H   0  0  0  0  0  0  0  0  0  0  0  0
    8.5719    3.4035    0.0000 H   0  0  0  0  0  0  0  0  0  0  0  0
    7.7249    3.1765    0.0000 H   0  0  0  0  0  0  0  0  0  0  0  0
    9.8445   -0.3855    0.0000 H   0  0  0  0  0  0  0  0  0  0  0  0
    9.1542    0.0130    0.0000 H   0  0  0  0  0  0  0  0  0  0  0  0
   10.5719   -2.8665    0.0000 H   0  0  0  0  0  0  0  0  0  0  0  0
  1  2  1  0  0  0  0
  1  7  1  0  0  0  0
  1  8  1  0  0  0  0
  2  3  1  0  0  0  0
  2  4  1  0  0  0  0
  2 20  1  0  0  0  0
  3  5  1  0  0  0  0
  3 21  1  0  0  0  0
  3 22  1  0  0  0  0
  4  6  1  0  0  0  0
  4 23  1  0  0  0  0
  4 24  1  0  0  0  0
  5  6  1  0  0  0  0
  5 11  2  0  0  0  0
  6 12  2  0  0  0  0
  7  9  1  0  0  0  0
  7 25  1  0  0  0  0
  7 26  1  0  0  0  0
  8 10  1  0  0  0  0
  8 27  1  0  0  0  0
  8 28  1  0  0  0  0
  9 13  1  0  0  0  0
  9 29  1  0  0  0  0
  9 30  1  0  0  0  0
 10 16  1  0  0  0  0
 10 31  1  0  0  0  0
 10 32  1  0  0  0  0
 11 14  1  0  0  0  0
 11 33  1  0  0  0  0
 12 15  1  0  0  0  0
 12 34  1  0  0  0  0
 13 17  1  0  0  0  0
 13 35  1  0  0  0  0
 13 36  1  0  0  0  0
 14 15  2  0  0  0  0
 14 37  1  0  0  0  0
 15 38  1  0  0  0  0
 16 39  1  0  0  0  0
 16 40  1  0  0  0  0
 16 41  1  0  0  0  0
 17 18  1  0  0  0  0
 17 42  1  0  0  0  0
 17 43  1  0  0  0  0
 18 19  3  0  0  0  0
 19 44  1  0  0  0  0
M  END
> <PUBCHEM_COMPOUND_CID>
162664513

> <PUBCHEM_COMPOUND_CANONICALIZED>
1

> <PUBCHEM_CACTVS_COMPLEXITY>
286

> <PUBCHEM_CACTVS_HBOND_ACCEPTOR>
1

> <PUBCHEM_CACTVS_HBOND_DONOR>
0

> <PUBCHEM_CACTVS_ROTATABLE_BOND>
7

> <PUBCHEM_CACTVS_SUBSKEYS>
AAADceB6AAAAAAAAAAAAAAAAAAAAAYAAAAAwAAAAAAAAAGABAAAAHAAAAAAADCjBGAQyAIMAAADAGiBCAAgCAAAgAAAIiAAIAIgIICKAkRGEIAAggACIiAcQgIAOgAAAAAAQAAAAAAAAACAAACAACAAAAA==

> <PUBCHEM_IUPAC_OPENEYE_NAME>
N-hex-5-ynyl-N-propyl-indan-2-amine

> <PUBCHEM_IUPAC_CAS_NAME>
N-hex-5-ynyl-N-propyl-2,3-dihydro-1H-inden-2-amine

> <PUBCHEM_IUPAC_NAME_MARKUP>
<I>N</I>-hex-5-ynyl-<I>N</I>-propyl-2,3-dihydro-1<I>H</I>-inden-2-amine

> <PUBCHEM_IUPAC_NAME>
N-hex-5-ynyl-N-propyl-2,3-dihydro-1H-inden-2-amine

> <PUBCHEM_IUPAC_SYSTEMATIC_NAME>
N-hex-5-ynyl-N-propyl-2,3-dihydro-1H-inden-2-amine

> <PUBCHEM_IUPAC_TRADITIONAL_NAME>
hex-5-ynyl-indan-2-yl-propyl-amine

> <PUBCHEM_IUPAC_INCHI>
InChI=1S/C18H25N/c1-3-5-6-9-13-19(12-4-2)18-14-16-10-7-8-11-17(16)15-18/h1,7-8,10-11,18H,4-6,9,12-15H2,2H3

> <PUBCHEM_IUPAC_INCHIKEY>
LSSXKYXGUAMNCD-UHFFFAOYSA-N

> <PUBCHEM_XLOGP3_AA>
4.5

> <PUBCHEM_EXACT_MASS>
255.198699802

> <PUBCHEM_MOLECULAR_FORMULA>
C18H25N

> <PUBCHEM_MOLECULAR_WEIGHT>
255.4

> <PUBCHEM_OPENEYE_CAN_SMILES>
CCCN(CCCCC#C)C1CC2=CC=CC=C2C1

> <PUBCHEM_OPENEYE_ISO_SMILES>
CCCN(CCCCC#C)C1CC2=CC=CC=C2C1

> <PUBCHEM_CACTVS_TPSA>
3.2

> <PUBCHEM_MONOISOTOPIC_WEIGHT>
255.198699802

> <PUBCHEM_TOTAL_CHARGE>
0

> <PUBCHEM_HEAVY_ATOM_COUNT>
19

> <PUBCHEM_ATOM_DEF_STEREO_COUNT>
0

> <PUBCHEM_ATOM_UDEF_STEREO_COUNT>
0

> <PUBCHEM_BOND_DEF_STEREO_COUNT>
0

> <PUBCHEM_BOND_UDEF_STEREO_COUNT>
0

> <PUBCHEM_ISOTOPIC_ATOM_COUNT>
0

> <PUBCHEM_COMPONENT_COUNT>
1

> <PUBCHEM_CACTVS_TAUTO_COUNT>
-1

> <PUBCHEM_COORDINATE_TYPE>
1
5
255

> <PUBCHEM_BONDANNOTATIONS>
11  14  8
12  15  8
14  15  8
5  11  8
5  6  8
6  12  8

$$$$
