2808589
  -OEChem-09292322082D

 27 28  0     0  0  0  0  0  0999 V2000
    4.6783   -2.0547    0.0000 S   0  0  0  0  0  0  0  0  0  0  0  0
    2.8660    0.7500    0.0000 N   0  0  0  0  0  0  0  0  0  0  0  0
    2.0000   -0.7500    0.0000 N   0  0  0  0  0  0  0  0  0  0  0  0
    2.8660   -2.2500    0.0000 N   0  0  0  0  0  0  0  0  0  0  0  0
    2.0000    1.2500    0.0000 C   0  0  0  0  0  0  0  0  0  0  0  0
    3.7320    1.2500    0.0000 C   0  0  0  0  0  0  0  0  0  0  0  0
    2.8660   -0.2500    0.0000 C   0  0  0  0  0  0  0  0  0  0  0  0
    3.7320   -0.7500    0.0000 C   0  0  0  0  0  0  0  0  0  0  0  0
    2.0000    2.2500    0.0000 C   0  0  0  0  0  0  0  0  0  0  0  0
    3.7320    2.2500    0.0000 C   0  0  0  0  0  0  0  0  0  0  0  0
    3.7320   -1.7500    0.0000 C   0  0  0  0  0  0  0  0  0  0  0  0
    4.6783   -0.4453    0.0000 C   0  0  0  0  0  0  0  0  0  0  0  0
    5.2619   -1.2500    0.0000 C   0  0  0  0  0  0  0  0  0  0  0  0
    2.0000   -1.7500    0.0000 C   0  0  0  0  0  0  0  0  0  0  0  0
    1.3894    1.3577    0.0000 H   0  0  0  0  0  0  0  0  0  0  0  0
    1.7880    0.6674    0.0000 H   0  0  0  0  0  0  0  0  0  0  0  0
    3.9441    0.6674    0.0000 H   0  0  0  0  0  0  0  0  0  0  0  0
    4.3426    1.3577    0.0000 H   0  0  0  0  0  0  0  0  0  0  0  0
    2.6200    2.2500    0.0000 H   0  0  0  0  0  0  0  0  0  0  0  0
    2.0000    2.8700    0.0000 H   0  0  0  0  0  0  0  0  0  0  0  0
    1.3800    2.2500    0.0000 H   0  0  0  0  0  0  0  0  0  0  0  0
    4.3520    2.2500    0.0000 H   0  0  0  0  0  0  0  0  0  0  0  0
    3.7320    2.8700    0.0000 H   0  0  0  0  0  0  0  0  0  0  0  0
    3.1120    2.2500    0.0000 H   0  0  0  0  0  0  0  0  0  0  0  0
    4.8709    0.1441    0.0000 H   0  0  0  0  0  0  0  0  0  0  0  0
    5.8819   -1.2500    0.0000 H   0  0  0  0  0  0  0  0  0  0  0  0
    1.4631   -2.0600    0.0000 H   0  0  0  0  0  0  0  0  0  0  0  0
  1 11  1  0  0  0  0
  1 13  1  0  0  0  0
  2  5  1  0  0  0  0
  2  6  1  0  0  0  0
  2  7  1  0  0  0  0
  3  7  1  0  0  0  0
  3 14  2  0  0  0  0
  4 11  2  0  0  0  0
  4 14  1  0  0  0  0
  5  9  1  0  0  0  0
  5 15  1  0  0  0  0
  5 16  1  0  0  0  0
  6 10  1  0  0  0  0
  6 17  1  0  0  0  0
  6 18  1  0  0  0  0
  7  8  2  0  0  0  0
  8 11  1  0  0  0  0
  8 12  1  0  0  0  0
  9 19  1  0  0  0  0
  9 20  1  0  0  0  0
  9 21  1  0  0  0  0
 10 22  1  0  0  0  0
 10 23  1  0  0  0  0
 10 24  1  0  0  0  0
 12 13  2  0  0  0  0
 12 25  1  0  0  0  0
 13 26  1  0  0  0  0
 14 27  1  0  0  0  0
M  END
> <PUBCHEM_COMPOUND_CID>
2808589

> <PUBCHEM_COMPOUND_CANONICALIZED>
1

> <PUBCHEM_CACTVS_COMPLEXITY>
184

> <PUBCHEM_CACTVS_HBOND_ACCEPTOR>
4

> <PUBCHEM_CACTVS_HBOND_DONOR>
0

> <PUBCHEM_CACTVS_ROTATABLE_BOND>
3

> <PUBCHEM_CACTVS_SUBSKEYS>
AAADccBzAABAAAAAAAAAAAAAAAAAASAAAAAsAAAAAAAAAFgB+AAAHAQAAAAADADFWgS3sdcIEAikAiJjZACD0KlxCLhJ2DgoRJiIKIBgyMEEBAxIAALgQCAAAAAIAAAAAAAAAAAAAAAAAAAAAAAAAAAAAA==

> <PUBCHEM_IUPAC_OPENEYE_NAME>
N,N-diethylthieno[2,3-d]pyrimidin-4-amine

> <PUBCHEM_IUPAC_CAS_NAME>
N,N-diethyl-4-thieno[2,3-d]pyrimidinamine

> <PUBCHEM_IUPAC_NAME_MARKUP>
<I>N</I>,<I>N</I>-diethylthieno[2,3-d]pyrimidin-4-amine

> <PUBCHEM_IUPAC_NAME>
N,N-diethylthieno[2,3-d]pyrimidin-4-amine

> <PUBCHEM_IUPAC_SYSTEMATIC_NAME>
N,N-diethylthieno[2,3-d]pyrimidin-4-amine

> <PUBCHEM_IUPAC_TRADITIONAL_NAME>
diethyl(thieno[2,3-d]pyrimidin-4-yl)amine

> <PUBCHEM_IUPAC_INCHI>
InChI=1S/C10H13N3S/c1-3-13(4-2)9-8-5-6-14-10(8)12-7-11-9/h5-7H,3-4H2,1-2H3

> <PUBCHEM_IUPAC_INCHIKEY>
TUFDCUHPGXLDSJ-UHFFFAOYSA-N

> <PUBCHEM_XLOGP3>
2.6

> <PUBCHEM_EXACT_MASS>
207.08301860

> <PUBCHEM_MOLECULAR_FORMULA>
C10H13N3S

> <PUBCHEM_MOLECULAR_WEIGHT>
207.30

> <PUBCHEM_OPENEYE_CAN_SMILES>
CCN(CC)C1=C2C=CSC2=NC=N1

> <PUBCHEM_OPENEYE_ISO_SMILES>
CCN(CC)C1=C2C=CSC2=NC=N1

> <PUBCHEM_CACTVS_TPSA>
57.3

> <PUBCHEM_MONOISOTOPIC_WEIGHT>
207.08301860

> <PUBCHEM_TOTAL_CHARGE>
0

> <PUBCHEM_HEAVY_ATOM_COUNT>
14

> <PUBCHEM_ATOM_DEF_STEREO_COUNT>
0

> <PUBCHEM_ATOM_UDEF_STEREO_COUNT>
0

> <PUBCHEM_BOND_DEF_STEREO_COUNT>
0

> <PUBCHEM_BOND_UDEF_STEREO_COUNT>
0

> <PUBCHEM_ISOTOPIC_ATOM_COUNT>
0

> <PUBCHEM_COMPONENT_COUNT>
1

> <PUBCHEM_CACTVS_TAUTO_COUNT>
-1

> <PUBCHEM_COORDINATE_TYPE>
1
5
255

> <PUBCHEM_BONDANNOTATIONS>
1  11  8
1  13  8
12  13  8
3  14  8
3  7  8
4  11  8
4  14  8
7  8  8
8  11  8
8  12  8

$$$$
