23625542
  -OEChem-09292322252D

 62 66  0     0  0  0  0  0  0999 V2000
   12.7619   -2.6651    0.0000 Cl  0  0  0  0  0  0  0  0  0  0  0  0
   13.7619   -4.3971    0.0000 Cl  0  0  0  0  0  0  0  0  0  0  0  0
    9.2619    3.3971    0.0000 O   0  0  0  0  0  0  0  0  0  0  0  0
   12.7619    0.7990    0.0000 N   0  0  0  0  0  0  0  0  0  0  0  0
   13.7619   -0.9330    0.0000 N   0  0  0  0  0  0  0  0  0  0  0  0
    3.7320    3.8971    0.0000 N   0  0  0  0  0  0  0  0  0  0  0  0
    4.6783    2.5924    0.0000 N   0  0  0  0  0  0  0  0  0  0  0  0
   12.2619   -0.0670    0.0000 C   0  0  0  0  0  0  0  0  0  0  0  0
   13.7619    0.7990    0.0000 C   0  0  0  0  0  0  0  0  0  0  0  0
   12.7619   -0.9330    0.0000 C   0  0  0  0  0  0  0  0  0  0  0  0
   14.2619   -0.0670    0.0000 C   0  0  0  0  0  0  0  0  0  0  0  0
   12.2619    1.6651    0.0000 C   0  0  0  0  0  0  0  0  0  0  0  0
   11.2619    1.6651    0.0000 C   0  0  0  0  0  0  0  0  0  0  0  0
   14.2619   -1.7990    0.0000 C   0  0  0  0  0  0  0  0  0  0  0  0
   10.7619    2.5311    0.0000 C   0  0  0  0  0  0  0  0  0  0  0  0
    9.7619    2.5311    0.0000 C   0  0  0  0  0  0  0  0  0  0  0  0
   13.7619   -2.6651    0.0000 C   0  0  0  0  0  0  0  0  0  0  0  0
   15.2619   -1.7990    0.0000 C   0  0  0  0  0  0  0  0  0  0  0  0
   14.2619   -3.5311    0.0000 C   0  0  0  0  0  0  0  0  0  0  0  0
   15.7619   -2.6651    0.0000 C   0  0  0  0  0  0  0  0  0  0  0  0
   15.2619   -3.5311    0.0000 C   0  0  0  0  0  0  0  0  0  0  0  0
    8.2619    3.3971    0.0000 C   0  0  0  0  0  0  0  0  0  0  0  0
    7.7619    4.2631    0.0000 C   0  0  0  0  0  0  0  0  0  0  0  0
    7.7619    2.5311    0.0000 C   0  0  0  0  0  0  0  0  0  0  0  0
    6.2619    3.3971    0.0000 C   0  0  0  0  0  0  0  0  0  0  0  0
    5.2619    3.3971    0.0000 C   0  0  0  0  0  0  0  0  0  0  0  0
    6.7619    4.2631    0.0000 C   0  0  0  0  0  0  0  0  0  0  0  0
    6.7619    2.5311    0.0000 C   0  0  0  0  0  0  0  0  0  0  0  0
    4.6783    4.2018    0.0000 C   0  0  0  0  0  0  0  0  0  0  0  0
    3.7320    2.8971    0.0000 C   0  0  0  0  0  0  0  0  0  0  0  0
    2.8660    4.3971    0.0000 C   0  0  0  0  0  0  0  0  0  0  0  0
    2.8660    2.3971    0.0000 C   0  0  0  0  0  0  0  0  0  0  0  0
    2.0000    3.8971    0.0000 C   0  0  0  0  0  0  0  0  0  0  0  0
    2.0000    2.8971    0.0000 C   0  0  0  0  0  0  0  0  0  0  0  0
   11.7869    0.3315    0.0000 H   0  0  0  0  0  0  0  0  0  0  0  0
   11.7869   -0.4655    0.0000 H   0  0  0  0  0  0  0  0  0  0  0  0
   14.3445    1.0111    0.0000 H   0  0  0  0  0  0  0  0  0  0  0  0
   13.6542    1.4096    0.0000 H   0  0  0  0  0  0  0  0  0  0  0  0
   12.1793   -1.1451    0.0000 H   0  0  0  0  0  0  0  0  0  0  0  0
   12.8695   -1.5436    0.0000 H   0  0  0  0  0  0  0  0  0  0  0  0
   14.7368   -0.4655    0.0000 H   0  0  0  0  0  0  0  0  0  0  0  0
   14.7368    0.3315    0.0000 H   0  0  0  0  0  0  0  0  0  0  0  0
   12.8445    1.8771    0.0000 H   0  0  0  0  0  0  0  0  0  0  0  0
   12.1542    2.2756    0.0000 H   0  0  0  0  0  0  0  0  0  0  0  0
   10.6793    1.4530    0.0000 H   0  0  0  0  0  0  0  0  0  0  0  0
   11.3695    1.0545    0.0000 H   0  0  0  0  0  0  0  0  0  0  0  0
   11.3445    2.7431    0.0000 H   0  0  0  0  0  0  0  0  0  0  0  0
   10.6542    3.1417    0.0000 H   0  0  0  0  0  0  0  0  0  0  0  0
    9.1793    2.3190    0.0000 H   0  0  0  0  0  0  0  0  0  0  0  0
    9.8695    1.9205    0.0000 H   0  0  0  0  0  0  0  0  0  0  0  0
   15.5719   -1.2621    0.0000 H   0  0  0  0  0  0  0  0  0  0  0  0
   16.3819   -2.6651    0.0000 H   0  0  0  0  0  0  0  0  0  0  0  0
   15.5719   -4.0680    0.0000 H   0  0  0  0  0  0  0  0  0  0  0  0
    8.0719    4.8001    0.0000 H   0  0  0  0  0  0  0  0  0  0  0  0
    8.0719    1.9942    0.0000 H   0  0  0  0  0  0  0  0  0  0  0  0
    6.4519    4.8001    0.0000 H   0  0  0  0  0  0  0  0  0  0  0  0
    6.4519    1.9942    0.0000 H   0  0  0  0  0  0  0  0  0  0  0  0
    4.8709    4.7912    0.0000 H   0  0  0  0  0  0  0  0  0  0  0  0
    2.8660    5.0171    0.0000 H   0  0  0  0  0  0  0  0  0  0  0  0
    2.8660    1.7771    0.0000 H   0  0  0  0  0  0  0  0  0  0  0  0
    1.4631    4.2071    0.0000 H   0  0  0  0  0  0  0  0  0  0  0  0
    1.4631    2.5871    0.0000 H   0  0  0  0  0  0  0  0  0  0  0  0
  1 17  1  0  0  0  0
  2 19  1  0  0  0  0
  3 16  1  0  0  0  0
  3 22  1  0  0  0  0
  4  8  1  0  0  0  0
  4  9  1  0  0  0  0
  4 12  1  0  0  0  0
  5 10  1  0  0  0  0
  5 11  1  0  0  0  0
  5 14  1  0  0  0  0
  6 29  1  0  0  0  0
  6 30  1  0  0  0  0
  6 31  1  0  0  0  0
  7 26  1  0  0  0  0
  7 30  2  0  0  0  0
  8 10  1  0  0  0  0
  8 35  1  0  0  0  0
  8 36  1  0  0  0  0
  9 11  1  0  0  0  0
  9 37  1  0  0  0  0
  9 38  1  0  0  0  0
 10 39  1  0  0  0  0
 10 40  1  0  0  0  0
 11 41  1  0  0  0  0
 11 42  1  0  0  0  0
 12 13  1  0  0  0  0
 12 43  1  0  0  0  0
 12 44  1  0  0  0  0
 13 15  1  0  0  0  0
 13 45  1  0  0  0  0
 13 46  1  0  0  0  0
 14 17  2  0  0  0  0
 14 18  1  0  0  0  0
 15 16  1  0  0  0  0
 15 47  1  0  0  0  0
 15 48  1  0  0  0  0
 16 49  1  0  0  0  0
 16 50  1  0  0  0  0
 17 19  1  0  0  0  0
 18 20  2  0  0  0  0
 18 51  1  0  0  0  0
 19 21  2  0  0  0  0
 20 21  1  0  0  0  0
 20 52  1  0  0  0  0
 21 53  1  0  0  0  0
 22 23  2  0  0  0  0
 22 24  1  0  0  0  0
 23 27  1  0  0  0  0
 23 54  1  0  0  0  0
 24 28  2  0  0  0  0
 24 55  1  0  0  0  0
 25 26  1  0  0  0  0
 25 27  2  0  0  0  0
 25 28  1  0  0  0  0
 26 29  2  0  0  0  0
 27 56  1  0  0  0  0
 28 57  1  0  0  0  0
 29 58  1  0  0  0  0
 30 32  1  0  0  0  0
 31 33  2  0  0  0  0
 31 59  1  0  0  0  0
 32 34  2  0  0  0  0
 32 60  1  0  0  0  0
 33 34  1  0  0  0  0
 33 61  1  0  0  0  0
 34 62  1  0  0  0  0
M  END
> <PUBCHEM_COMPOUND_CID>
23625542

> <PUBCHEM_COMPOUND_CANONICALIZED>
1

> <PUBCHEM_CACTVS_COMPLEXITY>
611

> <PUBCHEM_CACTVS_HBOND_ACCEPTOR>
4

> <PUBCHEM_CACTVS_HBOND_DONOR>
0

> <PUBCHEM_CACTVS_ROTATABLE_BOND>
8

> <PUBCHEM_CACTVS_SUBSKEYS>
AAADceB7oAAGAAAAAAAAAAAAAAAAAWAAAAA8eIEAAAAAAFgB9AAAHgIAAAAADA7hnyY99p8MHACgAzZnZACCiC0xN6AJ2mA+fpiMbuLFu5vWOCjswBPI6Cew0IMOIAAAAAIAABRAAAAABAAAKAAAAAAAAA==

> <PUBCHEM_IUPAC_OPENEYE_NAME>
2-[4-[4-[4-(2,3-dichlorophenyl)piperazin-1-yl]butoxy]phenyl]imidazo[1,2-a]pyridine

> <PUBCHEM_IUPAC_CAS_NAME>
2-[4-[4-[4-(2,3-dichlorophenyl)-1-piperazinyl]butoxy]phenyl]imidazo[1,2-a]pyridine

> <PUBCHEM_IUPAC_NAME_MARKUP>
2-[4-[4-[4-(2,3-dichlorophenyl)piperazin-1-yl]butoxy]phenyl]imidazo[1,2-a]pyridine

> <PUBCHEM_IUPAC_NAME>
2-[4-[4-[4-(2,3-dichlorophenyl)piperazin-1-yl]butoxy]phenyl]imidazo[1,2-a]pyridine

> <PUBCHEM_IUPAC_SYSTEMATIC_NAME>
2-[4-[4-[4-[2,3-bis(chloranyl)phenyl]piperazin-1-yl]butoxy]phenyl]imidazo[1,2-a]pyridine

> <PUBCHEM_IUPAC_TRADITIONAL_NAME>
2-[4-[4-[4-(2,3-dichlorophenyl)piperazino]butoxy]phenyl]imidazo[1,2-a]pyridine

> <PUBCHEM_IUPAC_INCHI>
InChI=1S/C27H28Cl2N4O/c28-23-6-5-7-25(27(23)29)32-17-15-31(16-18-32)13-3-4-19-34-22-11-9-21(10-12-22)24-20-33-14-2-1-8-26(33)30-24/h1-2,5-12,14,20H,3-4,13,15-19H2

> <PUBCHEM_IUPAC_INCHIKEY>
LCQHZYPIAQQJES-UHFFFAOYSA-N

> <PUBCHEM_XLOGP3_AA>
7

> <PUBCHEM_EXACT_MASS>
494.1640169

> <PUBCHEM_MOLECULAR_FORMULA>
C27H28Cl2N4O

> <PUBCHEM_MOLECULAR_WEIGHT>
495.4

> <PUBCHEM_OPENEYE_CAN_SMILES>
C1CN(CCN1CCCCOC2=CC=C(C=C2)C3=CN4C=CC=CC4=N3)C5=C(C(=CC=C5)Cl)Cl

> <PUBCHEM_OPENEYE_ISO_SMILES>
C1CN(CCN1CCCCOC2=CC=C(C=C2)C3=CN4C=CC=CC4=N3)C5=C(C(=CC=C5)Cl)Cl

> <PUBCHEM_CACTVS_TPSA>
33

> <PUBCHEM_MONOISOTOPIC_WEIGHT>
494.1640169

> <PUBCHEM_TOTAL_CHARGE>
0

> <PUBCHEM_HEAVY_ATOM_COUNT>
34

> <PUBCHEM_ATOM_DEF_STEREO_COUNT>
0

> <PUBCHEM_ATOM_UDEF_STEREO_COUNT>
0

> <PUBCHEM_BOND_DEF_STEREO_COUNT>
0

> <PUBCHEM_BOND_UDEF_STEREO_COUNT>
0

> <PUBCHEM_ISOTOPIC_ATOM_COUNT>
0

> <PUBCHEM_COMPONENT_COUNT>
1

> <PUBCHEM_CACTVS_TAUTO_COUNT>
-1

> <PUBCHEM_COORDINATE_TYPE>
1
5
255

> <PUBCHEM_BONDANNOTATIONS>
14  17  8
14  18  8
17  19  8
18  20  8
19  21  8
20  21  8
22  23  8
22  24  8
23  27  8
24  28  8
25  27  8
25  28  8
26  29  8
30  32  8
31  33  8
32  34  8
33  34  8
6  29  8
6  30  8
6  31  8
7  26  8
7  30  8

$$$$
