44415394
  -OEChem-09292322282D

 60 64  0     0  0  0  0  0  0999 V2000
    8.7204    1.4297    0.0000 Cl  0  0  0  0  0  0  0  0  0  0  0  0
    6.6150   -0.8973    0.0000 O   0  0  0  0  0  0  0  0  0  0  0  0
    3.9491    3.1944    0.0000 N   0  0  0  0  0  0  0  0  0  0  0  0
    3.0814    4.9963    0.0000 N   0  0  0  0  0  0  0  0  0  0  0  0
    5.3830    2.2934    0.0000 N   0  0  0  0  0  0  0  0  0  0  0  0
    4.8830    0.1027    0.0000 N   0  0  0  0  0  0  0  0  0  0  0  0
    4.8830   -0.8973    0.0000 N   0  0  0  0  0  0  0  0  0  0  0  0
    2.9519    3.2691    0.0000 C   0  0  0  0  0  0  0  0  0  0  0  0
    4.5125    4.0206    0.0000 C   0  0  0  0  0  0  0  0  0  0  0  0
    2.5180    4.1701    0.0000 C   0  0  0  0  0  0  0  0  0  0  0  0
    4.0786    4.9216    0.0000 C   0  0  0  0  0  0  0  0  0  0  0  0
    4.3830    2.2934    0.0000 C   0  0  0  0  0  0  0  0  0  0  0  0
    3.7595    1.5116    0.0000 C   0  0  0  0  0  0  0  0  0  0  0  0
    2.6475    5.8973    0.0000 C   0  0  0  0  0  0  0  0  0  0  0  0
    3.9820    0.5366    0.0000 C   0  0  0  0  0  0  0  0  0  0  0  0
    6.0065    1.5115    0.0000 C   0  0  0  0  0  0  0  0  0  0  0  0
    5.7840    0.5366    0.0000 C   0  0  0  0  0  0  0  0  0  0  0  0
    2.7690    1.8339    0.0000 C   0  0  0  0  0  0  0  0  0  0  0  0
    3.2295   -0.1835    0.0000 C   0  0  0  0  0  0  0  0  0  0  0  0
    2.0000    1.1313    0.0000 C   0  0  0  0  0  0  0  0  0  0  0  0
    6.5365   -0.1836    0.0000 C   0  0  0  0  0  0  0  0  0  0  0  0
    6.9970    1.8339    0.0000 C   0  0  0  0  0  0  0  0  0  0  0  0
    2.2318    0.1158    0.0000 C   0  0  0  0  0  0  0  0  0  0  0  0
    7.5342    0.1158    0.0000 C   0  0  0  0  0  0  0  0  0  0  0  0
    7.7660    1.1313    0.0000 C   0  0  0  0  0  0  0  0  0  0  0  0
    5.7490   -1.3973    0.0000 C   0  0  0  0  0  0  0  0  0  0  0  0
    5.7490   -2.3973    0.0000 C   0  0  0  0  0  0  0  0  0  0  0  0
    6.6150   -2.8973    0.0000 C   0  0  0  0  0  0  0  0  0  0  0  0
    6.6150   -3.8973    0.0000 C   0  0  0  0  0  0  0  0  0  0  0  0
    5.7490   -4.3973    0.0000 C   0  0  0  0  0  0  0  0  0  0  0  0
    7.4810   -4.3973    0.0000 C   0  0  0  0  0  0  0  0  0  0  0  0
    5.7490   -5.3973    0.0000 C   0  0  0  0  0  0  0  0  0  0  0  0
    7.4810   -5.3973    0.0000 C   0  0  0  0  0  0  0  0  0  0  0  0
    6.6150   -5.8973    0.0000 C   0  0  0  0  0  0  0  0  0  0  0  0
    2.3551    3.1012    0.0000 H   0  0  0  0  0  0  0  0  0  0  0  0
    3.0137    2.6522    0.0000 H   0  0  0  0  0  0  0  0  0  0  0  0
    4.9563    3.5877    0.0000 H   0  0  0  0  0  0  0  0  0  0  0  0
    5.0159    4.3825    0.0000 H   0  0  0  0  0  0  0  0  0  0  0  0
    2.0742    4.6030    0.0000 H   0  0  0  0  0  0  0  0  0  0  0  0
    2.0146    3.8082    0.0000 H   0  0  0  0  0  0  0  0  0  0  0  0
    4.6754    5.0895    0.0000 H   0  0  0  0  0  0  0  0  0  0  0  0
    4.0168    5.5385    0.0000 H   0  0  0  0  0  0  0  0  0  0  0  0
    3.2061    6.1663    0.0000 H   0  0  0  0  0  0  0  0  0  0  0  0
    2.3785    6.4559    0.0000 H   0  0  0  0  0  0  0  0  0  0  0  0
    2.0889    5.6283    0.0000 H   0  0  0  0  0  0  0  0  0  0  0  0
    2.6380    2.4399    0.0000 H   0  0  0  0  0  0  0  0  0  0  0  0
    3.3744   -0.7864    0.0000 H   0  0  0  0  0  0  0  0  0  0  0  0
    1.4083    1.3164    0.0000 H   0  0  0  0  0  0  0  0  0  0  0  0
    6.3916   -0.7864    0.0000 H   0  0  0  0  0  0  0  0  0  0  0  0
    7.1280    2.4399    0.0000 H   0  0  0  0  0  0  0  0  0  0  0  0
    1.7789   -0.3076    0.0000 H   0  0  0  0  0  0  0  0  0  0  0  0
    4.3460   -1.2073    0.0000 H   0  0  0  0  0  0  0  0  0  0  0  0
    7.9871   -0.3077    0.0000 H   0  0  0  0  0  0  0  0  0  0  0  0
    5.2121   -2.7073    0.0000 H   0  0  0  0  0  0  0  0  0  0  0  0
    7.1520   -2.5873    0.0000 H   0  0  0  0  0  0  0  0  0  0  0  0
    5.2120   -4.0873    0.0000 H   0  0  0  0  0  0  0  0  0  0  0  0
    8.0180   -4.0873    0.0000 H   0  0  0  0  0  0  0  0  0  0  0  0
    5.2120   -5.7073    0.0000 H   0  0  0  0  0  0  0  0  0  0  0  0
    8.0180   -5.7073    0.0000 H   0  0  0  0  0  0  0  0  0  0  0  0
    6.6150   -6.5173    0.0000 H   0  0  0  0  0  0  0  0  0  0  0  0
  1 25  1  0  0  0  0
  2 26  2  0  0  0  0
  3  8  1  0  0  0  0
  3  9  1  0  0  0  0
  3 12  1  0  0  0  0
  4 10  1  0  0  0  0
  4 11  1  0  0  0  0
  4 14  1  0  0  0  0
  5 12  2  0  0  0  0
  5 16  1  0  0  0  0
  6  7  1  0  0  0  0
  6 15  1  0  0  0  0
  6 17  1  0  0  0  0
  7 26  1  0  0  0  0
  7 52  1  0  0  0  0
  8 10  1  0  0  0  0
  8 35  1  0  0  0  0
  8 36  1  0  0  0  0
  9 11  1  0  0  0  0
  9 37  1  0  0  0  0
  9 38  1  0  0  0  0
 10 39  1  0  0  0  0
 10 40  1  0  0  0  0
 11 41  1  0  0  0  0
 11 42  1  0  0  0  0
 12 13  1  0  0  0  0
 13 15  1  0  0  0  0
 13 18  2  0  0  0  0
 14 43  1  0  0  0  0
 14 44  1  0  0  0  0
 14 45  1  0  0  0  0
 15 19  2  0  0  0  0
 16 17  2  0  0  0  0
 16 22  1  0  0  0  0
 17 21  1  0  0  0  0
 18 20  1  0  0  0  0
 18 46  1  0  0  0  0
 19 23  1  0  0  0  0
 19 47  1  0  0  0  0
 20 23  2  0  0  0  0
 20 48  1  0  0  0  0
 21 24  2  0  0  0  0
 21 49  1  0  0  0  0
 22 25  2  0  0  0  0
 22 50  1  0  0  0  0
 23 51  1  0  0  0  0
 24 25  1  0  0  0  0
 24 53  1  0  0  0  0
 26 27  1  0  0  0  0
 27 28  2  0  0  0  0
 27 54  1  0  0  0  0
 28 29  1  0  0  0  0
 28 55  1  0  0  0  0
 29 30  2  0  0  0  0
 29 31  1  0  0  0  0
 30 32  1  0  0  0  0
 30 56  1  0  0  0  0
 31 33  2  0  0  0  0
 31 57  1  0  0  0  0
 32 34  2  0  0  0  0
 32 58  1  0  0  0  0
 33 34  1  0  0  0  0
 33 59  1  0  0  0  0
 34 60  1  0  0  0  0
M  END
> <PUBCHEM_COMPOUND_CID>
44415394

> <PUBCHEM_COMPOUND_CANONICALIZED>
1

> <PUBCHEM_CACTVS_COMPLEXITY>
758

> <PUBCHEM_CACTVS_HBOND_ACCEPTOR>
4

> <PUBCHEM_CACTVS_HBOND_DONOR>
1

> <PUBCHEM_CACTVS_ROTATABLE_BOND>
4

> <PUBCHEM_CACTVS_SUBSKEYS>
AAADceB7oAAEAAAAAAAAAAAAAAAAAAAAAAA8YMEABAAAAAABUAAAHgIYAAAADArBmCQzwINiAACoAidydACCBAEhBwAbqAAodtgIYOLB25GUIAhgkADIyYcQgAAOAABAAAICACAAAIAABAQAQAAAAAAAAA==

> <PUBCHEM_IUPAC_OPENEYE_NAME>
(E)-N-[3-chloro-6-(4-methylpiperazin-1-yl)benzo[b][1,4]benzodiazepin-11-yl]-3-phenyl-prop-2-enamide

> <PUBCHEM_IUPAC_CAS_NAME>
(E)-N-[3-chloro-6-(4-methyl-1-piperazinyl)-11-benzo[b][1,4]benzodiazepinyl]-3-phenyl-2-propenamide

> <PUBCHEM_IUPAC_NAME_MARKUP>
(<I>E</I>)-<I>N</I>-[3-chloro-6-(4-methylpiperazin-1-yl)benzo[b][1,4]benzodiazepin-11-yl]-3-phenylprop-2-enamide

> <PUBCHEM_IUPAC_NAME>
(E)-N-[3-chloro-6-(4-methylpiperazin-1-yl)benzo[b][1,4]benzodiazepin-11-yl]-3-phenylprop-2-enamide

> <PUBCHEM_IUPAC_SYSTEMATIC_NAME>
(E)-N-[3-chloranyl-6-(4-methylpiperazin-1-yl)benzo[b][1,4]benzodiazepin-11-yl]-3-phenyl-prop-2-enamide

> <PUBCHEM_IUPAC_TRADITIONAL_NAME>
(E)-N-[3-chloro-6-(4-methylpiperazino)benzo[b][1,4]benzodiazepin-11-yl]-3-phenyl-acrylamide

> <PUBCHEM_IUPAC_INCHI>
InChI=1S/C27H26ClN5O/c1-31-15-17-32(18-16-31)27-22-9-5-6-10-24(22)33(25-13-12-21(28)19-23(25)29-27)30-26(34)14-11-20-7-3-2-4-8-20/h2-14,19H,15-18H2,1H3,(H,30,34)/b14-11+

> <PUBCHEM_IUPAC_INCHIKEY>
SRVIPQXGTQCEKQ-SDNWHVSQSA-N

> <PUBCHEM_XLOGP3_AA>
4.8

> <PUBCHEM_EXACT_MASS>
471.1825882

> <PUBCHEM_MOLECULAR_FORMULA>
C27H26ClN5O

> <PUBCHEM_MOLECULAR_WEIGHT>
472.0

> <PUBCHEM_OPENEYE_CAN_SMILES>
CN1CCN(CC1)C2=NC3=C(C=CC(=C3)Cl)N(C4=CC=CC=C42)NC(=O)C=CC5=CC=CC=C5

> <PUBCHEM_OPENEYE_ISO_SMILES>
CN1CCN(CC1)C2=NC3=C(C=CC(=C3)Cl)N(C4=CC=CC=C42)NC(=O)/C=C/C5=CC=CC=C5

> <PUBCHEM_CACTVS_TPSA>
51.2

> <PUBCHEM_MONOISOTOPIC_WEIGHT>
471.1825882

> <PUBCHEM_TOTAL_CHARGE>
0

> <PUBCHEM_HEAVY_ATOM_COUNT>
34

> <PUBCHEM_ATOM_DEF_STEREO_COUNT>
0

> <PUBCHEM_ATOM_UDEF_STEREO_COUNT>
0

> <PUBCHEM_BOND_DEF_STEREO_COUNT>
1

> <PUBCHEM_BOND_UDEF_STEREO_COUNT>
0

> <PUBCHEM_ISOTOPIC_ATOM_COUNT>
0

> <PUBCHEM_COMPONENT_COUNT>
1

> <PUBCHEM_CACTVS_TAUTO_COUNT>
-1

> <PUBCHEM_COORDINATE_TYPE>
1
5
255

> <PUBCHEM_BONDANNOTATIONS>
13  15  8
13  18  8
15  19  8
16  17  8
16  22  8
17  21  8
18  20  8
19  23  8
20  23  8
21  24  8
22  25  8
24  25  8
29  30  8
29  31  8
30  32  8
31  33  8
32  34  8
33  34  8

$$$$
