57391896
  -OEChem-09292322322D

153158  0     0  0  0  0  0  0999 V2000
   24.5167   15.2500    0.0000 O   0  0  0  0  0  0  0  0  0  0  0  0
    2.8660  -16.2500    0.0000 O   0  0  0  0  0  0  0  0  0  0  0  0
   17.5885   12.2500    0.0000 O   0  0  0  0  0  0  0  0  0  0  0  0
    5.4641   -8.7500    0.0000 O   0  0  0  0  0  0  0  0  0  0  0  0
   17.5885    7.2500    0.0000 O   0  0  0  0  0  0  0  0  0  0  0  0
    9.7942   -6.2500    0.0000 O   0  0  0  0  0  0  0  0  0  0  0  0
   16.7224    4.7500    0.0000 O   0  0  0  0  0  0  0  0  0  0  0  0
   11.5263   -4.2500    0.0000 O   0  0  0  0  0  0  0  0  0  0  0  0
   14.9904    2.7500    0.0000 O   0  0  0  0  0  0  0  0  0  0  0  0
   12.3923   -1.7500    0.0000 O   0  0  0  0  0  0  0  0  0  0  0  0
   14.1244    0.2500    0.0000 O   0  0  0  0  0  0  0  0  0  0  0  0
   21.0526   15.2500    0.0000 N   0  0  0  0  0  0  0  0  0  0  0  0
    4.5981  -13.2500    0.0000 N   0  0  0  0  0  0  0  0  0  0  0  0
   22.7846   16.2500    0.0000 N   0  0  0  0  0  0  0  0  0  0  0  0
    4.5981  -15.2500    0.0000 N   0  0  0  0  0  0  0  0  0  0  0  0
   19.3205   12.2500    0.0000 N   0  0  0  0  0  0  0  0  0  0  0  0
    6.3301  -10.2500    0.0000 N   0  0  0  0  0  0  0  0  0  0  0  0
   21.9186   14.7500    0.0000 C   0  0  0  0  0  0  0  0  0  0  0  0
   21.0526   16.2500    0.0000 C   0  0  0  0  0  0  0  0  0  0  0  0
    5.4641  -13.7500    0.0000 C   0  0  0  0  0  0  0  0  0  0  0  0
    3.7320  -13.7500    0.0000 C   0  0  0  0  0  0  0  0  0  0  0  0
   22.7846   15.2500    0.0000 C   0  0  0  0  0  0  0  0  0  0  0  0
   21.9186   16.7500    0.0000 C   0  0  0  0  0  0  0  0  0  0  0  0
    5.4641  -14.7500    0.0000 C   0  0  0  0  0  0  0  0  0  0  0  0
    3.7320  -14.7500    0.0000 C   0  0  0  0  0  0  0  0  0  0  0  0
   20.1865   14.7500    0.0000 C   0  0  0  0  0  0  0  0  0  0  0  0
    4.5981  -12.2500    0.0000 C   0  0  0  0  0  0  0  0  0  0  0  0
   20.1865   13.7500    0.0000 C   0  0  0  0  0  0  0  0  0  0  0  0
    5.4641  -11.7500    0.0000 C   0  0  0  0  0  0  0  0  0  0  0  0
   23.6506   16.7500    0.0000 C   0  0  0  0  0  0  0  0  0  0  0  0
    4.5981  -16.2500    0.0000 C   0  0  0  0  0  0  0  0  0  0  0  0
   19.3205   13.2500    0.0000 C   0  0  0  0  0  0  0  0  0  0  0  0
    5.4641  -10.7500    0.0000 C   0  0  0  0  0  0  0  0  0  0  0  0
   24.5167   16.2500    0.0000 C   0  0  0  0  0  0  0  0  0  0  0  0
    3.7320  -16.7500    0.0000 C   0  0  0  0  0  0  0  0  0  0  0  0
   23.6506   17.7500    0.0000 C   0  0  0  0  0  0  0  0  0  0  0  0
    5.4641  -16.7500    0.0000 C   0  0  0  0  0  0  0  0  0  0  0  0
   25.3827   16.7500    0.0000 C   0  0  0  0  0  0  0  0  0  0  0  0
    3.7320  -17.7500    0.0000 C   0  0  0  0  0  0  0  0  0  0  0  0
   24.5167   18.2500    0.0000 C   0  0  0  0  0  0  0  0  0  0  0  0
    5.4641  -17.7500    0.0000 C   0  0  0  0  0  0  0  0  0  0  0  0
   25.3827   17.7500    0.0000 C   0  0  0  0  0  0  0  0  0  0  0  0
    4.5981  -18.2500    0.0000 C   0  0  0  0  0  0  0  0  0  0  0  0
   18.4545   11.7500    0.0000 C   0  0  0  0  0  0  0  0  0  0  0  0
    6.3301   -9.2500    0.0000 C   0  0  0  0  0  0  0  0  0  0  0  0
   25.3827   14.7500    0.0000 C   0  0  0  0  0  0  0  0  0  0  0  0
    2.0000  -16.7500    0.0000 C   0  0  0  0  0  0  0  0  0  0  0  0
   18.4545   10.7500    0.0000 C   0  0  0  0  0  0  0  0  0  0  0  0
    7.1962   -8.7500    0.0000 C   0  0  0  0  0  0  0  0  0  0  0  0
   19.3205   10.2500    0.0000 C   0  0  0  0  0  0  0  0  0  0  0  0
    8.0622   -9.2500    0.0000 C   0  0  0  0  0  0  0  0  0  0  0  0
   17.5885   10.2500    0.0000 C   0  0  0  0  0  0  0  0  0  0  0  0
    7.1962   -7.7500    0.0000 C   0  0  0  0  0  0  0  0  0  0  0  0
   19.3205    9.2500    0.0000 C   0  0  0  0  0  0  0  0  0  0  0  0
    8.9282   -8.7500    0.0000 C   0  0  0  0  0  0  0  0  0  0  0  0
   17.5885    9.2500    0.0000 C   0  0  0  0  0  0  0  0  0  0  0  0
    8.0622   -7.2500    0.0000 C   0  0  0  0  0  0  0  0  0  0  0  0
   18.4545    8.7500    0.0000 C   0  0  0  0  0  0  0  0  0  0  0  0
    8.9282   -7.7500    0.0000 C   0  0  0  0  0  0  0  0  0  0  0  0
   18.4545    7.7500    0.0000 C   0  0  0  0  0  0  0  0  0  0  0  0
    9.7942   -7.2500    0.0000 C   0  0  0  0  0  0  0  0  0  0  0  0
   17.5885    6.2500    0.0000 C   0  0  0  0  0  0  0  0  0  0  0  0
   10.6603   -5.7500    0.0000 C   0  0  0  0  0  0  0  0  0  0  0  0
   16.7224    5.7500    0.0000 C   0  0  0  0  0  0  0  0  0  0  0  0
   10.6603   -4.7500    0.0000 C   0  0  0  0  0  0  0  0  0  0  0  0
   15.8564    4.2500    0.0000 C   0  0  0  0  0  0  0  0  0  0  0  0
   11.5263   -3.2500    0.0000 C   0  0  0  0  0  0  0  0  0  0  0  0
   15.8564    3.2500    0.0000 C   0  0  0  0  0  0  0  0  0  0  0  0
   12.3923   -2.7500    0.0000 C   0  0  0  0  0  0  0  0  0  0  0  0
   14.9904    1.7500    0.0000 C   0  0  0  0  0  0  0  0  0  0  0  0
   13.2583   -1.2500    0.0000 C   0  0  0  0  0  0  0  0  0  0  0  0
   14.1244    1.2500    0.0000 C   0  0  0  0  0  0  0  0  0  0  0  0
   13.2583   -0.2500    0.0000 C   0  0  0  0  0  0  0  0  0  0  0  0
   21.5201   14.2751    0.0000 H   0  0  0  0  0  0  0  0  0  0  0  0
   22.3171   14.2751    0.0000 H   0  0  0  0  0  0  0  0  0  0  0  0
   20.8405   16.8326    0.0000 H   0  0  0  0  0  0  0  0  0  0  0  0
   20.4420   16.1423    0.0000 H   0  0  0  0  0  0  0  0  0  0  0  0
    6.0747  -13.8577    0.0000 H   0  0  0  0  0  0  0  0  0  0  0  0
    5.6762  -13.1674    0.0000 H   0  0  0  0  0  0  0  0  0  0  0  0
    3.5200  -13.1674    0.0000 H   0  0  0  0  0  0  0  0  0  0  0  0
    3.1215  -13.8577    0.0000 H   0  0  0  0  0  0  0  0  0  0  0  0
   22.9967   14.6674    0.0000 H   0  0  0  0  0  0  0  0  0  0  0  0
   23.3952   15.3577    0.0000 H   0  0  0  0  0  0  0  0  0  0  0  0
   22.3171   17.2249    0.0000 H   0  0  0  0  0  0  0  0  0  0  0  0
   21.5201   17.2249    0.0000 H   0  0  0  0  0  0  0  0  0  0  0  0
    5.6762  -15.3326    0.0000 H   0  0  0  0  0  0  0  0  0  0  0  0
    6.0747  -14.6423    0.0000 H   0  0  0  0  0  0  0  0  0  0  0  0
    3.1215  -14.6423    0.0000 H   0  0  0  0  0  0  0  0  0  0  0  0
    3.5200  -15.3326    0.0000 H   0  0  0  0  0  0  0  0  0  0  0  0
   19.9745   15.3326    0.0000 H   0  0  0  0  0  0  0  0  0  0  0  0
   19.5760   14.6423    0.0000 H   0  0  0  0  0  0  0  0  0  0  0  0
    4.3860  -11.6674    0.0000 H   0  0  0  0  0  0  0  0  0  0  0  0
    3.9875  -12.3577    0.0000 H   0  0  0  0  0  0  0  0  0  0  0  0
   20.3986   13.1674    0.0000 H   0  0  0  0  0  0  0  0  0  0  0  0
   20.7971   13.8577    0.0000 H   0  0  0  0  0  0  0  0  0  0  0  0
    5.6762  -12.3326    0.0000 H   0  0  0  0  0  0  0  0  0  0  0  0
    6.0747  -11.6423    0.0000 H   0  0  0  0  0  0  0  0  0  0  0  0
   19.1085   13.8326    0.0000 H   0  0  0  0  0  0  0  0  0  0  0  0
   18.7099   13.1423    0.0000 H   0  0  0  0  0  0  0  0  0  0  0  0
    5.2520  -10.1674    0.0000 H   0  0  0  0  0  0  0  0  0  0  0  0
    4.8535  -10.8577    0.0000 H   0  0  0  0  0  0  0  0  0  0  0  0
   23.1137   18.0600    0.0000 H   0  0  0  0  0  0  0  0  0  0  0  0
    6.0010  -16.4400    0.0000 H   0  0  0  0  0  0  0  0  0  0  0  0
   19.8574   11.9400    0.0000 H   0  0  0  0  0  0  0  0  0  0  0  0
    6.8671  -10.5600    0.0000 H   0  0  0  0  0  0  0  0  0  0  0  0
   25.9196   16.4400    0.0000 H   0  0  0  0  0  0  0  0  0  0  0  0
    3.1951  -18.0600    0.0000 H   0  0  0  0  0  0  0  0  0  0  0  0
   24.5167   18.8700    0.0000 H   0  0  0  0  0  0  0  0  0  0  0  0
    6.0010  -18.0600    0.0000 H   0  0  0  0  0  0  0  0  0  0  0  0
   25.9196   18.0600    0.0000 H   0  0  0  0  0  0  0  0  0  0  0  0
    4.5981  -18.8700    0.0000 H   0  0  0  0  0  0  0  0  0  0  0  0
   25.0727   14.2131    0.0000 H   0  0  0  0  0  0  0  0  0  0  0  0
   25.9196   14.4400    0.0000 H   0  0  0  0  0  0  0  0  0  0  0  0
   25.6927   15.2869    0.0000 H   0  0  0  0  0  0  0  0  0  0  0  0
    1.6900  -16.2131    0.0000 H   0  0  0  0  0  0  0  0  0  0  0  0
    1.4631  -17.0600    0.0000 H   0  0  0  0  0  0  0  0  0  0  0  0
    2.3100  -17.2869    0.0000 H   0  0  0  0  0  0  0  0  0  0  0  0
   19.8574   10.5600    0.0000 H   0  0  0  0  0  0  0  0  0  0  0  0
    8.0622   -9.8700    0.0000 H   0  0  0  0  0  0  0  0  0  0  0  0
   17.0515   10.5600    0.0000 H   0  0  0  0  0  0  0  0  0  0  0  0
    6.6592   -7.4400    0.0000 H   0  0  0  0  0  0  0  0  0  0  0  0
   19.8574    8.9400    0.0000 H   0  0  0  0  0  0  0  0  0  0  0  0
    9.4651   -9.0600    0.0000 H   0  0  0  0  0  0  0  0  0  0  0  0
   17.0515    8.9400    0.0000 H   0  0  0  0  0  0  0  0  0  0  0  0
    8.0622   -6.6300    0.0000 H   0  0  0  0  0  0  0  0  0  0  0  0
   18.6665    7.1674    0.0000 H   0  0  0  0  0  0  0  0  0  0  0  0
   19.0651    7.8577    0.0000 H   0  0  0  0  0  0  0  0  0  0  0  0
   10.0063   -7.8326    0.0000 H   0  0  0  0  0  0  0  0  0  0  0  0
   10.4048   -7.1423    0.0000 H   0  0  0  0  0  0  0  0  0  0  0  0
   17.8005    5.6674    0.0000 H   0  0  0  0  0  0  0  0  0  0  0  0
   18.1990    6.3577    0.0000 H   0  0  0  0  0  0  0  0  0  0  0  0
   10.8723   -6.3326    0.0000 H   0  0  0  0  0  0  0  0  0  0  0  0
   11.2708   -5.6423    0.0000 H   0  0  0  0  0  0  0  0  0  0  0  0
   16.5104    6.3326    0.0000 H   0  0  0  0  0  0  0  0  0  0  0  0
   16.1119    5.6423    0.0000 H   0  0  0  0  0  0  0  0  0  0  0  0
   10.4482   -4.1674    0.0000 H   0  0  0  0  0  0  0  0  0  0  0  0
   10.0497   -4.8577    0.0000 H   0  0  0  0  0  0  0  0  0  0  0  0
   15.6444    4.8326    0.0000 H   0  0  0  0  0  0  0  0  0  0  0  0
   15.2458    4.1423    0.0000 H   0  0  0  0  0  0  0  0  0  0  0  0
   11.3142   -2.6674    0.0000 H   0  0  0  0  0  0  0  0  0  0  0  0
   10.9157   -3.3577    0.0000 H   0  0  0  0  0  0  0  0  0  0  0  0
   16.0685    2.6674    0.0000 H   0  0  0  0  0  0  0  0  0  0  0  0
   16.4670    3.3577    0.0000 H   0  0  0  0  0  0  0  0  0  0  0  0
   12.6044   -3.3326    0.0000 H   0  0  0  0  0  0  0  0  0  0  0  0
   13.0029   -2.6423    0.0000 H   0  0  0  0  0  0  0  0  0  0  0  0
   15.2024    1.1674    0.0000 H   0  0  0  0  0  0  0  0  0  0  0  0
   15.6010    1.8577    0.0000 H   0  0  0  0  0  0  0  0  0  0  0  0
   13.4704   -1.8326    0.0000 H   0  0  0  0  0  0  0  0  0  0  0  0
   13.8689   -1.1423    0.0000 H   0  0  0  0  0  0  0  0  0  0  0  0
   13.9123    1.8326    0.0000 H   0  0  0  0  0  0  0  0  0  0  0  0
   13.5138    1.1423    0.0000 H   0  0  0  0  0  0  0  0  0  0  0  0
   13.0463    0.3326    0.0000 H   0  0  0  0  0  0  0  0  0  0  0  0
   12.6477   -0.3577    0.0000 H   0  0  0  0  0  0  0  0  0  0  0  0
  1 34  1  0  0  0  0
  1 46  1  0  0  0  0
  2 35  1  0  0  0  0
  2 47  1  0  0  0  0
  3 44  2  0  0  0  0
  4 45  2  0  0  0  0
  5 60  1  0  0  0  0
  5 62  1  0  0  0  0
  6 61  1  0  0  0  0
  6 63  1  0  0  0  0
  7 64  1  0  0  0  0
  7 66  1  0  0  0  0
  8 65  1  0  0  0  0
  8 67  1  0  0  0  0
  9 68  1  0  0  0  0
  9 70  1  0  0  0  0
 10 69  1  0  0  0  0
 10 71  1  0  0  0  0
 11 72  1  0  0  0  0
 11 73  1  0  0  0  0
 12 18  1  0  0  0  0
 12 19  1  0  0  0  0
 12 26  1  0  0  0  0
 13 20  1  0  0  0  0
 13 21  1  0  0  0  0
 13 27  1  0  0  0  0
 14 22  1  0  0  0  0
 14 23  1  0  0  0  0
 14 30  1  0  0  0  0
 15 24  1  0  0  0  0
 15 25  1  0  0  0  0
 15 31  1  0  0  0  0
 16 32  1  0  0  0  0
 16 44  1  0  0  0  0
 16104  1  0  0  0  0
 17 33  1  0  0  0  0
 17 45  1  0  0  0  0
 17105  1  0  0  0  0
 18 22  1  0  0  0  0
 18 74  1  0  0  0  0
 18 75  1  0  0  0  0
 19 23  1  0  0  0  0
 19 76  1  0  0  0  0
 19 77  1  0  0  0  0
 20 24  1  0  0  0  0
 20 78  1  0  0  0  0
 20 79  1  0  0  0  0
 21 25  1  0  0  0  0
 21 80  1  0  0  0  0
 21 81  1  0  0  0  0
 22 82  1  0  0  0  0
 22 83  1  0  0  0  0
 23 84  1  0  0  0  0
 23 85  1  0  0  0  0
 24 86  1  0  0  0  0
 24 87  1  0  0  0  0
 25 88  1  0  0  0  0
 25 89  1  0  0  0  0
 26 28  1  0  0  0  0
 26 90  1  0  0  0  0
 26 91  1  0  0  0  0
 27 29  1  0  0  0  0
 27 92  1  0  0  0  0
 27 93  1  0  0  0  0
 28 32  1  0  0  0  0
 28 94  1  0  0  0  0
 28 95  1  0  0  0  0
 29 33  1  0  0  0  0
 29 96  1  0  0  0  0
 29 97  1  0  0  0  0
 30 34  1  0  0  0  0
 30 36  2  0  0  0  0
 31 35  1  0  0  0  0
 31 37  2  0  0  0  0
 32 98  1  0  0  0  0
 32 99  1  0  0  0  0
 33100  1  0  0  0  0
 33101  1  0  0  0  0
 34 38  2  0  0  0  0
 35 39  2  0  0  0  0
 36 40  1  0  0  0  0
 36102  1  0  0  0  0
 37 41  1  0  0  0  0
 37103  1  0  0  0  0
 38 42  1  0  0  0  0
 38106  1  0  0  0  0
 39 43  1  0  0  0  0
 39107  1  0  0  0  0
 40 42  2  0  0  0  0
 40108  1  0  0  0  0
 41 43  2  0  0  0  0
 41109  1  0  0  0  0
 42110  1  0  0  0  0
 43111  1  0  0  0  0
 44 48  1  0  0  0  0
 45 49  1  0  0  0  0
 46112  1  0  0  0  0
 46113  1  0  0  0  0
 46114  1  0  0  0  0
 47115  1  0  0  0  0
 47116  1  0  0  0  0
 47117  1  0  0  0  0
 48 50  2  0  0  0  0
 48 52  1  0  0  0  0
 49 51  2  0  0  0  0
 49 53  1  0  0  0  0
 50 54  1  0  0  0  0
 50118  1  0  0  0  0
 51 55  1  0  0  0  0
 51119  1  0  0  0  0
 52 56  2  0  0  0  0
 52120  1  0  0  0  0
 53 57  2  0  0  0  0
 53121  1  0  0  0  0
 54 58  2  0  0  0  0
 54122  1  0  0  0  0
 55 59  2  0  0  0  0
 55123  1  0  0  0  0
 56 58  1  0  0  0  0
 56124  1  0  0  0  0
 57 59  1  0  0  0  0
 57125  1  0  0  0  0
 58 60  1  0  0  0  0
 59 61  1  0  0  0  0
 60126  1  0  0  0  0
 60127  1  0  0  0  0
 61128  1  0  0  0  0
 61129  1  0  0  0  0
 62 64  1  0  0  0  0
 62130  1  0  0  0  0
 62131  1  0  0  0  0
 63 65  1  0  0  0  0
 63132  1  0  0  0  0
 63133  1  0  0  0  0
 64134  1  0  0  0  0
 64135  1  0  0  0  0
 65136  1  0  0  0  0
 65137  1  0  0  0  0
 66 68  1  0  0  0  0
 66138  1  0  0  0  0
 66139  1  0  0  0  0
 67 69  1  0  0  0  0
 67140  1  0  0  0  0
 67141  1  0  0  0  0
 68142  1  0  0  0  0
 68143  1  0  0  0  0
 69144  1  0  0  0  0
 69145  1  0  0  0  0
 70 72  1  0  0  0  0
 70146  1  0  0  0  0
 70147  1  0  0  0  0
 71 73  1  0  0  0  0
 71148  1  0  0  0  0
 71149  1  0  0  0  0
 72150  1  0  0  0  0
 72151  1  0  0  0  0
 73152  1  0  0  0  0
 73153  1  0  0  0  0
M  END
> <PUBCHEM_COMPOUND_CID>
57391896

> <PUBCHEM_COMPOUND_CANONICALIZED>
1

> <PUBCHEM_CACTVS_COMPLEXITY>
1310

> <PUBCHEM_CACTVS_HBOND_ACCEPTOR>
15

> <PUBCHEM_CACTVS_HBOND_DONOR>
2

> <PUBCHEM_CACTVS_ROTATABLE_BOND>
36

> <PUBCHEM_CACTVS_SUBSKEYS>
AAADcfB/vAAAAAAAAAAAAAAAAAAAAAAAAAA8eMGCAAAAAAABVAAAHgAQAAAADAzhmAYyxoPABACIAiVSUACCCAAlIgAIiIEPbMgPZjLE9ZuXMShk1hHa6YeYyDCOQAAAAAAAEACAAAAAAAAgAAAAAAAAAA==

> <PUBCHEM_IUPAC_OPENEYE_NAME>
N-[3-[4-(2-methoxyphenyl)piperazin-1-yl]propyl]-4-[2-[2-[2-[2-[2-[2-[[4-[3-[4-(2-methoxyphenyl)piperazin-1-yl]propylcarbamoyl]phenyl]methoxy]ethoxy]ethoxy]ethoxy]ethoxy]ethoxy]ethoxymethyl]benzamide

> <PUBCHEM_IUPAC_CAS_NAME>
N-[3-[4-(2-methoxyphenyl)-1-piperazinyl]propyl]-4-[2-[2-[2-[2-[2-[2-[[4-[[3-[4-(2-methoxyphenyl)-1-piperazinyl]propylamino]-oxomethyl]phenyl]methoxy]ethoxy]ethoxy]ethoxy]ethoxy]ethoxy]ethoxymethyl]benzamide

> <PUBCHEM_IUPAC_NAME_MARKUP>
<I>N</I>-[3-[4-(2-methoxyphenyl)piperazin-1-yl]propyl]-4-[2-[2-[2-[2-[2-[2-[[4-[3-[4-(2-methoxyphenyl)piperazin-1-yl]propylcarbamoyl]phenyl]methoxy]ethoxy]ethoxy]ethoxy]ethoxy]ethoxy]ethoxymethyl]benzamide

> <PUBCHEM_IUPAC_NAME>
N-[3-[4-(2-methoxyphenyl)piperazin-1-yl]propyl]-4-[2-[2-[2-[2-[2-[2-[[4-[3-[4-(2-methoxyphenyl)piperazin-1-yl]propylcarbamoyl]phenyl]methoxy]ethoxy]ethoxy]ethoxy]ethoxy]ethoxy]ethoxymethyl]benzamide

> <PUBCHEM_IUPAC_SYSTEMATIC_NAME>
N-[3-[4-(2-methoxyphenyl)piperazin-1-yl]propyl]-4-[2-[2-[2-[2-[2-[2-[[4-[3-[4-(2-methoxyphenyl)piperazin-1-yl]propylcarbamoyl]phenyl]methoxy]ethoxy]ethoxy]ethoxy]ethoxy]ethoxy]ethoxymethyl]benzamide

> <PUBCHEM_IUPAC_TRADITIONAL_NAME>
N-[3-[4-(2-methoxyphenyl)piperazino]propyl]-4-[2-[2-[2-[2-[2-[2-[4-[3-[4-(2-methoxyphenyl)piperazino]propylcarbamoyl]benzyl]oxyethoxy]ethoxy]ethoxy]ethoxy]ethoxy]ethoxymethyl]benzamide

> <PUBCHEM_IUPAC_INCHI>
InChI=1S/C56H80N6O11/c1-65-53-11-5-3-9-51(53)61-29-25-59(26-30-61)23-7-21-57-55(63)49-17-13-47(14-18-49)45-72-43-41-70-39-37-68-35-33-67-34-36-69-38-40-71-42-44-73-46-48-15-19-50(20-16-48)56(64)58-22-8-24-60-27-31-62(32-28-60)52-10-4-6-12-54(52)66-2/h3-6,9-20H,7-8,21-46H2,1-2H3,(H,57,63)(H,58,64)

> <PUBCHEM_IUPAC_INCHIKEY>
JPDDFPJRGRBBJU-UHFFFAOYSA-N

> <PUBCHEM_XLOGP3_AA>
4.7

> <PUBCHEM_EXACT_MASS>
1012.58850739

> <PUBCHEM_MOLECULAR_FORMULA>
C56H80N6O11

> <PUBCHEM_MOLECULAR_WEIGHT>
1013.3

> <PUBCHEM_OPENEYE_CAN_SMILES>
COC1=CC=CC=C1N2CCN(CC2)CCCNC(=O)C3=CC=C(C=C3)COCCOCCOCCOCCOCCOCCOCC4=CC=C(C=C4)C(=O)NCCCN5CCN(CC5)C6=CC=CC=C6OC

> <PUBCHEM_OPENEYE_ISO_SMILES>
COC1=CC=CC=C1N2CCN(CC2)CCCNC(=O)C3=CC=C(C=C3)COCCOCCOCCOCCOCCOCCOCC4=CC=C(C=C4)C(=O)NCCCN5CCN(CC5)C6=CC=CC=C6OC

> <PUBCHEM_CACTVS_TPSA>
154

> <PUBCHEM_MONOISOTOPIC_WEIGHT>
1012.58850739

> <PUBCHEM_TOTAL_CHARGE>
0

> <PUBCHEM_HEAVY_ATOM_COUNT>
73

> <PUBCHEM_ATOM_DEF_STEREO_COUNT>
0

> <PUBCHEM_ATOM_UDEF_STEREO_COUNT>
0

> <PUBCHEM_BOND_DEF_STEREO_COUNT>
0

> <PUBCHEM_BOND_UDEF_STEREO_COUNT>
0

> <PUBCHEM_ISOTOPIC_ATOM_COUNT>
0

> <PUBCHEM_COMPONENT_COUNT>
1

> <PUBCHEM_CACTVS_TAUTO_COUNT>
-1

> <PUBCHEM_COORDINATE_TYPE>
1
5
255

> <PUBCHEM_BONDANNOTATIONS>
30  34  8
30  36  8
31  35  8
31  37  8
34  38  8
35  39  8
36  40  8
37  41  8
38  42  8
39  43  8
40  42  8
41  43  8
48  50  8
48  52  8
49  51  8
49  53  8
50  54  8
51  55  8
52  56  8
53  57  8
54  58  8
55  59  8
56  58  8
57  59  8

$$$$
