44579419
  -OEChem-09292322072D

 62 66  0     0  0  0  0  0  0999 V2000
    2.8660   -6.0519    0.0000 F   0  0  0  0  0  0  0  0  0  0  0  0
    6.8064    6.0519    0.0000 F   0  0  0  0  0  0  0  0  0  0  0  0
    8.2185    5.9754    0.0000 F   0  0  0  0  0  0  0  0  0  0  0  0
    6.7299    4.6397    0.0000 F   0  0  0  0  0  0  0  0  0  0  0  0
    6.2619   -4.0519    0.0000 O   0  0  0  0  0  0  0  0  0  0  0  0
    5.6103   -0.3956    0.0000 N   0  0  0  0  0  0  0  0  0  0  0  0
    6.5422    2.4560    0.0000 N   0  0  0  0  0  0  0  0  0  0  0  0
    4.6783   -3.2471    0.0000 N   0  0  0  0  0  0  0  0  0  0  0  0
    4.6783   -4.8566    0.0000 N   0  0  0  0  0  0  0  0  0  0  0  0
    5.9209    0.5550    0.0000 C   0  0  0  0  0  0  0  0  0  0  0  0
    4.9889   -2.2966    0.0000 C   0  0  0  0  0  0  0  0  0  0  0  0
    6.2781   -1.1399    0.0000 C   0  0  0  0  0  0  0  0  0  0  0  0
    4.6318   -0.6018    0.0000 C   0  0  0  0  0  0  0  0  0  0  0  0
    5.2531    1.2993    0.0000 C   0  0  0  0  0  0  0  0  0  0  0  0
    6.8994    0.7612    0.0000 C   0  0  0  0  0  0  0  0  0  0  0  0
    5.9674   -2.0904    0.0000 C   0  0  0  0  0  0  0  0  0  0  0  0
    4.3211   -1.5523    0.0000 C   0  0  0  0  0  0  0  0  0  0  0  0
    5.5637    2.2498    0.0000 C   0  0  0  0  0  0  0  0  0  0  0  0
    7.2101    1.7117    0.0000 C   0  0  0  0  0  0  0  0  0  0  0  0
    6.8529    3.4065    0.0000 C   0  0  0  0  0  0  0  0  0  0  0  0
    3.7320   -3.5519    0.0000 C   0  0  0  0  0  0  0  0  0  0  0  0
    5.2619   -4.0519    0.0000 C   0  0  0  0  0  0  0  0  0  0  0  0
    3.7320   -4.5519    0.0000 C   0  0  0  0  0  0  0  0  0  0  0  0
    7.8314    3.6127    0.0000 C   0  0  0  0  0  0  0  0  0  0  0  0
    2.8660   -3.0519    0.0000 C   0  0  0  0  0  0  0  0  0  0  0  0
    2.8660   -5.0519    0.0000 C   0  0  0  0  0  0  0  0  0  0  0  0
    8.1421    4.5633    0.0000 C   0  0  0  0  0  0  0  0  0  0  0  0
    8.4993    2.8684    0.0000 C   0  0  0  0  0  0  0  0  0  0  0  0
    2.0000   -3.5519    0.0000 C   0  0  0  0  0  0  0  0  0  0  0  0
    2.0000   -4.5519    0.0000 C   0  0  0  0  0  0  0  0  0  0  0  0
    9.1206    4.7695    0.0000 C   0  0  0  0  0  0  0  0  0  0  0  0
    7.4742    5.3076    0.0000 C   0  0  0  0  0  0  0  0  0  0  0  0
    9.4778    3.0746    0.0000 C   0  0  0  0  0  0  0  0  0  0  0  0
    9.7884    4.0252    0.0000 C   0  0  0  0  0  0  0  0  0  0  0  0
    6.3350    0.0935    0.0000 H   0  0  0  0  0  0  0  0  0  0  0  0
    5.4030   -2.7581    0.0000 H   0  0  0  0  0  0  0  0  0  0  0  0
    6.8250   -1.4319    0.0000 H   0  0  0  0  0  0  0  0  0  0  0  0
    6.6607   -0.6520    0.0000 H   0  0  0  0  0  0  0  0  0  0  0  0
    4.6112    0.0179    0.0000 H   0  0  0  0  0  0  0  0  0  0  0  0
    4.0179   -0.5144    0.0000 H   0  0  0  0  0  0  0  0  0  0  0  0
    4.7062    1.5913    0.0000 H   0  0  0  0  0  0  0  0  0  0  0  0
    4.8705    0.8114    0.0000 H   0  0  0  0  0  0  0  0  0  0  0  0
    6.9200    0.1415    0.0000 H   0  0  0  0  0  0  0  0  0  0  0  0
    7.5132    0.6738    0.0000 H   0  0  0  0  0  0  0  0  0  0  0  0
    5.9880   -2.7100    0.0000 H   0  0  0  0  0  0  0  0  0  0  0  0
    6.5812   -2.1777    0.0000 H   0  0  0  0  0  0  0  0  0  0  0  0
    3.7742   -1.2603    0.0000 H   0  0  0  0  0  0  0  0  0  0  0  0
    3.9385   -2.0402    0.0000 H   0  0  0  0  0  0  0  0  0  0  0  0
    5.5432    2.8694    0.0000 H   0  0  0  0  0  0  0  0  0  0  0  0
    4.9499    2.3371    0.0000 H   0  0  0  0  0  0  0  0  0  0  0  0
    7.7570    1.4197    0.0000 H   0  0  0  0  0  0  0  0  0  0  0  0
    7.5926    2.1996    0.0000 H   0  0  0  0  0  0  0  0  0  0  0  0
    6.8323    4.0262    0.0000 H   0  0  0  0  0  0  0  0  0  0  0  0
    6.2391    3.4939    0.0000 H   0  0  0  0  0  0  0  0  0  0  0  0
    4.8709   -5.4459    0.0000 H   0  0  0  0  0  0  0  0  0  0  0  0
    2.8660   -2.4319    0.0000 H   0  0  0  0  0  0  0  0  0  0  0  0
    8.3066    2.2791    0.0000 H   0  0  0  0  0  0  0  0  0  0  0  0
    1.4631   -3.2419    0.0000 H   0  0  0  0  0  0  0  0  0  0  0  0
    1.4631   -4.8619    0.0000 H   0  0  0  0  0  0  0  0  0  0  0  0
    9.3132    5.3588    0.0000 H   0  0  0  0  0  0  0  0  0  0  0  0
    9.8918    2.6132    0.0000 H   0  0  0  0  0  0  0  0  0  0  0  0
   10.3951    4.1530    0.0000 H   0  0  0  0  0  0  0  0  0  0  0  0
  1 26  1  0  0  0  0
  2 32  1  0  0  0  0
  3 32  1  0  0  0  0
  4 32  1  0  0  0  0
  5 22  2  0  0  0  0
  6 10  1  0  0  0  0
  6 12  1  0  0  0  0
  6 13  1  0  0  0  0
  7 18  1  0  0  0  0
  7 19  1  0  0  0  0
  7 20  1  0  0  0  0
  8 11  1  0  0  0  0
  8 21  1  0  0  0  0
  8 22  1  0  0  0  0
  9 22  1  0  0  0  0
  9 23  1  0  0  0  0
  9 55  1  0  0  0  0
 10 14  1  0  0  0  0
 10 15  1  0  0  0  0
 10 35  1  0  0  0  0
 11 16  1  0  0  0  0
 11 17  1  0  0  0  0
 11 36  1  0  0  0  0
 12 16  1  0  0  0  0
 12 37  1  0  0  0  0
 12 38  1  0  0  0  0
 13 17  1  0  0  0  0
 13 39  1  0  0  0  0
 13 40  1  0  0  0  0
 14 18  1  0  0  0  0
 14 41  1  0  0  0  0
 14 42  1  0  0  0  0
 15 19  1  0  0  0  0
 15 43  1  0  0  0  0
 15 44  1  0  0  0  0
 16 45  1  0  0  0  0
 16 46  1  0  0  0  0
 17 47  1  0  0  0  0
 17 48  1  0  0  0  0
 18 49  1  0  0  0  0
 18 50  1  0  0  0  0
 19 51  1  0  0  0  0
 19 52  1  0  0  0  0
 20 24  1  0  0  0  0
 20 53  1  0  0  0  0
 20 54  1  0  0  0  0
 21 23  2  0  0  0  0
 21 25  1  0  0  0  0
 23 26  1  0  0  0  0
 24 27  1  0  0  0  0
 24 28  2  0  0  0  0
 25 29  2  0  0  0  0
 25 56  1  0  0  0  0
 26 30  2  0  0  0  0
 27 31  2  0  0  0  0
 27 32  1  0  0  0  0
 28 33  1  0  0  0  0
 28 57  1  0  0  0  0
 29 30  1  0  0  0  0
 29 58  1  0  0  0  0
 30 59  1  0  0  0  0
 31 34  1  0  0  0  0
 31 60  1  0  0  0  0
 33 34  2  0  0  0  0
 33 61  1  0  0  0  0
 34 62  1  0  0  0  0
M  END
> <PUBCHEM_COMPOUND_CID>
44579419

> <PUBCHEM_COMPOUND_CANONICALIZED>
1

> <PUBCHEM_CACTVS_COMPLEXITY>
706

> <PUBCHEM_CACTVS_HBOND_ACCEPTOR>
7

> <PUBCHEM_CACTVS_HBOND_DONOR>
1

> <PUBCHEM_CACTVS_ROTATABLE_BOND>
4

> <PUBCHEM_CACTVS_SUBSKEYS>
AAADceB7ocAAAAAAAAAAAAAAAAAAAWAAAAA8eIEAAAAAAFgBQAAAHwAQAAAADCjBGBwxwIPAAACIAiRCUACCAAAhAgAIiAAIdIiIYCLA0ZGUIAhohgLIyCcQgIAOgAAAAAAQACAAAAAAACAAQAAAAAAAAA==

> <PUBCHEM_IUPAC_OPENEYE_NAME>
7-fluoro-3-[1-[1-[[2-(trifluoromethyl)phenyl]methyl]-4-piperidyl]-4-piperidyl]-1H-benzimidazol-2-one

> <PUBCHEM_IUPAC_CAS_NAME>
7-fluoro-3-[1-[1-[[2-(trifluoromethyl)phenyl]methyl]-4-piperidinyl]-4-piperidinyl]-1H-benzimidazol-2-one

> <PUBCHEM_IUPAC_NAME_MARKUP>
7-fluoro-3-[1-[1-[[2-(trifluoromethyl)phenyl]methyl]piperidin-4-yl]piperidin-4-yl]-1<I>H</I>-benzimidazol-2-one

> <PUBCHEM_IUPAC_NAME>
7-fluoro-3-[1-[1-[[2-(trifluoromethyl)phenyl]methyl]piperidin-4-yl]piperidin-4-yl]-1H-benzimidazol-2-one

> <PUBCHEM_IUPAC_SYSTEMATIC_NAME>
7-fluoranyl-3-[1-[1-[[2-(trifluoromethyl)phenyl]methyl]piperidin-4-yl]piperidin-4-yl]-1H-benzimidazol-2-one

> <PUBCHEM_IUPAC_TRADITIONAL_NAME>
7-fluoro-3-[1-[1-[2-(trifluoromethyl)benzyl]-4-piperidyl]-4-piperidyl]-1H-benzimidazol-2-one

> <PUBCHEM_IUPAC_INCHI>
InChI=1S/C25H28F4N4O/c26-21-6-3-7-22-23(21)30-24(34)33(22)19-10-14-32(15-11-19)18-8-12-31(13-9-18)16-17-4-1-2-5-20(17)25(27,28)29/h1-7,18-19H,8-16H2,(H,30,34)

> <PUBCHEM_IUPAC_INCHIKEY>
YCXFJNGLJADSBQ-UHFFFAOYSA-N

> <PUBCHEM_XLOGP3_AA>
4.4

> <PUBCHEM_EXACT_MASS>
476.21992418

> <PUBCHEM_MOLECULAR_FORMULA>
C25H28F4N4O

> <PUBCHEM_MOLECULAR_WEIGHT>
476.5

> <PUBCHEM_OPENEYE_CAN_SMILES>
C1CN(CCC1N2CCC(CC2)N3C4=C(C(=CC=C4)F)NC3=O)CC5=CC=CC=C5C(F)(F)F

> <PUBCHEM_OPENEYE_ISO_SMILES>
C1CN(CCC1N2CCC(CC2)N3C4=C(C(=CC=C4)F)NC3=O)CC5=CC=CC=C5C(F)(F)F

> <PUBCHEM_CACTVS_TPSA>
38.8

> <PUBCHEM_MONOISOTOPIC_WEIGHT>
476.21992418

> <PUBCHEM_TOTAL_CHARGE>
0

> <PUBCHEM_HEAVY_ATOM_COUNT>
34

> <PUBCHEM_ATOM_DEF_STEREO_COUNT>
0

> <PUBCHEM_ATOM_UDEF_STEREO_COUNT>
0

> <PUBCHEM_BOND_DEF_STEREO_COUNT>
0

> <PUBCHEM_BOND_UDEF_STEREO_COUNT>
0

> <PUBCHEM_ISOTOPIC_ATOM_COUNT>
0

> <PUBCHEM_COMPONENT_COUNT>
1

> <PUBCHEM_CACTVS_TAUTO_COUNT>
-1

> <PUBCHEM_COORDINATE_TYPE>
1
5
255

> <PUBCHEM_BONDANNOTATIONS>
21  23  8
21  25  8
23  26  8
24  27  8
24  28  8
25  29  8
26  30  8
27  31  8
28  33  8
29  30  8
31  34  8
33  34  8
8  21  8
8  22  8
9  22  8
9  23  8

$$$$
