70696271
  -OEChem-09292322322D

 58 61  0     0  0  0  0  0  0999 V2000
    5.4641    3.5000    0.0000 O   0  0  0  0  0  0  0  0  0  0  0  0
    2.8660   -2.0000    0.0000 N   0  0  0  0  0  0  0  0  0  0  0  0
    2.8660   -4.0000    0.0000 N   0  0  0  0  0  0  0  0  0  0  0  0
    3.7320    3.5000    0.0000 N   0  0  0  0  0  0  0  0  0  0  0  0
    4.5981    5.0000    0.0000 N   0  0  0  0  0  0  0  0  0  0  0  0
    2.0000   -2.5000    0.0000 C   0  0  0  0  0  0  0  0  0  0  0  0
    3.7320   -2.5000    0.0000 C   0  0  0  0  0  0  0  0  0  0  0  0
    2.0000   -3.5000    0.0000 C   0  0  0  0  0  0  0  0  0  0  0  0
    3.7320   -3.5000    0.0000 C   0  0  0  0  0  0  0  0  0  0  0  0
    2.8660   -1.0000    0.0000 C   0  0  0  0  0  0  0  0  0  0  0  0
    3.7320   -0.5000    0.0000 C   0  0  0  0  0  0  0  0  0  0  0  0
    2.8660   -5.0000    0.0000 C   0  0  0  0  0  0  0  0  0  0  0  0
    3.7320    0.5000    0.0000 C   0  0  0  0  0  0  0  0  0  0  0  0
    2.0000   -5.5000    0.0000 C   0  0  0  0  0  0  0  0  0  0  0  0
    3.7320   -5.5000    0.0000 C   0  0  0  0  0  0  0  0  0  0  0  0
    4.5981    1.0000    0.0000 C   0  0  0  0  0  0  0  0  0  0  0  0
    2.8660    1.0000    0.0000 C   0  0  0  0  0  0  0  0  0  0  0  0
    2.0000   -6.5000    0.0000 C   0  0  0  0  0  0  0  0  0  0  0  0
    3.7320   -6.5000    0.0000 C   0  0  0  0  0  0  0  0  0  0  0  0
    2.8660   -7.0000    0.0000 C   0  0  0  0  0  0  0  0  0  0  0  0
    4.5981    2.0000    0.0000 C   0  0  0  0  0  0  0  0  0  0  0  0
    2.8660    2.0000    0.0000 C   0  0  0  0  0  0  0  0  0  0  0  0
    3.7320    2.5000    0.0000 C   0  0  0  0  0  0  0  0  0  0  0  0
    4.5981    4.0000    0.0000 C   0  0  0  0  0  0  0  0  0  0  0  0
    5.4641    5.5000    0.0000 C   0  0  0  0  0  0  0  0  0  0  0  0
    5.4641    6.5000    0.0000 C   0  0  0  0  0  0  0  0  0  0  0  0
    6.3301    5.0000    0.0000 C   0  0  0  0  0  0  0  0  0  0  0  0
    6.3301    7.0000    0.0000 C   0  0  0  0  0  0  0  0  0  0  0  0
    7.1962    5.5000    0.0000 C   0  0  0  0  0  0  0  0  0  0  0  0
    7.1962    6.5000    0.0000 C   0  0  0  0  0  0  0  0  0  0  0  0
    1.7880   -1.9174    0.0000 H   0  0  0  0  0  0  0  0  0  0  0  0
    1.3894   -2.6077    0.0000 H   0  0  0  0  0  0  0  0  0  0  0  0
    4.3426   -2.6077    0.0000 H   0  0  0  0  0  0  0  0  0  0  0  0
    3.9441   -1.9174    0.0000 H   0  0  0  0  0  0  0  0  0  0  0  0
    1.3894   -3.3923    0.0000 H   0  0  0  0  0  0  0  0  0  0  0  0
    1.7880   -4.0826    0.0000 H   0  0  0  0  0  0  0  0  0  0  0  0
    3.9441   -4.0826    0.0000 H   0  0  0  0  0  0  0  0  0  0  0  0
    4.3426   -3.3923    0.0000 H   0  0  0  0  0  0  0  0  0  0  0  0
    2.6540   -0.4174    0.0000 H   0  0  0  0  0  0  0  0  0  0  0  0
    2.2554   -1.1077    0.0000 H   0  0  0  0  0  0  0  0  0  0  0  0
    3.9441   -1.0826    0.0000 H   0  0  0  0  0  0  0  0  0  0  0  0
    4.3426   -0.3923    0.0000 H   0  0  0  0  0  0  0  0  0  0  0  0
    1.4631   -5.1900    0.0000 H   0  0  0  0  0  0  0  0  0  0  0  0
    4.2690   -5.1900    0.0000 H   0  0  0  0  0  0  0  0  0  0  0  0
    5.1350    0.6900    0.0000 H   0  0  0  0  0  0  0  0  0  0  0  0
    2.3291    0.6900    0.0000 H   0  0  0  0  0  0  0  0  0  0  0  0
    1.4631   -6.8100    0.0000 H   0  0  0  0  0  0  0  0  0  0  0  0
    4.2690   -6.8100    0.0000 H   0  0  0  0  0  0  0  0  0  0  0  0
    2.8660   -7.6200    0.0000 H   0  0  0  0  0  0  0  0  0  0  0  0
    5.1350    2.3100    0.0000 H   0  0  0  0  0  0  0  0  0  0  0  0
    2.3291    2.3100    0.0000 H   0  0  0  0  0  0  0  0  0  0  0  0
    3.1951    3.8100    0.0000 H   0  0  0  0  0  0  0  0  0  0  0  0
    4.0611    5.3100    0.0000 H   0  0  0  0  0  0  0  0  0  0  0  0
    4.9272    6.8100    0.0000 H   0  0  0  0  0  0  0  0  0  0  0  0
    6.3301    4.3800    0.0000 H   0  0  0  0  0  0  0  0  0  0  0  0
    6.3301    7.6200    0.0000 H   0  0  0  0  0  0  0  0  0  0  0  0
    7.7331    5.1900    0.0000 H   0  0  0  0  0  0  0  0  0  0  0  0
    7.7331    6.8100    0.0000 H   0  0  0  0  0  0  0  0  0  0  0  0
  1 24  2  0  0  0  0
  2  6  1  0  0  0  0
  2  7  1  0  0  0  0
  2 10  1  0  0  0  0
  3  8  1  0  0  0  0
  3  9  1  0  0  0  0
  3 12  1  0  0  0  0
  4 23  1  0  0  0  0
  4 24  1  0  0  0  0
  4 52  1  0  0  0  0
  5 24  1  0  0  0  0
  5 25  1  0  0  0  0
  5 53  1  0  0  0  0
  6  8  1  0  0  0  0
  6 31  1  0  0  0  0
  6 32  1  0  0  0  0
  7  9  1  0  0  0  0
  7 33  1  0  0  0  0
  7 34  1  0  0  0  0
  8 35  1  0  0  0  0
  8 36  1  0  0  0  0
  9 37  1  0  0  0  0
  9 38  1  0  0  0  0
 10 11  1  0  0  0  0
 10 39  1  0  0  0  0
 10 40  1  0  0  0  0
 11 13  1  0  0  0  0
 11 41  1  0  0  0  0
 11 42  1  0  0  0  0
 12 14  2  0  0  0  0
 12 15  1  0  0  0  0
 13 16  2  0  0  0  0
 13 17  1  0  0  0  0
 14 18  1  0  0  0  0
 14 43  1  0  0  0  0
 15 19  2  0  0  0  0
 15 44  1  0  0  0  0
 16 21  1  0  0  0  0
 16 45  1  0  0  0  0
 17 22  2  0  0  0  0
 17 46  1  0  0  0  0
 18 20  2  0  0  0  0
 18 47  1  0  0  0  0
 19 20  1  0  0  0  0
 19 48  1  0  0  0  0
 20 49  1  0  0  0  0
 21 23  2  0  0  0  0
 21 50  1  0  0  0  0
 22 23  1  0  0  0  0
 22 51  1  0  0  0  0
 25 26  2  0  0  0  0
 25 27  1  0  0  0  0
 26 28  1  0  0  0  0
 26 54  1  0  0  0  0
 27 29  2  0  0  0  0
 27 55  1  0  0  0  0
 28 30  2  0  0  0  0
 28 56  1  0  0  0  0
 29 30  1  0  0  0  0
 29 57  1  0  0  0  0
 30 58  1  0  0  0  0
M  END
> <PUBCHEM_COMPOUND_CID>
70696271

> <PUBCHEM_COMPOUND_CANONICALIZED>
1

> <PUBCHEM_CACTVS_COMPLEXITY>
499

> <PUBCHEM_CACTVS_HBOND_ACCEPTOR>
3

> <PUBCHEM_CACTVS_HBOND_DONOR>
2

> <PUBCHEM_CACTVS_ROTATABLE_BOND>
6

> <PUBCHEM_CACTVS_SUBSKEYS>
AAADceB7oAAAAAAAAAAAAAAAAAAAAAAAAAA8YMEAAAAAAAABUAAAHgAQAAAADAjBGAQxwIPAAACIAiRCUACCAAAhAgAIiAAIZIiIYCLAkZGUIAholALIyCcQgIAOCAAAAAAAAAAQAAAAAAAAAAAAAAAAAA==

> <PUBCHEM_IUPAC_OPENEYE_NAME>
1-phenyl-3-[4-[2-(4-phenylpiperazin-1-yl)ethyl]phenyl]urea

> <PUBCHEM_IUPAC_CAS_NAME>
1-phenyl-3-[4-[2-(4-phenyl-1-piperazinyl)ethyl]phenyl]urea

> <PUBCHEM_IUPAC_NAME_MARKUP>
1-phenyl-3-[4-[2-(4-phenylpiperazin-1-yl)ethyl]phenyl]urea

> <PUBCHEM_IUPAC_NAME>
1-phenyl-3-[4-[2-(4-phenylpiperazin-1-yl)ethyl]phenyl]urea

> <PUBCHEM_IUPAC_SYSTEMATIC_NAME>
1-phenyl-3-[4-[2-(4-phenylpiperazin-1-yl)ethyl]phenyl]urea

> <PUBCHEM_IUPAC_TRADITIONAL_NAME>
1-phenyl-3-[4-[2-(4-phenylpiperazino)ethyl]phenyl]urea

> <PUBCHEM_IUPAC_INCHI>
InChI=1S/C25H28N4O/c30-25(26-22-7-3-1-4-8-22)27-23-13-11-21(12-14-23)15-16-28-17-19-29(20-18-28)24-9-5-2-6-10-24/h1-14H,15-20H2,(H2,26,27,30)

> <PUBCHEM_IUPAC_INCHIKEY>
FHZHGMCMPLAIMD-UHFFFAOYSA-N

> <PUBCHEM_XLOGP3_AA>
4.4

> <PUBCHEM_EXACT_MASS>
400.22631153

> <PUBCHEM_MOLECULAR_FORMULA>
C25H28N4O

> <PUBCHEM_MOLECULAR_WEIGHT>
400.5

> <PUBCHEM_OPENEYE_CAN_SMILES>
C1CN(CCN1CCC2=CC=C(C=C2)NC(=O)NC3=CC=CC=C3)C4=CC=CC=C4

> <PUBCHEM_OPENEYE_ISO_SMILES>
C1CN(CCN1CCC2=CC=C(C=C2)NC(=O)NC3=CC=CC=C3)C4=CC=CC=C4

> <PUBCHEM_CACTVS_TPSA>
47.6

> <PUBCHEM_MONOISOTOPIC_WEIGHT>
400.22631153

> <PUBCHEM_TOTAL_CHARGE>
0

> <PUBCHEM_HEAVY_ATOM_COUNT>
30

> <PUBCHEM_ATOM_DEF_STEREO_COUNT>
0

> <PUBCHEM_ATOM_UDEF_STEREO_COUNT>
0

> <PUBCHEM_BOND_DEF_STEREO_COUNT>
0

> <PUBCHEM_BOND_UDEF_STEREO_COUNT>
0

> <PUBCHEM_ISOTOPIC_ATOM_COUNT>
0

> <PUBCHEM_COMPONENT_COUNT>
1

> <PUBCHEM_CACTVS_TAUTO_COUNT>
-1

> <PUBCHEM_COORDINATE_TYPE>
1
5
255

> <PUBCHEM_BONDANNOTATIONS>
12  14  8
12  15  8
13  16  8
13  17  8
14  18  8
15  19  8
16  21  8
17  22  8
18  20  8
19  20  8
21  23  8
22  23  8
25  26  8
25  27  8
26  28  8
27  29  8
28  30  8
29  30  8

$$$$
