145973853
  -OEChem-09292322382D

 67 69  0     1  0  0  0  0  0999 V2000
   11.9508    5.9712    0.0000 Cl  0  0  0  0  0  0  0  0  0  0  0  0
    4.2177    6.6200    0.0000 O   0  0  0  0  0  0  0  0  0  0  0  0
    4.8563   10.2837    0.0000 O   0  0  0  0  0  0  0  0  0  0  0  0
    3.0962    7.2351    0.0000 O   0  0  0  0  0  0  0  0  0  0  0  0
    7.6818    2.6200    0.0000 O   0  0  0  0  0  0  0  0  0  0  0  0
    5.9497    5.6200    0.0000 N   0  0  0  0  0  0  0  0  0  0  0  0
    5.9497    3.6200    0.0000 N   0  0  0  0  0  0  0  0  0  0  0  0
    4.2177    8.6200    0.0000 N   0  0  0  0  0  0  0  0  0  0  0  0
    2.6350    8.9564    0.0000 N   0  0  0  0  0  0  0  0  0  0  0  0
    5.9497    6.6200    0.0000 C   0  0  0  0  0  0  0  0  0  0  0  0
    6.8158    5.1200    0.0000 C   0  0  0  0  0  0  0  0  0  0  0  0
    5.0837    5.1200    0.0000 C   0  0  0  0  0  0  0  0  0  0  0  0
    5.0837    7.1200    0.0000 C   0  0  3  0  0  0  0  0  0  0  0  0
    6.8158    4.1200    0.0000 C   0  0  0  0  0  0  0  0  0  0  0  0
    5.0837    4.1200    0.0000 C   0  0  0  0  0  0  0  0  0  0  0  0
    3.1350    9.8224    0.0000 C   0  0  3  0  0  0  0  0  0  0  0  0
    5.0837    8.1200    0.0000 C   0  0  0  0  0  0  0  0  0  0  0  0
    4.1132    9.6145    0.0000 C   0  0  0  0  0  0  0  0  0  0  0  0
    3.3041    8.2133    0.0000 C   0  0  0  0  0  0  0  0  0  0  0  0
    5.9497    2.6200    0.0000 C   0  0  0  0  0  0  0  0  0  0  0  0
    2.2690   10.3224    0.0000 C   0  0  0  0  0  0  0  0  0  0  0  0
    3.3429   10.8006    0.0000 C   0  0  0  0  0  0  0  0  0  0  0  0
    6.8158    2.1200    0.0000 C   0  0  0  0  0  0  0  0  0  0  0  0
    5.0837    2.1200    0.0000 C   0  0  0  0  0  0  0  0  0  0  0  0
    1.4030    9.8224    0.0000 C   0  0  0  0  0  0  0  0  0  0  0  0
    2.2690   11.3224    0.0000 C   0  0  0  0  0  0  0  0  0  0  0  0
    6.8158    1.1200    0.0000 C   0  0  0  0  0  0  0  0  0  0  0  0
    5.0837    1.1200    0.0000 C   0  0  0  0  0  0  0  0  0  0  0  0
    0.5369   10.3224    0.0000 C   0  0  0  0  0  0  0  0  0  0  0  0
    1.4030   11.8224    0.0000 C   0  0  0  0  0  0  0  0  0  0  0  0
    5.9497    0.6200    0.0000 C   0  0  0  0  0  0  0  0  0  0  0  0
    0.5369   11.3224    0.0000 C   0  0  0  0  0  0  0  0  0  0  0  0
    8.5478    2.1200    0.0000 C   0  0  0  0  0  0  0  0  0  0  0  0
    9.4138    2.6200    0.0000 C   0  0  0  0  0  0  0  0  0  0  0  0
    6.5603    6.5123    0.0000 H   0  0  0  0  0  0  0  0  0  0  0  0
    6.1618    7.2026    0.0000 H   0  0  0  0  0  0  0  0  0  0  0  0
    7.4263    5.0123    0.0000 H   0  0  0  0  0  0  0  0  0  0  0  0
    7.0278    5.7026    0.0000 H   0  0  0  0  0  0  0  0  0  0  0  0
    4.8717    5.7026    0.0000 H   0  0  0  0  0  0  0  0  0  0  0  0
    4.4731    5.0123    0.0000 H   0  0  0  0  0  0  0  0  0  0  0  0
    5.0837    6.5000    0.0000 H   0  0  0  0  0  0  0  0  0  0  0  0
    7.0278    3.5374    0.0000 H   0  0  0  0  0  0  0  0  0  0  0  0
    7.4263    4.2277    0.0000 H   0  0  0  0  0  0  0  0  0  0  0  0
    4.4731    4.2277    0.0000 H   0  0  0  0  0  0  0  0  0  0  0  0
    4.8717    3.5374    0.0000 H   0  0  0  0  0  0  0  0  0  0  0  0
    5.6943    8.0123    0.0000 H   0  0  0  0  0  0  0  0  0  0  0  0
    5.2958    8.7026    0.0000 H   0  0  0  0  0  0  0  0  0  0  0  0
    2.0184    8.8916    0.0000 H   0  0  0  0  0  0  0  0  0  0  0  0
    3.9494   10.6717    0.0000 H   0  0  0  0  0  0  0  0  0  0  0  0
    3.4718   11.4070    0.0000 H   0  0  0  0  0  0  0  0  0  0  0  0
    2.7365   10.9295    0.0000 H   0  0  0  0  0  0  0  0  0  0  0  0
    3.6808    6.9300    0.0000 H   0  0  0  0  0  0  0  0  0  0  0  0
    4.5468    2.4300    0.0000 H   0  0  0  0  0  0  0  0  0  0  0  0
    1.4030    9.2024    0.0000 H   0  0  0  0  0  0  0  0  0  0  0  0
    2.8059   11.6324    0.0000 H   0  0  0  0  0  0  0  0  0  0  0  0
    7.3527    0.8100    0.0000 H   0  0  0  0  0  0  0  0  0  0  0  0
    4.5468    0.8100    0.0000 H   0  0  0  0  0  0  0  0  0  0  0  0
    0.0000   10.0124    0.0000 H   0  0  0  0  0  0  0  0  0  0  0  0
    1.4030   12.4424    0.0000 H   0  0  0  0  0  0  0  0  0  0  0  0
    5.9497    0.0000    0.0000 H   0  0  0  0  0  0  0  0  0  0  0  0
    0.0000   11.6324    0.0000 H   0  0  0  0  0  0  0  0  0  0  0  0
    8.1493    1.6450    0.0000 H   0  0  0  0  0  0  0  0  0  0  0  0
    8.9463    1.6450    0.0000 H   0  0  0  0  0  0  0  0  0  0  0  0
    9.7238    2.0831    0.0000 H   0  0  0  0  0  0  0  0  0  0  0  0
    9.9508    2.9300    0.0000 H   0  0  0  0  0  0  0  0  0  0  0  0
    9.1038    3.1569    0.0000 H   0  0  0  0  0  0  0  0  0  0  0  0
   12.9508    5.9712    0.0000 H   0  0  0  0  0  0  0  0  0  0  0  0
  1 67  1  0  0  0  0
  2 13  1  0  0  0  0
  2 52  1  0  0  0  0
  3 18  2  0  0  0  0
  4 19  2  0  0  0  0
  5 23  1  0  0  0  0
  5 33  1  0  0  0  0
  6 10  1  0  0  0  0
  6 11  1  0  0  0  0
  6 12  1  0  0  0  0
  7 14  1  0  0  0  0
  7 15  1  0  0  0  0
  7 20  1  0  0  0  0
  8 17  1  0  0  0  0
  8 18  1  0  0  0  0
  8 19  1  0  0  0  0
  9 16  1  0  0  0  0
  9 19  1  0  0  0  0
  9 48  1  0  0  0  0
 10 13  1  0  0  0  0
 10 35  1  0  0  0  0
 10 36  1  0  0  0  0
 11 14  1  0  0  0  0
 11 37  1  0  0  0  0
 11 38  1  0  0  0  0
 12 15  1  0  0  0  0
 12 39  1  0  0  0  0
 12 40  1  0  0  0  0
 13 17  1  0  0  0  0
 13 41  1  0  0  0  0
 14 42  1  0  0  0  0
 14 43  1  0  0  0  0
 15 44  1  0  0  0  0
 15 45  1  0  0  0  0
 16 18  1  0  0  0  0
 16 21  1  0  0  0  0
 16 22  1  0  0  0  0
 17 46  1  0  0  0  0
 17 47  1  0  0  0  0
 20 23  1  0  0  0  0
 20 24  2  0  0  0  0
 21 25  2  0  0  0  0
 21 26  1  0  0  0  0
 22 49  1  0  0  0  0
 22 50  1  0  0  0  0
 22 51  1  0  0  0  0
 23 27  2  0  0  0  0
 24 28  1  0  0  0  0
 24 53  1  0  0  0  0
 25 29  1  0  0  0  0
 25 54  1  0  0  0  0
 26 30  2  0  0  0  0
 26 55  1  0  0  0  0
 27 31  1  0  0  0  0
 27 56  1  0  0  0  0
 28 31  2  0  0  0  0
 28 57  1  0  0  0  0
 29 32  2  0  0  0  0
 29 58  1  0  0  0  0
 30 32  1  0  0  0  0
 30 59  1  0  0  0  0
 31 60  1  0  0  0  0
 32 61  1  0  0  0  0
 33 34  1  0  0  0  0
 33 62  1  0  0  0  0
 33 63  1  0  0  0  0
 34 64  1  0  0  0  0
 34 65  1  0  0  0  0
 34 66  1  0  0  0  0
M  END
> <PUBCHEM_COMPOUND_CID>
145973853

> <PUBCHEM_COMPOUND_CANONICALIZED>
1

> <PUBCHEM_CACTVS_COMPLEXITY>
677

> <PUBCHEM_CACTVS_HBOND_ACCEPTOR>
6

> <PUBCHEM_CACTVS_HBOND_DONOR>
3

> <PUBCHEM_CACTVS_ROTATABLE_BOND>
8

> <PUBCHEM_CACTVS_SUBSKEYS>
AAADcfB7uAAEAAAAAAAAAAAAAAAAAWAAAAA8YIAAAAAAAAABQAAAHgAQCAAADJzhmAYzxoPABgCIAiVSUACCCAAhIgAIiAGPbIiOdjLE9buXOCjs1zPY6AeYyMCOgAAAAAAAEAAAAAAAAAAgAAAAAAAAAA==

> <PUBCHEM_IUPAC_OPENEYE_NAME>
3-[3-[4-(2-ethoxyphenyl)piperazin-1-yl]-2-hydroxy-propyl]-5-methyl-5-phenyl-imidazolidine-2,4-dione;hydrochloride

> <PUBCHEM_IUPAC_CAS_NAME>
3-[3-[4-(2-ethoxyphenyl)-1-piperazinyl]-2-hydroxypropyl]-5-methyl-5-phenylimidazolidine-2,4-dione;hydrochloride

> <PUBCHEM_IUPAC_NAME_MARKUP>
3-[3-[4-(2-ethoxyphenyl)piperazin-1-yl]-2-hydroxypropyl]-5-methyl-5-phenylimidazolidine-2,4-dione;hydrochloride

> <PUBCHEM_IUPAC_NAME>
3-[3-[4-(2-ethoxyphenyl)piperazin-1-yl]-2-hydroxypropyl]-5-methyl-5-phenylimidazolidine-2,4-dione;hydrochloride

> <PUBCHEM_IUPAC_SYSTEMATIC_NAME>
3-[3-[4-(2-ethoxyphenyl)piperazin-1-yl]-2-oxidanyl-propyl]-5-methyl-5-phenyl-imidazolidine-2,4-dione;hydrochloride

> <PUBCHEM_IUPAC_TRADITIONAL_NAME>
3-[2-hydroxy-3-(4-o-phenetylpiperazino)propyl]-5-methyl-5-phenyl-hydantoin;hydrochloride

> <PUBCHEM_IUPAC_INCHI>
InChI=1S/C25H32N4O4.ClH/c1-3-33-22-12-8-7-11-21(22)28-15-13-27(14-16-28)17-20(30)18-29-23(31)25(2,26-24(29)32)19-9-5-4-6-10-19;/h4-12,20,30H,3,13-18H2,1-2H3,(H,26,32);1H

> <PUBCHEM_IUPAC_INCHIKEY>
PLKUAUPLKWGNNK-UHFFFAOYSA-N

> <PUBCHEM_EXACT_MASS>
488.2190332

> <PUBCHEM_MOLECULAR_FORMULA>
C25H33ClN4O4

> <PUBCHEM_MOLECULAR_WEIGHT>
489.0

> <PUBCHEM_OPENEYE_CAN_SMILES>
CCOC1=CC=CC=C1N2CCN(CC2)CC(CN3C(=O)C(NC3=O)(C)C4=CC=CC=C4)O.Cl

> <PUBCHEM_OPENEYE_ISO_SMILES>
CCOC1=CC=CC=C1N2CCN(CC2)CC(CN3C(=O)C(NC3=O)(C)C4=CC=CC=C4)O.Cl

> <PUBCHEM_CACTVS_TPSA>
85.4

> <PUBCHEM_MONOISOTOPIC_WEIGHT>
488.2190332

> <PUBCHEM_TOTAL_CHARGE>
0

> <PUBCHEM_HEAVY_ATOM_COUNT>
34

> <PUBCHEM_ATOM_DEF_STEREO_COUNT>
0

> <PUBCHEM_ATOM_UDEF_STEREO_COUNT>
2

> <PUBCHEM_BOND_DEF_STEREO_COUNT>
0

> <PUBCHEM_BOND_UDEF_STEREO_COUNT>
0

> <PUBCHEM_ISOTOPIC_ATOM_COUNT>
0

> <PUBCHEM_COMPONENT_COUNT>
2

> <PUBCHEM_CACTVS_TAUTO_COUNT>
-1

> <PUBCHEM_COORDINATE_TYPE>
1
5
255

> <PUBCHEM_BONDANNOTATIONS>
16  22  3
13  2  3
20  23  8
20  24  8
21  25  8
21  26  8
23  27  8
24  28  8
25  29  8
26  30  8
27  31  8
28  31  8
29  32  8
30  32  8

$$$$
