44431555
  -OEChem-09292322242D

 73 76  0     0  0  0  0  0  0999 V2000
    3.0000   -0.5000    0.0000 S   0  0  0  0  0  0  0  0  0  0  0  0
    3.0000   -4.5000    0.0000 S   0  0  0  0  0  0  0  0  0  0  0  0
    4.0000   -0.5000    0.0000 O   0  0  0  0  0  0  0  0  0  0  0  0
    2.0000   -0.5000    0.0000 O   0  0  0  0  0  0  0  0  0  0  0  0
    9.9282    2.5000    0.0000 O   0  0  0  0  0  0  0  0  0  0  0  0
    2.0000   -4.5000    0.0000 O   0  0  0  0  0  0  0  0  0  0  0  0
    4.0000   -4.5000    0.0000 O   0  0  0  0  0  0  0  0  0  0  0  0
    6.4641    2.5000    0.0000 N   0  0  0  0  0  0  0  0  0  0  0  0
    3.0000    0.5000    0.0000 N   0  0  0  0  0  0  0  0  0  0  0  0
    8.1962    3.5000    0.0000 N   0  0  0  0  0  0  0  0  0  0  0  0
    5.5981    2.0000    0.0000 C   0  0  0  0  0  0  0  0  0  0  0  0
    5.5981    1.0000    0.0000 C   0  0  0  0  0  0  0  0  0  0  0  0
    4.7320    2.5000    0.0000 C   0  0  0  0  0  0  0  0  0  0  0  0
    3.8660    1.0000    0.0000 C   0  0  0  0  0  0  0  0  0  0  0  0
    4.7320    0.5000    0.0000 C   0  0  0  0  0  0  0  0  0  0  0  0
    3.8660    2.0000    0.0000 C   0  0  0  0  0  0  0  0  0  0  0  0
    6.4641    3.5000    0.0000 C   0  0  0  0  0  0  0  0  0  0  0  0
    7.3301    2.0000    0.0000 C   0  0  0  0  0  0  0  0  0  0  0  0
    7.3301    4.0000    0.0000 C   0  0  0  0  0  0  0  0  0  0  0  0
    8.1962    2.5000    0.0000 C   0  0  0  0  0  0  0  0  0  0  0  0
    9.0622    4.0000    0.0000 C   0  0  0  0  0  0  0  0  0  0  0  0
    3.0000   -1.5000    0.0000 C   0  0  0  0  0  0  0  0  0  0  0  0
    9.9282    3.5000    0.0000 C   0  0  0  0  0  0  0  0  0  0  0  0
    9.0622    5.0000    0.0000 C   0  0  0  0  0  0  0  0  0  0  0  0
    3.8660   -2.0000    0.0000 C   0  0  0  0  0  0  0  0  0  0  0  0
    2.1340   -2.0000    0.0000 C   0  0  0  0  0  0  0  0  0  0  0  0
   10.7942    4.0000    0.0000 C   0  0  0  0  0  0  0  0  0  0  0  0
    9.9282    5.5000    0.0000 C   0  0  0  0  0  0  0  0  0  0  0  0
   10.7942    5.0000    0.0000 C   0  0  0  0  0  0  0  0  0  0  0  0
    3.8660   -3.0000    0.0000 C   0  0  0  0  0  0  0  0  0  0  0  0
    2.1340   -3.0000    0.0000 C   0  0  0  0  0  0  0  0  0  0  0  0
    3.0000   -3.5000    0.0000 C   0  0  0  0  0  0  0  0  0  0  0  0
   10.7942    2.0000    0.0000 C   0  0  0  0  0  0  0  0  0  0  0  0
   10.7942    1.0000    0.0000 C   0  0  0  0  0  0  0  0  0  0  0  0
   11.6603    2.5000    0.0000 C   0  0  0  0  0  0  0  0  0  0  0  0
    3.0000   -5.5000    0.0000 C   0  0  0  0  0  0  0  0  0  0  0  0
    5.5981    2.6200    0.0000 H   0  0  0  0  0  0  0  0  0  0  0  0
    5.8101    0.4174    0.0000 H   0  0  0  0  0  0  0  0  0  0  0  0
    6.2087    1.1077    0.0000 H   0  0  0  0  0  0  0  0  0  0  0  0
    5.1306    2.9750    0.0000 H   0  0  0  0  0  0  0  0  0  0  0  0
    4.3335    2.9750    0.0000 H   0  0  0  0  0  0  0  0  0  0  0  0
    3.8660    0.3800    0.0000 H   0  0  0  0  0  0  0  0  0  0  0  0
    4.3335    0.0251    0.0000 H   0  0  0  0  0  0  0  0  0  0  0  0
    5.1306    0.0251    0.0000 H   0  0  0  0  0  0  0  0  0  0  0  0
    3.6540    2.5826    0.0000 H   0  0  0  0  0  0  0  0  0  0  0  0
    3.2554    1.8923    0.0000 H   0  0  0  0  0  0  0  0  0  0  0  0
    6.2520    4.0826    0.0000 H   0  0  0  0  0  0  0  0  0  0  0  0
    5.8535    3.3923    0.0000 H   0  0  0  0  0  0  0  0  0  0  0  0
    6.9316    1.5250    0.0000 H   0  0  0  0  0  0  0  0  0  0  0  0
    7.7287    1.5250    0.0000 H   0  0  0  0  0  0  0  0  0  0  0  0
    7.7287    4.4750    0.0000 H   0  0  0  0  0  0  0  0  0  0  0  0
    6.9316    4.4750    0.0000 H   0  0  0  0  0  0  0  0  0  0  0  0
    8.4082    1.9174    0.0000 H   0  0  0  0  0  0  0  0  0  0  0  0
    8.8067    2.6077    0.0000 H   0  0  0  0  0  0  0  0  0  0  0  0
    2.4631    0.8100    0.0000 H   0  0  0  0  0  0  0  0  0  0  0  0
    8.5252    5.3100    0.0000 H   0  0  0  0  0  0  0  0  0  0  0  0
    4.4030   -1.6900    0.0000 H   0  0  0  0  0  0  0  0  0  0  0  0
    1.5970   -1.6900    0.0000 H   0  0  0  0  0  0  0  0  0  0  0  0
   11.3312    3.6900    0.0000 H   0  0  0  0  0  0  0  0  0  0  0  0
    9.9282    6.1200    0.0000 H   0  0  0  0  0  0  0  0  0  0  0  0
   11.3312    5.3100    0.0000 H   0  0  0  0  0  0  0  0  0  0  0  0
    4.4030   -3.3100    0.0000 H   0  0  0  0  0  0  0  0  0  0  0  0
    1.5970   -3.3100    0.0000 H   0  0  0  0  0  0  0  0  0  0  0  0
   10.2573    1.6900    0.0000 H   0  0  0  0  0  0  0  0  0  0  0  0
   10.1742    1.0000    0.0000 H   0  0  0  0  0  0  0  0  0  0  0  0
   10.7942    0.3800    0.0000 H   0  0  0  0  0  0  0  0  0  0  0  0
   11.4142    1.0000    0.0000 H   0  0  0  0  0  0  0  0  0  0  0  0
   11.9703    1.9631    0.0000 H   0  0  0  0  0  0  0  0  0  0  0  0
   12.1972    2.8100    0.0000 H   0  0  0  0  0  0  0  0  0  0  0  0
   11.3503    3.0369    0.0000 H   0  0  0  0  0  0  0  0  0  0  0  0
    2.3800   -5.5000    0.0000 H   0  0  0  0  0  0  0  0  0  0  0  0
    3.0000   -6.1200    0.0000 H   0  0  0  0  0  0  0  0  0  0  0  0
    3.6200   -5.5000    0.0000 H   0  0  0  0  0  0  0  0  0  0  0  0
  1  3  2  0  0  0  0
  1  4  2  0  0  0  0
  1  9  1  0  0  0  0
  1 22  1  0  0  0  0
  2  6  2  0  0  0  0
  2  7  2  0  0  0  0
  2 32  1  0  0  0  0
  2 36  1  0  0  0  0
  5 23  1  0  0  0  0
  5 33  1  0  0  0  0
  8 11  1  0  0  0  0
  8 17  1  0  0  0  0
  8 18  1  0  0  0  0
  9 14  1  0  0  0  0
  9 55  1  0  0  0  0
 10 19  1  0  0  0  0
 10 20  1  0  0  0  0
 10 21  1  0  0  0  0
 11 12  1  0  0  0  0
 11 13  1  0  0  0  0
 11 37  1  0  0  0  0
 12 15  1  0  0  0  0
 12 38  1  0  0  0  0
 12 39  1  0  0  0  0
 13 16  1  0  0  0  0
 13 40  1  0  0  0  0
 13 41  1  0  0  0  0
 14 15  1  0  0  0  0
 14 16  1  0  0  0  0
 14 42  1  0  0  0  0
 15 43  1  0  0  0  0
 15 44  1  0  0  0  0
 16 45  1  0  0  0  0
 16 46  1  0  0  0  0
 17 19  1  0  0  0  0
 17 47  1  0  0  0  0
 17 48  1  0  0  0  0
 18 20  1  0  0  0  0
 18 49  1  0  0  0  0
 18 50  1  0  0  0  0
 19 51  1  0  0  0  0
 19 52  1  0  0  0  0
 20 53  1  0  0  0  0
 20 54  1  0  0  0  0
 21 23  1  0  0  0  0
 21 24  2  0  0  0  0
 22 25  2  0  0  0  0
 22 26  1  0  0  0  0
 23 27  2  0  0  0  0
 24 28  1  0  0  0  0
 24 56  1  0  0  0  0
 25 30  1  0  0  0  0
 25 57  1  0  0  0  0
 26 31  2  0  0  0  0
 26 58  1  0  0  0  0
 27 29  1  0  0  0  0
 27 59  1  0  0  0  0
 28 29  2  0  0  0  0
 28 60  1  0  0  0  0
 29 61  1  0  0  0  0
 30 32  2  0  0  0  0
 30 62  1  0  0  0  0
 31 32  1  0  0  0  0
 31 63  1  0  0  0  0
 33 34  1  0  0  0  0
 33 35  1  0  0  0  0
 33 64  1  0  0  0  0
 34 65  1  0  0  0  0
 34 66  1  0  0  0  0
 34 67  1  0  0  0  0
 35 68  1  0  0  0  0
 35 69  1  0  0  0  0
 35 70  1  0  0  0  0
 36 71  1  0  0  0  0
 36 72  1  0  0  0  0
 36 73  1  0  0  0  0
M  END
> <PUBCHEM_COMPOUND_CID>
44431555

> <PUBCHEM_COMPOUND_CANONICALIZED>
1

> <PUBCHEM_CACTVS_COMPLEXITY>
891

> <PUBCHEM_CACTVS_HBOND_ACCEPTOR>
8

> <PUBCHEM_CACTVS_HBOND_DONOR>
1

> <PUBCHEM_CACTVS_ROTATABLE_BOND>
8

> <PUBCHEM_CACTVS_SUBSKEYS>
AAADcfB7OABgAAAAAAAAAAAAAAAAAAAAAAA8YMEAAAAAAAABQAAAHgQQQAAACDzh0Aayx4NABAqAACRCQHDCCBAhKhAIiJgPbIgOZiLksZuXOCjk0BHY6AeQQAAAAAgAAAAAEAAAEQAAAAAgAAAAAAAAAA==

> <PUBCHEM_IUPAC_OPENEYE_NAME>
N-[4-[4-(2-isopropoxyphenyl)piperazin-1-yl]cyclohexyl]-4-methylsulfonyl-benzenesulfonamide

> <PUBCHEM_IUPAC_CAS_NAME>
4-methylsulfonyl-N-[4-[4-(2-propan-2-yloxyphenyl)-1-piperazinyl]cyclohexyl]benzenesulfonamide

> <PUBCHEM_IUPAC_NAME_MARKUP>
4-methylsulfonyl-<I>N</I>-[4-[4-(2-propan-2-yloxyphenyl)piperazin-1-yl]cyclohexyl]benzenesulfonamide

> <PUBCHEM_IUPAC_NAME>
4-methylsulfonyl-N-[4-[4-(2-propan-2-yloxyphenyl)piperazin-1-yl]cyclohexyl]benzenesulfonamide

> <PUBCHEM_IUPAC_SYSTEMATIC_NAME>
4-methylsulfonyl-N-[4-[4-(2-propan-2-yloxyphenyl)piperazin-1-yl]cyclohexyl]benzenesulfonamide

> <PUBCHEM_IUPAC_TRADITIONAL_NAME>
N-[4-[4-(2-isopropoxyphenyl)piperazino]cyclohexyl]-4-mesyl-benzenesulfonamide

> <PUBCHEM_IUPAC_INCHI>
InChI=1S/C26H37N3O5S2/c1-20(2)34-26-7-5-4-6-25(26)29-18-16-28(17-19-29)22-10-8-21(9-11-22)27-36(32,33)24-14-12-23(13-15-24)35(3,30)31/h4-7,12-15,20-22,27H,8-11,16-19H2,1-3H3

> <PUBCHEM_IUPAC_INCHIKEY>
UHPXZGGJCMUMGZ-UHFFFAOYSA-N

> <PUBCHEM_XLOGP3_AA>
3.9

> <PUBCHEM_EXACT_MASS>
535.21746364

> <PUBCHEM_MOLECULAR_FORMULA>
C26H37N3O5S2

> <PUBCHEM_MOLECULAR_WEIGHT>
535.7

> <PUBCHEM_OPENEYE_CAN_SMILES>
CC(C)OC1=CC=CC=C1N2CCN(CC2)C3CCC(CC3)NS(=O)(=O)C4=CC=C(C=C4)S(=O)(=O)C

> <PUBCHEM_OPENEYE_ISO_SMILES>
CC(C)OC1=CC=CC=C1N2CCN(CC2)C3CCC(CC3)NS(=O)(=O)C4=CC=C(C=C4)S(=O)(=O)C

> <PUBCHEM_CACTVS_TPSA>
113

> <PUBCHEM_MONOISOTOPIC_WEIGHT>
535.21746364

> <PUBCHEM_TOTAL_CHARGE>
0

> <PUBCHEM_HEAVY_ATOM_COUNT>
36

> <PUBCHEM_ATOM_DEF_STEREO_COUNT>
0

> <PUBCHEM_ATOM_UDEF_STEREO_COUNT>
0

> <PUBCHEM_BOND_DEF_STEREO_COUNT>
0

> <PUBCHEM_BOND_UDEF_STEREO_COUNT>
0

> <PUBCHEM_ISOTOPIC_ATOM_COUNT>
0

> <PUBCHEM_COMPONENT_COUNT>
1

> <PUBCHEM_CACTVS_TAUTO_COUNT>
-1

> <PUBCHEM_COORDINATE_TYPE>
1
5
255

> <PUBCHEM_BONDANNOTATIONS>
21  23  8
21  24  8
22  25  8
22  26  8
23  27  8
24  28  8
25  30  8
26  31  8
27  29  8
28  29  8
30  32  8
31  32  8

$$$$
