22397822
  -OEChem-09292322332D

 36 37  0     0  0  0  0  0  0999 V2000
    4.5981    1.5000    0.0000 N   0  0  0  0  0  0  0  0  0  0  0  0
    4.5981   -0.5000    0.0000 N   0  0  0  0  0  0  0  0  0  0  0  0
    2.0000   -4.0000    0.0000 N   0  0  0  0  0  0  0  0  0  0  0  0
    5.4641    1.0000    0.0000 C   0  0  0  0  0  0  0  0  0  0  0  0
    3.7320    1.0000    0.0000 C   0  0  0  0  0  0  0  0  0  0  0  0
    5.4641   -0.0000    0.0000 C   0  0  0  0  0  0  0  0  0  0  0  0
    3.7320   -0.0000    0.0000 C   0  0  0  0  0  0  0  0  0  0  0  0
    4.5981    2.5000    0.0000 C   0  0  0  0  0  0  0  0  0  0  0  0
    4.5981   -1.5000    0.0000 C   0  0  0  0  0  0  0  0  0  0  0  0
    5.4641    3.0000    0.0000 C   0  0  0  0  0  0  0  0  0  0  0  0
    3.7320   -2.0000    0.0000 C   0  0  0  0  0  0  0  0  0  0  0  0
    5.4641    4.0000    0.0000 C   0  0  0  0  0  0  0  0  0  0  0  0
    5.4641   -2.0000    0.0000 C   0  0  0  0  0  0  0  0  0  0  0  0
    3.7320   -3.0000    0.0000 C   0  0  0  0  0  0  0  0  0  0  0  0
    5.4641   -3.0000    0.0000 C   0  0  0  0  0  0  0  0  0  0  0  0
    4.5981   -3.5000    0.0000 C   0  0  0  0  0  0  0  0  0  0  0  0
    2.8660   -3.5000    0.0000 C   0  0  0  0  0  0  0  0  0  0  0  0
    6.0747    0.8923    0.0000 H   0  0  0  0  0  0  0  0  0  0  0  0
    5.6762    1.5826    0.0000 H   0  0  0  0  0  0  0  0  0  0  0  0
    3.5200    1.5826    0.0000 H   0  0  0  0  0  0  0  0  0  0  0  0
    3.1215    0.8923    0.0000 H   0  0  0  0  0  0  0  0  0  0  0  0
    5.6762   -0.5826    0.0000 H   0  0  0  0  0  0  0  0  0  0  0  0
    6.0747    0.1077    0.0000 H   0  0  0  0  0  0  0  0  0  0  0  0
    3.1215    0.1077    0.0000 H   0  0  0  0  0  0  0  0  0  0  0  0
    3.5200   -0.5826    0.0000 H   0  0  0  0  0  0  0  0  0  0  0  0
    4.3860    3.0826    0.0000 H   0  0  0  0  0  0  0  0  0  0  0  0
    3.9875    2.3923    0.0000 H   0  0  0  0  0  0  0  0  0  0  0  0
    5.6762    2.4174    0.0000 H   0  0  0  0  0  0  0  0  0  0  0  0
    6.0747    3.1077    0.0000 H   0  0  0  0  0  0  0  0  0  0  0  0
    3.1951   -1.6900    0.0000 H   0  0  0  0  0  0  0  0  0  0  0  0
    6.0010   -1.6900    0.0000 H   0  0  0  0  0  0  0  0  0  0  0  0
    6.0841    4.0000    0.0000 H   0  0  0  0  0  0  0  0  0  0  0  0
    5.4641    4.6200    0.0000 H   0  0  0  0  0  0  0  0  0  0  0  0
    4.8441    4.0000    0.0000 H   0  0  0  0  0  0  0  0  0  0  0  0
    6.0010   -3.3100    0.0000 H   0  0  0  0  0  0  0  0  0  0  0  0
    4.5981   -4.1200    0.0000 H   0  0  0  0  0  0  0  0  0  0  0  0
  1  4  1  0  0  0  0
  1  5  1  0  0  0  0
  1  8  1  0  0  0  0
  2  6  1  0  0  0  0
  2  7  1  0  0  0  0
  2  9  1  0  0  0  0
  3 17  3  0  0  0  0
  4  6  1  0  0  0  0
  4 18  1  0  0  0  0
  4 19  1  0  0  0  0
  5  7  1  0  0  0  0
  5 20  1  0  0  0  0
  5 21  1  0  0  0  0
  6 22  1  0  0  0  0
  6 23  1  0  0  0  0
  7 24  1  0  0  0  0
  7 25  1  0  0  0  0
  8 10  1  0  0  0  0
  8 26  1  0  0  0  0
  8 27  1  0  0  0  0
  9 11  1  0  0  0  0
  9 13  2  0  0  0  0
 10 12  1  0  0  0  0
 10 28  1  0  0  0  0
 10 29  1  0  0  0  0
 11 14  2  0  0  0  0
 11 30  1  0  0  0  0
 12 32  1  0  0  0  0
 12 33  1  0  0  0  0
 12 34  1  0  0  0  0
 13 15  1  0  0  0  0
 13 31  1  0  0  0  0
 14 16  1  0  0  0  0
 14 17  1  0  0  0  0
 15 16  2  0  0  0  0
 15 35  1  0  0  0  0
 16 36  1  0  0  0  0
M  END
> <PUBCHEM_COMPOUND_CID>
22397822

> <PUBCHEM_COMPOUND_CANONICALIZED>
1

> <PUBCHEM_CACTVS_COMPLEXITY>
272

> <PUBCHEM_CACTVS_HBOND_ACCEPTOR>
3

> <PUBCHEM_CACTVS_HBOND_DONOR>
0

> <PUBCHEM_CACTVS_ROTATABLE_BOND>
3

> <PUBCHEM_CACTVS_SUBSKEYS>
AAADceBzAAAAAAAAAAAAAAAAAAAAAAAAAAA8QAAAAAAAAAABAAAAHAAAAAAADAjBGAQywIMAAACQBiRCQACiAAAhAgAIiAAIZIgI4CLAkZGUIAhggADIyA8QgAAOAAAAQAAAAAAAAACAAAAAAAAAAAAAAA==

> <PUBCHEM_IUPAC_OPENEYE_NAME>
3-(4-propylpiperazin-1-yl)benzonitrile

> <PUBCHEM_IUPAC_CAS_NAME>
3-(4-propyl-1-piperazinyl)benzonitrile

> <PUBCHEM_IUPAC_NAME_MARKUP>
3-(4-propylpiperazin-1-yl)benzonitrile

> <PUBCHEM_IUPAC_NAME>
3-(4-propylpiperazin-1-yl)benzonitrile

> <PUBCHEM_IUPAC_SYSTEMATIC_NAME>
3-(4-propylpiperazin-1-yl)benzenecarbonitrile

> <PUBCHEM_IUPAC_TRADITIONAL_NAME>
3-(4-propylpiperazino)benzonitrile

> <PUBCHEM_IUPAC_INCHI>
InChI=1S/C14H19N3/c1-2-6-16-7-9-17(10-8-16)14-5-3-4-13(11-14)12-15/h3-5,11H,2,6-10H2,1H3

> <PUBCHEM_IUPAC_INCHIKEY>
PZPVLBXASPDCHR-UHFFFAOYSA-N

> <PUBCHEM_XLOGP3_AA>
2.5

> <PUBCHEM_EXACT_MASS>
229.157897619

> <PUBCHEM_MOLECULAR_FORMULA>
C14H19N3

> <PUBCHEM_MOLECULAR_WEIGHT>
229.32

> <PUBCHEM_OPENEYE_CAN_SMILES>
CCCN1CCN(CC1)C2=CC=CC(=C2)C#N

> <PUBCHEM_OPENEYE_ISO_SMILES>
CCCN1CCN(CC1)C2=CC=CC(=C2)C#N

> <PUBCHEM_CACTVS_TPSA>
30.3

> <PUBCHEM_MONOISOTOPIC_WEIGHT>
229.157897619

> <PUBCHEM_TOTAL_CHARGE>
0

> <PUBCHEM_HEAVY_ATOM_COUNT>
17

> <PUBCHEM_ATOM_DEF_STEREO_COUNT>
0

> <PUBCHEM_ATOM_UDEF_STEREO_COUNT>
0

> <PUBCHEM_BOND_DEF_STEREO_COUNT>
0

> <PUBCHEM_BOND_UDEF_STEREO_COUNT>
0

> <PUBCHEM_ISOTOPIC_ATOM_COUNT>
0

> <PUBCHEM_COMPONENT_COUNT>
1

> <PUBCHEM_CACTVS_TAUTO_COUNT>
-1

> <PUBCHEM_COORDINATE_TYPE>
1
5
255

> <PUBCHEM_BONDANNOTATIONS>
11  14  8
13  15  8
14  16  8
15  16  8
9  11  8
9  13  8

$$$$
