46882522
  -OEChem-09292322292D

 59 62  0     1  0  0  0  0  0999 V2000
   10.4251    0.9298    0.0000 S   0  0  0  0  0  0  0  0  0  0  0  0
   10.9218    1.7977    0.0000 O   0  0  0  0  0  0  0  0  0  0  0  0
    9.9285    0.0618    0.0000 O   0  0  0  0  0  0  0  0  0  0  0  0
   13.8969   -1.0569    0.0000 O   0  0  0  0  0  0  0  0  0  0  0  0
    4.7024    0.4023    0.0000 N   0  0  3  0  0  0  0  0  0  0  0  0
    9.5572    1.4264    0.0000 N   0  0  0  0  0  0  0  0  0  0  0  0
    3.6092   -1.3773    0.0000 N   0  0  0  0  0  0  0  0  0  0  0  0
    2.8660   -2.0464    0.0000 N   0  0  0  0  0  0  0  0  0  0  0  0
    5.1363    1.3032    0.0000 C   0  0  0  0  0  0  0  0  0  0  0  0
    5.1363   -0.4987    0.0000 C   0  0  0  0  0  0  0  0  0  0  0  0
    6.1112    1.5258    0.0000 C   0  0  0  0  0  0  0  0  0  0  0  0
    6.1112   -0.7212    0.0000 C   0  0  0  0  0  0  0  0  0  0  0  0
    6.8931    0.9023    0.0000 C   0  0  0  0  0  0  0  0  0  0  0  0
    6.8931   -0.0977    0.0000 C   0  0  0  0  0  0  0  0  0  0  0  0
    3.7024    0.4023    0.0000 C   0  0  0  0  0  0  0  0  0  0  0  0
    7.7870    1.4369    0.0000 C   0  0  0  0  0  0  0  0  0  0  0  0
    7.7870   -0.6324    0.0000 C   0  0  0  0  0  0  0  0  0  0  0  0
    8.6931    0.9231    0.0000 C   0  0  0  0  0  0  0  0  0  0  0  0
    3.2024   -0.4637    0.0000 C   0  0  0  0  0  0  0  0  0  0  0  0
    8.6931   -0.1185    0.0000 C   0  0  0  0  0  0  0  0  0  0  0  0
    2.2079   -0.5683    0.0000 C   0  0  0  0  0  0  0  0  0  0  0  0
   11.2931    0.4331    0.0000 C   0  0  0  0  0  0  0  0  0  0  0  0
    2.0000   -1.5464    0.0000 C   0  0  0  0  0  0  0  0  0  0  0  0
   11.2969   -0.5669    0.0000 C   0  0  0  0  0  0  0  0  0  0  0  0
   12.1572    0.9364    0.0000 C   0  0  0  0  0  0  0  0  0  0  0  0
   13.0290   -0.5602    0.0000 C   0  0  0  0  0  0  0  0  0  0  0  0
   12.1649   -1.0635    0.0000 C   0  0  0  0  0  0  0  0  0  0  0  0
   13.0251    0.4398    0.0000 C   0  0  0  0  0  0  0  0  0  0  0  0
   14.7610   -0.5535    0.0000 C   0  0  0  0  0  0  0  0  0  0  0  0
   15.6289   -1.0502    0.0000 C   0  0  0  0  0  0  0  0  0  0  0  0
   14.7571    0.4465    0.0000 C   0  0  0  0  0  0  0  0  0  0  0  0
    5.1363    1.9232    0.0000 H   0  0  0  0  0  0  0  0  0  0  0  0
    4.5319    1.4412    0.0000 H   0  0  0  0  0  0  0  0  0  0  0  0
    4.5319   -0.6367    0.0000 H   0  0  0  0  0  0  0  0  0  0  0  0
    5.1363   -1.1187    0.0000 H   0  0  0  0  0  0  0  0  0  0  0  0
    6.5960    1.9123    0.0000 H   0  0  0  0  0  0  0  0  0  0  0  0
    5.8422    2.0844    0.0000 H   0  0  0  0  0  0  0  0  0  0  0  0
    5.8422   -1.2798    0.0000 H   0  0  0  0  0  0  0  0  0  0  0  0
    6.5960   -1.1078    0.0000 H   0  0  0  0  0  0  0  0  0  0  0  0
    3.8101    1.0129    0.0000 H   0  0  0  0  0  0  0  0  0  0  0  0
    3.1198    0.6143    0.0000 H   0  0  0  0  0  0  0  0  0  0  0  0
    7.7798    2.0569    0.0000 H   0  0  0  0  0  0  0  0  0  0  0  0
    7.7798   -1.2523    0.0000 H   0  0  0  0  0  0  0  0  0  0  0  0
    9.2288   -0.4306    0.0000 H   0  0  0  0  0  0  0  0  0  0  0  0
    9.5548    2.0464    0.0000 H   0  0  0  0  0  0  0  0  0  0  0  0
    1.7930   -0.1075    0.0000 H   0  0  0  0  0  0  0  0  0  0  0  0
    4.2156   -1.5062    0.0000 H   0  0  0  0  0  0  0  0  0  0  0  0
    1.4336   -1.7986    0.0000 H   0  0  0  0  0  0  0  0  0  0  0  0
   10.7612   -0.8789    0.0000 H   0  0  0  0  0  0  0  0  0  0  0  0
   12.1548    1.5564    0.0000 H   0  0  0  0  0  0  0  0  0  0  0  0
   12.1673   -1.6835    0.0000 H   0  0  0  0  0  0  0  0  0  0  0  0
   13.5608    0.7519    0.0000 H   0  0  0  0  0  0  0  0  0  0  0  0
   14.2229   -0.2456    0.0000 H   0  0  0  0  0  0  0  0  0  0  0  0
   15.3210   -1.5883    0.0000 H   0  0  0  0  0  0  0  0  0  0  0  0
   16.1671   -1.3581    0.0000 H   0  0  0  0  0  0  0  0  0  0  0  0
   15.9369   -0.5121    0.0000 H   0  0  0  0  0  0  0  0  0  0  0  0
   15.3771    0.4489    0.0000 H   0  0  0  0  0  0  0  0  0  0  0  0
   14.7548    1.0665    0.0000 H   0  0  0  0  0  0  0  0  0  0  0  0
   14.1372    0.4441    0.0000 H   0  0  0  0  0  0  0  0  0  0  0  0
  1  2  2  0  0  0  0
  1  3  2  0  0  0  0
  1  6  1  0  0  0  0
  1 22  1  0  0  0  0
  4 26  1  0  0  0  0
  4 29  1  0  0  0  0
  5  9  1  0  0  0  0
  5 10  1  0  0  0  0
  5 15  1  0  0  0  0
  6 18  1  0  0  0  0
  6 45  1  0  0  0  0
  7  8  1  0  0  0  0
  7 19  1  0  0  0  0
  7 47  1  0  0  0  0
  8 23  2  0  0  0  0
  9 11  1  0  0  0  0
  9 32  1  0  0  0  0
  9 33  1  0  0  0  0
 10 12  1  0  0  0  0
 10 34  1  0  0  0  0
 10 35  1  0  0  0  0
 11 13  1  0  0  0  0
 11 36  1  0  0  0  0
 11 37  1  0  0  0  0
 12 14  1  0  0  0  0
 12 38  1  0  0  0  0
 12 39  1  0  0  0  0
 13 14  2  0  0  0  0
 13 16  1  0  0  0  0
 14 17  1  0  0  0  0
 15 19  1  0  0  0  0
 15 40  1  0  0  0  0
 15 41  1  0  0  0  0
 16 18  2  0  0  0  0
 16 42  1  0  0  0  0
 17 20  2  0  0  0  0
 17 43  1  0  0  0  0
 18 20  1  0  0  0  0
 19 21  2  0  0  0  0
 20 44  1  0  0  0  0
 21 23  1  0  0  0  0
 21 46  1  0  0  0  0
 22 24  2  0  0  0  0
 22 25  1  0  0  0  0
 23 48  1  0  0  0  0
 24 27  1  0  0  0  0
 24 49  1  0  0  0  0
 25 28  2  0  0  0  0
 25 50  1  0  0  0  0
 26 27  2  0  0  0  0
 26 28  1  0  0  0  0
 27 51  1  0  0  0  0
 28 52  1  0  0  0  0
 29 30  1  0  0  0  0
 29 31  1  0  0  0  0
 29 53  1  0  0  0  0
 30 54  1  0  0  0  0
 30 55  1  0  0  0  0
 30 56  1  0  0  0  0
 31 57  1  0  0  0  0
 31 58  1  0  0  0  0
 31 59  1  0  0  0  0
M  END
> <PUBCHEM_COMPOUND_CID>
46882522

> <PUBCHEM_COMPOUND_CANONICALIZED>
1

> <PUBCHEM_CACTVS_COMPLEXITY>
660

> <PUBCHEM_CACTVS_HBOND_ACCEPTOR>
6

> <PUBCHEM_CACTVS_HBOND_DONOR>
2

> <PUBCHEM_CACTVS_ROTATABLE_BOND>
7

> <PUBCHEM_CACTVS_SUBSKEYS>
AAADceB7sABAAAAAAAAAAAAAAAAAAWAAAAAwYAAABYAAAAAB0AAAHgQYQAAADBzh3gY+x5NjBAKiAzRnQHDSDBAgogAYuTg+bJgMZqKE8duWvCjk2BGI6AeQwIAOiIAAQAAQAAARAACAACAAAAAAAAAAAA==

> <PUBCHEM_IUPAC_OPENEYE_NAME>
4-isopropoxy-N-[3-(1H-pyrazol-5-ylmethyl)-1,2,4,5-tetrahydro-3-benzazepin-7-yl]benzenesulfonamide

> <PUBCHEM_IUPAC_CAS_NAME>
4-propan-2-yloxy-N-[3-(1H-pyrazol-5-ylmethyl)-1,2,4,5-tetrahydro-3-benzazepin-7-yl]benzenesulfonamide

> <PUBCHEM_IUPAC_NAME_MARKUP>
4-propan-2-yloxy-<I>N</I>-[3-(1<I>H</I>-pyrazol-5-ylmethyl)-1,2,4,5-tetrahydro-3-benzazepin-7-yl]benzenesulfonamide

> <PUBCHEM_IUPAC_NAME>
4-propan-2-yloxy-N-[3-(1H-pyrazol-5-ylmethyl)-1,2,4,5-tetrahydro-3-benzazepin-7-yl]benzenesulfonamide

> <PUBCHEM_IUPAC_SYSTEMATIC_NAME>
4-propan-2-yloxy-N-[3-(1H-pyrazol-5-ylmethyl)-1,2,4,5-tetrahydro-3-benzazepin-7-yl]benzenesulfonamide

> <PUBCHEM_IUPAC_TRADITIONAL_NAME>
4-isopropoxy-N-[3-(1H-pyrazol-5-ylmethyl)-1,2,4,5-tetrahydro-3-benzazepin-7-yl]benzenesulfonamide

> <PUBCHEM_IUPAC_INCHI>
InChI=1S/C23H28N4O3S/c1-17(2)30-22-5-7-23(8-6-22)31(28,29)26-20-4-3-18-10-13-27(14-11-19(18)15-20)16-21-9-12-24-25-21/h3-9,12,15,17,26H,10-11,13-14,16H2,1-2H3,(H,24,25)

> <PUBCHEM_IUPAC_INCHIKEY>
GHHKXCCOHHVPRP-UHFFFAOYSA-N

> <PUBCHEM_XLOGP3_AA>
3.4

> <PUBCHEM_EXACT_MASS>
440.18821194

> <PUBCHEM_MOLECULAR_FORMULA>
C23H28N4O3S

> <PUBCHEM_MOLECULAR_WEIGHT>
440.6

> <PUBCHEM_OPENEYE_CAN_SMILES>
CC(C)OC1=CC=C(C=C1)S(=O)(=O)NC2=CC3=C(CCN(CC3)CC4=CC=NN4)C=C2

> <PUBCHEM_OPENEYE_ISO_SMILES>
CC(C)OC1=CC=C(C=C1)S(=O)(=O)NC2=CC3=C(CCN(CC3)CC4=CC=NN4)C=C2

> <PUBCHEM_CACTVS_TPSA>
95.7

> <PUBCHEM_MONOISOTOPIC_WEIGHT>
440.18821194

> <PUBCHEM_TOTAL_CHARGE>
0

> <PUBCHEM_HEAVY_ATOM_COUNT>
31

> <PUBCHEM_ATOM_DEF_STEREO_COUNT>
0

> <PUBCHEM_ATOM_UDEF_STEREO_COUNT>
0

> <PUBCHEM_BOND_DEF_STEREO_COUNT>
0

> <PUBCHEM_BOND_UDEF_STEREO_COUNT>
0

> <PUBCHEM_ISOTOPIC_ATOM_COUNT>
0

> <PUBCHEM_COMPONENT_COUNT>
1

> <PUBCHEM_CACTVS_TAUTO_COUNT>
-1

> <PUBCHEM_COORDINATE_TYPE>
1
5
255

> <PUBCHEM_BONDANNOTATIONS>
13  14  8
13  16  8
14  17  8
16  18  8
17  20  8
18  20  8
19  21  8
21  23  8
22  24  8
22  25  8
24  27  8
25  28  8
26  27  8
26  28  8
7  19  8
7  8  8
8  23  8

$$$$
