44325894
  -OEChem-09292322122D

 36 38  0     1  0  0  0  0  0999 V2000
    3.5998   -0.6334    0.0000 N   0  0  3  0  0  0  0  0  0  0  0  0
    8.9085    0.1582    0.0000 N   0  0  0  0  0  0  0  0  0  0  0  0
    4.5460   -0.3286    0.0000 C   0  0  3  0  0  0  0  0  0  0  0  0
    4.5460    0.6714    0.0000 C   0  0  3  0  0  0  0  0  0  0  0  0
    3.5998    0.9761    0.0000 C   0  0  0  0  0  0  0  0  0  0  0  0
    5.4121   -0.8286    0.0000 C   0  0  0  0  0  0  0  0  0  0  0  0
    3.0162    0.1714    0.0000 C   0  0  0  0  0  0  0  0  0  0  0  0
    5.4121    1.1714    0.0000 C   0  0  0  0  0  0  0  0  0  0  0  0
    6.2781   -0.3286    0.0000 C   0  0  0  0  0  0  0  0  0  0  0  0
    6.2781    0.6714    0.0000 C   0  0  0  0  0  0  0  0  0  0  0  0
    3.2892   -1.5839    0.0000 C   0  0  0  0  0  0  0  0  0  0  0  0
    5.3960    2.2129    0.0000 C   0  0  0  0  0  0  0  0  0  0  0  0
    7.1881    1.1782    0.0000 C   0  0  0  0  0  0  0  0  0  0  0  0
    6.2941    2.7406    0.0000 C   0  0  0  0  0  0  0  0  0  0  0  0
    2.3107   -1.7901    0.0000 C   0  0  0  0  0  0  0  0  0  0  0  0
    7.1961    2.2198    0.0000 C   0  0  0  0  0  0  0  0  0  0  0  0
    8.0483    0.6682    0.0000 C   0  0  0  0  0  0  0  0  0  0  0  0
    2.0000   -2.7406    0.0000 C   0  0  0  0  0  0  0  0  0  0  0  0
    4.4804   -0.9452    0.0000 H   0  0  0  0  0  0  0  0  0  0  0  0
    4.4804    1.2879    0.0000 H   0  0  0  0  0  0  0  0  0  0  0  0
    3.8509    1.5430    0.0000 H   0  0  0  0  0  0  0  0  0  0  0  0
    3.0624    1.2853    0.0000 H   0  0  0  0  0  0  0  0  0  0  0  0
    5.0136   -1.3036    0.0000 H   0  0  0  0  0  0  0  0  0  0  0  0
    5.8106   -1.3036    0.0000 H   0  0  0  0  0  0  0  0  0  0  0  0
    2.5553    0.5861    0.0000 H   0  0  0  0  0  0  0  0  0  0  0  0
    2.5553   -0.2434    0.0000 H   0  0  0  0  0  0  0  0  0  0  0  0
    6.4902   -0.9112    0.0000 H   0  0  0  0  0  0  0  0  0  0  0  0
    6.8887   -0.2210    0.0000 H   0  0  0  0  0  0  0  0  0  0  0  0
    3.3097   -2.2036    0.0000 H   0  0  0  0  0  0  0  0  0  0  0  0
    3.9030   -1.6712    0.0000 H   0  0  0  0  0  0  0  0  0  0  0  0
    4.8555    2.5166    0.0000 H   0  0  0  0  0  0  0  0  0  0  0  0
    6.2917    3.3606    0.0000 H   0  0  0  0  0  0  0  0  0  0  0  0
    1.8966   -1.3286    0.0000 H   0  0  0  0  0  0  0  0  0  0  0  0
    7.7343    2.5277    0.0000 H   0  0  0  0  0  0  0  0  0  0  0  0
    1.3933   -2.8685    0.0000 H   0  0  0  0  0  0  0  0  0  0  0  0
    2.4141   -3.2021    0.0000 H   0  0  0  0  0  0  0  0  0  0  0  0
  1  3  1  0  0  0  0
  1  7  1  0  0  0  0
  1 11  1  0  0  0  0
  2 17  3  0  0  0  0
  3  4  1  0  0  0  0
  3  6  1  0  0  0  0
  3 19  1  0  0  0  0
  4  5  1  0  0  0  0
  4  8  1  0  0  0  0
  4 20  1  0  0  0  0
  5  7  1  0  0  0  0
  5 21  1  0  0  0  0
  5 22  1  0  0  0  0
  6  9  1  0  0  0  0
  6 23  1  0  0  0  0
  6 24  1  0  0  0  0
  7 25  1  0  0  0  0
  7 26  1  0  0  0  0
  8 10  1  0  0  0  0
  8 12  2  0  0  0  0
  9 10  1  0  0  0  0
  9 27  1  0  0  0  0
  9 28  1  0  0  0  0
 10 13  2  0  0  0  0
 11 15  1  0  0  0  0
 11 29  1  0  0  0  0
 11 30  1  0  0  0  0
 12 14  1  0  0  0  0
 12 31  1  0  0  0  0
 13 16  1  0  0  0  0
 13 17  1  0  0  0  0
 14 16  2  0  0  0  0
 14 32  1  0  0  0  0
 15 18  2  0  0  0  0
 15 33  1  0  0  0  0
 16 34  1  0  0  0  0
 18 35  1  0  0  0  0
 18 36  1  0  0  0  0
M  END
> <PUBCHEM_COMPOUND_CID>
44325894

> <PUBCHEM_COMPOUND_CANONICALIZED>
1

> <PUBCHEM_CACTVS_COMPLEXITY>
367

> <PUBCHEM_CACTVS_HBOND_ACCEPTOR>
2

> <PUBCHEM_CACTVS_HBOND_DONOR>
0

> <PUBCHEM_CACTVS_ROTATABLE_BOND>
2

> <PUBCHEM_CACTVS_SUBSKEYS>
AAADceB7AAAAAAAAAAAAAAAAAAAAAWAAAAAwYAAAAAAAAFjBAAAAHAAAAAAADSjBGAQwAIMAAACQBiBCAACiAAAgAAAIiAAIAIgIoCKAkRGEIAAggACIiA8QgMAOgAACAAAQAAAQAASAACQAAAAAAAAAAA==

> <PUBCHEM_IUPAC_OPENEYE_NAME>
3-allyl-1,2,3a,4,5,9b-hexahydrobenzo[e]indole-6-carbonitrile

> <PUBCHEM_IUPAC_CAS_NAME>
3-prop-2-enyl-1,2,3a,4,5,9b-hexahydrobenzo[e]indole-6-carbonitrile

> <PUBCHEM_IUPAC_NAME_MARKUP>
3-prop-2-enyl-1,2,3<I>a</I>,4,5,9<I>b</I>-hexahydrobenzo[e]indole-6-carbonitrile

> <PUBCHEM_IUPAC_NAME>
3-prop-2-enyl-1,2,3a,4,5,9b-hexahydrobenzo[e]indole-6-carbonitrile

> <PUBCHEM_IUPAC_SYSTEMATIC_NAME>
3-prop-2-enyl-1,2,3a,4,5,9b-hexahydrobenzo[e]indole-6-carbonitrile

> <PUBCHEM_IUPAC_TRADITIONAL_NAME>
3-allyl-1,2,3a,4,5,9b-hexahydrobenz[e]indole-6-carbonitrile

> <PUBCHEM_IUPAC_INCHI>
InChI=1S/C16H18N2/c1-2-9-18-10-8-15-14-5-3-4-12(11-17)13(14)6-7-16(15)18/h2-5,15-16H,1,6-10H2

> <PUBCHEM_IUPAC_INCHIKEY>
ZOXQOLDAOFYVMZ-UHFFFAOYSA-N

> <PUBCHEM_XLOGP3_AA>
3

> <PUBCHEM_EXACT_MASS>
238.146998583

> <PUBCHEM_MOLECULAR_FORMULA>
C16H18N2

> <PUBCHEM_MOLECULAR_WEIGHT>
238.33

> <PUBCHEM_OPENEYE_CAN_SMILES>
C=CCN1CCC2C1CCC3=C(C=CC=C23)C#N

> <PUBCHEM_OPENEYE_ISO_SMILES>
C=CCN1CCC2C1CCC3=C(C=CC=C23)C#N

> <PUBCHEM_CACTVS_TPSA>
27

> <PUBCHEM_MONOISOTOPIC_WEIGHT>
238.146998583

> <PUBCHEM_TOTAL_CHARGE>
0

> <PUBCHEM_HEAVY_ATOM_COUNT>
18

> <PUBCHEM_ATOM_DEF_STEREO_COUNT>
0

> <PUBCHEM_ATOM_UDEF_STEREO_COUNT>
2

> <PUBCHEM_BOND_DEF_STEREO_COUNT>
0

> <PUBCHEM_BOND_UDEF_STEREO_COUNT>
0

> <PUBCHEM_ISOTOPIC_ATOM_COUNT>
0

> <PUBCHEM_COMPONENT_COUNT>
1

> <PUBCHEM_CACTVS_TAUTO_COUNT>
-1

> <PUBCHEM_COORDINATE_TYPE>
1
5
255

> <PUBCHEM_BONDANNOTATIONS>
10  13  8
12  14  8
13  16  8
14  16  8
3  6  3
4  5  3
8  10  8
8  12  8

$$$$
