155536374
  -OEChem-09292322412D

 59 62  0     0  0  0  0  0  0999 V2000
    4.5981    1.1185    0.0000 O   0  0  0  0  0  0  0  0  0  0  0  0
    5.4641   -0.3815    0.0000 O   0  0  0  0  0  0  0  0  0  0  0  0
    4.2478    6.3618    0.0000 O   0  0  0  0  0  0  0  0  0  0  0  0
    2.8660   -2.8815    0.0000 N   0  0  0  0  0  0  0  0  0  0  0  0
    2.8660   -4.8815    0.0000 N   0  0  0  0  0  0  0  0  0  0  0  0
    3.7320   -0.3815    0.0000 N   0  0  0  0  0  0  0  0  0  0  0  0
    6.3301    4.1185    0.0000 N   0  0  0  0  0  0  0  0  0  0  0  0
    5.6491    7.3799    0.0000 N   0  0  0  0  0  0  0  0  0  0  0  0
    2.0000   -3.3815    0.0000 C   0  0  0  0  0  0  0  0  0  0  0  0
    3.7320   -3.3815    0.0000 C   0  0  0  0  0  0  0  0  0  0  0  0
    2.0000   -4.3815    0.0000 C   0  0  0  0  0  0  0  0  0  0  0  0
    3.7320   -4.3815    0.0000 C   0  0  0  0  0  0  0  0  0  0  0  0
    2.8660   -1.8815    0.0000 C   0  0  0  0  0  0  0  0  0  0  0  0
    2.8660   -5.8815    0.0000 C   0  0  0  0  0  0  0  0  0  0  0  0
    3.7320   -1.3815    0.0000 C   0  0  0  0  0  0  0  0  0  0  0  0
    3.7320   -6.3815    0.0000 C   0  0  0  0  0  0  0  0  0  0  0  0
    2.0000   -6.3815    0.0000 C   0  0  0  0  0  0  0  0  0  0  0  0
    3.7320   -7.3815    0.0000 C   0  0  0  0  0  0  0  0  0  0  0  0
    2.0000   -7.3815    0.0000 C   0  0  0  0  0  0  0  0  0  0  0  0
    2.8660   -7.8815    0.0000 C   0  0  0  0  0  0  0  0  0  0  0  0
    4.5981    0.1185    0.0000 C   0  0  0  0  0  0  0  0  0  0  0  0
    5.4641    1.6185    0.0000 C   0  0  0  0  0  0  0  0  0  0  0  0
    6.3301    3.1185    0.0000 C   0  0  0  0  0  0  0  0  0  0  0  0
    5.4641    2.6185    0.0000 C   0  0  0  0  0  0  0  0  0  0  0  0
    6.3301    1.1185    0.0000 C   0  0  0  0  0  0  0  0  0  0  0  0
    5.5211    4.7063    0.0000 C   0  0  0  0  0  0  0  0  0  0  0  0
    7.1962    2.6185    0.0000 C   0  0  0  0  0  0  0  0  0  0  0  0
    7.1391    4.7063    0.0000 C   0  0  0  0  0  0  0  0  0  0  0  0
    5.8301    5.6573    0.0000 C   0  0  0  0  0  0  0  0  0  0  0  0
    7.1962    1.6185    0.0000 C   0  0  0  0  0  0  0  0  0  0  0  0
    6.8301    5.6573    0.0000 C   0  0  0  0  0  0  0  0  0  0  0  0
    5.2423    6.4664    0.0000 C   0  0  0  0  0  0  0  0  0  0  0  0
    1.7880   -2.7989    0.0000 H   0  0  0  0  0  0  0  0  0  0  0  0
    1.3894   -3.4892    0.0000 H   0  0  0  0  0  0  0  0  0  0  0  0
    4.3426   -3.4892    0.0000 H   0  0  0  0  0  0  0  0  0  0  0  0
    3.9441   -2.7989    0.0000 H   0  0  0  0  0  0  0  0  0  0  0  0
    1.3894   -4.2738    0.0000 H   0  0  0  0  0  0  0  0  0  0  0  0
    1.7880   -4.9641    0.0000 H   0  0  0  0  0  0  0  0  0  0  0  0
    3.9441   -4.9641    0.0000 H   0  0  0  0  0  0  0  0  0  0  0  0
    4.3426   -4.2738    0.0000 H   0  0  0  0  0  0  0  0  0  0  0  0
    2.6540   -1.2989    0.0000 H   0  0  0  0  0  0  0  0  0  0  0  0
    2.2554   -1.9892    0.0000 H   0  0  0  0  0  0  0  0  0  0  0  0
    3.9441   -1.9641    0.0000 H   0  0  0  0  0  0  0  0  0  0  0  0
    4.3426   -1.2738    0.0000 H   0  0  0  0  0  0  0  0  0  0  0  0
    4.2690   -6.0715    0.0000 H   0  0  0  0  0  0  0  0  0  0  0  0
    1.4631   -6.0715    0.0000 H   0  0  0  0  0  0  0  0  0  0  0  0
    3.1951   -0.0715    0.0000 H   0  0  0  0  0  0  0  0  0  0  0  0
    4.2690   -7.6915    0.0000 H   0  0  0  0  0  0  0  0  0  0  0  0
    1.4631   -7.6915    0.0000 H   0  0  0  0  0  0  0  0  0  0  0  0
    2.8660   -8.5015    0.0000 H   0  0  0  0  0  0  0  0  0  0  0  0
    4.9272    2.9285    0.0000 H   0  0  0  0  0  0  0  0  0  0  0  0
    4.9315    4.5147    0.0000 H   0  0  0  0  0  0  0  0  0  0  0  0
    6.3301    0.4985    0.0000 H   0  0  0  0  0  0  0  0  0  0  0  0
    7.7331    2.9285    0.0000 H   0  0  0  0  0  0  0  0  0  0  0  0
    7.7288    4.5147    0.0000 H   0  0  0  0  0  0  0  0  0  0  0  0
    7.7331    1.3085    0.0000 H   0  0  0  0  0  0  0  0  0  0  0  0
    7.1946    6.1589    0.0000 H   0  0  0  0  0  0  0  0  0  0  0  0
    5.2846    7.8815    0.0000 H   0  0  0  0  0  0  0  0  0  0  0  0
    6.2657    7.4447    0.0000 H   0  0  0  0  0  0  0  0  0  0  0  0
  1 21  1  0  0  0  0
  1 22  1  0  0  0  0
  2 21  2  0  0  0  0
  3 32  2  0  0  0  0
  4  9  1  0  0  0  0
  4 10  1  0  0  0  0
  4 13  1  0  0  0  0
  5 11  1  0  0  0  0
  5 12  1  0  0  0  0
  5 14  1  0  0  0  0
  6 15  1  0  0  0  0
  6 21  1  0  0  0  0
  6 47  1  0  0  0  0
  7 23  1  0  0  0  0
  7 26  1  0  0  0  0
  7 28  1  0  0  0  0
  8 32  1  0  0  0  0
  8 58  1  0  0  0  0
  8 59  1  0  0  0  0
  9 11  1  0  0  0  0
  9 33  1  0  0  0  0
  9 34  1  0  0  0  0
 10 12  1  0  0  0  0
 10 35  1  0  0  0  0
 10 36  1  0  0  0  0
 11 37  1  0  0  0  0
 11 38  1  0  0  0  0
 12 39  1  0  0  0  0
 12 40  1  0  0  0  0
 13 15  1  0  0  0  0
 13 41  1  0  0  0  0
 13 42  1  0  0  0  0
 14 16  2  0  0  0  0
 14 17  1  0  0  0  0
 15 43  1  0  0  0  0
 15 44  1  0  0  0  0
 16 18  1  0  0  0  0
 16 45  1  0  0  0  0
 17 19  2  0  0  0  0
 17 46  1  0  0  0  0
 18 20  2  0  0  0  0
 18 48  1  0  0  0  0
 19 20  1  0  0  0  0
 19 49  1  0  0  0  0
 20 50  1  0  0  0  0
 22 24  1  0  0  0  0
 22 25  2  0  0  0  0
 23 24  2  0  0  0  0
 23 27  1  0  0  0  0
 24 51  1  0  0  0  0
 25 30  1  0  0  0  0
 25 53  1  0  0  0  0
 26 29  2  0  0  0  0
 26 52  1  0  0  0  0
 27 30  2  0  0  0  0
 27 54  1  0  0  0  0
 28 31  2  0  0  0  0
 28 55  1  0  0  0  0
 29 31  1  0  0  0  0
 29 32  1  0  0  0  0
 30 56  1  0  0  0  0
 31 57  1  0  0  0  0
M  END
> <PUBCHEM_COMPOUND_CID>
155536374

> <PUBCHEM_COMPOUND_CANONICALIZED>
1

> <PUBCHEM_CACTVS_COMPLEXITY>
619

> <PUBCHEM_CACTVS_HBOND_ACCEPTOR>
5

> <PUBCHEM_CACTVS_HBOND_DONOR>
2

> <PUBCHEM_CACTVS_ROTATABLE_BOND>
8

> <PUBCHEM_CACTVS_SUBSKEYS>
AAADceB7sAAAAAAAAAAAAAAAAAAAAWAAAAA8YIAAAAAAAAAB0AAAHgAQAAAADAzBmgQ8zpPMFACoAjV3XACCiCA1IiAI2KE+bNkMZvrE9ZucM6hm1hnI6ceUUAMIAAAAAgAAAAAAAAAEAAAAAAAAAAAAAA==

> <PUBCHEM_IUPAC_OPENEYE_NAME>
[3-(3-carbamoylpyrrol-1-yl)phenyl] N-[2-(4-phenylpiperazin-1-yl)ethyl]carbamate

> <PUBCHEM_IUPAC_CAS_NAME>
N-[2-(4-phenyl-1-piperazinyl)ethyl]carbamic acid [3-(3-carbamoyl-1-pyrrolyl)phenyl] ester

> <PUBCHEM_IUPAC_NAME_MARKUP>
[3-(3-carbamoylpyrrol-1-yl)phenyl] <I>N</I>-[2-(4-phenylpiperazin-1-yl)ethyl]carbamate

> <PUBCHEM_IUPAC_NAME>
[3-(3-carbamoylpyrrol-1-yl)phenyl] N-[2-(4-phenylpiperazin-1-yl)ethyl]carbamate

> <PUBCHEM_IUPAC_SYSTEMATIC_NAME>
[3-(3-aminocarbonylpyrrol-1-yl)phenyl] N-[2-(4-phenylpiperazin-1-yl)ethyl]carbamate

> <PUBCHEM_IUPAC_TRADITIONAL_NAME>
N-[2-(4-phenylpiperazino)ethyl]carbamic acid [3-(3-carbamoylpyrrol-1-yl)phenyl] ester

> <PUBCHEM_IUPAC_INCHI>
InChI=1S/C24H27N5O3/c25-23(30)19-9-11-29(18-19)21-7-4-8-22(17-21)32-24(31)26-10-12-27-13-15-28(16-14-27)20-5-2-1-3-6-20/h1-9,11,17-18H,10,12-16H2,(H2,25,30)(H,26,31)

> <PUBCHEM_IUPAC_INCHIKEY>
WGOUWABLRGOCPZ-UHFFFAOYSA-N

> <PUBCHEM_XLOGP3_AA>
2.4

> <PUBCHEM_EXACT_MASS>
433.21138974

> <PUBCHEM_MOLECULAR_FORMULA>
C24H27N5O3

> <PUBCHEM_MOLECULAR_WEIGHT>
433.5

> <PUBCHEM_OPENEYE_CAN_SMILES>
C1CN(CCN1CCNC(=O)OC2=CC=CC(=C2)N3C=CC(=C3)C(=O)N)C4=CC=CC=C4

> <PUBCHEM_OPENEYE_ISO_SMILES>
C1CN(CCN1CCNC(=O)OC2=CC=CC(=C2)N3C=CC(=C3)C(=O)N)C4=CC=CC=C4

> <PUBCHEM_CACTVS_TPSA>
92.8

> <PUBCHEM_MONOISOTOPIC_WEIGHT>
433.21138974

> <PUBCHEM_TOTAL_CHARGE>
0

> <PUBCHEM_HEAVY_ATOM_COUNT>
32

> <PUBCHEM_ATOM_DEF_STEREO_COUNT>
0

> <PUBCHEM_ATOM_UDEF_STEREO_COUNT>
0

> <PUBCHEM_BOND_DEF_STEREO_COUNT>
0

> <PUBCHEM_BOND_UDEF_STEREO_COUNT>
0

> <PUBCHEM_ISOTOPIC_ATOM_COUNT>
0

> <PUBCHEM_COMPONENT_COUNT>
1

> <PUBCHEM_CACTVS_TAUTO_COUNT>
-1

> <PUBCHEM_COORDINATE_TYPE>
1
5
255

> <PUBCHEM_BONDANNOTATIONS>
14  16  8
14  17  8
16  18  8
17  19  8
18  20  8
19  20  8
22  24  8
22  25  8
23  24  8
23  27  8
25  30  8
26  29  8
27  30  8
28  31  8
29  31  8
7  26  8
7  28  8

$$$$
