45260687
  -OEChem-09292322202D

 47 49  0     0  0  0  0  0  0999 V2000
    4.6284    0.0000    0.0000 Cl  0  0  0  0  0  0  0  0  0  0  0  0
    6.2078    4.8260    0.0000 O   0  0  0  0  0  0  0  0  0  0  0  0
    5.8988    7.3951    0.0000 O   0  0  0  0  0  0  0  0  0  0  0  0
    3.6200    5.6350    0.0000 N   0  0  0  0  0  0  0  0  0  0  0  0
    5.6200    5.6350    0.0000 C   0  0  0  0  0  0  0  0  0  0  0  0
    5.1200    4.7690    0.0000 C   0  0  0  0  0  0  0  0  0  0  0  0
    5.1200    6.5010    0.0000 C   0  0  0  0  0  0  0  0  0  0  0  0
    4.1200    4.7690    0.0000 C   0  0  0  0  0  0  0  0  0  0  0  0
    4.1200    6.5010    0.0000 C   0  0  0  0  0  0  0  0  0  0  0  0
    6.2078    6.4440    0.0000 C   0  0  0  0  0  0  0  0  0  0  0  0
    2.6200    5.6350    0.0000 C   0  0  0  0  0  0  0  0  0  0  0  0
    7.1588    6.1350    0.0000 C   0  0  0  0  0  0  0  0  0  0  0  0
    7.1588    5.1350    0.0000 C   0  0  0  0  0  0  0  0  0  0  0  0
    2.1200    4.7690    0.0000 C   0  0  0  0  0  0  0  0  0  0  0  0
    7.9679    6.7228    0.0000 C   0  0  0  0  0  0  0  0  0  0  0  0
    2.6200    3.9030    0.0000 C   0  0  0  0  0  0  0  0  0  0  0  0
    1.1200    4.7690    0.0000 C   0  0  0  0  0  0  0  0  0  0  0  0
    7.8633    7.7173    0.0000 C   0  0  0  0  0  0  0  0  0  0  0  0
    8.8814    6.3161    0.0000 C   0  0  0  0  0  0  0  0  0  0  0  0
    2.1200    3.0369    0.0000 C   0  0  0  0  0  0  0  0  0  0  0  0
    0.6200    3.9030    0.0000 C   0  0  0  0  0  0  0  0  0  0  0  0
    8.6724    8.3051    0.0000 C   0  0  0  0  0  0  0  0  0  0  0  0
    9.6904    6.9038    0.0000 C   0  0  0  0  0  0  0  0  0  0  0  0
    1.1200    3.0369    0.0000 C   0  0  0  0  0  0  0  0  0  0  0  0
    9.5859    7.8984    0.0000 C   0  0  0  0  0  0  0  0  0  0  0  0
    5.0123    4.1584    0.0000 H   0  0  0  0  0  0  0  0  0  0  0  0
    5.7026    4.5569    0.0000 H   0  0  0  0  0  0  0  0  0  0  0  0
    5.7026    6.7131    0.0000 H   0  0  0  0  0  0  0  0  0  0  0  0
    5.0123    7.1116    0.0000 H   0  0  0  0  0  0  0  0  0  0  0  0
    3.5374    4.5569    0.0000 H   0  0  0  0  0  0  0  0  0  0  0  0
    4.2277    4.1584    0.0000 H   0  0  0  0  0  0  0  0  0  0  0  0
    4.2277    7.1116    0.0000 H   0  0  0  0  0  0  0  0  0  0  0  0
    3.5374    6.7131    0.0000 H   0  0  0  0  0  0  0  0  0  0  0  0
    2.7277    6.2456    0.0000 H   0  0  0  0  0  0  0  0  0  0  0  0
    2.0374    5.8471    0.0000 H   0  0  0  0  0  0  0  0  0  0  0  0
    7.6604    4.7706    0.0000 H   0  0  0  0  0  0  0  0  0  0  0  0
    3.2400    3.9030    0.0000 H   0  0  0  0  0  0  0  0  0  0  0  0
    0.8100    5.3059    0.0000 H   0  0  0  0  0  0  0  0  0  0  0  0
    7.2969    7.9695    0.0000 H   0  0  0  0  0  0  0  0  0  0  0  0
    8.9462    5.6995    0.0000 H   0  0  0  0  0  0  0  0  0  0  0  0
    2.4300    2.5000    0.0000 H   0  0  0  0  0  0  0  0  0  0  0  0
    0.0000    3.9030    0.0000 H   0  0  0  0  0  0  0  0  0  0  0  0
    8.6075    8.9217    0.0000 H   0  0  0  0  0  0  0  0  0  0  0  0
   10.2568    6.6517    0.0000 H   0  0  0  0  0  0  0  0  0  0  0  0
    0.8100    2.5000    0.0000 H   0  0  0  0  0  0  0  0  0  0  0  0
   10.0875    8.2628    0.0000 H   0  0  0  0  0  0  0  0  0  0  0  0
    5.6284    0.0000    0.0000 H   0  0  0  0  0  0  0  0  0  0  0  0
  1 47  1  0  0  0  0
  2  5  1  0  0  0  0
  2 13  1  0  0  0  0
  3 10  2  0  0  0  0
  4  8  1  0  0  0  0
  4  9  1  0  0  0  0
  4 11  1  0  0  0  0
  5  6  1  0  0  0  0
  5  7  1  0  0  0  0
  5 10  1  0  0  0  0
  6  8  1  0  0  0  0
  6 26  1  0  0  0  0
  6 27  1  0  0  0  0
  7  9  1  0  0  0  0
  7 28  1  0  0  0  0
  7 29  1  0  0  0  0
  8 30  1  0  0  0  0
  8 31  1  0  0  0  0
  9 32  1  0  0  0  0
  9 33  1  0  0  0  0
 10 12  1  0  0  0  0
 11 14  1  0  0  0  0
 11 34  1  0  0  0  0
 11 35  1  0  0  0  0
 12 13  2  0  0  0  0
 12 15  1  0  0  0  0
 13 36  1  0  0  0  0
 14 16  2  0  0  0  0
 14 17  1  0  0  0  0
 15 18  2  0  0  0  0
 15 19  1  0  0  0  0
 16 20  1  0  0  0  0
 16 37  1  0  0  0  0
 17 21  2  0  0  0  0
 17 38  1  0  0  0  0
 18 22  1  0  0  0  0
 18 39  1  0  0  0  0
 19 23  2  0  0  0  0
 19 40  1  0  0  0  0
 20 24  2  0  0  0  0
 20 41  1  0  0  0  0
 21 24  1  0  0  0  0
 21 42  1  0  0  0  0
 22 25  2  0  0  0  0
 22 43  1  0  0  0  0
 23 25  1  0  0  0  0
 23 44  1  0  0  0  0
 24 45  1  0  0  0  0
 25 46  1  0  0  0  0
M  END
> <PUBCHEM_COMPOUND_CID>
45260687

> <PUBCHEM_COMPOUND_CANONICALIZED>
1

> <PUBCHEM_CACTVS_COMPLEXITY>
478

> <PUBCHEM_CACTVS_HBOND_ACCEPTOR>
3

> <PUBCHEM_CACTVS_HBOND_DONOR>
1

> <PUBCHEM_CACTVS_ROTATABLE_BOND>
3

> <PUBCHEM_CACTVS_SUBSKEYS>
AAADceB6MAAEAAAAAAAAAAAAAAAAAQAAAAA8YIAAAAAAAAABQAAAHgAAAAAADEThmAYwAIMABACIAqBSAAKCCAAgIAAIiAFIBMgIIDKAlRWEIAhmwACIiIecyOCOAAAAAAAAAAAAAAAAAAAAAAAAAAAAAA==

> <PUBCHEM_IUPAC_OPENEYE_NAME>
8-benzyl-3-phenyl-1-oxa-8-azaspiro[4.5]dec-2-en-4-one;hydrochloride

> <PUBCHEM_IUPAC_CAS_NAME>
3-phenyl-8-(phenylmethyl)-1-oxa-8-azaspiro[4.5]dec-2-en-4-one;hydrochloride

> <PUBCHEM_IUPAC_NAME_MARKUP>
8-benzyl-3-phenyl-1-oxa-8-azaspiro[4.5]dec-2-en-4-one;hydrochloride

> <PUBCHEM_IUPAC_NAME>
8-benzyl-3-phenyl-1-oxa-8-azaspiro[4.5]dec-2-en-4-one;hydrochloride

> <PUBCHEM_IUPAC_SYSTEMATIC_NAME>
3-phenyl-8-(phenylmethyl)-1-oxa-8-azaspiro[4.5]dec-2-en-4-one;hydrochloride

> <PUBCHEM_IUPAC_TRADITIONAL_NAME>
8-benzyl-3-phenyl-1-oxa-8-azaspiro[4.5]dec-2-en-4-one;hydrochloride

> <PUBCHEM_IUPAC_INCHI>
InChI=1S/C21H21NO2.ClH/c23-20-19(18-9-5-2-6-10-18)16-24-21(20)11-13-22(14-12-21)15-17-7-3-1-4-8-17;/h1-10,16H,11-15H2;1H

> <PUBCHEM_IUPAC_INCHIKEY>
BZWPZJFKODGSDW-UHFFFAOYSA-N

> <PUBCHEM_EXACT_MASS>
355.1339066

> <PUBCHEM_MOLECULAR_FORMULA>
C21H22ClNO2

> <PUBCHEM_MOLECULAR_WEIGHT>
355.9

> <PUBCHEM_OPENEYE_CAN_SMILES>
C1CN(CCC12C(=O)C(=CO2)C3=CC=CC=C3)CC4=CC=CC=C4.Cl

> <PUBCHEM_OPENEYE_ISO_SMILES>
C1CN(CCC12C(=O)C(=CO2)C3=CC=CC=C3)CC4=CC=CC=C4.Cl

> <PUBCHEM_CACTVS_TPSA>
29.5

> <PUBCHEM_MONOISOTOPIC_WEIGHT>
355.1339066

> <PUBCHEM_TOTAL_CHARGE>
0

> <PUBCHEM_HEAVY_ATOM_COUNT>
25

> <PUBCHEM_ATOM_DEF_STEREO_COUNT>
0

> <PUBCHEM_ATOM_UDEF_STEREO_COUNT>
0

> <PUBCHEM_BOND_DEF_STEREO_COUNT>
0

> <PUBCHEM_BOND_UDEF_STEREO_COUNT>
0

> <PUBCHEM_ISOTOPIC_ATOM_COUNT>
0

> <PUBCHEM_COMPONENT_COUNT>
2

> <PUBCHEM_CACTVS_TAUTO_COUNT>
-1

> <PUBCHEM_COORDINATE_TYPE>
1
5
255

> <PUBCHEM_BONDANNOTATIONS>
14  16  8
14  17  8
15  18  8
15  19  8
16  20  8
17  21  8
18  22  8
19  23  8
20  24  8
21  24  8
22  25  8
23  25  8

$$$$
