122181328
  -OEChem-09292322362D

 58 60  0     0  0  0  0  0  0999 V2000
    5.4641   -6.5000    0.0000 F   0  0  0  0  0  0  0  0  0  0  0  0
    2.0000   -6.5000    0.0000 F   0  0  0  0  0  0  0  0  0  0  0  0
    3.7320   -7.5000    0.0000 F   0  0  0  0  0  0  0  0  0  0  0  0
    8.9282    5.5000    0.0000 O   0  0  0  0  0  0  0  0  0  0  0  0
    3.7320   -1.5000    0.0000 O   0  0  0  0  0  0  0  0  0  0  0  0
    7.1962    2.5000    0.0000 N   0  0  0  0  0  0  0  0  0  0  0  0
    7.1962    4.5000    0.0000 N   0  0  0  0  0  0  0  0  0  0  0  0
    5.4641   -1.5000    0.0000 N   0  0  0  0  0  0  0  0  0  0  0  0
    4.5981   -3.0000    0.0000 N   0  0  0  0  0  0  0  0  0  0  0  0
    3.7320   -3.5000    0.0000 N   0  0  0  0  0  0  0  0  0  0  0  0
    8.0622    3.0000    0.0000 C   0  0  0  0  0  0  0  0  0  0  0  0
    6.3301    3.0000    0.0000 C   0  0  0  0  0  0  0  0  0  0  0  0
    8.0622    4.0000    0.0000 C   0  0  0  0  0  0  0  0  0  0  0  0
    6.3301    4.0000    0.0000 C   0  0  0  0  0  0  0  0  0  0  0  0
    7.1962    1.5000    0.0000 C   0  0  0  0  0  0  0  0  0  0  0  0
    6.3301    1.0000    0.0000 C   0  0  0  0  0  0  0  0  0  0  0  0
    7.1962    5.5000    0.0000 C   0  0  0  0  0  0  0  0  0  0  0  0
    6.3301    0.0000    0.0000 C   0  0  0  0  0  0  0  0  0  0  0  0
    5.4641   -0.5000    0.0000 C   0  0  0  0  0  0  0  0  0  0  0  0
    8.0622    6.0000    0.0000 C   0  0  0  0  0  0  0  0  0  0  0  0
    6.3301    6.0000    0.0000 C   0  0  0  0  0  0  0  0  0  0  0  0
    8.0622    7.0000    0.0000 C   0  0  0  0  0  0  0  0  0  0  0  0
    6.3301    7.0000    0.0000 C   0  0  0  0  0  0  0  0  0  0  0  0
    7.1962    7.5000    0.0000 C   0  0  0  0  0  0  0  0  0  0  0  0
    4.5981   -2.0000    0.0000 C   0  0  0  0  0  0  0  0  0  0  0  0
    9.7942    6.0000    0.0000 C   0  0  0  0  0  0  0  0  0  0  0  0
    3.7320   -4.5000    0.0000 C   0  0  0  0  0  0  0  0  0  0  0  0
    2.8660   -5.0000    0.0000 C   0  0  0  0  0  0  0  0  0  0  0  0
    4.5981   -5.0000    0.0000 C   0  0  0  0  0  0  0  0  0  0  0  0
    4.5981   -6.0000    0.0000 C   0  0  0  0  0  0  0  0  0  0  0  0
    2.8660   -6.0000    0.0000 C   0  0  0  0  0  0  0  0  0  0  0  0
    3.7320   -6.5000    0.0000 C   0  0  0  0  0  0  0  0  0  0  0  0
    8.2742    2.4174    0.0000 H   0  0  0  0  0  0  0  0  0  0  0  0
    8.6728    3.1077    0.0000 H   0  0  0  0  0  0  0  0  0  0  0  0
    5.7196    3.1077    0.0000 H   0  0  0  0  0  0  0  0  0  0  0  0
    6.1181    2.4174    0.0000 H   0  0  0  0  0  0  0  0  0  0  0  0
    8.6728    3.8923    0.0000 H   0  0  0  0  0  0  0  0  0  0  0  0
    8.2742    4.5826    0.0000 H   0  0  0  0  0  0  0  0  0  0  0  0
    6.1181    4.5826    0.0000 H   0  0  0  0  0  0  0  0  0  0  0  0
    5.7196    3.8923    0.0000 H   0  0  0  0  0  0  0  0  0  0  0  0
    7.4082    0.9174    0.0000 H   0  0  0  0  0  0  0  0  0  0  0  0
    7.8067    1.6077    0.0000 H   0  0  0  0  0  0  0  0  0  0  0  0
    6.1181    1.5826    0.0000 H   0  0  0  0  0  0  0  0  0  0  0  0
    5.7196    0.8923    0.0000 H   0  0  0  0  0  0  0  0  0  0  0  0
    6.5422   -0.5826    0.0000 H   0  0  0  0  0  0  0  0  0  0  0  0
    6.9407    0.1077    0.0000 H   0  0  0  0  0  0  0  0  0  0  0  0
    5.2520    0.0826    0.0000 H   0  0  0  0  0  0  0  0  0  0  0  0
    4.8535   -0.6077    0.0000 H   0  0  0  0  0  0  0  0  0  0  0  0
    5.7932    5.6900    0.0000 H   0  0  0  0  0  0  0  0  0  0  0  0
    8.5991    7.3100    0.0000 H   0  0  0  0  0  0  0  0  0  0  0  0
    5.7932    7.3100    0.0000 H   0  0  0  0  0  0  0  0  0  0  0  0
    6.0010   -1.8100    0.0000 H   0  0  0  0  0  0  0  0  0  0  0  0
    7.1962    8.1200    0.0000 H   0  0  0  0  0  0  0  0  0  0  0  0
   10.1042    5.4631    0.0000 H   0  0  0  0  0  0  0  0  0  0  0  0
   10.3312    6.3100    0.0000 H   0  0  0  0  0  0  0  0  0  0  0  0
    9.4842    6.5369    0.0000 H   0  0  0  0  0  0  0  0  0  0  0  0
    2.3291   -4.6900    0.0000 H   0  0  0  0  0  0  0  0  0  0  0  0
    5.1350   -4.6900    0.0000 H   0  0  0  0  0  0  0  0  0  0  0  0
  1 30  1  0  0  0  0
  2 31  1  0  0  0  0
  3 32  1  0  0  0  0
  4 20  1  0  0  0  0
  4 26  1  0  0  0  0
  5 25  2  0  0  0  0
  6 11  1  0  0  0  0
  6 12  1  0  0  0  0
  6 15  1  0  0  0  0
  7 13  1  0  0  0  0
  7 14  1  0  0  0  0
  7 17  1  0  0  0  0
  8 19  1  0  0  0  0
  8 25  1  0  0  0  0
  8 52  1  0  0  0  0
  9 10  2  0  0  0  0
  9 25  1  0  0  0  0
 10 27  1  0  0  0  0
 11 13  1  0  0  0  0
 11 33  1  0  0  0  0
 11 34  1  0  0  0  0
 12 14  1  0  0  0  0
 12 35  1  0  0  0  0
 12 36  1  0  0  0  0
 13 37  1  0  0  0  0
 13 38  1  0  0  0  0
 14 39  1  0  0  0  0
 14 40  1  0  0  0  0
 15 16  1  0  0  0  0
 15 41  1  0  0  0  0
 15 42  1  0  0  0  0
 16 18  1  0  0  0  0
 16 43  1  0  0  0  0
 16 44  1  0  0  0  0
 17 20  1  0  0  0  0
 17 21  2  0  0  0  0
 18 19  1  0  0  0  0
 18 45  1  0  0  0  0
 18 46  1  0  0  0  0
 19 47  1  0  0  0  0
 19 48  1  0  0  0  0
 20 22  2  0  0  0  0
 21 23  1  0  0  0  0
 21 49  1  0  0  0  0
 22 24  1  0  0  0  0
 22 50  1  0  0  0  0
 23 24  2  0  0  0  0
 23 51  1  0  0  0  0
 24 53  1  0  0  0  0
 26 54  1  0  0  0  0
 26 55  1  0  0  0  0
 26 56  1  0  0  0  0
 27 28  2  0  0  0  0
 27 29  1  0  0  0  0
 28 31  1  0  0  0  0
 28 57  1  0  0  0  0
 29 30  2  0  0  0  0
 29 58  1  0  0  0  0
 30 32  1  0  0  0  0
 31 32  2  0  0  0  0
M  END
> <PUBCHEM_COMPOUND_CID>
122181328

> <PUBCHEM_COMPOUND_CANONICALIZED>
1

> <PUBCHEM_CACTVS_COMPLEXITY>
594

> <PUBCHEM_CACTVS_HBOND_ACCEPTOR>
8

> <PUBCHEM_CACTVS_HBOND_DONOR>
1

> <PUBCHEM_CACTVS_ROTATABLE_BOND>
8

> <PUBCHEM_CACTVS_SUBSKEYS>
AAADceB7sYAAAAAAAAAAAAAAAAAAAAAAAAA8YIAAAAAAAAABQAAAHwAYAAAACAzBkA4zxoPABACKACRCUACCCAAhIgAIiIAPbIiOZiLEsZuVMChk1hPY6AeQQAAAAAAAAAAAEAAAAAAAAAAgAAAAAAAAAA==

> <PUBCHEM_IUPAC_OPENEYE_NAME>
1-[4-[4-(2-methoxyphenyl)piperazin-1-yl]butyl]-3-(3,4,5-trifluorophenyl)imino-urea

> <PUBCHEM_IUPAC_CAS_NAME>
1-[4-[4-(2-methoxyphenyl)-1-piperazinyl]butyl]-3-(3,4,5-trifluorophenyl)iminourea

> <PUBCHEM_IUPAC_NAME_MARKUP>
1-[4-[4-(2-methoxyphenyl)piperazin-1-yl]butyl]-3-(3,4,5-trifluorophenyl)iminourea

> <PUBCHEM_IUPAC_NAME>
1-[4-[4-(2-methoxyphenyl)piperazin-1-yl]butyl]-3-(3,4,5-trifluorophenyl)iminourea

> <PUBCHEM_IUPAC_SYSTEMATIC_NAME>
1-[4-[4-(2-methoxyphenyl)piperazin-1-yl]butyl]-3-[3,4,5-tris(fluoranyl)phenyl]imino-urea

> <PUBCHEM_IUPAC_TRADITIONAL_NAME>
1-[4-[4-(2-methoxyphenyl)piperazino]butyl]-3-(3,4,5-trifluorophenyl)imino-urea

> <PUBCHEM_IUPAC_INCHI>
InChI=1S/C22H26F3N5O2/c1-32-20-7-3-2-6-19(20)30-12-10-29(11-13-30)9-5-4-8-26-22(31)28-27-16-14-17(23)21(25)18(24)15-16/h2-3,6-7,14-15H,4-5,8-13H2,1H3,(H,26,31)

> <PUBCHEM_IUPAC_INCHIKEY>
PASOWIIUVYLHIV-UHFFFAOYSA-N

> <PUBCHEM_XLOGP3_AA>
4.4

> <PUBCHEM_EXACT_MASS>
449.20385958

> <PUBCHEM_MOLECULAR_FORMULA>
C22H26F3N5O2

> <PUBCHEM_MOLECULAR_WEIGHT>
449.5

> <PUBCHEM_OPENEYE_CAN_SMILES>
COC1=CC=CC=C1N2CCN(CC2)CCCCNC(=O)N=NC3=CC(=C(C(=C3)F)F)F

> <PUBCHEM_OPENEYE_ISO_SMILES>
COC1=CC=CC=C1N2CCN(CC2)CCCCNC(=O)N=NC3=CC(=C(C(=C3)F)F)F

> <PUBCHEM_CACTVS_TPSA>
69.5

> <PUBCHEM_MONOISOTOPIC_WEIGHT>
449.20385958

> <PUBCHEM_TOTAL_CHARGE>
0

> <PUBCHEM_HEAVY_ATOM_COUNT>
32

> <PUBCHEM_ATOM_DEF_STEREO_COUNT>
0

> <PUBCHEM_ATOM_UDEF_STEREO_COUNT>
0

> <PUBCHEM_BOND_DEF_STEREO_COUNT>
0

> <PUBCHEM_BOND_UDEF_STEREO_COUNT>
0

> <PUBCHEM_ISOTOPIC_ATOM_COUNT>
0

> <PUBCHEM_COMPONENT_COUNT>
1

> <PUBCHEM_CACTVS_TAUTO_COUNT>
-1

> <PUBCHEM_COORDINATE_TYPE>
1
5
255

> <PUBCHEM_BONDANNOTATIONS>
17  20  8
17  21  8
20  22  8
21  23  8
22  24  8
23  24  8
27  28  8
27  29  8
28  31  8
29  30  8
30  32  8
31  32  8

$$$$
