149309924
  -OEChem-09292322452D

 74 79  0     0  0  0  0  0  0999 V2000
    5.4641   -3.2521    0.0000 O   0  0  0  0  0  0  0  0  0  0  0  0
    2.8660    2.2479    0.0000 N   0  0  0  0  0  0  0  0  0  0  0  0
    3.7320   -3.2521    0.0000 N   0  0  0  0  0  0  0  0  0  0  0  0
    3.6750    5.8357    0.0000 N   0  0  0  0  0  0  0  0  0  0  0  0
    2.0570    5.8357    0.0000 N   0  0  0  0  0  0  0  0  0  0  0  0
    5.3692    6.1958    0.0000 N   0  0  0  0  0  0  0  0  0  0  0  0
    6.3580   -6.7868    0.0000 N   0  0  0  0  0  0  0  0  0  0  0  0
    3.7320   -0.2521    0.0000 C   0  0  0  0  0  0  0  0  0  0  0  0
    4.5981   -0.7521    0.0000 C   0  0  0  0  0  0  0  0  0  0  0  0
    2.8660   -0.7521    0.0000 C   0  0  0  0  0  0  0  0  0  0  0  0
    3.7320    0.7479    0.0000 C   0  0  0  0  0  0  0  0  0  0  0  0
    3.7320   -2.2521    0.0000 C   0  0  0  0  0  0  0  0  0  0  0  0
    4.5981   -1.7521    0.0000 C   0  0  0  0  0  0  0  0  0  0  0  0
    2.8660   -1.7521    0.0000 C   0  0  0  0  0  0  0  0  0  0  0  0
    2.8660    1.2479    0.0000 C   0  0  0  0  0  0  0  0  0  0  0  0
    2.8660    4.2479    0.0000 C   0  0  0  0  0  0  0  0  0  0  0  0
    3.7320    2.7479    0.0000 C   0  0  0  0  0  0  0  0  0  0  0  0
    2.0000    2.7479    0.0000 C   0  0  0  0  0  0  0  0  0  0  0  0
    3.7320    3.7479    0.0000 C   0  0  0  0  0  0  0  0  0  0  0  0
    2.0000    3.7479    0.0000 C   0  0  0  0  0  0  0  0  0  0  0  0
    2.8660    5.2479    0.0000 C   0  0  0  0  0  0  0  0  0  0  0  0
    4.5981   -3.7521    0.0000 C   0  0  0  0  0  0  0  0  0  0  0  0
    3.3660    6.7868    0.0000 C   0  0  0  0  0  0  0  0  0  0  0  0
    4.5981   -4.7521    0.0000 C   0  0  0  0  0  0  0  0  0  0  0  0
    2.3660    6.7868    0.0000 C   0  0  0  0  0  0  0  0  0  0  0  0
    4.6261    5.5267    0.0000 C   0  0  0  0  0  0  0  0  0  0  0  0
    5.4641   -5.2521    0.0000 C   0  0  0  0  0  0  0  0  0  0  0  0
    3.7320   -5.2521    0.0000 C   0  0  0  0  0  0  0  0  0  0  0  0
    4.8340    4.5485    0.0000 C   0  0  0  0  0  0  0  0  0  0  0  0
    5.4641   -6.2521    0.0000 C   0  0  0  0  0  0  0  0  0  0  0  0
    3.7320   -6.2521    0.0000 C   0  0  0  0  0  0  0  0  0  0  0  0
    6.3580   -4.7174    0.0000 C   0  0  0  0  0  0  0  0  0  0  0  0
    4.5981   -6.7521    0.0000 C   0  0  0  0  0  0  0  0  0  0  0  0
    5.7851    4.2395    0.0000 C   0  0  0  0  0  0  0  0  0  0  0  0
    6.3203    5.8868    0.0000 C   0  0  0  0  0  0  0  0  0  0  0  0
    6.5282    4.9086    0.0000 C   0  0  0  0  0  0  0  0  0  0  0  0
    7.2641   -5.2313    0.0000 C   0  0  0  0  0  0  0  0  0  0  0  0
    7.2641   -6.2729    0.0000 C   0  0  0  0  0  0  0  0  0  0  0  0
    4.2690    0.0579    0.0000 H   0  0  0  0  0  0  0  0  0  0  0  0
    5.2087   -0.8598    0.0000 H   0  0  0  0  0  0  0  0  0  0  0  0
    4.8101   -0.1695    0.0000 H   0  0  0  0  0  0  0  0  0  0  0  0
    2.6540   -0.1695    0.0000 H   0  0  0  0  0  0  0  0  0  0  0  0
    2.2554   -0.8598    0.0000 H   0  0  0  0  0  0  0  0  0  0  0  0
    4.3426    0.6402    0.0000 H   0  0  0  0  0  0  0  0  0  0  0  0
    3.9441    1.3305    0.0000 H   0  0  0  0  0  0  0  0  0  0  0  0
    4.2690   -2.5621    0.0000 H   0  0  0  0  0  0  0  0  0  0  0  0
    4.8101   -2.3347    0.0000 H   0  0  0  0  0  0  0  0  0  0  0  0
    5.2087   -1.6444    0.0000 H   0  0  0  0  0  0  0  0  0  0  0  0
    2.2554   -1.6444    0.0000 H   0  0  0  0  0  0  0  0  0  0  0  0
    2.6540   -2.3347    0.0000 H   0  0  0  0  0  0  0  0  0  0  0  0
    2.2554    1.3556    0.0000 H   0  0  0  0  0  0  0  0  0  0  0  0
    2.6540    0.6653    0.0000 H   0  0  0  0  0  0  0  0  0  0  0  0
    3.4030    4.5579    0.0000 H   0  0  0  0  0  0  0  0  0  0  0  0
    3.9441    2.1653    0.0000 H   0  0  0  0  0  0  0  0  0  0  0  0
    4.3426    2.8556    0.0000 H   0  0  0  0  0  0  0  0  0  0  0  0
    1.3894    2.8556    0.0000 H   0  0  0  0  0  0  0  0  0  0  0  0
    1.7880    2.1653    0.0000 H   0  0  0  0  0  0  0  0  0  0  0  0
    4.3426    3.6402    0.0000 H   0  0  0  0  0  0  0  0  0  0  0  0
    3.9441    4.3305    0.0000 H   0  0  0  0  0  0  0  0  0  0  0  0
    1.7880    4.3305    0.0000 H   0  0  0  0  0  0  0  0  0  0  0  0
    1.3894    3.6402    0.0000 H   0  0  0  0  0  0  0  0  0  0  0  0
    3.1951   -3.5621    0.0000 H   0  0  0  0  0  0  0  0  0  0  0  0
    3.7304    7.2883    0.0000 H   0  0  0  0  0  0  0  0  0  0  0  0
    2.0016    7.2883    0.0000 H   0  0  0  0  0  0  0  0  0  0  0  0
    3.1951   -4.9421    0.0000 H   0  0  0  0  0  0  0  0  0  0  0  0
    4.3733    4.1337    0.0000 H   0  0  0  0  0  0  0  0  0  0  0  0
    3.1951   -6.5621    0.0000 H   0  0  0  0  0  0  0  0  0  0  0  0
    6.3509   -4.0975    0.0000 H   0  0  0  0  0  0  0  0  0  0  0  0
    4.5981   -7.3721    0.0000 H   0  0  0  0  0  0  0  0  0  0  0  0
    5.9140    3.6331    0.0000 H   0  0  0  0  0  0  0  0  0  0  0  0
    6.7810    6.3017    0.0000 H   0  0  0  0  0  0  0  0  0  0  0  0
    7.1179    4.7171    0.0000 H   0  0  0  0  0  0  0  0  0  0  0  0
    7.7998   -4.9192    0.0000 H   0  0  0  0  0  0  0  0  0  0  0  0
    7.7998   -6.5850    0.0000 H   0  0  0  0  0  0  0  0  0  0  0  0
  1 22  2  0  0  0  0
  2 15  1  0  0  0  0
  2 17  1  0  0  0  0
  2 18  1  0  0  0  0
  3 12  1  0  0  0  0
  3 22  1  0  0  0  0
  3 62  1  0  0  0  0
  4 21  1  0  0  0  0
  4 23  1  0  0  0  0
  4 26  1  0  0  0  0
  5 21  2  0  0  0  0
  5 25  1  0  0  0  0
  6 26  1  0  0  0  0
  6 35  2  0  0  0  0
  7 30  1  0  0  0  0
  7 38  2  0  0  0  0
  8  9  1  0  0  0  0
  8 10  1  0  0  0  0
  8 11  1  0  0  0  0
  8 39  1  0  0  0  0
  9 13  1  0  0  0  0
  9 40  1  0  0  0  0
  9 41  1  0  0  0  0
 10 14  1  0  0  0  0
 10 42  1  0  0  0  0
 10 43  1  0  0  0  0
 11 15  1  0  0  0  0
 11 44  1  0  0  0  0
 11 45  1  0  0  0  0
 12 13  1  0  0  0  0
 12 14  1  0  0  0  0
 12 46  1  0  0  0  0
 13 47  1  0  0  0  0
 13 48  1  0  0  0  0
 14 49  1  0  0  0  0
 14 50  1  0  0  0  0
 15 51  1  0  0  0  0
 15 52  1  0  0  0  0
 16 19  1  0  0  0  0
 16 20  1  0  0  0  0
 16 21  1  0  0  0  0
 16 53  1  0  0  0  0
 17 19  1  0  0  0  0
 17 54  1  0  0  0  0
 17 55  1  0  0  0  0
 18 20  1  0  0  0  0
 18 56  1  0  0  0  0
 18 57  1  0  0  0  0
 19 58  1  0  0  0  0
 19 59  1  0  0  0  0
 20 60  1  0  0  0  0
 20 61  1  0  0  0  0
 22 24  1  0  0  0  0
 23 25  2  0  0  0  0
 23 63  1  0  0  0  0
 24 27  2  0  0  0  0
 24 28  1  0  0  0  0
 25 64  1  0  0  0  0
 26 29  2  0  0  0  0
 27 30  1  0  0  0  0
 27 32  1  0  0  0  0
 28 31  2  0  0  0  0
 28 65  1  0  0  0  0
 29 34  1  0  0  0  0
 29 66  1  0  0  0  0
 30 33  2  0  0  0  0
 31 33  1  0  0  0  0
 31 67  1  0  0  0  0
 32 37  2  0  0  0  0
 32 68  1  0  0  0  0
 33 69  1  0  0  0  0
 34 36  2  0  0  0  0
 34 70  1  0  0  0  0
 35 36  1  0  0  0  0
 35 71  1  0  0  0  0
 36 72  1  0  0  0  0
 37 38  1  0  0  0  0
 37 73  1  0  0  0  0
 38 74  1  0  0  0  0
M  END
> <PUBCHEM_COMPOUND_CID>
149309924

> <PUBCHEM_COMPOUND_CANONICALIZED>
1

> <PUBCHEM_CACTVS_COMPLEXITY>
749

> <PUBCHEM_CACTVS_HBOND_ACCEPTOR>
5

> <PUBCHEM_CACTVS_HBOND_DONOR>
1

> <PUBCHEM_CACTVS_ROTATABLE_BOND>
7

> <PUBCHEM_CACTVS_SUBSKEYS>
AAADcfB7oAAAAAAAAAAAAAAAAAAAAWAAAAA8eLECAAAAAACx/gAAHgAQAAAADSjBnwQ98PfMEACoAzd3dACCgC01EqAJ2KE4dNiIaPLAnZGUIQholgLIyacciICOgAAAQAASAAAQAACAACQAAAAAAAAAAA==

> <PUBCHEM_IUPAC_OPENEYE_NAME>
N-[4-[2-[4-[1-(2-pyridyl)imidazol-2-yl]-1-piperidyl]ethyl]cyclohexyl]quinoline-5-carboxamide

> <PUBCHEM_IUPAC_CAS_NAME>
N-[4-[2-[4-[1-(2-pyridinyl)-2-imidazolyl]-1-piperidinyl]ethyl]cyclohexyl]-5-quinolinecarboxamide

> <PUBCHEM_IUPAC_NAME_MARKUP>
<I>N</I>-[4-[2-[4-(1-pyridin-2-ylimidazol-2-yl)piperidin-1-yl]ethyl]cyclohexyl]quinoline-5-carboxamide

> <PUBCHEM_IUPAC_NAME>
N-[4-[2-[4-(1-pyridin-2-ylimidazol-2-yl)piperidin-1-yl]ethyl]cyclohexyl]quinoline-5-carboxamide

> <PUBCHEM_IUPAC_SYSTEMATIC_NAME>
N-[4-[2-[4-(1-pyridin-2-ylimidazol-2-yl)piperidin-1-yl]ethyl]cyclohexyl]quinoline-5-carboxamide

> <PUBCHEM_IUPAC_TRADITIONAL_NAME>
N-[4-[2-[4-[1-(2-pyridyl)imidazol-2-yl]piperidino]ethyl]cyclohexyl]quinoline-5-carboxamide

> <PUBCHEM_IUPAC_INCHI>
InChI=1S/C31H36N6O/c38-31(27-5-3-7-28-26(27)6-4-17-32-28)35-25-11-9-23(10-12-25)13-19-36-20-14-24(15-21-36)30-34-18-22-37(30)29-8-1-2-16-33-29/h1-8,16-18,22-25H,9-15,19-21H2,(H,35,38)

> <PUBCHEM_IUPAC_INCHIKEY>
XYKKDJZJLXDRKB-UHFFFAOYSA-N

> <PUBCHEM_XLOGP3_AA>
4.7

> <PUBCHEM_EXACT_MASS>
508.29505979

> <PUBCHEM_MOLECULAR_FORMULA>
C31H36N6O

> <PUBCHEM_MOLECULAR_WEIGHT>
508.7

> <PUBCHEM_OPENEYE_CAN_SMILES>
C1CC(CCC1CCN2CCC(CC2)C3=NC=CN3C4=CC=CC=N4)NC(=O)C5=C6C=CC=NC6=CC=C5

> <PUBCHEM_OPENEYE_ISO_SMILES>
C1CC(CCC1CCN2CCC(CC2)C3=NC=CN3C4=CC=CC=N4)NC(=O)C5=C6C=CC=NC6=CC=C5

> <PUBCHEM_CACTVS_TPSA>
75.9

> <PUBCHEM_MONOISOTOPIC_WEIGHT>
508.29505979

> <PUBCHEM_TOTAL_CHARGE>
0

> <PUBCHEM_HEAVY_ATOM_COUNT>
38

> <PUBCHEM_ATOM_DEF_STEREO_COUNT>
0

> <PUBCHEM_ATOM_UDEF_STEREO_COUNT>
0

> <PUBCHEM_BOND_DEF_STEREO_COUNT>
0

> <PUBCHEM_BOND_UDEF_STEREO_COUNT>
0

> <PUBCHEM_ISOTOPIC_ATOM_COUNT>
0

> <PUBCHEM_COMPONENT_COUNT>
1

> <PUBCHEM_CACTVS_TAUTO_COUNT>
-1

> <PUBCHEM_COORDINATE_TYPE>
1
5
255

> <PUBCHEM_BONDANNOTATIONS>
23  25  8
24  27  8
24  28  8
26  29  8
27  30  8
27  32  8
28  31  8
29  34  8
30  33  8
31  33  8
32  37  8
34  36  8
35  36  8
37  38  8
4  21  8
4  23  8
5  21  8
5  25  8
6  26  8
6  35  8
7  30  8
7  38  8

$$$$
