44275766
  -OEChem-09292322122D

 54 57  0     1  0  0  0  0  0999 V2000
    5.4641    2.5639    0.0000 O   0  0  0  0  0  0  0  0  0  0  0  0
    7.2719    0.5569    0.0000 N   0  0  3  0  0  0  0  0  0  0  0  0
    4.6038    1.0605    0.0000 N   0  0  0  0  0  0  0  0  0  0  0  0
    3.7320    2.5572    0.0000 N   0  0  0  0  0  0  0  0  0  0  0  0
    6.3898   -0.9846    0.0000 C   0  0  2  0  0  0  0  0  0  0  0  0
    7.2558   -0.4846    0.0000 C   0  0  1  0  0  0  0  0  0  0  0  0
    5.4798   -0.4777    0.0000 C   0  0  0  0  0  0  0  0  0  0  0  0
    5.4718    0.5639    0.0000 C   0  0  2  0  0  0  0  0  0  0  0  0
    8.1219   -0.9846    0.0000 C   0  0  0  0  0  0  0  0  0  0  0  0
    6.3898   -1.9846    0.0000 C   0  0  0  0  0  0  0  0  0  0  0  0
    6.3739    1.0847    0.0000 C   0  0  0  0  0  0  0  0  0  0  0  0
    7.2558   -2.4846    0.0000 C   0  0  0  0  0  0  0  0  0  0  0  0
    8.1219   -1.9846    0.0000 C   0  0  0  0  0  0  0  0  0  0  0  0
    7.2719   -3.5261    0.0000 C   0  0  0  0  0  0  0  0  0  0  0  0
    8.7398   -2.7629    0.0000 C   0  0  0  0  0  0  0  0  0  0  0  0
    8.2599   -3.6332    0.0000 C   0  0  0  0  0  0  0  0  0  0  0  0
    8.1436    1.0469    0.0000 C   0  0  0  0  0  0  0  0  0  0  0  0
    5.4798   -2.4914    0.0000 C   0  0  0  0  0  0  0  0  0  0  0  0
    6.3739   -4.0538    0.0000 C   0  0  0  0  0  0  0  0  0  0  0  0
    5.4718   -3.5330    0.0000 C   0  0  0  0  0  0  0  0  0  0  0  0
    4.6000    2.0605    0.0000 C   0  0  0  0  0  0  0  0  0  0  0  0
    3.7282    3.5572    0.0000 C   0  0  0  0  0  0  0  0  0  0  0  0
    2.8680    2.0538    0.0000 C   0  0  0  0  0  0  0  0  0  0  0  0
    2.8602    4.0538    0.0000 C   0  0  0  0  0  0  0  0  0  0  0  0
    2.0000    2.5505    0.0000 C   0  0  0  0  0  0  0  0  0  0  0  0
    5.6570   -1.4152    0.0000 H   0  0  0  0  0  0  0  0  0  0  0  0
    7.9952   -0.0653    0.0000 H   0  0  0  0  0  0  0  0  0  0  0  0
    4.8682   -0.3763    0.0000 H   0  0  0  0  0  0  0  0  0  0  0  0
    5.2753   -1.0630    0.0000 H   0  0  0  0  0  0  0  0  0  0  0  0
    5.4706    1.1839    0.0000 H   0  0  0  0  0  0  0  0  0  0  0  0
    8.7324   -1.0922    0.0000 H   0  0  0  0  0  0  0  0  0  0  0  0
    8.3339   -0.4020    0.0000 H   0  0  0  0  0  0  0  0  0  0  0  0
    6.7748    1.5576    0.0000 H   0  0  0  0  0  0  0  0  0  0  0  0
    5.9766    1.5607    0.0000 H   0  0  0  0  0  0  0  0  0  0  0  0
    9.3576   -2.7112    0.0000 H   0  0  0  0  0  0  0  0  0  0  0  0
    8.1126   -4.2354    0.0000 H   0  0  0  0  0  0  0  0  0  0  0  0
    8.8375   -3.8585    0.0000 H   0  0  0  0  0  0  0  0  0  0  0  0
    8.4474    0.5064    0.0000 H   0  0  0  0  0  0  0  0  0  0  0  0
    8.6841    1.3507    0.0000 H   0  0  0  0  0  0  0  0  0  0  0  0
    7.8399    1.5874    0.0000 H   0  0  0  0  0  0  0  0  0  0  0  0
    4.9465   -2.1752    0.0000 H   0  0  0  0  0  0  0  0  0  0  0  0
    4.0681    0.7485    0.0000 H   0  0  0  0  0  0  0  0  0  0  0  0
    6.3762   -4.6738    0.0000 H   0  0  0  0  0  0  0  0  0  0  0  0
    4.9337   -3.8410    0.0000 H   0  0  0  0  0  0  0  0  0  0  0  0
    4.3392    3.4519    0.0000 H   0  0  0  0  0  0  0  0  0  0  0  0
    3.9380    4.1406    0.0000 H   0  0  0  0  0  0  0  0  0  0  0  0
    2.4712    1.5774    0.0000 H   0  0  0  0  0  0  0  0  0  0  0  0
    3.2683    1.5804    0.0000 H   0  0  0  0  0  0  0  0  0  0  0  0
    3.1682    4.5920    0.0000 H   0  0  0  0  0  0  0  0  0  0  0  0
    2.3221    4.3618    0.0000 H   0  0  0  0  0  0  0  0  0  0  0  0
    2.5523    3.5157    0.0000 H   0  0  0  0  0  0  0  0  0  0  0  0
    2.3079    3.0886    0.0000 H   0  0  0  0  0  0  0  0  0  0  0  0
    1.4619    2.8584    0.0000 H   0  0  0  0  0  0  0  0  0  0  0  0
    1.6921    2.0124    0.0000 H   0  0  0  0  0  0  0  0  0  0  0  0
  1 21  2  0  0  0  0
  2  6  1  0  0  0  0
  2 11  1  0  0  0  0
  2 17  1  0  0  0  0
  8  3  1  1  0  0  0
  3 21  1  0  0  0  0
  3 42  1  0  0  0  0
  4 21  1  0  0  0  0
  4 22  1  0  0  0  0
  4 23  1  0  0  0  0
  5  6  1  0  0  0  0
  5  7  1  0  0  0  0
  5 10  1  0  0  0  0
  5 26  1  6  0  0  0
  6  9  1  0  0  0  0
  6 27  1  1  0  0  0
  7  8  1  0  0  0  0
  7 28  1  0  0  0  0
  7 29  1  0  0  0  0
  8 11  1  0  0  0  0
  8 30  1  0  0  0  0
  9 13  1  0  0  0  0
  9 31  1  0  0  0  0
  9 32  1  0  0  0  0
 10 12  1  0  0  0  0
 10 18  2  0  0  0  0
 11 33  1  0  0  0  0
 11 34  1  0  0  0  0
 12 13  1  0  0  0  0
 12 14  2  0  0  0  0
 13 15  2  0  0  0  0
 14 16  1  0  0  0  0
 14 19  1  0  0  0  0
 15 16  1  0  0  0  0
 15 35  1  0  0  0  0
 16 36  1  0  0  0  0
 16 37  1  0  0  0  0
 17 38  1  0  0  0  0
 17 39  1  0  0  0  0
 17 40  1  0  0  0  0
 18 20  1  0  0  0  0
 18 41  1  0  0  0  0
 19 20  2  0  0  0  0
 19 43  1  0  0  0  0
 20 44  1  0  0  0  0
 22 24  1  0  0  0  0
 22 45  1  0  0  0  0
 22 46  1  0  0  0  0
 23 25  1  0  0  0  0
 23 47  1  0  0  0  0
 23 48  1  0  0  0  0
 24 49  1  0  0  0  0
 24 50  1  0  0  0  0
 24 51  1  0  0  0  0
 25 52  1  0  0  0  0
 25 53  1  0  0  0  0
 25 54  1  0  0  0  0
M  END
> <PUBCHEM_COMPOUND_CID>
44275766

> <PUBCHEM_COMPOUND_CANONICALIZED>
1

> <PUBCHEM_CACTVS_COMPLEXITY>
541

> <PUBCHEM_CACTVS_HBOND_ACCEPTOR>
2

> <PUBCHEM_CACTVS_HBOND_DONOR>
1

> <PUBCHEM_CACTVS_ROTATABLE_BOND>
3

> <PUBCHEM_CACTVS_SUBSKEYS>
AAADceB7IAAAAAAAAAAAAAAAAAAAAQAAAAA8YIAAAAAAAEDxAAAAHgAQAAAADSjBGAQzAIPAAACIAiBCEAACAAAgAAAIiIAIAIiIYCKAkRGUIAAolgKIiAcQgMAOgAACAAAQAAAQAASAACQAAAAAAAAAAA==

> <PUBCHEM_IUPAC_OPENEYE_NAME>
1,1-diethyl-3-[(2R,4R,7R)-6-methyl-6-azatetracyclo[7.6.1.02,7.012,16]hexadeca-1(15),9,12(16),13-tetraen-4-yl]urea

> <PUBCHEM_IUPAC_CAS_NAME>
1,1-diethyl-3-[(2R,4R,7R)-6-methyl-6-azatetracyclo[7.6.1.02,7.012,16]hexadeca-1(15),9,12(16),13-tetraen-4-yl]urea

> <PUBCHEM_IUPAC_NAME_MARKUP>
1,1-diethyl-3-[(2<I>R</I>,4<I>R</I>,7<I>R</I>)-6-methyl-6-azatetracyclo[7.6.1.0<SUP>2,7</SUP>.0<SUP>12,16</SUP>]hexadeca-1(15),9,12(16),13-tetraen-4-yl]urea

> <PUBCHEM_IUPAC_NAME>
1,1-diethyl-3-[(2R,4R,7R)-6-methyl-6-azatetracyclo[7.6.1.02,7.012,16]hexadeca-1(15),9,12(16),13-tetraen-4-yl]urea

> <PUBCHEM_IUPAC_SYSTEMATIC_NAME>
1,1-diethyl-3-[(2R,4R,7R)-6-methyl-6-azatetracyclo[7.6.1.02,7.012,16]hexadeca-1(15),9,12(16),13-tetraen-4-yl]urea

> <PUBCHEM_IUPAC_TRADITIONAL_NAME>
1,1-diethyl-3-[(2R,4R,7R)-6-methyl-6-azatetracyclo[7.6.1.02,7.012,16]hexadeca-1(15),9,12(16),13-tetraen-4-yl]urea

> <PUBCHEM_IUPAC_INCHI>
InChI=1S/C21H29N3O/c1-4-24(5-2)21(25)22-16-12-18-17-8-6-7-14-9-10-15(20(14)17)11-19(18)23(3)13-16/h6-8,10,16,18-19H,4-5,9,11-13H2,1-3H3,(H,22,25)/t16-,18-,19-/m1/s1

> <PUBCHEM_IUPAC_INCHIKEY>
CTVAPGCBERCRDO-BHIYHBOVSA-N

> <PUBCHEM_XLOGP3_AA>
2.7

> <PUBCHEM_EXACT_MASS>
339.231062557

> <PUBCHEM_MOLECULAR_FORMULA>
C21H29N3O

> <PUBCHEM_MOLECULAR_WEIGHT>
339.5

> <PUBCHEM_OPENEYE_CAN_SMILES>
CCN(CC)C(=O)NC1CC2C(CC3=CCC4=C3C2=CC=C4)N(C1)C

> <PUBCHEM_OPENEYE_ISO_SMILES>
CCN(CC)C(=O)N[C@@H]1C[C@H]2[C@@H](CC3=CCC4=C3C2=CC=C4)N(C1)C

> <PUBCHEM_CACTVS_TPSA>
35.6

> <PUBCHEM_MONOISOTOPIC_WEIGHT>
339.231062557

> <PUBCHEM_TOTAL_CHARGE>
0

> <PUBCHEM_HEAVY_ATOM_COUNT>
25

> <PUBCHEM_ATOM_DEF_STEREO_COUNT>
3

> <PUBCHEM_ATOM_UDEF_STEREO_COUNT>
0

> <PUBCHEM_BOND_DEF_STEREO_COUNT>
0

> <PUBCHEM_BOND_UDEF_STEREO_COUNT>
0

> <PUBCHEM_ISOTOPIC_ATOM_COUNT>
0

> <PUBCHEM_COMPONENT_COUNT>
1

> <PUBCHEM_CACTVS_TAUTO_COUNT>
-1

> <PUBCHEM_COORDINATE_TYPE>
1
5
255

> <PUBCHEM_BONDANNOTATIONS>
10  12  8
10  18  8
12  14  8
14  19  8
18  20  8
19  20  8
8  3  5
5  26  6
6  27  5

$$$$
