56944859
  -OEChem-09292322342D

 56 60  0     0  0  0  0  0  0999 V2000
    7.9050    2.6528    0.0000 S   0  0  0  0  0  0  0  0  0  0  0  0
    2.5398   -5.6875    0.0000 F   0  0  0  0  0  0  0  0  0  0  0  0
    2.0000   -2.1791    0.0000 O   0  0  0  0  0  0  0  0  0  0  0  0
    6.9050    2.6528    0.0000 O   0  0  0  0  0  0  0  0  0  0  0  0
    8.9050    2.6528    0.0000 O   0  0  0  0  0  0  0  0  0  0  0  0
    6.1730   -0.3472    0.0000 N   0  0  0  0  0  0  0  0  0  0  0  0
    2.6671   -1.4421    0.0000 N   0  0  0  0  0  0  0  0  0  0  0  0
    7.9050    1.6528    0.0000 N   0  0  0  0  0  0  0  0  0  0  0  0
    4.4409   -1.3472    0.0000 C   0  0  0  0  0  0  0  0  0  0  0  0
    4.4409   -0.3472    0.0000 C   0  0  0  0  0  0  0  0  0  0  0  0
    5.3069   -1.8472    0.0000 C   0  0  0  0  0  0  0  0  0  0  0  0
    5.3069    0.1528    0.0000 C   0  0  0  0  0  0  0  0  0  0  0  0
    6.1730   -1.3472    0.0000 C   0  0  0  0  0  0  0  0  0  0  0  0
    7.0390    0.1528    0.0000 C   0  0  0  0  0  0  0  0  0  0  0  0
    3.5749   -1.8472    0.0000 C   0  0  0  0  0  0  0  0  0  0  0  0
    7.0390    1.1528    0.0000 C   0  0  0  0  0  0  0  0  0  0  0  0
    3.4718   -2.8359    0.0000 C   0  0  0  0  0  0  0  0  0  0  0  0
    2.4933   -3.0421    0.0000 C   0  0  0  0  0  0  0  0  0  0  0  0
    4.1397   -3.5802    0.0000 C   0  0  0  0  0  0  0  0  0  0  0  0
    2.1827   -3.9926    0.0000 C   0  0  0  0  0  0  0  0  0  0  0  0
    7.9050    3.6528    0.0000 C   0  0  0  0  0  0  0  0  0  0  0  0
    3.8290   -4.5307    0.0000 C   0  0  0  0  0  0  0  0  0  0  0  0
    2.8505   -4.7370    0.0000 C   0  0  0  0  0  0  0  0  0  0  0  0
    8.7710    4.1528    0.0000 C   0  0  0  0  0  0  0  0  0  0  0  0
    7.0390    4.1528    0.0000 C   0  0  0  0  0  0  0  0  0  0  0  0
    8.7710    5.1528    0.0000 C   0  0  0  0  0  0  0  0  0  0  0  0
    9.6650    3.6182    0.0000 C   0  0  0  0  0  0  0  0  0  0  0  0
    7.0390    5.1528    0.0000 C   0  0  0  0  0  0  0  0  0  0  0  0
    7.9050    5.6528    0.0000 C   0  0  0  0  0  0  0  0  0  0  0  0
    9.6650    5.6875    0.0000 C   0  0  0  0  0  0  0  0  0  0  0  0
   10.5710    4.1320    0.0000 C   0  0  0  0  0  0  0  0  0  0  0  0
   10.5710    5.1736    0.0000 C   0  0  0  0  0  0  0  0  0  0  0  0
    4.4409   -1.9672    0.0000 H   0  0  0  0  0  0  0  0  0  0  0  0
    4.2288    0.2354    0.0000 H   0  0  0  0  0  0  0  0  0  0  0  0
    3.8303   -0.4548    0.0000 H   0  0  0  0  0  0  0  0  0  0  0  0
    4.9084   -2.3221    0.0000 H   0  0  0  0  0  0  0  0  0  0  0  0
    5.7054   -2.3221    0.0000 H   0  0  0  0  0  0  0  0  0  0  0  0
    5.7054    0.6278    0.0000 H   0  0  0  0  0  0  0  0  0  0  0  0
    4.9084    0.6278    0.0000 H   0  0  0  0  0  0  0  0  0  0  0  0
    6.3850   -1.9298    0.0000 H   0  0  0  0  0  0  0  0  0  0  0  0
    6.7835   -1.2395    0.0000 H   0  0  0  0  0  0  0  0  0  0  0  0
    7.2510   -0.4298    0.0000 H   0  0  0  0  0  0  0  0  0  0  0  0
    7.6496    0.2605    0.0000 H   0  0  0  0  0  0  0  0  0  0  0  0
    6.8269    1.7354    0.0000 H   0  0  0  0  0  0  0  0  0  0  0  0
    6.4284    1.0452    0.0000 H   0  0  0  0  0  0  0  0  0  0  0  0
    8.4419    1.3428    0.0000 H   0  0  0  0  0  0  0  0  0  0  0  0
    4.7463   -3.4524    0.0000 H   0  0  0  0  0  0  0  0  0  0  0  0
    1.5760   -4.1205    0.0000 H   0  0  0  0  0  0  0  0  0  0  0  0
    4.2431   -4.9922    0.0000 H   0  0  0  0  0  0  0  0  0  0  0  0
    6.5020    3.8428    0.0000 H   0  0  0  0  0  0  0  0  0  0  0  0
    9.6578    2.9982    0.0000 H   0  0  0  0  0  0  0  0  0  0  0  0
    6.5020    5.4628    0.0000 H   0  0  0  0  0  0  0  0  0  0  0  0
    7.9050    6.2728    0.0000 H   0  0  0  0  0  0  0  0  0  0  0  0
    9.6578    6.3074    0.0000 H   0  0  0  0  0  0  0  0  0  0  0  0
   11.1068    3.8199    0.0000 H   0  0  0  0  0  0  0  0  0  0  0  0
   11.1068    5.4857    0.0000 H   0  0  0  0  0  0  0  0  0  0  0  0
  1  4  2  0  0  0  0
  1  5  2  0  0  0  0
  1  8  1  0  0  0  0
  1 21  1  0  0  0  0
  2 23  1  0  0  0  0
  3  7  1  0  0  0  0
  3 18  1  0  0  0  0
  6 12  1  0  0  0  0
  6 13  1  0  0  0  0
  6 14  1  0  0  0  0
  7 15  2  0  0  0  0
  8 16  1  0  0  0  0
  8 46  1  0  0  0  0
  9 10  1  0  0  0  0
  9 11  1  0  0  0  0
  9 15  1  0  0  0  0
  9 33  1  0  0  0  0
 10 12  1  0  0  0  0
 10 34  1  0  0  0  0
 10 35  1  0  0  0  0
 11 13  1  0  0  0  0
 11 36  1  0  0  0  0
 11 37  1  0  0  0  0
 12 38  1  0  0  0  0
 12 39  1  0  0  0  0
 13 40  1  0  0  0  0
 13 41  1  0  0  0  0
 14 16  1  0  0  0  0
 14 42  1  0  0  0  0
 14 43  1  0  0  0  0
 15 17  1  0  0  0  0
 16 44  1  0  0  0  0
 16 45  1  0  0  0  0
 17 18  2  0  0  0  0
 17 19  1  0  0  0  0
 18 20  1  0  0  0  0
 19 22  2  0  0  0  0
 19 47  1  0  0  0  0
 20 23  2  0  0  0  0
 20 48  1  0  0  0  0
 21 24  1  0  0  0  0
 21 25  2  0  0  0  0
 22 23  1  0  0  0  0
 22 49  1  0  0  0  0
 24 26  1  0  0  0  0
 24 27  2  0  0  0  0
 25 28  1  0  0  0  0
 25 50  1  0  0  0  0
 26 29  1  0  0  0  0
 26 30  2  0  0  0  0
 27 31  1  0  0  0  0
 27 51  1  0  0  0  0
 28 29  2  0  0  0  0
 28 52  1  0  0  0  0
 29 53  1  0  0  0  0
 30 32  1  0  0  0  0
 30 54  1  0  0  0  0
 31 32  2  0  0  0  0
 31 55  1  0  0  0  0
 32 56  1  0  0  0  0
M  END
> <PUBCHEM_COMPOUND_CID>
56944859

> <PUBCHEM_COMPOUND_CANONICALIZED>
1

> <PUBCHEM_CACTVS_COMPLEXITY>
725

> <PUBCHEM_CACTVS_HBOND_ACCEPTOR>
7

> <PUBCHEM_CACTVS_HBOND_DONOR>
1

> <PUBCHEM_CACTVS_ROTATABLE_BOND>
6

> <PUBCHEM_CACTVS_SUBSKEYS>
AAADceB7MQBAAAAAAAAAAAAAAAAAAWAAAAA8YMEAAAAAAFjB9AAAHwQUQAAADQzB3gwwh9NQAAKpA6RyQnDCABAkIAAomLk+TNoIZrqAlZOUMYBm0BmIyceYyOCOgAAAgAAcAAAAAAEAADgAAAAAAAAAAA==

> <PUBCHEM_IUPAC_OPENEYE_NAME>
N-[2-[4-(6-fluoro-1,2-benzoxazol-3-yl)-1-piperidyl]ethyl]naphthalene-1-sulfonamide

> <PUBCHEM_IUPAC_CAS_NAME>
N-[2-[4-(6-fluoro-1,2-benzoxazol-3-yl)-1-piperidinyl]ethyl]-1-naphthalenesulfonamide

> <PUBCHEM_IUPAC_NAME_MARKUP>
<I>N</I>-[2-[4-(6-fluoro-1,2-benzoxazol-3-yl)piperidin-1-yl]ethyl]naphthalene-1-sulfonamide

> <PUBCHEM_IUPAC_NAME>
N-[2-[4-(6-fluoro-1,2-benzoxazol-3-yl)piperidin-1-yl]ethyl]naphthalene-1-sulfonamide

> <PUBCHEM_IUPAC_SYSTEMATIC_NAME>
N-[2-[4-(6-fluoranyl-1,2-benzoxazol-3-yl)piperidin-1-yl]ethyl]naphthalene-1-sulfonamide

> <PUBCHEM_IUPAC_TRADITIONAL_NAME>
N-[2-[4-(6-fluoroindoxazen-3-yl)piperidino]ethyl]naphthalene-1-sulfonamide

> <PUBCHEM_IUPAC_INCHI>
InChI=1S/C24H24FN3O3S/c25-19-8-9-21-22(16-19)31-27-24(21)18-10-13-28(14-11-18)15-12-26-32(29,30)23-7-3-5-17-4-1-2-6-20(17)23/h1-9,16,18,26H,10-15H2

> <PUBCHEM_IUPAC_INCHIKEY>
ZHUCAIBXMOFDCR-UHFFFAOYSA-N

> <PUBCHEM_XLOGP3_AA>
4.3

> <PUBCHEM_EXACT_MASS>
453.15224097

> <PUBCHEM_MOLECULAR_FORMULA>
C24H24FN3O3S

> <PUBCHEM_MOLECULAR_WEIGHT>
453.5

> <PUBCHEM_OPENEYE_CAN_SMILES>
C1CN(CCC1C2=NOC3=C2C=CC(=C3)F)CCNS(=O)(=O)C4=CC=CC5=CC=CC=C54

> <PUBCHEM_OPENEYE_ISO_SMILES>
C1CN(CCC1C2=NOC3=C2C=CC(=C3)F)CCNS(=O)(=O)C4=CC=CC5=CC=CC=C54

> <PUBCHEM_CACTVS_TPSA>
83.8

> <PUBCHEM_MONOISOTOPIC_WEIGHT>
453.15224097

> <PUBCHEM_TOTAL_CHARGE>
0

> <PUBCHEM_HEAVY_ATOM_COUNT>
32

> <PUBCHEM_ATOM_DEF_STEREO_COUNT>
0

> <PUBCHEM_ATOM_UDEF_STEREO_COUNT>
0

> <PUBCHEM_BOND_DEF_STEREO_COUNT>
0

> <PUBCHEM_BOND_UDEF_STEREO_COUNT>
0

> <PUBCHEM_ISOTOPIC_ATOM_COUNT>
0

> <PUBCHEM_COMPONENT_COUNT>
1

> <PUBCHEM_CACTVS_TAUTO_COUNT>
-1

> <PUBCHEM_COORDINATE_TYPE>
1
5
255

> <PUBCHEM_BONDANNOTATIONS>
15  17  8
17  18  8
17  19  8
18  20  8
19  22  8
20  23  8
21  24  8
21  25  8
22  23  8
24  26  8
24  27  8
25  28  8
26  29  8
26  30  8
27  31  8
28  29  8
3  18  8
3  7  8
30  32  8
31  32  8
7  15  8

$$$$
