155513802
  -OEChem-09292322412D

 67 69  0     1  0  0  0  0  0999 V2000
    7.4985    0.0000    0.0000 Cl  0  0  0  0  0  0  0  0  0  0  0  0
    1.4030    8.6349    0.0000 F   0  0  0  0  0  0  0  0  0  0  0  0
   11.0632    4.6349    0.0000 O   0  0  0  0  0  0  0  0  0  0  0  0
    5.8671    5.6349    0.0000 N   0  0  3  0  0  0  0  0  0  0  0  0
   10.1972    6.1349    0.0000 N   0  0  0  0  0  0  0  0  0  0  0  0
    4.1350    5.6349    0.0000 C   0  0  3  0  0  0  0  0  0  0  0  0
    3.1350    5.6349    0.0000 C   0  0  3  0  0  0  0  0  0  0  0  0
    3.6350    4.7688    0.0000 C   0  0  0  0  0  0  0  0  0  0  0  0
    5.0010    6.1349    0.0000 C   0  0  0  0  0  0  0  0  0  0  0  0
    2.2690    6.1349    0.0000 C   0  0  0  0  0  0  0  0  0  0  0  0
    6.7331    6.1349    0.0000 C   0  0  0  0  0  0  0  0  0  0  0  0
    5.8671    4.6349    0.0000 C   0  0  0  0  0  0  0  0  0  0  0  0
    2.2690    7.1349    0.0000 C   0  0  0  0  0  0  0  0  0  0  0  0
    1.4030    5.6349    0.0000 C   0  0  0  0  0  0  0  0  0  0  0  0
    7.5991    5.6349    0.0000 C   0  0  0  0  0  0  0  0  0  0  0  0
    6.7331    4.1349    0.0000 C   0  0  0  0  0  0  0  0  0  0  0  0
    1.4030    7.6349    0.0000 C   0  0  0  0  0  0  0  0  0  0  0  0
    0.5369    6.1349    0.0000 C   0  0  0  0  0  0  0  0  0  0  0  0
    0.5369    7.1349    0.0000 C   0  0  0  0  0  0  0  0  0  0  0  0
    8.4651    6.1349    0.0000 C   0  0  0  0  0  0  0  0  0  0  0  0
    6.7331    3.1349    0.0000 C   0  0  0  0  0  0  0  0  0  0  0  0
    9.3312    5.6349    0.0000 C   0  0  0  0  0  0  0  0  0  0  0  0
   11.0632    5.6349    0.0000 C   0  0  0  0  0  0  0  0  0  0  0  0
   11.9292    6.1349    0.0000 C   0  0  0  0  0  0  0  0  0  0  0  0
   12.7953    5.6349    0.0000 C   0  0  0  0  0  0  0  0  0  0  0  0
   11.9292    7.1349    0.0000 C   0  0  0  0  0  0  0  0  0  0  0  0
   13.6613    6.1349    0.0000 C   0  0  0  0  0  0  0  0  0  0  0  0
   13.6613    7.1349    0.0000 C   0  0  0  0  0  0  0  0  0  0  0  0
   12.7953    7.6349    0.0000 C   0  0  0  0  0  0  0  0  0  0  0  0
   14.5552    5.6002    0.0000 C   0  0  0  0  0  0  0  0  0  0  0  0
   14.5552    7.6695    0.0000 C   0  0  0  0  0  0  0  0  0  0  0  0
   15.4613    6.1140    0.0000 C   0  0  0  0  0  0  0  0  0  0  0  0
   15.4613    7.1557    0.0000 C   0  0  0  0  0  0  0  0  0  0  0  0
    3.9745    6.2337    0.0000 H   0  0  0  0  0  0  0  0  0  0  0  0
    3.2955    6.2337    0.0000 H   0  0  0  0  0  0  0  0  0  0  0  0
    3.1601    4.3703    0.0000 H   0  0  0  0  0  0  0  0  0  0  0  0
    4.1100    4.3703    0.0000 H   0  0  0  0  0  0  0  0  0  0  0  0
    5.3996    6.6098    0.0000 H   0  0  0  0  0  0  0  0  0  0  0  0
    4.6025    6.6098    0.0000 H   0  0  0  0  0  0  0  0  0  0  0  0
    7.1316    6.6098    0.0000 H   0  0  0  0  0  0  0  0  0  0  0  0
    6.3346    6.6098    0.0000 H   0  0  0  0  0  0  0  0  0  0  0  0
    5.2565    4.7425    0.0000 H   0  0  0  0  0  0  0  0  0  0  0  0
    5.6550    4.0523    0.0000 H   0  0  0  0  0  0  0  0  0  0  0  0
    2.8059    7.4449    0.0000 H   0  0  0  0  0  0  0  0  0  0  0  0
    1.4030    5.0149    0.0000 H   0  0  0  0  0  0  0  0  0  0  0  0
    7.2006    5.1599    0.0000 H   0  0  0  0  0  0  0  0  0  0  0  0
    7.9976    5.1599    0.0000 H   0  0  0  0  0  0  0  0  0  0  0  0
    7.3437    4.0272    0.0000 H   0  0  0  0  0  0  0  0  0  0  0  0
    6.9451    4.7175    0.0000 H   0  0  0  0  0  0  0  0  0  0  0  0
    0.0000    5.8249    0.0000 H   0  0  0  0  0  0  0  0  0  0  0  0
    0.0000    7.4449    0.0000 H   0  0  0  0  0  0  0  0  0  0  0  0
    8.8637    6.6098    0.0000 H   0  0  0  0  0  0  0  0  0  0  0  0
    8.0666    6.6098    0.0000 H   0  0  0  0  0  0  0  0  0  0  0  0
    6.1131    3.1349    0.0000 H   0  0  0  0  0  0  0  0  0  0  0  0
    6.7331    2.5149    0.0000 H   0  0  0  0  0  0  0  0  0  0  0  0
    7.3531    3.1349    0.0000 H   0  0  0  0  0  0  0  0  0  0  0  0
    8.9326    5.1599    0.0000 H   0  0  0  0  0  0  0  0  0  0  0  0
    9.7297    5.1599    0.0000 H   0  0  0  0  0  0  0  0  0  0  0  0
   10.1972    6.7549    0.0000 H   0  0  0  0  0  0  0  0  0  0  0  0
   12.7953    5.0149    0.0000 H   0  0  0  0  0  0  0  0  0  0  0  0
   11.3923    7.4449    0.0000 H   0  0  0  0  0  0  0  0  0  0  0  0
   12.7953    8.2549    0.0000 H   0  0  0  0  0  0  0  0  0  0  0  0
   14.5481    4.9802    0.0000 H   0  0  0  0  0  0  0  0  0  0  0  0
   14.5481    8.2895    0.0000 H   0  0  0  0  0  0  0  0  0  0  0  0
   15.9970    5.8020    0.0000 H   0  0  0  0  0  0  0  0  0  0  0  0
   15.9970    7.4678    0.0000 H   0  0  0  0  0  0  0  0  0  0  0  0
    8.4985    0.0000    0.0000 H   0  0  0  0  0  0  0  0  0  0  0  0
  1 67  1  0  0  0  0
  2 17  1  0  0  0  0
  3 23  2  0  0  0  0
  4  9  1  0  0  0  0
  4 11  1  0  0  0  0
  4 12  1  0  0  0  0
  5 22  1  0  0  0  0
  5 23  1  0  0  0  0
  5 59  1  0  0  0  0
  6  7  1  0  0  0  0
  6  8  1  0  0  0  0
  6  9  1  0  0  0  0
  6 34  1  0  0  0  0
  7  8  1  0  0  0  0
  7 10  1  0  0  0  0
  7 35  1  0  0  0  0
  8 36  1  0  0  0  0
  8 37  1  0  0  0  0
  9 38  1  0  0  0  0
  9 39  1  0  0  0  0
 10 13  2  0  0  0  0
 10 14  1  0  0  0  0
 11 15  1  0  0  0  0
 11 40  1  0  0  0  0
 11 41  1  0  0  0  0
 12 16  1  0  0  0  0
 12 42  1  0  0  0  0
 12 43  1  0  0  0  0
 13 17  1  0  0  0  0
 13 44  1  0  0  0  0
 14 18  2  0  0  0  0
 14 45  1  0  0  0  0
 15 20  1  0  0  0  0
 15 46  1  0  0  0  0
 15 47  1  0  0  0  0
 16 21  1  0  0  0  0
 16 48  1  0  0  0  0
 16 49  1  0  0  0  0
 17 19  2  0  0  0  0
 18 19  1  0  0  0  0
 18 50  1  0  0  0  0
 19 51  1  0  0  0  0
 20 22  1  0  0  0  0
 20 52  1  0  0  0  0
 20 53  1  0  0  0  0
 21 54  1  0  0  0  0
 21 55  1  0  0  0  0
 21 56  1  0  0  0  0
 22 57  1  0  0  0  0
 22 58  1  0  0  0  0
 23 24  1  0  0  0  0
 24 25  2  0  0  0  0
 24 26  1  0  0  0  0
 25 27  1  0  0  0  0
 25 60  1  0  0  0  0
 26 29  2  0  0  0  0
 26 61  1  0  0  0  0
 27 28  1  0  0  0  0
 27 30  2  0  0  0  0
 28 29  1  0  0  0  0
 28 31  2  0  0  0  0
 29 62  1  0  0  0  0
 30 32  1  0  0  0  0
 30 63  1  0  0  0  0
 31 33  1  0  0  0  0
 31 64  1  0  0  0  0
 32 33  2  0  0  0  0
 32 65  1  0  0  0  0
 33 66  1  0  0  0  0
M  END
> <PUBCHEM_COMPOUND_CID>
155513802

> <PUBCHEM_COMPOUND_CANONICALIZED>
1

> <PUBCHEM_CACTVS_COMPLEXITY>
584

> <PUBCHEM_CACTVS_HBOND_ACCEPTOR>
3

> <PUBCHEM_CACTVS_HBOND_DONOR>
2

> <PUBCHEM_CACTVS_ROTATABLE_BOND>
11

> <PUBCHEM_CACTVS_SUBSKEYS>
AAADcfB7IQAEAAAAAAAAAAAAGAAAAAAAAAAwYMAAAAAAAADBVAAAHwAQAAAADQDBmAwyAMPAAACIAiFSEACCAAAkAAAIiIEIBMgIIDKAlRGEIQhglgCIiYcYiMCOwAACAAAQAACAAAQAACAAAAAAAAAAAA==

> <PUBCHEM_IUPAC_OPENEYE_NAME>
N-[4-[[2-(3-fluorophenyl)cyclopropyl]methyl-propyl-amino]butyl]naphthalene-2-carboxamide;hydrochloride

> <PUBCHEM_IUPAC_CAS_NAME>
N-[4-[[2-(3-fluorophenyl)cyclopropyl]methyl-propylamino]butyl]-2-naphthalenecarboxamide;hydrochloride

> <PUBCHEM_IUPAC_NAME_MARKUP>
<I>N</I>-[4-[[2-(3-fluorophenyl)cyclopropyl]methyl-propylamino]butyl]naphthalene-2-carboxamide;hydrochloride

> <PUBCHEM_IUPAC_NAME>
N-[4-[[2-(3-fluorophenyl)cyclopropyl]methyl-propylamino]butyl]naphthalene-2-carboxamide;hydrochloride

> <PUBCHEM_IUPAC_SYSTEMATIC_NAME>
N-[4-[[2-(3-fluorophenyl)cyclopropyl]methyl-propyl-amino]butyl]naphthalene-2-carboxamide;hydrochloride

> <PUBCHEM_IUPAC_TRADITIONAL_NAME>
N-[4-[[2-(3-fluorophenyl)cyclopropyl]methyl-propyl-amino]butyl]-2-naphthamide;hydrochloride

> <PUBCHEM_IUPAC_INCHI>
InChI=1S/C28H33FN2O.ClH/c1-2-15-31(20-25-19-27(25)23-10-7-11-26(29)18-23)16-6-5-14-30-28(32)24-13-12-21-8-3-4-9-22(21)17-24;/h3-4,7-13,17-18,25,27H,2,5-6,14-16,19-20H2,1H3,(H,30,32);1H

> <PUBCHEM_IUPAC_INCHIKEY>
KZNQJENWWBNITI-UHFFFAOYSA-N

> <PUBCHEM_EXACT_MASS>
468.2343696

> <PUBCHEM_MOLECULAR_FORMULA>
C28H34ClFN2O

> <PUBCHEM_MOLECULAR_WEIGHT>
469.0

> <PUBCHEM_OPENEYE_CAN_SMILES>
CCCN(CCCCNC(=O)C1=CC2=CC=CC=C2C=C1)CC3CC3C4=CC(=CC=C4)F.Cl

> <PUBCHEM_OPENEYE_ISO_SMILES>
CCCN(CCCCNC(=O)C1=CC2=CC=CC=C2C=C1)CC3CC3C4=CC(=CC=C4)F.Cl

> <PUBCHEM_CACTVS_TPSA>
32.3

> <PUBCHEM_MONOISOTOPIC_WEIGHT>
468.2343696

> <PUBCHEM_TOTAL_CHARGE>
0

> <PUBCHEM_HEAVY_ATOM_COUNT>
33

> <PUBCHEM_ATOM_DEF_STEREO_COUNT>
0

> <PUBCHEM_ATOM_UDEF_STEREO_COUNT>
2

> <PUBCHEM_BOND_DEF_STEREO_COUNT>
0

> <PUBCHEM_BOND_UDEF_STEREO_COUNT>
0

> <PUBCHEM_ISOTOPIC_ATOM_COUNT>
0

> <PUBCHEM_COMPONENT_COUNT>
2

> <PUBCHEM_CACTVS_TAUTO_COUNT>
-1

> <PUBCHEM_COORDINATE_TYPE>
1
5
255

> <PUBCHEM_BONDANNOTATIONS>
10  13  8
10  14  8
13  17  8
14  18  8
17  19  8
18  19  8
24  25  8
24  26  8
25  27  8
26  29  8
27  28  8
27  30  8
28  29  8
28  31  8
30  32  8
31  33  8
32  33  8
6  9  3
7  10  3

$$$$
