24758717
  -OEChem-09292322302D

 56 60  0     1  0  0  0  0  0999 V2000
    2.9176   -5.8916    0.0000 Br  0  0  0  0  0  0  0  0  0  0  0  0
    7.1111    1.4257    0.0000 S   0  0  0  0  0  0  0  0  0  0  0  0
    8.5924    5.0826    0.0000 O   0  0  0  0  0  0  0  0  0  0  0  0
    5.7021   -1.7389    0.0000 N   0  0  3  0  0  0  0  0  0  0  0  0
    7.9201    3.0135    0.0000 N   0  0  0  0  0  0  0  0  0  0  0  0
    8.8712    1.7044    0.0000 N   0  0  0  0  0  0  0  0  0  0  0  0
    9.4590    2.5135    0.0000 N   0  0  0  0  0  0  0  0  0  0  0  0
   10.1312    5.5826    0.0000 N   0  0  0  0  0  0  0  0  0  0  0  0
    4.7511   -3.0480    0.0000 C   0  0  3  0  0  0  0  0  0  0  0  0
    4.1633   -2.2389    0.0000 C   0  0  0  0  0  0  0  0  0  0  0  0
    5.7021   -2.7389    0.0000 C   0  0  0  0  0  0  0  0  0  0  0  0
    5.3388   -3.8570    0.0000 C   0  0  0  0  0  0  0  0  0  0  0  0
    3.8000   -3.3570    0.0000 C   0  0  0  0  0  0  0  0  0  0  0  0
    4.7511   -1.4299    0.0000 C   0  0  0  0  0  0  0  0  0  0  0  0
    4.7511   -4.6660    0.0000 C   0  0  0  0  0  0  0  0  0  0  0  0
    3.8000   -4.3570    0.0000 C   0  0  0  0  0  0  0  0  0  0  0  0
    6.5111   -1.1511    0.0000 C   0  0  0  0  0  0  0  0  0  0  0  0
    2.9061   -2.8223    0.0000 C   0  0  0  0  0  0  0  0  0  0  0  0
    2.9061   -4.8916    0.0000 C   0  0  0  0  0  0  0  0  0  0  0  0
    6.4066   -0.1566    0.0000 C   0  0  0  0  0  0  0  0  0  0  0  0
    2.0000   -3.3362    0.0000 C   0  0  0  0  0  0  0  0  0  0  0  0
    2.0000   -4.3778    0.0000 C   0  0  0  0  0  0  0  0  0  0  0  0
    7.2156    0.4312    0.0000 C   0  0  0  0  0  0  0  0  0  0  0  0
    7.9201    2.0135    0.0000 C   0  0  0  0  0  0  0  0  0  0  0  0
    8.8712    3.3225    0.0000 C   0  0  0  0  0  0  0  0  0  0  0  0
    7.1111    3.6012    0.0000 C   0  0  0  0  0  0  0  0  0  0  0  0
    9.1802    4.2735    0.0000 C   0  0  0  0  0  0  0  0  0  0  0  0
   10.1312    4.5826    0.0000 C   0  0  0  0  0  0  0  0  0  0  0  0
   10.9403    3.9948    0.0000 C   0  0  0  0  0  0  0  0  0  0  0  0
    9.1802    5.8916    0.0000 C   0  0  0  0  0  0  0  0  0  0  0  0
    3.7025   -1.8241    0.0000 H   0  0  0  0  0  0  0  0  0  0  0  0
    3.7025   -2.6538    0.0000 H   0  0  0  0  0  0  0  0  0  0  0  0
    5.8310   -3.3454    0.0000 H   0  0  0  0  0  0  0  0  0  0  0  0
    6.3187   -2.6741    0.0000 H   0  0  0  0  0  0  0  0  0  0  0  0
    5.7996   -4.2718    0.0000 H   0  0  0  0  0  0  0  0  0  0  0  0
    5.7996   -3.4421    0.0000 H   0  0  0  0  0  0  0  0  0  0  0  0
    5.0032   -0.8635    0.0000 H   0  0  0  0  0  0  0  0  0  0  0  0
    4.2141   -1.1199    0.0000 H   0  0  0  0  0  0  0  0  0  0  0  0
    4.4989   -5.2324    0.0000 H   0  0  0  0  0  0  0  0  0  0  0  0
    5.2880   -4.9760    0.0000 H   0  0  0  0  0  0  0  0  0  0  0  0
    6.7829   -1.7084    0.0000 H   0  0  0  0  0  0  0  0  0  0  0  0
    7.1071   -0.9803    0.0000 H   0  0  0  0  0  0  0  0  0  0  0  0
    2.9132   -2.2024    0.0000 H   0  0  0  0  0  0  0  0  0  0  0  0
    6.1348    0.4006    0.0000 H   0  0  0  0  0  0  0  0  0  0  0  0
    5.8106   -0.3275    0.0000 H   0  0  0  0  0  0  0  0  0  0  0  0
    1.4643   -3.0241    0.0000 H   0  0  0  0  0  0  0  0  0  0  0  0
    1.4643   -4.6899    0.0000 H   0  0  0  0  0  0  0  0  0  0  0  0
    7.4874   -0.1261    0.0000 H   0  0  0  0  0  0  0  0  0  0  0  0
    7.8116    0.6020    0.0000 H   0  0  0  0  0  0  0  0  0  0  0  0
    7.4755    4.1028    0.0000 H   0  0  0  0  0  0  0  0  0  0  0  0
    6.6095    3.9657    0.0000 H   0  0  0  0  0  0  0  0  0  0  0  0
    6.7467    3.0996    0.0000 H   0  0  0  0  0  0  0  0  0  0  0  0
   10.5758    3.4932    0.0000 H   0  0  0  0  0  0  0  0  0  0  0  0
   11.4419    3.6303    0.0000 H   0  0  0  0  0  0  0  0  0  0  0  0
   11.3047    4.4964    0.0000 H   0  0  0  0  0  0  0  0  0  0  0  0
    8.9886    6.4812    0.0000 H   0  0  0  0  0  0  0  0  0  0  0  0
  1 19  1  0  0  0  0
  2 23  1  0  0  0  0
  2 24  1  0  0  0  0
  3 27  1  0  0  0  0
  3 30  1  0  0  0  0
  4 11  1  0  0  0  0
  4 14  1  0  0  0  0
  4 17  1  0  0  0  0
  5 24  1  0  0  0  0
  5 25  1  0  0  0  0
  5 26  1  0  0  0  0
  6  7  1  0  0  0  0
  6 24  2  0  0  0  0
  7 25  2  0  0  0  0
  8 28  1  0  0  0  0
  8 30  2  0  0  0  0
  9 10  1  0  0  0  0
  9 11  1  0  0  0  0
  9 12  1  0  0  0  0
  9 13  1  0  0  0  0
 10 14  1  0  0  0  0
 10 31  1  0  0  0  0
 10 32  1  0  0  0  0
 11 33  1  0  0  0  0
 11 34  1  0  0  0  0
 12 15  1  0  0  0  0
 12 35  1  0  0  0  0
 12 36  1  0  0  0  0
 13 16  2  0  0  0  0
 13 18  1  0  0  0  0
 14 37  1  0  0  0  0
 14 38  1  0  0  0  0
 15 16  1  0  0  0  0
 15 39  1  0  0  0  0
 15 40  1  0  0  0  0
 16 19  1  0  0  0  0
 17 20  1  0  0  0  0
 17 41  1  0  0  0  0
 17 42  1  0  0  0  0
 18 21  2  0  0  0  0
 18 43  1  0  0  0  0
 19 22  2  0  0  0  0
 20 23  1  0  0  0  0
 20 44  1  0  0  0  0
 20 45  1  0  0  0  0
 21 22  1  0  0  0  0
 21 46  1  0  0  0  0
 22 47  1  0  0  0  0
 23 48  1  0  0  0  0
 23 49  1  0  0  0  0
 25 27  1  0  0  0  0
 26 50  1  0  0  0  0
 26 51  1  0  0  0  0
 26 52  1  0  0  0  0
 27 28  2  0  0  0  0
 28 29  1  0  0  0  0
 29 53  1  0  0  0  0
 29 54  1  0  0  0  0
 29 55  1  0  0  0  0
 30 56  1  0  0  0  0
M  END
> <PUBCHEM_COMPOUND_CID>
24758717

> <PUBCHEM_COMPOUND_CANONICALIZED>
1

> <PUBCHEM_CACTVS_COMPLEXITY>
602

> <PUBCHEM_CACTVS_HBOND_ACCEPTOR>
6

> <PUBCHEM_CACTVS_HBOND_DONOR>
0

> <PUBCHEM_CACTVS_ROTATABLE_BOND>
6

> <PUBCHEM_CACTVS_SUBSKEYS>
AAADceB7oABAEAAAAAAAAAAAAAAAAeLFiAAwAAAAAAAAAGAB8AAAHgRIAAABrgzF3wa3lJcMFEiqA6Zz9ASS2Ct7YLQd2CG9RLiOKCLk2TGNIChgjALYihcQgMAPgAAAEAAQgAAAAAAgACEAAQAACAAAAA==

> <PUBCHEM_IUPAC_OPENEYE_NAME>
5-[5-[3-(4-bromospiro[indane-1,3'-pyrrolidine]-1'-yl)propylsulfanyl]-4-methyl-1,2,4-triazol-3-yl]-4-methyl-oxazole

> <PUBCHEM_IUPAC_CAS_NAME>
5-[5-[3-(7-bromo-1'-spiro[1,2-dihydroindene-3,3'-pyrrolidine]yl)propylthio]-4-methyl-1,2,4-triazol-3-yl]-4-methyloxazole

> <PUBCHEM_IUPAC_NAME_MARKUP>
5-[5-[3-(7-bromospiro[1,2-dihydroindene-3,3&apos;-pyrrolidine]-1&apos;-yl)propylsulfanyl]-4-methyl-1,2,4-triazol-3-yl]-4-methyl-1,3-oxazole

> <PUBCHEM_IUPAC_NAME>
5-[5-[3-(7-bromospiro[1,2-dihydroindene-3,3'-pyrrolidine]-1'-yl)propylsulfanyl]-4-methyl-1,2,4-triazol-3-yl]-4-methyl-1,3-oxazole

> <PUBCHEM_IUPAC_SYSTEMATIC_NAME>
5-[5-[3-(7-bromanylspiro[1,2-dihydroindene-3,3'-pyrrolidine]-1'-yl)propylsulfanyl]-4-methyl-1,2,4-triazol-3-yl]-4-methyl-1,3-oxazole

> <PUBCHEM_IUPAC_TRADITIONAL_NAME>
5-[5-[3-(4-bromospiro[indane-1,3'-pyrrolidine]-1'-yl)propylthio]-4-methyl-1,2,4-triazol-3-yl]-4-methyl-oxazole

> <PUBCHEM_IUPAC_INCHI>
InChI=1S/C22H26BrN5OS/c1-15-19(29-14-24-15)20-25-26-21(27(20)2)30-12-4-10-28-11-9-22(13-28)8-7-16-17(22)5-3-6-18(16)23/h3,5-6,14H,4,7-13H2,1-2H3

> <PUBCHEM_IUPAC_INCHIKEY>
MGQKWJNIGIMBFF-UHFFFAOYSA-N

> <PUBCHEM_XLOGP3_AA>
4.1

> <PUBCHEM_EXACT_MASS>
487.10414

> <PUBCHEM_MOLECULAR_FORMULA>
C22H26BrN5OS

> <PUBCHEM_MOLECULAR_WEIGHT>
488.4

> <PUBCHEM_OPENEYE_CAN_SMILES>
CC1=C(OC=N1)C2=NN=C(N2C)SCCCN3CCC4(C3)CCC5=C4C=CC=C5Br

> <PUBCHEM_OPENEYE_ISO_SMILES>
CC1=C(OC=N1)C2=NN=C(N2C)SCCCN3CCC4(C3)CCC5=C4C=CC=C5Br

> <PUBCHEM_CACTVS_TPSA>
85.3

> <PUBCHEM_MONOISOTOPIC_WEIGHT>
487.10414

> <PUBCHEM_TOTAL_CHARGE>
0

> <PUBCHEM_HEAVY_ATOM_COUNT>
30

> <PUBCHEM_ATOM_DEF_STEREO_COUNT>
0

> <PUBCHEM_ATOM_UDEF_STEREO_COUNT>
1

> <PUBCHEM_BOND_DEF_STEREO_COUNT>
0

> <PUBCHEM_BOND_UDEF_STEREO_COUNT>
0

> <PUBCHEM_ISOTOPIC_ATOM_COUNT>
0

> <PUBCHEM_COMPONENT_COUNT>
1

> <PUBCHEM_CACTVS_TAUTO_COUNT>
-1

> <PUBCHEM_COORDINATE_TYPE>
1
5
255

> <PUBCHEM_BONDANNOTATIONS>
13  16  8
13  18  8
16  19  8
18  21  8
19  22  8
21  22  8
27  28  8
3  27  8
3  30  8
5  24  8
5  25  8
6  24  8
6  7  8
7  25  8
8  28  8
8  30  8
9  12  3

$$$$
