122179563
  -OEChem-09292322002D

 74 75  0     1  0  0  0  0  0999 V2000
   12.3241   -6.3030    0.0000 O   0  0  0  0  0  0  0  0  0  0  0  0
    4.5981    0.1970    0.0000 O   0  0  0  0  0  0  0  0  0  0  0  0
    8.0622   -2.8030    0.0000 N   0  0  3  0  0  0  0  0  0  0  0  0
    6.3301    0.1970    0.0000 N   0  0  0  0  0  0  0  0  0  0  0  0
   10.7404   -7.1077    0.0000 N   0  0  0  0  0  0  0  0  0  0  0  0
    8.0622   -3.8030    0.0000 C   0  0  0  0  0  0  0  0  0  0  0  0
    7.1962   -2.3030    0.0000 C   0  0  0  0  0  0  0  0  0  0  0  0
    8.9282   -4.3030    0.0000 C   0  0  0  0  0  0  0  0  0  0  0  0
    8.9282   -2.3030    0.0000 C   0  0  0  0  0  0  0  0  0  0  0  0
    8.9282   -5.3030    0.0000 C   0  0  0  0  0  0  0  0  0  0  0  0
    7.1962   -1.3030    0.0000 C   0  0  0  0  0  0  0  0  0  0  0  0
    9.7942   -5.8030    0.0000 C   0  0  0  0  0  0  0  0  0  0  0  0
    3.7320    3.6970    0.0000 C   0  0  0  0  0  0  0  0  0  0  0  0
    4.5981    3.1970    0.0000 C   0  0  0  0  0  0  0  0  0  0  0  0
    3.7320    4.6970    0.0000 C   0  0  0  0  0  0  0  0  0  0  0  0
    6.3301   -0.8030    0.0000 C   0  0  0  0  0  0  0  0  0  0  0  0
    4.5981    2.1970    0.0000 C   0  0  0  0  0  0  0  0  0  0  0  0
    2.8660    5.1970    0.0000 C   0  0  0  0  0  0  0  0  0  0  0  0
    8.9282   -1.3030    0.0000 C   0  0  0  0  0  0  0  0  0  0  0  0
   10.7404   -5.4982    0.0000 C   0  0  0  0  0  0  0  0  0  0  0  0
    9.7942   -6.8030    0.0000 C   0  0  0  0  0  0  0  0  0  0  0  0
    5.4641    1.6970    0.0000 C   0  0  0  0  0  0  0  0  0  0  0  0
    2.8660    6.1970    0.0000 C   0  0  0  0  0  0  0  0  0  0  0  0
    8.0622   -5.8030    0.0000 C   0  0  0  0  0  0  0  0  0  0  0  0
   11.3241   -6.3030    0.0000 C   0  0  0  0  0  0  0  0  0  0  0  0
    5.4641    0.6970    0.0000 C   0  0  0  0  0  0  0  0  0  0  0  0
    8.9282   -7.3030    0.0000 C   0  0  0  0  0  0  0  0  0  0  0  0
    2.0000    6.6970    0.0000 C   0  0  0  0  0  0  0  0  0  0  0  0
    8.0622   -6.8030    0.0000 C   0  0  0  0  0  0  0  0  0  0  0  0
    9.7942   -0.8030    0.0000 C   0  0  0  0  0  0  0  0  0  0  0  0
    2.0000    7.6970    0.0000 C   0  0  0  0  0  0  0  0  0  0  0  0
    7.4516   -3.6953    0.0000 H   0  0  0  0  0  0  0  0  0  0  0  0
    7.8501   -4.3856    0.0000 H   0  0  0  0  0  0  0  0  0  0  0  0
    6.5856   -2.1953    0.0000 H   0  0  0  0  0  0  0  0  0  0  0  0
    6.9841   -2.8856    0.0000 H   0  0  0  0  0  0  0  0  0  0  0  0
    9.5388   -4.4106    0.0000 H   0  0  0  0  0  0  0  0  0  0  0  0
    9.1403   -3.7204    0.0000 H   0  0  0  0  0  0  0  0  0  0  0  0
    9.1403   -2.8856    0.0000 H   0  0  0  0  0  0  0  0  0  0  0  0
    9.5388   -2.1953    0.0000 H   0  0  0  0  0  0  0  0  0  0  0  0
    7.8067   -1.4106    0.0000 H   0  0  0  0  0  0  0  0  0  0  0  0
    7.4082   -0.7204    0.0000 H   0  0  0  0  0  0  0  0  0  0  0  0
    3.1215    3.8047    0.0000 H   0  0  0  0  0  0  0  0  0  0  0  0
    3.5200    3.1144    0.0000 H   0  0  0  0  0  0  0  0  0  0  0  0
    5.2087    3.0894    0.0000 H   0  0  0  0  0  0  0  0  0  0  0  0
    4.8101    3.7796    0.0000 H   0  0  0  0  0  0  0  0  0  0  0  0
    4.3426    4.5894    0.0000 H   0  0  0  0  0  0  0  0  0  0  0  0
    3.9441    5.2796    0.0000 H   0  0  0  0  0  0  0  0  0  0  0  0
    5.7196   -0.6953    0.0000 H   0  0  0  0  0  0  0  0  0  0  0  0
    6.1181   -1.3856    0.0000 H   0  0  0  0  0  0  0  0  0  0  0  0
    3.9875    2.3047    0.0000 H   0  0  0  0  0  0  0  0  0  0  0  0
    4.3860    1.6144    0.0000 H   0  0  0  0  0  0  0  0  0  0  0  0
    2.2554    5.3047    0.0000 H   0  0  0  0  0  0  0  0  0  0  0  0
    2.6540    4.6144    0.0000 H   0  0  0  0  0  0  0  0  0  0  0  0
    8.7162   -0.7204    0.0000 H   0  0  0  0  0  0  0  0  0  0  0  0
    8.3176   -1.4106    0.0000 H   0  0  0  0  0  0  0  0  0  0  0  0
   11.2778   -5.1890    0.0000 H   0  0  0  0  0  0  0  0  0  0  0  0
   10.4894   -4.9313    0.0000 H   0  0  0  0  0  0  0  0  0  0  0  0
    6.0747    1.5894    0.0000 H   0  0  0  0  0  0  0  0  0  0  0  0
    5.6762    2.2796    0.0000 H   0  0  0  0  0  0  0  0  0  0  0  0
    3.4766    6.0894    0.0000 H   0  0  0  0  0  0  0  0  0  0  0  0
    3.0781    6.7796    0.0000 H   0  0  0  0  0  0  0  0  0  0  0  0
    7.5252   -5.4930    0.0000 H   0  0  0  0  0  0  0  0  0  0  0  0
    6.8671    0.5070    0.0000 H   0  0  0  0  0  0  0  0  0  0  0  0
   10.9331   -7.6970    0.0000 H   0  0  0  0  0  0  0  0  0  0  0  0
    8.9282   -7.9230    0.0000 H   0  0  0  0  0  0  0  0  0  0  0  0
    1.3894    6.8047    0.0000 H   0  0  0  0  0  0  0  0  0  0  0  0
    1.7880    6.1144    0.0000 H   0  0  0  0  0  0  0  0  0  0  0  0
    7.5252   -7.1130    0.0000 H   0  0  0  0  0  0  0  0  0  0  0  0
   10.1042   -1.3399    0.0000 H   0  0  0  0  0  0  0  0  0  0  0  0
   10.3312   -0.4930    0.0000 H   0  0  0  0  0  0  0  0  0  0  0  0
    9.4842   -0.2660    0.0000 H   0  0  0  0  0  0  0  0  0  0  0  0
    2.6200    7.6970    0.0000 H   0  0  0  0  0  0  0  0  0  0  0  0
    2.0000    8.3170    0.0000 H   0  0  0  0  0  0  0  0  0  0  0  0
    1.3800    7.6970    0.0000 H   0  0  0  0  0  0  0  0  0  0  0  0
  1 25  2  0  0  0  0
  2 26  2  0  0  0  0
  3  6  1  0  0  0  0
  3  7  1  0  0  0  0
  3  9  1  0  0  0  0
  4 16  1  0  0  0  0
  4 26  1  0  0  0  0
  4 63  1  0  0  0  0
  5 21  1  0  0  0  0
  5 25  1  0  0  0  0
  5 64  1  0  0  0  0
  6  8  1  0  0  0  0
  6 32  1  0  0  0  0
  6 33  1  0  0  0  0
  7 11  1  0  0  0  0
  7 34  1  0  0  0  0
  7 35  1  0  0  0  0
  8 10  1  0  0  0  0
  8 36  1  0  0  0  0
  8 37  1  0  0  0  0
  9 19  1  0  0  0  0
  9 38  1  0  0  0  0
  9 39  1  0  0  0  0
 10 12  2  0  0  0  0
 10 24  1  0  0  0  0
 11 16  1  0  0  0  0
 11 40  1  0  0  0  0
 11 41  1  0  0  0  0
 12 20  1  0  0  0  0
 12 21  1  0  0  0  0
 13 14  1  0  0  0  0
 13 15  1  0  0  0  0
 13 42  1  0  0  0  0
 13 43  1  0  0  0  0
 14 17  1  0  0  0  0
 14 44  1  0  0  0  0
 14 45  1  0  0  0  0
 15 18  1  0  0  0  0
 15 46  1  0  0  0  0
 15 47  1  0  0  0  0
 16 48  1  0  0  0  0
 16 49  1  0  0  0  0
 17 22  1  0  0  0  0
 17 50  1  0  0  0  0
 17 51  1  0  0  0  0
 18 23  1  0  0  0  0
 18 52  1  0  0  0  0
 18 53  1  0  0  0  0
 19 30  1  0  0  0  0
 19 54  1  0  0  0  0
 19 55  1  0  0  0  0
 20 25  1  0  0  0  0
 20 56  1  0  0  0  0
 20 57  1  0  0  0  0
 21 27  2  0  0  0  0
 22 26  1  0  0  0  0
 22 58  1  0  0  0  0
 22 59  1  0  0  0  0
 23 28  1  0  0  0  0
 23 60  1  0  0  0  0
 23 61  1  0  0  0  0
 24 29  2  0  0  0  0
 24 62  1  0  0  0  0
 27 29  1  0  0  0  0
 27 65  1  0  0  0  0
 28 31  1  0  0  0  0
 28 66  1  0  0  0  0
 28 67  1  0  0  0  0
 29 68  1  0  0  0  0
 30 69  1  0  0  0  0
 30 70  1  0  0  0  0
 30 71  1  0  0  0  0
 31 72  1  0  0  0  0
 31 73  1  0  0  0  0
 31 74  1  0  0  0  0
M  END
> <PUBCHEM_COMPOUND_CID>
122179563

> <PUBCHEM_COMPOUND_CANONICALIZED>
1

> <PUBCHEM_CACTVS_COMPLEXITY>
511

> <PUBCHEM_CACTVS_HBOND_ACCEPTOR>
3

> <PUBCHEM_CACTVS_HBOND_DONOR>
2

> <PUBCHEM_CACTVS_ROTATABLE_BOND>
17

> <PUBCHEM_CACTVS_SUBSKEYS>
AAADcfB7MAAAAAAAAAAAAAAAAAAAAWAAAAAwAAAAAAAAAFgBAAAAHgAQAAAADAjBmAQywIPAAACIAiVSUACCAAAhAgAIiIEIZIgIIDLA1ZGEIAhglgDIyAcciICOgAAAQAASAAAAAACAACQAAAAAAAAAAA==

> <PUBCHEM_IUPAC_OPENEYE_NAME>
N-[3-[2-(2-oxoindolin-4-yl)ethyl-propyl-amino]propyl]decanamide

> <PUBCHEM_IUPAC_CAS_NAME>
N-[3-[2-(2-oxo-1,3-dihydroindol-4-yl)ethyl-propylamino]propyl]decanamide

> <PUBCHEM_IUPAC_NAME_MARKUP>
<I>N</I>-[3-[2-(2-oxo-1,3-dihydroindol-4-yl)ethyl-propylamino]propyl]decanamide

> <PUBCHEM_IUPAC_NAME>
N-[3-[2-(2-oxo-1,3-dihydroindol-4-yl)ethyl-propylamino]propyl]decanamide

> <PUBCHEM_IUPAC_SYSTEMATIC_NAME>
N-[3-[2-(2-oxidanylidene-1,3-dihydroindol-4-yl)ethyl-propyl-amino]propyl]decanamide

> <PUBCHEM_IUPAC_TRADITIONAL_NAME>
N-[3-[2-(2-ketoindolin-4-yl)ethyl-propyl-amino]propyl]capramide

> <PUBCHEM_IUPAC_INCHI>
InChI=1S/C26H43N3O2/c1-3-5-6-7-8-9-10-15-25(30)27-17-12-19-29(18-4-2)20-16-22-13-11-14-24-23(22)21-26(31)28-24/h11,13-14H,3-10,12,15-21H2,1-2H3,(H,27,30)(H,28,31)

> <PUBCHEM_IUPAC_INCHIKEY>
SMAIYEDJNYNJCS-UHFFFAOYSA-N

> <PUBCHEM_XLOGP3>
5.6

> <PUBCHEM_EXACT_MASS>
429.33552762

> <PUBCHEM_MOLECULAR_FORMULA>
C26H43N3O2

> <PUBCHEM_MOLECULAR_WEIGHT>
429.6

> <PUBCHEM_OPENEYE_CAN_SMILES>
CCCCCCCCCC(=O)NCCCN(CCC)CCC1=C2CC(=O)NC2=CC=C1

> <PUBCHEM_OPENEYE_ISO_SMILES>
CCCCCCCCCC(=O)NCCCN(CCC)CCC1=C2CC(=O)NC2=CC=C1

> <PUBCHEM_CACTVS_TPSA>
61.4

> <PUBCHEM_MONOISOTOPIC_WEIGHT>
429.33552762

> <PUBCHEM_TOTAL_CHARGE>
0

> <PUBCHEM_HEAVY_ATOM_COUNT>
31

> <PUBCHEM_ATOM_DEF_STEREO_COUNT>
0

> <PUBCHEM_ATOM_UDEF_STEREO_COUNT>
0

> <PUBCHEM_BOND_DEF_STEREO_COUNT>
0

> <PUBCHEM_BOND_UDEF_STEREO_COUNT>
0

> <PUBCHEM_ISOTOPIC_ATOM_COUNT>
0

> <PUBCHEM_COMPONENT_COUNT>
1

> <PUBCHEM_CACTVS_TAUTO_COUNT>
-1

> <PUBCHEM_COORDINATE_TYPE>
1
5
255

> <PUBCHEM_BONDANNOTATIONS>
10  12  8
10  24  8
12  21  8
21  27  8
24  29  8
27  29  8

$$$$
