60785
  -OEChem-09292322112D

 54 58  0     1  0  0  0  0  0999 V2000
   12.0613    0.2492    0.0000 S   0  0  0  0  0  0  0  0  0  0  0  0
    2.0000    1.6018    0.0000 F   0  0  0  0  0  0  0  0  0  0  0  0
   12.0401    1.2490    0.0000 O   0  0  0  0  0  0  0  0  0  0  0  0
   13.0056    0.5783    0.0000 O   0  0  0  0  0  0  0  0  0  0  0  0
    7.9942    1.8667    0.0000 N   0  0  0  0  0  0  0  0  0  0  0  0
   11.0677    0.2688    0.0000 N   0  0  3  0  0  0  0  0  0  0  0  0
    5.9961    1.7784    0.0000 N   0  0  0  0  0  0  0  0  0  0  0  0
    8.9932    1.9108    0.0000 C   0  0  0  0  0  0  0  0  0  0  0  0
    7.4564    2.7098    0.0000 C   0  0  0  0  0  0  0  0  0  0  0  0
    7.5329    0.9794    0.0000 C   0  0  0  0  0  0  0  0  0  0  0  0
    9.5309    1.0677    0.0000 C   0  0  0  0  0  0  0  0  0  0  0  0
   10.5299    1.1119    0.0000 C   0  0  0  0  0  0  0  0  0  0  0  0
    6.4574    2.6656    0.0000 C   0  0  0  0  0  0  0  0  0  0  0  0
    6.5338    0.9353    0.0000 C   0  0  0  0  0  0  0  0  0  0  0  0
   10.6665   -0.6405    0.0000 C   0  0  0  0  0  0  0  0  0  0  0  0
   11.5604   -1.1751    0.0000 C   0  0  0  0  0  0  0  0  0  0  0  0
   12.4264   -0.6751    0.0000 C   0  0  0  0  0  0  0  0  0  0  0  0
   11.5604   -2.1751    0.0000 C   0  0  0  0  0  0  0  0  0  0  0  0
    4.9971    1.7342    0.0000 C   0  0  0  0  0  0  0  0  0  0  0  0
    9.7604   -1.1543    0.0000 C   0  0  0  0  0  0  0  0  0  0  0  0
   13.2925   -1.1751    0.0000 C   0  0  0  0  0  0  0  0  0  0  0  0
   10.6665   -2.7098    0.0000 C   0  0  0  0  0  0  0  0  0  0  0  0
   12.4264   -2.6751    0.0000 C   0  0  0  0  0  0  0  0  0  0  0  0
    9.7604   -2.1959    0.0000 C   0  0  0  0  0  0  0  0  0  0  0  0
   13.2925   -2.1751    0.0000 C   0  0  0  0  0  0  0  0  0  0  0  0
    4.5358    0.8470    0.0000 C   0  0  0  0  0  0  0  0  0  0  0  0
    4.4593    2.5773    0.0000 C   0  0  0  0  0  0  0  0  0  0  0  0
    3.5368    0.8028    0.0000 C   0  0  0  0  0  0  0  0  0  0  0  0
    3.4603    2.5332    0.0000 C   0  0  0  0  0  0  0  0  0  0  0  0
    2.9990    1.6459    0.0000 C   0  0  0  0  0  0  0  0  0  0  0  0
    9.5658    2.1484    0.0000 H   0  0  0  0  0  0  0  0  0  0  0  0
    8.8587    2.5161    0.0000 H   0  0  0  0  0  0  0  0  0  0  0  0
    8.0291    2.9474    0.0000 H   0  0  0  0  0  0  0  0  0  0  0  0
    7.3219    3.3150    0.0000 H   0  0  0  0  0  0  0  0  0  0  0  0
    7.4523    0.3647    0.0000 H   0  0  0  0  0  0  0  0  0  0  0  0
    8.1243    0.7933    0.0000 H   0  0  0  0  0  0  0  0  0  0  0  0
    8.9582    0.8302    0.0000 H   0  0  0  0  0  0  0  0  0  0  0  0
    9.6654    0.4625    0.0000 H   0  0  0  0  0  0  0  0  0  0  0  0
   11.1026    1.3494    0.0000 H   0  0  0  0  0  0  0  0  0  0  0  0
   10.3954    1.7171    0.0000 H   0  0  0  0  0  0  0  0  0  0  0  0
    6.5380    3.2804    0.0000 H   0  0  0  0  0  0  0  0  0  0  0  0
    5.8660    2.8518    0.0000 H   0  0  0  0  0  0  0  0  0  0  0  0
    5.9612    0.6977    0.0000 H   0  0  0  0  0  0  0  0  0  0  0  0
    6.6684    0.3300    0.0000 H   0  0  0  0  0  0  0  0  0  0  0  0
    9.2247   -0.8422    0.0000 H   0  0  0  0  0  0  0  0  0  0  0  0
   13.8294   -0.8651    0.0000 H   0  0  0  0  0  0  0  0  0  0  0  0
   10.6736   -3.3297    0.0000 H   0  0  0  0  0  0  0  0  0  0  0  0
   12.4264   -3.2951    0.0000 H   0  0  0  0  0  0  0  0  0  0  0  0
    9.2247   -2.5080    0.0000 H   0  0  0  0  0  0  0  0  0  0  0  0
   13.8294   -2.4851    0.0000 H   0  0  0  0  0  0  0  0  0  0  0  0
    4.8692    0.3243    0.0000 H   0  0  0  0  0  0  0  0  0  0  0  0
    4.7453    3.1274    0.0000 H   0  0  0  0  0  0  0  0  0  0  0  0
    3.2508    0.2527    0.0000 H   0  0  0  0  0  0  0  0  0  0  0  0
    3.1269    3.0559    0.0000 H   0  0  0  0  0  0  0  0  0  0  0  0
  1  3  2  0  0  0  0
  1  4  2  0  0  0  0
  1  6  1  0  0  0  0
  1 17  1  0  0  0  0
  2 30  1  0  0  0  0
  5  8  1  0  0  0  0
  5  9  1  0  0  0  0
  5 10  1  0  0  0  0
  6 12  1  0  0  0  0
  6 15  1  0  0  0  0
  7 13  1  0  0  0  0
  7 14  1  0  0  0  0
  7 19  1  0  0  0  0
  8 11  1  0  0  0  0
  8 31  1  0  0  0  0
  8 32  1  0  0  0  0
  9 13  1  0  0  0  0
  9 33  1  0  0  0  0
  9 34  1  0  0  0  0
 10 14  1  0  0  0  0
 10 35  1  0  0  0  0
 10 36  1  0  0  0  0
 11 12  1  0  0  0  0
 11 37  1  0  0  0  0
 11 38  1  0  0  0  0
 12 39  1  0  0  0  0
 12 40  1  0  0  0  0
 13 41  1  0  0  0  0
 13 42  1  0  0  0  0
 14 43  1  0  0  0  0
 14 44  1  0  0  0  0
 15 16  1  0  0  0  0
 15 20  2  0  0  0  0
 16 17  1  0  0  0  0
 16 18  2  0  0  0  0
 17 21  2  0  0  0  0
 18 22  1  0  0  0  0
 18 23  1  0  0  0  0
 19 26  2  0  0  0  0
 19 27  1  0  0  0  0
 20 24  1  0  0  0  0
 20 45  1  0  0  0  0
 21 25  1  0  0  0  0
 21 46  1  0  0  0  0
 22 24  2  0  0  0  0
 22 47  1  0  0  0  0
 23 25  2  0  0  0  0
 23 48  1  0  0  0  0
 24 49  1  0  0  0  0
 25 50  1  0  0  0  0
 26 28  1  0  0  0  0
 26 51  1  0  0  0  0
 27 29  2  0  0  0  0
 27 52  1  0  0  0  0
 28 30  2  0  0  0  0
 28 53  1  0  0  0  0
 29 30  1  0  0  0  0
 29 54  1  0  0  0  0
M  END
> <PUBCHEM_COMPOUND_CID>
60785

> <PUBCHEM_COMPOUND_CANONICALIZED>
1

> <PUBCHEM_CACTVS_COMPLEXITY>
683

> <PUBCHEM_CACTVS_HBOND_ACCEPTOR>
6

> <PUBCHEM_CACTVS_HBOND_DONOR>
0

> <PUBCHEM_CACTVS_ROTATABLE_BOND>
5

> <PUBCHEM_CACTVS_SUBSKEYS>
AAADceB7MQBAAAAAAAAAAAAAAAAAAWAAAAA8YMEAAAAAAFjBVAAAHQQAQAAADAjBWAwwwcMAAAKAAiRCQHDCABAhAgAIiBgIZIgIYCLA0ZGUIAxggADIyAcQgIAOgAAAwAAWAAAAAAGAACwAAAAAAAAAAA==

> <PUBCHEM_IUPAC_OPENEYE_NAME>
3-[3-[4-(4-fluorophenyl)piperazin-1-yl]propyl]-2lambda6-thia-3-azatricyclo[6.3.1.04,12]dodeca-1(11),4,6,8(12),9-pentaene 2,2-dioxide

> <PUBCHEM_IUPAC_CAS_NAME>
3-[3-[4-(4-fluorophenyl)-1-piperazinyl]propyl]-2lambda6-thia-3-azatricyclo[6.3.1.04,12]dodeca-1(11),4,6,8(12),9-pentaene 2,2-dioxide

> <PUBCHEM_IUPAC_NAME_MARKUP>
3-[3-[4-(4-fluorophenyl)piperazin-1-yl]propyl]-2&lambda;<SUP>6</SUP>-thia-3-azatricyclo[6.3.1.0<SUP>4,12</SUP>]dodeca-1(11),4,6,8(12),9-pentaene 2,2-dioxide

> <PUBCHEM_IUPAC_NAME>
3-[3-[4-(4-fluorophenyl)piperazin-1-yl]propyl]-2lambda6-thia-3-azatricyclo[6.3.1.04,12]dodeca-1(11),4,6,8(12),9-pentaene 2,2-dioxide

> <PUBCHEM_IUPAC_SYSTEMATIC_NAME>
3-[3-[4-(4-fluorophenyl)piperazin-1-yl]propyl]-2lambda6-thia-3-azatricyclo[6.3.1.04,12]dodeca-1(11),4,6,8(12),9-pentaene 2,2-dioxide

> <PUBCHEM_IUPAC_TRADITIONAL_NAME>
3-[3-[4-(4-fluorophenyl)piperazino]propyl]-2lambda6-thia-3-azatricyclo[6.3.1.04,12]dodeca-1(11),4,6,8(12),9-pentaene 2,2-dioxide

> <PUBCHEM_IUPAC_INCHI>
InChI=1S/C23H24FN3O2S/c24-19-8-10-20(11-9-19)26-16-14-25(15-17-26)12-3-13-27-21-6-1-4-18-5-2-7-22(23(18)21)30(27,28)29/h1-2,4-11H,3,12-17H2

> <PUBCHEM_IUPAC_INCHIKEY>
VGIGHGMPMUCLIQ-UHFFFAOYSA-N

> <PUBCHEM_XLOGP3_AA>
4

> <PUBCHEM_EXACT_MASS>
425.15732635

> <PUBCHEM_MOLECULAR_FORMULA>
C23H24FN3O2S

> <PUBCHEM_MOLECULAR_WEIGHT>
425.5

> <PUBCHEM_OPENEYE_CAN_SMILES>
C1CN(CCN1CCCN2C3=CC=CC4=C3C(=CC=C4)S2(=O)=O)C5=CC=C(C=C5)F

> <PUBCHEM_OPENEYE_ISO_SMILES>
C1CN(CCN1CCCN2C3=CC=CC4=C3C(=CC=C4)S2(=O)=O)C5=CC=C(C=C5)F

> <PUBCHEM_CACTVS_TPSA>
52.2

> <PUBCHEM_MONOISOTOPIC_WEIGHT>
425.15732635

> <PUBCHEM_TOTAL_CHARGE>
0

> <PUBCHEM_HEAVY_ATOM_COUNT>
30

> <PUBCHEM_ATOM_DEF_STEREO_COUNT>
0

> <PUBCHEM_ATOM_UDEF_STEREO_COUNT>
0

> <PUBCHEM_BOND_DEF_STEREO_COUNT>
0

> <PUBCHEM_BOND_UDEF_STEREO_COUNT>
0

> <PUBCHEM_ISOTOPIC_ATOM_COUNT>
0

> <PUBCHEM_COMPONENT_COUNT>
1

> <PUBCHEM_CACTVS_TAUTO_COUNT>
1

> <PUBCHEM_COORDINATE_TYPE>
1
5
255

> <PUBCHEM_BONDANNOTATIONS>
15  16  8
15  20  8
16  17  8
16  18  8
17  21  8
18  22  8
18  23  8
19  26  8
19  27  8
20  24  8
21  25  8
22  24  8
23  25  8
26  28  8
27  29  8
28  30  8
29  30  8

$$$$
