44315407
  -OEChem-09292322152D

 56 60  0     0  0  0  0  0  0999 V2000
   10.7404   -1.9982    0.0000 O   0  0  0  0  0  0  0  0  0  0  0  0
   12.3241   -2.8030    0.0000 O   0  0  0  0  0  0  0  0  0  0  0  0
    2.8660    2.6970    0.0000 O   0  0  0  0  0  0  0  0  0  0  0  0
    8.9282    1.1970    0.0000 N   0  0  0  0  0  0  0  0  0  0  0  0
    8.9282   -0.8030    0.0000 N   0  0  0  0  0  0  0  0  0  0  0  0
   10.7404   -3.6077    0.0000 N   0  0  0  0  0  0  0  0  0  0  0  0
    9.7942    0.6970    0.0000 C   0  0  0  0  0  0  0  0  0  0  0  0
    8.0622    0.6970    0.0000 C   0  0  0  0  0  0  0  0  0  0  0  0
    9.7942   -0.3030    0.0000 C   0  0  0  0  0  0  0  0  0  0  0  0
    8.0622   -0.3030    0.0000 C   0  0  0  0  0  0  0  0  0  0  0  0
    8.9282    2.1970    0.0000 C   0  0  0  0  0  0  0  0  0  0  0  0
    8.9282   -1.8030    0.0000 C   0  0  0  0  0  0  0  0  0  0  0  0
    8.0622    2.6970    0.0000 C   0  0  0  0  0  0  0  0  0  0  0  0
    9.7942   -2.3030    0.0000 C   0  0  0  0  0  0  0  0  0  0  0  0
    8.0622   -2.3030    0.0000 C   0  0  0  0  0  0  0  0  0  0  0  0
    9.7942   -3.3030    0.0000 C   0  0  0  0  0  0  0  0  0  0  0  0
    7.1962    2.1970    0.0000 C   0  0  0  0  0  0  0  0  0  0  0  0
    8.0622    3.6970    0.0000 C   0  0  0  0  0  0  0  0  0  0  0  0
    8.0622   -3.3030    0.0000 C   0  0  0  0  0  0  0  0  0  0  0  0
    8.9282   -3.8030    0.0000 C   0  0  0  0  0  0  0  0  0  0  0  0
    6.3301    2.6970    0.0000 C   0  0  0  0  0  0  0  0  0  0  0  0
    7.1962    4.1970    0.0000 C   0  0  0  0  0  0  0  0  0  0  0  0
    6.3301    3.6970    0.0000 C   0  0  0  0  0  0  0  0  0  0  0  0
   11.3241   -2.8030    0.0000 C   0  0  0  0  0  0  0  0  0  0  0  0
    5.4641    2.1970    0.0000 C   0  0  0  0  0  0  0  0  0  0  0  0
    4.5981    2.6970    0.0000 C   0  0  0  0  0  0  0  0  0  0  0  0
    5.4641    1.1970    0.0000 C   0  0  0  0  0  0  0  0  0  0  0  0
    3.7320    2.1970    0.0000 C   0  0  0  0  0  0  0  0  0  0  0  0
    4.5981    0.6970    0.0000 C   0  0  0  0  0  0  0  0  0  0  0  0
    3.7320    1.1970    0.0000 C   0  0  0  0  0  0  0  0  0  0  0  0
    2.0000    2.1970    0.0000 C   0  0  0  0  0  0  0  0  0  0  0  0
   10.4048    0.5894    0.0000 H   0  0  0  0  0  0  0  0  0  0  0  0
   10.0063    1.2796    0.0000 H   0  0  0  0  0  0  0  0  0  0  0  0
    7.8501    1.2796    0.0000 H   0  0  0  0  0  0  0  0  0  0  0  0
    7.4516    0.5894    0.0000 H   0  0  0  0  0  0  0  0  0  0  0  0
   10.0063   -0.8856    0.0000 H   0  0  0  0  0  0  0  0  0  0  0  0
   10.4048   -0.1953    0.0000 H   0  0  0  0  0  0  0  0  0  0  0  0
    7.4516   -0.1953    0.0000 H   0  0  0  0  0  0  0  0  0  0  0  0
    7.8501   -0.8856    0.0000 H   0  0  0  0  0  0  0  0  0  0  0  0
    9.5388    2.0894    0.0000 H   0  0  0  0  0  0  0  0  0  0  0  0
    9.1403    2.7796    0.0000 H   0  0  0  0  0  0  0  0  0  0  0  0
    7.5252   -1.9930    0.0000 H   0  0  0  0  0  0  0  0  0  0  0  0
    7.1962    1.5770    0.0000 H   0  0  0  0  0  0  0  0  0  0  0  0
    8.5991    4.0070    0.0000 H   0  0  0  0  0  0  0  0  0  0  0  0
    7.5252   -3.6130    0.0000 H   0  0  0  0  0  0  0  0  0  0  0  0
    8.9282   -4.4230    0.0000 H   0  0  0  0  0  0  0  0  0  0  0  0
   10.9331   -4.1970    0.0000 H   0  0  0  0  0  0  0  0  0  0  0  0
    7.1962    4.8170    0.0000 H   0  0  0  0  0  0  0  0  0  0  0  0
    5.7932    4.0070    0.0000 H   0  0  0  0  0  0  0  0  0  0  0  0
    4.5981    3.3170    0.0000 H   0  0  0  0  0  0  0  0  0  0  0  0
    6.0010    0.8870    0.0000 H   0  0  0  0  0  0  0  0  0  0  0  0
    4.5981    0.0770    0.0000 H   0  0  0  0  0  0  0  0  0  0  0  0
    3.1951    0.8870    0.0000 H   0  0  0  0  0  0  0  0  0  0  0  0
    1.6900    2.7340    0.0000 H   0  0  0  0  0  0  0  0  0  0  0  0
    1.4631    1.8870    0.0000 H   0  0  0  0  0  0  0  0  0  0  0  0
    2.3100    1.6601    0.0000 H   0  0  0  0  0  0  0  0  0  0  0  0
  1 14  1  0  0  0  0
  1 24  1  0  0  0  0
  2 24  2  0  0  0  0
  3 28  1  0  0  0  0
  3 31  1  0  0  0  0
  4  7  1  0  0  0  0
  4  8  1  0  0  0  0
  4 11  1  0  0  0  0
  5  9  1  0  0  0  0
  5 10  1  0  0  0  0
  5 12  1  0  0  0  0
  6 16  1  0  0  0  0
  6 24  1  0  0  0  0
  6 47  1  0  0  0  0
  7  9  1  0  0  0  0
  7 32  1  0  0  0  0
  7 33  1  0  0  0  0
  8 10  1  0  0  0  0
  8 34  1  0  0  0  0
  8 35  1  0  0  0  0
  9 36  1  0  0  0  0
  9 37  1  0  0  0  0
 10 38  1  0  0  0  0
 10 39  1  0  0  0  0
 11 13  1  0  0  0  0
 11 40  1  0  0  0  0
 11 41  1  0  0  0  0
 12 14  1  0  0  0  0
 12 15  2  0  0  0  0
 13 17  2  0  0  0  0
 13 18  1  0  0  0  0
 14 16  2  0  0  0  0
 15 19  1  0  0  0  0
 15 42  1  0  0  0  0
 16 20  1  0  0  0  0
 17 21  1  0  0  0  0
 17 43  1  0  0  0  0
 18 22  2  0  0  0  0
 18 44  1  0  0  0  0
 19 20  2  0  0  0  0
 19 45  1  0  0  0  0
 20 46  1  0  0  0  0
 21 23  2  0  0  0  0
 21 25  1  0  0  0  0
 22 23  1  0  0  0  0
 22 48  1  0  0  0  0
 23 49  1  0  0  0  0
 25 26  2  0  0  0  0
 25 27  1  0  0  0  0
 26 28  1  0  0  0  0
 26 50  1  0  0  0  0
 27 29  2  0  0  0  0
 27 51  1  0  0  0  0
 28 30  2  0  0  0  0
 29 30  1  0  0  0  0
 29 52  1  0  0  0  0
 30 53  1  0  0  0  0
 31 54  1  0  0  0  0
 31 55  1  0  0  0  0
 31 56  1  0  0  0  0
M  END
> <PUBCHEM_COMPOUND_CID>
44315407

> <PUBCHEM_COMPOUND_CANONICALIZED>
1

> <PUBCHEM_CACTVS_COMPLEXITY>
609

> <PUBCHEM_CACTVS_HBOND_ACCEPTOR>
5

> <PUBCHEM_CACTVS_HBOND_DONOR>
1

> <PUBCHEM_CACTVS_ROTATABLE_BOND>
5

> <PUBCHEM_CACTVS_SUBSKEYS>
AAADceB7MAAAAAAAAAAAAAAAAAAAAWAAAAA8YMEAAAAAAFgBUAAAHgAQAAAADAzBmAYyzoPABACIAiRCWACCCAAhIgAIiAAPbIkOZiLE8dudMihk1BHY6AeQwPAOgAADAAQAEAAAAAYACAAgAAAAAAAAAA==

> <PUBCHEM_IUPAC_OPENEYE_NAME>
7-[4-[[3-(3-methoxyphenyl)phenyl]methyl]piperazin-1-yl]-3H-1,3-benzoxazol-2-one

> <PUBCHEM_IUPAC_CAS_NAME>
7-[4-[[3-(3-methoxyphenyl)phenyl]methyl]-1-piperazinyl]-3H-1,3-benzoxazol-2-one

> <PUBCHEM_IUPAC_NAME_MARKUP>
7-[4-[[3-(3-methoxyphenyl)phenyl]methyl]piperazin-1-yl]-3<I>H</I>-1,3-benzoxazol-2-one

> <PUBCHEM_IUPAC_NAME>
7-[4-[[3-(3-methoxyphenyl)phenyl]methyl]piperazin-1-yl]-3H-1,3-benzoxazol-2-one

> <PUBCHEM_IUPAC_SYSTEMATIC_NAME>
7-[4-[[3-(3-methoxyphenyl)phenyl]methyl]piperazin-1-yl]-3H-1,3-benzoxazol-2-one

> <PUBCHEM_IUPAC_TRADITIONAL_NAME>
7-[4-[3-(3-methoxyphenyl)benzyl]piperazino]-3H-1,3-benzoxazol-2-one

> <PUBCHEM_IUPAC_INCHI>
InChI=1S/C25H25N3O3/c1-30-21-8-3-7-20(16-21)19-6-2-5-18(15-19)17-27-11-13-28(14-12-27)23-10-4-9-22-24(23)31-25(29)26-22/h2-10,15-16H,11-14,17H2,1H3,(H,26,29)

> <PUBCHEM_IUPAC_INCHIKEY>
NLSPQUQPIZRWLB-UHFFFAOYSA-N

> <PUBCHEM_XLOGP3_AA>
4.2

> <PUBCHEM_EXACT_MASS>
415.18959167

> <PUBCHEM_MOLECULAR_FORMULA>
C25H25N3O3

> <PUBCHEM_MOLECULAR_WEIGHT>
415.5

> <PUBCHEM_OPENEYE_CAN_SMILES>
COC1=CC=CC(=C1)C2=CC=CC(=C2)CN3CCN(CC3)C4=CC=CC5=C4OC(=O)N5

> <PUBCHEM_OPENEYE_ISO_SMILES>
COC1=CC=CC(=C1)C2=CC=CC(=C2)CN3CCN(CC3)C4=CC=CC5=C4OC(=O)N5

> <PUBCHEM_CACTVS_TPSA>
54

> <PUBCHEM_MONOISOTOPIC_WEIGHT>
415.18959167

> <PUBCHEM_TOTAL_CHARGE>
0

> <PUBCHEM_HEAVY_ATOM_COUNT>
31

> <PUBCHEM_ATOM_DEF_STEREO_COUNT>
0

> <PUBCHEM_ATOM_UDEF_STEREO_COUNT>
0

> <PUBCHEM_BOND_DEF_STEREO_COUNT>
0

> <PUBCHEM_BOND_UDEF_STEREO_COUNT>
0

> <PUBCHEM_ISOTOPIC_ATOM_COUNT>
0

> <PUBCHEM_COMPONENT_COUNT>
1

> <PUBCHEM_CACTVS_TAUTO_COUNT>
-1

> <PUBCHEM_COORDINATE_TYPE>
1
5
255

> <PUBCHEM_BONDANNOTATIONS>
1  14  8
1  24  8
12  14  8
12  15  8
13  17  8
13  18  8
14  16  8
15  19  8
16  20  8
17  21  8
18  22  8
19  20  8
21  23  8
22  23  8
25  26  8
25  27  8
26  28  8
27  29  8
28  30  8
29  30  8
6  16  8
6  24  8

$$$$
