126532768
  -OEChem-09292322372D

 61 65  0     1  0  0  0  0  0999 V2000
   10.1803    2.2926    0.0000 S   0  0  0  0  0  0  0  0  0  0  0  0
    2.0740    0.0789    0.0000 F   0  0  0  0  0  0  0  0  0  0  0  0
    2.0000   -1.3334    0.0000 F   0  0  0  0  0  0  0  0  0  0  0  0
    3.4863    0.0048    0.0000 F   0  0  0  0  0  0  0  0  0  0  0  0
    4.6994   -0.2485    0.0000 N   0  0  3  0  0  0  0  0  0  0  0  0
    7.1803    0.5606    0.0000 N   0  0  3  0  0  0  0  0  0  0  0  0
   11.7681    1.4836    0.0000 N   0  0  0  0  0  0  0  0  0  0  0  0
   11.7681    3.1016    0.0000 N   0  0  0  0  0  0  0  0  0  0  0  0
   12.7192    2.7926    0.0000 N   0  0  0  0  0  0  0  0  0  0  0  0
   15.1462    0.0293    0.0000 N   0  0  0  0  0  0  0  0  0  0  0  0
    5.6505    1.0606    0.0000 C   0  0  3  0  0  0  0  0  0  0  0  0
    5.6505    0.0606    0.0000 C   0  0  3  0  0  0  0  0  0  0  0  0
    6.5967    1.3653    0.0000 C   0  0  0  0  0  0  0  0  0  0  0  0
    4.6994    1.3696    0.0000 C   0  0  0  0  0  0  0  0  0  0  0  0
    6.5967   -0.2442    0.0000 C   0  0  0  0  0  0  0  0  0  0  0  0
    4.1116    0.5606    0.0000 C   0  0  0  0  0  0  0  0  0  0  0  0
    8.1803    0.5606    0.0000 C   0  0  0  0  0  0  0  0  0  0  0  0
    4.3904   -1.1995    0.0000 C   0  0  0  0  0  0  0  0  0  0  0  0
    8.6803    1.4266    0.0000 C   0  0  0  0  0  0  0  0  0  0  0  0
    3.4123   -1.4074    0.0000 C   0  0  0  0  0  0  0  0  0  0  0  0
    5.0596   -1.9427    0.0000 C   0  0  0  0  0  0  0  0  0  0  0  0
    9.6803    1.4266    0.0000 C   0  0  0  0  0  0  0  0  0  0  0  0
    3.1033   -2.3585    0.0000 C   0  0  0  0  0  0  0  0  0  0  0  0
    2.7431   -0.6643    0.0000 C   0  0  0  0  0  0  0  0  0  0  0  0
    4.7505   -2.8937    0.0000 C   0  0  0  0  0  0  0  0  0  0  0  0
    3.7724   -3.1016    0.0000 C   0  0  0  0  0  0  0  0  0  0  0  0
   11.1803    2.2926    0.0000 C   0  0  0  0  0  0  0  0  0  0  0  0
   12.7192    1.7926    0.0000 C   0  0  0  0  0  0  0  0  0  0  0  0
   11.4591    0.5325    0.0000 C   0  0  0  0  0  0  0  0  0  0  0  0
   13.5282    1.2048    0.0000 C   0  0  0  0  0  0  0  0  0  0  0  0
   14.4417    1.6116    0.0000 C   0  0  0  0  0  0  0  0  0  0  0  0
   13.4237    0.2103    0.0000 C   0  0  0  0  0  0  0  0  0  0  0  0
   15.2507    1.0238    0.0000 C   0  0  0  0  0  0  0  0  0  0  0  0
   14.2327   -0.3775    0.0000 C   0  0  0  0  0  0  0  0  0  0  0  0
    5.6513    1.6806    0.0000 H   0  0  0  0  0  0  0  0  0  0  0  0
    5.6513   -0.5594    0.0000 H   0  0  0  0  0  0  0  0  0  0  0  0
    7.1341    1.6745    0.0000 H   0  0  0  0  0  0  0  0  0  0  0  0
    6.3457    1.9322    0.0000 H   0  0  0  0  0  0  0  0  0  0  0  0
    4.9516    1.9360    0.0000 H   0  0  0  0  0  0  0  0  0  0  0  0
    4.1625    1.6796    0.0000 H   0  0  0  0  0  0  0  0  0  0  0  0
    6.3457   -0.8111    0.0000 H   0  0  0  0  0  0  0  0  0  0  0  0
    7.1341   -0.5534    0.0000 H   0  0  0  0  0  0  0  0  0  0  0  0
    3.6509    0.9754    0.0000 H   0  0  0  0  0  0  0  0  0  0  0  0
    3.6509    0.1457    0.0000 H   0  0  0  0  0  0  0  0  0  0  0  0
    8.0727   -0.0500    0.0000 H   0  0  0  0  0  0  0  0  0  0  0  0
    8.7629    0.3485    0.0000 H   0  0  0  0  0  0  0  0  0  0  0  0
    8.7880    2.0372    0.0000 H   0  0  0  0  0  0  0  0  0  0  0  0
    8.0977    1.6386    0.0000 H   0  0  0  0  0  0  0  0  0  0  0  0
    5.6660   -1.8138    0.0000 H   0  0  0  0  0  0  0  0  0  0  0  0
    9.5727    0.8160    0.0000 H   0  0  0  0  0  0  0  0  0  0  0  0
   10.2629    1.2145    0.0000 H   0  0  0  0  0  0  0  0  0  0  0  0
    2.4968   -2.4874    0.0000 H   0  0  0  0  0  0  0  0  0  0  0  0
    5.1654   -3.3545    0.0000 H   0  0  0  0  0  0  0  0  0  0  0  0
    3.5808   -3.6913    0.0000 H   0  0  0  0  0  0  0  0  0  0  0  0
   10.8694    0.7241    0.0000 H   0  0  0  0  0  0  0  0  0  0  0  0
   11.2675   -0.0571    0.0000 H   0  0  0  0  0  0  0  0  0  0  0  0
   12.0487    0.3409    0.0000 H   0  0  0  0  0  0  0  0  0  0  0  0
   14.5065    2.2282    0.0000 H   0  0  0  0  0  0  0  0  0  0  0  0
   12.8573   -0.0419    0.0000 H   0  0  0  0  0  0  0  0  0  0  0  0
   15.8171    1.2760    0.0000 H   0  0  0  0  0  0  0  0  0  0  0  0
   14.1679   -0.9941    0.0000 H   0  0  0  0  0  0  0  0  0  0  0  0
  1 22  1  0  0  0  0
  1 27  1  0  0  0  0
  2 24  1  0  0  0  0
  3 24  1  0  0  0  0
  4 24  1  0  0  0  0
  5 12  1  0  0  0  0
  5 16  1  0  0  0  0
  5 18  1  0  0  0  0
  6 13  1  0  0  0  0
  6 15  1  0  0  0  0
  6 17  1  0  0  0  0
  7 27  1  0  0  0  0
  7 28  1  0  0  0  0
  7 29  1  0  0  0  0
  8  9  1  0  0  0  0
  8 27  2  0  0  0  0
  9 28  2  0  0  0  0
 10 33  2  0  0  0  0
 10 34  1  0  0  0  0
 11 12  1  0  0  0  0
 11 13  1  0  0  0  0
 11 14  1  0  0  0  0
 11 35  1  0  0  0  0
 12 15  1  0  0  0  0
 12 36  1  0  0  0  0
 13 37  1  0  0  0  0
 13 38  1  0  0  0  0
 14 16  1  0  0  0  0
 14 39  1  0  0  0  0
 14 40  1  0  0  0  0
 15 41  1  0  0  0  0
 15 42  1  0  0  0  0
 16 43  1  0  0  0  0
 16 44  1  0  0  0  0
 17 19  1  0  0  0  0
 17 45  1  0  0  0  0
 17 46  1  0  0  0  0
 18 20  1  0  0  0  0
 18 21  2  0  0  0  0
 19 22  1  0  0  0  0
 19 47  1  0  0  0  0
 19 48  1  0  0  0  0
 20 23  2  0  0  0  0
 20 24  1  0  0  0  0
 21 25  1  0  0  0  0
 21 49  1  0  0  0  0
 22 50  1  0  0  0  0
 22 51  1  0  0  0  0
 23 26  1  0  0  0  0
 23 52  1  0  0  0  0
 25 26  2  0  0  0  0
 25 53  1  0  0  0  0
 26 54  1  0  0  0  0
 28 30  1  0  0  0  0
 29 55  1  0  0  0  0
 29 56  1  0  0  0  0
 29 57  1  0  0  0  0
 30 31  2  0  0  0  0
 30 32  1  0  0  0  0
 31 33  1  0  0  0  0
 31 58  1  0  0  0  0
 32 34  2  0  0  0  0
 32 59  1  0  0  0  0
 33 60  1  0  0  0  0
 34 61  1  0  0  0  0
M  END
> <PUBCHEM_COMPOUND_CID>
126532768

> <PUBCHEM_COMPOUND_CANONICALIZED>
1

> <PUBCHEM_CACTVS_COMPLEXITY>
663

> <PUBCHEM_CACTVS_HBOND_ACCEPTOR>
9

> <PUBCHEM_CACTVS_HBOND_DONOR>
0

> <PUBCHEM_CACTVS_ROTATABLE_BOND>
7

> <PUBCHEM_CACTVS_SUBSKEYS>
AAADceB7gYBAAAAAAAAAAAAAAAAAAWLFgAA8QAAAAAAWAAAB8AAAHQQIAAAADSjFWxS/0JcMEAiiAjZnZACS0CtxArAd2CA4ZJiIaOLg2ZGUIAhgiALIyAcQgAAOAAAAAAACAAAAAAAAAAQAAAAAAAAAAA==

> <PUBCHEM_IUPAC_OPENEYE_NAME>
5-[3-[[4-methyl-5-(4-pyridyl)-1,2,4-triazol-3-yl]sulfanyl]propyl]-1-[2-(trifluoromethyl)phenyl]-2,3,3a,4,6,6a-hexahydropyrrolo[2,3-c]pyrrole

> <PUBCHEM_IUPAC_CAS_NAME>
5-[3-[(4-methyl-5-pyridin-4-yl-1,2,4-triazol-3-yl)thio]propyl]-1-[2-(trifluoromethyl)phenyl]-2,3,3a,4,6,6a-hexahydropyrrolo[2,3-c]pyrrole

> <PUBCHEM_IUPAC_NAME_MARKUP>
5-[3-[(4-methyl-5-pyridin-4-yl-1,2,4-triazol-3-yl)sulfanyl]propyl]-1-[2-(trifluoromethyl)phenyl]-2,3,3<I>a</I>,4,6,6<I>a</I>-hexahydropyrrolo[2,3-c]pyrrole

> <PUBCHEM_IUPAC_NAME>
5-[3-[(4-methyl-5-pyridin-4-yl-1,2,4-triazol-3-yl)sulfanyl]propyl]-1-[2-(trifluoromethyl)phenyl]-2,3,3a,4,6,6a-hexahydropyrrolo[2,3-c]pyrrole

> <PUBCHEM_IUPAC_SYSTEMATIC_NAME>
5-[3-[(4-methyl-5-pyridin-4-yl-1,2,4-triazol-3-yl)sulfanyl]propyl]-1-[2-(trifluoromethyl)phenyl]-2,3,3a,4,6,6a-hexahydropyrrolo[2,3-c]pyrrole

> <PUBCHEM_IUPAC_TRADITIONAL_NAME>
5-[3-[[4-methyl-5-(4-pyridyl)-1,2,4-triazol-3-yl]thio]propyl]-1-[2-(trifluoromethyl)phenyl]-2,3,3a,4,6,6a-hexahydropyrrolo[2,3-c]pyrrole

> <PUBCHEM_IUPAC_INCHI>
InChI=1S/C24H27F3N6S/c1-31-22(17-7-10-28-11-8-17)29-30-23(31)34-14-4-12-32-15-18-9-13-33(21(18)16-32)20-6-3-2-5-19(20)24(25,26)27/h2-3,5-8,10-11,18,21H,4,9,12-16H2,1H3

> <PUBCHEM_IUPAC_INCHIKEY>
RLIMJSGHBMXEDY-UHFFFAOYSA-N

> <PUBCHEM_XLOGP3_AA>
4.2

> <PUBCHEM_EXACT_MASS>
488.19700055

> <PUBCHEM_MOLECULAR_FORMULA>
C24H27F3N6S

> <PUBCHEM_MOLECULAR_WEIGHT>
488.6

> <PUBCHEM_OPENEYE_CAN_SMILES>
CN1C(=NN=C1SCCCN2CC3CCN(C3C2)C4=CC=CC=C4C(F)(F)F)C5=CC=NC=C5

> <PUBCHEM_OPENEYE_ISO_SMILES>
CN1C(=NN=C1SCCCN2CC3CCN(C3C2)C4=CC=CC=C4C(F)(F)F)C5=CC=NC=C5

> <PUBCHEM_CACTVS_TPSA>
75.4

> <PUBCHEM_MONOISOTOPIC_WEIGHT>
488.19700055

> <PUBCHEM_TOTAL_CHARGE>
0

> <PUBCHEM_HEAVY_ATOM_COUNT>
34

> <PUBCHEM_ATOM_DEF_STEREO_COUNT>
0

> <PUBCHEM_ATOM_UDEF_STEREO_COUNT>
2

> <PUBCHEM_BOND_DEF_STEREO_COUNT>
0

> <PUBCHEM_BOND_UDEF_STEREO_COUNT>
0

> <PUBCHEM_ISOTOPIC_ATOM_COUNT>
0

> <PUBCHEM_COMPONENT_COUNT>
1

> <PUBCHEM_CACTVS_TAUTO_COUNT>
-1

> <PUBCHEM_COORDINATE_TYPE>
1
5
255

> <PUBCHEM_BONDANNOTATIONS>
10  33  8
10  34  8
11  14  3
12  15  3
18  20  8
18  21  8
20  23  8
21  25  8
23  26  8
25  26  8
30  31  8
30  32  8
31  33  8
32  34  8
7  27  8
7  28  8
8  27  8
8  9  8
9  28  8

$$$$
