44203057
  -OEChem-09292322332D

 35 36  0     0  0  0  0  0  0999 V2000
    2.0000   -1.7500    0.0000 Cl  0  0  0  0  0  0  0  0  0  0  0  0
    2.0000   -3.7500    0.0000 Cl  0  0  0  0  0  0  0  0  0  0  0  0
    3.7320    1.2500    0.0000 N   0  0  0  0  0  0  0  0  0  0  0  0
    3.7320   -0.7500    0.0000 N   0  0  0  0  0  0  0  0  0  0  0  0
    2.8660    0.7500    0.0000 C   0  0  0  0  0  0  0  0  0  0  0  0
    4.5981    0.7500    0.0000 C   0  0  0  0  0  0  0  0  0  0  0  0
    2.8660   -0.2500    0.0000 C   0  0  0  0  0  0  0  0  0  0  0  0
    4.5981   -0.2500    0.0000 C   0  0  0  0  0  0  0  0  0  0  0  0
    3.7320    2.2500    0.0000 C   0  0  0  0  0  0  0  0  0  0  0  0
    3.7320   -1.7500    0.0000 C   0  0  0  0  0  0  0  0  0  0  0  0
    4.5981    2.7500    0.0000 C   0  0  0  0  0  0  0  0  0  0  0  0
    4.5981    3.7500    0.0000 C   0  0  0  0  0  0  0  0  0  0  0  0
    2.8660   -2.2500    0.0000 C   0  0  0  0  0  0  0  0  0  0  0  0
    4.5981   -2.2500    0.0000 C   0  0  0  0  0  0  0  0  0  0  0  0
    2.8660   -3.2500    0.0000 C   0  0  0  0  0  0  0  0  0  0  0  0
    4.5981   -3.2500    0.0000 C   0  0  0  0  0  0  0  0  0  0  0  0
    3.7320   -3.7500    0.0000 C   0  0  0  0  0  0  0  0  0  0  0  0
    2.6540    1.3326    0.0000 H   0  0  0  0  0  0  0  0  0  0  0  0
    2.2554    0.6423    0.0000 H   0  0  0  0  0  0  0  0  0  0  0  0
    5.2087    0.6423    0.0000 H   0  0  0  0  0  0  0  0  0  0  0  0
    4.8101    1.3326    0.0000 H   0  0  0  0  0  0  0  0  0  0  0  0
    2.2554   -0.1423    0.0000 H   0  0  0  0  0  0  0  0  0  0  0  0
    2.6540   -0.8326    0.0000 H   0  0  0  0  0  0  0  0  0  0  0  0
    4.8101   -0.8326    0.0000 H   0  0  0  0  0  0  0  0  0  0  0  0
    5.2087   -0.1423    0.0000 H   0  0  0  0  0  0  0  0  0  0  0  0
    3.5200    2.8326    0.0000 H   0  0  0  0  0  0  0  0  0  0  0  0
    3.1215    2.1423    0.0000 H   0  0  0  0  0  0  0  0  0  0  0  0
    4.8101    2.1674    0.0000 H   0  0  0  0  0  0  0  0  0  0  0  0
    5.2087    2.8577    0.0000 H   0  0  0  0  0  0  0  0  0  0  0  0
    5.2181    3.7500    0.0000 H   0  0  0  0  0  0  0  0  0  0  0  0
    4.5981    4.3700    0.0000 H   0  0  0  0  0  0  0  0  0  0  0  0
    3.9781    3.7500    0.0000 H   0  0  0  0  0  0  0  0  0  0  0  0
    5.1350   -1.9400    0.0000 H   0  0  0  0  0  0  0  0  0  0  0  0
    5.1350   -3.5600    0.0000 H   0  0  0  0  0  0  0  0  0  0  0  0
    3.7320   -4.3700    0.0000 H   0  0  0  0  0  0  0  0  0  0  0  0
  1 13  1  0  0  0  0
  2 15  1  0  0  0  0
  3  5  1  0  0  0  0
  3  6  1  0  0  0  0
  3  9  1  0  0  0  0
  4  7  1  0  0  0  0
  4  8  1  0  0  0  0
  4 10  1  0  0  0  0
  5  7  1  0  0  0  0
  5 18  1  0  0  0  0
  5 19  1  0  0  0  0
  6  8  1  0  0  0  0
  6 20  1  0  0  0  0
  6 21  1  0  0  0  0
  7 22  1  0  0  0  0
  7 23  1  0  0  0  0
  8 24  1  0  0  0  0
  8 25  1  0  0  0  0
  9 11  1  0  0  0  0
  9 26  1  0  0  0  0
  9 27  1  0  0  0  0
 10 13  2  0  0  0  0
 10 14  1  0  0  0  0
 11 12  1  0  0  0  0
 11 28  1  0  0  0  0
 11 29  1  0  0  0  0
 12 30  1  0  0  0  0
 12 31  1  0  0  0  0
 12 32  1  0  0  0  0
 13 15  1  0  0  0  0
 14 16  2  0  0  0  0
 14 33  1  0  0  0  0
 15 17  2  0  0  0  0
 16 17  1  0  0  0  0
 16 34  1  0  0  0  0
 17 35  1  0  0  0  0
M  END
> <PUBCHEM_COMPOUND_CID>
44203057

> <PUBCHEM_COMPOUND_CANONICALIZED>
1

> <PUBCHEM_CACTVS_COMPLEXITY>
230

> <PUBCHEM_CACTVS_HBOND_ACCEPTOR>
2

> <PUBCHEM_CACTVS_HBOND_DONOR>
0

> <PUBCHEM_CACTVS_ROTATABLE_BOND>
3

> <PUBCHEM_CACTVS_SUBSKEYS>
AAADceBzAAAGAAAAAAAAAAAAAAAAAAAAAAA8QAAAAAAAAAABAAAAHAIAAAAACArBECQywIMAAACAACRCQACCAAAhBwAIikAIZogIYCLBk5HUIAhggADIyAcQAAAAAAAAAAIAABQAAAAABAAAKAAAAAAAAA==

> <PUBCHEM_IUPAC_OPENEYE_NAME>
1-(2,3-dichlorophenyl)-4-propyl-piperazine

> <PUBCHEM_IUPAC_CAS_NAME>
1-(2,3-dichlorophenyl)-4-propylpiperazine

> <PUBCHEM_IUPAC_NAME_MARKUP>
1-(2,3-dichlorophenyl)-4-propylpiperazine

> <PUBCHEM_IUPAC_NAME>
1-(2,3-dichlorophenyl)-4-propylpiperazine

> <PUBCHEM_IUPAC_SYSTEMATIC_NAME>
1-[2,3-bis(chloranyl)phenyl]-4-propyl-piperazine

> <PUBCHEM_IUPAC_TRADITIONAL_NAME>
1-(2,3-dichlorophenyl)-4-propyl-piperazine

> <PUBCHEM_IUPAC_INCHI>
InChI=1S/C13H18Cl2N2/c1-2-6-16-7-9-17(10-8-16)12-5-3-4-11(14)13(12)15/h3-5H,2,6-10H2,1H3

> <PUBCHEM_IUPAC_INCHIKEY>
IPVPEZGOUYWZAJ-UHFFFAOYSA-N

> <PUBCHEM_XLOGP3_AA>
4

> <PUBCHEM_EXACT_MASS>
272.0847040

> <PUBCHEM_MOLECULAR_FORMULA>
C13H18Cl2N2

> <PUBCHEM_MOLECULAR_WEIGHT>
273.20

> <PUBCHEM_OPENEYE_CAN_SMILES>
CCCN1CCN(CC1)C2=C(C(=CC=C2)Cl)Cl

> <PUBCHEM_OPENEYE_ISO_SMILES>
CCCN1CCN(CC1)C2=C(C(=CC=C2)Cl)Cl

> <PUBCHEM_CACTVS_TPSA>
6.5

> <PUBCHEM_MONOISOTOPIC_WEIGHT>
272.0847040

> <PUBCHEM_TOTAL_CHARGE>
0

> <PUBCHEM_HEAVY_ATOM_COUNT>
17

> <PUBCHEM_ATOM_DEF_STEREO_COUNT>
0

> <PUBCHEM_ATOM_UDEF_STEREO_COUNT>
0

> <PUBCHEM_BOND_DEF_STEREO_COUNT>
0

> <PUBCHEM_BOND_UDEF_STEREO_COUNT>
0

> <PUBCHEM_ISOTOPIC_ATOM_COUNT>
0

> <PUBCHEM_COMPONENT_COUNT>
1

> <PUBCHEM_CACTVS_TAUTO_COUNT>
-1

> <PUBCHEM_COORDINATE_TYPE>
1
5
255

> <PUBCHEM_BONDANNOTATIONS>
10  13  8
10  14  8
13  15  8
14  16  8
15  17  8
16  17  8

$$$$
