10919602
  -OEChem-09292322112D

108112  0     0  0  0  0  0  0999 V2000
    2.8660  -11.0000    0.0000 O   0  0  0  0  0  0  0  0  0  0  0  0
   13.2583   11.0000    0.0000 O   0  0  0  0  0  0  0  0  0  0  0  0
    8.0622   -4.0000    0.0000 O   0  0  0  0  0  0  0  0  0  0  0  0
    8.0622    4.0000    0.0000 O   0  0  0  0  0  0  0  0  0  0  0  0
    4.5981   -8.0000    0.0000 N   0  0  0  0  0  0  0  0  0  0  0  0
   11.5263    8.0000    0.0000 N   0  0  0  0  0  0  0  0  0  0  0  0
    4.5981  -10.0000    0.0000 N   0  0  0  0  0  0  0  0  0  0  0  0
   11.5263   10.0000    0.0000 N   0  0  0  0  0  0  0  0  0  0  0  0
    6.3301   -4.0000    0.0000 N   0  0  0  0  0  0  0  0  0  0  0  0
    9.7942    4.0000    0.0000 N   0  0  0  0  0  0  0  0  0  0  0  0
    5.4641   -8.5000    0.0000 C   0  0  0  0  0  0  0  0  0  0  0  0
    3.7320   -8.5000    0.0000 C   0  0  0  0  0  0  0  0  0  0  0  0
   12.3923    8.5000    0.0000 C   0  0  0  0  0  0  0  0  0  0  0  0
   10.6603    8.5000    0.0000 C   0  0  0  0  0  0  0  0  0  0  0  0
    5.4641   -9.5000    0.0000 C   0  0  0  0  0  0  0  0  0  0  0  0
    3.7320   -9.5000    0.0000 C   0  0  0  0  0  0  0  0  0  0  0  0
   12.3923    9.5000    0.0000 C   0  0  0  0  0  0  0  0  0  0  0  0
   10.6603    9.5000    0.0000 C   0  0  0  0  0  0  0  0  0  0  0  0
    4.5981   -7.0000    0.0000 C   0  0  0  0  0  0  0  0  0  0  0  0
   11.5263    7.0000    0.0000 C   0  0  0  0  0  0  0  0  0  0  0  0
    5.4641   -6.5000    0.0000 C   0  0  0  0  0  0  0  0  0  0  0  0
   10.6603    6.5000    0.0000 C   0  0  0  0  0  0  0  0  0  0  0  0
    4.5981  -11.0000    0.0000 C   0  0  0  0  0  0  0  0  0  0  0  0
   11.5263   11.0000    0.0000 C   0  0  0  0  0  0  0  0  0  0  0  0
    5.4641   -5.5000    0.0000 C   0  0  0  0  0  0  0  0  0  0  0  0
   10.6603    5.5000    0.0000 C   0  0  0  0  0  0  0  0  0  0  0  0
    3.7320  -11.5000    0.0000 C   0  0  0  0  0  0  0  0  0  0  0  0
   12.3923   11.5000    0.0000 C   0  0  0  0  0  0  0  0  0  0  0  0
    6.3301   -5.0000    0.0000 C   0  0  0  0  0  0  0  0  0  0  0  0
    9.7942    5.0000    0.0000 C   0  0  0  0  0  0  0  0  0  0  0  0
    5.4641  -11.5000    0.0000 C   0  0  0  0  0  0  0  0  0  0  0  0
   10.6603   11.5000    0.0000 C   0  0  0  0  0  0  0  0  0  0  0  0
    3.7320  -12.5000    0.0000 C   0  0  0  0  0  0  0  0  0  0  0  0
   12.3923   12.5000    0.0000 C   0  0  0  0  0  0  0  0  0  0  0  0
    5.4641  -12.5000    0.0000 C   0  0  0  0  0  0  0  0  0  0  0  0
   10.6603   12.5000    0.0000 C   0  0  0  0  0  0  0  0  0  0  0  0
    4.5981  -13.0000    0.0000 C   0  0  0  0  0  0  0  0  0  0  0  0
   11.5263   13.0000    0.0000 C   0  0  0  0  0  0  0  0  0  0  0  0
    7.1962   -3.5000    0.0000 C   0  0  0  0  0  0  0  0  0  0  0  0
    8.9282    3.5000    0.0000 C   0  0  0  0  0  0  0  0  0  0  0  0
    2.0000  -11.5000    0.0000 C   0  0  0  0  0  0  0  0  0  0  0  0
   14.1244   11.5000    0.0000 C   0  0  0  0  0  0  0  0  0  0  0  0
    7.1962   -2.5000    0.0000 C   0  0  0  0  0  0  0  0  0  0  0  0
    8.9282    2.5000    0.0000 C   0  0  0  0  0  0  0  0  0  0  0  0
    8.0622   -2.0000    0.0000 C   0  0  0  0  0  0  0  0  0  0  0  0
    8.0622    2.0000    0.0000 C   0  0  0  0  0  0  0  0  0  0  0  0
    8.0622   -1.0000    0.0000 C   0  0  0  0  0  0  0  0  0  0  0  0
    8.0622    1.0000    0.0000 C   0  0  0  0  0  0  0  0  0  0  0  0
    7.1962   -0.5000    0.0000 C   0  0  0  0  0  0  0  0  0  0  0  0
    7.1962    0.5000    0.0000 C   0  0  0  0  0  0  0  0  0  0  0  0
    8.9282   -0.5000    0.0000 C   0  0  0  0  0  0  0  0  0  0  0  0
    8.9282    0.5000    0.0000 C   0  0  0  0  0  0  0  0  0  0  0  0
    6.0747   -8.6077    0.0000 H   0  0  0  0  0  0  0  0  0  0  0  0
    5.6762   -7.9174    0.0000 H   0  0  0  0  0  0  0  0  0  0  0  0
    3.5200   -7.9174    0.0000 H   0  0  0  0  0  0  0  0  0  0  0  0
    3.1215   -8.6077    0.0000 H   0  0  0  0  0  0  0  0  0  0  0  0
   12.6044    7.9174    0.0000 H   0  0  0  0  0  0  0  0  0  0  0  0
   13.0029    8.6077    0.0000 H   0  0  0  0  0  0  0  0  0  0  0  0
   10.0497    8.6077    0.0000 H   0  0  0  0  0  0  0  0  0  0  0  0
   10.4482    7.9174    0.0000 H   0  0  0  0  0  0  0  0  0  0  0  0
    5.6762  -10.0826    0.0000 H   0  0  0  0  0  0  0  0  0  0  0  0
    6.0747   -9.3923    0.0000 H   0  0  0  0  0  0  0  0  0  0  0  0
    3.1215   -9.3923    0.0000 H   0  0  0  0  0  0  0  0  0  0  0  0
    3.5200  -10.0826    0.0000 H   0  0  0  0  0  0  0  0  0  0  0  0
   13.0029    9.3923    0.0000 H   0  0  0  0  0  0  0  0  0  0  0  0
   12.6044   10.0826    0.0000 H   0  0  0  0  0  0  0  0  0  0  0  0
   10.4482   10.0826    0.0000 H   0  0  0  0  0  0  0  0  0  0  0  0
   10.0497    9.3923    0.0000 H   0  0  0  0  0  0  0  0  0  0  0  0
    4.3860   -6.4174    0.0000 H   0  0  0  0  0  0  0  0  0  0  0  0
    3.9875   -7.1077    0.0000 H   0  0  0  0  0  0  0  0  0  0  0  0
   11.7383    6.4174    0.0000 H   0  0  0  0  0  0  0  0  0  0  0  0
   12.1369    7.1077    0.0000 H   0  0  0  0  0  0  0  0  0  0  0  0
    5.6762   -7.0826    0.0000 H   0  0  0  0  0  0  0  0  0  0  0  0
    6.0747   -6.3923    0.0000 H   0  0  0  0  0  0  0  0  0  0  0  0
   10.4482    7.0826    0.0000 H   0  0  0  0  0  0  0  0  0  0  0  0
   10.0497    6.3923    0.0000 H   0  0  0  0  0  0  0  0  0  0  0  0
    5.2520   -4.9174    0.0000 H   0  0  0  0  0  0  0  0  0  0  0  0
    4.8535   -5.6077    0.0000 H   0  0  0  0  0  0  0  0  0  0  0  0
   10.8723    4.9174    0.0000 H   0  0  0  0  0  0  0  0  0  0  0  0
   11.2708    5.6077    0.0000 H   0  0  0  0  0  0  0  0  0  0  0  0
    6.5422   -5.5826    0.0000 H   0  0  0  0  0  0  0  0  0  0  0  0
    6.9407   -4.8923    0.0000 H   0  0  0  0  0  0  0  0  0  0  0  0
    9.5822    5.5826    0.0000 H   0  0  0  0  0  0  0  0  0  0  0  0
    9.1836    4.8923    0.0000 H   0  0  0  0  0  0  0  0  0  0  0  0
    6.0010  -11.1900    0.0000 H   0  0  0  0  0  0  0  0  0  0  0  0
   10.1233   11.1900    0.0000 H   0  0  0  0  0  0  0  0  0  0  0  0
    3.1951  -12.8100    0.0000 H   0  0  0  0  0  0  0  0  0  0  0  0
   12.9292   12.8100    0.0000 H   0  0  0  0  0  0  0  0  0  0  0  0
    6.0010  -12.8100    0.0000 H   0  0  0  0  0  0  0  0  0  0  0  0
   10.1233   12.8100    0.0000 H   0  0  0  0  0  0  0  0  0  0  0  0
    5.7932   -3.6900    0.0000 H   0  0  0  0  0  0  0  0  0  0  0  0
   10.3312    3.6900    0.0000 H   0  0  0  0  0  0  0  0  0  0  0  0
    4.5981  -13.6200    0.0000 H   0  0  0  0  0  0  0  0  0  0  0  0
   11.5263   13.6200    0.0000 H   0  0  0  0  0  0  0  0  0  0  0  0
    1.6900  -10.9631    0.0000 H   0  0  0  0  0  0  0  0  0  0  0  0
    1.4631  -11.8100    0.0000 H   0  0  0  0  0  0  0  0  0  0  0  0
    2.3100  -12.0369    0.0000 H   0  0  0  0  0  0  0  0  0  0  0  0
   14.4344   10.9631    0.0000 H   0  0  0  0  0  0  0  0  0  0  0  0
   14.6613   11.8100    0.0000 H   0  0  0  0  0  0  0  0  0  0  0  0
   13.8144   12.0369    0.0000 H   0  0  0  0  0  0  0  0  0  0  0  0
    6.6592   -2.1900    0.0000 H   0  0  0  0  0  0  0  0  0  0  0  0
    9.4651    2.1900    0.0000 H   0  0  0  0  0  0  0  0  0  0  0  0
    8.5991   -2.3100    0.0000 H   0  0  0  0  0  0  0  0  0  0  0  0
    7.5252    2.3100    0.0000 H   0  0  0  0  0  0  0  0  0  0  0  0
    6.6592   -0.8100    0.0000 H   0  0  0  0  0  0  0  0  0  0  0  0
    6.6592    0.8100    0.0000 H   0  0  0  0  0  0  0  0  0  0  0  0
    9.4651   -0.8100    0.0000 H   0  0  0  0  0  0  0  0  0  0  0  0
    9.4651    0.8100    0.0000 H   0  0  0  0  0  0  0  0  0  0  0  0
  1 27  1  0  0  0  0
  1 41  1  0  0  0  0
  2 28  1  0  0  0  0
  2 42  1  0  0  0  0
  3 39  2  0  0  0  0
  4 40  2  0  0  0  0
  5 11  1  0  0  0  0
  5 12  1  0  0  0  0
  5 19  1  0  0  0  0
  6 13  1  0  0  0  0
  6 14  1  0  0  0  0
  6 20  1  0  0  0  0
  7 15  1  0  0  0  0
  7 16  1  0  0  0  0
  7 23  1  0  0  0  0
  8 17  1  0  0  0  0
  8 18  1  0  0  0  0
  8 24  1  0  0  0  0
  9 29  1  0  0  0  0
  9 39  1  0  0  0  0
  9 91  1  0  0  0  0
 10 30  1  0  0  0  0
 10 40  1  0  0  0  0
 10 92  1  0  0  0  0
 11 15  1  0  0  0  0
 11 53  1  0  0  0  0
 11 54  1  0  0  0  0
 12 16  1  0  0  0  0
 12 55  1  0  0  0  0
 12 56  1  0  0  0  0
 13 17  1  0  0  0  0
 13 57  1  0  0  0  0
 13 58  1  0  0  0  0
 14 18  1  0  0  0  0
 14 59  1  0  0  0  0
 14 60  1  0  0  0  0
 15 61  1  0  0  0  0
 15 62  1  0  0  0  0
 16 63  1  0  0  0  0
 16 64  1  0  0  0  0
 17 65  1  0  0  0  0
 17 66  1  0  0  0  0
 18 67  1  0  0  0  0
 18 68  1  0  0  0  0
 19 21  1  0  0  0  0
 19 69  1  0  0  0  0
 19 70  1  0  0  0  0
 20 22  1  0  0  0  0
 20 71  1  0  0  0  0
 20 72  1  0  0  0  0
 21 25  1  0  0  0  0
 21 73  1  0  0  0  0
 21 74  1  0  0  0  0
 22 26  1  0  0  0  0
 22 75  1  0  0  0  0
 22 76  1  0  0  0  0
 23 27  1  0  0  0  0
 23 31  2  0  0  0  0
 24 28  1  0  0  0  0
 24 32  2  0  0  0  0
 25 29  1  0  0  0  0
 25 77  1  0  0  0  0
 25 78  1  0  0  0  0
 26 30  1  0  0  0  0
 26 79  1  0  0  0  0
 26 80  1  0  0  0  0
 27 33  2  0  0  0  0
 28 34  2  0  0  0  0
 29 81  1  0  0  0  0
 29 82  1  0  0  0  0
 30 83  1  0  0  0  0
 30 84  1  0  0  0  0
 31 35  1  0  0  0  0
 31 85  1  0  0  0  0
 32 36  1  0  0  0  0
 32 86  1  0  0  0  0
 33 37  1  0  0  0  0
 33 87  1  0  0  0  0
 34 38  1  0  0  0  0
 34 88  1  0  0  0  0
 35 37  2  0  0  0  0
 35 89  1  0  0  0  0
 36 38  2  0  0  0  0
 36 90  1  0  0  0  0
 37 93  1  0  0  0  0
 38 94  1  0  0  0  0
 39 43  1  0  0  0  0
 40 44  1  0  0  0  0
 41 95  1  0  0  0  0
 41 96  1  0  0  0  0
 41 97  1  0  0  0  0
 42 98  1  0  0  0  0
 42 99  1  0  0  0  0
 42100  1  0  0  0  0
 43 45  2  0  0  0  0
 43101  1  0  0  0  0
 44 46  2  0  0  0  0
 44102  1  0  0  0  0
 45 47  1  0  0  0  0
 45103  1  0  0  0  0
 46 48  1  0  0  0  0
 46104  1  0  0  0  0
 47 49  2  0  0  0  0
 47 51  1  0  0  0  0
 48 50  2  0  0  0  0
 48 52  1  0  0  0  0
 49 50  1  0  0  0  0
 49105  1  0  0  0  0
 50106  1  0  0  0  0
 51 52  2  0  0  0  0
 51107  1  0  0  0  0
 52108  1  0  0  0  0
M  END
> <PUBCHEM_COMPOUND_CID>
10919602

> <PUBCHEM_COMPOUND_CANONICALIZED>
1

> <PUBCHEM_CACTVS_COMPLEXITY>
996

> <PUBCHEM_CACTVS_HBOND_ACCEPTOR>
8

> <PUBCHEM_CACTVS_HBOND_DONOR>
2

> <PUBCHEM_CACTVS_ROTATABLE_BOND>
18

> <PUBCHEM_CACTVS_SUBSKEYS>
AAADcfB/uAAAAAAAAAAAAAAAAAAAAAAAAAA8eMECAAAAAAABUAAAHgAQAAAADAzBmAYyxoPABACIAiVSUACCCAAhIgAIiIAPbMgOZiLEsZuVMChk1hHY6YeQwAAOQAAAAAAAEACAAAAAAAAgAAAAAAAAAA==

> <PUBCHEM_IUPAC_OPENEYE_NAME>
(E)-N-[4-[4-(2-methoxyphenyl)piperazin-1-yl]butyl]-3-[4-[(E)-3-[4-[4-(2-methoxyphenyl)piperazin-1-yl]butylamino]-3-oxo-prop-1-enyl]phenyl]prop-2-enamide

> <PUBCHEM_IUPAC_CAS_NAME>
(E)-N-[4-[4-(2-methoxyphenyl)-1-piperazinyl]butyl]-3-[4-[(E)-3-[4-[4-(2-methoxyphenyl)-1-piperazinyl]butylamino]-3-oxoprop-1-enyl]phenyl]-2-propenamide

> <PUBCHEM_IUPAC_NAME_MARKUP>
(<I>E</I>)-<I>N</I>-[4-[4-(2-methoxyphenyl)piperazin-1-yl]butyl]-3-[4-[(<I>E</I>)-3-[4-[4-(2-methoxyphenyl)piperazin-1-yl]butylamino]-3-oxoprop-1-enyl]phenyl]prop-2-enamide

> <PUBCHEM_IUPAC_NAME>
(E)-N-[4-[4-(2-methoxyphenyl)piperazin-1-yl]butyl]-3-[4-[(E)-3-[4-[4-(2-methoxyphenyl)piperazin-1-yl]butylamino]-3-oxoprop-1-enyl]phenyl]prop-2-enamide

> <PUBCHEM_IUPAC_SYSTEMATIC_NAME>
(E)-N-[4-[4-(2-methoxyphenyl)piperazin-1-yl]butyl]-3-[4-[(E)-3-[4-[4-(2-methoxyphenyl)piperazin-1-yl]butylamino]-3-oxidanylidene-prop-1-enyl]phenyl]prop-2-enamide

> <PUBCHEM_IUPAC_TRADITIONAL_NAME>
(E)-3-[4-[(E)-3-keto-3-[4-[4-(2-methoxyphenyl)piperazino]butylamino]prop-1-enyl]phenyl]-N-[4-[4-(2-methoxyphenyl)piperazino]butyl]acrylamide

> <PUBCHEM_IUPAC_INCHI>
InChI=1S/C42H56N6O4/c1-51-39-13-5-3-11-37(39)47-31-27-45(28-32-47)25-9-7-23-43-41(49)21-19-35-15-17-36(18-16-35)20-22-42(50)44-24-8-10-26-46-29-33-48(34-30-46)38-12-4-6-14-40(38)52-2/h3-6,11-22H,7-10,23-34H2,1-2H3,(H,43,49)(H,44,50)/b21-19+,22-20+

> <PUBCHEM_IUPAC_INCHIKEY>
ICGNIALTNZWGJF-FLFKKZLDSA-N

> <PUBCHEM_XLOGP3_AA>
6

> <PUBCHEM_EXACT_MASS>
708.43630429

> <PUBCHEM_MOLECULAR_FORMULA>
C42H56N6O4

> <PUBCHEM_MOLECULAR_WEIGHT>
708.9

> <PUBCHEM_OPENEYE_CAN_SMILES>
COC1=CC=CC=C1N2CCN(CC2)CCCCNC(=O)C=CC3=CC=C(C=C3)C=CC(=O)NCCCCN4CCN(CC4)C5=CC=CC=C5OC

> <PUBCHEM_OPENEYE_ISO_SMILES>
COC1=CC=CC=C1N2CCN(CC2)CCCCNC(=O)/C=C/C3=CC=C(C=C3)/C=C/C(=O)NCCCCN4CCN(CC4)C5=CC=CC=C5OC

> <PUBCHEM_CACTVS_TPSA>
89.6

> <PUBCHEM_MONOISOTOPIC_WEIGHT>
708.43630429

> <PUBCHEM_TOTAL_CHARGE>
0

> <PUBCHEM_HEAVY_ATOM_COUNT>
52

> <PUBCHEM_ATOM_DEF_STEREO_COUNT>
0

> <PUBCHEM_ATOM_UDEF_STEREO_COUNT>
0

> <PUBCHEM_BOND_DEF_STEREO_COUNT>
2

> <PUBCHEM_BOND_UDEF_STEREO_COUNT>
0

> <PUBCHEM_ISOTOPIC_ATOM_COUNT>
0

> <PUBCHEM_COMPONENT_COUNT>
1

> <PUBCHEM_CACTVS_TAUTO_COUNT>
-1

> <PUBCHEM_COORDINATE_TYPE>
1
5
255

> <PUBCHEM_BONDANNOTATIONS>
23  27  8
23  31  8
24  28  8
24  32  8
27  33  8
28  34  8
31  35  8
32  36  8
33  37  8
34  38  8
35  37  8
36  38  8
47  49  8
47  51  8
48  50  8
48  52  8
49  50  8
51  52  8

$$$$
