164624053
  -OEChem-09292322432D

 63 67  0     1  0  0  0  0  0999 V2000
    6.2870    4.0702    0.0000 O   0  0  0  0  0  0  0  0  0  0  0  0
    8.9130    2.5355    0.0000 O   0  0  0  0  0  0  0  0  0  0  0  0
    8.9251    6.6047    0.0000 O   0  0  0  0  0  0  0  0  0  0  0  0
    2.8694   -2.0390    0.0000 O   0  0  0  0  0  0  0  0  0  0  0  0
    6.2870    2.0008    0.0000 N   0  0  3  0  0  0  0  0  0  0  0  0
    4.6013   -2.0189    0.0000 N   0  0  0  0  0  0  0  0  0  0  0  0
    7.1810    2.5355    0.0000 C   0  0  1  0  0  0  0  0  0  0  0  0
    7.1810    3.5355    0.0000 C   0  0  1  0  0  0  0  0  0  0  0  0
    5.3809    2.5147    0.0000 C   0  0  0  0  0  0  0  0  0  0  0  0
    8.0470    2.0355    0.0000 C   0  0  0  0  0  0  0  0  0  0  0  0
    6.2986    1.0009    0.0000 C   0  0  0  0  0  0  0  0  0  0  0  0
    8.0470    4.0355    0.0000 C   0  0  0  0  0  0  0  0  0  0  0  0
    5.3809    3.5563    0.0000 C   0  0  0  0  0  0  0  0  0  0  0  0
    5.4384    0.4909    0.0000 C   0  0  0  0  0  0  0  0  0  0  0  0
    8.9130    3.5355    0.0000 C   0  0  0  0  0  0  0  0  0  0  0  0
    8.0309    5.0770    0.0000 C   0  0  0  0  0  0  0  0  0  0  0  0
    5.4500   -0.5090    0.0000 C   0  0  0  0  0  0  0  0  0  0  0  0
    9.8230    4.0423    0.0000 C   0  0  0  0  0  0  0  0  0  0  0  0
    8.9290    5.6048    0.0000 C   0  0  0  0  0  0  0  0  0  0  0  0
    4.5898   -1.0190    0.0000 C   0  0  0  0  0  0  0  0  0  0  0  0
    9.8310    5.0839    0.0000 C   0  0  0  0  0  0  0  0  0  0  0  0
    3.7411   -2.5289    0.0000 C   0  0  0  0  0  0  0  0  0  0  0  0
    9.7892    7.1081    0.0000 C   0  0  0  0  0  0  0  0  0  0  0  0
    3.7527   -3.5288    0.0000 C   0  0  0  0  0  0  0  0  0  0  0  0
    2.8925   -4.0388    0.0000 C   0  0  0  0  0  0  0  0  0  0  0  0
    4.6245   -4.0188    0.0000 C   0  0  0  0  0  0  0  0  0  0  0  0
    2.9041   -5.0388    0.0000 C   0  0  0  0  0  0  0  0  0  0  0  0
    3.7758   -5.5287    0.0000 C   0  0  0  0  0  0  0  0  0  0  0  0
    4.6360   -5.0187    0.0000 C   0  0  0  0  0  0  0  0  0  0  0  0
    2.0000   -5.5561    0.0000 C   0  0  0  0  0  0  0  0  0  0  0  0
    3.8039   -6.5700    0.0000 C   0  0  0  0  0  0  0  0  0  0  0  0
    2.0040   -6.5977    0.0000 C   0  0  0  0  0  0  0  0  0  0  0  0
    2.9121   -7.1081    0.0000 C   0  0  0  0  0  0  0  0  0  0  0  0
    7.1875    1.6855    0.0000 H   0  0  0  0  0  0  0  0  0  0  0  0
    7.1875    4.3855    0.0000 H   0  0  0  0  0  0  0  0  0  0  0  0
    4.7701    2.6208    0.0000 H   0  0  0  0  0  0  0  0  0  0  0  0
    5.1719    1.9310    0.0000 H   0  0  0  0  0  0  0  0  0  0  0  0
    7.6484    1.5605    0.0000 H   0  0  0  0  0  0  0  0  0  0  0  0
    8.4455    1.5605    0.0000 H   0  0  0  0  0  0  0  0  0  0  0  0
    6.5173    0.4208    0.0000 H   0  0  0  0  0  0  0  0  0  0  0  0
    6.9079    1.1156    0.0000 H   0  0  0  0  0  0  0  0  0  0  0  0
    5.1719    4.1400    0.0000 H   0  0  0  0  0  0  0  0  0  0  0  0
    4.7701    3.4502    0.0000 H   0  0  0  0  0  0  0  0  0  0  0  0
    5.2196    1.0710    0.0000 H   0  0  0  0  0  0  0  0  0  0  0  0
    4.8291    0.3762    0.0000 H   0  0  0  0  0  0  0  0  0  0  0  0
    7.4904    5.3808    0.0000 H   0  0  0  0  0  0  0  0  0  0  0  0
    5.6687   -1.0891    0.0000 H   0  0  0  0  0  0  0  0  0  0  0  0
    6.0592   -0.3943    0.0000 H   0  0  0  0  0  0  0  0  0  0  0  0
   10.3563    3.7261    0.0000 H   0  0  0  0  0  0  0  0  0  0  0  0
    4.3710   -0.4389    0.0000 H   0  0  0  0  0  0  0  0  0  0  0  0
    3.9805   -1.1337    0.0000 H   0  0  0  0  0  0  0  0  0  0  0  0
   10.3692    5.3919    0.0000 H   0  0  0  0  0  0  0  0  0  0  0  0
    5.1418   -2.3227    0.0000 H   0  0  0  0  0  0  0  0  0  0  0  0
   10.1013    6.5723    0.0000 H   0  0  0  0  0  0  0  0  0  0  0  0
   10.3249    7.4201    0.0000 H   0  0  0  0  0  0  0  0  0  0  0  0
    9.4771    7.6438    0.0000 H   0  0  0  0  0  0  0  0  0  0  0  0
    2.3520   -3.7351    0.0000 H   0  0  0  0  0  0  0  0  0  0  0  0
    5.1578   -3.7026    0.0000 H   0  0  0  0  0  0  0  0  0  0  0  0
    5.1765   -5.3225    0.0000 H   0  0  0  0  0  0  0  0  0  0  0  0
    1.4631   -5.2461    0.0000 H   0  0  0  0  0  0  0  0  0  0  0  0
    4.3479   -6.8675    0.0000 H   0  0  0  0  0  0  0  0  0  0  0  0
    1.4695   -6.9118    0.0000 H   0  0  0  0  0  0  0  0  0  0  0  0
    2.9216   -7.7280    0.0000 H   0  0  0  0  0  0  0  0  0  0  0  0
  1  8  1  0  0  0  0
  1 13  1  0  0  0  0
  2 10  1  0  0  0  0
  2 15  1  0  0  0  0
  3 19  1  0  0  0  0
  3 23  1  0  0  0  0
  4 22  2  0  0  0  0
  5  7  1  0  0  0  0
  5  9  1  0  0  0  0
  5 11  1  0  0  0  0
  6 20  1  0  0  0  0
  6 22  1  0  0  0  0
  6 53  1  0  0  0  0
  7  8  1  0  0  0  0
  7 10  1  0  0  0  0
  7 34  1  6  0  0  0
  8 12  1  0  0  0  0
  8 35  1  1  0  0  0
  9 13  1  0  0  0  0
  9 36  1  0  0  0  0
  9 37  1  0  0  0  0
 10 38  1  0  0  0  0
 10 39  1  0  0  0  0
 11 14  1  0  0  0  0
 11 40  1  0  0  0  0
 11 41  1  0  0  0  0
 12 15  2  0  0  0  0
 12 16  1  0  0  0  0
 13 42  1  0  0  0  0
 13 43  1  0  0  0  0
 14 17  1  0  0  0  0
 14 44  1  0  0  0  0
 14 45  1  0  0  0  0
 15 18  1  0  0  0  0
 16 19  2  0  0  0  0
 16 46  1  0  0  0  0
 17 20  1  0  0  0  0
 17 47  1  0  0  0  0
 17 48  1  0  0  0  0
 18 21  2  0  0  0  0
 18 49  1  0  0  0  0
 19 21  1  0  0  0  0
 20 50  1  0  0  0  0
 20 51  1  0  0  0  0
 21 52  1  0  0  0  0
 22 24  1  0  0  0  0
 23 54  1  0  0  0  0
 23 55  1  0  0  0  0
 23 56  1  0  0  0  0
 24 25  2  0  0  0  0
 24 26  1  0  0  0  0
 25 27  1  0  0  0  0
 25 57  1  0  0  0  0
 26 29  2  0  0  0  0
 26 58  1  0  0  0  0
 27 28  1  0  0  0  0
 27 30  2  0  0  0  0
 28 29  1  0  0  0  0
 28 31  2  0  0  0  0
 29 59  1  0  0  0  0
 30 32  1  0  0  0  0
 30 60  1  0  0  0  0
 31 33  1  0  0  0  0
 31 61  1  0  0  0  0
 32 33  2  0  0  0  0
 32 62  1  0  0  0  0
 33 63  1  0  0  0  0
M  END
> <PUBCHEM_COMPOUND_CID>
164624053

> <PUBCHEM_COMPOUND_CANONICALIZED>
1

> <PUBCHEM_CACTVS_COMPLEXITY>
646

> <PUBCHEM_CACTVS_HBOND_ACCEPTOR>
5

> <PUBCHEM_CACTVS_HBOND_DONOR>
1

> <PUBCHEM_CACTVS_ROTATABLE_BOND>
7

> <PUBCHEM_CACTVS_SUBSKEYS>
AAADceB7OAAAAAAAAAAAAAAAAAAAAAAAAAA8aMECAAAAAADxVAAAHgAQAAAADDzhmAYyBsPABACIAiFSEACCCAAkIAAIiIEODMgOJzKEtRuHOSjl1hGYqYf42POOwQADAAAYAACCAAYAADAAAAAAAAAAAA==

> <PUBCHEM_IUPAC_OPENEYE_NAME>
N-[4-[(4aR,10bR)-9-methoxy-3,4a,5,10b-tetrahydro-2H-chromeno[4,3-b][1,4]oxazin-4-yl]butyl]naphthalene-2-carboxamide

> <PUBCHEM_IUPAC_CAS_NAME>
N-[4-[(4aR,10bR)-9-methoxy-3,4a,5,10b-tetrahydro-2H-[1]benzopyrano[4,3-b][1,4]oxazin-4-yl]butyl]-2-naphthalenecarboxamide

> <PUBCHEM_IUPAC_NAME_MARKUP>
<I>N</I>-[4-[(4<I>a</I><I>R</I>,10<I>b</I><I>R</I>)-9-methoxy-3,4<I>a</I>,5,10<I>b</I>-tetrahydro-2<I>H</I>-chromeno[4,3-b][1,4]oxazin-4-yl]butyl]naphthalene-2-carboxamide

> <PUBCHEM_IUPAC_NAME>
N-[4-[(4aR,10bR)-9-methoxy-3,4a,5,10b-tetrahydro-2H-chromeno[4,3-b][1,4]oxazin-4-yl]butyl]naphthalene-2-carboxamide

> <PUBCHEM_IUPAC_SYSTEMATIC_NAME>
N-[4-[(4aR,10bR)-9-methoxy-3,4a,5,10b-tetrahydro-2H-chromeno[4,3-b][1,4]oxazin-4-yl]butyl]naphthalene-2-carboxamide

> <PUBCHEM_IUPAC_TRADITIONAL_NAME>
N-[4-[(4aR,10bR)-9-methoxy-3,4a,5,10b-tetrahydro-2H-chromeno[4,3-b][1,4]oxazin-4-yl]butyl]-2-naphthamide

> <PUBCHEM_IUPAC_INCHI>
InChI=1S/C27H30N2O4/c1-31-22-10-11-25-23(17-22)26-24(18-33-25)29(14-15-32-26)13-5-4-12-28-27(30)21-9-8-19-6-2-3-7-20(19)16-21/h2-3,6-11,16-17,24,26H,4-5,12-15,18H2,1H3,(H,28,30)/t24-,26-/m1/s1

> <PUBCHEM_IUPAC_INCHIKEY>
AZZXYTBUUQBLGH-AOYPEHQESA-N

> <PUBCHEM_XLOGP3>
4.3

> <PUBCHEM_EXACT_MASS>
446.22055744

> <PUBCHEM_MOLECULAR_FORMULA>
C27H30N2O4

> <PUBCHEM_MOLECULAR_WEIGHT>
446.5

> <PUBCHEM_OPENEYE_CAN_SMILES>
COC1=CC2=C(C=C1)OCC3C2OCCN3CCCCNC(=O)C4=CC5=CC=CC=C5C=C4

> <PUBCHEM_OPENEYE_ISO_SMILES>
COC1=CC2=C(C=C1)OC[C@@H]3[C@@H]2OCCN3CCCCNC(=O)C4=CC5=CC=CC=C5C=C4

> <PUBCHEM_CACTVS_TPSA>
60

> <PUBCHEM_MONOISOTOPIC_WEIGHT>
446.22055744

> <PUBCHEM_TOTAL_CHARGE>
0

> <PUBCHEM_HEAVY_ATOM_COUNT>
33

> <PUBCHEM_ATOM_DEF_STEREO_COUNT>
2

> <PUBCHEM_ATOM_UDEF_STEREO_COUNT>
0

> <PUBCHEM_BOND_DEF_STEREO_COUNT>
0

> <PUBCHEM_BOND_UDEF_STEREO_COUNT>
0

> <PUBCHEM_ISOTOPIC_ATOM_COUNT>
0

> <PUBCHEM_COMPONENT_COUNT>
1

> <PUBCHEM_CACTVS_TAUTO_COUNT>
-1

> <PUBCHEM_COORDINATE_TYPE>
1
5
255

> <PUBCHEM_BONDANNOTATIONS>
12  15  8
12  16  8
15  18  8
16  19  8
18  21  8
19  21  8
24  25  8
24  26  8
25  27  8
26  29  8
27  28  8
27  30  8
28  29  8
28  31  8
30  32  8
31  33  8
32  33  8
7  34  6
8  35  5

$$$$
