126534516
  -OEChem-09292322372D

 58 62  0     1  0  0  0  0  0999 V2000
    9.0771    2.7681    0.0000 S   0  0  0  0  0  0  0  0  0  0  0  0
    2.3601   -3.5772    0.0000 F   0  0  0  0  0  0  0  0  0  0  0  0
   12.4249    0.6804    0.0000 O   0  0  0  0  0  0  0  0  0  0  0  0
    3.5962    0.2271    0.0000 N   0  0  3  0  0  0  0  0  0  0  0  0
    6.0771    1.0361    0.0000 N   0  0  3  0  0  0  0  0  0  0  0  0
   10.6649    1.9591    0.0000 N   0  0  0  0  0  0  0  0  0  0  0  0
   10.6649    3.5772    0.0000 N   0  0  0  0  0  0  0  0  0  0  0  0
   11.6159    3.2681    0.0000 N   0  0  0  0  0  0  0  0  0  0  0  0
   13.9638    1.1804    0.0000 N   0  0  0  0  0  0  0  0  0  0  0  0
    4.5472    1.5361    0.0000 C   0  0  3  0  0  0  0  0  0  0  0  0
    4.5472    0.5361    0.0000 C   0  0  3  0  0  0  0  0  0  0  0  0
    5.4935    1.8408    0.0000 C   0  0  0  0  0  0  0  0  0  0  0  0
    3.5962    1.8451    0.0000 C   0  0  0  0  0  0  0  0  0  0  0  0
    5.4935    0.2314    0.0000 C   0  0  0  0  0  0  0  0  0  0  0  0
    3.0084    1.0361    0.0000 C   0  0  0  0  0  0  0  0  0  0  0  0
    7.0771    1.0361    0.0000 C   0  0  0  0  0  0  0  0  0  0  0  0
    3.2872   -0.7240    0.0000 C   0  0  0  0  0  0  0  0  0  0  0  0
    7.5771    1.9021    0.0000 C   0  0  0  0  0  0  0  0  0  0  0  0
    2.3090   -0.9319    0.0000 C   0  0  0  0  0  0  0  0  0  0  0  0
    3.9563   -1.4671    0.0000 C   0  0  0  0  0  0  0  0  0  0  0  0
    8.5771    1.9021    0.0000 C   0  0  0  0  0  0  0  0  0  0  0  0
    2.0000   -1.8830    0.0000 C   0  0  0  0  0  0  0  0  0  0  0  0
    3.6473   -2.4182    0.0000 C   0  0  0  0  0  0  0  0  0  0  0  0
    2.6691   -2.6261    0.0000 C   0  0  0  0  0  0  0  0  0  0  0  0
   10.0771    2.7681    0.0000 C   0  0  0  0  0  0  0  0  0  0  0  0
   11.6159    2.2681    0.0000 C   0  0  0  0  0  0  0  0  0  0  0  0
   10.3558    1.0081    0.0000 C   0  0  0  0  0  0  0  0  0  0  0  0
   12.4249    1.6804    0.0000 C   0  0  0  0  0  0  0  0  0  0  0  0
   13.3760    1.9894    0.0000 C   0  0  0  0  0  0  0  0  0  0  0  0
   13.6850    2.9404    0.0000 C   0  0  0  0  0  0  0  0  0  0  0  0
   13.3760    0.3713    0.0000 C   0  0  0  0  0  0  0  0  0  0  0  0
    4.5480    2.1561    0.0000 H   0  0  0  0  0  0  0  0  0  0  0  0
    4.5480   -0.0839    0.0000 H   0  0  0  0  0  0  0  0  0  0  0  0
    6.0308    2.1500    0.0000 H   0  0  0  0  0  0  0  0  0  0  0  0
    5.2424    2.4077    0.0000 H   0  0  0  0  0  0  0  0  0  0  0  0
    3.8484    2.4115    0.0000 H   0  0  0  0  0  0  0  0  0  0  0  0
    3.0592    2.1551    0.0000 H   0  0  0  0  0  0  0  0  0  0  0  0
    5.2424   -0.3356    0.0000 H   0  0  0  0  0  0  0  0  0  0  0  0
    6.0308   -0.0779    0.0000 H   0  0  0  0  0  0  0  0  0  0  0  0
    2.5476    1.4510    0.0000 H   0  0  0  0  0  0  0  0  0  0  0  0
    2.5476    0.6212    0.0000 H   0  0  0  0  0  0  0  0  0  0  0  0
    6.9694    0.4255    0.0000 H   0  0  0  0  0  0  0  0  0  0  0  0
    7.6597    0.8240    0.0000 H   0  0  0  0  0  0  0  0  0  0  0  0
    7.6847    2.5127    0.0000 H   0  0  0  0  0  0  0  0  0  0  0  0
    6.9945    2.1142    0.0000 H   0  0  0  0  0  0  0  0  0  0  0  0
    1.8942   -0.4711    0.0000 H   0  0  0  0  0  0  0  0  0  0  0  0
    4.5628   -1.3382    0.0000 H   0  0  0  0  0  0  0  0  0  0  0  0
    8.4694    1.2915    0.0000 H   0  0  0  0  0  0  0  0  0  0  0  0
    9.1597    1.6901    0.0000 H   0  0  0  0  0  0  0  0  0  0  0  0
    1.3936   -2.0119    0.0000 H   0  0  0  0  0  0  0  0  0  0  0  0
    4.0621   -2.8789    0.0000 H   0  0  0  0  0  0  0  0  0  0  0  0
    9.7662    1.1997    0.0000 H   0  0  0  0  0  0  0  0  0  0  0  0
   10.1642    0.4184    0.0000 H   0  0  0  0  0  0  0  0  0  0  0  0
   10.9455    0.8165    0.0000 H   0  0  0  0  0  0  0  0  0  0  0  0
   14.2747    2.7488    0.0000 H   0  0  0  0  0  0  0  0  0  0  0  0
   13.8766    3.5301    0.0000 H   0  0  0  0  0  0  0  0  0  0  0  0
   13.0953    3.1320    0.0000 H   0  0  0  0  0  0  0  0  0  0  0  0
   13.5676   -0.2183    0.0000 H   0  0  0  0  0  0  0  0  0  0  0  0
  1 21  1  0  0  0  0
  1 25  1  0  0  0  0
  2 24  1  0  0  0  0
  3 28  1  0  0  0  0
  3 31  1  0  0  0  0
  4 11  1  0  0  0  0
  4 15  1  0  0  0  0
  4 17  1  0  0  0  0
  5 12  1  0  0  0  0
  5 14  1  0  0  0  0
  5 16  1  0  0  0  0
  6 25  1  0  0  0  0
  6 26  1  0  0  0  0
  6 27  1  0  0  0  0
  7  8  1  0  0  0  0
  7 25  2  0  0  0  0
  8 26  2  0  0  0  0
  9 29  1  0  0  0  0
  9 31  2  0  0  0  0
 10 11  1  0  0  0  0
 10 12  1  0  0  0  0
 10 13  1  0  0  0  0
 10 32  1  0  0  0  0
 11 14  1  0  0  0  0
 11 33  1  0  0  0  0
 12 34  1  0  0  0  0
 12 35  1  0  0  0  0
 13 15  1  0  0  0  0
 13 36  1  0  0  0  0
 13 37  1  0  0  0  0
 14 38  1  0  0  0  0
 14 39  1  0  0  0  0
 15 40  1  0  0  0  0
 15 41  1  0  0  0  0
 16 18  1  0  0  0  0
 16 42  1  0  0  0  0
 16 43  1  0  0  0  0
 17 19  2  0  0  0  0
 17 20  1  0  0  0  0
 18 21  1  0  0  0  0
 18 44  1  0  0  0  0
 18 45  1  0  0  0  0
 19 22  1  0  0  0  0
 19 46  1  0  0  0  0
 20 23  2  0  0  0  0
 20 47  1  0  0  0  0
 21 48  1  0  0  0  0
 21 49  1  0  0  0  0
 22 24  2  0  0  0  0
 22 50  1  0  0  0  0
 23 24  1  0  0  0  0
 23 51  1  0  0  0  0
 26 28  1  0  0  0  0
 27 52  1  0  0  0  0
 27 53  1  0  0  0  0
 27 54  1  0  0  0  0
 28 29  2  0  0  0  0
 29 30  1  0  0  0  0
 30 55  1  0  0  0  0
 30 56  1  0  0  0  0
 30 57  1  0  0  0  0
 31 58  1  0  0  0  0
M  END
> <PUBCHEM_COMPOUND_CID>
126534516

> <PUBCHEM_COMPOUND_CANONICALIZED>
1

> <PUBCHEM_CACTVS_COMPLEXITY>
596

> <PUBCHEM_CACTVS_HBOND_ACCEPTOR>
8

> <PUBCHEM_CACTVS_HBOND_DONOR>
0

> <PUBCHEM_CACTVS_ROTATABLE_BOND>
7

> <PUBCHEM_CACTVS_SUBSKEYS>
AAADceB7oQBAAAAAAAAAAAAAAAAAAWLFiwAwAAAAAAAWAAAB8AAAHwQIAAAADSzF1w631JcMFEiqAaZz9ASS2Ct7YrAd2CG9ZJiOaCLk2bGdIChgjALYyAcQAAAKAAAAAAAAAAAAAAAAAAAAAAAAAAAAAA==

> <PUBCHEM_IUPAC_OPENEYE_NAME>
5-[5-[3-[1-(4-fluorophenyl)-2,3,3a,4,6,6a-hexahydropyrrolo[2,3-c]pyrrol-5-yl]propylsulfanyl]-4-methyl-1,2,4-triazol-3-yl]-4-methyl-oxazole

> <PUBCHEM_IUPAC_CAS_NAME>
5-[5-[3-[1-(4-fluorophenyl)-2,3,3a,4,6,6a-hexahydropyrrolo[2,3-c]pyrrol-5-yl]propylthio]-4-methyl-1,2,4-triazol-3-yl]-4-methyloxazole

> <PUBCHEM_IUPAC_NAME_MARKUP>
5-[5-[3-[1-(4-fluorophenyl)-2,3,3<I>a</I>,4,6,6<I>a</I>-hexahydropyrrolo[2,3-c]pyrrol-5-yl]propylsulfanyl]-4-methyl-1,2,4-triazol-3-yl]-4-methyl-1,3-oxazole

> <PUBCHEM_IUPAC_NAME>
5-[5-[3-[1-(4-fluorophenyl)-2,3,3a,4,6,6a-hexahydropyrrolo[2,3-c]pyrrol-5-yl]propylsulfanyl]-4-methyl-1,2,4-triazol-3-yl]-4-methyl-1,3-oxazole

> <PUBCHEM_IUPAC_SYSTEMATIC_NAME>
5-[5-[3-[1-(4-fluorophenyl)-2,3,3a,4,6,6a-hexahydropyrrolo[2,3-c]pyrrol-5-yl]propylsulfanyl]-4-methyl-1,2,4-triazol-3-yl]-4-methyl-1,3-oxazole

> <PUBCHEM_IUPAC_TRADITIONAL_NAME>
5-[5-[3-[1-(4-fluorophenyl)-2,3,3a,4,6,6a-hexahydropyrrolo[2,3-c]pyrrol-5-yl]propylthio]-4-methyl-1,2,4-triazol-3-yl]-4-methyl-oxazole

> <PUBCHEM_IUPAC_INCHI>
InChI=1S/C22H27FN6OS/c1-15-20(30-14-24-15)21-25-26-22(27(21)2)31-11-3-9-28-12-16-8-10-29(19(16)13-28)18-6-4-17(23)5-7-18/h4-7,14,16,19H,3,8-13H2,1-2H3

> <PUBCHEM_IUPAC_INCHIKEY>
FZEUFNLUEJZENL-UHFFFAOYSA-N

> <PUBCHEM_XLOGP3_AA>
3.3

> <PUBCHEM_EXACT_MASS>
442.19510884

> <PUBCHEM_MOLECULAR_FORMULA>
C22H27FN6OS

> <PUBCHEM_MOLECULAR_WEIGHT>
442.6

> <PUBCHEM_OPENEYE_CAN_SMILES>
CC1=C(OC=N1)C2=NN=C(N2C)SCCCN3CC4CCN(C4C3)C5=CC=C(C=C5)F

> <PUBCHEM_OPENEYE_ISO_SMILES>
CC1=C(OC=N1)C2=NN=C(N2C)SCCCN3CC4CCN(C4C3)C5=CC=C(C=C5)F

> <PUBCHEM_CACTVS_TPSA>
88.5

> <PUBCHEM_MONOISOTOPIC_WEIGHT>
442.19510884

> <PUBCHEM_TOTAL_CHARGE>
0

> <PUBCHEM_HEAVY_ATOM_COUNT>
31

> <PUBCHEM_ATOM_DEF_STEREO_COUNT>
0

> <PUBCHEM_ATOM_UDEF_STEREO_COUNT>
2

> <PUBCHEM_BOND_DEF_STEREO_COUNT>
0

> <PUBCHEM_BOND_UDEF_STEREO_COUNT>
0

> <PUBCHEM_ISOTOPIC_ATOM_COUNT>
0

> <PUBCHEM_COMPONENT_COUNT>
1

> <PUBCHEM_CACTVS_TAUTO_COUNT>
-1

> <PUBCHEM_COORDINATE_TYPE>
1
5
255

> <PUBCHEM_BONDANNOTATIONS>
10  13  3
11  14  3
17  19  8
17  20  8
19  22  8
20  23  8
22  24  8
23  24  8
28  29  8
3  28  8
3  31  8
6  25  8
6  26  8
7  25  8
7  8  8
8  26  8
9  29  8
9  31  8

$$$$
