10520440
  -OEChem-09292322102D

 41 44  0     1  0  0  0  0  0999 V2000
    4.2086    1.1622    0.0000 F   0  0  0  0  0  0  0  0  0  0  0  0
    2.0000   -2.1311    0.0000 F   0  0  0  0  0  0  0  0  0  0  0  0
   10.1279   -1.1311    0.0000 F   0  0  0  0  0  0  0  0  0  0  0  0
    7.1441    1.7809    0.0000 N   0  0  0  0  0  0  0  0  0  0  0  0
    5.5443   -1.9358    0.0000 N   0  0  0  0  0  0  0  0  0  0  0  0
    5.8550    0.6241    0.0000 C   0  0  1  0  0  0  0  0  0  0  0  0
    5.1871    1.3684    0.0000 C   0  0  1  0  0  0  0  0  0  0  0  0
    6.8335    0.8304    0.0000 C   0  0  0  0  0  0  0  0  0  0  0  0
    5.5443   -0.3264    0.0000 C   0  0  0  0  0  0  0  0  0  0  0  0
    5.4978    2.3190    0.0000 C   0  0  0  0  0  0  0  0  0  0  0  0
    6.4763    2.5252    0.0000 C   0  0  0  0  0  0  0  0  0  0  0  0
    4.5981   -0.6311    0.0000 C   0  0  0  0  0  0  0  0  0  0  0  0
    6.1279   -1.1311    0.0000 C   0  0  0  0  0  0  0  0  0  0  0  0
    4.5981   -1.6311    0.0000 C   0  0  0  0  0  0  0  0  0  0  0  0
    7.1279   -1.1311    0.0000 C   0  0  0  0  0  0  0  0  0  0  0  0
    3.7320   -0.1311    0.0000 C   0  0  0  0  0  0  0  0  0  0  0  0
    3.7320   -2.1311    0.0000 C   0  0  0  0  0  0  0  0  0  0  0  0
    2.8660   -0.6311    0.0000 C   0  0  0  0  0  0  0  0  0  0  0  0
    2.8660   -1.6311    0.0000 C   0  0  0  0  0  0  0  0  0  0  0  0
    7.6279   -1.9971    0.0000 C   0  0  0  0  0  0  0  0  0  0  0  0
    7.6279   -0.2651    0.0000 C   0  0  0  0  0  0  0  0  0  0  0  0
    8.6279   -1.9971    0.0000 C   0  0  0  0  0  0  0  0  0  0  0  0
    8.6279   -0.2651    0.0000 C   0  0  0  0  0  0  0  0  0  0  0  0
    9.1279   -1.1311    0.0000 C   0  0  0  0  0  0  0  0  0  0  0  0
    6.4226   -0.0085    0.0000 H   0  0  0  0  0  0  0  0  0  0  0  0
    4.9945    0.7791    0.0000 H   0  0  0  0  0  0  0  0  0  0  0  0
    6.8540    0.2107    0.0000 H   0  0  0  0  0  0  0  0  0  0  0  0
    7.4473    0.7430    0.0000 H   0  0  0  0  0  0  0  0  0  0  0  0
    5.4772    2.9386    0.0000 H   0  0  0  0  0  0  0  0  0  0  0  0
    4.8840    2.4063    0.0000 H   0  0  0  0  0  0  0  0  0  0  0  0
    7.0026    2.8528    0.0000 H   0  0  0  0  0  0  0  0  0  0  0  0
    6.2450    3.1004    0.0000 H   0  0  0  0  0  0  0  0  0  0  0  0
    7.7508    1.9087    0.0000 H   0  0  0  0  0  0  0  0  0  0  0  0
    5.7369   -2.5252    0.0000 H   0  0  0  0  0  0  0  0  0  0  0  0
    3.7320    0.4889    0.0000 H   0  0  0  0  0  0  0  0  0  0  0  0
    3.7320   -2.7511    0.0000 H   0  0  0  0  0  0  0  0  0  0  0  0
    2.3291   -0.3211    0.0000 H   0  0  0  0  0  0  0  0  0  0  0  0
    7.3179   -2.5341    0.0000 H   0  0  0  0  0  0  0  0  0  0  0  0
    7.3179    0.2718    0.0000 H   0  0  0  0  0  0  0  0  0  0  0  0
    8.9379   -2.5341    0.0000 H   0  0  0  0  0  0  0  0  0  0  0  0
    8.9379    0.2718    0.0000 H   0  0  0  0  0  0  0  0  0  0  0  0
  7  1  1  6  0  0  0
  2 19  1  0  0  0  0
  3 24  1  0  0  0  0
  4  8  1  0  0  0  0
  4 11  1  0  0  0  0
  4 33  1  0  0  0  0
  5 13  1  0  0  0  0
  5 14  1  0  0  0  0
  5 34  1  0  0  0  0
  6  7  1  0  0  0  0
  6  8  1  0  0  0  0
  6  9  1  0  0  0  0
  6 25  1  6  0  0  0
  7 10  1  0  0  0  0
  7 26  1  0  0  0  0
  8 27  1  0  0  0  0
  8 28  1  0  0  0  0
  9 12  1  0  0  0  0
  9 13  2  0  0  0  0
 10 11  1  0  0  0  0
 10 29  1  0  0  0  0
 10 30  1  0  0  0  0
 11 31  1  0  0  0  0
 11 32  1  0  0  0  0
 12 14  2  0  0  0  0
 12 16  1  0  0  0  0
 13 15  1  0  0  0  0
 14 17  1  0  0  0  0
 15 20  2  0  0  0  0
 15 21  1  0  0  0  0
 16 18  2  0  0  0  0
 16 35  1  0  0  0  0
 17 19  2  0  0  0  0
 17 36  1  0  0  0  0
 18 19  1  0  0  0  0
 18 37  1  0  0  0  0
 20 22  1  0  0  0  0
 20 38  1  0  0  0  0
 21 23  2  0  0  0  0
 21 39  1  0  0  0  0
 22 24  2  0  0  0  0
 22 40  1  0  0  0  0
 23 24  1  0  0  0  0
 23 41  1  0  0  0  0
M  END
> <PUBCHEM_COMPOUND_CID>
10520440

> <PUBCHEM_COMPOUND_CANONICALIZED>
1

> <PUBCHEM_CACTVS_COMPLEXITY>
427

> <PUBCHEM_CACTVS_HBOND_ACCEPTOR>
4

> <PUBCHEM_CACTVS_HBOND_DONOR>
2

> <PUBCHEM_CACTVS_ROTATABLE_BOND>
2

> <PUBCHEM_CACTVS_SUBSKEYS>
AAADceB7AYAAAAAAAAAAAAAAAAAAAWAAAAA8YIAAAAAAAFgB9AAAHQAQAAAADQjBHgwwwPLJkACgAyRiRACCgCAhAiAImaA4ZJgIIOLAkZGEIAhgkADIyAcQgMAOgAAAAAACAAAAAAAAAAQAAAAAAAAAAA==

> <PUBCHEM_IUPAC_OPENEYE_NAME>
6-fluoro-2-(4-fluorophenyl)-3-[(3R,4R)-4-fluoro-3-piperidyl]-1H-indole

> <PUBCHEM_IUPAC_CAS_NAME>
6-fluoro-2-(4-fluorophenyl)-3-[(3R,4R)-4-fluoro-3-piperidinyl]-1H-indole

> <PUBCHEM_IUPAC_NAME_MARKUP>
6-fluoro-2-(4-fluorophenyl)-3-[(3<I>R</I>,4<I>R</I>)-4-fluoropiperidin-3-yl]-1<I>H</I>-indole

> <PUBCHEM_IUPAC_NAME>
6-fluoro-2-(4-fluorophenyl)-3-[(3R,4R)-4-fluoropiperidin-3-yl]-1H-indole

> <PUBCHEM_IUPAC_SYSTEMATIC_NAME>
6-fluoranyl-3-[(3R,4R)-4-fluoranylpiperidin-3-yl]-2-(4-fluorophenyl)-1H-indole

> <PUBCHEM_IUPAC_TRADITIONAL_NAME>
6-fluoro-2-(4-fluorophenyl)-3-[(3R,4R)-4-fluoro-3-piperidyl]-1H-indole

> <PUBCHEM_IUPAC_INCHI>
InChI=1S/C19H17F3N2/c20-12-3-1-11(2-4-12)19-18(15-10-23-8-7-16(15)22)14-6-5-13(21)9-17(14)24-19/h1-6,9,15-16,23-24H,7-8,10H2/t15-,16-/m1/s1

> <PUBCHEM_IUPAC_INCHIKEY>
HXEXYULSUCMWPN-HZPDHXFCSA-N

> <PUBCHEM_XLOGP3_AA>
4.1

> <PUBCHEM_EXACT_MASS>
330.13438304

> <PUBCHEM_MOLECULAR_FORMULA>
C19H17F3N2

> <PUBCHEM_MOLECULAR_WEIGHT>
330.3

> <PUBCHEM_OPENEYE_CAN_SMILES>
C1CNCC(C1F)C2=C(NC3=C2C=CC(=C3)F)C4=CC=C(C=C4)F

> <PUBCHEM_OPENEYE_ISO_SMILES>
C1CNC[C@H]([C@@H]1F)C2=C(NC3=C2C=CC(=C3)F)C4=CC=C(C=C4)F

> <PUBCHEM_CACTVS_TPSA>
27.8

> <PUBCHEM_MONOISOTOPIC_WEIGHT>
330.13438304

> <PUBCHEM_TOTAL_CHARGE>
0

> <PUBCHEM_HEAVY_ATOM_COUNT>
24

> <PUBCHEM_ATOM_DEF_STEREO_COUNT>
2

> <PUBCHEM_ATOM_UDEF_STEREO_COUNT>
0

> <PUBCHEM_BOND_DEF_STEREO_COUNT>
0

> <PUBCHEM_BOND_UDEF_STEREO_COUNT>
0

> <PUBCHEM_ISOTOPIC_ATOM_COUNT>
0

> <PUBCHEM_COMPONENT_COUNT>
1

> <PUBCHEM_CACTVS_TAUTO_COUNT>
-1

> <PUBCHEM_COORDINATE_TYPE>
1
5
255

> <PUBCHEM_BONDANNOTATIONS>
7  1  6
12  14  8
12  16  8
14  17  8
15  20  8
15  21  8
16  18  8
17  19  8
18  19  8
20  22  8
21  23  8
22  24  8
23  24  8
5  13  8
5  14  8
6  25  6
9  12  8
9  13  8

$$$$
