155526651
  -OEChem-09292322412D

 67 72  0     0  0  0  0  0  0999 V2000
    2.7696   -3.2744    0.0000 O   0  0  0  0  0  0  0  0  0  0  0  0
    5.3051    1.8622    0.0000 N   0  0  0  0  0  0  0  0  0  0  0  0
    6.4461    3.5048    0.0000 N   0  0  0  0  0  0  0  0  0  0  0  0
    4.3009   -4.1371    0.0000 N   0  0  0  0  0  0  0  0  0  0  0  0
    5.5514    5.3017    0.0000 N   0  0  0  0  0  0  0  0  0  0  0  0
    6.3016    1.7788    0.0000 C   0  0  0  0  0  0  0  0  0  0  0  0
    4.8791    2.7669    0.0000 C   0  0  0  0  0  0  0  0  0  0  0  0
    4.7345    1.0409    0.0000 C   0  0  0  0  0  0  0  0  0  0  0  0
    6.8721    2.6000    0.0000 C   0  0  0  0  0  0  0  0  0  0  0  0
    5.4496    3.5882    0.0000 C   0  0  0  0  0  0  0  0  0  0  0  0
    5.1605    0.1362    0.0000 C   0  0  0  0  0  0  0  0  0  0  0  0
    4.5900   -0.6851    0.0000 C   0  0  0  0  0  0  0  0  0  0  0  0
    5.0160   -1.5898    0.0000 C   0  0  0  0  0  0  0  0  0  0  0  0
    4.4455   -2.4111    0.0000 C   0  0  0  0  0  0  0  0  0  0  0  0
    7.0166    4.3260    0.0000 C   0  0  0  0  0  0  0  0  0  0  0  0
    4.8714   -3.3158    0.0000 C   0  0  0  0  0  0  0  0  0  0  0  0
    4.6660   -5.0614    0.0000 C   0  0  0  0  0  0  0  0  0  0  0  0
    3.8000   -5.5614    0.0000 C   0  0  0  0  0  0  0  0  0  0  0  0
    6.5906    5.2308    0.0000 C   0  0  0  0  0  0  0  0  0  0  0  0
    2.9061   -5.0268    0.0000 C   0  0  0  0  0  0  0  0  0  0  0  0
    3.3073   -4.1175    0.0000 C   0  0  0  0  0  0  0  0  0  0  0  0
    8.0131    4.2426    0.0000 C   0  0  0  0  0  0  0  0  0  0  0  0
    3.8000   -6.5614    0.0000 C   0  0  0  0  0  0  0  0  0  0  0  0
    7.1612    6.0521    0.0000 C   0  0  0  0  0  0  0  0  0  0  0  0
    5.5321   -5.5614    0.0000 C   0  0  0  0  0  0  0  0  0  0  0  0
    2.0000   -5.5406    0.0000 C   0  0  0  0  0  0  0  0  0  0  0  0
    8.5837    5.0639    0.0000 C   0  0  0  0  0  0  0  0  0  0  0  0
    4.6660   -7.0614    0.0000 C   0  0  0  0  0  0  0  0  0  0  0  0
    8.1577    5.9686    0.0000 C   0  0  0  0  0  0  0  0  0  0  0  0
    2.9061   -7.0961    0.0000 C   0  0  0  0  0  0  0  0  0  0  0  0
    5.5321   -6.5614    0.0000 C   0  0  0  0  0  0  0  0  0  0  0  0
    2.0000   -6.5822    0.0000 C   0  0  0  0  0  0  0  0  0  0  0  0
    6.7320    7.0012    0.0000 C   0  0  0  0  0  0  0  0  0  0  0  0
    5.1005    6.2406    0.0000 C   0  0  0  0  0  0  0  0  0  0  0  0
    5.6947    7.0961    0.0000 C   0  0  0  0  0  0  0  0  0  0  0  0
    6.1433    1.1793    0.0000 H   0  0  0  0  0  0  0  0  0  0  0  0
    6.8644    1.5188    0.0000 H   0  0  0  0  0  0  0  0  0  0  0  0
    4.4390    3.2037    0.0000 H   0  0  0  0  0  0  0  0  0  0  0  0
    4.3725    2.4094    0.0000 H   0  0  0  0  0  0  0  0  0  0  0  0
    4.2945    1.4777    0.0000 H   0  0  0  0  0  0  0  0  0  0  0  0
    4.2280    0.6834    0.0000 H   0  0  0  0  0  0  0  0  0  0  0  0
    7.3121    2.1633    0.0000 H   0  0  0  0  0  0  0  0  0  0  0  0
    7.3786    2.9575    0.0000 H   0  0  0  0  0  0  0  0  0  0  0  0
    5.6078    4.1877    0.0000 H   0  0  0  0  0  0  0  0  0  0  0  0
    4.8867    3.8481    0.0000 H   0  0  0  0  0  0  0  0  0  0  0  0
    5.6006   -0.3006    0.0000 H   0  0  0  0  0  0  0  0  0  0  0  0
    5.6671    0.4937    0.0000 H   0  0  0  0  0  0  0  0  0  0  0  0
    4.1500   -0.2483    0.0000 H   0  0  0  0  0  0  0  0  0  0  0  0
    4.0834   -1.0426    0.0000 H   0  0  0  0  0  0  0  0  0  0  0  0
    5.4560   -2.0266    0.0000 H   0  0  0  0  0  0  0  0  0  0  0  0
    5.5225   -1.2323    0.0000 H   0  0  0  0  0  0  0  0  0  0  0  0
    4.0054   -1.9743    0.0000 H   0  0  0  0  0  0  0  0  0  0  0  0
    3.9389   -2.7686    0.0000 H   0  0  0  0  0  0  0  0  0  0  0  0
    5.3115   -3.7526    0.0000 H   0  0  0  0  0  0  0  0  0  0  0  0
    5.3780   -2.9583    0.0000 H   0  0  0  0  0  0  0  0  0  0  0  0
    8.2773    3.6817    0.0000 H   0  0  0  0  0  0  0  0  0  0  0  0
    6.0690   -5.2514    0.0000 H   0  0  0  0  0  0  0  0  0  0  0  0
    1.4643   -5.2286    0.0000 H   0  0  0  0  0  0  0  0  0  0  0  0
    9.2015    5.0121    0.0000 H   0  0  0  0  0  0  0  0  0  0  0  0
    4.6660   -7.6814    0.0000 H   0  0  0  0  0  0  0  0  0  0  0  0
    2.9132   -7.7160    0.0000 H   0  0  0  0  0  0  0  0  0  0  0  0
    8.5114    6.4778    0.0000 H   0  0  0  0  0  0  0  0  0  0  0  0
    6.0690   -6.8714    0.0000 H   0  0  0  0  0  0  0  0  0  0  0  0
    1.4643   -6.8943    0.0000 H   0  0  0  0  0  0  0  0  0  0  0  0
    7.0916    7.5062    0.0000 H   0  0  0  0  0  0  0  0  0  0  0  0
    4.4824    6.2900    0.0000 H   0  0  0  0  0  0  0  0  0  0  0  0
    5.4328    7.6580    0.0000 H   0  0  0  0  0  0  0  0  0  0  0  0
  1 21  2  0  0  0  0
  2  6  1  0  0  0  0
  2  7  1  0  0  0  0
  2  8  1  0  0  0  0
  3  9  1  0  0  0  0
  3 10  1  0  0  0  0
  3 15  1  0  0  0  0
  4 16  1  0  0  0  0
  4 17  1  0  0  0  0
  4 21  1  0  0  0  0
  5 19  1  0  0  0  0
  5 34  2  0  0  0  0
  6  9  1  0  0  0  0
  6 36  1  0  0  0  0
  6 37  1  0  0  0  0
  7 10  1  0  0  0  0
  7 38  1  0  0  0  0
  7 39  1  0  0  0  0
  8 11  1  0  0  0  0
  8 40  1  0  0  0  0
  8 41  1  0  0  0  0
  9 42  1  0  0  0  0
  9 43  1  0  0  0  0
 10 44  1  0  0  0  0
 10 45  1  0  0  0  0
 11 12  1  0  0  0  0
 11 46  1  0  0  0  0
 11 47  1  0  0  0  0
 12 13  1  0  0  0  0
 12 48  1  0  0  0  0
 12 49  1  0  0  0  0
 13 14  1  0  0  0  0
 13 50  1  0  0  0  0
 13 51  1  0  0  0  0
 14 16  1  0  0  0  0
 14 52  1  0  0  0  0
 14 53  1  0  0  0  0
 15 19  1  0  0  0  0
 15 22  2  0  0  0  0
 16 54  1  0  0  0  0
 16 55  1  0  0  0  0
 17 18  1  0  0  0  0
 17 25  2  0  0  0  0
 18 20  1  0  0  0  0
 18 23  2  0  0  0  0
 19 24  2  0  0  0  0
 20 21  1  0  0  0  0
 20 26  2  0  0  0  0
 22 27  1  0  0  0  0
 22 56  1  0  0  0  0
 23 28  1  0  0  0  0
 23 30  1  0  0  0  0
 24 29  1  0  0  0  0
 24 33  1  0  0  0  0
 25 31  1  0  0  0  0
 25 57  1  0  0  0  0
 26 32  1  0  0  0  0
 26 58  1  0  0  0  0
 27 29  2  0  0  0  0
 27 59  1  0  0  0  0
 28 31  2  0  0  0  0
 28 60  1  0  0  0  0
 29 62  1  0  0  0  0
 30 32  2  0  0  0  0
 30 61  1  0  0  0  0
 31 63  1  0  0  0  0
 32 64  1  0  0  0  0
 33 35  2  0  0  0  0
 33 65  1  0  0  0  0
 34 35  1  0  0  0  0
 34 66  1  0  0  0  0
 35 67  1  0  0  0  0
M  END
> <PUBCHEM_COMPOUND_CID>
155526651

> <PUBCHEM_COMPOUND_CANONICALIZED>
1

> <PUBCHEM_CACTVS_COMPLEXITY>
707

> <PUBCHEM_CACTVS_HBOND_ACCEPTOR>
4

> <PUBCHEM_CACTVS_HBOND_DONOR>
0

> <PUBCHEM_CACTVS_ROTATABLE_BOND>
8

> <PUBCHEM_CACTVS_SUBSKEYS>
AAADcfB7oAAAAAAAAAAAAAAAAAAAAWAAAAA8eMECAAAAAFjx9AAAHgAAAAAADAjBngQ8wPMIEACoAzV3VACCgCA1EiAI2CE4dNgIYPLAlZGUIQhghgDIyYcciMCOgAACQAASACAAAASAACQAQAAAAAAAAA==

> <PUBCHEM_IUPAC_OPENEYE_NAME>
1-[6-[4-(8-quinolyl)piperazin-1-yl]hexyl]benzo[cd]indol-2-one

> <PUBCHEM_IUPAC_CAS_NAME>
1-[6-[4-(8-quinolinyl)-1-piperazinyl]hexyl]-2-benzo[cd]indolone

> <PUBCHEM_IUPAC_NAME_MARKUP>
1-[6-(4-quinolin-8-ylpiperazin-1-yl)hexyl]benzo[cd]indol-2-one

> <PUBCHEM_IUPAC_NAME>
1-[6-(4-quinolin-8-ylpiperazin-1-yl)hexyl]benzo[cd]indol-2-one

> <PUBCHEM_IUPAC_SYSTEMATIC_NAME>
1-[6-(4-quinolin-8-ylpiperazin-1-yl)hexyl]benzo[cd]indol-2-one

> <PUBCHEM_IUPAC_TRADITIONAL_NAME>
1-[6-[4-(8-quinolyl)piperazino]hexyl]benzo[cd]indol-2-one

> <PUBCHEM_IUPAC_INCHI>
InChI=1S/C30H32N4O/c35-30-25-13-5-9-23-10-6-14-26(28(23)25)34(30)18-4-2-1-3-17-32-19-21-33(22-20-32)27-15-7-11-24-12-8-16-31-29(24)27/h5-16H,1-4,17-22H2

> <PUBCHEM_IUPAC_INCHIKEY>
UANZODATMICVSM-UHFFFAOYSA-N

> <PUBCHEM_XLOGP3_AA>
5.6

> <PUBCHEM_EXACT_MASS>
464.25761166

> <PUBCHEM_MOLECULAR_FORMULA>
C30H32N4O

> <PUBCHEM_MOLECULAR_WEIGHT>
464.6

> <PUBCHEM_OPENEYE_CAN_SMILES>
C1CN(CCN1CCCCCCN2C3=CC=CC4=C3C(=CC=C4)C2=O)C5=CC=CC6=C5N=CC=C6

> <PUBCHEM_OPENEYE_ISO_SMILES>
C1CN(CCN1CCCCCCN2C3=CC=CC4=C3C(=CC=C4)C2=O)C5=CC=CC6=C5N=CC=C6

> <PUBCHEM_CACTVS_TPSA>
39.7

> <PUBCHEM_MONOISOTOPIC_WEIGHT>
464.25761166

> <PUBCHEM_TOTAL_CHARGE>
0

> <PUBCHEM_HEAVY_ATOM_COUNT>
35

> <PUBCHEM_ATOM_DEF_STEREO_COUNT>
0

> <PUBCHEM_ATOM_UDEF_STEREO_COUNT>
0

> <PUBCHEM_BOND_DEF_STEREO_COUNT>
0

> <PUBCHEM_BOND_UDEF_STEREO_COUNT>
0

> <PUBCHEM_ISOTOPIC_ATOM_COUNT>
0

> <PUBCHEM_COMPONENT_COUNT>
1

> <PUBCHEM_CACTVS_TAUTO_COUNT>
-1

> <PUBCHEM_COORDINATE_TYPE>
1
5
255

> <PUBCHEM_BONDANNOTATIONS>
15  19  8
15  22  8
17  18  8
17  25  8
18  20  8
18  23  8
19  24  8
20  26  8
22  27  8
23  28  8
23  30  8
24  29  8
24  33  8
25  31  8
26  32  8
27  29  8
28  31  8
30  32  8
33  35  8
34  35  8
5  19  8
5  34  8

$$$$
