155547197
  -OEChem-09292322422D

 49 51  0     1  0  0  0  0  0999 V2000
    5.1002    6.1245    0.0000 F   0  0  0  0  0  0  0  0  0  0  0  0
    2.3674    2.4459    0.0000 O   0  0  0  0  0  0  0  0  0  0  0  0
    3.6235   -0.9338    0.0000 N   0  0  3  0  0  0  0  0  0  0  0  0
    3.1235   -3.1245    0.0000 N   0  0  3  0  0  0  0  0  0  0  0  0
    3.9895   -4.6245    0.0000 N   0  0  0  0  0  0  0  0  0  0  0  0
    2.6235   -0.9338    0.0000 C   0  0  0  0  0  0  0  0  0  0  0  0
    4.2470   -1.7157    0.0000 C   0  0  0  0  0  0  0  0  0  0  0  0
    2.0000   -1.7157    0.0000 C   0  0  0  0  0  0  0  0  0  0  0  0
    4.0245   -2.6906    0.0000 C   0  0  0  0  0  0  0  0  0  0  0  0
    2.2225   -2.6906    0.0000 C   0  0  0  0  0  0  0  0  0  0  0  0
    4.0574   -0.0329    0.0000 C   0  0  0  0  0  0  0  0  0  0  0  0
    3.4940    0.7934    0.0000 C   0  0  0  0  0  0  0  0  0  0  0  0
    3.1235   -4.1245    0.0000 C   0  0  0  0  0  0  0  0  0  0  0  0
    3.9279    1.6944    0.0000 C   0  0  0  0  0  0  0  0  0  0  0  0
    2.2575   -4.6245    0.0000 C   0  0  0  0  0  0  0  0  0  0  0  0
    3.3646    2.5206    0.0000 C   0  0  0  0  0  0  0  0  0  0  0  0
    3.7985    3.4216    0.0000 C   0  0  0  0  0  0  0  0  0  0  0  0
    2.2575   -5.6245    0.0000 C   0  0  0  0  0  0  0  0  0  0  0  0
    3.9895   -5.6245    0.0000 C   0  0  0  0  0  0  0  0  0  0  0  0
    3.1235   -6.1245    0.0000 C   0  0  0  0  0  0  0  0  0  0  0  0
    4.7957    3.4963    0.0000 C   0  0  0  0  0  0  0  0  0  0  0  0
    3.2352    4.2478    0.0000 C   0  0  0  0  0  0  0  0  0  0  0  0
    5.2296    4.3973    0.0000 C   0  0  0  0  0  0  0  0  0  0  0  0
    3.6691    5.1488    0.0000 C   0  0  0  0  0  0  0  0  0  0  0  0
    4.6663    5.2235    0.0000 C   0  0  0  0  0  0  0  0  0  0  0  0
    2.7614   -0.3294    0.0000 H   0  0  0  0  0  0  0  0  0  0  0  0
    2.0649   -0.6648    0.0000 H   0  0  0  0  0  0  0  0  0  0  0  0
    4.8056   -1.9847    0.0000 H   0  0  0  0  0  0  0  0  0  0  0  0
    4.6335   -1.2309    0.0000 H   0  0  0  0  0  0  0  0  0  0  0  0
    1.6134   -1.2309    0.0000 H   0  0  0  0  0  0  0  0  0  0  0  0
    1.4414   -1.9847    0.0000 H   0  0  0  0  0  0  0  0  0  0  0  0
    4.1624   -3.2950    0.0000 H   0  0  0  0  0  0  0  0  0  0  0  0
    4.6445   -2.6906    0.0000 H   0  0  0  0  0  0  0  0  0  0  0  0
    1.6025   -2.6906    0.0000 H   0  0  0  0  0  0  0  0  0  0  0  0
    2.0846   -3.2950    0.0000 H   0  0  0  0  0  0  0  0  0  0  0  0
    4.5608   -0.3948    0.0000 H   0  0  0  0  0  0  0  0  0  0  0  0
    4.5012    0.4001    0.0000 H   0  0  0  0  0  0  0  0  0  0  0  0
    2.9906    1.1553    0.0000 H   0  0  0  0  0  0  0  0  0  0  0  0
    3.0502    0.3605    0.0000 H   0  0  0  0  0  0  0  0  0  0  0  0
    4.4313    1.3324    0.0000 H   0  0  0  0  0  0  0  0  0  0  0  0
    4.3718    2.1273    0.0000 H   0  0  0  0  0  0  0  0  0  0  0  0
    1.7205   -4.3145    0.0000 H   0  0  0  0  0  0  0  0  0  0  0  0
    1.7205   -5.9345    0.0000 H   0  0  0  0  0  0  0  0  0  0  0  0
    4.5264   -5.9345    0.0000 H   0  0  0  0  0  0  0  0  0  0  0  0
    3.1235   -6.7445    0.0000 H   0  0  0  0  0  0  0  0  0  0  0  0
    5.1450    2.9840    0.0000 H   0  0  0  0  0  0  0  0  0  0  0  0
    2.6169    4.2015    0.0000 H   0  0  0  0  0  0  0  0  0  0  0  0
    5.8479    4.4436    0.0000 H   0  0  0  0  0  0  0  0  0  0  0  0
    3.3198    5.6610    0.0000 H   0  0  0  0  0  0  0  0  0  0  0  0
  1 25  1  0  0  0  0
  2 16  2  0  0  0  0
  3  6  1  0  0  0  0
  3  7  1  0  0  0  0
  3 11  1  0  0  0  0
  4  9  1  0  0  0  0
  4 10  1  0  0  0  0
  4 13  1  0  0  0  0
  5 13  1  0  0  0  0
  5 19  2  0  0  0  0
  6  8  1  0  0  0  0
  6 26  1  0  0  0  0
  6 27  1  0  0  0  0
  7  9  1  0  0  0  0
  7 28  1  0  0  0  0
  7 29  1  0  0  0  0
  8 10  1  0  0  0  0
  8 30  1  0  0  0  0
  8 31  1  0  0  0  0
  9 32  1  0  0  0  0
  9 33  1  0  0  0  0
 10 34  1  0  0  0  0
 10 35  1  0  0  0  0
 11 12  1  0  0  0  0
 11 36  1  0  0  0  0
 11 37  1  0  0  0  0
 12 14  1  0  0  0  0
 12 38  1  0  0  0  0
 12 39  1  0  0  0  0
 13 15  2  0  0  0  0
 14 16  1  0  0  0  0
 14 40  1  0  0  0  0
 14 41  1  0  0  0  0
 15 18  1  0  0  0  0
 15 42  1  0  0  0  0
 16 17  1  0  0  0  0
 17 21  2  0  0  0  0
 17 22  1  0  0  0  0
 18 20  2  0  0  0  0
 18 43  1  0  0  0  0
 19 20  1  0  0  0  0
 19 44  1  0  0  0  0
 20 45  1  0  0  0  0
 21 23  1  0  0  0  0
 21 46  1  0  0  0  0
 22 24  2  0  0  0  0
 22 47  1  0  0  0  0
 23 25  2  0  0  0  0
 23 48  1  0  0  0  0
 24 25  1  0  0  0  0
 24 49  1  0  0  0  0
M  END
> <PUBCHEM_COMPOUND_CID>
155547197

> <PUBCHEM_COMPOUND_CANONICALIZED>
1

> <PUBCHEM_CACTVS_COMPLEXITY>
412

> <PUBCHEM_CACTVS_HBOND_ACCEPTOR>
5

> <PUBCHEM_CACTVS_HBOND_DONOR>
0

> <PUBCHEM_CACTVS_ROTATABLE_BOND>
6

> <PUBCHEM_CACTVS_SUBSKEYS>
AAADceB7IQAAAAAAAAAAAAAAAAAAAAAAAAA8QAAABYAAAAABwAAAHwAAAAAADATBmgw9sJMIEACoArJ3ZACCgCk1AiAJ2CE4ZNiIYPLA3ZGUIQhogALIyacciICOAAAAAAAAAAAAAAAAAAAAAAAAAAAAAA==

> <PUBCHEM_IUPAC_OPENEYE_NAME>
1-(4-fluorophenyl)-4-[4-(2-pyridyl)-1,4-diazepan-1-yl]butan-1-one

> <PUBCHEM_IUPAC_CAS_NAME>
1-(4-fluorophenyl)-4-[4-(2-pyridinyl)-1,4-diazepan-1-yl]-1-butanone

> <PUBCHEM_IUPAC_NAME_MARKUP>
1-(4-fluorophenyl)-4-(4-pyridin-2-yl-1,4-diazepan-1-yl)butan-1-one

> <PUBCHEM_IUPAC_NAME>
1-(4-fluorophenyl)-4-(4-pyridin-2-yl-1,4-diazepan-1-yl)butan-1-one

> <PUBCHEM_IUPAC_SYSTEMATIC_NAME>
1-(4-fluorophenyl)-4-(4-pyridin-2-yl-1,4-diazepan-1-yl)butan-1-one

> <PUBCHEM_IUPAC_TRADITIONAL_NAME>
1-(4-fluorophenyl)-4-[4-(2-pyridyl)-1,4-diazepan-1-yl]butan-1-one

> <PUBCHEM_IUPAC_INCHI>
InChI=1S/C20H24FN3O/c21-18-9-7-17(8-10-18)19(25)5-3-12-23-13-4-14-24(16-15-23)20-6-1-2-11-22-20/h1-2,6-11H,3-5,12-16H2

> <PUBCHEM_IUPAC_INCHIKEY>
YZWJNFUQGOYUQT-UHFFFAOYSA-N

> <PUBCHEM_XLOGP3>
3.7

> <PUBCHEM_EXACT_MASS>
341.19034056

> <PUBCHEM_MOLECULAR_FORMULA>
C20H24FN3O

> <PUBCHEM_MOLECULAR_WEIGHT>
341.4

> <PUBCHEM_OPENEYE_CAN_SMILES>
C1CN(CCN(C1)C2=CC=CC=N2)CCCC(=O)C3=CC=C(C=C3)F

> <PUBCHEM_OPENEYE_ISO_SMILES>
C1CN(CCN(C1)C2=CC=CC=N2)CCCC(=O)C3=CC=C(C=C3)F

> <PUBCHEM_CACTVS_TPSA>
36.4

> <PUBCHEM_MONOISOTOPIC_WEIGHT>
341.19034056

> <PUBCHEM_TOTAL_CHARGE>
0

> <PUBCHEM_HEAVY_ATOM_COUNT>
25

> <PUBCHEM_ATOM_DEF_STEREO_COUNT>
0

> <PUBCHEM_ATOM_UDEF_STEREO_COUNT>
0

> <PUBCHEM_BOND_DEF_STEREO_COUNT>
0

> <PUBCHEM_BOND_UDEF_STEREO_COUNT>
0

> <PUBCHEM_ISOTOPIC_ATOM_COUNT>
0

> <PUBCHEM_COMPONENT_COUNT>
1

> <PUBCHEM_CACTVS_TAUTO_COUNT>
-1

> <PUBCHEM_COORDINATE_TYPE>
1
5
255

> <PUBCHEM_BONDANNOTATIONS>
13  15  8
15  18  8
17  21  8
17  22  8
18  20  8
19  20  8
21  23  8
22  24  8
23  25  8
24  25  8
5  13  8
5  19  8

$$$$
