10715225
  -OEChem-09292322522D

 54 56  0     0  0  0  0  0  0999 V2000
    2.8660   -6.0000    0.0000 Cl  0  0  0  0  0  0  0  0  0  0  0  0
    3.7320    4.5000    0.0000 O   0  0  0  0  0  0  0  0  0  0  0  0
    8.0622    4.0000    0.0000 O   0  0  0  0  0  0  0  0  0  0  0  0
    2.8660   -0.0000    0.0000 N   0  0  0  0  0  0  0  0  0  0  0  0
    2.8660   -2.0000    0.0000 N   0  0  0  0  0  0  0  0  0  0  0  0
    3.7320   -0.5000    0.0000 C   0  0  0  0  0  0  0  0  0  0  0  0
    2.0000   -0.5000    0.0000 C   0  0  0  0  0  0  0  0  0  0  0  0
    3.7320   -1.5000    0.0000 C   0  0  0  0  0  0  0  0  0  0  0  0
    2.0000   -1.5000    0.0000 C   0  0  0  0  0  0  0  0  0  0  0  0
    2.8660    1.0000    0.0000 C   0  0  0  0  0  0  0  0  0  0  0  0
    3.7320    1.5000    0.0000 C   0  0  0  0  0  0  0  0  0  0  0  0
    3.7320    2.5000    0.0000 C   0  0  0  0  0  0  0  0  0  0  0  0
    2.8660   -3.0000    0.0000 C   0  0  0  0  0  0  0  0  0  0  0  0
    4.5981    3.0000    0.0000 C   0  0  0  0  0  0  0  0  0  0  0  0
    2.0000   -3.5000    0.0000 C   0  0  0  0  0  0  0  0  0  0  0  0
    3.7320   -3.5000    0.0000 C   0  0  0  0  0  0  0  0  0  0  0  0
    4.5981    4.0000    0.0000 C   0  0  0  0  0  0  0  0  0  0  0  0
    2.0000   -4.5000    0.0000 C   0  0  0  0  0  0  0  0  0  0  0  0
    3.7320   -4.5000    0.0000 C   0  0  0  0  0  0  0  0  0  0  0  0
    2.8660   -5.0000    0.0000 C   0  0  0  0  0  0  0  0  0  0  0  0
    5.4641    4.5000    0.0000 C   0  0  0  0  0  0  0  0  0  0  0  0
    6.3301    4.0000    0.0000 C   0  0  0  0  0  0  0  0  0  0  0  0
    5.4641    5.5000    0.0000 C   0  0  0  0  0  0  0  0  0  0  0  0
    7.1962    4.5000    0.0000 C   0  0  0  0  0  0  0  0  0  0  0  0
    6.3301    6.0000    0.0000 C   0  0  0  0  0  0  0  0  0  0  0  0
    7.1962    5.5000    0.0000 C   0  0  0  0  0  0  0  0  0  0  0  0
    8.9282    4.5000    0.0000 C   0  0  0  0  0  0  0  0  0  0  0  0
    4.3426   -0.6077    0.0000 H   0  0  0  0  0  0  0  0  0  0  0  0
    3.9441    0.0826    0.0000 H   0  0  0  0  0  0  0  0  0  0  0  0
    1.7880    0.0826    0.0000 H   0  0  0  0  0  0  0  0  0  0  0  0
    1.3894   -0.6077    0.0000 H   0  0  0  0  0  0  0  0  0  0  0  0
    3.9441   -2.0826    0.0000 H   0  0  0  0  0  0  0  0  0  0  0  0
    4.3426   -1.3923    0.0000 H   0  0  0  0  0  0  0  0  0  0  0  0
    1.3894   -1.3923    0.0000 H   0  0  0  0  0  0  0  0  0  0  0  0
    1.7880   -2.0826    0.0000 H   0  0  0  0  0  0  0  0  0  0  0  0
    2.6540    1.5826    0.0000 H   0  0  0  0  0  0  0  0  0  0  0  0
    2.2554    0.8923    0.0000 H   0  0  0  0  0  0  0  0  0  0  0  0
    3.9441    0.9174    0.0000 H   0  0  0  0  0  0  0  0  0  0  0  0
    4.3426    1.6077    0.0000 H   0  0  0  0  0  0  0  0  0  0  0  0
    3.5200    3.0826    0.0000 H   0  0  0  0  0  0  0  0  0  0  0  0
    3.1215    2.3923    0.0000 H   0  0  0  0  0  0  0  0  0  0  0  0
    4.8101    2.4174    0.0000 H   0  0  0  0  0  0  0  0  0  0  0  0
    5.2087    3.1077    0.0000 H   0  0  0  0  0  0  0  0  0  0  0  0
    1.4631   -3.1900    0.0000 H   0  0  0  0  0  0  0  0  0  0  0  0
    4.2690   -3.1900    0.0000 H   0  0  0  0  0  0  0  0  0  0  0  0
    1.4631   -4.8100    0.0000 H   0  0  0  0  0  0  0  0  0  0  0  0
    4.2690   -4.8100    0.0000 H   0  0  0  0  0  0  0  0  0  0  0  0
    6.3301    3.3800    0.0000 H   0  0  0  0  0  0  0  0  0  0  0  0
    4.9272    5.8100    0.0000 H   0  0  0  0  0  0  0  0  0  0  0  0
    6.3301    6.6200    0.0000 H   0  0  0  0  0  0  0  0  0  0  0  0
    7.7331    5.8100    0.0000 H   0  0  0  0  0  0  0  0  0  0  0  0
    9.2382    3.9631    0.0000 H   0  0  0  0  0  0  0  0  0  0  0  0
    9.4651    4.8100    0.0000 H   0  0  0  0  0  0  0  0  0  0  0  0
    8.6182    5.0369    0.0000 H   0  0  0  0  0  0  0  0  0  0  0  0
  1 20  1  0  0  0  0
  2 17  2  0  0  0  0
  3 24  1  0  0  0  0
  3 27  1  0  0  0  0
  4  6  1  0  0  0  0
  4  7  1  0  0  0  0
  4 10  1  0  0  0  0
  5  8  1  0  0  0  0
  5  9  1  0  0  0  0
  5 13  1  0  0  0  0
  6  8  1  0  0  0  0
  6 28  1  0  0  0  0
  6 29  1  0  0  0  0
  7  9  1  0  0  0  0
  7 30  1  0  0  0  0
  7 31  1  0  0  0  0
  8 32  1  0  0  0  0
  8 33  1  0  0  0  0
  9 34  1  0  0  0  0
  9 35  1  0  0  0  0
 10 11  1  0  0  0  0
 10 36  1  0  0  0  0
 10 37  1  0  0  0  0
 11 12  1  0  0  0  0
 11 38  1  0  0  0  0
 11 39  1  0  0  0  0
 12 14  1  0  0  0  0
 12 40  1  0  0  0  0
 12 41  1  0  0  0  0
 13 15  2  0  0  0  0
 13 16  1  0  0  0  0
 14 17  1  0  0  0  0
 14 42  1  0  0  0  0
 14 43  1  0  0  0  0
 15 18  1  0  0  0  0
 15 44  1  0  0  0  0
 16 19  2  0  0  0  0
 16 45  1  0  0  0  0
 17 21  1  0  0  0  0
 18 20  2  0  0  0  0
 18 46  1  0  0  0  0
 19 20  1  0  0  0  0
 19 47  1  0  0  0  0
 21 22  2  0  0  0  0
 21 23  1  0  0  0  0
 22 24  1  0  0  0  0
 22 48  1  0  0  0  0
 23 25  2  0  0  0  0
 23 49  1  0  0  0  0
 24 26  2  0  0  0  0
 25 26  1  0  0  0  0
 25 50  1  0  0  0  0
 26 51  1  0  0  0  0
 27 52  1  0  0  0  0
 27 53  1  0  0  0  0
 27 54  1  0  0  0  0
M  END
> <PUBCHEM_COMPOUND_CID>
10715225

> <PUBCHEM_COMPOUND_CANONICALIZED>
1

> <PUBCHEM_CACTVS_COMPLEXITY>
446

> <PUBCHEM_CACTVS_HBOND_ACCEPTOR>
4

> <PUBCHEM_CACTVS_HBOND_DONOR>
0

> <PUBCHEM_CACTVS_ROTATABLE_BOND>
8

> <PUBCHEM_CACTVS_SUBSKEYS>
AAADceB7MAAEAAAAAAAAAAAAAAAAAAAAAAA8YIAAAAAAAAABQAAAHgIAAAAADA7BmCYyxoMABACIAqRSQACCCAAlJwAIiAEObsgMZjLFt5uUMShkwBHI6YeayfCOAABBAAAAAAAAAIIAAAAAAAAAAAAAAA==

> <PUBCHEM_IUPAC_OPENEYE_NAME>
5-[4-(4-chlorophenyl)piperazin-1-yl]-1-(3-methoxyphenyl)pentan-1-one

> <PUBCHEM_IUPAC_CAS_NAME>
5-[4-(4-chlorophenyl)-1-piperazinyl]-1-(3-methoxyphenyl)-1-pentanone

> <PUBCHEM_IUPAC_NAME_MARKUP>
5-[4-(4-chlorophenyl)piperazin-1-yl]-1-(3-methoxyphenyl)pentan-1-one

> <PUBCHEM_IUPAC_NAME>
5-[4-(4-chlorophenyl)piperazin-1-yl]-1-(3-methoxyphenyl)pentan-1-one

> <PUBCHEM_IUPAC_SYSTEMATIC_NAME>
5-[4-(4-chlorophenyl)piperazin-1-yl]-1-(3-methoxyphenyl)pentan-1-one

> <PUBCHEM_IUPAC_TRADITIONAL_NAME>
5-[4-(4-chlorophenyl)piperazino]-1-(3-methoxyphenyl)pentan-1-one

> <PUBCHEM_IUPAC_INCHI>
InChI=1S/C22H27ClN2O2/c1-27-21-6-4-5-18(17-21)22(26)7-2-3-12-24-13-15-25(16-14-24)20-10-8-19(23)9-11-20/h4-6,8-11,17H,2-3,7,12-16H2,1H3

> <PUBCHEM_IUPAC_INCHIKEY>
IIDSZIJSGYZPAQ-UHFFFAOYSA-N

> <PUBCHEM_XLOGP3_AA>
4.5

> <PUBCHEM_EXACT_MASS>
386.1761058

> <PUBCHEM_MOLECULAR_FORMULA>
C22H27ClN2O2

> <PUBCHEM_MOLECULAR_WEIGHT>
386.9

> <PUBCHEM_OPENEYE_CAN_SMILES>
COC1=CC=CC(=C1)C(=O)CCCCN2CCN(CC2)C3=CC=C(C=C3)Cl

> <PUBCHEM_OPENEYE_ISO_SMILES>
COC1=CC=CC(=C1)C(=O)CCCCN2CCN(CC2)C3=CC=C(C=C3)Cl

> <PUBCHEM_CACTVS_TPSA>
32.8

> <PUBCHEM_MONOISOTOPIC_WEIGHT>
386.1761058

> <PUBCHEM_TOTAL_CHARGE>
0

> <PUBCHEM_HEAVY_ATOM_COUNT>
27

> <PUBCHEM_ATOM_DEF_STEREO_COUNT>
0

> <PUBCHEM_ATOM_UDEF_STEREO_COUNT>
0

> <PUBCHEM_BOND_DEF_STEREO_COUNT>
0

> <PUBCHEM_BOND_UDEF_STEREO_COUNT>
0

> <PUBCHEM_ISOTOPIC_ATOM_COUNT>
0

> <PUBCHEM_COMPONENT_COUNT>
1

> <PUBCHEM_CACTVS_TAUTO_COUNT>
-1

> <PUBCHEM_COORDINATE_TYPE>
1
5
255

> <PUBCHEM_BONDANNOTATIONS>
13  15  8
13  16  8
15  18  8
16  19  8
18  20  8
19  20  8
21  22  8
21  23  8
22  24  8
23  25  8
24  26  8
25  26  8

$$$$
