11584694
  -OEChem-09292322252D

 69 73  0     1  0  0  0  0  0999 V2000
    8.5839   -0.3786    0.0000 S   0  0  0  0  0  0  0  0  0  0  0  0
    2.0000   -3.8175    0.0000 F   0  0  0  0  0  0  0  0  0  0  0  0
    2.2212   -2.4207    0.0000 F   0  0  0  0  0  0  0  0  0  0  0  0
    3.3968   -4.0388    0.0000 F   0  0  0  0  0  0  0  0  0  0  0  0
   11.5839    1.3534    0.0000 N   0  0  3  0  0  0  0  0  0  0  0  0
   16.5394    3.3725    0.0000 N   0  0  0  0  0  0  0  0  0  0  0  0
   17.5167    3.5842    0.0000 N   0  0  0  0  0  0  0  0  0  0  0  0
    6.9961   -1.1876    0.0000 N   0  0  0  0  0  0  0  0  0  0  0  0
    6.9961    0.4304    0.0000 N   0  0  0  0  0  0  0  0  0  0  0  0
    6.0451    0.1214    0.0000 N   0  0  0  0  0  0  0  0  0  0  0  0
   12.0178    2.2544    0.0000 C   0  0  0  0  0  0  0  0  0  0  0  0
   12.0178    0.4525    0.0000 C   0  0  0  0  0  0  0  0  0  0  0  0
   12.9927    2.4769    0.0000 C   0  0  0  0  0  0  0  0  0  0  0  0
   12.9927    0.2300    0.0000 C   0  0  0  0  0  0  0  0  0  0  0  0
   13.7746    1.8534    0.0000 C   0  0  0  0  0  0  0  0  0  0  0  0
   13.7746    0.8534    0.0000 C   0  0  0  0  0  0  0  0  0  0  0  0
   10.5839    1.3534    0.0000 C   0  0  0  0  0  0  0  0  0  0  0  0
   10.0839    0.4874    0.0000 C   0  0  0  0  0  0  0  0  0  0  0  0
   14.6685    2.3881    0.0000 C   0  0  0  0  0  0  0  0  0  0  0  0
   14.6685    0.3188    0.0000 C   0  0  0  0  0  0  0  0  0  0  0  0
   15.5746    1.8743    0.0000 C   0  0  0  0  0  0  0  0  0  0  0  0
   15.5746    0.8326    0.0000 C   0  0  0  0  0  0  0  0  0  0  0  0
    9.0839    0.4874    0.0000 C   0  0  0  0  0  0  0  0  0  0  0  0
   16.4387    2.3776    0.0000 C   0  0  0  0  0  0  0  0  0  0  0  0
   17.3538    1.9744    0.0000 C   0  0  0  0  0  0  0  0  0  0  0  0
   18.0200    2.7201    0.0000 C   0  0  0  0  0  0  0  0  0  0  0  0
    7.5839   -0.3786    0.0000 C   0  0  0  0  0  0  0  0  0  0  0  0
   15.7936    4.0388    0.0000 C   0  0  0  0  0  0  0  0  0  0  0  0
   19.0150    2.6194    0.0000 C   0  0  0  0  0  0  0  0  0  0  0  0
    6.0451   -0.8786    0.0000 C   0  0  0  0  0  0  0  0  0  0  0  0
    5.2361   -1.4664    0.0000 C   0  0  0  0  0  0  0  0  0  0  0  0
    7.3052   -2.1387    0.0000 C   0  0  0  0  0  0  0  0  0  0  0  0
    5.3406   -2.4609    0.0000 C   0  0  0  0  0  0  0  0  0  0  0  0
    4.3225   -1.0597    0.0000 C   0  0  0  0  0  0  0  0  0  0  0  0
    3.6180   -2.6420    0.0000 C   0  0  0  0  0  0  0  0  0  0  0  0
    4.5316   -3.0487    0.0000 C   0  0  0  0  0  0  0  0  0  0  0  0
    3.5135   -1.6474    0.0000 C   0  0  0  0  0  0  0  0  0  0  0  0
    2.8090   -3.2298    0.0000 C   0  0  0  0  0  0  0  0  0  0  0  0
   12.0178    2.8744    0.0000 H   0  0  0  0  0  0  0  0  0  0  0  0
   11.4134    2.3924    0.0000 H   0  0  0  0  0  0  0  0  0  0  0  0
   11.4134    0.3145    0.0000 H   0  0  0  0  0  0  0  0  0  0  0  0
   12.0178   -0.1675    0.0000 H   0  0  0  0  0  0  0  0  0  0  0  0
   13.4775    2.8635    0.0000 H   0  0  0  0  0  0  0  0  0  0  0  0
   12.7237    3.0355    0.0000 H   0  0  0  0  0  0  0  0  0  0  0  0
   12.7237   -0.3286    0.0000 H   0  0  0  0  0  0  0  0  0  0  0  0
   13.4775   -0.1566    0.0000 H   0  0  0  0  0  0  0  0  0  0  0  0
   10.6916    1.9640    0.0000 H   0  0  0  0  0  0  0  0  0  0  0  0
   10.0013    1.5655    0.0000 H   0  0  0  0  0  0  0  0  0  0  0  0
    9.9763   -0.1232    0.0000 H   0  0  0  0  0  0  0  0  0  0  0  0
   10.6665    0.2754    0.0000 H   0  0  0  0  0  0  0  0  0  0  0  0
   14.6613    3.0081    0.0000 H   0  0  0  0  0  0  0  0  0  0  0  0
   14.6613   -0.3012    0.0000 H   0  0  0  0  0  0  0  0  0  0  0  0
   16.1103    0.5206    0.0000 H   0  0  0  0  0  0  0  0  0  0  0  0
    9.1916    1.0980    0.0000 H   0  0  0  0  0  0  0  0  0  0  0  0
    8.5013    0.6995    0.0000 H   0  0  0  0  0  0  0  0  0  0  0  0
   17.4850    1.3684    0.0000 H   0  0  0  0  0  0  0  0  0  0  0  0
   16.2067    4.5011    0.0000 H   0  0  0  0  0  0  0  0  0  0  0  0
   15.3313    4.4518    0.0000 H   0  0  0  0  0  0  0  0  0  0  0  0
   15.3806    3.5764    0.0000 H   0  0  0  0  0  0  0  0  0  0  0  0
   18.9525    2.0026    0.0000 H   0  0  0  0  0  0  0  0  0  0  0  0
   19.6318    2.5570    0.0000 H   0  0  0  0  0  0  0  0  0  0  0  0
   19.0774    3.2362    0.0000 H   0  0  0  0  0  0  0  0  0  0  0  0
    6.7155   -2.3303    0.0000 H   0  0  0  0  0  0  0  0  0  0  0  0
    7.4968   -2.7283    0.0000 H   0  0  0  0  0  0  0  0  0  0  0  0
    7.8948   -1.9471    0.0000 H   0  0  0  0  0  0  0  0  0  0  0  0
    5.9070   -2.7131    0.0000 H   0  0  0  0  0  0  0  0  0  0  0  0
    4.2577   -0.4431    0.0000 H   0  0  0  0  0  0  0  0  0  0  0  0
    4.5964   -3.6653    0.0000 H   0  0  0  0  0  0  0  0  0  0  0  0
    2.9471   -1.3953    0.0000 H   0  0  0  0  0  0  0  0  0  0  0  0
  1 23  1  0  0  0  0
  1 27  1  0  0  0  0
  2 38  1  0  0  0  0
  3 38  1  0  0  0  0
  4 38  1  0  0  0  0
  5 11  1  0  0  0  0
  5 12  1  0  0  0  0
  5 17  1  0  0  0  0
  6  7  1  0  0  0  0
  6 24  1  0  0  0  0
  6 28  1  0  0  0  0
  7 26  2  0  0  0  0
  8 27  1  0  0  0  0
  8 30  1  0  0  0  0
  8 32  1  0  0  0  0
  9 10  1  0  0  0  0
  9 27  2  0  0  0  0
 10 30  2  0  0  0  0
 11 13  1  0  0  0  0
 11 39  1  0  0  0  0
 11 40  1  0  0  0  0
 12 14  1  0  0  0  0
 12 41  1  0  0  0  0
 12 42  1  0  0  0  0
 13 15  1  0  0  0  0
 13 43  1  0  0  0  0
 13 44  1  0  0  0  0
 14 16  1  0  0  0  0
 14 45  1  0  0  0  0
 14 46  1  0  0  0  0
 15 16  2  0  0  0  0
 15 19  1  0  0  0  0
 16 20  1  0  0  0  0
 17 18  1  0  0  0  0
 17 47  1  0  0  0  0
 17 48  1  0  0  0  0
 18 23  1  0  0  0  0
 18 49  1  0  0  0  0
 18 50  1  0  0  0  0
 19 21  2  0  0  0  0
 19 51  1  0  0  0  0
 20 22  2  0  0  0  0
 20 52  1  0  0  0  0
 21 22  1  0  0  0  0
 21 24  1  0  0  0  0
 22 53  1  0  0  0  0
 23 54  1  0  0  0  0
 23 55  1  0  0  0  0
 24 25  2  0  0  0  0
 25 26  1  0  0  0  0
 25 56  1  0  0  0  0
 26 29  1  0  0  0  0
 28 57  1  0  0  0  0
 28 58  1  0  0  0  0
 28 59  1  0  0  0  0
 29 60  1  0  0  0  0
 29 61  1  0  0  0  0
 29 62  1  0  0  0  0
 30 31  1  0  0  0  0
 31 33  2  0  0  0  0
 31 34  1  0  0  0  0
 32 63  1  0  0  0  0
 32 64  1  0  0  0  0
 32 65  1  0  0  0  0
 33 36  1  0  0  0  0
 33 66  1  0  0  0  0
 34 37  2  0  0  0  0
 34 67  1  0  0  0  0
 35 36  2  0  0  0  0
 35 37  1  0  0  0  0
 35 38  1  0  0  0  0
 36 68  1  0  0  0  0
 37 69  1  0  0  0  0
M  END
> <PUBCHEM_COMPOUND_CID>
11584694

> <PUBCHEM_COMPOUND_CANONICALIZED>
1

> <PUBCHEM_CACTVS_COMPLEXITY>
751

> <PUBCHEM_CACTVS_HBOND_ACCEPTOR>
8

> <PUBCHEM_CACTVS_HBOND_DONOR>
0

> <PUBCHEM_CACTVS_ROTATABLE_BOND>
7

> <PUBCHEM_CACTVS_SUBSKEYS>
AAADceB7gYBAAAAAAAAAAAAAAAAAAWLAAAAwYAAABYAAAAAB9AAAHQQIAAAADAjFXxSzkJcMEAiiAyZiZACS1AthgrAd2CA4ZJiIKKLg2dGEpAhgiALIyAcQgMAOwAACAAAQAACAAAQAACAAAAAAAAAAAA==

> <PUBCHEM_IUPAC_OPENEYE_NAME>
7-(2,5-dimethylpyrazol-3-yl)-3-[3-[[4-methyl-5-[4-(trifluoromethyl)phenyl]-1,2,4-triazol-3-yl]sulfanyl]propyl]-1,2,4,5-tetrahydro-3-benzazepine

> <PUBCHEM_IUPAC_CAS_NAME>
7-(2,5-dimethyl-3-pyrazolyl)-3-[3-[[4-methyl-5-[4-(trifluoromethyl)phenyl]-1,2,4-triazol-3-yl]thio]propyl]-1,2,4,5-tetrahydro-3-benzazepine

> <PUBCHEM_IUPAC_NAME_MARKUP>
7-(2,5-dimethylpyrazol-3-yl)-3-[3-[[4-methyl-5-[4-(trifluoromethyl)phenyl]-1,2,4-triazol-3-yl]sulfanyl]propyl]-1,2,4,5-tetrahydro-3-benzazepine

> <PUBCHEM_IUPAC_NAME>
7-(2,5-dimethylpyrazol-3-yl)-3-[3-[[4-methyl-5-[4-(trifluoromethyl)phenyl]-1,2,4-triazol-3-yl]sulfanyl]propyl]-1,2,4,5-tetrahydro-3-benzazepine

> <PUBCHEM_IUPAC_SYSTEMATIC_NAME>
7-(2,5-dimethylpyrazol-3-yl)-3-[3-[[4-methyl-5-[4-(trifluoromethyl)phenyl]-1,2,4-triazol-3-yl]sulfanyl]propyl]-1,2,4,5-tetrahydro-3-benzazepine

> <PUBCHEM_IUPAC_TRADITIONAL_NAME>
7-(2,5-dimethylpyrazol-3-yl)-3-[3-[[4-methyl-5-[4-(trifluoromethyl)phenyl]-1,2,4-triazol-3-yl]thio]propyl]-1,2,4,5-tetrahydro-3-benzazepine

> <PUBCHEM_IUPAC_INCHI>
InChI=1S/C28H31F3N6S/c1-19-17-25(36(3)34-19)23-6-5-20-11-14-37(15-12-22(20)18-23)13-4-16-38-27-33-32-26(35(27)2)21-7-9-24(10-8-21)28(29,30)31/h5-10,17-18H,4,11-16H2,1-3H3

> <PUBCHEM_IUPAC_INCHIKEY>
SGLJPXQOJMBPBR-UHFFFAOYSA-N

> <PUBCHEM_XLOGP3_AA>
5.6

> <PUBCHEM_EXACT_MASS>
540.22830067

> <PUBCHEM_MOLECULAR_FORMULA>
C28H31F3N6S

> <PUBCHEM_MOLECULAR_WEIGHT>
540.6

> <PUBCHEM_OPENEYE_CAN_SMILES>
CC1=NN(C(=C1)C2=CC3=C(CCN(CC3)CCCSC4=NN=C(N4C)C5=CC=C(C=C5)C(F)(F)F)C=C2)C

> <PUBCHEM_OPENEYE_ISO_SMILES>
CC1=NN(C(=C1)C2=CC3=C(CCN(CC3)CCCSC4=NN=C(N4C)C5=CC=C(C=C5)C(F)(F)F)C=C2)C

> <PUBCHEM_CACTVS_TPSA>
77.1

> <PUBCHEM_MONOISOTOPIC_WEIGHT>
540.22830067

> <PUBCHEM_TOTAL_CHARGE>
0

> <PUBCHEM_HEAVY_ATOM_COUNT>
38

> <PUBCHEM_ATOM_DEF_STEREO_COUNT>
0

> <PUBCHEM_ATOM_UDEF_STEREO_COUNT>
0

> <PUBCHEM_BOND_DEF_STEREO_COUNT>
0

> <PUBCHEM_BOND_UDEF_STEREO_COUNT>
0

> <PUBCHEM_ISOTOPIC_ATOM_COUNT>
0

> <PUBCHEM_COMPONENT_COUNT>
1

> <PUBCHEM_CACTVS_TAUTO_COUNT>
-1

> <PUBCHEM_COORDINATE_TYPE>
1
5
255

> <PUBCHEM_BONDANNOTATIONS>
10  30  8
15  16  8
15  19  8
16  20  8
19  21  8
20  22  8
21  22  8
24  25  8
25  26  8
31  33  8
31  34  8
33  36  8
34  37  8
35  36  8
35  37  8
6  24  8
6  7  8
7  26  8
8  27  8
8  30  8
9  10  8
9  27  8

$$$$
