53248298
  -OEChem-09292322312D

 58 61  0     1  0  0  0  0  0999 V2000
    3.7320    0.4827    0.0000 Cl  0  0  0  0  0  0  0  0  0  0  0  0
    2.0000   -0.5173    0.0000 Cl  0  0  0  0  0  0  0  0  0  0  0  0
    8.9282   -0.5173    0.0000 F   0  0  0  0  0  0  0  0  0  0  0  0
   12.3923   -0.5173    0.0000 O   0  0  0  0  0  0  0  0  0  0  0  0
    7.1962    0.4827    0.0000 N   0  0  0  0  0  0  0  0  0  0  0  0
    5.4641   -0.5173    0.0000 N   0  0  0  0  0  0  0  0  0  0  0  0
   11.5263    0.9827    0.0000 N   0  0  0  0  0  0  0  0  0  0  0  0
    7.1962   -0.5173    0.0000 C   0  0  0  0  0  0  0  0  0  0  0  0
    6.3301    0.9827    0.0000 C   0  0  0  0  0  0  0  0  0  0  0  0
    6.3301   -1.0173    0.0000 C   0  0  0  0  0  0  0  0  0  0  0  0
    5.4641    0.4827    0.0000 C   0  0  0  0  0  0  0  0  0  0  0  0
    8.0622    0.9827    0.0000 C   0  0  0  0  0  0  0  0  0  0  0  0
    8.9282    0.4827    0.0000 C   0  0  3  0  0  0  0  0  0  0  0  0
    9.7942    0.9827    0.0000 C   0  0  0  0  0  0  0  0  0  0  0  0
    4.5981   -1.0173    0.0000 C   0  0  0  0  0  0  0  0  0  0  0  0
   10.6603    0.4827    0.0000 C   0  0  0  0  0  0  0  0  0  0  0  0
    3.7320   -0.5173    0.0000 C   0  0  0  0  0  0  0  0  0  0  0  0
    4.5981   -2.0173    0.0000 C   0  0  0  0  0  0  0  0  0  0  0  0
    2.8660   -1.0173    0.0000 C   0  0  0  0  0  0  0  0  0  0  0  0
    3.7320   -2.5173    0.0000 C   0  0  0  0  0  0  0  0  0  0  0  0
    2.8660   -2.0173    0.0000 C   0  0  0  0  0  0  0  0  0  0  0  0
   12.3923    0.4827    0.0000 C   0  0  0  0  0  0  0  0  0  0  0  0
   13.2583    0.9827    0.0000 C   0  0  0  0  0  0  0  0  0  0  0  0
   14.1244    0.4827    0.0000 C   0  0  0  0  0  0  0  0  0  0  0  0
   14.9904    0.9827    0.0000 C   0  0  0  0  0  0  0  0  0  0  0  0
   13.2583    1.9827    0.0000 C   0  0  0  0  0  0  0  0  0  0  0  0
   14.9904    1.9827    0.0000 C   0  0  0  0  0  0  0  0  0  0  0  0
   14.1244    2.4827    0.0000 C   0  0  0  0  0  0  0  0  0  0  0  0
   15.8843    0.4480    0.0000 C   0  0  0  0  0  0  0  0  0  0  0  0
   15.8843    2.5173    0.0000 C   0  0  0  0  0  0  0  0  0  0  0  0
   16.7904    0.9619    0.0000 C   0  0  0  0  0  0  0  0  0  0  0  0
   16.7904    2.0035    0.0000 C   0  0  0  0  0  0  0  0  0  0  0  0
    7.4082   -1.0999    0.0000 H   0  0  0  0  0  0  0  0  0  0  0  0
    7.8067   -0.4097    0.0000 H   0  0  0  0  0  0  0  0  0  0  0  0
    6.7287    1.4576    0.0000 H   0  0  0  0  0  0  0  0  0  0  0  0
    5.9316    1.4576    0.0000 H   0  0  0  0  0  0  0  0  0  0  0  0
    5.9316   -1.4923    0.0000 H   0  0  0  0  0  0  0  0  0  0  0  0
    6.7287   -1.4923    0.0000 H   0  0  0  0  0  0  0  0  0  0  0  0
    5.2520    1.0653    0.0000 H   0  0  0  0  0  0  0  0  0  0  0  0
    4.8535    0.3750    0.0000 H   0  0  0  0  0  0  0  0  0  0  0  0
    8.4607    1.4576    0.0000 H   0  0  0  0  0  0  0  0  0  0  0  0
    7.6636    1.4576    0.0000 H   0  0  0  0  0  0  0  0  0  0  0  0
    9.4651    0.1727    0.0000 H   0  0  0  0  0  0  0  0  0  0  0  0
   10.1928    1.4576    0.0000 H   0  0  0  0  0  0  0  0  0  0  0  0
    9.3957    1.4576    0.0000 H   0  0  0  0  0  0  0  0  0  0  0  0
   10.2617    0.0077    0.0000 H   0  0  0  0  0  0  0  0  0  0  0  0
   11.0588    0.0077    0.0000 H   0  0  0  0  0  0  0  0  0  0  0  0
    5.1350   -2.3273    0.0000 H   0  0  0  0  0  0  0  0  0  0  0  0
   11.5263    1.6027    0.0000 H   0  0  0  0  0  0  0  0  0  0  0  0
    3.7320   -3.1373    0.0000 H   0  0  0  0  0  0  0  0  0  0  0  0
    2.3291   -2.3273    0.0000 H   0  0  0  0  0  0  0  0  0  0  0  0
   14.1244   -0.1373    0.0000 H   0  0  0  0  0  0  0  0  0  0  0  0
   12.7214    2.2927    0.0000 H   0  0  0  0  0  0  0  0  0  0  0  0
   14.1244    3.1027    0.0000 H   0  0  0  0  0  0  0  0  0  0  0  0
   15.8772   -0.1720    0.0000 H   0  0  0  0  0  0  0  0  0  0  0  0
   15.8772    3.1373    0.0000 H   0  0  0  0  0  0  0  0  0  0  0  0
   17.3261    0.6498    0.0000 H   0  0  0  0  0  0  0  0  0  0  0  0
   17.3261    2.3156    0.0000 H   0  0  0  0  0  0  0  0  0  0  0  0
  1 17  1  0  0  0  0
  2 19  1  0  0  0  0
  3 13  1  0  0  0  0
  4 22  2  0  0  0  0
  5  8  1  0  0  0  0
  5  9  1  0  0  0  0
  5 12  1  0  0  0  0
  6 10  1  0  0  0  0
  6 11  1  0  0  0  0
  6 15  1  0  0  0  0
  7 16  1  0  0  0  0
  7 22  1  0  0  0  0
  7 49  1  0  0  0  0
  8 10  1  0  0  0  0
  8 33  1  0  0  0  0
  8 34  1  0  0  0  0
  9 11  1  0  0  0  0
  9 35  1  0  0  0  0
  9 36  1  0  0  0  0
 10 37  1  0  0  0  0
 10 38  1  0  0  0  0
 11 39  1  0  0  0  0
 11 40  1  0  0  0  0
 12 13  1  0  0  0  0
 12 41  1  0  0  0  0
 12 42  1  0  0  0  0
 13 14  1  0  0  0  0
 13 43  1  0  0  0  0
 14 16  1  0  0  0  0
 14 44  1  0  0  0  0
 14 45  1  0  0  0  0
 15 17  2  0  0  0  0
 15 18  1  0  0  0  0
 16 46  1  0  0  0  0
 16 47  1  0  0  0  0
 17 19  1  0  0  0  0
 18 20  2  0  0  0  0
 18 48  1  0  0  0  0
 19 21  2  0  0  0  0
 20 21  1  0  0  0  0
 20 50  1  0  0  0  0
 21 51  1  0  0  0  0
 22 23  1  0  0  0  0
 23 24  2  0  0  0  0
 23 26  1  0  0  0  0
 24 25  1  0  0  0  0
 24 52  1  0  0  0  0
 25 27  1  0  0  0  0
 25 29  2  0  0  0  0
 26 28  2  0  0  0  0
 26 53  1  0  0  0  0
 27 28  1  0  0  0  0
 27 30  2  0  0  0  0
 28 54  1  0  0  0  0
 29 31  1  0  0  0  0
 29 55  1  0  0  0  0
 30 32  1  0  0  0  0
 30 56  1  0  0  0  0
 31 32  2  0  0  0  0
 31 57  1  0  0  0  0
 32 58  1  0  0  0  0
M  END
> <PUBCHEM_COMPOUND_CID>
53248298

> <PUBCHEM_COMPOUND_CANONICALIZED>
1

> <PUBCHEM_CACTVS_COMPLEXITY>
604

> <PUBCHEM_CACTVS_HBOND_ACCEPTOR>
4

> <PUBCHEM_CACTVS_HBOND_DONOR>
1

> <PUBCHEM_CACTVS_ROTATABLE_BOND>
7

> <PUBCHEM_CACTVS_SUBSKEYS>
AAADceB7IQAGAAAAAAAAAAAAAAAAAAAAAAA8YMEAAAAAAADBVAAAHwIQAAAADArBmCQwwMPAAACIAiVSUACCAAAlBwAIisEIZsgIYDLBl5HUIQhglgDIyYcYiMCOwAACAAIQABSAAAQABCAAKAAAAAAAAA==

> <PUBCHEM_IUPAC_OPENEYE_NAME>
N-[4-[4-(2,3-dichlorophenyl)piperazin-1-yl]-3-fluoro-butyl]naphthalene-2-carboxamide

> <PUBCHEM_IUPAC_CAS_NAME>
N-[4-[4-(2,3-dichlorophenyl)-1-piperazinyl]-3-fluorobutyl]-2-naphthalenecarboxamide

> <PUBCHEM_IUPAC_NAME_MARKUP>
<I>N</I>-[4-[4-(2,3-dichlorophenyl)piperazin-1-yl]-3-fluorobutyl]naphthalene-2-carboxamide

> <PUBCHEM_IUPAC_NAME>
N-[4-[4-(2,3-dichlorophenyl)piperazin-1-yl]-3-fluorobutyl]naphthalene-2-carboxamide

> <PUBCHEM_IUPAC_SYSTEMATIC_NAME>
N-[4-[4-[2,3-bis(chloranyl)phenyl]piperazin-1-yl]-3-fluoranyl-butyl]naphthalene-2-carboxamide

> <PUBCHEM_IUPAC_TRADITIONAL_NAME>
N-[4-[4-(2,3-dichlorophenyl)piperazino]-3-fluoro-butyl]-2-naphthamide

> <PUBCHEM_IUPAC_INCHI>
InChI=1S/C25H26Cl2FN3O/c26-22-6-3-7-23(24(22)27)31-14-12-30(13-15-31)17-21(28)10-11-29-25(32)20-9-8-18-4-1-2-5-19(18)16-20/h1-9,16,21H,10-15,17H2,(H,29,32)

> <PUBCHEM_IUPAC_INCHIKEY>
CNIUTIHLBNEOKA-UHFFFAOYSA-N

> <PUBCHEM_XLOGP3_AA>
6.1

> <PUBCHEM_EXACT_MASS>
473.1436960

> <PUBCHEM_MOLECULAR_FORMULA>
C25H26Cl2FN3O

> <PUBCHEM_MOLECULAR_WEIGHT>
474.4

> <PUBCHEM_OPENEYE_CAN_SMILES>
C1CN(CCN1CC(CCNC(=O)C2=CC3=CC=CC=C3C=C2)F)C4=C(C(=CC=C4)Cl)Cl

> <PUBCHEM_OPENEYE_ISO_SMILES>
C1CN(CCN1CC(CCNC(=O)C2=CC3=CC=CC=C3C=C2)F)C4=C(C(=CC=C4)Cl)Cl

> <PUBCHEM_CACTVS_TPSA>
35.6

> <PUBCHEM_MONOISOTOPIC_WEIGHT>
473.1436960

> <PUBCHEM_TOTAL_CHARGE>
0

> <PUBCHEM_HEAVY_ATOM_COUNT>
32

> <PUBCHEM_ATOM_DEF_STEREO_COUNT>
0

> <PUBCHEM_ATOM_UDEF_STEREO_COUNT>
1

> <PUBCHEM_BOND_DEF_STEREO_COUNT>
0

> <PUBCHEM_BOND_UDEF_STEREO_COUNT>
0

> <PUBCHEM_ISOTOPIC_ATOM_COUNT>
0

> <PUBCHEM_COMPONENT_COUNT>
1

> <PUBCHEM_CACTVS_TAUTO_COUNT>
-1

> <PUBCHEM_COORDINATE_TYPE>
1
5
255

> <PUBCHEM_BONDANNOTATIONS>
15  17  8
15  18  8
17  19  8
18  20  8
19  21  8
20  21  8
23  24  8
23  26  8
24  25  8
25  27  8
25  29  8
26  28  8
27  28  8
27  30  8
29  31  8
13  3  3
30  32  8
31  32  8

$$$$
