11230330
  -OEChem-09292322102D

 41 42  0     1  0  0  0  0  0999 V2000
    4.5981    0.6029    0.0000 N   0  0  0  0  0  0  0  0  0  0  0  0
    7.1962   -0.8971    0.0000 N   0  0  0  0  0  0  0  0  0  0  0  0
    8.7637   -3.1029    0.0000 N   0  0  0  0  0  0  0  0  0  0  0  0
    5.4641    0.1029    0.0000 C   0  0  1  0  0  0  0  0  0  0  0  0
    5.4641   -0.8971    0.0000 C   0  0  0  0  0  0  0  0  0  0  0  0
    6.3301    0.6029    0.0000 C   0  0  0  0  0  0  0  0  0  0  0  0
    6.3301   -1.3971    0.0000 C   0  0  0  0  0  0  0  0  0  0  0  0
    7.1962    0.1029    0.0000 C   0  0  0  0  0  0  0  0  0  0  0  0
    3.7320    0.1029    0.0000 C   0  0  0  0  0  0  0  0  0  0  0  0
    4.5981    1.6029    0.0000 C   0  0  0  0  0  0  0  0  0  0  0  0
    8.1424    0.4076    0.0000 C   0  0  0  0  0  0  0  0  0  0  0  0
    8.1424   -1.2018    0.0000 C   0  0  0  0  0  0  0  0  0  0  0  0
    2.8660    0.6029    0.0000 C   0  0  0  0  0  0  0  0  0  0  0  0
    3.7320    2.1029    0.0000 C   0  0  0  0  0  0  0  0  0  0  0  0
    8.7260   -0.3971    0.0000 C   0  0  0  0  0  0  0  0  0  0  0  0
    2.0000    0.1029    0.0000 C   0  0  0  0  0  0  0  0  0  0  0  0
    3.7320    3.1029    0.0000 C   0  0  0  0  0  0  0  0  0  0  0  0
    8.4530   -2.1524    0.0000 C   0  0  0  0  0  0  0  0  0  0  0  0
    5.4641    0.7229    0.0000 H   0  0  0  0  0  0  0  0  0  0  0  0
    4.8535   -0.7895    0.0000 H   0  0  0  0  0  0  0  0  0  0  0  0
    5.2520   -1.4797    0.0000 H   0  0  0  0  0  0  0  0  0  0  0  0
    6.7287    1.0778    0.0000 H   0  0  0  0  0  0  0  0  0  0  0  0
    5.9316    1.0778    0.0000 H   0  0  0  0  0  0  0  0  0  0  0  0
    5.9316   -1.8721    0.0000 H   0  0  0  0  0  0  0  0  0  0  0  0
    6.7287   -1.8721    0.0000 H   0  0  0  0  0  0  0  0  0  0  0  0
    3.3335   -0.3721    0.0000 H   0  0  0  0  0  0  0  0  0  0  0  0
    4.1306   -0.3721    0.0000 H   0  0  0  0  0  0  0  0  0  0  0  0
    5.2087    1.4952    0.0000 H   0  0  0  0  0  0  0  0  0  0  0  0
    4.8101    2.1855    0.0000 H   0  0  0  0  0  0  0  0  0  0  0  0
    8.3350    0.9969    0.0000 H   0  0  0  0  0  0  0  0  0  0  0  0
    3.2646    1.0778    0.0000 H   0  0  0  0  0  0  0  0  0  0  0  0
    2.4675    1.0778    0.0000 H   0  0  0  0  0  0  0  0  0  0  0  0
    3.1215    2.2106    0.0000 H   0  0  0  0  0  0  0  0  0  0  0  0
    3.5200    1.5203    0.0000 H   0  0  0  0  0  0  0  0  0  0  0  0
    9.3460   -0.3971    0.0000 H   0  0  0  0  0  0  0  0  0  0  0  0
    1.6900    0.6398    0.0000 H   0  0  0  0  0  0  0  0  0  0  0  0
    1.4631   -0.2071    0.0000 H   0  0  0  0  0  0  0  0  0  0  0  0
    2.3100   -0.4340    0.0000 H   0  0  0  0  0  0  0  0  0  0  0  0
    4.3520    3.1029    0.0000 H   0  0  0  0  0  0  0  0  0  0  0  0
    3.7320    3.7229    0.0000 H   0  0  0  0  0  0  0  0  0  0  0  0
    3.1120    3.1029    0.0000 H   0  0  0  0  0  0  0  0  0  0  0  0
  4  1  1  6  0  0  0
  1  9  1  0  0  0  0
  1 10  1  0  0  0  0
  2  7  1  0  0  0  0
  2  8  1  0  0  0  0
  2 12  1  0  0  0  0
  3 18  3  0  0  0  0
  4  5  1  0  0  0  0
  4  6  1  0  0  0  0
  4 19  1  0  0  0  0
  5  7  1  0  0  0  0
  5 20  1  0  0  0  0
  5 21  1  0  0  0  0
  6  8  1  0  0  0  0
  6 22  1  0  0  0  0
  6 23  1  0  0  0  0
  7 24  1  0  0  0  0
  7 25  1  0  0  0  0
  8 11  2  0  0  0  0
  9 13  1  0  0  0  0
  9 26  1  0  0  0  0
  9 27  1  0  0  0  0
 10 14  1  0  0  0  0
 10 28  1  0  0  0  0
 10 29  1  0  0  0  0
 11 15  1  0  0  0  0
 11 30  1  0  0  0  0
 12 15  2  0  0  0  0
 12 18  1  0  0  0  0
 13 16  1  0  0  0  0
 13 31  1  0  0  0  0
 13 32  1  0  0  0  0
 14 17  1  0  0  0  0
 14 33  1  0  0  0  0
 14 34  1  0  0  0  0
 15 35  1  0  0  0  0
 16 36  1  0  0  0  0
 16 37  1  0  0  0  0
 16 38  1  0  0  0  0
 17 39  1  0  0  0  0
 17 40  1  0  0  0  0
 17 41  1  0  0  0  0
M  END
> <PUBCHEM_COMPOUND_CID>
11230330

> <PUBCHEM_COMPOUND_CANONICALIZED>
1

> <PUBCHEM_CACTVS_COMPLEXITY>
300

> <PUBCHEM_CACTVS_HBOND_ACCEPTOR>
2

> <PUBCHEM_CACTVS_HBOND_DONOR>
0

> <PUBCHEM_CACTVS_ROTATABLE_BOND>
5

> <PUBCHEM_CACTVS_SUBSKEYS>
AAADceBzAAAAAAAAAAAAAAAAAAAAAWAAAAAsAAAAAAAAAFgBgAAAHAAAAAAACCjBFgQygJMMEACwBSRiRACigCAhAiAI2CA4ZJgIoOLA0ZGEAAhggADIyA8QgIAAAAAAAAAAAAAAAAAAAAAAAAAAAAAAAA==

> <PUBCHEM_IUPAC_OPENEYE_NAME>
(7S)-7-(dipropylamino)-5,6,7,8-tetrahydroindolizine-3-carbonitrile

> <PUBCHEM_IUPAC_CAS_NAME>
(7S)-7-(dipropylamino)-5,6,7,8-tetrahydroindolizine-3-carbonitrile

> <PUBCHEM_IUPAC_NAME_MARKUP>
(7<I>S</I>)-7-(dipropylamino)-5,6,7,8-tetrahydroindolizine-3-carbonitrile

> <PUBCHEM_IUPAC_NAME>
(7S)-7-(dipropylamino)-5,6,7,8-tetrahydroindolizine-3-carbonitrile

> <PUBCHEM_IUPAC_SYSTEMATIC_NAME>
(7S)-7-(dipropylamino)-5,6,7,8-tetrahydroindolizine-3-carbonitrile

> <PUBCHEM_IUPAC_TRADITIONAL_NAME>
(7S)-7-(dipropylamino)-5,6,7,8-tetrahydroindolizine-3-carbonitrile

> <PUBCHEM_IUPAC_INCHI>
InChI=1S/C15H23N3/c1-3-8-17(9-4-2)13-7-10-18-14(11-13)5-6-15(18)12-16/h5-6,13H,3-4,7-11H2,1-2H3/t13-/m0/s1

> <PUBCHEM_IUPAC_INCHIKEY>
VQEFMIATWHWTNX-ZDUSSCGKSA-N

> <PUBCHEM_XLOGP3_AA>
3

> <PUBCHEM_EXACT_MASS>
245.189197746

> <PUBCHEM_MOLECULAR_FORMULA>
C15H23N3

> <PUBCHEM_MOLECULAR_WEIGHT>
245.36

> <PUBCHEM_OPENEYE_CAN_SMILES>
CCCN(CCC)C1CCN2C(=CC=C2C#N)C1

> <PUBCHEM_OPENEYE_ISO_SMILES>
CCCN(CCC)[C@H]1CCN2C(=CC=C2C#N)C1

> <PUBCHEM_CACTVS_TPSA>
32

> <PUBCHEM_MONOISOTOPIC_WEIGHT>
245.189197746

> <PUBCHEM_TOTAL_CHARGE>
0

> <PUBCHEM_HEAVY_ATOM_COUNT>
18

> <PUBCHEM_ATOM_DEF_STEREO_COUNT>
1

> <PUBCHEM_ATOM_UDEF_STEREO_COUNT>
0

> <PUBCHEM_BOND_DEF_STEREO_COUNT>
0

> <PUBCHEM_BOND_UDEF_STEREO_COUNT>
0

> <PUBCHEM_ISOTOPIC_ATOM_COUNT>
0

> <PUBCHEM_COMPONENT_COUNT>
1

> <PUBCHEM_CACTVS_TAUTO_COUNT>
-1

> <PUBCHEM_COORDINATE_TYPE>
1
5
255

> <PUBCHEM_BONDANNOTATIONS>
4  1  6
11  15  8
12  15  8
2  12  8
2  8  8
8  11  8

$$$$
