44319980
  -OEChem-09292322152D

 65 69  0     1  0  0  0  0  0999 V2000
    6.7619   -1.7988    0.0000 O   0  0  0  0  0  0  0  0  0  0  0  0
   12.2619    0.7993    0.0000 N   0  0  3  0  0  0  0  0  0  0  0  0
    6.7619   -0.0667    0.0000 N   0  0  0  0  0  0  0  0  0  0  0  0
    4.6783   -1.7375    0.0000 N   0  0  0  0  0  0  0  0  0  0  0  0
   17.9807    2.3268    0.0000 N   0  0  0  0  0  0  0  0  0  0  0  0
    9.7619   -0.0667    0.0000 C   0  0  0  0  0  0  0  0  0  0  0  0
    9.2619   -0.9327    0.0000 C   0  0  0  0  0  0  0  0  0  0  0  0
    9.2619    0.7993    0.0000 C   0  0  0  0  0  0  0  0  0  0  0  0
    7.7619   -0.0667    0.0000 C   0  0  0  0  0  0  0  0  0  0  0  0
    8.2619   -0.9327    0.0000 C   0  0  0  0  0  0  0  0  0  0  0  0
    8.2619    0.7993    0.0000 C   0  0  0  0  0  0  0  0  0  0  0  0
   10.7619   -0.0667    0.0000 C   0  0  0  0  0  0  0  0  0  0  0  0
   11.2619    0.7993    0.0000 C   0  0  0  0  0  0  0  0  0  0  0  0
   12.6958    1.7003    0.0000 C   0  0  0  0  0  0  0  0  0  0  0  0
   12.6958   -0.1017    0.0000 C   0  0  0  0  0  0  0  0  0  0  0  0
   13.6707    1.9228    0.0000 C   0  0  0  0  0  0  0  0  0  0  0  0
   13.6707   -0.3242    0.0000 C   0  0  0  0  0  0  0  0  0  0  0  0
   14.4525    1.2993    0.0000 C   0  0  0  0  0  0  0  0  0  0  0  0
   14.4525    0.2993    0.0000 C   0  0  0  0  0  0  0  0  0  0  0  0
    6.2619   -0.9327    0.0000 C   0  0  0  0  0  0  0  0  0  0  0  0
    5.2619   -0.9327    0.0000 C   0  0  0  0  0  0  0  0  0  0  0  0
   15.3465    1.8340    0.0000 C   0  0  0  0  0  0  0  0  0  0  0  0
   15.3465   -0.2354    0.0000 C   0  0  0  0  0  0  0  0  0  0  0  0
   16.2525    1.3201    0.0000 C   0  0  0  0  0  0  0  0  0  0  0  0
   16.2525    0.2785    0.0000 C   0  0  0  0  0  0  0  0  0  0  0  0
    4.6783   -0.1280    0.0000 C   0  0  0  0  0  0  0  0  0  0  0  0
    3.7320   -1.4327    0.0000 C   0  0  0  0  0  0  0  0  0  0  0  0
    3.7320   -0.4327    0.0000 C   0  0  0  0  0  0  0  0  0  0  0  0
    2.8660   -1.9327    0.0000 C   0  0  0  0  0  0  0  0  0  0  0  0
    2.8660    0.0673    0.0000 C   0  0  0  0  0  0  0  0  0  0  0  0
   17.1166    1.8235    0.0000 C   0  0  0  0  0  0  0  0  0  0  0  0
    2.0000   -1.4327    0.0000 C   0  0  0  0  0  0  0  0  0  0  0  0
    2.0000   -0.4327    0.0000 C   0  0  0  0  0  0  0  0  0  0  0  0
   10.0719   -0.6036    0.0000 H   0  0  0  0  0  0  0  0  0  0  0  0
    9.1542   -1.5433    0.0000 H   0  0  0  0  0  0  0  0  0  0  0  0
    9.8445   -1.1448    0.0000 H   0  0  0  0  0  0  0  0  0  0  0  0
    9.8445    1.0114    0.0000 H   0  0  0  0  0  0  0  0  0  0  0  0
    9.1542    1.4099    0.0000 H   0  0  0  0  0  0  0  0  0  0  0  0
    7.4519    0.4702    0.0000 H   0  0  0  0  0  0  0  0  0  0  0  0
    7.6793   -1.1448    0.0000 H   0  0  0  0  0  0  0  0  0  0  0  0
    8.3695   -1.5433    0.0000 H   0  0  0  0  0  0  0  0  0  0  0  0
    8.3695    1.4099    0.0000 H   0  0  0  0  0  0  0  0  0  0  0  0
    7.6793    1.0114    0.0000 H   0  0  0  0  0  0  0  0  0  0  0  0
   10.6542   -0.6773    0.0000 H   0  0  0  0  0  0  0  0  0  0  0  0
   11.3445   -0.2788    0.0000 H   0  0  0  0  0  0  0  0  0  0  0  0
   11.3695    1.4099    0.0000 H   0  0  0  0  0  0  0  0  0  0  0  0
   10.6793    1.0114    0.0000 H   0  0  0  0  0  0  0  0  0  0  0  0
    6.4519    0.4702    0.0000 H   0  0  0  0  0  0  0  0  0  0  0  0
   12.6958    2.3203    0.0000 H   0  0  0  0  0  0  0  0  0  0  0  0
   12.0913    1.8382    0.0000 H   0  0  0  0  0  0  0  0  0  0  0  0
   12.0913   -0.2396    0.0000 H   0  0  0  0  0  0  0  0  0  0  0  0
   12.6958   -0.7217    0.0000 H   0  0  0  0  0  0  0  0  0  0  0  0
   14.1554    2.3094    0.0000 H   0  0  0  0  0  0  0  0  0  0  0  0
   13.4017    2.4814    0.0000 H   0  0  0  0  0  0  0  0  0  0  0  0
   13.4017   -0.8828    0.0000 H   0  0  0  0  0  0  0  0  0  0  0  0
   14.1554   -0.7107    0.0000 H   0  0  0  0  0  0  0  0  0  0  0  0
   15.3393    2.4539    0.0000 H   0  0  0  0  0  0  0  0  0  0  0  0
   15.3393   -0.8553    0.0000 H   0  0  0  0  0  0  0  0  0  0  0  0
   16.7883   -0.0336    0.0000 H   0  0  0  0  0  0  0  0  0  0  0  0
    4.8709   -2.3268    0.0000 H   0  0  0  0  0  0  0  0  0  0  0  0
    4.8709    0.4613    0.0000 H   0  0  0  0  0  0  0  0  0  0  0  0
    2.8660   -2.5527    0.0000 H   0  0  0  0  0  0  0  0  0  0  0  0
    2.8660    0.6873    0.0000 H   0  0  0  0  0  0  0  0  0  0  0  0
    1.4631   -1.7427    0.0000 H   0  0  0  0  0  0  0  0  0  0  0  0
    1.4631   -0.1227    0.0000 H   0  0  0  0  0  0  0  0  0  0  0  0
  1 20  2  0  0  0  0
  2 13  1  0  0  0  0
  2 14  1  0  0  0  0
  2 15  1  0  0  0  0
  3  9  1  0  0  0  0
  3 20  1  0  0  0  0
  3 48  1  0  0  0  0
  4 21  1  0  0  0  0
  4 27  1  0  0  0  0
  4 60  1  0  0  0  0
  5 31  3  0  0  0  0
  6  7  1  0  0  0  0
  6  8  1  0  0  0  0
  6 12  1  0  0  0  0
  6 34  1  0  0  0  0
  7 10  1  0  0  0  0
  7 35  1  0  0  0  0
  7 36  1  0  0  0  0
  8 11  1  0  0  0  0
  8 37  1  0  0  0  0
  8 38  1  0  0  0  0
  9 10  1  0  0  0  0
  9 11  1  0  0  0  0
  9 39  1  0  0  0  0
 10 40  1  0  0  0  0
 10 41  1  0  0  0  0
 11 42  1  0  0  0  0
 11 43  1  0  0  0  0
 12 13  1  0  0  0  0
 12 44  1  0  0  0  0
 12 45  1  0  0  0  0
 13 46  1  0  0  0  0
 13 47  1  0  0  0  0
 14 16  1  0  0  0  0
 14 49  1  0  0  0  0
 14 50  1  0  0  0  0
 15 17  1  0  0  0  0
 15 51  1  0  0  0  0
 15 52  1  0  0  0  0
 16 18  1  0  0  0  0
 16 53  1  0  0  0  0
 16 54  1  0  0  0  0
 17 19  1  0  0  0  0
 17 55  1  0  0  0  0
 17 56  1  0  0  0  0
 18 19  2  0  0  0  0
 18 22  1  0  0  0  0
 19 23  1  0  0  0  0
 20 21  1  0  0  0  0
 21 26  2  0  0  0  0
 22 24  2  0  0  0  0
 22 57  1  0  0  0  0
 23 25  2  0  0  0  0
 23 58  1  0  0  0  0
 24 25  1  0  0  0  0
 24 31  1  0  0  0  0
 25 59  1  0  0  0  0
 26 28  1  0  0  0  0
 26 61  1  0  0  0  0
 27 28  1  0  0  0  0
 27 29  2  0  0  0  0
 28 30  2  0  0  0  0
 29 32  1  0  0  0  0
 29 62  1  0  0  0  0
 30 33  1  0  0  0  0
 30 63  1  0  0  0  0
 32 33  2  0  0  0  0
 32 64  1  0  0  0  0
 33 65  1  0  0  0  0
M  END
> <PUBCHEM_COMPOUND_CID>
44319980

> <PUBCHEM_COMPOUND_CANONICALIZED>
1

> <PUBCHEM_CACTVS_COMPLEXITY>
708

> <PUBCHEM_CACTVS_HBOND_ACCEPTOR>
3

> <PUBCHEM_CACTVS_HBOND_DONOR>
2

> <PUBCHEM_CACTVS_ROTATABLE_BOND>
5

> <PUBCHEM_CACTVS_SUBSKEYS>
AAADcfB7oAAAAAAAAAAAAAAAAAAAAWAAAAAwYMAABYAAAFgB9AAAHgAQAAAADSjBngQwwPPJkAC4ByVyVACigCAnAiAImaG4ZNgI4PLAlbGUIQhglgDIyY8YicCewAACAAASAACQAAQAACQAAAAAAAAAAA==

> <PUBCHEM_IUPAC_OPENEYE_NAME>
N-[4-[2-(7-cyano-1,2,4,5-tetrahydro-3-benzazepin-3-yl)ethyl]cyclohexyl]-1H-indole-2-carboxamide

> <PUBCHEM_IUPAC_CAS_NAME>
N-[4-[2-(7-cyano-1,2,4,5-tetrahydro-3-benzazepin-3-yl)ethyl]cyclohexyl]-1H-indole-2-carboxamide

> <PUBCHEM_IUPAC_NAME_MARKUP>
<I>N</I>-[4-[2-(7-cyano-1,2,4,5-tetrahydro-3-benzazepin-3-yl)ethyl]cyclohexyl]-1<I>H</I>-indole-2-carboxamide

> <PUBCHEM_IUPAC_NAME>
N-[4-[2-(7-cyano-1,2,4,5-tetrahydro-3-benzazepin-3-yl)ethyl]cyclohexyl]-1H-indole-2-carboxamide

> <PUBCHEM_IUPAC_SYSTEMATIC_NAME>
N-[4-[2-(7-cyano-1,2,4,5-tetrahydro-3-benzazepin-3-yl)ethyl]cyclohexyl]-1H-indole-2-carboxamide

> <PUBCHEM_IUPAC_TRADITIONAL_NAME>
N-[4-[2-(7-cyano-1,2,4,5-tetrahydro-3-benzazepin-3-yl)ethyl]cyclohexyl]-1H-indole-2-carboxamide

> <PUBCHEM_IUPAC_INCHI>
InChI=1S/C28H32N4O/c29-19-21-5-8-22-12-15-32(16-13-23(22)17-21)14-11-20-6-9-25(10-7-20)30-28(33)27-18-24-3-1-2-4-26(24)31-27/h1-5,8,17-18,20,25,31H,6-7,9-16H2,(H,30,33)

> <PUBCHEM_IUPAC_INCHIKEY>
MBVUGYVCCHAKHM-UHFFFAOYSA-N

> <PUBCHEM_XLOGP3_AA>
5.3

> <PUBCHEM_EXACT_MASS>
440.25761166

> <PUBCHEM_MOLECULAR_FORMULA>
C28H32N4O

> <PUBCHEM_MOLECULAR_WEIGHT>
440.6

> <PUBCHEM_OPENEYE_CAN_SMILES>
C1CC(CCC1CCN2CCC3=C(CC2)C=C(C=C3)C#N)NC(=O)C4=CC5=CC=CC=C5N4

> <PUBCHEM_OPENEYE_ISO_SMILES>
C1CC(CCC1CCN2CCC3=C(CC2)C=C(C=C3)C#N)NC(=O)C4=CC5=CC=CC=C5N4

> <PUBCHEM_CACTVS_TPSA>
71.9

> <PUBCHEM_MONOISOTOPIC_WEIGHT>
440.25761166

> <PUBCHEM_TOTAL_CHARGE>
0

> <PUBCHEM_HEAVY_ATOM_COUNT>
33

> <PUBCHEM_ATOM_DEF_STEREO_COUNT>
0

> <PUBCHEM_ATOM_UDEF_STEREO_COUNT>
0

> <PUBCHEM_BOND_DEF_STEREO_COUNT>
0

> <PUBCHEM_BOND_UDEF_STEREO_COUNT>
0

> <PUBCHEM_ISOTOPIC_ATOM_COUNT>
0

> <PUBCHEM_COMPONENT_COUNT>
1

> <PUBCHEM_CACTVS_TAUTO_COUNT>
11

> <PUBCHEM_COORDINATE_TYPE>
1
5
255

> <PUBCHEM_BONDANNOTATIONS>
18  19  8
18  22  8
19  23  8
21  26  8
22  24  8
23  25  8
24  25  8
26  28  8
27  28  8
27  29  8
28  30  8
29  32  8
30  33  8
32  33  8
4  21  8
4  27  8

$$$$
