66801295
  -OEChem-09292322392D

 53 56  0     1  0  0  0  0  0999 V2000
    2.0000   -3.1889    0.0000 Cl  0  0  0  0  0  0  0  0  0  0  0  0
    9.3653    2.7314    0.0000 S   0  0  0  0  0  0  0  0  0  0  0  0
   11.9436    5.0449    0.0000 F   0  0  0  0  0  0  0  0  0  0  0  0
   10.3158    2.4207    0.0000 O   0  0  0  0  0  0  0  0  0  0  0  0
    8.4148    3.0421    0.0000 O   0  0  0  0  0  0  0  0  0  0  0  0
    6.4763   -0.5326    0.0000 N   0  0  3  0  0  0  0  0  0  0  0  0
    5.5443   -4.9936    0.0000 N   0  0  0  0  0  0  0  0  0  0  0  0
    9.0546    1.7809    0.0000 N   0  0  0  0  0  0  0  0  0  0  0  0
    5.4978   -0.7388    0.0000 C   0  0  0  0  0  0  0  0  0  0  0  0
    5.1871   -1.6893    0.0000 C   0  0  0  0  0  0  0  0  0  0  0  0
    7.1441   -1.2769    0.0000 C   0  0  0  0  0  0  0  0  0  0  0  0
    6.7870    0.4179    0.0000 C   0  0  0  0  0  0  0  0  0  0  0  0
    5.8550   -2.4336    0.0000 C   0  0  0  0  0  0  0  0  0  0  0  0
    6.8335   -2.2274    0.0000 C   0  0  0  0  0  0  0  0  0  0  0  0
    7.7654    0.6241    0.0000 C   0  0  0  0  0  0  0  0  0  0  0  0
    5.5443   -3.3842    0.0000 C   0  0  0  0  0  0  0  0  0  0  0  0
    8.0761    1.5747    0.0000 C   0  0  0  0  0  0  0  0  0  0  0  0
    4.5981   -3.6889    0.0000 C   0  0  0  0  0  0  0  0  0  0  0  0
    6.1279   -4.1889    0.0000 C   0  0  0  0  0  0  0  0  0  0  0  0
    4.5981   -4.6889    0.0000 C   0  0  0  0  0  0  0  0  0  0  0  0
    3.7320   -3.1889    0.0000 C   0  0  0  0  0  0  0  0  0  0  0  0
    3.7320   -5.1889    0.0000 C   0  0  0  0  0  0  0  0  0  0  0  0
    2.8660   -3.6889    0.0000 C   0  0  0  0  0  0  0  0  0  0  0  0
    2.8660   -4.6889    0.0000 C   0  0  0  0  0  0  0  0  0  0  0  0
    9.6759    3.6819    0.0000 C   0  0  0  0  0  0  0  0  0  0  0  0
   10.6545    3.8881    0.0000 C   0  0  0  0  0  0  0  0  0  0  0  0
    9.0081    4.4262    0.0000 C   0  0  0  0  0  0  0  0  0  0  0  0
   10.9651    4.8386    0.0000 C   0  0  0  0  0  0  0  0  0  0  0  0
    9.3188    5.3767    0.0000 C   0  0  0  0  0  0  0  0  0  0  0  0
   10.2973    5.5830    0.0000 C   0  0  0  0  0  0  0  0  0  0  0  0
    5.4772   -0.1192    0.0000 H   0  0  0  0  0  0  0  0  0  0  0  0
    4.8840   -0.6515    0.0000 H   0  0  0  0  0  0  0  0  0  0  0  0
    4.6402   -1.3973    0.0000 H   0  0  0  0  0  0  0  0  0  0  0  0
    4.8046   -2.1772    0.0000 H   0  0  0  0  0  0  0  0  0  0  0  0
    7.6910   -1.5689    0.0000 H   0  0  0  0  0  0  0  0  0  0  0  0
    7.5267   -0.7890    0.0000 H   0  0  0  0  0  0  0  0  0  0  0  0
    6.7664    1.0376    0.0000 H   0  0  0  0  0  0  0  0  0  0  0  0
    6.1731    0.5053    0.0000 H   0  0  0  0  0  0  0  0  0  0  0  0
    7.2475   -2.6889    0.0000 H   0  0  0  0  0  0  0  0  0  0  0  0
    7.7860    0.0045    0.0000 H   0  0  0  0  0  0  0  0  0  0  0  0
    8.3793    0.5368    0.0000 H   0  0  0  0  0  0  0  0  0  0  0  0
    8.0556    2.1943    0.0000 H   0  0  0  0  0  0  0  0  0  0  0  0
    7.4623    1.6620    0.0000 H   0  0  0  0  0  0  0  0  0  0  0  0
    6.7479   -4.1889    0.0000 H   0  0  0  0  0  0  0  0  0  0  0  0
    5.7369   -5.5830    0.0000 H   0  0  0  0  0  0  0  0  0  0  0  0
    9.4687    1.3194    0.0000 H   0  0  0  0  0  0  0  0  0  0  0  0
    3.7320   -2.5689    0.0000 H   0  0  0  0  0  0  0  0  0  0  0  0
    3.7320   -5.8089    0.0000 H   0  0  0  0  0  0  0  0  0  0  0  0
    2.3291   -4.9989    0.0000 H   0  0  0  0  0  0  0  0  0  0  0  0
   11.0685    3.4267    0.0000 H   0  0  0  0  0  0  0  0  0  0  0  0
    8.4014    4.2984    0.0000 H   0  0  0  0  0  0  0  0  0  0  0  0
    8.9047    5.8382    0.0000 H   0  0  0  0  0  0  0  0  0  0  0  0
   10.4899    6.1723    0.0000 H   0  0  0  0  0  0  0  0  0  0  0  0
  1 23  1  0  0  0  0
  2  4  2  0  0  0  0
  2  5  2  0  0  0  0
  2  8  1  0  0  0  0
  2 25  1  0  0  0  0
  3 28  1  0  0  0  0
  6  9  1  0  0  0  0
  6 11  1  0  0  0  0
  6 12  1  0  0  0  0
  7 19  1  0  0  0  0
  7 20  1  0  0  0  0
  7 45  1  0  0  0  0
  8 17  1  0  0  0  0
  8 46  1  0  0  0  0
  9 10  1  0  0  0  0
  9 31  1  0  0  0  0
  9 32  1  0  0  0  0
 10 13  1  0  0  0  0
 10 33  1  0  0  0  0
 10 34  1  0  0  0  0
 11 14  1  0  0  0  0
 11 35  1  0  0  0  0
 11 36  1  0  0  0  0
 12 15  1  0  0  0  0
 12 37  1  0  0  0  0
 12 38  1  0  0  0  0
 13 14  2  0  0  0  0
 13 16  1  0  0  0  0
 14 39  1  0  0  0  0
 15 17  1  0  0  0  0
 15 40  1  0  0  0  0
 15 41  1  0  0  0  0
 16 18  1  0  0  0  0
 16 19  2  0  0  0  0
 17 42  1  0  0  0  0
 17 43  1  0  0  0  0
 18 20  2  0  0  0  0
 18 21  1  0  0  0  0
 19 44  1  0  0  0  0
 20 22  1  0  0  0  0
 21 23  2  0  0  0  0
 21 47  1  0  0  0  0
 22 24  2  0  0  0  0
 22 48  1  0  0  0  0
 23 24  1  0  0  0  0
 24 49  1  0  0  0  0
 25 26  1  0  0  0  0
 25 27  2  0  0  0  0
 26 28  2  0  0  0  0
 26 50  1  0  0  0  0
 27 29  1  0  0  0  0
 27 51  1  0  0  0  0
 28 30  1  0  0  0  0
 29 30  2  0  0  0  0
 29 52  1  0  0  0  0
 30 53  1  0  0  0  0
M  END
> <PUBCHEM_COMPOUND_CID>
66801295

> <PUBCHEM_COMPOUND_CANONICALIZED>
1

> <PUBCHEM_CACTVS_COMPLEXITY>
714

> <PUBCHEM_CACTVS_HBOND_ACCEPTOR>
5

> <PUBCHEM_CACTVS_HBOND_DONOR>
2

> <PUBCHEM_CACTVS_ROTATABLE_BOND>
7

> <PUBCHEM_CACTVS_SUBSKEYS>
AAADceB7MQBEAAAAAAAAAAAAAAAAAWAAAAAwYIAAAAAAAFgB9AAAHQYQQAAADArBXiw8wfPJkAKgAzRnRHDCgDAxByAI2bg4ZpgIIOLB05GEIAhgkADIyAcQgMAOgABAIAACAAAAAIBAAAQAAAAAAAAAAA==

> <PUBCHEM_IUPAC_OPENEYE_NAME>
N-[3-[4-(5-chloro-1H-indol-3-yl)-3,6-dihydro-2H-pyridin-1-yl]propyl]-3-fluoro-benzenesulfonamide

> <PUBCHEM_IUPAC_CAS_NAME>
N-[3-[4-(5-chloro-1H-indol-3-yl)-3,6-dihydro-2H-pyridin-1-yl]propyl]-3-fluorobenzenesulfonamide

> <PUBCHEM_IUPAC_NAME_MARKUP>
<I>N</I>-[3-[4-(5-chloro-1<I>H</I>-indol-3-yl)-3,6-dihydro-2<I>H</I>-pyridin-1-yl]propyl]-3-fluorobenzenesulfonamide

> <PUBCHEM_IUPAC_NAME>
N-[3-[4-(5-chloro-1H-indol-3-yl)-3,6-dihydro-2H-pyridin-1-yl]propyl]-3-fluorobenzenesulfonamide

> <PUBCHEM_IUPAC_SYSTEMATIC_NAME>
N-[3-[4-(5-chloranyl-1H-indol-3-yl)-3,6-dihydro-2H-pyridin-1-yl]propyl]-3-fluoranyl-benzenesulfonamide

> <PUBCHEM_IUPAC_TRADITIONAL_NAME>
N-[3-[4-(5-chloro-1H-indol-3-yl)-3,6-dihydro-2H-pyridin-1-yl]propyl]-3-fluoro-benzenesulfonamide

> <PUBCHEM_IUPAC_INCHI>
InChI=1S/C22H23ClFN3O2S/c23-17-5-6-22-20(13-17)21(15-25-22)16-7-11-27(12-8-16)10-2-9-26-30(28,29)19-4-1-3-18(24)14-19/h1,3-7,13-15,25-26H,2,8-12H2

> <PUBCHEM_IUPAC_INCHIKEY>
COYPHMJWMCMIIQ-UHFFFAOYSA-N

> <PUBCHEM_XLOGP3_AA>
4

> <PUBCHEM_EXACT_MASS>
447.1183540

> <PUBCHEM_MOLECULAR_FORMULA>
C22H23ClFN3O2S

> <PUBCHEM_MOLECULAR_WEIGHT>
448.0

> <PUBCHEM_OPENEYE_CAN_SMILES>
C1CN(CC=C1C2=CNC3=C2C=C(C=C3)Cl)CCCNS(=O)(=O)C4=CC=CC(=C4)F

> <PUBCHEM_OPENEYE_ISO_SMILES>
C1CN(CC=C1C2=CNC3=C2C=C(C=C3)Cl)CCCNS(=O)(=O)C4=CC=CC(=C4)F

> <PUBCHEM_CACTVS_TPSA>
73.6

> <PUBCHEM_MONOISOTOPIC_WEIGHT>
447.1183540

> <PUBCHEM_TOTAL_CHARGE>
0

> <PUBCHEM_HEAVY_ATOM_COUNT>
30

> <PUBCHEM_ATOM_DEF_STEREO_COUNT>
0

> <PUBCHEM_ATOM_UDEF_STEREO_COUNT>
0

> <PUBCHEM_BOND_DEF_STEREO_COUNT>
0

> <PUBCHEM_BOND_UDEF_STEREO_COUNT>
0

> <PUBCHEM_ISOTOPIC_ATOM_COUNT>
0

> <PUBCHEM_COMPONENT_COUNT>
1

> <PUBCHEM_CACTVS_TAUTO_COUNT>
-1

> <PUBCHEM_COORDINATE_TYPE>
1
5
255

> <PUBCHEM_BONDANNOTATIONS>
16  18  8
16  19  8
18  20  8
18  21  8
20  22  8
21  23  8
22  24  8
23  24  8
25  26  8
25  27  8
26  28  8
27  29  8
28  30  8
29  30  8
7  19  8
7  20  8

$$$$
