45262349
  -OEChem-09292322122D

 72 74  0     1  0  0  0  0  0999 V2000
    8.1873    0.0000    0.0000 Cl  0  0  0  0  0  0  0  0  0  0  0  0
   15.9747    7.8676    0.0000 S   0  0  0  0  0  0  0  0  0  0  0  0
    2.6200    2.5133    0.0000 F   0  0  0  0  0  0  0  0  0  0  0  0
    2.6200    5.9774    0.0000 F   0  0  0  0  0  0  0  0  0  0  0  0
    5.6200    4.2454    0.0000 O   0  0  0  0  0  0  0  0  0  0  0  0
   16.4781    7.0035    0.0000 O   0  0  0  0  0  0  0  0  0  0  0  0
   15.4714    8.7317    0.0000 O   0  0  0  0  0  0  0  0  0  0  0  0
   11.1200    6.8435    0.0000 N   0  0  3  0  0  0  0  0  0  0  0  0
    5.6200    5.9774    0.0000 N   0  0  0  0  0  0  0  0  0  0  0  0
    8.6200    5.9774    0.0000 C   0  0  0  0  0  0  0  0  0  0  0  0
    8.1200    5.1114    0.0000 C   0  0  0  0  0  0  0  0  0  0  0  0
    8.1200    6.8435    0.0000 C   0  0  0  0  0  0  0  0  0  0  0  0
    6.6200    5.9774    0.0000 C   0  0  0  0  0  0  0  0  0  0  0  0
    7.1200    5.1114    0.0000 C   0  0  0  0  0  0  0  0  0  0  0  0
    7.1200    6.8435    0.0000 C   0  0  0  0  0  0  0  0  0  0  0  0
    9.6200    5.9774    0.0000 C   0  0  0  0  0  0  0  0  0  0  0  0
   10.1200    6.8435    0.0000 C   0  0  0  0  0  0  0  0  0  0  0  0
   11.5539    7.7444    0.0000 C   0  0  0  0  0  0  0  0  0  0  0  0
   11.5539    5.9425    0.0000 C   0  0  0  0  0  0  0  0  0  0  0  0
   12.5288    7.9670    0.0000 C   0  0  0  0  0  0  0  0  0  0  0  0
   12.5288    5.7200    0.0000 C   0  0  0  0  0  0  0  0  0  0  0  0
   13.3106    7.3435    0.0000 C   0  0  0  0  0  0  0  0  0  0  0  0
   13.3106    6.3435    0.0000 C   0  0  0  0  0  0  0  0  0  0  0  0
    5.1200    5.1114    0.0000 C   0  0  0  0  0  0  0  0  0  0  0  0
   14.2046    7.8781    0.0000 C   0  0  0  0  0  0  0  0  0  0  0  0
   14.2046    5.8088    0.0000 C   0  0  0  0  0  0  0  0  0  0  0  0
   15.1107    7.3643    0.0000 C   0  0  0  0  0  0  0  0  0  0  0  0
   15.1107    6.3226    0.0000 C   0  0  0  0  0  0  0  0  0  0  0  0
    4.1200    5.1114    0.0000 C   0  0  0  0  0  0  0  0  0  0  0  0
    3.6200    4.2454    0.0000 C   0  0  0  0  0  0  0  0  0  0  0  0
   16.8388    8.3710    0.0000 C   0  0  0  0  0  0  0  0  0  0  0  0
    2.6200    4.2454    0.0000 C   0  0  0  0  0  0  0  0  0  0  0  0
    2.1200    3.3794    0.0000 C   0  0  0  0  0  0  0  0  0  0  0  0
    2.1200    5.1114    0.0000 C   0  0  0  0  0  0  0  0  0  0  0  0
    1.1200    3.3794    0.0000 C   0  0  0  0  0  0  0  0  0  0  0  0
    1.1200    5.1114    0.0000 C   0  0  0  0  0  0  0  0  0  0  0  0
    0.6200    4.2454    0.0000 C   0  0  0  0  0  0  0  0  0  0  0  0
    8.9300    5.4405    0.0000 H   0  0  0  0  0  0  0  0  0  0  0  0
    8.0123    4.5008    0.0000 H   0  0  0  0  0  0  0  0  0  0  0  0
    8.7026    4.8994    0.0000 H   0  0  0  0  0  0  0  0  0  0  0  0
    8.7026    7.0555    0.0000 H   0  0  0  0  0  0  0  0  0  0  0  0
    8.0123    7.4540    0.0000 H   0  0  0  0  0  0  0  0  0  0  0  0
    6.3100    5.4405    0.0000 H   0  0  0  0  0  0  0  0  0  0  0  0
    6.5374    4.8994    0.0000 H   0  0  0  0  0  0  0  0  0  0  0  0
    7.2277    4.5008    0.0000 H   0  0  0  0  0  0  0  0  0  0  0  0
    7.2277    7.4540    0.0000 H   0  0  0  0  0  0  0  0  0  0  0  0
    6.5374    7.0555    0.0000 H   0  0  0  0  0  0  0  0  0  0  0  0
    9.5123    5.3669    0.0000 H   0  0  0  0  0  0  0  0  0  0  0  0
   10.2026    5.7654    0.0000 H   0  0  0  0  0  0  0  0  0  0  0  0
   10.2277    7.4540    0.0000 H   0  0  0  0  0  0  0  0  0  0  0  0
    9.5374    7.0555    0.0000 H   0  0  0  0  0  0  0  0  0  0  0  0
    5.3100    6.5144    0.0000 H   0  0  0  0  0  0  0  0  0  0  0  0
   11.5539    8.3644    0.0000 H   0  0  0  0  0  0  0  0  0  0  0  0
   10.9494    7.8824    0.0000 H   0  0  0  0  0  0  0  0  0  0  0  0
   10.9494    5.8045    0.0000 H   0  0  0  0  0  0  0  0  0  0  0  0
   11.5539    5.3225    0.0000 H   0  0  0  0  0  0  0  0  0  0  0  0
   13.0135    8.3535    0.0000 H   0  0  0  0  0  0  0  0  0  0  0  0
   12.2598    8.5256    0.0000 H   0  0  0  0  0  0  0  0  0  0  0  0
   12.2598    5.1614    0.0000 H   0  0  0  0  0  0  0  0  0  0  0  0
   13.0135    5.3334    0.0000 H   0  0  0  0  0  0  0  0  0  0  0  0
   14.1974    8.4981    0.0000 H   0  0  0  0  0  0  0  0  0  0  0  0
   14.1974    5.1889    0.0000 H   0  0  0  0  0  0  0  0  0  0  0  0
   15.6464    6.0106    0.0000 H   0  0  0  0  0  0  0  0  0  0  0  0
    3.8100    5.6484    0.0000 H   0  0  0  0  0  0  0  0  0  0  0  0
    3.9300    3.7085    0.0000 H   0  0  0  0  0  0  0  0  0  0  0  0
   17.1509    7.8352    0.0000 H   0  0  0  0  0  0  0  0  0  0  0  0
   17.3746    8.6830    0.0000 H   0  0  0  0  0  0  0  0  0  0  0  0
   16.5268    8.9067    0.0000 H   0  0  0  0  0  0  0  0  0  0  0  0
    0.8100    2.8424    0.0000 H   0  0  0  0  0  0  0  0  0  0  0  0
    0.8100    5.6484    0.0000 H   0  0  0  0  0  0  0  0  0  0  0  0
    0.0000    4.2454    0.0000 H   0  0  0  0  0  0  0  0  0  0  0  0
    9.1873    0.0000    0.0000 H   0  0  0  0  0  0  0  0  0  0  0  0
  1 72  1  0  0  0  0
  2  6  2  0  0  0  0
  2  7  2  0  0  0  0
  2 27  1  0  0  0  0
  2 31  1  0  0  0  0
  3 33  1  0  0  0  0
  4 34  1  0  0  0  0
  5 24  2  0  0  0  0
  8 17  1  0  0  0  0
  8 18  1  0  0  0  0
  8 19  1  0  0  0  0
  9 13  1  0  0  0  0
  9 24  1  0  0  0  0
  9 52  1  0  0  0  0
 10 11  1  0  0  0  0
 10 12  1  0  0  0  0
 10 16  1  0  0  0  0
 10 38  1  0  0  0  0
 11 14  1  0  0  0  0
 11 39  1  0  0  0  0
 11 40  1  0  0  0  0
 12 15  1  0  0  0  0
 12 41  1  0  0  0  0
 12 42  1  0  0  0  0
 13 14  1  0  0  0  0
 13 15  1  0  0  0  0
 13 43  1  0  0  0  0
 14 44  1  0  0  0  0
 14 45  1  0  0  0  0
 15 46  1  0  0  0  0
 15 47  1  0  0  0  0
 16 17  1  0  0  0  0
 16 48  1  0  0  0  0
 16 49  1  0  0  0  0
 17 50  1  0  0  0  0
 17 51  1  0  0  0  0
 18 20  1  0  0  0  0
 18 53  1  0  0  0  0
 18 54  1  0  0  0  0
 19 21  1  0  0  0  0
 19 55  1  0  0  0  0
 19 56  1  0  0  0  0
 20 22  1  0  0  0  0
 20 57  1  0  0  0  0
 20 58  1  0  0  0  0
 21 23  1  0  0  0  0
 21 59  1  0  0  0  0
 21 60  1  0  0  0  0
 22 23  2  0  0  0  0
 22 25  1  0  0  0  0
 23 26  1  0  0  0  0
 24 29  1  0  0  0  0
 25 27  2  0  0  0  0
 25 61  1  0  0  0  0
 26 28  2  0  0  0  0
 26 62  1  0  0  0  0
 27 28  1  0  0  0  0
 28 63  1  0  0  0  0
 29 30  2  0  0  0  0
 29 64  1  0  0  0  0
 30 32  1  0  0  0  0
 30 65  1  0  0  0  0
 31 66  1  0  0  0  0
 31 67  1  0  0  0  0
 31 68  1  0  0  0  0
 32 33  2  0  0  0  0
 32 34  1  0  0  0  0
 33 35  1  0  0  0  0
 34 36  2  0  0  0  0
 35 37  2  0  0  0  0
 35 69  1  0  0  0  0
 36 37  1  0  0  0  0
 36 70  1  0  0  0  0
 37 71  1  0  0  0  0
M  END
> <PUBCHEM_COMPOUND_CID>
45262349

> <PUBCHEM_COMPOUND_CANONICALIZED>
1

> <PUBCHEM_CACTVS_COMPLEXITY>
843

> <PUBCHEM_CACTVS_HBOND_ACCEPTOR>
6

> <PUBCHEM_CACTVS_HBOND_DONOR>
2

> <PUBCHEM_CACTVS_ROTATABLE_BOND>
7

> <PUBCHEM_CACTVS_SUBSKEYS>
AAADcfB7MYBEAAAAAAAAAAAAAAAAAAAAAAAwYMAABYAAAAABQAAAHwQQAAAADSjB2AyyAYPAAAqIAiFSEHDCAAAgCBAIiJgIAMgIICKgkRGEIAAglgCIiYcQgIAOkAAAgAAQAAAwAAEAACAAAAAAAAAAAA==

> <PUBCHEM_IUPAC_OPENEYE_NAME>
(E)-3-(2,6-difluorophenyl)-N-[4-[2-(7-methylsulfonyl-1,2,4,5-tetrahydro-3-benzazepin-3-yl)ethyl]cyclohexyl]prop-2-enamide;hydrochloride

> <PUBCHEM_IUPAC_CAS_NAME>
(E)-3-(2,6-difluorophenyl)-N-[4-[2-(7-methylsulfonyl-1,2,4,5-tetrahydro-3-benzazepin-3-yl)ethyl]cyclohexyl]-2-propenamide;hydrochloride

> <PUBCHEM_IUPAC_NAME_MARKUP>
(<I>E</I>)-3-(2,6-difluorophenyl)-<I>N</I>-[4-[2-(7-methylsulfonyl-1,2,4,5-tetrahydro-3-benzazepin-3-yl)ethyl]cyclohexyl]prop-2-enamide;hydrochloride

> <PUBCHEM_IUPAC_NAME>
(E)-3-(2,6-difluorophenyl)-N-[4-[2-(7-methylsulfonyl-1,2,4,5-tetrahydro-3-benzazepin-3-yl)ethyl]cyclohexyl]prop-2-enamide;hydrochloride

> <PUBCHEM_IUPAC_SYSTEMATIC_NAME>
(E)-3-[2,6-bis(fluoranyl)phenyl]-N-[4-[2-(7-methylsulfonyl-1,2,4,5-tetrahydro-3-benzazepin-3-yl)ethyl]cyclohexyl]prop-2-enamide;hydrochloride

> <PUBCHEM_IUPAC_TRADITIONAL_NAME>
(E)-3-(2,6-difluorophenyl)-N-[4-[2-(7-mesyl-1,2,4,5-tetrahydro-3-benzazepin-3-yl)ethyl]cyclohexyl]acrylamide;hydrochloride

> <PUBCHEM_IUPAC_INCHI>
InChI=1S/C28H34F2N2O3S.ClH/c1-36(34,35)24-10-7-21-14-17-32(18-15-22(21)19-24)16-13-20-5-8-23(9-6-20)31-28(33)12-11-25-26(29)3-2-4-27(25)30;/h2-4,7,10-12,19-20,23H,5-6,8-9,13-18H2,1H3,(H,31,33);1H/b12-11+;

> <PUBCHEM_IUPAC_INCHIKEY>
DERLLDSGKLKQTQ-CALJPSDSSA-N

> <PUBCHEM_EXACT_MASS>
552.2024982

> <PUBCHEM_MOLECULAR_FORMULA>
C28H35ClF2N2O3S

> <PUBCHEM_MOLECULAR_WEIGHT>
553.1

> <PUBCHEM_OPENEYE_CAN_SMILES>
CS(=O)(=O)C1=CC2=C(CCN(CC2)CCC3CCC(CC3)NC(=O)C=CC4=C(C=CC=C4F)F)C=C1.Cl

> <PUBCHEM_OPENEYE_ISO_SMILES>
CS(=O)(=O)C1=CC2=C(CCN(CC2)CCC3CCC(CC3)NC(=O)/C=C/C4=C(C=CC=C4F)F)C=C1.Cl

> <PUBCHEM_CACTVS_TPSA>
74.9

> <PUBCHEM_MONOISOTOPIC_WEIGHT>
552.2024982

> <PUBCHEM_TOTAL_CHARGE>
0

> <PUBCHEM_HEAVY_ATOM_COUNT>
37

> <PUBCHEM_ATOM_DEF_STEREO_COUNT>
0

> <PUBCHEM_ATOM_UDEF_STEREO_COUNT>
0

> <PUBCHEM_BOND_DEF_STEREO_COUNT>
1

> <PUBCHEM_BOND_UDEF_STEREO_COUNT>
0

> <PUBCHEM_ISOTOPIC_ATOM_COUNT>
0

> <PUBCHEM_COMPONENT_COUNT>
2

> <PUBCHEM_CACTVS_TAUTO_COUNT>
-1

> <PUBCHEM_COORDINATE_TYPE>
1
5
255

> <PUBCHEM_BONDANNOTATIONS>
22  23  8
22  25  8
23  26  8
25  27  8
26  28  8
27  28  8
32  33  8
32  34  8
33  35  8
34  36  8
35  37  8
36  37  8

$$$$
