155566662
  -OEChem-09292322412D

 68 70  0     1  0  0  0  0  0999 V2000
    7.8671    0.6200    0.0000 Cl  0  0  0  0  0  0  0  0  0  0  0  0
    0.0000    6.7478    0.0000 Cl  0  0  0  0  0  0  0  0  0  0  0  0
    9.2331    8.9860    0.0000 S   0  0  0  0  0  0  0  0  0  0  0  0
    4.4030    2.6200    0.0000 O   0  0  0  0  0  0  0  0  0  0  0  0
    7.5010    5.9860    0.0000 N   0  0  3  0  0  0  0  0  0  0  0  0
   10.2036   10.4805    0.0000 N   0  0  0  0  0  0  0  0  0  0  0  0
   11.0127    9.0793    0.0000 N   0  0  0  0  0  0  0  0  0  0  0  0
   11.6818    9.8224    0.0000 N   0  0  0  0  0  0  0  0  0  0  0  0
    6.6350    4.4860    0.0000 C   0  0  3  0  0  0  0  0  0  0  0  0
    6.1350    3.6200    0.0000 C   0  0  3  0  0  0  0  0  0  0  0  0
    5.6350    4.4860    0.0000 C   0  0  0  0  0  0  0  0  0  0  0  0
    7.5010    4.9860    0.0000 C   0  0  0  0  0  0  0  0  0  0  0  0
    6.1350    2.6200    0.0000 C   0  0  0  0  0  0  0  0  0  0  0  0
    5.2690    2.1200    0.0000 C   0  0  0  0  0  0  0  0  0  0  0  0
    7.0010    2.1200    0.0000 C   0  0  0  0  0  0  0  0  0  0  0  0
    8.3671    6.4860    0.0000 C   0  0  0  0  0  0  0  0  0  0  0  0
    6.6350    6.4860    0.0000 C   0  0  0  0  0  0  0  0  0  0  0  0
    8.3671    7.4860    0.0000 C   0  0  0  0  0  0  0  0  0  0  0  0
    6.6350    7.4860    0.0000 C   0  0  0  0  0  0  0  0  0  0  0  0
    5.2690    1.1200    0.0000 C   0  0  0  0  0  0  0  0  0  0  0  0
    7.0010    1.1200    0.0000 C   0  0  0  0  0  0  0  0  0  0  0  0
    6.1350    0.6200    0.0000 C   0  0  0  0  0  0  0  0  0  0  0  0
    9.2331    7.9860    0.0000 C   0  0  0  0  0  0  0  0  0  0  0  0
    5.7690    7.9860    0.0000 C   0  0  0  0  0  0  0  0  0  0  0  0
    3.5369    2.1200    0.0000 C   0  0  0  0  0  0  0  0  0  0  0  0
   10.0991    9.4860    0.0000 C   0  0  0  0  0  0  0  0  0  0  0  0
   11.1818   10.6885    0.0000 C   0  0  0  0  0  0  0  0  0  0  0  0
    9.4605   11.1497    0.0000 C   0  0  0  0  0  0  0  0  0  0  0  0
   11.5885   11.6020    0.0000 C   0  0  0  0  0  0  0  0  0  0  0  0
   11.0007   12.4110    0.0000 C   0  0  0  0  0  0  0  0  0  0  0  0
   12.5830   11.7065    0.0000 C   0  0  0  0  0  0  0  0  0  0  0  0
   11.4075   13.3246    0.0000 C   0  0  0  0  0  0  0  0  0  0  0  0
   12.9898   12.6201    0.0000 C   0  0  0  0  0  0  0  0  0  0  0  0
   12.4020   13.4291    0.0000 C   0  0  0  0  0  0  0  0  0  0  0  0
    6.4745    5.0849    0.0000 H   0  0  0  0  0  0  0  0  0  0  0  0
    6.7339    3.4595    0.0000 H   0  0  0  0  0  0  0  0  0  0  0  0
    5.5274    5.0966    0.0000 H   0  0  0  0  0  0  0  0  0  0  0  0
    5.0524    4.2740    0.0000 H   0  0  0  0  0  0  0  0  0  0  0  0
    7.7131    4.4034    0.0000 H   0  0  0  0  0  0  0  0  0  0  0  0
    8.1116    5.0937    0.0000 H   0  0  0  0  0  0  0  0  0  0  0  0
    7.5380    2.4300    0.0000 H   0  0  0  0  0  0  0  0  0  0  0  0
    8.5791    5.9034    0.0000 H   0  0  0  0  0  0  0  0  0  0  0  0
    8.9776    6.5937    0.0000 H   0  0  0  0  0  0  0  0  0  0  0  0
    6.0244    6.5937    0.0000 H   0  0  0  0  0  0  0  0  0  0  0  0
    6.4230    5.9034    0.0000 H   0  0  0  0  0  0  0  0  0  0  0  0
    8.1550    8.0686    0.0000 H   0  0  0  0  0  0  0  0  0  0  0  0
    7.7565    7.3784    0.0000 H   0  0  0  0  0  0  0  0  0  0  0  0
    7.2456    7.3784    0.0000 H   0  0  0  0  0  0  0  0  0  0  0  0
    6.8471    8.0686    0.0000 H   0  0  0  0  0  0  0  0  0  0  0  0
    4.7320    0.8100    0.0000 H   0  0  0  0  0  0  0  0  0  0  0  0
    6.1350    0.0000    0.0000 H   0  0  0  0  0  0  0  0  0  0  0  0
    9.4451    7.4034    0.0000 H   0  0  0  0  0  0  0  0  0  0  0  0
    9.8437    8.0937    0.0000 H   0  0  0  0  0  0  0  0  0  0  0  0
    6.0790    8.5230    0.0000 H   0  0  0  0  0  0  0  0  0  0  0  0
    5.2320    8.2960    0.0000 H   0  0  0  0  0  0  0  0  0  0  0  0
    5.4590    7.4491    0.0000 H   0  0  0  0  0  0  0  0  0  0  0  0
    3.2269    2.6569    0.0000 H   0  0  0  0  0  0  0  0  0  0  0  0
    3.0000    1.8100    0.0000 H   0  0  0  0  0  0  0  0  0  0  0  0
    3.8469    1.5831    0.0000 H   0  0  0  0  0  0  0  0  0  0  0  0
    9.8754   11.6104    0.0000 H   0  0  0  0  0  0  0  0  0  0  0  0
    8.9998   11.5645    0.0000 H   0  0  0  0  0  0  0  0  0  0  0  0
    9.0456   10.6889    0.0000 H   0  0  0  0  0  0  0  0  0  0  0  0
   10.3841   12.3462    0.0000 H   0  0  0  0  0  0  0  0  0  0  0  0
   12.9475   11.2049    0.0000 H   0  0  0  0  0  0  0  0  0  0  0  0
   11.0431   13.8262    0.0000 H   0  0  0  0  0  0  0  0  0  0  0  0
   13.6064   12.6849    0.0000 H   0  0  0  0  0  0  0  0  0  0  0  0
   12.6542   13.9955    0.0000 H   0  0  0  0  0  0  0  0  0  0  0  0
    1.0000    6.7478    0.0000 H   0  0  0  0  0  0  0  0  0  0  0  0
  1 21  1  0  0  0  0
  2 68  1  0  0  0  0
  3 23  1  0  0  0  0
  3 26  1  0  0  0  0
  4 14  1  0  0  0  0
  4 25  1  0  0  0  0
  5 12  1  0  0  0  0
  5 16  1  0  0  0  0
  5 17  1  0  0  0  0
  6 26  1  0  0  0  0
  6 27  1  0  0  0  0
  6 28  1  0  0  0  0
  7  8  1  0  0  0  0
  7 26  2  0  0  0  0
  8 27  2  0  0  0  0
  9 10  1  0  0  0  0
  9 11  1  0  0  0  0
  9 12  1  0  0  0  0
  9 35  1  0  0  0  0
 10 11  1  0  0  0  0
 10 13  1  0  0  0  0
 10 36  1  0  0  0  0
 11 37  1  0  0  0  0
 11 38  1  0  0  0  0
 12 39  1  0  0  0  0
 12 40  1  0  0  0  0
 13 14  2  0  0  0  0
 13 15  1  0  0  0  0
 14 20  1  0  0  0  0
 15 21  2  0  0  0  0
 15 41  1  0  0  0  0
 16 18  1  0  0  0  0
 16 42  1  0  0  0  0
 16 43  1  0  0  0  0
 17 19  1  0  0  0  0
 17 44  1  0  0  0  0
 17 45  1  0  0  0  0
 18 23  1  0  0  0  0
 18 46  1  0  0  0  0
 18 47  1  0  0  0  0
 19 24  1  0  0  0  0
 19 48  1  0  0  0  0
 19 49  1  0  0  0  0
 20 22  2  0  0  0  0
 20 50  1  0  0  0  0
 21 22  1  0  0  0  0
 22 51  1  0  0  0  0
 23 52  1  0  0  0  0
 23 53  1  0  0  0  0
 24 54  1  0  0  0  0
 24 55  1  0  0  0  0
 24 56  1  0  0  0  0
 25 57  1  0  0  0  0
 25 58  1  0  0  0  0
 25 59  1  0  0  0  0
 27 29  1  0  0  0  0
 28 60  1  0  0  0  0
 28 61  1  0  0  0  0
 28 62  1  0  0  0  0
 29 30  2  0  0  0  0
 29 31  1  0  0  0  0
 30 32  1  0  0  0  0
 30 63  1  0  0  0  0
 31 33  2  0  0  0  0
 31 64  1  0  0  0  0
 32 34  2  0  0  0  0
 32 65  1  0  0  0  0
 33 34  1  0  0  0  0
 33 66  1  0  0  0  0
 34 67  1  0  0  0  0
M  END
> <PUBCHEM_COMPOUND_CID>
155566662

> <PUBCHEM_COMPOUND_CANONICALIZED>
1

> <PUBCHEM_CACTVS_COMPLEXITY>
581

> <PUBCHEM_CACTVS_HBOND_ACCEPTOR>
5

> <PUBCHEM_CACTVS_HBOND_DONOR>
1

> <PUBCHEM_CACTVS_ROTATABLE_BOND>
12

> <PUBCHEM_CACTVS_SUBSKEYS>
AAADcfB7oABGAAAAAAAAAAAAGAAAAWAAAAAwYAAAAAAAAAAB0AAAHgYIAAAADQbF2yazFocMFAiiAiJiJACS2AtgJbAdyCAuDpiMLqKluxuEMChkyBOIqAeQ0OIOgCAAIAAIAAAAQABAABAAAAAAAAAAAA==

> <PUBCHEM_IUPAC_OPENEYE_NAME>
N-[[2-(5-chloro-2-methoxy-phenyl)cyclopropyl]methyl]-3-[(4-methyl-5-phenyl-1,2,4-triazol-3-yl)sulfanyl]-N-propyl-propan-1-amine;hydrochloride

> <PUBCHEM_IUPAC_CAS_NAME>
N-[[2-(5-chloro-2-methoxyphenyl)cyclopropyl]methyl]-3-[(4-methyl-5-phenyl-1,2,4-triazol-3-yl)thio]-N-propyl-1-propanamine;hydrochloride

> <PUBCHEM_IUPAC_NAME_MARKUP>
<I>N</I>-[[2-(5-chloro-2-methoxyphenyl)cyclopropyl]methyl]-3-[(4-methyl-5-phenyl-1,2,4-triazol-3-yl)sulfanyl]-<I>N</I>-propylpropan-1-amine;hydrochloride

> <PUBCHEM_IUPAC_NAME>
N-[[2-(5-chloro-2-methoxyphenyl)cyclopropyl]methyl]-3-[(4-methyl-5-phenyl-1,2,4-triazol-3-yl)sulfanyl]-N-propylpropan-1-amine;hydrochloride

> <PUBCHEM_IUPAC_SYSTEMATIC_NAME>
N-[[2-(5-chloranyl-2-methoxy-phenyl)cyclopropyl]methyl]-3-[(4-methyl-5-phenyl-1,2,4-triazol-3-yl)sulfanyl]-N-propyl-propan-1-amine;hydrochloride

> <PUBCHEM_IUPAC_TRADITIONAL_NAME>
[2-(5-chloro-2-methoxy-phenyl)cyclopropyl]methyl-[3-[(4-methyl-5-phenyl-1,2,4-triazol-3-yl)thio]propyl]-propyl-amine;hydrochloride

> <PUBCHEM_IUPAC_INCHI>
InChI=1S/C26H33ClN4OS.ClH/c1-4-13-31(18-20-16-22(20)23-17-21(27)11-12-24(23)32-3)14-8-15-33-26-29-28-25(30(26)2)19-9-6-5-7-10-19;/h5-7,9-12,17,20,22H,4,8,13-16,18H2,1-3H3;1H

> <PUBCHEM_IUPAC_INCHIKEY>
VBJNGPHBISORIA-UHFFFAOYSA-N

> <PUBCHEM_EXACT_MASS>
520.1830383

> <PUBCHEM_MOLECULAR_FORMULA>
C26H34Cl2N4OS

> <PUBCHEM_MOLECULAR_WEIGHT>
521.5

> <PUBCHEM_OPENEYE_CAN_SMILES>
CCCN(CCCSC1=NN=C(N1C)C2=CC=CC=C2)CC3CC3C4=C(C=CC(=C4)Cl)OC.Cl

> <PUBCHEM_OPENEYE_ISO_SMILES>
CCCN(CCCSC1=NN=C(N1C)C2=CC=CC=C2)CC3CC3C4=C(C=CC(=C4)Cl)OC.Cl

> <PUBCHEM_CACTVS_TPSA>
68.5

> <PUBCHEM_MONOISOTOPIC_WEIGHT>
520.1830383

> <PUBCHEM_TOTAL_CHARGE>
0

> <PUBCHEM_HEAVY_ATOM_COUNT>
34

> <PUBCHEM_ATOM_DEF_STEREO_COUNT>
0

> <PUBCHEM_ATOM_UDEF_STEREO_COUNT>
2

> <PUBCHEM_BOND_DEF_STEREO_COUNT>
0

> <PUBCHEM_BOND_UDEF_STEREO_COUNT>
0

> <PUBCHEM_ISOTOPIC_ATOM_COUNT>
0

> <PUBCHEM_COMPONENT_COUNT>
2

> <PUBCHEM_CACTVS_TAUTO_COUNT>
-1

> <PUBCHEM_COORDINATE_TYPE>
1
5
255

> <PUBCHEM_BONDANNOTATIONS>
10  13  3
13  14  8
13  15  8
14  20  8
15  21  8
20  22  8
21  22  8
29  30  8
29  31  8
30  32  8
31  33  8
32  34  8
33  34  8
6  26  8
6  27  8
7  26  8
7  8  8
8  27  8
9  12  3

$$$$
