168271947
  -OEChem-09292322442D

 59 61  0     0  0  0  0  0  0999 V2000
    4.9338   11.1322    0.0000 O   0  0  0  0  0  0  0  0  0  0  0  0
    6.1995    1.0000    0.0000 O   0  0  0  0  0  0  0  0  0  0  0  0
    3.6014    1.5000    0.0000 O   0  0  0  0  0  0  0  0  0  0  0  0
    5.3335    2.5000    0.0000 O   0  0  0  0  0  0  0  0  0  0  0  0
    4.4674    0.0000    0.0000 O   0  0  0  0  0  0  0  0  0  0  0  0
    4.9338    8.1322    0.0000 N   0  0  0  0  0  0  0  0  0  0  0  0
    6.6659    7.1322    0.0000 N   0  0  0  0  0  0  0  0  0  0  0  0
    3.2018   11.1322    0.0000 N   0  0  0  0  0  0  0  0  0  0  0  0
    7.5319    5.6322    0.0000 N   0  0  0  0  0  0  0  0  0  0  0  0
    8.3979    7.1322    0.0000 N   0  0  0  0  0  0  0  0  0  0  0  0
    5.7998    8.6322    0.0000 C   0  0  0  0  0  0  0  0  0  0  0  0
    4.9338    7.1322    0.0000 C   0  0  0  0  0  0  0  0  0  0  0  0
    4.0678    8.6322    0.0000 C   0  0  0  0  0  0  0  0  0  0  0  0
    6.6659    8.1322    0.0000 C   0  0  0  0  0  0  0  0  0  0  0  0
    5.7998    6.6322    0.0000 C   0  0  0  0  0  0  0  0  0  0  0  0
    4.0678    9.6322    0.0000 C   0  0  0  0  0  0  0  0  0  0  0  0
    3.2018   10.1322    0.0000 C   0  0  0  0  0  0  0  0  0  0  0  0
    2.3358   11.6322    0.0000 C   0  0  0  0  0  0  0  0  0  0  0  0
    3.2018   13.1322    0.0000 C   0  0  0  0  0  0  0  0  0  0  0  0
    2.3358   12.6322    0.0000 C   0  0  0  0  0  0  0  0  0  0  0  0
    4.0678   12.6322    0.0000 C   0  0  0  0  0  0  0  0  0  0  0  0
    4.0678   11.6322    0.0000 C   0  0  0  0  0  0  0  0  0  0  0  0
    7.5319    6.6322    0.0000 C   0  0  0  0  0  0  0  0  0  0  0  0
    1.4418   11.0976    0.0000 C   0  0  0  0  0  0  0  0  0  0  0  0
    1.4418   13.1669    0.0000 C   0  0  0  0  0  0  0  0  0  0  0  0
    0.5357   11.6114    0.0000 C   0  0  0  0  0  0  0  0  0  0  0  0
    0.5357   12.6531    0.0000 C   0  0  0  0  0  0  0  0  0  0  0  0
    8.3979    5.1322    0.0000 C   0  0  0  0  0  0  0  0  0  0  0  0
    9.2640    6.6322    0.0000 C   0  0  0  0  0  0  0  0  0  0  0  0
    9.2640    5.6322    0.0000 C   0  0  0  0  0  0  0  0  0  0  0  0
    5.3335    1.5000    0.0000 C   0  0  0  0  0  0  0  0  0  0  0  0
    4.4674    1.0000    0.0000 C   0  0  0  0  0  0  0  0  0  0  0  0
    6.1984    9.1072    0.0000 H   0  0  0  0  0  0  0  0  0  0  0  0
    5.4013    9.1072    0.0000 H   0  0  0  0  0  0  0  0  0  0  0  0
    4.3232    7.2399    0.0000 H   0  0  0  0  0  0  0  0  0  0  0  0
    4.7218    6.5496    0.0000 H   0  0  0  0  0  0  0  0  0  0  0  0
    3.4572    8.7399    0.0000 H   0  0  0  0  0  0  0  0  0  0  0  0
    3.8557    8.0496    0.0000 H   0  0  0  0  0  0  0  0  0  0  0  0
    7.2764    8.0246    0.0000 H   0  0  0  0  0  0  0  0  0  0  0  0
    6.8779    8.7148    0.0000 H   0  0  0  0  0  0  0  0  0  0  0  0
    5.4013    6.1573    0.0000 H   0  0  0  0  0  0  0  0  0  0  0  0
    6.1984    6.1573    0.0000 H   0  0  0  0  0  0  0  0  0  0  0  0
    4.6784    9.5246    0.0000 H   0  0  0  0  0  0  0  0  0  0  0  0
    4.2798   10.2149    0.0000 H   0  0  0  0  0  0  0  0  0  0  0  0
    2.5912   10.2399    0.0000 H   0  0  0  0  0  0  0  0  0  0  0  0
    2.9897    9.5496    0.0000 H   0  0  0  0  0  0  0  0  0  0  0  0
    3.6003   13.6072    0.0000 H   0  0  0  0  0  0  0  0  0  0  0  0
    2.8032   13.6072    0.0000 H   0  0  0  0  0  0  0  0  0  0  0  0
    4.6784   12.5246    0.0000 H   0  0  0  0  0  0  0  0  0  0  0  0
    4.2798   13.2149    0.0000 H   0  0  0  0  0  0  0  0  0  0  0  0
    1.4490   10.4776    0.0000 H   0  0  0  0  0  0  0  0  0  0  0  0
    1.4490   13.7869    0.0000 H   0  0  0  0  0  0  0  0  0  0  0  0
    0.0000   11.2994    0.0000 H   0  0  0  0  0  0  0  0  0  0  0  0
    0.0000   12.9651    0.0000 H   0  0  0  0  0  0  0  0  0  0  0  0
    8.3979    4.5122    0.0000 H   0  0  0  0  0  0  0  0  0  0  0  0
    9.8009    6.9422    0.0000 H   0  0  0  0  0  0  0  0  0  0  0  0
    9.8009    5.3222    0.0000 H   0  0  0  0  0  0  0  0  0  0  0  0
    6.7364    1.3100    0.0000 H   0  0  0  0  0  0  0  0  0  0  0  0
    3.0645    1.1900    0.0000 H   0  0  0  0  0  0  0  0  0  0  0  0
  1 22  2  0  0  0  0
  2 31  1  0  0  0  0
  2 58  1  0  0  0  0
  3 32  1  0  0  0  0
  3 59  1  0  0  0  0
  4 31  2  0  0  0  0
  5 32  2  0  0  0  0
  6 11  1  0  0  0  0
  6 12  1  0  0  0  0
  6 13  1  0  0  0  0
  7 14  1  0  0  0  0
  7 15  1  0  0  0  0
  7 23  1  0  0  0  0
  8 17  1  0  0  0  0
  8 18  1  0  0  0  0
  8 22  1  0  0  0  0
  9 23  2  0  0  0  0
  9 28  1  0  0  0  0
 10 23  1  0  0  0  0
 10 29  2  0  0  0  0
 11 14  1  0  0  0  0
 11 33  1  0  0  0  0
 11 34  1  0  0  0  0
 12 15  1  0  0  0  0
 12 35  1  0  0  0  0
 12 36  1  0  0  0  0
 13 16  1  0  0  0  0
 13 37  1  0  0  0  0
 13 38  1  0  0  0  0
 14 39  1  0  0  0  0
 14 40  1  0  0  0  0
 15 41  1  0  0  0  0
 15 42  1  0  0  0  0
 16 17  1  0  0  0  0
 16 43  1  0  0  0  0
 16 44  1  0  0  0  0
 17 45  1  0  0  0  0
 17 46  1  0  0  0  0
 18 20  1  0  0  0  0
 18 24  2  0  0  0  0
 19 20  1  0  0  0  0
 19 21  1  0  0  0  0
 19 47  1  0  0  0  0
 19 48  1  0  0  0  0
 20 25  2  0  0  0  0
 21 22  1  0  0  0  0
 21 49  1  0  0  0  0
 21 50  1  0  0  0  0
 24 26  1  0  0  0  0
 24 51  1  0  0  0  0
 25 27  1  0  0  0  0
 25 52  1  0  0  0  0
 26 27  2  0  0  0  0
 26 53  1  0  0  0  0
 27 54  1  0  0  0  0
 28 30  2  0  0  0  0
 28 55  1  0  0  0  0
 29 30  1  0  0  0  0
 29 56  1  0  0  0  0
 30 57  1  0  0  0  0
 31 32  1  0  0  0  0
M  END
> <PUBCHEM_COMPOUND_CID>
168271947

> <PUBCHEM_COMPOUND_CANONICALIZED>
1

> <PUBCHEM_CACTVS_COMPLEXITY>
531

> <PUBCHEM_CACTVS_HBOND_ACCEPTOR>
9

> <PUBCHEM_CACTVS_HBOND_DONOR>
2

> <PUBCHEM_CACTVS_ROTATABLE_BOND>
6

> <PUBCHEM_CACTVS_SUBSKEYS>
AAADceB7uAAAAAAAAAAAAAAAAAAAAAAAAAA8WLEAAAAAAACxwAAAHgAACAAADAjBmgQ92JcIEgCoAjX3fAKCgCkxAqAJ2CF4ZJiJaLLA2dGUJAhohgLJyCcYiYCeAAAAAAACAAAAAAAAAAQAAAAAAAAAAA==

> <PUBCHEM_IUPAC_OPENEYE_NAME>
oxalic acid;1-[3-(4-pyrimidin-2-ylpiperazin-1-yl)propyl]-3,4-dihydroquinolin-2-one

> <PUBCHEM_IUPAC_CAS_NAME>
oxalic acid;1-[3-[4-(2-pyrimidinyl)-1-piperazinyl]propyl]-3,4-dihydroquinolin-2-one

> <PUBCHEM_IUPAC_NAME_MARKUP>
oxalic acid;1-[3-(4-pyrimidin-2-ylpiperazin-1-yl)propyl]-3,4-dihydroquinolin-2-one

> <PUBCHEM_IUPAC_NAME>
oxalic acid;1-[3-(4-pyrimidin-2-ylpiperazin-1-yl)propyl]-3,4-dihydroquinolin-2-one

> <PUBCHEM_IUPAC_SYSTEMATIC_NAME>
ethanedioic acid;1-[3-(4-pyrimidin-2-ylpiperazin-1-yl)propyl]-3,4-dihydroquinolin-2-one

> <PUBCHEM_IUPAC_TRADITIONAL_NAME>
oxalic acid;1-[3-[4-(2-pyrimidyl)piperazino]propyl]-3,4-dihydrocarbostyril

> <PUBCHEM_IUPAC_INCHI>
InChI=1S/C20H25N5O.C2H2O4/c26-19-8-7-17-5-1-2-6-18(17)25(19)12-4-11-23-13-15-24(16-14-23)20-21-9-3-10-22-20;3-1(4)2(5)6/h1-3,5-6,9-10H,4,7-8,11-16H2;(H,3,4)(H,5,6)

> <PUBCHEM_IUPAC_INCHIKEY>
CAWIYYLHESHZSB-UHFFFAOYSA-N

> <PUBCHEM_EXACT_MASS>
441.20121898

> <PUBCHEM_MOLECULAR_FORMULA>
C22H27N5O5

> <PUBCHEM_MOLECULAR_WEIGHT>
441.5

> <PUBCHEM_OPENEYE_CAN_SMILES>
C1CC(=O)N(C2=CC=CC=C21)CCCN3CCN(CC3)C4=NC=CC=N4.C(=O)(C(=O)O)O

> <PUBCHEM_OPENEYE_ISO_SMILES>
C1CC(=O)N(C2=CC=CC=C21)CCCN3CCN(CC3)C4=NC=CC=N4.C(=O)(C(=O)O)O

> <PUBCHEM_CACTVS_TPSA>
127

> <PUBCHEM_MONOISOTOPIC_WEIGHT>
441.20121898

> <PUBCHEM_TOTAL_CHARGE>
0

> <PUBCHEM_HEAVY_ATOM_COUNT>
32

> <PUBCHEM_ATOM_DEF_STEREO_COUNT>
0

> <PUBCHEM_ATOM_UDEF_STEREO_COUNT>
0

> <PUBCHEM_BOND_DEF_STEREO_COUNT>
0

> <PUBCHEM_BOND_UDEF_STEREO_COUNT>
0

> <PUBCHEM_ISOTOPIC_ATOM_COUNT>
0

> <PUBCHEM_COMPONENT_COUNT>
2

> <PUBCHEM_CACTVS_TAUTO_COUNT>
-1

> <PUBCHEM_COORDINATE_TYPE>
1
5
255

> <PUBCHEM_BONDANNOTATIONS>
10  23  8
10  29  8
18  20  8
18  24  8
20  25  8
24  26  8
25  27  8
26  27  8
28  30  8
29  30  8
9  23  8
9  28  8

$$$$
