72191066
  -OEChem-09292322342D

 60 63  0     0  0  0  0  0  0999 V2000
    4.9836    6.3173    0.0000 O   0  0  0  0  0  0  0  0  0  0  0  0
    5.3457    2.8722    0.0000 N   0  0  0  0  0  0  0  0  0  0  0  0
    4.1701    4.4902    0.0000 N   0  0  0  0  0  0  0  0  0  0  0  0
    6.2956   -1.3820    0.0000 N   0  0  0  0  0  0  0  0  0  0  0  0
    7.2956   -1.3820    0.0000 N   0  0  0  0  0  0  0  0  0  0  0  0
    7.6046   -2.3330    0.0000 N   0  0  0  0  0  0  0  0  0  0  0  0
    6.7956   -6.9208    0.0000 N   0  0  0  0  0  0  0  0  0  0  0  0
    5.7524    3.7857    0.0000 C   0  0  0  0  0  0  0  0  0  0  0  0
    4.3511    2.7676    0.0000 C   0  0  0  0  0  0  0  0  0  0  0  0
    5.1646    4.5947    0.0000 C   0  0  0  0  0  0  0  0  0  0  0  0
    3.7634    3.5766    0.0000 C   0  0  0  0  0  0  0  0  0  0  0  0
    5.9334    2.0631    0.0000 C   0  0  0  0  0  0  0  0  0  0  0  0
    5.5267    1.1496    0.0000 C   0  0  0  0  0  0  0  0  0  0  0  0
    6.1145    0.3406    0.0000 C   0  0  0  0  0  0  0  0  0  0  0  0
    3.5823    5.2992    0.0000 C   0  0  0  0  0  0  0  0  0  0  0  0
    5.7078   -0.5730    0.0000 C   0  0  0  0  0  0  0  0  0  0  0  0
    3.9890    6.2128    0.0000 C   0  0  0  0  0  0  0  0  0  0  0  0
    2.5878    5.1947    0.0000 C   0  0  0  0  0  0  0  0  0  0  0  0
    3.4013    7.0218    0.0000 C   0  0  0  0  0  0  0  0  0  0  0  0
    2.0000    6.0037    0.0000 C   0  0  0  0  0  0  0  0  0  0  0  0
    2.4067    6.9172    0.0000 C   0  0  0  0  0  0  0  0  0  0  0  0
    5.9865   -2.3330    0.0000 C   0  0  0  0  0  0  0  0  0  0  0  0
    6.7956   -2.9208    0.0000 C   0  0  0  0  0  0  0  0  0  0  0  0
    5.3903    7.2308    0.0000 C   0  0  0  0  0  0  0  0  0  0  0  0
    6.7956   -3.9208    0.0000 C   0  0  0  0  0  0  0  0  0  0  0  0
    5.9295   -4.4208    0.0000 C   0  0  0  0  0  0  0  0  0  0  0  0
    7.6616   -4.4208    0.0000 C   0  0  0  0  0  0  0  0  0  0  0  0
    5.9295   -5.4208    0.0000 C   0  0  0  0  0  0  0  0  0  0  0  0
    7.6616   -5.4208    0.0000 C   0  0  0  0  0  0  0  0  0  0  0  0
    6.7956   -5.9208    0.0000 C   0  0  0  0  0  0  0  0  0  0  0  0
    6.2664    3.4390    0.0000 H   0  0  0  0  0  0  0  0  0  0  0  0
    6.1831    4.2317    0.0000 H   0  0  0  0  0  0  0  0  0  0  0  0
    3.7939    2.4958    0.0000 H   0  0  0  0  0  0  0  0  0  0  0  0
    4.5220    2.1716    0.0000 H   0  0  0  0  0  0  0  0  0  0  0  0
    5.7219    4.8665    0.0000 H   0  0  0  0  0  0  0  0  0  0  0  0
    4.9937    5.1907    0.0000 H   0  0  0  0  0  0  0  0  0  0  0  0
    3.2494    3.9233    0.0000 H   0  0  0  0  0  0  0  0  0  0  0  0
    3.3327    3.1306    0.0000 H   0  0  0  0  0  0  0  0  0  0  0  0
    6.4474    1.7164    0.0000 H   0  0  0  0  0  0  0  0  0  0  0  0
    6.3641    2.5091    0.0000 H   0  0  0  0  0  0  0  0  0  0  0  0
    5.0127    1.4963    0.0000 H   0  0  0  0  0  0  0  0  0  0  0  0
    5.0960    0.7036    0.0000 H   0  0  0  0  0  0  0  0  0  0  0  0
    6.6285   -0.0061    0.0000 H   0  0  0  0  0  0  0  0  0  0  0  0
    6.5452    0.7866    0.0000 H   0  0  0  0  0  0  0  0  0  0  0  0
    5.1938   -0.2263    0.0000 H   0  0  0  0  0  0  0  0  0  0  0  0
    5.2771   -1.0190    0.0000 H   0  0  0  0  0  0  0  0  0  0  0  0
    2.3356    4.6283    0.0000 H   0  0  0  0  0  0  0  0  0  0  0  0
    3.6534    7.5882    0.0000 H   0  0  0  0  0  0  0  0  0  0  0  0
    1.3834    5.9389    0.0000 H   0  0  0  0  0  0  0  0  0  0  0  0
    2.0423    7.4188    0.0000 H   0  0  0  0  0  0  0  0  0  0  0  0
    5.3969   -2.5246    0.0000 H   0  0  0  0  0  0  0  0  0  0  0  0
    5.9567    6.9786    0.0000 H   0  0  0  0  0  0  0  0  0  0  0  0
    5.6425    7.7972    0.0000 H   0  0  0  0  0  0  0  0  0  0  0  0
    4.8239    7.4830    0.0000 H   0  0  0  0  0  0  0  0  0  0  0  0
    5.3926   -4.1108    0.0000 H   0  0  0  0  0  0  0  0  0  0  0  0
    8.1985   -4.1108    0.0000 H   0  0  0  0  0  0  0  0  0  0  0  0
    5.3926   -5.7308    0.0000 H   0  0  0  0  0  0  0  0  0  0  0  0
    8.1985   -5.7308    0.0000 H   0  0  0  0  0  0  0  0  0  0  0  0
    7.3325   -7.2308    0.0000 H   0  0  0  0  0  0  0  0  0  0  0  0
    6.2586   -7.2308    0.0000 H   0  0  0  0  0  0  0  0  0  0  0  0
  1 17  1  0  0  0  0
  1 24  1  0  0  0  0
  2  8  1  0  0  0  0
  2  9  1  0  0  0  0
  2 12  1  0  0  0  0
  3 10  1  0  0  0  0
  3 11  1  0  0  0  0
  3 15  1  0  0  0  0
  4  5  1  0  0  0  0
  4 16  1  0  0  0  0
  4 22  1  0  0  0  0
  5  6  2  0  0  0  0
  6 23  1  0  0  0  0
  7 30  1  0  0  0  0
  7 59  1  0  0  0  0
  7 60  1  0  0  0  0
  8 10  1  0  0  0  0
  8 31  1  0  0  0  0
  8 32  1  0  0  0  0
  9 11  1  0  0  0  0
  9 33  1  0  0  0  0
  9 34  1  0  0  0  0
 10 35  1  0  0  0  0
 10 36  1  0  0  0  0
 11 37  1  0  0  0  0
 11 38  1  0  0  0  0
 12 13  1  0  0  0  0
 12 39  1  0  0  0  0
 12 40  1  0  0  0  0
 13 14  1  0  0  0  0
 13 41  1  0  0  0  0
 13 42  1  0  0  0  0
 14 16  1  0  0  0  0
 14 43  1  0  0  0  0
 14 44  1  0  0  0  0
 15 17  1  0  0  0  0
 15 18  2  0  0  0  0
 16 45  1  0  0  0  0
 16 46  1  0  0  0  0
 17 19  2  0  0  0  0
 18 20  1  0  0  0  0
 18 47  1  0  0  0  0
 19 21  1  0  0  0  0
 19 48  1  0  0  0  0
 20 21  2  0  0  0  0
 20 49  1  0  0  0  0
 21 50  1  0  0  0  0
 22 23  2  0  0  0  0
 22 51  1  0  0  0  0
 23 25  1  0  0  0  0
 24 52  1  0  0  0  0
 24 53  1  0  0  0  0
 24 54  1  0  0  0  0
 25 26  2  0  0  0  0
 25 27  1  0  0  0  0
 26 28  1  0  0  0  0
 26 55  1  0  0  0  0
 27 29  2  0  0  0  0
 27 56  1  0  0  0  0
 28 30  2  0  0  0  0
 28 57  1  0  0  0  0
 29 30  1  0  0  0  0
 29 58  1  0  0  0  0
M  END
> <PUBCHEM_COMPOUND_CID>
72191066

> <PUBCHEM_COMPOUND_CANONICALIZED>
1

> <PUBCHEM_CACTVS_COMPLEXITY>
492

> <PUBCHEM_CACTVS_HBOND_ACCEPTOR>
6

> <PUBCHEM_CACTVS_HBOND_DONOR>
1

> <PUBCHEM_CACTVS_ROTATABLE_BOND>
8

> <PUBCHEM_CACTVS_SUBSKEYS>
AAADceB7oAAAAAAAAAAAAAAAAAAAAWAAAAA8YIAAAAAAAAAB0AAAHgAYAAAADAzBngY+xpNIBACiAzRnRACCDAQxsgAY2CA/fJgOZqLEsZuVMChk0BHY6AeQwIAOCAAAAAAAEAAQAAAAAAAgAAAAAAAAAA==

> <PUBCHEM_IUPAC_OPENEYE_NAME>
4-[1-[4-[4-(2-methoxyphenyl)piperazin-1-yl]butyl]triazol-4-yl]aniline

> <PUBCHEM_IUPAC_CAS_NAME>
4-[1-[4-[4-(2-methoxyphenyl)-1-piperazinyl]butyl]-4-triazolyl]aniline

> <PUBCHEM_IUPAC_NAME_MARKUP>
4-[1-[4-[4-(2-methoxyphenyl)piperazin-1-yl]butyl]triazol-4-yl]aniline

> <PUBCHEM_IUPAC_NAME>
4-[1-[4-[4-(2-methoxyphenyl)piperazin-1-yl]butyl]triazol-4-yl]aniline

> <PUBCHEM_IUPAC_SYSTEMATIC_NAME>
4-[1-[4-[4-(2-methoxyphenyl)piperazin-1-yl]butyl]-1,2,3-triazol-4-yl]aniline

> <PUBCHEM_IUPAC_TRADITIONAL_NAME>
[4-[1-[4-[4-(2-methoxyphenyl)piperazino]butyl]triazol-4-yl]phenyl]amine

> <PUBCHEM_IUPAC_INCHI>
InChI=1S/C23H30N6O/c1-30-23-7-3-2-6-22(23)28-16-14-27(15-17-28)12-4-5-13-29-18-21(25-26-29)19-8-10-20(24)11-9-19/h2-3,6-11,18H,4-5,12-17,24H2,1H3

> <PUBCHEM_IUPAC_INCHIKEY>
XVXBOIQGBDSZFQ-UHFFFAOYSA-N

> <PUBCHEM_XLOGP3_AA>
2.9

> <PUBCHEM_EXACT_MASS>
406.24810960

> <PUBCHEM_MOLECULAR_FORMULA>
C23H30N6O

> <PUBCHEM_MOLECULAR_WEIGHT>
406.5

> <PUBCHEM_OPENEYE_CAN_SMILES>
COC1=CC=CC=C1N2CCN(CC2)CCCCN3C=C(N=N3)C4=CC=C(C=C4)N

> <PUBCHEM_OPENEYE_ISO_SMILES>
COC1=CC=CC=C1N2CCN(CC2)CCCCN3C=C(N=N3)C4=CC=C(C=C4)N

> <PUBCHEM_CACTVS_TPSA>
72.4

> <PUBCHEM_MONOISOTOPIC_WEIGHT>
406.24810960

> <PUBCHEM_TOTAL_CHARGE>
0

> <PUBCHEM_HEAVY_ATOM_COUNT>
30

> <PUBCHEM_ATOM_DEF_STEREO_COUNT>
0

> <PUBCHEM_ATOM_UDEF_STEREO_COUNT>
0

> <PUBCHEM_BOND_DEF_STEREO_COUNT>
0

> <PUBCHEM_BOND_UDEF_STEREO_COUNT>
0

> <PUBCHEM_ISOTOPIC_ATOM_COUNT>
0

> <PUBCHEM_COMPONENT_COUNT>
1

> <PUBCHEM_CACTVS_TAUTO_COUNT>
-1

> <PUBCHEM_COORDINATE_TYPE>
1
5
255

> <PUBCHEM_BONDANNOTATIONS>
15  17  8
15  18  8
17  19  8
18  20  8
19  21  8
20  21  8
22  23  8
25  26  8
25  27  8
26  28  8
27  29  8
28  30  8
29  30  8
4  22  8
4  5  8
5  6  8
6  23  8

$$$$
