45486329
  -OEChem-09292322292D

 70 74  0     1  0  0  0  0  0999 V2000
   15.9904   -0.5415    0.0000 O   0  0  0  0  0  0  0  0  0  0  0  0
   10.7282   -0.5173    0.0000 N   0  0  3  0  0  0  0  0  0  0  0  0
    8.1301   -0.0173    0.0000 N   0  0  0  0  0  0  0  0  0  0  0  0
    6.3981    0.9827    0.0000 N   0  0  0  0  0  0  0  0  0  0  0  0
   11.5942   -0.0173    0.0000 C   0  0  3  0  0  0  0  0  0  0  0  0
   11.5942    0.9827    0.0000 C   0  0  0  0  0  0  0  0  0  0  0  0
   12.4603   -0.5173    0.0000 C   0  0  0  0  0  0  0  0  0  0  0  0
    9.8622   -0.0173    0.0000 C   0  0  0  0  0  0  0  0  0  0  0  0
   12.4603    1.4827    0.0000 C   0  0  0  0  0  0  0  0  0  0  0  0
    8.9962   -0.5173    0.0000 C   0  0  0  0  0  0  0  0  0  0  0  0
   13.3263   -0.0173    0.0000 C   0  0  0  0  0  0  0  0  0  0  0  0
   10.7282   -1.5173    0.0000 C   0  0  0  0  0  0  0  0  0  0  0  0
   13.3263    0.9827    0.0000 C   0  0  0  0  0  0  0  0  0  0  0  0
    8.1301    0.9827    0.0000 C   0  0  0  0  0  0  0  0  0  0  0  0
    7.2641   -0.5173    0.0000 C   0  0  0  0  0  0  0  0  0  0  0  0
    7.2641    1.4827    0.0000 C   0  0  0  0  0  0  0  0  0  0  0  0
    6.3981   -0.0173    0.0000 C   0  0  0  0  0  0  0  0  0  0  0  0
    9.8622   -2.0173    0.0000 C   0  0  0  0  0  0  0  0  0  0  0  0
   14.2202   -0.5520    0.0000 C   0  0  0  0  0  0  0  0  0  0  0  0
   14.2202    1.5173    0.0000 C   0  0  0  0  0  0  0  0  0  0  0  0
    5.5321    1.4827    0.0000 C   0  0  0  0  0  0  0  0  0  0  0  0
   15.1263   -0.0381    0.0000 C   0  0  0  0  0  0  0  0  0  0  0  0
   15.1263    1.0035    0.0000 C   0  0  0  0  0  0  0  0  0  0  0  0
    9.8622   -3.0173    0.0000 C   0  0  0  0  0  0  0  0  0  0  0  0
    4.6660    0.9827    0.0000 C   0  0  0  0  0  0  0  0  0  0  0  0
    5.5321    2.4827    0.0000 C   0  0  0  0  0  0  0  0  0  0  0  0
    3.8000    1.4827    0.0000 C   0  0  0  0  0  0  0  0  0  0  0  0
    4.6660    2.9827    0.0000 C   0  0  0  0  0  0  0  0  0  0  0  0
    3.8000    2.4827    0.0000 C   0  0  0  0  0  0  0  0  0  0  0  0
    2.9061    0.9480    0.0000 C   0  0  0  0  0  0  0  0  0  0  0  0
    2.9061    3.0173    0.0000 C   0  0  0  0  0  0  0  0  0  0  0  0
    2.0000    1.4619    0.0000 C   0  0  0  0  0  0  0  0  0  0  0  0
    2.0000    2.5035    0.0000 C   0  0  0  0  0  0  0  0  0  0  0  0
   11.0573    0.2927    0.0000 H   0  0  0  0  0  0  0  0  0  0  0  0
   11.3822    1.5653    0.0000 H   0  0  0  0  0  0  0  0  0  0  0  0
   10.9837    0.8750    0.0000 H   0  0  0  0  0  0  0  0  0  0  0  0
   12.0617   -0.9923    0.0000 H   0  0  0  0  0  0  0  0  0  0  0  0
   12.8588   -0.9923    0.0000 H   0  0  0  0  0  0  0  0  0  0  0  0
   10.2607    0.4576    0.0000 H   0  0  0  0  0  0  0  0  0  0  0  0
    9.4637    0.4576    0.0000 H   0  0  0  0  0  0  0  0  0  0  0  0
   12.8588    1.9576    0.0000 H   0  0  0  0  0  0  0  0  0  0  0  0
   12.0617    1.9576    0.0000 H   0  0  0  0  0  0  0  0  0  0  0  0
    8.5976   -0.9923    0.0000 H   0  0  0  0  0  0  0  0  0  0  0  0
    9.3947   -0.9923    0.0000 H   0  0  0  0  0  0  0  0  0  0  0  0
   10.9403   -2.0999    0.0000 H   0  0  0  0  0  0  0  0  0  0  0  0
   11.3388   -1.4097    0.0000 H   0  0  0  0  0  0  0  0  0  0  0  0
    8.7407    0.8750    0.0000 H   0  0  0  0  0  0  0  0  0  0  0  0
    8.3422    1.5653    0.0000 H   0  0  0  0  0  0  0  0  0  0  0  0
    6.8656   -0.9923    0.0000 H   0  0  0  0  0  0  0  0  0  0  0  0
    7.6626   -0.9923    0.0000 H   0  0  0  0  0  0  0  0  0  0  0  0
    7.6626    1.9576    0.0000 H   0  0  0  0  0  0  0  0  0  0  0  0
    6.8656    1.9576    0.0000 H   0  0  0  0  0  0  0  0  0  0  0  0
    5.7875    0.0903    0.0000 H   0  0  0  0  0  0  0  0  0  0  0  0
    6.1860   -0.5999    0.0000 H   0  0  0  0  0  0  0  0  0  0  0  0
    9.6501   -1.4347    0.0000 H   0  0  0  0  0  0  0  0  0  0  0  0
    9.2516   -2.1250    0.0000 H   0  0  0  0  0  0  0  0  0  0  0  0
   14.2131   -1.1720    0.0000 H   0  0  0  0  0  0  0  0  0  0  0  0
   14.2131    2.1373    0.0000 H   0  0  0  0  0  0  0  0  0  0  0  0
   15.6620    1.3156    0.0000 H   0  0  0  0  0  0  0  0  0  0  0  0
    9.2422   -3.0173    0.0000 H   0  0  0  0  0  0  0  0  0  0  0  0
    9.8622   -3.6373    0.0000 H   0  0  0  0  0  0  0  0  0  0  0  0
   10.4822   -3.0173    0.0000 H   0  0  0  0  0  0  0  0  0  0  0  0
    4.6660    0.3627    0.0000 H   0  0  0  0  0  0  0  0  0  0  0  0
    6.0690    2.7927    0.0000 H   0  0  0  0  0  0  0  0  0  0  0  0
    4.6660    3.6027    0.0000 H   0  0  0  0  0  0  0  0  0  0  0  0
   16.5285   -0.2336    0.0000 H   0  0  0  0  0  0  0  0  0  0  0  0
    2.9132    0.3280    0.0000 H   0  0  0  0  0  0  0  0  0  0  0  0
    2.9132    3.6373    0.0000 H   0  0  0  0  0  0  0  0  0  0  0  0
    1.4643    1.1498    0.0000 H   0  0  0  0  0  0  0  0  0  0  0  0
    1.4643    2.8156    0.0000 H   0  0  0  0  0  0  0  0  0  0  0  0
  1 22  1  0  0  0  0
  1 66  1  0  0  0  0
  2  5  1  0  0  0  0
  2  8  1  0  0  0  0
  2 12  1  0  0  0  0
  3 10  1  0  0  0  0
  3 14  1  0  0  0  0
  3 15  1  0  0  0  0
  4 16  1  0  0  0  0
  4 17  1  0  0  0  0
  4 21  1  0  0  0  0
  5  6  1  0  0  0  0
  5  7  1  0  0  0  0
  5 34  1  0  0  0  0
  6  9  1  0  0  0  0
  6 35  1  0  0  0  0
  6 36  1  0  0  0  0
  7 11  1  0  0  0  0
  7 37  1  0  0  0  0
  7 38  1  0  0  0  0
  8 10  1  0  0  0  0
  8 39  1  0  0  0  0
  8 40  1  0  0  0  0
  9 13  1  0  0  0  0
  9 41  1  0  0  0  0
  9 42  1  0  0  0  0
 10 43  1  0  0  0  0
 10 44  1  0  0  0  0
 11 13  2  0  0  0  0
 11 19  1  0  0  0  0
 12 18  1  0  0  0  0
 12 45  1  0  0  0  0
 12 46  1  0  0  0  0
 13 20  1  0  0  0  0
 14 16  1  0  0  0  0
 14 47  1  0  0  0  0
 14 48  1  0  0  0  0
 15 17  1  0  0  0  0
 15 49  1  0  0  0  0
 15 50  1  0  0  0  0
 16 51  1  0  0  0  0
 16 52  1  0  0  0  0
 17 53  1  0  0  0  0
 17 54  1  0  0  0  0
 18 24  1  0  0  0  0
 18 55  1  0  0  0  0
 18 56  1  0  0  0  0
 19 22  2  0  0  0  0
 19 57  1  0  0  0  0
 20 23  2  0  0  0  0
 20 58  1  0  0  0  0
 21 25  2  0  0  0  0
 21 26  1  0  0  0  0
 22 23  1  0  0  0  0
 23 59  1  0  0  0  0
 24 60  1  0  0  0  0
 24 61  1  0  0  0  0
 24 62  1  0  0  0  0
 25 27  1  0  0  0  0
 25 63  1  0  0  0  0
 26 28  2  0  0  0  0
 26 64  1  0  0  0  0
 27 29  1  0  0  0  0
 27 30  2  0  0  0  0
 28 29  1  0  0  0  0
 28 65  1  0  0  0  0
 29 31  2  0  0  0  0
 30 32  1  0  0  0  0
 30 67  1  0  0  0  0
 31 33  1  0  0  0  0
 31 68  1  0  0  0  0
 32 33  2  0  0  0  0
 32 69  1  0  0  0  0
 33 70  1  0  0  0  0
M  END
> <PUBCHEM_COMPOUND_CID>
45486329

> <PUBCHEM_COMPOUND_CANONICALIZED>
1

> <PUBCHEM_CACTVS_COMPLEXITY>
591

> <PUBCHEM_CACTVS_HBOND_ACCEPTOR>
4

> <PUBCHEM_CACTVS_HBOND_DONOR>
1

> <PUBCHEM_CACTVS_ROTATABLE_BOND>
7

> <PUBCHEM_CACTVS_SUBSKEYS>
AAADcfB7IAAAAAAAAAAAAAAAAAAAAAAAAAA8YMGCAAAAAADBVAAAHgAACAAADCzBmAQyxsMAAgCAAiRCQACCAAAhIgAIiAAObIgIZiLCkZOUcAhkwBHI2AeQ0LMOqAABQAAQAABQAAKAACAAAAAAAAAAAA==

> <PUBCHEM_IUPAC_OPENEYE_NAME>
3-[2-[4-(2-naphthyl)piperazin-1-yl]ethyl-propyl-amino]tetralin-6-ol

> <PUBCHEM_IUPAC_CAS_NAME>
7-[2-[4-(2-naphthalenyl)-1-piperazinyl]ethyl-propylamino]-5,6,7,8-tetrahydronaphthalen-2-ol

> <PUBCHEM_IUPAC_NAME_MARKUP>
7-[2-(4-naphthalen-2-ylpiperazin-1-yl)ethyl-propylamino]-5,6,7,8-tetrahydronaphthalen-2-ol

> <PUBCHEM_IUPAC_NAME>
7-[2-(4-naphthalen-2-ylpiperazin-1-yl)ethyl-propylamino]-5,6,7,8-tetrahydronaphthalen-2-ol

> <PUBCHEM_IUPAC_SYSTEMATIC_NAME>
7-[2-(4-naphthalen-2-ylpiperazin-1-yl)ethyl-propyl-amino]-5,6,7,8-tetrahydronaphthalen-2-ol

> <PUBCHEM_IUPAC_TRADITIONAL_NAME>
3-[2-[4-(2-naphthyl)piperazino]ethyl-propyl-amino]tetralin-6-ol

> <PUBCHEM_IUPAC_INCHI>
InChI=1S/C29H37N3O/c1-2-13-31(28-11-8-24-9-12-29(33)22-26(24)21-28)17-14-30-15-18-32(19-16-30)27-10-7-23-5-3-4-6-25(23)20-27/h3-7,9-10,12,20,22,28,33H,2,8,11,13-19,21H2,1H3

> <PUBCHEM_IUPAC_INCHIKEY>
UUXJEWIMBQSYJG-UHFFFAOYSA-N

> <PUBCHEM_XLOGP3_AA>
6.1

> <PUBCHEM_EXACT_MASS>
443.293662812

> <PUBCHEM_MOLECULAR_FORMULA>
C29H37N3O

> <PUBCHEM_MOLECULAR_WEIGHT>
443.6

> <PUBCHEM_OPENEYE_CAN_SMILES>
CCCN(CCN1CCN(CC1)C2=CC3=CC=CC=C3C=C2)C4CCC5=C(C4)C=C(C=C5)O

> <PUBCHEM_OPENEYE_ISO_SMILES>
CCCN(CCN1CCN(CC1)C2=CC3=CC=CC=C3C=C2)C4CCC5=C(C4)C=C(C=C5)O

> <PUBCHEM_CACTVS_TPSA>
30

> <PUBCHEM_MONOISOTOPIC_WEIGHT>
443.293662812

> <PUBCHEM_TOTAL_CHARGE>
0

> <PUBCHEM_HEAVY_ATOM_COUNT>
33

> <PUBCHEM_ATOM_DEF_STEREO_COUNT>
0

> <PUBCHEM_ATOM_UDEF_STEREO_COUNT>
1

> <PUBCHEM_BOND_DEF_STEREO_COUNT>
0

> <PUBCHEM_BOND_UDEF_STEREO_COUNT>
0

> <PUBCHEM_ISOTOPIC_ATOM_COUNT>
0

> <PUBCHEM_COMPONENT_COUNT>
1

> <PUBCHEM_CACTVS_TAUTO_COUNT>
-1

> <PUBCHEM_COORDINATE_TYPE>
1
5
255

> <PUBCHEM_BONDANNOTATIONS>
11  13  8
11  19  8
13  20  8
19  22  8
5  2  3
20  23  8
21  25  8
21  26  8
22  23  8
25  27  8
26  28  8
27  29  8
27  30  8
28  29  8
29  31  8
30  32  8
31  33  8
32  33  8

$$$$
