24901284
  -OEChem-09292322042D

 65 68  0     1  0  0  0  0  0999 V2000
    2.8660    4.6550    0.0000 Cl  0  0  0  0  0  0  0  0  0  0  0  0
    4.5981    7.6550    0.0000 Cl  0  0  0  0  0  0  0  0  0  0  0  0
   11.6065   -4.5403    0.0000 S   0  0  0  0  0  0  0  0  0  0  0  0
   10.6603   -2.8450    0.0000 O   0  0  0  0  0  0  0  0  0  0  0  0
    9.7942   -7.3450    0.0000 O   0  0  0  0  0  0  0  0  0  0  0  0
   13.1901   -5.3450    0.0000 O   0  0  0  0  0  0  0  0  0  0  0  0
    8.9282   -1.8450    0.0000 N   0  0  0  0  0  0  0  0  0  0  0  0
    5.4641    4.1550    0.0000 N   0  0  0  0  0  0  0  0  0  0  0  0
   11.6065   -6.1497    0.0000 N   0  0  0  0  0  0  0  0  0  0  0  0
    8.0622   -0.3450    0.0000 C   0  0  0  0  0  0  0  0  0  0  0  0
    9.7942   -3.3450    0.0000 C   0  0  1  0  0  0  0  0  0  0  0  0
    8.0622   -1.3450    0.0000 C   0  0  0  0  0  0  0  0  0  0  0  0
    8.9282   -2.8450    0.0000 C   0  0  0  0  0  0  0  0  0  0  0  0
    7.1962    0.1550    0.0000 C   0  0  0  0  0  0  0  0  0  0  0  0
    9.7942   -4.3450    0.0000 C   0  0  0  0  0  0  0  0  0  0  0  0
    7.1962    1.1550    0.0000 C   0  0  0  0  0  0  0  0  0  0  0  0
   10.6603   -4.8450    0.0000 C   0  0  0  0  0  0  0  0  0  0  0  0
    6.3301    2.6550    0.0000 C   0  0  0  0  0  0  0  0  0  0  0  0
    6.3301    1.6550    0.0000 C   0  0  0  0  0  0  0  0  0  0  0  0
   10.6603   -5.8450    0.0000 C   0  0  0  0  0  0  0  0  0  0  0  0
    5.4641    3.1550    0.0000 C   0  0  0  0  0  0  0  0  0  0  0  0
    8.9282   -4.8450    0.0000 C   0  0  0  0  0  0  0  0  0  0  0  0
    8.0622    1.6550    0.0000 C   0  0  0  0  0  0  0  0  0  0  0  0
    4.5981    4.6550    0.0000 C   0  0  0  0  0  0  0  0  0  0  0  0
    9.7942   -6.3450    0.0000 C   0  0  0  0  0  0  0  0  0  0  0  0
    7.1962    3.1550    0.0000 C   0  0  0  0  0  0  0  0  0  0  0  0
    8.9282   -5.8450    0.0000 C   0  0  0  0  0  0  0  0  0  0  0  0
    4.5981    5.6550    0.0000 C   0  0  0  0  0  0  0  0  0  0  0  0
    8.0622    2.6550    0.0000 C   0  0  0  0  0  0  0  0  0  0  0  0
   12.1901   -5.3450    0.0000 C   0  0  0  0  0  0  0  0  0  0  0  0
    3.7320    6.1550    0.0000 C   0  0  0  0  0  0  0  0  0  0  0  0
    2.8660    5.6550    0.0000 C   0  0  0  0  0  0  0  0  0  0  0  0
    3.7320    7.1550    0.0000 C   0  0  0  0  0  0  0  0  0  0  0  0
    2.0000    6.1550    0.0000 C   0  0  0  0  0  0  0  0  0  0  0  0
    2.8660    7.6550    0.0000 C   0  0  0  0  0  0  0  0  0  0  0  0
    2.0000    7.1550    0.0000 C   0  0  0  0  0  0  0  0  0  0  0  0
    8.6728   -0.4527    0.0000 H   0  0  0  0  0  0  0  0  0  0  0  0
    8.2742    0.2376    0.0000 H   0  0  0  0  0  0  0  0  0  0  0  0
    9.7942   -2.7250    0.0000 H   0  0  0  0  0  0  0  0  0  0  0  0
    7.4516   -1.2373    0.0000 H   0  0  0  0  0  0  0  0  0  0  0  0
    7.8501   -1.9276    0.0000 H   0  0  0  0  0  0  0  0  0  0  0  0
    8.3176   -2.7373    0.0000 H   0  0  0  0  0  0  0  0  0  0  0  0
    8.7162   -3.4276    0.0000 H   0  0  0  0  0  0  0  0  0  0  0  0
    6.5856    0.2627    0.0000 H   0  0  0  0  0  0  0  0  0  0  0  0
    6.9841   -0.4276    0.0000 H   0  0  0  0  0  0  0  0  0  0  0  0
    9.4651   -1.5350    0.0000 H   0  0  0  0  0  0  0  0  0  0  0  0
    5.7932    1.3450    0.0000 H   0  0  0  0  0  0  0  0  0  0  0  0
    4.8535    3.2627    0.0000 H   0  0  0  0  0  0  0  0  0  0  0  0
    5.2520    2.5724    0.0000 H   0  0  0  0  0  0  0  0  0  0  0  0
    8.3913   -4.5350    0.0000 H   0  0  0  0  0  0  0  0  0  0  0  0
    8.5991    1.3450    0.0000 H   0  0  0  0  0  0  0  0  0  0  0  0
    3.9875    4.7627    0.0000 H   0  0  0  0  0  0  0  0  0  0  0  0
    4.3860    4.0724    0.0000 H   0  0  0  0  0  0  0  0  0  0  0  0
    6.0010    4.4650    0.0000 H   0  0  0  0  0  0  0  0  0  0  0  0
    7.1962    3.7750    0.0000 H   0  0  0  0  0  0  0  0  0  0  0  0
    8.3913   -6.1550    0.0000 H   0  0  0  0  0  0  0  0  0  0  0  0
    5.2087    5.5473    0.0000 H   0  0  0  0  0  0  0  0  0  0  0  0
    4.8101    6.2376    0.0000 H   0  0  0  0  0  0  0  0  0  0  0  0
    8.5991    2.9650    0.0000 H   0  0  0  0  0  0  0  0  0  0  0  0
   10.6603   -2.2250    0.0000 H   0  0  0  0  0  0  0  0  0  0  0  0
   11.7991   -6.7391    0.0000 H   0  0  0  0  0  0  0  0  0  0  0  0
    9.2573   -7.6550    0.0000 H   0  0  0  0  0  0  0  0  0  0  0  0
    1.4631    5.8450    0.0000 H   0  0  0  0  0  0  0  0  0  0  0  0
    2.8660    8.2750    0.0000 H   0  0  0  0  0  0  0  0  0  0  0  0
    1.4631    7.4650    0.0000 H   0  0  0  0  0  0  0  0  0  0  0  0
  1 32  1  0  0  0  0
  2 33  1  0  0  0  0
  3 17  1  0  0  0  0
  3 30  1  0  0  0  0
 11  4  1  6  0  0  0
  4 60  1  0  0  0  0
  5 25  1  0  0  0  0
  5 62  1  0  0  0  0
  6 30  2  0  0  0  0
  7 12  1  0  0  0  0
  7 13  1  0  0  0  0
  7 46  1  0  0  0  0
  8 21  1  0  0  0  0
  8 24  1  0  0  0  0
  8 54  1  0  0  0  0
  9 20  1  0  0  0  0
  9 30  1  0  0  0  0
  9 61  1  0  0  0  0
 10 12  1  0  0  0  0
 10 14  1  0  0  0  0
 10 37  1  0  0  0  0
 10 38  1  0  0  0  0
 11 13  1  0  0  0  0
 11 15  1  0  0  0  0
 11 39  1  0  0  0  0
 12 40  1  0  0  0  0
 12 41  1  0  0  0  0
 13 42  1  0  0  0  0
 13 43  1  0  0  0  0
 14 16  1  0  0  0  0
 14 44  1  0  0  0  0
 14 45  1  0  0  0  0
 15 17  2  0  0  0  0
 15 22  1  0  0  0  0
 16 19  2  0  0  0  0
 16 23  1  0  0  0  0
 17 20  1  0  0  0  0
 18 19  1  0  0  0  0
 18 21  1  0  0  0  0
 18 26  2  0  0  0  0
 19 47  1  0  0  0  0
 20 25  2  0  0  0  0
 21 48  1  0  0  0  0
 21 49  1  0  0  0  0
 22 27  2  0  0  0  0
 22 50  1  0  0  0  0
 23 29  2  0  0  0  0
 23 51  1  0  0  0  0
 24 28  1  0  0  0  0
 24 52  1  0  0  0  0
 24 53  1  0  0  0  0
 25 27  1  0  0  0  0
 26 29  1  0  0  0  0
 26 55  1  0  0  0  0
 27 56  1  0  0  0  0
 28 31  1  0  0  0  0
 28 57  1  0  0  0  0
 28 58  1  0  0  0  0
 29 59  1  0  0  0  0
 31 32  2  0  0  0  0
 31 33  1  0  0  0  0
 32 34  1  0  0  0  0
 33 35  2  0  0  0  0
 34 36  2  0  0  0  0
 34 63  1  0  0  0  0
 35 36  1  0  0  0  0
 35 64  1  0  0  0  0
 36 65  1  0  0  0  0
M  END
> <PUBCHEM_COMPOUND_CID>
24901284

> <PUBCHEM_COMPOUND_CANONICALIZED>
1

> <PUBCHEM_CACTVS_COMPLEXITY>
683

> <PUBCHEM_CACTVS_HBOND_ACCEPTOR>
6

> <PUBCHEM_CACTVS_HBOND_DONOR>
5

> <PUBCHEM_CACTVS_ROTATABLE_BOND>
12

> <PUBCHEM_CACTVS_SUBSKEYS>
AAADceB7MABGAAAAAAAAAAAAAAAAAWAAAAAwYMAAAAAAAFgBUAAAHgYQCAAADB7h2CYwx4LAAgiIAiRCUACCAABhLRAIiJQPTogKNiLzk5OEcAhk1BHY2Aew4OQOIAACRACFEQBAAASIAQoiAAAAAAAAAA==

> <PUBCHEM_IUPAC_OPENEYE_NAME>
7-[(1R)-2-[3-[3-[[2-(2,6-dichlorophenyl)ethylamino]methyl]phenyl]propylamino]-1-hydroxy-ethyl]-4-hydroxy-3H-1,3-benzothiazol-2-one

> <PUBCHEM_IUPAC_CAS_NAME>
7-[(1R)-2-[3-[3-[[2-(2,6-dichlorophenyl)ethylamino]methyl]phenyl]propylamino]-1-hydroxyethyl]-4-hydroxy-3H-1,3-benzothiazol-2-one

> <PUBCHEM_IUPAC_NAME_MARKUP>
7-[(1<I>R</I>)-2-[3-[3-[[2-(2,6-dichlorophenyl)ethylamino]methyl]phenyl]propylamino]-1-hydroxyethyl]-4-hydroxy-3<I>H</I>-1,3-benzothiazol-2-one

> <PUBCHEM_IUPAC_NAME>
7-[(1R)-2-[3-[3-[[2-(2,6-dichlorophenyl)ethylamino]methyl]phenyl]propylamino]-1-hydroxyethyl]-4-hydroxy-3H-1,3-benzothiazol-2-one

> <PUBCHEM_IUPAC_SYSTEMATIC_NAME>
7-[(1R)-2-[3-[3-[[2-[2,6-bis(chloranyl)phenyl]ethylamino]methyl]phenyl]propylamino]-1-oxidanyl-ethyl]-4-oxidanyl-3H-1,3-benzothiazol-2-one

> <PUBCHEM_IUPAC_TRADITIONAL_NAME>
7-[(1R)-2-[3-[3-[[2-(2,6-dichlorophenyl)ethylamino]methyl]phenyl]propylamino]-1-hydroxy-ethyl]-4-hydroxy-3H-1,3-benzothiazol-2-one

> <PUBCHEM_IUPAC_INCHI>
InChI=1S/C27H29Cl2N3O3S/c28-21-7-2-8-22(29)19(21)11-13-31-15-18-5-1-4-17(14-18)6-3-12-30-16-24(34)20-9-10-23(33)25-26(20)36-27(35)32-25/h1-2,4-5,7-10,14,24,30-31,33-34H,3,6,11-13,15-16H2,(H,32,35)/t24-/m0/s1

> <PUBCHEM_IUPAC_INCHIKEY>
ZKYKDCNIQRGNPZ-DEOSSOPVSA-N

> <PUBCHEM_XLOGP3_AA>
4.9

> <PUBCHEM_EXACT_MASS>
545.1306684

> <PUBCHEM_MOLECULAR_FORMULA>
C27H29Cl2N3O3S

> <PUBCHEM_MOLECULAR_WEIGHT>
546.5

> <PUBCHEM_OPENEYE_CAN_SMILES>
C1=CC(=CC(=C1)CNCCC2=C(C=CC=C2Cl)Cl)CCCNCC(C3=C4C(=C(C=C3)O)NC(=O)S4)O

> <PUBCHEM_OPENEYE_ISO_SMILES>
C1=CC(=CC(=C1)CNCCC2=C(C=CC=C2Cl)Cl)CCCNC[C@@H](C3=C4C(=C(C=C3)O)NC(=O)S4)O

> <PUBCHEM_CACTVS_TPSA>
119

> <PUBCHEM_MONOISOTOPIC_WEIGHT>
545.1306684

> <PUBCHEM_TOTAL_CHARGE>
0

> <PUBCHEM_HEAVY_ATOM_COUNT>
36

> <PUBCHEM_ATOM_DEF_STEREO_COUNT>
1

> <PUBCHEM_ATOM_UDEF_STEREO_COUNT>
0

> <PUBCHEM_BOND_DEF_STEREO_COUNT>
0

> <PUBCHEM_BOND_UDEF_STEREO_COUNT>
0

> <PUBCHEM_ISOTOPIC_ATOM_COUNT>
0

> <PUBCHEM_COMPONENT_COUNT>
1

> <PUBCHEM_CACTVS_TAUTO_COUNT>
-1

> <PUBCHEM_COORDINATE_TYPE>
1
5
255

> <PUBCHEM_BONDANNOTATIONS>
15  17  8
15  22  8
16  19  8
16  23  8
17  20  8
18  19  8
18  26  8
20  25  8
22  27  8
23  29  8
25  27  8
26  29  8
3  17  8
3  30  8
31  32  8
31  33  8
32  34  8
33  35  8
34  36  8
35  36  8
11  4  6
9  20  8
9  30  8

$$$$
