71508866
  -OEChem-09292322062D

 69 74  0     1  0  0  0  0  0999 V2000
   10.0800   -6.5407    0.0000 O   0  0  0  0  0  0  0  0  0  0  0  0
   11.5319   -5.7025    0.0000 O   0  0  0  0  0  0  0  0  0  0  0  0
    5.3945   -0.8815    0.0000 O   0  0  0  0  0  0  0  0  0  0  0  0
    3.5750   -1.9133    0.0000 O   0  0  0  0  0  0  0  0  0  0  0  0
    3.6626   -0.8615    0.0000 O   0  0  0  0  0  0  0  0  0  0  0  0
    5.4523    4.1182    0.0000 O   0  0  0  0  0  0  0  0  0  0  0  0
    3.7319    5.1381    0.0000 O   0  0  0  0  0  0  0  0  0  0  0  0
    2.0000    5.1582    0.0000 O   0  0  0  0  0  0  0  0  0  0  0  0
    8.1141   -2.4592    0.0000 N   0  0  3  0  0  0  0  0  0  0  0  0
    8.1141   -3.4592    0.0000 C   0  0  3  0  0  0  0  0  0  0  0  0
    7.2202   -3.9938    0.0000 C   0  0  0  0  0  0  0  0  0  0  0  0
    8.9801   -3.9592    0.0000 C   0  0  0  0  0  0  0  0  0  0  0  0
    8.9801   -1.9592    0.0000 C   0  0  0  0  0  0  0  0  0  0  0  0
    7.2202   -1.9245    0.0000 C   0  0  0  0  0  0  0  0  0  0  0  0
    9.8461   -2.4592    0.0000 C   0  0  0  0  0  0  0  0  0  0  0  0
    9.8461   -3.4592    0.0000 C   0  0  0  0  0  0  0  0  0  0  0  0
    6.3141   -3.4800    0.0000 C   0  0  0  0  0  0  0  0  0  0  0  0
    6.3141   -2.4383    0.0000 C   0  0  0  0  0  0  0  0  0  0  0  0
    8.9641   -5.0007    0.0000 C   0  0  0  0  0  0  0  0  0  0  0  0
   10.7561   -3.9660    0.0000 C   0  0  0  0  0  0  0  0  0  0  0  0
    5.3829   -1.8814    0.0000 C   0  0  0  0  0  0  0  0  0  0  0  0
    5.3829   -4.0369    0.0000 C   0  0  0  0  0  0  0  0  0  0  0  0
    9.8621   -5.5284    0.0000 C   0  0  0  0  0  0  0  0  0  0  0  0
   10.7642   -5.0076    0.0000 C   0  0  0  0  0  0  0  0  0  0  0  0
    4.4391   -2.4167    0.0000 C   0  0  0  0  0  0  0  0  0  0  0  0
    4.4391   -3.5017    0.0000 C   0  0  0  0  0  0  0  0  0  0  0  0
   11.1099   -6.6480    0.0000 C   0  0  0  0  0  0  0  0  0  0  0  0
    4.5343   -0.3715    0.0000 C   0  0  0  0  0  0  0  0  0  0  0  0
    2.7071   -2.4100    0.0000 C   0  0  0  0  0  0  0  0  0  0  0  0
    4.5459    0.6284    0.0000 C   0  0  0  0  0  0  0  0  0  0  0  0
    3.6857    1.1384    0.0000 C   0  0  0  0  0  0  0  0  0  0  0  0
    3.6972    2.1383    0.0000 C   0  0  0  0  0  0  0  0  0  0  0  0
    4.5690    2.6283    0.0000 C   0  0  0  0  0  0  0  0  0  0  0  0
    2.8371    2.6483    0.0000 C   0  0  0  0  0  0  0  0  0  0  0  0
    4.5806    3.6282    0.0000 C   0  0  0  0  0  0  0  0  0  0  0  0
    2.8486    3.6482    0.0000 C   0  0  0  0  0  0  0  0  0  0  0  0
    3.7204    4.1382    0.0000 C   0  0  0  0  0  0  0  0  0  0  0  0
    5.4639    5.1181    0.0000 C   0  0  0  0  0  0  0  0  0  0  0  0
    2.8718    5.6481    0.0000 C   0  0  0  0  0  0  0  0  0  0  0  0
    2.8833    6.6480    0.0000 C   0  0  0  0  0  0  0  0  0  0  0  0
    8.1189   -4.0792    0.0000 H   0  0  0  0  0  0  0  0  0  0  0  0
    6.8265   -4.4728    0.0000 H   0  0  0  0  0  0  0  0  0  0  0  0
    7.6248   -4.4636    0.0000 H   0  0  0  0  0  0  0  0  0  0  0  0
    9.3786   -1.4842    0.0000 H   0  0  0  0  0  0  0  0  0  0  0  0
    8.5816   -1.4842    0.0000 H   0  0  0  0  0  0  0  0  0  0  0  0
    7.6248   -1.4547    0.0000 H   0  0  0  0  0  0  0  0  0  0  0  0
    6.8265   -1.4455    0.0000 H   0  0  0  0  0  0  0  0  0  0  0  0
   10.4567   -2.5668    0.0000 H   0  0  0  0  0  0  0  0  0  0  0  0
   10.0582   -1.8766    0.0000 H   0  0  0  0  0  0  0  0  0  0  0  0
    8.4236   -5.3044    0.0000 H   0  0  0  0  0  0  0  0  0  0  0  0
   11.2895   -3.6498    0.0000 H   0  0  0  0  0  0  0  0  0  0  0  0
    5.3901   -4.6569    0.0000 H   0  0  0  0  0  0  0  0  0  0  0  0
    3.9034   -3.8137    0.0000 H   0  0  0  0  0  0  0  0  0  0  0  0
   10.9812   -7.2545    0.0000 H   0  0  0  0  0  0  0  0  0  0  0  0
   11.6995   -6.8398    0.0000 H   0  0  0  0  0  0  0  0  0  0  0  0
    2.3992   -1.8719    0.0000 H   0  0  0  0  0  0  0  0  0  0  0  0
    2.1690   -2.7179    0.0000 H   0  0  0  0  0  0  0  0  0  0  0  0
    3.0150   -2.9481    0.0000 H   0  0  0  0  0  0  0  0  0  0  0  0
    5.0864    0.9322    0.0000 H   0  0  0  0  0  0  0  0  0  0  0  0
    3.1452    0.8346    0.0000 H   0  0  0  0  0  0  0  0  0  0  0  0
    5.1023    2.3121    0.0000 H   0  0  0  0  0  0  0  0  0  0  0  0
    2.2966    2.3445    0.0000 H   0  0  0  0  0  0  0  0  0  0  0  0
    2.3153    3.9644    0.0000 H   0  0  0  0  0  0  0  0  0  0  0  0
    6.0838    5.1109    0.0000 H   0  0  0  0  0  0  0  0  0  0  0  0
    5.4710    5.7381    0.0000 H   0  0  0  0  0  0  0  0  0  0  0  0
    4.8439    5.1253    0.0000 H   0  0  0  0  0  0  0  0  0  0  0  0
    3.5033    6.6409    0.0000 H   0  0  0  0  0  0  0  0  0  0  0  0
    2.8905    7.2680    0.0000 H   0  0  0  0  0  0  0  0  0  0  0  0
    2.2634    6.6552    0.0000 H   0  0  0  0  0  0  0  0  0  0  0  0
  1 23  1  0  0  0  0
  1 27  1  0  0  0  0
  2 24  1  0  0  0  0
  2 27  1  0  0  0  0
  3 21  1  0  0  0  0
  3 28  1  0  0  0  0
  4 25  1  0  0  0  0
  4 29  1  0  0  0  0
  5 28  2  0  0  0  0
  6 35  1  0  0  0  0
  6 38  1  0  0  0  0
  7 37  1  0  0  0  0
  7 39  1  0  0  0  0
  8 39  2  0  0  0  0
  9 10  1  0  0  0  0
  9 13  1  0  0  0  0
  9 14  1  0  0  0  0
 10 11  1  0  0  0  0
 10 12  1  0  0  0  0
 10 41  1  0  0  0  0
 11 17  1  0  0  0  0
 11 42  1  0  0  0  0
 11 43  1  0  0  0  0
 12 16  1  0  0  0  0
 12 19  2  0  0  0  0
 13 15  1  0  0  0  0
 13 44  1  0  0  0  0
 13 45  1  0  0  0  0
 14 18  1  0  0  0  0
 14 46  1  0  0  0  0
 14 47  1  0  0  0  0
 15 16  1  0  0  0  0
 15 48  1  0  0  0  0
 15 49  1  0  0  0  0
 16 20  2  0  0  0  0
 17 18  2  0  0  0  0
 17 22  1  0  0  0  0
 18 21  1  0  0  0  0
 19 23  1  0  0  0  0
 19 50  1  0  0  0  0
 20 24  1  0  0  0  0
 20 51  1  0  0  0  0
 21 25  2  0  0  0  0
 22 26  2  0  0  0  0
 22 52  1  0  0  0  0
 23 24  2  0  0  0  0
 25 26  1  0  0  0  0
 26 53  1  0  0  0  0
 27 54  1  0  0  0  0
 27 55  1  0  0  0  0
 28 30  1  0  0  0  0
 29 56  1  0  0  0  0
 29 57  1  0  0  0  0
 29 58  1  0  0  0  0
 30 31  2  0  0  0  0
 30 59  1  0  0  0  0
 31 32  1  0  0  0  0
 31 60  1  0  0  0  0
 32 33  2  0  0  0  0
 32 34  1  0  0  0  0
 33 35  1  0  0  0  0
 33 61  1  0  0  0  0
 34 36  2  0  0  0  0
 34 62  1  0  0  0  0
 35 37  2  0  0  0  0
 36 37  1  0  0  0  0
 36 63  1  0  0  0  0
 38 64  1  0  0  0  0
 38 65  1  0  0  0  0
 38 66  1  0  0  0  0
 39 40  1  0  0  0  0
 40 67  1  0  0  0  0
 40 68  1  0  0  0  0
 40 69  1  0  0  0  0
M  END
> <PUBCHEM_COMPOUND_CID>
71508866

> <PUBCHEM_COMPOUND_CANONICALIZED>
1

> <PUBCHEM_CACTVS_COMPLEXITY>
942

> <PUBCHEM_CACTVS_HBOND_ACCEPTOR>
9

> <PUBCHEM_CACTVS_HBOND_DONOR>
0

> <PUBCHEM_CACTVS_ROTATABLE_BOND>
8

> <PUBCHEM_CACTVS_SUBSKEYS>
AAADceB6PAAAAAAAAAAAAAAAAAAAASAAAAA8eMECAAAAAEixUAAAHgAAAAAADCzBmAcyDoMABACIAiDSCACCCAAgIAAIiAAOjMgdJiKEsRumOirmwBGOqYew0PMOoAABAAAYQABAAAIAADCAAAAAAAAAAA==

> <PUBCHEM_IUPAC_OPENEYE_NAME>
(17-methoxy-5,7-dioxa-13-azapentacyclo[11.8.0.02,10.04,8.015,20]henicosa-2,4(8),9,15(20),16,18-hexaen-16-yl) (E)-3-(4-acetoxy-3-methoxy-phenyl)prop-2-enoate

> <PUBCHEM_IUPAC_CAS_NAME>
(E)-3-(4-acetyloxy-3-methoxyphenyl)-2-propenoic acid (17-methoxy-5,7-dioxa-13-azapentacyclo[11.8.0.02,10.04,8.015,20]heneicosa-2,4(8),9,15(20),16,18-hexaen-16-yl) ester

> <PUBCHEM_IUPAC_NAME_MARKUP>
(17-methoxy-5,7-dioxa-13-azapentacyclo[11.8.0.0<SUP>2,10</SUP>.0<SUP>4,8</SUP>.0<SUP>15,20</SUP>]henicosa-2,4(8),9,15(20),16,18-hexaen-16-yl) (<I>E</I>)-3-(4-acetyloxy-3-methoxyphenyl)prop-2-enoate

> <PUBCHEM_IUPAC_NAME>
(17-methoxy-5,7-dioxa-13-azapentacyclo[11.8.0.02,10.04,8.015,20]henicosa-2,4(8),9,15(20),16,18-hexaen-16-yl) (E)-3-(4-acetyloxy-3-methoxyphenyl)prop-2-enoate

> <PUBCHEM_IUPAC_SYSTEMATIC_NAME>
(17-methoxy-5,7-dioxa-13-azapentacyclo[11.8.0.02,10.04,8.015,20]henicosa-2,4(8),9,15(20),16,18-hexaen-16-yl) (E)-3-(4-acetyloxy-3-methoxy-phenyl)prop-2-enoate

> <PUBCHEM_IUPAC_TRADITIONAL_NAME>
(E)-3-(4-acetoxy-3-methoxy-phenyl)acrylic acid (17-methoxy-5,7-dioxa-13-azapentacyclo[11.8.0.02,10.04,8.015,20]heneicosa-2,4(8),9,15(20),16,18-hexaen-16-yl) ester

> <PUBCHEM_IUPAC_INCHI>
InChI=1S/C31H29NO8/c1-18(33)39-25-7-4-19(12-27(25)36-3)5-9-30(34)40-31-23-16-32-11-10-21-14-28-29(38-17-37-28)15-22(21)24(32)13-20(23)6-8-26(31)35-2/h4-9,12,14-15,24H,10-11,13,16-17H2,1-3H3/b9-5+

> <PUBCHEM_IUPAC_INCHIKEY>
YGVKBBMLEFBXOS-WEVVVXLNSA-N

> <PUBCHEM_XLOGP3_AA>
4.7

> <PUBCHEM_EXACT_MASS>
543.18931688

> <PUBCHEM_MOLECULAR_FORMULA>
C31H29NO8

> <PUBCHEM_MOLECULAR_WEIGHT>
543.6

> <PUBCHEM_OPENEYE_CAN_SMILES>
CC(=O)OC1=C(C=C(C=C1)C=CC(=O)OC2=C(C=CC3=C2CN4CCC5=CC6=C(C=C5C4C3)OCO6)OC)OC

> <PUBCHEM_OPENEYE_ISO_SMILES>
CC(=O)OC1=C(C=C(C=C1)/C=C/C(=O)OC2=C(C=CC3=C2CN4CCC5=CC6=C(C=C5C4C3)OCO6)OC)OC

> <PUBCHEM_CACTVS_TPSA>
92.8

> <PUBCHEM_MONOISOTOPIC_WEIGHT>
543.18931688

> <PUBCHEM_TOTAL_CHARGE>
0

> <PUBCHEM_HEAVY_ATOM_COUNT>
40

> <PUBCHEM_ATOM_DEF_STEREO_COUNT>
0

> <PUBCHEM_ATOM_UDEF_STEREO_COUNT>
1

> <PUBCHEM_BOND_DEF_STEREO_COUNT>
1

> <PUBCHEM_BOND_UDEF_STEREO_COUNT>
0

> <PUBCHEM_ISOTOPIC_ATOM_COUNT>
0

> <PUBCHEM_COMPONENT_COUNT>
1

> <PUBCHEM_CACTVS_TAUTO_COUNT>
-1

> <PUBCHEM_COORDINATE_TYPE>
1
5
255

> <PUBCHEM_BONDANNOTATIONS>
10  11  3
12  16  8
12  19  8
16  20  8
17  18  8
17  22  8
18  21  8
19  23  8
20  24  8
21  25  8
22  26  8
23  24  8
25  26  8
32  33  8
32  34  8
33  35  8
34  36  8
35  37  8
36  37  8

$$$$
