44405995
  -OEChem-09292322272D

 59 63  0     0  0  0  0  0  0999 V2000
    2.8660   -0.1340    0.0000 Cl  0  0  0  0  0  0  0  0  0  0  0  0
    9.7942    0.8660    0.0000 O   0  0  0  0  0  0  0  0  0  0  0  0
    8.0622   -2.1340    0.0000 O   0  0  0  0  0  0  0  0  0  0  0  0
    6.3301   -0.1340    0.0000 N   0  0  0  0  0  0  0  0  0  0  0  0
    4.5981    0.8660    0.0000 N   0  0  0  0  0  0  0  0  0  0  0  0
    8.9282   -0.6340    0.0000 N   0  0  0  0  0  0  0  0  0  0  0  0
    9.7942   -2.1340    0.0000 N   0  0  0  0  0  0  0  0  0  0  0  0
   11.6065   -1.9387    0.0000 N   0  0  0  0  0  0  0  0  0  0  0  0
    5.4641   -0.6340    0.0000 C   0  0  0  0  0  0  0  0  0  0  0  0
    6.3301    0.8660    0.0000 C   0  0  0  0  0  0  0  0  0  0  0  0
    4.5981   -0.1340    0.0000 C   0  0  0  0  0  0  0  0  0  0  0  0
    5.4641    1.3660    0.0000 C   0  0  0  0  0  0  0  0  0  0  0  0
    7.1962   -0.6340    0.0000 C   0  0  0  0  0  0  0  0  0  0  0  0
    8.0622   -0.1340    0.0000 C   0  0  0  0  0  0  0  0  0  0  0  0
    3.7320    1.3660    0.0000 C   0  0  0  0  0  0  0  0  0  0  0  0
    9.7942   -0.1340    0.0000 C   0  0  0  0  0  0  0  0  0  0  0  0
   10.6603   -0.6340    0.0000 C   0  0  0  0  0  0  0  0  0  0  0  0
   10.6603   -1.6340    0.0000 C   0  0  0  0  0  0  0  0  0  0  0  0
    8.9282   -1.6340    0.0000 C   0  0  0  0  0  0  0  0  0  0  0  0
    2.8660    0.8660    0.0000 C   0  0  0  0  0  0  0  0  0  0  0  0
    3.7320    2.3660    0.0000 C   0  0  0  0  0  0  0  0  0  0  0  0
   12.1901   -1.1340    0.0000 C   0  0  0  0  0  0  0  0  0  0  0  0
   11.6065   -0.3292    0.0000 C   0  0  0  0  0  0  0  0  0  0  0  0
   13.1901   -1.1340    0.0000 C   0  0  0  0  0  0  0  0  0  0  0  0
    2.0000    1.3660    0.0000 C   0  0  0  0  0  0  0  0  0  0  0  0
    2.8660    2.8660    0.0000 C   0  0  0  0  0  0  0  0  0  0  0  0
    2.0000    2.3660    0.0000 C   0  0  0  0  0  0  0  0  0  0  0  0
   13.6901   -2.0000    0.0000 C   0  0  0  0  0  0  0  0  0  0  0  0
   13.6901   -0.2679    0.0000 C   0  0  0  0  0  0  0  0  0  0  0  0
   14.6901   -2.0000    0.0000 C   0  0  0  0  0  0  0  0  0  0  0  0
   13.1901   -2.8660    0.0000 C   0  0  0  0  0  0  0  0  0  0  0  0
   14.6901   -0.2679    0.0000 C   0  0  0  0  0  0  0  0  0  0  0  0
   15.1901   -1.1340    0.0000 C   0  0  0  0  0  0  0  0  0  0  0  0
    5.0656   -1.1089    0.0000 H   0  0  0  0  0  0  0  0  0  0  0  0
    5.8626   -1.1089    0.0000 H   0  0  0  0  0  0  0  0  0  0  0  0
    6.9407    0.7584    0.0000 H   0  0  0  0  0  0  0  0  0  0  0  0
    6.5422    1.4486    0.0000 H   0  0  0  0  0  0  0  0  0  0  0  0
    3.9875   -0.0263    0.0000 H   0  0  0  0  0  0  0  0  0  0  0  0
    4.3860   -0.7166    0.0000 H   0  0  0  0  0  0  0  0  0  0  0  0
    5.8626    1.8410    0.0000 H   0  0  0  0  0  0  0  0  0  0  0  0
    5.0656    1.8410    0.0000 H   0  0  0  0  0  0  0  0  0  0  0  0
    6.7976   -1.1089    0.0000 H   0  0  0  0  0  0  0  0  0  0  0  0
    7.5947   -1.1089    0.0000 H   0  0  0  0  0  0  0  0  0  0  0  0
    8.4607    0.3410    0.0000 H   0  0  0  0  0  0  0  0  0  0  0  0
    7.6636    0.3410    0.0000 H   0  0  0  0  0  0  0  0  0  0  0  0
    4.2690    2.6760    0.0000 H   0  0  0  0  0  0  0  0  0  0  0  0
    9.7942   -2.7540    0.0000 H   0  0  0  0  0  0  0  0  0  0  0  0
   11.7991    0.2601    0.0000 H   0  0  0  0  0  0  0  0  0  0  0  0
   11.7991   -2.5280    0.0000 H   0  0  0  0  0  0  0  0  0  0  0  0
    1.4631    1.0560    0.0000 H   0  0  0  0  0  0  0  0  0  0  0  0
    2.8660    3.4860    0.0000 H   0  0  0  0  0  0  0  0  0  0  0  0
    1.4631    2.6760    0.0000 H   0  0  0  0  0  0  0  0  0  0  0  0
   13.3801    0.2690    0.0000 H   0  0  0  0  0  0  0  0  0  0  0  0
   15.0001   -2.5369    0.0000 H   0  0  0  0  0  0  0  0  0  0  0  0
   12.6531   -2.5560    0.0000 H   0  0  0  0  0  0  0  0  0  0  0  0
   12.8801   -3.4030    0.0000 H   0  0  0  0  0  0  0  0  0  0  0  0
   13.7270   -3.1760    0.0000 H   0  0  0  0  0  0  0  0  0  0  0  0
   15.0001    0.2690    0.0000 H   0  0  0  0  0  0  0  0  0  0  0  0
   15.8101   -1.1340    0.0000 H   0  0  0  0  0  0  0  0  0  0  0  0
  1 20  1  0  0  0  0
  2 16  2  0  0  0  0
  3 19  2  0  0  0  0
  4  9  1  0  0  0  0
  4 10  1  0  0  0  0
  4 13  1  0  0  0  0
  5 11  1  0  0  0  0
  5 12  1  0  0  0  0
  5 15  1  0  0  0  0
  6 14  1  0  0  0  0
  6 16  1  0  0  0  0
  6 19  1  0  0  0  0
  7 18  1  0  0  0  0
  7 19  1  0  0  0  0
  7 47  1  0  0  0  0
  8 18  1  0  0  0  0
  8 22  1  0  0  0  0
  8 49  1  0  0  0  0
  9 11  1  0  0  0  0
  9 34  1  0  0  0  0
  9 35  1  0  0  0  0
 10 12  1  0  0  0  0
 10 36  1  0  0  0  0
 10 37  1  0  0  0  0
 11 38  1  0  0  0  0
 11 39  1  0  0  0  0
 12 40  1  0  0  0  0
 12 41  1  0  0  0  0
 13 14  1  0  0  0  0
 13 42  1  0  0  0  0
 13 43  1  0  0  0  0
 14 44  1  0  0  0  0
 14 45  1  0  0  0  0
 15 20  1  0  0  0  0
 15 21  2  0  0  0  0
 16 17  1  0  0  0  0
 17 18  2  0  0  0  0
 17 23  1  0  0  0  0
 20 25  2  0  0  0  0
 21 26  1  0  0  0  0
 21 46  1  0  0  0  0
 22 23  2  0  0  0  0
 22 24  1  0  0  0  0
 23 48  1  0  0  0  0
 24 28  1  0  0  0  0
 24 29  2  0  0  0  0
 25 27  1  0  0  0  0
 25 50  1  0  0  0  0
 26 27  2  0  0  0  0
 26 51  1  0  0  0  0
 27 52  1  0  0  0  0
 28 30  2  0  0  0  0
 28 31  1  0  0  0  0
 29 32  1  0  0  0  0
 29 53  1  0  0  0  0
 30 33  1  0  0  0  0
 30 54  1  0  0  0  0
 31 55  1  0  0  0  0
 31 56  1  0  0  0  0
 31 57  1  0  0  0  0
 32 33  2  0  0  0  0
 32 58  1  0  0  0  0
 33 59  1  0  0  0  0
M  END
> <PUBCHEM_COMPOUND_CID>
44405995

> <PUBCHEM_COMPOUND_CANONICALIZED>
1

> <PUBCHEM_CACTVS_COMPLEXITY>
715

> <PUBCHEM_CACTVS_HBOND_ACCEPTOR>
4

> <PUBCHEM_CACTVS_HBOND_DONOR>
2

> <PUBCHEM_CACTVS_ROTATABLE_BOND>
5

> <PUBCHEM_CACTVS_SUBSKEYS>
AAADceB7sAAEAAAAAAAAAAAAAAAAAWAAAAA8eIEAAAAAAFgB0AAAHgIQAAAADArBniQz8JPJkACoAydydACCgCmlByAJmSE4ZtiIYPrB15HUIYholyLIyecciMCOgAAAAAAQABAAAAAAACAAIAAAAAAAAA==

> <PUBCHEM_IUPAC_OPENEYE_NAME>
3-[2-[4-(2-chlorophenyl)piperazin-1-yl]ethyl]-6-(o-tolyl)-1,7-dihydropyrrolo[2,3-d]pyrimidine-2,4-dione

> <PUBCHEM_IUPAC_CAS_NAME>
3-[2-[4-(2-chlorophenyl)-1-piperazinyl]ethyl]-6-(2-methylphenyl)-1,7-dihydropyrrolo[2,3-d]pyrimidine-2,4-dione

> <PUBCHEM_IUPAC_NAME_MARKUP>
3-[2-[4-(2-chlorophenyl)piperazin-1-yl]ethyl]-6-(2-methylphenyl)-1,7-dihydropyrrolo[2,3-d]pyrimidine-2,4-dione

> <PUBCHEM_IUPAC_NAME>
3-[2-[4-(2-chlorophenyl)piperazin-1-yl]ethyl]-6-(2-methylphenyl)-1,7-dihydropyrrolo[2,3-d]pyrimidine-2,4-dione

> <PUBCHEM_IUPAC_SYSTEMATIC_NAME>
3-[2-[4-(2-chlorophenyl)piperazin-1-yl]ethyl]-6-(2-methylphenyl)-1,7-dihydropyrrolo[2,3-d]pyrimidine-2,4-dione

> <PUBCHEM_IUPAC_TRADITIONAL_NAME>
3-[2-[4-(2-chlorophenyl)piperazino]ethyl]-6-(o-tolyl)-1,7-dihydropyrrolo[2,3-d]pyrimidine-2,4-quinone

> <PUBCHEM_IUPAC_INCHI>
InChI=1S/C25H26ClN5O2/c1-17-6-2-3-7-18(17)21-16-19-23(27-21)28-25(33)31(24(19)32)15-12-29-10-13-30(14-11-29)22-9-5-4-8-20(22)26/h2-9,16,27H,10-15H2,1H3,(H,28,33)

> <PUBCHEM_IUPAC_INCHIKEY>
BUGWHHJMDZILIY-UHFFFAOYSA-N

> <PUBCHEM_XLOGP3_AA>
4

> <PUBCHEM_EXACT_MASS>
463.1775028

> <PUBCHEM_MOLECULAR_FORMULA>
C25H26ClN5O2

> <PUBCHEM_MOLECULAR_WEIGHT>
464.0

> <PUBCHEM_OPENEYE_CAN_SMILES>
CC1=CC=CC=C1C2=CC3=C(N2)NC(=O)N(C3=O)CCN4CCN(CC4)C5=CC=CC=C5Cl

> <PUBCHEM_OPENEYE_ISO_SMILES>
CC1=CC=CC=C1C2=CC3=C(N2)NC(=O)N(C3=O)CCN4CCN(CC4)C5=CC=CC=C5Cl

> <PUBCHEM_CACTVS_TPSA>
71.7

> <PUBCHEM_MONOISOTOPIC_WEIGHT>
463.1775028

> <PUBCHEM_TOTAL_CHARGE>
0

> <PUBCHEM_HEAVY_ATOM_COUNT>
33

> <PUBCHEM_ATOM_DEF_STEREO_COUNT>
0

> <PUBCHEM_ATOM_UDEF_STEREO_COUNT>
0

> <PUBCHEM_BOND_DEF_STEREO_COUNT>
0

> <PUBCHEM_BOND_UDEF_STEREO_COUNT>
0

> <PUBCHEM_ISOTOPIC_ATOM_COUNT>
0

> <PUBCHEM_COMPONENT_COUNT>
1

> <PUBCHEM_CACTVS_TAUTO_COUNT>
-1

> <PUBCHEM_COORDINATE_TYPE>
1
5
255

> <PUBCHEM_BONDANNOTATIONS>
15  20  8
15  21  8
16  17  8
17  18  8
17  23  8
20  25  8
21  26  8
22  23  8
24  28  8
24  29  8
25  27  8
26  27  8
28  30  8
29  32  8
30  33  8
32  33  8
6  16  8
6  19  8
7  18  8
7  19  8
8  18  8
8  22  8

$$$$
