44363755
  -OEChem-09292322032D

 64 67  0     1  0  0  0  0  0999 V2000
   13.2747   -2.7623    0.0000 O   0  0  0  0  0  0  0  0  0  0  0  0
    8.9282   -1.2277    0.0000 O   0  0  0  0  0  0  0  0  0  0  0  0
    2.8660    0.2723    0.0000 O   0  0  0  0  0  0  0  0  0  0  0  0
    6.3301    0.2723    0.0000 N   0  0  0  0  0  0  0  0  0  0  0  0
    4.5981    1.2723    0.0000 N   0  0  0  0  0  0  0  0  0  0  0  0
    9.7942    0.2723    0.0000 N   0  0  0  0  0  0  0  0  0  0  0  0
   10.6603   -0.2277    0.0000 C   0  0  3  0  0  0  0  0  0  0  0  0
   10.6603   -1.2277    0.0000 C   0  0  0  0  0  0  0  0  0  0  0  0
   11.5263    0.2723    0.0000 C   0  0  0  0  0  0  0  0  0  0  0  0
   11.5263   -1.7277    0.0000 C   0  0  0  0  0  0  0  0  0  0  0  0
    6.3301    1.2723    0.0000 C   0  0  0  0  0  0  0  0  0  0  0  0
    5.4641   -0.2277    0.0000 C   0  0  0  0  0  0  0  0  0  0  0  0
   12.3923   -0.2277    0.0000 C   0  0  0  0  0  0  0  0  0  0  0  0
    5.4641    1.7723    0.0000 C   0  0  0  0  0  0  0  0  0  0  0  0
    4.5981    0.2723    0.0000 C   0  0  0  0  0  0  0  0  0  0  0  0
   12.3923   -1.2277    0.0000 C   0  0  0  0  0  0  0  0  0  0  0  0
    7.1962   -0.2277    0.0000 C   0  0  0  0  0  0  0  0  0  0  0  0
    8.0622    0.2723    0.0000 C   0  0  0  0  0  0  0  0  0  0  0  0
    8.9282   -0.2277    0.0000 C   0  0  0  0  0  0  0  0  0  0  0  0
   13.2862   -1.7624    0.0000 C   0  0  0  0  0  0  0  0  0  0  0  0
    3.7320    1.7723    0.0000 C   0  0  0  0  0  0  0  0  0  0  0  0
   13.2862    0.3069    0.0000 C   0  0  0  0  0  0  0  0  0  0  0  0
   14.1923   -1.2485    0.0000 C   0  0  0  0  0  0  0  0  0  0  0  0
   14.1923   -0.2069    0.0000 C   0  0  0  0  0  0  0  0  0  0  0  0
    2.8660    1.2723    0.0000 C   0  0  0  0  0  0  0  0  0  0  0  0
    3.7320    2.7723    0.0000 C   0  0  0  0  0  0  0  0  0  0  0  0
    2.0000    1.7723    0.0000 C   0  0  0  0  0  0  0  0  0  0  0  0
    2.8660    3.2723    0.0000 C   0  0  0  0  0  0  0  0  0  0  0  0
    2.0000    2.7723    0.0000 C   0  0  0  0  0  0  0  0  0  0  0  0
   14.1349   -3.2723    0.0000 C   0  0  0  0  0  0  0  0  0  0  0  0
    2.0000   -0.2277    0.0000 C   0  0  0  0  0  0  0  0  0  0  0  0
   10.6603    0.3923    0.0000 H   0  0  0  0  0  0  0  0  0  0  0  0
   10.0497   -1.1200    0.0000 H   0  0  0  0  0  0  0  0  0  0  0  0
   10.4482   -1.8103    0.0000 H   0  0  0  0  0  0  0  0  0  0  0  0
   11.9248    0.7472    0.0000 H   0  0  0  0  0  0  0  0  0  0  0  0
   11.1278    0.7472    0.0000 H   0  0  0  0  0  0  0  0  0  0  0  0
   11.1278   -2.2027    0.0000 H   0  0  0  0  0  0  0  0  0  0  0  0
   11.9248   -2.2027    0.0000 H   0  0  0  0  0  0  0  0  0  0  0  0
    6.9407    1.1646    0.0000 H   0  0  0  0  0  0  0  0  0  0  0  0
    6.5422    1.8549    0.0000 H   0  0  0  0  0  0  0  0  0  0  0  0
    5.0656   -0.7027    0.0000 H   0  0  0  0  0  0  0  0  0  0  0  0
    5.8626   -0.7027    0.0000 H   0  0  0  0  0  0  0  0  0  0  0  0
    5.8626    2.2472    0.0000 H   0  0  0  0  0  0  0  0  0  0  0  0
    5.0656    2.2472    0.0000 H   0  0  0  0  0  0  0  0  0  0  0  0
    3.9875    0.3799    0.0000 H   0  0  0  0  0  0  0  0  0  0  0  0
    4.3860   -0.3103    0.0000 H   0  0  0  0  0  0  0  0  0  0  0  0
    6.7976   -0.7027    0.0000 H   0  0  0  0  0  0  0  0  0  0  0  0
    7.5947   -0.7027    0.0000 H   0  0  0  0  0  0  0  0  0  0  0  0
    9.7942    0.8923    0.0000 H   0  0  0  0  0  0  0  0  0  0  0  0
    8.4607    0.7472    0.0000 H   0  0  0  0  0  0  0  0  0  0  0  0
    7.6636    0.7472    0.0000 H   0  0  0  0  0  0  0  0  0  0  0  0
   13.2791    0.9269    0.0000 H   0  0  0  0  0  0  0  0  0  0  0  0
   14.7281   -1.5606    0.0000 H   0  0  0  0  0  0  0  0  0  0  0  0
   14.7281    0.1052    0.0000 H   0  0  0  0  0  0  0  0  0  0  0  0
    4.2690    3.0823    0.0000 H   0  0  0  0  0  0  0  0  0  0  0  0
    1.4631    1.4623    0.0000 H   0  0  0  0  0  0  0  0  0  0  0  0
    2.8660    3.8923    0.0000 H   0  0  0  0  0  0  0  0  0  0  0  0
    1.4631    3.0823    0.0000 H   0  0  0  0  0  0  0  0  0  0  0  0
   13.8187   -3.8056    0.0000 H   0  0  0  0  0  0  0  0  0  0  0  0
   14.6682   -3.5885    0.0000 H   0  0  0  0  0  0  0  0  0  0  0  0
   14.4511   -2.7390    0.0000 H   0  0  0  0  0  0  0  0  0  0  0  0
    1.6900    0.3092    0.0000 H   0  0  0  0  0  0  0  0  0  0  0  0
    1.4631   -0.5377    0.0000 H   0  0  0  0  0  0  0  0  0  0  0  0
    2.3100   -0.7646    0.0000 H   0  0  0  0  0  0  0  0  0  0  0  0
  1 20  1  0  0  0  0
  1 30  1  0  0  0  0
  2 19  2  0  0  0  0
  3 25  1  0  0  0  0
  3 31  1  0  0  0  0
  4 11  1  0  0  0  0
  4 12  1  0  0  0  0
  4 17  1  0  0  0  0
  5 14  1  0  0  0  0
  5 15  1  0  0  0  0
  5 21  1  0  0  0  0
  6  7  1  0  0  0  0
  6 19  1  0  0  0  0
  6 49  1  0  0  0  0
  7  8  1  0  0  0  0
  7  9  1  0  0  0  0
  7 32  1  0  0  0  0
  8 10  1  0  0  0  0
  8 33  1  0  0  0  0
  8 34  1  0  0  0  0
  9 13  1  0  0  0  0
  9 35  1  0  0  0  0
  9 36  1  0  0  0  0
 10 16  1  0  0  0  0
 10 37  1  0  0  0  0
 10 38  1  0  0  0  0
 11 14  1  0  0  0  0
 11 39  1  0  0  0  0
 11 40  1  0  0  0  0
 12 15  1  0  0  0  0
 12 41  1  0  0  0  0
 12 42  1  0  0  0  0
 13 16  2  0  0  0  0
 13 22  1  0  0  0  0
 14 43  1  0  0  0  0
 14 44  1  0  0  0  0
 15 45  1  0  0  0  0
 15 46  1  0  0  0  0
 16 20  1  0  0  0  0
 17 18  1  0  0  0  0
 17 47  1  0  0  0  0
 17 48  1  0  0  0  0
 18 19  1  0  0  0  0
 18 50  1  0  0  0  0
 18 51  1  0  0  0  0
 20 23  2  0  0  0  0
 21 25  1  0  0  0  0
 21 26  2  0  0  0  0
 22 24  2  0  0  0  0
 22 52  1  0  0  0  0
 23 24  1  0  0  0  0
 23 53  1  0  0  0  0
 24 54  1  0  0  0  0
 25 27  2  0  0  0  0
 26 28  1  0  0  0  0
 26 55  1  0  0  0  0
 27 29  1  0  0  0  0
 27 56  1  0  0  0  0
 28 29  2  0  0  0  0
 28 57  1  0  0  0  0
 29 58  1  0  0  0  0
 30 59  1  0  0  0  0
 30 60  1  0  0  0  0
 30 61  1  0  0  0  0
 31 62  1  0  0  0  0
 31 63  1  0  0  0  0
 31 64  1  0  0  0  0
M  END
> <PUBCHEM_COMPOUND_CID>
44363755

> <PUBCHEM_COMPOUND_CANONICALIZED>
1

> <PUBCHEM_CACTVS_COMPLEXITY>
566

> <PUBCHEM_CACTVS_HBOND_ACCEPTOR>
5

> <PUBCHEM_CACTVS_HBOND_DONOR>
1

> <PUBCHEM_CACTVS_ROTATABLE_BOND>
7

> <PUBCHEM_CACTVS_SUBSKEYS>
AAADcfB7MAAAAAAAAAAAAAAAAAAAAAAAAAA8YMEAAAAAAADBQAAAHgAQAAAADCzBmAYyxoPABACIAiVSUACCCAAhIgAIiIEPbIgOZirE8ZuVMChk1hHY6AeQ0LMOgAABAAAYEAAQAAKAADAgAAAAAAAAAA==

> <PUBCHEM_IUPAC_OPENEYE_NAME>
3-[4-(2-methoxyphenyl)piperazin-1-yl]-N-(5-methoxytetralin-2-yl)propanamide

> <PUBCHEM_IUPAC_CAS_NAME>
3-[4-(2-methoxyphenyl)-1-piperazinyl]-N-(5-methoxy-1,2,3,4-tetrahydronaphthalen-2-yl)propanamide

> <PUBCHEM_IUPAC_NAME_MARKUP>
3-[4-(2-methoxyphenyl)piperazin-1-yl]-<I>N</I>-(5-methoxy-1,2,3,4-tetrahydronaphthalen-2-yl)propanamide

> <PUBCHEM_IUPAC_NAME>
3-[4-(2-methoxyphenyl)piperazin-1-yl]-N-(5-methoxy-1,2,3,4-tetrahydronaphthalen-2-yl)propanamide

> <PUBCHEM_IUPAC_SYSTEMATIC_NAME>
3-[4-(2-methoxyphenyl)piperazin-1-yl]-N-(5-methoxy-1,2,3,4-tetrahydronaphthalen-2-yl)propanamide

> <PUBCHEM_IUPAC_TRADITIONAL_NAME>
3-[4-(2-methoxyphenyl)piperazino]-N-(5-methoxytetralin-2-yl)propionamide

> <PUBCHEM_IUPAC_INCHI>
InChI=1S/C25H33N3O3/c1-30-23-9-5-6-19-18-20(10-11-21(19)23)26-25(29)12-13-27-14-16-28(17-15-27)22-7-3-4-8-24(22)31-2/h3-9,20H,10-18H2,1-2H3,(H,26,29)

> <PUBCHEM_IUPAC_INCHIKEY>
KLUQJNMZPFJSGW-UHFFFAOYSA-N

> <PUBCHEM_XLOGP3_AA>
3.5

> <PUBCHEM_EXACT_MASS>
423.25219192

> <PUBCHEM_MOLECULAR_FORMULA>
C25H33N3O3

> <PUBCHEM_MOLECULAR_WEIGHT>
423.5

> <PUBCHEM_OPENEYE_CAN_SMILES>
COC1=CC=CC=C1N2CCN(CC2)CCC(=O)NC3CCC4=C(C3)C=CC=C4OC

> <PUBCHEM_OPENEYE_ISO_SMILES>
COC1=CC=CC=C1N2CCN(CC2)CCC(=O)NC3CCC4=C(C3)C=CC=C4OC

> <PUBCHEM_CACTVS_TPSA>
54

> <PUBCHEM_MONOISOTOPIC_WEIGHT>
423.25219192

> <PUBCHEM_TOTAL_CHARGE>
0

> <PUBCHEM_HEAVY_ATOM_COUNT>
31

> <PUBCHEM_ATOM_DEF_STEREO_COUNT>
0

> <PUBCHEM_ATOM_UDEF_STEREO_COUNT>
1

> <PUBCHEM_BOND_DEF_STEREO_COUNT>
0

> <PUBCHEM_BOND_UDEF_STEREO_COUNT>
0

> <PUBCHEM_ISOTOPIC_ATOM_COUNT>
0

> <PUBCHEM_COMPONENT_COUNT>
1

> <PUBCHEM_CACTVS_TAUTO_COUNT>
-1

> <PUBCHEM_COORDINATE_TYPE>
1
5
255

> <PUBCHEM_BONDANNOTATIONS>
13  16  8
13  22  8
16  20  8
20  23  8
21  25  8
21  26  8
22  24  8
23  24  8
25  27  8
26  28  8
27  29  8
28  29  8
7  6  3

$$$$
