127051864
  -OEChem-09292322372D

 58 61  0     1  0  0  0  0  0999 V2000
   10.3337    0.0000    0.0000 Cl  0  0  0  0  0  0  0  0  0  0  0  0
    5.1581   11.8267    0.0000 Cl  0  0  0  0  0  0  0  0  0  0  0  0
    3.2152    8.7847    0.0000 S   0  0  0  0  0  0  0  0  0  0  0  0
    8.3228    2.9927    0.0000 O   0  0  0  0  0  0  0  0  0  0  0  0
    7.7988    6.2479    0.0000 N   0  0  0  0  0  0  0  0  0  0  0  0
    3.2152    7.1752    0.0000 N   0  0  0  0  0  0  0  0  0  0  0  0
    9.7252    5.6874    0.0000 C   0  0  3  0  0  0  0  0  0  0  0  0
    9.0181    6.3945    0.0000 C   0  0  3  0  0  0  0  0  0  0  0  0
    8.9656    3.7588    0.0000 C   0  0  0  0  0  0  0  0  0  0  0  0
    9.8644    4.1971    0.0000 C   0  0  0  0  0  0  0  0  0  0  0  0
    8.2709    4.4781    0.0000 C   0  0  0  0  0  0  0  0  0  0  0  0
   10.8653    6.6445    0.0000 C   0  0  0  0  0  0  0  0  0  0  0  0
   10.1582    7.3516    0.0000 C   0  0  0  0  0  0  0  0  0  0  0  0
    6.7988    6.2479    0.0000 C   0  0  0  0  0  0  0  0  0  0  0  0
    9.3076    2.8191    0.0000 C   0  0  0  0  0  0  0  0  0  0  0  0
    6.2988    7.1139    0.0000 C   0  0  0  0  0  0  0  0  0  0  0  0
   10.2924    2.6454    0.0000 C   0  0  0  0  0  0  0  0  0  0  0  0
    8.6648    2.0530    0.0000 C   0  0  0  0  0  0  0  0  0  0  0  0
    5.2988    7.1139    0.0000 C   0  0  0  0  0  0  0  0  0  0  0  0
    4.7988    7.9800    0.0000 C   0  0  0  0  0  0  0  0  0  0  0  0
   10.6344    1.7057    0.0000 C   0  0  0  0  0  0  0  0  0  0  0  0
    9.0068    1.1133    0.0000 C   0  0  0  0  0  0  0  0  0  0  0  0
    9.9916    0.9397    0.0000 C   0  0  0  0  0  0  0  0  0  0  0  0
    3.7988    7.9800    0.0000 C   0  0  0  0  0  0  0  0  0  0  0  0
    2.2690    8.4800    0.0000 C   0  0  0  0  0  0  0  0  0  0  0  0
    2.2690    7.4800    0.0000 C   0  0  0  0  0  0  0  0  0  0  0  0
    1.4030    8.9800    0.0000 C   0  0  0  0  0  0  0  0  0  0  0  0
    1.4030    6.9800    0.0000 C   0  0  0  0  0  0  0  0  0  0  0  0
    0.5369    8.4800    0.0000 C   0  0  0  0  0  0  0  0  0  0  0  0
    0.5369    7.4800    0.0000 C   0  0  0  0  0  0  0  0  0  0  0  0
   10.2987    5.4519    0.0000 H   0  0  0  0  0  0  0  0  0  0  0  0
    9.5219    6.0332    0.0000 H   0  0  0  0  0  0  0  0  0  0  0  0
   10.0674    3.6113    0.0000 H   0  0  0  0  0  0  0  0  0  0  0  0
   10.4703    4.3284    0.0000 H   0  0  0  0  0  0  0  0  0  0  0  0
    7.7315    4.7837    0.0000 H   0  0  0  0  0  0  0  0  0  0  0  0
    7.8912    3.9880    0.0000 H   0  0  0  0  0  0  0  0  0  0  0  0
   11.2776    6.1814    0.0000 H   0  0  0  0  0  0  0  0  0  0  0  0
   11.3163    7.0700    0.0000 H   0  0  0  0  0  0  0  0  0  0  0  0
   10.6092    7.7771    0.0000 H   0  0  0  0  0  0  0  0  0  0  0  0
    9.7460    7.8147    0.0000 H   0  0  0  0  0  0  0  0  0  0  0  0
    6.2162    6.0358    0.0000 H   0  0  0  0  0  0  0  0  0  0  0  0
    6.9065    5.6373    0.0000 H   0  0  0  0  0  0  0  0  0  0  0  0
    6.8814    7.3260    0.0000 H   0  0  0  0  0  0  0  0  0  0  0  0
    6.1912    7.7245    0.0000 H   0  0  0  0  0  0  0  0  0  0  0  0
    7.7122    3.1004    0.0000 H   0  0  0  0  0  0  0  0  0  0  0  0
   10.6909    3.1204    0.0000 H   0  0  0  0  0  0  0  0  0  0  0  0
    8.0542    2.1607    0.0000 H   0  0  0  0  0  0  0  0  0  0  0  0
    4.7162    6.9019    0.0000 H   0  0  0  0  0  0  0  0  0  0  0  0
    5.4065    6.5033    0.0000 H   0  0  0  0  0  0  0  0  0  0  0  0
    5.3814    8.1920    0.0000 H   0  0  0  0  0  0  0  0  0  0  0  0
    4.6912    8.5905    0.0000 H   0  0  0  0  0  0  0  0  0  0  0  0
   11.2450    1.5981    0.0000 H   0  0  0  0  0  0  0  0  0  0  0  0
    8.6083    0.6384    0.0000 H   0  0  0  0  0  0  0  0  0  0  0  0
    1.4030    9.6000    0.0000 H   0  0  0  0  0  0  0  0  0  0  0  0
    1.4030    6.3600    0.0000 H   0  0  0  0  0  0  0  0  0  0  0  0
    0.0000    8.7899    0.0000 H   0  0  0  0  0  0  0  0  0  0  0  0
    0.0000    7.1700    0.0000 H   0  0  0  0  0  0  0  0  0  0  0  0
    6.1581   11.8267    0.0000 H   0  0  0  0  0  0  0  0  0  0  0  0
  1 23  1  0  0  0  0
  2 58  1  0  0  0  0
  3 24  1  0  0  0  0
  3 25  1  0  0  0  0
  4  9  1  0  0  0  0
  4 45  1  0  0  0  0
  5  7  1  0  0  0  0
  5  8  1  0  0  0  0
  5 14  1  0  0  0  0
  6 24  2  0  0  0  0
  6 26  1  0  0  0  0
  7 10  1  0  0  0  0
  7 12  1  0  0  0  0
  7 31  1  0  0  0  0
  8 11  1  0  0  0  0
  8 13  1  0  0  0  0
  8 32  1  0  0  0  0
  9 10  1  0  0  0  0
  9 11  1  0  0  0  0
  9 15  1  0  0  0  0
 10 33  1  0  0  0  0
 10 34  1  0  0  0  0
 11 35  1  0  0  0  0
 11 36  1  0  0  0  0
 12 13  1  0  0  0  0
 12 37  1  0  0  0  0
 12 38  1  0  0  0  0
 13 39  1  0  0  0  0
 13 40  1  0  0  0  0
 14 16  1  0  0  0  0
 14 41  1  0  0  0  0
 14 42  1  0  0  0  0
 15 17  2  0  0  0  0
 15 18  1  0  0  0  0
 16 19  1  0  0  0  0
 16 43  1  0  0  0  0
 16 44  1  0  0  0  0
 17 21  1  0  0  0  0
 17 46  1  0  0  0  0
 18 22  2  0  0  0  0
 18 47  1  0  0  0  0
 19 20  1  0  0  0  0
 19 48  1  0  0  0  0
 19 49  1  0  0  0  0
 20 24  1  0  0  0  0
 20 50  1  0  0  0  0
 20 51  1  0  0  0  0
 21 23  2  0  0  0  0
 21 52  1  0  0  0  0
 22 23  1  0  0  0  0
 22 53  1  0  0  0  0
 25 26  1  0  0  0  0
 25 27  2  0  0  0  0
 26 28  2  0  0  0  0
 27 29  1  0  0  0  0
 27 54  1  0  0  0  0
 28 30  1  0  0  0  0
 28 55  1  0  0  0  0
 29 30  2  0  0  0  0
 29 56  1  0  0  0  0
 30 57  1  0  0  0  0
M  END
> <PUBCHEM_COMPOUND_CID>
127051864

> <PUBCHEM_COMPOUND_CANONICALIZED>
1

> <PUBCHEM_CACTVS_COMPLEXITY>
541

> <PUBCHEM_CACTVS_HBOND_ACCEPTOR>
4

> <PUBCHEM_CACTVS_HBOND_DONOR>
2

> <PUBCHEM_CACTVS_ROTATABLE_BOND>
6

> <PUBCHEM_CACTVS_SUBSKEYS>
AAADceB7IABGAAAAAAAAAAAAAAAAAWLAAAA8YIAABgAAAFgB9AAAHgYACAAADG7B3iQwwbMIEgikAyRiRACD8KBhDzhImDw4bpgIJqLhk5GEcAhmwAHo2AeQwOAOhAAAAAAAAQAIAAAAAAACAAAAAAAAAA==

> <PUBCHEM_IUPAC_OPENEYE_NAME>
8-[4-(1,3-benzothiazol-2-yl)butyl]-3-(4-chlorophenyl)-8-azabicyclo[3.2.1]octan-3-ol;hydrochloride

> <PUBCHEM_IUPAC_CAS_NAME>
8-[4-(1,3-benzothiazol-2-yl)butyl]-3-(4-chlorophenyl)-8-azabicyclo[3.2.1]octan-3-ol;hydrochloride

> <PUBCHEM_IUPAC_NAME_MARKUP>
8-[4-(1,3-benzothiazol-2-yl)butyl]-3-(4-chlorophenyl)-8-azabicyclo[3.2.1]octan-3-ol;hydrochloride

> <PUBCHEM_IUPAC_NAME>
8-[4-(1,3-benzothiazol-2-yl)butyl]-3-(4-chlorophenyl)-8-azabicyclo[3.2.1]octan-3-ol;hydrochloride

> <PUBCHEM_IUPAC_SYSTEMATIC_NAME>
8-[4-(1,3-benzothiazol-2-yl)butyl]-3-(4-chlorophenyl)-8-azabicyclo[3.2.1]octan-3-ol;hydrochloride

> <PUBCHEM_IUPAC_TRADITIONAL_NAME>
8-[4-(1,3-benzothiazol-2-yl)butyl]-3-(4-chlorophenyl)-8-azabicyclo[3.2.1]octan-3-ol;hydrochloride

> <PUBCHEM_IUPAC_INCHI>
InChI=1S/C24H27ClN2OS.ClH/c25-18-10-8-17(9-11-18)24(28)15-19-12-13-20(16-24)27(19)14-4-3-7-23-26-21-5-1-2-6-22(21)29-23;/h1-2,5-6,8-11,19-20,28H,3-4,7,12-16H2;1H

> <PUBCHEM_IUPAC_INCHIKEY>
SSUWLLVOHMVUDK-UHFFFAOYSA-N

> <PUBCHEM_EXACT_MASS>
462.1299401

> <PUBCHEM_MOLECULAR_FORMULA>
C24H28Cl2N2OS

> <PUBCHEM_MOLECULAR_WEIGHT>
463.5

> <PUBCHEM_OPENEYE_CAN_SMILES>
C1CC2CC(CC1N2CCCCC3=NC4=CC=CC=C4S3)(C5=CC=C(C=C5)Cl)O.Cl

> <PUBCHEM_OPENEYE_ISO_SMILES>
C1CC2CC(CC1N2CCCCC3=NC4=CC=CC=C4S3)(C5=CC=C(C=C5)Cl)O.Cl

> <PUBCHEM_CACTVS_TPSA>
64.6

> <PUBCHEM_MONOISOTOPIC_WEIGHT>
462.1299401

> <PUBCHEM_TOTAL_CHARGE>
0

> <PUBCHEM_HEAVY_ATOM_COUNT>
30

> <PUBCHEM_ATOM_DEF_STEREO_COUNT>
0

> <PUBCHEM_ATOM_UDEF_STEREO_COUNT>
2

> <PUBCHEM_BOND_DEF_STEREO_COUNT>
0

> <PUBCHEM_BOND_UDEF_STEREO_COUNT>
0

> <PUBCHEM_ISOTOPIC_ATOM_COUNT>
0

> <PUBCHEM_COMPONENT_COUNT>
2

> <PUBCHEM_CACTVS_TAUTO_COUNT>
-1

> <PUBCHEM_COORDINATE_TYPE>
1
5
255

> <PUBCHEM_BONDANNOTATIONS>
15  17  8
15  18  8
17  21  8
18  22  8
21  23  8
22  23  8
25  26  8
25  27  8
26  28  8
27  29  8
28  30  8
29  30  8
3  24  8
3  25  8
6  24  8
6  26  8
7  12  3
8  13  3

$$$$
