95198280
  -OEChem-09292322402D

 51 54  0     1  0  0  0  0  0999 V2000
    4.8511   -3.1948    0.0000 O   0  0  0  0  0  0  0  0  0  0  0  0
    3.6636    1.7549    0.0000 O   0  0  0  0  0  0  0  0  0  0  0  0
    3.6756   -1.5768    0.0000 N   0  0  3  0  0  0  0  0  0  0  0  0
    4.4727    0.3537    0.0000 N   0  0  0  0  0  0  0  0  0  0  0  0
    7.8347   -2.8813    0.0000 N   0  0  0  0  0  0  0  0  0  0  0  0
    5.2579   -2.2813    0.0000 C   0  0  1  0  0  0  0  0  0  0  0  0
    4.6701   -1.4723    0.0000 C   0  0  0  0  0  0  0  0  0  0  0  0
    3.2688   -2.4904    0.0000 C   0  0  0  0  0  0  0  0  0  0  0  0
    6.2524   -2.1768    0.0000 C   0  0  0  0  0  0  0  0  0  0  0  0
    3.8566   -3.2994    0.0000 C   0  0  0  0  0  0  0  0  0  0  0  0
    3.0878   -0.7678    0.0000 C   0  0  0  0  0  0  0  0  0  0  0  0
    6.8402   -2.9858    0.0000 C   0  0  0  0  0  0  0  0  0  0  0  0
    3.4945    0.1458    0.0000 C   0  0  0  0  0  0  0  0  0  0  0  0
    2.9945    1.0118    0.0000 C   0  0  0  0  0  0  0  0  0  0  0  0
    4.5772    1.3482    0.0000 C   0  0  0  0  0  0  0  0  0  0  0  0
    5.4432    1.8482    0.0000 C   0  0  0  0  0  0  0  0  0  0  0  0
    2.0000    1.1163    0.0000 C   0  0  0  0  0  0  0  0  0  0  0  0
    6.3092    1.3482    0.0000 C   0  0  0  0  0  0  0  0  0  0  0  0
    7.1753    1.8482    0.0000 C   0  0  0  0  0  0  0  0  0  0  0  0
    5.4432    2.8482    0.0000 C   0  0  0  0  0  0  0  0  0  0  0  0
    7.1753    2.8482    0.0000 C   0  0  0  0  0  0  0  0  0  0  0  0
    6.3092    3.3482    0.0000 C   0  0  0  0  0  0  0  0  0  0  0  0
    8.0692    1.3135    0.0000 C   0  0  0  0  0  0  0  0  0  0  0  0
    8.0692    3.3828    0.0000 C   0  0  0  0  0  0  0  0  0  0  0  0
    8.9753    1.8274    0.0000 C   0  0  0  0  0  0  0  0  0  0  0  0
    8.9753    2.8690    0.0000 C   0  0  0  0  0  0  0  0  0  0  0  0
    5.6223   -2.7829    0.0000 H   0  0  0  0  0  0  0  0  0  0  0  0
    5.2273   -1.2005    0.0000 H   0  0  0  0  0  0  0  0  0  0  0  0
    4.4992   -0.8763    0.0000 H   0  0  0  0  0  0  0  0  0  0  0  0
    2.7548   -2.1437    0.0000 H   0  0  0  0  0  0  0  0  0  0  0  0
    2.8382   -2.9364    0.0000 H   0  0  0  0  0  0  0  0  0  0  0  0
    6.8096   -1.9050    0.0000 H   0  0  0  0  0  0  0  0  0  0  0  0
    6.0815   -1.5808    0.0000 H   0  0  0  0  0  0  0  0  0  0  0  0
    3.2994   -3.5712    0.0000 H   0  0  0  0  0  0  0  0  0  0  0  0
    4.0275   -3.8954    0.0000 H   0  0  0  0  0  0  0  0  0  0  0  0
    2.5738   -0.4211    0.0000 H   0  0  0  0  0  0  0  0  0  0  0  0
    2.6571   -1.2138    0.0000 H   0  0  0  0  0  0  0  0  0  0  0  0
    6.2829   -3.2576    0.0000 H   0  0  0  0  0  0  0  0  0  0  0  0
    7.0111   -3.5818    0.0000 H   0  0  0  0  0  0  0  0  0  0  0  0
    8.1991   -3.3828    0.0000 H   0  0  0  0  0  0  0  0  0  0  0  0
    8.0869   -2.3149    0.0000 H   0  0  0  0  0  0  0  0  0  0  0  0
    2.0648    1.7329    0.0000 H   0  0  0  0  0  0  0  0  0  0  0  0
    1.3834    1.1811    0.0000 H   0  0  0  0  0  0  0  0  0  0  0  0
    1.9352    0.4997    0.0000 H   0  0  0  0  0  0  0  0  0  0  0  0
    6.3092    0.7282    0.0000 H   0  0  0  0  0  0  0  0  0  0  0  0
    4.9063    3.1582    0.0000 H   0  0  0  0  0  0  0  0  0  0  0  0
    6.3092    3.9682    0.0000 H   0  0  0  0  0  0  0  0  0  0  0  0
    8.0620    0.6936    0.0000 H   0  0  0  0  0  0  0  0  0  0  0  0
    8.0620    4.0028    0.0000 H   0  0  0  0  0  0  0  0  0  0  0  0
    9.5110    1.5153    0.0000 H   0  0  0  0  0  0  0  0  0  0  0  0
    9.5110    3.1811    0.0000 H   0  0  0  0  0  0  0  0  0  0  0  0
  1  6  1  0  0  0  0
  1 10  1  0  0  0  0
  2 14  1  0  0  0  0
  2 15  1  0  0  0  0
  3  7  1  0  0  0  0
  3  8  1  0  0  0  0
  3 11  1  0  0  0  0
  4 13  1  0  0  0  0
  4 15  2  0  0  0  0
  5 12  1  0  0  0  0
  5 40  1  0  0  0  0
  5 41  1  0  0  0  0
  6  7  1  0  0  0  0
  6  9  1  1  0  0  0
  6 27  1  0  0  0  0
  7 28  1  0  0  0  0
  7 29  1  0  0  0  0
  8 10  1  0  0  0  0
  8 30  1  0  0  0  0
  8 31  1  0  0  0  0
  9 12  1  0  0  0  0
  9 32  1  0  0  0  0
  9 33  1  0  0  0  0
 10 34  1  0  0  0  0
 10 35  1  0  0  0  0
 11 13  1  0  0  0  0
 11 36  1  0  0  0  0
 11 37  1  0  0  0  0
 12 38  1  0  0  0  0
 12 39  1  0  0  0  0
 13 14  2  0  0  0  0
 14 17  1  0  0  0  0
 15 16  1  0  0  0  0
 16 18  2  0  0  0  0
 16 20  1  0  0  0  0
 17 42  1  0  0  0  0
 17 43  1  0  0  0  0
 17 44  1  0  0  0  0
 18 19  1  0  0  0  0
 18 45  1  0  0  0  0
 19 21  1  0  0  0  0
 19 23  2  0  0  0  0
 20 22  2  0  0  0  0
 20 46  1  0  0  0  0
 21 22  1  0  0  0  0
 21 24  2  0  0  0  0
 22 47  1  0  0  0  0
 23 25  1  0  0  0  0
 23 48  1  0  0  0  0
 24 26  1  0  0  0  0
 24 49  1  0  0  0  0
 25 26  2  0  0  0  0
 25 50  1  0  0  0  0
 26 51  1  0  0  0  0
M  END
> <PUBCHEM_COMPOUND_CID>
95198280

> <PUBCHEM_COMPOUND_CANONICALIZED>
1

> <PUBCHEM_CACTVS_COMPLEXITY>
449

> <PUBCHEM_CACTVS_HBOND_ACCEPTOR>
5

> <PUBCHEM_CACTVS_HBOND_DONOR>
1

> <PUBCHEM_CACTVS_ROTATABLE_BOND>
5

> <PUBCHEM_CACTVS_SUBSKEYS>
AAADceB7MAAAAAAAAAAAAAAAAAAAAWAAAAA8YIAAAAAAAADB1AAAHgAQAAAADBzhngYyhNNIFECoA6VyVASCiCAvYCAImKG9TNgOZrrEtTmfOSjm1AHYqYeYyPCOwAACAAAQAACAAAQAACAAAAAAAAAAAA==

> <PUBCHEM_IUPAC_OPENEYE_NAME>
2-[(2R)-4-[[5-methyl-2-(2-naphthyl)oxazol-4-yl]methyl]morpholin-2-yl]ethanamine

> <PUBCHEM_IUPAC_CAS_NAME>
2-[(2R)-4-[[5-methyl-2-(2-naphthalenyl)-4-oxazolyl]methyl]-2-morpholinyl]ethanamine

> <PUBCHEM_IUPAC_NAME_MARKUP>
2-[(2<I>R</I>)-4-[(5-methyl-2-naphthalen-2-yl-1,3-oxazol-4-yl)methyl]morpholin-2-yl]ethanamine

> <PUBCHEM_IUPAC_NAME>
2-[(2R)-4-[(5-methyl-2-naphthalen-2-yl-1,3-oxazol-4-yl)methyl]morpholin-2-yl]ethanamine

> <PUBCHEM_IUPAC_SYSTEMATIC_NAME>
2-[(2R)-4-[(5-methyl-2-naphthalen-2-yl-1,3-oxazol-4-yl)methyl]morpholin-2-yl]ethanamine

> <PUBCHEM_IUPAC_TRADITIONAL_NAME>
2-[(2R)-4-[[5-methyl-2-(2-naphthyl)oxazol-4-yl]methyl]morpholin-2-yl]ethylamine

> <PUBCHEM_IUPAC_INCHI>
InChI=1S/C21H25N3O2/c1-15-20(14-24-10-11-25-19(13-24)8-9-22)23-21(26-15)18-7-6-16-4-2-3-5-17(16)12-18/h2-7,12,19H,8-11,13-14,22H2,1H3/t19-/m1/s1

> <PUBCHEM_IUPAC_INCHIKEY>
RRWJEHZPKOZIPI-LJQANCHMSA-N

> <PUBCHEM_XLOGP3_AA>
2.6

> <PUBCHEM_EXACT_MASS>
351.19467705

> <PUBCHEM_MOLECULAR_FORMULA>
C21H25N3O2

> <PUBCHEM_MOLECULAR_WEIGHT>
351.4

> <PUBCHEM_OPENEYE_CAN_SMILES>
CC1=C(N=C(O1)C2=CC3=CC=CC=C3C=C2)CN4CCOC(C4)CCN

> <PUBCHEM_OPENEYE_ISO_SMILES>
CC1=C(N=C(O1)C2=CC3=CC=CC=C3C=C2)CN4CCO[C@@H](C4)CCN

> <PUBCHEM_CACTVS_TPSA>
64.5

> <PUBCHEM_MONOISOTOPIC_WEIGHT>
351.19467705

> <PUBCHEM_TOTAL_CHARGE>
0

> <PUBCHEM_HEAVY_ATOM_COUNT>
26

> <PUBCHEM_ATOM_DEF_STEREO_COUNT>
1

> <PUBCHEM_ATOM_UDEF_STEREO_COUNT>
0

> <PUBCHEM_BOND_DEF_STEREO_COUNT>
0

> <PUBCHEM_BOND_UDEF_STEREO_COUNT>
0

> <PUBCHEM_ISOTOPIC_ATOM_COUNT>
0

> <PUBCHEM_COMPONENT_COUNT>
1

> <PUBCHEM_CACTVS_TAUTO_COUNT>
-1

> <PUBCHEM_COORDINATE_TYPE>
1
5
255

> <PUBCHEM_BONDANNOTATIONS>
13  14  8
16  18  8
16  20  8
18  19  8
19  21  8
19  23  8
2  14  8
2  15  8
20  22  8
21  22  8
21  24  8
23  25  8
24  26  8
25  26  8
4  13  8
4  15  8
6  9  5

$$$$
