11534726
  -OEChem-09292322492D

 69 74  0     1  0  0  0  0  0999 V2000
    6.2960   -5.3366    0.0000 Br  0  0  0  0  0  0  0  0  0  0  0  0
    6.0723    1.7399    0.0000 S   0  0  0  0  0  0  0  0  0  0  0  0
    2.3660   -8.1436    0.0000 F   0  0  0  0  0  0  0  0  0  0  0  0
    2.0000   -6.7776    0.0000 F   0  0  0  0  0  0  0  0  0  0  0  0
    3.7320   -7.7776    0.0000 F   0  0  0  0  0  0  0  0  0  0  0  0
    4.3548   -6.3085    0.0000 O   0  0  0  0  0  0  0  0  0  0  0  0
    6.0723   -1.7242    0.0000 N   0  0  3  0  0  0  0  0  0  0  0  0
    2.9609   -5.5037    0.0000 N   0  0  0  0  0  0  0  0  0  0  0  0
    7.5668    2.7105    0.0000 N   0  0  0  0  0  0  0  0  0  0  0  0
    6.1655    3.5195    0.0000 N   0  0  0  0  0  0  0  0  0  0  0  0
    6.9087    4.1886    0.0000 N   0  0  0  0  0  0  0  0  0  0  0  0
    9.8311    6.5307    0.0000 N   0  0  0  0  0  0  0  0  0  0  0  0
    6.5723   -0.8582    0.0000 C   0  0  3  0  0  0  0  0  0  0  0  0
    6.6258   -2.5338    0.0000 C   0  0  0  0  0  0  0  0  0  0  0  0
    5.0943   -1.6496    0.0000 C   0  0  0  0  0  0  0  0  0  0  0  0
    6.3405   -3.4722    0.0000 C   0  0  0  0  0  0  0  0  0  0  0  0
    4.4243   -2.3658    0.0000 C   0  0  0  0  0  0  0  0  0  0  0  0
    5.4300   -3.8366    0.0000 C   0  0  0  0  0  0  0  0  0  0  0  0
    4.5640   -3.3366    0.0000 C   0  0  0  0  0  0  0  0  0  0  0  0
    6.0723    0.0079    0.0000 C   0  0  0  0  0  0  0  0  0  0  0  0
    7.5723   -0.8582    0.0000 C   0  0  0  0  0  0  0  0  0  0  0  0
    5.4300   -4.8366    0.0000 C   0  0  0  0  0  0  0  0  0  0  0  0
    3.6979   -3.8366    0.0000 C   0  0  0  0  0  0  0  0  0  0  0  0
    6.5723    0.8739    0.0000 C   0  0  0  0  0  0  0  0  0  0  0  0
    4.5640   -5.3366    0.0000 C   0  0  0  0  0  0  0  0  0  0  0  0
    3.6979   -4.8366    0.0000 C   0  0  0  0  0  0  0  0  0  0  0  0
    3.3660   -6.4115    0.0000 C   0  0  0  0  0  0  0  0  0  0  0  0
    6.5723    2.6059    0.0000 C   0  0  0  0  0  0  0  0  0  0  0  0
    2.8660   -7.2776    0.0000 C   0  0  0  0  0  0  0  0  0  0  0  0
    7.7747    3.6886    0.0000 C   0  0  0  0  0  0  0  0  0  0  0  0
    8.6882    4.0954    0.0000 C   0  0  0  0  0  0  0  0  0  0  0  0
    8.2359    1.9673    0.0000 C   0  0  0  0  0  0  0  0  0  0  0  0
    8.7928    5.0899    0.0000 C   0  0  0  0  0  0  0  0  0  0  0  0
    9.7063    5.4966    0.0000 C   0  0  0  0  0  0  0  0  0  0  0  0
    9.4972    3.5076    0.0000 C   0  0  0  0  0  0  0  0  0  0  0  0
    7.9407    5.6891    0.0000 C   0  0  0  0  0  0  0  0  0  0  0  0
   10.5153    4.9088    0.0000 C   0  0  0  0  0  0  0  0  0  0  0  0
   10.4108    3.9143    0.0000 C   0  0  0  0  0  0  0  0  0  0  0  0
    8.0416    6.7258    0.0000 C   0  0  0  0  0  0  0  0  0  0  0  0
    8.9932    7.1495    0.0000 C   0  0  0  0  0  0  0  0  0  0  0  0
    9.1016    8.1436    0.0000 C   0  0  0  0  0  0  0  0  0  0  0  0
    6.8823   -1.3951    0.0000 H   0  0  0  0  0  0  0  0  0  0  0  0
    7.1638   -2.8421    0.0000 H   0  0  0  0  0  0  0  0  0  0  0  0
    7.0465   -2.0784    0.0000 H   0  0  0  0  0  0  0  0  0  0  0  0
    5.2784   -1.0575    0.0000 H   0  0  0  0  0  0  0  0  0  0  0  0
    4.5584   -1.3379    0.0000 H   0  0  0  0  0  0  0  0  0  0  0  0
    6.4365   -4.0847    0.0000 H   0  0  0  0  0  0  0  0  0  0  0  0
    6.9590   -3.5155    0.0000 H   0  0  0  0  0  0  0  0  0  0  0  0
    4.0776   -1.8519    0.0000 H   0  0  0  0  0  0  0  0  0  0  0  0
    3.8458   -2.5890    0.0000 H   0  0  0  0  0  0  0  0  0  0  0  0
    5.5973    0.4064    0.0000 H   0  0  0  0  0  0  0  0  0  0  0  0
    5.5973   -0.3907    0.0000 H   0  0  0  0  0  0  0  0  0  0  0  0
    7.5723   -1.4782    0.0000 H   0  0  0  0  0  0  0  0  0  0  0  0
    8.1923   -0.8582    0.0000 H   0  0  0  0  0  0  0  0  0  0  0  0
    7.5723   -0.2382    0.0000 H   0  0  0  0  0  0  0  0  0  0  0  0
    3.1610   -3.5266    0.0000 H   0  0  0  0  0  0  0  0  0  0  0  0
    7.0472    0.4754    0.0000 H   0  0  0  0  0  0  0  0  0  0  0  0
    7.0472    1.2724    0.0000 H   0  0  0  0  0  0  0  0  0  0  0  0
    7.7752    1.5525    0.0000 H   0  0  0  0  0  0  0  0  0  0  0  0
    8.6508    1.5066    0.0000 H   0  0  0  0  0  0  0  0  0  0  0  0
    8.6967    2.3822    0.0000 H   0  0  0  0  0  0  0  0  0  0  0  0
    9.4324    2.8910    0.0000 H   0  0  0  0  0  0  0  0  0  0  0  0
    7.3773    5.4304    0.0000 H   0  0  0  0  0  0  0  0  0  0  0  0
   11.0817    5.1610    0.0000 H   0  0  0  0  0  0  0  0  0  0  0  0
   10.9124    3.5499    0.0000 H   0  0  0  0  0  0  0  0  0  0  0  0
    7.5386    7.0883    0.0000 H   0  0  0  0  0  0  0  0  0  0  0  0
    9.7179    8.0764    0.0000 H   0  0  0  0  0  0  0  0  0  0  0  0
    9.1687    8.7599    0.0000 H   0  0  0  0  0  0  0  0  0  0  0  0
    8.4852    8.2108    0.0000 H   0  0  0  0  0  0  0  0  0  0  0  0
  1 22  1  0  0  0  0
  2 24  1  0  0  0  0
  2 28  1  0  0  0  0
  3 29  1  0  0  0  0
  4 29  1  0  0  0  0
  5 29  1  0  0  0  0
  6 25  1  0  0  0  0
  6 27  1  0  0  0  0
  7 13  1  0  0  0  0
  7 14  1  0  0  0  0
  7 15  1  0  0  0  0
  8 26  1  0  0  0  0
  8 27  2  0  0  0  0
  9 28  1  0  0  0  0
  9 30  1  0  0  0  0
  9 32  1  0  0  0  0
 10 11  1  0  0  0  0
 10 28  2  0  0  0  0
 11 30  2  0  0  0  0
 12 34  1  0  0  0  0
 12 40  2  0  0  0  0
 13 20  1  0  0  0  0
 13 21  1  0  0  0  0
 13 42  1  0  0  0  0
 14 16  1  0  0  0  0
 14 43  1  0  0  0  0
 14 44  1  0  0  0  0
 15 17  1  0  0  0  0
 15 45  1  0  0  0  0
 15 46  1  0  0  0  0
 16 18  1  0  0  0  0
 16 47  1  0  0  0  0
 16 48  1  0  0  0  0
 17 19  1  0  0  0  0
 17 49  1  0  0  0  0
 17 50  1  0  0  0  0
 18 19  1  0  0  0  0
 18 22  2  0  0  0  0
 19 23  2  0  0  0  0
 20 24  1  0  0  0  0
 20 51  1  0  0  0  0
 20 52  1  0  0  0  0
 21 53  1  0  0  0  0
 21 54  1  0  0  0  0
 21 55  1  0  0  0  0
 22 25  1  0  0  0  0
 23 26  1  0  0  0  0
 23 56  1  0  0  0  0
 24 57  1  0  0  0  0
 24 58  1  0  0  0  0
 25 26  2  0  0  0  0
 27 29  1  0  0  0  0
 30 31  1  0  0  0  0
 31 33  2  0  0  0  0
 31 35  1  0  0  0  0
 32 59  1  0  0  0  0
 32 60  1  0  0  0  0
 32 61  1  0  0  0  0
 33 34  1  0  0  0  0
 33 36  1  0  0  0  0
 34 37  2  0  0  0  0
 35 38  2  0  0  0  0
 35 62  1  0  0  0  0
 36 39  2  0  0  0  0
 36 63  1  0  0  0  0
 37 38  1  0  0  0  0
 37 64  1  0  0  0  0
 38 65  1  0  0  0  0
 39 40  1  0  0  0  0
 39 66  1  0  0  0  0
 40 41  1  0  0  0  0
 41 67  1  0  0  0  0
 41 68  1  0  0  0  0
 41 69  1  0  0  0  0
M  END
> <PUBCHEM_COMPOUND_CID>
11534726

> <PUBCHEM_COMPOUND_CANONICALIZED>
1

> <PUBCHEM_CACTVS_COMPLEXITY>
892

> <PUBCHEM_CACTVS_HBOND_ACCEPTOR>
10

> <PUBCHEM_CACTVS_HBOND_DONOR>
0

> <PUBCHEM_CACTVS_ROTATABLE_BOND>
6

> <PUBCHEM_CACTVS_SUBSKEYS>
AAADceB7oYBAEAAAAAAAAAAAAAAAAWLAAAA8YIAABYAAAFix/gAAHwRIAAABrCzF3xSz1vcMFEiqA6dydASS2CtvYrQd2CG9bPiuLvLkvbuPOSjkzBPY65eY2fKOqAABUAESlABQAAKgAiUoAAAAAAAAAA==

> <PUBCHEM_IUPAC_OPENEYE_NAME>
10-bromo-7-[1-methyl-3-[[4-methyl-5-(2-methyl-5-quinolyl)-1,2,4-triazol-3-yl]sulfanyl]propyl]-2-(trifluoromethyl)-5,6,8,9-tetrahydrooxazolo[4,5-h][3]benzazepine

> <PUBCHEM_IUPAC_CAS_NAME>
10-bromo-7-[4-[[4-methyl-5-(2-methyl-5-quinolinyl)-1,2,4-triazol-3-yl]thio]butan-2-yl]-2-(trifluoromethyl)-5,6,8,9-tetrahydrooxazolo[4,5-h][3]benzazepine

> <PUBCHEM_IUPAC_NAME_MARKUP>
10-bromo-7-[4-[[4-methyl-5-(2-methylquinolin-5-yl)-1,2,4-triazol-3-yl]sulfanyl]butan-2-yl]-2-(trifluoromethyl)-5,6,8,9-tetrahydro-[1,3]oxazolo[4,5-h][3]benzazepine

> <PUBCHEM_IUPAC_NAME>
10-bromo-7-[4-[[4-methyl-5-(2-methylquinolin-5-yl)-1,2,4-triazol-3-yl]sulfanyl]butan-2-yl]-2-(trifluoromethyl)-5,6,8,9-tetrahydro-[1,3]oxazolo[4,5-h][3]benzazepine

> <PUBCHEM_IUPAC_SYSTEMATIC_NAME>
10-bromanyl-7-[4-[[4-methyl-5-(2-methylquinolin-5-yl)-1,2,4-triazol-3-yl]sulfanyl]butan-2-yl]-2-(trifluoromethyl)-5,6,8,9-tetrahydro-[1,3]oxazolo[4,5-h][3]benzazepine

> <PUBCHEM_IUPAC_TRADITIONAL_NAME>
10-bromo-7-[1-methyl-3-[[4-methyl-5-(2-methyl-5-quinolyl)-1,2,4-triazol-3-yl]thio]propyl]-2-(trifluoromethyl)-5,6,8,9-tetrahydrooxazolo[4,5-h][3]benzazepine

> <PUBCHEM_IUPAC_INCHI>
InChI=1S/C29H28BrF3N6OS/c1-16-7-8-20-21(5-4-6-22(20)34-16)26-36-37-28(38(26)3)41-14-11-17(2)39-12-9-18-15-23-25(24(30)19(18)10-13-39)40-27(35-23)29(31,32)33/h4-8,15,17H,9-14H2,1-3H3

> <PUBCHEM_IUPAC_INCHIKEY>
XURXMJIMPKTNSF-UHFFFAOYSA-N

> <PUBCHEM_XLOGP3_AA>
6.9

> <PUBCHEM_EXACT_MASS>
644.11808

> <PUBCHEM_MOLECULAR_FORMULA>
C29H28BrF3N6OS

> <PUBCHEM_MOLECULAR_WEIGHT>
645.5

> <PUBCHEM_OPENEYE_CAN_SMILES>
CC1=NC2=CC=CC(=C2C=C1)C3=NN=C(N3C)SCCC(C)N4CCC5=CC6=C(C(=C5CC4)Br)OC(=N6)C(F)(F)F

> <PUBCHEM_OPENEYE_ISO_SMILES>
CC1=NC2=CC=CC(=C2C=C1)C3=NN=C(N3C)SCCC(C)N4CCC5=CC6=C(C(=C5CC4)Br)OC(=N6)C(F)(F)F

> <PUBCHEM_CACTVS_TPSA>
98.2

> <PUBCHEM_MONOISOTOPIC_WEIGHT>
644.11808

> <PUBCHEM_TOTAL_CHARGE>
0

> <PUBCHEM_HEAVY_ATOM_COUNT>
41

> <PUBCHEM_ATOM_DEF_STEREO_COUNT>
0

> <PUBCHEM_ATOM_UDEF_STEREO_COUNT>
1

> <PUBCHEM_BOND_DEF_STEREO_COUNT>
0

> <PUBCHEM_BOND_UDEF_STEREO_COUNT>
0

> <PUBCHEM_ISOTOPIC_ATOM_COUNT>
0

> <PUBCHEM_COMPONENT_COUNT>
1

> <PUBCHEM_CACTVS_TAUTO_COUNT>
-1

> <PUBCHEM_COORDINATE_TYPE>
1
5
255

> <PUBCHEM_BONDANNOTATIONS>
10  11  8
10  28  8
11  30  8
12  34  8
12  40  8
13  21  3
18  19  8
18  22  8
19  23  8
22  25  8
23  26  8
25  26  8
31  33  8
31  35  8
33  34  8
33  36  8
34  37  8
35  38  8
36  39  8
37  38  8
39  40  8
6  25  8
6  27  8
8  26  8
8  27  8
9  28  8
9  30  8

$$$$
