155528967
  -OEChem-09292322412D

 69 74  0     1  0  0  0  0  0999 V2000
    4.6660    6.8892    0.0000 F   0  0  0  0  0  0  0  0  0  0  0  0
    6.3981    2.8892    0.0000 O   0  0  0  0  0  0  0  0  0  0  0  0
    4.6660   -0.1108    0.0000 O   0  0  0  0  0  0  0  0  0  0  0  0
    8.1301   -2.1108    0.0000 N   0  0  3  0  0  0  0  0  0  0  0  0
    8.4962   -6.1406    0.0000 N   0  0  0  0  0  0  0  0  0  0  0  0
    5.5321    1.3892    0.0000 N   0  0  0  0  0  0  0  0  0  0  0  0
    3.8000    1.3892    0.0000 N   0  0  0  0  0  0  0  0  0  0  0  0
    8.9962   -3.6108    0.0000 C   0  0  3  0  0  0  0  0  0  0  0  0
    8.1301   -3.1108    0.0000 C   0  0  0  0  0  0  0  0  0  0  0  0
    9.8622   -3.1108    0.0000 C   0  0  0  0  0  0  0  0  0  0  0  0
    9.8622   -2.1108    0.0000 C   0  0  0  0  0  0  0  0  0  0  0  0
    8.9962   -1.6108    0.0000 C   0  0  0  0  0  0  0  0  0  0  0  0
    8.9962   -4.6108    0.0000 C   0  0  0  0  0  0  0  0  0  0  0  0
    7.2641   -1.6108    0.0000 C   0  0  0  0  0  0  0  0  0  0  0  0
    7.2641   -0.6108    0.0000 C   0  0  0  0  0  0  0  0  0  0  0  0
    9.8009   -5.1944    0.0000 C   0  0  0  0  0  0  0  0  0  0  0  0
    8.1914   -5.1944    0.0000 C   0  0  0  0  0  0  0  0  0  0  0  0
    6.3981   -0.1108    0.0000 C   0  0  0  0  0  0  0  0  0  0  0  0
    9.4902   -6.1449    0.0000 C   0  0  0  0  0  0  0  0  0  0  0  0
    6.3981    0.8892    0.0000 C   0  0  0  0  0  0  0  0  0  0  0  0
   10.7794   -4.9882    0.0000 C   0  0  0  0  0  0  0  0  0  0  0  0
   10.1581   -6.8892    0.0000 C   0  0  0  0  0  0  0  0  0  0  0  0
   11.4472   -5.7325    0.0000 C   0  0  0  0  0  0  0  0  0  0  0  0
   11.1366   -6.6830    0.0000 C   0  0  0  0  0  0  0  0  0  0  0  0
    5.5321    2.3892    0.0000 C   0  0  0  0  0  0  0  0  0  0  0  0
    4.6660    0.8892    0.0000 C   0  0  0  0  0  0  0  0  0  0  0  0
    4.6660    2.8892    0.0000 C   0  0  0  0  0  0  0  0  0  0  0  0
    3.8000    2.3892    0.0000 C   0  0  0  0  0  0  0  0  0  0  0  0
    4.6660    3.8892    0.0000 C   0  0  0  0  0  0  0  0  0  0  0  0
    2.9061    0.8546    0.0000 C   0  0  0  0  0  0  0  0  0  0  0  0
    2.9061    2.9239    0.0000 C   0  0  0  0  0  0  0  0  0  0  0  0
    2.0000    1.3684    0.0000 C   0  0  0  0  0  0  0  0  0  0  0  0
    2.0000    2.4100    0.0000 C   0  0  0  0  0  0  0  0  0  0  0  0
    5.5321    4.3892    0.0000 C   0  0  0  0  0  0  0  0  0  0  0  0
    3.8000    4.3892    0.0000 C   0  0  0  0  0  0  0  0  0  0  0  0
    5.5321    5.3892    0.0000 C   0  0  0  0  0  0  0  0  0  0  0  0
    3.8000    5.3892    0.0000 C   0  0  0  0  0  0  0  0  0  0  0  0
    4.6660    5.8892    0.0000 C   0  0  0  0  0  0  0  0  0  0  0  0
    9.5331   -3.9208    0.0000 H   0  0  0  0  0  0  0  0  0  0  0  0
    7.5196   -3.0031    0.0000 H   0  0  0  0  0  0  0  0  0  0  0  0
    7.9181   -3.6934    0.0000 H   0  0  0  0  0  0  0  0  0  0  0  0
   10.0742   -3.6934    0.0000 H   0  0  0  0  0  0  0  0  0  0  0  0
   10.4728   -3.0031    0.0000 H   0  0  0  0  0  0  0  0  0  0  0  0
   10.4728   -2.2184    0.0000 H   0  0  0  0  0  0  0  0  0  0  0  0
   10.0742   -1.5282    0.0000 H   0  0  0  0  0  0  0  0  0  0  0  0
    9.3947   -1.1358    0.0000 H   0  0  0  0  0  0  0  0  0  0  0  0
    8.5976   -1.1358    0.0000 H   0  0  0  0  0  0  0  0  0  0  0  0
    6.6535   -1.5031    0.0000 H   0  0  0  0  0  0  0  0  0  0  0  0
    7.0521   -2.1934    0.0000 H   0  0  0  0  0  0  0  0  0  0  0  0
    7.8747   -0.7184    0.0000 H   0  0  0  0  0  0  0  0  0  0  0  0
    7.4762   -0.0282    0.0000 H   0  0  0  0  0  0  0  0  0  0  0  0
    7.6021   -5.0018    0.0000 H   0  0  0  0  0  0  0  0  0  0  0  0
    5.7875   -0.0031    0.0000 H   0  0  0  0  0  0  0  0  0  0  0  0
    6.1860   -0.6934    0.0000 H   0  0  0  0  0  0  0  0  0  0  0  0
    8.1300   -6.6409    0.0000 H   0  0  0  0  0  0  0  0  0  0  0  0
    7.0087    0.7816    0.0000 H   0  0  0  0  0  0  0  0  0  0  0  0
    6.6101    1.4718    0.0000 H   0  0  0  0  0  0  0  0  0  0  0  0
   10.9720   -4.3989    0.0000 H   0  0  0  0  0  0  0  0  0  0  0  0
    9.9655   -7.4785    0.0000 H   0  0  0  0  0  0  0  0  0  0  0  0
   12.0539   -5.6046    0.0000 H   0  0  0  0  0  0  0  0  0  0  0  0
   11.5506   -7.1445    0.0000 H   0  0  0  0  0  0  0  0  0  0  0  0
    2.9132    0.2346    0.0000 H   0  0  0  0  0  0  0  0  0  0  0  0
    2.9132    3.5438    0.0000 H   0  0  0  0  0  0  0  0  0  0  0  0
    1.4643    1.0563    0.0000 H   0  0  0  0  0  0  0  0  0  0  0  0
    1.4643    2.7221    0.0000 H   0  0  0  0  0  0  0  0  0  0  0  0
    6.0690    4.0792    0.0000 H   0  0  0  0  0  0  0  0  0  0  0  0
    3.2631    4.0792    0.0000 H   0  0  0  0  0  0  0  0  0  0  0  0
    6.0690    5.6992    0.0000 H   0  0  0  0  0  0  0  0  0  0  0  0
    3.2631    5.6992    0.0000 H   0  0  0  0  0  0  0  0  0  0  0  0
  1 38  1  0  0  0  0
  2 25  2  0  0  0  0
  3 26  2  0  0  0  0
  4  9  1  0  0  0  0
  4 12  1  0  0  0  0
  4 14  1  0  0  0  0
  5 17  1  0  0  0  0
  5 19  1  0  0  0  0
  5 55  1  0  0  0  0
  6 20  1  0  0  0  0
  6 25  1  0  0  0  0
  6 26  1  0  0  0  0
  7 26  1  0  0  0  0
  7 28  1  0  0  0  0
  7 30  1  0  0  0  0
  8  9  1  0  0  0  0
  8 10  1  0  0  0  0
  8 13  1  0  0  0  0
  8 39  1  0  0  0  0
  9 40  1  0  0  0  0
  9 41  1  0  0  0  0
 10 11  1  0  0  0  0
 10 42  1  0  0  0  0
 10 43  1  0  0  0  0
 11 12  1  0  0  0  0
 11 44  1  0  0  0  0
 11 45  1  0  0  0  0
 12 46  1  0  0  0  0
 12 47  1  0  0  0  0
 13 16  1  0  0  0  0
 13 17  2  0  0  0  0
 14 15  1  0  0  0  0
 14 48  1  0  0  0  0
 14 49  1  0  0  0  0
 15 18  1  0  0  0  0
 15 50  1  0  0  0  0
 15 51  1  0  0  0  0
 16 19  1  0  0  0  0
 16 21  2  0  0  0  0
 17 52  1  0  0  0  0
 18 20  1  0  0  0  0
 18 53  1  0  0  0  0
 18 54  1  0  0  0  0
 19 22  2  0  0  0  0
 20 56  1  0  0  0  0
 20 57  1  0  0  0  0
 21 23  1  0  0  0  0
 21 58  1  0  0  0  0
 22 24  1  0  0  0  0
 22 59  1  0  0  0  0
 23 24  2  0  0  0  0
 23 60  1  0  0  0  0
 24 61  1  0  0  0  0
 25 27  1  0  0  0  0
 27 28  2  0  0  0  0
 27 29  1  0  0  0  0
 28 31  1  0  0  0  0
 29 34  2  0  0  0  0
 29 35  1  0  0  0  0
 30 32  2  0  0  0  0
 30 62  1  0  0  0  0
 31 33  2  0  0  0  0
 31 63  1  0  0  0  0
 32 33  1  0  0  0  0
 32 64  1  0  0  0  0
 33 65  1  0  0  0  0
 34 36  1  0  0  0  0
 34 66  1  0  0  0  0
 35 37  2  0  0  0  0
 35 67  1  0  0  0  0
 36 38  2  0  0  0  0
 36 68  1  0  0  0  0
 37 38  1  0  0  0  0
 37 69  1  0  0  0  0
M  END
> <PUBCHEM_COMPOUND_CID>
155528967

> <PUBCHEM_COMPOUND_CANONICALIZED>
1

> <PUBCHEM_CACTVS_COMPLEXITY>
984

> <PUBCHEM_CACTVS_HBOND_ACCEPTOR>
4

> <PUBCHEM_CACTVS_HBOND_DONOR>
1

> <PUBCHEM_CACTVS_ROTATABLE_BOND>
7

> <PUBCHEM_CACTVS_SUBSKEYS>
AAADceB7sQAAAAAAAAAAAAAAAAAAAWAAAAA8YIECAAAAAFiB9AAAHwAQAAAADQjBngw9wPPJkACoAzV3VACCgCAxAiAI2aE4ZNiIIPLAlZGEIAholyLIyUcYiMCOgAAAAAACAAAAAAAAAAQAAAAAAAAAAA==

> <PUBCHEM_IUPAC_OPENEYE_NAME>
4-(4-fluorophenyl)-2-[4-[3-(1H-indol-3-yl)-1-piperidyl]butyl]pyrido[1,2-c]pyrimidine-1,3-dione

> <PUBCHEM_IUPAC_CAS_NAME>
4-(4-fluorophenyl)-2-[4-[3-(1H-indol-3-yl)-1-piperidinyl]butyl]pyrido[1,2-c]pyrimidine-1,3-dione

> <PUBCHEM_IUPAC_NAME_MARKUP>
4-(4-fluorophenyl)-2-[4-[3-(1<I>H</I>-indol-3-yl)piperidin-1-yl]butyl]pyrido[1,2-c]pyrimidine-1,3-dione

> <PUBCHEM_IUPAC_NAME>
4-(4-fluorophenyl)-2-[4-[3-(1H-indol-3-yl)piperidin-1-yl]butyl]pyrido[1,2-c]pyrimidine-1,3-dione

> <PUBCHEM_IUPAC_SYSTEMATIC_NAME>
4-(4-fluorophenyl)-2-[4-[3-(1H-indol-3-yl)piperidin-1-yl]butyl]pyrido[1,2-c]pyrimidine-1,3-dione

> <PUBCHEM_IUPAC_TRADITIONAL_NAME>
4-(4-fluorophenyl)-2-[4-[3-(1H-indol-3-yl)piperidino]butyl]pyrido[1,2-c]pyrimidine-1,3-quinone

> <PUBCHEM_IUPAC_INCHI>
InChI=1S/C31H31FN4O2/c32-24-14-12-22(13-15-24)29-28-11-3-4-18-35(28)31(38)36(30(29)37)19-6-5-16-34-17-7-8-23(21-34)26-20-33-27-10-2-1-9-25(26)27/h1-4,9-15,18,20,23,33H,5-8,16-17,19,21H2

> <PUBCHEM_IUPAC_INCHIKEY>
FYHOSCUNTXUTGZ-UHFFFAOYSA-N

> <PUBCHEM_XLOGP3_AA>
5.2

> <PUBCHEM_EXACT_MASS>
510.24310441

> <PUBCHEM_MOLECULAR_FORMULA>
C31H31FN4O2

> <PUBCHEM_MOLECULAR_WEIGHT>
510.6

> <PUBCHEM_OPENEYE_CAN_SMILES>
C1CC(CN(C1)CCCCN2C(=O)C(=C3C=CC=CN3C2=O)C4=CC=C(C=C4)F)C5=CNC6=CC=CC=C65

> <PUBCHEM_OPENEYE_ISO_SMILES>
C1CC(CN(C1)CCCCN2C(=O)C(=C3C=CC=CN3C2=O)C4=CC=C(C=C4)F)C5=CNC6=CC=CC=C65

> <PUBCHEM_CACTVS_TPSA>
59.6

> <PUBCHEM_MONOISOTOPIC_WEIGHT>
510.24310441

> <PUBCHEM_TOTAL_CHARGE>
0

> <PUBCHEM_HEAVY_ATOM_COUNT>
38

> <PUBCHEM_ATOM_DEF_STEREO_COUNT>
0

> <PUBCHEM_ATOM_UDEF_STEREO_COUNT>
1

> <PUBCHEM_BOND_DEF_STEREO_COUNT>
0

> <PUBCHEM_BOND_UDEF_STEREO_COUNT>
0

> <PUBCHEM_ISOTOPIC_ATOM_COUNT>
0

> <PUBCHEM_COMPONENT_COUNT>
1

> <PUBCHEM_CACTVS_TAUTO_COUNT>
-1

> <PUBCHEM_COORDINATE_TYPE>
1
5
255

> <PUBCHEM_BONDANNOTATIONS>
13  16  8
13  17  8
16  19  8
16  21  8
19  22  8
21  23  8
22  24  8
23  24  8
25  27  8
27  28  8
28  31  8
29  34  8
29  35  8
30  32  8
31  33  8
32  33  8
34  36  8
35  37  8
36  38  8
37  38  8
5  17  8
5  19  8
6  25  8
6  26  8
7  26  8
7  28  8
7  30  8
8  13  3

$$$$
