21219166
  -OEChem-09292322222D

 47 50  0     0  0  0  0  0  0999 V2000
    4.5981   -2.0352    0.0000 N   0  0  0  0  0  0  0  0  0  0  0  0
    4.5981    0.9648    0.0000 N   0  0  0  0  0  0  0  0  0  0  0  0
    4.0981    2.5036    0.0000 N   0  0  0  0  0  0  0  0  0  0  0  0
    4.5981   -0.0352    0.0000 C   0  0  0  0  0  0  0  0  0  0  0  0
    3.7320   -0.5352    0.0000 C   0  0  0  0  0  0  0  0  0  0  0  0
    5.4641   -0.5352    0.0000 C   0  0  0  0  0  0  0  0  0  0  0  0
    3.7320   -1.5352    0.0000 C   0  0  0  0  0  0  0  0  0  0  0  0
    5.4641   -1.5352    0.0000 C   0  0  0  0  0  0  0  0  0  0  0  0
    4.5981   -3.0352    0.0000 C   0  0  0  0  0  0  0  0  0  0  0  0
    5.4071    1.5526    0.0000 C   0  0  0  0  0  0  0  0  0  0  0  0
    3.7891    1.5526    0.0000 C   0  0  0  0  0  0  0  0  0  0  0  0
    3.7320   -3.5352    0.0000 C   0  0  0  0  0  0  0  0  0  0  0  0
    5.0981    2.5036    0.0000 C   0  0  0  0  0  0  0  0  0  0  0  0
    3.7320   -4.5352    0.0000 C   0  0  0  0  0  0  0  0  0  0  0  0
    2.8660   -3.0352    0.0000 C   0  0  0  0  0  0  0  0  0  0  0  0
    5.6859    3.3126    0.0000 C   0  0  0  0  0  0  0  0  0  0  0  0
    2.8660   -5.0352    0.0000 C   0  0  0  0  0  0  0  0  0  0  0  0
    2.0000   -3.5352    0.0000 C   0  0  0  0  0  0  0  0  0  0  0  0
    5.2791    4.2262    0.0000 C   0  0  0  0  0  0  0  0  0  0  0  0
    6.6804    3.2081    0.0000 C   0  0  0  0  0  0  0  0  0  0  0  0
    2.0000   -4.5352    0.0000 C   0  0  0  0  0  0  0  0  0  0  0  0
    5.8669    5.0352    0.0000 C   0  0  0  0  0  0  0  0  0  0  0  0
    7.2682    4.0171    0.0000 C   0  0  0  0  0  0  0  0  0  0  0  0
    6.8614    4.9307    0.0000 C   0  0  0  0  0  0  0  0  0  0  0  0
    5.1350    0.2748    0.0000 H   0  0  0  0  0  0  0  0  0  0  0  0
    3.5200    0.0474    0.0000 H   0  0  0  0  0  0  0  0  0  0  0  0
    3.1215   -0.6429    0.0000 H   0  0  0  0  0  0  0  0  0  0  0  0
    6.0747   -0.6429    0.0000 H   0  0  0  0  0  0  0  0  0  0  0  0
    5.6762    0.0474    0.0000 H   0  0  0  0  0  0  0  0  0  0  0  0
    3.1215   -1.4276    0.0000 H   0  0  0  0  0  0  0  0  0  0  0  0
    3.5200   -2.1178    0.0000 H   0  0  0  0  0  0  0  0  0  0  0  0
    5.6762   -2.1178    0.0000 H   0  0  0  0  0  0  0  0  0  0  0  0
    6.0747   -1.4276    0.0000 H   0  0  0  0  0  0  0  0  0  0  0  0
    4.8101   -3.6178    0.0000 H   0  0  0  0  0  0  0  0  0  0  0  0
    5.2087   -2.9276    0.0000 H   0  0  0  0  0  0  0  0  0  0  0  0
    5.9967    1.3610    0.0000 H   0  0  0  0  0  0  0  0  0  0  0  0
    3.1994    1.3610    0.0000 H   0  0  0  0  0  0  0  0  0  0  0  0
    4.2690   -4.8452    0.0000 H   0  0  0  0  0  0  0  0  0  0  0  0
    2.8660   -2.4152    0.0000 H   0  0  0  0  0  0  0  0  0  0  0  0
    2.8660   -5.6552    0.0000 H   0  0  0  0  0  0  0  0  0  0  0  0
    1.4631   -3.2252    0.0000 H   0  0  0  0  0  0  0  0  0  0  0  0
    4.6625    4.2910    0.0000 H   0  0  0  0  0  0  0  0  0  0  0  0
    6.9326    2.6417    0.0000 H   0  0  0  0  0  0  0  0  0  0  0  0
    1.4631   -4.8452    0.0000 H   0  0  0  0  0  0  0  0  0  0  0  0
    5.6147    5.6016    0.0000 H   0  0  0  0  0  0  0  0  0  0  0  0
    7.8848    3.9523    0.0000 H   0  0  0  0  0  0  0  0  0  0  0  0
    7.2259    5.4323    0.0000 H   0  0  0  0  0  0  0  0  0  0  0  0
  1  7  1  0  0  0  0
  1  8  1  0  0  0  0
  1  9  1  0  0  0  0
  2  4  1  0  0  0  0
  2 10  1  0  0  0  0
  2 11  1  0  0  0  0
  3 11  2  0  0  0  0
  3 13  1  0  0  0  0
  4  5  1  0  0  0  0
  4  6  1  0  0  0  0
  4 25  1  0  0  0  0
  5  7  1  0  0  0  0
  5 26  1  0  0  0  0
  5 27  1  0  0  0  0
  6  8  1  0  0  0  0
  6 28  1  0  0  0  0
  6 29  1  0  0  0  0
  7 30  1  0  0  0  0
  7 31  1  0  0  0  0
  8 32  1  0  0  0  0
  8 33  1  0  0  0  0
  9 12  1  0  0  0  0
  9 34  1  0  0  0  0
  9 35  1  0  0  0  0
 10 13  2  0  0  0  0
 10 36  1  0  0  0  0
 11 37  1  0  0  0  0
 12 14  2  0  0  0  0
 12 15  1  0  0  0  0
 13 16  1  0  0  0  0
 14 17  1  0  0  0  0
 14 38  1  0  0  0  0
 15 18  2  0  0  0  0
 15 39  1  0  0  0  0
 16 19  2  0  0  0  0
 16 20  1  0  0  0  0
 17 21  2  0  0  0  0
 17 40  1  0  0  0  0
 18 21  1  0  0  0  0
 18 41  1  0  0  0  0
 19 22  1  0  0  0  0
 19 42  1  0  0  0  0
 20 23  2  0  0  0  0
 20 43  1  0  0  0  0
 21 44  1  0  0  0  0
 22 24  2  0  0  0  0
 22 45  1  0  0  0  0
 23 24  1  0  0  0  0
 23 46  1  0  0  0  0
 24 47  1  0  0  0  0
M  END
> <PUBCHEM_COMPOUND_CID>
21219166

> <PUBCHEM_COMPOUND_CANONICALIZED>
1

> <PUBCHEM_CACTVS_COMPLEXITY>
365

> <PUBCHEM_CACTVS_HBOND_ACCEPTOR>
2

> <PUBCHEM_CACTVS_HBOND_DONOR>
0

> <PUBCHEM_CACTVS_ROTATABLE_BOND>
4

> <PUBCHEM_CACTVS_SUBSKEYS>
AAADceB7AAAAAAAAAAAAAAAAAAAAAWAAAAA8YIAAAAAAAAAB0AAAHAAAAAAADCjBHgQ9kJcMEACgAzRnZACCgC0xEqAJ2CA4dJiIaKLA2RGUIAhogALIyCcQgIAOAAAAAAAAAAAAAAAAAAAAAAAAAAAAAA==

> <PUBCHEM_IUPAC_OPENEYE_NAME>
1-benzyl-4-(4-phenylimidazol-1-yl)piperidine

> <PUBCHEM_IUPAC_CAS_NAME>
4-(4-phenyl-1-imidazolyl)-1-(phenylmethyl)piperidine

> <PUBCHEM_IUPAC_NAME_MARKUP>
1-benzyl-4-(4-phenylimidazol-1-yl)piperidine

> <PUBCHEM_IUPAC_NAME>
1-benzyl-4-(4-phenylimidazol-1-yl)piperidine

> <PUBCHEM_IUPAC_SYSTEMATIC_NAME>
4-(4-phenylimidazol-1-yl)-1-(phenylmethyl)piperidine

> <PUBCHEM_IUPAC_TRADITIONAL_NAME>
1-benzyl-4-(4-phenylimidazol-1-yl)piperidine

> <PUBCHEM_IUPAC_INCHI>
InChI=1S/C21H23N3/c1-3-7-18(8-4-1)15-23-13-11-20(12-14-23)24-16-21(22-17-24)19-9-5-2-6-10-19/h1-10,16-17,20H,11-15H2

> <PUBCHEM_IUPAC_INCHIKEY>
JCQGRHIIKSHVDZ-UHFFFAOYSA-N

> <PUBCHEM_XLOGP3_AA>
3.7

> <PUBCHEM_EXACT_MASS>
317.189197746

> <PUBCHEM_MOLECULAR_FORMULA>
C21H23N3

> <PUBCHEM_MOLECULAR_WEIGHT>
317.4

> <PUBCHEM_OPENEYE_CAN_SMILES>
C1CN(CCC1N2C=C(N=C2)C3=CC=CC=C3)CC4=CC=CC=C4

> <PUBCHEM_OPENEYE_ISO_SMILES>
C1CN(CCC1N2C=C(N=C2)C3=CC=CC=C3)CC4=CC=CC=C4

> <PUBCHEM_CACTVS_TPSA>
21.1

> <PUBCHEM_MONOISOTOPIC_WEIGHT>
317.189197746

> <PUBCHEM_TOTAL_CHARGE>
0

> <PUBCHEM_HEAVY_ATOM_COUNT>
24

> <PUBCHEM_ATOM_DEF_STEREO_COUNT>
0

> <PUBCHEM_ATOM_UDEF_STEREO_COUNT>
0

> <PUBCHEM_BOND_DEF_STEREO_COUNT>
0

> <PUBCHEM_BOND_UDEF_STEREO_COUNT>
0

> <PUBCHEM_ISOTOPIC_ATOM_COUNT>
0

> <PUBCHEM_COMPONENT_COUNT>
1

> <PUBCHEM_CACTVS_TAUTO_COUNT>
-1

> <PUBCHEM_COORDINATE_TYPE>
1
5
255

> <PUBCHEM_BONDANNOTATIONS>
10  13  8
12  14  8
12  15  8
14  17  8
15  18  8
16  19  8
16  20  8
17  21  8
18  21  8
19  22  8
2  10  8
2  11  8
20  23  8
22  24  8
23  24  8
3  11  8
3  13  8

$$$$
