15115525
  -OEChem-09292322142D

 53 57  0     1  0  0  0  0  0999 V2000
    8.4436   -4.8218    0.0000 Br  0  0  0  0  0  0  0  0  0  0  0  0
    8.4436   -2.7735    0.0000 O   0  0  0  0  0  0  0  0  0  0  0  0
    6.0513    4.3422    0.0000 O   0  0  0  0  0  0  0  0  0  0  0  0
    2.0000    3.6515    0.0000 O   0  5  0  0  0  0  0  0  0  0  0  0
    3.1781    4.9212    0.0000 O   0  0  0  0  0  0  0  0  0  0  0  0
    3.5889   -3.7977    0.0000 N   0  0  3  0  0  0  0  0  0  0  0  0
    5.8878    1.2255    0.0000 N   0  0  0  0  0  0  0  0  0  0  0  0
    6.2442    3.3670    0.0000 N   0  0  0  0  0  0  0  0  0  0  0  0
    5.0644    4.4617    0.0000 N   0  0  0  0  0  0  0  0  0  0  0  0
    2.9556    3.9462    0.0000 N   0  3  0  0  0  0  0  0  0  0  0  0
    4.9977   -2.6742    0.0000 C   0  0  3  0  0  0  0  0  0  0  0  0
    4.0228   -2.8967    0.0000 C   0  0  0  0  0  0  0  0  0  0  0  0
    5.7795   -3.2977    0.0000 C   0  0  0  0  0  0  0  0  0  0  0  0
    4.0228   -4.6986    0.0000 C   0  0  0  0  0  0  0  0  0  0  0  0
    4.9977   -4.9212    0.0000 C   0  0  0  0  0  0  0  0  0  0  0  0
    5.7795   -4.2977    0.0000 C   0  0  0  0  0  0  0  0  0  0  0  0
    5.2202   -1.6992    0.0000 C   0  0  0  0  0  0  0  0  0  0  0  0
    6.6735   -2.7630    0.0000 C   0  0  0  0  0  0  0  0  0  0  0  0
    2.5889   -3.7977    0.0000 C   0  0  0  0  0  0  0  0  0  0  0  0
    6.6735   -4.8323    0.0000 C   0  0  0  0  0  0  0  0  0  0  0  0
    4.4872   -1.0191    0.0000 C   0  0  0  0  0  0  0  0  0  0  0  0
    6.1758   -1.4045    0.0000 C   0  0  0  0  0  0  0  0  0  0  0  0
    7.5795   -3.2768    0.0000 C   0  0  0  0  0  0  0  0  0  0  0  0
    7.5795   -4.3185    0.0000 C   0  0  0  0  0  0  0  0  0  0  0  0
    4.7097   -0.0441    0.0000 C   0  0  0  0  0  0  0  0  0  0  0  0
    6.3983   -0.4296    0.0000 C   0  0  0  0  0  0  0  0  0  0  0  0
    5.6653    0.2506    0.0000 C   0  0  0  0  0  0  0  0  0  0  0  0
    5.1547    1.9057    0.0000 C   0  0  0  0  0  0  0  0  0  0  0  0
    5.3772    2.8806    0.0000 C   0  0  0  0  0  0  0  0  0  0  0  0
    4.1992    1.6110    0.0000 C   0  0  0  0  0  0  0  0  0  0  0  0
    4.6442    3.5608    0.0000 C   0  0  0  0  0  0  0  0  0  0  0  0
    3.6886    3.2660    0.0000 C   0  0  0  0  0  0  0  0  0  0  0  0
    3.4661    2.2911    0.0000 C   0  0  0  0  0  0  0  0  0  0  0  0
    4.5593   -2.2358    0.0000 H   0  0  0  0  0  0  0  0  0  0  0  0
    4.0228   -2.2767    0.0000 H   0  0  0  0  0  0  0  0  0  0  0  0
    3.4183   -2.7587    0.0000 H   0  0  0  0  0  0  0  0  0  0  0  0
    3.4183   -4.8366    0.0000 H   0  0  0  0  0  0  0  0  0  0  0  0
    4.0228   -5.3186    0.0000 H   0  0  0  0  0  0  0  0  0  0  0  0
    4.7287   -5.4798    0.0000 H   0  0  0  0  0  0  0  0  0  0  0  0
    5.4824   -5.3077    0.0000 H   0  0  0  0  0  0  0  0  0  0  0  0
    6.6663   -2.1430    0.0000 H   0  0  0  0  0  0  0  0  0  0  0  0
    2.5889   -3.1777    0.0000 H   0  0  0  0  0  0  0  0  0  0  0  0
    1.9689   -3.7977    0.0000 H   0  0  0  0  0  0  0  0  0  0  0  0
    2.5889   -4.4177    0.0000 H   0  0  0  0  0  0  0  0  0  0  0  0
    6.6663   -5.4523    0.0000 H   0  0  0  0  0  0  0  0  0  0  0  0
    3.8947   -1.2018    0.0000 H   0  0  0  0  0  0  0  0  0  0  0  0
    6.6303   -1.8262    0.0000 H   0  0  0  0  0  0  0  0  0  0  0  0
    4.2552    0.3776    0.0000 H   0  0  0  0  0  0  0  0  0  0  0  0
    6.9908   -0.2468    0.0000 H   0  0  0  0  0  0  0  0  0  0  0  0
    6.4802    1.4083    0.0000 H   0  0  0  0  0  0  0  0  0  0  0  0
    8.9818   -3.0814    0.0000 H   0  0  0  0  0  0  0  0  0  0  0  0
    4.0612    1.0065    0.0000 H   0  0  0  0  0  0  0  0  0  0  0  0
    2.8736    2.1084    0.0000 H   0  0  0  0  0  0  0  0  0  0  0  0
  1 24  1  0  0  0  0
  2 23  1  0  0  0  0
  2 51  1  0  0  0  0
  3  8  1  0  0  0  0
  3  9  1  0  0  0  0
  4 10  1  0  0  0  0
  5 10  2  0  0  0  0
  6 12  1  0  0  0  0
  6 14  1  0  0  0  0
  6 19  1  0  0  0  0
  7 27  1  0  0  0  0
  7 28  1  0  0  0  0
  7 50  1  0  0  0  0
  8 29  2  0  0  0  0
  9 31  2  0  0  0  0
 10 32  1  0  0  0  0
 11 12  1  0  0  0  0
 11 13  1  0  0  0  0
 11 17  1  0  0  0  0
 11 34  1  0  0  0  0
 12 35  1  0  0  0  0
 12 36  1  0  0  0  0
 13 16  1  0  0  0  0
 13 18  2  0  0  0  0
 14 15  1  0  0  0  0
 14 37  1  0  0  0  0
 14 38  1  0  0  0  0
 15 16  1  0  0  0  0
 15 39  1  0  0  0  0
 15 40  1  0  0  0  0
 16 20  2  0  0  0  0
 17 21  2  0  0  0  0
 17 22  1  0  0  0  0
 18 23  1  0  0  0  0
 18 41  1  0  0  0  0
 19 42  1  0  0  0  0
 19 43  1  0  0  0  0
 19 44  1  0  0  0  0
 20 24  1  0  0  0  0
 20 45  1  0  0  0  0
 21 25  1  0  0  0  0
 21 46  1  0  0  0  0
 22 26  2  0  0  0  0
 22 47  1  0  0  0  0
 23 24  2  0  0  0  0
 25 27  2  0  0  0  0
 25 48  1  0  0  0  0
 26 27  1  0  0  0  0
 26 49  1  0  0  0  0
 28 29  1  0  0  0  0
 28 30  2  0  0  0  0
 29 31  1  0  0  0  0
 30 33  1  0  0  0  0
 30 52  1  0  0  0  0
 31 32  1  0  0  0  0
 32 33  2  0  0  0  0
 33 53  1  0  0  0  0
M  CHG  2   4  -1  10   1
M  END
> <PUBCHEM_COMPOUND_CID>
15115525

> <PUBCHEM_COMPOUND_CANONICALIZED>
1

> <PUBCHEM_CACTVS_COMPLEXITY>
690

> <PUBCHEM_CACTVS_HBOND_ACCEPTOR>
8

> <PUBCHEM_CACTVS_HBOND_DONOR>
2

> <PUBCHEM_CACTVS_ROTATABLE_BOND>
3

> <PUBCHEM_CACTVS_SUBSKEYS>
AAADceB7uAAAEAAAAAAAAAAAAAAAAWAAAAAwYMAABYAAAFgB9AAAHgBUCAABrQzBngQyxrPQQgChAyRiQwCCAAQhMgQomCAufLoIZuLC0dOUdAhk0JHI2heQ0PIOqgCBEAQQBCBUAQIgCCAIQAAAAAAAAA==

> <PUBCHEM_IUPAC_OPENEYE_NAME>
8-bromo-3-methyl-5-[4-[(4-nitro-2,1,3-benzoxadiazol-7-yl)amino]phenyl]-1,2,4,5-tetrahydro-3-benzazepin-7-ol

> <PUBCHEM_IUPAC_CAS_NAME>
8-bromo-3-methyl-5-[4-[(4-nitro-2,1,3-benzoxadiazol-7-yl)amino]phenyl]-1,2,4,5-tetrahydro-3-benzazepin-7-ol

> <PUBCHEM_IUPAC_NAME_MARKUP>
8-bromo-3-methyl-5-[4-[(4-nitro-2,1,3-benzoxadiazol-7-yl)amino]phenyl]-1,2,4,5-tetrahydro-3-benzazepin-7-ol

> <PUBCHEM_IUPAC_NAME>
8-bromo-3-methyl-5-[4-[(4-nitro-2,1,3-benzoxadiazol-7-yl)amino]phenyl]-1,2,4,5-tetrahydro-3-benzazepin-7-ol

> <PUBCHEM_IUPAC_SYSTEMATIC_NAME>
8-bromanyl-3-methyl-5-[4-[(4-nitro-2,1,3-benzoxadiazol-7-yl)amino]phenyl]-1,2,4,5-tetrahydro-3-benzazepin-7-ol

> <PUBCHEM_IUPAC_TRADITIONAL_NAME>
8-bromo-3-methyl-5-[4-[(7-nitrobenzofurazan-4-yl)amino]phenyl]-1,2,4,5-tetrahydro-3-benzazepin-7-ol

> <PUBCHEM_IUPAC_INCHI>
InChI=1S/C23H20BrN5O4/c1-28-9-8-14-10-18(24)21(30)11-16(14)17(12-28)13-2-4-15(5-3-13)25-19-6-7-20(29(31)32)23-22(19)26-33-27-23/h2-7,10-11,17,25,30H,8-9,12H2,1H3

> <PUBCHEM_IUPAC_INCHIKEY>
PAOQGQGDDFSBTF-UHFFFAOYSA-N

> <PUBCHEM_XLOGP3_AA>
4.7

> <PUBCHEM_EXACT_MASS>
509.06987

> <PUBCHEM_MOLECULAR_FORMULA>
C23H20BrN5O4

> <PUBCHEM_MOLECULAR_WEIGHT>
510.3

> <PUBCHEM_OPENEYE_CAN_SMILES>
CN1CCC2=CC(=C(C=C2C(C1)C3=CC=C(C=C3)NC4=CC=C(C5=NON=C45)[N+](=O)[O-])O)Br

> <PUBCHEM_OPENEYE_ISO_SMILES>
CN1CCC2=CC(=C(C=C2C(C1)C3=CC=C(C=C3)NC4=CC=C(C5=NON=C45)[N+](=O)[O-])O)Br

> <PUBCHEM_CACTVS_TPSA>
120

> <PUBCHEM_MONOISOTOPIC_WEIGHT>
509.06987

> <PUBCHEM_TOTAL_CHARGE>
0

> <PUBCHEM_HEAVY_ATOM_COUNT>
33

> <PUBCHEM_ATOM_DEF_STEREO_COUNT>
0

> <PUBCHEM_ATOM_UDEF_STEREO_COUNT>
1

> <PUBCHEM_BOND_DEF_STEREO_COUNT>
0

> <PUBCHEM_BOND_UDEF_STEREO_COUNT>
0

> <PUBCHEM_ISOTOPIC_ATOM_COUNT>
0

> <PUBCHEM_COMPONENT_COUNT>
1

> <PUBCHEM_CACTVS_TAUTO_COUNT>
-1

> <PUBCHEM_COORDINATE_TYPE>
1
5
255

> <PUBCHEM_BONDANNOTATIONS>
11  17  3
13  16  8
13  18  8
16  20  8
17  21  8
17  22  8
18  23  8
20  24  8
21  25  8
22  26  8
23  24  8
25  27  8
26  27  8
28  29  8
28  30  8
29  31  8
3  8  8
3  9  8
30  33  8
31  32  8
32  33  8
8  29  8
9  31  8

$$$$
