145965203
  -OEChem-09292322052D

 58 59  0     0  0  0  0  0  0999 V2000
    9.1360    6.3700    0.0000 Cl  0  0  0  0  0  0  0  0  0  0  0  0
    4.8671    8.6200    0.0000 O   0  0  0  0  0  0  0  0  0  0  0  0
    1.4030    2.6200    0.0000 O   0  0  0  0  0  0  0  0  0  0  0  0
    3.1350    5.6200    0.0000 N   0  0  0  0  0  0  0  0  0  0  0  0
    3.1350    3.6200    0.0000 N   0  0  0  0  0  0  0  0  0  0  0  0
    4.0010    5.1200    0.0000 C   0  0  0  0  0  0  0  0  0  0  0  0
    2.2690    5.1200    0.0000 C   0  0  0  0  0  0  0  0  0  0  0  0
    4.0010    4.1200    0.0000 C   0  0  0  0  0  0  0  0  0  0  0  0
    2.2690    4.1200    0.0000 C   0  0  0  0  0  0  0  0  0  0  0  0
    3.1350    6.6200    0.0000 C   0  0  0  0  0  0  0  0  0  0  0  0
    4.0010    7.1200    0.0000 C   0  0  0  0  0  0  0  0  0  0  0  0
    3.1350    2.6200    0.0000 C   0  0  0  0  0  0  0  0  0  0  0  0
    4.0010    8.1200    0.0000 C   0  0  0  0  0  0  0  0  0  0  0  0
    2.2690    2.1200    0.0000 C   0  0  0  0  0  0  0  0  0  0  0  0
    4.0010    2.1200    0.0000 C   0  0  0  0  0  0  0  0  0  0  0  0
    2.2690    1.1200    0.0000 C   0  0  0  0  0  0  0  0  0  0  0  0
    4.0010    1.1200    0.0000 C   0  0  0  0  0  0  0  0  0  0  0  0
    3.1350    0.6200    0.0000 C   0  0  0  0  0  0  0  0  0  0  0  0
    4.8671    9.6200    0.0000 C   0  0  0  0  0  0  0  0  0  0  0  0
    5.7331   10.1200    0.0000 C   0  0  0  0  0  0  0  0  0  0  0  0
    4.0010   10.1200    0.0000 C   0  0  0  0  0  0  0  0  0  0  0  0
    0.5369    2.1200    0.0000 C   0  0  0  0  0  0  0  0  0  0  0  0
    5.7331   11.1200    0.0000 C   0  0  0  0  0  0  0  0  0  0  0  0
    4.8671   11.6200    0.0000 C   0  0  0  0  0  0  0  0  0  0  0  0
    4.0010   11.1200    0.0000 C   0  0  0  0  0  0  0  0  0  0  0  0
    6.5991    9.6200    0.0000 C   0  0  0  0  0  0  0  0  0  0  0  0
    4.8671   12.6200    0.0000 C   0  0  0  0  0  0  0  0  0  0  0  0
    4.6116    5.0123    0.0000 H   0  0  0  0  0  0  0  0  0  0  0  0
    4.2131    5.7026    0.0000 H   0  0  0  0  0  0  0  0  0  0  0  0
    2.0569    5.7026    0.0000 H   0  0  0  0  0  0  0  0  0  0  0  0
    1.6584    5.0123    0.0000 H   0  0  0  0  0  0  0  0  0  0  0  0
    4.2131    3.5374    0.0000 H   0  0  0  0  0  0  0  0  0  0  0  0
    4.6116    4.2277    0.0000 H   0  0  0  0  0  0  0  0  0  0  0  0
    1.6584    4.2277    0.0000 H   0  0  0  0  0  0  0  0  0  0  0  0
    2.0569    3.5374    0.0000 H   0  0  0  0  0  0  0  0  0  0  0  0
    2.9230    7.2026    0.0000 H   0  0  0  0  0  0  0  0  0  0  0  0
    2.5244    6.5123    0.0000 H   0  0  0  0  0  0  0  0  0  0  0  0
    4.2131    6.5374    0.0000 H   0  0  0  0  0  0  0  0  0  0  0  0
    4.6116    7.2277    0.0000 H   0  0  0  0  0  0  0  0  0  0  0  0
    3.7890    8.7026    0.0000 H   0  0  0  0  0  0  0  0  0  0  0  0
    3.3905    8.0123    0.0000 H   0  0  0  0  0  0  0  0  0  0  0  0
    4.5380    2.4300    0.0000 H   0  0  0  0  0  0  0  0  0  0  0  0
    1.7320    0.8100    0.0000 H   0  0  0  0  0  0  0  0  0  0  0  0
    4.5380    0.8100    0.0000 H   0  0  0  0  0  0  0  0  0  0  0  0
    3.1350    0.0000    0.0000 H   0  0  0  0  0  0  0  0  0  0  0  0
    3.4641    9.8100    0.0000 H   0  0  0  0  0  0  0  0  0  0  0  0
    0.2269    2.6569    0.0000 H   0  0  0  0  0  0  0  0  0  0  0  0
    0.0000    1.8100    0.0000 H   0  0  0  0  0  0  0  0  0  0  0  0
    0.8469    1.5831    0.0000 H   0  0  0  0  0  0  0  0  0  0  0  0
    6.2700   11.4300    0.0000 H   0  0  0  0  0  0  0  0  0  0  0  0
    3.4641   11.4300    0.0000 H   0  0  0  0  0  0  0  0  0  0  0  0
    6.2891    9.0831    0.0000 H   0  0  0  0  0  0  0  0  0  0  0  0
    7.1360    9.3100    0.0000 H   0  0  0  0  0  0  0  0  0  0  0  0
    6.9091   10.1569    0.0000 H   0  0  0  0  0  0  0  0  0  0  0  0
    5.4871   12.6200    0.0000 H   0  0  0  0  0  0  0  0  0  0  0  0
    4.8671   13.2400    0.0000 H   0  0  0  0  0  0  0  0  0  0  0  0
    4.2471   12.6200    0.0000 H   0  0  0  0  0  0  0  0  0  0  0  0
   10.1360    6.3700    0.0000 H   0  0  0  0  0  0  0  0  0  0  0  0
  1 58  1  0  0  0  0
  2 13  1  0  0  0  0
  2 19  1  0  0  0  0
  3 14  1  0  0  0  0
  3 22  1  0  0  0  0
  4  6  1  0  0  0  0
  4  7  1  0  0  0  0
  4 10  1  0  0  0  0
  5  8  1  0  0  0  0
  5  9  1  0  0  0  0
  5 12  1  0  0  0  0
  6  8  1  0  0  0  0
  6 28  1  0  0  0  0
  6 29  1  0  0  0  0
  7  9  1  0  0  0  0
  7 30  1  0  0  0  0
  7 31  1  0  0  0  0
  8 32  1  0  0  0  0
  8 33  1  0  0  0  0
  9 34  1  0  0  0  0
  9 35  1  0  0  0  0
 10 11  1  0  0  0  0
 10 36  1  0  0  0  0
 10 37  1  0  0  0  0
 11 13  1  0  0  0  0
 11 38  1  0  0  0  0
 11 39  1  0  0  0  0
 12 14  1  0  0  0  0
 12 15  2  0  0  0  0
 13 40  1  0  0  0  0
 13 41  1  0  0  0  0
 14 16  2  0  0  0  0
 15 17  1  0  0  0  0
 15 42  1  0  0  0  0
 16 18  1  0  0  0  0
 16 43  1  0  0  0  0
 17 18  2  0  0  0  0
 17 44  1  0  0  0  0
 18 45  1  0  0  0  0
 19 20  2  0  0  0  0
 19 21  1  0  0  0  0
 20 23  1  0  0  0  0
 20 26  1  0  0  0  0
 21 25  2  0  0  0  0
 21 46  1  0  0  0  0
 22 47  1  0  0  0  0
 22 48  1  0  0  0  0
 22 49  1  0  0  0  0
 23 24  2  0  0  0  0
 23 50  1  0  0  0  0
 24 25  1  0  0  0  0
 24 27  1  0  0  0  0
 25 51  1  0  0  0  0
 26 52  1  0  0  0  0
 26 53  1  0  0  0  0
 26 54  1  0  0  0  0
 27 55  1  0  0  0  0
 27 56  1  0  0  0  0
 27 57  1  0  0  0  0
M  END
> <PUBCHEM_COMPOUND_CID>
145965203

> <PUBCHEM_COMPOUND_CANONICALIZED>
1

> <PUBCHEM_CACTVS_COMPLEXITY>
398

> <PUBCHEM_CACTVS_HBOND_ACCEPTOR>
4

> <PUBCHEM_CACTVS_HBOND_DONOR>
1

> <PUBCHEM_CACTVS_ROTATABLE_BOND>
7

> <PUBCHEM_CACTVS_SUBSKEYS>
AAADceB7MAAEAAAAAAAAAAAAAAAAAAAAAAA8YIAAAAAAAAABQAAAHgAAAAAADAzhmAYyxoMABACAAiRCQACCCAAhIgAIiAAPbIgOZiLEsZuXOCjmwBHY6AeQwGAOIAACAAAIEABAAAQAABAgAAAAAAAAAA==

> <PUBCHEM_IUPAC_OPENEYE_NAME>
1-[3-(2,4-dimethylphenoxy)propyl]-4-(2-methoxyphenyl)piperazine;hydrochloride

> <PUBCHEM_IUPAC_CAS_NAME>
1-[3-(2,4-dimethylphenoxy)propyl]-4-(2-methoxyphenyl)piperazine;hydrochloride

> <PUBCHEM_IUPAC_NAME_MARKUP>
1-[3-(2,4-dimethylphenoxy)propyl]-4-(2-methoxyphenyl)piperazine;hydrochloride

> <PUBCHEM_IUPAC_NAME>
1-[3-(2,4-dimethylphenoxy)propyl]-4-(2-methoxyphenyl)piperazine;hydrochloride

> <PUBCHEM_IUPAC_SYSTEMATIC_NAME>
1-[3-(2,4-dimethylphenoxy)propyl]-4-(2-methoxyphenyl)piperazine;hydrochloride

> <PUBCHEM_IUPAC_TRADITIONAL_NAME>
1-[3-(2,4-dimethylphenoxy)propyl]-4-(2-methoxyphenyl)piperazine;hydrochloride

> <PUBCHEM_IUPAC_INCHI>
InChI=1S/C22H30N2O2.ClH/c1-18-9-10-21(19(2)17-18)26-16-6-11-23-12-14-24(15-13-23)20-7-4-5-8-22(20)25-3;/h4-5,7-10,17H,6,11-16H2,1-3H3;1H

> <PUBCHEM_IUPAC_INCHIKEY>
KLUFPWHPNQQEIE-UHFFFAOYSA-N

> <PUBCHEM_EXACT_MASS>
390.2074059

> <PUBCHEM_MOLECULAR_FORMULA>
C22H31ClN2O2

> <PUBCHEM_MOLECULAR_WEIGHT>
390.9

> <PUBCHEM_OPENEYE_CAN_SMILES>
CC1=CC(=C(C=C1)OCCCN2CCN(CC2)C3=CC=CC=C3OC)C.Cl

> <PUBCHEM_OPENEYE_ISO_SMILES>
CC1=CC(=C(C=C1)OCCCN2CCN(CC2)C3=CC=CC=C3OC)C.Cl

> <PUBCHEM_CACTVS_TPSA>
24.9

> <PUBCHEM_MONOISOTOPIC_WEIGHT>
390.2074059

> <PUBCHEM_TOTAL_CHARGE>
0

> <PUBCHEM_HEAVY_ATOM_COUNT>
27

> <PUBCHEM_ATOM_DEF_STEREO_COUNT>
0

> <PUBCHEM_ATOM_UDEF_STEREO_COUNT>
0

> <PUBCHEM_BOND_DEF_STEREO_COUNT>
0

> <PUBCHEM_BOND_UDEF_STEREO_COUNT>
0

> <PUBCHEM_ISOTOPIC_ATOM_COUNT>
0

> <PUBCHEM_COMPONENT_COUNT>
2

> <PUBCHEM_CACTVS_TAUTO_COUNT>
-1

> <PUBCHEM_COORDINATE_TYPE>
1
5
255

> <PUBCHEM_BONDANNOTATIONS>
12  14  8
12  15  8
14  16  8
15  17  8
16  18  8
17  18  8
19  20  8
19  21  8
20  23  8
21  25  8
23  24  8
24  25  8

$$$$
