71725021
  -OEChem-09292322072D

 56 59  0     0  0  0  0  0  0999 V2000
    9.7619    2.4291    0.0000 O   0  0  0  0  0  0  0  0  0  0  0  0
    6.7619   -2.7671    0.0000 O   0  0  0  0  0  0  0  0  0  0  0  0
   13.7619    2.4291    0.0000 O   0  0  0  0  0  0  0  0  0  0  0  0
    7.7619    0.6970    0.0000 N   0  0  0  0  0  0  0  0  0  0  0  0
    6.7619   -1.0350    0.0000 N   0  0  0  0  0  0  0  0  0  0  0  0
    4.6783   -2.7058    0.0000 N   0  0  0  0  0  0  0  0  0  0  0  0
    6.7619    0.6970    0.0000 C   0  0  0  0  0  0  0  0  0  0  0  0
    8.2619   -0.1690    0.0000 C   0  0  0  0  0  0  0  0  0  0  0  0
    6.2619   -0.1690    0.0000 C   0  0  0  0  0  0  0  0  0  0  0  0
    7.7619   -1.0350    0.0000 C   0  0  0  0  0  0  0  0  0  0  0  0
    8.2619    1.5630    0.0000 C   0  0  0  0  0  0  0  0  0  0  0  0
    6.2619   -1.9010    0.0000 C   0  0  0  0  0  0  0  0  0  0  0  0
    9.2619    1.5630    0.0000 C   0  0  0  0  0  0  0  0  0  0  0  0
    5.2619   -1.9010    0.0000 C   0  0  0  0  0  0  0  0  0  0  0  0
    4.6783   -1.0963    0.0000 C   0  0  0  0  0  0  0  0  0  0  0  0
    3.7320   -2.4010    0.0000 C   0  0  0  0  0  0  0  0  0  0  0  0
    3.7320   -1.4010    0.0000 C   0  0  0  0  0  0  0  0  0  0  0  0
    2.8660   -2.9010    0.0000 C   0  0  0  0  0  0  0  0  0  0  0  0
    2.8660   -0.9010    0.0000 C   0  0  0  0  0  0  0  0  0  0  0  0
   10.7619    2.4291    0.0000 C   0  0  0  0  0  0  0  0  0  0  0  0
    2.0000   -2.4010    0.0000 C   0  0  0  0  0  0  0  0  0  0  0  0
    2.0000   -1.4010    0.0000 C   0  0  0  0  0  0  0  0  0  0  0  0
   11.2619    1.5630    0.0000 C   0  0  0  0  0  0  0  0  0  0  0  0
   11.2619    3.2951    0.0000 C   0  0  0  0  0  0  0  0  0  0  0  0
   12.2619    1.5630    0.0000 C   0  0  0  0  0  0  0  0  0  0  0  0
   12.2619    3.2951    0.0000 C   0  0  0  0  0  0  0  0  0  0  0  0
   12.7619    2.4291    0.0000 C   0  0  0  0  0  0  0  0  0  0  0  0
   14.2619    3.2951    0.0000 C   0  0  0  0  0  0  0  0  0  0  0  0
   15.2619    3.2951    0.0000 C   0  0  0  0  0  0  0  0  0  0  0  0
    6.8695    1.3076    0.0000 H   0  0  0  0  0  0  0  0  0  0  0  0
    6.1793    0.9091    0.0000 H   0  0  0  0  0  0  0  0  0  0  0  0
    8.7368   -0.5675    0.0000 H   0  0  0  0  0  0  0  0  0  0  0  0
    8.7368    0.2295    0.0000 H   0  0  0  0  0  0  0  0  0  0  0  0
    5.7869    0.2295    0.0000 H   0  0  0  0  0  0  0  0  0  0  0  0
    5.7869   -0.5675    0.0000 H   0  0  0  0  0  0  0  0  0  0  0  0
    7.6542   -1.6456    0.0000 H   0  0  0  0  0  0  0  0  0  0  0  0
    8.3445   -1.2471    0.0000 H   0  0  0  0  0  0  0  0  0  0  0  0
    8.3695    2.1736    0.0000 H   0  0  0  0  0  0  0  0  0  0  0  0
    7.6793    1.7751    0.0000 H   0  0  0  0  0  0  0  0  0  0  0  0
    9.1542    0.9525    0.0000 H   0  0  0  0  0  0  0  0  0  0  0  0
    9.8445    1.3510    0.0000 H   0  0  0  0  0  0  0  0  0  0  0  0
    4.8709   -3.2951    0.0000 H   0  0  0  0  0  0  0  0  0  0  0  0
    4.8709   -0.5070    0.0000 H   0  0  0  0  0  0  0  0  0  0  0  0
    2.8660   -3.5210    0.0000 H   0  0  0  0  0  0  0  0  0  0  0  0
    2.8660   -0.2810    0.0000 H   0  0  0  0  0  0  0  0  0  0  0  0
    1.4631   -2.7110    0.0000 H   0  0  0  0  0  0  0  0  0  0  0  0
    1.4631   -1.0910    0.0000 H   0  0  0  0  0  0  0  0  0  0  0  0
   10.9519    1.0261    0.0000 H   0  0  0  0  0  0  0  0  0  0  0  0
   10.9519    3.8320    0.0000 H   0  0  0  0  0  0  0  0  0  0  0  0
   12.5719    1.0261    0.0000 H   0  0  0  0  0  0  0  0  0  0  0  0
   12.5719    3.8320    0.0000 H   0  0  0  0  0  0  0  0  0  0  0  0
   14.3695    3.9057    0.0000 H   0  0  0  0  0  0  0  0  0  0  0  0
   13.6793    3.5072    0.0000 H   0  0  0  0  0  0  0  0  0  0  0  0
   15.2619    2.6751    0.0000 H   0  0  0  0  0  0  0  0  0  0  0  0
   15.8819    3.2951    0.0000 H   0  0  0  0  0  0  0  0  0  0  0  0
   15.2619    3.9151    0.0000 H   0  0  0  0  0  0  0  0  0  0  0  0
  1 13  1  0  0  0  0
  1 20  1  0  0  0  0
  2 12  2  0  0  0  0
  3 27  1  0  0  0  0
  3 28  1  0  0  0  0
  4  7  1  0  0  0  0
  4  8  1  0  0  0  0
  4 11  1  0  0  0  0
  5  9  1  0  0  0  0
  5 10  1  0  0  0  0
  5 12  1  0  0  0  0
  6 14  1  0  0  0  0
  6 16  1  0  0  0  0
  6 42  1  0  0  0  0
  7  9  1  0  0  0  0
  7 30  1  0  0  0  0
  7 31  1  0  0  0  0
  8 10  1  0  0  0  0
  8 32  1  0  0  0  0
  8 33  1  0  0  0  0
  9 34  1  0  0  0  0
  9 35  1  0  0  0  0
 10 36  1  0  0  0  0
 10 37  1  0  0  0  0
 11 13  1  0  0  0  0
 11 38  1  0  0  0  0
 11 39  1  0  0  0  0
 12 14  1  0  0  0  0
 13 40  1  0  0  0  0
 13 41  1  0  0  0  0
 14 15  2  0  0  0  0
 15 17  1  0  0  0  0
 15 43  1  0  0  0  0
 16 17  1  0  0  0  0
 16 18  2  0  0  0  0
 17 19  2  0  0  0  0
 18 21  1  0  0  0  0
 18 44  1  0  0  0  0
 19 22  1  0  0  0  0
 19 45  1  0  0  0  0
 20 23  2  0  0  0  0
 20 24  1  0  0  0  0
 21 22  2  0  0  0  0
 21 46  1  0  0  0  0
 22 47  1  0  0  0  0
 23 25  1  0  0  0  0
 23 48  1  0  0  0  0
 24 26  2  0  0  0  0
 24 49  1  0  0  0  0
 25 27  2  0  0  0  0
 25 50  1  0  0  0  0
 26 27  1  0  0  0  0
 26 51  1  0  0  0  0
 28 29  1  0  0  0  0
 28 52  1  0  0  0  0
 28 53  1  0  0  0  0
 29 54  1  0  0  0  0
 29 55  1  0  0  0  0
 29 56  1  0  0  0  0
M  END
> <PUBCHEM_COMPOUND_CID>
71725021

> <PUBCHEM_COMPOUND_CANONICALIZED>
1

> <PUBCHEM_CACTVS_COMPLEXITY>
516

> <PUBCHEM_CACTVS_HBOND_ACCEPTOR>
4

> <PUBCHEM_CACTVS_HBOND_DONOR>
1

> <PUBCHEM_CACTVS_ROTATABLE_BOND>
7

> <PUBCHEM_CACTVS_SUBSKEYS>
AAADceB7MAAAAAAAAAAAAAAAAAAAAWAAAAA8YIAAAAAAAFgB9AAAHgAQAAAADAzhngYyxvPJlACoAyVyVACCiCAnIiAImSG+bNgOZvLEtbuXOSjk1hHY6YfYyYCeAQAAAAACAAACAAAAAAQAAAAAAAAAAA==

> <PUBCHEM_IUPAC_OPENEYE_NAME>
[4-[2-(4-ethoxyphenoxy)ethyl]piperazin-1-yl]-(1H-indol-2-yl)methanone

> <PUBCHEM_IUPAC_CAS_NAME>
[4-[2-(4-ethoxyphenoxy)ethyl]-1-piperazinyl]-(1H-indol-2-yl)methanone

> <PUBCHEM_IUPAC_NAME_MARKUP>
[4-[2-(4-ethoxyphenoxy)ethyl]piperazin-1-yl]-(1<I>H</I>-indol-2-yl)methanone

> <PUBCHEM_IUPAC_NAME>
[4-[2-(4-ethoxyphenoxy)ethyl]piperazin-1-yl]-(1H-indol-2-yl)methanone

> <PUBCHEM_IUPAC_SYSTEMATIC_NAME>
[4-[2-(4-ethoxyphenoxy)ethyl]piperazin-1-yl]-(1H-indol-2-yl)methanone

> <PUBCHEM_IUPAC_TRADITIONAL_NAME>
[4-[2-(4-ethoxyphenoxy)ethyl]piperazino]-(1H-indol-2-yl)methanone

> <PUBCHEM_IUPAC_INCHI>
InChI=1S/C23H27N3O3/c1-2-28-19-7-9-20(10-8-19)29-16-15-25-11-13-26(14-12-25)23(27)22-17-18-5-3-4-6-21(18)24-22/h3-10,17,24H,2,11-16H2,1H3

> <PUBCHEM_IUPAC_INCHIKEY>
QYETVCTUVFTNRJ-UHFFFAOYSA-N

> <PUBCHEM_XLOGP3_AA>
3.7

> <PUBCHEM_EXACT_MASS>
393.20524173

> <PUBCHEM_MOLECULAR_FORMULA>
C23H27N3O3

> <PUBCHEM_MOLECULAR_WEIGHT>
393.5

> <PUBCHEM_OPENEYE_CAN_SMILES>
CCOC1=CC=C(C=C1)OCCN2CCN(CC2)C(=O)C3=CC4=CC=CC=C4N3

> <PUBCHEM_OPENEYE_ISO_SMILES>
CCOC1=CC=C(C=C1)OCCN2CCN(CC2)C(=O)C3=CC4=CC=CC=C4N3

> <PUBCHEM_CACTVS_TPSA>
57.8

> <PUBCHEM_MONOISOTOPIC_WEIGHT>
393.20524173

> <PUBCHEM_TOTAL_CHARGE>
0

> <PUBCHEM_HEAVY_ATOM_COUNT>
29

> <PUBCHEM_ATOM_DEF_STEREO_COUNT>
0

> <PUBCHEM_ATOM_UDEF_STEREO_COUNT>
0

> <PUBCHEM_BOND_DEF_STEREO_COUNT>
0

> <PUBCHEM_BOND_UDEF_STEREO_COUNT>
0

> <PUBCHEM_ISOTOPIC_ATOM_COUNT>
0

> <PUBCHEM_COMPONENT_COUNT>
1

> <PUBCHEM_CACTVS_TAUTO_COUNT>
-1

> <PUBCHEM_COORDINATE_TYPE>
1
5
255

> <PUBCHEM_BONDANNOTATIONS>
14  15  8
15  17  8
16  17  8
16  18  8
17  19  8
18  21  8
19  22  8
20  23  8
20  24  8
21  22  8
23  25  8
24  26  8
25  27  8
26  27  8
6  14  8
6  16  8

$$$$
