137631807
  -OEChem-09292322002D

 73 77  0     1  0  0  0  0  0999 V2000
    6.5069   -1.0029    0.0000 O   0  0  0  0  0  0  0  0  0  0  0  0
    5.7124    3.4306    0.0000 O   0  0  0  0  0  0  0  0  0  0  0  0
    6.3015   -2.7485    0.0000 N   0  0  0  0  0  0  0  0  0  0  0  0
    8.0336   -4.7485    0.0000 N   0  0  0  0  0  0  0  0  0  0  0  0
    4.9428   -1.8046    0.0000 N   0  0  0  0  0  0  0  0  0  0  0  0
    4.2521    2.4992    0.0000 N   0  0  0  0  0  0  0  0  0  0  0  0
    4.5403    5.1543    0.0000 N   0  0  0  0  0  0  0  0  0  0  0  0
    7.1675   -4.2485    0.0000 C   0  0  1  0  0  0  0  0  0  0  0  0
    7.1675   -3.2485    0.0000 C   0  0  0  0  0  0  0  0  0  0  0  0
    6.3015   -4.7485    0.0000 C   0  0  0  0  0  0  0  0  0  0  0  0
    5.4355   -3.2485    0.0000 C   0  0  0  0  0  0  0  0  0  0  0  0
    5.4355   -4.2485    0.0000 C   0  0  0  0  0  0  0  0  0  0  0  0
    4.5415   -2.7139    0.0000 C   0  0  0  0  0  0  0  0  0  0  0  0
    5.9364   -1.8242    0.0000 C   0  0  0  0  0  0  0  0  0  0  0  0
    8.0336   -5.7485    0.0000 C   0  0  0  0  0  0  0  0  0  0  0  0
    8.8996   -4.2485    0.0000 C   0  0  0  0  0  0  0  0  0  0  0  0
    4.5415   -4.7832    0.0000 C   0  0  0  0  0  0  0  0  0  0  0  0
    4.4050   -0.9615    0.0000 C   0  0  0  0  0  0  0  0  0  0  0  0
    3.6355   -3.2277    0.0000 C   0  0  0  0  0  0  0  0  0  0  0  0
    3.6355   -4.2694    0.0000 C   0  0  0  0  0  0  0  0  0  0  0  0
    8.8996   -6.2485    0.0000 C   0  0  0  0  0  0  0  0  0  0  0  0
    9.7656   -4.7485    0.0000 C   0  0  0  0  0  0  0  0  0  0  0  0
    4.8663   -0.0743    0.0000 C   0  0  0  0  0  0  0  0  0  0  0  0
    4.3286    0.7688    0.0000 C   0  0  0  0  0  0  0  0  0  0  0  0
    8.8996   -7.2485    0.0000 C   0  0  0  0  0  0  0  0  0  0  0  0
   10.6316   -4.2485    0.0000 C   0  0  0  0  0  0  0  0  0  0  0  0
    4.7898    1.6561    0.0000 C   0  0  0  0  0  0  0  0  0  0  0  0
    4.7134    3.3864    0.0000 C   0  0  0  0  0  0  0  0  0  0  0  0
    4.1756    4.2296    0.0000 C   0  0  0  0  0  0  0  0  0  0  0  0
    3.1833    4.2888    0.0000 C   0  0  0  0  0  0  0  0  0  0  0  0
    3.7745    5.7882    0.0000 C   0  0  0  0  0  0  0  0  0  0  0  0
    2.9314    5.2505    0.0000 C   0  0  0  0  0  0  0  0  0  0  0  0
    3.7304    6.7872    0.0000 C   0  0  0  0  0  0  0  0  0  0  0  0
    2.0442    5.7118    0.0000 C   0  0  0  0  0  0  0  0  0  0  0  0
    2.8431    7.2485    0.0000 C   0  0  0  0  0  0  0  0  0  0  0  0
    2.0000    6.7108    0.0000 C   0  0  0  0  0  0  0  0  0  0  0  0
    7.1675   -4.8685    0.0000 H   0  0  0  0  0  0  0  0  0  0  0  0
    7.7781   -3.3562    0.0000 H   0  0  0  0  0  0  0  0  0  0  0  0
    7.3796   -2.6659    0.0000 H   0  0  0  0  0  0  0  0  0  0  0  0
    5.9030   -5.2235    0.0000 H   0  0  0  0  0  0  0  0  0  0  0  0
    6.7000   -5.2235    0.0000 H   0  0  0  0  0  0  0  0  0  0  0  0
    7.4230   -5.6409    0.0000 H   0  0  0  0  0  0  0  0  0  0  0  0
    7.8215   -6.3311    0.0000 H   0  0  0  0  0  0  0  0  0  0  0  0
    9.2981   -3.7736    0.0000 H   0  0  0  0  0  0  0  0  0  0  0  0
    8.5010   -3.7736    0.0000 H   0  0  0  0  0  0  0  0  0  0  0  0
    4.5487   -5.4032    0.0000 H   0  0  0  0  0  0  0  0  0  0  0  0
    3.9129   -0.5844    0.0000 H   0  0  0  0  0  0  0  0  0  0  0  0
    3.9481   -1.3806    0.0000 H   0  0  0  0  0  0  0  0  0  0  0  0
    3.0997   -2.9156    0.0000 H   0  0  0  0  0  0  0  0  0  0  0  0
    3.0997   -4.5814    0.0000 H   0  0  0  0  0  0  0  0  0  0  0  0
    9.5102   -6.3562    0.0000 H   0  0  0  0  0  0  0  0  0  0  0  0
    9.1116   -5.6659    0.0000 H   0  0  0  0  0  0  0  0  0  0  0  0
    9.3671   -5.2235    0.0000 H   0  0  0  0  0  0  0  0  0  0  0  0
   10.1641   -5.2235    0.0000 H   0  0  0  0  0  0  0  0  0  0  0  0
    5.3584   -0.4515    0.0000 H   0  0  0  0  0  0  0  0  0  0  0  0
    5.3232    0.3448    0.0000 H   0  0  0  0  0  0  0  0  0  0  0  0
    3.8365    1.1460    0.0000 H   0  0  0  0  0  0  0  0  0  0  0  0
    3.8717    0.3497    0.0000 H   0  0  0  0  0  0  0  0  0  0  0  0
    8.2796   -7.2485    0.0000 H   0  0  0  0  0  0  0  0  0  0  0  0
    8.8996   -7.8685    0.0000 H   0  0  0  0  0  0  0  0  0  0  0  0
    9.5196   -7.2485    0.0000 H   0  0  0  0  0  0  0  0  0  0  0  0
   10.9416   -4.7855    0.0000 H   0  0  0  0  0  0  0  0  0  0  0  0
   11.1686   -3.9385    0.0000 H   0  0  0  0  0  0  0  0  0  0  0  0
   10.3216   -3.7116    0.0000 H   0  0  0  0  0  0  0  0  0  0  0  0
    5.2819    1.2789    0.0000 H   0  0  0  0  0  0  0  0  0  0  0  0
    5.2467    2.0752    0.0000 H   0  0  0  0  0  0  0  0  0  0  0  0
    3.6327    2.4718    0.0000 H   0  0  0  0  0  0  0  0  0  0  0  0
    5.1407    5.3088    0.0000 H   0  0  0  0  0  0  0  0  0  0  0  0
    2.7900    3.8096    0.0000 H   0  0  0  0  0  0  0  0  0  0  0  0
    4.2531    7.1207    0.0000 H   0  0  0  0  0  0  0  0  0  0  0  0
    1.5214    5.3784    0.0000 H   0  0  0  0  0  0  0  0  0  0  0  0
    2.8157    7.8679    0.0000 H   0  0  0  0  0  0  0  0  0  0  0  0
    1.4499    6.9968    0.0000 H   0  0  0  0  0  0  0  0  0  0  0  0
  1 14  2  0  0  0  0
  2 28  2  0  0  0  0
  3  9  1  0  0  0  0
  3 11  1  0  0  0  0
  3 14  1  0  0  0  0
  8  4  1  6  0  0  0
  4 15  1  0  0  0  0
  4 16  1  0  0  0  0
  5 13  1  0  0  0  0
  5 14  1  0  0  0  0
  5 18  1  0  0  0  0
  6 27  1  0  0  0  0
  6 28  1  0  0  0  0
  6 67  1  0  0  0  0
  7 29  1  0  0  0  0
  7 31  1  0  0  0  0
  7 68  1  0  0  0  0
  8  9  1  0  0  0  0
  8 10  1  0  0  0  0
  8 37  1  0  0  0  0
  9 38  1  0  0  0  0
  9 39  1  0  0  0  0
 10 12  1  0  0  0  0
 10 40  1  0  0  0  0
 10 41  1  0  0  0  0
 11 12  2  0  0  0  0
 11 13  1  0  0  0  0
 12 17  1  0  0  0  0
 13 19  2  0  0  0  0
 15 21  1  0  0  0  0
 15 42  1  0  0  0  0
 15 43  1  0  0  0  0
 16 22  1  0  0  0  0
 16 44  1  0  0  0  0
 16 45  1  0  0  0  0
 17 20  2  0  0  0  0
 17 46  1  0  0  0  0
 18 23  1  0  0  0  0
 18 47  1  0  0  0  0
 18 48  1  0  0  0  0
 19 20  1  0  0  0  0
 19 49  1  0  0  0  0
 20 50  1  0  0  0  0
 21 25  1  0  0  0  0
 21 51  1  0  0  0  0
 21 52  1  0  0  0  0
 22 26  1  0  0  0  0
 22 53  1  0  0  0  0
 22 54  1  0  0  0  0
 23 24  1  0  0  0  0
 23 55  1  0  0  0  0
 23 56  1  0  0  0  0
 24 27  1  0  0  0  0
 24 57  1  0  0  0  0
 24 58  1  0  0  0  0
 25 59  1  0  0  0  0
 25 60  1  0  0  0  0
 25 61  1  0  0  0  0
 26 62  1  0  0  0  0
 26 63  1  0  0  0  0
 26 64  1  0  0  0  0
 27 65  1  0  0  0  0
 27 66  1  0  0  0  0
 28 29  1  0  0  0  0
 29 30  2  0  0  0  0
 30 32  1  0  0  0  0
 30 69  1  0  0  0  0
 31 32  1  0  0  0  0
 31 33  2  0  0  0  0
 32 34  2  0  0  0  0
 33 35  1  0  0  0  0
 33 70  1  0  0  0  0
 34 36  1  0  0  0  0
 34 71  1  0  0  0  0
 35 36  2  0  0  0  0
 35 72  1  0  0  0  0
 36 73  1  0  0  0  0
M  END
> <PUBCHEM_COMPOUND_CID>
137631807

> <PUBCHEM_COMPOUND_CANONICALIZED>
1

> <PUBCHEM_CACTVS_COMPLEXITY>
756

> <PUBCHEM_CACTVS_HBOND_ACCEPTOR>
3

> <PUBCHEM_CACTVS_HBOND_DONOR>
2

> <PUBCHEM_CACTVS_ROTATABLE_BOND>
11

> <PUBCHEM_CACTVS_SUBSKEYS>
AAADcfB7sAAAAAAAAAAAAAAAAAAAAWLAAAA8YIAAAAAAAFix9AAAHgAQAAAADCjBngQzwPPJkACoAyVyVACCgCAnAiAImaG4dNiIYPLAlbGUIQholgLIyacYiYCeAAAAQAACACAAAACAAAQAQAAAAAAAAA==

> <PUBCHEM_IUPAC_OPENEYE_NAME>
N-[4-[(10R)-10-(dipropylamino)-2-oxo-1,3-diazatricyclo[6.3.1.04,12]dodeca-4,6,8(12)-trien-3-yl]butyl]-1H-indole-2-carboxamide

> <PUBCHEM_IUPAC_CAS_NAME>
N-[4-[(10R)-10-(dipropylamino)-2-oxo-1,3-diazatricyclo[6.3.1.04,12]dodeca-4,6,8(12)-trien-3-yl]butyl]-1H-indole-2-carboxamide

> <PUBCHEM_IUPAC_NAME_MARKUP>
<I>N</I>-[4-[(10<I>R</I>)-10-(dipropylamino)-2-oxo-1,3-diazatricyclo[6.3.1.0<SUP>4,12</SUP>]dodeca-4,6,8(12)-trien-3-yl]butyl]-1<I>H</I>-indole-2-carboxamide

> <PUBCHEM_IUPAC_NAME>
N-[4-[(10R)-10-(dipropylamino)-2-oxo-1,3-diazatricyclo[6.3.1.04,12]dodeca-4,6,8(12)-trien-3-yl]butyl]-1H-indole-2-carboxamide

> <PUBCHEM_IUPAC_SYSTEMATIC_NAME>
N-[4-[(10R)-10-(dipropylamino)-2-oxidanylidene-1,3-diazatricyclo[6.3.1.04,12]dodeca-4,6,8(12)-trien-3-yl]butyl]-1H-indole-2-carboxamide

> <PUBCHEM_IUPAC_TRADITIONAL_NAME>
N-[4-[(10R)-10-(dipropylamino)-2-keto-1,3-diazatricyclo[6.3.1.04,12]dodeca-4,6,8(12)-trien-3-yl]butyl]-1H-indole-2-carboxamide

> <PUBCHEM_IUPAC_INCHI>
InChI=1S/C29H37N5O2/c1-3-15-32(16-4-2)23-18-22-11-9-13-26-27(22)34(20-23)29(36)33(26)17-8-7-14-30-28(35)25-19-21-10-5-6-12-24(21)31-25/h5-6,9-13,19,23,31H,3-4,7-8,14-18,20H2,1-2H3,(H,30,35)/t23-/m1/s1

> <PUBCHEM_IUPAC_INCHIKEY>
NNSVOPTWCBGCJU-HSZRJFAPSA-N

> <PUBCHEM_XLOGP3_AA>
5

> <PUBCHEM_EXACT_MASS>
487.29472544

> <PUBCHEM_MOLECULAR_FORMULA>
C29H37N5O2

> <PUBCHEM_MOLECULAR_WEIGHT>
487.6

> <PUBCHEM_OPENEYE_CAN_SMILES>
CCCN(CCC)C1CC2=C3C(=CC=C2)N(C(=O)N3C1)CCCCNC(=O)C4=CC5=CC=CC=C5N4

> <PUBCHEM_OPENEYE_ISO_SMILES>
CCCN(CCC)[C@@H]1CC2=C3C(=CC=C2)N(C(=O)N3C1)CCCCNC(=O)C4=CC5=CC=CC=C5N4

> <PUBCHEM_CACTVS_TPSA>
71.7

> <PUBCHEM_MONOISOTOPIC_WEIGHT>
487.29472544

> <PUBCHEM_TOTAL_CHARGE>
0

> <PUBCHEM_HEAVY_ATOM_COUNT>
36

> <PUBCHEM_ATOM_DEF_STEREO_COUNT>
1

> <PUBCHEM_ATOM_UDEF_STEREO_COUNT>
0

> <PUBCHEM_BOND_DEF_STEREO_COUNT>
0

> <PUBCHEM_BOND_UDEF_STEREO_COUNT>
0

> <PUBCHEM_ISOTOPIC_ATOM_COUNT>
0

> <PUBCHEM_COMPONENT_COUNT>
1

> <PUBCHEM_CACTVS_TAUTO_COUNT>
-1

> <PUBCHEM_COORDINATE_TYPE>
1
5
255

> <PUBCHEM_BONDANNOTATIONS>
11  12  8
11  13  8
12  17  8
13  19  8
17  20  8
19  20  8
29  30  8
3  11  8
3  14  8
30  32  8
31  32  8
31  33  8
32  34  8
33  35  8
34  36  8
35  36  8
8  4  6
5  13  8
5  14  8
7  29  8
7  31  8

$$$$
