24882509
  -OEChem-09292322032D

 74 78  0     0  0  0  0  0  0999 V2000
    2.0000   -4.0242    0.0000 F   0  0  0  0  0  0  0  0  0  0  0  0
   13.3244    2.5000    0.0000 O   0  0  0  0  0  0  0  0  0  0  0  0
    8.9942   -1.0000    0.0000 O   0  0  0  0  0  0  0  0  0  0  0  0
    5.5301   -5.0000    0.0000 O   0  0  0  0  0  0  0  0  0  0  0  0
    9.8602    2.5000    0.0000 N   0  0  0  0  0  0  0  0  0  0  0  0
   11.5923    3.5000    0.0000 N   0  0  0  0  0  0  0  0  0  0  0  0
    7.2622   -1.0000    0.0000 N   0  0  0  0  0  0  0  0  0  0  0  0
    6.3961   -3.5000    0.0000 N   0  0  0  0  0  0  0  0  0  0  0  0
    5.5301   -2.0000    0.0000 N   0  0  0  0  0  0  0  0  0  0  0  0
   10.7263    2.0000    0.0000 C   0  0  0  0  0  0  0  0  0  0  0  0
    9.8602    3.5000    0.0000 C   0  0  0  0  0  0  0  0  0  0  0  0
   11.5923    2.5000    0.0000 C   0  0  0  0  0  0  0  0  0  0  0  0
   10.7263    4.0000    0.0000 C   0  0  0  0  0  0  0  0  0  0  0  0
    8.9942    2.0000    0.0000 C   0  0  0  0  0  0  0  0  0  0  0  0
    8.9942    1.0000    0.0000 C   0  0  0  0  0  0  0  0  0  0  0  0
   12.4583    4.0000    0.0000 C   0  0  0  0  0  0  0  0  0  0  0  0
    8.1282    0.5000    0.0000 C   0  0  0  0  0  0  0  0  0  0  0  0
   13.3244    3.5000    0.0000 C   0  0  0  0  0  0  0  0  0  0  0  0
   12.4583    5.0000    0.0000 C   0  0  0  0  0  0  0  0  0  0  0  0
    8.1282   -0.5000    0.0000 C   0  0  0  0  0  0  0  0  0  0  0  0
   14.1904    4.0000    0.0000 C   0  0  0  0  0  0  0  0  0  0  0  0
   13.3244    5.5000    0.0000 C   0  0  0  0  0  0  0  0  0  0  0  0
   14.1904    5.0000    0.0000 C   0  0  0  0  0  0  0  0  0  0  0  0
    7.2622   -2.0000    0.0000 C   0  0  0  0  0  0  0  0  0  0  0  0
    6.3961   -2.5000    0.0000 C   0  0  0  0  0  0  0  0  0  0  0  0
   14.1904    2.0000    0.0000 C   0  0  0  0  0  0  0  0  0  0  0  0
    5.5301   -4.0000    0.0000 C   0  0  0  0  0  0  0  0  0  0  0  0
    4.6641   -3.5000    0.0000 C   0  0  0  0  0  0  0  0  0  0  0  0
    4.6641   -2.5000    0.0000 C   0  0  0  0  0  0  0  0  0  0  0  0
    7.2622   -4.0000    0.0000 C   0  0  0  0  0  0  0  0  0  0  0  0
   14.1904    1.0000    0.0000 C   0  0  0  0  0  0  0  0  0  0  0  0
    3.7702   -4.0347    0.0000 C   0  0  0  0  0  0  0  0  0  0  0  0
    3.7702   -1.9653    0.0000 C   0  0  0  0  0  0  0  0  0  0  0  0
    8.1282   -3.5000    0.0000 C   0  0  0  0  0  0  0  0  0  0  0  0
    7.2622   -5.0000    0.0000 C   0  0  0  0  0  0  0  0  0  0  0  0
    2.8641   -3.5208    0.0000 C   0  0  0  0  0  0  0  0  0  0  0  0
    2.8641   -2.4792    0.0000 C   0  0  0  0  0  0  0  0  0  0  0  0
    8.9942   -4.0000    0.0000 C   0  0  0  0  0  0  0  0  0  0  0  0
    8.1282   -5.5000    0.0000 C   0  0  0  0  0  0  0  0  0  0  0  0
    8.9942   -5.0000    0.0000 C   0  0  0  0  0  0  0  0  0  0  0  0
   10.3278    1.5250    0.0000 H   0  0  0  0  0  0  0  0  0  0  0  0
   11.1248    1.5250    0.0000 H   0  0  0  0  0  0  0  0  0  0  0  0
    9.6482    4.0826    0.0000 H   0  0  0  0  0  0  0  0  0  0  0  0
    9.2497    3.3923    0.0000 H   0  0  0  0  0  0  0  0  0  0  0  0
   11.8044    1.9174    0.0000 H   0  0  0  0  0  0  0  0  0  0  0  0
   12.2029    2.6077    0.0000 H   0  0  0  0  0  0  0  0  0  0  0  0
   11.1248    4.4750    0.0000 H   0  0  0  0  0  0  0  0  0  0  0  0
   10.3278    4.4750    0.0000 H   0  0  0  0  0  0  0  0  0  0  0  0
    8.7822    2.5826    0.0000 H   0  0  0  0  0  0  0  0  0  0  0  0
    8.3836    1.8923    0.0000 H   0  0  0  0  0  0  0  0  0  0  0  0
    9.2063    0.4174    0.0000 H   0  0  0  0  0  0  0  0  0  0  0  0
    9.6048    1.1077    0.0000 H   0  0  0  0  0  0  0  0  0  0  0  0
    7.9162    1.0826    0.0000 H   0  0  0  0  0  0  0  0  0  0  0  0
    7.5176    0.3923    0.0000 H   0  0  0  0  0  0  0  0  0  0  0  0
   11.9214    5.3100    0.0000 H   0  0  0  0  0  0  0  0  0  0  0  0
   14.7273    3.6900    0.0000 H   0  0  0  0  0  0  0  0  0  0  0  0
   13.3244    6.1200    0.0000 H   0  0  0  0  0  0  0  0  0  0  0  0
   14.7273    5.3100    0.0000 H   0  0  0  0  0  0  0  0  0  0  0  0
    6.7252   -0.6900    0.0000 H   0  0  0  0  0  0  0  0  0  0  0  0
    7.4742   -2.5826    0.0000 H   0  0  0  0  0  0  0  0  0  0  0  0
    7.8728   -1.8923    0.0000 H   0  0  0  0  0  0  0  0  0  0  0  0
   14.8010    1.8923    0.0000 H   0  0  0  0  0  0  0  0  0  0  0  0
   14.4024    2.5826    0.0000 H   0  0  0  0  0  0  0  0  0  0  0  0
   13.5704    1.0000    0.0000 H   0  0  0  0  0  0  0  0  0  0  0  0
   14.1904    0.3800    0.0000 H   0  0  0  0  0  0  0  0  0  0  0  0
   14.8104    1.0000    0.0000 H   0  0  0  0  0  0  0  0  0  0  0  0
    3.7773   -4.6546    0.0000 H   0  0  0  0  0  0  0  0  0  0  0  0
    3.7773   -1.3454    0.0000 H   0  0  0  0  0  0  0  0  0  0  0  0
    8.1282   -2.8800    0.0000 H   0  0  0  0  0  0  0  0  0  0  0  0
    6.7252   -5.3100    0.0000 H   0  0  0  0  0  0  0  0  0  0  0  0
    2.3284   -2.1671    0.0000 H   0  0  0  0  0  0  0  0  0  0  0  0
    9.5312   -3.6900    0.0000 H   0  0  0  0  0  0  0  0  0  0  0  0
    8.1282   -6.1200    0.0000 H   0  0  0  0  0  0  0  0  0  0  0  0
    9.5312   -5.3100    0.0000 H   0  0  0  0  0  0  0  0  0  0  0  0
  1 36  1  0  0  0  0
  2 18  1  0  0  0  0
  2 26  1  0  0  0  0
  3 20  2  0  0  0  0
  4 27  2  0  0  0  0
  5 10  1  0  0  0  0
  5 11  1  0  0  0  0
  5 14  1  0  0  0  0
  6 12  1  0  0  0  0
  6 13  1  0  0  0  0
  6 16  1  0  0  0  0
  7 20  1  0  0  0  0
  7 24  1  0  0  0  0
  7 59  1  0  0  0  0
  8 25  1  0  0  0  0
  8 27  1  0  0  0  0
  8 30  1  0  0  0  0
  9 25  2  0  0  0  0
  9 29  1  0  0  0  0
 10 12  1  0  0  0  0
 10 41  1  0  0  0  0
 10 42  1  0  0  0  0
 11 13  1  0  0  0  0
 11 43  1  0  0  0  0
 11 44  1  0  0  0  0
 12 45  1  0  0  0  0
 12 46  1  0  0  0  0
 13 47  1  0  0  0  0
 13 48  1  0  0  0  0
 14 15  1  0  0  0  0
 14 49  1  0  0  0  0
 14 50  1  0  0  0  0
 15 17  1  0  0  0  0
 15 51  1  0  0  0  0
 15 52  1  0  0  0  0
 16 18  1  0  0  0  0
 16 19  2  0  0  0  0
 17 20  1  0  0  0  0
 17 53  1  0  0  0  0
 17 54  1  0  0  0  0
 18 21  2  0  0  0  0
 19 22  1  0  0  0  0
 19 55  1  0  0  0  0
 21 23  1  0  0  0  0
 21 56  1  0  0  0  0
 22 23  2  0  0  0  0
 22 57  1  0  0  0  0
 23 58  1  0  0  0  0
 24 25  1  0  0  0  0
 24 60  1  0  0  0  0
 24 61  1  0  0  0  0
 26 31  1  0  0  0  0
 26 62  1  0  0  0  0
 26 63  1  0  0  0  0
 27 28  1  0  0  0  0
 28 29  2  0  0  0  0
 28 32  1  0  0  0  0
 29 33  1  0  0  0  0
 30 34  2  0  0  0  0
 30 35  1  0  0  0  0
 31 64  1  0  0  0  0
 31 65  1  0  0  0  0
 31 66  1  0  0  0  0
 32 36  2  0  0  0  0
 32 67  1  0  0  0  0
 33 37  2  0  0  0  0
 33 68  1  0  0  0  0
 34 38  1  0  0  0  0
 34 69  1  0  0  0  0
 35 39  2  0  0  0  0
 35 70  1  0  0  0  0
 36 37  1  0  0  0  0
 37 71  1  0  0  0  0
 38 40  2  0  0  0  0
 38 72  1  0  0  0  0
 39 40  1  0  0  0  0
 39 73  1  0  0  0  0
 40 74  1  0  0  0  0
M  END
> <PUBCHEM_COMPOUND_CID>
24882509

> <PUBCHEM_COMPOUND_CANONICALIZED>
1

> <PUBCHEM_CACTVS_COMPLEXITY>
873

> <PUBCHEM_CACTVS_HBOND_ACCEPTOR>
7

> <PUBCHEM_CACTVS_HBOND_DONOR>
1

> <PUBCHEM_CACTVS_ROTATABLE_BOND>
10

> <PUBCHEM_CACTVS_SUBSKEYS>
AAADcfB7sQAAAAAAAAAAAAAAAAAAAAAAAAA8YMECAAAAAACBUAAAHwAQAAAADAzhmA4zxoPABACoAidydACCCAElIgAJiIEfbMgOZjrE/ZuXOajk1hHY6cecyACOAAAAAAACEAAAAAAAAAQgAAAAAAAAAA==

> <PUBCHEM_IUPAC_OPENEYE_NAME>
4-[4-(2-ethoxyphenyl)piperazin-1-yl]-N-[(6-fluoro-4-oxo-3-phenyl-quinazolin-2-yl)methyl]butanamide

> <PUBCHEM_IUPAC_CAS_NAME>
4-[4-(2-ethoxyphenyl)-1-piperazinyl]-N-[(6-fluoro-4-oxo-3-phenyl-2-quinazolinyl)methyl]butanamide

> <PUBCHEM_IUPAC_NAME_MARKUP>
4-[4-(2-ethoxyphenyl)piperazin-1-yl]-<I>N</I>-[(6-fluoro-4-oxo-3-phenylquinazolin-2-yl)methyl]butanamide

> <PUBCHEM_IUPAC_NAME>
4-[4-(2-ethoxyphenyl)piperazin-1-yl]-N-[(6-fluoro-4-oxo-3-phenylquinazolin-2-yl)methyl]butanamide

> <PUBCHEM_IUPAC_SYSTEMATIC_NAME>
4-[4-(2-ethoxyphenyl)piperazin-1-yl]-N-[(6-fluoranyl-4-oxidanylidene-3-phenyl-quinazolin-2-yl)methyl]butanamide

> <PUBCHEM_IUPAC_TRADITIONAL_NAME>
N-[(6-fluoro-4-keto-3-phenyl-quinazolin-2-yl)methyl]-4-(4-o-phenetylpiperazino)butyramide

> <PUBCHEM_IUPAC_INCHI>
InChI=1S/C31H34FN5O3/c1-2-40-28-12-7-6-11-27(28)36-19-17-35(18-20-36)16-8-13-30(38)33-22-29-34-26-15-14-23(32)21-25(26)31(39)37(29)24-9-4-3-5-10-24/h3-7,9-12,14-15,21H,2,8,13,16-20,22H2,1H3,(H,33,38)

> <PUBCHEM_IUPAC_INCHIKEY>
KOJCGDRJEPIJRS-UHFFFAOYSA-N

> <PUBCHEM_XLOGP3_AA>
4.1

> <PUBCHEM_EXACT_MASS>
543.26456813

> <PUBCHEM_MOLECULAR_FORMULA>
C31H34FN5O3

> <PUBCHEM_MOLECULAR_WEIGHT>
543.6

> <PUBCHEM_OPENEYE_CAN_SMILES>
CCOC1=CC=CC=C1N2CCN(CC2)CCCC(=O)NCC3=NC4=C(C=C(C=C4)F)C(=O)N3C5=CC=CC=C5

> <PUBCHEM_OPENEYE_ISO_SMILES>
CCOC1=CC=CC=C1N2CCN(CC2)CCCC(=O)NCC3=NC4=C(C=C(C=C4)F)C(=O)N3C5=CC=CC=C5

> <PUBCHEM_CACTVS_TPSA>
77.5

> <PUBCHEM_MONOISOTOPIC_WEIGHT>
543.26456813

> <PUBCHEM_TOTAL_CHARGE>
0

> <PUBCHEM_HEAVY_ATOM_COUNT>
40

> <PUBCHEM_ATOM_DEF_STEREO_COUNT>
0

> <PUBCHEM_ATOM_UDEF_STEREO_COUNT>
0

> <PUBCHEM_BOND_DEF_STEREO_COUNT>
0

> <PUBCHEM_BOND_UDEF_STEREO_COUNT>
0

> <PUBCHEM_ISOTOPIC_ATOM_COUNT>
0

> <PUBCHEM_COMPONENT_COUNT>
1

> <PUBCHEM_CACTVS_TAUTO_COUNT>
-1

> <PUBCHEM_COORDINATE_TYPE>
1
5
255

> <PUBCHEM_BONDANNOTATIONS>
16  18  8
16  19  8
18  21  8
19  22  8
21  23  8
22  23  8
27  28  8
28  29  8
28  32  8
29  33  8
30  34  8
30  35  8
32  36  8
33  37  8
34  38  8
35  39  8
36  37  8
38  40  8
39  40  8
8  25  8
8  27  8
9  25  8
9  29  8

$$$$
