163409061
  -OEChem-09292322452D

 61 64  0     0  0  0  0  0  0999 V2000
   17.2619   -0.4446    0.0000 Cl  0  0  0  0  0  0  0  0  0  0  0  0
   10.7619   -3.0427    0.0000 O   0  0  0  0  0  0  0  0  0  0  0  0
    4.9889    3.0427    0.0000 O   0  0  0  0  0  0  0  0  0  0  0  0
   12.2619   -2.1767    0.0000 N   0  0  0  0  0  0  0  0  0  0  0  0
   14.2619   -2.1767    0.0000 N   0  0  0  0  0  0  0  0  0  0  0  0
   10.7619   -1.3106    0.0000 N   0  0  0  0  0  0  0  0  0  0  0  0
    5.2619    1.2874    0.0000 N   0  0  0  0  0  0  0  0  0  0  0  0
    3.7320    1.7874    0.0000 N   0  0  0  0  0  0  0  0  0  0  0  0
    4.6783    0.4827    0.0000 N   0  0  0  0  0  0  0  0  0  0  0  0
   12.7619   -3.0427    0.0000 C   0  0  0  0  0  0  0  0  0  0  0  0
   12.7619   -1.3106    0.0000 C   0  0  0  0  0  0  0  0  0  0  0  0
   13.7619   -3.0427    0.0000 C   0  0  0  0  0  0  0  0  0  0  0  0
   13.7619   -1.3106    0.0000 C   0  0  0  0  0  0  0  0  0  0  0  0
    8.2619   -0.4446    0.0000 C   0  0  0  0  0  0  0  0  0  0  0  0
    9.2619   -0.4446    0.0000 C   0  0  0  0  0  0  0  0  0  0  0  0
   11.2619   -2.1767    0.0000 C   0  0  0  0  0  0  0  0  0  0  0  0
    7.7619    0.4214    0.0000 C   0  0  0  0  0  0  0  0  0  0  0  0
   15.2619   -2.1767    0.0000 C   0  0  0  0  0  0  0  0  0  0  0  0
    9.7619   -1.3106    0.0000 C   0  0  0  0  0  0  0  0  0  0  0  0
    6.7619    0.4214    0.0000 C   0  0  0  0  0  0  0  0  0  0  0  0
    6.2619    1.2874    0.0000 C   0  0  0  0  0  0  0  0  0  0  0  0
   15.7619   -1.3106    0.0000 C   0  0  0  0  0  0  0  0  0  0  0  0
   15.7619   -3.0427    0.0000 C   0  0  0  0  0  0  0  0  0  0  0  0
    4.6783    2.0922    0.0000 C   0  0  0  0  0  0  0  0  0  0  0  0
   16.7619   -1.3106    0.0000 C   0  0  0  0  0  0  0  0  0  0  0  0
   16.7619   -3.0427    0.0000 C   0  0  0  0  0  0  0  0  0  0  0  0
    3.7320    0.7874    0.0000 C   0  0  0  0  0  0  0  0  0  0  0  0
   17.2619   -2.1767    0.0000 C   0  0  0  0  0  0  0  0  0  0  0  0
    2.8660    2.2874    0.0000 C   0  0  0  0  0  0  0  0  0  0  0  0
    2.8660    0.2874    0.0000 C   0  0  0  0  0  0  0  0  0  0  0  0
    2.0000    1.7874    0.0000 C   0  0  0  0  0  0  0  0  0  0  0  0
    2.0000    0.7874    0.0000 C   0  0  0  0  0  0  0  0  0  0  0  0
   12.1793   -3.2547    0.0000 H   0  0  0  0  0  0  0  0  0  0  0  0
   12.8695   -3.6533    0.0000 H   0  0  0  0  0  0  0  0  0  0  0  0
   12.8695   -0.7001    0.0000 H   0  0  0  0  0  0  0  0  0  0  0  0
   12.1793   -1.0986    0.0000 H   0  0  0  0  0  0  0  0  0  0  0  0
   13.6542   -3.6533    0.0000 H   0  0  0  0  0  0  0  0  0  0  0  0
   14.3445   -3.2547    0.0000 H   0  0  0  0  0  0  0  0  0  0  0  0
   14.3445   -1.0986    0.0000 H   0  0  0  0  0  0  0  0  0  0  0  0
   13.6542   -0.7001    0.0000 H   0  0  0  0  0  0  0  0  0  0  0  0
    7.6793   -0.6567    0.0000 H   0  0  0  0  0  0  0  0  0  0  0  0
    8.3695   -1.0552    0.0000 H   0  0  0  0  0  0  0  0  0  0  0  0
    9.8445   -0.2326    0.0000 H   0  0  0  0  0  0  0  0  0  0  0  0
    9.1542    0.1660    0.0000 H   0  0  0  0  0  0  0  0  0  0  0  0
    8.3445    0.6335    0.0000 H   0  0  0  0  0  0  0  0  0  0  0  0
    7.6542    1.0320    0.0000 H   0  0  0  0  0  0  0  0  0  0  0  0
    9.1793   -1.5227    0.0000 H   0  0  0  0  0  0  0  0  0  0  0  0
    9.8695   -1.9212    0.0000 H   0  0  0  0  0  0  0  0  0  0  0  0
    6.1793    0.2094    0.0000 H   0  0  0  0  0  0  0  0  0  0  0  0
    6.8695   -0.1892    0.0000 H   0  0  0  0  0  0  0  0  0  0  0  0
   11.0719   -0.7737    0.0000 H   0  0  0  0  0  0  0  0  0  0  0  0
    6.8445    1.4995    0.0000 H   0  0  0  0  0  0  0  0  0  0  0  0
    6.1542    1.8980    0.0000 H   0  0  0  0  0  0  0  0  0  0  0  0
   15.4519   -0.7737    0.0000 H   0  0  0  0  0  0  0  0  0  0  0  0
   15.4519   -3.5796    0.0000 H   0  0  0  0  0  0  0  0  0  0  0  0
   17.0719   -3.5796    0.0000 H   0  0  0  0  0  0  0  0  0  0  0  0
   17.8819   -2.1767    0.0000 H   0  0  0  0  0  0  0  0  0  0  0  0
    2.8660    2.9074    0.0000 H   0  0  0  0  0  0  0  0  0  0  0  0
    2.8660   -0.3326    0.0000 H   0  0  0  0  0  0  0  0  0  0  0  0
    1.4631    2.0974    0.0000 H   0  0  0  0  0  0  0  0  0  0  0  0
    1.4631    0.4774    0.0000 H   0  0  0  0  0  0  0  0  0  0  0  0
  1 25  1  0  0  0  0
  2 16  2  0  0  0  0
  3 24  2  0  0  0  0
  4 10  1  0  0  0  0
  4 11  1  0  0  0  0
  4 16  1  0  0  0  0
  5 12  1  0  0  0  0
  5 13  1  0  0  0  0
  5 18  1  0  0  0  0
  6 16  1  0  0  0  0
  6 19  1  0  0  0  0
  6 51  1  0  0  0  0
  7  9  1  0  0  0  0
  7 21  1  0  0  0  0
  7 24  1  0  0  0  0
  8 24  1  0  0  0  0
  8 27  1  0  0  0  0
  8 29  1  0  0  0  0
  9 27  2  0  0  0  0
 10 12  1  0  0  0  0
 10 33  1  0  0  0  0
 10 34  1  0  0  0  0
 11 13  1  0  0  0  0
 11 35  1  0  0  0  0
 11 36  1  0  0  0  0
 12 37  1  0  0  0  0
 12 38  1  0  0  0  0
 13 39  1  0  0  0  0
 13 40  1  0  0  0  0
 14 15  1  0  0  0  0
 14 17  1  0  0  0  0
 14 41  1  0  0  0  0
 14 42  1  0  0  0  0
 15 19  1  0  0  0  0
 15 43  1  0  0  0  0
 15 44  1  0  0  0  0
 17 20  1  0  0  0  0
 17 45  1  0  0  0  0
 17 46  1  0  0  0  0
 18 22  2  0  0  0  0
 18 23  1  0  0  0  0
 19 47  1  0  0  0  0
 19 48  1  0  0  0  0
 20 21  1  0  0  0  0
 20 49  1  0  0  0  0
 20 50  1  0  0  0  0
 21 52  1  0  0  0  0
 21 53  1  0  0  0  0
 22 25  1  0  0  0  0
 22 54  1  0  0  0  0
 23 26  2  0  0  0  0
 23 55  1  0  0  0  0
 25 28  2  0  0  0  0
 26 28  1  0  0  0  0
 26 56  1  0  0  0  0
 27 30  1  0  0  0  0
 28 57  1  0  0  0  0
 29 31  2  0  0  0  0
 29 58  1  0  0  0  0
 30 32  2  0  0  0  0
 30 59  1  0  0  0  0
 31 32  1  0  0  0  0
 31 60  1  0  0  0  0
 32 61  1  0  0  0  0
M  END
> <PUBCHEM_COMPOUND_CID>
163409061

> <PUBCHEM_COMPOUND_CANONICALIZED>
1

> <PUBCHEM_CACTVS_COMPLEXITY>
762

> <PUBCHEM_CACTVS_HBOND_ACCEPTOR>
4

> <PUBCHEM_CACTVS_HBOND_DONOR>
1

> <PUBCHEM_CACTVS_ROTATABLE_BOND>
8

> <PUBCHEM_CACTVS_SUBSKEYS>
AAADceB7sAAEAAAAAAAAAAAAAAAAAQAAAAA8QIAAAAAAAEABAAAAHgIYAAAACArBECQxwIPAAACoACZmcACSAAAhBwAfiIAYZpiIYCLBk5GUIAhongLIyAcQAAAAAAAAAAIAAAAAAAAABAAAAAAAAAAAAA==

> <PUBCHEM_IUPAC_OPENEYE_NAME>
4-(3-chlorophenyl)-N-[6-(3-oxo-[1,2,4]triazolo[4,3-a]pyridin-2-yl)hexyl]piperazine-1-carboxamide

> <PUBCHEM_IUPAC_CAS_NAME>
4-(3-chlorophenyl)-N-[6-(3-oxo-[1,2,4]triazolo[4,3-a]pyridin-2-yl)hexyl]-1-piperazinecarboxamide

> <PUBCHEM_IUPAC_NAME_MARKUP>
4-(3-chlorophenyl)-<I>N</I>-[6-(3-oxo-[1,2,4]triazolo[4,3-a]pyridin-2-yl)hexyl]piperazine-1-carboxamide

> <PUBCHEM_IUPAC_NAME>
4-(3-chlorophenyl)-N-[6-(3-oxo-[1,2,4]triazolo[4,3-a]pyridin-2-yl)hexyl]piperazine-1-carboxamide

> <PUBCHEM_IUPAC_SYSTEMATIC_NAME>
4-(3-chlorophenyl)-N-[6-(3-oxidanylidene-[1,2,4]triazolo[4,3-a]pyridin-2-yl)hexyl]piperazine-1-carboxamide

> <PUBCHEM_IUPAC_TRADITIONAL_NAME>
4-(3-chlorophenyl)-N-[6-(3-keto-[1,2,4]triazolo[4,3-a]pyridin-2-yl)hexyl]piperazine-1-carboxamide

> <PUBCHEM_IUPAC_INCHI>
InChI=1S/C23H29ClN6O2/c24-19-8-7-9-20(18-19)27-14-16-28(17-15-27)22(31)25-11-4-1-2-5-13-30-23(32)29-12-6-3-10-21(29)26-30/h3,6-10,12,18H,1-2,4-5,11,13-17H2,(H,25,31)

> <PUBCHEM_IUPAC_INCHIKEY>
LQACCULQLKHGMI-UHFFFAOYSA-N

> <PUBCHEM_XLOGP3_AA>
3.2

> <PUBCHEM_EXACT_MASS>
456.2040519

> <PUBCHEM_MOLECULAR_FORMULA>
C23H29ClN6O2

> <PUBCHEM_MOLECULAR_WEIGHT>
457.0

> <PUBCHEM_OPENEYE_CAN_SMILES>
C1CN(CCN1C2=CC(=CC=C2)Cl)C(=O)NCCCCCCN3C(=O)N4C=CC=CC4=N3

> <PUBCHEM_OPENEYE_ISO_SMILES>
C1CN(CCN1C2=CC(=CC=C2)Cl)C(=O)NCCCCCCN3C(=O)N4C=CC=CC4=N3

> <PUBCHEM_CACTVS_TPSA>
71.5

> <PUBCHEM_MONOISOTOPIC_WEIGHT>
456.2040519

> <PUBCHEM_TOTAL_CHARGE>
0

> <PUBCHEM_HEAVY_ATOM_COUNT>
32

> <PUBCHEM_ATOM_DEF_STEREO_COUNT>
0

> <PUBCHEM_ATOM_UDEF_STEREO_COUNT>
0

> <PUBCHEM_BOND_DEF_STEREO_COUNT>
0

> <PUBCHEM_BOND_UDEF_STEREO_COUNT>
0

> <PUBCHEM_ISOTOPIC_ATOM_COUNT>
0

> <PUBCHEM_COMPONENT_COUNT>
1

> <PUBCHEM_CACTVS_TAUTO_COUNT>
-1

> <PUBCHEM_COORDINATE_TYPE>
1
5
255

> <PUBCHEM_BONDANNOTATIONS>
18  22  8
18  23  8
22  25  8
23  26  8
25  28  8
26  28  8
27  30  8
29  31  8
30  32  8
31  32  8
7  24  8
7  9  8
8  24  8
8  27  8
8  29  8
9  27  8

$$$$
