71151929
  -OEChem-09292322352D

 66 70  0     0  0  0  0  0  0999 V2000
    9.3191   -4.4518    0.0000 S   0  0  0  0  0  0  0  0  0  0  0  0
    2.0000    7.3034    0.0000 F   0  0  0  0  0  0  0  0  0  0  0  0
    5.4641    5.3034    0.0000 O   0  0  0  0  0  0  0  0  0  0  0  0
   10.2696   -4.1412    0.0000 O   0  0  0  0  0  0  0  0  0  0  0  0
    8.3685   -4.7625    0.0000 O   0  0  0  0  0  0  0  0  0  0  0  0
    7.1962    1.3034    0.0000 N   0  0  0  0  0  0  0  0  0  0  0  0
    7.1962   -0.6966    0.0000 N   0  0  0  0  0  0  0  0  0  0  0  0
    9.0084   -3.5013    0.0000 N   0  0  0  0  0  0  0  0  0  0  0  0
    8.0622    0.8034    0.0000 C   0  0  0  0  0  0  0  0  0  0  0  0
    6.3301    0.8034    0.0000 C   0  0  0  0  0  0  0  0  0  0  0  0
    8.0622   -0.1966    0.0000 C   0  0  0  0  0  0  0  0  0  0  0  0
    6.3301   -0.1966    0.0000 C   0  0  0  0  0  0  0  0  0  0  0  0
    7.1962    2.3034    0.0000 C   0  0  0  0  0  0  0  0  0  0  0  0
    7.1962   -1.6966    0.0000 C   0  0  0  0  0  0  0  0  0  0  0  0
    6.3301    2.8034    0.0000 C   0  0  0  0  0  0  0  0  0  0  0  0
    8.0622   -2.1966    0.0000 C   0  0  0  0  0  0  0  0  0  0  0  0
    8.0622   -3.1966    0.0000 C   0  0  0  0  0  0  0  0  0  0  0  0
    6.3301    3.8034    0.0000 C   0  0  0  0  0  0  0  0  0  0  0  0
    6.3301   -2.1966    0.0000 C   0  0  0  0  0  0  0  0  0  0  0  0
    9.0084   -1.8919    0.0000 C   0  0  0  0  0  0  0  0  0  0  0  0
    7.1962   -3.6966    0.0000 C   0  0  0  0  0  0  0  0  0  0  0  0
    9.5920   -2.6966    0.0000 C   0  0  0  0  0  0  0  0  0  0  0  0
    6.3301   -3.1966    0.0000 C   0  0  0  0  0  0  0  0  0  0  0  0
    5.4641    4.3034    0.0000 C   0  0  0  0  0  0  0  0  0  0  0  0
    9.6297   -5.4024    0.0000 C   0  0  0  0  0  0  0  0  0  0  0  0
   10.6082   -5.6086    0.0000 C   0  0  0  0  0  0  0  0  0  0  0  0
    8.9619   -6.1467    0.0000 C   0  0  0  0  0  0  0  0  0  0  0  0
    4.5981    5.8034    0.0000 C   0  0  0  0  0  0  0  0  0  0  0  0
   10.9189   -6.5591    0.0000 C   0  0  0  0  0  0  0  0  0  0  0  0
    9.2725   -7.0972    0.0000 C   0  0  0  0  0  0  0  0  0  0  0  0
   10.2510   -7.3034    0.0000 C   0  0  0  0  0  0  0  0  0  0  0  0
    4.5981    6.8034    0.0000 C   0  0  0  0  0  0  0  0  0  0  0  0
    3.7320    5.3034    0.0000 C   0  0  0  0  0  0  0  0  0  0  0  0
    3.7320    7.3034    0.0000 C   0  0  0  0  0  0  0  0  0  0  0  0
    2.8660    5.8034    0.0000 C   0  0  0  0  0  0  0  0  0  0  0  0
    2.8660    6.8034    0.0000 C   0  0  0  0  0  0  0  0  0  0  0  0
    8.6728    0.6957    0.0000 H   0  0  0  0  0  0  0  0  0  0  0  0
    8.2742    1.3860    0.0000 H   0  0  0  0  0  0  0  0  0  0  0  0
    6.1181    1.3860    0.0000 H   0  0  0  0  0  0  0  0  0  0  0  0
    5.7196    0.6957    0.0000 H   0  0  0  0  0  0  0  0  0  0  0  0
    8.2742   -0.7792    0.0000 H   0  0  0  0  0  0  0  0  0  0  0  0
    8.6728   -0.0889    0.0000 H   0  0  0  0  0  0  0  0  0  0  0  0
    5.7196   -0.0889    0.0000 H   0  0  0  0  0  0  0  0  0  0  0  0
    6.1181   -0.7792    0.0000 H   0  0  0  0  0  0  0  0  0  0  0  0
    7.8067    2.1957    0.0000 H   0  0  0  0  0  0  0  0  0  0  0  0
    7.4082    2.8860    0.0000 H   0  0  0  0  0  0  0  0  0  0  0  0
    5.7196    2.9111    0.0000 H   0  0  0  0  0  0  0  0  0  0  0  0
    6.1181    2.2208    0.0000 H   0  0  0  0  0  0  0  0  0  0  0  0
    6.9407    3.6958    0.0000 H   0  0  0  0  0  0  0  0  0  0  0  0
    6.5422    4.3860    0.0000 H   0  0  0  0  0  0  0  0  0  0  0  0
    5.7932   -1.8866    0.0000 H   0  0  0  0  0  0  0  0  0  0  0  0
    9.2010   -1.3025    0.0000 H   0  0  0  0  0  0  0  0  0  0  0  0
    7.1962   -4.3166    0.0000 H   0  0  0  0  0  0  0  0  0  0  0  0
   10.2120   -2.6966    0.0000 H   0  0  0  0  0  0  0  0  0  0  0  0
    5.7932   -3.5066    0.0000 H   0  0  0  0  0  0  0  0  0  0  0  0
    4.8535    4.4111    0.0000 H   0  0  0  0  0  0  0  0  0  0  0  0
    5.2520    3.7208    0.0000 H   0  0  0  0  0  0  0  0  0  0  0  0
   11.0223   -5.1471    0.0000 H   0  0  0  0  0  0  0  0  0  0  0  0
    8.3552   -6.0188    0.0000 H   0  0  0  0  0  0  0  0  0  0  0  0
   11.5256   -6.6870    0.0000 H   0  0  0  0  0  0  0  0  0  0  0  0
    8.8585   -7.5586    0.0000 H   0  0  0  0  0  0  0  0  0  0  0  0
   10.4437   -7.8927    0.0000 H   0  0  0  0  0  0  0  0  0  0  0  0
    5.1350    7.1134    0.0000 H   0  0  0  0  0  0  0  0  0  0  0  0
    3.7320    4.6834    0.0000 H   0  0  0  0  0  0  0  0  0  0  0  0
    3.7320    7.9234    0.0000 H   0  0  0  0  0  0  0  0  0  0  0  0
    2.3291    5.4934    0.0000 H   0  0  0  0  0  0  0  0  0  0  0  0
  1  4  2  0  0  0  0
  1  5  2  0  0  0  0
  1  8  1  0  0  0  0
  1 25  1  0  0  0  0
  2 36  1  0  0  0  0
  3 24  1  0  0  0  0
  3 28  1  0  0  0  0
  6  9  1  0  0  0  0
  6 10  1  0  0  0  0
  6 13  1  0  0  0  0
  7 11  1  0  0  0  0
  7 12  1  0  0  0  0
  7 14  1  0  0  0  0
  8 17  1  0  0  0  0
  8 22  1  0  0  0  0
  9 11  1  0  0  0  0
  9 37  1  0  0  0  0
  9 38  1  0  0  0  0
 10 12  1  0  0  0  0
 10 39  1  0  0  0  0
 10 40  1  0  0  0  0
 11 41  1  0  0  0  0
 11 42  1  0  0  0  0
 12 43  1  0  0  0  0
 12 44  1  0  0  0  0
 13 15  1  0  0  0  0
 13 45  1  0  0  0  0
 13 46  1  0  0  0  0
 14 16  1  0  0  0  0
 14 19  2  0  0  0  0
 15 18  1  0  0  0  0
 15 47  1  0  0  0  0
 15 48  1  0  0  0  0
 16 17  2  0  0  0  0
 16 20  1  0  0  0  0
 17 21  1  0  0  0  0
 18 24  1  0  0  0  0
 18 49  1  0  0  0  0
 18 50  1  0  0  0  0
 19 23  1  0  0  0  0
 19 51  1  0  0  0  0
 20 22  2  0  0  0  0
 20 52  1  0  0  0  0
 21 23  2  0  0  0  0
 21 53  1  0  0  0  0
 22 54  1  0  0  0  0
 23 55  1  0  0  0  0
 24 56  1  0  0  0  0
 24 57  1  0  0  0  0
 25 26  2  0  0  0  0
 25 27  1  0  0  0  0
 26 29  1  0  0  0  0
 26 58  1  0  0  0  0
 27 30  2  0  0  0  0
 27 59  1  0  0  0  0
 28 32  2  0  0  0  0
 28 33  1  0  0  0  0
 29 31  2  0  0  0  0
 29 60  1  0  0  0  0
 30 31  1  0  0  0  0
 30 61  1  0  0  0  0
 31 62  1  0  0  0  0
 32 34  1  0  0  0  0
 32 63  1  0  0  0  0
 33 35  2  0  0  0  0
 33 64  1  0  0  0  0
 34 36  2  0  0  0  0
 34 65  1  0  0  0  0
 35 36  1  0  0  0  0
 35 66  1  0  0  0  0
M  END
> <PUBCHEM_COMPOUND_CID>
71151929

> <PUBCHEM_COMPOUND_CANONICALIZED>
1

> <PUBCHEM_CACTVS_COMPLEXITY>
771

> <PUBCHEM_CACTVS_HBOND_ACCEPTOR>
6

> <PUBCHEM_CACTVS_HBOND_DONOR>
0

> <PUBCHEM_CACTVS_ROTATABLE_BOND>
9

> <PUBCHEM_CACTVS_SUBSKEYS>
AAADceB7MQBAAAAAAAAAAAAAAAAAAWAAAAA8YMEAAAAAAFgB9AAAHwQAQAAADAzh3g48x/MIFAKgAzRnRHDCiDAxIiAI2Dg+bJgMZuLE8duWPCjkwBHI6AewwIAOAAAAAAQCAAAAAAAACAQAAAAAAAAAAA==

> <PUBCHEM_IUPAC_OPENEYE_NAME>
1-(benzenesulfonyl)-4-[4-[4-(4-fluorophenoxy)butyl]piperazin-1-yl]indole

> <PUBCHEM_IUPAC_CAS_NAME>
1-(benzenesulfonyl)-4-[4-[4-(4-fluorophenoxy)butyl]-1-piperazinyl]indole

> <PUBCHEM_IUPAC_NAME_MARKUP>
1-(benzenesulfonyl)-4-[4-[4-(4-fluorophenoxy)butyl]piperazin-1-yl]indole

> <PUBCHEM_IUPAC_NAME>
1-(benzenesulfonyl)-4-[4-[4-(4-fluorophenoxy)butyl]piperazin-1-yl]indole

> <PUBCHEM_IUPAC_SYSTEMATIC_NAME>
4-[4-[4-(4-fluoranylphenoxy)butyl]piperazin-1-yl]-1-(phenylsulfonyl)indole

> <PUBCHEM_IUPAC_TRADITIONAL_NAME>
1-besyl-4-[4-[4-(4-fluorophenoxy)butyl]piperazino]indole

> <PUBCHEM_IUPAC_INCHI>
InChI=1S/C28H30FN3O3S/c29-23-11-13-24(14-12-23)35-22-5-4-16-30-18-20-31(21-19-30)27-9-6-10-28-26(27)15-17-32(28)36(33,34)25-7-2-1-3-8-25/h1-3,6-15,17H,4-5,16,18-22H2

> <PUBCHEM_IUPAC_INCHIKEY>
OGRCTWORYPUCJU-UHFFFAOYSA-N

> <PUBCHEM_XLOGP3_AA>
5.6

> <PUBCHEM_EXACT_MASS>
507.19919116

> <PUBCHEM_MOLECULAR_FORMULA>
C28H30FN3O3S

> <PUBCHEM_MOLECULAR_WEIGHT>
507.6

> <PUBCHEM_OPENEYE_CAN_SMILES>
C1CN(CCN1CCCCOC2=CC=C(C=C2)F)C3=CC=CC4=C3C=CN4S(=O)(=O)C5=CC=CC=C5

> <PUBCHEM_OPENEYE_ISO_SMILES>
C1CN(CCN1CCCCOC2=CC=C(C=C2)F)C3=CC=CC4=C3C=CN4S(=O)(=O)C5=CC=CC=C5

> <PUBCHEM_CACTVS_TPSA>
63.2

> <PUBCHEM_MONOISOTOPIC_WEIGHT>
507.19919116

> <PUBCHEM_TOTAL_CHARGE>
0

> <PUBCHEM_HEAVY_ATOM_COUNT>
36

> <PUBCHEM_ATOM_DEF_STEREO_COUNT>
0

> <PUBCHEM_ATOM_UDEF_STEREO_COUNT>
0

> <PUBCHEM_BOND_DEF_STEREO_COUNT>
0

> <PUBCHEM_BOND_UDEF_STEREO_COUNT>
0

> <PUBCHEM_ISOTOPIC_ATOM_COUNT>
0

> <PUBCHEM_COMPONENT_COUNT>
1

> <PUBCHEM_CACTVS_TAUTO_COUNT>
-1

> <PUBCHEM_COORDINATE_TYPE>
1
5
255

> <PUBCHEM_BONDANNOTATIONS>
14  16  8
14  19  8
16  17  8
16  20  8
17  21  8
19  23  8
20  22  8
21  23  8
25  26  8
25  27  8
26  29  8
27  30  8
28  32  8
28  33  8
29  31  8
30  31  8
32  34  8
33  35  8
34  36  8
35  36  8
8  17  8
8  22  8

$$$$
