11569099
  -OEChem-09292322482D

 65 69  0     0  0  0  0  0  0999 V2000
    6.4103   -6.5780    0.0000 O   0  0  0  0  0  0  0  0  0  0  0  0
    2.8660   -4.7733    0.0000 O   0  0  0  0  0  0  0  0  0  0  0  0
   11.8777    0.6089    0.0000 O   0  0  0  0  0  0  0  0  0  0  0  0
    7.3423   -2.1170    0.0000 N   0  0  0  0  0  0  0  0  0  0  0  0
    6.7210   -4.0181    0.0000 N   0  0  0  0  0  0  0  0  0  0  0  0
    6.9939   -5.7733    0.0000 N   0  0  0  0  0  0  0  0  0  0  0  0
   10.2313    1.1470    0.0000 N   0  0  0  0  0  0  0  0  0  0  0  0
   12.4525    5.1553    0.0000 N   0  0  0  0  0  0  0  0  0  0  0  0
   12.4553    6.7733    0.0000 N   0  0  0  0  0  0  0  0  0  0  0  0
    6.3638   -2.3232    0.0000 C   0  0  0  0  0  0  0  0  0  0  0  0
    8.0102   -2.8613    0.0000 C   0  0  0  0  0  0  0  0  0  0  0  0
    6.0531   -3.2738    0.0000 C   0  0  0  0  0  0  0  0  0  0  0  0
    7.6995   -3.8118    0.0000 C   0  0  0  0  0  0  0  0  0  0  0  0
    7.6530   -1.1665    0.0000 C   0  0  0  0  0  0  0  0  0  0  0  0
    8.6315   -0.9603    0.0000 C   0  0  0  0  0  0  0  0  0  0  0  0
    6.4103   -4.9686    0.0000 C   0  0  0  0  0  0  0  0  0  0  0  0
    8.9421   -0.0098    0.0000 C   0  0  0  0  0  0  0  0  0  0  0  0
    5.4641   -5.2733    0.0000 C   0  0  0  0  0  0  0  0  0  0  0  0
    9.9206    0.1965    0.0000 C   0  0  0  0  0  0  0  0  0  0  0  0
    5.4641   -6.2733    0.0000 C   0  0  0  0  0  0  0  0  0  0  0  0
    4.5981   -4.7733    0.0000 C   0  0  0  0  0  0  0  0  0  0  0  0
    4.5981   -6.7733    0.0000 C   0  0  0  0  0  0  0  0  0  0  0  0
    3.7320   -5.2733    0.0000 C   0  0  0  0  0  0  0  0  0  0  0  0
    3.7320   -6.2733    0.0000 C   0  0  0  0  0  0  0  0  0  0  0  0
   11.2098    1.3532    0.0000 C   0  0  0  0  0  0  0  0  0  0  0  0
   11.5205    2.3037    0.0000 C   0  0  0  0  0  0  0  0  0  0  0  0
   10.8526    3.0480    0.0000 C   0  0  0  0  0  0  0  0  0  0  0  0
   12.4990    2.5099    0.0000 C   0  0  0  0  0  0  0  0  0  0  0  0
   12.1418    4.2048    0.0000 C   0  0  0  0  0  0  0  0  0  0  0  0
    2.0000   -5.2733    0.0000 C   0  0  0  0  0  0  0  0  0  0  0  0
   11.1633    3.9985    0.0000 C   0  0  0  0  0  0  0  0  0  0  0  0
   12.8096    3.4605    0.0000 C   0  0  0  0  0  0  0  0  0  0  0  0
   13.4041    5.4626    0.0000 C   0  0  0  0  0  0  0  0  0  0  0  0
   11.8661    5.9653    0.0000 C   0  0  0  0  0  0  0  0  0  0  0  0
   13.4058    6.4626    0.0000 C   0  0  0  0  0  0  0  0  0  0  0  0
    6.3432   -1.7036    0.0000 H   0  0  0  0  0  0  0  0  0  0  0  0
    5.7500   -2.2359    0.0000 H   0  0  0  0  0  0  0  0  0  0  0  0
    8.5571   -3.1533    0.0000 H   0  0  0  0  0  0  0  0  0  0  0  0
    8.3927   -2.3734    0.0000 H   0  0  0  0  0  0  0  0  0  0  0  0
    5.5062   -2.9817    0.0000 H   0  0  0  0  0  0  0  0  0  0  0  0
    5.6706   -3.7617    0.0000 H   0  0  0  0  0  0  0  0  0  0  0  0
    7.7201   -4.4315    0.0000 H   0  0  0  0  0  0  0  0  0  0  0  0
    8.3133   -3.8992    0.0000 H   0  0  0  0  0  0  0  0  0  0  0  0
    7.6324   -0.5468    0.0000 H   0  0  0  0  0  0  0  0  0  0  0  0
    7.0392   -1.0792    0.0000 H   0  0  0  0  0  0  0  0  0  0  0  0
    8.6520   -1.5799    0.0000 H   0  0  0  0  0  0  0  0  0  0  0  0
    9.2453   -1.0476    0.0000 H   0  0  0  0  0  0  0  0  0  0  0  0
    8.9216    0.6099    0.0000 H   0  0  0  0  0  0  0  0  0  0  0  0
    8.3283    0.0776    0.0000 H   0  0  0  0  0  0  0  0  0  0  0  0
    9.9412   -0.4232    0.0000 H   0  0  0  0  0  0  0  0  0  0  0  0
   10.5345    0.1091    0.0000 H   0  0  0  0  0  0  0  0  0  0  0  0
    4.5981   -4.1533    0.0000 H   0  0  0  0  0  0  0  0  0  0  0  0
    9.8172    1.6084    0.0000 H   0  0  0  0  0  0  0  0  0  0  0  0
    4.5981   -7.3933    0.0000 H   0  0  0  0  0  0  0  0  0  0  0  0
    3.1951   -6.5833    0.0000 H   0  0  0  0  0  0  0  0  0  0  0  0
   10.2460    2.9202    0.0000 H   0  0  0  0  0  0  0  0  0  0  0  0
   12.9130    2.0485    0.0000 H   0  0  0  0  0  0  0  0  0  0  0  0
   10.7492    4.4600    0.0000 H   0  0  0  0  0  0  0  0  0  0  0  0
   13.4163    3.5883    0.0000 H   0  0  0  0  0  0  0  0  0  0  0  0
    1.6900   -4.7364    0.0000 H   0  0  0  0  0  0  0  0  0  0  0  0
    1.4631   -5.5833    0.0000 H   0  0  0  0  0  0  0  0  0  0  0  0
    2.3100   -5.8102    0.0000 H   0  0  0  0  0  0  0  0  0  0  0  0
   13.9050    5.0974    0.0000 H   0  0  0  0  0  0  0  0  0  0  0  0
   11.2461    5.9664    0.0000 H   0  0  0  0  0  0  0  0  0  0  0  0
   13.9080    6.8262    0.0000 H   0  0  0  0  0  0  0  0  0  0  0  0
  1  6  1  0  0  0  0
  1 20  1  0  0  0  0
  2 23  1  0  0  0  0
  2 30  1  0  0  0  0
  3 25  2  0  0  0  0
  4 10  1  0  0  0  0
  4 11  1  0  0  0  0
  4 14  1  0  0  0  0
  5 12  1  0  0  0  0
  5 13  1  0  0  0  0
  5 16  1  0  0  0  0
  6 16  2  0  0  0  0
  7 19  1  0  0  0  0
  7 25  1  0  0  0  0
  7 53  1  0  0  0  0
  8 29  1  0  0  0  0
  8 33  1  0  0  0  0
  8 34  1  0  0  0  0
  9 34  2  0  0  0  0
  9 35  1  0  0  0  0
 10 12  1  0  0  0  0
 10 36  1  0  0  0  0
 10 37  1  0  0  0  0
 11 13  1  0  0  0  0
 11 38  1  0  0  0  0
 11 39  1  0  0  0  0
 12 40  1  0  0  0  0
 12 41  1  0  0  0  0
 13 42  1  0  0  0  0
 13 43  1  0  0  0  0
 14 15  1  0  0  0  0
 14 44  1  0  0  0  0
 14 45  1  0  0  0  0
 15 17  1  0  0  0  0
 15 46  1  0  0  0  0
 15 47  1  0  0  0  0
 16 18  1  0  0  0  0
 17 19  1  0  0  0  0
 17 48  1  0  0  0  0
 17 49  1  0  0  0  0
 18 20  2  0  0  0  0
 18 21  1  0  0  0  0
 19 50  1  0  0  0  0
 19 51  1  0  0  0  0
 20 22  1  0  0  0  0
 21 23  2  0  0  0  0
 21 52  1  0  0  0  0
 22 24  2  0  0  0  0
 22 54  1  0  0  0  0
 23 24  1  0  0  0  0
 24 55  1  0  0  0  0
 25 26  1  0  0  0  0
 26 27  2  0  0  0  0
 26 28  1  0  0  0  0
 27 31  1  0  0  0  0
 27 56  1  0  0  0  0
 28 32  2  0  0  0  0
 28 57  1  0  0  0  0
 29 31  2  0  0  0  0
 29 32  1  0  0  0  0
 30 60  1  0  0  0  0
 30 61  1  0  0  0  0
 30 62  1  0  0  0  0
 31 58  1  0  0  0  0
 32 59  1  0  0  0  0
 33 35  2  0  0  0  0
 33 63  1  0  0  0  0
 34 64  1  0  0  0  0
 35 65  1  0  0  0  0
M  END
> <PUBCHEM_COMPOUND_CID>
11569099

> <PUBCHEM_COMPOUND_CANONICALIZED>
1

> <PUBCHEM_CACTVS_COMPLEXITY>
668

> <PUBCHEM_CACTVS_HBOND_ACCEPTOR>
7

> <PUBCHEM_CACTVS_HBOND_DONOR>
1

> <PUBCHEM_CACTVS_ROTATABLE_BOND>
9

> <PUBCHEM_CACTVS_SUBSKEYS>
AAADceB7sAAAAAAAAAAAAAAAAAAAAWLAAAA8YIAAAAAAAFgB/AAAHgAUAAAADAzBmgY/9tfcFACpArd3dgCCiC01MqAp2KE+fNqMbvrEvZuUMahu1hvI6ef6yTCeCQABAAAIAAASAAIAABAAAAAAAAAAAA==

> <PUBCHEM_IUPAC_OPENEYE_NAME>
4-imidazol-1-yl-N-[4-[4-(5-methoxy-1,2-benzoxazol-3-yl)piperazin-1-yl]butyl]benzamide

> <PUBCHEM_IUPAC_CAS_NAME>
4-(1-imidazolyl)-N-[4-[4-(5-methoxy-1,2-benzoxazol-3-yl)-1-piperazinyl]butyl]benzamide

> <PUBCHEM_IUPAC_NAME_MARKUP>
4-imidazol-1-yl-<I>N</I>-[4-[4-(5-methoxy-1,2-benzoxazol-3-yl)piperazin-1-yl]butyl]benzamide

> <PUBCHEM_IUPAC_NAME>
4-imidazol-1-yl-N-[4-[4-(5-methoxy-1,2-benzoxazol-3-yl)piperazin-1-yl]butyl]benzamide

> <PUBCHEM_IUPAC_SYSTEMATIC_NAME>
4-imidazol-1-yl-N-[4-[4-(5-methoxy-1,2-benzoxazol-3-yl)piperazin-1-yl]butyl]benzamide

> <PUBCHEM_IUPAC_TRADITIONAL_NAME>
4-imidazol-1-yl-N-[4-[4-(5-methoxyindoxazen-3-yl)piperazino]butyl]benzamide

> <PUBCHEM_IUPAC_INCHI>
InChI=1S/C26H30N6O3/c1-34-22-8-9-24-23(18-22)25(29-35-24)31-16-14-30(15-17-31)12-3-2-10-28-26(33)20-4-6-21(7-5-20)32-13-11-27-19-32/h4-9,11,13,18-19H,2-3,10,12,14-17H2,1H3,(H,28,33)

> <PUBCHEM_IUPAC_INCHIKEY>
VAEZCFWPDODBFF-UHFFFAOYSA-N

> <PUBCHEM_XLOGP3_AA>
3.4

> <PUBCHEM_EXACT_MASS>
474.23793884

> <PUBCHEM_MOLECULAR_FORMULA>
C26H30N6O3

> <PUBCHEM_MOLECULAR_WEIGHT>
474.6

> <PUBCHEM_OPENEYE_CAN_SMILES>
COC1=CC2=C(C=C1)ON=C2N3CCN(CC3)CCCCNC(=O)C4=CC=C(C=C4)N5C=CN=C5

> <PUBCHEM_OPENEYE_ISO_SMILES>
COC1=CC2=C(C=C1)ON=C2N3CCN(CC3)CCCCNC(=O)C4=CC=C(C=C4)N5C=CN=C5

> <PUBCHEM_CACTVS_TPSA>
88.7

> <PUBCHEM_MONOISOTOPIC_WEIGHT>
474.23793884

> <PUBCHEM_TOTAL_CHARGE>
0

> <PUBCHEM_HEAVY_ATOM_COUNT>
35

> <PUBCHEM_ATOM_DEF_STEREO_COUNT>
0

> <PUBCHEM_ATOM_UDEF_STEREO_COUNT>
0

> <PUBCHEM_BOND_DEF_STEREO_COUNT>
0

> <PUBCHEM_BOND_UDEF_STEREO_COUNT>
0

> <PUBCHEM_ISOTOPIC_ATOM_COUNT>
0

> <PUBCHEM_COMPONENT_COUNT>
1

> <PUBCHEM_CACTVS_TAUTO_COUNT>
-1

> <PUBCHEM_COORDINATE_TYPE>
1
5
255

> <PUBCHEM_BONDANNOTATIONS>
1  20  8
1  6  8
16  18  8
18  20  8
18  21  8
20  22  8
21  23  8
22  24  8
23  24  8
26  27  8
26  28  8
27  31  8
28  32  8
29  31  8
29  32  8
33  35  8
6  16  8
8  33  8
8  34  8
9  34  8
9  35  8

$$$$
