156020908
  -OEChem-09292322422D

 66 71  0     0  0  0  0  0  0999 V2000
    5.8821    6.4252    0.0000 S   0  0  0  0  0  0  0  0  0  0  0  0
    5.5161   -3.6046    0.0000 O   0  0  0  0  0  0  0  0  0  0  0  0
    2.0520   -3.6046    0.0000 O   0  0  0  0  0  0  0  0  0  0  0  0
    6.3821    1.8954    0.0000 N   0  0  0  0  0  0  0  0  0  0  0  0
    6.3821    3.8954    0.0000 N   0  0  0  0  0  0  0  0  0  0  0  0
    3.7841   -3.6046    0.0000 N   0  0  0  0  0  0  0  0  0  0  0  0
    5.5774    5.4790    0.0000 N   0  0  0  0  0  0  0  0  0  0  0  0
    7.2482    2.3954    0.0000 C   0  0  0  0  0  0  0  0  0  0  0  0
    5.5161    2.3954    0.0000 C   0  0  0  0  0  0  0  0  0  0  0  0
    6.3821    0.8954    0.0000 C   0  0  0  0  0  0  0  0  0  0  0  0
    7.2482    3.3954    0.0000 C   0  0  0  0  0  0  0  0  0  0  0  0
    5.5161    3.3954    0.0000 C   0  0  0  0  0  0  0  0  0  0  0  0
    5.5161    0.3954    0.0000 C   0  0  0  0  0  0  0  0  0  0  0  0
    5.5161   -0.6046    0.0000 C   0  0  0  0  0  0  0  0  0  0  0  0
    4.6501   -1.1046    0.0000 C   0  0  0  0  0  0  0  0  0  0  0  0
    6.3821    4.8954    0.0000 C   0  0  0  0  0  0  0  0  0  0  0  0
    4.6501   -2.1046    0.0000 C   0  0  0  0  0  0  0  0  0  0  0  0
    3.7841   -2.6046    0.0000 C   0  0  0  0  0  0  0  0  0  0  0  0
    7.1869    5.4790    0.0000 C   0  0  0  0  0  0  0  0  0  0  0  0
    6.8762    6.4295    0.0000 C   0  0  0  0  0  0  0  0  0  0  0  0
    3.7841   -5.6046    0.0000 C   0  0  0  0  0  0  0  0  0  0  0  0
    4.6501   -4.1046    0.0000 C   0  0  0  0  0  0  0  0  0  0  0  0
    2.9180   -4.1046    0.0000 C   0  0  0  0  0  0  0  0  0  0  0  0
    4.6501   -5.1046    0.0000 C   0  0  0  0  0  0  0  0  0  0  0  0
    2.9180   -5.1046    0.0000 C   0  0  0  0  0  0  0  0  0  0  0  0
    8.1654    5.2728    0.0000 C   0  0  0  0  0  0  0  0  0  0  0  0
    3.8001   -6.6461    0.0000 C   0  0  0  0  0  0  0  0  0  0  0  0
    7.5440    7.1738    0.0000 C   0  0  0  0  0  0  0  0  0  0  0  0
    5.5601   -5.6114    0.0000 C   0  0  0  0  0  0  0  0  0  0  0  0
    2.0080   -5.6114    0.0000 C   0  0  0  0  0  0  0  0  0  0  0  0
    8.8332    6.0171    0.0000 C   0  0  0  0  0  0  0  0  0  0  0  0
    4.6660   -7.1738    0.0000 C   0  0  0  0  0  0  0  0  0  0  0  0
    2.9021   -7.1738    0.0000 C   0  0  0  0  0  0  0  0  0  0  0  0
    5.5681   -6.6530    0.0000 C   0  0  0  0  0  0  0  0  0  0  0  0
    2.0000   -6.6530    0.0000 C   0  0  0  0  0  0  0  0  0  0  0  0
    8.5226    6.9676    0.0000 C   0  0  0  0  0  0  0  0  0  0  0  0
    7.4602    1.8128    0.0000 H   0  0  0  0  0  0  0  0  0  0  0  0
    7.8587    2.5031    0.0000 H   0  0  0  0  0  0  0  0  0  0  0  0
    4.9055    2.5031    0.0000 H   0  0  0  0  0  0  0  0  0  0  0  0
    5.3040    1.8128    0.0000 H   0  0  0  0  0  0  0  0  0  0  0  0
    6.5942    0.3128    0.0000 H   0  0  0  0  0  0  0  0  0  0  0  0
    6.9927    1.0031    0.0000 H   0  0  0  0  0  0  0  0  0  0  0  0
    7.8587    3.2878    0.0000 H   0  0  0  0  0  0  0  0  0  0  0  0
    7.4602    3.9780    0.0000 H   0  0  0  0  0  0  0  0  0  0  0  0
    5.3040    3.9780    0.0000 H   0  0  0  0  0  0  0  0  0  0  0  0
    4.9055    3.2878    0.0000 H   0  0  0  0  0  0  0  0  0  0  0  0
    5.3040    0.9780    0.0000 H   0  0  0  0  0  0  0  0  0  0  0  0
    4.9055    0.2878    0.0000 H   0  0  0  0  0  0  0  0  0  0  0  0
    5.7282   -1.1872    0.0000 H   0  0  0  0  0  0  0  0  0  0  0  0
    6.1267   -0.4969    0.0000 H   0  0  0  0  0  0  0  0  0  0  0  0
    4.4380   -0.5220    0.0000 H   0  0  0  0  0  0  0  0  0  0  0  0
    4.0395   -1.2122    0.0000 H   0  0  0  0  0  0  0  0  0  0  0  0
    4.8621   -2.6872    0.0000 H   0  0  0  0  0  0  0  0  0  0  0  0
    5.2607   -1.9969    0.0000 H   0  0  0  0  0  0  0  0  0  0  0  0
    3.5720   -2.0220    0.0000 H   0  0  0  0  0  0  0  0  0  0  0  0
    3.1735   -2.7122    0.0000 H   0  0  0  0  0  0  0  0  0  0  0  0
    8.3580    4.6835    0.0000 H   0  0  0  0  0  0  0  0  0  0  0  0
    6.0934   -5.2952    0.0000 H   0  0  0  0  0  0  0  0  0  0  0  0
    1.4747   -5.2952    0.0000 H   0  0  0  0  0  0  0  0  0  0  0  0
    7.3514    7.7632    0.0000 H   0  0  0  0  0  0  0  0  0  0  0  0
    4.6587   -7.7938    0.0000 H   0  0  0  0  0  0  0  0  0  0  0  0
    2.9045   -7.7938    0.0000 H   0  0  0  0  0  0  0  0  0  0  0  0
    9.4399    5.8892    0.0000 H   0  0  0  0  0  0  0  0  0  0  0  0
    6.1062   -6.9610    0.0000 H   0  0  0  0  0  0  0  0  0  0  0  0
    1.4619   -6.9610    0.0000 H   0  0  0  0  0  0  0  0  0  0  0  0
    8.9366    7.4291    0.0000 H   0  0  0  0  0  0  0  0  0  0  0  0
  1  7  1  0  0  0  0
  1 20  1  0  0  0  0
  2 22  2  0  0  0  0
  3 23  2  0  0  0  0
  4  8  1  0  0  0  0
  4  9  1  0  0  0  0
  4 10  1  0  0  0  0
  5 11  1  0  0  0  0
  5 12  1  0  0  0  0
  5 16  1  0  0  0  0
  6 18  1  0  0  0  0
  6 22  1  0  0  0  0
  6 23  1  0  0  0  0
  7 16  2  0  0  0  0
  8 11  1  0  0  0  0
  8 37  1  0  0  0  0
  8 38  1  0  0  0  0
  9 12  1  0  0  0  0
  9 39  1  0  0  0  0
  9 40  1  0  0  0  0
 10 13  1  0  0  0  0
 10 41  1  0  0  0  0
 10 42  1  0  0  0  0
 11 43  1  0  0  0  0
 11 44  1  0  0  0  0
 12 45  1  0  0  0  0
 12 46  1  0  0  0  0
 13 14  1  0  0  0  0
 13 47  1  0  0  0  0
 13 48  1  0  0  0  0
 14 15  1  0  0  0  0
 14 49  1  0  0  0  0
 14 50  1  0  0  0  0
 15 17  1  0  0  0  0
 15 51  1  0  0  0  0
 15 52  1  0  0  0  0
 16 19  1  0  0  0  0
 17 18  1  0  0  0  0
 17 53  1  0  0  0  0
 17 54  1  0  0  0  0
 18 55  1  0  0  0  0
 18 56  1  0  0  0  0
 19 20  1  0  0  0  0
 19 26  2  0  0  0  0
 20 28  2  0  0  0  0
 21 24  1  0  0  0  0
 21 25  1  0  0  0  0
 21 27  2  0  0  0  0
 22 24  1  0  0  0  0
 23 25  1  0  0  0  0
 24 29  2  0  0  0  0
 25 30  2  0  0  0  0
 26 31  1  0  0  0  0
 26 57  1  0  0  0  0
 27 32  1  0  0  0  0
 27 33  1  0  0  0  0
 28 36  1  0  0  0  0
 28 60  1  0  0  0  0
 29 34  1  0  0  0  0
 29 58  1  0  0  0  0
 30 35  1  0  0  0  0
 30 59  1  0  0  0  0
 31 36  2  0  0  0  0
 31 63  1  0  0  0  0
 32 34  2  0  0  0  0
 32 61  1  0  0  0  0
 33 35  2  0  0  0  0
 33 62  1  0  0  0  0
 34 64  1  0  0  0  0
 35 65  1  0  0  0  0
 36 66  1  0  0  0  0
M  END
> <PUBCHEM_COMPOUND_CID>
156020908

> <PUBCHEM_COMPOUND_CANONICALIZED>
1

> <PUBCHEM_CACTVS_COMPLEXITY>
757

> <PUBCHEM_CACTVS_HBOND_ACCEPTOR>
6

> <PUBCHEM_CACTVS_HBOND_DONOR>
0

> <PUBCHEM_CACTVS_ROTATABLE_BOND>
8

> <PUBCHEM_CACTVS_SUBSKEYS>
AAADceB7sABAAAAAAAAAAAAAAAAAAWAAAAA8eMECAAAAAFjx9AAAHgQAQAAADADB2gQxsdMAAACsAiNycACDABAlAABJmDkoRNiIYLLAnZGUIQxghiLIyYcYi8COgAACAAAUAAAAAAQAACgAAAAAAAAAAA==

> <PUBCHEM_IUPAC_OPENEYE_NAME>
2-[6-[4-(1,2-benzothiazol-3-yl)piperazin-1-yl]hexyl]benzo[de]isoquinoline-1,3-dione

> <PUBCHEM_IUPAC_CAS_NAME>
2-[6-[4-(1,2-benzothiazol-3-yl)-1-piperazinyl]hexyl]benzo[de]isoquinoline-1,3-dione

> <PUBCHEM_IUPAC_NAME_MARKUP>
2-[6-[4-(1,2-benzothiazol-3-yl)piperazin-1-yl]hexyl]benzo[de]isoquinoline-1,3-dione

> <PUBCHEM_IUPAC_NAME>
2-[6-[4-(1,2-benzothiazol-3-yl)piperazin-1-yl]hexyl]benzo[de]isoquinoline-1,3-dione

> <PUBCHEM_IUPAC_SYSTEMATIC_NAME>
2-[6-[4-(1,2-benzothiazol-3-yl)piperazin-1-yl]hexyl]benzo[de]isoquinoline-1,3-dione

> <PUBCHEM_IUPAC_TRADITIONAL_NAME>
2-[6-[4-(1,2-benzothiazol-3-yl)piperazino]hexyl]benzo[de]isoquinoline-1,3-quinone

> <PUBCHEM_IUPAC_INCHI>
InChI=1S/C29H30N4O2S/c34-28-23-12-7-9-21-10-8-13-24(26(21)23)29(35)33(28)16-6-2-1-5-15-31-17-19-32(20-18-31)27-22-11-3-4-14-25(22)36-30-27/h3-4,7-14H,1-2,5-6,15-20H2

> <PUBCHEM_IUPAC_INCHIKEY>
JIKHUPCDDIJQPL-UHFFFAOYSA-N

> <PUBCHEM_XLOGP3_AA>
5.9

> <PUBCHEM_EXACT_MASS>
498.20894739

> <PUBCHEM_MOLECULAR_FORMULA>
C29H30N4O2S

> <PUBCHEM_MOLECULAR_WEIGHT>
498.6

> <PUBCHEM_OPENEYE_CAN_SMILES>
C1CN(CCN1CCCCCCN2C(=O)C3=CC=CC4=C3C(=CC=C4)C2=O)C5=NSC6=CC=CC=C65

> <PUBCHEM_OPENEYE_ISO_SMILES>
C1CN(CCN1CCCCCCN2C(=O)C3=CC=CC4=C3C(=CC=C4)C2=O)C5=NSC6=CC=CC=C65

> <PUBCHEM_CACTVS_TPSA>
85

> <PUBCHEM_MONOISOTOPIC_WEIGHT>
498.20894739

> <PUBCHEM_TOTAL_CHARGE>
0

> <PUBCHEM_HEAVY_ATOM_COUNT>
36

> <PUBCHEM_ATOM_DEF_STEREO_COUNT>
0

> <PUBCHEM_ATOM_UDEF_STEREO_COUNT>
0

> <PUBCHEM_BOND_DEF_STEREO_COUNT>
0

> <PUBCHEM_BOND_UDEF_STEREO_COUNT>
0

> <PUBCHEM_ISOTOPIC_ATOM_COUNT>
0

> <PUBCHEM_COMPONENT_COUNT>
1

> <PUBCHEM_CACTVS_TAUTO_COUNT>
-1

> <PUBCHEM_COORDINATE_TYPE>
1
5
255

> <PUBCHEM_BONDANNOTATIONS>
1  20  8
1  7  8
16  19  8
19  20  8
19  26  8
20  28  8
21  24  8
21  25  8
21  27  8
24  29  8
25  30  8
26  31  8
27  32  8
27  33  8
28  36  8
29  34  8
30  35  8
31  36  8
32  34  8
33  35  8
7  16  8

$$$$
