12899503
  -OEChem-09292321592D

 57 60  0     0  0  0  0  0  0999 V2000
   10.6718   -1.4370    0.0000 O   0  0  0  0  0  0  0  0  0  0  0  0
   15.9339   -1.4129    0.0000 O   0  0  0  0  0  0  0  0  0  0  0  0
    6.3397   -0.9537    0.0000 N   0  0  0  0  0  0  0  0  0  0  0  0
    4.6038    0.0396    0.0000 N   0  0  0  0  0  0  0  0  0  0  0  0
   14.2019   -1.4129    0.0000 N   0  0  0  0  0  0  0  0  0  0  0  0
    6.3359    0.0463    0.0000 C   0  0  0  0  0  0  0  0  0  0  0  0
    5.4756   -1.4571    0.0000 C   0  0  0  0  0  0  0  0  0  0  0  0
    5.4679    0.5429    0.0000 C   0  0  0  0  0  0  0  0  0  0  0  0
    4.6077   -0.9604    0.0000 C   0  0  0  0  0  0  0  0  0  0  0  0
    7.2077   -1.4504    0.0000 C   0  0  0  0  0  0  0  0  0  0  0  0
    8.0718   -0.9471    0.0000 C   0  0  0  0  0  0  0  0  0  0  0  0
    3.7359    0.5362    0.0000 C   0  0  0  0  0  0  0  0  0  0  0  0
    8.9397   -1.4437    0.0000 C   0  0  0  0  0  0  0  0  0  0  0  0
    9.8038   -0.9404    0.0000 C   0  0  0  0  0  0  0  0  0  0  0  0
    3.7320    1.5362    0.0000 C   0  0  0  0  0  0  0  0  0  0  0  0
    2.8718    0.0329    0.0000 C   0  0  0  0  0  0  0  0  0  0  0  0
   13.3359    0.0871    0.0000 C   0  0  0  0  0  0  0  0  0  0  0  0
   14.2019    0.5871    0.0000 C   0  0  0  0  0  0  0  0  0  0  0  0
   13.3359   -0.9129    0.0000 C   0  0  0  0  0  0  0  0  0  0  0  0
   11.5358   -0.9337    0.0000 C   0  0  0  0  0  0  0  0  0  0  0  0
   15.0679    0.0871    0.0000 C   0  0  0  0  0  0  0  0  0  0  0  0
    2.8641    2.0329    0.0000 C   0  0  0  0  0  0  0  0  0  0  0  0
    2.0038    0.5296    0.0000 C   0  0  0  0  0  0  0  0  0  0  0  0
   12.4419   -1.4475    0.0000 C   0  0  0  0  0  0  0  0  0  0  0  0
   12.4419    0.6218    0.0000 C   0  0  0  0  0  0  0  0  0  0  0  0
    2.0000    1.5296    0.0000 C   0  0  0  0  0  0  0  0  0  0  0  0
   11.5358    0.1079    0.0000 C   0  0  0  0  0  0  0  0  0  0  0  0
   15.0679   -0.9129    0.0000 C   0  0  0  0  0  0  0  0  0  0  0  0
    6.9469   -0.0590    0.0000 H   0  0  0  0  0  0  0  0  0  0  0  0
    6.5457    0.6297    0.0000 H   0  0  0  0  0  0  0  0  0  0  0  0
    5.0789   -1.9336    0.0000 H   0  0  0  0  0  0  0  0  0  0  0  0
    5.8760   -1.9305    0.0000 H   0  0  0  0  0  0  0  0  0  0  0  0
    5.8646    1.0194    0.0000 H   0  0  0  0  0  0  0  0  0  0  0  0
    5.0676    1.0163    0.0000 H   0  0  0  0  0  0  0  0  0  0  0  0
    3.9967   -0.8551    0.0000 H   0  0  0  0  0  0  0  0  0  0  0  0
    4.3979   -1.5438    0.0000 H   0  0  0  0  0  0  0  0  0  0  0  0
    6.8110   -1.9269    0.0000 H   0  0  0  0  0  0  0  0  0  0  0  0
    7.6080   -1.9238    0.0000 H   0  0  0  0  0  0  0  0  0  0  0  0
    8.4685   -0.4706    0.0000 H   0  0  0  0  0  0  0  0  0  0  0  0
    7.6714   -0.4737    0.0000 H   0  0  0  0  0  0  0  0  0  0  0  0
    8.5430   -1.9202    0.0000 H   0  0  0  0  0  0  0  0  0  0  0  0
    9.3401   -1.9171    0.0000 H   0  0  0  0  0  0  0  0  0  0  0  0
   10.2005   -0.4639    0.0000 H   0  0  0  0  0  0  0  0  0  0  0  0
    9.4034   -0.4670    0.0000 H   0  0  0  0  0  0  0  0  0  0  0  0
    4.2678    1.8483    0.0000 H   0  0  0  0  0  0  0  0  0  0  0  0
    2.8742   -0.5871    0.0000 H   0  0  0  0  0  0  0  0  0  0  0  0
   14.6004    1.0621    0.0000 H   0  0  0  0  0  0  0  0  0  0  0  0
   13.8034    1.0621    0.0000 H   0  0  0  0  0  0  0  0  0  0  0  0
   15.6785   -0.0206    0.0000 H   0  0  0  0  0  0  0  0  0  0  0  0
   15.2800    0.6697    0.0000 H   0  0  0  0  0  0  0  0  0  0  0  0
    2.8617    2.6529    0.0000 H   0  0  0  0  0  0  0  0  0  0  0  0
    1.4681    0.2175    0.0000 H   0  0  0  0  0  0  0  0  0  0  0  0
   12.4491   -2.0675    0.0000 H   0  0  0  0  0  0  0  0  0  0  0  0
   12.4491    1.2417    0.0000 H   0  0  0  0  0  0  0  0  0  0  0  0
   14.2019   -2.0329    0.0000 H   0  0  0  0  0  0  0  0  0  0  0  0
   11.0001    0.4200    0.0000 H   0  0  0  0  0  0  0  0  0  0  0  0
    1.4619    1.8375    0.0000 H   0  0  0  0  0  0  0  0  0  0  0  0
  1 14  1  0  0  0  0
  1 20  1  0  0  0  0
  2 28  2  0  0  0  0
  3  6  1  0  0  0  0
  3  7  1  0  0  0  0
  3 10  1  0  0  0  0
  4  8  1  0  0  0  0
  4  9  1  0  0  0  0
  4 12  1  0  0  0  0
  5 19  1  0  0  0  0
  5 28  1  0  0  0  0
  5 55  1  0  0  0  0
  6  8  1  0  0  0  0
  6 29  1  0  0  0  0
  6 30  1  0  0  0  0
  7  9  1  0  0  0  0
  7 31  1  0  0  0  0
  7 32  1  0  0  0  0
  8 33  1  0  0  0  0
  8 34  1  0  0  0  0
  9 35  1  0  0  0  0
  9 36  1  0  0  0  0
 10 11  1  0  0  0  0
 10 37  1  0  0  0  0
 10 38  1  0  0  0  0
 11 13  1  0  0  0  0
 11 39  1  0  0  0  0
 11 40  1  0  0  0  0
 12 15  2  0  0  0  0
 12 16  1  0  0  0  0
 13 14  1  0  0  0  0
 13 41  1  0  0  0  0
 13 42  1  0  0  0  0
 14 43  1  0  0  0  0
 14 44  1  0  0  0  0
 15 22  1  0  0  0  0
 15 45  1  0  0  0  0
 16 23  2  0  0  0  0
 16 46  1  0  0  0  0
 17 18  1  0  0  0  0
 17 19  2  0  0  0  0
 17 25  1  0  0  0  0
 18 21  1  0  0  0  0
 18 47  1  0  0  0  0
 18 48  1  0  0  0  0
 19 24  1  0  0  0  0
 20 24  2  0  0  0  0
 20 27  1  0  0  0  0
 21 28  1  0  0  0  0
 21 49  1  0  0  0  0
 21 50  1  0  0  0  0
 22 26  2  0  0  0  0
 22 51  1  0  0  0  0
 23 26  1  0  0  0  0
 23 52  1  0  0  0  0
 24 53  1  0  0  0  0
 25 27  2  0  0  0  0
 25 54  1  0  0  0  0
 26 57  1  0  0  0  0
 27 56  1  0  0  0  0
M  END
> <PUBCHEM_COMPOUND_CID>
12899503

> <PUBCHEM_COMPOUND_CANONICALIZED>
1

> <PUBCHEM_CACTVS_COMPLEXITY>
486

> <PUBCHEM_CACTVS_HBOND_ACCEPTOR>
4

> <PUBCHEM_CACTVS_HBOND_DONOR>
1

> <PUBCHEM_CACTVS_ROTATABLE_BOND>
7

> <PUBCHEM_CACTVS_SUBSKEYS>
AAADceB7MAAAAAAAAAAAAAAAAAAAAAAAAAA8eIEAAAAAAACxQAAAHgAQAAAADAzhmAYwxoPABACIAiVSUACCCAAhIgAIiAEObIgMZjLEsZuWOCjm1BnI6Ae42aOeIAAAAgACAABAAAAEAAQAAAAAAAAAAA==

> <PUBCHEM_IUPAC_OPENEYE_NAME>
7-[4-(4-phenylpiperazin-1-yl)butoxy]-3,4-dihydro-1H-quinolin-2-one

> <PUBCHEM_IUPAC_CAS_NAME>
7-[4-(4-phenyl-1-piperazinyl)butoxy]-3,4-dihydro-1H-quinolin-2-one

> <PUBCHEM_IUPAC_NAME_MARKUP>
7-[4-(4-phenylpiperazin-1-yl)butoxy]-3,4-dihydro-1<I>H</I>-quinolin-2-one

> <PUBCHEM_IUPAC_NAME>
7-[4-(4-phenylpiperazin-1-yl)butoxy]-3,4-dihydro-1H-quinolin-2-one

> <PUBCHEM_IUPAC_SYSTEMATIC_NAME>
7-[4-(4-phenylpiperazin-1-yl)butoxy]-3,4-dihydro-1H-quinolin-2-one

> <PUBCHEM_IUPAC_TRADITIONAL_NAME>
7-[4-(4-phenylpiperazino)butoxy]-3,4-dihydrocarbostyril

> <PUBCHEM_IUPAC_INCHI>
InChI=1S/C23H29N3O2/c27-23-11-9-19-8-10-21(18-22(19)24-23)28-17-5-4-12-25-13-15-26(16-14-25)20-6-2-1-3-7-20/h1-3,6-8,10,18H,4-5,9,11-17H2,(H,24,27)

> <PUBCHEM_IUPAC_INCHIKEY>
USIMZAIRLDAIQJ-UHFFFAOYSA-N

> <PUBCHEM_XLOGP3_AA>
3.4

> <PUBCHEM_EXACT_MASS>
379.22597718

> <PUBCHEM_MOLECULAR_FORMULA>
C23H29N3O2

> <PUBCHEM_MOLECULAR_WEIGHT>
379.5

> <PUBCHEM_OPENEYE_CAN_SMILES>
C1CC(=O)NC2=C1C=CC(=C2)OCCCCN3CCN(CC3)C4=CC=CC=C4

> <PUBCHEM_OPENEYE_ISO_SMILES>
C1CC(=O)NC2=C1C=CC(=C2)OCCCCN3CCN(CC3)C4=CC=CC=C4

> <PUBCHEM_CACTVS_TPSA>
44.8

> <PUBCHEM_MONOISOTOPIC_WEIGHT>
379.22597718

> <PUBCHEM_TOTAL_CHARGE>
0

> <PUBCHEM_HEAVY_ATOM_COUNT>
28

> <PUBCHEM_ATOM_DEF_STEREO_COUNT>
0

> <PUBCHEM_ATOM_UDEF_STEREO_COUNT>
0

> <PUBCHEM_BOND_DEF_STEREO_COUNT>
0

> <PUBCHEM_BOND_UDEF_STEREO_COUNT>
0

> <PUBCHEM_ISOTOPIC_ATOM_COUNT>
0

> <PUBCHEM_COMPONENT_COUNT>
1

> <PUBCHEM_CACTVS_TAUTO_COUNT>
-1

> <PUBCHEM_COORDINATE_TYPE>
1
5
255

> <PUBCHEM_BONDANNOTATIONS>
12  15  8
12  16  8
15  22  8
16  23  8
17  19  8
17  25  8
19  24  8
20  24  8
20  27  8
22  26  8
23  26  8
25  27  8

$$$$
