6918648
  -OEChem-09292322102D

 54 57  0     0  0  0  0  0  0999 V2000
    2.0000    3.1535    0.0000 Cl  0  0  0  0  0  0  0  0  0  0  0  0
    7.1279    2.1535    0.0000 S   0  0  0  0  0  0  0  0  0  0  0  0
    5.5443    1.3487    0.0000 S   0  0  0  0  0  0  0  0  0  0  0  0
   10.1279   -1.3106    0.0000 O   0  0  0  0  0  0  0  0  0  0  0  0
    7.1279    1.1535    0.0000 O   0  0  0  0  0  0  0  0  0  0  0  0
    7.1279    3.1535    0.0000 O   0  0  0  0  0  0  0  0  0  0  0  0
    8.1279   -1.3106    0.0000 N   0  0  0  0  0  0  0  0  0  0  0  0
    7.1279   -3.0427    0.0000 N   0  0  0  0  0  0  0  0  0  0  0  0
    8.1279    2.1535    0.0000 N   0  0  0  0  0  0  0  0  0  0  0  0
    8.6279   -2.1767    0.0000 C   0  0  0  0  0  0  0  0  0  0  0  0
    7.1279   -1.3106    0.0000 C   0  0  0  0  0  0  0  0  0  0  0  0
    8.1279   -3.0427    0.0000 C   0  0  0  0  0  0  0  0  0  0  0  0
    6.6279   -2.1767    0.0000 C   0  0  0  0  0  0  0  0  0  0  0  0
    8.6279   -0.4446    0.0000 C   0  0  0  0  0  0  0  0  0  0  0  0
    6.6279   -3.9087    0.0000 C   0  0  0  0  0  0  0  0  0  0  0  0
    8.1279    0.4214    0.0000 C   0  0  0  0  0  0  0  0  0  0  0  0
    9.6279   -0.4446    0.0000 C   0  0  0  0  0  0  0  0  0  0  0  0
    8.6279    1.2874    0.0000 C   0  0  0  0  0  0  0  0  0  0  0  0
   10.1279    0.4214    0.0000 C   0  0  0  0  0  0  0  0  0  0  0  0
    9.6279    1.2874    0.0000 C   0  0  0  0  0  0  0  0  0  0  0  0
    6.1279    2.1535    0.0000 C   0  0  0  0  0  0  0  0  0  0  0  0
    5.5443    2.9582    0.0000 C   0  0  0  0  0  0  0  0  0  0  0  0
    4.5981    2.6535    0.0000 C   0  0  0  0  0  0  0  0  0  0  0  0
    4.5981    1.6535    0.0000 C   0  0  0  0  0  0  0  0  0  0  0  0
    5.8550    3.9087    0.0000 C   0  0  0  0  0  0  0  0  0  0  0  0
    3.7320    3.1535    0.0000 C   0  0  0  0  0  0  0  0  0  0  0  0
    3.7320    1.1535    0.0000 C   0  0  0  0  0  0  0  0  0  0  0  0
   11.1279   -1.3106    0.0000 C   0  0  0  0  0  0  0  0  0  0  0  0
    2.8660    2.6535    0.0000 C   0  0  0  0  0  0  0  0  0  0  0  0
    2.8660    1.6535    0.0000 C   0  0  0  0  0  0  0  0  0  0  0  0
    9.1028   -2.5752    0.0000 H   0  0  0  0  0  0  0  0  0  0  0  0
    9.1028   -1.7781    0.0000 H   0  0  0  0  0  0  0  0  0  0  0  0
    7.2356   -0.7001    0.0000 H   0  0  0  0  0  0  0  0  0  0  0  0
    6.5453   -1.0986    0.0000 H   0  0  0  0  0  0  0  0  0  0  0  0
    8.0202   -3.6533    0.0000 H   0  0  0  0  0  0  0  0  0  0  0  0
    8.7105   -3.2547    0.0000 H   0  0  0  0  0  0  0  0  0  0  0  0
    6.1530   -1.7781    0.0000 H   0  0  0  0  0  0  0  0  0  0  0  0
    6.1530   -2.5752    0.0000 H   0  0  0  0  0  0  0  0  0  0  0  0
    6.0910   -3.5987    0.0000 H   0  0  0  0  0  0  0  0  0  0  0  0
    6.3179   -4.4456    0.0000 H   0  0  0  0  0  0  0  0  0  0  0  0
    7.1648   -4.2187    0.0000 H   0  0  0  0  0  0  0  0  0  0  0  0
    7.5079    0.4214    0.0000 H   0  0  0  0  0  0  0  0  0  0  0  0
   10.7479    0.4214    0.0000 H   0  0  0  0  0  0  0  0  0  0  0  0
    8.4379    2.6904    0.0000 H   0  0  0  0  0  0  0  0  0  0  0  0
    9.9379    1.8244    0.0000 H   0  0  0  0  0  0  0  0  0  0  0  0
    6.4443    3.7161    0.0000 H   0  0  0  0  0  0  0  0  0  0  0  0
    6.0476    4.4980    0.0000 H   0  0  0  0  0  0  0  0  0  0  0  0
    5.2656    4.1013    0.0000 H   0  0  0  0  0  0  0  0  0  0  0  0
    3.7320    3.7735    0.0000 H   0  0  0  0  0  0  0  0  0  0  0  0
    3.7320    0.5335    0.0000 H   0  0  0  0  0  0  0  0  0  0  0  0
   11.1279   -1.9306    0.0000 H   0  0  0  0  0  0  0  0  0  0  0  0
   11.7479   -1.3106    0.0000 H   0  0  0  0  0  0  0  0  0  0  0  0
   11.1279   -0.6906    0.0000 H   0  0  0  0  0  0  0  0  0  0  0  0
    2.3291    1.3435    0.0000 H   0  0  0  0  0  0  0  0  0  0  0  0
  1 29  1  0  0  0  0
  2  5  2  0  0  0  0
  2  6  2  0  0  0  0
  2  9  1  0  0  0  0
  2 21  1  0  0  0  0
  3 21  1  0  0  0  0
  3 24  1  0  0  0  0
  4 17  1  0  0  0  0
  4 28  1  0  0  0  0
  7 10  1  0  0  0  0
  7 11  1  0  0  0  0
  7 14  1  0  0  0  0
  8 12  1  0  0  0  0
  8 13  1  0  0  0  0
  8 15  1  0  0  0  0
  9 18  1  0  0  0  0
  9 44  1  0  0  0  0
 10 12  1  0  0  0  0
 10 31  1  0  0  0  0
 10 32  1  0  0  0  0
 11 13  1  0  0  0  0
 11 33  1  0  0  0  0
 11 34  1  0  0  0  0
 12 35  1  0  0  0  0
 12 36  1  0  0  0  0
 13 37  1  0  0  0  0
 13 38  1  0  0  0  0
 14 16  1  0  0  0  0
 14 17  2  0  0  0  0
 15 39  1  0  0  0  0
 15 40  1  0  0  0  0
 15 41  1  0  0  0  0
 16 18  2  0  0  0  0
 16 42  1  0  0  0  0
 17 19  1  0  0  0  0
 18 20  1  0  0  0  0
 19 20  2  0  0  0  0
 19 43  1  0  0  0  0
 20 45  1  0  0  0  0
 21 22  2  0  0  0  0
 22 23  1  0  0  0  0
 22 25  1  0  0  0  0
 23 24  2  0  0  0  0
 23 26  1  0  0  0  0
 24 27  1  0  0  0  0
 25 46  1  0  0  0  0
 25 47  1  0  0  0  0
 25 48  1  0  0  0  0
 26 29  2  0  0  0  0
 26 49  1  0  0  0  0
 27 30  2  0  0  0  0
 27 50  1  0  0  0  0
 28 51  1  0  0  0  0
 28 52  1  0  0  0  0
 28 53  1  0  0  0  0
 29 30  1  0  0  0  0
 30 54  1  0  0  0  0
M  END
> <PUBCHEM_COMPOUND_CID>
6918648

> <PUBCHEM_COMPOUND_CANONICALIZED>
1

> <PUBCHEM_CACTVS_COMPLEXITY>
684

> <PUBCHEM_CACTVS_HBOND_ACCEPTOR>
7

> <PUBCHEM_CACTVS_HBOND_DONOR>
1

> <PUBCHEM_CACTVS_ROTATABLE_BOND>
5

> <PUBCHEM_CACTVS_SUBSKEYS>
AAADceB7MABkAAAAAAAAAAAAAAAAASAAAAA8YIAAAAAAAEgB9AAAHgYQQAAADA7B2CYyx8NABAqEAiRCQHDDCZAhLxBIiBgPbogOZiLl89uVMChk0BH46AewwMAOgEIAIAQEEAAAhABACAggAAAAAAAAAA==

> <PUBCHEM_IUPAC_OPENEYE_NAME>
5-chloro-N-[4-methoxy-3-(4-methylpiperazin-1-yl)phenyl]-3-methyl-benzothiophene-2-sulfonamide

> <PUBCHEM_IUPAC_CAS_NAME>
5-chloro-N-[4-methoxy-3-(4-methyl-1-piperazinyl)phenyl]-3-methyl-1-benzothiophene-2-sulfonamide

> <PUBCHEM_IUPAC_NAME_MARKUP>
5-chloro-<I>N</I>-[4-methoxy-3-(4-methylpiperazin-1-yl)phenyl]-3-methyl-1-benzothiophene-2-sulfonamide

> <PUBCHEM_IUPAC_NAME>
5-chloro-N-[4-methoxy-3-(4-methylpiperazin-1-yl)phenyl]-3-methyl-1-benzothiophene-2-sulfonamide

> <PUBCHEM_IUPAC_SYSTEMATIC_NAME>
5-chloranyl-N-[4-methoxy-3-(4-methylpiperazin-1-yl)phenyl]-3-methyl-1-benzothiophene-2-sulfonamide

> <PUBCHEM_IUPAC_TRADITIONAL_NAME>
5-chloro-N-[4-methoxy-3-(4-methylpiperazino)phenyl]-3-methyl-benzothiophene-2-sulfonamide

> <PUBCHEM_IUPAC_INCHI>
InChI=1S/C21H24ClN3O3S2/c1-14-17-12-15(22)4-7-20(17)29-21(14)30(26,27)23-16-5-6-19(28-3)18(13-16)25-10-8-24(2)9-11-25/h4-7,12-13,23H,8-11H2,1-3H3

> <PUBCHEM_IUPAC_INCHIKEY>
ZINLARKOVIPOJW-UHFFFAOYSA-N

> <PUBCHEM_XLOGP3_AA>
4.7

> <PUBCHEM_EXACT_MASS>
465.0947617

> <PUBCHEM_MOLECULAR_FORMULA>
C21H24ClN3O3S2

> <PUBCHEM_MOLECULAR_WEIGHT>
466.0

> <PUBCHEM_OPENEYE_CAN_SMILES>
CC1=C(SC2=C1C=C(C=C2)Cl)S(=O)(=O)NC3=CC(=C(C=C3)OC)N4CCN(CC4)C

> <PUBCHEM_OPENEYE_ISO_SMILES>
CC1=C(SC2=C1C=C(C=C2)Cl)S(=O)(=O)NC3=CC(=C(C=C3)OC)N4CCN(CC4)C

> <PUBCHEM_CACTVS_TPSA>
98.5

> <PUBCHEM_MONOISOTOPIC_WEIGHT>
465.0947617

> <PUBCHEM_TOTAL_CHARGE>
0

> <PUBCHEM_HEAVY_ATOM_COUNT>
30

> <PUBCHEM_ATOM_DEF_STEREO_COUNT>
0

> <PUBCHEM_ATOM_UDEF_STEREO_COUNT>
0

> <PUBCHEM_BOND_DEF_STEREO_COUNT>
0

> <PUBCHEM_BOND_UDEF_STEREO_COUNT>
0

> <PUBCHEM_ISOTOPIC_ATOM_COUNT>
0

> <PUBCHEM_COMPONENT_COUNT>
1

> <PUBCHEM_CACTVS_TAUTO_COUNT>
-1

> <PUBCHEM_COORDINATE_TYPE>
1
5
255

> <PUBCHEM_BONDANNOTATIONS>
14  16  8
14  17  8
16  18  8
17  19  8
18  20  8
19  20  8
21  22  8
22  23  8
23  24  8
23  26  8
24  27  8
26  29  8
27  30  8
29  30  8
3  21  8
3  24  8

$$$$
