11326600
  -OEChem-09292322342D

 51 54  0     0  0  0  0  0  0999 V2000
   14.0561    1.3030    0.0000 S   0  0  0  0  0  0  0  0  0  0  0  0
    8.9282    2.3030    0.0000 O   0  0  0  0  0  0  0  0  0  0  0  0
    2.8660   -2.1970    0.0000 O   0  0  0  0  0  0  0  0  0  0  0  0
    6.3301    1.8030    0.0000 N   0  0  0  0  0  0  0  0  0  0  0  0
    4.5981    0.8030    0.0000 N   0  0  0  0  0  0  0  0  0  0  0  0
   12.4725    2.1077    0.0000 N   0  0  0  0  0  0  0  0  0  0  0  0
   12.4725    0.4982    0.0000 N   0  0  0  0  0  0  0  0  0  0  0  0
    5.4641    2.3030    0.0000 C   0  0  0  0  0  0  0  0  0  0  0  0
    6.3301    0.8030    0.0000 C   0  0  0  0  0  0  0  0  0  0  0  0
    4.5981    1.8030    0.0000 C   0  0  0  0  0  0  0  0  0  0  0  0
    5.4641    0.3030    0.0000 C   0  0  0  0  0  0  0  0  0  0  0  0
    7.1962    2.3030    0.0000 C   0  0  0  0  0  0  0  0  0  0  0  0
    3.7320    0.3030    0.0000 C   0  0  0  0  0  0  0  0  0  0  0  0
    8.0622    1.8030    0.0000 C   0  0  0  0  0  0  0  0  0  0  0  0
    3.7320   -0.6970    0.0000 C   0  0  0  0  0  0  0  0  0  0  0  0
    2.8660    0.8030    0.0000 C   0  0  0  0  0  0  0  0  0  0  0  0
    2.8660   -1.1970    0.0000 C   0  0  0  0  0  0  0  0  0  0  0  0
    2.0000    0.3030    0.0000 C   0  0  0  0  0  0  0  0  0  0  0  0
    9.7942    1.8030    0.0000 C   0  0  0  0  0  0  0  0  0  0  0  0
    2.0000   -0.6970    0.0000 C   0  0  0  0  0  0  0  0  0  0  0  0
   11.5263    1.8030    0.0000 C   0  0  0  0  0  0  0  0  0  0  0  0
   10.6603    2.3030    0.0000 C   0  0  0  0  0  0  0  0  0  0  0  0
   11.5263    0.8030    0.0000 C   0  0  0  0  0  0  0  0  0  0  0  0
    9.7942    0.8030    0.0000 C   0  0  0  0  0  0  0  0  0  0  0  0
   10.6603    0.3030    0.0000 C   0  0  0  0  0  0  0  0  0  0  0  0
   13.0561    1.3030    0.0000 C   0  0  0  0  0  0  0  0  0  0  0  0
    2.0000   -2.6970    0.0000 C   0  0  0  0  0  0  0  0  0  0  0  0
    5.8626    2.7779    0.0000 H   0  0  0  0  0  0  0  0  0  0  0  0
    5.0656    2.7779    0.0000 H   0  0  0  0  0  0  0  0  0  0  0  0
    6.5422    0.2204    0.0000 H   0  0  0  0  0  0  0  0  0  0  0  0
    6.9407    0.9106    0.0000 H   0  0  0  0  0  0  0  0  0  0  0  0
    4.3860    2.3856    0.0000 H   0  0  0  0  0  0  0  0  0  0  0  0
    3.9875    1.6953    0.0000 H   0  0  0  0  0  0  0  0  0  0  0  0
    5.0656   -0.1720    0.0000 H   0  0  0  0  0  0  0  0  0  0  0  0
    5.8626   -0.1720    0.0000 H   0  0  0  0  0  0  0  0  0  0  0  0
    7.5947    2.7779    0.0000 H   0  0  0  0  0  0  0  0  0  0  0  0
    6.7976    2.7779    0.0000 H   0  0  0  0  0  0  0  0  0  0  0  0
    7.6636    1.3280    0.0000 H   0  0  0  0  0  0  0  0  0  0  0  0
    8.4607    1.3280    0.0000 H   0  0  0  0  0  0  0  0  0  0  0  0
    4.2690   -1.0070    0.0000 H   0  0  0  0  0  0  0  0  0  0  0  0
    2.8660    1.4230    0.0000 H   0  0  0  0  0  0  0  0  0  0  0  0
    1.4631    0.6130    0.0000 H   0  0  0  0  0  0  0  0  0  0  0  0
    1.4631   -1.0070    0.0000 H   0  0  0  0  0  0  0  0  0  0  0  0
   10.6603    2.9230    0.0000 H   0  0  0  0  0  0  0  0  0  0  0  0
    9.2573    0.4930    0.0000 H   0  0  0  0  0  0  0  0  0  0  0  0
   10.6603   -0.3170    0.0000 H   0  0  0  0  0  0  0  0  0  0  0  0
   12.6651    2.6970    0.0000 H   0  0  0  0  0  0  0  0  0  0  0  0
   12.6651   -0.0911    0.0000 H   0  0  0  0  0  0  0  0  0  0  0  0
    1.6900   -2.1601    0.0000 H   0  0  0  0  0  0  0  0  0  0  0  0
    1.4631   -3.0070    0.0000 H   0  0  0  0  0  0  0  0  0  0  0  0
    2.3100   -3.2340    0.0000 H   0  0  0  0  0  0  0  0  0  0  0  0
  1 26  2  0  0  0  0
  2 14  1  0  0  0  0
  2 19  1  0  0  0  0
  3 17  1  0  0  0  0
  3 27  1  0  0  0  0
  4  8  1  0  0  0  0
  4  9  1  0  0  0  0
  4 12  1  0  0  0  0
  5 10  1  0  0  0  0
  5 11  1  0  0  0  0
  5 13  1  0  0  0  0
  6 21  1  0  0  0  0
  6 26  1  0  0  0  0
  6 47  1  0  0  0  0
  7 23  1  0  0  0  0
  7 26  1  0  0  0  0
  7 48  1  0  0  0  0
  8 10  1  0  0  0  0
  8 28  1  0  0  0  0
  8 29  1  0  0  0  0
  9 11  1  0  0  0  0
  9 30  1  0  0  0  0
  9 31  1  0  0  0  0
 10 32  1  0  0  0  0
 10 33  1  0  0  0  0
 11 34  1  0  0  0  0
 11 35  1  0  0  0  0
 12 14  1  0  0  0  0
 12 36  1  0  0  0  0
 12 37  1  0  0  0  0
 13 15  2  0  0  0  0
 13 16  1  0  0  0  0
 14 38  1  0  0  0  0
 14 39  1  0  0  0  0
 15 17  1  0  0  0  0
 15 40  1  0  0  0  0
 16 18  2  0  0  0  0
 16 41  1  0  0  0  0
 17 20  2  0  0  0  0
 18 20  1  0  0  0  0
 18 42  1  0  0  0  0
 19 22  2  0  0  0  0
 19 24  1  0  0  0  0
 20 43  1  0  0  0  0
 21 22  1  0  0  0  0
 21 23  2  0  0  0  0
 22 44  1  0  0  0  0
 23 25  1  0  0  0  0
 24 25  2  0  0  0  0
 24 45  1  0  0  0  0
 25 46  1  0  0  0  0
 27 49  1  0  0  0  0
 27 50  1  0  0  0  0
 27 51  1  0  0  0  0
M  END
> <PUBCHEM_COMPOUND_CID>
11326600

> <PUBCHEM_COMPOUND_CANONICALIZED>
1

> <PUBCHEM_CACTVS_COMPLEXITY>
500

> <PUBCHEM_CACTVS_HBOND_ACCEPTOR>
5

> <PUBCHEM_CACTVS_HBOND_DONOR>
2

> <PUBCHEM_CACTVS_ROTATABLE_BOND>
6

> <PUBCHEM_CACTVS_SUBSKEYS>
AAADceB7sABAAAAAAAAAAAAAAAAAAWAAAAA8YIAAAAAAAFgBQAAAHgQQAAAACAzhkAYzxoPABACEACRCQACCCAAhIgkIiAAOfIiOZiLEsZuXOCju0BvY6CewUAMAAEAAAgAAACAAgAAEAAAAQAAAAAAAAA==

> <PUBCHEM_IUPAC_OPENEYE_NAME>
5-[2-[4-(3-methoxyphenyl)piperazin-1-yl]ethoxy]-1,3-dihydrobenzimidazole-2-thione

> <PUBCHEM_IUPAC_CAS_NAME>
5-[2-[4-(3-methoxyphenyl)-1-piperazinyl]ethoxy]-1,3-dihydrobenzimidazole-2-thione

> <PUBCHEM_IUPAC_NAME_MARKUP>
5-[2-[4-(3-methoxyphenyl)piperazin-1-yl]ethoxy]-1,3-dihydrobenzimidazole-2-thione

> <PUBCHEM_IUPAC_NAME>
5-[2-[4-(3-methoxyphenyl)piperazin-1-yl]ethoxy]-1,3-dihydrobenzimidazole-2-thione

> <PUBCHEM_IUPAC_SYSTEMATIC_NAME>
5-[2-[4-(3-methoxyphenyl)piperazin-1-yl]ethoxy]-1,3-dihydrobenzimidazole-2-thione

> <PUBCHEM_IUPAC_TRADITIONAL_NAME>
5-[2-[4-(3-methoxyphenyl)piperazino]ethoxy]-1,3-dihydrobenzimidazole-2-thione

> <PUBCHEM_IUPAC_INCHI>
InChI=1S/C20H24N4O2S/c1-25-16-4-2-3-15(13-16)24-9-7-23(8-10-24)11-12-26-17-5-6-18-19(14-17)22-20(27)21-18/h2-6,13-14H,7-12H2,1H3,(H2,21,22,27)

> <PUBCHEM_IUPAC_INCHIKEY>
WUEHCYPOVQCXIO-UHFFFAOYSA-N

> <PUBCHEM_XLOGP3_AA>
2.7

> <PUBCHEM_EXACT_MASS>
384.16199719

> <PUBCHEM_MOLECULAR_FORMULA>
C20H24N4O2S

> <PUBCHEM_MOLECULAR_WEIGHT>
384.5

> <PUBCHEM_OPENEYE_CAN_SMILES>
COC1=CC=CC(=C1)N2CCN(CC2)CCOC3=CC4=C(C=C3)NC(=S)N4

> <PUBCHEM_OPENEYE_ISO_SMILES>
COC1=CC=CC(=C1)N2CCN(CC2)CCOC3=CC4=C(C=C3)NC(=S)N4

> <PUBCHEM_CACTVS_TPSA>
81.1

> <PUBCHEM_MONOISOTOPIC_WEIGHT>
384.16199719

> <PUBCHEM_TOTAL_CHARGE>
0

> <PUBCHEM_HEAVY_ATOM_COUNT>
27

> <PUBCHEM_ATOM_DEF_STEREO_COUNT>
0

> <PUBCHEM_ATOM_UDEF_STEREO_COUNT>
0

> <PUBCHEM_BOND_DEF_STEREO_COUNT>
0

> <PUBCHEM_BOND_UDEF_STEREO_COUNT>
0

> <PUBCHEM_ISOTOPIC_ATOM_COUNT>
0

> <PUBCHEM_COMPONENT_COUNT>
1

> <PUBCHEM_CACTVS_TAUTO_COUNT>
-1

> <PUBCHEM_COORDINATE_TYPE>
1
5
255

> <PUBCHEM_BONDANNOTATIONS>
13  15  8
13  16  8
15  17  8
16  18  8
17  20  8
18  20  8
19  22  8
19  24  8
21  22  8
21  23  8
23  25  8
24  25  8
6  21  8
6  26  8
7  23  8
7  26  8

$$$$
