15293841
  -OEChem-09292322412D

 28 30  0     1  0  0  0  0  0999 V2000
    6.0522    1.2742    0.0000 O   0  0  0  0  0  0  0  0  0  0  0  0
    6.0682   -1.7673    0.0000 O   0  0  0  0  0  0  0  0  0  0  0  0
    2.5381    0.2568    0.0000 O   0  0  0  0  0  0  0  0  0  0  0  0
    7.8443    0.2395    0.0000 N   0  0  0  0  0  0  0  0  0  0  0  0
    6.9343   -0.2673    0.0000 C   0  0  1  0  0  0  0  0  0  0  0  0
    6.0682    0.2327    0.0000 C   0  0  1  0  0  0  0  0  0  0  0  0
    6.9343   -1.2673    0.0000 C   0  0  0  0  0  0  0  0  0  0  0  0
    5.2022   -0.2673    0.0000 C   0  0  0  0  0  0  0  0  0  0  0  0
    7.8523    1.2812    0.0000 C   0  0  0  0  0  0  0  0  0  0  0  0
    6.9502    1.8020    0.0000 C   0  0  0  0  0  0  0  0  0  0  0  0
    5.2022   -1.2673    0.0000 C   0  0  0  0  0  0  0  0  0  0  0  0
    4.3083    0.2674    0.0000 C   0  0  0  0  0  0  0  0  0  0  0  0
    4.3083   -1.8020    0.0000 C   0  0  0  0  0  0  0  0  0  0  0  0
    3.4022   -0.2465    0.0000 C   0  0  0  0  0  0  0  0  0  0  0  0
    3.4022   -1.2881    0.0000 C   0  0  0  0  0  0  0  0  0  0  0  0
    7.6671   -0.6980    0.0000 H   0  0  0  0  0  0  0  0  0  0  0  0
    6.8011    0.6634    0.0000 H   0  0  0  0  0  0  0  0  0  0  0  0
    7.1463   -1.8499    0.0000 H   0  0  0  0  0  0  0  0  0  0  0  0
    7.5449   -1.1596    0.0000 H   0  0  0  0  0  0  0  0  0  0  0  0
    8.3776   -0.0766    0.0000 H   0  0  0  0  0  0  0  0  0  0  0  0
    8.4623    1.1704    0.0000 H   0  0  0  0  0  0  0  0  0  0  0  0
    8.0659    1.8632    0.0000 H   0  0  0  0  0  0  0  0  0  0  0  0
    7.3475    2.2779    0.0000 H   0  0  0  0  0  0  0  0  0  0  0  0
    6.5493    2.2748    0.0000 H   0  0  0  0  0  0  0  0  0  0  0  0
    4.3154    0.8873    0.0000 H   0  0  0  0  0  0  0  0  0  0  0  0
    4.3154   -2.4219    0.0000 H   0  0  0  0  0  0  0  0  0  0  0  0
    2.8665   -1.6002    0.0000 H   0  0  0  0  0  0  0  0  0  0  0  0
    2.0000   -0.0511    0.0000 H   0  0  0  0  0  0  0  0  0  0  0  0
  1  6  1  0  0  0  0
  1 10  1  0  0  0  0
  2  7  1  0  0  0  0
  2 11  1  0  0  0  0
  3 14  1  0  0  0  0
  3 28  1  0  0  0  0
  4  5  1  0  0  0  0
  4  9  1  0  0  0  0
  4 20  1  0  0  0  0
  5  6  1  0  0  0  0
  5  7  1  0  0  0  0
  5 16  1  1  0  0  0
  6  8  1  0  0  0  0
  6 17  1  6  0  0  0
  7 18  1  0  0  0  0
  7 19  1  0  0  0  0
  8 11  2  0  0  0  0
  8 12  1  0  0  0  0
  9 10  1  0  0  0  0
  9 21  1  0  0  0  0
  9 22  1  0  0  0  0
 10 23  1  0  0  0  0
 10 24  1  0  0  0  0
 11 13  1  0  0  0  0
 12 14  2  0  0  0  0
 12 25  1  0  0  0  0
 13 15  2  0  0  0  0
 13 26  1  0  0  0  0
 14 15  1  0  0  0  0
 15 27  1  0  0  0  0
M  END
> <PUBCHEM_COMPOUND_CID>
15293841

> <PUBCHEM_COMPOUND_CANONICALIZED>
1

> <PUBCHEM_CACTVS_COMPLEXITY>
236

> <PUBCHEM_CACTVS_HBOND_ACCEPTOR>
4

> <PUBCHEM_CACTVS_HBOND_DONOR>
2

> <PUBCHEM_CACTVS_ROTATABLE_BOND>
0

> <PUBCHEM_CACTVS_SUBSKEYS>
AAADccByMAAAAAAAAAAAAAAAAAAAAAAAAAA8SIAAAAAAAACxAAAAHgAQCAAADDzhmAYwBoLABgCAAiBCAAACCAAgIAAIiIAOCIgOJyKGsRuHeCCl0BGYuAfw0LMOAQABAAAIAAACAAIAABAAAAAAAAAAAA==

> <PUBCHEM_IUPAC_OPENEYE_NAME>
(4aR,10bR)-2,3,4,4a,5,10b-hexahydrochromeno[4,3-b][1,4]oxazin-9-ol

> <PUBCHEM_IUPAC_CAS_NAME>
(4aR,10bR)-2,3,4,4a,5,10b-hexahydro[1]benzopyrano[4,3-b][1,4]oxazin-9-ol

> <PUBCHEM_IUPAC_NAME_MARKUP>
(4<I>a</I><I>R</I>,10<I>b</I><I>R</I>)-2,3,4,4<I>a</I>,5,10<I>b</I>-hexahydrochromeno[4,3-b][1,4]oxazin-9-ol

> <PUBCHEM_IUPAC_NAME>
(4aR,10bR)-2,3,4,4a,5,10b-hexahydrochromeno[4,3-b][1,4]oxazin-9-ol

> <PUBCHEM_IUPAC_SYSTEMATIC_NAME>
(4aR,10bR)-2,3,4,4a,5,10b-hexahydrochromeno[4,3-b][1,4]oxazin-9-ol

> <PUBCHEM_IUPAC_TRADITIONAL_NAME>
(4aR,10bR)-2,3,4,4a,5,10b-hexahydrochromeno[4,3-b][1,4]oxazin-9-ol

> <PUBCHEM_IUPAC_INCHI>
InChI=1S/C11H13NO3/c13-7-1-2-10-8(5-7)11-9(6-15-10)12-3-4-14-11/h1-2,5,9,11-13H,3-4,6H2/t9-,11-/m1/s1

> <PUBCHEM_IUPAC_INCHIKEY>
HDQVTWXXANYCIU-MWLCHTKSSA-N

> <PUBCHEM_XLOGP3>
0.6

> <PUBCHEM_EXACT_MASS>
207.08954328

> <PUBCHEM_MOLECULAR_FORMULA>
C11H13NO3

> <PUBCHEM_MOLECULAR_WEIGHT>
207.23

> <PUBCHEM_OPENEYE_CAN_SMILES>
C1COC2C(N1)COC3=C2C=C(C=C3)O

> <PUBCHEM_OPENEYE_ISO_SMILES>
C1CO[C@H]2[C@H](N1)COC3=C2C=C(C=C3)O

> <PUBCHEM_CACTVS_TPSA>
50.7

> <PUBCHEM_MONOISOTOPIC_WEIGHT>
207.08954328

> <PUBCHEM_TOTAL_CHARGE>
0

> <PUBCHEM_HEAVY_ATOM_COUNT>
15

> <PUBCHEM_ATOM_DEF_STEREO_COUNT>
2

> <PUBCHEM_ATOM_UDEF_STEREO_COUNT>
0

> <PUBCHEM_BOND_DEF_STEREO_COUNT>
0

> <PUBCHEM_BOND_UDEF_STEREO_COUNT>
0

> <PUBCHEM_ISOTOPIC_ATOM_COUNT>
0

> <PUBCHEM_COMPONENT_COUNT>
1

> <PUBCHEM_CACTVS_TAUTO_COUNT>
-1

> <PUBCHEM_COORDINATE_TYPE>
1
5
255

> <PUBCHEM_BONDANNOTATIONS>
11  13  8
12  14  8
13  15  8
14  15  8
5  16  5
6  17  6
8  11  8
8  12  8

$$$$
