164611906
  -OEChem-09292322432D

 68 72  0     0  0  0  0  0  0999 V2000
    2.0000   -5.7984    0.0000 F   0  0  0  0  0  0  0  0  0  0  0  0
    5.5443   -5.6031    0.0000 O   0  0  0  0  0  0  0  0  0  0  0  0
    9.3653    2.1219    0.0000 O   0  0  0  0  0  0  0  0  0  0  0  0
   14.2113    5.7984    0.0000 O   0  0  0  0  0  0  0  0  0  0  0  0
    6.4763   -1.1421    0.0000 N   0  0  0  0  0  0  0  0  0  0  0  0
    6.1279   -4.7984    0.0000 N   0  0  0  0  0  0  0  0  0  0  0  0
   13.5900    3.8973    0.0000 N   0  0  0  0  0  0  0  0  0  0  0  0
    5.8550   -3.0431    0.0000 C   0  0  0  0  0  0  0  0  0  0  0  0
    6.8335   -2.8369    0.0000 C   0  0  0  0  0  0  0  0  0  0  0  0
    5.1871   -2.2988    0.0000 C   0  0  0  0  0  0  0  0  0  0  0  0
    7.1441   -1.8864    0.0000 C   0  0  0  0  0  0  0  0  0  0  0  0
    5.4978   -1.3483    0.0000 C   0  0  0  0  0  0  0  0  0  0  0  0
    6.7870   -0.1916    0.0000 C   0  0  0  0  0  0  0  0  0  0  0  0
    5.5443   -3.9936    0.0000 C   0  0  0  0  0  0  0  0  0  0  0  0
    7.7654    0.0147    0.0000 C   0  0  0  0  0  0  0  0  0  0  0  0
    4.5981   -4.2984    0.0000 C   0  0  0  0  0  0  0  0  0  0  0  0
    8.0761    0.9652    0.0000 C   0  0  0  0  0  0  0  0  0  0  0  0
    4.5981   -5.2984    0.0000 C   0  0  0  0  0  0  0  0  0  0  0  0
    9.0546    1.1714    0.0000 C   0  0  0  0  0  0  0  0  0  0  0  0
    3.7320   -3.7984    0.0000 C   0  0  0  0  0  0  0  0  0  0  0  0
    3.7320   -5.7984    0.0000 C   0  0  0  0  0  0  0  0  0  0  0  0
   12.9221    4.6416    0.0000 C   0  0  0  0  0  0  0  0  0  0  0  0
   14.5685    4.1035    0.0000 C   0  0  0  0  0  0  0  0  0  0  0  0
    2.8660   -4.2984    0.0000 C   0  0  0  0  0  0  0  0  0  0  0  0
   13.2793    2.9468    0.0000 C   0  0  0  0  0  0  0  0  0  0  0  0
    2.8660   -5.2984    0.0000 C   0  0  0  0  0  0  0  0  0  0  0  0
   13.2328    5.5921    0.0000 C   0  0  0  0  0  0  0  0  0  0  0  0
   14.8791    5.0541    0.0000 C   0  0  0  0  0  0  0  0  0  0  0  0
   12.3008    2.7406    0.0000 C   0  0  0  0  0  0  0  0  0  0  0  0
   10.3438    2.3282    0.0000 C   0  0  0  0  0  0  0  0  0  0  0  0
   11.6330    3.4849    0.0000 C   0  0  0  0  0  0  0  0  0  0  0  0
   11.9901    1.7901    0.0000 C   0  0  0  0  0  0  0  0  0  0  0  0
   10.6545    3.2787    0.0000 C   0  0  0  0  0  0  0  0  0  0  0  0
   11.0116    1.5838    0.0000 C   0  0  0  0  0  0  0  0  0  0  0  0
    6.2690   -3.5046    0.0000 H   0  0  0  0  0  0  0  0  0  0  0  0
    6.8540   -3.4566    0.0000 H   0  0  0  0  0  0  0  0  0  0  0  0
    7.4473   -2.9242    0.0000 H   0  0  0  0  0  0  0  0  0  0  0  0
    4.6402   -2.0068    0.0000 H   0  0  0  0  0  0  0  0  0  0  0  0
    4.8046   -2.7867    0.0000 H   0  0  0  0  0  0  0  0  0  0  0  0
    7.6910   -2.1784    0.0000 H   0  0  0  0  0  0  0  0  0  0  0  0
    7.5267   -1.3985    0.0000 H   0  0  0  0  0  0  0  0  0  0  0  0
    5.4772   -0.7286    0.0000 H   0  0  0  0  0  0  0  0  0  0  0  0
    4.8840   -1.2609    0.0000 H   0  0  0  0  0  0  0  0  0  0  0  0
    6.7664    0.4281    0.0000 H   0  0  0  0  0  0  0  0  0  0  0  0
    6.1731   -0.1042    0.0000 H   0  0  0  0  0  0  0  0  0  0  0  0
    7.7860   -0.6050    0.0000 H   0  0  0  0  0  0  0  0  0  0  0  0
    8.3793   -0.0727    0.0000 H   0  0  0  0  0  0  0  0  0  0  0  0
    8.0556    1.5849    0.0000 H   0  0  0  0  0  0  0  0  0  0  0  0
    7.4623    1.0525    0.0000 H   0  0  0  0  0  0  0  0  0  0  0  0
    9.0752    0.5517    0.0000 H   0  0  0  0  0  0  0  0  0  0  0  0
    9.6684    1.0841    0.0000 H   0  0  0  0  0  0  0  0  0  0  0  0
    3.7320   -3.1784    0.0000 H   0  0  0  0  0  0  0  0  0  0  0  0
    3.7320   -6.4184    0.0000 H   0  0  0  0  0  0  0  0  0  0  0  0
   12.3752    4.9336    0.0000 H   0  0  0  0  0  0  0  0  0  0  0  0
   12.5396    4.1537    0.0000 H   0  0  0  0  0  0  0  0  0  0  0  0
   14.5890    3.4839    0.0000 H   0  0  0  0  0  0  0  0  0  0  0  0
   15.1823    4.0162    0.0000 H   0  0  0  0  0  0  0  0  0  0  0  0
   13.2999    2.3271    0.0000 H   0  0  0  0  0  0  0  0  0  0  0  0
   13.8931    2.8594    0.0000 H   0  0  0  0  0  0  0  0  0  0  0  0
    2.3291   -3.9884    0.0000 H   0  0  0  0  0  0  0  0  0  0  0  0
   13.2122    6.2118    0.0000 H   0  0  0  0  0  0  0  0  0  0  0  0
   12.6190    5.6795    0.0000 H   0  0  0  0  0  0  0  0  0  0  0  0
   15.4261    4.7620    0.0000 H   0  0  0  0  0  0  0  0  0  0  0  0
   15.2617    5.5420    0.0000 H   0  0  0  0  0  0  0  0  0  0  0  0
   11.8256    4.0742    0.0000 H   0  0  0  0  0  0  0  0  0  0  0  0
   12.4042    1.3286    0.0000 H   0  0  0  0  0  0  0  0  0  0  0  0
   10.2404    3.7401    0.0000 H   0  0  0  0  0  0  0  0  0  0  0  0
   10.8190    0.9945    0.0000 H   0  0  0  0  0  0  0  0  0  0  0  0
  1 26  1  0  0  0  0
  2  6  1  0  0  0  0
  2 18  1  0  0  0  0
  3 19  1  0  0  0  0
  3 30  1  0  0  0  0
  4 27  1  0  0  0  0
  4 28  1  0  0  0  0
  5 11  1  0  0  0  0
  5 12  1  0  0  0  0
  5 13  1  0  0  0  0
  6 14  2  0  0  0  0
  7 22  1  0  0  0  0
  7 23  1  0  0  0  0
  7 25  1  0  0  0  0
  8  9  1  0  0  0  0
  8 10  1  0  0  0  0
  8 14  1  0  0  0  0
  8 35  1  0  0  0  0
  9 11  1  0  0  0  0
  9 36  1  0  0  0  0
  9 37  1  0  0  0  0
 10 12  1  0  0  0  0
 10 38  1  0  0  0  0
 10 39  1  0  0  0  0
 11 40  1  0  0  0  0
 11 41  1  0  0  0  0
 12 42  1  0  0  0  0
 12 43  1  0  0  0  0
 13 15  1  0  0  0  0
 13 44  1  0  0  0  0
 13 45  1  0  0  0  0
 14 16  1  0  0  0  0
 15 17  1  0  0  0  0
 15 46  1  0  0  0  0
 15 47  1  0  0  0  0
 16 18  2  0  0  0  0
 16 20  1  0  0  0  0
 17 19  1  0  0  0  0
 17 48  1  0  0  0  0
 17 49  1  0  0  0  0
 18 21  1  0  0  0  0
 19 50  1  0  0  0  0
 19 51  1  0  0  0  0
 20 24  2  0  0  0  0
 20 52  1  0  0  0  0
 21 26  2  0  0  0  0
 21 53  1  0  0  0  0
 22 27  1  0  0  0  0
 22 54  1  0  0  0  0
 22 55  1  0  0  0  0
 23 28  1  0  0  0  0
 23 56  1  0  0  0  0
 23 57  1  0  0  0  0
 24 26  1  0  0  0  0
 24 60  1  0  0  0  0
 25 29  1  0  0  0  0
 25 58  1  0  0  0  0
 25 59  1  0  0  0  0
 27 61  1  0  0  0  0
 27 62  1  0  0  0  0
 28 63  1  0  0  0  0
 28 64  1  0  0  0  0
 29 31  2  0  0  0  0
 29 32  1  0  0  0  0
 30 33  2  0  0  0  0
 30 34  1  0  0  0  0
 31 33  1  0  0  0  0
 31 65  1  0  0  0  0
 32 34  2  0  0  0  0
 32 66  1  0  0  0  0
 33 67  1  0  0  0  0
 34 68  1  0  0  0  0
M  END
> <PUBCHEM_COMPOUND_CID>
164611906

> <PUBCHEM_COMPOUND_CANONICALIZED>
1

> <PUBCHEM_CACTVS_COMPLEXITY>
592

> <PUBCHEM_CACTVS_HBOND_ACCEPTOR>
7

> <PUBCHEM_CACTVS_HBOND_DONOR>
0

> <PUBCHEM_CACTVS_ROTATABLE_BOND>
9

> <PUBCHEM_CACTVS_SUBSKEYS>
AAADcfB7MQAAAAAAAAAAAAAAAAAAAWAAAAA8eIEAAAAAAFgB9AAAHwAEAAAADQzhng4whtMQBACpA6RyQgCCCAAkIAAomCE+TNoOJrqEtZuHOajmwBmY6ce42OKOIAAAAAAIAABAAAAAABAAAAAAAAAAAA==

> <PUBCHEM_IUPAC_OPENEYE_NAME>
6-fluoro-3-[1-[4-[4-(morpholinomethyl)phenoxy]butyl]-4-piperidyl]-1,2-benzoxazole

> <PUBCHEM_IUPAC_CAS_NAME>
6-fluoro-3-[1-[4-[4-(4-morpholinylmethyl)phenoxy]butyl]-4-piperidinyl]-1,2-benzoxazole

> <PUBCHEM_IUPAC_NAME_MARKUP>
6-fluoro-3-[1-[4-[4-(morpholin-4-ylmethyl)phenoxy]butyl]piperidin-4-yl]-1,2-benzoxazole

> <PUBCHEM_IUPAC_NAME>
6-fluoro-3-[1-[4-[4-(morpholin-4-ylmethyl)phenoxy]butyl]piperidin-4-yl]-1,2-benzoxazole

> <PUBCHEM_IUPAC_SYSTEMATIC_NAME>
6-fluoranyl-3-[1-[4-[4-(morpholin-4-ylmethyl)phenoxy]butyl]piperidin-4-yl]-1,2-benzoxazole

> <PUBCHEM_IUPAC_TRADITIONAL_NAME>
6-fluoro-3-[1-[4-[4-(morpholinomethyl)phenoxy]butyl]-4-piperidyl]indoxazene

> <PUBCHEM_IUPAC_INCHI>
InChI=1S/C27H34FN3O3/c28-23-5-8-25-26(19-23)34-29-27(25)22-9-12-30(13-10-22)11-1-2-16-33-24-6-3-21(4-7-24)20-31-14-17-32-18-15-31/h3-8,19,22H,1-2,9-18,20H2

> <PUBCHEM_IUPAC_INCHIKEY>
RIDMUSSNFOKJBO-UHFFFAOYSA-N

> <PUBCHEM_XLOGP3_AA>
4.3

> <PUBCHEM_EXACT_MASS>
467.25842012

> <PUBCHEM_MOLECULAR_FORMULA>
C27H34FN3O3

> <PUBCHEM_MOLECULAR_WEIGHT>
467.6

> <PUBCHEM_OPENEYE_CAN_SMILES>
C1CN(CCC1C2=NOC3=C2C=CC(=C3)F)CCCCOC4=CC=C(C=C4)CN5CCOCC5

> <PUBCHEM_OPENEYE_ISO_SMILES>
C1CN(CCC1C2=NOC3=C2C=CC(=C3)F)CCCCOC4=CC=C(C=C4)CN5CCOCC5

> <PUBCHEM_CACTVS_TPSA>
51

> <PUBCHEM_MONOISOTOPIC_WEIGHT>
467.25842012

> <PUBCHEM_TOTAL_CHARGE>
0

> <PUBCHEM_HEAVY_ATOM_COUNT>
34

> <PUBCHEM_ATOM_DEF_STEREO_COUNT>
0

> <PUBCHEM_ATOM_UDEF_STEREO_COUNT>
0

> <PUBCHEM_BOND_DEF_STEREO_COUNT>
0

> <PUBCHEM_BOND_UDEF_STEREO_COUNT>
0

> <PUBCHEM_ISOTOPIC_ATOM_COUNT>
0

> <PUBCHEM_COMPONENT_COUNT>
1

> <PUBCHEM_CACTVS_TAUTO_COUNT>
-1

> <PUBCHEM_COORDINATE_TYPE>
1
5
255

> <PUBCHEM_BONDANNOTATIONS>
14  16  8
16  18  8
16  20  8
18  21  8
2  18  8
2  6  8
20  24  8
21  26  8
24  26  8
29  31  8
29  32  8
30  33  8
30  34  8
31  33  8
32  34  8
6  14  8

$$$$
