155567307
  -OEChem-09292322412D

 69 73  0     0  0  0  0  0  0999 V2000
    8.4391    3.8599    0.0000 O   0  0  0  0  0  0  0  0  0  0  0  0
    2.7696   -2.7524    0.0000 O   0  0  0  0  0  0  0  0  0  0  0  0
    5.3051    2.3842    0.0000 N   0  0  0  0  0  0  0  0  0  0  0  0
    6.4461    4.0268    0.0000 N   0  0  0  0  0  0  0  0  0  0  0  0
    4.3009   -3.6151    0.0000 N   0  0  0  0  0  0  0  0  0  0  0  0
    4.8791    3.2890    0.0000 C   0  0  0  0  0  0  0  0  0  0  0  0
    6.3016    2.3008    0.0000 C   0  0  0  0  0  0  0  0  0  0  0  0
    4.7345    1.5629    0.0000 C   0  0  0  0  0  0  0  0  0  0  0  0
    5.4496    4.1102    0.0000 C   0  0  0  0  0  0  0  0  0  0  0  0
    6.8721    3.1221    0.0000 C   0  0  0  0  0  0  0  0  0  0  0  0
    5.1605    0.6582    0.0000 C   0  0  0  0  0  0  0  0  0  0  0  0
    4.5900   -0.1631    0.0000 C   0  0  0  0  0  0  0  0  0  0  0  0
    5.0160   -1.0678    0.0000 C   0  0  0  0  0  0  0  0  0  0  0  0
    4.4455   -1.8891    0.0000 C   0  0  0  0  0  0  0  0  0  0  0  0
    4.8714   -2.7938    0.0000 C   0  0  0  0  0  0  0  0  0  0  0  0
    7.0166    4.8481    0.0000 C   0  0  0  0  0  0  0  0  0  0  0  0
    4.6660   -4.5394    0.0000 C   0  0  0  0  0  0  0  0  0  0  0  0
    3.8000   -5.0394    0.0000 C   0  0  0  0  0  0  0  0  0  0  0  0
    2.9061   -4.5047    0.0000 C   0  0  0  0  0  0  0  0  0  0  0  0
    3.3073   -3.5955    0.0000 C   0  0  0  0  0  0  0  0  0  0  0  0
    8.0131    4.7646    0.0000 C   0  0  0  0  0  0  0  0  0  0  0  0
    6.5906    5.7528    0.0000 C   0  0  0  0  0  0  0  0  0  0  0  0
    3.8000   -6.0394    0.0000 C   0  0  0  0  0  0  0  0  0  0  0  0
    5.5321   -5.0394    0.0000 C   0  0  0  0  0  0  0  0  0  0  0  0
    2.0000   -5.0186    0.0000 C   0  0  0  0  0  0  0  0  0  0  0  0
    4.6660   -6.5394    0.0000 C   0  0  0  0  0  0  0  0  0  0  0  0
    8.5837    5.5859    0.0000 C   0  0  0  0  0  0  0  0  0  0  0  0
    2.9061   -6.5741    0.0000 C   0  0  0  0  0  0  0  0  0  0  0  0
    5.5321   -6.0394    0.0000 C   0  0  0  0  0  0  0  0  0  0  0  0
    7.1612    6.5741    0.0000 C   0  0  0  0  0  0  0  0  0  0  0  0
    2.0000   -6.0602    0.0000 C   0  0  0  0  0  0  0  0  0  0  0  0
    8.1577    6.4906    0.0000 C   0  0  0  0  0  0  0  0  0  0  0  0
    9.4356    3.7764    0.0000 C   0  0  0  0  0  0  0  0  0  0  0  0
    9.8616    2.8717    0.0000 C   0  0  0  0  0  0  0  0  0  0  0  0
    4.4390    3.7257    0.0000 H   0  0  0  0  0  0  0  0  0  0  0  0
    4.3725    2.9314    0.0000 H   0  0  0  0  0  0  0  0  0  0  0  0
    6.1433    1.7013    0.0000 H   0  0  0  0  0  0  0  0  0  0  0  0
    6.8644    2.0408    0.0000 H   0  0  0  0  0  0  0  0  0  0  0  0
    4.2945    1.9997    0.0000 H   0  0  0  0  0  0  0  0  0  0  0  0
    4.2280    1.2054    0.0000 H   0  0  0  0  0  0  0  0  0  0  0  0
    5.6078    4.7097    0.0000 H   0  0  0  0  0  0  0  0  0  0  0  0
    4.8867    4.3702    0.0000 H   0  0  0  0  0  0  0  0  0  0  0  0
    7.3121    2.6853    0.0000 H   0  0  0  0  0  0  0  0  0  0  0  0
    7.3786    3.4796    0.0000 H   0  0  0  0  0  0  0  0  0  0  0  0
    5.6006    0.2214    0.0000 H   0  0  0  0  0  0  0  0  0  0  0  0
    5.6671    1.0157    0.0000 H   0  0  0  0  0  0  0  0  0  0  0  0
    4.1500    0.2737    0.0000 H   0  0  0  0  0  0  0  0  0  0  0  0
    4.0834   -0.5206    0.0000 H   0  0  0  0  0  0  0  0  0  0  0  0
    5.4560   -1.5046    0.0000 H   0  0  0  0  0  0  0  0  0  0  0  0
    5.5225   -0.7103    0.0000 H   0  0  0  0  0  0  0  0  0  0  0  0
    4.0054   -1.4523    0.0000 H   0  0  0  0  0  0  0  0  0  0  0  0
    3.9389   -2.2466    0.0000 H   0  0  0  0  0  0  0  0  0  0  0  0
    5.3115   -3.2306    0.0000 H   0  0  0  0  0  0  0  0  0  0  0  0
    5.3780   -2.4363    0.0000 H   0  0  0  0  0  0  0  0  0  0  0  0
    5.9728    5.8045    0.0000 H   0  0  0  0  0  0  0  0  0  0  0  0
    6.0690   -4.7294    0.0000 H   0  0  0  0  0  0  0  0  0  0  0  0
    1.4643   -4.7065    0.0000 H   0  0  0  0  0  0  0  0  0  0  0  0
    4.6660   -7.1594    0.0000 H   0  0  0  0  0  0  0  0  0  0  0  0
    9.2015    5.5342    0.0000 H   0  0  0  0  0  0  0  0  0  0  0  0
    2.9132   -7.1940    0.0000 H   0  0  0  0  0  0  0  0  0  0  0  0
    6.0690   -6.3494    0.0000 H   0  0  0  0  0  0  0  0  0  0  0  0
    6.8971    7.1350    0.0000 H   0  0  0  0  0  0  0  0  0  0  0  0
    1.4643   -6.3723    0.0000 H   0  0  0  0  0  0  0  0  0  0  0  0
    8.5114    6.9998    0.0000 H   0  0  0  0  0  0  0  0  0  0  0  0
   10.0339    3.9391    0.0000 H   0  0  0  0  0  0  0  0  0  0  0  0
    9.3793    4.3939    0.0000 H   0  0  0  0  0  0  0  0  0  0  0  0
    9.3007    2.6076    0.0000 H   0  0  0  0  0  0  0  0  0  0  0  0
   10.1257    2.3108    0.0000 H   0  0  0  0  0  0  0  0  0  0  0  0
   10.4226    3.1358    0.0000 H   0  0  0  0  0  0  0  0  0  0  0  0
  1 21  1  0  0  0  0
  1 33  1  0  0  0  0
  2 20  2  0  0  0  0
  3  6  1  0  0  0  0
  3  7  1  0  0  0  0
  3  8  1  0  0  0  0
  4  9  1  0  0  0  0
  4 10  1  0  0  0  0
  4 16  1  0  0  0  0
  5 15  1  0  0  0  0
  5 17  1  0  0  0  0
  5 20  1  0  0  0  0
  6  9  1  0  0  0  0
  6 35  1  0  0  0  0
  6 36  1  0  0  0  0
  7 10  1  0  0  0  0
  7 37  1  0  0  0  0
  7 38  1  0  0  0  0
  8 11  1  0  0  0  0
  8 39  1  0  0  0  0
  8 40  1  0  0  0  0
  9 41  1  0  0  0  0
  9 42  1  0  0  0  0
 10 43  1  0  0  0  0
 10 44  1  0  0  0  0
 11 12  1  0  0  0  0
 11 45  1  0  0  0  0
 11 46  1  0  0  0  0
 12 13  1  0  0  0  0
 12 47  1  0  0  0  0
 12 48  1  0  0  0  0
 13 14  1  0  0  0  0
 13 49  1  0  0  0  0
 13 50  1  0  0  0  0
 14 15  1  0  0  0  0
 14 51  1  0  0  0  0
 14 52  1  0  0  0  0
 15 53  1  0  0  0  0
 15 54  1  0  0  0  0
 16 21  1  0  0  0  0
 16 22  2  0  0  0  0
 17 18  1  0  0  0  0
 17 24  2  0  0  0  0
 18 19  1  0  0  0  0
 18 23  2  0  0  0  0
 19 20  1  0  0  0  0
 19 25  2  0  0  0  0
 21 27  2  0  0  0  0
 22 30  1  0  0  0  0
 22 55  1  0  0  0  0
 23 26  1  0  0  0  0
 23 28  1  0  0  0  0
 24 29  1  0  0  0  0
 24 56  1  0  0  0  0
 25 31  1  0  0  0  0
 25 57  1  0  0  0  0
 26 29  2  0  0  0  0
 26 58  1  0  0  0  0
 27 32  1  0  0  0  0
 27 59  1  0  0  0  0
 28 31  2  0  0  0  0
 28 60  1  0  0  0  0
 29 61  1  0  0  0  0
 30 32  2  0  0  0  0
 30 62  1  0  0  0  0
 31 63  1  0  0  0  0
 32 64  1  0  0  0  0
 33 34  1  0  0  0  0
 33 65  1  0  0  0  0
 33 66  1  0  0  0  0
 34 67  1  0  0  0  0
 34 68  1  0  0  0  0
 34 69  1  0  0  0  0
M  END
> <PUBCHEM_COMPOUND_CID>
155567307

> <PUBCHEM_COMPOUND_CANONICALIZED>
1

> <PUBCHEM_CACTVS_COMPLEXITY>
649

> <PUBCHEM_CACTVS_HBOND_ACCEPTOR>
4

> <PUBCHEM_CACTVS_HBOND_DONOR>
0

> <PUBCHEM_CACTVS_ROTATABLE_BOND>
10

> <PUBCHEM_CACTVS_SUBSKEYS>
AAADcfB7MAAAAAAAAAAAAAAAAAAAAWAAAAA8YMEAAAAAAFjBVAAAHgAAAAAADAzhmAYyxsMABACIAiVSUACCCAAlIgAIiAEPbMgOZjLEtZuXOSjkxhHY6YecyMCOgAACQAASEAAAAASAACQgAAAAAAAAAA==

> <PUBCHEM_IUPAC_OPENEYE_NAME>
1-[6-[4-(2-ethoxyphenyl)piperazin-1-yl]hexyl]benzo[cd]indol-2-one

> <PUBCHEM_IUPAC_CAS_NAME>
1-[6-[4-(2-ethoxyphenyl)-1-piperazinyl]hexyl]-2-benzo[cd]indolone

> <PUBCHEM_IUPAC_NAME_MARKUP>
1-[6-[4-(2-ethoxyphenyl)piperazin-1-yl]hexyl]benzo[cd]indol-2-one

> <PUBCHEM_IUPAC_NAME>
1-[6-[4-(2-ethoxyphenyl)piperazin-1-yl]hexyl]benzo[cd]indol-2-one

> <PUBCHEM_IUPAC_SYSTEMATIC_NAME>
1-[6-[4-(2-ethoxyphenyl)piperazin-1-yl]hexyl]benzo[cd]indol-2-one

> <PUBCHEM_IUPAC_TRADITIONAL_NAME>
1-[6-(4-o-phenetylpiperazino)hexyl]benzo[cd]indol-2-one

> <PUBCHEM_IUPAC_INCHI>
InChI=1S/C29H35N3O2/c1-2-34-27-16-6-5-14-25(27)31-21-19-30(20-22-31)17-7-3-4-8-18-32-26-15-10-12-23-11-9-13-24(28(23)26)29(32)33/h5-6,9-16H,2-4,7-8,17-22H2,1H3

> <PUBCHEM_IUPAC_INCHIKEY>
FJGNCKIPBKWGFB-UHFFFAOYSA-N

> <PUBCHEM_XLOGP3_AA>
5.7

> <PUBCHEM_EXACT_MASS>
457.27292737

> <PUBCHEM_MOLECULAR_FORMULA>
C29H35N3O2

> <PUBCHEM_MOLECULAR_WEIGHT>
457.6

> <PUBCHEM_OPENEYE_CAN_SMILES>
CCOC1=CC=CC=C1N2CCN(CC2)CCCCCCN3C4=CC=CC5=C4C(=CC=C5)C3=O

> <PUBCHEM_OPENEYE_ISO_SMILES>
CCOC1=CC=CC=C1N2CCN(CC2)CCCCCCN3C4=CC=CC5=C4C(=CC=C5)C3=O

> <PUBCHEM_CACTVS_TPSA>
36

> <PUBCHEM_MONOISOTOPIC_WEIGHT>
457.27292737

> <PUBCHEM_TOTAL_CHARGE>
0

> <PUBCHEM_HEAVY_ATOM_COUNT>
34

> <PUBCHEM_ATOM_DEF_STEREO_COUNT>
0

> <PUBCHEM_ATOM_UDEF_STEREO_COUNT>
0

> <PUBCHEM_BOND_DEF_STEREO_COUNT>
0

> <PUBCHEM_BOND_UDEF_STEREO_COUNT>
0

> <PUBCHEM_ISOTOPIC_ATOM_COUNT>
0

> <PUBCHEM_COMPONENT_COUNT>
1

> <PUBCHEM_CACTVS_TAUTO_COUNT>
-1

> <PUBCHEM_COORDINATE_TYPE>
1
5
255

> <PUBCHEM_BONDANNOTATIONS>
16  21  8
16  22  8
17  18  8
17  24  8
18  19  8
18  23  8
19  25  8
21  27  8
22  30  8
23  26  8
23  28  8
24  29  8
25  31  8
26  29  8
27  32  8
28  31  8
30  32  8

$$$$
