162663244
  -OEChem-09292322462D

 50 53  0     1  0  0  0  0  0999 V2000
    4.0358    2.3063    0.0000 N   0  0  3  0  0  0  0  0  0  0  0  0
    6.3374   -0.3966    0.0000 N   0  0  0  0  0  0  0  0  0  0  0  0
    5.8374   -2.5873    0.0000 N   0  0  0  0  0  0  0  0  0  0  0  0
    5.0330    2.2316    0.0000 C   0  0  2  0  0  0  0  0  0  0  0  0
    3.4725    1.4801    0.0000 C   0  0  0  0  0  0  0  0  0  0  0  0
    3.9064    0.5791    0.0000 C   0  0  0  0  0  0  0  0  0  0  0  0
    4.9036    0.5044    0.0000 C   0  0  0  0  0  0  0  0  0  0  0  0
    5.4669    1.3306    0.0000 C   0  0  0  0  0  0  0  0  0  0  0  0
    5.3374   -0.3966    0.0000 C   0  0  0  0  0  0  0  0  0  0  0  0
    5.5963    3.0578    0.0000 C   0  0  0  0  0  0  0  0  0  0  0  0
    3.6019    3.2073    0.0000 C   0  0  0  0  0  0  0  0  0  0  0  0
    4.7139   -1.1784    0.0000 C   0  0  0  0  0  0  0  0  0  0  0  0
    4.9364   -2.1534    0.0000 C   0  0  0  0  0  0  0  0  0  0  0  0
    6.9609   -1.1785    0.0000 C   0  0  0  0  0  0  0  0  0  0  0  0
    3.7234   -0.8561    0.0000 C   0  0  0  0  0  0  0  0  0  0  0  0
    6.7384   -2.1534    0.0000 C   0  0  0  0  0  0  0  0  0  0  0  0
    2.9544   -1.5587    0.0000 C   0  0  0  0  0  0  0  0  0  0  0  0
    4.1839   -2.8736    0.0000 C   0  0  0  0  0  0  0  0  0  0  0  0
    3.1862   -2.5742    0.0000 C   0  0  0  0  0  0  0  0  0  0  0  0
    7.9514   -0.8561    0.0000 C   0  0  0  0  0  0  0  0  0  0  0  0
    7.4909   -2.8736    0.0000 C   0  0  0  0  0  0  0  0  0  0  0  0
    8.7204   -1.5587    0.0000 C   0  0  0  0  0  0  0  0  0  0  0  0
    8.4886   -2.5742    0.0000 C   0  0  0  0  0  0  0  0  0  0  0  0
    2.0000   -1.2602    0.0000 C   0  0  0  0  0  0  0  0  0  0  0  0
    9.6749   -1.2603    0.0000 C   0  0  0  0  0  0  0  0  0  0  0  0
    4.7640    2.7902    0.0000 H   0  0  0  0  0  0  0  0  0  0  0  0
    3.0286    1.9130    0.0000 H   0  0  0  0  0  0  0  0  0  0  0  0
    2.9691    1.1181    0.0000 H   0  0  0  0  0  0  0  0  0  0  0  0
    3.3095    0.4112    0.0000 H   0  0  0  0  0  0  0  0  0  0  0  0
    3.9681   -0.0378    0.0000 H   0  0  0  0  0  0  0  0  0  0  0  0
    6.0851    1.2842    0.0000 H   0  0  0  0  0  0  0  0  0  0  0  0
    6.1086    2.7085    0.0000 H   0  0  0  0  0  0  0  0  0  0  0  0
    5.9456    3.5701    0.0000 H   0  0  0  0  0  0  0  0  0  0  0  0
    5.0841    3.4070    0.0000 H   0  0  0  0  0  0  0  0  0  0  0  0
    4.1605    3.4763    0.0000 H   0  0  0  0  0  0  0  0  0  0  0  0
    3.3329    3.7659    0.0000 H   0  0  0  0  0  0  0  0  0  0  0  0
    3.0433    2.9383    0.0000 H   0  0  0  0  0  0  0  0  0  0  0  0
    3.5925   -0.2501    0.0000 H   0  0  0  0  0  0  0  0  0  0  0  0
    5.8374   -3.2073    0.0000 H   0  0  0  0  0  0  0  0  0  0  0  0
    4.3288   -3.4764    0.0000 H   0  0  0  0  0  0  0  0  0  0  0  0
    2.7333   -2.9976    0.0000 H   0  0  0  0  0  0  0  0  0  0  0  0
    8.0824   -0.2501    0.0000 H   0  0  0  0  0  0  0  0  0  0  0  0
    7.3460   -3.4764    0.0000 H   0  0  0  0  0  0  0  0  0  0  0  0
    8.9415   -2.9977    0.0000 H   0  0  0  0  0  0  0  0  0  0  0  0
    2.1850   -0.6685    0.0000 H   0  0  0  0  0  0  0  0  0  0  0  0
    1.4083   -1.0752    0.0000 H   0  0  0  0  0  0  0  0  0  0  0  0
    1.8150   -1.8520    0.0000 H   0  0  0  0  0  0  0  0  0  0  0  0
    9.8599   -1.8520    0.0000 H   0  0  0  0  0  0  0  0  0  0  0  0
   10.2666   -1.0753    0.0000 H   0  0  0  0  0  0  0  0  0  0  0  0
    9.4898   -0.6685    0.0000 H   0  0  0  0  0  0  0  0  0  0  0  0
  1  4  1  0  0  0  0
  1  5  1  0  0  0  0
  1 11  1  0  0  0  0
  2  9  2  0  0  0  0
  2 14  1  0  0  0  0
  3 13  1  0  0  0  0
  3 16  1  0  0  0  0
  3 39  1  0  0  0  0
  4  8  1  0  0  0  0
  4 10  1  1  0  0  0
  4 26  1  0  0  0  0
  5  6  1  0  0  0  0
  5 27  1  0  0  0  0
  5 28  1  0  0  0  0
  6  7  1  0  0  0  0
  6 29  1  0  0  0  0
  6 30  1  0  0  0  0
  7  8  2  0  0  0  0
  7  9  1  0  0  0  0
  8 31  1  0  0  0  0
  9 12  1  0  0  0  0
 10 32  1  0  0  0  0
 10 33  1  0  0  0  0
 10 34  1  0  0  0  0
 11 35  1  0  0  0  0
 11 36  1  0  0  0  0
 11 37  1  0  0  0  0
 12 13  2  0  0  0  0
 12 15  1  0  0  0  0
 13 18  1  0  0  0  0
 14 16  2  0  0  0  0
 14 20  1  0  0  0  0
 15 17  2  0  0  0  0
 15 38  1  0  0  0  0
 16 21  1  0  0  0  0
 17 19  1  0  0  0  0
 17 24  1  0  0  0  0
 18 19  2  0  0  0  0
 18 40  1  0  0  0  0
 19 41  1  0  0  0  0
 20 22  2  0  0  0  0
 20 42  1  0  0  0  0
 21 23  2  0  0  0  0
 21 43  1  0  0  0  0
 22 23  1  0  0  0  0
 22 25  1  0  0  0  0
 23 44  1  0  0  0  0
 24 45  1  0  0  0  0
 24 46  1  0  0  0  0
 24 47  1  0  0  0  0
 25 48  1  0  0  0  0
 25 49  1  0  0  0  0
 25 50  1  0  0  0  0
M  END
> <PUBCHEM_COMPOUND_CID>
162663244

> <PUBCHEM_COMPOUND_CANONICALIZED>
1

> <PUBCHEM_CACTVS_COMPLEXITY>
552

> <PUBCHEM_CACTVS_HBOND_ACCEPTOR>
3

> <PUBCHEM_CACTVS_HBOND_DONOR>
1

> <PUBCHEM_CACTVS_ROTATABLE_BOND>
1

> <PUBCHEM_CACTVS_SUBSKEYS>
AAADceB7AAAAAAAAAAAAAAAAAAAAAAAAAAAwYIAABAAAAAABQAAAHAAQAAAADCjBGAQywIPAAACgAyRiRACCAAAhAgAIiAAodJgIYOLAkZGUIAhgkADIyAcQgMAOCAACQAACACAQAASAAAQAQAAAAAAAAA==

> <PUBCHEM_IUPAC_OPENEYE_NAME>
6-[(6S)-1,6-dimethyl-3,6-dihydro-2H-pyridin-4-yl]-3,8-dimethyl-11H-benzo[b][1,4]benzodiazepine

> <PUBCHEM_IUPAC_CAS_NAME>
6-[(6S)-1,6-dimethyl-3,6-dihydro-2H-pyridin-4-yl]-3,8-dimethyl-11H-benzo[b][1,4]benzodiazepine

> <PUBCHEM_IUPAC_NAME_MARKUP>
6-[(6<I>S</I>)-1,6-dimethyl-3,6-dihydro-2<I>H</I>-pyridin-4-yl]-3,8-dimethyl-11<I>H</I>-benzo[b][1,4]benzodiazepine

> <PUBCHEM_IUPAC_NAME>
6-[(6S)-1,6-dimethyl-3,6-dihydro-2H-pyridin-4-yl]-3,8-dimethyl-11H-benzo[b][1,4]benzodiazepine

> <PUBCHEM_IUPAC_SYSTEMATIC_NAME>
6-[(6S)-1,6-dimethyl-3,6-dihydro-2H-pyridin-4-yl]-3,8-dimethyl-11H-benzo[b][1,4]benzodiazepine

> <PUBCHEM_IUPAC_TRADITIONAL_NAME>
6-[(6S)-1,6-dimethyl-3,6-dihydro-2H-pyridin-4-yl]-3,8-dimethyl-11H-benzo[b][1,4]benzodiazepine

> <PUBCHEM_IUPAC_INCHI>
InChI=1S/C22H25N3/c1-14-5-7-19-18(11-14)22(17-9-10-25(4)16(3)13-17)24-21-12-15(2)6-8-20(21)23-19/h5-8,11-13,16,23H,9-10H2,1-4H3/t16-/m0/s1

> <PUBCHEM_IUPAC_INCHIKEY>
HQOZRPUAUJQEAR-INIZCTEOSA-N

> <PUBCHEM_XLOGP3_AA>
4.5

> <PUBCHEM_EXACT_MASS>
331.204847810

> <PUBCHEM_MOLECULAR_FORMULA>
C22H25N3

> <PUBCHEM_MOLECULAR_WEIGHT>
331.5

> <PUBCHEM_OPENEYE_CAN_SMILES>
CC1C=C(CCN1C)C2=NC3=C(C=CC(=C3)C)NC4=C2C=C(C=C4)C

> <PUBCHEM_OPENEYE_ISO_SMILES>
C[C@H]1C=C(CCN1C)C2=NC3=C(C=CC(=C3)C)NC4=C2C=C(C=C4)C

> <PUBCHEM_CACTVS_TPSA>
27.6

> <PUBCHEM_MONOISOTOPIC_WEIGHT>
331.204847810

> <PUBCHEM_TOTAL_CHARGE>
0

> <PUBCHEM_HEAVY_ATOM_COUNT>
25

> <PUBCHEM_ATOM_DEF_STEREO_COUNT>
1

> <PUBCHEM_ATOM_UDEF_STEREO_COUNT>
0

> <PUBCHEM_BOND_DEF_STEREO_COUNT>
0

> <PUBCHEM_BOND_UDEF_STEREO_COUNT>
0

> <PUBCHEM_ISOTOPIC_ATOM_COUNT>
0

> <PUBCHEM_COMPONENT_COUNT>
1

> <PUBCHEM_CACTVS_TAUTO_COUNT>
-1

> <PUBCHEM_COORDINATE_TYPE>
1
5
255

> <PUBCHEM_BONDANNOTATIONS>
12  13  8
12  15  8
13  18  8
14  16  8
14  20  8
15  17  8
16  21  8
17  19  8
18  19  8
20  22  8
21  23  8
22  23  8
4  10  5

$$$$
