23625244
  -OEChem-09292322252D

 65 69  0     0  0  0  0  0  0999 V2000
   13.6279   -2.6651    0.0000 Cl  0  0  0  0  0  0  0  0  0  0  0  0
   14.6279   -4.3971    0.0000 Cl  0  0  0  0  0  0  0  0  0  0  0  0
   10.1279    3.3971    0.0000 O   0  0  0  0  0  0  0  0  0  0  0  0
   13.6279    0.7990    0.0000 N   0  0  0  0  0  0  0  0  0  0  0  0
   14.6279   -0.9330    0.0000 N   0  0  0  0  0  0  0  0  0  0  0  0
    4.5981    3.8971    0.0000 N   0  0  0  0  0  0  0  0  0  0  0  0
    5.5443    2.5924    0.0000 N   0  0  0  0  0  0  0  0  0  0  0  0
   13.1279   -0.0670    0.0000 C   0  0  0  0  0  0  0  0  0  0  0  0
   14.6279    0.7990    0.0000 C   0  0  0  0  0  0  0  0  0  0  0  0
   13.6279   -0.9330    0.0000 C   0  0  0  0  0  0  0  0  0  0  0  0
   15.1279   -0.0670    0.0000 C   0  0  0  0  0  0  0  0  0  0  0  0
   13.1279    1.6651    0.0000 C   0  0  0  0  0  0  0  0  0  0  0  0
   12.1279    1.6651    0.0000 C   0  0  0  0  0  0  0  0  0  0  0  0
   15.1279   -1.7990    0.0000 C   0  0  0  0  0  0  0  0  0  0  0  0
   11.6279    2.5311    0.0000 C   0  0  0  0  0  0  0  0  0  0  0  0
   10.6279    2.5311    0.0000 C   0  0  0  0  0  0  0  0  0  0  0  0
   14.6279   -2.6651    0.0000 C   0  0  0  0  0  0  0  0  0  0  0  0
   16.1279   -1.7990    0.0000 C   0  0  0  0  0  0  0  0  0  0  0  0
   15.1279   -3.5311    0.0000 C   0  0  0  0  0  0  0  0  0  0  0  0
   16.6279   -2.6651    0.0000 C   0  0  0  0  0  0  0  0  0  0  0  0
   16.1279   -3.5311    0.0000 C   0  0  0  0  0  0  0  0  0  0  0  0
    9.1279    3.3971    0.0000 C   0  0  0  0  0  0  0  0  0  0  0  0
    7.1279    3.3971    0.0000 C   0  0  0  0  0  0  0  0  0  0  0  0
    8.6279    4.2631    0.0000 C   0  0  0  0  0  0  0  0  0  0  0  0
    8.6279    2.5311    0.0000 C   0  0  0  0  0  0  0  0  0  0  0  0
    6.1279    3.3971    0.0000 C   0  0  0  0  0  0  0  0  0  0  0  0
    7.6279    4.2631    0.0000 C   0  0  0  0  0  0  0  0  0  0  0  0
    7.6279    2.5311    0.0000 C   0  0  0  0  0  0  0  0  0  0  0  0
    4.5981    2.8971    0.0000 C   0  0  0  0  0  0  0  0  0  0  0  0
    5.5443    4.2018    0.0000 C   0  0  0  0  0  0  0  0  0  0  0  0
    3.7320    4.3971    0.0000 C   0  0  0  0  0  0  0  0  0  0  0  0
    2.8660    3.8971    0.0000 C   0  0  0  0  0  0  0  0  0  0  0  0
    3.7320    2.3971    0.0000 C   0  0  0  0  0  0  0  0  0  0  0  0
    2.8660    2.8971    0.0000 C   0  0  0  0  0  0  0  0  0  0  0  0
    2.0000    4.3971    0.0000 C   0  0  0  0  0  0  0  0  0  0  0  0
   12.6530    0.3315    0.0000 H   0  0  0  0  0  0  0  0  0  0  0  0
   12.6530   -0.4655    0.0000 H   0  0  0  0  0  0  0  0  0  0  0  0
   15.2105    1.0111    0.0000 H   0  0  0  0  0  0  0  0  0  0  0  0
   14.5202    1.4096    0.0000 H   0  0  0  0  0  0  0  0  0  0  0  0
   13.0453   -1.1451    0.0000 H   0  0  0  0  0  0  0  0  0  0  0  0
   13.7356   -1.5436    0.0000 H   0  0  0  0  0  0  0  0  0  0  0  0
   15.6029   -0.4655    0.0000 H   0  0  0  0  0  0  0  0  0  0  0  0
   15.6029    0.3315    0.0000 H   0  0  0  0  0  0  0  0  0  0  0  0
   13.7105    1.8771    0.0000 H   0  0  0  0  0  0  0  0  0  0  0  0
   13.0202    2.2756    0.0000 H   0  0  0  0  0  0  0  0  0  0  0  0
   11.5453    1.4530    0.0000 H   0  0  0  0  0  0  0  0  0  0  0  0
   12.2356    1.0545    0.0000 H   0  0  0  0  0  0  0  0  0  0  0  0
   12.2105    2.7431    0.0000 H   0  0  0  0  0  0  0  0  0  0  0  0
   11.5202    3.1417    0.0000 H   0  0  0  0  0  0  0  0  0  0  0  0
   10.0453    2.3190    0.0000 H   0  0  0  0  0  0  0  0  0  0  0  0
   10.7356    1.9205    0.0000 H   0  0  0  0  0  0  0  0  0  0  0  0
   16.4379   -1.2621    0.0000 H   0  0  0  0  0  0  0  0  0  0  0  0
   17.2479   -2.6651    0.0000 H   0  0  0  0  0  0  0  0  0  0  0  0
   16.4379   -4.0680    0.0000 H   0  0  0  0  0  0  0  0  0  0  0  0
    8.9379    4.8001    0.0000 H   0  0  0  0  0  0  0  0  0  0  0  0
    8.9379    1.9942    0.0000 H   0  0  0  0  0  0  0  0  0  0  0  0
    7.3179    4.8001    0.0000 H   0  0  0  0  0  0  0  0  0  0  0  0
    7.3179    1.9942    0.0000 H   0  0  0  0  0  0  0  0  0  0  0  0
    5.7369    4.7912    0.0000 H   0  0  0  0  0  0  0  0  0  0  0  0
    3.7320    5.0171    0.0000 H   0  0  0  0  0  0  0  0  0  0  0  0
    3.7320    1.7771    0.0000 H   0  0  0  0  0  0  0  0  0  0  0  0
    2.3291    2.5871    0.0000 H   0  0  0  0  0  0  0  0  0  0  0  0
    2.3100    4.9340    0.0000 H   0  0  0  0  0  0  0  0  0  0  0  0
    1.4631    4.7071    0.0000 H   0  0  0  0  0  0  0  0  0  0  0  0
    1.6900    3.8602    0.0000 H   0  0  0  0  0  0  0  0  0  0  0  0
  1 17  1  0  0  0  0
  2 19  1  0  0  0  0
  3 16  1  0  0  0  0
  3 22  1  0  0  0  0
  4  8  1  0  0  0  0
  4  9  1  0  0  0  0
  4 12  1  0  0  0  0
  5 10  1  0  0  0  0
  5 11  1  0  0  0  0
  5 14  1  0  0  0  0
  6 29  1  0  0  0  0
  6 30  1  0  0  0  0
  6 31  1  0  0  0  0
  7 26  1  0  0  0  0
  7 29  2  0  0  0  0
  8 10  1  0  0  0  0
  8 36  1  0  0  0  0
  8 37  1  0  0  0  0
  9 11  1  0  0  0  0
  9 38  1  0  0  0  0
  9 39  1  0  0  0  0
 10 40  1  0  0  0  0
 10 41  1  0  0  0  0
 11 42  1  0  0  0  0
 11 43  1  0  0  0  0
 12 13  1  0  0  0  0
 12 44  1  0  0  0  0
 12 45  1  0  0  0  0
 13 15  1  0  0  0  0
 13 46  1  0  0  0  0
 13 47  1  0  0  0  0
 14 17  2  0  0  0  0
 14 18  1  0  0  0  0
 15 16  1  0  0  0  0
 15 48  1  0  0  0  0
 15 49  1  0  0  0  0
 16 50  1  0  0  0  0
 16 51  1  0  0  0  0
 17 19  1  0  0  0  0
 18 20  2  0  0  0  0
 18 52  1  0  0  0  0
 19 21  2  0  0  0  0
 20 21  1  0  0  0  0
 20 53  1  0  0  0  0
 21 54  1  0  0  0  0
 22 24  2  0  0  0  0
 22 25  1  0  0  0  0
 23 26  1  0  0  0  0
 23 27  2  0  0  0  0
 23 28  1  0  0  0  0
 24 27  1  0  0  0  0
 24 55  1  0  0  0  0
 25 28  2  0  0  0  0
 25 56  1  0  0  0  0
 26 30  2  0  0  0  0
 27 57  1  0  0  0  0
 28 58  1  0  0  0  0
 29 33  1  0  0  0  0
 30 59  1  0  0  0  0
 31 32  2  0  0  0  0
 31 60  1  0  0  0  0
 32 34  1  0  0  0  0
 32 35  1  0  0  0  0
 33 34  2  0  0  0  0
 33 61  1  0  0  0  0
 34 62  1  0  0  0  0
 35 63  1  0  0  0  0
 35 64  1  0  0  0  0
 35 65  1  0  0  0  0
M  END
> <PUBCHEM_COMPOUND_CID>
23625244

> <PUBCHEM_COMPOUND_CANONICALIZED>
1

> <PUBCHEM_CACTVS_COMPLEXITY>
640

> <PUBCHEM_CACTVS_HBOND_ACCEPTOR>
4

> <PUBCHEM_CACTVS_HBOND_DONOR>
0

> <PUBCHEM_CACTVS_ROTATABLE_BOND>
8

> <PUBCHEM_CACTVS_SUBSKEYS>
AAADceB7oAAGAAAAAAAAAAAAAAAAAWAAAAA8eIEAAAAAAFgB9AAAHgIAAAAADA7hnyY/9p8MHACgAzZnZACCiC0xN6AJ2mA+fpiMbuLFu5vWOCjswBPI6Cew0IMOIAAAAAIAABRAAAAABAAAKAAAAAAAAA==

> <PUBCHEM_IUPAC_OPENEYE_NAME>
2-[4-[4-[4-(2,3-dichlorophenyl)piperazin-1-yl]butoxy]phenyl]-6-methyl-imidazo[1,2-a]pyridine

> <PUBCHEM_IUPAC_CAS_NAME>
2-[4-[4-[4-(2,3-dichlorophenyl)-1-piperazinyl]butoxy]phenyl]-6-methylimidazo[1,2-a]pyridine

> <PUBCHEM_IUPAC_NAME_MARKUP>
2-[4-[4-[4-(2,3-dichlorophenyl)piperazin-1-yl]butoxy]phenyl]-6-methylimidazo[1,2-a]pyridine

> <PUBCHEM_IUPAC_NAME>
2-[4-[4-[4-(2,3-dichlorophenyl)piperazin-1-yl]butoxy]phenyl]-6-methylimidazo[1,2-a]pyridine

> <PUBCHEM_IUPAC_SYSTEMATIC_NAME>
2-[4-[4-[4-[2,3-bis(chloranyl)phenyl]piperazin-1-yl]butoxy]phenyl]-6-methyl-imidazo[1,2-a]pyridine

> <PUBCHEM_IUPAC_TRADITIONAL_NAME>
2-[4-[4-[4-(2,3-dichlorophenyl)piperazino]butoxy]phenyl]-6-methyl-imidazo[1,2-a]pyridine

> <PUBCHEM_IUPAC_INCHI>
InChI=1S/C28H30Cl2N4O/c1-21-7-12-27-31-25(20-34(27)19-21)22-8-10-23(11-9-22)35-18-3-2-13-32-14-16-33(17-15-32)26-6-4-5-24(29)28(26)30/h4-12,19-20H,2-3,13-18H2,1H3

> <PUBCHEM_IUPAC_INCHIKEY>
YYWNRQZCPIMCAK-UHFFFAOYSA-N

> <PUBCHEM_XLOGP3_AA>
7.4

> <PUBCHEM_EXACT_MASS>
508.1796670

> <PUBCHEM_MOLECULAR_FORMULA>
C28H30Cl2N4O

> <PUBCHEM_MOLECULAR_WEIGHT>
509.5

> <PUBCHEM_OPENEYE_CAN_SMILES>
CC1=CN2C=C(N=C2C=C1)C3=CC=C(C=C3)OCCCCN4CCN(CC4)C5=C(C(=CC=C5)Cl)Cl

> <PUBCHEM_OPENEYE_ISO_SMILES>
CC1=CN2C=C(N=C2C=C1)C3=CC=C(C=C3)OCCCCN4CCN(CC4)C5=C(C(=CC=C5)Cl)Cl

> <PUBCHEM_CACTVS_TPSA>
33

> <PUBCHEM_MONOISOTOPIC_WEIGHT>
508.1796670

> <PUBCHEM_TOTAL_CHARGE>
0

> <PUBCHEM_HEAVY_ATOM_COUNT>
35

> <PUBCHEM_ATOM_DEF_STEREO_COUNT>
0

> <PUBCHEM_ATOM_UDEF_STEREO_COUNT>
0

> <PUBCHEM_BOND_DEF_STEREO_COUNT>
0

> <PUBCHEM_BOND_UDEF_STEREO_COUNT>
0

> <PUBCHEM_ISOTOPIC_ATOM_COUNT>
0

> <PUBCHEM_COMPONENT_COUNT>
1

> <PUBCHEM_CACTVS_TAUTO_COUNT>
-1

> <PUBCHEM_COORDINATE_TYPE>
1
5
255

> <PUBCHEM_BONDANNOTATIONS>
14  17  8
14  18  8
17  19  8
18  20  8
19  21  8
20  21  8
22  24  8
22  25  8
23  27  8
23  28  8
24  27  8
25  28  8
26  30  8
29  33  8
31  32  8
32  34  8
33  34  8
6  29  8
6  30  8
6  31  8
7  26  8
7  29  8

$$$$
