155540851
  -OEChem-09292322092D

 54 57  0     0  0  0  0  0  0999 V2000
    4.5274    2.4846    0.0000 S   0  0  0  0  0  0  0  0  0  0  0  0
   10.0480   -0.6496    0.0000 O   0  0  0  0  0  0  0  0  0  0  0  0
    5.3923   -0.7864    0.0000 N   0  0  0  0  0  0  0  0  0  0  0  0
    6.3518    2.1291    0.0000 N   0  0  0  0  0  0  0  0  0  0  0  0
    6.7328    0.3698    0.0000 N   0  0  0  0  0  0  0  0  0  0  0  0
    8.7040    0.8315    0.0000 C   0  0  0  0  0  0  0  0  0  0  0  0
    9.6814    1.0432    0.0000 C   0  0  0  0  0  0  0  0  0  0  0  0
    8.3987   -0.1207    0.0000 C   0  0  0  0  0  0  0  0  0  0  0  0
    8.0321    1.5721    0.0000 C   0  0  0  0  0  0  0  0  0  0  0  0
    4.0274    0.9458    0.0000 C   0  0  0  0  0  0  0  0  0  0  0  0
    3.3424    0.1610    0.0000 C   0  0  0  0  0  0  0  0  0  0  0  0
    5.0274    0.9458    0.0000 C   0  0  0  0  0  0  0  0  0  0  0  0
    3.7183    1.8968    0.0000 C   0  0  0  0  0  0  0  0  0  0  0  0
    2.3219    0.3698    0.0000 C   0  0  0  0  0  0  0  0  0  0  0  0
    2.7029    2.1291    0.0000 C   0  0  0  0  0  0  0  0  0  0  0  0
    2.0000    1.3604    0.0000 C   0  0  0  0  0  0  0  0  0  0  0  0
   10.3534    0.3026    0.0000 C   0  0  0  0  0  0  0  0  0  0  0  0
    9.0707   -0.8613    0.0000 C   0  0  0  0  0  0  0  0  0  0  0  0
    7.0547    1.3604    0.0000 C   0  0  0  0  0  0  0  0  0  0  0  0
    5.3364    1.8968    0.0000 C   0  0  0  0  0  0  0  0  0  0  0  0
    5.7123    0.1610    0.0000 C   0  0  0  0  0  0  0  0  0  0  0  0
    6.0528   -1.5372    0.0000 C   0  0  0  0  0  0  0  0  0  0  0  0
    4.4118   -0.9830    0.0000 C   0  0  0  0  0  0  0  0  0  0  0  0
    5.7328   -2.4846    0.0000 C   0  0  0  0  0  0  0  0  0  0  0  0
    4.0919   -1.9304    0.0000 C   0  0  0  0  0  0  0  0  0  0  0  0
    8.8934    1.4219    0.0000 H   0  0  0  0  0  0  0  0  0  0  0  0
   10.2059    1.3738    0.0000 H   0  0  0  0  0  0  0  0  0  0  0  0
    9.4469    1.6172    0.0000 H   0  0  0  0  0  0  0  0  0  0  0  0
    7.8502    0.1682    0.0000 H   0  0  0  0  0  0  0  0  0  0  0  0
    8.0189   -0.6108    0.0000 H   0  0  0  0  0  0  0  0  0  0  0  0
    8.5566    1.9027    0.0000 H   0  0  0  0  0  0  0  0  0  0  0  0
    7.7976    2.1460    0.0000 H   0  0  0  0  0  0  0  0  0  0  0  0
    3.1160   -0.4162    0.0000 H   0  0  0  0  0  0  0  0  0  0  0  0
    3.8724   -0.1607    0.0000 H   0  0  0  0  0  0  0  0  0  0  0  0
    1.7081    0.2819    0.0000 H   0  0  0  0  0  0  0  0  0  0  0  0
    2.3034   -0.2500    0.0000 H   0  0  0  0  0  0  0  0  0  0  0  0
    2.9426    2.7009    0.0000 H   0  0  0  0  0  0  0  0  0  0  0  0
    2.1806    2.4630    0.0000 H   0  0  0  0  0  0  0  0  0  0  0  0
    1.6208    1.8509    0.0000 H   0  0  0  0  0  0  0  0  0  0  0  0
    1.4518    1.0707    0.0000 H   0  0  0  0  0  0  0  0  0  0  0  0
   10.9019    0.0137    0.0000 H   0  0  0  0  0  0  0  0  0  0  0  0
   10.7332    0.7927    0.0000 H   0  0  0  0  0  0  0  0  0  0  0  0
    8.5462   -1.1918    0.0000 H   0  0  0  0  0  0  0  0  0  0  0  0
    9.3052   -1.4352    0.0000 H   0  0  0  0  0  0  0  0  0  0  0  0
    6.5968   -1.8346    0.0000 H   0  0  0  0  0  0  0  0  0  0  0  0
    6.4402   -1.0531    0.0000 H   0  0  0  0  0  0  0  0  0  0  0  0
    4.3974   -0.3631    0.0000 H   0  0  0  0  0  0  0  0  0  0  0  0
    3.7989   -0.8896    0.0000 H   0  0  0  0  0  0  0  0  0  0  0  0
    5.1454   -2.2862    0.0000 H   0  0  0  0  0  0  0  0  0  0  0  0
    5.5344   -3.0720    0.0000 H   0  0  0  0  0  0  0  0  0  0  0  0
    6.3202   -2.6830    0.0000 H   0  0  0  0  0  0  0  0  0  0  0  0
    3.5045   -1.7320    0.0000 H   0  0  0  0  0  0  0  0  0  0  0  0
    3.8935   -2.5178    0.0000 H   0  0  0  0  0  0  0  0  0  0  0  0
    4.6793   -2.1288    0.0000 H   0  0  0  0  0  0  0  0  0  0  0  0
  1 13  1  0  0  0  0
  1 20  1  0  0  0  0
  2 17  1  0  0  0  0
  2 18  1  0  0  0  0
  3 21  1  0  0  0  0
  3 22  1  0  0  0  0
  3 23  1  0  0  0  0
  4 19  1  0  0  0  0
  4 20  2  0  0  0  0
  5 19  2  0  0  0  0
  5 21  1  0  0  0  0
  6  7  1  0  0  0  0
  6  8  1  0  0  0  0
  6  9  1  0  0  0  0
  6 26  1  0  0  0  0
  7 17  1  0  0  0  0
  7 27  1  0  0  0  0
  7 28  1  0  0  0  0
  8 18  1  0  0  0  0
  8 29  1  0  0  0  0
  8 30  1  0  0  0  0
  9 19  1  0  0  0  0
  9 31  1  0  0  0  0
  9 32  1  0  0  0  0
 10 11  1  0  0  0  0
 10 12  1  0  0  0  0
 10 13  2  0  0  0  0
 11 14  1  0  0  0  0
 11 33  1  0  0  0  0
 11 34  1  0  0  0  0
 12 20  1  0  0  0  0
 12 21  2  0  0  0  0
 13 15  1  0  0  0  0
 14 16  1  0  0  0  0
 14 35  1  0  0  0  0
 14 36  1  0  0  0  0
 15 16  1  0  0  0  0
 15 37  1  0  0  0  0
 15 38  1  0  0  0  0
 16 39  1  0  0  0  0
 16 40  1  0  0  0  0
 17 41  1  0  0  0  0
 17 42  1  0  0  0  0
 18 43  1  0  0  0  0
 18 44  1  0  0  0  0
 22 24  1  0  0  0  0
 22 45  1  0  0  0  0
 22 46  1  0  0  0  0
 23 25  1  0  0  0  0
 23 47  1  0  0  0  0
 23 48  1  0  0  0  0
 24 49  1  0  0  0  0
 24 50  1  0  0  0  0
 24 51  1  0  0  0  0
 25 52  1  0  0  0  0
 25 53  1  0  0  0  0
 25 54  1  0  0  0  0
M  END
> <PUBCHEM_COMPOUND_CID>
155540851

> <PUBCHEM_COMPOUND_CANONICALIZED>
1

> <PUBCHEM_CACTVS_COMPLEXITY>
427

> <PUBCHEM_CACTVS_HBOND_ACCEPTOR>
5

> <PUBCHEM_CACTVS_HBOND_DONOR>
0

> <PUBCHEM_CACTVS_ROTATABLE_BOND>
5

> <PUBCHEM_CACTVS_SUBSKEYS>
AAADceB7IABAAAAAAAAAAAAAAAAAASAAAAA8SIAAAAAAAFgB+AAAHgQAAAAADQDh2wYDsdcIFAikAgJgZACD0KlhCLgBmDA4RJiIKCLg2NGGBAxsgALoyCeQkMIOgAAAAAAAAAAAAAAAAAgAAAAAAAAAAA==

> <PUBCHEM_IUPAC_OPENEYE_NAME>
N,N-diethyl-2-(tetrahydropyran-4-ylmethyl)-5,6,7,8-tetrahydrobenzothiopheno[2,3-d]pyrimidin-4-amine

> <PUBCHEM_IUPAC_CAS_NAME>
N,N-diethyl-2-(4-oxanylmethyl)-5,6,7,8-tetrahydro-[1]benzothiolo[2,3-d]pyrimidin-4-amine

> <PUBCHEM_IUPAC_NAME_MARKUP>
<I>N</I>,<I>N</I>-diethyl-2-(oxan-4-ylmethyl)-5,6,7,8-tetrahydro-[1]benzothiolo[2,3-d]pyrimidin-4-amine

> <PUBCHEM_IUPAC_NAME>
N,N-diethyl-2-(oxan-4-ylmethyl)-5,6,7,8-tetrahydro-[1]benzothiolo[2,3-d]pyrimidin-4-amine

> <PUBCHEM_IUPAC_SYSTEMATIC_NAME>
N,N-diethyl-2-(oxan-4-ylmethyl)-5,6,7,8-tetrahydro-[1]benzothiolo[2,3-d]pyrimidin-4-amine

> <PUBCHEM_IUPAC_TRADITIONAL_NAME>
diethyl-[2-(tetrahydropyran-4-ylmethyl)-5,6,7,8-tetrahydrobenzothiopheno[2,3-d]pyrimidin-4-yl]amine

> <PUBCHEM_IUPAC_INCHI>
InChI=1S/C20H29N3OS/c1-3-23(4-2)19-18-15-7-5-6-8-16(15)25-20(18)22-17(21-19)13-14-9-11-24-12-10-14/h14H,3-13H2,1-2H3

> <PUBCHEM_IUPAC_INCHIKEY>
RUAZAZLGWUHGMV-UHFFFAOYSA-N

> <PUBCHEM_XLOGP3_AA>
4.9

> <PUBCHEM_EXACT_MASS>
359.20313373

> <PUBCHEM_MOLECULAR_FORMULA>
C20H29N3OS

> <PUBCHEM_MOLECULAR_WEIGHT>
359.5

> <PUBCHEM_OPENEYE_CAN_SMILES>
CCN(CC)C1=C2C3=C(CCCC3)SC2=NC(=N1)CC4CCOCC4

> <PUBCHEM_OPENEYE_ISO_SMILES>
CCN(CC)C1=C2C3=C(CCCC3)SC2=NC(=N1)CC4CCOCC4

> <PUBCHEM_CACTVS_TPSA>
66.5

> <PUBCHEM_MONOISOTOPIC_WEIGHT>
359.20313373

> <PUBCHEM_TOTAL_CHARGE>
0

> <PUBCHEM_HEAVY_ATOM_COUNT>
25

> <PUBCHEM_ATOM_DEF_STEREO_COUNT>
0

> <PUBCHEM_ATOM_UDEF_STEREO_COUNT>
0

> <PUBCHEM_BOND_DEF_STEREO_COUNT>
0

> <PUBCHEM_BOND_UDEF_STEREO_COUNT>
0

> <PUBCHEM_ISOTOPIC_ATOM_COUNT>
0

> <PUBCHEM_COMPONENT_COUNT>
1

> <PUBCHEM_CACTVS_TAUTO_COUNT>
-1

> <PUBCHEM_COORDINATE_TYPE>
1
5
255

> <PUBCHEM_BONDANNOTATIONS>
1  13  8
1  20  8
10  12  8
10  13  8
12  20  8
12  21  8
4  19  8
4  20  8
5  19  8
5  21  8

$$$$
