44372199
  -OEChem-09292322102D

 48 51  0     1  0  0  0  0  0999 V2000
    6.1992    1.6964    0.0000 S   0  0  0  0  0  0  0  0  0  0  0  0
    3.4045   -0.4576    0.0000 O   0  0  0  0  0  0  0  0  0  0  0  0
    7.1325   -0.0370    0.0000 O   0  0  0  0  0  0  0  0  0  0  0  0
    2.6400    0.8131    0.0000 O   0  0  0  0  0  0  0  0  0  0  0  0
    5.9736   -1.3242    0.0000 N   0  0  0  0  0  0  0  0  0  0  0  0
    4.6645    0.8025    0.0000 N   0  0  0  0  0  0  0  0  0  0  0  0
    8.6459   -1.4764    0.0000 N   0  0  0  0  0  0  0  0  0  0  0  0
    2.6200    2.5450    0.0000 N   0  0  0  0  0  0  0  0  0  0  0  0
    5.1645   -0.7364    0.0000 C   0  0  1  0  0  0  0  0  0  0  0  0
    5.9736   -0.1486    0.0000 C   0  0  0  0  0  0  0  0  0  0  0  0
    4.3555   -1.3242    0.0000 C   0  0  0  0  0  0  0  0  0  0  0  0
    5.6645    0.8025    0.0000 C   0  0  1  0  0  0  0  0  0  0  0  0
    4.3555   -0.1486    0.0000 C   0  0  0  0  0  0  0  0  0  0  0  0
    4.6645   -2.2752    0.0000 C   0  0  0  0  0  0  0  0  0  0  0  0
    5.6645   -2.2752    0.0000 C   0  0  0  0  0  0  0  0  0  0  0  0
    4.1299    1.6964    0.0000 C   0  0  3  0  0  0  0  0  0  0  0  0
    6.9246   -1.0151    0.0000 C   0  0  0  0  0  0  0  0  0  0  0  0
    4.6437    2.6025    0.0000 C   0  0  0  0  0  0  0  0  0  0  0  0
    7.6678   -1.6843    0.0000 C   0  0  2  0  0  0  0  0  0  0  0  0
    5.6854    2.6025    0.0000 C   0  0  0  0  0  0  0  0  0  0  0  0
    7.5632   -2.6788    0.0000 C   0  0  0  0  0  0  0  0  0  0  0  0
    3.1299    1.6848    0.0000 C   0  0  0  0  0  0  0  0  0  0  0  0
    8.4768   -3.0855    0.0000 C   0  0  0  0  0  0  0  0  0  0  0  0
    9.1459   -2.3424    0.0000 C   0  0  0  0  0  0  0  0  0  0  0  0
    6.2836   -0.6855    0.0000 H   0  0  0  0  0  0  0  0  0  0  0  0
    6.5400    0.1036    0.0000 H   0  0  0  0  0  0  0  0  0  0  0  0
    4.0455   -0.7872    0.0000 H   0  0  0  0  0  0  0  0  0  0  0  0
    3.7891   -1.5763    0.0000 H   0  0  0  0  0  0  0  0  0  0  0  0
    6.5092    0.7071    0.0000 H   0  0  0  0  0  0  0  0  0  0  0  0
    4.0581   -2.4041    0.0000 H   0  0  0  0  0  0  0  0  0  0  0  0
    4.7293   -2.8918    0.0000 H   0  0  0  0  0  0  0  0  0  0  0  0
    5.5997   -2.8918    0.0000 H   0  0  0  0  0  0  0  0  0  0  0  0
    6.2710   -2.4041    0.0000 H   0  0  0  0  0  0  0  0  0  0  0  0
    3.8271    1.1554    0.0000 H   0  0  0  0  0  0  0  0  0  0  0  0
    4.7498    3.2133    0.0000 H   0  0  0  0  0  0  0  0  0  0  0  0
    4.0600    2.8115    0.0000 H   0  0  0  0  0  0  0  0  0  0  0  0
    7.8282   -1.0854    0.0000 H   0  0  0  0  0  0  0  0  0  0  0  0
    6.2690    2.8115    0.0000 H   0  0  0  0  0  0  0  0  0  0  0  0
    5.5793    3.2133    0.0000 H   0  0  0  0  0  0  0  0  0  0  0  0
    6.9568   -2.5499    0.0000 H   0  0  0  0  0  0  0  0  0  0  0  0
    7.3716   -3.2684    0.0000 H   0  0  0  0  0  0  0  0  0  0  0  0
    8.8981   -0.9100    0.0000 H   0  0  0  0  0  0  0  0  0  0  0  0
    8.1668   -3.6225    0.0000 H   0  0  0  0  0  0  0  0  0  0  0  0
    8.9784   -3.4500    0.0000 H   0  0  0  0  0  0  0  0  0  0  0  0
    9.5608   -2.8031    0.0000 H   0  0  0  0  0  0  0  0  0  0  0  0
    9.6475   -1.9780    0.0000 H   0  0  0  0  0  0  0  0  0  0  0  0
    2.0000    2.5379    0.0000 H   0  0  0  0  0  0  0  0  0  0  0  0
    2.9237    3.0855    0.0000 H   0  0  0  0  0  0  0  0  0  0  0  0
  1 12  1  0  0  0  0
  1 20  1  0  0  0  0
  2 13  2  0  0  0  0
  3 17  2  0  0  0  0
  4 22  2  0  0  0  0
  9  5  1  1  0  0  0
  5 15  1  0  0  0  0
  5 17  1  0  0  0  0
  6 12  1  0  0  0  0
  6 13  1  0  0  0  0
  6 16  1  0  0  0  0
  7 19  1  0  0  0  0
  7 24  1  0  0  0  0
  7 42  1  0  0  0  0
  8 22  1  0  0  0  0
  8 47  1  0  0  0  0
  8 48  1  0  0  0  0
  9 10  1  0  0  0  0
  9 11  1  0  0  0  0
  9 13  1  0  0  0  0
 10 12  1  0  0  0  0
 10 25  1  0  0  0  0
 10 26  1  0  0  0  0
 11 14  1  0  0  0  0
 11 27  1  0  0  0  0
 11 28  1  0  0  0  0
 12 29  1  1  0  0  0
 14 15  1  0  0  0  0
 14 30  1  0  0  0  0
 14 31  1  0  0  0  0
 15 32  1  0  0  0  0
 15 33  1  0  0  0  0
 16 18  1  0  0  0  0
 16 22  1  0  0  0  0
 16 34  1  0  0  0  0
 19 17  1  1  0  0  0
 18 20  1  0  0  0  0
 18 35  1  0  0  0  0
 18 36  1  0  0  0  0
 19 21  1  0  0  0  0
 19 37  1  0  0  0  0
 20 38  1  0  0  0  0
 20 39  1  0  0  0  0
 21 23  1  0  0  0  0
 21 40  1  0  0  0  0
 21 41  1  0  0  0  0
 23 24  1  0  0  0  0
 23 43  1  0  0  0  0
 23 44  1  0  0  0  0
 24 45  1  0  0  0  0
 24 46  1  0  0  0  0
M  END
> <PUBCHEM_COMPOUND_CID>
44372199

> <PUBCHEM_COMPOUND_CANONICALIZED>
1

> <PUBCHEM_CACTVS_COMPLEXITY>
586

> <PUBCHEM_CACTVS_HBOND_ACCEPTOR>
5

> <PUBCHEM_CACTVS_HBOND_DONOR>
2

> <PUBCHEM_CACTVS_ROTATABLE_BOND>
2

> <PUBCHEM_CACTVS_SUBSKEYS>
AAADceB7sABAAAAAAAAAAAAAAAAAAWLFgAAsAAAAAAAAAFgAAAAAHgQQAAAADKjFwASAAAPAAAgIAAEQEAAAAABAABAAAIGIAAAAQBIgwCAUAAAAFgCgAAEcAQAOAAAAAAAAAAAAAAAAAAAAAAAAAAAAAA==

> <PUBCHEM_IUPAC_OPENEYE_NAME>
(7R,8aR)-6-oxo-1'-[(2S)-pyrrolidine-2-carbonyl]spiro[3,4,8,8a-tetrahydro-2H-pyrrolo[2,1-b][1,3]thiazine-7,2'-pyrrolidine]-4-carboxamide

> <PUBCHEM_IUPAC_CAS_NAME>
(7R,8aR)-6-oxo-1'-[oxo-[(2S)-2-pyrrolidinyl]methyl]-4-spiro[3,4,8,8a-tetrahydro-2H-pyrrolo[2,1-b][1,3]thiazine-7,2'-pyrrolidine]carboxamide

> <PUBCHEM_IUPAC_NAME_MARKUP>
(7<I>R</I>,8<I>a</I><I>R</I>)-6-oxo-1&apos;-[(2<I>S</I>)-pyrrolidine-2-carbonyl]spiro[3,4,8,8<I>a</I>-tetrahydro-2<I>H</I>-pyrrolo[2,1-b][1,3]thiazine-7,2&apos;-pyrrolidine]-4-carboxamide

> <PUBCHEM_IUPAC_NAME>
(7R,8aR)-6-oxo-1'-[(2S)-pyrrolidine-2-carbonyl]spiro[3,4,8,8a-tetrahydro-2H-pyrrolo[2,1-b][1,3]thiazine-7,2'-pyrrolidine]-4-carboxamide

> <PUBCHEM_IUPAC_SYSTEMATIC_NAME>
(7R,8aR)-6-oxidanylidene-1'-[(2S)-pyrrolidin-2-yl]carbonyl-spiro[3,4,8,8a-tetrahydro-2H-pyrrolo[2,1-b][1,3]thiazine-7,2'-pyrrolidine]-4-carboxamide

> <PUBCHEM_IUPAC_TRADITIONAL_NAME>
(7R,8aR)-6-keto-1'-[(2S)-prolyl]spiro[3,4,8,8a-tetrahydro-2H-pyrrolo[2,1-b][1,3]thiazine-7,2'-pyrrolidine]-4-carboxamide

> <PUBCHEM_IUPAC_INCHI>
InChI=1S/C16H24N4O3S/c17-13(21)11-4-8-24-12-9-16(15(23)20(11)12)5-2-7-19(16)14(22)10-3-1-6-18-10/h10-12,18H,1-9H2,(H2,17,21)/t10-,11?,12+,16+/m0/s1

> <PUBCHEM_IUPAC_INCHIKEY>
WAMSRMUXQPANBA-UTEDSILMSA-N

> <PUBCHEM_XLOGP3_AA>
-0.2

> <PUBCHEM_EXACT_MASS>
352.15691181

> <PUBCHEM_MOLECULAR_FORMULA>
C16H24N4O3S

> <PUBCHEM_MOLECULAR_WEIGHT>
352.5

> <PUBCHEM_OPENEYE_CAN_SMILES>
C1CC(NC1)C(=O)N2CCCC23CC4N(C3=O)C(CCS4)C(=O)N

> <PUBCHEM_OPENEYE_ISO_SMILES>
C1C[C@H](NC1)C(=O)N2CCC[C@]23C[C@@H]4N(C3=O)C(CCS4)C(=O)N

> <PUBCHEM_CACTVS_TPSA>
121

> <PUBCHEM_MONOISOTOPIC_WEIGHT>
352.15691181

> <PUBCHEM_TOTAL_CHARGE>
0

> <PUBCHEM_HEAVY_ATOM_COUNT>
24

> <PUBCHEM_ATOM_DEF_STEREO_COUNT>
3

> <PUBCHEM_ATOM_UDEF_STEREO_COUNT>
1

> <PUBCHEM_BOND_DEF_STEREO_COUNT>
0

> <PUBCHEM_BOND_UDEF_STEREO_COUNT>
0

> <PUBCHEM_ISOTOPIC_ATOM_COUNT>
0

> <PUBCHEM_COMPONENT_COUNT>
1

> <PUBCHEM_CACTVS_TAUTO_COUNT>
-1

> <PUBCHEM_COORDINATE_TYPE>
1
5
255

> <PUBCHEM_BONDANNOTATIONS>
12  29  5
16  22  3
19  17  5
9  5  5

$$$$
