9952218
  -OEChem-09292322512D

 50 53  0     0  0  0  0  0  0999 V2000
   11.1241   -4.0252    0.0000 Cl  0  0  0  0  0  0  0  0  0  0  0  0
    2.8660    4.5633    0.0000 F   0  0  0  0  0  0  0  0  0  0  0  0
    4.3211    0.0637    0.0000 O   0  0  0  0  0  0  0  0  0  0  0  0
    6.2781   -0.3487    0.0000 N   0  0  0  0  0  0  0  0  0  0  0  0
    6.8994   -2.2498    0.0000 N   0  0  0  0  0  0  0  0  0  0  0  0
    4.6783    1.7585    0.0000 N   0  0  0  0  0  0  0  0  0  0  0  0
    5.6103   -1.0930    0.0000 C   0  0  0  0  0  0  0  0  0  0  0  0
    7.2566   -0.5550    0.0000 C   0  0  0  0  0  0  0  0  0  0  0  0
    5.9209   -2.0436    0.0000 C   0  0  0  0  0  0  0  0  0  0  0  0
    7.5673   -1.5055    0.0000 C   0  0  0  0  0  0  0  0  0  0  0  0
    5.9674    0.6018    0.0000 C   0  0  0  0  0  0  0  0  0  0  0  0
    7.2101   -3.2003    0.0000 C   0  0  0  0  0  0  0  0  0  0  0  0
    5.2619    2.5633    0.0000 C   0  0  0  0  0  0  0  0  0  0  0  0
    4.9889    0.8080    0.0000 C   0  0  0  0  0  0  0  0  0  0  0  0
    4.6783    3.3680    0.0000 C   0  0  0  0  0  0  0  0  0  0  0  0
    3.7320    2.0633    0.0000 C   0  0  0  0  0  0  0  0  0  0  0  0
    3.7320    3.0633    0.0000 C   0  0  0  0  0  0  0  0  0  0  0  0
    8.1886   -3.4065    0.0000 C   0  0  0  0  0  0  0  0  0  0  0  0
    2.8660    1.5633    0.0000 C   0  0  0  0  0  0  0  0  0  0  0  0
    2.8660    3.5633    0.0000 C   0  0  0  0  0  0  0  0  0  0  0  0
    2.0000    2.0633    0.0000 C   0  0  0  0  0  0  0  0  0  0  0  0
    2.0000    3.0633    0.0000 C   0  0  0  0  0  0  0  0  0  0  0  0
    8.4993   -4.3570    0.0000 C   0  0  0  0  0  0  0  0  0  0  0  0
    8.8564   -2.6622    0.0000 C   0  0  0  0  0  0  0  0  0  0  0  0
    9.4778   -4.5633    0.0000 C   0  0  0  0  0  0  0  0  0  0  0  0
    9.8349   -2.8684    0.0000 C   0  0  0  0  0  0  0  0  0  0  0  0
   10.1456   -3.8190    0.0000 C   0  0  0  0  0  0  0  0  0  0  0  0
    5.2277   -0.6051    0.0000 H   0  0  0  0  0  0  0  0  0  0  0  0
    5.0633   -1.3851    0.0000 H   0  0  0  0  0  0  0  0  0  0  0  0
    7.8704   -0.4676    0.0000 H   0  0  0  0  0  0  0  0  0  0  0  0
    7.2772    0.0647    0.0000 H   0  0  0  0  0  0  0  0  0  0  0  0
    5.3071   -2.1309    0.0000 H   0  0  0  0  0  0  0  0  0  0  0  0
    5.9004   -2.6632    0.0000 H   0  0  0  0  0  0  0  0  0  0  0  0
    7.9498   -1.9934    0.0000 H   0  0  0  0  0  0  0  0  0  0  0  0
    8.1142   -1.2135    0.0000 H   0  0  0  0  0  0  0  0  0  0  0  0
    6.5812    0.6891    0.0000 H   0  0  0  0  0  0  0  0  0  0  0  0
    5.9880    1.2214    0.0000 H   0  0  0  0  0  0  0  0  0  0  0  0
    6.5963   -3.2876    0.0000 H   0  0  0  0  0  0  0  0  0  0  0  0
    7.1895   -3.8200    0.0000 H   0  0  0  0  0  0  0  0  0  0  0  0
    5.7227    2.1485    0.0000 H   0  0  0  0  0  0  0  0  0  0  0  0
    5.7227    2.9780    0.0000 H   0  0  0  0  0  0  0  0  0  0  0  0
    5.2156    3.6772    0.0000 H   0  0  0  0  0  0  0  0  0  0  0  0
    4.4272    3.9349    0.0000 H   0  0  0  0  0  0  0  0  0  0  0  0
    2.8660    0.9433    0.0000 H   0  0  0  0  0  0  0  0  0  0  0  0
    1.4631    1.7533    0.0000 H   0  0  0  0  0  0  0  0  0  0  0  0
    1.4631    3.3733    0.0000 H   0  0  0  0  0  0  0  0  0  0  0  0
    8.0852   -4.8185    0.0000 H   0  0  0  0  0  0  0  0  0  0  0  0
    8.6638   -2.0729    0.0000 H   0  0  0  0  0  0  0  0  0  0  0  0
    9.6704   -5.1526    0.0000 H   0  0  0  0  0  0  0  0  0  0  0  0
   10.2490   -2.4070    0.0000 H   0  0  0  0  0  0  0  0  0  0  0  0
  1 27  1  0  0  0  0
  2 20  1  0  0  0  0
  3 14  2  0  0  0  0
  4  7  1  0  0  0  0
  4  8  1  0  0  0  0
  4 11  1  0  0  0  0
  5  9  1  0  0  0  0
  5 10  1  0  0  0  0
  5 12  1  0  0  0  0
  6 13  1  0  0  0  0
  6 14  1  0  0  0  0
  6 16  1  0  0  0  0
  7  9  1  0  0  0  0
  7 28  1  0  0  0  0
  7 29  1  0  0  0  0
  8 10  1  0  0  0  0
  8 30  1  0  0  0  0
  8 31  1  0  0  0  0
  9 32  1  0  0  0  0
  9 33  1  0  0  0  0
 10 34  1  0  0  0  0
 10 35  1  0  0  0  0
 11 14  1  0  0  0  0
 11 36  1  0  0  0  0
 11 37  1  0  0  0  0
 12 18  1  0  0  0  0
 12 38  1  0  0  0  0
 12 39  1  0  0  0  0
 13 15  1  0  0  0  0
 13 40  1  0  0  0  0
 13 41  1  0  0  0  0
 15 17  1  0  0  0  0
 15 42  1  0  0  0  0
 15 43  1  0  0  0  0
 16 17  2  0  0  0  0
 16 19  1  0  0  0  0
 17 20  1  0  0  0  0
 18 23  2  0  0  0  0
 18 24  1  0  0  0  0
 19 21  2  0  0  0  0
 19 44  1  0  0  0  0
 20 22  2  0  0  0  0
 21 22  1  0  0  0  0
 21 45  1  0  0  0  0
 22 46  1  0  0  0  0
 23 25  1  0  0  0  0
 23 47  1  0  0  0  0
 24 26  2  0  0  0  0
 24 48  1  0  0  0  0
 25 27  2  0  0  0  0
 25 49  1  0  0  0  0
 26 27  1  0  0  0  0
 26 50  1  0  0  0  0
M  END
> <PUBCHEM_COMPOUND_CID>
9952218

> <PUBCHEM_COMPOUND_CANONICALIZED>
1

> <PUBCHEM_CACTVS_COMPLEXITY>
506

> <PUBCHEM_CACTVS_HBOND_ACCEPTOR>
4

> <PUBCHEM_CACTVS_HBOND_DONOR>
0

> <PUBCHEM_CACTVS_ROTATABLE_BOND>
4

> <PUBCHEM_CACTVS_SUBSKEYS>
AAADceB7IQAEAAAAAAAAAAAAAAAAAWAAAAA8YIAAAAAAAFgBQAAAHwIAAAAADArBmCwwwIMAAACIAiVSUACCAAAhBwAIiACIZogIYCLBk7GUIAhghgDIyAcQgIAOBAAAAAACAAAIAAAAAAQAAAAAAAAAAA==

> <PUBCHEM_IUPAC_OPENEYE_NAME>
2-[4-[(4-chlorophenyl)methyl]piperazin-1-yl]-1-(4-fluoroindolin-1-yl)ethanone

> <PUBCHEM_IUPAC_CAS_NAME>
2-[4-[(4-chlorophenyl)methyl]-1-piperazinyl]-1-(4-fluoro-2,3-dihydroindol-1-yl)ethanone

> <PUBCHEM_IUPAC_NAME_MARKUP>
2-[4-[(4-chlorophenyl)methyl]piperazin-1-yl]-1-(4-fluoro-2,3-dihydroindol-1-yl)ethanone

> <PUBCHEM_IUPAC_NAME>
2-[4-[(4-chlorophenyl)methyl]piperazin-1-yl]-1-(4-fluoro-2,3-dihydroindol-1-yl)ethanone

> <PUBCHEM_IUPAC_SYSTEMATIC_NAME>
2-[4-[(4-chlorophenyl)methyl]piperazin-1-yl]-1-(4-fluoranyl-2,3-dihydroindol-1-yl)ethanone

> <PUBCHEM_IUPAC_TRADITIONAL_NAME>
2-[4-(4-chlorobenzyl)piperazino]-1-(4-fluoroindolin-1-yl)ethanone

> <PUBCHEM_IUPAC_INCHI>
InChI=1S/C21H23ClFN3O/c22-17-6-4-16(5-7-17)14-24-10-12-25(13-11-24)15-21(27)26-9-8-18-19(23)2-1-3-20(18)26/h1-7H,8-15H2

> <PUBCHEM_IUPAC_INCHIKEY>
XAJRENDYYQHIBY-UHFFFAOYSA-N

> <PUBCHEM_XLOGP3_AA>
3.4

> <PUBCHEM_EXACT_MASS>
387.1513682

> <PUBCHEM_MOLECULAR_FORMULA>
C21H23ClFN3O

> <PUBCHEM_MOLECULAR_WEIGHT>
387.9

> <PUBCHEM_OPENEYE_CAN_SMILES>
C1CN(C2=C1C(=CC=C2)F)C(=O)CN3CCN(CC3)CC4=CC=C(C=C4)Cl

> <PUBCHEM_OPENEYE_ISO_SMILES>
C1CN(C2=C1C(=CC=C2)F)C(=O)CN3CCN(CC3)CC4=CC=C(C=C4)Cl

> <PUBCHEM_CACTVS_TPSA>
26.8

> <PUBCHEM_MONOISOTOPIC_WEIGHT>
387.1513682

> <PUBCHEM_TOTAL_CHARGE>
0

> <PUBCHEM_HEAVY_ATOM_COUNT>
27

> <PUBCHEM_ATOM_DEF_STEREO_COUNT>
0

> <PUBCHEM_ATOM_UDEF_STEREO_COUNT>
0

> <PUBCHEM_BOND_DEF_STEREO_COUNT>
0

> <PUBCHEM_BOND_UDEF_STEREO_COUNT>
0

> <PUBCHEM_ISOTOPIC_ATOM_COUNT>
0

> <PUBCHEM_COMPONENT_COUNT>
1

> <PUBCHEM_CACTVS_TAUTO_COUNT>
-1

> <PUBCHEM_COORDINATE_TYPE>
1
5
255

> <PUBCHEM_BONDANNOTATIONS>
16  17  8
16  19  8
17  20  8
18  23  8
18  24  8
19  21  8
20  22  8
21  22  8
23  25  8
24  26  8
25  27  8
26  27  8

$$$$
