45482169
  -OEChem-09292322292D

 69 72  0     0  0  0  0  0  0999 V2000
    2.0000   -4.8512    0.0000 Cl  0  0  0  0  0  0  0  0  0  0  0  0
    2.0000   -6.8512    0.0000 Cl  0  0  0  0  0  0  0  0  0  0  0  0
    7.1962    2.1488    0.0000 O   0  0  0  0  0  0  0  0  0  0  0  0
   14.2107    6.3761    0.0000 O   0  5  0  0  0  0  0  0  0  0  0  0
   14.0297    4.6535    0.0000 O   0  0  0  0  0  0  0  0  0  0  0  0
    3.7320   -1.8512    0.0000 N   0  0  0  0  0  0  0  0  0  0  0  0
    3.7320   -3.8512    0.0000 N   0  0  0  0  0  0  0  0  0  0  0  0
    5.4641    2.1488    0.0000 N   0  0  0  0  0  0  0  0  0  0  0  0
    9.6448    5.9852    0.0000 N   0  0  0  0  0  0  0  0  0  0  0  0
    8.1667    6.6433    0.0000 N   0  0  0  0  0  0  0  0  0  0  0  0
    9.1448    6.8512    0.0000 N   0  0  0  0  0  0  0  0  0  0  0  0
   13.6229    5.5671    0.0000 N   0  3  0  0  0  0  0  0  0  0  0  0
    2.8660   -2.3512    0.0000 C   0  0  0  0  0  0  0  0  0  0  0  0
    4.5981   -2.3512    0.0000 C   0  0  0  0  0  0  0  0  0  0  0  0
    2.8660   -3.3512    0.0000 C   0  0  0  0  0  0  0  0  0  0  0  0
    4.5981   -3.3512    0.0000 C   0  0  0  0  0  0  0  0  0  0  0  0
    3.7320   -0.8512    0.0000 C   0  0  0  0  0  0  0  0  0  0  0  0
    4.5981   -0.3512    0.0000 C   0  0  0  0  0  0  0  0  0  0  0  0
    4.5981    0.6488    0.0000 C   0  0  0  0  0  0  0  0  0  0  0  0
    3.7320   -4.8512    0.0000 C   0  0  0  0  0  0  0  0  0  0  0  0
    5.4641    1.1488    0.0000 C   0  0  0  0  0  0  0  0  0  0  0  0
    2.8660   -5.3512    0.0000 C   0  0  0  0  0  0  0  0  0  0  0  0
    4.5981   -5.3512    0.0000 C   0  0  0  0  0  0  0  0  0  0  0  0
    2.8660   -6.3512    0.0000 C   0  0  0  0  0  0  0  0  0  0  0  0
    4.5981   -6.3512    0.0000 C   0  0  0  0  0  0  0  0  0  0  0  0
    6.3301    2.6488    0.0000 C   0  0  0  0  0  0  0  0  0  0  0  0
    6.3301    3.6488    0.0000 C   0  0  0  0  0  0  0  0  0  0  0  0
    3.7320   -6.8512    0.0000 C   0  0  0  0  0  0  0  0  0  0  0  0
    7.1962    4.1488    0.0000 C   0  0  0  0  0  0  0  0  0  0  0  0
    7.1962    5.1488    0.0000 C   0  0  0  0  0  0  0  0  0  0  0  0
    8.0622    5.6488    0.0000 C   0  0  0  0  0  0  0  0  0  0  0  0
    8.9757    5.2420    0.0000 C   0  0  0  0  0  0  0  0  0  0  0  0
   10.6394    5.8807    0.0000 C   0  0  0  0  0  0  0  0  0  0  0  0
   11.2272    6.6897    0.0000 C   0  0  0  0  0  0  0  0  0  0  0  0
   11.0461    4.9671    0.0000 C   0  0  0  0  0  0  0  0  0  0  0  0
   12.2217    6.5852    0.0000 C   0  0  0  0  0  0  0  0  0  0  0  0
   12.0406    4.8626    0.0000 C   0  0  0  0  0  0  0  0  0  0  0  0
   12.6284    5.6716    0.0000 C   0  0  0  0  0  0  0  0  0  0  0  0
    2.6540   -1.7686    0.0000 H   0  0  0  0  0  0  0  0  0  0  0  0
    2.2554   -2.4589    0.0000 H   0  0  0  0  0  0  0  0  0  0  0  0
    5.2087   -2.4589    0.0000 H   0  0  0  0  0  0  0  0  0  0  0  0
    4.8101   -1.7686    0.0000 H   0  0  0  0  0  0  0  0  0  0  0  0
    2.2554   -3.2436    0.0000 H   0  0  0  0  0  0  0  0  0  0  0  0
    2.6540   -3.9338    0.0000 H   0  0  0  0  0  0  0  0  0  0  0  0
    4.8101   -3.9338    0.0000 H   0  0  0  0  0  0  0  0  0  0  0  0
    5.2087   -3.2436    0.0000 H   0  0  0  0  0  0  0  0  0  0  0  0
    3.5200   -0.2686    0.0000 H   0  0  0  0  0  0  0  0  0  0  0  0
    3.1215   -0.9589    0.0000 H   0  0  0  0  0  0  0  0  0  0  0  0
    4.8101   -0.9338    0.0000 H   0  0  0  0  0  0  0  0  0  0  0  0
    5.2087   -0.2436    0.0000 H   0  0  0  0  0  0  0  0  0  0  0  0
    4.3860    1.2314    0.0000 H   0  0  0  0  0  0  0  0  0  0  0  0
    3.9875    0.5411    0.0000 H   0  0  0  0  0  0  0  0  0  0  0  0
    5.6762    0.5662    0.0000 H   0  0  0  0  0  0  0  0  0  0  0  0
    6.0747    1.2564    0.0000 H   0  0  0  0  0  0  0  0  0  0  0  0
    5.1350   -5.0412    0.0000 H   0  0  0  0  0  0  0  0  0  0  0  0
    4.9272    2.4588    0.0000 H   0  0  0  0  0  0  0  0  0  0  0  0
    5.1350   -6.6612    0.0000 H   0  0  0  0  0  0  0  0  0  0  0  0
    6.1181    4.2314    0.0000 H   0  0  0  0  0  0  0  0  0  0  0  0
    5.7196    3.5411    0.0000 H   0  0  0  0  0  0  0  0  0  0  0  0
    3.7320   -7.4712    0.0000 H   0  0  0  0  0  0  0  0  0  0  0  0
    7.4082    3.5662    0.0000 H   0  0  0  0  0  0  0  0  0  0  0  0
    7.8067    4.2564    0.0000 H   0  0  0  0  0  0  0  0  0  0  0  0
    6.9841    5.7314    0.0000 H   0  0  0  0  0  0  0  0  0  0  0  0
    6.5856    5.0411    0.0000 H   0  0  0  0  0  0  0  0  0  0  0  0
    9.1046    4.6356    0.0000 H   0  0  0  0  0  0  0  0  0  0  0  0
   10.9750    7.2561    0.0000 H   0  0  0  0  0  0  0  0  0  0  0  0
   10.6817    4.4655    0.0000 H   0  0  0  0  0  0  0  0  0  0  0  0
   12.5861    7.0867    0.0000 H   0  0  0  0  0  0  0  0  0  0  0  0
   12.2928    4.2962    0.0000 H   0  0  0  0  0  0  0  0  0  0  0  0
  1 22  1  0  0  0  0
  2 24  1  0  0  0  0
  3 26  2  0  0  0  0
  4 12  1  0  0  0  0
  5 12  2  0  0  0  0
  6 13  1  0  0  0  0
  6 14  1  0  0  0  0
  6 17  1  0  0  0  0
  7 15  1  0  0  0  0
  7 16  1  0  0  0  0
  7 20  1  0  0  0  0
  8 21  1  0  0  0  0
  8 26  1  0  0  0  0
  8 56  1  0  0  0  0
  9 11  1  0  0  0  0
  9 32  1  0  0  0  0
  9 33  1  0  0  0  0
 10 11  2  0  0  0  0
 10 31  1  0  0  0  0
 12 38  1  0  0  0  0
 13 15  1  0  0  0  0
 13 39  1  0  0  0  0
 13 40  1  0  0  0  0
 14 16  1  0  0  0  0
 14 41  1  0  0  0  0
 14 42  1  0  0  0  0
 15 43  1  0  0  0  0
 15 44  1  0  0  0  0
 16 45  1  0  0  0  0
 16 46  1  0  0  0  0
 17 18  1  0  0  0  0
 17 47  1  0  0  0  0
 17 48  1  0  0  0  0
 18 19  1  0  0  0  0
 18 49  1  0  0  0  0
 18 50  1  0  0  0  0
 19 21  1  0  0  0  0
 19 51  1  0  0  0  0
 19 52  1  0  0  0  0
 20 22  2  0  0  0  0
 20 23  1  0  0  0  0
 21 53  1  0  0  0  0
 21 54  1  0  0  0  0
 22 24  1  0  0  0  0
 23 25  2  0  0  0  0
 23 55  1  0  0  0  0
 24 28  2  0  0  0  0
 25 28  1  0  0  0  0
 25 57  1  0  0  0  0
 26 27  1  0  0  0  0
 27 29  1  0  0  0  0
 27 58  1  0  0  0  0
 27 59  1  0  0  0  0
 28 60  1  0  0  0  0
 29 30  1  0  0  0  0
 29 61  1  0  0  0  0
 29 62  1  0  0  0  0
 30 31  1  0  0  0  0
 30 63  1  0  0  0  0
 30 64  1  0  0  0  0
 31 32  2  0  0  0  0
 32 65  1  0  0  0  0
 33 34  2  0  0  0  0
 33 35  1  0  0  0  0
 34 36  1  0  0  0  0
 34 66  1  0  0  0  0
 35 37  2  0  0  0  0
 35 67  1  0  0  0  0
 36 38  2  0  0  0  0
 36 68  1  0  0  0  0
 37 38  1  0  0  0  0
 37 69  1  0  0  0  0
M  CHG  2   4  -1  12   1
M  END
> <PUBCHEM_COMPOUND_CID>
45482169

> <PUBCHEM_COMPOUND_CANONICALIZED>
1

> <PUBCHEM_CACTVS_COMPLEXITY>
745

> <PUBCHEM_CACTVS_HBOND_ACCEPTOR>
7

> <PUBCHEM_CACTVS_HBOND_DONOR>
1

> <PUBCHEM_CACTVS_ROTATABLE_BOND>
11

> <PUBCHEM_CACTVS_SUBSKEYS>
AAADceB7sAAGAAAAAAAAAAAAAAAAAWAAAAA8YIAAAAAAAAAB0AAAHgIcAAAACArBliQ8wJPYQACrATV3VwCCBCQxlwA4msE4dooIYHLBk5HUIAhglgDIyAcYCQAQAACAAAIAABQAAQAABAAAKAAAAAAAAA==

> <PUBCHEM_IUPAC_OPENEYE_NAME>
N-[4-[4-(2,3-dichlorophenyl)piperazin-1-yl]butyl]-4-[1-(4-nitrophenyl)triazol-4-yl]butanamide

> <PUBCHEM_IUPAC_CAS_NAME>
N-[4-[4-(2,3-dichlorophenyl)-1-piperazinyl]butyl]-4-[1-(4-nitrophenyl)-4-triazolyl]butanamide

> <PUBCHEM_IUPAC_NAME_MARKUP>
<I>N</I>-[4-[4-(2,3-dichlorophenyl)piperazin-1-yl]butyl]-4-[1-(4-nitrophenyl)triazol-4-yl]butanamide

> <PUBCHEM_IUPAC_NAME>
N-[4-[4-(2,3-dichlorophenyl)piperazin-1-yl]butyl]-4-[1-(4-nitrophenyl)triazol-4-yl]butanamide

> <PUBCHEM_IUPAC_SYSTEMATIC_NAME>
N-[4-[4-[2,3-bis(chloranyl)phenyl]piperazin-1-yl]butyl]-4-[1-(4-nitrophenyl)-1,2,3-triazol-4-yl]butanamide

> <PUBCHEM_IUPAC_TRADITIONAL_NAME>
N-[4-[4-(2,3-dichlorophenyl)piperazino]butyl]-4-[1-(4-nitrophenyl)triazol-4-yl]butyramide

> <PUBCHEM_IUPAC_INCHI>
InChI=1S/C26H31Cl2N7O3/c27-23-6-4-7-24(26(23)28)33-17-15-32(16-18-33)14-2-1-13-29-25(36)8-3-5-20-19-34(31-30-20)21-9-11-22(12-10-21)35(37)38/h4,6-7,9-12,19H,1-3,5,8,13-18H2,(H,29,36)

> <PUBCHEM_IUPAC_INCHIKEY>
LFQLOBUDZGJGBE-UHFFFAOYSA-N

> <PUBCHEM_XLOGP3_AA>
4.7

> <PUBCHEM_EXACT_MASS>
559.1865433

> <PUBCHEM_MOLECULAR_FORMULA>
C26H31Cl2N7O3

> <PUBCHEM_MOLECULAR_WEIGHT>
560.5

> <PUBCHEM_OPENEYE_CAN_SMILES>
C1CN(CCN1CCCCNC(=O)CCCC2=CN(N=N2)C3=CC=C(C=C3)[N+](=O)[O-])C4=C(C(=CC=C4)Cl)Cl

> <PUBCHEM_OPENEYE_ISO_SMILES>
C1CN(CCN1CCCCNC(=O)CCCC2=CN(N=N2)C3=CC=C(C=C3)[N+](=O)[O-])C4=C(C(=CC=C4)Cl)Cl

> <PUBCHEM_CACTVS_TPSA>
112

> <PUBCHEM_MONOISOTOPIC_WEIGHT>
559.1865433

> <PUBCHEM_TOTAL_CHARGE>
0

> <PUBCHEM_HEAVY_ATOM_COUNT>
38

> <PUBCHEM_ATOM_DEF_STEREO_COUNT>
0

> <PUBCHEM_ATOM_UDEF_STEREO_COUNT>
0

> <PUBCHEM_BOND_DEF_STEREO_COUNT>
0

> <PUBCHEM_BOND_UDEF_STEREO_COUNT>
0

> <PUBCHEM_ISOTOPIC_ATOM_COUNT>
0

> <PUBCHEM_COMPONENT_COUNT>
1

> <PUBCHEM_CACTVS_TAUTO_COUNT>
-1

> <PUBCHEM_COORDINATE_TYPE>
1
5
255

> <PUBCHEM_BONDANNOTATIONS>
10  11  8
10  31  8
20  22  8
20  23  8
22  24  8
23  25  8
24  28  8
25  28  8
31  32  8
33  34  8
33  35  8
34  36  8
35  37  8
36  38  8
37  38  8
9  11  8
9  32  8

$$$$
