11692376
  -OEChem-09292322262D

 75 80  0     1  0  0  0  0  0999 V2000
    6.7062    1.7399    0.0000 S   0  0  0  0  0  0  0  0  0  0  0  0
    4.4887   -7.1745    0.0000 O   0  0  0  0  0  0  0  0  0  0  0  0
    6.2062   -2.5902    0.0000 N   0  0  3  0  0  0  0  0  0  0  0  0
    3.0949   -6.3698    0.0000 N   0  0  0  0  0  0  0  0  0  0  0  0
    5.2117    2.7105    0.0000 N   0  0  0  0  0  0  0  0  0  0  0  0
    6.6130    3.5195    0.0000 N   0  0  0  0  0  0  0  0  0  0  0  0
    5.8698    4.1886    0.0000 N   0  0  0  0  0  0  0  0  0  0  0  0
    2.9473    6.5307    0.0000 N   0  0  0  0  0  0  0  0  0  0  0  0
    6.7598   -3.3998    0.0000 C   0  0  0  0  0  0  0  0  0  0  0  0
    5.2283   -2.5156    0.0000 C   0  0  0  0  0  0  0  0  0  0  0  0
    6.4745   -4.3382    0.0000 C   0  0  0  0  0  0  0  0  0  0  0  0
    5.5640   -4.7027    0.0000 C   0  0  0  0  0  0  0  0  0  0  0  0
    4.5583   -3.2319    0.0000 C   0  0  0  0  0  0  0  0  0  0  0  0
    4.6979   -4.2027    0.0000 C   0  0  0  0  0  0  0  0  0  0  0  0
    6.7062   -1.7242    0.0000 C   0  0  0  0  0  0  0  0  0  0  0  0
    5.5640   -5.7027    0.0000 C   0  0  0  0  0  0  0  0  0  0  0  0
    6.2062   -0.8582    0.0000 C   0  0  0  0  0  0  0  0  0  0  0  0
    3.8319   -4.7027    0.0000 C   0  0  0  0  0  0  0  0  0  0  0  0
    4.6979   -6.2027    0.0000 C   0  0  0  0  0  0  0  0  0  0  0  0
    3.8319   -5.7027    0.0000 C   0  0  0  0  0  0  0  0  0  0  0  0
    6.7062    0.0079    0.0000 C   0  0  0  0  0  0  0  0  0  0  0  0
    6.4300   -6.2027    0.0000 C   0  0  0  0  0  0  0  0  0  0  0  0
    6.2062    0.8739    0.0000 C   0  0  0  0  0  0  0  0  0  0  0  0
    3.5000   -7.2776    0.0000 C   0  0  0  0  0  0  0  0  0  0  0  0
    3.0000   -8.1436    0.0000 C   0  0  0  0  0  0  0  0  0  0  0  0
    2.0000   -8.1436    0.0000 C   0  0  0  0  0  0  0  0  0  0  0  0
    6.2062    2.6059    0.0000 C   0  0  0  0  0  0  0  0  0  0  0  0
    5.0038    3.6886    0.0000 C   0  0  0  0  0  0  0  0  0  0  0  0
    4.0902    4.0954    0.0000 C   0  0  0  0  0  0  0  0  0  0  0  0
    3.9857    5.0899    0.0000 C   0  0  0  0  0  0  0  0  0  0  0  0
    4.5426    1.9673    0.0000 C   0  0  0  0  0  0  0  0  0  0  0  0
    3.0722    5.4966    0.0000 C   0  0  0  0  0  0  0  0  0  0  0  0
    3.2812    3.5076    0.0000 C   0  0  0  0  0  0  0  0  0  0  0  0
    4.8378    5.6891    0.0000 C   0  0  0  0  0  0  0  0  0  0  0  0
    2.2632    4.9088    0.0000 C   0  0  0  0  0  0  0  0  0  0  0  0
    2.3677    3.9143    0.0000 C   0  0  0  0  0  0  0  0  0  0  0  0
    4.7369    6.7258    0.0000 C   0  0  0  0  0  0  0  0  0  0  0  0
    3.7853    7.1495    0.0000 C   0  0  0  0  0  0  0  0  0  0  0  0
    3.6769    8.1436    0.0000 C   0  0  0  0  0  0  0  0  0  0  0  0
    7.2977   -3.7082    0.0000 H   0  0  0  0  0  0  0  0  0  0  0  0
    7.1805   -2.9444    0.0000 H   0  0  0  0  0  0  0  0  0  0  0  0
    5.4124   -1.9236    0.0000 H   0  0  0  0  0  0  0  0  0  0  0  0
    4.6923   -2.2039    0.0000 H   0  0  0  0  0  0  0  0  0  0  0  0
    6.5705   -4.9508    0.0000 H   0  0  0  0  0  0  0  0  0  0  0  0
    7.0930   -4.3815    0.0000 H   0  0  0  0  0  0  0  0  0  0  0  0
    4.2116   -2.7179    0.0000 H   0  0  0  0  0  0  0  0  0  0  0  0
    3.9798   -3.4550    0.0000 H   0  0  0  0  0  0  0  0  0  0  0  0
    7.1812   -2.1227    0.0000 H   0  0  0  0  0  0  0  0  0  0  0  0
    7.1812   -1.3257    0.0000 H   0  0  0  0  0  0  0  0  0  0  0  0
    5.7313   -0.4596    0.0000 H   0  0  0  0  0  0  0  0  0  0  0  0
    5.7313   -1.2567    0.0000 H   0  0  0  0  0  0  0  0  0  0  0  0
    3.2950   -4.3927    0.0000 H   0  0  0  0  0  0  0  0  0  0  0  0
    7.1812   -0.3907    0.0000 H   0  0  0  0  0  0  0  0  0  0  0  0
    7.1812    0.4064    0.0000 H   0  0  0  0  0  0  0  0  0  0  0  0
    6.1200   -6.7396    0.0000 H   0  0  0  0  0  0  0  0  0  0  0  0
    6.9669   -6.5127    0.0000 H   0  0  0  0  0  0  0  0  0  0  0  0
    6.7400   -5.6657    0.0000 H   0  0  0  0  0  0  0  0  0  0  0  0
    5.7313    1.2724    0.0000 H   0  0  0  0  0  0  0  0  0  0  0  0
    5.7313    0.4754    0.0000 H   0  0  0  0  0  0  0  0  0  0  0  0
    2.8923   -8.7542    0.0000 H   0  0  0  0  0  0  0  0  0  0  0  0
    3.5826   -8.3556    0.0000 H   0  0  0  0  0  0  0  0  0  0  0  0
    2.0000   -7.5236    0.0000 H   0  0  0  0  0  0  0  0  0  0  0  0
    1.3800   -8.1436    0.0000 H   0  0  0  0  0  0  0  0  0  0  0  0
    2.0000   -8.7636    0.0000 H   0  0  0  0  0  0  0  0  0  0  0  0
    4.0818    2.3822    0.0000 H   0  0  0  0  0  0  0  0  0  0  0  0
    4.1277    1.5066    0.0000 H   0  0  0  0  0  0  0  0  0  0  0  0
    5.0033    1.5525    0.0000 H   0  0  0  0  0  0  0  0  0  0  0  0
    3.3460    2.8910    0.0000 H   0  0  0  0  0  0  0  0  0  0  0  0
    5.4012    5.4304    0.0000 H   0  0  0  0  0  0  0  0  0  0  0  0
    1.6968    5.1610    0.0000 H   0  0  0  0  0  0  0  0  0  0  0  0
    1.8661    3.5499    0.0000 H   0  0  0  0  0  0  0  0  0  0  0  0
    5.2399    7.0883    0.0000 H   0  0  0  0  0  0  0  0  0  0  0  0
    4.2933    8.2108    0.0000 H   0  0  0  0  0  0  0  0  0  0  0  0
    3.6098    8.7599    0.0000 H   0  0  0  0  0  0  0  0  0  0  0  0
    3.0606    8.0764    0.0000 H   0  0  0  0  0  0  0  0  0  0  0  0
  1 23  1  0  0  0  0
  1 27  1  0  0  0  0
  2 19  1  0  0  0  0
  2 24  1  0  0  0  0
  3  9  1  0  0  0  0
  3 10  1  0  0  0  0
  3 15  1  0  0  0  0
  4 20  1  0  0  0  0
  4 24  2  0  0  0  0
  5 27  1  0  0  0  0
  5 28  1  0  0  0  0
  5 31  1  0  0  0  0
  6  7  1  0  0  0  0
  6 27  2  0  0  0  0
  7 28  2  0  0  0  0
  8 32  1  0  0  0  0
  8 38  2  0  0  0  0
  9 11  1  0  0  0  0
  9 40  1  0  0  0  0
  9 41  1  0  0  0  0
 10 13  1  0  0  0  0
 10 42  1  0  0  0  0
 10 43  1  0  0  0  0
 11 12  1  0  0  0  0
 11 44  1  0  0  0  0
 11 45  1  0  0  0  0
 12 14  1  0  0  0  0
 12 16  2  0  0  0  0
 13 14  1  0  0  0  0
 13 46  1  0  0  0  0
 13 47  1  0  0  0  0
 14 18  2  0  0  0  0
 15 17  1  0  0  0  0
 15 48  1  0  0  0  0
 15 49  1  0  0  0  0
 16 19  1  0  0  0  0
 16 22  1  0  0  0  0
 17 21  1  0  0  0  0
 17 50  1  0  0  0  0
 17 51  1  0  0  0  0
 18 20  1  0  0  0  0
 18 52  1  0  0  0  0
 19 20  2  0  0  0  0
 21 23  1  0  0  0  0
 21 53  1  0  0  0  0
 21 54  1  0  0  0  0
 22 55  1  0  0  0  0
 22 56  1  0  0  0  0
 22 57  1  0  0  0  0
 23 58  1  0  0  0  0
 23 59  1  0  0  0  0
 24 25  1  0  0  0  0
 25 26  1  0  0  0  0
 25 60  1  0  0  0  0
 25 61  1  0  0  0  0
 26 62  1  0  0  0  0
 26 63  1  0  0  0  0
 26 64  1  0  0  0  0
 28 29  1  0  0  0  0
 29 30  2  0  0  0  0
 29 33  1  0  0  0  0
 30 32  1  0  0  0  0
 30 34  1  0  0  0  0
 31 65  1  0  0  0  0
 31 66  1  0  0  0  0
 31 67  1  0  0  0  0
 32 35  2  0  0  0  0
 33 36  2  0  0  0  0
 33 68  1  0  0  0  0
 34 37  2  0  0  0  0
 34 69  1  0  0  0  0
 35 36  1  0  0  0  0
 35 70  1  0  0  0  0
 36 71  1  0  0  0  0
 37 38  1  0  0  0  0
 37 72  1  0  0  0  0
 38 39  1  0  0  0  0
 39 73  1  0  0  0  0
 39 74  1  0  0  0  0
 39 75  1  0  0  0  0
M  END
> <PUBCHEM_COMPOUND_CID>
11692376

> <PUBCHEM_COMPOUND_CANONICALIZED>
1

> <PUBCHEM_CACTVS_COMPLEXITY>
790

> <PUBCHEM_CACTVS_HBOND_ACCEPTOR>
7

> <PUBCHEM_CACTVS_HBOND_DONOR>
0

> <PUBCHEM_CACTVS_ROTATABLE_BOND>
8

> <PUBCHEM_CACTVS_SUBSKEYS>
AAADcfB7oABAAAAAAAAAAAAAAAAAAWLAAAA8YIAABYAAAFix/gAAHgQIAAAADAzF3wSz1vcMFEiqA6dydASS2CtvYrAd2CG9bNiOLvLkvbuPOSjkzBPY6YeY2fKOqAADQAAaEABQAAaAADQgAAAAAAAAAA==

> <PUBCHEM_IUPAC_OPENEYE_NAME>
2-ethyl-10-methyl-7-[4-[[4-methyl-5-(2-methyl-5-quinolyl)-1,2,4-triazol-3-yl]sulfanyl]butyl]-5,6,8,9-tetrahydrooxazolo[4,5-h][3]benzazepine

> <PUBCHEM_IUPAC_CAS_NAME>
2-ethyl-10-methyl-7-[4-[[4-methyl-5-(2-methyl-5-quinolinyl)-1,2,4-triazol-3-yl]thio]butyl]-5,6,8,9-tetrahydrooxazolo[4,5-h][3]benzazepine

> <PUBCHEM_IUPAC_NAME_MARKUP>
2-ethyl-10-methyl-7-[4-[[4-methyl-5-(2-methylquinolin-5-yl)-1,2,4-triazol-3-yl]sulfanyl]butyl]-5,6,8,9-tetrahydro-[1,3]oxazolo[4,5-h][3]benzazepine

> <PUBCHEM_IUPAC_NAME>
2-ethyl-10-methyl-7-[4-[[4-methyl-5-(2-methylquinolin-5-yl)-1,2,4-triazol-3-yl]sulfanyl]butyl]-5,6,8,9-tetrahydro-[1,3]oxazolo[4,5-h][3]benzazepine

> <PUBCHEM_IUPAC_SYSTEMATIC_NAME>
2-ethyl-10-methyl-7-[4-[[4-methyl-5-(2-methylquinolin-5-yl)-1,2,4-triazol-3-yl]sulfanyl]butyl]-5,6,8,9-tetrahydro-[1,3]oxazolo[4,5-h][3]benzazepine

> <PUBCHEM_IUPAC_TRADITIONAL_NAME>
2-ethyl-10-methyl-7-[4-[[4-methyl-5-(2-methyl-5-quinolyl)-1,2,4-triazol-3-yl]thio]butyl]-5,6,8,9-tetrahydrooxazolo[4,5-h][3]benzazepine

> <PUBCHEM_IUPAC_INCHI>
InChI=1S/C31H36N6OS/c1-5-28-33-27-19-22-13-16-37(17-14-23(22)21(3)29(27)38-28)15-6-7-18-39-31-35-34-30(36(31)4)25-9-8-10-26-24(25)12-11-20(2)32-26/h8-12,19H,5-7,13-18H2,1-4H3

> <PUBCHEM_IUPAC_INCHIKEY>
DYDLMZLLICKPBG-UHFFFAOYSA-N

> <PUBCHEM_XLOGP3_AA>
6.4

> <PUBCHEM_EXACT_MASS>
540.26713097

> <PUBCHEM_MOLECULAR_FORMULA>
C31H36N6OS

> <PUBCHEM_MOLECULAR_WEIGHT>
540.7

> <PUBCHEM_OPENEYE_CAN_SMILES>
CCC1=NC2=C(O1)C(=C3CCN(CCC3=C2)CCCCSC4=NN=C(N4C)C5=C6C=CC(=NC6=CC=C5)C)C

> <PUBCHEM_OPENEYE_ISO_SMILES>
CCC1=NC2=C(O1)C(=C3CCN(CCC3=C2)CCCCSC4=NN=C(N4C)C5=C6C=CC(=NC6=CC=C5)C)C

> <PUBCHEM_CACTVS_TPSA>
98.2

> <PUBCHEM_MONOISOTOPIC_WEIGHT>
540.26713097

> <PUBCHEM_TOTAL_CHARGE>
0

> <PUBCHEM_HEAVY_ATOM_COUNT>
39

> <PUBCHEM_ATOM_DEF_STEREO_COUNT>
0

> <PUBCHEM_ATOM_UDEF_STEREO_COUNT>
0

> <PUBCHEM_BOND_DEF_STEREO_COUNT>
0

> <PUBCHEM_BOND_UDEF_STEREO_COUNT>
0

> <PUBCHEM_ISOTOPIC_ATOM_COUNT>
0

> <PUBCHEM_COMPONENT_COUNT>
1

> <PUBCHEM_CACTVS_TAUTO_COUNT>
-1

> <PUBCHEM_COORDINATE_TYPE>
1
5
255

> <PUBCHEM_BONDANNOTATIONS>
12  14  8
12  16  8
14  18  8
16  19  8
18  20  8
19  20  8
2  19  8
2  24  8
29  30  8
29  33  8
30  32  8
30  34  8
32  35  8
33  36  8
34  37  8
35  36  8
37  38  8
4  20  8
4  24  8
5  27  8
5  28  8
6  27  8
6  7  8
7  28  8
8  32  8
8  38  8

$$$$
