45264526
  -OEChem-09292322192D

 44 46  0     0  0  0  0  0  0999 V2000
    4.4528    0.0000    0.0000 Cl  0  0  0  0  0  0  0  0  0  0  0  0
    5.8566    4.7563    0.0000 O   0  0  0  0  0  0  0  0  0  0  0  0
    5.5476    7.3254    0.0000 O   0  0  0  0  0  0  0  0  0  0  0  0
    2.1756    3.7857    0.0000 O   0  0  0  0  0  0  0  0  0  0  0  0
    3.2688    5.5653    0.0000 N   0  0  0  0  0  0  0  0  0  0  0  0
    5.2688    5.5653    0.0000 C   0  0  0  0  0  0  0  0  0  0  0  0
    4.7688    4.6993    0.0000 C   0  0  0  0  0  0  0  0  0  0  0  0
    4.7688    6.4313    0.0000 C   0  0  0  0  0  0  0  0  0  0  0  0
    3.7688    4.6993    0.0000 C   0  0  0  0  0  0  0  0  0  0  0  0
    3.7688    6.4313    0.0000 C   0  0  0  0  0  0  0  0  0  0  0  0
    5.8566    6.3743    0.0000 C   0  0  0  0  0  0  0  0  0  0  0  0
    2.2688    5.5653    0.0000 C   0  0  0  0  0  0  0  0  0  0  0  0
    6.8077    6.0653    0.0000 C   0  0  0  0  0  0  0  0  0  0  0  0
    6.8077    5.0653    0.0000 C   0  0  0  0  0  0  0  0  0  0  0  0
    1.7688    4.6993    0.0000 C   0  0  0  0  0  0  0  0  0  0  0  0
    7.6167    6.6531    0.0000 C   0  0  0  0  0  0  0  0  0  0  0  0
    0.7743    4.5948    0.0000 C   0  0  0  0  0  0  0  0  0  0  0  0
    7.5122    7.6476    0.0000 C   0  0  0  0  0  0  0  0  0  0  0  0
    8.5302    6.2463    0.0000 C   0  0  0  0  0  0  0  0  0  0  0  0
    0.5664    3.6166    0.0000 C   0  0  0  0  0  0  0  0  0  0  0  0
    1.4324    3.1166    0.0000 C   0  0  0  0  0  0  0  0  0  0  0  0
    8.3212    8.2354    0.0000 C   0  0  0  0  0  0  0  0  0  0  0  0
    9.3392    6.8341    0.0000 C   0  0  0  0  0  0  0  0  0  0  0  0
    9.2347    7.8287    0.0000 C   0  0  0  0  0  0  0  0  0  0  0  0
    4.6612    4.0887    0.0000 H   0  0  0  0  0  0  0  0  0  0  0  0
    5.3514    4.4872    0.0000 H   0  0  0  0  0  0  0  0  0  0  0  0
    5.3514    6.6434    0.0000 H   0  0  0  0  0  0  0  0  0  0  0  0
    4.6612    7.0419    0.0000 H   0  0  0  0  0  0  0  0  0  0  0  0
    3.1862    4.4872    0.0000 H   0  0  0  0  0  0  0  0  0  0  0  0
    3.8765    4.0887    0.0000 H   0  0  0  0  0  0  0  0  0  0  0  0
    3.8765    7.0419    0.0000 H   0  0  0  0  0  0  0  0  0  0  0  0
    3.1862    6.6434    0.0000 H   0  0  0  0  0  0  0  0  0  0  0  0
    2.3765    6.1759    0.0000 H   0  0  0  0  0  0  0  0  0  0  0  0
    1.6862    5.7774    0.0000 H   0  0  0  0  0  0  0  0  0  0  0  0
    7.3093    4.7009    0.0000 H   0  0  0  0  0  0  0  0  0  0  0  0
    0.3594    5.0555    0.0000 H   0  0  0  0  0  0  0  0  0  0  0  0
    6.9458    7.8998    0.0000 H   0  0  0  0  0  0  0  0  0  0  0  0
    8.5950    5.6297    0.0000 H   0  0  0  0  0  0  0  0  0  0  0  0
    0.0000    3.3644    0.0000 H   0  0  0  0  0  0  0  0  0  0  0  0
    1.4972    2.5000    0.0000 H   0  0  0  0  0  0  0  0  0  0  0  0
    8.2564    8.8520    0.0000 H   0  0  0  0  0  0  0  0  0  0  0  0
    9.9056    6.5820    0.0000 H   0  0  0  0  0  0  0  0  0  0  0  0
    9.7363    8.1931    0.0000 H   0  0  0  0  0  0  0  0  0  0  0  0
    5.4528    0.0000    0.0000 H   0  0  0  0  0  0  0  0  0  0  0  0
  1 44  1  0  0  0  0
  2  6  1  0  0  0  0
  2 14  1  0  0  0  0
  3 11  2  0  0  0  0
  4 15  1  0  0  0  0
  4 21  1  0  0  0  0
  5  9  1  0  0  0  0
  5 10  1  0  0  0  0
  5 12  1  0  0  0  0
  6  7  1  0  0  0  0
  6  8  1  0  0  0  0
  6 11  1  0  0  0  0
  7  9  1  0  0  0  0
  7 25  1  0  0  0  0
  7 26  1  0  0  0  0
  8 10  1  0  0  0  0
  8 27  1  0  0  0  0
  8 28  1  0  0  0  0
  9 29  1  0  0  0  0
  9 30  1  0  0  0  0
 10 31  1  0  0  0  0
 10 32  1  0  0  0  0
 11 13  1  0  0  0  0
 12 15  1  0  0  0  0
 12 33  1  0  0  0  0
 12 34  1  0  0  0  0
 13 14  2  0  0  0  0
 13 16  1  0  0  0  0
 14 35  1  0  0  0  0
 15 17  2  0  0  0  0
 16 18  2  0  0  0  0
 16 19  1  0  0  0  0
 17 20  1  0  0  0  0
 17 36  1  0  0  0  0
 18 22  1  0  0  0  0
 18 37  1  0  0  0  0
 19 23  2  0  0  0  0
 19 38  1  0  0  0  0
 20 21  2  0  0  0  0
 20 39  1  0  0  0  0
 21 40  1  0  0  0  0
 22 24  2  0  0  0  0
 22 41  1  0  0  0  0
 23 24  1  0  0  0  0
 23 42  1  0  0  0  0
 24 43  1  0  0  0  0
M  END
> <PUBCHEM_COMPOUND_CID>
45264526

> <PUBCHEM_COMPOUND_CANONICALIZED>
1

> <PUBCHEM_CACTVS_COMPLEXITY>
473

> <PUBCHEM_CACTVS_HBOND_ACCEPTOR>
4

> <PUBCHEM_CACTVS_HBOND_DONOR>
1

> <PUBCHEM_CACTVS_ROTATABLE_BOND>
3

> <PUBCHEM_CACTVS_SUBSKEYS>
AAADceB6MAAEAAAAAAAAAAAAAAAAASIAAAA8QAAAAAAAAAABwAAAHgAAAAAADEThmAYwBIMABECIAqhSgAKCCAAkIAAIiAHODMgOJjKEtT+HOSjmwBGYqYec2eKOAAAAAAAAAAAAAAAAAAAAAAAAAAAAAA==

> <PUBCHEM_IUPAC_OPENEYE_NAME>
8-(2-furylmethyl)-3-phenyl-1-oxa-8-azaspiro[4.5]dec-2-en-4-one;hydrochloride

> <PUBCHEM_IUPAC_CAS_NAME>
8-(2-furanylmethyl)-3-phenyl-1-oxa-8-azaspiro[4.5]dec-2-en-4-one;hydrochloride

> <PUBCHEM_IUPAC_NAME_MARKUP>
8-(furan-2-ylmethyl)-3-phenyl-1-oxa-8-azaspiro[4.5]dec-2-en-4-one;hydrochloride

> <PUBCHEM_IUPAC_NAME>
8-(furan-2-ylmethyl)-3-phenyl-1-oxa-8-azaspiro[4.5]dec-2-en-4-one;hydrochloride

> <PUBCHEM_IUPAC_SYSTEMATIC_NAME>
8-(furan-2-ylmethyl)-3-phenyl-1-oxa-8-azaspiro[4.5]dec-2-en-4-one;hydrochloride

> <PUBCHEM_IUPAC_TRADITIONAL_NAME>
8-(2-furfuryl)-3-phenyl-1-oxa-8-azaspiro[4.5]dec-2-en-4-one;hydrochloride

> <PUBCHEM_IUPAC_INCHI>
InChI=1S/C19H19NO3.ClH/c21-18-17(15-5-2-1-3-6-15)14-23-19(18)8-10-20(11-9-19)13-16-7-4-12-22-16;/h1-7,12,14H,8-11,13H2;1H

> <PUBCHEM_IUPAC_INCHIKEY>
QSWSAFVQBDQHST-UHFFFAOYSA-N

> <PUBCHEM_EXACT_MASS>
345.1131712

> <PUBCHEM_MOLECULAR_FORMULA>
C19H20ClNO3

> <PUBCHEM_MOLECULAR_WEIGHT>
345.8

> <PUBCHEM_OPENEYE_CAN_SMILES>
C1CN(CCC12C(=O)C(=CO2)C3=CC=CC=C3)CC4=CC=CO4.Cl

> <PUBCHEM_OPENEYE_ISO_SMILES>
C1CN(CCC12C(=O)C(=CO2)C3=CC=CC=C3)CC4=CC=CO4.Cl

> <PUBCHEM_CACTVS_TPSA>
42.7

> <PUBCHEM_MONOISOTOPIC_WEIGHT>
345.1131712

> <PUBCHEM_TOTAL_CHARGE>
0

> <PUBCHEM_HEAVY_ATOM_COUNT>
24

> <PUBCHEM_ATOM_DEF_STEREO_COUNT>
0

> <PUBCHEM_ATOM_UDEF_STEREO_COUNT>
0

> <PUBCHEM_BOND_DEF_STEREO_COUNT>
0

> <PUBCHEM_BOND_UDEF_STEREO_COUNT>
0

> <PUBCHEM_ISOTOPIC_ATOM_COUNT>
0

> <PUBCHEM_COMPONENT_COUNT>
2

> <PUBCHEM_CACTVS_TAUTO_COUNT>
-1

> <PUBCHEM_COORDINATE_TYPE>
1
5
255

> <PUBCHEM_BONDANNOTATIONS>
15  17  8
16  18  8
16  19  8
17  20  8
18  22  8
19  23  8
20  21  8
22  24  8
23  24  8
4  15  8
4  21  8

$$$$
