10596144
  -OEChem-09292322342D

 61 63  0     1  0  0  0  0  0999 V2000
   14.1884   -1.4573    0.0000 O   0  0  0  0  0  0  0  0  0  0  0  0
   13.3224    0.0427    0.0000 O   0  0  0  0  0  0  0  0  0  0  0  0
    7.2602    0.5427    0.0000 N   0  0  3  0  0  0  0  0  0  0  0  0
   12.4564   -1.4573    0.0000 N   0  0  0  0  0  0  0  0  0  0  0  0
    2.0000   -0.4848    0.0000 N   0  0  0  0  0  0  0  0  0  0  0  0
    9.8583    0.0427    0.0000 C   0  0  0  0  0  0  0  0  0  0  0  0
   10.7243    0.5427    0.0000 C   0  0  0  0  0  0  0  0  0  0  0  0
    9.8583   -0.9573    0.0000 C   0  0  0  0  0  0  0  0  0  0  0  0
   11.5904   -0.9573    0.0000 C   0  0  0  0  0  0  0  0  0  0  0  0
   11.5904    0.0427    0.0000 C   0  0  0  0  0  0  0  0  0  0  0  0
   10.7243   -1.4573    0.0000 C   0  0  0  0  0  0  0  0  0  0  0  0
    8.9923    0.5427    0.0000 C   0  0  0  0  0  0  0  0  0  0  0  0
    8.1263    0.0427    0.0000 C   0  0  0  0  0  0  0  0  0  0  0  0
    7.2602    1.5427    0.0000 C   0  0  0  0  0  0  0  0  0  0  0  0
    6.3942    0.0427    0.0000 C   0  0  0  0  0  0  0  0  0  0  0  0
    6.3942    2.0427    0.0000 C   0  0  0  0  0  0  0  0  0  0  0  0
    5.5282    0.5427    0.0000 C   0  0  0  0  0  0  0  0  0  0  0  0
    5.5282    1.5427    0.0000 C   0  0  0  0  0  0  0  0  0  0  0  0
   13.3224   -0.9573    0.0000 C   0  0  0  0  0  0  0  0  0  0  0  0
    4.6342    0.0080    0.0000 C   0  0  0  0  0  0  0  0  0  0  0  0
    4.6342    2.0773    0.0000 C   0  0  0  0  0  0  0  0  0  0  0  0
   15.0545   -0.9573    0.0000 C   0  0  0  0  0  0  0  0  0  0  0  0
    3.7282    0.5219    0.0000 C   0  0  0  0  0  0  0  0  0  0  0  0
    3.7282    1.5635    0.0000 C   0  0  0  0  0  0  0  0  0  0  0  0
   15.9205   -0.4573    0.0000 C   0  0  0  0  0  0  0  0  0  0  0  0
   15.5545   -1.8234    0.0000 C   0  0  0  0  0  0  0  0  0  0  0  0
   14.5545   -0.0913    0.0000 C   0  0  0  0  0  0  0  0  0  0  0  0
    2.8641    0.0185    0.0000 C   0  0  0  0  0  0  0  0  0  0  0  0
    9.3214   -0.2673    0.0000 H   0  0  0  0  0  0  0  0  0  0  0  0
   11.1229    1.0176    0.0000 H   0  0  0  0  0  0  0  0  0  0  0  0
   10.3258    1.0176    0.0000 H   0  0  0  0  0  0  0  0  0  0  0  0
    9.2477   -0.8497    0.0000 H   0  0  0  0  0  0  0  0  0  0  0  0
    9.6463   -1.5399    0.0000 H   0  0  0  0  0  0  0  0  0  0  0  0
   12.1273   -0.6473    0.0000 H   0  0  0  0  0  0  0  0  0  0  0  0
   12.2010   -0.0650    0.0000 H   0  0  0  0  0  0  0  0  0  0  0  0
   11.8024    0.6253    0.0000 H   0  0  0  0  0  0  0  0  0  0  0  0
   10.3258   -1.9323    0.0000 H   0  0  0  0  0  0  0  0  0  0  0  0
   11.1229   -1.9323    0.0000 H   0  0  0  0  0  0  0  0  0  0  0  0
    9.3908    1.0176    0.0000 H   0  0  0  0  0  0  0  0  0  0  0  0
    8.5938    1.0176    0.0000 H   0  0  0  0  0  0  0  0  0  0  0  0
    7.7277   -0.4323    0.0000 H   0  0  0  0  0  0  0  0  0  0  0  0
    8.5248   -0.4323    0.0000 H   0  0  0  0  0  0  0  0  0  0  0  0
   12.4564   -2.0773    0.0000 H   0  0  0  0  0  0  0  0  0  0  0  0
    7.8708    1.4350    0.0000 H   0  0  0  0  0  0  0  0  0  0  0  0
    7.4723    2.1253    0.0000 H   0  0  0  0  0  0  0  0  0  0  0  0
    5.9957   -0.4323    0.0000 H   0  0  0  0  0  0  0  0  0  0  0  0
    6.7928   -0.4323    0.0000 H   0  0  0  0  0  0  0  0  0  0  0  0
    6.7928    2.5176    0.0000 H   0  0  0  0  0  0  0  0  0  0  0  0
    5.9957    2.5176    0.0000 H   0  0  0  0  0  0  0  0  0  0  0  0
    4.6414   -0.6120    0.0000 H   0  0  0  0  0  0  0  0  0  0  0  0
    4.6414    2.6973    0.0000 H   0  0  0  0  0  0  0  0  0  0  0  0
    3.1924    1.8756    0.0000 H   0  0  0  0  0  0  0  0  0  0  0  0
   16.2305   -0.9943    0.0000 H   0  0  0  0  0  0  0  0  0  0  0  0
   16.4574   -0.1473    0.0000 H   0  0  0  0  0  0  0  0  0  0  0  0
   15.6105    0.0796    0.0000 H   0  0  0  0  0  0  0  0  0  0  0  0
   15.0175   -2.1334    0.0000 H   0  0  0  0  0  0  0  0  0  0  0  0
   15.8645   -2.3603    0.0000 H   0  0  0  0  0  0  0  0  0  0  0  0
   16.0914   -1.5134    0.0000 H   0  0  0  0  0  0  0  0  0  0  0  0
   15.0914    0.2187    0.0000 H   0  0  0  0  0  0  0  0  0  0  0  0
   14.2445    0.4456    0.0000 H   0  0  0  0  0  0  0  0  0  0  0  0
   14.0175   -0.4013    0.0000 H   0  0  0  0  0  0  0  0  0  0  0  0
  1 19  1  0  0  0  0
  1 22  1  0  0  0  0
  2 19  2  0  0  0  0
  3 13  1  0  0  0  0
  3 14  1  0  0  0  0
  3 15  1  0  0  0  0
  4  9  1  0  0  0  0
  4 19  1  0  0  0  0
  4 43  1  0  0  0  0
  5 28  3  0  0  0  0
  6  7  1  0  0  0  0
  6  8  1  0  0  0  0
  6 12  1  0  0  0  0
  6 29  1  0  0  0  0
  7 10  1  0  0  0  0
  7 30  1  0  0  0  0
  7 31  1  0  0  0  0
  8 11  1  0  0  0  0
  8 32  1  0  0  0  0
  8 33  1  0  0  0  0
  9 10  1  0  0  0  0
  9 11  1  0  0  0  0
  9 34  1  0  0  0  0
 10 35  1  0  0  0  0
 10 36  1  0  0  0  0
 11 37  1  0  0  0  0
 11 38  1  0  0  0  0
 12 13  1  0  0  0  0
 12 39  1  0  0  0  0
 12 40  1  0  0  0  0
 13 41  1  0  0  0  0
 13 42  1  0  0  0  0
 14 16  1  0  0  0  0
 14 44  1  0  0  0  0
 14 45  1  0  0  0  0
 15 17  1  0  0  0  0
 15 46  1  0  0  0  0
 15 47  1  0  0  0  0
 16 18  1  0  0  0  0
 16 48  1  0  0  0  0
 16 49  1  0  0  0  0
 17 18  2  0  0  0  0
 17 20  1  0  0  0  0
 18 21  1  0  0  0  0
 20 23  2  0  0  0  0
 20 50  1  0  0  0  0
 21 24  2  0  0  0  0
 21 51  1  0  0  0  0
 22 25  1  0  0  0  0
 22 26  1  0  0  0  0
 22 27  1  0  0  0  0
 23 24  1  0  0  0  0
 23 28  1  0  0  0  0
 24 52  1  0  0  0  0
 25 53  1  0  0  0  0
 25 54  1  0  0  0  0
 25 55  1  0  0  0  0
 26 56  1  0  0  0  0
 26 57  1  0  0  0  0
 26 58  1  0  0  0  0
 27 59  1  0  0  0  0
 27 60  1  0  0  0  0
 27 61  1  0  0  0  0
M  END
> <PUBCHEM_COMPOUND_CID>
10596144

> <PUBCHEM_COMPOUND_CANONICALIZED>
1

> <PUBCHEM_CACTVS_COMPLEXITY>
568

> <PUBCHEM_CACTVS_HBOND_ACCEPTOR>
4

> <PUBCHEM_CACTVS_HBOND_DONOR>
1

> <PUBCHEM_CACTVS_ROTATABLE_BOND>
6

> <PUBCHEM_CACTVS_SUBSKEYS>
AAADcfB7MAAAAAAAAAAAAAAAAAAAAAAAAAA8YIAAAAAAAACxAAAAHgAQAAAADWzBmAQyCIPABACYBiBCGACiAAAgAAAIiIAIBIkIoCKAkRGMIAhglgCIiA8QgMAOwAACAAAQAACQAAQAACAAAAAAAAAAAA==

> <PUBCHEM_IUPAC_OPENEYE_NAME>
tert-butyl N-[4-[2-(7-cyano-3,4-dihydro-1H-isoquinolin-2-yl)ethyl]cyclohexyl]carbamate

> <PUBCHEM_IUPAC_CAS_NAME>
N-[4-[2-(7-cyano-3,4-dihydro-1H-isoquinolin-2-yl)ethyl]cyclohexyl]carbamic acid tert-butyl ester

> <PUBCHEM_IUPAC_NAME_MARKUP>
<I>tert</I>-butyl <I>N</I>-[4-[2-(7-cyano-3,4-dihydro-1<I>H</I>-isoquinolin-2-yl)ethyl]cyclohexyl]carbamate

> <PUBCHEM_IUPAC_NAME>
tert-butyl N-[4-[2-(7-cyano-3,4-dihydro-1H-isoquinolin-2-yl)ethyl]cyclohexyl]carbamate

> <PUBCHEM_IUPAC_SYSTEMATIC_NAME>
tert-butyl N-[4-[2-(7-cyano-3,4-dihydro-1H-isoquinolin-2-yl)ethyl]cyclohexyl]carbamate

> <PUBCHEM_IUPAC_TRADITIONAL_NAME>
N-[4-[2-(7-cyano-3,4-dihydro-1H-isoquinolin-2-yl)ethyl]cyclohexyl]carbamic acid tert-butyl ester

> <PUBCHEM_IUPAC_INCHI>
InChI=1S/C23H33N3O2/c1-23(2,3)28-22(27)25-21-8-5-17(6-9-21)10-12-26-13-11-19-7-4-18(15-24)14-20(19)16-26/h4,7,14,17,21H,5-6,8-13,16H2,1-3H3,(H,25,27)

> <PUBCHEM_IUPAC_INCHIKEY>
RDLNNBSDNFNODH-UHFFFAOYSA-N

> <PUBCHEM_XLOGP3_AA>
4.1

> <PUBCHEM_EXACT_MASS>
383.25727730

> <PUBCHEM_MOLECULAR_FORMULA>
C23H33N3O2

> <PUBCHEM_MOLECULAR_WEIGHT>
383.5

> <PUBCHEM_OPENEYE_CAN_SMILES>
CC(C)(C)OC(=O)NC1CCC(CC1)CCN2CCC3=C(C2)C=C(C=C3)C#N

> <PUBCHEM_OPENEYE_ISO_SMILES>
CC(C)(C)OC(=O)NC1CCC(CC1)CCN2CCC3=C(C2)C=C(C=C3)C#N

> <PUBCHEM_CACTVS_TPSA>
65.4

> <PUBCHEM_MONOISOTOPIC_WEIGHT>
383.25727730

> <PUBCHEM_TOTAL_CHARGE>
0

> <PUBCHEM_HEAVY_ATOM_COUNT>
28

> <PUBCHEM_ATOM_DEF_STEREO_COUNT>
0

> <PUBCHEM_ATOM_UDEF_STEREO_COUNT>
0

> <PUBCHEM_BOND_DEF_STEREO_COUNT>
0

> <PUBCHEM_BOND_UDEF_STEREO_COUNT>
0

> <PUBCHEM_ISOTOPIC_ATOM_COUNT>
0

> <PUBCHEM_COMPONENT_COUNT>
1

> <PUBCHEM_CACTVS_TAUTO_COUNT>
-1

> <PUBCHEM_COORDINATE_TYPE>
1
5
255

> <PUBCHEM_BONDANNOTATIONS>
17  18  8
17  20  8
18  21  8
20  23  8
21  24  8
23  24  8

$$$$
