44353234
  -OEChem-09292322192D

 61 65  0     1  0  0  0  0  0999 V2000
   15.5558   -1.4581    0.0000 F   0  0  0  0  0  0  0  0  0  0  0  0
    5.8550    4.5713    0.0000 O   0  0  0  0  0  0  0  0  0  0  0  0
    5.8550    1.0608    0.0000 O   0  0  0  0  0  0  0  0  0  0  0  0
   10.6279    0.2180    0.0000 N   0  0  3  0  0  0  0  0  0  0  0  0
    6.1279    2.8161    0.0000 N   0  0  0  0  0  0  0  0  0  0  0  0
   12.4598   -3.9550    0.0000 N   0  0  0  0  0  0  0  0  0  0  0  0
   11.6279    0.2180    0.0000 C   0  0  0  0  0  0  0  0  0  0  0  0
   10.1279    1.0840    0.0000 C   0  0  0  0  0  0  0  0  0  0  0  0
   12.1279   -0.6480    0.0000 C   0  0  0  0  0  0  0  0  0  0  0  0
    9.1279    1.0840    0.0000 C   0  0  0  0  0  0  0  0  0  0  0  0
   10.1279   -0.6480    0.0000 C   0  0  0  0  0  0  0  0  0  0  0  0
   11.6279   -1.5140    0.0000 C   0  0  0  0  0  0  0  0  0  0  0  0
    8.6279    1.9500    0.0000 C   0  0  0  0  0  0  0  0  0  0  0  0
   10.6279   -1.5140    0.0000 C   0  0  0  0  0  0  0  0  0  0  0  0
    7.6279    1.9500    0.0000 C   0  0  0  0  0  0  0  0  0  0  0  0
   12.1279   -2.3801    0.0000 C   0  0  0  0  0  0  0  0  0  0  0  0
    7.1279    2.8161    0.0000 C   0  0  0  0  0  0  0  0  0  0  0  0
   13.1166   -2.4831    0.0000 C   0  0  0  0  0  0  0  0  0  0  0  0
   11.7228   -3.2879    0.0000 C   0  0  0  0  0  0  0  0  0  0  0  0
   13.3228   -3.4616    0.0000 C   0  0  0  0  0  0  0  0  0  0  0  0
    5.5443    3.6208    0.0000 C   0  0  0  0  0  0  0  0  0  0  0  0
    5.5443    2.0113    0.0000 C   0  0  0  0  0  0  0  0  0  0  0  0
    4.5981    3.3161    0.0000 C   0  0  0  0  0  0  0  0  0  0  0  0
    4.5981    2.3161    0.0000 C   0  0  0  0  0  0  0  0  0  0  0  0
   13.8609   -1.8153    0.0000 C   0  0  0  0  0  0  0  0  0  0  0  0
   14.2734   -3.7723    0.0000 C   0  0  0  0  0  0  0  0  0  0  0  0
    3.7320    3.8161    0.0000 C   0  0  0  0  0  0  0  0  0  0  0  0
    3.7320    1.8161    0.0000 C   0  0  0  0  0  0  0  0  0  0  0  0
    2.8660    3.3161    0.0000 C   0  0  0  0  0  0  0  0  0  0  0  0
   14.8115   -2.1260    0.0000 C   0  0  0  0  0  0  0  0  0  0  0  0
   15.0177   -3.1045    0.0000 C   0  0  0  0  0  0  0  0  0  0  0  0
    2.8660    2.3161    0.0000 C   0  0  0  0  0  0  0  0  0  0  0  0
    2.0000    3.8161    0.0000 C   0  0  0  0  0  0  0  0  0  0  0  0
   12.2105    0.4300    0.0000 H   0  0  0  0  0  0  0  0  0  0  0  0
   11.5202    0.8286    0.0000 H   0  0  0  0  0  0  0  0  0  0  0  0
   10.7105    1.2961    0.0000 H   0  0  0  0  0  0  0  0  0  0  0  0
   10.0202    1.6946    0.0000 H   0  0  0  0  0  0  0  0  0  0  0  0
   12.6029   -1.0466    0.0000 H   0  0  0  0  0  0  0  0  0  0  0  0
   12.6029   -0.2495    0.0000 H   0  0  0  0  0  0  0  0  0  0  0  0
    8.5453    0.8720    0.0000 H   0  0  0  0  0  0  0  0  0  0  0  0
    9.2356    0.4734    0.0000 H   0  0  0  0  0  0  0  0  0  0  0  0
    9.6530   -0.2495    0.0000 H   0  0  0  0  0  0  0  0  0  0  0  0
    9.6530   -1.0466    0.0000 H   0  0  0  0  0  0  0  0  0  0  0  0
    9.2105    2.1621    0.0000 H   0  0  0  0  0  0  0  0  0  0  0  0
    8.5202    2.5606    0.0000 H   0  0  0  0  0  0  0  0  0  0  0  0
   10.3179   -2.0510    0.0000 H   0  0  0  0  0  0  0  0  0  0  0  0
    7.0453    1.7380    0.0000 H   0  0  0  0  0  0  0  0  0  0  0  0
    7.7356    1.3395    0.0000 H   0  0  0  0  0  0  0  0  0  0  0  0
    7.7105    3.0281    0.0000 H   0  0  0  0  0  0  0  0  0  0  0  0
    7.0202    3.4266    0.0000 H   0  0  0  0  0  0  0  0  0  0  0  0
   11.1161   -3.4157    0.0000 H   0  0  0  0  0  0  0  0  0  0  0  0
   12.3929   -4.5713    0.0000 H   0  0  0  0  0  0  0  0  0  0  0  0
   13.7331   -1.2086    0.0000 H   0  0  0  0  0  0  0  0  0  0  0  0
   14.4012   -4.3790    0.0000 H   0  0  0  0  0  0  0  0  0  0  0  0
    3.7320    4.4361    0.0000 H   0  0  0  0  0  0  0  0  0  0  0  0
    3.7320    1.1961    0.0000 H   0  0  0  0  0  0  0  0  0  0  0  0
   15.6070   -3.2971    0.0000 H   0  0  0  0  0  0  0  0  0  0  0  0
    2.3291    2.0061    0.0000 H   0  0  0  0  0  0  0  0  0  0  0  0
    2.3100    4.3530    0.0000 H   0  0  0  0  0  0  0  0  0  0  0  0
    1.4631    4.1261    0.0000 H   0  0  0  0  0  0  0  0  0  0  0  0
    1.6900    3.2791    0.0000 H   0  0  0  0  0  0  0  0  0  0  0  0
  1 30  1  0  0  0  0
  2 21  2  0  0  0  0
  3 22  2  0  0  0  0
  4  7  1  0  0  0  0
  4  8  1  0  0  0  0
  4 11  1  0  0  0  0
  5 17  1  0  0  0  0
  5 21  1  0  0  0  0
  5 22  1  0  0  0  0
  6 19  1  0  0  0  0
  6 20  1  0  0  0  0
  6 52  1  0  0  0  0
  7  9  1  0  0  0  0
  7 34  1  0  0  0  0
  7 35  1  0  0  0  0
  8 10  1  0  0  0  0
  8 36  1  0  0  0  0
  8 37  1  0  0  0  0
  9 12  1  0  0  0  0
  9 38  1  0  0  0  0
  9 39  1  0  0  0  0
 10 13  1  0  0  0  0
 10 40  1  0  0  0  0
 10 41  1  0  0  0  0
 11 14  1  0  0  0  0
 11 42  1  0  0  0  0
 11 43  1  0  0  0  0
 12 14  2  0  0  0  0
 12 16  1  0  0  0  0
 13 15  1  0  0  0  0
 13 44  1  0  0  0  0
 13 45  1  0  0  0  0
 14 46  1  0  0  0  0
 15 17  1  0  0  0  0
 15 47  1  0  0  0  0
 15 48  1  0  0  0  0
 16 18  1  0  0  0  0
 16 19  2  0  0  0  0
 17 49  1  0  0  0  0
 17 50  1  0  0  0  0
 18 20  2  0  0  0  0
 18 25  1  0  0  0  0
 19 51  1  0  0  0  0
 20 26  1  0  0  0  0
 21 23  1  0  0  0  0
 22 24  1  0  0  0  0
 23 24  2  0  0  0  0
 23 27  1  0  0  0  0
 24 28  1  0  0  0  0
 25 30  2  0  0  0  0
 25 53  1  0  0  0  0
 26 31  2  0  0  0  0
 26 54  1  0  0  0  0
 27 29  2  0  0  0  0
 27 55  1  0  0  0  0
 28 32  2  0  0  0  0
 28 56  1  0  0  0  0
 29 32  1  0  0  0  0
 29 33  1  0  0  0  0
 30 31  1  0  0  0  0
 31 57  1  0  0  0  0
 32 58  1  0  0  0  0
 33 59  1  0  0  0  0
 33 60  1  0  0  0  0
 33 61  1  0  0  0  0
M  END
> <PUBCHEM_COMPOUND_CID>
44353234

> <PUBCHEM_COMPOUND_CANONICALIZED>
1

> <PUBCHEM_CACTVS_COMPLEXITY>
771

> <PUBCHEM_CACTVS_HBOND_ACCEPTOR>
4

> <PUBCHEM_CACTVS_HBOND_DONOR>
1

> <PUBCHEM_CACTVS_ROTATABLE_BOND>
7

> <PUBCHEM_CACTVS_SUBSKEYS>
AAADceB7MQAAAAAAAAAAAAAAAAAAAWLAAAAwYIAAAAAAAFgB9AAAHwAQAAAADAjBngw+wPPJkACoAzV3VACCgCA1AiAI2aE4ZNgIIPLAlZGEIQhgliDIyYcdiMCOwAACAAASAACAAAQAACQAAAAAAAAAAA==

> <PUBCHEM_IUPAC_OPENEYE_NAME>
2-[5-[4-(5-fluoro-1H-indol-3-yl)-3,6-dihydro-2H-pyridin-1-yl]pentyl]-5-methyl-isoindoline-1,3-dione

> <PUBCHEM_IUPAC_CAS_NAME>
2-[5-[4-(5-fluoro-1H-indol-3-yl)-3,6-dihydro-2H-pyridin-1-yl]pentyl]-5-methylisoindole-1,3-dione

> <PUBCHEM_IUPAC_NAME_MARKUP>
2-[5-[4-(5-fluoro-1<I>H</I>-indol-3-yl)-3,6-dihydro-2<I>H</I>-pyridin-1-yl]pentyl]-5-methylisoindole-1,3-dione

> <PUBCHEM_IUPAC_NAME>
2-[5-[4-(5-fluoro-1H-indol-3-yl)-3,6-dihydro-2H-pyridin-1-yl]pentyl]-5-methylisoindole-1,3-dione

> <PUBCHEM_IUPAC_SYSTEMATIC_NAME>
2-[5-[4-(5-fluoranyl-1H-indol-3-yl)-3,6-dihydro-2H-pyridin-1-yl]pentyl]-5-methyl-isoindole-1,3-dione

> <PUBCHEM_IUPAC_TRADITIONAL_NAME>
2-[5-[4-(5-fluoro-1H-indol-3-yl)-3,6-dihydro-2H-pyridin-1-yl]pentyl]-5-methyl-isoindoline-1,3-quinone

> <PUBCHEM_IUPAC_INCHI>
InChI=1S/C27H28FN3O2/c1-18-5-7-21-23(15-18)27(33)31(26(21)32)12-4-2-3-11-30-13-9-19(10-14-30)24-17-29-25-8-6-20(28)16-22(24)25/h5-9,15-17,29H,2-4,10-14H2,1H3

> <PUBCHEM_IUPAC_INCHIKEY>
QDSYGDXQPACKLI-UHFFFAOYSA-N

> <PUBCHEM_XLOGP3_AA>
4.5

> <PUBCHEM_EXACT_MASS>
445.21655531

> <PUBCHEM_MOLECULAR_FORMULA>
C27H28FN3O2

> <PUBCHEM_MOLECULAR_WEIGHT>
445.5

> <PUBCHEM_OPENEYE_CAN_SMILES>
CC1=CC2=C(C=C1)C(=O)N(C2=O)CCCCCN3CCC(=CC3)C4=CNC5=C4C=C(C=C5)F

> <PUBCHEM_OPENEYE_ISO_SMILES>
CC1=CC2=C(C=C1)C(=O)N(C2=O)CCCCCN3CCC(=CC3)C4=CNC5=C4C=C(C=C5)F

> <PUBCHEM_CACTVS_TPSA>
56.4

> <PUBCHEM_MONOISOTOPIC_WEIGHT>
445.21655531

> <PUBCHEM_TOTAL_CHARGE>
0

> <PUBCHEM_HEAVY_ATOM_COUNT>
33

> <PUBCHEM_ATOM_DEF_STEREO_COUNT>
0

> <PUBCHEM_ATOM_UDEF_STEREO_COUNT>
0

> <PUBCHEM_BOND_DEF_STEREO_COUNT>
0

> <PUBCHEM_BOND_UDEF_STEREO_COUNT>
0

> <PUBCHEM_ISOTOPIC_ATOM_COUNT>
0

> <PUBCHEM_COMPONENT_COUNT>
1

> <PUBCHEM_CACTVS_TAUTO_COUNT>
-1

> <PUBCHEM_COORDINATE_TYPE>
1
5
255

> <PUBCHEM_BONDANNOTATIONS>
16  18  8
16  19  8
18  20  8
18  25  8
20  26  8
23  24  8
23  27  8
24  28  8
25  30  8
26  31  8
27  29  8
28  32  8
29  32  8
30  31  8
6  19  8
6  20  8

$$$$
