118709159
  -OEChem-09292322352D

106111  0     0  0  0  0  0  0999 V2000
    2.5981   -1.7320    0.0000 Cl  0  0  0  0  0  0  0  0  0  0  0  0
   11.5981    1.7320    0.0000 Cl  0  0  0  0  0  0  0  0  0  0  0  0
    2.8660   10.7321    0.0000 F   0  0  0  0  0  0  0  0  0  0  0  0
    7.8660  -10.7321    0.0000 F   0  0  0  0  0  0  0  0  0  0  0  0
    5.0981    0.8660    0.0000 O   0  0  0  0  0  0  0  0  0  0  0  0
    9.0981   -0.8660    0.0000 O   0  0  0  0  0  0  0  0  0  0  0  0
    6.5981    1.7320    0.0000 O   0  0  0  0  0  0  0  0  0  0  0  0
    7.5981   -1.7320    0.0000 O   0  0  0  0  0  0  0  0  0  0  0  0
    2.0000    6.2320    0.0000 O   0  0  0  0  0  0  0  0  0  0  0  0
    7.0000   -6.2320    0.0000 O   0  0  0  0  0  0  0  0  0  0  0  0
    4.5981    3.7320    0.0000 N   0  0  0  0  0  0  0  0  0  0  0  0
    9.5981   -3.7320    0.0000 N   0  0  0  0  0  0  0  0  0  0  0  0
    4.5981    1.7320    0.0000 C   0  0  0  0  0  0  0  0  0  0  0  0
    9.5981   -1.7320    0.0000 C   0  0  0  0  0  0  0  0  0  0  0  0
    3.7320    2.2320    0.0000 C   0  0  0  0  0  0  0  0  0  0  0  0
    5.4641    2.2320    0.0000 C   0  0  0  0  0  0  0  0  0  0  0  0
   10.4641   -2.2320    0.0000 C   0  0  0  0  0  0  0  0  0  0  0  0
    8.7320   -2.2320    0.0000 C   0  0  0  0  0  0  0  0  0  0  0  0
    3.7320    3.2320    0.0000 C   0  0  0  0  0  0  0  0  0  0  0  0
    5.4641    3.2320    0.0000 C   0  0  0  0  0  0  0  0  0  0  0  0
   10.4641   -3.2320    0.0000 C   0  0  0  0  0  0  0  0  0  0  0  0
    8.7320   -3.2320    0.0000 C   0  0  0  0  0  0  0  0  0  0  0  0
    4.0981    0.8660    0.0000 C   0  0  0  0  0  0  0  0  0  0  0  0
   10.0981   -0.8660    0.0000 C   0  0  0  0  0  0  0  0  0  0  0  0
    4.5981    4.7320    0.0000 C   0  0  0  0  0  0  0  0  0  0  0  0
    9.5981   -4.7320    0.0000 C   0  0  0  0  0  0  0  0  0  0  0  0
    3.7320    5.2320    0.0000 C   0  0  0  0  0  0  0  0  0  0  0  0
    8.7320   -5.2320    0.0000 C   0  0  0  0  0  0  0  0  0  0  0  0
    4.5981   -0.0000    0.0000 C   0  0  0  0  0  0  0  0  0  0  0  0
    9.5981    0.0000    0.0000 C   0  0  0  0  0  0  0  0  0  0  0  0
    3.0981    0.8660    0.0000 C   0  0  0  0  0  0  0  0  0  0  0  0
   11.0981   -0.8660    0.0000 C   0  0  0  0  0  0  0  0  0  0  0  0
    6.0981    0.8660    0.0000 C   0  0  0  0  0  0  0  0  0  0  0  0
    8.0981   -0.8660    0.0000 C   0  0  0  0  0  0  0  0  0  0  0  0
    6.5981   -0.0000    0.0000 C   0  0  0  0  0  0  0  0  0  0  0  0
    7.5981   -0.0000    0.0000 C   0  0  0  0  0  0  0  0  0  0  0  0
    3.7320    6.2320    0.0000 C   0  0  0  0  0  0  0  0  0  0  0  0
    8.7320   -6.2320    0.0000 C   0  0  0  0  0  0  0  0  0  0  0  0
    4.0981   -0.8660    0.0000 C   0  0  0  0  0  0  0  0  0  0  0  0
   10.0981    0.8660    0.0000 C   0  0  0  0  0  0  0  0  0  0  0  0
    2.5981   -0.0000    0.0000 C   0  0  0  0  0  0  0  0  0  0  0  0
   11.5981   -0.0000    0.0000 C   0  0  0  0  0  0  0  0  0  0  0  0
    3.0981   -0.8660    0.0000 C   0  0  0  0  0  0  0  0  0  0  0  0
   11.0981    0.8660    0.0000 C   0  0  0  0  0  0  0  0  0  0  0  0
    2.8660    6.7320    0.0000 C   0  0  0  0  0  0  0  0  0  0  0  0
    7.8660   -6.7320    0.0000 C   0  0  0  0  0  0  0  0  0  0  0  0
    2.8660    7.7320    0.0000 C   0  0  0  0  0  0  0  0  0  0  0  0
    7.8660   -7.7320    0.0000 C   0  0  0  0  0  0  0  0  0  0  0  0
    2.0000    8.2320    0.0000 C   0  0  0  0  0  0  0  0  0  0  0  0
    7.0000   -8.2320    0.0000 C   0  0  0  0  0  0  0  0  0  0  0  0
    3.7320    8.2320    0.0000 C   0  0  0  0  0  0  0  0  0  0  0  0
    8.7320   -8.2320    0.0000 C   0  0  0  0  0  0  0  0  0  0  0  0
    2.0000    9.2320    0.0000 C   0  0  0  0  0  0  0  0  0  0  0  0
    7.0000   -9.2320    0.0000 C   0  0  0  0  0  0  0  0  0  0  0  0
    3.7320    9.2320    0.0000 C   0  0  0  0  0  0  0  0  0  0  0  0
    8.7320   -9.2320    0.0000 C   0  0  0  0  0  0  0  0  0  0  0  0
    2.8660    9.7320    0.0000 C   0  0  0  0  0  0  0  0  0  0  0  0
    7.8660   -9.7320    0.0000 C   0  0  0  0  0  0  0  0  0  0  0  0
    3.1215    2.3397    0.0000 H   0  0  0  0  0  0  0  0  0  0  0  0
    3.5200    1.6494    0.0000 H   0  0  0  0  0  0  0  0  0  0  0  0
    5.6762    1.6494    0.0000 H   0  0  0  0  0  0  0  0  0  0  0  0
    6.0747    2.3397    0.0000 H   0  0  0  0  0  0  0  0  0  0  0  0
   11.0747   -2.3397    0.0000 H   0  0  0  0  0  0  0  0  0  0  0  0
   10.6762   -1.6494    0.0000 H   0  0  0  0  0  0  0  0  0  0  0  0
    8.5200   -1.6494    0.0000 H   0  0  0  0  0  0  0  0  0  0  0  0
    8.1215   -2.3397    0.0000 H   0  0  0  0  0  0  0  0  0  0  0  0
    3.5200    3.8147    0.0000 H   0  0  0  0  0  0  0  0  0  0  0  0
    3.1215    3.1244    0.0000 H   0  0  0  0  0  0  0  0  0  0  0  0
    6.0747    3.1244    0.0000 H   0  0  0  0  0  0  0  0  0  0  0  0
    5.6762    3.8147    0.0000 H   0  0  0  0  0  0  0  0  0  0  0  0
   10.6762   -3.8147    0.0000 H   0  0  0  0  0  0  0  0  0  0  0  0
   11.0747   -3.1244    0.0000 H   0  0  0  0  0  0  0  0  0  0  0  0
    8.1215   -3.1244    0.0000 H   0  0  0  0  0  0  0  0  0  0  0  0
    8.5200   -3.8147    0.0000 H   0  0  0  0  0  0  0  0  0  0  0  0
    5.2087    4.6244    0.0000 H   0  0  0  0  0  0  0  0  0  0  0  0
    4.8101    5.3147    0.0000 H   0  0  0  0  0  0  0  0  0  0  0  0
    9.8101   -5.3147    0.0000 H   0  0  0  0  0  0  0  0  0  0  0  0
   10.2087   -4.6244    0.0000 H   0  0  0  0  0  0  0  0  0  0  0  0
    3.1215    5.3397    0.0000 H   0  0  0  0  0  0  0  0  0  0  0  0
    3.5200    4.6494    0.0000 H   0  0  0  0  0  0  0  0  0  0  0  0
    8.5200   -4.6494    0.0000 H   0  0  0  0  0  0  0  0  0  0  0  0
    8.1215   -5.3397    0.0000 H   0  0  0  0  0  0  0  0  0  0  0  0
    5.2181   -0.0000    0.0000 H   0  0  0  0  0  0  0  0  0  0  0  0
    8.9781    0.0000    0.0000 H   0  0  0  0  0  0  0  0  0  0  0  0
    2.7881    1.4030    0.0000 H   0  0  0  0  0  0  0  0  0  0  0  0
   11.4081   -1.4030    0.0000 H   0  0  0  0  0  0  0  0  0  0  0  0
    6.0155   -0.2121    0.0000 H   0  0  0  0  0  0  0  0  0  0  0  0
    6.7057   -0.6106    0.0000 H   0  0  0  0  0  0  0  0  0  0  0  0
    8.1807    0.2121    0.0000 H   0  0  0  0  0  0  0  0  0  0  0  0
    7.4904    0.6106    0.0000 H   0  0  0  0  0  0  0  0  0  0  0  0
    4.3426    6.1244    0.0000 H   0  0  0  0  0  0  0  0  0  0  0  0
    3.9441    6.8147    0.0000 H   0  0  0  0  0  0  0  0  0  0  0  0
    8.9441   -6.8147    0.0000 H   0  0  0  0  0  0  0  0  0  0  0  0
    9.3426   -6.1244    0.0000 H   0  0  0  0  0  0  0  0  0  0  0  0
    4.4081   -1.4030    0.0000 H   0  0  0  0  0  0  0  0  0  0  0  0
    9.7881    1.4030    0.0000 H   0  0  0  0  0  0  0  0  0  0  0  0
    1.9781   -0.0000    0.0000 H   0  0  0  0  0  0  0  0  0  0  0  0
   12.2181   -0.0000    0.0000 H   0  0  0  0  0  0  0  0  0  0  0  0
    1.4631    7.9220    0.0000 H   0  0  0  0  0  0  0  0  0  0  0  0
    6.4631   -7.9220    0.0000 H   0  0  0  0  0  0  0  0  0  0  0  0
    4.2690    7.9220    0.0000 H   0  0  0  0  0  0  0  0  0  0  0  0
    9.2690   -7.9220    0.0000 H   0  0  0  0  0  0  0  0  0  0  0  0
    1.4631    9.5420    0.0000 H   0  0  0  0  0  0  0  0  0  0  0  0
    6.4631   -9.5420    0.0000 H   0  0  0  0  0  0  0  0  0  0  0  0
    4.2690    9.5420    0.0000 H   0  0  0  0  0  0  0  0  0  0  0  0
    9.2690   -9.5420    0.0000 H   0  0  0  0  0  0  0  0  0  0  0  0
  1 43  1  0  0  0  0
  2 44  1  0  0  0  0
  3 57  1  0  0  0  0
  4 58  1  0  0  0  0
  5 13  1  0  0  0  0
  5 33  1  0  0  0  0
  6 14  1  0  0  0  0
  6 34  1  0  0  0  0
  7 33  2  0  0  0  0
  8 34  2  0  0  0  0
  9 45  2  0  0  0  0
 10 46  2  0  0  0  0
 11 19  1  0  0  0  0
 11 20  1  0  0  0  0
 11 25  1  0  0  0  0
 12 21  1  0  0  0  0
 12 22  1  0  0  0  0
 12 26  1  0  0  0  0
 13 15  1  0  0  0  0
 13 16  1  0  0  0  0
 13 23  1  0  0  0  0
 14 17  1  0  0  0  0
 14 18  1  0  0  0  0
 14 24  1  0  0  0  0
 15 19  1  0  0  0  0
 15 59  1  0  0  0  0
 15 60  1  0  0  0  0
 16 20  1  0  0  0  0
 16 61  1  0  0  0  0
 16 62  1  0  0  0  0
 17 21  1  0  0  0  0
 17 63  1  0  0  0  0
 17 64  1  0  0  0  0
 18 22  1  0  0  0  0
 18 65  1  0  0  0  0
 18 66  1  0  0  0  0
 19 67  1  0  0  0  0
 19 68  1  0  0  0  0
 20 69  1  0  0  0  0
 20 70  1  0  0  0  0
 21 71  1  0  0  0  0
 21 72  1  0  0  0  0
 22 73  1  0  0  0  0
 22 74  1  0  0  0  0
 23 29  2  0  0  0  0
 23 31  1  0  0  0  0
 24 30  2  0  0  0  0
 24 32  1  0  0  0  0
 25 27  1  0  0  0  0
 25 75  1  0  0  0  0
 25 76  1  0  0  0  0
 26 28  1  0  0  0  0
 26 77  1  0  0  0  0
 26 78  1  0  0  0  0
 27 37  1  0  0  0  0
 27 79  1  0  0  0  0
 27 80  1  0  0  0  0
 28 38  1  0  0  0  0
 28 81  1  0  0  0  0
 28 82  1  0  0  0  0
 29 39  1  0  0  0  0
 29 83  1  0  0  0  0
 30 40  1  0  0  0  0
 30 84  1  0  0  0  0
 31 41  2  0  0  0  0
 31 85  1  0  0  0  0
 32 42  2  0  0  0  0
 32 86  1  0  0  0  0
 33 35  1  0  0  0  0
 34 36  1  0  0  0  0
 35 36  1  0  0  0  0
 35 87  1  0  0  0  0
 35 88  1  0  0  0  0
 36 89  1  0  0  0  0
 36 90  1  0  0  0  0
 37 45  1  0  0  0  0
 37 91  1  0  0  0  0
 37 92  1  0  0  0  0
 38 46  1  0  0  0  0
 38 93  1  0  0  0  0
 38 94  1  0  0  0  0
 39 43  2  0  0  0  0
 39 95  1  0  0  0  0
 40 44  2  0  0  0  0
 40 96  1  0  0  0  0
 41 43  1  0  0  0  0
 41 97  1  0  0  0  0
 42 44  1  0  0  0  0
 42 98  1  0  0  0  0
 45 47  1  0  0  0  0
 46 48  1  0  0  0  0
 47 49  2  0  0  0  0
 47 51  1  0  0  0  0
 48 50  2  0  0  0  0
 48 52  1  0  0  0  0
 49 53  1  0  0  0  0
 49 99  1  0  0  0  0
 50 54  1  0  0  0  0
 50100  1  0  0  0  0
 51 55  2  0  0  0  0
 51101  1  0  0  0  0
 52 56  2  0  0  0  0
 52102  1  0  0  0  0
 53 57  2  0  0  0  0
 53103  1  0  0  0  0
 54 58  2  0  0  0  0
 54104  1  0  0  0  0
 55 57  1  0  0  0  0
 55105  1  0  0  0  0
 56 58  1  0  0  0  0
 56106  1  0  0  0  0
M  END
> <PUBCHEM_COMPOUND_CID>
118709159

> <PUBCHEM_COMPOUND_CANONICALIZED>
1

> <PUBCHEM_CACTVS_COMPLEXITY>
1220

> <PUBCHEM_CACTVS_HBOND_ACCEPTOR>
10

> <PUBCHEM_CACTVS_HBOND_DONOR>
0

> <PUBCHEM_CACTVS_ROTATABLE_BOND>
19

> <PUBCHEM_CACTVS_SUBSKEYS>
AAADcfB/OYAGAAAAAAAAAAAAAAAAAAAAAAA8eMGCAAAAAAABVAAAHwIAAAAADEbBmCwwCIMABACIAqDSCAACAAAkBQAIiAEICsgIJjKBtxiGMQAmwAGIqYffyOCOhAAAAAAAAAAIAAAAAAAAAAAAAAAAAA==

> <PUBCHEM_IUPAC_OPENEYE_NAME>
bis[4-(4-chlorophenyl)-1-[4-(4-fluorophenyl)-4-oxo-butyl]-4-piperidyl] butanedioate

> <PUBCHEM_IUPAC_CAS_NAME>
butanedioic acid bis[4-(4-chlorophenyl)-1-[4-(4-fluorophenyl)-4-oxobutyl]-4-piperidinyl] ester

> <PUBCHEM_IUPAC_NAME_MARKUP>
bis[4-(4-chlorophenyl)-1-[4-(4-fluorophenyl)-4-oxobutyl]piperidin-4-yl] butanedioate

> <PUBCHEM_IUPAC_NAME>
bis[4-(4-chlorophenyl)-1-[4-(4-fluorophenyl)-4-oxobutyl]piperidin-4-yl] butanedioate

> <PUBCHEM_IUPAC_SYSTEMATIC_NAME>
bis[4-(4-chlorophenyl)-1-[4-(4-fluorophenyl)-4-oxidanylidene-butyl]piperidin-4-yl] butanedioate

> <PUBCHEM_IUPAC_TRADITIONAL_NAME>
succinic acid bis[4-(4-chlorophenyl)-1-[4-(4-fluorophenyl)-4-keto-butyl]-4-piperidyl] ester

> <PUBCHEM_IUPAC_INCHI>
InChI=1S/C46H48Cl2F2N2O6/c47-37-13-9-35(10-14-37)45(23-29-51(30-24-45)27-1-3-41(53)33-5-17-39(49)18-6-33)57-43(55)21-22-44(56)58-46(36-11-15-38(48)16-12-36)25-31-52(32-26-46)28-2-4-42(54)34-7-19-40(50)20-8-34/h5-20H,1-4,21-32H2

> <PUBCHEM_IUPAC_INCHIKEY>
FCLHHKLNBKMBPS-UHFFFAOYSA-N

> <PUBCHEM_XLOGP3_AA>
8.4

> <PUBCHEM_EXACT_MASS>
832.2857490

> <PUBCHEM_MOLECULAR_FORMULA>
C46H48Cl2F2N2O6

> <PUBCHEM_MOLECULAR_WEIGHT>
833.8

> <PUBCHEM_OPENEYE_CAN_SMILES>
C1CN(CCC1(C2=CC=C(C=C2)Cl)OC(=O)CCC(=O)OC3(CCN(CC3)CCCC(=O)C4=CC=C(C=C4)F)C5=CC=C(C=C5)Cl)CCCC(=O)C6=CC=C(C=C6)F

> <PUBCHEM_OPENEYE_ISO_SMILES>
C1CN(CCC1(C2=CC=C(C=C2)Cl)OC(=O)CCC(=O)OC3(CCN(CC3)CCCC(=O)C4=CC=C(C=C4)F)C5=CC=C(C=C5)Cl)CCCC(=O)C6=CC=C(C=C6)F

> <PUBCHEM_CACTVS_TPSA>
93.2

> <PUBCHEM_MONOISOTOPIC_WEIGHT>
832.2857490

> <PUBCHEM_TOTAL_CHARGE>
0

> <PUBCHEM_HEAVY_ATOM_COUNT>
58

> <PUBCHEM_ATOM_DEF_STEREO_COUNT>
0

> <PUBCHEM_ATOM_UDEF_STEREO_COUNT>
0

> <PUBCHEM_BOND_DEF_STEREO_COUNT>
0

> <PUBCHEM_BOND_UDEF_STEREO_COUNT>
0

> <PUBCHEM_ISOTOPIC_ATOM_COUNT>
0

> <PUBCHEM_COMPONENT_COUNT>
1

> <PUBCHEM_CACTVS_TAUTO_COUNT>
-1

> <PUBCHEM_COORDINATE_TYPE>
1
5
255

> <PUBCHEM_BONDANNOTATIONS>
23  29  8
23  31  8
24  30  8
24  32  8
29  39  8
30  40  8
31  41  8
32  42  8
39  43  8
40  44  8
41  43  8
42  44  8
47  49  8
47  51  8
48  50  8
48  52  8
49  53  8
50  54  8
51  55  8
52  56  8
53  57  8
54  58  8
55  57  8
56  58  8

$$$$
