52941076
  -OEChem-09292322042D

 52 53  0     1  0  0  0  0  0999 V2000
    3.7320    0.1791    0.0000 O   0  0  0  0  0  0  0  0  0  0  0  0
    6.3301   -1.3209    0.0000 O   0  0  0  0  0  0  0  0  0  0  0  0
    2.8660   -1.3209    0.0000 O   0  0  0  0  0  0  0  0  0  0  0  0
    2.8660   -3.3209    0.0000 O   0  0  0  0  0  0  0  0  0  0  0  0
    6.4347    2.6736    0.0000 N   0  0  3  0  0  0  0  0  0  0  0  0
    5.4641    0.1791    0.0000 N   0  0  0  0  0  0  0  0  0  0  0  0
    6.3301    1.6791    0.0000 C   0  0  1  0  0  0  0  0  0  0  0  0
    7.2437    1.2724    0.0000 C   0  0  0  0  0  0  0  0  0  0  0  0
    7.9128    2.0155    0.0000 C   0  0  0  0  0  0  0  0  0  0  0  0
    7.4128    2.8815    0.0000 C   0  0  0  0  0  0  0  0  0  0  0  0
    5.4641    1.1791    0.0000 C   0  0  0  0  0  0  0  0  0  0  0  0
    5.6915    3.3428    0.0000 C   0  0  0  0  0  0  0  0  0  0  0  0
    5.8994    4.3209    0.0000 C   0  0  0  0  0  0  0  0  0  0  0  0
    4.5981   -0.3209    0.0000 C   0  0  0  0  0  0  0  0  0  0  0  0
    4.5981   -1.3209    0.0000 C   0  0  0  0  0  0  0  0  0  0  0  0
    5.4641   -1.8209    0.0000 C   0  0  0  0  0  0  0  0  0  0  0  0
    3.7320   -1.8209    0.0000 C   0  0  0  0  0  0  0  0  0  0  0  0
    5.4641   -2.8209    0.0000 C   0  0  0  0  0  0  0  0  0  0  0  0
    3.7320   -2.8209    0.0000 C   0  0  0  0  0  0  0  0  0  0  0  0
    6.3301   -3.3209    0.0000 C   0  0  0  0  0  0  0  0  0  0  0  0
    4.5981   -3.3209    0.0000 C   0  0  0  0  0  0  0  0  0  0  0  0
    6.3301   -4.3209    0.0000 C   0  0  0  0  0  0  0  0  0  0  0  0
    7.1962   -1.8209    0.0000 C   0  0  0  0  0  0  0  0  0  0  0  0
    2.0000   -1.8209    0.0000 C   0  0  0  0  0  0  0  0  0  0  0  0
    5.8102    2.0168    0.0000 H   0  0  0  0  0  0  0  0  0  0  0  0
    6.9337    0.7354    0.0000 H   0  0  0  0  0  0  0  0  0  0  0  0
    7.7453    0.9079    0.0000 H   0  0  0  0  0  0  0  0  0  0  0  0
    8.3277    1.5548    0.0000 H   0  0  0  0  0  0  0  0  0  0  0  0
    8.4144    2.3799    0.0000 H   0  0  0  0  0  0  0  0  0  0  0  0
    7.9792    3.1337    0.0000 H   0  0  0  0  0  0  0  0  0  0  0  0
    7.2212    3.4712    0.0000 H   0  0  0  0  0  0  0  0  0  0  0  0
    5.2520    1.7617    0.0000 H   0  0  0  0  0  0  0  0  0  0  0  0
    4.8535    1.0714    0.0000 H   0  0  0  0  0  0  0  0  0  0  0  0
    5.1167    3.5750    0.0000 H   0  0  0  0  0  0  0  0  0  0  0  0
    5.3630    2.8170    0.0000 H   0  0  0  0  0  0  0  0  0  0  0  0
    6.0010   -0.1309    0.0000 H   0  0  0  0  0  0  0  0  0  0  0  0
    6.5059    4.1920    0.0000 H   0  0  0  0  0  0  0  0  0  0  0  0
    6.0283    4.9274    0.0000 H   0  0  0  0  0  0  0  0  0  0  0  0
    5.2930    4.4498    0.0000 H   0  0  0  0  0  0  0  0  0  0  0  0
    6.9407   -3.4286    0.0000 H   0  0  0  0  0  0  0  0  0  0  0  0
    6.5422   -2.7383    0.0000 H   0  0  0  0  0  0  0  0  0  0  0  0
    4.5981   -3.9409    0.0000 H   0  0  0  0  0  0  0  0  0  0  0  0
    5.7101   -4.3209    0.0000 H   0  0  0  0  0  0  0  0  0  0  0  0
    6.3301   -4.9409    0.0000 H   0  0  0  0  0  0  0  0  0  0  0  0
    6.9501   -4.3209    0.0000 H   0  0  0  0  0  0  0  0  0  0  0  0
    6.8862   -2.3578    0.0000 H   0  0  0  0  0  0  0  0  0  0  0  0
    7.7331   -2.1309    0.0000 H   0  0  0  0  0  0  0  0  0  0  0  0
    7.5062   -1.2840    0.0000 H   0  0  0  0  0  0  0  0  0  0  0  0
    2.8660   -3.9409    0.0000 H   0  0  0  0  0  0  0  0  0  0  0  0
    1.6900   -1.2840    0.0000 H   0  0  0  0  0  0  0  0  0  0  0  0
    1.4631   -2.1309    0.0000 H   0  0  0  0  0  0  0  0  0  0  0  0
    2.3100   -2.3578    0.0000 H   0  0  0  0  0  0  0  0  0  0  0  0
  1 14  2  0  0  0  0
  2 16  1  0  0  0  0
  2 23  1  0  0  0  0
  3 17  1  0  0  0  0
  3 24  1  0  0  0  0
  4 19  1  0  0  0  0
  4 49  1  0  0  0  0
  5  7  1  0  0  0  0
  5 10  1  0  0  0  0
  5 12  1  0  0  0  0
  6 11  1  0  0  0  0
  6 14  1  0  0  0  0
  6 36  1  0  0  0  0
  7  8  1  0  0  0  0
  7 11  1  1  0  0  0
  7 25  1  0  0  0  0
  8  9  1  0  0  0  0
  8 26  1  0  0  0  0
  8 27  1  0  0  0  0
  9 10  1  0  0  0  0
  9 28  1  0  0  0  0
  9 29  1  0  0  0  0
 10 30  1  0  0  0  0
 10 31  1  0  0  0  0
 11 32  1  0  0  0  0
 11 33  1  0  0  0  0
 12 13  1  0  0  0  0
 12 34  1  0  0  0  0
 12 35  1  0  0  0  0
 13 37  1  0  0  0  0
 13 38  1  0  0  0  0
 13 39  1  0  0  0  0
 14 15  1  0  0  0  0
 15 16  2  0  0  0  0
 15 17  1  0  0  0  0
 16 18  1  0  0  0  0
 17 19  2  0  0  0  0
 18 20  1  0  0  0  0
 18 21  2  0  0  0  0
 19 21  1  0  0  0  0
 20 22  1  0  0  0  0
 20 40  1  0  0  0  0
 20 41  1  0  0  0  0
 21 42  1  0  0  0  0
 22 43  1  0  0  0  0
 22 44  1  0  0  0  0
 22 45  1  0  0  0  0
 23 46  1  0  0  0  0
 23 47  1  0  0  0  0
 23 48  1  0  0  0  0
 24 50  1  0  0  0  0
 24 51  1  0  0  0  0
 24 52  1  0  0  0  0
M  END
> <PUBCHEM_COMPOUND_CID>
52941076

> <PUBCHEM_COMPOUND_CANONICALIZED>
1

> <PUBCHEM_CACTVS_COMPLEXITY>
407

> <PUBCHEM_CACTVS_HBOND_ACCEPTOR>
5

> <PUBCHEM_CACTVS_HBOND_DONOR>
2

> <PUBCHEM_CACTVS_ROTATABLE_BOND>
7

> <PUBCHEM_CACTVS_SUBSKEYS>
AAADceB7OAAAAAAAAAAAAAAAAAAAAWAAAAAwAAAAAAAAAAABAAAAHgAQCAAADCzBmAYyBoPABgCIAiFSEACCCAAkIAAAiIEOjMgNZzaGtRuUcWtn9hWLuQf66PyOIQADCAAIQABCAAYQABCAAAAAAAAAAA==

> <PUBCHEM_IUPAC_OPENEYE_NAME>
3-ethyl-N-[[(2S)-1-ethylpyrrolidin-2-yl]methyl]-5-hydroxy-2,6-dimethoxy-benzamide

> <PUBCHEM_IUPAC_CAS_NAME>
3-ethyl-N-[[(2S)-1-ethyl-2-pyrrolidinyl]methyl]-5-hydroxy-2,6-dimethoxybenzamide

> <PUBCHEM_IUPAC_NAME_MARKUP>
3-ethyl-<I>N</I>-[[(2<I>S</I>)-1-ethylpyrrolidin-2-yl]methyl]-5-hydroxy-2,6-dimethoxybenzamide

> <PUBCHEM_IUPAC_NAME>
3-ethyl-N-[[(2S)-1-ethylpyrrolidin-2-yl]methyl]-5-hydroxy-2,6-dimethoxybenzamide

> <PUBCHEM_IUPAC_SYSTEMATIC_NAME>
3-ethyl-N-[[(2S)-1-ethylpyrrolidin-2-yl]methyl]-2,6-dimethoxy-5-oxidanyl-benzamide

> <PUBCHEM_IUPAC_TRADITIONAL_NAME>
3-ethyl-N-[[(2S)-1-ethylpyrrolidin-2-yl]methyl]-5-hydroxy-2,6-dimethoxy-benzamide

> <PUBCHEM_IUPAC_INCHI>
InChI=1S/C18H28N2O4/c1-5-12-10-14(21)17(24-4)15(16(12)23-3)18(22)19-11-13-8-7-9-20(13)6-2/h10,13,21H,5-9,11H2,1-4H3,(H,19,22)/t13-/m0/s1

> <PUBCHEM_IUPAC_INCHIKEY>
PGSFAKCMNLKKDT-ZDUSSCGKSA-N

> <PUBCHEM_XLOGP3>
1.9

> <PUBCHEM_EXACT_MASS>
336.20490738

> <PUBCHEM_MOLECULAR_FORMULA>
C18H28N2O4

> <PUBCHEM_MOLECULAR_WEIGHT>
336.4

> <PUBCHEM_OPENEYE_CAN_SMILES>
CCC1=CC(=C(C(=C1OC)C(=O)NCC2CCCN2CC)OC)O

> <PUBCHEM_OPENEYE_ISO_SMILES>
CCC1=CC(=C(C(=C1OC)C(=O)NC[C@@H]2CCCN2CC)OC)O

> <PUBCHEM_CACTVS_TPSA>
71

> <PUBCHEM_MONOISOTOPIC_WEIGHT>
336.20490738

> <PUBCHEM_TOTAL_CHARGE>
0

> <PUBCHEM_HEAVY_ATOM_COUNT>
24

> <PUBCHEM_ATOM_DEF_STEREO_COUNT>
1

> <PUBCHEM_ATOM_UDEF_STEREO_COUNT>
0

> <PUBCHEM_BOND_DEF_STEREO_COUNT>
0

> <PUBCHEM_BOND_UDEF_STEREO_COUNT>
0

> <PUBCHEM_ISOTOPIC_ATOM_COUNT>
0

> <PUBCHEM_COMPONENT_COUNT>
1

> <PUBCHEM_CACTVS_TAUTO_COUNT>
-1

> <PUBCHEM_COORDINATE_TYPE>
1
5
255

> <PUBCHEM_BONDANNOTATIONS>
15  16  8
15  17  8
16  18  8
17  19  8
18  21  8
19  21  8
7  11  5

$$$$
