44363232
  -OEChem-09292322212D

 77 82  0     1  0  0  0  0  0999 V2000
    8.4469    2.7580    0.0000 S   0  0  0  0  0  0  0  0  0  0  0  0
    9.4469    2.7580    0.0000 O   0  0  0  0  0  0  0  0  0  0  0  0
    7.4469    2.7580    0.0000 O   0  0  0  0  0  0  0  0  0  0  0  0
    8.4469   -1.2420    0.0000 O   0  0  0  0  0  0  0  0  0  0  0  0
    4.2309   -2.4625    0.0000 N   0  0  3  0  0  0  0  0  0  0  0  0
    8.4469    3.7580    0.0000 N   0  0  3  0  0  0  0  0  0  0  0  0
    6.6103   -1.2366    0.0000 N   0  0  0  0  0  0  0  0  0  0  0  0
    3.8936   -3.4039    0.0000 C   0  0  3  0  0  0  0  0  0  0  0  0
    2.9472   -3.7271    0.0000 C   0  0  0  0  0  0  0  0  0  0  0  0
    3.7052   -1.6118    0.0000 C   0  0  0  0  0  0  0  0  0  0  0  0
    2.1045   -3.1888    0.0000 C   0  0  0  0  0  0  0  0  0  0  0  0
    2.7124   -1.4925    0.0000 C   0  0  0  0  0  0  0  0  0  0  0  0
    2.0000   -2.1943    0.0000 C   0  0  0  0  0  0  0  0  0  0  0  0
    5.2254   -2.3580    0.0000 C   0  0  0  0  0  0  0  0  0  0  0  0
    4.5954   -4.1163    0.0000 C   0  0  0  0  0  0  0  0  0  0  0  0
    5.6322   -1.4445    0.0000 C   0  0  0  0  0  0  0  0  0  0  0  0
    4.3293   -5.0803    0.0000 C   0  0  0  0  0  0  0  0  0  0  0  0
    5.5632   -3.8647    0.0000 C   0  0  0  0  0  0  0  0  0  0  0  0
    9.3129    4.2580    0.0000 C   0  0  0  0  0  0  0  0  0  0  0  0
    9.3129    5.2580    0.0000 C   0  0  0  0  0  0  0  0  0  0  0  0
    8.4469    5.7580    0.0000 C   0  0  0  0  0  0  0  0  0  0  0  0
    5.1322   -0.5784    0.0000 C   0  0  0  0  0  0  0  0  0  0  0  0
    7.5809    4.2580    0.0000 C   0  0  0  0  0  0  0  0  0  0  0  0
    6.7148   -0.2420    0.0000 C   0  0  0  0  0  0  0  0  0  0  0  0
    7.5809    5.2580    0.0000 C   0  0  0  0  0  0  0  0  0  0  0  0
    5.8013    0.1647    0.0000 C   0  0  0  0  0  0  0  0  0  0  0  0
    7.5809    0.2580    0.0000 C   0  0  0  0  0  0  0  0  0  0  0  0
    8.4469    1.7580    0.0000 C   0  0  0  0  0  0  0  0  0  0  0  0
    5.0311   -5.7926    0.0000 C   0  0  0  0  0  0  0  0  0  0  0  0
    6.2650   -4.5771    0.0000 C   0  0  0  0  0  0  0  0  0  0  0  0
    7.5809    1.2580    0.0000 C   0  0  0  0  0  0  0  0  0  0  0  0
    5.9990   -5.5410    0.0000 C   0  0  0  0  0  0  0  0  0  0  0  0
    6.6869    3.7233    0.0000 C   0  0  0  0  0  0  0  0  0  0  0  0
    6.6869    5.7926    0.0000 C   0  0  0  0  0  0  0  0  0  0  0  0
    8.4469   -0.2420    0.0000 C   0  0  0  0  0  0  0  0  0  0  0  0
    9.3129    1.2580    0.0000 C   0  0  0  0  0  0  0  0  0  0  0  0
    9.3129    0.2580    0.0000 C   0  0  0  0  0  0  0  0  0  0  0  0
    5.7809    4.2372    0.0000 C   0  0  0  0  0  0  0  0  0  0  0  0
    5.7809    5.2788    0.0000 C   0  0  0  0  0  0  0  0  0  0  0  0
    9.3129   -1.7420    0.0000 C   0  0  0  0  0  0  0  0  0  0  0  0
    4.4991   -3.2705    0.0000 H   0  0  0  0  0  0  0  0  0  0  0  0
    2.5056   -4.1622    0.0000 H   0  0  0  0  0  0  0  0  0  0  0  0
    3.2732   -4.2546    0.0000 H   0  0  0  0  0  0  0  0  0  0  0  0
    4.2920   -1.4115    0.0000 H   0  0  0  0  0  0  0  0  0  0  0  0
    3.6404   -0.9952    0.0000 H   0  0  0  0  0  0  0  0  0  0  0  0
    1.4890   -3.1148    0.0000 H   0  0  0  0  0  0  0  0  0  0  0  0
    1.8954   -3.7724    0.0000 H   0  0  0  0  0  0  0  0  0  0  0  0
    2.9215   -0.9088    0.0000 H   0  0  0  0  0  0  0  0  0  0  0  0
    2.1899   -1.1587    0.0000 H   0  0  0  0  0  0  0  0  0  0  0  0
    1.6741   -1.6668    0.0000 H   0  0  0  0  0  0  0  0  0  0  0  0
    1.4133   -2.3946    0.0000 H   0  0  0  0  0  0  0  0  0  0  0  0
    5.1822   -2.9765    0.0000 H   0  0  0  0  0  0  0  0  0  0  0  0
    5.8270   -2.5080    0.0000 H   0  0  0  0  0  0  0  0  0  0  0  0
    3.7293   -5.2362    0.0000 H   0  0  0  0  0  0  0  0  0  0  0  0
    5.7282   -3.2670    0.0000 H   0  0  0  0  0  0  0  0  0  0  0  0
    9.5250    3.6754    0.0000 H   0  0  0  0  0  0  0  0  0  0  0  0
    9.9235    4.3656    0.0000 H   0  0  0  0  0  0  0  0  0  0  0  0
    9.9235    5.1503    0.0000 H   0  0  0  0  0  0  0  0  0  0  0  0
    9.5250    5.8406    0.0000 H   0  0  0  0  0  0  0  0  0  0  0  0
    7.0711   -1.6514    0.0000 H   0  0  0  0  0  0  0  0  0  0  0  0
    8.8454    6.2329    0.0000 H   0  0  0  0  0  0  0  0  0  0  0  0
    8.0484    6.2329    0.0000 H   0  0  0  0  0  0  0  0  0  0  0  0
    4.5156   -0.5136    0.0000 H   0  0  0  0  0  0  0  0  0  0  0  0
    5.6724    0.7712    0.0000 H   0  0  0  0  0  0  0  0  0  0  0  0
    4.8662   -6.3903    0.0000 H   0  0  0  0  0  0  0  0  0  0  0  0
    6.8651   -4.4211    0.0000 H   0  0  0  0  0  0  0  0  0  0  0  0
    7.0439    1.5680    0.0000 H   0  0  0  0  0  0  0  0  0  0  0  0
    6.4341   -5.9827    0.0000 H   0  0  0  0  0  0  0  0  0  0  0  0
    6.6941    3.1034    0.0000 H   0  0  0  0  0  0  0  0  0  0  0  0
    6.6941    6.4126    0.0000 H   0  0  0  0  0  0  0  0  0  0  0  0
    9.8498    1.5680    0.0000 H   0  0  0  0  0  0  0  0  0  0  0  0
    9.8498   -0.0520    0.0000 H   0  0  0  0  0  0  0  0  0  0  0  0
    5.2451    3.9251    0.0000 H   0  0  0  0  0  0  0  0  0  0  0  0
    5.2451    5.5909    0.0000 H   0  0  0  0  0  0  0  0  0  0  0  0
    9.0029   -2.2790    0.0000 H   0  0  0  0  0  0  0  0  0  0  0  0
    9.8498   -2.0520    0.0000 H   0  0  0  0  0  0  0  0  0  0  0  0
    9.6229   -1.2051    0.0000 H   0  0  0  0  0  0  0  0  0  0  0  0
  1  2  2  0  0  0  0
  1  3  2  0  0  0  0
  1  6  1  0  0  0  0
  1 28  1  0  0  0  0
  4 35  1  0  0  0  0
  4 40  1  0  0  0  0
  5  8  1  0  0  0  0
  5 10  1  0  0  0  0
  5 14  1  0  0  0  0
  6 19  1  0  0  0  0
  6 23  1  0  0  0  0
  7 16  1  0  0  0  0
  7 24  1  0  0  0  0
  7 60  1  0  0  0  0
  8  9  1  0  0  0  0
  8 15  1  0  0  0  0
  8 41  1  0  0  0  0
  9 11  1  0  0  0  0
  9 42  1  0  0  0  0
  9 43  1  0  0  0  0
 10 12  1  0  0  0  0
 10 44  1  0  0  0  0
 10 45  1  0  0  0  0
 11 13  1  0  0  0  0
 11 46  1  0  0  0  0
 11 47  1  0  0  0  0
 12 13  1  0  0  0  0
 12 48  1  0  0  0  0
 12 49  1  0  0  0  0
 13 50  1  0  0  0  0
 13 51  1  0  0  0  0
 14 16  1  0  0  0  0
 14 52  1  0  0  0  0
 14 53  1  0  0  0  0
 15 17  2  0  0  0  0
 15 18  1  0  0  0  0
 16 22  2  0  0  0  0
 17 29  1  0  0  0  0
 17 54  1  0  0  0  0
 18 30  2  0  0  0  0
 18 55  1  0  0  0  0
 19 20  1  0  0  0  0
 19 56  1  0  0  0  0
 19 57  1  0  0  0  0
 20 21  1  0  0  0  0
 20 58  1  0  0  0  0
 20 59  1  0  0  0  0
 21 25  1  0  0  0  0
 21 61  1  0  0  0  0
 21 62  1  0  0  0  0
 22 26  1  0  0  0  0
 22 63  1  0  0  0  0
 23 25  1  0  0  0  0
 23 33  2  0  0  0  0
 24 26  2  0  0  0  0
 24 27  1  0  0  0  0
 25 34  2  0  0  0  0
 26 64  1  0  0  0  0
 27 31  1  0  0  0  0
 27 35  2  0  0  0  0
 28 31  2  0  0  0  0
 28 36  1  0  0  0  0
 29 32  2  0  0  0  0
 29 65  1  0  0  0  0
 30 32  1  0  0  0  0
 30 66  1  0  0  0  0
 31 67  1  0  0  0  0
 32 68  1  0  0  0  0
 33 38  1  0  0  0  0
 33 69  1  0  0  0  0
 34 39  1  0  0  0  0
 34 70  1  0  0  0  0
 35 37  1  0  0  0  0
 36 37  2  0  0  0  0
 36 71  1  0  0  0  0
 37 72  1  0  0  0  0
 38 39  2  0  0  0  0
 38 73  1  0  0  0  0
 39 74  1  0  0  0  0
 40 75  1  0  0  0  0
 40 76  1  0  0  0  0
 40 77  1  0  0  0  0
M  END
> <PUBCHEM_COMPOUND_CID>
44363232

> <PUBCHEM_COMPOUND_CANONICALIZED>
1

> <PUBCHEM_CACTVS_COMPLEXITY>
903

> <PUBCHEM_CACTVS_HBOND_ACCEPTOR>
5

> <PUBCHEM_CACTVS_HBOND_DONOR>
1

> <PUBCHEM_CACTVS_ROTATABLE_BOND>
7

> <PUBCHEM_CACTVS_SUBSKEYS>
AAADcfB/MABAAAAAAAAAAAAAAAAAAWAAAAA8YMEABYAAAACx1AAAHgQQQAAADCzB3gYyx5PJlAKgAyRiRHDCiDAhIiAImTg+bJgMZuLEsZuUMChm0BHI6AeQwOAOAIAAgAAKAAABAAEAABQAAAAAAAAAAA==

> <PUBCHEM_IUPAC_OPENEYE_NAME>
1-[4-methoxy-3-[5-[(2-phenylazepan-1-yl)methyl]-1H-pyrrol-2-yl]phenyl]sulfonyl-3,4-dihydro-2H-quinoline

> <PUBCHEM_IUPAC_CAS_NAME>
1-[4-methoxy-3-[5-[(2-phenyl-1-azepanyl)methyl]-1H-pyrrol-2-yl]phenyl]sulfonyl-3,4-dihydro-2H-quinoline

> <PUBCHEM_IUPAC_NAME_MARKUP>
1-[4-methoxy-3-[5-[(2-phenylazepan-1-yl)methyl]-1<I>H</I>-pyrrol-2-yl]phenyl]sulfonyl-3,4-dihydro-2<I>H</I>-quinoline

> <PUBCHEM_IUPAC_NAME>
1-[4-methoxy-3-[5-[(2-phenylazepan-1-yl)methyl]-1H-pyrrol-2-yl]phenyl]sulfonyl-3,4-dihydro-2H-quinoline

> <PUBCHEM_IUPAC_SYSTEMATIC_NAME>
1-[4-methoxy-3-[5-[(2-phenylazepan-1-yl)methyl]-1H-pyrrol-2-yl]phenyl]sulfonyl-3,4-dihydro-2H-quinoline

> <PUBCHEM_IUPAC_TRADITIONAL_NAME>
1-[4-methoxy-3-[5-[(2-phenylazepan-1-yl)methyl]-1H-pyrrol-2-yl]phenyl]sulfonyl-3,4-dihydro-2H-quinoline

> <PUBCHEM_IUPAC_INCHI>
InChI=1S/C33H37N3O3S/c1-39-33-20-18-28(40(37,38)36-22-10-14-26-13-7-8-16-32(26)36)23-29(33)30-19-17-27(34-30)24-35-21-9-3-6-15-31(35)25-11-4-2-5-12-25/h2,4-5,7-8,11-13,16-20,23,31,34H,3,6,9-10,14-15,21-22,24H2,1H3

> <PUBCHEM_IUPAC_INCHIKEY>
HBQUUZVSFQDTPW-UHFFFAOYSA-N

> <PUBCHEM_XLOGP3_AA>
6

> <PUBCHEM_EXACT_MASS>
555.25556322

> <PUBCHEM_MOLECULAR_FORMULA>
C33H37N3O3S

> <PUBCHEM_MOLECULAR_WEIGHT>
555.7

> <PUBCHEM_OPENEYE_CAN_SMILES>
COC1=C(C=C(C=C1)S(=O)(=O)N2CCCC3=CC=CC=C32)C4=CC=C(N4)CN5CCCCCC5C6=CC=CC=C6

> <PUBCHEM_OPENEYE_ISO_SMILES>
COC1=C(C=C(C=C1)S(=O)(=O)N2CCCC3=CC=CC=C32)C4=CC=C(N4)CN5CCCCCC5C6=CC=CC=C6

> <PUBCHEM_CACTVS_TPSA>
74

> <PUBCHEM_MONOISOTOPIC_WEIGHT>
555.25556322

> <PUBCHEM_TOTAL_CHARGE>
0

> <PUBCHEM_HEAVY_ATOM_COUNT>
40

> <PUBCHEM_ATOM_DEF_STEREO_COUNT>
0

> <PUBCHEM_ATOM_UDEF_STEREO_COUNT>
1

> <PUBCHEM_BOND_DEF_STEREO_COUNT>
0

> <PUBCHEM_BOND_UDEF_STEREO_COUNT>
0

> <PUBCHEM_ISOTOPIC_ATOM_COUNT>
0

> <PUBCHEM_COMPONENT_COUNT>
1

> <PUBCHEM_CACTVS_TAUTO_COUNT>
-1

> <PUBCHEM_COORDINATE_TYPE>
1
5
255

> <PUBCHEM_BONDANNOTATIONS>
15  17  8
15  18  8
16  22  8
17  29  8
18  30  8
22  26  8
23  25  8
23  33  8
24  26  8
25  34  8
27  31  8
27  35  8
28  31  8
28  36  8
29  32  8
30  32  8
33  38  8
34  39  8
35  37  8
36  37  8
38  39  8
7  16  8
7  24  8
8  15  3

$$$$
