45260653
  -OEChem-09292322192D

 47 49  0     0  0  0  0  0  0999 V2000
    4.6284    0.0000    0.0000 Cl  0  0  0  0  0  0  0  0  0  0  0  0
    0.6200    2.5000    0.0000 F   0  0  0  0  0  0  0  0  0  0  0  0
    6.2078    5.1551    0.0000 O   0  0  0  0  0  0  0  0  0  0  0  0
    5.8988    7.7242    0.0000 O   0  0  0  0  0  0  0  0  0  0  0  0
    3.6200    5.9641    0.0000 N   0  0  0  0  0  0  0  0  0  0  0  0
    5.6200    5.9641    0.0000 C   0  0  0  0  0  0  0  0  0  0  0  0
    5.1200    6.8301    0.0000 C   0  0  0  0  0  0  0  0  0  0  0  0
    5.1200    5.0981    0.0000 C   0  0  0  0  0  0  0  0  0  0  0  0
    4.1200    6.8301    0.0000 C   0  0  0  0  0  0  0  0  0  0  0  0
    4.1200    5.0981    0.0000 C   0  0  0  0  0  0  0  0  0  0  0  0
    6.2078    6.7731    0.0000 C   0  0  0  0  0  0  0  0  0  0  0  0
    2.6200    5.9641    0.0000 C   0  0  0  0  0  0  0  0  0  0  0  0
    7.1588    6.4641    0.0000 C   0  0  0  0  0  0  0  0  0  0  0  0
    7.1588    5.4641    0.0000 C   0  0  0  0  0  0  0  0  0  0  0  0
    2.1200    5.0981    0.0000 C   0  0  0  0  0  0  0  0  0  0  0  0
    7.9679    7.0519    0.0000 C   0  0  0  0  0  0  0  0  0  0  0  0
    1.1200    5.0981    0.0000 C   0  0  0  0  0  0  0  0  0  0  0  0
    2.6200    4.2320    0.0000 C   0  0  0  0  0  0  0  0  0  0  0  0
    7.8633    8.0464    0.0000 C   0  0  0  0  0  0  0  0  0  0  0  0
    8.8814    6.6452    0.0000 C   0  0  0  0  0  0  0  0  0  0  0  0
    0.6200    4.2320    0.0000 C   0  0  0  0  0  0  0  0  0  0  0  0
    2.1200    3.3660    0.0000 C   0  0  0  0  0  0  0  0  0  0  0  0
    8.6724    8.6342    0.0000 C   0  0  0  0  0  0  0  0  0  0  0  0
    9.6904    7.2329    0.0000 C   0  0  0  0  0  0  0  0  0  0  0  0
    1.1200    3.3660    0.0000 C   0  0  0  0  0  0  0  0  0  0  0  0
    9.5859    8.2275    0.0000 C   0  0  0  0  0  0  0  0  0  0  0  0
    5.7026    7.0422    0.0000 H   0  0  0  0  0  0  0  0  0  0  0  0
    5.0123    7.4407    0.0000 H   0  0  0  0  0  0  0  0  0  0  0  0
    5.0123    4.4875    0.0000 H   0  0  0  0  0  0  0  0  0  0  0  0
    5.7026    4.8860    0.0000 H   0  0  0  0  0  0  0  0  0  0  0  0
    4.2277    7.4407    0.0000 H   0  0  0  0  0  0  0  0  0  0  0  0
    3.5374    7.0422    0.0000 H   0  0  0  0  0  0  0  0  0  0  0  0
    3.5374    4.8860    0.0000 H   0  0  0  0  0  0  0  0  0  0  0  0
    4.2277    4.4875    0.0000 H   0  0  0  0  0  0  0  0  0  0  0  0
    2.7277    6.5747    0.0000 H   0  0  0  0  0  0  0  0  0  0  0  0
    2.0374    6.1762    0.0000 H   0  0  0  0  0  0  0  0  0  0  0  0
    7.6604    5.0997    0.0000 H   0  0  0  0  0  0  0  0  0  0  0  0
    0.8100    5.6350    0.0000 H   0  0  0  0  0  0  0  0  0  0  0  0
    3.2400    4.2320    0.0000 H   0  0  0  0  0  0  0  0  0  0  0  0
    7.2969    8.2986    0.0000 H   0  0  0  0  0  0  0  0  0  0  0  0
    8.9462    6.0286    0.0000 H   0  0  0  0  0  0  0  0  0  0  0  0
    0.0000    4.2320    0.0000 H   0  0  0  0  0  0  0  0  0  0  0  0
    2.4300    2.8291    0.0000 H   0  0  0  0  0  0  0  0  0  0  0  0
    8.6075    9.2508    0.0000 H   0  0  0  0  0  0  0  0  0  0  0  0
   10.2568    6.9808    0.0000 H   0  0  0  0  0  0  0  0  0  0  0  0
   10.0875    8.5919    0.0000 H   0  0  0  0  0  0  0  0  0  0  0  0
    5.6284    0.0000    0.0000 H   0  0  0  0  0  0  0  0  0  0  0  0
  1 47  1  0  0  0  0
  2 25  1  0  0  0  0
  3  6  1  0  0  0  0
  3 14  1  0  0  0  0
  4 11  2  0  0  0  0
  5  9  1  0  0  0  0
  5 10  1  0  0  0  0
  5 12  1  0  0  0  0
  6  7  1  0  0  0  0
  6  8  1  0  0  0  0
  6 11  1  0  0  0  0
  7  9  1  0  0  0  0
  7 27  1  0  0  0  0
  7 28  1  0  0  0  0
  8 10  1  0  0  0  0
  8 29  1  0  0  0  0
  8 30  1  0  0  0  0
  9 31  1  0  0  0  0
  9 32  1  0  0  0  0
 10 33  1  0  0  0  0
 10 34  1  0  0  0  0
 11 13  1  0  0  0  0
 12 15  1  0  0  0  0
 12 35  1  0  0  0  0
 12 36  1  0  0  0  0
 13 14  2  0  0  0  0
 13 16  1  0  0  0  0
 14 37  1  0  0  0  0
 15 17  2  0  0  0  0
 15 18  1  0  0  0  0
 16 19  2  0  0  0  0
 16 20  1  0  0  0  0
 17 21  1  0  0  0  0
 17 38  1  0  0  0  0
 18 22  2  0  0  0  0
 18 39  1  0  0  0  0
 19 23  1  0  0  0  0
 19 40  1  0  0  0  0
 20 24  2  0  0  0  0
 20 41  1  0  0  0  0
 21 25  2  0  0  0  0
 21 42  1  0  0  0  0
 22 25  1  0  0  0  0
 22 43  1  0  0  0  0
 23 26  2  0  0  0  0
 23 44  1  0  0  0  0
 24 26  1  0  0  0  0
 24 45  1  0  0  0  0
 26 46  1  0  0  0  0
M  END
> <PUBCHEM_COMPOUND_CID>
45260653

> <PUBCHEM_COMPOUND_CANONICALIZED>
1

> <PUBCHEM_CACTVS_COMPLEXITY>
510

> <PUBCHEM_CACTVS_HBOND_ACCEPTOR>
4

> <PUBCHEM_CACTVS_HBOND_DONOR>
1

> <PUBCHEM_CACTVS_ROTATABLE_BOND>
3

> <PUBCHEM_CACTVS_SUBSKEYS>
AAADceB6MQAEAAAAAAAAAAAAAAAAAQAAAAA8YIAAAAAAAAABQAAAHwAAAAAADEThmA4wAIMABACIAqBSAAKCCAAgIAAIiAFIBMgIIDKAlRWEIAhmwACIiIecyOCOAAAAAAAAAAAAAAAAAAAAAAAAAAAAAA==

> <PUBCHEM_IUPAC_OPENEYE_NAME>
8-[(4-fluorophenyl)methyl]-3-phenyl-1-oxa-8-azaspiro[4.5]dec-2-en-4-one;hydrochloride

> <PUBCHEM_IUPAC_CAS_NAME>
8-[(4-fluorophenyl)methyl]-3-phenyl-1-oxa-8-azaspiro[4.5]dec-2-en-4-one;hydrochloride

> <PUBCHEM_IUPAC_NAME_MARKUP>
8-[(4-fluorophenyl)methyl]-3-phenyl-1-oxa-8-azaspiro[4.5]dec-2-en-4-one;hydrochloride

> <PUBCHEM_IUPAC_NAME>
8-[(4-fluorophenyl)methyl]-3-phenyl-1-oxa-8-azaspiro[4.5]dec-2-en-4-one;hydrochloride

> <PUBCHEM_IUPAC_SYSTEMATIC_NAME>
8-[(4-fluorophenyl)methyl]-3-phenyl-1-oxa-8-azaspiro[4.5]dec-2-en-4-one;hydrochloride

> <PUBCHEM_IUPAC_TRADITIONAL_NAME>
8-(4-fluorobenzyl)-3-phenyl-1-oxa-8-azaspiro[4.5]dec-2-en-4-one;hydrochloride

> <PUBCHEM_IUPAC_INCHI>
InChI=1S/C21H20FNO2.ClH/c22-18-8-6-16(7-9-18)14-23-12-10-21(11-13-23)20(24)19(15-25-21)17-4-2-1-3-5-17;/h1-9,15H,10-14H2;1H

> <PUBCHEM_IUPAC_INCHIKEY>
ALGILKHWAVGXPL-UHFFFAOYSA-N

> <PUBCHEM_EXACT_MASS>
373.1244848

> <PUBCHEM_MOLECULAR_FORMULA>
C21H21ClFNO2

> <PUBCHEM_MOLECULAR_WEIGHT>
373.8

> <PUBCHEM_OPENEYE_CAN_SMILES>
C1CN(CCC12C(=O)C(=CO2)C3=CC=CC=C3)CC4=CC=C(C=C4)F.Cl

> <PUBCHEM_OPENEYE_ISO_SMILES>
C1CN(CCC12C(=O)C(=CO2)C3=CC=CC=C3)CC4=CC=C(C=C4)F.Cl

> <PUBCHEM_CACTVS_TPSA>
29.5

> <PUBCHEM_MONOISOTOPIC_WEIGHT>
373.1244848

> <PUBCHEM_TOTAL_CHARGE>
0

> <PUBCHEM_HEAVY_ATOM_COUNT>
26

> <PUBCHEM_ATOM_DEF_STEREO_COUNT>
0

> <PUBCHEM_ATOM_UDEF_STEREO_COUNT>
0

> <PUBCHEM_BOND_DEF_STEREO_COUNT>
0

> <PUBCHEM_BOND_UDEF_STEREO_COUNT>
0

> <PUBCHEM_ISOTOPIC_ATOM_COUNT>
0

> <PUBCHEM_COMPONENT_COUNT>
2

> <PUBCHEM_CACTVS_TAUTO_COUNT>
-1

> <PUBCHEM_COORDINATE_TYPE>
1
5
255

> <PUBCHEM_BONDANNOTATIONS>
15  17  8
15  18  8
16  19  8
16  20  8
17  21  8
18  22  8
19  23  8
20  24  8
21  25  8
22  25  8
23  26  8
24  26  8

$$$$
