49850672
  -OEChem-09292322312D

 58 61  0     0  0  0  0  0  0999 V2000
    2.0000    5.0173    0.0000 O   0  0  0  0  0  0  0  0  0  0  0  0
    3.7320    5.0173    0.0000 O   0  0  0  0  0  0  0  0  0  0  0  0
    5.4641   -0.9827    0.0000 N   0  0  0  0  0  0  0  0  0  0  0  0
    5.4641   -2.9827    0.0000 N   0  0  0  0  0  0  0  0  0  0  0  0
    7.2241   -6.0173    0.0000 N   0  0  0  0  0  0  0  0  0  0  0  0
    2.8660    3.5173    0.0000 N   0  0  0  0  0  0  0  0  0  0  0  0
    4.5981   -1.4827    0.0000 C   0  0  0  0  0  0  0  0  0  0  0  0
    6.3301   -1.4827    0.0000 C   0  0  0  0  0  0  0  0  0  0  0  0
    4.5981   -2.4827    0.0000 C   0  0  0  0  0  0  0  0  0  0  0  0
    6.3301   -2.4827    0.0000 C   0  0  0  0  0  0  0  0  0  0  0  0
    5.4641    0.0173    0.0000 C   0  0  0  0  0  0  0  0  0  0  0  0
    5.4641   -3.9827    0.0000 C   0  0  0  0  0  0  0  0  0  0  0  0
    4.5981    0.5173    0.0000 C   0  0  0  0  0  0  0  0  0  0  0  0
    6.3301   -4.4827    0.0000 C   0  0  0  0  0  0  0  0  0  0  0  0
    4.5981   -4.4827    0.0000 C   0  0  0  0  0  0  0  0  0  0  0  0
    4.5981    1.5173    0.0000 C   0  0  0  0  0  0  0  0  0  0  0  0
    6.3301   -5.4827    0.0000 C   0  0  0  0  0  0  0  0  0  0  0  0
    7.2241   -3.9480    0.0000 C   0  0  0  0  0  0  0  0  0  0  0  0
    4.5981   -5.4827    0.0000 C   0  0  0  0  0  0  0  0  0  0  0  0
    5.4641   -5.9827    0.0000 C   0  0  0  0  0  0  0  0  0  0  0  0
    3.7320    2.0173    0.0000 C   0  0  0  0  0  0  0  0  0  0  0  0
    5.4641    2.0173    0.0000 C   0  0  0  0  0  0  0  0  0  0  0  0
    8.1301   -4.4618    0.0000 C   0  0  0  0  0  0  0  0  0  0  0  0
    8.1301   -5.5035    0.0000 C   0  0  0  0  0  0  0  0  0  0  0  0
    3.7320    3.0173    0.0000 C   0  0  0  0  0  0  0  0  0  0  0  0
    5.4641    3.0173    0.0000 C   0  0  0  0  0  0  0  0  0  0  0  0
    4.5981    3.5173    0.0000 C   0  0  0  0  0  0  0  0  0  0  0  0
    8.9942   -6.0068    0.0000 C   0  0  0  0  0  0  0  0  0  0  0  0
    2.8660    4.5173    0.0000 C   0  0  0  0  0  0  0  0  0  0  0  0
    2.0000    6.0173    0.0000 C   0  0  0  0  0  0  0  0  0  0  0  0
    4.3860   -0.9001    0.0000 H   0  0  0  0  0  0  0  0  0  0  0  0
    3.9875   -1.5903    0.0000 H   0  0  0  0  0  0  0  0  0  0  0  0
    6.9407   -1.5903    0.0000 H   0  0  0  0  0  0  0  0  0  0  0  0
    6.5422   -0.9001    0.0000 H   0  0  0  0  0  0  0  0  0  0  0  0
    3.9875   -2.3750    0.0000 H   0  0  0  0  0  0  0  0  0  0  0  0
    4.3860   -3.0653    0.0000 H   0  0  0  0  0  0  0  0  0  0  0  0
    6.5422   -3.0653    0.0000 H   0  0  0  0  0  0  0  0  0  0  0  0
    6.9407   -2.3750    0.0000 H   0  0  0  0  0  0  0  0  0  0  0  0
    6.0747   -0.0903    0.0000 H   0  0  0  0  0  0  0  0  0  0  0  0
    5.6762    0.5999    0.0000 H   0  0  0  0  0  0  0  0  0  0  0  0
    3.9875    0.6250    0.0000 H   0  0  0  0  0  0  0  0  0  0  0  0
    4.3860   -0.0653    0.0000 H   0  0  0  0  0  0  0  0  0  0  0  0
    4.0611   -4.1727    0.0000 H   0  0  0  0  0  0  0  0  0  0  0  0
    7.2169   -3.3280    0.0000 H   0  0  0  0  0  0  0  0  0  0  0  0
    4.0611   -5.7927    0.0000 H   0  0  0  0  0  0  0  0  0  0  0  0
    5.4641   -6.6027    0.0000 H   0  0  0  0  0  0  0  0  0  0  0  0
    3.1951    1.7073    0.0000 H   0  0  0  0  0  0  0  0  0  0  0  0
    6.0010    1.7073    0.0000 H   0  0  0  0  0  0  0  0  0  0  0  0
    8.6659   -4.1498    0.0000 H   0  0  0  0  0  0  0  0  0  0  0  0
    6.0010    3.3273    0.0000 H   0  0  0  0  0  0  0  0  0  0  0  0
    4.5981    4.1373    0.0000 H   0  0  0  0  0  0  0  0  0  0  0  0
    8.6822   -6.5426    0.0000 H   0  0  0  0  0  0  0  0  0  0  0  0
    9.5300   -6.3189    0.0000 H   0  0  0  0  0  0  0  0  0  0  0  0
    9.3063   -5.4711    0.0000 H   0  0  0  0  0  0  0  0  0  0  0  0
    2.3291    3.2073    0.0000 H   0  0  0  0  0  0  0  0  0  0  0  0
    2.6200    6.0173    0.0000 H   0  0  0  0  0  0  0  0  0  0  0  0
    2.0000    6.6373    0.0000 H   0  0  0  0  0  0  0  0  0  0  0  0
    1.3800    6.0173    0.0000 H   0  0  0  0  0  0  0  0  0  0  0  0
  1 29  1  0  0  0  0
  1 30  1  0  0  0  0
  2 29  2  0  0  0  0
  3  7  1  0  0  0  0
  3  8  1  0  0  0  0
  3 11  1  0  0  0  0
  4  9  1  0  0  0  0
  4 10  1  0  0  0  0
  4 12  1  0  0  0  0
  5 17  1  0  0  0  0
  5 24  2  0  0  0  0
  6 25  1  0  0  0  0
  6 29  1  0  0  0  0
  6 55  1  0  0  0  0
  7  9  1  0  0  0  0
  7 31  1  0  0  0  0
  7 32  1  0  0  0  0
  8 10  1  0  0  0  0
  8 33  1  0  0  0  0
  8 34  1  0  0  0  0
  9 35  1  0  0  0  0
  9 36  1  0  0  0  0
 10 37  1  0  0  0  0
 10 38  1  0  0  0  0
 11 13  1  0  0  0  0
 11 39  1  0  0  0  0
 11 40  1  0  0  0  0
 12 14  1  0  0  0  0
 12 15  2  0  0  0  0
 13 16  1  0  0  0  0
 13 41  1  0  0  0  0
 13 42  1  0  0  0  0
 14 17  2  0  0  0  0
 14 18  1  0  0  0  0
 15 19  1  0  0  0  0
 15 43  1  0  0  0  0
 16 21  2  0  0  0  0
 16 22  1  0  0  0  0
 17 20  1  0  0  0  0
 18 23  2  0  0  0  0
 18 44  1  0  0  0  0
 19 20  2  0  0  0  0
 19 45  1  0  0  0  0
 20 46  1  0  0  0  0
 21 25  1  0  0  0  0
 21 47  1  0  0  0  0
 22 26  2  0  0  0  0
 22 48  1  0  0  0  0
 23 24  1  0  0  0  0
 23 49  1  0  0  0  0
 24 28  1  0  0  0  0
 25 27  2  0  0  0  0
 26 27  1  0  0  0  0
 26 50  1  0  0  0  0
 27 51  1  0  0  0  0
 28 52  1  0  0  0  0
 28 53  1  0  0  0  0
 28 54  1  0  0  0  0
 30 56  1  0  0  0  0
 30 57  1  0  0  0  0
 30 58  1  0  0  0  0
M  END
> <PUBCHEM_COMPOUND_CID>
49850672

> <PUBCHEM_COMPOUND_CANONICALIZED>
1

> <PUBCHEM_CACTVS_COMPLEXITY>
551

> <PUBCHEM_CACTVS_HBOND_ACCEPTOR>
5

> <PUBCHEM_CACTVS_HBOND_DONOR>
1

> <PUBCHEM_CACTVS_ROTATABLE_BOND>
6

> <PUBCHEM_CACTVS_SUBSKEYS>
AAADceB7sAAAAAAAAAAAAAAAAAAAAAAAAAA8eIEAAAAAAACx9AAAHgAQAAAADAjBHgYyyPPIFACoAyRiXACCgCAhAiAImCA4ZJkIYOLA0dGUJAhglADIyAcQgIAOAAAAQAQCAAAAAACACAQAAAAAAAAAAA==

> <PUBCHEM_IUPAC_OPENEYE_NAME>
methyl N-[3-[2-[4-(2-methyl-5-quinolyl)piperazin-1-yl]ethyl]phenyl]carbamate

> <PUBCHEM_IUPAC_CAS_NAME>
N-[3-[2-[4-(2-methyl-5-quinolinyl)-1-piperazinyl]ethyl]phenyl]carbamic acid methyl ester

> <PUBCHEM_IUPAC_NAME_MARKUP>
methyl <I>N</I>-[3-[2-[4-(2-methylquinolin-5-yl)piperazin-1-yl]ethyl]phenyl]carbamate

> <PUBCHEM_IUPAC_NAME>
methyl N-[3-[2-[4-(2-methylquinolin-5-yl)piperazin-1-yl]ethyl]phenyl]carbamate

> <PUBCHEM_IUPAC_SYSTEMATIC_NAME>
methyl N-[3-[2-[4-(2-methylquinolin-5-yl)piperazin-1-yl]ethyl]phenyl]carbamate

> <PUBCHEM_IUPAC_TRADITIONAL_NAME>
N-[3-[2-[4-(2-methyl-5-quinolyl)piperazino]ethyl]phenyl]carbamic acid methyl ester

> <PUBCHEM_IUPAC_INCHI>
InChI=1S/C24H28N4O2/c1-18-9-10-21-22(25-18)7-4-8-23(21)28-15-13-27(14-16-28)12-11-19-5-3-6-20(17-19)26-24(29)30-2/h3-10,17H,11-16H2,1-2H3,(H,26,29)

> <PUBCHEM_IUPAC_INCHIKEY>
WBUCFEOIQMRVHB-UHFFFAOYSA-N

> <PUBCHEM_XLOGP3_AA>
4.1

> <PUBCHEM_EXACT_MASS>
404.22122615

> <PUBCHEM_MOLECULAR_FORMULA>
C24H28N4O2

> <PUBCHEM_MOLECULAR_WEIGHT>
404.5

> <PUBCHEM_OPENEYE_CAN_SMILES>
CC1=NC2=C(C=C1)C(=CC=C2)N3CCN(CC3)CCC4=CC(=CC=C4)NC(=O)OC

> <PUBCHEM_OPENEYE_ISO_SMILES>
CC1=NC2=C(C=C1)C(=CC=C2)N3CCN(CC3)CCC4=CC(=CC=C4)NC(=O)OC

> <PUBCHEM_CACTVS_TPSA>
57.7

> <PUBCHEM_MONOISOTOPIC_WEIGHT>
404.22122615

> <PUBCHEM_TOTAL_CHARGE>
0

> <PUBCHEM_HEAVY_ATOM_COUNT>
30

> <PUBCHEM_ATOM_DEF_STEREO_COUNT>
0

> <PUBCHEM_ATOM_UDEF_STEREO_COUNT>
0

> <PUBCHEM_BOND_DEF_STEREO_COUNT>
0

> <PUBCHEM_BOND_UDEF_STEREO_COUNT>
0

> <PUBCHEM_ISOTOPIC_ATOM_COUNT>
0

> <PUBCHEM_COMPONENT_COUNT>
1

> <PUBCHEM_CACTVS_TAUTO_COUNT>
-1

> <PUBCHEM_COORDINATE_TYPE>
1
5
255

> <PUBCHEM_BONDANNOTATIONS>
12  14  8
12  15  8
14  17  8
14  18  8
15  19  8
16  21  8
16  22  8
17  20  8
18  23  8
19  20  8
21  25  8
22  26  8
23  24  8
25  27  8
26  27  8
5  17  8
5  24  8

$$$$
