11626748
  -OEChem-09292322272D

 58 62  0     0  0  0  0  0  0999 V2000
   14.2260    2.5490    0.0000 Cl  0  0  0  0  0  0  0  0  0  0  0  0
   13.2260    4.2811    0.0000 Cl  0  0  0  0  0  0  0  0  0  0  0  0
   10.2260   -0.9151    0.0000 N   0  0  0  0  0  0  0  0  0  0  0  0
   11.2260    0.8170    0.0000 N   0  0  0  0  0  0  0  0  0  0  0  0
    4.5981   -2.7811    0.0000 N   0  0  0  0  0  0  0  0  0  0  0  0
    2.8660   -3.7811    0.0000 N   0  0  0  0  0  0  0  0  0  0  0  0
    7.1962   -2.2811    0.0000 N   0  0  0  0  0  0  0  0  0  0  0  0
    8.1424   -0.9764    0.0000 N   0  0  0  0  0  0  0  0  0  0  0  0
    6.3301   -2.7811    0.0000 N   0  0  0  0  0  0  0  0  0  0  0  0
   11.2260   -0.9151    0.0000 C   0  0  0  0  0  0  0  0  0  0  0  0
    9.7260   -0.0490    0.0000 C   0  0  0  0  0  0  0  0  0  0  0  0
   11.7260   -0.0490    0.0000 C   0  0  0  0  0  0  0  0  0  0  0  0
   10.2260    0.8170    0.0000 C   0  0  0  0  0  0  0  0  0  0  0  0
    9.7260   -1.7811    0.0000 C   0  0  0  0  0  0  0  0  0  0  0  0
    4.5981   -3.7811    0.0000 C   0  0  0  0  0  0  0  0  0  0  0  0
    3.7320   -2.2811    0.0000 C   0  0  0  0  0  0  0  0  0  0  0  0
    3.7320   -4.2811    0.0000 C   0  0  0  0  0  0  0  0  0  0  0  0
    2.8660   -2.7811    0.0000 C   0  0  0  0  0  0  0  0  0  0  0  0
    8.7260   -1.7811    0.0000 C   0  0  0  0  0  0  0  0  0  0  0  0
   11.7260    1.6830    0.0000 C   0  0  0  0  0  0  0  0  0  0  0  0
    5.4641   -2.2811    0.0000 C   0  0  0  0  0  0  0  0  0  0  0  0
    8.1424   -2.5858    0.0000 C   0  0  0  0  0  0  0  0  0  0  0  0
    7.1962   -1.2811    0.0000 C   0  0  0  0  0  0  0  0  0  0  0  0
    2.0000   -4.2811    0.0000 C   0  0  0  0  0  0  0  0  0  0  0  0
    5.4641   -1.2811    0.0000 C   0  0  0  0  0  0  0  0  0  0  0  0
    6.3301   -0.7811    0.0000 C   0  0  0  0  0  0  0  0  0  0  0  0
   12.7260    1.6830    0.0000 C   0  0  0  0  0  0  0  0  0  0  0  0
   11.2260    2.5490    0.0000 C   0  0  0  0  0  0  0  0  0  0  0  0
   13.2260    2.5490    0.0000 C   0  0  0  0  0  0  0  0  0  0  0  0
   11.7260    3.4151    0.0000 C   0  0  0  0  0  0  0  0  0  0  0  0
   12.7260    3.4151    0.0000 C   0  0  0  0  0  0  0  0  0  0  0  0
   11.1183   -1.5256    0.0000 H   0  0  0  0  0  0  0  0  0  0  0  0
   11.8086   -1.1271    0.0000 H   0  0  0  0  0  0  0  0  0  0  0  0
    9.2510    0.3495    0.0000 H   0  0  0  0  0  0  0  0  0  0  0  0
    9.2510   -0.4476    0.0000 H   0  0  0  0  0  0  0  0  0  0  0  0
   12.2009   -0.4476    0.0000 H   0  0  0  0  0  0  0  0  0  0  0  0
   12.2009    0.3495    0.0000 H   0  0  0  0  0  0  0  0  0  0  0  0
   10.3336    1.4276    0.0000 H   0  0  0  0  0  0  0  0  0  0  0  0
    9.6434    1.0290    0.0000 H   0  0  0  0  0  0  0  0  0  0  0  0
    9.6183   -2.3917    0.0000 H   0  0  0  0  0  0  0  0  0  0  0  0
   10.3086   -1.9931    0.0000 H   0  0  0  0  0  0  0  0  0  0  0  0
    4.8101   -4.3637    0.0000 H   0  0  0  0  0  0  0  0  0  0  0  0
    5.2087   -3.6734    0.0000 H   0  0  0  0  0  0  0  0  0  0  0  0
    4.1306   -1.8061    0.0000 H   0  0  0  0  0  0  0  0  0  0  0  0
    3.3335   -1.8061    0.0000 H   0  0  0  0  0  0  0  0  0  0  0  0
    3.3335   -4.7560    0.0000 H   0  0  0  0  0  0  0  0  0  0  0  0
    4.1306   -4.7560    0.0000 H   0  0  0  0  0  0  0  0  0  0  0  0
    2.6540   -2.1985    0.0000 H   0  0  0  0  0  0  0  0  0  0  0  0
    2.2554   -2.8888    0.0000 H   0  0  0  0  0  0  0  0  0  0  0  0
    8.3350   -3.1751    0.0000 H   0  0  0  0  0  0  0  0  0  0  0  0
    1.6900   -3.7442    0.0000 H   0  0  0  0  0  0  0  0  0  0  0  0
    1.4631   -4.5911    0.0000 H   0  0  0  0  0  0  0  0  0  0  0  0
    2.3100   -4.8180    0.0000 H   0  0  0  0  0  0  0  0  0  0  0  0
    4.9272   -0.9711    0.0000 H   0  0  0  0  0  0  0  0  0  0  0  0
    6.3301   -0.1611    0.0000 H   0  0  0  0  0  0  0  0  0  0  0  0
   13.0360    1.1461    0.0000 H   0  0  0  0  0  0  0  0  0  0  0  0
   10.6060    2.5490    0.0000 H   0  0  0  0  0  0  0  0  0  0  0  0
   11.4160    3.9520    0.0000 H   0  0  0  0  0  0  0  0  0  0  0  0
  1 29  1  0  0  0  0
  2 31  1  0  0  0  0
  3 10  1  0  0  0  0
  3 11  1  0  0  0  0
  3 14  1  0  0  0  0
  4 12  1  0  0  0  0
  4 13  1  0  0  0  0
  4 20  1  0  0  0  0
  5 15  1  0  0  0  0
  5 16  1  0  0  0  0
  5 21  1  0  0  0  0
  6 17  1  0  0  0  0
  6 18  1  0  0  0  0
  6 24  1  0  0  0  0
  7  9  1  0  0  0  0
  7 22  1  0  0  0  0
  7 23  1  0  0  0  0
  8 19  1  0  0  0  0
  8 23  2  0  0  0  0
  9 21  2  0  0  0  0
 10 12  1  0  0  0  0
 10 32  1  0  0  0  0
 10 33  1  0  0  0  0
 11 13  1  0  0  0  0
 11 34  1  0  0  0  0
 11 35  1  0  0  0  0
 12 36  1  0  0  0  0
 12 37  1  0  0  0  0
 13 38  1  0  0  0  0
 13 39  1  0  0  0  0
 14 19  1  0  0  0  0
 14 40  1  0  0  0  0
 14 41  1  0  0  0  0
 15 17  1  0  0  0  0
 15 42  1  0  0  0  0
 15 43  1  0  0  0  0
 16 18  1  0  0  0  0
 16 44  1  0  0  0  0
 16 45  1  0  0  0  0
 17 46  1  0  0  0  0
 17 47  1  0  0  0  0
 18 48  1  0  0  0  0
 18 49  1  0  0  0  0
 19 22  2  0  0  0  0
 20 27  2  0  0  0  0
 20 28  1  0  0  0  0
 21 25  1  0  0  0  0
 22 50  1  0  0  0  0
 23 26  1  0  0  0  0
 24 51  1  0  0  0  0
 24 52  1  0  0  0  0
 24 53  1  0  0  0  0
 25 26  2  0  0  0  0
 25 54  1  0  0  0  0
 26 55  1  0  0  0  0
 27 29  1  0  0  0  0
 27 56  1  0  0  0  0
 28 30  2  0  0  0  0
 28 57  1  0  0  0  0
 29 31  2  0  0  0  0
 30 31  1  0  0  0  0
 30 58  1  0  0  0  0
M  END
> <PUBCHEM_COMPOUND_CID>
11626748

> <PUBCHEM_COMPOUND_CANONICALIZED>
1

> <PUBCHEM_CACTVS_COMPLEXITY>
582

> <PUBCHEM_CACTVS_HBOND_ACCEPTOR>
6

> <PUBCHEM_CACTVS_HBOND_DONOR>
0

> <PUBCHEM_CACTVS_ROTATABLE_BOND>
4

> <PUBCHEM_CACTVS_SUBSKEYS>
AAADceB7gAAGAAAAAAAAAAAAAAAAAWAAAAA8WLEAAAAAAFgB8AAAHAIIAAAACArBFyQ/8J8IEACiATZnZACShC8xl6Ad2mA4dpiIaOLB25GUoAhoiALIyCcQAAAAAABAAAIAAAQAAIAABAAACAAAAAAAAA==

> <PUBCHEM_IUPAC_OPENEYE_NAME>
2-[[4-(3,4-dichlorophenyl)piperazin-1-yl]methyl]-6-(4-methylpiperazin-1-yl)imidazo[1,2-b]pyridazine

> <PUBCHEM_IUPAC_CAS_NAME>
2-[[4-(3,4-dichlorophenyl)-1-piperazinyl]methyl]-6-(4-methyl-1-piperazinyl)imidazo[1,2-b]pyridazine

> <PUBCHEM_IUPAC_NAME_MARKUP>
2-[[4-(3,4-dichlorophenyl)piperazin-1-yl]methyl]-6-(4-methylpiperazin-1-yl)imidazo[1,2-b]pyridazine

> <PUBCHEM_IUPAC_NAME>
2-[[4-(3,4-dichlorophenyl)piperazin-1-yl]methyl]-6-(4-methylpiperazin-1-yl)imidazo[1,2-b]pyridazine

> <PUBCHEM_IUPAC_SYSTEMATIC_NAME>
2-[[4-(3,4-dichlorophenyl)piperazin-1-yl]methyl]-6-(4-methylpiperazin-1-yl)imidazo[1,2-b]pyridazine

> <PUBCHEM_IUPAC_TRADITIONAL_NAME>
2-[[4-(3,4-dichlorophenyl)piperazino]methyl]-6-(4-methylpiperazino)imidazo[1,2-b]pyridazine

> <PUBCHEM_IUPAC_INCHI>
InChI=1S/C22H27Cl2N7/c1-27-6-10-30(11-7-27)22-5-4-21-25-17(16-31(21)26-22)15-28-8-12-29(13-9-28)18-2-3-19(23)20(24)14-18/h2-5,14,16H,6-13,15H2,1H3

> <PUBCHEM_IUPAC_INCHIKEY>
VSESOHHTOBROFA-UHFFFAOYSA-N

> <PUBCHEM_XLOGP3_AA>
3.3

> <PUBCHEM_EXACT_MASS>
459.1704993

> <PUBCHEM_MOLECULAR_FORMULA>
C22H27Cl2N7

> <PUBCHEM_MOLECULAR_WEIGHT>
460.4

> <PUBCHEM_OPENEYE_CAN_SMILES>
CN1CCN(CC1)C2=NN3C=C(N=C3C=C2)CN4CCN(CC4)C5=CC(=C(C=C5)Cl)Cl

> <PUBCHEM_OPENEYE_ISO_SMILES>
CN1CCN(CC1)C2=NN3C=C(N=C3C=C2)CN4CCN(CC4)C5=CC(=C(C=C5)Cl)Cl

> <PUBCHEM_CACTVS_TPSA>
43.2

> <PUBCHEM_MONOISOTOPIC_WEIGHT>
459.1704993

> <PUBCHEM_TOTAL_CHARGE>
0

> <PUBCHEM_HEAVY_ATOM_COUNT>
31

> <PUBCHEM_ATOM_DEF_STEREO_COUNT>
0

> <PUBCHEM_ATOM_UDEF_STEREO_COUNT>
0

> <PUBCHEM_BOND_DEF_STEREO_COUNT>
0

> <PUBCHEM_BOND_UDEF_STEREO_COUNT>
0

> <PUBCHEM_ISOTOPIC_ATOM_COUNT>
0

> <PUBCHEM_COMPONENT_COUNT>
1

> <PUBCHEM_CACTVS_TAUTO_COUNT>
-1

> <PUBCHEM_COORDINATE_TYPE>
1
5
255

> <PUBCHEM_BONDANNOTATIONS>
19  22  8
20  27  8
20  28  8
21  25  8
23  26  8
25  26  8
27  29  8
28  30  8
29  31  8
30  31  8
7  22  8
7  23  8
7  9  8
8  19  8
8  23  8
9  21  8

$$$$
