166632657
  -OEChem-09292322442D

 55 59  0     0  0  0  0  0  0999 V2000
    6.6885   -1.4025    0.0000 O   0  0  0  0  0  0  0  0  0  0  0  0
    3.3981   -2.4856    0.0000 N   0  0  0  0  0  0  0  0  0  0  0  0
   10.7452   -0.8654    0.0000 N   0  0  0  0  0  0  0  0  0  0  0  0
   12.0876    0.3339    0.0000 N   0  0  0  0  0  0  0  0  0  0  0  0
   12.4320   -1.4025    0.0000 N   0  0  0  0  0  0  0  0  0  0  0  0
    2.4032   -2.3849    0.0000 C   0  0  0  0  0  0  0  0  0  0  0  0
    3.6098   -3.4630    0.0000 C   0  0  0  0  0  0  0  0  0  0  0  0
    2.0000   -3.3000    0.0000 C   0  0  0  0  0  0  0  0  0  0  0  0
    2.7457   -3.9663    0.0000 C   0  0  0  0  0  0  0  0  0  0  0  0
    4.0644   -1.7399    0.0000 C   0  0  0  0  0  0  0  0  0  0  0  0
    5.0433   -1.9440    0.0000 C   0  0  0  0  0  0  0  0  0  0  0  0
    5.7096   -1.1983    0.0000 C   0  0  0  0  0  0  0  0  0  0  0  0
    9.5603    1.4581    0.0000 C   0  0  0  0  0  0  0  0  0  0  0  0
    8.7513    0.8703    0.0000 C   0  0  0  0  0  0  0  0  0  0  0  0
    9.0603   -0.0807    0.0000 C   0  0  0  0  0  0  0  0  0  0  0  0
   10.3693    0.8703    0.0000 C   0  0  0  0  0  0  0  0  0  0  0  0
   10.0603   -0.0807    0.0000 C   0  0  0  0  0  0  0  0  0  0  0  0
    7.3548   -0.6567    0.0000 C   0  0  0  0  0  0  0  0  0  0  0  0
    8.3753   -0.8654    0.0000 C   0  0  0  0  0  0  0  0  0  0  0  0
    7.7358    1.1026    0.0000 C   0  0  0  0  0  0  0  0  0  0  0  0
   11.3847    1.1026    0.0000 C   0  0  0  0  0  0  0  0  0  0  0  0
    7.0329    0.3339    0.0000 C   0  0  0  0  0  0  0  0  0  0  0  0
   11.6827    2.0572    0.0000 C   0  0  0  0  0  0  0  0  0  0  0  0
   11.7658   -0.6567    0.0000 C   0  0  0  0  0  0  0  0  0  0  0  0
   11.0050    2.7925    0.0000 C   0  0  0  0  0  0  0  0  0  0  0  0
   12.6584    2.2764    0.0000 C   0  0  0  0  0  0  0  0  0  0  0  0
   11.3030    3.7471    0.0000 C   0  0  0  0  0  0  0  0  0  0  0  0
   12.9564    3.2309    0.0000 C   0  0  0  0  0  0  0  0  0  0  0  0
   12.2787    3.9663    0.0000 C   0  0  0  0  0  0  0  0  0  0  0  0
    2.5298   -1.7780    0.0000 H   0  0  0  0  0  0  0  0  0  0  0  0
    1.8128   -2.1956    0.0000 H   0  0  0  0  0  0  0  0  0  0  0  0
    3.8642   -4.0284    0.0000 H   0  0  0  0  0  0  0  0  0  0  0  0
    4.1987   -3.2691    0.0000 H   0  0  0  0  0  0  0  0  0  0  0  0
    1.4619   -2.9921    0.0000 H   0  0  0  0  0  0  0  0  0  0  0  0
    1.6375   -3.8030    0.0000 H   0  0  0  0  0  0  0  0  0  0  0  0
    2.2866   -4.3829    0.0000 H   0  0  0  0  0  0  0  0  0  0  0  0
    3.1121   -4.4665    0.0000 H   0  0  0  0  0  0  0  0  0  0  0  0
    4.2944   -1.1642    0.0000 H   0  0  0  0  0  0  0  0  0  0  0  0
    3.5373   -1.4134    0.0000 H   0  0  0  0  0  0  0  0  0  0  0  0
    4.8133   -2.5198    0.0000 H   0  0  0  0  0  0  0  0  0  0  0  0
    5.5704   -2.2706    0.0000 H   0  0  0  0  0  0  0  0  0  0  0  0
    5.9396   -0.6226    0.0000 H   0  0  0  0  0  0  0  0  0  0  0  0
    5.1825   -0.8718    0.0000 H   0  0  0  0  0  0  0  0  0  0  0  0
    9.9751    1.9189    0.0000 H   0  0  0  0  0  0  0  0  0  0  0  0
    9.1454    1.9189    0.0000 H   0  0  0  0  0  0  0  0  0  0  0  0
    8.5737   -1.4528    0.0000 H   0  0  0  0  0  0  0  0  0  0  0  0
    7.5511    1.6944    0.0000 H   0  0  0  0  0  0  0  0  0  0  0  0
    6.4270    0.4651    0.0000 H   0  0  0  0  0  0  0  0  0  0  0  0
   10.4001    2.6566    0.0000 H   0  0  0  0  0  0  0  0  0  0  0  0
   13.0785    1.8204    0.0000 H   0  0  0  0  0  0  0  0  0  0  0  0
   12.2382   -1.9914    0.0000 H   0  0  0  0  0  0  0  0  0  0  0  0
   13.0390   -1.2759    0.0000 H   0  0  0  0  0  0  0  0  0  0  0  0
   10.8829    4.2030    0.0000 H   0  0  0  0  0  0  0  0  0  0  0  0
   13.5613    3.3668    0.0000 H   0  0  0  0  0  0  0  0  0  0  0  0
   12.4635    4.5581    0.0000 H   0  0  0  0  0  0  0  0  0  0  0  0
  1 12  1  0  0  0  0
  1 18  1  0  0  0  0
  2  6  1  0  0  0  0
  2  7  1  0  0  0  0
  2 10  1  0  0  0  0
  3 17  2  0  0  0  0
  3 24  1  0  0  0  0
  4 21  1  0  0  0  0
  4 24  2  0  0  0  0
  5 24  1  0  0  0  0
  5 51  1  0  0  0  0
  5 52  1  0  0  0  0
  6  8  1  0  0  0  0
  6 30  1  0  0  0  0
  6 31  1  0  0  0  0
  7  9  1  0  0  0  0
  7 32  1  0  0  0  0
  7 33  1  0  0  0  0
  8  9  1  0  0  0  0
  8 34  1  0  0  0  0
  8 35  1  0  0  0  0
  9 36  1  0  0  0  0
  9 37  1  0  0  0  0
 10 11  1  0  0  0  0
 10 38  1  0  0  0  0
 10 39  1  0  0  0  0
 11 12  1  0  0  0  0
 11 40  1  0  0  0  0
 11 41  1  0  0  0  0
 12 42  1  0  0  0  0
 12 43  1  0  0  0  0
 13 14  1  0  0  0  0
 13 16  1  0  0  0  0
 13 44  1  0  0  0  0
 13 45  1  0  0  0  0
 14 15  2  0  0  0  0
 14 20  1  0  0  0  0
 15 17  1  0  0  0  0
 15 19  1  0  0  0  0
 16 17  1  0  0  0  0
 16 21  2  0  0  0  0
 18 19  2  0  0  0  0
 18 22  1  0  0  0  0
 19 46  1  0  0  0  0
 20 22  2  0  0  0  0
 20 47  1  0  0  0  0
 21 23  1  0  0  0  0
 22 48  1  0  0  0  0
 23 25  2  0  0  0  0
 23 26  1  0  0  0  0
 25 27  1  0  0  0  0
 25 49  1  0  0  0  0
 26 28  2  0  0  0  0
 26 50  1  0  0  0  0
 27 29  2  0  0  0  0
 27 53  1  0  0  0  0
 28 29  1  0  0  0  0
 28 54  1  0  0  0  0
 29 55  1  0  0  0  0
M  END
> <PUBCHEM_COMPOUND_CID>
166632657

> <PUBCHEM_COMPOUND_CANONICALIZED>
1

> <PUBCHEM_CACTVS_COMPLEXITY>
519

> <PUBCHEM_CACTVS_HBOND_ACCEPTOR>
5

> <PUBCHEM_CACTVS_HBOND_DONOR>
1

> <PUBCHEM_CACTVS_ROTATABLE_BOND>
6

> <PUBCHEM_CACTVS_SUBSKEYS>
AAADceB7oAAAAAAAAAAAAAAAAAAAAeIAAAA8YIAAAAAAAHgB0AAAHgAQAAAADAzhngYxlpdIFACgAyRiZACCiCkhIKAJmCAuTJiMLqLE+duGPCjuwBPI6CewwPAOoAABAAAQAABAAAIAACAAASAACQAAAA==

> <PUBCHEM_IUPAC_OPENEYE_NAME>
4-phenyl-8-(3-pyrrolidin-1-ylpropoxy)-5H-indeno[1,2-d]pyrimidin-2-amine

> <PUBCHEM_IUPAC_CAS_NAME>
4-phenyl-8-[3-(1-pyrrolidinyl)propoxy]-5H-indeno[1,2-d]pyrimidin-2-amine

> <PUBCHEM_IUPAC_NAME_MARKUP>
4-phenyl-8-(3-pyrrolidin-1-ylpropoxy)-5<I>H</I>-indeno[1,2-d]pyrimidin-2-amine

> <PUBCHEM_IUPAC_NAME>
4-phenyl-8-(3-pyrrolidin-1-ylpropoxy)-5H-indeno[1,2-d]pyrimidin-2-amine

> <PUBCHEM_IUPAC_SYSTEMATIC_NAME>
4-phenyl-8-(3-pyrrolidin-1-ylpropoxy)-5H-indeno[1,2-d]pyrimidin-2-amine

> <PUBCHEM_IUPAC_TRADITIONAL_NAME>
[4-phenyl-8-(3-pyrrolidinopropoxy)-5H-indeno[1,2-d]pyrimidin-2-yl]amine

> <PUBCHEM_IUPAC_INCHI>
InChI=1S/C24H26N4O/c25-24-26-22(17-7-2-1-3-8-17)21-15-18-9-10-19(16-20(18)23(21)27-24)29-14-6-13-28-11-4-5-12-28/h1-3,7-10,16H,4-6,11-15H2,(H2,25,26,27)

> <PUBCHEM_IUPAC_INCHIKEY>
BDUVGZUKNGPFEZ-UHFFFAOYSA-N

> <PUBCHEM_XLOGP3_AA>
4

> <PUBCHEM_EXACT_MASS>
386.21066147

> <PUBCHEM_MOLECULAR_FORMULA>
C24H26N4O

> <PUBCHEM_MOLECULAR_WEIGHT>
386.5

> <PUBCHEM_OPENEYE_CAN_SMILES>
C1CCN(C1)CCCOC2=CC3=C(CC4=C(N=C(N=C43)N)C5=CC=CC=C5)C=C2

> <PUBCHEM_OPENEYE_ISO_SMILES>
C1CCN(C1)CCCOC2=CC3=C(CC4=C(N=C(N=C43)N)C5=CC=CC=C5)C=C2

> <PUBCHEM_CACTVS_TPSA>
64.3

> <PUBCHEM_MONOISOTOPIC_WEIGHT>
386.21066147

> <PUBCHEM_TOTAL_CHARGE>
0

> <PUBCHEM_HEAVY_ATOM_COUNT>
29

> <PUBCHEM_ATOM_DEF_STEREO_COUNT>
0

> <PUBCHEM_ATOM_UDEF_STEREO_COUNT>
0

> <PUBCHEM_BOND_DEF_STEREO_COUNT>
0

> <PUBCHEM_BOND_UDEF_STEREO_COUNT>
0

> <PUBCHEM_ISOTOPIC_ATOM_COUNT>
0

> <PUBCHEM_COMPONENT_COUNT>
1

> <PUBCHEM_CACTVS_TAUTO_COUNT>
-1

> <PUBCHEM_COORDINATE_TYPE>
1
5
255

> <PUBCHEM_BONDANNOTATIONS>
14  15  8
14  20  8
15  19  8
16  17  8
16  21  8
18  19  8
18  22  8
20  22  8
23  25  8
23  26  8
25  27  8
26  28  8
27  29  8
28  29  8
3  17  8
3  24  8
4  21  8
4  24  8

$$$$
