44353353
  -OEChem-09292322202D

 63 65  0     1  0  0  0  0  0999 V2000
   14.1807    3.5204    0.0000 O   0  0  0  0  0  0  0  0  0  0  0  0
    4.5981   -1.0204    0.0000 N   0  0  0  0  0  0  0  0  0  0  0  0
    5.4641   -0.5204    0.0000 C   0  0  2  0  0  0  0  0  0  0  0  0
    5.4641    0.4796    0.0000 C   0  0  0  0  0  0  0  0  0  0  0  0
    6.3301   -1.0204    0.0000 C   0  0  0  0  0  0  0  0  0  0  0  0
    6.3301    0.9796    0.0000 C   0  0  0  0  0  0  0  0  0  0  0  0
    7.1962   -0.5204    0.0000 C   0  0  0  0  0  0  0  0  0  0  0  0
    7.1962    0.4796    0.0000 C   0  0  0  0  0  0  0  0  0  0  0  0
    3.7320   -0.5204    0.0000 C   0  0  0  0  0  0  0  0  0  0  0  0
    4.5981   -2.0204    0.0000 C   0  0  0  0  0  0  0  0  0  0  0  0
    8.0901    1.0143    0.0000 C   0  0  0  0  0  0  0  0  0  0  0  0
    8.0901   -1.0551    0.0000 C   0  0  0  0  0  0  0  0  0  0  0  0
    8.9962    0.5004    0.0000 C   0  0  0  0  0  0  0  0  0  0  0  0
    2.8660   -1.0204    0.0000 C   0  0  0  0  0  0  0  0  0  0  0  0
    3.7320   -2.5204    0.0000 C   0  0  0  0  0  0  0  0  0  0  0  0
    8.9962   -0.5412    0.0000 C   0  0  0  0  0  0  0  0  0  0  0  0
    9.8602    1.0037    0.0000 C   0  0  0  0  0  0  0  0  0  0  0  0
    2.0000   -0.5204    0.0000 C   0  0  0  0  0  0  0  0  0  0  0  0
    3.7320   -3.5204    0.0000 C   0  0  0  0  0  0  0  0  0  0  0  0
   10.7282    0.5071    0.0000 C   0  0  0  0  0  0  0  0  0  0  0  0
   11.5923    1.0104    0.0000 C   0  0  0  0  0  0  0  0  0  0  0  0
   11.5884    2.0104    0.0000 C   0  0  0  0  0  0  0  0  0  0  0  0
   12.4602    0.5138    0.0000 C   0  0  0  0  0  0  0  0  0  0  0  0
   12.4525    2.5137    0.0000 C   0  0  0  0  0  0  0  0  0  0  0  0
   13.3243    1.0171    0.0000 C   0  0  0  0  0  0  0  0  0  0  0  0
   13.3205    2.0171    0.0000 C   0  0  0  0  0  0  0  0  0  0  0  0
   14.1846    2.5204    0.0000 C   0  0  0  0  0  0  0  0  0  0  0  0
   15.0525    2.0238    0.0000 C   0  0  0  0  0  0  0  0  0  0  0  0
    5.4641   -1.1404    0.0000 H   0  0  0  0  0  0  0  0  0  0  0  0
    5.2520    1.0622    0.0000 H   0  0  0  0  0  0  0  0  0  0  0  0
    4.8535    0.3719    0.0000 H   0  0  0  0  0  0  0  0  0  0  0  0
    5.9316   -1.4954    0.0000 H   0  0  0  0  0  0  0  0  0  0  0  0
    6.7287   -1.4954    0.0000 H   0  0  0  0  0  0  0  0  0  0  0  0
    6.7287    1.4545    0.0000 H   0  0  0  0  0  0  0  0  0  0  0  0
    5.9316    1.4545    0.0000 H   0  0  0  0  0  0  0  0  0  0  0  0
    4.1306   -0.0455    0.0000 H   0  0  0  0  0  0  0  0  0  0  0  0
    3.3335   -0.0455    0.0000 H   0  0  0  0  0  0  0  0  0  0  0  0
    4.8101   -2.6030    0.0000 H   0  0  0  0  0  0  0  0  0  0  0  0
    5.2087   -1.9128    0.0000 H   0  0  0  0  0  0  0  0  0  0  0  0
    8.0829    1.6342    0.0000 H   0  0  0  0  0  0  0  0  0  0  0  0
    8.0829   -1.6750    0.0000 H   0  0  0  0  0  0  0  0  0  0  0  0
    2.4675   -1.4954    0.0000 H   0  0  0  0  0  0  0  0  0  0  0  0
    3.2646   -1.4954    0.0000 H   0  0  0  0  0  0  0  0  0  0  0  0
    3.5200   -1.9378    0.0000 H   0  0  0  0  0  0  0  0  0  0  0  0
    3.1215   -2.6281    0.0000 H   0  0  0  0  0  0  0  0  0  0  0  0
    9.5319   -0.8533    0.0000 H   0  0  0  0  0  0  0  0  0  0  0  0
   10.2569    1.4802    0.0000 H   0  0  0  0  0  0  0  0  0  0  0  0
    9.4599    1.4772    0.0000 H   0  0  0  0  0  0  0  0  0  0  0  0
    2.3100    0.0165    0.0000 H   0  0  0  0  0  0  0  0  0  0  0  0
    1.4631   -0.2104    0.0000 H   0  0  0  0  0  0  0  0  0  0  0  0
    1.6900   -1.0574    0.0000 H   0  0  0  0  0  0  0  0  0  0  0  0
    3.1120   -3.5204    0.0000 H   0  0  0  0  0  0  0  0  0  0  0  0
    3.7320   -4.1404    0.0000 H   0  0  0  0  0  0  0  0  0  0  0  0
    4.3520   -3.5204    0.0000 H   0  0  0  0  0  0  0  0  0  0  0  0
   10.3315    0.0306    0.0000 H   0  0  0  0  0  0  0  0  0  0  0  0
   11.1286    0.0337    0.0000 H   0  0  0  0  0  0  0  0  0  0  0  0
   11.0503    2.3183    0.0000 H   0  0  0  0  0  0  0  0  0  0  0  0
   12.4626   -0.1062    0.0000 H   0  0  0  0  0  0  0  0  0  0  0  0
   12.4501    3.1337    0.0000 H   0  0  0  0  0  0  0  0  0  0  0  0
   13.8625    0.7092    0.0000 H   0  0  0  0  0  0  0  0  0  0  0  0
   14.7446    1.4856    0.0000 H   0  0  0  0  0  0  0  0  0  0  0  0
   15.5906    1.7158    0.0000 H   0  0  0  0  0  0  0  0  0  0  0  0
   15.3604    2.5619    0.0000 H   0  0  0  0  0  0  0  0  0  0  0  0
  1 27  2  0  0  0  0
  3  2  1  6  0  0  0
  2  9  1  0  0  0  0
  2 10  1  0  0  0  0
  3  4  1  0  0  0  0
  3  5  1  0  0  0  0
  3 29  1  0  0  0  0
  4  6  1  0  0  0  0
  4 30  1  0  0  0  0
  4 31  1  0  0  0  0
  5  7  1  0  0  0  0
  5 32  1  0  0  0  0
  5 33  1  0  0  0  0
  6  8  1  0  0  0  0
  6 34  1  0  0  0  0
  6 35  1  0  0  0  0
  7  8  2  0  0  0  0
  7 12  1  0  0  0  0
  8 11  1  0  0  0  0
  9 14  1  0  0  0  0
  9 36  1  0  0  0  0
  9 37  1  0  0  0  0
 10 15  1  0  0  0  0
 10 38  1  0  0  0  0
 10 39  1  0  0  0  0
 11 13  2  0  0  0  0
 11 40  1  0  0  0  0
 12 16  2  0  0  0  0
 12 41  1  0  0  0  0
 13 16  1  0  0  0  0
 13 17  1  0  0  0  0
 14 18  1  0  0  0  0
 14 42  1  0  0  0  0
 14 43  1  0  0  0  0
 15 19  1  0  0  0  0
 15 44  1  0  0  0  0
 15 45  1  0  0  0  0
 16 46  1  0  0  0  0
 17 20  1  0  0  0  0
 17 47  1  0  0  0  0
 17 48  1  0  0  0  0
 18 49  1  0  0  0  0
 18 50  1  0  0  0  0
 18 51  1  0  0  0  0
 19 52  1  0  0  0  0
 19 53  1  0  0  0  0
 19 54  1  0  0  0  0
 20 21  1  0  0  0  0
 20 55  1  0  0  0  0
 20 56  1  0  0  0  0
 21 22  2  0  0  0  0
 21 23  1  0  0  0  0
 22 24  1  0  0  0  0
 22 57  1  0  0  0  0
 23 25  2  0  0  0  0
 23 58  1  0  0  0  0
 24 26  2  0  0  0  0
 24 59  1  0  0  0  0
 25 26  1  0  0  0  0
 25 60  1  0  0  0  0
 26 27  1  0  0  0  0
 27 28  1  0  0  0  0
 28 61  1  0  0  0  0
 28 62  1  0  0  0  0
 28 63  1  0  0  0  0
M  END
> <PUBCHEM_COMPOUND_CID>
44353353

> <PUBCHEM_COMPOUND_CANONICALIZED>
1

> <PUBCHEM_CACTVS_COMPLEXITY>
461

> <PUBCHEM_CACTVS_HBOND_ACCEPTOR>
2

> <PUBCHEM_CACTVS_HBOND_DONOR>
0

> <PUBCHEM_CACTVS_ROTATABLE_BOND>
9

> <PUBCHEM_CACTVS_SUBSKEYS>
AAADcfB6IAAAAAAAAAAAAAAAAAAAAAAAAAAwYMAAAAAAAADBQAAAHgAAAAAADCzBmAQyAIMAAACIAqBSAAACAAAkAAAIiAEIAMgIIDKAlRGEIQAggACIiYcYiMCOwAACAAAQAACQAASAACAAAAAAAAAAAA==

> <PUBCHEM_IUPAC_OPENEYE_NAME>
1-[4-[2-[(2R)-2-(dipropylamino)tetralin-6-yl]ethyl]phenyl]ethanone

> <PUBCHEM_IUPAC_CAS_NAME>
1-[4-[2-[(6R)-6-(dipropylamino)-5,6,7,8-tetrahydronaphthalen-2-yl]ethyl]phenyl]ethanone

> <PUBCHEM_IUPAC_NAME_MARKUP>
1-[4-[2-[(6<I>R</I>)-6-(dipropylamino)-5,6,7,8-tetrahydronaphthalen-2-yl]ethyl]phenyl]ethanone

> <PUBCHEM_IUPAC_NAME>
1-[4-[2-[(6R)-6-(dipropylamino)-5,6,7,8-tetrahydronaphthalen-2-yl]ethyl]phenyl]ethanone

> <PUBCHEM_IUPAC_SYSTEMATIC_NAME>
1-[4-[2-[(6R)-6-(dipropylamino)-5,6,7,8-tetrahydronaphthalen-2-yl]ethyl]phenyl]ethanone

> <PUBCHEM_IUPAC_TRADITIONAL_NAME>
1-[4-[2-[(2R)-2-(dipropylamino)tetralin-6-yl]ethyl]phenyl]ethanone

> <PUBCHEM_IUPAC_INCHI>
InChI=1S/C26H35NO/c1-4-16-27(17-5-2)26-15-14-24-18-22(10-13-25(24)19-26)7-6-21-8-11-23(12-9-21)20(3)28/h8-13,18,26H,4-7,14-17,19H2,1-3H3/t26-/m1/s1

> <PUBCHEM_IUPAC_INCHIKEY>
RHNRGRRBWOZBRT-AREMUKBSSA-N

> <PUBCHEM_XLOGP3_AA>
6.4

> <PUBCHEM_EXACT_MASS>
377.271864740

> <PUBCHEM_MOLECULAR_FORMULA>
C26H35NO

> <PUBCHEM_MOLECULAR_WEIGHT>
377.6

> <PUBCHEM_OPENEYE_CAN_SMILES>
CCCN(CCC)C1CCC2=C(C1)C=CC(=C2)CCC3=CC=C(C=C3)C(=O)C

> <PUBCHEM_OPENEYE_ISO_SMILES>
CCCN(CCC)[C@@H]1CCC2=C(C1)C=CC(=C2)CCC3=CC=C(C=C3)C(=O)C

> <PUBCHEM_CACTVS_TPSA>
20.3

> <PUBCHEM_MONOISOTOPIC_WEIGHT>
377.271864740

> <PUBCHEM_TOTAL_CHARGE>
0

> <PUBCHEM_HEAVY_ATOM_COUNT>
28

> <PUBCHEM_ATOM_DEF_STEREO_COUNT>
1

> <PUBCHEM_ATOM_UDEF_STEREO_COUNT>
0

> <PUBCHEM_BOND_DEF_STEREO_COUNT>
0

> <PUBCHEM_BOND_UDEF_STEREO_COUNT>
0

> <PUBCHEM_ISOTOPIC_ATOM_COUNT>
0

> <PUBCHEM_COMPONENT_COUNT>
1

> <PUBCHEM_CACTVS_TAUTO_COUNT>
-1

> <PUBCHEM_COORDINATE_TYPE>
1
5
255

> <PUBCHEM_BONDANNOTATIONS>
11  13  8
12  16  8
13  16  8
3  2  6
21  22  8
21  23  8
22  24  8
23  25  8
24  26  8
25  26  8
7  12  8
7  8  8
8  11  8

$$$$
