13373172
  -OEChem-09292322292D

 36 39  0     1  0  0  0  0  0999 V2000
    3.8372   -3.7290    0.0000 O   0  0  0  0  0  0  0  0  0  0  0  0
    2.9180    0.9677    0.0000 N   0  0  3  0  0  0  0  0  0  0  0  0
    3.7841    0.4677    0.0000 C   0  0  3  0  0  0  0  0  0  0  0  0
    4.6501    0.9677    0.0000 C   0  0  0  0  0  0  0  0  0  0  0  0
    2.0080    0.4608    0.0000 C   0  0  0  0  0  0  0  0  0  0  0  0
    3.8001   -0.5738    0.0000 C   0  0  0  0  0  0  0  0  0  0  0  0
    2.9180    1.9677    0.0000 C   0  0  0  0  0  0  0  0  0  0  0  0
    2.0000   -0.5808    0.0000 C   0  0  0  0  0  0  0  0  0  0  0  0
    2.9021   -1.1016    0.0000 C   0  0  0  0  0  0  0  0  0  0  0  0
    4.6501    1.9677    0.0000 C   0  0  0  0  0  0  0  0  0  0  0  0
    3.7841    2.4677    0.0000 C   0  0  0  0  0  0  0  0  0  0  0  0
    4.7520   -1.0944    0.0000 C   0  0  0  0  0  0  0  0  0  0  0  0
    2.8937   -2.1865    0.0000 C   0  0  0  0  0  0  0  0  0  0  0  0
    5.5601    2.4745    0.0000 C   0  0  0  0  0  0  0  0  0  0  0  0
    3.7680    3.5092    0.0000 C   0  0  0  0  0  0  0  0  0  0  0  0
    4.7688   -2.1793    0.0000 C   0  0  0  0  0  0  0  0  0  0  0  0
    3.8334   -2.7290    0.0000 C   0  0  0  0  0  0  0  0  0  0  0  0
    5.5681    3.5161    0.0000 C   0  0  0  0  0  0  0  0  0  0  0  0
    4.6660    4.0370    0.0000 C   0  0  0  0  0  0  0  0  0  0  0  0
    4.3234    0.1618    0.0000 H   0  0  0  0  0  0  0  0  0  0  0  0
    4.8621    0.3851    0.0000 H   0  0  0  0  0  0  0  0  0  0  0  0
    5.2607    1.0754    0.0000 H   0  0  0  0  0  0  0  0  0  0  0  0
    1.8035    1.0461    0.0000 H   0  0  0  0  0  0  0  0  0  0  0  0
    1.3964    0.3595    0.0000 H   0  0  0  0  0  0  0  0  0  0  0  0
    2.7060    2.5503    0.0000 H   0  0  0  0  0  0  0  0  0  0  0  0
    2.3074    1.8600    0.0000 H   0  0  0  0  0  0  0  0  0  0  0  0
    1.3900   -0.4700    0.0000 H   0  0  0  0  0  0  0  0  0  0  0  0
    1.7864   -1.1628    0.0000 H   0  0  0  0  0  0  0  0  0  0  0  0
    5.2829   -0.7742    0.0000 H   0  0  0  0  0  0  0  0  0  0  0  0
    2.3556   -2.4945    0.0000 H   0  0  0  0  0  0  0  0  0  0  0  0
    6.0934    2.1584    0.0000 H   0  0  0  0  0  0  0  0  0  0  0  0
    3.2275    3.8130    0.0000 H   0  0  0  0  0  0  0  0  0  0  0  0
    5.3093   -2.4831    0.0000 H   0  0  0  0  0  0  0  0  0  0  0  0
    6.1062    3.8241    0.0000 H   0  0  0  0  0  0  0  0  0  0  0  0
    4.6636    4.6570    0.0000 H   0  0  0  0  0  0  0  0  0  0  0  0
    4.3753   -4.0370    0.0000 H   0  0  0  0  0  0  0  0  0  0  0  0
  1 17  1  0  0  0  0
  1 36  1  0  0  0  0
  2  3  1  0  0  0  0
  2  5  1  0  0  0  0
  2  7  1  0  0  0  0
  3  4  1  0  0  0  0
  3  6  1  0  0  0  0
  3 20  1  0  0  0  0
  4 10  1  0  0  0  0
  4 21  1  0  0  0  0
  4 22  1  0  0  0  0
  5  8  1  0  0  0  0
  5 23  1  0  0  0  0
  5 24  1  0  0  0  0
  6  9  2  0  0  0  0
  6 12  1  0  0  0  0
  7 11  1  0  0  0  0
  7 25  1  0  0  0  0
  7 26  1  0  0  0  0
  8  9  1  0  0  0  0
  8 27  1  0  0  0  0
  8 28  1  0  0  0  0
  9 13  1  0  0  0  0
 10 11  1  0  0  0  0
 10 14  2  0  0  0  0
 11 15  2  0  0  0  0
 12 16  2  0  0  0  0
 12 29  1  0  0  0  0
 13 17  2  0  0  0  0
 13 30  1  0  0  0  0
 14 18  1  0  0  0  0
 14 31  1  0  0  0  0
 15 19  1  0  0  0  0
 15 32  1  0  0  0  0
 16 17  1  0  0  0  0
 16 33  1  0  0  0  0
 18 19  2  0  0  0  0
 18 34  1  0  0  0  0
 19 35  1  0  0  0  0
M  END
> <PUBCHEM_COMPOUND_CID>
13373172

> <PUBCHEM_COMPOUND_CANONICALIZED>
1

> <PUBCHEM_CACTVS_COMPLEXITY>
331

> <PUBCHEM_CACTVS_HBOND_ACCEPTOR>
2

> <PUBCHEM_CACTVS_HBOND_DONOR>
1

> <PUBCHEM_CACTVS_ROTATABLE_BOND>
0

> <PUBCHEM_CACTVS_SUBSKEYS>
AAADceB6IAAAAAAAAAAAAAAAAAAAAAAAAAA8eIEAAAAAAACxQAAAHgAACAAADCzBmAQwBoMAAgCAAiBCAACCAAAgIAAIiAAODIgIJiKCkROEcAhkwBGImAeQ0PMOoAABAAAQAABAAAIAACAAAAAAAAAAAA==

> <PUBCHEM_IUPAC_OPENEYE_NAME>
6,8,13,13a-tetrahydro-5H-isoquinolino[2,1-b]isoquinolin-3-ol

> <PUBCHEM_IUPAC_CAS_NAME>
6,8,13,13a-tetrahydro-5H-isoquinolino[2,1-b]isoquinolin-3-ol

> <PUBCHEM_IUPAC_NAME_MARKUP>
6,8,13,13<I>a</I>-tetrahydro-5<I>H</I>-isoquinolino[2,1-b]isoquinolin-3-ol

> <PUBCHEM_IUPAC_NAME>
6,8,13,13a-tetrahydro-5H-isoquinolino[2,1-b]isoquinolin-3-ol

> <PUBCHEM_IUPAC_SYSTEMATIC_NAME>
6,8,13,13a-tetrahydro-5H-isoquinolino[2,1-b]isoquinolin-3-ol

> <PUBCHEM_IUPAC_TRADITIONAL_NAME>
6,8,13,13a-tetrahydro-5H-isoquinolin[2,1-b]isoquinolin-3-ol

> <PUBCHEM_IUPAC_INCHI>
InChI=1S/C17H17NO/c19-15-5-6-16-13(9-15)7-8-18-11-14-4-2-1-3-12(14)10-17(16)18/h1-6,9,17,19H,7-8,10-11H2

> <PUBCHEM_IUPAC_INCHIKEY>
QXUOSGAFYZBCAK-UHFFFAOYSA-N

> <PUBCHEM_XLOGP3_AA>
3

> <PUBCHEM_EXACT_MASS>
251.131014166

> <PUBCHEM_MOLECULAR_FORMULA>
C17H17NO

> <PUBCHEM_MOLECULAR_WEIGHT>
251.32

> <PUBCHEM_OPENEYE_CAN_SMILES>
C1CN2CC3=CC=CC=C3CC2C4=C1C=C(C=C4)O

> <PUBCHEM_OPENEYE_ISO_SMILES>
C1CN2CC3=CC=CC=C3CC2C4=C1C=C(C=C4)O

> <PUBCHEM_CACTVS_TPSA>
23.5

> <PUBCHEM_MONOISOTOPIC_WEIGHT>
251.131014166

> <PUBCHEM_TOTAL_CHARGE>
0

> <PUBCHEM_HEAVY_ATOM_COUNT>
19

> <PUBCHEM_ATOM_DEF_STEREO_COUNT>
0

> <PUBCHEM_ATOM_UDEF_STEREO_COUNT>
1

> <PUBCHEM_BOND_DEF_STEREO_COUNT>
0

> <PUBCHEM_BOND_UDEF_STEREO_COUNT>
0

> <PUBCHEM_ISOTOPIC_ATOM_COUNT>
0

> <PUBCHEM_COMPONENT_COUNT>
1

> <PUBCHEM_CACTVS_TAUTO_COUNT>
-1

> <PUBCHEM_COORDINATE_TYPE>
1
5
255

> <PUBCHEM_BONDANNOTATIONS>
10  11  8
10  14  8
11  15  8
12  16  8
13  17  8
14  18  8
15  19  8
16  17  8
18  19  8
3  4  3
6  12  8
6  9  8
9  13  8

$$$$
