168277374
  -OEChem-09292322442D

 51 54  0     0  0  0  0  0  0999 V2000
   11.4813    1.7180    0.0000 Cl  0  0  0  0  0  0  0  0  0  0  0  0
   13.4383    2.1305    0.0000 Cl  0  0  0  0  0  0  0  0  0  0  0  0
    4.6783   -3.9803    0.0000 N   0  0  0  0  0  0  0  0  0  0  0  0
    6.2781   -0.2636    0.0000 N   0  0  0  0  0  0  0  0  0  0  0  0
    8.8564    2.0499    0.0000 N   0  0  0  0  0  0  0  0  0  0  0  0
    7.5673    0.8932    0.0000 N   0  0  0  0  0  0  0  0  0  0  0  0
    7.9244   -0.8016    0.0000 N   0  0  0  0  0  0  0  0  0  0  0  0
    9.2136    0.3551    0.0000 N   0  0  0  0  0  0  0  0  0  0  0  0
    9.5708   -1.3397    0.0000 N   0  0  0  0  0  0  0  0  0  0  0  0
    4.6783   -2.3708    0.0000 C   0  0  0  0  0  0  0  0  0  0  0  0
    4.9889   -1.4203    0.0000 C   0  0  0  0  0  0  0  0  0  0  0  0
    3.7320   -2.6756    0.0000 C   0  0  0  0  0  0  0  0  0  0  0  0
    3.7320   -3.6756    0.0000 C   0  0  0  0  0  0  0  0  0  0  0  0
    5.9674   -1.2141    0.0000 C   0  0  0  0  0  0  0  0  0  0  0  0
    5.2619   -3.1756    0.0000 C   0  0  0  0  0  0  0  0  0  0  0  0
    2.8660   -2.1756    0.0000 C   0  0  0  0  0  0  0  0  0  0  0  0
    2.8660   -4.1756    0.0000 C   0  0  0  0  0  0  0  0  0  0  0  0
   10.1456    3.2066    0.0000 C   0  0  0  0  0  0  0  0  0  0  0  0
    2.0000   -2.6756    0.0000 C   0  0  0  0  0  0  0  0  0  0  0  0
    9.8349    2.2561    0.0000 C   0  0  0  0  0  0  0  0  0  0  0  0
    2.0000   -3.6756    0.0000 C   0  0  0  0  0  0  0  0  0  0  0  0
   11.1241    3.4129    0.0000 C   0  0  0  0  0  0  0  0  0  0  0  0
    7.2566   -0.0573    0.0000 C   0  0  0  0  0  0  0  0  0  0  0  0
    8.5458    1.0994    0.0000 C   0  0  0  0  0  0  0  0  0  0  0  0
   11.7920    2.6686    0.0000 C   0  0  0  0  0  0  0  0  0  0  0  0
   11.4348    4.3634    0.0000 C   0  0  0  0  0  0  0  0  0  0  0  0
   12.7705    2.8748    0.0000 C   0  0  0  0  0  0  0  0  0  0  0  0
   12.4133    4.5696    0.0000 C   0  0  0  0  0  0  0  0  0  0  0  0
    8.9030   -0.5954    0.0000 C   0  0  0  0  0  0  0  0  0  0  0  0
   13.0811    3.8253    0.0000 C   0  0  0  0  0  0  0  0  0  0  0  0
    4.9684   -0.8006    0.0000 H   0  0  0  0  0  0  0  0  0  0  0  0
    4.3751   -1.3330    0.0000 H   0  0  0  0  0  0  0  0  0  0  0  0
    5.9880   -1.8337    0.0000 H   0  0  0  0  0  0  0  0  0  0  0  0
    6.5812   -1.3014    0.0000 H   0  0  0  0  0  0  0  0  0  0  0  0
    5.8819   -3.1756    0.0000 H   0  0  0  0  0  0  0  0  0  0  0  0
    4.8709   -4.5696    0.0000 H   0  0  0  0  0  0  0  0  0  0  0  0
    2.8660   -1.5556    0.0000 H   0  0  0  0  0  0  0  0  0  0  0  0
    2.8660   -4.7956    0.0000 H   0  0  0  0  0  0  0  0  0  0  0  0
    5.8640    0.1979    0.0000 H   0  0  0  0  0  0  0  0  0  0  0  0
   10.1250    3.8263    0.0000 H   0  0  0  0  0  0  0  0  0  0  0  0
    9.5318    3.2940    0.0000 H   0  0  0  0  0  0  0  0  0  0  0  0
    9.8555    1.6365    0.0000 H   0  0  0  0  0  0  0  0  0  0  0  0
   10.4488    2.1688    0.0000 H   0  0  0  0  0  0  0  0  0  0  0  0
    1.4631   -2.3656    0.0000 H   0  0  0  0  0  0  0  0  0  0  0  0
    1.4631   -3.9856    0.0000 H   0  0  0  0  0  0  0  0  0  0  0  0
    8.4424    2.5114    0.0000 H   0  0  0  0  0  0  0  0  0  0  0  0
   11.0207    4.8249    0.0000 H   0  0  0  0  0  0  0  0  0  0  0  0
   12.6059    5.1589    0.0000 H   0  0  0  0  0  0  0  0  0  0  0  0
   13.6878    3.9532    0.0000 H   0  0  0  0  0  0  0  0  0  0  0  0
   10.1775   -1.2119    0.0000 H   0  0  0  0  0  0  0  0  0  0  0  0
    9.3782   -1.9290    0.0000 H   0  0  0  0  0  0  0  0  0  0  0  0
  1 25  1  0  0  0  0
  2 27  1  0  0  0  0
  3 13  1  0  0  0  0
  3 15  1  0  0  0  0
  3 36  1  0  0  0  0
  4 14  1  0  0  0  0
  4 23  1  0  0  0  0
  4 39  1  0  0  0  0
  5 20  1  0  0  0  0
  5 24  1  0  0  0  0
  5 46  1  0  0  0  0
  6 23  1  0  0  0  0
  6 24  2  0  0  0  0
  7 23  2  0  0  0  0
  7 29  1  0  0  0  0
  8 24  1  0  0  0  0
  8 29  2  0  0  0  0
  9 29  1  0  0  0  0
  9 50  1  0  0  0  0
  9 51  1  0  0  0  0
 10 11  1  0  0  0  0
 10 12  1  0  0  0  0
 10 15  2  0  0  0  0
 11 14  1  0  0  0  0
 11 31  1  0  0  0  0
 11 32  1  0  0  0  0
 12 13  1  0  0  0  0
 12 16  2  0  0  0  0
 13 17  2  0  0  0  0
 14 33  1  0  0  0  0
 14 34  1  0  0  0  0
 15 35  1  0  0  0  0
 16 19  1  0  0  0  0
 16 37  1  0  0  0  0
 17 21  1  0  0  0  0
 17 38  1  0  0  0  0
 18 20  1  0  0  0  0
 18 22  1  0  0  0  0
 18 40  1  0  0  0  0
 18 41  1  0  0  0  0
 19 21  2  0  0  0  0
 19 44  1  0  0  0  0
 20 42  1  0  0  0  0
 20 43  1  0  0  0  0
 21 45  1  0  0  0  0
 22 25  2  0  0  0  0
 22 26  1  0  0  0  0
 25 27  1  0  0  0  0
 26 28  2  0  0  0  0
 26 47  1  0  0  0  0
 27 30  2  0  0  0  0
 28 30  1  0  0  0  0
 28 48  1  0  0  0  0
 30 49  1  0  0  0  0
M  END
> <PUBCHEM_COMPOUND_CID>
168277374

> <PUBCHEM_COMPOUND_CANONICALIZED>
1

> <PUBCHEM_CACTVS_COMPLEXITY>
528

> <PUBCHEM_CACTVS_HBOND_ACCEPTOR>
6

> <PUBCHEM_CACTVS_HBOND_DONOR>
4

> <PUBCHEM_CACTVS_ROTATABLE_BOND>
8

> <PUBCHEM_CACTVS_SUBSKEYS>
AAADceB7gAAGAAAAAAAAAAAAAAAAAWAAAAA8YIAAAAAAAFgB/AAAHAIQAAAADArBHiQ90PbJkACgAzRnZACCgCkxB6AJ2+A4ZpiIKOLBm5GEIAhokALIyAcQgMAOgAAAIAADAAQAAABAAAYACAAAAAAAAA==

> <PUBCHEM_IUPAC_OPENEYE_NAME>
N4-[2-(2,3-dichlorophenyl)ethyl]-N2-[2-(1H-indol-3-yl)ethyl]-1,3,5-triazine-2,4,6-triamine

> <PUBCHEM_IUPAC_CAS_NAME>
N4-[2-(2,3-dichlorophenyl)ethyl]-N2-[2-(1H-indol-3-yl)ethyl]-1,3,5-triazine-2,4,6-triamine

> <PUBCHEM_IUPAC_NAME_MARKUP>
4-<I>N</I>-[2-(2,3-dichlorophenyl)ethyl]-2-<I>N</I>-[2-(1<I>H</I>-indol-3-yl)ethyl]-1,3,5-triazine-2,4,6-triamine

> <PUBCHEM_IUPAC_NAME>
4-N-[2-(2,3-dichlorophenyl)ethyl]-2-N-[2-(1H-indol-3-yl)ethyl]-1,3,5-triazine-2,4,6-triamine

> <PUBCHEM_IUPAC_SYSTEMATIC_NAME>
N4-[2-[2,3-bis(chloranyl)phenyl]ethyl]-N2-[2-(1H-indol-3-yl)ethyl]-1,3,5-triazine-2,4,6-triamine

> <PUBCHEM_IUPAC_TRADITIONAL_NAME>
[4-amino-6-[2-(2,3-dichlorophenyl)ethylamino]-s-triazin-2-yl]-[2-(1H-indol-3-yl)ethyl]amine

> <PUBCHEM_IUPAC_INCHI>
InChI=1S/C21H21Cl2N7/c22-16-6-3-4-13(18(16)23)8-10-25-20-28-19(24)29-21(30-20)26-11-9-14-12-27-17-7-2-1-5-15(14)17/h1-7,12,27H,8-11H2,(H4,24,25,26,28,29,30)

> <PUBCHEM_IUPAC_INCHIKEY>
ZOAXAKJUBSMZJB-UHFFFAOYSA-N

> <PUBCHEM_XLOGP3_AA>
5.6

> <PUBCHEM_EXACT_MASS>
441.1235491

> <PUBCHEM_MOLECULAR_FORMULA>
C21H21Cl2N7

> <PUBCHEM_MOLECULAR_WEIGHT>
442.3

> <PUBCHEM_OPENEYE_CAN_SMILES>
C1=CC=C2C(=C1)C(=CN2)CCNC3=NC(=NC(=N3)NCCC4=C(C(=CC=C4)Cl)Cl)N

> <PUBCHEM_OPENEYE_ISO_SMILES>
C1=CC=C2C(=C1)C(=CN2)CCNC3=NC(=NC(=N3)NCCC4=C(C(=CC=C4)Cl)Cl)N

> <PUBCHEM_CACTVS_TPSA>
105

> <PUBCHEM_MONOISOTOPIC_WEIGHT>
441.1235491

> <PUBCHEM_TOTAL_CHARGE>
0

> <PUBCHEM_HEAVY_ATOM_COUNT>
30

> <PUBCHEM_ATOM_DEF_STEREO_COUNT>
0

> <PUBCHEM_ATOM_UDEF_STEREO_COUNT>
0

> <PUBCHEM_BOND_DEF_STEREO_COUNT>
0

> <PUBCHEM_BOND_UDEF_STEREO_COUNT>
0

> <PUBCHEM_ISOTOPIC_ATOM_COUNT>
0

> <PUBCHEM_COMPONENT_COUNT>
1

> <PUBCHEM_CACTVS_TAUTO_COUNT>
-1

> <PUBCHEM_COORDINATE_TYPE>
1
5
255

> <PUBCHEM_BONDANNOTATIONS>
10  12  8
10  15  8
12  13  8
12  16  8
13  17  8
16  19  8
17  21  8
19  21  8
22  25  8
22  26  8
25  27  8
26  28  8
27  30  8
28  30  8
3  13  8
3  15  8
6  23  8
6  24  8
7  23  8
7  29  8
8  24  8
8  29  8

$$$$
