10176799
  -OEChem-09292322192D

 29 31  0     0  0  0  0  0  0999 V2000
    5.5938   -1.2168    0.0000 S   0  0  0  0  0  0  0  0  0  0  0  0
    2.5836    0.0533    0.0000 N   0  0  0  0  0  0  0  0  0  0  0  0
    2.0000    0.8581    0.0000 N   0  0  0  0  0  0  0  0  0  0  0  0
    5.2619    0.3581    0.0000 C   0  0  0  0  0  0  0  0  0  0  0  0
    5.2619    1.3581    0.0000 C   0  0  0  0  0  0  0  0  0  0  0  0
    4.3958   -0.1419    0.0000 C   0  0  0  0  0  0  0  0  0  0  0  0
    4.3958    1.8581    0.0000 C   0  0  0  0  0  0  0  0  0  0  0  0
    3.5298    0.3581    0.0000 C   0  0  0  0  0  0  0  0  0  0  0  0
    3.5298    1.3581    0.0000 C   0  0  0  0  0  0  0  0  0  0  0  0
    5.9989   -0.3090    0.0000 C   0  0  0  0  0  0  0  0  0  0  0  0
    4.6051   -1.1138    0.0000 C   0  0  0  0  0  0  0  0  0  0  0  0
    2.5836    1.6628    0.0000 C   0  0  0  0  0  0  0  0  0  0  0  0
    6.9774   -0.1028    0.0000 C   0  0  0  0  0  0  0  0  0  0  0  0
    3.9372   -1.8581    0.0000 C   0  0  0  0  0  0  0  0  0  0  0  0
    2.2729   -0.8972    0.0000 C   0  0  0  0  0  0  0  0  0  0  0  0
    5.8725    1.2504    0.0000 H   0  0  0  0  0  0  0  0  0  0  0  0
    5.4739    1.9407    0.0000 H   0  0  0  0  0  0  0  0  0  0  0  0
    4.7944    2.3330    0.0000 H   0  0  0  0  0  0  0  0  0  0  0  0
    3.9973    2.3330    0.0000 H   0  0  0  0  0  0  0  0  0  0  0  0
    2.3910    2.2521    0.0000 H   0  0  0  0  0  0  0  0  0  0  0  0
    7.1053   -0.7095    0.0000 H   0  0  0  0  0  0  0  0  0  0  0  0
    7.5841    0.0250    0.0000 H   0  0  0  0  0  0  0  0  0  0  0  0
    6.8496    0.5039    0.0000 H   0  0  0  0  0  0  0  0  0  0  0  0
    3.4758   -1.4440    0.0000 H   0  0  0  0  0  0  0  0  0  0  0  0
    3.5232   -2.3195    0.0000 H   0  0  0  0  0  0  0  0  0  0  0  0
    4.3987   -2.2721    0.0000 H   0  0  0  0  0  0  0  0  0  0  0  0
    1.6836   -0.7046    0.0000 H   0  0  0  0  0  0  0  0  0  0  0  0
    2.0803   -1.4865    0.0000 H   0  0  0  0  0  0  0  0  0  0  0  0
    2.8623   -1.0898    0.0000 H   0  0  0  0  0  0  0  0  0  0  0  0
  1 10  1  0  0  0  0
  1 11  1  0  0  0  0
  2  3  1  0  0  0  0
  2  8  1  0  0  0  0
  2 15  1  0  0  0  0
  3 12  2  0  0  0  0
  4  5  1  0  0  0  0
  4  6  1  0  0  0  0
  4 10  2  0  0  0  0
  5  7  1  0  0  0  0
  5 16  1  0  0  0  0
  5 17  1  0  0  0  0
  6  8  1  0  0  0  0
  6 11  2  0  0  0  0
  7  9  1  0  0  0  0
  7 18  1  0  0  0  0
  7 19  1  0  0  0  0
  8  9  2  0  0  0  0
  9 12  1  0  0  0  0
 10 13  1  0  0  0  0
 11 14  1  0  0  0  0
 12 20  1  0  0  0  0
 13 21  1  0  0  0  0
 13 22  1  0  0  0  0
 13 23  1  0  0  0  0
 14 24  1  0  0  0  0
 14 25  1  0  0  0  0
 14 26  1  0  0  0  0
 15 27  1  0  0  0  0
 15 28  1  0  0  0  0
 15 29  1  0  0  0  0
M  END
> <PUBCHEM_COMPOUND_CID>
10176799

> <PUBCHEM_COMPOUND_CANONICALIZED>
1

> <PUBCHEM_CACTVS_COMPLEXITY>
258

> <PUBCHEM_CACTVS_HBOND_ACCEPTOR>
2

> <PUBCHEM_CACTVS_HBOND_DONOR>
0

> <PUBCHEM_CACTVS_ROTATABLE_BOND>
0

> <PUBCHEM_CACTVS_SUBSKEYS>
AAADccBzAABAAAAAAAAAAAAAAAAAAWJAAAAwAAAAAAAAAFgB4AAAHAQIAAAADAjBXgQugZIIAAimAxRnRACTBIAhiBAQ2DAoRJgIIKLg0dGEpAhgiABoyAcQgMAOgAAAAAAAAACAAASAACQAAAAAAAAAAA==

> <PUBCHEM_IUPAC_OPENEYE_NAME>
1,6,8-trimethyl-4,5-dihydrothieno[3,4-g]indazole

> <PUBCHEM_IUPAC_CAS_NAME>
1,6,8-trimethyl-4,5-dihydrothieno[3,4-g]indazole

> <PUBCHEM_IUPAC_NAME_MARKUP>
1,6,8-trimethyl-4,5-dihydrothieno[3,4-g]indazole

> <PUBCHEM_IUPAC_NAME>
1,6,8-trimethyl-4,5-dihydrothieno[3,4-g]indazole

> <PUBCHEM_IUPAC_SYSTEMATIC_NAME>
1,6,8-trimethyl-4,5-dihydrothieno[3,4-g]indazole

> <PUBCHEM_IUPAC_TRADITIONAL_NAME>
1,6,8-trimethyl-4,5-dihydrothien[3,4-g]indazole

> <PUBCHEM_IUPAC_INCHI>
InChI=1S/C12H14N2S/c1-7-10-5-4-9-6-13-14(3)12(9)11(10)8(2)15-7/h6H,4-5H2,1-3H3

> <PUBCHEM_IUPAC_INCHIKEY>
MPRZCISVIKBQND-UHFFFAOYSA-N

> <PUBCHEM_XLOGP3_AA>
2.7

> <PUBCHEM_EXACT_MASS>
218.08776963

> <PUBCHEM_MOLECULAR_FORMULA>
C12H14N2S

> <PUBCHEM_MOLECULAR_WEIGHT>
218.32

> <PUBCHEM_OPENEYE_CAN_SMILES>
CC1=C2CCC3=C(C2=C(S1)C)N(N=C3)C

> <PUBCHEM_OPENEYE_ISO_SMILES>
CC1=C2CCC3=C(C2=C(S1)C)N(N=C3)C

> <PUBCHEM_CACTVS_TPSA>
46.1

> <PUBCHEM_MONOISOTOPIC_WEIGHT>
218.08776963

> <PUBCHEM_TOTAL_CHARGE>
0

> <PUBCHEM_HEAVY_ATOM_COUNT>
15

> <PUBCHEM_ATOM_DEF_STEREO_COUNT>
0

> <PUBCHEM_ATOM_UDEF_STEREO_COUNT>
0

> <PUBCHEM_BOND_DEF_STEREO_COUNT>
0

> <PUBCHEM_BOND_UDEF_STEREO_COUNT>
0

> <PUBCHEM_ISOTOPIC_ATOM_COUNT>
0

> <PUBCHEM_COMPONENT_COUNT>
1

> <PUBCHEM_CACTVS_TAUTO_COUNT>
-1

> <PUBCHEM_COORDINATE_TYPE>
1
5
255

> <PUBCHEM_BONDANNOTATIONS>
1  10  8
1  11  8
2  3  8
2  8  8
3  12  8
4  10  8
4  6  8
6  11  8
8  9  8
9  12  8

$$$$
