9821010
  -OEChem-09292322222D

 49 52  0     1  0  0  0  0  0999 V2000
   14.1846    2.5204    0.0000 Cl  0  0  0  0  0  0  0  0  0  0  0  0
    2.0000   -2.5204    0.0000 F   0  0  0  0  0  0  0  0  0  0  0  0
    5.4564   -0.5071    0.0000 O   0  0  0  0  0  0  0  0  0  0  0  0
    8.9884   -0.4796    0.0000 N   0  0  3  0  0  0  0  0  0  0  0  0
   10.7205    0.5204    0.0000 N   0  0  3  0  0  0  0  0  0  0  0  0
   11.5865    2.0204    0.0000 N   0  0  0  0  0  0  0  0  0  0  0  0
    8.9884    0.5204    0.0000 C   0  0  1  0  0  0  0  0  0  0  0  0
    7.1884   -0.5004    0.0000 C   0  0  1  0  0  0  0  0  0  0  0  0
    8.0945    1.0551    0.0000 C   0  0  0  0  0  0  0  0  0  0  0  0
    8.0945   -1.0143    0.0000 C   0  0  0  0  0  0  0  0  0  0  0  0
    7.1884    0.5412    0.0000 C   0  0  0  0  0  0  0  0  0  0  0  0
    9.8544    1.0204    0.0000 C   0  0  0  0  0  0  0  0  0  0  0  0
    9.8544   -0.9796    0.0000 C   0  0  0  0  0  0  0  0  0  0  0  0
   10.7205   -0.4796    0.0000 C   0  0  0  0  0  0  0  0  0  0  0  0
    6.3243   -1.0037    0.0000 C   0  0  0  0  0  0  0  0  0  0  0  0
   11.5865    1.0204    0.0000 C   0  0  0  0  0  0  0  0  0  0  0  0
   12.4525    0.5204    0.0000 C   0  0  0  0  0  0  0  0  0  0  0  0
    4.5923   -1.0104    0.0000 C   0  0  0  0  0  0  0  0  0  0  0  0
   13.3185    1.0204    0.0000 C   0  0  0  0  0  0  0  0  0  0  0  0
   12.4525    2.5204    0.0000 C   0  0  0  0  0  0  0  0  0  0  0  0
   13.3185    2.0204    0.0000 C   0  0  0  0  0  0  0  0  0  0  0  0
    4.5961   -2.0104    0.0000 C   0  0  0  0  0  0  0  0  0  0  0  0
    3.7243   -0.5138    0.0000 C   0  0  0  0  0  0  0  0  0  0  0  0
    3.7320   -2.5137    0.0000 C   0  0  0  0  0  0  0  0  0  0  0  0
    2.8602   -1.0171    0.0000 C   0  0  0  0  0  0  0  0  0  0  0  0
    2.8641   -2.0171    0.0000 C   0  0  0  0  0  0  0  0  0  0  0  0
    8.9950    1.3704    0.0000 H   0  0  0  0  0  0  0  0  0  0  0  0
    7.1920   -1.1204    0.0000 H   0  0  0  0  0  0  0  0  0  0  0  0
    8.4991    1.5249    0.0000 H   0  0  0  0  0  0  0  0  0  0  0  0
    7.7008    1.5341    0.0000 H   0  0  0  0  0  0  0  0  0  0  0  0
    7.7008   -1.4933    0.0000 H   0  0  0  0  0  0  0  0  0  0  0  0
    8.4991   -1.4840    0.0000 H   0  0  0  0  0  0  0  0  0  0  0  0
    6.9794    1.1249    0.0000 H   0  0  0  0  0  0  0  0  0  0  0  0
    6.5776    0.4351    0.0000 H   0  0  0  0  0  0  0  0  0  0  0  0
   10.2530    1.4954    0.0000 H   0  0  0  0  0  0  0  0  0  0  0  0
    9.4559    1.4954    0.0000 H   0  0  0  0  0  0  0  0  0  0  0  0
    9.4559   -1.4545    0.0000 H   0  0  0  0  0  0  0  0  0  0  0  0
   10.2530   -1.4545    0.0000 H   0  0  0  0  0  0  0  0  0  0  0  0
   10.9325   -1.0622    0.0000 H   0  0  0  0  0  0  0  0  0  0  0  0
   11.3310   -0.3719    0.0000 H   0  0  0  0  0  0  0  0  0  0  0  0
    5.9276   -1.4802    0.0000 H   0  0  0  0  0  0  0  0  0  0  0  0
    6.7247   -1.4771    0.0000 H   0  0  0  0  0  0  0  0  0  0  0  0
   12.4525   -0.0996    0.0000 H   0  0  0  0  0  0  0  0  0  0  0  0
   13.8555    0.7104    0.0000 H   0  0  0  0  0  0  0  0  0  0  0  0
   12.4525    3.1404    0.0000 H   0  0  0  0  0  0  0  0  0  0  0  0
    5.1343   -2.3183    0.0000 H   0  0  0  0  0  0  0  0  0  0  0  0
    3.7219    0.1062    0.0000 H   0  0  0  0  0  0  0  0  0  0  0  0
    3.7344   -3.1337    0.0000 H   0  0  0  0  0  0  0  0  0  0  0  0
    2.3221   -0.7092    0.0000 H   0  0  0  0  0  0  0  0  0  0  0  0
  1 21  1  0  0  0  0
  2 26  1  0  0  0  0
  3 15  1  0  0  0  0
  3 18  1  0  0  0  0
  4  7  1  0  0  0  0
  4 10  1  0  0  0  0
  4 13  1  0  0  0  0
  5 12  1  0  0  0  0
  5 14  1  0  0  0  0
  5 16  1  0  0  0  0
  6 16  2  0  0  0  0
  6 20  1  0  0  0  0
  7  9  1  0  0  0  0
  7 12  1  0  0  0  0
  7 27  1  6  0  0  0
  8 10  1  0  0  0  0
  8 11  1  0  0  0  0
  8 15  1  6  0  0  0
  8 28  1  0  0  0  0
  9 11  1  0  0  0  0
  9 29  1  0  0  0  0
  9 30  1  0  0  0  0
 10 31  1  0  0  0  0
 10 32  1  0  0  0  0
 11 33  1  0  0  0  0
 11 34  1  0  0  0  0
 12 35  1  0  0  0  0
 12 36  1  0  0  0  0
 13 14  1  0  0  0  0
 13 37  1  0  0  0  0
 13 38  1  0  0  0  0
 14 39  1  0  0  0  0
 14 40  1  0  0  0  0
 15 41  1  0  0  0  0
 15 42  1  0  0  0  0
 16 17  1  0  0  0  0
 17 19  2  0  0  0  0
 17 43  1  0  0  0  0
 18 22  2  0  0  0  0
 18 23  1  0  0  0  0
 19 21  1  0  0  0  0
 19 44  1  0  0  0  0
 20 21  2  0  0  0  0
 20 45  1  0  0  0  0
 22 24  1  0  0  0  0
 22 46  1  0  0  0  0
 23 25  2  0  0  0  0
 23 47  1  0  0  0  0
 24 26  2  0  0  0  0
 24 48  1  0  0  0  0
 25 26  1  0  0  0  0
 25 49  1  0  0  0  0
M  END
> <PUBCHEM_COMPOUND_CID>
9821010

> <PUBCHEM_COMPOUND_CANONICALIZED>
1

> <PUBCHEM_CACTVS_COMPLEXITY>
449

> <PUBCHEM_CACTVS_HBOND_ACCEPTOR>
5

> <PUBCHEM_CACTVS_HBOND_DONOR>
0

> <PUBCHEM_CACTVS_ROTATABLE_BOND>
4

> <PUBCHEM_CACTVS_SUBSKEYS>
AAADceB7IQAEAAAAAAAAAAAAAAAAAAAAAAA8WLEAAAAAAACxwAAAHwIAAAAADS7hki49tpMIFACgADJnZACCiCkxJyAJ2CA+bpiMZuLFu5vWOCjuwBPI6CeQUAMMAAAAAAAAAAAAAAAAAAAAAAAAAAAAAA==

> <PUBCHEM_IUPAC_OPENEYE_NAME>
(7R,9aS)-2-(5-chloro-2-pyridyl)-7-[(4-fluorophenoxy)methyl]-1,3,4,6,7,8,9,9a-octahydropyrido[1,2-a]pyrazine

> <PUBCHEM_IUPAC_CAS_NAME>
(7R,9aS)-2-(5-chloro-2-pyridinyl)-7-[(4-fluorophenoxy)methyl]-1,3,4,6,7,8,9,9a-octahydropyrido[1,2-a]pyrazine

> <PUBCHEM_IUPAC_NAME_MARKUP>
(7<I>R</I>,9<I>a</I><I>S</I>)-2-(5-chloropyridin-2-yl)-7-[(4-fluorophenoxy)methyl]-1,3,4,6,7,8,9,9<I>a</I>-octahydropyrido[1,2-a]pyrazine

> <PUBCHEM_IUPAC_NAME>
(7R,9aS)-2-(5-chloropyridin-2-yl)-7-[(4-fluorophenoxy)methyl]-1,3,4,6,7,8,9,9a-octahydropyrido[1,2-a]pyrazine

> <PUBCHEM_IUPAC_SYSTEMATIC_NAME>
(7R,9aS)-2-(5-chloranylpyridin-2-yl)-7-[(4-fluoranylphenoxy)methyl]-1,3,4,6,7,8,9,9a-octahydropyrido[1,2-a]pyrazine

> <PUBCHEM_IUPAC_TRADITIONAL_NAME>
(7R,9aS)-2-(5-chloro-2-pyridyl)-7-[(4-fluorophenoxy)methyl]-1,3,4,6,7,8,9,9a-octahydropyrido[1,2-a]pyrazine

> <PUBCHEM_IUPAC_INCHI>
InChI=1S/C20H23ClFN3O/c21-16-2-8-20(23-11-16)25-10-9-24-12-15(1-5-18(24)13-25)14-26-19-6-3-17(22)4-7-19/h2-4,6-8,11,15,18H,1,5,9-10,12-14H2/t15-,18+/m1/s1

> <PUBCHEM_IUPAC_INCHIKEY>
DDLMXDXJVCLTCF-QAPCUYQASA-N

> <PUBCHEM_XLOGP3_AA>
4.3

> <PUBCHEM_EXACT_MASS>
375.1513682

> <PUBCHEM_MOLECULAR_FORMULA>
C20H23ClFN3O

> <PUBCHEM_MOLECULAR_WEIGHT>
375.9

> <PUBCHEM_OPENEYE_CAN_SMILES>
C1CC2CN(CCN2CC1COC3=CC=C(C=C3)F)C4=NC=C(C=C4)Cl

> <PUBCHEM_OPENEYE_ISO_SMILES>
C1C[C@H]2CN(CCN2C[C@@H]1COC3=CC=C(C=C3)F)C4=NC=C(C=C4)Cl

> <PUBCHEM_CACTVS_TPSA>
28.6

> <PUBCHEM_MONOISOTOPIC_WEIGHT>
375.1513682

> <PUBCHEM_TOTAL_CHARGE>
0

> <PUBCHEM_HEAVY_ATOM_COUNT>
26

> <PUBCHEM_ATOM_DEF_STEREO_COUNT>
2

> <PUBCHEM_ATOM_UDEF_STEREO_COUNT>
0

> <PUBCHEM_BOND_DEF_STEREO_COUNT>
0

> <PUBCHEM_BOND_UDEF_STEREO_COUNT>
0

> <PUBCHEM_ISOTOPIC_ATOM_COUNT>
0

> <PUBCHEM_COMPONENT_COUNT>
1

> <PUBCHEM_CACTVS_TAUTO_COUNT>
-1

> <PUBCHEM_COORDINATE_TYPE>
1
5
255

> <PUBCHEM_BONDANNOTATIONS>
16  17  8
17  19  8
18  22  8
18  23  8
19  21  8
20  21  8
22  24  8
23  25  8
24  26  8
25  26  8
6  16  8
6  20  8
7  27  6
8  15  6

$$$$
