155566238
  -OEChem-09292322092D

 43 45  0     0  0  0  0  0  0999 V2000
    9.1962    4.7320    0.0000 Cl  0  0  0  0  0  0  0  0  0  0  0  0
    2.0000   -4.7320    0.0000 F   0  0  0  0  0  0  0  0  0  0  0  0
    6.6962    2.1340    0.0000 O   0  0  0  0  0  0  0  0  0  0  0  0
    7.1962   -0.7321    0.0000 N   0  0  0  0  0  0  0  0  0  0  0  0
    7.1962    1.2680    0.0000 C   0  0  0  0  0  0  0  0  0  0  0  0
    8.0622    0.7679    0.0000 C   0  0  0  0  0  0  0  0  0  0  0  0
    6.3301    0.7679    0.0000 C   0  0  0  0  0  0  0  0  0  0  0  0
    8.0622   -0.2321    0.0000 C   0  0  0  0  0  0  0  0  0  0  0  0
    6.3301   -0.2321    0.0000 C   0  0  0  0  0  0  0  0  0  0  0  0
    7.6962    2.1340    0.0000 C   0  0  0  0  0  0  0  0  0  0  0  0
    7.1962   -1.7320    0.0000 C   0  0  0  0  0  0  0  0  0  0  0  0
    7.1962    3.0000    0.0000 C   0  0  0  0  0  0  0  0  0  0  0  0
    8.6962    2.1340    0.0000 C   0  0  0  0  0  0  0  0  0  0  0  0
    7.6962    3.8660    0.0000 C   0  0  0  0  0  0  0  0  0  0  0  0
    9.1962    3.0000    0.0000 C   0  0  0  0  0  0  0  0  0  0  0  0
    6.3301   -2.2320    0.0000 C   0  0  0  0  0  0  0  0  0  0  0  0
    8.6962    3.8660    0.0000 C   0  0  0  0  0  0  0  0  0  0  0  0
    5.4641   -2.7320    0.0000 C   0  0  0  0  0  0  0  0  0  0  0  0
    4.5981   -3.2320    0.0000 C   0  0  0  0  0  0  0  0  0  0  0  0
    4.5981   -4.2320    0.0000 C   0  0  0  0  0  0  0  0  0  0  0  0
    3.7320   -2.7320    0.0000 C   0  0  0  0  0  0  0  0  0  0  0  0
    3.7320   -4.7320    0.0000 C   0  0  0  0  0  0  0  0  0  0  0  0
    2.8660   -3.2320    0.0000 C   0  0  0  0  0  0  0  0  0  0  0  0
    2.8660   -4.2320    0.0000 C   0  0  0  0  0  0  0  0  0  0  0  0
    8.6728    0.6603    0.0000 H   0  0  0  0  0  0  0  0  0  0  0  0
    8.2742    1.3506    0.0000 H   0  0  0  0  0  0  0  0  0  0  0  0
    6.1181    1.3506    0.0000 H   0  0  0  0  0  0  0  0  0  0  0  0
    5.7196    0.6603    0.0000 H   0  0  0  0  0  0  0  0  0  0  0  0
    8.2742   -0.8147    0.0000 H   0  0  0  0  0  0  0  0  0  0  0  0
    8.6728   -0.1244    0.0000 H   0  0  0  0  0  0  0  0  0  0  0  0
    5.7196   -0.1244    0.0000 H   0  0  0  0  0  0  0  0  0  0  0  0
    6.1181   -0.8147    0.0000 H   0  0  0  0  0  0  0  0  0  0  0  0
    7.4082   -2.3147    0.0000 H   0  0  0  0  0  0  0  0  0  0  0  0
    7.8067   -1.6244    0.0000 H   0  0  0  0  0  0  0  0  0  0  0  0
    6.0762    2.1340    0.0000 H   0  0  0  0  0  0  0  0  0  0  0  0
    6.5762    3.0000    0.0000 H   0  0  0  0  0  0  0  0  0  0  0  0
    9.0062    1.5970    0.0000 H   0  0  0  0  0  0  0  0  0  0  0  0
    7.3862    4.4030    0.0000 H   0  0  0  0  0  0  0  0  0  0  0  0
    9.8162    3.0000    0.0000 H   0  0  0  0  0  0  0  0  0  0  0  0
    5.1350   -4.5420    0.0000 H   0  0  0  0  0  0  0  0  0  0  0  0
    3.7320   -2.1120    0.0000 H   0  0  0  0  0  0  0  0  0  0  0  0
    3.7320   -5.3520    0.0000 H   0  0  0  0  0  0  0  0  0  0  0  0
    2.3291   -2.9220    0.0000 H   0  0  0  0  0  0  0  0  0  0  0  0
  1 17  1  0  0  0  0
  2 24  1  0  0  0  0
  3  5  1  0  0  0  0
  3 35  1  0  0  0  0
  4  8  1  0  0  0  0
  4  9  1  0  0  0  0
  4 11  1  0  0  0  0
  5  6  1  0  0  0  0
  5  7  1  0  0  0  0
  5 10  1  0  0  0  0
  6  8  1  0  0  0  0
  6 25  1  0  0  0  0
  6 26  1  0  0  0  0
  7  9  1  0  0  0  0
  7 27  1  0  0  0  0
  7 28  1  0  0  0  0
  8 29  1  0  0  0  0
  8 30  1  0  0  0  0
  9 31  1  0  0  0  0
  9 32  1  0  0  0  0
 10 12  2  0  0  0  0
 10 13  1  0  0  0  0
 11 16  1  0  0  0  0
 11 33  1  0  0  0  0
 11 34  1  0  0  0  0
 12 14  1  0  0  0  0
 12 36  1  0  0  0  0
 13 15  2  0  0  0  0
 13 37  1  0  0  0  0
 14 17  2  0  0  0  0
 14 38  1  0  0  0  0
 15 17  1  0  0  0  0
 15 39  1  0  0  0  0
 16 18  3  0  0  0  0
 18 19  1  0  0  0  0
 19 20  2  0  0  0  0
 19 21  1  0  0  0  0
 20 22  1  0  0  0  0
 20 40  1  0  0  0  0
 21 23  2  0  0  0  0
 21 41  1  0  0  0  0
 22 24  2  0  0  0  0
 22 42  1  0  0  0  0
 23 24  1  0  0  0  0
 23 43  1  0  0  0  0
M  END
> <PUBCHEM_COMPOUND_CID>
155566238

> <PUBCHEM_COMPOUND_CANONICALIZED>
1

> <PUBCHEM_CACTVS_COMPLEXITY>
461

> <PUBCHEM_CACTVS_HBOND_ACCEPTOR>
3

> <PUBCHEM_CACTVS_HBOND_DONOR>
1

> <PUBCHEM_CACTVS_ROTATABLE_BOND>
3

> <PUBCHEM_CACTVS_SUBSKEYS>
AAADceB6IQAEAAAAAAAAAAAAAAAAAAAAAAA8YIAAAAAAAAABQAAAHwIACAAADEbBmCwwAIMAAgDAEiBCAAgCAAAgBQAIiAAICogIJiKBkxCEcAAmwAGImAeQwOAOhAAAAAAAAAAIAAAAAAAAAAAAAAAAAA==

> <PUBCHEM_IUPAC_OPENEYE_NAME>
4-(4-chlorophenyl)-1-[3-(4-fluorophenyl)prop-2-ynyl]piperidin-4-ol

> <PUBCHEM_IUPAC_CAS_NAME>
4-(4-chlorophenyl)-1-[3-(4-fluorophenyl)prop-2-ynyl]-4-piperidinol

> <PUBCHEM_IUPAC_NAME_MARKUP>
4-(4-chlorophenyl)-1-[3-(4-fluorophenyl)prop-2-ynyl]piperidin-4-ol

> <PUBCHEM_IUPAC_NAME>
4-(4-chlorophenyl)-1-[3-(4-fluorophenyl)prop-2-ynyl]piperidin-4-ol

> <PUBCHEM_IUPAC_SYSTEMATIC_NAME>
4-(4-chlorophenyl)-1-[3-(4-fluorophenyl)prop-2-ynyl]piperidin-4-ol

> <PUBCHEM_IUPAC_TRADITIONAL_NAME>
4-(4-chlorophenyl)-1-[3-(4-fluorophenyl)prop-2-ynyl]piperidin-4-ol

> <PUBCHEM_IUPAC_INCHI>
InChI=1S/C20H19ClFNO/c21-18-7-5-17(6-8-18)20(24)11-14-23(15-12-20)13-1-2-16-3-9-19(22)10-4-16/h3-10,24H,11-15H2

> <PUBCHEM_IUPAC_INCHIKEY>
NVOLYBMYFVKTGP-UHFFFAOYSA-N

> <PUBCHEM_XLOGP3_AA>
4

> <PUBCHEM_EXACT_MASS>
343.1139201

> <PUBCHEM_MOLECULAR_FORMULA>
C20H19ClFNO

> <PUBCHEM_MOLECULAR_WEIGHT>
343.8

> <PUBCHEM_OPENEYE_CAN_SMILES>
C1CN(CCC1(C2=CC=C(C=C2)Cl)O)CC#CC3=CC=C(C=C3)F

> <PUBCHEM_OPENEYE_ISO_SMILES>
C1CN(CCC1(C2=CC=C(C=C2)Cl)O)CC#CC3=CC=C(C=C3)F

> <PUBCHEM_CACTVS_TPSA>
23.5

> <PUBCHEM_MONOISOTOPIC_WEIGHT>
343.1139201

> <PUBCHEM_TOTAL_CHARGE>
0

> <PUBCHEM_HEAVY_ATOM_COUNT>
24

> <PUBCHEM_ATOM_DEF_STEREO_COUNT>
0

> <PUBCHEM_ATOM_UDEF_STEREO_COUNT>
0

> <PUBCHEM_BOND_DEF_STEREO_COUNT>
0

> <PUBCHEM_BOND_UDEF_STEREO_COUNT>
0

> <PUBCHEM_ISOTOPIC_ATOM_COUNT>
0

> <PUBCHEM_COMPONENT_COUNT>
1

> <PUBCHEM_CACTVS_TAUTO_COUNT>
-1

> <PUBCHEM_COORDINATE_TYPE>
1
5
255

> <PUBCHEM_BONDANNOTATIONS>
10  12  8
10  13  8
12  14  8
13  15  8
14  17  8
15  17  8
19  20  8
19  21  8
20  22  8
21  23  8
22  24  8
23  24  8

$$$$
