145956064
  -OEChem-09292322382D

 71 74  0     1  0  0  0  0  0999 V2000
   11.3514    6.4317    0.0000 Cl  0  0  0  0  0  0  0  0  0  0  0  0
    4.4844    6.6200    0.0000 O   0  0  0  0  0  0  0  0  0  0  0  0
    5.1230   10.2837    0.0000 O   0  0  0  0  0  0  0  0  0  0  0  0
    3.3629    7.2351    0.0000 O   0  0  0  0  0  0  0  0  0  0  0  0
    7.9485    2.6200    0.0000 O   0  0  0  0  0  0  0  0  0  0  0  0
    6.2164    5.6200    0.0000 N   0  0  0  0  0  0  0  0  0  0  0  0
    6.2164    3.6200    0.0000 N   0  0  0  0  0  0  0  0  0  0  0  0
    4.4844    8.6200    0.0000 N   0  0  0  0  0  0  0  0  0  0  0  0
    2.9017    8.9564    0.0000 N   0  0  0  0  0  0  0  0  0  0  0  0
    6.2164    6.6200    0.0000 C   0  0  0  0  0  0  0  0  0  0  0  0
    7.0824    5.1200    0.0000 C   0  0  0  0  0  0  0  0  0  0  0  0
    5.3504    5.1200    0.0000 C   0  0  0  0  0  0  0  0  0  0  0  0
    5.3504    7.1200    0.0000 C   0  0  3  0  0  0  0  0  0  0  0  0
    3.4017    9.8224    0.0000 C   0  0  0  0  0  0  0  0  0  0  0  0
    7.0824    4.1200    0.0000 C   0  0  0  0  0  0  0  0  0  0  0  0
    5.3504    4.1200    0.0000 C   0  0  0  0  0  0  0  0  0  0  0  0
    5.3504    8.1200    0.0000 C   0  0  0  0  0  0  0  0  0  0  0  0
    4.3798    9.6145    0.0000 C   0  0  0  0  0  0  0  0  0  0  0  0
    3.5708    8.2133    0.0000 C   0  0  0  0  0  0  0  0  0  0  0  0
    2.4620   10.1645    0.0000 C   0  0  0  0  0  0  0  0  0  0  0  0
    3.6096   10.8006    0.0000 C   0  0  0  0  0  0  0  0  0  0  0  0
    6.2164    2.6200    0.0000 C   0  0  0  0  0  0  0  0  0  0  0  0
    1.6959    9.5218    0.0000 C   0  0  0  0  0  0  0  0  0  0  0  0
    4.5607   11.1096    0.0000 C   0  0  0  0  0  0  0  0  0  0  0  0
    2.2884   11.1493    0.0000 C   0  0  0  0  0  0  0  0  0  0  0  0
    2.8664   11.4697    0.0000 C   0  0  0  0  0  0  0  0  0  0  0  0
    7.0824    2.1200    0.0000 C   0  0  0  0  0  0  0  0  0  0  0  0
    5.3504    2.1200    0.0000 C   0  0  0  0  0  0  0  0  0  0  0  0
    0.7563    9.8637    0.0000 C   0  0  0  0  0  0  0  0  0  0  0  0
    4.7686   12.0877    0.0000 C   0  0  0  0  0  0  0  0  0  0  0  0
    1.3486   11.4913    0.0000 C   0  0  0  0  0  0  0  0  0  0  0  0
    3.0744   12.4479    0.0000 C   0  0  0  0  0  0  0  0  0  0  0  0
    7.0824    1.1200    0.0000 C   0  0  0  0  0  0  0  0  0  0  0  0
    5.3504    1.1200    0.0000 C   0  0  0  0  0  0  0  0  0  0  0  0
    0.5826   10.8485    0.0000 C   0  0  0  0  0  0  0  0  0  0  0  0
    4.0254   12.7569    0.0000 C   0  0  0  0  0  0  0  0  0  0  0  0
    6.2164    0.6200    0.0000 C   0  0  0  0  0  0  0  0  0  0  0  0
    8.8145    2.1200    0.0000 C   0  0  0  0  0  0  0  0  0  0  0  0
    6.8270    6.5123    0.0000 H   0  0  0  0  0  0  0  0  0  0  0  0
    6.4285    7.2026    0.0000 H   0  0  0  0  0  0  0  0  0  0  0  0
    7.6930    5.0123    0.0000 H   0  0  0  0  0  0  0  0  0  0  0  0
    7.2945    5.7026    0.0000 H   0  0  0  0  0  0  0  0  0  0  0  0
    5.1383    5.7026    0.0000 H   0  0  0  0  0  0  0  0  0  0  0  0
    4.7398    5.0123    0.0000 H   0  0  0  0  0  0  0  0  0  0  0  0
    4.8134    7.4300    0.0000 H   0  0  0  0  0  0  0  0  0  0  0  0
    7.2945    3.5374    0.0000 H   0  0  0  0  0  0  0  0  0  0  0  0
    7.6930    4.2277    0.0000 H   0  0  0  0  0  0  0  0  0  0  0  0
    4.7398    4.2277    0.0000 H   0  0  0  0  0  0  0  0  0  0  0  0
    5.1383    3.5374    0.0000 H   0  0  0  0  0  0  0  0  0  0  0  0
    5.9610    8.0123    0.0000 H   0  0  0  0  0  0  0  0  0  0  0  0
    5.5624    8.7026    0.0000 H   0  0  0  0  0  0  0  0  0  0  0  0
    2.2851    8.8916    0.0000 H   0  0  0  0  0  0  0  0  0  0  0  0
    3.9474    6.9300    0.0000 H   0  0  0  0  0  0  0  0  0  0  0  0
    1.8036    8.9112    0.0000 H   0  0  0  0  0  0  0  0  0  0  0  0
    5.0214   10.6947    0.0000 H   0  0  0  0  0  0  0  0  0  0  0  0
    2.7633   11.5478    0.0000 H   0  0  0  0  0  0  0  0  0  0  0  0
    2.2768   11.2781    0.0000 H   0  0  0  0  0  0  0  0  0  0  0  0
    4.8134    2.4300    0.0000 H   0  0  0  0  0  0  0  0  0  0  0  0
    0.2813    9.4651    0.0000 H   0  0  0  0  0  0  0  0  0  0  0  0
    5.3582   12.2793    0.0000 H   0  0  0  0  0  0  0  0  0  0  0  0
    1.2410   12.1019    0.0000 H   0  0  0  0  0  0  0  0  0  0  0  0
    2.6136   12.8627    0.0000 H   0  0  0  0  0  0  0  0  0  0  0  0
    7.6194    0.8100    0.0000 H   0  0  0  0  0  0  0  0  0  0  0  0
    4.8134    0.8100    0.0000 H   0  0  0  0  0  0  0  0  0  0  0  0
    0.0000   11.0605    0.0000 H   0  0  0  0  0  0  0  0  0  0  0  0
    4.1543   13.3633    0.0000 H   0  0  0  0  0  0  0  0  0  0  0  0
    6.2164    0.0000    0.0000 H   0  0  0  0  0  0  0  0  0  0  0  0
    8.5045    1.5831    0.0000 H   0  0  0  0  0  0  0  0  0  0  0  0
    9.3514    1.8100    0.0000 H   0  0  0  0  0  0  0  0  0  0  0  0
    9.1245    2.6569    0.0000 H   0  0  0  0  0  0  0  0  0  0  0  0
   12.3514    6.4317    0.0000 H   0  0  0  0  0  0  0  0  0  0  0  0
  1 71  1  0  0  0  0
  2 13  1  0  0  0  0
  2 53  1  0  0  0  0
  3 18  2  0  0  0  0
  4 19  2  0  0  0  0
  5 27  1  0  0  0  0
  5 38  1  0  0  0  0
  6 10  1  0  0  0  0
  6 11  1  0  0  0  0
  6 12  1  0  0  0  0
  7 15  1  0  0  0  0
  7 16  1  0  0  0  0
  7 22  1  0  0  0  0
  8 17  1  0  0  0  0
  8 18  1  0  0  0  0
  8 19  1  0  0  0  0
  9 14  1  0  0  0  0
  9 19  1  0  0  0  0
  9 52  1  0  0  0  0
 10 13  1  0  0  0  0
 10 39  1  0  0  0  0
 10 40  1  0  0  0  0
 11 15  1  0  0  0  0
 11 41  1  0  0  0  0
 11 42  1  0  0  0  0
 12 16  1  0  0  0  0
 12 43  1  0  0  0  0
 12 44  1  0  0  0  0
 13 17  1  0  0  0  0
 13 45  1  0  0  0  0
 14 18  1  0  0  0  0
 14 20  1  0  0  0  0
 14 21  1  0  0  0  0
 15 46  1  0  0  0  0
 15 47  1  0  0  0  0
 16 48  1  0  0  0  0
 16 49  1  0  0  0  0
 17 50  1  0  0  0  0
 17 51  1  0  0  0  0
 20 23  2  0  0  0  0
 20 25  1  0  0  0  0
 21 24  2  0  0  0  0
 21 26  1  0  0  0  0
 22 27  1  0  0  0  0
 22 28  2  0  0  0  0
 23 29  1  0  0  0  0
 23 54  1  0  0  0  0
 24 30  1  0  0  0  0
 24 55  1  0  0  0  0
 25 31  2  0  0  0  0
 25 56  1  0  0  0  0
 26 32  2  0  0  0  0
 26 57  1  0  0  0  0
 27 33  2  0  0  0  0
 28 34  1  0  0  0  0
 28 58  1  0  0  0  0
 29 35  2  0  0  0  0
 29 59  1  0  0  0  0
 30 36  2  0  0  0  0
 30 60  1  0  0  0  0
 31 35  1  0  0  0  0
 31 61  1  0  0  0  0
 32 36  1  0  0  0  0
 32 62  1  0  0  0  0
 33 37  1  0  0  0  0
 33 63  1  0  0  0  0
 34 37  2  0  0  0  0
 34 64  1  0  0  0  0
 35 65  1  0  0  0  0
 36 66  1  0  0  0  0
 37 67  1  0  0  0  0
 38 68  1  0  0  0  0
 38 69  1  0  0  0  0
 38 70  1  0  0  0  0
M  END
> <PUBCHEM_COMPOUND_CID>
145956064

> <PUBCHEM_COMPOUND_CANONICALIZED>
1

> <PUBCHEM_CACTVS_COMPLEXITY>
756

> <PUBCHEM_CACTVS_HBOND_ACCEPTOR>
6

> <PUBCHEM_CACTVS_HBOND_DONOR>
3

> <PUBCHEM_CACTVS_ROTATABLE_BOND>
8

> <PUBCHEM_CACTVS_SUBSKEYS>
AAADcfB7uAAEAAAAAAAAAAAAAAAAAWAAAAA8YMEAAAAAAAABUAAAHgAQCAAADJzhmAYzxoPABgCIAiVSUACCCAAhIgAIiAGPbIiOdjLE9buVMChsxzPY6AeYyMCOgAAAAAAAEAAAAAAAAAAgAAAAAAAAAA==

> <PUBCHEM_IUPAC_OPENEYE_NAME>
3-[2-hydroxy-3-[4-(2-methoxyphenyl)piperazin-1-yl]propyl]-5,5-diphenyl-imidazolidine-2,4-dione;hydrochloride

> <PUBCHEM_IUPAC_CAS_NAME>
3-[2-hydroxy-3-[4-(2-methoxyphenyl)-1-piperazinyl]propyl]-5,5-diphenylimidazolidine-2,4-dione;hydrochloride

> <PUBCHEM_IUPAC_NAME_MARKUP>
3-[2-hydroxy-3-[4-(2-methoxyphenyl)piperazin-1-yl]propyl]-5,5-diphenylimidazolidine-2,4-dione;hydrochloride

> <PUBCHEM_IUPAC_NAME>
3-[2-hydroxy-3-[4-(2-methoxyphenyl)piperazin-1-yl]propyl]-5,5-diphenylimidazolidine-2,4-dione;hydrochloride

> <PUBCHEM_IUPAC_SYSTEMATIC_NAME>
3-[3-[4-(2-methoxyphenyl)piperazin-1-yl]-2-oxidanyl-propyl]-5,5-diphenyl-imidazolidine-2,4-dione;hydrochloride

> <PUBCHEM_IUPAC_TRADITIONAL_NAME>
3-[2-hydroxy-3-[4-(2-methoxyphenyl)piperazino]propyl]-5,5-diphenyl-hydantoin;hydrochloride

> <PUBCHEM_IUPAC_INCHI>
InChI=1S/C29H32N4O4.ClH/c1-37-26-15-9-8-14-25(26)32-18-16-31(17-19-32)20-24(34)21-33-27(35)29(30-28(33)36,22-10-4-2-5-11-22)23-12-6-3-7-13-23;/h2-15,24,34H,16-21H2,1H3,(H,30,36);1H

> <PUBCHEM_IUPAC_INCHIKEY>
ALDWMTGDTLFJRU-UHFFFAOYSA-N

> <PUBCHEM_EXACT_MASS>
536.2190332

> <PUBCHEM_MOLECULAR_FORMULA>
C29H33ClN4O4

> <PUBCHEM_MOLECULAR_WEIGHT>
537.0

> <PUBCHEM_OPENEYE_CAN_SMILES>
COC1=CC=CC=C1N2CCN(CC2)CC(CN3C(=O)C(NC3=O)(C4=CC=CC=C4)C5=CC=CC=C5)O.Cl

> <PUBCHEM_OPENEYE_ISO_SMILES>
COC1=CC=CC=C1N2CCN(CC2)CC(CN3C(=O)C(NC3=O)(C4=CC=CC=C4)C5=CC=CC=C5)O.Cl

> <PUBCHEM_CACTVS_TPSA>
85.4

> <PUBCHEM_MONOISOTOPIC_WEIGHT>
536.2190332

> <PUBCHEM_TOTAL_CHARGE>
0

> <PUBCHEM_HEAVY_ATOM_COUNT>
38

> <PUBCHEM_ATOM_DEF_STEREO_COUNT>
0

> <PUBCHEM_ATOM_UDEF_STEREO_COUNT>
1

> <PUBCHEM_BOND_DEF_STEREO_COUNT>
0

> <PUBCHEM_BOND_UDEF_STEREO_COUNT>
0

> <PUBCHEM_ISOTOPIC_ATOM_COUNT>
0

> <PUBCHEM_COMPONENT_COUNT>
2

> <PUBCHEM_CACTVS_TAUTO_COUNT>
-1

> <PUBCHEM_COORDINATE_TYPE>
1
5
255

> <PUBCHEM_BONDANNOTATIONS>
13  2  3
20  23  8
20  25  8
21  24  8
21  26  8
22  27  8
22  28  8
23  29  8
24  30  8
25  31  8
26  32  8
27  33  8
28  34  8
29  35  8
30  36  8
31  35  8
32  36  8
33  37  8
34  37  8

$$$$
