3038494
  -OEChem-09292322102D

 64 66  0     0  0  0  0  0  0999 V2000
    6.9985    0.0000    0.0000 Cl  0  0  0  0  0  0  0  0  0  0  0  0
    1.4030    6.1353    0.0000 O   0  0  0  0  0  0  0  0  0  0  0  0
   10.0632    5.1353    0.0000 O   0  0  0  0  0  0  0  0  0  0  0  0
    4.8671    6.1353    0.0000 N   0  0  0  0  0  0  0  0  0  0  0  0
    3.1350    5.1353    0.0000 N   0  0  0  0  0  0  0  0  0  0  0  0
    9.1972    6.6353    0.0000 N   0  0  0  0  0  0  0  0  0  0  0  0
    4.0010    6.6353    0.0000 C   0  0  0  0  0  0  0  0  0  0  0  0
    4.8671    5.1353    0.0000 C   0  0  0  0  0  0  0  0  0  0  0  0
    3.1350    6.1353    0.0000 C   0  0  0  0  0  0  0  0  0  0  0  0
    4.0010    4.6353    0.0000 C   0  0  0  0  0  0  0  0  0  0  0  0
    5.7331    6.6353    0.0000 C   0  0  0  0  0  0  0  0  0  0  0  0
    6.5991    6.1353    0.0000 C   0  0  0  0  0  0  0  0  0  0  0  0
    2.2690    4.6353    0.0000 C   0  0  0  0  0  0  0  0  0  0  0  0
    7.4651    6.6353    0.0000 C   0  0  0  0  0  0  0  0  0  0  0  0
    8.3312    6.1353    0.0000 C   0  0  0  0  0  0  0  0  0  0  0  0
    1.4030    5.1353    0.0000 C   0  0  0  0  0  0  0  0  0  0  0  0
    2.2690    3.6353    0.0000 C   0  0  0  0  0  0  0  0  0  0  0  0
    0.5369    4.6353    0.0000 C   0  0  0  0  0  0  0  0  0  0  0  0
    1.4030    3.1353    0.0000 C   0  0  0  0  0  0  0  0  0  0  0  0
    0.5369    3.6353    0.0000 C   0  0  0  0  0  0  0  0  0  0  0  0
   10.0632    6.1353    0.0000 C   0  0  0  0  0  0  0  0  0  0  0  0
   10.9292    6.6353    0.0000 C   0  0  0  0  0  0  0  0  0  0  0  0
    0.5369    6.6353    0.0000 C   0  0  0  0  0  0  0  0  0  0  0  0
   11.7953    6.1353    0.0000 C   0  0  0  0  0  0  0  0  0  0  0  0
   12.6613    6.6353    0.0000 C   0  0  0  0  0  0  0  0  0  0  0  0
   10.9292    7.6353    0.0000 C   0  0  0  0  0  0  0  0  0  0  0  0
   12.6613    7.6353    0.0000 C   0  0  0  0  0  0  0  0  0  0  0  0
   11.7953    8.1353    0.0000 C   0  0  0  0  0  0  0  0  0  0  0  0
   13.5552    6.1006    0.0000 C   0  0  0  0  0  0  0  0  0  0  0  0
   13.5552    8.1700    0.0000 C   0  0  0  0  0  0  0  0  0  0  0  0
   14.4613    6.6145    0.0000 C   0  0  0  0  0  0  0  0  0  0  0  0
   14.4613    7.6561    0.0000 C   0  0  0  0  0  0  0  0  0  0  0  0
    4.3996    7.1102    0.0000 H   0  0  0  0  0  0  0  0  0  0  0  0
    3.6025    7.1102    0.0000 H   0  0  0  0  0  0  0  0  0  0  0  0
    5.0791    4.5527    0.0000 H   0  0  0  0  0  0  0  0  0  0  0  0
    5.4776    5.2430    0.0000 H   0  0  0  0  0  0  0  0  0  0  0  0
    2.9230    6.7179    0.0000 H   0  0  0  0  0  0  0  0  0  0  0  0
    2.5244    6.0276    0.0000 H   0  0  0  0  0  0  0  0  0  0  0  0
    3.6025    4.1604    0.0000 H   0  0  0  0  0  0  0  0  0  0  0  0
    4.3996    4.1604    0.0000 H   0  0  0  0  0  0  0  0  0  0  0  0
    6.1316    7.1102    0.0000 H   0  0  0  0  0  0  0  0  0  0  0  0
    5.3346    7.1102    0.0000 H   0  0  0  0  0  0  0  0  0  0  0  0
    6.2006    5.6604    0.0000 H   0  0  0  0  0  0  0  0  0  0  0  0
    6.9976    5.6604    0.0000 H   0  0  0  0  0  0  0  0  0  0  0  0
    7.8637    7.1102    0.0000 H   0  0  0  0  0  0  0  0  0  0  0  0
    7.0666    7.1102    0.0000 H   0  0  0  0  0  0  0  0  0  0  0  0
    7.9326    5.6604    0.0000 H   0  0  0  0  0  0  0  0  0  0  0  0
    8.7297    5.6604    0.0000 H   0  0  0  0  0  0  0  0  0  0  0  0
    2.8059    3.3253    0.0000 H   0  0  0  0  0  0  0  0  0  0  0  0
    0.0000    4.9453    0.0000 H   0  0  0  0  0  0  0  0  0  0  0  0
    9.1972    7.2553    0.0000 H   0  0  0  0  0  0  0  0  0  0  0  0
    1.4030    2.5153    0.0000 H   0  0  0  0  0  0  0  0  0  0  0  0
    0.0000    3.3253    0.0000 H   0  0  0  0  0  0  0  0  0  0  0  0
    0.8469    7.1722    0.0000 H   0  0  0  0  0  0  0  0  0  0  0  0
    0.0000    6.9453    0.0000 H   0  0  0  0  0  0  0  0  0  0  0  0
    0.2269    6.0984    0.0000 H   0  0  0  0  0  0  0  0  0  0  0  0
   11.7953    5.5153    0.0000 H   0  0  0  0  0  0  0  0  0  0  0  0
   10.3923    7.9453    0.0000 H   0  0  0  0  0  0  0  0  0  0  0  0
   11.7953    8.7553    0.0000 H   0  0  0  0  0  0  0  0  0  0  0  0
   13.5481    5.4807    0.0000 H   0  0  0  0  0  0  0  0  0  0  0  0
   13.5481    8.7899    0.0000 H   0  0  0  0  0  0  0  0  0  0  0  0
   14.9970    6.3024    0.0000 H   0  0  0  0  0  0  0  0  0  0  0  0
   14.9970    7.9682    0.0000 H   0  0  0  0  0  0  0  0  0  0  0  0
    7.9985    0.0000    0.0000 H   0  0  0  0  0  0  0  0  0  0  0  0
  1 64  1  0  0  0  0
  2 16  1  0  0  0  0
  2 23  1  0  0  0  0
  3 21  2  0  0  0  0
  4  7  1  0  0  0  0
  4  8  1  0  0  0  0
  4 11  1  0  0  0  0
  5  9  1  0  0  0  0
  5 10  1  0  0  0  0
  5 13  1  0  0  0  0
  6 15  1  0  0  0  0
  6 21  1  0  0  0  0
  6 51  1  0  0  0  0
  7  9  1  0  0  0  0
  7 33  1  0  0  0  0
  7 34  1  0  0  0  0
  8 10  1  0  0  0  0
  8 35  1  0  0  0  0
  8 36  1  0  0  0  0
  9 37  1  0  0  0  0
  9 38  1  0  0  0  0
 10 39  1  0  0  0  0
 10 40  1  0  0  0  0
 11 12  1  0  0  0  0
 11 41  1  0  0  0  0
 11 42  1  0  0  0  0
 12 14  1  0  0  0  0
 12 43  1  0  0  0  0
 12 44  1  0  0  0  0
 13 16  1  0  0  0  0
 13 17  2  0  0  0  0
 14 15  1  0  0  0  0
 14 45  1  0  0  0  0
 14 46  1  0  0  0  0
 15 47  1  0  0  0  0
 15 48  1  0  0  0  0
 16 18  2  0  0  0  0
 17 19  1  0  0  0  0
 17 49  1  0  0  0  0
 18 20  1  0  0  0  0
 18 50  1  0  0  0  0
 19 20  2  0  0  0  0
 19 52  1  0  0  0  0
 20 53  1  0  0  0  0
 21 22  1  0  0  0  0
 22 24  2  0  0  0  0
 22 26  1  0  0  0  0
 23 54  1  0  0  0  0
 23 55  1  0  0  0  0
 23 56  1  0  0  0  0
 24 25  1  0  0  0  0
 24 57  1  0  0  0  0
 25 27  1  0  0  0  0
 25 29  2  0  0  0  0
 26 28  2  0  0  0  0
 26 58  1  0  0  0  0
 27 28  1  0  0  0  0
 27 30  2  0  0  0  0
 28 59  1  0  0  0  0
 29 31  1  0  0  0  0
 29 60  1  0  0  0  0
 30 32  1  0  0  0  0
 30 61  1  0  0  0  0
 31 32  2  0  0  0  0
 31 62  1  0  0  0  0
 32 63  1  0  0  0  0
M  END
> <PUBCHEM_COMPOUND_CID>
3038494

> <PUBCHEM_COMPOUND_CANONICALIZED>
1

> <PUBCHEM_CACTVS_COMPLEXITY>
549

> <PUBCHEM_CACTVS_HBOND_ACCEPTOR>
4

> <PUBCHEM_CACTVS_HBOND_DONOR>
2

> <PUBCHEM_CACTVS_ROTATABLE_BOND>
8

> <PUBCHEM_CACTVS_SUBSKEYS>
AAADcfB7MAAEAAAAAAAAAAAAAAAAAAAAAAA8YMEAAAAAAADBVAAAHgAQAAAADAzBmAYyxsPABACIAiVSUACCCAAlIgAIiIEPbMgOZjLEtZuVMShk1hHY6YeYyMCOwAACAAAQEACAAAQAACAgAAAAAAAAAA==

> <PUBCHEM_IUPAC_OPENEYE_NAME>
N-[4-[4-(2-methoxyphenyl)piperazin-1-yl]butyl]naphthalene-2-carboxamide;hydrochloride

> <PUBCHEM_IUPAC_CAS_NAME>
N-[4-[4-(2-methoxyphenyl)-1-piperazinyl]butyl]-2-naphthalenecarboxamide;hydrochloride

> <PUBCHEM_IUPAC_NAME_MARKUP>
<I>N</I>-[4-[4-(2-methoxyphenyl)piperazin-1-yl]butyl]naphthalene-2-carboxamide;hydrochloride

> <PUBCHEM_IUPAC_NAME>
N-[4-[4-(2-methoxyphenyl)piperazin-1-yl]butyl]naphthalene-2-carboxamide;hydrochloride

> <PUBCHEM_IUPAC_SYSTEMATIC_NAME>
N-[4-[4-(2-methoxyphenyl)piperazin-1-yl]butyl]naphthalene-2-carboxamide;hydrochloride

> <PUBCHEM_IUPAC_TRADITIONAL_NAME>
N-[4-[4-(2-methoxyphenyl)piperazino]butyl]-2-naphthamide;hydrochloride

> <PUBCHEM_IUPAC_INCHI>
InChI=1S/C26H31N3O2.ClH/c1-31-25-11-5-4-10-24(25)29-18-16-28(17-19-29)15-7-6-14-27-26(30)23-13-12-21-8-2-3-9-22(21)20-23;/h2-5,8-13,20H,6-7,14-19H2,1H3,(H,27,30);1H

> <PUBCHEM_IUPAC_INCHIKEY>
KFWJGUZIZAPFMX-UHFFFAOYSA-N

> <PUBCHEM_EXACT_MASS>
453.2183050

> <PUBCHEM_MOLECULAR_FORMULA>
C26H32ClN3O2

> <PUBCHEM_MOLECULAR_WEIGHT>
454.0

> <PUBCHEM_OPENEYE_CAN_SMILES>
COC1=CC=CC=C1N2CCN(CC2)CCCCNC(=O)C3=CC4=CC=CC=C4C=C3.Cl

> <PUBCHEM_OPENEYE_ISO_SMILES>
COC1=CC=CC=C1N2CCN(CC2)CCCCNC(=O)C3=CC4=CC=CC=C4C=C3.Cl

> <PUBCHEM_CACTVS_TPSA>
44.8

> <PUBCHEM_MONOISOTOPIC_WEIGHT>
453.2183050

> <PUBCHEM_TOTAL_CHARGE>
0

> <PUBCHEM_HEAVY_ATOM_COUNT>
32

> <PUBCHEM_ATOM_DEF_STEREO_COUNT>
0

> <PUBCHEM_ATOM_UDEF_STEREO_COUNT>
0

> <PUBCHEM_BOND_DEF_STEREO_COUNT>
0

> <PUBCHEM_BOND_UDEF_STEREO_COUNT>
0

> <PUBCHEM_ISOTOPIC_ATOM_COUNT>
0

> <PUBCHEM_COMPONENT_COUNT>
2

> <PUBCHEM_CACTVS_TAUTO_COUNT>
2

> <PUBCHEM_COORDINATE_TYPE>
1
5
255

> <PUBCHEM_BONDANNOTATIONS>
13  16  8
13  17  8
16  18  8
17  19  8
18  20  8
19  20  8
22  24  8
22  26  8
24  25  8
25  27  8
25  29  8
26  28  8
27  28  8
27  30  8
29  31  8
30  32  8
31  32  8

$$$$
