10398175
  -OEChem-09292322502D

 31 33  0     0  0  0  0  0  0999 V2000
    5.5321    1.4573    0.0000 N   0  0  0  0  0  0  0  0  0  0  0  0
    4.6660   -0.0427    0.0000 C   0  0  0  0  0  0  0  0  0  0  0  0
    5.5321   -0.5427    0.0000 C   0  0  0  0  0  0  0  0  0  0  0  0
    3.8000   -0.5427    0.0000 C   0  0  0  0  0  0  0  0  0  0  0  0
    4.6660   -2.0427    0.0000 C   0  0  0  0  0  0  0  0  0  0  0  0
    5.5321   -1.5427    0.0000 C   0  0  0  0  0  0  0  0  0  0  0  0
    3.8000   -1.5427    0.0000 C   0  0  0  0  0  0  0  0  0  0  0  0
    4.6660    0.9573    0.0000 C   0  0  0  0  0  0  0  0  0  0  0  0
    6.4260   -0.0080    0.0000 C   0  0  0  0  0  0  0  0  0  0  0  0
    2.9061   -0.0080    0.0000 C   0  0  0  0  0  0  0  0  0  0  0  0
    6.4260   -2.0773    0.0000 C   0  0  0  0  0  0  0  0  0  0  0  0
    2.9061   -2.0773    0.0000 C   0  0  0  0  0  0  0  0  0  0  0  0
    7.3321   -0.5219    0.0000 C   0  0  0  0  0  0  0  0  0  0  0  0
    2.0000   -0.5219    0.0000 C   0  0  0  0  0  0  0  0  0  0  0  0
    7.3321   -1.5635    0.0000 C   0  0  0  0  0  0  0  0  0  0  0  0
    2.0000   -1.5635    0.0000 C   0  0  0  0  0  0  0  0  0  0  0  0
    5.2030    0.2673    0.0000 H   0  0  0  0  0  0  0  0  0  0  0  0
    4.2675   -2.5176    0.0000 H   0  0  0  0  0  0  0  0  0  0  0  0
    5.0646   -2.5176    0.0000 H   0  0  0  0  0  0  0  0  0  0  0  0
    4.4540    1.5399    0.0000 H   0  0  0  0  0  0  0  0  0  0  0  0
    4.0555    0.8497    0.0000 H   0  0  0  0  0  0  0  0  0  0  0  0
    6.4188    0.6120    0.0000 H   0  0  0  0  0  0  0  0  0  0  0  0
    2.9132    0.6120    0.0000 H   0  0  0  0  0  0  0  0  0  0  0  0
    6.4188   -2.6973    0.0000 H   0  0  0  0  0  0  0  0  0  0  0  0
    2.9132   -2.6973    0.0000 H   0  0  0  0  0  0  0  0  0  0  0  0
    7.8678   -0.2098    0.0000 H   0  0  0  0  0  0  0  0  0  0  0  0
    1.4643   -0.2098    0.0000 H   0  0  0  0  0  0  0  0  0  0  0  0
    7.8678   -1.8756    0.0000 H   0  0  0  0  0  0  0  0  0  0  0  0
    1.4643   -1.8756    0.0000 H   0  0  0  0  0  0  0  0  0  0  0  0
    5.5321    2.0773    0.0000 H   0  0  0  0  0  0  0  0  0  0  0  0
    6.0690    1.1473    0.0000 H   0  0  0  0  0  0  0  0  0  0  0  0
  1  8  1  0  0  0  0
  1 30  1  0  0  0  0
  1 31  1  0  0  0  0
  2  3  1  0  0  0  0
  2  4  1  0  0  0  0
  2  8  1  0  0  0  0
  2 17  1  0  0  0  0
  3  6  1  0  0  0  0
  3  9  2  0  0  0  0
  4  7  1  0  0  0  0
  4 10  2  0  0  0  0
  5  6  1  0  0  0  0
  5  7  1  0  0  0  0
  5 18  1  0  0  0  0
  5 19  1  0  0  0  0
  6 11  2  0  0  0  0
  7 12  2  0  0  0  0
  8 20  1  0  0  0  0
  8 21  1  0  0  0  0
  9 13  1  0  0  0  0
  9 22  1  0  0  0  0
 10 14  1  0  0  0  0
 10 23  1  0  0  0  0
 11 15  1  0  0  0  0
 11 24  1  0  0  0  0
 12 16  1  0  0  0  0
 12 25  1  0  0  0  0
 13 15  2  0  0  0  0
 13 26  1  0  0  0  0
 14 16  2  0  0  0  0
 14 27  1  0  0  0  0
 15 28  1  0  0  0  0
 16 29  1  0  0  0  0
M  END
> <PUBCHEM_COMPOUND_CID>
10398175

> <PUBCHEM_COMPOUND_CANONICALIZED>
1

> <PUBCHEM_CACTVS_COMPLEXITY>
216

> <PUBCHEM_CACTVS_HBOND_ACCEPTOR>
1

> <PUBCHEM_CACTVS_HBOND_DONOR>
1

> <PUBCHEM_CACTVS_ROTATABLE_BOND>
1

> <PUBCHEM_CACTVS_SUBSKEYS>
AAADccByAAAAAAAAAAAAAAAAAAAAAAAAAAAwYMAAAAAAAADBQAAAHAAQAAAADQDBGAQwAIBAAACAAiBCAAACAAAgAAAIiIAAAIgIICKAkRGAIAAgkAAIiAcQgMAOgAAAAAAQAACAAAQAACAAAAAAAAAAAA==

> <PUBCHEM_IUPAC_OPENEYE_NAME>
9,10-dihydroanthracen-9-ylmethanamine

> <PUBCHEM_IUPAC_CAS_NAME>
9,10-dihydroanthracen-9-ylmethanamine

> <PUBCHEM_IUPAC_NAME_MARKUP>
9,10-dihydroanthracen-9-ylmethanamine

> <PUBCHEM_IUPAC_NAME>
9,10-dihydroanthracen-9-ylmethanamine

> <PUBCHEM_IUPAC_SYSTEMATIC_NAME>
9,10-dihydroanthracen-9-ylmethanamine

> <PUBCHEM_IUPAC_TRADITIONAL_NAME>
9,10-dihydroanthracen-9-ylmethylamine

> <PUBCHEM_IUPAC_INCHI>
InChI=1S/C15H15N/c16-10-15-13-7-3-1-5-11(13)9-12-6-2-4-8-14(12)15/h1-8,15H,9-10,16H2

> <PUBCHEM_IUPAC_INCHIKEY>
GEICAQNIOJFRQN-UHFFFAOYSA-N

> <PUBCHEM_XLOGP3_AA>
2.7

> <PUBCHEM_EXACT_MASS>
209.120449483

> <PUBCHEM_MOLECULAR_FORMULA>
C15H15N

> <PUBCHEM_MOLECULAR_WEIGHT>
209.29

> <PUBCHEM_OPENEYE_CAN_SMILES>
C1C2=CC=CC=C2C(C3=CC=CC=C31)CN

> <PUBCHEM_OPENEYE_ISO_SMILES>
C1C2=CC=CC=C2C(C3=CC=CC=C31)CN

> <PUBCHEM_CACTVS_TPSA>
26

> <PUBCHEM_MONOISOTOPIC_WEIGHT>
209.120449483

> <PUBCHEM_TOTAL_CHARGE>
0

> <PUBCHEM_HEAVY_ATOM_COUNT>
16

> <PUBCHEM_ATOM_DEF_STEREO_COUNT>
0

> <PUBCHEM_ATOM_UDEF_STEREO_COUNT>
0

> <PUBCHEM_BOND_DEF_STEREO_COUNT>
0

> <PUBCHEM_BOND_UDEF_STEREO_COUNT>
0

> <PUBCHEM_ISOTOPIC_ATOM_COUNT>
0

> <PUBCHEM_COMPONENT_COUNT>
1

> <PUBCHEM_CACTVS_TAUTO_COUNT>
-1

> <PUBCHEM_COORDINATE_TYPE>
1
5
255

> <PUBCHEM_BONDANNOTATIONS>
10  14  8
11  15  8
12  16  8
13  15  8
14  16  8
3  6  8
3  9  8
4  10  8
4  7  8
6  11  8
7  12  8
9  13  8

$$$$
