22403055
  -OEChem-09292322202D

 50 51  0     0  0  0  0  0  0999 V2000
    6.3301   -3.2420    0.0000 S   0  0  0  0  0  0  0  0  0  0  0  0
    2.8660   -1.2420    0.0000 O   0  0  0  0  0  0  0  0  0  0  0  0
    5.8301   -4.1080    0.0000 O   0  0  0  0  0  0  0  0  0  0  0  0
    6.8301   -2.3760    0.0000 O   0  0  0  0  0  0  0  0  0  0  0  0
    3.9170    3.0194    0.0000 N   0  0  0  0  0  0  0  0  0  0  0  0
    3.7891    0.3458    0.0000 N   0  0  0  0  0  0  0  0  0  0  0  0
    3.5103    2.1059    0.0000 C   0  0  0  0  0  0  0  0  0  0  0  0
    4.0981    1.2969    0.0000 C   0  0  0  0  0  0  0  0  0  0  0  0
    4.5981   -0.2420    0.0000 C   0  0  0  0  0  0  0  0  0  0  0  0
    4.5981   -1.2420    0.0000 C   0  0  0  0  0  0  0  0  0  0  0  0
    3.3292    3.8284    0.0000 C   0  0  0  0  0  0  0  0  0  0  0  0
    4.9116    3.1239    0.0000 C   0  0  0  0  0  0  0  0  0  0  0  0
    5.0981    1.2969    0.0000 C   0  0  0  0  0  0  0  0  0  0  0  0
    5.4641   -2.7420    0.0000 C   0  0  0  0  0  0  0  0  0  0  0  0
    5.4071    0.3458    0.0000 C   0  0  0  0  0  0  0  0  0  0  0  0
    5.4641   -1.7420    0.0000 C   0  0  0  0  0  0  0  0  0  0  0  0
    3.7320   -1.7420    0.0000 C   0  0  0  0  0  0  0  0  0  0  0  0
    7.1962   -3.7420    0.0000 C   0  0  0  0  0  0  0  0  0  0  0  0
    4.5981   -3.2420    0.0000 C   0  0  0  0  0  0  0  0  0  0  0  0
    3.7320   -2.7420    0.0000 C   0  0  0  0  0  0  0  0  0  0  0  0
    3.7360    4.7420    0.0000 C   0  0  0  0  0  0  0  0  0  0  0  0
    5.3183    4.0375    0.0000 C   0  0  0  0  0  0  0  0  0  0  0  0
    7.1962   -4.7420    0.0000 C   0  0  0  0  0  0  0  0  0  0  0  0
    2.0000   -1.7420    0.0000 C   0  0  0  0  0  0  0  0  0  0  0  0
    2.9963    2.4526    0.0000 H   0  0  0  0  0  0  0  0  0  0  0  0
    3.0796    1.6599    0.0000 H   0  0  0  0  0  0  0  0  0  0  0  0
    3.1994    0.1542    0.0000 H   0  0  0  0  0  0  0  0  0  0  0  0
    2.8152    4.1751    0.0000 H   0  0  0  0  0  0  0  0  0  0  0  0
    2.8986    3.3824    0.0000 H   0  0  0  0  0  0  0  0  0  0  0  0
    4.8683    2.5055    0.0000 H   0  0  0  0  0  0  0  0  0  0  0  0
    5.5131    2.9740    0.0000 H   0  0  0  0  0  0  0  0  0  0  0  0
    5.4625    1.7984    0.0000 H   0  0  0  0  0  0  0  0  0  0  0  0
    5.9967    0.1542    0.0000 H   0  0  0  0  0  0  0  0  0  0  0  0
    6.0010   -1.4320    0.0000 H   0  0  0  0  0  0  0  0  0  0  0  0
    7.8067   -3.8496    0.0000 H   0  0  0  0  0  0  0  0  0  0  0  0
    7.4082   -3.1594    0.0000 H   0  0  0  0  0  0  0  0  0  0  0  0
    4.5981   -3.8620    0.0000 H   0  0  0  0  0  0  0  0  0  0  0  0
    3.1951   -3.0520    0.0000 H   0  0  0  0  0  0  0  0  0  0  0  0
    4.3024    4.4898    0.0000 H   0  0  0  0  0  0  0  0  0  0  0  0
    3.9882    5.3084    0.0000 H   0  0  0  0  0  0  0  0  0  0  0  0
    3.1696    4.9942    0.0000 H   0  0  0  0  0  0  0  0  0  0  0  0
    5.8847    3.7853    0.0000 H   0  0  0  0  0  0  0  0  0  0  0  0
    5.5705    4.6039    0.0000 H   0  0  0  0  0  0  0  0  0  0  0  0
    4.7519    4.2897    0.0000 H   0  0  0  0  0  0  0  0  0  0  0  0
    6.5762   -4.7420    0.0000 H   0  0  0  0  0  0  0  0  0  0  0  0
    7.1962   -5.3620    0.0000 H   0  0  0  0  0  0  0  0  0  0  0  0
    7.8162   -4.7420    0.0000 H   0  0  0  0  0  0  0  0  0  0  0  0
    1.6900   -1.2050    0.0000 H   0  0  0  0  0  0  0  0  0  0  0  0
    1.4631   -2.0520    0.0000 H   0  0  0  0  0  0  0  0  0  0  0  0
    2.3100   -2.2789    0.0000 H   0  0  0  0  0  0  0  0  0  0  0  0
  1  3  2  0  0  0  0
  1  4  2  0  0  0  0
  1 14  1  0  0  0  0
  1 18  1  0  0  0  0
  2 17  1  0  0  0  0
  2 24  1  0  0  0  0
  5  7  1  0  0  0  0
  5 11  1  0  0  0  0
  5 12  1  0  0  0  0
  6  8  1  0  0  0  0
  6  9  1  0  0  0  0
  6 27  1  0  0  0  0
  7  8  1  0  0  0  0
  7 25  1  0  0  0  0
  7 26  1  0  0  0  0
  8 13  2  0  0  0  0
  9 10  1  0  0  0  0
  9 15  2  0  0  0  0
 10 16  1  0  0  0  0
 10 17  2  0  0  0  0
 11 21  1  0  0  0  0
 11 28  1  0  0  0  0
 11 29  1  0  0  0  0
 12 22  1  0  0  0  0
 12 30  1  0  0  0  0
 12 31  1  0  0  0  0
 13 15  1  0  0  0  0
 13 32  1  0  0  0  0
 14 16  2  0  0  0  0
 14 19  1  0  0  0  0
 15 33  1  0  0  0  0
 16 34  1  0  0  0  0
 17 20  1  0  0  0  0
 18 23  1  0  0  0  0
 18 35  1  0  0  0  0
 18 36  1  0  0  0  0
 19 20  2  0  0  0  0
 19 37  1  0  0  0  0
 20 38  1  0  0  0  0
 21 39  1  0  0  0  0
 21 40  1  0  0  0  0
 21 41  1  0  0  0  0
 22 42  1  0  0  0  0
 22 43  1  0  0  0  0
 22 44  1  0  0  0  0
 23 45  1  0  0  0  0
 23 46  1  0  0  0  0
 23 47  1  0  0  0  0
 24 48  1  0  0  0  0
 24 49  1  0  0  0  0
 24 50  1  0  0  0  0
M  END
> <PUBCHEM_COMPOUND_CID>
22403055

> <PUBCHEM_COMPOUND_CANONICALIZED>
1

> <PUBCHEM_CACTVS_COMPLEXITY>
473

> <PUBCHEM_CACTVS_HBOND_ACCEPTOR>
4

> <PUBCHEM_CACTVS_HBOND_DONOR>
1

> <PUBCHEM_CACTVS_ROTATABLE_BOND>
8

> <PUBCHEM_CACTVS_SUBSKEYS>
AAADceB7MABAAAAAAAAAAAAAAAAAAWAAAAAwAAAAAAAAAAABwAAAHgQQAAAADAzF3gayh5PJlAqgAyRiRHDCiCAhKjAImTg+bJgMZuLksZuUMChm0BHo6AeQwOAOAIAAgAAIAAABAAEAABAAAAAAAAAAAA==

> <PUBCHEM_IUPAC_OPENEYE_NAME>
N-ethyl-N-[[5-(5-ethylsulfonyl-2-methoxy-phenyl)-1H-pyrrol-2-yl]methyl]ethanamine

> <PUBCHEM_IUPAC_CAS_NAME>
N-ethyl-N-[[5-(5-ethylsulfonyl-2-methoxyphenyl)-1H-pyrrol-2-yl]methyl]ethanamine

> <PUBCHEM_IUPAC_NAME_MARKUP>
<I>N</I>-ethyl-<I>N</I>-[[5-(5-ethylsulfonyl-2-methoxyphenyl)-1<I>H</I>-pyrrol-2-yl]methyl]ethanamine

> <PUBCHEM_IUPAC_NAME>
N-ethyl-N-[[5-(5-ethylsulfonyl-2-methoxyphenyl)-1H-pyrrol-2-yl]methyl]ethanamine

> <PUBCHEM_IUPAC_SYSTEMATIC_NAME>
N-ethyl-N-[[5-(5-ethylsulfonyl-2-methoxy-phenyl)-1H-pyrrol-2-yl]methyl]ethanamine

> <PUBCHEM_IUPAC_TRADITIONAL_NAME>
[5-(5-esyl-2-methoxy-phenyl)-1H-pyrrol-2-yl]methyl-diethyl-amine

> <PUBCHEM_IUPAC_INCHI>
InChI=1S/C18H26N2O3S/c1-5-20(6-2)13-14-8-10-17(19-14)16-12-15(24(21,22)7-3)9-11-18(16)23-4/h8-12,19H,5-7,13H2,1-4H3

> <PUBCHEM_IUPAC_INCHIKEY>
VMATXNORBZBLAE-UHFFFAOYSA-N

> <PUBCHEM_XLOGP3_AA>
2.6

> <PUBCHEM_EXACT_MASS>
350.16641387

> <PUBCHEM_MOLECULAR_FORMULA>
C18H26N2O3S

> <PUBCHEM_MOLECULAR_WEIGHT>
350.5

> <PUBCHEM_OPENEYE_CAN_SMILES>
CCN(CC)CC1=CC=C(N1)C2=C(C=CC(=C2)S(=O)(=O)CC)OC

> <PUBCHEM_OPENEYE_ISO_SMILES>
CCN(CC)CC1=CC=C(N1)C2=C(C=CC(=C2)S(=O)(=O)CC)OC

> <PUBCHEM_CACTVS_TPSA>
70.8

> <PUBCHEM_MONOISOTOPIC_WEIGHT>
350.16641387

> <PUBCHEM_TOTAL_CHARGE>
0

> <PUBCHEM_HEAVY_ATOM_COUNT>
24

> <PUBCHEM_ATOM_DEF_STEREO_COUNT>
0

> <PUBCHEM_ATOM_UDEF_STEREO_COUNT>
0

> <PUBCHEM_BOND_DEF_STEREO_COUNT>
0

> <PUBCHEM_BOND_UDEF_STEREO_COUNT>
0

> <PUBCHEM_ISOTOPIC_ATOM_COUNT>
0

> <PUBCHEM_COMPONENT_COUNT>
1

> <PUBCHEM_CACTVS_TAUTO_COUNT>
-1

> <PUBCHEM_COORDINATE_TYPE>
1
5
255

> <PUBCHEM_BONDANNOTATIONS>
10  16  8
10  17  8
13  15  8
14  16  8
14  19  8
17  20  8
19  20  8
6  8  8
6  9  8
8  13  8
9  15  8

$$$$
