164622481
  -OEChem-09292322012D

 60 63  0     1  0  0  0  0  0999 V2000
    4.5961    0.9320    0.0000 O   0  0  0  0  0  0  0  0  0  0  0  0
   12.5320   -1.0374    0.0000 O   0  0  0  0  0  0  0  0  0  0  0  0
   17.7942   -1.0132    0.0000 O   0  0  0  0  0  0  0  0  0  0  0  0
    7.3359   -1.0574    0.0000 N   0  0  0  0  0  0  0  0  0  0  0  0
   16.0621   -1.0132    0.0000 N   0  0  0  0  0  0  0  0  0  0  0  0
    5.6038   -1.0641    0.0000 C   0  0  3  0  0  0  0  0  0  0  0  0
    4.6038   -1.0679    0.0000 C   0  0  3  0  0  0  0  0  0  0  0  0
    5.1072   -1.9320    0.0000 C   0  0  0  0  0  0  0  0  0  0  0  0
    6.4679   -0.5608    0.0000 C   0  0  0  0  0  0  0  0  0  0  0  0
    3.7359   -0.5713    0.0000 C   0  0  0  0  0  0  0  0  0  0  0  0
    3.7320    0.4287    0.0000 C   0  0  0  0  0  0  0  0  0  0  0  0
    2.8718   -1.0746    0.0000 C   0  0  0  0  0  0  0  0  0  0  0  0
    8.2000   -0.5541    0.0000 C   0  0  0  0  0  0  0  0  0  0  0  0
    2.8641    0.9254    0.0000 C   0  0  0  0  0  0  0  0  0  0  0  0
    2.0038   -0.5780    0.0000 C   0  0  0  0  0  0  0  0  0  0  0  0
    9.0679   -1.0507    0.0000 C   0  0  0  0  0  0  0  0  0  0  0  0
    2.0000    0.4220    0.0000 C   0  0  0  0  0  0  0  0  0  0  0  0
    9.9320   -0.5474    0.0000 C   0  0  0  0  0  0  0  0  0  0  0  0
   10.7999   -1.0441    0.0000 C   0  0  0  0  0  0  0  0  0  0  0  0
    4.5923    1.9320    0.0000 C   0  0  0  0  0  0  0  0  0  0  0  0
   11.6640   -0.5407    0.0000 C   0  0  0  0  0  0  0  0  0  0  0  0
   13.3961   -0.5340    0.0000 C   0  0  0  0  0  0  0  0  0  0  0  0
   14.3021   -1.0479    0.0000 C   0  0  0  0  0  0  0  0  0  0  0  0
   15.1961   -0.5132    0.0000 C   0  0  0  0  0  0  0  0  0  0  0  0
   13.3961    0.5076    0.0000 C   0  0  0  0  0  0  0  0  0  0  0  0
   15.1961    0.4868    0.0000 C   0  0  0  0  0  0  0  0  0  0  0  0
   14.3021    1.0214    0.0000 C   0  0  0  0  0  0  0  0  0  0  0  0
   16.0621    0.9868    0.0000 C   0  0  0  0  0  0  0  0  0  0  0  0
   16.9281   -0.5132    0.0000 C   0  0  0  0  0  0  0  0  0  0  0  0
   16.9281    0.4868    0.0000 C   0  0  0  0  0  0  0  0  0  0  0  0
    5.4411   -0.4658    0.0000 H   0  0  0  0  0  0  0  0  0  0  0  0
    4.1671   -1.5080    0.0000 H   0  0  0  0  0  0  0  0  0  0  0  0
    4.6338   -2.3324    0.0000 H   0  0  0  0  0  0  0  0  0  0  0  0
    5.5836   -2.3287    0.0000 H   0  0  0  0  0  0  0  0  0  0  0  0
    6.8646   -0.0843    0.0000 H   0  0  0  0  0  0  0  0  0  0  0  0
    6.0676   -0.0873    0.0000 H   0  0  0  0  0  0  0  0  0  0  0  0
    7.3383   -1.6774    0.0000 H   0  0  0  0  0  0  0  0  0  0  0  0
    2.8742   -1.6946    0.0000 H   0  0  0  0  0  0  0  0  0  0  0  0
    8.5966   -0.0776    0.0000 H   0  0  0  0  0  0  0  0  0  0  0  0
    7.7996   -0.0807    0.0000 H   0  0  0  0  0  0  0  0  0  0  0  0
    2.8617    1.5454    0.0000 H   0  0  0  0  0  0  0  0  0  0  0  0
    1.4681   -0.8900    0.0000 H   0  0  0  0  0  0  0  0  0  0  0  0
    8.6712   -1.5272    0.0000 H   0  0  0  0  0  0  0  0  0  0  0  0
    9.4683   -1.5241    0.0000 H   0  0  0  0  0  0  0  0  0  0  0  0
    1.4619    0.7300    0.0000 H   0  0  0  0  0  0  0  0  0  0  0  0
   10.3287   -0.0709    0.0000 H   0  0  0  0  0  0  0  0  0  0  0  0
    9.5316   -0.0740    0.0000 H   0  0  0  0  0  0  0  0  0  0  0  0
   10.4032   -1.5205    0.0000 H   0  0  0  0  0  0  0  0  0  0  0  0
   11.2003   -1.5175    0.0000 H   0  0  0  0  0  0  0  0  0  0  0  0
    5.2123    1.9344    0.0000 H   0  0  0  0  0  0  0  0  0  0  0  0
    4.5899    2.5520    0.0000 H   0  0  0  0  0  0  0  0  0  0  0  0
    3.9723    1.9296    0.0000 H   0  0  0  0  0  0  0  0  0  0  0  0
   12.0607   -0.0642    0.0000 H   0  0  0  0  0  0  0  0  0  0  0  0
   11.2637   -0.0673    0.0000 H   0  0  0  0  0  0  0  0  0  0  0  0
   14.3093   -1.6678    0.0000 H   0  0  0  0  0  0  0  0  0  0  0  0
   12.8603    0.8196    0.0000 H   0  0  0  0  0  0  0  0  0  0  0  0
   14.3093    1.6414    0.0000 H   0  0  0  0  0  0  0  0  0  0  0  0
   16.0621   -1.6332    0.0000 H   0  0  0  0  0  0  0  0  0  0  0  0
   16.0621    1.6068    0.0000 H   0  0  0  0  0  0  0  0  0  0  0  0
   17.4651    0.7968    0.0000 H   0  0  0  0  0  0  0  0  0  0  0  0
  1 11  1  0  0  0  0
  1 20  1  0  0  0  0
  2 21  1  0  0  0  0
  2 22  1  0  0  0  0
  3 29  2  0  0  0  0
  4  9  1  0  0  0  0
  4 13  1  0  0  0  0
  4 37  1  0  0  0  0
  5 24  1  0  0  0  0
  5 29  1  0  0  0  0
  5 58  1  0  0  0  0
  6  7  1  0  0  0  0
  6  8  1  0  0  0  0
  6  9  1  0  0  0  0
  6 31  1  0  0  0  0
  7  8  1  0  0  0  0
  7 10  1  0  0  0  0
  7 32  1  0  0  0  0
  8 33  1  0  0  0  0
  8 34  1  0  0  0  0
  9 35  1  0  0  0  0
  9 36  1  0  0  0  0
 10 11  1  0  0  0  0
 10 12  2  0  0  0  0
 11 14  2  0  0  0  0
 12 15  1  0  0  0  0
 12 38  1  0  0  0  0
 13 16  1  0  0  0  0
 13 39  1  0  0  0  0
 13 40  1  0  0  0  0
 14 17  1  0  0  0  0
 14 41  1  0  0  0  0
 15 17  2  0  0  0  0
 15 42  1  0  0  0  0
 16 18  1  0  0  0  0
 16 43  1  0  0  0  0
 16 44  1  0  0  0  0
 17 45  1  0  0  0  0
 18 19  1  0  0  0  0
 18 46  1  0  0  0  0
 18 47  1  0  0  0  0
 19 21  1  0  0  0  0
 19 48  1  0  0  0  0
 19 49  1  0  0  0  0
 20 50  1  0  0  0  0
 20 51  1  0  0  0  0
 20 52  1  0  0  0  0
 21 53  1  0  0  0  0
 21 54  1  0  0  0  0
 22 23  2  0  0  0  0
 22 25  1  0  0  0  0
 23 24  1  0  0  0  0
 23 55  1  0  0  0  0
 24 26  2  0  0  0  0
 25 27  2  0  0  0  0
 25 56  1  0  0  0  0
 26 27  1  0  0  0  0
 26 28  1  0  0  0  0
 27 57  1  0  0  0  0
 28 30  2  0  0  0  0
 28 59  1  0  0  0  0
 29 30  1  0  0  0  0
 30 60  1  0  0  0  0
M  END
> <PUBCHEM_COMPOUND_CID>
164622481

> <PUBCHEM_COMPOUND_CANONICALIZED>
1

> <PUBCHEM_CACTVS_COMPLEXITY>
581

> <PUBCHEM_CACTVS_HBOND_ACCEPTOR>
4

> <PUBCHEM_CACTVS_HBOND_DONOR>
2

> <PUBCHEM_CACTVS_ROTATABLE_BOND>
11

> <PUBCHEM_CACTVS_SUBSKEYS>
AAADceB7MAAAAAAAAAAAAAAAGAAAAAAAAAAwYIAAAAAAAACBQAAAHgAQAAAADQzhmAYyxoLABACIAiVSUACCCAAhIgAIiIAObMgMJiLEsZuGOCjm1BnI6YeQ0OMOoAAAAgAKAABAAAAEABQAAAAAAAAAAA==

> <PUBCHEM_IUPAC_OPENEYE_NAME>
7-[5-[[2-(2-methoxyphenyl)cyclopropyl]methylamino]pentoxy]-1H-quinolin-2-one

> <PUBCHEM_IUPAC_CAS_NAME>
7-[5-[[2-(2-methoxyphenyl)cyclopropyl]methylamino]pentoxy]-1H-quinolin-2-one

> <PUBCHEM_IUPAC_NAME_MARKUP>
7-[5-[[2-(2-methoxyphenyl)cyclopropyl]methylamino]pentoxy]-1<I>H</I>-quinolin-2-one

> <PUBCHEM_IUPAC_NAME>
7-[5-[[2-(2-methoxyphenyl)cyclopropyl]methylamino]pentoxy]-1H-quinolin-2-one

> <PUBCHEM_IUPAC_SYSTEMATIC_NAME>
7-[5-[[2-(2-methoxyphenyl)cyclopropyl]methylamino]pentoxy]-1H-quinolin-2-one

> <PUBCHEM_IUPAC_TRADITIONAL_NAME>
7-[5-[[2-(2-methoxyphenyl)cyclopropyl]methylamino]pentoxy]carbostyril

> <PUBCHEM_IUPAC_INCHI>
InChI=1S/C25H30N2O3/c1-29-24-8-4-3-7-21(24)22-15-19(22)17-26-13-5-2-6-14-30-20-11-9-18-10-12-25(28)27-23(18)16-20/h3-4,7-12,16,19,22,26H,2,5-6,13-15,17H2,1H3,(H,27,28)

> <PUBCHEM_IUPAC_INCHIKEY>
GHYIIELOMOENPF-UHFFFAOYSA-N

> <PUBCHEM_XLOGP3_AA>
4.1

> <PUBCHEM_EXACT_MASS>
406.22564282

> <PUBCHEM_MOLECULAR_FORMULA>
C25H30N2O3

> <PUBCHEM_MOLECULAR_WEIGHT>
406.5

> <PUBCHEM_OPENEYE_CAN_SMILES>
COC1=CC=CC=C1C2CC2CNCCCCCOC3=CC4=C(C=C3)C=CC(=O)N4

> <PUBCHEM_OPENEYE_ISO_SMILES>
COC1=CC=CC=C1C2CC2CNCCCCCOC3=CC4=C(C=C3)C=CC(=O)N4

> <PUBCHEM_CACTVS_TPSA>
59.6

> <PUBCHEM_MONOISOTOPIC_WEIGHT>
406.22564282

> <PUBCHEM_TOTAL_CHARGE>
0

> <PUBCHEM_HEAVY_ATOM_COUNT>
30

> <PUBCHEM_ATOM_DEF_STEREO_COUNT>
0

> <PUBCHEM_ATOM_UDEF_STEREO_COUNT>
2

> <PUBCHEM_BOND_DEF_STEREO_COUNT>
0

> <PUBCHEM_BOND_UDEF_STEREO_COUNT>
0

> <PUBCHEM_ISOTOPIC_ATOM_COUNT>
0

> <PUBCHEM_COMPONENT_COUNT>
1

> <PUBCHEM_CACTVS_TAUTO_COUNT>
-1

> <PUBCHEM_COORDINATE_TYPE>
1
5
255

> <PUBCHEM_BONDANNOTATIONS>
10  11  8
10  12  8
11  14  8
12  15  8
14  17  8
15  17  8
22  23  8
22  25  8
23  24  8
24  26  8
25  27  8
26  27  8
26  28  8
28  30  8
29  30  8
5  24  8
5  29  8
6  9  3
7  10  3

$$$$
