46222048
  -OEChem-09292322482D

 38 39  0     0  0  0  0  0  0999 V2000
    5.3147   -0.8988    0.0000 S   0  0  0  0  0  0  0  0  0  0  0  0
    2.6691   -2.4920    0.0000 N   0  0  0  0  0  0  0  0  0  0  0  0
    2.5000   -4.1012    0.0000 N   0  0  0  0  0  0  0  0  0  0  0  0
    5.3147    3.1012    0.0000 C   0  0  0  0  0  0  0  0  0  0  0  0
    5.3147    2.1012    0.0000 C   0  0  0  0  0  0  0  0  0  0  0  0
    5.3147    4.1012    0.0000 C   0  0  0  0  0  0  0  0  0  0  0  0
    6.3147    3.1012    0.0000 C   0  0  0  0  0  0  0  0  0  0  0  0
    4.3147    3.1012    0.0000 C   0  0  0  0  0  0  0  0  0  0  0  0
    4.4487    1.6012    0.0000 C   0  0  0  0  0  0  0  0  0  0  0  0
    6.1808    1.6012    0.0000 C   0  0  0  0  0  0  0  0  0  0  0  0
    5.3147    0.1012    0.0000 C   0  0  0  0  0  0  0  0  0  0  0  0
    4.4487    0.6012    0.0000 C   0  0  0  0  0  0  0  0  0  0  0  0
    6.1808    0.6012    0.0000 C   0  0  0  0  0  0  0  0  0  0  0  0
    4.4487   -1.3988    0.0000 C   0  0  0  0  0  0  0  0  0  0  0  0
    4.4487   -2.3988    0.0000 C   0  0  0  0  0  0  0  0  0  0  0  0
    3.5827   -2.8988    0.0000 C   0  0  0  0  0  0  0  0  0  0  0  0
    3.4782   -3.8933    0.0000 C   0  0  0  0  0  0  0  0  0  0  0  0
    2.0000   -3.2352    0.0000 C   0  0  0  0  0  0  0  0  0  0  0  0
    5.9347    4.1012    0.0000 H   0  0  0  0  0  0  0  0  0  0  0  0
    5.3147    4.7212    0.0000 H   0  0  0  0  0  0  0  0  0  0  0  0
    4.6947    4.1012    0.0000 H   0  0  0  0  0  0  0  0  0  0  0  0
    6.3147    2.4812    0.0000 H   0  0  0  0  0  0  0  0  0  0  0  0
    6.9347    3.1012    0.0000 H   0  0  0  0  0  0  0  0  0  0  0  0
    6.3147    3.7212    0.0000 H   0  0  0  0  0  0  0  0  0  0  0  0
    4.3147    3.7212    0.0000 H   0  0  0  0  0  0  0  0  0  0  0  0
    3.6947    3.1012    0.0000 H   0  0  0  0  0  0  0  0  0  0  0  0
    4.3147    2.4812    0.0000 H   0  0  0  0  0  0  0  0  0  0  0  0
    3.9118    1.9112    0.0000 H   0  0  0  0  0  0  0  0  0  0  0  0
    6.7177    1.9112    0.0000 H   0  0  0  0  0  0  0  0  0  0  0  0
    3.9118    0.2912    0.0000 H   0  0  0  0  0  0  0  0  0  0  0  0
    6.7177    0.2912    0.0000 H   0  0  0  0  0  0  0  0  0  0  0  0
    4.2366   -0.8162    0.0000 H   0  0  0  0  0  0  0  0  0  0  0  0
    3.8381   -1.5064    0.0000 H   0  0  0  0  0  0  0  0  0  0  0  0
    4.6608   -2.9814    0.0000 H   0  0  0  0  0  0  0  0  0  0  0  0
    5.0593   -2.2911    0.0000 H   0  0  0  0  0  0  0  0  0  0  0  0
    2.5402   -1.8856    0.0000 H   0  0  0  0  0  0  0  0  0  0  0  0
    3.9389   -4.3082    0.0000 H   0  0  0  0  0  0  0  0  0  0  0  0
    1.3834   -3.1704    0.0000 H   0  0  0  0  0  0  0  0  0  0  0  0
  1 11  1  0  0  0  0
  1 14  1  0  0  0  0
  2 16  1  0  0  0  0
  2 18  1  0  0  0  0
  2 36  1  0  0  0  0
  3 17  1  0  0  0  0
  3 18  2  0  0  0  0
  4  5  1  0  0  0  0
  4  6  1  0  0  0  0
  4  7  1  0  0  0  0
  4  8  1  0  0  0  0
  5  9  2  0  0  0  0
  5 10  1  0  0  0  0
  6 19  1  0  0  0  0
  6 20  1  0  0  0  0
  6 21  1  0  0  0  0
  7 22  1  0  0  0  0
  7 23  1  0  0  0  0
  7 24  1  0  0  0  0
  8 25  1  0  0  0  0
  8 26  1  0  0  0  0
  8 27  1  0  0  0  0
  9 12  1  0  0  0  0
  9 28  1  0  0  0  0
 10 13  2  0  0  0  0
 10 29  1  0  0  0  0
 11 12  2  0  0  0  0
 11 13  1  0  0  0  0
 12 30  1  0  0  0  0
 13 31  1  0  0  0  0
 14 15  1  0  0  0  0
 14 32  1  0  0  0  0
 14 33  1  0  0  0  0
 15 16  1  0  0  0  0
 15 34  1  0  0  0  0
 15 35  1  0  0  0  0
 16 17  2  0  0  0  0
 17 37  1  0  0  0  0
 18 38  1  0  0  0  0
M  END
> <PUBCHEM_COMPOUND_CID>
46222048

> <PUBCHEM_COMPOUND_CANONICALIZED>
1

> <PUBCHEM_CACTVS_COMPLEXITY>
241

> <PUBCHEM_CACTVS_HBOND_ACCEPTOR>
2

> <PUBCHEM_CACTVS_HBOND_DONOR>
1

> <PUBCHEM_CACTVS_ROTATABLE_BOND>
5

> <PUBCHEM_CACTVS_SUBSKEYS>
AAADceBzAABAAAAAAAAAAAAAAAAAAWAAAAAwAAAAAAAAAAABwAAAHAQQAAAADgjFXgS/kZbJkAigAzRnZAACgC2xGrAJ2Zg4cIiIaCLgmRCUIAAokAJoyCcAgMAPkAAAAAAAAAAgAAAAAAAAAAAAAAAAAA==

> <PUBCHEM_IUPAC_OPENEYE_NAME>
5-[2-(4-tert-butylphenyl)sulfanylethyl]-1H-imidazole

> <PUBCHEM_IUPAC_CAS_NAME>
5-[2-[(4-tert-butylphenyl)thio]ethyl]-1H-imidazole

> <PUBCHEM_IUPAC_NAME_MARKUP>
5-[2-(4-<I>tert</I>-butylphenyl)sulfanylethyl]-1<I>H</I>-imidazole

> <PUBCHEM_IUPAC_NAME>
5-[2-(4-tert-butylphenyl)sulfanylethyl]-1H-imidazole

> <PUBCHEM_IUPAC_SYSTEMATIC_NAME>
5-[2-(4-tert-butylphenyl)sulfanylethyl]-1H-imidazole

> <PUBCHEM_IUPAC_TRADITIONAL_NAME>
5-[2-[(4-tert-butylphenyl)thio]ethyl]-1H-imidazole

> <PUBCHEM_IUPAC_INCHI>
InChI=1S/C15H20N2S/c1-15(2,3)12-4-6-14(7-5-12)18-9-8-13-10-16-11-17-13/h4-7,10-11H,8-9H2,1-3H3,(H,16,17)

> <PUBCHEM_IUPAC_INCHIKEY>
PQPVHIHIJVIEQG-UHFFFAOYSA-N

> <PUBCHEM_XLOGP3>
4.1

> <PUBCHEM_EXACT_MASS>
260.13471982

> <PUBCHEM_MOLECULAR_FORMULA>
C15H20N2S

> <PUBCHEM_MOLECULAR_WEIGHT>
260.4

> <PUBCHEM_OPENEYE_CAN_SMILES>
CC(C)(C)C1=CC=C(C=C1)SCCC2=CN=CN2

> <PUBCHEM_OPENEYE_ISO_SMILES>
CC(C)(C)C1=CC=C(C=C1)SCCC2=CN=CN2

> <PUBCHEM_CACTVS_TPSA>
54

> <PUBCHEM_MONOISOTOPIC_WEIGHT>
260.13471982

> <PUBCHEM_TOTAL_CHARGE>
0

> <PUBCHEM_HEAVY_ATOM_COUNT>
18

> <PUBCHEM_ATOM_DEF_STEREO_COUNT>
0

> <PUBCHEM_ATOM_UDEF_STEREO_COUNT>
0

> <PUBCHEM_BOND_DEF_STEREO_COUNT>
0

> <PUBCHEM_BOND_UDEF_STEREO_COUNT>
0

> <PUBCHEM_ISOTOPIC_ATOM_COUNT>
0

> <PUBCHEM_COMPONENT_COUNT>
1

> <PUBCHEM_CACTVS_TAUTO_COUNT>
-1

> <PUBCHEM_COORDINATE_TYPE>
1
5
255

> <PUBCHEM_BONDANNOTATIONS>
10  13  8
11  12  8
11  13  8
16  17  8
2  16  8
2  18  8
3  17  8
3  18  8
5  10  8
5  9  8
9  12  8

$$$$
