10525119
  -OEChem-09292322202D

 60 64  0     0  0  0  0  0  0999 V2000
    5.4050    6.1801    0.0000 Cl  0  0  0  0  0  0  0  0  0  0  0  0
    2.8070   -2.3199    0.0000 O   0  0  0  0  0  0  0  0  0  0  0  0
    4.5390   -2.3199    0.0000 N   0  0  0  0  0  0  0  0  0  0  0  0
    5.4050    0.1801    0.0000 N   0  0  0  0  0  0  0  0  0  0  0  0
    5.4050    2.1801    0.0000 N   0  0  0  0  0  0  0  0  0  0  0  0
    3.6730   -3.8199    0.0000 C   0  0  0  0  0  0  0  0  0  0  0  0
    4.5092   -5.2682    0.0000 C   0  0  0  0  0  0  0  0  0  0  0  0
    2.9819   -5.7033    0.0000 C   0  0  0  0  0  0  0  0  0  0  0  0
    2.8368   -5.2682    0.0000 C   0  0  0  0  0  0  0  0  0  0  0  0
    4.5092   -4.3027    0.0000 C   0  0  0  0  0  0  0  0  0  0  0  0
    2.9819   -4.6580    0.0000 C   0  0  0  0  0  0  0  0  0  0  0  0
    2.8368   -4.3027    0.0000 C   0  0  0  0  0  0  0  0  0  0  0  0
    3.8876   -6.1801    0.0000 C   0  0  0  0  0  0  0  0  0  0  0  0
    3.6730   -5.5710    0.0000 C   0  0  0  0  0  0  0  0  0  0  0  0
    2.0000   -5.7510    0.0000 C   0  0  0  0  0  0  0  0  0  0  0  0
    3.6730   -2.8199    0.0000 C   0  0  0  0  0  0  0  0  0  0  0  0
    4.5390   -1.3199    0.0000 C   0  0  0  0  0  0  0  0  0  0  0  0
    5.4050   -0.8199    0.0000 C   0  0  0  0  0  0  0  0  0  0  0  0
    4.5390    0.6801    0.0000 C   0  0  0  0  0  0  0  0  0  0  0  0
    6.2711    0.6801    0.0000 C   0  0  0  0  0  0  0  0  0  0  0  0
    4.5390    1.6801    0.0000 C   0  0  0  0  0  0  0  0  0  0  0  0
    6.2711    1.6801    0.0000 C   0  0  0  0  0  0  0  0  0  0  0  0
    5.4050    3.1801    0.0000 C   0  0  0  0  0  0  0  0  0  0  0  0
    6.2710    3.6801    0.0000 C   0  0  0  0  0  0  0  0  0  0  0  0
    4.5390    3.6801    0.0000 C   0  0  0  0  0  0  0  0  0  0  0  0
    6.2710    4.6801    0.0000 C   0  0  0  0  0  0  0  0  0  0  0  0
    4.5390    4.6801    0.0000 C   0  0  0  0  0  0  0  0  0  0  0  0
    5.4050    5.1801    0.0000 C   0  0  0  0  0  0  0  0  0  0  0  0
    5.1016   -5.4509    0.0000 H   0  0  0  0  0  0  0  0  0  0  0  0
    2.8478   -6.3086    0.0000 H   0  0  0  0  0  0  0  0  0  0  0  0
    3.3444   -4.9122    0.0000 H   0  0  0  0  0  0  0  0  0  0  0  0
    5.1198   -4.4103    0.0000 H   0  0  0  0  0  0  0  0  0  0  0  0
    4.7212   -3.7201    0.0000 H   0  0  0  0  0  0  0  0  0  0  0  0
    2.6383   -4.1420    0.0000 H   0  0  0  0  0  0  0  0  0  0  0  0
    2.3885   -4.8375    0.0000 H   0  0  0  0  0  0  0  0  0  0  0  0
    2.6247   -3.7201    0.0000 H   0  0  0  0  0  0  0  0  0  0  0  0
    2.2262   -4.4103    0.0000 H   0  0  0  0  0  0  0  0  0  0  0  0
    3.5782   -6.7174    0.0000 H   0  0  0  0  0  0  0  0  0  0  0  0
    4.4127   -6.5097    0.0000 H   0  0  0  0  0  0  0  0  0  0  0  0
    3.3030   -6.0685    0.0000 H   0  0  0  0  0  0  0  0  0  0  0  0
    4.0430   -6.0685    0.0000 H   0  0  0  0  0  0  0  0  0  0  0  0
    1.5188   -5.3601    0.0000 H   0  0  0  0  0  0  0  0  0  0  0  0
    1.8068   -6.3401    0.0000 H   0  0  0  0  0  0  0  0  0  0  0  0
    5.0760   -2.6299    0.0000 H   0  0  0  0  0  0  0  0  0  0  0  0
    4.3270   -0.7373    0.0000 H   0  0  0  0  0  0  0  0  0  0  0  0
    3.9284   -1.4276    0.0000 H   0  0  0  0  0  0  0  0  0  0  0  0
    5.6171   -1.4025    0.0000 H   0  0  0  0  0  0  0  0  0  0  0  0
    6.0156   -0.7122    0.0000 H   0  0  0  0  0  0  0  0  0  0  0  0
    3.9284    0.7878    0.0000 H   0  0  0  0  0  0  0  0  0  0  0  0
    4.3270    0.0975    0.0000 H   0  0  0  0  0  0  0  0  0  0  0  0
    6.4831    0.0975    0.0000 H   0  0  0  0  0  0  0  0  0  0  0  0
    6.8816    0.7878    0.0000 H   0  0  0  0  0  0  0  0  0  0  0  0
    4.3270    2.2627    0.0000 H   0  0  0  0  0  0  0  0  0  0  0  0
    3.9284    1.5724    0.0000 H   0  0  0  0  0  0  0  0  0  0  0  0
    6.8816    1.5725    0.0000 H   0  0  0  0  0  0  0  0  0  0  0  0
    6.4831    2.2627    0.0000 H   0  0  0  0  0  0  0  0  0  0  0  0
    6.8080    3.3701    0.0000 H   0  0  0  0  0  0  0  0  0  0  0  0
    4.0021    3.3701    0.0000 H   0  0  0  0  0  0  0  0  0  0  0  0
    6.8080    4.9901    0.0000 H   0  0  0  0  0  0  0  0  0  0  0  0
    4.0021    4.9901    0.0000 H   0  0  0  0  0  0  0  0  0  0  0  0
  1 28  1  0  0  0  0
  2 16  2  0  0  0  0
  3 16  1  0  0  0  0
  3 17  1  0  0  0  0
  3 44  1  0  0  0  0
  4 18  1  0  0  0  0
  4 19  1  0  0  0  0
  4 20  1  0  0  0  0
  5 21  1  0  0  0  0
  5 22  1  0  0  0  0
  5 23  1  0  0  0  0
  6 10  1  0  0  0  0
  6 11  1  0  0  0  0
  6 12  1  0  0  0  0
  6 16  1  0  0  0  0
  7 10  1  0  0  0  0
  7 13  1  0  0  0  0
  7 14  1  0  0  0  0
  7 29  1  0  0  0  0
  8 11  1  0  0  0  0
  8 13  1  0  0  0  0
  8 15  1  0  0  0  0
  8 30  1  0  0  0  0
  9 12  1  0  0  0  0
  9 14  1  0  0  0  0
  9 15  1  0  0  0  0
  9 31  1  0  0  0  0
 10 32  1  0  0  0  0
 10 33  1  0  0  0  0
 11 34  1  0  0  0  0
 11 35  1  0  0  0  0
 12 36  1  0  0  0  0
 12 37  1  0  0  0  0
 13 38  1  0  0  0  0
 13 39  1  0  0  0  0
 14 40  1  0  0  0  0
 14 41  1  0  0  0  0
 15 42  1  0  0  0  0
 15 43  1  0  0  0  0
 17 18  1  0  0  0  0
 17 45  1  0  0  0  0
 17 46  1  0  0  0  0
 18 47  1  0  0  0  0
 18 48  1  0  0  0  0
 19 21  1  0  0  0  0
 19 49  1  0  0  0  0
 19 50  1  0  0  0  0
 20 22  1  0  0  0  0
 20 51  1  0  0  0  0
 20 52  1  0  0  0  0
 21 53  1  0  0  0  0
 21 54  1  0  0  0  0
 22 55  1  0  0  0  0
 22 56  1  0  0  0  0
 23 24  2  0  0  0  0
 23 25  1  0  0  0  0
 24 26  1  0  0  0  0
 24 57  1  0  0  0  0
 25 27  2  0  0  0  0
 25 58  1  0  0  0  0
 26 28  2  0  0  0  0
 26 59  1  0  0  0  0
 27 28  1  0  0  0  0
 27 60  1  0  0  0  0
M  END
> <PUBCHEM_COMPOUND_CID>
10525119

> <PUBCHEM_COMPOUND_CANONICALIZED>
1

> <PUBCHEM_CACTVS_COMPLEXITY>
525

> <PUBCHEM_CACTVS_HBOND_ACCEPTOR>
3

> <PUBCHEM_CACTVS_HBOND_DONOR>
1

> <PUBCHEM_CACTVS_ROTATABLE_BOND>
5

> <PUBCHEM_CACTVS_SUBSKEYS>
AAADcfB7IAAEAAAAAAAAAAAAAAAAAAAAAAA8YMGDAAAAAAABAAAAHgIQAAAADwrBkCQwwIPAAACIACVSUACCAAAhBwAIiIEIZogIYDLBk5GUIAhglgDIyAcYiMCPAABAAAAAAAAAAIQAAAAAAAAAAAAAAA==

> <PUBCHEM_IUPAC_OPENEYE_NAME>
N-[2-[4-(4-chlorophenyl)piperazin-1-yl]ethyl]adamantane-1-carboxamide

> <PUBCHEM_IUPAC_CAS_NAME>
N-[2-[4-(4-chlorophenyl)-1-piperazinyl]ethyl]-1-adamantanecarboxamide

> <PUBCHEM_IUPAC_NAME_MARKUP>
<I>N</I>-[2-[4-(4-chlorophenyl)piperazin-1-yl]ethyl]adamantane-1-carboxamide

> <PUBCHEM_IUPAC_NAME>
N-[2-[4-(4-chlorophenyl)piperazin-1-yl]ethyl]adamantane-1-carboxamide

> <PUBCHEM_IUPAC_SYSTEMATIC_NAME>
N-[2-[4-(4-chlorophenyl)piperazin-1-yl]ethyl]adamantane-1-carboxamide

> <PUBCHEM_IUPAC_TRADITIONAL_NAME>
N-[2-[4-(4-chlorophenyl)piperazino]ethyl]adamantane-1-carboxamide

> <PUBCHEM_IUPAC_INCHI>
InChI=1S/C23H32ClN3O/c24-20-1-3-21(4-2-20)27-9-7-26(8-10-27)6-5-25-22(28)23-14-17-11-18(15-23)13-19(12-17)16-23/h1-4,17-19H,5-16H2,(H,25,28)

> <PUBCHEM_IUPAC_INCHIKEY>
JDMPDERDGMRNFC-UHFFFAOYSA-N

> <PUBCHEM_XLOGP3_AA>
4.4

> <PUBCHEM_EXACT_MASS>
401.2233903

> <PUBCHEM_MOLECULAR_FORMULA>
C23H32ClN3O

> <PUBCHEM_MOLECULAR_WEIGHT>
402.0

> <PUBCHEM_OPENEYE_CAN_SMILES>
C1CN(CCN1CCNC(=O)C23CC4CC(C2)CC(C4)C3)C5=CC=C(C=C5)Cl

> <PUBCHEM_OPENEYE_ISO_SMILES>
C1CN(CCN1CCNC(=O)C23CC4CC(C2)CC(C4)C3)C5=CC=C(C=C5)Cl

> <PUBCHEM_CACTVS_TPSA>
35.6

> <PUBCHEM_MONOISOTOPIC_WEIGHT>
401.2233903

> <PUBCHEM_TOTAL_CHARGE>
0

> <PUBCHEM_HEAVY_ATOM_COUNT>
28

> <PUBCHEM_ATOM_DEF_STEREO_COUNT>
0

> <PUBCHEM_ATOM_UDEF_STEREO_COUNT>
0

> <PUBCHEM_BOND_DEF_STEREO_COUNT>
0

> <PUBCHEM_BOND_UDEF_STEREO_COUNT>
0

> <PUBCHEM_ISOTOPIC_ATOM_COUNT>
0

> <PUBCHEM_COMPONENT_COUNT>
1

> <PUBCHEM_CACTVS_TAUTO_COUNT>
-1

> <PUBCHEM_COORDINATE_TYPE>
1
5
255

> <PUBCHEM_BONDANNOTATIONS>
23  24  8
23  25  8
24  26  8
25  27  8
26  28  8
27  28  8

$$$$
