118709178
  -OEChem-09292322352D

151158  0     0  0  0  0  0  0999 V2000
   17.9745   -4.0364    0.0000 Cl  0  0  0  0  0  0  0  0  0  0  0  0
    2.0000   10.5006    0.0000 Cl  0  0  0  0  0  0  0  0  0  0  0  0
   14.2424  -16.5006    0.0000 F   0  0  0  0  0  0  0  0  0  0  0  0
   12.9282   16.5006    0.0000 F   0  0  0  0  0  0  0  0  0  0  0  0
   15.4745   -6.6345    0.0000 O   0  0  0  0  0  0  0  0  0  0  0  0
    5.5000    9.6345    0.0000 O   0  0  0  0  0  0  0  0  0  0  0  0
   13.9745   -7.5006    0.0000 O   0  0  0  0  0  0  0  0  0  0  0  0
    7.0000    8.7685    0.0000 O   0  0  0  0  0  0  0  0  0  0  0  0
   13.3764  -12.0006    0.0000 O   0  0  0  0  0  0  0  0  0  0  0  0
    8.5981   15.0006    0.0000 O   0  0  0  0  0  0  0  0  0  0  0  0
    9.3404   -2.0118    0.0000 O   0  0  0  0  0  0  0  0  0  0  0  0
    6.2862    2.1920    0.0000 O   0  0  0  0  0  0  0  0  0  0  0  0
    8.2178    0.3840    0.0000 O   0  0  0  0  0  0  0  0  0  0  0  0
   15.9745   -9.5006    0.0000 N   0  0  0  0  0  0  0  0  0  0  0  0
    7.7320   11.5006    0.0000 N   0  0  0  0  0  0  0  0  0  0  0  0
   12.8812   -3.9889    0.0000 N   0  0  0  0  0  0  0  0  0  0  0  0
    4.5055    6.0659    0.0000 N   0  0  0  0  0  0  0  0  0  0  0  0
   11.2720   -3.8198    0.0000 N   0  0  0  0  0  0  0  0  0  0  0  0
    5.1636    4.5878    0.0000 N   0  0  0  0  0  0  0  0  0  0  0  0
   12.1381   -3.3198    0.0000 N   0  0  0  0  0  0  0  0  0  0  0  0
    4.2976    5.0878    0.0000 N   0  0  0  0  0  0  0  0  0  0  0  0
   15.9745   -7.5006    0.0000 C   0  0  0  0  0  0  0  0  0  0  0  0
    6.0000   10.5006    0.0000 C   0  0  0  0  0  0  0  0  0  0  0  0
   15.1084   -8.0006    0.0000 C   0  0  0  0  0  0  0  0  0  0  0  0
   16.8405   -8.0006    0.0000 C   0  0  0  0  0  0  0  0  0  0  0  0
    6.0000   11.5006    0.0000 C   0  0  0  0  0  0  0  0  0  0  0  0
    6.8660   10.0006    0.0000 C   0  0  0  0  0  0  0  0  0  0  0  0
   15.1084   -9.0006    0.0000 C   0  0  0  0  0  0  0  0  0  0  0  0
   16.8405   -9.0006    0.0000 C   0  0  0  0  0  0  0  0  0  0  0  0
    6.8660   12.0006    0.0000 C   0  0  0  0  0  0  0  0  0  0  0  0
    7.7320   10.5006    0.0000 C   0  0  0  0  0  0  0  0  0  0  0  0
   16.4745   -6.6345    0.0000 C   0  0  0  0  0  0  0  0  0  0  0  0
    5.0000   10.5006    0.0000 C   0  0  0  0  0  0  0  0  0  0  0  0
   15.9745  -10.5006    0.0000 C   0  0  0  0  0  0  0  0  0  0  0  0
    8.5981   12.0006    0.0000 C   0  0  0  0  0  0  0  0  0  0  0  0
   15.1084  -11.0006    0.0000 C   0  0  0  0  0  0  0  0  0  0  0  0
    8.5981   13.0006    0.0000 C   0  0  0  0  0  0  0  0  0  0  0  0
   17.4745   -6.6345    0.0000 C   0  0  0  0  0  0  0  0  0  0  0  0
    4.5000   11.3666    0.0000 C   0  0  0  0  0  0  0  0  0  0  0  0
   15.9745   -5.7685    0.0000 C   0  0  0  0  0  0  0  0  0  0  0  0
    4.5000    9.6345    0.0000 C   0  0  0  0  0  0  0  0  0  0  0  0
   14.4745   -6.6345    0.0000 C   0  0  0  0  0  0  0  0  0  0  0  0
    6.0000    8.7685    0.0000 C   0  0  0  0  0  0  0  0  0  0  0  0
   15.1084  -12.0006    0.0000 C   0  0  0  0  0  0  0  0  0  0  0  0
    9.4641   13.5006    0.0000 C   0  0  0  0  0  0  0  0  0  0  0  0
   17.9745   -5.7685    0.0000 C   0  0  0  0  0  0  0  0  0  0  0  0
    3.5000   11.3666    0.0000 C   0  0  0  0  0  0  0  0  0  0  0  0
   16.4745   -4.9025    0.0000 C   0  0  0  0  0  0  0  0  0  0  0  0
    3.5000    9.6345    0.0000 C   0  0  0  0  0  0  0  0  0  0  0  0
   13.9745   -5.7685    0.0000 C   0  0  0  0  0  0  0  0  0  0  0  0
    5.5000    7.9025    0.0000 C   0  0  0  0  0  0  0  0  0  0  0  0
   17.4745   -4.9025    0.0000 C   0  0  0  0  0  0  0  0  0  0  0  0
    3.0000   10.5006    0.0000 C   0  0  0  0  0  0  0  0  0  0  0  0
   14.2424  -12.5006    0.0000 C   0  0  0  0  0  0  0  0  0  0  0  0
    9.4641   14.5006    0.0000 C   0  0  0  0  0  0  0  0  0  0  0  0
   12.9745   -5.7685    0.0000 C   0  0  0  0  0  0  0  0  0  0  0  0
    6.0000    7.0364    0.0000 C   0  0  0  0  0  0  0  0  0  0  0  0
   14.2424  -13.5006    0.0000 C   0  0  0  0  0  0  0  0  0  0  0  0
   10.3301   15.0006    0.0000 C   0  0  0  0  0  0  0  0  0  0  0  0
   12.4745   -4.9025    0.0000 C   0  0  0  0  0  0  0  0  0  0  0  0
    5.5000    6.1704    0.0000 C   0  0  0  0  0  0  0  0  0  0  0  0
   15.1084  -14.0006    0.0000 C   0  0  0  0  0  0  0  0  0  0  0  0
   10.3301   16.0006    0.0000 C   0  0  0  0  0  0  0  0  0  0  0  0
   13.3764  -14.0006    0.0000 C   0  0  0  0  0  0  0  0  0  0  0  0
   11.1962   14.5006    0.0000 C   0  0  0  0  0  0  0  0  0  0  0  0
   11.4799   -4.7980    0.0000 C   0  0  0  0  0  0  0  0  0  0  0  0
    5.9067    5.2569    0.0000 C   0  0  0  0  0  0  0  0  0  0  0  0
   15.1084  -15.0006    0.0000 C   0  0  0  0  0  0  0  0  0  0  0  0
   11.1962   16.5006    0.0000 C   0  0  0  0  0  0  0  0  0  0  0  0
   13.3764  -15.0006    0.0000 C   0  0  0  0  0  0  0  0  0  0  0  0
   12.0622   15.0006    0.0000 C   0  0  0  0  0  0  0  0  0  0  0  0
   14.2424  -15.5006    0.0000 C   0  0  0  0  0  0  0  0  0  0  0  0
   12.0622   16.0006    0.0000 C   0  0  0  0  0  0  0  0  0  0  0  0
   10.3585   -3.4131    0.0000 C   0  0  0  0  0  0  0  0  0  0  0  0
    5.2681    3.5932    0.0000 C   0  0  0  0  0  0  0  0  0  0  0  0
   10.2540   -2.4185    0.0000 C   0  0  0  0  0  0  0  0  0  0  0  0
    6.1817    3.1865    0.0000 C   0  0  0  0  0  0  0  0  0  0  0  0
    9.2359   -1.0173    0.0000 C   0  0  0  0  0  0  0  0  0  0  0  0
    7.1997    1.7852    0.0000 C   0  0  0  0  0  0  0  0  0  0  0  0
    8.3223   -0.6105    0.0000 C   0  0  0  0  0  0  0  0  0  0  0  0
    7.3043    0.7907    0.0000 C   0  0  0  0  0  0  0  0  0  0  0  0
   14.8964   -7.4179    0.0000 H   0  0  0  0  0  0  0  0  0  0  0  0
   14.4979   -8.1082    0.0000 H   0  0  0  0  0  0  0  0  0  0  0  0
   17.4511   -8.1082    0.0000 H   0  0  0  0  0  0  0  0  0  0  0  0
   17.0525   -7.4179    0.0000 H   0  0  0  0  0  0  0  0  0  0  0  0
    5.7880   12.0832    0.0000 H   0  0  0  0  0  0  0  0  0  0  0  0
    5.3894   11.3929    0.0000 H   0  0  0  0  0  0  0  0  0  0  0  0
    6.4675    9.5256    0.0000 H   0  0  0  0  0  0  0  0  0  0  0  0
    7.2646    9.5256    0.0000 H   0  0  0  0  0  0  0  0  0  0  0  0
   14.4979   -8.8929    0.0000 H   0  0  0  0  0  0  0  0  0  0  0  0
   14.8964   -9.5832    0.0000 H   0  0  0  0  0  0  0  0  0  0  0  0
   17.0525   -9.5832    0.0000 H   0  0  0  0  0  0  0  0  0  0  0  0
   17.4511   -8.8929    0.0000 H   0  0  0  0  0  0  0  0  0  0  0  0
    7.2646   12.4755    0.0000 H   0  0  0  0  0  0  0  0  0  0  0  0
    6.4675   12.4755    0.0000 H   0  0  0  0  0  0  0  0  0  0  0  0
    7.9441    9.9179    0.0000 H   0  0  0  0  0  0  0  0  0  0  0  0
    8.3426   10.6082    0.0000 H   0  0  0  0  0  0  0  0  0  0  0  0
   16.1865  -11.0832    0.0000 H   0  0  0  0  0  0  0  0  0  0  0  0
   16.5851  -10.3929    0.0000 H   0  0  0  0  0  0  0  0  0  0  0  0
    8.8101   11.4179    0.0000 H   0  0  0  0  0  0  0  0  0  0  0  0
    9.2087   12.1082    0.0000 H   0  0  0  0  0  0  0  0  0  0  0  0
   14.8964  -10.4179    0.0000 H   0  0  0  0  0  0  0  0  0  0  0  0
   14.4979  -11.1082    0.0000 H   0  0  0  0  0  0  0  0  0  0  0  0
    8.3860   13.5832    0.0000 H   0  0  0  0  0  0  0  0  0  0  0  0
    7.9875   12.8929    0.0000 H   0  0  0  0  0  0  0  0  0  0  0  0
   17.7845   -7.1715    0.0000 H   0  0  0  0  0  0  0  0  0  0  0  0
    4.8100   11.9035    0.0000 H   0  0  0  0  0  0  0  0  0  0  0  0
   15.3545   -5.7685    0.0000 H   0  0  0  0  0  0  0  0  0  0  0  0
    4.8100    9.0976    0.0000 H   0  0  0  0  0  0  0  0  0  0  0  0
   15.3205  -12.5832    0.0000 H   0  0  0  0  0  0  0  0  0  0  0  0
   15.7190  -11.8929    0.0000 H   0  0  0  0  0  0  0  0  0  0  0  0
    9.6762   12.9179    0.0000 H   0  0  0  0  0  0  0  0  0  0  0  0
   10.0747   13.6082    0.0000 H   0  0  0  0  0  0  0  0  0  0  0  0
   18.5945   -5.7685    0.0000 H   0  0  0  0  0  0  0  0  0  0  0  0
    3.1900   11.9035    0.0000 H   0  0  0  0  0  0  0  0  0  0  0  0
   16.1645   -4.3655    0.0000 H   0  0  0  0  0  0  0  0  0  0  0  0
    3.1900    9.0976    0.0000 H   0  0  0  0  0  0  0  0  0  0  0  0
   14.5571   -5.5564    0.0000 H   0  0  0  0  0  0  0  0  0  0  0  0
   13.8668   -5.1579    0.0000 H   0  0  0  0  0  0  0  0  0  0  0  0
    5.0250    8.3010    0.0000 H   0  0  0  0  0  0  0  0  0  0  0  0
    5.0250    7.5040    0.0000 H   0  0  0  0  0  0  0  0  0  0  0  0
   12.3919   -5.9806    0.0000 H   0  0  0  0  0  0  0  0  0  0  0  0
   13.0821   -6.3791    0.0000 H   0  0  0  0  0  0  0  0  0  0  0  0
    6.4750    6.6379    0.0000 H   0  0  0  0  0  0  0  0  0  0  0  0
    6.4750    7.4350    0.0000 H   0  0  0  0  0  0  0  0  0  0  0  0
   15.6454  -13.6906    0.0000 H   0  0  0  0  0  0  0  0  0  0  0  0
    9.7932   16.3106    0.0000 H   0  0  0  0  0  0  0  0  0  0  0  0
   12.8395  -13.6906    0.0000 H   0  0  0  0  0  0  0  0  0  0  0  0
   11.1962   13.8806    0.0000 H   0  0  0  0  0  0  0  0  0  0  0  0
   11.0651   -5.2587    0.0000 H   0  0  0  0  0  0  0  0  0  0  0  0
    6.5132    5.1280    0.0000 H   0  0  0  0  0  0  0  0  0  0  0  0
   15.6454  -15.3106    0.0000 H   0  0  0  0  0  0  0  0  0  0  0  0
   11.1962   17.1206    0.0000 H   0  0  0  0  0  0  0  0  0  0  0  0
   12.8395  -15.3106    0.0000 H   0  0  0  0  0  0  0  0  0  0  0  0
   12.5991   14.6906    0.0000 H   0  0  0  0  0  0  0  0  0  0  0  0
    9.7400   -3.3698    0.0000 H   0  0  0  0  0  0  0  0  0  0  0  0
   10.2085   -4.0146    0.0000 H   0  0  0  0  0  0  0  0  0  0  0  0
    4.6496    3.6365    0.0000 H   0  0  0  0  0  0  0  0  0  0  0  0
    5.1181    2.9916    0.0000 H   0  0  0  0  0  0  0  0  0  0  0  0
   10.8725   -2.4618    0.0000 H   0  0  0  0  0  0  0  0  0  0  0  0
   10.4040   -1.8170    0.0000 H   0  0  0  0  0  0  0  0  0  0  0  0
    6.8002    3.1432    0.0000 H   0  0  0  0  0  0  0  0  0  0  0  0
    6.3317    3.7881    0.0000 H   0  0  0  0  0  0  0  0  0  0  0  0
    9.8544   -1.0605    0.0000 H   0  0  0  0  0  0  0  0  0  0  0  0
    9.3859   -0.4157    0.0000 H   0  0  0  0  0  0  0  0  0  0  0  0
    7.8182    1.7420    0.0000 H   0  0  0  0  0  0  0  0  0  0  0  0
    7.3497    2.3868    0.0000 H   0  0  0  0  0  0  0  0  0  0  0  0
    7.7038   -0.5673    0.0000 H   0  0  0  0  0  0  0  0  0  0  0  0
    8.1724   -1.2121    0.0000 H   0  0  0  0  0  0  0  0  0  0  0  0
    6.6858    0.8340    0.0000 H   0  0  0  0  0  0  0  0  0  0  0  0
    7.1543    0.1891    0.0000 H   0  0  0  0  0  0  0  0  0  0  0  0
  1 52  1  0  0  0  0
  2 53  1  0  0  0  0
  3 72  1  0  0  0  0
  4 73  1  0  0  0  0
  5 22  1  0  0  0  0
  5 42  1  0  0  0  0
  6 23  1  0  0  0  0
  6 43  1  0  0  0  0
  7 42  2  0  0  0  0
  8 43  2  0  0  0  0
  9 54  2  0  0  0  0
 10 55  2  0  0  0  0
 11 76  1  0  0  0  0
 11 78  1  0  0  0  0
 12 77  1  0  0  0  0
 12 79  1  0  0  0  0
 13 80  1  0  0  0  0
 13 81  1  0  0  0  0
 14 28  1  0  0  0  0
 14 29  1  0  0  0  0
 14 34  1  0  0  0  0
 15 30  1  0  0  0  0
 15 31  1  0  0  0  0
 15 35  1  0  0  0  0
 16 20  2  0  0  0  0
 16 60  1  0  0  0  0
 17 21  2  0  0  0  0
 17 61  1  0  0  0  0
 18 20  1  0  0  0  0
 18 66  1  0  0  0  0
 18 74  1  0  0  0  0
 19 21  1  0  0  0  0
 19 67  1  0  0  0  0
 19 75  1  0  0  0  0
 22 24  1  0  0  0  0
 22 25  1  0  0  0  0
 22 32  1  0  0  0  0
 23 26  1  0  0  0  0
 23 27  1  0  0  0  0
 23 33  1  0  0  0  0
 24 28  1  0  0  0  0
 24 82  1  0  0  0  0
 24 83  1  0  0  0  0
 25 29  1  0  0  0  0
 25 84  1  0  0  0  0
 25 85  1  0  0  0  0
 26 30  1  0  0  0  0
 26 86  1  0  0  0  0
 26 87  1  0  0  0  0
 27 31  1  0  0  0  0
 27 88  1  0  0  0  0
 27 89  1  0  0  0  0
 28 90  1  0  0  0  0
 28 91  1  0  0  0  0
 29 92  1  0  0  0  0
 29 93  1  0  0  0  0
 30 94  1  0  0  0  0
 30 95  1  0  0  0  0
 31 96  1  0  0  0  0
 31 97  1  0  0  0  0
 32 38  2  0  0  0  0
 32 40  1  0  0  0  0
 33 39  2  0  0  0  0
 33 41  1  0  0  0  0
 34 36  1  0  0  0  0
 34 98  1  0  0  0  0
 34 99  1  0  0  0  0
 35 37  1  0  0  0  0
 35100  1  0  0  0  0
 35101  1  0  0  0  0
 36 44  1  0  0  0  0
 36102  1  0  0  0  0
 36103  1  0  0  0  0
 37 45  1  0  0  0  0
 37104  1  0  0  0  0
 37105  1  0  0  0  0
 38 46  1  0  0  0  0
 38106  1  0  0  0  0
 39 47  1  0  0  0  0
 39107  1  0  0  0  0
 40 48  2  0  0  0  0
 40108  1  0  0  0  0
 41 49  2  0  0  0  0
 41109  1  0  0  0  0
 42 50  1  0  0  0  0
 43 51  1  0  0  0  0
 44 54  1  0  0  0  0
 44110  1  0  0  0  0
 44111  1  0  0  0  0
 45 55  1  0  0  0  0
 45112  1  0  0  0  0
 45113  1  0  0  0  0
 46 52  2  0  0  0  0
 46114  1  0  0  0  0
 47 53  2  0  0  0  0
 47115  1  0  0  0  0
 48 52  1  0  0  0  0
 48116  1  0  0  0  0
 49 53  1  0  0  0  0
 49117  1  0  0  0  0
 50 56  1  0  0  0  0
 50118  1  0  0  0  0
 50119  1  0  0  0  0
 51 57  1  0  0  0  0
 51120  1  0  0  0  0
 51121  1  0  0  0  0
 54 58  1  0  0  0  0
 55 59  1  0  0  0  0
 56 60  1  0  0  0  0
 56122  1  0  0  0  0
 56123  1  0  0  0  0
 57 61  1  0  0  0  0
 57124  1  0  0  0  0
 57125  1  0  0  0  0
 58 62  2  0  0  0  0
 58 64  1  0  0  0  0
 59 63  2  0  0  0  0
 59 65  1  0  0  0  0
 60 66  2  0  0  0  0
 61 67  2  0  0  0  0
 62 68  1  0  0  0  0
 62126  1  0  0  0  0
 63 69  1  0  0  0  0
 63127  1  0  0  0  0
 64 70  2  0  0  0  0
 64128  1  0  0  0  0
 65 71  2  0  0  0  0
 65129  1  0  0  0  0
 66130  1  0  0  0  0
 67131  1  0  0  0  0
 68 72  2  0  0  0  0
 68132  1  0  0  0  0
 69 73  2  0  0  0  0
 69133  1  0  0  0  0
 70 72  1  0  0  0  0
 70134  1  0  0  0  0
 71 73  1  0  0  0  0
 71135  1  0  0  0  0
 74 76  1  0  0  0  0
 74136  1  0  0  0  0
 74137  1  0  0  0  0
 75 77  1  0  0  0  0
 75138  1  0  0  0  0
 75139  1  0  0  0  0
 76140  1  0  0  0  0
 76141  1  0  0  0  0
 77142  1  0  0  0  0
 77143  1  0  0  0  0
 78 80  1  0  0  0  0
 78144  1  0  0  0  0
 78145  1  0  0  0  0
 79 81  1  0  0  0  0
 79146  1  0  0  0  0
 79147  1  0  0  0  0
 80148  1  0  0  0  0
 80149  1  0  0  0  0
 81150  1  0  0  0  0
 81151  1  0  0  0  0
M  END
> <PUBCHEM_COMPOUND_CID>
118709178

> <PUBCHEM_COMPOUND_CANONICALIZED>
1

> <PUBCHEM_CACTVS_COMPLEXITY>
1750

> <PUBCHEM_CACTVS_HBOND_ACCEPTOR>
17

> <PUBCHEM_CACTVS_HBOND_DONOR>
0

> <PUBCHEM_CACTVS_ROTATABLE_BOND>
34

> <PUBCHEM_CACTVS_SUBSKEYS>
AAADcfB//YAGAAAAAAAAAAAAAAAAAWLAAAA8eMGCAAAAAAAB9AAAHwIIAAAADE7hni48iJMIBACqA7T3TAACBAQ1lwAY2AE4esgLZjLBtxiXMQAmwAHa6Ye82eKOhAAAAAAAAAAIAAAAAAAAAAAAAAAAAA==

> <PUBCHEM_IUPAC_OPENEYE_NAME>
[4-(4-chlorophenyl)-1-[4-(4-fluorophenyl)-4-oxo-butyl]-4-piperidyl] 3-[1-[2-[2-[2-[2-[4-[3-[[4-(4-chlorophenyl)-1-[4-(4-fluorophenyl)-4-oxo-butyl]-4-piperidyl]oxy]-3-oxo-propyl]triazol-1-yl]ethoxy]ethoxy]ethoxy]ethyl]triazol-4-yl]propanoate

> <PUBCHEM_IUPAC_CAS_NAME>
3-[1-[2-[2-[2-[2-[4-[3-[[4-(4-chlorophenyl)-1-[4-(4-fluorophenyl)-4-oxobutyl]-4-piperidinyl]oxy]-3-oxopropyl]-1-triazolyl]ethoxy]ethoxy]ethoxy]ethyl]-4-triazolyl]propanoic acid [4-(4-chlorophenyl)-1-[4-(4-fluorophenyl)-4-oxobutyl]-4-piperidinyl] ester

> <PUBCHEM_IUPAC_NAME_MARKUP>
[4-(4-chlorophenyl)-1-[4-(4-fluorophenyl)-4-oxobutyl]piperidin-4-yl] 3-[1-[2-[2-[2-[2-[4-[3-[4-(4-chlorophenyl)-1-[4-(4-fluorophenyl)-4-oxobutyl]piperidin-4-yl]oxy-3-oxopropyl]triazol-1-yl]ethoxy]ethoxy]ethoxy]ethyl]triazol-4-yl]propanoate

> <PUBCHEM_IUPAC_NAME>
[4-(4-chlorophenyl)-1-[4-(4-fluorophenyl)-4-oxobutyl]piperidin-4-yl] 3-[1-[2-[2-[2-[2-[4-[3-[4-(4-chlorophenyl)-1-[4-(4-fluorophenyl)-4-oxobutyl]piperidin-4-yl]oxy-3-oxopropyl]triazol-1-yl]ethoxy]ethoxy]ethoxy]ethyl]triazol-4-yl]propanoate

> <PUBCHEM_IUPAC_SYSTEMATIC_NAME>
[4-(4-chlorophenyl)-1-[4-(4-fluorophenyl)-4-oxidanylidene-butyl]piperidin-4-yl] 3-[1-[2-[2-[2-[2-[4-[3-[4-(4-chlorophenyl)-1-[4-(4-fluorophenyl)-4-oxidanylidene-butyl]piperidin-4-yl]oxy-3-oxidanylidene-propyl]-1,2,3-triazol-1-yl]ethoxy]ethoxy]ethoxy]ethyl]-1,2,3-triazol-4-yl]propanoate

> <PUBCHEM_IUPAC_TRADITIONAL_NAME>
3-[1-[2-[2-[2-[2-[4-[3-[[4-(4-chlorophenyl)-1-[4-(4-fluorophenyl)-4-keto-butyl]-4-piperidyl]oxy]-3-keto-propyl]triazol-1-yl]ethoxy]ethoxy]ethoxy]ethyl]triazol-4-yl]propionic acid [4-(4-chlorophenyl)-1-[4-(4-fluorophenyl)-4-keto-butyl]-4-piperidyl] ester

> <PUBCHEM_IUPAC_INCHI>
InChI=1S/C60H70Cl2F2N8O9/c61-49-13-9-47(10-14-49)59(25-31-69(32-26-59)29-1-3-55(73)45-5-17-51(63)18-6-45)80-57(75)23-21-53-43-71(67-65-53)35-37-77-39-41-79-42-40-78-38-36-72-44-54(66-68-72)22-24-58(76)81-60(48-11-15-50(62)16-12-48)27-33-70(34-28-60)30-2-4-56(74)46-7-19-52(64)20-8-46/h5-20,43-44H,1-4,21-42H2

> <PUBCHEM_IUPAC_INCHIKEY>
PPVWOMBOQZECHS-UHFFFAOYSA-N

> <PUBCHEM_XLOGP3_AA>
7.4

> <PUBCHEM_EXACT_MASS>
1154.4610876

> <PUBCHEM_MOLECULAR_FORMULA>
C60H70Cl2F2N8O9

> <PUBCHEM_MOLECULAR_WEIGHT>
1156.1

> <PUBCHEM_OPENEYE_CAN_SMILES>
C1CN(CCC1(C2=CC=C(C=C2)Cl)OC(=O)CCC3=CN(N=N3)CCOCCOCCOCCN4C=C(N=N4)CCC(=O)OC5(CCN(CC5)CCCC(=O)C6=CC=C(C=C6)F)C7=CC=C(C=C7)Cl)CCCC(=O)C8=CC=C(C=C8)F

> <PUBCHEM_OPENEYE_ISO_SMILES>
C1CN(CCC1(C2=CC=C(C=C2)Cl)OC(=O)CCC3=CN(N=N3)CCOCCOCCOCCN4C=C(N=N4)CCC(=O)OC5(CCN(CC5)CCCC(=O)C6=CC=C(C=C6)F)C7=CC=C(C=C7)Cl)CCCC(=O)C8=CC=C(C=C8)F

> <PUBCHEM_CACTVS_TPSA>
182

> <PUBCHEM_MONOISOTOPIC_WEIGHT>
1154.4610876

> <PUBCHEM_TOTAL_CHARGE>
0

> <PUBCHEM_HEAVY_ATOM_COUNT>
81

> <PUBCHEM_ATOM_DEF_STEREO_COUNT>
0

> <PUBCHEM_ATOM_UDEF_STEREO_COUNT>
0

> <PUBCHEM_BOND_DEF_STEREO_COUNT>
0

> <PUBCHEM_BOND_UDEF_STEREO_COUNT>
0

> <PUBCHEM_ISOTOPIC_ATOM_COUNT>
0

> <PUBCHEM_COMPONENT_COUNT>
1

> <PUBCHEM_CACTVS_TAUTO_COUNT>
-1

> <PUBCHEM_COORDINATE_TYPE>
1
5
255

> <PUBCHEM_BONDANNOTATIONS>
16  20  8
16  60  8
17  21  8
17  61  8
18  20  8
18  66  8
19  21  8
19  67  8
32  38  8
32  40  8
33  39  8
33  41  8
38  46  8
39  47  8
40  48  8
41  49  8
46  52  8
47  53  8
48  52  8
49  53  8
58  62  8
58  64  8
59  63  8
59  65  8
60  66  8
61  67  8
62  68  8
63  69  8
64  70  8
65  71  8
68  72  8
69  73  8
70  72  8
71  73  8

$$$$
