44324042
  -OEChem-09292322152D

 43 45  0     1  0  0  0  0  0999 V2000
    8.2619   -3.4385    0.0000 F   0  0  0  0  0  0  0  0  0  0  0  0
    4.6783   -2.5112    0.0000 N   0  0  0  0  0  0  0  0  0  0  0  0
    4.6318    1.7436    0.0000 N   0  0  3  0  0  0  0  0  0  0  0  0
    4.6783   -0.9017    0.0000 C   0  0  0  0  0  0  0  0  0  0  0  0
    4.9889    0.0488    0.0000 C   0  0  0  0  0  0  0  0  0  0  0  0
    3.7320   -1.2064    0.0000 C   0  0  0  0  0  0  0  0  0  0  0  0
    5.2619   -1.7064    0.0000 C   0  0  0  0  0  0  0  0  0  0  0  0
    4.3211    0.7931    0.0000 C   0  0  0  0  0  0  0  0  0  0  0  0
    3.7320   -2.2064    0.0000 C   0  0  0  0  0  0  0  0  0  0  0  0
    6.2619   -1.7064    0.0000 C   0  0  0  0  0  0  0  0  0  0  0  0
    2.8660   -0.7064    0.0000 C   0  0  0  0  0  0  0  0  0  0  0  0
    3.9639    2.4880    0.0000 C   0  0  0  0  0  0  0  0  0  0  0  0
    2.8660   -2.7064    0.0000 C   0  0  0  0  0  0  0  0  0  0  0  0
    5.6103    1.9499    0.0000 C   0  0  0  0  0  0  0  0  0  0  0  0
    2.0000   -1.2064    0.0000 C   0  0  0  0  0  0  0  0  0  0  0  0
    2.0000   -2.2064    0.0000 C   0  0  0  0  0  0  0  0  0  0  0  0
    6.7619   -2.5724    0.0000 C   0  0  0  0  0  0  0  0  0  0  0  0
    6.7619   -0.8404    0.0000 C   0  0  0  0  0  0  0  0  0  0  0  0
    4.2746    3.4385    0.0000 C   0  0  0  0  0  0  0  0  0  0  0  0
    7.7619   -2.5724    0.0000 C   0  0  0  0  0  0  0  0  0  0  0  0
    7.7619   -0.8404    0.0000 C   0  0  0  0  0  0  0  0  0  0  0  0
    8.2619   -1.7064    0.0000 C   0  0  0  0  0  0  0  0  0  0  0  0
    5.5359   -0.2432    0.0000 H   0  0  0  0  0  0  0  0  0  0  0  0
    5.3715    0.5367    0.0000 H   0  0  0  0  0  0  0  0  0  0  0  0
    3.7742    1.0852    0.0000 H   0  0  0  0  0  0  0  0  0  0  0  0
    3.9385    0.3052    0.0000 H   0  0  0  0  0  0  0  0  0  0  0  0
    4.8709   -3.1005    0.0000 H   0  0  0  0  0  0  0  0  0  0  0  0
    2.8660   -0.0864    0.0000 H   0  0  0  0  0  0  0  0  0  0  0  0
    3.4170    2.7800    0.0000 H   0  0  0  0  0  0  0  0  0  0  0  0
    3.5814    2.0000    0.0000 H   0  0  0  0  0  0  0  0  0  0  0  0
    2.8660   -3.3264    0.0000 H   0  0  0  0  0  0  0  0  0  0  0  0
    5.7381    1.3432    0.0000 H   0  0  0  0  0  0  0  0  0  0  0  0
    6.2169    2.0777    0.0000 H   0  0  0  0  0  0  0  0  0  0  0  0
    5.4824    2.5565    0.0000 H   0  0  0  0  0  0  0  0  0  0  0  0
    1.4631   -0.8964    0.0000 H   0  0  0  0  0  0  0  0  0  0  0  0
    1.4631   -2.5164    0.0000 H   0  0  0  0  0  0  0  0  0  0  0  0
    6.4519   -3.1094    0.0000 H   0  0  0  0  0  0  0  0  0  0  0  0
    6.4519   -0.3035    0.0000 H   0  0  0  0  0  0  0  0  0  0  0  0
    4.8639    3.2459    0.0000 H   0  0  0  0  0  0  0  0  0  0  0  0
    4.4672    4.0278    0.0000 H   0  0  0  0  0  0  0  0  0  0  0  0
    3.6852    3.6311    0.0000 H   0  0  0  0  0  0  0  0  0  0  0  0
    8.0719   -0.3035    0.0000 H   0  0  0  0  0  0  0  0  0  0  0  0
    8.8819   -1.7064    0.0000 H   0  0  0  0  0  0  0  0  0  0  0  0
  1 20  1  0  0  0  0
  2  7  1  0  0  0  0
  2  9  1  0  0  0  0
  2 27  1  0  0  0  0
  3  8  1  0  0  0  0
  3 12  1  0  0  0  0
  3 14  1  0  0  0  0
  4  5  1  0  0  0  0
  4  6  1  0  0  0  0
  4  7  2  0  0  0  0
  5  8  1  0  0  0  0
  5 23  1  0  0  0  0
  5 24  1  0  0  0  0
  6  9  1  0  0  0  0
  6 11  2  0  0  0  0
  7 10  1  0  0  0  0
  8 25  1  0  0  0  0
  8 26  1  0  0  0  0
  9 13  2  0  0  0  0
 10 17  2  0  0  0  0
 10 18  1  0  0  0  0
 11 15  1  0  0  0  0
 11 28  1  0  0  0  0
 12 19  1  0  0  0  0
 12 29  1  0  0  0  0
 12 30  1  0  0  0  0
 13 16  1  0  0  0  0
 13 31  1  0  0  0  0
 14 32  1  0  0  0  0
 14 33  1  0  0  0  0
 14 34  1  0  0  0  0
 15 16  2  0  0  0  0
 15 35  1  0  0  0  0
 16 36  1  0  0  0  0
 17 20  1  0  0  0  0
 17 37  1  0  0  0  0
 18 21  2  0  0  0  0
 18 38  1  0  0  0  0
 19 39  1  0  0  0  0
 19 40  1  0  0  0  0
 19 41  1  0  0  0  0
 20 22  2  0  0  0  0
 21 22  1  0  0  0  0
 21 42  1  0  0  0  0
 22 43  1  0  0  0  0
M  END
> <PUBCHEM_COMPOUND_CID>
44324042

> <PUBCHEM_COMPOUND_CANONICALIZED>
1

> <PUBCHEM_CACTVS_COMPLEXITY>
348

> <PUBCHEM_CACTVS_HBOND_ACCEPTOR>
2

> <PUBCHEM_CACTVS_HBOND_DONOR>
1

> <PUBCHEM_CACTVS_ROTATABLE_BOND>
5

> <PUBCHEM_CACTVS_SUBSKEYS>
AAADceB7AQAAAAAAAAAAAAAAAAAAAWAAAAAwYAAAAAAAAFgB9AAAHQAQAAAADAjBHgwywPPJkACgAyRiRACCgCAhAiAImSA4ZJgIIOLAkZGEIAhgkADIyAcQgMAOgAAAAAACAAAAAAAAAAQAAAAAAAAAAA==

> <PUBCHEM_IUPAC_OPENEYE_NAME>
N-ethyl-2-[2-(3-fluorophenyl)-1H-indol-3-yl]-N-methyl-ethanamine

> <PUBCHEM_IUPAC_CAS_NAME>
N-ethyl-2-[2-(3-fluorophenyl)-1H-indol-3-yl]-N-methylethanamine

> <PUBCHEM_IUPAC_NAME_MARKUP>
<I>N</I>-ethyl-2-[2-(3-fluorophenyl)-1<I>H</I>-indol-3-yl]-<I>N</I>-methylethanamine

> <PUBCHEM_IUPAC_NAME>
N-ethyl-2-[2-(3-fluorophenyl)-1H-indol-3-yl]-N-methylethanamine

> <PUBCHEM_IUPAC_SYSTEMATIC_NAME>
N-ethyl-2-[2-(3-fluorophenyl)-1H-indol-3-yl]-N-methyl-ethanamine

> <PUBCHEM_IUPAC_TRADITIONAL_NAME>
ethyl-[2-[2-(3-fluorophenyl)-1H-indol-3-yl]ethyl]-methyl-amine

> <PUBCHEM_IUPAC_INCHI>
InChI=1S/C19H21FN2/c1-3-22(2)12-11-17-16-9-4-5-10-18(16)21-19(17)14-7-6-8-15(20)13-14/h4-10,13,21H,3,11-12H2,1-2H3

> <PUBCHEM_IUPAC_INCHIKEY>
VCCRNQWQVWFKOO-UHFFFAOYSA-N

> <PUBCHEM_XLOGP3_AA>
4.5

> <PUBCHEM_EXACT_MASS>
296.16887684

> <PUBCHEM_MOLECULAR_FORMULA>
C19H21FN2

> <PUBCHEM_MOLECULAR_WEIGHT>
296.4

> <PUBCHEM_OPENEYE_CAN_SMILES>
CCN(C)CCC1=C(NC2=CC=CC=C21)C3=CC(=CC=C3)F

> <PUBCHEM_OPENEYE_ISO_SMILES>
CCN(C)CCC1=C(NC2=CC=CC=C21)C3=CC(=CC=C3)F

> <PUBCHEM_CACTVS_TPSA>
19

> <PUBCHEM_MONOISOTOPIC_WEIGHT>
296.16887684

> <PUBCHEM_TOTAL_CHARGE>
0

> <PUBCHEM_HEAVY_ATOM_COUNT>
22

> <PUBCHEM_ATOM_DEF_STEREO_COUNT>
0

> <PUBCHEM_ATOM_UDEF_STEREO_COUNT>
0

> <PUBCHEM_BOND_DEF_STEREO_COUNT>
0

> <PUBCHEM_BOND_UDEF_STEREO_COUNT>
0

> <PUBCHEM_ISOTOPIC_ATOM_COUNT>
0

> <PUBCHEM_COMPONENT_COUNT>
1

> <PUBCHEM_CACTVS_TAUTO_COUNT>
-1

> <PUBCHEM_COORDINATE_TYPE>
1
5
255

> <PUBCHEM_BONDANNOTATIONS>
10  17  8
10  18  8
11  15  8
13  16  8
15  16  8
17  20  8
18  21  8
2  7  8
2  9  8
20  22  8
21  22  8
4  6  8
4  7  8
6  11  8
6  9  8
9  13  8

$$$$
