162645251
  -OEChem-09292322422D

 59 61  0     0  0  0  0  0  0999 V2000
    6.6967    0.0000    0.0000 Cl  0  0  0  0  0  0  0  0  0  0  0  0
    0.0000    3.1200    0.0000 F   0  0  0  0  0  0  0  0  0  0  0  0
    6.9282    5.1200    0.0000 N   0  0  0  0  0  0  0  0  0  0  0  0
    8.6602    6.1200    0.0000 N   0  0  0  0  0  0  0  0  0  0  0  0
   10.3923    6.1200    0.0000 N   0  0  0  0  0  0  0  0  0  0  0  0
    7.7942    4.6200    0.0000 C   0  0  0  0  0  0  0  0  0  0  0  0
    6.9282    6.1200    0.0000 C   0  0  0  0  0  0  0  0  0  0  0  0
    8.6602    5.1200    0.0000 C   0  0  0  0  0  0  0  0  0  0  0  0
    7.7942    6.6200    0.0000 C   0  0  0  0  0  0  0  0  0  0  0  0
    6.0622    4.6200    0.0000 C   0  0  0  0  0  0  0  0  0  0  0  0
    5.1962    5.1200    0.0000 C   0  0  0  0  0  0  0  0  0  0  0  0
    4.3301    4.6200    0.0000 C   0  0  0  0  0  0  0  0  0  0  0  0
    9.5263    6.6200    0.0000 C   0  0  0  0  0  0  0  0  0  0  0  0
    3.4641    5.1200    0.0000 C   0  0  0  0  0  0  0  0  0  0  0  0
    9.5263    7.6200    0.0000 C   0  0  0  0  0  0  0  0  0  0  0  0
    2.5981    4.6200    0.0000 C   0  0  0  0  0  0  0  0  0  0  0  0
   11.2583    6.6200    0.0000 C   0  0  0  0  0  0  0  0  0  0  0  0
   10.3923    8.1200    0.0000 C   0  0  0  0  0  0  0  0  0  0  0  0
   11.2583    7.6200    0.0000 C   0  0  0  0  0  0  0  0  0  0  0  0
    2.5981    3.6200    0.0000 C   0  0  0  0  0  0  0  0  0  0  0  0
    1.7320    5.1200    0.0000 C   0  0  0  0  0  0  0  0  0  0  0  0
   12.1244    6.1200    0.0000 C   0  0  0  0  0  0  0  0  0  0  0  0
    1.7320    3.1200    0.0000 C   0  0  0  0  0  0  0  0  0  0  0  0
    0.8660    4.6200    0.0000 C   0  0  0  0  0  0  0  0  0  0  0  0
    0.8660    3.6200    0.0000 C   0  0  0  0  0  0  0  0  0  0  0  0
   12.9904    6.6200    0.0000 C   0  0  0  0  0  0  0  0  0  0  0  0
   12.1244    5.1200    0.0000 C   0  0  0  0  0  0  0  0  0  0  0  0
   13.8564    6.1200    0.0000 C   0  0  0  0  0  0  0  0  0  0  0  0
   12.9904    4.6200    0.0000 C   0  0  0  0  0  0  0  0  0  0  0  0
   13.8564    5.1200    0.0000 C   0  0  0  0  0  0  0  0  0  0  0  0
    7.3957    4.1450    0.0000 H   0  0  0  0  0  0  0  0  0  0  0  0
    8.1928    4.1450    0.0000 H   0  0  0  0  0  0  0  0  0  0  0  0
    6.7162    6.7026    0.0000 H   0  0  0  0  0  0  0  0  0  0  0  0
    6.3176    6.0123    0.0000 H   0  0  0  0  0  0  0  0  0  0  0  0
    8.8723    4.5374    0.0000 H   0  0  0  0  0  0  0  0  0  0  0  0
    9.2708    5.2277    0.0000 H   0  0  0  0  0  0  0  0  0  0  0  0
    8.1928    7.0950    0.0000 H   0  0  0  0  0  0  0  0  0  0  0  0
    7.3957    7.0950    0.0000 H   0  0  0  0  0  0  0  0  0  0  0  0
    5.6636    4.1450    0.0000 H   0  0  0  0  0  0  0  0  0  0  0  0
    6.4607    4.1450    0.0000 H   0  0  0  0  0  0  0  0  0  0  0  0
    5.5947    5.5950    0.0000 H   0  0  0  0  0  0  0  0  0  0  0  0
    4.7976    5.5950    0.0000 H   0  0  0  0  0  0  0  0  0  0  0  0
    3.9316    4.1450    0.0000 H   0  0  0  0  0  0  0  0  0  0  0  0
    4.7286    4.1450    0.0000 H   0  0  0  0  0  0  0  0  0  0  0  0
    3.8626    5.5950    0.0000 H   0  0  0  0  0  0  0  0  0  0  0  0
    3.0656    5.5950    0.0000 H   0  0  0  0  0  0  0  0  0  0  0  0
    8.9893    7.9300    0.0000 H   0  0  0  0  0  0  0  0  0  0  0  0
   10.3923    8.7400    0.0000 H   0  0  0  0  0  0  0  0  0  0  0  0
   11.7953    7.9300    0.0000 H   0  0  0  0  0  0  0  0  0  0  0  0
    3.1350    3.3100    0.0000 H   0  0  0  0  0  0  0  0  0  0  0  0
    1.7320    5.7400    0.0000 H   0  0  0  0  0  0  0  0  0  0  0  0
    1.7320    2.5000    0.0000 H   0  0  0  0  0  0  0  0  0  0  0  0
    0.3291    4.9300    0.0000 H   0  0  0  0  0  0  0  0  0  0  0  0
   12.9904    7.2400    0.0000 H   0  0  0  0  0  0  0  0  0  0  0  0
   11.5874    4.8100    0.0000 H   0  0  0  0  0  0  0  0  0  0  0  0
   14.3933    6.4300    0.0000 H   0  0  0  0  0  0  0  0  0  0  0  0
   12.9904    4.0000    0.0000 H   0  0  0  0  0  0  0  0  0  0  0  0
   14.3933    4.8100    0.0000 H   0  0  0  0  0  0  0  0  0  0  0  0
    7.6967    0.0000    0.0000 H   0  0  0  0  0  0  0  0  0  0  0  0
  1 59  1  0  0  0  0
  2 25  1  0  0  0  0
  3  6  1  0  0  0  0
  3  7  1  0  0  0  0
  3 10  1  0  0  0  0
  4  8  1  0  0  0  0
  4  9  1  0  0  0  0
  4 13  1  0  0  0  0
  5 13  1  0  0  0  0
  5 17  2  0  0  0  0
  6  8  1  0  0  0  0
  6 31  1  0  0  0  0
  6 32  1  0  0  0  0
  7  9  1  0  0  0  0
  7 33  1  0  0  0  0
  7 34  1  0  0  0  0
  8 35  1  0  0  0  0
  8 36  1  0  0  0  0
  9 37  1  0  0  0  0
  9 38  1  0  0  0  0
 10 11  1  0  0  0  0
 10 39  1  0  0  0  0
 10 40  1  0  0  0  0
 11 12  1  0  0  0  0
 11 41  1  0  0  0  0
 11 42  1  0  0  0  0
 12 14  1  0  0  0  0
 12 43  1  0  0  0  0
 12 44  1  0  0  0  0
 13 15  2  0  0  0  0
 14 16  1  0  0  0  0
 14 45  1  0  0  0  0
 14 46  1  0  0  0  0
 15 18  1  0  0  0  0
 15 47  1  0  0  0  0
 16 20  2  0  0  0  0
 16 21  1  0  0  0  0
 17 19  1  0  0  0  0
 17 22  1  0  0  0  0
 18 19  2  0  0  0  0
 18 48  1  0  0  0  0
 19 49  1  0  0  0  0
 20 23  1  0  0  0  0
 20 50  1  0  0  0  0
 21 24  2  0  0  0  0
 21 51  1  0  0  0  0
 22 26  2  0  0  0  0
 22 27  1  0  0  0  0
 23 25  2  0  0  0  0
 23 52  1  0  0  0  0
 24 25  1  0  0  0  0
 24 53  1  0  0  0  0
 26 28  1  0  0  0  0
 26 54  1  0  0  0  0
 27 29  2  0  0  0  0
 27 55  1  0  0  0  0
 28 30  2  0  0  0  0
 28 56  1  0  0  0  0
 29 30  1  0  0  0  0
 29 57  1  0  0  0  0
 30 58  1  0  0  0  0
M  END
> <PUBCHEM_COMPOUND_CID>
162645251

> <PUBCHEM_COMPOUND_CANONICALIZED>
1

> <PUBCHEM_CACTVS_COMPLEXITY>
451

> <PUBCHEM_CACTVS_HBOND_ACCEPTOR>
4

> <PUBCHEM_CACTVS_HBOND_DONOR>
1

> <PUBCHEM_CACTVS_ROTATABLE_BOND>
7

> <PUBCHEM_CACTVS_SUBSKEYS>
AAADceB7AQAEAAAAAAAAAAAAAAAAAAAAAAA8eIEAAAAAAAAB0AAAHQAAAAAADAjBHgwxsJMIEACgAyZiZACCgCkhAiAJmCA4ZJiIYOLAmZGUIAhogALIyCcQgMAOAAAAAAAAAAAAAAAAAAAAAAAAAAAAAA==

> <PUBCHEM_IUPAC_OPENEYE_NAME>
1-[4-(4-fluorophenyl)butyl]-4-(6-phenyl-2-pyridyl)piperazine;hydrochloride

> <PUBCHEM_IUPAC_CAS_NAME>
1-[4-(4-fluorophenyl)butyl]-4-(6-phenyl-2-pyridinyl)piperazine;hydrochloride

> <PUBCHEM_IUPAC_NAME_MARKUP>
1-[4-(4-fluorophenyl)butyl]-4-(6-phenylpyridin-2-yl)piperazine;hydrochloride

> <PUBCHEM_IUPAC_NAME>
1-[4-(4-fluorophenyl)butyl]-4-(6-phenylpyridin-2-yl)piperazine;hydrochloride

> <PUBCHEM_IUPAC_SYSTEMATIC_NAME>
1-[4-(4-fluorophenyl)butyl]-4-(6-phenylpyridin-2-yl)piperazine;hydrochloride

> <PUBCHEM_IUPAC_TRADITIONAL_NAME>
1-[4-(4-fluorophenyl)butyl]-4-(6-phenyl-2-pyridyl)piperazine;hydrochloride

> <PUBCHEM_IUPAC_INCHI>
InChI=1S/C25H28FN3.ClH/c26-23-14-12-21(13-15-23)7-4-5-16-28-17-19-29(20-18-28)25-11-6-10-24(27-25)22-8-2-1-3-9-22;/h1-3,6,8-15H,4-5,7,16-20H2;1H

> <PUBCHEM_IUPAC_INCHIKEY>
AVSIXCCTQMDZPL-UHFFFAOYSA-N

> <PUBCHEM_EXACT_MASS>
425.2034038

> <PUBCHEM_MOLECULAR_FORMULA>
C25H29ClFN3

> <PUBCHEM_MOLECULAR_WEIGHT>
426.0

> <PUBCHEM_OPENEYE_CAN_SMILES>
C1CN(CCN1CCCCC2=CC=C(C=C2)F)C3=CC=CC(=N3)C4=CC=CC=C4.Cl

> <PUBCHEM_OPENEYE_ISO_SMILES>
C1CN(CCN1CCCCC2=CC=C(C=C2)F)C3=CC=CC(=N3)C4=CC=CC=C4.Cl

> <PUBCHEM_CACTVS_TPSA>
19.4

> <PUBCHEM_MONOISOTOPIC_WEIGHT>
425.2034038

> <PUBCHEM_TOTAL_CHARGE>
0

> <PUBCHEM_HEAVY_ATOM_COUNT>
30

> <PUBCHEM_ATOM_DEF_STEREO_COUNT>
0

> <PUBCHEM_ATOM_UDEF_STEREO_COUNT>
0

> <PUBCHEM_BOND_DEF_STEREO_COUNT>
0

> <PUBCHEM_BOND_UDEF_STEREO_COUNT>
0

> <PUBCHEM_ISOTOPIC_ATOM_COUNT>
0

> <PUBCHEM_COMPONENT_COUNT>
2

> <PUBCHEM_CACTVS_TAUTO_COUNT>
-1

> <PUBCHEM_COORDINATE_TYPE>
1
5
255

> <PUBCHEM_BONDANNOTATIONS>
13  15  8
15  18  8
16  20  8
16  21  8
17  19  8
18  19  8
20  23  8
21  24  8
22  26  8
22  27  8
23  25  8
24  25  8
26  28  8
27  29  8
28  30  8
29  30  8
5  13  8
5  17  8

$$$$
