53499206
  -OEChem-09292322462D

 53 55  0     0  0  0  0  0  0999 V2000
    8.9282    2.2498    0.0000 O   0  0  0  0  0  0  0  0  0  0  0  0
   12.1153   -2.2498    0.0000 O   0  0  0  0  0  0  0  0  0  0  0  0
    4.5981    0.7498    0.0000 N   0  0  0  0  0  0  0  0  0  0  0  0
    2.8660   -0.2502    0.0000 N   0  0  0  0  0  0  0  0  0  0  0  0
   12.4725   -0.5550    0.0000 N   0  0  0  0  0  0  0  0  0  0  0  0
    8.0622    0.7498    0.0000 N   0  0  0  0  0  0  0  0  0  0  0  0
    3.7320    1.2498    0.0000 C   0  0  0  0  0  0  0  0  0  0  0  0
    4.5981   -0.2502    0.0000 C   0  0  0  0  0  0  0  0  0  0  0  0
    2.8660    0.7498    0.0000 C   0  0  0  0  0  0  0  0  0  0  0  0
    3.7320   -0.7502    0.0000 C   0  0  0  0  0  0  0  0  0  0  0  0
    5.4641    1.2498    0.0000 C   0  0  0  0  0  0  0  0  0  0  0  0
    6.3301    0.7498    0.0000 C   0  0  0  0  0  0  0  0  0  0  0  0
    7.1962    1.2498    0.0000 C   0  0  0  0  0  0  0  0  0  0  0  0
    2.0000   -0.7502    0.0000 C   0  0  0  0  0  0  0  0  0  0  0  0
   12.4725    1.0545    0.0000 C   0  0  0  0  0  0  0  0  0  0  0  0
   11.5263    0.7498    0.0000 C   0  0  0  0  0  0  0  0  0  0  0  0
   13.0561    0.2498    0.0000 C   0  0  0  0  0  0  0  0  0  0  0  0
   11.5263   -0.2502    0.0000 C   0  0  0  0  0  0  0  0  0  0  0  0
   10.6603    1.2498    0.0000 C   0  0  0  0  0  0  0  0  0  0  0  0
    9.7942    0.7498    0.0000 C   0  0  0  0  0  0  0  0  0  0  0  0
   10.6603   -0.7502    0.0000 C   0  0  0  0  0  0  0  0  0  0  0  0
    8.9282    1.2498    0.0000 C   0  0  0  0  0  0  0  0  0  0  0  0
    9.7942   -0.2502    0.0000 C   0  0  0  0  0  0  0  0  0  0  0  0
   12.7832   -1.5055    0.0000 C   0  0  0  0  0  0  0  0  0  0  0  0
   13.7617   -1.7117    0.0000 C   0  0  0  0  0  0  0  0  0  0  0  0
    4.1306    1.7247    0.0000 H   0  0  0  0  0  0  0  0  0  0  0  0
    3.3335    1.7247    0.0000 H   0  0  0  0  0  0  0  0  0  0  0  0
    4.8101   -0.8328    0.0000 H   0  0  0  0  0  0  0  0  0  0  0  0
    5.2087   -0.1426    0.0000 H   0  0  0  0  0  0  0  0  0  0  0  0
    2.6540    1.3324    0.0000 H   0  0  0  0  0  0  0  0  0  0  0  0
    2.2554    0.6421    0.0000 H   0  0  0  0  0  0  0  0  0  0  0  0
    3.3335   -1.2252    0.0000 H   0  0  0  0  0  0  0  0  0  0  0  0
    4.1306   -1.2252    0.0000 H   0  0  0  0  0  0  0  0  0  0  0  0
    5.8626    1.7247    0.0000 H   0  0  0  0  0  0  0  0  0  0  0  0
    5.0656    1.7247    0.0000 H   0  0  0  0  0  0  0  0  0  0  0  0
    5.9316    0.2748    0.0000 H   0  0  0  0  0  0  0  0  0  0  0  0
    6.7287    0.2748    0.0000 H   0  0  0  0  0  0  0  0  0  0  0  0
   13.0099    1.3637    0.0000 H   0  0  0  0  0  0  0  0  0  0  0  0
   12.2215    1.6214    0.0000 H   0  0  0  0  0  0  0  0  0  0  0  0
    7.5947    1.7247    0.0000 H   0  0  0  0  0  0  0  0  0  0  0  0
    6.7976    1.7247    0.0000 H   0  0  0  0  0  0  0  0  0  0  0  0
    1.6900   -0.2133    0.0000 H   0  0  0  0  0  0  0  0  0  0  0  0
    1.4631   -1.0602    0.0000 H   0  0  0  0  0  0  0  0  0  0  0  0
    2.3100   -1.2872    0.0000 H   0  0  0  0  0  0  0  0  0  0  0  0
   13.5170   -0.1650    0.0000 H   0  0  0  0  0  0  0  0  0  0  0  0
   13.5170    0.6645    0.0000 H   0  0  0  0  0  0  0  0  0  0  0  0
   10.6603    1.8698    0.0000 H   0  0  0  0  0  0  0  0  0  0  0  0
    8.0622    0.1298    0.0000 H   0  0  0  0  0  0  0  0  0  0  0  0
   10.6603   -1.3702    0.0000 H   0  0  0  0  0  0  0  0  0  0  0  0
    9.2573   -0.5602    0.0000 H   0  0  0  0  0  0  0  0  0  0  0  0
   13.6338   -2.3184    0.0000 H   0  0  0  0  0  0  0  0  0  0  0  0
   14.3683   -1.8396    0.0000 H   0  0  0  0  0  0  0  0  0  0  0  0
   13.8895   -1.1050    0.0000 H   0  0  0  0  0  0  0  0  0  0  0  0
  1 22  2  0  0  0  0
  2 24  2  0  0  0  0
  3  7  1  0  0  0  0
  3  8  1  0  0  0  0
  3 11  1  0  0  0  0
  4  9  1  0  0  0  0
  4 10  1  0  0  0  0
  4 14  1  0  0  0  0
  5 17  1  0  0  0  0
  5 18  1  0  0  0  0
  5 24  1  0  0  0  0
  6 13  1  0  0  0  0
  6 22  1  0  0  0  0
  6 48  1  0  0  0  0
  7  9  1  0  0  0  0
  7 26  1  0  0  0  0
  7 27  1  0  0  0  0
  8 10  1  0  0  0  0
  8 28  1  0  0  0  0
  8 29  1  0  0  0  0
  9 30  1  0  0  0  0
  9 31  1  0  0  0  0
 10 32  1  0  0  0  0
 10 33  1  0  0  0  0
 11 12  1  0  0  0  0
 11 34  1  0  0  0  0
 11 35  1  0  0  0  0
 12 13  1  0  0  0  0
 12 36  1  0  0  0  0
 12 37  1  0  0  0  0
 13 40  1  0  0  0  0
 13 41  1  0  0  0  0
 14 42  1  0  0  0  0
 14 43  1  0  0  0  0
 14 44  1  0  0  0  0
 15 16  1  0  0  0  0
 15 17  1  0  0  0  0
 15 38  1  0  0  0  0
 15 39  1  0  0  0  0
 16 18  2  0  0  0  0
 16 19  1  0  0  0  0
 17 45  1  0  0  0  0
 17 46  1  0  0  0  0
 18 21  1  0  0  0  0
 19 20  2  0  0  0  0
 19 47  1  0  0  0  0
 20 22  1  0  0  0  0
 20 23  1  0  0  0  0
 21 23  2  0  0  0  0
 21 49  1  0  0  0  0
 23 50  1  0  0  0  0
 24 25  1  0  0  0  0
 25 51  1  0  0  0  0
 25 52  1  0  0  0  0
 25 53  1  0  0  0  0
M  END
> <PUBCHEM_COMPOUND_CID>
53499206

> <PUBCHEM_COMPOUND_CANONICALIZED>
1

> <PUBCHEM_CACTVS_COMPLEXITY>
476

> <PUBCHEM_CACTVS_HBOND_ACCEPTOR>
4

> <PUBCHEM_CACTVS_HBOND_DONOR>
1

> <PUBCHEM_CACTVS_ROTATABLE_BOND>
5

> <PUBCHEM_CACTVS_SUBSKEYS>
AAADceB7sAAAAAAAAAAAAAAAAAAAAWAAAAA8QAAAAAAAAFgBAAAAHgAQAAAADAjBmAQywIPAAACIAiVSUACCAAAlAgAIiIEIZMgIYDLA1ZGUIQhglgDIyYcYicCeCAACAAACAAAQAAQAAAQAAAAAAAAAAA==

> <PUBCHEM_IUPAC_OPENEYE_NAME>
1-acetyl-N-[3-(4-methylpiperazin-1-yl)propyl]indoline-5-carboxamide

> <PUBCHEM_IUPAC_CAS_NAME>
1-acetyl-N-[3-(4-methyl-1-piperazinyl)propyl]-2,3-dihydroindole-5-carboxamide

> <PUBCHEM_IUPAC_NAME_MARKUP>
1-acetyl-<I>N</I>-[3-(4-methylpiperazin-1-yl)propyl]-2,3-dihydroindole-5-carboxamide

> <PUBCHEM_IUPAC_NAME>
1-acetyl-N-[3-(4-methylpiperazin-1-yl)propyl]-2,3-dihydroindole-5-carboxamide

> <PUBCHEM_IUPAC_SYSTEMATIC_NAME>
1-ethanoyl-N-[3-(4-methylpiperazin-1-yl)propyl]-2,3-dihydroindole-5-carboxamide

> <PUBCHEM_IUPAC_TRADITIONAL_NAME>
1-acetyl-N-[3-(4-methylpiperazino)propyl]indoline-5-carboxamide

> <PUBCHEM_IUPAC_INCHI>
InChI=1S/C19H28N4O2/c1-15(24)23-9-6-16-14-17(4-5-18(16)23)19(25)20-7-3-8-22-12-10-21(2)11-13-22/h4-5,14H,3,6-13H2,1-2H3,(H,20,25)

> <PUBCHEM_IUPAC_INCHIKEY>
XMSUOYMMVIGYGO-UHFFFAOYSA-N

> <PUBCHEM_XLOGP3_AA>
0.8

> <PUBCHEM_EXACT_MASS>
344.22122615

> <PUBCHEM_MOLECULAR_FORMULA>
C19H28N4O2

> <PUBCHEM_MOLECULAR_WEIGHT>
344.5

> <PUBCHEM_OPENEYE_CAN_SMILES>
CC(=O)N1CCC2=C1C=CC(=C2)C(=O)NCCCN3CCN(CC3)C

> <PUBCHEM_OPENEYE_ISO_SMILES>
CC(=O)N1CCC2=C1C=CC(=C2)C(=O)NCCCN3CCN(CC3)C

> <PUBCHEM_CACTVS_TPSA>
55.9

> <PUBCHEM_MONOISOTOPIC_WEIGHT>
344.22122615

> <PUBCHEM_TOTAL_CHARGE>
0

> <PUBCHEM_HEAVY_ATOM_COUNT>
25

> <PUBCHEM_ATOM_DEF_STEREO_COUNT>
0

> <PUBCHEM_ATOM_UDEF_STEREO_COUNT>
0

> <PUBCHEM_BOND_DEF_STEREO_COUNT>
0

> <PUBCHEM_BOND_UDEF_STEREO_COUNT>
0

> <PUBCHEM_ISOTOPIC_ATOM_COUNT>
0

> <PUBCHEM_COMPONENT_COUNT>
1

> <PUBCHEM_CACTVS_TAUTO_COUNT>
-1

> <PUBCHEM_COORDINATE_TYPE>
1
5
255

> <PUBCHEM_BONDANNOTATIONS>
16  18  8
16  19  8
18  21  8
19  20  8
20  23  8
21  23  8

$$$$
