118719795
  -OEChem-09292322362D

 63 67  0     0  0  0  0  0  0999 V2000
    7.4805    3.7480    0.0000 O   0  0  0  0  0  0  0  0  0  0  0  0
    4.3159    2.3390    0.0000 N   0  0  0  0  0  0  0  0  0  0  0  0
    5.4915    3.9570    0.0000 N   0  0  0  0  0  0  0  0  0  0  0  0
    2.8660   -3.4540    0.0000 N   0  0  0  0  0  0  0  0  0  0  0  0
    2.3660   -1.9151    0.0000 N   0  0  0  0  0  0  0  0  0  0  0  0
    2.0570   -2.8662    0.0000 N   0  0  0  0  0  0  0  0  0  0  0  0
    5.5321   -5.9748    0.0000 N   0  0  0  0  0  0  0  0  0  0  0  0
    5.3104    2.2345    0.0000 C   0  0  0  0  0  0  0  0  0  0  0  0
    3.9092    3.2526    0.0000 C   0  0  0  0  0  0  0  0  0  0  0  0
    5.8982    3.0435    0.0000 C   0  0  0  0  0  0  0  0  0  0  0  0
    4.4970    4.0616    0.0000 C   0  0  0  0  0  0  0  0  0  0  0  0
    3.7281    1.5300    0.0000 C   0  0  0  0  0  0  0  0  0  0  0  0
    4.1349    0.6165    0.0000 C   0  0  0  0  0  0  0  0  0  0  0  0
    3.5471   -0.1926    0.0000 C   0  0  0  0  0  0  0  0  0  0  0  0
    6.0793    4.7661    0.0000 C   0  0  0  0  0  0  0  0  0  0  0  0
    3.9538   -1.1061    0.0000 C   0  0  0  0  0  0  0  0  0  0  0  0
    7.0738    4.6615    0.0000 C   0  0  0  0  0  0  0  0  0  0  0  0
    5.6725    5.6796    0.0000 C   0  0  0  0  0  0  0  0  0  0  0  0
    3.3660   -1.9151    0.0000 C   0  0  0  0  0  0  0  0  0  0  0  0
    7.6616    5.4706    0.0000 C   0  0  0  0  0  0  0  0  0  0  0  0
    6.2603    6.4886    0.0000 C   0  0  0  0  0  0  0  0  0  0  0  0
    3.6750   -2.8662    0.0000 C   0  0  0  0  0  0  0  0  0  0  0  0
    7.2548    6.3841    0.0000 C   0  0  0  0  0  0  0  0  0  0  0  0
    2.8660   -4.4540    0.0000 C   0  0  0  0  0  0  0  0  0  0  0  0
    3.7320   -4.9540    0.0000 C   0  0  0  0  0  0  0  0  0  0  0  0
    8.4750    3.6435    0.0000 C   0  0  0  0  0  0  0  0  0  0  0  0
    2.0000   -4.9540    0.0000 C   0  0  0  0  0  0  0  0  0  0  0  0
    3.7320   -5.9540    0.0000 C   0  0  0  0  0  0  0  0  0  0  0  0
    2.0000   -5.9540    0.0000 C   0  0  0  0  0  0  0  0  0  0  0  0
    2.8660   -6.4540    0.0000 C   0  0  0  0  0  0  0  0  0  0  0  0
    4.6260   -4.4193    0.0000 C   0  0  0  0  0  0  0  0  0  0  0  0
    4.6260   -6.4886    0.0000 C   0  0  0  0  0  0  0  0  0  0  0  0
    5.5321   -4.9332    0.0000 C   0  0  0  0  0  0  0  0  0  0  0  0
    5.1395    1.6385    0.0000 H   0  0  0  0  0  0  0  0  0  0  0  0
    5.8677    1.9627    0.0000 H   0  0  0  0  0  0  0  0  0  0  0  0
    3.4785    3.6986    0.0000 H   0  0  0  0  0  0  0  0  0  0  0  0
    3.3952    2.9059    0.0000 H   0  0  0  0  0  0  0  0  0  0  0  0
    6.3289    2.5975    0.0000 H   0  0  0  0  0  0  0  0  0  0  0  0
    6.4122    3.3902    0.0000 H   0  0  0  0  0  0  0  0  0  0  0  0
    4.6678    4.6576    0.0000 H   0  0  0  0  0  0  0  0  0  0  0  0
    3.9397    4.3334    0.0000 H   0  0  0  0  0  0  0  0  0  0  0  0
    3.2974    1.9760    0.0000 H   0  0  0  0  0  0  0  0  0  0  0  0
    3.2141    1.1833    0.0000 H   0  0  0  0  0  0  0  0  0  0  0  0
    4.5656    0.1705    0.0000 H   0  0  0  0  0  0  0  0  0  0  0  0
    4.6489    0.9632    0.0000 H   0  0  0  0  0  0  0  0  0  0  0  0
    3.1164    0.2534    0.0000 H   0  0  0  0  0  0  0  0  0  0  0  0
    3.0331   -0.5393    0.0000 H   0  0  0  0  0  0  0  0  0  0  0  0
    4.3845   -1.5521    0.0000 H   0  0  0  0  0  0  0  0  0  0  0  0
    4.4678   -0.7594    0.0000 H   0  0  0  0  0  0  0  0  0  0  0  0
    5.0559    5.7444    0.0000 H   0  0  0  0  0  0  0  0  0  0  0  0
    8.2782    5.4058    0.0000 H   0  0  0  0  0  0  0  0  0  0  0  0
    6.0081    7.0550    0.0000 H   0  0  0  0  0  0  0  0  0  0  0  0
    4.2647   -3.0578    0.0000 H   0  0  0  0  0  0  0  0  0  0  0  0
    7.6193    6.8857    0.0000 H   0  0  0  0  0  0  0  0  0  0  0  0
    8.4102    3.0269    0.0000 H   0  0  0  0  0  0  0  0  0  0  0  0
    9.0916    3.5787    0.0000 H   0  0  0  0  0  0  0  0  0  0  0  0
    8.5398    4.2601    0.0000 H   0  0  0  0  0  0  0  0  0  0  0  0
    1.4631   -4.6440    0.0000 H   0  0  0  0  0  0  0  0  0  0  0  0
    1.4631   -6.2640    0.0000 H   0  0  0  0  0  0  0  0  0  0  0  0
    2.8660   -7.0740    0.0000 H   0  0  0  0  0  0  0  0  0  0  0  0
    4.6188   -3.7994    0.0000 H   0  0  0  0  0  0  0  0  0  0  0  0
    4.6188   -7.1086    0.0000 H   0  0  0  0  0  0  0  0  0  0  0  0
    6.0678   -4.6211    0.0000 H   0  0  0  0  0  0  0  0  0  0  0  0
  1 17  1  0  0  0  0
  1 26  1  0  0  0  0
  2  8  1  0  0  0  0
  2  9  1  0  0  0  0
  2 12  1  0  0  0  0
  3 10  1  0  0  0  0
  3 11  1  0  0  0  0
  3 15  1  0  0  0  0
  4  6  1  0  0  0  0
  4 22  1  0  0  0  0
  4 24  1  0  0  0  0
  5  6  2  0  0  0  0
  5 19  1  0  0  0  0
  7 32  2  0  0  0  0
  7 33  1  0  0  0  0
  8 10  1  0  0  0  0
  8 34  1  0  0  0  0
  8 35  1  0  0  0  0
  9 11  1  0  0  0  0
  9 36  1  0  0  0  0
  9 37  1  0  0  0  0
 10 38  1  0  0  0  0
 10 39  1  0  0  0  0
 11 40  1  0  0  0  0
 11 41  1  0  0  0  0
 12 13  1  0  0  0  0
 12 42  1  0  0  0  0
 12 43  1  0  0  0  0
 13 14  1  0  0  0  0
 13 44  1  0  0  0  0
 13 45  1  0  0  0  0
 14 16  1  0  0  0  0
 14 46  1  0  0  0  0
 14 47  1  0  0  0  0
 15 17  1  0  0  0  0
 15 18  2  0  0  0  0
 16 19  1  0  0  0  0
 16 48  1  0  0  0  0
 16 49  1  0  0  0  0
 17 20  2  0  0  0  0
 18 21  1  0  0  0  0
 18 50  1  0  0  0  0
 19 22  2  0  0  0  0
 20 23  1  0  0  0  0
 20 51  1  0  0  0  0
 21 23  2  0  0  0  0
 21 52  1  0  0  0  0
 22 53  1  0  0  0  0
 23 54  1  0  0  0  0
 24 25  1  0  0  0  0
 24 27  2  0  0  0  0
 25 28  2  0  0  0  0
 25 31  1  0  0  0  0
 26 55  1  0  0  0  0
 26 56  1  0  0  0  0
 26 57  1  0  0  0  0
 27 29  1  0  0  0  0
 27 58  1  0  0  0  0
 28 30  1  0  0  0  0
 28 32  1  0  0  0  0
 29 30  2  0  0  0  0
 29 59  1  0  0  0  0
 30 60  1  0  0  0  0
 31 33  2  0  0  0  0
 31 61  1  0  0  0  0
 32 62  1  0  0  0  0
 33 63  1  0  0  0  0
M  END
> <PUBCHEM_COMPOUND_CID>
118719795

> <PUBCHEM_COMPOUND_CANONICALIZED>
1

> <PUBCHEM_CACTVS_COMPLEXITY>
585

> <PUBCHEM_CACTVS_HBOND_ACCEPTOR>
6

> <PUBCHEM_CACTVS_HBOND_DONOR>
0

> <PUBCHEM_CACTVS_ROTATABLE_BOND>
8

> <PUBCHEM_CACTVS_SUBSKEYS>
AAADceB7oAAAAAAAAAAAAAAAAAAAAWAAAAA8eIEAAAAAAACx/AAAHgAIAAAADAzBngY+xtMIFACiAzRnRACCjCQxsiAY2CA/fJgOZuLEsZuVMChkwBHY6AeQwIAOgAAAQAASEAAAAACAACQgAAAAAAAAAA==

> <PUBCHEM_IUPAC_OPENEYE_NAME>
5-[4-[4-[4-(2-methoxyphenyl)piperazin-1-yl]butyl]triazol-1-yl]isoquinoline

> <PUBCHEM_IUPAC_CAS_NAME>
5-[4-[4-[4-(2-methoxyphenyl)-1-piperazinyl]butyl]-1-triazolyl]isoquinoline

> <PUBCHEM_IUPAC_NAME_MARKUP>
5-[4-[4-[4-(2-methoxyphenyl)piperazin-1-yl]butyl]triazol-1-yl]isoquinoline

> <PUBCHEM_IUPAC_NAME>
5-[4-[4-[4-(2-methoxyphenyl)piperazin-1-yl]butyl]triazol-1-yl]isoquinoline

> <PUBCHEM_IUPAC_SYSTEMATIC_NAME>
5-[4-[4-[4-(2-methoxyphenyl)piperazin-1-yl]butyl]-1,2,3-triazol-1-yl]isoquinoline

> <PUBCHEM_IUPAC_TRADITIONAL_NAME>
5-[4-[4-[4-(2-methoxyphenyl)piperazino]butyl]triazol-1-yl]isoquinoline

> <PUBCHEM_IUPAC_INCHI>
InChI=1S/C26H30N6O/c1-33-26-11-3-2-9-25(26)31-17-15-30(16-18-31)14-5-4-8-22-20-32(29-28-22)24-10-6-7-21-19-27-13-12-23(21)24/h2-3,6-7,9-13,19-20H,4-5,8,14-18H2,1H3

> <PUBCHEM_IUPAC_INCHIKEY>
KYEDFGNSKLCWNR-UHFFFAOYSA-N

> <PUBCHEM_XLOGP3_AA>
4.1

> <PUBCHEM_EXACT_MASS>
442.24810960

> <PUBCHEM_MOLECULAR_FORMULA>
C26H30N6O

> <PUBCHEM_MOLECULAR_WEIGHT>
442.6

> <PUBCHEM_OPENEYE_CAN_SMILES>
COC1=CC=CC=C1N2CCN(CC2)CCCCC3=CN(N=N3)C4=CC=CC5=C4C=CN=C5

> <PUBCHEM_OPENEYE_ISO_SMILES>
COC1=CC=CC=C1N2CCN(CC2)CCCCC3=CN(N=N3)C4=CC=CC5=C4C=CN=C5

> <PUBCHEM_CACTVS_TPSA>
59.3

> <PUBCHEM_MONOISOTOPIC_WEIGHT>
442.24810960

> <PUBCHEM_TOTAL_CHARGE>
0

> <PUBCHEM_HEAVY_ATOM_COUNT>
33

> <PUBCHEM_ATOM_DEF_STEREO_COUNT>
0

> <PUBCHEM_ATOM_UDEF_STEREO_COUNT>
0

> <PUBCHEM_BOND_DEF_STEREO_COUNT>
0

> <PUBCHEM_BOND_UDEF_STEREO_COUNT>
0

> <PUBCHEM_ISOTOPIC_ATOM_COUNT>
0

> <PUBCHEM_COMPONENT_COUNT>
1

> <PUBCHEM_CACTVS_TAUTO_COUNT>
-1

> <PUBCHEM_COORDINATE_TYPE>
1
5
255

> <PUBCHEM_BONDANNOTATIONS>
15  17  8
15  18  8
17  20  8
18  21  8
19  22  8
20  23  8
21  23  8
24  25  8
24  27  8
25  28  8
25  31  8
27  29  8
28  30  8
28  32  8
29  30  8
31  33  8
4  22  8
4  6  8
5  19  8
5  6  8
7  32  8
7  33  8

$$$$
