76311289
  -OEChem-09292321592D

 82 85  0     1  0  0  0  0  0999 V2000
   16.7701    1.7484    0.0000 O   0  0  0  0  0  0  0  0  0  0  0  0
   14.9884    0.7380    0.0000 O   0  0  0  0  0  0  0  0  0  0  0  0
    3.7282    0.2814    0.0000 O   0  0  0  0  0  0  0  0  0  0  0  0
   10.6525   -0.7453    0.0000 O   0  0  0  0  0  0  0  0  0  0  0  0
    4.6000    1.7780    0.0000 O   0  0  0  0  0  0  0  0  0  0  0  0
   20.2427   -1.2831    0.0000 N   0  0  3  0  0  0  0  0  0  0  0  0
   11.5243    0.7513    0.0000 N   0  0  0  0  0  0  0  0  0  0  0  0
    5.4602    0.2747    0.0000 N   0  0  0  0  0  0  0  0  0  0  0  0
   19.3845   -0.7862    0.0000 C   0  0  1  0  0  0  0  0  0  0  0  0
   19.3845    0.2138    0.0000 C   0  0  0  0  0  0  0  0  0  0  0  0
   18.5185   -1.2862    0.0000 C   0  0  0  0  0  0  0  0  0  0  0  0
   20.2945    0.7207    0.0000 C   0  0  0  0  0  0  0  0  0  0  0  0
   21.1082   -0.7989    0.0000 C   0  0  0  0  0  0  0  0  0  0  0  0
   21.1338    0.1924    0.0000 C   0  0  0  0  0  0  0  0  0  0  0  0
   18.5185    0.7138    0.0000 C   0  0  0  0  0  0  0  0  0  0  0  0
   17.6525   -0.7862    0.0000 C   0  0  0  0  0  0  0  0  0  0  0  0
   17.6525    0.2138    0.0000 C   0  0  0  0  0  0  0  0  0  0  0  0
   20.2353   -2.2831    0.0000 C   0  0  0  0  0  0  0  0  0  0  0  0
   20.3025    1.7623    0.0000 C   0  0  0  0  0  0  0  0  0  0  0  0
   18.5024    1.7553    0.0000 C   0  0  0  0  0  0  0  0  0  0  0  0
   16.7585    0.7485    0.0000 C   0  0  0  0  0  0  0  0  0  0  0  0
   16.7585   -1.3208    0.0000 C   0  0  0  0  0  0  0  0  0  0  0  0
   19.4005    2.2831    0.0000 C   0  0  0  0  0  0  0  0  0  0  0  0
   15.8524    0.2346    0.0000 C   0  0  0  0  0  0  0  0  0  0  0  0
   15.8524   -0.8070    0.0000 C   0  0  0  0  0  0  0  0  0  0  0  0
   14.1204    0.2413    0.0000 C   0  0  0  0  0  0  0  0  0  0  0  0
   13.2563    0.7446    0.0000 C   0  0  0  0  0  0  0  0  0  0  0  0
   12.3884    0.2480    0.0000 C   0  0  0  0  0  0  0  0  0  0  0  0
    8.0602    0.7647    0.0000 C   0  0  0  0  0  0  0  0  0  0  0  0
    8.9243    0.2613    0.0000 C   0  0  0  0  0  0  0  0  0  0  0  0
    7.1923    0.2680    0.0000 C   0  0  0  0  0  0  0  0  0  0  0  0
    9.7922    0.7580    0.0000 C   0  0  0  0  0  0  0  0  0  0  0  0
   10.6563    0.2547    0.0000 C   0  0  0  0  0  0  0  0  0  0  0  0
    6.3282    0.7714    0.0000 C   0  0  0  0  0  0  0  0  0  0  0  0
    2.8641    0.7847    0.0000 C   0  0  0  0  0  0  0  0  0  0  0  0
    2.0000    1.2880    0.0000 C   0  0  0  0  0  0  0  0  0  0  0  0
    2.3608   -0.0794    0.0000 C   0  0  0  0  0  0  0  0  0  0  0  0
    3.3674    1.6488    0.0000 C   0  0  0  0  0  0  0  0  0  0  0  0
    4.5961    0.7780    0.0000 C   0  0  0  0  0  0  0  0  0  0  0  0
   19.3840   -1.6362    0.0000 H   0  0  0  0  0  0  0  0  0  0  0  0
   18.1200   -1.7611    0.0000 H   0  0  0  0  0  0  0  0  0  0  0  0
   18.9170   -1.7611    0.0000 H   0  0  0  0  0  0  0  0  0  0  0  0
   21.3099   -1.3852    0.0000 H   0  0  0  0  0  0  0  0  0  0  0  0
   21.7210   -0.7046    0.0000 H   0  0  0  0  0  0  0  0  0  0  0  0
   21.7409    0.0665    0.0000 H   0  0  0  0  0  0  0  0  0  0  0  0
   21.3656    0.7675    0.0000 H   0  0  0  0  0  0  0  0  0  0  0  0
   19.6153   -2.2785    0.0000 H   0  0  0  0  0  0  0  0  0  0  0  0
   20.2307   -2.9031    0.0000 H   0  0  0  0  0  0  0  0  0  0  0  0
   20.8553   -2.2877    0.0000 H   0  0  0  0  0  0  0  0  0  0  0  0
   20.8407    2.0702    0.0000 H   0  0  0  0  0  0  0  0  0  0  0  0
   17.9619    2.0591    0.0000 H   0  0  0  0  0  0  0  0  0  0  0  0
   16.7657   -1.9408    0.0000 H   0  0  0  0  0  0  0  0  0  0  0  0
   19.3981    2.9031    0.0000 H   0  0  0  0  0  0  0  0  0  0  0  0
   15.3167   -1.1191    0.0000 H   0  0  0  0  0  0  0  0  0  0  0  0
   16.2368    2.0646    0.0000 H   0  0  0  0  0  0  0  0  0  0  0  0
   13.7201   -0.2321    0.0000 H   0  0  0  0  0  0  0  0  0  0  0  0
   14.5171   -0.2352    0.0000 H   0  0  0  0  0  0  0  0  0  0  0  0
   13.6567    1.2180    0.0000 H   0  0  0  0  0  0  0  0  0  0  0  0
   12.8596    1.2211    0.0000 H   0  0  0  0  0  0  0  0  0  0  0  0
   11.9880   -0.2254    0.0000 H   0  0  0  0  0  0  0  0  0  0  0  0
   12.7851   -0.2285    0.0000 H   0  0  0  0  0  0  0  0  0  0  0  0
    8.4606    1.2381    0.0000 H   0  0  0  0  0  0  0  0  0  0  0  0
    7.6635    1.2412    0.0000 H   0  0  0  0  0  0  0  0  0  0  0  0
    8.5239   -0.2121    0.0000 H   0  0  0  0  0  0  0  0  0  0  0  0
    9.3210   -0.2151    0.0000 H   0  0  0  0  0  0  0  0  0  0  0  0
    6.7919   -0.2054    0.0000 H   0  0  0  0  0  0  0  0  0  0  0  0
    7.5890   -0.2085    0.0000 H   0  0  0  0  0  0  0  0  0  0  0  0
   10.1926    1.2314    0.0000 H   0  0  0  0  0  0  0  0  0  0  0  0
    9.3956    1.2345    0.0000 H   0  0  0  0  0  0  0  0  0  0  0  0
   11.5267    1.3713    0.0000 H   0  0  0  0  0  0  0  0  0  0  0  0
    6.7285    1.2448    0.0000 H   0  0  0  0  0  0  0  0  0  0  0  0
    5.9315    1.2478    0.0000 H   0  0  0  0  0  0  0  0  0  0  0  0
    5.4578   -0.3453    0.0000 H   0  0  0  0  0  0  0  0  0  0  0  0
    2.3121    1.8238    0.0000 H   0  0  0  0  0  0  0  0  0  0  0  0
    1.4643    1.6001    0.0000 H   0  0  0  0  0  0  0  0  0  0  0  0
    1.6879    0.7523    0.0000 H   0  0  0  0  0  0  0  0  0  0  0  0
    1.8250    0.2327    0.0000 H   0  0  0  0  0  0  0  0  0  0  0  0
    2.0487   -0.6151    0.0000 H   0  0  0  0  0  0  0  0  0  0  0  0
    2.8965   -0.3915    0.0000 H   0  0  0  0  0  0  0  0  0  0  0  0
    3.9032    1.3367    0.0000 H   0  0  0  0  0  0  0  0  0  0  0  0
    3.6795    2.1845    0.0000 H   0  0  0  0  0  0  0  0  0  0  0  0
    2.8317    1.9609    0.0000 H   0  0  0  0  0  0  0  0  0  0  0  0
  1 21  1  0  0  0  0
  1 55  1  0  0  0  0
  2 24  1  0  0  0  0
  2 26  1  0  0  0  0
  3 35  1  0  0  0  0
  3 39  1  0  0  0  0
  4 33  2  0  0  0  0
  5 39  2  0  0  0  0
  6  9  1  0  0  0  0
  6 13  1  0  0  0  0
  6 18  1  0  0  0  0
  7 28  1  0  0  0  0
  7 33  1  0  0  0  0
  7 70  1  0  0  0  0
  8 34  1  0  0  0  0
  8 39  1  0  0  0  0
  8 73  1  0  0  0  0
  9 10  1  0  0  0  0
  9 11  1  0  0  0  0
  9 40  1  1  0  0  0
 10 12  2  0  0  0  0
 10 15  1  0  0  0  0
 11 16  1  0  0  0  0
 11 41  1  0  0  0  0
 11 42  1  0  0  0  0
 12 14  1  0  0  0  0
 12 19  1  0  0  0  0
 13 14  1  0  0  0  0
 13 43  1  0  0  0  0
 13 44  1  0  0  0  0
 14 45  1  0  0  0  0
 14 46  1  0  0  0  0
 15 17  1  0  0  0  0
 15 20  2  0  0  0  0
 16 17  2  0  0  0  0
 16 22  1  0  0  0  0
 17 21  1  0  0  0  0
 18 47  1  0  0  0  0
 18 48  1  0  0  0  0
 18 49  1  0  0  0  0
 19 23  2  0  0  0  0
 19 50  1  0  0  0  0
 20 23  1  0  0  0  0
 20 51  1  0  0  0  0
 21 24  2  0  0  0  0
 22 25  2  0  0  0  0
 22 52  1  0  0  0  0
 23 53  1  0  0  0  0
 24 25  1  0  0  0  0
 25 54  1  0  0  0  0
 26 27  1  0  0  0  0
 26 56  1  0  0  0  0
 26 57  1  0  0  0  0
 27 28  1  0  0  0  0
 27 58  1  0  0  0  0
 27 59  1  0  0  0  0
 28 60  1  0  0  0  0
 28 61  1  0  0  0  0
 29 30  1  0  0  0  0
 29 31  1  0  0  0  0
 29 62  1  0  0  0  0
 29 63  1  0  0  0  0
 30 32  1  0  0  0  0
 30 64  1  0  0  0  0
 30 65  1  0  0  0  0
 31 34  1  0  0  0  0
 31 66  1  0  0  0  0
 31 67  1  0  0  0  0
 32 33  1  0  0  0  0
 32 68  1  0  0  0  0
 32 69  1  0  0  0  0
 34 71  1  0  0  0  0
 34 72  1  0  0  0  0
 35 36  1  0  0  0  0
 35 37  1  0  0  0  0
 35 38  1  0  0  0  0
 36 74  1  0  0  0  0
 36 75  1  0  0  0  0
 36 76  1  0  0  0  0
 37 77  1  0  0  0  0
 37 78  1  0  0  0  0
 37 79  1  0  0  0  0
 38 80  1  0  0  0  0
 38 81  1  0  0  0  0
 38 82  1  0  0  0  0
M  END
> <PUBCHEM_COMPOUND_CID>
76311289

> <PUBCHEM_COMPOUND_CANONICALIZED>
1

> <PUBCHEM_CACTVS_COMPLEXITY>
802

> <PUBCHEM_CACTVS_HBOND_ACCEPTOR>
6

> <PUBCHEM_CACTVS_HBOND_DONOR>
3

> <PUBCHEM_CACTVS_ROTATABLE_BOND>
13

> <PUBCHEM_CACTVS_SUBSKEYS>
AAADcfB7OAAAAAAAAAAAAAAAAAAAAAAAAAA8YMEAAAAAAADxQAAAHgAQCAAADGzhmAYyDoPABgCIAiFSGACCCAAgIAAIiIEOjIkNJjKGsRuOeCvm1hGLuAeY2PMOoAADAAAYQADQAAaAADSAAAAAAAAAAA==

> <PUBCHEM_IUPAC_OPENEYE_NAME>
tert-butyl N-[6-[3-[[(6aR)-11-hydroxy-6-methyl-5,6,6a,7-tetrahydro-4H-dibenzo[de,g]quinolin-10-yl]oxy]propylamino]-6-oxo-hexyl]carbamate

> <PUBCHEM_IUPAC_CAS_NAME>
N-[6-[3-[[(6aR)-11-hydroxy-6-methyl-5,6,6a,7-tetrahydro-4H-dibenzo[de,g]quinolin-10-yl]oxy]propylamino]-6-oxohexyl]carbamic acid tert-butyl ester

> <PUBCHEM_IUPAC_NAME_MARKUP>
<I>tert</I>-butyl <I>N</I>-[6-[3-[[(6<I>a</I><I>R</I>)-11-hydroxy-6-methyl-5,6,6<I>a</I>,7-tetrahydro-4<I>H</I>-dibenzo[de,g]quinolin-10-yl]oxy]propylamino]-6-oxohexyl]carbamate

> <PUBCHEM_IUPAC_NAME>
tert-butyl N-[6-[3-[[(6aR)-11-hydroxy-6-methyl-5,6,6a,7-tetrahydro-4H-dibenzo[de,g]quinolin-10-yl]oxy]propylamino]-6-oxohexyl]carbamate

> <PUBCHEM_IUPAC_SYSTEMATIC_NAME>
tert-butyl N-[6-[3-[[(6aR)-6-methyl-11-oxidanyl-5,6,6a,7-tetrahydro-4H-dibenzo[de,g]quinolin-10-yl]oxy]propylamino]-6-oxidanylidene-hexyl]carbamate

> <PUBCHEM_IUPAC_TRADITIONAL_NAME>
N-[6-[3-[[(6aR)-11-hydroxy-6-methyl-5,6,6a,7-tetrahydro-4H-dibenzo[de,g]quinolin-10-yl]oxy]propylamino]-6-keto-hexyl]carbamic acid tert-butyl ester

> <PUBCHEM_IUPAC_INCHI>
InChI=1S/C31H43N3O5/c1-31(2,3)39-30(37)33-16-7-5-6-12-26(35)32-17-9-19-38-25-14-13-22-20-24-27-21(15-18-34(24)4)10-8-11-23(27)28(22)29(25)36/h8,10-11,13-14,24,36H,5-7,9,12,15-20H2,1-4H3,(H,32,35)(H,33,37)/t24-/m1/s1

> <PUBCHEM_IUPAC_INCHIKEY>
QYSHFCPJVHYHPL-XMMPIXPASA-N

> <PUBCHEM_XLOGP3>
4

> <PUBCHEM_EXACT_MASS>
537.32027148

> <PUBCHEM_MOLECULAR_FORMULA>
C31H43N3O5

> <PUBCHEM_MOLECULAR_WEIGHT>
537.7

> <PUBCHEM_OPENEYE_CAN_SMILES>
CC(C)(C)OC(=O)NCCCCCC(=O)NCCCOC1=C(C2=C(CC3C4=C(CCN3C)C=CC=C42)C=C1)O

> <PUBCHEM_OPENEYE_ISO_SMILES>
CC(C)(C)OC(=O)NCCCCCC(=O)NCCCOC1=C(C2=C(C[C@@H]3C4=C(CCN3C)C=CC=C42)C=C1)O

> <PUBCHEM_CACTVS_TPSA>
100

> <PUBCHEM_MONOISOTOPIC_WEIGHT>
537.32027148

> <PUBCHEM_TOTAL_CHARGE>
0

> <PUBCHEM_HEAVY_ATOM_COUNT>
39

> <PUBCHEM_ATOM_DEF_STEREO_COUNT>
1

> <PUBCHEM_ATOM_UDEF_STEREO_COUNT>
0

> <PUBCHEM_BOND_DEF_STEREO_COUNT>
0

> <PUBCHEM_BOND_UDEF_STEREO_COUNT>
0

> <PUBCHEM_ISOTOPIC_ATOM_COUNT>
0

> <PUBCHEM_COMPONENT_COUNT>
1

> <PUBCHEM_CACTVS_TAUTO_COUNT>
-1

> <PUBCHEM_COORDINATE_TYPE>
1
5
255

> <PUBCHEM_BONDANNOTATIONS>
10  12  8
10  15  8
12  19  8
15  20  8
16  17  8
16  22  8
17  21  8
19  23  8
20  23  8
21  24  8
22  25  8
24  25  8
9  40  5

$$$$
