122181327
  -OEChem-09292322362D

 58 60  0     0  0  0  0  0  0999 V2000
    9.7942    6.5000    0.0000 F   0  0  0  0  0  0  0  0  0  0  0  0
    8.0622    7.5000    0.0000 F   0  0  0  0  0  0  0  0  0  0  0  0
    2.8660   -5.5000    0.0000 O   0  0  0  0  0  0  0  0  0  0  0  0
    8.0622    1.5000    0.0000 O   0  0  0  0  0  0  0  0  0  0  0  0
    4.5981   -2.5000    0.0000 N   0  0  0  0  0  0  0  0  0  0  0  0
    4.5981   -4.5000    0.0000 N   0  0  0  0  0  0  0  0  0  0  0  0
    6.3301    1.5000    0.0000 N   0  0  0  0  0  0  0  0  0  0  0  0
    7.1962    3.0000    0.0000 N   0  0  0  0  0  0  0  0  0  0  0  0
    8.0622    3.5000    0.0000 N   0  0  0  0  0  0  0  0  0  0  0  0
    5.4641   -3.0000    0.0000 C   0  0  0  0  0  0  0  0  0  0  0  0
    3.7320   -3.0000    0.0000 C   0  0  0  0  0  0  0  0  0  0  0  0
    5.4641   -4.0000    0.0000 C   0  0  0  0  0  0  0  0  0  0  0  0
    3.7320   -4.0000    0.0000 C   0  0  0  0  0  0  0  0  0  0  0  0
    4.5981   -1.5000    0.0000 C   0  0  0  0  0  0  0  0  0  0  0  0
    5.4641   -1.0000    0.0000 C   0  0  0  0  0  0  0  0  0  0  0  0
    4.5981   -5.5000    0.0000 C   0  0  0  0  0  0  0  0  0  0  0  0
    5.4641   -0.0000    0.0000 C   0  0  0  0  0  0  0  0  0  0  0  0
    6.3301    0.5000    0.0000 C   0  0  0  0  0  0  0  0  0  0  0  0
    3.7320   -6.0000    0.0000 C   0  0  0  0  0  0  0  0  0  0  0  0
    5.4641   -6.0000    0.0000 C   0  0  0  0  0  0  0  0  0  0  0  0
    3.7320   -7.0000    0.0000 C   0  0  0  0  0  0  0  0  0  0  0  0
    5.4641   -7.0000    0.0000 C   0  0  0  0  0  0  0  0  0  0  0  0
    4.5981   -7.5000    0.0000 C   0  0  0  0  0  0  0  0  0  0  0  0
    7.1962    2.0000    0.0000 C   0  0  0  0  0  0  0  0  0  0  0  0
    2.0000   -6.0000    0.0000 C   0  0  0  0  0  0  0  0  0  0  0  0
    8.0622    4.5000    0.0000 C   0  0  0  0  0  0  0  0  0  0  0  0
    8.9282    5.0000    0.0000 C   0  0  0  0  0  0  0  0  0  0  0  0
    7.1962    5.0000    0.0000 C   0  0  0  0  0  0  0  0  0  0  0  0
    8.9282    6.0000    0.0000 C   0  0  0  0  0  0  0  0  0  0  0  0
    7.1962    6.0000    0.0000 C   0  0  0  0  0  0  0  0  0  0  0  0
    8.0622    6.5000    0.0000 C   0  0  0  0  0  0  0  0  0  0  0  0
    6.0747   -3.1077    0.0000 H   0  0  0  0  0  0  0  0  0  0  0  0
    5.6762   -2.4174    0.0000 H   0  0  0  0  0  0  0  0  0  0  0  0
    3.5200   -2.4174    0.0000 H   0  0  0  0  0  0  0  0  0  0  0  0
    3.1215   -3.1077    0.0000 H   0  0  0  0  0  0  0  0  0  0  0  0
    5.6762   -4.5826    0.0000 H   0  0  0  0  0  0  0  0  0  0  0  0
    6.0747   -3.8923    0.0000 H   0  0  0  0  0  0  0  0  0  0  0  0
    3.1215   -3.8923    0.0000 H   0  0  0  0  0  0  0  0  0  0  0  0
    3.5200   -4.5826    0.0000 H   0  0  0  0  0  0  0  0  0  0  0  0
    4.3860   -0.9174    0.0000 H   0  0  0  0  0  0  0  0  0  0  0  0
    3.9875   -1.6077    0.0000 H   0  0  0  0  0  0  0  0  0  0  0  0
    5.6762   -1.5826    0.0000 H   0  0  0  0  0  0  0  0  0  0  0  0
    6.0747   -0.8923    0.0000 H   0  0  0  0  0  0  0  0  0  0  0  0
    5.2520    0.5826    0.0000 H   0  0  0  0  0  0  0  0  0  0  0  0
    4.8535   -0.1077    0.0000 H   0  0  0  0  0  0  0  0  0  0  0  0
    6.5422   -0.0826    0.0000 H   0  0  0  0  0  0  0  0  0  0  0  0
    6.9407    0.6077    0.0000 H   0  0  0  0  0  0  0  0  0  0  0  0
    6.0010   -5.6900    0.0000 H   0  0  0  0  0  0  0  0  0  0  0  0
    3.1951   -7.3100    0.0000 H   0  0  0  0  0  0  0  0  0  0  0  0
    6.0010   -7.3100    0.0000 H   0  0  0  0  0  0  0  0  0  0  0  0
    5.7932    1.8100    0.0000 H   0  0  0  0  0  0  0  0  0  0  0  0
    4.5981   -8.1200    0.0000 H   0  0  0  0  0  0  0  0  0  0  0  0
    1.6900   -5.4631    0.0000 H   0  0  0  0  0  0  0  0  0  0  0  0
    1.4631   -6.3100    0.0000 H   0  0  0  0  0  0  0  0  0  0  0  0
    2.3100   -6.5369    0.0000 H   0  0  0  0  0  0  0  0  0  0  0  0
    9.4651    4.6900    0.0000 H   0  0  0  0  0  0  0  0  0  0  0  0
    6.6592    4.6900    0.0000 H   0  0  0  0  0  0  0  0  0  0  0  0
    6.6592    6.3100    0.0000 H   0  0  0  0  0  0  0  0  0  0  0  0
  1 29  1  0  0  0  0
  2 31  1  0  0  0  0
  3 19  1  0  0  0  0
  3 25  1  0  0  0  0
  4 24  2  0  0  0  0
  5 10  1  0  0  0  0
  5 11  1  0  0  0  0
  5 14  1  0  0  0  0
  6 12  1  0  0  0  0
  6 13  1  0  0  0  0
  6 16  1  0  0  0  0
  7 18  1  0  0  0  0
  7 24  1  0  0  0  0
  7 51  1  0  0  0  0
  8  9  2  0  0  0  0
  8 24  1  0  0  0  0
  9 26  1  0  0  0  0
 10 12  1  0  0  0  0
 10 32  1  0  0  0  0
 10 33  1  0  0  0  0
 11 13  1  0  0  0  0
 11 34  1  0  0  0  0
 11 35  1  0  0  0  0
 12 36  1  0  0  0  0
 12 37  1  0  0  0  0
 13 38  1  0  0  0  0
 13 39  1  0  0  0  0
 14 15  1  0  0  0  0
 14 40  1  0  0  0  0
 14 41  1  0  0  0  0
 15 17  1  0  0  0  0
 15 42  1  0  0  0  0
 15 43  1  0  0  0  0
 16 19  1  0  0  0  0
 16 20  2  0  0  0  0
 17 18  1  0  0  0  0
 17 44  1  0  0  0  0
 17 45  1  0  0  0  0
 18 46  1  0  0  0  0
 18 47  1  0  0  0  0
 19 21  2  0  0  0  0
 20 22  1  0  0  0  0
 20 48  1  0  0  0  0
 21 23  1  0  0  0  0
 21 49  1  0  0  0  0
 22 23  2  0  0  0  0
 22 50  1  0  0  0  0
 23 52  1  0  0  0  0
 25 53  1  0  0  0  0
 25 54  1  0  0  0  0
 25 55  1  0  0  0  0
 26 27  2  0  0  0  0
 26 28  1  0  0  0  0
 27 29  1  0  0  0  0
 27 56  1  0  0  0  0
 28 30  2  0  0  0  0
 28 57  1  0  0  0  0
 29 31  2  0  0  0  0
 30 31  1  0  0  0  0
 30 58  1  0  0  0  0
M  END
> <PUBCHEM_COMPOUND_CID>
122181327

> <PUBCHEM_COMPOUND_CANONICALIZED>
1

> <PUBCHEM_CACTVS_COMPLEXITY>
574

> <PUBCHEM_CACTVS_HBOND_ACCEPTOR>
7

> <PUBCHEM_CACTVS_HBOND_DONOR>
1

> <PUBCHEM_CACTVS_ROTATABLE_BOND>
8

> <PUBCHEM_CACTVS_SUBSKEYS>
AAADceB7sYAAAAAAAAAAAAAAAAAAAAAAAAA8YIAAAAAAAAABQAAAHwAYAAAACAzBkA4zxoPABACKACRCUACCCAAhIgAIiIAPbIiOZiLEsZuVMChk1hPY6AeQQAAAAAAAAAAAEAAAAAAAAAAgAAAAAAAAAA==

> <PUBCHEM_IUPAC_OPENEYE_NAME>
1-(3,4-difluorophenyl)imino-3-[4-[4-(2-methoxyphenyl)piperazin-1-yl]butyl]urea

> <PUBCHEM_IUPAC_CAS_NAME>
1-(3,4-difluorophenyl)imino-3-[4-[4-(2-methoxyphenyl)-1-piperazinyl]butyl]urea

> <PUBCHEM_IUPAC_NAME_MARKUP>
1-(3,4-difluorophenyl)imino-3-[4-[4-(2-methoxyphenyl)piperazin-1-yl]butyl]urea

> <PUBCHEM_IUPAC_NAME>
1-(3,4-difluorophenyl)imino-3-[4-[4-(2-methoxyphenyl)piperazin-1-yl]butyl]urea

> <PUBCHEM_IUPAC_SYSTEMATIC_NAME>
1-[3,4-bis(fluoranyl)phenyl]imino-3-[4-[4-(2-methoxyphenyl)piperazin-1-yl]butyl]urea

> <PUBCHEM_IUPAC_TRADITIONAL_NAME>
1-(3,4-difluorophenyl)imino-3-[4-[4-(2-methoxyphenyl)piperazino]butyl]urea

> <PUBCHEM_IUPAC_INCHI>
InChI=1S/C22H27F2N5O2/c1-31-21-7-3-2-6-20(21)29-14-12-28(13-15-29)11-5-4-10-25-22(30)27-26-17-8-9-18(23)19(24)16-17/h2-3,6-9,16H,4-5,10-15H2,1H3,(H,25,30)

> <PUBCHEM_IUPAC_INCHIKEY>
NPWPDDLAKMBGPN-UHFFFAOYSA-N

> <PUBCHEM_XLOGP3_AA>
4.3

> <PUBCHEM_EXACT_MASS>
431.21328145

> <PUBCHEM_MOLECULAR_FORMULA>
C22H27F2N5O2

> <PUBCHEM_MOLECULAR_WEIGHT>
431.5

> <PUBCHEM_OPENEYE_CAN_SMILES>
COC1=CC=CC=C1N2CCN(CC2)CCCCNC(=O)N=NC3=CC(=C(C=C3)F)F

> <PUBCHEM_OPENEYE_ISO_SMILES>
COC1=CC=CC=C1N2CCN(CC2)CCCCNC(=O)N=NC3=CC(=C(C=C3)F)F

> <PUBCHEM_CACTVS_TPSA>
69.5

> <PUBCHEM_MONOISOTOPIC_WEIGHT>
431.21328145

> <PUBCHEM_TOTAL_CHARGE>
0

> <PUBCHEM_HEAVY_ATOM_COUNT>
31

> <PUBCHEM_ATOM_DEF_STEREO_COUNT>
0

> <PUBCHEM_ATOM_UDEF_STEREO_COUNT>
0

> <PUBCHEM_BOND_DEF_STEREO_COUNT>
0

> <PUBCHEM_BOND_UDEF_STEREO_COUNT>
0

> <PUBCHEM_ISOTOPIC_ATOM_COUNT>
0

> <PUBCHEM_COMPONENT_COUNT>
1

> <PUBCHEM_CACTVS_TAUTO_COUNT>
-1

> <PUBCHEM_COORDINATE_TYPE>
1
5
255

> <PUBCHEM_BONDANNOTATIONS>
16  19  8
16  20  8
19  21  8
20  22  8
21  23  8
22  23  8
26  27  8
26  28  8
27  29  8
28  30  8
29  31  8
30  31  8

$$$$
