53475319
  -OEChem-09292322412D

 68 72  0     1  0  0  0  0  0999 V2000
    3.7598   -1.1256    0.0000 S   0  0  0  0  0  0  0  0  0  0  0  0
    9.5129   -0.7961    0.0000 O   0  0  0  0  0  0  0  0  0  0  0  0
   12.7285   -0.1230    0.0000 O   0  0  0  0  0  0  0  0  0  0  0  0
    7.1328   -0.0196    0.0000 N   0  0  3  0  0  0  0  0  0  0  0  0
   11.8625    1.3770    0.0000 N   0  0  0  0  0  0  0  0  0  0  0  0
    4.1763   -2.6802    0.0000 N   0  0  0  0  0  0  0  0  0  0  0  0
    2.4384   -2.3127    0.0000 N   0  0  0  0  0  0  0  0  0  0  0  0
    9.7717    0.1698    0.0000 C   0  0  0  0  0  0  0  0  0  0  0  0
   10.7376   -0.0890    0.0000 C   0  0  0  0  0  0  0  0  0  0  0  0
   10.0305    1.1358    0.0000 C   0  0  0  0  0  0  0  0  0  0  0  0
   10.9965    0.8770    0.0000 C   0  0  0  0  0  0  0  0  0  0  0  0
    8.8058    0.4287    0.0000 C   0  0  0  0  0  0  0  0  0  0  0  0
    8.0987   -0.2784    0.0000 C   0  0  0  0  0  0  0  0  0  0  0  0
    6.4257   -0.7267    0.0000 C   0  0  1  0  0  0  0  0  0  0  0  0
    6.6845   -1.6926    0.0000 C   0  0  0  0  0  0  0  0  0  0  0  0
    5.4597   -0.4679    0.0000 C   0  0  0  0  0  0  0  0  0  0  0  0
    6.8739    0.9463    0.0000 C   0  0  0  0  0  0  0  0  0  0  0  0
    5.9774   -2.3998    0.0000 C   0  0  0  0  0  0  0  0  0  0  0  0
   12.7285    0.8770    0.0000 C   0  0  0  0  0  0  0  0  0  0  0  0
    4.7526   -1.1750    0.0000 C   0  0  0  0  0  0  0  0  0  0  0  0
    5.0114   -2.1409    0.0000 C   0  0  0  0  0  0  0  0  0  0  0  0
    5.9080    1.2051    0.0000 C   0  0  0  0  0  0  0  0  0  0  0  0
   13.5945    1.3770    0.0000 C   0  0  0  0  0  0  0  0  0  0  0  0
    5.6492    2.1710    0.0000 C   0  0  0  0  0  0  0  0  0  0  0  0
    3.4043   -2.0539    0.0000 C   0  0  0  0  0  0  0  0  0  0  0  0
   14.4606    0.8770    0.0000 C   0  0  0  0  0  0  0  0  0  0  0  0
   13.5945    2.3770    0.0000 C   0  0  0  0  0  0  0  0  0  0  0  0
   15.3266    1.3770    0.0000 C   0  0  0  0  0  0  0  0  0  0  0  0
   14.4606    2.8770    0.0000 C   0  0  0  0  0  0  0  0  0  0  0  0
   15.3266    2.3770    0.0000 C   0  0  0  0  0  0  0  0  0  0  0  0
   16.2205    0.8423    0.0000 C   0  0  0  0  0  0  0  0  0  0  0  0
   16.2205    2.9116    0.0000 C   0  0  0  0  0  0  0  0  0  0  0  0
   17.1266    1.3561    0.0000 C   0  0  0  0  0  0  0  0  0  0  0  0
   17.1266    2.3978    0.0000 C   0  0  0  0  0  0  0  0  0  0  0  0
   10.5772   -0.6878    0.0000 H   0  0  0  0  0  0  0  0  0  0  0  0
   11.3365   -0.2494    0.0000 H   0  0  0  0  0  0  0  0  0  0  0  0
   10.1910    1.7346    0.0000 H   0  0  0  0  0  0  0  0  0  0  0  0
    9.4317    1.2962    0.0000 H   0  0  0  0  0  0  0  0  0  0  0  0
   11.4883    0.4995    0.0000 H   0  0  0  0  0  0  0  0  0  0  0  0
    9.0678    0.9906    0.0000 H   0  0  0  0  0  0  0  0  0  0  0  0
    8.2979    0.7843    0.0000 H   0  0  0  0  0  0  0  0  0  0  0  0
    7.8367   -0.8403    0.0000 H   0  0  0  0  0  0  0  0  0  0  0  0
    8.6066   -0.6341    0.0000 H   0  0  0  0  0  0  0  0  0  0  0  0
    7.0245   -0.8872    0.0000 H   0  0  0  0  0  0  0  0  0  0  0  0
   11.8625    1.9970    0.0000 H   0  0  0  0  0  0  0  0  0  0  0  0
    9.9513   -1.2345    0.0000 H   0  0  0  0  0  0  0  0  0  0  0  0
    7.0401   -2.2005    0.0000 H   0  0  0  0  0  0  0  0  0  0  0  0
    7.2464   -1.4306    0.0000 H   0  0  0  0  0  0  0  0  0  0  0  0
    5.7218    0.0940    0.0000 H   0  0  0  0  0  0  0  0  0  0  0  0
    4.9519   -0.1123    0.0000 H   0  0  0  0  0  0  0  0  0  0  0  0
    7.4916    1.0003    0.0000 H   0  0  0  0  0  0  0  0  0  0  0  0
    6.9280    1.5640    0.0000 H   0  0  0  0  0  0  0  0  0  0  0  0
    5.7154   -2.9617    0.0000 H   0  0  0  0  0  0  0  0  0  0  0  0
    6.4852   -2.7554    0.0000 H   0  0  0  0  0  0  0  0  0  0  0  0
    5.2904    1.1511    0.0000 H   0  0  0  0  0  0  0  0  0  0  0  0
    5.8540    0.5875    0.0000 H   0  0  0  0  0  0  0  0  0  0  0  0
    6.2481    2.3315    0.0000 H   0  0  0  0  0  0  0  0  0  0  0  0
    5.4887    2.7699    0.0000 H   0  0  0  0  0  0  0  0  0  0  0  0
    5.0503    2.0106    0.0000 H   0  0  0  0  0  0  0  0  0  0  0  0
   14.4606    0.2570    0.0000 H   0  0  0  0  0  0  0  0  0  0  0  0
   13.0576    2.6870    0.0000 H   0  0  0  0  0  0  0  0  0  0  0  0
    2.2779   -2.9116    0.0000 H   0  0  0  0  0  0  0  0  0  0  0  0
    2.0000   -1.8743    0.0000 H   0  0  0  0  0  0  0  0  0  0  0  0
   14.4606    3.4970    0.0000 H   0  0  0  0  0  0  0  0  0  0  0  0
   16.2134    0.2223    0.0000 H   0  0  0  0  0  0  0  0  0  0  0  0
   16.2134    3.5316    0.0000 H   0  0  0  0  0  0  0  0  0  0  0  0
   17.6623    1.0441    0.0000 H   0  0  0  0  0  0  0  0  0  0  0  0
   17.6623    2.7098    0.0000 H   0  0  0  0  0  0  0  0  0  0  0  0
  1 20  1  0  0  0  0
  1 25  1  0  0  0  0
  2  8  1  0  0  0  0
  2 46  1  0  0  0  0
  3 19  2  0  0  0  0
  4 13  1  0  0  0  0
 14  4  1  1  0  0  0
  4 17  1  0  0  0  0
  5 11  1  0  0  0  0
  5 19  1  0  0  0  0
  5 45  1  0  0  0  0
  6 21  1  0  0  0  0
  6 25  2  0  0  0  0
  7 25  1  0  0  0  0
  7 62  1  0  0  0  0
  7 63  1  0  0  0  0
  8  9  1  0  0  0  0
  8 10  1  0  0  0  0
  8 12  1  0  0  0  0
  9 11  1  0  0  0  0
  9 35  1  0  0  0  0
  9 36  1  0  0  0  0
 10 11  1  0  0  0  0
 10 37  1  0  0  0  0
 10 38  1  0  0  0  0
 11 39  1  0  0  0  0
 12 13  1  0  0  0  0
 12 40  1  0  0  0  0
 12 41  1  0  0  0  0
 13 42  1  0  0  0  0
 13 43  1  0  0  0  0
 14 15  1  0  0  0  0
 14 16  1  0  0  0  0
 14 44  1  0  0  0  0
 15 18  1  0  0  0  0
 15 47  1  0  0  0  0
 15 48  1  0  0  0  0
 16 20  1  0  0  0  0
 16 49  1  0  0  0  0
 16 50  1  0  0  0  0
 17 22  1  0  0  0  0
 17 51  1  0  0  0  0
 17 52  1  0  0  0  0
 18 21  1  0  0  0  0
 18 53  1  0  0  0  0
 18 54  1  0  0  0  0
 19 23  1  0  0  0  0
 20 21  2  0  0  0  0
 22 24  1  0  0  0  0
 22 55  1  0  0  0  0
 22 56  1  0  0  0  0
 23 26  2  0  0  0  0
 23 27  1  0  0  0  0
 24 57  1  0  0  0  0
 24 58  1  0  0  0  0
 24 59  1  0  0  0  0
 26 28  1  0  0  0  0
 26 60  1  0  0  0  0
 27 29  2  0  0  0  0
 27 61  1  0  0  0  0
 28 30  1  0  0  0  0
 28 31  2  0  0  0  0
 29 30  1  0  0  0  0
 29 64  1  0  0  0  0
 30 32  2  0  0  0  0
 31 33  1  0  0  0  0
 31 65  1  0  0  0  0
 32 34  1  0  0  0  0
 32 66  1  0  0  0  0
 33 34  2  0  0  0  0
 33 67  1  0  0  0  0
 34 68  1  0  0  0  0
M  END
> <PUBCHEM_COMPOUND_CID>
53475319

> <PUBCHEM_COMPOUND_CANONICALIZED>
1

> <PUBCHEM_CACTVS_COMPLEXITY>
702

> <PUBCHEM_CACTVS_HBOND_ACCEPTOR>
6

> <PUBCHEM_CACTVS_HBOND_DONOR>
3

> <PUBCHEM_CACTVS_ROTATABLE_BOND>
8

> <PUBCHEM_CACTVS_SUBSKEYS>
AAADcfB7sABAAAAAAAAAAAAAAABgAWAAAAAwYMAAAAAAAFjB1AAAHgQQCAAADGzB3gQzkdPIEgisAyVydACC8KllCDkImJU4RMiIIDLglRGEYQhmlgLIyacYiMCOwAACAAAQAACAAQQAQCACAAAAAAAAAA==

> <PUBCHEM_IUPAC_OPENEYE_NAME>
N-[3-[2-[[(6S)-2-amino-4,5,6,7-tetrahydro-1,3-benzothiazol-6-yl]-propyl-amino]ethyl]-3-hydroxy-cyclobutyl]naphthalene-2-carboxamide

> <PUBCHEM_IUPAC_CAS_NAME>
N-[3-[2-[[(6S)-2-amino-4,5,6,7-tetrahydro-1,3-benzothiazol-6-yl]-propylamino]ethyl]-3-hydroxycyclobutyl]-2-naphthalenecarboxamide

> <PUBCHEM_IUPAC_NAME_MARKUP>
<I>N</I>-[3-[2-[[(6<I>S</I>)-2-amino-4,5,6,7-tetrahydro-1,3-benzothiazol-6-yl]-propylamino]ethyl]-3-hydroxycyclobutyl]naphthalene-2-carboxamide

> <PUBCHEM_IUPAC_NAME>
N-[3-[2-[[(6S)-2-amino-4,5,6,7-tetrahydro-1,3-benzothiazol-6-yl]-propylamino]ethyl]-3-hydroxycyclobutyl]naphthalene-2-carboxamide

> <PUBCHEM_IUPAC_SYSTEMATIC_NAME>
N-[3-[2-[[(6S)-2-azanyl-4,5,6,7-tetrahydro-1,3-benzothiazol-6-yl]-propyl-amino]ethyl]-3-oxidanyl-cyclobutyl]naphthalene-2-carboxamide

> <PUBCHEM_IUPAC_TRADITIONAL_NAME>
N-[3-[2-[[(6S)-2-amino-4,5,6,7-tetrahydro-1,3-benzothiazol-6-yl]-propyl-amino]ethyl]-3-hydroxy-cyclobutyl]-2-naphthamide

> <PUBCHEM_IUPAC_INCHI>
InChI=1S/C27H34N4O2S/c1-2-12-31(22-9-10-23-24(15-22)34-26(28)30-23)13-11-27(33)16-21(17-27)29-25(32)20-8-7-18-5-3-4-6-19(18)14-20/h3-8,14,21-22,33H,2,9-13,15-17H2,1H3,(H2,28,30)(H,29,32)/t21?,22-,27?/m0/s1

> <PUBCHEM_IUPAC_INCHIKEY>
QXYZJXCNTMMWEO-ZVOVCPRUSA-N

> <PUBCHEM_XLOGP3_AA>
4.7

> <PUBCHEM_EXACT_MASS>
478.24024751

> <PUBCHEM_MOLECULAR_FORMULA>
C27H34N4O2S

> <PUBCHEM_MOLECULAR_WEIGHT>
478.7

> <PUBCHEM_OPENEYE_CAN_SMILES>
CCCN(CCC1(CC(C1)NC(=O)C2=CC3=CC=CC=C3C=C2)O)C4CCC5=C(C4)SC(=N5)N

> <PUBCHEM_OPENEYE_ISO_SMILES>
CCCN(CCC1(CC(C1)NC(=O)C2=CC3=CC=CC=C3C=C2)O)[C@H]4CCC5=C(C4)SC(=N5)N

> <PUBCHEM_CACTVS_TPSA>
120

> <PUBCHEM_MONOISOTOPIC_WEIGHT>
478.24024751

> <PUBCHEM_TOTAL_CHARGE>
0

> <PUBCHEM_HEAVY_ATOM_COUNT>
34

> <PUBCHEM_ATOM_DEF_STEREO_COUNT>
1

> <PUBCHEM_ATOM_UDEF_STEREO_COUNT>
0

> <PUBCHEM_BOND_DEF_STEREO_COUNT>
0

> <PUBCHEM_BOND_UDEF_STEREO_COUNT>
0

> <PUBCHEM_ISOTOPIC_ATOM_COUNT>
0

> <PUBCHEM_COMPONENT_COUNT>
1

> <PUBCHEM_CACTVS_TAUTO_COUNT>
-1

> <PUBCHEM_COORDINATE_TYPE>
1
5
255

> <PUBCHEM_BONDANNOTATIONS>
1  20  8
1  25  8
20  21  8
23  26  8
23  27  8
26  28  8
27  29  8
28  30  8
28  31  8
29  30  8
30  32  8
31  33  8
32  34  8
33  34  8
14  4  5
6  21  8
6  25  8

$$$$
