10851217
  -OEChem-09292322032D

 46 49  0     1  0  0  0  0  0999 V2000
    2.8660   -0.1830    0.0000 N   0  0  0  0  0  0  0  0  0  0  0  0
    2.8660   -2.1830    0.0000 N   0  0  0  0  0  0  0  0  0  0  0  0
    3.7320    1.3170    0.0000 C   0  0  2  0  0  0  0  0  0  0  0  0
    4.2320    2.1830    0.0000 C   0  0  2  0  0  0  0  0  0  0  0  0
    4.7320    1.3170    0.0000 C   0  0  0  0  0  0  0  0  0  0  0  0
    2.8660    0.8170    0.0000 C   0  0  0  0  0  0  0  0  0  0  0  0
    4.2320    3.1830    0.0000 C   0  0  0  0  0  0  0  0  0  0  0  0
    3.7320   -0.6830    0.0000 C   0  0  0  0  0  0  0  0  0  0  0  0
    2.0000   -0.6830    0.0000 C   0  0  0  0  0  0  0  0  0  0  0  0
    3.7320   -1.6830    0.0000 C   0  0  0  0  0  0  0  0  0  0  0  0
    2.0000   -1.6830    0.0000 C   0  0  0  0  0  0  0  0  0  0  0  0
    5.0981    3.6830    0.0000 C   0  0  0  0  0  0  0  0  0  0  0  0
    3.3660    3.6830    0.0000 C   0  0  0  0  0  0  0  0  0  0  0  0
    5.0981    4.6830    0.0000 C   0  0  0  0  0  0  0  0  0  0  0  0
    3.3660    4.6830    0.0000 C   0  0  0  0  0  0  0  0  0  0  0  0
    2.8660   -3.1830    0.0000 C   0  0  0  0  0  0  0  0  0  0  0  0
    4.2320    5.1830    0.0000 C   0  0  0  0  0  0  0  0  0  0  0  0
    2.0000   -3.6830    0.0000 C   0  0  0  0  0  0  0  0  0  0  0  0
    3.7320   -3.6830    0.0000 C   0  0  0  0  0  0  0  0  0  0  0  0
    2.0000   -4.6830    0.0000 C   0  0  0  0  0  0  0  0  0  0  0  0
    3.7320   -4.6830    0.0000 C   0  0  0  0  0  0  0  0  0  0  0  0
    2.8660   -5.1830    0.0000 C   0  0  0  0  0  0  0  0  0  0  0  0
    3.8925    0.7181    0.0000 H   0  0  0  0  0  0  0  0  0  0  0  0
    4.8309    2.3435    0.0000 H   0  0  0  0  0  0  0  0  0  0  0  0
    4.8397    0.7064    0.0000 H   0  0  0  0  0  0  0  0  0  0  0  0
    5.3147    1.5290    0.0000 H   0  0  0  0  0  0  0  0  0  0  0  0
    2.6540    1.3996    0.0000 H   0  0  0  0  0  0  0  0  0  0  0  0
    2.2554    0.7093    0.0000 H   0  0  0  0  0  0  0  0  0  0  0  0
    4.3426   -0.7907    0.0000 H   0  0  0  0  0  0  0  0  0  0  0  0
    3.9441   -0.1004    0.0000 H   0  0  0  0  0  0  0  0  0  0  0  0
    1.7880   -0.1004    0.0000 H   0  0  0  0  0  0  0  0  0  0  0  0
    1.3894   -0.7907    0.0000 H   0  0  0  0  0  0  0  0  0  0  0  0
    3.9441   -2.2656    0.0000 H   0  0  0  0  0  0  0  0  0  0  0  0
    4.3426   -1.5754    0.0000 H   0  0  0  0  0  0  0  0  0  0  0  0
    1.3894   -1.5754    0.0000 H   0  0  0  0  0  0  0  0  0  0  0  0
    1.7880   -2.2656    0.0000 H   0  0  0  0  0  0  0  0  0  0  0  0
    5.6350    3.3730    0.0000 H   0  0  0  0  0  0  0  0  0  0  0  0
    2.8291    3.3730    0.0000 H   0  0  0  0  0  0  0  0  0  0  0  0
    5.6350    4.9930    0.0000 H   0  0  0  0  0  0  0  0  0  0  0  0
    2.8291    4.9930    0.0000 H   0  0  0  0  0  0  0  0  0  0  0  0
    4.2320    5.8030    0.0000 H   0  0  0  0  0  0  0  0  0  0  0  0
    1.4631   -3.3730    0.0000 H   0  0  0  0  0  0  0  0  0  0  0  0
    4.2690   -3.3730    0.0000 H   0  0  0  0  0  0  0  0  0  0  0  0
    1.4631   -4.9930    0.0000 H   0  0  0  0  0  0  0  0  0  0  0  0
    4.2690   -4.9930    0.0000 H   0  0  0  0  0  0  0  0  0  0  0  0
    2.8660   -5.8030    0.0000 H   0  0  0  0  0  0  0  0  0  0  0  0
  1  6  1  0  0  0  0
  1  8  1  0  0  0  0
  1  9  1  0  0  0  0
  2 10  1  0  0  0  0
  2 11  1  0  0  0  0
  2 16  1  0  0  0  0
  3  4  1  0  0  0  0
  3  5  1  0  0  0  0
  3  6  1  6  0  0  0
  3 23  1  0  0  0  0
  4  5  1  0  0  0  0
  4  7  1  1  0  0  0
  4 24  1  0  0  0  0
  5 25  1  0  0  0  0
  5 26  1  0  0  0  0
  6 27  1  0  0  0  0
  6 28  1  0  0  0  0
  7 12  2  0  0  0  0
  7 13  1  0  0  0  0
  8 10  1  0  0  0  0
  8 29  1  0  0  0  0
  8 30  1  0  0  0  0
  9 11  1  0  0  0  0
  9 31  1  0  0  0  0
  9 32  1  0  0  0  0
 10 33  1  0  0  0  0
 10 34  1  0  0  0  0
 11 35  1  0  0  0  0
 11 36  1  0  0  0  0
 12 14  1  0  0  0  0
 12 37  1  0  0  0  0
 13 15  2  0  0  0  0
 13 38  1  0  0  0  0
 14 17  2  0  0  0  0
 14 39  1  0  0  0  0
 15 17  1  0  0  0  0
 15 40  1  0  0  0  0
 16 18  2  0  0  0  0
 16 19  1  0  0  0  0
 17 41  1  0  0  0  0
 18 20  1  0  0  0  0
 18 42  1  0  0  0  0
 19 21  2  0  0  0  0
 19 43  1  0  0  0  0
 20 22  2  0  0  0  0
 20 44  1  0  0  0  0
 21 22  1  0  0  0  0
 21 45  1  0  0  0  0
 22 46  1  0  0  0  0
M  END
> <PUBCHEM_COMPOUND_CID>
10851217

> <PUBCHEM_COMPOUND_CANONICALIZED>
1

> <PUBCHEM_CACTVS_COMPLEXITY>
336

> <PUBCHEM_CACTVS_HBOND_ACCEPTOR>
2

> <PUBCHEM_CACTVS_HBOND_DONOR>
0

> <PUBCHEM_CACTVS_ROTATABLE_BOND>
4

> <PUBCHEM_CACTVS_SUBSKEYS>
AAADceB7AAAAAAAAAAAAAAAAGAAAAAAAAAA8YIAAAAAAAAABQAAAHAAAAAAADQjBGAQwwIMAAACAAiRCQACCAAAhAgAIiAAIZIgIYCLAkZGUIAhggADIyAcQgMAOgAAAAAAAAAAAAAAAAAAAAAAAAAAAAA==

> <PUBCHEM_IUPAC_OPENEYE_NAME>
1-phenyl-4-[[(1S,2S)-2-phenylcyclopropyl]methyl]piperazine

> <PUBCHEM_IUPAC_CAS_NAME>
1-phenyl-4-[[(1S,2S)-2-phenylcyclopropyl]methyl]piperazine

> <PUBCHEM_IUPAC_NAME_MARKUP>
1-phenyl-4-[[(1<I>S</I>,2<I>S</I>)-2-phenylcyclopropyl]methyl]piperazine

> <PUBCHEM_IUPAC_NAME>
1-phenyl-4-[[(1S,2S)-2-phenylcyclopropyl]methyl]piperazine

> <PUBCHEM_IUPAC_SYSTEMATIC_NAME>
1-phenyl-4-[[(1S,2S)-2-phenylcyclopropyl]methyl]piperazine

> <PUBCHEM_IUPAC_TRADITIONAL_NAME>
1-phenyl-4-[[(1S,2S)-2-phenylcyclopropyl]methyl]piperazine

> <PUBCHEM_IUPAC_INCHI>
InChI=1S/C20H24N2/c1-3-7-17(8-4-1)20-15-18(20)16-21-11-13-22(14-12-21)19-9-5-2-6-10-19/h1-10,18,20H,11-16H2/t18-,20-/m1/s1

> <PUBCHEM_IUPAC_INCHIKEY>
DDRAKDPEZWFDFW-UYAOXDASSA-N

> <PUBCHEM_XLOGP3_AA>
4

> <PUBCHEM_EXACT_MASS>
292.193948774

> <PUBCHEM_MOLECULAR_FORMULA>
C20H24N2

> <PUBCHEM_MOLECULAR_WEIGHT>
292.4

> <PUBCHEM_OPENEYE_CAN_SMILES>
C1CN(CCN1CC2CC2C3=CC=CC=C3)C4=CC=CC=C4

> <PUBCHEM_OPENEYE_ISO_SMILES>
C1CN(CCN1C[C@H]2C[C@@H]2C3=CC=CC=C3)C4=CC=CC=C4

> <PUBCHEM_CACTVS_TPSA>
6.5

> <PUBCHEM_MONOISOTOPIC_WEIGHT>
292.193948774

> <PUBCHEM_TOTAL_CHARGE>
0

> <PUBCHEM_HEAVY_ATOM_COUNT>
22

> <PUBCHEM_ATOM_DEF_STEREO_COUNT>
2

> <PUBCHEM_ATOM_UDEF_STEREO_COUNT>
0

> <PUBCHEM_BOND_DEF_STEREO_COUNT>
0

> <PUBCHEM_BOND_UDEF_STEREO_COUNT>
0

> <PUBCHEM_ISOTOPIC_ATOM_COUNT>
0

> <PUBCHEM_COMPONENT_COUNT>
1

> <PUBCHEM_CACTVS_TAUTO_COUNT>
-1

> <PUBCHEM_COORDINATE_TYPE>
1
5
255

> <PUBCHEM_BONDANNOTATIONS>
12  14  8
13  15  8
14  17  8
15  17  8
16  18  8
16  19  8
18  20  8
19  21  8
20  22  8
21  22  8
3  6  6
4  7  5
7  12  8
7  13  8

$$$$
