25158436
  -OEChem-09292322502D

 63 66  0     0  0  0  0  0  0999 V2000
    3.7320   -7.5000    0.0000 F   0  0  0  0  0  0  0  0  0  0  0  0
    4.5981    1.0000    0.0000 O   0  0  0  0  0  0  0  0  0  0  0  0
    2.8660    7.0000    0.0000 O   0  0  0  0  0  0  0  0  0  0  0  0
    3.7320   -1.5000    0.0000 N   0  0  0  0  0  0  0  0  0  0  0  0
    3.7320   -3.5000    0.0000 N   0  0  0  0  0  0  0  0  0  0  0  0
    4.5981   -2.0000    0.0000 C   0  0  0  0  0  0  0  0  0  0  0  0
    2.8660   -2.0000    0.0000 C   0  0  0  0  0  0  0  0  0  0  0  0
    4.5981   -3.0000    0.0000 C   0  0  0  0  0  0  0  0  0  0  0  0
    2.8660   -3.0000    0.0000 C   0  0  0  0  0  0  0  0  0  0  0  0
    3.7320   -0.5000    0.0000 C   0  0  0  0  0  0  0  0  0  0  0  0
    3.7320   -4.5000    0.0000 C   0  0  0  0  0  0  0  0  0  0  0  0
    4.5981    0.0000    0.0000 C   0  0  0  0  0  0  0  0  0  0  0  0
    4.5981   -5.0000    0.0000 C   0  0  0  0  0  0  0  0  0  0  0  0
    2.8660   -5.0000    0.0000 C   0  0  0  0  0  0  0  0  0  0  0  0
    5.4641    1.5000    0.0000 C   0  0  0  0  0  0  0  0  0  0  0  0
    5.4641    2.5000    0.0000 C   0  0  0  0  0  0  0  0  0  0  0  0
    4.5981    3.0000    0.0000 C   0  0  0  0  0  0  0  0  0  0  0  0
    4.5981   -6.0000    0.0000 C   0  0  0  0  0  0  0  0  0  0  0  0
    2.8660   -6.0000    0.0000 C   0  0  0  0  0  0  0  0  0  0  0  0
    4.5981    4.0000    0.0000 C   0  0  0  0  0  0  0  0  0  0  0  0
    3.7320   -6.5000    0.0000 C   0  0  0  0  0  0  0  0  0  0  0  0
    6.3301    1.0000    0.0000 C   0  0  0  0  0  0  0  0  0  0  0  0
    6.3301    3.0000    0.0000 C   0  0  0  0  0  0  0  0  0  0  0  0
    3.7320    4.5000    0.0000 C   0  0  0  0  0  0  0  0  0  0  0  0
    7.1962    1.5000    0.0000 C   0  0  0  0  0  0  0  0  0  0  0  0
    7.1962    2.5000    0.0000 C   0  0  0  0  0  0  0  0  0  0  0  0
    3.7320    5.5000    0.0000 C   0  0  0  0  0  0  0  0  0  0  0  0
    2.8660    4.0000    0.0000 C   0  0  0  0  0  0  0  0  0  0  0  0
    2.8660    6.0000    0.0000 C   0  0  0  0  0  0  0  0  0  0  0  0
    2.0000    4.5000    0.0000 C   0  0  0  0  0  0  0  0  0  0  0  0
    2.0000    5.5000    0.0000 C   0  0  0  0  0  0  0  0  0  0  0  0
    2.0000    7.5000    0.0000 C   0  0  0  0  0  0  0  0  0  0  0  0
    5.2087   -2.1077    0.0000 H   0  0  0  0  0  0  0  0  0  0  0  0
    4.8101   -1.4174    0.0000 H   0  0  0  0  0  0  0  0  0  0  0  0
    2.6540   -1.4174    0.0000 H   0  0  0  0  0  0  0  0  0  0  0  0
    2.2554   -2.1077    0.0000 H   0  0  0  0  0  0  0  0  0  0  0  0
    4.8101   -3.5826    0.0000 H   0  0  0  0  0  0  0  0  0  0  0  0
    5.2087   -2.8923    0.0000 H   0  0  0  0  0  0  0  0  0  0  0  0
    2.2554   -2.8923    0.0000 H   0  0  0  0  0  0  0  0  0  0  0  0
    2.6540   -3.5826    0.0000 H   0  0  0  0  0  0  0  0  0  0  0  0
    3.5200    0.0826    0.0000 H   0  0  0  0  0  0  0  0  0  0  0  0
    3.1215   -0.6077    0.0000 H   0  0  0  0  0  0  0  0  0  0  0  0
    4.8101   -0.5826    0.0000 H   0  0  0  0  0  0  0  0  0  0  0  0
    5.2087    0.1077    0.0000 H   0  0  0  0  0  0  0  0  0  0  0  0
    5.1350   -4.6900    0.0000 H   0  0  0  0  0  0  0  0  0  0  0  0
    2.3291   -4.6900    0.0000 H   0  0  0  0  0  0  0  0  0  0  0  0
    3.9875    3.1077    0.0000 H   0  0  0  0  0  0  0  0  0  0  0  0
    4.3860    2.4174    0.0000 H   0  0  0  0  0  0  0  0  0  0  0  0
    5.1350   -6.3100    0.0000 H   0  0  0  0  0  0  0  0  0  0  0  0
    2.3291   -6.3100    0.0000 H   0  0  0  0  0  0  0  0  0  0  0  0
    5.2087    3.8923    0.0000 H   0  0  0  0  0  0  0  0  0  0  0  0
    4.8101    4.5826    0.0000 H   0  0  0  0  0  0  0  0  0  0  0  0
    6.3301    0.3800    0.0000 H   0  0  0  0  0  0  0  0  0  0  0  0
    6.3301    3.6200    0.0000 H   0  0  0  0  0  0  0  0  0  0  0  0
    7.7331    1.1900    0.0000 H   0  0  0  0  0  0  0  0  0  0  0  0
    7.7331    2.8100    0.0000 H   0  0  0  0  0  0  0  0  0  0  0  0
    4.2690    5.8100    0.0000 H   0  0  0  0  0  0  0  0  0  0  0  0
    2.8660    3.3800    0.0000 H   0  0  0  0  0  0  0  0  0  0  0  0
    1.4631    4.1900    0.0000 H   0  0  0  0  0  0  0  0  0  0  0  0
    1.4631    5.8100    0.0000 H   0  0  0  0  0  0  0  0  0  0  0  0
    2.3100    8.0369    0.0000 H   0  0  0  0  0  0  0  0  0  0  0  0
    1.4631    7.8100    0.0000 H   0  0  0  0  0  0  0  0  0  0  0  0
    1.6900    6.9631    0.0000 H   0  0  0  0  0  0  0  0  0  0  0  0
  1 21  1  0  0  0  0
  2 12  1  0  0  0  0
  2 15  1  0  0  0  0
  3 29  1  0  0  0  0
  3 32  1  0  0  0  0
  4  6  1  0  0  0  0
  4  7  1  0  0  0  0
  4 10  1  0  0  0  0
  5  8  1  0  0  0  0
  5  9  1  0  0  0  0
  5 11  1  0  0  0  0
  6  8  1  0  0  0  0
  6 33  1  0  0  0  0
  6 34  1  0  0  0  0
  7  9  1  0  0  0  0
  7 35  1  0  0  0  0
  7 36  1  0  0  0  0
  8 37  1  0  0  0  0
  8 38  1  0  0  0  0
  9 39  1  0  0  0  0
  9 40  1  0  0  0  0
 10 12  1  0  0  0  0
 10 41  1  0  0  0  0
 10 42  1  0  0  0  0
 11 13  2  0  0  0  0
 11 14  1  0  0  0  0
 12 43  1  0  0  0  0
 12 44  1  0  0  0  0
 13 18  1  0  0  0  0
 13 45  1  0  0  0  0
 14 19  2  0  0  0  0
 14 46  1  0  0  0  0
 15 16  1  0  0  0  0
 15 22  2  0  0  0  0
 16 17  1  0  0  0  0
 16 23  2  0  0  0  0
 17 20  1  0  0  0  0
 17 47  1  0  0  0  0
 17 48  1  0  0  0  0
 18 21  2  0  0  0  0
 18 49  1  0  0  0  0
 19 21  1  0  0  0  0
 19 50  1  0  0  0  0
 20 24  1  0  0  0  0
 20 51  1  0  0  0  0
 20 52  1  0  0  0  0
 22 25  1  0  0  0  0
 22 53  1  0  0  0  0
 23 26  1  0  0  0  0
 23 54  1  0  0  0  0
 24 27  2  0  0  0  0
 24 28  1  0  0  0  0
 25 26  2  0  0  0  0
 25 55  1  0  0  0  0
 26 56  1  0  0  0  0
 27 29  1  0  0  0  0
 27 57  1  0  0  0  0
 28 30  2  0  0  0  0
 28 58  1  0  0  0  0
 29 31  2  0  0  0  0
 30 31  1  0  0  0  0
 30 59  1  0  0  0  0
 31 60  1  0  0  0  0
 32 61  1  0  0  0  0
 32 62  1  0  0  0  0
 32 63  1  0  0  0  0
M  END
> <PUBCHEM_COMPOUND_CID>
25158436

> <PUBCHEM_COMPOUND_CANONICALIZED>
1

> <PUBCHEM_CACTVS_COMPLEXITY>
520

> <PUBCHEM_CACTVS_HBOND_ACCEPTOR>
5

> <PUBCHEM_CACTVS_HBOND_DONOR>
0

> <PUBCHEM_CACTVS_ROTATABLE_BOND>
9

> <PUBCHEM_CACTVS_SUBSKEYS>
AAADceB7MQAAAAAAAAAAAAAAAAAAAAAAAAA8YMEAAAAAAAABUAAAHwAAAAAADAzhmA4yxoMABACAAiRCQACCCAAhIgAIiAAObIgOZiLEsZuXOCjkwBHY6AeQwPAOAAABAAAIAAAAAAIAABAAAAAAAAAAAA==

> <PUBCHEM_IUPAC_OPENEYE_NAME>
1-(4-fluorophenyl)-4-[2-[2-[2-(3-methoxyphenyl)ethyl]phenoxy]ethyl]piperazine

> <PUBCHEM_IUPAC_CAS_NAME>
1-(4-fluorophenyl)-4-[2-[2-[2-(3-methoxyphenyl)ethyl]phenoxy]ethyl]piperazine

> <PUBCHEM_IUPAC_NAME_MARKUP>
1-(4-fluorophenyl)-4-[2-[2-[2-(3-methoxyphenyl)ethyl]phenoxy]ethyl]piperazine

> <PUBCHEM_IUPAC_NAME>
1-(4-fluorophenyl)-4-[2-[2-[2-(3-methoxyphenyl)ethyl]phenoxy]ethyl]piperazine

> <PUBCHEM_IUPAC_SYSTEMATIC_NAME>
1-(4-fluorophenyl)-4-[2-[2-[2-(3-methoxyphenyl)ethyl]phenoxy]ethyl]piperazine

> <PUBCHEM_IUPAC_TRADITIONAL_NAME>
1-(4-fluorophenyl)-4-[2-[2-[2-(3-methoxyphenyl)ethyl]phenoxy]ethyl]piperazine

> <PUBCHEM_IUPAC_INCHI>
InChI=1S/C27H31FN2O2/c1-31-26-7-4-5-22(21-26)9-10-23-6-2-3-8-27(23)32-20-19-29-15-17-30(18-16-29)25-13-11-24(28)12-14-25/h2-8,11-14,21H,9-10,15-20H2,1H3

> <PUBCHEM_IUPAC_INCHIKEY>
SDSWHYXPIOTKDV-UHFFFAOYSA-N

> <PUBCHEM_XLOGP3_AA>
5.8

> <PUBCHEM_EXACT_MASS>
434.23695640

> <PUBCHEM_MOLECULAR_FORMULA>
C27H31FN2O2

> <PUBCHEM_MOLECULAR_WEIGHT>
434.5

> <PUBCHEM_OPENEYE_CAN_SMILES>
COC1=CC=CC(=C1)CCC2=CC=CC=C2OCCN3CCN(CC3)C4=CC=C(C=C4)F

> <PUBCHEM_OPENEYE_ISO_SMILES>
COC1=CC=CC(=C1)CCC2=CC=CC=C2OCCN3CCN(CC3)C4=CC=C(C=C4)F

> <PUBCHEM_CACTVS_TPSA>
24.9

> <PUBCHEM_MONOISOTOPIC_WEIGHT>
434.23695640

> <PUBCHEM_TOTAL_CHARGE>
0

> <PUBCHEM_HEAVY_ATOM_COUNT>
32

> <PUBCHEM_ATOM_DEF_STEREO_COUNT>
0

> <PUBCHEM_ATOM_UDEF_STEREO_COUNT>
0

> <PUBCHEM_BOND_DEF_STEREO_COUNT>
0

> <PUBCHEM_BOND_UDEF_STEREO_COUNT>
0

> <PUBCHEM_ISOTOPIC_ATOM_COUNT>
0

> <PUBCHEM_COMPONENT_COUNT>
1

> <PUBCHEM_CACTVS_TAUTO_COUNT>
-1

> <PUBCHEM_COORDINATE_TYPE>
1
5
255

> <PUBCHEM_BONDANNOTATIONS>
11  13  8
11  14  8
13  18  8
14  19  8
15  16  8
15  22  8
16  23  8
18  21  8
19  21  8
22  25  8
23  26  8
24  27  8
24  28  8
25  26  8
27  29  8
28  30  8
29  31  8
30  31  8

$$$$
