23631001
  -OEChem-09292322492D

 61 65  0     1  0  0  0  0  0999 V2000
    7.0704   -1.1039    0.0000 S   0  0  0  0  0  0  0  0  0  0  0  0
   16.5065    1.9948    0.0000 O   0  0  0  0  0  0  0  0  0  0  0  0
   10.0704    0.6281    0.0000 N   0  0  3  0  0  0  0  0  0  0  0  0
   15.8403    1.2491    0.0000 N   0  0  0  0  0  0  0  0  0  0  0  0
    5.4826   -1.9129    0.0000 N   0  0  0  0  0  0  0  0  0  0  0  0
    5.4826   -0.2949    0.0000 N   0  0  0  0  0  0  0  0  0  0  0  0
    4.5316   -0.6039    0.0000 N   0  0  0  0  0  0  0  0  0  0  0  0
    3.8271   -3.1862    0.0000 N   0  0  0  0  0  0  0  0  0  0  0  0
   10.5043    1.5291    0.0000 C   0  0  0  0  0  0  0  0  0  0  0  0
   10.5043   -0.2728    0.0000 C   0  0  0  0  0  0  0  0  0  0  0  0
   11.4792    1.7516    0.0000 C   0  0  0  0  0  0  0  0  0  0  0  0
   11.4792   -0.4953    0.0000 C   0  0  0  0  0  0  0  0  0  0  0  0
   12.2611    1.1281    0.0000 C   0  0  0  0  0  0  0  0  0  0  0  0
   12.2611    0.1281    0.0000 C   0  0  0  0  0  0  0  0  0  0  0  0
    9.0704    0.6281    0.0000 C   0  0  0  0  0  0  0  0  0  0  0  0
    8.5704   -0.2379    0.0000 C   0  0  0  0  0  0  0  0  0  0  0  0
   13.1550    1.6628    0.0000 C   0  0  0  0  0  0  0  0  0  0  0  0
   13.1550   -0.4065    0.0000 C   0  0  0  0  0  0  0  0  0  0  0  0
   14.0611    1.1490    0.0000 C   0  0  0  0  0  0  0  0  0  0  0  0
    7.5704   -0.2379    0.0000 C   0  0  0  0  0  0  0  0  0  0  0  0
   14.0611    0.1073    0.0000 C   0  0  0  0  0  0  0  0  0  0  0  0
   14.9252    1.6523    0.0000 C   0  0  0  0  0  0  0  0  0  0  0  0
   15.0259    2.6472    0.0000 C   0  0  0  0  0  0  0  0  0  0  0  0
    6.0704   -1.1039    0.0000 C   0  0  0  0  0  0  0  0  0  0  0  0
   16.0032    2.8589    0.0000 C   0  0  0  0  0  0  0  0  0  0  0  0
    4.5316   -1.6039    0.0000 C   0  0  0  0  0  0  0  0  0  0  0  0
    5.7916   -2.8640    0.0000 C   0  0  0  0  0  0  0  0  0  0  0  0
   16.4064    3.7740    0.0000 C   0  0  0  0  0  0  0  0  0  0  0  0
    3.7226   -2.1917    0.0000 C   0  0  0  0  0  0  0  0  0  0  0  0
    2.8090   -1.7850    0.0000 C   0  0  0  0  0  0  0  0  0  0  0  0
    2.0000   -2.3727    0.0000 C   0  0  0  0  0  0  0  0  0  0  0  0
    3.0181   -3.7740    0.0000 C   0  0  0  0  0  0  0  0  0  0  0  0
    2.1045   -3.3673    0.0000 C   0  0  0  0  0  0  0  0  0  0  0  0
   10.5043    2.1491    0.0000 H   0  0  0  0  0  0  0  0  0  0  0  0
    9.8998    1.6671    0.0000 H   0  0  0  0  0  0  0  0  0  0  0  0
    9.8998   -0.4108    0.0000 H   0  0  0  0  0  0  0  0  0  0  0  0
   10.5043   -0.8928    0.0000 H   0  0  0  0  0  0  0  0  0  0  0  0
   11.9640    2.1382    0.0000 H   0  0  0  0  0  0  0  0  0  0  0  0
   11.2102    2.3102    0.0000 H   0  0  0  0  0  0  0  0  0  0  0  0
   11.2102   -1.0540    0.0000 H   0  0  0  0  0  0  0  0  0  0  0  0
   11.9640   -0.8819    0.0000 H   0  0  0  0  0  0  0  0  0  0  0  0
    9.1781    1.2387    0.0000 H   0  0  0  0  0  0  0  0  0  0  0  0
    8.4878    0.8402    0.0000 H   0  0  0  0  0  0  0  0  0  0  0  0
    8.4628   -0.8485    0.0000 H   0  0  0  0  0  0  0  0  0  0  0  0
    9.1530   -0.4499    0.0000 H   0  0  0  0  0  0  0  0  0  0  0  0
   13.1478    2.2828    0.0000 H   0  0  0  0  0  0  0  0  0  0  0  0
   13.1478   -1.0265    0.0000 H   0  0  0  0  0  0  0  0  0  0  0  0
    7.6781    0.3727    0.0000 H   0  0  0  0  0  0  0  0  0  0  0  0
    6.9878   -0.0258    0.0000 H   0  0  0  0  0  0  0  0  0  0  0  0
   14.5968   -0.2047    0.0000 H   0  0  0  0  0  0  0  0  0  0  0  0
   14.5635    3.0603    0.0000 H   0  0  0  0  0  0  0  0  0  0  0  0
    5.2020   -3.0556    0.0000 H   0  0  0  0  0  0  0  0  0  0  0  0
    5.9832   -3.4536    0.0000 H   0  0  0  0  0  0  0  0  0  0  0  0
    6.3813   -2.6724    0.0000 H   0  0  0  0  0  0  0  0  0  0  0  0
   16.9738    3.5240    0.0000 H   0  0  0  0  0  0  0  0  0  0  0  0
   16.6564    4.3414    0.0000 H   0  0  0  0  0  0  0  0  0  0  0  0
   15.8390    4.0240    0.0000 H   0  0  0  0  0  0  0  0  0  0  0  0
    2.7442   -1.1684    0.0000 H   0  0  0  0  0  0  0  0  0  0  0  0
    1.4336   -2.1206    0.0000 H   0  0  0  0  0  0  0  0  0  0  0  0
    3.0829   -4.3906    0.0000 H   0  0  0  0  0  0  0  0  0  0  0  0
    1.6029   -3.7317    0.0000 H   0  0  0  0  0  0  0  0  0  0  0  0
  1 20  1  0  0  0  0
  1 24  1  0  0  0  0
  2  4  1  0  0  0  0
  2 25  1  0  0  0  0
  3  9  1  0  0  0  0
  3 10  1  0  0  0  0
  3 15  1  0  0  0  0
  4 22  2  0  0  0  0
  5 24  1  0  0  0  0
  5 26  1  0  0  0  0
  5 27  1  0  0  0  0
  6  7  1  0  0  0  0
  6 24  2  0  0  0  0
  7 26  2  0  0  0  0
  8 29  1  0  0  0  0
  8 32  2  0  0  0  0
  9 11  1  0  0  0  0
  9 34  1  0  0  0  0
  9 35  1  0  0  0  0
 10 12  1  0  0  0  0
 10 36  1  0  0  0  0
 10 37  1  0  0  0  0
 11 13  1  0  0  0  0
 11 38  1  0  0  0  0
 11 39  1  0  0  0  0
 12 14  1  0  0  0  0
 12 40  1  0  0  0  0
 12 41  1  0  0  0  0
 13 14  2  0  0  0  0
 13 17  1  0  0  0  0
 14 18  1  0  0  0  0
 15 16  1  0  0  0  0
 15 42  1  0  0  0  0
 15 43  1  0  0  0  0
 16 20  1  0  0  0  0
 16 44  1  0  0  0  0
 16 45  1  0  0  0  0
 17 19  2  0  0  0  0
 17 46  1  0  0  0  0
 18 21  2  0  0  0  0
 18 47  1  0  0  0  0
 19 21  1  0  0  0  0
 19 22  1  0  0  0  0
 20 48  1  0  0  0  0
 20 49  1  0  0  0  0
 21 50  1  0  0  0  0
 22 23  1  0  0  0  0
 23 25  2  0  0  0  0
 23 51  1  0  0  0  0
 25 28  1  0  0  0  0
 26 29  1  0  0  0  0
 27 52  1  0  0  0  0
 27 53  1  0  0  0  0
 27 54  1  0  0  0  0
 28 55  1  0  0  0  0
 28 56  1  0  0  0  0
 28 57  1  0  0  0  0
 29 30  2  0  0  0  0
 30 31  1  0  0  0  0
 30 58  1  0  0  0  0
 31 33  2  0  0  0  0
 31 59  1  0  0  0  0
 32 33  1  0  0  0  0
 32 60  1  0  0  0  0
 33 61  1  0  0  0  0
M  END
> <PUBCHEM_COMPOUND_CID>
23631001

> <PUBCHEM_COMPOUND_CANONICALIZED>
1

> <PUBCHEM_CACTVS_COMPLEXITY>
613

> <PUBCHEM_CACTVS_HBOND_ACCEPTOR>
7

> <PUBCHEM_CACTVS_HBOND_DONOR>
0

> <PUBCHEM_CACTVS_ROTATABLE_BOND>
7

> <PUBCHEM_CACTVS_SUBSKEYS>
AAADceB7oABAAAAAAAAAAAAAAAAAAWLAAAA8QAAABYAAAAAB/AAAHgQMAAAADAzF3wS/lJccEAirA7Z3ZgCS0Ct1IrA92CE+bNqIbvrgmZOUMYhmiBrIyUeYyOCOwAACAAAQAACAAAQAACAAAAAAAAAAAA==

> <PUBCHEM_IUPAC_OPENEYE_NAME>
5-methyl-3-[3-[3-[[4-methyl-5-(2-pyridyl)-1,2,4-triazol-3-yl]sulfanyl]propyl]-1,2,4,5-tetrahydro-3-benzazepin-7-yl]isoxazole

> <PUBCHEM_IUPAC_CAS_NAME>
5-methyl-3-[3-[3-[[4-methyl-5-(2-pyridinyl)-1,2,4-triazol-3-yl]thio]propyl]-1,2,4,5-tetrahydro-3-benzazepin-7-yl]isoxazole

> <PUBCHEM_IUPAC_NAME_MARKUP>
5-methyl-3-[3-[3-[(4-methyl-5-pyridin-2-yl-1,2,4-triazol-3-yl)sulfanyl]propyl]-1,2,4,5-tetrahydro-3-benzazepin-7-yl]-1,2-oxazole

> <PUBCHEM_IUPAC_NAME>
5-methyl-3-[3-[3-[(4-methyl-5-pyridin-2-yl-1,2,4-triazol-3-yl)sulfanyl]propyl]-1,2,4,5-tetrahydro-3-benzazepin-7-yl]-1,2-oxazole

> <PUBCHEM_IUPAC_SYSTEMATIC_NAME>
5-methyl-3-[3-[3-[(4-methyl-5-pyridin-2-yl-1,2,4-triazol-3-yl)sulfanyl]propyl]-1,2,4,5-tetrahydro-3-benzazepin-7-yl]-1,2-oxazole

> <PUBCHEM_IUPAC_TRADITIONAL_NAME>
5-methyl-3-[3-[3-[[4-methyl-5-(2-pyridyl)-1,2,4-triazol-3-yl]thio]propyl]-1,2,4,5-tetrahydro-3-benzazepin-7-yl]isoxazole

> <PUBCHEM_IUPAC_INCHI>
InChI=1S/C25H28N6OS/c1-18-16-23(29-32-18)21-8-7-19-9-13-31(14-10-20(19)17-21)12-5-15-33-25-28-27-24(30(25)2)22-6-3-4-11-26-22/h3-4,6-8,11,16-17H,5,9-10,12-15H2,1-2H3

> <PUBCHEM_IUPAC_INCHIKEY>
PZBTVBSLNQDOCG-UHFFFAOYSA-N

> <PUBCHEM_XLOGP3_AA>
3.8

> <PUBCHEM_EXACT_MASS>
460.20453071

> <PUBCHEM_MOLECULAR_FORMULA>
C25H28N6OS

> <PUBCHEM_MOLECULAR_WEIGHT>
460.6

> <PUBCHEM_OPENEYE_CAN_SMILES>
CC1=CC(=NO1)C2=CC3=C(CCN(CC3)CCCSC4=NN=C(N4C)C5=CC=CC=N5)C=C2

> <PUBCHEM_OPENEYE_ISO_SMILES>
CC1=CC(=NO1)C2=CC3=C(CCN(CC3)CCCSC4=NN=C(N4C)C5=CC=CC=N5)C=C2

> <PUBCHEM_CACTVS_TPSA>
98.2

> <PUBCHEM_MONOISOTOPIC_WEIGHT>
460.20453071

> <PUBCHEM_TOTAL_CHARGE>
0

> <PUBCHEM_HEAVY_ATOM_COUNT>
33

> <PUBCHEM_ATOM_DEF_STEREO_COUNT>
0

> <PUBCHEM_ATOM_UDEF_STEREO_COUNT>
0

> <PUBCHEM_BOND_DEF_STEREO_COUNT>
0

> <PUBCHEM_BOND_UDEF_STEREO_COUNT>
0

> <PUBCHEM_ISOTOPIC_ATOM_COUNT>
0

> <PUBCHEM_COMPONENT_COUNT>
1

> <PUBCHEM_CACTVS_TAUTO_COUNT>
-1

> <PUBCHEM_COORDINATE_TYPE>
1
5
255

> <PUBCHEM_BONDANNOTATIONS>
13  14  8
13  17  8
14  18  8
17  19  8
18  21  8
19  21  8
2  25  8
2  4  8
22  23  8
23  25  8
29  30  8
30  31  8
31  33  8
32  33  8
4  22  8
5  24  8
5  26  8
6  24  8
6  7  8
7  26  8
8  29  8
8  32  8

$$$$
