10430935
  -OEChem-09292322052D

 53 55  0     0  0  0  0  0  0999 V2000
    5.4641   -1.5000    0.0000 S   0  0  0  0  0  0  0  0  0  0  0  0
    6.3301   -6.0000    0.0000 F   0  0  0  0  0  0  0  0  0  0  0  0
    9.7942   -0.0000    0.0000 F   0  0  0  0  0  0  0  0  0  0  0  0
    4.5981    1.0000    0.0000 N   0  0  0  0  0  0  0  0  0  0  0  0
    6.3301   -2.0000    0.0000 C   0  0  0  0  0  0  0  0  0  0  0  0
    3.7320    2.5000    0.0000 C   0  0  0  0  0  0  0  0  0  0  0  0
    3.7320    1.5000    0.0000 C   0  0  0  0  0  0  0  0  0  0  0  0
    4.5981    0.0000    0.0000 C   0  0  0  0  0  0  0  0  0  0  0  0
    2.8660    3.0000    0.0000 C   0  0  0  0  0  0  0  0  0  0  0  0
    5.4641   -0.5000    0.0000 C   0  0  0  0  0  0  0  0  0  0  0  0
    6.3301   -3.0000    0.0000 C   0  0  0  0  0  0  0  0  0  0  0  0
    7.1962   -1.5000    0.0000 C   0  0  0  0  0  0  0  0  0  0  0  0
    2.8660    4.0000    0.0000 C   0  0  0  0  0  0  0  0  0  0  0  0
    7.1962   -3.5000    0.0000 C   0  0  0  0  0  0  0  0  0  0  0  0
    7.1962   -0.5000    0.0000 C   0  0  0  0  0  0  0  0  0  0  0  0
    5.4641   -3.5000    0.0000 C   0  0  0  0  0  0  0  0  0  0  0  0
    8.0622   -2.0000    0.0000 C   0  0  0  0  0  0  0  0  0  0  0  0
    3.7320    4.5000    0.0000 C   0  0  0  0  0  0  0  0  0  0  0  0
    2.0000    4.5000    0.0000 C   0  0  0  0  0  0  0  0  0  0  0  0
    7.1962   -4.5000    0.0000 C   0  0  0  0  0  0  0  0  0  0  0  0
    8.0622    0.0000    0.0000 C   0  0  0  0  0  0  0  0  0  0  0  0
    5.4641   -4.5000    0.0000 C   0  0  0  0  0  0  0  0  0  0  0  0
    8.9282   -1.5000    0.0000 C   0  0  0  0  0  0  0  0  0  0  0  0
    6.3301   -5.0000    0.0000 C   0  0  0  0  0  0  0  0  0  0  0  0
    8.9282   -0.5000    0.0000 C   0  0  0  0  0  0  0  0  0  0  0  0
    3.7320    5.5000    0.0000 C   0  0  0  0  0  0  0  0  0  0  0  0
    2.0000    5.5000    0.0000 C   0  0  0  0  0  0  0  0  0  0  0  0
    2.8660    6.0000    0.0000 C   0  0  0  0  0  0  0  0  0  0  0  0
    5.7932   -2.3100    0.0000 H   0  0  0  0  0  0  0  0  0  0  0  0
    4.3426    2.3923    0.0000 H   0  0  0  0  0  0  0  0  0  0  0  0
    3.9441    3.0826    0.0000 H   0  0  0  0  0  0  0  0  0  0  0  0
    3.1215    1.6077    0.0000 H   0  0  0  0  0  0  0  0  0  0  0  0
    3.5200    0.9174    0.0000 H   0  0  0  0  0  0  0  0  0  0  0  0
    3.9875    0.1077    0.0000 H   0  0  0  0  0  0  0  0  0  0  0  0
    4.3860   -0.5826    0.0000 H   0  0  0  0  0  0  0  0  0  0  0  0
    2.2554    3.1077    0.0000 H   0  0  0  0  0  0  0  0  0  0  0  0
    2.6540    2.4174    0.0000 H   0  0  0  0  0  0  0  0  0  0  0  0
    6.0747   -0.6077    0.0000 H   0  0  0  0  0  0  0  0  0  0  0  0
    5.6762    0.0826    0.0000 H   0  0  0  0  0  0  0  0  0  0  0  0
    5.1350    1.3100    0.0000 H   0  0  0  0  0  0  0  0  0  0  0  0
    7.7331   -3.1900    0.0000 H   0  0  0  0  0  0  0  0  0  0  0  0
    6.6592   -0.1900    0.0000 H   0  0  0  0  0  0  0  0  0  0  0  0
    4.9272   -3.1900    0.0000 H   0  0  0  0  0  0  0  0  0  0  0  0
    8.0622   -2.6200    0.0000 H   0  0  0  0  0  0  0  0  0  0  0  0
    4.2690    4.1900    0.0000 H   0  0  0  0  0  0  0  0  0  0  0  0
    1.4631    4.1900    0.0000 H   0  0  0  0  0  0  0  0  0  0  0  0
    7.7331   -4.8100    0.0000 H   0  0  0  0  0  0  0  0  0  0  0  0
    8.0622    0.6200    0.0000 H   0  0  0  0  0  0  0  0  0  0  0  0
    4.9272   -4.8100    0.0000 H   0  0  0  0  0  0  0  0  0  0  0  0
    9.4651   -1.8100    0.0000 H   0  0  0  0  0  0  0  0  0  0  0  0
    4.2690    5.8100    0.0000 H   0  0  0  0  0  0  0  0  0  0  0  0
    1.4631    5.8100    0.0000 H   0  0  0  0  0  0  0  0  0  0  0  0
    2.8660    6.6200    0.0000 H   0  0  0  0  0  0  0  0  0  0  0  0
  1  5  1  0  0  0  0
  1 10  1  0  0  0  0
  2 24  1  0  0  0  0
  3 25  1  0  0  0  0
  4  7  1  0  0  0  0
  4  8  1  0  0  0  0
  4 40  1  0  0  0  0
  5 11  1  0  0  0  0
  5 12  1  0  0  0  0
  5 29  1  0  0  0  0
  6  7  1  0  0  0  0
  6  9  1  0  0  0  0
  6 30  1  0  0  0  0
  6 31  1  0  0  0  0
  7 32  1  0  0  0  0
  7 33  1  0  0  0  0
  8 10  1  0  0  0  0
  8 34  1  0  0  0  0
  8 35  1  0  0  0  0
  9 13  1  0  0  0  0
  9 36  1  0  0  0  0
  9 37  1  0  0  0  0
 10 38  1  0  0  0  0
 10 39  1  0  0  0  0
 11 14  2  0  0  0  0
 11 16  1  0  0  0  0
 12 15  2  0  0  0  0
 12 17  1  0  0  0  0
 13 18  2  0  0  0  0
 13 19  1  0  0  0  0
 14 20  1  0  0  0  0
 14 41  1  0  0  0  0
 15 21  1  0  0  0  0
 15 42  1  0  0  0  0
 16 22  2  0  0  0  0
 16 43  1  0  0  0  0
 17 23  2  0  0  0  0
 17 44  1  0  0  0  0
 18 26  1  0  0  0  0
 18 45  1  0  0  0  0
 19 27  2  0  0  0  0
 19 46  1  0  0  0  0
 20 24  2  0  0  0  0
 20 47  1  0  0  0  0
 21 25  2  0  0  0  0
 21 48  1  0  0  0  0
 22 24  1  0  0  0  0
 22 49  1  0  0  0  0
 23 25  1  0  0  0  0
 23 50  1  0  0  0  0
 26 28  2  0  0  0  0
 26 51  1  0  0  0  0
 27 28  1  0  0  0  0
 27 52  1  0  0  0  0
 28 53  1  0  0  0  0
M  END
> <PUBCHEM_COMPOUND_CID>
10430935

> <PUBCHEM_COMPOUND_CANONICALIZED>
1

> <PUBCHEM_CACTVS_COMPLEXITY>
377

> <PUBCHEM_CACTVS_HBOND_ACCEPTOR>
4

> <PUBCHEM_CACTVS_HBOND_DONOR>
1

> <PUBCHEM_CACTVS_ROTATABLE_BOND>
10

> <PUBCHEM_CACTVS_SUBSKEYS>
AAADceB6AYBAAAAAAAAAAAAAAAAAAAAAAAAwYMAAAAAAAAABUAAAHQQQAAAADADFWAywAILAAAiAAiBCAAACAAAgABAIiIAIAIgIICKgkRCEIAAgkACoiAcQgMAOAAAAAAAAAAAAAAAAAAAAAAAAAAAAAA==

> <PUBCHEM_IUPAC_OPENEYE_NAME>
N-[2-[bis(4-fluorophenyl)methylsulfanyl]ethyl]-3-phenyl-propan-1-amine

> <PUBCHEM_IUPAC_CAS_NAME>
N-[2-[bis(4-fluorophenyl)methylthio]ethyl]-3-phenyl-1-propanamine

> <PUBCHEM_IUPAC_NAME_MARKUP>
<I>N</I>-[2-[bis(4-fluorophenyl)methylsulfanyl]ethyl]-3-phenylpropan-1-amine

> <PUBCHEM_IUPAC_NAME>
N-[2-[bis(4-fluorophenyl)methylsulfanyl]ethyl]-3-phenylpropan-1-amine

> <PUBCHEM_IUPAC_SYSTEMATIC_NAME>
N-[2-[bis(4-fluorophenyl)methylsulfanyl]ethyl]-3-phenyl-propan-1-amine

> <PUBCHEM_IUPAC_TRADITIONAL_NAME>
2-[bis(4-fluorophenyl)methylthio]ethyl-(3-phenylpropyl)amine

> <PUBCHEM_IUPAC_INCHI>
InChI=1S/C24H25F2NS/c25-22-12-8-20(9-13-22)24(21-10-14-23(26)15-11-21)28-18-17-27-16-4-7-19-5-2-1-3-6-19/h1-3,5-6,8-15,24,27H,4,7,16-18H2

> <PUBCHEM_IUPAC_INCHIKEY>
IWZNOFWARONDLD-UHFFFAOYSA-N

> <PUBCHEM_XLOGP3_AA>
6.1

> <PUBCHEM_EXACT_MASS>
397.16757730

> <PUBCHEM_MOLECULAR_FORMULA>
C24H25F2NS

> <PUBCHEM_MOLECULAR_WEIGHT>
397.5

> <PUBCHEM_OPENEYE_CAN_SMILES>
C1=CC=C(C=C1)CCCNCCSC(C2=CC=C(C=C2)F)C3=CC=C(C=C3)F

> <PUBCHEM_OPENEYE_ISO_SMILES>
C1=CC=C(C=C1)CCCNCCSC(C2=CC=C(C=C2)F)C3=CC=C(C=C3)F

> <PUBCHEM_CACTVS_TPSA>
37.3

> <PUBCHEM_MONOISOTOPIC_WEIGHT>
397.16757730

> <PUBCHEM_TOTAL_CHARGE>
0

> <PUBCHEM_HEAVY_ATOM_COUNT>
28

> <PUBCHEM_ATOM_DEF_STEREO_COUNT>
0

> <PUBCHEM_ATOM_UDEF_STEREO_COUNT>
0

> <PUBCHEM_BOND_DEF_STEREO_COUNT>
0

> <PUBCHEM_BOND_UDEF_STEREO_COUNT>
0

> <PUBCHEM_ISOTOPIC_ATOM_COUNT>
0

> <PUBCHEM_COMPONENT_COUNT>
1

> <PUBCHEM_CACTVS_TAUTO_COUNT>
-1

> <PUBCHEM_COORDINATE_TYPE>
1
5
255

> <PUBCHEM_BONDANNOTATIONS>
11  14  8
11  16  8
12  15  8
12  17  8
13  18  8
13  19  8
14  20  8
15  21  8
16  22  8
17  23  8
18  26  8
19  27  8
20  24  8
21  25  8
22  24  8
23  25  8
26  28  8
27  28  8

$$$$
