137649770
  -OEChem-09292322002D

 59 63  0     1  0  0  0  0  0999 V2000
    5.0194   -2.0069    0.0000 O   0  0  0  0  0  0  0  0  0  0  0  0
    2.7646    1.4952    0.0000 O   0  0  0  0  0  0  0  0  0  0  0  0
    2.5362    6.7525    0.0000 O   0  0  0  0  0  0  0  0  0  0  0  0
    4.8140   -3.7525    0.0000 N   0  0  0  0  0  0  0  0  0  0  0  0
    3.4553   -2.8086    0.0000 N   0  0  0  0  0  0  0  0  0  0  0  0
    6.5461   -5.7525    0.0000 N   0  0  0  0  0  0  0  0  0  0  0  0
    2.6193    5.0224    0.0000 N   0  0  0  0  0  0  0  0  0  0  0  0
    5.6800   -5.2525    0.0000 C   0  0  1  0  0  0  0  0  0  0  0  0
    5.6800   -4.2525    0.0000 C   0  0  0  0  0  0  0  0  0  0  0  0
    3.9480   -4.2525    0.0000 C   0  0  0  0  0  0  0  0  0  0  0  0
    4.8140   -5.7525    0.0000 C   0  0  0  0  0  0  0  0  0  0  0  0
    3.9480   -5.2525    0.0000 C   0  0  0  0  0  0  0  0  0  0  0  0
    3.0541   -3.7178    0.0000 C   0  0  0  0  0  0  0  0  0  0  0  0
    4.4489   -2.8282    0.0000 C   0  0  0  0  0  0  0  0  0  0  0  0
    2.9175   -1.9655    0.0000 C   0  0  0  0  0  0  0  0  0  0  0  0
    3.0541   -5.7872    0.0000 C   0  0  0  0  0  0  0  0  0  0  0  0
    2.1480   -4.2317    0.0000 C   0  0  0  0  0  0  0  0  0  0  0  0
    3.3788   -1.0782    0.0000 C   0  0  0  0  0  0  0  0  0  0  0  0
    2.1480   -5.2733    0.0000 C   0  0  0  0  0  0  0  0  0  0  0  0
    2.8411   -0.2351    0.0000 C   0  0  0  0  0  0  0  0  0  0  0  0
    6.5461   -6.7525    0.0000 C   0  0  0  0  0  0  0  0  0  0  0  0
    3.3024    0.6521    0.0000 C   0  0  0  0  0  0  0  0  0  0  0  0
    4.1591    4.2294    0.0000 C   0  0  0  0  0  0  0  0  0  0  0  0
    4.6170    5.1184    0.0000 C   0  0  0  0  0  0  0  0  0  0  0  0
    3.1603    4.1814    0.0000 C   0  0  0  0  0  0  0  0  0  0  0  0
    3.2259    2.3825    0.0000 C   0  0  0  0  0  0  0  0  0  0  0  0
    4.0760    5.9595    0.0000 C   0  0  0  0  0  0  0  0  0  0  0  0
    2.6691    3.2628    0.0000 C   0  0  0  0  0  0  0  0  0  0  0  0
    4.7361    3.3622    0.0000 C   0  0  0  0  0  0  0  0  0  0  0  0
    4.2663    2.4325    0.0000 C   0  0  0  0  0  0  0  0  0  0  0  0
    3.0771    5.9115    0.0000 C   0  0  0  0  0  0  0  0  0  0  0  0
    5.6800   -5.8725    0.0000 H   0  0  0  0  0  0  0  0  0  0  0  0
    6.2906   -4.3602    0.0000 H   0  0  0  0  0  0  0  0  0  0  0  0
    5.8921   -3.6699    0.0000 H   0  0  0  0  0  0  0  0  0  0  0  0
    4.4155   -6.2274    0.0000 H   0  0  0  0  0  0  0  0  0  0  0  0
    5.2126   -6.2274    0.0000 H   0  0  0  0  0  0  0  0  0  0  0  0
    2.4255   -1.5883    0.0000 H   0  0  0  0  0  0  0  0  0  0  0  0
    2.4606   -2.3846    0.0000 H   0  0  0  0  0  0  0  0  0  0  0  0
    7.0830   -5.4425    0.0000 H   0  0  0  0  0  0  0  0  0  0  0  0
    3.0612   -6.4071    0.0000 H   0  0  0  0  0  0  0  0  0  0  0  0
    1.6123   -3.9196    0.0000 H   0  0  0  0  0  0  0  0  0  0  0  0
    3.8709   -1.4554    0.0000 H   0  0  0  0  0  0  0  0  0  0  0  0
    3.8357   -0.6591    0.0000 H   0  0  0  0  0  0  0  0  0  0  0  0
    1.6123   -5.5854    0.0000 H   0  0  0  0  0  0  0  0  0  0  0  0
    2.3490    0.1420    0.0000 H   0  0  0  0  0  0  0  0  0  0  0  0
    2.3842   -0.6542    0.0000 H   0  0  0  0  0  0  0  0  0  0  0  0
    5.9261   -6.7525    0.0000 H   0  0  0  0  0  0  0  0  0  0  0  0
    6.5461   -7.3725    0.0000 H   0  0  0  0  0  0  0  0  0  0  0  0
    7.1661   -6.7525    0.0000 H   0  0  0  0  0  0  0  0  0  0  0  0
    3.7944    0.2749    0.0000 H   0  0  0  0  0  0  0  0  0  0  0  0
    3.7592    1.0712    0.0000 H   0  0  0  0  0  0  0  0  0  0  0  0
    5.1105    4.7432    0.0000 H   0  0  0  0  0  0  0  0  0  0  0  0
    5.0723    5.5393    0.0000 H   0  0  0  0  0  0  0  0  0  0  0  0
    4.6478    6.1992    0.0000 H   0  0  0  0  0  0  0  0  0  0  0  0
    3.9391    6.5642    0.0000 H   0  0  0  0  0  0  0  0  0  0  0  0
    2.0496    3.2402    0.0000 H   0  0  0  0  0  0  0  0  0  0  0  0
    5.3550    3.3991    0.0000 H   0  0  0  0  0  0  0  0  0  0  0  0
    4.6037    1.9123    0.0000 H   0  0  0  0  0  0  0  0  0  0  0  0
    2.0000    4.9927    0.0000 H   0  0  0  0  0  0  0  0  0  0  0  0
  1 14  2  0  0  0  0
  2 22  1  0  0  0  0
  2 26  1  0  0  0  0
  3 31  2  0  0  0  0
  4  9  1  0  0  0  0
  4 10  1  0  0  0  0
  4 14  1  0  0  0  0
  5 13  1  0  0  0  0
  5 14  1  0  0  0  0
  5 15  1  0  0  0  0
  8  6  1  6  0  0  0
  6 21  1  0  0  0  0
  6 39  1  0  0  0  0
  7 25  1  0  0  0  0
  7 31  1  0  0  0  0
  7 59  1  0  0  0  0
  8  9  1  0  0  0  0
  8 11  1  0  0  0  0
  8 32  1  0  0  0  0
  9 33  1  0  0  0  0
  9 34  1  0  0  0  0
 10 12  2  0  0  0  0
 10 13  1  0  0  0  0
 11 12  1  0  0  0  0
 11 35  1  0  0  0  0
 11 36  1  0  0  0  0
 12 16  1  0  0  0  0
 13 17  2  0  0  0  0
 15 18  1  0  0  0  0
 15 37  1  0  0  0  0
 15 38  1  0  0  0  0
 16 19  2  0  0  0  0
 16 40  1  0  0  0  0
 17 19  1  0  0  0  0
 17 41  1  0  0  0  0
 18 20  1  0  0  0  0
 18 42  1  0  0  0  0
 18 43  1  0  0  0  0
 19 44  1  0  0  0  0
 20 22  1  0  0  0  0
 20 45  1  0  0  0  0
 20 46  1  0  0  0  0
 21 47  1  0  0  0  0
 21 48  1  0  0  0  0
 21 49  1  0  0  0  0
 22 50  1  0  0  0  0
 22 51  1  0  0  0  0
 23 24  1  0  0  0  0
 23 25  2  0  0  0  0
 23 29  1  0  0  0  0
 24 27  1  0  0  0  0
 24 52  1  0  0  0  0
 24 53  1  0  0  0  0
 25 28  1  0  0  0  0
 26 28  2  0  0  0  0
 26 30  1  0  0  0  0
 27 31  1  0  0  0  0
 27 54  1  0  0  0  0
 27 55  1  0  0  0  0
 28 56  1  0  0  0  0
 29 30  2  0  0  0  0
 29 57  1  0  0  0  0
 30 58  1  0  0  0  0
M  END
> <PUBCHEM_COMPOUND_CID>
137649770

> <PUBCHEM_COMPOUND_CANONICALIZED>
1

> <PUBCHEM_CACTVS_COMPLEXITY>
673

> <PUBCHEM_CACTVS_HBOND_ACCEPTOR>
4

> <PUBCHEM_CACTVS_HBOND_DONOR>
2

> <PUBCHEM_CACTVS_ROTATABLE_BOND>
7

> <PUBCHEM_CACTVS_SUBSKEYS>
AAADceB7sAAAAAAAAAAAAAAAAAAAAWAAAAA8eIEAAAAAAFixQAAAHgAQAAAADCzhmAYzxoPABACIAiVSUACCCAAhIgAIiIEOfIiMZjLEsZuWOCju1hvI6Ce42aOeIAAAQgACACBAAACEAAQAQAAAAAAAAA==

> <PUBCHEM_IUPAC_OPENEYE_NAME>
(10R)-10-(methylamino)-3-[4-[(2-oxo-3,4-dihydro-1H-quinolin-7-yl)oxy]butyl]-1,3-diazatricyclo[6.3.1.04,12]dodeca-4,6,8(12)-trien-2-one

> <PUBCHEM_IUPAC_CAS_NAME>
(10R)-10-(methylamino)-3-[4-[(2-oxo-3,4-dihydro-1H-quinolin-7-yl)oxy]butyl]-1,3-diazatricyclo[6.3.1.04,12]dodeca-4,6,8(12)-trien-2-one

> <PUBCHEM_IUPAC_NAME_MARKUP>
(10<I>R</I>)-10-(methylamino)-3-[4-[(2-oxo-3,4-dihydro-1<I>H</I>-quinolin-7-yl)oxy]butyl]-1,3-diazatricyclo[6.3.1.0<SUP>4,12</SUP>]dodeca-4,6,8(12)-trien-2-one

> <PUBCHEM_IUPAC_NAME>
(10R)-10-(methylamino)-3-[4-[(2-oxo-3,4-dihydro-1H-quinolin-7-yl)oxy]butyl]-1,3-diazatricyclo[6.3.1.04,12]dodeca-4,6,8(12)-trien-2-one

> <PUBCHEM_IUPAC_SYSTEMATIC_NAME>
(10R)-10-(methylamino)-3-[4-[(2-oxidanylidene-3,4-dihydro-1H-quinolin-7-yl)oxy]butyl]-1,3-diazatricyclo[6.3.1.04,12]dodeca-4,6,8(12)-trien-2-one

> <PUBCHEM_IUPAC_TRADITIONAL_NAME>
(10R)-3-[4-[(2-keto-3,4-dihydro-1H-quinolin-7-yl)oxy]butyl]-10-(methylamino)-1,3-diazatricyclo[6.3.1.04,12]dodeca-4,6,8(12)-trien-2-one

> <PUBCHEM_IUPAC_INCHI>
InChI=1S/C24H28N4O3/c1-25-18-13-17-5-4-6-21-23(17)28(15-18)24(30)27(21)11-2-3-12-31-19-9-7-16-8-10-22(29)26-20(16)14-19/h4-7,9,14,18,25H,2-3,8,10-13,15H2,1H3,(H,26,29)/t18-/m1/s1

> <PUBCHEM_IUPAC_INCHIKEY>
ZJCPSCHGZIVAIV-GOSISDBHSA-N

> <PUBCHEM_XLOGP3_AA>
2.1

> <PUBCHEM_EXACT_MASS>
420.21614077

> <PUBCHEM_MOLECULAR_FORMULA>
C24H28N4O3

> <PUBCHEM_MOLECULAR_WEIGHT>
420.5

> <PUBCHEM_OPENEYE_CAN_SMILES>
CNC1CC2=C3C(=CC=C2)N(C(=O)N3C1)CCCCOC4=CC5=C(CCC(=O)N5)C=C4

> <PUBCHEM_OPENEYE_ISO_SMILES>
CN[C@@H]1CC2=C3C(=CC=C2)N(C(=O)N3C1)CCCCOC4=CC5=C(CCC(=O)N5)C=C4

> <PUBCHEM_CACTVS_TPSA>
73.9

> <PUBCHEM_MONOISOTOPIC_WEIGHT>
420.21614077

> <PUBCHEM_TOTAL_CHARGE>
0

> <PUBCHEM_HEAVY_ATOM_COUNT>
31

> <PUBCHEM_ATOM_DEF_STEREO_COUNT>
1

> <PUBCHEM_ATOM_UDEF_STEREO_COUNT>
0

> <PUBCHEM_BOND_DEF_STEREO_COUNT>
0

> <PUBCHEM_BOND_UDEF_STEREO_COUNT>
0

> <PUBCHEM_ISOTOPIC_ATOM_COUNT>
0

> <PUBCHEM_COMPONENT_COUNT>
1

> <PUBCHEM_CACTVS_TAUTO_COUNT>
-1

> <PUBCHEM_COORDINATE_TYPE>
1
5
255

> <PUBCHEM_BONDANNOTATIONS>
10  12  8
10  13  8
12  16  8
13  17  8
16  19  8
17  19  8
23  25  8
23  29  8
25  28  8
26  28  8
26  30  8
29  30  8
4  10  8
4  14  8
5  13  8
5  14  8
8  6  6

$$$$
