166630628
  -OEChem-09292322442D

 56 60  0     1  0  0  0  0  0999 V2000
    2.0000   -2.2216    0.0000 Cl  0  0  0  0  0  0  0  0  0  0  0  0
    7.1279   -1.2216    0.0000 S   0  0  0  0  0  0  0  0  0  0  0  0
    5.5443   -2.0263    0.0000 S   0  0  0  0  0  0  0  0  0  0  0  0
   17.2047    0.9814    0.0000 F   0  0  0  0  0  0  0  0  0  0  0  0
    7.1279   -0.2216    0.0000 O   0  0  0  0  0  0  0  0  0  0  0  0
    7.1279   -2.2216    0.0000 O   0  0  0  0  0  0  0  0  0  0  0  0
   14.2192   -0.9387    0.0000 O   0  0  0  0  0  0  0  0  0  0  0  0
    9.8303    0.7271    0.0000 N   0  0  3  0  0  0  0  0  0  0  0  0
    8.1279   -1.2216    0.0000 N   0  0  0  0  0  0  0  0  0  0  0  0
   13.2746   -0.6291    0.0000 N   0  0  0  0  0  0  0  0  0  0  0  0
    8.9643    1.2271    0.0000 C   0  0  2  0  0  0  0  0  0  0  0  0
    8.6279   -0.3556    0.0000 C   0  0  1  0  0  0  0  0  0  0  0  0
    8.2212    0.5580    0.0000 C   0  0  0  0  0  0  0  0  0  0  0  0
    9.6224   -0.2511    0.0000 C   0  0  0  0  0  0  0  0  0  0  0  0
   10.7439    1.1338    0.0000 C   0  0  0  0  0  0  0  0  0  0  0  0
    8.8598    2.2216    0.0000 C   0  0  0  0  0  0  0  0  0  0  0  0
   11.5529    0.5460    0.0000 C   0  0  0  0  0  0  0  0  0  0  0  0
   12.4664    0.9528    0.0000 C   0  0  0  0  0  0  0  0  0  0  0  0
    6.1279   -1.2216    0.0000 C   0  0  0  0  0  0  0  0  0  0  0  0
   13.2755    0.3650    0.0000 C   0  0  0  0  0  0  0  0  0  0  0  0
    5.5443   -0.4169    0.0000 C   0  0  0  0  0  0  0  0  0  0  0  0
   14.2206    0.6730    0.0000 C   0  0  0  0  0  0  0  0  0  0  0  0
    4.5981   -0.7216    0.0000 C   0  0  0  0  0  0  0  0  0  0  0  0
    4.5981   -1.7216    0.0000 C   0  0  0  0  0  0  0  0  0  0  0  0
   14.8070   -0.1370    0.0000 C   0  0  0  0  0  0  0  0  0  0  0  0
   14.6289    1.5858    0.0000 C   0  0  0  0  0  0  0  0  0  0  0  0
    3.7320   -0.2216    0.0000 C   0  0  0  0  0  0  0  0  0  0  0  0
    3.7320   -2.2216    0.0000 C   0  0  0  0  0  0  0  0  0  0  0  0
   15.8017   -0.0342    0.0000 C   0  0  0  0  0  0  0  0  0  0  0  0
   15.6236    1.6886    0.0000 C   0  0  0  0  0  0  0  0  0  0  0  0
    2.8660   -0.7216    0.0000 C   0  0  0  0  0  0  0  0  0  0  0  0
    2.8660   -1.7216    0.0000 C   0  0  0  0  0  0  0  0  0  0  0  0
   16.2100    0.8786    0.0000 C   0  0  0  0  0  0  0  0  0  0  0  0
    9.4843    1.5648    0.0000 H   0  0  0  0  0  0  0  0  0  0  0  0
    8.0087   -0.3231    0.0000 H   0  0  0  0  0  0  0  0  0  0  0  0
    7.8567    1.0596    0.0000 H   0  0  0  0  0  0  0  0  0  0  0  0
    7.6842    0.2480    0.0000 H   0  0  0  0  0  0  0  0  0  0  0  0
    9.6224   -0.8711    0.0000 H   0  0  0  0  0  0  0  0  0  0  0  0
   10.2390   -0.3159    0.0000 H   0  0  0  0  0  0  0  0  0  0  0  0
   11.1899    1.5645    0.0000 H   0  0  0  0  0  0  0  0  0  0  0  0
   10.3972    1.6478    0.0000 H   0  0  0  0  0  0  0  0  0  0  0  0
    9.4764    2.2864    0.0000 H   0  0  0  0  0  0  0  0  0  0  0  0
    8.7950    2.8382    0.0000 H   0  0  0  0  0  0  0  0  0  0  0  0
    8.2432    2.1568    0.0000 H   0  0  0  0  0  0  0  0  0  0  0  0
    8.4379   -1.7586    0.0000 H   0  0  0  0  0  0  0  0  0  0  0  0
   11.1069    0.1154    0.0000 H   0  0  0  0  0  0  0  0  0  0  0  0
   11.8996    0.0320    0.0000 H   0  0  0  0  0  0  0  0  0  0  0  0
   12.9124    1.3835    0.0000 H   0  0  0  0  0  0  0  0  0  0  0  0
   12.1197    1.4668    0.0000 H   0  0  0  0  0  0  0  0  0  0  0  0
    5.7369    0.1724    0.0000 H   0  0  0  0  0  0  0  0  0  0  0  0
   14.2654    2.0881    0.0000 H   0  0  0  0  0  0  0  0  0  0  0  0
    3.7320    0.3984    0.0000 H   0  0  0  0  0  0  0  0  0  0  0  0
    3.7320   -2.8416    0.0000 H   0  0  0  0  0  0  0  0  0  0  0  0
   16.1653   -0.5364    0.0000 H   0  0  0  0  0  0  0  0  0  0  0  0
   15.8768    2.2546    0.0000 H   0  0  0  0  0  0  0  0  0  0  0  0
    2.3291   -0.4116    0.0000 H   0  0  0  0  0  0  0  0  0  0  0  0
  1 32  1  0  0  0  0
  2  5  2  0  0  0  0
  2  6  2  0  0  0  0
  2  9  1  0  0  0  0
  2 19  1  0  0  0  0
  3 19  1  0  0  0  0
  3 24  1  0  0  0  0
  4 33  1  0  0  0  0
  7 10  1  0  0  0  0
  7 25  1  0  0  0  0
  8 11  1  0  0  0  0
  8 14  1  0  0  0  0
  8 15  1  0  0  0  0
 12  9  1  1  0  0  0
  9 45  1  0  0  0  0
 10 20  2  0  0  0  0
 11 13  1  0  0  0  0
 11 16  1  6  0  0  0
 11 34  1  0  0  0  0
 12 13  1  0  0  0  0
 12 14  1  0  0  0  0
 12 35  1  0  0  0  0
 13 36  1  0  0  0  0
 13 37  1  0  0  0  0
 14 38  1  0  0  0  0
 14 39  1  0  0  0  0
 15 17  1  0  0  0  0
 15 40  1  0  0  0  0
 15 41  1  0  0  0  0
 16 42  1  0  0  0  0
 16 43  1  0  0  0  0
 16 44  1  0  0  0  0
 17 18  1  0  0  0  0
 17 46  1  0  0  0  0
 17 47  1  0  0  0  0
 18 20  1  0  0  0  0
 18 48  1  0  0  0  0
 18 49  1  0  0  0  0
 19 21  2  0  0  0  0
 20 22  1  0  0  0  0
 21 23  1  0  0  0  0
 21 50  1  0  0  0  0
 22 25  2  0  0  0  0
 22 26  1  0  0  0  0
 23 24  2  0  0  0  0
 23 27  1  0  0  0  0
 24 28  1  0  0  0  0
 25 29  1  0  0  0  0
 26 30  2  0  0  0  0
 26 51  1  0  0  0  0
 27 31  2  0  0  0  0
 27 52  1  0  0  0  0
 28 32  2  0  0  0  0
 28 53  1  0  0  0  0
 29 33  2  0  0  0  0
 29 54  1  0  0  0  0
 30 33  1  0  0  0  0
 30 55  1  0  0  0  0
 31 32  1  0  0  0  0
 31 56  1  0  0  0  0
M  END
> <PUBCHEM_COMPOUND_CID>
166630628

> <PUBCHEM_COMPOUND_CANONICALIZED>
1

> <PUBCHEM_CACTVS_COMPLEXITY>
787

> <PUBCHEM_CACTVS_HBOND_ACCEPTOR>
8

> <PUBCHEM_CACTVS_HBOND_DONOR>
1

> <PUBCHEM_CACTVS_ROTATABLE_BOND>
7

> <PUBCHEM_CACTVS_SUBSKEYS>
AAADceB7MQBkAAAAAAAAAAAAAAAAAWLEgAAwYAAAAAAAAFgB/gAAHwYUQAAADC7B3iwyh9NQAAqtA6RyQnDDAZAkLRBomLk+TtoIZrqh15OUMYBm0BmoyceYyKCOBAAAABAMAAAIAAAAIBgAAAAAAAAAAA==

> <PUBCHEM_IUPAC_OPENEYE_NAME>
6-chloro-N-[(3S,5S)-1-[3-(6-fluoro-1,2-benzoxazol-3-yl)propyl]-5-methyl-pyrrolidin-3-yl]benzothiophene-2-sulfonamide

> <PUBCHEM_IUPAC_CAS_NAME>
6-chloro-N-[(3S,5S)-1-[3-(6-fluoro-1,2-benzoxazol-3-yl)propyl]-5-methyl-3-pyrrolidinyl]-1-benzothiophene-2-sulfonamide

> <PUBCHEM_IUPAC_NAME_MARKUP>
6-chloro-<I>N</I>-[(3<I>S</I>,5<I>S</I>)-1-[3-(6-fluoro-1,2-benzoxazol-3-yl)propyl]-5-methylpyrrolidin-3-yl]-1-benzothiophene-2-sulfonamide

> <PUBCHEM_IUPAC_NAME>
6-chloro-N-[(3S,5S)-1-[3-(6-fluoro-1,2-benzoxazol-3-yl)propyl]-5-methylpyrrolidin-3-yl]-1-benzothiophene-2-sulfonamide

> <PUBCHEM_IUPAC_SYSTEMATIC_NAME>
6-chloranyl-N-[(3S,5S)-1-[3-(6-fluoranyl-1,2-benzoxazol-3-yl)propyl]-5-methyl-pyrrolidin-3-yl]-1-benzothiophene-2-sulfonamide

> <PUBCHEM_IUPAC_TRADITIONAL_NAME>
6-chloro-N-[(3S,5S)-1-[3-(6-fluoroindoxazen-3-yl)propyl]-5-methyl-pyrrolidin-3-yl]benzothiophene-2-sulfonamide

> <PUBCHEM_IUPAC_INCHI>
InChI=1S/C23H23ClFN3O3S2/c1-14-9-18(27-33(29,30)23-10-15-4-5-16(24)11-22(15)32-23)13-28(14)8-2-3-20-19-7-6-17(25)12-21(19)31-26-20/h4-7,10-12,14,18,27H,2-3,8-9,13H2,1H3/t14-,18-/m0/s1

> <PUBCHEM_IUPAC_INCHIKEY>
XJRRFUVZISYAJG-KSSFIOAISA-N

> <PUBCHEM_XLOGP3_AA>
5.8

> <PUBCHEM_EXACT_MASS>
507.0853398

> <PUBCHEM_MOLECULAR_FORMULA>
C23H23ClFN3O3S2

> <PUBCHEM_MOLECULAR_WEIGHT>
508.0

> <PUBCHEM_OPENEYE_CAN_SMILES>
CC1CC(CN1CCCC2=NOC3=C2C=CC(=C3)F)NS(=O)(=O)C4=CC5=C(S4)C=C(C=C5)Cl

> <PUBCHEM_OPENEYE_ISO_SMILES>
C[C@H]1C[C@@H](CN1CCCC2=NOC3=C2C=CC(=C3)F)NS(=O)(=O)C4=CC5=C(S4)C=C(C=C5)Cl

> <PUBCHEM_CACTVS_TPSA>
112

> <PUBCHEM_MONOISOTOPIC_WEIGHT>
507.0853398

> <PUBCHEM_TOTAL_CHARGE>
0

> <PUBCHEM_HEAVY_ATOM_COUNT>
33

> <PUBCHEM_ATOM_DEF_STEREO_COUNT>
2

> <PUBCHEM_ATOM_UDEF_STEREO_COUNT>
0

> <PUBCHEM_BOND_DEF_STEREO_COUNT>
0

> <PUBCHEM_BOND_UDEF_STEREO_COUNT>
0

> <PUBCHEM_ISOTOPIC_ATOM_COUNT>
0

> <PUBCHEM_COMPONENT_COUNT>
1

> <PUBCHEM_CACTVS_TAUTO_COUNT>
-1

> <PUBCHEM_COORDINATE_TYPE>
1
5
255

> <PUBCHEM_BONDANNOTATIONS>
10  20  8
11  16  6
19  21  8
20  22  8
21  23  8
22  25  8
22  26  8
23  24  8
23  27  8
24  28  8
25  29  8
26  30  8
27  31  8
28  32  8
29  33  8
3  19  8
3  24  8
30  33  8
31  32  8
7  10  8
7  25  8
12  9  5

$$$$
