9847013
  -OEChem-09292322152D

 54 57  0     0  0  0  0  0  0999 V2000
    5.4641   -4.0000    0.0000 Cl  0  0  0  0  0  0  0  0  0  0  0  0
    2.0000   -4.0000    0.0000 Cl  0  0  0  0  0  0  0  0  0  0  0  0
    5.4641   -2.0000    0.0000 S   0  0  0  0  0  0  0  0  0  0  0  0
    9.7942    0.5000    0.0000 N   0  0  0  0  0  0  0  0  0  0  0  0
    7.1962   -1.0000    0.0000 N   0  0  0  0  0  0  0  0  0  0  0  0
    8.0622   -2.5000    0.0000 N   0  0  0  0  0  0  0  0  0  0  0  0
    7.1962   -4.0000    0.0000 N   0  0  0  0  0  0  0  0  0  0  0  0
    8.0622   -0.5000    0.0000 C   0  0  0  0  0  0  0  0  0  0  0  0
    8.9282   -1.0000    0.0000 C   0  0  0  0  0  0  0  0  0  0  0  0
    8.0622    0.5000    0.0000 C   0  0  0  0  0  0  0  0  0  0  0  0
    9.7942   -0.5000    0.0000 C   0  0  0  0  0  0  0  0  0  0  0  0
    8.9282    1.0000    0.0000 C   0  0  0  0  0  0  0  0  0  0  0  0
   10.6603    1.0000    0.0000 C   0  0  0  0  0  0  0  0  0  0  0  0
   10.6603    2.0000    0.0000 C   0  0  0  0  0  0  0  0  0  0  0  0
    7.1962   -2.0000    0.0000 C   0  0  0  0  0  0  0  0  0  0  0  0
   11.5263    2.5000    0.0000 C   0  0  0  0  0  0  0  0  0  0  0  0
    9.7942    2.5000    0.0000 C   0  0  0  0  0  0  0  0  0  0  0  0
    6.3301   -2.5000    0.0000 C   0  0  0  0  0  0  0  0  0  0  0  0
   11.5263    3.5000    0.0000 C   0  0  0  0  0  0  0  0  0  0  0  0
    9.7942    3.5000    0.0000 C   0  0  0  0  0  0  0  0  0  0  0  0
    6.3301   -3.5000    0.0000 C   0  0  0  0  0  0  0  0  0  0  0  0
    8.0622   -3.5000    0.0000 C   0  0  0  0  0  0  0  0  0  0  0  0
   10.6603    4.0000    0.0000 C   0  0  0  0  0  0  0  0  0  0  0  0
    8.9282   -4.0000    0.0000 C   0  0  0  0  0  0  0  0  0  0  0  0
    4.5981   -2.5000    0.0000 C   0  0  0  0  0  0  0  0  0  0  0  0
    4.5981   -3.5000    0.0000 C   0  0  0  0  0  0  0  0  0  0  0  0
    3.7320   -2.0000    0.0000 C   0  0  0  0  0  0  0  0  0  0  0  0
    3.7320   -4.0000    0.0000 C   0  0  0  0  0  0  0  0  0  0  0  0
    2.8660   -2.5000    0.0000 C   0  0  0  0  0  0  0  0  0  0  0  0
    2.8660   -3.5000    0.0000 C   0  0  0  0  0  0  0  0  0  0  0  0
    8.0622   -1.1200    0.0000 H   0  0  0  0  0  0  0  0  0  0  0  0
    8.5297   -1.4750    0.0000 H   0  0  0  0  0  0  0  0  0  0  0  0
    9.3267   -1.4750    0.0000 H   0  0  0  0  0  0  0  0  0  0  0  0
    7.8501    1.0826    0.0000 H   0  0  0  0  0  0  0  0  0  0  0  0
    7.4516    0.3923    0.0000 H   0  0  0  0  0  0  0  0  0  0  0  0
   10.0063   -1.0826    0.0000 H   0  0  0  0  0  0  0  0  0  0  0  0
   10.4048   -0.3923    0.0000 H   0  0  0  0  0  0  0  0  0  0  0  0
    9.3267    1.4750    0.0000 H   0  0  0  0  0  0  0  0  0  0  0  0
    8.5297    1.4750    0.0000 H   0  0  0  0  0  0  0  0  0  0  0  0
   10.8723    0.4174    0.0000 H   0  0  0  0  0  0  0  0  0  0  0  0
   11.2708    1.1077    0.0000 H   0  0  0  0  0  0  0  0  0  0  0  0
    6.6592   -0.6900    0.0000 H   0  0  0  0  0  0  0  0  0  0  0  0
   12.0632    2.1900    0.0000 H   0  0  0  0  0  0  0  0  0  0  0  0
    9.2573    2.1900    0.0000 H   0  0  0  0  0  0  0  0  0  0  0  0
   12.0632    3.8100    0.0000 H   0  0  0  0  0  0  0  0  0  0  0  0
    9.2573    3.8100    0.0000 H   0  0  0  0  0  0  0  0  0  0  0  0
   10.6603    4.6200    0.0000 H   0  0  0  0  0  0  0  0  0  0  0  0
    8.6182   -4.5369    0.0000 H   0  0  0  0  0  0  0  0  0  0  0  0
    9.4651   -4.3100    0.0000 H   0  0  0  0  0  0  0  0  0  0  0  0
    9.2382   -3.4631    0.0000 H   0  0  0  0  0  0  0  0  0  0  0  0
    5.1350   -3.8100    0.0000 H   0  0  0  0  0  0  0  0  0  0  0  0
    3.7320   -1.3800    0.0000 H   0  0  0  0  0  0  0  0  0  0  0  0
    3.7320   -4.6200    0.0000 H   0  0  0  0  0  0  0  0  0  0  0  0
    2.3291   -2.1900    0.0000 H   0  0  0  0  0  0  0  0  0  0  0  0
  1 21  1  0  0  0  0
  2 30  1  0  0  0  0
  3 18  1  0  0  0  0
  3 25  1  0  0  0  0
  4 11  1  0  0  0  0
  4 12  1  0  0  0  0
  4 13  1  0  0  0  0
  5  8  1  0  0  0  0
  5 15  1  0  0  0  0
  5 42  1  0  0  0  0
  6 15  1  0  0  0  0
  6 22  2  0  0  0  0
  7 21  2  0  0  0  0
  7 22  1  0  0  0  0
  8  9  1  0  0  0  0
  8 10  1  0  0  0  0
  8 31  1  0  0  0  0
  9 11  1  0  0  0  0
  9 32  1  0  0  0  0
  9 33  1  0  0  0  0
 10 12  1  0  0  0  0
 10 34  1  0  0  0  0
 10 35  1  0  0  0  0
 11 36  1  0  0  0  0
 11 37  1  0  0  0  0
 12 38  1  0  0  0  0
 12 39  1  0  0  0  0
 13 14  1  0  0  0  0
 13 40  1  0  0  0  0
 13 41  1  0  0  0  0
 14 16  2  0  0  0  0
 14 17  1  0  0  0  0
 15 18  2  0  0  0  0
 16 19  1  0  0  0  0
 16 43  1  0  0  0  0
 17 20  2  0  0  0  0
 17 44  1  0  0  0  0
 18 21  1  0  0  0  0
 19 23  2  0  0  0  0
 19 45  1  0  0  0  0
 20 23  1  0  0  0  0
 20 46  1  0  0  0  0
 22 24  1  0  0  0  0
 23 47  1  0  0  0  0
 24 48  1  0  0  0  0
 24 49  1  0  0  0  0
 24 50  1  0  0  0  0
 25 26  2  0  0  0  0
 25 27  1  0  0  0  0
 26 28  1  0  0  0  0
 26 51  1  0  0  0  0
 27 29  2  0  0  0  0
 27 52  1  0  0  0  0
 28 30  2  0  0  0  0
 28 53  1  0  0  0  0
 29 30  1  0  0  0  0
 29 54  1  0  0  0  0
M  END
> <PUBCHEM_COMPOUND_CID>
9847013

> <PUBCHEM_COMPOUND_CANONICALIZED>
1

> <PUBCHEM_CACTVS_COMPLEXITY>
505

> <PUBCHEM_CACTVS_HBOND_ACCEPTOR>
5

> <PUBCHEM_CACTVS_HBOND_DONOR>
1

> <PUBCHEM_CACTVS_ROTATABLE_BOND>
6

> <PUBCHEM_CACTVS_SUBSKEYS>
AAADceB7gABGAAAAAAAAAAAAAAAAAAAAAAA8eIEAAAAAAAAB0AAAHAYQAAAADCrBWyQzsZfIEAigAiJiZACCgCkhDbAJmLw4RpiIKCLh21GEJAhokALoiCcQgAAOAAIAAAAAAAAABAAAAAAAAAAAAAAAAA==

> <PUBCHEM_IUPAC_OPENEYE_NAME>
N-(1-benzyl-4-piperidyl)-6-chloro-5-(4-chlorophenyl)sulfanyl-2-methyl-pyrimidin-4-amine

> <PUBCHEM_IUPAC_CAS_NAME>
6-chloro-5-[(4-chlorophenyl)thio]-2-methyl-N-[1-(phenylmethyl)-4-piperidinyl]-4-pyrimidinamine

> <PUBCHEM_IUPAC_NAME_MARKUP>
<I>N</I>-(1-benzylpiperidin-4-yl)-6-chloro-5-(4-chlorophenyl)sulfanyl-2-methylpyrimidin-4-amine

> <PUBCHEM_IUPAC_NAME>
N-(1-benzylpiperidin-4-yl)-6-chloro-5-(4-chlorophenyl)sulfanyl-2-methylpyrimidin-4-amine

> <PUBCHEM_IUPAC_SYSTEMATIC_NAME>
6-chloranyl-5-(4-chlorophenyl)sulfanyl-2-methyl-N-[1-(phenylmethyl)piperidin-4-yl]pyrimidin-4-amine

> <PUBCHEM_IUPAC_TRADITIONAL_NAME>
(1-benzyl-4-piperidyl)-[6-chloro-5-[(4-chlorophenyl)thio]-2-methyl-pyrimidin-4-yl]amine

> <PUBCHEM_IUPAC_INCHI>
InChI=1S/C23H24Cl2N4S/c1-16-26-22(25)21(30-20-9-7-18(24)8-10-20)23(27-16)28-19-11-13-29(14-12-19)15-17-5-3-2-4-6-17/h2-10,19H,11-15H2,1H3,(H,26,27,28)

> <PUBCHEM_IUPAC_INCHIKEY>
AYHUGSDYEPBTFK-UHFFFAOYSA-N

> <PUBCHEM_XLOGP3_AA>
6.7

> <PUBCHEM_EXACT_MASS>
458.1098733

> <PUBCHEM_MOLECULAR_FORMULA>
C23H24Cl2N4S

> <PUBCHEM_MOLECULAR_WEIGHT>
459.4

> <PUBCHEM_OPENEYE_CAN_SMILES>
CC1=NC(=C(C(=N1)Cl)SC2=CC=C(C=C2)Cl)NC3CCN(CC3)CC4=CC=CC=C4

> <PUBCHEM_OPENEYE_ISO_SMILES>
CC1=NC(=C(C(=N1)Cl)SC2=CC=C(C=C2)Cl)NC3CCN(CC3)CC4=CC=CC=C4

> <PUBCHEM_CACTVS_TPSA>
66.4

> <PUBCHEM_MONOISOTOPIC_WEIGHT>
458.1098733

> <PUBCHEM_TOTAL_CHARGE>
0

> <PUBCHEM_HEAVY_ATOM_COUNT>
30

> <PUBCHEM_ATOM_DEF_STEREO_COUNT>
0

> <PUBCHEM_ATOM_UDEF_STEREO_COUNT>
0

> <PUBCHEM_BOND_DEF_STEREO_COUNT>
0

> <PUBCHEM_BOND_UDEF_STEREO_COUNT>
0

> <PUBCHEM_ISOTOPIC_ATOM_COUNT>
0

> <PUBCHEM_COMPONENT_COUNT>
1

> <PUBCHEM_CACTVS_TAUTO_COUNT>
-1

> <PUBCHEM_COORDINATE_TYPE>
1
5
255

> <PUBCHEM_BONDANNOTATIONS>
14  16  8
14  17  8
15  18  8
16  19  8
17  20  8
18  21  8
19  23  8
20  23  8
25  26  8
25  27  8
26  28  8
27  29  8
28  30  8
29  30  8
6  15  8
6  22  8
7  21  8
7  22  8

$$$$
