44324802
  -OEChem-09292322222D

 79 82  0     1  0  0  0  0  0999 V2000
    7.2115    1.5000    0.0000 O   0  0  0  0  0  0  0  0  0  0  0  0
   12.4038    0.4800    0.0000 N   0  0  3  0  0  0  0  0  0  0  0  0
   15.9339   -1.5442    0.0000 N   0  0  0  0  0  0  0  0  0  0  0  0
   16.7999   -0.0442    0.0000 N   0  0  0  0  0  0  0  0  0  0  0  0
    8.0718   -0.0033    0.0000 N   0  0  0  0  0  0  0  0  0  0  0  0
   13.2679   -0.0234    0.0000 C   0  0  3  0  0  0  0  0  0  0  0  0
   13.2679   -1.0650    0.0000 C   0  0  0  0  0  0  0  0  0  0  0  0
   14.1740    0.4905    0.0000 C   0  0  0  0  0  0  0  0  0  0  0  0
   14.1740   -1.5788    0.0000 C   0  0  0  0  0  0  0  0  0  0  0  0
   15.0679   -0.0442    0.0000 C   0  0  0  0  0  0  0  0  0  0  0  0
   15.0679   -1.0442    0.0000 C   0  0  0  0  0  0  0  0  0  0  0  0
   11.5358   -0.0167    0.0000 C   0  0  0  0  0  0  0  0  0  0  0  0
   12.4076    1.4800    0.0000 C   0  0  0  0  0  0  0  0  0  0  0  0
   10.6718    0.4866    0.0000 C   0  0  0  0  0  0  0  0  0  0  0  0
   11.5436    1.9833    0.0000 C   0  0  0  0  0  0  0  0  0  0  0  0
   15.9339    0.4558    0.0000 C   0  0  0  0  0  0  0  0  0  0  0  0
   17.6660   -1.5442    0.0000 C   0  0  0  0  0  0  0  0  0  0  0  0
   16.7999   -1.0442    0.0000 C   0  0  0  0  0  0  0  0  0  0  0  0
    9.8038   -0.0100    0.0000 C   0  0  0  0  0  0  0  0  0  0  0  0
   11.5474    2.9833    0.0000 C   0  0  0  0  0  0  0  0  0  0  0  0
    8.9397    0.4933    0.0000 C   0  0  0  0  0  0  0  0  0  0  0  0
   18.5320   -2.0442    0.0000 C   0  0  0  0  0  0  0  0  0  0  0  0
   18.1660   -0.6782    0.0000 C   0  0  0  0  0  0  0  0  0  0  0  0
   17.1660   -2.4102    0.0000 C   0  0  0  0  0  0  0  0  0  0  0  0
    7.2077    0.5000    0.0000 C   0  0  0  0  0  0  0  0  0  0  0  0
    6.3397    0.0033    0.0000 C   0  0  0  0  0  0  0  0  0  0  0  0
    6.3359   -0.9967    0.0000 C   0  0  0  0  0  0  0  0  0  0  0  0
    5.4756    0.5067    0.0000 C   0  0  0  0  0  0  0  0  0  0  0  0
    5.4679   -1.4933    0.0000 C   0  0  0  0  0  0  0  0  0  0  0  0
    4.6077    0.0100    0.0000 C   0  0  0  0  0  0  0  0  0  0  0  0
    4.6038   -0.9900    0.0000 C   0  0  0  0  0  0  0  0  0  0  0  0
    3.7359   -1.4866    0.0000 C   0  0  0  0  0  0  0  0  0  0  0  0
    2.8718   -0.9833    0.0000 C   0  0  0  0  0  0  0  0  0  0  0  0
    3.7320   -2.4866    0.0000 C   0  0  0  0  0  0  0  0  0  0  0  0
    2.0038   -1.4800    0.0000 C   0  0  0  0  0  0  0  0  0  0  0  0
    2.8641   -2.9833    0.0000 C   0  0  0  0  0  0  0  0  0  0  0  0
    2.0000   -2.4800    0.0000 C   0  0  0  0  0  0  0  0  0  0  0  0
   13.2715    0.5966    0.0000 H   0  0  0  0  0  0  0  0  0  0  0  0
   12.6570   -0.9589    0.0000 H   0  0  0  0  0  0  0  0  0  0  0  0
   13.0588   -1.6487    0.0000 H   0  0  0  0  0  0  0  0  0  0  0  0
   14.5785    0.9603    0.0000 H   0  0  0  0  0  0  0  0  0  0  0  0
   13.7803    0.9695    0.0000 H   0  0  0  0  0  0  0  0  0  0  0  0
   13.7803   -2.0579    0.0000 H   0  0  0  0  0  0  0  0  0  0  0  0
   14.5785   -2.0486    0.0000 H   0  0  0  0  0  0  0  0  0  0  0  0
   11.1355   -0.4901    0.0000 H   0  0  0  0  0  0  0  0  0  0  0  0
   11.9325   -0.4932    0.0000 H   0  0  0  0  0  0  0  0  0  0  0  0
   13.0178    1.3700    0.0000 H   0  0  0  0  0  0  0  0  0  0  0  0
   12.6219    2.0618    0.0000 H   0  0  0  0  0  0  0  0  0  0  0  0
   11.0721    0.9601    0.0000 H   0  0  0  0  0  0  0  0  0  0  0  0
   10.2751    0.9631    0.0000 H   0  0  0  0  0  0  0  0  0  0  0  0
   10.9334    2.0933    0.0000 H   0  0  0  0  0  0  0  0  0  0  0  0
   11.3293    1.4015    0.0000 H   0  0  0  0  0  0  0  0  0  0  0  0
   15.9339    1.0758    0.0000 H   0  0  0  0  0  0  0  0  0  0  0  0
    9.4034   -0.4834    0.0000 H   0  0  0  0  0  0  0  0  0  0  0  0
   10.2005   -0.4865    0.0000 H   0  0  0  0  0  0  0  0  0  0  0  0
   12.1674    2.9809    0.0000 H   0  0  0  0  0  0  0  0  0  0  0  0
   11.5498    3.6033    0.0000 H   0  0  0  0  0  0  0  0  0  0  0  0
   10.9274    2.9857    0.0000 H   0  0  0  0  0  0  0  0  0  0  0  0
    9.3401    0.9667    0.0000 H   0  0  0  0  0  0  0  0  0  0  0  0
    8.5430    0.9698    0.0000 H   0  0  0  0  0  0  0  0  0  0  0  0
   18.2220   -2.5811    0.0000 H   0  0  0  0  0  0  0  0  0  0  0  0
   19.0689   -2.3542    0.0000 H   0  0  0  0  0  0  0  0  0  0  0  0
   18.8420   -1.5072    0.0000 H   0  0  0  0  0  0  0  0  0  0  0  0
   18.7029   -0.9882    0.0000 H   0  0  0  0  0  0  0  0  0  0  0  0
   18.4760   -0.1412    0.0000 H   0  0  0  0  0  0  0  0  0  0  0  0
   17.6290   -0.3682    0.0000 H   0  0  0  0  0  0  0  0  0  0  0  0
   16.6290   -2.1002    0.0000 H   0  0  0  0  0  0  0  0  0  0  0  0
   16.8560   -2.9471    0.0000 H   0  0  0  0  0  0  0  0  0  0  0  0
   17.7029   -2.7202    0.0000 H   0  0  0  0  0  0  0  0  0  0  0  0
    8.0694   -0.6233    0.0000 H   0  0  0  0  0  0  0  0  0  0  0  0
    6.8716   -1.3087    0.0000 H   0  0  0  0  0  0  0  0  0  0  0  0
    5.4780    1.1267    0.0000 H   0  0  0  0  0  0  0  0  0  0  0  0
    5.4655   -2.1133    0.0000 H   0  0  0  0  0  0  0  0  0  0  0  0
    4.0720    0.3221    0.0000 H   0  0  0  0  0  0  0  0  0  0  0  0
    2.8742   -0.3633    0.0000 H   0  0  0  0  0  0  0  0  0  0  0  0
    4.2678   -2.7987    0.0000 H   0  0  0  0  0  0  0  0  0  0  0  0
    1.4681   -1.1679    0.0000 H   0  0  0  0  0  0  0  0  0  0  0  0
    2.8617   -3.6033    0.0000 H   0  0  0  0  0  0  0  0  0  0  0  0
    1.4619   -2.7879    0.0000 H   0  0  0  0  0  0  0  0  0  0  0  0
  1 25  2  0  0  0  0
  2  6  1  0  0  0  0
  2 12  1  0  0  0  0
  2 13  1  0  0  0  0
  3 11  2  0  0  0  0
  3 18  1  0  0  0  0
  4 16  1  0  0  0  0
  4 18  2  0  0  0  0
  5 21  1  0  0  0  0
  5 25  1  0  0  0  0
  5 70  1  0  0  0  0
  6  7  1  0  0  0  0
  6  8  1  0  0  0  0
  6 38  1  0  0  0  0
  7  9  1  0  0  0  0
  7 39  1  0  0  0  0
  7 40  1  0  0  0  0
  8 10  1  0  0  0  0
  8 41  1  0  0  0  0
  8 42  1  0  0  0  0
  9 11  1  0  0  0  0
  9 43  1  0  0  0  0
  9 44  1  0  0  0  0
 10 11  1  0  0  0  0
 10 16  2  0  0  0  0
 12 14  1  0  0  0  0
 12 45  1  0  0  0  0
 12 46  1  0  0  0  0
 13 15  1  0  0  0  0
 13 47  1  0  0  0  0
 13 48  1  0  0  0  0
 14 19  1  0  0  0  0
 14 49  1  0  0  0  0
 14 50  1  0  0  0  0
 15 20  1  0  0  0  0
 15 51  1  0  0  0  0
 15 52  1  0  0  0  0
 16 53  1  0  0  0  0
 17 18  1  0  0  0  0
 17 22  1  0  0  0  0
 17 23  1  0  0  0  0
 17 24  1  0  0  0  0
 19 21  1  0  0  0  0
 19 54  1  0  0  0  0
 19 55  1  0  0  0  0
 20 56  1  0  0  0  0
 20 57  1  0  0  0  0
 20 58  1  0  0  0  0
 21 59  1  0  0  0  0
 21 60  1  0  0  0  0
 22 61  1  0  0  0  0
 22 62  1  0  0  0  0
 22 63  1  0  0  0  0
 23 64  1  0  0  0  0
 23 65  1  0  0  0  0
 23 66  1  0  0  0  0
 24 67  1  0  0  0  0
 24 68  1  0  0  0  0
 24 69  1  0  0  0  0
 25 26  1  0  0  0  0
 26 27  2  0  0  0  0
 26 28  1  0  0  0  0
 27 29  1  0  0  0  0
 27 71  1  0  0  0  0
 28 30  2  0  0  0  0
 28 72  1  0  0  0  0
 29 31  2  0  0  0  0
 29 73  1  0  0  0  0
 30 31  1  0  0  0  0
 30 74  1  0  0  0  0
 31 32  1  0  0  0  0
 32 33  2  0  0  0  0
 32 34  1  0  0  0  0
 33 35  1  0  0  0  0
 33 75  1  0  0  0  0
 34 36  2  0  0  0  0
 34 76  1  0  0  0  0
 35 37  2  0  0  0  0
 35 77  1  0  0  0  0
 36 37  1  0  0  0  0
 36 78  1  0  0  0  0
 37 79  1  0  0  0  0
M  END
> <PUBCHEM_COMPOUND_CID>
44324802

> <PUBCHEM_COMPOUND_CANONICALIZED>
1

> <PUBCHEM_CACTVS_COMPLEXITY>
677

> <PUBCHEM_CACTVS_HBOND_ACCEPTOR>
4

> <PUBCHEM_CACTVS_HBOND_DONOR>
1

> <PUBCHEM_CACTVS_ROTATABLE_BOND>
11

> <PUBCHEM_CACTVS_SUBSKEYS>
AAADcfB/oAAAAAAAAAAAAAAAAAAAAAAAAAA8YMEAAAAAAACx0AAAHgAQAAAADijBnwQ/kJfIEACoAzd3dACCgCk1AKAJ2KE4RNiIKLLA3dGEJQholgLIyacYiMCOwAAAAAAAAACAAQCAAAQAAAAAAAAAAA==

> <PUBCHEM_IUPAC_OPENEYE_NAME>
N-[4-[(2-tert-butyl-5,6,7,8-tetrahydroquinazolin-6-yl)-propyl-amino]butyl]-4-phenyl-benzamide

> <PUBCHEM_IUPAC_CAS_NAME>
N-[4-[(2-tert-butyl-5,6,7,8-tetrahydroquinazolin-6-yl)-propylamino]butyl]-4-phenylbenzamide

> <PUBCHEM_IUPAC_NAME_MARKUP>
<I>N</I>-[4-[(2-<I>tert</I>-butyl-5,6,7,8-tetrahydroquinazolin-6-yl)-propylamino]butyl]-4-phenylbenzamide

> <PUBCHEM_IUPAC_NAME>
N-[4-[(2-tert-butyl-5,6,7,8-tetrahydroquinazolin-6-yl)-propylamino]butyl]-4-phenylbenzamide

> <PUBCHEM_IUPAC_SYSTEMATIC_NAME>
N-[4-[(2-tert-butyl-5,6,7,8-tetrahydroquinazolin-6-yl)-propyl-amino]butyl]-4-phenyl-benzamide

> <PUBCHEM_IUPAC_TRADITIONAL_NAME>
N-[4-[(2-tert-butyl-5,6,7,8-tetrahydroquinazolin-6-yl)-propyl-amino]butyl]-4-phenyl-benzamide

> <PUBCHEM_IUPAC_INCHI>
InChI=1S/C32H42N4O/c1-5-20-36(28-17-18-29-27(22-28)23-34-31(35-29)32(2,3)4)21-10-9-19-33-30(37)26-15-13-25(14-16-26)24-11-7-6-8-12-24/h6-8,11-16,23,28H,5,9-10,17-22H2,1-4H3,(H,33,37)

> <PUBCHEM_IUPAC_INCHIKEY>
KWNJMHODRWLBPT-UHFFFAOYSA-N

> <PUBCHEM_XLOGP3_AA>
6.9

> <PUBCHEM_EXACT_MASS>
498.33586198

> <PUBCHEM_MOLECULAR_FORMULA>
C32H42N4O

> <PUBCHEM_MOLECULAR_WEIGHT>
498.7

> <PUBCHEM_OPENEYE_CAN_SMILES>
CCCN(CCCCNC(=O)C1=CC=C(C=C1)C2=CC=CC=C2)C3CCC4=NC(=NC=C4C3)C(C)(C)C

> <PUBCHEM_OPENEYE_ISO_SMILES>
CCCN(CCCCNC(=O)C1=CC=C(C=C1)C2=CC=CC=C2)C3CCC4=NC(=NC=C4C3)C(C)(C)C

> <PUBCHEM_CACTVS_TPSA>
58.1

> <PUBCHEM_MONOISOTOPIC_WEIGHT>
498.33586198

> <PUBCHEM_TOTAL_CHARGE>
0

> <PUBCHEM_HEAVY_ATOM_COUNT>
37

> <PUBCHEM_ATOM_DEF_STEREO_COUNT>
0

> <PUBCHEM_ATOM_UDEF_STEREO_COUNT>
1

> <PUBCHEM_BOND_DEF_STEREO_COUNT>
0

> <PUBCHEM_BOND_UDEF_STEREO_COUNT>
0

> <PUBCHEM_ISOTOPIC_ATOM_COUNT>
0

> <PUBCHEM_COMPONENT_COUNT>
1

> <PUBCHEM_CACTVS_TAUTO_COUNT>
-1

> <PUBCHEM_COORDINATE_TYPE>
1
5
255

> <PUBCHEM_BONDANNOTATIONS>
10  11  8
10  16  8
6  2  3
26  27  8
26  28  8
27  29  8
28  30  8
29  31  8
3  11  8
3  18  8
30  31  8
32  33  8
32  34  8
33  35  8
34  36  8
35  37  8
36  37  8
4  16  8
4  18  8

$$$$
