25107582
  -OEChem-09292322232D

 74 76  0     0  0  0  0  0  0999 V2000
    8.9282    7.3170    0.0000 S   0  0  0  0  0  0  0  0  0  0  0  0
    8.0622    0.8170    0.0000 O   0  0  0  0  0  0  0  0  0  0  0  0
    8.0622    6.8170    0.0000 O   0  0  0  0  0  0  0  0  0  0  0  0
    8.4282    8.1830    0.0000 O   0  0  0  0  0  0  0  0  0  0  0  0
    9.4282    6.4510    0.0000 O   0  0  0  0  0  0  0  0  0  0  0  0
    4.5981   -3.1830    0.0000 N   0  0  0  0  0  0  0  0  0  0  0  0
    4.5981   -5.1830    0.0000 N   0  0  0  0  0  0  0  0  0  0  0  0
    7.1962    2.3170    0.0000 N   0  0  0  0  0  0  0  0  0  0  0  0
    3.7320   -3.6830    0.0000 C   0  0  0  0  0  0  0  0  0  0  0  0
    5.4641   -3.6830    0.0000 C   0  0  0  0  0  0  0  0  0  0  0  0
    3.7320   -4.6830    0.0000 C   0  0  0  0  0  0  0  0  0  0  0  0
    5.4641   -4.6830    0.0000 C   0  0  0  0  0  0  0  0  0  0  0  0
    4.5981   -2.1830    0.0000 C   0  0  0  0  0  0  0  0  0  0  0  0
    5.4641   -1.6830    0.0000 C   0  0  0  0  0  0  0  0  0  0  0  0
    4.5981   -6.1830    0.0000 C   0  0  0  0  0  0  0  0  0  0  0  0
    5.4641   -0.6830    0.0000 C   0  0  0  0  0  0  0  0  0  0  0  0
    3.7320   -6.6830    0.0000 C   0  0  0  0  0  0  0  0  0  0  0  0
    2.8660   -6.1830    0.0000 C   0  0  0  0  0  0  0  0  0  0  0  0
    6.3301   -0.1830    0.0000 C   0  0  0  0  0  0  0  0  0  0  0  0
    5.4641   -6.6830    0.0000 C   0  0  0  0  0  0  0  0  0  0  0  0
    3.7320   -7.6830    0.0000 C   0  0  0  0  0  0  0  0  0  0  0  0
    6.3301    0.8170    0.0000 C   0  0  0  0  0  0  0  0  0  0  0  0
    2.0000   -6.6830    0.0000 C   0  0  0  0  0  0  0  0  0  0  0  0
    2.8660   -5.1830    0.0000 C   0  0  0  0  0  0  0  0  0  0  0  0
    5.4641   -7.6830    0.0000 C   0  0  0  0  0  0  0  0  0  0  0  0
    4.5981   -8.1830    0.0000 C   0  0  0  0  0  0  0  0  0  0  0  0
    7.1962    1.3170    0.0000 C   0  0  0  0  0  0  0  0  0  0  0  0
    8.0622    2.8170    0.0000 C   0  0  0  0  0  0  0  0  0  0  0  0
    8.0622    3.8170    0.0000 C   0  0  0  0  0  0  0  0  0  0  0  0
    7.1962    4.3170    0.0000 C   0  0  0  0  0  0  0  0  0  0  0  0
    8.9282    4.3170    0.0000 C   0  0  0  0  0  0  0  0  0  0  0  0
    7.1962    5.3170    0.0000 C   0  0  0  0  0  0  0  0  0  0  0  0
    8.9282    5.3170    0.0000 C   0  0  0  0  0  0  0  0  0  0  0  0
    8.0622    5.8170    0.0000 C   0  0  0  0  0  0  0  0  0  0  0  0
    9.7942    7.8170    0.0000 C   0  0  0  0  0  0  0  0  0  0  0  0
    3.5200   -3.1004    0.0000 H   0  0  0  0  0  0  0  0  0  0  0  0
    3.1215   -3.7907    0.0000 H   0  0  0  0  0  0  0  0  0  0  0  0
    6.0747   -3.7907    0.0000 H   0  0  0  0  0  0  0  0  0  0  0  0
    5.6762   -3.1004    0.0000 H   0  0  0  0  0  0  0  0  0  0  0  0
    3.1215   -4.5754    0.0000 H   0  0  0  0  0  0  0  0  0  0  0  0
    3.5200   -5.2656    0.0000 H   0  0  0  0  0  0  0  0  0  0  0  0
    5.6762   -5.2656    0.0000 H   0  0  0  0  0  0  0  0  0  0  0  0
    6.0747   -4.5754    0.0000 H   0  0  0  0  0  0  0  0  0  0  0  0
    4.3860   -1.6004    0.0000 H   0  0  0  0  0  0  0  0  0  0  0  0
    3.9875   -2.2907    0.0000 H   0  0  0  0  0  0  0  0  0  0  0  0
    5.6762   -2.2656    0.0000 H   0  0  0  0  0  0  0  0  0  0  0  0
    6.0747   -1.5754    0.0000 H   0  0  0  0  0  0  0  0  0  0  0  0
    5.2520   -0.1004    0.0000 H   0  0  0  0  0  0  0  0  0  0  0  0
    4.8535   -0.7907    0.0000 H   0  0  0  0  0  0  0  0  0  0  0  0
    2.8660   -6.8030    0.0000 H   0  0  0  0  0  0  0  0  0  0  0  0
    6.5422   -0.7656    0.0000 H   0  0  0  0  0  0  0  0  0  0  0  0
    6.9407   -0.0754    0.0000 H   0  0  0  0  0  0  0  0  0  0  0  0
    6.0010   -6.3730    0.0000 H   0  0  0  0  0  0  0  0  0  0  0  0
    3.1951   -7.9930    0.0000 H   0  0  0  0  0  0  0  0  0  0  0  0
    6.1181    1.3996    0.0000 H   0  0  0  0  0  0  0  0  0  0  0  0
    5.7196    0.7093    0.0000 H   0  0  0  0  0  0  0  0  0  0  0  0
    1.6900   -6.1461    0.0000 H   0  0  0  0  0  0  0  0  0  0  0  0
    1.4631   -6.9930    0.0000 H   0  0  0  0  0  0  0  0  0  0  0  0
    2.3100   -7.2200    0.0000 H   0  0  0  0  0  0  0  0  0  0  0  0
    3.4860   -5.1830    0.0000 H   0  0  0  0  0  0  0  0  0  0  0  0
    2.8660   -4.5630    0.0000 H   0  0  0  0  0  0  0  0  0  0  0  0
    2.2460   -5.1830    0.0000 H   0  0  0  0  0  0  0  0  0  0  0  0
    6.0010   -7.9930    0.0000 H   0  0  0  0  0  0  0  0  0  0  0  0
    4.5981   -8.8030    0.0000 H   0  0  0  0  0  0  0  0  0  0  0  0
    6.6592    2.6270    0.0000 H   0  0  0  0  0  0  0  0  0  0  0  0
    8.2742    2.2344    0.0000 H   0  0  0  0  0  0  0  0  0  0  0  0
    8.6728    2.9247    0.0000 H   0  0  0  0  0  0  0  0  0  0  0  0
    6.6592    4.0070    0.0000 H   0  0  0  0  0  0  0  0  0  0  0  0
    9.4651    4.0070    0.0000 H   0  0  0  0  0  0  0  0  0  0  0  0
    6.6592    5.6270    0.0000 H   0  0  0  0  0  0  0  0  0  0  0  0
    9.4651    5.6270    0.0000 H   0  0  0  0  0  0  0  0  0  0  0  0
   10.1042    7.2800    0.0000 H   0  0  0  0  0  0  0  0  0  0  0  0
   10.3312    8.1270    0.0000 H   0  0  0  0  0  0  0  0  0  0  0  0
    9.4842    8.3539    0.0000 H   0  0  0  0  0  0  0  0  0  0  0  0
  1  3  1  0  0  0  0
  1  4  2  0  0  0  0
  1  5  2  0  0  0  0
  1 35  1  0  0  0  0
  2 27  2  0  0  0  0
  3 34  1  0  0  0  0
  6  9  1  0  0  0  0
  6 10  1  0  0  0  0
  6 13  1  0  0  0  0
  7 11  1  0  0  0  0
  7 12  1  0  0  0  0
  7 15  1  0  0  0  0
  8 27  1  0  0  0  0
  8 28  1  0  0  0  0
  8 65  1  0  0  0  0
  9 11  1  0  0  0  0
  9 36  1  0  0  0  0
  9 37  1  0  0  0  0
 10 12  1  0  0  0  0
 10 38  1  0  0  0  0
 10 39  1  0  0  0  0
 11 40  1  0  0  0  0
 11 41  1  0  0  0  0
 12 42  1  0  0  0  0
 12 43  1  0  0  0  0
 13 14  1  0  0  0  0
 13 44  1  0  0  0  0
 13 45  1  0  0  0  0
 14 16  1  0  0  0  0
 14 46  1  0  0  0  0
 14 47  1  0  0  0  0
 15 17  1  0  0  0  0
 15 20  2  0  0  0  0
 16 19  1  0  0  0  0
 16 48  1  0  0  0  0
 16 49  1  0  0  0  0
 17 18  1  0  0  0  0
 17 21  2  0  0  0  0
 18 23  1  0  0  0  0
 18 24  1  0  0  0  0
 18 50  1  0  0  0  0
 19 22  1  0  0  0  0
 19 51  1  0  0  0  0
 19 52  1  0  0  0  0
 20 25  1  0  0  0  0
 20 53  1  0  0  0  0
 21 26  1  0  0  0  0
 21 54  1  0  0  0  0
 22 27  1  0  0  0  0
 22 55  1  0  0  0  0
 22 56  1  0  0  0  0
 23 57  1  0  0  0  0
 23 58  1  0  0  0  0
 23 59  1  0  0  0  0
 24 60  1  0  0  0  0
 24 61  1  0  0  0  0
 24 62  1  0  0  0  0
 25 26  2  0  0  0  0
 25 63  1  0  0  0  0
 26 64  1  0  0  0  0
 28 29  1  0  0  0  0
 28 66  1  0  0  0  0
 28 67  1  0  0  0  0
 29 30  2  0  0  0  0
 29 31  1  0  0  0  0
 30 32  1  0  0  0  0
 30 68  1  0  0  0  0
 31 33  2  0  0  0  0
 31 69  1  0  0  0  0
 32 34  2  0  0  0  0
 32 70  1  0  0  0  0
 33 34  1  0  0  0  0
 33 71  1  0  0  0  0
 35 72  1  0  0  0  0
 35 73  1  0  0  0  0
 35 74  1  0  0  0  0
M  END
> <PUBCHEM_COMPOUND_CID>
25107582

> <PUBCHEM_COMPOUND_CANONICALIZED>
1

> <PUBCHEM_CACTVS_COMPLEXITY>
723

> <PUBCHEM_CACTVS_HBOND_ACCEPTOR>
6

> <PUBCHEM_CACTVS_HBOND_DONOR>
1

> <PUBCHEM_CACTVS_ROTATABLE_BOND>
12

> <PUBCHEM_CACTVS_SUBSKEYS>
AAADcfB7OABAAAAAAAAAAAAAAAAAAAAAAAA8YIAAAAAAAAABQAAAHgQQAAAADQzBmASyxoPAAAKIAiVSUHCCAAAhIgAIiIEObIgIZjLAkZOUMAhk1hHIyAeY2MIOoAAAAAACAABAAAAAAAQAAAAAAAAAAA==

> <PUBCHEM_IUPAC_OPENEYE_NAME>
[4-[[6-[4-(2-isopropylphenyl)piperazin-1-yl]hexanoylamino]methyl]phenyl] methanesulfonate

> <PUBCHEM_IUPAC_CAS_NAME>
methanesulfonic acid [4-[[[1-oxo-6-[4-(2-propan-2-ylphenyl)-1-piperazinyl]hexyl]amino]methyl]phenyl] ester

> <PUBCHEM_IUPAC_NAME_MARKUP>
[4-[[6-[4-(2-propan-2-ylphenyl)piperazin-1-yl]hexanoylamino]methyl]phenyl] methanesulfonate

> <PUBCHEM_IUPAC_NAME>
[4-[[6-[4-(2-propan-2-ylphenyl)piperazin-1-yl]hexanoylamino]methyl]phenyl] methanesulfonate

> <PUBCHEM_IUPAC_SYSTEMATIC_NAME>
[4-[[6-[4-(2-propan-2-ylphenyl)piperazin-1-yl]hexanoylamino]methyl]phenyl] methanesulfonate

> <PUBCHEM_IUPAC_TRADITIONAL_NAME>
methanesulfonic acid [4-[[6-(4-o-cumenylpiperazino)hexanoylamino]methyl]phenyl] ester

> <PUBCHEM_IUPAC_INCHI>
InChI=1S/C27H39N3O4S/c1-22(2)25-9-6-7-10-26(25)30-19-17-29(18-20-30)16-8-4-5-11-27(31)28-21-23-12-14-24(15-13-23)34-35(3,32)33/h6-7,9-10,12-15,22H,4-5,8,11,16-21H2,1-3H3,(H,28,31)

> <PUBCHEM_IUPAC_INCHIKEY>
JVGOJMPFDKELFD-UHFFFAOYSA-N

> <PUBCHEM_XLOGP3_AA>
4.3

> <PUBCHEM_EXACT_MASS>
501.26612791

> <PUBCHEM_MOLECULAR_FORMULA>
C27H39N3O4S

> <PUBCHEM_MOLECULAR_WEIGHT>
501.7

> <PUBCHEM_OPENEYE_CAN_SMILES>
CC(C)C1=CC=CC=C1N2CCN(CC2)CCCCCC(=O)NCC3=CC=C(C=C3)OS(=O)(=O)C

> <PUBCHEM_OPENEYE_ISO_SMILES>
CC(C)C1=CC=CC=C1N2CCN(CC2)CCCCCC(=O)NCC3=CC=C(C=C3)OS(=O)(=O)C

> <PUBCHEM_CACTVS_TPSA>
87.3

> <PUBCHEM_MONOISOTOPIC_WEIGHT>
501.26612791

> <PUBCHEM_TOTAL_CHARGE>
0

> <PUBCHEM_HEAVY_ATOM_COUNT>
35

> <PUBCHEM_ATOM_DEF_STEREO_COUNT>
0

> <PUBCHEM_ATOM_UDEF_STEREO_COUNT>
0

> <PUBCHEM_BOND_DEF_STEREO_COUNT>
0

> <PUBCHEM_BOND_UDEF_STEREO_COUNT>
0

> <PUBCHEM_ISOTOPIC_ATOM_COUNT>
0

> <PUBCHEM_COMPONENT_COUNT>
1

> <PUBCHEM_CACTVS_TAUTO_COUNT>
-1

> <PUBCHEM_COORDINATE_TYPE>
1
5
255

> <PUBCHEM_BONDANNOTATIONS>
15  17  8
15  20  8
17  21  8
20  25  8
21  26  8
25  26  8
29  30  8
29  31  8
30  32  8
31  33  8
32  34  8
33  34  8

$$$$
