44443901
  -OEChem-09292321592D

 26 27  0     1  0  0  0  0  0999 V2000
    4.5981    1.3100    0.0000 O   0  0  0  0  0  0  0  0  0  0  0  0
    2.0000   -2.1900    0.0000 O   0  0  0  0  0  0  0  0  0  0  0  0
    2.8660    2.3100    0.0000 N   0  0  0  0  0  0  0  0  0  0  0  0
    3.7320    0.8100    0.0000 C   0  0  3  0  0  0  0  0  0  0  0  0
    2.8660    1.3100    0.0000 C   0  0  0  0  0  0  0  0  0  0  0  0
    3.7320    2.8100    0.0000 C   0  0  0  0  0  0  0  0  0  0  0  0
    3.7320   -0.1900    0.0000 C   0  0  0  0  0  0  0  0  0  0  0  0
    4.5981    2.3100    0.0000 C   0  0  0  0  0  0  0  0  0  0  0  0
    2.8660   -0.6900    0.0000 C   0  0  0  0  0  0  0  0  0  0  0  0
    4.5981   -0.6900    0.0000 C   0  0  0  0  0  0  0  0  0  0  0  0
    2.8660   -1.6900    0.0000 C   0  0  0  0  0  0  0  0  0  0  0  0
    4.5981   -1.6900    0.0000 C   0  0  0  0  0  0  0  0  0  0  0  0
    3.7320   -2.1900    0.0000 C   0  0  0  0  0  0  0  0  0  0  0  0
    4.2690    0.5000    0.0000 H   0  0  0  0  0  0  0  0  0  0  0  0
    2.2554    1.4177    0.0000 H   0  0  0  0  0  0  0  0  0  0  0  0
    2.6540    0.7274    0.0000 H   0  0  0  0  0  0  0  0  0  0  0  0
    4.1306    3.2850    0.0000 H   0  0  0  0  0  0  0  0  0  0  0  0
    3.3335    3.2850    0.0000 H   0  0  0  0  0  0  0  0  0  0  0  0
    5.2087    2.2023    0.0000 H   0  0  0  0  0  0  0  0  0  0  0  0
    4.8101    2.8926    0.0000 H   0  0  0  0  0  0  0  0  0  0  0  0
    2.3291    2.6200    0.0000 H   0  0  0  0  0  0  0  0  0  0  0  0
    2.3291   -0.3800    0.0000 H   0  0  0  0  0  0  0  0  0  0  0  0
    5.1350   -0.3800    0.0000 H   0  0  0  0  0  0  0  0  0  0  0  0
    5.1350   -2.0000    0.0000 H   0  0  0  0  0  0  0  0  0  0  0  0
    3.7320   -2.8100    0.0000 H   0  0  0  0  0  0  0  0  0  0  0  0
    2.0000   -2.8100    0.0000 H   0  0  0  0  0  0  0  0  0  0  0  0
  1  4  1  0  0  0  0
  1  8  1  0  0  0  0
  2 11  1  0  0  0  0
  2 26  1  0  0  0  0
  3  5  1  0  0  0  0
  3  6  1  0  0  0  0
  3 21  1  0  0  0  0
  4  5  1  0  0  0  0
  4  7  1  0  0  0  0
  4 14  1  0  0  0  0
  5 15  1  0  0  0  0
  5 16  1  0  0  0  0
  6  8  1  0  0  0  0
  6 17  1  0  0  0  0
  6 18  1  0  0  0  0
  7  9  2  0  0  0  0
  7 10  1  0  0  0  0
  8 19  1  0  0  0  0
  8 20  1  0  0  0  0
  9 11  1  0  0  0  0
  9 22  1  0  0  0  0
 10 12  2  0  0  0  0
 10 23  1  0  0  0  0
 11 13  2  0  0  0  0
 12 13  1  0  0  0  0
 12 24  1  0  0  0  0
 13 25  1  0  0  0  0
M  END
> <PUBCHEM_COMPOUND_CID>
44443901

> <PUBCHEM_COMPOUND_CANONICALIZED>
1

> <PUBCHEM_CACTVS_COMPLEXITY>
163

> <PUBCHEM_CACTVS_HBOND_ACCEPTOR>
3

> <PUBCHEM_CACTVS_HBOND_DONOR>
2

> <PUBCHEM_CACTVS_ROTATABLE_BOND>
1

> <PUBCHEM_CACTVS_SUBSKEYS>
AAADccByMAAAAAAAAAAAAAAAAAAAAAAAAAA8QAAAAAAAAAABAAAAHgAQCAAADBThmAYwBoLABgCAAiBCAAACAAAgIAAIiIAOCIgKJiKCsRuHcAAk0BGYuAfQ0LIOAAABAAAAAAAAAAIAAAAAAAAAAAAAAA==

> <PUBCHEM_IUPAC_OPENEYE_NAME>
3-morpholin-2-ylphenol

> <PUBCHEM_IUPAC_CAS_NAME>
3-(2-morpholinyl)phenol

> <PUBCHEM_IUPAC_NAME_MARKUP>
3-morpholin-2-ylphenol

> <PUBCHEM_IUPAC_NAME>
3-morpholin-2-ylphenol

> <PUBCHEM_IUPAC_SYSTEMATIC_NAME>
3-morpholin-2-ylphenol

> <PUBCHEM_IUPAC_TRADITIONAL_NAME>
3-morpholin-2-ylphenol

> <PUBCHEM_IUPAC_INCHI>
InChI=1S/C10H13NO2/c12-9-3-1-2-8(6-9)10-7-11-4-5-13-10/h1-3,6,10-12H,4-5,7H2

> <PUBCHEM_IUPAC_INCHIKEY>
VYFSCTYDZYUMSC-UHFFFAOYSA-N

> <PUBCHEM_XLOGP3>
1

> <PUBCHEM_EXACT_MASS>
179.094628657

> <PUBCHEM_MOLECULAR_FORMULA>
C10H13NO2

> <PUBCHEM_MOLECULAR_WEIGHT>
179.22

> <PUBCHEM_OPENEYE_CAN_SMILES>
C1COC(CN1)C2=CC(=CC=C2)O

> <PUBCHEM_OPENEYE_ISO_SMILES>
C1COC(CN1)C2=CC(=CC=C2)O

> <PUBCHEM_CACTVS_TPSA>
41.5

> <PUBCHEM_MONOISOTOPIC_WEIGHT>
179.094628657

> <PUBCHEM_TOTAL_CHARGE>
0

> <PUBCHEM_HEAVY_ATOM_COUNT>
13

> <PUBCHEM_ATOM_DEF_STEREO_COUNT>
0

> <PUBCHEM_ATOM_UDEF_STEREO_COUNT>
1

> <PUBCHEM_BOND_DEF_STEREO_COUNT>
0

> <PUBCHEM_BOND_UDEF_STEREO_COUNT>
0

> <PUBCHEM_ISOTOPIC_ATOM_COUNT>
0

> <PUBCHEM_COMPONENT_COUNT>
1

> <PUBCHEM_CACTVS_TAUTO_COUNT>
-1

> <PUBCHEM_COORDINATE_TYPE>
1
5
255

> <PUBCHEM_BONDANNOTATIONS>
10  12  8
11  13  8
12  13  8
4  7  3
7  10  8
7  9  8
9  11  8

$$$$
