45262385
  -OEChem-09292322122D

 77 80  0     1  0  0  0  0  0999 V2000
    8.4685    0.0000    0.0000 Cl  0  0  0  0  0  0  0  0  0  0  0  0
   16.5371    9.0564    0.0000 S   0  0  0  0  0  0  0  0  0  0  0  0
    6.1824    5.4342    0.0000 O   0  0  0  0  0  0  0  0  0  0  0  0
   17.0405    8.1924    0.0000 O   0  0  0  0  0  0  0  0  0  0  0  0
   16.0338    9.9205    0.0000 O   0  0  0  0  0  0  0  0  0  0  0  0
    1.6879    4.4637    0.0000 O   0  0  0  0  0  0  0  0  0  0  0  0
   11.6824    8.0323    0.0000 N   0  0  3  0  0  0  0  0  0  0  0  0
    6.1824    7.1663    0.0000 N   0  0  0  0  0  0  0  0  0  0  0  0
    2.3460    2.9855    0.0000 N   0  0  0  0  0  0  0  0  0  0  0  0
    9.1824    7.1663    0.0000 C   0  0  0  0  0  0  0  0  0  0  0  0
    8.6824    8.0323    0.0000 C   0  0  0  0  0  0  0  0  0  0  0  0
    8.6824    6.3002    0.0000 C   0  0  0  0  0  0  0  0  0  0  0  0
    7.1824    7.1663    0.0000 C   0  0  0  0  0  0  0  0  0  0  0  0
    7.6824    8.0323    0.0000 C   0  0  0  0  0  0  0  0  0  0  0  0
    7.6824    6.3002    0.0000 C   0  0  0  0  0  0  0  0  0  0  0  0
   10.1824    7.1663    0.0000 C   0  0  0  0  0  0  0  0  0  0  0  0
   10.6824    8.0323    0.0000 C   0  0  0  0  0  0  0  0  0  0  0  0
   12.1163    8.9333    0.0000 C   0  0  0  0  0  0  0  0  0  0  0  0
   12.1163    7.1313    0.0000 C   0  0  0  0  0  0  0  0  0  0  0  0
   13.0912    9.1558    0.0000 C   0  0  0  0  0  0  0  0  0  0  0  0
   13.0912    6.9088    0.0000 C   0  0  0  0  0  0  0  0  0  0  0  0
   13.8730    8.5323    0.0000 C   0  0  0  0  0  0  0  0  0  0  0  0
   13.8730    7.5323    0.0000 C   0  0  0  0  0  0  0  0  0  0  0  0
    5.6824    6.3002    0.0000 C   0  0  0  0  0  0  0  0  0  0  0  0
   14.7670    9.0670    0.0000 C   0  0  0  0  0  0  0  0  0  0  0  0
   14.7670    6.9976    0.0000 C   0  0  0  0  0  0  0  0  0  0  0  0
    4.6824    6.3002    0.0000 C   0  0  0  0  0  0  0  0  0  0  0  0
   15.6730    8.5531    0.0000 C   0  0  0  0  0  0  0  0  0  0  0  0
   15.6730    7.5115    0.0000 C   0  0  0  0  0  0  0  0  0  0  0  0
    4.1824    5.4342    0.0000 C   0  0  0  0  0  0  0  0  0  0  0  0
    4.1824    7.1663    0.0000 C   0  0  0  0  0  0  0  0  0  0  0  0
    3.1824    5.4342    0.0000 C   0  0  0  0  0  0  0  0  0  0  0  0
   17.4012    9.5598    0.0000 C   0  0  0  0  0  0  0  0  0  0  0  0
    3.1824    7.1663    0.0000 C   0  0  0  0  0  0  0  0  0  0  0  0
    2.6824    6.3002    0.0000 C   0  0  0  0  0  0  0  0  0  0  0  0
    2.6824    4.5682    0.0000 C   0  0  0  0  0  0  0  0  0  0  0  0
    3.0891    3.6547    0.0000 C   0  0  0  0  0  0  0  0  0  0  0  0
    1.4799    3.4855    0.0000 C   0  0  0  0  0  0  0  0  0  0  0  0
    0.5664    3.0788    0.0000 C   0  0  0  0  0  0  0  0  0  0  0  0
    9.4924    6.6293    0.0000 H   0  0  0  0  0  0  0  0  0  0  0  0
    9.2650    8.2444    0.0000 H   0  0  0  0  0  0  0  0  0  0  0  0
    8.5747    8.6429    0.0000 H   0  0  0  0  0  0  0  0  0  0  0  0
    8.5747    5.6897    0.0000 H   0  0  0  0  0  0  0  0  0  0  0  0
    9.2650    6.0882    0.0000 H   0  0  0  0  0  0  0  0  0  0  0  0
    6.8724    6.6293    0.0000 H   0  0  0  0  0  0  0  0  0  0  0  0
    7.7900    8.6429    0.0000 H   0  0  0  0  0  0  0  0  0  0  0  0
    7.0998    8.2444    0.0000 H   0  0  0  0  0  0  0  0  0  0  0  0
    7.0998    6.0882    0.0000 H   0  0  0  0  0  0  0  0  0  0  0  0
    7.7900    5.6897    0.0000 H   0  0  0  0  0  0  0  0  0  0  0  0
   10.0747    6.5557    0.0000 H   0  0  0  0  0  0  0  0  0  0  0  0
   10.7650    6.9542    0.0000 H   0  0  0  0  0  0  0  0  0  0  0  0
   10.7900    8.6429    0.0000 H   0  0  0  0  0  0  0  0  0  0  0  0
   10.0998    8.2444    0.0000 H   0  0  0  0  0  0  0  0  0  0  0  0
    5.8724    7.7032    0.0000 H   0  0  0  0  0  0  0  0  0  0  0  0
   12.1163    9.5533    0.0000 H   0  0  0  0  0  0  0  0  0  0  0  0
   11.5118    9.0712    0.0000 H   0  0  0  0  0  0  0  0  0  0  0  0
   11.5118    6.9934    0.0000 H   0  0  0  0  0  0  0  0  0  0  0  0
   12.1163    6.5113    0.0000 H   0  0  0  0  0  0  0  0  0  0  0  0
   13.5759    9.5424    0.0000 H   0  0  0  0  0  0  0  0  0  0  0  0
   12.8222    9.7144    0.0000 H   0  0  0  0  0  0  0  0  0  0  0  0
   12.8222    6.3502    0.0000 H   0  0  0  0  0  0  0  0  0  0  0  0
   13.5759    6.5222    0.0000 H   0  0  0  0  0  0  0  0  0  0  0  0
   14.7598    9.6869    0.0000 H   0  0  0  0  0  0  0  0  0  0  0  0
   14.7598    6.3777    0.0000 H   0  0  0  0  0  0  0  0  0  0  0  0
   16.2088    7.1994    0.0000 H   0  0  0  0  0  0  0  0  0  0  0  0
    4.4924    4.8973    0.0000 H   0  0  0  0  0  0  0  0  0  0  0  0
    4.4924    7.7032    0.0000 H   0  0  0  0  0  0  0  0  0  0  0  0
   17.7133    9.0241    0.0000 H   0  0  0  0  0  0  0  0  0  0  0  0
   17.9369    9.8718    0.0000 H   0  0  0  0  0  0  0  0  0  0  0  0
   17.0891   10.0955    0.0000 H   0  0  0  0  0  0  0  0  0  0  0  0
    2.8724    7.7032    0.0000 H   0  0  0  0  0  0  0  0  0  0  0  0
    2.0624    6.3002    0.0000 H   0  0  0  0  0  0  0  0  0  0  0  0
    3.6956    3.5258    0.0000 H   0  0  0  0  0  0  0  0  0  0  0  0
    0.3142    3.6452    0.0000 H   0  0  0  0  0  0  0  0  0  0  0  0
    0.0000    2.8266    0.0000 H   0  0  0  0  0  0  0  0  0  0  0  0
    0.8186    2.5124    0.0000 H   0  0  0  0  0  0  0  0  0  0  0  0
    9.4685    0.0000    0.0000 H   0  0  0  0  0  0  0  0  0  0  0  0
  1 77  1  0  0  0  0
  2  4  2  0  0  0  0
  2  5  2  0  0  0  0
  2 28  1  0  0  0  0
  2 33  1  0  0  0  0
  3 24  2  0  0  0  0
  6 36  1  0  0  0  0
  6 38  1  0  0  0  0
  7 17  1  0  0  0  0
  7 18  1  0  0  0  0
  7 19  1  0  0  0  0
  8 13  1  0  0  0  0
  8 24  1  0  0  0  0
  8 54  1  0  0  0  0
  9 37  1  0  0  0  0
  9 38  2  0  0  0  0
 10 11  1  0  0  0  0
 10 12  1  0  0  0  0
 10 16  1  0  0  0  0
 10 40  1  0  0  0  0
 11 14  1  0  0  0  0
 11 41  1  0  0  0  0
 11 42  1  0  0  0  0
 12 15  1  0  0  0  0
 12 43  1  0  0  0  0
 12 44  1  0  0  0  0
 13 14  1  0  0  0  0
 13 15  1  0  0  0  0
 13 45  1  0  0  0  0
 14 46  1  0  0  0  0
 14 47  1  0  0  0  0
 15 48  1  0  0  0  0
 15 49  1  0  0  0  0
 16 17  1  0  0  0  0
 16 50  1  0  0  0  0
 16 51  1  0  0  0  0
 17 52  1  0  0  0  0
 17 53  1  0  0  0  0
 18 20  1  0  0  0  0
 18 55  1  0  0  0  0
 18 56  1  0  0  0  0
 19 21  1  0  0  0  0
 19 57  1  0  0  0  0
 19 58  1  0  0  0  0
 20 22  1  0  0  0  0
 20 59  1  0  0  0  0
 20 60  1  0  0  0  0
 21 23  1  0  0  0  0
 21 61  1  0  0  0  0
 21 62  1  0  0  0  0
 22 23  2  0  0  0  0
 22 25  1  0  0  0  0
 23 26  1  0  0  0  0
 24 27  1  0  0  0  0
 25 28  2  0  0  0  0
 25 63  1  0  0  0  0
 26 29  2  0  0  0  0
 26 64  1  0  0  0  0
 27 30  1  0  0  0  0
 27 31  2  0  0  0  0
 28 29  1  0  0  0  0
 29 65  1  0  0  0  0
 30 32  2  0  0  0  0
 30 66  1  0  0  0  0
 31 34  1  0  0  0  0
 31 67  1  0  0  0  0
 32 35  1  0  0  0  0
 32 36  1  0  0  0  0
 33 68  1  0  0  0  0
 33 69  1  0  0  0  0
 33 70  1  0  0  0  0
 34 35  2  0  0  0  0
 34 71  1  0  0  0  0
 35 72  1  0  0  0  0
 36 37  2  0  0  0  0
 37 73  1  0  0  0  0
 38 39  1  0  0  0  0
 39 74  1  0  0  0  0
 39 75  1  0  0  0  0
 39 76  1  0  0  0  0
M  END
> <PUBCHEM_COMPOUND_CID>
45262385

> <PUBCHEM_COMPOUND_CANONICALIZED>
1

> <PUBCHEM_CACTVS_COMPLEXITY>
884

> <PUBCHEM_CACTVS_HBOND_ACCEPTOR>
6

> <PUBCHEM_CACTVS_HBOND_DONOR>
2

> <PUBCHEM_CACTVS_ROTATABLE_BOND>
7

> <PUBCHEM_CACTVS_SUBSKEYS>
AAADcfB7OABEAAAAAAAAAAAAAAAAAWAAAAAwYMAABYAAAAAB0AAAHgQQAAAADSzB2gS+hZPIFEqoArF3VHTCiCA/SDAI2Jm7TMgOJjLgtTmPOQjk1gHY6YeY3+LukAACgAAQAAAwAAUAACAAAAAAAAAAAA==

> <PUBCHEM_IUPAC_OPENEYE_NAME>
3-(2-methyloxazol-5-yl)-N-[4-[2-(7-methylsulfonyl-1,2,4,5-tetrahydro-3-benzazepin-3-yl)ethyl]cyclohexyl]benzamide;hydrochloride

> <PUBCHEM_IUPAC_CAS_NAME>
3-(2-methyl-5-oxazolyl)-N-[4-[2-(7-methylsulfonyl-1,2,4,5-tetrahydro-3-benzazepin-3-yl)ethyl]cyclohexyl]benzamide;hydrochloride

> <PUBCHEM_IUPAC_NAME_MARKUP>
3-(2-methyl-1,3-oxazol-5-yl)-<I>N</I>-[4-[2-(7-methylsulfonyl-1,2,4,5-tetrahydro-3-benzazepin-3-yl)ethyl]cyclohexyl]benzamide;hydrochloride

> <PUBCHEM_IUPAC_NAME>
3-(2-methyl-1,3-oxazol-5-yl)-N-[4-[2-(7-methylsulfonyl-1,2,4,5-tetrahydro-3-benzazepin-3-yl)ethyl]cyclohexyl]benzamide;hydrochloride

> <PUBCHEM_IUPAC_SYSTEMATIC_NAME>
3-(2-methyl-1,3-oxazol-5-yl)-N-[4-[2-(7-methylsulfonyl-1,2,4,5-tetrahydro-3-benzazepin-3-yl)ethyl]cyclohexyl]benzamide;hydrochloride

> <PUBCHEM_IUPAC_TRADITIONAL_NAME>
N-[4-[2-(7-mesyl-1,2,4,5-tetrahydro-3-benzazepin-3-yl)ethyl]cyclohexyl]-3-(2-methyloxazol-5-yl)benzamide;hydrochloride

> <PUBCHEM_IUPAC_INCHI>
InChI=1S/C30H37N3O4S.ClH/c1-21-31-20-29(37-21)25-4-3-5-26(18-25)30(34)32-27-9-6-22(7-10-27)12-15-33-16-13-23-8-11-28(38(2,35)36)19-24(23)14-17-33;/h3-5,8,11,18-20,22,27H,6-7,9-10,12-17H2,1-2H3,(H,32,34);1H

> <PUBCHEM_IUPAC_INCHIKEY>
VQYGOUVBNSPNNR-UHFFFAOYSA-N

> <PUBCHEM_EXACT_MASS>
571.2271556

> <PUBCHEM_MOLECULAR_FORMULA>
C30H38ClN3O4S

> <PUBCHEM_MOLECULAR_WEIGHT>
572.2

> <PUBCHEM_OPENEYE_CAN_SMILES>
CC1=NC=C(O1)C2=CC(=CC=C2)C(=O)NC3CCC(CC3)CCN4CCC5=C(CC4)C=C(C=C5)S(=O)(=O)C.Cl

> <PUBCHEM_OPENEYE_ISO_SMILES>
CC1=NC=C(O1)C2=CC(=CC=C2)C(=O)NC3CCC(CC3)CCN4CCC5=C(CC4)C=C(C=C5)S(=O)(=O)C.Cl

> <PUBCHEM_CACTVS_TPSA>
101

> <PUBCHEM_MONOISOTOPIC_WEIGHT>
571.2271556

> <PUBCHEM_TOTAL_CHARGE>
0

> <PUBCHEM_HEAVY_ATOM_COUNT>
39

> <PUBCHEM_ATOM_DEF_STEREO_COUNT>
0

> <PUBCHEM_ATOM_UDEF_STEREO_COUNT>
0

> <PUBCHEM_BOND_DEF_STEREO_COUNT>
0

> <PUBCHEM_BOND_UDEF_STEREO_COUNT>
0

> <PUBCHEM_ISOTOPIC_ATOM_COUNT>
0

> <PUBCHEM_COMPONENT_COUNT>
2

> <PUBCHEM_CACTVS_TAUTO_COUNT>
-1

> <PUBCHEM_COORDINATE_TYPE>
1
5
255

> <PUBCHEM_BONDANNOTATIONS>
22  23  8
22  25  8
23  26  8
25  28  8
26  29  8
27  30  8
27  31  8
28  29  8
30  32  8
31  34  8
32  35  8
34  35  8
36  37  8
6  36  8
6  38  8
9  37  8
9  38  8

$$$$
