13697622
  -OEChem-09292322142D

 41 42  0     1  0  0  0  0  0999 V2000
    4.6930    0.0000    0.0000 Br  0  0  0  0  0  0  0  0  0  0  0  0
    3.0064    8.7054    0.0000 Br  0  0  0  0  0  0  0  0  0  0  0  0
    6.4747    3.0587    0.0000 O   0  0  0  0  0  0  0  0  0  0  0  0
    6.4747    1.0104    0.0000 O   0  0  0  0  0  0  0  0  0  0  0  0
    1.6200    2.0346    0.0000 N   0  0  3  0  0  0  0  0  0  0  0  0
    3.0288    3.1581    0.0000 C   0  0  3  0  0  0  0  0  0  0  0  0
    2.0539    2.9356    0.0000 C   0  0  0  0  0  0  0  0  0  0  0  0
    3.8106    2.5346    0.0000 C   0  0  0  0  0  0  0  0  0  0  0  0
    2.0539    1.1336    0.0000 C   0  0  0  0  0  0  0  0  0  0  0  0
    3.0288    0.9111    0.0000 C   0  0  0  0  0  0  0  0  0  0  0  0
    3.8106    1.5346    0.0000 C   0  0  0  0  0  0  0  0  0  0  0  0
    3.2513    4.1330    0.0000 C   0  0  0  0  0  0  0  0  0  0  0  0
    4.7046    3.0693    0.0000 C   0  0  0  0  0  0  0  0  0  0  0  0
    4.7046    0.9999    0.0000 C   0  0  0  0  0  0  0  0  0  0  0  0
    0.6200    2.0346    0.0000 C   0  0  0  0  0  0  0  0  0  0  0  0
    5.6106    2.5554    0.0000 C   0  0  0  0  0  0  0  0  0  0  0  0
    5.6106    1.5138    0.0000 C   0  0  0  0  0  0  0  0  0  0  0  0
    2.5183    4.8132    0.0000 C   0  0  0  0  0  0  0  0  0  0  0  0
    4.2069    4.4278    0.0000 C   0  0  0  0  0  0  0  0  0  0  0  0
    2.7408    5.7881    0.0000 C   0  0  0  0  0  0  0  0  0  0  0  0
    4.4294    5.4027    0.0000 C   0  0  0  0  0  0  0  0  0  0  0  0
    3.6964    6.0829    0.0000 C   0  0  0  0  0  0  0  0  0  0  0  0
    2.5904    3.5965    0.0000 H   0  0  0  0  0  0  0  0  0  0  0  0
    2.0539    3.5556    0.0000 H   0  0  0  0  0  0  0  0  0  0  0  0
    1.4494    3.0735    0.0000 H   0  0  0  0  0  0  0  0  0  0  0  0
    1.4494    0.9957    0.0000 H   0  0  0  0  0  0  0  0  0  0  0  0
    2.0539    0.5136    0.0000 H   0  0  0  0  0  0  0  0  0  0  0  0
    2.7598    0.3525    0.0000 H   0  0  0  0  0  0  0  0  0  0  0  0
    3.5136    0.5245    0.0000 H   0  0  0  0  0  0  0  0  0  0  0  0
    4.6974    3.6892    0.0000 H   0  0  0  0  0  0  0  0  0  0  0  0
    0.6200    2.6546    0.0000 H   0  0  0  0  0  0  0  0  0  0  0  0
    0.0000    2.0346    0.0000 H   0  0  0  0  0  0  0  0  0  0  0  0
    0.6200    1.4146    0.0000 H   0  0  0  0  0  0  0  0  0  0  0  0
    1.9258    4.6304    0.0000 H   0  0  0  0  0  0  0  0  0  0  0  0
    4.6614    4.0061    0.0000 H   0  0  0  0  0  0  0  0  0  0  0  0
    2.2863    6.2098    0.0000 H   0  0  0  0  0  0  0  0  0  0  0  0
    5.0219    5.5854    0.0000 H   0  0  0  0  0  0  0  0  0  0  0  0
    3.8343    6.6873    0.0000 H   0  0  0  0  0  0  0  0  0  0  0  0
    6.4723    3.6787    0.0000 H   0  0  0  0  0  0  0  0  0  0  0  0
    7.0129    1.3184    0.0000 H   0  0  0  0  0  0  0  0  0  0  0  0
    4.0064    8.7054    0.0000 H   0  0  0  0  0  0  0  0  0  0  0  0
  1 14  1  0  0  0  0
  2 41  1  0  0  0  0
  3 16  1  0  0  0  0
  3 39  1  0  0  0  0
  4 17  1  0  0  0  0
  4 40  1  0  0  0  0
  5  7  1  0  0  0  0
  5  9  1  0  0  0  0
  5 15  1  0  0  0  0
  6  7  1  0  0  0  0
  6  8  1  0  0  0  0
  6 12  1  0  0  0  0
  6 23  1  0  0  0  0
  7 24  1  0  0  0  0
  7 25  1  0  0  0  0
  8 11  1  0  0  0  0
  8 13  2  0  0  0  0
  9 10  1  0  0  0  0
  9 26  1  0  0  0  0
  9 27  1  0  0  0  0
 10 11  1  0  0  0  0
 10 28  1  0  0  0  0
 10 29  1  0  0  0  0
 11 14  2  0  0  0  0
 12 18  2  0  0  0  0
 12 19  1  0  0  0  0
 13 16  1  0  0  0  0
 13 30  1  0  0  0  0
 14 17  1  0  0  0  0
 15 31  1  0  0  0  0
 15 32  1  0  0  0  0
 15 33  1  0  0  0  0
 16 17  2  0  0  0  0
 18 20  1  0  0  0  0
 18 34  1  0  0  0  0
 19 21  2  0  0  0  0
 19 35  1  0  0  0  0
 20 22  2  0  0  0  0
 20 36  1  0  0  0  0
 21 22  1  0  0  0  0
 21 37  1  0  0  0  0
 22 38  1  0  0  0  0
M  END
> <PUBCHEM_COMPOUND_CID>
13697622

> <PUBCHEM_COMPOUND_CANONICALIZED>
1

> <PUBCHEM_CACTVS_COMPLEXITY>
348

> <PUBCHEM_CACTVS_HBOND_ACCEPTOR>
3

> <PUBCHEM_CACTVS_HBOND_DONOR>
3

> <PUBCHEM_CACTVS_ROTATABLE_BOND>
1

> <PUBCHEM_CACTVS_SUBSKEYS>
AAADceB6MAAAGAAAAAAAAAAAAAAAAAAAAAAwYAAABYAAAAABQAAAHgBACAABrQTBmAQyBoMAAgCAAiBCAAACAAAgIAQIiAAOiKgJJiKCkROEcAEkwBGJmheQ0PIOoAABEIAQxABAAAIhACGIAAAAAAAAAA==

> <PUBCHEM_IUPAC_OPENEYE_NAME>
9-bromo-3-methyl-5-phenyl-1,2,4,5-tetrahydro-3-benzazepine-7,8-diol;hydrobromide

> <PUBCHEM_IUPAC_CAS_NAME>
9-bromo-3-methyl-5-phenyl-1,2,4,5-tetrahydro-3-benzazepine-7,8-diol;hydrobromide

> <PUBCHEM_IUPAC_NAME_MARKUP>
9-bromo-3-methyl-5-phenyl-1,2,4,5-tetrahydro-3-benzazepine-7,8-diol;hydrobromide

> <PUBCHEM_IUPAC_NAME>
9-bromo-3-methyl-5-phenyl-1,2,4,5-tetrahydro-3-benzazepine-7,8-diol;hydrobromide

> <PUBCHEM_IUPAC_SYSTEMATIC_NAME>
9-bromanyl-3-methyl-5-phenyl-1,2,4,5-tetrahydro-3-benzazepine-7,8-diol;hydrobromide

> <PUBCHEM_IUPAC_TRADITIONAL_NAME>
9-bromo-3-methyl-5-phenyl-1,2,4,5-tetrahydro-3-benzazepine-7,8-diol;hydrobromide

> <PUBCHEM_IUPAC_INCHI>
InChI=1S/C17H18BrNO2.BrH/c1-19-8-7-12-13(9-15(20)17(21)16(12)18)14(10-19)11-5-3-2-4-6-11;/h2-6,9,14,20-21H,7-8,10H2,1H3;1H

> <PUBCHEM_IUPAC_INCHIKEY>
ULCUKWFJRCZPOD-UHFFFAOYSA-N

> <PUBCHEM_EXACT_MASS>
428.97620

> <PUBCHEM_MOLECULAR_FORMULA>
C17H19Br2NO2

> <PUBCHEM_MOLECULAR_WEIGHT>
429.1

> <PUBCHEM_OPENEYE_CAN_SMILES>
CN1CCC2=C(C(=C(C=C2C(C1)C3=CC=CC=C3)O)O)Br.Br

> <PUBCHEM_OPENEYE_ISO_SMILES>
CN1CCC2=C(C(=C(C=C2C(C1)C3=CC=CC=C3)O)O)Br.Br

> <PUBCHEM_CACTVS_TPSA>
43.7

> <PUBCHEM_MONOISOTOPIC_WEIGHT>
426.97825

> <PUBCHEM_TOTAL_CHARGE>
0

> <PUBCHEM_HEAVY_ATOM_COUNT>
22

> <PUBCHEM_ATOM_DEF_STEREO_COUNT>
0

> <PUBCHEM_ATOM_UDEF_STEREO_COUNT>
1

> <PUBCHEM_BOND_DEF_STEREO_COUNT>
0

> <PUBCHEM_BOND_UDEF_STEREO_COUNT>
0

> <PUBCHEM_ISOTOPIC_ATOM_COUNT>
0

> <PUBCHEM_COMPONENT_COUNT>
2

> <PUBCHEM_CACTVS_TAUTO_COUNT>
-1

> <PUBCHEM_COORDINATE_TYPE>
1
5
255

> <PUBCHEM_BONDANNOTATIONS>
11  14  8
12  18  8
12  19  8
13  16  8
14  17  8
16  17  8
18  20  8
19  21  8
20  22  8
21  22  8
6  12  3
8  11  8
8  13  8

$$$$
