132435
  -OEChem-09292321582D

 44 46  0     1  0  0  0  0  0999 V2000
    7.5730   -3.7398    0.0000 Cl  0  0  0  0  0  0  0  0  0  0  0  0
    9.3547   -0.6810    0.0000 O   0  0  0  0  0  0  0  0  0  0  0  0
    9.3547   -2.7293    0.0000 O   0  0  0  0  0  0  0  0  0  0  0  0
    6.7989    3.3180    0.0000 O   0  0  0  0  0  0  0  0  0  0  0  0
    4.5000   -1.7052    0.0000 N   0  0  3  0  0  0  0  0  0  0  0  0
    5.9088   -0.5817    0.0000 C   0  0  3  0  0  0  0  0  0  0  0  0
    4.9339   -0.8042    0.0000 C   0  0  0  0  0  0  0  0  0  0  0  0
    6.6906   -1.2052    0.0000 C   0  0  0  0  0  0  0  0  0  0  0  0
    4.9339   -2.6061    0.0000 C   0  0  0  0  0  0  0  0  0  0  0  0
    5.9088   -2.8286    0.0000 C   0  0  0  0  0  0  0  0  0  0  0  0
    6.6906   -2.2052    0.0000 C   0  0  0  0  0  0  0  0  0  0  0  0
    6.1313    0.3933    0.0000 C   0  0  0  0  0  0  0  0  0  0  0  0
    3.5000   -1.7052    0.0000 C   0  0  0  0  0  0  0  0  0  0  0  0
    7.5846   -0.6705    0.0000 C   0  0  0  0  0  0  0  0  0  0  0  0
    7.5846   -2.7398    0.0000 C   0  0  0  0  0  0  0  0  0  0  0  0
    8.4906   -1.1843    0.0000 C   0  0  0  0  0  0  0  0  0  0  0  0
    5.3983    1.0734    0.0000 C   0  0  0  0  0  0  0  0  0  0  0  0
    7.0869    0.6880    0.0000 C   0  0  0  0  0  0  0  0  0  0  0  0
    8.4906   -2.2260    0.0000 C   0  0  0  0  0  0  0  0  0  0  0  0
    3.0000   -2.5712    0.0000 C   0  0  0  0  0  0  0  0  0  0  0  0
    5.6208    2.0484    0.0000 C   0  0  0  0  0  0  0  0  0  0  0  0
    7.3094    1.6629    0.0000 C   0  0  0  0  0  0  0  0  0  0  0  0
    6.5764    2.3431    0.0000 C   0  0  0  0  0  0  0  0  0  0  0  0
    2.0000   -2.5712    0.0000 C   0  0  0  0  0  0  0  0  0  0  0  0
    5.4704   -0.1433    0.0000 H   0  0  0  0  0  0  0  0  0  0  0  0
    4.9339   -0.1842    0.0000 H   0  0  0  0  0  0  0  0  0  0  0  0
    4.3294   -0.6662    0.0000 H   0  0  0  0  0  0  0  0  0  0  0  0
    4.3294   -2.7441    0.0000 H   0  0  0  0  0  0  0  0  0  0  0  0
    4.9339   -3.2261    0.0000 H   0  0  0  0  0  0  0  0  0  0  0  0
    5.6398   -3.3872    0.0000 H   0  0  0  0  0  0  0  0  0  0  0  0
    6.3936   -3.2152    0.0000 H   0  0  0  0  0  0  0  0  0  0  0  0
    3.6077   -1.0946    0.0000 H   0  0  0  0  0  0  0  0  0  0  0  0
    2.9174   -1.4931    0.0000 H   0  0  0  0  0  0  0  0  0  0  0  0
    7.5774   -0.0505    0.0000 H   0  0  0  0  0  0  0  0  0  0  0  0
    4.8058    0.8907    0.0000 H   0  0  0  0  0  0  0  0  0  0  0  0
    7.5414    0.2663    0.0000 H   0  0  0  0  0  0  0  0  0  0  0  0
    3.3100   -3.1081    0.0000 H   0  0  0  0  0  0  0  0  0  0  0  0
    5.1663    2.4701    0.0000 H   0  0  0  0  0  0  0  0  0  0  0  0
    7.9019    1.8457    0.0000 H   0  0  0  0  0  0  0  0  0  0  0  0
    9.8929   -0.9889    0.0000 H   0  0  0  0  0  0  0  0  0  0  0  0
    9.3524   -3.3493    0.0000 H   0  0  0  0  0  0  0  0  0  0  0  0
    1.6900   -2.0342    0.0000 H   0  0  0  0  0  0  0  0  0  0  0  0
    1.6900   -3.1081    0.0000 H   0  0  0  0  0  0  0  0  0  0  0  0
    6.3444    3.7398    0.0000 H   0  0  0  0  0  0  0  0  0  0  0  0
  1 15  1  0  0  0  0
  2 16  1  0  0  0  0
  2 40  1  0  0  0  0
  3 19  1  0  0  0  0
  3 41  1  0  0  0  0
  4 23  1  0  0  0  0
  4 44  1  0  0  0  0
  5  7  1  0  0  0  0
  5  9  1  0  0  0  0
  5 13  1  0  0  0  0
  6  7  1  0  0  0  0
  6  8  1  0  0  0  0
  6 12  1  0  0  0  0
  6 25  1  0  0  0  0
  7 26  1  0  0  0  0
  7 27  1  0  0  0  0
  8 11  1  0  0  0  0
  8 14  2  0  0  0  0
  9 10  1  0  0  0  0
  9 28  1  0  0  0  0
  9 29  1  0  0  0  0
 10 11  1  0  0  0  0
 10 30  1  0  0  0  0
 10 31  1  0  0  0  0
 11 15  2  0  0  0  0
 12 17  2  0  0  0  0
 12 18  1  0  0  0  0
 13 20  1  0  0  0  0
 13 32  1  0  0  0  0
 13 33  1  0  0  0  0
 14 16  1  0  0  0  0
 14 34  1  0  0  0  0
 15 19  1  0  0  0  0
 16 19  2  0  0  0  0
 17 21  1  0  0  0  0
 17 35  1  0  0  0  0
 18 22  2  0  0  0  0
 18 36  1  0  0  0  0
 20 24  2  0  0  0  0
 20 37  1  0  0  0  0
 21 23  2  0  0  0  0
 21 38  1  0  0  0  0
 22 23  1  0  0  0  0
 22 39  1  0  0  0  0
 24 42  1  0  0  0  0
 24 43  1  0  0  0  0
M  END
> <PUBCHEM_COMPOUND_CID>
132435

> <PUBCHEM_COMPOUND_CANONICALIZED>
1

> <PUBCHEM_CACTVS_COMPLEXITY>
427

> <PUBCHEM_CACTVS_HBOND_ACCEPTOR>
4

> <PUBCHEM_CACTVS_HBOND_DONOR>
3

> <PUBCHEM_CACTVS_ROTATABLE_BOND>
3

> <PUBCHEM_CACTVS_SUBSKEYS>
AAADceB6MAAEAAAAAAAAAAAAAAAAAAAAAAAwYAAABYAAAAABQAAAHgIACAAADQbBmCQwBoMAAgCAAiBCAACCAAAgJEAIiAAOi4gJJiKDkxOEcAEkwBGJmAeQ0PIOoAABIQARSABAAAJCACKQAAAAAAAAAA==

> <PUBCHEM_IUPAC_OPENEYE_NAME>
3-allyl-9-chloro-5-(4-hydroxyphenyl)-1,2,4,5-tetrahydro-3-benzazepine-7,8-diol

> <PUBCHEM_IUPAC_CAS_NAME>
9-chloro-5-(4-hydroxyphenyl)-3-prop-2-enyl-1,2,4,5-tetrahydro-3-benzazepine-7,8-diol

> <PUBCHEM_IUPAC_NAME_MARKUP>
9-chloro-5-(4-hydroxyphenyl)-3-prop-2-enyl-1,2,4,5-tetrahydro-3-benzazepine-7,8-diol

> <PUBCHEM_IUPAC_NAME>
9-chloro-5-(4-hydroxyphenyl)-3-prop-2-enyl-1,2,4,5-tetrahydro-3-benzazepine-7,8-diol

> <PUBCHEM_IUPAC_SYSTEMATIC_NAME>
9-chloranyl-5-(4-hydroxyphenyl)-3-prop-2-enyl-1,2,4,5-tetrahydro-3-benzazepine-7,8-diol

> <PUBCHEM_IUPAC_TRADITIONAL_NAME>
3-allyl-9-chloro-5-(4-hydroxyphenyl)-1,2,4,5-tetrahydro-3-benzazepine-7,8-diol

> <PUBCHEM_IUPAC_INCHI>
InChI=1S/C19H20ClNO3/c1-2-8-21-9-7-14-15(10-17(23)19(24)18(14)20)16(11-21)12-3-5-13(22)6-4-12/h2-6,10,16,22-24H,1,7-9,11H2

> <PUBCHEM_IUPAC_INCHIKEY>
VDHWYWSLUYRNGE-UHFFFAOYSA-N

> <PUBCHEM_XLOGP3>
3.5

> <PUBCHEM_EXACT_MASS>
345.1131712

> <PUBCHEM_MOLECULAR_FORMULA>
C19H20ClNO3

> <PUBCHEM_MOLECULAR_WEIGHT>
345.8

> <PUBCHEM_OPENEYE_CAN_SMILES>
C=CCN1CCC2=C(C(=C(C=C2C(C1)C3=CC=C(C=C3)O)O)O)Cl

> <PUBCHEM_OPENEYE_ISO_SMILES>
C=CCN1CCC2=C(C(=C(C=C2C(C1)C3=CC=C(C=C3)O)O)O)Cl

> <PUBCHEM_CACTVS_TPSA>
63.9

> <PUBCHEM_MONOISOTOPIC_WEIGHT>
345.1131712

> <PUBCHEM_TOTAL_CHARGE>
0

> <PUBCHEM_HEAVY_ATOM_COUNT>
24

> <PUBCHEM_ATOM_DEF_STEREO_COUNT>
0

> <PUBCHEM_ATOM_UDEF_STEREO_COUNT>
1

> <PUBCHEM_BOND_DEF_STEREO_COUNT>
0

> <PUBCHEM_BOND_UDEF_STEREO_COUNT>
0

> <PUBCHEM_ISOTOPIC_ATOM_COUNT>
0

> <PUBCHEM_COMPONENT_COUNT>
1

> <PUBCHEM_CACTVS_TAUTO_COUNT>
202

> <PUBCHEM_COORDINATE_TYPE>
1
5
255

> <PUBCHEM_BONDANNOTATIONS>
11  15  8
12  17  8
12  18  8
14  16  8
15  19  8
16  19  8
17  21  8
18  22  8
21  23  8
22  23  8
6  12  3
8  11  8
8  14  8

$$$$
