163887300
  -OEChem-09292322442D

 53 56  0     0  0  0  0  0  0999 V2000
    2.0000   -4.4494    0.0000 F   0  0  0  0  0  0  0  0  0  0  0  0
   10.3438    3.6771    0.0000 O   0  0  0  0  0  0  0  0  0  0  0  0
    9.7225    1.7761    0.0000 O   0  0  0  0  0  0  0  0  0  0  0  0
    5.5443   -4.2541    0.0000 O   0  0  0  0  0  0  0  0  0  0  0  0
    6.4763    0.2069    0.0000 N   0  0  0  0  0  0  0  0  0  0  0  0
    8.0761    2.3142    0.0000 N   0  0  0  0  0  0  0  0  0  0  0  0
    6.1279   -3.4494    0.0000 N   0  0  0  0  0  0  0  0  0  0  0  0
    9.3653    3.4709    0.0000 C   0  0  0  0  0  0  0  0  0  0  0  0
    9.1591    4.4494    0.0000 C   0  0  0  0  0  0  0  0  0  0  0  0
    8.4148    3.7816    0.0000 C   0  0  0  0  0  0  0  0  0  0  0  0
    9.0546    2.5204    0.0000 C   0  0  0  0  0  0  0  0  0  0  0  0
    5.8550   -1.6942    0.0000 C   0  0  0  0  0  0  0  0  0  0  0  0
    5.1871   -0.9498    0.0000 C   0  0  0  0  0  0  0  0  0  0  0  0
    6.8335   -1.4879    0.0000 C   0  0  0  0  0  0  0  0  0  0  0  0
    5.4978    0.0007    0.0000 C   0  0  0  0  0  0  0  0  0  0  0  0
    7.1441   -0.5374    0.0000 C   0  0  0  0  0  0  0  0  0  0  0  0
    6.7870    1.1574    0.0000 C   0  0  0  0  0  0  0  0  0  0  0  0
    7.7654    1.3636    0.0000 C   0  0  0  0  0  0  0  0  0  0  0  0
    5.5443   -2.6447    0.0000 C   0  0  0  0  0  0  0  0  0  0  0  0
    7.4083    3.0585    0.0000 C   0  0  0  0  0  0  0  0  0  0  0  0
    4.5981   -2.9494    0.0000 C   0  0  0  0  0  0  0  0  0  0  0  0
    6.4298    2.8522    0.0000 C   0  0  0  0  0  0  0  0  0  0  0  0
    4.5981   -3.9494    0.0000 C   0  0  0  0  0  0  0  0  0  0  0  0
    3.7320   -2.4494    0.0000 C   0  0  0  0  0  0  0  0  0  0  0  0
    3.7320   -4.4494    0.0000 C   0  0  0  0  0  0  0  0  0  0  0  0
    2.8660   -2.9494    0.0000 C   0  0  0  0  0  0  0  0  0  0  0  0
    2.8660   -3.9494    0.0000 C   0  0  0  0  0  0  0  0  0  0  0  0
    9.7343    4.6807    0.0000 H   0  0  0  0  0  0  0  0  0  0  0  0
    8.8314    4.9758    0.0000 H   0  0  0  0  0  0  0  0  0  0  0  0
    7.9269    4.1641    0.0000 H   0  0  0  0  0  0  0  0  0  0  0  0
    8.1227    3.2346    0.0000 H   0  0  0  0  0  0  0  0  0  0  0  0
    6.2690   -2.1556    0.0000 H   0  0  0  0  0  0  0  0  0  0  0  0
    4.6402   -0.6578    0.0000 H   0  0  0  0  0  0  0  0  0  0  0  0
    4.8046   -1.4378    0.0000 H   0  0  0  0  0  0  0  0  0  0  0  0
    6.8540   -2.1076    0.0000 H   0  0  0  0  0  0  0  0  0  0  0  0
    7.4473   -1.5753    0.0000 H   0  0  0  0  0  0  0  0  0  0  0  0
    5.4772    0.6203    0.0000 H   0  0  0  0  0  0  0  0  0  0  0  0
    4.8840    0.0880    0.0000 H   0  0  0  0  0  0  0  0  0  0  0  0
    7.6910   -0.8294    0.0000 H   0  0  0  0  0  0  0  0  0  0  0  0
    7.5267   -0.0495    0.0000 H   0  0  0  0  0  0  0  0  0  0  0  0
    6.7664    1.7771    0.0000 H   0  0  0  0  0  0  0  0  0  0  0  0
    6.1731    1.2448    0.0000 H   0  0  0  0  0  0  0  0  0  0  0  0
    7.7860    0.7440    0.0000 H   0  0  0  0  0  0  0  0  0  0  0  0
    8.3793    1.2763    0.0000 H   0  0  0  0  0  0  0  0  0  0  0  0
   10.5364    4.2664    0.0000 H   0  0  0  0  0  0  0  0  0  0  0  0
    7.9346    3.3861    0.0000 H   0  0  0  0  0  0  0  0  0  0  0  0
    7.1770    3.6337    0.0000 H   0  0  0  0  0  0  0  0  0  0  0  0
    6.3019    3.4589    0.0000 H   0  0  0  0  0  0  0  0  0  0  0  0
    5.8231    2.7244    0.0000 H   0  0  0  0  0  0  0  0  0  0  0  0
    6.5576    2.2456    0.0000 H   0  0  0  0  0  0  0  0  0  0  0  0
    3.7320   -1.8294    0.0000 H   0  0  0  0  0  0  0  0  0  0  0  0
    3.7320   -5.0694    0.0000 H   0  0  0  0  0  0  0  0  0  0  0  0
    2.3291   -2.6394    0.0000 H   0  0  0  0  0  0  0  0  0  0  0  0
  1 27  1  0  0  0  0
  2  8  1  0  0  0  0
  2 45  1  0  0  0  0
  3 11  2  0  0  0  0
  4  7  1  0  0  0  0
  4 23  1  0  0  0  0
  5 15  1  0  0  0  0
  5 16  1  0  0  0  0
  5 17  1  0  0  0  0
  6 11  1  0  0  0  0
  6 18  1  0  0  0  0
  6 20  1  0  0  0  0
  7 19  2  0  0  0  0
  8  9  1  0  0  0  0
  8 10  1  0  0  0  0
  8 11  1  0  0  0  0
  9 10  1  0  0  0  0
  9 28  1  0  0  0  0
  9 29  1  0  0  0  0
 10 30  1  0  0  0  0
 10 31  1  0  0  0  0
 12 13  1  0  0  0  0
 12 14  1  0  0  0  0
 12 19  1  0  0  0  0
 12 32  1  0  0  0  0
 13 15  1  0  0  0  0
 13 33  1  0  0  0  0
 13 34  1  0  0  0  0
 14 16  1  0  0  0  0
 14 35  1  0  0  0  0
 14 36  1  0  0  0  0
 15 37  1  0  0  0  0
 15 38  1  0  0  0  0
 16 39  1  0  0  0  0
 16 40  1  0  0  0  0
 17 18  1  0  0  0  0
 17 41  1  0  0  0  0
 17 42  1  0  0  0  0
 18 43  1  0  0  0  0
 18 44  1  0  0  0  0
 19 21  1  0  0  0  0
 20 22  1  0  0  0  0
 20 46  1  0  0  0  0
 20 47  1  0  0  0  0
 21 23  2  0  0  0  0
 21 24  1  0  0  0  0
 22 48  1  0  0  0  0
 22 49  1  0  0  0  0
 22 50  1  0  0  0  0
 23 25  1  0  0  0  0
 24 26  2  0  0  0  0
 24 51  1  0  0  0  0
 25 27  2  0  0  0  0
 25 52  1  0  0  0  0
 26 27  1  0  0  0  0
 26 53  1  0  0  0  0
M  END
> <PUBCHEM_COMPOUND_CID>
163887300

> <PUBCHEM_COMPOUND_CANONICALIZED>
1

> <PUBCHEM_CACTVS_COMPLEXITY>
537

> <PUBCHEM_CACTVS_HBOND_ACCEPTOR>
6

> <PUBCHEM_CACTVS_HBOND_DONOR>
1

> <PUBCHEM_CACTVS_ROTATABLE_BOND>
6

> <PUBCHEM_CACTVS_SUBSKEYS>
AAADceB7MQAAAAAAAAAAAAAAGAAAAWAAAAA8QAAAAAAAAFgB8AAAHwAECAAADUzBngwyhtMQAgCpA6VyUgKCAAAkIAAomCF+TNoKZrqAlZOUcYBmxhmYyceYyOCOAAAAAAAIAAAAAAAAABAAAAAAAAAAAA==

> <PUBCHEM_IUPAC_OPENEYE_NAME>
N-ethyl-N-[2-[4-(6-fluoro-1,2-benzoxazol-3-yl)-1-piperidyl]ethyl]-1-hydroxy-cyclopropanecarboxamide

> <PUBCHEM_IUPAC_CAS_NAME>
N-ethyl-N-[2-[4-(6-fluoro-1,2-benzoxazol-3-yl)-1-piperidinyl]ethyl]-1-hydroxy-1-cyclopropanecarboxamide

> <PUBCHEM_IUPAC_NAME_MARKUP>
<I>N</I>-ethyl-<I>N</I>-[2-[4-(6-fluoro-1,2-benzoxazol-3-yl)piperidin-1-yl]ethyl]-1-hydroxycyclopropane-1-carboxamide

> <PUBCHEM_IUPAC_NAME>
N-ethyl-N-[2-[4-(6-fluoro-1,2-benzoxazol-3-yl)piperidin-1-yl]ethyl]-1-hydroxycyclopropane-1-carboxamide

> <PUBCHEM_IUPAC_SYSTEMATIC_NAME>
N-ethyl-N-[2-[4-(6-fluoranyl-1,2-benzoxazol-3-yl)piperidin-1-yl]ethyl]-1-oxidanyl-cyclopropane-1-carboxamide

> <PUBCHEM_IUPAC_TRADITIONAL_NAME>
N-ethyl-N-[2-[4-(6-fluoroindoxazen-3-yl)piperidino]ethyl]-1-hydroxy-cyclopropanecarboxamide

> <PUBCHEM_IUPAC_INCHI>
InChI=1S/C20H26FN3O3/c1-2-24(19(25)20(26)7-8-20)12-11-23-9-5-14(6-10-23)18-16-4-3-15(21)13-17(16)27-22-18/h3-4,13-14,26H,2,5-12H2,1H3

> <PUBCHEM_IUPAC_INCHIKEY>
PYMPKOMERHZEEW-UHFFFAOYSA-N

> <PUBCHEM_XLOGP3_AA>
2

> <PUBCHEM_EXACT_MASS>
375.19581986

> <PUBCHEM_MOLECULAR_FORMULA>
C20H26FN3O3

> <PUBCHEM_MOLECULAR_WEIGHT>
375.4

> <PUBCHEM_OPENEYE_CAN_SMILES>
CCN(CCN1CCC(CC1)C2=NOC3=C2C=CC(=C3)F)C(=O)C4(CC4)O

> <PUBCHEM_OPENEYE_ISO_SMILES>
CCN(CCN1CCC(CC1)C2=NOC3=C2C=CC(=C3)F)C(=O)C4(CC4)O

> <PUBCHEM_CACTVS_TPSA>
69.8

> <PUBCHEM_MONOISOTOPIC_WEIGHT>
375.19581986

> <PUBCHEM_TOTAL_CHARGE>
0

> <PUBCHEM_HEAVY_ATOM_COUNT>
27

> <PUBCHEM_ATOM_DEF_STEREO_COUNT>
0

> <PUBCHEM_ATOM_UDEF_STEREO_COUNT>
0

> <PUBCHEM_BOND_DEF_STEREO_COUNT>
0

> <PUBCHEM_BOND_UDEF_STEREO_COUNT>
0

> <PUBCHEM_ISOTOPIC_ATOM_COUNT>
0

> <PUBCHEM_COMPONENT_COUNT>
1

> <PUBCHEM_CACTVS_TAUTO_COUNT>
-1

> <PUBCHEM_COORDINATE_TYPE>
1
5
255

> <PUBCHEM_BONDANNOTATIONS>
19  21  8
21  23  8
21  24  8
23  25  8
24  26  8
25  27  8
26  27  8
4  23  8
4  7  8
7  19  8

$$$$
