57873492
  -OEChem-09292322472D

 60 63  0     0  0  0  0  0  0999 V2000
   12.0561    4.9418    0.0000 O   0  0  0  0  0  0  0  0  0  0  0  0
    4.3211   -1.9987    0.0000 O   0  0  0  0  0  0  0  0  0  0  0  0
    8.8564    0.7272    0.0000 N   0  0  0  0  0  0  0  0  0  0  0  0
    9.4778    2.6283    0.0000 N   0  0  0  0  0  0  0  0  0  0  0  0
    5.9674   -2.5368    0.0000 N   0  0  0  0  0  0  0  0  0  0  0  0
    4.6783   -5.3030    0.0000 N   0  0  0  0  0  0  0  0  0  0  0  0
    9.8349    0.9335    0.0000 C   0  0  0  0  0  0  0  0  0  0  0  0
    8.1886    1.4715    0.0000 C   0  0  0  0  0  0  0  0  0  0  0  0
   10.1456    1.8840    0.0000 C   0  0  0  0  0  0  0  0  0  0  0  0
    8.4993    2.4221    0.0000 C   0  0  0  0  0  0  0  0  0  0  0  0
    8.5458   -0.2233    0.0000 C   0  0  0  0  0  0  0  0  0  0  0  0
    7.5673   -0.4295    0.0000 C   0  0  0  0  0  0  0  0  0  0  0  0
    9.7884    3.5788    0.0000 C   0  0  0  0  0  0  0  0  0  0  0  0
    7.2566   -1.3800    0.0000 C   0  0  0  0  0  0  0  0  0  0  0  0
    6.2781   -1.5862    0.0000 C   0  0  0  0  0  0  0  0  0  0  0  0
   10.7669    3.7850    0.0000 C   0  0  0  0  0  0  0  0  0  0  0  0
    9.1206    4.3231    0.0000 C   0  0  0  0  0  0  0  0  0  0  0  0
   11.0776    4.7355    0.0000 C   0  0  0  0  0  0  0  0  0  0  0  0
    9.4312    5.2736    0.0000 C   0  0  0  0  0  0  0  0  0  0  0  0
   10.4097    5.4798    0.0000 C   0  0  0  0  0  0  0  0  0  0  0  0
    4.9889   -2.7430    0.0000 C   0  0  0  0  0  0  0  0  0  0  0  0
    4.6783   -3.6935    0.0000 C   0  0  0  0  0  0  0  0  0  0  0  0
    3.7320   -3.9982    0.0000 C   0  0  0  0  0  0  0  0  0  0  0  0
    3.7320   -4.9982    0.0000 C   0  0  0  0  0  0  0  0  0  0  0  0
    5.2619   -4.4982    0.0000 C   0  0  0  0  0  0  0  0  0  0  0  0
    2.8660   -3.4982    0.0000 C   0  0  0  0  0  0  0  0  0  0  0  0
    2.8660   -5.4982    0.0000 C   0  0  0  0  0  0  0  0  0  0  0  0
    2.0000   -3.9982    0.0000 C   0  0  0  0  0  0  0  0  0  0  0  0
    2.0000   -4.9982    0.0000 C   0  0  0  0  0  0  0  0  0  0  0  0
   12.3668    5.8923    0.0000 C   0  0  0  0  0  0  0  0  0  0  0  0
    9.8555    0.3138    0.0000 H   0  0  0  0  0  0  0  0  0  0  0  0
   10.4488    0.8461    0.0000 H   0  0  0  0  0  0  0  0  0  0  0  0
    7.6417    1.7636    0.0000 H   0  0  0  0  0  0  0  0  0  0  0  0
    7.8060    0.9836    0.0000 H   0  0  0  0  0  0  0  0  0  0  0  0
   10.6925    1.5920    0.0000 H   0  0  0  0  0  0  0  0  0  0  0  0
   10.5282    2.3719    0.0000 H   0  0  0  0  0  0  0  0  0  0  0  0
    8.4787    3.0417    0.0000 H   0  0  0  0  0  0  0  0  0  0  0  0
    7.8854    2.5094    0.0000 H   0  0  0  0  0  0  0  0  0  0  0  0
    8.5663   -0.8429    0.0000 H   0  0  0  0  0  0  0  0  0  0  0  0
    9.1596   -0.3106    0.0000 H   0  0  0  0  0  0  0  0  0  0  0  0
    7.5467    0.1902    0.0000 H   0  0  0  0  0  0  0  0  0  0  0  0
    6.9534   -0.3421    0.0000 H   0  0  0  0  0  0  0  0  0  0  0  0
    7.2772   -1.9997    0.0000 H   0  0  0  0  0  0  0  0  0  0  0  0
    7.8704   -1.4674    0.0000 H   0  0  0  0  0  0  0  0  0  0  0  0
    6.2575   -0.9666    0.0000 H   0  0  0  0  0  0  0  0  0  0  0  0
    5.6643   -1.4989    0.0000 H   0  0  0  0  0  0  0  0  0  0  0  0
   11.1810    3.3236    0.0000 H   0  0  0  0  0  0  0  0  0  0  0  0
    8.5139    4.1952    0.0000 H   0  0  0  0  0  0  0  0  0  0  0  0
    6.3815   -2.9982    0.0000 H   0  0  0  0  0  0  0  0  0  0  0  0
    9.0172    5.7351    0.0000 H   0  0  0  0  0  0  0  0  0  0  0  0
   10.6024    6.0692    0.0000 H   0  0  0  0  0  0  0  0  0  0  0  0
    5.8819   -4.4982    0.0000 H   0  0  0  0  0  0  0  0  0  0  0  0
    4.8709   -5.8923    0.0000 H   0  0  0  0  0  0  0  0  0  0  0  0
    2.8660   -2.8782    0.0000 H   0  0  0  0  0  0  0  0  0  0  0  0
    2.8660   -6.1182    0.0000 H   0  0  0  0  0  0  0  0  0  0  0  0
    1.4631   -3.6882    0.0000 H   0  0  0  0  0  0  0  0  0  0  0  0
    1.4631   -5.3082    0.0000 H   0  0  0  0  0  0  0  0  0  0  0  0
   12.9561    5.6997    0.0000 H   0  0  0  0  0  0  0  0  0  0  0  0
   12.5594    6.4816    0.0000 H   0  0  0  0  0  0  0  0  0  0  0  0
   11.7774    6.0849    0.0000 H   0  0  0  0  0  0  0  0  0  0  0  0
  1 18  1  0  0  0  0
  1 30  1  0  0  0  0
  2 21  2  0  0  0  0
  3  7  1  0  0  0  0
  3  8  1  0  0  0  0
  3 11  1  0  0  0  0
  4  9  1  0  0  0  0
  4 10  1  0  0  0  0
  4 13  1  0  0  0  0
  5 15  1  0  0  0  0
  5 21  1  0  0  0  0
  5 49  1  0  0  0  0
  6 24  1  0  0  0  0
  6 25  1  0  0  0  0
  6 53  1  0  0  0  0
  7  9  1  0  0  0  0
  7 31  1  0  0  0  0
  7 32  1  0  0  0  0
  8 10  1  0  0  0  0
  8 33  1  0  0  0  0
  8 34  1  0  0  0  0
  9 35  1  0  0  0  0
  9 36  1  0  0  0  0
 10 37  1  0  0  0  0
 10 38  1  0  0  0  0
 11 12  1  0  0  0  0
 11 39  1  0  0  0  0
 11 40  1  0  0  0  0
 12 14  1  0  0  0  0
 12 41  1  0  0  0  0
 12 42  1  0  0  0  0
 13 16  2  0  0  0  0
 13 17  1  0  0  0  0
 14 15  1  0  0  0  0
 14 43  1  0  0  0  0
 14 44  1  0  0  0  0
 15 45  1  0  0  0  0
 15 46  1  0  0  0  0
 16 18  1  0  0  0  0
 16 47  1  0  0  0  0
 17 19  2  0  0  0  0
 17 48  1  0  0  0  0
 18 20  2  0  0  0  0
 19 20  1  0  0  0  0
 19 50  1  0  0  0  0
 20 51  1  0  0  0  0
 21 22  1  0  0  0  0
 22 23  1  0  0  0  0
 22 25  2  0  0  0  0
 23 24  1  0  0  0  0
 23 26  2  0  0  0  0
 24 27  2  0  0  0  0
 25 52  1  0  0  0  0
 26 28  1  0  0  0  0
 26 54  1  0  0  0  0
 27 29  1  0  0  0  0
 27 55  1  0  0  0  0
 28 29  2  0  0  0  0
 28 56  1  0  0  0  0
 29 57  1  0  0  0  0
 30 58  1  0  0  0  0
 30 59  1  0  0  0  0
 30 60  1  0  0  0  0
M  END
> <PUBCHEM_COMPOUND_CID>
57873492

> <PUBCHEM_COMPOUND_CANONICALIZED>
1

> <PUBCHEM_CACTVS_COMPLEXITY>
537

> <PUBCHEM_CACTVS_HBOND_ACCEPTOR>
4

> <PUBCHEM_CACTVS_HBOND_DONOR>
2

> <PUBCHEM_CACTVS_ROTATABLE_BOND>
8

> <PUBCHEM_CACTVS_SUBSKEYS>
AAADceB7sAAAAAAAAAAAAAAAAAAAAWAAAAA8YIAAAAAAAFgB9AAAHgAQAAAADAzBngY+xvPJlACoAzV3VACCiCA1IiAI2aE+bNgMZvrE9ZuUMahm1hnI6cec2MOOgAAAAgACAAAAAAAEAAQAAAAAAAAAAA==

> <PUBCHEM_IUPAC_OPENEYE_NAME>
N-[4-[4-(3-methoxyphenyl)piperazin-1-yl]butyl]-1H-indole-3-carboxamide

> <PUBCHEM_IUPAC_CAS_NAME>
N-[4-[4-(3-methoxyphenyl)-1-piperazinyl]butyl]-1H-indole-3-carboxamide

> <PUBCHEM_IUPAC_NAME_MARKUP>
<I>N</I>-[4-[4-(3-methoxyphenyl)piperazin-1-yl]butyl]-1<I>H</I>-indole-3-carboxamide

> <PUBCHEM_IUPAC_NAME>
N-[4-[4-(3-methoxyphenyl)piperazin-1-yl]butyl]-1H-indole-3-carboxamide

> <PUBCHEM_IUPAC_SYSTEMATIC_NAME>
N-[4-[4-(3-methoxyphenyl)piperazin-1-yl]butyl]-1H-indole-3-carboxamide

> <PUBCHEM_IUPAC_TRADITIONAL_NAME>
N-[4-[4-(3-methoxyphenyl)piperazino]butyl]-1H-indole-3-carboxamide

> <PUBCHEM_IUPAC_INCHI>
InChI=1S/C24H30N4O2/c1-30-20-8-6-7-19(17-20)28-15-13-27(14-16-28)12-5-4-11-25-24(29)22-18-26-23-10-3-2-9-21(22)23/h2-3,6-10,17-18,26H,4-5,11-16H2,1H3,(H,25,29)

> <PUBCHEM_IUPAC_INCHIKEY>
FJYOWAGOWYSGRX-UHFFFAOYSA-N

> <PUBCHEM_XLOGP3_AA>
3.6

> <PUBCHEM_EXACT_MASS>
406.23687621

> <PUBCHEM_MOLECULAR_FORMULA>
C24H30N4O2

> <PUBCHEM_MOLECULAR_WEIGHT>
406.5

> <PUBCHEM_OPENEYE_CAN_SMILES>
COC1=CC=CC(=C1)N2CCN(CC2)CCCCNC(=O)C3=CNC4=CC=CC=C43

> <PUBCHEM_OPENEYE_ISO_SMILES>
COC1=CC=CC(=C1)N2CCN(CC2)CCCCNC(=O)C3=CNC4=CC=CC=C43

> <PUBCHEM_CACTVS_TPSA>
60.6

> <PUBCHEM_MONOISOTOPIC_WEIGHT>
406.23687621

> <PUBCHEM_TOTAL_CHARGE>
0

> <PUBCHEM_HEAVY_ATOM_COUNT>
30

> <PUBCHEM_ATOM_DEF_STEREO_COUNT>
0

> <PUBCHEM_ATOM_UDEF_STEREO_COUNT>
0

> <PUBCHEM_BOND_DEF_STEREO_COUNT>
0

> <PUBCHEM_BOND_UDEF_STEREO_COUNT>
0

> <PUBCHEM_ISOTOPIC_ATOM_COUNT>
0

> <PUBCHEM_COMPONENT_COUNT>
1

> <PUBCHEM_CACTVS_TAUTO_COUNT>
-1

> <PUBCHEM_COORDINATE_TYPE>
1
5
255

> <PUBCHEM_BONDANNOTATIONS>
13  16  8
13  17  8
16  18  8
17  19  8
18  20  8
19  20  8
22  23  8
22  25  8
23  24  8
23  26  8
24  27  8
26  28  8
27  29  8
28  29  8
6  24  8
6  25  8

$$$$
