137636498
  -OEChem-09292322392D

 63 67  0     0  0  0  0  0  0999 V2000
    5.5101    2.8774    0.0000 O   0  0  0  0  0  0  0  0  0  0  0  0
    7.2422   -7.1226    0.0000 O   0  0  0  0  0  0  0  0  0  0  0  0
    2.8757    7.4326    0.0000 O   0  0  0  0  0  0  0  0  0  0  0  0
    7.2422   -1.1226    0.0000 N   0  0  0  0  0  0  0  0  0  0  0  0
    7.2422   -3.1226    0.0000 N   0  0  0  0  0  0  0  0  0  0  0  0
    9.0021   -6.1573    0.0000 N   0  0  0  0  0  0  0  0  0  0  0  0
    3.7359    5.9293    0.0000 N   0  0  0  0  0  0  0  0  0  0  0  0
    6.3761   -1.6226    0.0000 C   0  0  0  0  0  0  0  0  0  0  0  0
    8.1082   -1.6226    0.0000 C   0  0  0  0  0  0  0  0  0  0  0  0
    6.3761   -2.6226    0.0000 C   0  0  0  0  0  0  0  0  0  0  0  0
    8.1082   -2.6226    0.0000 C   0  0  0  0  0  0  0  0  0  0  0  0
    7.2422   -0.1226    0.0000 C   0  0  0  0  0  0  0  0  0  0  0  0
    6.3761    0.3774    0.0000 C   0  0  0  0  0  0  0  0  0  0  0  0
    7.2422   -4.1226    0.0000 C   0  0  0  0  0  0  0  0  0  0  0  0
    6.3761    1.3774    0.0000 C   0  0  0  0  0  0  0  0  0  0  0  0
    8.1082   -4.6226    0.0000 C   0  0  0  0  0  0  0  0  0  0  0  0
    6.3761   -4.6226    0.0000 C   0  0  0  0  0  0  0  0  0  0  0  0
    5.5101    1.8774    0.0000 C   0  0  0  0  0  0  0  0  0  0  0  0
    8.1082   -5.6226    0.0000 C   0  0  0  0  0  0  0  0  0  0  0  0
    6.3761   -5.6226    0.0000 C   0  0  0  0  0  0  0  0  0  0  0  0
    9.0021   -4.0880    0.0000 C   0  0  0  0  0  0  0  0  0  0  0  0
    7.2422   -6.1226    0.0000 C   0  0  0  0  0  0  0  0  0  0  0  0
    2.8641    4.4327    0.0000 C   0  0  0  0  0  0  0  0  0  0  0  0
    2.0000    4.9360    0.0000 C   0  0  0  0  0  0  0  0  0  0  0  0
    4.6441    3.3774    0.0000 C   0  0  0  0  0  0  0  0  0  0  0  0
    3.7320    4.9293    0.0000 C   0  0  0  0  0  0  0  0  0  0  0  0
    2.0038    5.9360    0.0000 C   0  0  0  0  0  0  0  0  0  0  0  0
    9.9082   -4.6018    0.0000 C   0  0  0  0  0  0  0  0  0  0  0  0
    4.6401    4.4190    0.0000 C   0  0  0  0  0  0  0  0  0  0  0  0
    2.8440    3.3912    0.0000 C   0  0  0  0  0  0  0  0  0  0  0  0
    3.7400    2.8600    0.0000 C   0  0  0  0  0  0  0  0  0  0  0  0
    9.9082   -5.6435    0.0000 C   0  0  0  0  0  0  0  0  0  0  0  0
    2.8718    6.4326    0.0000 C   0  0  0  0  0  0  0  0  0  0  0  0
    6.1641   -1.0400    0.0000 H   0  0  0  0  0  0  0  0  0  0  0  0
    5.7656   -1.7303    0.0000 H   0  0  0  0  0  0  0  0  0  0  0  0
    8.7188   -1.7303    0.0000 H   0  0  0  0  0  0  0  0  0  0  0  0
    8.3202   -1.0400    0.0000 H   0  0  0  0  0  0  0  0  0  0  0  0
    5.7656   -2.5150    0.0000 H   0  0  0  0  0  0  0  0  0  0  0  0
    6.1641   -3.2053    0.0000 H   0  0  0  0  0  0  0  0  0  0  0  0
    8.3202   -3.2053    0.0000 H   0  0  0  0  0  0  0  0  0  0  0  0
    8.7188   -2.5150    0.0000 H   0  0  0  0  0  0  0  0  0  0  0  0
    7.8528   -0.2303    0.0000 H   0  0  0  0  0  0  0  0  0  0  0  0
    7.4542    0.4600    0.0000 H   0  0  0  0  0  0  0  0  0  0  0  0
    5.7656    0.4850    0.0000 H   0  0  0  0  0  0  0  0  0  0  0  0
    6.1641   -0.2053    0.0000 H   0  0  0  0  0  0  0  0  0  0  0  0
    6.9867    1.2697    0.0000 H   0  0  0  0  0  0  0  0  0  0  0  0
    6.5882    1.9600    0.0000 H   0  0  0  0  0  0  0  0  0  0  0  0
    5.8392   -4.3126    0.0000 H   0  0  0  0  0  0  0  0  0  0  0  0
    4.8995    1.9850    0.0000 H   0  0  0  0  0  0  0  0  0  0  0  0
    5.2981    1.2947    0.0000 H   0  0  0  0  0  0  0  0  0  0  0  0
    5.8392   -5.9326    0.0000 H   0  0  0  0  0  0  0  0  0  0  0  0
    8.9950   -3.4680    0.0000 H   0  0  0  0  0  0  0  0  0  0  0  0
    1.3898    5.0460    0.0000 H   0  0  0  0  0  0  0  0  0  0  0  0
    1.7857    4.3542    0.0000 H   0  0  0  0  0  0  0  0  0  0  0  0
    1.7940    6.5194    0.0000 H   0  0  0  0  0  0  0  0  0  0  0  0
    1.3929    5.8307    0.0000 H   0  0  0  0  0  0  0  0  0  0  0  0
    5.1746    4.7331    0.0000 H   0  0  0  0  0  0  0  0  0  0  0  0
   10.4439   -4.2898    0.0000 H   0  0  0  0  0  0  0  0  0  0  0  0
    2.3024    3.0896    0.0000 H   0  0  0  0  0  0  0  0  0  0  0  0
    3.7352    2.2400    0.0000 H   0  0  0  0  0  0  0  0  0  0  0  0
    4.2740    6.2373    0.0000 H   0  0  0  0  0  0  0  0  0  0  0  0
   10.4439   -5.9555    0.0000 H   0  0  0  0  0  0  0  0  0  0  0  0
    6.7052   -7.4326    0.0000 H   0  0  0  0  0  0  0  0  0  0  0  0
  1 18  1  0  0  0  0
  1 25  1  0  0  0  0
  2 22  1  0  0  0  0
  2 63  1  0  0  0  0
  3 33  2  0  0  0  0
  4  8  1  0  0  0  0
  4  9  1  0  0  0  0
  4 12  1  0  0  0  0
  5 10  1  0  0  0  0
  5 11  1  0  0  0  0
  5 14  1  0  0  0  0
  6 19  1  0  0  0  0
  6 32  2  0  0  0  0
  7 26  1  0  0  0  0
  7 33  1  0  0  0  0
  7 61  1  0  0  0  0
  8 10  1  0  0  0  0
  8 34  1  0  0  0  0
  8 35  1  0  0  0  0
  9 11  1  0  0  0  0
  9 36  1  0  0  0  0
  9 37  1  0  0  0  0
 10 38  1  0  0  0  0
 10 39  1  0  0  0  0
 11 40  1  0  0  0  0
 11 41  1  0  0  0  0
 12 13  1  0  0  0  0
 12 42  1  0  0  0  0
 12 43  1  0  0  0  0
 13 15  1  0  0  0  0
 13 44  1  0  0  0  0
 13 45  1  0  0  0  0
 14 16  2  0  0  0  0
 14 17  1  0  0  0  0
 15 18  1  0  0  0  0
 15 46  1  0  0  0  0
 15 47  1  0  0  0  0
 16 19  1  0  0  0  0
 16 21  1  0  0  0  0
 17 20  2  0  0  0  0
 17 48  1  0  0  0  0
 18 49  1  0  0  0  0
 18 50  1  0  0  0  0
 19 22  2  0  0  0  0
 20 22  1  0  0  0  0
 20 51  1  0  0  0  0
 21 28  2  0  0  0  0
 21 52  1  0  0  0  0
 23 24  1  0  0  0  0
 23 26  2  0  0  0  0
 23 30  1  0  0  0  0
 24 27  1  0  0  0  0
 24 53  1  0  0  0  0
 24 54  1  0  0  0  0
 25 29  2  0  0  0  0
 25 31  1  0  0  0  0
 26 29  1  0  0  0  0
 27 33  1  0  0  0  0
 27 55  1  0  0  0  0
 27 56  1  0  0  0  0
 28 32  1  0  0  0  0
 28 58  1  0  0  0  0
 29 57  1  0  0  0  0
 30 31  2  0  0  0  0
 30 59  1  0  0  0  0
 31 60  1  0  0  0  0
 32 62  1  0  0  0  0
M  END
> <PUBCHEM_COMPOUND_CID>
137636498

> <PUBCHEM_COMPOUND_CANONICALIZED>
1

> <PUBCHEM_CACTVS_COMPLEXITY>
641

> <PUBCHEM_CACTVS_HBOND_ACCEPTOR>
6

> <PUBCHEM_CACTVS_HBOND_DONOR>
2

> <PUBCHEM_CACTVS_ROTATABLE_BOND>
7

> <PUBCHEM_CACTVS_SUBSKEYS>
AAADceB7sAAAAAAAAAAAAAAAAAAAAAAAAAA8eLECAAAAAACx9AAAHgAQCAAADAzhngY8xvPIFgCoAzV3VASCiCAxYiAI2CE/bJgOZvLW8duWfCjm1BnY+Ae42bOeIEABAgQCEABAgAIECAQgAAAAAAAAAA==

> <PUBCHEM_IUPAC_OPENEYE_NAME>
7-[4-[4-(8-hydroxy-5-quinolyl)piperazin-1-yl]butoxy]-3,4-dihydro-1H-quinolin-2-one

> <PUBCHEM_IUPAC_CAS_NAME>
7-[4-[4-(8-hydroxy-5-quinolinyl)-1-piperazinyl]butoxy]-3,4-dihydro-1H-quinolin-2-one

> <PUBCHEM_IUPAC_NAME_MARKUP>
7-[4-[4-(8-hydroxyquinolin-5-yl)piperazin-1-yl]butoxy]-3,4-dihydro-1<I>H</I>-quinolin-2-one

> <PUBCHEM_IUPAC_NAME>
7-[4-[4-(8-hydroxyquinolin-5-yl)piperazin-1-yl]butoxy]-3,4-dihydro-1H-quinolin-2-one

> <PUBCHEM_IUPAC_SYSTEMATIC_NAME>
7-[4-[4-(8-oxidanylquinolin-5-yl)piperazin-1-yl]butoxy]-3,4-dihydro-1H-quinolin-2-one

> <PUBCHEM_IUPAC_TRADITIONAL_NAME>
7-[4-[4-(8-hydroxy-5-quinolyl)piperazino]butoxy]-3,4-dihydrocarbostyril

> <PUBCHEM_IUPAC_INCHI>
InChI=1S/C26H30N4O3/c31-24-9-8-23(21-4-3-11-27-26(21)24)30-15-13-29(14-16-30)12-1-2-17-33-20-7-5-19-6-10-25(32)28-22(19)18-20/h3-5,7-9,11,18,31H,1-2,6,10,12-17H2,(H,28,32)

> <PUBCHEM_IUPAC_INCHIKEY>
OYKQSDLPRQMVDA-UHFFFAOYSA-N

> <PUBCHEM_XLOGP3_AA>
3.3

> <PUBCHEM_EXACT_MASS>
446.23179083

> <PUBCHEM_MOLECULAR_FORMULA>
C26H30N4O3

> <PUBCHEM_MOLECULAR_WEIGHT>
446.5

> <PUBCHEM_OPENEYE_CAN_SMILES>
C1CC(=O)NC2=C1C=CC(=C2)OCCCCN3CCN(CC3)C4=C5C=CC=NC5=C(C=C4)O

> <PUBCHEM_OPENEYE_ISO_SMILES>
C1CC(=O)NC2=C1C=CC(=C2)OCCCCN3CCN(CC3)C4=C5C=CC=NC5=C(C=C4)O

> <PUBCHEM_CACTVS_TPSA>
77.9

> <PUBCHEM_MONOISOTOPIC_WEIGHT>
446.23179083

> <PUBCHEM_TOTAL_CHARGE>
0

> <PUBCHEM_HEAVY_ATOM_COUNT>
33

> <PUBCHEM_ATOM_DEF_STEREO_COUNT>
0

> <PUBCHEM_ATOM_UDEF_STEREO_COUNT>
0

> <PUBCHEM_BOND_DEF_STEREO_COUNT>
0

> <PUBCHEM_BOND_UDEF_STEREO_COUNT>
0

> <PUBCHEM_ISOTOPIC_ATOM_COUNT>
0

> <PUBCHEM_COMPONENT_COUNT>
1

> <PUBCHEM_CACTVS_TAUTO_COUNT>
-1

> <PUBCHEM_COORDINATE_TYPE>
1
5
255

> <PUBCHEM_BONDANNOTATIONS>
14  16  8
14  17  8
16  19  8
16  21  8
17  20  8
19  22  8
20  22  8
21  28  8
23  26  8
23  30  8
25  29  8
25  31  8
26  29  8
28  32  8
30  31  8
6  19  8
6  32  8

$$$$
