72198754
  -OEChem-09292322052D

 66 70  0     0  0  0  0  0  0999 V2000
   10.7729    3.9347    0.0000 O   0  0  0  0  0  0  0  0  0  0  0  0
    3.0000   -2.1507    0.0000 O   0  0  0  0  0  0  0  0  0  0  0  0
    6.0000   -0.4186    0.0000 N   0  0  0  0  0  0  0  0  0  0  0  0
    5.0000   -2.1507    0.0000 N   0  0  0  0  0  0  0  0  0  0  0  0
   10.5000    2.1795    0.0000 N   0  0  0  0  0  0  0  0  0  0  0  0
    5.0000   -0.4186    0.0000 C   0  0  0  0  0  0  0  0  0  0  0  0
    6.5000   -1.2846    0.0000 C   0  0  0  0  0  0  0  0  0  0  0  0
    6.5000    0.4474    0.0000 C   0  0  0  0  0  0  0  0  0  0  0  0
    4.5000   -1.2846    0.0000 C   0  0  0  0  0  0  0  0  0  0  0  0
    6.0000   -2.1507    0.0000 C   0  0  0  0  0  0  0  0  0  0  0  0
    7.5000    0.4474    0.0000 C   0  0  0  0  0  0  0  0  0  0  0  0
    8.0000    1.3134    0.0000 C   0  0  0  0  0  0  0  0  0  0  0  0
    9.0000    1.3134    0.0000 C   0  0  0  0  0  0  0  0  0  0  0  0
    9.5000    2.1795    0.0000 C   0  0  0  0  0  0  0  0  0  0  0  0
   11.0836    1.3747    0.0000 C   0  0  0  0  0  0  0  0  0  0  0  0
    4.5000   -3.0167    0.0000 C   0  0  0  0  0  0  0  0  0  0  0  0
   12.0298    1.6795    0.0000 C   0  0  0  0  0  0  0  0  0  0  0  0
   12.0298    2.6795    0.0000 C   0  0  0  0  0  0  0  0  0  0  0  0
   11.0836    2.9842    0.0000 C   0  0  0  0  0  0  0  0  0  0  0  0
   12.8959    3.1795    0.0000 C   0  0  0  0  0  0  0  0  0  0  0  0
   12.8959    1.1795    0.0000 C   0  0  0  0  0  0  0  0  0  0  0  0
    3.5000   -3.0167    0.0000 C   0  0  0  0  0  0  0  0  0  0  0  0
   13.7619    2.6795    0.0000 C   0  0  0  0  0  0  0  0  0  0  0  0
    5.0000   -3.8827    0.0000 C   0  0  0  0  0  0  0  0  0  0  0  0
   13.7619    1.6795    0.0000 C   0  0  0  0  0  0  0  0  0  0  0  0
   12.8798    4.2210    0.0000 C   0  0  0  0  0  0  0  0  0  0  0  0
    3.0000   -3.8827    0.0000 C   0  0  0  0  0  0  0  0  0  0  0  0
    4.5000   -4.7487    0.0000 C   0  0  0  0  0  0  0  0  0  0  0  0
   14.6719    3.1863    0.0000 C   0  0  0  0  0  0  0  0  0  0  0  0
    3.5000   -4.7487    0.0000 C   0  0  0  0  0  0  0  0  0  0  0  0
   13.7778    4.7487    0.0000 C   0  0  0  0  0  0  0  0  0  0  0  0
   14.6799    4.2279    0.0000 C   0  0  0  0  0  0  0  0  0  0  0  0
    2.0000   -2.1507    0.0000 C   0  0  0  0  0  0  0  0  0  0  0  0
    5.1077    0.1920    0.0000 H   0  0  0  0  0  0  0  0  0  0  0  0
    4.4174   -0.2066    0.0000 H   0  0  0  0  0  0  0  0  0  0  0  0
    6.9750   -1.6832    0.0000 H   0  0  0  0  0  0  0  0  0  0  0  0
    6.9750   -0.8861    0.0000 H   0  0  0  0  0  0  0  0  0  0  0  0
    6.6077    1.0580    0.0000 H   0  0  0  0  0  0  0  0  0  0  0  0
    5.9174    0.6595    0.0000 H   0  0  0  0  0  0  0  0  0  0  0  0
    4.0250   -0.8861    0.0000 H   0  0  0  0  0  0  0  0  0  0  0  0
    4.0250   -1.6832    0.0000 H   0  0  0  0  0  0  0  0  0  0  0  0
    5.8923   -2.7612    0.0000 H   0  0  0  0  0  0  0  0  0  0  0  0
    6.5826   -2.3627    0.0000 H   0  0  0  0  0  0  0  0  0  0  0  0
    7.3923   -0.1632    0.0000 H   0  0  0  0  0  0  0  0  0  0  0  0
    8.0826    0.2354    0.0000 H   0  0  0  0  0  0  0  0  0  0  0  0
    8.1077    1.9240    0.0000 H   0  0  0  0  0  0  0  0  0  0  0  0
    7.4174    1.5255    0.0000 H   0  0  0  0  0  0  0  0  0  0  0  0
    8.8923    0.7029    0.0000 H   0  0  0  0  0  0  0  0  0  0  0  0
    9.5826    1.1014    0.0000 H   0  0  0  0  0  0  0  0  0  0  0  0
    9.6077    2.7900    0.0000 H   0  0  0  0  0  0  0  0  0  0  0  0
    8.9174    2.3915    0.0000 H   0  0  0  0  0  0  0  0  0  0  0  0
   10.5462    1.0655    0.0000 H   0  0  0  0  0  0  0  0  0  0  0  0
   11.3346    0.8078    0.0000 H   0  0  0  0  0  0  0  0  0  0  0  0
   12.8959    0.5595    0.0000 H   0  0  0  0  0  0  0  0  0  0  0  0
    5.6200   -3.8827    0.0000 H   0  0  0  0  0  0  0  0  0  0  0  0
   14.2988    1.3695    0.0000 H   0  0  0  0  0  0  0  0  0  0  0  0
   12.3393    4.5248    0.0000 H   0  0  0  0  0  0  0  0  0  0  0  0
    2.3800   -3.8827    0.0000 H   0  0  0  0  0  0  0  0  0  0  0  0
    4.8100   -5.2857    0.0000 H   0  0  0  0  0  0  0  0  0  0  0  0
   15.2052    2.8701    0.0000 H   0  0  0  0  0  0  0  0  0  0  0  0
    3.1900   -5.2857    0.0000 H   0  0  0  0  0  0  0  0  0  0  0  0
   13.7754    5.3687    0.0000 H   0  0  0  0  0  0  0  0  0  0  0  0
   15.2180    4.5358    0.0000 H   0  0  0  0  0  0  0  0  0  0  0  0
    2.0000   -1.5307    0.0000 H   0  0  0  0  0  0  0  0  0  0  0  0
    1.3800   -2.1507    0.0000 H   0  0  0  0  0  0  0  0  0  0  0  0
    2.0000   -2.7707    0.0000 H   0  0  0  0  0  0  0  0  0  0  0  0
  1 19  2  0  0  0  0
  2 22  1  0  0  0  0
  2 33  1  0  0  0  0
  3  6  1  0  0  0  0
  3  7  1  0  0  0  0
  3  8  1  0  0  0  0
  4  9  1  0  0  0  0
  4 10  1  0  0  0  0
  4 16  1  0  0  0  0
  5 14  1  0  0  0  0
  5 15  1  0  0  0  0
  5 19  1  0  0  0  0
  6  9  1  0  0  0  0
  6 34  1  0  0  0  0
  6 35  1  0  0  0  0
  7 10  1  0  0  0  0
  7 36  1  0  0  0  0
  7 37  1  0  0  0  0
  8 11  1  0  0  0  0
  8 38  1  0  0  0  0
  8 39  1  0  0  0  0
  9 40  1  0  0  0  0
  9 41  1  0  0  0  0
 10 42  1  0  0  0  0
 10 43  1  0  0  0  0
 11 12  1  0  0  0  0
 11 44  1  0  0  0  0
 11 45  1  0  0  0  0
 12 13  1  0  0  0  0
 12 46  1  0  0  0  0
 12 47  1  0  0  0  0
 13 14  1  0  0  0  0
 13 48  1  0  0  0  0
 13 49  1  0  0  0  0
 14 50  1  0  0  0  0
 14 51  1  0  0  0  0
 15 17  1  0  0  0  0
 15 52  1  0  0  0  0
 15 53  1  0  0  0  0
 16 22  1  0  0  0  0
 16 24  2  0  0  0  0
 17 18  2  0  0  0  0
 17 21  1  0  0  0  0
 18 19  1  0  0  0  0
 18 20  1  0  0  0  0
 20 23  1  0  0  0  0
 20 26  2  0  0  0  0
 21 25  2  0  0  0  0
 21 54  1  0  0  0  0
 22 27  2  0  0  0  0
 23 25  1  0  0  0  0
 23 29  2  0  0  0  0
 24 28  1  0  0  0  0
 24 55  1  0  0  0  0
 25 56  1  0  0  0  0
 26 31  1  0  0  0  0
 26 57  1  0  0  0  0
 27 30  1  0  0  0  0
 27 58  1  0  0  0  0
 28 30  2  0  0  0  0
 28 59  1  0  0  0  0
 29 32  1  0  0  0  0
 29 60  1  0  0  0  0
 30 61  1  0  0  0  0
 31 32  2  0  0  0  0
 31 62  1  0  0  0  0
 32 63  1  0  0  0  0
 33 64  1  0  0  0  0
 33 65  1  0  0  0  0
 33 66  1  0  0  0  0
M  END
> <PUBCHEM_COMPOUND_CID>
72198754

> <PUBCHEM_COMPOUND_CANONICALIZED>
1

> <PUBCHEM_CACTVS_COMPLEXITY>
635

> <PUBCHEM_CACTVS_HBOND_ACCEPTOR>
4

> <PUBCHEM_CACTVS_HBOND_DONOR>
0

> <PUBCHEM_CACTVS_ROTATABLE_BOND>
8

> <PUBCHEM_CACTVS_SUBSKEYS>
AAADcfB7MAAAAAAAAAAAAAAAAAAAAWAAAAA8YMEAAAAAAFjBVAAAHgAAAAAADAzBmAYyxsMABACIAiVSUACCCAAlIgAIiAEPbMgOZjLEtZuVMShkxhHY6QecyMCOwAACAAAQEACAAAQAACAgAAAAAAAAAA==

> <PUBCHEM_IUPAC_OPENEYE_NAME>
2-[5-[4-(2-methoxyphenyl)piperazin-1-yl]pentyl]-3H-benzo[g]isoindol-1-one

> <PUBCHEM_IUPAC_CAS_NAME>
2-[5-[4-(2-methoxyphenyl)-1-piperazinyl]pentyl]-3H-benzo[g]isoindol-1-one

> <PUBCHEM_IUPAC_NAME_MARKUP>
2-[5-[4-(2-methoxyphenyl)piperazin-1-yl]pentyl]-3<I>H</I>-benzo[g]isoindol-1-one

> <PUBCHEM_IUPAC_NAME>
2-[5-[4-(2-methoxyphenyl)piperazin-1-yl]pentyl]-3H-benzo[g]isoindol-1-one

> <PUBCHEM_IUPAC_SYSTEMATIC_NAME>
2-[5-[4-(2-methoxyphenyl)piperazin-1-yl]pentyl]-3H-benzo[g]isoindol-1-one

> <PUBCHEM_IUPAC_TRADITIONAL_NAME>
2-[5-[4-(2-methoxyphenyl)piperazino]pentyl]-3H-benz[g]isoindol-1-one

> <PUBCHEM_IUPAC_INCHI>
InChI=1S/C28H33N3O2/c1-33-26-12-6-5-11-25(26)30-19-17-29(18-20-30)15-7-2-8-16-31-21-23-14-13-22-9-3-4-10-24(22)27(23)28(31)32/h3-6,9-14H,2,7-8,15-21H2,1H3

> <PUBCHEM_IUPAC_INCHIKEY>
YIIWKHZEONNJTQ-UHFFFAOYSA-N

> <PUBCHEM_XLOGP3_AA>
4.9

> <PUBCHEM_EXACT_MASS>
443.25727730

> <PUBCHEM_MOLECULAR_FORMULA>
C28H33N3O2

> <PUBCHEM_MOLECULAR_WEIGHT>
443.6

> <PUBCHEM_OPENEYE_CAN_SMILES>
COC1=CC=CC=C1N2CCN(CC2)CCCCCN3CC4=C(C3=O)C5=CC=CC=C5C=C4

> <PUBCHEM_OPENEYE_ISO_SMILES>
COC1=CC=CC=C1N2CCN(CC2)CCCCCN3CC4=C(C3=O)C5=CC=CC=C5C=C4

> <PUBCHEM_CACTVS_TPSA>
36

> <PUBCHEM_MONOISOTOPIC_WEIGHT>
443.25727730

> <PUBCHEM_TOTAL_CHARGE>
0

> <PUBCHEM_HEAVY_ATOM_COUNT>
33

> <PUBCHEM_ATOM_DEF_STEREO_COUNT>
0

> <PUBCHEM_ATOM_UDEF_STEREO_COUNT>
0

> <PUBCHEM_BOND_DEF_STEREO_COUNT>
0

> <PUBCHEM_BOND_UDEF_STEREO_COUNT>
0

> <PUBCHEM_ISOTOPIC_ATOM_COUNT>
0

> <PUBCHEM_COMPONENT_COUNT>
1

> <PUBCHEM_CACTVS_TAUTO_COUNT>
-1

> <PUBCHEM_COORDINATE_TYPE>
1
5
255

> <PUBCHEM_BONDANNOTATIONS>
16  22  8
16  24  8
17  18  8
17  21  8
18  20  8
20  23  8
20  26  8
21  25  8
22  27  8
23  25  8
23  29  8
24  28  8
26  31  8
27  30  8
28  30  8
29  32  8
31  32  8

$$$$
