122196341
  -OEChem-09292322072D

 51 55  0     0  0  0  0  0  0999 V2000
   11.5942    3.0000    0.0000 F   0  0  0  0  0  0  0  0  0  0  0  0
    7.2641    0.5000    0.0000 O   0  0  0  0  0  0  0  0  0  0  0  0
   13.3263   -3.0000    0.0000 O   0  0  0  0  0  0  0  0  0  0  0  0
   12.4603   -1.5000    0.0000 N   0  0  0  0  0  0  0  0  0  0  0  0
    4.6660   -0.0000    0.0000 N   0  0  0  0  0  0  0  0  0  0  0  0
   10.7282   -1.5000    0.0000 C   0  0  0  0  0  0  0  0  0  0  0  0
   11.5942   -1.0000    0.0000 C   0  0  0  0  0  0  0  0  0  0  0  0
    9.8622   -1.0000    0.0000 C   0  0  0  0  0  0  0  0  0  0  0  0
   11.5942    0.0000    0.0000 C   0  0  0  0  0  0  0  0  0  0  0  0
   10.7282   -2.5000    0.0000 C   0  0  0  0  0  0  0  0  0  0  0  0
    8.9962   -1.5000    0.0000 C   0  0  0  0  0  0  0  0  0  0  0  0
    9.8622   -0.0000    0.0000 C   0  0  0  0  0  0  0  0  0  0  0  0
    8.1301   -0.0000    0.0000 C   0  0  0  0  0  0  0  0  0  0  0  0
    8.1301   -1.0000    0.0000 C   0  0  0  0  0  0  0  0  0  0  0  0
    8.9962    0.5000    0.0000 C   0  0  0  0  0  0  0  0  0  0  0  0
    6.3981   -0.0000    0.0000 C   0  0  0  0  0  0  0  0  0  0  0  0
    5.5321    0.5000    0.0000 C   0  0  0  0  0  0  0  0  0  0  0  0
   11.5942   -3.0000    0.0000 C   0  0  0  0  0  0  0  0  0  0  0  0
   12.4603   -2.5000    0.0000 C   0  0  0  0  0  0  0  0  0  0  0  0
    3.8000    1.5000    0.0000 C   0  0  0  0  0  0  0  0  0  0  0  0
    3.8000    0.5000    0.0000 C   0  0  0  0  0  0  0  0  0  0  0  0
   10.7282    0.5000    0.0000 C   0  0  0  0  0  0  0  0  0  0  0  0
   12.4603    0.5000    0.0000 C   0  0  0  0  0  0  0  0  0  0  0  0
    5.5321    1.5000    0.0000 C   0  0  0  0  0  0  0  0  0  0  0  0
    4.6660    2.0000    0.0000 C   0  0  0  0  0  0  0  0  0  0  0  0
   10.7282    1.5000    0.0000 C   0  0  0  0  0  0  0  0  0  0  0  0
   12.4603    1.5000    0.0000 C   0  0  0  0  0  0  0  0  0  0  0  0
    2.9061    2.0347    0.0000 C   0  0  0  0  0  0  0  0  0  0  0  0
    2.9061   -0.0347    0.0000 C   0  0  0  0  0  0  0  0  0  0  0  0
   11.5942    2.0000    0.0000 C   0  0  0  0  0  0  0  0  0  0  0  0
    2.0000    1.5208    0.0000 C   0  0  0  0  0  0  0  0  0  0  0  0
    2.0000    0.4792    0.0000 C   0  0  0  0  0  0  0  0  0  0  0  0
   10.1913   -2.8100    0.0000 H   0  0  0  0  0  0  0  0  0  0  0  0
   12.9972   -1.1900    0.0000 H   0  0  0  0  0  0  0  0  0  0  0  0
    8.9962   -2.1200    0.0000 H   0  0  0  0  0  0  0  0  0  0  0  0
   10.3991    0.3100    0.0000 H   0  0  0  0  0  0  0  0  0  0  0  0
    7.5932   -1.3100    0.0000 H   0  0  0  0  0  0  0  0  0  0  0  0
    8.9962    1.1200    0.0000 H   0  0  0  0  0  0  0  0  0  0  0  0
    5.9996   -0.4749    0.0000 H   0  0  0  0  0  0  0  0  0  0  0  0
    6.7966   -0.4749    0.0000 H   0  0  0  0  0  0  0  0  0  0  0  0
   11.5942   -3.6200    0.0000 H   0  0  0  0  0  0  0  0  0  0  0  0
   10.1913    0.1900    0.0000 H   0  0  0  0  0  0  0  0  0  0  0  0
   12.9972    0.1900    0.0000 H   0  0  0  0  0  0  0  0  0  0  0  0
    6.0690    1.8100    0.0000 H   0  0  0  0  0  0  0  0  0  0  0  0
    4.6660    2.6200    0.0000 H   0  0  0  0  0  0  0  0  0  0  0  0
   10.1913    1.8100    0.0000 H   0  0  0  0  0  0  0  0  0  0  0  0
   12.9972    1.8100    0.0000 H   0  0  0  0  0  0  0  0  0  0  0  0
    2.9132    2.6546    0.0000 H   0  0  0  0  0  0  0  0  0  0  0  0
    2.9132   -0.6546    0.0000 H   0  0  0  0  0  0  0  0  0  0  0  0
    1.4643    1.8329    0.0000 H   0  0  0  0  0  0  0  0  0  0  0  0
    1.4643    0.1671    0.0000 H   0  0  0  0  0  0  0  0  0  0  0  0
  1 30  1  0  0  0  0
  2 13  1  0  0  0  0
  2 16  1  0  0  0  0
  3 19  2  0  0  0  0
  4  7  1  0  0  0  0
  4 19  1  0  0  0  0
  4 34  1  0  0  0  0
  5 17  2  0  0  0  0
  5 21  1  0  0  0  0
  6  7  2  0  0  0  0
  6  8  1  0  0  0  0
  6 10  1  0  0  0  0
  7  9  1  0  0  0  0
  8 11  2  0  0  0  0
  8 12  1  0  0  0  0
  9 22  2  0  0  0  0
  9 23  1  0  0  0  0
 10 18  2  0  0  0  0
 10 33  1  0  0  0  0
 11 14  1  0  0  0  0
 11 35  1  0  0  0  0
 12 15  2  0  0  0  0
 12 36  1  0  0  0  0
 13 14  2  0  0  0  0
 13 15  1  0  0  0  0
 14 37  1  0  0  0  0
 15 38  1  0  0  0  0
 16 17  1  0  0  0  0
 16 39  1  0  0  0  0
 16 40  1  0  0  0  0
 17 24  1  0  0  0  0
 18 19  1  0  0  0  0
 18 41  1  0  0  0  0
 20 21  1  0  0  0  0
 20 25  1  0  0  0  0
 20 28  2  0  0  0  0
 21 29  2  0  0  0  0
 22 26  1  0  0  0  0
 22 42  1  0  0  0  0
 23 27  2  0  0  0  0
 23 43  1  0  0  0  0
 24 25  2  0  0  0  0
 24 44  1  0  0  0  0
 25 45  1  0  0  0  0
 26 30  2  0  0  0  0
 26 46  1  0  0  0  0
 27 30  1  0  0  0  0
 27 47  1  0  0  0  0
 28 31  1  0  0  0  0
 28 48  1  0  0  0  0
 29 32  1  0  0  0  0
 29 49  1  0  0  0  0
 31 32  2  0  0  0  0
 31 50  1  0  0  0  0
 32 51  1  0  0  0  0
M  END
> <PUBCHEM_COMPOUND_CID>
122196341

> <PUBCHEM_COMPOUND_CANONICALIZED>
1

> <PUBCHEM_CACTVS_COMPLEXITY>
719

> <PUBCHEM_CACTVS_HBOND_ACCEPTOR>
4

> <PUBCHEM_CACTVS_HBOND_DONOR>
1

> <PUBCHEM_CACTVS_ROTATABLE_BOND>
5

> <PUBCHEM_CACTVS_SUBSKEYS>
AAADceB7MQAAAAAAAAAAAAAAAAAAAAAAAAA8YMECAAAAAACx9AAAHwAQAAAADAyhngowxvLIFACoAyVyVASCiCAhIiAImCA2bNgOJuLEsZuHOCjk1BHY6YeQwLAOIAAAAAACAABAAAAAAAQAAAAAAAAAAA==

> <PUBCHEM_IUPAC_OPENEYE_NAME>
6-(4-fluorophenyl)-5-[4-(2-quinolylmethoxy)phenyl]-1H-pyridin-2-one

> <PUBCHEM_IUPAC_CAS_NAME>
6-(4-fluorophenyl)-5-[4-(2-quinolinylmethoxy)phenyl]-1H-pyridin-2-one

> <PUBCHEM_IUPAC_NAME_MARKUP>
6-(4-fluorophenyl)-5-[4-(quinolin-2-ylmethoxy)phenyl]-1<I>H</I>-pyridin-2-one

> <PUBCHEM_IUPAC_NAME>
6-(4-fluorophenyl)-5-[4-(quinolin-2-ylmethoxy)phenyl]-1H-pyridin-2-one

> <PUBCHEM_IUPAC_SYSTEMATIC_NAME>
6-(4-fluorophenyl)-5-[4-(quinolin-2-ylmethoxy)phenyl]-1H-pyridin-2-one

> <PUBCHEM_IUPAC_TRADITIONAL_NAME>
6-(4-fluorophenyl)-5-[4-(2-quinolylmethoxy)phenyl]-2-pyridone

> <PUBCHEM_IUPAC_INCHI>
InChI=1S/C27H19FN2O2/c28-21-10-5-20(6-11-21)27-24(15-16-26(31)30-27)18-8-13-23(14-9-18)32-17-22-12-7-19-3-1-2-4-25(19)29-22/h1-16H,17H2,(H,30,31)

> <PUBCHEM_IUPAC_INCHIKEY>
OOOKPENMJKOYJM-UHFFFAOYSA-N

> <PUBCHEM_XLOGP3_AA>
4.9

> <PUBCHEM_EXACT_MASS>
422.14305602

> <PUBCHEM_MOLECULAR_FORMULA>
C27H19FN2O2

> <PUBCHEM_MOLECULAR_WEIGHT>
422.4

> <PUBCHEM_OPENEYE_CAN_SMILES>
C1=CC=C2C(=C1)C=CC(=N2)COC3=CC=C(C=C3)C4=C(NC(=O)C=C4)C5=CC=C(C=C5)F

> <PUBCHEM_OPENEYE_ISO_SMILES>
C1=CC=C2C(=C1)C=CC(=N2)COC3=CC=C(C=C3)C4=C(NC(=O)C=C4)C5=CC=C(C=C5)F

> <PUBCHEM_CACTVS_TPSA>
51.2

> <PUBCHEM_MONOISOTOPIC_WEIGHT>
422.14305602

> <PUBCHEM_TOTAL_CHARGE>
0

> <PUBCHEM_HEAVY_ATOM_COUNT>
32

> <PUBCHEM_ATOM_DEF_STEREO_COUNT>
0

> <PUBCHEM_ATOM_UDEF_STEREO_COUNT>
0

> <PUBCHEM_BOND_DEF_STEREO_COUNT>
0

> <PUBCHEM_BOND_UDEF_STEREO_COUNT>
0

> <PUBCHEM_ISOTOPIC_ATOM_COUNT>
0

> <PUBCHEM_COMPONENT_COUNT>
1

> <PUBCHEM_CACTVS_TAUTO_COUNT>
-1

> <PUBCHEM_COORDINATE_TYPE>
1
5
255

> <PUBCHEM_BONDANNOTATIONS>
10  18  8
11  14  8
12  15  8
13  14  8
13  15  8
17  24  8
18  19  8
20  21  8
20  25  8
20  28  8
21  29  8
22  26  8
23  27  8
24  25  8
26  30  8
27  30  8
28  31  8
29  32  8
31  32  8
4  19  8
4  7  8
5  17  8
5  21  8
6  10  8
6  7  8
8  11  8
8  12  8
9  22  8
9  23  8

$$$$
