10444260
  -OEChem-09292322032D

 35 36  0     1  0  0  0  0  0999 V2000
    4.5981   -3.7500    0.0000 F   0  0  0  0  0  0  0  0  0  0  0  0
    5.4641    0.7500    0.0000 O   0  0  0  0  0  0  0  0  0  0  0  0
    2.8660   -2.7500    0.0000 O   0  0  0  0  0  0  0  0  0  0  0  0
    3.7320    1.7500    0.0000 N   0  0  3  0  0  0  0  0  0  0  0  0
    3.7320    0.7500    0.0000 C   0  0  0  0  0  0  0  0  0  0  0  0
    4.5981    0.2500    0.0000 C   0  0  2  0  0  0  0  0  0  0  0  0
    4.5981    2.2500    0.0000 C   0  0  0  0  0  0  0  0  0  0  0  0
    2.8660    2.2500    0.0000 C   0  0  0  0  0  0  0  0  0  0  0  0
    5.4641    1.7500    0.0000 C   0  0  0  0  0  0  0  0  0  0  0  0
    4.5981   -0.7500    0.0000 C   0  0  0  0  0  0  0  0  0  0  0  0
    2.8660    3.2500    0.0000 C   0  0  0  0  0  0  0  0  0  0  0  0
    3.7320   -1.2500    0.0000 C   0  0  0  0  0  0  0  0  0  0  0  0
    5.4641   -1.2500    0.0000 C   0  0  0  0  0  0  0  0  0  0  0  0
    2.0000    3.7500    0.0000 C   0  0  0  0  0  0  0  0  0  0  0  0
    3.7320   -2.2500    0.0000 C   0  0  0  0  0  0  0  0  0  0  0  0
    5.4641   -2.2500    0.0000 C   0  0  0  0  0  0  0  0  0  0  0  0
    4.5981   -2.7500    0.0000 C   0  0  0  0  0  0  0  0  0  0  0  0
    3.1215    0.8577    0.0000 H   0  0  0  0  0  0  0  0  0  0  0  0
    3.5200    0.1674    0.0000 H   0  0  0  0  0  0  0  0  0  0  0  0
    5.1350   -0.0600    0.0000 H   0  0  0  0  0  0  0  0  0  0  0  0
    4.9966    2.7250    0.0000 H   0  0  0  0  0  0  0  0  0  0  0  0
    4.1996    2.7250    0.0000 H   0  0  0  0  0  0  0  0  0  0  0  0
    2.2554    2.3577    0.0000 H   0  0  0  0  0  0  0  0  0  0  0  0
    2.6540    1.6674    0.0000 H   0  0  0  0  0  0  0  0  0  0  0  0
    6.0747    1.6423    0.0000 H   0  0  0  0  0  0  0  0  0  0  0  0
    5.6762    2.3326    0.0000 H   0  0  0  0  0  0  0  0  0  0  0  0
    3.4766    3.1423    0.0000 H   0  0  0  0  0  0  0  0  0  0  0  0
    3.0781    3.8326    0.0000 H   0  0  0  0  0  0  0  0  0  0  0  0
    3.1951   -0.9400    0.0000 H   0  0  0  0  0  0  0  0  0  0  0  0
    6.0010   -0.9400    0.0000 H   0  0  0  0  0  0  0  0  0  0  0  0
    2.3100    4.2869    0.0000 H   0  0  0  0  0  0  0  0  0  0  0  0
    1.4631    4.0600    0.0000 H   0  0  0  0  0  0  0  0  0  0  0  0
    1.6900    3.2131    0.0000 H   0  0  0  0  0  0  0  0  0  0  0  0
    6.0010   -2.5600    0.0000 H   0  0  0  0  0  0  0  0  0  0  0  0
    2.3291   -2.4400    0.0000 H   0  0  0  0  0  0  0  0  0  0  0  0
  1 17  1  0  0  0  0
  2  6  1  0  0  0  0
  2  9  1  0  0  0  0
  3 15  1  0  0  0  0
  3 35  1  0  0  0  0
  4  5  1  0  0  0  0
  4  7  1  0  0  0  0
  4  8  1  0  0  0  0
  5  6  1  0  0  0  0
  5 18  1  0  0  0  0
  5 19  1  0  0  0  0
  6 10  1  1  0  0  0
  6 20  1  0  0  0  0
  7  9  1  0  0  0  0
  7 21  1  0  0  0  0
  7 22  1  0  0  0  0
  8 11  1  0  0  0  0
  8 23  1  0  0  0  0
  8 24  1  0  0  0  0
  9 25  1  0  0  0  0
  9 26  1  0  0  0  0
 10 12  2  0  0  0  0
 10 13  1  0  0  0  0
 11 14  1  0  0  0  0
 11 27  1  0  0  0  0
 11 28  1  0  0  0  0
 12 15  1  0  0  0  0
 12 29  1  0  0  0  0
 13 16  2  0  0  0  0
 13 30  1  0  0  0  0
 14 31  1  0  0  0  0
 14 32  1  0  0  0  0
 14 33  1  0  0  0  0
 15 17  2  0  0  0  0
 16 17  1  0  0  0  0
 16 34  1  0  0  0  0
M  END
> <PUBCHEM_COMPOUND_CID>
10444260

> <PUBCHEM_COMPOUND_CANONICALIZED>
1

> <PUBCHEM_CACTVS_COMPLEXITY>
240

> <PUBCHEM_CACTVS_HBOND_ACCEPTOR>
4

> <PUBCHEM_CACTVS_HBOND_DONOR>
1

> <PUBCHEM_CACTVS_ROTATABLE_BOND>
3

> <PUBCHEM_CACTVS_SUBSKEYS>
AAADceByMQAAAAAAAAAAAAAAAAAAAAAAAAA8QAAAAAAAAAABAAAAHwAACAAADBThmA4yBoMABgCAAiBCAAACAAAgIAAIiAAOCIgKJiKCsRuHcAAkwBGYuAfQ0LIOAAABAAAAAAAAAAIAAAAAAAAAAAAAAA==

> <PUBCHEM_IUPAC_OPENEYE_NAME>
2-fluoro-5-[(2S)-4-propylmorpholin-2-yl]phenol

> <PUBCHEM_IUPAC_CAS_NAME>
2-fluoro-5-[(2S)-4-propyl-2-morpholinyl]phenol

> <PUBCHEM_IUPAC_NAME_MARKUP>
2-fluoro-5-[(2<I>S</I>)-4-propylmorpholin-2-yl]phenol

> <PUBCHEM_IUPAC_NAME>
2-fluoro-5-[(2S)-4-propylmorpholin-2-yl]phenol

> <PUBCHEM_IUPAC_SYSTEMATIC_NAME>
2-fluoranyl-5-[(2S)-4-propylmorpholin-2-yl]phenol

> <PUBCHEM_IUPAC_TRADITIONAL_NAME>
2-fluoro-5-[(2S)-4-propylmorpholin-2-yl]phenol

> <PUBCHEM_IUPAC_INCHI>
InChI=1S/C13H18FNO2/c1-2-5-15-6-7-17-13(9-15)10-3-4-11(14)12(16)8-10/h3-4,8,13,16H,2,5-7,9H2,1H3/t13-/m1/s1

> <PUBCHEM_IUPAC_INCHIKEY>
GGNXXNYKGWVORA-CYBMUJFWSA-N

> <PUBCHEM_XLOGP3_AA>
2.1

> <PUBCHEM_EXACT_MASS>
239.13215698

> <PUBCHEM_MOLECULAR_FORMULA>
C13H18FNO2

> <PUBCHEM_MOLECULAR_WEIGHT>
239.29

> <PUBCHEM_OPENEYE_CAN_SMILES>
CCCN1CCOC(C1)C2=CC(=C(C=C2)F)O

> <PUBCHEM_OPENEYE_ISO_SMILES>
CCCN1CCO[C@H](C1)C2=CC(=C(C=C2)F)O

> <PUBCHEM_CACTVS_TPSA>
32.7

> <PUBCHEM_MONOISOTOPIC_WEIGHT>
239.13215698

> <PUBCHEM_TOTAL_CHARGE>
0

> <PUBCHEM_HEAVY_ATOM_COUNT>
17

> <PUBCHEM_ATOM_DEF_STEREO_COUNT>
1

> <PUBCHEM_ATOM_UDEF_STEREO_COUNT>
0

> <PUBCHEM_BOND_DEF_STEREO_COUNT>
0

> <PUBCHEM_BOND_UDEF_STEREO_COUNT>
0

> <PUBCHEM_ISOTOPIC_ATOM_COUNT>
0

> <PUBCHEM_COMPONENT_COUNT>
1

> <PUBCHEM_CACTVS_TAUTO_COUNT>
-1

> <PUBCHEM_COORDINATE_TYPE>
1
5
255

> <PUBCHEM_BONDANNOTATIONS>
10  12  8
10  13  8
12  15  8
13  16  8
15  17  8
16  17  8
6  10  5

$$$$
