146025775
  -OEChem-09292322012D

 58 61  0     1  0  0  0  0  0999 V2000
   14.2667   -0.4517    0.0000 O   0  0  0  0  0  0  0  0  0  0  0  0
   14.2667   -2.0612    0.0000 O   0  0  0  0  0  0  0  0  0  0  0  0
    3.7282   -0.2122    0.0000 O   0  0  0  0  0  0  0  0  0  0  0  0
    9.7884   -0.7356    0.0000 N   0  0  3  0  0  0  0  0  0  0  0  0
    4.6000    1.2844    0.0000 N   0  0  0  0  0  0  0  0  0  0  0  0
    2.8680    1.2911    0.0000 N   0  0  0  0  0  0  0  0  0  0  0  0
    7.1923   -0.2256    0.0000 C   0  0  0  0  0  0  0  0  0  0  0  0
    6.3243   -0.7223    0.0000 C   0  0  0  0  0  0  0  0  0  0  0  0
    7.1961    0.7744    0.0000 C   0  0  0  0  0  0  0  0  0  0  0  0
    5.4641    0.7811    0.0000 C   0  0  0  0  0  0  0  0  0  0  0  0
    5.4602   -0.2189    0.0000 C   0  0  0  0  0  0  0  0  0  0  0  0
    6.3320    1.2777    0.0000 C   0  0  0  0  0  0  0  0  0  0  0  0
    8.0564   -0.7289    0.0000 C   0  0  0  0  0  0  0  0  0  0  0  0
    8.9243   -0.2323    0.0000 C   0  0  0  0  0  0  0  0  0  0  0  0
    9.7884   -1.7772    0.0000 C   0  0  0  0  0  0  0  0  0  0  0  0
   10.6945   -0.2218    0.0000 C   0  0  0  0  0  0  0  0  0  0  0  0
   10.6945   -2.2911    0.0000 C   0  0  0  0  0  0  0  0  0  0  0  0
   11.5884   -0.7564    0.0000 C   0  0  0  0  0  0  0  0  0  0  0  0
   11.5884   -1.7564    0.0000 C   0  0  0  0  0  0  0  0  0  0  0  0
    3.7320    0.7878    0.0000 C   0  0  0  0  0  0  0  0  0  0  0  0
   12.4544   -0.2564    0.0000 C   0  0  0  0  0  0  0  0  0  0  0  0
   12.4544   -2.2564    0.0000 C   0  0  0  0  0  0  0  0  0  0  0  0
   13.3204   -0.7564    0.0000 C   0  0  0  0  0  0  0  0  0  0  0  0
   13.3204   -1.7564    0.0000 C   0  0  0  0  0  0  0  0  0  0  0  0
   14.8503   -1.2564    0.0000 C   0  0  0  0  0  0  0  0  0  0  0  0
    2.0000    0.7944    0.0000 C   0  0  0  0  0  0  0  0  0  0  0  0
    2.8718    2.2911    0.0000 C   0  0  0  0  0  0  0  0  0  0  0  0
    7.7304    0.0823    0.0000 H   0  0  0  0  0  0  0  0  0  0  0  0
    5.9240   -1.1957    0.0000 H   0  0  0  0  0  0  0  0  0  0  0  0
    6.7210   -1.1987    0.0000 H   0  0  0  0  0  0  0  0  0  0  0  0
    7.8063    0.6644    0.0000 H   0  0  0  0  0  0  0  0  0  0  0  0
    7.4104    1.3562    0.0000 H   0  0  0  0  0  0  0  0  0  0  0  0
    5.4665    1.4011    0.0000 H   0  0  0  0  0  0  0  0  0  0  0  0
    4.8501   -0.1089    0.0000 H   0  0  0  0  0  0  0  0  0  0  0  0
    5.2459   -0.8007    0.0000 H   0  0  0  0  0  0  0  0  0  0  0  0
    6.7324    1.7511    0.0000 H   0  0  0  0  0  0  0  0  0  0  0  0
    5.9353    1.7542    0.0000 H   0  0  0  0  0  0  0  0  0  0  0  0
    7.6560   -1.2023    0.0000 H   0  0  0  0  0  0  0  0  0  0  0  0
    8.4530   -1.2054    0.0000 H   0  0  0  0  0  0  0  0  0  0  0  0
    9.3246    0.2411    0.0000 H   0  0  0  0  0  0  0  0  0  0  0  0
    8.5276    0.2442    0.0000 H   0  0  0  0  0  0  0  0  0  0  0  0
    4.6024    1.9044    0.0000 H   0  0  0  0  0  0  0  0  0  0  0  0
    9.1775   -1.6711    0.0000 H   0  0  0  0  0  0  0  0  0  0  0  0
    9.5793   -2.3609    0.0000 H   0  0  0  0  0  0  0  0  0  0  0  0
   11.0991    0.2480    0.0000 H   0  0  0  0  0  0  0  0  0  0  0  0
   10.3008    0.2573    0.0000 H   0  0  0  0  0  0  0  0  0  0  0  0
   10.3008   -2.7701    0.0000 H   0  0  0  0  0  0  0  0  0  0  0  0
   11.0991   -2.7609    0.0000 H   0  0  0  0  0  0  0  0  0  0  0  0
   12.4544    0.3636    0.0000 H   0  0  0  0  0  0  0  0  0  0  0  0
   12.4544   -2.8764    0.0000 H   0  0  0  0  0  0  0  0  0  0  0  0
   15.3111   -1.6712    0.0000 H   0  0  0  0  0  0  0  0  0  0  0  0
   15.3111   -0.8417    0.0000 H   0  0  0  0  0  0  0  0  0  0  0  0
    1.6921    1.3326    0.0000 H   0  0  0  0  0  0  0  0  0  0  0  0
    1.4619    0.4865    0.0000 H   0  0  0  0  0  0  0  0  0  0  0  0
    2.3079    0.2563    0.0000 H   0  0  0  0  0  0  0  0  0  0  0  0
    3.4918    2.2887    0.0000 H   0  0  0  0  0  0  0  0  0  0  0  0
    2.8742    2.9111    0.0000 H   0  0  0  0  0  0  0  0  0  0  0  0
    2.2518    2.2935    0.0000 H   0  0  0  0  0  0  0  0  0  0  0  0
  1 23  1  0  0  0  0
  1 25  1  0  0  0  0
  2 24  1  0  0  0  0
  2 25  1  0  0  0  0
  3 20  2  0  0  0  0
  4 14  1  0  0  0  0
  4 15  1  0  0  0  0
  4 16  1  0  0  0  0
  5 10  1  0  0  0  0
  5 20  1  0  0  0  0
  5 42  1  0  0  0  0
  6 20  1  0  0  0  0
  6 26  1  0  0  0  0
  6 27  1  0  0  0  0
  7  8  1  0  0  0  0
  7  9  1  0  0  0  0
  7 13  1  0  0  0  0
  7 28  1  0  0  0  0
  8 11  1  0  0  0  0
  8 29  1  0  0  0  0
  8 30  1  0  0  0  0
  9 12  1  0  0  0  0
  9 31  1  0  0  0  0
  9 32  1  0  0  0  0
 10 11  1  0  0  0  0
 10 12  1  0  0  0  0
 10 33  1  0  0  0  0
 11 34  1  0  0  0  0
 11 35  1  0  0  0  0
 12 36  1  0  0  0  0
 12 37  1  0  0  0  0
 13 14  1  0  0  0  0
 13 38  1  0  0  0  0
 13 39  1  0  0  0  0
 14 40  1  0  0  0  0
 14 41  1  0  0  0  0
 15 17  1  0  0  0  0
 15 43  1  0  0  0  0
 15 44  1  0  0  0  0
 16 18  1  0  0  0  0
 16 45  1  0  0  0  0
 16 46  1  0  0  0  0
 17 19  1  0  0  0  0
 17 47  1  0  0  0  0
 17 48  1  0  0  0  0
 18 19  1  0  0  0  0
 18 21  2  0  0  0  0
 19 22  2  0  0  0  0
 21 23  1  0  0  0  0
 21 49  1  0  0  0  0
 22 24  1  0  0  0  0
 22 50  1  0  0  0  0
 23 24  2  0  0  0  0
 25 51  1  0  0  0  0
 25 52  1  0  0  0  0
 26 53  1  0  0  0  0
 26 54  1  0  0  0  0
 26 55  1  0  0  0  0
 27 56  1  0  0  0  0
 27 57  1  0  0  0  0
 27 58  1  0  0  0  0
M  END
> <PUBCHEM_COMPOUND_CID>
146025775

> <PUBCHEM_COMPOUND_CANONICALIZED>
1

> <PUBCHEM_CACTVS_COMPLEXITY>
507

> <PUBCHEM_CACTVS_HBOND_ACCEPTOR>
4

> <PUBCHEM_CACTVS_HBOND_DONOR>
1

> <PUBCHEM_CACTVS_ROTATABLE_BOND>
4

> <PUBCHEM_CACTVS_SUBSKEYS>
AAADceB7MAAAAAAAAAAAAAAAAAAAASAAAAA8YIAAAAAAAEixAAAAHgAQAAAADSzBmAczDoPABACIAiBCEACCCAAgIAAAiIAOjIidJiKEsRukMCps1hOOqAew0LIOoAABAAAQQABQAAIAACCAAAAAAAAAAA==

> <PUBCHEM_IUPAC_OPENEYE_NAME>
3-[4-[2-(7,8-dihydro-5H-[1,3]dioxolo[4,5-g]isoquinolin-6-yl)ethyl]cyclohexyl]-1,1-dimethyl-urea

> <PUBCHEM_IUPAC_CAS_NAME>
3-[4-[2-(7,8-dihydro-5H-[1,3]dioxolo[4,5-g]isoquinolin-6-yl)ethyl]cyclohexyl]-1,1-dimethylurea

> <PUBCHEM_IUPAC_NAME_MARKUP>
3-[4-[2-(7,8-dihydro-5<I>H</I>-[1,3]dioxolo[4,5-g]isoquinolin-6-yl)ethyl]cyclohexyl]-1,1-dimethylurea

> <PUBCHEM_IUPAC_NAME>
3-[4-[2-(7,8-dihydro-5H-[1,3]dioxolo[4,5-g]isoquinolin-6-yl)ethyl]cyclohexyl]-1,1-dimethylurea

> <PUBCHEM_IUPAC_SYSTEMATIC_NAME>
3-[4-[2-(7,8-dihydro-5H-[1,3]dioxolo[4,5-g]isoquinolin-6-yl)ethyl]cyclohexyl]-1,1-dimethyl-urea

> <PUBCHEM_IUPAC_TRADITIONAL_NAME>
3-[4-[2-(7,8-dihydro-5H-[1,3]dioxol[4,5-g]isoquinolin-6-yl)ethyl]cyclohexyl]-1,1-dimethyl-urea

> <PUBCHEM_IUPAC_INCHI>
InChI=1S/C21H31N3O3/c1-23(2)21(25)22-18-5-3-15(4-6-18)7-9-24-10-8-16-11-19-20(27-14-26-19)12-17(16)13-24/h11-12,15,18H,3-10,13-14H2,1-2H3,(H,22,25)

> <PUBCHEM_IUPAC_INCHIKEY>
CCMCQXPLCVUZML-UHFFFAOYSA-N

> <PUBCHEM_XLOGP3_AA>
2.8

> <PUBCHEM_EXACT_MASS>
373.23654186

> <PUBCHEM_MOLECULAR_FORMULA>
C21H31N3O3

> <PUBCHEM_MOLECULAR_WEIGHT>
373.5

> <PUBCHEM_OPENEYE_CAN_SMILES>
CN(C)C(=O)NC1CCC(CC1)CCN2CCC3=CC4=C(C=C3C2)OCO4

> <PUBCHEM_OPENEYE_ISO_SMILES>
CN(C)C(=O)NC1CCC(CC1)CCN2CCC3=CC4=C(C=C3C2)OCO4

> <PUBCHEM_CACTVS_TPSA>
54

> <PUBCHEM_MONOISOTOPIC_WEIGHT>
373.23654186

> <PUBCHEM_TOTAL_CHARGE>
0

> <PUBCHEM_HEAVY_ATOM_COUNT>
27

> <PUBCHEM_ATOM_DEF_STEREO_COUNT>
0

> <PUBCHEM_ATOM_UDEF_STEREO_COUNT>
0

> <PUBCHEM_BOND_DEF_STEREO_COUNT>
0

> <PUBCHEM_BOND_UDEF_STEREO_COUNT>
0

> <PUBCHEM_ISOTOPIC_ATOM_COUNT>
0

> <PUBCHEM_COMPONENT_COUNT>
1

> <PUBCHEM_CACTVS_TAUTO_COUNT>
-1

> <PUBCHEM_COORDINATE_TYPE>
1
5
255

> <PUBCHEM_BONDANNOTATIONS>
18  19  8
18  21  8
19  22  8
21  23  8
22  24  8
23  24  8

$$$$
