17756212
  -OEChem-09292322252D

 47 49  0     1  0  0  0  0  0999 V2000
    2.9059    2.8626    0.0000 O   0  0  0  0  0  0  0  0  0  0  0  0
    4.2841   -2.5726    0.0000 N   0  0  3  0  0  0  0  0  0  0  0  0
    6.1160   -2.3314    0.0000 C   0  0  0  0  0  0  0  0  0  0  0  0
    5.2500   -2.8314    0.0000 C   0  0  0  0  0  0  0  0  0  0  0  0
    3.7841   -1.7066    0.0000 C   0  0  0  0  0  0  0  0  0  0  0  0
    6.3821   -1.2066    0.0000 C   0  0  0  0  0  0  0  0  0  0  0  0
    2.9180   -1.2066    0.0000 C   0  0  0  0  0  0  0  0  0  0  0  0
    2.9180   -0.2066    0.0000 C   0  0  0  0  0  0  0  0  0  0  0  0
    4.6501   -0.2066    0.0000 C   0  0  0  0  0  0  0  0  0  0  0  0
    6.3821   -0.2066    0.0000 C   0  0  0  0  0  0  0  0  0  0  0  0
    3.7841    0.2934    0.0000 C   0  0  0  0  0  0  0  0  0  0  0  0
    5.5161    0.2934    0.0000 C   0  0  0  0  0  0  0  0  0  0  0  0
    3.6753   -3.3660    0.0000 C   0  0  0  0  0  0  0  0  0  0  0  0
    2.0080    0.3002    0.0000 C   0  0  0  0  0  0  0  0  0  0  0  0
    3.8001    1.3349    0.0000 C   0  0  0  0  0  0  0  0  0  0  0  0
    7.2921    0.3002    0.0000 C   0  0  0  0  0  0  0  0  0  0  0  0
    5.5000    1.3349    0.0000 C   0  0  0  0  0  0  0  0  0  0  0  0
    2.9021    1.8627    0.0000 C   0  0  0  0  0  0  0  0  0  0  0  0
    2.0000    1.3418    0.0000 C   0  0  0  0  0  0  0  0  0  0  0  0
    7.3002    1.3418    0.0000 C   0  0  0  0  0  0  0  0  0  0  0  0
    6.3981    1.8627    0.0000 C   0  0  0  0  0  0  0  0  0  0  0  0
    2.0418    3.3660    0.0000 C   0  0  0  0  0  0  0  0  0  0  0  0
    6.2824   -2.9287    0.0000 H   0  0  0  0  0  0  0  0  0  0  0  0
    6.7359   -2.3193    0.0000 H   0  0  0  0  0  0  0  0  0  0  0  0
    4.9400   -3.3684    0.0000 H   0  0  0  0  0  0  0  0  0  0  0  0
    5.6884   -3.2699    0.0000 H   0  0  0  0  0  0  0  0  0  0  0  0
    4.3946   -1.5989    0.0000 H   0  0  0  0  0  0  0  0  0  0  0  0
    3.3456   -2.1450    0.0000 H   0  0  0  0  0  0  0  0  0  0  0  0
    6.8648   -1.5957    0.0000 H   0  0  0  0  0  0  0  0  0  0  0  0
    5.7663   -1.1348    0.0000 H   0  0  0  0  0  0  0  0  0  0  0  0
    2.3074   -1.0989    0.0000 H   0  0  0  0  0  0  0  0  0  0  0  0
    2.7060   -1.7892    0.0000 H   0  0  0  0  0  0  0  0  0  0  0  0
    4.2516   -0.6816    0.0000 H   0  0  0  0  0  0  0  0  0  0  0  0
    5.0486   -0.6816    0.0000 H   0  0  0  0  0  0  0  0  0  0  0  0
    3.1834   -2.9886    0.0000 H   0  0  0  0  0  0  0  0  0  0  0  0
    3.2979   -3.8579    0.0000 H   0  0  0  0  0  0  0  0  0  0  0  0
    4.1672   -3.7434    0.0000 H   0  0  0  0  0  0  0  0  0  0  0  0
    1.4747   -0.0159    0.0000 H   0  0  0  0  0  0  0  0  0  0  0  0
    4.3406    1.6387    0.0000 H   0  0  0  0  0  0  0  0  0  0  0  0
    7.8254   -0.0159    0.0000 H   0  0  0  0  0  0  0  0  0  0  0  0
    4.9596    1.6387    0.0000 H   0  0  0  0  0  0  0  0  0  0  0  0
    1.4619    1.6498    0.0000 H   0  0  0  0  0  0  0  0  0  0  0  0
    7.8383    1.6498    0.0000 H   0  0  0  0  0  0  0  0  0  0  0  0
    6.3957    2.4826    0.0000 H   0  0  0  0  0  0  0  0  0  0  0  0
    2.3539    3.9017    0.0000 H   0  0  0  0  0  0  0  0  0  0  0  0
    1.5061    3.6780    0.0000 H   0  0  0  0  0  0  0  0  0  0  0  0
    1.7298    2.8302    0.0000 H   0  0  0  0  0  0  0  0  0  0  0  0
  1 18  1  0  0  0  0
  1 22  1  0  0  0  0
  2  4  1  0  0  0  0
  2  5  1  0  0  0  0
  2 13  1  0  0  0  0
  3  4  1  0  0  0  0
  3  6  1  0  0  0  0
  3 23  1  0  0  0  0
  3 24  1  0  0  0  0
  4 25  1  0  0  0  0
  4 26  1  0  0  0  0
  5  7  1  0  0  0  0
  5 27  1  0  0  0  0
  5 28  1  0  0  0  0
  6 10  1  0  0  0  0
  6 29  1  0  0  0  0
  6 30  1  0  0  0  0
  7  8  1  0  0  0  0
  7 31  1  0  0  0  0
  7 32  1  0  0  0  0
  8 11  2  0  0  0  0
  8 14  1  0  0  0  0
  9 11  1  0  0  0  0
  9 12  1  0  0  0  0
  9 33  1  0  0  0  0
  9 34  1  0  0  0  0
 10 12  1  0  0  0  0
 10 16  2  0  0  0  0
 11 15  1  0  0  0  0
 12 17  2  0  0  0  0
 13 35  1  0  0  0  0
 13 36  1  0  0  0  0
 13 37  1  0  0  0  0
 14 19  2  0  0  0  0
 14 38  1  0  0  0  0
 15 18  2  0  0  0  0
 15 39  1  0  0  0  0
 16 20  1  0  0  0  0
 16 40  1  0  0  0  0
 17 21  1  0  0  0  0
 17 41  1  0  0  0  0
 18 19  1  0  0  0  0
 19 42  1  0  0  0  0
 20 21  2  0  0  0  0
 20 43  1  0  0  0  0
 21 44  1  0  0  0  0
 22 45  1  0  0  0  0
 22 46  1  0  0  0  0
 22 47  1  0  0  0  0
M  END
> <PUBCHEM_COMPOUND_CID>
17756212

> <PUBCHEM_COMPOUND_CANONICALIZED>
1

> <PUBCHEM_CACTVS_COMPLEXITY>
332

> <PUBCHEM_CACTVS_HBOND_ACCEPTOR>
2

> <PUBCHEM_CACTVS_HBOND_DONOR>
0

> <PUBCHEM_CACTVS_ROTATABLE_BOND>
1

> <PUBCHEM_CACTVS_SUBSKEYS>
AAADceB6IAAAAAAAAAAAAAAAAAAAAAAAAAAwYAAAAAAAAAABQAAAHgAAAAAADATBmAYyBoMABACAAiBCAAACCAAgIAAIiAAOCIgMJiKEsRuEMCAkwBGIqAeQwPAOoAABAAAQAABAAAIAACAAAAAAAAAAAA==

> <PUBCHEM_IUPAC_OPENEYE_NAME>
5-methoxy-11-methyl-11-azatricyclo[13.4.0.03,8]nonadeca-1(19),3(8),4,6,15,17-hexaene

> <PUBCHEM_IUPAC_CAS_NAME>
5-methoxy-11-methyl-11-azatricyclo[13.4.0.03,8]nonadeca-1(19),3(8),4,6,15,17-hexaene

> <PUBCHEM_IUPAC_NAME_MARKUP>
5-methoxy-11-methyl-11-azatricyclo[13.4.0.0<SUP>3,8</SUP>]nonadeca-1(19),3(8),4,6,15,17-hexaene

> <PUBCHEM_IUPAC_NAME>
5-methoxy-11-methyl-11-azatricyclo[13.4.0.03,8]nonadeca-1(19),3(8),4,6,15,17-hexaene

> <PUBCHEM_IUPAC_SYSTEMATIC_NAME>
5-methoxy-11-methyl-11-azatricyclo[13.4.0.03,8]nonadeca-1(19),3(8),4,6,15,17-hexaene

> <PUBCHEM_IUPAC_TRADITIONAL_NAME>
5-methoxy-11-methyl-11-azatricyclo[13.4.0.03,8]nonadeca-1(19),3(8),4,6,15,17-hexaene

> <PUBCHEM_IUPAC_INCHI>
InChI=1S/C20H25NO/c1-21-12-5-8-16-6-3-4-7-18(16)14-19-15-20(22-2)10-9-17(19)11-13-21/h3-4,6-7,9-10,15H,5,8,11-14H2,1-2H3

> <PUBCHEM_IUPAC_INCHIKEY>
QQSOUFSETSWOJX-UHFFFAOYSA-N

> <PUBCHEM_XLOGP3_AA>
4.5

> <PUBCHEM_EXACT_MASS>
295.193614421

> <PUBCHEM_MOLECULAR_FORMULA>
C20H25NO

> <PUBCHEM_MOLECULAR_WEIGHT>
295.4

> <PUBCHEM_OPENEYE_CAN_SMILES>
CN1CCCC2=CC=CC=C2CC3=C(CC1)C=CC(=C3)OC

> <PUBCHEM_OPENEYE_ISO_SMILES>
CN1CCCC2=CC=CC=C2CC3=C(CC1)C=CC(=C3)OC

> <PUBCHEM_CACTVS_TPSA>
12.5

> <PUBCHEM_MONOISOTOPIC_WEIGHT>
295.193614421

> <PUBCHEM_TOTAL_CHARGE>
0

> <PUBCHEM_HEAVY_ATOM_COUNT>
22

> <PUBCHEM_ATOM_DEF_STEREO_COUNT>
0

> <PUBCHEM_ATOM_UDEF_STEREO_COUNT>
0

> <PUBCHEM_BOND_DEF_STEREO_COUNT>
0

> <PUBCHEM_BOND_UDEF_STEREO_COUNT>
0

> <PUBCHEM_ISOTOPIC_ATOM_COUNT>
0

> <PUBCHEM_COMPONENT_COUNT>
1

> <PUBCHEM_CACTVS_TAUTO_COUNT>
-1

> <PUBCHEM_COORDINATE_TYPE>
1
5
255

> <PUBCHEM_BONDANNOTATIONS>
10  12  8
10  16  8
11  15  8
12  17  8
14  19  8
15  18  8
16  20  8
17  21  8
18  19  8
20  21  8
8  11  8
8  14  8

$$$$
