52947113
  -OEChem-09292322042D

 42 43  0     1  0  0  0  0  0999 V2000
    3.7320   -0.0109    0.0000 O   0  0  0  0  0  0  0  0  0  0  0  0
    2.8660   -1.5109    0.0000 O   0  0  0  0  0  0  0  0  0  0  0  0
    2.8660   -3.5109    0.0000 O   0  0  0  0  0  0  0  0  0  0  0  0
    6.4347    2.4836    0.0000 N   0  0  3  0  0  0  0  0  0  0  0  0
    5.4641   -0.0109    0.0000 N   0  0  0  0  0  0  0  0  0  0  0  0
    6.3301    1.4891    0.0000 C   0  0  1  0  0  0  0  0  0  0  0  0
    7.2437    1.0824    0.0000 C   0  0  0  0  0  0  0  0  0  0  0  0
    7.9128    1.8255    0.0000 C   0  0  0  0  0  0  0  0  0  0  0  0
    7.4128    2.6915    0.0000 C   0  0  0  0  0  0  0  0  0  0  0  0
    5.4641    0.9891    0.0000 C   0  0  0  0  0  0  0  0  0  0  0  0
    5.6915    3.1528    0.0000 C   0  0  0  0  0  0  0  0  0  0  0  0
    5.8994    4.1309    0.0000 C   0  0  0  0  0  0  0  0  0  0  0  0
    4.5981   -0.5109    0.0000 C   0  0  0  0  0  0  0  0  0  0  0  0
    4.5981   -1.5109    0.0000 C   0  0  0  0  0  0  0  0  0  0  0  0
    3.7320   -2.0109    0.0000 C   0  0  0  0  0  0  0  0  0  0  0  0
    5.4641   -2.0109    0.0000 C   0  0  0  0  0  0  0  0  0  0  0  0
    3.7320   -3.0109    0.0000 C   0  0  0  0  0  0  0  0  0  0  0  0
    5.4641   -3.0109    0.0000 C   0  0  0  0  0  0  0  0  0  0  0  0
    4.5981   -3.5109    0.0000 C   0  0  0  0  0  0  0  0  0  0  0  0
    2.0000   -2.0109    0.0000 C   0  0  0  0  0  0  0  0  0  0  0  0
    5.8102    1.8268    0.0000 H   0  0  0  0  0  0  0  0  0  0  0  0
    6.9337    0.5454    0.0000 H   0  0  0  0  0  0  0  0  0  0  0  0
    7.7453    0.7179    0.0000 H   0  0  0  0  0  0  0  0  0  0  0  0
    8.3277    1.3648    0.0000 H   0  0  0  0  0  0  0  0  0  0  0  0
    8.4144    2.1899    0.0000 H   0  0  0  0  0  0  0  0  0  0  0  0
    7.9792    2.9437    0.0000 H   0  0  0  0  0  0  0  0  0  0  0  0
    7.2212    3.2812    0.0000 H   0  0  0  0  0  0  0  0  0  0  0  0
    5.2520    1.5717    0.0000 H   0  0  0  0  0  0  0  0  0  0  0  0
    4.8535    0.8814    0.0000 H   0  0  0  0  0  0  0  0  0  0  0  0
    5.1167    3.3850    0.0000 H   0  0  0  0  0  0  0  0  0  0  0  0
    5.3630    2.6270    0.0000 H   0  0  0  0  0  0  0  0  0  0  0  0
    6.0010   -0.3209    0.0000 H   0  0  0  0  0  0  0  0  0  0  0  0
    6.5059    4.0020    0.0000 H   0  0  0  0  0  0  0  0  0  0  0  0
    6.0283    4.7374    0.0000 H   0  0  0  0  0  0  0  0  0  0  0  0
    5.2930    4.2598    0.0000 H   0  0  0  0  0  0  0  0  0  0  0  0
    6.0010   -1.7009    0.0000 H   0  0  0  0  0  0  0  0  0  0  0  0
    6.0010   -3.3209    0.0000 H   0  0  0  0  0  0  0  0  0  0  0  0
    4.5981   -4.1309    0.0000 H   0  0  0  0  0  0  0  0  0  0  0  0
    1.6900   -1.4740    0.0000 H   0  0  0  0  0  0  0  0  0  0  0  0
    1.4631   -2.3209    0.0000 H   0  0  0  0  0  0  0  0  0  0  0  0
    2.3100   -2.5478    0.0000 H   0  0  0  0  0  0  0  0  0  0  0  0
    2.8660   -4.1309    0.0000 H   0  0  0  0  0  0  0  0  0  0  0  0
  1 13  2  0  0  0  0
  2 15  1  0  0  0  0
  2 20  1  0  0  0  0
  3 17  1  0  0  0  0
  3 42  1  0  0  0  0
  4  6  1  0  0  0  0
  4  9  1  0  0  0  0
  4 11  1  0  0  0  0
  5 10  1  0  0  0  0
  5 13  1  0  0  0  0
  5 32  1  0  0  0  0
  6  7  1  0  0  0  0
  6 10  1  1  0  0  0
  6 21  1  0  0  0  0
  7  8  1  0  0  0  0
  7 22  1  0  0  0  0
  7 23  1  0  0  0  0
  8  9  1  0  0  0  0
  8 24  1  0  0  0  0
  8 25  1  0  0  0  0
  9 26  1  0  0  0  0
  9 27  1  0  0  0  0
 10 28  1  0  0  0  0
 10 29  1  0  0  0  0
 11 12  1  0  0  0  0
 11 30  1  0  0  0  0
 11 31  1  0  0  0  0
 12 33  1  0  0  0  0
 12 34  1  0  0  0  0
 12 35  1  0  0  0  0
 13 14  1  0  0  0  0
 14 15  2  0  0  0  0
 14 16  1  0  0  0  0
 15 17  1  0  0  0  0
 16 18  2  0  0  0  0
 16 36  1  0  0  0  0
 17 19  2  0  0  0  0
 18 19  1  0  0  0  0
 18 37  1  0  0  0  0
 19 38  1  0  0  0  0
 20 39  1  0  0  0  0
 20 40  1  0  0  0  0
 20 41  1  0  0  0  0
M  END
> <PUBCHEM_COMPOUND_CID>
52947113

> <PUBCHEM_COMPOUND_CANONICALIZED>
1

> <PUBCHEM_CACTVS_COMPLEXITY>
324

> <PUBCHEM_CACTVS_HBOND_ACCEPTOR>
4

> <PUBCHEM_CACTVS_HBOND_DONOR>
2

> <PUBCHEM_CACTVS_ROTATABLE_BOND>
5

> <PUBCHEM_CACTVS_SUBSKEYS>
AAADceBzMAAAAAAAAAAAAAAAAAAAAWAAAAAwAAAAAAAAAAABAAAAHgAQCAAADCzBmAYyBoPABgCIAiFSEACCCAAkIAAIiIEOjMgNZjaGtRuUcWtm9hGLuYe6yDCOAAABAAAIQAAAAAIAABCAAAAAAAAAAA==

> <PUBCHEM_IUPAC_OPENEYE_NAME>
N-[[(2S)-1-ethylpyrrolidin-2-yl]methyl]-3-hydroxy-2-methoxy-benzamide

> <PUBCHEM_IUPAC_CAS_NAME>
N-[[(2S)-1-ethyl-2-pyrrolidinyl]methyl]-3-hydroxy-2-methoxybenzamide

> <PUBCHEM_IUPAC_NAME_MARKUP>
<I>N</I>-[[(2<I>S</I>)-1-ethylpyrrolidin-2-yl]methyl]-3-hydroxy-2-methoxybenzamide

> <PUBCHEM_IUPAC_NAME>
N-[[(2S)-1-ethylpyrrolidin-2-yl]methyl]-3-hydroxy-2-methoxybenzamide

> <PUBCHEM_IUPAC_SYSTEMATIC_NAME>
N-[[(2S)-1-ethylpyrrolidin-2-yl]methyl]-2-methoxy-3-oxidanyl-benzamide

> <PUBCHEM_IUPAC_TRADITIONAL_NAME>
N-[[(2S)-1-ethylpyrrolidin-2-yl]methyl]-3-hydroxy-2-methoxy-benzamide

> <PUBCHEM_IUPAC_INCHI>
InChI=1S/C15H22N2O3/c1-3-17-9-5-6-11(17)10-16-15(19)12-7-4-8-13(18)14(12)20-2/h4,7-8,11,18H,3,5-6,9-10H2,1-2H3,(H,16,19)/t11-/m0/s1

> <PUBCHEM_IUPAC_INCHIKEY>
MOBNYRULIPETHC-NSHDSACASA-N

> <PUBCHEM_XLOGP3>
1.1

> <PUBCHEM_EXACT_MASS>
278.16304257

> <PUBCHEM_MOLECULAR_FORMULA>
C15H22N2O3

> <PUBCHEM_MOLECULAR_WEIGHT>
278.35

> <PUBCHEM_OPENEYE_CAN_SMILES>
CCN1CCCC1CNC(=O)C2=C(C(=CC=C2)O)OC

> <PUBCHEM_OPENEYE_ISO_SMILES>
CCN1CCC[C@H]1CNC(=O)C2=C(C(=CC=C2)O)OC

> <PUBCHEM_CACTVS_TPSA>
61.8

> <PUBCHEM_MONOISOTOPIC_WEIGHT>
278.16304257

> <PUBCHEM_TOTAL_CHARGE>
0

> <PUBCHEM_HEAVY_ATOM_COUNT>
20

> <PUBCHEM_ATOM_DEF_STEREO_COUNT>
1

> <PUBCHEM_ATOM_UDEF_STEREO_COUNT>
0

> <PUBCHEM_BOND_DEF_STEREO_COUNT>
0

> <PUBCHEM_BOND_UDEF_STEREO_COUNT>
0

> <PUBCHEM_ISOTOPIC_ATOM_COUNT>
0

> <PUBCHEM_COMPONENT_COUNT>
1

> <PUBCHEM_CACTVS_TAUTO_COUNT>
-1

> <PUBCHEM_COORDINATE_TYPE>
1
5
255

> <PUBCHEM_BONDANNOTATIONS>
14  15  8
14  16  8
15  17  8
16  18  8
17  19  8
18  19  8
6  10  5

$$$$
