155515415
  -OEChem-09292322462D

 50 53  0     0  0  0  0  0  0999 V2000
    9.4616    5.1573    0.0000 Br  0  5  0  0  0  0  0  0  0  0  0  0
    5.2579    3.4409    0.0000 S   0  0  0  0  0  0  0  0  0  0  0  0
    6.2084    3.7516    0.0000 O   0  0  0  0  0  0  0  0  0  0  0  0
    4.3074    3.1302    0.0000 O   0  0  0  0  0  0  0  0  0  0  0  0
    1.4030    6.1961    0.0000 O   0  0  0  0  0  0  0  0  0  0  0  0
    4.9473    4.3914    0.0000 N   0  0  0  0  0  0  0  0  0  0  0  0
    5.2579    8.5608    0.0000 N   0  3  0  0  0  0  0  0  0  0  0  0
    6.2041    7.2561    0.0000 N   0  0  0  0  0  0  0  0  0  0  0  0
    6.9527    8.9180    0.0000 N   0  0  0  0  0  0  0  0  0  0  0  0
    4.9473    6.0009    0.0000 C   0  0  0  0  0  0  0  0  0  0  0  0
    4.0010    5.6961    0.0000 C   0  0  0  0  0  0  0  0  0  0  0  0
    4.0010    4.6961    0.0000 C   0  0  0  0  0  0  0  0  0  0  0  0
    5.2579    6.9514    0.0000 C   0  0  0  0  0  0  0  0  0  0  0  0
    5.5309    5.1961    0.0000 C   0  0  0  0  0  0  0  0  0  0  0  0
    4.6743    7.7561    0.0000 C   0  0  0  0  0  0  0  0  0  0  0  0
    3.1350    6.1961    0.0000 C   0  0  0  0  0  0  0  0  0  0  0  0
    6.2084    8.2502    0.0000 C   0  0  0  0  0  0  0  0  0  0  0  0
    3.1350    4.1961    0.0000 C   0  0  0  0  0  0  0  0  0  0  0  0
    5.5686    2.4904    0.0000 C   0  0  0  0  0  0  0  0  0  0  0  0
    2.2690    5.6961    0.0000 C   0  0  0  0  0  0  0  0  0  0  0  0
    3.6743    7.7561    0.0000 C   0  0  0  0  0  0  0  0  0  0  0  0
    2.2690    4.6961    0.0000 C   0  0  0  0  0  0  0  0  0  0  0  0
    5.0517    9.5394    0.0000 C   0  0  0  0  0  0  0  0  0  0  0  0
    4.9007    1.7461    0.0000 C   0  0  0  0  0  0  0  0  0  0  0  0
    6.5471    2.2841    0.0000 C   0  0  0  0  0  0  0  0  0  0  0  0
    5.7960   10.2072    0.0000 C   0  0  0  0  0  0  0  0  0  0  0  0
    6.7465    9.8965    0.0000 C   0  0  0  0  0  0  0  0  0  0  0  0
    5.2114    0.7955    0.0000 C   0  0  0  0  0  0  0  0  0  0  0  0
    6.8578    1.3336    0.0000 C   0  0  0  0  0  0  0  0  0  0  0  0
    6.1899    0.5893    0.0000 C   0  0  0  0  0  0  0  0  0  0  0  0
    0.5369    5.6961    0.0000 C   0  0  0  0  0  0  0  0  0  0  0  0
    6.1509    5.1961    0.0000 H   0  0  0  0  0  0  0  0  0  0  0  0
    6.7045    6.8900    0.0000 H   0  0  0  0  0  0  0  0  0  0  0  0
    3.1350    6.8161    0.0000 H   0  0  0  0  0  0  0  0  0  0  0  0
    3.1350    3.5761    0.0000 H   0  0  0  0  0  0  0  0  0  0  0  0
    3.6743    8.3761    0.0000 H   0  0  0  0  0  0  0  0  0  0  0  0
    3.0543    7.7561    0.0000 H   0  0  0  0  0  0  0  0  0  0  0  0
    3.6743    7.1361    0.0000 H   0  0  0  0  0  0  0  0  0  0  0  0
    1.7320    4.3861    0.0000 H   0  0  0  0  0  0  0  0  0  0  0  0
    4.4624    9.7320    0.0000 H   0  0  0  0  0  0  0  0  0  0  0  0
    4.2941    1.8739    0.0000 H   0  0  0  0  0  0  0  0  0  0  0  0
    6.9612    2.7456    0.0000 H   0  0  0  0  0  0  0  0  0  0  0  0
    5.6682   10.8139    0.0000 H   0  0  0  0  0  0  0  0  0  0  0  0
    7.2080   10.3106    0.0000 H   0  0  0  0  0  0  0  0  0  0  0  0
    4.7973    0.3341    0.0000 H   0  0  0  0  0  0  0  0  0  0  0  0
    7.4644    1.2058    0.0000 H   0  0  0  0  0  0  0  0  0  0  0  0
    6.3825    0.0000    0.0000 H   0  0  0  0  0  0  0  0  0  0  0  0
    0.2269    6.2331    0.0000 H   0  0  0  0  0  0  0  0  0  0  0  0
    0.0000    5.3861    0.0000 H   0  0  0  0  0  0  0  0  0  0  0  0
    0.8469    5.1592    0.0000 H   0  0  0  0  0  0  0  0  0  0  0  0
  2  3  2  0  0  0  0
  2  4  2  0  0  0  0
  2  6  1  0  0  0  0
  2 19  1  0  0  0  0
  5 20  1  0  0  0  0
  5 31  1  0  0  0  0
  6 12  1  0  0  0  0
  6 14  1  0  0  0  0
  7 15  1  0  0  0  0
  7 17  1  0  0  0  0
  7 23  2  0  0  0  0
  8 13  1  0  0  0  0
  8 17  1  0  0  0  0
  8 33  1  0  0  0  0
  9 17  2  0  0  0  0
  9 27  1  0  0  0  0
 10 11  1  0  0  0  0
 10 13  1  0  0  0  0
 10 14  2  0  0  0  0
 11 12  2  0  0  0  0
 11 16  1  0  0  0  0
 12 18  1  0  0  0  0
 13 15  2  0  0  0  0
 14 32  1  0  0  0  0
 15 21  1  0  0  0  0
 16 20  2  0  0  0  0
 16 34  1  0  0  0  0
 18 22  2  0  0  0  0
 18 35  1  0  0  0  0
 19 24  2  0  0  0  0
 19 25  1  0  0  0  0
 20 22  1  0  0  0  0
 21 36  1  0  0  0  0
 21 37  1  0  0  0  0
 21 38  1  0  0  0  0
 22 39  1  0  0  0  0
 23 26  1  0  0  0  0
 23 40  1  0  0  0  0
 24 28  1  0  0  0  0
 24 41  1  0  0  0  0
 25 29  2  0  0  0  0
 25 42  1  0  0  0  0
 26 27  2  0  0  0  0
 26 43  1  0  0  0  0
 27 44  1  0  0  0  0
 28 30  2  0  0  0  0
 28 45  1  0  0  0  0
 29 30  1  0  0  0  0
 29 46  1  0  0  0  0
 30 47  1  0  0  0  0
 31 48  1  0  0  0  0
 31 49  1  0  0  0  0
 31 50  1  0  0  0  0
M  CHG  2   1  -1   7   1
M  END
> <PUBCHEM_COMPOUND_CID>
155515415

> <PUBCHEM_COMPOUND_CANONICALIZED>
1

> <PUBCHEM_CACTVS_COMPLEXITY>
708

> <PUBCHEM_CACTVS_HBOND_ACCEPTOR>
5

> <PUBCHEM_CACTVS_HBOND_DONOR>
1

> <PUBCHEM_CACTVS_ROTATABLE_BOND>
4

> <PUBCHEM_CACTVS_SUBSKEYS>
AAADceB7sABAEAAAAAAAAAAAAAAAAWLAAAA8YIAAAAAAAFgB/gAAHgQQQAAADAzB3gY/1/fNnAKgAzRnZHDCiD2xMqAJ2Tg+fJiMbuLE+duUNChswBPI6Cew0PMOgEABAAACAAAAgAIAAAQAAAAAAAAAAA==

> <PUBCHEM_IUPAC_OPENEYE_NAME>
2-[1-(benzenesulfonyl)-5-methoxy-indol-3-yl]-3-methyl-1H-imidazo[1,2-a]pyrimidin-4-ium;bromide

> <PUBCHEM_IUPAC_CAS_NAME>
2-[1-(benzenesulfonyl)-5-methoxy-3-indolyl]-3-methyl-1H-imidazo[1,2-a]pyrimidin-4-ium;bromide

> <PUBCHEM_IUPAC_NAME_MARKUP>
2-[1-(benzenesulfonyl)-5-methoxyindol-3-yl]-3-methyl-1<I>H</I>-imidazo[1,2-a]pyrimidin-4-ium;bromide

> <PUBCHEM_IUPAC_NAME>
2-[1-(benzenesulfonyl)-5-methoxyindol-3-yl]-3-methyl-1H-imidazo[1,2-a]pyrimidin-4-ium;bromide

> <PUBCHEM_IUPAC_SYSTEMATIC_NAME>
2-[5-methoxy-1-(phenylsulfonyl)indol-3-yl]-3-methyl-1H-imidazo[1,2-a]pyrimidin-4-ium;bromide

> <PUBCHEM_IUPAC_TRADITIONAL_NAME>
2-(1-besyl-5-methoxy-indol-3-yl)-3-methyl-1H-imidazo[1,2-a]pyrimidin-4-ium;bromide

> <PUBCHEM_IUPAC_INCHI>
InChI=1S/C22H18N4O3S.BrH/c1-15-21(24-22-23-11-6-12-25(15)22)19-14-26(20-10-9-16(29-2)13-18(19)20)30(27,28)17-7-4-3-5-8-17;/h3-14H,1-2H3;1H

> <PUBCHEM_IUPAC_INCHIKEY>
MJJNYOGFSPQEPR-UHFFFAOYSA-N

> <PUBCHEM_EXACT_MASS>
498.03612

> <PUBCHEM_MOLECULAR_FORMULA>
C22H19BrN4O3S

> <PUBCHEM_MOLECULAR_WEIGHT>
499.4

> <PUBCHEM_OPENEYE_CAN_SMILES>
CC1=C(NC2=NC=CC=[N+]12)C3=CN(C4=C3C=C(C=C4)OC)S(=O)(=O)C5=CC=CC=C5.[Br-]

> <PUBCHEM_OPENEYE_ISO_SMILES>
CC1=C(NC2=NC=CC=[N+]12)C3=CN(C4=C3C=C(C=C4)OC)S(=O)(=O)C5=CC=CC=C5.[Br-]

> <PUBCHEM_CACTVS_TPSA>
89.5

> <PUBCHEM_MONOISOTOPIC_WEIGHT>
498.03612

> <PUBCHEM_TOTAL_CHARGE>
0

> <PUBCHEM_HEAVY_ATOM_COUNT>
31

> <PUBCHEM_ATOM_DEF_STEREO_COUNT>
0

> <PUBCHEM_ATOM_UDEF_STEREO_COUNT>
0

> <PUBCHEM_BOND_DEF_STEREO_COUNT>
0

> <PUBCHEM_BOND_UDEF_STEREO_COUNT>
0

> <PUBCHEM_ISOTOPIC_ATOM_COUNT>
0

> <PUBCHEM_COMPONENT_COUNT>
2

> <PUBCHEM_CACTVS_TAUTO_COUNT>
-1

> <PUBCHEM_COORDINATE_TYPE>
1
5
255

> <PUBCHEM_BONDANNOTATIONS>
10  11  8
10  14  8
11  12  8
11  16  8
12  18  8
13  15  8
16  20  8
18  22  8
19  24  8
19  25  8
20  22  8
23  26  8
24  28  8
25  29  8
26  27  8
28  30  8
29  30  8
6  12  8
6  14  8
7  15  8
7  17  8
7  23  8
8  13  8
8  17  8
9  17  8
9  27  8

$$$$
