145990254
  -OEChem-09292322472D

 58 60  0     0  0  0  0  0  0999 V2000
   12.2988    2.4860    0.0000 Cl  0  0  0  0  0  0  0  0  0  0  0  0
   15.2988    4.2181    0.0000 Cl  0  0  0  0  0  0  0  0  0  0  0  0
    7.1494    7.6932    0.0000 Cl  0  0  0  0  0  0  0  0  0  0  0  0
    5.2988    0.7540    0.0000 O   0  0  0  0  0  0  0  0  0  0  0  0
    9.2988    4.2181    0.0000 N   0  0  0  0  0  0  0  0  0  0  0  0
   11.2988    4.2181    0.0000 N   0  0  0  0  0  0  0  0  0  0  0  0
    5.2988    2.4860    0.0000 N   0  0  0  0  0  0  0  0  0  0  0  0
    3.2152    0.8153    0.0000 N   0  0  0  0  0  0  0  0  0  0  0  0
    9.7988    5.0841    0.0000 C   0  0  0  0  0  0  0  0  0  0  0  0
    9.7988    3.3520    0.0000 C   0  0  0  0  0  0  0  0  0  0  0  0
   10.7988    5.0841    0.0000 C   0  0  0  0  0  0  0  0  0  0  0  0
   10.7988    3.3520    0.0000 C   0  0  0  0  0  0  0  0  0  0  0  0
    8.2988    4.2181    0.0000 C   0  0  0  0  0  0  0  0  0  0  0  0
    7.7988    3.3520    0.0000 C   0  0  0  0  0  0  0  0  0  0  0  0
    6.7988    3.3520    0.0000 C   0  0  0  0  0  0  0  0  0  0  0  0
   12.2988    4.2181    0.0000 C   0  0  0  0  0  0  0  0  0  0  0  0
    6.2988    2.4860    0.0000 C   0  0  0  0  0  0  0  0  0  0  0  0
   12.7988    3.3520    0.0000 C   0  0  0  0  0  0  0  0  0  0  0  0
   12.7988    5.0841    0.0000 C   0  0  0  0  0  0  0  0  0  0  0  0
   13.7988    3.3520    0.0000 C   0  0  0  0  0  0  0  0  0  0  0  0
   13.7988    5.0841    0.0000 C   0  0  0  0  0  0  0  0  0  0  0  0
   14.2988    4.2181    0.0000 C   0  0  0  0  0  0  0  0  0  0  0  0
    4.7988    1.6200    0.0000 C   0  0  0  0  0  0  0  0  0  0  0  0
    3.7988    1.6200    0.0000 C   0  0  0  0  0  0  0  0  0  0  0  0
    2.2690    1.1200    0.0000 C   0  0  0  0  0  0  0  0  0  0  0  0
    2.2690    2.1200    0.0000 C   0  0  0  0  0  0  0  0  0  0  0  0
    3.2152    2.4247    0.0000 C   0  0  0  0  0  0  0  0  0  0  0  0
    1.4030    0.6200    0.0000 C   0  0  0  0  0  0  0  0  0  0  0  0
    1.4030    2.6200    0.0000 C   0  0  0  0  0  0  0  0  0  0  0  0
    0.5369    1.1200    0.0000 C   0  0  0  0  0  0  0  0  0  0  0  0
    0.5369    2.1200    0.0000 C   0  0  0  0  0  0  0  0  0  0  0  0
    9.9065    5.6947    0.0000 H   0  0  0  0  0  0  0  0  0  0  0  0
    9.2162    5.2962    0.0000 H   0  0  0  0  0  0  0  0  0  0  0  0
    9.2162    3.1400    0.0000 H   0  0  0  0  0  0  0  0  0  0  0  0
    9.9065    2.7415    0.0000 H   0  0  0  0  0  0  0  0  0  0  0  0
   11.3814    5.2962    0.0000 H   0  0  0  0  0  0  0  0  0  0  0  0
   10.6912    5.6947    0.0000 H   0  0  0  0  0  0  0  0  0  0  0  0
   10.6912    2.7415    0.0000 H   0  0  0  0  0  0  0  0  0  0  0  0
   11.3814    3.1400    0.0000 H   0  0  0  0  0  0  0  0  0  0  0  0
    8.4065    4.8287    0.0000 H   0  0  0  0  0  0  0  0  0  0  0  0
    7.7162    4.4301    0.0000 H   0  0  0  0  0  0  0  0  0  0  0  0
    7.6912    2.7415    0.0000 H   0  0  0  0  0  0  0  0  0  0  0  0
    8.3814    3.1400    0.0000 H   0  0  0  0  0  0  0  0  0  0  0  0
    6.9065    3.9626    0.0000 H   0  0  0  0  0  0  0  0  0  0  0  0
    6.2162    3.5641    0.0000 H   0  0  0  0  0  0  0  0  0  0  0  0
    6.1912    1.8754    0.0000 H   0  0  0  0  0  0  0  0  0  0  0  0
    6.8814    2.2740    0.0000 H   0  0  0  0  0  0  0  0  0  0  0  0
   12.4888    5.6210    0.0000 H   0  0  0  0  0  0  0  0  0  0  0  0
    4.9888    3.0230    0.0000 H   0  0  0  0  0  0  0  0  0  0  0  0
   14.1088    2.8151    0.0000 H   0  0  0  0  0  0  0  0  0  0  0  0
   14.1088    5.6210    0.0000 H   0  0  0  0  0  0  0  0  0  0  0  0
    3.4078    0.2259    0.0000 H   0  0  0  0  0  0  0  0  0  0  0  0
    3.4078    3.0140    0.0000 H   0  0  0  0  0  0  0  0  0  0  0  0
    1.4030    0.0000    0.0000 H   0  0  0  0  0  0  0  0  0  0  0  0
    1.4030    3.2400    0.0000 H   0  0  0  0  0  0  0  0  0  0  0  0
    0.0000    0.8100    0.0000 H   0  0  0  0  0  0  0  0  0  0  0  0
    0.0000    2.4300    0.0000 H   0  0  0  0  0  0  0  0  0  0  0  0
    8.1494    7.6932    0.0000 H   0  0  0  0  0  0  0  0  0  0  0  0
  1 18  1  0  0  0  0
  2 22  1  0  0  0  0
  3 58  1  0  0  0  0
  4 23  2  0  0  0  0
  5  9  1  0  0  0  0
  5 10  1  0  0  0  0
  5 13  1  0  0  0  0
  6 11  1  0  0  0  0
  6 12  1  0  0  0  0
  6 16  1  0  0  0  0
  7 17  1  0  0  0  0
  7 23  1  0  0  0  0
  7 49  1  0  0  0  0
  8 24  1  0  0  0  0
  8 25  1  0  0  0  0
  8 52  1  0  0  0  0
  9 11  1  0  0  0  0
  9 32  1  0  0  0  0
  9 33  1  0  0  0  0
 10 12  1  0  0  0  0
 10 34  1  0  0  0  0
 10 35  1  0  0  0  0
 11 36  1  0  0  0  0
 11 37  1  0  0  0  0
 12 38  1  0  0  0  0
 12 39  1  0  0  0  0
 13 14  1  0  0  0  0
 13 40  1  0  0  0  0
 13 41  1  0  0  0  0
 14 15  1  0  0  0  0
 14 42  1  0  0  0  0
 14 43  1  0  0  0  0
 15 17  1  0  0  0  0
 15 44  1  0  0  0  0
 15 45  1  0  0  0  0
 16 18  2  0  0  0  0
 16 19  1  0  0  0  0
 17 46  1  0  0  0  0
 17 47  1  0  0  0  0
 18 20  1  0  0  0  0
 19 21  2  0  0  0  0
 19 48  1  0  0  0  0
 20 22  2  0  0  0  0
 20 50  1  0  0  0  0
 21 22  1  0  0  0  0
 21 51  1  0  0  0  0
 23 24  1  0  0  0  0
 24 27  2  0  0  0  0
 25 26  1  0  0  0  0
 25 28  2  0  0  0  0
 26 27  1  0  0  0  0
 26 29  2  0  0  0  0
 27 53  1  0  0  0  0
 28 30  1  0  0  0  0
 28 54  1  0  0  0  0
 29 31  1  0  0  0  0
 29 55  1  0  0  0  0
 30 31  2  0  0  0  0
 30 56  1  0  0  0  0
 31 57  1  0  0  0  0
M  END
> <PUBCHEM_COMPOUND_CID>
145990254

> <PUBCHEM_COMPOUND_CANONICALIZED>
1

> <PUBCHEM_CACTVS_COMPLEXITY>
557

> <PUBCHEM_CACTVS_HBOND_ACCEPTOR>
3

> <PUBCHEM_CACTVS_HBOND_DONOR>
3

> <PUBCHEM_CACTVS_ROTATABLE_BOND>
7

> <PUBCHEM_CACTVS_SUBSKEYS>
AAADceB7oAAGAAAAAAAAAAAAAAAAAWAAAAA8YIAAAAAAAFgB9AAAHgIQAAAADArBniQwwPPJkACoAyVyVACCgCAnByAImaG4ZtgIYPLBl7HUIQhglgDIyYcYiYCeAABAAACCABAAAIAAAQQAIAAAAAAAAA==

> <PUBCHEM_IUPAC_OPENEYE_NAME>
N-[4-[4-(2,4-dichlorophenyl)piperazin-1-yl]butyl]-1H-indole-2-carboxamide;hydrochloride

> <PUBCHEM_IUPAC_CAS_NAME>
N-[4-[4-(2,4-dichlorophenyl)-1-piperazinyl]butyl]-1H-indole-2-carboxamide;hydrochloride

> <PUBCHEM_IUPAC_NAME_MARKUP>
<I>N</I>-[4-[4-(2,4-dichlorophenyl)piperazin-1-yl]butyl]-1<I>H</I>-indole-2-carboxamide;hydrochloride

> <PUBCHEM_IUPAC_NAME>
N-[4-[4-(2,4-dichlorophenyl)piperazin-1-yl]butyl]-1H-indole-2-carboxamide;hydrochloride

> <PUBCHEM_IUPAC_SYSTEMATIC_NAME>
N-[4-[4-(2,4-dichlorophenyl)piperazin-1-yl]butyl]-1H-indole-2-carboxamide;hydrochloride

> <PUBCHEM_IUPAC_TRADITIONAL_NAME>
N-[4-[4-(2,4-dichlorophenyl)piperazino]butyl]-1H-indole-2-carboxamide;hydrochloride

> <PUBCHEM_IUPAC_INCHI>
InChI=1S/C23H26Cl2N4O.ClH/c24-18-7-8-22(19(25)16-18)29-13-11-28(12-14-29)10-4-3-9-26-23(30)21-15-17-5-1-2-6-20(17)27-21;/h1-2,5-8,15-16,27H,3-4,9-14H2,(H,26,30);1H

> <PUBCHEM_IUPAC_INCHIKEY>
FBESNKFOJJICJN-UHFFFAOYSA-N

> <PUBCHEM_EXACT_MASS>
480.125045

> <PUBCHEM_MOLECULAR_FORMULA>
C23H27Cl3N4O

> <PUBCHEM_MOLECULAR_WEIGHT>
481.8

> <PUBCHEM_OPENEYE_CAN_SMILES>
C1CN(CCN1CCCCNC(=O)C2=CC3=CC=CC=C3N2)C4=C(C=C(C=C4)Cl)Cl.Cl

> <PUBCHEM_OPENEYE_ISO_SMILES>
C1CN(CCN1CCCCNC(=O)C2=CC3=CC=CC=C3N2)C4=C(C=C(C=C4)Cl)Cl.Cl

> <PUBCHEM_CACTVS_TPSA>
51.4

> <PUBCHEM_MONOISOTOPIC_WEIGHT>
480.125045

> <PUBCHEM_TOTAL_CHARGE>
0

> <PUBCHEM_HEAVY_ATOM_COUNT>
31

> <PUBCHEM_ATOM_DEF_STEREO_COUNT>
0

> <PUBCHEM_ATOM_UDEF_STEREO_COUNT>
0

> <PUBCHEM_BOND_DEF_STEREO_COUNT>
0

> <PUBCHEM_BOND_UDEF_STEREO_COUNT>
0

> <PUBCHEM_ISOTOPIC_ATOM_COUNT>
0

> <PUBCHEM_COMPONENT_COUNT>
2

> <PUBCHEM_CACTVS_TAUTO_COUNT>
-1

> <PUBCHEM_COORDINATE_TYPE>
1
5
255

> <PUBCHEM_BONDANNOTATIONS>
16  18  8
16  19  8
18  20  8
19  21  8
20  22  8
21  22  8
24  27  8
25  26  8
25  28  8
26  27  8
26  29  8
28  30  8
29  31  8
30  31  8
8  24  8
8  25  8

$$$$
