118726010
  -OEChem-09292321592D

 64 68  0     1  0  0  0  0  0999 V2000
    2.5118    2.3459    0.0000 O   0  0  0  0  0  0  0  0  0  0  0  0
   16.8536    0.2140    0.0000 O   0  0  0  0  0  0  0  0  0  0  0  0
    7.6738    0.4050    0.0000 N   0  0  3  0  0  0  0  0  0  0  0  0
    2.6067    0.5721    0.0000 N   0  0  0  0  0  0  0  0  0  0  0  0
   11.1379    0.4050    0.0000 N   0  0  0  0  0  0  0  0  0  0  0  0
   12.8700    0.4050    0.0000 N   0  0  0  0  0  0  0  0  0  0  0  0
   12.0039   -1.0950    0.0000 N   0  0  0  0  0  0  0  0  0  0  0  0
   13.7360   -1.0950    0.0000 N   0  0  0  0  0  0  0  0  0  0  0  0
   14.6822    0.2097    0.0000 N   0  0  0  0  0  0  0  0  0  0  0  0
   14.6822   -1.3997    0.0000 N   0  0  0  0  0  0  0  0  0  0  0  0
   12.8700   -2.5950    0.0000 N   0  0  0  0  0  0  0  0  0  0  0  0
    6.8078   -0.0950    0.0000 C   0  0  0  0  0  0  0  0  0  0  0  0
    5.9418    0.4050    0.0000 C   0  0  0  0  0  0  0  0  0  0  0  0
    8.5398   -0.0950    0.0000 C   0  0  0  0  0  0  0  0  0  0  0  0
    7.6738    1.4050    0.0000 C   0  0  0  0  0  0  0  0  0  0  0  0
    5.0757   -0.0950    0.0000 C   0  0  0  0  0  0  0  0  0  0  0  0
    4.2097    0.4050    0.0000 C   0  0  0  0  0  0  0  0  0  0  0  0
    9.4059    0.4050    0.0000 C   0  0  0  0  0  0  0  0  0  0  0  0
    4.0005    1.3768    0.0000 C   0  0  0  0  0  0  0  0  0  0  0  0
    6.8078    1.9050    0.0000 C   0  0  0  0  0  0  0  0  0  0  0  0
    3.3437   -0.0950    0.0000 C   0  0  0  0  0  0  0  0  0  0  0  0
   10.2719   -0.0950    0.0000 C   0  0  0  0  0  0  0  0  0  0  0  0
    5.0757   -1.0950    0.0000 C   0  0  0  0  0  0  0  0  0  0  0  0
    3.0118    1.4799    0.0000 C   0  0  0  0  0  0  0  0  0  0  0  0
    3.3437   -1.0950    0.0000 C   0  0  0  0  0  0  0  0  0  0  0  0
    4.2097   -1.5950    0.0000 C   0  0  0  0  0  0  0  0  0  0  0  0
    6.8078    2.9050    0.0000 C   0  0  0  0  0  0  0  0  0  0  0  0
   12.0039   -0.0950    0.0000 C   0  0  0  0  0  0  0  0  0  0  0  0
   13.7360   -0.0950    0.0000 C   0  0  0  0  0  0  0  0  0  0  0  0
   12.8700   -1.5950    0.0000 C   0  0  0  0  0  0  0  0  0  0  0  0
   15.2658   -0.5950    0.0000 C   0  0  0  0  0  0  0  0  0  0  0  0
   16.2658   -0.5950    0.0000 C   0  0  0  0  0  0  0  0  0  0  0  0
   16.8536   -1.4040    0.0000 C   0  0  0  0  0  0  0  0  0  0  0  0
   17.8047   -1.0950    0.0000 C   0  0  0  0  0  0  0  0  0  0  0  0
   17.8047   -0.0950    0.0000 C   0  0  0  0  0  0  0  0  0  0  0  0
    6.4093   -0.5699    0.0000 H   0  0  0  0  0  0  0  0  0  0  0  0
    7.2063   -0.5699    0.0000 H   0  0  0  0  0  0  0  0  0  0  0  0
    6.3403    0.8799    0.0000 H   0  0  0  0  0  0  0  0  0  0  0  0
    5.5432    0.8799    0.0000 H   0  0  0  0  0  0  0  0  0  0  0  0
    8.1413   -0.5699    0.0000 H   0  0  0  0  0  0  0  0  0  0  0  0
    8.9384   -0.5699    0.0000 H   0  0  0  0  0  0  0  0  0  0  0  0
    8.2844    1.2973    0.0000 H   0  0  0  0  0  0  0  0  0  0  0  0
    7.8859    1.9876    0.0000 H   0  0  0  0  0  0  0  0  0  0  0  0
    9.8044    0.8799    0.0000 H   0  0  0  0  0  0  0  0  0  0  0  0
    9.0073    0.8799    0.0000 H   0  0  0  0  0  0  0  0  0  0  0  0
    4.6170    1.4429    0.0000 H   0  0  0  0  0  0  0  0  0  0  0  0
    3.9996    1.9968    0.0000 H   0  0  0  0  0  0  0  0  0  0  0  0
    6.1972    2.0127    0.0000 H   0  0  0  0  0  0  0  0  0  0  0  0
    6.5957    1.3224    0.0000 H   0  0  0  0  0  0  0  0  0  0  0  0
    9.8734   -0.5699    0.0000 H   0  0  0  0  0  0  0  0  0  0  0  0
   10.6704   -0.5699    0.0000 H   0  0  0  0  0  0  0  0  0  0  0  0
    5.6127   -1.4050    0.0000 H   0  0  0  0  0  0  0  0  0  0  0  0
    2.0000    0.4442    0.0000 H   0  0  0  0  0  0  0  0  0  0  0  0
    2.8068   -1.4050    0.0000 H   0  0  0  0  0  0  0  0  0  0  0  0
    4.2097   -2.2150    0.0000 H   0  0  0  0  0  0  0  0  0  0  0  0
    7.4278    2.9050    0.0000 H   0  0  0  0  0  0  0  0  0  0  0  0
    6.8078    3.5250    0.0000 H   0  0  0  0  0  0  0  0  0  0  0  0
    6.1878    2.9050    0.0000 H   0  0  0  0  0  0  0  0  0  0  0  0
   11.1379    1.0250    0.0000 H   0  0  0  0  0  0  0  0  0  0  0  0
   12.3330   -2.9050    0.0000 H   0  0  0  0  0  0  0  0  0  0  0  0
   13.4069   -2.9050    0.0000 H   0  0  0  0  0  0  0  0  0  0  0  0
   16.6620   -1.9937    0.0000 H   0  0  0  0  0  0  0  0  0  0  0  0
   18.3063   -1.4594    0.0000 H   0  0  0  0  0  0  0  0  0  0  0  0
   18.3063    0.2694    0.0000 H   0  0  0  0  0  0  0  0  0  0  0  0
  1 24  2  0  0  0  0
  2 32  1  0  0  0  0
  2 35  1  0  0  0  0
  3 12  1  0  0  0  0
  3 14  1  0  0  0  0
  3 15  1  0  0  0  0
  4 21  1  0  0  0  0
  4 24  1  0  0  0  0
  4 53  1  0  0  0  0
  5 22  1  0  0  0  0
  5 28  1  0  0  0  0
  5 59  1  0  0  0  0
  6 28  2  0  0  0  0
  6 29  1  0  0  0  0
  7 28  1  0  0  0  0
  7 30  2  0  0  0  0
  8 10  1  0  0  0  0
  8 29  1  0  0  0  0
  8 30  1  0  0  0  0
  9 29  2  0  0  0  0
  9 31  1  0  0  0  0
 10 31  2  0  0  0  0
 11 30  1  0  0  0  0
 11 60  1  0  0  0  0
 11 61  1  0  0  0  0
 12 13  1  0  0  0  0
 12 36  1  0  0  0  0
 12 37  1  0  0  0  0
 13 16  1  0  0  0  0
 13 38  1  0  0  0  0
 13 39  1  0  0  0  0
 14 18  1  0  0  0  0
 14 40  1  0  0  0  0
 14 41  1  0  0  0  0
 15 20  1  0  0  0  0
 15 42  1  0  0  0  0
 15 43  1  0  0  0  0
 16 17  2  0  0  0  0
 16 23  1  0  0  0  0
 17 19  1  0  0  0  0
 17 21  1  0  0  0  0
 18 22  1  0  0  0  0
 18 44  1  0  0  0  0
 18 45  1  0  0  0  0
 19 24  1  0  0  0  0
 19 46  1  0  0  0  0
 19 47  1  0  0  0  0
 20 27  1  0  0  0  0
 20 48  1  0  0  0  0
 20 49  1  0  0  0  0
 21 25  2  0  0  0  0
 22 50  1  0  0  0  0
 22 51  1  0  0  0  0
 23 26  2  0  0  0  0
 23 52  1  0  0  0  0
 25 26  1  0  0  0  0
 25 54  1  0  0  0  0
 26 55  1  0  0  0  0
 27 56  1  0  0  0  0
 27 57  1  0  0  0  0
 27 58  1  0  0  0  0
 31 32  1  0  0  0  0
 32 33  2  0  0  0  0
 33 34  1  0  0  0  0
 33 62  1  0  0  0  0
 34 35  2  0  0  0  0
 34 63  1  0  0  0  0
 35 64  1  0  0  0  0
M  END
> <PUBCHEM_COMPOUND_CID>
118726010

> <PUBCHEM_COMPOUND_CANONICALIZED>
1

> <PUBCHEM_CACTVS_COMPLEXITY>
700

> <PUBCHEM_CACTVS_HBOND_ACCEPTOR>
9

> <PUBCHEM_CACTVS_HBOND_DONOR>
3

> <PUBCHEM_CACTVS_ROTATABLE_BOND>
11

> <PUBCHEM_CACTVS_SUBSKEYS>
AAADceB78AAAAAAAAAAAAAAAAAAAAWLEgAA8QAAAAAAAAFgB/AAAHgAYAAAADAzhmwYz1IfIFECqAq9y9ASSiAsnIqAdiKGubNiOLrLE/buHOSj83BPY6YecmYKOgAAAQAASAAAAAACAACQAAAAAAAAAAA==

> <PUBCHEM_IUPAC_OPENEYE_NAME>
4-[2-[3-[[7-amino-2-(2-furyl)-[1,2,4]triazolo[1,5-a][1,3,5]triazin-5-yl]amino]propyl-propyl-amino]ethyl]indolin-2-one

> <PUBCHEM_IUPAC_CAS_NAME>
4-[2-[3-[[7-amino-2-(2-furanyl)-[1,2,4]triazolo[1,5-a][1,3,5]triazin-5-yl]amino]propyl-propylamino]ethyl]-1,3-dihydroindol-2-one

> <PUBCHEM_IUPAC_NAME_MARKUP>
4-[2-[3-[[7-amino-2-(furan-2-yl)-[1,2,4]triazolo[1,5-a][1,3,5]triazin-5-yl]amino]propyl-propylamino]ethyl]-1,3-dihydroindol-2-one

> <PUBCHEM_IUPAC_NAME>
4-[2-[3-[[7-amino-2-(furan-2-yl)-[1,2,4]triazolo[1,5-a][1,3,5]triazin-5-yl]amino]propyl-propylamino]ethyl]-1,3-dihydroindol-2-one

> <PUBCHEM_IUPAC_SYSTEMATIC_NAME>
4-[2-[3-[[7-azanyl-2-(furan-2-yl)-[1,2,4]triazolo[1,5-a][1,3,5]triazin-5-yl]amino]propyl-propyl-amino]ethyl]-1,3-dihydroindol-2-one

> <PUBCHEM_IUPAC_TRADITIONAL_NAME>
4-[2-[3-[[7-amino-2-(2-furyl)-[1,2,4]triazolo[1,5-a][1,3,5]triazin-5-yl]amino]propyl-propyl-amino]ethyl]oxindole

> <PUBCHEM_IUPAC_INCHI>
InChI=1S/C24H29N9O2/c1-2-11-32(13-9-16-6-3-7-18-17(16)15-20(34)27-18)12-5-10-26-23-29-22(25)33-24(30-23)28-21(31-33)19-8-4-14-35-19/h3-4,6-8,14H,2,5,9-13,15H2,1H3,(H,27,34)(H3,25,26,28,29,30,31)

> <PUBCHEM_IUPAC_INCHIKEY>
LPQJVVVCQKYAIY-UHFFFAOYSA-N

> <PUBCHEM_XLOGP3_AA>
2.7

> <PUBCHEM_EXACT_MASS>
475.24442120

> <PUBCHEM_MOLECULAR_FORMULA>
C24H29N9O2

> <PUBCHEM_MOLECULAR_WEIGHT>
475.5

> <PUBCHEM_OPENEYE_CAN_SMILES>
CCCN(CCCNC1=NC2=NC(=NN2C(=N1)N)C3=CC=CO3)CCC4=C5CC(=O)NC5=CC=C4

> <PUBCHEM_OPENEYE_ISO_SMILES>
CCCN(CCCNC1=NC2=NC(=NN2C(=N1)N)C3=CC=CO3)CCC4=C5CC(=O)NC5=CC=C4

> <PUBCHEM_CACTVS_TPSA>
140

> <PUBCHEM_MONOISOTOPIC_WEIGHT>
475.24442120

> <PUBCHEM_TOTAL_CHARGE>
0

> <PUBCHEM_HEAVY_ATOM_COUNT>
35

> <PUBCHEM_ATOM_DEF_STEREO_COUNT>
0

> <PUBCHEM_ATOM_UDEF_STEREO_COUNT>
0

> <PUBCHEM_BOND_DEF_STEREO_COUNT>
0

> <PUBCHEM_BOND_UDEF_STEREO_COUNT>
0

> <PUBCHEM_ISOTOPIC_ATOM_COUNT>
0

> <PUBCHEM_COMPONENT_COUNT>
1

> <PUBCHEM_CACTVS_TAUTO_COUNT>
-1

> <PUBCHEM_COORDINATE_TYPE>
1
5
255

> <PUBCHEM_BONDANNOTATIONS>
10  31  8
16  17  8
16  23  8
17  21  8
2  32  8
2  35  8
21  25  8
23  26  8
25  26  8
32  33  8
33  34  8
34  35  8
6  28  8
6  29  8
7  28  8
7  30  8
8  10  8
8  29  8
8  30  8
9  29  8
9  31  8

$$$$
