11547466
  -OEChem-09292322492D

 64 69  0     1  0  0  0  0  0999 V2000
   10.0723    2.1736    0.0000 S   0  0  0  0  0  0  0  0  0  0  0  0
    5.3548   -4.1427    0.0000 O   0  0  0  0  0  0  0  0  0  0  0  0
   12.8961    5.5072    0.0000 O   0  0  0  0  0  0  0  0  0  0  0  0
    7.0723    0.4416    0.0000 N   0  0  3  0  0  0  0  0  0  0  0  0
    3.9609   -3.3380    0.0000 N   0  0  0  0  0  0  0  0  0  0  0  0
   11.5668    3.1442    0.0000 N   0  0  0  0  0  0  0  0  0  0  0  0
   10.1655    3.9532    0.0000 N   0  0  0  0  0  0  0  0  0  0  0  0
   10.9087    4.6224    0.0000 N   0  0  0  0  0  0  0  0  0  0  0  0
   14.2974    4.6982    0.0000 N   0  0  0  0  0  0  0  0  0  0  0  0
    2.8660   -5.1118    0.0000 C   0  0  0  0  0  0  0  0  0  0  0  0
    2.0000   -4.6118    0.0000 C   0  0  0  0  0  0  0  0  0  0  0  0
    2.0000   -5.6118    0.0000 C   0  0  0  0  0  0  0  0  0  0  0  0
    3.8660   -5.1118    0.0000 C   0  0  0  0  0  0  0  0  0  0  0  0
    4.3660   -4.2457    0.0000 C   0  0  0  0  0  0  0  0  0  0  0  0
    6.4300   -1.6709    0.0000 C   0  0  0  0  0  0  0  0  0  0  0  0
    5.5640   -1.1709    0.0000 C   0  0  0  0  0  0  0  0  0  0  0  0
    5.5640   -3.1709    0.0000 C   0  0  0  0  0  0  0  0  0  0  0  0
    4.6979   -2.6709    0.0000 C   0  0  0  0  0  0  0  0  0  0  0  0
    7.3405   -1.3064    0.0000 C   0  0  0  0  0  0  0  0  0  0  0  0
    5.4243   -0.2001    0.0000 C   0  0  0  0  0  0  0  0  0  0  0  0
    7.6258   -0.3680    0.0000 C   0  0  0  0  0  0  0  0  0  0  0  0
    6.0943    0.5162    0.0000 C   0  0  0  0  0  0  0  0  0  0  0  0
    6.4300   -2.6709    0.0000 C   0  0  0  0  0  0  0  0  0  0  0  0
    4.6979   -1.6709    0.0000 C   0  0  0  0  0  0  0  0  0  0  0  0
    7.5723    1.3076    0.0000 C   0  0  0  0  0  0  0  0  0  0  0  0
    8.5723    1.3076    0.0000 C   0  0  0  0  0  0  0  0  0  0  0  0
    9.0723    2.1736    0.0000 C   0  0  0  0  0  0  0  0  0  0  0  0
   10.5723    3.0397    0.0000 C   0  0  0  0  0  0  0  0  0  0  0  0
   11.7747    4.1224    0.0000 C   0  0  0  0  0  0  0  0  0  0  0  0
   12.2359    2.4011    0.0000 C   0  0  0  0  0  0  0  0  0  0  0  0
   12.6882    4.5291    0.0000 C   0  0  0  0  0  0  0  0  0  0  0  0
   13.5543    4.0291    0.0000 C   0  0  0  0  0  0  0  0  0  0  0  0
   13.6588    3.0346    0.0000 C   0  0  0  0  0  0  0  0  0  0  0  0
   13.8907    5.6118    0.0000 C   0  0  0  0  0  0  0  0  0  0  0  0
    3.0265   -5.7106    0.0000 H   0  0  0  0  0  0  0  0  0  0  0  0
    2.2120   -4.0291    0.0000 H   0  0  0  0  0  0  0  0  0  0  0  0
    1.3894   -4.5041    0.0000 H   0  0  0  0  0  0  0  0  0  0  0  0
    1.3894   -5.7194    0.0000 H   0  0  0  0  0  0  0  0  0  0  0  0
    2.2120   -6.1944    0.0000 H   0  0  0  0  0  0  0  0  0  0  0  0
    3.7584   -5.7223    0.0000 H   0  0  0  0  0  0  0  0  0  0  0  0
    4.4486   -5.3238    0.0000 H   0  0  0  0  0  0  0  0  0  0  0  0
    7.4365   -1.9189    0.0000 H   0  0  0  0  0  0  0  0  0  0  0  0
    7.9590   -1.3497    0.0000 H   0  0  0  0  0  0  0  0  0  0  0  0
    5.0776    0.3139    0.0000 H   0  0  0  0  0  0  0  0  0  0  0  0
    4.8459   -0.4232    0.0000 H   0  0  0  0  0  0  0  0  0  0  0  0
    8.1638   -0.6763    0.0000 H   0  0  0  0  0  0  0  0  0  0  0  0
    8.0465    0.0874    0.0000 H   0  0  0  0  0  0  0  0  0  0  0  0
    6.2784    1.1082    0.0000 H   0  0  0  0  0  0  0  0  0  0  0  0
    5.5584    0.8279    0.0000 H   0  0  0  0  0  0  0  0  0  0  0  0
    6.9669   -2.9809    0.0000 H   0  0  0  0  0  0  0  0  0  0  0  0
    4.1610   -1.3609    0.0000 H   0  0  0  0  0  0  0  0  0  0  0  0
    7.6799    1.9182    0.0000 H   0  0  0  0  0  0  0  0  0  0  0  0
    6.9896    1.5197    0.0000 H   0  0  0  0  0  0  0  0  0  0  0  0
    8.4646    0.6970    0.0000 H   0  0  0  0  0  0  0  0  0  0  0  0
    9.1549    1.0956    0.0000 H   0  0  0  0  0  0  0  0  0  0  0  0
    9.1799    2.7842    0.0000 H   0  0  0  0  0  0  0  0  0  0  0  0
    8.4896    2.3857    0.0000 H   0  0  0  0  0  0  0  0  0  0  0  0
   11.7752    1.9862    0.0000 H   0  0  0  0  0  0  0  0  0  0  0  0
   12.6508    1.9403    0.0000 H   0  0  0  0  0  0  0  0  0  0  0  0
   12.6967    2.8159    0.0000 H   0  0  0  0  0  0  0  0  0  0  0  0
   13.0422    2.9698    0.0000 H   0  0  0  0  0  0  0  0  0  0  0  0
   13.7236    2.4180    0.0000 H   0  0  0  0  0  0  0  0  0  0  0  0
   14.2754    3.0994    0.0000 H   0  0  0  0  0  0  0  0  0  0  0  0
   14.2007    6.1487    0.0000 H   0  0  0  0  0  0  0  0  0  0  0  0
  1 27  1  0  0  0  0
  1 28  1  0  0  0  0
  2 14  1  0  0  0  0
  2 17  1  0  0  0  0
  3 31  1  0  0  0  0
  3 34  1  0  0  0  0
  4 21  1  0  0  0  0
  4 22  1  0  0  0  0
  4 25  1  0  0  0  0
  5 14  2  0  0  0  0
  5 18  1  0  0  0  0
  6 28  1  0  0  0  0
  6 29  1  0  0  0  0
  6 30  1  0  0  0  0
  7  8  1  0  0  0  0
  7 28  2  0  0  0  0
  8 29  2  0  0  0  0
  9 32  1  0  0  0  0
  9 34  2  0  0  0  0
 10 11  1  0  0  0  0
 10 12  1  0  0  0  0
 10 13  1  0  0  0  0
 10 35  1  0  0  0  0
 11 12  1  0  0  0  0
 11 36  1  0  0  0  0
 11 37  1  0  0  0  0
 12 38  1  0  0  0  0
 12 39  1  0  0  0  0
 13 14  1  0  0  0  0
 13 40  1  0  0  0  0
 13 41  1  0  0  0  0
 15 16  1  0  0  0  0
 15 19  1  0  0  0  0
 15 23  2  0  0  0  0
 16 20  1  0  0  0  0
 16 24  2  0  0  0  0
 17 18  2  0  0  0  0
 17 23  1  0  0  0  0
 18 24  1  0  0  0  0
 19 21  1  0  0  0  0
 19 42  1  0  0  0  0
 19 43  1  0  0  0  0
 20 22  1  0  0  0  0
 20 44  1  0  0  0  0
 20 45  1  0  0  0  0
 21 46  1  0  0  0  0
 21 47  1  0  0  0  0
 22 48  1  0  0  0  0
 22 49  1  0  0  0  0
 23 50  1  0  0  0  0
 24 51  1  0  0  0  0
 25 26  1  0  0  0  0
 25 52  1  0  0  0  0
 25 53  1  0  0  0  0
 26 27  1  0  0  0  0
 26 54  1  0  0  0  0
 26 55  1  0  0  0  0
 27 56  1  0  0  0  0
 27 57  1  0  0  0  0
 29 31  1  0  0  0  0
 30 58  1  0  0  0  0
 30 59  1  0  0  0  0
 30 60  1  0  0  0  0
 31 32  2  0  0  0  0
 32 33  1  0  0  0  0
 33 61  1  0  0  0  0
 33 62  1  0  0  0  0
 33 63  1  0  0  0  0
 34 64  1  0  0  0  0
M  END
> <PUBCHEM_COMPOUND_CID>
11547466

> <PUBCHEM_COMPOUND_CANONICALIZED>
1

> <PUBCHEM_CACTVS_COMPLEXITY>
686

> <PUBCHEM_CACTVS_HBOND_ACCEPTOR>
8

> <PUBCHEM_CACTVS_HBOND_DONOR>
0

> <PUBCHEM_CACTVS_ROTATABLE_BOND>
8

> <PUBCHEM_CACTVS_SUBSKEYS>
AAADceB7sABAAAAAAAAAAAAAGAAAAWLFgAAwAAAABYAAAFgB/gAAHgQIAAAADQzF3wa31rcMFEiqA6dz9ASS2Ct/YrAV2CG/bNiOLrLk/buPOSjkzBPY6YeY2bKOqAABQAAQEABQAAKAACAgAAAAAAAAAA==

> <PUBCHEM_IUPAC_OPENEYE_NAME>
2-(cyclopropylmethyl)-7-[3-[[4-methyl-5-(4-methyloxazol-5-yl)-1,2,4-triazol-3-yl]sulfanyl]propyl]-5,6,8,9-tetrahydrooxazolo[4,5-h][3]benzazepine

> <PUBCHEM_IUPAC_CAS_NAME>
2-(cyclopropylmethyl)-7-[3-[[4-methyl-5-(4-methyl-5-oxazolyl)-1,2,4-triazol-3-yl]thio]propyl]-5,6,8,9-tetrahydrooxazolo[4,5-h][3]benzazepine

> <PUBCHEM_IUPAC_NAME_MARKUP>
2-(cyclopropylmethyl)-7-[3-[[4-methyl-5-(4-methyl-1,3-oxazol-5-yl)-1,2,4-triazol-3-yl]sulfanyl]propyl]-5,6,8,9-tetrahydro-[1,3]oxazolo[4,5-h][3]benzazepine

> <PUBCHEM_IUPAC_NAME>
2-(cyclopropylmethyl)-7-[3-[[4-methyl-5-(4-methyl-1,3-oxazol-5-yl)-1,2,4-triazol-3-yl]sulfanyl]propyl]-5,6,8,9-tetrahydro-[1,3]oxazolo[4,5-h][3]benzazepine

> <PUBCHEM_IUPAC_SYSTEMATIC_NAME>
2-(cyclopropylmethyl)-7-[3-[[4-methyl-5-(4-methyl-1,3-oxazol-5-yl)-1,2,4-triazol-3-yl]sulfanyl]propyl]-5,6,8,9-tetrahydro-[1,3]oxazolo[4,5-h][3]benzazepine

> <PUBCHEM_IUPAC_TRADITIONAL_NAME>
2-(cyclopropylmethyl)-7-[3-[[4-methyl-5-(4-methyloxazol-5-yl)-1,2,4-triazol-3-yl]thio]propyl]-5,6,8,9-tetrahydrooxazolo[4,5-h][3]benzazepine

> <PUBCHEM_IUPAC_INCHI>
InChI=1S/C25H30N6O2S/c1-16-23(32-15-26-16)24-28-29-25(30(24)2)34-11-3-8-31-9-6-18-13-20-21(14-19(18)7-10-31)33-22(27-20)12-17-4-5-17/h13-15,17H,3-12H2,1-2H3

> <PUBCHEM_IUPAC_INCHIKEY>
FQKBVZIGJYRJIJ-UHFFFAOYSA-N

> <PUBCHEM_XLOGP3_AA>
4.4

> <PUBCHEM_EXACT_MASS>
478.21509539

> <PUBCHEM_MOLECULAR_FORMULA>
C25H30N6O2S

> <PUBCHEM_MOLECULAR_WEIGHT>
478.6

> <PUBCHEM_OPENEYE_CAN_SMILES>
CC1=C(OC=N1)C2=NN=C(N2C)SCCCN3CCC4=CC5=C(C=C4CC3)OC(=N5)CC6CC6

> <PUBCHEM_OPENEYE_ISO_SMILES>
CC1=C(OC=N1)C2=NN=C(N2C)SCCCN3CCC4=CC5=C(C=C4CC3)OC(=N5)CC6CC6

> <PUBCHEM_CACTVS_TPSA>
111

> <PUBCHEM_MONOISOTOPIC_WEIGHT>
478.21509539

> <PUBCHEM_TOTAL_CHARGE>
0

> <PUBCHEM_HEAVY_ATOM_COUNT>
34

> <PUBCHEM_ATOM_DEF_STEREO_COUNT>
0

> <PUBCHEM_ATOM_UDEF_STEREO_COUNT>
0

> <PUBCHEM_BOND_DEF_STEREO_COUNT>
0

> <PUBCHEM_BOND_UDEF_STEREO_COUNT>
0

> <PUBCHEM_ISOTOPIC_ATOM_COUNT>
0

> <PUBCHEM_COMPONENT_COUNT>
1

> <PUBCHEM_CACTVS_TAUTO_COUNT>
-1

> <PUBCHEM_COORDINATE_TYPE>
1
5
255

> <PUBCHEM_BONDANNOTATIONS>
15  16  8
15  23  8
16  24  8
17  18  8
17  23  8
18  24  8
2  14  8
2  17  8
3  31  8
3  34  8
31  32  8
5  14  8
5  18  8
6  28  8
6  29  8
7  28  8
7  8  8
8  29  8
9  32  8
9  34  8

$$$$
