101885473
  -OEChem-09292322002D

110113  0     1  0  0  0  0  0999 V2000
   18.3180   -9.7500    0.0000 O   0  0  0  0  0  0  0  0  0  0  0  0
    2.0000    9.7500    0.0000 O   0  0  0  0  0  0  0  0  0  0  0  0
   10.5920   -3.2500    0.0000 O   0  0  0  0  0  0  0  0  0  0  0  0
    9.7260    3.2500    0.0000 O   0  0  0  0  0  0  0  0  0  0  0  0
   14.0561   -6.2500    0.0000 N   0  0  3  0  0  0  0  0  0  0  0  0
    6.2619    6.2500    0.0000 N   0  0  3  0  0  0  0  0  0  0  0  0
   16.7344  -10.5547    0.0000 N   0  0  0  0  0  0  0  0  0  0  0  0
    3.5836   10.5547    0.0000 N   0  0  0  0  0  0  0  0  0  0  0  0
   12.3241   -3.2500    0.0000 N   0  0  0  0  0  0  0  0  0  0  0  0
    7.9939    3.2500    0.0000 N   0  0  0  0  0  0  0  0  0  0  0  0
   14.0561   -7.2500    0.0000 C   0  0  0  0  0  0  0  0  0  0  0  0
    6.2619    7.2500    0.0000 C   0  0  0  0  0  0  0  0  0  0  0  0
   14.9221   -7.7500    0.0000 C   0  0  0  0  0  0  0  0  0  0  0  0
    5.3958    7.7500    0.0000 C   0  0  0  0  0  0  0  0  0  0  0  0
   13.1901   -5.7500    0.0000 C   0  0  0  0  0  0  0  0  0  0  0  0
    7.1279    5.7500    0.0000 C   0  0  0  0  0  0  0  0  0  0  0  0
   14.9221   -5.7500    0.0000 C   0  0  0  0  0  0  0  0  0  0  0  0
    5.3958    5.7500    0.0000 C   0  0  0  0  0  0  0  0  0  0  0  0
   14.9221   -8.7500    0.0000 C   0  0  0  0  0  0  0  0  0  0  0  0
    5.3958    8.7500    0.0000 C   0  0  0  0  0  0  0  0  0  0  0  0
   13.1901   -4.7500    0.0000 C   0  0  0  0  0  0  0  0  0  0  0  0
    7.1279    4.7500    0.0000 C   0  0  0  0  0  0  0  0  0  0  0  0
   15.7882   -9.2500    0.0000 C   0  0  0  0  0  0  0  0  0  0  0  0
    4.5298    9.2500    0.0000 C   0  0  0  0  0  0  0  0  0  0  0  0
   16.7344   -8.9453    0.0000 C   0  0  0  0  0  0  0  0  0  0  0  0
    3.5836    8.9453    0.0000 C   0  0  0  0  0  0  0  0  0  0  0  0
   14.9221   -4.7500    0.0000 C   0  0  0  0  0  0  0  0  0  0  0  0
    4.5298    6.2500    0.0000 C   0  0  0  0  0  0  0  0  0  0  0  0
   15.7882  -10.2500    0.0000 C   0  0  0  0  0  0  0  0  0  0  0  0
    4.5298   10.2500    0.0000 C   0  0  0  0  0  0  0  0  0  0  0  0
   12.3241   -4.2500    0.0000 C   0  0  0  0  0  0  0  0  0  0  0  0
    7.9939    4.2500    0.0000 C   0  0  0  0  0  0  0  0  0  0  0  0
   10.5920   -0.2500    0.0000 C   0  0  0  0  0  0  0  0  0  0  0  0
    9.7260    0.2500    0.0000 C   0  0  0  0  0  0  0  0  0  0  0  0
   14.0561   -9.2500    0.0000 C   0  0  0  0  0  0  0  0  0  0  0  0
    6.2619    9.2500    0.0000 C   0  0  0  0  0  0  0  0  0  0  0  0
   10.5920   -1.2500    0.0000 C   0  0  0  0  0  0  0  0  0  0  0  0
    9.7260    1.2500    0.0000 C   0  0  0  0  0  0  0  0  0  0  0  0
   17.3180   -9.7500    0.0000 C   0  0  0  0  0  0  0  0  0  0  0  0
    3.0000    9.7500    0.0000 C   0  0  0  0  0  0  0  0  0  0  0  0
   11.4580   -1.7500    0.0000 C   0  0  0  0  0  0  0  0  0  0  0  0
    8.8600    1.7500    0.0000 C   0  0  0  0  0  0  0  0  0  0  0  0
   14.9221  -10.7500    0.0000 C   0  0  0  0  0  0  0  0  0  0  0  0
    5.3958   10.7500    0.0000 C   0  0  0  0  0  0  0  0  0  0  0  0
   14.0561  -10.2500    0.0000 C   0  0  0  0  0  0  0  0  0  0  0  0
    6.2619   10.2500    0.0000 C   0  0  0  0  0  0  0  0  0  0  0  0
   15.7882   -4.2500    0.0000 C   0  0  0  0  0  0  0  0  0  0  0  0
    3.6638    5.7500    0.0000 C   0  0  0  0  0  0  0  0  0  0  0  0
   11.4580   -2.7500    0.0000 C   0  0  0  0  0  0  0  0  0  0  0  0
    8.8600    2.7500    0.0000 C   0  0  0  0  0  0  0  0  0  0  0  0
   13.4455   -7.1423    0.0000 H   0  0  0  0  0  0  0  0  0  0  0  0
   13.8441   -7.8326    0.0000 H   0  0  0  0  0  0  0  0  0  0  0  0
    6.8725    7.1423    0.0000 H   0  0  0  0  0  0  0  0  0  0  0  0
    6.4739    7.8326    0.0000 H   0  0  0  0  0  0  0  0  0  0  0  0
   15.5327   -7.8577    0.0000 H   0  0  0  0  0  0  0  0  0  0  0  0
   15.1342   -7.1674    0.0000 H   0  0  0  0  0  0  0  0  0  0  0  0
    4.7853    7.8577    0.0000 H   0  0  0  0  0  0  0  0  0  0  0  0
    5.1838    7.1674    0.0000 H   0  0  0  0  0  0  0  0  0  0  0  0
   12.5795   -5.6423    0.0000 H   0  0  0  0  0  0  0  0  0  0  0  0
   12.9780   -6.3326    0.0000 H   0  0  0  0  0  0  0  0  0  0  0  0
    7.7385    5.6423    0.0000 H   0  0  0  0  0  0  0  0  0  0  0  0
    7.3400    6.3326    0.0000 H   0  0  0  0  0  0  0  0  0  0  0  0
   15.1342   -6.3326    0.0000 H   0  0  0  0  0  0  0  0  0  0  0  0
   15.5327   -5.6423    0.0000 H   0  0  0  0  0  0  0  0  0  0  0  0
    4.9973    5.2750    0.0000 H   0  0  0  0  0  0  0  0  0  0  0  0
    5.7944    5.2750    0.0000 H   0  0  0  0  0  0  0  0  0  0  0  0
   13.8007   -4.8577    0.0000 H   0  0  0  0  0  0  0  0  0  0  0  0
   13.4021   -4.1674    0.0000 H   0  0  0  0  0  0  0  0  0  0  0  0
    6.5173    4.8577    0.0000 H   0  0  0  0  0  0  0  0  0  0  0  0
    6.9158    4.1674    0.0000 H   0  0  0  0  0  0  0  0  0  0  0  0
   17.2718   -8.6360    0.0000 H   0  0  0  0  0  0  0  0  0  0  0  0
   16.4833   -8.3784    0.0000 H   0  0  0  0  0  0  0  0  0  0  0  0
    3.0462    8.6360    0.0000 H   0  0  0  0  0  0  0  0  0  0  0  0
    3.8346    8.3784    0.0000 H   0  0  0  0  0  0  0  0  0  0  0  0
   14.7101   -4.1674    0.0000 H   0  0  0  0  0  0  0  0  0  0  0  0
   14.3116   -4.8577    0.0000 H   0  0  0  0  0  0  0  0  0  0  0  0
    4.9284    6.7250    0.0000 H   0  0  0  0  0  0  0  0  0  0  0  0
    4.1313    6.7250    0.0000 H   0  0  0  0  0  0  0  0  0  0  0  0
   11.7135   -4.1423    0.0000 H   0  0  0  0  0  0  0  0  0  0  0  0
   12.1120   -4.8326    0.0000 H   0  0  0  0  0  0  0  0  0  0  0  0
    8.6045    4.1423    0.0000 H   0  0  0  0  0  0  0  0  0  0  0  0
    8.2060    4.8326    0.0000 H   0  0  0  0  0  0  0  0  0  0  0  0
   11.2026   -0.3577    0.0000 H   0  0  0  0  0  0  0  0  0  0  0  0
   10.8041    0.3326    0.0000 H   0  0  0  0  0  0  0  0  0  0  0  0
    9.1154    0.3577    0.0000 H   0  0  0  0  0  0  0  0  0  0  0  0
    9.5139   -0.3326    0.0000 H   0  0  0  0  0  0  0  0  0  0  0  0
   13.5192   -8.9400    0.0000 H   0  0  0  0  0  0  0  0  0  0  0  0
    6.7988    8.9400    0.0000 H   0  0  0  0  0  0  0  0  0  0  0  0
    9.9814   -1.1423    0.0000 H   0  0  0  0  0  0  0  0  0  0  0  0
   10.3800   -1.8326    0.0000 H   0  0  0  0  0  0  0  0  0  0  0  0
   10.3366    1.1423    0.0000 H   0  0  0  0  0  0  0  0  0  0  0  0
    9.9380    1.8326    0.0000 H   0  0  0  0  0  0  0  0  0  0  0  0
   16.9270  -11.1441    0.0000 H   0  0  0  0  0  0  0  0  0  0  0  0
    3.3910   11.1441    0.0000 H   0  0  0  0  0  0  0  0  0  0  0  0
   12.0686   -1.8577    0.0000 H   0  0  0  0  0  0  0  0  0  0  0  0
   11.6701   -1.1674    0.0000 H   0  0  0  0  0  0  0  0  0  0  0  0
    8.2494    1.8577    0.0000 H   0  0  0  0  0  0  0  0  0  0  0  0
    8.6479    1.1674    0.0000 H   0  0  0  0  0  0  0  0  0  0  0  0
   14.9221  -11.3700    0.0000 H   0  0  0  0  0  0  0  0  0  0  0  0
    5.3958   11.3700    0.0000 H   0  0  0  0  0  0  0  0  0  0  0  0
   12.8610   -2.9400    0.0000 H   0  0  0  0  0  0  0  0  0  0  0  0
    7.4570    2.9400    0.0000 H   0  0  0  0  0  0  0  0  0  0  0  0
   13.5192  -10.5600    0.0000 H   0  0  0  0  0  0  0  0  0  0  0  0
    6.7988   10.5600    0.0000 H   0  0  0  0  0  0  0  0  0  0  0  0
   16.0982   -4.7869    0.0000 H   0  0  0  0  0  0  0  0  0  0  0  0
   16.3251   -3.9400    0.0000 H   0  0  0  0  0  0  0  0  0  0  0  0
   15.4782   -3.7131    0.0000 H   0  0  0  0  0  0  0  0  0  0  0  0
    3.3538    6.2869    0.0000 H   0  0  0  0  0  0  0  0  0  0  0  0
    3.1269    5.4400    0.0000 H   0  0  0  0  0  0  0  0  0  0  0  0
    3.9738    5.2131    0.0000 H   0  0  0  0  0  0  0  0  0  0  0  0
  1 39  2  0  0  0  0
  2 40  2  0  0  0  0
  3 49  2  0  0  0  0
  4 50  2  0  0  0  0
  5 11  1  0  0  0  0
  5 15  1  0  0  0  0
  5 17  1  0  0  0  0
  6 12  1  0  0  0  0
  6 16  1  0  0  0  0
  6 18  1  0  0  0  0
  7 29  1  0  0  0  0
  7 39  1  0  0  0  0
  7 93  1  0  0  0  0
  8 30  1  0  0  0  0
  8 40  1  0  0  0  0
  8 94  1  0  0  0  0
  9 31  1  0  0  0  0
  9 49  1  0  0  0  0
  9101  1  0  0  0  0
 10 32  1  0  0  0  0
 10 50  1  0  0  0  0
 10102  1  0  0  0  0
 11 13  1  0  0  0  0
 11 51  1  0  0  0  0
 11 52  1  0  0  0  0
 12 14  1  0  0  0  0
 12 53  1  0  0  0  0
 12 54  1  0  0  0  0
 13 19  1  0  0  0  0
 13 55  1  0  0  0  0
 13 56  1  0  0  0  0
 14 20  1  0  0  0  0
 14 57  1  0  0  0  0
 14 58  1  0  0  0  0
 15 21  1  0  0  0  0
 15 59  1  0  0  0  0
 15 60  1  0  0  0  0
 16 22  1  0  0  0  0
 16 61  1  0  0  0  0
 16 62  1  0  0  0  0
 17 27  1  0  0  0  0
 17 63  1  0  0  0  0
 17 64  1  0  0  0  0
 18 28  1  0  0  0  0
 18 65  1  0  0  0  0
 18 66  1  0  0  0  0
 19 23  2  0  0  0  0
 19 35  1  0  0  0  0
 20 24  2  0  0  0  0
 20 36  1  0  0  0  0
 21 31  1  0  0  0  0
 21 67  1  0  0  0  0
 21 68  1  0  0  0  0
 22 32  1  0  0  0  0
 22 69  1  0  0  0  0
 22 70  1  0  0  0  0
 23 25  1  0  0  0  0
 23 29  1  0  0  0  0
 24 26  1  0  0  0  0
 24 30  1  0  0  0  0
 25 39  1  0  0  0  0
 25 71  1  0  0  0  0
 25 72  1  0  0  0  0
 26 40  1  0  0  0  0
 26 73  1  0  0  0  0
 26 74  1  0  0  0  0
 27 47  1  0  0  0  0
 27 75  1  0  0  0  0
 27 76  1  0  0  0  0
 28 48  1  0  0  0  0
 28 77  1  0  0  0  0
 28 78  1  0  0  0  0
 29 43  2  0  0  0  0
 30 44  2  0  0  0  0
 31 79  1  0  0  0  0
 31 80  1  0  0  0  0
 32 81  1  0  0  0  0
 32 82  1  0  0  0  0
 33 34  1  0  0  0  0
 33 37  1  0  0  0  0
 33 83  1  0  0  0  0
 33 84  1  0  0  0  0
 34 38  1  0  0  0  0
 34 85  1  0  0  0  0
 34 86  1  0  0  0  0
 35 45  2  0  0  0  0
 35 87  1  0  0  0  0
 36 46  2  0  0  0  0
 36 88  1  0  0  0  0
 37 41  1  0  0  0  0
 37 89  1  0  0  0  0
 37 90  1  0  0  0  0
 38 42  1  0  0  0  0
 38 91  1  0  0  0  0
 38 92  1  0  0  0  0
 41 49  1  0  0  0  0
 41 95  1  0  0  0  0
 41 96  1  0  0  0  0
 42 50  1  0  0  0  0
 42 97  1  0  0  0  0
 42 98  1  0  0  0  0
 43 45  1  0  0  0  0
 43 99  1  0  0  0  0
 44 46  1  0  0  0  0
 44100  1  0  0  0  0
 45103  1  0  0  0  0
 46104  1  0  0  0  0
 47105  1  0  0  0  0
 47106  1  0  0  0  0
 47107  1  0  0  0  0
 48108  1  0  0  0  0
 48109  1  0  0  0  0
 48110  1  0  0  0  0
M  END
> <PUBCHEM_COMPOUND_CID>
101885473

> <PUBCHEM_COMPOUND_CANONICALIZED>
1

> <PUBCHEM_CACTVS_COMPLEXITY>
961

> <PUBCHEM_CACTVS_HBOND_ACCEPTOR>
6

> <PUBCHEM_CACTVS_HBOND_DONOR>
4

> <PUBCHEM_CACTVS_ROTATABLE_BOND>
25

> <PUBCHEM_CACTVS_SUBSKEYS>
AAADcfB/uAAAAAAAAAAAAAAAAAAAAWLAAAAwYAAAAAAAAFgBQAAAHgAQAAAADAjBmAQywIPAAACIAiVSUACCAAAhAgAIiIEIZIgIIDLA1ZGEIAhglgDIyAcciICOgAAAQAASAAAAAACAACQAAAAAAAAAAA==

> <PUBCHEM_IUPAC_OPENEYE_NAME>
N,N'-bis[3-[2-(2-oxoindolin-4-yl)ethyl-propyl-amino]propyl]octanediamide

> <PUBCHEM_IUPAC_CAS_NAME>
N,N'-bis[3-[2-(2-oxo-1,3-dihydroindol-4-yl)ethyl-propylamino]propyl]octanediamide

> <PUBCHEM_IUPAC_NAME_MARKUP>
<I>N</I>,<I>N</I>&apos;-bis[3-[2-(2-oxo-1,3-dihydroindol-4-yl)ethyl-propylamino]propyl]octanediamide

> <PUBCHEM_IUPAC_NAME>
N,N'-bis[3-[2-(2-oxo-1,3-dihydroindol-4-yl)ethyl-propylamino]propyl]octanediamide

> <PUBCHEM_IUPAC_SYSTEMATIC_NAME>
N,N'-bis[3-[2-(2-oxidanylidene-1,3-dihydroindol-4-yl)ethyl-propyl-amino]propyl]octanediamide

> <PUBCHEM_IUPAC_TRADITIONAL_NAME>
N,N'-bis[3-[2-(2-ketoindolin-4-yl)ethyl-propyl-amino]propyl]suberamide

> <PUBCHEM_IUPAC_INCHI>
InChI=1S/C40H60N6O4/c1-3-23-45(27-19-31-13-9-15-35-33(31)29-39(49)43-35)25-11-21-41-37(47)17-7-5-6-8-18-38(48)42-22-12-26-46(24-4-2)28-20-32-14-10-16-36-34(32)30-40(50)44-36/h9-10,13-16H,3-8,11-12,17-30H2,1-2H3,(H,41,47)(H,42,48)(H,43,49)(H,44,50)

> <PUBCHEM_IUPAC_INCHIKEY>
AJZLEDKSUTZOOU-UHFFFAOYSA-N

> <PUBCHEM_XLOGP3_AA>
4.7

> <PUBCHEM_EXACT_MASS>
688.46760442

> <PUBCHEM_MOLECULAR_FORMULA>
C40H60N6O4

> <PUBCHEM_MOLECULAR_WEIGHT>
688.9

> <PUBCHEM_OPENEYE_CAN_SMILES>
CCCN(CCCNC(=O)CCCCCCC(=O)NCCCN(CCC)CCC1=C2CC(=O)NC2=CC=C1)CCC3=C4CC(=O)NC4=CC=C3

> <PUBCHEM_OPENEYE_ISO_SMILES>
CCCN(CCCNC(=O)CCCCCCC(=O)NCCCN(CCC)CCC1=C2CC(=O)NC2=CC=C1)CCC3=C4CC(=O)NC4=CC=C3

> <PUBCHEM_CACTVS_TPSA>
123

> <PUBCHEM_MONOISOTOPIC_WEIGHT>
688.46760442

> <PUBCHEM_TOTAL_CHARGE>
0

> <PUBCHEM_HEAVY_ATOM_COUNT>
50

> <PUBCHEM_ATOM_DEF_STEREO_COUNT>
0

> <PUBCHEM_ATOM_UDEF_STEREO_COUNT>
0

> <PUBCHEM_BOND_DEF_STEREO_COUNT>
0

> <PUBCHEM_BOND_UDEF_STEREO_COUNT>
0

> <PUBCHEM_ISOTOPIC_ATOM_COUNT>
0

> <PUBCHEM_COMPONENT_COUNT>
1

> <PUBCHEM_CACTVS_TAUTO_COUNT>
-1

> <PUBCHEM_COORDINATE_TYPE>
1
5
255

> <PUBCHEM_BONDANNOTATIONS>
19  23  8
19  35  8
20  24  8
20  36  8
23  29  8
24  30  8
29  43  8
30  44  8
35  45  8
36  46  8
43  45  8
44  46  8

$$$$
