60148495
  -OEChem-09292321592D

 67 71  0     1  0  0  0  0  0999 V2000
   14.8684    0.0547    0.0000 S   0  0  0  0  0  0  0  0  0  0  0  0
    6.1279   -2.7500    0.0000 O   0  0  0  0  0  0  0  0  0  0  0  0
   11.3241    0.2500    0.0000 N   0  0  3  0  0  0  0  0  0  0  0  0
    8.7260   -0.2500    0.0000 N   0  0  0  0  0  0  0  0  0  0  0  0
    6.9939   -1.2500    0.0000 N   0  0  0  0  0  0  0  0  0  0  0  0
   14.8684   -1.5547    0.0000 N   0  0  0  0  0  0  0  0  0  0  0  0
   16.4520   -0.7500    0.0000 N   0  0  0  0  0  0  0  0  0  0  0  0
    2.5836    0.0547    0.0000 N   0  0  0  0  0  0  0  0  0  0  0  0
   12.1901   -0.2500    0.0000 C   0  0  1  0  0  0  0  0  0  0  0  0
   12.1901   -1.2500    0.0000 C   0  0  0  0  0  0  0  0  0  0  0  0
   13.0561    0.2500    0.0000 C   0  0  0  0  0  0  0  0  0  0  0  0
   10.4580   -0.2500    0.0000 C   0  0  0  0  0  0  0  0  0  0  0  0
    9.5920    0.2500    0.0000 C   0  0  0  0  0  0  0  0  0  0  0  0
   13.0561   -1.7500    0.0000 C   0  0  0  0  0  0  0  0  0  0  0  0
   11.3241    1.2500    0.0000 C   0  0  0  0  0  0  0  0  0  0  0  0
   13.9221   -0.2500    0.0000 C   0  0  0  0  0  0  0  0  0  0  0  0
    7.8600    0.2500    0.0000 C   0  0  0  0  0  0  0  0  0  0  0  0
    8.7260   -1.2500    0.0000 C   0  0  0  0  0  0  0  0  0  0  0  0
   13.9221   -1.2500    0.0000 C   0  0  0  0  0  0  0  0  0  0  0  0
    6.9939   -0.2500    0.0000 C   0  0  0  0  0  0  0  0  0  0  0  0
    7.8600   -1.7500    0.0000 C   0  0  0  0  0  0  0  0  0  0  0  0
   10.4580    1.7500    0.0000 C   0  0  0  0  0  0  0  0  0  0  0  0
    6.1279   -1.7500    0.0000 C   0  0  0  0  0  0  0  0  0  0  0  0
   15.4520   -0.7500    0.0000 C   0  0  0  0  0  0  0  0  0  0  0  0
   10.4580    2.7500    0.0000 C   0  0  0  0  0  0  0  0  0  0  0  0
    5.2619   -1.2500    0.0000 C   0  0  0  0  0  0  0  0  0  0  0  0
    4.3958   -1.7500    0.0000 C   0  0  0  0  0  0  0  0  0  0  0  0
    5.2619   -0.2500    0.0000 C   0  0  0  0  0  0  0  0  0  0  0  0
    3.5298   -1.2500    0.0000 C   0  0  0  0  0  0  0  0  0  0  0  0
    3.5298   -0.2500    0.0000 C   0  0  0  0  0  0  0  0  0  0  0  0
    4.3958    0.2500    0.0000 C   0  0  0  0  0  0  0  0  0  0  0  0
    2.5836   -1.5547    0.0000 C   0  0  0  0  0  0  0  0  0  0  0  0
    2.0000   -0.7500    0.0000 C   0  0  0  0  0  0  0  0  0  0  0  0
   11.6531   -0.5600    0.0000 H   0  0  0  0  0  0  0  0  0  0  0  0
   11.5795   -1.1423    0.0000 H   0  0  0  0  0  0  0  0  0  0  0  0
   11.9780   -1.8326    0.0000 H   0  0  0  0  0  0  0  0  0  0  0  0
   13.4546    0.7249    0.0000 H   0  0  0  0  0  0  0  0  0  0  0  0
   12.6576    0.7249    0.0000 H   0  0  0  0  0  0  0  0  0  0  0  0
   10.0595   -0.7249    0.0000 H   0  0  0  0  0  0  0  0  0  0  0  0
   10.8566   -0.7249    0.0000 H   0  0  0  0  0  0  0  0  0  0  0  0
    9.9905    0.7249    0.0000 H   0  0  0  0  0  0  0  0  0  0  0  0
    9.1935    0.7249    0.0000 H   0  0  0  0  0  0  0  0  0  0  0  0
   12.6576   -2.2250    0.0000 H   0  0  0  0  0  0  0  0  0  0  0  0
   13.4546   -2.2250    0.0000 H   0  0  0  0  0  0  0  0  0  0  0  0
   11.9346    1.1423    0.0000 H   0  0  0  0  0  0  0  0  0  0  0  0
   11.5361    1.8326    0.0000 H   0  0  0  0  0  0  0  0  0  0  0  0
    8.2585    0.7249    0.0000 H   0  0  0  0  0  0  0  0  0  0  0  0
    7.4614    0.7249    0.0000 H   0  0  0  0  0  0  0  0  0  0  0  0
    8.9380   -1.8326    0.0000 H   0  0  0  0  0  0  0  0  0  0  0  0
    9.3366   -1.1423    0.0000 H   0  0  0  0  0  0  0  0  0  0  0  0
    6.7819    0.3326    0.0000 H   0  0  0  0  0  0  0  0  0  0  0  0
    6.3834   -0.3577    0.0000 H   0  0  0  0  0  0  0  0  0  0  0  0
    7.4614   -2.2250    0.0000 H   0  0  0  0  0  0  0  0  0  0  0  0
    8.2585   -2.2250    0.0000 H   0  0  0  0  0  0  0  0  0  0  0  0
    9.8474    1.8577    0.0000 H   0  0  0  0  0  0  0  0  0  0  0  0
   10.2460    1.1674    0.0000 H   0  0  0  0  0  0  0  0  0  0  0  0
   11.0780    2.7500    0.0000 H   0  0  0  0  0  0  0  0  0  0  0  0
   10.4580    3.3700    0.0000 H   0  0  0  0  0  0  0  0  0  0  0  0
    9.8380    2.7500    0.0000 H   0  0  0  0  0  0  0  0  0  0  0  0
   16.7620   -1.2869    0.0000 H   0  0  0  0  0  0  0  0  0  0  0  0
   16.7620   -0.2131    0.0000 H   0  0  0  0  0  0  0  0  0  0  0  0
    4.3958   -2.3700    0.0000 H   0  0  0  0  0  0  0  0  0  0  0  0
    5.7988    0.0600    0.0000 H   0  0  0  0  0  0  0  0  0  0  0  0
    4.3958    0.8700    0.0000 H   0  0  0  0  0  0  0  0  0  0  0  0
    2.3910   -2.1440    0.0000 H   0  0  0  0  0  0  0  0  0  0  0  0
    2.3910    0.6441    0.0000 H   0  0  0  0  0  0  0  0  0  0  0  0
    1.3800   -0.7500    0.0000 H   0  0  0  0  0  0  0  0  0  0  0  0
  1 16  1  0  0  0  0
  1 24  1  0  0  0  0
  2 23  2  0  0  0  0
  9  3  1  6  0  0  0
  3 12  1  0  0  0  0
  3 15  1  0  0  0  0
  4 13  1  0  0  0  0
  4 17  1  0  0  0  0
  4 18  1  0  0  0  0
  5 20  1  0  0  0  0
  5 21  1  0  0  0  0
  5 23  1  0  0  0  0
  6 19  1  0  0  0  0
  6 24  2  0  0  0  0
  7 24  1  0  0  0  0
  7 60  1  0  0  0  0
  7 61  1  0  0  0  0
  8 30  1  0  0  0  0
  8 33  1  0  0  0  0
  8 66  1  0  0  0  0
  9 10  1  0  0  0  0
  9 11  1  0  0  0  0
  9 34  1  0  0  0  0
 10 14  1  0  0  0  0
 10 35  1  0  0  0  0
 10 36  1  0  0  0  0
 11 16  1  0  0  0  0
 11 37  1  0  0  0  0
 11 38  1  0  0  0  0
 12 13  1  0  0  0  0
 12 39  1  0  0  0  0
 12 40  1  0  0  0  0
 13 41  1  0  0  0  0
 13 42  1  0  0  0  0
 14 19  1  0  0  0  0
 14 43  1  0  0  0  0
 14 44  1  0  0  0  0
 15 22  1  0  0  0  0
 15 45  1  0  0  0  0
 15 46  1  0  0  0  0
 16 19  2  0  0  0  0
 17 20  1  0  0  0  0
 17 47  1  0  0  0  0
 17 48  1  0  0  0  0
 18 21  1  0  0  0  0
 18 49  1  0  0  0  0
 18 50  1  0  0  0  0
 20 51  1  0  0  0  0
 20 52  1  0  0  0  0
 21 53  1  0  0  0  0
 21 54  1  0  0  0  0
 22 25  1  0  0  0  0
 22 55  1  0  0  0  0
 22 56  1  0  0  0  0
 23 26  1  0  0  0  0
 25 57  1  0  0  0  0
 25 58  1  0  0  0  0
 25 59  1  0  0  0  0
 26 27  2  0  0  0  0
 26 28  1  0  0  0  0
 27 29  1  0  0  0  0
 27 62  1  0  0  0  0
 28 31  2  0  0  0  0
 28 63  1  0  0  0  0
 29 30  2  0  0  0  0
 29 32  1  0  0  0  0
 30 31  1  0  0  0  0
 31 64  1  0  0  0  0
 32 33  2  0  0  0  0
 32 65  1  0  0  0  0
 33 67  1  0  0  0  0
M  END
> <PUBCHEM_COMPOUND_CID>
60148495

> <PUBCHEM_COMPOUND_CANONICALIZED>
1

> <PUBCHEM_CACTVS_COMPLEXITY>
659

> <PUBCHEM_CACTVS_HBOND_ACCEPTOR>
6

> <PUBCHEM_CACTVS_HBOND_DONOR>
2

> <PUBCHEM_CACTVS_ROTATABLE_BOND>
7

> <PUBCHEM_CACTVS_SUBSKEYS>
AAADcfB7oABAAAAAAAAAAAAAAAAAAWLAAAA8YIAAAAAAAFgB/AAAHgQQAAAADCjB3gQ/0fPJkAisAzV3dACC8Kl1CjkI2bU4ZNiIYPLglZGUIQhglgLIyacYicCeCAACAAACAAAQAQQAQAQCAAAAAAAAAA==

> <PUBCHEM_IUPAC_OPENEYE_NAME>
[4-[2-[[(6S)-2-amino-4,5,6,7-tetrahydro-1,3-benzothiazol-6-yl]-propyl-amino]ethyl]piperazin-1-yl]-(1H-indol-5-yl)methanone

> <PUBCHEM_IUPAC_CAS_NAME>
[4-[2-[[(6S)-2-amino-4,5,6,7-tetrahydro-1,3-benzothiazol-6-yl]-propylamino]ethyl]-1-piperazinyl]-(1H-indol-5-yl)methanone

> <PUBCHEM_IUPAC_NAME_MARKUP>
[4-[2-[[(6<I>S</I>)-2-amino-4,5,6,7-tetrahydro-1,3-benzothiazol-6-yl]-propylamino]ethyl]piperazin-1-yl]-(1<I>H</I>-indol-5-yl)methanone

> <PUBCHEM_IUPAC_NAME>
[4-[2-[[(6S)-2-amino-4,5,6,7-tetrahydro-1,3-benzothiazol-6-yl]-propylamino]ethyl]piperazin-1-yl]-(1H-indol-5-yl)methanone

> <PUBCHEM_IUPAC_SYSTEMATIC_NAME>
[4-[2-[[(6S)-2-azanyl-4,5,6,7-tetrahydro-1,3-benzothiazol-6-yl]-propyl-amino]ethyl]piperazin-1-yl]-(1H-indol-5-yl)methanone

> <PUBCHEM_IUPAC_TRADITIONAL_NAME>
[4-[2-[[(6S)-2-amino-4,5,6,7-tetrahydro-1,3-benzothiazol-6-yl]-propyl-amino]ethyl]piperazino]-(1H-indol-5-yl)methanone

> <PUBCHEM_IUPAC_INCHI>
InChI=1S/C25H34N6OS/c1-2-9-30(20-4-6-22-23(17-20)33-25(26)28-22)13-10-29-11-14-31(15-12-29)24(32)19-3-5-21-18(16-19)7-8-27-21/h3,5,7-8,16,20,27H,2,4,6,9-15,17H2,1H3,(H2,26,28)/t20-/m0/s1

> <PUBCHEM_IUPAC_INCHIKEY>
OXCQNGTWPIHFHI-FQEVSTJZSA-N

> <PUBCHEM_XLOGP3_AA>
3.4

> <PUBCHEM_EXACT_MASS>
466.25148090

> <PUBCHEM_MOLECULAR_FORMULA>
C25H34N6OS

> <PUBCHEM_MOLECULAR_WEIGHT>
466.6

> <PUBCHEM_OPENEYE_CAN_SMILES>
CCCN(CCN1CCN(CC1)C(=O)C2=CC3=C(C=C2)NC=C3)C4CCC5=C(C4)SC(=N5)N

> <PUBCHEM_OPENEYE_ISO_SMILES>
CCCN(CCN1CCN(CC1)C(=O)C2=CC3=C(C=C2)NC=C3)[C@H]4CCC5=C(C4)SC(=N5)N

> <PUBCHEM_CACTVS_TPSA>
110

> <PUBCHEM_MONOISOTOPIC_WEIGHT>
466.25148090

> <PUBCHEM_TOTAL_CHARGE>
0

> <PUBCHEM_HEAVY_ATOM_COUNT>
33

> <PUBCHEM_ATOM_DEF_STEREO_COUNT>
1

> <PUBCHEM_ATOM_UDEF_STEREO_COUNT>
0

> <PUBCHEM_BOND_DEF_STEREO_COUNT>
0

> <PUBCHEM_BOND_UDEF_STEREO_COUNT>
0

> <PUBCHEM_ISOTOPIC_ATOM_COUNT>
0

> <PUBCHEM_COMPONENT_COUNT>
1

> <PUBCHEM_CACTVS_TAUTO_COUNT>
-1

> <PUBCHEM_COORDINATE_TYPE>
1
5
255

> <PUBCHEM_BONDANNOTATIONS>
1  16  8
1  24  8
16  19  8
26  27  8
26  28  8
27  29  8
28  31  8
29  30  8
29  32  8
9  3  6
30  31  8
32  33  8
6  19  8
6  24  8
8  30  8
8  33  8

$$$$
