46882583
  -OEChem-09292322482D

 59 63  0     1  0  0  0  0  0999 V2000
   10.4251    0.9523    0.0000 S   0  0  0  0  0  0  0  0  0  0  0  0
   13.9170    1.0004    0.0000 O   0  0  0  0  0  0  0  0  0  0  0  0
   10.9218    1.8202    0.0000 O   0  0  0  0  0  0  0  0  0  0  0  0
    9.9285    0.0843    0.0000 O   0  0  0  0  0  0  0  0  0  0  0  0
    4.7024    0.4248    0.0000 N   0  0  3  0  0  0  0  0  0  0  0  0
    9.5572    1.4489    0.0000 N   0  0  0  0  0  0  0  0  0  0  0  0
   13.9250   -1.0689    0.0000 N   0  0  3  0  0  0  0  0  0  0  0  0
    3.6092   -1.3548    0.0000 N   0  0  0  0  0  0  0  0  0  0  0  0
    2.8660   -2.0239    0.0000 N   0  0  0  0  0  0  0  0  0  0  0  0
    5.1363    1.3257    0.0000 C   0  0  0  0  0  0  0  0  0  0  0  0
    5.1363   -0.4762    0.0000 C   0  0  0  0  0  0  0  0  0  0  0  0
    6.1112    1.5482    0.0000 C   0  0  0  0  0  0  0  0  0  0  0  0
    6.1112   -0.6987    0.0000 C   0  0  0  0  0  0  0  0  0  0  0  0
    6.8931    0.9248    0.0000 C   0  0  0  0  0  0  0  0  0  0  0  0
    6.8931   -0.0752    0.0000 C   0  0  0  0  0  0  0  0  0  0  0  0
    3.7024    0.4248    0.0000 C   0  0  0  0  0  0  0  0  0  0  0  0
    7.7870    1.4594    0.0000 C   0  0  0  0  0  0  0  0  0  0  0  0
    7.7870   -0.6099    0.0000 C   0  0  0  0  0  0  0  0  0  0  0  0
    8.6931    0.9456    0.0000 C   0  0  0  0  0  0  0  0  0  0  0  0
    8.6931   -0.0961    0.0000 C   0  0  0  0  0  0  0  0  0  0  0  0
    3.2024   -0.4413    0.0000 C   0  0  0  0  0  0  0  0  0  0  0  0
   11.2931    0.4556    0.0000 C   0  0  0  0  0  0  0  0  0  0  0  0
   13.0290   -0.5377    0.0000 C   0  0  0  0  0  0  0  0  0  0  0  0
   13.0251    0.4623    0.0000 C   0  0  0  0  0  0  0  0  0  0  0  0
   14.8290   -0.5516    0.0000 C   0  0  0  0  0  0  0  0  0  0  0  0
   12.1572    0.9589    0.0000 C   0  0  0  0  0  0  0  0  0  0  0  0
   14.8250    0.4900    0.0000 C   0  0  0  0  0  0  0  0  0  0  0  0
    2.2079   -0.5458    0.0000 C   0  0  0  0  0  0  0  0  0  0  0  0
   11.2969   -0.5444    0.0000 C   0  0  0  0  0  0  0  0  0  0  0  0
   12.1649   -1.0411    0.0000 C   0  0  0  0  0  0  0  0  0  0  0  0
   13.9172   -2.0689    0.0000 C   0  0  0  0  0  0  0  0  0  0  0  0
    2.0000   -1.5239    0.0000 C   0  0  0  0  0  0  0  0  0  0  0  0
    5.1363    1.9457    0.0000 H   0  0  0  0  0  0  0  0  0  0  0  0
    4.5319    1.4637    0.0000 H   0  0  0  0  0  0  0  0  0  0  0  0
    4.5319   -0.6142    0.0000 H   0  0  0  0  0  0  0  0  0  0  0  0
    5.1363   -1.0962    0.0000 H   0  0  0  0  0  0  0  0  0  0  0  0
    6.5960    1.9348    0.0000 H   0  0  0  0  0  0  0  0  0  0  0  0
    5.8422    2.1068    0.0000 H   0  0  0  0  0  0  0  0  0  0  0  0
    5.8422   -1.2573    0.0000 H   0  0  0  0  0  0  0  0  0  0  0  0
    6.5960   -1.0853    0.0000 H   0  0  0  0  0  0  0  0  0  0  0  0
    3.8101    1.0353    0.0000 H   0  0  0  0  0  0  0  0  0  0  0  0
    3.1198    0.6368    0.0000 H   0  0  0  0  0  0  0  0  0  0  0  0
    7.7798    2.0794    0.0000 H   0  0  0  0  0  0  0  0  0  0  0  0
    7.7798   -1.2299    0.0000 H   0  0  0  0  0  0  0  0  0  0  0  0
    9.2288   -0.4081    0.0000 H   0  0  0  0  0  0  0  0  0  0  0  0
    9.5548    2.0689    0.0000 H   0  0  0  0  0  0  0  0  0  0  0  0
   15.0403   -1.1345    0.0000 H   0  0  0  0  0  0  0  0  0  0  0  0
   15.4395   -0.4432    0.0000 H   0  0  0  0  0  0  0  0  0  0  0  0
   12.1548    1.5789    0.0000 H   0  0  0  0  0  0  0  0  0  0  0  0
   15.4363    0.3863    0.0000 H   0  0  0  0  0  0  0  0  0  0  0  0
   15.0318    1.0745    0.0000 H   0  0  0  0  0  0  0  0  0  0  0  0
   12.1673   -1.6610    0.0000 H   0  0  0  0  0  0  0  0  0  0  0  0
   10.7612   -0.8565    0.0000 H   0  0  0  0  0  0  0  0  0  0  0  0
    1.7930   -0.0850    0.0000 H   0  0  0  0  0  0  0  0  0  0  0  0
    4.2156   -1.4837    0.0000 H   0  0  0  0  0  0  0  0  0  0  0  0
   13.2973   -2.0641    0.0000 H   0  0  0  0  0  0  0  0  0  0  0  0
   13.9125   -2.6889    0.0000 H   0  0  0  0  0  0  0  0  0  0  0  0
   14.5372   -2.0737    0.0000 H   0  0  0  0  0  0  0  0  0  0  0  0
    1.4336   -1.7761    0.0000 H   0  0  0  0  0  0  0  0  0  0  0  0
  1  3  2  0  0  0  0
  1  4  2  0  0  0  0
  1  6  1  0  0  0  0
  1 22  1  0  0  0  0
  2 24  1  0  0  0  0
  2 27  1  0  0  0  0
  5 10  1  0  0  0  0
  5 11  1  0  0  0  0
  5 16  1  0  0  0  0
  6 19  1  0  0  0  0
  6 46  1  0  0  0  0
  7 23  1  0  0  0  0
  7 25  1  0  0  0  0
  7 31  1  0  0  0  0
  8  9  1  0  0  0  0
  8 21  1  0  0  0  0
  8 55  1  0  0  0  0
  9 32  2  0  0  0  0
 10 12  1  0  0  0  0
 10 33  1  0  0  0  0
 10 34  1  0  0  0  0
 11 13  1  0  0  0  0
 11 35  1  0  0  0  0
 11 36  1  0  0  0  0
 12 14  1  0  0  0  0
 12 37  1  0  0  0  0
 12 38  1  0  0  0  0
 13 15  1  0  0  0  0
 13 39  1  0  0  0  0
 13 40  1  0  0  0  0
 14 15  2  0  0  0  0
 14 17  1  0  0  0  0
 15 18  1  0  0  0  0
 16 21  1  0  0  0  0
 16 41  1  0  0  0  0
 16 42  1  0  0  0  0
 17 19  2  0  0  0  0
 17 43  1  0  0  0  0
 18 20  2  0  0  0  0
 18 44  1  0  0  0  0
 19 20  1  0  0  0  0
 20 45  1  0  0  0  0
 21 28  2  0  0  0  0
 22 26  2  0  0  0  0
 22 29  1  0  0  0  0
 23 24  2  0  0  0  0
 23 30  1  0  0  0  0
 24 26  1  0  0  0  0
 25 27  1  0  0  0  0
 25 47  1  0  0  0  0
 25 48  1  0  0  0  0
 26 49  1  0  0  0  0
 27 50  1  0  0  0  0
 27 51  1  0  0  0  0
 28 32  1  0  0  0  0
 28 54  1  0  0  0  0
 29 30  2  0  0  0  0
 29 53  1  0  0  0  0
 30 52  1  0  0  0  0
 31 56  1  0  0  0  0
 31 57  1  0  0  0  0
 31 58  1  0  0  0  0
 32 59  1  0  0  0  0
M  END
> <PUBCHEM_COMPOUND_CID>
46882583

> <PUBCHEM_COMPOUND_CANONICALIZED>
1

> <PUBCHEM_CACTVS_COMPLEXITY>
732

> <PUBCHEM_CACTVS_HBOND_ACCEPTOR>
7

> <PUBCHEM_CACTVS_HBOND_DONOR>
2

> <PUBCHEM_CACTVS_ROTATABLE_BOND>
5

> <PUBCHEM_CACTVS_SUBSKEYS>
AAADceB7sABAAAAAAAAAAAAAAAAAAWAAAAA8YIAABYAAAACx0AAAHgQYQAAADAzh3gY+x5NjBAKiAzRnQHDSDBAhogAYuTg/bJgOZqLE8duXvCjk2BHY6AeQwIAOiAQARAAQEAAQCACIACAgAAAAAAAAAA==

> <PUBCHEM_IUPAC_OPENEYE_NAME>
4-methyl-N-[3-(1H-pyrazol-5-ylmethyl)-1,2,4,5-tetrahydro-3-benzazepin-7-yl]-2,3-dihydro-1,4-benzoxazine-7-sulfonamide

> <PUBCHEM_IUPAC_CAS_NAME>
4-methyl-N-[3-(1H-pyrazol-5-ylmethyl)-1,2,4,5-tetrahydro-3-benzazepin-7-yl]-2,3-dihydro-1,4-benzoxazine-7-sulfonamide

> <PUBCHEM_IUPAC_NAME_MARKUP>
4-methyl-<I>N</I>-[3-(1<I>H</I>-pyrazol-5-ylmethyl)-1,2,4,5-tetrahydro-3-benzazepin-7-yl]-2,3-dihydro-1,4-benzoxazine-7-sulfonamide

> <PUBCHEM_IUPAC_NAME>
4-methyl-N-[3-(1H-pyrazol-5-ylmethyl)-1,2,4,5-tetrahydro-3-benzazepin-7-yl]-2,3-dihydro-1,4-benzoxazine-7-sulfonamide

> <PUBCHEM_IUPAC_SYSTEMATIC_NAME>
4-methyl-N-[3-(1H-pyrazol-5-ylmethyl)-1,2,4,5-tetrahydro-3-benzazepin-7-yl]-2,3-dihydro-1,4-benzoxazine-7-sulfonamide

> <PUBCHEM_IUPAC_TRADITIONAL_NAME>
4-methyl-N-[3-(1H-pyrazol-5-ylmethyl)-1,2,4,5-tetrahydro-3-benzazepin-7-yl]-2,3-dihydro-1,4-benzoxazine-7-sulfonamide

> <PUBCHEM_IUPAC_INCHI>
InChI=1S/C23H27N5O3S/c1-27-12-13-31-23-15-21(4-5-22(23)27)32(29,30)26-19-3-2-17-7-10-28(11-8-18(17)14-19)16-20-6-9-24-25-20/h2-6,9,14-15,26H,7-8,10-13,16H2,1H3,(H,24,25)

> <PUBCHEM_IUPAC_INCHIKEY>
ZYVXMBZAPDQCJH-UHFFFAOYSA-N

> <PUBCHEM_XLOGP3_AA>
2.5

> <PUBCHEM_EXACT_MASS>
453.18346091

> <PUBCHEM_MOLECULAR_FORMULA>
C23H27N5O3S

> <PUBCHEM_MOLECULAR_WEIGHT>
453.6

> <PUBCHEM_OPENEYE_CAN_SMILES>
CN1CCOC2=C1C=CC(=C2)S(=O)(=O)NC3=CC4=C(CCN(CC4)CC5=CC=NN5)C=C3

> <PUBCHEM_OPENEYE_ISO_SMILES>
CN1CCOC2=C1C=CC(=C2)S(=O)(=O)NC3=CC4=C(CCN(CC4)CC5=CC=NN5)C=C3

> <PUBCHEM_CACTVS_TPSA>
98.9

> <PUBCHEM_MONOISOTOPIC_WEIGHT>
453.18346091

> <PUBCHEM_TOTAL_CHARGE>
0

> <PUBCHEM_HEAVY_ATOM_COUNT>
32

> <PUBCHEM_ATOM_DEF_STEREO_COUNT>
0

> <PUBCHEM_ATOM_UDEF_STEREO_COUNT>
0

> <PUBCHEM_BOND_DEF_STEREO_COUNT>
0

> <PUBCHEM_BOND_UDEF_STEREO_COUNT>
0

> <PUBCHEM_ISOTOPIC_ATOM_COUNT>
0

> <PUBCHEM_COMPONENT_COUNT>
1

> <PUBCHEM_CACTVS_TAUTO_COUNT>
-1

> <PUBCHEM_COORDINATE_TYPE>
1
5
255

> <PUBCHEM_BONDANNOTATIONS>
14  15  8
14  17  8
15  18  8
17  19  8
18  20  8
19  20  8
21  28  8
22  26  8
22  29  8
23  24  8
23  30  8
24  26  8
28  32  8
29  30  8
8  21  8
8  9  8
9  32  8

$$$$
