145986031
  -OEChem-09292322392D

 68 73  0     1  0  0  0  0  0999 V2000
    3.0000    0.0173    0.0000 S   0  0  0  0  0  0  0  0  0  0  0  0
   11.5312    0.1844    0.0000 S   0  0  0  0  0  0  0  0  0  0  0  0
    2.0000    0.0173    0.0000 O   0  0  0  0  0  0  0  0  0  0  0  0
    4.0000    0.0173    0.0000 O   0  0  0  0  0  0  0  0  0  0  0  0
    3.0000    1.0173    0.0000 N   0  0  3  0  0  0  0  0  0  0  0  0
    6.4641    1.0173    0.0000 N   0  0  0  0  0  0  0  0  0  0  0  0
    8.1962    0.0173    0.0000 N   0  0  0  0  0  0  0  0  0  0  0  0
    4.7600   -3.0173    0.0000 N   0  0  0  0  0  0  0  0  0  0  0  0
    3.8660    1.5173    0.0000 C   0  0  2  0  0  0  0  0  0  0  0  0
    3.8660    2.5173    0.0000 C   0  0  0  0  0  0  0  0  0  0  0  0
    4.7320    1.0173    0.0000 C   0  0  0  0  0  0  0  0  0  0  0  0
    3.0000    3.0173    0.0000 C   0  0  0  0  0  0  0  0  0  0  0  0
    2.1340    1.5173    0.0000 C   0  0  0  0  0  0  0  0  0  0  0  0
    2.1340    2.5173    0.0000 C   0  0  0  0  0  0  0  0  0  0  0  0
    5.5981    1.5173    0.0000 C   0  0  0  0  0  0  0  0  0  0  0  0
    6.4641    0.0173    0.0000 C   0  0  0  0  0  0  0  0  0  0  0  0
    7.3301    1.5173    0.0000 C   0  0  0  0  0  0  0  0  0  0  0  0
    7.3301   -0.4827    0.0000 C   0  0  0  0  0  0  0  0  0  0  0  0
    8.1962    1.0173    0.0000 C   0  0  0  0  0  0  0  0  0  0  0  0
    3.0000   -0.9827    0.0000 C   0  0  0  0  0  0  0  0  0  0  0  0
    9.0622   -0.4827    0.0000 C   0  0  0  0  0  0  0  0  0  0  0  0
    3.8660   -1.4827    0.0000 C   0  0  0  0  0  0  0  0  0  0  0  0
    2.1340   -1.4827    0.0000 C   0  0  0  0  0  0  0  0  0  0  0  0
    9.9282    0.0173    0.0000 C   0  0  0  0  0  0  0  0  0  0  0  0
    9.0622   -1.4827    0.0000 C   0  0  0  0  0  0  0  0  0  0  0  0
    3.8660   -2.4827    0.0000 C   0  0  0  0  0  0  0  0  0  0  0  0
    2.1340   -2.4827    0.0000 C   0  0  0  0  0  0  0  0  0  0  0  0
   10.7942   -0.4827    0.0000 C   0  0  0  0  0  0  0  0  0  0  0  0
    4.7600   -0.9480    0.0000 C   0  0  0  0  0  0  0  0  0  0  0  0
    3.0000   -2.9827    0.0000 C   0  0  0  0  0  0  0  0  0  0  0  0
   10.1374    0.9891    0.0000 C   0  0  0  0  0  0  0  0  0  0  0  0
    9.9282   -1.9827    0.0000 C   0  0  0  0  0  0  0  0  0  0  0  0
   10.7942   -1.4827    0.0000 C   0  0  0  0  0  0  0  0  0  0  0  0
    5.6660   -1.4619    0.0000 C   0  0  0  0  0  0  0  0  0  0  0  0
   11.1261    1.0922    0.0000 C   0  0  0  0  0  0  0  0  0  0  0  0
    5.6660   -2.5035    0.0000 C   0  0  0  0  0  0  0  0  0  0  0  0
    3.8660    0.8973    0.0000 H   0  0  0  0  0  0  0  0  0  0  0  0
    4.4766    2.4097    0.0000 H   0  0  0  0  0  0  0  0  0  0  0  0
    4.0781    3.0999    0.0000 H   0  0  0  0  0  0  0  0  0  0  0  0
    4.3335    0.5424    0.0000 H   0  0  0  0  0  0  0  0  0  0  0  0
    5.1306    0.5424    0.0000 H   0  0  0  0  0  0  0  0  0  0  0  0
    3.3985    3.4923    0.0000 H   0  0  0  0  0  0  0  0  0  0  0  0
    2.6015    3.4923    0.0000 H   0  0  0  0  0  0  0  0  0  0  0  0
    1.5234    1.6250    0.0000 H   0  0  0  0  0  0  0  0  0  0  0  0
    1.9219    0.9347    0.0000 H   0  0  0  0  0  0  0  0  0  0  0  0
    1.9219    3.0999    0.0000 H   0  0  0  0  0  0  0  0  0  0  0  0
    1.5234    2.4097    0.0000 H   0  0  0  0  0  0  0  0  0  0  0  0
    5.9966    1.9923    0.0000 H   0  0  0  0  0  0  0  0  0  0  0  0
    5.1996    1.9923    0.0000 H   0  0  0  0  0  0  0  0  0  0  0  0
    5.8535    0.1250    0.0000 H   0  0  0  0  0  0  0  0  0  0  0  0
    6.2520   -0.5653    0.0000 H   0  0  0  0  0  0  0  0  0  0  0  0
    7.7287    1.9923    0.0000 H   0  0  0  0  0  0  0  0  0  0  0  0
    6.9316    1.9923    0.0000 H   0  0  0  0  0  0  0  0  0  0  0  0
    6.9316   -0.9576    0.0000 H   0  0  0  0  0  0  0  0  0  0  0  0
    7.7287   -0.9576    0.0000 H   0  0  0  0  0  0  0  0  0  0  0  0
    8.8067    0.9097    0.0000 H   0  0  0  0  0  0  0  0  0  0  0  0
    8.4082    1.5999    0.0000 H   0  0  0  0  0  0  0  0  0  0  0  0
    1.5970   -1.1727    0.0000 H   0  0  0  0  0  0  0  0  0  0  0  0
    8.5252   -1.7927    0.0000 H   0  0  0  0  0  0  0  0  0  0  0  0
    1.5970   -2.7927    0.0000 H   0  0  0  0  0  0  0  0  0  0  0  0
    4.7528   -0.3280    0.0000 H   0  0  0  0  0  0  0  0  0  0  0  0
    3.0000   -3.6027    0.0000 H   0  0  0  0  0  0  0  0  0  0  0  0
    9.7233    1.4506    0.0000 H   0  0  0  0  0  0  0  0  0  0  0  0
    9.9282   -2.6027    0.0000 H   0  0  0  0  0  0  0  0  0  0  0  0
   11.3312   -1.7927    0.0000 H   0  0  0  0  0  0  0  0  0  0  0  0
    6.2018   -1.1498    0.0000 H   0  0  0  0  0  0  0  0  0  0  0  0
   11.4361    1.6291    0.0000 H   0  0  0  0  0  0  0  0  0  0  0  0
    6.2018   -2.8156    0.0000 H   0  0  0  0  0  0  0  0  0  0  0  0
  1  3  2  0  0  0  0
  1  4  2  0  0  0  0
  1  5  1  0  0  0  0
  1 20  1  0  0  0  0
  2 28  1  0  0  0  0
  2 35  1  0  0  0  0
  5  9  1  0  0  0  0
  5 13  1  0  0  0  0
  6 15  1  0  0  0  0
  6 16  1  0  0  0  0
  6 17  1  0  0  0  0
  7 18  1  0  0  0  0
  7 19  1  0  0  0  0
  7 21  1  0  0  0  0
  8 26  1  0  0  0  0
  8 36  2  0  0  0  0
  9 10  1  0  0  0  0
  9 11  1  6  0  0  0
  9 37  1  0  0  0  0
 10 12  1  0  0  0  0
 10 38  1  0  0  0  0
 10 39  1  0  0  0  0
 11 15  1  0  0  0  0
 11 40  1  0  0  0  0
 11 41  1  0  0  0  0
 12 14  1  0  0  0  0
 12 42  1  0  0  0  0
 12 43  1  0  0  0  0
 13 14  1  0  0  0  0
 13 44  1  0  0  0  0
 13 45  1  0  0  0  0
 14 46  1  0  0  0  0
 14 47  1  0  0  0  0
 15 48  1  0  0  0  0
 15 49  1  0  0  0  0
 16 18  1  0  0  0  0
 16 50  1  0  0  0  0
 16 51  1  0  0  0  0
 17 19  1  0  0  0  0
 17 52  1  0  0  0  0
 17 53  1  0  0  0  0
 18 54  1  0  0  0  0
 18 55  1  0  0  0  0
 19 56  1  0  0  0  0
 19 57  1  0  0  0  0
 20 22  1  0  0  0  0
 20 23  2  0  0  0  0
 21 24  2  0  0  0  0
 21 25  1  0  0  0  0
 22 26  2  0  0  0  0
 22 29  1  0  0  0  0
 23 27  1  0  0  0  0
 23 58  1  0  0  0  0
 24 28  1  0  0  0  0
 24 31  1  0  0  0  0
 25 32  2  0  0  0  0
 25 59  1  0  0  0  0
 26 30  1  0  0  0  0
 27 30  2  0  0  0  0
 27 60  1  0  0  0  0
 28 33  2  0  0  0  0
 29 34  2  0  0  0  0
 29 61  1  0  0  0  0
 30 62  1  0  0  0  0
 31 35  2  0  0  0  0
 31 63  1  0  0  0  0
 32 33  1  0  0  0  0
 32 64  1  0  0  0  0
 33 65  1  0  0  0  0
 34 36  1  0  0  0  0
 34 66  1  0  0  0  0
 35 67  1  0  0  0  0
 36 68  1  0  0  0  0
M  END
> <PUBCHEM_COMPOUND_CID>
145986031

> <PUBCHEM_COMPOUND_CANONICALIZED>
1

> <PUBCHEM_CACTVS_COMPLEXITY>
828

> <PUBCHEM_CACTVS_HBOND_ACCEPTOR>
7

> <PUBCHEM_CACTVS_HBOND_DONOR>
0

> <PUBCHEM_CACTVS_ROTATABLE_BOND>
6

> <PUBCHEM_CACTVS_SUBSKEYS>
AAADcfB7sABgAAAAAAAAAAAAAAAAASAAAAA8eLECAAAAAEix/gAAHAQAQAAADCjFXgS8wfMIEAqkAzRnRHDDgLAxCjBI2Dg4ZJgIYOLg0ZGUIAxggADoyAcQgIAOAAAAACAGAAAAAAAAQAwAAAAAAAAAAA==

> <PUBCHEM_IUPAC_OPENEYE_NAME>
5-[[(2R)-2-[2-[4-(benzothiophen-4-yl)piperazin-1-yl]ethyl]-1-piperidyl]sulfonyl]quinoline

> <PUBCHEM_IUPAC_CAS_NAME>
5-[[(2R)-2-[2-[4-(1-benzothiophen-4-yl)-1-piperazinyl]ethyl]-1-piperidinyl]sulfonyl]quinoline

> <PUBCHEM_IUPAC_NAME_MARKUP>
5-[(2<I>R</I>)-2-[2-[4-(1-benzothiophen-4-yl)piperazin-1-yl]ethyl]piperidin-1-yl]sulfonylquinoline

> <PUBCHEM_IUPAC_NAME>
5-[(2R)-2-[2-[4-(1-benzothiophen-4-yl)piperazin-1-yl]ethyl]piperidin-1-yl]sulfonylquinoline

> <PUBCHEM_IUPAC_SYSTEMATIC_NAME>
5-[(2R)-2-[2-[4-(1-benzothiophen-4-yl)piperazin-1-yl]ethyl]piperidin-1-yl]sulfonylquinoline

> <PUBCHEM_IUPAC_TRADITIONAL_NAME>
5-[(2R)-2-[2-[4-(benzothiophen-4-yl)piperazino]ethyl]piperidino]sulfonylquinoline

> <PUBCHEM_IUPAC_INCHI>
InChI=1S/C28H32N4O2S2/c33-36(34,28-11-3-8-25-23(28)7-5-14-29-25)32-15-2-1-6-22(32)12-16-30-17-19-31(20-18-30)26-9-4-10-27-24(26)13-21-35-27/h3-5,7-11,13-14,21-22H,1-2,6,12,15-20H2/t22-/m1/s1

> <PUBCHEM_IUPAC_INCHIKEY>
UOCIVUKERDURFO-JOCHJYFZSA-N

> <PUBCHEM_XLOGP3_AA>
5.3

> <PUBCHEM_EXACT_MASS>
520.19666862

> <PUBCHEM_MOLECULAR_FORMULA>
C28H32N4O2S2

> <PUBCHEM_MOLECULAR_WEIGHT>
520.7

> <PUBCHEM_OPENEYE_CAN_SMILES>
C1CCN(C(C1)CCN2CCN(CC2)C3=C4C=CSC4=CC=C3)S(=O)(=O)C5=CC=CC6=C5C=CC=N6

> <PUBCHEM_OPENEYE_ISO_SMILES>
C1CCN([C@H](C1)CCN2CCN(CC2)C3=C4C=CSC4=CC=C3)S(=O)(=O)C5=CC=CC6=C5C=CC=N6

> <PUBCHEM_CACTVS_TPSA>
93.4

> <PUBCHEM_MONOISOTOPIC_WEIGHT>
520.19666862

> <PUBCHEM_TOTAL_CHARGE>
0

> <PUBCHEM_HEAVY_ATOM_COUNT>
36

> <PUBCHEM_ATOM_DEF_STEREO_COUNT>
1

> <PUBCHEM_ATOM_UDEF_STEREO_COUNT>
0

> <PUBCHEM_BOND_DEF_STEREO_COUNT>
0

> <PUBCHEM_BOND_UDEF_STEREO_COUNT>
0

> <PUBCHEM_ISOTOPIC_ATOM_COUNT>
0

> <PUBCHEM_COMPONENT_COUNT>
1

> <PUBCHEM_CACTVS_TAUTO_COUNT>
-1

> <PUBCHEM_COORDINATE_TYPE>
1
5
255

> <PUBCHEM_BONDANNOTATIONS>
2  28  8
2  35  8
20  22  8
20  23  8
21  24  8
21  25  8
22  26  8
22  29  8
23  27  8
24  28  8
24  31  8
25  32  8
26  30  8
27  30  8
28  33  8
29  34  8
31  35  8
32  33  8
34  36  8
8  26  8
8  36  8
9  11  6

$$$$
