10105311
  -OEChem-09292322122D

 38 40  0     1  0  0  0  0  0999 V2000
    2.9176   -2.3152    0.0000 O   0  0  0  0  0  0  0  0  0  0  0  0
    6.4783    0.5241    0.0000 N   0  0  3  0  0  0  0  0  0  0  0  0
    5.5321   -0.7806    0.0000 C   0  0  2  0  0  0  0  0  0  0  0  0
    5.5321    0.2194    0.0000 C   0  0  1  0  0  0  0  0  0  0  0  0
    6.4783   -1.0853    0.0000 C   0  0  0  0  0  0  0  0  0  0  0  0
    7.0619   -0.2806    0.0000 C   0  0  0  0  0  0  0  0  0  0  0  0
    4.6660   -1.2806    0.0000 C   0  0  0  0  0  0  0  0  0  0  0  0
    4.6660    0.7194    0.0000 C   0  0  0  0  0  0  0  0  0  0  0  0
    3.8000   -0.7806    0.0000 C   0  0  0  0  0  0  0  0  0  0  0  0
    3.8000    0.2194    0.0000 C   0  0  0  0  0  0  0  0  0  0  0  0
    6.7889    1.4746    0.0000 C   0  0  0  0  0  0  0  0  0  0  0  0
    7.7674    1.6809    0.0000 C   0  0  0  0  0  0  0  0  0  0  0  0
    2.9061   -1.3153    0.0000 C   0  0  0  0  0  0  0  0  0  0  0  0
    2.9061    0.7541    0.0000 C   0  0  0  0  0  0  0  0  0  0  0  0
    2.0000   -0.8014    0.0000 C   0  0  0  0  0  0  0  0  0  0  0  0
    2.0000    0.2402    0.0000 C   0  0  0  0  0  0  0  0  0  0  0  0
    8.0781    2.6314    0.0000 C   0  0  0  0  0  0  0  0  0  0  0  0
    5.6220   -1.6258    0.0000 H   0  0  0  0  0  0  0  0  0  0  0  0
    5.6220    1.0646    0.0000 H   0  0  0  0  0  0  0  0  0  0  0  0
    6.2272   -1.6522    0.0000 H   0  0  0  0  0  0  0  0  0  0  0  0
    7.0157   -1.3946    0.0000 H   0  0  0  0  0  0  0  0  0  0  0  0
    7.5228   -0.6953    0.0000 H   0  0  0  0  0  0  0  0  0  0  0  0
    7.5228    0.1341    0.0000 H   0  0  0  0  0  0  0  0  0  0  0  0
    4.2675   -1.7556    0.0000 H   0  0  0  0  0  0  0  0  0  0  0  0
    5.0646   -1.7556    0.0000 H   0  0  0  0  0  0  0  0  0  0  0  0
    5.0646    1.1943    0.0000 H   0  0  0  0  0  0  0  0  0  0  0  0
    4.2675    1.1943    0.0000 H   0  0  0  0  0  0  0  0  0  0  0  0
    6.7684    2.0943    0.0000 H   0  0  0  0  0  0  0  0  0  0  0  0
    6.1751    1.5620    0.0000 H   0  0  0  0  0  0  0  0  0  0  0  0
    7.7880    1.0612    0.0000 H   0  0  0  0  0  0  0  0  0  0  0  0
    8.3813    1.5935    0.0000 H   0  0  0  0  0  0  0  0  0  0  0  0
    2.9132    1.3740    0.0000 H   0  0  0  0  0  0  0  0  0  0  0  0
    1.4643   -1.1135    0.0000 H   0  0  0  0  0  0  0  0  0  0  0  0
    1.4643    0.5523    0.0000 H   0  0  0  0  0  0  0  0  0  0  0  0
    8.6674    2.4388    0.0000 H   0  0  0  0  0  0  0  0  0  0  0  0
    8.2707    3.2207    0.0000 H   0  0  0  0  0  0  0  0  0  0  0  0
    7.4888    2.8240    0.0000 H   0  0  0  0  0  0  0  0  0  0  0  0
    2.3843   -2.6314    0.0000 H   0  0  0  0  0  0  0  0  0  0  0  0
  1 13  1  0  0  0  0
  1 38  1  0  0  0  0
  2  4  1  0  0  0  0
  2  6  1  0  0  0  0
  2 11  1  0  0  0  0
  3  4  1  0  0  0  0
  3  5  1  0  0  0  0
  3  7  1  0  0  0  0
  3 18  1  1  0  0  0
  4  8  1  0  0  0  0
  4 19  1  6  0  0  0
  5  6  1  0  0  0  0
  5 20  1  0  0  0  0
  5 21  1  0  0  0  0
  6 22  1  0  0  0  0
  6 23  1  0  0  0  0
  7  9  1  0  0  0  0
  7 24  1  0  0  0  0
  7 25  1  0  0  0  0
  8 10  1  0  0  0  0
  8 26  1  0  0  0  0
  8 27  1  0  0  0  0
  9 10  2  0  0  0  0
  9 13  1  0  0  0  0
 10 14  1  0  0  0  0
 11 12  1  0  0  0  0
 11 28  1  0  0  0  0
 11 29  1  0  0  0  0
 12 17  1  0  0  0  0
 12 30  1  0  0  0  0
 12 31  1  0  0  0  0
 13 15  2  0  0  0  0
 14 16  2  0  0  0  0
 14 32  1  0  0  0  0
 15 16  1  0  0  0  0
 15 33  1  0  0  0  0
 16 34  1  0  0  0  0
 17 35  1  0  0  0  0
 17 36  1  0  0  0  0
 17 37  1  0  0  0  0
M  END
> <PUBCHEM_COMPOUND_CID>
10105311

> <PUBCHEM_COMPOUND_CANONICALIZED>
1

> <PUBCHEM_CACTVS_COMPLEXITY>
268

> <PUBCHEM_CACTVS_HBOND_ACCEPTOR>
2

> <PUBCHEM_CACTVS_HBOND_DONOR>
1

> <PUBCHEM_CACTVS_ROTATABLE_BOND>
2

> <PUBCHEM_CACTVS_SUBSKEYS>
AAADceByIAAAAAAAAAAAAAAAAAAAAWAAAAAwYAAAAAAAAFjBAAAAHgAACAAADSzBmAQyBoMAAgCAAiBCAAACAAAgIAAIiAAOCIgIJiKCkROEcAAkwBGImAeQ0PMOgAABAAAYAACQAAaAADQAAAAAAAAAAA==

> <PUBCHEM_IUPAC_OPENEYE_NAME>
(3aS,9aR)-1-propyl-2,3,3a,4,9,9a-hexahydrobenzo[f]indol-5-ol

> <PUBCHEM_IUPAC_CAS_NAME>
(3aS,9aR)-1-propyl-2,3,3a,4,9,9a-hexahydrobenzo[f]indol-5-ol

> <PUBCHEM_IUPAC_NAME_MARKUP>
(3<I>a</I><I>S</I>,9<I>a</I><I>R</I>)-1-propyl-2,3,3<I>a</I>,4,9,9<I>a</I>-hexahydrobenzo[f]indol-5-ol

> <PUBCHEM_IUPAC_NAME>
(3aS,9aR)-1-propyl-2,3,3a,4,9,9a-hexahydrobenzo[f]indol-5-ol

> <PUBCHEM_IUPAC_SYSTEMATIC_NAME>
(3aS,9aR)-1-propyl-2,3,3a,4,9,9a-hexahydrobenzo[f]indol-5-ol

> <PUBCHEM_IUPAC_TRADITIONAL_NAME>
(3aS,9aR)-1-propyl-2,3,3a,4,9,9a-hexahydrobenz[f]indol-5-ol

> <PUBCHEM_IUPAC_INCHI>
InChI=1S/C15H21NO/c1-2-7-16-8-6-12-9-13-11(10-14(12)16)4-3-5-15(13)17/h3-5,12,14,17H,2,6-10H2,1H3/t12-,14-/m1/s1

> <PUBCHEM_IUPAC_INCHIKEY>
DYVLYWKEJHHXOH-TZMCWYRMSA-N

> <PUBCHEM_XLOGP3_AA>
3.2

> <PUBCHEM_EXACT_MASS>
231.162314293

> <PUBCHEM_MOLECULAR_FORMULA>
C15H21NO

> <PUBCHEM_MOLECULAR_WEIGHT>
231.33

> <PUBCHEM_OPENEYE_CAN_SMILES>
CCCN1CCC2C1CC3=C(C2)C(=CC=C3)O

> <PUBCHEM_OPENEYE_ISO_SMILES>
CCCN1CC[C@H]2[C@H]1CC3=C(C2)C(=CC=C3)O

> <PUBCHEM_CACTVS_TPSA>
23.5

> <PUBCHEM_MONOISOTOPIC_WEIGHT>
231.162314293

> <PUBCHEM_TOTAL_CHARGE>
0

> <PUBCHEM_HEAVY_ATOM_COUNT>
17

> <PUBCHEM_ATOM_DEF_STEREO_COUNT>
2

> <PUBCHEM_ATOM_UDEF_STEREO_COUNT>
0

> <PUBCHEM_BOND_DEF_STEREO_COUNT>
0

> <PUBCHEM_BOND_UDEF_STEREO_COUNT>
0

> <PUBCHEM_ISOTOPIC_ATOM_COUNT>
0

> <PUBCHEM_COMPONENT_COUNT>
1

> <PUBCHEM_CACTVS_TAUTO_COUNT>
-1

> <PUBCHEM_COORDINATE_TYPE>
1
5
255

> <PUBCHEM_BONDANNOTATIONS>
10  14  8
13  15  8
14  16  8
15  16  8
3  18  5
4  19  6
9  10  8
9  13  8

$$$$
