10520941
  -OEChem-09292322142D

 56 59  0     0  0  0  0  0  0999 V2000
    3.7320   -1.2852    0.0000 N   0  0  0  0  0  0  0  0  0  0  0  0
    2.9230    2.3026    0.0000 N   0  0  0  0  0  0  0  0  0  0  0  0
    3.2320    3.2536    0.0000 N   0  0  0  0  0  0  0  0  0  0  0  0
    3.7320    0.7148    0.0000 C   0  0  0  0  0  0  0  0  0  0  0  0
    4.8198    4.0626    0.0000 C   0  0  0  0  0  0  0  0  0  0  0  0
    2.8660    0.2148    0.0000 C   0  0  0  0  0  0  0  0  0  0  0  0
    4.5981    0.2148    0.0000 C   0  0  0  0  0  0  0  0  0  0  0  0
    5.8144    3.9581    0.0000 C   0  0  0  0  0  0  0  0  0  0  0  0
    4.4131    4.9762    0.0000 C   0  0  0  0  0  0  0  0  0  0  0  0
    2.8660   -0.7852    0.0000 C   0  0  0  0  0  0  0  0  0  0  0  0
    4.5981   -0.7852    0.0000 C   0  0  0  0  0  0  0  0  0  0  0  0
    3.7320    1.7148    0.0000 C   0  0  0  0  0  0  0  0  0  0  0  0
    6.4021    4.7671    0.0000 C   0  0  0  0  0  0  0  0  0  0  0  0
    5.0009    5.7852    0.0000 C   0  0  0  0  0  0  0  0  0  0  0  0
    4.2320    3.2536    0.0000 C   0  0  0  0  0  0  0  0  0  0  0  0
    5.9954    5.6807    0.0000 C   0  0  0  0  0  0  0  0  0  0  0  0
    4.5411    2.3026    0.0000 C   0  0  0  0  0  0  0  0  0  0  0  0
    3.7320   -2.2852    0.0000 C   0  0  0  0  0  0  0  0  0  0  0  0
    2.8660   -2.7852    0.0000 C   0  0  0  0  0  0  0  0  0  0  0  0
    2.8660   -3.7852    0.0000 C   0  0  0  0  0  0  0  0  0  0  0  0
    3.7320   -4.2852    0.0000 C   0  0  0  0  0  0  0  0  0  0  0  0
    2.0000   -4.2852    0.0000 C   0  0  0  0  0  0  0  0  0  0  0  0
    3.7320   -5.2852    0.0000 C   0  0  0  0  0  0  0  0  0  0  0  0
    2.0000   -5.2852    0.0000 C   0  0  0  0  0  0  0  0  0  0  0  0
    2.8660   -5.7852    0.0000 C   0  0  0  0  0  0  0  0  0  0  0  0
    4.2690    1.0248    0.0000 H   0  0  0  0  0  0  0  0  0  0  0  0
    4.2032    4.1275    0.0000 H   0  0  0  0  0  0  0  0  0  0  0  0
    2.6540    0.7974    0.0000 H   0  0  0  0  0  0  0  0  0  0  0  0
    2.2554    0.1071    0.0000 H   0  0  0  0  0  0  0  0  0  0  0  0
    5.2087    0.1071    0.0000 H   0  0  0  0  0  0  0  0  0  0  0  0
    4.8101    0.7974    0.0000 H   0  0  0  0  0  0  0  0  0  0  0  0
    5.6435    3.3621    0.0000 H   0  0  0  0  0  0  0  0  0  0  0  0
    6.3716    3.6863    0.0000 H   0  0  0  0  0  0  0  0  0  0  0  0
    3.9824    5.4222    0.0000 H   0  0  0  0  0  0  0  0  0  0  0  0
    3.8991    4.6295    0.0000 H   0  0  0  0  0  0  0  0  0  0  0  0
    2.2554   -0.6775    0.0000 H   0  0  0  0  0  0  0  0  0  0  0  0
    2.6540   -1.3678    0.0000 H   0  0  0  0  0  0  0  0  0  0  0  0
    4.8101   -1.3678    0.0000 H   0  0  0  0  0  0  0  0  0  0  0  0
    5.2087   -0.6775    0.0000 H   0  0  0  0  0  0  0  0  0  0  0  0
    6.8328    4.3212    0.0000 H   0  0  0  0  0  0  0  0  0  0  0  0
    6.9162    5.1138    0.0000 H   0  0  0  0  0  0  0  0  0  0  0  0
    5.1718    6.3812    0.0000 H   0  0  0  0  0  0  0  0  0  0  0  0
    4.4436    6.0570    0.0000 H   0  0  0  0  0  0  0  0  0  0  0  0
    6.5970    5.8307    0.0000 H   0  0  0  0  0  0  0  0  0  0  0  0
    5.9522    6.2992    0.0000 H   0  0  0  0  0  0  0  0  0  0  0  0
    5.1307    2.1110    0.0000 H   0  0  0  0  0  0  0  0  0  0  0  0
    3.9441   -2.8678    0.0000 H   0  0  0  0  0  0  0  0  0  0  0  0
    4.3426   -2.1776    0.0000 H   0  0  0  0  0  0  0  0  0  0  0  0
    2.3334    2.1110    0.0000 H   0  0  0  0  0  0  0  0  0  0  0  0
    2.6540   -2.2026    0.0000 H   0  0  0  0  0  0  0  0  0  0  0  0
    2.2554   -2.8929    0.0000 H   0  0  0  0  0  0  0  0  0  0  0  0
    4.2690   -3.9752    0.0000 H   0  0  0  0  0  0  0  0  0  0  0  0
    1.4631   -3.9752    0.0000 H   0  0  0  0  0  0  0  0  0  0  0  0
    4.2690   -5.5952    0.0000 H   0  0  0  0  0  0  0  0  0  0  0  0
    1.4631   -5.5952    0.0000 H   0  0  0  0  0  0  0  0  0  0  0  0
    2.8660   -6.4052    0.0000 H   0  0  0  0  0  0  0  0  0  0  0  0
  1 10  1  0  0  0  0
  1 11  1  0  0  0  0
  1 18  1  0  0  0  0
  2  3  1  0  0  0  0
  2 12  1  0  0  0  0
  2 49  1  0  0  0  0
  3 15  2  0  0  0  0
  4  6  1  0  0  0  0
  4  7  1  0  0  0  0
  4 12  1  0  0  0  0
  4 26  1  0  0  0  0
  5  8  1  0  0  0  0
  5  9  1  0  0  0  0
  5 15  1  0  0  0  0
  5 27  1  0  0  0  0
  6 10  1  0  0  0  0
  6 28  1  0  0  0  0
  6 29  1  0  0  0  0
  7 11  1  0  0  0  0
  7 30  1  0  0  0  0
  7 31  1  0  0  0  0
  8 13  1  0  0  0  0
  8 32  1  0  0  0  0
  8 33  1  0  0  0  0
  9 14  1  0  0  0  0
  9 34  1  0  0  0  0
  9 35  1  0  0  0  0
 10 36  1  0  0  0  0
 10 37  1  0  0  0  0
 11 38  1  0  0  0  0
 11 39  1  0  0  0  0
 12 17  2  0  0  0  0
 13 16  1  0  0  0  0
 13 40  1  0  0  0  0
 13 41  1  0  0  0  0
 14 16  1  0  0  0  0
 14 42  1  0  0  0  0
 14 43  1  0  0  0  0
 15 17  1  0  0  0  0
 16 44  1  0  0  0  0
 16 45  1  0  0  0  0
 17 46  1  0  0  0  0
 18 19  1  0  0  0  0
 18 47  1  0  0  0  0
 18 48  1  0  0  0  0
 19 20  1  0  0  0  0
 19 50  1  0  0  0  0
 19 51  1  0  0  0  0
 20 21  2  0  0  0  0
 20 22  1  0  0  0  0
 21 23  1  0  0  0  0
 21 52  1  0  0  0  0
 22 24  2  0  0  0  0
 22 53  1  0  0  0  0
 23 25  2  0  0  0  0
 23 54  1  0  0  0  0
 24 25  1  0  0  0  0
 24 55  1  0  0  0  0
 25 56  1  0  0  0  0
M  END
> <PUBCHEM_COMPOUND_CID>
10520941

> <PUBCHEM_COMPOUND_CANONICALIZED>
1

> <PUBCHEM_CACTVS_COMPLEXITY>
379

> <PUBCHEM_CACTVS_HBOND_ACCEPTOR>
2

> <PUBCHEM_CACTVS_HBOND_DONOR>
1

> <PUBCHEM_CACTVS_ROTATABLE_BOND>
5

> <PUBCHEM_CACTVS_SUBSKEYS>
AAADceB7AAAAAAAAAAAAAAAAAAAAAWAAAAA8YIAAAAAAAAABwAAAHAAYAAAADQjBHgQwgJNjAACiAyRiQACSBAAgAgAYuSA4ZJgIICKA0dGEpABgmACIyAcQgMAOAAAAAAAAAAAAAAAAAAAAAAAAAAAAAA==

> <PUBCHEM_IUPAC_OPENEYE_NAME>
4-(3-cyclohexyl-1H-pyrazol-5-yl)-1-(2-phenylethyl)piperidine

> <PUBCHEM_IUPAC_CAS_NAME>
4-(3-cyclohexyl-1H-pyrazol-5-yl)-1-(2-phenylethyl)piperidine

> <PUBCHEM_IUPAC_NAME_MARKUP>
4-(3-cyclohexyl-1<I>H</I>-pyrazol-5-yl)-1-(2-phenylethyl)piperidine

> <PUBCHEM_IUPAC_NAME>
4-(3-cyclohexyl-1H-pyrazol-5-yl)-1-(2-phenylethyl)piperidine

> <PUBCHEM_IUPAC_SYSTEMATIC_NAME>
4-(3-cyclohexyl-1H-pyrazol-5-yl)-1-(2-phenylethyl)piperidine

> <PUBCHEM_IUPAC_TRADITIONAL_NAME>
4-(3-cyclohexyl-1H-pyrazol-5-yl)-1-phenethyl-piperidine

> <PUBCHEM_IUPAC_INCHI>
InChI=1S/C22H31N3/c1-3-7-18(8-4-1)11-14-25-15-12-20(13-16-25)22-17-21(23-24-22)19-9-5-2-6-10-19/h1,3-4,7-8,17,19-20H,2,5-6,9-16H2,(H,23,24)

> <PUBCHEM_IUPAC_INCHIKEY>
XNFZPEDEZVYDIU-UHFFFAOYSA-N

> <PUBCHEM_XLOGP3_AA>
5

> <PUBCHEM_EXACT_MASS>
337.251798002

> <PUBCHEM_MOLECULAR_FORMULA>
C22H31N3

> <PUBCHEM_MOLECULAR_WEIGHT>
337.5

> <PUBCHEM_OPENEYE_CAN_SMILES>
C1CCC(CC1)C2=NNC(=C2)C3CCN(CC3)CCC4=CC=CC=C4

> <PUBCHEM_OPENEYE_ISO_SMILES>
C1CCC(CC1)C2=NNC(=C2)C3CCN(CC3)CCC4=CC=CC=C4

> <PUBCHEM_CACTVS_TPSA>
31.9

> <PUBCHEM_MONOISOTOPIC_WEIGHT>
337.251798002

> <PUBCHEM_TOTAL_CHARGE>
0

> <PUBCHEM_HEAVY_ATOM_COUNT>
25

> <PUBCHEM_ATOM_DEF_STEREO_COUNT>
0

> <PUBCHEM_ATOM_UDEF_STEREO_COUNT>
0

> <PUBCHEM_BOND_DEF_STEREO_COUNT>
0

> <PUBCHEM_BOND_UDEF_STEREO_COUNT>
0

> <PUBCHEM_ISOTOPIC_ATOM_COUNT>
0

> <PUBCHEM_COMPONENT_COUNT>
1

> <PUBCHEM_CACTVS_TAUTO_COUNT>
-1

> <PUBCHEM_COORDINATE_TYPE>
1
5
255

> <PUBCHEM_BONDANNOTATIONS>
12  17  8
15  17  8
2  12  8
2  3  8
20  21  8
20  22  8
21  23  8
22  24  8
23  25  8
24  25  8
3  15  8

$$$$
