162658985
  -OEChem-09292322422D

 69 72  0     1  0  0  0  0  0999 V2000
   15.8547    1.2740    0.0000 Cl  0  0  0  0  0  0  0  0  0  0  0  0
    5.5000   -2.3482    0.0000 O   0  0  0  0  0  0  0  0  0  0  0  0
    5.5000   -0.6162    0.0000 N   0  0  0  0  0  0  0  0  0  0  0  0
   11.0000    0.2498    0.0000 N   0  0  3  0  0  0  0  0  0  0  0  0
    8.5000   -0.6162    0.0000 C   0  0  0  0  0  0  0  0  0  0  0  0
    6.5000   -0.6162    0.0000 C   0  0  0  0  0  0  0  0  0  0  0  0
    8.0000   -1.4822    0.0000 C   0  0  0  0  0  0  0  0  0  0  0  0
    8.0000    0.2498    0.0000 C   0  0  0  0  0  0  0  0  0  0  0  0
    7.0000   -1.4822    0.0000 C   0  0  0  0  0  0  0  0  0  0  0  0
    7.0000    0.2498    0.0000 C   0  0  0  0  0  0  0  0  0  0  0  0
    9.5000   -0.6162    0.0000 C   0  0  0  0  0  0  0  0  0  0  0  0
   10.0000    0.2498    0.0000 C   0  0  0  0  0  0  0  0  0  0  0  0
    4.0000   -1.4822    0.0000 C   0  0  0  0  0  0  0  0  0  0  0  0
    3.5000   -0.6162    0.0000 C   0  0  0  0  0  0  0  0  0  0  0  0
    3.5000   -2.3482    0.0000 C   0  0  0  0  0  0  0  0  0  0  0  0
    5.0000   -1.4822    0.0000 C   0  0  0  0  0  0  0  0  0  0  0  0
   11.4339    1.1508    0.0000 C   0  0  0  0  0  0  0  0  0  0  0  0
   11.4339   -0.6511    0.0000 C   0  0  0  0  0  0  0  0  0  0  0  0
    2.5000   -0.6162    0.0000 C   0  0  0  0  0  0  0  0  0  0  0  0
    2.5000   -2.3482    0.0000 C   0  0  0  0  0  0  0  0  0  0  0  0
   12.4088    1.3733    0.0000 C   0  0  1  0  0  0  0  0  0  0  0  0
    2.0000   -1.4822    0.0000 C   0  0  0  0  0  0  0  0  0  0  0  0
   12.4088   -0.8737    0.0000 C   0  0  0  0  0  0  0  0  0  0  0  0
   13.1906    0.7498    0.0000 C   0  0  0  0  0  0  0  0  0  0  0  0
   13.1906   -0.2502    0.0000 C   0  0  0  0  0  0  0  0  0  0  0  0
   12.6313    2.3482    0.0000 C   0  0  0  0  0  0  0  0  0  0  0  0
   14.0846    1.2845    0.0000 C   0  0  0  0  0  0  0  0  0  0  0  0
   14.0846   -0.7848    0.0000 C   0  0  0  0  0  0  0  0  0  0  0  0
   14.9907    0.7706    0.0000 C   0  0  0  0  0  0  0  0  0  0  0  0
   14.9907   -0.2710    0.0000 C   0  0  0  0  0  0  0  0  0  0  0  0
    8.8100   -0.0793    0.0000 H   0  0  0  0  0  0  0  0  0  0  0  0
    6.1900   -0.0793    0.0000 H   0  0  0  0  0  0  0  0  0  0  0  0
    7.8923   -2.0928    0.0000 H   0  0  0  0  0  0  0  0  0  0  0  0
    8.5826   -1.6943    0.0000 H   0  0  0  0  0  0  0  0  0  0  0  0
    8.5826    0.4619    0.0000 H   0  0  0  0  0  0  0  0  0  0  0  0
    7.8923    0.8604    0.0000 H   0  0  0  0  0  0  0  0  0  0  0  0
    6.4174   -1.6943    0.0000 H   0  0  0  0  0  0  0  0  0  0  0  0
    7.1077   -2.0928    0.0000 H   0  0  0  0  0  0  0  0  0  0  0  0
    7.1077    0.8604    0.0000 H   0  0  0  0  0  0  0  0  0  0  0  0
    6.4174    0.4619    0.0000 H   0  0  0  0  0  0  0  0  0  0  0  0
    9.3923   -1.2268    0.0000 H   0  0  0  0  0  0  0  0  0  0  0  0
   10.0826   -0.8282    0.0000 H   0  0  0  0  0  0  0  0  0  0  0  0
   10.1077    0.8604    0.0000 H   0  0  0  0  0  0  0  0  0  0  0  0
    9.4174    0.4619    0.0000 H   0  0  0  0  0  0  0  0  0  0  0  0
    5.1900   -0.0793    0.0000 H   0  0  0  0  0  0  0  0  0  0  0  0
    4.3100   -0.9453    0.0000 H   0  0  0  0  0  0  0  0  0  0  0  0
    4.0826   -0.4041    0.0000 H   0  0  0  0  0  0  0  0  0  0  0  0
    3.3923   -0.0056    0.0000 H   0  0  0  0  0  0  0  0  0  0  0  0
    3.3923   -2.9588    0.0000 H   0  0  0  0  0  0  0  0  0  0  0  0
    4.0826   -2.5603    0.0000 H   0  0  0  0  0  0  0  0  0  0  0  0
   11.4339    1.7708    0.0000 H   0  0  0  0  0  0  0  0  0  0  0  0
   10.8294    1.2888    0.0000 H   0  0  0  0  0  0  0  0  0  0  0  0
   10.8294   -0.7891    0.0000 H   0  0  0  0  0  0  0  0  0  0  0  0
   11.4339   -1.2711    0.0000 H   0  0  0  0  0  0  0  0  0  0  0  0
    2.6077   -0.0056    0.0000 H   0  0  0  0  0  0  0  0  0  0  0  0
    1.9174   -0.4041    0.0000 H   0  0  0  0  0  0  0  0  0  0  0  0
    1.9174   -2.5603    0.0000 H   0  0  0  0  0  0  0  0  0  0  0  0
    2.6077   -2.9588    0.0000 H   0  0  0  0  0  0  0  0  0  0  0  0
   12.9940    1.5781    0.0000 H   0  0  0  0  0  0  0  0  0  0  0  0
    1.5250   -1.0837    0.0000 H   0  0  0  0  0  0  0  0  0  0  0  0
    1.5250   -1.8808    0.0000 H   0  0  0  0  0  0  0  0  0  0  0  0
   12.1398   -1.4323    0.0000 H   0  0  0  0  0  0  0  0  0  0  0  0
   12.8935   -1.2602    0.0000 H   0  0  0  0  0  0  0  0  0  0  0  0
   13.2358    2.2103    0.0000 H   0  0  0  0  0  0  0  0  0  0  0  0
   12.7693    2.9527    0.0000 H   0  0  0  0  0  0  0  0  0  0  0  0
   12.0269    2.4862    0.0000 H   0  0  0  0  0  0  0  0  0  0  0  0
   14.0774    1.9044    0.0000 H   0  0  0  0  0  0  0  0  0  0  0  0
   14.0774   -1.4048    0.0000 H   0  0  0  0  0  0  0  0  0  0  0  0
   15.5264   -0.5831    0.0000 H   0  0  0  0  0  0  0  0  0  0  0  0
  1 29  1  0  0  0  0
  2 16  2  0  0  0  0
  3  6  1  0  0  0  0
  3 16  1  0  0  0  0
  3 45  1  0  0  0  0
  4 12  1  0  0  0  0
  4 17  1  0  0  0  0
  4 18  1  0  0  0  0
  5  7  1  0  0  0  0
  5  8  1  0  0  0  0
  5 11  1  0  0  0  0
  5 31  1  0  0  0  0
  6  9  1  0  0  0  0
  6 10  1  0  0  0  0
  6 32  1  0  0  0  0
  7  9  1  0  0  0  0
  7 33  1  0  0  0  0
  7 34  1  0  0  0  0
  8 10  1  0  0  0  0
  8 35  1  0  0  0  0
  8 36  1  0  0  0  0
  9 37  1  0  0  0  0
  9 38  1  0  0  0  0
 10 39  1  0  0  0  0
 10 40  1  0  0  0  0
 11 12  1  0  0  0  0
 11 41  1  0  0  0  0
 11 42  1  0  0  0  0
 12 43  1  0  0  0  0
 12 44  1  0  0  0  0
 13 14  1  0  0  0  0
 13 15  1  0  0  0  0
 13 16  1  0  0  0  0
 13 46  1  0  0  0  0
 14 19  1  0  0  0  0
 14 47  1  0  0  0  0
 14 48  1  0  0  0  0
 15 20  1  0  0  0  0
 15 49  1  0  0  0  0
 15 50  1  0  0  0  0
 17 21  1  0  0  0  0
 17 51  1  0  0  0  0
 17 52  1  0  0  0  0
 18 23  1  0  0  0  0
 18 53  1  0  0  0  0
 18 54  1  0  0  0  0
 19 22  1  0  0  0  0
 19 55  1  0  0  0  0
 19 56  1  0  0  0  0
 20 22  1  0  0  0  0
 20 57  1  0  0  0  0
 20 58  1  0  0  0  0
 21 24  1  0  0  0  0
 21 26  1  6  0  0  0
 21 59  1  0  0  0  0
 22 60  1  0  0  0  0
 22 61  1  0  0  0  0
 23 25  1  0  0  0  0
 23 62  1  0  0  0  0
 23 63  1  0  0  0  0
 24 25  2  0  0  0  0
 24 27  1  0  0  0  0
 25 28  1  0  0  0  0
 26 64  1  0  0  0  0
 26 65  1  0  0  0  0
 26 66  1  0  0  0  0
 27 29  2  0  0  0  0
 27 67  1  0  0  0  0
 28 30  2  0  0  0  0
 28 68  1  0  0  0  0
 29 30  1  0  0  0  0
 30 69  1  0  0  0  0
M  END
> <PUBCHEM_COMPOUND_CID>
162658985

> <PUBCHEM_COMPOUND_CANONICALIZED>
1

> <PUBCHEM_CACTVS_COMPLEXITY>
541

> <PUBCHEM_CACTVS_HBOND_ACCEPTOR>
2

> <PUBCHEM_CACTVS_HBOND_DONOR>
1

> <PUBCHEM_CACTVS_ROTATABLE_BOND>
5

> <PUBCHEM_CACTVS_SUBSKEYS>
AAADcfB7IAAEAAAAAAAAAAAAAAAAAAAAAAAwYMAABYAAAAABAAAAHgIQAAAADSrBmCQyAIPAAACIAiFSEAACAAAgBQAIiIEIAogIIDKBkxGEIAAglgCIiAcYiMCOhAAAIAAQAAAYAABAACAAAAAAAAAAAA==

> <PUBCHEM_IUPAC_OPENEYE_NAME>
N-[4-[2-[(5R)-7-chloro-5-methyl-1,2,4,5-tetrahydro-3-benzazepin-3-yl]ethyl]cyclohexyl]cyclohexanecarboxamide

> <PUBCHEM_IUPAC_CAS_NAME>
N-[4-[2-[(5R)-7-chloro-5-methyl-1,2,4,5-tetrahydro-3-benzazepin-3-yl]ethyl]cyclohexyl]cyclohexanecarboxamide

> <PUBCHEM_IUPAC_NAME_MARKUP>
<I>N</I>-[4-[2-[(5<I>R</I>)-7-chloro-5-methyl-1,2,4,5-tetrahydro-3-benzazepin-3-yl]ethyl]cyclohexyl]cyclohexanecarboxamide

> <PUBCHEM_IUPAC_NAME>
N-[4-[2-[(5R)-7-chloro-5-methyl-1,2,4,5-tetrahydro-3-benzazepin-3-yl]ethyl]cyclohexyl]cyclohexanecarboxamide

> <PUBCHEM_IUPAC_SYSTEMATIC_NAME>
N-[4-[2-[(5R)-7-chloranyl-5-methyl-1,2,4,5-tetrahydro-3-benzazepin-3-yl]ethyl]cyclohexyl]cyclohexanecarboxamide

> <PUBCHEM_IUPAC_TRADITIONAL_NAME>
N-[4-[2-[(5R)-7-chloro-5-methyl-1,2,4,5-tetrahydro-3-benzazepin-3-yl]ethyl]cyclohexyl]cyclohexanecarboxamide

> <PUBCHEM_IUPAC_INCHI>
InChI=1S/C26H39ClN2O/c1-19-18-29(16-14-21-9-10-23(27)17-25(19)21)15-13-20-7-11-24(12-8-20)28-26(30)22-5-3-2-4-6-22/h9-10,17,19-20,22,24H,2-8,11-16,18H2,1H3,(H,28,30)/t19-,20?,24?/m0/s1

> <PUBCHEM_IUPAC_INCHIKEY>
AMBHQWIFPINWOO-HDJSMCDHSA-N

> <PUBCHEM_XLOGP3_AA>
6.5

> <PUBCHEM_EXACT_MASS>
430.2750916

> <PUBCHEM_MOLECULAR_FORMULA>
C26H39ClN2O

> <PUBCHEM_MOLECULAR_WEIGHT>
431.1

> <PUBCHEM_OPENEYE_CAN_SMILES>
CC1CN(CCC2=C1C=C(C=C2)Cl)CCC3CCC(CC3)NC(=O)C4CCCCC4

> <PUBCHEM_OPENEYE_ISO_SMILES>
C[C@H]1CN(CCC2=C1C=C(C=C2)Cl)CCC3CCC(CC3)NC(=O)C4CCCCC4

> <PUBCHEM_CACTVS_TPSA>
32.3

> <PUBCHEM_MONOISOTOPIC_WEIGHT>
430.2750916

> <PUBCHEM_TOTAL_CHARGE>
0

> <PUBCHEM_HEAVY_ATOM_COUNT>
30

> <PUBCHEM_ATOM_DEF_STEREO_COUNT>
1

> <PUBCHEM_ATOM_UDEF_STEREO_COUNT>
0

> <PUBCHEM_BOND_DEF_STEREO_COUNT>
0

> <PUBCHEM_BOND_UDEF_STEREO_COUNT>
0

> <PUBCHEM_ISOTOPIC_ATOM_COUNT>
0

> <PUBCHEM_COMPONENT_COUNT>
1

> <PUBCHEM_CACTVS_TAUTO_COUNT>
-1

> <PUBCHEM_COORDINATE_TYPE>
1
5
255

> <PUBCHEM_BONDANNOTATIONS>
21  26  6
24  25  8
24  27  8
25  28  8
27  29  8
28  30  8
29  30  8

$$$$
