155533381
  -OEChem-09292322092D

 43 45  0     0  0  0  0  0  0999 V2000
    5.8367    1.6872    0.0000 S   0  0  0  0  0  0  0  0  0  0  0  0
    4.6138   -1.4675    0.0000 N   0  0  0  0  0  0  0  0  0  0  0  0
    7.1037    0.3272    0.0000 N   0  0  0  0  0  0  0  0  0  0  0  0
    6.3779   -1.3201    0.0000 N   0  0  0  0  0  0  0  0  0  0  0  0
    4.5277    0.7362    0.0000 C   0  0  0  0  0  0  0  0  0  0  0  0
    3.5618    0.2088    0.0000 C   0  0  0  0  0  0  0  0  0  0  0  0
    2.5089    0.5289    0.0000 C   0  0  0  0  0  0  0  0  0  0  0  0
    2.0000    1.5046    0.0000 C   0  0  0  0  0  0  0  0  0  0  0  0
    2.3401    2.5513    0.0000 C   0  0  0  0  0  0  0  0  0  0  0  0
    3.3253    3.0415    0.0000 C   0  0  0  0  0  0  0  0  0  0  0  0
    4.3653    2.6816    0.0000 C   0  0  0  0  0  0  0  0  0  0  0  0
    4.8367    1.6872    0.0000 C   0  0  0  0  0  0  0  0  0  0  0  0
    5.3367    0.1484    0.0000 C   0  0  0  0  0  0  0  0  0  0  0  0
    6.1457    0.7362    0.0000 C   0  0  0  0  0  0  0  0  0  0  0  0
    5.4296   -0.8891    0.0000 C   0  0  0  0  0  0  0  0  0  0  0  0
    4.7069   -2.4631    0.0000 C   0  0  0  0  0  0  0  0  0  0  0  0
    3.7050   -1.0502    0.0000 C   0  0  0  0  0  0  0  0  0  0  0  0
    7.2206   -0.7078    0.0000 C   0  0  0  0  0  0  0  0  0  0  0  0
    3.8911   -3.0415    0.0000 C   0  0  0  0  0  0  0  0  0  0  0  0
    2.8893   -1.6286    0.0000 C   0  0  0  0  0  0  0  0  0  0  0  0
    3.2357   -0.3185    0.0000 H   0  0  0  0  0  0  0  0  0  0  0  0
    3.9882   -0.2413    0.0000 H   0  0  0  0  0  0  0  0  0  0  0  0
    1.9041    0.3923    0.0000 H   0  0  0  0  0  0  0  0  0  0  0  0
    2.4863   -0.0907    0.0000 H   0  0  0  0  0  0  0  0  0  0  0  0
    1.4790    1.8407    0.0000 H   0  0  0  0  0  0  0  0  0  0  0  0
    1.5419    1.0869    0.0000 H   0  0  0  0  0  0  0  0  0  0  0  0
    2.2150    3.1585    0.0000 H   0  0  0  0  0  0  0  0  0  0  0  0
    1.7210    2.5857    0.0000 H   0  0  0  0  0  0  0  0  0  0  0  0
    3.6712    3.5561    0.0000 H   0  0  0  0  0  0  0  0  0  0  0  0
    2.9163    3.5075    0.0000 H   0  0  0  0  0  0  0  0  0  0  0  0
    4.9748    2.7951    0.0000 H   0  0  0  0  0  0  0  0  0  0  0  0
    4.4114    3.2999    0.0000 H   0  0  0  0  0  0  0  0  0  0  0  0
    4.9722   -3.0235    0.0000 H   0  0  0  0  0  0  0  0  0  0  0  0
    5.3048   -2.2991    0.0000 H   0  0  0  0  0  0  0  0  0  0  0  0
    4.0577   -0.5402    0.0000 H   0  0  0  0  0  0  0  0  0  0  0  0
    3.2641   -0.6144    0.0000 H   0  0  0  0  0  0  0  0  0  0  0  0
    7.7879   -0.9578    0.0000 H   0  0  0  0  0  0  0  0  0  0  0  0
    3.5325   -2.5358    0.0000 H   0  0  0  0  0  0  0  0  0  0  0  0
    3.3853   -3.4001    0.0000 H   0  0  0  0  0  0  0  0  0  0  0  0
    4.2497   -3.5473    0.0000 H   0  0  0  0  0  0  0  0  0  0  0  0
    2.5307   -1.1228    0.0000 H   0  0  0  0  0  0  0  0  0  0  0  0
    2.3835   -1.9872    0.0000 H   0  0  0  0  0  0  0  0  0  0  0  0
    3.2479   -2.1344    0.0000 H   0  0  0  0  0  0  0  0  0  0  0  0
  1 12  1  0  0  0  0
  1 14  1  0  0  0  0
  2 15  1  0  0  0  0
  2 16  1  0  0  0  0
  2 17  1  0  0  0  0
  3 14  2  0  0  0  0
  3 18  1  0  0  0  0
  4 15  1  0  0  0  0
  4 18  2  0  0  0  0
  5  6  1  0  0  0  0
  5 12  2  0  0  0  0
  5 13  1  0  0  0  0
  6  7  1  0  0  0  0
  6 21  1  0  0  0  0
  6 22  1  0  0  0  0
  7  8  1  0  0  0  0
  7 23  1  0  0  0  0
  7 24  1  0  0  0  0
  8  9  1  0  0  0  0
  8 25  1  0  0  0  0
  8 26  1  0  0  0  0
  9 10  1  0  0  0  0
  9 27  1  0  0  0  0
  9 28  1  0  0  0  0
 10 11  1  0  0  0  0
 10 29  1  0  0  0  0
 10 30  1  0  0  0  0
 11 12  1  0  0  0  0
 11 31  1  0  0  0  0
 11 32  1  0  0  0  0
 13 14  1  0  0  0  0
 13 15  2  0  0  0  0
 16 19  1  0  0  0  0
 16 33  1  0  0  0  0
 16 34  1  0  0  0  0
 17 20  1  0  0  0  0
 17 35  1  0  0  0  0
 17 36  1  0  0  0  0
 18 37  1  0  0  0  0
 19 38  1  0  0  0  0
 19 39  1  0  0  0  0
 19 40  1  0  0  0  0
 20 41  1  0  0  0  0
 20 42  1  0  0  0  0
 20 43  1  0  0  0  0
M  END
> <PUBCHEM_COMPOUND_CID>
155533381

> <PUBCHEM_COMPOUND_CANONICALIZED>
1

> <PUBCHEM_CACTVS_COMPLEXITY>
308

> <PUBCHEM_CACTVS_HBOND_ACCEPTOR>
4

> <PUBCHEM_CACTVS_HBOND_DONOR>
0

> <PUBCHEM_CACTVS_ROTATABLE_BOND>
3

> <PUBCHEM_CACTVS_SUBSKEYS>
AAADceB7AABAAAAAAAAAAAAAAAAAASAAAAAsAAAAAAAYAFgB+AAAHAQAAAAADADBWgQHsdcIEAikAgJhZACD0KlxCLgB2DAoRJiIKCLg2NGEBAxogALoyCcQgMAOgAAAAAAAAAAAAAAAAAAAAAAAAAAAAA==

> <PUBCHEM_IUPAC_OPENEYE_NAME>
N,N-diethyl-8-thia-4,6-diazatricyclo[7.6.0.02,7]pentadeca-1(9),2,4,6-tetraen-3-amine

> <PUBCHEM_IUPAC_CAS_NAME>
N,N-diethyl-8-thia-4,6-diazatricyclo[7.6.0.02,7]pentadeca-1(9),2,4,6-tetraen-3-amine

> <PUBCHEM_IUPAC_NAME_MARKUP>
<I>N</I>,<I>N</I>-diethyl-8-thia-4,6-diazatricyclo[7.6.0.0<SUP>2,7</SUP>]pentadeca-1(9),2,4,6-tetraen-3-amine

> <PUBCHEM_IUPAC_NAME>
N,N-diethyl-8-thia-4,6-diazatricyclo[7.6.0.02,7]pentadeca-1(9),2,4,6-tetraen-3-amine

> <PUBCHEM_IUPAC_SYSTEMATIC_NAME>
N,N-diethyl-8-thia-4,6-diazatricyclo[7.6.0.02,7]pentadeca-1(9),2,4,6-tetraen-3-amine

> <PUBCHEM_IUPAC_TRADITIONAL_NAME>
diethyl(8-thia-4,6-diazatricyclo[7.6.0.02,7]pentadeca-1(9),2,4,6-tetraen-3-yl)amine

> <PUBCHEM_IUPAC_INCHI>
InChI=1S/C16H23N3S/c1-3-19(4-2)15-14-12-9-7-5-6-8-10-13(12)20-16(14)18-11-17-15/h11H,3-10H2,1-2H3

> <PUBCHEM_IUPAC_INCHIKEY>
CEQLJTQIIDJCLO-UHFFFAOYSA-N

> <PUBCHEM_XLOGP3_AA>
5.1

> <PUBCHEM_EXACT_MASS>
289.16126892

> <PUBCHEM_MOLECULAR_FORMULA>
C16H23N3S

> <PUBCHEM_MOLECULAR_WEIGHT>
289.4

> <PUBCHEM_OPENEYE_CAN_SMILES>
CCN(CC)C1=C2C3=C(CCCCCC3)SC2=NC=N1

> <PUBCHEM_OPENEYE_ISO_SMILES>
CCN(CC)C1=C2C3=C(CCCCCC3)SC2=NC=N1

> <PUBCHEM_CACTVS_TPSA>
57.3

> <PUBCHEM_MONOISOTOPIC_WEIGHT>
289.16126892

> <PUBCHEM_TOTAL_CHARGE>
0

> <PUBCHEM_HEAVY_ATOM_COUNT>
20

> <PUBCHEM_ATOM_DEF_STEREO_COUNT>
0

> <PUBCHEM_ATOM_UDEF_STEREO_COUNT>
0

> <PUBCHEM_BOND_DEF_STEREO_COUNT>
0

> <PUBCHEM_BOND_UDEF_STEREO_COUNT>
0

> <PUBCHEM_ISOTOPIC_ATOM_COUNT>
0

> <PUBCHEM_COMPONENT_COUNT>
1

> <PUBCHEM_CACTVS_TAUTO_COUNT>
-1

> <PUBCHEM_COORDINATE_TYPE>
1
5
255

> <PUBCHEM_BONDANNOTATIONS>
1  12  8
1  14  8
13  14  8
13  15  8
3  14  8
3  18  8
4  15  8
4  18  8
5  12  8
5  13  8

$$$$
