156016485
  -OEChem-09292322422D

 67 72  0     0  0  0  0  0  0999 V2000
    8.3001    5.2207    0.0000 S   0  0  0  0  0  0  0  0  0  0  0  0
    2.7696   -3.3509    0.0000 O   0  0  0  0  0  0  0  0  0  0  0  0
    5.3051    1.7857    0.0000 N   0  0  0  0  0  0  0  0  0  0  0  0
    2.9061   -5.1033    0.0000 N   0  0  0  0  0  0  0  0  0  0  0  0
    4.3009   -4.2136    0.0000 N   0  0  0  0  0  0  0  0  0  0  0  0
    6.4461    3.4283    0.0000 N   0  0  0  0  0  0  0  0  0  0  0  0
    8.0105    4.2697    0.0000 N   0  0  0  0  0  0  0  0  0  0  0  0
    3.8000   -5.6379    0.0000 C   0  0  0  0  0  0  0  0  0  0  0  0
    6.3016    1.7023    0.0000 C   0  0  0  0  0  0  0  0  0  0  0  0
    4.8791    2.6904    0.0000 C   0  0  0  0  0  0  0  0  0  0  0  0
    4.7345    0.9644    0.0000 C   0  0  0  0  0  0  0  0  0  0  0  0
    4.6660   -5.1379    0.0000 C   0  0  0  0  0  0  0  0  0  0  0  0
    2.0000   -5.6171    0.0000 C   0  0  0  0  0  0  0  0  0  0  0  0
    3.8000   -6.6379    0.0000 C   0  0  0  0  0  0  0  0  0  0  0  0
    2.0000   -6.6587    0.0000 C   0  0  0  0  0  0  0  0  0  0  0  0
    4.8714   -3.3923    0.0000 C   0  0  0  0  0  0  0  0  0  0  0  0
    5.1605    0.0597    0.0000 C   0  0  0  0  0  0  0  0  0  0  0  0
    6.8721    2.5235    0.0000 C   0  0  0  0  0  0  0  0  0  0  0  0
    5.4496    3.5117    0.0000 C   0  0  0  0  0  0  0  0  0  0  0  0
    2.9061   -7.1726    0.0000 C   0  0  0  0  0  0  0  0  0  0  0  0
    4.5900   -0.7616    0.0000 C   0  0  0  0  0  0  0  0  0  0  0  0
    4.4455   -2.4876    0.0000 C   0  0  0  0  0  0  0  0  0  0  0  0
    5.0160   -1.6663    0.0000 C   0  0  0  0  0  0  0  0  0  0  0  0
    3.3073   -4.1940    0.0000 C   0  0  0  0  0  0  0  0  0  0  0  0
    5.5321   -5.6379    0.0000 C   0  0  0  0  0  0  0  0  0  0  0  0
    4.6660   -7.1379    0.0000 C   0  0  0  0  0  0  0  0  0  0  0  0
    7.0166    4.2496    0.0000 C   0  0  0  0  0  0  0  0  0  0  0  0
    5.5321   -6.6379    0.0000 C   0  0  0  0  0  0  0  0  0  0  0  0
    6.6887    5.1880    0.0000 C   0  0  0  0  0  0  0  0  0  0  0  0
    7.4861    5.7914    0.0000 C   0  0  0  0  0  0  0  0  0  0  0  0
    5.7674    5.5769    0.0000 C   0  0  0  0  0  0  0  0  0  0  0  0
    7.3623    6.7837    0.0000 C   0  0  0  0  0  0  0  0  0  0  0  0
    5.6436    6.5692    0.0000 C   0  0  0  0  0  0  0  0  0  0  0  0
    6.4410    7.1726    0.0000 C   0  0  0  0  0  0  0  0  0  0  0  0
    6.1433    1.1028    0.0000 H   0  0  0  0  0  0  0  0  0  0  0  0
    6.8644    1.4423    0.0000 H   0  0  0  0  0  0  0  0  0  0  0  0
    4.4390    3.1272    0.0000 H   0  0  0  0  0  0  0  0  0  0  0  0
    4.3725    2.3329    0.0000 H   0  0  0  0  0  0  0  0  0  0  0  0
    4.2945    1.4012    0.0000 H   0  0  0  0  0  0  0  0  0  0  0  0
    4.2280    0.6069    0.0000 H   0  0  0  0  0  0  0  0  0  0  0  0
    1.7909   -5.0334    0.0000 H   0  0  0  0  0  0  0  0  0  0  0  0
    1.3891   -5.7232    0.0000 H   0  0  0  0  0  0  0  0  0  0  0  0
    1.3891   -6.5526    0.0000 H   0  0  0  0  0  0  0  0  0  0  0  0
    1.7909   -7.2424    0.0000 H   0  0  0  0  0  0  0  0  0  0  0  0
    5.6006   -0.3771    0.0000 H   0  0  0  0  0  0  0  0  0  0  0  0
    5.6671    0.4172    0.0000 H   0  0  0  0  0  0  0  0  0  0  0  0
    5.3115   -3.8291    0.0000 H   0  0  0  0  0  0  0  0  0  0  0  0
    5.3780   -3.0348    0.0000 H   0  0  0  0  0  0  0  0  0  0  0  0
    7.3121    2.0868    0.0000 H   0  0  0  0  0  0  0  0  0  0  0  0
    7.3786    2.8810    0.0000 H   0  0  0  0  0  0  0  0  0  0  0  0
    5.6078    4.1112    0.0000 H   0  0  0  0  0  0  0  0  0  0  0  0
    4.8867    3.7716    0.0000 H   0  0  0  0  0  0  0  0  0  0  0  0
    2.5124   -7.6516    0.0000 H   0  0  0  0  0  0  0  0  0  0  0  0
    3.3107   -7.6424    0.0000 H   0  0  0  0  0  0  0  0  0  0  0  0
    4.1500   -0.3248    0.0000 H   0  0  0  0  0  0  0  0  0  0  0  0
    4.0834   -1.1191    0.0000 H   0  0  0  0  0  0  0  0  0  0  0  0
    4.0054   -2.0508    0.0000 H   0  0  0  0  0  0  0  0  0  0  0  0
    3.9389   -2.8451    0.0000 H   0  0  0  0  0  0  0  0  0  0  0  0
    5.4560   -2.1031    0.0000 H   0  0  0  0  0  0  0  0  0  0  0  0
    5.5225   -1.3088    0.0000 H   0  0  0  0  0  0  0  0  0  0  0  0
    6.0690   -5.3279    0.0000 H   0  0  0  0  0  0  0  0  0  0  0  0
    4.6660   -7.7579    0.0000 H   0  0  0  0  0  0  0  0  0  0  0  0
    6.0690   -6.9479    0.0000 H   0  0  0  0  0  0  0  0  0  0  0  0
    5.2730    5.2028    0.0000 H   0  0  0  0  0  0  0  0  0  0  0  0
    7.8567    7.1578    0.0000 H   0  0  0  0  0  0  0  0  0  0  0  0
    5.0724    6.8103    0.0000 H   0  0  0  0  0  0  0  0  0  0  0  0
    6.3642    7.7878    0.0000 H   0  0  0  0  0  0  0  0  0  0  0  0
  1  7  1  0  0  0  0
  1 30  1  0  0  0  0
  2 24  2  0  0  0  0
  3  9  1  0  0  0  0
  3 10  1  0  0  0  0
  3 11  1  0  0  0  0
  4  8  1  0  0  0  0
  4 13  1  0  0  0  0
  4 24  1  0  0  0  0
  5 12  1  0  0  0  0
  5 16  1  0  0  0  0
  5 24  1  0  0  0  0
  6 18  1  0  0  0  0
  6 19  1  0  0  0  0
  6 27  1  0  0  0  0
  7 27  2  0  0  0  0
  8 12  1  0  0  0  0
  8 14  2  0  0  0  0
  9 18  1  0  0  0  0
  9 35  1  0  0  0  0
  9 36  1  0  0  0  0
 10 19  1  0  0  0  0
 10 37  1  0  0  0  0
 10 38  1  0  0  0  0
 11 17  1  0  0  0  0
 11 39  1  0  0  0  0
 11 40  1  0  0  0  0
 12 25  2  0  0  0  0
 13 15  1  0  0  0  0
 13 41  1  0  0  0  0
 13 42  1  0  0  0  0
 14 20  1  0  0  0  0
 14 26  1  0  0  0  0
 15 20  1  0  0  0  0
 15 43  1  0  0  0  0
 15 44  1  0  0  0  0
 16 22  1  0  0  0  0
 16 47  1  0  0  0  0
 16 48  1  0  0  0  0
 17 21  1  0  0  0  0
 17 45  1  0  0  0  0
 17 46  1  0  0  0  0
 18 49  1  0  0  0  0
 18 50  1  0  0  0  0
 19 51  1  0  0  0  0
 19 52  1  0  0  0  0
 20 53  1  0  0  0  0
 20 54  1  0  0  0  0
 21 23  1  0  0  0  0
 21 55  1  0  0  0  0
 21 56  1  0  0  0  0
 22 23  1  0  0  0  0
 22 57  1  0  0  0  0
 22 58  1  0  0  0  0
 23 59  1  0  0  0  0
 23 60  1  0  0  0  0
 25 28  1  0  0  0  0
 25 61  1  0  0  0  0
 26 28  2  0  0  0  0
 26 62  1  0  0  0  0
 27 29  1  0  0  0  0
 28 63  1  0  0  0  0
 29 30  1  0  0  0  0
 29 31  2  0  0  0  0
 30 32  2  0  0  0  0
 31 33  1  0  0  0  0
 31 64  1  0  0  0  0
 32 34  1  0  0  0  0
 32 65  1  0  0  0  0
 33 34  2  0  0  0  0
 33 66  1  0  0  0  0
 34 67  1  0  0  0  0
M  END
> <PUBCHEM_COMPOUND_CID>
156016485

> <PUBCHEM_COMPOUND_CANONICALIZED>
1

> <PUBCHEM_CACTVS_COMPLEXITY>
701

> <PUBCHEM_CACTVS_HBOND_ACCEPTOR>
5

> <PUBCHEM_CACTVS_HBOND_DONOR>
0

> <PUBCHEM_CACTVS_ROTATABLE_BOND>
8

> <PUBCHEM_CACTVS_SUBSKEYS>
AAADcfB7oABAAAAAAAAAAAAAAAAAAWLAAAA8eIEAAAAAAFix9AAAHgQAQAAADAjBWgQx8dMAAACsAiZicACDABAhAgBJmDgodJiIYKLAmZGUIAxohgLIyCcQgIAOAAAAQAAGACAAAACAAAwAQAAAAAAAAA==

> <PUBCHEM_IUPAC_OPENEYE_NAME>
3-[6-[4-(1,2-benzothiazol-3-yl)piperazin-1-yl]hexyl]-1,3-diazatricyclo[6.3.1.04,12]dodeca-4,6,8(12)-trien-2-one

> <PUBCHEM_IUPAC_CAS_NAME>
3-[6-[4-(1,2-benzothiazol-3-yl)-1-piperazinyl]hexyl]-1,3-diazatricyclo[6.3.1.04,12]dodeca-4,6,8(12)-trien-2-one

> <PUBCHEM_IUPAC_NAME_MARKUP>
3-[6-[4-(1,2-benzothiazol-3-yl)piperazin-1-yl]hexyl]-1,3-diazatricyclo[6.3.1.0<SUP>4,12</SUP>]dodeca-4,6,8(12)-trien-2-one

> <PUBCHEM_IUPAC_NAME>
3-[6-[4-(1,2-benzothiazol-3-yl)piperazin-1-yl]hexyl]-1,3-diazatricyclo[6.3.1.04,12]dodeca-4,6,8(12)-trien-2-one

> <PUBCHEM_IUPAC_SYSTEMATIC_NAME>
3-[6-[4-(1,2-benzothiazol-3-yl)piperazin-1-yl]hexyl]-1,3-diazatricyclo[6.3.1.04,12]dodeca-4,6,8(12)-trien-2-one

> <PUBCHEM_IUPAC_TRADITIONAL_NAME>
3-[6-[4-(1,2-benzothiazol-3-yl)piperazino]hexyl]-1,3-diazatricyclo[6.3.1.04,12]dodeca-4,6,8(12)-trien-2-one

> <PUBCHEM_IUPAC_INCHI>
InChI=1S/C27H33N5OS/c33-27-31(23-12-7-9-21-10-8-16-32(27)25(21)23)15-6-2-1-5-14-29-17-19-30(20-18-29)26-22-11-3-4-13-24(22)34-28-26/h3-4,7,9,11-13H,1-2,5-6,8,10,14-20H2

> <PUBCHEM_IUPAC_INCHIKEY>
LXNQXNYRRQSMER-UHFFFAOYSA-N

> <PUBCHEM_XLOGP3_AA>
5.1

> <PUBCHEM_EXACT_MASS>
475.24058187

> <PUBCHEM_MOLECULAR_FORMULA>
C27H33N5OS

> <PUBCHEM_MOLECULAR_WEIGHT>
475.7

> <PUBCHEM_OPENEYE_CAN_SMILES>
C1CC2=C3C(=CC=C2)N(C(=O)N3C1)CCCCCCN4CCN(CC4)C5=NSC6=CC=CC=C65

> <PUBCHEM_OPENEYE_ISO_SMILES>
C1CC2=C3C(=CC=C2)N(C(=O)N3C1)CCCCCCN4CCN(CC4)C5=NSC6=CC=CC=C65

> <PUBCHEM_CACTVS_TPSA>
71.2

> <PUBCHEM_MONOISOTOPIC_WEIGHT>
475.24058187

> <PUBCHEM_TOTAL_CHARGE>
0

> <PUBCHEM_HEAVY_ATOM_COUNT>
34

> <PUBCHEM_ATOM_DEF_STEREO_COUNT>
0

> <PUBCHEM_ATOM_UDEF_STEREO_COUNT>
0

> <PUBCHEM_BOND_DEF_STEREO_COUNT>
0

> <PUBCHEM_BOND_UDEF_STEREO_COUNT>
0

> <PUBCHEM_ISOTOPIC_ATOM_COUNT>
0

> <PUBCHEM_COMPONENT_COUNT>
1

> <PUBCHEM_CACTVS_TAUTO_COUNT>
-1

> <PUBCHEM_COORDINATE_TYPE>
1
5
255

> <PUBCHEM_BONDANNOTATIONS>
1  30  8
1  7  8
12  25  8
14  26  8
25  28  8
26  28  8
27  29  8
29  30  8
29  31  8
30  32  8
31  33  8
32  34  8
33  34  8
4  24  8
4  8  8
5  12  8
5  24  8
7  27  8
8  12  8
8  14  8

$$$$
