24768517
  -OEChem-09292322252D

 74 77  0     1  0  0  0  0  0999 V2000
    8.0622    2.4827    0.0000 O   0  0  0  0  0  0  0  0  0  0  0  0
    6.3301   -2.5173    0.0000 N   0  0  0  0  0  0  0  0  0  0  0  0
    4.5981   -3.5173    0.0000 N   0  0  0  0  0  0  0  0  0  0  0  0
    9.7942    2.4827    0.0000 N   0  0  0  0  0  0  0  0  0  0  0  0
    5.4641   -2.0173    0.0000 C   0  0  0  0  0  0  0  0  0  0  0  0
    6.3301   -3.5173    0.0000 C   0  0  0  0  0  0  0  0  0  0  0  0
    4.5981   -2.5173    0.0000 C   0  0  0  0  0  0  0  0  0  0  0  0
    5.4641   -4.0173    0.0000 C   0  0  0  0  0  0  0  0  0  0  0  0
    7.1962   -2.0173    0.0000 C   0  0  0  0  0  0  0  0  0  0  0  0
    9.7942    3.4827    0.0000 C   0  0  3  0  0  0  0  0  0  0  0  0
    8.9282    3.9827    0.0000 C   0  0  0  0  0  0  0  0  0  0  0  0
    7.1962   -1.0173    0.0000 C   0  0  0  0  0  0  0  0  0  0  0  0
    8.9282    4.9827    0.0000 C   0  0  0  0  0  0  0  0  0  0  0  0
   10.6603    3.9827    0.0000 C   0  0  0  0  0  0  0  0  0  0  0  0
    9.7942    5.4827    0.0000 C   0  0  0  0  0  0  0  0  0  0  0  0
    8.0622   -0.5173    0.0000 C   0  0  0  0  0  0  0  0  0  0  0  0
   10.6603    4.9827    0.0000 C   0  0  0  0  0  0  0  0  0  0  0  0
    3.7320   -4.0173    0.0000 C   0  0  0  0  0  0  0  0  0  0  0  0
    8.0622    0.4827    0.0000 C   0  0  0  0  0  0  0  0  0  0  0  0
    8.9282    0.9827    0.0000 C   0  0  0  0  0  0  0  0  0  0  0  0
    2.8660   -3.5173    0.0000 C   0  0  0  0  0  0  0  0  0  0  0  0
    8.9282    1.9827    0.0000 C   0  0  0  0  0  0  0  0  0  0  0  0
   11.5542    3.4480    0.0000 C   0  0  0  0  0  0  0  0  0  0  0  0
   11.5542    5.5173    0.0000 C   0  0  0  0  0  0  0  0  0  0  0  0
    3.7320   -5.0173    0.0000 C   0  0  0  0  0  0  0  0  0  0  0  0
    2.8660   -2.5173    0.0000 C   0  0  0  0  0  0  0  0  0  0  0  0
   12.4603    3.9618    0.0000 C   0  0  0  0  0  0  0  0  0  0  0  0
    2.0000   -4.0173    0.0000 C   0  0  0  0  0  0  0  0  0  0  0  0
   12.4603    5.0035    0.0000 C   0  0  0  0  0  0  0  0  0  0  0  0
    2.0000   -2.0173    0.0000 C   0  0  0  0  0  0  0  0  0  0  0  0
    2.8660   -5.5173    0.0000 C   0  0  0  0  0  0  0  0  0  0  0  0
    2.0000   -5.0173    0.0000 C   0  0  0  0  0  0  0  0  0  0  0  0
    2.0000   -1.0173    0.0000 C   0  0  0  0  0  0  0  0  0  0  0  0
    5.8626   -1.5424    0.0000 H   0  0  0  0  0  0  0  0  0  0  0  0
    5.0656   -1.5424    0.0000 H   0  0  0  0  0  0  0  0  0  0  0  0
    6.5422   -4.0999    0.0000 H   0  0  0  0  0  0  0  0  0  0  0  0
    6.9407   -3.4097    0.0000 H   0  0  0  0  0  0  0  0  0  0  0  0
    4.3860   -1.9347    0.0000 H   0  0  0  0  0  0  0  0  0  0  0  0
    3.9875   -2.6250    0.0000 H   0  0  0  0  0  0  0  0  0  0  0  0
    5.0656   -4.4923    0.0000 H   0  0  0  0  0  0  0  0  0  0  0  0
    5.8626   -4.4923    0.0000 H   0  0  0  0  0  0  0  0  0  0  0  0
    7.4082   -2.5999    0.0000 H   0  0  0  0  0  0  0  0  0  0  0  0
    7.8067   -1.9097    0.0000 H   0  0  0  0  0  0  0  0  0  0  0  0
    9.2573    3.1727    0.0000 H   0  0  0  0  0  0  0  0  0  0  0  0
    8.3176    4.0903    0.0000 H   0  0  0  0  0  0  0  0  0  0  0  0
    8.7162    3.4001    0.0000 H   0  0  0  0  0  0  0  0  0  0  0  0
    6.9841   -0.4347    0.0000 H   0  0  0  0  0  0  0  0  0  0  0  0
    6.5856   -1.1250    0.0000 H   0  0  0  0  0  0  0  0  0  0  0  0
    8.7162    5.5653    0.0000 H   0  0  0  0  0  0  0  0  0  0  0  0
    8.3176    4.8750    0.0000 H   0  0  0  0  0  0  0  0  0  0  0  0
   10.1928    5.9576    0.0000 H   0  0  0  0  0  0  0  0  0  0  0  0
    9.3957    5.9576    0.0000 H   0  0  0  0  0  0  0  0  0  0  0  0
    8.2742   -1.0999    0.0000 H   0  0  0  0  0  0  0  0  0  0  0  0
    8.6728   -0.4097    0.0000 H   0  0  0  0  0  0  0  0  0  0  0  0
    7.8501    1.0653    0.0000 H   0  0  0  0  0  0  0  0  0  0  0  0
    7.4516    0.3750    0.0000 H   0  0  0  0  0  0  0  0  0  0  0  0
   10.3312    2.1727    0.0000 H   0  0  0  0  0  0  0  0  0  0  0  0
    9.1403    0.4001    0.0000 H   0  0  0  0  0  0  0  0  0  0  0  0
    9.5388    1.0903    0.0000 H   0  0  0  0  0  0  0  0  0  0  0  0
   11.5470    2.8280    0.0000 H   0  0  0  0  0  0  0  0  0  0  0  0
   11.5470    6.1373    0.0000 H   0  0  0  0  0  0  0  0  0  0  0  0
    4.2690   -5.3273    0.0000 H   0  0  0  0  0  0  0  0  0  0  0  0
    3.4766   -2.6250    0.0000 H   0  0  0  0  0  0  0  0  0  0  0  0
    3.0781   -1.9347    0.0000 H   0  0  0  0  0  0  0  0  0  0  0  0
   12.9960    3.6498    0.0000 H   0  0  0  0  0  0  0  0  0  0  0  0
    1.4631   -3.7073    0.0000 H   0  0  0  0  0  0  0  0  0  0  0  0
   12.9960    5.3156    0.0000 H   0  0  0  0  0  0  0  0  0  0  0  0
    1.3894   -1.9097    0.0000 H   0  0  0  0  0  0  0  0  0  0  0  0
    1.7880   -2.5999    0.0000 H   0  0  0  0  0  0  0  0  0  0  0  0
    2.8660   -6.1373    0.0000 H   0  0  0  0  0  0  0  0  0  0  0  0
    1.4631   -5.3273    0.0000 H   0  0  0  0  0  0  0  0  0  0  0  0
    2.6200   -1.0173    0.0000 H   0  0  0  0  0  0  0  0  0  0  0  0
    2.0000   -0.3973    0.0000 H   0  0  0  0  0  0  0  0  0  0  0  0
    1.3800   -1.0173    0.0000 H   0  0  0  0  0  0  0  0  0  0  0  0
  1 22  2  0  0  0  0
  2  5  1  0  0  0  0
  2  6  1  0  0  0  0
  2  9  1  0  0  0  0
  3  7  1  0  0  0  0
  3  8  1  0  0  0  0
  3 18  1  0  0  0  0
  4 10  1  0  0  0  0
  4 22  1  0  0  0  0
  4 57  1  0  0  0  0
  5  7  1  0  0  0  0
  5 34  1  0  0  0  0
  5 35  1  0  0  0  0
  6  8  1  0  0  0  0
  6 36  1  0  0  0  0
  6 37  1  0  0  0  0
  7 38  1  0  0  0  0
  7 39  1  0  0  0  0
  8 40  1  0  0  0  0
  8 41  1  0  0  0  0
  9 12  1  0  0  0  0
  9 42  1  0  0  0  0
  9 43  1  0  0  0  0
 10 11  1  0  0  0  0
 10 14  1  0  0  0  0
 10 44  1  0  0  0  0
 11 13  1  0  0  0  0
 11 45  1  0  0  0  0
 11 46  1  0  0  0  0
 12 16  1  0  0  0  0
 12 47  1  0  0  0  0
 12 48  1  0  0  0  0
 13 15  1  0  0  0  0
 13 49  1  0  0  0  0
 13 50  1  0  0  0  0
 14 17  1  0  0  0  0
 14 23  2  0  0  0  0
 15 17  1  0  0  0  0
 15 51  1  0  0  0  0
 15 52  1  0  0  0  0
 16 19  1  0  0  0  0
 16 53  1  0  0  0  0
 16 54  1  0  0  0  0
 17 24  2  0  0  0  0
 18 21  1  0  0  0  0
 18 25  2  0  0  0  0
 19 20  1  0  0  0  0
 19 55  1  0  0  0  0
 19 56  1  0  0  0  0
 20 22  1  0  0  0  0
 20 58  1  0  0  0  0
 20 59  1  0  0  0  0
 21 26  1  0  0  0  0
 21 28  2  0  0  0  0
 23 27  1  0  0  0  0
 23 60  1  0  0  0  0
 24 29  1  0  0  0  0
 24 61  1  0  0  0  0
 25 31  1  0  0  0  0
 25 62  1  0  0  0  0
 26 30  1  0  0  0  0
 26 63  1  0  0  0  0
 26 64  1  0  0  0  0
 27 29  2  0  0  0  0
 27 65  1  0  0  0  0
 28 32  1  0  0  0  0
 28 66  1  0  0  0  0
 29 67  1  0  0  0  0
 30 33  1  0  0  0  0
 30 68  1  0  0  0  0
 30 69  1  0  0  0  0
 31 32  2  0  0  0  0
 31 70  1  0  0  0  0
 32 71  1  0  0  0  0
 33 72  1  0  0  0  0
 33 73  1  0  0  0  0
 33 74  1  0  0  0  0
M  END
> <PUBCHEM_COMPOUND_CID>
24768517

> <PUBCHEM_COMPOUND_CANONICALIZED>
1

> <PUBCHEM_CACTVS_COMPLEXITY>
573

> <PUBCHEM_CACTVS_HBOND_ACCEPTOR>
3

> <PUBCHEM_CACTVS_HBOND_DONOR>
1

> <PUBCHEM_CACTVS_ROTATABLE_BOND>
10

> <PUBCHEM_CACTVS_SUBSKEYS>
AAADcfB7IAAAAAAAAAAAAAAAAAAAAAAAAAA8YMEAAAAAAADBQAAAHgAQAAAADCjBmAQywIPAAACIAiVSUACCAAAhAgAIiIEIZIgIYDLAkZGUIAhglgDIyAcYiIAOgAAAAAASAAAAAACAACQAAAAAAAAAAA==

> <PUBCHEM_IUPAC_OPENEYE_NAME>
6-[4-(2-propylphenyl)piperazin-1-yl]-N-tetralin-1-yl-hexanamide

> <PUBCHEM_IUPAC_CAS_NAME>
6-[4-(2-propylphenyl)-1-piperazinyl]-N-(1,2,3,4-tetrahydronaphthalen-1-yl)hexanamide

> <PUBCHEM_IUPAC_NAME_MARKUP>
6-[4-(2-propylphenyl)piperazin-1-yl]-<I>N</I>-(1,2,3,4-tetrahydronaphthalen-1-yl)hexanamide

> <PUBCHEM_IUPAC_NAME>
6-[4-(2-propylphenyl)piperazin-1-yl]-N-(1,2,3,4-tetrahydronaphthalen-1-yl)hexanamide

> <PUBCHEM_IUPAC_SYSTEMATIC_NAME>
6-[4-(2-propylphenyl)piperazin-1-yl]-N-(1,2,3,4-tetrahydronaphthalen-1-yl)hexanamide

> <PUBCHEM_IUPAC_TRADITIONAL_NAME>
6-[4-(2-propylphenyl)piperazino]-N-tetralin-1-yl-hexanamide

> <PUBCHEM_IUPAC_INCHI>
InChI=1S/C29H41N3O/c1-2-11-25-13-6-8-17-28(25)32-22-20-31(21-23-32)19-9-3-4-18-29(33)30-27-16-10-14-24-12-5-7-15-26(24)27/h5-8,12-13,15,17,27H,2-4,9-11,14,16,18-23H2,1H3,(H,30,33)

> <PUBCHEM_IUPAC_INCHIKEY>
IIEKSILFYZPUHU-UHFFFAOYSA-N

> <PUBCHEM_XLOGP3_AA>
5.8

> <PUBCHEM_EXACT_MASS>
447.324962940

> <PUBCHEM_MOLECULAR_FORMULA>
C29H41N3O

> <PUBCHEM_MOLECULAR_WEIGHT>
447.7

> <PUBCHEM_OPENEYE_CAN_SMILES>
CCCC1=CC=CC=C1N2CCN(CC2)CCCCCC(=O)NC3CCCC4=CC=CC=C34

> <PUBCHEM_OPENEYE_ISO_SMILES>
CCCC1=CC=CC=C1N2CCN(CC2)CCCCCC(=O)NC3CCCC4=CC=CC=C34

> <PUBCHEM_CACTVS_TPSA>
35.6

> <PUBCHEM_MONOISOTOPIC_WEIGHT>
447.324962940

> <PUBCHEM_TOTAL_CHARGE>
0

> <PUBCHEM_HEAVY_ATOM_COUNT>
33

> <PUBCHEM_ATOM_DEF_STEREO_COUNT>
0

> <PUBCHEM_ATOM_UDEF_STEREO_COUNT>
1

> <PUBCHEM_BOND_DEF_STEREO_COUNT>
0

> <PUBCHEM_BOND_UDEF_STEREO_COUNT>
0

> <PUBCHEM_ISOTOPIC_ATOM_COUNT>
0

> <PUBCHEM_COMPONENT_COUNT>
1

> <PUBCHEM_CACTVS_TAUTO_COUNT>
-1

> <PUBCHEM_COORDINATE_TYPE>
1
5
255

> <PUBCHEM_BONDANNOTATIONS>
14  17  8
14  23  8
17  24  8
18  21  8
18  25  8
21  28  8
23  27  8
24  29  8
25  31  8
27  29  8
28  32  8
31  32  8
10  4  3

$$$$
