45486898
  -OEChem-09292322292D

 61 66  0     1  0  0  0  0  0999 V2000
    2.0000    1.1071    0.0000 F   0  0  0  0  0  0  0  0  0  0  0  0
   11.3875   -1.6716    0.0000 O   0  0  0  0  0  0  0  0  0  0  0  0
   12.9275   -3.2017    0.0000 O   0  0  0  0  0  0  0  0  0  0  0  0
   14.0386   -4.5877    0.0000 O   0  0  0  0  0  0  0  0  0  0  0  0
    9.3887    0.5655    0.0000 N   0  0  0  0  0  0  0  0  0  0  0  0
    4.8717    3.9677    0.0000 N   0  0  0  0  0  0  0  0  0  0  0  0
   14.5031   -2.8732    0.0000 N   0  0  0  0  0  0  0  0  0  0  0  0
    7.0772    1.8528    0.0000 C   0  0  3  0  0  0  0  0  0  0  0  0
    7.7435    1.1071    0.0000 C   0  0  0  0  0  0  0  0  0  0  0  0
    7.3991    2.8435    0.0000 C   0  0  0  0  0  0  0  0  0  0  0  0
    6.0567    1.6441    0.0000 C   0  0  0  0  0  0  0  0  0  0  0  0
    8.7224    1.3112    0.0000 C   0  0  0  0  0  0  0  0  0  0  0  0
    6.6962    3.6122    0.0000 C   0  0  0  0  0  0  0  0  0  0  0  0
    5.3717    2.4288    0.0000 C   0  0  0  0  0  0  0  0  0  0  0  0
    5.6808    3.3799    0.0000 C   0  0  0  0  0  0  0  0  0  0  0  0
    9.0760   -0.3843    0.0000 C   0  0  0  0  0  0  0  0  0  0  0  0
   10.3676    0.7697    0.0000 C   0  0  0  0  0  0  0  0  0  0  0  0
   10.7212   -0.9259    0.0000 C   0  0  0  0  0  0  0  0  0  0  0  0
    9.7423   -1.1300    0.0000 C   0  0  0  0  0  0  0  0  0  0  0  0
   11.0339    0.0239    0.0000 C   0  0  0  0  0  0  0  0  0  0  0  0
    4.3717    2.4288    0.0000 C   0  0  0  0  0  0  0  0  0  0  0  0
    4.0627    3.3799    0.0000 C   0  0  0  0  0  0  0  0  0  0  0  0
    3.6868    1.6441    0.0000 C   0  0  0  0  0  0  0  0  0  0  0  0
    3.0473    3.6122    0.0000 C   0  0  0  0  0  0  0  0  0  0  0  0
    2.6663    1.8528    0.0000 C   0  0  0  0  0  0  0  0  0  0  0  0
   12.3664   -1.4675    0.0000 C   0  0  0  0  0  0  0  0  0  0  0  0
    2.3444    2.8435    0.0000 C   0  0  0  0  0  0  0  0  0  0  0  0
   13.0327   -2.2132    0.0000 C   0  0  0  0  0  0  0  0  0  0  0  0
   12.6791   -0.5176    0.0000 C   0  0  0  0  0  0  0  0  0  0  0  0
   14.0116   -2.0091    0.0000 C   0  0  0  0  0  0  0  0  0  0  0  0
   13.6580   -0.3135    0.0000 C   0  0  0  0  0  0  0  0  0  0  0  0
   14.3243   -1.0592    0.0000 C   0  0  0  0  0  0  0  0  0  0  0  0
   13.8344   -3.6088    0.0000 C   0  0  0  0  0  0  0  0  0  0  0  0
    6.8822    1.2643    0.0000 H   0  0  0  0  0  0  0  0  0  0  0  0
    7.2164    0.7806    0.0000 H   0  0  0  0  0  0  0  0  0  0  0  0
    7.9735    0.5314    0.0000 H   0  0  0  0  0  0  0  0  0  0  0  0
    7.9473    2.5538    0.0000 H   0  0  0  0  0  0  0  0  0  0  0  0
    7.7783    3.3340    0.0000 H   0  0  0  0  0  0  0  0  0  0  0  0
    5.5267    1.3224    0.0000 H   0  0  0  0  0  0  0  0  0  0  0  0
    6.2830    1.0669    0.0000 H   0  0  0  0  0  0  0  0  0  0  0  0
    9.2495    1.6378    0.0000 H   0  0  0  0  0  0  0  0  0  0  0  0
    8.4924    1.8870    0.0000 H   0  0  0  0  0  0  0  0  0  0  0  0
    7.2186    3.9461    0.0000 H   0  0  0  0  0  0  0  0  0  0  0  0
    6.4565    4.1840    0.0000 H   0  0  0  0  0  0  0  0  0  0  0  0
    8.5297   -0.0912    0.0000 H   0  0  0  0  0  0  0  0  0  0  0  0
    8.6924   -0.8714    0.0000 H   0  0  0  0  0  0  0  0  0  0  0  0
   10.8947    1.0962    0.0000 H   0  0  0  0  0  0  0  0  0  0  0  0
   10.1376    1.3454    0.0000 H   0  0  0  0  0  0  0  0  0  0  0  0
   10.5273   -1.5148    0.0000 H   0  0  0  0  0  0  0  0  0  0  0  0
    9.2152   -1.4566    0.0000 H   0  0  0  0  0  0  0  0  0  0  0  0
    9.9723   -1.7058    0.0000 H   0  0  0  0  0  0  0  0  0  0  0  0
   11.5802   -0.2692    0.0000 H   0  0  0  0  0  0  0  0  0  0  0  0
   11.4175    0.5110    0.0000 H   0  0  0  0  0  0  0  0  0  0  0  0
    4.8717    4.5877    0.0000 H   0  0  0  0  0  0  0  0  0  0  0  0
    3.8852    1.0567    0.0000 H   0  0  0  0  0  0  0  0  0  0  0  0
    2.8626    4.2040    0.0000 H   0  0  0  0  0  0  0  0  0  0  0  0
    1.7384    2.9747    0.0000 H   0  0  0  0  0  0  0  0  0  0  0  0
   12.2660   -0.0553    0.0000 H   0  0  0  0  0  0  0  0  0  0  0  0
   13.8519    0.2754    0.0000 H   0  0  0  0  0  0  0  0  0  0  0  0
   14.9312   -0.9326    0.0000 H   0  0  0  0  0  0  0  0  0  0  0  0
   15.1193   -2.9414    0.0000 H   0  0  0  0  0  0  0  0  0  0  0  0
  1 25  1  0  0  0  0
  2 18  1  0  0  0  0
  2 26  1  0  0  0  0
  3 28  1  0  0  0  0
  3 33  1  0  0  0  0
  4 33  2  0  0  0  0
  5 12  1  0  0  0  0
  5 16  1  0  0  0  0
  5 17  1  0  0  0  0
  6 15  1  0  0  0  0
  6 22  1  0  0  0  0
  6 54  1  0  0  0  0
  7 30  1  0  0  0  0
  7 33  1  0  0  0  0
  7 61  1  0  0  0  0
  8  9  1  0  0  0  0
  8 10  1  0  0  0  0
  8 11  1  0  0  0  0
  8 34  1  0  0  0  0
  9 12  1  0  0  0  0
  9 35  1  0  0  0  0
  9 36  1  0  0  0  0
 10 13  1  0  0  0  0
 10 37  1  0  0  0  0
 10 38  1  0  0  0  0
 11 14  1  0  0  0  0
 11 39  1  0  0  0  0
 11 40  1  0  0  0  0
 12 41  1  0  0  0  0
 12 42  1  0  0  0  0
 13 15  1  0  0  0  0
 13 43  1  0  0  0  0
 13 44  1  0  0  0  0
 14 15  2  0  0  0  0
 14 21  1  0  0  0  0
 16 19  1  0  0  0  0
 16 45  1  0  0  0  0
 16 46  1  0  0  0  0
 17 20  1  0  0  0  0
 17 47  1  0  0  0  0
 17 48  1  0  0  0  0
 18 19  1  0  0  0  0
 18 20  1  0  0  0  0
 18 49  1  0  0  0  0
 19 50  1  0  0  0  0
 19 51  1  0  0  0  0
 20 52  1  0  0  0  0
 20 53  1  0  0  0  0
 21 22  2  0  0  0  0
 21 23  1  0  0  0  0
 22 24  1  0  0  0  0
 23 25  2  0  0  0  0
 23 55  1  0  0  0  0
 24 27  2  0  0  0  0
 24 56  1  0  0  0  0
 25 27  1  0  0  0  0
 26 28  1  0  0  0  0
 26 29  2  0  0  0  0
 27 57  1  0  0  0  0
 28 30  2  0  0  0  0
 29 31  1  0  0  0  0
 29 58  1  0  0  0  0
 30 32  1  0  0  0  0
 31 32  2  0  0  0  0
 31 59  1  0  0  0  0
 32 60  1  0  0  0  0
M  END
> <PUBCHEM_COMPOUND_CID>
45486898

> <PUBCHEM_COMPOUND_CANONICALIZED>
1

> <PUBCHEM_CACTVS_COMPLEXITY>
702

> <PUBCHEM_CACTVS_HBOND_ACCEPTOR>
5

> <PUBCHEM_CACTVS_HBOND_DONOR>
2

> <PUBCHEM_CACTVS_ROTATABLE_BOND>
5

> <PUBCHEM_CACTVS_SUBSKEYS>
AAADceB7MQAAAAAAAAAAAAAAAAAAAWLAAAA8YMEAAAAAAFgB9AAAHwAQAAAADRzhng4wzvPJlACoAyRiXACCiCAhIiAImSA/7JkPJuLEsZuPOirm1Bna6AeQ0MMOgAAAAgACUAAQAAQEAASgAAAAAAAAAA==

> <PUBCHEM_IUPAC_OPENEYE_NAME>
7-[[1-[2-(6-fluoro-2,3,4,9-tetrahydro-1H-carbazol-3-yl)ethyl]-4-piperidyl]oxy]-3H-1,3-benzoxazol-2-one

> <PUBCHEM_IUPAC_CAS_NAME>
7-[[1-[2-(6-fluoro-2,3,4,9-tetrahydro-1H-carbazol-3-yl)ethyl]-4-piperidinyl]oxy]-3H-1,3-benzoxazol-2-one

> <PUBCHEM_IUPAC_NAME_MARKUP>
7-[1-[2-(6-fluoro-2,3,4,9-tetrahydro-1<I>H</I>-carbazol-3-yl)ethyl]piperidin-4-yl]oxy-3<I>H</I>-1,3-benzoxazol-2-one

> <PUBCHEM_IUPAC_NAME>
7-[1-[2-(6-fluoro-2,3,4,9-tetrahydro-1H-carbazol-3-yl)ethyl]piperidin-4-yl]oxy-3H-1,3-benzoxazol-2-one

> <PUBCHEM_IUPAC_SYSTEMATIC_NAME>
7-[1-[2-(6-fluoranyl-2,3,4,9-tetrahydro-1H-carbazol-3-yl)ethyl]piperidin-4-yl]oxy-3H-1,3-benzoxazol-2-one

> <PUBCHEM_IUPAC_TRADITIONAL_NAME>
7-[[1-[2-(6-fluoro-2,3,4,9-tetrahydro-1H-carbazol-3-yl)ethyl]-4-piperidyl]oxy]-3H-1,3-benzoxazol-2-one

> <PUBCHEM_IUPAC_INCHI>
InChI=1S/C26H28FN3O3/c27-17-5-7-22-20(15-17)19-14-16(4-6-21(19)28-22)8-11-30-12-9-18(10-13-30)32-24-3-1-2-23-25(24)33-26(31)29-23/h1-3,5,7,15-16,18,28H,4,6,8-14H2,(H,29,31)

> <PUBCHEM_IUPAC_INCHIKEY>
FJOGXSUKUXQYQW-UHFFFAOYSA-N

> <PUBCHEM_XLOGP3_AA>
4.9

> <PUBCHEM_EXACT_MASS>
449.21146993

> <PUBCHEM_MOLECULAR_FORMULA>
C26H28FN3O3

> <PUBCHEM_MOLECULAR_WEIGHT>
449.5

> <PUBCHEM_OPENEYE_CAN_SMILES>
C1CC2=C(CC1CCN3CCC(CC3)OC4=CC=CC5=C4OC(=O)N5)C6=C(N2)C=CC(=C6)F

> <PUBCHEM_OPENEYE_ISO_SMILES>
C1CC2=C(CC1CCN3CCC(CC3)OC4=CC=CC5=C4OC(=O)N5)C6=C(N2)C=CC(=C6)F

> <PUBCHEM_CACTVS_TPSA>
66.6

> <PUBCHEM_MONOISOTOPIC_WEIGHT>
449.21146993

> <PUBCHEM_TOTAL_CHARGE>
0

> <PUBCHEM_HEAVY_ATOM_COUNT>
33

> <PUBCHEM_ATOM_DEF_STEREO_COUNT>
0

> <PUBCHEM_ATOM_UDEF_STEREO_COUNT>
1

> <PUBCHEM_BOND_DEF_STEREO_COUNT>
0

> <PUBCHEM_BOND_UDEF_STEREO_COUNT>
0

> <PUBCHEM_ISOTOPIC_ATOM_COUNT>
0

> <PUBCHEM_COMPONENT_COUNT>
1

> <PUBCHEM_CACTVS_TAUTO_COUNT>
-1

> <PUBCHEM_COORDINATE_TYPE>
1
5
255

> <PUBCHEM_BONDANNOTATIONS>
14  15  8
14  21  8
21  22  8
21  23  8
22  24  8
23  25  8
24  27  8
25  27  8
26  28  8
26  29  8
28  30  8
29  31  8
3  28  8
3  33  8
30  32  8
31  32  8
6  15  8
6  22  8
7  30  8
7  33  8
8  9  3

$$$$
