19938402
  -OEChem-09292322202D

 94 99  0     0  0  0  0  0  0999 V2000
    8.4487    0.4966    0.0000 O   0  0  0  0  0  0  0  0  0  0  0  0
    9.2619   -2.5907    0.0000 O   0  0  0  0  0  0  0  0  0  0  0  0
    4.2746    2.5542    0.0000 N   0  0  0  0  0  0  0  0  0  0  0  0
    4.6783   -1.7860    0.0000 N   0  0  0  0  0  0  0  0  0  0  0  0
    5.2251    3.8530    0.0000 N   0  0  0  0  0  0  0  0  0  0  0  0
    4.6783   -3.3955    0.0000 N   0  0  0  0  0  0  0  0  0  0  0  0
   11.8926    0.1226    0.0000 N   0  0  0  0  0  0  0  0  0  0  0  0
   12.2619   -4.3228    0.0000 N   0  0  0  0  0  0  0  0  0  0  0  0
    3.9639    1.6036    0.0000 C   0  0  0  0  0  0  0  0  0  0  0  0
    4.9889   -0.8355    0.0000 C   0  0  0  0  0  0  0  0  0  0  0  0
    3.6910    3.3589    0.0000 C   0  0  0  0  0  0  0  0  0  0  0  0
    3.7320   -2.0907    0.0000 C   0  0  0  0  0  0  0  0  0  0  0  0
    5.2208    2.8589    0.0000 C   0  0  0  0  0  0  0  0  0  0  0  0
    5.2619   -2.5907    0.0000 C   0  0  0  0  0  0  0  0  0  0  0  0
    4.2815    4.1659    0.0000 C   0  0  0  0  0  0  0  0  0  0  0  0
    3.7320   -3.0907    0.0000 C   0  0  0  0  0  0  0  0  0  0  0  0
    4.6318    0.8594    0.0000 C   0  0  0  0  0  0  0  0  0  0  0  0
    4.3211   -0.0912    0.0000 C   0  0  0  0  0  0  0  0  0  0  0  0
    6.0278    2.2683    0.0000 C   0  0  0  0  0  0  0  0  0  0  0  0
    6.2619   -2.5907    0.0000 C   0  0  0  0  0  0  0  0  0  0  0  0
    2.6968    3.4669    0.0000 C   0  0  0  0  0  0  0  0  0  0  0  0
    2.8660   -1.5907    0.0000 C   0  0  0  0  0  0  0  0  0  0  0  0
    3.8780    5.0808    0.0000 C   0  0  0  0  0  0  0  0  0  0  0  0
    2.8660   -3.5907    0.0000 C   0  0  0  0  0  0  0  0  0  0  0  0
    5.9198    1.2742    0.0000 C   0  0  0  0  0  0  0  0  0  0  0  0
    6.7619   -3.4568    0.0000 C   0  0  0  0  0  0  0  0  0  0  0  0
    6.9427    2.6719    0.0000 C   0  0  0  0  0  0  0  0  0  0  0  0
    6.7619   -1.7247    0.0000 C   0  0  0  0  0  0  0  0  0  0  0  0
    2.2932    4.3818    0.0000 C   0  0  0  0  0  0  0  0  0  0  0  0
    2.0000   -2.0907    0.0000 C   0  0  0  0  0  0  0  0  0  0  0  0
    2.8838    5.1888    0.0000 C   0  0  0  0  0  0  0  0  0  0  0  0
    2.0000   -3.0907    0.0000 C   0  0  0  0  0  0  0  0  0  0  0  0
    7.6417    1.0872    0.0000 C   0  0  0  0  0  0  0  0  0  0  0  0
    8.2619   -2.5907    0.0000 C   0  0  0  0  0  0  0  0  0  0  0  0
   10.1706    0.3096    0.0000 C   0  0  0  0  0  0  0  0  0  0  0  0
   10.7619   -3.4568    0.0000 C   0  0  0  0  0  0  0  0  0  0  0  0
    6.7268    0.6836    0.0000 C   0  0  0  0  0  0  0  0  0  0  0  0
    7.7619   -3.4568    0.0000 C   0  0  0  0  0  0  0  0  0  0  0  0
    7.7497    2.0813    0.0000 C   0  0  0  0  0  0  0  0  0  0  0  0
    7.7619   -1.7247    0.0000 C   0  0  0  0  0  0  0  0  0  0  0  0
   11.0856    0.7131    0.0000 C   0  0  0  0  0  0  0  0  0  0  0  0
   11.2619   -4.3228    0.0000 C   0  0  0  0  0  0  0  0  0  0  0  0
    9.3636    0.9002    0.0000 C   0  0  0  0  0  0  0  0  0  0  0  0
    9.7619   -3.4568    0.0000 C   0  0  0  0  0  0  0  0  0  0  0  0
   12.8075    0.5261    0.0000 C   0  0  0  0  0  0  0  0  0  0  0  0
   11.7846   -0.8716    0.0000 C   0  0  0  0  0  0  0  0  0  0  0  0
   12.7619   -5.1888    0.0000 C   0  0  0  0  0  0  0  0  0  0  0  0
   12.7619   -3.4568    0.0000 C   0  0  0  0  0  0  0  0  0  0  0  0
    3.4170    1.8957    0.0000 H   0  0  0  0  0  0  0  0  0  0  0  0
    3.5814    1.1158    0.0000 H   0  0  0  0  0  0  0  0  0  0  0  0
    5.5359   -1.1275    0.0000 H   0  0  0  0  0  0  0  0  0  0  0  0
    5.3715   -0.3476    0.0000 H   0  0  0  0  0  0  0  0  0  0  0  0
    5.2384    0.9872    0.0000 H   0  0  0  0  0  0  0  0  0  0  0  0
    3.7144   -0.2190    0.0000 H   0  0  0  0  0  0  0  0  0  0  0  0
    2.3306    2.9665    0.0000 H   0  0  0  0  0  0  0  0  0  0  0  0
    2.8660   -0.9707    0.0000 H   0  0  0  0  0  0  0  0  0  0  0  0
    4.2441    5.5812    0.0000 H   0  0  0  0  0  0  0  0  0  0  0  0
    2.8660   -4.2107    0.0000 H   0  0  0  0  0  0  0  0  0  0  0  0
    5.3525    1.0240    0.0000 H   0  0  0  0  0  0  0  0  0  0  0  0
    6.4519   -3.9937    0.0000 H   0  0  0  0  0  0  0  0  0  0  0  0
    7.0097    3.2883    0.0000 H   0  0  0  0  0  0  0  0  0  0  0  0
    6.4519   -1.1878    0.0000 H   0  0  0  0  0  0  0  0  0  0  0  0
    1.6769    4.4488    0.0000 H   0  0  0  0  0  0  0  0  0  0  0  0
    1.4631   -1.7807    0.0000 H   0  0  0  0  0  0  0  0  0  0  0  0
    2.6336    5.7561    0.0000 H   0  0  0  0  0  0  0  0  0  0  0  0
    1.4631   -3.4007    0.0000 H   0  0  0  0  0  0  0  0  0  0  0  0
    9.7232   -0.1196    0.0000 H   0  0  0  0  0  0  0  0  0  0  0  0
   10.5155   -0.2056    0.0000 H   0  0  0  0  0  0  0  0  0  0  0  0
   11.3445   -3.2447    0.0000 H   0  0  0  0  0  0  0  0  0  0  0  0
   10.6542   -2.8462    0.0000 H   0  0  0  0  0  0  0  0  0  0  0  0
    6.6598    0.0672    0.0000 H   0  0  0  0  0  0  0  0  0  0  0  0
    8.0719   -3.9937    0.0000 H   0  0  0  0  0  0  0  0  0  0  0  0
    8.3170    2.3315    0.0000 H   0  0  0  0  0  0  0  0  0  0  0  0
    8.0719   -1.1878    0.0000 H   0  0  0  0  0  0  0  0  0  0  0  0
   11.5331    1.1423    0.0000 H   0  0  0  0  0  0  0  0  0  0  0  0
   10.7407    1.2283    0.0000 H   0  0  0  0  0  0  0  0  0  0  0  0
   10.6793   -4.5348    0.0000 H   0  0  0  0  0  0  0  0  0  0  0  0
   11.3695   -4.9334    0.0000 H   0  0  0  0  0  0  0  0  0  0  0  0
    9.8111    1.3293    0.0000 H   0  0  0  0  0  0  0  0  0  0  0  0
    9.0187    1.4154    0.0000 H   0  0  0  0  0  0  0  0  0  0  0  0
    9.1793   -3.6688    0.0000 H   0  0  0  0  0  0  0  0  0  0  0  0
    9.8695   -4.0673    0.0000 H   0  0  0  0  0  0  0  0  0  0  0  0
   13.0577   -0.0411    0.0000 H   0  0  0  0  0  0  0  0  0  0  0  0
   13.3748    0.7763    0.0000 H   0  0  0  0  0  0  0  0  0  0  0  0
   12.5573    1.0934    0.0000 H   0  0  0  0  0  0  0  0  0  0  0  0
   11.1682   -0.8047    0.0000 H   0  0  0  0  0  0  0  0  0  0  0  0
   11.7176   -1.4880    0.0000 H   0  0  0  0  0  0  0  0  0  0  0  0
   12.4010   -0.9385    0.0000 H   0  0  0  0  0  0  0  0  0  0  0  0
   12.2249   -5.4988    0.0000 H   0  0  0  0  0  0  0  0  0  0  0  0
   13.0719   -5.7257    0.0000 H   0  0  0  0  0  0  0  0  0  0  0  0
   13.2988   -4.8788    0.0000 H   0  0  0  0  0  0  0  0  0  0  0  0
   13.2988   -3.7668    0.0000 H   0  0  0  0  0  0  0  0  0  0  0  0
   13.0719   -2.9198    0.0000 H   0  0  0  0  0  0  0  0  0  0  0  0
   12.2249   -3.1468    0.0000 H   0  0  0  0  0  0  0  0  0  0  0  0
  1 33  1  0  0  0  0
  1 43  1  0  0  0  0
  2 34  1  0  0  0  0
  2 44  1  0  0  0  0
  3  9  1  0  0  0  0
  3 11  1  0  0  0  0
  3 13  1  0  0  0  0
  4 10  1  0  0  0  0
  4 12  1  0  0  0  0
  4 14  1  0  0  0  0
  5 13  2  0  0  0  0
  5 15  1  0  0  0  0
  6 14  2  0  0  0  0
  6 16  1  0  0  0  0
  7 41  1  0  0  0  0
  7 45  1  0  0  0  0
  7 46  1  0  0  0  0
  8 42  1  0  0  0  0
  8 47  1  0  0  0  0
  8 48  1  0  0  0  0
  9 17  1  0  0  0  0
  9 49  1  0  0  0  0
  9 50  1  0  0  0  0
 10 18  1  0  0  0  0
 10 51  1  0  0  0  0
 10 52  1  0  0  0  0
 11 15  1  0  0  0  0
 11 21  2  0  0  0  0
 12 16  1  0  0  0  0
 12 22  2  0  0  0  0
 13 19  1  0  0  0  0
 14 20  1  0  0  0  0
 15 23  2  0  0  0  0
 16 24  2  0  0  0  0
 17 18  2  0  0  0  0
 17 53  1  0  0  0  0
 18 54  1  0  0  0  0
 19 25  2  0  0  0  0
 19 27  1  0  0  0  0
 20 26  2  0  0  0  0
 20 28  1  0  0  0  0
 21 29  1  0  0  0  0
 21 55  1  0  0  0  0
 22 30  1  0  0  0  0
 22 56  1  0  0  0  0
 23 31  1  0  0  0  0
 23 57  1  0  0  0  0
 24 32  1  0  0  0  0
 24 58  1  0  0  0  0
 25 37  1  0  0  0  0
 25 59  1  0  0  0  0
 26 38  1  0  0  0  0
 26 60  1  0  0  0  0
 27 39  2  0  0  0  0
 27 61  1  0  0  0  0
 28 40  2  0  0  0  0
 28 62  1  0  0  0  0
 29 31  2  0  0  0  0
 29 63  1  0  0  0  0
 30 32  2  0  0  0  0
 30 64  1  0  0  0  0
 31 65  1  0  0  0  0
 32 66  1  0  0  0  0
 33 37  2  0  0  0  0
 33 39  1  0  0  0  0
 34 38  2  0  0  0  0
 34 40  1  0  0  0  0
 35 41  1  0  0  0  0
 35 43  1  0  0  0  0
 35 67  1  0  0  0  0
 35 68  1  0  0  0  0
 36 42  1  0  0  0  0
 36 44  1  0  0  0  0
 36 69  1  0  0  0  0
 36 70  1  0  0  0  0
 37 71  1  0  0  0  0
 38 72  1  0  0  0  0
 39 73  1  0  0  0  0
 40 74  1  0  0  0  0
 41 75  1  0  0  0  0
 41 76  1  0  0  0  0
 42 77  1  0  0  0  0
 42 78  1  0  0  0  0
 43 79  1  0  0  0  0
 43 80  1  0  0  0  0
 44 81  1  0  0  0  0
 44 82  1  0  0  0  0
 45 83  1  0  0  0  0
 45 84  1  0  0  0  0
 45 85  1  0  0  0  0
 46 86  1  0  0  0  0
 46 87  1  0  0  0  0
 46 88  1  0  0  0  0
 47 89  1  0  0  0  0
 47 90  1  0  0  0  0
 47 91  1  0  0  0  0
 48 92  1  0  0  0  0
 48 93  1  0  0  0  0
 48 94  1  0  0  0  0
M  END
> <PUBCHEM_COMPOUND_CID>
19938402

> <PUBCHEM_COMPOUND_CANONICALIZED>
1

> <PUBCHEM_CACTVS_COMPLEXITY>
874

> <PUBCHEM_CACTVS_HBOND_ACCEPTOR>
6

> <PUBCHEM_CACTVS_HBOND_DONOR>
0

> <PUBCHEM_CACTVS_ROTATABLE_BOND>
16

> <PUBCHEM_CACTVS_SUBSKEYS>
AAADcfB/sAAAAAAAAAAAAAAAAAAAAWLAAAAwYMGAAAAAAFgB/gAAHgAAAAAADAzhnwYz1rcMFACgAyZiZACCiC0hMqAJ2CA+fJiMbqLEuZuWOCjuwBPI6CeQ0AIOIAAAAAAAACBAAAAAAAAAQAAAAAAAAA==

> <PUBCHEM_IUPAC_OPENEYE_NAME>
3-[4-[1-[(E)-4-[2-[4-[3-(dimethylamino)propoxy]phenyl]benzimidazol-1-yl]but-2-enyl]benzimidazol-2-yl]phenoxy]-N,N-dimethyl-propan-1-amine

> <PUBCHEM_IUPAC_CAS_NAME>
3-[4-[1-[(E)-4-[2-[4-[3-(dimethylamino)propoxy]phenyl]-1-benzimidazolyl]but-2-enyl]-2-benzimidazolyl]phenoxy]-N,N-dimethyl-1-propanamine

> <PUBCHEM_IUPAC_NAME_MARKUP>
3-[4-[1-[(<I>E</I>)-4-[2-[4-[3-(dimethylamino)propoxy]phenyl]benzimidazol-1-yl]but-2-enyl]benzimidazol-2-yl]phenoxy]-<I>N</I>,<I>N</I>-dimethylpropan-1-amine

> <PUBCHEM_IUPAC_NAME>
3-[4-[1-[(E)-4-[2-[4-[3-(dimethylamino)propoxy]phenyl]benzimidazol-1-yl]but-2-enyl]benzimidazol-2-yl]phenoxy]-N,N-dimethylpropan-1-amine

> <PUBCHEM_IUPAC_SYSTEMATIC_NAME>
3-[4-[1-[(E)-4-[2-[4-[3-(dimethylamino)propoxy]phenyl]benzimidazol-1-yl]but-2-enyl]benzimidazol-2-yl]phenoxy]-N,N-dimethyl-propan-1-amine

> <PUBCHEM_IUPAC_TRADITIONAL_NAME>
3-[4-[1-[(E)-4-[2-[4-[3-(dimethylamino)propoxy]phenyl]benzimidazol-1-yl]but-2-enyl]benzimidazol-2-yl]phenoxy]propyl-dimethyl-amine

> <PUBCHEM_IUPAC_INCHI>
InChI=1S/C40H46N6O2/c1-43(2)25-11-29-47-33-21-17-31(18-22-33)39-41-35-13-5-7-15-37(35)45(39)27-9-10-28-46-38-16-8-6-14-36(38)42-40(46)32-19-23-34(24-20-32)48-30-12-26-44(3)4/h5-10,13-24H,11-12,25-30H2,1-4H3/b10-9+

> <PUBCHEM_IUPAC_INCHIKEY>
QSZLXCAZDSBUTB-MDZDMXLPSA-N

> <PUBCHEM_XLOGP3_AA>
7.2

> <PUBCHEM_EXACT_MASS>
642.36822473

> <PUBCHEM_MOLECULAR_FORMULA>
C40H46N6O2

> <PUBCHEM_MOLECULAR_WEIGHT>
642.8

> <PUBCHEM_OPENEYE_CAN_SMILES>
CN(C)CCCOC1=CC=C(C=C1)C2=NC3=CC=CC=C3N2CC=CCN4C5=CC=CC=C5N=C4C6=CC=C(C=C6)OCCCN(C)C

> <PUBCHEM_OPENEYE_ISO_SMILES>
CN(C)CCCOC1=CC=C(C=C1)C2=NC3=CC=CC=C3N2C/C=C/CN4C5=CC=CC=C5N=C4C6=CC=C(C=C6)OCCCN(C)C

> <PUBCHEM_CACTVS_TPSA>
60.6

> <PUBCHEM_MONOISOTOPIC_WEIGHT>
642.36822473

> <PUBCHEM_TOTAL_CHARGE>
0

> <PUBCHEM_HEAVY_ATOM_COUNT>
48

> <PUBCHEM_ATOM_DEF_STEREO_COUNT>
0

> <PUBCHEM_ATOM_UDEF_STEREO_COUNT>
0

> <PUBCHEM_BOND_DEF_STEREO_COUNT>
1

> <PUBCHEM_BOND_UDEF_STEREO_COUNT>
0

> <PUBCHEM_ISOTOPIC_ATOM_COUNT>
0

> <PUBCHEM_COMPONENT_COUNT>
1

> <PUBCHEM_CACTVS_TAUTO_COUNT>
-1

> <PUBCHEM_COORDINATE_TYPE>
1
5
255

> <PUBCHEM_BONDANNOTATIONS>
11  15  8
11  21  8
12  16  8
12  22  8
15  23  8
16  24  8
19  25  8
19  27  8
20  26  8
20  28  8
21  29  8
22  30  8
23  31  8
24  32  8
25  37  8
26  38  8
27  39  8
28  40  8
29  31  8
3  11  8
3  13  8
30  32  8
33  37  8
33  39  8
34  38  8
34  40  8
4  12  8
4  14  8
5  13  8
5  15  8
6  14  8
6  16  8

$$$$
