118721287
  -OEChem-09292322472D

 52 54  0     1  0  0  0  0  0999 V2000
    7.8547    0.2638    0.0000 O   0  0  0  0  0  0  0  0  0  0  0  0
    3.0000   -0.7604    0.0000 N   0  0  3  0  0  0  0  0  0  0  0  0
    7.8547   -1.7846    0.0000 N   0  0  0  0  0  0  0  0  0  0  0  0
    4.4088    0.3631    0.0000 C   0  0  3  0  0  0  0  0  0  0  0  0
    3.4339    0.1406    0.0000 C   0  0  0  0  0  0  0  0  0  0  0  0
    5.1906   -0.2604    0.0000 C   0  0  0  0  0  0  0  0  0  0  0  0
    5.1906   -1.2604    0.0000 C   0  0  0  0  0  0  0  0  0  0  0  0
    4.4088   -1.8839    0.0000 C   0  0  0  0  0  0  0  0  0  0  0  0
    3.4339   -1.6614    0.0000 C   0  0  0  0  0  0  0  0  0  0  0  0
    4.6313    1.3380    0.0000 C   0  0  0  0  0  0  0  0  0  0  0  0
    6.0846   -1.7951    0.0000 C   0  0  0  0  0  0  0  0  0  0  0  0
    6.0846    0.2743    0.0000 C   0  0  0  0  0  0  0  0  0  0  0  0
    6.9906   -1.2812    0.0000 C   0  0  0  0  0  0  0  0  0  0  0  0
    6.9906   -0.2396    0.0000 C   0  0  0  0  0  0  0  0  0  0  0  0
    2.0000   -0.7604    0.0000 C   0  0  0  0  0  0  0  0  0  0  0  0
    5.5869    1.6328    0.0000 C   0  0  0  0  0  0  0  0  0  0  0  0
    3.8983    2.0182    0.0000 C   0  0  0  0  0  0  0  0  0  0  0  0
    7.8509   -2.7845    0.0000 C   0  0  0  0  0  0  0  0  0  0  0  0
    8.7227   -1.2879    0.0000 C   0  0  0  0  0  0  0  0  0  0  0  0
    5.8094    2.6077    0.0000 C   0  0  0  0  0  0  0  0  0  0  0  0
    4.1208    2.9931    0.0000 C   0  0  0  0  0  0  0  0  0  0  0  0
    5.0764    3.2879    0.0000 C   0  0  0  0  0  0  0  0  0  0  0  0
    8.7150   -3.2879    0.0000 C   0  0  0  0  0  0  0  0  0  0  0  0
    9.5868   -1.7912    0.0000 C   0  0  0  0  0  0  0  0  0  0  0  0
    3.9704    0.8015    0.0000 H   0  0  0  0  0  0  0  0  0  0  0  0
    3.4339    0.7606    0.0000 H   0  0  0  0  0  0  0  0  0  0  0  0
    2.8294    0.2785    0.0000 H   0  0  0  0  0  0  0  0  0  0  0  0
    4.1398   -2.4425    0.0000 H   0  0  0  0  0  0  0  0  0  0  0  0
    4.8936   -2.2704    0.0000 H   0  0  0  0  0  0  0  0  0  0  0  0
    2.8294   -1.7993    0.0000 H   0  0  0  0  0  0  0  0  0  0  0  0
    3.4339   -2.2814    0.0000 H   0  0  0  0  0  0  0  0  0  0  0  0
    6.0774   -2.4150    0.0000 H   0  0  0  0  0  0  0  0  0  0  0  0
    6.0774    0.8942    0.0000 H   0  0  0  0  0  0  0  0  0  0  0  0
    2.0000   -0.1404    0.0000 H   0  0  0  0  0  0  0  0  0  0  0  0
    1.3800   -0.7604    0.0000 H   0  0  0  0  0  0  0  0  0  0  0  0
    2.0000   -1.3804    0.0000 H   0  0  0  0  0  0  0  0  0  0  0  0
    6.0414    1.2111    0.0000 H   0  0  0  0  0  0  0  0  0  0  0  0
    3.3058    1.8354    0.0000 H   0  0  0  0  0  0  0  0  0  0  0  0
    7.2407   -2.6745    0.0000 H   0  0  0  0  0  0  0  0  0  0  0  0
    7.6366   -3.3663    0.0000 H   0  0  0  0  0  0  0  0  0  0  0  0
    9.1230   -0.8145    0.0000 H   0  0  0  0  0  0  0  0  0  0  0  0
    8.3260   -0.8114    0.0000 H   0  0  0  0  0  0  0  0  0  0  0  0
    6.4019    2.7904    0.0000 H   0  0  0  0  0  0  0  0  0  0  0  0
    3.6663    3.4148    0.0000 H   0  0  0  0  0  0  0  0  0  0  0  0
    7.8524    0.8837    0.0000 H   0  0  0  0  0  0  0  0  0  0  0  0
    5.2143    3.8923    0.0000 H   0  0  0  0  0  0  0  0  0  0  0  0
    8.4029   -3.8236    0.0000 H   0  0  0  0  0  0  0  0  0  0  0  0
    9.2507   -3.5999    0.0000 H   0  0  0  0  0  0  0  0  0  0  0  0
    9.0270   -2.7521    0.0000 H   0  0  0  0  0  0  0  0  0  0  0  0
    9.2747   -2.3270    0.0000 H   0  0  0  0  0  0  0  0  0  0  0  0
   10.1225   -2.1033    0.0000 H   0  0  0  0  0  0  0  0  0  0  0  0
    9.8988   -1.2555    0.0000 H   0  0  0  0  0  0  0  0  0  0  0  0
  1 14  1  0  0  0  0
  1 45  1  0  0  0  0
  2  5  1  0  0  0  0
  2  9  1  0  0  0  0
  2 15  1  0  0  0  0
  3 13  1  0  0  0  0
  3 18  1  0  0  0  0
  3 19  1  0  0  0  0
  4  5  1  0  0  0  0
  4  6  1  0  0  0  0
  4 10  1  0  0  0  0
  4 25  1  0  0  0  0
  5 26  1  0  0  0  0
  5 27  1  0  0  0  0
  6  7  1  0  0  0  0
  6 12  2  0  0  0  0
  7  8  1  0  0  0  0
  7 11  2  0  0  0  0
  8  9  1  0  0  0  0
  8 28  1  0  0  0  0
  8 29  1  0  0  0  0
  9 30  1  0  0  0  0
  9 31  1  0  0  0  0
 10 16  2  0  0  0  0
 10 17  1  0  0  0  0
 11 13  1  0  0  0  0
 11 32  1  0  0  0  0
 12 14  1  0  0  0  0
 12 33  1  0  0  0  0
 13 14  2  0  0  0  0
 15 34  1  0  0  0  0
 15 35  1  0  0  0  0
 15 36  1  0  0  0  0
 16 20  1  0  0  0  0
 16 37  1  0  0  0  0
 17 21  2  0  0  0  0
 17 38  1  0  0  0  0
 18 23  1  0  0  0  0
 18 39  1  0  0  0  0
 18 40  1  0  0  0  0
 19 24  1  0  0  0  0
 19 41  1  0  0  0  0
 19 42  1  0  0  0  0
 20 22  2  0  0  0  0
 20 43  1  0  0  0  0
 21 22  1  0  0  0  0
 21 44  1  0  0  0  0
 22 46  1  0  0  0  0
 23 47  1  0  0  0  0
 23 48  1  0  0  0  0
 23 49  1  0  0  0  0
 24 50  1  0  0  0  0
 24 51  1  0  0  0  0
 24 52  1  0  0  0  0
M  END
> <PUBCHEM_COMPOUND_CID>
118721287

> <PUBCHEM_COMPOUND_CANONICALIZED>
1

> <PUBCHEM_CACTVS_COMPLEXITY>
378

> <PUBCHEM_CACTVS_HBOND_ACCEPTOR>
3

> <PUBCHEM_CACTVS_HBOND_DONOR>
1

> <PUBCHEM_CACTVS_ROTATABLE_BOND>
4

> <PUBCHEM_CACTVS_SUBSKEYS>
AAADceB7IAAAAAAAAAAAAAAAAAAAAAAAAAAwYAAABYAAAAABQAAAHgAACAAADQzBmAQyxoMAAgCAAiRCQACCAAAhIgAIiAAPbIgKJiLSkZOEcAhkwBHY2AeQ0PIOqAABQAAQEABQAAKAACAgAAAAAAAAAA==

> <PUBCHEM_IUPAC_OPENEYE_NAME>
8-(diethylamino)-3-methyl-5-phenyl-1,2,4,5-tetrahydro-3-benzazepin-7-ol

> <PUBCHEM_IUPAC_CAS_NAME>
8-(diethylamino)-3-methyl-5-phenyl-1,2,4,5-tetrahydro-3-benzazepin-7-ol

> <PUBCHEM_IUPAC_NAME_MARKUP>
8-(diethylamino)-3-methyl-5-phenyl-1,2,4,5-tetrahydro-3-benzazepin-7-ol

> <PUBCHEM_IUPAC_NAME>
8-(diethylamino)-3-methyl-5-phenyl-1,2,4,5-tetrahydro-3-benzazepin-7-ol

> <PUBCHEM_IUPAC_SYSTEMATIC_NAME>
8-(diethylamino)-3-methyl-5-phenyl-1,2,4,5-tetrahydro-3-benzazepin-7-ol

> <PUBCHEM_IUPAC_TRADITIONAL_NAME>
8-(diethylamino)-3-methyl-5-phenyl-1,2,4,5-tetrahydro-3-benzazepin-7-ol

> <PUBCHEM_IUPAC_INCHI>
InChI=1S/C21H28N2O/c1-4-23(5-2)20-13-17-11-12-22(3)15-19(18(17)14-21(20)24)16-9-7-6-8-10-16/h6-10,13-14,19,24H,4-5,11-12,15H2,1-3H3

> <PUBCHEM_IUPAC_INCHIKEY>
FJFGTZQHFSUNCX-UHFFFAOYSA-N

> <PUBCHEM_XLOGP3_AA>
4.2

> <PUBCHEM_EXACT_MASS>
324.220163521

> <PUBCHEM_MOLECULAR_FORMULA>
C21H28N2O

> <PUBCHEM_MOLECULAR_WEIGHT>
324.5

> <PUBCHEM_OPENEYE_CAN_SMILES>
CCN(CC)C1=C(C=C2C(CN(CCC2=C1)C)C3=CC=CC=C3)O

> <PUBCHEM_OPENEYE_ISO_SMILES>
CCN(CC)C1=C(C=C2C(CN(CCC2=C1)C)C3=CC=CC=C3)O

> <PUBCHEM_CACTVS_TPSA>
26.7

> <PUBCHEM_MONOISOTOPIC_WEIGHT>
324.220163521

> <PUBCHEM_TOTAL_CHARGE>
0

> <PUBCHEM_HEAVY_ATOM_COUNT>
24

> <PUBCHEM_ATOM_DEF_STEREO_COUNT>
0

> <PUBCHEM_ATOM_UDEF_STEREO_COUNT>
1

> <PUBCHEM_BOND_DEF_STEREO_COUNT>
0

> <PUBCHEM_BOND_UDEF_STEREO_COUNT>
0

> <PUBCHEM_ISOTOPIC_ATOM_COUNT>
0

> <PUBCHEM_COMPONENT_COUNT>
1

> <PUBCHEM_CACTVS_TAUTO_COUNT>
-1

> <PUBCHEM_COORDINATE_TYPE>
1
5
255

> <PUBCHEM_BONDANNOTATIONS>
10  16  8
10  17  8
11  13  8
12  14  8
13  14  8
16  20  8
17  21  8
20  22  8
21  22  8
4  10  3
6  12  8
6  7  8
7  11  8

$$$$
