118725995
  -OEChem-09292321592D

 96101  0     1  0  0  0  0  0999 V2000
    2.5118   -2.0009    0.0000 O   0  0  0  0  0  0  0  0  0  0  0  0
   12.0039    1.4400    0.0000 O   0  0  0  0  0  0  0  0  0  0  0  0
   16.3341   -0.0600    0.0000 O   0  0  0  0  0  0  0  0  0  0  0  0
   15.4680    1.4400    0.0000 O   0  0  0  0  0  0  0  0  0  0  0  0
   27.2459    1.7490    0.0000 O   0  0  0  0  0  0  0  0  0  0  0  0
    7.6738   -0.0600    0.0000 N   0  0  3  0  0  0  0  0  0  0  0  0
    2.6067   -0.2271    0.0000 N   0  0  0  0  0  0  0  0  0  0  0  0
   11.1379   -0.0600    0.0000 N   0  0  0  0  0  0  0  0  0  0  0  0
   21.5302    1.9400    0.0000 N   0  0  0  0  0  0  0  0  0  0  0  0
   24.1283    0.4400    0.0000 N   0  0  0  0  0  0  0  0  0  0  0  0
   23.2623    1.9400    0.0000 N   0  0  0  0  0  0  0  0  0  0  0  0
   22.3962    0.4400    0.0000 N   0  0  0  0  0  0  0  0  0  0  0  0
   25.0745    0.1353    0.0000 N   0  0  0  0  0  0  0  0  0  0  0  0
   25.0745    1.7447    0.0000 N   0  0  0  0  0  0  0  0  0  0  0  0
   23.2623   -1.0600    0.0000 N   0  0  0  0  0  0  0  0  0  0  0  0
    6.8078    0.4400    0.0000 C   0  0  0  0  0  0  0  0  0  0  0  0
    5.9418   -0.0600    0.0000 C   0  0  0  0  0  0  0  0  0  0  0  0
    8.5398    0.4400    0.0000 C   0  0  0  0  0  0  0  0  0  0  0  0
    5.0757    0.4400    0.0000 C   0  0  0  0  0  0  0  0  0  0  0  0
    7.6738   -1.0600    0.0000 C   0  0  0  0  0  0  0  0  0  0  0  0
    4.2097   -0.0600    0.0000 C   0  0  0  0  0  0  0  0  0  0  0  0
    9.4059   -0.0600    0.0000 C   0  0  0  0  0  0  0  0  0  0  0  0
    4.0005   -1.0318    0.0000 C   0  0  0  0  0  0  0  0  0  0  0  0
    3.3437    0.4400    0.0000 C   0  0  0  0  0  0  0  0  0  0  0  0
    6.8078   -1.5600    0.0000 C   0  0  0  0  0  0  0  0  0  0  0  0
   10.2719    0.4400    0.0000 C   0  0  0  0  0  0  0  0  0  0  0  0
    5.0757    1.4400    0.0000 C   0  0  0  0  0  0  0  0  0  0  0  0
    3.0118   -1.1349    0.0000 C   0  0  0  0  0  0  0  0  0  0  0  0
    3.3437    1.4400    0.0000 C   0  0  0  0  0  0  0  0  0  0  0  0
    4.2097    1.9400    0.0000 C   0  0  0  0  0  0  0  0  0  0  0  0
    6.8078   -2.5600    0.0000 C   0  0  0  0  0  0  0  0  0  0  0  0
   12.0039    0.4400    0.0000 C   0  0  0  0  0  0  0  0  0  0  0  0
   12.8700   -0.0600    0.0000 C   0  0  0  0  0  0  0  0  0  0  0  0
   13.7360    0.4400    0.0000 C   0  0  0  0  0  0  0  0  0  0  0  0
   14.6020   -0.0600    0.0000 C   0  0  0  0  0  0  0  0  0  0  0  0
   15.4680    0.4400    0.0000 C   0  0  0  0  0  0  0  0  0  0  0  0
   19.7982    1.9400    0.0000 C   0  0  0  0  0  0  0  0  0  0  0  0
   18.9321    1.4400    0.0000 C   0  0  0  0  0  0  0  0  0  0  0  0
   20.6642    1.4400    0.0000 C   0  0  0  0  0  0  0  0  0  0  0  0
   17.2001    0.4400    0.0000 C   0  0  0  0  0  0  0  0  0  0  0  0
   18.0661    1.9400    0.0000 C   0  0  0  0  0  0  0  0  0  0  0  0
   18.9321    0.4400    0.0000 C   0  0  0  0  0  0  0  0  0  0  0  0
   17.2001    1.4400    0.0000 C   0  0  0  0  0  0  0  0  0  0  0  0
   18.0661   -0.0600    0.0000 C   0  0  0  0  0  0  0  0  0  0  0  0
   22.3962    1.4400    0.0000 C   0  0  0  0  0  0  0  0  0  0  0  0
   24.1283    1.4400    0.0000 C   0  0  0  0  0  0  0  0  0  0  0  0
   23.2623   -0.0600    0.0000 C   0  0  0  0  0  0  0  0  0  0  0  0
   25.6581    0.9400    0.0000 C   0  0  0  0  0  0  0  0  0  0  0  0
   26.6581    0.9400    0.0000 C   0  0  0  0  0  0  0  0  0  0  0  0
   27.2459    0.1310    0.0000 C   0  0  0  0  0  0  0  0  0  0  0  0
   28.1970    0.4400    0.0000 C   0  0  0  0  0  0  0  0  0  0  0  0
   28.1970    1.4400    0.0000 C   0  0  0  0  0  0  0  0  0  0  0  0
    7.2063    0.9149    0.0000 H   0  0  0  0  0  0  0  0  0  0  0  0
    6.4093    0.9149    0.0000 H   0  0  0  0  0  0  0  0  0  0  0  0
    5.5432   -0.5349    0.0000 H   0  0  0  0  0  0  0  0  0  0  0  0
    6.3403   -0.5349    0.0000 H   0  0  0  0  0  0  0  0  0  0  0  0
    8.9384    0.9149    0.0000 H   0  0  0  0  0  0  0  0  0  0  0  0
    8.1413    0.9149    0.0000 H   0  0  0  0  0  0  0  0  0  0  0  0
    7.8859   -1.6426    0.0000 H   0  0  0  0  0  0  0  0  0  0  0  0
    8.2844   -0.9523    0.0000 H   0  0  0  0  0  0  0  0  0  0  0  0
    9.0073   -0.5349    0.0000 H   0  0  0  0  0  0  0  0  0  0  0  0
    9.8044   -0.5349    0.0000 H   0  0  0  0  0  0  0  0  0  0  0  0
    3.9996   -1.6518    0.0000 H   0  0  0  0  0  0  0  0  0  0  0  0
    4.6170   -1.0979    0.0000 H   0  0  0  0  0  0  0  0  0  0  0  0
    6.5957   -0.9774    0.0000 H   0  0  0  0  0  0  0  0  0  0  0  0
    6.1972   -1.6677    0.0000 H   0  0  0  0  0  0  0  0  0  0  0  0
   10.6704    0.9149    0.0000 H   0  0  0  0  0  0  0  0  0  0  0  0
    9.8734    0.9149    0.0000 H   0  0  0  0  0  0  0  0  0  0  0  0
    5.6127    1.7500    0.0000 H   0  0  0  0  0  0  0  0  0  0  0  0
    2.0000   -0.0992    0.0000 H   0  0  0  0  0  0  0  0  0  0  0  0
    2.8068    1.7500    0.0000 H   0  0  0  0  0  0  0  0  0  0  0  0
    4.2097    2.5600    0.0000 H   0  0  0  0  0  0  0  0  0  0  0  0
    6.1878   -2.5600    0.0000 H   0  0  0  0  0  0  0  0  0  0  0  0
    6.8078   -3.1800    0.0000 H   0  0  0  0  0  0  0  0  0  0  0  0
    7.4278   -2.5600    0.0000 H   0  0  0  0  0  0  0  0  0  0  0  0
   11.1379   -0.6800    0.0000 H   0  0  0  0  0  0  0  0  0  0  0  0
   12.4714   -0.5349    0.0000 H   0  0  0  0  0  0  0  0  0  0  0  0
   13.2685   -0.5349    0.0000 H   0  0  0  0  0  0  0  0  0  0  0  0
   14.1345    0.9149    0.0000 H   0  0  0  0  0  0  0  0  0  0  0  0
   13.3375    0.9149    0.0000 H   0  0  0  0  0  0  0  0  0  0  0  0
   14.2035   -0.5349    0.0000 H   0  0  0  0  0  0  0  0  0  0  0  0
   15.0005   -0.5349    0.0000 H   0  0  0  0  0  0  0  0  0  0  0  0
   20.1967    2.4150    0.0000 H   0  0  0  0  0  0  0  0  0  0  0  0
   19.3996    2.4150    0.0000 H   0  0  0  0  0  0  0  0  0  0  0  0
   20.2657    0.9651    0.0000 H   0  0  0  0  0  0  0  0  0  0  0  0
   21.0627    0.9651    0.0000 H   0  0  0  0  0  0  0  0  0  0  0  0
   18.0661    2.5600    0.0000 H   0  0  0  0  0  0  0  0  0  0  0  0
   19.4691    0.1300    0.0000 H   0  0  0  0  0  0  0  0  0  0  0  0
   16.6632    1.7500    0.0000 H   0  0  0  0  0  0  0  0  0  0  0  0
   18.0661   -0.6800    0.0000 H   0  0  0  0  0  0  0  0  0  0  0  0
   21.5302    2.5600    0.0000 H   0  0  0  0  0  0  0  0  0  0  0  0
   22.7253   -1.3700    0.0000 H   0  0  0  0  0  0  0  0  0  0  0  0
   23.7992   -1.3700    0.0000 H   0  0  0  0  0  0  0  0  0  0  0  0
   27.0543   -0.4587    0.0000 H   0  0  0  0  0  0  0  0  0  0  0  0
   28.6986    0.0756    0.0000 H   0  0  0  0  0  0  0  0  0  0  0  0
   28.6986    1.8044    0.0000 H   0  0  0  0  0  0  0  0  0  0  0  0
  1 28  2  0  0  0  0
  2 32  2  0  0  0  0
  3 36  1  0  0  0  0
  3 40  1  0  0  0  0
  4 36  2  0  0  0  0
  5 49  1  0  0  0  0
  5 52  1  0  0  0  0
  6 16  1  0  0  0  0
  6 18  1  0  0  0  0
  6 20  1  0  0  0  0
  7 24  1  0  0  0  0
  7 28  1  0  0  0  0
  7 70  1  0  0  0  0
  8 26  1  0  0  0  0
  8 32  1  0  0  0  0
  8 76  1  0  0  0  0
  9 39  1  0  0  0  0
  9 45  1  0  0  0  0
  9 91  1  0  0  0  0
 10 13  1  0  0  0  0
 10 46  1  0  0  0  0
 10 47  1  0  0  0  0
 11 45  2  0  0  0  0
 11 46  1  0  0  0  0
 12 45  1  0  0  0  0
 12 47  2  0  0  0  0
 13 48  2  0  0  0  0
 14 46  2  0  0  0  0
 14 48  1  0  0  0  0
 15 47  1  0  0  0  0
 15 92  1  0  0  0  0
 15 93  1  0  0  0  0
 16 17  1  0  0  0  0
 16 53  1  0  0  0  0
 16 54  1  0  0  0  0
 17 19  1  0  0  0  0
 17 55  1  0  0  0  0
 17 56  1  0  0  0  0
 18 22  1  0  0  0  0
 18 57  1  0  0  0  0
 18 58  1  0  0  0  0
 19 21  2  0  0  0  0
 19 27  1  0  0  0  0
 20 25  1  0  0  0  0
 20 59  1  0  0  0  0
 20 60  1  0  0  0  0
 21 23  1  0  0  0  0
 21 24  1  0  0  0  0
 22 26  1  0  0  0  0
 22 61  1  0  0  0  0
 22 62  1  0  0  0  0
 23 28  1  0  0  0  0
 23 63  1  0  0  0  0
 23 64  1  0  0  0  0
 24 29  2  0  0  0  0
 25 31  1  0  0  0  0
 25 65  1  0  0  0  0
 25 66  1  0  0  0  0
 26 67  1  0  0  0  0
 26 68  1  0  0  0  0
 27 30  2  0  0  0  0
 27 69  1  0  0  0  0
 29 30  1  0  0  0  0
 29 71  1  0  0  0  0
 30 72  1  0  0  0  0
 31 73  1  0  0  0  0
 31 74  1  0  0  0  0
 31 75  1  0  0  0  0
 32 33  1  0  0  0  0
 33 34  1  0  0  0  0
 33 77  1  0  0  0  0
 33 78  1  0  0  0  0
 34 35  1  0  0  0  0
 34 79  1  0  0  0  0
 34 80  1  0  0  0  0
 35 36  1  0  0  0  0
 35 81  1  0  0  0  0
 35 82  1  0  0  0  0
 37 38  1  0  0  0  0
 37 39  1  0  0  0  0
 37 83  1  0  0  0  0
 37 84  1  0  0  0  0
 38 41  2  0  0  0  0
 38 42  1  0  0  0  0
 39 85  1  0  0  0  0
 39 86  1  0  0  0  0
 40 43  2  0  0  0  0
 40 44  1  0  0  0  0
 41 43  1  0  0  0  0
 41 87  1  0  0  0  0
 42 44  2  0  0  0  0
 42 88  1  0  0  0  0
 43 89  1  0  0  0  0
 44 90  1  0  0  0  0
 48 49  1  0  0  0  0
 49 50  2  0  0  0  0
 50 51  1  0  0  0  0
 50 94  1  0  0  0  0
 51 52  2  0  0  0  0
 51 95  1  0  0  0  0
 52 96  1  0  0  0  0
M  END
> <PUBCHEM_COMPOUND_CID>
118725995

> <PUBCHEM_COMPOUND_CANONICALIZED>
1

> <PUBCHEM_CACTVS_COMPLEXITY>
1140

> <PUBCHEM_CACTVS_HBOND_ACCEPTOR>
12

> <PUBCHEM_CACTVS_HBOND_DONOR>
4

> <PUBCHEM_CACTVS_ROTATABLE_BOND>
20

> <PUBCHEM_CACTVS_SUBSKEYS>
AAADcfB/+AAAAAAAAAAAAAAAAAAAAWLEgAA8YIAAAAAAAFgB/AAAHgAYAAAADAzhmwYz3ofIFECqAq/y/ASSiAsnIqAdiKGubNiOLrLE/buHOyj83hPY6Yec34KOoAAAQAASAABAAACAACQAAAAAAAAAAA==

> <PUBCHEM_IUPAC_OPENEYE_NAME>
[4-[2-[[7-amino-2-(2-furyl)-[1,2,4]triazolo[1,5-a][1,3,5]triazin-5-yl]amino]ethyl]phenyl] 5-oxo-5-[3-[2-(2-oxoindolin-4-yl)ethyl-propyl-amino]propylamino]pentanoate

> <PUBCHEM_IUPAC_CAS_NAME>
5-oxo-5-[3-[2-(2-oxo-1,3-dihydroindol-4-yl)ethyl-propylamino]propylamino]pentanoic acid [4-[2-[[7-amino-2-(2-furanyl)-[1,2,4]triazolo[1,5-a][1,3,5]triazin-5-yl]amino]ethyl]phenyl] ester

> <PUBCHEM_IUPAC_NAME_MARKUP>
[4-[2-[[7-amino-2-(furan-2-yl)-[1,2,4]triazolo[1,5-a][1,3,5]triazin-5-yl]amino]ethyl]phenyl] 5-oxo-5-[3-[2-(2-oxo-1,3-dihydroindol-4-yl)ethyl-propylamino]propylamino]pentanoate

> <PUBCHEM_IUPAC_NAME>
[4-[2-[[7-amino-2-(furan-2-yl)-[1,2,4]triazolo[1,5-a][1,3,5]triazin-5-yl]amino]ethyl]phenyl] 5-oxo-5-[3-[2-(2-oxo-1,3-dihydroindol-4-yl)ethyl-propylamino]propylamino]pentanoate

> <PUBCHEM_IUPAC_SYSTEMATIC_NAME>
[4-[2-[[7-azanyl-2-(furan-2-yl)-[1,2,4]triazolo[1,5-a][1,3,5]triazin-5-yl]amino]ethyl]phenyl] 5-oxidanylidene-5-[3-[2-(2-oxidanylidene-1,3-dihydroindol-4-yl)ethyl-propyl-amino]propylamino]pentanoate

> <PUBCHEM_IUPAC_TRADITIONAL_NAME>
5-keto-5-[3-[2-(2-ketoindolin-4-yl)ethyl-propyl-amino]propylamino]valeric acid [4-[2-[[7-amino-2-(2-furyl)-[1,2,4]triazolo[1,5-a][1,3,5]triazin-5-yl]amino]ethyl]phenyl] ester

> <PUBCHEM_IUPAC_INCHI>
InChI=1S/C37H44N10O5/c1-2-20-46(22-17-26-7-3-8-29-28(26)24-32(49)41-29)21-6-18-39-31(48)10-4-11-33(50)52-27-14-12-25(13-15-27)16-19-40-36-43-35(38)47-37(44-36)42-34(45-47)30-9-5-23-51-30/h3,5,7-9,12-15,23H,2,4,6,10-11,16-22,24H2,1H3,(H,39,48)(H,41,49)(H3,38,40,42,43,44,45)

> <PUBCHEM_IUPAC_INCHIKEY>
MCVRJCMPRFQPOR-UHFFFAOYSA-N

> <PUBCHEM_XLOGP3_AA>
3.9

> <PUBCHEM_EXACT_MASS>
708.34961454

> <PUBCHEM_MOLECULAR_FORMULA>
C37H44N10O5

> <PUBCHEM_MOLECULAR_WEIGHT>
708.8

> <PUBCHEM_OPENEYE_CAN_SMILES>
CCCN(CCCNC(=O)CCCC(=O)OC1=CC=C(C=C1)CCNC2=NC3=NC(=NN3C(=N2)N)C4=CC=CO4)CCC5=C6CC(=O)NC6=CC=C5

> <PUBCHEM_OPENEYE_ISO_SMILES>
CCCN(CCCNC(=O)CCCC(=O)OC1=CC=C(C=C1)CCNC2=NC3=NC(=NN3C(=N2)N)C4=CC=CO4)CCC5=C6CC(=O)NC6=CC=C5

> <PUBCHEM_CACTVS_TPSA>
195

> <PUBCHEM_MONOISOTOPIC_WEIGHT>
708.34961454

> <PUBCHEM_TOTAL_CHARGE>
0

> <PUBCHEM_HEAVY_ATOM_COUNT>
52

> <PUBCHEM_ATOM_DEF_STEREO_COUNT>
0

> <PUBCHEM_ATOM_UDEF_STEREO_COUNT>
0

> <PUBCHEM_BOND_DEF_STEREO_COUNT>
0

> <PUBCHEM_BOND_UDEF_STEREO_COUNT>
0

> <PUBCHEM_ISOTOPIC_ATOM_COUNT>
0

> <PUBCHEM_COMPONENT_COUNT>
1

> <PUBCHEM_CACTVS_TAUTO_COUNT>
-1

> <PUBCHEM_COORDINATE_TYPE>
1
5
255

> <PUBCHEM_BONDANNOTATIONS>
10  13  8
10  46  8
10  47  8
11  45  8
11  46  8
12  45  8
12  47  8
13  48  8
14  46  8
14  48  8
19  21  8
19  27  8
21  24  8
24  29  8
27  30  8
29  30  8
38  41  8
38  42  8
40  43  8
40  44  8
41  43  8
42  44  8
49  50  8
5  49  8
5  52  8
50  51  8
51  52  8

$$$$
