44454247
  -OEChem-09292322492D

 63 68  0     1  0  0  0  0  0999 V2000
    6.2960   -4.6144    0.0000 Br  0  0  0  0  0  0  0  0  0  0  0  0
    6.5723    1.5961    0.0000 S   0  0  0  0  0  0  0  0  0  0  0  0
    2.3660   -7.4214    0.0000 F   0  0  0  0  0  0  0  0  0  0  0  0
    2.0000   -6.0554    0.0000 F   0  0  0  0  0  0  0  0  0  0  0  0
    3.7320   -7.0554    0.0000 F   0  0  0  0  0  0  0  0  0  0  0  0
    4.3548   -5.5863    0.0000 O   0  0  0  0  0  0  0  0  0  0  0  0
    6.0723   -1.0020    0.0000 N   0  0  3  0  0  0  0  0  0  0  0  0
    2.9609   -4.7815    0.0000 N   0  0  0  0  0  0  0  0  0  0  0  0
    6.4790    3.3757    0.0000 N   0  0  0  0  0  0  0  0  0  0  0  0
    5.0777    2.5666    0.0000 N   0  0  0  0  0  0  0  0  0  0  0  0
    4.8698    3.5448    0.0000 N   0  0  0  0  0  0  0  0  0  0  0  0
    4.3027    7.2468    0.0000 N   0  0  0  0  0  0  0  0  0  0  0  0
    6.6258   -1.8116    0.0000 C   0  0  0  0  0  0  0  0  0  0  0  0
    5.0943   -0.9274    0.0000 C   0  0  0  0  0  0  0  0  0  0  0  0
    6.3405   -2.7500    0.0000 C   0  0  0  0  0  0  0  0  0  0  0  0
    4.4243   -1.6436    0.0000 C   0  0  0  0  0  0  0  0  0  0  0  0
    5.4300   -3.1144    0.0000 C   0  0  0  0  0  0  0  0  0  0  0  0
    4.5640   -2.6144    0.0000 C   0  0  0  0  0  0  0  0  0  0  0  0
    6.5723   -0.1360    0.0000 C   0  0  0  0  0  0  0  0  0  0  0  0
    5.4300   -4.1144    0.0000 C   0  0  0  0  0  0  0  0  0  0  0  0
    3.6979   -3.1144    0.0000 C   0  0  0  0  0  0  0  0  0  0  0  0
    6.0723    0.7301    0.0000 C   0  0  0  0  0  0  0  0  0  0  0  0
    4.5640   -4.6144    0.0000 C   0  0  0  0  0  0  0  0  0  0  0  0
    3.6979   -4.1144    0.0000 C   0  0  0  0  0  0  0  0  0  0  0  0
    3.3660   -5.6893    0.0000 C   0  0  0  0  0  0  0  0  0  0  0  0
    6.0723    2.4621    0.0000 C   0  0  0  0  0  0  0  0  0  0  0  0
    5.7358    4.0448    0.0000 C   0  0  0  0  0  0  0  0  0  0  0  0
    2.8660   -6.5554    0.0000 C   0  0  0  0  0  0  0  0  0  0  0  0
    5.8404    5.0393    0.0000 C   0  0  0  0  0  0  0  0  0  0  0  0
    5.0314    5.6271    0.0000 C   0  0  0  0  0  0  0  0  0  0  0  0
    7.4571    3.5836    0.0000 C   0  0  0  0  0  0  0  0  0  0  0  0
    5.1359    6.6216    0.0000 C   0  0  0  0  0  0  0  0  0  0  0  0
    6.7539    5.4460    0.0000 C   0  0  0  0  0  0  0  0  0  0  0  0
    4.0864    5.1888    0.0000 C   0  0  0  0  0  0  0  0  0  0  0  0
    6.0494    7.0284    0.0000 C   0  0  0  0  0  0  0  0  0  0  0  0
    6.8584    6.4406    0.0000 C   0  0  0  0  0  0  0  0  0  0  0  0
    3.2390    5.7946    0.0000 C   0  0  0  0  0  0  0  0  0  0  0  0
    3.3479    6.8305    0.0000 C   0  0  0  0  0  0  0  0  0  0  0  0
    2.5412    7.4214    0.0000 C   0  0  0  0  0  0  0  0  0  0  0  0
    7.1638   -2.1199    0.0000 H   0  0  0  0  0  0  0  0  0  0  0  0
    7.0465   -1.3562    0.0000 H   0  0  0  0  0  0  0  0  0  0  0  0
    5.2784   -0.3353    0.0000 H   0  0  0  0  0  0  0  0  0  0  0  0
    4.5584   -0.6157    0.0000 H   0  0  0  0  0  0  0  0  0  0  0  0
    6.4365   -3.3625    0.0000 H   0  0  0  0  0  0  0  0  0  0  0  0
    6.9590   -2.7933    0.0000 H   0  0  0  0  0  0  0  0  0  0  0  0
    4.0776   -1.1297    0.0000 H   0  0  0  0  0  0  0  0  0  0  0  0
    3.8458   -1.8668    0.0000 H   0  0  0  0  0  0  0  0  0  0  0  0
    7.0472   -0.5345    0.0000 H   0  0  0  0  0  0  0  0  0  0  0  0
    7.0472    0.2626    0.0000 H   0  0  0  0  0  0  0  0  0  0  0  0
    3.1610   -2.8044    0.0000 H   0  0  0  0  0  0  0  0  0  0  0  0
    5.5973    1.1286    0.0000 H   0  0  0  0  0  0  0  0  0  0  0  0
    5.5973    0.3315    0.0000 H   0  0  0  0  0  0  0  0  0  0  0  0
    7.5860    2.9771    0.0000 H   0  0  0  0  0  0  0  0  0  0  0  0
    8.0636    3.7125    0.0000 H   0  0  0  0  0  0  0  0  0  0  0  0
    7.3282    4.1900    0.0000 H   0  0  0  0  0  0  0  0  0  0  0  0
    7.2555    5.0816    0.0000 H   0  0  0  0  0  0  0  0  0  0  0  0
    4.0288    4.5715    0.0000 H   0  0  0  0  0  0  0  0  0  0  0  0
    6.1142    7.6450    0.0000 H   0  0  0  0  0  0  0  0  0  0  0  0
    7.4248    6.6928    0.0000 H   0  0  0  0  0  0  0  0  0  0  0  0
    2.6736    5.5402    0.0000 H   0  0  0  0  0  0  0  0  0  0  0  0
    2.9075    7.9216    0.0000 H   0  0  0  0  0  0  0  0  0  0  0  0
    2.0410    7.7877    0.0000 H   0  0  0  0  0  0  0  0  0  0  0  0
    2.1748    6.9212    0.0000 H   0  0  0  0  0  0  0  0  0  0  0  0
  1 20  1  0  0  0  0
  2 22  1  0  0  0  0
  2 26  1  0  0  0  0
  3 28  1  0  0  0  0
  4 28  1  0  0  0  0
  5 28  1  0  0  0  0
  6 23  1  0  0  0  0
  6 25  1  0  0  0  0
  7 13  1  0  0  0  0
  7 14  1  0  0  0  0
  7 19  1  0  0  0  0
  8 24  1  0  0  0  0
  8 25  2  0  0  0  0
  9 26  1  0  0  0  0
  9 27  1  0  0  0  0
  9 31  1  0  0  0  0
 10 11  1  0  0  0  0
 10 26  2  0  0  0  0
 11 27  2  0  0  0  0
 12 32  1  0  0  0  0
 12 38  2  0  0  0  0
 13 15  1  0  0  0  0
 13 40  1  0  0  0  0
 13 41  1  0  0  0  0
 14 16  1  0  0  0  0
 14 42  1  0  0  0  0
 14 43  1  0  0  0  0
 15 17  1  0  0  0  0
 15 44  1  0  0  0  0
 15 45  1  0  0  0  0
 16 18  1  0  0  0  0
 16 46  1  0  0  0  0
 16 47  1  0  0  0  0
 17 18  1  0  0  0  0
 17 20  2  0  0  0  0
 18 21  2  0  0  0  0
 19 22  1  0  0  0  0
 19 48  1  0  0  0  0
 19 49  1  0  0  0  0
 20 23  1  0  0  0  0
 21 24  1  0  0  0  0
 21 50  1  0  0  0  0
 22 51  1  0  0  0  0
 22 52  1  0  0  0  0
 23 24  2  0  0  0  0
 25 28  1  0  0  0  0
 27 29  1  0  0  0  0
 29 30  2  0  0  0  0
 29 33  1  0  0  0  0
 30 32  1  0  0  0  0
 30 34  1  0  0  0  0
 31 53  1  0  0  0  0
 31 54  1  0  0  0  0
 31 55  1  0  0  0  0
 32 35  2  0  0  0  0
 33 36  2  0  0  0  0
 33 56  1  0  0  0  0
 34 37  2  0  0  0  0
 34 57  1  0  0  0  0
 35 36  1  0  0  0  0
 35 58  1  0  0  0  0
 36 59  1  0  0  0  0
 37 38  1  0  0  0  0
 37 60  1  0  0  0  0
 38 39  1  0  0  0  0
 39 61  1  0  0  0  0
 39 62  1  0  0  0  0
 39 63  1  0  0  0  0
M  END
> <PUBCHEM_COMPOUND_CID>
44454247

> <PUBCHEM_COMPOUND_CANONICALIZED>
1

> <PUBCHEM_CACTVS_COMPLEXITY>
846

> <PUBCHEM_CACTVS_HBOND_ACCEPTOR>
10

> <PUBCHEM_CACTVS_HBOND_DONOR>
0

> <PUBCHEM_CACTVS_ROTATABLE_BOND>
5

> <PUBCHEM_CACTVS_SUBSKEYS>
AAADceB7oYBAEAAAAAAAAAAAAAAAAWLAAAA8YIAABYAAAFix/gAAHwRIAAABrAzF3xSz1vcMFEiqA6dydASS2CtvYrQd2CG9bPiuLvLEvbuPOSjkzBPY65eY2fKOqAABUAESlABQAAKgAiUoAAAAAAAAAA==

> <PUBCHEM_IUPAC_OPENEYE_NAME>
10-bromo-7-[2-[[4-methyl-5-(2-methyl-5-quinolyl)-1,2,4-triazol-3-yl]sulfanyl]ethyl]-2-(trifluoromethyl)-5,6,8,9-tetrahydrooxazolo[4,5-h][3]benzazepine

> <PUBCHEM_IUPAC_CAS_NAME>
10-bromo-7-[2-[[4-methyl-5-(2-methyl-5-quinolinyl)-1,2,4-triazol-3-yl]thio]ethyl]-2-(trifluoromethyl)-5,6,8,9-tetrahydrooxazolo[4,5-h][3]benzazepine

> <PUBCHEM_IUPAC_NAME_MARKUP>
10-bromo-7-[2-[[4-methyl-5-(2-methylquinolin-5-yl)-1,2,4-triazol-3-yl]sulfanyl]ethyl]-2-(trifluoromethyl)-5,6,8,9-tetrahydro-[1,3]oxazolo[4,5-h][3]benzazepine

> <PUBCHEM_IUPAC_NAME>
10-bromo-7-[2-[[4-methyl-5-(2-methylquinolin-5-yl)-1,2,4-triazol-3-yl]sulfanyl]ethyl]-2-(trifluoromethyl)-5,6,8,9-tetrahydro-[1,3]oxazolo[4,5-h][3]benzazepine

> <PUBCHEM_IUPAC_SYSTEMATIC_NAME>
10-bromanyl-7-[2-[[4-methyl-5-(2-methylquinolin-5-yl)-1,2,4-triazol-3-yl]sulfanyl]ethyl]-2-(trifluoromethyl)-5,6,8,9-tetrahydro-[1,3]oxazolo[4,5-h][3]benzazepine

> <PUBCHEM_IUPAC_TRADITIONAL_NAME>
10-bromo-7-[2-[[4-methyl-5-(2-methyl-5-quinolyl)-1,2,4-triazol-3-yl]thio]ethyl]-2-(trifluoromethyl)-5,6,8,9-tetrahydrooxazolo[4,5-h][3]benzazepine

> <PUBCHEM_IUPAC_INCHI>
InChI=1S/C27H24BrF3N6OS/c1-15-6-7-18-19(4-3-5-20(18)32-15)24-34-35-26(36(24)2)39-13-12-37-10-8-16-14-21-23(22(28)17(16)9-11-37)38-25(33-21)27(29,30)31/h3-7,14H,8-13H2,1-2H3

> <PUBCHEM_IUPAC_INCHIKEY>
KBAMXOZNCXYSJT-UHFFFAOYSA-N

> <PUBCHEM_XLOGP3_AA>
6.1

> <PUBCHEM_EXACT_MASS>
616.08678

> <PUBCHEM_MOLECULAR_FORMULA>
C27H24BrF3N6OS

> <PUBCHEM_MOLECULAR_WEIGHT>
617.5

> <PUBCHEM_OPENEYE_CAN_SMILES>
CC1=NC2=CC=CC(=C2C=C1)C3=NN=C(N3C)SCCN4CCC5=CC6=C(C(=C5CC4)Br)OC(=N6)C(F)(F)F

> <PUBCHEM_OPENEYE_ISO_SMILES>
CC1=NC2=CC=CC(=C2C=C1)C3=NN=C(N3C)SCCN4CCC5=CC6=C(C(=C5CC4)Br)OC(=N6)C(F)(F)F

> <PUBCHEM_CACTVS_TPSA>
98.2

> <PUBCHEM_MONOISOTOPIC_WEIGHT>
616.08678

> <PUBCHEM_TOTAL_CHARGE>
0

> <PUBCHEM_HEAVY_ATOM_COUNT>
39

> <PUBCHEM_ATOM_DEF_STEREO_COUNT>
0

> <PUBCHEM_ATOM_UDEF_STEREO_COUNT>
0

> <PUBCHEM_BOND_DEF_STEREO_COUNT>
0

> <PUBCHEM_BOND_UDEF_STEREO_COUNT>
0

> <PUBCHEM_ISOTOPIC_ATOM_COUNT>
0

> <PUBCHEM_COMPONENT_COUNT>
1

> <PUBCHEM_CACTVS_TAUTO_COUNT>
-1

> <PUBCHEM_COORDINATE_TYPE>
1
5
255

> <PUBCHEM_BONDANNOTATIONS>
10  11  8
10  26  8
11  27  8
12  32  8
12  38  8
17  18  8
17  20  8
18  21  8
20  23  8
21  24  8
23  24  8
29  30  8
29  33  8
30  32  8
30  34  8
32  35  8
33  36  8
34  37  8
35  36  8
37  38  8
6  23  8
6  25  8
8  24  8
8  25  8
9  26  8
9  27  8

$$$$
