90664962
  -OEChem-09292322042D

 67 66  0     0  0  0  0  0  0999 V2000
    3.0000    2.6200    0.0000 Cl  0  0  0  0  0  0  0  0  0  0  0  0
    3.0000    0.6200    0.0000 Cl  0  0  0  0  0  0  0  0  0  0  0  0
   11.7508    8.1284    0.0000 Cl  0  0  0  0  0  0  0  0  0  0  0  0
    5.8754   16.2568    0.0000 Cl  0  0  0  0  0  0  0  0  0  0  0  0
    0.0000    8.1284    0.0000 Cl  0  0  0  0  0  0  0  0  0  0  0  0
   14.7508    8.1284    0.0000 Cl  0  0  0  0  0  0  0  0  0  0  0  0
    7.3301    8.1200    0.0000 O   0  0  0  0  0  0  0  0  0  0  0  0
    4.7320    5.6200    0.0000 N   0  0  0  0  0  0  0  0  0  0  0  0
    4.7320    3.6200    0.0000 N   0  0  0  0  0  0  0  0  0  0  0  0
    5.5981    8.1200    0.0000 N   0  0  0  0  0  0  0  0  0  0  0  0
    6.9641   11.1588    0.0000 N   0  0  0  0  0  0  0  0  0  0  0  0
    5.6551   10.2078    0.0000 N   0  0  0  0  0  0  0  0  0  0  0  0
    5.5981    5.1200    0.0000 C   0  0  0  0  0  0  0  0  0  0  0  0
    3.8660    5.1200    0.0000 C   0  0  0  0  0  0  0  0  0  0  0  0
    5.5981    4.1200    0.0000 C   0  0  0  0  0  0  0  0  0  0  0  0
    3.8660    4.1200    0.0000 C   0  0  0  0  0  0  0  0  0  0  0  0
    4.7320    6.6200    0.0000 C   0  0  0  0  0  0  0  0  0  0  0  0
    4.7320    2.6200    0.0000 C   0  0  0  0  0  0  0  0  0  0  0  0
    5.5981    7.1200    0.0000 C   0  0  0  0  0  0  0  0  0  0  0  0
    3.8660    2.1200    0.0000 C   0  0  0  0  0  0  0  0  0  0  0  0
    5.5981    2.1200    0.0000 C   0  0  0  0  0  0  0  0  0  0  0  0
    6.4641    8.6200    0.0000 C   0  0  0  0  0  0  0  0  0  0  0  0
    3.8660    1.1200    0.0000 C   0  0  0  0  0  0  0  0  0  0  0  0
    5.5981    1.1200    0.0000 C   0  0  0  0  0  0  0  0  0  0  0  0
    6.4641    9.6200    0.0000 C   0  0  0  0  0  0  0  0  0  0  0  0
    7.2731   10.2078    0.0000 C   0  0  0  0  0  0  0  0  0  0  0  0
    4.7320    0.6200    0.0000 C   0  0  0  0  0  0  0  0  0  0  0  0
    5.9641   11.1588    0.0000 C   0  0  0  0  0  0  0  0  0  0  0  0
    7.5519   11.9679    0.0000 C   0  0  0  0  0  0  0  0  0  0  0  0
    8.2242    9.8988    0.0000 C   0  0  0  0  0  0  0  0  0  0  0  0
    5.3763   11.9679    0.0000 C   0  0  0  0  0  0  0  0  0  0  0  0
    8.5464   11.8633    0.0000 C   0  0  0  0  0  0  0  0  0  0  0  0
    7.1452   12.8814    0.0000 C   0  0  0  0  0  0  0  0  0  0  0  0
    9.1342   12.6723    0.0000 C   0  0  0  0  0  0  0  0  0  0  0  0
    7.7329   13.6904    0.0000 C   0  0  0  0  0  0  0  0  0  0  0  0
    8.7275   13.5859    0.0000 C   0  0  0  0  0  0  0  0  0  0  0  0
    6.2087    5.0123    0.0000 H   0  0  0  0  0  0  0  0  0  0  0  0
    5.8101    5.7026    0.0000 H   0  0  0  0  0  0  0  0  0  0  0  0
    3.6540    5.7026    0.0000 H   0  0  0  0  0  0  0  0  0  0  0  0
    3.2554    5.0123    0.0000 H   0  0  0  0  0  0  0  0  0  0  0  0
    5.8101    3.5374    0.0000 H   0  0  0  0  0  0  0  0  0  0  0  0
    6.2087    4.2277    0.0000 H   0  0  0  0  0  0  0  0  0  0  0  0
    3.2554    4.2277    0.0000 H   0  0  0  0  0  0  0  0  0  0  0  0
    3.6540    3.5374    0.0000 H   0  0  0  0  0  0  0  0  0  0  0  0
    4.5200    7.2026    0.0000 H   0  0  0  0  0  0  0  0  0  0  0  0
    4.1215    6.5123    0.0000 H   0  0  0  0  0  0  0  0  0  0  0  0
    5.8101    6.5374    0.0000 H   0  0  0  0  0  0  0  0  0  0  0  0
    6.2087    7.2277    0.0000 H   0  0  0  0  0  0  0  0  0  0  0  0
    5.0611    8.4300    0.0000 H   0  0  0  0  0  0  0  0  0  0  0  0
    6.1350    2.4300    0.0000 H   0  0  0  0  0  0  0  0  0  0  0  0
    6.1350    0.8100    0.0000 H   0  0  0  0  0  0  0  0  0  0  0  0
    4.7320    0.0000    0.0000 H   0  0  0  0  0  0  0  0  0  0  0  0
    8.0326    9.3091    0.0000 H   0  0  0  0  0  0  0  0  0  0  0  0
    8.8138    9.7072    0.0000 H   0  0  0  0  0  0  0  0  0  0  0  0
    8.4158   10.4884    0.0000 H   0  0  0  0  0  0  0  0  0  0  0  0
    5.8779   12.3323    0.0000 H   0  0  0  0  0  0  0  0  0  0  0  0
    5.0119   12.4694    0.0000 H   0  0  0  0  0  0  0  0  0  0  0  0
    4.8747   11.6034    0.0000 H   0  0  0  0  0  0  0  0  0  0  0  0
    8.7986   11.2969    0.0000 H   0  0  0  0  0  0  0  0  0  0  0  0
    6.5286   12.9462    0.0000 H   0  0  0  0  0  0  0  0  0  0  0  0
    9.7508   12.6075    0.0000 H   0  0  0  0  0  0  0  0  0  0  0  0
    7.4808   14.2568    0.0000 H   0  0  0  0  0  0  0  0  0  0  0  0
    9.0919   14.0875    0.0000 H   0  0  0  0  0  0  0  0  0  0  0  0
   12.7508    8.1284    0.0000 H   0  0  0  0  0  0  0  0  0  0  0  0
    6.8754   16.2568    0.0000 H   0  0  0  0  0  0  0  0  0  0  0  0
    1.0000    8.1284    0.0000 H   0  0  0  0  0  0  0  0  0  0  0  0
   15.7508    8.1284    0.0000 H   0  0  0  0  0  0  0  0  0  0  0  0
  1 20  1  0  0  0  0
  2 23  1  0  0  0  0
  3 64  1  0  0  0  0
  4 65  1  0  0  0  0
  5 66  1  0  0  0  0
  6 67  1  0  0  0  0
  7 22  2  0  0  0  0
  8 13  1  0  0  0  0
  8 14  1  0  0  0  0
  8 17  1  0  0  0  0
  9 15  1  0  0  0  0
  9 16  1  0  0  0  0
  9 18  1  0  0  0  0
 10 19  1  0  0  0  0
 10 22  1  0  0  0  0
 10 49  1  0  0  0  0
 11 26  1  0  0  0  0
 11 28  1  0  0  0  0
 11 29  1  0  0  0  0
 12 25  1  0  0  0  0
 12 28  2  0  0  0  0
 13 15  1  0  0  0  0
 13 37  1  0  0  0  0
 13 38  1  0  0  0  0
 14 16  1  0  0  0  0
 14 39  1  0  0  0  0
 14 40  1  0  0  0  0
 15 41  1  0  0  0  0
 15 42  1  0  0  0  0
 16 43  1  0  0  0  0
 16 44  1  0  0  0  0
 17 19  1  0  0  0  0
 17 45  1  0  0  0  0
 17 46  1  0  0  0  0
 18 20  2  0  0  0  0
 18 21  1  0  0  0  0
 19 47  1  0  0  0  0
 19 48  1  0  0  0  0
 20 23  1  0  0  0  0
 21 24  2  0  0  0  0
 21 50  1  0  0  0  0
 22 25  1  0  0  0  0
 23 27  2  0  0  0  0
 24 27  1  0  0  0  0
 24 51  1  0  0  0  0
 25 26  2  0  0  0  0
 26 30  1  0  0  0  0
 27 52  1  0  0  0  0
 28 31  1  0  0  0  0
 29 32  2  0  0  0  0
 29 33  1  0  0  0  0
 30 53  1  0  0  0  0
 30 54  1  0  0  0  0
 30 55  1  0  0  0  0
 31 56  1  0  0  0  0
 31 57  1  0  0  0  0
 31 58  1  0  0  0  0
 32 34  1  0  0  0  0
 32 59  1  0  0  0  0
 33 35  2  0  0  0  0
 33 60  1  0  0  0  0
 34 36  2  0  0  0  0
 34 61  1  0  0  0  0
 35 36  1  0  0  0  0
 35 62  1  0  0  0  0
 36 63  1  0  0  0  0
M  END
> <PUBCHEM_COMPOUND_CID>
90664962

> <PUBCHEM_COMPOUND_CANONICALIZED>
1

> <PUBCHEM_CACTVS_COMPLEXITY>
611

> <PUBCHEM_CACTVS_HBOND_ACCEPTOR>
4

> <PUBCHEM_CACTVS_HBOND_DONOR>
5

> <PUBCHEM_CACTVS_ROTATABLE_BOND>
6

> <PUBCHEM_CACTVS_SUBSKEYS>
AAADceB7oAAHAAAAAAAAAAAAAAAAAWAAAAA8YIAAAAAAAAAB0AAAHgIQAAAACArBlyQz0JfMEACoASdydACCgC0nF6AJmsG4dsiIaHrB27HUIYholgLIyWcQAAAAAAAAAAIAABQAAAAABAAAKAAAAAAAAA==

> <PUBCHEM_IUPAC_OPENEYE_NAME>
N-[2-[4-(2,3-dichlorophenyl)piperazin-1-yl]ethyl]-2,5-dimethyl-1-phenyl-imidazole-4-carboxamide;tetrahydrochloride

> <PUBCHEM_IUPAC_CAS_NAME>
N-[2-[4-(2,3-dichlorophenyl)-1-piperazinyl]ethyl]-2,5-dimethyl-1-phenyl-4-imidazolecarboxamide;tetrahydrochloride

> <PUBCHEM_IUPAC_NAME_MARKUP>
<I>N</I>-[2-[4-(2,3-dichlorophenyl)piperazin-1-yl]ethyl]-2,5-dimethyl-1-phenylimidazole-4-carboxamide;tetrahydrochloride

> <PUBCHEM_IUPAC_NAME>
N-[2-[4-(2,3-dichlorophenyl)piperazin-1-yl]ethyl]-2,5-dimethyl-1-phenylimidazole-4-carboxamide;tetrahydrochloride

> <PUBCHEM_IUPAC_SYSTEMATIC_NAME>
N-[2-[4-[2,3-bis(chloranyl)phenyl]piperazin-1-yl]ethyl]-2,5-dimethyl-1-phenyl-imidazole-4-carboxamide;tetrahydrochloride

> <PUBCHEM_IUPAC_TRADITIONAL_NAME>
N-[2-[4-(2,3-dichlorophenyl)piperazino]ethyl]-2,5-dimethyl-1-phenyl-imidazole-4-carboxamide;tetrahydrochloride

> <PUBCHEM_IUPAC_INCHI>
InChI=1S/C24H27Cl2N5O.4ClH/c1-17-23(28-18(2)31(17)19-7-4-3-5-8-19)24(32)27-11-12-29-13-15-30(16-14-29)21-10-6-9-20(25)22(21)26;;;;/h3-10H,11-16H2,1-2H3,(H,27,32);4*1H

> <PUBCHEM_IUPAC_INCHIKEY>
GNLAUOZRIHVBBM-UHFFFAOYSA-N

> <PUBCHEM_EXACT_MASS>
617.063027

> <PUBCHEM_MOLECULAR_FORMULA>
C24H31Cl6N5O

> <PUBCHEM_MOLECULAR_WEIGHT>
618.2

> <PUBCHEM_OPENEYE_CAN_SMILES>
CC1=C(N=C(N1C2=CC=CC=C2)C)C(=O)NCCN3CCN(CC3)C4=C(C(=CC=C4)Cl)Cl.Cl.Cl.Cl.Cl

> <PUBCHEM_OPENEYE_ISO_SMILES>
CC1=C(N=C(N1C2=CC=CC=C2)C)C(=O)NCCN3CCN(CC3)C4=C(C(=CC=C4)Cl)Cl.Cl.Cl.Cl.Cl

> <PUBCHEM_CACTVS_TPSA>
53.4

> <PUBCHEM_MONOISOTOPIC_WEIGHT>
615.065977

> <PUBCHEM_TOTAL_CHARGE>
0

> <PUBCHEM_HEAVY_ATOM_COUNT>
36

> <PUBCHEM_ATOM_DEF_STEREO_COUNT>
0

> <PUBCHEM_ATOM_UDEF_STEREO_COUNT>
0

> <PUBCHEM_BOND_DEF_STEREO_COUNT>
0

> <PUBCHEM_BOND_UDEF_STEREO_COUNT>
0

> <PUBCHEM_ISOTOPIC_ATOM_COUNT>
0

> <PUBCHEM_COMPONENT_COUNT>
5

> <PUBCHEM_CACTVS_TAUTO_COUNT>
-1

> <PUBCHEM_COORDINATE_TYPE>
1
5
255

> <PUBCHEM_BONDANNOTATIONS>
11  26  8
11  28  8
12  25  8
12  28  8
18  20  8
18  21  8
20  23  8
21  24  8
23  27  8
24  27  8
25  26  8
29  32  8
29  33  8
32  34  8
33  35  8
34  36  8
35  36  8

$$$$
