45260341
  -OEChem-09292322102D

 64 66  0     1  0  0  0  0  0999 V2000
    7.7593    0.0000    0.0000 Cl  0  0  0  0  0  0  0  0  0  0  0  0
   16.5186    3.1349    0.0000 F   0  0  0  0  0  0  0  0  0  0  0  0
   11.3224    6.1349    0.0000 O   0  0  0  0  0  0  0  0  0  0  0  0
    5.2602    6.6349    0.0000 N   0  0  3  0  0  0  0  0  0  0  0  0
   10.4564    4.6349    0.0000 N   0  0  0  0  0  0  0  0  0  0  0  0
    0.0000    8.6624    0.0000 N   0  0  0  0  0  0  0  0  0  0  0  0
    7.8583    6.1349    0.0000 C   0  0  0  0  0  0  0  0  0  0  0  0
    8.7243    6.6349    0.0000 C   0  0  0  0  0  0  0  0  0  0  0  0
    7.8583    5.1349    0.0000 C   0  0  0  0  0  0  0  0  0  0  0  0
    9.5904    5.1349    0.0000 C   0  0  0  0  0  0  0  0  0  0  0  0
    9.5904    6.1349    0.0000 C   0  0  0  0  0  0  0  0  0  0  0  0
    8.7243    4.6349    0.0000 C   0  0  0  0  0  0  0  0  0  0  0  0
    6.9923    6.6349    0.0000 C   0  0  0  0  0  0  0  0  0  0  0  0
    6.1263    6.1349    0.0000 C   0  0  0  0  0  0  0  0  0  0  0  0
    5.2602    7.6349    0.0000 C   0  0  0  0  0  0  0  0  0  0  0  0
    4.3942    6.1349    0.0000 C   0  0  0  0  0  0  0  0  0  0  0  0
    4.3942    8.1349    0.0000 C   0  0  0  0  0  0  0  0  0  0  0  0
    3.5282    6.6349    0.0000 C   0  0  0  0  0  0  0  0  0  0  0  0
    3.5282    7.6349    0.0000 C   0  0  0  0  0  0  0  0  0  0  0  0
   11.3224    5.1349    0.0000 C   0  0  0  0  0  0  0  0  0  0  0  0
    2.6343    6.1002    0.0000 C   0  0  0  0  0  0  0  0  0  0  0  0
    2.6343    8.1695    0.0000 C   0  0  0  0  0  0  0  0  0  0  0  0
    1.7282    6.6140    0.0000 C   0  0  0  0  0  0  0  0  0  0  0  0
    1.7282    7.6557    0.0000 C   0  0  0  0  0  0  0  0  0  0  0  0
   12.1884    4.6349    0.0000 C   0  0  0  0  0  0  0  0  0  0  0  0
   13.0545    5.1349    0.0000 C   0  0  0  0  0  0  0  0  0  0  0  0
    0.8641    8.1590    0.0000 C   0  0  0  0  0  0  0  0  0  0  0  0
   13.9205    4.6349    0.0000 C   0  0  0  0  0  0  0  0  0  0  0  0
   14.7865    5.1349    0.0000 C   0  0  0  0  0  0  0  0  0  0  0  0
   13.9205    3.6349    0.0000 C   0  0  0  0  0  0  0  0  0  0  0  0
   15.6525    4.6349    0.0000 C   0  0  0  0  0  0  0  0  0  0  0  0
   14.7865    3.1349    0.0000 C   0  0  0  0  0  0  0  0  0  0  0  0
   15.6525    3.6349    0.0000 C   0  0  0  0  0  0  0  0  0  0  0  0
    7.3214    5.8249    0.0000 H   0  0  0  0  0  0  0  0  0  0  0  0
    9.1229    7.1098    0.0000 H   0  0  0  0  0  0  0  0  0  0  0  0
    8.3258    7.1098    0.0000 H   0  0  0  0  0  0  0  0  0  0  0  0
    7.2477    5.2425    0.0000 H   0  0  0  0  0  0  0  0  0  0  0  0
    7.6463    4.5523    0.0000 H   0  0  0  0  0  0  0  0  0  0  0  0
   10.1273    5.4449    0.0000 H   0  0  0  0  0  0  0  0  0  0  0  0
   10.2010    6.0272    0.0000 H   0  0  0  0  0  0  0  0  0  0  0  0
    9.8024    6.7175    0.0000 H   0  0  0  0  0  0  0  0  0  0  0  0
    8.3258    4.1599    0.0000 H   0  0  0  0  0  0  0  0  0  0  0  0
    9.1229    4.1599    0.0000 H   0  0  0  0  0  0  0  0  0  0  0  0
    7.3908    7.1098    0.0000 H   0  0  0  0  0  0  0  0  0  0  0  0
    6.5938    7.1098    0.0000 H   0  0  0  0  0  0  0  0  0  0  0  0
    5.7277    5.6599    0.0000 H   0  0  0  0  0  0  0  0  0  0  0  0
    6.5248    5.6599    0.0000 H   0  0  0  0  0  0  0  0  0  0  0  0
   10.4564    4.0149    0.0000 H   0  0  0  0  0  0  0  0  0  0  0  0
    5.8708    7.5272    0.0000 H   0  0  0  0  0  0  0  0  0  0  0  0
    5.4723    8.2175    0.0000 H   0  0  0  0  0  0  0  0  0  0  0  0
    3.9957    5.6599    0.0000 H   0  0  0  0  0  0  0  0  0  0  0  0
    4.7928    5.6599    0.0000 H   0  0  0  0  0  0  0  0  0  0  0  0
    4.7928    8.6098    0.0000 H   0  0  0  0  0  0  0  0  0  0  0  0
    3.9957    8.6098    0.0000 H   0  0  0  0  0  0  0  0  0  0  0  0
    2.6414    5.4802    0.0000 H   0  0  0  0  0  0  0  0  0  0  0  0
    2.6414    8.7895    0.0000 H   0  0  0  0  0  0  0  0  0  0  0  0
    1.1924    6.3020    0.0000 H   0  0  0  0  0  0  0  0  0  0  0  0
   12.1884    4.0149    0.0000 H   0  0  0  0  0  0  0  0  0  0  0  0
   13.0545    5.7549    0.0000 H   0  0  0  0  0  0  0  0  0  0  0  0
   14.7865    5.7549    0.0000 H   0  0  0  0  0  0  0  0  0  0  0  0
   13.3836    3.3249    0.0000 H   0  0  0  0  0  0  0  0  0  0  0  0
   16.1895    4.9449    0.0000 H   0  0  0  0  0  0  0  0  0  0  0  0
   14.7865    2.5149    0.0000 H   0  0  0  0  0  0  0  0  0  0  0  0
    8.7593    0.0000    0.0000 H   0  0  0  0  0  0  0  0  0  0  0  0
  1 64  1  0  0  0  0
  2 33  1  0  0  0  0
  3 20  2  0  0  0  0
  4 14  1  0  0  0  0
  4 15  1  0  0  0  0
  4 16  1  0  0  0  0
  5 10  1  0  0  0  0
  5 20  1  0  0  0  0
  5 48  1  0  0  0  0
  6 27  3  0  0  0  0
  7  8  1  0  0  0  0
  7  9  1  0  0  0  0
  7 13  1  0  0  0  0
  7 34  1  0  0  0  0
  8 11  1  0  0  0  0
  8 35  1  0  0  0  0
  8 36  1  0  0  0  0
  9 12  1  0  0  0  0
  9 37  1  0  0  0  0
  9 38  1  0  0  0  0
 10 11  1  0  0  0  0
 10 12  1  0  0  0  0
 10 39  1  0  0  0  0
 11 40  1  0  0  0  0
 11 41  1  0  0  0  0
 12 42  1  0  0  0  0
 12 43  1  0  0  0  0
 13 14  1  0  0  0  0
 13 44  1  0  0  0  0
 13 45  1  0  0  0  0
 14 46  1  0  0  0  0
 14 47  1  0  0  0  0
 15 17  1  0  0  0  0
 15 49  1  0  0  0  0
 15 50  1  0  0  0  0
 16 18  1  0  0  0  0
 16 51  1  0  0  0  0
 16 52  1  0  0  0  0
 17 19  1  0  0  0  0
 17 53  1  0  0  0  0
 17 54  1  0  0  0  0
 18 19  2  0  0  0  0
 18 21  1  0  0  0  0
 19 22  1  0  0  0  0
 20 25  1  0  0  0  0
 21 23  2  0  0  0  0
 21 55  1  0  0  0  0
 22 24  2  0  0  0  0
 22 56  1  0  0  0  0
 23 24  1  0  0  0  0
 23 57  1  0  0  0  0
 24 27  1  0  0  0  0
 25 26  2  0  0  0  0
 25 58  1  0  0  0  0
 26 28  1  0  0  0  0
 26 59  1  0  0  0  0
 28 29  2  0  0  0  0
 28 30  1  0  0  0  0
 29 31  1  0  0  0  0
 29 60  1  0  0  0  0
 30 32  2  0  0  0  0
 30 61  1  0  0  0  0
 31 33  2  0  0  0  0
 31 62  1  0  0  0  0
 32 33  1  0  0  0  0
 32 63  1  0  0  0  0
M  END
> <PUBCHEM_COMPOUND_CID>
45260341

> <PUBCHEM_COMPOUND_CANONICALIZED>
1

> <PUBCHEM_CACTVS_COMPLEXITY>
684

> <PUBCHEM_CACTVS_HBOND_ACCEPTOR>
4

> <PUBCHEM_CACTVS_HBOND_DONOR>
2

> <PUBCHEM_CACTVS_ROTATABLE_BOND>
6

> <PUBCHEM_CACTVS_SUBSKEYS>
AAADceB7IQAEAAAAAAAAAAAAAAAAAAAAAAA8YMEAAAAAAACxQAAAHwAQAAAADSjBmAwwAIPAAACYBiFSEACiAAAgAAAIiIAIBMgIoCKAkRGEIAhglgCIiY8QgMAOwAACAAAQAACQAAQAACAAAAAAAAAAAA==

> <PUBCHEM_IUPAC_OPENEYE_NAME>
(E)-N-[4-[2-(6-cyano-3,4-dihydro-1H-isoquinolin-2-yl)ethyl]cyclohexyl]-3-(4-fluorophenyl)prop-2-enamide;hydrochloride

> <PUBCHEM_IUPAC_CAS_NAME>
(E)-N-[4-[2-(6-cyano-3,4-dihydro-1H-isoquinolin-2-yl)ethyl]cyclohexyl]-3-(4-fluorophenyl)-2-propenamide;hydrochloride

> <PUBCHEM_IUPAC_NAME_MARKUP>
(<I>E</I>)-<I>N</I>-[4-[2-(6-cyano-3,4-dihydro-1<I>H</I>-isoquinolin-2-yl)ethyl]cyclohexyl]-3-(4-fluorophenyl)prop-2-enamide;hydrochloride

> <PUBCHEM_IUPAC_NAME>
(E)-N-[4-[2-(6-cyano-3,4-dihydro-1H-isoquinolin-2-yl)ethyl]cyclohexyl]-3-(4-fluorophenyl)prop-2-enamide;hydrochloride

> <PUBCHEM_IUPAC_SYSTEMATIC_NAME>
(E)-N-[4-[2-(6-cyano-3,4-dihydro-1H-isoquinolin-2-yl)ethyl]cyclohexyl]-3-(4-fluorophenyl)prop-2-enamide;hydrochloride

> <PUBCHEM_IUPAC_TRADITIONAL_NAME>
(E)-N-[4-[2-(6-cyano-3,4-dihydro-1H-isoquinolin-2-yl)ethyl]cyclohexyl]-3-(4-fluorophenyl)acrylamide;hydrochloride

> <PUBCHEM_IUPAC_INCHI>
InChI=1S/C27H30FN3O.ClH/c28-25-8-2-20(3-9-25)6-12-27(32)30-26-10-4-21(5-11-26)13-15-31-16-14-23-17-22(18-29)1-7-24(23)19-31;/h1-3,6-9,12,17,21,26H,4-5,10-11,13-16,19H2,(H,30,32);1H/b12-6+;

> <PUBCHEM_IUPAC_INCHIKEY>
IVNJEAWAFCTYOK-WXIWBVQFSA-N

> <PUBCHEM_EXACT_MASS>
467.2139685

> <PUBCHEM_MOLECULAR_FORMULA>
C27H31ClFN3O

> <PUBCHEM_MOLECULAR_WEIGHT>
468.0

> <PUBCHEM_OPENEYE_CAN_SMILES>
C1CC(CCC1CCN2CCC3=C(C2)C=CC(=C3)C#N)NC(=O)C=CC4=CC=C(C=C4)F.Cl

> <PUBCHEM_OPENEYE_ISO_SMILES>
C1CC(CCC1CCN2CCC3=C(C2)C=CC(=C3)C#N)NC(=O)/C=C/C4=CC=C(C=C4)F.Cl

> <PUBCHEM_CACTVS_TPSA>
56.1

> <PUBCHEM_MONOISOTOPIC_WEIGHT>
467.2139685

> <PUBCHEM_TOTAL_CHARGE>
0

> <PUBCHEM_HEAVY_ATOM_COUNT>
33

> <PUBCHEM_ATOM_DEF_STEREO_COUNT>
0

> <PUBCHEM_ATOM_UDEF_STEREO_COUNT>
0

> <PUBCHEM_BOND_DEF_STEREO_COUNT>
1

> <PUBCHEM_BOND_UDEF_STEREO_COUNT>
0

> <PUBCHEM_ISOTOPIC_ATOM_COUNT>
0

> <PUBCHEM_COMPONENT_COUNT>
2

> <PUBCHEM_CACTVS_TAUTO_COUNT>
-1

> <PUBCHEM_COORDINATE_TYPE>
1
5
255

> <PUBCHEM_BONDANNOTATIONS>
18  19  8
18  21  8
19  22  8
21  23  8
22  24  8
23  24  8
28  29  8
28  30  8
29  31  8
30  32  8
31  33  8
32  33  8

$$$$
