164610884
  -OEChem-09292322432D

 67 71  0     0  0  0  0  0  0999 V2000
    2.0000   -6.4977    0.0000 F   0  0  0  0  0  0  0  0  0  0  0  0
    5.5443   -6.3024    0.0000 O   0  0  0  0  0  0  0  0  0  0  0  0
    9.0546    0.4721    0.0000 O   0  0  0  0  0  0  0  0  0  0  0  0
    6.4763   -1.8414    0.0000 N   0  0  0  0  0  0  0  0  0  0  0  0
    9.6294    5.0184    0.0000 N   0  0  0  0  0  0  0  0  0  0  0  0
    6.1279   -5.4977    0.0000 N   0  0  0  0  0  0  0  0  0  0  0  0
    5.8550   -3.7425    0.0000 C   0  0  0  0  0  0  0  0  0  0  0  0
    5.1871   -2.9982    0.0000 C   0  0  0  0  0  0  0  0  0  0  0  0
    6.8335   -3.5362    0.0000 C   0  0  0  0  0  0  0  0  0  0  0  0
    5.4978   -2.0476    0.0000 C   0  0  0  0  0  0  0  0  0  0  0  0
    7.1441   -2.5857    0.0000 C   0  0  0  0  0  0  0  0  0  0  0  0
    6.7870   -0.8909    0.0000 C   0  0  0  0  0  0  0  0  0  0  0  0
    5.5443   -4.6930    0.0000 C   0  0  0  0  0  0  0  0  0  0  0  0
    7.7654   -0.6847    0.0000 C   0  0  0  0  0  0  0  0  0  0  0  0
    9.8390    5.9962    0.0000 C   0  0  0  0  0  0  0  0  0  0  0  0
    8.6347    4.9156    0.0000 C   0  0  0  0  0  0  0  0  0  0  0  0
    8.9739    6.4977    0.0000 C   0  0  0  0  0  0  0  0  0  0  0  0
    8.2296    5.8299    0.0000 C   0  0  0  0  0  0  0  0  0  0  0  0
    4.5981   -4.9977    0.0000 C   0  0  0  0  0  0  0  0  0  0  0  0
   10.2973    4.2741    0.0000 C   0  0  0  0  0  0  0  0  0  0  0  0
    8.0761    0.2658    0.0000 C   0  0  0  0  0  0  0  0  0  0  0  0
    4.5981   -5.9977    0.0000 C   0  0  0  0  0  0  0  0  0  0  0  0
    9.9866    3.3236    0.0000 C   0  0  0  0  0  0  0  0  0  0  0  0
    3.7320   -4.4977    0.0000 C   0  0  0  0  0  0  0  0  0  0  0  0
   10.6545    2.5793    0.0000 C   0  0  0  0  0  0  0  0  0  0  0  0
    9.0081    3.1174    0.0000 C   0  0  0  0  0  0  0  0  0  0  0  0
    3.7320   -6.4977    0.0000 C   0  0  0  0  0  0  0  0  0  0  0  0
    9.3653    1.4226    0.0000 C   0  0  0  0  0  0  0  0  0  0  0  0
   10.3438    1.6288    0.0000 C   0  0  0  0  0  0  0  0  0  0  0  0
    2.8660   -4.9977    0.0000 C   0  0  0  0  0  0  0  0  0  0  0  0
    8.6974    2.1669    0.0000 C   0  0  0  0  0  0  0  0  0  0  0  0
    2.8660   -5.9977    0.0000 C   0  0  0  0  0  0  0  0  0  0  0  0
   11.6330    2.7855    0.0000 C   0  0  0  0  0  0  0  0  0  0  0  0
    6.2690   -4.2039    0.0000 H   0  0  0  0  0  0  0  0  0  0  0  0
    4.6402   -2.7062    0.0000 H   0  0  0  0  0  0  0  0  0  0  0  0
    4.8046   -3.4861    0.0000 H   0  0  0  0  0  0  0  0  0  0  0  0
    6.8540   -4.1559    0.0000 H   0  0  0  0  0  0  0  0  0  0  0  0
    7.4473   -3.6236    0.0000 H   0  0  0  0  0  0  0  0  0  0  0  0
    5.4772   -1.4280    0.0000 H   0  0  0  0  0  0  0  0  0  0  0  0
    4.8840   -1.9603    0.0000 H   0  0  0  0  0  0  0  0  0  0  0  0
    7.6910   -2.8777    0.0000 H   0  0  0  0  0  0  0  0  0  0  0  0
    7.5267   -2.0978    0.0000 H   0  0  0  0  0  0  0  0  0  0  0  0
    6.7664   -0.2712    0.0000 H   0  0  0  0  0  0  0  0  0  0  0  0
    6.1731   -0.8036    0.0000 H   0  0  0  0  0  0  0  0  0  0  0  0
   10.4284    5.8036    0.0000 H   0  0  0  0  0  0  0  0  0  0  0  0
   10.0922    6.5622    0.0000 H   0  0  0  0  0  0  0  0  0  0  0  0
    8.0447    4.7251    0.0000 H   0  0  0  0  0  0  0  0  0  0  0  0
    8.7626    4.3090    0.0000 H   0  0  0  0  0  0  0  0  0  0  0  0
    7.7860   -1.3043    0.0000 H   0  0  0  0  0  0  0  0  0  0  0  0
    8.3793   -0.7720    0.0000 H   0  0  0  0  0  0  0  0  0  0  0  0
    9.3392    6.9987    0.0000 H   0  0  0  0  0  0  0  0  0  0  0  0
    8.5138    6.9134    0.0000 H   0  0  0  0  0  0  0  0  0  0  0  0
    7.8660    6.3321    0.0000 H   0  0  0  0  0  0  0  0  0  0  0  0
    7.6921    5.5208    0.0000 H   0  0  0  0  0  0  0  0  0  0  0  0
   10.8442    3.9821    0.0000 H   0  0  0  0  0  0  0  0  0  0  0  0
   10.6798    4.7620    0.0000 H   0  0  0  0  0  0  0  0  0  0  0  0
    8.0556    0.8855    0.0000 H   0  0  0  0  0  0  0  0  0  0  0  0
    7.4623    0.3532    0.0000 H   0  0  0  0  0  0  0  0  0  0  0  0
    3.7320   -3.8777    0.0000 H   0  0  0  0  0  0  0  0  0  0  0  0
    8.5940    3.5789    0.0000 H   0  0  0  0  0  0  0  0  0  0  0  0
    3.7320   -7.1177    0.0000 H   0  0  0  0  0  0  0  0  0  0  0  0
   10.7578    1.1673    0.0000 H   0  0  0  0  0  0  0  0  0  0  0  0
    2.3291   -4.6877    0.0000 H   0  0  0  0  0  0  0  0  0  0  0  0
    8.0908    2.0390    0.0000 H   0  0  0  0  0  0  0  0  0  0  0  0
   11.7608    2.1789    0.0000 H   0  0  0  0  0  0  0  0  0  0  0  0
   12.2396    2.9134    0.0000 H   0  0  0  0  0  0  0  0  0  0  0  0
   11.5051    3.3922    0.0000 H   0  0  0  0  0  0  0  0  0  0  0  0
  1 32  1  0  0  0  0
  2  6  1  0  0  0  0
  2 22  1  0  0  0  0
  3 21  1  0  0  0  0
  3 28  1  0  0  0  0
  4 10  1  0  0  0  0
  4 11  1  0  0  0  0
  4 12  1  0  0  0  0
  5 15  1  0  0  0  0
  5 16  1  0  0  0  0
  5 20  1  0  0  0  0
  6 13  2  0  0  0  0
  7  8  1  0  0  0  0
  7  9  1  0  0  0  0
  7 13  1  0  0  0  0
  7 34  1  0  0  0  0
  8 10  1  0  0  0  0
  8 35  1  0  0  0  0
  8 36  1  0  0  0  0
  9 11  1  0  0  0  0
  9 37  1  0  0  0  0
  9 38  1  0  0  0  0
 10 39  1  0  0  0  0
 10 40  1  0  0  0  0
 11 41  1  0  0  0  0
 11 42  1  0  0  0  0
 12 14  1  0  0  0  0
 12 43  1  0  0  0  0
 12 44  1  0  0  0  0
 13 19  1  0  0  0  0
 14 21  1  0  0  0  0
 14 49  1  0  0  0  0
 14 50  1  0  0  0  0
 15 17  1  0  0  0  0
 15 45  1  0  0  0  0
 15 46  1  0  0  0  0
 16 18  1  0  0  0  0
 16 47  1  0  0  0  0
 16 48  1  0  0  0  0
 17 18  1  0  0  0  0
 17 51  1  0  0  0  0
 17 52  1  0  0  0  0
 18 53  1  0  0  0  0
 18 54  1  0  0  0  0
 19 22  2  0  0  0  0
 19 24  1  0  0  0  0
 20 23  1  0  0  0  0
 20 55  1  0  0  0  0
 20 56  1  0  0  0  0
 21 57  1  0  0  0  0
 21 58  1  0  0  0  0
 22 27  1  0  0  0  0
 23 25  2  0  0  0  0
 23 26  1  0  0  0  0
 24 30  2  0  0  0  0
 24 59  1  0  0  0  0
 25 29  1  0  0  0  0
 25 33  1  0  0  0  0
 26 31  2  0  0  0  0
 26 60  1  0  0  0  0
 27 32  2  0  0  0  0
 27 61  1  0  0  0  0
 28 29  2  0  0  0  0
 28 31  1  0  0  0  0
 29 62  1  0  0  0  0
 30 32  1  0  0  0  0
 30 63  1  0  0  0  0
 31 64  1  0  0  0  0
 33 65  1  0  0  0  0
 33 66  1  0  0  0  0
 33 67  1  0  0  0  0
M  END
> <PUBCHEM_COMPOUND_CID>
164610884

> <PUBCHEM_COMPOUND_CANONICALIZED>
1

> <PUBCHEM_CACTVS_COMPLEXITY>
596

> <PUBCHEM_CACTVS_HBOND_ACCEPTOR>
6

> <PUBCHEM_CACTVS_HBOND_DONOR>
0

> <PUBCHEM_CACTVS_ROTATABLE_BOND>
8

> <PUBCHEM_CACTVS_SUBSKEYS>
AAADcfB7MQAAAAAAAAAAAAAAAAAAAWLAAAA8YIAAAAAAAFgB9AAAHwAEAAAADQzhng4yhtMQBACpA6RyQgCCCAAkIAAomCE+TNoMJrqEtZuGOajmwBmI6ceY2PKOoAABAAAYAABAAAIAADAAAAAAAAAAAA==

> <PUBCHEM_IUPAC_OPENEYE_NAME>
6-fluoro-3-[1-[3-[3-methyl-4-(pyrrolidin-1-ylmethyl)phenoxy]propyl]-4-piperidyl]-1,2-benzoxazole

> <PUBCHEM_IUPAC_CAS_NAME>
6-fluoro-3-[1-[3-[3-methyl-4-(1-pyrrolidinylmethyl)phenoxy]propyl]-4-piperidinyl]-1,2-benzoxazole

> <PUBCHEM_IUPAC_NAME_MARKUP>
6-fluoro-3-[1-[3-[3-methyl-4-(pyrrolidin-1-ylmethyl)phenoxy]propyl]piperidin-4-yl]-1,2-benzoxazole

> <PUBCHEM_IUPAC_NAME>
6-fluoro-3-[1-[3-[3-methyl-4-(pyrrolidin-1-ylmethyl)phenoxy]propyl]piperidin-4-yl]-1,2-benzoxazole

> <PUBCHEM_IUPAC_SYSTEMATIC_NAME>
6-fluoranyl-3-[1-[3-[3-methyl-4-(pyrrolidin-1-ylmethyl)phenoxy]propyl]piperidin-4-yl]-1,2-benzoxazole

> <PUBCHEM_IUPAC_TRADITIONAL_NAME>
6-fluoro-3-[1-[3-[3-methyl-4-(pyrrolidinomethyl)phenoxy]propyl]-4-piperidyl]indoxazene

> <PUBCHEM_IUPAC_INCHI>
InChI=1S/C27H34FN3O2/c1-20-17-24(7-5-22(20)19-31-11-2-3-12-31)32-16-4-13-30-14-9-21(10-15-30)27-25-8-6-23(28)18-26(25)33-29-27/h5-8,17-18,21H,2-4,9-16,19H2,1H3

> <PUBCHEM_IUPAC_INCHIKEY>
HLLYNFMNKJGCNN-UHFFFAOYSA-N

> <PUBCHEM_XLOGP3_AA>
5.1

> <PUBCHEM_EXACT_MASS>
451.26350550

> <PUBCHEM_MOLECULAR_FORMULA>
C27H34FN3O2

> <PUBCHEM_MOLECULAR_WEIGHT>
451.6

> <PUBCHEM_OPENEYE_CAN_SMILES>
CC1=C(C=CC(=C1)OCCCN2CCC(CC2)C3=NOC4=C3C=CC(=C4)F)CN5CCCC5

> <PUBCHEM_OPENEYE_ISO_SMILES>
CC1=C(C=CC(=C1)OCCCN2CCC(CC2)C3=NOC4=C3C=CC(=C4)F)CN5CCCC5

> <PUBCHEM_CACTVS_TPSA>
41.7

> <PUBCHEM_MONOISOTOPIC_WEIGHT>
451.26350550

> <PUBCHEM_TOTAL_CHARGE>
0

> <PUBCHEM_HEAVY_ATOM_COUNT>
33

> <PUBCHEM_ATOM_DEF_STEREO_COUNT>
0

> <PUBCHEM_ATOM_UDEF_STEREO_COUNT>
0

> <PUBCHEM_BOND_DEF_STEREO_COUNT>
0

> <PUBCHEM_BOND_UDEF_STEREO_COUNT>
0

> <PUBCHEM_ISOTOPIC_ATOM_COUNT>
0

> <PUBCHEM_COMPONENT_COUNT>
1

> <PUBCHEM_CACTVS_TAUTO_COUNT>
-1

> <PUBCHEM_COORDINATE_TYPE>
1
5
255

> <PUBCHEM_BONDANNOTATIONS>
13  19  8
19  22  8
19  24  8
2  22  8
2  6  8
22  27  8
23  25  8
23  26  8
24  30  8
25  29  8
26  31  8
27  32  8
28  29  8
28  31  8
30  32  8
6  13  8

$$$$
