137641832
  -OEChem-09292322472D

 36 39  0     0  0  0  0  0  0999 V2000
    4.0745    1.2618    0.0000 S   0  0  0  0  0  0  0  0  0  0  0  0
    5.9710   -2.5252    0.0000 O   0  0  0  0  0  0  0  0  0  0  0  0
    4.9176    1.7995    0.0000 O   0  0  0  0  0  0  0  0  0  0  0  0
    3.2314    0.7240    0.0000 O   0  0  0  0  0  0  0  0  0  0  0  0
    7.7031   -3.5252    0.0000 O   0  0  0  0  0  0  0  0  0  0  0  0
    4.6123    0.4187    0.0000 N   0  0  0  0  0  0  0  0  0  0  0  0
    5.1050   -1.0252    0.0000 C   0  0  0  0  0  0  0  0  0  0  0  0
    4.2110   -0.4906    0.0000 C   0  0  0  0  0  0  0  0  0  0  0  0
    5.9710   -0.5252    0.0000 C   0  0  0  0  0  0  0  0  0  0  0  0
    5.6059    0.3991    0.0000 C   0  0  0  0  0  0  0  0  0  0  0  0
    5.1050   -2.0252    0.0000 C   0  0  0  0  0  0  0  0  0  0  0  0
    3.3050   -1.0044    0.0000 C   0  0  0  0  0  0  0  0  0  0  0  0
    6.8370   -1.0252    0.0000 C   0  0  0  0  0  0  0  0  0  0  0  0
    3.5368    2.1049    0.0000 C   0  0  0  0  0  0  0  0  0  0  0  0
    6.8370   -2.0252    0.0000 C   0  0  0  0  0  0  0  0  0  0  0  0
    4.2110   -2.5599    0.0000 C   0  0  0  0  0  0  0  0  0  0  0  0
    3.3050   -2.0460    0.0000 C   0  0  0  0  0  0  0  0  0  0  0  0
    7.7031   -2.5252    0.0000 C   0  0  0  0  0  0  0  0  0  0  0  0
    2.5378    2.0607    0.0000 C   0  0  0  0  0  0  0  0  0  0  0  0
    3.9980    2.9921    0.0000 C   0  0  0  0  0  0  0  0  0  0  0  0
    2.0000    2.9038    0.0000 C   0  0  0  0  0  0  0  0  0  0  0  0
    3.4603    3.8352    0.0000 C   0  0  0  0  0  0  0  0  0  0  0  0
    2.4613    3.7911    0.0000 C   0  0  0  0  0  0  0  0  0  0  0  0
    5.9596    0.9083    0.0000 H   0  0  0  0  0  0  0  0  0  0  0  0
    2.7692   -0.6923    0.0000 H   0  0  0  0  0  0  0  0  0  0  0  0
    7.3740   -0.7152    0.0000 H   0  0  0  0  0  0  0  0  0  0  0  0
    4.2182   -3.1798    0.0000 H   0  0  0  0  0  0  0  0  0  0  0  0
    2.7692   -2.3581    0.0000 H   0  0  0  0  0  0  0  0  0  0  0  0
    8.3136   -2.6329    0.0000 H   0  0  0  0  0  0  0  0  0  0  0  0
    7.9151   -1.9426    0.0000 H   0  0  0  0  0  0  0  0  0  0  0  0
    2.2518    1.5106    0.0000 H   0  0  0  0  0  0  0  0  0  0  0  0
    4.6174    3.0195    0.0000 H   0  0  0  0  0  0  0  0  0  0  0  0
    1.3806    2.8765    0.0000 H   0  0  0  0  0  0  0  0  0  0  0  0
    3.7463    4.3853    0.0000 H   0  0  0  0  0  0  0  0  0  0  0  0
    2.1279    4.3138    0.0000 H   0  0  0  0  0  0  0  0  0  0  0  0
    8.2400   -3.8352    0.0000 H   0  0  0  0  0  0  0  0  0  0  0  0
  1  3  2  0  0  0  0
  1  4  2  0  0  0  0
  1  6  1  0  0  0  0
  1 14  1  0  0  0  0
  2 11  1  0  0  0  0
  2 15  1  0  0  0  0
  5 18  1  0  0  0  0
  5 36  1  0  0  0  0
  6  8  1  0  0  0  0
  6 10  1  0  0  0  0
  7  8  2  0  0  0  0
  7  9  1  0  0  0  0
  7 11  1  0  0  0  0
  8 12  1  0  0  0  0
  9 10  2  0  0  0  0
  9 13  1  0  0  0  0
 10 24  1  0  0  0  0
 11 16  2  0  0  0  0
 12 17  2  0  0  0  0
 12 25  1  0  0  0  0
 13 15  2  0  0  0  0
 13 26  1  0  0  0  0
 14 19  2  0  0  0  0
 14 20  1  0  0  0  0
 15 18  1  0  0  0  0
 16 17  1  0  0  0  0
 16 27  1  0  0  0  0
 17 28  1  0  0  0  0
 18 29  1  0  0  0  0
 18 30  1  0  0  0  0
 19 21  1  0  0  0  0
 19 31  1  0  0  0  0
 20 22  2  0  0  0  0
 20 32  1  0  0  0  0
 21 23  2  0  0  0  0
 21 33  1  0  0  0  0
 22 23  1  0  0  0  0
 22 34  1  0  0  0  0
 23 35  1  0  0  0  0
M  END
> <PUBCHEM_COMPOUND_CID>
137641832

> <PUBCHEM_COMPOUND_CANONICALIZED>
1

> <PUBCHEM_CACTVS_COMPLEXITY>
576

> <PUBCHEM_CACTVS_HBOND_ACCEPTOR>
4

> <PUBCHEM_CACTVS_HBOND_DONOR>
1

> <PUBCHEM_CACTVS_ROTATABLE_BOND>
3

> <PUBCHEM_CACTVS_SUBSKEYS>
AAADccB6OABAAAAAAAAAAAAAAAAAAWAAAAAwYIAAAAAAAFiB9AAAHgQASAAADAzh3gY8x/IIFgKgAzRnRHDCiDAxIiAI2Dg+bJgNNuLEsZuGOCjmwBnL+Aew0OMOgAAAAgAKAAAAAAAEABQAAAAAAAAAAA==

> <PUBCHEM_IUPAC_OPENEYE_NAME>
[2-(benzenesulfonyl)-7-oxa-2-azatricyclo[6.3.1.04,12]dodeca-1(12),3,5,8,10-pentaen-6-yl]methanol

> <PUBCHEM_IUPAC_CAS_NAME>
[2-(benzenesulfonyl)-7-oxa-2-azatricyclo[6.3.1.04,12]dodeca-1(12),3,5,8,10-pentaen-6-yl]methanol

> <PUBCHEM_IUPAC_NAME_MARKUP>
[2-(benzenesulfonyl)-7-oxa-2-azatricyclo[6.3.1.0<SUP>4,12</SUP>]dodeca-1(12),3,5,8,10-pentaen-6-yl]methanol

> <PUBCHEM_IUPAC_NAME>
[2-(benzenesulfonyl)-7-oxa-2-azatricyclo[6.3.1.04,12]dodeca-1(12),3,5,8,10-pentaen-6-yl]methanol

> <PUBCHEM_IUPAC_SYSTEMATIC_NAME>
[2-(phenylsulfonyl)-7-oxa-2-azatricyclo[6.3.1.04,12]dodeca-1(12),3,5,8,10-pentaen-6-yl]methanol

> <PUBCHEM_IUPAC_TRADITIONAL_NAME>
(2-besyl-7-oxa-2-azatricyclo[6.3.1.04,12]dodeca-1(12),3,5,8,10-pentaen-6-yl)methanol

> <PUBCHEM_IUPAC_INCHI>
InChI=1S/C17H13NO4S/c19-11-13-9-12-10-18(15-7-4-8-16(22-13)17(12)15)23(20,21)14-5-2-1-3-6-14/h1-10,19H,11H2

> <PUBCHEM_IUPAC_INCHIKEY>
VQPQSRJQUBNLTG-UHFFFAOYSA-N

> <PUBCHEM_XLOGP3_AA>
2.5

> <PUBCHEM_EXACT_MASS>
327.05652907

> <PUBCHEM_MOLECULAR_FORMULA>
C17H13NO4S

> <PUBCHEM_MOLECULAR_WEIGHT>
327.4

> <PUBCHEM_OPENEYE_CAN_SMILES>
C1=CC=C(C=C1)S(=O)(=O)N2C=C3C=C(OC4=CC=CC2=C43)CO

> <PUBCHEM_OPENEYE_ISO_SMILES>
C1=CC=C(C=C1)S(=O)(=O)N2C=C3C=C(OC4=CC=CC2=C43)CO

> <PUBCHEM_CACTVS_TPSA>
76.9

> <PUBCHEM_MONOISOTOPIC_WEIGHT>
327.05652907

> <PUBCHEM_TOTAL_CHARGE>
0

> <PUBCHEM_HEAVY_ATOM_COUNT>
23

> <PUBCHEM_ATOM_DEF_STEREO_COUNT>
0

> <PUBCHEM_ATOM_UDEF_STEREO_COUNT>
0

> <PUBCHEM_BOND_DEF_STEREO_COUNT>
0

> <PUBCHEM_BOND_UDEF_STEREO_COUNT>
0

> <PUBCHEM_ISOTOPIC_ATOM_COUNT>
0

> <PUBCHEM_COMPONENT_COUNT>
1

> <PUBCHEM_CACTVS_TAUTO_COUNT>
-1

> <PUBCHEM_COORDINATE_TYPE>
1
5
255

> <PUBCHEM_BONDANNOTATIONS>
11  16  8
12  17  8
14  19  8
14  20  8
16  17  8
19  21  8
20  22  8
21  23  8
22  23  8
6  10  8
6  8  8
7  11  8
7  8  8
7  9  8
8  12  8
9  10  8

$$$$
