11721190
  -OEChem-09292322232D

 76 82  0     1  0  0  0  0  0999 V2000
    9.0604    1.7928    0.0000 S   0  0  0  0  0  0  0  0  0  0  0  0
   16.6800   -1.1064    0.0000 O   0  0  0  0  0  0  0  0  0  0  0  0
   12.0604    0.0607    0.0000 N   0  0  3  0  0  0  0  0  0  0  0  0
   15.2862   -1.9111    0.0000 N   0  0  0  0  0  0  0  0  0  0  0  0
   16.3682   -3.7937    0.0000 N   0  0  0  0  0  0  0  0  0  0  0  0
    7.4726    2.6018    0.0000 N   0  0  0  0  0  0  0  0  0  0  0  0
   17.1113   -4.4629    0.0000 N   0  0  0  0  0  0  0  0  0  0  0  0
    7.4726    0.9837    0.0000 N   0  0  0  0  0  0  0  0  0  0  0  0
    6.5215    1.2928    0.0000 N   0  0  0  0  0  0  0  0  0  0  0  0
    3.0320    2.6526    0.0000 N   0  0  0  0  0  0  0  0  0  0  0  0
   12.4847   -0.8235    0.0000 C   0  0  0  0  0  0  0  0  0  0  0  0
   12.4847    0.9450    0.0000 C   0  0  0  0  0  0  0  0  0  0  0  0
   13.4401   -1.0456    0.0000 C   0  0  0  0  0  0  0  0  0  0  0  0
   13.4401    1.1671    0.0000 C   0  0  0  0  0  0  0  0  0  0  0  0
   14.2110   -0.4393    0.0000 C   0  0  0  0  0  0  0  0  0  0  0  0
   14.2110    0.5607    0.0000 C   0  0  0  0  0  0  0  0  0  0  0  0
   11.0604    0.0607    0.0000 C   0  0  0  0  0  0  0  0  0  0  0  0
   15.0770   -0.9393    0.0000 C   0  0  0  0  0  0  0  0  0  0  0  0
   10.5604    0.9267    0.0000 C   0  0  0  0  0  0  0  0  0  0  0  0
   15.0770    1.0607    0.0000 C   0  0  0  0  0  0  0  0  0  0  0  0
   15.9430   -0.4393    0.0000 C   0  0  0  0  0  0  0  0  0  0  0  0
   15.9430    0.5607    0.0000 C   0  0  0  0  0  0  0  0  0  0  0  0
    9.5604    0.9267    0.0000 C   0  0  0  0  0  0  0  0  0  0  0  0
   16.2749   -2.0142    0.0000 C   0  0  0  0  0  0  0  0  0  0  0  0
   16.7749   -2.8802    0.0000 C   0  0  0  0  0  0  0  0  0  0  0  0
    8.0604    1.7928    0.0000 C   0  0  0  0  0  0  0  0  0  0  0  0
   17.7694   -2.9847    0.0000 C   0  0  0  0  0  0  0  0  0  0  0  0
   17.9774   -3.9629    0.0000 C   0  0  0  0  0  0  0  0  0  0  0  0
    6.5215    2.2928    0.0000 C   0  0  0  0  0  0  0  0  0  0  0  0
   15.3900   -4.0016    0.0000 C   0  0  0  0  0  0  0  0  0  0  0  0
    5.7125    2.8806    0.0000 C   0  0  0  0  0  0  0  0  0  0  0  0
    4.7990    2.4738    0.0000 C   0  0  0  0  0  0  0  0  0  0  0  0
    7.7816    3.5528    0.0000 C   0  0  0  0  0  0  0  0  0  0  0  0
   18.8909   -4.3696    0.0000 C   0  0  0  0  0  0  0  0  0  0  0  0
    3.9900    3.0616    0.0000 C   0  0  0  0  0  0  0  0  0  0  0  0
    5.8171    3.8751    0.0000 C   0  0  0  0  0  0  0  0  0  0  0  0
    4.7061    1.4363    0.0000 C   0  0  0  0  0  0  0  0  0  0  0  0
    4.0945    4.0561    0.0000 C   0  0  0  0  0  0  0  0  0  0  0  0
    5.0080    4.4629    0.0000 C   0  0  0  0  0  0  0  0  0  0  0  0
    3.7578    1.0053    0.0000 C   0  0  0  0  0  0  0  0  0  0  0  0
    2.9151    1.6176    0.0000 C   0  0  0  0  0  0  0  0  0  0  0  0
    2.0000    1.2144    0.0000 C   0  0  0  0  0  0  0  0  0  0  0  0
   11.8800   -0.9601    0.0000 H   0  0  0  0  0  0  0  0  0  0  0  0
   12.4828   -1.4435    0.0000 H   0  0  0  0  0  0  0  0  0  0  0  0
   12.4828    1.5650    0.0000 H   0  0  0  0  0  0  0  0  0  0  0  0
   11.8800    1.0816    0.0000 H   0  0  0  0  0  0  0  0  0  0  0  0
   13.1683   -1.6029    0.0000 H   0  0  0  0  0  0  0  0  0  0  0  0
   13.9225   -1.4350    0.0000 H   0  0  0  0  0  0  0  0  0  0  0  0
   13.9225    1.5564    0.0000 H   0  0  0  0  0  0  0  0  0  0  0  0
   13.1683    1.7243    0.0000 H   0  0  0  0  0  0  0  0  0  0  0  0
   10.4778   -0.1513    0.0000 H   0  0  0  0  0  0  0  0  0  0  0  0
   11.1680   -0.5499    0.0000 H   0  0  0  0  0  0  0  0  0  0  0  0
   11.1430    1.1388    0.0000 H   0  0  0  0  0  0  0  0  0  0  0  0
   10.4527    1.5373    0.0000 H   0  0  0  0  0  0  0  0  0  0  0  0
   15.0770    1.6807    0.0000 H   0  0  0  0  0  0  0  0  0  0  0  0
   16.4800    0.8707    0.0000 H   0  0  0  0  0  0  0  0  0  0  0  0
    8.9778    0.7147    0.0000 H   0  0  0  0  0  0  0  0  0  0  0  0
    9.6680    0.3162    0.0000 H   0  0  0  0  0  0  0  0  0  0  0  0
   18.1843   -2.5240    0.0000 H   0  0  0  0  0  0  0  0  0  0  0  0
   15.2611   -3.3952    0.0000 H   0  0  0  0  0  0  0  0  0  0  0  0
   14.7836   -4.1305    0.0000 H   0  0  0  0  0  0  0  0  0  0  0  0
   15.5189   -4.6081    0.0000 H   0  0  0  0  0  0  0  0  0  0  0  0
    8.3713    3.3612    0.0000 H   0  0  0  0  0  0  0  0  0  0  0  0
    7.9732    4.1425    0.0000 H   0  0  0  0  0  0  0  0  0  0  0  0
    7.1920    3.7444    0.0000 H   0  0  0  0  0  0  0  0  0  0  0  0
   18.6387   -4.9360    0.0000 H   0  0  0  0  0  0  0  0  0  0  0  0
   19.4573   -4.6218    0.0000 H   0  0  0  0  0  0  0  0  0  0  0  0
   19.1431   -3.8032    0.0000 H   0  0  0  0  0  0  0  0  0  0  0  0
    6.3834    4.1272    0.0000 H   0  0  0  0  0  0  0  0  0  0  0  0
    5.2119    1.0777    0.0000 H   0  0  0  0  0  0  0  0  0  0  0  0
    3.5929    4.4206    0.0000 H   0  0  0  0  0  0  0  0  0  0  0  0
    5.0728    5.0795    0.0000 H   0  0  0  0  0  0  0  0  0  0  0  0
    3.6954    0.3885    0.0000 H   0  0  0  0  0  0  0  0  0  0  0  0
    1.7500    1.7818    0.0000 H   0  0  0  0  0  0  0  0  0  0  0  0
    1.4326    0.9644    0.0000 H   0  0  0  0  0  0  0  0  0  0  0  0
    2.2500    0.6470    0.0000 H   0  0  0  0  0  0  0  0  0  0  0  0
  1 23  1  0  0  0  0
  1 26  1  0  0  0  0
  2 21  1  0  0  0  0
  2 24  1  0  0  0  0
  3 11  1  0  0  0  0
  3 12  1  0  0  0  0
  3 17  1  0  0  0  0
  4 18  1  0  0  0  0
  4 24  2  0  0  0  0
  5  7  1  0  0  0  0
  5 25  1  0  0  0  0
  5 30  1  0  0  0  0
  6 26  1  0  0  0  0
  6 29  1  0  0  0  0
  6 33  1  0  0  0  0
  7 28  2  0  0  0  0
  8  9  1  0  0  0  0
  8 26  2  0  0  0  0
  9 29  2  0  0  0  0
 10 35  1  0  0  0  0
 10 41  2  0  0  0  0
 11 13  1  0  0  0  0
 11 43  1  0  0  0  0
 11 44  1  0  0  0  0
 12 14  1  0  0  0  0
 12 45  1  0  0  0  0
 12 46  1  0  0  0  0
 13 15  1  0  0  0  0
 13 47  1  0  0  0  0
 13 48  1  0  0  0  0
 14 16  1  0  0  0  0
 14 49  1  0  0  0  0
 14 50  1  0  0  0  0
 15 16  2  0  0  0  0
 15 18  1  0  0  0  0
 16 20  1  0  0  0  0
 17 19  1  0  0  0  0
 17 51  1  0  0  0  0
 17 52  1  0  0  0  0
 18 21  2  0  0  0  0
 19 23  1  0  0  0  0
 19 53  1  0  0  0  0
 19 54  1  0  0  0  0
 20 22  2  0  0  0  0
 20 55  1  0  0  0  0
 21 22  1  0  0  0  0
 22 56  1  0  0  0  0
 23 57  1  0  0  0  0
 23 58  1  0  0  0  0
 24 25  1  0  0  0  0
 25 27  2  0  0  0  0
 27 28  1  0  0  0  0
 27 59  1  0  0  0  0
 28 34  1  0  0  0  0
 29 31  1  0  0  0  0
 30 60  1  0  0  0  0
 30 61  1  0  0  0  0
 30 62  1  0  0  0  0
 31 32  2  0  0  0  0
 31 36  1  0  0  0  0
 32 35  1  0  0  0  0
 32 37  1  0  0  0  0
 33 63  1  0  0  0  0
 33 64  1  0  0  0  0
 33 65  1  0  0  0  0
 34 66  1  0  0  0  0
 34 67  1  0  0  0  0
 34 68  1  0  0  0  0
 35 38  2  0  0  0  0
 36 39  2  0  0  0  0
 36 69  1  0  0  0  0
 37 40  2  0  0  0  0
 37 70  1  0  0  0  0
 38 39  1  0  0  0  0
 38 71  1  0  0  0  0
 39 72  1  0  0  0  0
 40 41  1  0  0  0  0
 40 73  1  0  0  0  0
 41 42  1  0  0  0  0
 42 74  1  0  0  0  0
 42 75  1  0  0  0  0
 42 76  1  0  0  0  0
M  END
> <PUBCHEM_COMPOUND_CID>
11721190

> <PUBCHEM_COMPOUND_CANONICALIZED>
1

> <PUBCHEM_CACTVS_COMPLEXITY>
901

> <PUBCHEM_CACTVS_HBOND_ACCEPTOR>
8

> <PUBCHEM_CACTVS_HBOND_DONOR>
0

> <PUBCHEM_CACTVS_ROTATABLE_BOND>
7

> <PUBCHEM_CACTVS_SUBSKEYS>
AAADcfB/4ABAAAAAAAAAAAAAAAAAAWLFgAA8YIAABYAAAFix/gAAHgQIAAAADAzF3wSz1vcMFEiqA6dydASS3Ctv4rAd2CG/bNiObvLk/fufvSjkzBPY6Ye82fKOoAABQAASEABAAAKAACQgAAAAAAAAAA==

> <PUBCHEM_IUPAC_OPENEYE_NAME>
2-(2,5-dimethylpyrazol-3-yl)-8-[3-[[4-methyl-5-(2-methyl-5-quinolyl)-1,2,4-triazol-3-yl]sulfanyl]propyl]-6,7,9,10-tetrahydrooxazolo[5,4-i][3]benzazepine

> <PUBCHEM_IUPAC_CAS_NAME>
2-(2,5-dimethyl-3-pyrazolyl)-8-[3-[[4-methyl-5-(2-methyl-5-quinolinyl)-1,2,4-triazol-3-yl]thio]propyl]-6,7,9,10-tetrahydrooxazolo[5,4-i][3]benzazepine

> <PUBCHEM_IUPAC_NAME_MARKUP>
2-(2,5-dimethylpyrazol-3-yl)-8-[3-[[4-methyl-5-(2-methylquinolin-5-yl)-1,2,4-triazol-3-yl]sulfanyl]propyl]-6,7,9,10-tetrahydro-[1,3]oxazolo[5,4-i][3]benzazepine

> <PUBCHEM_IUPAC_NAME>
2-(2,5-dimethylpyrazol-3-yl)-8-[3-[[4-methyl-5-(2-methylquinolin-5-yl)-1,2,4-triazol-3-yl]sulfanyl]propyl]-6,7,9,10-tetrahydro-[1,3]oxazolo[5,4-i][3]benzazepine

> <PUBCHEM_IUPAC_SYSTEMATIC_NAME>
2-(2,5-dimethylpyrazol-3-yl)-8-[3-[[4-methyl-5-(2-methylquinolin-5-yl)-1,2,4-triazol-3-yl]sulfanyl]propyl]-6,7,9,10-tetrahydro-[1,3]oxazolo[5,4-i][3]benzazepine

> <PUBCHEM_IUPAC_TRADITIONAL_NAME>
2-(2,5-dimethylpyrazol-3-yl)-8-[3-[[4-methyl-5-(2-methyl-5-quinolyl)-1,2,4-triazol-3-yl]thio]propyl]-6,7,9,10-tetrahydrooxazolo[5,4-i][3]benzazepine

> <PUBCHEM_IUPAC_INCHI>
InChI=1S/C32H34N8OS/c1-20-9-11-24-25(7-5-8-26(24)33-20)30-35-36-32(38(30)3)42-18-6-15-40-16-13-22-10-12-28-29(23(22)14-17-40)34-31(41-28)27-19-21(2)37-39(27)4/h5,7-12,19H,6,13-18H2,1-4H3

> <PUBCHEM_IUPAC_INCHIKEY>
NZPLLWYDJFVQEH-UHFFFAOYSA-N

> <PUBCHEM_XLOGP3_AA>
5.2

> <PUBCHEM_EXACT_MASS>
578.25762891

> <PUBCHEM_MOLECULAR_FORMULA>
C32H34N8OS

> <PUBCHEM_MOLECULAR_WEIGHT>
578.7

> <PUBCHEM_OPENEYE_CAN_SMILES>
CC1=NC2=CC=CC(=C2C=C1)C3=NN=C(N3C)SCCCN4CCC5=C(CC4)C6=C(C=C5)OC(=N6)C7=CC(=NN7C)C

> <PUBCHEM_OPENEYE_ISO_SMILES>
CC1=NC2=CC=CC(=C2C=C1)C3=NN=C(N3C)SCCCN4CCC5=C(CC4)C6=C(C=C5)OC(=N6)C7=CC(=NN7C)C

> <PUBCHEM_CACTVS_TPSA>
116

> <PUBCHEM_MONOISOTOPIC_WEIGHT>
578.25762891

> <PUBCHEM_TOTAL_CHARGE>
0

> <PUBCHEM_HEAVY_ATOM_COUNT>
42

> <PUBCHEM_ATOM_DEF_STEREO_COUNT>
0

> <PUBCHEM_ATOM_UDEF_STEREO_COUNT>
0

> <PUBCHEM_BOND_DEF_STEREO_COUNT>
0

> <PUBCHEM_BOND_UDEF_STEREO_COUNT>
0

> <PUBCHEM_ISOTOPIC_ATOM_COUNT>
0

> <PUBCHEM_COMPONENT_COUNT>
1

> <PUBCHEM_CACTVS_TAUTO_COUNT>
-1

> <PUBCHEM_COORDINATE_TYPE>
1
5
255

> <PUBCHEM_BONDANNOTATIONS>
10  35  8
10  41  8
15  16  8
15  18  8
16  20  8
18  21  8
2  21  8
2  24  8
20  22  8
21  22  8
25  27  8
27  28  8
31  32  8
31  36  8
32  35  8
32  37  8
35  38  8
36  39  8
37  40  8
38  39  8
4  18  8
4  24  8
40  41  8
5  25  8
5  7  8
6  26  8
6  29  8
7  28  8
8  26  8
8  9  8
9  29  8

$$$$
