122180955
  -OEChem-09292322362D

 52 54  0     1  0  0  0  0  0999 V2000
   10.7619   -3.8971    0.0000 F   0  0  0  0  0  0  0  0  0  0  0  0
   12.7619   -3.8971    0.0000 F   0  0  0  0  0  0  0  0  0  0  0  0
    9.7619    1.2990    0.0000 O   0  0  0  0  0  0  0  0  0  0  0  0
    6.2619    2.1651    0.0000 N   0  0  3  0  0  0  0  0  0  0  0  0
    8.2619    0.4330    0.0000 N   0  0  0  0  0  0  0  0  0  0  0  0
    9.7619   -0.4330    0.0000 N   0  0  0  0  0  0  0  0  0  0  0  0
   10.7619   -0.4330    0.0000 N   0  0  0  0  0  0  0  0  0  0  0  0
    5.2619    2.1651    0.0000 C   0  0  0  0  0  0  0  0  0  0  0  0
    4.6783    1.3603    0.0000 C   0  0  0  0  0  0  0  0  0  0  0  0
    4.6783    2.9698    0.0000 C   0  0  0  0  0  0  0  0  0  0  0  0
    3.7320    1.6651    0.0000 C   0  0  0  0  0  0  0  0  0  0  0  0
    3.7320    2.6651    0.0000 C   0  0  0  0  0  0  0  0  0  0  0  0
    6.7619    3.0311    0.0000 C   0  0  0  0  0  0  0  0  0  0  0  0
    6.7619    1.2990    0.0000 C   0  0  0  0  0  0  0  0  0  0  0  0
    2.8660    1.1651    0.0000 C   0  0  0  0  0  0  0  0  0  0  0  0
    2.8660    3.1651    0.0000 C   0  0  0  0  0  0  0  0  0  0  0  0
    7.7619    3.0311    0.0000 C   0  0  0  0  0  0  0  0  0  0  0  0
    7.7619    1.2990    0.0000 C   0  0  0  0  0  0  0  0  0  0  0  0
    2.0000    1.6651    0.0000 C   0  0  0  0  0  0  0  0  0  0  0  0
    2.0000    2.6651    0.0000 C   0  0  0  0  0  0  0  0  0  0  0  0
    8.2619    3.8971    0.0000 C   0  0  0  0  0  0  0  0  0  0  0  0
    9.2619    0.4330    0.0000 C   0  0  0  0  0  0  0  0  0  0  0  0
   11.2619   -1.2990    0.0000 C   0  0  0  0  0  0  0  0  0  0  0  0
   10.7619   -2.1651    0.0000 C   0  0  0  0  0  0  0  0  0  0  0  0
   12.2619   -1.2990    0.0000 C   0  0  0  0  0  0  0  0  0  0  0  0
   11.2619   -3.0311    0.0000 C   0  0  0  0  0  0  0  0  0  0  0  0
   12.7619   -2.1651    0.0000 C   0  0  0  0  0  0  0  0  0  0  0  0
   12.2619   -3.0311    0.0000 C   0  0  0  0  0  0  0  0  0  0  0  0
    5.5436    2.7174    0.0000 H   0  0  0  0  0  0  0  0  0  0  0  0
    4.4272    0.7934    0.0000 H   0  0  0  0  0  0  0  0  0  0  0  0
    5.2156    1.0511    0.0000 H   0  0  0  0  0  0  0  0  0  0  0  0
    5.2156    3.2790    0.0000 H   0  0  0  0  0  0  0  0  0  0  0  0
    4.4272    3.5367    0.0000 H   0  0  0  0  0  0  0  0  0  0  0  0
    6.8695    3.6417    0.0000 H   0  0  0  0  0  0  0  0  0  0  0  0
    6.1793    3.2431    0.0000 H   0  0  0  0  0  0  0  0  0  0  0  0
    6.1793    1.0870    0.0000 H   0  0  0  0  0  0  0  0  0  0  0  0
    6.8695    0.6885    0.0000 H   0  0  0  0  0  0  0  0  0  0  0  0
    2.8660    0.5451    0.0000 H   0  0  0  0  0  0  0  0  0  0  0  0
    2.8660    3.7851    0.0000 H   0  0  0  0  0  0  0  0  0  0  0  0
    7.6542    2.4205    0.0000 H   0  0  0  0  0  0  0  0  0  0  0  0
    8.3445    2.8190    0.0000 H   0  0  0  0  0  0  0  0  0  0  0  0
    8.3445    1.5111    0.0000 H   0  0  0  0  0  0  0  0  0  0  0  0
    7.6542    1.9096    0.0000 H   0  0  0  0  0  0  0  0  0  0  0  0
    1.4631    1.3551    0.0000 H   0  0  0  0  0  0  0  0  0  0  0  0
    1.4631    2.9751    0.0000 H   0  0  0  0  0  0  0  0  0  0  0  0
    8.7988    3.5871    0.0000 H   0  0  0  0  0  0  0  0  0  0  0  0
    8.5719    4.4340    0.0000 H   0  0  0  0  0  0  0  0  0  0  0  0
    7.7249    4.2071    0.0000 H   0  0  0  0  0  0  0  0  0  0  0  0
    7.9519   -0.1039    0.0000 H   0  0  0  0  0  0  0  0  0  0  0  0
   10.1419   -2.1651    0.0000 H   0  0  0  0  0  0  0  0  0  0  0  0
   12.5719   -0.7621    0.0000 H   0  0  0  0  0  0  0  0  0  0  0  0
   13.3819   -2.1651    0.0000 H   0  0  0  0  0  0  0  0  0  0  0  0
  1 26  1  0  0  0  0
  2 28  1  0  0  0  0
  3 22  2  0  0  0  0
  4  8  1  0  0  0  0
  4 13  1  0  0  0  0
  4 14  1  0  0  0  0
  5 18  1  0  0  0  0
  5 22  1  0  0  0  0
  5 49  1  0  0  0  0
  6  7  2  0  0  0  0
  6 22  1  0  0  0  0
  7 23  1  0  0  0  0
  8  9  1  0  0  0  0
  8 10  1  0  0  0  0
  8 29  1  0  0  0  0
  9 11  1  0  0  0  0
  9 30  1  0  0  0  0
  9 31  1  0  0  0  0
 10 12  1  0  0  0  0
 10 32  1  0  0  0  0
 10 33  1  0  0  0  0
 11 12  1  0  0  0  0
 11 15  2  0  0  0  0
 12 16  2  0  0  0  0
 13 17  1  0  0  0  0
 13 34  1  0  0  0  0
 13 35  1  0  0  0  0
 14 18  1  0  0  0  0
 14 36  1  0  0  0  0
 14 37  1  0  0  0  0
 15 19  1  0  0  0  0
 15 38  1  0  0  0  0
 16 20  1  0  0  0  0
 16 39  1  0  0  0  0
 17 21  1  0  0  0  0
 17 40  1  0  0  0  0
 17 41  1  0  0  0  0
 18 42  1  0  0  0  0
 18 43  1  0  0  0  0
 19 20  2  0  0  0  0
 19 44  1  0  0  0  0
 20 45  1  0  0  0  0
 21 46  1  0  0  0  0
 21 47  1  0  0  0  0
 21 48  1  0  0  0  0
 23 24  2  0  0  0  0
 23 25  1  0  0  0  0
 24 26  1  0  0  0  0
 24 50  1  0  0  0  0
 25 27  2  0  0  0  0
 25 51  1  0  0  0  0
 26 28  2  0  0  0  0
 27 28  1  0  0  0  0
 27 52  1  0  0  0  0
M  END
> <PUBCHEM_COMPOUND_CID>
122180955

> <PUBCHEM_COMPOUND_CANONICALIZED>
1

> <PUBCHEM_CACTVS_COMPLEXITY>
519

> <PUBCHEM_CACTVS_HBOND_ACCEPTOR>
5

> <PUBCHEM_CACTVS_HBOND_DONOR>
1

> <PUBCHEM_CACTVS_ROTATABLE_BOND>
7

> <PUBCHEM_CACTVS_SUBSKEYS>
AAADceB7oYAAAAAAAAAAAAAAAAAAAYAAAAAwYAAAAAAAAGABQAAAHwAYAAAADCjBGAwzwIPAAACKAiRCUACCAAAgAgAIiIAIZIiIYCKAkZGUIABglgKIyAcQgIAOgAAAAAAQAAAAAAAAACAAACAACAAAAA==

> <PUBCHEM_IUPAC_OPENEYE_NAME>
1-(3,4-difluorophenyl)imino-3-[2-[indan-2-yl(propyl)amino]ethyl]urea

> <PUBCHEM_IUPAC_CAS_NAME>
1-(3,4-difluorophenyl)imino-3-[2-[2,3-dihydro-1H-inden-2-yl(propyl)amino]ethyl]urea

> <PUBCHEM_IUPAC_NAME_MARKUP>
1-(3,4-difluorophenyl)imino-3-[2-[2,3-dihydro-1<I>H</I>-inden-2-yl(propyl)amino]ethyl]urea

> <PUBCHEM_IUPAC_NAME>
1-(3,4-difluorophenyl)imino-3-[2-[2,3-dihydro-1H-inden-2-yl(propyl)amino]ethyl]urea

> <PUBCHEM_IUPAC_SYSTEMATIC_NAME>
1-[3,4-bis(fluoranyl)phenyl]imino-3-[2-[2,3-dihydro-1H-inden-2-yl(propyl)amino]ethyl]urea

> <PUBCHEM_IUPAC_TRADITIONAL_NAME>
1-(3,4-difluorophenyl)imino-3-[2-[indan-2-yl(propyl)amino]ethyl]urea

> <PUBCHEM_IUPAC_INCHI>
InChI=1S/C21H24F2N4O/c1-2-10-27(18-12-15-5-3-4-6-16(15)13-18)11-9-24-21(28)26-25-17-7-8-19(22)20(23)14-17/h3-8,14,18H,2,9-13H2,1H3,(H,24,28)

> <PUBCHEM_IUPAC_INCHIKEY>
WOOHCDFWINCKHH-UHFFFAOYSA-N

> <PUBCHEM_XLOGP3_AA>
4.9

> <PUBCHEM_EXACT_MASS>
386.19181773

> <PUBCHEM_MOLECULAR_FORMULA>
C21H24F2N4O

> <PUBCHEM_MOLECULAR_WEIGHT>
386.4

> <PUBCHEM_OPENEYE_CAN_SMILES>
CCCN(CCNC(=O)N=NC1=CC(=C(C=C1)F)F)C2CC3=CC=CC=C3C2

> <PUBCHEM_OPENEYE_ISO_SMILES>
CCCN(CCNC(=O)N=NC1=CC(=C(C=C1)F)F)C2CC3=CC=CC=C3C2

> <PUBCHEM_CACTVS_TPSA>
57.1

> <PUBCHEM_MONOISOTOPIC_WEIGHT>
386.19181773

> <PUBCHEM_TOTAL_CHARGE>
0

> <PUBCHEM_HEAVY_ATOM_COUNT>
28

> <PUBCHEM_ATOM_DEF_STEREO_COUNT>
0

> <PUBCHEM_ATOM_UDEF_STEREO_COUNT>
0

> <PUBCHEM_BOND_DEF_STEREO_COUNT>
0

> <PUBCHEM_BOND_UDEF_STEREO_COUNT>
0

> <PUBCHEM_ISOTOPIC_ATOM_COUNT>
0

> <PUBCHEM_COMPONENT_COUNT>
1

> <PUBCHEM_CACTVS_TAUTO_COUNT>
-1

> <PUBCHEM_COORDINATE_TYPE>
1
5
255

> <PUBCHEM_BONDANNOTATIONS>
11  12  8
11  15  8
12  16  8
15  19  8
16  20  8
19  20  8
23  24  8
23  25  8
24  26  8
25  27  8
26  28  8
27  28  8

$$$$
