10004545
  -OEChem-09292322322D

 66 70  0     1  0  0  0  0  0999 V2000
    3.4903   -0.8790    0.0000 F   0  0  0  0  0  0  0  0  0  0  0  0
    2.0782   -0.9573    0.0000 F   0  0  0  0  0  0  0  0  0  0  0  0
    2.0000    0.4548    0.0000 F   0  0  0  0  0  0  0  0  0  0  0  0
   13.0578   -0.1430    0.0000 O   0  0  0  0  0  0  0  0  0  0  0  0
   11.4126    0.3986    0.0000 O   0  0  0  0  0  0  0  0  0  0  0  0
    9.4548   -0.0097    0.0000 N   0  0  3  0  0  0  0  0  0  0  0  0
    5.6053    2.6349    0.0000 N   0  0  0  0  0  0  0  0  0  0  0  0
    7.7493    0.5664    0.0000 C   0  0  1  0  0  0  0  0  0  0  0  0
    8.0583    1.5174    0.0000 C   0  0  2  0  0  0  0  0  0  0  0  0
    6.7711    0.3584    0.0000 C   0  0  2  0  0  0  0  0  0  0  0  0
    8.4342   -0.2184    0.0000 C   0  0  0  0  0  0  0  0  0  0  0  0
    9.0737    1.7497    0.0000 C   0  0  0  0  0  0  0  0  0  0  0  0
    7.3892    2.2606    0.0000 C   0  0  0  0  0  0  0  0  0  0  0  0
    9.7766    0.9810    0.0000 C   0  0  0  0  0  0  0  0  0  0  0  0
    6.1020    1.1016    0.0000 C   0  0  0  0  0  0  0  0  0  0  0  0
    6.4110    2.0526    0.0000 C   0  0  0  0  0  0  0  0  0  0  0  0
   10.1210   -0.7554    0.0000 C   0  0  0  0  0  0  0  0  0  0  0  0
   11.7662   -1.2970    0.0000 C   0  0  0  0  0  0  0  0  0  0  0  0
   11.1000   -0.5513    0.0000 C   0  0  0  0  0  0  0  0  0  0  0  0
    6.4621   -0.5926    0.0000 C   0  0  0  0  0  0  0  0  0  0  0  0
    5.1079    1.1042    0.0000 C   0  0  0  0  0  0  0  0  0  0  0  0
   11.0205   -1.9632    0.0000 C   0  0  0  0  0  0  0  0  0  0  0  0
   12.7161   -1.6096    0.0000 C   0  0  0  0  0  0  0  0  0  0  0  0
    4.8016    2.0499    0.0000 C   0  0  0  0  0  0  0  0  0  0  0  0
   11.2246   -2.9422    0.0000 C   0  0  0  0  0  0  0  0  0  0  0  0
   12.9202   -2.5886    0.0000 C   0  0  0  0  0  0  0  0  0  0  0  0
   12.1745   -3.2549    0.0000 C   0  0  0  0  0  0  0  0  0  0  0  0
   12.0789   -0.3471    0.0000 C   0  0  0  0  0  0  0  0  0  0  0  0
    4.4263    0.3247    0.0000 C   0  0  0  0  0  0  0  0  0  0  0  0
    3.7924    2.2816    0.0000 C   0  0  0  0  0  0  0  0  0  0  0  0
    3.4120    0.5330    0.0000 C   0  0  0  0  0  0  0  0  0  0  0  0
    3.0929    1.5181    0.0000 C   0  0  0  0  0  0  0  0  0  0  0  0
    2.7451   -0.2121    0.0000 C   0  0  0  0  0  0  0  0  0  0  0  0
    7.4804   -0.2400    0.0000 H   0  0  0  0  0  0  0  0  0  0  0  0
    8.3147    2.3278    0.0000 H   0  0  0  0  0  0  0  0  0  0  0  0
    6.1647    0.2295    0.0000 H   0  0  0  0  0  0  0  0  0  0  0  0
    7.9043   -0.5402    0.0000 H   0  0  0  0  0  0  0  0  0  0  0  0
    8.6606   -0.7956    0.0000 H   0  0  0  0  0  0  0  0  0  0  0  0
    9.5961    2.0836    0.0000 H   0  0  0  0  0  0  0  0  0  0  0  0
    8.8341    2.3215    0.0000 H   0  0  0  0  0  0  0  0  0  0  0  0
    7.9150    2.5891    0.0000 H   0  0  0  0  0  0  0  0  0  0  0  0
    7.1569    2.8354    0.0000 H   0  0  0  0  0  0  0  0  0  0  0  0
   10.3248    0.6913    0.0000 H   0  0  0  0  0  0  0  0  0  0  0  0
   10.1558    1.4715    0.0000 H   0  0  0  0  0  0  0  0  0  0  0  0
    9.5940   -1.0819    0.0000 H   0  0  0  0  0  0  0  0  0  0  0  0
   10.3511   -1.3311    0.0000 H   0  0  0  0  0  0  0  0  0  0  0  0
   11.6270   -0.2247    0.0000 H   0  0  0  0  0  0  0  0  0  0  0  0
   10.8699    0.0245    0.0000 H   0  0  0  0  0  0  0  0  0  0  0  0
    5.8725   -0.4010    0.0000 H   0  0  0  0  0  0  0  0  0  0  0  0
    6.2705   -1.1823    0.0000 H   0  0  0  0  0  0  0  0  0  0  0  0
    7.0518   -0.7842    0.0000 H   0  0  0  0  0  0  0  0  0  0  0  0
   10.6940   -1.4362    0.0000 H   0  0  0  0  0  0  0  0  0  0  0  0
   10.4448   -2.1933    0.0000 H   0  0  0  0  0  0  0  0  0  0  0  0
   13.3358   -1.5904    0.0000 H   0  0  0  0  0  0  0  0  0  0  0  0
   12.8047   -0.9960    0.0000 H   0  0  0  0  0  0  0  0  0  0  0  0
    5.6042    3.2549    0.0000 H   0  0  0  0  0  0  0  0  0  0  0  0
   10.6049   -2.9614    0.0000 H   0  0  0  0  0  0  0  0  0  0  0  0
   11.1360   -3.5558    0.0000 H   0  0  0  0  0  0  0  0  0  0  0  0
   13.2467   -3.1156    0.0000 H   0  0  0  0  0  0  0  0  0  0  0  0
   13.4960   -2.3586    0.0000 H   0  0  0  0  0  0  0  0  0  0  0  0
   11.8813   -3.8012    0.0000 H   0  0  0  0  0  0  0  0  0  0  0  0
   12.6616   -3.6384    0.0000 H   0  0  0  0  0  0  0  0  0  0  0  0
    4.6242   -0.2629    0.0000 H   0  0  0  0  0  0  0  0  0  0  0  0
    3.6081    2.8736    0.0000 H   0  0  0  0  0  0  0  0  0  0  0  0
    2.4871    1.6498    0.0000 H   0  0  0  0  0  0  0  0  0  0  0  0
   13.2517    0.4459    0.0000 H   0  0  0  0  0  0  0  0  0  0  0  0
  1 33  1  0  0  0  0
  2 33  1  0  0  0  0
  3 33  1  0  0  0  0
  4 28  1  0  0  0  0
  4 66  1  0  0  0  0
  5 28  2  0  0  0  0
  6 11  1  0  0  0  0
  6 14  1  0  0  0  0
  6 17  1  0  0  0  0
  7 16  1  0  0  0  0
  7 24  1  0  0  0  0
  7 56  1  0  0  0  0
  8  9  1  0  0  0  0
  8 10  1  0  0  0  0
  8 11  1  0  0  0  0
  8 34  1  1  0  0  0
  9 12  1  0  0  0  0
  9 13  1  0  0  0  0
  9 35  1  6  0  0  0
 10 15  1  0  0  0  0
 10 20  1  1  0  0  0
 10 36  1  0  0  0  0
 11 37  1  0  0  0  0
 11 38  1  0  0  0  0
 12 14  1  0  0  0  0
 12 39  1  0  0  0  0
 12 40  1  0  0  0  0
 13 16  1  0  0  0  0
 13 41  1  0  0  0  0
 13 42  1  0  0  0  0
 14 43  1  0  0  0  0
 14 44  1  0  0  0  0
 15 16  2  0  0  0  0
 15 21  1  0  0  0  0
 17 19  1  0  0  0  0
 17 45  1  0  0  0  0
 17 46  1  0  0  0  0
 18 19  1  0  0  0  0
 18 22  1  0  0  0  0
 18 23  1  0  0  0  0
 18 28  1  0  0  0  0
 19 47  1  0  0  0  0
 19 48  1  0  0  0  0
 20 49  1  0  0  0  0
 20 50  1  0  0  0  0
 20 51  1  0  0  0  0
 21 24  2  0  0  0  0
 21 29  1  0  0  0  0
 22 25  1  0  0  0  0
 22 52  1  0  0  0  0
 22 53  1  0  0  0  0
 23 26  1  0  0  0  0
 23 54  1  0  0  0  0
 23 55  1  0  0  0  0
 24 30  1  0  0  0  0
 25 27  1  0  0  0  0
 25 57  1  0  0  0  0
 25 58  1  0  0  0  0
 26 27  1  0  0  0  0
 26 59  1  0  0  0  0
 26 60  1  0  0  0  0
 27 61  1  0  0  0  0
 27 62  1  0  0  0  0
 29 31  2  0  0  0  0
 29 63  1  0  0  0  0
 30 32  2  0  0  0  0
 30 64  1  0  0  0  0
 31 32  1  0  0  0  0
 31 33  1  0  0  0  0
 32 65  1  0  0  0  0
M  END
> <PUBCHEM_COMPOUND_CID>
10004545

> <PUBCHEM_COMPOUND_CANONICALIZED>
1

> <PUBCHEM_CACTVS_COMPLEXITY>
723

> <PUBCHEM_CACTVS_HBOND_ACCEPTOR>
6

> <PUBCHEM_CACTVS_HBOND_DONOR>
2

> <PUBCHEM_CACTVS_ROTATABLE_BOND>
4

> <PUBCHEM_CACTVS_SUBSKEYS>
AAADcfB7MYAAAAAAAAAAAAAAAAAAAWAAAAA8YMEAAAAAAFix8AAAHwAQCAAADwjBnhQyyPPJkgCoAyTyTACCgCAhAiAImSE4ZJgIIPLAkZGEYAhkkADIyAe8yOCPiAACAAACAACQAASAACQAAAAAAAAAAA==

> <PUBCHEM_IUPAC_OPENEYE_NAME>
1-[2-[(4aR,11R,11aS)-11-methyl-9-(trifluoromethyl)-1,3,4,4a,5,6,11,11a-octahydropyrido[4,3-b]carbazol-2-yl]ethyl]cyclohexanecarboxylic acid

> <PUBCHEM_IUPAC_CAS_NAME>
1-[2-[(4aR,11R,11aS)-11-methyl-9-(trifluoromethyl)-1,3,4,4a,5,6,11,11a-octahydropyrido[4,3-b]carbazol-2-yl]ethyl]-1-cyclohexanecarboxylic acid

> <PUBCHEM_IUPAC_NAME_MARKUP>
1-[2-[(4<I>a</I><I>R</I>,11<I>R</I>,11<I>a</I><I>S</I>)-11-methyl-9-(trifluoromethyl)-1,3,4,4<I>a</I>,5,6,11,11<I>a</I>-octahydropyrido[4,3-b]carbazol-2-yl]ethyl]cyclohexane-1-carboxylic acid

> <PUBCHEM_IUPAC_NAME>
1-[2-[(4aR,11R,11aS)-11-methyl-9-(trifluoromethyl)-1,3,4,4a,5,6,11,11a-octahydropyrido[4,3-b]carbazol-2-yl]ethyl]cyclohexane-1-carboxylic acid

> <PUBCHEM_IUPAC_SYSTEMATIC_NAME>
1-[2-[(4aR,11R,11aS)-11-methyl-9-(trifluoromethyl)-1,3,4,4a,5,6,11,11a-octahydropyrido[4,3-b]carbazol-2-yl]ethyl]cyclohexane-1-carboxylic acid

> <PUBCHEM_IUPAC_TRADITIONAL_NAME>
1-[2-[(4aR,11R,11aS)-11-methyl-9-(trifluoromethyl)-1,3,4,4a,5,6,11,11a-octahydropyrido[4,3-b]carbazol-2-yl]ethyl]cyclohexanecarboxylic acid

> <PUBCHEM_IUPAC_INCHI>
InChI=1S/C26H33F3N2O2/c1-16-20-15-31(12-10-25(24(32)33)8-3-2-4-9-25)11-7-17(20)13-22-23(16)19-14-18(26(27,28)29)5-6-21(19)30-22/h5-6,14,16-17,20,30H,2-4,7-13,15H2,1H3,(H,32,33)/t16-,17-,20-/m1/s1

> <PUBCHEM_IUPAC_INCHIKEY>
WAOZNBXSEVIAGX-MBOZVWFJSA-N

> <PUBCHEM_XLOGP3_AA>
3.8

> <PUBCHEM_EXACT_MASS>
462.24941279

> <PUBCHEM_MOLECULAR_FORMULA>
C26H33F3N2O2

> <PUBCHEM_MOLECULAR_WEIGHT>
462.5

> <PUBCHEM_OPENEYE_CAN_SMILES>
CC1C2CN(CCC2CC3=C1C4=C(N3)C=CC(=C4)C(F)(F)F)CCC5(CCCCC5)C(=O)O

> <PUBCHEM_OPENEYE_ISO_SMILES>
C[C@@H]1[C@H]2CN(CC[C@@H]2CC3=C1C4=C(N3)C=CC(=C4)C(F)(F)F)CCC5(CCCCC5)C(=O)O

> <PUBCHEM_CACTVS_TPSA>
56.3

> <PUBCHEM_MONOISOTOPIC_WEIGHT>
462.24941279

> <PUBCHEM_TOTAL_CHARGE>
0

> <PUBCHEM_HEAVY_ATOM_COUNT>
33

> <PUBCHEM_ATOM_DEF_STEREO_COUNT>
3

> <PUBCHEM_ATOM_UDEF_STEREO_COUNT>
0

> <PUBCHEM_BOND_DEF_STEREO_COUNT>
0

> <PUBCHEM_BOND_UDEF_STEREO_COUNT>
0

> <PUBCHEM_ISOTOPIC_ATOM_COUNT>
0

> <PUBCHEM_COMPONENT_COUNT>
1

> <PUBCHEM_CACTVS_TAUTO_COUNT>
1

> <PUBCHEM_COORDINATE_TYPE>
1
5
255

> <PUBCHEM_BONDANNOTATIONS>
10  20  5
15  16  8
15  21  8
21  24  8
21  29  8
24  30  8
29  31  8
30  32  8
31  32  8
7  16  8
7  24  8
8  34  5
9  35  6

$$$$
