129186564
  -OEChem-09292322062D

 59 62  0     0  0  0  0  0  0999 V2000
    5.4041    0.0000    0.0000 Cl  0  0  0  0  0  0  0  0  0  0  0  0
   11.8081    5.3003    0.0000 S   0  0  0  0  0  0  0  0  0  0  0  0
    1.0270    9.0396    0.0000 F   0  0  0  0  0  0  0  0  0  0  0  0
    2.0269    9.0280    0.0000 F   0  0  0  0  0  0  0  0  0  0  0  0
    3.2769    5.1332    0.0000 O   0  0  0  0  0  0  0  0  0  0  0  0
    6.7410    6.1332    0.0000 N   0  0  0  0  0  0  0  0  0  0  0  0
    8.4730    5.1332    0.0000 N   0  0  0  0  0  0  0  0  0  0  0  0
    2.4109    6.6332    0.0000 N   0  0  0  0  0  0  0  0  0  0  0  0
    3.2769    8.1332    0.0000 N   0  0  0  0  0  0  0  0  0  0  0  0
    7.6070    6.6332    0.0000 C   0  0  0  0  0  0  0  0  0  0  0  0
    6.7410    5.1332    0.0000 C   0  0  0  0  0  0  0  0  0  0  0  0
    8.4730    6.1332    0.0000 C   0  0  0  0  0  0  0  0  0  0  0  0
    7.6070    4.6332    0.0000 C   0  0  0  0  0  0  0  0  0  0  0  0
    5.8750    6.6332    0.0000 C   0  0  0  0  0  0  0  0  0  0  0  0
    5.0089    6.1332    0.0000 C   0  0  0  0  0  0  0  0  0  0  0  0
    4.1429    6.6332    0.0000 C   0  0  0  0  0  0  0  0  0  0  0  0
    1.5169    6.0985    0.0000 C   0  0  0  0  0  0  0  0  0  0  0  0
    0.6109    6.6124    0.0000 C   0  0  0  0  0  0  0  0  0  0  0  0
    0.6109    7.6540    0.0000 C   0  0  0  0  0  0  0  0  0  0  0  0
    1.5169    8.1678    0.0000 C   0  0  0  0  0  0  0  0  0  0  0  0
    2.4109    7.6332    0.0000 C   0  0  0  0  0  0  0  0  0  0  0  0
    9.3391    4.6332    0.0000 C   0  0  0  0  0  0  0  0  0  0  0  0
    3.2769    6.1332    0.0000 C   0  0  0  0  0  0  0  0  0  0  0  0
    4.1429    7.6332    0.0000 C   0  0  0  0  0  0  0  0  0  0  0  0
   10.2051    5.1332    0.0000 C   0  0  0  0  0  0  0  0  0  0  0  0
    9.3391    3.6332    0.0000 C   0  0  0  0  0  0  0  0  0  0  0  0
    5.0089    8.1332    0.0000 C   0  0  0  0  0  0  0  0  0  0  0  0
   11.0711    4.6332    0.0000 C   0  0  0  0  0  0  0  0  0  0  0  0
   10.4143    6.1050    0.0000 C   0  0  0  0  0  0  0  0  0  0  0  0
   10.2051    3.1332    0.0000 C   0  0  0  0  0  0  0  0  0  0  0  0
   11.0711    3.6332    0.0000 C   0  0  0  0  0  0  0  0  0  0  0  0
   11.4030    6.2080    0.0000 C   0  0  0  0  0  0  0  0  0  0  0  0
    8.0055    7.1081    0.0000 H   0  0  0  0  0  0  0  0  0  0  0  0
    7.2085    7.1081    0.0000 H   0  0  0  0  0  0  0  0  0  0  0  0
    6.1304    5.2408    0.0000 H   0  0  0  0  0  0  0  0  0  0  0  0
    6.5289    4.5506    0.0000 H   0  0  0  0  0  0  0  0  0  0  0  0
    9.0836    6.0255    0.0000 H   0  0  0  0  0  0  0  0  0  0  0  0
    8.6851    6.7158    0.0000 H   0  0  0  0  0  0  0  0  0  0  0  0
    7.2085    4.1582    0.0000 H   0  0  0  0  0  0  0  0  0  0  0  0
    8.0055    4.1582    0.0000 H   0  0  0  0  0  0  0  0  0  0  0  0
    6.2735    7.1081    0.0000 H   0  0  0  0  0  0  0  0  0  0  0  0
    5.4764    7.1081    0.0000 H   0  0  0  0  0  0  0  0  0  0  0  0
    4.6104    5.6582    0.0000 H   0  0  0  0  0  0  0  0  0  0  0  0
    5.4075    5.6582    0.0000 H   0  0  0  0  0  0  0  0  0  0  0  0
    1.1233    5.6195    0.0000 H   0  0  0  0  0  0  0  0  0  0  0  0
    1.9215    5.6287    0.0000 H   0  0  0  0  0  0  0  0  0  0  0  0
    0.0000    6.7184    0.0000 H   0  0  0  0  0  0  0  0  0  0  0  0
    0.4018    6.0287    0.0000 H   0  0  0  0  0  0  0  0  0  0  0  0
    0.4018    8.2377    0.0000 H   0  0  0  0  0  0  0  0  0  0  0  0
    0.0000    7.5479    0.0000 H   0  0  0  0  0  0  0  0  0  0  0  0
    8.8021    3.3232    0.0000 H   0  0  0  0  0  0  0  0  0  0  0  0
    5.3189    7.5962    0.0000 H   0  0  0  0  0  0  0  0  0  0  0  0
    5.5459    8.4432    0.0000 H   0  0  0  0  0  0  0  0  0  0  0  0
    4.6989    8.6701    0.0000 H   0  0  0  0  0  0  0  0  0  0  0  0
   10.0002    6.5665    0.0000 H   0  0  0  0  0  0  0  0  0  0  0  0
   10.2051    2.5132    0.0000 H   0  0  0  0  0  0  0  0  0  0  0  0
   11.6081    3.3232    0.0000 H   0  0  0  0  0  0  0  0  0  0  0  0
   11.7130    6.7450    0.0000 H   0  0  0  0  0  0  0  0  0  0  0  0
    6.4041    0.0000    0.0000 H   0  0  0  0  0  0  0  0  0  0  0  0
  1 59  1  0  0  0  0
  2 28  1  0  0  0  0
  2 32  1  0  0  0  0
  3 20  1  0  0  0  0
  4 20  1  0  0  0  0
  5 23  2  0  0  0  0
  6 10  1  0  0  0  0
  6 11  1  0  0  0  0
  6 14  1  0  0  0  0
  7 12  1  0  0  0  0
  7 13  1  0  0  0  0
  7 22  1  0  0  0  0
  8 17  1  0  0  0  0
  8 21  1  0  0  0  0
  8 23  1  0  0  0  0
  9 21  2  0  0  0  0
  9 24  1  0  0  0  0
 10 12  1  0  0  0  0
 10 33  1  0  0  0  0
 10 34  1  0  0  0  0
 11 13  1  0  0  0  0
 11 35  1  0  0  0  0
 11 36  1  0  0  0  0
 12 37  1  0  0  0  0
 12 38  1  0  0  0  0
 13 39  1  0  0  0  0
 13 40  1  0  0  0  0
 14 15  1  0  0  0  0
 14 41  1  0  0  0  0
 14 42  1  0  0  0  0
 15 16  1  0  0  0  0
 15 43  1  0  0  0  0
 15 44  1  0  0  0  0
 16 23  1  0  0  0  0
 16 24  2  0  0  0  0
 17 18  1  0  0  0  0
 17 45  1  0  0  0  0
 17 46  1  0  0  0  0
 18 19  1  0  0  0  0
 18 47  1  0  0  0  0
 18 48  1  0  0  0  0
 19 20  1  0  0  0  0
 19 49  1  0  0  0  0
 19 50  1  0  0  0  0
 20 21  1  0  0  0  0
 22 25  2  0  0  0  0
 22 26  1  0  0  0  0
 24 27  1  0  0  0  0
 25 28  1  0  0  0  0
 25 29  1  0  0  0  0
 26 30  2  0  0  0  0
 26 51  1  0  0  0  0
 27 52  1  0  0  0  0
 27 53  1  0  0  0  0
 27 54  1  0  0  0  0
 28 31  2  0  0  0  0
 29 32  2  0  0  0  0
 29 55  1  0  0  0  0
 30 31  1  0  0  0  0
 30 56  1  0  0  0  0
 31 57  1  0  0  0  0
 32 58  1  0  0  0  0
M  END
> <PUBCHEM_COMPOUND_CID>
129186564

> <PUBCHEM_COMPOUND_CANONICALIZED>
1

> <PUBCHEM_CACTVS_COMPLEXITY>
778

> <PUBCHEM_CACTVS_HBOND_ACCEPTOR>
7

> <PUBCHEM_CACTVS_HBOND_DONOR>
1

> <PUBCHEM_CACTVS_ROTATABLE_BOND>
4

> <PUBCHEM_CACTVS_SUBSKEYS>
AAADceB7oYBEAAAAAAAAAAAAAAAAASAAAAA8WIEAAAAAAEiB8AAAHwQAAAAADAjF2BSzwcMAAAisAidydACDAIEhChBJiBkoZMgIYDLgmZGUIAxghgDoyUcUgIAOAAAAACAGAAAAAAAAQAwAAAAAAAAAAA==

> <PUBCHEM_IUPAC_OPENEYE_NAME>
3-[2-[4-(benzothiophen-4-yl)piperazin-1-yl]ethyl]-9,9-difluoro-2-methyl-7,8-dihydro-6H-pyrido[1,2-a]pyrimidin-4-one;hydrochloride

> <PUBCHEM_IUPAC_CAS_NAME>
3-[2-[4-(1-benzothiophen-4-yl)-1-piperazinyl]ethyl]-9,9-difluoro-2-methyl-7,8-dihydro-6H-pyrido[1,2-a]pyrimidin-4-one;hydrochloride

> <PUBCHEM_IUPAC_NAME_MARKUP>
3-[2-[4-(1-benzothiophen-4-yl)piperazin-1-yl]ethyl]-9,9-difluoro-2-methyl-7,8-dihydro-6<I>H</I>-pyrido[1,2-a]pyrimidin-4-one;hydrochloride

> <PUBCHEM_IUPAC_NAME>
3-[2-[4-(1-benzothiophen-4-yl)piperazin-1-yl]ethyl]-9,9-difluoro-2-methyl-7,8-dihydro-6H-pyrido[1,2-a]pyrimidin-4-one;hydrochloride

> <PUBCHEM_IUPAC_SYSTEMATIC_NAME>
3-[2-[4-(1-benzothiophen-4-yl)piperazin-1-yl]ethyl]-9,9-bis(fluoranyl)-2-methyl-7,8-dihydro-6H-pyrido[1,2-a]pyrimidin-4-one;hydrochloride

> <PUBCHEM_IUPAC_TRADITIONAL_NAME>
3-[2-[4-(benzothiophen-4-yl)piperazino]ethyl]-9,9-difluoro-2-methyl-7,8-dihydro-6H-pyrido[1,2-a]pyrimidin-4-one;hydrochloride

> <PUBCHEM_IUPAC_INCHI>
InChI=1S/C23H26F2N4OS.ClH/c1-16-17(21(30)29-9-3-8-23(24,25)22(29)26-16)6-10-27-11-13-28(14-12-27)19-4-2-5-20-18(19)7-15-31-20;/h2,4-5,7,15H,3,6,8-14H2,1H3;1H

> <PUBCHEM_IUPAC_INCHIKEY>
FQKULTHPCINDHU-UHFFFAOYSA-N

> <PUBCHEM_EXACT_MASS>
480.1562167

> <PUBCHEM_MOLECULAR_FORMULA>
C23H27ClF2N4OS

> <PUBCHEM_MOLECULAR_WEIGHT>
481.0

> <PUBCHEM_OPENEYE_CAN_SMILES>
CC1=C(C(=O)N2CCCC(C2=N1)(F)F)CCN3CCN(CC3)C4=C5C=CSC5=CC=C4.Cl

> <PUBCHEM_OPENEYE_ISO_SMILES>
CC1=C(C(=O)N2CCCC(C2=N1)(F)F)CCN3CCN(CC3)C4=C5C=CSC5=CC=C4.Cl

> <PUBCHEM_CACTVS_TPSA>
67.4

> <PUBCHEM_MONOISOTOPIC_WEIGHT>
480.1562167

> <PUBCHEM_TOTAL_CHARGE>
0

> <PUBCHEM_HEAVY_ATOM_COUNT>
32

> <PUBCHEM_ATOM_DEF_STEREO_COUNT>
0

> <PUBCHEM_ATOM_UDEF_STEREO_COUNT>
0

> <PUBCHEM_BOND_DEF_STEREO_COUNT>
0

> <PUBCHEM_BOND_UDEF_STEREO_COUNT>
0

> <PUBCHEM_ISOTOPIC_ATOM_COUNT>
0

> <PUBCHEM_COMPONENT_COUNT>
2

> <PUBCHEM_CACTVS_TAUTO_COUNT>
-1

> <PUBCHEM_COORDINATE_TYPE>
1
5
255

> <PUBCHEM_BONDANNOTATIONS>
16  23  8
16  24  8
2  28  8
2  32  8
22  25  8
22  26  8
25  28  8
25  29  8
26  30  8
28  31  8
29  32  8
30  31  8
8  21  8
8  23  8
9  21  8
9  24  8

$$$$
