17755867
  -OEChem-09292322232D

 44 46  0     1  0  0  0  0  0999 V2000
    2.0024    2.2922    0.0000 O   0  0  0  0  0  0  0  0  0  0  0  0
    5.1544   -2.1189    0.0000 N   0  0  3  0  0  0  0  0  0  0  0  0
    6.9863   -1.8777    0.0000 C   0  0  0  0  0  0  0  0  0  0  0  0
    6.1203   -2.3777    0.0000 C   0  0  0  0  0  0  0  0  0  0  0  0
    4.6544   -1.2529    0.0000 C   0  0  0  0  0  0  0  0  0  0  0  0
    7.2525   -0.7529    0.0000 C   0  0  0  0  0  0  0  0  0  0  0  0
    3.7884   -0.7529    0.0000 C   0  0  0  0  0  0  0  0  0  0  0  0
    3.7884    0.2471    0.0000 C   0  0  0  0  0  0  0  0  0  0  0  0
    7.2525    0.2471    0.0000 C   0  0  0  0  0  0  0  0  0  0  0  0
    5.5204    0.2471    0.0000 C   0  0  0  0  0  0  0  0  0  0  0  0
    4.6544    0.7471    0.0000 C   0  0  0  0  0  0  0  0  0  0  0  0
    6.3864    0.7471    0.0000 C   0  0  0  0  0  0  0  0  0  0  0  0
    4.5456   -2.9122    0.0000 C   0  0  0  0  0  0  0  0  0  0  0  0
    2.8784    0.7540    0.0000 C   0  0  0  0  0  0  0  0  0  0  0  0
    8.1625    0.7540    0.0000 C   0  0  0  0  0  0  0  0  0  0  0  0
    4.6704    1.7886    0.0000 C   0  0  0  0  0  0  0  0  0  0  0  0
    6.3704    1.7886    0.0000 C   0  0  0  0  0  0  0  0  0  0  0  0
    2.8703    1.7956    0.0000 C   0  0  0  0  0  0  0  0  0  0  0  0
    3.7724    2.3164    0.0000 C   0  0  0  0  0  0  0  0  0  0  0  0
    8.1705    1.7956    0.0000 C   0  0  0  0  0  0  0  0  0  0  0  0
    7.2684    2.3164    0.0000 C   0  0  0  0  0  0  0  0  0  0  0  0
    7.1527   -2.4750    0.0000 H   0  0  0  0  0  0  0  0  0  0  0  0
    7.6062   -1.8655    0.0000 H   0  0  0  0  0  0  0  0  0  0  0  0
    5.8103   -2.9146    0.0000 H   0  0  0  0  0  0  0  0  0  0  0  0
    6.5587   -2.8161    0.0000 H   0  0  0  0  0  0  0  0  0  0  0  0
    5.2650   -1.1452    0.0000 H   0  0  0  0  0  0  0  0  0  0  0  0
    4.2160   -1.6913    0.0000 H   0  0  0  0  0  0  0  0  0  0  0  0
    7.7352   -1.1420    0.0000 H   0  0  0  0  0  0  0  0  0  0  0  0
    6.6366   -0.6810    0.0000 H   0  0  0  0  0  0  0  0  0  0  0  0
    3.1778   -0.6452    0.0000 H   0  0  0  0  0  0  0  0  0  0  0  0
    3.5763   -1.3355    0.0000 H   0  0  0  0  0  0  0  0  0  0  0  0
    5.1219   -0.2278    0.0000 H   0  0  0  0  0  0  0  0  0  0  0  0
    5.9190   -0.2278    0.0000 H   0  0  0  0  0  0  0  0  0  0  0  0
    4.0538   -2.5348    0.0000 H   0  0  0  0  0  0  0  0  0  0  0  0
    4.1682   -3.4041    0.0000 H   0  0  0  0  0  0  0  0  0  0  0  0
    5.0375   -3.2897    0.0000 H   0  0  0  0  0  0  0  0  0  0  0  0
    2.3450    0.4378    0.0000 H   0  0  0  0  0  0  0  0  0  0  0  0
    8.6958    0.4378    0.0000 H   0  0  0  0  0  0  0  0  0  0  0  0
    5.2109    2.0924    0.0000 H   0  0  0  0  0  0  0  0  0  0  0  0
    5.8299    2.0924    0.0000 H   0  0  0  0  0  0  0  0  0  0  0  0
    3.7748    2.9364    0.0000 H   0  0  0  0  0  0  0  0  0  0  0  0
    8.7086    2.1035    0.0000 H   0  0  0  0  0  0  0  0  0  0  0  0
    7.2660    2.9364    0.0000 H   0  0  0  0  0  0  0  0  0  0  0  0
    2.0000    2.9122    0.0000 H   0  0  0  0  0  0  0  0  0  0  0  0
  1 18  1  0  0  0  0
  1 44  1  0  0  0  0
  2  4  1  0  0  0  0
  2  5  1  0  0  0  0
  2 13  1  0  0  0  0
  3  4  1  0  0  0  0
  3  6  1  0  0  0  0
  3 22  1  0  0  0  0
  3 23  1  0  0  0  0
  4 24  1  0  0  0  0
  4 25  1  0  0  0  0
  5  7  1  0  0  0  0
  5 26  1  0  0  0  0
  5 27  1  0  0  0  0
  6  9  1  0  0  0  0
  6 28  1  0  0  0  0
  6 29  1  0  0  0  0
  7  8  1  0  0  0  0
  7 30  1  0  0  0  0
  7 31  1  0  0  0  0
  8 11  2  0  0  0  0
  8 14  1  0  0  0  0
  9 12  1  0  0  0  0
  9 15  2  0  0  0  0
 10 11  1  0  0  0  0
 10 12  1  0  0  0  0
 10 32  1  0  0  0  0
 10 33  1  0  0  0  0
 11 16  1  0  0  0  0
 12 17  2  0  0  0  0
 13 34  1  0  0  0  0
 13 35  1  0  0  0  0
 13 36  1  0  0  0  0
 14 18  2  0  0  0  0
 14 37  1  0  0  0  0
 15 20  1  0  0  0  0
 15 38  1  0  0  0  0
 16 19  2  0  0  0  0
 16 39  1  0  0  0  0
 17 21  1  0  0  0  0
 17 40  1  0  0  0  0
 18 19  1  0  0  0  0
 19 41  1  0  0  0  0
 20 21  2  0  0  0  0
 20 42  1  0  0  0  0
 21 43  1  0  0  0  0
M  END
> <PUBCHEM_COMPOUND_CID>
17755867

> <PUBCHEM_COMPOUND_CANONICALIZED>
1

> <PUBCHEM_CACTVS_COMPLEXITY>
319

> <PUBCHEM_CACTVS_HBOND_ACCEPTOR>
2

> <PUBCHEM_CACTVS_HBOND_DONOR>
1

> <PUBCHEM_CACTVS_ROTATABLE_BOND>
0

> <PUBCHEM_CACTVS_SUBSKEYS>
AAADceB6IAAAAAAAAAAAAAAAAAAAAAAAAAAwYAAAAAAAAAABQAAAHgAACAAADATBmAQyBoMAAgCAAiBCAAACAAAgIAAIiAAOCIgIJiKCkROEcAAkwBGImAeQ0PIOoAABAAAQAABAAAIAACAAAAAAAAAAAA==

> <PUBCHEM_IUPAC_OPENEYE_NAME>
11-methyl-11-azatricyclo[13.4.0.03,8]nonadeca-1(19),3(8),4,6,15,17-hexaen-6-ol

> <PUBCHEM_IUPAC_CAS_NAME>
11-methyl-11-azatricyclo[13.4.0.03,8]nonadeca-1(19),3(8),4,6,15,17-hexaen-6-ol

> <PUBCHEM_IUPAC_NAME_MARKUP>
11-methyl-11-azatricyclo[13.4.0.0<SUP>3,8</SUP>]nonadeca-1(19),3(8),4,6,15,17-hexaen-6-ol

> <PUBCHEM_IUPAC_NAME>
11-methyl-11-azatricyclo[13.4.0.03,8]nonadeca-1(19),3(8),4,6,15,17-hexaen-6-ol

> <PUBCHEM_IUPAC_SYSTEMATIC_NAME>
11-methyl-11-azatricyclo[13.4.0.03,8]nonadeca-1(19),3(8),4,6,15,17-hexaen-6-ol

> <PUBCHEM_IUPAC_TRADITIONAL_NAME>
11-methyl-11-azatricyclo[13.4.0.03,8]nonadeca-1(19),3(8),4,6,15,17-hexaen-6-ol

> <PUBCHEM_IUPAC_INCHI>
InChI=1S/C19H23NO/c1-20-11-4-7-15-5-2-3-6-16(15)13-17-8-9-19(21)14-18(17)10-12-20/h2-3,5-6,8-9,14,21H,4,7,10-13H2,1H3

> <PUBCHEM_IUPAC_INCHIKEY>
HWJXQZBZKJYOMP-UHFFFAOYSA-N

> <PUBCHEM_XLOGP3_AA>
4.2

> <PUBCHEM_EXACT_MASS>
281.177964357

> <PUBCHEM_MOLECULAR_FORMULA>
C19H23NO

> <PUBCHEM_MOLECULAR_WEIGHT>
281.4

> <PUBCHEM_OPENEYE_CAN_SMILES>
CN1CCCC2=CC=CC=C2CC3=C(CC1)C=C(C=C3)O

> <PUBCHEM_OPENEYE_ISO_SMILES>
CN1CCCC2=CC=CC=C2CC3=C(CC1)C=C(C=C3)O

> <PUBCHEM_CACTVS_TPSA>
23.5

> <PUBCHEM_MONOISOTOPIC_WEIGHT>
281.177964357

> <PUBCHEM_TOTAL_CHARGE>
0

> <PUBCHEM_HEAVY_ATOM_COUNT>
21

> <PUBCHEM_ATOM_DEF_STEREO_COUNT>
0

> <PUBCHEM_ATOM_UDEF_STEREO_COUNT>
0

> <PUBCHEM_BOND_DEF_STEREO_COUNT>
0

> <PUBCHEM_BOND_UDEF_STEREO_COUNT>
0

> <PUBCHEM_ISOTOPIC_ATOM_COUNT>
0

> <PUBCHEM_COMPONENT_COUNT>
1

> <PUBCHEM_CACTVS_TAUTO_COUNT>
-1

> <PUBCHEM_COORDINATE_TYPE>
1
5
255

> <PUBCHEM_BONDANNOTATIONS>
11  16  8
12  17  8
14  18  8
15  20  8
16  19  8
17  21  8
18  19  8
20  21  8
8  11  8
8  14  8
9  12  8
9  15  8

$$$$
