44353327
  -OEChem-09292322192D

 58 62  0     1  0  0  0  0  0999 V2000
    4.9889    4.5713    0.0000 O   0  0  0  0  0  0  0  0  0  0  0  0
    4.9889    1.0608    0.0000 O   0  0  0  0  0  0  0  0  0  0  0  0
    9.7619    0.2180    0.0000 N   0  0  3  0  0  0  0  0  0  0  0  0
    5.2619    2.8161    0.0000 N   0  0  0  0  0  0  0  0  0  0  0  0
   11.5938   -3.9550    0.0000 N   0  0  0  0  0  0  0  0  0  0  0  0
    9.2619   -0.6480    0.0000 C   0  0  0  0  0  0  0  0  0  0  0  0
    9.2619    1.0840    0.0000 C   0  0  0  0  0  0  0  0  0  0  0  0
    9.7619   -1.5140    0.0000 C   0  0  0  0  0  0  0  0  0  0  0  0
    8.2619    1.0840    0.0000 C   0  0  0  0  0  0  0  0  0  0  0  0
   10.7619    0.2180    0.0000 C   0  0  0  0  0  0  0  0  0  0  0  0
   10.7619   -1.5140    0.0000 C   0  0  0  0  0  0  0  0  0  0  0  0
    7.7619    1.9500    0.0000 C   0  0  0  0  0  0  0  0  0  0  0  0
   11.2619   -0.6480    0.0000 C   0  0  0  0  0  0  0  0  0  0  0  0
    6.7619    1.9500    0.0000 C   0  0  0  0  0  0  0  0  0  0  0  0
   11.2619   -2.3801    0.0000 C   0  0  0  0  0  0  0  0  0  0  0  0
    6.2619    2.8161    0.0000 C   0  0  0  0  0  0  0  0  0  0  0  0
   12.2506   -2.4831    0.0000 C   0  0  0  0  0  0  0  0  0  0  0  0
   10.8568   -3.2879    0.0000 C   0  0  0  0  0  0  0  0  0  0  0  0
   12.4568   -3.4616    0.0000 C   0  0  0  0  0  0  0  0  0  0  0  0
    4.6783    3.6208    0.0000 C   0  0  0  0  0  0  0  0  0  0  0  0
    4.6783    2.0113    0.0000 C   0  0  0  0  0  0  0  0  0  0  0  0
    3.7320    3.3161    0.0000 C   0  0  0  0  0  0  0  0  0  0  0  0
    3.7320    2.3161    0.0000 C   0  0  0  0  0  0  0  0  0  0  0  0
   12.9949   -1.8153    0.0000 C   0  0  0  0  0  0  0  0  0  0  0  0
   13.4073   -3.7723    0.0000 C   0  0  0  0  0  0  0  0  0  0  0  0
   13.9454   -2.1260    0.0000 C   0  0  0  0  0  0  0  0  0  0  0  0
    2.8660    3.8161    0.0000 C   0  0  0  0  0  0  0  0  0  0  0  0
    2.8660    1.8161    0.0000 C   0  0  0  0  0  0  0  0  0  0  0  0
   14.1516   -3.1045    0.0000 C   0  0  0  0  0  0  0  0  0  0  0  0
    2.0000    3.3161    0.0000 C   0  0  0  0  0  0  0  0  0  0  0  0
    2.0000    2.3161    0.0000 C   0  0  0  0  0  0  0  0  0  0  0  0
    8.7869   -0.2495    0.0000 H   0  0  0  0  0  0  0  0  0  0  0  0
    8.7869   -1.0466    0.0000 H   0  0  0  0  0  0  0  0  0  0  0  0
    9.8445    1.2961    0.0000 H   0  0  0  0  0  0  0  0  0  0  0  0
    9.1542    1.6946    0.0000 H   0  0  0  0  0  0  0  0  0  0  0  0
    9.1793   -1.7261    0.0000 H   0  0  0  0  0  0  0  0  0  0  0  0
    9.8695   -2.1246    0.0000 H   0  0  0  0  0  0  0  0  0  0  0  0
    7.6793    0.8720    0.0000 H   0  0  0  0  0  0  0  0  0  0  0  0
    8.3695    0.4734    0.0000 H   0  0  0  0  0  0  0  0  0  0  0  0
   11.3445    0.4300    0.0000 H   0  0  0  0  0  0  0  0  0  0  0  0
   10.6542    0.8286    0.0000 H   0  0  0  0  0  0  0  0  0  0  0  0
    8.3445    2.1621    0.0000 H   0  0  0  0  0  0  0  0  0  0  0  0
    7.6542    2.5606    0.0000 H   0  0  0  0  0  0  0  0  0  0  0  0
   11.8819   -0.6480    0.0000 H   0  0  0  0  0  0  0  0  0  0  0  0
    6.1793    1.7380    0.0000 H   0  0  0  0  0  0  0  0  0  0  0  0
    6.8695    1.3395    0.0000 H   0  0  0  0  0  0  0  0  0  0  0  0
    6.8445    3.0281    0.0000 H   0  0  0  0  0  0  0  0  0  0  0  0
    6.1542    3.4266    0.0000 H   0  0  0  0  0  0  0  0  0  0  0  0
   10.2501   -3.4157    0.0000 H   0  0  0  0  0  0  0  0  0  0  0  0
   11.5268   -4.5713    0.0000 H   0  0  0  0  0  0  0  0  0  0  0  0
   12.8670   -1.2086    0.0000 H   0  0  0  0  0  0  0  0  0  0  0  0
   13.5352   -4.3790    0.0000 H   0  0  0  0  0  0  0  0  0  0  0  0
   14.4069   -1.7119    0.0000 H   0  0  0  0  0  0  0  0  0  0  0  0
    2.8660    4.4361    0.0000 H   0  0  0  0  0  0  0  0  0  0  0  0
    2.8660    1.1961    0.0000 H   0  0  0  0  0  0  0  0  0  0  0  0
   14.7410   -3.2971    0.0000 H   0  0  0  0  0  0  0  0  0  0  0  0
    1.4631    3.6261    0.0000 H   0  0  0  0  0  0  0  0  0  0  0  0
    1.4631    2.0061    0.0000 H   0  0  0  0  0  0  0  0  0  0  0  0
  1 20  2  0  0  0  0
  2 21  2  0  0  0  0
  3  6  1  0  0  0  0
  3  7  1  0  0  0  0
  3 10  1  0  0  0  0
  4 16  1  0  0  0  0
  4 20  1  0  0  0  0
  4 21  1  0  0  0  0
  5 18  1  0  0  0  0
  5 19  1  0  0  0  0
  5 50  1  0  0  0  0
  6  8  1  0  0  0  0
  6 32  1  0  0  0  0
  6 33  1  0  0  0  0
  7  9  1  0  0  0  0
  7 34  1  0  0  0  0
  7 35  1  0  0  0  0
  8 11  1  0  0  0  0
  8 36  1  0  0  0  0
  8 37  1  0  0  0  0
  9 12  1  0  0  0  0
  9 38  1  0  0  0  0
  9 39  1  0  0  0  0
 10 13  1  0  0  0  0
 10 40  1  0  0  0  0
 10 41  1  0  0  0  0
 11 13  2  0  0  0  0
 11 15  1  0  0  0  0
 12 14  1  0  0  0  0
 12 42  1  0  0  0  0
 12 43  1  0  0  0  0
 13 44  1  0  0  0  0
 14 16  1  0  0  0  0
 14 45  1  0  0  0  0
 14 46  1  0  0  0  0
 15 17  1  0  0  0  0
 15 18  2  0  0  0  0
 16 47  1  0  0  0  0
 16 48  1  0  0  0  0
 17 19  1  0  0  0  0
 17 24  2  0  0  0  0
 18 49  1  0  0  0  0
 19 25  2  0  0  0  0
 20 22  1  0  0  0  0
 21 23  1  0  0  0  0
 22 23  1  0  0  0  0
 22 27  2  0  0  0  0
 23 28  2  0  0  0  0
 24 26  1  0  0  0  0
 24 51  1  0  0  0  0
 25 29  1  0  0  0  0
 25 52  1  0  0  0  0
 26 29  2  0  0  0  0
 26 53  1  0  0  0  0
 27 30  1  0  0  0  0
 27 54  1  0  0  0  0
 28 31  1  0  0  0  0
 28 55  1  0  0  0  0
 29 56  1  0  0  0  0
 30 31  2  0  0  0  0
 30 57  1  0  0  0  0
 31 58  1  0  0  0  0
M  END
> <PUBCHEM_COMPOUND_CID>
44353327

> <PUBCHEM_COMPOUND_CANONICALIZED>
1

> <PUBCHEM_CACTVS_COMPLEXITY>
681

> <PUBCHEM_CACTVS_HBOND_ACCEPTOR>
3

> <PUBCHEM_CACTVS_HBOND_DONOR>
1

> <PUBCHEM_CACTVS_ROTATABLE_BOND>
7

> <PUBCHEM_CACTVS_SUBSKEYS>
AAADceB7MAAAAAAAAAAAAAAAAAAAAWLAAAAwYIAAAAAAAFgB9AAAHgAQAAAADAjBngQ8wPPJkACoAzV3VACCgCA1AiAI2aE4ZNgIIPLAlZGEIQhgliDIyYcdiMCOgAAAAAASAAAAAAAAACQAAAAAAAAAAA==

> <PUBCHEM_IUPAC_OPENEYE_NAME>
2-[5-[4-(1H-indol-3-yl)-3,6-dihydro-2H-pyridin-1-yl]pentyl]isoindoline-1,3-dione

> <PUBCHEM_IUPAC_CAS_NAME>
2-[5-[4-(1H-indol-3-yl)-3,6-dihydro-2H-pyridin-1-yl]pentyl]isoindole-1,3-dione

> <PUBCHEM_IUPAC_NAME_MARKUP>
2-[5-[4-(1<I>H</I>-indol-3-yl)-3,6-dihydro-2<I>H</I>-pyridin-1-yl]pentyl]isoindole-1,3-dione

> <PUBCHEM_IUPAC_NAME>
2-[5-[4-(1H-indol-3-yl)-3,6-dihydro-2H-pyridin-1-yl]pentyl]isoindole-1,3-dione

> <PUBCHEM_IUPAC_SYSTEMATIC_NAME>
2-[5-[4-(1H-indol-3-yl)-3,6-dihydro-2H-pyridin-1-yl]pentyl]isoindole-1,3-dione

> <PUBCHEM_IUPAC_TRADITIONAL_NAME>
2-[5-[4-(1H-indol-3-yl)-3,6-dihydro-2H-pyridin-1-yl]pentyl]isoindoline-1,3-quinone

> <PUBCHEM_IUPAC_INCHI>
InChI=1S/C26H27N3O2/c30-25-21-9-2-3-10-22(21)26(31)29(25)15-7-1-6-14-28-16-12-19(13-17-28)23-18-27-24-11-5-4-8-20(23)24/h2-5,8-12,18,27H,1,6-7,13-17H2

> <PUBCHEM_IUPAC_INCHIKEY>
MBMKBYGCQNWXCQ-UHFFFAOYSA-N

> <PUBCHEM_XLOGP3_AA>
4

> <PUBCHEM_EXACT_MASS>
413.21032711

> <PUBCHEM_MOLECULAR_FORMULA>
C26H27N3O2

> <PUBCHEM_MOLECULAR_WEIGHT>
413.5

> <PUBCHEM_OPENEYE_CAN_SMILES>
C1CN(CC=C1C2=CNC3=CC=CC=C32)CCCCCN4C(=O)C5=CC=CC=C5C4=O

> <PUBCHEM_OPENEYE_ISO_SMILES>
C1CN(CC=C1C2=CNC3=CC=CC=C32)CCCCCN4C(=O)C5=CC=CC=C5C4=O

> <PUBCHEM_CACTVS_TPSA>
56.4

> <PUBCHEM_MONOISOTOPIC_WEIGHT>
413.21032711

> <PUBCHEM_TOTAL_CHARGE>
0

> <PUBCHEM_HEAVY_ATOM_COUNT>
31

> <PUBCHEM_ATOM_DEF_STEREO_COUNT>
0

> <PUBCHEM_ATOM_UDEF_STEREO_COUNT>
0

> <PUBCHEM_BOND_DEF_STEREO_COUNT>
0

> <PUBCHEM_BOND_UDEF_STEREO_COUNT>
0

> <PUBCHEM_ISOTOPIC_ATOM_COUNT>
0

> <PUBCHEM_COMPONENT_COUNT>
1

> <PUBCHEM_CACTVS_TAUTO_COUNT>
-1

> <PUBCHEM_COORDINATE_TYPE>
1
5
255

> <PUBCHEM_BONDANNOTATIONS>
15  17  8
15  18  8
17  19  8
17  24  8
19  25  8
22  23  8
22  27  8
23  28  8
24  26  8
25  29  8
26  29  8
27  30  8
28  31  8
30  31  8
5  18  8
5  19  8

$$$$
