44555138
  -OEChem-09292321592D

 59 63  0     1  0  0  0  0  0999 V2000
    6.4260   -1.6315    0.0000 O   0  0  0  0  0  0  0  0  0  0  0  0
    2.9176   -2.6315    0.0000 O   0  0  0  0  0  0  0  0  0  0  0  0
    6.4260    0.4378    0.0000 N   0  0  3  0  0  0  0  0  0  0  0  0
    9.0641   -1.1244    0.0000 N   0  0  0  0  0  0  0  0  0  0  0  0
    9.9761   -1.5346    0.0000 N   0  0  0  0  0  0  0  0  0  0  0  0
    5.5321   -0.0969    0.0000 C   0  0  1  0  0  0  0  0  0  0  0  0
    5.5321   -1.0969    0.0000 C   0  0  1  0  0  0  0  0  0  0  0  0
    4.6660    0.4031    0.0000 C   0  0  0  0  0  0  0  0  0  0  0  0
    7.3321   -0.0760    0.0000 C   0  0  0  0  0  0  0  0  0  0  0  0
    7.3321   -1.1177    0.0000 C   0  0  1  0  0  0  0  0  0  0  0  0
    4.6660   -1.5969    0.0000 C   0  0  0  0  0  0  0  0  0  0  0  0
    3.8000   -0.0969    0.0000 C   0  0  0  0  0  0  0  0  0  0  0  0
    3.8000   -1.0969    0.0000 C   0  0  0  0  0  0  0  0  0  0  0  0
    6.4144    1.4377    0.0000 C   0  0  0  0  0  0  0  0  0  0  0  0
    8.1962   -1.6210    0.0000 C   0  0  0  0  0  0  0  0  0  0  0  0
    7.2746    1.9477    0.0000 C   0  0  0  0  0  0  0  0  0  0  0  0
    2.9061   -1.6315    0.0000 C   0  0  0  0  0  0  0  0  0  0  0  0
    2.9061    0.4378    0.0000 C   0  0  0  0  0  0  0  0  0  0  0  0
    2.0000   -1.1177    0.0000 C   0  0  0  0  0  0  0  0  0  0  0  0
    2.0000   -0.0760    0.0000 C   0  0  0  0  0  0  0  0  0  0  0  0
    7.2631    2.9476    0.0000 C   0  0  0  0  0  0  0  0  0  0  0  0
    9.1725   -0.1302    0.0000 C   0  0  0  0  0  0  0  0  0  0  0  0
   10.6481   -0.7940    0.0000 C   0  0  0  0  0  0  0  0  0  0  0  0
   10.1514    0.0739    0.0000 C   0  0  0  0  0  0  0  0  0  0  0  0
   11.6422   -0.9024    0.0000 C   0  0  0  0  0  0  0  0  0  0  0  0
   12.2331   -0.0957    0.0000 C   0  0  0  0  0  0  0  0  0  0  0  0
   12.0454   -1.8175    0.0000 C   0  0  0  0  0  0  0  0  0  0  0  0
   13.2272   -0.2040    0.0000 C   0  0  0  0  0  0  0  0  0  0  0  0
   13.0395   -1.9259    0.0000 C   0  0  0  0  0  0  0  0  0  0  0  0
   13.6304   -1.1191    0.0000 C   0  0  0  0  0  0  0  0  0  0  0  0
    5.5255    0.7531    0.0000 H   0  0  0  0  0  0  0  0  0  0  0  0
    5.5255   -1.9468    0.0000 H   0  0  0  0  0  0  0  0  0  0  0  0
    5.0646    0.8781    0.0000 H   0  0  0  0  0  0  0  0  0  0  0  0
    4.2675    0.8781    0.0000 H   0  0  0  0  0  0  0  0  0  0  0  0
    7.9429   -0.1821    0.0000 H   0  0  0  0  0  0  0  0  0  0  0  0
    7.5411    0.5076    0.0000 H   0  0  0  0  0  0  0  0  0  0  0  0
    7.3285   -1.7377    0.0000 H   0  0  0  0  0  0  0  0  0  0  0  0
    4.2675   -2.0718    0.0000 H   0  0  0  0  0  0  0  0  0  0  0  0
    5.0646   -2.0718    0.0000 H   0  0  0  0  0  0  0  0  0  0  0  0
    6.1957    2.0178    0.0000 H   0  0  0  0  0  0  0  0  0  0  0  0
    5.8051    1.3230    0.0000 H   0  0  0  0  0  0  0  0  0  0  0  0
    7.7958   -2.0944    0.0000 H   0  0  0  0  0  0  0  0  0  0  0  0
    8.5929   -2.0975    0.0000 H   0  0  0  0  0  0  0  0  0  0  0  0
    7.4934    1.3676    0.0000 H   0  0  0  0  0  0  0  0  0  0  0  0
    7.8839    2.0624    0.0000 H   0  0  0  0  0  0  0  0  0  0  0  0
    2.9132    1.0578    0.0000 H   0  0  0  0  0  0  0  0  0  0  0  0
    1.4643   -1.4298    0.0000 H   0  0  0  0  0  0  0  0  0  0  0  0
    1.4643    0.2360    0.0000 H   0  0  0  0  0  0  0  0  0  0  0  0
    7.8830    2.9548    0.0000 H   0  0  0  0  0  0  0  0  0  0  0  0
    7.2559    3.5676    0.0000 H   0  0  0  0  0  0  0  0  0  0  0  0
    6.6431    2.9405    0.0000 H   0  0  0  0  0  0  0  0  0  0  0  0
    8.7133    0.2864    0.0000 H   0  0  0  0  0  0  0  0  0  0  0  0
    2.3843   -2.9476    0.0000 H   0  0  0  0  0  0  0  0  0  0  0  0
   10.4058    0.6393    0.0000 H   0  0  0  0  0  0  0  0  0  0  0  0
   11.9831    0.4717    0.0000 H   0  0  0  0  0  0  0  0  0  0  0  0
   11.6790   -2.3177    0.0000 H   0  0  0  0  0  0  0  0  0  0  0  0
   13.5935    0.2962    0.0000 H   0  0  0  0  0  0  0  0  0  0  0  0
   13.2895   -2.4932    0.0000 H   0  0  0  0  0  0  0  0  0  0  0  0
   14.2468   -1.1863    0.0000 H   0  0  0  0  0  0  0  0  0  0  0  0
  1  7  1  0  0  0  0
  1 10  1  0  0  0  0
  2 17  1  0  0  0  0
  2 53  1  0  0  0  0
  3  6  1  0  0  0  0
  3  9  1  0  0  0  0
  3 14  1  0  0  0  0
  4  5  1  0  0  0  0
  4 15  1  0  0  0  0
  4 22  1  0  0  0  0
  5 23  2  0  0  0  0
  6  7  1  0  0  0  0
  6  8  1  0  0  0  0
  6 31  1  6  0  0  0
  7 11  1  0  0  0  0
  7 32  1  1  0  0  0
  8 12  1  0  0  0  0
  8 33  1  0  0  0  0
  8 34  1  0  0  0  0
  9 10  1  0  0  0  0
  9 35  1  0  0  0  0
  9 36  1  0  0  0  0
 10 15  1  1  0  0  0
 10 37  1  0  0  0  0
 11 13  1  0  0  0  0
 11 38  1  0  0  0  0
 11 39  1  0  0  0  0
 12 13  2  0  0  0  0
 12 18  1  0  0  0  0
 13 17  1  0  0  0  0
 14 16  1  0  0  0  0
 14 40  1  0  0  0  0
 14 41  1  0  0  0  0
 15 42  1  0  0  0  0
 15 43  1  0  0  0  0
 16 21  1  0  0  0  0
 16 44  1  0  0  0  0
 16 45  1  0  0  0  0
 17 19  2  0  0  0  0
 18 20  2  0  0  0  0
 18 46  1  0  0  0  0
 19 20  1  0  0  0  0
 19 47  1  0  0  0  0
 20 48  1  0  0  0  0
 21 49  1  0  0  0  0
 21 50  1  0  0  0  0
 21 51  1  0  0  0  0
 22 24  2  0  0  0  0
 22 52  1  0  0  0  0
 23 24  1  0  0  0  0
 23 25  1  0  0  0  0
 24 54  1  0  0  0  0
 25 26  2  0  0  0  0
 25 27  1  0  0  0  0
 26 28  1  0  0  0  0
 26 55  1  0  0  0  0
 27 29  2  0  0  0  0
 27 56  1  0  0  0  0
 28 30  2  0  0  0  0
 28 57  1  0  0  0  0
 29 30  1  0  0  0  0
 29 58  1  0  0  0  0
 30 59  1  0  0  0  0
M  END
> <PUBCHEM_COMPOUND_CID>
44555138

> <PUBCHEM_COMPOUND_CANONICALIZED>
1

> <PUBCHEM_CACTVS_COMPLEXITY>
555

> <PUBCHEM_CACTVS_HBOND_ACCEPTOR>
4

> <PUBCHEM_CACTVS_HBOND_DONOR>
1

> <PUBCHEM_CACTVS_ROTATABLE_BOND>
5

> <PUBCHEM_CACTVS_SUBSKEYS>
AAADceB7MAAAAAAAAAAAAAAAAAAAAWAAAAA8YMEAAAAAAADx0AAAHgAICAAADDzhngY+hpMIBgCiAzRnRACSBAAxogAY2CA+bJgKJqLC0dOH9AhkyBHY2AfQ0LMOgAABAAAYAABQAAKAADAgAAAAAAAAAA==

> <PUBCHEM_IUPAC_OPENEYE_NAME>
(2S,4aR,10aR)-2-[(3-phenylpyrazol-1-yl)methyl]-4-propyl-2,3,4a,5,10,10a-hexahydrobenzo[g][1,4]benzoxazin-9-ol

> <PUBCHEM_IUPAC_CAS_NAME>
(2S,4aR,10aR)-2-[(3-phenyl-1-pyrazolyl)methyl]-4-propyl-2,3,4a,5,10,10a-hexahydrobenzo[g][1,4]benzoxazin-9-ol

> <PUBCHEM_IUPAC_NAME_MARKUP>
(2<I>S</I>,4<I>a</I><I>R</I>,10<I>a</I><I>R</I>)-2-[(3-phenylpyrazol-1-yl)methyl]-4-propyl-2,3,4<I>a</I>,5,10,10<I>a</I>-hexahydrobenzo[g][1,4]benzoxazin-9-ol

> <PUBCHEM_IUPAC_NAME>
(2S,4aR,10aR)-2-[(3-phenylpyrazol-1-yl)methyl]-4-propyl-2,3,4a,5,10,10a-hexahydrobenzo[g][1,4]benzoxazin-9-ol

> <PUBCHEM_IUPAC_SYSTEMATIC_NAME>
(2S,4aR,10aR)-2-[(3-phenylpyrazol-1-yl)methyl]-4-propyl-2,3,4a,5,10,10a-hexahydrobenzo[g][1,4]benzoxazin-9-ol

> <PUBCHEM_IUPAC_TRADITIONAL_NAME>
(2S,4aR,10aR)-2-[(3-phenylpyrazol-1-yl)methyl]-4-propyl-2,3,4a,5,10,10a-hexahydrobenzo[g][1,4]benzoxazin-9-ol

> <PUBCHEM_IUPAC_INCHI>
InChI=1S/C25H29N3O2/c1-2-12-27-16-20(17-28-13-11-22(26-28)18-7-4-3-5-8-18)30-25-15-21-19(14-23(25)27)9-6-10-24(21)29/h3-11,13,20,23,25,29H,2,12,14-17H2,1H3/t20-,23+,25+/m0/s1

> <PUBCHEM_IUPAC_INCHIKEY>
PYQMFEXIFSASPF-QUURXOELSA-N

> <PUBCHEM_XLOGP3_AA>
4.2

> <PUBCHEM_EXACT_MASS>
403.22597718

> <PUBCHEM_MOLECULAR_FORMULA>
C25H29N3O2

> <PUBCHEM_MOLECULAR_WEIGHT>
403.5

> <PUBCHEM_OPENEYE_CAN_SMILES>
CCCN1CC(OC2C1CC3=C(C2)C(=CC=C3)O)CN4C=CC(=N4)C5=CC=CC=C5

> <PUBCHEM_OPENEYE_ISO_SMILES>
CCCN1C[C@H](O[C@H]2[C@H]1CC3=C(C2)C(=CC=C3)O)CN4C=CC(=N4)C5=CC=CC=C5

> <PUBCHEM_CACTVS_TPSA>
50.5

> <PUBCHEM_MONOISOTOPIC_WEIGHT>
403.22597718

> <PUBCHEM_TOTAL_CHARGE>
0

> <PUBCHEM_HEAVY_ATOM_COUNT>
30

> <PUBCHEM_ATOM_DEF_STEREO_COUNT>
3

> <PUBCHEM_ATOM_UDEF_STEREO_COUNT>
0

> <PUBCHEM_BOND_DEF_STEREO_COUNT>
0

> <PUBCHEM_BOND_UDEF_STEREO_COUNT>
0

> <PUBCHEM_ISOTOPIC_ATOM_COUNT>
0

> <PUBCHEM_COMPONENT_COUNT>
1

> <PUBCHEM_CACTVS_TAUTO_COUNT>
-1

> <PUBCHEM_COORDINATE_TYPE>
1
5
255

> <PUBCHEM_BONDANNOTATIONS>
10  15  5
12  13  8
12  18  8
13  17  8
17  19  8
18  20  8
19  20  8
22  24  8
23  24  8
25  26  8
25  27  8
26  28  8
27  29  8
28  30  8
29  30  8
4  22  8
4  5  8
5  23  8
6  31  6
7  32  5

$$$$
