73057395
  -OEChem-09292321592D

 51 53  0     1  0  0  0  0  0999 V2000
    9.0974    3.9335    0.0000 Cl  0  0  0  0  0  0  0  0  0  0  0  0
    4.4001    8.5450    0.0000 Cl  0  0  0  0  0  0  0  0  0  0  0  0
    4.9617    1.3161    0.0000 O   0  0  0  0  0  0  0  0  0  0  0  0
    1.4534    0.3162    0.0000 O   0  0  0  0  0  0  0  0  0  0  0  0
    4.9617    3.3854    0.0000 N   0  0  3  0  0  0  0  0  0  0  0  0
    7.5998    1.8233    0.0000 N   0  0  0  0  0  0  0  0  0  0  0  0
    8.5118    1.4130    0.0000 N   0  0  0  0  0  0  0  0  0  0  0  0
    4.0678    2.8508    0.0000 C   0  0  1  0  0  0  0  0  0  0  0  0
    4.0678    1.8508    0.0000 C   0  0  1  0  0  0  0  0  0  0  0  0
    3.2018    3.3508    0.0000 C   0  0  0  0  0  0  0  0  0  0  0  0
    5.8678    2.8716    0.0000 C   0  0  0  0  0  0  0  0  0  0  0  0
    5.8678    1.8300    0.0000 C   0  0  2  0  0  0  0  0  0  0  0  0
    3.2018    1.3508    0.0000 C   0  0  0  0  0  0  0  0  0  0  0  0
    2.3358    2.8508    0.0000 C   0  0  0  0  0  0  0  0  0  0  0  0
    2.3358    1.8508    0.0000 C   0  0  0  0  0  0  0  0  0  0  0  0
    4.9502    4.3854    0.0000 C   0  0  0  0  0  0  0  0  0  0  0  0
    6.7319    1.3266    0.0000 C   0  0  0  0  0  0  0  0  0  0  0  0
    5.8104    4.8954    0.0000 C   0  0  0  0  0  0  0  0  0  0  0  0
    1.4418    1.3161    0.0000 C   0  0  0  0  0  0  0  0  0  0  0  0
    1.4418    3.3854    0.0000 C   0  0  0  0  0  0  0  0  0  0  0  0
    0.5357    1.8300    0.0000 C   0  0  0  0  0  0  0  0  0  0  0  0
    0.5357    2.8716    0.0000 C   0  0  0  0  0  0  0  0  0  0  0  0
    5.7988    5.8953    0.0000 C   0  0  0  0  0  0  0  0  0  0  0  0
    7.7082    2.8174    0.0000 C   0  0  0  0  0  0  0  0  0  0  0  0
    8.6872    3.0215    0.0000 C   0  0  0  0  0  0  0  0  0  0  0  0
    9.1838    2.1536    0.0000 C   0  0  0  0  0  0  0  0  0  0  0  0
    4.0612    3.7008    0.0000 H   0  0  0  0  0  0  0  0  0  0  0  0
    4.0612    1.0008    0.0000 H   0  0  0  0  0  0  0  0  0  0  0  0
    3.6003    3.8257    0.0000 H   0  0  0  0  0  0  0  0  0  0  0  0
    2.8032    3.8257    0.0000 H   0  0  0  0  0  0  0  0  0  0  0  0
    6.4787    2.7655    0.0000 H   0  0  0  0  0  0  0  0  0  0  0  0
    6.0769    3.4553    0.0000 H   0  0  0  0  0  0  0  0  0  0  0  0
    5.8642    1.2100    0.0000 H   0  0  0  0  0  0  0  0  0  0  0  0
    2.8032    0.8758    0.0000 H   0  0  0  0  0  0  0  0  0  0  0  0
    3.6003    0.8758    0.0000 H   0  0  0  0  0  0  0  0  0  0  0  0
    4.7314    4.9655    0.0000 H   0  0  0  0  0  0  0  0  0  0  0  0
    4.3409    4.2707    0.0000 H   0  0  0  0  0  0  0  0  0  0  0  0
    6.3315    0.8532    0.0000 H   0  0  0  0  0  0  0  0  0  0  0  0
    7.1286    0.8502    0.0000 H   0  0  0  0  0  0  0  0  0  0  0  0
    6.0291    4.3152    0.0000 H   0  0  0  0  0  0  0  0  0  0  0  0
    6.4197    5.0101    0.0000 H   0  0  0  0  0  0  0  0  0  0  0  0
    1.4490    4.0054    0.0000 H   0  0  0  0  0  0  0  0  0  0  0  0
    0.0000    1.5179    0.0000 H   0  0  0  0  0  0  0  0  0  0  0  0
    0.0000    3.1837    0.0000 H   0  0  0  0  0  0  0  0  0  0  0  0
    6.4188    5.9025    0.0000 H   0  0  0  0  0  0  0  0  0  0  0  0
    5.7916    6.5152    0.0000 H   0  0  0  0  0  0  0  0  0  0  0  0
    5.1788    5.8881    0.0000 H   0  0  0  0  0  0  0  0  0  0  0  0
    7.2491    3.2340    0.0000 H   0  0  0  0  0  0  0  0  0  0  0  0
    0.9201    0.0000    0.0000 H   0  0  0  0  0  0  0  0  0  0  0  0
    9.8002    2.0864    0.0000 H   0  0  0  0  0  0  0  0  0  0  0  0
    5.4001    8.5450    0.0000 H   0  0  0  0  0  0  0  0  0  0  0  0
  1 25  1  0  0  0  0
  2 51  1  0  0  0  0
  3  9  1  0  0  0  0
  3 12  1  0  0  0  0
  4 19  1  0  0  0  0
  4 49  1  0  0  0  0
  5  8  1  0  0  0  0
  5 11  1  0  0  0  0
  5 16  1  0  0  0  0
  6  7  1  0  0  0  0
  6 17  1  0  0  0  0
  6 24  1  0  0  0  0
  7 26  2  0  0  0  0
  8  9  1  0  0  0  0
  8 10  1  0  0  0  0
  8 27  1  6  0  0  0
  9 13  1  0  0  0  0
  9 28  1  1  0  0  0
 10 14  1  0  0  0  0
 10 29  1  0  0  0  0
 10 30  1  0  0  0  0
 11 12  1  0  0  0  0
 11 31  1  0  0  0  0
 11 32  1  0  0  0  0
 12 17  1  6  0  0  0
 12 33  1  0  0  0  0
 13 15  1  0  0  0  0
 13 34  1  0  0  0  0
 13 35  1  0  0  0  0
 14 15  2  0  0  0  0
 14 20  1  0  0  0  0
 15 19  1  0  0  0  0
 16 18  1  0  0  0  0
 16 36  1  0  0  0  0
 16 37  1  0  0  0  0
 17 38  1  0  0  0  0
 17 39  1  0  0  0  0
 18 23  1  0  0  0  0
 18 40  1  0  0  0  0
 18 41  1  0  0  0  0
 19 21  2  0  0  0  0
 20 22  2  0  0  0  0
 20 42  1  0  0  0  0
 21 22  1  0  0  0  0
 21 43  1  0  0  0  0
 22 44  1  0  0  0  0
 23 45  1  0  0  0  0
 23 46  1  0  0  0  0
 23 47  1  0  0  0  0
 24 25  2  0  0  0  0
 24 48  1  0  0  0  0
 25 26  1  0  0  0  0
 26 50  1  0  0  0  0
M  END
> <PUBCHEM_COMPOUND_CID>
73057395

> <PUBCHEM_COMPOUND_CANONICALIZED>
1

> <PUBCHEM_CACTVS_COMPLEXITY>
454

> <PUBCHEM_CACTVS_HBOND_ACCEPTOR>
4

> <PUBCHEM_CACTVS_HBOND_DONOR>
2

> <PUBCHEM_CACTVS_ROTATABLE_BOND>
4

> <PUBCHEM_CACTVS_SUBSKEYS>
AAADceB7MAAGAAAAAAAAAAAAAAAAAWAAAAA8YIAAAAAAAADxwAAAHgIICAAADD7hmiY+hpMIBgCiAjBnRACSBAAxoQAY2CAuTJgKJqLC0VPH9AgkyBHYmAfQ0LMOgAABAAAYAABQAAKAADAgAAAAAAAAAA==

> <PUBCHEM_IUPAC_OPENEYE_NAME>
(2R,4aR,10aR)-2-[(4-chloropyrazol-1-yl)methyl]-4-propyl-2,3,4a,5,10,10a-hexahydrobenzo[g][1,4]benzoxazin-9-ol;hydrochloride

> <PUBCHEM_IUPAC_CAS_NAME>
(2R,4aR,10aR)-2-[(4-chloro-1-pyrazolyl)methyl]-4-propyl-2,3,4a,5,10,10a-hexahydrobenzo[g][1,4]benzoxazin-9-ol;hydrochloride

> <PUBCHEM_IUPAC_NAME_MARKUP>
(2<I>R</I>,4<I>a</I><I>R</I>,10<I>a</I><I>R</I>)-2-[(4-chloropyrazol-1-yl)methyl]-4-propyl-2,3,4<I>a</I>,5,10,10<I>a</I>-hexahydrobenzo[g][1,4]benzoxazin-9-ol;hydrochloride

> <PUBCHEM_IUPAC_NAME>
(2R,4aR,10aR)-2-[(4-chloropyrazol-1-yl)methyl]-4-propyl-2,3,4a,5,10,10a-hexahydrobenzo[g][1,4]benzoxazin-9-ol;hydrochloride

> <PUBCHEM_IUPAC_SYSTEMATIC_NAME>
(2R,4aR,10aR)-2-[(4-chloranylpyrazol-1-yl)methyl]-4-propyl-2,3,4a,5,10,10a-hexahydrobenzo[g][1,4]benzoxazin-9-ol;hydrochloride

> <PUBCHEM_IUPAC_TRADITIONAL_NAME>
(2R,4aR,10aR)-2-[(4-chloropyrazol-1-yl)methyl]-4-propyl-2,3,4a,5,10,10a-hexahydrobenzo[g][1,4]benzoxazin-9-ol;hydrochloride

> <PUBCHEM_IUPAC_INCHI>
InChI=1S/C19H24ClN3O2.ClH/c1-2-6-22-11-15(12-23-10-14(20)9-21-23)25-19-8-16-13(7-17(19)22)4-3-5-18(16)24;/h3-5,9-10,15,17,19,24H,2,6-8,11-12H2,1H3;1H/t15-,17-,19-;/m1./s1

> <PUBCHEM_IUPAC_INCHIKEY>
IOAZCIZEMHPCAC-YFLXZMGJSA-N

> <PUBCHEM_EXACT_MASS>
397.1323824

> <PUBCHEM_MOLECULAR_FORMULA>
C19H25Cl2N3O2

> <PUBCHEM_MOLECULAR_WEIGHT>
398.3

> <PUBCHEM_OPENEYE_CAN_SMILES>
CCCN1CC(OC2C1CC3=C(C2)C(=CC=C3)O)CN4C=C(C=N4)Cl.Cl

> <PUBCHEM_OPENEYE_ISO_SMILES>
CCCN1C[C@@H](O[C@H]2[C@H]1CC3=C(C2)C(=CC=C3)O)CN4C=C(C=N4)Cl.Cl

> <PUBCHEM_CACTVS_TPSA>
50.5

> <PUBCHEM_MONOISOTOPIC_WEIGHT>
397.1323824

> <PUBCHEM_TOTAL_CHARGE>
0

> <PUBCHEM_HEAVY_ATOM_COUNT>
26

> <PUBCHEM_ATOM_DEF_STEREO_COUNT>
3

> <PUBCHEM_ATOM_UDEF_STEREO_COUNT>
0

> <PUBCHEM_BOND_DEF_STEREO_COUNT>
0

> <PUBCHEM_BOND_UDEF_STEREO_COUNT>
0

> <PUBCHEM_ISOTOPIC_ATOM_COUNT>
0

> <PUBCHEM_COMPONENT_COUNT>
2

> <PUBCHEM_CACTVS_TAUTO_COUNT>
-1

> <PUBCHEM_COORDINATE_TYPE>
1
5
255

> <PUBCHEM_BONDANNOTATIONS>
12  17  6
14  15  8
14  20  8
15  19  8
19  21  8
20  22  8
21  22  8
24  25  8
25  26  8
6  24  8
6  7  8
7  26  8
8  27  6
9  28  5

$$$$
