155541775
  -OEChem-09292322012D

 59 64  0     1  0  0  0  0  0999 V2000
    5.4641   -0.0002    0.0000 Br  0  0  0  0  0  0  0  0  0  0  0  0
    2.0000   -2.0002    0.0000 Cl  0  0  0  0  0  0  0  0  0  0  0  0
   14.2045    0.8045    0.0000 O   0  0  0  0  0  0  0  0  0  0  0  0
   14.2045   -0.8050    0.0000 O   0  0  0  0  0  0  0  0  0  0  0  0
    8.0622   -0.5002    0.0000 N   0  0  0  0  0  0  0  0  0  0  0  0
    6.3301   -1.5002    0.0000 N   0  0  0  0  0  0  0  0  0  0  0  0
   10.6603    0.9998    0.0000 C   0  0  2  0  0  0  0  0  0  0  0  0
    9.7942    1.4998    0.0000 C   0  0  1  0  0  0  0  0  0  0  0  0
   10.6605    2.0002    0.0000 C   0  0  0  0  0  0  0  0  0  0  0  0
    8.9282    0.9998    0.0000 C   0  0  0  0  0  0  0  0  0  0  0  0
   10.6603   -0.0002    0.0000 C   0  0  0  0  0  0  0  0  0  0  0  0
    8.9282   -0.0002    0.0000 C   0  0  1  0  0  0  0  0  0  0  0  0
    9.7942   -0.5002    0.0000 C   0  0  0  0  0  0  0  0  0  0  0  0
   11.5263    0.4998    0.0000 C   0  0  0  0  0  0  0  0  0  0  0  0
   12.3923    0.9998    0.0000 C   0  0  0  0  0  0  0  0  0  0  0  0
   11.5263   -0.5002    0.0000 C   0  0  0  0  0  0  0  0  0  0  0  0
    8.0622   -1.5002    0.0000 C   0  0  0  0  0  0  0  0  0  0  0  0
    7.1962   -0.0002    0.0000 C   0  0  0  0  0  0  0  0  0  0  0  0
    7.1962   -2.0002    0.0000 C   0  0  0  0  0  0  0  0  0  0  0  0
    6.3301   -0.5002    0.0000 C   0  0  0  0  0  0  0  0  0  0  0  0
   13.2583    0.4998    0.0000 C   0  0  0  0  0  0  0  0  0  0  0  0
   12.3923   -1.0002    0.0000 C   0  0  0  0  0  0  0  0  0  0  0  0
   13.2583   -0.5002    0.0000 C   0  0  0  0  0  0  0  0  0  0  0  0
    5.4641   -2.0002    0.0000 C   0  0  0  0  0  0  0  0  0  0  0  0
   14.7882   -0.0002    0.0000 C   0  0  0  0  0  0  0  0  0  0  0  0
    4.5981   -1.5002    0.0000 C   0  0  0  0  0  0  0  0  0  0  0  0
    4.5981   -0.5002    0.0000 C   0  0  0  0  0  0  0  0  0  0  0  0
    3.7320   -2.0002    0.0000 C   0  0  0  0  0  0  0  0  0  0  0  0
    2.8660   -1.5002    0.0000 C   0  0  0  0  0  0  0  0  0  0  0  0
    3.7320   -0.0002    0.0000 C   0  0  0  0  0  0  0  0  0  0  0  0
    2.8660   -0.5002    0.0000 C   0  0  0  0  0  0  0  0  0  0  0  0
    9.3691    2.2358    0.0000 H   0  0  0  0  0  0  0  0  0  0  0  0
   11.2711    2.1078    0.0000 H   0  0  0  0  0  0  0  0  0  0  0  0
   10.4484    2.5828    0.0000 H   0  0  0  0  0  0  0  0  0  0  0  0
    8.7162    1.5824    0.0000 H   0  0  0  0  0  0  0  0  0  0  0  0
    8.3176    0.8921    0.0000 H   0  0  0  0  0  0  0  0  0  0  0  0
   10.8723   -0.5828    0.0000 H   0  0  0  0  0  0  0  0  0  0  0  0
   11.2708    0.1074    0.0000 H   0  0  0  0  0  0  0  0  0  0  0  0
    8.9282   -0.6202    0.0000 H   0  0  0  0  0  0  0  0  0  0  0  0
    9.3957   -0.9752    0.0000 H   0  0  0  0  0  0  0  0  0  0  0  0
   10.1928   -0.9752    0.0000 H   0  0  0  0  0  0  0  0  0  0  0  0
   12.3923    1.6198    0.0000 H   0  0  0  0  0  0  0  0  0  0  0  0
   10.9893   -0.8102    0.0000 H   0  0  0  0  0  0  0  0  0  0  0  0
    8.2742   -2.0828    0.0000 H   0  0  0  0  0  0  0  0  0  0  0  0
    8.6728   -1.3926    0.0000 H   0  0  0  0  0  0  0  0  0  0  0  0
    7.5947    0.4747    0.0000 H   0  0  0  0  0  0  0  0  0  0  0  0
    6.7976    0.4747    0.0000 H   0  0  0  0  0  0  0  0  0  0  0  0
    6.7976   -2.4752    0.0000 H   0  0  0  0  0  0  0  0  0  0  0  0
    7.5947   -2.4752    0.0000 H   0  0  0  0  0  0  0  0  0  0  0  0
    6.1181    0.0824    0.0000 H   0  0  0  0  0  0  0  0  0  0  0  0
    5.7196   -0.6079    0.0000 H   0  0  0  0  0  0  0  0  0  0  0  0
   12.3923   -1.6202    0.0000 H   0  0  0  0  0  0  0  0  0  0  0  0
    5.0656   -2.4752    0.0000 H   0  0  0  0  0  0  0  0  0  0  0  0
    5.8626   -2.4752    0.0000 H   0  0  0  0  0  0  0  0  0  0  0  0
   15.2490   -0.4150    0.0000 H   0  0  0  0  0  0  0  0  0  0  0  0
   15.2490    0.4145    0.0000 H   0  0  0  0  0  0  0  0  0  0  0  0
    3.7320   -2.6202    0.0000 H   0  0  0  0  0  0  0  0  0  0  0  0
    3.7320    0.6198    0.0000 H   0  0  0  0  0  0  0  0  0  0  0  0
    2.3291   -0.1902    0.0000 H   0  0  0  0  0  0  0  0  0  0  0  0
  1 27  1  0  0  0  0
  2 29  1  0  0  0  0
  3 21  1  0  0  0  0
  3 25  1  0  0  0  0
  4 23  1  0  0  0  0
  4 25  1  0  0  0  0
 12  5  1  1  0  0  0
  5 17  1  0  0  0  0
  5 18  1  0  0  0  0
  6 19  1  0  0  0  0
  6 20  1  0  0  0  0
  6 24  1  0  0  0  0
  7  8  1  0  0  0  0
  7  9  1  0  0  0  0
  7 11  1  0  0  0  0
  7 14  1  1  0  0  0
  8  9  1  0  0  0  0
  8 10  1  0  0  0  0
  8 32  1  1  0  0  0
  9 33  1  0  0  0  0
  9 34  1  0  0  0  0
 10 12  1  0  0  0  0
 10 35  1  0  0  0  0
 10 36  1  0  0  0  0
 11 13  1  0  0  0  0
 11 37  1  0  0  0  0
 11 38  1  0  0  0  0
 12 13  1  0  0  0  0
 12 39  1  0  0  0  0
 13 40  1  0  0  0  0
 13 41  1  0  0  0  0
 14 15  2  0  0  0  0
 14 16  1  0  0  0  0
 15 21  1  0  0  0  0
 15 42  1  0  0  0  0
 16 22  2  0  0  0  0
 16 43  1  0  0  0  0
 17 19  1  0  0  0  0
 17 44  1  0  0  0  0
 17 45  1  0  0  0  0
 18 20  1  0  0  0  0
 18 46  1  0  0  0  0
 18 47  1  0  0  0  0
 19 48  1  0  0  0  0
 19 49  1  0  0  0  0
 20 50  1  0  0  0  0
 20 51  1  0  0  0  0
 21 23  2  0  0  0  0
 22 23  1  0  0  0  0
 22 52  1  0  0  0  0
 24 26  1  0  0  0  0
 24 53  1  0  0  0  0
 24 54  1  0  0  0  0
 25 55  1  0  0  0  0
 25 56  1  0  0  0  0
 26 27  2  0  0  0  0
 26 28  1  0  0  0  0
 27 30  1  0  0  0  0
 28 29  2  0  0  0  0
 28 57  1  0  0  0  0
 29 31  1  0  0  0  0
 30 31  2  0  0  0  0
 30 58  1  0  0  0  0
 31 59  1  0  0  0  0
M  END
> <PUBCHEM_COMPOUND_CID>
155541775

> <PUBCHEM_COMPOUND_CANONICALIZED>
1

> <PUBCHEM_CACTVS_COMPLEXITY>
647

> <PUBCHEM_CACTVS_HBOND_ACCEPTOR>
4

> <PUBCHEM_CACTVS_HBOND_DONOR>
0

> <PUBCHEM_CACTVS_ROTATABLE_BOND>
4

> <PUBCHEM_CACTVS_SUBSKEYS>
AAADceB7MAAEEAAAAAAAAAAAGAAAASAAAAA8YMEABgAAAEgBQAAAHgJAAAABry7BmCcwDoMABACAAiBCAACCCAAgJQQIiAAOjqgdZiKFsxu0MCpkwBGOqheQwPAPoAAJIAAAwABQABLAACGAAAAAAAAAAA==

> <PUBCHEM_IUPAC_OPENEYE_NAME>
1-[(1S,3R,6R)-6-(1,3-benzodioxol-5-yl)norcaran-3-yl]-4-[(2-bromo-5-chloro-phenyl)methyl]piperazine

> <PUBCHEM_IUPAC_CAS_NAME>
1-[(1S,3R,6R)-6-(1,3-benzodioxol-5-yl)-3-bicyclo[4.1.0]heptanyl]-4-[(2-bromo-5-chlorophenyl)methyl]piperazine

> <PUBCHEM_IUPAC_NAME_MARKUP>
1-[(1<I>S</I>,3<I>R</I>,6<I>R</I>)-6-(1,3-benzodioxol-5-yl)-3-bicyclo[4.1.0]heptanyl]-4-[(2-bromo-5-chlorophenyl)methyl]piperazine

> <PUBCHEM_IUPAC_NAME>
1-[(1S,3R,6R)-6-(1,3-benzodioxol-5-yl)-3-bicyclo[4.1.0]heptanyl]-4-[(2-bromo-5-chlorophenyl)methyl]piperazine

> <PUBCHEM_IUPAC_SYSTEMATIC_NAME>
1-[(1S,3R,6R)-6-(1,3-benzodioxol-5-yl)-3-bicyclo[4.1.0]heptanyl]-4-[(2-bromanyl-5-chloranyl-phenyl)methyl]piperazine

> <PUBCHEM_IUPAC_TRADITIONAL_NAME>
1-[(1S,3R,6R)-6-(1,3-benzodioxol-5-yl)norcaran-3-yl]-4-(2-bromo-5-chloro-benzyl)piperazine

> <PUBCHEM_IUPAC_INCHI>
InChI=1S/C25H28BrClN2O2/c26-22-3-2-20(27)11-17(22)15-28-7-9-29(10-8-28)21-5-6-25(14-19(25)12-21)18-1-4-23-24(13-18)31-16-30-23/h1-4,11,13,19,21H,5-10,12,14-16H2/t19-,21-,25+/m1/s1

> <PUBCHEM_IUPAC_INCHIKEY>
VPVAKWMBXKRBMC-ZJCBTPCYSA-N

> <PUBCHEM_XLOGP3_AA>
5.9

> <PUBCHEM_EXACT_MASS>
502.10227

> <PUBCHEM_MOLECULAR_FORMULA>
C25H28BrClN2O2

> <PUBCHEM_MOLECULAR_WEIGHT>
503.9

> <PUBCHEM_OPENEYE_CAN_SMILES>
C1CC2(CC2CC1N3CCN(CC3)CC4=C(C=CC(=C4)Cl)Br)C5=CC6=C(C=C5)OCO6

> <PUBCHEM_OPENEYE_ISO_SMILES>
C1C[C@]2(C[C@H]2C[C@@H]1N3CCN(CC3)CC4=C(C=CC(=C4)Cl)Br)C5=CC6=C(C=C5)OCO6

> <PUBCHEM_CACTVS_TPSA>
24.9

> <PUBCHEM_MONOISOTOPIC_WEIGHT>
502.10227

> <PUBCHEM_TOTAL_CHARGE>
0

> <PUBCHEM_HEAVY_ATOM_COUNT>
31

> <PUBCHEM_ATOM_DEF_STEREO_COUNT>
3

> <PUBCHEM_ATOM_UDEF_STEREO_COUNT>
0

> <PUBCHEM_BOND_DEF_STEREO_COUNT>
0

> <PUBCHEM_BOND_UDEF_STEREO_COUNT>
0

> <PUBCHEM_ISOTOPIC_ATOM_COUNT>
0

> <PUBCHEM_COMPONENT_COUNT>
1

> <PUBCHEM_CACTVS_TAUTO_COUNT>
-1

> <PUBCHEM_COORDINATE_TYPE>
1
5
255

> <PUBCHEM_BONDANNOTATIONS>
14  15  8
14  16  8
15  21  8
16  22  8
21  23  8
22  23  8
26  27  8
26  28  8
27  30  8
28  29  8
29  31  8
30  31  8
12  5  5
7  14  5
8  32  5

$$$$
