71455002
  -OEChem-09292322332D

 56 59  0     1  0  0  0  0  0999 V2000
    4.3511   -0.6524    0.0000 S   0  0  0  0  0  0  0  0  0  0  0  0
    2.0000   -3.8885    0.0000 F   0  0  0  0  0  0  0  0  0  0  0  0
   10.1142    0.8885    0.0000 O   0  0  0  0  0  0  0  0  0  0  0  0
    3.5421   -0.0646    0.0000 O   0  0  0  0  0  0  0  0  0  0  0  0
    5.1602   -1.2402    0.0000 O   0  0  0  0  0  0  0  0  0  0  0  0
    7.5161    0.3885    0.0000 N   0  0  3  0  0  0  0  0  0  0  0  0
    4.9389    0.1566    0.0000 N   0  0  0  0  0  0  0  0  0  0  0  0
    5.9334    0.0521    0.0000 C   0  0  2  0  0  0  0  0  0  0  0  0
    6.4334   -0.8140    0.0000 C   0  0  0  0  0  0  0  0  0  0  0  0
    6.6026    0.7952    0.0000 C   0  0  0  0  0  0  0  0  0  0  0  0
    7.4116   -0.6060    0.0000 C   0  0  0  0  0  0  0  0  0  0  0  0
    8.3822    0.8885    0.0000 C   0  0  0  0  0  0  0  0  0  0  0  0
    9.2482    0.3885    0.0000 C   0  0  0  0  0  0  0  0  0  0  0  0
    3.7634   -1.4614    0.0000 C   0  0  0  0  0  0  0  0  0  0  0  0
    4.1701   -2.3750    0.0000 C   0  0  0  0  0  0  0  0  0  0  0  0
    2.7688   -1.3569    0.0000 C   0  0  0  0  0  0  0  0  0  0  0  0
   10.9802    0.3885    0.0000 C   0  0  0  0  0  0  0  0  0  0  0  0
   11.8463    0.8885    0.0000 C   0  0  0  0  0  0  0  0  0  0  0  0
    3.5823   -3.1840    0.0000 C   0  0  0  0  0  0  0  0  0  0  0  0
    2.1810   -2.1659    0.0000 C   0  0  0  0  0  0  0  0  0  0  0  0
   10.9802   -0.6115    0.0000 C   0  0  0  0  0  0  0  0  0  0  0  0
    2.5878   -3.0795    0.0000 C   0  0  0  0  0  0  0  0  0  0  0  0
   11.8463    1.8885    0.0000 C   0  0  0  0  0  0  0  0  0  0  0  0
   12.7123    0.3885    0.0000 C   0  0  0  0  0  0  0  0  0  0  0  0
   11.8463   -1.1115    0.0000 C   0  0  0  0  0  0  0  0  0  0  0  0
   12.7123   -0.6115    0.0000 C   0  0  0  0  0  0  0  0  0  0  0  0
   12.7123    2.3885    0.0000 C   0  0  0  0  0  0  0  0  0  0  0  0
   10.9802    2.3885    0.0000 C   0  0  0  0  0  0  0  0  0  0  0  0
   12.7123    3.3885    0.0000 C   0  0  0  0  0  0  0  0  0  0  0  0
   10.9802    3.3885    0.0000 C   0  0  0  0  0  0  0  0  0  0  0  0
   11.8463    3.8885    0.0000 C   0  0  0  0  0  0  0  0  0  0  0  0
    5.5958   -0.4679    0.0000 H   0  0  0  0  0  0  0  0  0  0  0  0
    5.8670   -1.0661    0.0000 H   0  0  0  0  0  0  0  0  0  0  0  0
    6.6250   -1.4036    0.0000 H   0  0  0  0  0  0  0  0  0  0  0  0
    6.9126    1.3322    0.0000 H   0  0  0  0  0  0  0  0  0  0  0  0
    6.1010    1.1596    0.0000 H   0  0  0  0  0  0  0  0  0  0  0  0
    7.4764   -1.2226    0.0000 H   0  0  0  0  0  0  0  0  0  0  0  0
    8.0316   -0.6060    0.0000 H   0  0  0  0  0  0  0  0  0  0  0  0
    8.7807    1.3634    0.0000 H   0  0  0  0  0  0  0  0  0  0  0  0
    7.9836    1.3634    0.0000 H   0  0  0  0  0  0  0  0  0  0  0  0
    4.6868    0.7230    0.0000 H   0  0  0  0  0  0  0  0  0  0  0  0
    8.8496   -0.0865    0.0000 H   0  0  0  0  0  0  0  0  0  0  0  0
    9.6467   -0.0865    0.0000 H   0  0  0  0  0  0  0  0  0  0  0  0
    4.7867   -2.4398    0.0000 H   0  0  0  0  0  0  0  0  0  0  0  0
    2.5167   -0.7905    0.0000 H   0  0  0  0  0  0  0  0  0  0  0  0
    3.8345   -3.7504    0.0000 H   0  0  0  0  0  0  0  0  0  0  0  0
    1.5644   -2.1011    0.0000 H   0  0  0  0  0  0  0  0  0  0  0  0
   10.4433   -0.9215    0.0000 H   0  0  0  0  0  0  0  0  0  0  0  0
   13.2492    0.6985    0.0000 H   0  0  0  0  0  0  0  0  0  0  0  0
   11.8463   -1.7315    0.0000 H   0  0  0  0  0  0  0  0  0  0  0  0
   13.2492   -0.9215    0.0000 H   0  0  0  0  0  0  0  0  0  0  0  0
   13.2492    2.0785    0.0000 H   0  0  0  0  0  0  0  0  0  0  0  0
   10.4433    2.0785    0.0000 H   0  0  0  0  0  0  0  0  0  0  0  0
   13.2492    3.6985    0.0000 H   0  0  0  0  0  0  0  0  0  0  0  0
   10.4433    3.6985    0.0000 H   0  0  0  0  0  0  0  0  0  0  0  0
   11.8463    4.5085    0.0000 H   0  0  0  0  0  0  0  0  0  0  0  0
  1  4  2  0  0  0  0
  1  5  2  0  0  0  0
  1  7  1  0  0  0  0
  1 14  1  0  0  0  0
  2 22  1  0  0  0  0
  3 13  1  0  0  0  0
  3 17  1  0  0  0  0
  6 10  1  0  0  0  0
  6 11  1  0  0  0  0
  6 12  1  0  0  0  0
  8  7  1  1  0  0  0
  7 41  1  0  0  0  0
  8  9  1  0  0  0  0
  8 10  1  0  0  0  0
  8 32  1  0  0  0  0
  9 11  1  0  0  0  0
  9 33  1  0  0  0  0
  9 34  1  0  0  0  0
 10 35  1  0  0  0  0
 10 36  1  0  0  0  0
 11 37  1  0  0  0  0
 11 38  1  0  0  0  0
 12 13  1  0  0  0  0
 12 39  1  0  0  0  0
 12 40  1  0  0  0  0
 13 42  1  0  0  0  0
 13 43  1  0  0  0  0
 14 15  2  0  0  0  0
 14 16  1  0  0  0  0
 15 19  1  0  0  0  0
 15 44  1  0  0  0  0
 16 20  2  0  0  0  0
 16 45  1  0  0  0  0
 17 18  1  0  0  0  0
 17 21  2  0  0  0  0
 18 23  1  0  0  0  0
 18 24  2  0  0  0  0
 19 22  2  0  0  0  0
 19 46  1  0  0  0  0
 20 22  1  0  0  0  0
 20 47  1  0  0  0  0
 21 25  1  0  0  0  0
 21 48  1  0  0  0  0
 23 27  2  0  0  0  0
 23 28  1  0  0  0  0
 24 26  1  0  0  0  0
 24 49  1  0  0  0  0
 25 26  2  0  0  0  0
 25 50  1  0  0  0  0
 26 51  1  0  0  0  0
 27 29  1  0  0  0  0
 27 52  1  0  0  0  0
 28 30  2  0  0  0  0
 28 53  1  0  0  0  0
 29 31  2  0  0  0  0
 29 54  1  0  0  0  0
 30 31  1  0  0  0  0
 30 55  1  0  0  0  0
 31 56  1  0  0  0  0
M  END
> <PUBCHEM_COMPOUND_CID>
71455002

> <PUBCHEM_COMPOUND_CANONICALIZED>
1

> <PUBCHEM_CACTVS_COMPLEXITY>
642

> <PUBCHEM_CACTVS_HBOND_ACCEPTOR>
6

> <PUBCHEM_CACTVS_HBOND_DONOR>
1

> <PUBCHEM_CACTVS_ROTATABLE_BOND>
8

> <PUBCHEM_CACTVS_SUBSKEYS>
AAADceB7MQBAAAAAAAAAAAAAAAAAAWAAAAAwYMAAAAAAAAABUAAAHwQQQAAADCzh2A4wB4NABAKAAiBCAHBCCBAgIAAIiJgOCIgOZiKE8RqXOCCk0BGYqAeAwOAOgAAAAAAIAAAAAAAAABAAAAAAAAAAAA==

> <PUBCHEM_IUPAC_OPENEYE_NAME>
4-fluoro-N-[(3R)-1-[2-(2-phenylphenoxy)ethyl]pyrrolidin-3-yl]benzenesulfonamide

> <PUBCHEM_IUPAC_CAS_NAME>
4-fluoro-N-[(3R)-1-[2-(2-phenylphenoxy)ethyl]-3-pyrrolidinyl]benzenesulfonamide

> <PUBCHEM_IUPAC_NAME_MARKUP>
4-fluoro-<I>N</I>-[(3<I>R</I>)-1-[2-(2-phenylphenoxy)ethyl]pyrrolidin-3-yl]benzenesulfonamide

> <PUBCHEM_IUPAC_NAME>
4-fluoro-N-[(3R)-1-[2-(2-phenylphenoxy)ethyl]pyrrolidin-3-yl]benzenesulfonamide

> <PUBCHEM_IUPAC_SYSTEMATIC_NAME>
4-fluoranyl-N-[(3R)-1-[2-(2-phenylphenoxy)ethyl]pyrrolidin-3-yl]benzenesulfonamide

> <PUBCHEM_IUPAC_TRADITIONAL_NAME>
4-fluoro-N-[(3R)-1-[2-(2-phenylphenoxy)ethyl]pyrrolidin-3-yl]benzenesulfonamide

> <PUBCHEM_IUPAC_INCHI>
InChI=1S/C24H25FN2O3S/c25-20-10-12-22(13-11-20)31(28,29)26-21-14-15-27(18-21)16-17-30-24-9-5-4-8-23(24)19-6-2-1-3-7-19/h1-13,21,26H,14-18H2/t21-/m1/s1

> <PUBCHEM_IUPAC_INCHIKEY>
GTWOHZJMQWACQH-OAQYLSRUSA-N

> <PUBCHEM_XLOGP3_AA>
4.5

> <PUBCHEM_EXACT_MASS>
440.15699200

> <PUBCHEM_MOLECULAR_FORMULA>
C24H25FN2O3S

> <PUBCHEM_MOLECULAR_WEIGHT>
440.5

> <PUBCHEM_OPENEYE_CAN_SMILES>
C1CN(CC1NS(=O)(=O)C2=CC=C(C=C2)F)CCOC3=CC=CC=C3C4=CC=CC=C4

> <PUBCHEM_OPENEYE_ISO_SMILES>
C1CN(C[C@@H]1NS(=O)(=O)C2=CC=C(C=C2)F)CCOC3=CC=CC=C3C4=CC=CC=C4

> <PUBCHEM_CACTVS_TPSA>
67

> <PUBCHEM_MONOISOTOPIC_WEIGHT>
440.15699200

> <PUBCHEM_TOTAL_CHARGE>
0

> <PUBCHEM_HEAVY_ATOM_COUNT>
31

> <PUBCHEM_ATOM_DEF_STEREO_COUNT>
1

> <PUBCHEM_ATOM_UDEF_STEREO_COUNT>
0

> <PUBCHEM_BOND_DEF_STEREO_COUNT>
0

> <PUBCHEM_BOND_UDEF_STEREO_COUNT>
0

> <PUBCHEM_ISOTOPIC_ATOM_COUNT>
0

> <PUBCHEM_COMPONENT_COUNT>
1

> <PUBCHEM_CACTVS_TAUTO_COUNT>
-1

> <PUBCHEM_COORDINATE_TYPE>
1
5
255

> <PUBCHEM_BONDANNOTATIONS>
14  15  8
14  16  8
15  19  8
16  20  8
17  18  8
17  21  8
18  24  8
19  22  8
20  22  8
21  25  8
23  27  8
23  28  8
24  26  8
25  26  8
27  29  8
28  30  8
29  31  8
30  31  8
8  7  5

$$$$
