155562834
  -OEChem-09292322412D

 62 66  0     1  0  0  0  0  0999 V2000
   11.2917   -2.2801    0.0000 S   0  0  0  0  0  0  0  0  0  0  0  0
   11.2705   -1.2804    0.0000 O   0  0  0  0  0  0  0  0  0  0  0  0
   12.2360   -1.9510    0.0000 O   0  0  0  0  0  0  0  0  0  0  0  0
    5.1500    0.9794    0.0000 N   0  0  0  0  0  0  0  0  0  0  0  0
   10.2981   -2.2606    0.0000 N   0  0  3  0  0  0  0  0  0  0  0  0
    4.0745    2.6656    0.0000 N   0  0  0  0  0  0  0  0  0  0  0  0
    3.9980    4.3960    0.0000 N   0  0  0  0  0  0  0  0  0  0  0  0
    5.6878    0.1363    0.0000 C   0  0  0  0  0  0  0  0  0  0  0  0
    5.6113    1.8667    0.0000 C   0  0  0  0  0  0  0  0  0  0  0  0
    4.1510    0.9353    0.0000 C   0  0  0  0  0  0  0  0  0  0  0  0
    6.6868    0.1805    0.0000 C   0  0  0  0  0  0  0  0  0  0  0  0
    7.2245   -0.6626    0.0000 C   0  0  0  0  0  0  0  0  0  0  0  0
    5.0735    2.7098    0.0000 C   0  0  0  0  0  0  0  0  0  0  0  0
    3.6132    1.7784    0.0000 C   0  0  0  0  0  0  0  0  0  0  0  0
    9.7603   -1.4175    0.0000 C   0  0  0  0  0  0  0  0  0  0  0  0
    8.2236   -0.6185    0.0000 C   0  0  0  0  0  0  0  0  0  0  0  0
    8.7613   -1.4616    0.0000 C   0  0  0  0  0  0  0  0  0  0  0  0
    9.8968   -3.1698    0.0000 C   0  0  0  0  0  0  0  0  0  0  0  0
   10.7908   -3.7044    0.0000 C   0  0  0  0  0  0  0  0  0  0  0  0
   11.6568   -3.2044    0.0000 C   0  0  0  0  0  0  0  0  0  0  0  0
   10.7908   -4.7044    0.0000 C   0  0  0  0  0  0  0  0  0  0  0  0
    8.9908   -3.6836    0.0000 C   0  0  0  0  0  0  0  0  0  0  0  0
    3.5368    3.5087    0.0000 C   0  0  0  0  0  0  0  0  0  0  0  0
   12.5228   -3.7044    0.0000 C   0  0  0  0  0  0  0  0  0  0  0  0
    9.8968   -5.2391    0.0000 C   0  0  0  0  0  0  0  0  0  0  0  0
   11.6568   -5.2044    0.0000 C   0  0  0  0  0  0  0  0  0  0  0  0
    8.9908   -4.7253    0.0000 C   0  0  0  0  0  0  0  0  0  0  0  0
   12.5228   -4.7044    0.0000 C   0  0  0  0  0  0  0  0  0  0  0  0
    2.5378    3.4646    0.0000 C   0  0  0  0  0  0  0  0  0  0  0  0
    2.0000    4.3077    0.0000 C   0  0  0  0  0  0  0  0  0  0  0  0
    3.4603    5.2391    0.0000 C   0  0  0  0  0  0  0  0  0  0  0  0
    2.4613    5.1950    0.0000 C   0  0  0  0  0  0  0  0  0  0  0  0
    5.1151   -0.1013    0.0000 H   0  0  0  0  0  0  0  0  0  0  0  0
    5.8223   -0.4689    0.0000 H   0  0  0  0  0  0  0  0  0  0  0  0
    6.1034    1.4895    0.0000 H   0  0  0  0  0  0  0  0  0  0  0  0
    6.0682    2.2858    0.0000 H   0  0  0  0  0  0  0  0  0  0  0  0
    3.5783    0.6977    0.0000 H   0  0  0  0  0  0  0  0  0  0  0  0
    4.2855    0.3300    0.0000 H   0  0  0  0  0  0  0  0  0  0  0  0
    7.2595    0.4180    0.0000 H   0  0  0  0  0  0  0  0  0  0  0  0
    6.5523    0.7857    0.0000 H   0  0  0  0  0  0  0  0  0  0  0  0
    6.6518   -0.9002    0.0000 H   0  0  0  0  0  0  0  0  0  0  0  0
    7.3590   -1.2679    0.0000 H   0  0  0  0  0  0  0  0  0  0  0  0
    5.6462    2.9474    0.0000 H   0  0  0  0  0  0  0  0  0  0  0  0
    4.9390    3.3150    0.0000 H   0  0  0  0  0  0  0  0  0  0  0  0
    3.1212    2.1556    0.0000 H   0  0  0  0  0  0  0  0  0  0  0  0
    3.1564    1.3593    0.0000 H   0  0  0  0  0  0  0  0  0  0  0  0
   10.3330   -1.1799    0.0000 H   0  0  0  0  0  0  0  0  0  0  0  0
    9.6258   -0.8122    0.0000 H   0  0  0  0  0  0  0  0  0  0  0  0
    8.7962   -0.3809    0.0000 H   0  0  0  0  0  0  0  0  0  0  0  0
    8.0890   -0.0133    0.0000 H   0  0  0  0  0  0  0  0  0  0  0  0
    8.1886   -1.6992    0.0000 H   0  0  0  0  0  0  0  0  0  0  0  0
    8.8958   -2.0668    0.0000 H   0  0  0  0  0  0  0  0  0  0  0  0
    8.4550   -3.3716    0.0000 H   0  0  0  0  0  0  0  0  0  0  0  0
   13.0598   -3.3944    0.0000 H   0  0  0  0  0  0  0  0  0  0  0  0
    9.9040   -5.8591    0.0000 H   0  0  0  0  0  0  0  0  0  0  0  0
   11.6568   -5.8244    0.0000 H   0  0  0  0  0  0  0  0  0  0  0  0
    8.4550   -5.0373    0.0000 H   0  0  0  0  0  0  0  0  0  0  0  0
   13.0598   -5.0144    0.0000 H   0  0  0  0  0  0  0  0  0  0  0  0
    2.2518    2.9145    0.0000 H   0  0  0  0  0  0  0  0  0  0  0  0
    1.3806    4.2803    0.0000 H   0  0  0  0  0  0  0  0  0  0  0  0
    3.7463    5.7892    0.0000 H   0  0  0  0  0  0  0  0  0  0  0  0
    2.1279    5.7177    0.0000 H   0  0  0  0  0  0  0  0  0  0  0  0
  1  2  2  0  0  0  0
  1  3  2  0  0  0  0
  1  5  1  0  0  0  0
  1 20  1  0  0  0  0
  4  8  1  0  0  0  0
  4  9  1  0  0  0  0
  4 10  1  0  0  0  0
  5 15  1  0  0  0  0
  5 18  1  0  0  0  0
  6 13  1  0  0  0  0
  6 14  1  0  0  0  0
  6 23  1  0  0  0  0
  7 23  1  0  0  0  0
  7 31  2  0  0  0  0
  8 11  1  0  0  0  0
  8 33  1  0  0  0  0
  8 34  1  0  0  0  0
  9 13  1  0  0  0  0
  9 35  1  0  0  0  0
  9 36  1  0  0  0  0
 10 14  1  0  0  0  0
 10 37  1  0  0  0  0
 10 38  1  0  0  0  0
 11 12  1  0  0  0  0
 11 39  1  0  0  0  0
 11 40  1  0  0  0  0
 12 16  1  0  0  0  0
 12 41  1  0  0  0  0
 12 42  1  0  0  0  0
 13 43  1  0  0  0  0
 13 44  1  0  0  0  0
 14 45  1  0  0  0  0
 14 46  1  0  0  0  0
 15 17  1  0  0  0  0
 15 47  1  0  0  0  0
 15 48  1  0  0  0  0
 16 17  1  0  0  0  0
 16 49  1  0  0  0  0
 16 50  1  0  0  0  0
 17 51  1  0  0  0  0
 17 52  1  0  0  0  0
 18 19  1  0  0  0  0
 18 22  2  0  0  0  0
 19 20  1  0  0  0  0
 19 21  2  0  0  0  0
 20 24  2  0  0  0  0
 21 25  1  0  0  0  0
 21 26  1  0  0  0  0
 22 27  1  0  0  0  0
 22 53  1  0  0  0  0
 23 29  2  0  0  0  0
 24 28  1  0  0  0  0
 24 54  1  0  0  0  0
 25 27  2  0  0  0  0
 25 55  1  0  0  0  0
 26 28  2  0  0  0  0
 26 56  1  0  0  0  0
 27 57  1  0  0  0  0
 28 58  1  0  0  0  0
 29 30  1  0  0  0  0
 29 59  1  0  0  0  0
 30 32  2  0  0  0  0
 30 60  1  0  0  0  0
 31 32  1  0  0  0  0
 31 61  1  0  0  0  0
 32 62  1  0  0  0  0
M  END
> <PUBCHEM_COMPOUND_CID>
155562834

> <PUBCHEM_COMPOUND_CANONICALIZED>
1

> <PUBCHEM_CACTVS_COMPLEXITY>
703

> <PUBCHEM_CACTVS_HBOND_ACCEPTOR>
6

> <PUBCHEM_CACTVS_HBOND_DONOR>
0

> <PUBCHEM_CACTVS_ROTATABLE_BOND>
8

> <PUBCHEM_CACTVS_SUBSKEYS>
AAADceB7sABAAAAAAAAAAAAAAAAAAWAAAAA8eIEAAAAAAFjB1AAAHAQAQAAADAjBWgQ98dMIEAKgAjZnZHDCgDkxAiAJ2Dg4ZJiIYOLAmZGUIAxogALIyCcQgIAOgAAAwAAWAAAAAAGAACwAAAAAAAAAAA==

> <PUBCHEM_IUPAC_OPENEYE_NAME>
3-[6-[4-(2-pyridyl)piperazin-1-yl]hexyl]-2lambda6-thia-3-azatricyclo[6.3.1.04,12]dodeca-1(11),4,6,8(12),9-pentaene 2,2-dioxide

> <PUBCHEM_IUPAC_CAS_NAME>
3-[6-[4-(2-pyridinyl)-1-piperazinyl]hexyl]-2lambda6-thia-3-azatricyclo[6.3.1.04,12]dodeca-1(11),4,6,8(12),9-pentaene 2,2-dioxide

> <PUBCHEM_IUPAC_NAME_MARKUP>
3-[6-(4-pyridin-2-ylpiperazin-1-yl)hexyl]-2&lambda;<SUP>6</SUP>-thia-3-azatricyclo[6.3.1.0<SUP>4,12</SUP>]dodeca-1(11),4,6,8(12),9-pentaene 2,2-dioxide

> <PUBCHEM_IUPAC_NAME>
3-[6-(4-pyridin-2-ylpiperazin-1-yl)hexyl]-2lambda6-thia-3-azatricyclo[6.3.1.04,12]dodeca-1(11),4,6,8(12),9-pentaene 2,2-dioxide

> <PUBCHEM_IUPAC_SYSTEMATIC_NAME>
3-[6-(4-pyridin-2-ylpiperazin-1-yl)hexyl]-2lambda6-thia-3-azatricyclo[6.3.1.04,12]dodeca-1(11),4,6,8(12),9-pentaene 2,2-dioxide

> <PUBCHEM_IUPAC_TRADITIONAL_NAME>
3-[6-[4-(2-pyridyl)piperazino]hexyl]-2lambda6-thia-3-azatricyclo[6.3.1.04,12]dodeca-1(11),4,6,8(12),9-pentaene 2,2-dioxide

> <PUBCHEM_IUPAC_INCHI>
InChI=1S/C25H30N4O2S/c30-32(31)23-12-8-10-21-9-7-11-22(25(21)23)29(32)16-6-2-1-5-15-27-17-19-28(20-18-27)24-13-3-4-14-26-24/h3-4,7-14H,1-2,5-6,15-20H2

> <PUBCHEM_IUPAC_INCHIKEY>
ZZKFQWISNWOXAO-UHFFFAOYSA-N

> <PUBCHEM_XLOGP3_AA>
4.3

> <PUBCHEM_EXACT_MASS>
450.20894739

> <PUBCHEM_MOLECULAR_FORMULA>
C25H30N4O2S

> <PUBCHEM_MOLECULAR_WEIGHT>
450.6

> <PUBCHEM_OPENEYE_CAN_SMILES>
C1CN(CCN1CCCCCCN2C3=CC=CC4=C3C(=CC=C4)S2(=O)=O)C5=CC=CC=N5

> <PUBCHEM_OPENEYE_ISO_SMILES>
C1CN(CCN1CCCCCCN2C3=CC=CC4=C3C(=CC=C4)S2(=O)=O)C5=CC=CC=N5

> <PUBCHEM_CACTVS_TPSA>
65.1

> <PUBCHEM_MONOISOTOPIC_WEIGHT>
450.20894739

> <PUBCHEM_TOTAL_CHARGE>
0

> <PUBCHEM_HEAVY_ATOM_COUNT>
32

> <PUBCHEM_ATOM_DEF_STEREO_COUNT>
0

> <PUBCHEM_ATOM_UDEF_STEREO_COUNT>
0

> <PUBCHEM_BOND_DEF_STEREO_COUNT>
0

> <PUBCHEM_BOND_UDEF_STEREO_COUNT>
0

> <PUBCHEM_ISOTOPIC_ATOM_COUNT>
0

> <PUBCHEM_COMPONENT_COUNT>
1

> <PUBCHEM_CACTVS_TAUTO_COUNT>
-1

> <PUBCHEM_COORDINATE_TYPE>
1
5
255

> <PUBCHEM_BONDANNOTATIONS>
18  19  8
18  22  8
19  20  8
19  21  8
20  24  8
21  25  8
21  26  8
22  27  8
23  29  8
24  28  8
25  27  8
26  28  8
29  30  8
30  32  8
31  32  8
7  23  8
7  31  8

$$$$
