25157549
  -OEChem-09292322502D

 67 70  0     1  0  0  0  0  0999 V2000
   10.7282    2.4827    0.0000 O   0  0  0  0  0  0  0  0  0  0  0  0
    8.9962   -3.5173    0.0000 O   0  0  0  0  0  0  0  0  0  0  0  0
    5.5321    2.4827    0.0000 N   0  0  3  0  0  0  0  0  0  0  0  0
    5.5321    3.4827    0.0000 C   0  0  0  0  0  0  0  0  0  0  0  0
    4.6660    1.9827    0.0000 C   0  0  0  0  0  0  0  0  0  0  0  0
    6.3981    1.9827    0.0000 C   0  0  0  0  0  0  0  0  0  0  0  0
    4.6660    3.9827    0.0000 C   0  0  0  0  0  0  0  0  0  0  0  0
    3.8000    2.4827    0.0000 C   0  0  0  0  0  0  0  0  0  0  0  0
    3.8000    3.4827    0.0000 C   0  0  0  0  0  0  0  0  0  0  0  0
    7.2641    2.4827    0.0000 C   0  0  0  0  0  0  0  0  0  0  0  0
    8.1301    1.9827    0.0000 C   0  0  0  0  0  0  0  0  0  0  0  0
    8.9962    2.4827    0.0000 C   0  0  0  0  0  0  0  0  0  0  0  0
    2.9061    1.9480    0.0000 C   0  0  0  0  0  0  0  0  0  0  0  0
    2.9061    4.0173    0.0000 C   0  0  0  0  0  0  0  0  0  0  0  0
    9.8622    1.9827    0.0000 C   0  0  0  0  0  0  0  0  0  0  0  0
    2.0000    2.4618    0.0000 C   0  0  0  0  0  0  0  0  0  0  0  0
    2.0000    3.5035    0.0000 C   0  0  0  0  0  0  0  0  0  0  0  0
   11.5942    1.9827    0.0000 C   0  0  0  0  0  0  0  0  0  0  0  0
   11.5942    0.9827    0.0000 C   0  0  0  0  0  0  0  0  0  0  0  0
   10.7282    0.4827    0.0000 C   0  0  0  0  0  0  0  0  0  0  0  0
   10.7282   -0.5173    0.0000 C   0  0  0  0  0  0  0  0  0  0  0  0
   12.4603    2.4827    0.0000 C   0  0  0  0  0  0  0  0  0  0  0  0
    9.8622   -1.0173    0.0000 C   0  0  0  0  0  0  0  0  0  0  0  0
   12.4603    0.4827    0.0000 C   0  0  0  0  0  0  0  0  0  0  0  0
   13.3263    1.9827    0.0000 C   0  0  0  0  0  0  0  0  0  0  0  0
   13.3263    0.9827    0.0000 C   0  0  0  0  0  0  0  0  0  0  0  0
    9.8622   -2.0173    0.0000 C   0  0  0  0  0  0  0  0  0  0  0  0
    8.9962   -0.5173    0.0000 C   0  0  0  0  0  0  0  0  0  0  0  0
    8.9962   -2.5173    0.0000 C   0  0  0  0  0  0  0  0  0  0  0  0
    8.1301   -1.0173    0.0000 C   0  0  0  0  0  0  0  0  0  0  0  0
    8.1301   -2.0173    0.0000 C   0  0  0  0  0  0  0  0  0  0  0  0
    8.1301   -4.0173    0.0000 C   0  0  0  0  0  0  0  0  0  0  0  0
    6.1426    3.3750    0.0000 H   0  0  0  0  0  0  0  0  0  0  0  0
    5.7441    4.0653    0.0000 H   0  0  0  0  0  0  0  0  0  0  0  0
    4.2675    1.5077    0.0000 H   0  0  0  0  0  0  0  0  0  0  0  0
    5.0646    1.5077    0.0000 H   0  0  0  0  0  0  0  0  0  0  0  0
    5.9996    1.5077    0.0000 H   0  0  0  0  0  0  0  0  0  0  0  0
    6.7966    1.5077    0.0000 H   0  0  0  0  0  0  0  0  0  0  0  0
    5.0646    4.4576    0.0000 H   0  0  0  0  0  0  0  0  0  0  0  0
    4.2675    4.4576    0.0000 H   0  0  0  0  0  0  0  0  0  0  0  0
    7.6626    2.9576    0.0000 H   0  0  0  0  0  0  0  0  0  0  0  0
    6.8656    2.9576    0.0000 H   0  0  0  0  0  0  0  0  0  0  0  0
    7.7316    1.5077    0.0000 H   0  0  0  0  0  0  0  0  0  0  0  0
    8.5287    1.5077    0.0000 H   0  0  0  0  0  0  0  0  0  0  0  0
    9.3947    2.9576    0.0000 H   0  0  0  0  0  0  0  0  0  0  0  0
    8.5976    2.9576    0.0000 H   0  0  0  0  0  0  0  0  0  0  0  0
    2.9132    1.3280    0.0000 H   0  0  0  0  0  0  0  0  0  0  0  0
    2.9132    4.6373    0.0000 H   0  0  0  0  0  0  0  0  0  0  0  0
    9.4637    1.5077    0.0000 H   0  0  0  0  0  0  0  0  0  0  0  0
   10.2607    1.5077    0.0000 H   0  0  0  0  0  0  0  0  0  0  0  0
    1.4643    2.1498    0.0000 H   0  0  0  0  0  0  0  0  0  0  0  0
    1.4643    3.8156    0.0000 H   0  0  0  0  0  0  0  0  0  0  0  0
   10.5162    1.0653    0.0000 H   0  0  0  0  0  0  0  0  0  0  0  0
   10.1176    0.3750    0.0000 H   0  0  0  0  0  0  0  0  0  0  0  0
   10.9403   -1.0999    0.0000 H   0  0  0  0  0  0  0  0  0  0  0  0
   11.3388   -0.4097    0.0000 H   0  0  0  0  0  0  0  0  0  0  0  0
   12.4603    3.1027    0.0000 H   0  0  0  0  0  0  0  0  0  0  0  0
   12.4603   -0.1373    0.0000 H   0  0  0  0  0  0  0  0  0  0  0  0
   13.8632    2.2927    0.0000 H   0  0  0  0  0  0  0  0  0  0  0  0
   13.8632    0.6727    0.0000 H   0  0  0  0  0  0  0  0  0  0  0  0
   10.3991   -2.3273    0.0000 H   0  0  0  0  0  0  0  0  0  0  0  0
    8.9962    0.1027    0.0000 H   0  0  0  0  0  0  0  0  0  0  0  0
    7.5932   -0.7073    0.0000 H   0  0  0  0  0  0  0  0  0  0  0  0
    7.5932   -2.3273    0.0000 H   0  0  0  0  0  0  0  0  0  0  0  0
    7.8201   -3.4804    0.0000 H   0  0  0  0  0  0  0  0  0  0  0  0
    7.5932   -4.3273    0.0000 H   0  0  0  0  0  0  0  0  0  0  0  0
    8.4401   -4.5543    0.0000 H   0  0  0  0  0  0  0  0  0  0  0  0
  1 15  1  0  0  0  0
  1 18  1  0  0  0  0
  2 29  1  0  0  0  0
  2 32  1  0  0  0  0
  3  4  1  0  0  0  0
  3  5  1  0  0  0  0
  3  6  1  0  0  0  0
  4  7  1  0  0  0  0
  4 33  1  0  0  0  0
  4 34  1  0  0  0  0
  5  8  1  0  0  0  0
  5 35  1  0  0  0  0
  5 36  1  0  0  0  0
  6 10  1  0  0  0  0
  6 37  1  0  0  0  0
  6 38  1  0  0  0  0
  7  9  1  0  0  0  0
  7 39  1  0  0  0  0
  7 40  1  0  0  0  0
  8  9  1  0  0  0  0
  8 13  2  0  0  0  0
  9 14  2  0  0  0  0
 10 11  1  0  0  0  0
 10 41  1  0  0  0  0
 10 42  1  0  0  0  0
 11 12  1  0  0  0  0
 11 43  1  0  0  0  0
 11 44  1  0  0  0  0
 12 15  1  0  0  0  0
 12 45  1  0  0  0  0
 12 46  1  0  0  0  0
 13 16  1  0  0  0  0
 13 47  1  0  0  0  0
 14 17  1  0  0  0  0
 14 48  1  0  0  0  0
 15 49  1  0  0  0  0
 15 50  1  0  0  0  0
 16 17  2  0  0  0  0
 16 51  1  0  0  0  0
 17 52  1  0  0  0  0
 18 19  1  0  0  0  0
 18 22  2  0  0  0  0
 19 20  1  0  0  0  0
 19 24  2  0  0  0  0
 20 21  1  0  0  0  0
 20 53  1  0  0  0  0
 20 54  1  0  0  0  0
 21 23  1  0  0  0  0
 21 55  1  0  0  0  0
 21 56  1  0  0  0  0
 22 25  1  0  0  0  0
 22 57  1  0  0  0  0
 23 27  2  0  0  0  0
 23 28  1  0  0  0  0
 24 26  1  0  0  0  0
 24 58  1  0  0  0  0
 25 26  2  0  0  0  0
 25 59  1  0  0  0  0
 26 60  1  0  0  0  0
 27 29  1  0  0  0  0
 27 61  1  0  0  0  0
 28 30  2  0  0  0  0
 28 62  1  0  0  0  0
 29 31  2  0  0  0  0
 30 31  1  0  0  0  0
 30 63  1  0  0  0  0
 31 64  1  0  0  0  0
 32 65  1  0  0  0  0
 32 66  1  0  0  0  0
 32 67  1  0  0  0  0
M  END
> <PUBCHEM_COMPOUND_CID>
25157549

> <PUBCHEM_COMPOUND_CANONICALIZED>
1

> <PUBCHEM_CACTVS_COMPLEXITY>
511

> <PUBCHEM_CACTVS_HBOND_ACCEPTOR>
3

> <PUBCHEM_CACTVS_HBOND_DONOR>
0

> <PUBCHEM_CACTVS_ROTATABLE_BOND>
11

> <PUBCHEM_CACTVS_SUBSKEYS>
AAADcfB6MAAAAAAAAAAAAAAAAAAAAAAAAAA8YMEAAAAAAACxUAAAHgAAAAAADAThmAYyBoMABACAAiBCAACCCAAgIAAIiAAODIgMJiKEsRuGOCjkwBGIqAeQ0PIOgAABAAAYAAAAAAIAADAAAAAAAAAAAA==

> <PUBCHEM_IUPAC_OPENEYE_NAME>
2-[5-[2-[2-(3-methoxyphenyl)ethyl]phenoxy]pentyl]-3,4-dihydro-1H-isoquinoline

> <PUBCHEM_IUPAC_CAS_NAME>
2-[5-[2-[2-(3-methoxyphenyl)ethyl]phenoxy]pentyl]-3,4-dihydro-1H-isoquinoline

> <PUBCHEM_IUPAC_NAME_MARKUP>
2-[5-[2-[2-(3-methoxyphenyl)ethyl]phenoxy]pentyl]-3,4-dihydro-1<I>H</I>-isoquinoline

> <PUBCHEM_IUPAC_NAME>
2-[5-[2-[2-(3-methoxyphenyl)ethyl]phenoxy]pentyl]-3,4-dihydro-1H-isoquinoline

> <PUBCHEM_IUPAC_SYSTEMATIC_NAME>
2-[5-[2-[2-(3-methoxyphenyl)ethyl]phenoxy]pentyl]-3,4-dihydro-1H-isoquinoline

> <PUBCHEM_IUPAC_TRADITIONAL_NAME>
2-[5-[2-[2-(3-methoxyphenyl)ethyl]phenoxy]pentyl]-3,4-dihydro-1H-isoquinoline

> <PUBCHEM_IUPAC_INCHI>
InChI=1S/C29H35NO2/c1-31-28-14-9-10-24(22-28)16-17-26-12-5-6-15-29(26)32-21-8-2-7-19-30-20-18-25-11-3-4-13-27(25)23-30/h3-6,9-15,22H,2,7-8,16-21,23H2,1H3

> <PUBCHEM_IUPAC_INCHIKEY>
NEQJFIXEALLTIV-UHFFFAOYSA-N

> <PUBCHEM_XLOGP3_AA>
6.7

> <PUBCHEM_EXACT_MASS>
429.266779359

> <PUBCHEM_MOLECULAR_FORMULA>
C29H35NO2

> <PUBCHEM_MOLECULAR_WEIGHT>
429.6

> <PUBCHEM_OPENEYE_CAN_SMILES>
COC1=CC=CC(=C1)CCC2=CC=CC=C2OCCCCCN3CCC4=CC=CC=C4C3

> <PUBCHEM_OPENEYE_ISO_SMILES>
COC1=CC=CC(=C1)CCC2=CC=CC=C2OCCCCCN3CCC4=CC=CC=C4C3

> <PUBCHEM_CACTVS_TPSA>
21.7

> <PUBCHEM_MONOISOTOPIC_WEIGHT>
429.266779359

> <PUBCHEM_TOTAL_CHARGE>
0

> <PUBCHEM_HEAVY_ATOM_COUNT>
32

> <PUBCHEM_ATOM_DEF_STEREO_COUNT>
0

> <PUBCHEM_ATOM_UDEF_STEREO_COUNT>
0

> <PUBCHEM_BOND_DEF_STEREO_COUNT>
0

> <PUBCHEM_BOND_UDEF_STEREO_COUNT>
0

> <PUBCHEM_ISOTOPIC_ATOM_COUNT>
0

> <PUBCHEM_COMPONENT_COUNT>
1

> <PUBCHEM_CACTVS_TAUTO_COUNT>
-1

> <PUBCHEM_COORDINATE_TYPE>
1
5
255

> <PUBCHEM_BONDANNOTATIONS>
13  16  8
14  17  8
16  17  8
18  19  8
18  22  8
19  24  8
22  25  8
23  27  8
23  28  8
24  26  8
25  26  8
27  29  8
28  30  8
29  31  8
30  31  8
8  13  8
8  9  8
9  14  8

$$$$
