53391731
  -OEChem-09292322322D

 62 65  0     1  0  0  0  0  0999 V2000
    2.0000   -6.0000    0.0000 F   0  0  0  0  0  0  0  0  0  0  0  0
    7.1962   -1.0000    0.0000 O   0  0  0  0  0  0  0  0  0  0  0  0
    6.3301    3.5000    0.0000 O   0  0  0  0  0  0  0  0  0  0  0  0
    2.0000    5.0000    0.0000 O   0  0  0  0  0  0  0  0  0  0  0  0
    5.4641   -0.0000    0.0000 N   0  0  0  0  0  0  0  0  0  0  0  0
    5.4641   -3.0000    0.0000 N   0  0  3  0  0  0  0  0  0  0  0  0
    5.4641   -1.0000    0.0000 C   0  0  2  0  0  0  0  0  0  0  0  0
    6.3301   -1.5000    0.0000 C   0  0  2  0  0  0  0  0  0  0  0  0
    4.5981   -1.5000    0.0000 C   0  0  0  0  0  0  0  0  0  0  0  0
    6.3301    0.5000    0.0000 C   0  0  0  0  0  0  0  0  0  0  0  0
    4.5981    0.5000    0.0000 C   0  0  0  0  0  0  0  0  0  0  0  0
    5.4641    2.0000    0.0000 C   0  0  0  0  0  0  0  0  0  0  0  0
    6.3301   -2.5000    0.0000 C   0  0  0  0  0  0  0  0  0  0  0  0
    6.3301    1.5000    0.0000 C   0  0  0  0  0  0  0  0  0  0  0  0
    4.5981    1.5000    0.0000 C   0  0  0  0  0  0  0  0  0  0  0  0
    4.5981   -2.5000    0.0000 C   0  0  0  0  0  0  0  0  0  0  0  0
    5.4641   -4.0000    0.0000 C   0  0  0  0  0  0  0  0  0  0  0  0
    5.4641    3.0000    0.0000 C   0  0  0  0  0  0  0  0  0  0  0  0
    4.5981   -4.5000    0.0000 C   0  0  0  0  0  0  0  0  0  0  0  0
    4.5981    3.5000    0.0000 C   0  0  0  0  0  0  0  0  0  0  0  0
    4.5981   -5.5000    0.0000 C   0  0  0  0  0  0  0  0  0  0  0  0
    3.7320   -4.0000    0.0000 C   0  0  0  0  0  0  0  0  0  0  0  0
    3.7320    3.0000    0.0000 C   0  0  0  0  0  0  0  0  0  0  0  0
    4.5981    4.5000    0.0000 C   0  0  0  0  0  0  0  0  0  0  0  0
    3.7320   -6.0000    0.0000 C   0  0  0  0  0  0  0  0  0  0  0  0
    2.8660   -4.5000    0.0000 C   0  0  0  0  0  0  0  0  0  0  0  0
    2.8660    3.5000    0.0000 C   0  0  0  0  0  0  0  0  0  0  0  0
    3.7320    5.0000    0.0000 C   0  0  0  0  0  0  0  0  0  0  0  0
    2.8660   -5.5000    0.0000 C   0  0  0  0  0  0  0  0  0  0  0  0
    2.8660    4.5000    0.0000 C   0  0  0  0  0  0  0  0  0  0  0  0
    2.0000    6.0000    0.0000 C   0  0  0  0  0  0  0  0  0  0  0  0
    6.0010   -0.6900    0.0000 H   0  0  0  0  0  0  0  0  0  0  0  0
    6.8671   -1.8100    0.0000 H   0  0  0  0  0  0  0  0  0  0  0  0
    4.3860   -0.9174    0.0000 H   0  0  0  0  0  0  0  0  0  0  0  0
    3.9875   -1.6077    0.0000 H   0  0  0  0  0  0  0  0  0  0  0  0
    6.5422   -0.0826    0.0000 H   0  0  0  0  0  0  0  0  0  0  0  0
    6.9407    0.6077    0.0000 H   0  0  0  0  0  0  0  0  0  0  0  0
    3.9875    0.6077    0.0000 H   0  0  0  0  0  0  0  0  0  0  0  0
    4.3860   -0.0826    0.0000 H   0  0  0  0  0  0  0  0  0  0  0  0
    6.0010    2.3100    0.0000 H   0  0  0  0  0  0  0  0  0  0  0  0
    6.5422   -3.0826    0.0000 H   0  0  0  0  0  0  0  0  0  0  0  0
    6.9407   -2.3923    0.0000 H   0  0  0  0  0  0  0  0  0  0  0  0
    6.9407    1.3923    0.0000 H   0  0  0  0  0  0  0  0  0  0  0  0
    6.5422    2.0826    0.0000 H   0  0  0  0  0  0  0  0  0  0  0  0
    4.3860    2.0826    0.0000 H   0  0  0  0  0  0  0  0  0  0  0  0
    3.9875    1.3923    0.0000 H   0  0  0  0  0  0  0  0  0  0  0  0
    3.9875   -2.3923    0.0000 H   0  0  0  0  0  0  0  0  0  0  0  0
    4.3860   -3.0826    0.0000 H   0  0  0  0  0  0  0  0  0  0  0  0
    5.6762   -4.5826    0.0000 H   0  0  0  0  0  0  0  0  0  0  0  0
    6.0747   -3.8923    0.0000 H   0  0  0  0  0  0  0  0  0  0  0  0
    7.7331   -1.3100    0.0000 H   0  0  0  0  0  0  0  0  0  0  0  0
    5.1350   -5.8100    0.0000 H   0  0  0  0  0  0  0  0  0  0  0  0
    3.7320   -3.3800    0.0000 H   0  0  0  0  0  0  0  0  0  0  0  0
    3.7320    2.3800    0.0000 H   0  0  0  0  0  0  0  0  0  0  0  0
    5.1350    4.8100    0.0000 H   0  0  0  0  0  0  0  0  0  0  0  0
    3.7320   -6.6200    0.0000 H   0  0  0  0  0  0  0  0  0  0  0  0
    2.3291   -4.1900    0.0000 H   0  0  0  0  0  0  0  0  0  0  0  0
    2.3291    3.1900    0.0000 H   0  0  0  0  0  0  0  0  0  0  0  0
    3.7320    5.6200    0.0000 H   0  0  0  0  0  0  0  0  0  0  0  0
    2.6200    6.0000    0.0000 H   0  0  0  0  0  0  0  0  0  0  0  0
    2.0000    6.6200    0.0000 H   0  0  0  0  0  0  0  0  0  0  0  0
    1.3800    6.0000    0.0000 H   0  0  0  0  0  0  0  0  0  0  0  0
  1 29  1  0  0  0  0
  8  2  1  1  0  0  0
  2 51  1  0  0  0  0
  3 18  2  0  0  0  0
  4 30  1  0  0  0  0
  4 31  1  0  0  0  0
  7  5  1  6  0  0  0
  5 10  1  0  0  0  0
  5 11  1  0  0  0  0
  6 13  1  0  0  0  0
  6 16  1  0  0  0  0
  6 17  1  0  0  0  0
  7  8  1  0  0  0  0
  7  9  1  0  0  0  0
  7 32  1  0  0  0  0
  8 13  1  0  0  0  0
  8 33  1  0  0  0  0
  9 16  1  0  0  0  0
  9 34  1  0  0  0  0
  9 35  1  0  0  0  0
 10 14  1  0  0  0  0
 10 36  1  0  0  0  0
 10 37  1  0  0  0  0
 11 15  1  0  0  0  0
 11 38  1  0  0  0  0
 11 39  1  0  0  0  0
 12 14  1  0  0  0  0
 12 15  1  0  0  0  0
 12 18  1  0  0  0  0
 12 40  1  0  0  0  0
 13 41  1  0  0  0  0
 13 42  1  0  0  0  0
 14 43  1  0  0  0  0
 14 44  1  0  0  0  0
 15 45  1  0  0  0  0
 15 46  1  0  0  0  0
 16 47  1  0  0  0  0
 16 48  1  0  0  0  0
 17 19  1  0  0  0  0
 17 49  1  0  0  0  0
 17 50  1  0  0  0  0
 18 20  1  0  0  0  0
 19 21  2  0  0  0  0
 19 22  1  0  0  0  0
 20 23  2  0  0  0  0
 20 24  1  0  0  0  0
 21 25  1  0  0  0  0
 21 52  1  0  0  0  0
 22 26  2  0  0  0  0
 22 53  1  0  0  0  0
 23 27  1  0  0  0  0
 23 54  1  0  0  0  0
 24 28  2  0  0  0  0
 24 55  1  0  0  0  0
 25 29  2  0  0  0  0
 25 56  1  0  0  0  0
 26 29  1  0  0  0  0
 26 57  1  0  0  0  0
 27 30  2  0  0  0  0
 27 58  1  0  0  0  0
 28 30  1  0  0  0  0
 28 59  1  0  0  0  0
 31 60  1  0  0  0  0
 31 61  1  0  0  0  0
 31 62  1  0  0  0  0
M  END
> <PUBCHEM_COMPOUND_CID>
53391731

> <PUBCHEM_COMPOUND_CANONICALIZED>
1

> <PUBCHEM_CACTVS_COMPLEXITY>
567

> <PUBCHEM_CACTVS_HBOND_ACCEPTOR>
6

> <PUBCHEM_CACTVS_HBOND_DONOR>
1

> <PUBCHEM_CACTVS_ROTATABLE_BOND>
6

> <PUBCHEM_CACTVS_SUBSKEYS>
AAADceB7MQAAAAAAAAAAAAAAAAAAAAAAAAA8eIEAAAAAAAABQAAAHwAACAAADTzhmA4yBoMABgCIAqBSAACCCAAkIAAIiAEODMgONjKE9RuEcShkwBGYqYe8zODOIAAAAAAAAABAAAAAAAAAAAAAAAAAAA==

> <PUBCHEM_IUPAC_OPENEYE_NAME>
[1-[(3S,4S)-1-[(4-fluorophenyl)methyl]-3-hydroxy-4-piperidyl]-4-piperidyl]-(4-methoxyphenyl)methanone

> <PUBCHEM_IUPAC_CAS_NAME>
[1-[(3S,4S)-1-[(4-fluorophenyl)methyl]-3-hydroxy-4-piperidinyl]-4-piperidinyl]-(4-methoxyphenyl)methanone

> <PUBCHEM_IUPAC_NAME_MARKUP>
[1-[(3<I>S</I>,4<I>S</I>)-1-[(4-fluorophenyl)methyl]-3-hydroxypiperidin-4-yl]piperidin-4-yl]-(4-methoxyphenyl)methanone

> <PUBCHEM_IUPAC_NAME>
[1-[(3S,4S)-1-[(4-fluorophenyl)methyl]-3-hydroxypiperidin-4-yl]piperidin-4-yl]-(4-methoxyphenyl)methanone

> <PUBCHEM_IUPAC_SYSTEMATIC_NAME>
[1-[(3S,4S)-1-[(4-fluorophenyl)methyl]-3-oxidanyl-piperidin-4-yl]piperidin-4-yl]-(4-methoxyphenyl)methanone

> <PUBCHEM_IUPAC_TRADITIONAL_NAME>
[1-[(3S,4S)-1-(4-fluorobenzyl)-3-hydroxy-4-piperidyl]-4-piperidyl]-(4-methoxyphenyl)methanone

> <PUBCHEM_IUPAC_INCHI>
InChI=1S/C25H31FN2O3/c1-31-22-8-4-19(5-9-22)25(30)20-10-14-28(15-11-20)23-12-13-27(17-24(23)29)16-18-2-6-21(26)7-3-18/h2-9,20,23-24,29H,10-17H2,1H3/t23-,24-/m0/s1

> <PUBCHEM_IUPAC_INCHIKEY>
UIWSYEZPNUYTKA-ZEQRLZLVSA-N

> <PUBCHEM_XLOGP3_AA>
3.3

> <PUBCHEM_EXACT_MASS>
426.23187102

> <PUBCHEM_MOLECULAR_FORMULA>
C25H31FN2O3

> <PUBCHEM_MOLECULAR_WEIGHT>
426.5

> <PUBCHEM_OPENEYE_CAN_SMILES>
COC1=CC=C(C=C1)C(=O)C2CCN(CC2)C3CCN(CC3O)CC4=CC=C(C=C4)F

> <PUBCHEM_OPENEYE_ISO_SMILES>
COC1=CC=C(C=C1)C(=O)C2CCN(CC2)[C@H]3CCN(C[C@@H]3O)CC4=CC=C(C=C4)F

> <PUBCHEM_CACTVS_TPSA>
53

> <PUBCHEM_MONOISOTOPIC_WEIGHT>
426.23187102

> <PUBCHEM_TOTAL_CHARGE>
0

> <PUBCHEM_HEAVY_ATOM_COUNT>
31

> <PUBCHEM_ATOM_DEF_STEREO_COUNT>
2

> <PUBCHEM_ATOM_UDEF_STEREO_COUNT>
0

> <PUBCHEM_BOND_DEF_STEREO_COUNT>
0

> <PUBCHEM_BOND_UDEF_STEREO_COUNT>
0

> <PUBCHEM_ISOTOPIC_ATOM_COUNT>
0

> <PUBCHEM_COMPONENT_COUNT>
1

> <PUBCHEM_CACTVS_TAUTO_COUNT>
-1

> <PUBCHEM_COORDINATE_TYPE>
1
5
255

> <PUBCHEM_BONDANNOTATIONS>
19  21  8
19  22  8
8  2  5
20  23  8
20  24  8
21  25  8
22  26  8
23  27  8
24  28  8
25  29  8
26  29  8
27  30  8
28  30  8
7  5  6

$$$$
