56944384
  -OEChem-09292322082D

 59 63  0     0  0  0  0  0  0999 V2000
    2.0000   -3.8855    0.0000 Cl  0  0  0  0  0  0  0  0  0  0  0  0
    7.1279   -2.8855    0.0000 S   0  0  0  0  0  0  0  0  0  0  0  0
    5.5443   -3.6902    0.0000 S   0  0  0  0  0  0  0  0  0  0  0  0
   16.9682    3.3457    0.0000 F   0  0  0  0  0  0  0  0  0  0  0  0
   13.4598    3.8855    0.0000 O   0  0  0  0  0  0  0  0  0  0  0  0
    7.1279   -1.8855    0.0000 O   0  0  0  0  0  0  0  0  0  0  0  0
    7.1279   -3.8855    0.0000 O   0  0  0  0  0  0  0  0  0  0  0  0
   11.6279   -0.2874    0.0000 N   0  0  0  0  0  0  0  0  0  0  0  0
   12.7228    3.2184    0.0000 N   0  0  0  0  0  0  0  0  0  0  0  0
    8.1279   -2.8855    0.0000 N   0  0  0  0  0  0  0  0  0  0  0  0
   12.6279    1.4446    0.0000 C   0  0  0  0  0  0  0  0  0  0  0  0
   13.1279    0.5786    0.0000 C   0  0  0  0  0  0  0  0  0  0  0  0
   11.6279    1.4446    0.0000 C   0  0  0  0  0  0  0  0  0  0  0  0
   12.6279   -0.2874    0.0000 C   0  0  0  0  0  0  0  0  0  0  0  0
   11.1279    0.5786    0.0000 C   0  0  0  0  0  0  0  0  0  0  0  0
   11.1279   -1.1535    0.0000 C   0  0  0  0  0  0  0  0  0  0  0  0
   13.1279    2.3106    0.0000 C   0  0  0  0  0  0  0  0  0  0  0  0
   10.1279   -1.1535    0.0000 C   0  0  0  0  0  0  0  0  0  0  0  0
   14.1166    2.4137    0.0000 C   0  0  0  0  0  0  0  0  0  0  0  0
    9.6279   -2.0195    0.0000 C   0  0  0  0  0  0  0  0  0  0  0  0
    8.6279   -2.0195    0.0000 C   0  0  0  0  0  0  0  0  0  0  0  0
   14.3228    3.3922    0.0000 C   0  0  0  0  0  0  0  0  0  0  0  0
   14.8609    1.7458    0.0000 C   0  0  0  0  0  0  0  0  0  0  0  0
   15.2734    3.7029    0.0000 C   0  0  0  0  0  0  0  0  0  0  0  0
   15.8115    2.0565    0.0000 C   0  0  0  0  0  0  0  0  0  0  0  0
   16.0177    3.0350    0.0000 C   0  0  0  0  0  0  0  0  0  0  0  0
    6.1279   -2.8855    0.0000 C   0  0  0  0  0  0  0  0  0  0  0  0
    5.5443   -2.0808    0.0000 C   0  0  0  0  0  0  0  0  0  0  0  0
    4.5981   -2.3855    0.0000 C   0  0  0  0  0  0  0  0  0  0  0  0
    4.5981   -3.3855    0.0000 C   0  0  0  0  0  0  0  0  0  0  0  0
    3.7320   -1.8855    0.0000 C   0  0  0  0  0  0  0  0  0  0  0  0
    3.7320   -3.8855    0.0000 C   0  0  0  0  0  0  0  0  0  0  0  0
    2.8660   -2.3855    0.0000 C   0  0  0  0  0  0  0  0  0  0  0  0
    2.8660   -3.3855    0.0000 C   0  0  0  0  0  0  0  0  0  0  0  0
   12.3179    1.9816    0.0000 H   0  0  0  0  0  0  0  0  0  0  0  0
   13.6029    0.1801    0.0000 H   0  0  0  0  0  0  0  0  0  0  0  0
   13.6029    0.9771    0.0000 H   0  0  0  0  0  0  0  0  0  0  0  0
   11.7356    2.0552    0.0000 H   0  0  0  0  0  0  0  0  0  0  0  0
   11.0453    1.6567    0.0000 H   0  0  0  0  0  0  0  0  0  0  0  0
   12.5202   -0.8980    0.0000 H   0  0  0  0  0  0  0  0  0  0  0  0
   13.2105   -0.4995    0.0000 H   0  0  0  0  0  0  0  0  0  0  0  0
   10.6530    0.9771    0.0000 H   0  0  0  0  0  0  0  0  0  0  0  0
   10.6530    0.1801    0.0000 H   0  0  0  0  0  0  0  0  0  0  0  0
   11.0202   -1.7640    0.0000 H   0  0  0  0  0  0  0  0  0  0  0  0
   11.7105   -1.3655    0.0000 H   0  0  0  0  0  0  0  0  0  0  0  0
   10.2356   -0.5429    0.0000 H   0  0  0  0  0  0  0  0  0  0  0  0
    9.5453   -0.9414    0.0000 H   0  0  0  0  0  0  0  0  0  0  0  0
    9.5202   -2.6301    0.0000 H   0  0  0  0  0  0  0  0  0  0  0  0
   10.2105   -2.2315    0.0000 H   0  0  0  0  0  0  0  0  0  0  0  0
    8.7356   -1.4089    0.0000 H   0  0  0  0  0  0  0  0  0  0  0  0
    8.0453   -1.8074    0.0000 H   0  0  0  0  0  0  0  0  0  0  0  0
   14.7331    1.1392    0.0000 H   0  0  0  0  0  0  0  0  0  0  0  0
    8.4379   -3.4224    0.0000 H   0  0  0  0  0  0  0  0  0  0  0  0
   15.4012    4.3095    0.0000 H   0  0  0  0  0  0  0  0  0  0  0  0
   16.2729    1.6424    0.0000 H   0  0  0  0  0  0  0  0  0  0  0  0
    5.7369   -1.4915    0.0000 H   0  0  0  0  0  0  0  0  0  0  0  0
    3.7320   -1.2655    0.0000 H   0  0  0  0  0  0  0  0  0  0  0  0
    3.7320   -4.5055    0.0000 H   0  0  0  0  0  0  0  0  0  0  0  0
    2.3291   -2.0755    0.0000 H   0  0  0  0  0  0  0  0  0  0  0  0
  1 34  1  0  0  0  0
  2  6  2  0  0  0  0
  2  7  2  0  0  0  0
  2 10  1  0  0  0  0
  2 27  1  0  0  0  0
  3 27  1  0  0  0  0
  3 30  1  0  0  0  0
  4 26  1  0  0  0  0
  5  9  1  0  0  0  0
  5 22  1  0  0  0  0
  8 14  1  0  0  0  0
  8 15  1  0  0  0  0
  8 16  1  0  0  0  0
  9 17  2  0  0  0  0
 10 21  1  0  0  0  0
 10 53  1  0  0  0  0
 11 12  1  0  0  0  0
 11 13  1  0  0  0  0
 11 17  1  0  0  0  0
 11 35  1  0  0  0  0
 12 14  1  0  0  0  0
 12 36  1  0  0  0  0
 12 37  1  0  0  0  0
 13 15  1  0  0  0  0
 13 38  1  0  0  0  0
 13 39  1  0  0  0  0
 14 40  1  0  0  0  0
 14 41  1  0  0  0  0
 15 42  1  0  0  0  0
 15 43  1  0  0  0  0
 16 18  1  0  0  0  0
 16 44  1  0  0  0  0
 16 45  1  0  0  0  0
 17 19  1  0  0  0  0
 18 20  1  0  0  0  0
 18 46  1  0  0  0  0
 18 47  1  0  0  0  0
 19 22  2  0  0  0  0
 19 23  1  0  0  0  0
 20 21  1  0  0  0  0
 20 48  1  0  0  0  0
 20 49  1  0  0  0  0
 21 50  1  0  0  0  0
 21 51  1  0  0  0  0
 22 24  1  0  0  0  0
 23 25  2  0  0  0  0
 23 52  1  0  0  0  0
 24 26  2  0  0  0  0
 24 54  1  0  0  0  0
 25 26  1  0  0  0  0
 25 55  1  0  0  0  0
 27 28  2  0  0  0  0
 28 29  1  0  0  0  0
 28 56  1  0  0  0  0
 29 30  2  0  0  0  0
 29 31  1  0  0  0  0
 30 32  1  0  0  0  0
 31 33  2  0  0  0  0
 31 57  1  0  0  0  0
 32 34  2  0  0  0  0
 32 58  1  0  0  0  0
 33 34  1  0  0  0  0
 33 59  1  0  0  0  0
M  END
> <PUBCHEM_COMPOUND_CID>
56944384

> <PUBCHEM_COMPOUND_CANONICALIZED>
1

> <PUBCHEM_CACTVS_COMPLEXITY>
780

> <PUBCHEM_CACTVS_HBOND_ACCEPTOR>
8

> <PUBCHEM_CACTVS_HBOND_DONOR>
1

> <PUBCHEM_CACTVS_ROTATABLE_BOND>
8

> <PUBCHEM_CACTVS_SUBSKEYS>
AAADceB7MQBkAAAAAAAAAAAAAAAAAWJAAAA8YIAAAAAAAFgB/gAAHwYUQAAADQ7B3iwwh9NQAAqtA6RyQnDDAZAkLRBomLk+TtoIJrqhl5OEMYBm0BmoyceYyOCOBAAAABAMAAAIAAAAIBgAAAAAAAAAAA==

> <PUBCHEM_IUPAC_OPENEYE_NAME>
6-chloro-N-[4-[4-(6-fluoro-1,2-benzoxazol-3-yl)-1-piperidyl]butyl]benzothiophene-2-sulfonamide

> <PUBCHEM_IUPAC_CAS_NAME>
6-chloro-N-[4-[4-(6-fluoro-1,2-benzoxazol-3-yl)-1-piperidinyl]butyl]-1-benzothiophene-2-sulfonamide

> <PUBCHEM_IUPAC_NAME_MARKUP>
6-chloro-<I>N</I>-[4-[4-(6-fluoro-1,2-benzoxazol-3-yl)piperidin-1-yl]butyl]-1-benzothiophene-2-sulfonamide

> <PUBCHEM_IUPAC_NAME>
6-chloro-N-[4-[4-(6-fluoro-1,2-benzoxazol-3-yl)piperidin-1-yl]butyl]-1-benzothiophene-2-sulfonamide

> <PUBCHEM_IUPAC_SYSTEMATIC_NAME>
6-chloranyl-N-[4-[4-(6-fluoranyl-1,2-benzoxazol-3-yl)piperidin-1-yl]butyl]-1-benzothiophene-2-sulfonamide

> <PUBCHEM_IUPAC_TRADITIONAL_NAME>
6-chloro-N-[4-[4-(6-fluoroindoxazen-3-yl)piperidino]butyl]benzothiophene-2-sulfonamide

> <PUBCHEM_IUPAC_INCHI>
InChI=1S/C24H25ClFN3O3S2/c25-18-4-3-17-13-23(33-22(17)14-18)34(30,31)27-9-1-2-10-29-11-7-16(8-12-29)24-20-6-5-19(26)15-21(20)32-28-24/h3-6,13-16,27H,1-2,7-12H2

> <PUBCHEM_IUPAC_INCHIKEY>
ZMIWRRKLVCCVBJ-UHFFFAOYSA-N

> <PUBCHEM_XLOGP3_AA>
5.8

> <PUBCHEM_EXACT_MASS>
521.1009899

> <PUBCHEM_MOLECULAR_FORMULA>
C24H25ClFN3O3S2

> <PUBCHEM_MOLECULAR_WEIGHT>
522.1

> <PUBCHEM_OPENEYE_CAN_SMILES>
C1CN(CCC1C2=NOC3=C2C=CC(=C3)F)CCCCNS(=O)(=O)C4=CC5=C(S4)C=C(C=C5)Cl

> <PUBCHEM_OPENEYE_ISO_SMILES>
C1CN(CCC1C2=NOC3=C2C=CC(=C3)F)CCCCNS(=O)(=O)C4=CC5=C(S4)C=C(C=C5)Cl

> <PUBCHEM_CACTVS_TPSA>
112

> <PUBCHEM_MONOISOTOPIC_WEIGHT>
521.1009899

> <PUBCHEM_TOTAL_CHARGE>
0

> <PUBCHEM_HEAVY_ATOM_COUNT>
34

> <PUBCHEM_ATOM_DEF_STEREO_COUNT>
0

> <PUBCHEM_ATOM_UDEF_STEREO_COUNT>
0

> <PUBCHEM_BOND_DEF_STEREO_COUNT>
0

> <PUBCHEM_BOND_UDEF_STEREO_COUNT>
0

> <PUBCHEM_ISOTOPIC_ATOM_COUNT>
0

> <PUBCHEM_COMPONENT_COUNT>
1

> <PUBCHEM_CACTVS_TAUTO_COUNT>
-1

> <PUBCHEM_COORDINATE_TYPE>
1
5
255

> <PUBCHEM_BONDANNOTATIONS>
17  19  8
19  22  8
19  23  8
22  24  8
23  25  8
24  26  8
25  26  8
27  28  8
28  29  8
29  30  8
29  31  8
3  27  8
3  30  8
30  32  8
31  33  8
32  34  8
33  34  8
5  22  8
5  9  8
9  17  8

$$$$
