155522218
  -OEChem-09292322462D

 69 74  0     1  0  0  0  0  0999 V2000
    6.3981    3.3892    0.0000 O   0  0  0  0  0  0  0  0  0  0  0  0
    4.6660    0.3892    0.0000 O   0  0  0  0  0  0  0  0  0  0  0  0
    8.1301   -1.6108    0.0000 N   0  0  3  0  0  0  0  0  0  0  0  0
    8.4962   -5.6406    0.0000 N   0  0  0  0  0  0  0  0  0  0  0  0
    5.5321    1.8892    0.0000 N   0  0  0  0  0  0  0  0  0  0  0  0
    3.8000    1.8892    0.0000 N   0  0  0  0  0  0  0  0  0  0  0  0
    8.9962   -3.1108    0.0000 C   0  0  3  0  0  0  0  0  0  0  0  0
    8.1301   -2.6108    0.0000 C   0  0  0  0  0  0  0  0  0  0  0  0
    9.8622   -2.6108    0.0000 C   0  0  0  0  0  0  0  0  0  0  0  0
    9.8622   -1.6108    0.0000 C   0  0  0  0  0  0  0  0  0  0  0  0
    8.9962   -1.1108    0.0000 C   0  0  0  0  0  0  0  0  0  0  0  0
    8.9962   -4.1108    0.0000 C   0  0  0  0  0  0  0  0  0  0  0  0
    7.2641   -1.1108    0.0000 C   0  0  0  0  0  0  0  0  0  0  0  0
    7.2641   -0.1108    0.0000 C   0  0  0  0  0  0  0  0  0  0  0  0
    9.8009   -4.6944    0.0000 C   0  0  0  0  0  0  0  0  0  0  0  0
    8.1914   -4.6944    0.0000 C   0  0  0  0  0  0  0  0  0  0  0  0
    6.3981    0.3892    0.0000 C   0  0  0  0  0  0  0  0  0  0  0  0
    9.4902   -5.6449    0.0000 C   0  0  0  0  0  0  0  0  0  0  0  0
    6.3981    1.3892    0.0000 C   0  0  0  0  0  0  0  0  0  0  0  0
   10.7794   -4.4882    0.0000 C   0  0  0  0  0  0  0  0  0  0  0  0
   10.1581   -6.3892    0.0000 C   0  0  0  0  0  0  0  0  0  0  0  0
   11.4472   -5.2325    0.0000 C   0  0  0  0  0  0  0  0  0  0  0  0
   11.1366   -6.1830    0.0000 C   0  0  0  0  0  0  0  0  0  0  0  0
    5.5321    2.8892    0.0000 C   0  0  0  0  0  0  0  0  0  0  0  0
    4.6660    1.3892    0.0000 C   0  0  0  0  0  0  0  0  0  0  0  0
    4.6660    3.3892    0.0000 C   0  0  0  0  0  0  0  0  0  0  0  0
    3.8000    2.8892    0.0000 C   0  0  0  0  0  0  0  0  0  0  0  0
    4.6660    4.3892    0.0000 C   0  0  0  0  0  0  0  0  0  0  0  0
    2.9061    1.3546    0.0000 C   0  0  0  0  0  0  0  0  0  0  0  0
    2.9061    3.4239    0.0000 C   0  0  0  0  0  0  0  0  0  0  0  0
    2.0000    1.8684    0.0000 C   0  0  0  0  0  0  0  0  0  0  0  0
    2.0000    2.9100    0.0000 C   0  0  0  0  0  0  0  0  0  0  0  0
    5.5321    4.8892    0.0000 C   0  0  0  0  0  0  0  0  0  0  0  0
    3.8000    4.8892    0.0000 C   0  0  0  0  0  0  0  0  0  0  0  0
    5.5321    5.8892    0.0000 C   0  0  0  0  0  0  0  0  0  0  0  0
    3.8000    5.8892    0.0000 C   0  0  0  0  0  0  0  0  0  0  0  0
    4.6660    6.3892    0.0000 C   0  0  0  0  0  0  0  0  0  0  0  0
    9.5331   -3.4208    0.0000 H   0  0  0  0  0  0  0  0  0  0  0  0
    7.5196   -2.5031    0.0000 H   0  0  0  0  0  0  0  0  0  0  0  0
    7.9181   -3.1934    0.0000 H   0  0  0  0  0  0  0  0  0  0  0  0
   10.0742   -3.1934    0.0000 H   0  0  0  0  0  0  0  0  0  0  0  0
   10.4728   -2.5031    0.0000 H   0  0  0  0  0  0  0  0  0  0  0  0
   10.4728   -1.7184    0.0000 H   0  0  0  0  0  0  0  0  0  0  0  0
   10.0742   -1.0282    0.0000 H   0  0  0  0  0  0  0  0  0  0  0  0
    9.3947   -0.6358    0.0000 H   0  0  0  0  0  0  0  0  0  0  0  0
    8.5976   -0.6358    0.0000 H   0  0  0  0  0  0  0  0  0  0  0  0
    6.6535   -1.0031    0.0000 H   0  0  0  0  0  0  0  0  0  0  0  0
    7.0521   -1.6934    0.0000 H   0  0  0  0  0  0  0  0  0  0  0  0
    7.8747   -0.2184    0.0000 H   0  0  0  0  0  0  0  0  0  0  0  0
    7.4762    0.4718    0.0000 H   0  0  0  0  0  0  0  0  0  0  0  0
    7.6021   -4.5018    0.0000 H   0  0  0  0  0  0  0  0  0  0  0  0
    5.7875    0.4969    0.0000 H   0  0  0  0  0  0  0  0  0  0  0  0
    6.1860   -0.1934    0.0000 H   0  0  0  0  0  0  0  0  0  0  0  0
    8.1300   -6.1409    0.0000 H   0  0  0  0  0  0  0  0  0  0  0  0
    7.0087    1.2816    0.0000 H   0  0  0  0  0  0  0  0  0  0  0  0
    6.6101    1.9718    0.0000 H   0  0  0  0  0  0  0  0  0  0  0  0
   10.9720   -3.8988    0.0000 H   0  0  0  0  0  0  0  0  0  0  0  0
    9.9655   -6.9785    0.0000 H   0  0  0  0  0  0  0  0  0  0  0  0
   12.0539   -5.1046    0.0000 H   0  0  0  0  0  0  0  0  0  0  0  0
   11.5506   -6.6445    0.0000 H   0  0  0  0  0  0  0  0  0  0  0  0
    2.9132    0.7346    0.0000 H   0  0  0  0  0  0  0  0  0  0  0  0
    2.9132    4.0438    0.0000 H   0  0  0  0  0  0  0  0  0  0  0  0
    1.4643    1.5563    0.0000 H   0  0  0  0  0  0  0  0  0  0  0  0
    1.4643    3.2221    0.0000 H   0  0  0  0  0  0  0  0  0  0  0  0
    6.0690    4.5792    0.0000 H   0  0  0  0  0  0  0  0  0  0  0  0
    3.2631    4.5792    0.0000 H   0  0  0  0  0  0  0  0  0  0  0  0
    6.0690    6.1992    0.0000 H   0  0  0  0  0  0  0  0  0  0  0  0
    3.2631    6.1992    0.0000 H   0  0  0  0  0  0  0  0  0  0  0  0
    4.6660    7.0092    0.0000 H   0  0  0  0  0  0  0  0  0  0  0  0
  1 24  2  0  0  0  0
  2 25  2  0  0  0  0
  3  8  1  0  0  0  0
  3 11  1  0  0  0  0
  3 13  1  0  0  0  0
  4 16  1  0  0  0  0
  4 18  1  0  0  0  0
  4 54  1  0  0  0  0
  5 19  1  0  0  0  0
  5 24  1  0  0  0  0
  5 25  1  0  0  0  0
  6 25  1  0  0  0  0
  6 27  1  0  0  0  0
  6 29  1  0  0  0  0
  7  8  1  0  0  0  0
  7  9  1  0  0  0  0
  7 12  1  0  0  0  0
  7 38  1  0  0  0  0
  8 39  1  0  0  0  0
  8 40  1  0  0  0  0
  9 10  1  0  0  0  0
  9 41  1  0  0  0  0
  9 42  1  0  0  0  0
 10 11  1  0  0  0  0
 10 43  1  0  0  0  0
 10 44  1  0  0  0  0
 11 45  1  0  0  0  0
 11 46  1  0  0  0  0
 12 15  1  0  0  0  0
 12 16  2  0  0  0  0
 13 14  1  0  0  0  0
 13 47  1  0  0  0  0
 13 48  1  0  0  0  0
 14 17  1  0  0  0  0
 14 49  1  0  0  0  0
 14 50  1  0  0  0  0
 15 18  1  0  0  0  0
 15 20  2  0  0  0  0
 16 51  1  0  0  0  0
 17 19  1  0  0  0  0
 17 52  1  0  0  0  0
 17 53  1  0  0  0  0
 18 21  2  0  0  0  0
 19 55  1  0  0  0  0
 19 56  1  0  0  0  0
 20 22  1  0  0  0  0
 20 57  1  0  0  0  0
 21 23  1  0  0  0  0
 21 58  1  0  0  0  0
 22 23  2  0  0  0  0
 22 59  1  0  0  0  0
 23 60  1  0  0  0  0
 24 26  1  0  0  0  0
 26 27  2  0  0  0  0
 26 28  1  0  0  0  0
 27 30  1  0  0  0  0
 28 33  2  0  0  0  0
 28 34  1  0  0  0  0
 29 31  2  0  0  0  0
 29 61  1  0  0  0  0
 30 32  2  0  0  0  0
 30 62  1  0  0  0  0
 31 32  1  0  0  0  0
 31 63  1  0  0  0  0
 32 64  1  0  0  0  0
 33 35  1  0  0  0  0
 33 65  1  0  0  0  0
 34 36  2  0  0  0  0
 34 66  1  0  0  0  0
 35 37  2  0  0  0  0
 35 67  1  0  0  0  0
 36 37  1  0  0  0  0
 36 68  1  0  0  0  0
 37 69  1  0  0  0  0
M  END
> <PUBCHEM_COMPOUND_CID>
155522218

> <PUBCHEM_COMPOUND_CANONICALIZED>
1

> <PUBCHEM_CACTVS_COMPLEXITY>
949

> <PUBCHEM_CACTVS_HBOND_ACCEPTOR>
3

> <PUBCHEM_CACTVS_HBOND_DONOR>
1

> <PUBCHEM_CACTVS_ROTATABLE_BOND>
7

> <PUBCHEM_CACTVS_SUBSKEYS>
AAADcfB7sAAAAAAAAAAAAAAAAAAAAWAAAAA8YIECAAAAAFiB9AAAHgAQAAAADQjBngQ9wPPJkACoAzV3VACCgCAxAiAI2aE4ZNiIIPLAlZGEIAholyLIyUcYiMCOgAAAAAACAAAAAAAAAAQAAAAAAAAAAA==

> <PUBCHEM_IUPAC_OPENEYE_NAME>
2-[4-[3-(1H-indol-3-yl)-1-piperidyl]butyl]-4-phenyl-pyrido[1,2-c]pyrimidine-1,3-dione

> <PUBCHEM_IUPAC_CAS_NAME>
2-[4-[3-(1H-indol-3-yl)-1-piperidinyl]butyl]-4-phenylpyrido[1,2-c]pyrimidine-1,3-dione

> <PUBCHEM_IUPAC_NAME_MARKUP>
2-[4-[3-(1<I>H</I>-indol-3-yl)piperidin-1-yl]butyl]-4-phenylpyrido[1,2-c]pyrimidine-1,3-dione

> <PUBCHEM_IUPAC_NAME>
2-[4-[3-(1H-indol-3-yl)piperidin-1-yl]butyl]-4-phenylpyrido[1,2-c]pyrimidine-1,3-dione

> <PUBCHEM_IUPAC_SYSTEMATIC_NAME>
2-[4-[3-(1H-indol-3-yl)piperidin-1-yl]butyl]-4-phenyl-pyrido[1,2-c]pyrimidine-1,3-dione

> <PUBCHEM_IUPAC_TRADITIONAL_NAME>
2-[4-[3-(1H-indol-3-yl)piperidino]butyl]-4-phenyl-pyrido[1,2-c]pyrimidine-1,3-quinone

> <PUBCHEM_IUPAC_INCHI>
InChI=1S/C31H32N4O2/c36-30-29(23-11-2-1-3-12-23)28-16-6-7-19-34(28)31(37)35(30)20-9-8-17-33-18-10-13-24(22-33)26-21-32-27-15-5-4-14-25(26)27/h1-7,11-12,14-16,19,21,24,32H,8-10,13,17-18,20,22H2

> <PUBCHEM_IUPAC_INCHIKEY>
BLVMGNGXAWHZQW-UHFFFAOYSA-N

> <PUBCHEM_XLOGP3_AA>
5.1

> <PUBCHEM_EXACT_MASS>
492.25252628

> <PUBCHEM_MOLECULAR_FORMULA>
C31H32N4O2

> <PUBCHEM_MOLECULAR_WEIGHT>
492.6

> <PUBCHEM_OPENEYE_CAN_SMILES>
C1CC(CN(C1)CCCCN2C(=O)C(=C3C=CC=CN3C2=O)C4=CC=CC=C4)C5=CNC6=CC=CC=C65

> <PUBCHEM_OPENEYE_ISO_SMILES>
C1CC(CN(C1)CCCCN2C(=O)C(=C3C=CC=CN3C2=O)C4=CC=CC=C4)C5=CNC6=CC=CC=C65

> <PUBCHEM_CACTVS_TPSA>
59.6

> <PUBCHEM_MONOISOTOPIC_WEIGHT>
492.25252628

> <PUBCHEM_TOTAL_CHARGE>
0

> <PUBCHEM_HEAVY_ATOM_COUNT>
37

> <PUBCHEM_ATOM_DEF_STEREO_COUNT>
0

> <PUBCHEM_ATOM_UDEF_STEREO_COUNT>
1

> <PUBCHEM_BOND_DEF_STEREO_COUNT>
0

> <PUBCHEM_BOND_UDEF_STEREO_COUNT>
0

> <PUBCHEM_ISOTOPIC_ATOM_COUNT>
0

> <PUBCHEM_COMPONENT_COUNT>
1

> <PUBCHEM_CACTVS_TAUTO_COUNT>
-1

> <PUBCHEM_COORDINATE_TYPE>
1
5
255

> <PUBCHEM_BONDANNOTATIONS>
12  15  8
12  16  8
15  18  8
15  20  8
18  21  8
20  22  8
21  23  8
22  23  8
24  26  8
26  27  8
27  30  8
28  33  8
28  34  8
29  31  8
30  32  8
31  32  8
33  35  8
34  36  8
35  37  8
36  37  8
4  16  8
4  18  8
5  24  8
5  25  8
6  25  8
6  27  8
6  29  8
7  12  3

$$$$
