44335945
  -OEChem-09292322512D

 63 67  0     1  0  0  0  0  0999 V2000
   11.1241   -2.9871    0.0000 Cl  0  0  0  0  0  0  0  0  0  0  0  0
    4.3211    1.1018    0.0000 O   0  0  0  0  0  0  0  0  0  0  0  0
    6.8994   -1.2117    0.0000 N   0  0  0  0  0  0  0  0  0  0  0  0
    6.2781    0.6893    0.0000 N   0  0  0  0  0  0  0  0  0  0  0  0
    4.6783    2.7966    0.0000 N   0  0  0  0  0  0  0  0  0  0  0  0
    7.5673   -0.4674    0.0000 C   0  0  0  0  0  0  0  0  0  0  0  0
    5.9209   -1.0055    0.0000 C   0  0  0  0  0  0  0  0  0  0  0  0
    7.2566    0.4831    0.0000 C   0  0  0  0  0  0  0  0  0  0  0  0
    5.6103   -0.0550    0.0000 C   0  0  0  0  0  0  0  0  0  0  0  0
    7.2101   -2.1622    0.0000 C   0  0  3  0  0  0  0  0  0  0  0  0
    5.2619    3.6013    0.0000 C   0  0  3  0  0  0  0  0  0  0  0  0
    5.9674    1.6399    0.0000 C   0  0  0  0  0  0  0  0  0  0  0  0
    4.6783    4.4061    0.0000 C   0  0  0  0  0  0  0  0  0  0  0  0
    4.9889    1.8461    0.0000 C   0  0  0  0  0  0  0  0  0  0  0  0
    3.7320    3.1013    0.0000 C   0  0  0  0  0  0  0  0  0  0  0  0
    3.7320    4.1013    0.0000 C   0  0  0  0  0  0  0  0  0  0  0  0
    8.1886   -2.3684    0.0000 C   0  0  0  0  0  0  0  0  0  0  0  0
    6.5422   -2.9065    0.0000 C   0  0  0  0  0  0  0  0  0  0  0  0
    6.2619    3.6013    0.0000 C   0  0  0  0  0  0  0  0  0  0  0  0
    2.8660    2.6013    0.0000 C   0  0  0  0  0  0  0  0  0  0  0  0
    2.8660    4.6013    0.0000 C   0  0  0  0  0  0  0  0  0  0  0  0
    8.4993   -3.3190    0.0000 C   0  0  0  0  0  0  0  0  0  0  0  0
    8.8564   -1.6241    0.0000 C   0  0  0  0  0  0  0  0  0  0  0  0
    6.8529   -3.8570    0.0000 C   0  0  0  0  0  0  0  0  0  0  0  0
    5.5637   -2.7003    0.0000 C   0  0  0  0  0  0  0  0  0  0  0  0
    2.0000    3.1013    0.0000 C   0  0  0  0  0  0  0  0  0  0  0  0
    2.0000    4.1013    0.0000 C   0  0  0  0  0  0  0  0  0  0  0  0
    9.4778   -3.5252    0.0000 C   0  0  0  0  0  0  0  0  0  0  0  0
    9.8349   -1.8304    0.0000 C   0  0  0  0  0  0  0  0  0  0  0  0
    6.1851   -4.6013    0.0000 C   0  0  0  0  0  0  0  0  0  0  0  0
    4.8959   -3.4446    0.0000 C   0  0  0  0  0  0  0  0  0  0  0  0
   10.1456   -2.7809    0.0000 C   0  0  0  0  0  0  0  0  0  0  0  0
    5.2066   -4.3951    0.0000 C   0  0  0  0  0  0  0  0  0  0  0  0
    7.9498   -0.9553    0.0000 H   0  0  0  0  0  0  0  0  0  0  0  0
    8.1142   -0.1754    0.0000 H   0  0  0  0  0  0  0  0  0  0  0  0
    5.3071   -1.0928    0.0000 H   0  0  0  0  0  0  0  0  0  0  0  0
    5.9004   -1.6251    0.0000 H   0  0  0  0  0  0  0  0  0  0  0  0
    7.8704    0.5705    0.0000 H   0  0  0  0  0  0  0  0  0  0  0  0
    7.2772    1.1028    0.0000 H   0  0  0  0  0  0  0  0  0  0  0  0
    5.2277    0.4330    0.0000 H   0  0  0  0  0  0  0  0  0  0  0  0
    5.0633   -0.3470    0.0000 H   0  0  0  0  0  0  0  0  0  0  0  0
    7.6242   -1.7008    0.0000 H   0  0  0  0  0  0  0  0  0  0  0  0
    5.5436    3.0490    0.0000 H   0  0  0  0  0  0  0  0  0  0  0  0
    6.5812    1.7272    0.0000 H   0  0  0  0  0  0  0  0  0  0  0  0
    5.9880    2.2595    0.0000 H   0  0  0  0  0  0  0  0  0  0  0  0
    5.2156    4.7153    0.0000 H   0  0  0  0  0  0  0  0  0  0  0  0
    4.4272    4.9730    0.0000 H   0  0  0  0  0  0  0  0  0  0  0  0
    6.2619    2.9813    0.0000 H   0  0  0  0  0  0  0  0  0  0  0  0
    6.8819    3.6013    0.0000 H   0  0  0  0  0  0  0  0  0  0  0  0
    6.2619    4.2213    0.0000 H   0  0  0  0  0  0  0  0  0  0  0  0
    2.8660    1.9813    0.0000 H   0  0  0  0  0  0  0  0  0  0  0  0
    2.8660    5.2213    0.0000 H   0  0  0  0  0  0  0  0  0  0  0  0
    8.0852   -3.7804    0.0000 H   0  0  0  0  0  0  0  0  0  0  0  0
    8.6638   -1.0348    0.0000 H   0  0  0  0  0  0  0  0  0  0  0  0
    7.4596   -3.9849    0.0000 H   0  0  0  0  0  0  0  0  0  0  0  0
    5.3711   -2.1110    0.0000 H   0  0  0  0  0  0  0  0  0  0  0  0
    1.4631    2.7913    0.0000 H   0  0  0  0  0  0  0  0  0  0  0  0
    1.4631    4.4113    0.0000 H   0  0  0  0  0  0  0  0  0  0  0  0
    9.6704   -4.1145    0.0000 H   0  0  0  0  0  0  0  0  0  0  0  0
   10.2490   -1.3689    0.0000 H   0  0  0  0  0  0  0  0  0  0  0  0
    6.3777   -5.1907    0.0000 H   0  0  0  0  0  0  0  0  0  0  0  0
    4.2892   -3.3167    0.0000 H   0  0  0  0  0  0  0  0  0  0  0  0
    4.7925   -4.8566    0.0000 H   0  0  0  0  0  0  0  0  0  0  0  0
  1 32  1  0  0  0  0
  2 14  2  0  0  0  0
  3  6  1  0  0  0  0
  3  7  1  0  0  0  0
  3 10  1  0  0  0  0
  4  8  1  0  0  0  0
  4  9  1  0  0  0  0
  4 12  1  0  0  0  0
  5 11  1  0  0  0  0
  5 14  1  0  0  0  0
  5 15  1  0  0  0  0
  6  8  1  0  0  0  0
  6 34  1  0  0  0  0
  6 35  1  0  0  0  0
  7  9  1  0  0  0  0
  7 36  1  0  0  0  0
  7 37  1  0  0  0  0
  8 38  1  0  0  0  0
  8 39  1  0  0  0  0
  9 40  1  0  0  0  0
  9 41  1  0  0  0  0
 10 17  1  0  0  0  0
 10 18  1  0  0  0  0
 10 42  1  0  0  0  0
 11 13  1  0  0  0  0
 11 19  1  0  0  0  0
 11 43  1  0  0  0  0
 12 14  1  0  0  0  0
 12 44  1  0  0  0  0
 12 45  1  0  0  0  0
 13 16  1  0  0  0  0
 13 46  1  0  0  0  0
 13 47  1  0  0  0  0
 15 16  1  0  0  0  0
 15 20  2  0  0  0  0
 16 21  2  0  0  0  0
 17 22  2  0  0  0  0
 17 23  1  0  0  0  0
 18 24  2  0  0  0  0
 18 25  1  0  0  0  0
 19 48  1  0  0  0  0
 19 49  1  0  0  0  0
 19 50  1  0  0  0  0
 20 26  1  0  0  0  0
 20 51  1  0  0  0  0
 21 27  1  0  0  0  0
 21 52  1  0  0  0  0
 22 28  1  0  0  0  0
 22 53  1  0  0  0  0
 23 29  2  0  0  0  0
 23 54  1  0  0  0  0
 24 30  1  0  0  0  0
 24 55  1  0  0  0  0
 25 31  2  0  0  0  0
 25 56  1  0  0  0  0
 26 27  2  0  0  0  0
 26 57  1  0  0  0  0
 27 58  1  0  0  0  0
 28 32  2  0  0  0  0
 28 59  1  0  0  0  0
 29 32  1  0  0  0  0
 29 60  1  0  0  0  0
 30 33  2  0  0  0  0
 30 61  1  0  0  0  0
 31 33  1  0  0  0  0
 31 62  1  0  0  0  0
 33 63  1  0  0  0  0
M  END
> <PUBCHEM_COMPOUND_CID>
44335945

> <PUBCHEM_COMPOUND_CANONICALIZED>
1

> <PUBCHEM_CACTVS_COMPLEXITY>
637

> <PUBCHEM_CACTVS_HBOND_ACCEPTOR>
3

> <PUBCHEM_CACTVS_HBOND_DONOR>
0

> <PUBCHEM_CACTVS_ROTATABLE_BOND>
5

> <PUBCHEM_CACTVS_SUBSKEYS>
AAADceB7IAAEAAAAAAAAAAAAAAAAAWAAAAA8YMEAAAAAAFgBUAAAHgIAAAAADCrBmCQywIMAAACIAiVSUACCAAAhBwAIiACIZogIYCLBk7GUIAhghgDIyAcQgMAOBAAAAAACAAAIAAAAAAQAAAAAAAAAAA==

> <PUBCHEM_IUPAC_OPENEYE_NAME>
2-[4-[(4-chlorophenyl)-phenyl-methyl]piperazin-1-yl]-1-(2-methylindolin-1-yl)ethanone

> <PUBCHEM_IUPAC_CAS_NAME>
2-[4-[(4-chlorophenyl)-phenylmethyl]-1-piperazinyl]-1-(2-methyl-2,3-dihydroindol-1-yl)ethanone

> <PUBCHEM_IUPAC_NAME_MARKUP>
2-[4-[(4-chlorophenyl)-phenylmethyl]piperazin-1-yl]-1-(2-methyl-2,3-dihydroindol-1-yl)ethanone

> <PUBCHEM_IUPAC_NAME>
2-[4-[(4-chlorophenyl)-phenylmethyl]piperazin-1-yl]-1-(2-methyl-2,3-dihydroindol-1-yl)ethanone

> <PUBCHEM_IUPAC_SYSTEMATIC_NAME>
2-[4-[(4-chlorophenyl)-phenyl-methyl]piperazin-1-yl]-1-(2-methyl-2,3-dihydroindol-1-yl)ethanone

> <PUBCHEM_IUPAC_TRADITIONAL_NAME>
2-[4-[(4-chlorophenyl)-phenyl-methyl]piperazino]-1-(2-methylindolin-1-yl)ethanone

> <PUBCHEM_IUPAC_INCHI>
InChI=1S/C28H30ClN3O/c1-21-19-24-9-5-6-10-26(24)32(21)27(33)20-30-15-17-31(18-16-30)28(22-7-3-2-4-8-22)23-11-13-25(29)14-12-23/h2-14,21,28H,15-20H2,1H3

> <PUBCHEM_IUPAC_INCHIKEY>
SUUFLJYOAPRJGV-UHFFFAOYSA-N

> <PUBCHEM_XLOGP3_AA>
5.4

> <PUBCHEM_EXACT_MASS>
459.2077403

> <PUBCHEM_MOLECULAR_FORMULA>
C28H30ClN3O

> <PUBCHEM_MOLECULAR_WEIGHT>
460.0

> <PUBCHEM_OPENEYE_CAN_SMILES>
CC1CC2=CC=CC=C2N1C(=O)CN3CCN(CC3)C(C4=CC=CC=C4)C5=CC=C(C=C5)Cl

> <PUBCHEM_OPENEYE_ISO_SMILES>
CC1CC2=CC=CC=C2N1C(=O)CN3CCN(CC3)C(C4=CC=CC=C4)C5=CC=C(C=C5)Cl

> <PUBCHEM_CACTVS_TPSA>
26.8

> <PUBCHEM_MONOISOTOPIC_WEIGHT>
459.2077403

> <PUBCHEM_TOTAL_CHARGE>
0

> <PUBCHEM_HEAVY_ATOM_COUNT>
33

> <PUBCHEM_ATOM_DEF_STEREO_COUNT>
0

> <PUBCHEM_ATOM_UDEF_STEREO_COUNT>
2

> <PUBCHEM_BOND_DEF_STEREO_COUNT>
0

> <PUBCHEM_BOND_UDEF_STEREO_COUNT>
0

> <PUBCHEM_ISOTOPIC_ATOM_COUNT>
0

> <PUBCHEM_COMPONENT_COUNT>
1

> <PUBCHEM_CACTVS_TAUTO_COUNT>
-1

> <PUBCHEM_COORDINATE_TYPE>
1
5
255

> <PUBCHEM_BONDANNOTATIONS>
10  18  3
11  19  3
15  16  8
15  20  8
16  21  8
17  22  8
17  23  8
18  24  8
18  25  8
20  26  8
21  27  8
22  28  8
23  29  8
24  30  8
25  31  8
26  27  8
28  32  8
29  32  8
30  33  8
31  33  8

$$$$
