11692038
  -OEChem-09292322482D

 65 69  0     0  0  0  0  0  0999 V2000
    6.4103   -5.9712    0.0000 O   0  0  0  0  0  0  0  0  0  0  0  0
    2.8660   -4.1664    0.0000 O   0  0  0  0  0  0  0  0  0  0  0  0
   12.4667    3.2153    0.0000 O   0  0  0  0  0  0  0  0  0  0  0  0
   11.8777    1.2158    0.0000 O   0  0  0  0  0  0  0  0  0  0  0  0
   14.1658    4.5666    0.0000 O   0  0  0  0  0  0  0  0  0  0  0  0
    7.3423   -1.5101    0.0000 N   0  0  0  0  0  0  0  0  0  0  0  0
    6.7210   -3.4112    0.0000 N   0  0  0  0  0  0  0  0  0  0  0  0
    6.9939   -5.1664    0.0000 N   0  0  0  0  0  0  0  0  0  0  0  0
   10.2313    1.7539    0.0000 N   0  0  0  0  0  0  0  0  0  0  0  0
    6.3638   -1.7164    0.0000 C   0  0  0  0  0  0  0  0  0  0  0  0
    8.0102   -2.2544    0.0000 C   0  0  0  0  0  0  0  0  0  0  0  0
    6.0531   -2.6669    0.0000 C   0  0  0  0  0  0  0  0  0  0  0  0
    7.6995   -3.2050    0.0000 C   0  0  0  0  0  0  0  0  0  0  0  0
    7.6530   -0.5596    0.0000 C   0  0  0  0  0  0  0  0  0  0  0  0
    8.6315   -0.3534    0.0000 C   0  0  0  0  0  0  0  0  0  0  0  0
    6.4103   -4.3617    0.0000 C   0  0  0  0  0  0  0  0  0  0  0  0
    8.9421    0.5971    0.0000 C   0  0  0  0  0  0  0  0  0  0  0  0
    5.4641   -4.6664    0.0000 C   0  0  0  0  0  0  0  0  0  0  0  0
    9.9206    0.8033    0.0000 C   0  0  0  0  0  0  0  0  0  0  0  0
    5.4641   -5.6664    0.0000 C   0  0  0  0  0  0  0  0  0  0  0  0
    4.5981   -4.1664    0.0000 C   0  0  0  0  0  0  0  0  0  0  0  0
    4.5981   -6.1664    0.0000 C   0  0  0  0  0  0  0  0  0  0  0  0
    3.7320   -4.6664    0.0000 C   0  0  0  0  0  0  0  0  0  0  0  0
    3.7320   -5.6664    0.0000 C   0  0  0  0  0  0  0  0  0  0  0  0
   11.2098    1.9601    0.0000 C   0  0  0  0  0  0  0  0  0  0  0  0
   11.5205    2.9106    0.0000 C   0  0  0  0  0  0  0  0  0  0  0  0
   10.9369    3.7153    0.0000 C   0  0  0  0  0  0  0  0  0  0  0  0
   11.5205    4.5201    0.0000 C   0  0  0  0  0  0  0  0  0  0  0  0
   12.4710    4.2094    0.0000 C   0  0  0  0  0  0  0  0  0  0  0  0
   13.2153    4.8772    0.0000 C   0  0  0  0  0  0  0  0  0  0  0  0
   11.3143    5.4986    0.0000 C   0  0  0  0  0  0  0  0  0  0  0  0
    2.0000   -4.6664    0.0000 C   0  0  0  0  0  0  0  0  0  0  0  0
   13.0091    5.8558    0.0000 C   0  0  0  0  0  0  0  0  0  0  0  0
   12.0586    6.1664    0.0000 C   0  0  0  0  0  0  0  0  0  0  0  0
   14.9101    5.2344    0.0000 C   0  0  0  0  0  0  0  0  0  0  0  0
    6.3432   -1.0967    0.0000 H   0  0  0  0  0  0  0  0  0  0  0  0
    5.7500   -1.6290    0.0000 H   0  0  0  0  0  0  0  0  0  0  0  0
    8.5571   -2.5464    0.0000 H   0  0  0  0  0  0  0  0  0  0  0  0
    8.3927   -1.7665    0.0000 H   0  0  0  0  0  0  0  0  0  0  0  0
    5.5062   -2.3748    0.0000 H   0  0  0  0  0  0  0  0  0  0  0  0
    5.6706   -3.1548    0.0000 H   0  0  0  0  0  0  0  0  0  0  0  0
    7.7201   -3.8246    0.0000 H   0  0  0  0  0  0  0  0  0  0  0  0
    8.3133   -3.2923    0.0000 H   0  0  0  0  0  0  0  0  0  0  0  0
    7.6324    0.0600    0.0000 H   0  0  0  0  0  0  0  0  0  0  0  0
    7.0392   -0.4723    0.0000 H   0  0  0  0  0  0  0  0  0  0  0  0
    8.6520   -0.9730    0.0000 H   0  0  0  0  0  0  0  0  0  0  0  0
    9.2453   -0.4407    0.0000 H   0  0  0  0  0  0  0  0  0  0  0  0
    8.9216    1.2168    0.0000 H   0  0  0  0  0  0  0  0  0  0  0  0
    8.3283    0.6845    0.0000 H   0  0  0  0  0  0  0  0  0  0  0  0
    9.9412    0.1837    0.0000 H   0  0  0  0  0  0  0  0  0  0  0  0
   10.5345    0.7160    0.0000 H   0  0  0  0  0  0  0  0  0  0  0  0
    4.5981   -3.5464    0.0000 H   0  0  0  0  0  0  0  0  0  0  0  0
    9.8172    2.2153    0.0000 H   0  0  0  0  0  0  0  0  0  0  0  0
    4.5981   -6.7864    0.0000 H   0  0  0  0  0  0  0  0  0  0  0  0
    3.1951   -5.9764    0.0000 H   0  0  0  0  0  0  0  0  0  0  0  0
   10.3169    3.7153    0.0000 H   0  0  0  0  0  0  0  0  0  0  0  0
   10.7249    5.6912    0.0000 H   0  0  0  0  0  0  0  0  0  0  0  0
    1.6900   -4.1295    0.0000 H   0  0  0  0  0  0  0  0  0  0  0  0
    1.4631   -4.9764    0.0000 H   0  0  0  0  0  0  0  0  0  0  0  0
    2.3100   -5.2034    0.0000 H   0  0  0  0  0  0  0  0  0  0  0  0
   13.4705    6.2698    0.0000 H   0  0  0  0  0  0  0  0  0  0  0  0
   11.9307    6.7731    0.0000 H   0  0  0  0  0  0  0  0  0  0  0  0
   15.3242    4.7730    0.0000 H   0  0  0  0  0  0  0  0  0  0  0  0
   15.3716    5.6485    0.0000 H   0  0  0  0  0  0  0  0  0  0  0  0
   14.4961    5.6959    0.0000 H   0  0  0  0  0  0  0  0  0  0  0  0
  1  8  1  0  0  0  0
  1 20  1  0  0  0  0
  2 23  1  0  0  0  0
  2 32  1  0  0  0  0
  3 26  1  0  0  0  0
  3 29  1  0  0  0  0
  4 25  2  0  0  0  0
  5 30  1  0  0  0  0
  5 35  1  0  0  0  0
  6 10  1  0  0  0  0
  6 11  1  0  0  0  0
  6 14  1  0  0  0  0
  7 12  1  0  0  0  0
  7 13  1  0  0  0  0
  7 16  1  0  0  0  0
  8 16  2  0  0  0  0
  9 19  1  0  0  0  0
  9 25  1  0  0  0  0
  9 53  1  0  0  0  0
 10 12  1  0  0  0  0
 10 36  1  0  0  0  0
 10 37  1  0  0  0  0
 11 13  1  0  0  0  0
 11 38  1  0  0  0  0
 11 39  1  0  0  0  0
 12 40  1  0  0  0  0
 12 41  1  0  0  0  0
 13 42  1  0  0  0  0
 13 43  1  0  0  0  0
 14 15  1  0  0  0  0
 14 44  1  0  0  0  0
 14 45  1  0  0  0  0
 15 17  1  0  0  0  0
 15 46  1  0  0  0  0
 15 47  1  0  0  0  0
 16 18  1  0  0  0  0
 17 19  1  0  0  0  0
 17 48  1  0  0  0  0
 17 49  1  0  0  0  0
 18 20  2  0  0  0  0
 18 21  1  0  0  0  0
 19 50  1  0  0  0  0
 19 51  1  0  0  0  0
 20 22  1  0  0  0  0
 21 23  2  0  0  0  0
 21 52  1  0  0  0  0
 22 24  2  0  0  0  0
 22 54  1  0  0  0  0
 23 24  1  0  0  0  0
 24 55  1  0  0  0  0
 25 26  1  0  0  0  0
 26 27  2  0  0  0  0
 27 28  1  0  0  0  0
 27 56  1  0  0  0  0
 28 29  2  0  0  0  0
 28 31  1  0  0  0  0
 29 30  1  0  0  0  0
 30 33  2  0  0  0  0
 31 34  2  0  0  0  0
 31 57  1  0  0  0  0
 32 58  1  0  0  0  0
 32 59  1  0  0  0  0
 32 60  1  0  0  0  0
 33 34  1  0  0  0  0
 33 61  1  0  0  0  0
 34 62  1  0  0  0  0
 35 63  1  0  0  0  0
 35 64  1  0  0  0  0
 35 65  1  0  0  0  0
M  END
> <PUBCHEM_COMPOUND_CID>
11692038

> <PUBCHEM_COMPOUND_CANONICALIZED>
1

> <PUBCHEM_CACTVS_COMPLEXITY>
691

> <PUBCHEM_CACTVS_HBOND_ACCEPTOR>
8

> <PUBCHEM_CACTVS_HBOND_DONOR>
1

> <PUBCHEM_CACTVS_ROTATABLE_BOND>
9

> <PUBCHEM_CACTVS_SUBSKEYS>
AAADceB7uAAAAAAAAAAAAAAAAAAAAWJAAAA8YIAAAAAAAFgB/gAAHgAUAAAADATBmgYzttPQBECpAqNycgKCCAAlIAApmKHuzNqPZrrEvb+XOarm1hva6cf6/77uAQABAAAIQAACAAIAABCAAAAAAAAAAA==

> <PUBCHEM_IUPAC_OPENEYE_NAME>
7-methoxy-N-[4-[4-(5-methoxy-1,2-benzoxazol-3-yl)piperazin-1-yl]butyl]benzofuran-2-carboxamide

> <PUBCHEM_IUPAC_CAS_NAME>
7-methoxy-N-[4-[4-(5-methoxy-1,2-benzoxazol-3-yl)-1-piperazinyl]butyl]-2-benzofurancarboxamide

> <PUBCHEM_IUPAC_NAME_MARKUP>
7-methoxy-<I>N</I>-[4-[4-(5-methoxy-1,2-benzoxazol-3-yl)piperazin-1-yl]butyl]-1-benzofuran-2-carboxamide

> <PUBCHEM_IUPAC_NAME>
7-methoxy-N-[4-[4-(5-methoxy-1,2-benzoxazol-3-yl)piperazin-1-yl]butyl]-1-benzofuran-2-carboxamide

> <PUBCHEM_IUPAC_SYSTEMATIC_NAME>
7-methoxy-N-[4-[4-(5-methoxy-1,2-benzoxazol-3-yl)piperazin-1-yl]butyl]-1-benzofuran-2-carboxamide

> <PUBCHEM_IUPAC_TRADITIONAL_NAME>
7-methoxy-N-[4-[4-(5-methoxyindoxazen-3-yl)piperazino]butyl]coumarilamide

> <PUBCHEM_IUPAC_INCHI>
InChI=1S/C26H30N4O5/c1-32-19-8-9-21-20(17-19)25(28-35-21)30-14-12-29(13-15-30)11-4-3-10-27-26(31)23-16-18-6-5-7-22(33-2)24(18)34-23/h5-9,16-17H,3-4,10-15H2,1-2H3,(H,27,31)

> <PUBCHEM_IUPAC_INCHIKEY>
MVSPKSXZRIYQCT-UHFFFAOYSA-N

> <PUBCHEM_XLOGP3_AA>
4.3

> <PUBCHEM_EXACT_MASS>
478.22162007

> <PUBCHEM_MOLECULAR_FORMULA>
C26H30N4O5

> <PUBCHEM_MOLECULAR_WEIGHT>
478.5

> <PUBCHEM_OPENEYE_CAN_SMILES>
COC1=CC2=C(C=C1)ON=C2N3CCN(CC3)CCCCNC(=O)C4=CC5=C(O4)C(=CC=C5)OC

> <PUBCHEM_OPENEYE_ISO_SMILES>
COC1=CC2=C(C=C1)ON=C2N3CCN(CC3)CCCCNC(=O)C4=CC5=C(O4)C(=CC=C5)OC

> <PUBCHEM_CACTVS_TPSA>
93.2

> <PUBCHEM_MONOISOTOPIC_WEIGHT>
478.22162007

> <PUBCHEM_TOTAL_CHARGE>
0

> <PUBCHEM_HEAVY_ATOM_COUNT>
35

> <PUBCHEM_ATOM_DEF_STEREO_COUNT>
0

> <PUBCHEM_ATOM_UDEF_STEREO_COUNT>
0

> <PUBCHEM_BOND_DEF_STEREO_COUNT>
0

> <PUBCHEM_BOND_UDEF_STEREO_COUNT>
0

> <PUBCHEM_ISOTOPIC_ATOM_COUNT>
0

> <PUBCHEM_COMPONENT_COUNT>
1

> <PUBCHEM_CACTVS_TAUTO_COUNT>
-1

> <PUBCHEM_COORDINATE_TYPE>
1
5
255

> <PUBCHEM_BONDANNOTATIONS>
1  20  8
1  8  8
16  18  8
18  20  8
18  21  8
20  22  8
21  23  8
22  24  8
23  24  8
26  27  8
27  28  8
28  29  8
28  31  8
29  30  8
3  26  8
3  29  8
30  33  8
31  34  8
33  34  8
8  16  8

$$$$
