10971209
  -OEChem-09292322112D

 50 53  0     0  0  0  0  0  0999 V2000
    3.0000    2.4654    0.0000 S   0  0  0  0  0  0  0  0  0  0  0  0
    3.0000   -2.5346    0.0000 F   0  0  0  0  0  0  0  0  0  0  0  0
    4.7320   -5.5346    0.0000 F   0  0  0  0  0  0  0  0  0  0  0  0
    2.0000    2.4654    0.0000 O   0  0  0  0  0  0  0  0  0  0  0  0
    2.2340    1.8226    0.0000 O   0  0  0  0  0  0  0  0  0  0  0  0
    3.8660   -0.0346    0.0000 N   0  0  0  0  0  0  0  0  0  0  0  0
    3.8660    1.9654    0.0000 C   0  0  0  0  0  0  0  0  0  0  0  0
    3.0000    1.4654    0.0000 C   0  0  0  0  0  0  0  0  0  0  0  0
    4.7320    1.4654    0.0000 C   0  0  0  0  0  0  0  0  0  0  0  0
    4.7320    2.4654    0.0000 C   0  0  0  0  0  0  0  0  0  0  0  0
    3.0000    0.4654    0.0000 C   0  0  0  0  0  0  0  0  0  0  0  0
    4.7320    0.4654    0.0000 C   0  0  0  0  0  0  0  0  0  0  0  0
    4.7320    3.4654    0.0000 C   0  0  0  0  0  0  0  0  0  0  0  0
    3.0000    3.4654    0.0000 C   0  0  0  0  0  0  0  0  0  0  0  0
    3.8660    3.9654    0.0000 C   0  0  0  0  0  0  0  0  0  0  0  0
    3.8660   -1.0346    0.0000 C   0  0  0  0  0  0  0  0  0  0  0  0
    2.0900    3.9722    0.0000 C   0  0  0  0  0  0  0  0  0  0  0  0
    3.8821    5.0069    0.0000 C   0  0  0  0  0  0  0  0  0  0  0  0
    4.7320   -1.5346    0.0000 C   0  0  0  0  0  0  0  0  0  0  0  0
    2.0820    5.0138    0.0000 C   0  0  0  0  0  0  0  0  0  0  0  0
    2.9840    5.5346    0.0000 C   0  0  0  0  0  0  0  0  0  0  0  0
    4.7320   -2.5346    0.0000 C   0  0  0  0  0  0  0  0  0  0  0  0
    3.8660   -3.0346    0.0000 C   0  0  0  0  0  0  0  0  0  0  0  0
    5.5981   -3.0346    0.0000 C   0  0  0  0  0  0  0  0  0  0  0  0
    3.8660   -4.0346    0.0000 C   0  0  0  0  0  0  0  0  0  0  0  0
    5.5981   -4.0346    0.0000 C   0  0  0  0  0  0  0  0  0  0  0  0
    4.7320   -4.5346    0.0000 C   0  0  0  0  0  0  0  0  0  0  0  0
    2.7880    2.0480    0.0000 H   0  0  0  0  0  0  0  0  0  0  0  0
    2.3894    1.3577    0.0000 H   0  0  0  0  0  0  0  0  0  0  0  0
    5.3426    1.3577    0.0000 H   0  0  0  0  0  0  0  0  0  0  0  0
    4.9441    2.0480    0.0000 H   0  0  0  0  0  0  0  0  0  0  0  0
    4.9441    1.8828    0.0000 H   0  0  0  0  0  0  0  0  0  0  0  0
    5.3426    2.5730    0.0000 H   0  0  0  0  0  0  0  0  0  0  0  0
    2.3894    0.5730    0.0000 H   0  0  0  0  0  0  0  0  0  0  0  0
    2.7880   -0.1172    0.0000 H   0  0  0  0  0  0  0  0  0  0  0  0
    4.9441   -0.1172    0.0000 H   0  0  0  0  0  0  0  0  0  0  0  0
    5.3426    0.5730    0.0000 H   0  0  0  0  0  0  0  0  0  0  0  0
    5.3426    3.3577    0.0000 H   0  0  0  0  0  0  0  0  0  0  0  0
    4.9441    4.0480    0.0000 H   0  0  0  0  0  0  0  0  0  0  0  0
    3.2554   -0.9270    0.0000 H   0  0  0  0  0  0  0  0  0  0  0  0
    3.6540   -1.6172    0.0000 H   0  0  0  0  0  0  0  0  0  0  0  0
    1.5567    3.6560    0.0000 H   0  0  0  0  0  0  0  0  0  0  0  0
    4.4226    5.3106    0.0000 H   0  0  0  0  0  0  0  0  0  0  0  0
    5.3426   -1.6423    0.0000 H   0  0  0  0  0  0  0  0  0  0  0  0
    4.9441   -0.9520    0.0000 H   0  0  0  0  0  0  0  0  0  0  0  0
    1.5438    5.3217    0.0000 H   0  0  0  0  0  0  0  0  0  0  0  0
    2.9864    6.1546    0.0000 H   0  0  0  0  0  0  0  0  0  0  0  0
    6.1350   -2.7246    0.0000 H   0  0  0  0  0  0  0  0  0  0  0  0
    3.3291   -4.3446    0.0000 H   0  0  0  0  0  0  0  0  0  0  0  0
    6.1350   -4.3446    0.0000 H   0  0  0  0  0  0  0  0  0  0  0  0
  1  4  2  0  0  0  0
  1  5  2  0  0  0  0
  1  7  1  0  0  0  0
  1 14  1  0  0  0  0
  2 23  1  0  0  0  0
  3 27  1  0  0  0  0
  6 11  1  0  0  0  0
  6 12  1  0  0  0  0
  6 16  1  0  0  0  0
  7  8  1  0  0  0  0
  7  9  1  0  0  0  0
  7 10  1  0  0  0  0
  8 11  1  0  0  0  0
  8 28  1  0  0  0  0
  8 29  1  0  0  0  0
  9 12  1  0  0  0  0
  9 30  1  0  0  0  0
  9 31  1  0  0  0  0
 10 13  1  0  0  0  0
 10 32  1  0  0  0  0
 10 33  1  0  0  0  0
 11 34  1  0  0  0  0
 11 35  1  0  0  0  0
 12 36  1  0  0  0  0
 12 37  1  0  0  0  0
 13 15  1  0  0  0  0
 13 38  1  0  0  0  0
 13 39  1  0  0  0  0
 14 15  1  0  0  0  0
 14 17  2  0  0  0  0
 15 18  2  0  0  0  0
 16 19  1  0  0  0  0
 16 40  1  0  0  0  0
 16 41  1  0  0  0  0
 17 20  1  0  0  0  0
 17 42  1  0  0  0  0
 18 21  1  0  0  0  0
 18 43  1  0  0  0  0
 19 22  1  0  0  0  0
 19 44  1  0  0  0  0
 19 45  1  0  0  0  0
 20 21  2  0  0  0  0
 20 46  1  0  0  0  0
 21 47  1  0  0  0  0
 22 23  2  0  0  0  0
 22 24  1  0  0  0  0
 23 25  1  0  0  0  0
 24 26  2  0  0  0  0
 24 48  1  0  0  0  0
 25 27  2  0  0  0  0
 25 49  1  0  0  0  0
 26 27  1  0  0  0  0
 26 50  1  0  0  0  0
M  END
> <PUBCHEM_COMPOUND_CID>
10971209

> <PUBCHEM_COMPOUND_CANONICALIZED>
1

> <PUBCHEM_CACTVS_COMPLEXITY>
612

> <PUBCHEM_CACTVS_HBOND_ACCEPTOR>
5

> <PUBCHEM_CACTVS_HBOND_DONOR>
0

> <PUBCHEM_CACTVS_ROTATABLE_BOND>
3

> <PUBCHEM_CACTVS_SUBSKEYS>
AAADceB6MYBAAAAAAAAAAAAAAAAAAAAAAAA8aIEAAAAAAACRQAAAHQQAAAAADADBWAwwAYMAAAqAAiBCAHBCAAAgCBAIiBgIAIgIICKgkRGEIAAggACoiAcQgMAOAAAAAAAEAAAAAAAAAAgAAAAAAAAAAA==

> <PUBCHEM_IUPAC_OPENEYE_NAME>
1'-[2-(2,4-difluorophenyl)ethyl]spiro[3,4-dihydrothiochromene-2,4'-piperidine] 1,1-dioxide

> <PUBCHEM_IUPAC_CAS_NAME>
1'-[2-(2,4-difluorophenyl)ethyl]spiro[3,4-dihydro-1-benzothiopyran-2,4'-piperidine] 1,1-dioxide

> <PUBCHEM_IUPAC_NAME_MARKUP>
1&apos;-[2-(2,4-difluorophenyl)ethyl]spiro[3,4-dihydrothiochromene-2,4&apos;-piperidine] 1,1-dioxide

> <PUBCHEM_IUPAC_NAME>
1'-[2-(2,4-difluorophenyl)ethyl]spiro[3,4-dihydrothiochromene-2,4'-piperidine] 1,1-dioxide

> <PUBCHEM_IUPAC_SYSTEMATIC_NAME>
1'-[2-[2,4-bis(fluoranyl)phenyl]ethyl]spiro[3,4-dihydrothiochromene-2,4'-piperidine] 1,1-dioxide

> <PUBCHEM_IUPAC_TRADITIONAL_NAME>
1'-[2-(2,4-difluorophenyl)ethyl]spiro[3,4-dihydrothiochromene-2,4'-piperidine] 1,1-dioxide

> <PUBCHEM_IUPAC_INCHI>
InChI=1S/C21H23F2NO2S/c22-18-6-5-16(19(23)15-18)8-12-24-13-10-21(11-14-24)9-7-17-3-1-2-4-20(17)27(21,25)26/h1-6,15H,7-14H2

> <PUBCHEM_IUPAC_INCHIKEY>
MWKPULBVVRSUJC-UHFFFAOYSA-N

> <PUBCHEM_XLOGP3_AA>
4.1

> <PUBCHEM_EXACT_MASS>
391.14175647

> <PUBCHEM_MOLECULAR_FORMULA>
C21H23F2NO2S

> <PUBCHEM_MOLECULAR_WEIGHT>
391.5

> <PUBCHEM_OPENEYE_CAN_SMILES>
C1CC2(CCN(CC2)CCC3=C(C=C(C=C3)F)F)S(=O)(=O)C4=CC=CC=C41

> <PUBCHEM_OPENEYE_ISO_SMILES>
C1CC2(CCN(CC2)CCC3=C(C=C(C=C3)F)F)S(=O)(=O)C4=CC=CC=C41

> <PUBCHEM_CACTVS_TPSA>
45.8

> <PUBCHEM_MONOISOTOPIC_WEIGHT>
391.14175647

> <PUBCHEM_TOTAL_CHARGE>
0

> <PUBCHEM_HEAVY_ATOM_COUNT>
27

> <PUBCHEM_ATOM_DEF_STEREO_COUNT>
0

> <PUBCHEM_ATOM_UDEF_STEREO_COUNT>
0

> <PUBCHEM_BOND_DEF_STEREO_COUNT>
0

> <PUBCHEM_BOND_UDEF_STEREO_COUNT>
0

> <PUBCHEM_ISOTOPIC_ATOM_COUNT>
0

> <PUBCHEM_COMPONENT_COUNT>
1

> <PUBCHEM_CACTVS_TAUTO_COUNT>
-1

> <PUBCHEM_COORDINATE_TYPE>
1
5
255

> <PUBCHEM_BONDANNOTATIONS>
14  15  8
14  17  8
15  18  8
17  20  8
18  21  8
20  21  8
22  23  8
22  24  8
23  25  8
24  26  8
25  27  8
26  27  8

$$$$
