44582491
  -OEChem-09292322232D

 60 63  0     0  0  0  0  0  0999 V2000
   11.3662   -0.5532    0.0000 O   0  0  0  0  0  0  0  0  0  0  0  0
    3.7195   -1.8869    0.0000 O   0  0  0  0  0  0  0  0  0  0  0  0
    6.9442   -0.6213    0.0000 N   0  0  0  0  0  0  0  0  0  0  0  0
    4.9665   -0.3232    0.0000 N   0  0  0  0  0  0  0  0  0  0  0  0
   10.1688    0.6443    0.0000 N   0  0  0  0  0  0  0  0  0  0  0  0
    6.5788    0.3096    0.0000 C   0  0  0  0  0  0  0  0  0  0  0  0
    6.3207   -1.4031    0.0000 C   0  0  0  0  0  0  0  0  0  0  0  0
    7.9330   -0.7704    0.0000 C   0  0  0  0  0  0  0  0  0  0  0  0
    5.5900    0.4586    0.0000 C   0  0  0  0  0  0  0  0  0  0  0  0
    5.3318   -1.2541    0.0000 C   0  0  0  0  0  0  0  0  0  0  0  0
    8.5565    0.0115    0.0000 C   0  0  0  0  0  0  0  0  0  0  0  0
    9.5453   -0.1376    0.0000 C   0  0  0  0  0  0  0  0  0  0  0  0
    9.7349    1.5452    0.0000 C   0  0  0  0  0  0  0  0  0  0  0  0
    3.9777   -0.1742    0.0000 C   0  0  0  0  0  0  0  0  0  0  0  0
   10.1688    2.4462    0.0000 C   0  0  0  0  0  0  0  0  0  0  0  0
   11.1437    2.6687    0.0000 C   0  0  0  0  0  0  0  0  0  0  0  0
   11.1437    0.4217    0.0000 C   0  0  0  0  0  0  0  0  0  0  0  0
   11.9256    2.0452    0.0000 C   0  0  0  0  0  0  0  0  0  0  0  0
   11.9256    1.0452    0.0000 C   0  0  0  0  0  0  0  0  0  0  0  0
    3.3542   -0.9560    0.0000 C   0  0  0  0  0  0  0  0  0  0  0  0
    3.6123    0.7567    0.0000 C   0  0  0  0  0  0  0  0  0  0  0  0
   12.8195    2.5799    0.0000 C   0  0  0  0  0  0  0  0  0  0  0  0
   12.8195    0.5106    0.0000 C   0  0  0  0  0  0  0  0  0  0  0  0
    2.3653   -0.8070    0.0000 C   0  0  0  0  0  0  0  0  0  0  0  0
    2.6235    0.9057    0.0000 C   0  0  0  0  0  0  0  0  0  0  0  0
   13.7256    2.0660    0.0000 C   0  0  0  0  0  0  0  0  0  0  0  0
   13.7256    1.0244    0.0000 C   0  0  0  0  0  0  0  0  0  0  0  0
    2.0000    0.1239    0.0000 C   0  0  0  0  0  0  0  0  0  0  0  0
    3.0960   -2.6687    0.0000 C   0  0  0  0  0  0  0  0  0  0  0  0
    7.1865    0.4324    0.0000 H   0  0  0  0  0  0  0  0  0  0  0  0
    6.5634    0.9294    0.0000 H   0  0  0  0  0  0  0  0  0  0  0  0
    6.1232   -1.9909    0.0000 H   0  0  0  0  0  0  0  0  0  0  0  0
    6.8652   -1.6997    0.0000 H   0  0  0  0  0  0  0  0  0  0  0  0
    7.7355   -1.3581    0.0000 H   0  0  0  0  0  0  0  0  0  0  0  0
    8.4775   -1.0669    0.0000 H   0  0  0  0  0  0  0  0  0  0  0  0
    5.7874    1.0463    0.0000 H   0  0  0  0  0  0  0  0  0  0  0  0
    5.0455    0.7551    0.0000 H   0  0  0  0  0  0  0  0  0  0  0  0
    4.7241   -1.3769    0.0000 H   0  0  0  0  0  0  0  0  0  0  0  0
    5.3473   -1.8739    0.0000 H   0  0  0  0  0  0  0  0  0  0  0  0
    8.7539    0.5992    0.0000 H   0  0  0  0  0  0  0  0  0  0  0  0
    8.0120    0.3080    0.0000 H   0  0  0  0  0  0  0  0  0  0  0  0
    9.3478   -0.7253    0.0000 H   0  0  0  0  0  0  0  0  0  0  0  0
   10.0898   -0.4341    0.0000 H   0  0  0  0  0  0  0  0  0  0  0  0
    9.2502    1.9318    0.0000 H   0  0  0  0  0  0  0  0  0  0  0  0
    9.2502    1.1587    0.0000 H   0  0  0  0  0  0  0  0  0  0  0  0
   10.1688    3.0662    0.0000 H   0  0  0  0  0  0  0  0  0  0  0  0
    9.5643    2.5842    0.0000 H   0  0  0  0  0  0  0  0  0  0  0  0
   11.6285    3.0553    0.0000 H   0  0  0  0  0  0  0  0  0  0  0  0
   10.8747    3.2273    0.0000 H   0  0  0  0  0  0  0  0  0  0  0  0
    3.9989    1.2414    0.0000 H   0  0  0  0  0  0  0  0  0  0  0  0
   12.8123    3.1998    0.0000 H   0  0  0  0  0  0  0  0  0  0  0  0
   12.8123   -0.1094    0.0000 H   0  0  0  0  0  0  0  0  0  0  0  0
    1.9788   -1.2917    0.0000 H   0  0  0  0  0  0  0  0  0  0  0  0
    2.3970    1.4829    0.0000 H   0  0  0  0  0  0  0  0  0  0  0  0
   14.2613    2.3781    0.0000 H   0  0  0  0  0  0  0  0  0  0  0  0
   14.2613    0.7124    0.0000 H   0  0  0  0  0  0  0  0  0  0  0  0
    1.3869    0.2163    0.0000 H   0  0  0  0  0  0  0  0  0  0  0  0
    2.6113   -2.2822    0.0000 H   0  0  0  0  0  0  0  0  0  0  0  0
    2.7095   -3.1535    0.0000 H   0  0  0  0  0  0  0  0  0  0  0  0
    3.5808   -3.0553    0.0000 H   0  0  0  0  0  0  0  0  0  0  0  0
  1 17  2  0  0  0  0
  2 20  1  0  0  0  0
  2 29  1  0  0  0  0
  3  6  1  0  0  0  0
  3  7  1  0  0  0  0
  3  8  1  0  0  0  0
  4  9  1  0  0  0  0
  4 10  1  0  0  0  0
  4 14  1  0  0  0  0
  5 12  1  0  0  0  0
  5 13  1  0  0  0  0
  5 17  1  0  0  0  0
  6  9  1  0  0  0  0
  6 30  1  0  0  0  0
  6 31  1  0  0  0  0
  7 10  1  0  0  0  0
  7 32  1  0  0  0  0
  7 33  1  0  0  0  0
  8 11  1  0  0  0  0
  8 34  1  0  0  0  0
  8 35  1  0  0  0  0
  9 36  1  0  0  0  0
  9 37  1  0  0  0  0
 10 38  1  0  0  0  0
 10 39  1  0  0  0  0
 11 12  1  0  0  0  0
 11 40  1  0  0  0  0
 11 41  1  0  0  0  0
 12 42  1  0  0  0  0
 12 43  1  0  0  0  0
 13 15  1  0  0  0  0
 13 44  1  0  0  0  0
 13 45  1  0  0  0  0
 14 20  1  0  0  0  0
 14 21  2  0  0  0  0
 15 16  1  0  0  0  0
 15 46  1  0  0  0  0
 15 47  1  0  0  0  0
 16 18  1  0  0  0  0
 16 48  1  0  0  0  0
 16 49  1  0  0  0  0
 17 19  1  0  0  0  0
 18 19  1  0  0  0  0
 18 22  2  0  0  0  0
 19 23  2  0  0  0  0
 20 24  2  0  0  0  0
 21 25  1  0  0  0  0
 21 50  1  0  0  0  0
 22 26  1  0  0  0  0
 22 51  1  0  0  0  0
 23 27  1  0  0  0  0
 23 52  1  0  0  0  0
 24 28  1  0  0  0  0
 24 53  1  0  0  0  0
 25 28  2  0  0  0  0
 25 54  1  0  0  0  0
 26 27  2  0  0  0  0
 26 55  1  0  0  0  0
 27 56  1  0  0  0  0
 28 57  1  0  0  0  0
 29 58  1  0  0  0  0
 29 59  1  0  0  0  0
 29 60  1  0  0  0  0
M  END
> <PUBCHEM_COMPOUND_CID>
44582491

> <PUBCHEM_COMPOUND_CANONICALIZED>
1

> <PUBCHEM_CACTVS_COMPLEXITY>
520

> <PUBCHEM_CACTVS_HBOND_ACCEPTOR>
4

> <PUBCHEM_CACTVS_HBOND_DONOR>
0

> <PUBCHEM_CACTVS_ROTATABLE_BOND>
6

> <PUBCHEM_CACTVS_SUBSKEYS>
AAADceB7MAAAAAAAAAAAAAAAAAAAAAAAAAA8YIAABYAAAAABQAAAHgAAAAAADAzBmAYyxoMABACIAiVSUACCCAAlIgAIiAEPbMgOZjLE9ZuVMShkxhHY6YeYyICOgAAAAAAQEAAAAAAAACAgAAAAAAAAAA==

> <PUBCHEM_IUPAC_OPENEYE_NAME>
2-[3-[4-(2-methoxyphenyl)piperazin-1-yl]propyl]-4,5-dihydro-3H-2-benzazepin-1-one

> <PUBCHEM_IUPAC_CAS_NAME>
2-[3-[4-(2-methoxyphenyl)-1-piperazinyl]propyl]-4,5-dihydro-3H-2-benzazepin-1-one

> <PUBCHEM_IUPAC_NAME_MARKUP>
2-[3-[4-(2-methoxyphenyl)piperazin-1-yl]propyl]-4,5-dihydro-3<I>H</I>-2-benzazepin-1-one

> <PUBCHEM_IUPAC_NAME>
2-[3-[4-(2-methoxyphenyl)piperazin-1-yl]propyl]-4,5-dihydro-3H-2-benzazepin-1-one

> <PUBCHEM_IUPAC_SYSTEMATIC_NAME>
2-[3-[4-(2-methoxyphenyl)piperazin-1-yl]propyl]-4,5-dihydro-3H-2-benzazepin-1-one

> <PUBCHEM_IUPAC_TRADITIONAL_NAME>
2-[3-[4-(2-methoxyphenyl)piperazino]propyl]-4,5-dihydro-3H-2-benzazepin-1-one

> <PUBCHEM_IUPAC_INCHI>
InChI=1S/C24H31N3O2/c1-29-23-12-5-4-11-22(23)26-18-16-25(17-19-26)13-7-15-27-14-6-9-20-8-2-3-10-21(20)24(27)28/h2-5,8,10-12H,6-7,9,13-19H2,1H3

> <PUBCHEM_IUPAC_INCHIKEY>
BKLNFYXUBNZNOT-UHFFFAOYSA-N

> <PUBCHEM_XLOGP3_AA>
3.7

> <PUBCHEM_EXACT_MASS>
393.24162724

> <PUBCHEM_MOLECULAR_FORMULA>
C24H31N3O2

> <PUBCHEM_MOLECULAR_WEIGHT>
393.5

> <PUBCHEM_OPENEYE_CAN_SMILES>
COC1=CC=CC=C1N2CCN(CC2)CCCN3CCCC4=CC=CC=C4C3=O

> <PUBCHEM_OPENEYE_ISO_SMILES>
COC1=CC=CC=C1N2CCN(CC2)CCCN3CCCC4=CC=CC=C4C3=O

> <PUBCHEM_CACTVS_TPSA>
36

> <PUBCHEM_MONOISOTOPIC_WEIGHT>
393.24162724

> <PUBCHEM_TOTAL_CHARGE>
0

> <PUBCHEM_HEAVY_ATOM_COUNT>
29

> <PUBCHEM_ATOM_DEF_STEREO_COUNT>
0

> <PUBCHEM_ATOM_UDEF_STEREO_COUNT>
0

> <PUBCHEM_BOND_DEF_STEREO_COUNT>
0

> <PUBCHEM_BOND_UDEF_STEREO_COUNT>
0

> <PUBCHEM_ISOTOPIC_ATOM_COUNT>
0

> <PUBCHEM_COMPONENT_COUNT>
1

> <PUBCHEM_CACTVS_TAUTO_COUNT>
-1

> <PUBCHEM_COORDINATE_TYPE>
1
5
255

> <PUBCHEM_BONDANNOTATIONS>
14  20  8
14  21  8
18  19  8
18  22  8
19  23  8
20  24  8
21  25  8
22  26  8
23  27  8
24  28  8
25  28  8
26  27  8

$$$$
