53248347
  -OEChem-09292322312D

 72 75  0     1  0  0  0  0  0999 V2000
    2.8660    0.0000    0.0000 O   0  0  0  0  0  0  0  0  0  0  0  0
    6.3301    0.0000    0.0000 N   0  0  0  0  0  0  0  0  0  0  0  0
    4.5981   -1.0000    0.0000 N   0  0  0  0  0  0  0  0  0  0  0  0
   10.6603    0.5000    0.0000 N   0  0  3  0  0  0  0  0  0  0  0  0
    5.4641    0.5000    0.0000 C   0  0  0  0  0  0  0  0  0  0  0  0
    6.3301   -1.0000    0.0000 C   0  0  0  0  0  0  0  0  0  0  0  0
    7.1962    0.5000    0.0000 C   0  0  0  0  0  0  0  0  0  0  0  0
    4.5981    0.0000    0.0000 C   0  0  0  0  0  0  0  0  0  0  0  0
    5.4641   -1.5000    0.0000 C   0  0  0  0  0  0  0  0  0  0  0  0
    8.0622   -0.0000    0.0000 C   0  0  0  0  0  0  0  0  0  0  0  0
    8.9282    0.5000    0.0000 C   0  0  0  0  0  0  0  0  0  0  0  0
    9.7942   -0.0000    0.0000 C   0  0  0  0  0  0  0  0  0  0  0  0
    3.7320   -1.5000    0.0000 C   0  0  0  0  0  0  0  0  0  0  0  0
   10.6603    1.5000    0.0000 C   0  0  0  0  0  0  0  0  0  0  0  0
   11.5263   -0.0000    0.0000 C   0  0  0  0  0  0  0  0  0  0  0  0
    2.8660   -1.0000    0.0000 C   0  0  0  0  0  0  0  0  0  0  0  0
    3.7320   -2.5000    0.0000 C   0  0  0  0  0  0  0  0  0  0  0  0
    9.7942    2.0000    0.0000 C   0  0  0  0  0  0  0  0  0  0  0  0
   12.3923    0.5000    0.0000 C   0  0  0  0  0  0  0  0  0  0  0  0
    2.0000   -1.5000    0.0000 C   0  0  0  0  0  0  0  0  0  0  0  0
    2.8660   -3.0000    0.0000 C   0  0  0  0  0  0  0  0  0  0  0  0
   13.2583   -0.0000    0.0000 C   0  0  0  0  0  0  0  0  0  0  0  0
    9.7942    3.0000    0.0000 C   0  0  0  0  0  0  0  0  0  0  0  0
   12.3923    1.5000    0.0000 C   0  0  0  0  0  0  0  0  0  0  0  0
    2.0000   -2.5000    0.0000 C   0  0  0  0  0  0  0  0  0  0  0  0
   14.1244    0.5000    0.0000 C   0  0  0  0  0  0  0  0  0  0  0  0
   14.1244    1.5000    0.0000 C   0  0  0  0  0  0  0  0  0  0  0  0
   13.2583    2.0000    0.0000 C   0  0  0  0  0  0  0  0  0  0  0  0
   15.0183   -0.0347    0.0000 C   0  0  0  0  0  0  0  0  0  0  0  0
    2.0000    0.5000    0.0000 C   0  0  0  0  0  0  0  0  0  0  0  0
   15.0183    2.0347    0.0000 C   0  0  0  0  0  0  0  0  0  0  0  0
   15.9244    0.4792    0.0000 C   0  0  0  0  0  0  0  0  0  0  0  0
   15.9244    1.5208    0.0000 C   0  0  0  0  0  0  0  0  0  0  0  0
    5.8626    0.9749    0.0000 H   0  0  0  0  0  0  0  0  0  0  0  0
    5.0656    0.9749    0.0000 H   0  0  0  0  0  0  0  0  0  0  0  0
    6.5422   -1.5826    0.0000 H   0  0  0  0  0  0  0  0  0  0  0  0
    6.9407   -0.8923    0.0000 H   0  0  0  0  0  0  0  0  0  0  0  0
    7.5947    0.9749    0.0000 H   0  0  0  0  0  0  0  0  0  0  0  0
    6.7976    0.9749    0.0000 H   0  0  0  0  0  0  0  0  0  0  0  0
    4.3860    0.5826    0.0000 H   0  0  0  0  0  0  0  0  0  0  0  0
    3.9875   -0.1077    0.0000 H   0  0  0  0  0  0  0  0  0  0  0  0
    5.0656   -1.9750    0.0000 H   0  0  0  0  0  0  0  0  0  0  0  0
    5.8626   -1.9750    0.0000 H   0  0  0  0  0  0  0  0  0  0  0  0
    7.6636   -0.4749    0.0000 H   0  0  0  0  0  0  0  0  0  0  0  0
    8.4607   -0.4749    0.0000 H   0  0  0  0  0  0  0  0  0  0  0  0
    9.3267    0.9749    0.0000 H   0  0  0  0  0  0  0  0  0  0  0  0
    8.5297    0.9749    0.0000 H   0  0  0  0  0  0  0  0  0  0  0  0
    9.3957   -0.4749    0.0000 H   0  0  0  0  0  0  0  0  0  0  0  0
   10.1928   -0.4749    0.0000 H   0  0  0  0  0  0  0  0  0  0  0  0
   11.2708    1.3923    0.0000 H   0  0  0  0  0  0  0  0  0  0  0  0
   10.8723    2.0826    0.0000 H   0  0  0  0  0  0  0  0  0  0  0  0
   11.1278   -0.4749    0.0000 H   0  0  0  0  0  0  0  0  0  0  0  0
   11.9248   -0.4749    0.0000 H   0  0  0  0  0  0  0  0  0  0  0  0
    4.2690   -2.8100    0.0000 H   0  0  0  0  0  0  0  0  0  0  0  0
    9.1836    2.1077    0.0000 H   0  0  0  0  0  0  0  0  0  0  0  0
    9.5822    1.4174    0.0000 H   0  0  0  0  0  0  0  0  0  0  0  0
    1.4631   -1.1900    0.0000 H   0  0  0  0  0  0  0  0  0  0  0  0
    2.8660   -3.6200    0.0000 H   0  0  0  0  0  0  0  0  0  0  0  0
   13.2583   -0.6200    0.0000 H   0  0  0  0  0  0  0  0  0  0  0  0
   10.4142    3.0000    0.0000 H   0  0  0  0  0  0  0  0  0  0  0  0
    9.7942    3.6200    0.0000 H   0  0  0  0  0  0  0  0  0  0  0  0
    9.1742    3.0000    0.0000 H   0  0  0  0  0  0  0  0  0  0  0  0
   11.8554    1.8100    0.0000 H   0  0  0  0  0  0  0  0  0  0  0  0
    1.4631   -2.8100    0.0000 H   0  0  0  0  0  0  0  0  0  0  0  0
   13.2583    2.6200    0.0000 H   0  0  0  0  0  0  0  0  0  0  0  0
   15.0111   -0.6546    0.0000 H   0  0  0  0  0  0  0  0  0  0  0  0
   15.0111    2.6546    0.0000 H   0  0  0  0  0  0  0  0  0  0  0  0
    2.3100    1.0369    0.0000 H   0  0  0  0  0  0  0  0  0  0  0  0
    1.4631    0.8100    0.0000 H   0  0  0  0  0  0  0  0  0  0  0  0
    1.6900   -0.0369    0.0000 H   0  0  0  0  0  0  0  0  0  0  0  0
   16.4601    0.1671    0.0000 H   0  0  0  0  0  0  0  0  0  0  0  0
   16.4601    1.8329    0.0000 H   0  0  0  0  0  0  0  0  0  0  0  0
  1 16  1  0  0  0  0
  1 30  1  0  0  0  0
  2  5  1  0  0  0  0
  2  6  1  0  0  0  0
  2  7  1  0  0  0  0
  3  8  1  0  0  0  0
  3  9  1  0  0  0  0
  3 13  1  0  0  0  0
  4 12  1  0  0  0  0
  4 14  1  0  0  0  0
  4 15  1  0  0  0  0
  5  8  1  0  0  0  0
  5 34  1  0  0  0  0
  5 35  1  0  0  0  0
  6  9  1  0  0  0  0
  6 36  1  0  0  0  0
  6 37  1  0  0  0  0
  7 10  1  0  0  0  0
  7 38  1  0  0  0  0
  7 39  1  0  0  0  0
  8 40  1  0  0  0  0
  8 41  1  0  0  0  0
  9 42  1  0  0  0  0
  9 43  1  0  0  0  0
 10 11  1  0  0  0  0
 10 44  1  0  0  0  0
 10 45  1  0  0  0  0
 11 12  1  0  0  0  0
 11 46  1  0  0  0  0
 11 47  1  0  0  0  0
 12 48  1  0  0  0  0
 12 49  1  0  0  0  0
 13 16  1  0  0  0  0
 13 17  2  0  0  0  0
 14 18  1  0  0  0  0
 14 50  1  0  0  0  0
 14 51  1  0  0  0  0
 15 19  1  0  0  0  0
 15 52  1  0  0  0  0
 15 53  1  0  0  0  0
 16 20  2  0  0  0  0
 17 21  1  0  0  0  0
 17 54  1  0  0  0  0
 18 23  1  0  0  0  0
 18 55  1  0  0  0  0
 18 56  1  0  0  0  0
 19 22  2  0  0  0  0
 19 24  1  0  0  0  0
 20 25  1  0  0  0  0
 20 57  1  0  0  0  0
 21 25  2  0  0  0  0
 21 58  1  0  0  0  0
 22 26  1  0  0  0  0
 22 59  1  0  0  0  0
 23 60  1  0  0  0  0
 23 61  1  0  0  0  0
 23 62  1  0  0  0  0
 24 28  2  0  0  0  0
 24 63  1  0  0  0  0
 25 64  1  0  0  0  0
 26 27  1  0  0  0  0
 26 29  2  0  0  0  0
 27 28  1  0  0  0  0
 27 31  2  0  0  0  0
 28 65  1  0  0  0  0
 29 32  1  0  0  0  0
 29 66  1  0  0  0  0
 30 68  1  0  0  0  0
 30 69  1  0  0  0  0
 30 70  1  0  0  0  0
 31 33  1  0  0  0  0
 31 67  1  0  0  0  0
 32 33  2  0  0  0  0
 32 71  1  0  0  0  0
 33 72  1  0  0  0  0
M  END
> <PUBCHEM_COMPOUND_CID>
53248347

> <PUBCHEM_COMPOUND_CANONICALIZED>
1

> <PUBCHEM_CACTVS_COMPLEXITY>
535

> <PUBCHEM_CACTVS_HBOND_ACCEPTOR>
4

> <PUBCHEM_CACTVS_HBOND_DONOR>
0

> <PUBCHEM_CACTVS_ROTATABLE_BOND>
11

> <PUBCHEM_CACTVS_SUBSKEYS>
AAADcfB7IAAAAAAAAAAAAAAAAAAAAAAAAAA8YMEAAAAAAADBVAAAHgAAAAAADAzBmAYyxsMABACAAiRCQACCCAAhIgAIiAAPbIgOZiLEsZuVMChkwBHY6AeQwMAOwAACAAAQEACAAAQAACAgAAAAAAAAAA==

> <PUBCHEM_IUPAC_OPENEYE_NAME>
4-[4-(2-methoxyphenyl)piperazin-1-yl]-N-(2-naphthylmethyl)-N-propyl-butan-1-amine

> <PUBCHEM_IUPAC_CAS_NAME>
4-[4-(2-methoxyphenyl)-1-piperazinyl]-N-(2-naphthalenylmethyl)-N-propyl-1-butanamine

> <PUBCHEM_IUPAC_NAME_MARKUP>
4-[4-(2-methoxyphenyl)piperazin-1-yl]-<I>N</I>-(naphthalen-2-ylmethyl)-<I>N</I>-propylbutan-1-amine

> <PUBCHEM_IUPAC_NAME>
4-[4-(2-methoxyphenyl)piperazin-1-yl]-N-(naphthalen-2-ylmethyl)-N-propylbutan-1-amine

> <PUBCHEM_IUPAC_SYSTEMATIC_NAME>
4-[4-(2-methoxyphenyl)piperazin-1-yl]-N-(naphthalen-2-ylmethyl)-N-propyl-butan-1-amine

> <PUBCHEM_IUPAC_TRADITIONAL_NAME>
4-[4-(2-methoxyphenyl)piperazino]butyl-(2-naphthylmethyl)-propyl-amine

> <PUBCHEM_IUPAC_INCHI>
InChI=1S/C29H39N3O/c1-3-16-31(24-25-14-15-26-10-4-5-11-27(26)23-25)18-9-8-17-30-19-21-32(22-20-30)28-12-6-7-13-29(28)33-2/h4-7,10-15,23H,3,8-9,16-22,24H2,1-2H3

> <PUBCHEM_IUPAC_INCHIKEY>
PLFUSXITMGZVCU-UHFFFAOYSA-N

> <PUBCHEM_XLOGP3_AA>
6.2

> <PUBCHEM_EXACT_MASS>
445.309312876

> <PUBCHEM_MOLECULAR_FORMULA>
C29H39N3O

> <PUBCHEM_MOLECULAR_WEIGHT>
445.6

> <PUBCHEM_OPENEYE_CAN_SMILES>
CCCN(CCCCN1CCN(CC1)C2=CC=CC=C2OC)CC3=CC4=CC=CC=C4C=C3

> <PUBCHEM_OPENEYE_ISO_SMILES>
CCCN(CCCCN1CCN(CC1)C2=CC=CC=C2OC)CC3=CC4=CC=CC=C4C=C3

> <PUBCHEM_CACTVS_TPSA>
19

> <PUBCHEM_MONOISOTOPIC_WEIGHT>
445.309312876

> <PUBCHEM_TOTAL_CHARGE>
0

> <PUBCHEM_HEAVY_ATOM_COUNT>
33

> <PUBCHEM_ATOM_DEF_STEREO_COUNT>
0

> <PUBCHEM_ATOM_UDEF_STEREO_COUNT>
0

> <PUBCHEM_BOND_DEF_STEREO_COUNT>
0

> <PUBCHEM_BOND_UDEF_STEREO_COUNT>
0

> <PUBCHEM_ISOTOPIC_ATOM_COUNT>
0

> <PUBCHEM_COMPONENT_COUNT>
1

> <PUBCHEM_CACTVS_TAUTO_COUNT>
-1

> <PUBCHEM_COORDINATE_TYPE>
1
5
255

> <PUBCHEM_BONDANNOTATIONS>
13  16  8
13  17  8
16  20  8
17  21  8
19  22  8
19  24  8
20  25  8
21  25  8
22  26  8
24  28  8
26  27  8
26  29  8
27  28  8
27  31  8
29  32  8
31  33  8
32  33  8

$$$$
