44274174
  -OEChem-09292322202D

 67 70  0     1  0  0  0  0  0999 V2000
    8.5752   -2.9130    0.0000 S   0  0  0  0  0  0  0  0  0  0  0  0
    9.5090    0.9765    0.0000 O   0  0  0  0  0  0  0  0  0  0  0  0
    9.5476   -3.1464    0.0000 O   0  0  0  0  0  0  0  0  0  0  0  0
    7.6028   -2.6795    0.0000 O   0  0  0  0  0  0  0  0  0  0  0  0
    4.7568    2.1595    0.0000 N   0  0  3  0  0  0  0  0  0  0  0  0
    6.6081    0.2263    0.0000 N   0  0  0  0  0  0  0  0  0  0  0  0
    3.7568    2.1595    0.0000 C   0  0  3  0  0  0  0  0  0  0  0  0
    3.0497    2.8666    0.0000 C   0  0  0  0  0  0  0  0  0  0  0  0
    5.4639    2.8666    0.0000 C   0  0  0  0  0  0  0  0  0  0  0  0
    3.0497    3.8666    0.0000 C   0  0  0  0  0  0  0  0  0  0  0  0
    5.4639    3.8666    0.0000 C   0  0  0  0  0  0  0  0  0  0  0  0
    3.7568    4.5737    0.0000 C   0  0  0  0  0  0  0  0  0  0  0  0
    4.7568    4.5737    0.0000 C   0  0  0  0  0  0  0  0  0  0  0  0
    5.1395    1.2356    0.0000 C   0  0  0  0  0  0  0  0  0  0  0  0
    3.3741    1.2356    0.0000 C   0  0  0  0  0  0  0  0  0  0  0  0
    6.1309    1.1051    0.0000 C   0  0  0  0  0  0  0  0  0  0  0  0
    3.9829    0.4422    0.0000 C   0  0  0  0  0  0  0  0  0  0  0  0
    2.3827    1.1051    0.0000 C   0  0  0  0  0  0  0  0  0  0  0  0
    6.8193    1.8304    0.0000 C   0  0  0  0  0  0  0  0  0  0  0  0
    7.5914    0.4085    0.0000 C   0  0  0  0  0  0  0  0  0  0  0  0
    7.7219    1.3999    0.0000 C   0  0  0  0  0  0  0  0  0  0  0  0
    3.6002   -0.4816    0.0000 C   0  0  0  0  0  0  0  0  0  0  0  0
    2.0000    0.1812    0.0000 C   0  0  0  0  0  0  0  0  0  0  0  0
    8.3167   -0.2799    0.0000 C   0  0  0  0  0  0  0  0  0  0  0  0
    2.6088   -0.6122    0.0000 C   0  0  0  0  0  0  0  0  0  0  0  0
    8.0833   -1.2522    0.0000 C   0  0  0  0  0  0  0  0  0  0  0  0
    9.2756    0.0041    0.0000 C   0  0  0  0  0  0  0  0  0  0  0  0
    8.8087   -1.9406    0.0000 C   0  0  0  0  0  0  0  0  0  0  0  0
   10.0009   -0.6842    0.0000 C   0  0  0  0  0  0  0  0  0  0  0  0
    9.7675   -1.6566    0.0000 C   0  0  0  0  0  0  0  0  0  0  0  0
    8.3418   -3.8853    0.0000 C   0  0  0  0  0  0  0  0  0  0  0  0
    9.0671   -4.5737    0.0000 C   0  0  0  0  0  0  0  0  0  0  0  0
   10.4678    1.2605    0.0000 C   0  0  0  0  0  0  0  0  0  0  0  0
    3.1487    2.0385    0.0000 H   0  0  0  0  0  0  0  0  0  0  0  0
    2.4508    3.0270    0.0000 H   0  0  0  0  0  0  0  0  0  0  0  0
    2.7397    2.3296    0.0000 H   0  0  0  0  0  0  0  0  0  0  0  0
    5.7739    2.3296    0.0000 H   0  0  0  0  0  0  0  0  0  0  0  0
    6.0628    3.0270    0.0000 H   0  0  0  0  0  0  0  0  0  0  0  0
    2.7397    4.4035    0.0000 H   0  0  0  0  0  0  0  0  0  0  0  0
    2.4508    3.7061    0.0000 H   0  0  0  0  0  0  0  0  0  0  0  0
    6.0628    3.7061    0.0000 H   0  0  0  0  0  0  0  0  0  0  0  0
    5.7739    4.4035    0.0000 H   0  0  0  0  0  0  0  0  0  0  0  0
    3.9173    5.1726    0.0000 H   0  0  0  0  0  0  0  0  0  0  0  0
    3.2199    4.8837    0.0000 H   0  0  0  0  0  0  0  0  0  0  0  0
    5.2938    4.8837    0.0000 H   0  0  0  0  0  0  0  0  0  0  0  0
    4.5963    5.1726    0.0000 H   0  0  0  0  0  0  0  0  0  0  0  0
    4.5342    1.1014    0.0000 H   0  0  0  0  0  0  0  0  0  0  0  0
    5.1665    0.6162    0.0000 H   0  0  0  0  0  0  0  0  0  0  0  0
    4.5976    0.5232    0.0000 H   0  0  0  0  0  0  0  0  0  0  0  0
    2.0053    1.5970    0.0000 H   0  0  0  0  0  0  0  0  0  0  0  0
    6.3412   -0.3334    0.0000 H   0  0  0  0  0  0  0  0  0  0  0  0
    6.7063    2.4401    0.0000 H   0  0  0  0  0  0  0  0  0  0  0  0
    8.2668    1.6958    0.0000 H   0  0  0  0  0  0  0  0  0  0  0  0
    3.9776   -0.9735    0.0000 H   0  0  0  0  0  0  0  0  0  0  0  0
    1.3853    0.1003    0.0000 H   0  0  0  0  0  0  0  0  0  0  0  0
    2.3715   -1.1850    0.0000 H   0  0  0  0  0  0  0  0  0  0  0  0
    7.4888   -1.4283    0.0000 H   0  0  0  0  0  0  0  0  0  0  0  0
   10.5954   -0.5081    0.0000 H   0  0  0  0  0  0  0  0  0  0  0  0
   10.2172   -2.0834    0.0000 H   0  0  0  0  0  0  0  0  0  0  0  0
    7.7732   -3.6381    0.0000 H   0  0  0  0  0  0  0  0  0  0  0  0
    7.9996   -4.4023    0.0000 H   0  0  0  0  0  0  0  0  0  0  0  0
    8.6404   -5.0234    0.0000 H   0  0  0  0  0  0  0  0  0  0  0  0
    9.5169   -5.0005    0.0000 H   0  0  0  0  0  0  0  0  0  0  0  0
    9.4939   -4.1240    0.0000 H   0  0  0  0  0  0  0  0  0  0  0  0
   10.6439    0.6661    0.0000 H   0  0  0  0  0  0  0  0  0  0  0  0
   11.0623    1.4366    0.0000 H   0  0  0  0  0  0  0  0  0  0  0  0
   10.2917    1.8550    0.0000 H   0  0  0  0  0  0  0  0  0  0  0  0
  1  3  2  0  0  0  0
  1  4  2  0  0  0  0
  1 28  1  0  0  0  0
  1 31  1  0  0  0  0
  2 27  1  0  0  0  0
  2 33  1  0  0  0  0
  5  7  1  0  0  0  0
  5  9  1  0  0  0  0
  5 14  1  0  0  0  0
  6 16  1  0  0  0  0
  6 20  1  0  0  0  0
  6 51  1  0  0  0  0
  7  8  1  0  0  0  0
  7 15  1  0  0  0  0
  7 34  1  0  0  0  0
  8 10  1  0  0  0  0
  8 35  1  0  0  0  0
  8 36  1  0  0  0  0
  9 11  1  0  0  0  0
  9 37  1  0  0  0  0
  9 38  1  0  0  0  0
 10 12  1  0  0  0  0
 10 39  1  0  0  0  0
 10 40  1  0  0  0  0
 11 13  1  0  0  0  0
 11 41  1  0  0  0  0
 11 42  1  0  0  0  0
 12 13  1  0  0  0  0
 12 43  1  0  0  0  0
 12 44  1  0  0  0  0
 13 45  1  0  0  0  0
 13 46  1  0  0  0  0
 14 16  1  0  0  0  0
 14 47  1  0  0  0  0
 14 48  1  0  0  0  0
 15 17  2  0  0  0  0
 15 18  1  0  0  0  0
 16 19  2  0  0  0  0
 17 22  1  0  0  0  0
 17 49  1  0  0  0  0
 18 23  2  0  0  0  0
 18 50  1  0  0  0  0
 19 21  1  0  0  0  0
 19 52  1  0  0  0  0
 20 21  2  0  0  0  0
 20 24  1  0  0  0  0
 21 53  1  0  0  0  0
 22 25  2  0  0  0  0
 22 54  1  0  0  0  0
 23 25  1  0  0  0  0
 23 55  1  0  0  0  0
 24 26  1  0  0  0  0
 24 27  2  0  0  0  0
 25 56  1  0  0  0  0
 26 28  2  0  0  0  0
 26 57  1  0  0  0  0
 27 29  1  0  0  0  0
 28 30  1  0  0  0  0
 29 30  2  0  0  0  0
 29 58  1  0  0  0  0
 30 59  1  0  0  0  0
 31 32  1  0  0  0  0
 31 60  1  0  0  0  0
 31 61  1  0  0  0  0
 32 62  1  0  0  0  0
 32 63  1  0  0  0  0
 32 64  1  0  0  0  0
 33 65  1  0  0  0  0
 33 66  1  0  0  0  0
 33 67  1  0  0  0  0
M  END
> <PUBCHEM_COMPOUND_CID>
44274174

> <PUBCHEM_COMPOUND_CANONICALIZED>
1

> <PUBCHEM_CACTVS_COMPLEXITY>
688

> <PUBCHEM_CACTVS_HBOND_ACCEPTOR>
4

> <PUBCHEM_CACTVS_HBOND_DONOR>
1

> <PUBCHEM_CACTVS_ROTATABLE_BOND>
7

> <PUBCHEM_CACTVS_SUBSKEYS>
AAADcfB7MABAAAAAAAAAAAAAAAAAAWAAAAAwYAAAAAAWAAAB0AAAHgQQAAAADCzF3gayh5PJlAqgAyRiRHDCiCAhKjAImTg+bJgMZuLksZuUMChm0BHo6AeQwOAOAIAAgAAIAAABAAEAABAAAAAAAAAAAA==

> <PUBCHEM_IUPAC_OPENEYE_NAME>
1-[[5-(5-ethylsulfonyl-2-methoxy-phenyl)-1H-pyrrol-2-yl]methyl]-2-phenyl-azocane

> <PUBCHEM_IUPAC_CAS_NAME>
1-[[5-(5-ethylsulfonyl-2-methoxyphenyl)-1H-pyrrol-2-yl]methyl]-2-phenylazocane

> <PUBCHEM_IUPAC_NAME_MARKUP>
1-[[5-(5-ethylsulfonyl-2-methoxyphenyl)-1<I>H</I>-pyrrol-2-yl]methyl]-2-phenylazocane

> <PUBCHEM_IUPAC_NAME>
1-[[5-(5-ethylsulfonyl-2-methoxyphenyl)-1H-pyrrol-2-yl]methyl]-2-phenylazocane

> <PUBCHEM_IUPAC_SYSTEMATIC_NAME>
1-[[5-(5-ethylsulfonyl-2-methoxy-phenyl)-1H-pyrrol-2-yl]methyl]-2-phenyl-azocane

> <PUBCHEM_IUPAC_TRADITIONAL_NAME>
1-[[5-(5-esyl-2-methoxy-phenyl)-1H-pyrrol-2-yl]methyl]-2-phenyl-azocane

> <PUBCHEM_IUPAC_INCHI>
InChI=1S/C27H34N2O3S/c1-3-33(30,31)23-15-17-27(32-2)24(19-23)25-16-14-22(28-25)20-29-18-10-5-4-9-13-26(29)21-11-7-6-8-12-21/h6-8,11-12,14-17,19,26,28H,3-5,9-10,13,18,20H2,1-2H3

> <PUBCHEM_IUPAC_INCHIKEY>
QIKNEDWYBRZNKC-UHFFFAOYSA-N

> <PUBCHEM_XLOGP3_AA>
5.1

> <PUBCHEM_EXACT_MASS>
466.22901412

> <PUBCHEM_MOLECULAR_FORMULA>
C27H34N2O3S

> <PUBCHEM_MOLECULAR_WEIGHT>
466.6

> <PUBCHEM_OPENEYE_CAN_SMILES>
CCS(=O)(=O)C1=CC(=C(C=C1)OC)C2=CC=C(N2)CN3CCCCCCC3C4=CC=CC=C4

> <PUBCHEM_OPENEYE_ISO_SMILES>
CCS(=O)(=O)C1=CC(=C(C=C1)OC)C2=CC=C(N2)CN3CCCCCCC3C4=CC=CC=C4

> <PUBCHEM_CACTVS_TPSA>
70.8

> <PUBCHEM_MONOISOTOPIC_WEIGHT>
466.22901412

> <PUBCHEM_TOTAL_CHARGE>
0

> <PUBCHEM_HEAVY_ATOM_COUNT>
33

> <PUBCHEM_ATOM_DEF_STEREO_COUNT>
0

> <PUBCHEM_ATOM_UDEF_STEREO_COUNT>
1

> <PUBCHEM_BOND_DEF_STEREO_COUNT>
0

> <PUBCHEM_BOND_UDEF_STEREO_COUNT>
0

> <PUBCHEM_ISOTOPIC_ATOM_COUNT>
0

> <PUBCHEM_COMPONENT_COUNT>
1

> <PUBCHEM_CACTVS_TAUTO_COUNT>
-1

> <PUBCHEM_COORDINATE_TYPE>
1
5
255

> <PUBCHEM_BONDANNOTATIONS>
15  17  8
15  18  8
16  19  8
17  22  8
18  23  8
19  21  8
20  21  8
22  25  8
23  25  8
24  26  8
24  27  8
26  28  8
27  29  8
28  30  8
29  30  8
6  16  8
6  20  8
7  15  3

$$$$
