44404396
  -OEChem-09292322502D

 61 64  0     0  0  0  0  0  0999 V2000
    8.9282   -5.2500    0.0000 F   0  0  0  0  0  0  0  0  0  0  0  0
    2.8660    1.2500    0.0000 O   0  0  0  0  0  0  0  0  0  0  0  0
    5.4641   -2.2500    0.0000 O   0  0  0  0  0  0  0  0  0  0  0  0
    4.5981    2.2500    0.0000 N   0  0  0  0  0  0  0  0  0  0  0  0
    4.5981    4.2500    0.0000 N   0  0  0  0  0  0  0  0  0  0  0  0
    8.9282   -3.2500    0.0000 N   0  0  0  0  0  0  0  0  0  0  0  0
    7.1962   -2.2500    0.0000 N   0  0  0  0  0  0  0  0  0  0  0  0
    6.3301   -0.7500    0.0000 N   0  0  0  0  0  0  0  0  0  0  0  0
    3.7320    2.7500    0.0000 C   0  0  0  0  0  0  0  0  0  0  0  0
    5.4641    2.7500    0.0000 C   0  0  0  0  0  0  0  0  0  0  0  0
    3.7320    3.7500    0.0000 C   0  0  0  0  0  0  0  0  0  0  0  0
    5.4641    3.7500    0.0000 C   0  0  0  0  0  0  0  0  0  0  0  0
    8.9282   -2.2500    0.0000 C   0  0  0  0  0  0  0  0  0  0  0  0
    8.0622   -3.7500    0.0000 C   0  0  0  0  0  0  0  0  0  0  0  0
    8.0622   -1.7500    0.0000 C   0  0  0  0  0  0  0  0  0  0  0  0
    7.1962   -3.2500    0.0000 C   0  0  0  0  0  0  0  0  0  0  0  0
    4.5981    1.2500    0.0000 C   0  0  0  0  0  0  0  0  0  0  0  0
    4.5981    5.2500    0.0000 C   0  0  0  0  0  0  0  0  0  0  0  0
    9.7942   -3.7500    0.0000 C   0  0  0  0  0  0  0  0  0  0  0  0
    6.3301   -1.7500    0.0000 C   0  0  0  0  0  0  0  0  0  0  0  0
    5.4641    0.7500    0.0000 C   0  0  0  0  0  0  0  0  0  0  0  0
    3.7320    0.7500    0.0000 C   0  0  0  0  0  0  0  0  0  0  0  0
    5.4641   -0.2500    0.0000 C   0  0  0  0  0  0  0  0  0  0  0  0
    3.7320   -0.2500    0.0000 C   0  0  0  0  0  0  0  0  0  0  0  0
    4.5981   -0.7500    0.0000 C   0  0  0  0  0  0  0  0  0  0  0  0
    9.7942   -4.7500    0.0000 C   0  0  0  0  0  0  0  0  0  0  0  0
   10.6603   -3.2500    0.0000 C   0  0  0  0  0  0  0  0  0  0  0  0
   10.6603   -5.2500    0.0000 C   0  0  0  0  0  0  0  0  0  0  0  0
   11.5263   -3.7500    0.0000 C   0  0  0  0  0  0  0  0  0  0  0  0
   11.5263   -4.7500    0.0000 C   0  0  0  0  0  0  0  0  0  0  0  0
    2.0000    0.7500    0.0000 C   0  0  0  0  0  0  0  0  0  0  0  0
    3.1215    2.8577    0.0000 H   0  0  0  0  0  0  0  0  0  0  0  0
    3.5200    2.1674    0.0000 H   0  0  0  0  0  0  0  0  0  0  0  0
    5.6762    2.1674    0.0000 H   0  0  0  0  0  0  0  0  0  0  0  0
    6.0747    2.8577    0.0000 H   0  0  0  0  0  0  0  0  0  0  0  0
    3.5200    4.3326    0.0000 H   0  0  0  0  0  0  0  0  0  0  0  0
    3.1215    3.6423    0.0000 H   0  0  0  0  0  0  0  0  0  0  0  0
    6.0747    3.6423    0.0000 H   0  0  0  0  0  0  0  0  0  0  0  0
    5.6762    4.3326    0.0000 H   0  0  0  0  0  0  0  0  0  0  0  0
    9.5388   -2.3577    0.0000 H   0  0  0  0  0  0  0  0  0  0  0  0
    9.1403   -1.6674    0.0000 H   0  0  0  0  0  0  0  0  0  0  0  0
    7.6636   -4.2250    0.0000 H   0  0  0  0  0  0  0  0  0  0  0  0
    8.4607   -4.2250    0.0000 H   0  0  0  0  0  0  0  0  0  0  0  0
    8.4607   -1.2750    0.0000 H   0  0  0  0  0  0  0  0  0  0  0  0
    7.6636   -1.2750    0.0000 H   0  0  0  0  0  0  0  0  0  0  0  0
    6.5856   -3.1423    0.0000 H   0  0  0  0  0  0  0  0  0  0  0  0
    6.9841   -3.8326    0.0000 H   0  0  0  0  0  0  0  0  0  0  0  0
    5.2181    5.2500    0.0000 H   0  0  0  0  0  0  0  0  0  0  0  0
    4.5981    5.8700    0.0000 H   0  0  0  0  0  0  0  0  0  0  0  0
    3.9781    5.2500    0.0000 H   0  0  0  0  0  0  0  0  0  0  0  0
    6.0010    1.0600    0.0000 H   0  0  0  0  0  0  0  0  0  0  0  0
    6.8671   -0.4400    0.0000 H   0  0  0  0  0  0  0  0  0  0  0  0
    3.1951   -0.5600    0.0000 H   0  0  0  0  0  0  0  0  0  0  0  0
    4.5981   -1.3700    0.0000 H   0  0  0  0  0  0  0  0  0  0  0  0
   10.6603   -2.6300    0.0000 H   0  0  0  0  0  0  0  0  0  0  0  0
   10.6603   -5.8700    0.0000 H   0  0  0  0  0  0  0  0  0  0  0  0
   12.0632   -3.4400    0.0000 H   0  0  0  0  0  0  0  0  0  0  0  0
   12.0632   -5.0600    0.0000 H   0  0  0  0  0  0  0  0  0  0  0  0
    1.6900    1.2869    0.0000 H   0  0  0  0  0  0  0  0  0  0  0  0
    1.4631    0.4400    0.0000 H   0  0  0  0  0  0  0  0  0  0  0  0
    2.3100    0.2131    0.0000 H   0  0  0  0  0  0  0  0  0  0  0  0
  1 26  1  0  0  0  0
  2 22  1  0  0  0  0
  2 31  1  0  0  0  0
  3 20  2  0  0  0  0
  4  9  1  0  0  0  0
  4 10  1  0  0  0  0
  4 17  1  0  0  0  0
  5 11  1  0  0  0  0
  5 12  1  0  0  0  0
  5 18  1  0  0  0  0
  6 13  1  0  0  0  0
  6 14  1  0  0  0  0
  6 19  1  0  0  0  0
  7 15  1  0  0  0  0
  7 16  1  0  0  0  0
  7 20  1  0  0  0  0
  8 20  1  0  0  0  0
  8 23  1  0  0  0  0
  8 52  1  0  0  0  0
  9 11  1  0  0  0  0
  9 32  1  0  0  0  0
  9 33  1  0  0  0  0
 10 12  1  0  0  0  0
 10 34  1  0  0  0  0
 10 35  1  0  0  0  0
 11 36  1  0  0  0  0
 11 37  1  0  0  0  0
 12 38  1  0  0  0  0
 12 39  1  0  0  0  0
 13 15  1  0  0  0  0
 13 40  1  0  0  0  0
 13 41  1  0  0  0  0
 14 16  1  0  0  0  0
 14 42  1  0  0  0  0
 14 43  1  0  0  0  0
 15 44  1  0  0  0  0
 15 45  1  0  0  0  0
 16 46  1  0  0  0  0
 16 47  1  0  0  0  0
 17 21  1  0  0  0  0
 17 22  2  0  0  0  0
 18 48  1  0  0  0  0
 18 49  1  0  0  0  0
 18 50  1  0  0  0  0
 19 26  1  0  0  0  0
 19 27  2  0  0  0  0
 21 23  2  0  0  0  0
 21 51  1  0  0  0  0
 22 24  1  0  0  0  0
 23 25  1  0  0  0  0
 24 25  2  0  0  0  0
 24 53  1  0  0  0  0
 25 54  1  0  0  0  0
 26 28  2  0  0  0  0
 27 29  1  0  0  0  0
 27 55  1  0  0  0  0
 28 30  1  0  0  0  0
 28 56  1  0  0  0  0
 29 30  2  0  0  0  0
 29 57  1  0  0  0  0
 30 58  1  0  0  0  0
 31 59  1  0  0  0  0
 31 60  1  0  0  0  0
 31 61  1  0  0  0  0
M  END
> <PUBCHEM_COMPOUND_CID>
44404396

> <PUBCHEM_COMPOUND_CANONICALIZED>
1

> <PUBCHEM_CACTVS_COMPLEXITY>
580

> <PUBCHEM_CACTVS_HBOND_ACCEPTOR>
6

> <PUBCHEM_CACTVS_HBOND_DONOR>
1

> <PUBCHEM_CACTVS_ROTATABLE_BOND>
4

> <PUBCHEM_CACTVS_SUBSKEYS>
AAADceB7sQAAAAAAAAAAAAAAAAAAAAAAAAA8eIEAAAAAAAABQAAAHwAQAAAACAzBkA4zxoPABACIACRCUACCCAAhIgAIiAAPbIiOZiLE8duVMChs1hPY6CewQAAAAEAAAAQAEAAAgAAACAAgAAAAAAAAAA==

> <PUBCHEM_IUPAC_OPENEYE_NAME>
4-(2-fluorophenyl)-N-[4-methoxy-3-(4-methylpiperazin-1-yl)phenyl]piperazine-1-carboxamide

> <PUBCHEM_IUPAC_CAS_NAME>
4-(2-fluorophenyl)-N-[4-methoxy-3-(4-methyl-1-piperazinyl)phenyl]-1-piperazinecarboxamide

> <PUBCHEM_IUPAC_NAME_MARKUP>
4-(2-fluorophenyl)-<I>N</I>-[4-methoxy-3-(4-methylpiperazin-1-yl)phenyl]piperazine-1-carboxamide

> <PUBCHEM_IUPAC_NAME>
4-(2-fluorophenyl)-N-[4-methoxy-3-(4-methylpiperazin-1-yl)phenyl]piperazine-1-carboxamide

> <PUBCHEM_IUPAC_SYSTEMATIC_NAME>
4-(2-fluorophenyl)-N-[4-methoxy-3-(4-methylpiperazin-1-yl)phenyl]piperazine-1-carboxamide

> <PUBCHEM_IUPAC_TRADITIONAL_NAME>
4-(2-fluorophenyl)-N-[4-methoxy-3-(4-methylpiperazino)phenyl]piperazine-1-carboxamide

> <PUBCHEM_IUPAC_INCHI>
InChI=1S/C23H30FN5O2/c1-26-9-11-28(12-10-26)21-17-18(7-8-22(21)31-2)25-23(30)29-15-13-27(14-16-29)20-6-4-3-5-19(20)24/h3-8,17H,9-16H2,1-2H3,(H,25,30)

> <PUBCHEM_IUPAC_INCHIKEY>
PGAUZNVGTNAJSV-UHFFFAOYSA-N

> <PUBCHEM_XLOGP3_AA>
2.7

> <PUBCHEM_EXACT_MASS>
427.23835338

> <PUBCHEM_MOLECULAR_FORMULA>
C23H30FN5O2

> <PUBCHEM_MOLECULAR_WEIGHT>
427.5

> <PUBCHEM_OPENEYE_CAN_SMILES>
CN1CCN(CC1)C2=C(C=CC(=C2)NC(=O)N3CCN(CC3)C4=CC=CC=C4F)OC

> <PUBCHEM_OPENEYE_ISO_SMILES>
CN1CCN(CC1)C2=C(C=CC(=C2)NC(=O)N3CCN(CC3)C4=CC=CC=C4F)OC

> <PUBCHEM_CACTVS_TPSA>
51.3

> <PUBCHEM_MONOISOTOPIC_WEIGHT>
427.23835338

> <PUBCHEM_TOTAL_CHARGE>
0

> <PUBCHEM_HEAVY_ATOM_COUNT>
31

> <PUBCHEM_ATOM_DEF_STEREO_COUNT>
0

> <PUBCHEM_ATOM_UDEF_STEREO_COUNT>
0

> <PUBCHEM_BOND_DEF_STEREO_COUNT>
0

> <PUBCHEM_BOND_UDEF_STEREO_COUNT>
0

> <PUBCHEM_ISOTOPIC_ATOM_COUNT>
0

> <PUBCHEM_COMPONENT_COUNT>
1

> <PUBCHEM_CACTVS_TAUTO_COUNT>
-1

> <PUBCHEM_COORDINATE_TYPE>
1
5
255

> <PUBCHEM_BONDANNOTATIONS>
17  21  8
17  22  8
19  26  8
19  27  8
21  23  8
22  24  8
23  25  8
24  25  8
26  28  8
27  29  8
28  30  8
29  30  8

$$$$
