44338149
  -OEChem-09292322112D

 75 80  0     1  0  0  0  0  0999 V2000
    8.8230   -6.5406    0.0000 F   0  0  0  0  0  0  0  0  0  0  0  0
    2.0000   -5.3375    0.0000 F   0  0  0  0  0  0  0  0  0  0  0  0
    6.4444    6.5406    0.0000 F   0  0  0  0  0  0  0  0  0  0  0  0
   12.4444    3.0765    0.0000 F   0  0  0  0  0  0  0  0  0  0  0  0
    5.9324   -2.9846    0.0000 O   0  0  0  0  0  0  0  0  0  0  0  0
    7.9444    2.2105    0.0000 O   0  0  0  0  0  0  0  0  0  0  0  0
    8.4444   -0.3876    0.0000 N   0  0  0  0  0  0  0  0  0  0  0  0
    8.9222   -2.3362    0.0000 C   0  0  3  0  0  0  0  0  0  0  0  0
    9.1810   -1.3702    0.0000 C   0  0  3  0  0  0  0  0  0  0  0  0
   10.3211   -2.8450    0.0000 C   0  0  0  0  0  0  0  0  0  0  0  0
   10.5799   -1.8790    0.0000 C   0  0  0  0  0  0  0  0  0  0  0  0
    7.7012   -3.2018    0.0000 C   0  0  0  0  0  0  0  0  0  0  0  0
    7.1478   -1.6814    0.0000 C   0  0  0  0  0  0  0  0  0  0  0  0
    6.8721   -2.6426    0.0000 C   0  0  0  0  0  0  0  0  0  0  0  0
    7.9444    0.4784    0.0000 C   0  0  0  0  0  0  0  0  0  0  0  0
    8.4444    1.3444    0.0000 C   0  0  0  0  0  0  0  0  0  0  0  0
    5.7588   -3.9694    0.0000 C   0  0  0  0  0  0  0  0  0  0  0  0
    6.5248   -4.6122    0.0000 C   0  0  0  0  0  0  0  0  0  0  0  0
    4.8191   -4.3115    0.0000 C   0  0  0  0  0  0  0  0  0  0  0  0
    8.4444    3.0765    0.0000 C   0  0  0  0  0  0  0  0  0  0  0  0
    7.4645   -4.2702    0.0000 C   0  0  0  0  0  0  0  0  0  0  0  0
    4.6454   -5.2963    0.0000 C   0  0  0  0  0  0  0  0  0  0  0  0
    6.3512   -5.5970    0.0000 C   0  0  0  0  0  0  0  0  0  0  0  0
    4.0530   -3.6687    0.0000 C   0  0  0  0  0  0  0  0  0  0  0  0
    7.9444    3.9425    0.0000 C   0  0  0  0  0  0  0  0  0  0  0  0
    9.4444    3.0765    0.0000 C   0  0  0  0  0  0  0  0  0  0  0  0
    8.2305   -4.9130    0.0000 C   0  0  0  0  0  0  0  0  0  0  0  0
    3.7057   -5.6383    0.0000 C   0  0  0  0  0  0  0  0  0  0  0  0
    7.1172   -6.2398    0.0000 C   0  0  0  0  0  0  0  0  0  0  0  0
    3.1133   -4.0107    0.0000 C   0  0  0  0  0  0  0  0  0  0  0  0
    8.0569   -5.8978    0.0000 C   0  0  0  0  0  0  0  0  0  0  0  0
    2.9397   -4.9955    0.0000 C   0  0  0  0  0  0  0  0  0  0  0  0
    8.4444    4.8085    0.0000 C   0  0  0  0  0  0  0  0  0  0  0  0
    9.9444    2.2105    0.0000 C   0  0  0  0  0  0  0  0  0  0  0  0
    6.9444    3.9425    0.0000 C   0  0  0  0  0  0  0  0  0  0  0  0
    9.9444    3.9425    0.0000 C   0  0  0  0  0  0  0  0  0  0  0  0
    7.9444    5.6746    0.0000 C   0  0  0  0  0  0  0  0  0  0  0  0
   10.9444    2.2105    0.0000 C   0  0  0  0  0  0  0  0  0  0  0  0
    6.4444    4.8085    0.0000 C   0  0  0  0  0  0  0  0  0  0  0  0
   10.9444    3.9425    0.0000 C   0  0  0  0  0  0  0  0  0  0  0  0
    6.9444    5.6746    0.0000 C   0  0  0  0  0  0  0  0  0  0  0  0
   11.4444    3.0765    0.0000 C   0  0  0  0  0  0  0  0  0  0  0  0
    9.0050   -2.9506    0.0000 H   0  0  0  0  0  0  0  0  0  0  0  0
    9.5504   -0.8723    0.0000 H   0  0  0  0  0  0  0  0  0  0  0  0
   10.1262   -3.4335    0.0000 H   0  0  0  0  0  0  0  0  0  0  0  0
   10.9151   -3.0227    0.0000 H   0  0  0  0  0  0  0  0  0  0  0  0
   11.1739   -2.0568    0.0000 H   0  0  0  0  0  0  0  0  0  0  0  0
   10.7749   -1.2905    0.0000 H   0  0  0  0  0  0  0  0  0  0  0  0
    7.2953   -3.6705    0.0000 H   0  0  0  0  0  0  0  0  0  0  0  0
    8.1178   -3.6609    0.0000 H   0  0  0  0  0  0  0  0  0  0  0  0
    7.1427   -1.0614    0.0000 H   0  0  0  0  0  0  0  0  0  0  0  0
    6.5334   -1.5976    0.0000 H   0  0  0  0  0  0  0  0  0  0  0  0
    6.7966   -3.2580    0.0000 H   0  0  0  0  0  0  0  0  0  0  0  0
    7.4694    0.8769    0.0000 H   0  0  0  0  0  0  0  0  0  0  0  0
    7.4694    0.0799    0.0000 H   0  0  0  0  0  0  0  0  0  0  0  0
    8.9193    0.9459    0.0000 H   0  0  0  0  0  0  0  0  0  0  0  0
    8.9193    1.7430    0.0000 H   0  0  0  0  0  0  0  0  0  0  0  0
    5.2838   -3.5709    0.0000 H   0  0  0  0  0  0  0  0  0  0  0  0
    7.8244    3.0765    0.0000 H   0  0  0  0  0  0  0  0  0  0  0  0
    7.5722   -3.6596    0.0000 H   0  0  0  0  0  0  0  0  0  0  0  0
    5.1204   -5.6948    0.0000 H   0  0  0  0  0  0  0  0  0  0  0  0
    5.7686   -5.8091    0.0000 H   0  0  0  0  0  0  0  0  0  0  0  0
    4.1607   -3.0581    0.0000 H   0  0  0  0  0  0  0  0  0  0  0  0
    8.8132   -4.7010    0.0000 H   0  0  0  0  0  0  0  0  0  0  0  0
    3.5981   -6.2489    0.0000 H   0  0  0  0  0  0  0  0  0  0  0  0
    7.0096   -6.8504    0.0000 H   0  0  0  0  0  0  0  0  0  0  0  0
    2.6384   -3.6122    0.0000 H   0  0  0  0  0  0  0  0  0  0  0  0
    9.0644    4.8085    0.0000 H   0  0  0  0  0  0  0  0  0  0  0  0
    9.6344    1.6735    0.0000 H   0  0  0  0  0  0  0  0  0  0  0  0
    6.6344    3.4056    0.0000 H   0  0  0  0  0  0  0  0  0  0  0  0
    9.6344    4.4794    0.0000 H   0  0  0  0  0  0  0  0  0  0  0  0
    8.2544    6.2115    0.0000 H   0  0  0  0  0  0  0  0  0  0  0  0
   11.2544    1.6735    0.0000 H   0  0  0  0  0  0  0  0  0  0  0  0
    5.8244    4.8085    0.0000 H   0  0  0  0  0  0  0  0  0  0  0  0
   11.2544    4.4794    0.0000 H   0  0  0  0  0  0  0  0  0  0  0  0
  1 31  1  0  0  0  0
  2 32  1  0  0  0  0
  3 41  1  0  0  0  0
  4 42  1  0  0  0  0
  5 14  1  0  0  0  0
  5 17  1  0  0  0  0
  6 16  1  0  0  0  0
  6 20  1  0  0  0  0
  7  8  1  0  0  0  0
  7  9  1  0  0  0  0
  7 15  1  0  0  0  0
  8 10  1  0  0  0  0
  8 12  1  0  0  0  0
  8 43  1  0  0  0  0
  9 11  1  0  0  0  0
  9 13  1  0  0  0  0
  9 44  1  0  0  0  0
 10 11  1  0  0  0  0
 10 45  1  0  0  0  0
 10 46  1  0  0  0  0
 11 47  1  0  0  0  0
 11 48  1  0  0  0  0
 12 14  1  0  0  0  0
 12 49  1  0  0  0  0
 12 50  1  0  0  0  0
 13 14  1  0  0  0  0
 13 51  1  0  0  0  0
 13 52  1  0  0  0  0
 14 53  1  0  0  0  0
 15 16  1  0  0  0  0
 15 54  1  0  0  0  0
 15 55  1  0  0  0  0
 16 56  1  0  0  0  0
 16 57  1  0  0  0  0
 17 18  1  0  0  0  0
 17 19  1  0  0  0  0
 17 58  1  0  0  0  0
 18 21  2  0  0  0  0
 18 23  1  0  0  0  0
 19 22  2  0  0  0  0
 19 24  1  0  0  0  0
 20 25  1  0  0  0  0
 20 26  1  0  0  0  0
 20 59  1  0  0  0  0
 21 27  1  0  0  0  0
 21 60  1  0  0  0  0
 22 28  1  0  0  0  0
 22 61  1  0  0  0  0
 23 29  2  0  0  0  0
 23 62  1  0  0  0  0
 24 30  2  0  0  0  0
 24 63  1  0  0  0  0
 25 33  2  0  0  0  0
 25 35  1  0  0  0  0
 26 34  2  0  0  0  0
 26 36  1  0  0  0  0
 27 31  2  0  0  0  0
 27 64  1  0  0  0  0
 28 32  2  0  0  0  0
 28 65  1  0  0  0  0
 29 31  1  0  0  0  0
 29 66  1  0  0  0  0
 30 32  1  0  0  0  0
 30 67  1  0  0  0  0
 33 37  1  0  0  0  0
 33 68  1  0  0  0  0
 34 38  1  0  0  0  0
 34 69  1  0  0  0  0
 35 39  2  0  0  0  0
 35 70  1  0  0  0  0
 36 40  2  0  0  0  0
 36 71  1  0  0  0  0
 37 41  2  0  0  0  0
 37 72  1  0  0  0  0
 38 42  2  0  0  0  0
 38 73  1  0  0  0  0
 39 41  1  0  0  0  0
 39 74  1  0  0  0  0
 40 42  1  0  0  0  0
 40 75  1  0  0  0  0
M  END
> <PUBCHEM_COMPOUND_CID>
44338149

> <PUBCHEM_COMPOUND_CANONICALIZED>
1

> <PUBCHEM_CACTVS_COMPLEXITY>
745

> <PUBCHEM_CACTVS_HBOND_ACCEPTOR>
7

> <PUBCHEM_CACTVS_HBOND_DONOR>
0

> <PUBCHEM_CACTVS_ROTATABLE_BOND>
10

> <PUBCHEM_CACTVS_SUBSKEYS>
AAADcfB+McAAAAAAAAAAAAAAAAAAAWAAAAA8YMGCBgAAAAABVAAAHwAAAAAADDzhmA4wAIMABACAAiBCAAACAAAgAAAIiAAICIgKJiKAsRiHMAAmwAGYqAeQwOAOAAAAAAAAAAAAAAAAAAAAAAAAAAAAAA==

> <PUBCHEM_IUPAC_OPENEYE_NAME>
3-[bis(4-fluorophenyl)methoxy]-8-[2-[bis(4-fluorophenyl)methoxy]ethyl]-8-azabicyclo[3.2.1]octane

> <PUBCHEM_IUPAC_CAS_NAME>
3-[bis(4-fluorophenyl)methoxy]-8-[2-[bis(4-fluorophenyl)methoxy]ethyl]-8-azabicyclo[3.2.1]octane

> <PUBCHEM_IUPAC_NAME_MARKUP>
3-[bis(4-fluorophenyl)methoxy]-8-[2-[bis(4-fluorophenyl)methoxy]ethyl]-8-azabicyclo[3.2.1]octane

> <PUBCHEM_IUPAC_NAME>
3-[bis(4-fluorophenyl)methoxy]-8-[2-[bis(4-fluorophenyl)methoxy]ethyl]-8-azabicyclo[3.2.1]octane

> <PUBCHEM_IUPAC_SYSTEMATIC_NAME>
3-[bis(4-fluorophenyl)methoxy]-8-[2-[bis(4-fluorophenyl)methoxy]ethyl]-8-azabicyclo[3.2.1]octane

> <PUBCHEM_IUPAC_TRADITIONAL_NAME>
3-[bis(4-fluorophenyl)methoxy]-8-[2-[bis(4-fluorophenyl)methoxy]ethyl]-8-azabicyclo[3.2.1]octane

> <PUBCHEM_IUPAC_INCHI>
InChI=1S/C35H33F4NO2/c36-27-9-1-23(2-10-27)34(24-3-11-28(37)12-4-24)41-20-19-40-31-17-18-32(40)22-33(21-31)42-35(25-5-13-29(38)14-6-25)26-7-15-30(39)16-8-26/h1-16,31-35H,17-22H2

> <PUBCHEM_IUPAC_INCHIKEY>
UAKDULMGTDUKRO-UHFFFAOYSA-N

> <PUBCHEM_XLOGP3_AA>
7.9

> <PUBCHEM_EXACT_MASS>
575.24474194

> <PUBCHEM_MOLECULAR_FORMULA>
C35H33F4NO2

> <PUBCHEM_MOLECULAR_WEIGHT>
575.6

> <PUBCHEM_OPENEYE_CAN_SMILES>
C1CC2CC(CC1N2CCOC(C3=CC=C(C=C3)F)C4=CC=C(C=C4)F)OC(C5=CC=C(C=C5)F)C6=CC=C(C=C6)F

> <PUBCHEM_OPENEYE_ISO_SMILES>
C1CC2CC(CC1N2CCOC(C3=CC=C(C=C3)F)C4=CC=C(C=C4)F)OC(C5=CC=C(C=C5)F)C6=CC=C(C=C6)F

> <PUBCHEM_CACTVS_TPSA>
21.7

> <PUBCHEM_MONOISOTOPIC_WEIGHT>
575.24474194

> <PUBCHEM_TOTAL_CHARGE>
0

> <PUBCHEM_HEAVY_ATOM_COUNT>
42

> <PUBCHEM_ATOM_DEF_STEREO_COUNT>
0

> <PUBCHEM_ATOM_UDEF_STEREO_COUNT>
2

> <PUBCHEM_BOND_DEF_STEREO_COUNT>
0

> <PUBCHEM_BOND_UDEF_STEREO_COUNT>
0

> <PUBCHEM_ISOTOPIC_ATOM_COUNT>
0

> <PUBCHEM_COMPONENT_COUNT>
1

> <PUBCHEM_CACTVS_TAUTO_COUNT>
-1

> <PUBCHEM_COORDINATE_TYPE>
1
5
255

> <PUBCHEM_BONDANNOTATIONS>
18  21  8
18  23  8
19  22  8
19  24  8
21  27  8
22  28  8
23  29  8
24  30  8
25  33  8
25  35  8
26  34  8
26  36  8
27  31  8
28  32  8
29  31  8
30  32  8
33  37  8
34  38  8
35  39  8
36  40  8
37  41  8
38  42  8
39  41  8
40  42  8
8  10  3
9  11  3

$$$$
