155557645
  -OEChem-09292322412D

 71 75  0     0  0  0  0  0  0999 V2000
    8.0919    5.2829    0.0000 O   0  0  0  0  0  0  0  0  0  0  0  0
    4.6278   -2.7171    0.0000 O   0  0  0  0  0  0  0  0  0  0  0  0
    2.0000   -7.2762    0.0000 O   0  0  0  0  0  0  0  0  0  0  0  0
    6.3598    0.2829    0.0000 N   0  0  0  0  0  0  0  0  0  0  0  0
    6.3598    4.2829    0.0000 N   0  0  0  0  0  0  0  0  0  0  0  0
    2.8718   -5.7796    0.0000 N   0  0  0  0  0  0  0  0  0  0  0  0
    6.3598    2.2829    0.0000 C   0  0  0  0  0  0  0  0  0  0  0  0
    5.4938    1.7829    0.0000 C   0  0  0  0  0  0  0  0  0  0  0  0
    7.2258    1.7829    0.0000 C   0  0  0  0  0  0  0  0  0  0  0  0
    7.2258    2.7829    0.0000 C   0  0  0  0  0  0  0  0  0  0  0  0
    5.4938    2.7829    0.0000 C   0  0  0  0  0  0  0  0  0  0  0  0
    5.4938    0.7829    0.0000 C   0  0  0  0  0  0  0  0  0  0  0  0
    7.2258    0.7829    0.0000 C   0  0  0  0  0  0  0  0  0  0  0  0
    7.2258    3.7829    0.0000 C   0  0  0  0  0  0  0  0  0  0  0  0
    5.4938    3.7829    0.0000 C   0  0  0  0  0  0  0  0  0  0  0  0
    6.3598   -0.7171    0.0000 C   0  0  0  0  0  0  0  0  0  0  0  0
    6.3598    5.2829    0.0000 C   0  0  0  0  0  0  0  0  0  0  0  0
    5.4938   -1.2171    0.0000 C   0  0  0  0  0  0  0  0  0  0  0  0
    7.2258    5.7829    0.0000 C   0  0  0  0  0  0  0  0  0  0  0  0
    5.4938    5.7829    0.0000 C   0  0  0  0  0  0  0  0  0  0  0  0
    5.4938   -2.2171    0.0000 C   0  0  0  0  0  0  0  0  0  0  0  0
    7.2258    6.7829    0.0000 C   0  0  0  0  0  0  0  0  0  0  0  0
    5.4938    6.7829    0.0000 C   0  0  0  0  0  0  0  0  0  0  0  0
    6.3598    7.2829    0.0000 C   0  0  0  0  0  0  0  0  0  0  0  0
    4.6278   -3.7171    0.0000 C   0  0  0  0  0  0  0  0  0  0  0  0
    8.9579    5.7829    0.0000 C   0  0  0  0  0  0  0  0  0  0  0  0
    3.7277   -4.2414    0.0000 C   0  0  0  0  0  0  0  0  0  0  0  0
    5.5278   -4.2414    0.0000 C   0  0  0  0  0  0  0  0  0  0  0  0
    3.7398   -5.2829    0.0000 C   0  0  0  0  0  0  0  0  0  0  0  0
    4.6038   -5.7863    0.0000 C   0  0  0  0  0  0  0  0  0  0  0  0
    5.5158   -5.2829    0.0000 C   0  0  0  0  0  0  0  0  0  0  0  0
    4.6000   -6.7863    0.0000 C   0  0  0  0  0  0  0  0  0  0  0  0
    3.7320   -7.2829    0.0000 C   0  0  0  0  0  0  0  0  0  0  0  0
    2.8680   -6.7796    0.0000 C   0  0  0  0  0  0  0  0  0  0  0  0
    5.2817    2.3655    0.0000 H   0  0  0  0  0  0  0  0  0  0  0  0
    4.8832    1.6753    0.0000 H   0  0  0  0  0  0  0  0  0  0  0  0
    7.8364    1.6753    0.0000 H   0  0  0  0  0  0  0  0  0  0  0  0
    7.4379    2.3655    0.0000 H   0  0  0  0  0  0  0  0  0  0  0  0
    7.4379    2.2003    0.0000 H   0  0  0  0  0  0  0  0  0  0  0  0
    7.8364    2.8906    0.0000 H   0  0  0  0  0  0  0  0  0  0  0  0
    4.8832    2.8906    0.0000 H   0  0  0  0  0  0  0  0  0  0  0  0
    5.2817    2.2003    0.0000 H   0  0  0  0  0  0  0  0  0  0  0  0
    4.8832    0.8906    0.0000 H   0  0  0  0  0  0  0  0  0  0  0  0
    5.2817    0.2003    0.0000 H   0  0  0  0  0  0  0  0  0  0  0  0
    7.4379    0.2003    0.0000 H   0  0  0  0  0  0  0  0  0  0  0  0
    7.8364    0.8906    0.0000 H   0  0  0  0  0  0  0  0  0  0  0  0
    7.8364    3.6753    0.0000 H   0  0  0  0  0  0  0  0  0  0  0  0
    7.4379    4.3655    0.0000 H   0  0  0  0  0  0  0  0  0  0  0  0
    5.2817    4.3655    0.0000 H   0  0  0  0  0  0  0  0  0  0  0  0
    4.8832    3.6753    0.0000 H   0  0  0  0  0  0  0  0  0  0  0  0
    6.5719   -1.2997    0.0000 H   0  0  0  0  0  0  0  0  0  0  0  0
    6.9704   -0.6094    0.0000 H   0  0  0  0  0  0  0  0  0  0  0  0
    5.2817   -0.6345    0.0000 H   0  0  0  0  0  0  0  0  0  0  0  0
    4.8832   -1.3247    0.0000 H   0  0  0  0  0  0  0  0  0  0  0  0
    4.9569    5.4729    0.0000 H   0  0  0  0  0  0  0  0  0  0  0  0
    5.7058   -2.7997    0.0000 H   0  0  0  0  0  0  0  0  0  0  0  0
    6.1044   -2.1094    0.0000 H   0  0  0  0  0  0  0  0  0  0  0  0
    7.7628    7.0929    0.0000 H   0  0  0  0  0  0  0  0  0  0  0  0
    4.9569    7.0929    0.0000 H   0  0  0  0  0  0  0  0  0  0  0  0
    6.3598    7.9029    0.0000 H   0  0  0  0  0  0  0  0  0  0  0  0
    9.2679    5.2460    0.0000 H   0  0  0  0  0  0  0  0  0  0  0  0
    9.4948    6.0929    0.0000 H   0  0  0  0  0  0  0  0  0  0  0  0
    8.6479    6.3198    0.0000 H   0  0  0  0  0  0  0  0  0  0  0  0
    3.1884   -3.9355    0.0000 H   0  0  0  0  0  0  0  0  0  0  0  0
    6.0671   -3.9355    0.0000 H   0  0  0  0  0  0  0  0  0  0  0  0
    4.8098   -7.3697    0.0000 H   0  0  0  0  0  0  0  0  0  0  0  0
    5.2110   -6.6810    0.0000 H   0  0  0  0  0  0  0  0  0  0  0  0
    6.0479   -5.6012    0.0000 H   0  0  0  0  0  0  0  0  0  0  0  0
    3.3317   -7.7563    0.0000 H   0  0  0  0  0  0  0  0  0  0  0  0
    4.1287   -7.7594    0.0000 H   0  0  0  0  0  0  0  0  0  0  0  0
    2.3361   -5.4675    0.0000 H   0  0  0  0  0  0  0  0  0  0  0  0
  1 19  1  0  0  0  0
  1 26  1  0  0  0  0
  2 21  1  0  0  0  0
  2 25  1  0  0  0  0
  3 34  2  0  0  0  0
  4 12  1  0  0  0  0
  4 13  1  0  0  0  0
  4 16  1  0  0  0  0
  5 14  1  0  0  0  0
  5 15  1  0  0  0  0
  5 17  1  0  0  0  0
  6 29  1  0  0  0  0
  6 34  1  0  0  0  0
  6 71  1  0  0  0  0
  7  8  1  0  0  0  0
  7  9  1  0  0  0  0
  7 10  1  0  0  0  0
  7 11  1  0  0  0  0
  8 12  1  0  0  0  0
  8 35  1  0  0  0  0
  8 36  1  0  0  0  0
  9 13  1  0  0  0  0
  9 37  1  0  0  0  0
  9 38  1  0  0  0  0
 10 14  1  0  0  0  0
 10 39  1  0  0  0  0
 10 40  1  0  0  0  0
 11 15  1  0  0  0  0
 11 41  1  0  0  0  0
 11 42  1  0  0  0  0
 12 43  1  0  0  0  0
 12 44  1  0  0  0  0
 13 45  1  0  0  0  0
 13 46  1  0  0  0  0
 14 47  1  0  0  0  0
 14 48  1  0  0  0  0
 15 49  1  0  0  0  0
 15 50  1  0  0  0  0
 16 18  1  0  0  0  0
 16 51  1  0  0  0  0
 16 52  1  0  0  0  0
 17 19  1  0  0  0  0
 17 20  2  0  0  0  0
 18 21  1  0  0  0  0
 18 53  1  0  0  0  0
 18 54  1  0  0  0  0
 19 22  2  0  0  0  0
 20 23  1  0  0  0  0
 20 55  1  0  0  0  0
 21 56  1  0  0  0  0
 21 57  1  0  0  0  0
 22 24  1  0  0  0  0
 22 58  1  0  0  0  0
 23 24  2  0  0  0  0
 23 59  1  0  0  0  0
 24 60  1  0  0  0  0
 25 27  2  0  0  0  0
 25 28  1  0  0  0  0
 26 61  1  0  0  0  0
 26 62  1  0  0  0  0
 26 63  1  0  0  0  0
 27 29  1  0  0  0  0
 27 64  1  0  0  0  0
 28 31  2  0  0  0  0
 28 65  1  0  0  0  0
 29 30  2  0  0  0  0
 30 31  1  0  0  0  0
 30 32  1  0  0  0  0
 31 68  1  0  0  0  0
 32 33  1  0  0  0  0
 32 66  1  0  0  0  0
 32 67  1  0  0  0  0
 33 34  1  0  0  0  0
 33 69  1  0  0  0  0
 33 70  1  0  0  0  0
M  END
> <PUBCHEM_COMPOUND_CID>
155557645

> <PUBCHEM_COMPOUND_CANONICALIZED>
1

> <PUBCHEM_CACTVS_COMPLEXITY>
655

> <PUBCHEM_CACTVS_HBOND_ACCEPTOR>
5

> <PUBCHEM_CACTVS_HBOND_DONOR>
1

> <PUBCHEM_CACTVS_ROTATABLE_BOND>
7

> <PUBCHEM_CACTVS_SUBSKEYS>
AAADcfB7MAAAAAAAAAAAAAAAAAAAAAAAAAA8eLECAAAAAACxQAAAHgAQAAAADgzhmAYyxoPABACIAiVSUACCCAAhIgAIiAEPbIgOJjLEsZuHOCjm1BnY6AeY2aOfIAAAAgACEABAAAAEAAQgAAAAAAAAAA==

> <PUBCHEM_IUPAC_OPENEYE_NAME>
7-[3-[3-(2-methoxyphenyl)-3,9-diazaspiro[5.5]undecan-9-yl]propoxy]-3,4-dihydro-1H-quinolin-2-one

> <PUBCHEM_IUPAC_CAS_NAME>
7-[3-[3-(2-methoxyphenyl)-3,9-diazaspiro[5.5]undecan-9-yl]propoxy]-3,4-dihydro-1H-quinolin-2-one

> <PUBCHEM_IUPAC_NAME_MARKUP>
7-[3-[3-(2-methoxyphenyl)-3,9-diazaspiro[5.5]undecan-9-yl]propoxy]-3,4-dihydro-1<I>H</I>-quinolin-2-one

> <PUBCHEM_IUPAC_NAME>
7-[3-[3-(2-methoxyphenyl)-3,9-diazaspiro[5.5]undecan-9-yl]propoxy]-3,4-dihydro-1H-quinolin-2-one

> <PUBCHEM_IUPAC_SYSTEMATIC_NAME>
7-[3-[3-(2-methoxyphenyl)-3,9-diazaspiro[5.5]undecan-9-yl]propoxy]-3,4-dihydro-1H-quinolin-2-one

> <PUBCHEM_IUPAC_TRADITIONAL_NAME>
7-[3-[3-(2-methoxyphenyl)-3,9-diazaspiro[5.5]undecan-9-yl]propoxy]-3,4-dihydrocarbostyril

> <PUBCHEM_IUPAC_INCHI>
InChI=1S/C28H37N3O3/c1-33-26-6-3-2-5-25(26)31-18-13-28(14-19-31)11-16-30(17-12-28)15-4-20-34-23-9-7-22-8-10-27(32)29-24(22)21-23/h2-3,5-7,9,21H,4,8,10-20H2,1H3,(H,29,32)

> <PUBCHEM_IUPAC_INCHIKEY>
VGGYTNPNHQBLKG-UHFFFAOYSA-N

> <PUBCHEM_XLOGP3_AA>
4.3

> <PUBCHEM_EXACT_MASS>
463.28349205

> <PUBCHEM_MOLECULAR_FORMULA>
C28H37N3O3

> <PUBCHEM_MOLECULAR_WEIGHT>
463.6

> <PUBCHEM_OPENEYE_CAN_SMILES>
COC1=CC=CC=C1N2CCC3(CCN(CC3)CCCOC4=CC5=C(CCC(=O)N5)C=C4)CC2

> <PUBCHEM_OPENEYE_ISO_SMILES>
COC1=CC=CC=C1N2CCC3(CCN(CC3)CCCOC4=CC5=C(CCC(=O)N5)C=C4)CC2

> <PUBCHEM_CACTVS_TPSA>
54

> <PUBCHEM_MONOISOTOPIC_WEIGHT>
463.28349205

> <PUBCHEM_TOTAL_CHARGE>
0

> <PUBCHEM_HEAVY_ATOM_COUNT>
34

> <PUBCHEM_ATOM_DEF_STEREO_COUNT>
0

> <PUBCHEM_ATOM_UDEF_STEREO_COUNT>
0

> <PUBCHEM_BOND_DEF_STEREO_COUNT>
0

> <PUBCHEM_BOND_UDEF_STEREO_COUNT>
0

> <PUBCHEM_ISOTOPIC_ATOM_COUNT>
0

> <PUBCHEM_COMPONENT_COUNT>
1

> <PUBCHEM_CACTVS_TAUTO_COUNT>
-1

> <PUBCHEM_COORDINATE_TYPE>
1
5
255

> <PUBCHEM_BONDANNOTATIONS>
17  19  8
17  20  8
19  22  8
20  23  8
22  24  8
23  24  8
25  27  8
25  28  8
27  29  8
28  31  8
29  30  8
30  31  8

$$$$
