10224165
  -OEChem-09292322192D

 60 64  0     1  0  0  0  0  0999 V2000
    4.4322    5.3651    0.0000 Cl  0  0  0  0  0  0  0  0  0  0  0  0
    2.3161   -2.1030    0.0000 O   0  0  0  0  0  0  0  0  0  0  0  0
    3.5135   -3.3005    0.0000 N   0  0  0  0  0  0  0  0  0  0  0  0
    3.4806   -0.6427    0.0000 N   0  0  0  0  0  0  0  0  0  0  0  0
    2.6128    1.1592    0.0000 N   0  0  0  0  0  0  0  0  0  0  0  0
    2.8665   -4.0484    0.0000 C   0  0  0  0  0  0  0  0  0  0  0  0
    3.9145   -1.5437    0.0000 C   0  0  3  0  0  0  0  0  0  0  0  0
    3.3422   -4.9155    0.0000 C   0  0  0  0  0  0  0  0  0  0  0  0
    4.4145   -3.7344    0.0000 C   0  0  0  0  0  0  0  0  0  0  0  0
    4.3206   -4.7717    0.0000 C   0  0  0  0  0  0  0  0  0  0  0  0
    4.9145   -1.5437    0.0000 C   0  0  0  0  0  0  0  0  0  0  0  0
    3.2910   -2.3255    0.0000 C   0  0  0  0  0  0  0  0  0  0  0  0
    5.3154   -3.3005    0.0000 C   0  0  0  0  0  0  0  0  0  0  0  0
    5.5380   -2.3255    0.0000 C   0  0  0  0  0  0  0  0  0  0  0  0
    2.4834   -0.5680    0.0000 C   0  0  0  0  0  0  0  0  0  0  0  0
    4.0439    0.1835    0.0000 C   0  0  0  0  0  0  0  0  0  0  0  0
    2.0000   -4.5476    0.0000 C   0  0  0  0  0  0  0  0  0  0  0  0
    2.1240   -3.3786    0.0000 C   0  0  0  0  0  0  0  0  0  0  0  0
    2.0495    0.3330    0.0000 C   0  0  0  0  0  0  0  0  0  0  0  0
    3.6100    1.0845    0.0000 C   0  0  0  0  0  0  0  0  0  0  0  0
    5.1767   -5.3651    0.0000 C   0  0  0  0  0  0  0  0  0  0  0  0
    6.1850   -3.8739    0.0000 C   0  0  0  0  0  0  0  0  0  0  0  0
    6.1152   -4.9132    0.0000 C   0  0  0  0  0  0  0  0  0  0  0  0
    2.1790    2.0602    0.0000 C   0  0  0  0  0  0  0  0  0  0  0  0
    2.7423    2.8864    0.0000 C   0  0  0  0  0  0  0  0  0  0  0  0
    2.3084    3.7874    0.0000 C   0  0  0  0  0  0  0  0  0  0  0  0
    3.7395    2.8117    0.0000 C   0  0  0  0  0  0  0  0  0  0  0  0
    2.8717    4.6136    0.0000 C   0  0  0  0  0  0  0  0  0  0  0  0
    4.3028    3.6379    0.0000 C   0  0  0  0  0  0  0  0  0  0  0  0
    3.8689    4.5389    0.0000 C   0  0  0  0  0  0  0  0  0  0  0  0
    4.2443   -1.0187    0.0000 H   0  0  0  0  0  0  0  0  0  0  0  0
    2.7671   -5.1473    0.0000 H   0  0  0  0  0  0  0  0  0  0  0  0
    3.5043   -5.5139    0.0000 H   0  0  0  0  0  0  0  0  0  0  0  0
    5.4731   -1.2747    0.0000 H   0  0  0  0  0  0  0  0  0  0  0  0
    4.7765   -0.9392    0.0000 H   0  0  0  0  0  0  0  0  0  0  0  0
    6.0966   -2.5945    0.0000 H   0  0  0  0  0  0  0  0  0  0  0  0
    5.9245   -1.8408    0.0000 H   0  0  0  0  0  0  0  0  0  0  0  0
    1.8866   -0.7359    0.0000 H   0  0  0  0  0  0  0  0  0  0  0  0
    2.5451   -1.1849    0.0000 H   0  0  0  0  0  0  0  0  0  0  0  0
    4.4878   -0.2494    0.0000 H   0  0  0  0  0  0  0  0  0  0  0  0
    4.5473    0.5454    0.0000 H   0  0  0  0  0  0  0  0  0  0  0  0
    1.6905   -4.0103    0.0000 H   0  0  0  0  0  0  0  0  0  0  0  0
    1.4628   -4.8570    0.0000 H   0  0  0  0  0  0  0  0  0  0  0  0
    2.3095   -5.0848    0.0000 H   0  0  0  0  0  0  0  0  0  0  0  0
    2.5393   -2.9182    0.0000 H   0  0  0  0  0  0  0  0  0  0  0  0
    1.6637   -2.9632    0.0000 H   0  0  0  0  0  0  0  0  0  0  0  0
    1.7087   -3.8389    0.0000 H   0  0  0  0  0  0  0  0  0  0  0  0
    1.6057    0.7659    0.0000 H   0  0  0  0  0  0  0  0  0  0  0  0
    1.5461   -0.0290    0.0000 H   0  0  0  0  0  0  0  0  0  0  0  0
    4.2069    1.2524    0.0000 H   0  0  0  0  0  0  0  0  0  0  0  0
    3.5483    1.7014    0.0000 H   0  0  0  0  0  0  0  0  0  0  0  0
    5.1280   -5.9832    0.0000 H   0  0  0  0  0  0  0  0  0  0  0  0
    6.7405   -3.5984    0.0000 H   0  0  0  0  0  0  0  0  0  0  0  0
    6.6288   -5.2605    0.0000 H   0  0  0  0  0  0  0  0  0  0  0  0
    1.7351    2.4931    0.0000 H   0  0  0  0  0  0  0  0  0  0  0  0
    1.6756    1.6982    0.0000 H   0  0  0  0  0  0  0  0  0  0  0  0
    1.6901    3.8337    0.0000 H   0  0  0  0  0  0  0  0  0  0  0  0
    4.0085    2.2531    0.0000 H   0  0  0  0  0  0  0  0  0  0  0  0
    2.6027    5.1722    0.0000 H   0  0  0  0  0  0  0  0  0  0  0  0
    4.9211    3.5916    0.0000 H   0  0  0  0  0  0  0  0  0  0  0  0
  1 30  1  0  0  0  0
  2 12  2  0  0  0  0
  3  6  1  0  0  0  0
  3  9  1  0  0  0  0
  3 12  1  0  0  0  0
  4  7  1  0  0  0  0
  4 15  1  0  0  0  0
  4 16  1  0  0  0  0
  5 19  1  0  0  0  0
  5 20  1  0  0  0  0
  5 24  1  0  0  0  0
  6  8  1  0  0  0  0
  6 17  1  0  0  0  0
  6 18  1  0  0  0  0
  7 11  1  0  0  0  0
  7 12  1  0  0  0  0
  7 31  1  0  0  0  0
  8 10  1  0  0  0  0
  8 32  1  0  0  0  0
  8 33  1  0  0  0  0
  9 10  1  0  0  0  0
  9 13  2  0  0  0  0
 10 21  2  0  0  0  0
 11 14  1  0  0  0  0
 11 34  1  0  0  0  0
 11 35  1  0  0  0  0
 13 14  1  0  0  0  0
 13 22  1  0  0  0  0
 14 36  1  0  0  0  0
 14 37  1  0  0  0  0
 15 19  1  0  0  0  0
 15 38  1  0  0  0  0
 15 39  1  0  0  0  0
 16 20  1  0  0  0  0
 16 40  1  0  0  0  0
 16 41  1  0  0  0  0
 17 42  1  0  0  0  0
 17 43  1  0  0  0  0
 17 44  1  0  0  0  0
 18 45  1  0  0  0  0
 18 46  1  0  0  0  0
 18 47  1  0  0  0  0
 19 48  1  0  0  0  0
 19 49  1  0  0  0  0
 20 50  1  0  0  0  0
 20 51  1  0  0  0  0
 21 23  1  0  0  0  0
 21 52  1  0  0  0  0
 22 23  2  0  0  0  0
 22 53  1  0  0  0  0
 23 54  1  0  0  0  0
 24 25  1  0  0  0  0
 24 55  1  0  0  0  0
 24 56  1  0  0  0  0
 25 26  2  0  0  0  0
 25 27  1  0  0  0  0
 26 28  1  0  0  0  0
 26 57  1  0  0  0  0
 27 29  2  0  0  0  0
 27 58  1  0  0  0  0
 28 30  2  0  0  0  0
 28 59  1  0  0  0  0
 29 30  1  0  0  0  0
 29 60  1  0  0  0  0
M  END
> <PUBCHEM_COMPOUND_CID>
10224165

> <PUBCHEM_COMPOUND_CANONICALIZED>
1

> <PUBCHEM_CACTVS_COMPLEXITY>
624

> <PUBCHEM_CACTVS_HBOND_ACCEPTOR>
3

> <PUBCHEM_CACTVS_HBOND_DONOR>
0

> <PUBCHEM_CACTVS_ROTATABLE_BOND>
3

> <PUBCHEM_CACTVS_SUBSKEYS>
AAADceB7IAAEAAAAAAAAAAAAAAAAAWAAAAA8YIAABYAAAFixQAAAHgIAAAAADKrBmCQywIMAAACIAiVSUACCAAAhBQAIiAGIRogIYDLBk7GUIAhghADIyAcYiMCOBAACAAACAAAIAAQAAAQAAAAAAAAAAA==

> <PUBCHEM_IUPAC_OPENEYE_NAME>
11-[4-[(4-chlorophenyl)methyl]piperazin-1-yl]-2,2-dimethyl-1-azatricyclo[6.4.1.04,13]trideca-4,6,8(13)-trien-12-one

> <PUBCHEM_IUPAC_CAS_NAME>
11-[4-[(4-chlorophenyl)methyl]-1-piperazinyl]-2,2-dimethyl-1-azatricyclo[6.4.1.04,13]trideca-4,6,8(13)-trien-12-one

> <PUBCHEM_IUPAC_NAME_MARKUP>
11-[4-[(4-chlorophenyl)methyl]piperazin-1-yl]-2,2-dimethyl-1-azatricyclo[6.4.1.0<SUP>4,13</SUP>]trideca-4,6,8(13)-trien-12-one

> <PUBCHEM_IUPAC_NAME>
11-[4-[(4-chlorophenyl)methyl]piperazin-1-yl]-2,2-dimethyl-1-azatricyclo[6.4.1.04,13]trideca-4,6,8(13)-trien-12-one

> <PUBCHEM_IUPAC_SYSTEMATIC_NAME>
11-[4-[(4-chlorophenyl)methyl]piperazin-1-yl]-2,2-dimethyl-1-azatricyclo[6.4.1.04,13]trideca-4,6,8(13)-trien-12-one

> <PUBCHEM_IUPAC_TRADITIONAL_NAME>
11-[4-(4-chlorobenzyl)piperazino]-2,2-dimethyl-1-azatricyclo[6.4.1.04,13]trideca-4,6,8(13)-trien-12-one

> <PUBCHEM_IUPAC_INCHI>
InChI=1S/C25H30ClN3O/c1-25(2)16-20-5-3-4-19-8-11-22(24(30)29(25)23(19)20)28-14-12-27(13-15-28)17-18-6-9-21(26)10-7-18/h3-7,9-10,22H,8,11-17H2,1-2H3

> <PUBCHEM_IUPAC_INCHIKEY>
INLLPBCEAMPLDT-UHFFFAOYSA-N

> <PUBCHEM_XLOGP3_AA>
4.4

> <PUBCHEM_EXACT_MASS>
423.2077403

> <PUBCHEM_MOLECULAR_FORMULA>
C25H30ClN3O

> <PUBCHEM_MOLECULAR_WEIGHT>
424.0

> <PUBCHEM_OPENEYE_CAN_SMILES>
CC1(CC2=CC=CC3=C2N1C(=O)C(CC3)N4CCN(CC4)CC5=CC=C(C=C5)Cl)C

> <PUBCHEM_OPENEYE_ISO_SMILES>
CC1(CC2=CC=CC3=C2N1C(=O)C(CC3)N4CCN(CC4)CC5=CC=C(C=C5)Cl)C

> <PUBCHEM_CACTVS_TPSA>
26.8

> <PUBCHEM_MONOISOTOPIC_WEIGHT>
423.2077403

> <PUBCHEM_TOTAL_CHARGE>
0

> <PUBCHEM_HEAVY_ATOM_COUNT>
30

> <PUBCHEM_ATOM_DEF_STEREO_COUNT>
0

> <PUBCHEM_ATOM_UDEF_STEREO_COUNT>
1

> <PUBCHEM_BOND_DEF_STEREO_COUNT>
0

> <PUBCHEM_BOND_UDEF_STEREO_COUNT>
0

> <PUBCHEM_ISOTOPIC_ATOM_COUNT>
0

> <PUBCHEM_COMPONENT_COUNT>
1

> <PUBCHEM_CACTVS_TAUTO_COUNT>
-1

> <PUBCHEM_COORDINATE_TYPE>
1
5
255

> <PUBCHEM_BONDANNOTATIONS>
10  21  8
13  22  8
21  23  8
22  23  8
25  26  8
25  27  8
26  28  8
27  29  8
28  30  8
29  30  8
7  4  3
9  10  8
9  13  8

$$$$
