71541078
  -OEChem-09292322052D

 35 38  0     1  0  0  0  0  0999 V2000
    4.1087   -2.4721    0.0000 S   0  0  0  0  0  0  0  0  0  0  0  0
    5.8262    2.1121    0.0000 N   0  0  3  0  0  0  0  0  0  0  0  0
    2.7149   -1.6674    0.0000 N   0  0  0  0  0  0  0  0  0  0  0  0
    2.6200   -3.4412    0.0000 N   0  0  0  0  0  0  0  0  0  0  0  0
    6.3262    2.9782    0.0000 C   0  0  0  0  0  0  0  0  0  0  0  0
    7.1923    3.4782    0.0000 C   0  0  0  0  0  0  0  0  0  0  0  0
    6.3262    3.9782    0.0000 C   0  0  0  0  0  0  0  0  0  0  0  0
    6.3798    1.3025    0.0000 C   0  0  0  0  0  0  0  0  0  0  0  0
    4.8483    2.1868    0.0000 C   0  0  0  0  0  0  0  0  0  0  0  0
    6.0945    0.3641    0.0000 C   0  0  0  0  0  0  0  0  0  0  0  0
    4.1783    1.4705    0.0000 C   0  0  0  0  0  0  0  0  0  0  0  0
    5.1840   -0.0003    0.0000 C   0  0  0  0  0  0  0  0  0  0  0  0
    4.3179    0.4997    0.0000 C   0  0  0  0  0  0  0  0  0  0  0  0
    5.1840   -1.0003    0.0000 C   0  0  0  0  0  0  0  0  0  0  0  0
    3.4519   -0.0003    0.0000 C   0  0  0  0  0  0  0  0  0  0  0  0
    4.3179   -1.5003    0.0000 C   0  0  0  0  0  0  0  0  0  0  0  0
    3.4519   -1.0003    0.0000 C   0  0  0  0  0  0  0  0  0  0  0  0
    3.1200   -2.5752    0.0000 C   0  0  0  0  0  0  0  0  0  0  0  0
    6.7646    2.5398    0.0000 H   0  0  0  0  0  0  0  0  0  0  0  0
    7.5908    3.0032    0.0000 H   0  0  0  0  0  0  0  0  0  0  0  0
    7.5908    3.9531    0.0000 H   0  0  0  0  0  0  0  0  0  0  0  0
    6.5383    4.5608    0.0000 H   0  0  0  0  0  0  0  0  0  0  0  0
    5.7156    4.0858    0.0000 H   0  0  0  0  0  0  0  0  0  0  0  0
    6.9177    0.9942    0.0000 H   0  0  0  0  0  0  0  0  0  0  0  0
    6.8005    1.7580    0.0000 H   0  0  0  0  0  0  0  0  0  0  0  0
    5.0324    2.7788    0.0000 H   0  0  0  0  0  0  0  0  0  0  0  0
    4.3123    2.4984    0.0000 H   0  0  0  0  0  0  0  0  0  0  0  0
    6.1905   -0.2484    0.0000 H   0  0  0  0  0  0  0  0  0  0  0  0
    6.7130    0.3208    0.0000 H   0  0  0  0  0  0  0  0  0  0  0  0
    3.8316    1.9845    0.0000 H   0  0  0  0  0  0  0  0  0  0  0  0
    3.5998    1.2473    0.0000 H   0  0  0  0  0  0  0  0  0  0  0  0
    5.7209   -1.3103    0.0000 H   0  0  0  0  0  0  0  0  0  0  0  0
    2.9150    0.3097    0.0000 H   0  0  0  0  0  0  0  0  0  0  0  0
    2.0000   -3.4412    0.0000 H   0  0  0  0  0  0  0  0  0  0  0  0
    2.9300   -3.9782    0.0000 H   0  0  0  0  0  0  0  0  0  0  0  0
  1 16  1  0  0  0  0
  1 18  1  0  0  0  0
  2  5  1  0  0  0  0
  2  8  1  0  0  0  0
  2  9  1  0  0  0  0
  3 17  1  0  0  0  0
  3 18  2  0  0  0  0
  4 18  1  0  0  0  0
  4 34  1  0  0  0  0
  4 35  1  0  0  0  0
  5  6  1  0  0  0  0
  5  7  1  0  0  0  0
  5 19  1  0  0  0  0
  6  7  1  0  0  0  0
  6 20  1  0  0  0  0
  6 21  1  0  0  0  0
  7 22  1  0  0  0  0
  7 23  1  0  0  0  0
  8 10  1  0  0  0  0
  8 24  1  0  0  0  0
  8 25  1  0  0  0  0
  9 11  1  0  0  0  0
  9 26  1  0  0  0  0
  9 27  1  0  0  0  0
 10 12  1  0  0  0  0
 10 28  1  0  0  0  0
 10 29  1  0  0  0  0
 11 13  1  0  0  0  0
 11 30  1  0  0  0  0
 11 31  1  0  0  0  0
 12 13  1  0  0  0  0
 12 14  2  0  0  0  0
 13 15  2  0  0  0  0
 14 16  1  0  0  0  0
 14 32  1  0  0  0  0
 15 17  1  0  0  0  0
 15 33  1  0  0  0  0
 16 17  2  0  0  0  0
M  END
> <PUBCHEM_COMPOUND_CID>
71541078

> <PUBCHEM_COMPOUND_CANONICALIZED>
1

> <PUBCHEM_CACTVS_COMPLEXITY>
320

> <PUBCHEM_CACTVS_HBOND_ACCEPTOR>
4

> <PUBCHEM_CACTVS_HBOND_DONOR>
1

> <PUBCHEM_CACTVS_ROTATABLE_BOND>
1

> <PUBCHEM_CACTVS_SUBSKEYS>
AAADceBzAABAAAAAAAAAAAAAGAAAAWAAAAAwAAAABYAAAFgB8AAAHAQQAAAADCjBXgQx0bNIEAikAyRiZACD8KlhCjlAmDw4ZJiIIKLgkZGEIAhggALIyCcQgIAOmAAAwAAQAQAwAAGAACACAAAAAAAAAA==

> <PUBCHEM_IUPAC_OPENEYE_NAME>
7-cyclopropyl-5,6,8,9-tetrahydrothiazolo[4,5-h][3]benzazepin-2-amine

> <PUBCHEM_IUPAC_CAS_NAME>
7-cyclopropyl-5,6,8,9-tetrahydrothiazolo[4,5-h][3]benzazepin-2-amine

> <PUBCHEM_IUPAC_NAME_MARKUP>
7-cyclopropyl-5,6,8,9-tetrahydro-[1,3]thiazolo[4,5-h][3]benzazepin-2-amine

> <PUBCHEM_IUPAC_NAME>
7-cyclopropyl-5,6,8,9-tetrahydro-[1,3]thiazolo[4,5-h][3]benzazepin-2-amine

> <PUBCHEM_IUPAC_SYSTEMATIC_NAME>
7-cyclopropyl-5,6,8,9-tetrahydro-[1,3]thiazolo[4,5-h][3]benzazepin-2-amine

> <PUBCHEM_IUPAC_TRADITIONAL_NAME>
(7-cyclopropyl-5,6,8,9-tetrahydrothiazolo[4,5-h][3]benzazepin-2-yl)amine

> <PUBCHEM_IUPAC_INCHI>
InChI=1S/C14H17N3S/c15-14-16-12-7-9-3-5-17(11-1-2-11)6-4-10(9)8-13(12)18-14/h7-8,11H,1-6H2,(H2,15,16)

> <PUBCHEM_IUPAC_INCHIKEY>
OTVFQSZCLHMKKL-UHFFFAOYSA-N

> <PUBCHEM_XLOGP3_AA>
2.9

> <PUBCHEM_EXACT_MASS>
259.11431873

> <PUBCHEM_MOLECULAR_FORMULA>
C14H17N3S

> <PUBCHEM_MOLECULAR_WEIGHT>
259.37

> <PUBCHEM_OPENEYE_CAN_SMILES>
C1CC1N2CCC3=CC4=C(C=C3CC2)SC(=N4)N

> <PUBCHEM_OPENEYE_ISO_SMILES>
C1CC1N2CCC3=CC4=C(C=C3CC2)SC(=N4)N

> <PUBCHEM_CACTVS_TPSA>
70.4

> <PUBCHEM_MONOISOTOPIC_WEIGHT>
259.11431873

> <PUBCHEM_TOTAL_CHARGE>
0

> <PUBCHEM_HEAVY_ATOM_COUNT>
18

> <PUBCHEM_ATOM_DEF_STEREO_COUNT>
0

> <PUBCHEM_ATOM_UDEF_STEREO_COUNT>
0

> <PUBCHEM_BOND_DEF_STEREO_COUNT>
0

> <PUBCHEM_BOND_UDEF_STEREO_COUNT>
0

> <PUBCHEM_ISOTOPIC_ATOM_COUNT>
0

> <PUBCHEM_COMPONENT_COUNT>
1

> <PUBCHEM_CACTVS_TAUTO_COUNT>
-1

> <PUBCHEM_COORDINATE_TYPE>
1
5
255

> <PUBCHEM_BONDANNOTATIONS>
1  16  8
1  18  8
12  13  8
12  14  8
13  15  8
14  16  8
15  17  8
16  17  8
3  17  8
3  18  8

$$$$
