168293886
  -OEChem-09292322452D

 66 70  0     1  0  0  0  0  0999 V2000
    3.9216    5.6827    0.0000 Cl  0  0  0  0  0  0  0  0  0  0  0  0
   11.2917   -2.7238    0.0000 S   0  0  0  0  0  0  0  0  0  0  0  0
   11.2705   -1.7240    0.0000 O   0  0  0  0  0  0  0  0  0  0  0  0
   12.2360   -2.3947    0.0000 O   0  0  0  0  0  0  0  0  0  0  0  0
   11.6568   -3.6481    0.0000 N   0  0  3  0  0  0  0  0  0  0  0  0
   10.2981   -2.7042    0.0000 N   0  0  3  0  0  0  0  0  0  0  0  0
    5.1500    0.5358    0.0000 N   0  0  0  0  0  0  0  0  0  0  0  0
    4.0745    2.2220    0.0000 N   0  0  0  0  0  0  0  0  0  0  0  0
   10.7908   -4.1481    0.0000 C   0  0  0  0  0  0  0  0  0  0  0  0
    9.8968   -3.6134    0.0000 C   0  0  0  0  0  0  0  0  0  0  0  0
   12.5228   -4.1481    0.0000 C   0  0  0  0  0  0  0  0  0  0  0  0
   10.7908   -5.1481    0.0000 C   0  0  0  0  0  0  0  0  0  0  0  0
   12.5228   -5.1481    0.0000 C   0  0  0  0  0  0  0  0  0  0  0  0
    9.7603   -1.8611    0.0000 C   0  0  0  0  0  0  0  0  0  0  0  0
   11.6568   -5.6481    0.0000 C   0  0  0  0  0  0  0  0  0  0  0  0
    8.7613   -1.9052    0.0000 C   0  0  0  0  0  0  0  0  0  0  0  0
    8.2236   -1.0621    0.0000 C   0  0  0  0  0  0  0  0  0  0  0  0
    5.6878   -0.3073    0.0000 C   0  0  0  0  0  0  0  0  0  0  0  0
    7.2245   -1.1063    0.0000 C   0  0  0  0  0  0  0  0  0  0  0  0
    6.6868   -0.2632    0.0000 C   0  0  0  0  0  0  0  0  0  0  0  0
    5.6113    1.4230    0.0000 C   0  0  0  0  0  0  0  0  0  0  0  0
    4.1510    0.4916    0.0000 C   0  0  0  0  0  0  0  0  0  0  0  0
    8.9908   -4.1273    0.0000 C   0  0  0  0  0  0  0  0  0  0  0  0
    9.8968   -5.6827    0.0000 C   0  0  0  0  0  0  0  0  0  0  0  0
    5.0735    2.2662    0.0000 C   0  0  0  0  0  0  0  0  0  0  0  0
    3.6132    1.3348    0.0000 C   0  0  0  0  0  0  0  0  0  0  0  0
    8.9908   -5.1689    0.0000 C   0  0  0  0  0  0  0  0  0  0  0  0
    3.5368    3.0651    0.0000 C   0  0  0  0  0  0  0  0  0  0  0  0
    3.9980    3.9524    0.0000 C   0  0  0  0  0  0  0  0  0  0  0  0
    2.5378    3.0210    0.0000 C   0  0  0  0  0  0  0  0  0  0  0  0
    3.4603    4.7955    0.0000 C   0  0  0  0  0  0  0  0  0  0  0  0
    2.0000    3.8641    0.0000 C   0  0  0  0  0  0  0  0  0  0  0  0
    2.4613    4.7513    0.0000 C   0  0  0  0  0  0  0  0  0  0  0  0
   13.1334   -4.2557    0.0000 H   0  0  0  0  0  0  0  0  0  0  0  0
   12.7349   -3.5655    0.0000 H   0  0  0  0  0  0  0  0  0  0  0  0
   12.7349   -5.7307    0.0000 H   0  0  0  0  0  0  0  0  0  0  0  0
   13.1334   -5.0404    0.0000 H   0  0  0  0  0  0  0  0  0  0  0  0
   10.3330   -1.6235    0.0000 H   0  0  0  0  0  0  0  0  0  0  0  0
    9.6258   -1.2558    0.0000 H   0  0  0  0  0  0  0  0  0  0  0  0
   11.2583   -6.1230    0.0000 H   0  0  0  0  0  0  0  0  0  0  0  0
   12.0553   -6.1230    0.0000 H   0  0  0  0  0  0  0  0  0  0  0  0
    8.1886   -2.1428    0.0000 H   0  0  0  0  0  0  0  0  0  0  0  0
    8.8958   -2.5105    0.0000 H   0  0  0  0  0  0  0  0  0  0  0  0
    8.7962   -0.8246    0.0000 H   0  0  0  0  0  0  0  0  0  0  0  0
    8.0890   -0.4569    0.0000 H   0  0  0  0  0  0  0  0  0  0  0  0
    5.1151   -0.5449    0.0000 H   0  0  0  0  0  0  0  0  0  0  0  0
    5.8223   -0.9125    0.0000 H   0  0  0  0  0  0  0  0  0  0  0  0
    6.6518   -1.3438    0.0000 H   0  0  0  0  0  0  0  0  0  0  0  0
    7.3590   -1.7115    0.0000 H   0  0  0  0  0  0  0  0  0  0  0  0
    7.2595   -0.0256    0.0000 H   0  0  0  0  0  0  0  0  0  0  0  0
    6.5523    0.3421    0.0000 H   0  0  0  0  0  0  0  0  0  0  0  0
    6.1034    1.0459    0.0000 H   0  0  0  0  0  0  0  0  0  0  0  0
    6.0682    1.8422    0.0000 H   0  0  0  0  0  0  0  0  0  0  0  0
    3.5783    0.2541    0.0000 H   0  0  0  0  0  0  0  0  0  0  0  0
    4.2855   -0.1136    0.0000 H   0  0  0  0  0  0  0  0  0  0  0  0
    8.4550   -3.8152    0.0000 H   0  0  0  0  0  0  0  0  0  0  0  0
    5.6462    2.5037    0.0000 H   0  0  0  0  0  0  0  0  0  0  0  0
    4.9390    2.8714    0.0000 H   0  0  0  0  0  0  0  0  0  0  0  0
    3.1212    1.7119    0.0000 H   0  0  0  0  0  0  0  0  0  0  0  0
    3.1564    0.9156    0.0000 H   0  0  0  0  0  0  0  0  0  0  0  0
    9.9040   -6.3027    0.0000 H   0  0  0  0  0  0  0  0  0  0  0  0
    8.4550   -5.4810    0.0000 H   0  0  0  0  0  0  0  0  0  0  0  0
    4.6174    3.9797    0.0000 H   0  0  0  0  0  0  0  0  0  0  0  0
    2.2518    2.4709    0.0000 H   0  0  0  0  0  0  0  0  0  0  0  0
    1.3806    3.8367    0.0000 H   0  0  0  0  0  0  0  0  0  0  0  0
    2.1279    5.2741    0.0000 H   0  0  0  0  0  0  0  0  0  0  0  0
  1 31  1  0  0  0  0
  2  3  2  0  0  0  0
  2  4  2  0  0  0  0
  2  5  1  0  0  0  0
  2  6  1  0  0  0  0
  5  9  1  0  0  0  0
  5 11  1  0  0  0  0
  6 10  1  0  0  0  0
  6 14  1  0  0  0  0
  7 18  1  0  0  0  0
  7 21  1  0  0  0  0
  7 22  1  0  0  0  0
  8 25  1  0  0  0  0
  8 26  1  0  0  0  0
  8 28  1  0  0  0  0
  9 10  1  0  0  0  0
  9 12  2  0  0  0  0
 10 23  2  0  0  0  0
 11 13  1  0  0  0  0
 11 34  1  0  0  0  0
 11 35  1  0  0  0  0
 12 15  1  0  0  0  0
 12 24  1  0  0  0  0
 13 15  1  0  0  0  0
 13 36  1  0  0  0  0
 13 37  1  0  0  0  0
 14 16  1  0  0  0  0
 14 38  1  0  0  0  0
 14 39  1  0  0  0  0
 15 40  1  0  0  0  0
 15 41  1  0  0  0  0
 16 17  1  0  0  0  0
 16 42  1  0  0  0  0
 16 43  1  0  0  0  0
 17 19  1  0  0  0  0
 17 44  1  0  0  0  0
 17 45  1  0  0  0  0
 18 20  1  0  0  0  0
 18 46  1  0  0  0  0
 18 47  1  0  0  0  0
 19 20  1  0  0  0  0
 19 48  1  0  0  0  0
 19 49  1  0  0  0  0
 20 50  1  0  0  0  0
 20 51  1  0  0  0  0
 21 25  1  0  0  0  0
 21 52  1  0  0  0  0
 21 53  1  0  0  0  0
 22 26  1  0  0  0  0
 22 54  1  0  0  0  0
 22 55  1  0  0  0  0
 23 27  1  0  0  0  0
 23 56  1  0  0  0  0
 24 27  2  0  0  0  0
 24 61  1  0  0  0  0
 25 57  1  0  0  0  0
 25 58  1  0  0  0  0
 26 59  1  0  0  0  0
 26 60  1  0  0  0  0
 27 62  1  0  0  0  0
 28 29  2  0  0  0  0
 28 30  1  0  0  0  0
 29 31  1  0  0  0  0
 29 63  1  0  0  0  0
 30 32  2  0  0  0  0
 30 64  1  0  0  0  0
 31 33  2  0  0  0  0
 32 33  1  0  0  0  0
 32 65  1  0  0  0  0
 33 66  1  0  0  0  0
M  END
> <PUBCHEM_COMPOUND_CID>
168293886

> <PUBCHEM_COMPOUND_CANONICALIZED>
1

> <PUBCHEM_CACTVS_COMPLEXITY>
739

> <PUBCHEM_CACTVS_HBOND_ACCEPTOR>
6

> <PUBCHEM_CACTVS_HBOND_DONOR>
0

> <PUBCHEM_CACTVS_ROTATABLE_BOND>
8

> <PUBCHEM_CACTVS_SUBSKEYS>
AAADcfB7sABEAAAAAAAAAAAAAAAAAWAAAAA8eIEAAAAAAFixQAAAHAIAQAAADArBGCQwwIMAAACAAiRCQDCCAAAhBwAIiAAIdogIYCLBk5GUIAhggADIyAcQgIAOAAAAQAICACAAAACABAQAQAAAAAAAAA==

> <PUBCHEM_IUPAC_OPENEYE_NAME>
3-[6-[4-(3-chlorophenyl)piperazin-1-yl]hexyl]-2lambda6-thia-1,3-diazatricyclo[6.3.1.04,12]dodeca-4,6,8(12)-triene 2,2-dioxide

> <PUBCHEM_IUPAC_CAS_NAME>
3-[6-[4-(3-chlorophenyl)-1-piperazinyl]hexyl]-2lambda6-thia-1,3-diazatricyclo[6.3.1.04,12]dodeca-4,6,8(12)-triene 2,2-dioxide

> <PUBCHEM_IUPAC_NAME_MARKUP>
3-[6-[4-(3-chlorophenyl)piperazin-1-yl]hexyl]-2&lambda;<SUP>6</SUP>-thia-1,3-diazatricyclo[6.3.1.0<SUP>4,12</SUP>]dodeca-4,6,8(12)-triene 2,2-dioxide

> <PUBCHEM_IUPAC_NAME>
3-[6-[4-(3-chlorophenyl)piperazin-1-yl]hexyl]-2lambda6-thia-1,3-diazatricyclo[6.3.1.04,12]dodeca-4,6,8(12)-triene 2,2-dioxide

> <PUBCHEM_IUPAC_SYSTEMATIC_NAME>
3-[6-[4-(3-chlorophenyl)piperazin-1-yl]hexyl]-2lambda6-thia-1,3-diazatricyclo[6.3.1.04,12]dodeca-4,6,8(12)-triene 2,2-dioxide

> <PUBCHEM_IUPAC_TRADITIONAL_NAME>
3-[6-[4-(3-chlorophenyl)piperazino]hexyl]-2lambda6-thia-1,3-diazatricyclo[6.3.1.04,12]dodeca-4,6,8(12)-triene 2,2-dioxide

> <PUBCHEM_IUPAC_INCHI>
InChI=1S/C25H33ClN4O2S/c26-22-10-6-11-23(20-22)28-18-16-27(17-19-28)13-3-1-2-4-14-29-24-12-5-8-21-9-7-15-30(25(21)24)33(29,31)32/h5-6,8,10-12,20H,1-4,7,9,13-19H2

> <PUBCHEM_IUPAC_INCHIKEY>
GGPXOELINLEIPA-UHFFFAOYSA-N

> <PUBCHEM_XLOGP3_AA>
4.7

> <PUBCHEM_EXACT_MASS>
488.2012752

> <PUBCHEM_MOLECULAR_FORMULA>
C25H33ClN4O2S

> <PUBCHEM_MOLECULAR_WEIGHT>
489.1

> <PUBCHEM_OPENEYE_CAN_SMILES>
C1CC2=C3C(=CC=C2)N(S(=O)(=O)N3C1)CCCCCCN4CCN(CC4)C5=CC(=CC=C5)Cl

> <PUBCHEM_OPENEYE_ISO_SMILES>
C1CC2=C3C(=CC=C2)N(S(=O)(=O)N3C1)CCCCCCN4CCN(CC4)C5=CC(=CC=C5)Cl

> <PUBCHEM_CACTVS_TPSA>
55.5

> <PUBCHEM_MONOISOTOPIC_WEIGHT>
488.2012752

> <PUBCHEM_TOTAL_CHARGE>
0

> <PUBCHEM_HEAVY_ATOM_COUNT>
33

> <PUBCHEM_ATOM_DEF_STEREO_COUNT>
0

> <PUBCHEM_ATOM_UDEF_STEREO_COUNT>
0

> <PUBCHEM_BOND_DEF_STEREO_COUNT>
0

> <PUBCHEM_BOND_UDEF_STEREO_COUNT>
0

> <PUBCHEM_ISOTOPIC_ATOM_COUNT>
0

> <PUBCHEM_COMPONENT_COUNT>
1

> <PUBCHEM_CACTVS_TAUTO_COUNT>
-1

> <PUBCHEM_COORDINATE_TYPE>
1
5
255

> <PUBCHEM_BONDANNOTATIONS>
10  23  8
12  24  8
23  27  8
24  27  8
28  29  8
28  30  8
29  31  8
30  32  8
31  33  8
32  33  8
9  10  8
9  12  8

$$$$
