130431342
  -OEChem-09292322412D

 66 69  0     1  0  0  0  0  0999 V2000
   15.7619   -2.2320    0.0000 Cl  0  0  0  0  0  0  0  0  0  0  0  0
    9.7619    1.2320    0.0000 O   0  0  0  0  0  0  0  0  0  0  0  0
   13.7619   -2.2320    0.0000 O   0  0  0  0  0  0  0  0  0  0  0  0
    4.6783    1.2933    0.0000 O   0  0  0  0  0  0  0  0  0  0  0  0
    6.7619    2.9641    0.0000 O   0  0  0  0  0  0  0  0  0  0  0  0
   10.7619   -0.5000    0.0000 N   0  0  0  0  0  0  0  0  0  0  0  0
   12.7619   -0.5000    0.0000 N   0  0  0  0  0  0  0  0  0  0  0  0
    6.7619    1.2320    0.0000 N   0  0  0  0  0  0  0  0  0  0  0  0
   11.2619    0.3660    0.0000 C   0  0  0  0  0  0  0  0  0  0  0  0
   11.2619   -1.3660    0.0000 C   0  0  0  0  0  0  0  0  0  0  0  0
   12.2619    0.3660    0.0000 C   0  0  0  0  0  0  0  0  0  0  0  0
   12.2619   -1.3660    0.0000 C   0  0  0  0  0  0  0  0  0  0  0  0
    9.7619   -0.5000    0.0000 C   0  0  0  0  0  0  0  0  0  0  0  0
    9.2619    0.3660    0.0000 C   0  0  3  0  0  0  0  0  0  0  0  0
   13.7619   -0.5000    0.0000 C   0  0  0  0  0  0  0  0  0  0  0  0
    8.2619    0.3660    0.0000 C   0  0  0  0  0  0  0  0  0  0  0  0
    7.7619    1.2320    0.0000 C   0  0  0  0  0  0  0  0  0  0  0  0
   14.2619    0.3660    0.0000 C   0  0  0  0  0  0  0  0  0  0  0  0
   14.2619   -1.3660    0.0000 C   0  0  0  0  0  0  0  0  0  0  0  0
   15.2619    0.3660    0.0000 C   0  0  0  0  0  0  0  0  0  0  0  0
   15.2619   -1.3660    0.0000 C   0  0  0  0  0  0  0  0  0  0  0  0
   15.7619   -0.5000    0.0000 C   0  0  0  0  0  0  0  0  0  0  0  0
   15.7619    1.2320    0.0000 C   0  0  0  0  0  0  0  0  0  0  0  0
    6.2619    2.0981    0.0000 C   0  0  0  0  0  0  0  0  0  0  0  0
   16.7619    1.2320    0.0000 C   0  0  0  0  0  0  0  0  0  0  0  0
   14.2619   -3.0981    0.0000 C   0  0  0  0  0  0  0  0  0  0  0  0
    5.2619    2.0981    0.0000 C   0  0  0  0  0  0  0  0  0  0  0  0
    4.6783    2.9028    0.0000 C   0  0  0  0  0  0  0  0  0  0  0  0
    3.7320    2.5981    0.0000 C   0  0  0  0  0  0  0  0  0  0  0  0
    3.7320    1.5981    0.0000 C   0  0  0  0  0  0  0  0  0  0  0  0
    2.8660    3.0981    0.0000 C   0  0  0  0  0  0  0  0  0  0  0  0
    2.8660    1.0981    0.0000 C   0  0  0  0  0  0  0  0  0  0  0  0
    2.0000    2.5981    0.0000 C   0  0  0  0  0  0  0  0  0  0  0  0
    2.0000    1.5981    0.0000 C   0  0  0  0  0  0  0  0  0  0  0  0
   11.3695    0.9766    0.0000 H   0  0  0  0  0  0  0  0  0  0  0  0
   10.6793    0.5781    0.0000 H   0  0  0  0  0  0  0  0  0  0  0  0
   10.6793   -1.5781    0.0000 H   0  0  0  0  0  0  0  0  0  0  0  0
   11.3695   -1.9766    0.0000 H   0  0  0  0  0  0  0  0  0  0  0  0
   12.8445    0.5781    0.0000 H   0  0  0  0  0  0  0  0  0  0  0  0
   12.1542    0.9766    0.0000 H   0  0  0  0  0  0  0  0  0  0  0  0
   12.1542   -1.9766    0.0000 H   0  0  0  0  0  0  0  0  0  0  0  0
   12.8445   -1.5781    0.0000 H   0  0  0  0  0  0  0  0  0  0  0  0
    9.1793   -0.7121    0.0000 H   0  0  0  0  0  0  0  0  0  0  0  0
    9.8695   -1.1106    0.0000 H   0  0  0  0  0  0  0  0  0  0  0  0
    8.9519    0.9030    0.0000 H   0  0  0  0  0  0  0  0  0  0  0  0
    7.6793    0.1540    0.0000 H   0  0  0  0  0  0  0  0  0  0  0  0
    8.3695   -0.2446    0.0000 H   0  0  0  0  0  0  0  0  0  0  0  0
    8.3445    1.4441    0.0000 H   0  0  0  0  0  0  0  0  0  0  0  0
    7.6542    1.8426    0.0000 H   0  0  0  0  0  0  0  0  0  0  0  0
   13.9519    0.9030    0.0000 H   0  0  0  0  0  0  0  0  0  0  0  0
    9.4519    1.7690    0.0000 H   0  0  0  0  0  0  0  0  0  0  0  0
   16.3819   -0.5000    0.0000 H   0  0  0  0  0  0  0  0  0  0  0  0
    6.4519    0.6951    0.0000 H   0  0  0  0  0  0  0  0  0  0  0  0
   15.8695    1.8426    0.0000 H   0  0  0  0  0  0  0  0  0  0  0  0
   15.1793    1.4441    0.0000 H   0  0  0  0  0  0  0  0  0  0  0  0
   16.7619    0.6121    0.0000 H   0  0  0  0  0  0  0  0  0  0  0  0
   17.3819    1.2320    0.0000 H   0  0  0  0  0  0  0  0  0  0  0  0
   16.7619    1.8520    0.0000 H   0  0  0  0  0  0  0  0  0  0  0  0
   13.7249   -3.4081    0.0000 H   0  0  0  0  0  0  0  0  0  0  0  0
   14.5719   -3.6350    0.0000 H   0  0  0  0  0  0  0  0  0  0  0  0
   14.7988   -2.7881    0.0000 H   0  0  0  0  0  0  0  0  0  0  0  0
    4.8709    3.4921    0.0000 H   0  0  0  0  0  0  0  0  0  0  0  0
    2.8660    3.7181    0.0000 H   0  0  0  0  0  0  0  0  0  0  0  0
    2.8660    0.4781    0.0000 H   0  0  0  0  0  0  0  0  0  0  0  0
    1.4631    2.9081    0.0000 H   0  0  0  0  0  0  0  0  0  0  0  0
    1.4631    1.2881    0.0000 H   0  0  0  0  0  0  0  0  0  0  0  0
  1 21  1  0  0  0  0
  2 14  1  0  0  0  0
  2 51  1  0  0  0  0
  3 19  1  0  0  0  0
  3 26  1  0  0  0  0
  4 27  1  0  0  0  0
  4 30  1  0  0  0  0
  5 24  2  0  0  0  0
  6  9  1  0  0  0  0
  6 10  1  0  0  0  0
  6 13  1  0  0  0  0
  7 11  1  0  0  0  0
  7 12  1  0  0  0  0
  7 15  1  0  0  0  0
  8 17  1  0  0  0  0
  8 24  1  0  0  0  0
  8 53  1  0  0  0  0
  9 11  1  0  0  0  0
  9 35  1  0  0  0  0
  9 36  1  0  0  0  0
 10 12  1  0  0  0  0
 10 37  1  0  0  0  0
 10 38  1  0  0  0  0
 11 39  1  0  0  0  0
 11 40  1  0  0  0  0
 12 41  1  0  0  0  0
 12 42  1  0  0  0  0
 13 14  1  0  0  0  0
 13 43  1  0  0  0  0
 13 44  1  0  0  0  0
 14 16  1  0  0  0  0
 14 45  1  0  0  0  0
 15 18  1  0  0  0  0
 15 19  2  0  0  0  0
 16 17  1  0  0  0  0
 16 46  1  0  0  0  0
 16 47  1  0  0  0  0
 17 48  1  0  0  0  0
 17 49  1  0  0  0  0
 18 20  2  0  0  0  0
 18 50  1  0  0  0  0
 19 21  1  0  0  0  0
 20 22  1  0  0  0  0
 20 23  1  0  0  0  0
 21 22  2  0  0  0  0
 22 52  1  0  0  0  0
 23 25  1  0  0  0  0
 23 54  1  0  0  0  0
 23 55  1  0  0  0  0
 24 27  1  0  0  0  0
 25 56  1  0  0  0  0
 25 57  1  0  0  0  0
 25 58  1  0  0  0  0
 26 59  1  0  0  0  0
 26 60  1  0  0  0  0
 26 61  1  0  0  0  0
 27 28  2  0  0  0  0
 28 29  1  0  0  0  0
 28 62  1  0  0  0  0
 29 30  1  0  0  0  0
 29 31  2  0  0  0  0
 30 32  2  0  0  0  0
 31 33  1  0  0  0  0
 31 63  1  0  0  0  0
 32 34  1  0  0  0  0
 32 64  1  0  0  0  0
 33 34  2  0  0  0  0
 33 65  1  0  0  0  0
 34 66  1  0  0  0  0
M  END
> <PUBCHEM_COMPOUND_CID>
130431342

> <PUBCHEM_COMPOUND_CANONICALIZED>
1

> <PUBCHEM_CACTVS_COMPLEXITY>
648

> <PUBCHEM_CACTVS_HBOND_ACCEPTOR>
6

> <PUBCHEM_CACTVS_HBOND_DONOR>
2

> <PUBCHEM_CACTVS_ROTATABLE_BOND>
9

> <PUBCHEM_CACTVS_SUBSKEYS>
AAADcfB7OAAEAAAAAAAAAAAAAAAAASAAAAA8YIAAAAAAAEgB9AAAHgIQCAAADB7hmCYyxsPABkCIAqVSUAKCCAAlJ0AIiIHPb8gOdjPFt7+XeSjm1hHY6YeY36LuIAAAYAIIGABAAADABBAwAAAAAAAAAA==

> <PUBCHEM_IUPAC_OPENEYE_NAME>
N-[4-[4-(3-chloro-5-ethyl-2-methoxy-phenyl)piperazin-1-yl]-3-hydroxy-butyl]benzofuran-2-carboxamide

> <PUBCHEM_IUPAC_CAS_NAME>
N-[4-[4-(3-chloro-5-ethyl-2-methoxyphenyl)-1-piperazinyl]-3-hydroxybutyl]-2-benzofurancarboxamide

> <PUBCHEM_IUPAC_NAME_MARKUP>
<I>N</I>-[4-[4-(3-chloro-5-ethyl-2-methoxyphenyl)piperazin-1-yl]-3-hydroxybutyl]-1-benzofuran-2-carboxamide

> <PUBCHEM_IUPAC_NAME>
N-[4-[4-(3-chloro-5-ethyl-2-methoxyphenyl)piperazin-1-yl]-3-hydroxybutyl]-1-benzofuran-2-carboxamide

> <PUBCHEM_IUPAC_SYSTEMATIC_NAME>
N-[4-[4-(3-chloranyl-5-ethyl-2-methoxy-phenyl)piperazin-1-yl]-3-oxidanyl-butyl]-1-benzofuran-2-carboxamide

> <PUBCHEM_IUPAC_TRADITIONAL_NAME>
N-[4-[4-(3-chloro-5-ethyl-2-methoxy-phenyl)piperazino]-3-hydroxy-butyl]coumarilamide

> <PUBCHEM_IUPAC_INCHI>
InChI=1S/C26H32ClN3O4/c1-3-18-14-21(27)25(33-2)22(15-18)30-12-10-29(11-13-30)17-20(31)8-9-28-26(32)24-16-19-6-4-5-7-23(19)34-24/h4-7,14-16,20,31H,3,8-13,17H2,1-2H3,(H,28,32)

> <PUBCHEM_IUPAC_INCHIKEY>
VGKVZFQYJAJYLD-UHFFFAOYSA-N

> <PUBCHEM_XLOGP3_AA>
4.7

> <PUBCHEM_EXACT_MASS>
485.2081342

> <PUBCHEM_MOLECULAR_FORMULA>
C26H32ClN3O4

> <PUBCHEM_MOLECULAR_WEIGHT>
486.0

> <PUBCHEM_OPENEYE_CAN_SMILES>
CCC1=CC(=C(C(=C1)Cl)OC)N2CCN(CC2)CC(CCNC(=O)C3=CC4=CC=CC=C4O3)O

> <PUBCHEM_OPENEYE_ISO_SMILES>
CCC1=CC(=C(C(=C1)Cl)OC)N2CCN(CC2)CC(CCNC(=O)C3=CC4=CC=CC=C4O3)O

> <PUBCHEM_CACTVS_TPSA>
78.2

> <PUBCHEM_MONOISOTOPIC_WEIGHT>
485.2081342

> <PUBCHEM_TOTAL_CHARGE>
0

> <PUBCHEM_HEAVY_ATOM_COUNT>
34

> <PUBCHEM_ATOM_DEF_STEREO_COUNT>
0

> <PUBCHEM_ATOM_UDEF_STEREO_COUNT>
1

> <PUBCHEM_BOND_DEF_STEREO_COUNT>
0

> <PUBCHEM_BOND_UDEF_STEREO_COUNT>
0

> <PUBCHEM_ISOTOPIC_ATOM_COUNT>
0

> <PUBCHEM_COMPONENT_COUNT>
1

> <PUBCHEM_CACTVS_TAUTO_COUNT>
-1

> <PUBCHEM_COORDINATE_TYPE>
1
5
255

> <PUBCHEM_BONDANNOTATIONS>
15  18  8
15  19  8
18  20  8
19  21  8
14  2  3
20  22  8
21  22  8
27  28  8
28  29  8
29  30  8
29  31  8
30  32  8
31  33  8
32  34  8
33  34  8
4  27  8
4  30  8

$$$$
