168287126
  -OEChem-09292322442D

 57 61  0     0  0  0  0  0  0999 V2000
   10.9065   -1.4503    0.0000 N   0  0  0  0  0  0  0  0  0  0  0  0
    9.5708    0.0383    0.0000 N   0  0  0  0  0  0  0  0  0  0  0  0
    7.9244    0.5764    0.0000 N   0  0  0  0  0  0  0  0  0  0  0  0
    9.2136    1.7331    0.0000 N   0  0  0  0  0  0  0  0  0  0  0  0
    6.2781    1.1145    0.0000 N   0  0  0  0  0  0  0  0  0  0  0  0
    4.6783   -2.6022    0.0000 N   0  0  0  0  0  0  0  0  0  0  0  0
    7.5673    2.2712    0.0000 N   0  0  0  0  0  0  0  0  0  0  0  0
    8.8564    3.4280    0.0000 N   0  0  0  0  0  0  0  0  0  0  0  0
    9.9280   -1.6565    0.0000 C   0  0  0  0  0  0  0  0  0  0  0  0
   11.2171   -0.4998    0.0000 C   0  0  0  0  0  0  0  0  0  0  0  0
    9.2601   -0.9122    0.0000 C   0  0  0  0  0  0  0  0  0  0  0  0
   10.5493    0.2445    0.0000 C   0  0  0  0  0  0  0  0  0  0  0  0
   11.5743   -2.1946    0.0000 C   0  0  0  0  0  0  0  0  0  0  0  0
    8.9030    0.7826    0.0000 C   0  0  0  0  0  0  0  0  0  0  0  0
   11.2637   -3.1451    0.0000 C   0  0  0  0  0  0  0  0  0  0  0  0
   12.5528   -1.9884    0.0000 C   0  0  0  0  0  0  0  0  0  0  0  0
    4.9889   -0.0423    0.0000 C   0  0  0  0  0  0  0  0  0  0  0  0
    4.6783   -0.9928    0.0000 C   0  0  0  0  0  0  0  0  0  0  0  0
    5.9674    0.1640    0.0000 C   0  0  0  0  0  0  0  0  0  0  0  0
    3.7320   -1.2975    0.0000 C   0  0  0  0  0  0  0  0  0  0  0  0
    7.2566    1.3207    0.0000 C   0  0  0  0  0  0  0  0  0  0  0  0
    3.7320   -2.2975    0.0000 C   0  0  0  0  0  0  0  0  0  0  0  0
    5.2619   -1.7975    0.0000 C   0  0  0  0  0  0  0  0  0  0  0  0
   11.9315   -3.8894    0.0000 C   0  0  0  0  0  0  0  0  0  0  0  0
   13.2207   -2.7327    0.0000 C   0  0  0  0  0  0  0  0  0  0  0  0
   12.9100   -3.6832    0.0000 C   0  0  0  0  0  0  0  0  0  0  0  0
    8.5458    2.4774    0.0000 C   0  0  0  0  0  0  0  0  0  0  0  0
    2.8660   -0.7975    0.0000 C   0  0  0  0  0  0  0  0  0  0  0  0
    2.8660   -2.7975    0.0000 C   0  0  0  0  0  0  0  0  0  0  0  0
    2.0000   -1.2975    0.0000 C   0  0  0  0  0  0  0  0  0  0  0  0
    2.0000   -2.2975    0.0000 C   0  0  0  0  0  0  0  0  0  0  0  0
    9.4016   -1.9842    0.0000 H   0  0  0  0  0  0  0  0  0  0  0  0
   10.1592   -2.2318    0.0000 H   0  0  0  0  0  0  0  0  0  0  0  0
   11.7641   -0.7918    0.0000 H   0  0  0  0  0  0  0  0  0  0  0  0
   11.5997   -0.0119    0.0000 H   0  0  0  0  0  0  0  0  0  0  0  0
    8.7132   -0.6202    0.0000 H   0  0  0  0  0  0  0  0  0  0  0  0
    8.8776   -1.4001    0.0000 H   0  0  0  0  0  0  0  0  0  0  0  0
   11.0757    0.5722    0.0000 H   0  0  0  0  0  0  0  0  0  0  0  0
   10.3180    0.8198    0.0000 H   0  0  0  0  0  0  0  0  0  0  0  0
   10.6570   -3.2730    0.0000 H   0  0  0  0  0  0  0  0  0  0  0  0
   12.7454   -1.3991    0.0000 H   0  0  0  0  0  0  0  0  0  0  0  0
    4.9684    0.5774    0.0000 H   0  0  0  0  0  0  0  0  0  0  0  0
    4.3751    0.0451    0.0000 H   0  0  0  0  0  0  0  0  0  0  0  0
    5.9880   -0.4557    0.0000 H   0  0  0  0  0  0  0  0  0  0  0  0
    6.5812    0.0766    0.0000 H   0  0  0  0  0  0  0  0  0  0  0  0
    5.8640    1.5759    0.0000 H   0  0  0  0  0  0  0  0  0  0  0  0
    5.8819   -1.7975    0.0000 H   0  0  0  0  0  0  0  0  0  0  0  0
   11.7389   -4.4787    0.0000 H   0  0  0  0  0  0  0  0  0  0  0  0
   13.8274   -2.6048    0.0000 H   0  0  0  0  0  0  0  0  0  0  0  0
    4.8709   -3.1916    0.0000 H   0  0  0  0  0  0  0  0  0  0  0  0
   13.3241   -4.1447    0.0000 H   0  0  0  0  0  0  0  0  0  0  0  0
    2.8660   -0.1775    0.0000 H   0  0  0  0  0  0  0  0  0  0  0  0
    2.8660   -3.4175    0.0000 H   0  0  0  0  0  0  0  0  0  0  0  0
    1.4631   -0.9875    0.0000 H   0  0  0  0  0  0  0  0  0  0  0  0
    1.4631   -2.6075    0.0000 H   0  0  0  0  0  0  0  0  0  0  0  0
    8.4424    3.8894    0.0000 H   0  0  0  0  0  0  0  0  0  0  0  0
    9.4631    3.5558    0.0000 H   0  0  0  0  0  0  0  0  0  0  0  0
  1  9  1  0  0  0  0
  1 10  1  0  0  0  0
  1 13  1  0  0  0  0
  2 11  1  0  0  0  0
  2 12  1  0  0  0  0
  2 14  1  0  0  0  0
  3 14  1  0  0  0  0
  3 21  2  0  0  0  0
  4 14  2  0  0  0  0
  4 27  1  0  0  0  0
  5 19  1  0  0  0  0
  5 21  1  0  0  0  0
  5 46  1  0  0  0  0
  6 22  1  0  0  0  0
  6 23  1  0  0  0  0
  6 50  1  0  0  0  0
  7 21  1  0  0  0  0
  7 27  2  0  0  0  0
  8 27  1  0  0  0  0
  8 56  1  0  0  0  0
  8 57  1  0  0  0  0
  9 11  1  0  0  0  0
  9 32  1  0  0  0  0
  9 33  1  0  0  0  0
 10 12  1  0  0  0  0
 10 34  1  0  0  0  0
 10 35  1  0  0  0  0
 11 36  1  0  0  0  0
 11 37  1  0  0  0  0
 12 38  1  0  0  0  0
 12 39  1  0  0  0  0
 13 15  2  0  0  0  0
 13 16  1  0  0  0  0
 15 24  1  0  0  0  0
 15 40  1  0  0  0  0
 16 25  2  0  0  0  0
 16 41  1  0  0  0  0
 17 18  1  0  0  0  0
 17 19  1  0  0  0  0
 17 42  1  0  0  0  0
 17 43  1  0  0  0  0
 18 20  1  0  0  0  0
 18 23  2  0  0  0  0
 19 44  1  0  0  0  0
 19 45  1  0  0  0  0
 20 22  1  0  0  0  0
 20 28  2  0  0  0  0
 22 29  2  0  0  0  0
 23 47  1  0  0  0  0
 24 26  2  0  0  0  0
 24 48  1  0  0  0  0
 25 26  1  0  0  0  0
 25 49  1  0  0  0  0
 26 51  1  0  0  0  0
 28 30  1  0  0  0  0
 28 52  1  0  0  0  0
 29 31  1  0  0  0  0
 29 53  1  0  0  0  0
 30 31  2  0  0  0  0
 30 54  1  0  0  0  0
 31 55  1  0  0  0  0
M  END
> <PUBCHEM_COMPOUND_CID>
168287126

> <PUBCHEM_COMPOUND_CANONICALIZED>
1

> <PUBCHEM_CACTVS_COMPLEXITY>
548

> <PUBCHEM_CACTVS_HBOND_ACCEPTOR>
7

> <PUBCHEM_CACTVS_HBOND_DONOR>
3

> <PUBCHEM_CACTVS_ROTATABLE_BOND>
6

> <PUBCHEM_CACTVS_SUBSKEYS>
AAADceB7wAAAAAAAAAAAAAAAAAAAAWAAAAA8eIEAAAAAAFgB/AAAHAAQAAAADAjBHgQ90PfJkACgAzRnZACCgCkxAqAJ2aA4ZJiIaOLAmZGUIAhokALIyAcQgMAOgAAAAAACAAAAAAAAAAQAAAAAAAAAAA==

> <PUBCHEM_IUPAC_OPENEYE_NAME>
N2-[2-(1H-indol-3-yl)ethyl]-6-(4-phenylpiperazin-1-yl)-1,3,5-triazine-2,4-diamine

> <PUBCHEM_IUPAC_CAS_NAME>
N2-[2-(1H-indol-3-yl)ethyl]-6-(4-phenyl-1-piperazinyl)-1,3,5-triazine-2,4-diamine

> <PUBCHEM_IUPAC_NAME_MARKUP>
2-<I>N</I>-[2-(1<I>H</I>-indol-3-yl)ethyl]-6-(4-phenylpiperazin-1-yl)-1,3,5-triazine-2,4-diamine

> <PUBCHEM_IUPAC_NAME>
2-N-[2-(1H-indol-3-yl)ethyl]-6-(4-phenylpiperazin-1-yl)-1,3,5-triazine-2,4-diamine

> <PUBCHEM_IUPAC_SYSTEMATIC_NAME>
N2-[2-(1H-indol-3-yl)ethyl]-6-(4-phenylpiperazin-1-yl)-1,3,5-triazine-2,4-diamine

> <PUBCHEM_IUPAC_TRADITIONAL_NAME>
[4-amino-6-(4-phenylpiperazino)-s-triazin-2-yl]-[2-(1H-indol-3-yl)ethyl]amine

> <PUBCHEM_IUPAC_INCHI>
InChI=1S/C23H26N8/c24-21-27-22(25-11-10-17-16-26-20-9-5-4-8-19(17)20)29-23(28-21)31-14-12-30(13-15-31)18-6-2-1-3-7-18/h1-9,16,26H,10-15H2,(H3,24,25,27,28,29)

> <PUBCHEM_IUPAC_INCHIKEY>
ZVDYCLIYIAFRGQ-UHFFFAOYSA-N

> <PUBCHEM_XLOGP3>
4.3

> <PUBCHEM_EXACT_MASS>
414.22804286

> <PUBCHEM_MOLECULAR_FORMULA>
C23H26N8

> <PUBCHEM_MOLECULAR_WEIGHT>
414.5

> <PUBCHEM_OPENEYE_CAN_SMILES>
C1CN(CCN1C2=CC=CC=C2)C3=NC(=NC(=N3)NCCC4=CNC5=CC=CC=C54)N

> <PUBCHEM_OPENEYE_ISO_SMILES>
C1CN(CCN1C2=CC=CC=C2)C3=NC(=NC(=N3)NCCC4=CNC5=CC=CC=C54)N

> <PUBCHEM_CACTVS_TPSA>
99

> <PUBCHEM_MONOISOTOPIC_WEIGHT>
414.22804286

> <PUBCHEM_TOTAL_CHARGE>
0

> <PUBCHEM_HEAVY_ATOM_COUNT>
31

> <PUBCHEM_ATOM_DEF_STEREO_COUNT>
0

> <PUBCHEM_ATOM_UDEF_STEREO_COUNT>
0

> <PUBCHEM_BOND_DEF_STEREO_COUNT>
0

> <PUBCHEM_BOND_UDEF_STEREO_COUNT>
0

> <PUBCHEM_ISOTOPIC_ATOM_COUNT>
0

> <PUBCHEM_COMPONENT_COUNT>
1

> <PUBCHEM_CACTVS_TAUTO_COUNT>
-1

> <PUBCHEM_COORDINATE_TYPE>
1
5
255

> <PUBCHEM_BONDANNOTATIONS>
13  15  8
13  16  8
15  24  8
16  25  8
18  20  8
18  23  8
20  22  8
20  28  8
22  29  8
24  26  8
25  26  8
28  30  8
29  31  8
3  14  8
3  21  8
30  31  8
4  14  8
4  27  8
6  22  8
6  23  8
7  21  8
7  27  8

$$$$
