16123462
  -OEChem-09292322302D

 55 58  0     1  0  0  0  0  0999 V2000
    5.0249    1.1545    0.0000 S   0  0  0  0  0  0  0  0  0  0  0  0
    4.5249    2.0205    0.0000 O   0  0  0  0  0  0  0  0  0  0  0  0
    5.5249    0.2885    0.0000 O   0  0  0  0  0  0  0  0  0  0  0  0
    2.6200   -3.8455    0.0000 N   0  0  0  0  0  0  0  0  0  0  0  0
    4.1588    0.6545    0.0000 N   0  0  0  0  0  0  0  0  0  0  0  0
    4.1588   -3.3455    0.0000 C   0  0  1  0  0  0  0  0  0  0  0  0
    4.1588   -4.3455    0.0000 C   0  0  2  0  0  0  0  0  0  0  0  0
    5.0254   -3.8455    0.0000 C   0  0  0  0  0  0  0  0  0  0  0  0
    3.2078   -3.0365    0.0000 C   0  0  0  0  0  0  0  0  0  0  0  0
    3.2078   -4.6545    0.0000 C   0  0  0  0  0  0  0  0  0  0  0  0
    4.1588   -2.3455    0.0000 C   0  0  0  0  0  0  0  0  0  0  0  0
    3.2928   -1.8455    0.0000 C   0  0  0  0  0  0  0  0  0  0  0  0
    5.0249   -1.8455    0.0000 C   0  0  0  0  0  0  0  0  0  0  0  0
    3.2928   -0.8455    0.0000 C   0  0  0  0  0  0  0  0  0  0  0  0
    5.0249   -0.8455    0.0000 C   0  0  0  0  0  0  0  0  0  0  0  0
    4.1588   -0.3455    0.0000 C   0  0  0  0  0  0  0  0  0  0  0  0
    8.4890    3.1545    0.0000 C   0  0  0  0  0  0  0  0  0  0  0  0
    5.8909    1.6545    0.0000 C   0  0  0  0  0  0  0  0  0  0  0  0
    7.6229    2.6545    0.0000 C   0  0  0  0  0  0  0  0  0  0  0  0
    9.3550    3.6545    0.0000 C   0  0  0  0  0  0  0  0  0  0  0  0
    7.9890    4.0205    0.0000 C   0  0  0  0  0  0  0  0  0  0  0  0
    8.9890    2.2885    0.0000 C   0  0  0  0  0  0  0  0  0  0  0  0
    6.7569    1.1545    0.0000 C   0  0  0  0  0  0  0  0  0  0  0  0
    5.8909    2.6545    0.0000 C   0  0  0  0  0  0  0  0  0  0  0  0
    7.6229    1.6545    0.0000 C   0  0  0  0  0  0  0  0  0  0  0  0
    6.7569    3.1545    0.0000 C   0  0  0  0  0  0  0  0  0  0  0  0
    9.3550    4.6545    0.0000 C   0  0  0  0  0  0  0  0  0  0  0  0
    4.5045   -5.1220    0.0000 H   0  0  0  0  0  0  0  0  0  0  0  0
    5.4239   -4.3205    0.0000 H   0  0  0  0  0  0  0  0  0  0  0  0
    5.4239   -3.3705    0.0000 H   0  0  0  0  0  0  0  0  0  0  0  0
    3.4600   -2.4701    0.0000 H   0  0  0  0  0  0  0  0  0  0  0  0
    2.6708   -2.7265    0.0000 H   0  0  0  0  0  0  0  0  0  0  0  0
    2.6708   -4.9645    0.0000 H   0  0  0  0  0  0  0  0  0  0  0  0
    3.4600   -5.2209    0.0000 H   0  0  0  0  0  0  0  0  0  0  0  0
    2.0000   -3.8455    0.0000 H   0  0  0  0  0  0  0  0  0  0  0  0
    2.7559   -2.1555    0.0000 H   0  0  0  0  0  0  0  0  0  0  0  0
    5.5618   -2.1555    0.0000 H   0  0  0  0  0  0  0  0  0  0  0  0
    2.7559   -0.5355    0.0000 H   0  0  0  0  0  0  0  0  0  0  0  0
    5.5618   -0.5355    0.0000 H   0  0  0  0  0  0  0  0  0  0  0  0
    3.6219    0.9645    0.0000 H   0  0  0  0  0  0  0  0  0  0  0  0
    9.5670    3.0719    0.0000 H   0  0  0  0  0  0  0  0  0  0  0  0
    9.9656    3.7622    0.0000 H   0  0  0  0  0  0  0  0  0  0  0  0
    8.5259    4.3305    0.0000 H   0  0  0  0  0  0  0  0  0  0  0  0
    7.6790    4.5575    0.0000 H   0  0  0  0  0  0  0  0  0  0  0  0
    7.4520    3.7105    0.0000 H   0  0  0  0  0  0  0  0  0  0  0  0
    8.4520    1.9785    0.0000 H   0  0  0  0  0  0  0  0  0  0  0  0
    9.2990    1.7516    0.0000 H   0  0  0  0  0  0  0  0  0  0  0  0
    9.5259    2.5985    0.0000 H   0  0  0  0  0  0  0  0  0  0  0  0
    8.1599    1.3445    0.0000 H   0  0  0  0  0  0  0  0  0  0  0  0
    6.7569    3.7745    0.0000 H   0  0  0  0  0  0  0  0  0  0  0  0
    6.7569    0.5345    0.0000 H   0  0  0  0  0  0  0  0  0  0  0  0
    5.3540    2.9645    0.0000 H   0  0  0  0  0  0  0  0  0  0  0  0
    9.9750    4.6545    0.0000 H   0  0  0  0  0  0  0  0  0  0  0  0
    9.3550    5.2745    0.0000 H   0  0  0  0  0  0  0  0  0  0  0  0
    8.7350    4.6545    0.0000 H   0  0  0  0  0  0  0  0  0  0  0  0
  1  2  2  0  0  0  0
  1  3  2  0  0  0  0
  1  5  1  0  0  0  0
  1 18  1  0  0  0  0
  4  9  1  0  0  0  0
  4 10  1  0  0  0  0
  4 35  1  0  0  0  0
  5 16  1  0  0  0  0
  5 40  1  0  0  0  0
  6  7  1  0  0  0  0
  6  8  1  0  0  0  0
  6  9  1  0  0  0  0
  6 11  1  1  0  0  0
  7  8  1  0  0  0  0
  7 10  1  0  0  0  0
  7 28  1  1  0  0  0
  8 29  1  0  0  0  0
  8 30  1  0  0  0  0
  9 31  1  0  0  0  0
  9 32  1  0  0  0  0
 10 33  1  0  0  0  0
 10 34  1  0  0  0  0
 11 12  2  0  0  0  0
 11 13  1  0  0  0  0
 12 14  1  0  0  0  0
 12 36  1  0  0  0  0
 13 15  2  0  0  0  0
 13 37  1  0  0  0  0
 14 16  2  0  0  0  0
 14 38  1  0  0  0  0
 15 16  1  0  0  0  0
 15 39  1  0  0  0  0
 17 19  1  0  0  0  0
 17 20  1  0  0  0  0
 17 21  1  0  0  0  0
 17 22  1  0  0  0  0
 18 23  2  0  0  0  0
 18 24  1  0  0  0  0
 19 25  2  0  0  0  0
 19 26  1  0  0  0  0
 20 27  1  0  0  0  0
 20 41  1  0  0  0  0
 20 42  1  0  0  0  0
 21 43  1  0  0  0  0
 21 44  1  0  0  0  0
 21 45  1  0  0  0  0
 22 46  1  0  0  0  0
 22 47  1  0  0  0  0
 22 48  1  0  0  0  0
 23 25  1  0  0  0  0
 23 51  1  0  0  0  0
 24 26  2  0  0  0  0
 24 52  1  0  0  0  0
 25 49  1  0  0  0  0
 26 50  1  0  0  0  0
 27 53  1  0  0  0  0
 27 54  1  0  0  0  0
 27 55  1  0  0  0  0
M  END
> <PUBCHEM_COMPOUND_CID>
16123462

> <PUBCHEM_COMPOUND_CANONICALIZED>
1

> <PUBCHEM_CACTVS_COMPLEXITY>
625

> <PUBCHEM_CACTVS_HBOND_ACCEPTOR>
4

> <PUBCHEM_CACTVS_HBOND_DONOR>
2

> <PUBCHEM_CACTVS_ROTATABLE_BOND>
6

> <PUBCHEM_CACTVS_SUBSKEYS>
AAADceB7MABAAAAAAAAAAAAAGAAAAWAAAAA8YIAAAAAAAAABQAAAHAQQQAAADwjBWAQywYLAAAKAAiRCQHDCABAgAgAIiJgIZIgIICKAkZGEIABgkACIyAcQgMAPmAAAAAAAAAAwAAAAAAAAAAAAAAAAAA==

> <PUBCHEM_IUPAC_OPENEYE_NAME>
N-[4-[(1R,5S)-3-azabicyclo[3.1.0]hexan-1-yl]phenyl]-4-(1,1-dimethylpropyl)benzenesulfonamide

> <PUBCHEM_IUPAC_CAS_NAME>
N-[4-[(1R,5S)-3-azabicyclo[3.1.0]hexan-1-yl]phenyl]-4-(2-methylbutan-2-yl)benzenesulfonamide

> <PUBCHEM_IUPAC_NAME_MARKUP>
<I>N</I>-[4-[(1<I>R</I>,5<I>S</I>)-3-azabicyclo[3.1.0]hexan-1-yl]phenyl]-4-(2-methylbutan-2-yl)benzenesulfonamide

> <PUBCHEM_IUPAC_NAME>
N-[4-[(1R,5S)-3-azabicyclo[3.1.0]hexan-1-yl]phenyl]-4-(2-methylbutan-2-yl)benzenesulfonamide

> <PUBCHEM_IUPAC_SYSTEMATIC_NAME>
N-[4-[(1R,5S)-3-azabicyclo[3.1.0]hexan-1-yl]phenyl]-4-(2-methylbutan-2-yl)benzenesulfonamide

> <PUBCHEM_IUPAC_TRADITIONAL_NAME>
4-tert-amyl-N-[4-[(1R,5S)-3-azabicyclo[3.1.0]hexan-1-yl]phenyl]benzenesulfonamide

> <PUBCHEM_IUPAC_INCHI>
InChI=1S/C22H28N2O2S/c1-4-21(2,3)16-7-11-20(12-8-16)27(25,26)24-19-9-5-17(6-10-19)22-13-18(22)14-23-15-22/h5-12,18,23-24H,4,13-15H2,1-3H3/t18-,22+/m1/s1

> <PUBCHEM_IUPAC_INCHIKEY>
PFWVQEFSAUYDCS-GCJKJVERSA-N

> <PUBCHEM_XLOGP3_AA>
4.5

> <PUBCHEM_EXACT_MASS>
384.18714931

> <PUBCHEM_MOLECULAR_FORMULA>
C22H28N2O2S

> <PUBCHEM_MOLECULAR_WEIGHT>
384.5

> <PUBCHEM_OPENEYE_CAN_SMILES>
CCC(C)(C)C1=CC=C(C=C1)S(=O)(=O)NC2=CC=C(C=C2)C34CC3CNC4

> <PUBCHEM_OPENEYE_ISO_SMILES>
CCC(C)(C)C1=CC=C(C=C1)S(=O)(=O)NC2=CC=C(C=C2)[C@@]34C[C@@H]3CNC4

> <PUBCHEM_CACTVS_TPSA>
66.6

> <PUBCHEM_MONOISOTOPIC_WEIGHT>
384.18714931

> <PUBCHEM_TOTAL_CHARGE>
0

> <PUBCHEM_HEAVY_ATOM_COUNT>
27

> <PUBCHEM_ATOM_DEF_STEREO_COUNT>
2

> <PUBCHEM_ATOM_UDEF_STEREO_COUNT>
0

> <PUBCHEM_BOND_DEF_STEREO_COUNT>
0

> <PUBCHEM_BOND_UDEF_STEREO_COUNT>
0

> <PUBCHEM_ISOTOPIC_ATOM_COUNT>
0

> <PUBCHEM_COMPONENT_COUNT>
1

> <PUBCHEM_CACTVS_TAUTO_COUNT>
-1

> <PUBCHEM_COORDINATE_TYPE>
1
5
255

> <PUBCHEM_BONDANNOTATIONS>
11  12  8
11  13  8
12  14  8
13  15  8
14  16  8
15  16  8
18  23  8
18  24  8
19  25  8
19  26  8
23  25  8
24  26  8
6  11  5
7  28  5

$$$$
