73347474
  -OEChem-09292322332D

 87 89  0     1  0  0  0  0  0999 V2000
    3.7320    2.8370    0.0000 O   0  0  0  0  0  0  0  0  0  0  0  0
    4.5981   -1.6630    0.0000 O   0  0  0  0  0  0  0  0  0  0  0  0
    2.8660   -0.6630    0.0000 O   0  0  0  0  0  0  0  0  0  0  0  0
    7.1962    6.8370    0.0000 N   0  0  3  0  0  0  0  0  0  0  0  0
    5.4641    2.8370    0.0000 N   0  0  0  0  0  0  0  0  0  0  0  0
    6.8301   -6.2019    0.0000 N   0  0  0  0  0  0  0  0  0  0  0  0
    7.1391   -5.2508    0.0000 N   0  0  0  0  0  0  0  0  0  0  0  0
    5.8301   -6.2019    0.0000 N   0  0  0  0  0  0  0  0  0  0  0  0
    8.0622    7.3370    0.0000 C   0  0  1  0  0  0  0  0  0  0  0  0
    8.9282    6.8370    0.0000 C   0  0  0  0  0  0  0  0  0  0  0  0
    8.0622    8.3370    0.0000 C   0  0  0  0  0  0  0  0  0  0  0  0
    7.1962    5.8370    0.0000 C   0  0  0  0  0  0  0  0  0  0  0  0
    9.7942    7.3370    0.0000 C   0  0  0  0  0  0  0  0  0  0  0  0
    6.3301    7.3370    0.0000 C   0  0  0  0  0  0  0  0  0  0  0  0
    8.9282    8.8370    0.0000 C   0  0  0  0  0  0  0  0  0  0  0  0
    6.3301    5.3370    0.0000 C   0  0  0  0  0  0  0  0  0  0  0  0
    9.7942    8.3370    0.0000 C   0  0  0  0  0  0  0  0  0  0  0  0
    6.3301    8.3370    0.0000 C   0  0  0  0  0  0  0  0  0  0  0  0
    6.3301    4.3370    0.0000 C   0  0  0  0  0  0  0  0  0  0  0  0
    5.4641    3.8370    0.0000 C   0  0  0  0  0  0  0  0  0  0  0  0
    5.4641    8.8370    0.0000 C   0  0  0  0  0  0  0  0  0  0  0  0
   10.6603    8.8370    0.0000 C   0  0  0  0  0  0  0  0  0  0  0  0
   11.5263    9.3370    0.0000 C   0  0  0  0  0  0  0  0  0  0  0  0
    4.5981    2.3370    0.0000 C   0  0  0  0  0  0  0  0  0  0  0  0
    4.5981    1.3370    0.0000 C   0  0  0  0  0  0  0  0  0  0  0  0
    3.7320    0.8370    0.0000 C   0  0  0  0  0  0  0  0  0  0  0  0
    5.4641    0.8370    0.0000 C   0  0  0  0  0  0  0  0  0  0  0  0
    5.4641   -3.1630    0.0000 C   0  0  0  0  0  0  0  0  0  0  0  0
    6.3301   -3.6630    0.0000 C   0  0  0  0  0  0  0  0  0  0  0  0
    3.7320   -0.1630    0.0000 C   0  0  0  0  0  0  0  0  0  0  0  0
    4.5981   -0.6630    0.0000 C   0  0  0  0  0  0  0  0  0  0  0  0
    7.4179   -7.0109    0.0000 C   0  0  0  0  0  0  0  0  0  0  0  0
    7.0112   -7.9244    0.0000 C   0  0  0  0  0  0  0  0  0  0  0  0
    5.4641   -0.1630    0.0000 C   0  0  0  0  0  0  0  0  0  0  0  0
    5.4641   -2.1630    0.0000 C   0  0  0  0  0  0  0  0  0  0  0  0
    6.3301   -4.6630    0.0000 C   0  0  0  0  0  0  0  0  0  0  0  0
    7.5990   -8.7334    0.0000 C   0  0  0  0  0  0  0  0  0  0  0  0
    5.5211   -5.2508    0.0000 C   0  0  0  0  0  0  0  0  0  0  0  0
    7.1922   -9.6470    0.0000 C   0  0  0  0  0  0  0  0  0  0  0  0
    2.0000   -0.1630    0.0000 C   0  0  0  0  0  0  0  0  0  0  0  0
    8.0622    6.7170    0.0000 H   0  0  0  0  0  0  0  0  0  0  0  0
    8.5297    6.3620    0.0000 H   0  0  0  0  0  0  0  0  0  0  0  0
    9.3267    6.3620    0.0000 H   0  0  0  0  0  0  0  0  0  0  0  0
    7.8501    8.9196    0.0000 H   0  0  0  0  0  0  0  0  0  0  0  0
    7.4516    8.2293    0.0000 H   0  0  0  0  0  0  0  0  0  0  0  0
    7.4082    5.2544    0.0000 H   0  0  0  0  0  0  0  0  0  0  0  0
    7.8067    5.9446    0.0000 H   0  0  0  0  0  0  0  0  0  0  0  0
   10.0063    6.7544    0.0000 H   0  0  0  0  0  0  0  0  0  0  0  0
   10.4048    7.4446    0.0000 H   0  0  0  0  0  0  0  0  0  0  0  0
    5.7196    7.4446    0.0000 H   0  0  0  0  0  0  0  0  0  0  0  0
    6.1181    6.7544    0.0000 H   0  0  0  0  0  0  0  0  0  0  0  0
    8.9282    9.4570    0.0000 H   0  0  0  0  0  0  0  0  0  0  0  0
    6.1181    5.9196    0.0000 H   0  0  0  0  0  0  0  0  0  0  0  0
    5.7196    5.2293    0.0000 H   0  0  0  0  0  0  0  0  0  0  0  0
    6.9407    8.2293    0.0000 H   0  0  0  0  0  0  0  0  0  0  0  0
    6.5422    8.9196    0.0000 H   0  0  0  0  0  0  0  0  0  0  0  0
    6.5422    3.7544    0.0000 H   0  0  0  0  0  0  0  0  0  0  0  0
    6.9407    4.4446    0.0000 H   0  0  0  0  0  0  0  0  0  0  0  0
    5.2520    4.4196    0.0000 H   0  0  0  0  0  0  0  0  0  0  0  0
    4.8535    3.7293    0.0000 H   0  0  0  0  0  0  0  0  0  0  0  0
    5.7741    9.3739    0.0000 H   0  0  0  0  0  0  0  0  0  0  0  0
    4.9272    9.1470    0.0000 H   0  0  0  0  0  0  0  0  0  0  0  0
    5.1541    8.3000    0.0000 H   0  0  0  0  0  0  0  0  0  0  0  0
    6.0010    2.5270    0.0000 H   0  0  0  0  0  0  0  0  0  0  0  0
   12.0632    9.6470    0.0000 H   0  0  0  0  0  0  0  0  0  0  0  0
    3.1951    1.1470    0.0000 H   0  0  0  0  0  0  0  0  0  0  0  0
    6.0010    1.1470    0.0000 H   0  0  0  0  0  0  0  0  0  0  0  0
    4.8535   -3.0553    0.0000 H   0  0  0  0  0  0  0  0  0  0  0  0
    5.2520   -3.7456    0.0000 H   0  0  0  0  0  0  0  0  0  0  0  0
    6.9407   -3.7707    0.0000 H   0  0  0  0  0  0  0  0  0  0  0  0
    6.5422   -3.0804    0.0000 H   0  0  0  0  0  0  0  0  0  0  0  0
    7.9319   -7.3576    0.0000 H   0  0  0  0  0  0  0  0  0  0  0  0
    7.8486   -6.5649    0.0000 H   0  0  0  0  0  0  0  0  0  0  0  0
    6.4972   -7.5777    0.0000 H   0  0  0  0  0  0  0  0  0  0  0  0
    6.5805   -8.3704    0.0000 H   0  0  0  0  0  0  0  0  0  0  0  0
    6.0747   -2.2707    0.0000 H   0  0  0  0  0  0  0  0  0  0  0  0
    5.6762   -1.5804    0.0000 H   0  0  0  0  0  0  0  0  0  0  0  0
    6.0010   -0.4730    0.0000 H   0  0  0  0  0  0  0  0  0  0  0  0
    8.1130   -9.0801    0.0000 H   0  0  0  0  0  0  0  0  0  0  0  0
    8.0296   -8.2874    0.0000 H   0  0  0  0  0  0  0  0  0  0  0  0
    4.9315   -5.0592    0.0000 H   0  0  0  0  0  0  0  0  0  0  0  0
    6.6258   -9.3948    0.0000 H   0  0  0  0  0  0  0  0  0  0  0  0
    6.9400  -10.2134    0.0000 H   0  0  0  0  0  0  0  0  0  0  0  0
    7.7586   -9.8992    0.0000 H   0  0  0  0  0  0  0  0  0  0  0  0
    2.3100    0.3739    0.0000 H   0  0  0  0  0  0  0  0  0  0  0  0
    1.4631    0.1470    0.0000 H   0  0  0  0  0  0  0  0  0  0  0  0
    1.6900   -0.7000    0.0000 H   0  0  0  0  0  0  0  0  0  0  0  0
  1 24  2  0  0  0  0
  2 31  1  0  0  0  0
  2 35  1  0  0  0  0
  3 30  1  0  0  0  0
  3 40  1  0  0  0  0
  9  4  1  6  0  0  0
  4 12  1  0  0  0  0
  4 14  1  0  0  0  0
  5 20  1  0  0  0  0
  5 24  1  0  0  0  0
  5 64  1  0  0  0  0
  6  7  1  0  0  0  0
  6  8  1  0  0  0  0
  6 32  1  0  0  0  0
  7 36  2  0  0  0  0
  8 38  2  0  0  0  0
  9 10  1  0  0  0  0
  9 11  1  0  0  0  0
  9 41  1  0  0  0  0
 10 13  1  0  0  0  0
 10 42  1  0  0  0  0
 10 43  1  0  0  0  0
 11 15  1  0  0  0  0
 11 44  1  0  0  0  0
 11 45  1  0  0  0  0
 12 16  1  0  0  0  0
 12 46  1  0  0  0  0
 12 47  1  0  0  0  0
 13 17  1  0  0  0  0
 13 48  1  0  0  0  0
 13 49  1  0  0  0  0
 14 18  1  0  0  0  0
 14 50  1  0  0  0  0
 14 51  1  0  0  0  0
 15 17  2  0  0  0  0
 15 52  1  0  0  0  0
 16 19  1  0  0  0  0
 16 53  1  0  0  0  0
 16 54  1  0  0  0  0
 17 22  1  0  0  0  0
 18 21  1  0  0  0  0
 18 55  1  0  0  0  0
 18 56  1  0  0  0  0
 19 20  1  0  0  0  0
 19 57  1  0  0  0  0
 19 58  1  0  0  0  0
 20 59  1  0  0  0  0
 20 60  1  0  0  0  0
 21 61  1  0  0  0  0
 21 62  1  0  0  0  0
 21 63  1  0  0  0  0
 22 23  3  0  0  0  0
 23 65  1  0  0  0  0
 24 25  1  0  0  0  0
 25 26  2  0  0  0  0
 25 27  1  0  0  0  0
 26 30  1  0  0  0  0
 26 66  1  0  0  0  0
 27 34  2  0  0  0  0
 27 67  1  0  0  0  0
 28 29  1  0  0  0  0
 28 35  1  0  0  0  0
 28 68  1  0  0  0  0
 28 69  1  0  0  0  0
 29 36  1  0  0  0  0
 29 70  1  0  0  0  0
 29 71  1  0  0  0  0
 30 31  2  0  0  0  0
 31 34  1  0  0  0  0
 32 33  1  0  0  0  0
 32 72  1  0  0  0  0
 32 73  1  0  0  0  0
 33 37  1  0  0  0  0
 33 74  1  0  0  0  0
 33 75  1  0  0  0  0
 34 78  1  0  0  0  0
 35 76  1  0  0  0  0
 35 77  1  0  0  0  0
 36 38  1  0  0  0  0
 37 39  1  0  0  0  0
 37 79  1  0  0  0  0
 37 80  1  0  0  0  0
 38 81  1  0  0  0  0
 39 82  1  0  0  0  0
 39 83  1  0  0  0  0
 39 84  1  0  0  0  0
 40 85  1  0  0  0  0
 40 86  1  0  0  0  0
 40 87  1  0  0  0  0
M  END
> <PUBCHEM_COMPOUND_CID>
73347474

> <PUBCHEM_COMPOUND_CANONICALIZED>
1

> <PUBCHEM_CACTVS_COMPLEXITY>
812

> <PUBCHEM_CACTVS_HBOND_ACCEPTOR>
6

> <PUBCHEM_CACTVS_HBOND_DONOR>
1

> <PUBCHEM_CACTVS_ROTATABLE_BOND>
19

> <PUBCHEM_CACTVS_SUBSKEYS>
AAADcfB/sAAAAAAAAAAAAAAAAAAAAWAAAAAwQAAAAAAAAAABwAAAHgAYAAAADCzhngY+hpPABADqGzV3UAiSDAQksgAYmIE+/MgNZjKEtRuGOSrk3hGK6Ye63BLOIAABAAAAQABAAAIAAACAAAAAAAAAAA==

> <PUBCHEM_IUPAC_OPENEYE_NAME>
4-[3-(2-butyltriazol-4-yl)propoxy]-N-[4-[[(1S)-4-ethynylcyclohex-3-en-1-yl]-propyl-amino]butyl]-3-methoxy-benzamide

> <PUBCHEM_IUPAC_CAS_NAME>
4-[3-(2-butyl-4-triazolyl)propoxy]-N-[4-[[(1S)-4-ethynyl-1-cyclohex-3-enyl]-propylamino]butyl]-3-methoxybenzamide

> <PUBCHEM_IUPAC_NAME_MARKUP>
4-[3-(2-butyltriazol-4-yl)propoxy]-<I>N</I>-[4-[[(1<I>S</I>)-4-ethynylcyclohex-3-en-1-yl]-propylamino]butyl]-3-methoxybenzamide

> <PUBCHEM_IUPAC_NAME>
4-[3-(2-butyltriazol-4-yl)propoxy]-N-[4-[[(1S)-4-ethynylcyclohex-3-en-1-yl]-propylamino]butyl]-3-methoxybenzamide

> <PUBCHEM_IUPAC_SYSTEMATIC_NAME>
4-[3-(2-butyl-1,2,3-triazol-4-yl)propoxy]-N-[4-[[(1S)-4-ethynylcyclohex-3-en-1-yl]-propyl-amino]butyl]-3-methoxy-benzamide

> <PUBCHEM_IUPAC_TRADITIONAL_NAME>
4-[3-(2-butyltriazol-4-yl)propoxy]-N-[4-[[(1S)-4-ethynylcyclohex-3-en-1-yl]-propyl-amino]butyl]-3-methoxy-benzamide

> <PUBCHEM_IUPAC_INCHI>
InChI=1S/C32H47N5O3/c1-5-8-22-37-34-25-28(35-37)12-11-23-40-30-18-15-27(24-31(30)39-4)32(38)33-19-9-10-21-36(20-6-2)29-16-13-26(7-3)14-17-29/h3,13,15,18,24-25,29H,5-6,8-12,14,16-17,19-23H2,1-2,4H3,(H,33,38)/t29-/m1/s1

> <PUBCHEM_IUPAC_INCHIKEY>
HKOJNCZKZSYFEQ-GDLZYMKVSA-N

> <PUBCHEM_XLOGP3_AA>
6

> <PUBCHEM_EXACT_MASS>
549.36789038

> <PUBCHEM_MOLECULAR_FORMULA>
C32H47N5O3

> <PUBCHEM_MOLECULAR_WEIGHT>
549.7

> <PUBCHEM_OPENEYE_CAN_SMILES>
CCCCN1N=CC(=N1)CCCOC2=C(C=C(C=C2)C(=O)NCCCCN(CCC)C3CCC(=CC3)C#C)OC

> <PUBCHEM_OPENEYE_ISO_SMILES>
CCCCN1N=CC(=N1)CCCOC2=C(C=C(C=C2)C(=O)NCCCCN(CCC)[C@H]3CCC(=CC3)C#C)OC

> <PUBCHEM_CACTVS_TPSA>
81.5

> <PUBCHEM_MONOISOTOPIC_WEIGHT>
549.36789038

> <PUBCHEM_TOTAL_CHARGE>
0

> <PUBCHEM_HEAVY_ATOM_COUNT>
40

> <PUBCHEM_ATOM_DEF_STEREO_COUNT>
1

> <PUBCHEM_ATOM_UDEF_STEREO_COUNT>
0

> <PUBCHEM_BOND_DEF_STEREO_COUNT>
0

> <PUBCHEM_BOND_UDEF_STEREO_COUNT>
0

> <PUBCHEM_ISOTOPIC_ATOM_COUNT>
0

> <PUBCHEM_COMPONENT_COUNT>
1

> <PUBCHEM_CACTVS_TAUTO_COUNT>
-1

> <PUBCHEM_COORDINATE_TYPE>
1
5
255

> <PUBCHEM_BONDANNOTATIONS>
25  26  8
25  27  8
26  30  8
27  34  8
30  31  8
31  34  8
36  38  8
9  4  6
6  7  8
6  8  8
7  36  8
8  38  8

$$$$
