76311270
  -OEChem-09292322342D

 89 91  0     0  0  0  0  0  0999 V2000
    0.0000    2.1200    0.0000 F   0  0  0  0  0  0  0  0  0  0  0  0
   20.4221    2.4860    0.0000 O   0  0  0  0  0  0  0  0  0  0  0  0
   13.4221    0.7540    0.0000 O   0  0  0  0  0  0  0  0  0  0  0  0
    7.7942    2.6200    0.0000 O   0  0  0  0  0  0  0  0  0  0  0  0
    5.1962    2.1200    0.0000 O   0  0  0  0  0  0  0  0  0  0  0  0
    2.5981    2.6200    0.0000 O   0  0  0  0  0  0  0  0  0  0  0  0
   10.2220    9.1937    0.0000 O   0  0  0  0  0  0  0  0  0  0  0  0
   12.8201    8.6937    0.0000 O   0  0  0  0  0  0  0  0  0  0  0  0
   11.0881    7.6937    0.0000 O   0  0  0  0  0  0  0  0  0  0  0  0
   11.9541   10.1937    0.0000 O   0  0  0  0  0  0  0  0  0  0  0  0
   17.4221    4.2181    0.0000 N   0  0  0  0  0  0  0  0  0  0  0  0
   19.4221    4.2181    0.0000 N   0  0  0  0  0  0  0  0  0  0  0  0
   13.4221    2.4860    0.0000 N   0  0  0  0  0  0  0  0  0  0  0  0
   11.3385    0.8153    0.0000 N   0  0  0  0  0  0  0  0  0  0  0  0
   17.9221    3.3520    0.0000 C   0  0  0  0  0  0  0  0  0  0  0  0
   17.9221    5.0841    0.0000 C   0  0  0  0  0  0  0  0  0  0  0  0
   18.9221    3.3520    0.0000 C   0  0  0  0  0  0  0  0  0  0  0  0
   18.9221    5.0841    0.0000 C   0  0  0  0  0  0  0  0  0  0  0  0
   16.4221    4.2181    0.0000 C   0  0  0  0  0  0  0  0  0  0  0  0
   15.9221    3.3520    0.0000 C   0  0  0  0  0  0  0  0  0  0  0  0
   20.4221    4.2181    0.0000 C   0  0  0  0  0  0  0  0  0  0  0  0
   14.9221    3.3520    0.0000 C   0  0  0  0  0  0  0  0  0  0  0  0
   14.4221    2.4860    0.0000 C   0  0  0  0  0  0  0  0  0  0  0  0
   20.9221    3.3520    0.0000 C   0  0  0  0  0  0  0  0  0  0  0  0
   20.9221    5.0841    0.0000 C   0  0  0  0  0  0  0  0  0  0  0  0
   21.9221    3.3520    0.0000 C   0  0  0  0  0  0  0  0  0  0  0  0
   21.9221    5.0841    0.0000 C   0  0  0  0  0  0  0  0  0  0  0  0
   22.4221    4.2181    0.0000 C   0  0  0  0  0  0  0  0  0  0  0  0
   12.9221    1.6200    0.0000 C   0  0  0  0  0  0  0  0  0  0  0  0
   11.9221    1.6200    0.0000 C   0  0  0  0  0  0  0  0  0  0  0  0
   20.9221    1.6200    0.0000 C   0  0  0  0  0  0  0  0  0  0  0  0
   11.3385    2.4247    0.0000 C   0  0  0  0  0  0  0  0  0  0  0  0
   10.3923    2.1200    0.0000 C   0  0  0  0  0  0  0  0  0  0  0  0
   10.3923    1.1200    0.0000 C   0  0  0  0  0  0  0  0  0  0  0  0
    9.5263    2.6200    0.0000 C   0  0  0  0  0  0  0  0  0  0  0  0
    9.5263    0.6200    0.0000 C   0  0  0  0  0  0  0  0  0  0  0  0
    8.6602    2.1200    0.0000 C   0  0  0  0  0  0  0  0  0  0  0  0
    8.6602    1.1200    0.0000 C   0  0  0  0  0  0  0  0  0  0  0  0
    6.9282    2.1200    0.0000 C   0  0  0  0  0  0  0  0  0  0  0  0
    6.0622    2.6200    0.0000 C   0  0  0  0  0  0  0  0  0  0  0  0
    4.3301    2.6200    0.0000 C   0  0  0  0  0  0  0  0  0  0  0  0
    3.4641    2.1200    0.0000 C   0  0  0  0  0  0  0  0  0  0  0  0
    1.7320    2.1200    0.0000 C   0  0  0  0  0  0  0  0  0  0  0  0
    0.8660    2.6200    0.0000 C   0  0  0  0  0  0  0  0  0  0  0  0
   11.0881    8.6937    0.0000 C   0  0  0  0  0  0  0  0  0  0  0  0
   11.9541    9.1937    0.0000 C   0  0  0  0  0  0  0  0  0  0  0  0
   17.3395    3.1400    0.0000 H   0  0  0  0  0  0  0  0  0  0  0  0
   18.0298    2.7415    0.0000 H   0  0  0  0  0  0  0  0  0  0  0  0
   18.0298    5.6947    0.0000 H   0  0  0  0  0  0  0  0  0  0  0  0
   17.3395    5.2962    0.0000 H   0  0  0  0  0  0  0  0  0  0  0  0
   18.8145    2.7415    0.0000 H   0  0  0  0  0  0  0  0  0  0  0  0
   19.5047    3.1400    0.0000 H   0  0  0  0  0  0  0  0  0  0  0  0
   19.5047    5.2962    0.0000 H   0  0  0  0  0  0  0  0  0  0  0  0
   18.8145    5.6947    0.0000 H   0  0  0  0  0  0  0  0  0  0  0  0
   16.5298    4.8287    0.0000 H   0  0  0  0  0  0  0  0  0  0  0  0
   15.8395    4.4301    0.0000 H   0  0  0  0  0  0  0  0  0  0  0  0
   15.8145    2.7415    0.0000 H   0  0  0  0  0  0  0  0  0  0  0  0
   16.5047    3.1400    0.0000 H   0  0  0  0  0  0  0  0  0  0  0  0
   15.0298    3.9626    0.0000 H   0  0  0  0  0  0  0  0  0  0  0  0
   14.3395    3.5641    0.0000 H   0  0  0  0  0  0  0  0  0  0  0  0
   14.3145    1.8754    0.0000 H   0  0  0  0  0  0  0  0  0  0  0  0
   15.0047    2.2740    0.0000 H   0  0  0  0  0  0  0  0  0  0  0  0
   20.6121    5.6210    0.0000 H   0  0  0  0  0  0  0  0  0  0  0  0
   22.2321    2.8151    0.0000 H   0  0  0  0  0  0  0  0  0  0  0  0
   13.1121    3.0230    0.0000 H   0  0  0  0  0  0  0  0  0  0  0  0
   22.2321    5.6210    0.0000 H   0  0  0  0  0  0  0  0  0  0  0  0
   23.0421    4.2181    0.0000 H   0  0  0  0  0  0  0  0  0  0  0  0
   20.3852    1.3100    0.0000 H   0  0  0  0  0  0  0  0  0  0  0  0
   21.2321    1.0831    0.0000 H   0  0  0  0  0  0  0  0  0  0  0  0
   21.4591    1.9300    0.0000 H   0  0  0  0  0  0  0  0  0  0  0  0
   11.5311    3.0140    0.0000 H   0  0  0  0  0  0  0  0  0  0  0  0
   11.5311    0.2259    0.0000 H   0  0  0  0  0  0  0  0  0  0  0  0
    9.5263    3.2400    0.0000 H   0  0  0  0  0  0  0  0  0  0  0  0
    9.5263    0.0000    0.0000 H   0  0  0  0  0  0  0  0  0  0  0  0
    8.1233    0.8100    0.0000 H   0  0  0  0  0  0  0  0  0  0  0  0
    6.5297    1.6450    0.0000 H   0  0  0  0  0  0  0  0  0  0  0  0
    7.3267    1.6450    0.0000 H   0  0  0  0  0  0  0  0  0  0  0  0
    6.4607    3.0950    0.0000 H   0  0  0  0  0  0  0  0  0  0  0  0
    5.6636    3.0950    0.0000 H   0  0  0  0  0  0  0  0  0  0  0  0
    4.7287    3.0950    0.0000 H   0  0  0  0  0  0  0  0  0  0  0  0
    3.9316    3.0950    0.0000 H   0  0  0  0  0  0  0  0  0  0  0  0
    3.0656    1.6450    0.0000 H   0  0  0  0  0  0  0  0  0  0  0  0
    3.8626    1.6450    0.0000 H   0  0  0  0  0  0  0  0  0  0  0  0
    1.3335    1.6450    0.0000 H   0  0  0  0  0  0  0  0  0  0  0  0
    2.1306    1.6450    0.0000 H   0  0  0  0  0  0  0  0  0  0  0  0
    1.2646    3.0950    0.0000 H   0  0  0  0  0  0  0  0  0  0  0  0
    0.4675    3.0950    0.0000 H   0  0  0  0  0  0  0  0  0  0  0  0
    9.6851    8.8837    0.0000 H   0  0  0  0  0  0  0  0  0  0  0  0
   13.3570    9.0037    0.0000 H   0  0  0  0  0  0  0  0  0  0  0  0
  1 44  1  0  0  0  0
  2 24  1  0  0  0  0
  2 31  1  0  0  0  0
  3 29  2  0  0  0  0
  4 37  1  0  0  0  0
  4 39  1  0  0  0  0
  5 40  1  0  0  0  0
  5 41  1  0  0  0  0
  6 42  1  0  0  0  0
  6 43  1  0  0  0  0
  7 45  1  0  0  0  0
  7 88  1  0  0  0  0
  8 46  1  0  0  0  0
  8 89  1  0  0  0  0
  9 45  2  0  0  0  0
 10 46  2  0  0  0  0
 11 15  1  0  0  0  0
 11 16  1  0  0  0  0
 11 19  1  0  0  0  0
 12 17  1  0  0  0  0
 12 18  1  0  0  0  0
 12 21  1  0  0  0  0
 13 23  1  0  0  0  0
 13 29  1  0  0  0  0
 13 65  1  0  0  0  0
 14 30  1  0  0  0  0
 14 34  1  0  0  0  0
 14 72  1  0  0  0  0
 15 17  1  0  0  0  0
 15 47  1  0  0  0  0
 15 48  1  0  0  0  0
 16 18  1  0  0  0  0
 16 49  1  0  0  0  0
 16 50  1  0  0  0  0
 17 51  1  0  0  0  0
 17 52  1  0  0  0  0
 18 53  1  0  0  0  0
 18 54  1  0  0  0  0
 19 20  1  0  0  0  0
 19 55  1  0  0  0  0
 19 56  1  0  0  0  0
 20 22  1  0  0  0  0
 20 57  1  0  0  0  0
 20 58  1  0  0  0  0
 21 24  1  0  0  0  0
 21 25  2  0  0  0  0
 22 23  1  0  0  0  0
 22 59  1  0  0  0  0
 22 60  1  0  0  0  0
 23 61  1  0  0  0  0
 23 62  1  0  0  0  0
 24 26  2  0  0  0  0
 25 27  1  0  0  0  0
 25 63  1  0  0  0  0
 26 28  1  0  0  0  0
 26 64  1  0  0  0  0
 27 28  2  0  0  0  0
 27 66  1  0  0  0  0
 28 67  1  0  0  0  0
 29 30  1  0  0  0  0
 30 32  2  0  0  0  0
 31 68  1  0  0  0  0
 31 69  1  0  0  0  0
 31 70  1  0  0  0  0
 32 33  1  0  0  0  0
 32 71  1  0  0  0  0
 33 34  2  0  0  0  0
 33 35  1  0  0  0  0
 34 36  1  0  0  0  0
 35 37  2  0  0  0  0
 35 73  1  0  0  0  0
 36 38  2  0  0  0  0
 36 74  1  0  0  0  0
 37 38  1  0  0  0  0
 38 75  1  0  0  0  0
 39 40  1  0  0  0  0
 39 76  1  0  0  0  0
 39 77  1  0  0  0  0
 40 78  1  0  0  0  0
 40 79  1  0  0  0  0
 41 42  1  0  0  0  0
 41 80  1  0  0  0  0
 41 81  1  0  0  0  0
 42 82  1  0  0  0  0
 42 83  1  0  0  0  0
 43 44  1  0  0  0  0
 43 84  1  0  0  0  0
 43 85  1  0  0  0  0
 44 86  1  0  0  0  0
 44 87  1  0  0  0  0
 45 46  1  0  0  0  0
M  END
> <PUBCHEM_COMPOUND_CID>
76311270

> <PUBCHEM_COMPOUND_CANONICALIZED>
1

> <PUBCHEM_CACTVS_COMPLEXITY>
785

> <PUBCHEM_CACTVS_HBOND_ACCEPTOR>
12

> <PUBCHEM_CACTVS_HBOND_DONOR>
4

> <PUBCHEM_CACTVS_ROTATABLE_BOND>
18

> <PUBCHEM_CACTVS_SUBSKEYS>
AAADcfB/vQAAAAAAAAAAAAAAAAAAAWAAAAA8YIAAAAAAAFgB9AAAHwAQCAAADAzhngYyzvPJlgCoAyXyXAKCiCAnIiAImaH/bNgPZvLEtbuXOSjk1hHb6Ye42bOeAEABAAACEAAAgAIAAAQgAAAAAAAAAA==

> <PUBCHEM_IUPAC_OPENEYE_NAME>
5-[2-[2-(2-fluoroethoxy)ethoxy]ethoxy]-N-[4-[4-(2-methoxyphenyl)piperazin-1-yl]butyl]-1H-indole-2-carboxamide;oxalic acid

> <PUBCHEM_IUPAC_CAS_NAME>
5-[2-[2-(2-fluoroethoxy)ethoxy]ethoxy]-N-[4-[4-(2-methoxyphenyl)-1-piperazinyl]butyl]-1H-indole-2-carboxamide;oxalic acid

> <PUBCHEM_IUPAC_NAME_MARKUP>
5-[2-[2-(2-fluoroethoxy)ethoxy]ethoxy]-<I>N</I>-[4-[4-(2-methoxyphenyl)piperazin-1-yl]butyl]-1<I>H</I>-indole-2-carboxamide;oxalic acid

> <PUBCHEM_IUPAC_NAME>
5-[2-[2-(2-fluoroethoxy)ethoxy]ethoxy]-N-[4-[4-(2-methoxyphenyl)piperazin-1-yl]butyl]-1H-indole-2-carboxamide;oxalic acid

> <PUBCHEM_IUPAC_SYSTEMATIC_NAME>
ethanedioic acid;5-[2-[2-(2-fluoranylethoxy)ethoxy]ethoxy]-N-[4-[4-(2-methoxyphenyl)piperazin-1-yl]butyl]-1H-indole-2-carboxamide

> <PUBCHEM_IUPAC_TRADITIONAL_NAME>
5-[2-[2-(2-fluoroethoxy)ethoxy]ethoxy]-N-[4-[4-(2-methoxyphenyl)piperazino]butyl]-1H-indole-2-carboxamide;oxalic acid

> <PUBCHEM_IUPAC_INCHI>
InChI=1S/C30H41FN4O5.C2H2O4/c1-37-29-7-3-2-6-28(29)35-15-13-34(14-16-35)12-5-4-11-32-30(36)27-23-24-22-25(8-9-26(24)33-27)40-21-20-39-19-18-38-17-10-31;3-1(4)2(5)6/h2-3,6-9,22-23,33H,4-5,10-21H2,1H3,(H,32,36);(H,3,4)(H,5,6)

> <PUBCHEM_IUPAC_INCHIKEY>
KQJLXUWVXSPWBV-UHFFFAOYSA-N

> <PUBCHEM_EXACT_MASS>
646.30140712

> <PUBCHEM_MOLECULAR_FORMULA>
C32H43FN4O9

> <PUBCHEM_MOLECULAR_WEIGHT>
646.7

> <PUBCHEM_OPENEYE_CAN_SMILES>
COC1=CC=CC=C1N2CCN(CC2)CCCCNC(=O)C3=CC4=C(N3)C=CC(=C4)OCCOCCOCCF.C(=O)(C(=O)O)O

> <PUBCHEM_OPENEYE_ISO_SMILES>
COC1=CC=CC=C1N2CCN(CC2)CCCCNC(=O)C3=CC4=C(N3)C=CC(=C4)OCCOCCOCCF.C(=O)(C(=O)O)O

> <PUBCHEM_CACTVS_TPSA>
163

> <PUBCHEM_MONOISOTOPIC_WEIGHT>
646.30140712

> <PUBCHEM_TOTAL_CHARGE>
0

> <PUBCHEM_HEAVY_ATOM_COUNT>
46

> <PUBCHEM_ATOM_DEF_STEREO_COUNT>
0

> <PUBCHEM_ATOM_UDEF_STEREO_COUNT>
0

> <PUBCHEM_BOND_DEF_STEREO_COUNT>
0

> <PUBCHEM_BOND_UDEF_STEREO_COUNT>
0

> <PUBCHEM_ISOTOPIC_ATOM_COUNT>
0

> <PUBCHEM_COMPONENT_COUNT>
2

> <PUBCHEM_CACTVS_TAUTO_COUNT>
-1

> <PUBCHEM_COORDINATE_TYPE>
1
5
255

> <PUBCHEM_BONDANNOTATIONS>
14  30  8
14  34  8
21  24  8
21  25  8
24  26  8
25  27  8
26  28  8
27  28  8
30  32  8
32  33  8
33  34  8
33  35  8
34  36  8
35  37  8
36  38  8
37  38  8

$$$$
