24882561
  -OEChem-09292322262D

 54 56  0     0  0  0  0  0  0999 V2000
   12.3923    4.0000    0.0000 Cl  0  0  0  0  0  0  0  0  0  0  0  0
    2.0000   -1.0000    0.0000 F   0  0  0  0  0  0  0  0  0  0  0  0
    4.5981   -0.5000    0.0000 O   0  0  0  0  0  0  0  0  0  0  0  0
    8.0622   -2.5000    0.0000 O   0  0  0  0  0  0  0  0  0  0  0  0
    6.3301   -3.5000    0.0000 O   0  0  0  0  0  0  0  0  0  0  0  0
    7.1962    1.0000    0.0000 N   0  0  0  0  0  0  0  0  0  0  0  0
    8.9282    2.0000    0.0000 N   0  0  0  0  0  0  0  0  0  0  0  0
    8.0622    0.5000    0.0000 C   0  0  0  0  0  0  0  0  0  0  0  0
    7.1962    2.0000    0.0000 C   0  0  0  0  0  0  0  0  0  0  0  0
    8.9282    1.0000    0.0000 C   0  0  0  0  0  0  0  0  0  0  0  0
    8.0622    2.5000    0.0000 C   0  0  0  0  0  0  0  0  0  0  0  0
    6.3301    0.5000    0.0000 C   0  0  0  0  0  0  0  0  0  0  0  0
    9.7942    2.5000    0.0000 C   0  0  0  0  0  0  0  0  0  0  0  0
    6.3301   -0.5000    0.0000 C   0  0  0  0  0  0  0  0  0  0  0  0
    5.4641   -1.0000    0.0000 C   0  0  0  0  0  0  0  0  0  0  0  0
    7.1962   -1.0000    0.0000 C   0  0  0  0  0  0  0  0  0  0  0  0
   10.6603    2.0000    0.0000 C   0  0  0  0  0  0  0  0  0  0  0  0
    9.7942    3.5000    0.0000 C   0  0  0  0  0  0  0  0  0  0  0  0
    7.1962   -2.0000    0.0000 C   0  0  0  0  0  0  0  0  0  0  0  0
    5.4641   -2.0000    0.0000 C   0  0  0  0  0  0  0  0  0  0  0  0
    6.3301   -2.5000    0.0000 C   0  0  0  0  0  0  0  0  0  0  0  0
   11.5263    2.5000    0.0000 C   0  0  0  0  0  0  0  0  0  0  0  0
   10.6603    4.0000    0.0000 C   0  0  0  0  0  0  0  0  0  0  0  0
   11.5263    3.5000    0.0000 C   0  0  0  0  0  0  0  0  0  0  0  0
    3.7320   -1.0000    0.0000 C   0  0  0  0  0  0  0  0  0  0  0  0
    2.8660   -0.5000    0.0000 C   0  0  0  0  0  0  0  0  0  0  0  0
    8.0622   -3.5000    0.0000 C   0  0  0  0  0  0  0  0  0  0  0  0
    5.4641   -4.0000    0.0000 C   0  0  0  0  0  0  0  0  0  0  0  0
    7.6636    0.0251    0.0000 H   0  0  0  0  0  0  0  0  0  0  0  0
    8.4607    0.0251    0.0000 H   0  0  0  0  0  0  0  0  0  0  0  0
    6.9841    2.5826    0.0000 H   0  0  0  0  0  0  0  0  0  0  0  0
    6.5856    1.8923    0.0000 H   0  0  0  0  0  0  0  0  0  0  0  0
    9.1403    0.4174    0.0000 H   0  0  0  0  0  0  0  0  0  0  0  0
    9.5388    1.1077    0.0000 H   0  0  0  0  0  0  0  0  0  0  0  0
    8.4607    2.9750    0.0000 H   0  0  0  0  0  0  0  0  0  0  0  0
    7.6636    2.9750    0.0000 H   0  0  0  0  0  0  0  0  0  0  0  0
    6.1181    1.0826    0.0000 H   0  0  0  0  0  0  0  0  0  0  0  0
    5.7196    0.3923    0.0000 H   0  0  0  0  0  0  0  0  0  0  0  0
    7.7331   -0.6900    0.0000 H   0  0  0  0  0  0  0  0  0  0  0  0
   10.6603    1.3800    0.0000 H   0  0  0  0  0  0  0  0  0  0  0  0
    9.2573    3.8100    0.0000 H   0  0  0  0  0  0  0  0  0  0  0  0
    4.9272   -2.3100    0.0000 H   0  0  0  0  0  0  0  0  0  0  0  0
   12.0632    2.1900    0.0000 H   0  0  0  0  0  0  0  0  0  0  0  0
   10.6603    4.6200    0.0000 H   0  0  0  0  0  0  0  0  0  0  0  0
    3.3335   -1.4750    0.0000 H   0  0  0  0  0  0  0  0  0  0  0  0
    4.1306   -1.4750    0.0000 H   0  0  0  0  0  0  0  0  0  0  0  0
    3.2646   -0.0251    0.0000 H   0  0  0  0  0  0  0  0  0  0  0  0
    2.4675   -0.0251    0.0000 H   0  0  0  0  0  0  0  0  0  0  0  0
    7.4422   -3.5000    0.0000 H   0  0  0  0  0  0  0  0  0  0  0  0
    8.0622   -4.1200    0.0000 H   0  0  0  0  0  0  0  0  0  0  0  0
    8.6822   -3.5000    0.0000 H   0  0  0  0  0  0  0  0  0  0  0  0
    5.1541   -3.4631    0.0000 H   0  0  0  0  0  0  0  0  0  0  0  0
    4.9272   -4.3100    0.0000 H   0  0  0  0  0  0  0  0  0  0  0  0
    5.7741   -4.5369    0.0000 H   0  0  0  0  0  0  0  0  0  0  0  0
  1 24  1  0  0  0  0
  2 26  1  0  0  0  0
  3 15  1  0  0  0  0
  3 25  1  0  0  0  0
  4 19  1  0  0  0  0
  4 27  1  0  0  0  0
  5 21  1  0  0  0  0
  5 28  1  0  0  0  0
  6  8  1  0  0  0  0
  6  9  1  0  0  0  0
  6 12  1  0  0  0  0
  7 10  1  0  0  0  0
  7 11  1  0  0  0  0
  7 13  1  0  0  0  0
  8 10  1  0  0  0  0
  8 29  1  0  0  0  0
  8 30  1  0  0  0  0
  9 11  1  0  0  0  0
  9 31  1  0  0  0  0
  9 32  1  0  0  0  0
 10 33  1  0  0  0  0
 10 34  1  0  0  0  0
 11 35  1  0  0  0  0
 11 36  1  0  0  0  0
 12 14  1  0  0  0  0
 12 37  1  0  0  0  0
 12 38  1  0  0  0  0
 13 17  2  0  0  0  0
 13 18  1  0  0  0  0
 14 15  1  0  0  0  0
 14 16  2  0  0  0  0
 15 20  2  0  0  0  0
 16 19  1  0  0  0  0
 16 39  1  0  0  0  0
 17 22  1  0  0  0  0
 17 40  1  0  0  0  0
 18 23  2  0  0  0  0
 18 41  1  0  0  0  0
 19 21  2  0  0  0  0
 20 21  1  0  0  0  0
 20 42  1  0  0  0  0
 22 24  2  0  0  0  0
 22 43  1  0  0  0  0
 23 24  1  0  0  0  0
 23 44  1  0  0  0  0
 25 26  1  0  0  0  0
 25 45  1  0  0  0  0
 25 46  1  0  0  0  0
 26 47  1  0  0  0  0
 26 48  1  0  0  0  0
 27 49  1  0  0  0  0
 27 50  1  0  0  0  0
 27 51  1  0  0  0  0
 28 52  1  0  0  0  0
 28 53  1  0  0  0  0
 28 54  1  0  0  0  0
M  END
> <PUBCHEM_COMPOUND_CID>
24882561

> <PUBCHEM_COMPOUND_CANONICALIZED>
1

> <PUBCHEM_CACTVS_COMPLEXITY>
445

> <PUBCHEM_CACTVS_HBOND_ACCEPTOR>
6

> <PUBCHEM_CACTVS_HBOND_DONOR>
0

> <PUBCHEM_CACTVS_ROTATABLE_BOND>
8

> <PUBCHEM_CACTVS_SUBSKEYS>
AAADceB7MQAEAAAAAAAAAAAAAAAAAAAAAAA8YIAAAAAAAAABQAAAHwIAAAAADA7hmCYyxoMABACAAiRCQACCCAAhJwAIiAAO7ogNZyLFs5uWOCrnwBXK6Afw8D4OIQBBCAAIQABCAIIQABCAAAAAAAAAAA==

> <PUBCHEM_IUPAC_OPENEYE_NAME>
1-(4-chlorophenyl)-4-[[2-(2-fluoroethoxy)-4,5-dimethoxy-phenyl]methyl]piperazine

> <PUBCHEM_IUPAC_CAS_NAME>
1-(4-chlorophenyl)-4-[[2-(2-fluoroethoxy)-4,5-dimethoxyphenyl]methyl]piperazine

> <PUBCHEM_IUPAC_NAME_MARKUP>
1-(4-chlorophenyl)-4-[[2-(2-fluoroethoxy)-4,5-dimethoxyphenyl]methyl]piperazine

> <PUBCHEM_IUPAC_NAME>
1-(4-chlorophenyl)-4-[[2-(2-fluoroethoxy)-4,5-dimethoxyphenyl]methyl]piperazine

> <PUBCHEM_IUPAC_SYSTEMATIC_NAME>
1-(4-chlorophenyl)-4-[[2-(2-fluoranylethoxy)-4,5-dimethoxy-phenyl]methyl]piperazine

> <PUBCHEM_IUPAC_TRADITIONAL_NAME>
1-(4-chlorophenyl)-4-[2-(2-fluoroethoxy)-4,5-dimethoxy-benzyl]piperazine

> <PUBCHEM_IUPAC_INCHI>
InChI=1S/C21H26ClFN2O3/c1-26-20-13-16(19(28-12-7-23)14-21(20)27-2)15-24-8-10-25(11-9-24)18-5-3-17(22)4-6-18/h3-6,13-14H,7-12,15H2,1-2H3

> <PUBCHEM_IUPAC_INCHIKEY>
XBXGSRGFTFVODB-UHFFFAOYSA-N

> <PUBCHEM_XLOGP3_AA>
4.2

> <PUBCHEM_EXACT_MASS>
408.1615986

> <PUBCHEM_MOLECULAR_FORMULA>
C21H26ClFN2O3

> <PUBCHEM_MOLECULAR_WEIGHT>
408.9

> <PUBCHEM_OPENEYE_CAN_SMILES>
COC1=C(C=C(C(=C1)CN2CCN(CC2)C3=CC=C(C=C3)Cl)OCCF)OC

> <PUBCHEM_OPENEYE_ISO_SMILES>
COC1=C(C=C(C(=C1)CN2CCN(CC2)C3=CC=C(C=C3)Cl)OCCF)OC

> <PUBCHEM_CACTVS_TPSA>
34.2

> <PUBCHEM_MONOISOTOPIC_WEIGHT>
408.1615986

> <PUBCHEM_TOTAL_CHARGE>
0

> <PUBCHEM_HEAVY_ATOM_COUNT>
28

> <PUBCHEM_ATOM_DEF_STEREO_COUNT>
0

> <PUBCHEM_ATOM_UDEF_STEREO_COUNT>
0

> <PUBCHEM_BOND_DEF_STEREO_COUNT>
0

> <PUBCHEM_BOND_UDEF_STEREO_COUNT>
0

> <PUBCHEM_ISOTOPIC_ATOM_COUNT>
0

> <PUBCHEM_COMPONENT_COUNT>
1

> <PUBCHEM_CACTVS_TAUTO_COUNT>
-1

> <PUBCHEM_COORDINATE_TYPE>
1
5
255

> <PUBCHEM_BONDANNOTATIONS>
13  17  8
13  18  8
14  15  8
14  16  8
15  20  8
16  19  8
17  22  8
18  23  8
19  21  8
20  21  8
22  24  8
23  24  8

$$$$
