9977478
  -OEChem-09292322262D

 46 47  0     1  0  0  0  0  0999 V2000
    6.3301   -3.3209    0.0000 Br  0  0  0  0  0  0  0  0  0  0  0  0
    3.7320    0.1791    0.0000 O   0  0  0  0  0  0  0  0  0  0  0  0
    2.8660   -1.3209    0.0000 O   0  0  0  0  0  0  0  0  0  0  0  0
    6.3301   -1.3209    0.0000 O   0  0  0  0  0  0  0  0  0  0  0  0
    2.8660   -3.3209    0.0000 O   0  0  0  0  0  0  0  0  0  0  0  0
    6.4347    2.6736    0.0000 N   0  0  3  0  0  0  0  0  0  0  0  0
    5.4641    0.1791    0.0000 N   0  0  0  0  0  0  0  0  0  0  0  0
    6.3301    1.6791    0.0000 C   0  0  1  0  0  0  0  0  0  0  0  0
    7.2437    1.2724    0.0000 C   0  0  0  0  0  0  0  0  0  0  0  0
    7.9128    2.0155    0.0000 C   0  0  0  0  0  0  0  0  0  0  0  0
    7.4128    2.8815    0.0000 C   0  0  0  0  0  0  0  0  0  0  0  0
    5.4641    1.1791    0.0000 C   0  0  0  0  0  0  0  0  0  0  0  0
    5.6915    3.3428    0.0000 C   0  0  0  0  0  0  0  0  0  0  0  0
    5.8994    4.3209    0.0000 C   0  0  0  0  0  0  0  0  0  0  0  0
    4.5981   -0.3209    0.0000 C   0  0  0  0  0  0  0  0  0  0  0  0
    4.5981   -1.3209    0.0000 C   0  0  0  0  0  0  0  0  0  0  0  0
    3.7320   -1.8209    0.0000 C   0  0  0  0  0  0  0  0  0  0  0  0
    5.4641   -1.8209    0.0000 C   0  0  0  0  0  0  0  0  0  0  0  0
    3.7320   -2.8209    0.0000 C   0  0  0  0  0  0  0  0  0  0  0  0
    5.4641   -2.8209    0.0000 C   0  0  0  0  0  0  0  0  0  0  0  0
    4.5981   -3.3209    0.0000 C   0  0  0  0  0  0  0  0  0  0  0  0
    2.0000   -1.8209    0.0000 C   0  0  0  0  0  0  0  0  0  0  0  0
    2.8660   -4.3209    0.0000 C   0  0  0  0  0  0  0  0  0  0  0  0
    5.8102    2.0168    0.0000 H   0  0  0  0  0  0  0  0  0  0  0  0
    6.9337    0.7354    0.0000 H   0  0  0  0  0  0  0  0  0  0  0  0
    7.7453    0.9079    0.0000 H   0  0  0  0  0  0  0  0  0  0  0  0
    8.3277    1.5548    0.0000 H   0  0  0  0  0  0  0  0  0  0  0  0
    8.4144    2.3799    0.0000 H   0  0  0  0  0  0  0  0  0  0  0  0
    7.9792    3.1337    0.0000 H   0  0  0  0  0  0  0  0  0  0  0  0
    7.2212    3.4712    0.0000 H   0  0  0  0  0  0  0  0  0  0  0  0
    5.2520    1.7617    0.0000 H   0  0  0  0  0  0  0  0  0  0  0  0
    4.8535    1.0714    0.0000 H   0  0  0  0  0  0  0  0  0  0  0  0
    5.1167    3.5750    0.0000 H   0  0  0  0  0  0  0  0  0  0  0  0
    5.3630    2.8170    0.0000 H   0  0  0  0  0  0  0  0  0  0  0  0
    6.0010   -0.1309    0.0000 H   0  0  0  0  0  0  0  0  0  0  0  0
    6.5059    4.1920    0.0000 H   0  0  0  0  0  0  0  0  0  0  0  0
    6.0283    4.9274    0.0000 H   0  0  0  0  0  0  0  0  0  0  0  0
    5.2930    4.4498    0.0000 H   0  0  0  0  0  0  0  0  0  0  0  0
    4.5981   -3.9409    0.0000 H   0  0  0  0  0  0  0  0  0  0  0  0
    6.8671   -1.6309    0.0000 H   0  0  0  0  0  0  0  0  0  0  0  0
    1.6900   -1.2840    0.0000 H   0  0  0  0  0  0  0  0  0  0  0  0
    1.4631   -2.1309    0.0000 H   0  0  0  0  0  0  0  0  0  0  0  0
    2.3100   -2.3578    0.0000 H   0  0  0  0  0  0  0  0  0  0  0  0
    2.2460   -4.3209    0.0000 H   0  0  0  0  0  0  0  0  0  0  0  0
    2.8660   -4.9409    0.0000 H   0  0  0  0  0  0  0  0  0  0  0  0
    3.4860   -4.3209    0.0000 H   0  0  0  0  0  0  0  0  0  0  0  0
  1 20  1  0  0  0  0
  2 15  2  0  0  0  0
  3 17  1  0  0  0  0
  3 22  1  0  0  0  0
  4 18  1  0  0  0  0
  4 40  1  0  0  0  0
  5 19  1  0  0  0  0
  5 23  1  0  0  0  0
  6  8  1  0  0  0  0
  6 11  1  0  0  0  0
  6 13  1  0  0  0  0
  7 12  1  0  0  0  0
  7 15  1  0  0  0  0
  7 35  1  0  0  0  0
  8  9  1  0  0  0  0
  8 12  1  1  0  0  0
  8 24  1  0  0  0  0
  9 10  1  0  0  0  0
  9 25  1  0  0  0  0
  9 26  1  0  0  0  0
 10 11  1  0  0  0  0
 10 27  1  0  0  0  0
 10 28  1  0  0  0  0
 11 29  1  0  0  0  0
 11 30  1  0  0  0  0
 12 31  1  0  0  0  0
 12 32  1  0  0  0  0
 13 14  1  0  0  0  0
 13 33  1  0  0  0  0
 13 34  1  0  0  0  0
 14 36  1  0  0  0  0
 14 37  1  0  0  0  0
 14 38  1  0  0  0  0
 15 16  1  0  0  0  0
 16 17  2  0  0  0  0
 16 18  1  0  0  0  0
 17 19  1  0  0  0  0
 18 20  2  0  0  0  0
 19 21  2  0  0  0  0
 20 21  1  0  0  0  0
 21 39  1  0  0  0  0
 22 41  1  0  0  0  0
 22 42  1  0  0  0  0
 22 43  1  0  0  0  0
 23 44  1  0  0  0  0
 23 45  1  0  0  0  0
 23 46  1  0  0  0  0
M  END
> <PUBCHEM_COMPOUND_CID>
9977478

> <PUBCHEM_COMPOUND_CANONICALIZED>
1

> <PUBCHEM_CACTVS_COMPLEXITY>
398

> <PUBCHEM_CACTVS_HBOND_ACCEPTOR>
5

> <PUBCHEM_CACTVS_HBOND_DONOR>
2

> <PUBCHEM_CACTVS_ROTATABLE_BOND>
6

> <PUBCHEM_CACTVS_SUBSKEYS>
AAADceB7OAAAEAAAAAAAAAAAAAAAAWAAAAAwAAAAAAAAAAABAAAAHgBQCAABrCzBmAYyBoPABgCIAiFSEACCCAAkIAQAiIEOjOgNZzaGtBuUcWpn9hWKuxf66DyOARABGIAIRAACIAIxABCIAAAAAAAAAA==

> <PUBCHEM_IUPAC_OPENEYE_NAME>
3-bromo-N-[[(2S)-1-ethylpyrrolidin-2-yl]methyl]-2-hydroxy-5,6-dimethoxy-benzamide

> <PUBCHEM_IUPAC_CAS_NAME>
3-bromo-N-[[(2S)-1-ethyl-2-pyrrolidinyl]methyl]-2-hydroxy-5,6-dimethoxybenzamide

> <PUBCHEM_IUPAC_NAME_MARKUP>
3-bromo-<I>N</I>-[[(2<I>S</I>)-1-ethylpyrrolidin-2-yl]methyl]-2-hydroxy-5,6-dimethoxybenzamide

> <PUBCHEM_IUPAC_NAME>
3-bromo-N-[[(2S)-1-ethylpyrrolidin-2-yl]methyl]-2-hydroxy-5,6-dimethoxybenzamide

> <PUBCHEM_IUPAC_SYSTEMATIC_NAME>
5-bromanyl-N-[[(2S)-1-ethylpyrrolidin-2-yl]methyl]-2,3-dimethoxy-6-oxidanyl-benzamide

> <PUBCHEM_IUPAC_TRADITIONAL_NAME>
3-bromo-N-[[(2S)-1-ethylpyrrolidin-2-yl]methyl]-2-hydroxy-5,6-dimethoxy-benzamide

> <PUBCHEM_IUPAC_INCHI>
InChI=1S/C16H23BrN2O4/c1-4-19-7-5-6-10(19)9-18-16(21)13-14(20)11(17)8-12(22-2)15(13)23-3/h8,10,20H,4-7,9H2,1-3H3,(H,18,21)/t10-/m0/s1

> <PUBCHEM_IUPAC_INCHIKEY>
WGLPSCZHULDZSS-JTQLQIEISA-N

> <PUBCHEM_XLOGP3>
2.3

> <PUBCHEM_EXACT_MASS>
386.08412

> <PUBCHEM_MOLECULAR_FORMULA>
C16H23BrN2O4

> <PUBCHEM_MOLECULAR_WEIGHT>
387.27

> <PUBCHEM_OPENEYE_CAN_SMILES>
CCN1CCCC1CNC(=O)C2=C(C(=CC(=C2O)Br)OC)OC

> <PUBCHEM_OPENEYE_ISO_SMILES>
CCN1CCC[C@H]1CNC(=O)C2=C(C(=CC(=C2O)Br)OC)OC

> <PUBCHEM_CACTVS_TPSA>
71

> <PUBCHEM_MONOISOTOPIC_WEIGHT>
386.08412

> <PUBCHEM_TOTAL_CHARGE>
0

> <PUBCHEM_HEAVY_ATOM_COUNT>
23

> <PUBCHEM_ATOM_DEF_STEREO_COUNT>
1

> <PUBCHEM_ATOM_UDEF_STEREO_COUNT>
0

> <PUBCHEM_BOND_DEF_STEREO_COUNT>
0

> <PUBCHEM_BOND_UDEF_STEREO_COUNT>
0

> <PUBCHEM_ISOTOPIC_ATOM_COUNT>
0

> <PUBCHEM_COMPONENT_COUNT>
1

> <PUBCHEM_CACTVS_TAUTO_COUNT>
-1

> <PUBCHEM_COORDINATE_TYPE>
1
5
255

> <PUBCHEM_BONDANNOTATIONS>
16  17  8
16  18  8
17  19  8
18  20  8
19  21  8
20  21  8
8  12  5

$$$$
