49862237
  -OEChem-09292322482D

 55 58  0     1  0  0  0  0  0999 V2000
    5.5724    4.3063    0.0000 F   0  0  0  0  0  0  0  0  0  0  0  0
    2.8660   -2.9025    0.0000 O   0  0  0  0  0  0  0  0  0  0  0  0
    6.3301   -4.9025    0.0000 O   0  0  0  0  0  0  0  0  0  0  0  0
    4.0981   -0.3637    0.0000 N   0  0  3  0  0  0  0  0  0  0  0  0
    4.0862    2.9681    0.0000 N   0  0  0  0  0  0  0  0  0  0  0  0
    4.9997    2.5613    0.0000 N   0  0  0  0  0  0  0  0  0  0  0  0
    4.5981   -1.9025    0.0000 C   0  0  3  0  0  0  0  0  0  0  0  0
    3.7891   -1.3147    0.0000 C   0  0  0  0  0  0  0  0  0  0  0  0
    5.4071   -1.3147    0.0000 C   0  0  0  0  0  0  0  0  0  0  0  0
    5.0981   -0.3637    0.0000 C   0  0  0  0  0  0  0  0  0  0  0  0
    4.5981   -2.9025    0.0000 C   0  0  0  0  0  0  0  0  0  0  0  0
    3.5103    0.4454    0.0000 C   0  0  0  0  0  0  0  0  0  0  0  0
    3.9170    1.3589    0.0000 C   0  0  0  0  0  0  0  0  0  0  0  0
    3.7320   -3.4025    0.0000 C   0  0  0  0  0  0  0  0  0  0  0  0
    5.4641   -3.4025    0.0000 C   0  0  0  0  0  0  0  0  0  0  0  0
    3.4170    2.2249    0.0000 C   0  0  0  0  0  0  0  0  0  0  0  0
    4.8952    1.5668    0.0000 C   0  0  0  0  0  0  0  0  0  0  0  0
    5.4641   -4.4025    0.0000 C   0  0  0  0  0  0  0  0  0  0  0  0
    3.7320   -4.4025    0.0000 C   0  0  0  0  0  0  0  0  0  0  0  0
    4.5981   -4.9025    0.0000 C   0  0  0  0  0  0  0  0  0  0  0  0
    2.4225    2.3294    0.0000 C   0  0  0  0  0  0  0  0  0  0  0  0
    3.8782    3.9462    0.0000 C   0  0  0  0  0  0  0  0  0  0  0  0
    2.0000   -3.4025    0.0000 C   0  0  0  0  0  0  0  0  0  0  0  0
    4.6214    4.6153    0.0000 C   0  0  0  0  0  0  0  0  0  0  0  0
    2.9272    4.2552    0.0000 C   0  0  0  0  0  0  0  0  0  0  0  0
    6.3301   -5.9025    0.0000 C   0  0  0  0  0  0  0  0  0  0  0  0
    4.4135    5.5935    0.0000 C   0  0  0  0  0  0  0  0  0  0  0  0
    2.7193    5.2334    0.0000 C   0  0  0  0  0  0  0  0  0  0  0  0
    3.4624    5.9025    0.0000 C   0  0  0  0  0  0  0  0  0  0  0  0
    5.1505   -2.1840    0.0000 H   0  0  0  0  0  0  0  0  0  0  0  0
    3.2227   -1.0626    0.0000 H   0  0  0  0  0  0  0  0  0  0  0  0
    3.4791   -1.8517    0.0000 H   0  0  0  0  0  0  0  0  0  0  0  0
    5.7171   -1.8517    0.0000 H   0  0  0  0  0  0  0  0  0  0  0  0
    5.9735   -1.0626    0.0000 H   0  0  0  0  0  0  0  0  0  0  0  0
    5.7045   -0.2348    0.0000 H   0  0  0  0  0  0  0  0  0  0  0  0
    5.0333    0.2529    0.0000 H   0  0  0  0  0  0  0  0  0  0  0  0
    2.9963    0.7920    0.0000 H   0  0  0  0  0  0  0  0  0  0  0  0
    3.0796   -0.0006    0.0000 H   0  0  0  0  0  0  0  0  0  0  0  0
    6.0010   -3.0925    0.0000 H   0  0  0  0  0  0  0  0  0  0  0  0
    5.3559    1.1520    0.0000 H   0  0  0  0  0  0  0  0  0  0  0  0
    3.1951   -4.7125    0.0000 H   0  0  0  0  0  0  0  0  0  0  0  0
    4.5981   -5.5225    0.0000 H   0  0  0  0  0  0  0  0  0  0  0  0
    2.4873    2.9460    0.0000 H   0  0  0  0  0  0  0  0  0  0  0  0
    1.8059    2.3943    0.0000 H   0  0  0  0  0  0  0  0  0  0  0  0
    2.3577    1.7128    0.0000 H   0  0  0  0  0  0  0  0  0  0  0  0
    1.6900   -2.8656    0.0000 H   0  0  0  0  0  0  0  0  0  0  0  0
    1.4631   -3.7125    0.0000 H   0  0  0  0  0  0  0  0  0  0  0  0
    2.3100   -3.9394    0.0000 H   0  0  0  0  0  0  0  0  0  0  0  0
    2.4664    3.8404    0.0000 H   0  0  0  0  0  0  0  0  0  0  0  0
    5.7101   -5.9025    0.0000 H   0  0  0  0  0  0  0  0  0  0  0  0
    6.3301   -6.5225    0.0000 H   0  0  0  0  0  0  0  0  0  0  0  0
    6.9501   -5.9025    0.0000 H   0  0  0  0  0  0  0  0  0  0  0  0
    4.8742    6.0084    0.0000 H   0  0  0  0  0  0  0  0  0  0  0  0
    2.1296    5.4250    0.0000 H   0  0  0  0  0  0  0  0  0  0  0  0
    3.3335    6.5090    0.0000 H   0  0  0  0  0  0  0  0  0  0  0  0
  1 24  1  0  0  0  0
  2 14  1  0  0  0  0
  2 23  1  0  0  0  0
  3 18  1  0  0  0  0
  3 26  1  0  0  0  0
  4  8  1  0  0  0  0
  4 10  1  0  0  0  0
  4 12  1  0  0  0  0
  5  6  1  0  0  0  0
  5 16  1  0  0  0  0
  5 22  1  0  0  0  0
  6 17  2  0  0  0  0
  7  8  1  0  0  0  0
  7  9  1  0  0  0  0
  7 11  1  0  0  0  0
  7 30  1  0  0  0  0
  8 31  1  0  0  0  0
  8 32  1  0  0  0  0
  9 10  1  0  0  0  0
  9 33  1  0  0  0  0
  9 34  1  0  0  0  0
 10 35  1  0  0  0  0
 10 36  1  0  0  0  0
 11 14  2  0  0  0  0
 11 15  1  0  0  0  0
 12 13  1  0  0  0  0
 12 37  1  0  0  0  0
 12 38  1  0  0  0  0
 13 16  2  0  0  0  0
 13 17  1  0  0  0  0
 14 19  1  0  0  0  0
 15 18  2  0  0  0  0
 15 39  1  0  0  0  0
 16 21  1  0  0  0  0
 17 40  1  0  0  0  0
 18 20  1  0  0  0  0
 19 20  2  0  0  0  0
 19 41  1  0  0  0  0
 20 42  1  0  0  0  0
 21 43  1  0  0  0  0
 21 44  1  0  0  0  0
 21 45  1  0  0  0  0
 22 24  1  0  0  0  0
 22 25  2  0  0  0  0
 23 46  1  0  0  0  0
 23 47  1  0  0  0  0
 23 48  1  0  0  0  0
 24 27  2  0  0  0  0
 25 28  1  0  0  0  0
 25 49  1  0  0  0  0
 26 50  1  0  0  0  0
 26 51  1  0  0  0  0
 26 52  1  0  0  0  0
 27 29  1  0  0  0  0
 27 53  1  0  0  0  0
 28 29  2  0  0  0  0
 28 54  1  0  0  0  0
 29 55  1  0  0  0  0
M  END
> <PUBCHEM_COMPOUND_CID>
49862237

> <PUBCHEM_COMPOUND_CANONICALIZED>
1

> <PUBCHEM_CACTVS_COMPLEXITY>
524

> <PUBCHEM_CACTVS_HBOND_ACCEPTOR>
5

> <PUBCHEM_CACTVS_HBOND_DONOR>
0

> <PUBCHEM_CACTVS_ROTATABLE_BOND>
6

> <PUBCHEM_CACTVS_SUBSKEYS>
AAADceB7MQAAAAAAAAAAAAAAAAAAAWLAAAAwYAAAAAAAAAAB0AAAHwAIAAAADQzBng4+xpMIBACiAzRnRACSDCAhogAYmCA+bJgMJuLE8duEtChkyBHI6Afw0PIOgQABAAAIAAACAAIAABAAAAAAAAAAAA==

> <PUBCHEM_IUPAC_OPENEYE_NAME>
4-[[3-(2,5-dimethoxyphenyl)pyrrolidin-1-yl]methyl]-1-(2-fluorophenyl)-5-methyl-pyrazole

> <PUBCHEM_IUPAC_CAS_NAME>
4-[[3-(2,5-dimethoxyphenyl)-1-pyrrolidinyl]methyl]-1-(2-fluorophenyl)-5-methylpyrazole

> <PUBCHEM_IUPAC_NAME_MARKUP>
4-[[3-(2,5-dimethoxyphenyl)pyrrolidin-1-yl]methyl]-1-(2-fluorophenyl)-5-methylpyrazole

> <PUBCHEM_IUPAC_NAME>
4-[[3-(2,5-dimethoxyphenyl)pyrrolidin-1-yl]methyl]-1-(2-fluorophenyl)-5-methylpyrazole

> <PUBCHEM_IUPAC_SYSTEMATIC_NAME>
4-[[3-(2,5-dimethoxyphenyl)pyrrolidin-1-yl]methyl]-1-(2-fluorophenyl)-5-methyl-pyrazole

> <PUBCHEM_IUPAC_TRADITIONAL_NAME>
4-[[3-(2,5-dimethoxyphenyl)pyrrolidino]methyl]-1-(2-fluorophenyl)-5-methyl-pyrazole

> <PUBCHEM_IUPAC_INCHI>
InChI=1S/C23H26FN3O2/c1-16-18(13-25-27(16)22-7-5-4-6-21(22)24)15-26-11-10-17(14-26)20-12-19(28-2)8-9-23(20)29-3/h4-9,12-13,17H,10-11,14-15H2,1-3H3

> <PUBCHEM_IUPAC_INCHIKEY>
QMCLIYXZDAYHLF-UHFFFAOYSA-N

> <PUBCHEM_XLOGP3_AA>
4

> <PUBCHEM_EXACT_MASS>
395.20090524

> <PUBCHEM_MOLECULAR_FORMULA>
C23H26FN3O2

> <PUBCHEM_MOLECULAR_WEIGHT>
395.5

> <PUBCHEM_OPENEYE_CAN_SMILES>
CC1=C(C=NN1C2=CC=CC=C2F)CN3CCC(C3)C4=C(C=CC(=C4)OC)OC

> <PUBCHEM_OPENEYE_ISO_SMILES>
CC1=C(C=NN1C2=CC=CC=C2F)CN3CCC(C3)C4=C(C=CC(=C4)OC)OC

> <PUBCHEM_CACTVS_TPSA>
39.5

> <PUBCHEM_MONOISOTOPIC_WEIGHT>
395.20090524

> <PUBCHEM_TOTAL_CHARGE>
0

> <PUBCHEM_HEAVY_ATOM_COUNT>
29

> <PUBCHEM_ATOM_DEF_STEREO_COUNT>
0

> <PUBCHEM_ATOM_UDEF_STEREO_COUNT>
1

> <PUBCHEM_BOND_DEF_STEREO_COUNT>
0

> <PUBCHEM_BOND_UDEF_STEREO_COUNT>
0

> <PUBCHEM_ISOTOPIC_ATOM_COUNT>
0

> <PUBCHEM_COMPONENT_COUNT>
1

> <PUBCHEM_CACTVS_TAUTO_COUNT>
-1

> <PUBCHEM_COORDINATE_TYPE>
1
5
255

> <PUBCHEM_BONDANNOTATIONS>
11  14  8
11  15  8
13  16  8
13  17  8
14  19  8
15  18  8
18  20  8
19  20  8
22  24  8
22  25  8
24  27  8
25  28  8
27  29  8
28  29  8
5  16  8
5  6  8
6  17  8
7  11  3

$$$$
