24900751
  -OEChem-09292322042D

 66 69  0     1  0  0  0  0  0999 V2000
   13.3385   -2.2903    0.0000 S   0  0  0  0  0  0  0  0  0  0  0  0
   12.3923   -0.5950    0.0000 O   0  0  0  0  0  0  0  0  0  0  0  0
   11.5263   -5.0950    0.0000 O   0  0  0  0  0  0  0  0  0  0  0  0
    4.5981    3.9050    0.0000 O   0  0  0  0  0  0  0  0  0  0  0  0
   14.9221   -3.0950    0.0000 O   0  0  0  0  0  0  0  0  0  0  0  0
   10.6603    0.4050    0.0000 N   0  0  0  0  0  0  0  0  0  0  0  0
   13.3385   -3.8997    0.0000 N   0  0  0  0  0  0  0  0  0  0  0  0
    5.4641    2.4050    0.0000 N   0  0  0  0  0  0  0  0  0  0  0  0
   11.5263   -1.0950    0.0000 C   0  0  1  0  0  0  0  0  0  0  0  0
   10.6603   -0.5950    0.0000 C   0  0  0  0  0  0  0  0  0  0  0  0
   11.5263   -2.0950    0.0000 C   0  0  0  0  0  0  0  0  0  0  0  0
    9.7942    0.9050    0.0000 C   0  0  0  0  0  0  0  0  0  0  0  0
    9.7942    1.9050    0.0000 C   0  0  0  0  0  0  0  0  0  0  0  0
   12.3923   -2.5950    0.0000 C   0  0  0  0  0  0  0  0  0  0  0  0
    8.9282    2.4050    0.0000 C   0  0  0  0  0  0  0  0  0  0  0  0
   12.3923   -3.5950    0.0000 C   0  0  0  0  0  0  0  0  0  0  0  0
    7.1962    2.4050    0.0000 C   0  0  0  0  0  0  0  0  0  0  0  0
   10.6603   -2.5950    0.0000 C   0  0  0  0  0  0  0  0  0  0  0  0
    8.0622    1.9050    0.0000 C   0  0  0  0  0  0  0  0  0  0  0  0
    6.3301    1.9050    0.0000 C   0  0  0  0  0  0  0  0  0  0  0  0
   11.5263   -4.0950    0.0000 C   0  0  0  0  0  0  0  0  0  0  0  0
    8.9282    3.4050    0.0000 C   0  0  0  0  0  0  0  0  0  0  0  0
   10.6603   -3.5950    0.0000 C   0  0  0  0  0  0  0  0  0  0  0  0
    7.1962    3.4050    0.0000 C   0  0  0  0  0  0  0  0  0  0  0  0
    4.5981    1.9050    0.0000 C   0  0  0  0  0  0  0  0  0  0  0  0
    8.0622    3.9050    0.0000 C   0  0  0  0  0  0  0  0  0  0  0  0
   13.9221   -3.0950    0.0000 C   0  0  0  0  0  0  0  0  0  0  0  0
    3.7320    2.4050    0.0000 C   0  0  0  0  0  0  0  0  0  0  0  0
    3.7320    3.4050    0.0000 C   0  0  0  0  0  0  0  0  0  0  0  0
    2.8660    1.9050    0.0000 C   0  0  0  0  0  0  0  0  0  0  0  0
    2.8660    3.9050    0.0000 C   0  0  0  0  0  0  0  0  0  0  0  0
    2.0000    2.4050    0.0000 C   0  0  0  0  0  0  0  0  0  0  0  0
    2.0000    3.4050    0.0000 C   0  0  0  0  0  0  0  0  0  0  0  0
    4.5981    4.9050    0.0000 C   0  0  0  0  0  0  0  0  0  0  0  0
    5.4641    5.4050    0.0000 C   0  0  0  0  0  0  0  0  0  0  0  0
   12.0632   -1.4050    0.0000 H   0  0  0  0  0  0  0  0  0  0  0  0
   10.0497   -0.4873    0.0000 H   0  0  0  0  0  0  0  0  0  0  0  0
   10.4482   -1.1776    0.0000 H   0  0  0  0  0  0  0  0  0  0  0  0
    9.1836    1.0127    0.0000 H   0  0  0  0  0  0  0  0  0  0  0  0
    9.5822    0.3224    0.0000 H   0  0  0  0  0  0  0  0  0  0  0  0
   10.4048    1.7973    0.0000 H   0  0  0  0  0  0  0  0  0  0  0  0
   10.0063    2.4876    0.0000 H   0  0  0  0  0  0  0  0  0  0  0  0
   11.1972    0.7150    0.0000 H   0  0  0  0  0  0  0  0  0  0  0  0
   10.1233   -2.2850    0.0000 H   0  0  0  0  0  0  0  0  0  0  0  0
    8.0622    1.2850    0.0000 H   0  0  0  0  0  0  0  0  0  0  0  0
    5.9316    1.4300    0.0000 H   0  0  0  0  0  0  0  0  0  0  0  0
    6.7287    1.4300    0.0000 H   0  0  0  0  0  0  0  0  0  0  0  0
    9.4651    3.7150    0.0000 H   0  0  0  0  0  0  0  0  0  0  0  0
   10.1233   -3.9050    0.0000 H   0  0  0  0  0  0  0  0  0  0  0  0
    6.6592    3.7150    0.0000 H   0  0  0  0  0  0  0  0  0  0  0  0
   13.5311   -4.4891    0.0000 H   0  0  0  0  0  0  0  0  0  0  0  0
    5.4641    3.0250    0.0000 H   0  0  0  0  0  0  0  0  0  0  0  0
   12.3923    0.0250    0.0000 H   0  0  0  0  0  0  0  0  0  0  0  0
    4.1996    1.4300    0.0000 H   0  0  0  0  0  0  0  0  0  0  0  0
    4.9966    1.4300    0.0000 H   0  0  0  0  0  0  0  0  0  0  0  0
    8.0622    4.5250    0.0000 H   0  0  0  0  0  0  0  0  0  0  0  0
    2.8660    1.2850    0.0000 H   0  0  0  0  0  0  0  0  0  0  0  0
   10.9893   -5.4050    0.0000 H   0  0  0  0  0  0  0  0  0  0  0  0
    2.8660    4.5250    0.0000 H   0  0  0  0  0  0  0  0  0  0  0  0
    1.4631    2.0950    0.0000 H   0  0  0  0  0  0  0  0  0  0  0  0
    1.4631    3.7150    0.0000 H   0  0  0  0  0  0  0  0  0  0  0  0
    4.3860    5.4876    0.0000 H   0  0  0  0  0  0  0  0  0  0  0  0
    3.9875    4.7973    0.0000 H   0  0  0  0  0  0  0  0  0  0  0  0
    5.7741    4.8681    0.0000 H   0  0  0  0  0  0  0  0  0  0  0  0
    6.0010    5.7150    0.0000 H   0  0  0  0  0  0  0  0  0  0  0  0
    5.1541    5.9419    0.0000 H   0  0  0  0  0  0  0  0  0  0  0  0
  1 14  1  0  0  0  0
  1 27  1  0  0  0  0
  9  2  1  6  0  0  0
  2 53  1  0  0  0  0
  3 21  1  0  0  0  0
  3 58  1  0  0  0  0
  4 29  1  0  0  0  0
  4 34  1  0  0  0  0
  5 27  2  0  0  0  0
  6 10  1  0  0  0  0
  6 12  1  0  0  0  0
  6 43  1  0  0  0  0
  7 16  1  0  0  0  0
  7 27  1  0  0  0  0
  7 51  1  0  0  0  0
  8 20  1  0  0  0  0
  8 25  1  0  0  0  0
  8 52  1  0  0  0  0
  9 10  1  0  0  0  0
  9 11  1  0  0  0  0
  9 36  1  0  0  0  0
 10 37  1  0  0  0  0
 10 38  1  0  0  0  0
 11 14  2  0  0  0  0
 11 18  1  0  0  0  0
 12 13  1  0  0  0  0
 12 39  1  0  0  0  0
 12 40  1  0  0  0  0
 13 15  1  0  0  0  0
 13 41  1  0  0  0  0
 13 42  1  0  0  0  0
 14 16  1  0  0  0  0
 15 19  2  0  0  0  0
 15 22  1  0  0  0  0
 16 21  2  0  0  0  0
 17 19  1  0  0  0  0
 17 20  1  0  0  0  0
 17 24  2  0  0  0  0
 18 23  2  0  0  0  0
 18 44  1  0  0  0  0
 19 45  1  0  0  0  0
 20 46  1  0  0  0  0
 20 47  1  0  0  0  0
 21 23  1  0  0  0  0
 22 26  2  0  0  0  0
 22 48  1  0  0  0  0
 23 49  1  0  0  0  0
 24 26  1  0  0  0  0
 24 50  1  0  0  0  0
 25 28  1  0  0  0  0
 25 54  1  0  0  0  0
 25 55  1  0  0  0  0
 26 56  1  0  0  0  0
 28 29  1  0  0  0  0
 28 30  2  0  0  0  0
 29 31  2  0  0  0  0
 30 32  1  0  0  0  0
 30 57  1  0  0  0  0
 31 33  1  0  0  0  0
 31 59  1  0  0  0  0
 32 33  2  0  0  0  0
 32 60  1  0  0  0  0
 33 61  1  0  0  0  0
 34 35  1  0  0  0  0
 34 62  1  0  0  0  0
 34 63  1  0  0  0  0
 35 64  1  0  0  0  0
 35 65  1  0  0  0  0
 35 66  1  0  0  0  0
M  END
> <PUBCHEM_COMPOUND_CID>
24900751

> <PUBCHEM_COMPOUND_CANONICALIZED>
1

> <PUBCHEM_CACTVS_COMPLEXITY>
656

> <PUBCHEM_CACTVS_HBOND_ACCEPTOR>
7

> <PUBCHEM_CACTVS_HBOND_DONOR>
5

> <PUBCHEM_CACTVS_ROTATABLE_BOND>
12

> <PUBCHEM_CACTVS_SUBSKEYS>
AAADceB7OABAAAAAAAAAAAAAAAAAAWAAAAAwYMAAAAAAAFgBUAAAHgQQCAAADBzh2AYyx4LABgiIAiRCUACCCABhKBAIiJQPTIgONiL2sZuGeCjm1BHY+Aew4OQOIAACRAAMEQBAAASIABgiAAAAAAAAAA==

> <PUBCHEM_IUPAC_OPENEYE_NAME>
7-[(1R)-2-[2-[3-[[(2-ethoxyphenyl)methylamino]methyl]phenyl]ethylamino]-1-hydroxy-ethyl]-4-hydroxy-3H-1,3-benzothiazol-2-one

> <PUBCHEM_IUPAC_CAS_NAME>
7-[(1R)-2-[2-[3-[[(2-ethoxyphenyl)methylamino]methyl]phenyl]ethylamino]-1-hydroxyethyl]-4-hydroxy-3H-1,3-benzothiazol-2-one

> <PUBCHEM_IUPAC_NAME_MARKUP>
7-[(1<I>R</I>)-2-[2-[3-[[(2-ethoxyphenyl)methylamino]methyl]phenyl]ethylamino]-1-hydroxyethyl]-4-hydroxy-3<I>H</I>-1,3-benzothiazol-2-one

> <PUBCHEM_IUPAC_NAME>
7-[(1R)-2-[2-[3-[[(2-ethoxyphenyl)methylamino]methyl]phenyl]ethylamino]-1-hydroxyethyl]-4-hydroxy-3H-1,3-benzothiazol-2-one

> <PUBCHEM_IUPAC_SYSTEMATIC_NAME>
7-[(1R)-2-[2-[3-[[(2-ethoxyphenyl)methylamino]methyl]phenyl]ethylamino]-1-oxidanyl-ethyl]-4-oxidanyl-3H-1,3-benzothiazol-2-one

> <PUBCHEM_IUPAC_TRADITIONAL_NAME>
7-[(1R)-2-[2-[3-[[(2-ethoxybenzyl)amino]methyl]phenyl]ethylamino]-1-hydroxy-ethyl]-4-hydroxy-3H-1,3-benzothiazol-2-one

> <PUBCHEM_IUPAC_INCHI>
InChI=1S/C27H31N3O4S/c1-2-34-24-9-4-3-8-20(24)16-29-15-19-7-5-6-18(14-19)12-13-28-17-23(32)21-10-11-22(31)25-26(21)35-27(33)30-25/h3-11,14,23,28-29,31-32H,2,12-13,15-17H2,1H3,(H,30,33)/t23-/m0/s1

> <PUBCHEM_IUPAC_INCHIKEY>
VKISKXWEKUKQJG-QHCPKHFHSA-N

> <PUBCHEM_XLOGP3_AA>
3.2

> <PUBCHEM_EXACT_MASS>
493.20352765

> <PUBCHEM_MOLECULAR_FORMULA>
C27H31N3O4S

> <PUBCHEM_MOLECULAR_WEIGHT>
493.6

> <PUBCHEM_OPENEYE_CAN_SMILES>
CCOC1=CC=CC=C1CNCC2=CC=CC(=C2)CCNCC(C3=C4C(=C(C=C3)O)NC(=O)S4)O

> <PUBCHEM_OPENEYE_ISO_SMILES>
CCOC1=CC=CC=C1CNCC2=CC=CC(=C2)CCNC[C@@H](C3=C4C(=C(C=C3)O)NC(=O)S4)O

> <PUBCHEM_CACTVS_TPSA>
128

> <PUBCHEM_MONOISOTOPIC_WEIGHT>
493.20352765

> <PUBCHEM_TOTAL_CHARGE>
0

> <PUBCHEM_HEAVY_ATOM_COUNT>
35

> <PUBCHEM_ATOM_DEF_STEREO_COUNT>
1

> <PUBCHEM_ATOM_UDEF_STEREO_COUNT>
0

> <PUBCHEM_BOND_DEF_STEREO_COUNT>
0

> <PUBCHEM_BOND_UDEF_STEREO_COUNT>
0

> <PUBCHEM_ISOTOPIC_ATOM_COUNT>
0

> <PUBCHEM_COMPONENT_COUNT>
1

> <PUBCHEM_CACTVS_TAUTO_COUNT>
-1

> <PUBCHEM_COORDINATE_TYPE>
1
5
255

> <PUBCHEM_BONDANNOTATIONS>
1  14  8
1  27  8
11  14  8
11  18  8
14  16  8
15  19  8
15  22  8
16  21  8
17  19  8
17  24  8
18  23  8
9  2  6
21  23  8
22  26  8
24  26  8
28  29  8
28  30  8
29  31  8
30  32  8
31  33  8
32  33  8
7  16  8
7  27  8

$$$$
