10667579
  -OEChem-09292322142D

 51 54  0     0  0  0  0  0  0999 V2000
    2.0000   -3.0352    0.0000 Cl  0  0  0  0  0  0  0  0  0  0  0  0
    3.7040    1.2436    0.0000 O   0  0  0  0  0  0  0  0  0  0  0  0
    5.4641   -2.0352    0.0000 N   0  0  0  0  0  0  0  0  0  0  0  0
    5.4641    0.9648    0.0000 N   0  0  0  0  0  0  0  0  0  0  0  0
    4.9641    2.5036    0.0000 N   0  0  0  0  0  0  0  0  0  0  0  0
    5.4641   -0.0352    0.0000 C   0  0  0  0  0  0  0  0  0  0  0  0
    4.5981   -0.5352    0.0000 C   0  0  0  0  0  0  0  0  0  0  0  0
    6.3301   -0.5352    0.0000 C   0  0  0  0  0  0  0  0  0  0  0  0
    4.5981   -1.5352    0.0000 C   0  0  0  0  0  0  0  0  0  0  0  0
    6.3301   -1.5352    0.0000 C   0  0  0  0  0  0  0  0  0  0  0  0
    5.4641   -3.0352    0.0000 C   0  0  0  0  0  0  0  0  0  0  0  0
    6.2731    1.5526    0.0000 C   0  0  0  0  0  0  0  0  0  0  0  0
    4.6551    1.5526    0.0000 C   0  0  0  0  0  0  0  0  0  0  0  0
    5.9641    2.5036    0.0000 C   0  0  0  0  0  0  0  0  0  0  0  0
    4.5981   -3.5352    0.0000 C   0  0  0  0  0  0  0  0  0  0  0  0
    7.2242    1.2436    0.0000 C   0  0  0  0  0  0  0  0  0  0  0  0
    6.5519    3.3126    0.0000 C   0  0  0  0  0  0  0  0  0  0  0  0
    3.7320   -3.0352    0.0000 C   0  0  0  0  0  0  0  0  0  0  0  0
    4.5981   -4.5352    0.0000 C   0  0  0  0  0  0  0  0  0  0  0  0
    6.1452    4.2262    0.0000 C   0  0  0  0  0  0  0  0  0  0  0  0
    7.5464    3.2081    0.0000 C   0  0  0  0  0  0  0  0  0  0  0  0
    2.8660   -3.5352    0.0000 C   0  0  0  0  0  0  0  0  0  0  0  0
    3.7320   -5.0352    0.0000 C   0  0  0  0  0  0  0  0  0  0  0  0
    2.8660   -4.5352    0.0000 C   0  0  0  0  0  0  0  0  0  0  0  0
    6.7329    5.0352    0.0000 C   0  0  0  0  0  0  0  0  0  0  0  0
    8.1342    4.0171    0.0000 C   0  0  0  0  0  0  0  0  0  0  0  0
    7.7275    4.9307    0.0000 C   0  0  0  0  0  0  0  0  0  0  0  0
    6.0010    0.2748    0.0000 H   0  0  0  0  0  0  0  0  0  0  0  0
    4.3860    0.0474    0.0000 H   0  0  0  0  0  0  0  0  0  0  0  0
    3.9875   -0.6429    0.0000 H   0  0  0  0  0  0  0  0  0  0  0  0
    6.9407   -0.6429    0.0000 H   0  0  0  0  0  0  0  0  0  0  0  0
    6.5422    0.0474    0.0000 H   0  0  0  0  0  0  0  0  0  0  0  0
    3.9875   -1.4276    0.0000 H   0  0  0  0  0  0  0  0  0  0  0  0
    4.3860   -2.1178    0.0000 H   0  0  0  0  0  0  0  0  0  0  0  0
    6.5422   -2.1178    0.0000 H   0  0  0  0  0  0  0  0  0  0  0  0
    6.9407   -1.4276    0.0000 H   0  0  0  0  0  0  0  0  0  0  0  0
    5.6762   -3.6178    0.0000 H   0  0  0  0  0  0  0  0  0  0  0  0
    6.0747   -2.9276    0.0000 H   0  0  0  0  0  0  0  0  0  0  0  0
    4.5997    3.0052    0.0000 H   0  0  0  0  0  0  0  0  0  0  0  0
    7.0326    0.6539    0.0000 H   0  0  0  0  0  0  0  0  0  0  0  0
    7.8138    1.0520    0.0000 H   0  0  0  0  0  0  0  0  0  0  0  0
    7.4158    1.8332    0.0000 H   0  0  0  0  0  0  0  0  0  0  0  0
    3.7320   -2.4152    0.0000 H   0  0  0  0  0  0  0  0  0  0  0  0
    5.1350   -4.8452    0.0000 H   0  0  0  0  0  0  0  0  0  0  0  0
    5.5286    4.2910    0.0000 H   0  0  0  0  0  0  0  0  0  0  0  0
    7.7986    2.6417    0.0000 H   0  0  0  0  0  0  0  0  0  0  0  0
    3.7320   -5.6552    0.0000 H   0  0  0  0  0  0  0  0  0  0  0  0
    2.3291   -4.8452    0.0000 H   0  0  0  0  0  0  0  0  0  0  0  0
    6.4808    5.6016    0.0000 H   0  0  0  0  0  0  0  0  0  0  0  0
    8.7508    3.9523    0.0000 H   0  0  0  0  0  0  0  0  0  0  0  0
    8.0919    5.4323    0.0000 H   0  0  0  0  0  0  0  0  0  0  0  0
  1 22  1  0  0  0  0
  2 13  2  0  0  0  0
  3  9  1  0  0  0  0
  3 10  1  0  0  0  0
  3 11  1  0  0  0  0
  4  6  1  0  0  0  0
  4 12  1  0  0  0  0
  4 13  1  0  0  0  0
  5 13  1  0  0  0  0
  5 14  1  0  0  0  0
  5 39  1  0  0  0  0
  6  7  1  0  0  0  0
  6  8  1  0  0  0  0
  6 28  1  0  0  0  0
  7  9  1  0  0  0  0
  7 29  1  0  0  0  0
  7 30  1  0  0  0  0
  8 10  1  0  0  0  0
  8 31  1  0  0  0  0
  8 32  1  0  0  0  0
  9 33  1  0  0  0  0
  9 34  1  0  0  0  0
 10 35  1  0  0  0  0
 10 36  1  0  0  0  0
 11 15  1  0  0  0  0
 11 37  1  0  0  0  0
 11 38  1  0  0  0  0
 12 14  2  0  0  0  0
 12 16  1  0  0  0  0
 14 17  1  0  0  0  0
 15 18  2  0  0  0  0
 15 19  1  0  0  0  0
 16 40  1  0  0  0  0
 16 41  1  0  0  0  0
 16 42  1  0  0  0  0
 17 20  2  0  0  0  0
 17 21  1  0  0  0  0
 18 22  1  0  0  0  0
 18 43  1  0  0  0  0
 19 23  2  0  0  0  0
 19 44  1  0  0  0  0
 20 25  1  0  0  0  0
 20 45  1  0  0  0  0
 21 26  2  0  0  0  0
 21 46  1  0  0  0  0
 22 24  2  0  0  0  0
 23 24  1  0  0  0  0
 23 47  1  0  0  0  0
 24 48  1  0  0  0  0
 25 27  2  0  0  0  0
 25 49  1  0  0  0  0
 26 27  1  0  0  0  0
 26 50  1  0  0  0  0
 27 51  1  0  0  0  0
M  END
> <PUBCHEM_COMPOUND_CID>
10667579

> <PUBCHEM_COMPOUND_CANONICALIZED>
1

> <PUBCHEM_CACTVS_COMPLEXITY>
564

> <PUBCHEM_CACTVS_HBOND_ACCEPTOR>
2

> <PUBCHEM_CACTVS_HBOND_DONOR>
1

> <PUBCHEM_CACTVS_ROTATABLE_BOND>
4

> <PUBCHEM_CACTVS_SUBSKEYS>
AAADceB7IAAEAAAAAAAAAAAAAAAAAQAAAAA8YIAAAAAAAAABQAAAHgIQAAAADCrBGCQzAIPAAACIAiRCUACCAAAgBQAIiAAIBoiIICKB0xGEIAhohgKIiAcQgAAOAAAAIAAAAAAAAABAAAAAAAAAAAAAAA==

> <PUBCHEM_IUPAC_OPENEYE_NAME>
3-[1-[(3-chlorophenyl)methyl]-4-piperidyl]-4-methyl-5-phenyl-1H-imidazol-2-one

> <PUBCHEM_IUPAC_CAS_NAME>
3-[1-[(3-chlorophenyl)methyl]-4-piperidinyl]-4-methyl-5-phenyl-1H-imidazol-2-one

> <PUBCHEM_IUPAC_NAME_MARKUP>
3-[1-[(3-chlorophenyl)methyl]piperidin-4-yl]-4-methyl-5-phenyl-1<I>H</I>-imidazol-2-one

> <PUBCHEM_IUPAC_NAME>
3-[1-[(3-chlorophenyl)methyl]piperidin-4-yl]-4-methyl-5-phenyl-1H-imidazol-2-one

> <PUBCHEM_IUPAC_SYSTEMATIC_NAME>
3-[1-[(3-chlorophenyl)methyl]piperidin-4-yl]-4-methyl-5-phenyl-1H-imidazol-2-one

> <PUBCHEM_IUPAC_TRADITIONAL_NAME>
1-[1-(3-chlorobenzyl)-4-piperidyl]-5-methyl-4-phenyl-4-imidazolin-2-one

> <PUBCHEM_IUPAC_INCHI>
InChI=1S/C22H24ClN3O/c1-16-21(18-7-3-2-4-8-18)24-22(27)26(16)20-10-12-25(13-11-20)15-17-6-5-9-19(23)14-17/h2-9,14,20H,10-13,15H2,1H3,(H,24,27)

> <PUBCHEM_IUPAC_INCHIKEY>
PDJMURIRAHUSPJ-UHFFFAOYSA-N

> <PUBCHEM_XLOGP3_AA>
4.1

> <PUBCHEM_EXACT_MASS>
381.1607901

> <PUBCHEM_MOLECULAR_FORMULA>
C22H24ClN3O

> <PUBCHEM_MOLECULAR_WEIGHT>
381.9

> <PUBCHEM_OPENEYE_CAN_SMILES>
CC1=C(NC(=O)N1C2CCN(CC2)CC3=CC(=CC=C3)Cl)C4=CC=CC=C4

> <PUBCHEM_OPENEYE_ISO_SMILES>
CC1=C(NC(=O)N1C2CCN(CC2)CC3=CC(=CC=C3)Cl)C4=CC=CC=C4

> <PUBCHEM_CACTVS_TPSA>
35.6

> <PUBCHEM_MONOISOTOPIC_WEIGHT>
381.1607901

> <PUBCHEM_TOTAL_CHARGE>
0

> <PUBCHEM_HEAVY_ATOM_COUNT>
27

> <PUBCHEM_ATOM_DEF_STEREO_COUNT>
0

> <PUBCHEM_ATOM_UDEF_STEREO_COUNT>
0

> <PUBCHEM_BOND_DEF_STEREO_COUNT>
0

> <PUBCHEM_BOND_UDEF_STEREO_COUNT>
0

> <PUBCHEM_ISOTOPIC_ATOM_COUNT>
0

> <PUBCHEM_COMPONENT_COUNT>
1

> <PUBCHEM_CACTVS_TAUTO_COUNT>
-1

> <PUBCHEM_COORDINATE_TYPE>
1
5
255

> <PUBCHEM_BONDANNOTATIONS>
12  14  8
15  18  8
15  19  8
17  20  8
17  21  8
18  22  8
19  23  8
20  25  8
21  26  8
22  24  8
23  24  8
25  27  8
26  27  8
4  12  8
4  13  8
5  13  8
5  14  8

$$$$
