11662426
  -OEChem-09292322482D

 61 65  0     0  0  0  0  0  0999 V2000
    6.4103   -5.7231    0.0000 O   0  0  0  0  0  0  0  0  0  0  0  0
    2.8660   -3.9184    0.0000 O   0  0  0  0  0  0  0  0  0  0  0  0
   11.8777    1.4638    0.0000 O   0  0  0  0  0  0  0  0  0  0  0  0
   13.7174    4.7205    0.0000 O   0  0  0  0  0  0  0  0  0  0  0  0
   12.6426    5.9184    0.0000 O   0  0  0  0  0  0  0  0  0  0  0  0
    7.3423   -1.2621    0.0000 N   0  0  0  0  0  0  0  0  0  0  0  0
    6.7210   -3.1632    0.0000 N   0  0  0  0  0  0  0  0  0  0  0  0
    6.9939   -4.9184    0.0000 N   0  0  0  0  0  0  0  0  0  0  0  0
   10.2313    2.0019    0.0000 N   0  0  0  0  0  0  0  0  0  0  0  0
    8.0102   -2.0064    0.0000 C   0  0  0  0  0  0  0  0  0  0  0  0
    6.3638   -1.4683    0.0000 C   0  0  0  0  0  0  0  0  0  0  0  0
    7.6995   -2.9569    0.0000 C   0  0  0  0  0  0  0  0  0  0  0  0
    6.0531   -2.4188    0.0000 C   0  0  0  0  0  0  0  0  0  0  0  0
    7.6530   -0.3116    0.0000 C   0  0  0  0  0  0  0  0  0  0  0  0
    8.6315   -0.1054    0.0000 C   0  0  0  0  0  0  0  0  0  0  0  0
    6.4103   -4.1137    0.0000 C   0  0  0  0  0  0  0  0  0  0  0  0
    8.9421    0.8451    0.0000 C   0  0  0  0  0  0  0  0  0  0  0  0
    5.4641   -4.4184    0.0000 C   0  0  0  0  0  0  0  0  0  0  0  0
    9.9206    1.0514    0.0000 C   0  0  0  0  0  0  0  0  0  0  0  0
    5.4641   -5.4184    0.0000 C   0  0  0  0  0  0  0  0  0  0  0  0
    4.5981   -3.9184    0.0000 C   0  0  0  0  0  0  0  0  0  0  0  0
    4.5981   -5.9184    0.0000 C   0  0  0  0  0  0  0  0  0  0  0  0
    3.7320   -4.4184    0.0000 C   0  0  0  0  0  0  0  0  0  0  0  0
    3.7320   -5.4184    0.0000 C   0  0  0  0  0  0  0  0  0  0  0  0
   11.2098    2.2081    0.0000 C   0  0  0  0  0  0  0  0  0  0  0  0
   11.5205    3.1586    0.0000 C   0  0  0  0  0  0  0  0  0  0  0  0
   12.4990    3.3648    0.0000 C   0  0  0  0  0  0  0  0  0  0  0  0
   10.8526    3.9029    0.0000 C   0  0  0  0  0  0  0  0  0  0  0  0
   12.8096    4.3154    0.0000 C   0  0  0  0  0  0  0  0  0  0  0  0
   12.1418    5.0597    0.0000 C   0  0  0  0  0  0  0  0  0  0  0  0
   11.1633    4.8534    0.0000 C   0  0  0  0  0  0  0  0  0  0  0  0
    2.0000   -4.4184    0.0000 C   0  0  0  0  0  0  0  0  0  0  0  0
   13.6144    5.7092    0.0000 C   0  0  0  0  0  0  0  0  0  0  0  0
    8.5571   -2.2984    0.0000 H   0  0  0  0  0  0  0  0  0  0  0  0
    8.3927   -1.5185    0.0000 H   0  0  0  0  0  0  0  0  0  0  0  0
    6.3432   -0.8487    0.0000 H   0  0  0  0  0  0  0  0  0  0  0  0
    5.7500   -1.3810    0.0000 H   0  0  0  0  0  0  0  0  0  0  0  0
    7.7201   -3.5766    0.0000 H   0  0  0  0  0  0  0  0  0  0  0  0
    8.3133   -3.0443    0.0000 H   0  0  0  0  0  0  0  0  0  0  0  0
    5.5062   -2.1268    0.0000 H   0  0  0  0  0  0  0  0  0  0  0  0
    5.6706   -2.9068    0.0000 H   0  0  0  0  0  0  0  0  0  0  0  0
    7.6324    0.3081    0.0000 H   0  0  0  0  0  0  0  0  0  0  0  0
    7.0392   -0.2242    0.0000 H   0  0  0  0  0  0  0  0  0  0  0  0
    8.6520   -0.7250    0.0000 H   0  0  0  0  0  0  0  0  0  0  0  0
    9.2453   -0.1927    0.0000 H   0  0  0  0  0  0  0  0  0  0  0  0
    8.9216    1.4648    0.0000 H   0  0  0  0  0  0  0  0  0  0  0  0
    8.3283    0.9325    0.0000 H   0  0  0  0  0  0  0  0  0  0  0  0
    9.9412    0.4317    0.0000 H   0  0  0  0  0  0  0  0  0  0  0  0
   10.5345    0.9640    0.0000 H   0  0  0  0  0  0  0  0  0  0  0  0
    4.5981   -3.2984    0.0000 H   0  0  0  0  0  0  0  0  0  0  0  0
    9.8172    2.4634    0.0000 H   0  0  0  0  0  0  0  0  0  0  0  0
    4.5981   -6.5384    0.0000 H   0  0  0  0  0  0  0  0  0  0  0  0
    3.1951   -5.7284    0.0000 H   0  0  0  0  0  0  0  0  0  0  0  0
   12.9130    2.9034    0.0000 H   0  0  0  0  0  0  0  0  0  0  0  0
   10.2460    3.7751    0.0000 H   0  0  0  0  0  0  0  0  0  0  0  0
   10.7492    5.3149    0.0000 H   0  0  0  0  0  0  0  0  0  0  0  0
    1.6900   -3.8815    0.0000 H   0  0  0  0  0  0  0  0  0  0  0  0
    1.4631   -4.7284    0.0000 H   0  0  0  0  0  0  0  0  0  0  0  0
    2.3100   -4.9553    0.0000 H   0  0  0  0  0  0  0  0  0  0  0  0
   14.2344    5.7083    0.0000 H   0  0  0  0  0  0  0  0  0  0  0  0
   13.6804    6.3257    0.0000 H   0  0  0  0  0  0  0  0  0  0  0  0
  1  8  1  0  0  0  0
  1 20  1  0  0  0  0
  2 23  1  0  0  0  0
  2 32  1  0  0  0  0
  3 25  2  0  0  0  0
  4 29  1  0  0  0  0
  4 33  1  0  0  0  0
  5 30  1  0  0  0  0
  5 33  1  0  0  0  0
  6 10  1  0  0  0  0
  6 11  1  0  0  0  0
  6 14  1  0  0  0  0
  7 12  1  0  0  0  0
  7 13  1  0  0  0  0
  7 16  1  0  0  0  0
  8 16  2  0  0  0  0
  9 19  1  0  0  0  0
  9 25  1  0  0  0  0
  9 51  1  0  0  0  0
 10 12  1  0  0  0  0
 10 34  1  0  0  0  0
 10 35  1  0  0  0  0
 11 13  1  0  0  0  0
 11 36  1  0  0  0  0
 11 37  1  0  0  0  0
 12 38  1  0  0  0  0
 12 39  1  0  0  0  0
 13 40  1  0  0  0  0
 13 41  1  0  0  0  0
 14 15  1  0  0  0  0
 14 42  1  0  0  0  0
 14 43  1  0  0  0  0
 15 17  1  0  0  0  0
 15 44  1  0  0  0  0
 15 45  1  0  0  0  0
 16 18  1  0  0  0  0
 17 19  1  0  0  0  0
 17 46  1  0  0  0  0
 17 47  1  0  0  0  0
 18 20  2  0  0  0  0
 18 21  1  0  0  0  0
 19 48  1  0  0  0  0
 19 49  1  0  0  0  0
 20 22  1  0  0  0  0
 21 23  2  0  0  0  0
 21 50  1  0  0  0  0
 22 24  2  0  0  0  0
 22 52  1  0  0  0  0
 23 24  1  0  0  0  0
 24 53  1  0  0  0  0
 25 26  1  0  0  0  0
 26 27  2  0  0  0  0
 26 28  1  0  0  0  0
 27 29  1  0  0  0  0
 27 54  1  0  0  0  0
 28 31  2  0  0  0  0
 28 55  1  0  0  0  0
 29 30  2  0  0  0  0
 30 31  1  0  0  0  0
 31 56  1  0  0  0  0
 32 57  1  0  0  0  0
 32 58  1  0  0  0  0
 32 59  1  0  0  0  0
 33 60  1  0  0  0  0
 33 61  1  0  0  0  0
M  END
> <PUBCHEM_COMPOUND_CID>
11662426

> <PUBCHEM_COMPOUND_CANONICALIZED>
1

> <PUBCHEM_CACTVS_COMPLEXITY>
646

> <PUBCHEM_CACTVS_HBOND_ACCEPTOR>
8

> <PUBCHEM_CACTVS_HBOND_DONOR>
1

> <PUBCHEM_CACTVS_ROTATABLE_BOND>
8

> <PUBCHEM_CACTVS_SUBSKEYS>
AAADceB7uAAAAAAAAAAAAAAAAAAAAWJAAAA8YIAAAAAAAFgB9AAAHgAUAAAADATBmgczvtPQBACpAqNycgCCCAAlIAApmKEuzNqdZrrEvZu0Mapm1hvO6cf63DLOIQABAAAIQABCAAIAABCAAAAAAAAAAA==

> <PUBCHEM_IUPAC_OPENEYE_NAME>
N-[4-[4-(5-methoxy-1,2-benzoxazol-3-yl)piperazin-1-yl]butyl]-1,3-benzodioxole-5-carboxamide

> <PUBCHEM_IUPAC_CAS_NAME>
N-[4-[4-(5-methoxy-1,2-benzoxazol-3-yl)-1-piperazinyl]butyl]-1,3-benzodioxole-5-carboxamide

> <PUBCHEM_IUPAC_NAME_MARKUP>
<I>N</I>-[4-[4-(5-methoxy-1,2-benzoxazol-3-yl)piperazin-1-yl]butyl]-1,3-benzodioxole-5-carboxamide

> <PUBCHEM_IUPAC_NAME>
N-[4-[4-(5-methoxy-1,2-benzoxazol-3-yl)piperazin-1-yl]butyl]-1,3-benzodioxole-5-carboxamide

> <PUBCHEM_IUPAC_SYSTEMATIC_NAME>
N-[4-[4-(5-methoxy-1,2-benzoxazol-3-yl)piperazin-1-yl]butyl]-1,3-benzodioxole-5-carboxamide

> <PUBCHEM_IUPAC_TRADITIONAL_NAME>
N-[4-[4-(5-methoxyindoxazen-3-yl)piperazino]butyl]-piperonylamide

> <PUBCHEM_IUPAC_INCHI>
InChI=1S/C24H28N4O5/c1-30-18-5-7-20-19(15-18)23(26-33-20)28-12-10-27(11-13-28)9-3-2-8-25-24(29)17-4-6-21-22(14-17)32-16-31-21/h4-7,14-15H,2-3,8-13,16H2,1H3,(H,25,29)

> <PUBCHEM_IUPAC_INCHIKEY>
DDFVILDYNDAEIK-UHFFFAOYSA-N

> <PUBCHEM_XLOGP3_AA>
3.4

> <PUBCHEM_EXACT_MASS>
452.20597001

> <PUBCHEM_MOLECULAR_FORMULA>
C24H28N4O5

> <PUBCHEM_MOLECULAR_WEIGHT>
452.5

> <PUBCHEM_OPENEYE_CAN_SMILES>
COC1=CC2=C(C=C1)ON=C2N3CCN(CC3)CCCCNC(=O)C4=CC5=C(C=C4)OCO5

> <PUBCHEM_OPENEYE_ISO_SMILES>
COC1=CC2=C(C=C1)ON=C2N3CCN(CC3)CCCCNC(=O)C4=CC5=C(C=C4)OCO5

> <PUBCHEM_CACTVS_TPSA>
89.3

> <PUBCHEM_MONOISOTOPIC_WEIGHT>
452.20597001

> <PUBCHEM_TOTAL_CHARGE>
0

> <PUBCHEM_HEAVY_ATOM_COUNT>
33

> <PUBCHEM_ATOM_DEF_STEREO_COUNT>
0

> <PUBCHEM_ATOM_UDEF_STEREO_COUNT>
0

> <PUBCHEM_BOND_DEF_STEREO_COUNT>
0

> <PUBCHEM_BOND_UDEF_STEREO_COUNT>
0

> <PUBCHEM_ISOTOPIC_ATOM_COUNT>
0

> <PUBCHEM_COMPONENT_COUNT>
1

> <PUBCHEM_CACTVS_TAUTO_COUNT>
-1

> <PUBCHEM_COORDINATE_TYPE>
1
5
255

> <PUBCHEM_BONDANNOTATIONS>
1  20  8
1  8  8
16  18  8
18  20  8
18  21  8
20  22  8
21  23  8
22  24  8
23  24  8
26  27  8
26  28  8
27  29  8
28  31  8
29  30  8
30  31  8
8  16  8

$$$$
