66559778
  -OEChem-09292321592D

 64 67  0     0  0  0  0  0  0999 V2000
   10.6833   -2.6854    0.0000 O   0  0  0  0  0  0  0  0  0  0  0  0
    2.8718    1.7846    0.0000 O   0  0  0  0  0  0  0  0  0  0  0  0
   15.9455   -2.6612    0.0000 O   0  0  0  0  0  0  0  0  0  0  0  0
    6.3513   -2.2021    0.0000 N   0  0  0  0  0  0  0  0  0  0  0  0
    4.6154   -1.2087    0.0000 N   0  0  0  0  0  0  0  0  0  0  0  0
   14.2134   -2.6612    0.0000 N   0  0  0  0  0  0  0  0  0  0  0  0
    6.3474   -1.2021    0.0000 C   0  0  0  0  0  0  0  0  0  0  0  0
    5.4872   -2.7054    0.0000 C   0  0  0  0  0  0  0  0  0  0  0  0
    5.4795   -0.7054    0.0000 C   0  0  0  0  0  0  0  0  0  0  0  0
    4.6193   -2.2087    0.0000 C   0  0  0  0  0  0  0  0  0  0  0  0
    7.2192   -2.6987    0.0000 C   0  0  0  0  0  0  0  0  0  0  0  0
    8.0833   -2.1954    0.0000 C   0  0  0  0  0  0  0  0  0  0  0  0
    3.7475   -0.7121    0.0000 C   0  0  0  0  0  0  0  0  0  0  0  0
    8.9513   -2.6920    0.0000 C   0  0  0  0  0  0  0  0  0  0  0  0
    9.8154   -2.1887    0.0000 C   0  0  0  0  0  0  0  0  0  0  0  0
    3.7436    0.2879    0.0000 C   0  0  0  0  0  0  0  0  0  0  0  0
    2.8834   -1.2154    0.0000 C   0  0  0  0  0  0  0  0  0  0  0  0
    2.8757    0.7846    0.0000 C   0  0  0  0  0  0  0  0  0  0  0  0
    2.0154   -0.7188    0.0000 C   0  0  0  0  0  0  0  0  0  0  0  0
   13.3474   -1.1612    0.0000 C   0  0  0  0  0  0  0  0  0  0  0  0
   14.2134   -0.6612    0.0000 C   0  0  0  0  0  0  0  0  0  0  0  0
   11.5474   -2.1820    0.0000 C   0  0  0  0  0  0  0  0  0  0  0  0
   13.3474   -2.1612    0.0000 C   0  0  0  0  0  0  0  0  0  0  0  0
    2.0116    0.2812    0.0000 C   0  0  0  0  0  0  0  0  0  0  0  0
   15.0795   -1.1612    0.0000 C   0  0  0  0  0  0  0  0  0  0  0  0
   12.4535   -2.6959    0.0000 C   0  0  0  0  0  0  0  0  0  0  0  0
   12.4535   -0.6266    0.0000 C   0  0  0  0  0  0  0  0  0  0  0  0
   11.5474   -1.1404    0.0000 C   0  0  0  0  0  0  0  0  0  0  0  0
   15.0795   -2.1612    0.0000 C   0  0  0  0  0  0  0  0  0  0  0  0
    2.0038    2.2812    0.0000 C   0  0  0  0  0  0  0  0  0  0  0  0
    2.0000    3.2812    0.0000 C   0  0  0  0  0  0  0  0  0  0  0  0
    6.9584   -1.3074    0.0000 H   0  0  0  0  0  0  0  0  0  0  0  0
    6.5572   -0.6186    0.0000 H   0  0  0  0  0  0  0  0  0  0  0  0
    5.0905   -3.1819    0.0000 H   0  0  0  0  0  0  0  0  0  0  0  0
    5.8876   -3.1788    0.0000 H   0  0  0  0  0  0  0  0  0  0  0  0
    5.8762   -0.2289    0.0000 H   0  0  0  0  0  0  0  0  0  0  0  0
    5.0791   -0.2320    0.0000 H   0  0  0  0  0  0  0  0  0  0  0  0
    4.0083   -2.1034    0.0000 H   0  0  0  0  0  0  0  0  0  0  0  0
    4.4094   -2.7922    0.0000 H   0  0  0  0  0  0  0  0  0  0  0  0
    6.8226   -3.1752    0.0000 H   0  0  0  0  0  0  0  0  0  0  0  0
    7.6196   -3.1721    0.0000 H   0  0  0  0  0  0  0  0  0  0  0  0
    8.4800   -1.7189    0.0000 H   0  0  0  0  0  0  0  0  0  0  0  0
    7.6830   -1.7220    0.0000 H   0  0  0  0  0  0  0  0  0  0  0  0
    8.5546   -3.1685    0.0000 H   0  0  0  0  0  0  0  0  0  0  0  0
    9.3516   -3.1654    0.0000 H   0  0  0  0  0  0  0  0  0  0  0  0
   10.2121   -1.7122    0.0000 H   0  0  0  0  0  0  0  0  0  0  0  0
    9.4150   -1.7153    0.0000 H   0  0  0  0  0  0  0  0  0  0  0  0
    4.2793    0.6000    0.0000 H   0  0  0  0  0  0  0  0  0  0  0  0
    2.8857   -1.8354    0.0000 H   0  0  0  0  0  0  0  0  0  0  0  0
    1.4797   -1.0308    0.0000 H   0  0  0  0  0  0  0  0  0  0  0  0
   14.6120   -0.1863    0.0000 H   0  0  0  0  0  0  0  0  0  0  0  0
   13.8149   -0.1863    0.0000 H   0  0  0  0  0  0  0  0  0  0  0  0
    1.4734    0.5892    0.0000 H   0  0  0  0  0  0  0  0  0  0  0  0
   15.6900   -1.2689    0.0000 H   0  0  0  0  0  0  0  0  0  0  0  0
   15.2915   -0.5786    0.0000 H   0  0  0  0  0  0  0  0  0  0  0  0
   12.4606   -3.3158    0.0000 H   0  0  0  0  0  0  0  0  0  0  0  0
   12.4606   -0.0066    0.0000 H   0  0  0  0  0  0  0  0  0  0  0  0
   11.0117   -0.8283    0.0000 H   0  0  0  0  0  0  0  0  0  0  0  0
   14.2134   -3.2812    0.0000 H   0  0  0  0  0  0  0  0  0  0  0  0
    1.3929    2.3865    0.0000 H   0  0  0  0  0  0  0  0  0  0  0  0
    1.7940    1.6978    0.0000 H   0  0  0  0  0  0  0  0  0  0  0  0
    2.6200    3.2836    0.0000 H   0  0  0  0  0  0  0  0  0  0  0  0
    1.9976    3.9012    0.0000 H   0  0  0  0  0  0  0  0  0  0  0  0
    1.3800    3.2788    0.0000 H   0  0  0  0  0  0  0  0  0  0  0  0
  1 15  1  0  0  0  0
  1 22  1  0  0  0  0
  2 18  1  0  0  0  0
  2 30  1  0  0  0  0
  3 29  2  0  0  0  0
  4  7  1  0  0  0  0
  4  8  1  0  0  0  0
  4 11  1  0  0  0  0
  5  9  1  0  0  0  0
  5 10  1  0  0  0  0
  5 13  1  0  0  0  0
  6 23  1  0  0  0  0
  6 29  1  0  0  0  0
  6 59  1  0  0  0  0
  7  9  1  0  0  0  0
  7 32  1  0  0  0  0
  7 33  1  0  0  0  0
  8 10  1  0  0  0  0
  8 34  1  0  0  0  0
  8 35  1  0  0  0  0
  9 36  1  0  0  0  0
  9 37  1  0  0  0  0
 10 38  1  0  0  0  0
 10 39  1  0  0  0  0
 11 12  1  0  0  0  0
 11 40  1  0  0  0  0
 11 41  1  0  0  0  0
 12 14  1  0  0  0  0
 12 42  1  0  0  0  0
 12 43  1  0  0  0  0
 13 16  2  0  0  0  0
 13 17  1  0  0  0  0
 14 15  1  0  0  0  0
 14 44  1  0  0  0  0
 14 45  1  0  0  0  0
 15 46  1  0  0  0  0
 15 47  1  0  0  0  0
 16 18  1  0  0  0  0
 16 48  1  0  0  0  0
 17 19  2  0  0  0  0
 17 49  1  0  0  0  0
 18 24  2  0  0  0  0
 19 24  1  0  0  0  0
 19 50  1  0  0  0  0
 20 21  1  0  0  0  0
 20 23  2  0  0  0  0
 20 27  1  0  0  0  0
 21 25  1  0  0  0  0
 21 51  1  0  0  0  0
 21 52  1  0  0  0  0
 22 26  2  0  0  0  0
 22 28  1  0  0  0  0
 23 26  1  0  0  0  0
 24 53  1  0  0  0  0
 25 29  1  0  0  0  0
 25 54  1  0  0  0  0
 25 55  1  0  0  0  0
 26 56  1  0  0  0  0
 27 28  2  0  0  0  0
 27 57  1  0  0  0  0
 28 58  1  0  0  0  0
 30 31  1  0  0  0  0
 30 60  1  0  0  0  0
 30 61  1  0  0  0  0
 31 62  1  0  0  0  0
 31 63  1  0  0  0  0
 31 64  1  0  0  0  0
M  END
> <PUBCHEM_COMPOUND_CID>
66559778

> <PUBCHEM_COMPOUND_CANONICALIZED>
1

> <PUBCHEM_CACTVS_COMPLEXITY>
552

> <PUBCHEM_CACTVS_HBOND_ACCEPTOR>
5

> <PUBCHEM_CACTVS_HBOND_DONOR>
1

> <PUBCHEM_CACTVS_ROTATABLE_BOND>
9

> <PUBCHEM_CACTVS_SUBSKEYS>
AAADcfB7MAAAAAAAAAAAAAAAAAAAAAAAAAA8eIEAAAAAAACxQAAAHgAQAAAADAzhmAYyxoPABACIAiVSUACCCAAhIgAIiAEObIgMZjLEsZuWOCjm1BnI6Ae42aOeIAAAAgACAABAAAAEAAQAAAAAAAAAAA==

> <PUBCHEM_IUPAC_OPENEYE_NAME>
7-[4-[4-(3-ethoxyphenyl)piperazin-1-yl]butoxy]-3,4-dihydro-1H-quinolin-2-one

> <PUBCHEM_IUPAC_CAS_NAME>
7-[4-[4-(3-ethoxyphenyl)-1-piperazinyl]butoxy]-3,4-dihydro-1H-quinolin-2-one

> <PUBCHEM_IUPAC_NAME_MARKUP>
7-[4-[4-(3-ethoxyphenyl)piperazin-1-yl]butoxy]-3,4-dihydro-1<I>H</I>-quinolin-2-one

> <PUBCHEM_IUPAC_NAME>
7-[4-[4-(3-ethoxyphenyl)piperazin-1-yl]butoxy]-3,4-dihydro-1H-quinolin-2-one

> <PUBCHEM_IUPAC_SYSTEMATIC_NAME>
7-[4-[4-(3-ethoxyphenyl)piperazin-1-yl]butoxy]-3,4-dihydro-1H-quinolin-2-one

> <PUBCHEM_IUPAC_TRADITIONAL_NAME>
7-[4-(4-m-phenetylpiperazino)butoxy]-3,4-dihydrocarbostyril

> <PUBCHEM_IUPAC_INCHI>
InChI=1S/C25H33N3O3/c1-2-30-22-7-5-6-21(18-22)28-15-13-27(14-16-28)12-3-4-17-31-23-10-8-20-9-11-25(29)26-24(20)19-23/h5-8,10,18-19H,2-4,9,11-17H2,1H3,(H,26,29)

> <PUBCHEM_IUPAC_INCHIKEY>
PANOZSYKUFDHOX-UHFFFAOYSA-N

> <PUBCHEM_XLOGP3_AA>
3.7

> <PUBCHEM_EXACT_MASS>
423.25219192

> <PUBCHEM_MOLECULAR_FORMULA>
C25H33N3O3

> <PUBCHEM_MOLECULAR_WEIGHT>
423.5

> <PUBCHEM_OPENEYE_CAN_SMILES>
CCOC1=CC=CC(=C1)N2CCN(CC2)CCCCOC3=CC4=C(CCC(=O)N4)C=C3

> <PUBCHEM_OPENEYE_ISO_SMILES>
CCOC1=CC=CC(=C1)N2CCN(CC2)CCCCOC3=CC4=C(CCC(=O)N4)C=C3

> <PUBCHEM_CACTVS_TPSA>
54

> <PUBCHEM_MONOISOTOPIC_WEIGHT>
423.25219192

> <PUBCHEM_TOTAL_CHARGE>
0

> <PUBCHEM_HEAVY_ATOM_COUNT>
31

> <PUBCHEM_ATOM_DEF_STEREO_COUNT>
0

> <PUBCHEM_ATOM_UDEF_STEREO_COUNT>
0

> <PUBCHEM_BOND_DEF_STEREO_COUNT>
0

> <PUBCHEM_BOND_UDEF_STEREO_COUNT>
0

> <PUBCHEM_ISOTOPIC_ATOM_COUNT>
0

> <PUBCHEM_COMPONENT_COUNT>
1

> <PUBCHEM_CACTVS_TAUTO_COUNT>
-1

> <PUBCHEM_COORDINATE_TYPE>
1
5
255

> <PUBCHEM_BONDANNOTATIONS>
13  16  8
13  17  8
16  18  8
17  19  8
18  24  8
19  24  8
20  23  8
20  27  8
22  26  8
22  28  8
23  26  8
27  28  8

$$$$
