45481889
  -OEChem-09292322292D

 89 95  0     1  0  0  0  0  0999 V2000
    2.0000   -5.1654    0.0000 S   0  0  0  0  0  0  0  0  0  0  0  0
   15.5587    4.5962    0.0000 O   0  0  0  0  0  0  0  0  0  0  0  0
   15.5587    2.5479    0.0000 O   0  0  0  0  0  0  0  0  0  0  0  0
   10.7040    3.5720    0.0000 N   0  0  3  0  0  0  0  0  0  0  0  0
    5.9586   -2.9073    0.0000 N   0  0  0  0  0  0  0  0  0  0  0  0
    4.3406   -4.0829    0.0000 N   0  0  0  0  0  0  0  0  0  0  0  0
    7.3676    0.2573    0.0000 N   0  0  0  0  0  0  0  0  0  0  0  0
    2.5864   -4.3626    0.0000 N   0  0  0  0  0  0  0  0  0  0  0  0
    6.7095    1.7355    0.0000 N   0  0  0  0  0  0  0  0  0  0  0  0
    6.5016    0.7573    0.0000 N   0  0  0  0  0  0  0  0  0  0  0  0
   12.1128    4.6955    0.0000 C   0  0  3  0  0  0  0  0  0  0  0  0
   11.1379    4.4730    0.0000 C   0  0  0  0  0  0  0  0  0  0  0  0
   11.1379    2.6711    0.0000 C   0  0  0  0  0  0  0  0  0  0  0  0
   12.8946    4.0720    0.0000 C   0  0  0  0  0  0  0  0  0  0  0  0
   12.1128    2.4486    0.0000 C   0  0  0  0  0  0  0  0  0  0  0  0
    9.7040    3.5720    0.0000 C   0  0  0  0  0  0  0  0  0  0  0  0
   12.8946    3.0720    0.0000 C   0  0  0  0  0  0  0  0  0  0  0  0
    5.0451   -2.5006    0.0000 C   0  0  0  0  0  0  0  0  0  0  0  0
    6.0631   -3.9018    0.0000 C   0  0  0  0  0  0  0  0  0  0  0  0
   12.3353    5.6705    0.0000 C   0  0  0  0  0  0  0  0  0  0  0  0
    4.2360   -3.0884    0.0000 C   0  0  0  0  0  0  0  0  0  0  0  0
    5.2541   -4.4896    0.0000 C   0  0  0  0  0  0  0  0  0  0  0  0
    9.2040    2.7060    0.0000 C   0  0  0  0  0  0  0  0  0  0  0  0
    6.7676   -2.3195    0.0000 C   0  0  0  0  0  0  0  0  0  0  0  0
   13.7886    4.6067    0.0000 C   0  0  0  0  0  0  0  0  0  0  0  0
    6.6631   -1.3250    0.0000 C   0  0  0  0  0  0  0  0  0  0  0  0
    8.2040    2.7060    0.0000 C   0  0  0  0  0  0  0  0  0  0  0  0
   13.7886    2.5374    0.0000 C   0  0  0  0  0  0  0  0  0  0  0  0
    7.4721   -0.7372    0.0000 C   0  0  0  0  0  0  0  0  0  0  0  0
   13.2909    5.9652    0.0000 C   0  0  0  0  0  0  0  0  0  0  0  0
    3.5316   -4.6707    0.0000 C   0  0  0  0  0  0  0  0  0  0  0  0
   11.6023    6.3506    0.0000 C   0  0  0  0  0  0  0  0  0  0  0  0
   14.6946    4.0928    0.0000 C   0  0  0  0  0  0  0  0  0  0  0  0
   14.6946    3.0512    0.0000 C   0  0  0  0  0  0  0  0  0  0  0  0
    7.7040    1.8400    0.0000 C   0  0  0  0  0  0  0  0  0  0  0  0
   13.5134    6.9401    0.0000 C   0  0  0  0  0  0  0  0  0  0  0  0
    3.5324   -5.6647    0.0000 C   0  0  0  0  0  0  0  0  0  0  0  0
    8.1107    0.9264    0.0000 C   0  0  0  0  0  0  0  0  0  0  0  0
   11.8248    7.3256    0.0000 C   0  0  0  0  0  0  0  0  0  0  0  0
   12.7804    7.6203    0.0000 C   0  0  0  0  0  0  0  0  0  0  0  0
    2.5808   -5.9721    0.0000 C   0  0  0  0  0  0  0  0  0  0  0  0
   14.4690    7.2349    0.0000 C   0  0  0  0  0  0  0  0  0  0  0  0
    4.2744   -6.3351    0.0000 C   0  0  0  0  0  0  0  0  0  0  0  0
    2.3712   -6.9499    0.0000 C   0  0  0  0  0  0  0  0  0  0  0  0
    4.0648   -7.3129    0.0000 C   0  0  0  0  0  0  0  0  0  0  0  0
    3.1132   -7.6203    0.0000 C   0  0  0  0  0  0  0  0  0  0  0  0
   11.6744    5.1339    0.0000 H   0  0  0  0  0  0  0  0  0  0  0  0
   11.1379    5.0930    0.0000 H   0  0  0  0  0  0  0  0  0  0  0  0
   10.5334    4.6110    0.0000 H   0  0  0  0  0  0  0  0  0  0  0  0
   10.5334    2.5331    0.0000 H   0  0  0  0  0  0  0  0  0  0  0  0
   11.1379    2.0511    0.0000 H   0  0  0  0  0  0  0  0  0  0  0  0
   11.8438    1.8900    0.0000 H   0  0  0  0  0  0  0  0  0  0  0  0
   12.5975    2.0620    0.0000 H   0  0  0  0  0  0  0  0  0  0  0  0
    9.8116    4.1826    0.0000 H   0  0  0  0  0  0  0  0  0  0  0  0
    9.1214    3.7841    0.0000 H   0  0  0  0  0  0  0  0  0  0  0  0
    5.3918   -1.9866    0.0000 H   0  0  0  0  0  0  0  0  0  0  0  0
    4.5991   -2.0699    0.0000 H   0  0  0  0  0  0  0  0  0  0  0  0
    6.3349   -4.4591    0.0000 H   0  0  0  0  0  0  0  0  0  0  0  0
    6.6591   -3.7309    0.0000 H   0  0  0  0  0  0  0  0  0  0  0  0
    3.9642   -2.5311    0.0000 H   0  0  0  0  0  0  0  0  0  0  0  0
    3.6401   -3.2593    0.0000 H   0  0  0  0  0  0  0  0  0  0  0  0
    4.9074   -5.0036    0.0000 H   0  0  0  0  0  0  0  0  0  0  0  0
    5.7001   -4.9203    0.0000 H   0  0  0  0  0  0  0  0  0  0  0  0
    9.0963    2.0954    0.0000 H   0  0  0  0  0  0  0  0  0  0  0  0
    9.7866    2.4940    0.0000 H   0  0  0  0  0  0  0  0  0  0  0  0
    7.0394   -2.8768    0.0000 H   0  0  0  0  0  0  0  0  0  0  0  0
    7.3636   -2.1486    0.0000 H   0  0  0  0  0  0  0  0  0  0  0  0
   13.7814    5.2267    0.0000 H   0  0  0  0  0  0  0  0  0  0  0  0
    6.3913   -0.7677    0.0000 H   0  0  0  0  0  0  0  0  0  0  0  0
    6.0671   -1.4959    0.0000 H   0  0  0  0  0  0  0  0  0  0  0  0
    8.3116    3.3166    0.0000 H   0  0  0  0  0  0  0  0  0  0  0  0
    7.6214    2.9181    0.0000 H   0  0  0  0  0  0  0  0  0  0  0  0
   13.7814    1.9174    0.0000 H   0  0  0  0  0  0  0  0  0  0  0  0
    7.7439   -1.2945    0.0000 H   0  0  0  0  0  0  0  0  0  0  0  0
    8.0681   -0.5663    0.0000 H   0  0  0  0  0  0  0  0  0  0  0  0
   13.7454    5.5435    0.0000 H   0  0  0  0  0  0  0  0  0  0  0  0
   11.0098    6.1679    0.0000 H   0  0  0  0  0  0  0  0  0  0  0  0
    8.7172    0.7975    0.0000 H   0  0  0  0  0  0  0  0  0  0  0  0
   11.3703    7.7473    0.0000 H   0  0  0  0  0  0  0  0  0  0  0  0
   12.9183    8.2248    0.0000 H   0  0  0  0  0  0  0  0  0  0  0  0
   14.6517    6.6424    0.0000 H   0  0  0  0  0  0  0  0  0  0  0  0
   15.0614    7.4176    0.0000 H   0  0  0  0  0  0  0  0  0  0  0  0
   14.2862    7.8274    0.0000 H   0  0  0  0  0  0  0  0  0  0  0  0
    4.8644   -6.1446    0.0000 H   0  0  0  0  0  0  0  0  0  0  0  0
   16.0969    4.2883    0.0000 H   0  0  0  0  0  0  0  0  0  0  0  0
   15.5563    1.9279    0.0000 H   0  0  0  0  0  0  0  0  0  0  0  0
    1.7812   -7.1405    0.0000 H   0  0  0  0  0  0  0  0  0  0  0  0
    4.5248   -7.7286    0.0000 H   0  0  0  0  0  0  0  0  0  0  0  0
    2.9832   -8.2265    0.0000 H   0  0  0  0  0  0  0  0  0  0  0  0
  1  8  1  0  0  0  0
  1 41  1  0  0  0  0
  2 33  1  0  0  0  0
  2 85  1  0  0  0  0
  3 34  1  0  0  0  0
  3 86  1  0  0  0  0
  4 12  1  0  0  0  0
  4 13  1  0  0  0  0
  4 16  1  0  0  0  0
  5 18  1  0  0  0  0
  5 19  1  0  0  0  0
  5 24  1  0  0  0  0
  6 21  1  0  0  0  0
  6 22  1  0  0  0  0
  6 31  1  0  0  0  0
  7 10  1  0  0  0  0
  7 29  1  0  0  0  0
  7 38  1  0  0  0  0
  8 31  2  0  0  0  0
  9 10  2  0  0  0  0
  9 35  1  0  0  0  0
 11 12  1  0  0  0  0
 11 14  1  0  0  0  0
 11 20  1  0  0  0  0
 11 47  1  0  0  0  0
 12 48  1  0  0  0  0
 12 49  1  0  0  0  0
 13 15  1  0  0  0  0
 13 50  1  0  0  0  0
 13 51  1  0  0  0  0
 14 17  1  0  0  0  0
 14 25  2  0  0  0  0
 15 17  1  0  0  0  0
 15 52  1  0  0  0  0
 15 53  1  0  0  0  0
 16 23  1  0  0  0  0
 16 54  1  0  0  0  0
 16 55  1  0  0  0  0
 17 28  2  0  0  0  0
 18 21  1  0  0  0  0
 18 56  1  0  0  0  0
 18 57  1  0  0  0  0
 19 22  1  0  0  0  0
 19 58  1  0  0  0  0
 19 59  1  0  0  0  0
 20 30  1  0  0  0  0
 20 32  2  0  0  0  0
 21 60  1  0  0  0  0
 21 61  1  0  0  0  0
 22 62  1  0  0  0  0
 22 63  1  0  0  0  0
 23 27  1  0  0  0  0
 23 64  1  0  0  0  0
 23 65  1  0  0  0  0
 24 26  1  0  0  0  0
 24 66  1  0  0  0  0
 24 67  1  0  0  0  0
 25 33  1  0  0  0  0
 25 68  1  0  0  0  0
 26 29  1  0  0  0  0
 26 69  1  0  0  0  0
 26 70  1  0  0  0  0
 27 35  1  0  0  0  0
 27 71  1  0  0  0  0
 27 72  1  0  0  0  0
 28 34  1  0  0  0  0
 28 73  1  0  0  0  0
 29 74  1  0  0  0  0
 29 75  1  0  0  0  0
 30 36  2  0  0  0  0
 30 76  1  0  0  0  0
 31 37  1  0  0  0  0
 32 39  1  0  0  0  0
 32 77  1  0  0  0  0
 33 34  2  0  0  0  0
 35 38  2  0  0  0  0
 36 40  1  0  0  0  0
 36 42  1  0  0  0  0
 37 41  1  0  0  0  0
 37 43  2  0  0  0  0
 38 78  1  0  0  0  0
 39 40  2  0  0  0  0
 39 79  1  0  0  0  0
 40 80  1  0  0  0  0
 41 44  2  0  0  0  0
 42 81  1  0  0  0  0
 42 82  1  0  0  0  0
 42 83  1  0  0  0  0
 43 45  1  0  0  0  0
 43 84  1  0  0  0  0
 44 46  1  0  0  0  0
 44 87  1  0  0  0  0
 45 46  2  0  0  0  0
 45 88  1  0  0  0  0
 46 89  1  0  0  0  0
M  END
> <PUBCHEM_COMPOUND_CID>
45481889

> <PUBCHEM_COMPOUND_CANONICALIZED>
1

> <PUBCHEM_CACTVS_COMPLEXITY>
942

> <PUBCHEM_CACTVS_HBOND_ACCEPTOR>
9

> <PUBCHEM_CACTVS_HBOND_DONOR>
2

> <PUBCHEM_CACTVS_ROTATABLE_BOND>
10

> <PUBCHEM_CACTVS_SUBSKEYS>
AAADcfB/sABAAAAAAAAAAAAAAAAAAWLAAAA8YMEABYAAAFgB/AAAHgQISAAADQzB3gQ/t9MIAgCmAzZnZACDBBQxsgBZ2Dg+/JiJZqLC2ZOUcA1kwBPJ2AeQ0PIOoAADAAAUQABAAAYAACiAAAAAAAAAAA==

> <PUBCHEM_IUPAC_OPENEYE_NAME>
3-[3-[1-[3-[4-(1,2-benzothiazol-3-yl)piperazin-1-yl]propyl]triazol-4-yl]propyl]-5-(m-tolyl)-1,2,4,5-tetrahydro-3-benzazepine-7,8-diol

> <PUBCHEM_IUPAC_CAS_NAME>
3-[3-[1-[3-[4-(1,2-benzothiazol-3-yl)-1-piperazinyl]propyl]-4-triazolyl]propyl]-5-(3-methylphenyl)-1,2,4,5-tetrahydro-3-benzazepine-7,8-diol

> <PUBCHEM_IUPAC_NAME_MARKUP>
3-[3-[1-[3-[4-(1,2-benzothiazol-3-yl)piperazin-1-yl]propyl]triazol-4-yl]propyl]-5-(3-methylphenyl)-1,2,4,5-tetrahydro-3-benzazepine-7,8-diol

> <PUBCHEM_IUPAC_NAME>
3-[3-[1-[3-[4-(1,2-benzothiazol-3-yl)piperazin-1-yl]propyl]triazol-4-yl]propyl]-5-(3-methylphenyl)-1,2,4,5-tetrahydro-3-benzazepine-7,8-diol

> <PUBCHEM_IUPAC_SYSTEMATIC_NAME>
3-[3-[1-[3-[4-(1,2-benzothiazol-3-yl)piperazin-1-yl]propyl]-1,2,3-triazol-4-yl]propyl]-5-(3-methylphenyl)-1,2,4,5-tetrahydro-3-benzazepine-7,8-diol

> <PUBCHEM_IUPAC_TRADITIONAL_NAME>
3-[3-[1-[3-[4-(1,2-benzothiazol-3-yl)piperazino]propyl]triazol-4-yl]propyl]-5-(m-tolyl)-1,2,4,5-tetrahydro-3-benzazepine-7,8-diol

> <PUBCHEM_IUPAC_INCHI>
InChI=1S/C36H43N7O2S/c1-26-7-4-8-27(21-26)32-25-41(16-12-28-22-33(44)34(45)23-31(28)32)13-5-9-29-24-43(39-37-29)15-6-14-40-17-19-42(20-18-40)36-30-10-2-3-11-35(30)46-38-36/h2-4,7-8,10-11,21-24,32,44-45H,5-6,9,12-20,25H2,1H3

> <PUBCHEM_IUPAC_INCHIKEY>
DQLPWXJRZDXPLZ-UHFFFAOYSA-N

> <PUBCHEM_XLOGP3_AA>
6.1

> <PUBCHEM_EXACT_MASS>
637.31989481

> <PUBCHEM_MOLECULAR_FORMULA>
C36H43N7O2S

> <PUBCHEM_MOLECULAR_WEIGHT>
637.8

> <PUBCHEM_OPENEYE_CAN_SMILES>
CC1=CC(=CC=C1)C2CN(CCC3=CC(=C(C=C23)O)O)CCCC4=CN(N=N4)CCCN5CCN(CC5)C6=NSC7=CC=CC=C76

> <PUBCHEM_OPENEYE_ISO_SMILES>
CC1=CC(=CC=C1)C2CN(CCC3=CC(=C(C=C23)O)O)CCCC4=CN(N=N4)CCCN5CCN(CC5)C6=NSC7=CC=CC=C76

> <PUBCHEM_CACTVS_TPSA>
122

> <PUBCHEM_MONOISOTOPIC_WEIGHT>
637.31989481

> <PUBCHEM_TOTAL_CHARGE>
0

> <PUBCHEM_HEAVY_ATOM_COUNT>
46

> <PUBCHEM_ATOM_DEF_STEREO_COUNT>
0

> <PUBCHEM_ATOM_UDEF_STEREO_COUNT>
1

> <PUBCHEM_BOND_DEF_STEREO_COUNT>
0

> <PUBCHEM_BOND_UDEF_STEREO_COUNT>
0

> <PUBCHEM_ISOTOPIC_ATOM_COUNT>
0

> <PUBCHEM_COMPONENT_COUNT>
1

> <PUBCHEM_CACTVS_TAUTO_COUNT>
-1

> <PUBCHEM_COORDINATE_TYPE>
1
5
255

> <PUBCHEM_BONDANNOTATIONS>
1  41  8
1  8  8
11  20  3
14  17  8
14  25  8
17  28  8
20  30  8
20  32  8
25  33  8
28  34  8
30  36  8
31  37  8
32  39  8
33  34  8
35  38  8
36  40  8
37  41  8
37  43  8
39  40  8
41  44  8
43  45  8
44  46  8
45  46  8
7  10  8
7  38  8
8  31  8
9  10  8
9  35  8

$$$$
