44351005
  -OEChem-09292321582D

 69 71  0     0  0  0  0  0  0999 V2000
   13.5941    2.6546    0.0000 O   0  0  0  0  0  0  0  0  0  0  0  0
    4.9338    3.6546    0.0000 O   0  0  0  0  0  0  0  0  0  0  0  0
    8.7976    9.2853    0.0000 O   0  0  0  0  0  0  0  0  0  0  0  0
    6.1995    9.7853    0.0000 O   0  0  0  0  0  0  0  0  0  0  0  0
    7.9315   10.7853    0.0000 O   0  0  0  0  0  0  0  0  0  0  0  0
    7.0655    8.2853    0.0000 O   0  0  0  0  0  0  0  0  0  0  0  0
   10.1300    2.6546    0.0000 N   0  0  0  0  0  0  0  0  0  0  0  0
   11.8620    3.6546    0.0000 N   0  0  0  0  0  0  0  0  0  0  0  0
    5.7998    2.1546    0.0000 N   0  0  0  0  0  0  0  0  0  0  0  0
    4.0678    1.1546    0.0000 N   0  0  0  0  0  0  0  0  0  0  0  0
   10.9960    2.1546    0.0000 C   0  0  0  0  0  0  0  0  0  0  0  0
   10.1300    3.6546    0.0000 C   0  0  0  0  0  0  0  0  0  0  0  0
   11.8620    2.6546    0.0000 C   0  0  0  0  0  0  0  0  0  0  0  0
   10.9960    4.1546    0.0000 C   0  0  0  0  0  0  0  0  0  0  0  0
    9.2640    2.1546    0.0000 C   0  0  0  0  0  0  0  0  0  0  0  0
    8.3979    2.6546    0.0000 C   0  0  0  0  0  0  0  0  0  0  0  0
   12.7281    4.1546    0.0000 C   0  0  0  0  0  0  0  0  0  0  0  0
    7.5319    2.1546    0.0000 C   0  0  0  0  0  0  0  0  0  0  0  0
    6.6659    2.6546    0.0000 C   0  0  0  0  0  0  0  0  0  0  0  0
   13.5941    3.6546    0.0000 C   0  0  0  0  0  0  0  0  0  0  0  0
   12.7281    5.1546    0.0000 C   0  0  0  0  0  0  0  0  0  0  0  0
   14.4601    4.1546    0.0000 C   0  0  0  0  0  0  0  0  0  0  0  0
   13.5941    5.6546    0.0000 C   0  0  0  0  0  0  0  0  0  0  0  0
   14.4601    5.1546    0.0000 C   0  0  0  0  0  0  0  0  0  0  0  0
    4.9338    2.6546    0.0000 C   0  0  0  0  0  0  0  0  0  0  0  0
   14.4601    2.1546    0.0000 C   0  0  0  0  0  0  0  0  0  0  0  0
    4.0678    2.1546    0.0000 C   0  0  0  0  0  0  0  0  0  0  0  0
    3.2018    2.6546    0.0000 C   0  0  0  0  0  0  0  0  0  0  0  0
    2.3358    2.1546    0.0000 C   0  0  0  0  0  0  0  0  0  0  0  0
    2.3358    1.1546    0.0000 C   0  0  0  0  0  0  0  0  0  0  0  0
    3.2018    0.6546    0.0000 C   0  0  0  0  0  0  0  0  0  0  0  0
    1.4418    2.6893    0.0000 C   0  0  0  0  0  0  0  0  0  0  0  0
    1.4418    0.6200    0.0000 C   0  0  0  0  0  0  0  0  0  0  0  0
    0.5357    2.1754    0.0000 C   0  0  0  0  0  0  0  0  0  0  0  0
    0.5357    1.1338    0.0000 C   0  0  0  0  0  0  0  0  0  0  0  0
    7.9315    9.7853    0.0000 C   0  0  0  0  0  0  0  0  0  0  0  0
    7.0655    9.2853    0.0000 C   0  0  0  0  0  0  0  0  0  0  0  0
   10.5975    1.6797    0.0000 H   0  0  0  0  0  0  0  0  0  0  0  0
   11.3945    1.6797    0.0000 H   0  0  0  0  0  0  0  0  0  0  0  0
    9.9179    4.2372    0.0000 H   0  0  0  0  0  0  0  0  0  0  0  0
    9.5194    3.5470    0.0000 H   0  0  0  0  0  0  0  0  0  0  0  0
   12.0741    2.0720    0.0000 H   0  0  0  0  0  0  0  0  0  0  0  0
   12.4726    2.7623    0.0000 H   0  0  0  0  0  0  0  0  0  0  0  0
   11.3945    4.6296    0.0000 H   0  0  0  0  0  0  0  0  0  0  0  0
   10.5975    4.6296    0.0000 H   0  0  0  0  0  0  0  0  0  0  0  0
    8.8654    1.6797    0.0000 H   0  0  0  0  0  0  0  0  0  0  0  0
    9.6625    1.6797    0.0000 H   0  0  0  0  0  0  0  0  0  0  0  0
    8.7964    3.1296    0.0000 H   0  0  0  0  0  0  0  0  0  0  0  0
    7.9994    3.1296    0.0000 H   0  0  0  0  0  0  0  0  0  0  0  0
    7.1334    1.6797    0.0000 H   0  0  0  0  0  0  0  0  0  0  0  0
    7.9304    1.6797    0.0000 H   0  0  0  0  0  0  0  0  0  0  0  0
    7.0644    3.1296    0.0000 H   0  0  0  0  0  0  0  0  0  0  0  0
    6.2673    3.1296    0.0000 H   0  0  0  0  0  0  0  0  0  0  0  0
   12.1911    5.4646    0.0000 H   0  0  0  0  0  0  0  0  0  0  0  0
   14.9970    3.8446    0.0000 H   0  0  0  0  0  0  0  0  0  0  0  0
   13.5941    6.2746    0.0000 H   0  0  0  0  0  0  0  0  0  0  0  0
    5.7998    1.5346    0.0000 H   0  0  0  0  0  0  0  0  0  0  0  0
   14.9970    5.4646    0.0000 H   0  0  0  0  0  0  0  0  0  0  0  0
   14.1501    1.6177    0.0000 H   0  0  0  0  0  0  0  0  0  0  0  0
   14.9970    1.8446    0.0000 H   0  0  0  0  0  0  0  0  0  0  0  0
   14.7701    2.6916    0.0000 H   0  0  0  0  0  0  0  0  0  0  0  0
    3.2018    3.2746    0.0000 H   0  0  0  0  0  0  0  0  0  0  0  0
    3.2018    0.0346    0.0000 H   0  0  0  0  0  0  0  0  0  0  0  0
    1.4490    3.3092    0.0000 H   0  0  0  0  0  0  0  0  0  0  0  0
    1.4490    0.0000    0.0000 H   0  0  0  0  0  0  0  0  0  0  0  0
    0.0000    2.4875    0.0000 H   0  0  0  0  0  0  0  0  0  0  0  0
    0.0000    0.8217    0.0000 H   0  0  0  0  0  0  0  0  0  0  0  0
    9.3345    9.5953    0.0000 H   0  0  0  0  0  0  0  0  0  0  0  0
    5.6625    9.4753    0.0000 H   0  0  0  0  0  0  0  0  0  0  0  0
  1 20  1  0  0  0  0
  1 26  1  0  0  0  0
  2 25  2  0  0  0  0
  3 36  1  0  0  0  0
  3 68  1  0  0  0  0
  4 37  1  0  0  0  0
  4 69  1  0  0  0  0
  5 36  2  0  0  0  0
  6 37  2  0  0  0  0
  7 11  1  0  0  0  0
  7 12  1  0  0  0  0
  7 15  1  0  0  0  0
  8 13  1  0  0  0  0
  8 14  1  0  0  0  0
  8 17  1  0  0  0  0
  9 19  1  0  0  0  0
  9 25  1  0  0  0  0
  9 57  1  0  0  0  0
 10 27  1  0  0  0  0
 10 31  2  0  0  0  0
 11 13  1  0  0  0  0
 11 38  1  0  0  0  0
 11 39  1  0  0  0  0
 12 14  1  0  0  0  0
 12 40  1  0  0  0  0
 12 41  1  0  0  0  0
 13 42  1  0  0  0  0
 13 43  1  0  0  0  0
 14 44  1  0  0  0  0
 14 45  1  0  0  0  0
 15 16  1  0  0  0  0
 15 46  1  0  0  0  0
 15 47  1  0  0  0  0
 16 18  1  0  0  0  0
 16 48  1  0  0  0  0
 16 49  1  0  0  0  0
 17 20  1  0  0  0  0
 17 21  2  0  0  0  0
 18 19  1  0  0  0  0
 18 50  1  0  0  0  0
 18 51  1  0  0  0  0
 19 52  1  0  0  0  0
 19 53  1  0  0  0  0
 20 22  2  0  0  0  0
 21 23  1  0  0  0  0
 21 54  1  0  0  0  0
 22 24  1  0  0  0  0
 22 55  1  0  0  0  0
 23 24  2  0  0  0  0
 23 56  1  0  0  0  0
 24 58  1  0  0  0  0
 25 27  1  0  0  0  0
 26 59  1  0  0  0  0
 26 60  1  0  0  0  0
 26 61  1  0  0  0  0
 27 28  2  0  0  0  0
 28 29  1  0  0  0  0
 28 62  1  0  0  0  0
 29 30  1  0  0  0  0
 29 32  2  0  0  0  0
 30 31  1  0  0  0  0
 30 33  2  0  0  0  0
 31 63  1  0  0  0  0
 32 34  1  0  0  0  0
 32 64  1  0  0  0  0
 33 35  1  0  0  0  0
 33 65  1  0  0  0  0
 34 35  2  0  0  0  0
 34 66  1  0  0  0  0
 35 67  1  0  0  0  0
 36 37  1  0  0  0  0
M  END
> <PUBCHEM_COMPOUND_CID>
44351005

> <PUBCHEM_COMPOUND_CANONICALIZED>
1

> <PUBCHEM_CACTVS_COMPLEXITY>
623

> <PUBCHEM_CACTVS_HBOND_ACCEPTOR>
9

> <PUBCHEM_CACTVS_HBOND_DONOR>
3

> <PUBCHEM_CACTVS_ROTATABLE_BOND>
9

> <PUBCHEM_CACTVS_SUBSKEYS>
AAADcfB7uAAAAAAAAAAAAAAAAAAAAAAAAAA8eIEAAAAAAACx9AAAHgAQCAAADAzBngY+ztPIFgCoAzX3XAKCiCA3IiAI2KH/bNgPZvLEtbuVMShk1hHZ6YeYyICOgAAAAAAQEAAAAAAAACAgAAAAAAAAAA==

> <PUBCHEM_IUPAC_OPENEYE_NAME>
N-[4-[4-(2-methoxyphenyl)piperazin-1-yl]butyl]isoquinoline-3-carboxamide;oxalic acid

> <PUBCHEM_IUPAC_CAS_NAME>
N-[4-[4-(2-methoxyphenyl)-1-piperazinyl]butyl]-3-isoquinolinecarboxamide;oxalic acid

> <PUBCHEM_IUPAC_NAME_MARKUP>
<I>N</I>-[4-[4-(2-methoxyphenyl)piperazin-1-yl]butyl]isoquinoline-3-carboxamide;oxalic acid

> <PUBCHEM_IUPAC_NAME>
N-[4-[4-(2-methoxyphenyl)piperazin-1-yl]butyl]isoquinoline-3-carboxamide;oxalic acid

> <PUBCHEM_IUPAC_SYSTEMATIC_NAME>
ethanedioic acid;N-[4-[4-(2-methoxyphenyl)piperazin-1-yl]butyl]isoquinoline-3-carboxamide

> <PUBCHEM_IUPAC_TRADITIONAL_NAME>
N-[4-[4-(2-methoxyphenyl)piperazino]butyl]isoquinoline-3-carboxamide;oxalic acid

> <PUBCHEM_IUPAC_INCHI>
InChI=1S/C25H30N4O2.C2H2O4/c1-31-24-11-5-4-10-23(24)29-16-14-28(15-17-29)13-7-6-12-26-25(30)22-18-20-8-2-3-9-21(20)19-27-22;3-1(4)2(5)6/h2-5,8-11,18-19H,6-7,12-17H2,1H3,(H,26,30);(H,3,4)(H,5,6)

> <PUBCHEM_IUPAC_INCHIKEY>
LKHLKPHMIBEXST-UHFFFAOYSA-N

> <PUBCHEM_EXACT_MASS>
508.23218475

> <PUBCHEM_MOLECULAR_FORMULA>
C27H32N4O6

> <PUBCHEM_MOLECULAR_WEIGHT>
508.6

> <PUBCHEM_OPENEYE_CAN_SMILES>
COC1=CC=CC=C1N2CCN(CC2)CCCCNC(=O)C3=CC4=CC=CC=C4C=N3.C(=O)(C(=O)O)O

> <PUBCHEM_OPENEYE_ISO_SMILES>
COC1=CC=CC=C1N2CCN(CC2)CCCCNC(=O)C3=CC4=CC=CC=C4C=N3.C(=O)(C(=O)O)O

> <PUBCHEM_CACTVS_TPSA>
132

> <PUBCHEM_MONOISOTOPIC_WEIGHT>
508.23218475

> <PUBCHEM_TOTAL_CHARGE>
0

> <PUBCHEM_HEAVY_ATOM_COUNT>
37

> <PUBCHEM_ATOM_DEF_STEREO_COUNT>
0

> <PUBCHEM_ATOM_UDEF_STEREO_COUNT>
0

> <PUBCHEM_BOND_DEF_STEREO_COUNT>
0

> <PUBCHEM_BOND_UDEF_STEREO_COUNT>
0

> <PUBCHEM_ISOTOPIC_ATOM_COUNT>
0

> <PUBCHEM_COMPONENT_COUNT>
2

> <PUBCHEM_CACTVS_TAUTO_COUNT>
-1

> <PUBCHEM_COORDINATE_TYPE>
1
5
255

> <PUBCHEM_BONDANNOTATIONS>
10  27  8
10  31  8
17  20  8
17  21  8
20  22  8
21  23  8
22  24  8
23  24  8
27  28  8
28  29  8
29  30  8
29  32  8
30  31  8
30  33  8
32  34  8
33  35  8
34  35  8

$$$$
