145964982
  -OEChem-09292322052D

 62 66  0     0  0  0  0  0  0999 V2000
    2.0000   -4.6416    0.0000 F   0  0  0  0  0  0  0  0  0  0  0  0
    5.5443   -4.4464    0.0000 O   0  0  0  0  0  0  0  0  0  0  0  0
    9.3653    3.2787    0.0000 O   0  0  0  0  0  0  0  0  0  0  0  0
   12.3473    1.2520    0.0000 O   0  0  0  0  0  0  0  0  0  0  0  0
    6.4763    0.0147    0.0000 N   0  0  0  0  0  0  0  0  0  0  0  0
   13.6365    2.4087    0.0000 N   0  0  0  0  0  0  0  0  0  0  0  0
    6.1279   -3.6416    0.0000 N   0  0  0  0  0  0  0  0  0  0  0  0
   10.6545    4.4354    0.0000 N   0  0  0  0  0  0  0  0  0  0  0  0
    5.8550   -1.8864    0.0000 C   0  0  0  0  0  0  0  0  0  0  0  0
   14.3043    1.6644    0.0000 C   0  0  0  0  0  0  0  0  0  0  0  0
   14.5105    0.6859    0.0000 C   0  0  0  0  0  0  0  0  0  0  0  0
   15.2549    1.3538    0.0000 C   0  0  0  0  0  0  0  0  0  0  0  0
    5.1871   -1.1421    0.0000 C   0  0  0  0  0  0  0  0  0  0  0  0
    6.8335   -1.6802    0.0000 C   0  0  0  0  0  0  0  0  0  0  0  0
    5.4978   -0.1916    0.0000 C   0  0  0  0  0  0  0  0  0  0  0  0
    7.1441   -0.7296    0.0000 C   0  0  0  0  0  0  0  0  0  0  0  0
    6.7870    0.9652    0.0000 C   0  0  0  0  0  0  0  0  0  0  0  0
    5.5443   -2.8369    0.0000 C   0  0  0  0  0  0  0  0  0  0  0  0
    7.7654    1.1714    0.0000 C   0  0  0  0  0  0  0  0  0  0  0  0
    4.5981   -3.1416    0.0000 C   0  0  0  0  0  0  0  0  0  0  0  0
    8.0761    2.1219    0.0000 C   0  0  0  0  0  0  0  0  0  0  0  0
   12.6580    2.2025    0.0000 C   0  0  0  0  0  0  0  0  0  0  0  0
    4.5981   -4.1416    0.0000 C   0  0  0  0  0  0  0  0  0  0  0  0
    9.0546    2.3282    0.0000 C   0  0  0  0  0  0  0  0  0  0  0  0
    3.7320   -2.6416    0.0000 C   0  0  0  0  0  0  0  0  0  0  0  0
   11.9901    2.9468    0.0000 C   0  0  0  0  0  0  0  0  0  0  0  0
    3.7320   -4.6416    0.0000 C   0  0  0  0  0  0  0  0  0  0  0  0
    2.8660   -3.1416    0.0000 C   0  0  0  0  0  0  0  0  0  0  0  0
    2.8660   -4.1416    0.0000 C   0  0  0  0  0  0  0  0  0  0  0  0
   11.0116    2.7406    0.0000 C   0  0  0  0  0  0  0  0  0  0  0  0
   10.3438    3.4849    0.0000 C   0  0  0  0  0  0  0  0  0  0  0  0
   12.3008    3.8973    0.0000 C   0  0  0  0  0  0  0  0  0  0  0  0
   11.6330    4.6416    0.0000 C   0  0  0  0  0  0  0  0  0  0  0  0
    6.2690   -2.3478    0.0000 H   0  0  0  0  0  0  0  0  0  0  0  0
   13.7514    1.3839    0.0000 H   0  0  0  0  0  0  0  0  0  0  0  0
   13.9353    0.4547    0.0000 H   0  0  0  0  0  0  0  0  0  0  0  0
   14.8382    0.1596    0.0000 H   0  0  0  0  0  0  0  0  0  0  0  0
   15.7428    0.9712    0.0000 H   0  0  0  0  0  0  0  0  0  0  0  0
   15.5469    1.9007    0.0000 H   0  0  0  0  0  0  0  0  0  0  0  0
    4.6402   -0.8501    0.0000 H   0  0  0  0  0  0  0  0  0  0  0  0
    4.8046   -1.6300    0.0000 H   0  0  0  0  0  0  0  0  0  0  0  0
    6.8540   -2.2998    0.0000 H   0  0  0  0  0  0  0  0  0  0  0  0
    7.4473   -1.7675    0.0000 H   0  0  0  0  0  0  0  0  0  0  0  0
    5.4772    0.4281    0.0000 H   0  0  0  0  0  0  0  0  0  0  0  0
    4.8840   -0.1042    0.0000 H   0  0  0  0  0  0  0  0  0  0  0  0
    7.6910   -1.0216    0.0000 H   0  0  0  0  0  0  0  0  0  0  0  0
    7.5267   -0.2417    0.0000 H   0  0  0  0  0  0  0  0  0  0  0  0
    6.7664    1.5849    0.0000 H   0  0  0  0  0  0  0  0  0  0  0  0
    6.1731    1.0525    0.0000 H   0  0  0  0  0  0  0  0  0  0  0  0
   13.8291    2.9980    0.0000 H   0  0  0  0  0  0  0  0  0  0  0  0
    7.7860    0.5517    0.0000 H   0  0  0  0  0  0  0  0  0  0  0  0
    8.3793    1.0841    0.0000 H   0  0  0  0  0  0  0  0  0  0  0  0
    8.0556    2.7416    0.0000 H   0  0  0  0  0  0  0  0  0  0  0  0
    7.4623    2.2093    0.0000 H   0  0  0  0  0  0  0  0  0  0  0  0
    9.0752    1.7085    0.0000 H   0  0  0  0  0  0  0  0  0  0  0  0
    9.6684    2.2408    0.0000 H   0  0  0  0  0  0  0  0  0  0  0  0
    3.7320   -2.0216    0.0000 H   0  0  0  0  0  0  0  0  0  0  0  0
    3.7320   -5.2616    0.0000 H   0  0  0  0  0  0  0  0  0  0  0  0
    2.3291   -2.8316    0.0000 H   0  0  0  0  0  0  0  0  0  0  0  0
   10.8190    2.1513    0.0000 H   0  0  0  0  0  0  0  0  0  0  0  0
   12.9075    4.0252    0.0000 H   0  0  0  0  0  0  0  0  0  0  0  0
   11.8256    5.2310    0.0000 H   0  0  0  0  0  0  0  0  0  0  0  0
  1 29  1  0  0  0  0
  2  7  1  0  0  0  0
  2 23  1  0  0  0  0
  3 24  1  0  0  0  0
  3 31  1  0  0  0  0
  4 22  2  0  0  0  0
  5 15  1  0  0  0  0
  5 16  1  0  0  0  0
  5 17  1  0  0  0  0
  6 10  1  0  0  0  0
  6 22  1  0  0  0  0
  6 50  1  0  0  0  0
  7 18  2  0  0  0  0
  8 31  2  0  0  0  0
  8 33  1  0  0  0  0
  9 13  1  0  0  0  0
  9 14  1  0  0  0  0
  9 18  1  0  0  0  0
  9 34  1  0  0  0  0
 10 11  1  0  0  0  0
 10 12  1  0  0  0  0
 10 35  1  0  0  0  0
 11 12  1  0  0  0  0
 11 36  1  0  0  0  0
 11 37  1  0  0  0  0
 12 38  1  0  0  0  0
 12 39  1  0  0  0  0
 13 15  1  0  0  0  0
 13 40  1  0  0  0  0
 13 41  1  0  0  0  0
 14 16  1  0  0  0  0
 14 42  1  0  0  0  0
 14 43  1  0  0  0  0
 15 44  1  0  0  0  0
 15 45  1  0  0  0  0
 16 46  1  0  0  0  0
 16 47  1  0  0  0  0
 17 19  1  0  0  0  0
 17 48  1  0  0  0  0
 17 49  1  0  0  0  0
 18 20  1  0  0  0  0
 19 21  1  0  0  0  0
 19 51  1  0  0  0  0
 19 52  1  0  0  0  0
 20 23  2  0  0  0  0
 20 25  1  0  0  0  0
 21 24  1  0  0  0  0
 21 53  1  0  0  0  0
 21 54  1  0  0  0  0
 22 26  1  0  0  0  0
 23 27  1  0  0  0  0
 24 55  1  0  0  0  0
 24 56  1  0  0  0  0
 25 28  2  0  0  0  0
 25 57  1  0  0  0  0
 26 30  2  0  0  0  0
 26 32  1  0  0  0  0
 27 29  2  0  0  0  0
 27 58  1  0  0  0  0
 28 29  1  0  0  0  0
 28 59  1  0  0  0  0
 30 31  1  0  0  0  0
 30 60  1  0  0  0  0
 32 33  2  0  0  0  0
 32 61  1  0  0  0  0
 33 62  1  0  0  0  0
M  END
> <PUBCHEM_COMPOUND_CID>
145964982

> <PUBCHEM_COMPOUND_CANONICALIZED>
1

> <PUBCHEM_CACTVS_COMPLEXITY>
643

> <PUBCHEM_CACTVS_HBOND_ACCEPTOR>
7

> <PUBCHEM_CACTVS_HBOND_DONOR>
1

> <PUBCHEM_CACTVS_ROTATABLE_BOND>
9

> <PUBCHEM_CACTVS_SUBSKEYS>
AAADceB7sQAAAAAAAAAAAAAAGAAAAWAAAAA8WIAAAAAAAFgB/AAAHwAUAAAADSzhng48htPYFACpA7V3VgCCiCA1IiAo2KE+bNoMJvrEtZuOOajm1hnI6ce+2OCOAAAAAAAIAAAAAAAAABAAAAAAAAAAAA==

> <PUBCHEM_IUPAC_OPENEYE_NAME>
N-cyclopropyl-2-[4-[4-(6-fluoro-1,2-benzoxazol-3-yl)-1-piperidyl]butoxy]pyridine-4-carboxamide

> <PUBCHEM_IUPAC_CAS_NAME>
N-cyclopropyl-2-[4-[4-(6-fluoro-1,2-benzoxazol-3-yl)-1-piperidinyl]butoxy]-4-pyridinecarboxamide

> <PUBCHEM_IUPAC_NAME_MARKUP>
<I>N</I>-cyclopropyl-2-[4-[4-(6-fluoro-1,2-benzoxazol-3-yl)piperidin-1-yl]butoxy]pyridine-4-carboxamide

> <PUBCHEM_IUPAC_NAME>
N-cyclopropyl-2-[4-[4-(6-fluoro-1,2-benzoxazol-3-yl)piperidin-1-yl]butoxy]pyridine-4-carboxamide

> <PUBCHEM_IUPAC_SYSTEMATIC_NAME>
N-cyclopropyl-2-[4-[4-(6-fluoranyl-1,2-benzoxazol-3-yl)piperidin-1-yl]butoxy]pyridine-4-carboxamide

> <PUBCHEM_IUPAC_TRADITIONAL_NAME>
N-cyclopropyl-2-[4-[4-(6-fluoroindoxazen-3-yl)piperidino]butoxy]isonicotinamide

> <PUBCHEM_IUPAC_INCHI>
InChI=1S/C25H29FN4O3/c26-19-3-6-21-22(16-19)33-29-24(21)17-8-12-30(13-9-17)11-1-2-14-32-23-15-18(7-10-27-23)25(31)28-20-4-5-20/h3,6-7,10,15-17,20H,1-2,4-5,8-9,11-14H2,(H,28,31)

> <PUBCHEM_IUPAC_INCHIKEY>
JMXJEMQHNOBAJN-UHFFFAOYSA-N

> <PUBCHEM_XLOGP3_AA>
3.9

> <PUBCHEM_EXACT_MASS>
452.22236896

> <PUBCHEM_MOLECULAR_FORMULA>
C25H29FN4O3

> <PUBCHEM_MOLECULAR_WEIGHT>
452.5

> <PUBCHEM_OPENEYE_CAN_SMILES>
C1CC1NC(=O)C2=CC(=NC=C2)OCCCCN3CCC(CC3)C4=NOC5=C4C=CC(=C5)F

> <PUBCHEM_OPENEYE_ISO_SMILES>
C1CC1NC(=O)C2=CC(=NC=C2)OCCCCN3CCC(CC3)C4=NOC5=C4C=CC(=C5)F

> <PUBCHEM_CACTVS_TPSA>
80.5

> <PUBCHEM_MONOISOTOPIC_WEIGHT>
452.22236896

> <PUBCHEM_TOTAL_CHARGE>
0

> <PUBCHEM_HEAVY_ATOM_COUNT>
33

> <PUBCHEM_ATOM_DEF_STEREO_COUNT>
0

> <PUBCHEM_ATOM_UDEF_STEREO_COUNT>
0

> <PUBCHEM_BOND_DEF_STEREO_COUNT>
0

> <PUBCHEM_BOND_UDEF_STEREO_COUNT>
0

> <PUBCHEM_ISOTOPIC_ATOM_COUNT>
0

> <PUBCHEM_COMPONENT_COUNT>
1

> <PUBCHEM_CACTVS_TAUTO_COUNT>
-1

> <PUBCHEM_COORDINATE_TYPE>
1
5
255

> <PUBCHEM_BONDANNOTATIONS>
18  20  8
2  23  8
2  7  8
20  23  8
20  25  8
23  27  8
25  28  8
26  30  8
26  32  8
27  29  8
28  29  8
30  31  8
32  33  8
7  18  8
8  31  8
8  33  8

$$$$
