76332978
  -OEChem-09292322342D

 82 84  0     0  0  0  0  0  0999 V2000
    0.0000    2.6200    0.0000 F   0  0  0  0  0  0  0  0  0  0  0  0
   17.8241    5.9501    0.0000 O   0  0  0  0  0  0  0  0  0  0  0  0
   10.8241    0.7540    0.0000 O   0  0  0  0  0  0  0  0  0  0  0  0
    5.1962    2.6200    0.0000 O   0  0  0  0  0  0  0  0  0  0  0  0
    2.5981    2.1200    0.0000 O   0  0  0  0  0  0  0  0  0  0  0  0
   11.5211   10.3520    0.0000 O   0  0  0  0  0  0  0  0  0  0  0  0
    8.9230   10.8520    0.0000 O   0  0  0  0  0  0  0  0  0  0  0  0
   10.6550   11.8520    0.0000 O   0  0  0  0  0  0  0  0  0  0  0  0
    9.7890    9.3520    0.0000 O   0  0  0  0  0  0  0  0  0  0  0  0
   14.8241    4.2181    0.0000 N   0  0  0  0  0  0  0  0  0  0  0  0
   16.8241    4.2181    0.0000 N   0  0  0  0  0  0  0  0  0  0  0  0
   10.8241    2.4860    0.0000 N   0  0  0  0  0  0  0  0  0  0  0  0
    8.7404    0.8153    0.0000 N   0  0  0  0  0  0  0  0  0  0  0  0
   15.3241    3.3520    0.0000 C   0  0  0  0  0  0  0  0  0  0  0  0
   15.3241    5.0841    0.0000 C   0  0  0  0  0  0  0  0  0  0  0  0
   16.3241    3.3520    0.0000 C   0  0  0  0  0  0  0  0  0  0  0  0
   16.3241    5.0841    0.0000 C   0  0  0  0  0  0  0  0  0  0  0  0
   13.8241    4.2181    0.0000 C   0  0  0  0  0  0  0  0  0  0  0  0
   13.3241    3.3520    0.0000 C   0  0  0  0  0  0  0  0  0  0  0  0
   17.8241    4.2181    0.0000 C   0  0  0  0  0  0  0  0  0  0  0  0
   12.3241    3.3520    0.0000 C   0  0  0  0  0  0  0  0  0  0  0  0
   11.8241    2.4860    0.0000 C   0  0  0  0  0  0  0  0  0  0  0  0
   18.3241    5.0841    0.0000 C   0  0  0  0  0  0  0  0  0  0  0  0
   18.3241    3.3520    0.0000 C   0  0  0  0  0  0  0  0  0  0  0  0
   19.3241    5.0841    0.0000 C   0  0  0  0  0  0  0  0  0  0  0  0
   19.3241    3.3520    0.0000 C   0  0  0  0  0  0  0  0  0  0  0  0
   19.8241    4.2181    0.0000 C   0  0  0  0  0  0  0  0  0  0  0  0
   10.3241    1.6200    0.0000 C   0  0  0  0  0  0  0  0  0  0  0  0
    9.3241    1.6200    0.0000 C   0  0  0  0  0  0  0  0  0  0  0  0
   18.3241    6.8162    0.0000 C   0  0  0  0  0  0  0  0  0  0  0  0
    7.7942    2.1200    0.0000 C   0  0  0  0  0  0  0  0  0  0  0  0
    8.7404    2.4247    0.0000 C   0  0  0  0  0  0  0  0  0  0  0  0
    7.7942    1.1200    0.0000 C   0  0  0  0  0  0  0  0  0  0  0  0
    6.9282    2.6200    0.0000 C   0  0  0  0  0  0  0  0  0  0  0  0
    6.9282    0.6200    0.0000 C   0  0  0  0  0  0  0  0  0  0  0  0
    6.0622    2.1200    0.0000 C   0  0  0  0  0  0  0  0  0  0  0  0
    6.0622    1.1200    0.0000 C   0  0  0  0  0  0  0  0  0  0  0  0
    4.3301    2.1200    0.0000 C   0  0  0  0  0  0  0  0  0  0  0  0
    3.4641    2.6200    0.0000 C   0  0  0  0  0  0  0  0  0  0  0  0
    1.7320    2.6200    0.0000 C   0  0  0  0  0  0  0  0  0  0  0  0
    0.8660    2.1200    0.0000 C   0  0  0  0  0  0  0  0  0  0  0  0
   10.6550   10.8520    0.0000 C   0  0  0  0  0  0  0  0  0  0  0  0
    9.7890   10.3520    0.0000 C   0  0  0  0  0  0  0  0  0  0  0  0
   14.7414    3.1400    0.0000 H   0  0  0  0  0  0  0  0  0  0  0  0
   15.4317    2.7415    0.0000 H   0  0  0  0  0  0  0  0  0  0  0  0
   15.4317    5.6947    0.0000 H   0  0  0  0  0  0  0  0  0  0  0  0
   14.7414    5.2962    0.0000 H   0  0  0  0  0  0  0  0  0  0  0  0
   16.2164    2.7415    0.0000 H   0  0  0  0  0  0  0  0  0  0  0  0
   16.9067    3.1400    0.0000 H   0  0  0  0  0  0  0  0  0  0  0  0
   16.9067    5.2962    0.0000 H   0  0  0  0  0  0  0  0  0  0  0  0
   16.2164    5.6947    0.0000 H   0  0  0  0  0  0  0  0  0  0  0  0
   13.9317    4.8287    0.0000 H   0  0  0  0  0  0  0  0  0  0  0  0
   13.2414    4.4301    0.0000 H   0  0  0  0  0  0  0  0  0  0  0  0
   13.2164    2.7415    0.0000 H   0  0  0  0  0  0  0  0  0  0  0  0
   13.9067    3.1400    0.0000 H   0  0  0  0  0  0  0  0  0  0  0  0
   12.4317    3.9626    0.0000 H   0  0  0  0  0  0  0  0  0  0  0  0
   11.7414    3.5641    0.0000 H   0  0  0  0  0  0  0  0  0  0  0  0
   11.7164    1.8754    0.0000 H   0  0  0  0  0  0  0  0  0  0  0  0
   12.4067    2.2740    0.0000 H   0  0  0  0  0  0  0  0  0  0  0  0
   18.0141    2.8151    0.0000 H   0  0  0  0  0  0  0  0  0  0  0  0
   19.6341    5.6210    0.0000 H   0  0  0  0  0  0  0  0  0  0  0  0
   10.5141    3.0230    0.0000 H   0  0  0  0  0  0  0  0  0  0  0  0
   19.6341    2.8151    0.0000 H   0  0  0  0  0  0  0  0  0  0  0  0
   20.4441    4.2181    0.0000 H   0  0  0  0  0  0  0  0  0  0  0  0
   18.8610    6.5062    0.0000 H   0  0  0  0  0  0  0  0  0  0  0  0
   18.6341    7.3531    0.0000 H   0  0  0  0  0  0  0  0  0  0  0  0
   17.7871    7.1262    0.0000 H   0  0  0  0  0  0  0  0  0  0  0  0
    8.9331    3.0140    0.0000 H   0  0  0  0  0  0  0  0  0  0  0  0
    8.9331    0.2259    0.0000 H   0  0  0  0  0  0  0  0  0  0  0  0
    6.9282    3.2400    0.0000 H   0  0  0  0  0  0  0  0  0  0  0  0
    6.9282    0.0000    0.0000 H   0  0  0  0  0  0  0  0  0  0  0  0
    5.5252    0.8100    0.0000 H   0  0  0  0  0  0  0  0  0  0  0  0
    3.9316    1.6450    0.0000 H   0  0  0  0  0  0  0  0  0  0  0  0
    4.7287    1.6450    0.0000 H   0  0  0  0  0  0  0  0  0  0  0  0
    3.8626    3.0950    0.0000 H   0  0  0  0  0  0  0  0  0  0  0  0
    3.0656    3.0950    0.0000 H   0  0  0  0  0  0  0  0  0  0  0  0
    2.1306    3.0950    0.0000 H   0  0  0  0  0  0  0  0  0  0  0  0
    1.3335    3.0950    0.0000 H   0  0  0  0  0  0  0  0  0  0  0  0
    0.4675    1.6450    0.0000 H   0  0  0  0  0  0  0  0  0  0  0  0
    1.2646    1.6450    0.0000 H   0  0  0  0  0  0  0  0  0  0  0  0
   12.0580   10.6620    0.0000 H   0  0  0  0  0  0  0  0  0  0  0  0
    8.3860   10.5420    0.0000 H   0  0  0  0  0  0  0  0  0  0  0  0
  1 41  1  0  0  0  0
  2 23  1  0  0  0  0
  2 30  1  0  0  0  0
  3 28  2  0  0  0  0
  4 36  1  0  0  0  0
  4 38  1  0  0  0  0
  5 39  1  0  0  0  0
  5 40  1  0  0  0  0
  6 42  1  0  0  0  0
  6 81  1  0  0  0  0
  7 43  1  0  0  0  0
  7 82  1  0  0  0  0
  8 42  2  0  0  0  0
  9 43  2  0  0  0  0
 10 14  1  0  0  0  0
 10 15  1  0  0  0  0
 10 18  1  0  0  0  0
 11 16  1  0  0  0  0
 11 17  1  0  0  0  0
 11 20  1  0  0  0  0
 12 22  1  0  0  0  0
 12 28  1  0  0  0  0
 12 62  1  0  0  0  0
 13 29  1  0  0  0  0
 13 33  1  0  0  0  0
 13 69  1  0  0  0  0
 14 16  1  0  0  0  0
 14 44  1  0  0  0  0
 14 45  1  0  0  0  0
 15 17  1  0  0  0  0
 15 46  1  0  0  0  0
 15 47  1  0  0  0  0
 16 48  1  0  0  0  0
 16 49  1  0  0  0  0
 17 50  1  0  0  0  0
 17 51  1  0  0  0  0
 18 19  1  0  0  0  0
 18 52  1  0  0  0  0
 18 53  1  0  0  0  0
 19 21  1  0  0  0  0
 19 54  1  0  0  0  0
 19 55  1  0  0  0  0
 20 23  1  0  0  0  0
 20 24  2  0  0  0  0
 21 22  1  0  0  0  0
 21 56  1  0  0  0  0
 21 57  1  0  0  0  0
 22 58  1  0  0  0  0
 22 59  1  0  0  0  0
 23 25  2  0  0  0  0
 24 26  1  0  0  0  0
 24 60  1  0  0  0  0
 25 27  1  0  0  0  0
 25 61  1  0  0  0  0
 26 27  2  0  0  0  0
 26 63  1  0  0  0  0
 27 64  1  0  0  0  0
 28 29  1  0  0  0  0
 29 32  2  0  0  0  0
 30 65  1  0  0  0  0
 30 66  1  0  0  0  0
 30 67  1  0  0  0  0
 31 32  1  0  0  0  0
 31 33  2  0  0  0  0
 31 34  1  0  0  0  0
 32 68  1  0  0  0  0
 33 35  1  0  0  0  0
 34 36  2  0  0  0  0
 34 70  1  0  0  0  0
 35 37  2  0  0  0  0
 35 71  1  0  0  0  0
 36 37  1  0  0  0  0
 37 72  1  0  0  0  0
 38 39  1  0  0  0  0
 38 73  1  0  0  0  0
 38 74  1  0  0  0  0
 39 75  1  0  0  0  0
 39 76  1  0  0  0  0
 40 41  1  0  0  0  0
 40 77  1  0  0  0  0
 40 78  1  0  0  0  0
 41 79  1  0  0  0  0
 41 80  1  0  0  0  0
 42 43  1  0  0  0  0
M  END
> <PUBCHEM_COMPOUND_CID>
76332978

> <PUBCHEM_COMPOUND_CANONICALIZED>
1

> <PUBCHEM_CACTVS_COMPLEXITY>
738

> <PUBCHEM_CACTVS_HBOND_ACCEPTOR>
11

> <PUBCHEM_CACTVS_HBOND_DONOR>
4

> <PUBCHEM_CACTVS_ROTATABLE_BOND>
15

> <PUBCHEM_CACTVS_SUBSKEYS>
AAADcfB7vQAAAAAAAAAAAAAAAAAAAWAAAAA8YIAAAAAAAFgB9AAAHwAQCAAADAzhngYyzvPJlgCoAyXyXAKCiCAnIiAImaH/bNgPZvLEtbuXOSjk1hHb6Ye42bOeAEABAAACEAAAgAIAAAQgAAAAAAAAAA==

> <PUBCHEM_IUPAC_OPENEYE_NAME>
5-[2-(2-fluoroethoxy)ethoxy]-N-[4-[4-(2-methoxyphenyl)piperazin-1-yl]butyl]-1H-indole-2-carboxamide;oxalic acid

> <PUBCHEM_IUPAC_CAS_NAME>
5-[2-(2-fluoroethoxy)ethoxy]-N-[4-[4-(2-methoxyphenyl)-1-piperazinyl]butyl]-1H-indole-2-carboxamide;oxalic acid

> <PUBCHEM_IUPAC_NAME_MARKUP>
5-[2-(2-fluoroethoxy)ethoxy]-<I>N</I>-[4-[4-(2-methoxyphenyl)piperazin-1-yl]butyl]-1<I>H</I>-indole-2-carboxamide;oxalic acid

> <PUBCHEM_IUPAC_NAME>
5-[2-(2-fluoroethoxy)ethoxy]-N-[4-[4-(2-methoxyphenyl)piperazin-1-yl]butyl]-1H-indole-2-carboxamide;oxalic acid

> <PUBCHEM_IUPAC_SYSTEMATIC_NAME>
ethanedioic acid;5-[2-(2-fluoranylethoxy)ethoxy]-N-[4-[4-(2-methoxyphenyl)piperazin-1-yl]butyl]-1H-indole-2-carboxamide

> <PUBCHEM_IUPAC_TRADITIONAL_NAME>
5-[2-(2-fluoroethoxy)ethoxy]-N-[4-[4-(2-methoxyphenyl)piperazino]butyl]-1H-indole-2-carboxamide;oxalic acid

> <PUBCHEM_IUPAC_INCHI>
InChI=1S/C28H37FN4O4.C2H2O4/c1-35-27-7-3-2-6-26(27)33-15-13-32(14-16-33)12-5-4-11-30-28(34)25-21-22-20-23(8-9-24(22)31-25)37-19-18-36-17-10-29;3-1(4)2(5)6/h2-3,6-9,20-21,31H,4-5,10-19H2,1H3,(H,30,34);(H,3,4)(H,5,6)

> <PUBCHEM_IUPAC_INCHIKEY>
XBXRQMKJBILPOM-UHFFFAOYSA-N

> <PUBCHEM_EXACT_MASS>
602.27519238

> <PUBCHEM_MOLECULAR_FORMULA>
C30H39FN4O8

> <PUBCHEM_MOLECULAR_WEIGHT>
602.7

> <PUBCHEM_OPENEYE_CAN_SMILES>
COC1=CC=CC=C1N2CCN(CC2)CCCCNC(=O)C3=CC4=C(N3)C=CC(=C4)OCCOCCF.C(=O)(C(=O)O)O

> <PUBCHEM_OPENEYE_ISO_SMILES>
COC1=CC=CC=C1N2CCN(CC2)CCCCNC(=O)C3=CC4=C(N3)C=CC(=C4)OCCOCCF.C(=O)(C(=O)O)O

> <PUBCHEM_CACTVS_TPSA>
154

> <PUBCHEM_MONOISOTOPIC_WEIGHT>
602.27519238

> <PUBCHEM_TOTAL_CHARGE>
0

> <PUBCHEM_HEAVY_ATOM_COUNT>
43

> <PUBCHEM_ATOM_DEF_STEREO_COUNT>
0

> <PUBCHEM_ATOM_UDEF_STEREO_COUNT>
0

> <PUBCHEM_BOND_DEF_STEREO_COUNT>
0

> <PUBCHEM_BOND_UDEF_STEREO_COUNT>
0

> <PUBCHEM_ISOTOPIC_ATOM_COUNT>
0

> <PUBCHEM_COMPONENT_COUNT>
2

> <PUBCHEM_CACTVS_TAUTO_COUNT>
-1

> <PUBCHEM_COORDINATE_TYPE>
1
5
255

> <PUBCHEM_BONDANNOTATIONS>
13  29  8
13  33  8
20  23  8
20  24  8
23  25  8
24  26  8
25  27  8
26  27  8
29  32  8
31  32  8
31  33  8
31  34  8
33  35  8
34  36  8
35  37  8
36  37  8

$$$$
