46884898
  -OEChem-09292322072D

 71 74  0     1  0  0  0  0  0999 V2000
    3.8522   -6.0875    0.0000 Cl  0  0  0  0  0  0  0  0  0  0  0  0
    6.2731    8.6190    0.0000 F   0  0  0  0  0  0  0  0  0  0  0  0
    7.2731    7.6190    0.0000 F   0  0  0  0  0  0  0  0  0  0  0  0
    5.2731    7.6190    0.0000 F   0  0  0  0  0  0  0  0  0  0  0  0
    6.8357   -5.7739    0.0000 O   0  0  0  0  0  0  0  0  0  0  0  0
    4.5411    1.6191    0.0000 O   0  0  0  0  0  0  0  0  0  0  0  0
    3.6750    5.1190    0.0000 O   0  0  0  0  0  0  0  0  0  0  0  0
    3.3090   -0.9198    0.0000 N   0  0  3  0  0  0  0  0  0  0  0  0
    5.2534   -5.0694    0.0000 N   0  0  0  0  0  0  0  0  0  0  0  0
    2.8090    1.6191    0.0000 N   0  0  0  0  0  0  0  0  0  0  0  0
    4.5411    3.6190    0.0000 N   0  0  0  0  0  0  0  0  0  0  0  0
    4.0778   -3.4514    0.0000 C   0  0  0  0  0  0  0  0  0  0  0  0
    3.4901   -2.6424    0.0000 C   0  0  0  0  0  0  0  0  0  0  0  0
    3.8968   -1.7288    0.0000 C   0  0  0  0  0  0  0  0  0  0  0  0
    2.8090    0.6191    0.0000 C   0  0  1  0  0  0  0  0  0  0  0  0
    5.0724   -3.3468    0.0000 C   0  0  0  0  0  0  0  0  0  0  0  0
    3.6711   -4.3649    0.0000 C   0  0  0  0  0  0  0  0  0  0  0  0
    3.6180    0.0313    0.0000 C   0  0  0  0  0  0  0  0  0  0  0  0
    2.3090   -0.9198    0.0000 C   0  0  0  0  0  0  0  0  0  0  0  0
    2.0000    0.0313    0.0000 C   0  0  0  0  0  0  0  0  0  0  0  0
    5.6602   -4.1559    0.0000 C   0  0  0  0  0  0  0  0  0  0  0  0
    4.2589   -5.1739    0.0000 C   0  0  0  0  0  0  0  0  0  0  0  0
    5.8412   -5.8784    0.0000 C   0  0  0  0  0  0  0  0  0  0  0  0
    3.6750    2.1190    0.0000 C   0  0  0  0  0  0  0  0  0  0  0  0
    5.4345   -6.7920    0.0000 C   0  0  0  0  0  0  0  0  0  0  0  0
    3.6750    3.1190    0.0000 C   0  0  0  0  0  0  0  0  0  0  0  0
    4.4399   -6.8965    0.0000 C   0  0  0  0  0  0  0  0  0  0  0  0
    6.0223   -7.6010    0.0000 C   0  0  0  0  0  0  0  0  0  0  0  0
    4.0332   -7.8100    0.0000 C   0  0  0  0  0  0  0  0  0  0  0  0
    5.6155   -8.5145    0.0000 C   0  0  0  0  0  0  0  0  0  0  0  0
    4.6210   -8.6190    0.0000 C   0  0  0  0  0  0  0  0  0  0  0  0
    4.5411    4.6190    0.0000 C   0  0  0  0  0  0  0  0  0  0  0  0
    5.4071    5.1190    0.0000 C   0  0  0  0  0  0  0  0  0  0  0  0
    5.4071    6.1190    0.0000 C   0  0  0  0  0  0  0  0  0  0  0  0
    6.2731    4.6190    0.0000 C   0  0  0  0  0  0  0  0  0  0  0  0
    6.2731    6.6190    0.0000 C   0  0  0  0  0  0  0  0  0  0  0  0
    7.1391    5.1190    0.0000 C   0  0  0  0  0  0  0  0  0  0  0  0
    7.1391    6.1190    0.0000 C   0  0  0  0  0  0  0  0  0  0  0  0
    6.2731    7.6190    0.0000 C   0  0  0  0  0  0  0  0  0  0  0  0
    4.3300   -2.8850    0.0000 H   0  0  0  0  0  0  0  0  0  0  0  0
    2.9761   -2.2957    0.0000 H   0  0  0  0  0  0  0  0  0  0  0  0
    3.0594   -3.0883    0.0000 H   0  0  0  0  0  0  0  0  0  0  0  0
    4.4108   -2.0755    0.0000 H   0  0  0  0  0  0  0  0  0  0  0  0
    4.3275   -1.2828    0.0000 H   0  0  0  0  0  0  0  0  0  0  0  0
    3.3614    0.9005    0.0000 H   0  0  0  0  0  0  0  0  0  0  0  0
    5.6296   -3.0750    0.0000 H   0  0  0  0  0  0  0  0  0  0  0  0
    4.9015   -2.7509    0.0000 H   0  0  0  0  0  0  0  0  0  0  0  0
    3.1571   -4.0182    0.0000 H   0  0  0  0  0  0  0  0  0  0  0  0
    3.2404   -4.8109    0.0000 H   0  0  0  0  0  0  0  0  0  0  0  0
    4.1844   -0.2209    0.0000 H   0  0  0  0  0  0  0  0  0  0  0  0
    3.9280    0.5682    0.0000 H   0  0  0  0  0  0  0  0  0  0  0  0
    1.7026   -1.0487    0.0000 H   0  0  0  0  0  0  0  0  0  0  0  0
    2.3738   -1.5364    0.0000 H   0  0  0  0  0  0  0  0  0  0  0  0
    1.6900    0.5682    0.0000 H   0  0  0  0  0  0  0  0  0  0  0  0
    1.4336   -0.2209    0.0000 H   0  0  0  0  0  0  0  0  0  0  0  0
    6.1742   -4.5026    0.0000 H   0  0  0  0  0  0  0  0  0  0  0  0
    6.0908   -3.7099    0.0000 H   0  0  0  0  0  0  0  0  0  0  0  0
    3.7016   -5.4457    0.0000 H   0  0  0  0  0  0  0  0  0  0  0  0
    4.4298   -5.7699    0.0000 H   0  0  0  0  0  0  0  0  0  0  0  0
    2.2721    1.9290    0.0000 H   0  0  0  0  0  0  0  0  0  0  0  0
    3.4630    3.7017    0.0000 H   0  0  0  0  0  0  0  0  0  0  0  0
    3.0645    3.0114    0.0000 H   0  0  0  0  0  0  0  0  0  0  0  0
    6.6389   -7.5362    0.0000 H   0  0  0  0  0  0  0  0  0  0  0  0
    5.0780    3.3090    0.0000 H   0  0  0  0  0  0  0  0  0  0  0  0
    3.4166   -7.8748    0.0000 H   0  0  0  0  0  0  0  0  0  0  0  0
    5.9800   -9.0161    0.0000 H   0  0  0  0  0  0  0  0  0  0  0  0
    4.3688   -9.1854    0.0000 H   0  0  0  0  0  0  0  0  0  0  0  0
    4.8702    6.4290    0.0000 H   0  0  0  0  0  0  0  0  0  0  0  0
    6.2731    3.9990    0.0000 H   0  0  0  0  0  0  0  0  0  0  0  0
    7.6761    4.8090    0.0000 H   0  0  0  0  0  0  0  0  0  0  0  0
    7.6761    6.4290    0.0000 H   0  0  0  0  0  0  0  0  0  0  0  0
  1 27  1  0  0  0  0
  2 39  1  0  0  0  0
  3 39  1  0  0  0  0
  4 39  1  0  0  0  0
  5 23  2  0  0  0  0
  6 24  2  0  0  0  0
  7 32  2  0  0  0  0
  8 14  1  0  0  0  0
  8 18  1  0  0  0  0
  8 19  1  0  0  0  0
  9 21  1  0  0  0  0
  9 22  1  0  0  0  0
  9 23  1  0  0  0  0
 15 10  1  1  0  0  0
 10 24  1  0  0  0  0
 10 60  1  0  0  0  0
 11 26  1  0  0  0  0
 11 32  1  0  0  0  0
 11 64  1  0  0  0  0
 12 13  1  0  0  0  0
 12 16  1  0  0  0  0
 12 17  1  0  0  0  0
 12 40  1  0  0  0  0
 13 14  1  0  0  0  0
 13 41  1  0  0  0  0
 13 42  1  0  0  0  0
 14 43  1  0  0  0  0
 14 44  1  0  0  0  0
 15 18  1  0  0  0  0
 15 20  1  0  0  0  0
 15 45  1  0  0  0  0
 16 21  1  0  0  0  0
 16 46  1  0  0  0  0
 16 47  1  0  0  0  0
 17 22  1  0  0  0  0
 17 48  1  0  0  0  0
 17 49  1  0  0  0  0
 18 50  1  0  0  0  0
 18 51  1  0  0  0  0
 19 20  1  0  0  0  0
 19 52  1  0  0  0  0
 19 53  1  0  0  0  0
 20 54  1  0  0  0  0
 20 55  1  0  0  0  0
 21 56  1  0  0  0  0
 21 57  1  0  0  0  0
 22 58  1  0  0  0  0
 22 59  1  0  0  0  0
 23 25  1  0  0  0  0
 24 26  1  0  0  0  0
 25 27  1  0  0  0  0
 25 28  2  0  0  0  0
 26 61  1  0  0  0  0
 26 62  1  0  0  0  0
 27 29  2  0  0  0  0
 28 30  1  0  0  0  0
 28 63  1  0  0  0  0
 29 31  1  0  0  0  0
 29 65  1  0  0  0  0
 30 31  2  0  0  0  0
 30 66  1  0  0  0  0
 31 67  1  0  0  0  0
 32 33  1  0  0  0  0
 33 34  2  0  0  0  0
 33 35  1  0  0  0  0
 34 36  1  0  0  0  0
 34 68  1  0  0  0  0
 35 37  2  0  0  0  0
 35 69  1  0  0  0  0
 36 38  2  0  0  0  0
 36 39  1  0  0  0  0
 37 38  1  0  0  0  0
 37 70  1  0  0  0  0
 38 71  1  0  0  0  0
M  END
> <PUBCHEM_COMPOUND_CID>
46884898

> <PUBCHEM_COMPOUND_CANONICALIZED>
1

> <PUBCHEM_CACTVS_COMPLEXITY>
852

> <PUBCHEM_CACTVS_HBOND_ACCEPTOR>
7

> <PUBCHEM_CACTVS_HBOND_DONOR>
2

> <PUBCHEM_CACTVS_ROTATABLE_BOND>
8

> <PUBCHEM_CACTVS_SUBSKEYS>
AAADcfB7sYAEAAAAAAAAAAAAAAAAAWAAAAA8YIAAAAAAAAABQAAAHwIQAAAADSrBmDQwAIPAAACIAiFSEACCAAAkBQAIiIGIBsgIYDKB1zGUIQhglgCIjYcYiECOAAACAAABAAAAAAQAAAIAAAAAAAAAAA==

> <PUBCHEM_IUPAC_OPENEYE_NAME>
N-[2-[[(3R)-1-[2-[1-(2-chlorobenzoyl)-4-piperidyl]ethyl]pyrrolidin-3-yl]amino]-2-oxo-ethyl]-3-(trifluoromethyl)benzamide

> <PUBCHEM_IUPAC_CAS_NAME>
N-[2-[[(3R)-1-[2-[1-[(2-chlorophenyl)-oxomethyl]-4-piperidinyl]ethyl]-3-pyrrolidinyl]amino]-2-oxoethyl]-3-(trifluoromethyl)benzamide

> <PUBCHEM_IUPAC_NAME_MARKUP>
<I>N</I>-[2-[[(3<I>R</I>)-1-[2-[1-(2-chlorobenzoyl)piperidin-4-yl]ethyl]pyrrolidin-3-yl]amino]-2-oxoethyl]-3-(trifluoromethyl)benzamide

> <PUBCHEM_IUPAC_NAME>
N-[2-[[(3R)-1-[2-[1-(2-chlorobenzoyl)piperidin-4-yl]ethyl]pyrrolidin-3-yl]amino]-2-oxoethyl]-3-(trifluoromethyl)benzamide

> <PUBCHEM_IUPAC_SYSTEMATIC_NAME>
N-[2-[[(3R)-1-[2-[1-(2-chlorophenyl)carbonylpiperidin-4-yl]ethyl]pyrrolidin-3-yl]amino]-2-oxidanylidene-ethyl]-3-(trifluoromethyl)benzamide

> <PUBCHEM_IUPAC_TRADITIONAL_NAME>
N-[2-[[(3R)-1-[2-[1-(2-chlorobenzoyl)-4-piperidyl]ethyl]pyrrolidin-3-yl]amino]-2-keto-ethyl]-3-(trifluoromethyl)benzamide

> <PUBCHEM_IUPAC_INCHI>
InChI=1S/C28H32ClF3N4O3/c29-24-7-2-1-6-23(24)27(39)36-14-9-19(10-15-36)8-12-35-13-11-22(18-35)34-25(37)17-33-26(38)20-4-3-5-21(16-20)28(30,31)32/h1-7,16,19,22H,8-15,17-18H2,(H,33,38)(H,34,37)/t22-/m1/s1

> <PUBCHEM_IUPAC_INCHIKEY>
UNKSWQVJNKCXOO-JOCHJYFZSA-N

> <PUBCHEM_XLOGP3_AA>
4.5

> <PUBCHEM_EXACT_MASS>
564.2115031

> <PUBCHEM_MOLECULAR_FORMULA>
C28H32ClF3N4O3

> <PUBCHEM_MOLECULAR_WEIGHT>
565.0

> <PUBCHEM_OPENEYE_CAN_SMILES>
C1CN(CCC1CCN2CCC(C2)NC(=O)CNC(=O)C3=CC(=CC=C3)C(F)(F)F)C(=O)C4=CC=CC=C4Cl

> <PUBCHEM_OPENEYE_ISO_SMILES>
C1CN(C[C@@H]1NC(=O)CNC(=O)C2=CC(=CC=C2)C(F)(F)F)CCC3CCN(CC3)C(=O)C4=CC=CC=C4Cl

> <PUBCHEM_CACTVS_TPSA>
81.8

> <PUBCHEM_MONOISOTOPIC_WEIGHT>
564.2115031

> <PUBCHEM_TOTAL_CHARGE>
0

> <PUBCHEM_HEAVY_ATOM_COUNT>
39

> <PUBCHEM_ATOM_DEF_STEREO_COUNT>
1

> <PUBCHEM_ATOM_UDEF_STEREO_COUNT>
0

> <PUBCHEM_BOND_DEF_STEREO_COUNT>
0

> <PUBCHEM_BOND_UDEF_STEREO_COUNT>
0

> <PUBCHEM_ISOTOPIC_ATOM_COUNT>
0

> <PUBCHEM_COMPONENT_COUNT>
1

> <PUBCHEM_CACTVS_TAUTO_COUNT>
-1

> <PUBCHEM_COORDINATE_TYPE>
1
5
255

> <PUBCHEM_BONDANNOTATIONS>
15  10  5
25  27  8
25  28  8
27  29  8
28  30  8
29  31  8
30  31  8
33  34  8
33  35  8
34  36  8
35  37  8
36  38  8
37  38  8

$$$$
