45265305
  -OEChem-09292322122D

 74 77  0     1  0  0  0  0  0999 V2000
    7.4546    0.0000    0.0000 Cl  0  0  0  0  0  0  0  0  0  0  0  0
   14.5094    8.4840    0.0000 S   0  0  0  0  0  0  0  0  0  0  0  0
    4.1546    4.8618    0.0000 O   0  0  0  0  0  0  0  0  0  0  0  0
   15.0127    7.6199    0.0000 O   0  0  0  0  0  0  0  0  0  0  0  0
   14.0060    9.3481    0.0000 O   0  0  0  0  0  0  0  0  0  0  0  0
    9.6546    7.4598    0.0000 N   0  0  3  0  0  0  0  0  0  0  0  0
    4.1546    6.5938    0.0000 N   0  0  0  0  0  0  0  0  0  0  0  0
    7.1546    6.5938    0.0000 C   0  0  0  0  0  0  0  0  0  0  0  0
    6.6546    7.4598    0.0000 C   0  0  0  0  0  0  0  0  0  0  0  0
    6.6546    5.7278    0.0000 C   0  0  0  0  0  0  0  0  0  0  0  0
    5.1546    6.5938    0.0000 C   0  0  0  0  0  0  0  0  0  0  0  0
    5.6546    7.4598    0.0000 C   0  0  0  0  0  0  0  0  0  0  0  0
    5.6546    5.7278    0.0000 C   0  0  0  0  0  0  0  0  0  0  0  0
    8.1546    6.5938    0.0000 C   0  0  0  0  0  0  0  0  0  0  0  0
    8.6546    7.4598    0.0000 C   0  0  0  0  0  0  0  0  0  0  0  0
   10.0885    8.3608    0.0000 C   0  0  0  0  0  0  0  0  0  0  0  0
   10.0885    6.5589    0.0000 C   0  0  0  0  0  0  0  0  0  0  0  0
   11.0634    8.5833    0.0000 C   0  0  0  0  0  0  0  0  0  0  0  0
   11.0634    6.3364    0.0000 C   0  0  0  0  0  0  0  0  0  0  0  0
   11.8453    7.9598    0.0000 C   0  0  0  0  0  0  0  0  0  0  0  0
   11.8453    6.9598    0.0000 C   0  0  0  0  0  0  0  0  0  0  0  0
    3.6546    5.7278    0.0000 C   0  0  0  0  0  0  0  0  0  0  0  0
   12.7392    8.4945    0.0000 C   0  0  0  0  0  0  0  0  0  0  0  0
   12.7392    6.4252    0.0000 C   0  0  0  0  0  0  0  0  0  0  0  0
    2.6546    5.7278    0.0000 C   0  0  0  0  0  0  0  0  0  0  0  0
   13.6453    7.9807    0.0000 C   0  0  0  0  0  0  0  0  0  0  0  0
   13.6453    6.9390    0.0000 C   0  0  0  0  0  0  0  0  0  0  0  0
    2.1546    4.8618    0.0000 C   0  0  0  0  0  0  0  0  0  0  0  0
    2.1546    6.5938    0.0000 C   0  0  0  0  0  0  0  0  0  0  0  0
    1.1546    4.8618    0.0000 C   0  0  0  0  0  0  0  0  0  0  0  0
   15.3735    8.9873    0.0000 C   0  0  0  0  0  0  0  0  0  0  0  0
    1.1546    6.5938    0.0000 C   0  0  0  0  0  0  0  0  0  0  0  0
    2.6893    3.9678    0.0000 C   0  0  0  0  0  0  0  0  0  0  0  0
    0.6546    5.7278    0.0000 C   0  0  0  0  0  0  0  0  0  0  0  0
    0.6200    3.9678    0.0000 C   0  0  0  0  0  0  0  0  0  0  0  0
    2.1754    3.0618    0.0000 C   0  0  0  0  0  0  0  0  0  0  0  0
    1.1338    3.0618    0.0000 C   0  0  0  0  0  0  0  0  0  0  0  0
    7.4646    7.1308    0.0000 H   0  0  0  0  0  0  0  0  0  0  0  0
    7.2372    7.6719    0.0000 H   0  0  0  0  0  0  0  0  0  0  0  0
    6.5470    8.0704    0.0000 H   0  0  0  0  0  0  0  0  0  0  0  0
    6.5470    5.1172    0.0000 H   0  0  0  0  0  0  0  0  0  0  0  0
    7.2372    5.5157    0.0000 H   0  0  0  0  0  0  0  0  0  0  0  0
    4.8446    7.1308    0.0000 H   0  0  0  0  0  0  0  0  0  0  0  0
    5.7623    8.0704    0.0000 H   0  0  0  0  0  0  0  0  0  0  0  0
    5.0720    7.6719    0.0000 H   0  0  0  0  0  0  0  0  0  0  0  0
    5.0720    5.5157    0.0000 H   0  0  0  0  0  0  0  0  0  0  0  0
    5.7623    5.1172    0.0000 H   0  0  0  0  0  0  0  0  0  0  0  0
    8.0470    5.9832    0.0000 H   0  0  0  0  0  0  0  0  0  0  0  0
    8.7372    6.3818    0.0000 H   0  0  0  0  0  0  0  0  0  0  0  0
    8.7623    8.0704    0.0000 H   0  0  0  0  0  0  0  0  0  0  0  0
    8.0720    7.6719    0.0000 H   0  0  0  0  0  0  0  0  0  0  0  0
    3.8446    7.1308    0.0000 H   0  0  0  0  0  0  0  0  0  0  0  0
   10.0885    8.9808    0.0000 H   0  0  0  0  0  0  0  0  0  0  0  0
    9.4840    8.4988    0.0000 H   0  0  0  0  0  0  0  0  0  0  0  0
    9.4840    6.4209    0.0000 H   0  0  0  0  0  0  0  0  0  0  0  0
   10.0885    5.9389    0.0000 H   0  0  0  0  0  0  0  0  0  0  0  0
   11.5482    8.9699    0.0000 H   0  0  0  0  0  0  0  0  0  0  0  0
   10.7944    9.1419    0.0000 H   0  0  0  0  0  0  0  0  0  0  0  0
   10.7944    5.7778    0.0000 H   0  0  0  0  0  0  0  0  0  0  0  0
   11.5482    5.9498    0.0000 H   0  0  0  0  0  0  0  0  0  0  0  0
   12.7320    9.1145    0.0000 H   0  0  0  0  0  0  0  0  0  0  0  0
   12.7320    5.8052    0.0000 H   0  0  0  0  0  0  0  0  0  0  0  0
   14.1810    6.6270    0.0000 H   0  0  0  0  0  0  0  0  0  0  0  0
    2.4646    7.1308    0.0000 H   0  0  0  0  0  0  0  0  0  0  0  0
   15.6855    8.4516    0.0000 H   0  0  0  0  0  0  0  0  0  0  0  0
   15.9092    9.2994    0.0000 H   0  0  0  0  0  0  0  0  0  0  0  0
   15.0614    9.5231    0.0000 H   0  0  0  0  0  0  0  0  0  0  0  0
    0.8446    7.1308    0.0000 H   0  0  0  0  0  0  0  0  0  0  0  0
    3.3092    3.9750    0.0000 H   0  0  0  0  0  0  0  0  0  0  0  0
    0.0346    5.7278    0.0000 H   0  0  0  0  0  0  0  0  0  0  0  0
    0.0000    3.9750    0.0000 H   0  0  0  0  0  0  0  0  0  0  0  0
    2.4875    2.5260    0.0000 H   0  0  0  0  0  0  0  0  0  0  0  0
    0.8217    2.5260    0.0000 H   0  0  0  0  0  0  0  0  0  0  0  0
    8.4546    0.0000    0.0000 H   0  0  0  0  0  0  0  0  0  0  0  0
  1 74  1  0  0  0  0
  2  4  2  0  0  0  0
  2  5  2  0  0  0  0
  2 26  1  0  0  0  0
  2 31  1  0  0  0  0
  3 22  2  0  0  0  0
  6 15  1  0  0  0  0
  6 16  1  0  0  0  0
  6 17  1  0  0  0  0
  7 11  1  0  0  0  0
  7 22  1  0  0  0  0
  7 52  1  0  0  0  0
  8  9  1  0  0  0  0
  8 10  1  0  0  0  0
  8 14  1  0  0  0  0
  8 38  1  0  0  0  0
  9 12  1  0  0  0  0
  9 39  1  0  0  0  0
  9 40  1  0  0  0  0
 10 13  1  0  0  0  0
 10 41  1  0  0  0  0
 10 42  1  0  0  0  0
 11 12  1  0  0  0  0
 11 13  1  0  0  0  0
 11 43  1  0  0  0  0
 12 44  1  0  0  0  0
 12 45  1  0  0  0  0
 13 46  1  0  0  0  0
 13 47  1  0  0  0  0
 14 15  1  0  0  0  0
 14 48  1  0  0  0  0
 14 49  1  0  0  0  0
 15 50  1  0  0  0  0
 15 51  1  0  0  0  0
 16 18  1  0  0  0  0
 16 53  1  0  0  0  0
 16 54  1  0  0  0  0
 17 19  1  0  0  0  0
 17 55  1  0  0  0  0
 17 56  1  0  0  0  0
 18 20  1  0  0  0  0
 18 57  1  0  0  0  0
 18 58  1  0  0  0  0
 19 21  1  0  0  0  0
 19 59  1  0  0  0  0
 19 60  1  0  0  0  0
 20 21  2  0  0  0  0
 20 23  1  0  0  0  0
 21 24  1  0  0  0  0
 22 25  1  0  0  0  0
 23 26  2  0  0  0  0
 23 61  1  0  0  0  0
 24 27  2  0  0  0  0
 24 62  1  0  0  0  0
 25 28  1  0  0  0  0
 25 29  2  0  0  0  0
 26 27  1  0  0  0  0
 27 63  1  0  0  0  0
 28 30  1  0  0  0  0
 28 33  2  0  0  0  0
 29 32  1  0  0  0  0
 29 64  1  0  0  0  0
 30 34  1  0  0  0  0
 30 35  2  0  0  0  0
 31 65  1  0  0  0  0
 31 66  1  0  0  0  0
 31 67  1  0  0  0  0
 32 34  2  0  0  0  0
 32 68  1  0  0  0  0
 33 36  1  0  0  0  0
 33 69  1  0  0  0  0
 34 70  1  0  0  0  0
 35 37  1  0  0  0  0
 35 71  1  0  0  0  0
 36 37  2  0  0  0  0
 36 72  1  0  0  0  0
 37 73  1  0  0  0  0
M  END
> <PUBCHEM_COMPOUND_CID>
45265305

> <PUBCHEM_COMPOUND_CANONICALIZED>
1

> <PUBCHEM_CACTVS_COMPLEXITY>
832

> <PUBCHEM_CACTVS_HBOND_ACCEPTOR>
4

> <PUBCHEM_CACTVS_HBOND_DONOR>
2

> <PUBCHEM_CACTVS_ROTATABLE_BOND>
6

> <PUBCHEM_CACTVS_SUBSKEYS>
AAADcfB7MABEAAAAAAAAAAAAAAAAAAAAAAAwYMGABYAAAADBVAAAHgQQAAAADSjB2ASyAcPAAAqIAiFSEHDCAAAkCBAIiJkIBMgIIDKglRGEIQhglgCIiYcYiMCOkAACgAAQAAAwAAUAACAAAAAAAAAAAA==

> <PUBCHEM_IUPAC_OPENEYE_NAME>
N-[4-[2-(7-methylsulfonyl-1,2,4,5-tetrahydro-3-benzazepin-3-yl)ethyl]cyclohexyl]naphthalene-1-carboxamide;hydrochloride

> <PUBCHEM_IUPAC_CAS_NAME>
N-[4-[2-(7-methylsulfonyl-1,2,4,5-tetrahydro-3-benzazepin-3-yl)ethyl]cyclohexyl]-1-naphthalenecarboxamide;hydrochloride

> <PUBCHEM_IUPAC_NAME_MARKUP>
<I>N</I>-[4-[2-(7-methylsulfonyl-1,2,4,5-tetrahydro-3-benzazepin-3-yl)ethyl]cyclohexyl]naphthalene-1-carboxamide;hydrochloride

> <PUBCHEM_IUPAC_NAME>
N-[4-[2-(7-methylsulfonyl-1,2,4,5-tetrahydro-3-benzazepin-3-yl)ethyl]cyclohexyl]naphthalene-1-carboxamide;hydrochloride

> <PUBCHEM_IUPAC_SYSTEMATIC_NAME>
N-[4-[2-(7-methylsulfonyl-1,2,4,5-tetrahydro-3-benzazepin-3-yl)ethyl]cyclohexyl]naphthalene-1-carboxamide;hydrochloride

> <PUBCHEM_IUPAC_TRADITIONAL_NAME>
N-[4-[2-(7-mesyl-1,2,4,5-tetrahydro-3-benzazepin-3-yl)ethyl]cyclohexyl]-1-naphthamide;hydrochloride

> <PUBCHEM_IUPAC_INCHI>
InChI=1S/C30H36N2O3S.ClH/c1-36(34,35)27-14-11-23-16-19-32(20-17-25(23)21-27)18-15-22-9-12-26(13-10-22)31-30(33)29-8-4-6-24-5-2-3-7-28(24)29;/h2-8,11,14,21-22,26H,9-10,12-13,15-20H2,1H3,(H,31,33);1H

> <PUBCHEM_IUPAC_INCHIKEY>
CHRAWRBSKXRZMD-UHFFFAOYSA-N

> <PUBCHEM_EXACT_MASS>
540.2213419

> <PUBCHEM_MOLECULAR_FORMULA>
C30H37ClN2O3S

> <PUBCHEM_MOLECULAR_WEIGHT>
541.1

> <PUBCHEM_OPENEYE_CAN_SMILES>
CS(=O)(=O)C1=CC2=C(CCN(CC2)CCC3CCC(CC3)NC(=O)C4=CC=CC5=CC=CC=C54)C=C1.Cl

> <PUBCHEM_OPENEYE_ISO_SMILES>
CS(=O)(=O)C1=CC2=C(CCN(CC2)CCC3CCC(CC3)NC(=O)C4=CC=CC5=CC=CC=C54)C=C1.Cl

> <PUBCHEM_CACTVS_TPSA>
74.9

> <PUBCHEM_MONOISOTOPIC_WEIGHT>
540.2213419

> <PUBCHEM_TOTAL_CHARGE>
0

> <PUBCHEM_HEAVY_ATOM_COUNT>
37

> <PUBCHEM_ATOM_DEF_STEREO_COUNT>
0

> <PUBCHEM_ATOM_UDEF_STEREO_COUNT>
0

> <PUBCHEM_BOND_DEF_STEREO_COUNT>
0

> <PUBCHEM_BOND_UDEF_STEREO_COUNT>
0

> <PUBCHEM_ISOTOPIC_ATOM_COUNT>
0

> <PUBCHEM_COMPONENT_COUNT>
2

> <PUBCHEM_CACTVS_TAUTO_COUNT>
-1

> <PUBCHEM_COORDINATE_TYPE>
1
5
255

> <PUBCHEM_BONDANNOTATIONS>
20  21  8
20  23  8
21  24  8
23  26  8
24  27  8
25  28  8
25  29  8
26  27  8
28  30  8
28  33  8
29  32  8
30  34  8
30  35  8
32  34  8
33  36  8
35  37  8
36  37  8

$$$$
