127047680
  -OEChem-09292322372D

 57 60  0     0  0  0  0  0  0999 V2000
    8.1240   -2.8240    0.0000 S   0  0  0  0  0  0  0  0  0  0  0  0
    6.0010    4.9313    0.0000 F   0  0  0  0  0  0  0  0  0  0  0  0
    5.0010    3.9313    0.0000 F   0  0  0  0  0  0  0  0  0  0  0  0
    7.0010    3.9313    0.0000 F   0  0  0  0  0  0  0  0  0  0  0  0
    9.0745   -2.5133    0.0000 O   0  0  0  0  0  0  0  0  0  0  0  0
    7.1734   -3.1347    0.0000 O   0  0  0  0  0  0  0  0  0  0  0  0
    4.2690   -2.0687    0.0000 N   0  0  0  0  0  0  0  0  0  0  0  0
    7.8133   -1.8735    0.0000 N   0  0  0  0  0  0  0  0  0  0  0  0
    2.5369   -3.0687    0.0000 N   0  0  0  0  0  0  0  0  0  0  0  0
    6.0010   -2.0687    0.0000 N   0  0  0  0  0  0  0  0  0  0  0  0
    3.4030   -1.5687    0.0000 C   0  0  0  0  0  0  0  0  0  0  0  0
    4.2690   -3.0687    0.0000 C   0  0  0  0  0  0  0  0  0  0  0  0
    6.8671   -1.5687    0.0000 C   0  0  0  0  0  0  0  0  0  0  0  0
    8.4346   -3.7745    0.0000 C   0  0  0  0  0  0  0  0  0  0  0  0
    5.1350   -1.5687    0.0000 C   0  0  0  0  0  0  0  0  0  0  0  0
    6.8671   -0.5687    0.0000 C   0  0  0  0  0  0  0  0  0  0  0  0
    2.5369   -2.0687    0.0000 C   0  0  0  0  0  0  0  0  0  0  0  0
    3.4030   -3.5687    0.0000 C   0  0  0  0  0  0  0  0  0  0  0  0
    9.4131   -3.9807    0.0000 C   0  0  0  0  0  0  0  0  0  0  0  0
    6.0010   -0.0687    0.0000 C   0  0  0  0  0  0  0  0  0  0  0  0
    5.1350   -0.5687    0.0000 C   0  0  0  0  0  0  0  0  0  0  0  0
    8.3969   -1.0687    0.0000 C   0  0  0  0  0  0  0  0  0  0  0  0
    7.8133   -0.2640    0.0000 C   0  0  0  0  0  0  0  0  0  0  0  0
    6.0010    0.9313    0.0000 C   0  0  0  0  0  0  0  0  0  0  0  0
    9.7238   -4.9313    0.0000 C   0  0  0  0  0  0  0  0  0  0  0  0
   10.0810   -3.2364    0.0000 C   0  0  0  0  0  0  0  0  0  0  0  0
    5.1350    1.4313    0.0000 C   0  0  0  0  0  0  0  0  0  0  0  0
    6.8671    1.4313    0.0000 C   0  0  0  0  0  0  0  0  0  0  0  0
    5.1350    2.4313    0.0000 C   0  0  0  0  0  0  0  0  0  0  0  0
    6.8671    2.4313    0.0000 C   0  0  0  0  0  0  0  0  0  0  0  0
    6.0010    2.9313    0.0000 C   0  0  0  0  0  0  0  0  0  0  0  0
    6.0010    3.9313    0.0000 C   0  0  0  0  0  0  0  0  0  0  0  0
    3.8015   -1.0938    0.0000 H   0  0  0  0  0  0  0  0  0  0  0  0
    3.0044   -1.0938    0.0000 H   0  0  0  0  0  0  0  0  0  0  0  0
    4.4810   -3.6514    0.0000 H   0  0  0  0  0  0  0  0  0  0  0  0
    4.8796   -2.9611    0.0000 H   0  0  0  0  0  0  0  0  0  0  0  0
    7.8208   -3.8619    0.0000 H   0  0  0  0  0  0  0  0  0  0  0  0
    8.4140   -4.3942    0.0000 H   0  0  0  0  0  0  0  0  0  0  0  0
    2.3249   -1.4861    0.0000 H   0  0  0  0  0  0  0  0  0  0  0  0
    1.9264   -2.1764    0.0000 H   0  0  0  0  0  0  0  0  0  0  0  0
    3.0044   -4.0437    0.0000 H   0  0  0  0  0  0  0  0  0  0  0  0
    3.8015   -4.0437    0.0000 H   0  0  0  0  0  0  0  0  0  0  0  0
    8.9990   -4.4422    0.0000 H   0  0  0  0  0  0  0  0  0  0  0  0
    2.0000   -3.3787    0.0000 H   0  0  0  0  0  0  0  0  0  0  0  0
    4.5981   -0.2587    0.0000 H   0  0  0  0  0  0  0  0  0  0  0  0
    9.0169   -1.0687    0.0000 H   0  0  0  0  0  0  0  0  0  0  0  0
    8.0059    0.3253    0.0000 H   0  0  0  0  0  0  0  0  0  0  0  0
    9.1344   -5.1239    0.0000 H   0  0  0  0  0  0  0  0  0  0  0  0
    9.9164   -5.5206    0.0000 H   0  0  0  0  0  0  0  0  0  0  0  0
   10.3131   -4.7386    0.0000 H   0  0  0  0  0  0  0  0  0  0  0  0
   10.5424   -3.6505    0.0000 H   0  0  0  0  0  0  0  0  0  0  0  0
   10.4950   -2.7750    0.0000 H   0  0  0  0  0  0  0  0  0  0  0  0
    9.6195   -2.8224    0.0000 H   0  0  0  0  0  0  0  0  0  0  0  0
    4.5981    1.1213    0.0000 H   0  0  0  0  0  0  0  0  0  0  0  0
    7.4040    1.1213    0.0000 H   0  0  0  0  0  0  0  0  0  0  0  0
    4.5981    2.7413    0.0000 H   0  0  0  0  0  0  0  0  0  0  0  0
    7.4040    2.7413    0.0000 H   0  0  0  0  0  0  0  0  0  0  0  0
  1  5  2  0  0  0  0
  1  6  2  0  0  0  0
  1  8  1  0  0  0  0
  1 14  1  0  0  0  0
  2 32  1  0  0  0  0
  3 32  1  0  0  0  0
  4 32  1  0  0  0  0
  7 11  1  0  0  0  0
  7 12  1  0  0  0  0
  7 15  1  0  0  0  0
  8 13  1  0  0  0  0
  8 22  1  0  0  0  0
  9 17  1  0  0  0  0
  9 18  1  0  0  0  0
  9 44  1  0  0  0  0
 10 13  1  0  0  0  0
 10 15  2  0  0  0  0
 11 17  1  0  0  0  0
 11 33  1  0  0  0  0
 11 34  1  0  0  0  0
 12 18  1  0  0  0  0
 12 35  1  0  0  0  0
 12 36  1  0  0  0  0
 13 16  2  0  0  0  0
 14 19  1  0  0  0  0
 14 37  1  0  0  0  0
 14 38  1  0  0  0  0
 15 21  1  0  0  0  0
 16 20  1  0  0  0  0
 16 23  1  0  0  0  0
 17 39  1  0  0  0  0
 17 40  1  0  0  0  0
 18 41  1  0  0  0  0
 18 42  1  0  0  0  0
 19 25  1  0  0  0  0
 19 26  1  0  0  0  0
 19 43  1  0  0  0  0
 20 21  2  0  0  0  0
 20 24  1  0  0  0  0
 21 45  1  0  0  0  0
 22 23  2  0  0  0  0
 22 46  1  0  0  0  0
 23 47  1  0  0  0  0
 24 27  2  0  0  0  0
 24 28  1  0  0  0  0
 25 48  1  0  0  0  0
 25 49  1  0  0  0  0
 25 50  1  0  0  0  0
 26 51  1  0  0  0  0
 26 52  1  0  0  0  0
 26 53  1  0  0  0  0
 27 29  1  0  0  0  0
 27 54  1  0  0  0  0
 28 30  2  0  0  0  0
 28 55  1  0  0  0  0
 29 31  2  0  0  0  0
 29 56  1  0  0  0  0
 30 31  1  0  0  0  0
 30 57  1  0  0  0  0
 31 32  1  0  0  0  0
M  END
> <PUBCHEM_COMPOUND_CID>
127047680

> <PUBCHEM_COMPOUND_CANONICALIZED>
1

> <PUBCHEM_CACTVS_COMPLEXITY>
728

> <PUBCHEM_CACTVS_HBOND_ACCEPTOR>
8

> <PUBCHEM_CACTVS_HBOND_DONOR>
1

> <PUBCHEM_CACTVS_ROTATABLE_BOND>
5

> <PUBCHEM_CACTVS_SUBSKEYS>
AAADceB7sYBAAAAAAAAAAAAAAAAAAWAAAAA8WIAAAAAAAFgB/AAAHQQQQAAADQDFWxS/sN/IEAKgAjJnZHDCgCkxAqAJ2KA4ZJiIaOLAmZGUIAhokALIyCcQgMAOwAAAAAAAAACAAAAAAAAAAAAAAAAAAA==

> <PUBCHEM_IUPAC_OPENEYE_NAME>
1-isobutylsulfonyl-6-piperazin-1-yl-4-[4-(trifluoromethyl)phenyl]pyrrolo[2,3-b]pyridine

> <PUBCHEM_IUPAC_CAS_NAME>
1-(2-methylpropylsulfonyl)-6-(1-piperazinyl)-4-[4-(trifluoromethyl)phenyl]pyrrolo[2,3-b]pyridine

> <PUBCHEM_IUPAC_NAME_MARKUP>
1-(2-methylpropylsulfonyl)-6-piperazin-1-yl-4-[4-(trifluoromethyl)phenyl]pyrrolo[2,3-b]pyridine

> <PUBCHEM_IUPAC_NAME>
1-(2-methylpropylsulfonyl)-6-piperazin-1-yl-4-[4-(trifluoromethyl)phenyl]pyrrolo[2,3-b]pyridine

> <PUBCHEM_IUPAC_SYSTEMATIC_NAME>
1-(2-methylpropylsulfonyl)-6-piperazin-1-yl-4-[4-(trifluoromethyl)phenyl]pyrrolo[2,3-b]pyridine

> <PUBCHEM_IUPAC_TRADITIONAL_NAME>
1-isobutylsulfonyl-6-piperazino-4-[4-(trifluoromethyl)phenyl]pyrrolo[2,3-b]pyridine

> <PUBCHEM_IUPAC_INCHI>
InChI=1S/C22H25F3N4O2S/c1-15(2)14-32(30,31)29-10-7-18-19(16-3-5-17(6-4-16)22(23,24)25)13-20(27-21(18)29)28-11-8-26-9-12-28/h3-7,10,13,15,26H,8-9,11-12,14H2,1-2H3

> <PUBCHEM_IUPAC_INCHIKEY>
CRZWHAXESOORIJ-UHFFFAOYSA-N

> <PUBCHEM_XLOGP3_AA>
4.6

> <PUBCHEM_EXACT_MASS>
466.16503171

> <PUBCHEM_MOLECULAR_FORMULA>
C22H25F3N4O2S

> <PUBCHEM_MOLECULAR_WEIGHT>
466.5

> <PUBCHEM_OPENEYE_CAN_SMILES>
CC(C)CS(=O)(=O)N1C=CC2=C1N=C(C=C2C3=CC=C(C=C3)C(F)(F)F)N4CCNCC4

> <PUBCHEM_OPENEYE_ISO_SMILES>
CC(C)CS(=O)(=O)N1C=CC2=C1N=C(C=C2C3=CC=C(C=C3)C(F)(F)F)N4CCNCC4

> <PUBCHEM_CACTVS_TPSA>
75.6

> <PUBCHEM_MONOISOTOPIC_WEIGHT>
466.16503171

> <PUBCHEM_TOTAL_CHARGE>
0

> <PUBCHEM_HEAVY_ATOM_COUNT>
32

> <PUBCHEM_ATOM_DEF_STEREO_COUNT>
0

> <PUBCHEM_ATOM_UDEF_STEREO_COUNT>
0

> <PUBCHEM_BOND_DEF_STEREO_COUNT>
0

> <PUBCHEM_BOND_UDEF_STEREO_COUNT>
0

> <PUBCHEM_ISOTOPIC_ATOM_COUNT>
0

> <PUBCHEM_COMPONENT_COUNT>
1

> <PUBCHEM_CACTVS_TAUTO_COUNT>
-1

> <PUBCHEM_COORDINATE_TYPE>
1
5
255

> <PUBCHEM_BONDANNOTATIONS>
10  13  8
10  15  8
13  16  8
15  21  8
16  20  8
16  23  8
20  21  8
22  23  8
24  27  8
24  28  8
27  29  8
28  30  8
29  31  8
30  31  8
8  13  8
8  22  8

$$$$
