137637481
  -OEChem-09292322392D

 63 66  0     1  0  0  0  0  0999 V2000
    4.8714   -2.4395    0.0000 O   0  0  0  0  0  0  0  0  0  0  0  0
    2.6166    1.0626    0.0000 O   0  0  0  0  0  0  0  0  0  0  0  0
    4.6660   -4.1851    0.0000 N   0  0  0  0  0  0  0  0  0  0  0  0
    3.3073   -3.2412    0.0000 N   0  0  0  0  0  0  0  0  0  0  0  0
    6.3981   -6.1851    0.0000 N   0  0  0  0  0  0  0  0  0  0  0  0
    5.5321   -5.6851    0.0000 C   0  0  1  0  0  0  0  0  0  0  0  0
    5.5321   -4.6851    0.0000 C   0  0  0  0  0  0  0  0  0  0  0  0
    3.8000   -4.6851    0.0000 C   0  0  0  0  0  0  0  0  0  0  0  0
    4.6660   -6.1851    0.0000 C   0  0  0  0  0  0  0  0  0  0  0  0
    3.8000   -5.6851    0.0000 C   0  0  0  0  0  0  0  0  0  0  0  0
    2.9061   -4.1504    0.0000 C   0  0  0  0  0  0  0  0  0  0  0  0
    4.3009   -3.2608    0.0000 C   0  0  0  0  0  0  0  0  0  0  0  0
    2.7696   -2.3981    0.0000 C   0  0  0  0  0  0  0  0  0  0  0  0
    2.9061   -6.2198    0.0000 C   0  0  0  0  0  0  0  0  0  0  0  0
    2.0000   -4.6643    0.0000 C   0  0  0  0  0  0  0  0  0  0  0  0
    3.2308   -1.5108    0.0000 C   0  0  0  0  0  0  0  0  0  0  0  0
    2.0000   -5.7059    0.0000 C   0  0  0  0  0  0  0  0  0  0  0  0
    2.6931   -0.6677    0.0000 C   0  0  0  0  0  0  0  0  0  0  0  0
    6.3981   -7.1851    0.0000 C   0  0  0  0  0  0  0  0  0  0  0  0
    3.1544    0.2195    0.0000 C   0  0  0  0  0  0  0  0  0  0  0  0
    3.0779    1.9499    0.0000 C   0  0  0  0  0  0  0  0  0  0  0  0
    2.5401    2.7930    0.0000 C   0  0  0  0  0  0  0  0  0  0  0  0
    3.0014    3.6802    0.0000 C   0  0  0  0  0  0  0  0  0  0  0  0
    2.4637    4.5233    0.0000 C   0  0  0  0  0  0  0  0  0  0  0  0
    2.9250    5.4106    0.0000 C   0  0  0  0  0  0  0  0  0  0  0  0
    2.3872    6.2537    0.0000 C   0  0  0  0  0  0  0  0  0  0  0  0
    3.9240    5.4547    0.0000 C   0  0  0  0  0  0  0  0  0  0  0  0
    2.8485    7.1410    0.0000 C   0  0  0  0  0  0  0  0  0  0  0  0
    4.3853    6.3420    0.0000 C   0  0  0  0  0  0  0  0  0  0  0  0
    3.8475    7.1851    0.0000 C   0  0  0  0  0  0  0  0  0  0  0  0
    5.5321   -6.3051    0.0000 H   0  0  0  0  0  0  0  0  0  0  0  0
    6.1426   -4.7928    0.0000 H   0  0  0  0  0  0  0  0  0  0  0  0
    5.7441   -4.1025    0.0000 H   0  0  0  0  0  0  0  0  0  0  0  0
    4.2675   -6.6600    0.0000 H   0  0  0  0  0  0  0  0  0  0  0  0
    5.0646   -6.6600    0.0000 H   0  0  0  0  0  0  0  0  0  0  0  0
    2.2775   -2.0209    0.0000 H   0  0  0  0  0  0  0  0  0  0  0  0
    2.3127   -2.8172    0.0000 H   0  0  0  0  0  0  0  0  0  0  0  0
    6.9350   -5.8751    0.0000 H   0  0  0  0  0  0  0  0  0  0  0  0
    2.9132   -6.8397    0.0000 H   0  0  0  0  0  0  0  0  0  0  0  0
    1.4643   -4.3522    0.0000 H   0  0  0  0  0  0  0  0  0  0  0  0
    3.7229   -1.8880    0.0000 H   0  0  0  0  0  0  0  0  0  0  0  0
    3.6877   -1.0918    0.0000 H   0  0  0  0  0  0  0  0  0  0  0  0
    1.4643   -6.0180    0.0000 H   0  0  0  0  0  0  0  0  0  0  0  0
    2.2010   -0.2906    0.0000 H   0  0  0  0  0  0  0  0  0  0  0  0
    2.2362   -1.0869    0.0000 H   0  0  0  0  0  0  0  0  0  0  0  0
    5.7781   -7.1851    0.0000 H   0  0  0  0  0  0  0  0  0  0  0  0
    6.3981   -7.8051    0.0000 H   0  0  0  0  0  0  0  0  0  0  0  0
    7.0181   -7.1851    0.0000 H   0  0  0  0  0  0  0  0  0  0  0  0
    3.6464   -0.1577    0.0000 H   0  0  0  0  0  0  0  0  0  0  0  0
    3.6112    0.6386    0.0000 H   0  0  0  0  0  0  0  0  0  0  0  0
    3.5700    1.5727    0.0000 H   0  0  0  0  0  0  0  0  0  0  0  0
    3.5348    2.3690    0.0000 H   0  0  0  0  0  0  0  0  0  0  0  0
    2.0481    3.1702    0.0000 H   0  0  0  0  0  0  0  0  0  0  0  0
    2.0832    2.3739    0.0000 H   0  0  0  0  0  0  0  0  0  0  0  0
    3.4935    3.3031    0.0000 H   0  0  0  0  0  0  0  0  0  0  0  0
    3.4583    4.0993    0.0000 H   0  0  0  0  0  0  0  0  0  0  0  0
    1.9716    4.9005    0.0000 H   0  0  0  0  0  0  0  0  0  0  0  0
    2.0068    4.1042    0.0000 H   0  0  0  0  0  0  0  0  0  0  0  0
    1.7678    6.2263    0.0000 H   0  0  0  0  0  0  0  0  0  0  0  0
    4.2574    4.9320    0.0000 H   0  0  0  0  0  0  0  0  0  0  0  0
    2.5151    7.6637    0.0000 H   0  0  0  0  0  0  0  0  0  0  0  0
    5.0047    6.3694    0.0000 H   0  0  0  0  0  0  0  0  0  0  0  0
    4.1335    7.7352    0.0000 H   0  0  0  0  0  0  0  0  0  0  0  0
  1 12  2  0  0  0  0
  2 20  1  0  0  0  0
  2 21  1  0  0  0  0
  3  7  1  0  0  0  0
  3  8  1  0  0  0  0
  3 12  1  0  0  0  0
  4 11  1  0  0  0  0
  4 12  1  0  0  0  0
  4 13  1  0  0  0  0
  6  5  1  6  0  0  0
  5 19  1  0  0  0  0
  5 38  1  0  0  0  0
  6  7  1  0  0  0  0
  6  9  1  0  0  0  0
  6 31  1  0  0  0  0
  7 32  1  0  0  0  0
  7 33  1  0  0  0  0
  8 10  2  0  0  0  0
  8 11  1  0  0  0  0
  9 10  1  0  0  0  0
  9 34  1  0  0  0  0
  9 35  1  0  0  0  0
 10 14  1  0  0  0  0
 11 15  2  0  0  0  0
 13 16  1  0  0  0  0
 13 36  1  0  0  0  0
 13 37  1  0  0  0  0
 14 17  2  0  0  0  0
 14 39  1  0  0  0  0
 15 17  1  0  0  0  0
 15 40  1  0  0  0  0
 16 18  1  0  0  0  0
 16 41  1  0  0  0  0
 16 42  1  0  0  0  0
 17 43  1  0  0  0  0
 18 20  1  0  0  0  0
 18 44  1  0  0  0  0
 18 45  1  0  0  0  0
 19 46  1  0  0  0  0
 19 47  1  0  0  0  0
 19 48  1  0  0  0  0
 20 49  1  0  0  0  0
 20 50  1  0  0  0  0
 21 22  1  0  0  0  0
 21 51  1  0  0  0  0
 21 52  1  0  0  0  0
 22 23  1  0  0  0  0
 22 53  1  0  0  0  0
 22 54  1  0  0  0  0
 23 24  1  0  0  0  0
 23 55  1  0  0  0  0
 23 56  1  0  0  0  0
 24 25  1  0  0  0  0
 24 57  1  0  0  0  0
 24 58  1  0  0  0  0
 25 26  2  0  0  0  0
 25 27  1  0  0  0  0
 26 28  1  0  0  0  0
 26 59  1  0  0  0  0
 27 29  2  0  0  0  0
 27 60  1  0  0  0  0
 28 30  2  0  0  0  0
 28 61  1  0  0  0  0
 29 30  1  0  0  0  0
 29 62  1  0  0  0  0
 30 63  1  0  0  0  0
M  END
> <PUBCHEM_COMPOUND_CID>
137637481

> <PUBCHEM_COMPOUND_CANONICALIZED>
1

> <PUBCHEM_CACTVS_COMPLEXITY>
537

> <PUBCHEM_CACTVS_HBOND_ACCEPTOR>
3

> <PUBCHEM_CACTVS_HBOND_DONOR>
1

> <PUBCHEM_CACTVS_ROTATABLE_BOND>
11

> <PUBCHEM_CACTVS_SUBSKEYS>
AAADcfB7MAAAAAAAAAAAAAAAAAAAAWAAAAA8YIAAAAAAAFixQAAAHgAQAAAADCjhmAYzwIPABACIAiRCUACCAAAhAgAIiIAIdIiIYCLAkZGWIAhslgLIyCewwLAOAAAAQAACACAAAACAAAQAQAAAAAAAAA==

> <PUBCHEM_IUPAC_OPENEYE_NAME>
(10R)-10-(methylamino)-3-[4-(4-phenylbutoxy)butyl]-1,3-diazatricyclo[6.3.1.04,12]dodeca-4,6,8(12)-trien-2-one

> <PUBCHEM_IUPAC_CAS_NAME>
(10R)-10-(methylamino)-3-[4-(4-phenylbutoxy)butyl]-1,3-diazatricyclo[6.3.1.04,12]dodeca-4,6,8(12)-trien-2-one

> <PUBCHEM_IUPAC_NAME_MARKUP>
(10<I>R</I>)-10-(methylamino)-3-[4-(4-phenylbutoxy)butyl]-1,3-diazatricyclo[6.3.1.0<SUP>4,12</SUP>]dodeca-4,6,8(12)-trien-2-one

> <PUBCHEM_IUPAC_NAME>
(10R)-10-(methylamino)-3-[4-(4-phenylbutoxy)butyl]-1,3-diazatricyclo[6.3.1.04,12]dodeca-4,6,8(12)-trien-2-one

> <PUBCHEM_IUPAC_SYSTEMATIC_NAME>
(10R)-10-(methylamino)-3-[4-(4-phenylbutoxy)butyl]-1,3-diazatricyclo[6.3.1.04,12]dodeca-4,6,8(12)-trien-2-one

> <PUBCHEM_IUPAC_TRADITIONAL_NAME>
(10R)-10-(methylamino)-3-[4-(4-phenylbutoxy)butyl]-1,3-diazatricyclo[6.3.1.04,12]dodeca-4,6,8(12)-trien-2-one

> <PUBCHEM_IUPAC_INCHI>
InChI=1S/C25H33N3O2/c1-26-22-18-21-13-9-14-23-24(21)28(19-22)25(29)27(23)15-6-8-17-30-16-7-5-12-20-10-3-2-4-11-20/h2-4,9-11,13-14,22,26H,5-8,12,15-19H2,1H3/t22-/m1/s1

> <PUBCHEM_IUPAC_INCHIKEY>
WALQYBLEMBEYFX-JOCHJYFZSA-N

> <PUBCHEM_XLOGP3_AA>
3.8

> <PUBCHEM_EXACT_MASS>
407.25727730

> <PUBCHEM_MOLECULAR_FORMULA>
C25H33N3O2

> <PUBCHEM_MOLECULAR_WEIGHT>
407.5

> <PUBCHEM_OPENEYE_CAN_SMILES>
CNC1CC2=C3C(=CC=C2)N(C(=O)N3C1)CCCCOCCCCC4=CC=CC=C4

> <PUBCHEM_OPENEYE_ISO_SMILES>
CN[C@@H]1CC2=C3C(=CC=C2)N(C(=O)N3C1)CCCCOCCCCC4=CC=CC=C4

> <PUBCHEM_CACTVS_TPSA>
44.8

> <PUBCHEM_MONOISOTOPIC_WEIGHT>
407.25727730

> <PUBCHEM_TOTAL_CHARGE>
0

> <PUBCHEM_HEAVY_ATOM_COUNT>
30

> <PUBCHEM_ATOM_DEF_STEREO_COUNT>
1

> <PUBCHEM_ATOM_UDEF_STEREO_COUNT>
0

> <PUBCHEM_BOND_DEF_STEREO_COUNT>
0

> <PUBCHEM_BOND_UDEF_STEREO_COUNT>
0

> <PUBCHEM_ISOTOPIC_ATOM_COUNT>
0

> <PUBCHEM_COMPONENT_COUNT>
1

> <PUBCHEM_CACTVS_TAUTO_COUNT>
-1

> <PUBCHEM_COORDINATE_TYPE>
1
5
255

> <PUBCHEM_BONDANNOTATIONS>
10  14  8
11  15  8
14  17  8
15  17  8
25  26  8
25  27  8
26  28  8
27  29  8
28  30  8
29  30  8
3  12  8
3  8  8
4  11  8
4  12  8
6  5  6
8  10  8
8  11  8

$$$$
