57533
  -OEChem-09292322102D

 39 41  0     1  0  0  0  0  0999 V2000
    2.9061    0.8663    0.0000 O   0  0  0  0  0  0  0  0  0  0  0  0
    5.5442    3.4008    0.0000 O   0  0  0  0  0  0  0  0  0  0  0  0
    2.9061   -1.2031    0.0000 N   0  0  3  0  0  0  0  0  0  0  0  0
    3.8000   -0.6684    0.0000 C   0  0  1  0  0  0  0  0  0  0  0  0
    3.8000    0.3316    0.0000 C   0  0  1  0  0  0  0  0  0  0  0  0
    4.6660   -1.1684    0.0000 C   0  0  0  0  0  0  0  0  0  0  0  0
    5.5321   -0.6684    0.0000 C   0  0  0  0  0  0  0  0  0  0  0  0
    4.6660    0.8316    0.0000 C   0  0  0  0  0  0  0  0  0  0  0  0
    2.0000   -0.6892    0.0000 C   0  0  0  0  0  0  0  0  0  0  0  0
    5.5321    0.3316    0.0000 C   0  0  0  0  0  0  0  0  0  0  0  0
    2.0000    0.3524    0.0000 C   0  0  0  0  0  0  0  0  0  0  0  0
    2.9176   -2.2030    0.0000 C   0  0  0  0  0  0  0  0  0  0  0  0
    4.6500    1.8731    0.0000 C   0  0  0  0  0  0  0  0  0  0  0  0
    2.0574   -2.7130    0.0000 C   0  0  0  0  0  0  0  0  0  0  0  0
    6.4421    0.8384    0.0000 C   0  0  0  0  0  0  0  0  0  0  0  0
    5.5480    2.4008    0.0000 C   0  0  0  0  0  0  0  0  0  0  0  0
    6.4501    1.8800    0.0000 C   0  0  0  0  0  0  0  0  0  0  0  0
    2.0690   -3.7129    0.0000 C   0  0  0  0  0  0  0  0  0  0  0  0
    3.8066   -1.5184    0.0000 H   0  0  0  0  0  0  0  0  0  0  0  0
    3.8066    1.1816    0.0000 H   0  0  0  0  0  0  0  0  0  0  0  0
    4.2675   -1.6434    0.0000 H   0  0  0  0  0  0  0  0  0  0  0  0
    5.0646   -1.6434    0.0000 H   0  0  0  0  0  0  0  0  0  0  0  0
    5.7441   -1.2510    0.0000 H   0  0  0  0  0  0  0  0  0  0  0  0
    6.1426   -0.5607    0.0000 H   0  0  0  0  0  0  0  0  0  0  0  0
    1.3891   -0.5831    0.0000 H   0  0  0  0  0  0  0  0  0  0  0  0
    1.7909   -1.2729    0.0000 H   0  0  0  0  0  0  0  0  0  0  0  0
    3.1364   -2.7831    0.0000 H   0  0  0  0  0  0  0  0  0  0  0  0
    3.5269   -2.0883    0.0000 H   0  0  0  0  0  0  0  0  0  0  0  0
    1.7909    0.9361    0.0000 H   0  0  0  0  0  0  0  0  0  0  0  0
    1.3891    0.2463    0.0000 H   0  0  0  0  0  0  0  0  0  0  0  0
    4.1095    2.1769    0.0000 H   0  0  0  0  0  0  0  0  0  0  0  0
    1.8387   -2.1329    0.0000 H   0  0  0  0  0  0  0  0  0  0  0  0
    1.4482   -2.8277    0.0000 H   0  0  0  0  0  0  0  0  0  0  0  0
    6.9754    0.5223    0.0000 H   0  0  0  0  0  0  0  0  0  0  0  0
    6.9882    2.1880    0.0000 H   0  0  0  0  0  0  0  0  0  0  0  0
    1.4490   -3.7201    0.0000 H   0  0  0  0  0  0  0  0  0  0  0  0
    2.0762   -4.3329    0.0000 H   0  0  0  0  0  0  0  0  0  0  0  0
    2.6890   -3.7058    0.0000 H   0  0  0  0  0  0  0  0  0  0  0  0
    6.0799    3.7129    0.0000 H   0  0  0  0  0  0  0  0  0  0  0  0
  1  5  1  0  0  0  0
  1 11  1  0  0  0  0
  2 16  1  0  0  0  0
  2 39  1  0  0  0  0
  3  4  1  0  0  0  0
  3  9  1  0  0  0  0
  3 12  1  0  0  0  0
  4  5  1  0  0  0  0
  4  6  1  0  0  0  0
  4 19  1  6  0  0  0
  5  8  1  0  0  0  0
  5 20  1  1  0  0  0
  6  7  1  0  0  0  0
  6 21  1  0  0  0  0
  6 22  1  0  0  0  0
  7 10  1  0  0  0  0
  7 23  1  0  0  0  0
  7 24  1  0  0  0  0
  8 10  2  0  0  0  0
  8 13  1  0  0  0  0
  9 11  1  0  0  0  0
  9 25  1  0  0  0  0
  9 26  1  0  0  0  0
 10 15  1  0  0  0  0
 11 29  1  0  0  0  0
 11 30  1  0  0  0  0
 12 14  1  0  0  0  0
 12 27  1  0  0  0  0
 12 28  1  0  0  0  0
 13 16  2  0  0  0  0
 13 31  1  0  0  0  0
 14 18  1  0  0  0  0
 14 32  1  0  0  0  0
 14 33  1  0  0  0  0
 15 17  2  0  0  0  0
 15 34  1  0  0  0  0
 16 17  1  0  0  0  0
 17 35  1  0  0  0  0
 18 36  1  0  0  0  0
 18 37  1  0  0  0  0
 18 38  1  0  0  0  0
M  END
> <PUBCHEM_COMPOUND_CID>
57533

> <PUBCHEM_COMPOUND_CANONICALIZED>
1

> <PUBCHEM_CACTVS_COMPLEXITY>
284

> <PUBCHEM_CACTVS_HBOND_ACCEPTOR>
3

> <PUBCHEM_CACTVS_HBOND_DONOR>
1

> <PUBCHEM_CACTVS_ROTATABLE_BOND>
2

> <PUBCHEM_CACTVS_SUBSKEYS>
AAADceByMAAAAAAAAAAAAAAAAAAAAAAAAAA8YIAAAAAAAADxAAAAHgAACAAADDzhmAYyBoMABgCAAiBCAAACAAAgIAAIiAAOCIgKJiKCsRuHcAAkwBGYuAfQ0LMOoAABAAAQAABQAAKAADAgAAAAAAAAAA==

> <PUBCHEM_IUPAC_OPENEYE_NAME>
(4aR,10bR)-4-propyl-2,3,4a,5,6,10b-hexahydrobenzo[h][1,4]benzoxazin-9-ol

> <PUBCHEM_IUPAC_CAS_NAME>
(4aR,10bR)-4-propyl-2,3,4a,5,6,10b-hexahydrobenzo[h][1,4]benzoxazin-9-ol

> <PUBCHEM_IUPAC_NAME_MARKUP>
(4<I>a</I><I>R</I>,10<I>b</I><I>R</I>)-4-propyl-2,3,4<I>a</I>,5,6,10<I>b</I>-hexahydrobenzo[h][1,4]benzoxazin-9-ol

> <PUBCHEM_IUPAC_NAME>
(4aR,10bR)-4-propyl-2,3,4a,5,6,10b-hexahydrobenzo[h][1,4]benzoxazin-9-ol

> <PUBCHEM_IUPAC_SYSTEMATIC_NAME>
(4aR,10bR)-4-propyl-2,3,4a,5,6,10b-hexahydrobenzo[h][1,4]benzoxazin-9-ol

> <PUBCHEM_IUPAC_TRADITIONAL_NAME>
(4aR,10bR)-4-propyl-2,3,4a,5,6,10b-hexahydrobenzo[h][1,4]benzoxazin-9-ol

> <PUBCHEM_IUPAC_INCHI>
InChI=1S/C15H21NO2/c1-2-7-16-8-9-18-15-13-10-12(17)5-3-11(13)4-6-14(15)16/h3,5,10,14-15,17H,2,4,6-9H2,1H3/t14-,15-/m1/s1

> <PUBCHEM_IUPAC_INCHIKEY>
JCSREICEMHWFAY-HUUCEWRRSA-N

> <PUBCHEM_XLOGP3>
2.4

> <PUBCHEM_EXACT_MASS>
247.157228913

> <PUBCHEM_MOLECULAR_FORMULA>
C15H21NO2

> <PUBCHEM_MOLECULAR_WEIGHT>
247.33

> <PUBCHEM_OPENEYE_CAN_SMILES>
CCCN1CCOC2C1CCC3=C2C=C(C=C3)O

> <PUBCHEM_OPENEYE_ISO_SMILES>
CCCN1CCO[C@H]2[C@H]1CCC3=C2C=C(C=C3)O

> <PUBCHEM_CACTVS_TPSA>
32.7

> <PUBCHEM_MONOISOTOPIC_WEIGHT>
247.157228913

> <PUBCHEM_TOTAL_CHARGE>
0

> <PUBCHEM_HEAVY_ATOM_COUNT>
18

> <PUBCHEM_ATOM_DEF_STEREO_COUNT>
2

> <PUBCHEM_ATOM_UDEF_STEREO_COUNT>
0

> <PUBCHEM_BOND_DEF_STEREO_COUNT>
0

> <PUBCHEM_BOND_UDEF_STEREO_COUNT>
0

> <PUBCHEM_ISOTOPIC_ATOM_COUNT>
0

> <PUBCHEM_COMPONENT_COUNT>
1

> <PUBCHEM_CACTVS_TAUTO_COUNT>
3

> <PUBCHEM_COORDINATE_TYPE>
1
5
255

> <PUBCHEM_BONDANNOTATIONS>
10  15  8
13  16  8
15  17  8
16  17  8
4  19  6
5  20  5
8  10  8
8  13  8

$$$$
