10092041
  -OEChem-09292322032D

 63 66  0     1  0  0  0  0  0999 V2000
    2.8660    2.0298    0.0000 O   0  0  0  0  0  0  0  0  0  0  0  0
   11.5192   -1.0647    0.0000 O   0  0  0  0  0  0  0  0  0  0  0  0
    8.0553   -1.0246    0.0000 N   0  0  0  0  0  0  0  0  0  0  0  0
    9.7757   -2.0446    0.0000 N   0  0  0  0  0  0  0  0  0  0  0  0
    6.3580    1.9952    0.0000 C   0  0  3  0  0  0  0  0  0  0  0  0
    6.3465    0.9952    0.0000 C   0  0  0  0  0  0  0  0  0  0  0  0
    7.2641    2.5090    0.0000 C   0  0  0  0  0  0  0  0  0  0  0  0
    7.2067    0.4853    0.0000 C   0  0  0  0  0  0  0  0  0  0  0  0
    5.4641    2.5298    0.0000 C   0  0  0  0  0  0  0  0  0  0  0  0
    7.2641    3.5507    0.0000 C   0  0  0  0  0  0  0  0  0  0  0  0
    7.1951   -0.5147    0.0000 C   0  0  0  0  0  0  0  0  0  0  0  0
    6.3580    4.0645    0.0000 C   0  0  0  0  0  0  0  0  0  0  0  0
    5.4641    3.5298    0.0000 C   0  0  0  0  0  0  0  0  0  0  0  0
    8.0437   -2.0246    0.0000 C   0  0  0  0  0  0  0  0  0  0  0  0
    8.9270   -0.5347    0.0000 C   0  0  0  0  0  0  0  0  0  0  0  0
    8.9039   -2.5346    0.0000 C   0  0  0  0  0  0  0  0  0  0  0  0
    9.7872   -1.0447    0.0000 C   0  0  0  0  0  0  0  0  0  0  0  0
    4.5981    2.0298    0.0000 C   0  0  0  0  0  0  0  0  0  0  0  0
    4.5981    4.0298    0.0000 C   0  0  0  0  0  0  0  0  0  0  0  0
   10.6358   -2.5546    0.0000 C   0  0  0  0  0  0  0  0  0  0  0  0
    3.7320    2.5298    0.0000 C   0  0  0  0  0  0  0  0  0  0  0  0
    3.7320    3.5298    0.0000 C   0  0  0  0  0  0  0  0  0  0  0  0
   11.5076   -2.0646    0.0000 C   0  0  0  0  0  0  0  0  0  0  0  0
   10.6243   -3.5545    0.0000 C   0  0  0  0  0  0  0  0  0  0  0  0
   12.3678   -2.5746    0.0000 C   0  0  0  0  0  0  0  0  0  0  0  0
   11.4845   -4.0645    0.0000 C   0  0  0  0  0  0  0  0  0  0  0  0
   12.3562   -3.5746    0.0000 C   0  0  0  0  0  0  0  0  0  0  0  0
    2.0000    2.5298    0.0000 C   0  0  0  0  0  0  0  0  0  0  0  0
   12.3909   -0.5748    0.0000 C   0  0  0  0  0  0  0  0  0  0  0  0
    6.8920    1.6800    0.0000 H   0  0  0  0  0  0  0  0  0  0  0  0
    5.7372    1.1100    0.0000 H   0  0  0  0  0  0  0  0  0  0  0  0
    6.1277    0.4151    0.0000 H   0  0  0  0  0  0  0  0  0  0  0  0
    7.4732    1.9253    0.0000 H   0  0  0  0  0  0  0  0  0  0  0  0
    7.8750    2.6151    0.0000 H   0  0  0  0  0  0  0  0  0  0  0  0
    7.8160    0.3706    0.0000 H   0  0  0  0  0  0  0  0  0  0  0  0
    7.4254    1.0654    0.0000 H   0  0  0  0  0  0  0  0  0  0  0  0
    7.8750    3.4446    0.0000 H   0  0  0  0  0  0  0  0  0  0  0  0
    7.4732    4.1344    0.0000 H   0  0  0  0  0  0  0  0  0  0  0  0
    6.5858   -0.4000    0.0000 H   0  0  0  0  0  0  0  0  0  0  0  0
    6.9763   -1.0948    0.0000 H   0  0  0  0  0  0  0  0  0  0  0  0
    6.7517    4.5435    0.0000 H   0  0  0  0  0  0  0  0  0  0  0  0
    5.9534    4.5343    0.0000 H   0  0  0  0  0  0  0  0  0  0  0  0
    7.4344   -1.9099    0.0000 H   0  0  0  0  0  0  0  0  0  0  0  0
    7.8250   -2.6047    0.0000 H   0  0  0  0  0  0  0  0  0  0  0  0
    9.3310   -0.0644    0.0000 H   0  0  0  0  0  0  0  0  0  0  0  0
    8.5340   -0.0552    0.0000 H   0  0  0  0  0  0  0  0  0  0  0  0
    8.4999   -3.0049    0.0000 H   0  0  0  0  0  0  0  0  0  0  0  0
    9.2969   -3.0141    0.0000 H   0  0  0  0  0  0  0  0  0  0  0  0
   10.3965   -1.1594    0.0000 H   0  0  0  0  0  0  0  0  0  0  0  0
   10.0060   -0.4646    0.0000 H   0  0  0  0  0  0  0  0  0  0  0  0
    4.5981    1.4098    0.0000 H   0  0  0  0  0  0  0  0  0  0  0  0
    4.5981    4.6498    0.0000 H   0  0  0  0  0  0  0  0  0  0  0  0
    3.1951    3.8398    0.0000 H   0  0  0  0  0  0  0  0  0  0  0  0
   10.0838   -3.8583    0.0000 H   0  0  0  0  0  0  0  0  0  0  0  0
   12.9083   -2.2708    0.0000 H   0  0  0  0  0  0  0  0  0  0  0  0
   11.4773   -4.6845    0.0000 H   0  0  0  0  0  0  0  0  0  0  0  0
   12.8895   -3.8907    0.0000 H   0  0  0  0  0  0  0  0  0  0  0  0
    2.3100    3.0668    0.0000 H   0  0  0  0  0  0  0  0  0  0  0  0
    1.4631    2.8398    0.0000 H   0  0  0  0  0  0  0  0  0  0  0  0
    1.6900    1.9929    0.0000 H   0  0  0  0  0  0  0  0  0  0  0  0
   12.6947   -1.1152    0.0000 H   0  0  0  0  0  0  0  0  0  0  0  0
   12.9314   -0.2710    0.0000 H   0  0  0  0  0  0  0  0  0  0  0  0
   12.0871   -0.0343    0.0000 H   0  0  0  0  0  0  0  0  0  0  0  0
  1 21  1  0  0  0  0
  1 28  1  0  0  0  0
  2 23  1  0  0  0  0
  2 29  1  0  0  0  0
  3 11  1  0  0  0  0
  3 14  1  0  0  0  0
  3 15  1  0  0  0  0
  4 16  1  0  0  0  0
  4 17  1  0  0  0  0
  4 20  1  0  0  0  0
  5  6  1  0  0  0  0
  5  7  1  0  0  0  0
  5  9  1  0  0  0  0
  5 30  1  0  0  0  0
  6  8  1  0  0  0  0
  6 31  1  0  0  0  0
  6 32  1  0  0  0  0
  7 10  1  0  0  0  0
  7 33  1  0  0  0  0
  7 34  1  0  0  0  0
  8 11  1  0  0  0  0
  8 35  1  0  0  0  0
  8 36  1  0  0  0  0
  9 13  2  0  0  0  0
  9 18  1  0  0  0  0
 10 12  1  0  0  0  0
 10 37  1  0  0  0  0
 10 38  1  0  0  0  0
 11 39  1  0  0  0  0
 11 40  1  0  0  0  0
 12 13  1  0  0  0  0
 12 41  1  0  0  0  0
 12 42  1  0  0  0  0
 13 19  1  0  0  0  0
 14 16  1  0  0  0  0
 14 43  1  0  0  0  0
 14 44  1  0  0  0  0
 15 17  1  0  0  0  0
 15 45  1  0  0  0  0
 15 46  1  0  0  0  0
 16 47  1  0  0  0  0
 16 48  1  0  0  0  0
 17 49  1  0  0  0  0
 17 50  1  0  0  0  0
 18 21  2  0  0  0  0
 18 51  1  0  0  0  0
 19 22  2  0  0  0  0
 19 52  1  0  0  0  0
 20 23  1  0  0  0  0
 20 24  2  0  0  0  0
 21 22  1  0  0  0  0
 22 53  1  0  0  0  0
 23 25  2  0  0  0  0
 24 26  1  0  0  0  0
 24 54  1  0  0  0  0
 25 27  1  0  0  0  0
 25 55  1  0  0  0  0
 26 27  2  0  0  0  0
 26 56  1  0  0  0  0
 27 57  1  0  0  0  0
 28 58  1  0  0  0  0
 28 59  1  0  0  0  0
 28 60  1  0  0  0  0
 29 61  1  0  0  0  0
 29 62  1  0  0  0  0
 29 63  1  0  0  0  0
M  END
> <PUBCHEM_COMPOUND_CID>
10092041

> <PUBCHEM_COMPOUND_CANONICALIZED>
1

> <PUBCHEM_CACTVS_COMPLEXITY>
479

> <PUBCHEM_CACTVS_HBOND_ACCEPTOR>
4

> <PUBCHEM_CACTVS_HBOND_DONOR>
0

> <PUBCHEM_CACTVS_ROTATABLE_BOND>
7

> <PUBCHEM_CACTVS_SUBSKEYS>
AAADcfB7MAAAAAAAAAAAAAAAAAAAAAAAAAA8YMEAAAAAAADBQAAAHgAAAAAADQzBmAYyxoMABACAAiRCQACCCAAhIgAIiAAPbIgOZiLEsZuVMChkwBHY6AeQwPAOoAABAAAQEABAAAYAACAgAAAAAAAAAA==

> <PUBCHEM_IUPAC_OPENEYE_NAME>
1-(2-methoxyphenyl)-4-[3-(7-methoxytetralin-1-yl)propyl]piperazine

> <PUBCHEM_IUPAC_CAS_NAME>
1-(2-methoxyphenyl)-4-[3-(7-methoxy-1,2,3,4-tetrahydronaphthalen-1-yl)propyl]piperazine

> <PUBCHEM_IUPAC_NAME_MARKUP>
1-(2-methoxyphenyl)-4-[3-(7-methoxy-1,2,3,4-tetrahydronaphthalen-1-yl)propyl]piperazine

> <PUBCHEM_IUPAC_NAME>
1-(2-methoxyphenyl)-4-[3-(7-methoxy-1,2,3,4-tetrahydronaphthalen-1-yl)propyl]piperazine

> <PUBCHEM_IUPAC_SYSTEMATIC_NAME>
1-(2-methoxyphenyl)-4-[3-(7-methoxy-1,2,3,4-tetrahydronaphthalen-1-yl)propyl]piperazine

> <PUBCHEM_IUPAC_TRADITIONAL_NAME>
1-(2-methoxyphenyl)-4-[3-(7-methoxytetralin-1-yl)propyl]piperazine

> <PUBCHEM_IUPAC_INCHI>
InChI=1S/C25H34N2O2/c1-28-22-13-12-21-8-5-7-20(23(21)19-22)9-6-14-26-15-17-27(18-16-26)24-10-3-4-11-25(24)29-2/h3-4,10-13,19-20H,5-9,14-18H2,1-2H3

> <PUBCHEM_IUPAC_INCHIKEY>
CCYRVZGWDNSBAQ-UHFFFAOYSA-N

> <PUBCHEM_XLOGP3_AA>
5.4

> <PUBCHEM_EXACT_MASS>
394.262028332

> <PUBCHEM_MOLECULAR_FORMULA>
C25H34N2O2

> <PUBCHEM_MOLECULAR_WEIGHT>
394.5

> <PUBCHEM_OPENEYE_CAN_SMILES>
COC1=CC2=C(CCCC2CCCN3CCN(CC3)C4=CC=CC=C4OC)C=C1

> <PUBCHEM_OPENEYE_ISO_SMILES>
COC1=CC2=C(CCCC2CCCN3CCN(CC3)C4=CC=CC=C4OC)C=C1

> <PUBCHEM_CACTVS_TPSA>
24.9

> <PUBCHEM_MONOISOTOPIC_WEIGHT>
394.262028332

> <PUBCHEM_TOTAL_CHARGE>
0

> <PUBCHEM_HEAVY_ATOM_COUNT>
29

> <PUBCHEM_ATOM_DEF_STEREO_COUNT>
0

> <PUBCHEM_ATOM_UDEF_STEREO_COUNT>
1

> <PUBCHEM_BOND_DEF_STEREO_COUNT>
0

> <PUBCHEM_BOND_UDEF_STEREO_COUNT>
0

> <PUBCHEM_ISOTOPIC_ATOM_COUNT>
0

> <PUBCHEM_COMPONENT_COUNT>
1

> <PUBCHEM_CACTVS_TAUTO_COUNT>
-1

> <PUBCHEM_COORDINATE_TYPE>
1
5
255

> <PUBCHEM_BONDANNOTATIONS>
13  19  8
18  21  8
19  22  8
20  23  8
20  24  8
21  22  8
23  25  8
24  26  8
25  27  8
26  27  8
5  6  3
9  13  8
9  18  8

$$$$
