138692456
  -OEChem-09292322452D

 52 54  0     0  0  0  0  0  0999 V2000
    2.0000   -2.2320    0.0000 Cl  0  0  0  0  0  0  0  0  0  0  0  0
    4.9641    1.6340    0.0000 F   0  0  0  0  0  0  0  0  0  0  0  0
    2.0000   -4.2320    0.0000 F   0  0  0  0  0  0  0  0  0  0  0  0
    6.3301   -2.7320    0.0000 O   0  0  0  0  0  0  0  0  0  0  0  0
    5.4641   -1.2320    0.0000 N   0  0  0  0  0  0  0  0  0  0  0  0
    6.9641    1.6340    0.0000 N   0  0  0  0  0  0  0  0  0  0  0  0
    8.9641    3.3660    0.0000 N   0  0  0  0  0  0  0  0  0  0  0  0
    5.4641    0.7679    0.0000 C   0  0  0  0  0  0  0  0  0  0  0  0
    4.5981    0.2679    0.0000 C   0  0  0  0  0  0  0  0  0  0  0  0
    6.3301    0.2679    0.0000 C   0  0  0  0  0  0  0  0  0  0  0  0
    4.5981   -0.7321    0.0000 C   0  0  0  0  0  0  0  0  0  0  0  0
    6.3301   -0.7321    0.0000 C   0  0  0  0  0  0  0  0  0  0  0  0
    5.9641    1.6340    0.0000 C   0  0  0  0  0  0  0  0  0  0  0  0
    5.4641   -2.2320    0.0000 C   0  0  0  0  0  0  0  0  0  0  0  0
    7.4641    2.5000    0.0000 C   0  0  0  0  0  0  0  0  0  0  0  0
    4.5981   -2.7320    0.0000 C   0  0  0  0  0  0  0  0  0  0  0  0
    8.4641    2.5000    0.0000 C   0  0  0  0  0  0  0  0  0  0  0  0
    3.7320   -2.2320    0.0000 C   0  0  0  0  0  0  0  0  0  0  0  0
    4.5981   -3.7320    0.0000 C   0  0  0  0  0  0  0  0  0  0  0  0
    2.8660   -2.7320    0.0000 C   0  0  0  0  0  0  0  0  0  0  0  0
    3.7320   -4.2320    0.0000 C   0  0  0  0  0  0  0  0  0  0  0  0
    9.9641    3.3660    0.0000 C   0  0  0  0  0  0  0  0  0  0  0  0
    2.8660   -3.7320    0.0000 C   0  0  0  0  0  0  0  0  0  0  0  0
   10.4641    2.5000    0.0000 C   0  0  0  0  0  0  0  0  0  0  0  0
   10.4641    4.2320    0.0000 C   0  0  0  0  0  0  0  0  0  0  0  0
   11.4641    2.5000    0.0000 C   0  0  0  0  0  0  0  0  0  0  0  0
   11.4641    4.2320    0.0000 C   0  0  0  0  0  0  0  0  0  0  0  0
   11.9641    3.3660    0.0000 C   0  0  0  0  0  0  0  0  0  0  0  0
    4.3860    0.8506    0.0000 H   0  0  0  0  0  0  0  0  0  0  0  0
    3.9875    0.1603    0.0000 H   0  0  0  0  0  0  0  0  0  0  0  0
    6.9407    0.1603    0.0000 H   0  0  0  0  0  0  0  0  0  0  0  0
    6.5422    0.8506    0.0000 H   0  0  0  0  0  0  0  0  0  0  0  0
    3.9875   -0.6244    0.0000 H   0  0  0  0  0  0  0  0  0  0  0  0
    4.3860   -1.3147    0.0000 H   0  0  0  0  0  0  0  0  0  0  0  0
    6.5422   -1.3147    0.0000 H   0  0  0  0  0  0  0  0  0  0  0  0
    6.9407   -0.6244    0.0000 H   0  0  0  0  0  0  0  0  0  0  0  0
    6.0718    2.2446    0.0000 H   0  0  0  0  0  0  0  0  0  0  0  0
    5.3815    1.8460    0.0000 H   0  0  0  0  0  0  0  0  0  0  0  0
    7.2741    1.0970    0.0000 H   0  0  0  0  0  0  0  0  0  0  0  0
    7.5718    3.1106    0.0000 H   0  0  0  0  0  0  0  0  0  0  0  0
    6.8815    2.7120    0.0000 H   0  0  0  0  0  0  0  0  0  0  0  0
    8.3564    1.8894    0.0000 H   0  0  0  0  0  0  0  0  0  0  0  0
    9.0467    2.2880    0.0000 H   0  0  0  0  0  0  0  0  0  0  0  0
    3.7320   -1.6120    0.0000 H   0  0  0  0  0  0  0  0  0  0  0  0
    5.1350   -4.0420    0.0000 H   0  0  0  0  0  0  0  0  0  0  0  0
    8.6541    3.9030    0.0000 H   0  0  0  0  0  0  0  0  0  0  0  0
    3.7320   -4.8520    0.0000 H   0  0  0  0  0  0  0  0  0  0  0  0
   10.1541    1.9631    0.0000 H   0  0  0  0  0  0  0  0  0  0  0  0
   10.1541    4.7690    0.0000 H   0  0  0  0  0  0  0  0  0  0  0  0
   11.7741    1.9631    0.0000 H   0  0  0  0  0  0  0  0  0  0  0  0
   11.7741    4.7690    0.0000 H   0  0  0  0  0  0  0  0  0  0  0  0
   12.5841    3.3660    0.0000 H   0  0  0  0  0  0  0  0  0  0  0  0
  1 20  1  0  0  0  0
  2  8  1  0  0  0  0
  3 23  1  0  0  0  0
  4 14  2  0  0  0  0
  5 11  1  0  0  0  0
  5 12  1  0  0  0  0
  5 14  1  0  0  0  0
  6 13  1  0  0  0  0
  6 15  1  0  0  0  0
  6 39  1  0  0  0  0
  7 17  1  0  0  0  0
  7 22  1  0  0  0  0
  7 46  1  0  0  0  0
  8  9  1  0  0  0  0
  8 10  1  0  0  0  0
  8 13  1  0  0  0  0
  9 11  1  0  0  0  0
  9 29  1  0  0  0  0
  9 30  1  0  0  0  0
 10 12  1  0  0  0  0
 10 31  1  0  0  0  0
 10 32  1  0  0  0  0
 11 33  1  0  0  0  0
 11 34  1  0  0  0  0
 12 35  1  0  0  0  0
 12 36  1  0  0  0  0
 13 37  1  0  0  0  0
 13 38  1  0  0  0  0
 14 16  1  0  0  0  0
 15 17  1  0  0  0  0
 15 40  1  0  0  0  0
 15 41  1  0  0  0  0
 16 18  2  0  0  0  0
 16 19  1  0  0  0  0
 17 42  1  0  0  0  0
 17 43  1  0  0  0  0
 18 20  1  0  0  0  0
 18 44  1  0  0  0  0
 19 21  2  0  0  0  0
 19 45  1  0  0  0  0
 20 23  2  0  0  0  0
 21 23  1  0  0  0  0
 21 47  1  0  0  0  0
 22 24  2  0  0  0  0
 22 25  1  0  0  0  0
 24 26  1  0  0  0  0
 24 48  1  0  0  0  0
 25 27  2  0  0  0  0
 25 49  1  0  0  0  0
 26 28  2  0  0  0  0
 26 50  1  0  0  0  0
 27 28  1  0  0  0  0
 27 51  1  0  0  0  0
 28 52  1  0  0  0  0
M  END
> <PUBCHEM_COMPOUND_CID>
138692456

> <PUBCHEM_COMPOUND_CANONICALIZED>
1

> <PUBCHEM_CACTVS_COMPLEXITY>
496

> <PUBCHEM_CACTVS_HBOND_ACCEPTOR>
5

> <PUBCHEM_CACTVS_HBOND_DONOR>
2

> <PUBCHEM_CACTVS_ROTATABLE_BOND>
7

> <PUBCHEM_CACTVS_SUBSKEYS>
AAADceB7IYAEAAAAAAAAAAAAAAAAAAAAAAA8YIAAAAAAAAABQAAAHwIQAAAADArBmCwwwIPAAACIAiVSUACCAAAlBwAIiIEIZsgIYDLBl5GUIQhglgDIyYcYiACOAAAAIAAAAAAAAABAAAAAAAAAAAAAAA==

> <PUBCHEM_IUPAC_OPENEYE_NAME>
[4-[(2-anilinoethylamino)methyl]-4-fluoro-1-piperidyl]-(3-chloro-4-fluoro-phenyl)methanone

> <PUBCHEM_IUPAC_CAS_NAME>
[4-[(2-anilinoethylamino)methyl]-4-fluoro-1-piperidinyl]-(3-chloro-4-fluorophenyl)methanone

> <PUBCHEM_IUPAC_NAME_MARKUP>
[4-[(2-anilinoethylamino)methyl]-4-fluoropiperidin-1-yl]-(3-chloro-4-fluorophenyl)methanone

> <PUBCHEM_IUPAC_NAME>
[4-[(2-anilinoethylamino)methyl]-4-fluoropiperidin-1-yl]-(3-chloro-4-fluorophenyl)methanone

> <PUBCHEM_IUPAC_SYSTEMATIC_NAME>
(3-chloranyl-4-fluoranyl-phenyl)-[4-fluoranyl-4-[(2-phenylazanylethylamino)methyl]piperidin-1-yl]methanone

> <PUBCHEM_IUPAC_TRADITIONAL_NAME>
[4-[(2-anilinoethylamino)methyl]-4-fluoro-piperidino]-(3-chloro-4-fluoro-phenyl)methanone

> <PUBCHEM_IUPAC_INCHI>
InChI=1S/C21H24ClF2N3O/c22-18-14-16(6-7-19(18)23)20(28)27-12-8-21(24,9-13-27)15-25-10-11-26-17-4-2-1-3-5-17/h1-7,14,25-26H,8-13,15H2

> <PUBCHEM_IUPAC_INCHIKEY>
BZPOPHHMWUCUHD-UHFFFAOYSA-N

> <PUBCHEM_XLOGP3_AA>
4.1

> <PUBCHEM_EXACT_MASS>
407.1575964

> <PUBCHEM_MOLECULAR_FORMULA>
C21H24ClF2N3O

> <PUBCHEM_MOLECULAR_WEIGHT>
407.9

> <PUBCHEM_OPENEYE_CAN_SMILES>
C1CN(CCC1(CNCCNC2=CC=CC=C2)F)C(=O)C3=CC(=C(C=C3)F)Cl

> <PUBCHEM_OPENEYE_ISO_SMILES>
C1CN(CCC1(CNCCNC2=CC=CC=C2)F)C(=O)C3=CC(=C(C=C3)F)Cl

> <PUBCHEM_CACTVS_TPSA>
44.4

> <PUBCHEM_MONOISOTOPIC_WEIGHT>
407.1575964

> <PUBCHEM_TOTAL_CHARGE>
0

> <PUBCHEM_HEAVY_ATOM_COUNT>
28

> <PUBCHEM_ATOM_DEF_STEREO_COUNT>
0

> <PUBCHEM_ATOM_UDEF_STEREO_COUNT>
0

> <PUBCHEM_BOND_DEF_STEREO_COUNT>
0

> <PUBCHEM_BOND_UDEF_STEREO_COUNT>
0

> <PUBCHEM_ISOTOPIC_ATOM_COUNT>
0

> <PUBCHEM_COMPONENT_COUNT>
1

> <PUBCHEM_CACTVS_TAUTO_COUNT>
-1

> <PUBCHEM_COORDINATE_TYPE>
1
5
255

> <PUBCHEM_BONDANNOTATIONS>
16  18  8
16  19  8
18  20  8
19  21  8
20  23  8
21  23  8
22  24  8
22  25  8
24  26  8
25  27  8
26  28  8
27  28  8

$$$$
