10252580
  -OEChem-09292322272D

 60 62  0     0  0  0  0  0  0999 V2000
    3.3660   -5.9330    0.0000 F   0  0  0  0  0  0  0  0  0  0  0  0
    2.0000   -5.5670    0.0000 F   0  0  0  0  0  0  0  0  0  0  0  0
    2.3660   -4.2010    0.0000 F   0  0  0  0  0  0  0  0  0  0  0  0
    8.0622    3.9330    0.0000 O   0  0  0  0  0  0  0  0  0  0  0  0
    4.5981   -0.0670    0.0000 N   0  0  0  0  0  0  0  0  0  0  0  0
    4.5981   -2.0670    0.0000 N   0  0  0  0  0  0  0  0  0  0  0  0
    5.4641   -3.5670    0.0000 N   0  0  0  0  0  0  0  0  0  0  0  0
    4.5981   -5.0670    0.0000 N   0  0  0  0  0  0  0  0  0  0  0  0
    6.3301    3.9330    0.0000 N   0  0  0  0  0  0  0  0  0  0  0  0
    7.1962    5.4330    0.0000 N   0  0  0  0  0  0  0  0  0  0  0  0
    3.7320   -0.5670    0.0000 C   0  0  0  0  0  0  0  0  0  0  0  0
    5.4641   -0.5670    0.0000 C   0  0  0  0  0  0  0  0  0  0  0  0
    3.7320   -1.5670    0.0000 C   0  0  0  0  0  0  0  0  0  0  0  0
    5.4641   -1.5670    0.0000 C   0  0  0  0  0  0  0  0  0  0  0  0
    4.5981    0.9330    0.0000 C   0  0  0  0  0  0  0  0  0  0  0  0
    5.4641    1.4330    0.0000 C   0  0  0  0  0  0  0  0  0  0  0  0
    4.5981   -3.0670    0.0000 C   0  0  0  0  0  0  0  0  0  0  0  0
    5.4641    2.4330    0.0000 C   0  0  0  0  0  0  0  0  0  0  0  0
    6.3301   -5.0670    0.0000 C   0  0  0  0  0  0  0  0  0  0  0  0
    5.4641   -4.5670    0.0000 C   0  0  0  0  0  0  0  0  0  0  0  0
    6.3301    2.9330    0.0000 C   0  0  0  0  0  0  0  0  0  0  0  0
    3.7320   -3.5670    0.0000 C   0  0  0  0  0  0  0  0  0  0  0  0
    3.7320   -4.5670    0.0000 C   0  0  0  0  0  0  0  0  0  0  0  0
    7.1962   -5.5670    0.0000 C   0  0  0  0  0  0  0  0  0  0  0  0
    5.8301   -5.9330    0.0000 C   0  0  0  0  0  0  0  0  0  0  0  0
    6.8301   -4.2010    0.0000 C   0  0  0  0  0  0  0  0  0  0  0  0
    2.8660   -5.0670    0.0000 C   0  0  0  0  0  0  0  0  0  0  0  0
    5.4641    4.4330    0.0000 C   0  0  0  0  0  0  0  0  0  0  0  0
    7.1962    4.4330    0.0000 C   0  0  0  0  0  0  0  0  0  0  0  0
    5.4641    5.4330    0.0000 C   0  0  0  0  0  0  0  0  0  0  0  0
    6.3301    5.9330    0.0000 C   0  0  0  0  0  0  0  0  0  0  0  0
    3.5200    0.0156    0.0000 H   0  0  0  0  0  0  0  0  0  0  0  0
    3.1215   -0.6746    0.0000 H   0  0  0  0  0  0  0  0  0  0  0  0
    6.0747   -0.6746    0.0000 H   0  0  0  0  0  0  0  0  0  0  0  0
    5.6762    0.0156    0.0000 H   0  0  0  0  0  0  0  0  0  0  0  0
    3.1215   -1.4593    0.0000 H   0  0  0  0  0  0  0  0  0  0  0  0
    3.5200   -2.1496    0.0000 H   0  0  0  0  0  0  0  0  0  0  0  0
    5.6762   -2.1496    0.0000 H   0  0  0  0  0  0  0  0  0  0  0  0
    6.0747   -1.4593    0.0000 H   0  0  0  0  0  0  0  0  0  0  0  0
    4.3860    1.5156    0.0000 H   0  0  0  0  0  0  0  0  0  0  0  0
    3.9875    0.8254    0.0000 H   0  0  0  0  0  0  0  0  0  0  0  0
    5.6762    0.8504    0.0000 H   0  0  0  0  0  0  0  0  0  0  0  0
    6.0747    1.5407    0.0000 H   0  0  0  0  0  0  0  0  0  0  0  0
    5.2520    3.0156    0.0000 H   0  0  0  0  0  0  0  0  0  0  0  0
    4.8535    2.3253    0.0000 H   0  0  0  0  0  0  0  0  0  0  0  0
    6.5422    2.3504    0.0000 H   0  0  0  0  0  0  0  0  0  0  0  0
    6.9407    3.0407    0.0000 H   0  0  0  0  0  0  0  0  0  0  0  0
    3.1951   -3.2570    0.0000 H   0  0  0  0  0  0  0  0  0  0  0  0
    6.8862   -6.1039    0.0000 H   0  0  0  0  0  0  0  0  0  0  0  0
    7.7331   -5.8770    0.0000 H   0  0  0  0  0  0  0  0  0  0  0  0
    7.5062   -5.0300    0.0000 H   0  0  0  0  0  0  0  0  0  0  0  0
    5.2932   -5.6230    0.0000 H   0  0  0  0  0  0  0  0  0  0  0  0
    5.5201   -6.4700    0.0000 H   0  0  0  0  0  0  0  0  0  0  0  0
    6.3671   -6.2430    0.0000 H   0  0  0  0  0  0  0  0  0  0  0  0
    7.3671   -4.5110    0.0000 H   0  0  0  0  0  0  0  0  0  0  0  0
    7.1401   -3.6640    0.0000 H   0  0  0  0  0  0  0  0  0  0  0  0
    6.2932   -3.8910    0.0000 H   0  0  0  0  0  0  0  0  0  0  0  0
    4.9272    4.1230    0.0000 H   0  0  0  0  0  0  0  0  0  0  0  0
    4.9272    5.7430    0.0000 H   0  0  0  0  0  0  0  0  0  0  0  0
    6.3301    6.5530    0.0000 H   0  0  0  0  0  0  0  0  0  0  0  0
  1 27  1  0  0  0  0
  2 27  1  0  0  0  0
  3 27  1  0  0  0  0
  4 29  2  0  0  0  0
  5 11  1  0  0  0  0
  5 12  1  0  0  0  0
  5 15  1  0  0  0  0
  6 13  1  0  0  0  0
  6 14  1  0  0  0  0
  6 17  1  0  0  0  0
  7 17  2  0  0  0  0
  7 20  1  0  0  0  0
  8 20  2  0  0  0  0
  8 23  1  0  0  0  0
  9 21  1  0  0  0  0
  9 28  1  0  0  0  0
  9 29  1  0  0  0  0
 10 29  1  0  0  0  0
 10 31  2  0  0  0  0
 11 13  1  0  0  0  0
 11 32  1  0  0  0  0
 11 33  1  0  0  0  0
 12 14  1  0  0  0  0
 12 34  1  0  0  0  0
 12 35  1  0  0  0  0
 13 36  1  0  0  0  0
 13 37  1  0  0  0  0
 14 38  1  0  0  0  0
 14 39  1  0  0  0  0
 15 16  1  0  0  0  0
 15 40  1  0  0  0  0
 15 41  1  0  0  0  0
 16 18  1  0  0  0  0
 16 42  1  0  0  0  0
 16 43  1  0  0  0  0
 17 22  1  0  0  0  0
 18 21  1  0  0  0  0
 18 44  1  0  0  0  0
 18 45  1  0  0  0  0
 19 20  1  0  0  0  0
 19 24  1  0  0  0  0
 19 25  1  0  0  0  0
 19 26  1  0  0  0  0
 21 46  1  0  0  0  0
 21 47  1  0  0  0  0
 22 23  2  0  0  0  0
 22 48  1  0  0  0  0
 23 27  1  0  0  0  0
 24 49  1  0  0  0  0
 24 50  1  0  0  0  0
 24 51  1  0  0  0  0
 25 52  1  0  0  0  0
 25 53  1  0  0  0  0
 25 54  1  0  0  0  0
 26 55  1  0  0  0  0
 26 56  1  0  0  0  0
 26 57  1  0  0  0  0
 28 30  2  0  0  0  0
 28 58  1  0  0  0  0
 30 31  1  0  0  0  0
 30 59  1  0  0  0  0
 31 60  1  0  0  0  0
M  END
> <PUBCHEM_COMPOUND_CID>
10252580

> <PUBCHEM_COMPOUND_CANONICALIZED>
1

> <PUBCHEM_CACTVS_COMPLEXITY>
667

> <PUBCHEM_CACTVS_HBOND_ACCEPTOR>
8

> <PUBCHEM_CACTVS_HBOND_DONOR>
0

> <PUBCHEM_CACTVS_ROTATABLE_BOND>
7

> <PUBCHEM_CACTVS_SUBSKEYS>
AAADceB7oYAAAAAAAAAAAAAAAAAAAAAAAAAsWIAAAAAAAAABgAAAHwAAAAAADgjBFxQzsJcIEACoATZndACAgCkhAqAJGCA4ZBiAaABAycAUBAhIBgLAQCAAAAAAAAAAAAAAAAAAAAAAAAAAAAAAAAAAAA==

> <PUBCHEM_IUPAC_OPENEYE_NAME>
1-[4-[4-[2-tert-butyl-6-(trifluoromethyl)pyrimidin-4-yl]piperazin-1-yl]butyl]pyrimidin-2-one

> <PUBCHEM_IUPAC_CAS_NAME>
1-[4-[4-[2-tert-butyl-6-(trifluoromethyl)-4-pyrimidinyl]-1-piperazinyl]butyl]-2-pyrimidinone

> <PUBCHEM_IUPAC_NAME_MARKUP>
1-[4-[4-[2-<I>tert</I>-butyl-6-(trifluoromethyl)pyrimidin-4-yl]piperazin-1-yl]butyl]pyrimidin-2-one

> <PUBCHEM_IUPAC_NAME>
1-[4-[4-[2-tert-butyl-6-(trifluoromethyl)pyrimidin-4-yl]piperazin-1-yl]butyl]pyrimidin-2-one

> <PUBCHEM_IUPAC_SYSTEMATIC_NAME>
1-[4-[4-[2-tert-butyl-6-(trifluoromethyl)pyrimidin-4-yl]piperazin-1-yl]butyl]pyrimidin-2-one

> <PUBCHEM_IUPAC_TRADITIONAL_NAME>
1-[4-[4-[2-tert-butyl-6-(trifluoromethyl)pyrimidin-4-yl]piperazino]butyl]pyrimidin-2-one

> <PUBCHEM_IUPAC_INCHI>
InChI=1S/C21H29F3N6O/c1-20(2,3)18-26-16(21(22,23)24)15-17(27-18)29-13-11-28(12-14-29)8-4-5-9-30-10-6-7-25-19(30)31/h6-7,10,15H,4-5,8-9,11-14H2,1-3H3

> <PUBCHEM_IUPAC_INCHIKEY>
NDOUOJYZWZVNBL-UHFFFAOYSA-N

> <PUBCHEM_XLOGP3_AA>
3.1

> <PUBCHEM_EXACT_MASS>
438.23549406

> <PUBCHEM_MOLECULAR_FORMULA>
C21H29F3N6O

> <PUBCHEM_MOLECULAR_WEIGHT>
438.5

> <PUBCHEM_OPENEYE_CAN_SMILES>
CC(C)(C)C1=NC(=CC(=N1)N2CCN(CC2)CCCCN3C=CC=NC3=O)C(F)(F)F

> <PUBCHEM_OPENEYE_ISO_SMILES>
CC(C)(C)C1=NC(=CC(=N1)N2CCN(CC2)CCCCN3C=CC=NC3=O)C(F)(F)F

> <PUBCHEM_CACTVS_TPSA>
64.9

> <PUBCHEM_MONOISOTOPIC_WEIGHT>
438.23549406

> <PUBCHEM_TOTAL_CHARGE>
0

> <PUBCHEM_HEAVY_ATOM_COUNT>
31

> <PUBCHEM_ATOM_DEF_STEREO_COUNT>
0

> <PUBCHEM_ATOM_UDEF_STEREO_COUNT>
0

> <PUBCHEM_BOND_DEF_STEREO_COUNT>
0

> <PUBCHEM_BOND_UDEF_STEREO_COUNT>
0

> <PUBCHEM_ISOTOPIC_ATOM_COUNT>
0

> <PUBCHEM_COMPONENT_COUNT>
1

> <PUBCHEM_CACTVS_TAUTO_COUNT>
-1

> <PUBCHEM_COORDINATE_TYPE>
1
5
255

> <PUBCHEM_BONDANNOTATIONS>
10  29  8
10  31  8
17  22  8
22  23  8
28  30  8
30  31  8
7  17  8
7  20  8
8  20  8
8  23  8
9  28  8
9  29  8

$$$$
