25107580
  -OEChem-09292322232D

 68 70  0     0  0  0  0  0  0999 V2000
    8.0622    1.0000    0.0000 O   0  0  0  0  0  0  0  0  0  0  0  0
    4.5981   -3.0000    0.0000 N   0  0  0  0  0  0  0  0  0  0  0  0
    4.5981   -5.0000    0.0000 N   0  0  0  0  0  0  0  0  0  0  0  0
    7.1962    2.5000    0.0000 N   0  0  0  0  0  0  0  0  0  0  0  0
    8.0622    8.0000    0.0000 N   0  0  0  0  0  0  0  0  0  0  0  0
    3.7320   -3.5000    0.0000 C   0  0  0  0  0  0  0  0  0  0  0  0
    5.4641   -3.5000    0.0000 C   0  0  0  0  0  0  0  0  0  0  0  0
    3.7320   -4.5000    0.0000 C   0  0  0  0  0  0  0  0  0  0  0  0
    5.4641   -4.5000    0.0000 C   0  0  0  0  0  0  0  0  0  0  0  0
    4.5981   -2.0000    0.0000 C   0  0  0  0  0  0  0  0  0  0  0  0
    5.4641   -1.5000    0.0000 C   0  0  0  0  0  0  0  0  0  0  0  0
    4.5981   -6.0000    0.0000 C   0  0  0  0  0  0  0  0  0  0  0  0
    5.4641   -0.5000    0.0000 C   0  0  0  0  0  0  0  0  0  0  0  0
    3.7320   -6.5000    0.0000 C   0  0  0  0  0  0  0  0  0  0  0  0
    2.8660   -6.0000    0.0000 C   0  0  0  0  0  0  0  0  0  0  0  0
    6.3301    0.0000    0.0000 C   0  0  0  0  0  0  0  0  0  0  0  0
    5.4641   -6.5000    0.0000 C   0  0  0  0  0  0  0  0  0  0  0  0
    3.7320   -7.5000    0.0000 C   0  0  0  0  0  0  0  0  0  0  0  0
    6.3301    1.0000    0.0000 C   0  0  0  0  0  0  0  0  0  0  0  0
    2.0000   -6.5000    0.0000 C   0  0  0  0  0  0  0  0  0  0  0  0
    2.8660   -5.0000    0.0000 C   0  0  0  0  0  0  0  0  0  0  0  0
    5.4641   -7.5000    0.0000 C   0  0  0  0  0  0  0  0  0  0  0  0
    4.5981   -8.0000    0.0000 C   0  0  0  0  0  0  0  0  0  0  0  0
    7.1962    1.5000    0.0000 C   0  0  0  0  0  0  0  0  0  0  0  0
    8.0622    3.0000    0.0000 C   0  0  0  0  0  0  0  0  0  0  0  0
    8.0622    4.0000    0.0000 C   0  0  0  0  0  0  0  0  0  0  0  0
    7.1962    4.5000    0.0000 C   0  0  0  0  0  0  0  0  0  0  0  0
    8.9282    4.5000    0.0000 C   0  0  0  0  0  0  0  0  0  0  0  0
    7.1962    5.5000    0.0000 C   0  0  0  0  0  0  0  0  0  0  0  0
    8.9282    5.5000    0.0000 C   0  0  0  0  0  0  0  0  0  0  0  0
    8.0622    6.0000    0.0000 C   0  0  0  0  0  0  0  0  0  0  0  0
    8.0622    7.0000    0.0000 C   0  0  0  0  0  0  0  0  0  0  0  0
    3.5200   -2.9174    0.0000 H   0  0  0  0  0  0  0  0  0  0  0  0
    3.1215   -3.6077    0.0000 H   0  0  0  0  0  0  0  0  0  0  0  0
    6.0747   -3.6077    0.0000 H   0  0  0  0  0  0  0  0  0  0  0  0
    5.6762   -2.9174    0.0000 H   0  0  0  0  0  0  0  0  0  0  0  0
    3.1215   -4.3923    0.0000 H   0  0  0  0  0  0  0  0  0  0  0  0
    3.5200   -5.0826    0.0000 H   0  0  0  0  0  0  0  0  0  0  0  0
    5.6762   -5.0826    0.0000 H   0  0  0  0  0  0  0  0  0  0  0  0
    6.0747   -4.3923    0.0000 H   0  0  0  0  0  0  0  0  0  0  0  0
    4.3860   -1.4174    0.0000 H   0  0  0  0  0  0  0  0  0  0  0  0
    3.9875   -2.1077    0.0000 H   0  0  0  0  0  0  0  0  0  0  0  0
    5.6762   -2.0826    0.0000 H   0  0  0  0  0  0  0  0  0  0  0  0
    6.0747   -1.3923    0.0000 H   0  0  0  0  0  0  0  0  0  0  0  0
    5.2520    0.0826    0.0000 H   0  0  0  0  0  0  0  0  0  0  0  0
    4.8535   -0.6077    0.0000 H   0  0  0  0  0  0  0  0  0  0  0  0
    2.8660   -6.6200    0.0000 H   0  0  0  0  0  0  0  0  0  0  0  0
    6.5422   -0.5826    0.0000 H   0  0  0  0  0  0  0  0  0  0  0  0
    6.9407    0.1077    0.0000 H   0  0  0  0  0  0  0  0  0  0  0  0
    6.0010   -6.1900    0.0000 H   0  0  0  0  0  0  0  0  0  0  0  0
    3.1951   -7.8100    0.0000 H   0  0  0  0  0  0  0  0  0  0  0  0
    6.1181    1.5826    0.0000 H   0  0  0  0  0  0  0  0  0  0  0  0
    5.7196    0.8923    0.0000 H   0  0  0  0  0  0  0  0  0  0  0  0
    1.6900   -5.9631    0.0000 H   0  0  0  0  0  0  0  0  0  0  0  0
    1.4631   -6.8100    0.0000 H   0  0  0  0  0  0  0  0  0  0  0  0
    2.3100   -7.0369    0.0000 H   0  0  0  0  0  0  0  0  0  0  0  0
    3.4860   -5.0000    0.0000 H   0  0  0  0  0  0  0  0  0  0  0  0
    2.8660   -4.3800    0.0000 H   0  0  0  0  0  0  0  0  0  0  0  0
    2.2460   -5.0000    0.0000 H   0  0  0  0  0  0  0  0  0  0  0  0
    6.0010   -7.8100    0.0000 H   0  0  0  0  0  0  0  0  0  0  0  0
    4.5981   -8.6200    0.0000 H   0  0  0  0  0  0  0  0  0  0  0  0
    6.6592    2.8100    0.0000 H   0  0  0  0  0  0  0  0  0  0  0  0
    8.2742    2.4174    0.0000 H   0  0  0  0  0  0  0  0  0  0  0  0
    8.6728    3.1077    0.0000 H   0  0  0  0  0  0  0  0  0  0  0  0
    6.6592    4.1900    0.0000 H   0  0  0  0  0  0  0  0  0  0  0  0
    9.4651    4.1900    0.0000 H   0  0  0  0  0  0  0  0  0  0  0  0
    6.6592    5.8100    0.0000 H   0  0  0  0  0  0  0  0  0  0  0  0
    9.4651    5.8100    0.0000 H   0  0  0  0  0  0  0  0  0  0  0  0
  1 24  2  0  0  0  0
  2  6  1  0  0  0  0
  2  7  1  0  0  0  0
  2 10  1  0  0  0  0
  3  8  1  0  0  0  0
  3  9  1  0  0  0  0
  3 12  1  0  0  0  0
  4 24  1  0  0  0  0
  4 25  1  0  0  0  0
  4 62  1  0  0  0  0
  5 32  3  0  0  0  0
  6  8  1  0  0  0  0
  6 33  1  0  0  0  0
  6 34  1  0  0  0  0
  7  9  1  0  0  0  0
  7 35  1  0  0  0  0
  7 36  1  0  0  0  0
  8 37  1  0  0  0  0
  8 38  1  0  0  0  0
  9 39  1  0  0  0  0
  9 40  1  0  0  0  0
 10 11  1  0  0  0  0
 10 41  1  0  0  0  0
 10 42  1  0  0  0  0
 11 13  1  0  0  0  0
 11 43  1  0  0  0  0
 11 44  1  0  0  0  0
 12 14  1  0  0  0  0
 12 17  2  0  0  0  0
 13 16  1  0  0  0  0
 13 45  1  0  0  0  0
 13 46  1  0  0  0  0
 14 15  1  0  0  0  0
 14 18  2  0  0  0  0
 15 20  1  0  0  0  0
 15 21  1  0  0  0  0
 15 47  1  0  0  0  0
 16 19  1  0  0  0  0
 16 48  1  0  0  0  0
 16 49  1  0  0  0  0
 17 22  1  0  0  0  0
 17 50  1  0  0  0  0
 18 23  1  0  0  0  0
 18 51  1  0  0  0  0
 19 24  1  0  0  0  0
 19 52  1  0  0  0  0
 19 53  1  0  0  0  0
 20 54  1  0  0  0  0
 20 55  1  0  0  0  0
 20 56  1  0  0  0  0
 21 57  1  0  0  0  0
 21 58  1  0  0  0  0
 21 59  1  0  0  0  0
 22 23  2  0  0  0  0
 22 60  1  0  0  0  0
 23 61  1  0  0  0  0
 25 26  1  0  0  0  0
 25 63  1  0  0  0  0
 25 64  1  0  0  0  0
 26 27  2  0  0  0  0
 26 28  1  0  0  0  0
 27 29  1  0  0  0  0
 27 65  1  0  0  0  0
 28 30  2  0  0  0  0
 28 66  1  0  0  0  0
 29 31  2  0  0  0  0
 29 67  1  0  0  0  0
 30 31  1  0  0  0  0
 30 68  1  0  0  0  0
 31 32  1  0  0  0  0
M  END
> <PUBCHEM_COMPOUND_CID>
25107580

> <PUBCHEM_COMPOUND_CANONICALIZED>
1

> <PUBCHEM_CACTVS_COMPLEXITY>
596

> <PUBCHEM_CACTVS_HBOND_ACCEPTOR>
4

> <PUBCHEM_CACTVS_HBOND_DONOR>
1

> <PUBCHEM_CACTVS_ROTATABLE_BOND>
10

> <PUBCHEM_CACTVS_SUBSKEYS>
AAADcfB7oAAAAAAAAAAAAAAAAAAAAAAAAAA8YIAAAAAAAAABQAAAHgAQAAAADQjBmAQywIPAAACYBiVSUACiAAAhAgAIiIEIZIgI4DLAkZGUIAhglgDIyA8YiMAOwAAAAAACAACAAAAAAAQAAAAAAAAAAA==

> <PUBCHEM_IUPAC_OPENEYE_NAME>
N-[(4-cyanophenyl)methyl]-6-[4-(2-isopropylphenyl)piperazin-1-yl]hexanamide

> <PUBCHEM_IUPAC_CAS_NAME>
N-[(4-cyanophenyl)methyl]-6-[4-(2-propan-2-ylphenyl)-1-piperazinyl]hexanamide

> <PUBCHEM_IUPAC_NAME_MARKUP>
<I>N</I>-[(4-cyanophenyl)methyl]-6-[4-(2-propan-2-ylphenyl)piperazin-1-yl]hexanamide

> <PUBCHEM_IUPAC_NAME>
N-[(4-cyanophenyl)methyl]-6-[4-(2-propan-2-ylphenyl)piperazin-1-yl]hexanamide

> <PUBCHEM_IUPAC_SYSTEMATIC_NAME>
N-[(4-cyanophenyl)methyl]-6-[4-(2-propan-2-ylphenyl)piperazin-1-yl]hexanamide

> <PUBCHEM_IUPAC_TRADITIONAL_NAME>
N-(4-cyanobenzyl)-6-(4-o-cumenylpiperazino)hexanamide

> <PUBCHEM_IUPAC_INCHI>
InChI=1S/C27H36N4O/c1-22(2)25-8-5-6-9-26(25)31-18-16-30(17-19-31)15-7-3-4-10-27(32)29-21-24-13-11-23(20-28)12-14-24/h5-6,8-9,11-14,22H,3-4,7,10,15-19,21H2,1-2H3,(H,29,32)

> <PUBCHEM_IUPAC_INCHIKEY>
IJMJZSNLRMYGOM-UHFFFAOYSA-N

> <PUBCHEM_XLOGP3_AA>
4.5

> <PUBCHEM_EXACT_MASS>
432.28891178

> <PUBCHEM_MOLECULAR_FORMULA>
C27H36N4O

> <PUBCHEM_MOLECULAR_WEIGHT>
432.6

> <PUBCHEM_OPENEYE_CAN_SMILES>
CC(C)C1=CC=CC=C1N2CCN(CC2)CCCCCC(=O)NCC3=CC=C(C=C3)C#N

> <PUBCHEM_OPENEYE_ISO_SMILES>
CC(C)C1=CC=CC=C1N2CCN(CC2)CCCCCC(=O)NCC3=CC=C(C=C3)C#N

> <PUBCHEM_CACTVS_TPSA>
59.4

> <PUBCHEM_MONOISOTOPIC_WEIGHT>
432.28891178

> <PUBCHEM_TOTAL_CHARGE>
0

> <PUBCHEM_HEAVY_ATOM_COUNT>
32

> <PUBCHEM_ATOM_DEF_STEREO_COUNT>
0

> <PUBCHEM_ATOM_UDEF_STEREO_COUNT>
0

> <PUBCHEM_BOND_DEF_STEREO_COUNT>
0

> <PUBCHEM_BOND_UDEF_STEREO_COUNT>
0

> <PUBCHEM_ISOTOPIC_ATOM_COUNT>
0

> <PUBCHEM_COMPONENT_COUNT>
1

> <PUBCHEM_CACTVS_TAUTO_COUNT>
-1

> <PUBCHEM_COORDINATE_TYPE>
1
5
255

> <PUBCHEM_BONDANNOTATIONS>
12  14  8
12  17  8
14  18  8
17  22  8
18  23  8
22  23  8
26  27  8
26  28  8
27  29  8
28  30  8
29  31  8
30  31  8

$$$$
