135514603
  -OEChem-09292322032D

 49 52  0     0  0  0  0  0  0999 V2000
   11.8819   -1.1886    0.0000 Cl  0  0  0  0  0  0  0  0  0  0  0  0
    3.4714   -1.8659    0.0000 S   0  0  0  0  0  0  0  0  0  0  0  0
    2.0000   -3.2206    0.0000 F   0  0  0  0  0  0  0  0  0  0  0  0
    2.0583   -1.8076    0.0000 F   0  0  0  0  0  0  0  0  0  0  0  0
    3.4130   -3.2789    0.0000 F   0  0  0  0  0  0  0  0  0  0  0  0
    4.2070   -1.1886    0.0000 O   0  0  0  0  0  0  0  0  0  0  0  0
    2.7940   -1.1302    0.0000 O   0  0  0  0  0  0  0  0  0  0  0  0
    4.1487   -2.6016    0.0000 O   0  0  0  0  0  0  0  0  0  0  0  0
    7.1106    0.5760    0.0000 N   0  0  0  0  0  0  0  0  0  0  0  0
    6.2428    2.3779    0.0000 N   0  0  0  0  0  0  0  0  0  0  0  0
    8.5445   -0.3250    0.0000 N   0  0  0  0  0  0  0  0  0  0  0  0
    8.0444   -2.5156    0.0000 N   0  0  0  0  0  0  0  0  0  0  0  0
    7.6739    1.4022    0.0000 C   0  0  0  0  0  0  0  0  0  0  0  0
    6.1134    0.6507    0.0000 C   0  0  0  0  0  0  0  0  0  0  0  0
    7.2400    2.3032    0.0000 C   0  0  0  0  0  0  0  0  0  0  0  0
    5.6795    1.5517    0.0000 C   0  0  0  0  0  0  0  0  0  0  0  0
    7.5445   -0.3250    0.0000 C   0  0  0  0  0  0  0  0  0  0  0  0
    6.9210   -1.1068    0.0000 C   0  0  0  0  0  0  0  0  0  0  0  0
    5.8090    3.2789    0.0000 C   0  0  0  0  0  0  0  0  0  0  0  0
    7.1435   -2.0817    0.0000 C   0  0  0  0  0  0  0  0  0  0  0  0
    5.9305   -0.7844    0.0000 C   0  0  0  0  0  0  0  0  0  0  0  0
    9.1679   -1.1068    0.0000 C   0  0  0  0  0  0  0  0  0  0  0  0
    8.9454   -2.0817    0.0000 C   0  0  0  0  0  0  0  0  0  0  0  0
    6.3909   -2.8019    0.0000 C   0  0  0  0  0  0  0  0  0  0  0  0
    5.1614   -1.4870    0.0000 C   0  0  0  0  0  0  0  0  0  0  0  0
    5.3932   -2.5025    0.0000 C   0  0  0  0  0  0  0  0  0  0  0  0
   10.1584   -0.7845    0.0000 C   0  0  0  0  0  0  0  0  0  0  0  0
    9.6980   -2.8019    0.0000 C   0  0  0  0  0  0  0  0  0  0  0  0
   10.9274   -1.4871    0.0000 C   0  0  0  0  0  0  0  0  0  0  0  0
   10.6957   -2.5026    0.0000 C   0  0  0  0  0  0  0  0  0  0  0  0
    2.7357   -2.5432    0.0000 C   0  0  0  0  0  0  0  0  0  0  0  0
    8.1177    0.9693    0.0000 H   0  0  0  0  0  0  0  0  0  0  0  0
    8.1773    1.7642    0.0000 H   0  0  0  0  0  0  0  0  0  0  0  0
    5.5165    0.4828    0.0000 H   0  0  0  0  0  0  0  0  0  0  0  0
    6.1751    0.0338    0.0000 H   0  0  0  0  0  0  0  0  0  0  0  0
    7.8369    2.4711    0.0000 H   0  0  0  0  0  0  0  0  0  0  0  0
    7.1783    2.9201    0.0000 H   0  0  0  0  0  0  0  0  0  0  0  0
    5.2357    1.9846    0.0000 H   0  0  0  0  0  0  0  0  0  0  0  0
    5.1761    1.1898    0.0000 H   0  0  0  0  0  0  0  0  0  0  0  0
    6.3675    3.5479    0.0000 H   0  0  0  0  0  0  0  0  0  0  0  0
    5.5399    3.8375    0.0000 H   0  0  0  0  0  0  0  0  0  0  0  0
    5.2504    3.0099    0.0000 H   0  0  0  0  0  0  0  0  0  0  0  0
    5.7995   -0.1784    0.0000 H   0  0  0  0  0  0  0  0  0  0  0  0
    8.0444   -3.1356    0.0000 H   0  0  0  0  0  0  0  0  0  0  0  0
    6.5358   -3.4047    0.0000 H   0  0  0  0  0  0  0  0  0  0  0  0
    4.9404   -2.9260    0.0000 H   0  0  0  0  0  0  0  0  0  0  0  0
   10.2894   -0.1785    0.0000 H   0  0  0  0  0  0  0  0  0  0  0  0
    9.5530   -3.4047    0.0000 H   0  0  0  0  0  0  0  0  0  0  0  0
   11.1485   -2.9260    0.0000 H   0  0  0  0  0  0  0  0  0  0  0  0
  1 29  1  0  0  0  0
  2  6  1  0  0  0  0
  2  7  2  0  0  0  0
  2  8  2  0  0  0  0
  2 31  1  0  0  0  0
  3 31  1  0  0  0  0
  4 31  1  0  0  0  0
  5 31  1  0  0  0  0
  6 25  1  0  0  0  0
  9 13  1  0  0  0  0
  9 14  1  0  0  0  0
  9 17  1  0  0  0  0
 10 15  1  0  0  0  0
 10 16  1  0  0  0  0
 10 19  1  0  0  0  0
 11 17  2  0  0  0  0
 11 22  1  0  0  0  0
 12 20  1  0  0  0  0
 12 23  1  0  0  0  0
 12 44  1  0  0  0  0
 13 15  1  0  0  0  0
 13 32  1  0  0  0  0
 13 33  1  0  0  0  0
 14 16  1  0  0  0  0
 14 34  1  0  0  0  0
 14 35  1  0  0  0  0
 15 36  1  0  0  0  0
 15 37  1  0  0  0  0
 16 38  1  0  0  0  0
 16 39  1  0  0  0  0
 17 18  1  0  0  0  0
 18 20  2  0  0  0  0
 18 21  1  0  0  0  0
 19 40  1  0  0  0  0
 19 41  1  0  0  0  0
 19 42  1  0  0  0  0
 20 24  1  0  0  0  0
 21 25  2  0  0  0  0
 21 43  1  0  0  0  0
 22 23  2  0  0  0  0
 22 27  1  0  0  0  0
 23 28  1  0  0  0  0
 24 26  2  0  0  0  0
 24 45  1  0  0  0  0
 25 26  1  0  0  0  0
 26 46  1  0  0  0  0
 27 29  2  0  0  0  0
 27 47  1  0  0  0  0
 28 30  2  0  0  0  0
 28 48  1  0  0  0  0
 29 30  1  0  0  0  0
 30 49  1  0  0  0  0
M  END
> <PUBCHEM_COMPOUND_CID>
135514603

> <PUBCHEM_COMPOUND_CANONICALIZED>
1

> <PUBCHEM_CACTVS_COMPLEXITY>
783

> <PUBCHEM_CACTVS_HBOND_ACCEPTOR>
9

> <PUBCHEM_CACTVS_HBOND_DONOR>
1

> <PUBCHEM_CACTVS_ROTATABLE_BOND>
3

> <PUBCHEM_CACTVS_SUBSKEYS>
AAADceB7sYBEAAAAAAAAAAAAAAAAAAAAAAA8YIAABAAAAAABQAAAHwYQAAAADA7BmDQzxoPAAAKgAiZiZHCCAAEhJwAJiAAufpgIZuLB25OUMAhk0BHIyAewwBAOAEBBAAICACAAgIIABAQAQAAAAAAAAA==

> <PUBCHEM_IUPAC_OPENEYE_NAME>
[3-chloro-6-(4-methylpiperazin-1-yl)-11H-benzo[b][1,4]benzodiazepin-8-yl] trifluoromethanesulfonate

> <PUBCHEM_IUPAC_CAS_NAME>
trifluoromethanesulfonic acid [3-chloro-6-(4-methyl-1-piperazinyl)-11H-benzo[b][1,4]benzodiazepin-8-yl] ester

> <PUBCHEM_IUPAC_NAME_MARKUP>
[3-chloro-6-(4-methylpiperazin-1-yl)-11<I>H</I>-benzo[b][1,4]benzodiazepin-8-yl] trifluoromethanesulfonate

> <PUBCHEM_IUPAC_NAME>
[3-chloro-6-(4-methylpiperazin-1-yl)-11H-benzo[b][1,4]benzodiazepin-8-yl] trifluoromethanesulfonate

> <PUBCHEM_IUPAC_SYSTEMATIC_NAME>
[3-chloranyl-6-(4-methylpiperazin-1-yl)-11H-benzo[b][1,4]benzodiazepin-8-yl] tris(fluoranyl)methanesulfonate

> <PUBCHEM_IUPAC_TRADITIONAL_NAME>
trifluoromethanesulfonic acid [3-chloro-6-(4-methylpiperazino)-11H-benzo[b][1,4]benzodiazepin-8-yl] ester

> <PUBCHEM_IUPAC_INCHI>
InChI=1S/C19H18ClF3N4O3S/c1-26-6-8-27(9-7-26)18-14-11-13(30-31(28,29)19(21,22)23)3-5-15(14)24-16-4-2-12(20)10-17(16)25-18/h2-5,10-11,24H,6-9H2,1H3

> <PUBCHEM_IUPAC_INCHIKEY>
MTKHCEFATKQYMK-UHFFFAOYSA-N

> <PUBCHEM_XLOGP3_AA>
3.8

> <PUBCHEM_EXACT_MASS>
474.0740238

> <PUBCHEM_MOLECULAR_FORMULA>
C19H18ClF3N4O3S

> <PUBCHEM_MOLECULAR_WEIGHT>
474.9

> <PUBCHEM_OPENEYE_CAN_SMILES>
CN1CCN(CC1)C2=NC3=C(C=CC(=C3)Cl)NC4=C2C=C(C=C4)OS(=O)(=O)C(F)(F)F

> <PUBCHEM_OPENEYE_ISO_SMILES>
CN1CCN(CC1)C2=NC3=C(C=CC(=C3)Cl)NC4=C2C=C(C=C4)OS(=O)(=O)C(F)(F)F

> <PUBCHEM_CACTVS_TPSA>
82.6

> <PUBCHEM_MONOISOTOPIC_WEIGHT>
474.0740238

> <PUBCHEM_TOTAL_CHARGE>
0

> <PUBCHEM_HEAVY_ATOM_COUNT>
31

> <PUBCHEM_ATOM_DEF_STEREO_COUNT>
0

> <PUBCHEM_ATOM_UDEF_STEREO_COUNT>
0

> <PUBCHEM_BOND_DEF_STEREO_COUNT>
0

> <PUBCHEM_BOND_UDEF_STEREO_COUNT>
0

> <PUBCHEM_ISOTOPIC_ATOM_COUNT>
0

> <PUBCHEM_COMPONENT_COUNT>
1

> <PUBCHEM_CACTVS_TAUTO_COUNT>
-1

> <PUBCHEM_COORDINATE_TYPE>
1
5
255

> <PUBCHEM_BONDANNOTATIONS>
18  20  8
18  21  8
20  24  8
21  25  8
22  23  8
22  27  8
23  28  8
24  26  8
25  26  8
27  29  8
28  30  8
29  30  8

$$$$
