155552591
  -OEChem-09292322462D

 70 72  0     1  0  0  0  0  0999 V2000
    3.0000    0.6200    0.0000 Cl  0  0  0  0  0  0  0  0  0  0  0  0
    0.0000    7.8030    0.0000 Cl  0  0  0  0  0  0  0  0  0  0  0  0
   11.2942    8.9860    0.0000 O   0  0  0  0  0  0  0  0  0  0  0  0
    7.8301    4.9860    0.0000 N   0  0  3  0  0  0  0  0  0  0  0  0
    9.5622    8.9860    0.0000 N   0  0  0  0  0  0  0  0  0  0  0  0
    9.5622   13.9860    0.0000 N   0  0  0  0  0  0  0  0  0  0  0  0
    6.9641    3.4860    0.0000 C   0  0  3  0  0  0  0  0  0  0  0  0
    6.4641    2.6200    0.0000 C   0  0  3  0  0  0  0  0  0  0  0  0
    7.4641    2.6200    0.0000 C   0  0  0  0  0  0  0  0  0  0  0  0
    6.9641    4.4860    0.0000 C   0  0  0  0  0  0  0  0  0  0  0  0
    5.5981    2.1200    0.0000 C   0  0  0  0  0  0  0  0  0  0  0  0
    7.8301    5.9860    0.0000 C   0  0  0  0  0  0  0  0  0  0  0  0
    8.6962    4.4860    0.0000 C   0  0  0  0  0  0  0  0  0  0  0  0
    4.7320    2.6200    0.0000 C   0  0  0  0  0  0  0  0  0  0  0  0
    5.5981    1.1200    0.0000 C   0  0  0  0  0  0  0  0  0  0  0  0
    8.6962    6.4860    0.0000 C   0  0  0  0  0  0  0  0  0  0  0  0
    9.5622    4.9860    0.0000 C   0  0  0  0  0  0  0  0  0  0  0  0
    3.8660    2.1200    0.0000 C   0  0  0  0  0  0  0  0  0  0  0  0
    4.7320    0.6200    0.0000 C   0  0  0  0  0  0  0  0  0  0  0  0
    3.8660    1.1200    0.0000 C   0  0  0  0  0  0  0  0  0  0  0  0
    8.6962    7.4860    0.0000 C   0  0  0  0  0  0  0  0  0  0  0  0
   10.4282    4.4860    0.0000 C   0  0  0  0  0  0  0  0  0  0  0  0
    9.5622    7.9860    0.0000 C   0  0  0  0  0  0  0  0  0  0  0  0
   10.4282    9.4860    0.0000 C   0  0  0  0  0  0  0  0  0  0  0  0
   10.4282   10.4860    0.0000 C   0  0  0  0  0  0  0  0  0  0  0  0
    9.5622   10.9860    0.0000 C   0  0  0  0  0  0  0  0  0  0  0  0
   11.2942   10.9860    0.0000 C   0  0  0  0  0  0  0  0  0  0  0  0
    9.5622   11.9860    0.0000 C   0  0  0  0  0  0  0  0  0  0  0  0
   11.2942   11.9860    0.0000 C   0  0  0  0  0  0  0  0  0  0  0  0
   10.4282   12.4860    0.0000 C   0  0  0  0  0  0  0  0  0  0  0  0
   10.4282   13.4860    0.0000 C   0  0  0  0  0  0  0  0  0  0  0  0
   11.2942   13.9860    0.0000 C   0  0  0  0  0  0  0  0  0  0  0  0
   11.2942   14.9860    0.0000 C   0  0  0  0  0  0  0  0  0  0  0  0
    9.5622   14.9860    0.0000 C   0  0  0  0  0  0  0  0  0  0  0  0
   10.4282   15.4860    0.0000 C   0  0  0  0  0  0  0  0  0  0  0  0
    7.5630    3.6465    0.0000 H   0  0  0  0  0  0  0  0  0  0  0  0
    6.0257    3.0584    0.0000 H   0  0  0  0  0  0  0  0  0  0  0  0
    7.5718    2.0094    0.0000 H   0  0  0  0  0  0  0  0  0  0  0  0
    8.0467    2.8320    0.0000 H   0  0  0  0  0  0  0  0  0  0  0  0
    6.7520    5.0686    0.0000 H   0  0  0  0  0  0  0  0  0  0  0  0
    6.3535    4.3784    0.0000 H   0  0  0  0  0  0  0  0  0  0  0  0
    7.6181    6.5686    0.0000 H   0  0  0  0  0  0  0  0  0  0  0  0
    7.2196    5.8784    0.0000 H   0  0  0  0  0  0  0  0  0  0  0  0
    8.2976    4.0111    0.0000 H   0  0  0  0  0  0  0  0  0  0  0  0
    9.0947    4.0111    0.0000 H   0  0  0  0  0  0  0  0  0  0  0  0
    4.7320    3.2400    0.0000 H   0  0  0  0  0  0  0  0  0  0  0  0
    6.1350    0.8100    0.0000 H   0  0  0  0  0  0  0  0  0  0  0  0
    8.9082    5.9034    0.0000 H   0  0  0  0  0  0  0  0  0  0  0  0
    9.3067    6.5937    0.0000 H   0  0  0  0  0  0  0  0  0  0  0  0
    9.9607    5.4610    0.0000 H   0  0  0  0  0  0  0  0  0  0  0  0
    9.1636    5.4610    0.0000 H   0  0  0  0  0  0  0  0  0  0  0  0
    3.3291    2.4300    0.0000 H   0  0  0  0  0  0  0  0  0  0  0  0
    4.7320    0.0000    0.0000 H   0  0  0  0  0  0  0  0  0  0  0  0
    8.4841    8.0686    0.0000 H   0  0  0  0  0  0  0  0  0  0  0  0
    8.0856    7.3784    0.0000 H   0  0  0  0  0  0  0  0  0  0  0  0
   10.1182    3.9491    0.0000 H   0  0  0  0  0  0  0  0  0  0  0  0
   10.9651    4.1760    0.0000 H   0  0  0  0  0  0  0  0  0  0  0  0
   10.7382    5.0230    0.0000 H   0  0  0  0  0  0  0  0  0  0  0  0
    9.7742    7.4034    0.0000 H   0  0  0  0  0  0  0  0  0  0  0  0
   10.1728    8.0937    0.0000 H   0  0  0  0  0  0  0  0  0  0  0  0
    9.0252    9.2960    0.0000 H   0  0  0  0  0  0  0  0  0  0  0  0
    9.0252   10.6760    0.0000 H   0  0  0  0  0  0  0  0  0  0  0  0
   11.8312   10.6760    0.0000 H   0  0  0  0  0  0  0  0  0  0  0  0
    9.0252   12.2960    0.0000 H   0  0  0  0  0  0  0  0  0  0  0  0
   11.8312   12.2960    0.0000 H   0  0  0  0  0  0  0  0  0  0  0  0
   11.8312   13.6760    0.0000 H   0  0  0  0  0  0  0  0  0  0  0  0
   11.8312   15.2960    0.0000 H   0  0  0  0  0  0  0  0  0  0  0  0
    9.0252   15.2960    0.0000 H   0  0  0  0  0  0  0  0  0  0  0  0
   10.4282   16.1060    0.0000 H   0  0  0  0  0  0  0  0  0  0  0  0
    1.0000    7.8030    0.0000 H   0  0  0  0  0  0  0  0  0  0  0  0
  1 20  1  0  0  0  0
  2 70  1  0  0  0  0
  3 24  2  0  0  0  0
  4 10  1  0  0  0  0
  4 12  1  0  0  0  0
  4 13  1  0  0  0  0
  5 23  1  0  0  0  0
  5 24  1  0  0  0  0
  5 61  1  0  0  0  0
  6 31  1  0  0  0  0
  6 34  2  0  0  0  0
  7  8  1  0  0  0  0
  7  9  1  0  0  0  0
  7 10  1  0  0  0  0
  7 36  1  0  0  0  0
  8  9  1  0  0  0  0
  8 11  1  0  0  0  0
  8 37  1  0  0  0  0
  9 38  1  0  0  0  0
  9 39  1  0  0  0  0
 10 40  1  0  0  0  0
 10 41  1  0  0  0  0
 11 14  2  0  0  0  0
 11 15  1  0  0  0  0
 12 16  1  0  0  0  0
 12 42  1  0  0  0  0
 12 43  1  0  0  0  0
 13 17  1  0  0  0  0
 13 44  1  0  0  0  0
 13 45  1  0  0  0  0
 14 18  1  0  0  0  0
 14 46  1  0  0  0  0
 15 19  2  0  0  0  0
 15 47  1  0  0  0  0
 16 21  1  0  0  0  0
 16 48  1  0  0  0  0
 16 49  1  0  0  0  0
 17 22  1  0  0  0  0
 17 50  1  0  0  0  0
 17 51  1  0  0  0  0
 18 20  2  0  0  0  0
 18 52  1  0  0  0  0
 19 20  1  0  0  0  0
 19 53  1  0  0  0  0
 21 23  1  0  0  0  0
 21 54  1  0  0  0  0
 21 55  1  0  0  0  0
 22 56  1  0  0  0  0
 22 57  1  0  0  0  0
 22 58  1  0  0  0  0
 23 59  1  0  0  0  0
 23 60  1  0  0  0  0
 24 25  1  0  0  0  0
 25 26  2  0  0  0  0
 25 27  1  0  0  0  0
 26 28  1  0  0  0  0
 26 62  1  0  0  0  0
 27 29  2  0  0  0  0
 27 63  1  0  0  0  0
 28 30  2  0  0  0  0
 28 64  1  0  0  0  0
 29 30  1  0  0  0  0
 29 65  1  0  0  0  0
 30 31  1  0  0  0  0
 31 32  2  0  0  0  0
 32 33  1  0  0  0  0
 32 66  1  0  0  0  0
 33 35  2  0  0  0  0
 33 67  1  0  0  0  0
 34 35  1  0  0  0  0
 34 68  1  0  0  0  0
 35 69  1  0  0  0  0
M  END
> <PUBCHEM_COMPOUND_CID>
155552591

> <PUBCHEM_COMPOUND_CANONICALIZED>
1

> <PUBCHEM_CACTVS_COMPLEXITY>
600

> <PUBCHEM_CACTVS_HBOND_ACCEPTOR>
3

> <PUBCHEM_CACTVS_HBOND_DONOR>
2

> <PUBCHEM_CACTVS_ROTATABLE_BOND>
12

> <PUBCHEM_CACTVS_SUBSKEYS>
AAADcfB7IAAGAAAAAAAAAAAAGAAAAAAAAAA8YIAAAAAAAAAB0AAAHgIQAAAADQrBniQ+gJPIEACoAzV3VACCgCA1ByAI2KE4ZtgIIPLBl5GEIQhglgDIyYcYiMCOxAAAAAAAAACIAAAAAAAAAAAAAAAAAA==

> <PUBCHEM_IUPAC_OPENEYE_NAME>
N-[4-[[2-(4-chlorophenyl)cyclopropyl]methyl-propyl-amino]butyl]-4-(2-pyridyl)benzamide;hydrochloride

> <PUBCHEM_IUPAC_CAS_NAME>
N-[4-[[2-(4-chlorophenyl)cyclopropyl]methyl-propylamino]butyl]-4-(2-pyridinyl)benzamide;hydrochloride

> <PUBCHEM_IUPAC_NAME_MARKUP>
<I>N</I>-[4-[[2-(4-chlorophenyl)cyclopropyl]methyl-propylamino]butyl]-4-pyridin-2-ylbenzamide;hydrochloride

> <PUBCHEM_IUPAC_NAME>
N-[4-[[2-(4-chlorophenyl)cyclopropyl]methyl-propylamino]butyl]-4-pyridin-2-ylbenzamide;hydrochloride

> <PUBCHEM_IUPAC_SYSTEMATIC_NAME>
N-[4-[[2-(4-chlorophenyl)cyclopropyl]methyl-propyl-amino]butyl]-4-pyridin-2-yl-benzamide;hydrochloride

> <PUBCHEM_IUPAC_TRADITIONAL_NAME>
N-[4-[[2-(4-chlorophenyl)cyclopropyl]methyl-propyl-amino]butyl]-4-(2-pyridyl)benzamide;hydrochloride

> <PUBCHEM_IUPAC_INCHI>
InChI=1S/C29H34ClN3O.ClH/c1-2-18-33(21-25-20-27(25)22-12-14-26(30)15-13-22)19-6-5-17-32-29(34)24-10-8-23(9-11-24)28-7-3-4-16-31-28;/h3-4,7-16,25,27H,2,5-6,17-21H2,1H3,(H,32,34);1H

> <PUBCHEM_IUPAC_INCHIKEY>
SOTVBIKTRMBOLN-UHFFFAOYSA-N

> <PUBCHEM_EXACT_MASS>
511.2157181

> <PUBCHEM_MOLECULAR_FORMULA>
C29H35Cl2N3O

> <PUBCHEM_MOLECULAR_WEIGHT>
512.5

> <PUBCHEM_OPENEYE_CAN_SMILES>
CCCN(CCCCNC(=O)C1=CC=C(C=C1)C2=CC=CC=N2)CC3CC3C4=CC=C(C=C4)Cl.Cl

> <PUBCHEM_OPENEYE_ISO_SMILES>
CCCN(CCCCNC(=O)C1=CC=C(C=C1)C2=CC=CC=N2)CC3CC3C4=CC=C(C=C4)Cl.Cl

> <PUBCHEM_CACTVS_TPSA>
45.2

> <PUBCHEM_MONOISOTOPIC_WEIGHT>
511.2157181

> <PUBCHEM_TOTAL_CHARGE>
0

> <PUBCHEM_HEAVY_ATOM_COUNT>
35

> <PUBCHEM_ATOM_DEF_STEREO_COUNT>
0

> <PUBCHEM_ATOM_UDEF_STEREO_COUNT>
2

> <PUBCHEM_BOND_DEF_STEREO_COUNT>
0

> <PUBCHEM_BOND_UDEF_STEREO_COUNT>
0

> <PUBCHEM_ISOTOPIC_ATOM_COUNT>
0

> <PUBCHEM_COMPONENT_COUNT>
2

> <PUBCHEM_CACTVS_TAUTO_COUNT>
-1

> <PUBCHEM_COORDINATE_TYPE>
1
5
255

> <PUBCHEM_BONDANNOTATIONS>
11  14  8
11  15  8
14  18  8
15  19  8
18  20  8
19  20  8
25  26  8
25  27  8
26  28  8
27  29  8
28  30  8
29  30  8
31  32  8
32  33  8
33  35  8
34  35  8
6  31  8
6  34  8
7  10  3
8  11  3

$$$$
