24873454
  -OEChem-09292322252D

 59 62  0     0  0  0  0  0  0999 V2000
   11.2619   -2.1767    0.0000 O   0  0  0  0  0  0  0  0  0  0  0  0
    4.9889   -0.4678    0.0000 O   0  0  0  0  0  0  0  0  0  0  0  0
    4.9889    3.0427    0.0000 O   0  0  0  0  0  0  0  0  0  0  0  0
    9.2619   -0.4446    0.0000 N   0  0  0  0  0  0  0  0  0  0  0  0
   12.2619   -0.4446    0.0000 N   0  0  0  0  0  0  0  0  0  0  0  0
    5.2619    1.2874    0.0000 N   0  0  0  0  0  0  0  0  0  0  0  0
   11.2619   -0.4446    0.0000 C   0  0  0  0  0  0  0  0  0  0  0  0
   10.7619   -1.3106    0.0000 C   0  0  0  0  0  0  0  0  0  0  0  0
   10.7619    0.4214    0.0000 C   0  0  0  0  0  0  0  0  0  0  0  0
    9.7619   -1.3106    0.0000 C   0  0  0  0  0  0  0  0  0  0  0  0
    9.7619    0.4214    0.0000 C   0  0  0  0  0  0  0  0  0  0  0  0
    8.2619   -0.4446    0.0000 C   0  0  0  0  0  0  0  0  0  0  0  0
    7.7619    0.4214    0.0000 C   0  0  0  0  0  0  0  0  0  0  0  0
    6.7619    0.4214    0.0000 C   0  0  0  0  0  0  0  0  0  0  0  0
    6.2619    1.2874    0.0000 C   0  0  0  0  0  0  0  0  0  0  0  0
   12.7619   -1.3106    0.0000 C   0  0  0  0  0  0  0  0  0  0  0  0
   12.2619   -2.1767    0.0000 C   0  0  0  0  0  0  0  0  0  0  0  0
   13.7619   -1.3106    0.0000 C   0  0  0  0  0  0  0  0  0  0  0  0
    4.6783    0.4827    0.0000 C   0  0  0  0  0  0  0  0  0  0  0  0
    4.6783    2.0922    0.0000 C   0  0  0  0  0  0  0  0  0  0  0  0
    3.7320    0.7874    0.0000 C   0  0  0  0  0  0  0  0  0  0  0  0
    3.7320    1.7874    0.0000 C   0  0  0  0  0  0  0  0  0  0  0  0
   12.7619   -3.0427    0.0000 C   0  0  0  0  0  0  0  0  0  0  0  0
   14.2619   -2.1767    0.0000 C   0  0  0  0  0  0  0  0  0  0  0  0
   13.7619   -3.0427    0.0000 C   0  0  0  0  0  0  0  0  0  0  0  0
    2.8660    0.2874    0.0000 C   0  0  0  0  0  0  0  0  0  0  0  0
    2.8660    2.2874    0.0000 C   0  0  0  0  0  0  0  0  0  0  0  0
    2.0000    0.7874    0.0000 C   0  0  0  0  0  0  0  0  0  0  0  0
    2.0000    1.7874    0.0000 C   0  0  0  0  0  0  0  0  0  0  0  0
   10.7619   -3.0427    0.0000 C   0  0  0  0  0  0  0  0  0  0  0  0
   11.5719   -0.9815    0.0000 H   0  0  0  0  0  0  0  0  0  0  0  0
   10.6542   -1.9212    0.0000 H   0  0  0  0  0  0  0  0  0  0  0  0
   11.3445   -1.5227    0.0000 H   0  0  0  0  0  0  0  0  0  0  0  0
   11.3445    0.6335    0.0000 H   0  0  0  0  0  0  0  0  0  0  0  0
   10.6542    1.0320    0.0000 H   0  0  0  0  0  0  0  0  0  0  0  0
    9.1793   -1.5227    0.0000 H   0  0  0  0  0  0  0  0  0  0  0  0
    9.8695   -1.9212    0.0000 H   0  0  0  0  0  0  0  0  0  0  0  0
    9.8695    1.0320    0.0000 H   0  0  0  0  0  0  0  0  0  0  0  0
    9.1793    0.6335    0.0000 H   0  0  0  0  0  0  0  0  0  0  0  0
    7.6793   -0.6567    0.0000 H   0  0  0  0  0  0  0  0  0  0  0  0
    8.3695   -1.0552    0.0000 H   0  0  0  0  0  0  0  0  0  0  0  0
    8.3445    0.6335    0.0000 H   0  0  0  0  0  0  0  0  0  0  0  0
    7.6542    1.0320    0.0000 H   0  0  0  0  0  0  0  0  0  0  0  0
   12.5719    0.0923    0.0000 H   0  0  0  0  0  0  0  0  0  0  0  0
    6.1793    0.2094    0.0000 H   0  0  0  0  0  0  0  0  0  0  0  0
    6.8695   -0.1892    0.0000 H   0  0  0  0  0  0  0  0  0  0  0  0
    6.8445    1.4995    0.0000 H   0  0  0  0  0  0  0  0  0  0  0  0
    6.1542    1.8980    0.0000 H   0  0  0  0  0  0  0  0  0  0  0  0
   14.0719   -0.7737    0.0000 H   0  0  0  0  0  0  0  0  0  0  0  0
   12.4519   -3.5796    0.0000 H   0  0  0  0  0  0  0  0  0  0  0  0
   14.8819   -2.1767    0.0000 H   0  0  0  0  0  0  0  0  0  0  0  0
   14.0719   -3.5796    0.0000 H   0  0  0  0  0  0  0  0  0  0  0  0
    2.8660   -0.3326    0.0000 H   0  0  0  0  0  0  0  0  0  0  0  0
    2.8660    2.9074    0.0000 H   0  0  0  0  0  0  0  0  0  0  0  0
    1.4631    0.4774    0.0000 H   0  0  0  0  0  0  0  0  0  0  0  0
    1.4631    2.0974    0.0000 H   0  0  0  0  0  0  0  0  0  0  0  0
   10.2249   -2.7327    0.0000 H   0  0  0  0  0  0  0  0  0  0  0  0
   10.4519   -3.5796    0.0000 H   0  0  0  0  0  0  0  0  0  0  0  0
   11.2988   -3.3527    0.0000 H   0  0  0  0  0  0  0  0  0  0  0  0
  1 17  1  0  0  0  0
  1 30  1  0  0  0  0
  2 19  2  0  0  0  0
  3 20  2  0  0  0  0
  4 10  1  0  0  0  0
  4 11  1  0  0  0  0
  4 12  1  0  0  0  0
  5  7  1  0  0  0  0
  5 16  1  0  0  0  0
  5 44  1  0  0  0  0
  6 15  1  0  0  0  0
  6 19  1  0  0  0  0
  6 20  1  0  0  0  0
  7  8  1  0  0  0  0
  7  9  1  0  0  0  0
  7 31  1  0  0  0  0
  8 10  1  0  0  0  0
  8 32  1  0  0  0  0
  8 33  1  0  0  0  0
  9 11  1  0  0  0  0
  9 34  1  0  0  0  0
  9 35  1  0  0  0  0
 10 36  1  0  0  0  0
 10 37  1  0  0  0  0
 11 38  1  0  0  0  0
 11 39  1  0  0  0  0
 12 13  1  0  0  0  0
 12 40  1  0  0  0  0
 12 41  1  0  0  0  0
 13 14  1  0  0  0  0
 13 42  1  0  0  0  0
 13 43  1  0  0  0  0
 14 15  1  0  0  0  0
 14 45  1  0  0  0  0
 14 46  1  0  0  0  0
 15 47  1  0  0  0  0
 15 48  1  0  0  0  0
 16 17  1  0  0  0  0
 16 18  2  0  0  0  0
 17 23  2  0  0  0  0
 18 24  1  0  0  0  0
 18 49  1  0  0  0  0
 19 21  1  0  0  0  0
 20 22  1  0  0  0  0
 21 22  1  0  0  0  0
 21 26  2  0  0  0  0
 22 27  2  0  0  0  0
 23 25  1  0  0  0  0
 23 50  1  0  0  0  0
 24 25  2  0  0  0  0
 24 51  1  0  0  0  0
 25 52  1  0  0  0  0
 26 28  1  0  0  0  0
 26 53  1  0  0  0  0
 27 29  1  0  0  0  0
 27 54  1  0  0  0  0
 28 29  2  0  0  0  0
 28 55  1  0  0  0  0
 29 56  1  0  0  0  0
 30 57  1  0  0  0  0
 30 58  1  0  0  0  0
 30 59  1  0  0  0  0
M  END
> <PUBCHEM_COMPOUND_CID>
24873454

> <PUBCHEM_COMPOUND_CANONICALIZED>
1

> <PUBCHEM_CACTVS_COMPLEXITY>
566

> <PUBCHEM_CACTVS_HBOND_ACCEPTOR>
5

> <PUBCHEM_CACTVS_HBOND_DONOR>
1

> <PUBCHEM_CACTVS_ROTATABLE_BOND>
8

> <PUBCHEM_CACTVS_SUBSKEYS>
AAADceB7MAAAAAAAAAAAAAAAAAAAAWAAAAA8YIAAAAAAAFgBQAAAHgAQAAAADCzBmAYyxoPABACIAiVSUACCCAAlIgAIiIEPbMgOJjLE9ZuFMShk1jHY6YedyICOgAAAAAAQEAAAAAAAACAgAAAAAAAAAA==

> <PUBCHEM_IUPAC_OPENEYE_NAME>
2-[4-[4-(2-methoxyanilino)-1-piperidyl]butyl]isoindoline-1,3-dione

> <PUBCHEM_IUPAC_CAS_NAME>
2-[4-[4-(2-methoxyanilino)-1-piperidinyl]butyl]isoindole-1,3-dione

> <PUBCHEM_IUPAC_NAME_MARKUP>
2-[4-[4-(2-methoxyanilino)piperidin-1-yl]butyl]isoindole-1,3-dione

> <PUBCHEM_IUPAC_NAME>
2-[4-[4-(2-methoxyanilino)piperidin-1-yl]butyl]isoindole-1,3-dione

> <PUBCHEM_IUPAC_SYSTEMATIC_NAME>
2-[4-[4-[(2-methoxyphenyl)amino]piperidin-1-yl]butyl]isoindole-1,3-dione

> <PUBCHEM_IUPAC_TRADITIONAL_NAME>
2-[4-[4-(o-anisidino)piperidino]butyl]isoindoline-1,3-quinone

> <PUBCHEM_IUPAC_INCHI>
InChI=1S/C24H29N3O3/c1-30-22-11-5-4-10-21(22)25-18-12-16-26(17-13-18)14-6-7-15-27-23(28)19-8-2-3-9-20(19)24(27)29/h2-5,8-11,18,25H,6-7,12-17H2,1H3

> <PUBCHEM_IUPAC_INCHIKEY>
LKZRXKGEHQPMRS-UHFFFAOYSA-N

> <PUBCHEM_XLOGP3_AA>
3.9

> <PUBCHEM_EXACT_MASS>
407.22089180

> <PUBCHEM_MOLECULAR_FORMULA>
C24H29N3O3

> <PUBCHEM_MOLECULAR_WEIGHT>
407.5

> <PUBCHEM_OPENEYE_CAN_SMILES>
COC1=CC=CC=C1NC2CCN(CC2)CCCCN3C(=O)C4=CC=CC=C4C3=O

> <PUBCHEM_OPENEYE_ISO_SMILES>
COC1=CC=CC=C1NC2CCN(CC2)CCCCN3C(=O)C4=CC=CC=C4C3=O

> <PUBCHEM_CACTVS_TPSA>
61.9

> <PUBCHEM_MONOISOTOPIC_WEIGHT>
407.22089180

> <PUBCHEM_TOTAL_CHARGE>
0

> <PUBCHEM_HEAVY_ATOM_COUNT>
30

> <PUBCHEM_ATOM_DEF_STEREO_COUNT>
0

> <PUBCHEM_ATOM_UDEF_STEREO_COUNT>
0

> <PUBCHEM_BOND_DEF_STEREO_COUNT>
0

> <PUBCHEM_BOND_UDEF_STEREO_COUNT>
0

> <PUBCHEM_ISOTOPIC_ATOM_COUNT>
0

> <PUBCHEM_COMPONENT_COUNT>
1

> <PUBCHEM_CACTVS_TAUTO_COUNT>
-1

> <PUBCHEM_COORDINATE_TYPE>
1
5
255

> <PUBCHEM_BONDANNOTATIONS>
16  17  8
16  18  8
17  23  8
18  24  8
21  22  8
21  26  8
22  27  8
23  25  8
24  25  8
26  28  8
27  29  8
28  29  8

$$$$
