57400557
  -OEChem-09292322322D

 76 79  0     0  0  0  0  0  0999 V2000
   17.4970    3.0499    0.0000 O   0  0  0  0  0  0  0  0  0  0  0  0
   10.3833   -1.9895    0.0000 O   0  0  0  0  0  0  0  0  0  0  0  0
    6.3301   -3.9890    0.0000 O   0  0  0  0  0  0  0  0  0  0  0  0
    3.7320   -3.4890    0.0000 O   0  0  0  0  0  0  0  0  0  0  0  0
   14.9186    0.7364    0.0000 N   0  0  0  0  0  0  0  0  0  0  0  0
   15.5399    2.6375    0.0000 N   0  0  0  0  0  0  0  0  0  0  0  0
   12.0296   -2.5276    0.0000 N   0  0  0  0  0  0  0  0  0  0  0  0
    9.7942   -4.9890    0.0000 N   0  0  0  0  0  0  0  0  0  0  0  0
   10.7404   -5.2938    0.0000 N   0  0  0  0  0  0  0  0  0  0  0  0
   15.8971    0.9427    0.0000 C   0  0  0  0  0  0  0  0  0  0  0  0
   14.2508    1.4807    0.0000 C   0  0  0  0  0  0  0  0  0  0  0  0
   16.2078    1.8932    0.0000 C   0  0  0  0  0  0  0  0  0  0  0  0
   14.5614    2.4313    0.0000 C   0  0  0  0  0  0  0  0  0  0  0  0
   14.6080   -0.2141    0.0000 C   0  0  0  0  0  0  0  0  0  0  0  0
   13.6294   -0.4203    0.0000 C   0  0  0  0  0  0  0  0  0  0  0  0
   15.8506    3.5880    0.0000 C   0  0  0  0  0  0  0  0  0  0  0  0
   13.3188   -1.3708    0.0000 C   0  0  0  0  0  0  0  0  0  0  0  0
   12.3403   -1.5770    0.0000 C   0  0  0  0  0  0  0  0  0  0  0  0
   16.8291    3.7942    0.0000 C   0  0  0  0  0  0  0  0  0  0  0  0
   15.1828    4.3323    0.0000 C   0  0  0  0  0  0  0  0  0  0  0  0
   17.1398    4.7447    0.0000 C   0  0  0  0  0  0  0  0  0  0  0  0
   15.4934    5.2828    0.0000 C   0  0  0  0  0  0  0  0  0  0  0  0
   16.4719    5.4890    0.0000 C   0  0  0  0  0  0  0  0  0  0  0  0
   11.0511   -2.7338    0.0000 C   0  0  0  0  0  0  0  0  0  0  0  0
   10.7404   -3.6843    0.0000 C   0  0  0  0  0  0  0  0  0  0  0  0
    9.7942   -3.9890    0.0000 C   0  0  0  0  0  0  0  0  0  0  0  0
   18.4755    3.2561    0.0000 C   0  0  0  0  0  0  0  0  0  0  0  0
   11.3241   -4.4890    0.0000 C   0  0  0  0  0  0  0  0  0  0  0  0
    8.9282   -3.4890    0.0000 C   0  0  0  0  0  0  0  0  0  0  0  0
    8.0622   -3.9890    0.0000 C   0  0  0  0  0  0  0  0  0  0  0  0
    8.9282   -5.4890    0.0000 C   0  0  0  0  0  0  0  0  0  0  0  0
    8.0622   -4.9890    0.0000 C   0  0  0  0  0  0  0  0  0  0  0  0
    7.1962   -3.4890    0.0000 C   0  0  0  0  0  0  0  0  0  0  0  0
    5.4641   -3.4890    0.0000 C   0  0  0  0  0  0  0  0  0  0  0  0
    4.5981   -3.9890    0.0000 C   0  0  0  0  0  0  0  0  0  0  0  0
    2.8660   -3.9890    0.0000 C   0  0  0  0  0  0  0  0  0  0  0  0
    2.0000   -3.4890    0.0000 C   0  0  0  0  0  0  0  0  0  0  0  0
   15.9177    0.3230    0.0000 H   0  0  0  0  0  0  0  0  0  0  0  0
   16.5109    0.8553    0.0000 H   0  0  0  0  0  0  0  0  0  0  0  0
   13.7038    1.7728    0.0000 H   0  0  0  0  0  0  0  0  0  0  0  0
   13.8682    0.9928    0.0000 H   0  0  0  0  0  0  0  0  0  0  0  0
   16.7547    1.6012    0.0000 H   0  0  0  0  0  0  0  0  0  0  0  0
   16.5903    2.3811    0.0000 H   0  0  0  0  0  0  0  0  0  0  0  0
   14.5409    3.0509    0.0000 H   0  0  0  0  0  0  0  0  0  0  0  0
   13.9476    2.5186    0.0000 H   0  0  0  0  0  0  0  0  0  0  0  0
   14.6285   -0.8337    0.0000 H   0  0  0  0  0  0  0  0  0  0  0  0
   15.2218   -0.3014    0.0000 H   0  0  0  0  0  0  0  0  0  0  0  0
   13.6089    0.1994    0.0000 H   0  0  0  0  0  0  0  0  0  0  0  0
   13.0156   -0.3330    0.0000 H   0  0  0  0  0  0  0  0  0  0  0  0
   13.3393   -1.9905    0.0000 H   0  0  0  0  0  0  0  0  0  0  0  0
   13.9326   -1.4582    0.0000 H   0  0  0  0  0  0  0  0  0  0  0  0
   12.3197   -0.9574    0.0000 H   0  0  0  0  0  0  0  0  0  0  0  0
   11.7265   -1.4897    0.0000 H   0  0  0  0  0  0  0  0  0  0  0  0
   14.5761    4.2044    0.0000 H   0  0  0  0  0  0  0  0  0  0  0  0
   12.4437   -2.9890    0.0000 H   0  0  0  0  0  0  0  0  0  0  0  0
   17.7464    4.8726    0.0000 H   0  0  0  0  0  0  0  0  0  0  0  0
   15.0794    5.7443    0.0000 H   0  0  0  0  0  0  0  0  0  0  0  0
   16.6645    6.0784    0.0000 H   0  0  0  0  0  0  0  0  0  0  0  0
   18.6033    2.6495    0.0000 H   0  0  0  0  0  0  0  0  0  0  0  0
   19.0821    3.3840    0.0000 H   0  0  0  0  0  0  0  0  0  0  0  0
   18.3476    3.8628    0.0000 H   0  0  0  0  0  0  0  0  0  0  0  0
    8.9282   -2.8690    0.0000 H   0  0  0  0  0  0  0  0  0  0  0  0
   11.9441   -4.4890    0.0000 H   0  0  0  0  0  0  0  0  0  0  0  0
    8.9282   -6.1090    0.0000 H   0  0  0  0  0  0  0  0  0  0  0  0
    7.5252   -5.2990    0.0000 H   0  0  0  0  0  0  0  0  0  0  0  0
    7.5947   -3.0141    0.0000 H   0  0  0  0  0  0  0  0  0  0  0  0
    6.7976   -3.0141    0.0000 H   0  0  0  0  0  0  0  0  0  0  0  0
    5.8626   -3.0141    0.0000 H   0  0  0  0  0  0  0  0  0  0  0  0
    5.0656   -3.0141    0.0000 H   0  0  0  0  0  0  0  0  0  0  0  0
    4.1996   -4.4640    0.0000 H   0  0  0  0  0  0  0  0  0  0  0  0
    4.9966   -4.4640    0.0000 H   0  0  0  0  0  0  0  0  0  0  0  0
    2.4675   -4.4640    0.0000 H   0  0  0  0  0  0  0  0  0  0  0  0
    3.2646   -4.4640    0.0000 H   0  0  0  0  0  0  0  0  0  0  0  0
    2.3100   -2.9521    0.0000 H   0  0  0  0  0  0  0  0  0  0  0  0
    1.4631   -3.1790    0.0000 H   0  0  0  0  0  0  0  0  0  0  0  0
    1.6900   -4.0260    0.0000 H   0  0  0  0  0  0  0  0  0  0  0  0
  1 19  1  0  0  0  0
  1 27  1  0  0  0  0
  2 24  2  0  0  0  0
  3 33  1  0  0  0  0
  3 34  1  0  0  0  0
  4 35  1  0  0  0  0
  4 36  1  0  0  0  0
  5 10  1  0  0  0  0
  5 11  1  0  0  0  0
  5 14  1  0  0  0  0
  6 12  1  0  0  0  0
  6 13  1  0  0  0  0
  6 16  1  0  0  0  0
  7 18  1  0  0  0  0
  7 24  1  0  0  0  0
  7 55  1  0  0  0  0
  8  9  1  0  0  0  0
  8 26  1  0  0  0  0
  8 31  1  0  0  0  0
  9 28  2  0  0  0  0
 10 12  1  0  0  0  0
 10 38  1  0  0  0  0
 10 39  1  0  0  0  0
 11 13  1  0  0  0  0
 11 40  1  0  0  0  0
 11 41  1  0  0  0  0
 12 42  1  0  0  0  0
 12 43  1  0  0  0  0
 13 44  1  0  0  0  0
 13 45  1  0  0  0  0
 14 15  1  0  0  0  0
 14 46  1  0  0  0  0
 14 47  1  0  0  0  0
 15 17  1  0  0  0  0
 15 48  1  0  0  0  0
 15 49  1  0  0  0  0
 16 19  1  0  0  0  0
 16 20  2  0  0  0  0
 17 18  1  0  0  0  0
 17 50  1  0  0  0  0
 17 51  1  0  0  0  0
 18 52  1  0  0  0  0
 18 53  1  0  0  0  0
 19 21  2  0  0  0  0
 20 22  1  0  0  0  0
 20 54  1  0  0  0  0
 21 23  1  0  0  0  0
 21 56  1  0  0  0  0
 22 23  2  0  0  0  0
 22 57  1  0  0  0  0
 23 58  1  0  0  0  0
 24 25  1  0  0  0  0
 25 26  2  0  0  0  0
 25 28  1  0  0  0  0
 26 29  1  0  0  0  0
 27 59  1  0  0  0  0
 27 60  1  0  0  0  0
 27 61  1  0  0  0  0
 28 63  1  0  0  0  0
 29 30  2  0  0  0  0
 29 62  1  0  0  0  0
 30 32  1  0  0  0  0
 30 33  1  0  0  0  0
 31 32  2  0  0  0  0
 31 64  1  0  0  0  0
 32 65  1  0  0  0  0
 33 66  1  0  0  0  0
 33 67  1  0  0  0  0
 34 35  1  0  0  0  0
 34 68  1  0  0  0  0
 34 69  1  0  0  0  0
 35 70  1  0  0  0  0
 35 71  1  0  0  0  0
 36 37  1  0  0  0  0
 36 72  1  0  0  0  0
 36 73  1  0  0  0  0
 37 74  1  0  0  0  0
 37 75  1  0  0  0  0
 37 76  1  0  0  0  0
M  END
> <PUBCHEM_COMPOUND_CID>
57400557

> <PUBCHEM_COMPOUND_CANONICALIZED>
1

> <PUBCHEM_CACTVS_COMPLEXITY>
663

> <PUBCHEM_CACTVS_HBOND_ACCEPTOR>
7

> <PUBCHEM_CACTVS_HBOND_DONOR>
1

> <PUBCHEM_CACTVS_ROTATABLE_BOND>
14

> <PUBCHEM_CACTVS_SUBSKEYS>
AAADcfB7uAAAAAAAAAAAAAAAAAAAAWAAAAA8WIAAAAAAAFgB8AAAHgAYAAAADAzhngY+xrPIFACqAzV3VACSjCA1oiAY2KE/bNgPZvrE9duXtahk3hHa6ce4yFCOAAAAAAAAEAAAAAAAAAAgAAAAAAAAAA==

> <PUBCHEM_IUPAC_OPENEYE_NAME>
5-(2-ethoxyethoxymethyl)-N-[4-[4-(2-methoxyphenyl)piperazin-1-yl]butyl]pyrazolo[1,5-a]pyridine-3-carboxamide

> <PUBCHEM_IUPAC_CAS_NAME>
5-(2-ethoxyethoxymethyl)-N-[4-[4-(2-methoxyphenyl)-1-piperazinyl]butyl]-3-pyrazolo[1,5-a]pyridinecarboxamide

> <PUBCHEM_IUPAC_NAME_MARKUP>
5-(2-ethoxyethoxymethyl)-<I>N</I>-[4-[4-(2-methoxyphenyl)piperazin-1-yl]butyl]pyrazolo[1,5-a]pyridine-3-carboxamide

> <PUBCHEM_IUPAC_NAME>
5-(2-ethoxyethoxymethyl)-N-[4-[4-(2-methoxyphenyl)piperazin-1-yl]butyl]pyrazolo[1,5-a]pyridine-3-carboxamide

> <PUBCHEM_IUPAC_SYSTEMATIC_NAME>
5-(2-ethoxyethoxymethyl)-N-[4-[4-(2-methoxyphenyl)piperazin-1-yl]butyl]pyrazolo[1,5-a]pyridine-3-carboxamide

> <PUBCHEM_IUPAC_TRADITIONAL_NAME>
5-(2-ethoxyethoxymethyl)-N-[4-[4-(2-methoxyphenyl)piperazino]butyl]pyrazolo[1,5-a]pyridine-3-carboxamide

> <PUBCHEM_IUPAC_INCHI>
InChI=1S/C28H39N5O4/c1-3-36-18-19-37-22-23-10-13-33-26(20-23)24(21-30-33)28(34)29-11-6-7-12-31-14-16-32(17-15-31)25-8-4-5-9-27(25)35-2/h4-5,8-10,13,20-21H,3,6-7,11-12,14-19,22H2,1-2H3,(H,29,34)

> <PUBCHEM_IUPAC_INCHIKEY>
WCIPIDQYCIFSCP-UHFFFAOYSA-N

> <PUBCHEM_XLOGP3_AA>
2.5

> <PUBCHEM_EXACT_MASS>
509.30020474

> <PUBCHEM_MOLECULAR_FORMULA>
C28H39N5O4

> <PUBCHEM_MOLECULAR_WEIGHT>
509.6

> <PUBCHEM_OPENEYE_CAN_SMILES>
CCOCCOCC1=CC2=C(C=NN2C=C1)C(=O)NCCCCN3CCN(CC3)C4=CC=CC=C4OC

> <PUBCHEM_OPENEYE_ISO_SMILES>
CCOCCOCC1=CC2=C(C=NN2C=C1)C(=O)NCCCCN3CCN(CC3)C4=CC=CC=C4OC

> <PUBCHEM_CACTVS_TPSA>
80.6

> <PUBCHEM_MONOISOTOPIC_WEIGHT>
509.30020474

> <PUBCHEM_TOTAL_CHARGE>
0

> <PUBCHEM_HEAVY_ATOM_COUNT>
37

> <PUBCHEM_ATOM_DEF_STEREO_COUNT>
0

> <PUBCHEM_ATOM_UDEF_STEREO_COUNT>
0

> <PUBCHEM_BOND_DEF_STEREO_COUNT>
0

> <PUBCHEM_BOND_UDEF_STEREO_COUNT>
0

> <PUBCHEM_ISOTOPIC_ATOM_COUNT>
0

> <PUBCHEM_COMPONENT_COUNT>
1

> <PUBCHEM_CACTVS_TAUTO_COUNT>
-1

> <PUBCHEM_COORDINATE_TYPE>
1
5
255

> <PUBCHEM_BONDANNOTATIONS>
16  19  8
16  20  8
19  21  8
20  22  8
21  23  8
22  23  8
25  26  8
25  28  8
26  29  8
29  30  8
30  32  8
31  32  8
8  26  8
8  31  8
8  9  8
9  28  8

$$$$
