118719803
  -OEChem-09292322362D

 59 62  0     0  0  0  0  0  0999 V2000
    9.5303   -3.9715    0.0000 O   0  0  0  0  0  0  0  0  0  0  0  0
    2.9945    3.4400    0.0000 O   0  0  0  0  0  0  0  0  0  0  0  0
    7.7983   -0.9715    0.0000 N   0  0  0  0  0  0  0  0  0  0  0  0
    7.7983   -2.9715    0.0000 N   0  0  0  0  0  0  0  0  0  0  0  0
    4.9836    3.2309    0.0000 N   0  0  0  0  0  0  0  0  0  0  0  0
    5.1527    1.6217    0.0000 N   0  0  0  0  0  0  0  0  0  0  0  0
    4.4836    2.3649    0.0000 N   0  0  0  0  0  0  0  0  0  0  0  0
    8.6643   -1.4715    0.0000 C   0  0  0  0  0  0  0  0  0  0  0  0
    6.9323   -1.4715    0.0000 C   0  0  0  0  0  0  0  0  0  0  0  0
    8.6643   -2.4715    0.0000 C   0  0  0  0  0  0  0  0  0  0  0  0
    6.9323   -2.4715    0.0000 C   0  0  0  0  0  0  0  0  0  0  0  0
    7.7983    0.0285    0.0000 C   0  0  0  0  0  0  0  0  0  0  0  0
    6.9323    0.5285    0.0000 C   0  0  0  0  0  0  0  0  0  0  0  0
    7.7983   -3.9715    0.0000 C   0  0  0  0  0  0  0  0  0  0  0  0
    6.9323    1.5285    0.0000 C   0  0  0  0  0  0  0  0  0  0  0  0
    8.6643   -4.4715    0.0000 C   0  0  0  0  0  0  0  0  0  0  0  0
    6.9323   -4.4715    0.0000 C   0  0  0  0  0  0  0  0  0  0  0  0
    6.0662    2.0285    0.0000 C   0  0  0  0  0  0  0  0  0  0  0  0
    8.6643   -5.4715    0.0000 C   0  0  0  0  0  0  0  0  0  0  0  0
    6.9323   -5.4715    0.0000 C   0  0  0  0  0  0  0  0  0  0  0  0
    5.9617    3.0230    0.0000 C   0  0  0  0  0  0  0  0  0  0  0  0
    7.7983   -5.9715    0.0000 C   0  0  0  0  0  0  0  0  0  0  0  0
    4.5768    4.1444    0.0000 C   0  0  0  0  0  0  0  0  0  0  0  0
   10.3964   -4.4715    0.0000 C   0  0  0  0  0  0  0  0  0  0  0  0
    3.5823    4.2490    0.0000 C   0  0  0  0  0  0  0  0  0  0  0  0
    5.1646    4.9535    0.0000 C   0  0  0  0  0  0  0  0  0  0  0  0
    3.1756    5.1625    0.0000 C   0  0  0  0  0  0  0  0  0  0  0  0
    4.7579    5.8670    0.0000 C   0  0  0  0  0  0  0  0  0  0  0  0
    3.7634    5.9715    0.0000 C   0  0  0  0  0  0  0  0  0  0  0  0
    2.0000    3.5445    0.0000 C   0  0  0  0  0  0  0  0  0  0  0  0
    9.2749   -1.5792    0.0000 H   0  0  0  0  0  0  0  0  0  0  0  0
    8.8764   -0.8889    0.0000 H   0  0  0  0  0  0  0  0  0  0  0  0
    6.7202   -0.8889    0.0000 H   0  0  0  0  0  0  0  0  0  0  0  0
    6.3217   -1.5792    0.0000 H   0  0  0  0  0  0  0  0  0  0  0  0
    8.8764   -3.0541    0.0000 H   0  0  0  0  0  0  0  0  0  0  0  0
    9.2749   -2.3639    0.0000 H   0  0  0  0  0  0  0  0  0  0  0  0
    6.3217   -2.3639    0.0000 H   0  0  0  0  0  0  0  0  0  0  0  0
    6.7202   -3.0541    0.0000 H   0  0  0  0  0  0  0  0  0  0  0  0
    8.4089   -0.0792    0.0000 H   0  0  0  0  0  0  0  0  0  0  0  0
    8.0104    0.6111    0.0000 H   0  0  0  0  0  0  0  0  0  0  0  0
    6.3217    0.6361    0.0000 H   0  0  0  0  0  0  0  0  0  0  0  0
    6.7202   -0.0541    0.0000 H   0  0  0  0  0  0  0  0  0  0  0  0
    7.5428    1.4208    0.0000 H   0  0  0  0  0  0  0  0  0  0  0  0
    7.1443    2.1111    0.0000 H   0  0  0  0  0  0  0  0  0  0  0  0
    6.3953   -4.1615    0.0000 H   0  0  0  0  0  0  0  0  0  0  0  0
    9.2012   -5.7815    0.0000 H   0  0  0  0  0  0  0  0  0  0  0  0
    6.3953   -5.7815    0.0000 H   0  0  0  0  0  0  0  0  0  0  0  0
    6.4225    3.4378    0.0000 H   0  0  0  0  0  0  0  0  0  0  0  0
    7.7983   -6.5915    0.0000 H   0  0  0  0  0  0  0  0  0  0  0  0
   10.0864   -5.0085    0.0000 H   0  0  0  0  0  0  0  0  0  0  0  0
   10.9333   -4.7815    0.0000 H   0  0  0  0  0  0  0  0  0  0  0  0
   10.7064   -3.9346    0.0000 H   0  0  0  0  0  0  0  0  0  0  0  0
    5.7812    4.8886    0.0000 H   0  0  0  0  0  0  0  0  0  0  0  0
    2.5590    5.2273    0.0000 H   0  0  0  0  0  0  0  0  0  0  0  0
    5.1223    6.3686    0.0000 H   0  0  0  0  0  0  0  0  0  0  0  0
    3.5112    6.5379    0.0000 H   0  0  0  0  0  0  0  0  0  0  0  0
    2.0648    4.1611    0.0000 H   0  0  0  0  0  0  0  0  0  0  0  0
    1.3834    3.6093    0.0000 H   0  0  0  0  0  0  0  0  0  0  0  0
    1.9352    2.9279    0.0000 H   0  0  0  0  0  0  0  0  0  0  0  0
  1 16  1  0  0  0  0
  1 24  1  0  0  0  0
  2 25  1  0  0  0  0
  2 30  1  0  0  0  0
  3  8  1  0  0  0  0
  3  9  1  0  0  0  0
  3 12  1  0  0  0  0
  4 10  1  0  0  0  0
  4 11  1  0  0  0  0
  4 14  1  0  0  0  0
  5  7  1  0  0  0  0
  5 21  1  0  0  0  0
  5 23  1  0  0  0  0
  6  7  2  0  0  0  0
  6 18  1  0  0  0  0
  8 10  1  0  0  0  0
  8 31  1  0  0  0  0
  8 32  1  0  0  0  0
  9 11  1  0  0  0  0
  9 33  1  0  0  0  0
  9 34  1  0  0  0  0
 10 35  1  0  0  0  0
 10 36  1  0  0  0  0
 11 37  1  0  0  0  0
 11 38  1  0  0  0  0
 12 13  1  0  0  0  0
 12 39  1  0  0  0  0
 12 40  1  0  0  0  0
 13 15  1  0  0  0  0
 13 41  1  0  0  0  0
 13 42  1  0  0  0  0
 14 16  1  0  0  0  0
 14 17  2  0  0  0  0
 15 18  1  0  0  0  0
 15 43  1  0  0  0  0
 15 44  1  0  0  0  0
 16 19  2  0  0  0  0
 17 20  1  0  0  0  0
 17 45  1  0  0  0  0
 18 21  2  0  0  0  0
 19 22  1  0  0  0  0
 19 46  1  0  0  0  0
 20 22  2  0  0  0  0
 20 47  1  0  0  0  0
 21 48  1  0  0  0  0
 22 49  1  0  0  0  0
 23 25  1  0  0  0  0
 23 26  2  0  0  0  0
 24 50  1  0  0  0  0
 24 51  1  0  0  0  0
 24 52  1  0  0  0  0
 25 27  2  0  0  0  0
 26 28  1  0  0  0  0
 26 53  1  0  0  0  0
 27 29  1  0  0  0  0
 27 54  1  0  0  0  0
 28 29  2  0  0  0  0
 28 55  1  0  0  0  0
 29 56  1  0  0  0  0
 30 57  1  0  0  0  0
 30 58  1  0  0  0  0
 30 59  1  0  0  0  0
M  END
> <PUBCHEM_COMPOUND_CID>
118719803

> <PUBCHEM_COMPOUND_CANONICALIZED>
1

> <PUBCHEM_CACTVS_COMPLEXITY>
502

> <PUBCHEM_CACTVS_HBOND_ACCEPTOR>
6

> <PUBCHEM_CACTVS_HBOND_DONOR>
0

> <PUBCHEM_CACTVS_ROTATABLE_BOND>
8

> <PUBCHEM_CACTVS_SUBSKEYS>
AAADceB7sAAAAAAAAAAAAAAAAAAAAWAAAAA8YIAAAAAAAAAB0AAAHgAIAAAACAzBlgY+xpMIBACiATRnRACCDCQxsgAYmAA/fIgOZmLEsZuVMChkwBHY6AeQQAAAAAAAAAAAEAAAAAAAAAAgAAAAAAAAAA==

> <PUBCHEM_IUPAC_OPENEYE_NAME>
1-(2-methoxyphenyl)-4-[3-[1-(2-methoxyphenyl)triazol-4-yl]propyl]piperazine

> <PUBCHEM_IUPAC_CAS_NAME>
1-(2-methoxyphenyl)-4-[3-[1-(2-methoxyphenyl)-4-triazolyl]propyl]piperazine

> <PUBCHEM_IUPAC_NAME_MARKUP>
1-(2-methoxyphenyl)-4-[3-[1-(2-methoxyphenyl)triazol-4-yl]propyl]piperazine

> <PUBCHEM_IUPAC_NAME>
1-(2-methoxyphenyl)-4-[3-[1-(2-methoxyphenyl)triazol-4-yl]propyl]piperazine

> <PUBCHEM_IUPAC_SYSTEMATIC_NAME>
1-(2-methoxyphenyl)-4-[3-[1-(2-methoxyphenyl)-1,2,3-triazol-4-yl]propyl]piperazine

> <PUBCHEM_IUPAC_TRADITIONAL_NAME>
1-(2-methoxyphenyl)-4-[3-[1-(2-methoxyphenyl)triazol-4-yl]propyl]piperazine

> <PUBCHEM_IUPAC_INCHI>
InChI=1S/C23H29N5O2/c1-29-22-11-5-3-9-20(22)27-16-14-26(15-17-27)13-7-8-19-18-28(25-24-19)21-10-4-6-12-23(21)30-2/h3-6,9-12,18H,7-8,13-17H2,1-2H3

> <PUBCHEM_IUPAC_INCHIKEY>
XHMOKKQHMCXTBS-UHFFFAOYSA-N

> <PUBCHEM_XLOGP3_AA>
3.6

> <PUBCHEM_EXACT_MASS>
407.23212518

> <PUBCHEM_MOLECULAR_FORMULA>
C23H29N5O2

> <PUBCHEM_MOLECULAR_WEIGHT>
407.5

> <PUBCHEM_OPENEYE_CAN_SMILES>
COC1=CC=CC=C1N2CCN(CC2)CCCC3=CN(N=N3)C4=CC=CC=C4OC

> <PUBCHEM_OPENEYE_ISO_SMILES>
COC1=CC=CC=C1N2CCN(CC2)CCCC3=CN(N=N3)C4=CC=CC=C4OC

> <PUBCHEM_CACTVS_TPSA>
55.6

> <PUBCHEM_MONOISOTOPIC_WEIGHT>
407.23212518

> <PUBCHEM_TOTAL_CHARGE>
0

> <PUBCHEM_HEAVY_ATOM_COUNT>
30

> <PUBCHEM_ATOM_DEF_STEREO_COUNT>
0

> <PUBCHEM_ATOM_UDEF_STEREO_COUNT>
0

> <PUBCHEM_BOND_DEF_STEREO_COUNT>
0

> <PUBCHEM_BOND_UDEF_STEREO_COUNT>
0

> <PUBCHEM_ISOTOPIC_ATOM_COUNT>
0

> <PUBCHEM_COMPONENT_COUNT>
1

> <PUBCHEM_CACTVS_TAUTO_COUNT>
-1

> <PUBCHEM_COORDINATE_TYPE>
1
5
255

> <PUBCHEM_BONDANNOTATIONS>
14  16  8
14  17  8
16  19  8
17  20  8
18  21  8
19  22  8
20  22  8
23  25  8
23  26  8
25  27  8
26  28  8
27  29  8
28  29  8
5  21  8
5  7  8
6  18  8
6  7  8

$$$$
