51354852
  -OEChem-09292322312D

 76 77  0     0  0  0  0  0  0999 V2000
   14.0031   18.6200    0.0000 F   0  0  0  0  0  0  0  0  0  0  0  0
    7.0749    2.6200    0.0000 O   0  0  0  0  0  0  0  0  0  0  0  0
   12.2711    9.6200    0.0000 O   0  0  0  0  0  0  0  0  0  0  0  0
   11.4050   14.1200    0.0000 O   0  0  0  0  0  0  0  0  0  0  0  0
   13.1371   16.1200    0.0000 O   0  0  0  0  0  0  0  0  0  0  0  0
    0.5369    9.5600    0.0000 O   0  0  0  0  0  0  0  0  0  0  0  0
    3.1350    9.0600    0.0000 O   0  0  0  0  0  0  0  0  0  0  0  0
    1.4030    8.0600    0.0000 O   0  0  0  0  0  0  0  0  0  0  0  0
    2.2690   10.5600    0.0000 O   0  0  0  0  0  0  0  0  0  0  0  0
    8.8070    5.6200    0.0000 N   0  0  0  0  0  0  0  0  0  0  0  0
    8.8070    3.6200    0.0000 N   0  0  0  0  0  0  0  0  0  0  0  0
   10.5390    9.6200    0.0000 N   0  0  0  0  0  0  0  0  0  0  0  0
    9.6730    5.1200    0.0000 C   0  0  0  0  0  0  0  0  0  0  0  0
    7.9409    5.1200    0.0000 C   0  0  0  0  0  0  0  0  0  0  0  0
    9.6730    4.1200    0.0000 C   0  0  0  0  0  0  0  0  0  0  0  0
    7.9409    4.1200    0.0000 C   0  0  0  0  0  0  0  0  0  0  0  0
    8.8070    6.6200    0.0000 C   0  0  0  0  0  0  0  0  0  0  0  0
    8.8070    2.6200    0.0000 C   0  0  0  0  0  0  0  0  0  0  0  0
    9.6730    7.1200    0.0000 C   0  0  0  0  0  0  0  0  0  0  0  0
    7.9409    2.1200    0.0000 C   0  0  0  0  0  0  0  0  0  0  0  0
    9.6730    2.1200    0.0000 C   0  0  0  0  0  0  0  0  0  0  0  0
    7.9409    1.1200    0.0000 C   0  0  0  0  0  0  0  0  0  0  0  0
    9.6730    1.1200    0.0000 C   0  0  0  0  0  0  0  0  0  0  0  0
    9.6730    8.1200    0.0000 C   0  0  0  0  0  0  0  0  0  0  0  0
    8.8070    0.6200    0.0000 C   0  0  0  0  0  0  0  0  0  0  0  0
   10.5390    8.6200    0.0000 C   0  0  0  0  0  0  0  0  0  0  0  0
    6.2089    2.1200    0.0000 C   0  0  0  0  0  0  0  0  0  0  0  0
   11.4050   10.1200    0.0000 C   0  0  0  0  0  0  0  0  0  0  0  0
   11.4050   11.1200    0.0000 C   0  0  0  0  0  0  0  0  0  0  0  0
   12.2711   11.6200    0.0000 C   0  0  0  0  0  0  0  0  0  0  0  0
   10.5390   11.6200    0.0000 C   0  0  0  0  0  0  0  0  0  0  0  0
   11.4050   13.1200    0.0000 C   0  0  0  0  0  0  0  0  0  0  0  0
   12.2711   12.6200    0.0000 C   0  0  0  0  0  0  0  0  0  0  0  0
   10.5390   12.6200    0.0000 C   0  0  0  0  0  0  0  0  0  0  0  0
   12.2711   14.6200    0.0000 C   0  0  0  0  0  0  0  0  0  0  0  0
   12.2711   15.6200    0.0000 C   0  0  0  0  0  0  0  0  0  0  0  0
   13.1371   17.1200    0.0000 C   0  0  0  0  0  0  0  0  0  0  0  0
   14.0031   17.6200    0.0000 C   0  0  0  0  0  0  0  0  0  0  0  0
    1.4030    9.0600    0.0000 C   0  0  0  0  0  0  0  0  0  0  0  0
    2.2690    9.5600    0.0000 C   0  0  0  0  0  0  0  0  0  0  0  0
   10.2836    5.0123    0.0000 H   0  0  0  0  0  0  0  0  0  0  0  0
    9.8850    5.7026    0.0000 H   0  0  0  0  0  0  0  0  0  0  0  0
    7.7289    5.7026    0.0000 H   0  0  0  0  0  0  0  0  0  0  0  0
    7.3304    5.0123    0.0000 H   0  0  0  0  0  0  0  0  0  0  0  0
    9.8850    3.5374    0.0000 H   0  0  0  0  0  0  0  0  0  0  0  0
   10.2836    4.2277    0.0000 H   0  0  0  0  0  0  0  0  0  0  0  0
    7.3304    4.2277    0.0000 H   0  0  0  0  0  0  0  0  0  0  0  0
    7.7289    3.5374    0.0000 H   0  0  0  0  0  0  0  0  0  0  0  0
    8.5949    7.2026    0.0000 H   0  0  0  0  0  0  0  0  0  0  0  0
    8.1964    6.5123    0.0000 H   0  0  0  0  0  0  0  0  0  0  0  0
   10.2099    6.8100    0.0000 H   0  0  0  0  0  0  0  0  0  0  0  0
   10.2099    2.4300    0.0000 H   0  0  0  0  0  0  0  0  0  0  0  0
    7.4040    0.8100    0.0000 H   0  0  0  0  0  0  0  0  0  0  0  0
   10.2099    0.8100    0.0000 H   0  0  0  0  0  0  0  0  0  0  0  0
    9.1360    8.4300    0.0000 H   0  0  0  0  0  0  0  0  0  0  0  0
    8.8070    0.0000    0.0000 H   0  0  0  0  0  0  0  0  0  0  0  0
   10.7511    8.0374    0.0000 H   0  0  0  0  0  0  0  0  0  0  0  0
   11.1496    8.7277    0.0000 H   0  0  0  0  0  0  0  0  0  0  0  0
    5.8989    2.6569    0.0000 H   0  0  0  0  0  0  0  0  0  0  0  0
    5.6720    1.8100    0.0000 H   0  0  0  0  0  0  0  0  0  0  0  0
    6.5189    1.5831    0.0000 H   0  0  0  0  0  0  0  0  0  0  0  0
   10.0021    9.9300    0.0000 H   0  0  0  0  0  0  0  0  0  0  0  0
   12.8080   11.3100    0.0000 H   0  0  0  0  0  0  0  0  0  0  0  0
   10.0021   11.3100    0.0000 H   0  0  0  0  0  0  0  0  0  0  0  0
   12.8080   12.9300    0.0000 H   0  0  0  0  0  0  0  0  0  0  0  0
   10.0021   12.9300    0.0000 H   0  0  0  0  0  0  0  0  0  0  0  0
   12.4831   14.0374    0.0000 H   0  0  0  0  0  0  0  0  0  0  0  0
   12.8816   14.7277    0.0000 H   0  0  0  0  0  0  0  0  0  0  0  0
   12.0590   16.2026    0.0000 H   0  0  0  0  0  0  0  0  0  0  0  0
   11.6605   15.5123    0.0000 H   0  0  0  0  0  0  0  0  0  0  0  0
   12.9250   17.7026    0.0000 H   0  0  0  0  0  0  0  0  0  0  0  0
   12.5265   17.0123    0.0000 H   0  0  0  0  0  0  0  0  0  0  0  0
   14.2152   17.0374    0.0000 H   0  0  0  0  0  0  0  0  0  0  0  0
   14.6137   17.7277    0.0000 H   0  0  0  0  0  0  0  0  0  0  0  0
    0.0000    9.2500    0.0000 H   0  0  0  0  0  0  0  0  0  0  0  0
    3.6720    9.3700    0.0000 H   0  0  0  0  0  0  0  0  0  0  0  0
  1 38  1  0  0  0  0
  2 20  1  0  0  0  0
  2 27  1  0  0  0  0
  3 28  2  0  0  0  0
  4 32  1  0  0  0  0
  4 35  1  0  0  0  0
  5 36  1  0  0  0  0
  5 37  1  0  0  0  0
  6 39  1  0  0  0  0
  6 75  1  0  0  0  0
  7 40  1  0  0  0  0
  7 76  1  0  0  0  0
  8 39  2  0  0  0  0
  9 40  2  0  0  0  0
 10 13  1  0  0  0  0
 10 14  1  0  0  0  0
 10 17  1  0  0  0  0
 11 15  1  0  0  0  0
 11 16  1  0  0  0  0
 11 18  1  0  0  0  0
 12 26  1  0  0  0  0
 12 28  1  0  0  0  0
 12 62  1  0  0  0  0
 13 15  1  0  0  0  0
 13 41  1  0  0  0  0
 13 42  1  0  0  0  0
 14 16  1  0  0  0  0
 14 43  1  0  0  0  0
 14 44  1  0  0  0  0
 15 45  1  0  0  0  0
 15 46  1  0  0  0  0
 16 47  1  0  0  0  0
 16 48  1  0  0  0  0
 17 19  1  0  0  0  0
 17 49  1  0  0  0  0
 17 50  1  0  0  0  0
 18 20  1  0  0  0  0
 18 21  2  0  0  0  0
 19 24  2  0  0  0  0
 19 51  1  0  0  0  0
 20 22  2  0  0  0  0
 21 23  1  0  0  0  0
 21 52  1  0  0  0  0
 22 25  1  0  0  0  0
 22 53  1  0  0  0  0
 23 25  2  0  0  0  0
 23 54  1  0  0  0  0
 24 26  1  0  0  0  0
 24 55  1  0  0  0  0
 25 56  1  0  0  0  0
 26 57  1  0  0  0  0
 26 58  1  0  0  0  0
 27 59  1  0  0  0  0
 27 60  1  0  0  0  0
 27 61  1  0  0  0  0
 28 29  1  0  0  0  0
 29 30  2  0  0  0  0
 29 31  1  0  0  0  0
 30 33  1  0  0  0  0
 30 63  1  0  0  0  0
 31 34  2  0  0  0  0
 31 64  1  0  0  0  0
 32 33  2  0  0  0  0
 32 34  1  0  0  0  0
 33 65  1  0  0  0  0
 34 66  1  0  0  0  0
 35 36  1  0  0  0  0
 35 67  1  0  0  0  0
 35 68  1  0  0  0  0
 36 69  1  0  0  0  0
 36 70  1  0  0  0  0
 37 38  1  0  0  0  0
 37 71  1  0  0  0  0
 37 72  1  0  0  0  0
 38 73  1  0  0  0  0
 38 74  1  0  0  0  0
 39 40  1  0  0  0  0
M  END
> <PUBCHEM_COMPOUND_CID>
51354852

> <PUBCHEM_COMPOUND_CANONICALIZED>
1

> <PUBCHEM_CACTVS_COMPLEXITY>
664

> <PUBCHEM_CACTVS_HBOND_ACCEPTOR>
11

> <PUBCHEM_CACTVS_HBOND_DONOR>
3

> <PUBCHEM_CACTVS_ROTATABLE_BOND>
14

> <PUBCHEM_CACTVS_SUBSKEYS>
AAADcfB7PQAAAAAAAAAAAAAAAAAAAAAAAAA8YIAAAAAAAAABQAAAHwAQCAAADAzhmAYyzoPABgCIAiXSWAKCCAAlIgAIiIFPbMgPZjLEtZuXOSjk1hHb6YeY3ALOIAAAAAAAEABAAAAAAAAgAAAAAAAAAA==

> <PUBCHEM_IUPAC_OPENEYE_NAME>
4-[2-(2-fluoroethoxy)ethoxy]-N-[(E)-4-[4-(2-methoxyphenyl)piperazin-1-yl]but-2-enyl]benzamide;oxalic acid

> <PUBCHEM_IUPAC_CAS_NAME>
4-[2-(2-fluoroethoxy)ethoxy]-N-[(E)-4-[4-(2-methoxyphenyl)-1-piperazinyl]but-2-enyl]benzamide;oxalic acid

> <PUBCHEM_IUPAC_NAME_MARKUP>
4-[2-(2-fluoroethoxy)ethoxy]-<I>N</I>-[(<I>E</I>)-4-[4-(2-methoxyphenyl)piperazin-1-yl]but-2-enyl]benzamide;oxalic acid

> <PUBCHEM_IUPAC_NAME>
4-[2-(2-fluoroethoxy)ethoxy]-N-[(E)-4-[4-(2-methoxyphenyl)piperazin-1-yl]but-2-enyl]benzamide;oxalic acid

> <PUBCHEM_IUPAC_SYSTEMATIC_NAME>
ethanedioic acid;4-[2-(2-fluoranylethoxy)ethoxy]-N-[(E)-4-[4-(2-methoxyphenyl)piperazin-1-yl]but-2-enyl]benzamide

> <PUBCHEM_IUPAC_TRADITIONAL_NAME>
4-[2-(2-fluoroethoxy)ethoxy]-N-[(E)-4-[4-(2-methoxyphenyl)piperazino]but-2-enyl]benzamide;oxalic acid

> <PUBCHEM_IUPAC_INCHI>
InChI=1S/C26H34FN3O4.C2H2O4/c1-32-25-7-3-2-6-24(25)30-17-15-29(16-18-30)14-5-4-13-28-26(31)22-8-10-23(11-9-22)34-21-20-33-19-12-27;3-1(4)2(5)6/h2-11H,12-21H2,1H3,(H,28,31);(H,3,4)(H,5,6)/b5-4+;

> <PUBCHEM_IUPAC_INCHIKEY>
BPZQCYPHZMCKAV-FXRZFVDSSA-N

> <PUBCHEM_EXACT_MASS>
561.24864328

> <PUBCHEM_MOLECULAR_FORMULA>
C28H36FN3O8

> <PUBCHEM_MOLECULAR_WEIGHT>
561.6

> <PUBCHEM_OPENEYE_CAN_SMILES>
COC1=CC=CC=C1N2CCN(CC2)CC=CCNC(=O)C3=CC=C(C=C3)OCCOCCF.C(=O)(C(=O)O)O

> <PUBCHEM_OPENEYE_ISO_SMILES>
COC1=CC=CC=C1N2CCN(CC2)C/C=C/CNC(=O)C3=CC=C(C=C3)OCCOCCF.C(=O)(C(=O)O)O

> <PUBCHEM_CACTVS_TPSA>
138

> <PUBCHEM_MONOISOTOPIC_WEIGHT>
561.24864328

> <PUBCHEM_TOTAL_CHARGE>
0

> <PUBCHEM_HEAVY_ATOM_COUNT>
40

> <PUBCHEM_ATOM_DEF_STEREO_COUNT>
0

> <PUBCHEM_ATOM_UDEF_STEREO_COUNT>
0

> <PUBCHEM_BOND_DEF_STEREO_COUNT>
1

> <PUBCHEM_BOND_UDEF_STEREO_COUNT>
0

> <PUBCHEM_ISOTOPIC_ATOM_COUNT>
0

> <PUBCHEM_COMPONENT_COUNT>
2

> <PUBCHEM_CACTVS_TAUTO_COUNT>
-1

> <PUBCHEM_COORDINATE_TYPE>
1
5
255

> <PUBCHEM_BONDANNOTATIONS>
18  20  8
18  21  8
20  22  8
21  23  8
22  25  8
23  25  8
29  30  8
29  31  8
30  33  8
31  34  8
32  33  8
32  34  8

$$$$
