122183770
  -OEChem-09292322362D

 59 62  0     0  0  0  0  0  0999 V2000
   15.7619   -2.2320    0.0000 Cl  0  0  0  0  0  0  0  0  0  0  0  0
   13.7619   -2.2320    0.0000 O   0  0  0  0  0  0  0  0  0  0  0  0
    4.6783    1.2933    0.0000 O   0  0  0  0  0  0  0  0  0  0  0  0
    6.7619    2.9641    0.0000 O   0  0  0  0  0  0  0  0  0  0  0  0
   10.7619   -0.5000    0.0000 N   0  0  0  0  0  0  0  0  0  0  0  0
   12.7619   -0.5000    0.0000 N   0  0  0  0  0  0  0  0  0  0  0  0
    6.7619    1.2320    0.0000 N   0  0  0  0  0  0  0  0  0  0  0  0
   11.2619    0.3660    0.0000 C   0  0  0  0  0  0  0  0  0  0  0  0
   11.2619   -1.3660    0.0000 C   0  0  0  0  0  0  0  0  0  0  0  0
   12.2619    0.3660    0.0000 C   0  0  0  0  0  0  0  0  0  0  0  0
   12.2619   -1.3660    0.0000 C   0  0  0  0  0  0  0  0  0  0  0  0
    9.7619   -0.5000    0.0000 C   0  0  0  0  0  0  0  0  0  0  0  0
    9.2619    0.3660    0.0000 C   0  0  0  0  0  0  0  0  0  0  0  0
   13.7619   -0.5000    0.0000 C   0  0  0  0  0  0  0  0  0  0  0  0
    8.2619    0.3660    0.0000 C   0  0  0  0  0  0  0  0  0  0  0  0
    7.7619    1.2320    0.0000 C   0  0  0  0  0  0  0  0  0  0  0  0
   14.2619   -1.3660    0.0000 C   0  0  0  0  0  0  0  0  0  0  0  0
   14.2619    0.3660    0.0000 C   0  0  0  0  0  0  0  0  0  0  0  0
   15.2619   -1.3660    0.0000 C   0  0  0  0  0  0  0  0  0  0  0  0
   15.2619    0.3660    0.0000 C   0  0  0  0  0  0  0  0  0  0  0  0
   15.7619   -0.5000    0.0000 C   0  0  0  0  0  0  0  0  0  0  0  0
    6.2619    2.0981    0.0000 C   0  0  0  0  0  0  0  0  0  0  0  0
    5.2619    2.0981    0.0000 C   0  0  0  0  0  0  0  0  0  0  0  0
   14.2619   -3.0981    0.0000 C   0  0  0  0  0  0  0  0  0  0  0  0
    4.6783    2.9028    0.0000 C   0  0  0  0  0  0  0  0  0  0  0  0
    3.7320    2.5981    0.0000 C   0  0  0  0  0  0  0  0  0  0  0  0
    3.7320    1.5981    0.0000 C   0  0  0  0  0  0  0  0  0  0  0  0
    2.8660    3.0981    0.0000 C   0  0  0  0  0  0  0  0  0  0  0  0
    2.8660    1.0981    0.0000 C   0  0  0  0  0  0  0  0  0  0  0  0
    2.0000    2.5981    0.0000 C   0  0  0  0  0  0  0  0  0  0  0  0
    2.0000    1.5981    0.0000 C   0  0  0  0  0  0  0  0  0  0  0  0
   11.3695    0.9766    0.0000 H   0  0  0  0  0  0  0  0  0  0  0  0
   10.6793    0.5781    0.0000 H   0  0  0  0  0  0  0  0  0  0  0  0
   10.6793   -1.5781    0.0000 H   0  0  0  0  0  0  0  0  0  0  0  0
   11.3695   -1.9766    0.0000 H   0  0  0  0  0  0  0  0  0  0  0  0
   12.8445    0.5781    0.0000 H   0  0  0  0  0  0  0  0  0  0  0  0
   12.1542    0.9766    0.0000 H   0  0  0  0  0  0  0  0  0  0  0  0
   12.1542   -1.9766    0.0000 H   0  0  0  0  0  0  0  0  0  0  0  0
   12.8445   -1.5781    0.0000 H   0  0  0  0  0  0  0  0  0  0  0  0
    9.1793   -0.7121    0.0000 H   0  0  0  0  0  0  0  0  0  0  0  0
    9.8695   -1.1106    0.0000 H   0  0  0  0  0  0  0  0  0  0  0  0
    9.8445    0.5781    0.0000 H   0  0  0  0  0  0  0  0  0  0  0  0
    9.1542    0.9766    0.0000 H   0  0  0  0  0  0  0  0  0  0  0  0
    7.6793    0.1540    0.0000 H   0  0  0  0  0  0  0  0  0  0  0  0
    8.3695   -0.2446    0.0000 H   0  0  0  0  0  0  0  0  0  0  0  0
    8.3445    1.4441    0.0000 H   0  0  0  0  0  0  0  0  0  0  0  0
    7.6542    1.8426    0.0000 H   0  0  0  0  0  0  0  0  0  0  0  0
   13.9519    0.9030    0.0000 H   0  0  0  0  0  0  0  0  0  0  0  0
    6.4519    0.6951    0.0000 H   0  0  0  0  0  0  0  0  0  0  0  0
   15.5719    0.9030    0.0000 H   0  0  0  0  0  0  0  0  0  0  0  0
   16.3819   -0.5000    0.0000 H   0  0  0  0  0  0  0  0  0  0  0  0
   13.7249   -3.4081    0.0000 H   0  0  0  0  0  0  0  0  0  0  0  0
   14.5719   -3.6350    0.0000 H   0  0  0  0  0  0  0  0  0  0  0  0
   14.7988   -2.7881    0.0000 H   0  0  0  0  0  0  0  0  0  0  0  0
    4.8709    3.4921    0.0000 H   0  0  0  0  0  0  0  0  0  0  0  0
    2.8660    3.7181    0.0000 H   0  0  0  0  0  0  0  0  0  0  0  0
    2.8660    0.4781    0.0000 H   0  0  0  0  0  0  0  0  0  0  0  0
    1.4631    2.9081    0.0000 H   0  0  0  0  0  0  0  0  0  0  0  0
    1.4631    1.2881    0.0000 H   0  0  0  0  0  0  0  0  0  0  0  0
  1 19  1  0  0  0  0
  2 17  1  0  0  0  0
  2 24  1  0  0  0  0
  3 23  1  0  0  0  0
  3 27  1  0  0  0  0
  4 22  2  0  0  0  0
  5  8  1  0  0  0  0
  5  9  1  0  0  0  0
  5 12  1  0  0  0  0
  6 10  1  0  0  0  0
  6 11  1  0  0  0  0
  6 14  1  0  0  0  0
  7 16  1  0  0  0  0
  7 22  1  0  0  0  0
  7 49  1  0  0  0  0
  8 10  1  0  0  0  0
  8 32  1  0  0  0  0
  8 33  1  0  0  0  0
  9 11  1  0  0  0  0
  9 34  1  0  0  0  0
  9 35  1  0  0  0  0
 10 36  1  0  0  0  0
 10 37  1  0  0  0  0
 11 38  1  0  0  0  0
 11 39  1  0  0  0  0
 12 13  1  0  0  0  0
 12 40  1  0  0  0  0
 12 41  1  0  0  0  0
 13 15  1  0  0  0  0
 13 42  1  0  0  0  0
 13 43  1  0  0  0  0
 14 17  2  0  0  0  0
 14 18  1  0  0  0  0
 15 16  1  0  0  0  0
 15 44  1  0  0  0  0
 15 45  1  0  0  0  0
 16 46  1  0  0  0  0
 16 47  1  0  0  0  0
 17 19  1  0  0  0  0
 18 20  2  0  0  0  0
 18 48  1  0  0  0  0
 19 21  2  0  0  0  0
 20 21  1  0  0  0  0
 20 50  1  0  0  0  0
 21 51  1  0  0  0  0
 22 23  1  0  0  0  0
 23 25  2  0  0  0  0
 24 52  1  0  0  0  0
 24 53  1  0  0  0  0
 24 54  1  0  0  0  0
 25 26  1  0  0  0  0
 25 55  1  0  0  0  0
 26 27  1  0  0  0  0
 26 28  2  0  0  0  0
 27 29  2  0  0  0  0
 28 30  1  0  0  0  0
 28 56  1  0  0  0  0
 29 31  1  0  0  0  0
 29 57  1  0  0  0  0
 30 31  2  0  0  0  0
 30 58  1  0  0  0  0
 31 59  1  0  0  0  0
M  END
> <PUBCHEM_COMPOUND_CID>
122183770

> <PUBCHEM_COMPOUND_CANONICALIZED>
1

> <PUBCHEM_CACTVS_COMPLEXITY>
572

> <PUBCHEM_CACTVS_HBOND_ACCEPTOR>
5

> <PUBCHEM_CACTVS_HBOND_DONOR>
1

> <PUBCHEM_CACTVS_ROTATABLE_BOND>
8

> <PUBCHEM_CACTVS_SUBSKEYS>
AAADceB7MAAEAAAAAAAAAAAAAAAAASAAAAA8YIAAAAAAAEgB9AAAHgIQAAAADA7BmCYyxsPABECIAqVSUAKCCAAlJ0AIiIHPb8gOZjPFt7+XOSjk1hHY6YeY36LuAAAAAAIIGAAAAAAABBAwAAAAAAAAAA==

> <PUBCHEM_IUPAC_OPENEYE_NAME>
N-[4-[4-(3-chloro-2-methoxy-phenyl)piperazin-1-yl]butyl]benzofuran-2-carboxamide

> <PUBCHEM_IUPAC_CAS_NAME>
N-[4-[4-(3-chloro-2-methoxyphenyl)-1-piperazinyl]butyl]-2-benzofurancarboxamide

> <PUBCHEM_IUPAC_NAME_MARKUP>
<I>N</I>-[4-[4-(3-chloro-2-methoxyphenyl)piperazin-1-yl]butyl]-1-benzofuran-2-carboxamide

> <PUBCHEM_IUPAC_NAME>
N-[4-[4-(3-chloro-2-methoxyphenyl)piperazin-1-yl]butyl]-1-benzofuran-2-carboxamide

> <PUBCHEM_IUPAC_SYSTEMATIC_NAME>
N-[4-[4-(3-chloranyl-2-methoxy-phenyl)piperazin-1-yl]butyl]-1-benzofuran-2-carboxamide

> <PUBCHEM_IUPAC_TRADITIONAL_NAME>
N-[4-[4-(3-chloro-2-methoxy-phenyl)piperazino]butyl]coumarilamide

> <PUBCHEM_IUPAC_INCHI>
InChI=1S/C24H28ClN3O3/c1-30-23-19(25)8-6-9-20(23)28-15-13-27(14-16-28)12-5-4-11-26-24(29)22-17-18-7-2-3-10-21(18)31-22/h2-3,6-10,17H,4-5,11-16H2,1H3,(H,26,29)

> <PUBCHEM_IUPAC_INCHIKEY>
QPTXJMAVTQKNGM-UHFFFAOYSA-N

> <PUBCHEM_XLOGP3_AA>
4.9

> <PUBCHEM_EXACT_MASS>
441.1819195

> <PUBCHEM_MOLECULAR_FORMULA>
C24H28ClN3O3

> <PUBCHEM_MOLECULAR_WEIGHT>
441.9

> <PUBCHEM_OPENEYE_CAN_SMILES>
COC1=C(C=CC=C1Cl)N2CCN(CC2)CCCCNC(=O)C3=CC4=CC=CC=C4O3

> <PUBCHEM_OPENEYE_ISO_SMILES>
COC1=C(C=CC=C1Cl)N2CCN(CC2)CCCCNC(=O)C3=CC4=CC=CC=C4O3

> <PUBCHEM_CACTVS_TPSA>
58

> <PUBCHEM_MONOISOTOPIC_WEIGHT>
441.1819195

> <PUBCHEM_TOTAL_CHARGE>
0

> <PUBCHEM_HEAVY_ATOM_COUNT>
31

> <PUBCHEM_ATOM_DEF_STEREO_COUNT>
0

> <PUBCHEM_ATOM_UDEF_STEREO_COUNT>
0

> <PUBCHEM_BOND_DEF_STEREO_COUNT>
0

> <PUBCHEM_BOND_UDEF_STEREO_COUNT>
0

> <PUBCHEM_ISOTOPIC_ATOM_COUNT>
0

> <PUBCHEM_COMPONENT_COUNT>
1

> <PUBCHEM_CACTVS_TAUTO_COUNT>
-1

> <PUBCHEM_COORDINATE_TYPE>
1
5
255

> <PUBCHEM_BONDANNOTATIONS>
14  17  8
14  18  8
17  19  8
18  20  8
19  21  8
20  21  8
23  25  8
25  26  8
26  27  8
26  28  8
27  29  8
28  30  8
29  31  8
3  23  8
3  27  8
30  31  8

$$$$
