155519393
  -OEChem-09292322402D

 53 57  0     0  0  0  0  0  0999 V2000
    7.3116   -2.1606    0.0000 O   0  0  0  0  0  0  0  0  0  0  0  0
   13.4088    3.2021    0.0000 O   0  0  0  0  0  0  0  0  0  0  0  0
   13.6091   -0.7702    0.0000 N   0  0  0  0  0  0  0  0  0  0  0  0
    9.5631   -0.7129    0.0000 N   0  0  0  0  0  0  0  0  0  0  0  0
    4.6660   -3.7538    0.0000 N   0  0  0  0  0  0  0  0  0  0  0  0
   12.1399   -0.1130    0.0000 C   0  0  0  0  0  0  0  0  0  0  0  0
   11.1454   -0.0085    0.0000 C   0  0  0  0  0  0  0  0  0  0  0  0
   12.8044    0.6263    0.0000 C   0  0  0  0  0  0  0  0  0  0  0  0
   10.5576   -0.8175    0.0000 C   0  0  0  0  0  0  0  0  0  0  0  0
   13.7173    0.2180    0.0000 C   0  0  0  0  0  0  0  0  0  0  0  0
   12.6362   -0.9743    0.0000 C   0  0  0  0  0  0  0  0  0  0  0  0
    8.9753   -1.5220    0.0000 C   0  0  0  0  0  0  0  0  0  0  0  0
   12.7016    1.6210    0.0000 C   0  0  0  0  0  0  0  0  0  0  0  0
   14.5273    0.8044    0.0000 C   0  0  0  0  0  0  0  0  0  0  0  0
    7.9808   -1.4174    0.0000 C   0  0  0  0  0  0  0  0  0  0  0  0
   13.5117    2.2074    0.0000 C   0  0  0  0  0  0  0  0  0  0  0  0
   14.4245    1.7991    0.0000 C   0  0  0  0  0  0  0  0  0  0  0  0
    6.3981   -1.7538    0.0000 C   0  0  0  0  0  0  0  0  0  0  0  0
    7.4808   -0.5514    0.0000 C   0  0  0  0  0  0  0  0  0  0  0  0
    5.5321   -2.2538    0.0000 C   0  0  0  0  0  0  0  0  0  0  0  0
    6.5026   -0.7593    0.0000 C   0  0  0  0  0  0  0  0  0  0  0  0
    4.6660   -1.7538    0.0000 C   0  0  0  0  0  0  0  0  0  0  0  0
    3.8000   -2.2538    0.0000 C   0  0  0  0  0  0  0  0  0  0  0  0
    3.8000   -3.2538    0.0000 C   0  0  0  0  0  0  0  0  0  0  0  0
    5.5321   -3.2538    0.0000 C   0  0  0  0  0  0  0  0  0  0  0  0
    2.9061   -1.7192    0.0000 C   0  0  0  0  0  0  0  0  0  0  0  0
    2.9061   -3.7885    0.0000 C   0  0  0  0  0  0  0  0  0  0  0  0
    2.0000   -2.2330    0.0000 C   0  0  0  0  0  0  0  0  0  0  0  0
    2.0000   -3.2747    0.0000 C   0  0  0  0  0  0  0  0  0  0  0  0
   14.2189    3.7885    0.0000 C   0  0  0  0  0  0  0  0  0  0  0  0
   11.3163    0.5875    0.0000 H   0  0  0  0  0  0  0  0  0  0  0  0
   10.5881    0.2633    0.0000 H   0  0  0  0  0  0  0  0  0  0  0  0
   10.3867   -1.4135    0.0000 H   0  0  0  0  0  0  0  0  0  0  0  0
   11.1148   -1.0893    0.0000 H   0  0  0  0  0  0  0  0  0  0  0  0
   12.3830   -1.5403    0.0000 H   0  0  0  0  0  0  0  0  0  0  0  0
   14.0684   -1.1866    0.0000 H   0  0  0  0  0  0  0  0  0  0  0  0
    9.3109   -0.1465    0.0000 H   0  0  0  0  0  0  0  0  0  0  0  0
    8.8044   -2.1180    0.0000 H   0  0  0  0  0  0  0  0  0  0  0  0
    9.5325   -1.7938    0.0000 H   0  0  0  0  0  0  0  0  0  0  0  0
   12.1357    1.8742    0.0000 H   0  0  0  0  0  0  0  0  0  0  0  0
   15.0933    0.5512    0.0000 H   0  0  0  0  0  0  0  0  0  0  0  0
   14.9267    2.1627    0.0000 H   0  0  0  0  0  0  0  0  0  0  0  0
    7.7329    0.0150    0.0000 H   0  0  0  0  0  0  0  0  0  0  0  0
    6.0419   -0.3445    0.0000 H   0  0  0  0  0  0  0  0  0  0  0  0
    4.6660   -1.1338    0.0000 H   0  0  0  0  0  0  0  0  0  0  0  0
    6.0690   -3.5638    0.0000 H   0  0  0  0  0  0  0  0  0  0  0  0
    2.9132   -1.0992    0.0000 H   0  0  0  0  0  0  0  0  0  0  0  0
    2.9132   -4.4085    0.0000 H   0  0  0  0  0  0  0  0  0  0  0  0
    1.4643   -1.9210    0.0000 H   0  0  0  0  0  0  0  0  0  0  0  0
    1.4643   -3.5867    0.0000 H   0  0  0  0  0  0  0  0  0  0  0  0
   14.5824    3.2863    0.0000 H   0  0  0  0  0  0  0  0  0  0  0  0
   14.7211    4.1521    0.0000 H   0  0  0  0  0  0  0  0  0  0  0  0
   13.8553    4.2907    0.0000 H   0  0  0  0  0  0  0  0  0  0  0  0
  1 15  1  0  0  0  0
  1 18  1  0  0  0  0
  2 16  1  0  0  0  0
  2 30  1  0  0  0  0
  3 10  1  0  0  0  0
  3 11  1  0  0  0  0
  3 36  1  0  0  0  0
  4  9  1  0  0  0  0
  4 12  1  0  0  0  0
  4 37  1  0  0  0  0
  5 24  1  0  0  0  0
  5 25  2  0  0  0  0
  6  7  1  0  0  0  0
  6  8  1  0  0  0  0
  6 11  2  0  0  0  0
  7  9  1  0  0  0  0
  7 31  1  0  0  0  0
  7 32  1  0  0  0  0
  8 10  2  0  0  0  0
  8 13  1  0  0  0  0
  9 33  1  0  0  0  0
  9 34  1  0  0  0  0
 10 14  1  0  0  0  0
 11 35  1  0  0  0  0
 12 15  1  0  0  0  0
 12 38  1  0  0  0  0
 12 39  1  0  0  0  0
 13 16  2  0  0  0  0
 13 40  1  0  0  0  0
 14 17  2  0  0  0  0
 14 41  1  0  0  0  0
 15 19  2  0  0  0  0
 16 17  1  0  0  0  0
 17 42  1  0  0  0  0
 18 20  1  0  0  0  0
 18 21  2  0  0  0  0
 19 21  1  0  0  0  0
 19 43  1  0  0  0  0
 20 22  2  0  0  0  0
 20 25  1  0  0  0  0
 21 44  1  0  0  0  0
 22 23  1  0  0  0  0
 22 45  1  0  0  0  0
 23 24  1  0  0  0  0
 23 26  2  0  0  0  0
 24 27  2  0  0  0  0
 25 46  1  0  0  0  0
 26 28  1  0  0  0  0
 26 47  1  0  0  0  0
 27 29  1  0  0  0  0
 27 48  1  0  0  0  0
 28 29  2  0  0  0  0
 28 49  1  0  0  0  0
 29 50  1  0  0  0  0
 30 51  1  0  0  0  0
 30 52  1  0  0  0  0
 30 53  1  0  0  0  0
M  END
> <PUBCHEM_COMPOUND_CID>
155519393

> <PUBCHEM_COMPOUND_CANONICALIZED>
1

> <PUBCHEM_CACTVS_COMPLEXITY>
547

> <PUBCHEM_CACTVS_HBOND_ACCEPTOR>
4

> <PUBCHEM_CACTVS_HBOND_DONOR>
2

> <PUBCHEM_CACTVS_ROTATABLE_BOND>
7

> <PUBCHEM_CACTVS_SUBSKEYS>
AAADceB7MAAAAAAAAAAAAAAAAAAAAWJAAAA8YIAAAAAAAFix/gAAHgAQAAAADAzBngY+xvLJlECoA7R3RACCiCA1IiAI2aG+bNgOJvrEtbuHOajm0BHY6ce42fOegEABAAACAAAAgAIAAAQAAAAAAAAAAA==

> <PUBCHEM_IUPAC_OPENEYE_NAME>
2-(5-methoxy-1H-indol-3-yl)-N-[[5-(3-quinolyl)-2-furyl]methyl]ethanamine

> <PUBCHEM_IUPAC_CAS_NAME>
2-(5-methoxy-1H-indol-3-yl)-N-[[5-(3-quinolinyl)-2-furanyl]methyl]ethanamine

> <PUBCHEM_IUPAC_NAME_MARKUP>
2-(5-methoxy-1<I>H</I>-indol-3-yl)-<I>N</I>-[(5-quinolin-3-ylfuran-2-yl)methyl]ethanamine

> <PUBCHEM_IUPAC_NAME>
2-(5-methoxy-1H-indol-3-yl)-N-[(5-quinolin-3-ylfuran-2-yl)methyl]ethanamine

> <PUBCHEM_IUPAC_SYSTEMATIC_NAME>
2-(5-methoxy-1H-indol-3-yl)-N-[(5-quinolin-3-ylfuran-2-yl)methyl]ethanamine

> <PUBCHEM_IUPAC_TRADITIONAL_NAME>
2-(5-methoxy-1H-indol-3-yl)ethyl-[[5-(3-quinolyl)-2-furyl]methyl]amine

> <PUBCHEM_IUPAC_INCHI>
InChI=1S/C25H23N3O2/c1-29-20-6-8-24-22(13-20)18(14-28-24)10-11-26-16-21-7-9-25(30-21)19-12-17-4-2-3-5-23(17)27-15-19/h2-9,12-15,26,28H,10-11,16H2,1H3

> <PUBCHEM_IUPAC_INCHIKEY>
LDFDHYVHCWAUGE-UHFFFAOYSA-N

> <PUBCHEM_XLOGP3_AA>
4.4

> <PUBCHEM_EXACT_MASS>
397.17902698

> <PUBCHEM_MOLECULAR_FORMULA>
C25H23N3O2

> <PUBCHEM_MOLECULAR_WEIGHT>
397.5

> <PUBCHEM_OPENEYE_CAN_SMILES>
COC1=CC2=C(C=C1)NC=C2CCNCC3=CC=C(O3)C4=CC5=CC=CC=C5N=C4

> <PUBCHEM_OPENEYE_ISO_SMILES>
COC1=CC2=C(C=C1)NC=C2CCNCC3=CC=C(O3)C4=CC5=CC=CC=C5N=C4

> <PUBCHEM_CACTVS_TPSA>
63.1

> <PUBCHEM_MONOISOTOPIC_WEIGHT>
397.17902698

> <PUBCHEM_TOTAL_CHARGE>
0

> <PUBCHEM_HEAVY_ATOM_COUNT>
30

> <PUBCHEM_ATOM_DEF_STEREO_COUNT>
0

> <PUBCHEM_ATOM_UDEF_STEREO_COUNT>
0

> <PUBCHEM_BOND_DEF_STEREO_COUNT>
0

> <PUBCHEM_BOND_UDEF_STEREO_COUNT>
0

> <PUBCHEM_ISOTOPIC_ATOM_COUNT>
0

> <PUBCHEM_COMPONENT_COUNT>
1

> <PUBCHEM_CACTVS_TAUTO_COUNT>
-1

> <PUBCHEM_COORDINATE_TYPE>
1
5
255

> <PUBCHEM_BONDANNOTATIONS>
1  15  8
1  18  8
10  14  8
13  16  8
14  17  8
15  19  8
16  17  8
18  21  8
19  21  8
20  22  8
20  25  8
22  23  8
23  24  8
23  26  8
24  27  8
26  28  8
27  29  8
28  29  8
3  10  8
3  11  8
5  24  8
5  25  8
6  11  8
6  8  8
8  10  8
8  13  8

$$$$
