25256816
  -OEChem-09292322232D

 63 66  0     0  0  0  0  0  0999 V2000
    4.9665   -3.2832    0.0000 O   0  0  0  0  0  0  0  0  0  0  0  0
   10.5284    0.9922    0.0000 O   0  0  0  0  0  0  0  0  0  0  0  0
    5.4828    0.1422    0.0000 N   0  0  0  0  0  0  0  0  0  0  0  0
    4.2358   -1.4215    0.0000 N   0  0  0  0  0  0  0  0  0  0  0  0
    9.3309    2.1896    0.0000 N   0  0  0  0  0  0  0  0  0  0  0  0
    5.8481   -0.7887    0.0000 C   0  0  0  0  0  0  0  0  0  0  0  0
    4.4940    0.2912    0.0000 C   0  0  0  0  0  0  0  0  0  0  0  0
    6.1063    0.9240    0.0000 C   0  0  0  0  0  0  0  0  0  0  0  0
    5.2246   -1.5705    0.0000 C   0  0  0  0  0  0  0  0  0  0  0  0
    3.8705   -0.4906    0.0000 C   0  0  0  0  0  0  0  0  0  0  0  0
    7.0951    0.7750    0.0000 C   0  0  0  0  0  0  0  0  0  0  0  0
    7.7186    1.5568    0.0000 C   0  0  0  0  0  0  0  0  0  0  0  0
    8.7074    1.4078    0.0000 C   0  0  0  0  0  0  0  0  0  0  0  0
    8.8970    3.0906    0.0000 C   0  0  0  0  0  0  0  0  0  0  0  0
    3.6123   -2.2033    0.0000 C   0  0  0  0  0  0  0  0  0  0  0  0
    9.3309    3.9916    0.0000 C   0  0  0  0  0  0  0  0  0  0  0  0
   10.3058    4.2141    0.0000 C   0  0  0  0  0  0  0  0  0  0  0  0
   10.3058    1.9671    0.0000 C   0  0  0  0  0  0  0  0  0  0  0  0
   11.0877    3.5906    0.0000 C   0  0  0  0  0  0  0  0  0  0  0  0
   11.0877    2.5906    0.0000 C   0  0  0  0  0  0  0  0  0  0  0  0
    3.9777   -3.1342    0.0000 C   0  0  0  0  0  0  0  0  0  0  0  0
    2.6235   -2.0542    0.0000 C   0  0  0  0  0  0  0  0  0  0  0  0
   11.9816    4.1252    0.0000 C   0  0  0  0  0  0  0  0  0  0  0  0
   11.9816    2.0559    0.0000 C   0  0  0  0  0  0  0  0  0  0  0  0
    3.3542   -3.9160    0.0000 C   0  0  0  0  0  0  0  0  0  0  0  0
    2.0000   -2.8361    0.0000 C   0  0  0  0  0  0  0  0  0  0  0  0
   12.8877    3.6114    0.0000 C   0  0  0  0  0  0  0  0  0  0  0  0
   12.8877    2.5698    0.0000 C   0  0  0  0  0  0  0  0  0  0  0  0
    2.3653   -3.7670    0.0000 C   0  0  0  0  0  0  0  0  0  0  0  0
    5.3318   -4.2141    0.0000 C   0  0  0  0  0  0  0  0  0  0  0  0
    6.2584   -1.2535    0.0000 H   0  0  0  0  0  0  0  0  0  0  0  0
    6.3772   -0.4654    0.0000 H   0  0  0  0  0  0  0  0  0  0  0  0
    4.6914    0.8790    0.0000 H   0  0  0  0  0  0  0  0  0  0  0  0
    3.9495    0.5878    0.0000 H   0  0  0  0  0  0  0  0  0  0  0  0
    6.3037    1.5118    0.0000 H   0  0  0  0  0  0  0  0  0  0  0  0
    5.5618    1.2206    0.0000 H   0  0  0  0  0  0  0  0  0  0  0  0
    5.0272   -2.1582    0.0000 H   0  0  0  0  0  0  0  0  0  0  0  0
    5.7691   -1.8670    0.0000 H   0  0  0  0  0  0  0  0  0  0  0  0
    3.4602   -0.0257    0.0000 H   0  0  0  0  0  0  0  0  0  0  0  0
    3.3414   -0.8139    0.0000 H   0  0  0  0  0  0  0  0  0  0  0  0
    6.8976    0.1873    0.0000 H   0  0  0  0  0  0  0  0  0  0  0  0
    7.6396    0.4785    0.0000 H   0  0  0  0  0  0  0  0  0  0  0  0
    7.9161    2.1445    0.0000 H   0  0  0  0  0  0  0  0  0  0  0  0
    7.1741    1.8534    0.0000 H   0  0  0  0  0  0  0  0  0  0  0  0
    8.5100    0.8201    0.0000 H   0  0  0  0  0  0  0  0  0  0  0  0
    9.2519    1.1113    0.0000 H   0  0  0  0  0  0  0  0  0  0  0  0
    8.4123    3.4772    0.0000 H   0  0  0  0  0  0  0  0  0  0  0  0
    8.4123    2.7040    0.0000 H   0  0  0  0  0  0  0  0  0  0  0  0
    9.3309    4.6116    0.0000 H   0  0  0  0  0  0  0  0  0  0  0  0
    8.7265    4.1295    0.0000 H   0  0  0  0  0  0  0  0  0  0  0  0
   10.7906    4.6006    0.0000 H   0  0  0  0  0  0  0  0  0  0  0  0
   10.0368    4.7727    0.0000 H   0  0  0  0  0  0  0  0  0  0  0  0
    2.3970   -1.4771    0.0000 H   0  0  0  0  0  0  0  0  0  0  0  0
   11.9745    4.7452    0.0000 H   0  0  0  0  0  0  0  0  0  0  0  0
   11.9745    1.4360    0.0000 H   0  0  0  0  0  0  0  0  0  0  0  0
    3.5807   -4.4931    0.0000 H   0  0  0  0  0  0  0  0  0  0  0  0
    1.3869   -2.7437    0.0000 H   0  0  0  0  0  0  0  0  0  0  0  0
   13.4234    3.9235    0.0000 H   0  0  0  0  0  0  0  0  0  0  0  0
   13.4234    2.2577    0.0000 H   0  0  0  0  0  0  0  0  0  0  0  0
    1.9788   -4.2517    0.0000 H   0  0  0  0  0  0  0  0  0  0  0  0
    4.7547   -4.4406    0.0000 H   0  0  0  0  0  0  0  0  0  0  0  0
    5.5583   -4.7912    0.0000 H   0  0  0  0  0  0  0  0  0  0  0  0
    5.9090   -3.9876    0.0000 H   0  0  0  0  0  0  0  0  0  0  0  0
  1 21  1  0  0  0  0
  1 30  1  0  0  0  0
  2 18  2  0  0  0  0
  3  6  1  0  0  0  0
  3  7  1  0  0  0  0
  3  8  1  0  0  0  0
  4  9  1  0  0  0  0
  4 10  1  0  0  0  0
  4 15  1  0  0  0  0
  5 13  1  0  0  0  0
  5 14  1  0  0  0  0
  5 18  1  0  0  0  0
  6  9  1  0  0  0  0
  6 31  1  0  0  0  0
  6 32  1  0  0  0  0
  7 10  1  0  0  0  0
  7 33  1  0  0  0  0
  7 34  1  0  0  0  0
  8 11  1  0  0  0  0
  8 35  1  0  0  0  0
  8 36  1  0  0  0  0
  9 37  1  0  0  0  0
  9 38  1  0  0  0  0
 10 39  1  0  0  0  0
 10 40  1  0  0  0  0
 11 12  1  0  0  0  0
 11 41  1  0  0  0  0
 11 42  1  0  0  0  0
 12 13  1  0  0  0  0
 12 43  1  0  0  0  0
 12 44  1  0  0  0  0
 13 45  1  0  0  0  0
 13 46  1  0  0  0  0
 14 16  1  0  0  0  0
 14 47  1  0  0  0  0
 14 48  1  0  0  0  0
 15 21  1  0  0  0  0
 15 22  2  0  0  0  0
 16 17  1  0  0  0  0
 16 49  1  0  0  0  0
 16 50  1  0  0  0  0
 17 19  1  0  0  0  0
 17 51  1  0  0  0  0
 17 52  1  0  0  0  0
 18 20  1  0  0  0  0
 19 20  1  0  0  0  0
 19 23  2  0  0  0  0
 20 24  2  0  0  0  0
 21 25  2  0  0  0  0
 22 26  1  0  0  0  0
 22 53  1  0  0  0  0
 23 27  1  0  0  0  0
 23 54  1  0  0  0  0
 24 28  1  0  0  0  0
 24 55  1  0  0  0  0
 25 29  1  0  0  0  0
 25 56  1  0  0  0  0
 26 29  2  0  0  0  0
 26 57  1  0  0  0  0
 27 28  2  0  0  0  0
 27 58  1  0  0  0  0
 28 59  1  0  0  0  0
 29 60  1  0  0  0  0
 30 61  1  0  0  0  0
 30 62  1  0  0  0  0
 30 63  1  0  0  0  0
M  END
> <PUBCHEM_COMPOUND_CID>
25256816

> <PUBCHEM_COMPOUND_CANONICALIZED>
1

> <PUBCHEM_CACTVS_COMPLEXITY>
535

> <PUBCHEM_CACTVS_HBOND_ACCEPTOR>
4

> <PUBCHEM_CACTVS_HBOND_DONOR>
0

> <PUBCHEM_CACTVS_ROTATABLE_BOND>
7

> <PUBCHEM_CACTVS_SUBSKEYS>
AAADcfB7MAAAAAAAAAAAAAAAAAAAAAAAAAA8YIAABYAAAAABQAAAHgAAAAAADAzBmAYyxoMABACIAiVSUACCCAAlIgAIiAEPbMgOZjLEtZuVMShkxhHY6YeYyICOgAAAAAAQEAAAAAAAACAgAAAAAAAAAA==

> <PUBCHEM_IUPAC_OPENEYE_NAME>
2-[4-[4-(2-methoxyphenyl)piperazin-1-yl]butyl]-4,5-dihydro-3H-2-benzazepin-1-one

> <PUBCHEM_IUPAC_CAS_NAME>
2-[4-[4-(2-methoxyphenyl)-1-piperazinyl]butyl]-4,5-dihydro-3H-2-benzazepin-1-one

> <PUBCHEM_IUPAC_NAME_MARKUP>
2-[4-[4-(2-methoxyphenyl)piperazin-1-yl]butyl]-4,5-dihydro-3<I>H</I>-2-benzazepin-1-one

> <PUBCHEM_IUPAC_NAME>
2-[4-[4-(2-methoxyphenyl)piperazin-1-yl]butyl]-4,5-dihydro-3H-2-benzazepin-1-one

> <PUBCHEM_IUPAC_SYSTEMATIC_NAME>
2-[4-[4-(2-methoxyphenyl)piperazin-1-yl]butyl]-4,5-dihydro-3H-2-benzazepin-1-one

> <PUBCHEM_IUPAC_TRADITIONAL_NAME>
2-[4-[4-(2-methoxyphenyl)piperazino]butyl]-4,5-dihydro-3H-2-benzazepin-1-one

> <PUBCHEM_IUPAC_INCHI>
InChI=1S/C25H33N3O2/c1-30-24-13-5-4-12-23(24)27-19-17-26(18-20-27)14-6-7-15-28-16-8-10-21-9-2-3-11-22(21)25(28)29/h2-5,9,11-13H,6-8,10,14-20H2,1H3

> <PUBCHEM_IUPAC_INCHIKEY>
USGFBEWNXKQBDG-UHFFFAOYSA-N

> <PUBCHEM_XLOGP3_AA>
4.1

> <PUBCHEM_EXACT_MASS>
407.25727730

> <PUBCHEM_MOLECULAR_FORMULA>
C25H33N3O2

> <PUBCHEM_MOLECULAR_WEIGHT>
407.5

> <PUBCHEM_OPENEYE_CAN_SMILES>
COC1=CC=CC=C1N2CCN(CC2)CCCCN3CCCC4=CC=CC=C4C3=O

> <PUBCHEM_OPENEYE_ISO_SMILES>
COC1=CC=CC=C1N2CCN(CC2)CCCCN3CCCC4=CC=CC=C4C3=O

> <PUBCHEM_CACTVS_TPSA>
36

> <PUBCHEM_MONOISOTOPIC_WEIGHT>
407.25727730

> <PUBCHEM_TOTAL_CHARGE>
0

> <PUBCHEM_HEAVY_ATOM_COUNT>
30

> <PUBCHEM_ATOM_DEF_STEREO_COUNT>
0

> <PUBCHEM_ATOM_UDEF_STEREO_COUNT>
0

> <PUBCHEM_BOND_DEF_STEREO_COUNT>
0

> <PUBCHEM_BOND_UDEF_STEREO_COUNT>
0

> <PUBCHEM_ISOTOPIC_ATOM_COUNT>
0

> <PUBCHEM_COMPONENT_COUNT>
1

> <PUBCHEM_CACTVS_TAUTO_COUNT>
-1

> <PUBCHEM_COORDINATE_TYPE>
1
5
255

> <PUBCHEM_BONDANNOTATIONS>
15  21  8
15  22  8
19  20  8
19  23  8
20  24  8
21  25  8
22  26  8
23  27  8
24  28  8
25  29  8
26  29  8
27  28  8

$$$$
