11316078
  -OEChem-09292322102D

 52 54  0     0  0  0  0  0  0999 V2000
    2.0000   -4.5600    0.0000 Cl  0  0  0  0  0  0  0  0  0  0  0  0
    2.0000   -6.5600    0.0000 Cl  0  0  0  0  0  0  0  0  0  0  0  0
    7.1962    2.4400    0.0000 O   0  0  0  0  0  0  0  0  0  0  0  0
    3.7320   -1.5600    0.0000 N   0  0  0  0  0  0  0  0  0  0  0  0
    3.7320   -3.5600    0.0000 N   0  0  0  0  0  0  0  0  0  0  0  0
    5.4641    2.4400    0.0000 N   0  0  0  0  0  0  0  0  0  0  0  0
    4.5981    5.9400    0.0000 N   0  0  0  0  0  0  0  0  0  0  0  0
    2.8660   -2.0600    0.0000 C   0  0  0  0  0  0  0  0  0  0  0  0
    4.5981   -2.0600    0.0000 C   0  0  0  0  0  0  0  0  0  0  0  0
    2.8660   -3.0600    0.0000 C   0  0  0  0  0  0  0  0  0  0  0  0
    4.5981   -3.0600    0.0000 C   0  0  0  0  0  0  0  0  0  0  0  0
    3.7320   -0.5600    0.0000 C   0  0  0  0  0  0  0  0  0  0  0  0
    3.7320   -4.5600    0.0000 C   0  0  0  0  0  0  0  0  0  0  0  0
    4.5981   -0.0600    0.0000 C   0  0  0  0  0  0  0  0  0  0  0  0
    2.8660   -5.0600    0.0000 C   0  0  0  0  0  0  0  0  0  0  0  0
    4.5981   -5.0600    0.0000 C   0  0  0  0  0  0  0  0  0  0  0  0
    4.5981    0.9400    0.0000 C   0  0  0  0  0  0  0  0  0  0  0  0
    2.8660   -6.0600    0.0000 C   0  0  0  0  0  0  0  0  0  0  0  0
    4.5981   -6.0600    0.0000 C   0  0  0  0  0  0  0  0  0  0  0  0
    3.7320   -6.5600    0.0000 C   0  0  0  0  0  0  0  0  0  0  0  0
    5.4641    1.4400    0.0000 C   0  0  0  0  0  0  0  0  0  0  0  0
    6.3301    2.9400    0.0000 C   0  0  0  0  0  0  0  0  0  0  0  0
    6.3301    3.9400    0.0000 C   0  0  0  0  0  0  0  0  0  0  0  0
    5.4641    4.4400    0.0000 C   0  0  0  0  0  0  0  0  0  0  0  0
    7.1962    4.4400    0.0000 C   0  0  0  0  0  0  0  0  0  0  0  0
    5.4641    5.4400    0.0000 C   0  0  0  0  0  0  0  0  0  0  0  0
    7.1962    5.4400    0.0000 C   0  0  0  0  0  0  0  0  0  0  0  0
    6.3301    5.9400    0.0000 C   0  0  0  0  0  0  0  0  0  0  0  0
    2.6540   -1.4774    0.0000 H   0  0  0  0  0  0  0  0  0  0  0  0
    2.2554   -2.1677    0.0000 H   0  0  0  0  0  0  0  0  0  0  0  0
    5.2087   -2.1677    0.0000 H   0  0  0  0  0  0  0  0  0  0  0  0
    4.8101   -1.4774    0.0000 H   0  0  0  0  0  0  0  0  0  0  0  0
    2.2554   -2.9523    0.0000 H   0  0  0  0  0  0  0  0  0  0  0  0
    2.6540   -3.6426    0.0000 H   0  0  0  0  0  0  0  0  0  0  0  0
    4.8101   -3.6426    0.0000 H   0  0  0  0  0  0  0  0  0  0  0  0
    5.2087   -2.9523    0.0000 H   0  0  0  0  0  0  0  0  0  0  0  0
    3.5200    0.0226    0.0000 H   0  0  0  0  0  0  0  0  0  0  0  0
    3.1215   -0.6677    0.0000 H   0  0  0  0  0  0  0  0  0  0  0  0
    5.1350   -0.3700    0.0000 H   0  0  0  0  0  0  0  0  0  0  0  0
    5.1350   -4.7500    0.0000 H   0  0  0  0  0  0  0  0  0  0  0  0
    4.0611    1.2500    0.0000 H   0  0  0  0  0  0  0  0  0  0  0  0
    5.1350   -6.3700    0.0000 H   0  0  0  0  0  0  0  0  0  0  0  0
    3.7320   -7.1800    0.0000 H   0  0  0  0  0  0  0  0  0  0  0  0
    5.6762    0.8574    0.0000 H   0  0  0  0  0  0  0  0  0  0  0  0
    6.0747    1.5477    0.0000 H   0  0  0  0  0  0  0  0  0  0  0  0
    4.9272    2.7500    0.0000 H   0  0  0  0  0  0  0  0  0  0  0  0
    4.9272    4.1300    0.0000 H   0  0  0  0  0  0  0  0  0  0  0  0
    7.7331    4.1300    0.0000 H   0  0  0  0  0  0  0  0  0  0  0  0
    7.7331    5.7500    0.0000 H   0  0  0  0  0  0  0  0  0  0  0  0
    6.3301    6.5600    0.0000 H   0  0  0  0  0  0  0  0  0  0  0  0
    4.5981    6.5600    0.0000 H   0  0  0  0  0  0  0  0  0  0  0  0
    4.0611    5.6300    0.0000 H   0  0  0  0  0  0  0  0  0  0  0  0
  1 15  1  0  0  0  0
  2 18  1  0  0  0  0
  3 22  2  0  0  0  0
  4  8  1  0  0  0  0
  4  9  1  0  0  0  0
  4 12  1  0  0  0  0
  5 10  1  0  0  0  0
  5 11  1  0  0  0  0
  5 13  1  0  0  0  0
  6 21  1  0  0  0  0
  6 22  1  0  0  0  0
  6 46  1  0  0  0  0
  7 26  1  0  0  0  0
  7 51  1  0  0  0  0
  7 52  1  0  0  0  0
  8 10  1  0  0  0  0
  8 29  1  0  0  0  0
  8 30  1  0  0  0  0
  9 11  1  0  0  0  0
  9 31  1  0  0  0  0
  9 32  1  0  0  0  0
 10 33  1  0  0  0  0
 10 34  1  0  0  0  0
 11 35  1  0  0  0  0
 11 36  1  0  0  0  0
 12 14  1  0  0  0  0
 12 37  1  0  0  0  0
 12 38  1  0  0  0  0
 13 15  2  0  0  0  0
 13 16  1  0  0  0  0
 14 17  2  0  0  0  0
 14 39  1  0  0  0  0
 15 18  1  0  0  0  0
 16 19  2  0  0  0  0
 16 40  1  0  0  0  0
 17 21  1  0  0  0  0
 17 41  1  0  0  0  0
 18 20  2  0  0  0  0
 19 20  1  0  0  0  0
 19 42  1  0  0  0  0
 20 43  1  0  0  0  0
 21 44  1  0  0  0  0
 21 45  1  0  0  0  0
 22 23  1  0  0  0  0
 23 24  2  0  0  0  0
 23 25  1  0  0  0  0
 24 26  1  0  0  0  0
 24 47  1  0  0  0  0
 25 27  2  0  0  0  0
 25 48  1  0  0  0  0
 26 28  2  0  0  0  0
 27 28  1  0  0  0  0
 27 49  1  0  0  0  0
 28 50  1  0  0  0  0
M  END
> <PUBCHEM_COMPOUND_CID>
11316078

> <PUBCHEM_COMPOUND_CANONICALIZED>
1

> <PUBCHEM_CACTVS_COMPLEXITY>
525

> <PUBCHEM_CACTVS_HBOND_ACCEPTOR>
4

> <PUBCHEM_CACTVS_HBOND_DONOR>
2

> <PUBCHEM_CACTVS_ROTATABLE_BOND>
6

> <PUBCHEM_CACTVS_SUBSKEYS>
AAADceB7oAAGAAAAAAAAAAAAAAAAAAAAAAA8YIAAAAAAAAABQAAAHgIQAAAADArBmCQwwIPAAACIAiVSUACCAAAlBwAIisEIZsgIYDLBl5HUIQhglgDIyYcciACOAAAAQAIAABQAAACABAAAKAAAAAAAAA==

> <PUBCHEM_IUPAC_OPENEYE_NAME>
3-amino-N-[(E)-4-[4-(2,3-dichlorophenyl)piperazin-1-yl]but-2-enyl]benzamide

> <PUBCHEM_IUPAC_CAS_NAME>
3-amino-N-[(E)-4-[4-(2,3-dichlorophenyl)-1-piperazinyl]but-2-enyl]benzamide

> <PUBCHEM_IUPAC_NAME_MARKUP>
3-amino-<I>N</I>-[(<I>E</I>)-4-[4-(2,3-dichlorophenyl)piperazin-1-yl]but-2-enyl]benzamide

> <PUBCHEM_IUPAC_NAME>
3-amino-N-[(E)-4-[4-(2,3-dichlorophenyl)piperazin-1-yl]but-2-enyl]benzamide

> <PUBCHEM_IUPAC_SYSTEMATIC_NAME>
3-azanyl-N-[(E)-4-[4-[2,3-bis(chloranyl)phenyl]piperazin-1-yl]but-2-enyl]benzamide

> <PUBCHEM_IUPAC_TRADITIONAL_NAME>
3-amino-N-[(E)-4-[4-(2,3-dichlorophenyl)piperazino]but-2-enyl]benzamide

> <PUBCHEM_IUPAC_INCHI>
InChI=1S/C21H24Cl2N4O/c22-18-7-4-8-19(20(18)23)27-13-11-26(12-14-27)10-2-1-9-25-21(28)16-5-3-6-17(24)15-16/h1-8,15H,9-14,24H2,(H,25,28)/b2-1+

> <PUBCHEM_IUPAC_INCHIKEY>
FWYMLODBNSUZMM-OWOJBTEDSA-N

> <PUBCHEM_XLOGP3_AA>
3.7

> <PUBCHEM_EXACT_MASS>
418.1327168

> <PUBCHEM_MOLECULAR_FORMULA>
C21H24Cl2N4O

> <PUBCHEM_MOLECULAR_WEIGHT>
419.3

> <PUBCHEM_OPENEYE_CAN_SMILES>
C1CN(CCN1CC=CCNC(=O)C2=CC(=CC=C2)N)C3=C(C(=CC=C3)Cl)Cl

> <PUBCHEM_OPENEYE_ISO_SMILES>
C1CN(CCN1C/C=C/CNC(=O)C2=CC(=CC=C2)N)C3=C(C(=CC=C3)Cl)Cl

> <PUBCHEM_CACTVS_TPSA>
61.6

> <PUBCHEM_MONOISOTOPIC_WEIGHT>
418.1327168

> <PUBCHEM_TOTAL_CHARGE>
0

> <PUBCHEM_HEAVY_ATOM_COUNT>
28

> <PUBCHEM_ATOM_DEF_STEREO_COUNT>
0

> <PUBCHEM_ATOM_UDEF_STEREO_COUNT>
0

> <PUBCHEM_BOND_DEF_STEREO_COUNT>
1

> <PUBCHEM_BOND_UDEF_STEREO_COUNT>
0

> <PUBCHEM_ISOTOPIC_ATOM_COUNT>
0

> <PUBCHEM_COMPONENT_COUNT>
1

> <PUBCHEM_CACTVS_TAUTO_COUNT>
-1

> <PUBCHEM_COORDINATE_TYPE>
1
5
255

> <PUBCHEM_BONDANNOTATIONS>
13  15  8
13  16  8
15  18  8
16  19  8
18  20  8
19  20  8
23  24  8
23  25  8
24  26  8
25  27  8
26  28  8
27  28  8

$$$$
