134147124
  -OEChem-09292322382D

 68 71  0     0  0  0  0  0  0999 V2000
    9.9282   -7.0000    0.0000 F   0  0  0  0  0  0  0  0  0  0  0  0
    8.9282   -8.0000    0.0000 F   0  0  0  0  0  0  0  0  0  0  0  0
    7.9282   -7.0000    0.0000 F   0  0  0  0  0  0  0  0  0  0  0  0
    6.3301    0.5000    0.0000 O   0  0  0  0  0  0  0  0  0  0  0  0
    8.9282   -1.0000    0.0000 O   0  0  0  0  0  0  0  0  0  0  0  0
    5.4641    3.0000    0.0000 N   0  0  0  0  0  0  0  0  0  0  0  0
    5.4641    5.0000    0.0000 N   0  0  0  0  0  0  0  0  0  0  0  0
    6.3301    6.5000    0.0000 N   0  0  0  0  0  0  0  0  0  0  0  0
    8.0622   -2.5000    0.0000 N   0  0  0  0  0  0  0  0  0  0  0  0
    6.3301    3.5000    0.0000 C   0  0  0  0  0  0  0  0  0  0  0  0
    4.5981    3.5000    0.0000 C   0  0  0  0  0  0  0  0  0  0  0  0
    6.3301    4.5000    0.0000 C   0  0  0  0  0  0  0  0  0  0  0  0
    4.5981    4.5000    0.0000 C   0  0  0  0  0  0  0  0  0  0  0  0
    5.4641    2.0000    0.0000 C   0  0  0  0  0  0  0  0  0  0  0  0
    5.4641    6.0000    0.0000 C   0  0  0  0  0  0  0  0  0  0  0  0
    6.3301    1.5000    0.0000 C   0  0  0  0  0  0  0  0  0  0  0  0
    4.5981    6.5000    0.0000 C   0  0  0  0  0  0  0  0  0  0  0  0
    3.7320    6.0000    0.0000 C   0  0  0  0  0  0  0  0  0  0  0  0
    4.5981    7.5000    0.0000 C   0  0  0  0  0  0  0  0  0  0  0  0
    7.1962    0.0000    0.0000 C   0  0  0  0  0  0  0  0  0  0  0  0
    6.3301    7.5000    0.0000 C   0  0  0  0  0  0  0  0  0  0  0  0
    5.4641    8.0000    0.0000 C   0  0  0  0  0  0  0  0  0  0  0  0
    7.1962   -1.0000    0.0000 C   0  0  0  0  0  0  0  0  0  0  0  0
    3.7320    5.0000    0.0000 C   0  0  0  0  0  0  0  0  0  0  0  0
    2.8660    6.5000    0.0000 C   0  0  0  0  0  0  0  0  0  0  0  0
    8.0622   -1.5000    0.0000 C   0  0  0  0  0  0  0  0  0  0  0  0
    2.8660    4.5000    0.0000 C   0  0  0  0  0  0  0  0  0  0  0  0
    2.0000    6.0000    0.0000 C   0  0  0  0  0  0  0  0  0  0  0  0
    2.0000    5.0000    0.0000 C   0  0  0  0  0  0  0  0  0  0  0  0
    8.9282   -3.0000    0.0000 C   0  0  0  0  0  0  0  0  0  0  0  0
    8.9282   -4.0000    0.0000 C   0  0  0  0  0  0  0  0  0  0  0  0
    8.0622   -4.5000    0.0000 C   0  0  0  0  0  0  0  0  0  0  0  0
    9.7942   -4.5000    0.0000 C   0  0  0  0  0  0  0  0  0  0  0  0
    8.9282   -6.0000    0.0000 C   0  0  0  0  0  0  0  0  0  0  0  0
    8.0622   -5.5000    0.0000 C   0  0  0  0  0  0  0  0  0  0  0  0
    9.7942   -5.5000    0.0000 C   0  0  0  0  0  0  0  0  0  0  0  0
    8.9282   -7.0000    0.0000 C   0  0  0  0  0  0  0  0  0  0  0  0
    6.5422    2.9174    0.0000 H   0  0  0  0  0  0  0  0  0  0  0  0
    6.9407    3.6077    0.0000 H   0  0  0  0  0  0  0  0  0  0  0  0
    3.9875    3.6077    0.0000 H   0  0  0  0  0  0  0  0  0  0  0  0
    4.3860    2.9174    0.0000 H   0  0  0  0  0  0  0  0  0  0  0  0
    6.9407    4.3923    0.0000 H   0  0  0  0  0  0  0  0  0  0  0  0
    6.5422    5.0826    0.0000 H   0  0  0  0  0  0  0  0  0  0  0  0
    4.3860    5.0826    0.0000 H   0  0  0  0  0  0  0  0  0  0  0  0
    3.9875    4.3923    0.0000 H   0  0  0  0  0  0  0  0  0  0  0  0
    4.8535    2.1077    0.0000 H   0  0  0  0  0  0  0  0  0  0  0  0
    5.2520    1.4174    0.0000 H   0  0  0  0  0  0  0  0  0  0  0  0
    6.9407    1.3923    0.0000 H   0  0  0  0  0  0  0  0  0  0  0  0
    6.5422    2.0826    0.0000 H   0  0  0  0  0  0  0  0  0  0  0  0
    4.0611    7.8100    0.0000 H   0  0  0  0  0  0  0  0  0  0  0  0
    7.8067   -0.1077    0.0000 H   0  0  0  0  0  0  0  0  0  0  0  0
    7.4082    0.5826    0.0000 H   0  0  0  0  0  0  0  0  0  0  0  0
    6.8671    7.8100    0.0000 H   0  0  0  0  0  0  0  0  0  0  0  0
    5.4641    8.6200    0.0000 H   0  0  0  0  0  0  0  0  0  0  0  0
    6.5856   -0.8923    0.0000 H   0  0  0  0  0  0  0  0  0  0  0  0
    6.9841   -1.5826    0.0000 H   0  0  0  0  0  0  0  0  0  0  0  0
    4.2690    4.6900    0.0000 H   0  0  0  0  0  0  0  0  0  0  0  0
    2.8660    7.1200    0.0000 H   0  0  0  0  0  0  0  0  0  0  0  0
    2.8660    3.8800    0.0000 H   0  0  0  0  0  0  0  0  0  0  0  0
    1.4631    6.3100    0.0000 H   0  0  0  0  0  0  0  0  0  0  0  0
    1.4631    4.6900    0.0000 H   0  0  0  0  0  0  0  0  0  0  0  0
    7.5252   -2.8100    0.0000 H   0  0  0  0  0  0  0  0  0  0  0  0
    9.5388   -3.1077    0.0000 H   0  0  0  0  0  0  0  0  0  0  0  0
    9.1403   -2.4174    0.0000 H   0  0  0  0  0  0  0  0  0  0  0  0
    7.5252   -4.1900    0.0000 H   0  0  0  0  0  0  0  0  0  0  0  0
   10.3312   -4.1900    0.0000 H   0  0  0  0  0  0  0  0  0  0  0  0
    7.5252   -5.8100    0.0000 H   0  0  0  0  0  0  0  0  0  0  0  0
   10.3312   -5.8100    0.0000 H   0  0  0  0  0  0  0  0  0  0  0  0
  1 37  1  0  0  0  0
  2 37  1  0  0  0  0
  3 37  1  0  0  0  0
  4 16  1  0  0  0  0
  4 20  1  0  0  0  0
  5 26  2  0  0  0  0
  6 10  1  0  0  0  0
  6 11  1  0  0  0  0
  6 14  1  0  0  0  0
  7 12  1  0  0  0  0
  7 13  1  0  0  0  0
  7 15  1  0  0  0  0
  8 15  1  0  0  0  0
  8 21  2  0  0  0  0
  9 26  1  0  0  0  0
  9 30  1  0  0  0  0
  9 62  1  0  0  0  0
 10 12  1  0  0  0  0
 10 38  1  0  0  0  0
 10 39  1  0  0  0  0
 11 13  1  0  0  0  0
 11 40  1  0  0  0  0
 11 41  1  0  0  0  0
 12 42  1  0  0  0  0
 12 43  1  0  0  0  0
 13 44  1  0  0  0  0
 13 45  1  0  0  0  0
 14 16  1  0  0  0  0
 14 46  1  0  0  0  0
 14 47  1  0  0  0  0
 15 17  2  0  0  0  0
 16 48  1  0  0  0  0
 16 49  1  0  0  0  0
 17 18  1  0  0  0  0
 17 19  1  0  0  0  0
 18 24  2  0  0  0  0
 18 25  1  0  0  0  0
 19 22  2  0  0  0  0
 19 50  1  0  0  0  0
 20 23  1  0  0  0  0
 20 51  1  0  0  0  0
 20 52  1  0  0  0  0
 21 22  1  0  0  0  0
 21 53  1  0  0  0  0
 22 54  1  0  0  0  0
 23 26  1  0  0  0  0
 23 55  1  0  0  0  0
 23 56  1  0  0  0  0
 24 27  1  0  0  0  0
 24 57  1  0  0  0  0
 25 28  2  0  0  0  0
 25 58  1  0  0  0  0
 27 29  2  0  0  0  0
 27 59  1  0  0  0  0
 28 29  1  0  0  0  0
 28 60  1  0  0  0  0
 29 61  1  0  0  0  0
 30 31  1  0  0  0  0
 30 63  1  0  0  0  0
 30 64  1  0  0  0  0
 31 32  2  0  0  0  0
 31 33  1  0  0  0  0
 32 35  1  0  0  0  0
 32 65  1  0  0  0  0
 33 36  2  0  0  0  0
 33 66  1  0  0  0  0
 34 35  2  0  0  0  0
 34 36  1  0  0  0  0
 34 37  1  0  0  0  0
 35 67  1  0  0  0  0
 36 68  1  0  0  0  0
M  END
> <PUBCHEM_COMPOUND_CID>
134147124

> <PUBCHEM_COMPOUND_CANONICALIZED>
1

> <PUBCHEM_CACTVS_COMPLEXITY>
673

> <PUBCHEM_CACTVS_HBOND_ACCEPTOR>
8

> <PUBCHEM_CACTVS_HBOND_DONOR>
1

> <PUBCHEM_CACTVS_ROTATABLE_BOND>
10

> <PUBCHEM_CACTVS_SUBSKEYS>
AAADceB7sYAAAAAAAAAAAAAAAAAAAAAAAAA8eIEAAAAAAAAB0AAAHwAQAAAADADhmhY9sJPIFACoAjN3dACCgCkxAiAJ2KE4ZJiKYObAmZGXIAhqtgLYyCcQgMAOwAAAAAAAAACAAAAAAAAAAAAAAAAAAA==

> <PUBCHEM_IUPAC_OPENEYE_NAME>
3-[2-[4-(3-phenyl-2-pyridyl)piperazin-1-yl]ethoxy]-N-[[4-(trifluoromethyl)phenyl]methyl]propanamide

> <PUBCHEM_IUPAC_CAS_NAME>
3-[2-[4-(3-phenyl-2-pyridinyl)-1-piperazinyl]ethoxy]-N-[[4-(trifluoromethyl)phenyl]methyl]propanamide

> <PUBCHEM_IUPAC_NAME_MARKUP>
3-[2-[4-(3-phenylpyridin-2-yl)piperazin-1-yl]ethoxy]-<I>N</I>-[[4-(trifluoromethyl)phenyl]methyl]propanamide

> <PUBCHEM_IUPAC_NAME>
3-[2-[4-(3-phenylpyridin-2-yl)piperazin-1-yl]ethoxy]-N-[[4-(trifluoromethyl)phenyl]methyl]propanamide

> <PUBCHEM_IUPAC_SYSTEMATIC_NAME>
3-[2-[4-(3-phenylpyridin-2-yl)piperazin-1-yl]ethoxy]-N-[[4-(trifluoromethyl)phenyl]methyl]propanamide

> <PUBCHEM_IUPAC_TRADITIONAL_NAME>
3-[2-[4-(3-phenyl-2-pyridyl)piperazino]ethoxy]-N-[4-(trifluoromethyl)benzyl]propionamide

> <PUBCHEM_IUPAC_INCHI>
InChI=1S/C28H31F3N4O2/c29-28(30,31)24-10-8-22(9-11-24)21-33-26(36)12-19-37-20-18-34-14-16-35(17-15-34)27-25(7-4-13-32-27)23-5-2-1-3-6-23/h1-11,13H,12,14-21H2,(H,33,36)

> <PUBCHEM_IUPAC_INCHIKEY>
HPLCRGYHYQJALL-UHFFFAOYSA-N

> <PUBCHEM_XLOGP3_AA>
4.2

> <PUBCHEM_EXACT_MASS>
512.23991073

> <PUBCHEM_MOLECULAR_FORMULA>
C28H31F3N4O2

> <PUBCHEM_MOLECULAR_WEIGHT>
512.6

> <PUBCHEM_OPENEYE_CAN_SMILES>
C1CN(CCN1CCOCCC(=O)NCC2=CC=C(C=C2)C(F)(F)F)C3=C(C=CC=N3)C4=CC=CC=C4

> <PUBCHEM_OPENEYE_ISO_SMILES>
C1CN(CCN1CCOCCC(=O)NCC2=CC=C(C=C2)C(F)(F)F)C3=C(C=CC=N3)C4=CC=CC=C4

> <PUBCHEM_CACTVS_TPSA>
57.7

> <PUBCHEM_MONOISOTOPIC_WEIGHT>
512.23991073

> <PUBCHEM_TOTAL_CHARGE>
0

> <PUBCHEM_HEAVY_ATOM_COUNT>
37

> <PUBCHEM_ATOM_DEF_STEREO_COUNT>
0

> <PUBCHEM_ATOM_UDEF_STEREO_COUNT>
0

> <PUBCHEM_BOND_DEF_STEREO_COUNT>
0

> <PUBCHEM_BOND_UDEF_STEREO_COUNT>
0

> <PUBCHEM_ISOTOPIC_ATOM_COUNT>
0

> <PUBCHEM_COMPONENT_COUNT>
1

> <PUBCHEM_CACTVS_TAUTO_COUNT>
-1

> <PUBCHEM_COORDINATE_TYPE>
1
5
255

> <PUBCHEM_BONDANNOTATIONS>
15  17  8
17  19  8
18  24  8
18  25  8
19  22  8
21  22  8
24  27  8
25  28  8
27  29  8
28  29  8
31  32  8
31  33  8
32  35  8
33  36  8
34  35  8
34  36  8
8  15  8
8  21  8

$$$$
