126535470
  -OEChem-09292322372D

 57 61  0     1  0  0  0  0  0999 V2000
    9.4372    2.7681    0.0000 S   0  0  0  0  0  0  0  0  0  0  0  0
    2.0000   -0.1888    0.0000 F   0  0  0  0  0  0  0  0  0  0  0  0
    5.2946   -1.2592    0.0000 F   0  0  0  0  0  0  0  0  0  0  0  0
    2.7202   -3.5772    0.0000 F   0  0  0  0  0  0  0  0  0  0  0  0
    3.9563    0.2271    0.0000 N   0  0  3  0  0  0  0  0  0  0  0  0
    6.4372    1.0361    0.0000 N   0  0  3  0  0  0  0  0  0  0  0  0
   11.0250    1.9591    0.0000 N   0  0  0  0  0  0  0  0  0  0  0  0
   11.0250    3.5772    0.0000 N   0  0  0  0  0  0  0  0  0  0  0  0
   11.9760    3.2681    0.0000 N   0  0  0  0  0  0  0  0  0  0  0  0
   13.6986    2.0871    0.0000 N   0  0  0  0  0  0  0  0  0  0  0  0
   13.4895    0.0980    0.0000 N   0  0  0  0  0  0  0  0  0  0  0  0
    4.9074    1.5361    0.0000 C   0  0  3  0  0  0  0  0  0  0  0  0
    4.9074    0.5361    0.0000 C   0  0  3  0  0  0  0  0  0  0  0  0
    5.8536    1.8408    0.0000 C   0  0  0  0  0  0  0  0  0  0  0  0
    3.9563    1.8451    0.0000 C   0  0  0  0  0  0  0  0  0  0  0  0
    5.8536    0.2314    0.0000 C   0  0  0  0  0  0  0  0  0  0  0  0
    3.3685    1.0361    0.0000 C   0  0  0  0  0  0  0  0  0  0  0  0
    7.4372    1.0361    0.0000 C   0  0  0  0  0  0  0  0  0  0  0  0
    3.6473   -0.7240    0.0000 C   0  0  0  0  0  0  0  0  0  0  0  0
    7.9372    1.9021    0.0000 C   0  0  0  0  0  0  0  0  0  0  0  0
    2.6691   -0.9319    0.0000 C   0  0  0  0  0  0  0  0  0  0  0  0
    4.3164   -1.4671    0.0000 C   0  0  0  0  0  0  0  0  0  0  0  0
    8.9372    1.9021    0.0000 C   0  0  0  0  0  0  0  0  0  0  0  0
    2.3601   -1.8830    0.0000 C   0  0  0  0  0  0  0  0  0  0  0  0
    4.0074   -2.4182    0.0000 C   0  0  0  0  0  0  0  0  0  0  0  0
    3.0292   -2.6261    0.0000 C   0  0  0  0  0  0  0  0  0  0  0  0
   10.4372    2.7681    0.0000 C   0  0  0  0  0  0  0  0  0  0  0  0
   11.9760    2.2681    0.0000 C   0  0  0  0  0  0  0  0  0  0  0  0
   10.7159    1.0081    0.0000 C   0  0  0  0  0  0  0  0  0  0  0  0
   12.7850    1.6804    0.0000 C   0  0  0  0  0  0  0  0  0  0  0  0
   12.6805    0.6858    0.0000 C   0  0  0  0  0  0  0  0  0  0  0  0
   14.5076    1.4993    0.0000 C   0  0  0  0  0  0  0  0  0  0  0  0
   14.4031    0.5048    0.0000 C   0  0  0  0  0  0  0  0  0  0  0  0
    4.9082    2.1561    0.0000 H   0  0  0  0  0  0  0  0  0  0  0  0
    4.9082   -0.0839    0.0000 H   0  0  0  0  0  0  0  0  0  0  0  0
    6.3910    2.1500    0.0000 H   0  0  0  0  0  0  0  0  0  0  0  0
    5.6025    2.4077    0.0000 H   0  0  0  0  0  0  0  0  0  0  0  0
    4.2085    2.4115    0.0000 H   0  0  0  0  0  0  0  0  0  0  0  0
    3.4194    2.1551    0.0000 H   0  0  0  0  0  0  0  0  0  0  0  0
    5.6025   -0.3356    0.0000 H   0  0  0  0  0  0  0  0  0  0  0  0
    6.3910   -0.0779    0.0000 H   0  0  0  0  0  0  0  0  0  0  0  0
    2.9078    1.4510    0.0000 H   0  0  0  0  0  0  0  0  0  0  0  0
    2.9078    0.6212    0.0000 H   0  0  0  0  0  0  0  0  0  0  0  0
    7.3295    0.4255    0.0000 H   0  0  0  0  0  0  0  0  0  0  0  0
    8.0198    0.8240    0.0000 H   0  0  0  0  0  0  0  0  0  0  0  0
    8.0448    2.5127    0.0000 H   0  0  0  0  0  0  0  0  0  0  0  0
    7.3546    2.1142    0.0000 H   0  0  0  0  0  0  0  0  0  0  0  0
    8.8295    1.2915    0.0000 H   0  0  0  0  0  0  0  0  0  0  0  0
    9.5198    1.6901    0.0000 H   0  0  0  0  0  0  0  0  0  0  0  0
    1.7537   -2.0119    0.0000 H   0  0  0  0  0  0  0  0  0  0  0  0
    4.4222   -2.8789    0.0000 H   0  0  0  0  0  0  0  0  0  0  0  0
   10.1263    1.1997    0.0000 H   0  0  0  0  0  0  0  0  0  0  0  0
   10.5244    0.4184    0.0000 H   0  0  0  0  0  0  0  0  0  0  0  0
   11.3056    0.8165    0.0000 H   0  0  0  0  0  0  0  0  0  0  0  0
   12.1141    0.4337    0.0000 H   0  0  0  0  0  0  0  0  0  0  0  0
   15.0740    1.7515    0.0000 H   0  0  0  0  0  0  0  0  0  0  0  0
   14.9047    0.1404    0.0000 H   0  0  0  0  0  0  0  0  0  0  0  0
  1 23  1  0  0  0  0
  1 27  1  0  0  0  0
  2 21  1  0  0  0  0
  3 22  1  0  0  0  0
  4 26  1  0  0  0  0
  5 13  1  0  0  0  0
  5 17  1  0  0  0  0
  5 19  1  0  0  0  0
  6 14  1  0  0  0  0
  6 16  1  0  0  0  0
  6 18  1  0  0  0  0
  7 27  1  0  0  0  0
  7 28  1  0  0  0  0
  7 29  1  0  0  0  0
  8  9  1  0  0  0  0
  8 27  2  0  0  0  0
  9 28  2  0  0  0  0
 10 30  2  0  0  0  0
 10 32  1  0  0  0  0
 11 31  2  0  0  0  0
 11 33  1  0  0  0  0
 12 13  1  0  0  0  0
 12 14  1  0  0  0  0
 12 15  1  0  0  0  0
 12 34  1  0  0  0  0
 13 16  1  0  0  0  0
 13 35  1  0  0  0  0
 14 36  1  0  0  0  0
 14 37  1  0  0  0  0
 15 17  1  0  0  0  0
 15 38  1  0  0  0  0
 15 39  1  0  0  0  0
 16 40  1  0  0  0  0
 16 41  1  0  0  0  0
 17 42  1  0  0  0  0
 17 43  1  0  0  0  0
 18 20  1  0  0  0  0
 18 44  1  0  0  0  0
 18 45  1  0  0  0  0
 19 21  2  0  0  0  0
 19 22  1  0  0  0  0
 20 23  1  0  0  0  0
 20 46  1  0  0  0  0
 20 47  1  0  0  0  0
 21 24  1  0  0  0  0
 22 25  2  0  0  0  0
 23 48  1  0  0  0  0
 23 49  1  0  0  0  0
 24 26  2  0  0  0  0
 24 50  1  0  0  0  0
 25 26  1  0  0  0  0
 25 51  1  0  0  0  0
 28 30  1  0  0  0  0
 29 52  1  0  0  0  0
 29 53  1  0  0  0  0
 29 54  1  0  0  0  0
 30 31  1  0  0  0  0
 31 55  1  0  0  0  0
 32 33  2  0  0  0  0
 32 56  1  0  0  0  0
 33 57  1  0  0  0  0
M  END
> <PUBCHEM_COMPOUND_CID>
126535470

> <PUBCHEM_COMPOUND_CANONICALIZED>
1

> <PUBCHEM_CACTVS_COMPLEXITY>
639

> <PUBCHEM_CACTVS_HBOND_ACCEPTOR>
10

> <PUBCHEM_CACTVS_HBOND_DONOR>
0

> <PUBCHEM_CACTVS_ROTATABLE_BOND>
7

> <PUBCHEM_CACTVS_SUBSKEYS>
AAADceB7gYBAAAAAAAAAAAAAAAAAAWLFgAA8QAAAAAAWAAAB8AAAHQQIAAAADSjFVwy/0JcMEAiiATZnZACS0C9xErAd2CA4dJiIaOLg2ZGUIAhgiALIyAcQAAAKAAAAAAAAAAAAAAAAAAAAAAAAAAAAAA==

> <PUBCHEM_IUPAC_OPENEYE_NAME>
5-[3-[(4-methyl-5-pyrazin-2-yl-1,2,4-triazol-3-yl)sulfanyl]propyl]-1-(2,4,6-trifluorophenyl)-2,3,3a,4,6,6a-hexahydropyrrolo[2,3-c]pyrrole

> <PUBCHEM_IUPAC_CAS_NAME>
5-[3-[[4-methyl-5-(2-pyrazinyl)-1,2,4-triazol-3-yl]thio]propyl]-1-(2,4,6-trifluorophenyl)-2,3,3a,4,6,6a-hexahydropyrrolo[2,3-c]pyrrole

> <PUBCHEM_IUPAC_NAME_MARKUP>
5-[3-[(4-methyl-5-pyrazin-2-yl-1,2,4-triazol-3-yl)sulfanyl]propyl]-1-(2,4,6-trifluorophenyl)-2,3,3<I>a</I>,4,6,6<I>a</I>-hexahydropyrrolo[2,3-c]pyrrole

> <PUBCHEM_IUPAC_NAME>
5-[3-[(4-methyl-5-pyrazin-2-yl-1,2,4-triazol-3-yl)sulfanyl]propyl]-1-(2,4,6-trifluorophenyl)-2,3,3a,4,6,6a-hexahydropyrrolo[2,3-c]pyrrole

> <PUBCHEM_IUPAC_SYSTEMATIC_NAME>
5-[3-[(4-methyl-5-pyrazin-2-yl-1,2,4-triazol-3-yl)sulfanyl]propyl]-1-[2,4,6-tris(fluoranyl)phenyl]-2,3,3a,4,6,6a-hexahydropyrrolo[2,3-c]pyrrole

> <PUBCHEM_IUPAC_TRADITIONAL_NAME>
5-[3-[(4-methyl-5-pyrazin-2-yl-1,2,4-triazol-3-yl)thio]propyl]-1-(2,4,6-trifluorophenyl)-2,3,3a,4,6,6a-hexahydropyrrolo[2,3-c]pyrrole

> <PUBCHEM_IUPAC_INCHI>
InChI=1S/C22H24F3N7S/c1-30-21(18-11-26-4-5-27-18)28-29-22(30)33-8-2-6-31-12-14-3-7-32(19(14)13-31)20-16(24)9-15(23)10-17(20)25/h4-5,9-11,14,19H,2-3,6-8,12-13H2,1H3

> <PUBCHEM_IUPAC_INCHIKEY>
CLYNVSXWCAGMQB-UHFFFAOYSA-N

> <PUBCHEM_XLOGP3_AA>
2.6

> <PUBCHEM_EXACT_MASS>
475.17659946

> <PUBCHEM_MOLECULAR_FORMULA>
C22H24F3N7S

> <PUBCHEM_MOLECULAR_WEIGHT>
475.5

> <PUBCHEM_OPENEYE_CAN_SMILES>
CN1C(=NN=C1SCCCN2CC3CCN(C3C2)C4=C(C=C(C=C4F)F)F)C5=NC=CN=C5

> <PUBCHEM_OPENEYE_ISO_SMILES>
CN1C(=NN=C1SCCCN2CC3CCN(C3C2)C4=C(C=C(C=C4F)F)F)C5=NC=CN=C5

> <PUBCHEM_CACTVS_TPSA>
88.3

> <PUBCHEM_MONOISOTOPIC_WEIGHT>
475.17659946

> <PUBCHEM_TOTAL_CHARGE>
0

> <PUBCHEM_HEAVY_ATOM_COUNT>
33

> <PUBCHEM_ATOM_DEF_STEREO_COUNT>
0

> <PUBCHEM_ATOM_UDEF_STEREO_COUNT>
2

> <PUBCHEM_BOND_DEF_STEREO_COUNT>
0

> <PUBCHEM_BOND_UDEF_STEREO_COUNT>
0

> <PUBCHEM_ISOTOPIC_ATOM_COUNT>
0

> <PUBCHEM_COMPONENT_COUNT>
1

> <PUBCHEM_CACTVS_TAUTO_COUNT>
-1

> <PUBCHEM_COORDINATE_TYPE>
1
5
255

> <PUBCHEM_BONDANNOTATIONS>
10  30  8
10  32  8
11  31  8
11  33  8
12  15  3
13  16  3
19  21  8
19  22  8
21  24  8
22  25  8
24  26  8
25  26  8
30  31  8
32  33  8
7  27  8
7  28  8
8  27  8
8  9  8
9  28  8

$$$$
