90656841
  -OEChem-09292322352D

272275  0     1  0  0  0  0  0999 V2000
   33.5540  -13.9058    0.0000 S   0  0  0  0  0  0  0  0  0  0  0  0
    7.1962    4.2948    0.0000 S   0  0  0  0  0  0  0  0  0  0  0  0
    3.7320   10.2948    0.0000 O   0  0  0  0  0  0  0  0  0  0  0  0
   31.9271  -10.2517    0.0000 O   0  0  0  0  0  0  0  0  0  0  0  0
   34.5327   -8.8793    0.0000 O   0  0  0  0  0  0  0  0  0  0  0  0
   32.8385   -9.2394    0.0000 O   0  0  0  0  0  0  0  0  0  0  0  0
    2.8660    8.7948    0.0000 O   0  0  0  0  0  0  0  0  0  0  0  0
    2.8660    6.7948    0.0000 O   0  0  0  0  0  0  0  0  0  0  0  0
   30.5705  -13.5923    0.0000 O   0  0  0  0  0  0  0  0  0  0  0  0
   27.1802  -12.3651    0.0000 O   0  0  0  0  0  0  0  0  0  0  0  0
   26.5477   -8.8155    0.0000 O   0  0  0  0  0  0  0  0  0  0  0  0
    7.4236    2.1312    0.0000 O   0  0  0  0  0  0  0  0  0  0  0  0
   10.6394    3.5630    0.0000 O   0  0  0  0  0  0  0  0  0  0  0  0
   22.9764   -9.3109    0.0000 O   0  0  0  0  0  0  0  0  0  0  0  0
   22.3440   -5.7613    0.0000 O   0  0  0  0  0  0  0  0  0  0  0  0
   18.7726   -6.2567    0.0000 O   0  0  0  0  0  0  0  0  0  0  0  0
   14.5688   -3.2025    0.0000 O   0  0  0  0  0  0  0  0  0  0  0  0
   13.9364    0.3472    0.0000 O   0  0  0  0  0  0  0  0  0  0  0  0
   18.1402   -2.7070    0.0000 O   0  0  0  0  0  0  0  0  0  0  0  0
   23.2021  -11.9470    0.0000 O   0  0  0  0  0  0  0  0  0  0  0  0
   14.7945   -5.8386    0.0000 O   0  0  0  0  0  0  0  0  0  0  0  0
    6.4347   12.7894    0.0000 N   0  0  3  0  0  0  0  0  0  0  0  0
    5.4641   10.2948    0.0000 N   0  0  0  0  0  0  0  0  0  0  0  0
   33.3283  -11.2697    0.0000 N   0  0  0  0  0  0  0  0  0  0  0  0
   30.7515  -11.8697    0.0000 N   0  0  0  0  0  0  0  0  0  0  0  0
   28.7625  -11.6606    0.0000 N   0  0  0  0  0  0  0  0  0  0  0  0
   26.3667  -10.5380    0.0000 N   0  0  0  0  0  0  0  0  0  0  0  0
    9.1448    2.5924    0.0000 N   0  0  0  0  0  0  0  0  0  0  0  0
   24.5587   -8.6064    0.0000 N   0  0  0  0  0  0  0  0  0  0  0  0
   22.1629   -7.4838    0.0000 N   0  0  0  0  0  0  0  0  0  0  0  0
   20.3549   -5.5522    0.0000 N   0  0  0  0  0  0  0  0  0  0  0  0
   13.7554   -1.3754    0.0000 N   0  0  0  0  0  0  0  0  0  0  0  0
   17.9591   -4.4296    0.0000 N   0  0  0  0  0  0  0  0  0  0  0  0
   31.1136   -8.4246    0.0000 N   0  0  0  0  0  0  0  0  0  0  0  0
   16.1511   -2.4980    0.0000 N   0  0  0  0  0  0  0  0  0  0  0  0
   24.6033  -12.9651    0.0000 N   0  0  0  0  0  0  0  0  0  0  0  0
   26.3221   -6.1794    0.0000 N   0  0  0  0  0  0  0  0  0  0  0  0
   19.8118  -10.7199    0.0000 N   0  0  0  0  0  0  0  0  0  0  0  0
   22.1183   -3.1251    0.0000 N   0  0  0  0  0  0  0  0  0  0  0  0
   16.1958   -6.8566    0.0000 N   0  0  0  0  0  0  0  0  0  0  0  0
   27.9044   -5.4749    0.0000 N   0  0  0  0  0  0  0  0  0  0  0  0
   26.5031   -4.4568    0.0000 N   0  0  0  0  0  0  0  0  0  0  0  0
   23.7006   -2.4207    0.0000 N   0  0  0  0  0  0  0  0  0  0  0  0
   22.2993   -1.4026    0.0000 N   0  0  0  0  0  0  0  0  0  0  0  0
    6.3301   11.7948    0.0000 C   0  0  1  0  0  0  0  0  0  0  0  0
    7.2437   11.3881    0.0000 C   0  0  0  0  0  0  0  0  0  0  0  0
    7.9128   12.1312    0.0000 C   0  0  0  0  0  0  0  0  0  0  0  0
    7.4128   12.9973    0.0000 C   0  0  0  0  0  0  0  0  0  0  0  0
    5.4641   11.2948    0.0000 C   0  0  0  0  0  0  0  0  0  0  0  0
    5.6915   13.4585    0.0000 C   0  0  0  0  0  0  0  0  0  0  0  0
    5.8994   14.4366    0.0000 C   0  0  0  0  0  0  0  0  0  0  0  0
   33.9975  -10.5266    0.0000 C   0  0  1  0  0  0  0  0  0  0  0  0
    4.5981    9.7948    0.0000 C   0  0  0  0  0  0  0  0  0  0  0  0
   34.9110  -10.9333    0.0000 C   0  0  0  0  0  0  0  0  0  0  0  0
   34.8065  -11.9278    0.0000 C   0  0  0  0  0  0  0  0  0  0  0  0
   33.8283  -12.1358    0.0000 C   0  0  0  0  0  0  0  0  0  0  0  0
    5.1563   15.1058    0.0000 C   0  0  0  0  0  0  0  0  0  0  0  0
   32.3338  -11.1652    0.0000 C   0  0  0  0  0  0  0  0  0  0  0  0
    4.5981    8.7948    0.0000 C   0  0  0  0  0  0  0  0  0  0  0  0
   31.7460  -11.9742    0.0000 C   0  0  2  0  0  0  0  0  0  0  0  0
   33.7896   -9.5484    0.0000 C   0  0  0  0  0  0  0  0  0  0  0  0
   32.1528  -12.8878    0.0000 C   0  0  0  0  0  0  0  0  0  0  0  0
    5.4641    8.2948    0.0000 C   0  0  0  0  0  0  0  0  0  0  0  0
    3.7320    8.2948    0.0000 C   0  0  0  0  0  0  0  0  0  0  0  0
   29.1692  -12.5742    0.0000 C   0  0  2  0  0  0  0  0  0  0  0  0
    5.4641    7.2948    0.0000 C   0  0  0  0  0  0  0  0  0  0  0  0
   30.1637  -12.6787    0.0000 C   0  0  0  0  0  0  0  0  0  0  0  0
   33.1473  -12.9923    0.0000 C   0  0  0  0  0  0  0  0  0  0  0  0
   28.5814  -13.3832    0.0000 C   0  0  0  0  0  0  0  0  0  0  0  0
    3.7320    7.2948    0.0000 C   0  0  0  0  0  0  0  0  0  0  0  0
    4.5981    6.7948    0.0000 C   0  0  0  0  0  0  0  0  0  0  0  0
    6.3301    6.7948    0.0000 C   0  0  0  0  0  0  0  0  0  0  0  0
   28.9882  -14.2967    0.0000 C   0  0  0  0  0  0  0  0  0  0  0  0
    6.3301    5.7948    0.0000 C   0  0  0  0  0  0  0  0  0  0  0  0
   27.3612  -10.6426    0.0000 C   0  0  2  0  0  0  0  0  0  0  0  0
   27.7680  -11.5561    0.0000 C   0  0  0  0  0  0  0  0  0  0  0  0
   28.4004  -15.1058    0.0000 C   0  0  0  0  0  0  0  0  0  0  0  0
   29.9827  -14.4013    0.0000 C   0  0  0  0  0  0  0  0  0  0  0  0
    7.1962    5.2948    0.0000 C   0  0  0  0  0  0  0  0  0  0  0  0
   27.9490   -9.8336    0.0000 C   0  0  0  0  0  0  0  0  0  0  0  0
    2.0000    8.2948    0.0000 C   0  0  0  0  0  0  0  0  0  0  0  0
   28.9435   -9.9381    0.0000 C   0  0  0  0  0  0  0  0  0  0  0  0
    8.0622    3.7948    0.0000 C   0  0  3  0  0  0  0  0  0  0  0  0
   34.5486  -14.0104    0.0000 C   0  0  0  0  0  0  0  0  0  0  0  0
    8.9757    4.2016    0.0000 C   0  0  0  0  0  0  0  0  0  0  0  0
   24.9654   -9.5200    0.0000 C   0  0  2  0  0  0  0  0  0  0  0  0
    2.8660    5.7948    0.0000 C   0  0  0  0  0  0  0  0  0  0  0  0
   29.5313   -9.1291    0.0000 C   0  0  0  0  0  0  0  0  0  0  0  0
   25.9600   -9.6245    0.0000 C   0  0  0  0  0  0  0  0  0  0  0  0
    8.1667    2.8003    0.0000 C   0  0  0  0  0  0  0  0  0  0  0  0
    9.6448    3.4584    0.0000 C   0  0  0  0  0  0  0  0  0  0  0  0
    9.5516    1.6788    0.0000 C   0  0  0  0  0  0  0  0  0  0  0  0
   24.3776  -10.3290    0.0000 C   0  0  0  0  0  0  0  0  0  0  0  0
   10.5461    1.5743    0.0000 C   0  0  0  0  0  0  0  0  0  0  0  0
   23.1574   -7.5883    0.0000 C   0  0  2  0  0  0  0  0  0  0  0  0
   30.5258   -9.2336    0.0000 C   0  0  0  0  0  0  0  0  0  0  0  0
   10.9528    0.6608    0.0000 C   0  0  0  0  0  0  0  0  0  0  0  0
   20.7617   -6.4657    0.0000 C   0  0  1  0  0  0  0  0  0  0  0  0
   23.5642   -8.5019    0.0000 C   0  0  0  0  0  0  0  0  0  0  0  0
   23.7452   -6.7793    0.0000 C   0  0  0  0  0  0  0  0  0  0  0  0
   24.7844  -11.2425    0.0000 C   0  0  0  0  0  0  0  0  0  0  0  0
   11.9474    0.5562    0.0000 C   0  0  0  0  0  0  0  0  0  0  0  0
   20.1739   -7.2748    0.0000 C   0  0  0  0  0  0  0  0  0  0  0  0
   14.7499   -1.4799    0.0000 C   0  0  1  0  0  0  0  0  0  0  0  0
   18.9537   -4.5341    0.0000 C   0  0  1  0  0  0  0  0  0  0  0  0
   21.7562   -6.5703    0.0000 C   0  0  0  0  0  0  0  0  0  0  0  0
   12.3541   -0.3573    0.0000 C   0  0  0  0  0  0  0  0  0  0  0  0
   15.3377   -0.6709    0.0000 C   0  0  0  0  0  0  0  0  0  0  0  0
   20.5806   -8.1883    0.0000 C   0  0  0  0  0  0  0  0  0  0  0  0
   24.7397   -6.8838    0.0000 C   0  0  0  0  0  0  0  0  0  0  0  0
   16.5579   -3.4115    0.0000 C   0  0  1  0  0  0  0  0  0  0  0  0
   19.5414   -3.7251    0.0000 C   0  0  0  0  0  0  0  0  0  0  0  0
   19.3604   -5.4477    0.0000 C   0  0  0  0  0  0  0  0  0  0  0  0
   15.1566   -2.3934    0.0000 C   0  0  0  0  0  0  0  0  0  0  0  0
   13.3486   -0.4618    0.0000 C   0  0  0  0  0  0  0  0  0  0  0  0
   19.9928   -8.9973    0.0000 C   0  0  0  0  0  0  0  0  0  0  0  0
   15.9701   -4.2205    0.0000 C   0  0  0  0  0  0  0  0  0  0  0  0
   17.5524   -3.5160    0.0000 C   0  0  0  0  0  0  0  0  0  0  0  0
   20.5360   -3.8296    0.0000 C   0  0  0  0  0  0  0  0  0  0  0  0
   24.1966  -12.0515    0.0000 C   0  0  0  0  0  0  0  0  0  0  0  0
   25.3275   -6.0748    0.0000 C   0  0  0  0  0  0  0  0  0  0  0  0
   16.3322   -0.7754    0.0000 C   0  0  0  0  0  0  0  0  0  0  0  0
   14.9309    0.2427    0.0000 C   0  0  0  0  0  0  0  0  0  0  0  0
   16.3768   -5.1341    0.0000 C   0  0  0  0  0  0  0  0  0  0  0  0
   20.3996   -9.9109    0.0000 C   0  0  0  0  0  0  0  0  0  0  0  0
   21.1238   -3.0206    0.0000 C   0  0  0  0  0  0  0  0  0  0  0  0
   15.7890   -5.9431    0.0000 C   0  0  0  0  0  0  0  0  0  0  0  0
   26.9098   -5.3704    0.0000 C   0  0  0  0  0  0  0  0  0  0  0  0
   22.7061   -2.3161    0.0000 C   0  0  0  0  0  0  0  0  0  0  0  0
    5.8102   12.1325    0.0000 H   0  0  0  0  0  0  0  0  0  0  0  0
    6.9337   10.8512    0.0000 H   0  0  0  0  0  0  0  0  0  0  0  0
    7.7453   11.0237    0.0000 H   0  0  0  0  0  0  0  0  0  0  0  0
    8.3277   11.6705    0.0000 H   0  0  0  0  0  0  0  0  0  0  0  0
    8.4144   12.4957    0.0000 H   0  0  0  0  0  0  0  0  0  0  0  0
    7.9792   13.2494    0.0000 H   0  0  0  0  0  0  0  0  0  0  0  0
    7.2212   13.5869    0.0000 H   0  0  0  0  0  0  0  0  0  0  0  0
    5.2520   11.8774    0.0000 H   0  0  0  0  0  0  0  0  0  0  0  0
    4.8535   11.1872    0.0000 H   0  0  0  0  0  0  0  0  0  0  0  0
    5.1167   13.6907    0.0000 H   0  0  0  0  0  0  0  0  0  0  0  0
    5.3630   12.9327    0.0000 H   0  0  0  0  0  0  0  0  0  0  0  0
    6.0010    9.9848    0.0000 H   0  0  0  0  0  0  0  0  0  0  0  0
    6.4891   14.6282    0.0000 H   0  0  0  0  0  0  0  0  0  0  0  0
   33.3986  -10.3661    0.0000 H   0  0  0  0  0  0  0  0  0  0  0  0
   35.5175  -11.0622    0.0000 H   0  0  0  0  0  0  0  0  0  0  0  0
   35.1026  -10.3437    0.0000 H   0  0  0  0  0  0  0  0  0  0  0  0
   34.8713  -12.5445    0.0000 H   0  0  0  0  0  0  0  0  0  0  0  0
   35.4265  -11.9278    0.0000 H   0  0  0  0  0  0  0  0  0  0  0  0
   33.2619  -12.3879    0.0000 H   0  0  0  0  0  0  0  0  0  0  0  0
   34.0199  -12.7254    0.0000 H   0  0  0  0  0  0  0  0  0  0  0  0
    5.2852   15.7122    0.0000 H   0  0  0  0  0  0  0  0  0  0  0  0
    4.5666   14.9142    0.0000 H   0  0  0  0  0  0  0  0  0  0  0  0
   31.4939  -11.4078    0.0000 H   0  0  0  0  0  0  0  0  0  0  0  0
   31.5512  -13.0378    0.0000 H   0  0  0  0  0  0  0  0  0  0  0  0
   32.1960  -13.5063    0.0000 H   0  0  0  0  0  0  0  0  0  0  0  0
    6.0010    8.6048    0.0000 H   0  0  0  0  0  0  0  0  0  0  0  0
   30.4993  -11.3033    0.0000 H   0  0  0  0  0  0  0  0  0  0  0  0
   28.5526  -12.5094    0.0000 H   0  0  0  0  0  0  0  0  0  0  0  0
   33.7489  -12.8423    0.0000 H   0  0  0  0  0  0  0  0  0  0  0  0
   33.1040  -12.3738    0.0000 H   0  0  0  0  0  0  0  0  0  0  0  0
   28.1507  -12.9372    0.0000 H   0  0  0  0  0  0  0  0  0  0  0  0
   28.0674  -13.7299    0.0000 H   0  0  0  0  0  0  0  0  0  0  0  0
    4.5981    6.1748    0.0000 H   0  0  0  0  0  0  0  0  0  0  0  0
    6.9407    6.6872    0.0000 H   0  0  0  0  0  0  0  0  0  0  0  0
    6.5422    7.3774    0.0000 H   0  0  0  0  0  0  0  0  0  0  0  0
   29.2403  -14.8631    0.0000 H   0  0  0  0  0  0  0  0  0  0  0  0
   34.4038   -8.2729    0.0000 H   0  0  0  0  0  0  0  0  0  0  0  0
   29.1269  -11.1590    0.0000 H   0  0  0  0  0  0  0  0  0  0  0  0
    5.7196    5.9025    0.0000 H   0  0  0  0  0  0  0  0  0  0  0  0
    6.1181    5.2122    0.0000 H   0  0  0  0  0  0  0  0  0  0  0  0
   26.9968  -11.1442    0.0000 H   0  0  0  0  0  0  0  0  0  0  0  0
   27.8988  -14.7413    0.0000 H   0  0  0  0  0  0  0  0  0  0  0  0
   28.0359  -15.6074    0.0000 H   0  0  0  0  0  0  0  0  0  0  0  0
   28.9020  -15.4702    0.0000 H   0  0  0  0  0  0  0  0  0  0  0  0
   29.9179  -15.0179    0.0000 H   0  0  0  0  0  0  0  0  0  0  0  0
   30.5993  -14.4661    0.0000 H   0  0  0  0  0  0  0  0  0  0  0  0
   30.0475  -13.7847    0.0000 H   0  0  0  0  0  0  0  0  0  0  0  0
    7.8067    5.1872    0.0000 H   0  0  0  0  0  0  0  0  0  0  0  0
    7.4082    5.8774    0.0000 H   0  0  0  0  0  0  0  0  0  0  0  0
   28.1199   -9.2376    0.0000 H   0  0  0  0  0  0  0  0  0  0  0  0
   27.3917   -9.5618    0.0000 H   0  0  0  0  0  0  0  0  0  0  0  0
    1.6900    8.8318    0.0000 H   0  0  0  0  0  0  0  0  0  0  0  0
    1.4631    7.9848    0.0000 H   0  0  0  0  0  0  0  0  0  0  0  0
    2.3100    7.7579    0.0000 H   0  0  0  0  0  0  0  0  0  0  0  0
   28.7726  -10.5341    0.0000 H   0  0  0  0  0  0  0  0  0  0  0  0
   29.5008  -10.2099    0.0000 H   0  0  0  0  0  0  0  0  0  0  0  0
   26.0023  -11.0396    0.0000 H   0  0  0  0  0  0  0  0  0  0  0  0
    7.5422    3.4572    0.0000 H   0  0  0  0  0  0  0  0  0  0  0  0
   34.4837  -14.6270    0.0000 H   0  0  0  0  0  0  0  0  0  0  0  0
   35.1652  -14.0752    0.0000 H   0  0  0  0  0  0  0  0  0  0  0  0
   34.6134  -13.3938    0.0000 H   0  0  0  0  0  0  0  0  0  0  0  0
    9.4773    4.5660    0.0000 H   0  0  0  0  0  0  0  0  0  0  0  0
    8.6657    4.7385    0.0000 H   0  0  0  0  0  0  0  0  0  0  0  0
   25.3299   -9.0184    0.0000 H   0  0  0  0  0  0  0  0  0  0  0  0
    2.2460    5.7948    0.0000 H   0  0  0  0  0  0  0  0  0  0  0  0
    2.8660    5.1748    0.0000 H   0  0  0  0  0  0  0  0  0  0  0  0
    3.4860    5.7948    0.0000 H   0  0  0  0  0  0  0  0  0  0  0  0
   29.7022   -8.5331    0.0000 H   0  0  0  0  0  0  0  0  0  0  0  0
   28.9741   -8.8573    0.0000 H   0  0  0  0  0  0  0  0  0  0  0  0
    8.9500    1.5289    0.0000 H   0  0  0  0  0  0  0  0  0  0  0  0
    9.5948    1.0604    0.0000 H   0  0  0  0  0  0  0  0  0  0  0  0
   23.9470   -9.8830    0.0000 H   0  0  0  0  0  0  0  0  0  0  0  0
   23.8636  -10.6757    0.0000 H   0  0  0  0  0  0  0  0  0  0  0  0
   11.1477    1.7243    0.0000 H   0  0  0  0  0  0  0  0  0  0  0  0
   10.5029    2.1928    0.0000 H   0  0  0  0  0  0  0  0  0  0  0  0
   22.7930   -8.0899    0.0000 H   0  0  0  0  0  0  0  0  0  0  0  0
   24.9231   -8.1048    0.0000 H   0  0  0  0  0  0  0  0  0  0  0  0
   30.3549   -9.8296    0.0000 H   0  0  0  0  0  0  0  0  0  0  0  0
   31.0831   -9.5054    0.0000 H   0  0  0  0  0  0  0  0  0  0  0  0
   10.3513    0.5108    0.0000 H   0  0  0  0  0  0  0  0  0  0  0  0
   10.9961    0.0423    0.0000 H   0  0  0  0  0  0  0  0  0  0  0  0
   21.1261   -5.9642    0.0000 H   0  0  0  0  0  0  0  0  0  0  0  0
   23.9161   -6.1833    0.0000 H   0  0  0  0  0  0  0  0  0  0  0  0
   23.1880   -6.5075    0.0000 H   0  0  0  0  0  0  0  0  0  0  0  0
   25.2151  -11.6885    0.0000 H   0  0  0  0  0  0  0  0  0  0  0  0
   25.2984  -10.8958    0.0000 H   0  0  0  0  0  0  0  0  0  0  0  0
   12.5490    0.7062    0.0000 H   0  0  0  0  0  0  0  0  0  0  0  0
   11.9041    1.1747    0.0000 H   0  0  0  0  0  0  0  0  0  0  0  0
   19.7432   -6.8288    0.0000 H   0  0  0  0  0  0  0  0  0  0  0  0
   19.6599   -7.6215    0.0000 H   0  0  0  0  0  0  0  0  0  0  0  0
   21.7985   -7.9854    0.0000 H   0  0  0  0  0  0  0  0  0  0  0  0
   14.3855   -1.9815    0.0000 H   0  0  0  0  0  0  0  0  0  0  0  0
   18.5892   -5.0357    0.0000 H   0  0  0  0  0  0  0  0  0  0  0  0
   11.7525   -0.5073    0.0000 H   0  0  0  0  0  0  0  0  0  0  0  0
   12.3974   -0.9758    0.0000 H   0  0  0  0  0  0  0  0  0  0  0  0
   14.7211   -0.6061    0.0000 H   0  0  0  0  0  0  0  0  0  0  0  0
   21.0113   -8.6343    0.0000 H   0  0  0  0  0  0  0  0  0  0  0  0
   21.0946   -7.8416    0.0000 H   0  0  0  0  0  0  0  0  0  0  0  0
   24.5689   -7.4798    0.0000 H   0  0  0  0  0  0  0  0  0  0  0  0
   25.2970   -7.1556    0.0000 H   0  0  0  0  0  0  0  0  0  0  0  0
   15.9413   -3.3467    0.0000 H   0  0  0  0  0  0  0  0  0  0  0  0
   20.7193   -5.0506    0.0000 H   0  0  0  0  0  0  0  0  0  0  0  0
   19.7123   -3.1291    0.0000 H   0  0  0  0  0  0  0  0  0  0  0  0
   18.9842   -3.4533    0.0000 H   0  0  0  0  0  0  0  0  0  0  0  0
   13.3909   -1.8770    0.0000 H   0  0  0  0  0  0  0  0  0  0  0  0
   17.5947   -4.9312    0.0000 H   0  0  0  0  0  0  0  0  0  0  0  0
   31.7302   -8.4894    0.0000 H   0  0  0  0  0  0  0  0  0  0  0  0
   30.8614   -7.8582    0.0000 H   0  0  0  0  0  0  0  0  0  0  0  0
   19.5621   -8.5513    0.0000 H   0  0  0  0  0  0  0  0  0  0  0  0
   19.4788   -9.3440    0.0000 H   0  0  0  0  0  0  0  0  0  0  0  0
   15.5394   -3.7745    0.0000 H   0  0  0  0  0  0  0  0  0  0  0  0
   15.4561   -4.5672    0.0000 H   0  0  0  0  0  0  0  0  0  0  0  0
   16.5156   -1.9964    0.0000 H   0  0  0  0  0  0  0  0  0  0  0  0
   20.3651   -4.4256    0.0000 H   0  0  0  0  0  0  0  0  0  0  0  0
   21.0932   -4.1014    0.0000 H   0  0  0  0  0  0  0  0  0  0  0  0
   25.4984   -5.4789    0.0000 H   0  0  0  0  0  0  0  0  0  0  0  0
   24.7703   -5.8030    0.0000 H   0  0  0  0  0  0  0  0  0  0  0  0
   16.2674   -1.3920    0.0000 H   0  0  0  0  0  0  0  0  0  0  0  0
   16.9488   -0.8402    0.0000 H   0  0  0  0  0  0  0  0  0  0  0  0
   16.3970   -0.1588    0.0000 H   0  0  0  0  0  0  0  0  0  0  0  0
   15.4973    0.4948    0.0000 H   0  0  0  0  0  0  0  0  0  0  0  0
   14.6788    0.8091    0.0000 H   0  0  0  0  0  0  0  0  0  0  0  0
   14.3645   -0.0095    0.0000 H   0  0  0  0  0  0  0  0  0  0  0  0
   16.8075   -5.5801    0.0000 H   0  0  0  0  0  0  0  0  0  0  0  0
   16.8908   -4.7874    0.0000 H   0  0  0  0  0  0  0  0  0  0  0  0
   20.8302  -10.3569    0.0000 H   0  0  0  0  0  0  0  0  0  0  0  0
   20.9136   -9.5642    0.0000 H   0  0  0  0  0  0  0  0  0  0  0  0
   21.2947   -2.4246    0.0000 H   0  0  0  0  0  0  0  0  0  0  0  0
   20.5665   -2.7488    0.0000 H   0  0  0  0  0  0  0  0  0  0  0  0
   24.2389  -13.4667    0.0000 H   0  0  0  0  0  0  0  0  0  0  0  0
   25.2199  -13.0299    0.0000 H   0  0  0  0  0  0  0  0  0  0  0  0
   20.0640  -11.2863    0.0000 H   0  0  0  0  0  0  0  0  0  0  0  0
   19.1952  -10.6551    0.0000 H   0  0  0  0  0  0  0  0  0  0  0  0
   15.8314   -7.3582    0.0000 H   0  0  0  0  0  0  0  0  0  0  0  0
   16.8124   -6.9214    0.0000 H   0  0  0  0  0  0  0  0  0  0  0  0
   28.2688   -4.9733    0.0000 H   0  0  0  0  0  0  0  0  0  0  0  0
   28.1565   -6.0413    0.0000 H   0  0  0  0  0  0  0  0  0  0  0  0
   26.8675   -3.9552    0.0000 H   0  0  0  0  0  0  0  0  0  0  0  0
   25.8865   -4.3920    0.0000 H   0  0  0  0  0  0  0  0  0  0  0  0
   24.0650   -1.9191    0.0000 H   0  0  0  0  0  0  0  0  0  0  0  0
   23.9528   -2.9870    0.0000 H   0  0  0  0  0  0  0  0  0  0  0  0
   22.6638   -0.9010    0.0000 H   0  0  0  0  0  0  0  0  0  0  0  0
   21.6827   -1.3378    0.0000 H   0  0  0  0  0  0  0  0  0  0  0  0
  1 68  1  0  0  0  0
  1 84  1  0  0  0  0
  2 79  1  0  0  0  0
  2 83  1  0  0  0  0
  3 53  2  0  0  0  0
  4 58  2  0  0  0  0
  5 61  1  0  0  0  0
  5166  1  0  0  0  0
  6 61  2  0  0  0  0
  7 64  1  0  0  0  0
  7 81  1  0  0  0  0
  8 70  1  0  0  0  0
  8 87  1  0  0  0  0
  9 67  2  0  0  0  0
 10 76  2  0  0  0  0
 11 89  2  0  0  0  0
 12 90  2  0  0  0  0
 13 91  2  0  0  0  0
 14 99  2  0  0  0  0
 15106  2  0  0  0  0
 16113  2  0  0  0  0
 17114  2  0  0  0  0
 18115  2  0  0  0  0
 19118  2  0  0  0  0
 20120  2  0  0  0  0
 21127  2  0  0  0  0
 22 45  1  0  0  0  0
 22 48  1  0  0  0  0
 22 50  1  0  0  0  0
 23 49  1  0  0  0  0
 23 53  1  0  0  0  0
 23141  1  0  0  0  0
 24 52  1  0  0  0  0
 24 56  1  0  0  0  0
 24 58  1  0  0  0  0
 60 25  1  6  0  0  0
 25 67  1  0  0  0  0
 25156  1  0  0  0  0
 65 26  1  6  0  0  0
 26 76  1  0  0  0  0
 26167  1  0  0  0  0
 75 27  1  1  0  0  0
 27 89  1  0  0  0  0
 27186  1  0  0  0  0
 28 90  1  0  0  0  0
 28 91  1  0  0  0  0
 28 92  1  0  0  0  0
 86 29  1  6  0  0  0
 29 99  1  0  0  0  0
 29206  1  0  0  0  0
 95 30  1  1  0  0  0
 30106  1  0  0  0  0
 30220  1  0  0  0  0
 98 31  1  6  0  0  0
 31113  1  0  0  0  0
 31231  1  0  0  0  0
104 32  1  1  0  0  0
 32115  1  0  0  0  0
 32234  1  0  0  0  0
105 33  1  1  0  0  0
 33118  1  0  0  0  0
 33235  1  0  0  0  0
 34 96  1  0  0  0  0
 34236  1  0  0  0  0
 34237  1  0  0  0  0
111 35  1  6  0  0  0
 35114  1  0  0  0  0
 35242  1  0  0  0  0
 36120  1  0  0  0  0
 36259  1  0  0  0  0
 36260  1  0  0  0  0
 37121  1  0  0  0  0
 37128  2  0  0  0  0
 38125  1  0  0  0  0
 38261  1  0  0  0  0
 38262  1  0  0  0  0
 39126  1  0  0  0  0
 39129  2  0  0  0  0
 40127  1  0  0  0  0
 40263  1  0  0  0  0
 40264  1  0  0  0  0
 41128  1  0  0  0  0
 41265  1  0  0  0  0
 41266  1  0  0  0  0
 42128  1  0  0  0  0
 42267  1  0  0  0  0
 42268  1  0  0  0  0
 43129  1  0  0  0  0
 43269  1  0  0  0  0
 43270  1  0  0  0  0
 44129  1  0  0  0  0
 44271  1  0  0  0  0
 44272  1  0  0  0  0
 45 46  1  0  0  0  0
 45 49  1  1  0  0  0
 45130  1  0  0  0  0
 46 47  1  0  0  0  0
 46131  1  0  0  0  0
 46132  1  0  0  0  0
 47 48  1  0  0  0  0
 47133  1  0  0  0  0
 47134  1  0  0  0  0
 48135  1  0  0  0  0
 48136  1  0  0  0  0
 49137  1  0  0  0  0
 49138  1  0  0  0  0
 50 51  1  0  0  0  0
 50139  1  0  0  0  0
 50140  1  0  0  0  0
 51 57  2  0  0  0  0
 51142  1  0  0  0  0
 52 54  1  0  0  0  0
 52 61  1  6  0  0  0
 52143  1  0  0  0  0
 53 59  1  0  0  0  0
 54 55  1  0  0  0  0
 54144  1  0  0  0  0
 54145  1  0  0  0  0
 55 56  1  0  0  0  0
 55146  1  0  0  0  0
 55147  1  0  0  0  0
 56148  1  0  0  0  0
 56149  1  0  0  0  0
 57150  1  0  0  0  0
 57151  1  0  0  0  0
 58 60  1  0  0  0  0
 59 63  1  0  0  0  0
 59 64  2  0  0  0  0
 60 62  1  0  0  0  0
 60152  1  0  0  0  0
 62 68  1  0  0  0  0
 62153  1  0  0  0  0
 62154  1  0  0  0  0
 63 66  2  0  0  0  0
 63155  1  0  0  0  0
 64 70  1  0  0  0  0
 65 67  1  0  0  0  0
 65 69  1  0  0  0  0
 65157  1  0  0  0  0
 66 71  1  0  0  0  0
 66 72  1  0  0  0  0
 68158  1  0  0  0  0
 68159  1  0  0  0  0
 69 73  1  0  0  0  0
 69160  1  0  0  0  0
 69161  1  0  0  0  0
 70 71  2  0  0  0  0
 71162  1  0  0  0  0
 72 74  1  0  0  0  0
 72163  1  0  0  0  0
 72164  1  0  0  0  0
 73 77  1  0  0  0  0
 73 78  1  0  0  0  0
 73165  1  0  0  0  0
 74 79  1  0  0  0  0
 74168  1  0  0  0  0
 74169  1  0  0  0  0
 75 76  1  0  0  0  0
 75 80  1  0  0  0  0
 75170  1  0  0  0  0
 77171  1  0  0  0  0
 77172  1  0  0  0  0
 77173  1  0  0  0  0
 78174  1  0  0  0  0
 78175  1  0  0  0  0
 78176  1  0  0  0  0
 79177  1  0  0  0  0
 79178  1  0  0  0  0
 80 82  1  0  0  0  0
 80179  1  0  0  0  0
 80180  1  0  0  0  0
 81181  1  0  0  0  0
 81182  1  0  0  0  0
 81183  1  0  0  0  0
 82 88  1  0  0  0  0
 82184  1  0  0  0  0
 82185  1  0  0  0  0
 83 85  1  0  0  0  0
 83 90  1  0  0  0  0
 83187  1  0  0  0  0
 84188  1  0  0  0  0
 84189  1  0  0  0  0
 84190  1  0  0  0  0
 85 91  1  0  0  0  0
 85191  1  0  0  0  0
 85192  1  0  0  0  0
 86 89  1  0  0  0  0
 86 93  1  0  0  0  0
 86193  1  0  0  0  0
 87194  1  0  0  0  0
 87195  1  0  0  0  0
 87196  1  0  0  0  0
 88 96  1  0  0  0  0
 88197  1  0  0  0  0
 88198  1  0  0  0  0
 92 94  1  0  0  0  0
 92199  1  0  0  0  0
 92200  1  0  0  0  0
 93101  1  0  0  0  0
 93201  1  0  0  0  0
 93202  1  0  0  0  0
 94 97  1  0  0  0  0
 94203  1  0  0  0  0
 94204  1  0  0  0  0
 95 99  1  0  0  0  0
 95100  1  0  0  0  0
 95205  1  0  0  0  0
 96207  1  0  0  0  0
 96208  1  0  0  0  0
 97102  1  0  0  0  0
 97209  1  0  0  0  0
 97210  1  0  0  0  0
 98103  1  0  0  0  0
 98106  1  0  0  0  0
 98211  1  0  0  0  0
100110  1  0  0  0  0
100212  1  0  0  0  0
100213  1  0  0  0  0
101120  1  0  0  0  0
101214  1  0  0  0  0
101215  1  0  0  0  0
102107  1  0  0  0  0
102216  1  0  0  0  0
102217  1  0  0  0  0
103109  1  0  0  0  0
103218  1  0  0  0  0
103219  1  0  0  0  0
104108  1  0  0  0  0
104114  1  0  0  0  0
104221  1  0  0  0  0
105112  1  0  0  0  0
105113  1  0  0  0  0
105222  1  0  0  0  0
107115  1  0  0  0  0
107223  1  0  0  0  0
107224  1  0  0  0  0
108122  1  0  0  0  0
108123  1  0  0  0  0
108225  1  0  0  0  0
109116  1  0  0  0  0
109226  1  0  0  0  0
109227  1  0  0  0  0
110121  1  0  0  0  0
110228  1  0  0  0  0
110229  1  0  0  0  0
111117  1  0  0  0  0
111118  1  0  0  0  0
111230  1  0  0  0  0
112119  1  0  0  0  0
112232  1  0  0  0  0
112233  1  0  0  0  0
116125  1  0  0  0  0
116238  1  0  0  0  0
116239  1  0  0  0  0
117124  1  0  0  0  0
117240  1  0  0  0  0
117241  1  0  0  0  0
119126  1  0  0  0  0
119243  1  0  0  0  0
119244  1  0  0  0  0
121245  1  0  0  0  0
121246  1  0  0  0  0
122247  1  0  0  0  0
122248  1  0  0  0  0
122249  1  0  0  0  0
123250  1  0  0  0  0
123251  1  0  0  0  0
123252  1  0  0  0  0
124127  1  0  0  0  0
124253  1  0  0  0  0
124254  1  0  0  0  0
125255  1  0  0  0  0
125256  1  0  0  0  0
126257  1  0  0  0  0
126258  1  0  0  0  0
M  END
> <PUBCHEM_COMPOUND_CID>
90656841

> <PUBCHEM_COMPOUND_CANONICALIZED>
1

> <PUBCHEM_CACTVS_COMPLEXITY>
3730

> <PUBCHEM_CACTVS_HBOND_ACCEPTOR>
26

> <PUBCHEM_CACTVS_HBOND_DONOR>
19

> <PUBCHEM_CACTVS_ROTATABLE_BOND>
65

> <PUBCHEM_CACTVS_SUBSKEYS>
AAADcfB//gBgAAAAAAAAAAAAAAAAAWLFgAAwAAAAAAAAAAABAAAAHgQQCAAADSzF2AazDoPABgioAiHSPACCCAEkIBAIiIGOjMgPZjaktTuUcWpm9jG6qYe/2/KOIAADAAAIQABAAAYAABCAAAAAAAAAAA==

> <PUBCHEM_IUPAC_OPENEYE_NAME>
(2S)-1-[(2S)-2-[[(2S)-2-[[(2S)-2-[[(2S)-2-[[(2S)-2-[[(2S)-2-[[(2S)-2-[[(2S)-2-[[(2S)-2-[6-[3-[3-[3-[[(2S)-1-allylpyrrolidin-2-yl]methylcarbamoyl]-4,5-dimethoxy-phenyl]propylsulfanyl]-2,5-dioxo-pyrrolidin-1-yl]hexanoylamino]-3-methyl-butanoyl]amino]-5-amino-5-oxo-pentanoyl]amino]-5-guanidino-pentanoyl]amino]-6-amino-hexanoyl]amino]-5-guanidino-pentanoyl]amino]-5-amino-5-oxo-pentanoyl]amino]-6-amino-hexanoyl]amino]-4-methyl-pentanoyl]amino]-4-methylsulfanyl-butanoyl]pyrrolidine-2-carboxylic acid

> <PUBCHEM_IUPAC_CAS_NAME>
(2S)-1-[(2S)-2-[[(2S)-2-[[(2S)-6-amino-2-[[(2S)-5-amino-2-[[(2S)-2-[[(2S)-6-amino-2-[[(2S)-2-[[(2S)-5-amino-2-[[(2S)-2-[[6-[3-[3-[3,4-dimethoxy-5-[oxo-[[(2S)-1-prop-2-enyl-2-pyrrolidinyl]methylamino]methyl]phenyl]propylthio]-2,5-dioxo-1-pyrrolidinyl]-1-oxohexyl]amino]-3-methyl-1-oxobutyl]amino]-1,5-dioxopentyl]amino]-5-(diaminomethylideneamino)-1-oxopentyl]amino]-1-oxohexyl]amino]-5-(diaminomethylideneamino)-1-oxopentyl]amino]-1,5-dioxopentyl]amino]-1-oxohexyl]amino]-4-methyl-1-oxopentyl]amino]-4-(methylthio)-1-oxobutyl]-2-pyrrolidinecarboxylic acid

> <PUBCHEM_IUPAC_NAME_MARKUP>
(2<I>S</I>)-1-[(2<I>S</I>)-2-[[(2<I>S</I>)-2-[[(2<I>S</I>)-6-amino-2-[[(2<I>S</I>)-5-amino-2-[[(2<I>S</I>)-2-[[(2<I>S</I>)-6-amino-2-[[(2<I>S</I>)-2-[[(2<I>S</I>)-5-amino-2-[[(2<I>S</I>)-2-[6-[3-[3-[3,4-dimethoxy-5-[[(2<I>S</I>)-1-prop-2-enylpyrrolidin-2-yl]methylcarbamoyl]phenyl]propylsulfanyl]-2,5-dioxopyrrolidin-1-yl]hexanoylamino]-3-methylbutanoyl]amino]-5-oxopentanoyl]amino]-5-(diaminomethylideneamino)pentanoyl]amino]hexanoyl]amino]-5-(diaminomethylideneamino)pentanoyl]amino]-5-oxopentanoyl]amino]hexanoyl]amino]-4-methylpentanoyl]amino]-4-methylsulfanylbutanoyl]pyrrolidine-2-carboxylic acid

> <PUBCHEM_IUPAC_NAME>
(2S)-1-[(2S)-2-[[(2S)-2-[[(2S)-6-amino-2-[[(2S)-5-amino-2-[[(2S)-2-[[(2S)-6-amino-2-[[(2S)-2-[[(2S)-5-amino-2-[[(2S)-2-[6-[3-[3-[3,4-dimethoxy-5-[[(2S)-1-prop-2-enylpyrrolidin-2-yl]methylcarbamoyl]phenyl]propylsulfanyl]-2,5-dioxopyrrolidin-1-yl]hexanoylamino]-3-methylbutanoyl]amino]-5-oxopentanoyl]amino]-5-(diaminomethylideneamino)pentanoyl]amino]hexanoyl]amino]-5-(diaminomethylideneamino)pentanoyl]amino]-5-oxopentanoyl]amino]hexanoyl]amino]-4-methylpentanoyl]amino]-4-methylsulfanylbutanoyl]pyrrolidine-2-carboxylic acid

> <PUBCHEM_IUPAC_SYSTEMATIC_NAME>
(2S)-1-[(2S)-2-[[(2S)-2-[[(2S)-6-azanyl-2-[[(2S)-5-azanyl-2-[[(2S)-2-[[(2S)-6-azanyl-2-[[(2S)-2-[[(2S)-5-azanyl-2-[[(2S)-2-[6-[3-[3-[3,4-dimethoxy-5-[[(2S)-1-prop-2-enylpyrrolidin-2-yl]methylcarbamoyl]phenyl]propylsulfanyl]-2,5-bis(oxidanylidene)pyrrolidin-1-yl]hexanoylamino]-3-methyl-butanoyl]amino]-5-oxidanylidene-pentanoyl]amino]-5-[bis(azanyl)methylideneamino]pentanoyl]amino]hexanoyl]amino]-5-[bis(azanyl)methylideneamino]pentanoyl]amino]-5-oxidanylidene-pentanoyl]amino]hexanoyl]amino]-4-methyl-pentanoyl]amino]-4-methylsulfanyl-butanoyl]pyrrolidine-2-carboxylic acid

> <PUBCHEM_IUPAC_TRADITIONAL_NAME>
(2S)-1-[(2S)-2-[[(2S)-2-[[(2S)-2-[[(2S)-2-[[(2S)-2-[[(2S)-2-[[(2S)-2-[[(2S)-2-[[(2S)-2-[6-[3-[3-[3-[[(2S)-1-allylpyrrolidin-2-yl]methylcarbamoyl]-4,5-dimethoxy-phenyl]propylthio]-2,5-diketo-pyrrolidino]hexanoylamino]-3-methyl-butanoyl]amino]-5-amino-5-keto-pentanoyl]amino]-5-guanidino-pentanoyl]amino]-6-amino-hexanoyl]amino]-5-guanidino-pentanoyl]amino]-5-amino-5-keto-pentanoyl]amino]-6-amino-hexanoyl]amino]-4-methyl-pentanoyl]amino]-4-(methylthio)butanoyl]proline

> <PUBCHEM_IUPAC_INCHI>
InChI=1S/C85H143N23O19S2/c1-9-39-106-40-19-23-53(106)49-96-72(113)54-46-52(47-64(126-6)71(54)127-7)22-21-43-129-65-48-69(112)108(82(65)123)41-16-10-11-29-68(111)105-70(51(4)5)80(121)102-60(31-33-67(89)110)78(119)100-57(26-17-37-94-84(90)91)74(115)97-55(24-12-14-35-86)73(114)99-58(27-18-38-95-85(92)93)75(116)101-59(30-32-66(88)109)77(118)98-56(25-13-15-36-87)76(117)104-62(45-50(2)3)79(120)103-61(34-44-128-8)81(122)107-42-20-28-63(107)83(124)125/h9,46-47,50-51,53,55-63,65,70H,1,10-45,48-49,86-87H2,2-8H3,(H2,88,109)(H2,89,110)(H,96,113)(H,97,115)(H,98,118)(H,99,114)(H,100,119)(H,101,116)(H,102,121)(H,103,120)(H,104,117)(H,105,111)(H,124,125)(H4,90,91,94)(H4,92,93,95)/t53-,55-,56-,57-,58-,59-,60-,61-,62-,63-,65?,70-/m0/s1

> <PUBCHEM_IUPAC_INCHIKEY>
LWJRZMFKJXXHGW-YOTKAZDMSA-N

> <PUBCHEM_XLOGP3_AA>
-3.5

> <PUBCHEM_EXACT_MASS>
1854.03720177

> <PUBCHEM_MOLECULAR_FORMULA>
C85H143N23O19S2

> <PUBCHEM_MOLECULAR_WEIGHT>
1855.3

> <PUBCHEM_OPENEYE_CAN_SMILES>
CC(C)CC(C(=O)NC(CCSC)C(=O)N1CCCC1C(=O)O)NC(=O)C(CCCCN)NC(=O)C(CCC(=O)N)NC(=O)C(CCCN=C(N)N)NC(=O)C(CCCCN)NC(=O)C(CCCN=C(N)N)NC(=O)C(CCC(=O)N)NC(=O)C(C(C)C)NC(=O)CCCCCN2C(=O)CC(C2=O)SCCCC3=CC(=C(C(=C3)OC)OC)C(=O)NCC4CCCN4CC=C

> <PUBCHEM_OPENEYE_ISO_SMILES>
CC(C)C[C@@H](C(=O)N[C@@H](CCSC)C(=O)N1CCC[C@H]1C(=O)O)NC(=O)[C@H](CCCCN)NC(=O)[C@H](CCC(=O)N)NC(=O)[C@H](CCCN=C(N)N)NC(=O)[C@H](CCCCN)NC(=O)[C@H](CCCN=C(N)N)NC(=O)[C@H](CCC(=O)N)NC(=O)[C@H](C(C)C)NC(=O)CCCCCN2C(=O)CC(C2=O)SCCCC3=CC(=C(C(=C3)OC)OC)C(=O)NC[C@@H]4CCCN4CC=C

> <PUBCHEM_CACTVS_TPSA>
725

> <PUBCHEM_MONOISOTOPIC_WEIGHT>
1854.03720177

> <PUBCHEM_TOTAL_CHARGE>
0

> <PUBCHEM_HEAVY_ATOM_COUNT>
129

> <PUBCHEM_ATOM_DEF_STEREO_COUNT>
11

> <PUBCHEM_ATOM_UDEF_STEREO_COUNT>
1

> <PUBCHEM_BOND_DEF_STEREO_COUNT>
0

> <PUBCHEM_BOND_UDEF_STEREO_COUNT>
0

> <PUBCHEM_ISOTOPIC_ATOM_COUNT>
0

> <PUBCHEM_COMPONENT_COUNT>
1

> <PUBCHEM_CACTVS_TAUTO_COUNT>
-1

> <PUBCHEM_COORDINATE_TYPE>
1
5
255

> <PUBCHEM_BONDANNOTATIONS>
83  2  3
60  25  6
65  26  6
75  27  5
86  29  6
95  30  5
98  31  6
104  32  5
105  33  5
111  35  6
45  49  5
52  61  6
59  63  8
59  64  8
63  66  8
64  70  8
66  71  8
70  71  8

$$$$
