155539483
  -OEChem-09292322402D

 67 72  0     1  0  0  0  0  0999 V2000
    8.3365    6.5908    0.0000 F   0  0  0  0  0  0  0  0  0  0  0  0
    2.0000   -4.9013    0.0000 F   0  0  0  0  0  0  0  0  0  0  0  0
    4.2686   -3.3342    0.0000 O   0  0  0  0  0  0  0  0  0  0  0  0
    7.6183   -2.2523    0.0000 O   0  0  0  0  0  0  0  0  0  0  0  0
    6.2765    1.8108    0.0000 N   0  0  0  0  0  0  0  0  0  0  0  0
    5.8578   -2.5280    0.0000 N   0  0  0  0  0  0  0  0  0  0  0  0
    4.4084    5.9676    0.0000 N   0  0  0  0  0  0  0  0  0  0  0  0
    5.5443   -6.7060    0.0000 N   0  0  0  0  0  0  0  0  0  0  0  0
    5.6617    3.7139    0.0000 C   0  0  0  0  0  0  0  0  0  0  0  0
    6.6395    3.5043    0.0000 C   0  0  0  0  0  0  0  0  0  0  0  0
    4.9913    2.9720    0.0000 C   0  0  0  0  0  0  0  0  0  0  0  0
    6.9469    2.5527    0.0000 C   0  0  0  0  0  0  0  0  0  0  0  0
    5.2987    2.0204    0.0000 C   0  0  0  0  0  0  0  0  0  0  0  0
    6.5838    0.8592    0.0000 C   0  0  0  0  0  0  0  0  0  0  0  0
    5.3544    4.6655    0.0000 C   0  0  0  0  0  0  0  0  0  0  0  0
    5.9134    0.1172    0.0000 C   0  0  0  0  0  0  0  0  0  0  0  0
    6.2208   -0.8344    0.0000 C   0  0  0  0  0  0  0  0  0  0  0  0
    5.9408    5.4682    0.0000 C   0  0  0  0  0  0  0  0  0  0  0  0
    5.5504   -1.5764    0.0000 C   0  0  0  0  0  0  0  0  0  0  0  0
    5.8550   -4.1460    0.0000 C   0  0  3  0  0  0  0  0  0  0  0  0
    4.4092    4.9735    0.0000 C   0  0  0  0  0  0  0  0  0  0  0  0
    6.8066   -3.8386    0.0000 C   0  0  0  0  0  0  0  0  0  0  0  0
    5.3530    6.2773    0.0000 C   0  0  0  0  0  0  0  0  0  0  0  0
    5.2686   -3.3360    0.0000 C   0  0  0  0  0  0  0  0  0  0  0  0
    6.8083   -2.8386    0.0000 C   0  0  0  0  0  0  0  0  0  0  0  0
    5.5443   -5.0965    0.0000 C   0  0  0  0  0  0  0  0  0  0  0  0
    6.9353    5.5728    0.0000 C   0  0  0  0  0  0  0  0  0  0  0  0
    4.5981   -5.4013    0.0000 C   0  0  0  0  0  0  0  0  0  0  0  0
    5.7597    7.1908    0.0000 C   0  0  0  0  0  0  0  0  0  0  0  0
    6.1279   -5.9013    0.0000 C   0  0  0  0  0  0  0  0  0  0  0  0
    4.5981   -6.4013    0.0000 C   0  0  0  0  0  0  0  0  0  0  0  0
    7.3420    6.4863    0.0000 C   0  0  0  0  0  0  0  0  0  0  0  0
    6.7542    7.2953    0.0000 C   0  0  0  0  0  0  0  0  0  0  0  0
    3.7320   -4.9013    0.0000 C   0  0  0  0  0  0  0  0  0  0  0  0
    3.7320   -6.9013    0.0000 C   0  0  0  0  0  0  0  0  0  0  0  0
    2.8660   -5.4013    0.0000 C   0  0  0  0  0  0  0  0  0  0  0  0
    2.8660   -6.4013    0.0000 C   0  0  0  0  0  0  0  0  0  0  0  0
    5.0555    3.8439    0.0000 H   0  0  0  0  0  0  0  0  0  0  0  0
    7.2536    3.5896    0.0000 H   0  0  0  0  0  0  0  0  0  0  0  0
    6.6622    4.1239    0.0000 H   0  0  0  0  0  0  0  0  0  0  0  0
    4.6105    3.4612    0.0000 H   0  0  0  0  0  0  0  0  0  0  0  0
    4.4434    2.6818    0.0000 H   0  0  0  0  0  0  0  0  0  0  0  0
    7.3278    2.0635    0.0000 H   0  0  0  0  0  0  0  0  0  0  0  0
    7.4948    2.8429    0.0000 H   0  0  0  0  0  0  0  0  0  0  0  0
    4.6846    1.9351    0.0000 H   0  0  0  0  0  0  0  0  0  0  0  0
    5.2760    1.4008    0.0000 H   0  0  0  0  0  0  0  0  0  0  0  0
    6.9647    0.3699    0.0000 H   0  0  0  0  0  0  0  0  0  0  0  0
    7.1318    1.1493    0.0000 H   0  0  0  0  0  0  0  0  0  0  0  0
    5.5326    0.6064    0.0000 H   0  0  0  0  0  0  0  0  0  0  0  0
    5.3655   -0.1729    0.0000 H   0  0  0  0  0  0  0  0  0  0  0  0
    6.6017   -1.3236    0.0000 H   0  0  0  0  0  0  0  0  0  0  0  0
    6.7687   -0.5443    0.0000 H   0  0  0  0  0  0  0  0  0  0  0  0
    6.2926   -4.5852    0.0000 H   0  0  0  0  0  0  0  0  0  0  0  0
    5.1695   -1.0872    0.0000 H   0  0  0  0  0  0  0  0  0  0  0  0
    5.0025   -1.8665    0.0000 H   0  0  0  0  0  0  0  0  0  0  0  0
    3.9076    4.6091    0.0000 H   0  0  0  0  0  0  0  0  0  0  0  0
    6.9344   -4.4453    0.0000 H   0  0  0  0  0  0  0  0  0  0  0  0
    7.4233   -3.7749    0.0000 H   0  0  0  0  0  0  0  0  0  0  0  0
    3.9061    6.3312    0.0000 H   0  0  0  0  0  0  0  0  0  0  0  0
    7.2997    5.0712    0.0000 H   0  0  0  0  0  0  0  0  0  0  0  0
    5.3953    7.6924    0.0000 H   0  0  0  0  0  0  0  0  0  0  0  0
    6.7479   -5.9013    0.0000 H   0  0  0  0  0  0  0  0  0  0  0  0
    5.7369   -7.2953    0.0000 H   0  0  0  0  0  0  0  0  0  0  0  0
    7.0064    7.8617    0.0000 H   0  0  0  0  0  0  0  0  0  0  0  0
    3.7320   -4.2813    0.0000 H   0  0  0  0  0  0  0  0  0  0  0  0
    3.7320   -7.5213    0.0000 H   0  0  0  0  0  0  0  0  0  0  0  0
    2.3291   -6.7113    0.0000 H   0  0  0  0  0  0  0  0  0  0  0  0
  1 32  1  0  0  0  0
  2 36  1  0  0  0  0
  3 24  2  0  0  0  0
  4 25  2  0  0  0  0
  5 12  1  0  0  0  0
  5 13  1  0  0  0  0
  5 14  1  0  0  0  0
  6 19  1  0  0  0  0
  6 24  1  0  0  0  0
  6 25  1  0  0  0  0
  7 21  1  0  0  0  0
  7 23  1  0  0  0  0
  7 59  1  0  0  0  0
  8 30  1  0  0  0  0
  8 31  1  0  0  0  0
  8 63  1  0  0  0  0
  9 10  1  0  0  0  0
  9 11  1  0  0  0  0
  9 15  1  0  0  0  0
  9 38  1  0  0  0  0
 10 12  1  0  0  0  0
 10 39  1  0  0  0  0
 10 40  1  0  0  0  0
 11 13  1  0  0  0  0
 11 41  1  0  0  0  0
 11 42  1  0  0  0  0
 12 43  1  0  0  0  0
 12 44  1  0  0  0  0
 13 45  1  0  0  0  0
 13 46  1  0  0  0  0
 14 16  1  0  0  0  0
 14 47  1  0  0  0  0
 14 48  1  0  0  0  0
 15 18  1  0  0  0  0
 15 21  2  0  0  0  0
 16 17  1  0  0  0  0
 16 49  1  0  0  0  0
 16 50  1  0  0  0  0
 17 19  1  0  0  0  0
 17 51  1  0  0  0  0
 17 52  1  0  0  0  0
 18 23  2  0  0  0  0
 18 27  1  0  0  0  0
 19 54  1  0  0  0  0
 19 55  1  0  0  0  0
 20 22  1  0  0  0  0
 20 24  1  0  0  0  0
 20 26  1  0  0  0  0
 20 53  1  0  0  0  0
 21 56  1  0  0  0  0
 22 25  1  0  0  0  0
 22 57  1  0  0  0  0
 22 58  1  0  0  0  0
 23 29  1  0  0  0  0
 26 28  1  0  0  0  0
 26 30  2  0  0  0  0
 27 32  2  0  0  0  0
 27 60  1  0  0  0  0
 28 31  2  0  0  0  0
 28 34  1  0  0  0  0
 29 33  2  0  0  0  0
 29 61  1  0  0  0  0
 30 62  1  0  0  0  0
 31 35  1  0  0  0  0
 32 33  1  0  0  0  0
 33 64  1  0  0  0  0
 34 36  2  0  0  0  0
 34 65  1  0  0  0  0
 35 37  2  0  0  0  0
 35 66  1  0  0  0  0
 36 37  1  0  0  0  0
 37 67  1  0  0  0  0
M  END
> <PUBCHEM_COMPOUND_CID>
155539483

> <PUBCHEM_COMPOUND_CANONICALIZED>
1

> <PUBCHEM_CACTVS_COMPLEXITY>
837

> <PUBCHEM_CACTVS_HBOND_ACCEPTOR>
5

> <PUBCHEM_CACTVS_HBOND_DONOR>
2

> <PUBCHEM_CACTVS_ROTATABLE_BOND>
7

> <PUBCHEM_CACTVS_SUBSKEYS>
AAADceB7sYAAAAAAAAAAAAAAAAAAAWLFgAA8YIAAAAAAAFgB/gAAHwAQAAAADQjBngw8wPPJkACoAzV3VACCgCAxAiAI2aE4ZJgIIPLAlZGEIAhgliDIyAcdicCegAAAAAACAAAAAAAAAAQAAAAAAAAAAA==

> <PUBCHEM_IUPAC_OPENEYE_NAME>
3-(5-fluoro-1H-indol-3-yl)-1-[4-[4-(5-fluoro-1H-indol-3-yl)-1-piperidyl]butyl]pyrrolidine-2,5-dione

> <PUBCHEM_IUPAC_CAS_NAME>
3-(5-fluoro-1H-indol-3-yl)-1-[4-[4-(5-fluoro-1H-indol-3-yl)-1-piperidinyl]butyl]pyrrolidine-2,5-dione

> <PUBCHEM_IUPAC_NAME_MARKUP>
3-(5-fluoro-1<I>H</I>-indol-3-yl)-1-[4-[4-(5-fluoro-1<I>H</I>-indol-3-yl)piperidin-1-yl]butyl]pyrrolidine-2,5-dione

> <PUBCHEM_IUPAC_NAME>
3-(5-fluoro-1H-indol-3-yl)-1-[4-[4-(5-fluoro-1H-indol-3-yl)piperidin-1-yl]butyl]pyrrolidine-2,5-dione

> <PUBCHEM_IUPAC_SYSTEMATIC_NAME>
3-(5-fluoranyl-1H-indol-3-yl)-1-[4-[4-(5-fluoranyl-1H-indol-3-yl)piperidin-1-yl]butyl]pyrrolidine-2,5-dione

> <PUBCHEM_IUPAC_TRADITIONAL_NAME>
3-(5-fluoro-1H-indol-3-yl)-1-[4-[4-(5-fluoro-1H-indol-3-yl)piperidino]butyl]pyrrolidine-2,5-quinone

> <PUBCHEM_IUPAC_INCHI>
InChI=1S/C29H30F2N4O2/c30-19-3-5-26-21(13-19)24(16-32-26)18-7-11-34(12-8-18)9-1-2-10-35-28(36)15-23(29(35)37)25-17-33-27-6-4-20(31)14-22(25)27/h3-6,13-14,16-18,23,32-33H,1-2,7-12,15H2

> <PUBCHEM_IUPAC_INCHIKEY>
XKIVNUFBPASSIA-UHFFFAOYSA-N

> <PUBCHEM_XLOGP3_AA>
4.3

> <PUBCHEM_EXACT_MASS>
504.23368254

> <PUBCHEM_MOLECULAR_FORMULA>
C29H30F2N4O2

> <PUBCHEM_MOLECULAR_WEIGHT>
504.6

> <PUBCHEM_OPENEYE_CAN_SMILES>
C1CN(CCC1C2=CNC3=C2C=C(C=C3)F)CCCCN4C(=O)CC(C4=O)C5=CNC6=C5C=C(C=C6)F

> <PUBCHEM_OPENEYE_ISO_SMILES>
C1CN(CCC1C2=CNC3=C2C=C(C=C3)F)CCCCN4C(=O)CC(C4=O)C5=CNC6=C5C=C(C=C6)F

> <PUBCHEM_CACTVS_TPSA>
72.2

> <PUBCHEM_MONOISOTOPIC_WEIGHT>
504.23368254

> <PUBCHEM_TOTAL_CHARGE>
0

> <PUBCHEM_HEAVY_ATOM_COUNT>
37

> <PUBCHEM_ATOM_DEF_STEREO_COUNT>
0

> <PUBCHEM_ATOM_UDEF_STEREO_COUNT>
1

> <PUBCHEM_BOND_DEF_STEREO_COUNT>
0

> <PUBCHEM_BOND_UDEF_STEREO_COUNT>
0

> <PUBCHEM_ISOTOPIC_ATOM_COUNT>
0

> <PUBCHEM_COMPONENT_COUNT>
1

> <PUBCHEM_CACTVS_TAUTO_COUNT>
-1

> <PUBCHEM_COORDINATE_TYPE>
1
5
255

> <PUBCHEM_BONDANNOTATIONS>
15  18  8
15  21  8
18  23  8
18  27  8
20  26  3
23  29  8
26  28  8
26  30  8
27  32  8
28  31  8
28  34  8
29  33  8
31  35  8
32  33  8
34  36  8
35  37  8
36  37  8
7  21  8
7  23  8
8  30  8
8  31  8

$$$$
