11661609
  -OEChem-09292322272D

 49 52  0     0  0  0  0  0  0999 V2000
    3.7320   -3.5981    0.0000 Br  0  0  0  0  0  0  0  0  0  0  0  0
   10.6279    1.0000    0.0000 O   0  0  0  0  0  0  0  0  0  0  0  0
    7.6279   -0.7321    0.0000 N   0  0  0  0  0  0  0  0  0  0  0  0
    8.6279    1.0000    0.0000 N   0  0  0  0  0  0  0  0  0  0  0  0
    4.5981   -1.0981    0.0000 N   0  0  0  0  0  0  0  0  0  0  0  0
    5.5443   -2.4028    0.0000 N   0  0  0  0  0  0  0  0  0  0  0  0
    7.1279    0.1340    0.0000 C   0  0  0  0  0  0  0  0  0  0  0  0
    8.6279   -0.7321    0.0000 C   0  0  0  0  0  0  0  0  0  0  0  0
    7.6279    1.0000    0.0000 C   0  0  0  0  0  0  0  0  0  0  0  0
    9.1279    0.1340    0.0000 C   0  0  0  0  0  0  0  0  0  0  0  0
    7.1279   -1.5981    0.0000 C   0  0  0  0  0  0  0  0  0  0  0  0
    9.1279    1.8660    0.0000 C   0  0  0  0  0  0  0  0  0  0  0  0
    6.1279   -1.5981    0.0000 C   0  0  0  0  0  0  0  0  0  0  0  0
    5.5443   -0.7933    0.0000 C   0  0  0  0  0  0  0  0  0  0  0  0
   10.1279    1.8660    0.0000 C   0  0  0  0  0  0  0  0  0  0  0  0
    8.6279    2.7320    0.0000 C   0  0  0  0  0  0  0  0  0  0  0  0
    4.5981   -2.0981    0.0000 C   0  0  0  0  0  0  0  0  0  0  0  0
   10.6279    2.7320    0.0000 C   0  0  0  0  0  0  0  0  0  0  0  0
    3.7320   -0.5981    0.0000 C   0  0  0  0  0  0  0  0  0  0  0  0
    9.1279    3.5981    0.0000 C   0  0  0  0  0  0  0  0  0  0  0  0
    3.7320   -2.5981    0.0000 C   0  0  0  0  0  0  0  0  0  0  0  0
    2.8660   -1.0981    0.0000 C   0  0  0  0  0  0  0  0  0  0  0  0
   10.1279    3.5981    0.0000 C   0  0  0  0  0  0  0  0  0  0  0  0
    2.8660   -2.0981    0.0000 C   0  0  0  0  0  0  0  0  0  0  0  0
    2.0000   -0.5981    0.0000 C   0  0  0  0  0  0  0  0  0  0  0  0
   11.6279    1.0000    0.0000 C   0  0  0  0  0  0  0  0  0  0  0  0
    6.6530    0.5325    0.0000 H   0  0  0  0  0  0  0  0  0  0  0  0
    6.6530   -0.2646    0.0000 H   0  0  0  0  0  0  0  0  0  0  0  0
    8.5202   -1.3426    0.0000 H   0  0  0  0  0  0  0  0  0  0  0  0
    9.2105   -0.9441    0.0000 H   0  0  0  0  0  0  0  0  0  0  0  0
    7.7356    1.6106    0.0000 H   0  0  0  0  0  0  0  0  0  0  0  0
    7.0453    1.2120    0.0000 H   0  0  0  0  0  0  0  0  0  0  0  0
    9.6028   -0.2646    0.0000 H   0  0  0  0  0  0  0  0  0  0  0  0
    9.6028    0.5325    0.0000 H   0  0  0  0  0  0  0  0  0  0  0  0
    7.0202   -2.2087    0.0000 H   0  0  0  0  0  0  0  0  0  0  0  0
    7.7105   -1.8101    0.0000 H   0  0  0  0  0  0  0  0  0  0  0  0
    5.7369   -0.2040    0.0000 H   0  0  0  0  0  0  0  0  0  0  0  0
    8.0079    2.7320    0.0000 H   0  0  0  0  0  0  0  0  0  0  0  0
   11.2479    2.7320    0.0000 H   0  0  0  0  0  0  0  0  0  0  0  0
    3.7320    0.0219    0.0000 H   0  0  0  0  0  0  0  0  0  0  0  0
    8.8179    4.1350    0.0000 H   0  0  0  0  0  0  0  0  0  0  0  0
   10.4379    4.1350    0.0000 H   0  0  0  0  0  0  0  0  0  0  0  0
    2.3291   -2.4081    0.0000 H   0  0  0  0  0  0  0  0  0  0  0  0
    2.3100   -0.0611    0.0000 H   0  0  0  0  0  0  0  0  0  0  0  0
    1.4631   -0.2881    0.0000 H   0  0  0  0  0  0  0  0  0  0  0  0
    1.6900   -1.1350    0.0000 H   0  0  0  0  0  0  0  0  0  0  0  0
   11.6279    0.3800    0.0000 H   0  0  0  0  0  0  0  0  0  0  0  0
   12.2479    1.0000    0.0000 H   0  0  0  0  0  0  0  0  0  0  0  0
   11.6279    1.6200    0.0000 H   0  0  0  0  0  0  0  0  0  0  0  0
  1 21  1  0  0  0  0
  2 15  1  0  0  0  0
  2 26  1  0  0  0  0
  3  7  1  0  0  0  0
  3  8  1  0  0  0  0
  3 11  1  0  0  0  0
  4  9  1  0  0  0  0
  4 10  1  0  0  0  0
  4 12  1  0  0  0  0
  5 14  1  0  0  0  0
  5 17  1  0  0  0  0
  5 19  1  0  0  0  0
  6 13  1  0  0  0  0
  6 17  2  0  0  0  0
  7  9  1  0  0  0  0
  7 27  1  0  0  0  0
  7 28  1  0  0  0  0
  8 10  1  0  0  0  0
  8 29  1  0  0  0  0
  8 30  1  0  0  0  0
  9 31  1  0  0  0  0
  9 32  1  0  0  0  0
 10 33  1  0  0  0  0
 10 34  1  0  0  0  0
 11 13  1  0  0  0  0
 11 35  1  0  0  0  0
 11 36  1  0  0  0  0
 12 15  1  0  0  0  0
 12 16  2  0  0  0  0
 13 14  2  0  0  0  0
 14 37  1  0  0  0  0
 15 18  2  0  0  0  0
 16 20  1  0  0  0  0
 16 38  1  0  0  0  0
 17 21  1  0  0  0  0
 18 23  1  0  0  0  0
 18 39  1  0  0  0  0
 19 22  2  0  0  0  0
 19 40  1  0  0  0  0
 20 23  2  0  0  0  0
 20 41  1  0  0  0  0
 21 24  2  0  0  0  0
 22 24  1  0  0  0  0
 22 25  1  0  0  0  0
 23 42  1  0  0  0  0
 24 43  1  0  0  0  0
 25 44  1  0  0  0  0
 25 45  1  0  0  0  0
 25 46  1  0  0  0  0
 26 47  1  0  0  0  0
 26 48  1  0  0  0  0
 26 49  1  0  0  0  0
M  END
> <PUBCHEM_COMPOUND_CID>
11661609

> <PUBCHEM_COMPOUND_CANONICALIZED>
1

> <PUBCHEM_CACTVS_COMPLEXITY>
459

> <PUBCHEM_CACTVS_HBOND_ACCEPTOR>
4

> <PUBCHEM_CACTVS_HBOND_DONOR>
0

> <PUBCHEM_CACTVS_ROTATABLE_BOND>
4

> <PUBCHEM_CACTVS_SUBSKEYS>
AAADceB7oAAAEAAAAAAAAAAAAAAAAWAAAAA8WIAAAAAAAFgB8AAAHgBAAAABrAzBnwY/9p8MHACgAzZnZACCiC0xMqQJ2CA/fLiObuLE+ZuVMChswBPY6jeQQAAMAAAAAAAAEAAAAAAAAAAgAAAAAAAAAA==

> <PUBCHEM_IUPAC_OPENEYE_NAME>
8-bromo-2-[[4-(2-methoxyphenyl)piperazin-1-yl]methyl]-6-methyl-imidazo[1,2-a]pyridine

> <PUBCHEM_IUPAC_CAS_NAME>
8-bromo-2-[[4-(2-methoxyphenyl)-1-piperazinyl]methyl]-6-methylimidazo[1,2-a]pyridine

> <PUBCHEM_IUPAC_NAME_MARKUP>
8-bromo-2-[[4-(2-methoxyphenyl)piperazin-1-yl]methyl]-6-methylimidazo[1,2-a]pyridine

> <PUBCHEM_IUPAC_NAME>
8-bromo-2-[[4-(2-methoxyphenyl)piperazin-1-yl]methyl]-6-methylimidazo[1,2-a]pyridine

> <PUBCHEM_IUPAC_SYSTEMATIC_NAME>
8-bromanyl-2-[[4-(2-methoxyphenyl)piperazin-1-yl]methyl]-6-methyl-imidazo[1,2-a]pyridine

> <PUBCHEM_IUPAC_TRADITIONAL_NAME>
8-bromo-2-[[4-(2-methoxyphenyl)piperazino]methyl]-6-methyl-imidazo[1,2-a]pyridine

> <PUBCHEM_IUPAC_INCHI>
InChI=1S/C20H23BrN4O/c1-15-11-17(21)20-22-16(14-25(20)12-15)13-23-7-9-24(10-8-23)18-5-3-4-6-19(18)26-2/h3-6,11-12,14H,7-10,13H2,1-2H3

> <PUBCHEM_IUPAC_INCHIKEY>
BSDZATNMASVMIK-UHFFFAOYSA-N

> <PUBCHEM_XLOGP3_AA>
4.3

> <PUBCHEM_EXACT_MASS>
414.10552

> <PUBCHEM_MOLECULAR_FORMULA>
C20H23BrN4O

> <PUBCHEM_MOLECULAR_WEIGHT>
415.3

> <PUBCHEM_OPENEYE_CAN_SMILES>
CC1=CN2C=C(N=C2C(=C1)Br)CN3CCN(CC3)C4=CC=CC=C4OC

> <PUBCHEM_OPENEYE_ISO_SMILES>
CC1=CN2C=C(N=C2C(=C1)Br)CN3CCN(CC3)C4=CC=CC=C4OC

> <PUBCHEM_CACTVS_TPSA>
33

> <PUBCHEM_MONOISOTOPIC_WEIGHT>
414.10552

> <PUBCHEM_TOTAL_CHARGE>
0

> <PUBCHEM_HEAVY_ATOM_COUNT>
26

> <PUBCHEM_ATOM_DEF_STEREO_COUNT>
0

> <PUBCHEM_ATOM_UDEF_STEREO_COUNT>
0

> <PUBCHEM_BOND_DEF_STEREO_COUNT>
0

> <PUBCHEM_BOND_UDEF_STEREO_COUNT>
0

> <PUBCHEM_ISOTOPIC_ATOM_COUNT>
0

> <PUBCHEM_COMPONENT_COUNT>
1

> <PUBCHEM_CACTVS_TAUTO_COUNT>
-1

> <PUBCHEM_COORDINATE_TYPE>
1
5
255

> <PUBCHEM_BONDANNOTATIONS>
12  15  8
12  16  8
13  14  8
15  18  8
16  20  8
17  21  8
18  23  8
19  22  8
20  23  8
21  24  8
22  24  8
5  14  8
5  17  8
5  19  8
6  13  8
6  17  8

$$$$
