166626181
  -OEChem-09292322442D

 51 54  0     1  0  0  0  0  0999 V2000
   11.1735    2.2397    0.0000 S   0  0  0  0  0  0  0  0  0  0  0  0
   15.0846    1.4013    0.0000 F   0  0  0  0  0  0  0  0  0  0  0  0
    2.0000   -3.2175    0.0000 F   0  0  0  0  0  0  0  0  0  0  0  0
   11.3831    3.2175    0.0000 O   0  0  0  0  0  0  0  0  0  0  0  0
   10.9639    1.2619    0.0000 O   0  0  0  0  0  0  0  0  0  0  0  0
    5.5443   -3.0222    0.0000 O   0  0  0  0  0  0  0  0  0  0  0  0
    8.1226    0.9007    0.0000 N   0  0  3  0  0  0  0  0  0  0  0  0
    6.1279   -2.2175    0.0000 N   0  0  0  0  0  0  0  0  0  0  0  0
    9.5253    1.7073    0.0000 C   0  0  3  0  0  0  0  0  0  0  0  0
    8.5310    1.8136    0.0000 C   0  0  0  0  0  0  0  0  0  0  0  0
    9.7315    0.7288    0.0000 C   0  0  0  0  0  0  0  0  0  0  0  0
    8.8646    0.2303    0.0000 C   0  0  0  0  0  0  0  0  0  0  0  0
   10.1957    2.4493    0.0000 C   0  0  0  0  0  0  0  0  0  0  0  0
    7.1441    0.6945    0.0000 C   0  0  0  0  0  0  0  0  0  0  0  0
    6.8335   -0.2560    0.0000 C   0  0  0  0  0  0  0  0  0  0  0  0
    5.8550   -0.4622    0.0000 C   0  0  0  0  0  0  0  0  0  0  0  0
   12.1513    2.0301    0.0000 C   0  0  0  0  0  0  0  0  0  0  0  0
    5.5443   -1.4128    0.0000 C   0  0  0  0  0  0  0  0  0  0  0  0
   12.8217    2.7721    0.0000 C   0  0  0  0  0  0  0  0  0  0  0  0
   12.4586    1.0785    0.0000 C   0  0  0  0  0  0  0  0  0  0  0  0
    4.5981   -1.7175    0.0000 C   0  0  0  0  0  0  0  0  0  0  0  0
   13.7995    2.5625    0.0000 C   0  0  0  0  0  0  0  0  0  0  0  0
   13.4364    0.8689    0.0000 C   0  0  0  0  0  0  0  0  0  0  0  0
    4.5981   -2.7175    0.0000 C   0  0  0  0  0  0  0  0  0  0  0  0
   14.1068    1.6109    0.0000 C   0  0  0  0  0  0  0  0  0  0  0  0
    3.7320   -1.2175    0.0000 C   0  0  0  0  0  0  0  0  0  0  0  0
    3.7320   -3.2175    0.0000 C   0  0  0  0  0  0  0  0  0  0  0  0
    2.8660   -1.7175    0.0000 C   0  0  0  0  0  0  0  0  0  0  0  0
    2.8660   -2.7175    0.0000 C   0  0  0  0  0  0  0  0  0  0  0  0
    9.3041    2.2865    0.0000 H   0  0  0  0  0  0  0  0  0  0  0  0
    8.6609    2.4198    0.0000 H   0  0  0  0  0  0  0  0  0  0  0  0
    7.9416    2.0062    0.0000 H   0  0  0  0  0  0  0  0  0  0  0  0
    9.9827    0.1620    0.0000 H   0  0  0  0  0  0  0  0  0  0  0  0
   10.3215    0.9194    0.0000 H   0  0  0  0  0  0  0  0  0  0  0  0
    8.4032   -0.1838    0.0000 H   0  0  0  0  0  0  0  0  0  0  0  0
    9.2282   -0.2719    0.0000 H   0  0  0  0  0  0  0  0  0  0  0  0
   10.4290    3.0238    0.0000 H   0  0  0  0  0  0  0  0  0  0  0  0
    9.6705    2.7788    0.0000 H   0  0  0  0  0  0  0  0  0  0  0  0
    7.1236    1.3142    0.0000 H   0  0  0  0  0  0  0  0  0  0  0  0
    6.5303    0.7819    0.0000 H   0  0  0  0  0  0  0  0  0  0  0  0
    6.8540   -0.8757    0.0000 H   0  0  0  0  0  0  0  0  0  0  0  0
    7.4473   -0.3434    0.0000 H   0  0  0  0  0  0  0  0  0  0  0  0
    5.8344    0.1574    0.0000 H   0  0  0  0  0  0  0  0  0  0  0  0
    5.2411   -0.3749    0.0000 H   0  0  0  0  0  0  0  0  0  0  0  0
   12.6311    3.3621    0.0000 H   0  0  0  0  0  0  0  0  0  0  0  0
   12.0430    0.6185    0.0000 H   0  0  0  0  0  0  0  0  0  0  0  0
   14.2151    3.0225    0.0000 H   0  0  0  0  0  0  0  0  0  0  0  0
   13.6270    0.2789    0.0000 H   0  0  0  0  0  0  0  0  0  0  0  0
    3.7320   -0.5975    0.0000 H   0  0  0  0  0  0  0  0  0  0  0  0
    3.7320   -3.8375    0.0000 H   0  0  0  0  0  0  0  0  0  0  0  0
    2.3291   -1.4075    0.0000 H   0  0  0  0  0  0  0  0  0  0  0  0
  1  4  2  0  0  0  0
  1  5  2  0  0  0  0
  1 13  1  0  0  0  0
  1 17  1  0  0  0  0
  2 25  1  0  0  0  0
  3 29  1  0  0  0  0
  6  8  1  0  0  0  0
  6 24  1  0  0  0  0
  7 10  1  0  0  0  0
  7 12  1  0  0  0  0
  7 14  1  0  0  0  0
  8 18  2  0  0  0  0
  9 10  1  0  0  0  0
  9 11  1  0  0  0  0
  9 13  1  0  0  0  0
  9 30  1  0  0  0  0
 10 31  1  0  0  0  0
 10 32  1  0  0  0  0
 11 12  1  0  0  0  0
 11 33  1  0  0  0  0
 11 34  1  0  0  0  0
 12 35  1  0  0  0  0
 12 36  1  0  0  0  0
 13 37  1  0  0  0  0
 13 38  1  0  0  0  0
 14 15  1  0  0  0  0
 14 39  1  0  0  0  0
 14 40  1  0  0  0  0
 15 16  1  0  0  0  0
 15 41  1  0  0  0  0
 15 42  1  0  0  0  0
 16 18  1  0  0  0  0
 16 43  1  0  0  0  0
 16 44  1  0  0  0  0
 17 19  2  0  0  0  0
 17 20  1  0  0  0  0
 18 21  1  0  0  0  0
 19 22  1  0  0  0  0
 19 45  1  0  0  0  0
 20 23  2  0  0  0  0
 20 46  1  0  0  0  0
 21 24  2  0  0  0  0
 21 26  1  0  0  0  0
 22 25  2  0  0  0  0
 22 47  1  0  0  0  0
 23 25  1  0  0  0  0
 23 48  1  0  0  0  0
 24 27  1  0  0  0  0
 26 28  2  0  0  0  0
 26 49  1  0  0  0  0
 27 29  2  0  0  0  0
 27 50  1  0  0  0  0
 28 29  1  0  0  0  0
 28 51  1  0  0  0  0
M  END
> <PUBCHEM_COMPOUND_CID>
166626181

> <PUBCHEM_COMPOUND_CANONICALIZED>
1

> <PUBCHEM_CACTVS_COMPLEXITY>
636

> <PUBCHEM_CACTVS_HBOND_ACCEPTOR>
7

> <PUBCHEM_CACTVS_HBOND_DONOR>
0

> <PUBCHEM_CACTVS_ROTATABLE_BOND>
7

> <PUBCHEM_CACTVS_SUBSKEYS>
AAADceB7MYBAAAAAAAAAAAAAAAAAAWLAAAAwYAAAAAAAAFgB9AAAHwQEAAAADQzF3gywh9MQAAqpA6RyQnDCAAAkKBAomDk+TNoIJrqglZOEMYBmwBmoyceYyKCOAAAAAAAIAAAAAAAAABAAAAAAAAAAAA==

> <PUBCHEM_IUPAC_OPENEYE_NAME>
6-fluoro-3-[3-[3-[(4-fluorophenyl)sulfonylmethyl]pyrrolidin-1-yl]propyl]-1,2-benzoxazole

> <PUBCHEM_IUPAC_CAS_NAME>
6-fluoro-3-[3-[3-[(4-fluorophenyl)sulfonylmethyl]-1-pyrrolidinyl]propyl]-1,2-benzoxazole

> <PUBCHEM_IUPAC_NAME_MARKUP>
6-fluoro-3-[3-[3-[(4-fluorophenyl)sulfonylmethyl]pyrrolidin-1-yl]propyl]-1,2-benzoxazole

> <PUBCHEM_IUPAC_NAME>
6-fluoro-3-[3-[3-[(4-fluorophenyl)sulfonylmethyl]pyrrolidin-1-yl]propyl]-1,2-benzoxazole

> <PUBCHEM_IUPAC_SYSTEMATIC_NAME>
6-fluoranyl-3-[3-[3-[(4-fluorophenyl)sulfonylmethyl]pyrrolidin-1-yl]propyl]-1,2-benzoxazole

> <PUBCHEM_IUPAC_TRADITIONAL_NAME>
6-fluoro-3-[3-[3-[(4-fluorophenyl)sulfonylmethyl]pyrrolidino]propyl]indoxazene

> <PUBCHEM_IUPAC_INCHI>
InChI=1S/C21H22F2N2O3S/c22-16-3-6-18(7-4-16)29(26,27)14-15-9-11-25(13-15)10-1-2-20-19-8-5-17(23)12-21(19)28-24-20/h3-8,12,15H,1-2,9-11,13-14H2

> <PUBCHEM_IUPAC_INCHIKEY>
CHOJSUXPQWHSGV-UHFFFAOYSA-N

> <PUBCHEM_XLOGP3_AA>
3.9

> <PUBCHEM_EXACT_MASS>
420.13192007

> <PUBCHEM_MOLECULAR_FORMULA>
C21H22F2N2O3S

> <PUBCHEM_MOLECULAR_WEIGHT>
420.5

> <PUBCHEM_OPENEYE_CAN_SMILES>
C1CN(CC1CS(=O)(=O)C2=CC=C(C=C2)F)CCCC3=NOC4=C3C=CC(=C4)F

> <PUBCHEM_OPENEYE_ISO_SMILES>
C1CN(CC1CS(=O)(=O)C2=CC=C(C=C2)F)CCCC3=NOC4=C3C=CC(=C4)F

> <PUBCHEM_CACTVS_TPSA>
71.8

> <PUBCHEM_MONOISOTOPIC_WEIGHT>
420.13192007

> <PUBCHEM_TOTAL_CHARGE>
0

> <PUBCHEM_HEAVY_ATOM_COUNT>
29

> <PUBCHEM_ATOM_DEF_STEREO_COUNT>
0

> <PUBCHEM_ATOM_UDEF_STEREO_COUNT>
1

> <PUBCHEM_BOND_DEF_STEREO_COUNT>
0

> <PUBCHEM_BOND_UDEF_STEREO_COUNT>
0

> <PUBCHEM_ISOTOPIC_ATOM_COUNT>
0

> <PUBCHEM_COMPONENT_COUNT>
1

> <PUBCHEM_CACTVS_TAUTO_COUNT>
-1

> <PUBCHEM_COORDINATE_TYPE>
1
5
255

> <PUBCHEM_BONDANNOTATIONS>
17  19  8
17  20  8
18  21  8
19  22  8
20  23  8
21  24  8
21  26  8
22  25  8
23  25  8
24  27  8
26  28  8
27  29  8
28  29  8
6  24  8
6  8  8
8  18  8
9  13  3

$$$$
