10088453
  -OEChem-09292322092D

 48 51  0     0  0  0  0  0  0999 V2000
    4.5981    2.0000    0.0000 O   0  0  0  0  0  0  0  0  0  0  0  0
    6.3301   -1.0000    0.0000 N   0  0  0  0  0  0  0  0  0  0  0  0
    4.5981   -0.0000    0.0000 N   0  0  0  0  0  0  0  0  0  0  0  0
   11.6065   -1.1953    0.0000 N   0  0  0  0  0  0  0  0  0  0  0  0
   11.6065   -2.8047    0.0000 N   0  0  0  0  0  0  0  0  0  0  0  0
   12.1901   -2.0000    0.0000 N   0  0  0  0  0  0  0  0  0  0  0  0
    5.4641   -1.5000    0.0000 C   0  0  0  0  0  0  0  0  0  0  0  0
    6.3301    0.0000    0.0000 C   0  0  0  0  0  0  0  0  0  0  0  0
    4.5981   -1.0000    0.0000 C   0  0  0  0  0  0  0  0  0  0  0  0
    5.4641    0.5000    0.0000 C   0  0  0  0  0  0  0  0  0  0  0  0
    7.1962   -1.5000    0.0000 C   0  0  0  0  0  0  0  0  0  0  0  0
    8.0622   -1.0000    0.0000 C   0  0  0  0  0  0  0  0  0  0  0  0
    3.7320    0.5000    0.0000 C   0  0  0  0  0  0  0  0  0  0  0  0
    8.9282   -1.5000    0.0000 C   0  0  0  0  0  0  0  0  0  0  0  0
    3.7320    1.5000    0.0000 C   0  0  0  0  0  0  0  0  0  0  0  0
    2.8660   -0.0000    0.0000 C   0  0  0  0  0  0  0  0  0  0  0  0
    9.7942   -1.0000    0.0000 C   0  0  0  0  0  0  0  0  0  0  0  0
    8.9282   -2.5000    0.0000 C   0  0  0  0  0  0  0  0  0  0  0  0
    2.8660    2.0000    0.0000 C   0  0  0  0  0  0  0  0  0  0  0  0
    2.0000    0.5000    0.0000 C   0  0  0  0  0  0  0  0  0  0  0  0
   10.6603   -1.5000    0.0000 C   0  0  0  0  0  0  0  0  0  0  0  0
    2.0000    1.5000    0.0000 C   0  0  0  0  0  0  0  0  0  0  0  0
    9.7942   -3.0000    0.0000 C   0  0  0  0  0  0  0  0  0  0  0  0
   10.6603   -2.5000    0.0000 C   0  0  0  0  0  0  0  0  0  0  0  0
    4.5981    3.0000    0.0000 C   0  0  0  0  0  0  0  0  0  0  0  0
    5.0656   -1.9750    0.0000 H   0  0  0  0  0  0  0  0  0  0  0  0
    5.8626   -1.9750    0.0000 H   0  0  0  0  0  0  0  0  0  0  0  0
    6.9407   -0.1077    0.0000 H   0  0  0  0  0  0  0  0  0  0  0  0
    6.5422    0.5826    0.0000 H   0  0  0  0  0  0  0  0  0  0  0  0
    3.9875   -0.8923    0.0000 H   0  0  0  0  0  0  0  0  0  0  0  0
    4.3860   -1.5826    0.0000 H   0  0  0  0  0  0  0  0  0  0  0  0
    5.8626    0.9749    0.0000 H   0  0  0  0  0  0  0  0  0  0  0  0
    5.0656    0.9749    0.0000 H   0  0  0  0  0  0  0  0  0  0  0  0
    6.7976   -1.9750    0.0000 H   0  0  0  0  0  0  0  0  0  0  0  0
    7.5947   -1.9750    0.0000 H   0  0  0  0  0  0  0  0  0  0  0  0
    8.4607   -0.5251    0.0000 H   0  0  0  0  0  0  0  0  0  0  0  0
    7.6636   -0.5251    0.0000 H   0  0  0  0  0  0  0  0  0  0  0  0
    2.8660   -0.6200    0.0000 H   0  0  0  0  0  0  0  0  0  0  0  0
    9.7942   -0.3800    0.0000 H   0  0  0  0  0  0  0  0  0  0  0  0
    8.3913   -2.8100    0.0000 H   0  0  0  0  0  0  0  0  0  0  0  0
    2.8660    2.6200    0.0000 H   0  0  0  0  0  0  0  0  0  0  0  0
    1.4631    0.1900    0.0000 H   0  0  0  0  0  0  0  0  0  0  0  0
    1.4631    1.8100    0.0000 H   0  0  0  0  0  0  0  0  0  0  0  0
    9.7942   -3.6200    0.0000 H   0  0  0  0  0  0  0  0  0  0  0  0
    5.2181    3.0000    0.0000 H   0  0  0  0  0  0  0  0  0  0  0  0
    4.5981    3.6200    0.0000 H   0  0  0  0  0  0  0  0  0  0  0  0
    3.9781    3.0000    0.0000 H   0  0  0  0  0  0  0  0  0  0  0  0
   12.8101   -2.0000    0.0000 H   0  0  0  0  0  0  0  0  0  0  0  0
  1 15  1  0  0  0  0
  1 25  1  0  0  0  0
  2  7  1  0  0  0  0
  2  8  1  0  0  0  0
  2 11  1  0  0  0  0
  3  9  1  0  0  0  0
  3 10  1  0  0  0  0
  3 13  1  0  0  0  0
  4  6  1  0  0  0  0
  4 21  2  0  0  0  0
  5  6  1  0  0  0  0
  5 24  2  0  0  0  0
  6 48  1  0  0  0  0
  7  9  1  0  0  0  0
  7 26  1  0  0  0  0
  7 27  1  0  0  0  0
  8 10  1  0  0  0  0
  8 28  1  0  0  0  0
  8 29  1  0  0  0  0
  9 30  1  0  0  0  0
  9 31  1  0  0  0  0
 10 32  1  0  0  0  0
 10 33  1  0  0  0  0
 11 12  1  0  0  0  0
 11 34  1  0  0  0  0
 11 35  1  0  0  0  0
 12 14  1  0  0  0  0
 12 36  1  0  0  0  0
 12 37  1  0  0  0  0
 13 15  1  0  0  0  0
 13 16  2  0  0  0  0
 14 17  2  0  0  0  0
 14 18  1  0  0  0  0
 15 19  2  0  0  0  0
 16 20  1  0  0  0  0
 16 38  1  0  0  0  0
 17 21  1  0  0  0  0
 17 39  1  0  0  0  0
 18 23  2  0  0  0  0
 18 40  1  0  0  0  0
 19 22  1  0  0  0  0
 19 41  1  0  0  0  0
 20 22  2  0  0  0  0
 20 42  1  0  0  0  0
 21 24  1  0  0  0  0
 22 43  1  0  0  0  0
 23 24  1  0  0  0  0
 23 44  1  0  0  0  0
 25 45  1  0  0  0  0
 25 46  1  0  0  0  0
 25 47  1  0  0  0  0
M  END
> <PUBCHEM_COMPOUND_CID>
10088453

> <PUBCHEM_COMPOUND_CANONICALIZED>
1

> <PUBCHEM_CACTVS_COMPLEXITY>
415

> <PUBCHEM_CACTVS_HBOND_ACCEPTOR>
5

> <PUBCHEM_CACTVS_HBOND_DONOR>
1

> <PUBCHEM_CACTVS_ROTATABLE_BOND>
5

> <PUBCHEM_CACTVS_SUBSKEYS>
AAADceB7oAAAAAAAAAAAAAAAAAAAAWAAAAA8YIAAAAAAAFgB9AAAHgAYAAAADAzBngYyxrMCBACiAyRiQACCDAQhMgAYuCA/fJgOZqLEsZuVMChkwBHY6AeQwIAOCAAAQAAAECAQAACAAAAgQAAAAAAAAA==

> <PUBCHEM_IUPAC_OPENEYE_NAME>
5-[2-[4-(2-methoxyphenyl)piperazin-1-yl]ethyl]-2H-benzotriazole

> <PUBCHEM_IUPAC_CAS_NAME>
5-[2-[4-(2-methoxyphenyl)-1-piperazinyl]ethyl]-2H-benzotriazole

> <PUBCHEM_IUPAC_NAME_MARKUP>
5-[2-[4-(2-methoxyphenyl)piperazin-1-yl]ethyl]-2<I>H</I>-benzotriazole

> <PUBCHEM_IUPAC_NAME>
5-[2-[4-(2-methoxyphenyl)piperazin-1-yl]ethyl]-2H-benzotriazole

> <PUBCHEM_IUPAC_SYSTEMATIC_NAME>
5-[2-[4-(2-methoxyphenyl)piperazin-1-yl]ethyl]-2H-benzotriazole

> <PUBCHEM_IUPAC_TRADITIONAL_NAME>
5-[2-[4-(2-methoxyphenyl)piperazino]ethyl]-2H-benzotriazole

> <PUBCHEM_IUPAC_INCHI>
InChI=1S/C19H23N5O/c1-25-19-5-3-2-4-18(19)24-12-10-23(11-13-24)9-8-15-6-7-16-17(14-15)21-22-20-16/h2-7,14H,8-13H2,1H3,(H,20,21,22)

> <PUBCHEM_IUPAC_INCHIKEY>
QOTYCLIFPPZNAZ-UHFFFAOYSA-N

> <PUBCHEM_XLOGP3_AA>
2.9

> <PUBCHEM_EXACT_MASS>
337.19026037

> <PUBCHEM_MOLECULAR_FORMULA>
C19H23N5O

> <PUBCHEM_MOLECULAR_WEIGHT>
337.4

> <PUBCHEM_OPENEYE_CAN_SMILES>
COC1=CC=CC=C1N2CCN(CC2)CCC3=CC4=NNN=C4C=C3

> <PUBCHEM_OPENEYE_ISO_SMILES>
COC1=CC=CC=C1N2CCN(CC2)CCC3=CC4=NNN=C4C=C3

> <PUBCHEM_CACTVS_TPSA>
57.3

> <PUBCHEM_MONOISOTOPIC_WEIGHT>
337.19026037

> <PUBCHEM_TOTAL_CHARGE>
0

> <PUBCHEM_HEAVY_ATOM_COUNT>
25

> <PUBCHEM_ATOM_DEF_STEREO_COUNT>
0

> <PUBCHEM_ATOM_UDEF_STEREO_COUNT>
0

> <PUBCHEM_BOND_DEF_STEREO_COUNT>
0

> <PUBCHEM_BOND_UDEF_STEREO_COUNT>
0

> <PUBCHEM_ISOTOPIC_ATOM_COUNT>
0

> <PUBCHEM_COMPONENT_COUNT>
1

> <PUBCHEM_CACTVS_TAUTO_COUNT>
-1

> <PUBCHEM_COORDINATE_TYPE>
1
5
255

> <PUBCHEM_BONDANNOTATIONS>
13  15  8
13  16  8
14  17  8
14  18  8
15  19  8
16  20  8
17  21  8
18  23  8
19  22  8
20  22  8
21  24  8
23  24  8
4  21  8
4  6  8
5  24  8
5  6  8

$$$$
