162644347
  -OEChem-09292322432D

 41 44  0     0  0  0  0  0  0999 V2000
    7.5673    4.0753    0.0000 Cl  0  0  0  0  0  0  0  0  0  0  0  0
    4.9889    1.7618    0.0000 S   0  0  0  0  0  0  0  0  0  0  0  0
    5.9394    1.4512    0.0000 O   0  0  0  0  0  0  0  0  0  0  0  0
    4.0384    2.0725    0.0000 O   0  0  0  0  0  0  0  0  0  0  0  0
    2.8660   -1.9934    0.0000 N   0  0  0  0  0  0  0  0  0  0  0  0
    2.8660   -3.9934    0.0000 N   0  0  0  0  0  0  0  0  0  0  0  0
    4.6783    0.8113    0.0000 N   0  0  0  0  0  0  0  0  0  0  0  0
    2.0000   -0.4934    0.0000 N   0  0  0  0  0  0  0  0  0  0  0  0
    4.6783   -0.7981    0.0000 N   0  0  0  0  0  0  0  0  0  0  0  0
    2.0000   -2.4934    0.0000 C   0  0  0  0  0  0  0  0  0  0  0  0
    3.7320   -2.4934    0.0000 C   0  0  0  0  0  0  0  0  0  0  0  0
    2.0000   -3.4934    0.0000 C   0  0  0  0  0  0  0  0  0  0  0  0
    3.7320   -3.4934    0.0000 C   0  0  0  0  0  0  0  0  0  0  0  0
    2.8660   -0.9934    0.0000 C   0  0  0  0  0  0  0  0  0  0  0  0
    3.7320   -0.4934    0.0000 C   0  0  0  0  0  0  0  0  0  0  0  0
    3.7320    0.5066    0.0000 C   0  0  0  0  0  0  0  0  0  0  0  0
    5.2619    0.0066    0.0000 C   0  0  0  0  0  0  0  0  0  0  0  0
    2.8660    1.0066    0.0000 C   0  0  0  0  0  0  0  0  0  0  0  0
    2.0000    0.5066    0.0000 C   0  0  0  0  0  0  0  0  0  0  0  0
    5.2996    2.7124    0.0000 C   0  0  0  0  0  0  0  0  0  0  0  0
    6.2781    2.9186    0.0000 C   0  0  0  0  0  0  0  0  0  0  0  0
    4.6318    3.4567    0.0000 C   0  0  0  0  0  0  0  0  0  0  0  0
    6.5888    3.8691    0.0000 C   0  0  0  0  0  0  0  0  0  0  0  0
    4.9424    4.4072    0.0000 C   0  0  0  0  0  0  0  0  0  0  0  0
    5.9209    4.6134    0.0000 C   0  0  0  0  0  0  0  0  0  0  0  0
    1.7880   -1.9108    0.0000 H   0  0  0  0  0  0  0  0  0  0  0  0
    1.3894   -2.6011    0.0000 H   0  0  0  0  0  0  0  0  0  0  0  0
    4.3426   -2.6011    0.0000 H   0  0  0  0  0  0  0  0  0  0  0  0
    3.9441   -1.9108    0.0000 H   0  0  0  0  0  0  0  0  0  0  0  0
    1.3894   -3.3857    0.0000 H   0  0  0  0  0  0  0  0  0  0  0  0
    1.7880   -4.0760    0.0000 H   0  0  0  0  0  0  0  0  0  0  0  0
    3.9441   -4.0760    0.0000 H   0  0  0  0  0  0  0  0  0  0  0  0
    4.3426   -3.3857    0.0000 H   0  0  0  0  0  0  0  0  0  0  0  0
    2.8660   -4.6134    0.0000 H   0  0  0  0  0  0  0  0  0  0  0  0
    5.8819    0.0066    0.0000 H   0  0  0  0  0  0  0  0  0  0  0  0
    2.8660    1.6266    0.0000 H   0  0  0  0  0  0  0  0  0  0  0  0
    1.4631    0.8166    0.0000 H   0  0  0  0  0  0  0  0  0  0  0  0
    6.6922    2.4571    0.0000 H   0  0  0  0  0  0  0  0  0  0  0  0
    4.0251    3.3288    0.0000 H   0  0  0  0  0  0  0  0  0  0  0  0
    4.5284    4.8686    0.0000 H   0  0  0  0  0  0  0  0  0  0  0  0
    6.1135    5.2027    0.0000 H   0  0  0  0  0  0  0  0  0  0  0  0
  1 23  1  0  0  0  0
  2  3  2  0  0  0  0
  2  4  2  0  0  0  0
  2  7  1  0  0  0  0
  2 20  1  0  0  0  0
  5 10  1  0  0  0  0
  5 11  1  0  0  0  0
  5 14  1  0  0  0  0
  6 12  1  0  0  0  0
  6 13  1  0  0  0  0
  6 34  1  0  0  0  0
  7 16  1  0  0  0  0
  7 17  1  0  0  0  0
  8 14  2  0  0  0  0
  8 19  1  0  0  0  0
  9 15  1  0  0  0  0
  9 17  2  0  0  0  0
 10 12  1  0  0  0  0
 10 26  1  0  0  0  0
 10 27  1  0  0  0  0
 11 13  1  0  0  0  0
 11 28  1  0  0  0  0
 11 29  1  0  0  0  0
 12 30  1  0  0  0  0
 12 31  1  0  0  0  0
 13 32  1  0  0  0  0
 13 33  1  0  0  0  0
 14 15  1  0  0  0  0
 15 16  2  0  0  0  0
 16 18  1  0  0  0  0
 17 35  1  0  0  0  0
 18 19  2  0  0  0  0
 18 36  1  0  0  0  0
 19 37  1  0  0  0  0
 20 21  2  0  0  0  0
 20 22  1  0  0  0  0
 21 23  1  0  0  0  0
 21 38  1  0  0  0  0
 22 24  2  0  0  0  0
 22 39  1  0  0  0  0
 23 25  2  0  0  0  0
 24 25  1  0  0  0  0
 24 40  1  0  0  0  0
 25 41  1  0  0  0  0
M  END
> <PUBCHEM_COMPOUND_CID>
162644347

> <PUBCHEM_COMPOUND_CANONICALIZED>
1

> <PUBCHEM_CACTVS_COMPLEXITY>
565

> <PUBCHEM_CACTVS_HBOND_ACCEPTOR>
6

> <PUBCHEM_CACTVS_HBOND_DONOR>
1

> <PUBCHEM_CACTVS_ROTATABLE_BOND>
3

> <PUBCHEM_CACTVS_SUBSKEYS>
AAADceB7sABEAAAAAAAAAAAAAAAAAWAAAAA8WIAAAAAAAFgB/AAAHAYQQAAACArBViQ98bfIEAKgATZnZHDCgD0xF6AJ2Lg4dpiIaOLB29GUJAhokALIyCcQAAAAAAAAABAAAAAAAAAAIAAAAAAAAAAAAA==

> <PUBCHEM_IUPAC_OPENEYE_NAME>
1-(3-chlorophenyl)sulfonyl-4-piperazin-1-yl-imidazo[4,5-c]pyridine

> <PUBCHEM_IUPAC_CAS_NAME>
1-(3-chlorophenyl)sulfonyl-4-(1-piperazinyl)imidazo[4,5-c]pyridine

> <PUBCHEM_IUPAC_NAME_MARKUP>
1-(3-chlorophenyl)sulfonyl-4-piperazin-1-ylimidazo[4,5-c]pyridine

> <PUBCHEM_IUPAC_NAME>
1-(3-chlorophenyl)sulfonyl-4-piperazin-1-ylimidazo[4,5-c]pyridine

> <PUBCHEM_IUPAC_SYSTEMATIC_NAME>
1-(3-chlorophenyl)sulfonyl-4-piperazin-1-yl-imidazo[4,5-c]pyridine

> <PUBCHEM_IUPAC_TRADITIONAL_NAME>
1-(3-chlorophenyl)sulfonyl-4-piperazino-imidazo[4,5-c]pyridine

> <PUBCHEM_IUPAC_INCHI>
InChI=1S/C16H16ClN5O2S/c17-12-2-1-3-13(10-12)25(23,24)22-11-20-15-14(22)4-5-19-16(15)21-8-6-18-7-9-21/h1-5,10-11,18H,6-9H2

> <PUBCHEM_IUPAC_INCHIKEY>
MMZBVOVVPMVDQY-UHFFFAOYSA-N

> <PUBCHEM_XLOGP3_AA>
2

> <PUBCHEM_EXACT_MASS>
377.0713236

> <PUBCHEM_MOLECULAR_FORMULA>
C16H16ClN5O2S

> <PUBCHEM_MOLECULAR_WEIGHT>
377.8

> <PUBCHEM_OPENEYE_CAN_SMILES>
C1CN(CCN1)C2=NC=CC3=C2N=CN3S(=O)(=O)C4=CC(=CC=C4)Cl

> <PUBCHEM_OPENEYE_ISO_SMILES>
C1CN(CCN1)C2=NC=CC3=C2N=CN3S(=O)(=O)C4=CC(=CC=C4)Cl

> <PUBCHEM_CACTVS_TPSA>
88.5

> <PUBCHEM_MONOISOTOPIC_WEIGHT>
377.0713236

> <PUBCHEM_TOTAL_CHARGE>
0

> <PUBCHEM_HEAVY_ATOM_COUNT>
25

> <PUBCHEM_ATOM_DEF_STEREO_COUNT>
0

> <PUBCHEM_ATOM_UDEF_STEREO_COUNT>
0

> <PUBCHEM_BOND_DEF_STEREO_COUNT>
0

> <PUBCHEM_BOND_UDEF_STEREO_COUNT>
0

> <PUBCHEM_ISOTOPIC_ATOM_COUNT>
0

> <PUBCHEM_COMPONENT_COUNT>
1

> <PUBCHEM_CACTVS_TAUTO_COUNT>
-1

> <PUBCHEM_COORDINATE_TYPE>
1
5
255

> <PUBCHEM_BONDANNOTATIONS>
14  15  8
15  16  8
16  18  8
18  19  8
20  21  8
20  22  8
21  23  8
22  24  8
23  25  8
24  25  8
7  16  8
7  17  8
8  14  8
8  19  8
9  15  8
9  17  8

$$$$
