71725023
  -OEChem-09292322072D

 61 64  0     0  0  0  0  0  0999 V2000
    9.7619    2.3621    0.0000 O   0  0  0  0  0  0  0  0  0  0  0  0
    6.7619   -2.8341    0.0000 O   0  0  0  0  0  0  0  0  0  0  0  0
    7.7619    0.6300    0.0000 N   0  0  0  0  0  0  0  0  0  0  0  0
    6.7619   -1.1020    0.0000 N   0  0  0  0  0  0  0  0  0  0  0  0
    4.6783   -2.7728    0.0000 N   0  0  0  0  0  0  0  0  0  0  0  0
    6.7619    0.6300    0.0000 C   0  0  0  0  0  0  0  0  0  0  0  0
    8.2619   -0.2360    0.0000 C   0  0  0  0  0  0  0  0  0  0  0  0
    6.2619   -0.2360    0.0000 C   0  0  0  0  0  0  0  0  0  0  0  0
    7.7619   -1.1020    0.0000 C   0  0  0  0  0  0  0  0  0  0  0  0
    8.2619    1.4961    0.0000 C   0  0  0  0  0  0  0  0  0  0  0  0
    6.2619   -1.9680    0.0000 C   0  0  0  0  0  0  0  0  0  0  0  0
    9.2619    1.4961    0.0000 C   0  0  0  0  0  0  0  0  0  0  0  0
   13.7619    2.3621    0.0000 C   0  0  0  0  0  0  0  0  0  0  0  0
    5.2619   -1.9680    0.0000 C   0  0  0  0  0  0  0  0  0  0  0  0
   12.7619    2.3621    0.0000 C   0  0  0  0  0  0  0  0  0  0  0  0
   14.7619    2.3621    0.0000 C   0  0  0  0  0  0  0  0  0  0  0  0
   13.7619    3.3621    0.0000 C   0  0  0  0  0  0  0  0  0  0  0  0
   13.7619    1.3621    0.0000 C   0  0  0  0  0  0  0  0  0  0  0  0
    4.6783   -1.1633    0.0000 C   0  0  0  0  0  0  0  0  0  0  0  0
   10.7619    2.3621    0.0000 C   0  0  0  0  0  0  0  0  0  0  0  0
    3.7320   -2.4680    0.0000 C   0  0  0  0  0  0  0  0  0  0  0  0
    3.7320   -1.4680    0.0000 C   0  0  0  0  0  0  0  0  0  0  0  0
   12.2619    1.4961    0.0000 C   0  0  0  0  0  0  0  0  0  0  0  0
   12.2619    3.2281    0.0000 C   0  0  0  0  0  0  0  0  0  0  0  0
   11.2619    1.4961    0.0000 C   0  0  0  0  0  0  0  0  0  0  0  0
   11.2619    3.2281    0.0000 C   0  0  0  0  0  0  0  0  0  0  0  0
    2.8660   -2.9680    0.0000 C   0  0  0  0  0  0  0  0  0  0  0  0
    2.8660   -0.9680    0.0000 C   0  0  0  0  0  0  0  0  0  0  0  0
    2.0000   -2.4680    0.0000 C   0  0  0  0  0  0  0  0  0  0  0  0
    2.0000   -1.4680    0.0000 C   0  0  0  0  0  0  0  0  0  0  0  0
    6.8695    1.2406    0.0000 H   0  0  0  0  0  0  0  0  0  0  0  0
    6.1793    0.8421    0.0000 H   0  0  0  0  0  0  0  0  0  0  0  0
    8.7368   -0.6345    0.0000 H   0  0  0  0  0  0  0  0  0  0  0  0
    8.7368    0.1625    0.0000 H   0  0  0  0  0  0  0  0  0  0  0  0
    5.7869    0.1625    0.0000 H   0  0  0  0  0  0  0  0  0  0  0  0
    5.7869   -0.6345    0.0000 H   0  0  0  0  0  0  0  0  0  0  0  0
    7.6542   -1.7126    0.0000 H   0  0  0  0  0  0  0  0  0  0  0  0
    8.3445   -1.3141    0.0000 H   0  0  0  0  0  0  0  0  0  0  0  0
    8.3695    2.1066    0.0000 H   0  0  0  0  0  0  0  0  0  0  0  0
    7.6793    1.7081    0.0000 H   0  0  0  0  0  0  0  0  0  0  0  0
    9.1542    0.8855    0.0000 H   0  0  0  0  0  0  0  0  0  0  0  0
    9.8445    1.2840    0.0000 H   0  0  0  0  0  0  0  0  0  0  0  0
   14.7619    1.7421    0.0000 H   0  0  0  0  0  0  0  0  0  0  0  0
   15.3819    2.3621    0.0000 H   0  0  0  0  0  0  0  0  0  0  0  0
   14.7619    2.9821    0.0000 H   0  0  0  0  0  0  0  0  0  0  0  0
   14.3819    3.3621    0.0000 H   0  0  0  0  0  0  0  0  0  0  0  0
   13.7619    3.9821    0.0000 H   0  0  0  0  0  0  0  0  0  0  0  0
   13.1419    3.3621    0.0000 H   0  0  0  0  0  0  0  0  0  0  0  0
   13.1419    1.3621    0.0000 H   0  0  0  0  0  0  0  0  0  0  0  0
   13.7619    0.7421    0.0000 H   0  0  0  0  0  0  0  0  0  0  0  0
   14.3819    1.3621    0.0000 H   0  0  0  0  0  0  0  0  0  0  0  0
    4.8709   -3.3621    0.0000 H   0  0  0  0  0  0  0  0  0  0  0  0
    4.8709   -0.5740    0.0000 H   0  0  0  0  0  0  0  0  0  0  0  0
   12.5719    0.9591    0.0000 H   0  0  0  0  0  0  0  0  0  0  0  0
   12.5719    3.7650    0.0000 H   0  0  0  0  0  0  0  0  0  0  0  0
   10.9519    0.9591    0.0000 H   0  0  0  0  0  0  0  0  0  0  0  0
   10.9519    3.7650    0.0000 H   0  0  0  0  0  0  0  0  0  0  0  0
    2.8660   -3.5880    0.0000 H   0  0  0  0  0  0  0  0  0  0  0  0
    2.8660   -0.3480    0.0000 H   0  0  0  0  0  0  0  0  0  0  0  0
    1.4631   -2.7780    0.0000 H   0  0  0  0  0  0  0  0  0  0  0  0
    1.4631   -1.1580    0.0000 H   0  0  0  0  0  0  0  0  0  0  0  0
  1 12  1  0  0  0  0
  1 20  1  0  0  0  0
  2 11  2  0  0  0  0
  3  6  1  0  0  0  0
  3  7  1  0  0  0  0
  3 10  1  0  0  0  0
  4  8  1  0  0  0  0
  4  9  1  0  0  0  0
  4 11  1  0  0  0  0
  5 14  1  0  0  0  0
  5 21  1  0  0  0  0
  5 52  1  0  0  0  0
  6  8  1  0  0  0  0
  6 31  1  0  0  0  0
  6 32  1  0  0  0  0
  7  9  1  0  0  0  0
  7 33  1  0  0  0  0
  7 34  1  0  0  0  0
  8 35  1  0  0  0  0
  8 36  1  0  0  0  0
  9 37  1  0  0  0  0
  9 38  1  0  0  0  0
 10 12  1  0  0  0  0
 10 39  1  0  0  0  0
 10 40  1  0  0  0  0
 11 14  1  0  0  0  0
 12 41  1  0  0  0  0
 12 42  1  0  0  0  0
 13 15  1  0  0  0  0
 13 16  1  0  0  0  0
 13 17  1  0  0  0  0
 13 18  1  0  0  0  0
 14 19  2  0  0  0  0
 15 23  2  0  0  0  0
 15 24  1  0  0  0  0
 16 43  1  0  0  0  0
 16 44  1  0  0  0  0
 16 45  1  0  0  0  0
 17 46  1  0  0  0  0
 17 47  1  0  0  0  0
 17 48  1  0  0  0  0
 18 49  1  0  0  0  0
 18 50  1  0  0  0  0
 18 51  1  0  0  0  0
 19 22  1  0  0  0  0
 19 53  1  0  0  0  0
 20 25  2  0  0  0  0
 20 26  1  0  0  0  0
 21 22  1  0  0  0  0
 21 27  2  0  0  0  0
 22 28  2  0  0  0  0
 23 25  1  0  0  0  0
 23 54  1  0  0  0  0
 24 26  2  0  0  0  0
 24 55  1  0  0  0  0
 25 56  1  0  0  0  0
 26 57  1  0  0  0  0
 27 29  1  0  0  0  0
 27 58  1  0  0  0  0
 28 30  1  0  0  0  0
 28 59  1  0  0  0  0
 29 30  2  0  0  0  0
 29 60  1  0  0  0  0
 30 61  1  0  0  0  0
M  END
> <PUBCHEM_COMPOUND_CID>
71725023

> <PUBCHEM_COMPOUND_CANONICALIZED>
1

> <PUBCHEM_CACTVS_COMPLEXITY>
559

> <PUBCHEM_CACTVS_HBOND_ACCEPTOR>
3

> <PUBCHEM_CACTVS_HBOND_DONOR>
1

> <PUBCHEM_CACTVS_ROTATABLE_BOND>
6

> <PUBCHEM_CACTVS_SUBSKEYS>
AAADceB7MAAAAAAAAAAAAAAAAAAAAWAAAAA8YIAAAAAAAFgB9AAAHgAQAAAADgzhngYyxvPJlACoAyVyVACCiCAnIiAImSG+bNgOZvLEtbuXOSjk1hHY6YeYydCfoAAAAAACAABAAAAAAAQAAAAAAAAAAA==

> <PUBCHEM_IUPAC_OPENEYE_NAME>
[4-[2-(4-tert-butylphenoxy)ethyl]piperazin-1-yl]-(1H-indol-2-yl)methanone

> <PUBCHEM_IUPAC_CAS_NAME>
[4-[2-(4-tert-butylphenoxy)ethyl]-1-piperazinyl]-(1H-indol-2-yl)methanone

> <PUBCHEM_IUPAC_NAME_MARKUP>
[4-[2-(4-<I>tert</I>-butylphenoxy)ethyl]piperazin-1-yl]-(1<I>H</I>-indol-2-yl)methanone

> <PUBCHEM_IUPAC_NAME>
[4-[2-(4-tert-butylphenoxy)ethyl]piperazin-1-yl]-(1H-indol-2-yl)methanone

> <PUBCHEM_IUPAC_SYSTEMATIC_NAME>
[4-[2-(4-tert-butylphenoxy)ethyl]piperazin-1-yl]-(1H-indol-2-yl)methanone

> <PUBCHEM_IUPAC_TRADITIONAL_NAME>
[4-[2-(4-tert-butylphenoxy)ethyl]piperazino]-(1H-indol-2-yl)methanone

> <PUBCHEM_IUPAC_INCHI>
InChI=1S/C25H31N3O2/c1-25(2,3)20-8-10-21(11-9-20)30-17-16-27-12-14-28(15-13-27)24(29)23-18-19-6-4-5-7-22(19)26-23/h4-11,18,26H,12-17H2,1-3H3

> <PUBCHEM_IUPAC_INCHIKEY>
WIIDARSISDDYHB-UHFFFAOYSA-N

> <PUBCHEM_XLOGP3_AA>
5

> <PUBCHEM_EXACT_MASS>
405.24162724

> <PUBCHEM_MOLECULAR_FORMULA>
C25H31N3O2

> <PUBCHEM_MOLECULAR_WEIGHT>
405.5

> <PUBCHEM_OPENEYE_CAN_SMILES>
CC(C)(C)C1=CC=C(C=C1)OCCN2CCN(CC2)C(=O)C3=CC4=CC=CC=C4N3

> <PUBCHEM_OPENEYE_ISO_SMILES>
CC(C)(C)C1=CC=C(C=C1)OCCN2CCN(CC2)C(=O)C3=CC4=CC=CC=C4N3

> <PUBCHEM_CACTVS_TPSA>
48.6

> <PUBCHEM_MONOISOTOPIC_WEIGHT>
405.24162724

> <PUBCHEM_TOTAL_CHARGE>
0

> <PUBCHEM_HEAVY_ATOM_COUNT>
30

> <PUBCHEM_ATOM_DEF_STEREO_COUNT>
0

> <PUBCHEM_ATOM_UDEF_STEREO_COUNT>
0

> <PUBCHEM_BOND_DEF_STEREO_COUNT>
0

> <PUBCHEM_BOND_UDEF_STEREO_COUNT>
0

> <PUBCHEM_ISOTOPIC_ATOM_COUNT>
0

> <PUBCHEM_COMPONENT_COUNT>
1

> <PUBCHEM_CACTVS_TAUTO_COUNT>
-1

> <PUBCHEM_COORDINATE_TYPE>
1
5
255

> <PUBCHEM_BONDANNOTATIONS>
14  19  8
15  23  8
15  24  8
19  22  8
20  25  8
20  26  8
21  22  8
21  27  8
22  28  8
23  25  8
24  26  8
27  29  8
28  30  8
29  30  8
5  14  8
5  21  8

$$$$
