156021059
  -OEChem-09292322422D

 59 63  0     0  0  0  0  0  0999 V2000
   15.2917   -0.4511    0.0000 S   0  0  0  0  0  0  0  0  0  0  0  0
    4.9889    3.4022    0.0000 O   0  0  0  0  0  0  0  0  0  0  0  0
   10.7619   -0.9511    0.0000 N   0  0  0  0  0  0  0  0  0  0  0  0
   12.7619   -0.9511    0.0000 N   0  0  0  0  0  0  0  0  0  0  0  0
   14.3455   -0.1464    0.0000 N   0  0  0  0  0  0  0  0  0  0  0  0
    5.2619    1.6470    0.0000 N   0  0  0  0  0  0  0  0  0  0  0  0
    3.7320    2.1470    0.0000 N   0  0  0  0  0  0  0  0  0  0  0  0
    4.6783    0.8422    0.0000 N   0  0  0  0  0  0  0  0  0  0  0  0
   11.2619   -1.8172    0.0000 C   0  0  0  0  0  0  0  0  0  0  0  0
   11.2619   -0.0851    0.0000 C   0  0  0  0  0  0  0  0  0  0  0  0
    9.7619   -0.9511    0.0000 C   0  0  0  0  0  0  0  0  0  0  0  0
   12.2619   -1.8172    0.0000 C   0  0  0  0  0  0  0  0  0  0  0  0
   12.2619   -0.0851    0.0000 C   0  0  0  0  0  0  0  0  0  0  0  0
    9.2619   -0.0851    0.0000 C   0  0  0  0  0  0  0  0  0  0  0  0
    8.2619   -0.0851    0.0000 C   0  0  0  0  0  0  0  0  0  0  0  0
    7.7619    0.7809    0.0000 C   0  0  0  0  0  0  0  0  0  0  0  0
   13.7619   -0.9511    0.0000 C   0  0  0  0  0  0  0  0  0  0  0  0
    6.7619    0.7809    0.0000 C   0  0  0  0  0  0  0  0  0  0  0  0
   14.3455   -1.7559    0.0000 C   0  0  0  0  0  0  0  0  0  0  0  0
    6.2619    1.6470    0.0000 C   0  0  0  0  0  0  0  0  0  0  0  0
   15.2960   -1.4452    0.0000 C   0  0  0  0  0  0  0  0  0  0  0  0
   14.1393   -2.7344    0.0000 C   0  0  0  0  0  0  0  0  0  0  0  0
    4.6783    2.4517    0.0000 C   0  0  0  0  0  0  0  0  0  0  0  0
   16.0403   -2.1130    0.0000 C   0  0  0  0  0  0  0  0  0  0  0  0
    3.7320    1.1470    0.0000 C   0  0  0  0  0  0  0  0  0  0  0  0
   14.8836   -3.4022    0.0000 C   0  0  0  0  0  0  0  0  0  0  0  0
   15.8341   -3.0915    0.0000 C   0  0  0  0  0  0  0  0  0  0  0  0
    2.8660    2.6470    0.0000 C   0  0  0  0  0  0  0  0  0  0  0  0
    2.8660    0.6470    0.0000 C   0  0  0  0  0  0  0  0  0  0  0  0
    2.0000    2.1470    0.0000 C   0  0  0  0  0  0  0  0  0  0  0  0
    2.0000    1.1470    0.0000 C   0  0  0  0  0  0  0  0  0  0  0  0
   10.6793   -2.0292    0.0000 H   0  0  0  0  0  0  0  0  0  0  0  0
   11.3695   -2.4277    0.0000 H   0  0  0  0  0  0  0  0  0  0  0  0
   11.3695    0.5255    0.0000 H   0  0  0  0  0  0  0  0  0  0  0  0
   10.6793    0.1270    0.0000 H   0  0  0  0  0  0  0  0  0  0  0  0
    9.1793   -1.1632    0.0000 H   0  0  0  0  0  0  0  0  0  0  0  0
    9.8695   -1.5617    0.0000 H   0  0  0  0  0  0  0  0  0  0  0  0
   12.1542   -2.4277    0.0000 H   0  0  0  0  0  0  0  0  0  0  0  0
   12.8445   -2.0292    0.0000 H   0  0  0  0  0  0  0  0  0  0  0  0
   12.8445    0.1270    0.0000 H   0  0  0  0  0  0  0  0  0  0  0  0
   12.1542    0.5255    0.0000 H   0  0  0  0  0  0  0  0  0  0  0  0
    9.8445    0.1270    0.0000 H   0  0  0  0  0  0  0  0  0  0  0  0
    9.1542    0.5255    0.0000 H   0  0  0  0  0  0  0  0  0  0  0  0
    7.6793   -0.2972    0.0000 H   0  0  0  0  0  0  0  0  0  0  0  0
    8.3695   -0.6957    0.0000 H   0  0  0  0  0  0  0  0  0  0  0  0
    8.3445    0.9930    0.0000 H   0  0  0  0  0  0  0  0  0  0  0  0
    7.6542    1.3915    0.0000 H   0  0  0  0  0  0  0  0  0  0  0  0
    6.1793    0.5689    0.0000 H   0  0  0  0  0  0  0  0  0  0  0  0
    6.8695    0.1703    0.0000 H   0  0  0  0  0  0  0  0  0  0  0  0
    6.8445    1.8590    0.0000 H   0  0  0  0  0  0  0  0  0  0  0  0
    6.1542    2.2575    0.0000 H   0  0  0  0  0  0  0  0  0  0  0  0
   13.5499   -2.9270    0.0000 H   0  0  0  0  0  0  0  0  0  0  0  0
   16.6296   -1.9204    0.0000 H   0  0  0  0  0  0  0  0  0  0  0  0
   14.7557   -4.0089    0.0000 H   0  0  0  0  0  0  0  0  0  0  0  0
   16.2956   -3.5056    0.0000 H   0  0  0  0  0  0  0  0  0  0  0  0
    2.8660    3.2670    0.0000 H   0  0  0  0  0  0  0  0  0  0  0  0
    2.8660    0.0270    0.0000 H   0  0  0  0  0  0  0  0  0  0  0  0
    1.4631    2.4570    0.0000 H   0  0  0  0  0  0  0  0  0  0  0  0
    1.4631    0.8370    0.0000 H   0  0  0  0  0  0  0  0  0  0  0  0
  1  5  1  0  0  0  0
  1 21  1  0  0  0  0
  2 23  2  0  0  0  0
  3  9  1  0  0  0  0
  3 10  1  0  0  0  0
  3 11  1  0  0  0  0
  4 12  1  0  0  0  0
  4 13  1  0  0  0  0
  4 17  1  0  0  0  0
  5 17  2  0  0  0  0
  6  8  1  0  0  0  0
  6 20  1  0  0  0  0
  6 23  1  0  0  0  0
  7 23  1  0  0  0  0
  7 25  1  0  0  0  0
  7 28  1  0  0  0  0
  8 25  2  0  0  0  0
  9 12  1  0  0  0  0
  9 32  1  0  0  0  0
  9 33  1  0  0  0  0
 10 13  1  0  0  0  0
 10 34  1  0  0  0  0
 10 35  1  0  0  0  0
 11 14  1  0  0  0  0
 11 36  1  0  0  0  0
 11 37  1  0  0  0  0
 12 38  1  0  0  0  0
 12 39  1  0  0  0  0
 13 40  1  0  0  0  0
 13 41  1  0  0  0  0
 14 15  1  0  0  0  0
 14 42  1  0  0  0  0
 14 43  1  0  0  0  0
 15 16  1  0  0  0  0
 15 44  1  0  0  0  0
 15 45  1  0  0  0  0
 16 18  1  0  0  0  0
 16 46  1  0  0  0  0
 16 47  1  0  0  0  0
 17 19  1  0  0  0  0
 18 20  1  0  0  0  0
 18 48  1  0  0  0  0
 18 49  1  0  0  0  0
 19 21  1  0  0  0  0
 19 22  2  0  0  0  0
 20 50  1  0  0  0  0
 20 51  1  0  0  0  0
 21 24  2  0  0  0  0
 22 26  1  0  0  0  0
 22 52  1  0  0  0  0
 24 27  1  0  0  0  0
 24 53  1  0  0  0  0
 25 29  1  0  0  0  0
 26 27  2  0  0  0  0
 26 54  1  0  0  0  0
 27 55  1  0  0  0  0
 28 30  2  0  0  0  0
 28 56  1  0  0  0  0
 29 31  2  0  0  0  0
 29 57  1  0  0  0  0
 30 31  1  0  0  0  0
 30 58  1  0  0  0  0
 31 59  1  0  0  0  0
M  END
> <PUBCHEM_COMPOUND_CID>
156021059

> <PUBCHEM_COMPOUND_CANONICALIZED>
1

> <PUBCHEM_CACTVS_COMPLEXITY>
732

> <PUBCHEM_CACTVS_HBOND_ACCEPTOR>
6

> <PUBCHEM_CACTVS_HBOND_DONOR>
0

> <PUBCHEM_CACTVS_ROTATABLE_BOND>
8

> <PUBCHEM_CACTVS_SUBSKEYS>
AAADceB7oABAAAAAAAAAAAAAAAAAAWIAAAA8QIAAAAAAAFgB8AAAHgQIQAAADADBWgQxsdMAAACsAiJmcACTABAhAgBfmDg4RJiIYKLAmZGUIAxojgLIyAcQgAAOAAAAAAAEAAAAAAAAAAgAAAAAAAAAAA==

> <PUBCHEM_IUPAC_OPENEYE_NAME>
2-[6-[4-(1,2-benzothiazol-3-yl)piperazin-1-yl]hexyl]-[1,2,4]triazolo[4,3-a]pyridin-3-one

> <PUBCHEM_IUPAC_CAS_NAME>
2-[6-[4-(1,2-benzothiazol-3-yl)-1-piperazinyl]hexyl]-[1,2,4]triazolo[4,3-a]pyridin-3-one

> <PUBCHEM_IUPAC_NAME_MARKUP>
2-[6-[4-(1,2-benzothiazol-3-yl)piperazin-1-yl]hexyl]-[1,2,4]triazolo[4,3-a]pyridin-3-one

> <PUBCHEM_IUPAC_NAME>
2-[6-[4-(1,2-benzothiazol-3-yl)piperazin-1-yl]hexyl]-[1,2,4]triazolo[4,3-a]pyridin-3-one

> <PUBCHEM_IUPAC_SYSTEMATIC_NAME>
2-[6-[4-(1,2-benzothiazol-3-yl)piperazin-1-yl]hexyl]-[1,2,4]triazolo[4,3-a]pyridin-3-one

> <PUBCHEM_IUPAC_TRADITIONAL_NAME>
2-[6-[4-(1,2-benzothiazol-3-yl)piperazino]hexyl]-[1,2,4]triazolo[4,3-a]pyridin-3-one

> <PUBCHEM_IUPAC_INCHI>
InChI=1S/C23H28N6OS/c30-23-28-13-8-5-11-21(28)24-29(23)14-7-2-1-6-12-26-15-17-27(18-16-26)22-19-9-3-4-10-20(19)31-25-22/h3-5,8-11,13H,1-2,6-7,12,14-18H2

> <PUBCHEM_IUPAC_INCHIKEY>
XVXFSBQMSJKQKG-UHFFFAOYSA-N

> <PUBCHEM_XLOGP3_AA>
4

> <PUBCHEM_EXACT_MASS>
436.20453071

> <PUBCHEM_MOLECULAR_FORMULA>
C23H28N6OS

> <PUBCHEM_MOLECULAR_WEIGHT>
436.6

> <PUBCHEM_OPENEYE_CAN_SMILES>
C1CN(CCN1CCCCCCN2C(=O)N3C=CC=CC3=N2)C4=NSC5=CC=CC=C54

> <PUBCHEM_OPENEYE_ISO_SMILES>
C1CN(CCN1CCCCCCN2C(=O)N3C=CC=CC3=N2)C4=NSC5=CC=CC=C54

> <PUBCHEM_CACTVS_TPSA>
83.5

> <PUBCHEM_MONOISOTOPIC_WEIGHT>
436.20453071

> <PUBCHEM_TOTAL_CHARGE>
0

> <PUBCHEM_HEAVY_ATOM_COUNT>
31

> <PUBCHEM_ATOM_DEF_STEREO_COUNT>
0

> <PUBCHEM_ATOM_UDEF_STEREO_COUNT>
0

> <PUBCHEM_BOND_DEF_STEREO_COUNT>
0

> <PUBCHEM_BOND_UDEF_STEREO_COUNT>
0

> <PUBCHEM_ISOTOPIC_ATOM_COUNT>
0

> <PUBCHEM_COMPONENT_COUNT>
1

> <PUBCHEM_CACTVS_TAUTO_COUNT>
-1

> <PUBCHEM_COORDINATE_TYPE>
1
5
255

> <PUBCHEM_BONDANNOTATIONS>
1  21  8
1  5  8
17  19  8
19  21  8
19  22  8
21  24  8
22  26  8
24  27  8
25  29  8
26  27  8
28  30  8
29  31  8
30  31  8
5  17  8
6  23  8
6  8  8
7  23  8
7  25  8
7  28  8
8  25  8

$$$$
