46231834
  -OEChem-09292322292D

 68 73  0     1  0  0  0  0  0999 V2000
    2.1374    4.7152    0.0000 Cl  0  0  0  0  0  0  0  0  0  0  0  0
    2.5932    2.7183    0.0000 O   0  0  0  0  0  0  0  0  0  0  0  0
    7.0983    4.7970    0.0000 N   0  0  3  0  0  0  0  0  0  0  0  0
    3.8028   -0.5975    0.0000 N   0  0  0  0  0  0  0  0  0  0  0  0
    3.6303   -2.5900    0.0000 N   0  0  0  0  0  0  0  0  0  0  0  0
    2.6382   -4.0098    0.0000 N   0  0  0  0  0  0  0  0  0  0  0  0
    6.8758    3.8221    0.0000 C   0  0  2  0  0  0  0  0  0  0  0  0
    5.9748    3.3882    0.0000 C   0  0  2  0  0  0  0  0  0  0  0  0
    7.7453    3.2487    0.0000 C   0  0  0  0  0  0  0  0  0  0  0  0
    5.8810    2.3508    0.0000 C   0  0  0  0  0  0  0  0  0  0  0  0
    7.6755    2.2094    0.0000 C   0  0  0  0  0  0  0  0  0  0  0  0
    5.0738    3.8221    0.0000 C   0  0  0  0  0  0  0  0  0  0  0  0
    6.7370    1.7574    0.0000 C   0  0  0  0  0  0  0  0  0  0  0  0
    6.4748    5.5789    0.0000 C   0  0  0  0  0  0  0  0  0  0  0  0
    4.8513    4.7970    0.0000 C   0  0  0  0  0  0  0  0  0  0  0  0
    5.4748    5.5789    0.0000 C   0  0  0  0  0  0  0  0  0  0  0  0
    4.8928    1.9028    0.0000 C   0  0  0  0  0  0  0  0  0  0  0  0
    8.0732    5.0196    0.0000 C   0  0  0  0  0  0  0  0  0  0  0  0
    4.7950    0.8222    0.0000 C   0  0  0  0  0  0  0  0  0  0  0  0
    6.6643    0.6749    0.0000 C   0  0  0  0  0  0  0  0  0  0  0  0
    4.3213    3.1019    0.0000 C   0  0  0  0  0  0  0  0  0  0  0  0
    3.8891    0.3988    0.0000 C   0  0  0  0  0  0  0  0  0  0  0  0
    5.6868    0.2041    0.0000 C   0  0  0  0  0  0  0  0  0  0  0  0
    3.8608    5.1194    0.0000 C   0  0  0  0  0  0  0  0  0  0  0  0
    2.8969   -1.0209    0.0000 C   0  0  0  0  0  0  0  0  0  0  0  0
    4.6225   -1.1703    0.0000 C   0  0  0  0  0  0  0  0  0  0  0  0
    3.3236    3.4013    0.0000 C   0  0  0  0  0  0  0  0  0  0  0  0
    3.0918    4.4168    0.0000 C   0  0  0  0  0  0  0  0  0  0  0  0
    2.8107   -2.0172    0.0000 C   0  0  0  0  0  0  0  0  0  0  0  0
    4.5363   -2.1666    0.0000 C   0  0  0  0  0  0  0  0  0  0  0  0
    3.5441   -3.5863    0.0000 C   0  0  0  0  0  0  0  0  0  0  0  0
    4.3637   -4.1592    0.0000 C   0  0  0  0  0  0  0  0  0  0  0  0
    4.2775   -5.1554    0.0000 C   0  0  0  0  0  0  0  0  0  0  0  0
    2.5519   -5.0060    0.0000 C   0  0  0  0  0  0  0  0  0  0  0  0
    3.3716   -5.5789    0.0000 C   0  0  0  0  0  0  0  0  0  0  0  0
    7.6646    4.1387    0.0000 H   0  0  0  0  0  0  0  0  0  0  0  0
    5.2354    2.9689    0.0000 H   0  0  0  0  0  0  0  0  0  0  0  0
    8.3477    3.1019    0.0000 H   0  0  0  0  0  0  0  0  0  0  0  0
    7.9931    3.8170    0.0000 H   0  0  0  0  0  0  0  0  0  0  0  0
    7.8450    1.6130    0.0000 H   0  0  0  0  0  0  0  0  0  0  0  0
    8.2921    2.2743    0.0000 H   0  0  0  0  0  0  0  0  0  0  0  0
    7.0334    5.8479    0.0000 H   0  0  0  0  0  0  0  0  0  0  0  0
    6.3368    6.1833    0.0000 H   0  0  0  0  0  0  0  0  0  0  0  0
    5.6128    6.1833    0.0000 H   0  0  0  0  0  0  0  0  0  0  0  0
    4.9162    5.8479    0.0000 H   0  0  0  0  0  0  0  0  0  0  0  0
    4.3873    2.2619    0.0000 H   0  0  0  0  0  0  0  0  0  0  0  0
    8.2112    4.4151    0.0000 H   0  0  0  0  0  0  0  0  0  0  0  0
    8.6777    5.1575    0.0000 H   0  0  0  0  0  0  0  0  0  0  0  0
    7.9352    5.6240    0.0000 H   0  0  0  0  0  0  0  0  0  0  0  0
    7.1779    0.3276    0.0000 H   0  0  0  0  0  0  0  0  0  0  0  0
    4.4662    2.4991    0.0000 H   0  0  0  0  0  0  0  0  0  0  0  0
    3.7281    0.9975    0.0000 H   0  0  0  0  0  0  0  0  0  0  0  0
    3.2715    0.3442    0.0000 H   0  0  0  0  0  0  0  0  0  0  0  0
    5.6380   -0.4140    0.0000 H   0  0  0  0  0  0  0  0  0  0  0  0
    3.7298    5.7254    0.0000 H   0  0  0  0  0  0  0  0  0  0  0  0
    2.7359   -0.4222    0.0000 H   0  0  0  0  0  0  0  0  0  0  0  0
    2.2793   -1.0755    0.0000 H   0  0  0  0  0  0  0  0  0  0  0  0
    5.2215   -1.3303    0.0000 H   0  0  0  0  0  0  0  0  0  0  0  0
    4.8840   -0.6082    0.0000 H   0  0  0  0  0  0  0  0  0  0  0  0
    2.2116   -1.8573    0.0000 H   0  0  0  0  0  0  0  0  0  0  0  0
    2.5492   -2.5793    0.0000 H   0  0  0  0  0  0  0  0  0  0  0  0
    4.6973   -2.7653    0.0000 H   0  0  0  0  0  0  0  0  0  0  0  0
    5.1538   -2.1120    0.0000 H   0  0  0  0  0  0  0  0  0  0  0  0
    2.0000    2.8987    0.0000 H   0  0  0  0  0  0  0  0  0  0  0  0
    4.9254   -3.8966    0.0000 H   0  0  0  0  0  0  0  0  0  0  0  0
    4.7857   -5.5106    0.0000 H   0  0  0  0  0  0  0  0  0  0  0  0
    1.9902   -5.2686    0.0000 H   0  0  0  0  0  0  0  0  0  0  0  0
    3.3181   -6.1966    0.0000 H   0  0  0  0  0  0  0  0  0  0  0  0
  1 28  1  0  0  0  0
  2 27  1  0  0  0  0
  2 64  1  0  0  0  0
  3  7  1  0  0  0  0
  3 14  1  0  0  0  0
  3 18  1  0  0  0  0
  4 22  1  0  0  0  0
  4 25  1  0  0  0  0
  4 26  1  0  0  0  0
  5 29  1  0  0  0  0
  5 30  1  0  0  0  0
  5 31  1  0  0  0  0
  6 31  1  0  0  0  0
  6 34  2  0  0  0  0
  7  8  1  0  0  0  0
  7  9  1  0  0  0  0
  7 36  1  6  0  0  0
  8 10  1  0  0  0  0
  8 12  1  0  0  0  0
  8 37  1  1  0  0  0
  9 11  1  0  0  0  0
  9 38  1  0  0  0  0
  9 39  1  0  0  0  0
 10 13  2  0  0  0  0
 10 17  1  0  0  0  0
 11 13  1  0  0  0  0
 11 40  1  0  0  0  0
 11 41  1  0  0  0  0
 12 15  1  0  0  0  0
 12 21  2  0  0  0  0
 13 20  1  0  0  0  0
 14 16  1  0  0  0  0
 14 42  1  0  0  0  0
 14 43  1  0  0  0  0
 15 16  1  0  0  0  0
 15 24  2  0  0  0  0
 16 44  1  0  0  0  0
 16 45  1  0  0  0  0
 17 19  2  0  0  0  0
 17 46  1  0  0  0  0
 18 47  1  0  0  0  0
 18 48  1  0  0  0  0
 18 49  1  0  0  0  0
 19 22  1  0  0  0  0
 19 23  1  0  0  0  0
 20 23  2  0  0  0  0
 20 50  1  0  0  0  0
 21 27  1  0  0  0  0
 21 51  1  0  0  0  0
 22 52  1  0  0  0  0
 22 53  1  0  0  0  0
 23 54  1  0  0  0  0
 24 28  1  0  0  0  0
 24 55  1  0  0  0  0
 25 29  1  0  0  0  0
 25 56  1  0  0  0  0
 25 57  1  0  0  0  0
 26 30  1  0  0  0  0
 26 58  1  0  0  0  0
 26 59  1  0  0  0  0
 27 28  2  0  0  0  0
 29 60  1  0  0  0  0
 29 61  1  0  0  0  0
 30 62  1  0  0  0  0
 30 63  1  0  0  0  0
 31 32  2  0  0  0  0
 32 33  1  0  0  0  0
 32 65  1  0  0  0  0
 33 35  2  0  0  0  0
 33 66  1  0  0  0  0
 34 35  1  0  0  0  0
 34 67  1  0  0  0  0
 35 68  1  0  0  0  0
M  END
> <PUBCHEM_COMPOUND_CID>
46231834

> <PUBCHEM_COMPOUND_CANONICALIZED>
1

> <PUBCHEM_CACTVS_COMPLEXITY>
702

> <PUBCHEM_CACTVS_HBOND_ACCEPTOR>
5

> <PUBCHEM_CACTVS_HBOND_DONOR>
1

> <PUBCHEM_CACTVS_ROTATABLE_BOND>
3

> <PUBCHEM_CACTVS_SUBSKEYS>
AAADcfB7oAAEAAAAAAAAAAAAAAAAAAAAAAA8eMECBYAAAADB0AAAHgIACAAADS7BmiQ/tpMIEgCgAjJnZACCgCkxJ2AJ2CA+b5iIZuLDm5OUcAhswBPI2CeQ0PMO5AADIAAQCADYAAbAACQQAAAAAAAAAA==

> <PUBCHEM_IUPAC_OPENEYE_NAME>
(6aS,13bR)-11-chloro-7-methyl-2-[[4-(2-pyridyl)piperazin-1-yl]methyl]-5,6,6a,8,9,13b-hexahydronaphtho[1,2-a][3]benzazepin-12-ol

> <PUBCHEM_IUPAC_CAS_NAME>
(6aS,13bR)-11-chloro-7-methyl-2-[[4-(2-pyridinyl)-1-piperazinyl]methyl]-5,6,6a,8,9,13b-hexahydronaphtho[1,2-a][3]benzazepin-12-ol

> <PUBCHEM_IUPAC_NAME_MARKUP>
(6<I>a</I><I>S</I>,13<I>b</I><I>R</I>)-11-chloro-7-methyl-2-[(4-pyridin-2-ylpiperazin-1-yl)methyl]-5,6,6<I>a</I>,8,9,13<I>b</I>-hexahydronaphtho[1,2-a][3]benzazepin-12-ol

> <PUBCHEM_IUPAC_NAME>
(6aS,13bR)-11-chloro-7-methyl-2-[(4-pyridin-2-ylpiperazin-1-yl)methyl]-5,6,6a,8,9,13b-hexahydronaphtho[1,2-a][3]benzazepin-12-ol

> <PUBCHEM_IUPAC_SYSTEMATIC_NAME>
(6aS,13bR)-11-chloranyl-7-methyl-2-[(4-pyridin-2-ylpiperazin-1-yl)methyl]-5,6,6a,8,9,13b-hexahydronaphtho[1,2-a][3]benzazepin-12-ol

> <PUBCHEM_IUPAC_TRADITIONAL_NAME>
(6aS,13bR)-11-chloro-7-methyl-2-[[4-(2-pyridyl)piperazino]methyl]-5,6,6a,8,9,13b-hexahydronaphtho[1,2-a][3]benzazepin-12-ol

> <PUBCHEM_IUPAC_INCHI>
InChI=1S/C29H33ClN4O/c1-32-11-9-22-17-25(30)27(35)18-24(22)29-23-16-20(5-6-21(23)7-8-26(29)32)19-33-12-14-34(15-13-33)28-4-2-3-10-31-28/h2-6,10,16-18,26,29,35H,7-9,11-15,19H2,1H3/t26-,29+/m0/s1

> <PUBCHEM_IUPAC_INCHIKEY>
PCZMYCPDZLHZCQ-LITSAYRRSA-N

> <PUBCHEM_XLOGP3_AA>
5.1

> <PUBCHEM_EXACT_MASS>
488.2342894

> <PUBCHEM_MOLECULAR_FORMULA>
C29H33ClN4O

> <PUBCHEM_MOLECULAR_WEIGHT>
489.0

> <PUBCHEM_OPENEYE_CAN_SMILES>
CN1CCC2=CC(=C(C=C2C3C1CCC4=C3C=C(C=C4)CN5CCN(CC5)C6=CC=CC=N6)O)Cl

> <PUBCHEM_OPENEYE_ISO_SMILES>
CN1CCC2=CC(=C(C=C2[C@@H]3[C@@H]1CCC4=C3C=C(C=C4)CN5CCN(CC5)C6=CC=CC=N6)O)Cl

> <PUBCHEM_CACTVS_TPSA>
42.8

> <PUBCHEM_MONOISOTOPIC_WEIGHT>
488.2342894

> <PUBCHEM_TOTAL_CHARGE>
0

> <PUBCHEM_HEAVY_ATOM_COUNT>
35

> <PUBCHEM_ATOM_DEF_STEREO_COUNT>
2

> <PUBCHEM_ATOM_UDEF_STEREO_COUNT>
0

> <PUBCHEM_BOND_DEF_STEREO_COUNT>
0

> <PUBCHEM_BOND_UDEF_STEREO_COUNT>
0

> <PUBCHEM_ISOTOPIC_ATOM_COUNT>
0

> <PUBCHEM_COMPONENT_COUNT>
1

> <PUBCHEM_CACTVS_TAUTO_COUNT>
-1

> <PUBCHEM_COORDINATE_TYPE>
1
5
255

> <PUBCHEM_BONDANNOTATIONS>
10  13  8
10  17  8
12  15  8
12  21  8
13  20  8
15  24  8
17  19  8
19  23  8
20  23  8
21  27  8
24  28  8
27  28  8
31  32  8
32  33  8
33  35  8
34  35  8
6  31  8
6  34  8
7  36  6
8  37  5

$$$$
