66801837
  -OEChem-09292322392D

 65 69  0     1  0  0  0  0  0999 V2000
    2.3572   -2.0850    0.0000 Cl  0  0  0  0  0  0  0  0  0  0  0  0
   12.6590   -1.0726    0.0000 S   0  0  0  0  0  0  0  0  0  0  0  0
   12.1590   -0.2066    0.0000 O   0  0  0  0  0  0  0  0  0  0  0  0
   13.1590   -1.9386    0.0000 O   0  0  0  0  0  0  0  0  0  0  0  0
    7.4629   -1.0726    0.0000 N   0  0  3  0  0  0  0  0  0  0  0  0
    3.7899    1.6253    0.0000 N   0  0  0  0  0  0  0  0  0  0  0  0
   11.7930   -1.5726    0.0000 N   0  0  0  0  0  0  0  0  0  0  0  0
    7.4629   -0.0726    0.0000 C   0  0  0  0  0  0  0  0  0  0  0  0
    6.5968    0.4274    0.0000 C   0  0  0  0  0  0  0  0  0  0  0  0
    5.7308   -0.0726    0.0000 C   0  0  0  0  0  0  0  0  0  0  0  0
    8.3289   -1.5726    0.0000 C   0  0  0  0  0  0  0  0  0  0  0  0
    6.5968   -1.5726    0.0000 C   0  0  0  0  0  0  0  0  0  0  0  0
    9.1949   -1.0726    0.0000 C   0  0  0  0  0  0  0  0  0  0  0  0
    4.8648    0.4274    0.0000 C   0  0  0  0  0  0  0  0  0  0  0  0
    5.7308   -1.0726    0.0000 C   0  0  0  0  0  0  0  0  0  0  0  0
   10.0610   -1.5726    0.0000 C   0  0  0  0  0  0  0  0  0  0  0  0
    3.9570    0.0223    0.0000 C   0  0  0  0  0  0  0  0  0  0  0  0
    4.7617    1.4161    0.0000 C   0  0  0  0  0  0  0  0  0  0  0  0
    3.2892    0.7666    0.0000 C   0  0  0  0  0  0  0  0  0  0  0  0
   10.9270   -1.0726    0.0000 C   0  0  0  0  0  0  0  0  0  0  0  0
    3.6464   -0.9282    0.0000 C   0  0  0  0  0  0  0  0  0  0  0  0
    5.5060    2.0840    0.0000 C   0  0  0  0  0  0  0  0  0  0  0  0
    2.3107    0.5604    0.0000 C   0  0  0  0  0  0  0  0  0  0  0  0
    2.6678   -1.1344    0.0000 C   0  0  0  0  0  0  0  0  0  0  0  0
    2.0000   -0.3901    0.0000 C   0  0  0  0  0  0  0  0  0  0  0  0
   13.5251   -0.5726    0.0000 C   0  0  0  0  0  0  0  0  0  0  0  0
   14.3911   -1.0726    0.0000 C   0  0  0  0  0  0  0  0  0  0  0  0
   13.5251    0.4274    0.0000 C   0  0  0  0  0  0  0  0  0  0  0  0
   15.2571   -0.5726    0.0000 C   0  0  0  0  0  0  0  0  0  0  0  0
   15.2571    0.4274    0.0000 C   0  0  0  0  0  0  0  0  0  0  0  0
   14.3911    0.9274    0.0000 C   0  0  0  0  0  0  0  0  0  0  0  0
   16.1510   -1.1073    0.0000 C   0  0  0  0  0  0  0  0  0  0  0  0
   16.1510    0.9621    0.0000 C   0  0  0  0  0  0  0  0  0  0  0  0
   17.0571   -0.5934    0.0000 C   0  0  0  0  0  0  0  0  0  0  0  0
   17.0571    0.4482    0.0000 C   0  0  0  0  0  0  0  0  0  0  0  0
    8.0734   -0.1803    0.0000 H   0  0  0  0  0  0  0  0  0  0  0  0
    7.6749    0.5100    0.0000 H   0  0  0  0  0  0  0  0  0  0  0  0
    6.9954    0.9024    0.0000 H   0  0  0  0  0  0  0  0  0  0  0  0
    6.1983    0.9024    0.0000 H   0  0  0  0  0  0  0  0  0  0  0  0
    7.9304   -2.0475    0.0000 H   0  0  0  0  0  0  0  0  0  0  0  0
    8.7274   -2.0475    0.0000 H   0  0  0  0  0  0  0  0  0  0  0  0
    6.1983   -2.0475    0.0000 H   0  0  0  0  0  0  0  0  0  0  0  0
    6.9954   -2.0475    0.0000 H   0  0  0  0  0  0  0  0  0  0  0  0
    9.5934   -0.5976    0.0000 H   0  0  0  0  0  0  0  0  0  0  0  0
    8.7964   -0.5976    0.0000 H   0  0  0  0  0  0  0  0  0  0  0  0
    5.1939   -1.3826    0.0000 H   0  0  0  0  0  0  0  0  0  0  0  0
    9.6624   -2.0475    0.0000 H   0  0  0  0  0  0  0  0  0  0  0  0
   10.4595   -2.0475    0.0000 H   0  0  0  0  0  0  0  0  0  0  0  0
   11.3255   -0.5976    0.0000 H   0  0  0  0  0  0  0  0  0  0  0  0
   10.5284   -0.5976    0.0000 H   0  0  0  0  0  0  0  0  0  0  0  0
    3.5397    2.1926    0.0000 H   0  0  0  0  0  0  0  0  0  0  0  0
    4.0604   -1.3897    0.0000 H   0  0  0  0  0  0  0  0  0  0  0  0
    5.9201    1.6225    0.0000 H   0  0  0  0  0  0  0  0  0  0  0  0
    5.9675    2.4980    0.0000 H   0  0  0  0  0  0  0  0  0  0  0  0
    5.0920    2.5454    0.0000 H   0  0  0  0  0  0  0  0  0  0  0  0
   11.7930   -2.1926    0.0000 H   0  0  0  0  0  0  0  0  0  0  0  0
    1.8966    1.0218    0.0000 H   0  0  0  0  0  0  0  0  0  0  0  0
    1.3933   -0.5180    0.0000 H   0  0  0  0  0  0  0  0  0  0  0  0
   14.3911   -1.6926    0.0000 H   0  0  0  0  0  0  0  0  0  0  0  0
   12.9881    0.7374    0.0000 H   0  0  0  0  0  0  0  0  0  0  0  0
   14.3911    1.5474    0.0000 H   0  0  0  0  0  0  0  0  0  0  0  0
   16.1439   -1.7272    0.0000 H   0  0  0  0  0  0  0  0  0  0  0  0
   16.1439    1.5820    0.0000 H   0  0  0  0  0  0  0  0  0  0  0  0
   17.5928   -0.9055    0.0000 H   0  0  0  0  0  0  0  0  0  0  0  0
   17.5928    0.7603    0.0000 H   0  0  0  0  0  0  0  0  0  0  0  0
  1 24  1  0  0  0  0
  2  3  2  0  0  0  0
  2  4  2  0  0  0  0
  2  7  1  0  0  0  0
  2 26  1  0  0  0  0
  5  8  1  0  0  0  0
  5 11  1  0  0  0  0
  5 12  1  0  0  0  0
  6 18  1  0  0  0  0
  6 19  1  0  0  0  0
  6 51  1  0  0  0  0
  7 20  1  0  0  0  0
  7 56  1  0  0  0  0
  8  9  1  0  0  0  0
  8 36  1  0  0  0  0
  8 37  1  0  0  0  0
  9 10  1  0  0  0  0
  9 38  1  0  0  0  0
  9 39  1  0  0  0  0
 10 14  1  0  0  0  0
 10 15  2  0  0  0  0
 11 13  1  0  0  0  0
 11 40  1  0  0  0  0
 11 41  1  0  0  0  0
 12 15  1  0  0  0  0
 12 42  1  0  0  0  0
 12 43  1  0  0  0  0
 13 16  1  0  0  0  0
 13 44  1  0  0  0  0
 13 45  1  0  0  0  0
 14 17  1  0  0  0  0
 14 18  2  0  0  0  0
 15 46  1  0  0  0  0
 16 20  1  0  0  0  0
 16 47  1  0  0  0  0
 16 48  1  0  0  0  0
 17 19  2  0  0  0  0
 17 21  1  0  0  0  0
 18 22  1  0  0  0  0
 19 23  1  0  0  0  0
 20 49  1  0  0  0  0
 20 50  1  0  0  0  0
 21 24  2  0  0  0  0
 21 52  1  0  0  0  0
 22 53  1  0  0  0  0
 22 54  1  0  0  0  0
 22 55  1  0  0  0  0
 23 25  2  0  0  0  0
 23 57  1  0  0  0  0
 24 25  1  0  0  0  0
 25 58  1  0  0  0  0
 26 27  2  0  0  0  0
 26 28  1  0  0  0  0
 27 29  1  0  0  0  0
 27 59  1  0  0  0  0
 28 31  2  0  0  0  0
 28 60  1  0  0  0  0
 29 30  1  0  0  0  0
 29 32  2  0  0  0  0
 30 31  1  0  0  0  0
 30 33  2  0  0  0  0
 31 61  1  0  0  0  0
 32 34  1  0  0  0  0
 32 62  1  0  0  0  0
 33 35  1  0  0  0  0
 33 63  1  0  0  0  0
 34 35  2  0  0  0  0
 34 64  1  0  0  0  0
 35 65  1  0  0  0  0
M  END
> <PUBCHEM_COMPOUND_CID>
66801837

> <PUBCHEM_COMPOUND_CANONICALIZED>
1

> <PUBCHEM_CACTVS_COMPLEXITY>
844

> <PUBCHEM_CACTVS_HBOND_ACCEPTOR>
4

> <PUBCHEM_CACTVS_HBOND_DONOR>
2

> <PUBCHEM_CACTVS_ROTATABLE_BOND>
8

> <PUBCHEM_CACTVS_SUBSKEYS>
AAADceB7MABEAAAAAAAAAAAAAAAAAWAAAAAwYMEAAAAAAFjB9AAAHAYQQAAADArBXiQywfPJkAKgAyRiRHDCgDAhByAImbg4ZpgIIOLBk5GEIAhgkADIyAcQgMAOkABAoAASAAAgAIFAACQAAAAAAAAAAA==

> <PUBCHEM_IUPAC_OPENEYE_NAME>
N-[4-[4-(5-chloro-2-methyl-1H-indol-3-yl)-3,6-dihydro-2H-pyridin-1-yl]butyl]naphthalene-2-sulfonamide

> <PUBCHEM_IUPAC_CAS_NAME>
N-[4-[4-(5-chloro-2-methyl-1H-indol-3-yl)-3,6-dihydro-2H-pyridin-1-yl]butyl]-2-naphthalenesulfonamide

> <PUBCHEM_IUPAC_NAME_MARKUP>
<I>N</I>-[4-[4-(5-chloro-2-methyl-1<I>H</I>-indol-3-yl)-3,6-dihydro-2<I>H</I>-pyridin-1-yl]butyl]naphthalene-2-sulfonamide

> <PUBCHEM_IUPAC_NAME>
N-[4-[4-(5-chloro-2-methyl-1H-indol-3-yl)-3,6-dihydro-2H-pyridin-1-yl]butyl]naphthalene-2-sulfonamide

> <PUBCHEM_IUPAC_SYSTEMATIC_NAME>
N-[4-[4-(5-chloranyl-2-methyl-1H-indol-3-yl)-3,6-dihydro-2H-pyridin-1-yl]butyl]naphthalene-2-sulfonamide

> <PUBCHEM_IUPAC_TRADITIONAL_NAME>
N-[4-[4-(5-chloro-2-methyl-1H-indol-3-yl)-3,6-dihydro-2H-pyridin-1-yl]butyl]naphthalene-2-sulfonamide

> <PUBCHEM_IUPAC_INCHI>
InChI=1S/C28H30ClN3O2S/c1-20-28(26-19-24(29)9-11-27(26)31-20)22-12-16-32(17-13-22)15-5-4-14-30-35(33,34)25-10-8-21-6-2-3-7-23(21)18-25/h2-3,6-12,18-19,30-31H,4-5,13-17H2,1H3

> <PUBCHEM_IUPAC_INCHIKEY>
TVPLPJXYUREZIM-UHFFFAOYSA-N

> <PUBCHEM_XLOGP3_AA>
5.9

> <PUBCHEM_EXACT_MASS>
507.1747261

> <PUBCHEM_MOLECULAR_FORMULA>
C28H30ClN3O2S

> <PUBCHEM_MOLECULAR_WEIGHT>
508.1

> <PUBCHEM_OPENEYE_CAN_SMILES>
CC1=C(C2=C(N1)C=CC(=C2)Cl)C3=CCN(CC3)CCCCNS(=O)(=O)C4=CC5=CC=CC=C5C=C4

> <PUBCHEM_OPENEYE_ISO_SMILES>
CC1=C(C2=C(N1)C=CC(=C2)Cl)C3=CCN(CC3)CCCCNS(=O)(=O)C4=CC5=CC=CC=C5C=C4

> <PUBCHEM_CACTVS_TPSA>
73.6

> <PUBCHEM_MONOISOTOPIC_WEIGHT>
507.1747261

> <PUBCHEM_TOTAL_CHARGE>
0

> <PUBCHEM_HEAVY_ATOM_COUNT>
35

> <PUBCHEM_ATOM_DEF_STEREO_COUNT>
0

> <PUBCHEM_ATOM_UDEF_STEREO_COUNT>
0

> <PUBCHEM_BOND_DEF_STEREO_COUNT>
0

> <PUBCHEM_BOND_UDEF_STEREO_COUNT>
0

> <PUBCHEM_ISOTOPIC_ATOM_COUNT>
0

> <PUBCHEM_COMPONENT_COUNT>
1

> <PUBCHEM_CACTVS_TAUTO_COUNT>
-1

> <PUBCHEM_COORDINATE_TYPE>
1
5
255

> <PUBCHEM_BONDANNOTATIONS>
14  17  8
14  18  8
17  19  8
17  21  8
19  23  8
21  24  8
23  25  8
24  25  8
26  27  8
26  28  8
27  29  8
28  31  8
29  30  8
29  32  8
30  31  8
30  33  8
32  34  8
33  35  8
34  35  8
6  18  8
6  19  8

$$$$
