57383400
  -OEChem-09292321582D

 61 64  0     1  0  0  0  0  0999 V2000
   11.2059   -0.7105    0.0000 S   0  0  3  0  0  0  0  0  0  0  0  0
   12.1398    2.3811    0.0000 O   0  0  0  0  0  0  0  0  0  0  0  0
   11.2059   -1.7105    0.0000 O   0  0  0  0  0  0  0  0  0  0  0  0
    7.1497    1.5923    0.0000 O   0  0  0  0  0  0  0  0  0  0  0  0
   10.7059    1.4802    0.0000 N   0  0  0  0  0  0  0  0  0  0  0  0
    6.6328   -0.0608    0.0000 N   0  0  0  0  0  0  0  0  0  0  0  0
    2.7357   -2.4717    0.0000 C   0  0  0  0  0  0  0  0  0  0  0  0
    3.4714   -1.7944    0.0000 C   0  0  0  0  0  0  0  0  0  0  0  0
    2.0000   -3.1490    0.0000 C   0  0  0  0  0  0  0  0  0  0  0  0
    2.0583   -1.7360    0.0000 C   0  0  0  0  0  0  0  0  0  0  0  0
    3.4130   -3.2074    0.0000 C   0  0  0  0  0  0  0  0  0  0  0  0
    3.2526   -0.8186    0.0000 C   0  0  0  0  0  0  0  0  0  0  0  0
    4.4258   -2.0928    0.0000 C   0  0  0  0  0  0  0  0  0  0  0  0
   10.0824    0.6983    0.0000 C   0  0  0  0  0  0  0  0  0  0  0  0
    4.9427   -0.4397    0.0000 C   0  0  0  0  0  0  0  0  0  0  0  0
   10.3049   -0.2766    0.0000 C   0  0  0  0  0  0  0  0  0  0  0  0
    3.9883   -0.1412    0.0000 C   0  0  0  0  0  0  0  0  0  0  0  0
    5.1614   -1.4155    0.0000 C   0  0  0  0  0  0  0  0  0  0  0  0
    5.6784    0.2377    0.0000 C   0  0  0  0  0  0  0  0  0  0  0  0
   10.2720    2.3811    0.0000 C   0  0  0  0  0  0  0  0  0  0  0  0
   12.3294    0.6983    0.0000 C   0  0  0  0  0  0  0  0  0  0  0  0
    9.0919    1.0207    0.0000 C   0  0  0  0  0  0  0  0  0  0  0  0
   12.1069   -0.2766    0.0000 C   0  0  0  0  0  0  0  0  0  0  0  0
   11.7059    1.4802    0.0000 C   0  0  0  0  0  0  0  0  0  0  0  0
    8.3229    0.3181    0.0000 C   0  0  0  0  0  0  0  0  0  0  0  0
    9.5524   -0.9968    0.0000 C   0  0  0  0  0  0  0  0  0  0  0  0
    8.5547   -0.6974    0.0000 C   0  0  0  0  0  0  0  0  0  0  0  0
    7.3685    0.6165    0.0000 C   0  0  0  0  0  0  0  0  0  0  0  0
   13.3199    1.0206    0.0000 C   0  0  0  0  0  0  0  0  0  0  0  0
   12.8594   -0.9968    0.0000 C   0  0  0  0  0  0  0  0  0  0  0  0
   10.8354    3.2074    0.0000 C   0  0  0  0  0  0  0  0  0  0  0  0
   14.0889    0.3181    0.0000 C   0  0  0  0  0  0  0  0  0  0  0  0
   13.8571   -0.6975    0.0000 C   0  0  0  0  0  0  0  0  0  0  0  0
    1.5800   -2.6929    0.0000 H   0  0  0  0  0  0  0  0  0  0  0  0
    1.5439   -3.5690    0.0000 H   0  0  0  0  0  0  0  0  0  0  0  0
    2.4200   -3.6052    0.0000 H   0  0  0  0  0  0  0  0  0  0  0  0
    2.5144   -1.3161    0.0000 H   0  0  0  0  0  0  0  0  0  0  0  0
    1.6384   -1.2799    0.0000 H   0  0  0  0  0  0  0  0  0  0  0  0
    1.6022   -2.1560    0.0000 H   0  0  0  0  0  0  0  0  0  0  0  0
    2.9569   -3.6273    0.0000 H   0  0  0  0  0  0  0  0  0  0  0  0
    3.8330   -3.6635    0.0000 H   0  0  0  0  0  0  0  0  0  0  0  0
    3.8691   -2.7874    0.0000 H   0  0  0  0  0  0  0  0  0  0  0  0
    2.6608   -0.6335    0.0000 H   0  0  0  0  0  0  0  0  0  0  0  0
    4.5614   -2.6978    0.0000 H   0  0  0  0  0  0  0  0  0  0  0  0
    3.8526    0.4637    0.0000 H   0  0  0  0  0  0  0  0  0  0  0  0
    5.7532   -1.6005    0.0000 H   0  0  0  0  0  0  0  0  0  0  0  0
    5.9634    0.7883    0.0000 H   0  0  0  0  0  0  0  0  0  0  0  0
    5.1856    0.6139    0.0000 H   0  0  0  0  0  0  0  0  0  0  0  0
    9.8282    2.8140    0.0000 H   0  0  0  0  0  0  0  0  0  0  0  0
    9.7686    2.0192    0.0000 H   0  0  0  0  0  0  0  0  0  0  0  0
    8.9610    1.6267    0.0000 H   0  0  0  0  0  0  0  0  0  0  0  0
    9.6973   -1.5996    0.0000 H   0  0  0  0  0  0  0  0  0  0  0  0
    8.1018   -1.1209    0.0000 H   0  0  0  0  0  0  0  0  0  0  0  0
    6.7684   -0.6658    0.0000 H   0  0  0  0  0  0  0  0  0  0  0  0
   13.4509    1.6266    0.0000 H   0  0  0  0  0  0  0  0  0  0  0  0
   12.7145   -1.5996    0.0000 H   0  0  0  0  0  0  0  0  0  0  0  0
   11.3476    2.8581    0.0000 H   0  0  0  0  0  0  0  0  0  0  0  0
   11.1846    3.7196    0.0000 H   0  0  0  0  0  0  0  0  0  0  0  0
   10.3231    3.5566    0.0000 H   0  0  0  0  0  0  0  0  0  0  0  0
   14.6806    0.5031    0.0000 H   0  0  0  0  0  0  0  0  0  0  0  0
   14.3100   -1.1209    0.0000 H   0  0  0  0  0  0  0  0  0  0  0  0
  1  3  2  0  0  0  0
  1 16  1  0  0  0  0
  1 23  1  0  0  0  0
  2 24  2  0  0  0  0
  4 28  2  0  0  0  0
  5 14  1  0  0  0  0
  5 20  1  0  0  0  0
  5 24  1  0  0  0  0
  6 19  1  0  0  0  0
  6 28  1  0  0  0  0
  6 54  1  0  0  0  0
  7  8  1  0  0  0  0
  7  9  1  0  0  0  0
  7 10  1  0  0  0  0
  7 11  1  0  0  0  0
  8 12  2  0  0  0  0
  8 13  1  0  0  0  0
  9 34  1  0  0  0  0
  9 35  1  0  0  0  0
  9 36  1  0  0  0  0
 10 37  1  0  0  0  0
 10 38  1  0  0  0  0
 10 39  1  0  0  0  0
 11 40  1  0  0  0  0
 11 41  1  0  0  0  0
 11 42  1  0  0  0  0
 12 17  1  0  0  0  0
 12 43  1  0  0  0  0
 13 18  2  0  0  0  0
 13 44  1  0  0  0  0
 14 16  2  0  0  0  0
 14 22  1  0  0  0  0
 15 17  2  0  0  0  0
 15 18  1  0  0  0  0
 15 19  1  0  0  0  0
 16 26  1  0  0  0  0
 17 45  1  0  0  0  0
 18 46  1  0  0  0  0
 19 47  1  0  0  0  0
 19 48  1  0  0  0  0
 20 31  1  0  0  0  0
 20 49  1  0  0  0  0
 20 50  1  0  0  0  0
 21 23  1  0  0  0  0
 21 24  1  0  0  0  0
 21 29  2  0  0  0  0
 22 25  2  0  0  0  0
 22 51  1  0  0  0  0
 23 30  2  0  0  0  0
 25 27  1  0  0  0  0
 25 28  1  0  0  0  0
 26 27  2  0  0  0  0
 26 52  1  0  0  0  0
 27 53  1  0  0  0  0
 29 32  1  0  0  0  0
 29 55  1  0  0  0  0
 30 33  1  0  0  0  0
 30 56  1  0  0  0  0
 31 57  1  0  0  0  0
 31 58  1  0  0  0  0
 31 59  1  0  0  0  0
 32 33  2  0  0  0  0
 32 60  1  0  0  0  0
 33 61  1  0  0  0  0
M  END
> <PUBCHEM_COMPOUND_CID>
57383400

> <PUBCHEM_COMPOUND_CANONICALIZED>
1

> <PUBCHEM_CACTVS_COMPLEXITY>
740

> <PUBCHEM_CACTVS_HBOND_ACCEPTOR>
4

> <PUBCHEM_CACTVS_HBOND_DONOR>
1

> <PUBCHEM_CACTVS_ROTATABLE_BOND>
5

> <PUBCHEM_CACTVS_SUBSKEYS>
AAADceB7MABAAAAAAAAAAAAAAAAAAAAAAAAwYMAABYAAAAABUAAAHgQQAAAADgjB2AQywYPAAAqIAiVSUEDCAAAlChAIiJ0IZMgIIDLglZGEIQhghgDoyYcciMCP0AAAQAAEAQCgAACAAAgCAAAAAAAAAA==

> <PUBCHEM_IUPAC_OPENEYE_NAME>
N-[(4-tert-butylphenyl)methyl]-5-ethyl-6,11-dioxo-benzo[b][1,4]benzothiazepine-3-carboxamide

> <PUBCHEM_IUPAC_CAS_NAME>
N-[(4-tert-butylphenyl)methyl]-5-ethyl-6,11-dioxo-3-benzo[b][1,4]benzothiazepinecarboxamide

> <PUBCHEM_IUPAC_NAME_MARKUP>
<I>N</I>-[(4-<I>tert</I>-butylphenyl)methyl]-5-ethyl-6,11-dioxobenzo[b][1,4]benzothiazepine-3-carboxamide

> <PUBCHEM_IUPAC_NAME>
N-[(4-tert-butylphenyl)methyl]-5-ethyl-6,11-dioxobenzo[b][1,4]benzothiazepine-3-carboxamide

> <PUBCHEM_IUPAC_SYSTEMATIC_NAME>
N-[(4-tert-butylphenyl)methyl]-5-ethyl-6,11-bis(oxidanylidene)benzo[b][1,4]benzothiazepine-3-carboxamide

> <PUBCHEM_IUPAC_TRADITIONAL_NAME>
N-(4-tert-butylbenzyl)-5-ethyl-6,11-diketo-benzo[b][1,4]benzothiazepine-3-carboxamide

> <PUBCHEM_IUPAC_INCHI>
InChI=1S/C27H28N2O3S/c1-5-29-22-16-19(25(30)28-17-18-10-13-20(14-11-18)27(2,3)4)12-15-24(22)33(32)23-9-7-6-8-21(23)26(29)31/h6-16H,5,17H2,1-4H3,(H,28,30)

> <PUBCHEM_IUPAC_INCHIKEY>
LQLUWXFUOXBBHP-UHFFFAOYSA-N

> <PUBCHEM_XLOGP3_AA>
4.6

> <PUBCHEM_EXACT_MASS>
460.18206393

> <PUBCHEM_MOLECULAR_FORMULA>
C27H28N2O3S

> <PUBCHEM_MOLECULAR_WEIGHT>
460.6

> <PUBCHEM_OPENEYE_CAN_SMILES>
CCN1C2=C(C=CC(=C2)C(=O)NCC3=CC=C(C=C3)C(C)(C)C)S(=O)C4=CC=CC=C4C1=O

> <PUBCHEM_OPENEYE_ISO_SMILES>
CCN1C2=C(C=CC(=C2)C(=O)NCC3=CC=C(C=C3)C(C)(C)C)S(=O)C4=CC=CC=C4C1=O

> <PUBCHEM_CACTVS_TPSA>
85.7

> <PUBCHEM_MONOISOTOPIC_WEIGHT>
460.18206393

> <PUBCHEM_TOTAL_CHARGE>
0

> <PUBCHEM_HEAVY_ATOM_COUNT>
33

> <PUBCHEM_ATOM_DEF_STEREO_COUNT>
0

> <PUBCHEM_ATOM_UDEF_STEREO_COUNT>
1

> <PUBCHEM_BOND_DEF_STEREO_COUNT>
0

> <PUBCHEM_BOND_UDEF_STEREO_COUNT>
0

> <PUBCHEM_ISOTOPIC_ATOM_COUNT>
0

> <PUBCHEM_COMPONENT_COUNT>
1

> <PUBCHEM_CACTVS_TAUTO_COUNT>
-1

> <PUBCHEM_COORDINATE_TYPE>
1
5
255

> <PUBCHEM_BONDANNOTATIONS>
1  23  3
12  17  8
13  18  8
14  16  8
14  22  8
15  17  8
15  18  8
16  26  8
21  23  8
21  29  8
22  25  8
23  30  8
25  27  8
26  27  8
29  32  8
30  33  8
32  33  8
8  12  8
8  13  8

$$$$
