146025821
  -OEChem-09292322012D

 53 56  0     1  0  0  0  0  0999 V2000
    5.5138    1.2744    0.0000 O   0  0  0  0  0  0  0  0  0  0  0  0
    3.7320    0.2640    0.0000 O   0  0  0  0  0  0  0  0  0  0  0  0
    3.7818    1.2944    0.0000 O   0  0  0  0  0  0  0  0  0  0  0  0
    2.8602   -1.2327    0.0000 O   0  0  0  0  0  0  0  0  0  0  0  0
    8.9864   -1.7571    0.0000 N   0  0  3  0  0  0  0  0  0  0  0  0
    8.1282   -1.2602    0.0000 C   0  0  1  0  0  0  0  0  0  0  0  0
    8.1282   -0.2602    0.0000 C   0  0  0  0  0  0  0  0  0  0  0  0
    7.2622   -1.7602    0.0000 C   0  0  0  0  0  0  0  0  0  0  0  0
    9.0382    0.2467    0.0000 C   0  0  0  0  0  0  0  0  0  0  0  0
    9.8519   -1.2729    0.0000 C   0  0  0  0  0  0  0  0  0  0  0  0
    7.2622    0.2398    0.0000 C   0  0  0  0  0  0  0  0  0  0  0  0
    9.8775   -0.2816    0.0000 C   0  0  0  0  0  0  0  0  0  0  0  0
    6.3961   -1.2602    0.0000 C   0  0  0  0  0  0  0  0  0  0  0  0
    6.3961   -0.2602    0.0000 C   0  0  0  0  0  0  0  0  0  0  0  0
    8.9790   -2.7571    0.0000 C   0  0  0  0  0  0  0  0  0  0  0  0
    9.0462    1.2883    0.0000 C   0  0  0  0  0  0  0  0  0  0  0  0
    7.2461    1.2813    0.0000 C   0  0  0  0  0  0  0  0  0  0  0  0
    5.5022   -1.7948    0.0000 C   0  0  0  0  0  0  0  0  0  0  0  0
    5.5022    0.2745    0.0000 C   0  0  0  0  0  0  0  0  0  0  0  0
    4.5961   -1.2810    0.0000 C   0  0  0  0  0  0  0  0  0  0  0  0
    8.1441    1.8091    0.0000 C   0  0  0  0  0  0  0  0  0  0  0  0
    4.5961   -0.2394    0.0000 C   0  0  0  0  0  0  0  0  0  0  0  0
    3.7320   -1.7843    0.0000 C   0  0  0  0  0  0  0  0  0  0  0  0
    3.7359   -2.7843    0.0000 C   0  0  0  0  0  0  0  0  0  0  0  0
    4.6536    1.7844    0.0000 C   0  0  0  0  0  0  0  0  0  0  0  0
    2.8641   -0.2327    0.0000 C   0  0  0  0  0  0  0  0  0  0  0  0
    4.6651    2.7843    0.0000 C   0  0  0  0  0  0  0  0  0  0  0  0
    2.0000    0.2706    0.0000 C   0  0  0  0  0  0  0  0  0  0  0  0
    8.1277   -2.1102    0.0000 H   0  0  0  0  0  0  0  0  0  0  0  0
    6.8636   -2.2351    0.0000 H   0  0  0  0  0  0  0  0  0  0  0  0
    7.6607   -2.2351    0.0000 H   0  0  0  0  0  0  0  0  0  0  0  0
   10.0536   -1.8592    0.0000 H   0  0  0  0  0  0  0  0  0  0  0  0
   10.4647   -1.1786    0.0000 H   0  0  0  0  0  0  0  0  0  0  0  0
   10.4846   -0.4075    0.0000 H   0  0  0  0  0  0  0  0  0  0  0  0
   10.1093    0.2935    0.0000 H   0  0  0  0  0  0  0  0  0  0  0  0
    8.3590   -2.7525    0.0000 H   0  0  0  0  0  0  0  0  0  0  0  0
    8.9744   -3.3771    0.0000 H   0  0  0  0  0  0  0  0  0  0  0  0
    9.5990   -2.7617    0.0000 H   0  0  0  0  0  0  0  0  0  0  0  0
    9.5844    1.5962    0.0000 H   0  0  0  0  0  0  0  0  0  0  0  0
    6.7056    1.5851    0.0000 H   0  0  0  0  0  0  0  0  0  0  0  0
    5.5094   -2.4148    0.0000 H   0  0  0  0  0  0  0  0  0  0  0  0
    8.1418    2.4291    0.0000 H   0  0  0  0  0  0  0  0  0  0  0  0
    3.5177   -1.2026    0.0000 H   0  0  0  0  0  0  0  0  0  0  0  0
    3.1219   -1.8944    0.0000 H   0  0  0  0  0  0  0  0  0  0  0  0
    3.1159   -2.7867    0.0000 H   0  0  0  0  0  0  0  0  0  0  0  0
    3.7383   -3.4043    0.0000 H   0  0  0  0  0  0  0  0  0  0  0  0
    4.3559   -2.7819    0.0000 H   0  0  0  0  0  0  0  0  0  0  0  0
    5.2851    2.7772    0.0000 H   0  0  0  0  0  0  0  0  0  0  0  0
    4.6723    3.4043    0.0000 H   0  0  0  0  0  0  0  0  0  0  0  0
    4.0452    2.7915    0.0000 H   0  0  0  0  0  0  0  0  0  0  0  0
    2.3121    0.8064    0.0000 H   0  0  0  0  0  0  0  0  0  0  0  0
    1.4643    0.5827    0.0000 H   0  0  0  0  0  0  0  0  0  0  0  0
    1.6879   -0.2651    0.0000 H   0  0  0  0  0  0  0  0  0  0  0  0
  1 19  1  0  0  0  0
  1 25  1  0  0  0  0
  2 22  1  0  0  0  0
  2 26  1  0  0  0  0
  3 25  2  0  0  0  0
  4 26  2  0  0  0  0
  5  6  1  0  0  0  0
  5 10  1  0  0  0  0
  5 15  1  0  0  0  0
  6  7  1  0  0  0  0
  6  8  1  0  0  0  0
  6 29  1  1  0  0  0
  7  9  2  0  0  0  0
  7 11  1  0  0  0  0
  8 13  1  0  0  0  0
  8 30  1  0  0  0  0
  8 31  1  0  0  0  0
  9 12  1  0  0  0  0
  9 16  1  0  0  0  0
 10 12  1  0  0  0  0
 10 32  1  0  0  0  0
 10 33  1  0  0  0  0
 11 14  1  0  0  0  0
 11 17  2  0  0  0  0
 12 34  1  0  0  0  0
 12 35  1  0  0  0  0
 13 14  1  0  0  0  0
 13 18  2  0  0  0  0
 14 19  2  0  0  0  0
 15 36  1  0  0  0  0
 15 37  1  0  0  0  0
 15 38  1  0  0  0  0
 16 21  2  0  0  0  0
 16 39  1  0  0  0  0
 17 21  1  0  0  0  0
 17 40  1  0  0  0  0
 18 20  1  0  0  0  0
 18 41  1  0  0  0  0
 19 22  1  0  0  0  0
 20 22  2  0  0  0  0
 20 23  1  0  0  0  0
 21 42  1  0  0  0  0
 23 24  1  0  0  0  0
 23 43  1  0  0  0  0
 23 44  1  0  0  0  0
 24 45  1  0  0  0  0
 24 46  1  0  0  0  0
 24 47  1  0  0  0  0
 25 27  1  0  0  0  0
 26 28  1  0  0  0  0
 27 48  1  0  0  0  0
 27 49  1  0  0  0  0
 27 50  1  0  0  0  0
 28 51  1  0  0  0  0
 28 52  1  0  0  0  0
 28 53  1  0  0  0  0
M  END
> <PUBCHEM_COMPOUND_CID>
146025821

> <PUBCHEM_COMPOUND_CANONICALIZED>
1

> <PUBCHEM_CACTVS_COMPLEXITY>
607

> <PUBCHEM_CACTVS_HBOND_ACCEPTOR>
5

> <PUBCHEM_CACTVS_HBOND_DONOR>
0

> <PUBCHEM_CACTVS_ROTATABLE_BOND>
5

> <PUBCHEM_CACTVS_SUBSKEYS>
AAADceB6OAAAAAAAAAAAAAAAAAAAAAAAAAA8YMEAAAAAAADxQAAAHgAAAAAADCzBmAQyDoMABACIAiDSCACCCAAgIAAIiAAMjIgNJiKEsRuGOirkwBGKqAeQ0PMO4AADAAAYQADQAAaAADSAAAAAAAAAAA==

> <PUBCHEM_IUPAC_OPENEYE_NAME>
[(6aR)-11-acetoxy-9-ethyl-6-methyl-5,6,6a,7-tetrahydro-4H-dibenzo[de,g]quinolin-10-yl] acetate

> <PUBCHEM_IUPAC_CAS_NAME>
acetic acid [(6aR)-11-acetyloxy-9-ethyl-6-methyl-5,6,6a,7-tetrahydro-4H-dibenzo[de,g]quinolin-10-yl] ester

> <PUBCHEM_IUPAC_NAME_MARKUP>
[(6<I>a</I><I>R</I>)-11-acetyloxy-9-ethyl-6-methyl-5,6,6<I>a</I>,7-tetrahydro-4<I>H</I>-dibenzo[de,g]quinolin-10-yl] acetate

> <PUBCHEM_IUPAC_NAME>
[(6aR)-11-acetyloxy-9-ethyl-6-methyl-5,6,6a,7-tetrahydro-4H-dibenzo[de,g]quinolin-10-yl] acetate

> <PUBCHEM_IUPAC_SYSTEMATIC_NAME>
[(6aR)-11-acetyloxy-9-ethyl-6-methyl-5,6,6a,7-tetrahydro-4H-dibenzo[de,g]quinolin-10-yl] ethanoate

> <PUBCHEM_IUPAC_TRADITIONAL_NAME>
acetic acid [(6aR)-11-acetoxy-9-ethyl-6-methyl-5,6,6a,7-tetrahydro-4H-dibenzo[de,g]quinolin-10-yl] ester

> <PUBCHEM_IUPAC_INCHI>
InChI=1S/C23H25NO4/c1-5-15-11-17-12-19-20-16(9-10-24(19)4)7-6-8-18(20)21(17)23(28-14(3)26)22(15)27-13(2)25/h6-8,11,19H,5,9-10,12H2,1-4H3/t19-/m1/s1

> <PUBCHEM_IUPAC_INCHIKEY>
BWRISDCHRCNQPM-LJQANCHMSA-N

> <PUBCHEM_XLOGP3_AA>
3.8

> <PUBCHEM_EXACT_MASS>
379.17835828

> <PUBCHEM_MOLECULAR_FORMULA>
C23H25NO4

> <PUBCHEM_MOLECULAR_WEIGHT>
379.4

> <PUBCHEM_OPENEYE_CAN_SMILES>
CCC1=C(C(=C2C(=C1)CC3C4=C(CCN3C)C=CC=C42)OC(=O)C)OC(=O)C

> <PUBCHEM_OPENEYE_ISO_SMILES>
CCC1=C(C(=C2C(=C1)C[C@@H]3C4=C(CCN3C)C=CC=C42)OC(=O)C)OC(=O)C

> <PUBCHEM_CACTVS_TPSA>
55.8

> <PUBCHEM_MONOISOTOPIC_WEIGHT>
379.17835828

> <PUBCHEM_TOTAL_CHARGE>
0

> <PUBCHEM_HEAVY_ATOM_COUNT>
28

> <PUBCHEM_ATOM_DEF_STEREO_COUNT>
1

> <PUBCHEM_ATOM_UDEF_STEREO_COUNT>
0

> <PUBCHEM_BOND_DEF_STEREO_COUNT>
0

> <PUBCHEM_BOND_UDEF_STEREO_COUNT>
0

> <PUBCHEM_ISOTOPIC_ATOM_COUNT>
0

> <PUBCHEM_COMPONENT_COUNT>
1

> <PUBCHEM_CACTVS_TAUTO_COUNT>
-1

> <PUBCHEM_COORDINATE_TYPE>
1
5
255

> <PUBCHEM_BONDANNOTATIONS>
11  17  8
13  14  8
13  18  8
14  19  8
16  21  8
17  21  8
18  20  8
19  22  8
20  22  8
6  29  5
7  11  8
7  9  8
9  16  8

$$$$
