10064053
  -OEChem-09292322112D

 45 49  0     1  0  0  0  0  0999 V2000
    6.3903   -2.0157    0.0000 N   0  0  3  0  0  0  0  0  0  0  0  0
    5.5321   -1.5188    0.0000 C   0  0  1  0  0  0  0  0  0  0  0  0
    5.5321   -0.5188    0.0000 C   0  0  0  0  0  0  0  0  0  0  0  0
    4.6660   -2.0188    0.0000 C   0  0  0  0  0  0  0  0  0  0  0  0
    6.4421   -0.0119    0.0000 C   0  0  0  0  0  0  0  0  0  0  0  0
    7.2558   -1.5315    0.0000 C   0  0  0  0  0  0  0  0  0  0  0  0
    4.6660   -0.0188    0.0000 C   0  0  0  0  0  0  0  0  0  0  0  0
    7.2814   -0.5402    0.0000 C   0  0  0  0  0  0  0  0  0  0  0  0
    3.8000   -1.5188    0.0000 C   0  0  0  0  0  0  0  0  0  0  0  0
    3.8000   -0.5188    0.0000 C   0  0  0  0  0  0  0  0  0  0  0  0
    6.3829   -3.0157    0.0000 C   0  0  0  0  0  0  0  0  0  0  0  0
    6.4501    1.0297    0.0000 C   0  0  0  0  0  0  0  0  0  0  0  0
    4.6500    1.0227    0.0000 C   0  0  0  0  0  0  0  0  0  0  0  0
    2.9061    0.0159    0.0000 C   0  0  0  0  0  0  0  0  0  0  0  0
    2.9061   -2.0534    0.0000 C   0  0  0  0  0  0  0  0  0  0  0  0
    5.5480    1.5505    0.0000 C   0  0  0  0  0  0  0  0  0  0  0  0
    2.0000   -0.4980    0.0000 C   0  0  0  0  0  0  0  0  0  0  0  0
    2.0000   -1.5396    0.0000 C   0  0  0  0  0  0  0  0  0  0  0  0
    2.9176    1.0158    0.0000 C   0  0  0  0  0  0  0  0  0  0  0  0
    3.7894    1.5058    0.0000 C   0  0  0  0  0  0  0  0  0  0  0  0
    2.0574    1.5258    0.0000 C   0  0  0  0  0  0  0  0  0  0  0  0
    3.8009    2.5057    0.0000 C   0  0  0  0  0  0  0  0  0  0  0  0
    2.0690    2.5257    0.0000 C   0  0  0  0  0  0  0  0  0  0  0  0
    2.9408    3.0157    0.0000 C   0  0  0  0  0  0  0  0  0  0  0  0
    5.5315   -2.3688    0.0000 H   0  0  0  0  0  0  0  0  0  0  0  0
    4.2675   -2.4937    0.0000 H   0  0  0  0  0  0  0  0  0  0  0  0
    5.0646   -2.4937    0.0000 H   0  0  0  0  0  0  0  0  0  0  0  0
    7.4575   -2.1178    0.0000 H   0  0  0  0  0  0  0  0  0  0  0  0
    7.8685   -1.4372    0.0000 H   0  0  0  0  0  0  0  0  0  0  0  0
    7.8885   -0.6661    0.0000 H   0  0  0  0  0  0  0  0  0  0  0  0
    7.5131    0.0349    0.0000 H   0  0  0  0  0  0  0  0  0  0  0  0
    5.7629   -3.0111    0.0000 H   0  0  0  0  0  0  0  0  0  0  0  0
    6.3783   -3.6357    0.0000 H   0  0  0  0  0  0  0  0  0  0  0  0
    7.0029   -3.0203    0.0000 H   0  0  0  0  0  0  0  0  0  0  0  0
    6.9882    1.3376    0.0000 H   0  0  0  0  0  0  0  0  0  0  0  0
    4.1095    1.3265    0.0000 H   0  0  0  0  0  0  0  0  0  0  0  0
    2.9132   -2.6734    0.0000 H   0  0  0  0  0  0  0  0  0  0  0  0
    5.5456    2.1705    0.0000 H   0  0  0  0  0  0  0  0  0  0  0  0
    1.4643   -0.1859    0.0000 H   0  0  0  0  0  0  0  0  0  0  0  0
    1.4643   -1.8517    0.0000 H   0  0  0  0  0  0  0  0  0  0  0  0
    4.3227    1.1896    0.0000 H   0  0  0  0  0  0  0  0  0  0  0  0
    1.5170    1.2220    0.0000 H   0  0  0  0  0  0  0  0  0  0  0  0
    4.3414    2.8095    0.0000 H   0  0  0  0  0  0  0  0  0  0  0  0
    1.5357    2.8419    0.0000 H   0  0  0  0  0  0  0  0  0  0  0  0
    2.9479    3.6356    0.0000 H   0  0  0  0  0  0  0  0  0  0  0  0
  1  2  1  0  0  0  0
  1  6  1  0  0  0  0
  1 11  1  0  0  0  0
  2  3  1  0  0  0  0
  2  4  1  0  0  0  0
  2 25  1  1  0  0  0
  3  5  2  0  0  0  0
  3  7  1  0  0  0  0
  4  9  1  0  0  0  0
  4 26  1  0  0  0  0
  4 27  1  0  0  0  0
  5  8  1  0  0  0  0
  5 12  1  0  0  0  0
  6  8  1  0  0  0  0
  6 28  1  0  0  0  0
  6 29  1  0  0  0  0
  7 10  1  0  0  0  0
  7 13  2  0  0  0  0
  8 30  1  0  0  0  0
  8 31  1  0  0  0  0
  9 10  2  0  0  0  0
  9 15  1  0  0  0  0
 10 14  1  0  0  0  0
 11 32  1  0  0  0  0
 11 33  1  0  0  0  0
 11 34  1  0  0  0  0
 12 16  2  0  0  0  0
 12 35  1  0  0  0  0
 13 16  1  0  0  0  0
 13 36  1  0  0  0  0
 14 17  2  0  0  0  0
 14 19  1  0  0  0  0
 15 18  2  0  0  0  0
 15 37  1  0  0  0  0
 16 38  1  0  0  0  0
 17 18  1  0  0  0  0
 17 39  1  0  0  0  0
 18 40  1  0  0  0  0
 19 20  2  0  0  0  0
 19 21  1  0  0  0  0
 20 22  1  0  0  0  0
 20 41  1  0  0  0  0
 21 23  2  0  0  0  0
 21 42  1  0  0  0  0
 22 24  2  0  0  0  0
 22 43  1  0  0  0  0
 23 24  1  0  0  0  0
 23 44  1  0  0  0  0
 24 45  1  0  0  0  0
M  END
> <PUBCHEM_COMPOUND_CID>
10064053

> <PUBCHEM_COMPOUND_CANONICALIZED>
1

> <PUBCHEM_CACTVS_COMPLEXITY>
439

> <PUBCHEM_CACTVS_HBOND_ACCEPTOR>
1

> <PUBCHEM_CACTVS_HBOND_DONOR>
0

> <PUBCHEM_CACTVS_ROTATABLE_BOND>
1

> <PUBCHEM_CACTVS_SUBSKEYS>
AAADceB6AAAAAAAAAAAAAAAAAAAAAAAAAAA8YMGCAAAAAADxUAAAHAAAAAAADCjBGAQyAIMAAACAAiBCAACCAAAgAAAIiAAIBIgIICKAkRGEIAhggACIiAcQgMAOgAACAAAQAACQAASAACQAAAAAAAAAAA==

> <PUBCHEM_IUPAC_OPENEYE_NAME>
(6aR)-6-methyl-11-phenyl-5,6,6a,7-tetrahydro-4H-dibenzo[de,g]quinoline

> <PUBCHEM_IUPAC_CAS_NAME>
(6aR)-6-methyl-11-phenyl-5,6,6a,7-tetrahydro-4H-dibenzo[de,g]quinoline

> <PUBCHEM_IUPAC_NAME_MARKUP>
(6<I>a</I><I>R</I>)-6-methyl-11-phenyl-5,6,6<I>a</I>,7-tetrahydro-4<I>H</I>-dibenzo[de,g]quinoline

> <PUBCHEM_IUPAC_NAME>
(6aR)-6-methyl-11-phenyl-5,6,6a,7-tetrahydro-4H-dibenzo[de,g]quinoline

> <PUBCHEM_IUPAC_SYSTEMATIC_NAME>
(6aR)-6-methyl-11-phenyl-5,6,6a,7-tetrahydro-4H-dibenzo[de,g]quinoline

> <PUBCHEM_IUPAC_TRADITIONAL_NAME>
(6aR)-6-methyl-11-phenyl-5,6,6a,7-tetrahydro-4H-dibenzo[de,g]quinoline

> <PUBCHEM_IUPAC_INCHI>
InChI=1S/C23H21N/c1-24-14-13-17-9-5-12-20-22-18(15-21(24)23(17)20)10-6-11-19(22)16-7-3-2-4-8-16/h2-12,21H,13-15H2,1H3/t21-/m1/s1

> <PUBCHEM_IUPAC_INCHIKEY>
TVYKKVMHDGSECW-OAQYLSRUSA-N

> <PUBCHEM_XLOGP3>
4.6

> <PUBCHEM_EXACT_MASS>
311.167399674

> <PUBCHEM_MOLECULAR_FORMULA>
C23H21N

> <PUBCHEM_MOLECULAR_WEIGHT>
311.4

> <PUBCHEM_OPENEYE_CAN_SMILES>
CN1CCC2=C3C1CC4=C(C3=CC=C2)C(=CC=C4)C5=CC=CC=C5

> <PUBCHEM_OPENEYE_ISO_SMILES>
CN1CCC2=C3[C@H]1CC4=C(C3=CC=C2)C(=CC=C4)C5=CC=CC=C5

> <PUBCHEM_CACTVS_TPSA>
3.2

> <PUBCHEM_MONOISOTOPIC_WEIGHT>
311.167399674

> <PUBCHEM_TOTAL_CHARGE>
0

> <PUBCHEM_HEAVY_ATOM_COUNT>
24

> <PUBCHEM_ATOM_DEF_STEREO_COUNT>
1

> <PUBCHEM_ATOM_UDEF_STEREO_COUNT>
0

> <PUBCHEM_BOND_DEF_STEREO_COUNT>
0

> <PUBCHEM_BOND_UDEF_STEREO_COUNT>
0

> <PUBCHEM_ISOTOPIC_ATOM_COUNT>
0

> <PUBCHEM_COMPONENT_COUNT>
1

> <PUBCHEM_CACTVS_TAUTO_COUNT>
-1

> <PUBCHEM_COORDINATE_TYPE>
1
5
255

> <PUBCHEM_BONDANNOTATIONS>
10  14  8
12  16  8
13  16  8
14  17  8
15  18  8
17  18  8
19  20  8
19  21  8
2  25  5
20  22  8
21  23  8
22  24  8
23  24  8
3  5  8
3  7  8
5  12  8
7  13  8
9  10  8
9  15  8

$$$$
