22403137
  -OEChem-09292322202D

 57 59  0     1  0  0  0  0  0999 V2000
    6.3301   -4.1555    0.0000 S   0  0  0  0  0  0  0  0  0  0  0  0
    2.8660   -2.1555    0.0000 O   0  0  0  0  0  0  0  0  0  0  0  0
    5.8301   -5.0216    0.0000 O   0  0  0  0  0  0  0  0  0  0  0  0
    6.8301   -3.2895    0.0000 O   0  0  0  0  0  0  0  0  0  0  0  0
    3.9170    2.1059    0.0000 N   0  0  3  0  0  0  0  0  0  0  0  0
    3.7891   -0.5677    0.0000 N   0  0  0  0  0  0  0  0  0  0  0  0
    3.5103    1.1923    0.0000 C   0  0  0  0  0  0  0  0  0  0  0  0
    4.0981    0.3833    0.0000 C   0  0  0  0  0  0  0  0  0  0  0  0
    3.3292    2.9149    0.0000 C   0  0  0  0  0  0  0  0  0  0  0  0
    4.5981   -1.1555    0.0000 C   0  0  0  0  0  0  0  0  0  0  0  0
    4.9116    2.2104    0.0000 C   0  0  0  0  0  0  0  0  0  0  0  0
    4.5981   -2.1555    0.0000 C   0  0  0  0  0  0  0  0  0  0  0  0
    5.0981    0.3833    0.0000 C   0  0  0  0  0  0  0  0  0  0  0  0
    5.4071   -0.5677    0.0000 C   0  0  0  0  0  0  0  0  0  0  0  0
    5.4641   -3.6555    0.0000 C   0  0  0  0  0  0  0  0  0  0  0  0
    5.4641   -2.6555    0.0000 C   0  0  0  0  0  0  0  0  0  0  0  0
    3.7360    3.8284    0.0000 C   0  0  0  0  0  0  0  0  0  0  0  0
    3.7320   -2.6555    0.0000 C   0  0  0  0  0  0  0  0  0  0  0  0
    5.3183    3.1239    0.0000 C   0  0  0  0  0  0  0  0  0  0  0  0
    7.1962   -4.6555    0.0000 C   0  0  0  0  0  0  0  0  0  0  0  0
    4.5981   -4.1555    0.0000 C   0  0  0  0  0  0  0  0  0  0  0  0
    3.7320   -3.6555    0.0000 C   0  0  0  0  0  0  0  0  0  0  0  0
    4.7305    3.9330    0.0000 C   0  0  0  0  0  0  0  0  0  0  0  0
    3.1482    4.6374    0.0000 C   0  0  0  0  0  0  0  0  0  0  0  0
    7.1962   -5.6555    0.0000 C   0  0  0  0  0  0  0  0  0  0  0  0
    5.1372    4.8465    0.0000 C   0  0  0  0  0  0  0  0  0  0  0  0
    3.5549    5.5510    0.0000 C   0  0  0  0  0  0  0  0  0  0  0  0
    4.5494    5.6555    0.0000 C   0  0  0  0  0  0  0  0  0  0  0  0
    2.0000   -2.6555    0.0000 C   0  0  0  0  0  0  0  0  0  0  0  0
    2.9963    1.5390    0.0000 H   0  0  0  0  0  0  0  0  0  0  0  0
    3.0796    0.7463    0.0000 H   0  0  0  0  0  0  0  0  0  0  0  0
    2.8152    3.2616    0.0000 H   0  0  0  0  0  0  0  0  0  0  0  0
    2.8986    2.4689    0.0000 H   0  0  0  0  0  0  0  0  0  0  0  0
    4.8683    1.5919    0.0000 H   0  0  0  0  0  0  0  0  0  0  0  0
    5.5131    2.0604    0.0000 H   0  0  0  0  0  0  0  0  0  0  0  0
    3.1994   -0.7593    0.0000 H   0  0  0  0  0  0  0  0  0  0  0  0
    5.4625    0.8849    0.0000 H   0  0  0  0  0  0  0  0  0  0  0  0
    5.9967   -0.7593    0.0000 H   0  0  0  0  0  0  0  0  0  0  0  0
    6.0010   -2.3455    0.0000 H   0  0  0  0  0  0  0  0  0  0  0  0
    5.8847    2.8718    0.0000 H   0  0  0  0  0  0  0  0  0  0  0  0
    5.5705    3.6904    0.0000 H   0  0  0  0  0  0  0  0  0  0  0  0
    4.7519    3.3761    0.0000 H   0  0  0  0  0  0  0  0  0  0  0  0
    7.8067   -4.7632    0.0000 H   0  0  0  0  0  0  0  0  0  0  0  0
    7.4082   -4.0729    0.0000 H   0  0  0  0  0  0  0  0  0  0  0  0
    4.5981   -4.7755    0.0000 H   0  0  0  0  0  0  0  0  0  0  0  0
    3.1951   -3.9655    0.0000 H   0  0  0  0  0  0  0  0  0  0  0  0
    5.0949    3.4314    0.0000 H   0  0  0  0  0  0  0  0  0  0  0  0
    2.5316    4.5726    0.0000 H   0  0  0  0  0  0  0  0  0  0  0  0
    6.5762   -5.6555    0.0000 H   0  0  0  0  0  0  0  0  0  0  0  0
    7.1962   -6.2755    0.0000 H   0  0  0  0  0  0  0  0  0  0  0  0
    7.8162   -5.6555    0.0000 H   0  0  0  0  0  0  0  0  0  0  0  0
    5.7538    4.9113    0.0000 H   0  0  0  0  0  0  0  0  0  0  0  0
    3.1905    6.0526    0.0000 H   0  0  0  0  0  0  0  0  0  0  0  0
    4.8016    6.2219    0.0000 H   0  0  0  0  0  0  0  0  0  0  0  0
    1.6900   -2.1186    0.0000 H   0  0  0  0  0  0  0  0  0  0  0  0
    1.4631   -2.9655    0.0000 H   0  0  0  0  0  0  0  0  0  0  0  0
    2.3100   -3.1925    0.0000 H   0  0  0  0  0  0  0  0  0  0  0  0
  1  3  2  0  0  0  0
  1  4  2  0  0  0  0
  1 15  1  0  0  0  0
  1 20  1  0  0  0  0
  2 18  1  0  0  0  0
  2 29  1  0  0  0  0
  5  7  1  0  0  0  0
  5  9  1  0  0  0  0
  5 11  1  0  0  0  0
  6  8  1  0  0  0  0
  6 10  1  0  0  0  0
  6 36  1  0  0  0  0
  7  8  1  0  0  0  0
  7 30  1  0  0  0  0
  7 31  1  0  0  0  0
  8 13  2  0  0  0  0
  9 17  1  0  0  0  0
  9 32  1  0  0  0  0
  9 33  1  0  0  0  0
 10 12  1  0  0  0  0
 10 14  2  0  0  0  0
 11 19  1  0  0  0  0
 11 34  1  0  0  0  0
 11 35  1  0  0  0  0
 12 16  1  0  0  0  0
 12 18  2  0  0  0  0
 13 14  1  0  0  0  0
 13 37  1  0  0  0  0
 14 38  1  0  0  0  0
 15 16  2  0  0  0  0
 15 21  1  0  0  0  0
 16 39  1  0  0  0  0
 17 23  2  0  0  0  0
 17 24  1  0  0  0  0
 18 22  1  0  0  0  0
 19 40  1  0  0  0  0
 19 41  1  0  0  0  0
 19 42  1  0  0  0  0
 20 25  1  0  0  0  0
 20 43  1  0  0  0  0
 20 44  1  0  0  0  0
 21 22  2  0  0  0  0
 21 45  1  0  0  0  0
 22 46  1  0  0  0  0
 23 26  1  0  0  0  0
 23 47  1  0  0  0  0
 24 27  2  0  0  0  0
 24 48  1  0  0  0  0
 25 49  1  0  0  0  0
 25 50  1  0  0  0  0
 25 51  1  0  0  0  0
 26 28  2  0  0  0  0
 26 52  1  0  0  0  0
 27 28  1  0  0  0  0
 27 53  1  0  0  0  0
 28 54  1  0  0  0  0
 29 55  1  0  0  0  0
 29 56  1  0  0  0  0
 29 57  1  0  0  0  0
M  END
> <PUBCHEM_COMPOUND_CID>
22403137

> <PUBCHEM_COMPOUND_CANONICALIZED>
1

> <PUBCHEM_CACTVS_COMPLEXITY>
585

> <PUBCHEM_CACTVS_HBOND_ACCEPTOR>
4

> <PUBCHEM_CACTVS_HBOND_DONOR>
1

> <PUBCHEM_CACTVS_ROTATABLE_BOND>
9

> <PUBCHEM_CACTVS_SUBSKEYS>
AAADceB7MABAAAAAAAAAAAAAAAAAAWAAAAAwYAAAAAAAAAAB0AAAHgQQAAAADAzF3gayh5PJlAqgAyRiRHDCiCAhKjAImTg+bJgMZuLksZuUMChm0BHo6AeQwOAOAIAAgAAIAAABAAEAABAAAAAAAAAAAA==

> <PUBCHEM_IUPAC_OPENEYE_NAME>
N-benzyl-N-[[5-(5-ethylsulfonyl-2-methoxy-phenyl)-1H-pyrrol-2-yl]methyl]ethanamine

> <PUBCHEM_IUPAC_CAS_NAME>
N-[[5-(5-ethylsulfonyl-2-methoxyphenyl)-1H-pyrrol-2-yl]methyl]-N-(phenylmethyl)ethanamine

> <PUBCHEM_IUPAC_NAME_MARKUP>
<I>N</I>-benzyl-<I>N</I>-[[5-(5-ethylsulfonyl-2-methoxyphenyl)-1<I>H</I>-pyrrol-2-yl]methyl]ethanamine

> <PUBCHEM_IUPAC_NAME>
N-benzyl-N-[[5-(5-ethylsulfonyl-2-methoxyphenyl)-1H-pyrrol-2-yl]methyl]ethanamine

> <PUBCHEM_IUPAC_SYSTEMATIC_NAME>
N-[[5-(5-ethylsulfonyl-2-methoxy-phenyl)-1H-pyrrol-2-yl]methyl]-N-(phenylmethyl)ethanamine

> <PUBCHEM_IUPAC_TRADITIONAL_NAME>
benzyl-[[5-(5-esyl-2-methoxy-phenyl)-1H-pyrrol-2-yl]methyl]-ethyl-amine

> <PUBCHEM_IUPAC_INCHI>
InChI=1S/C23H28N2O3S/c1-4-25(16-18-9-7-6-8-10-18)17-19-11-13-22(24-19)21-15-20(29(26,27)5-2)12-14-23(21)28-3/h6-15,24H,4-5,16-17H2,1-3H3

> <PUBCHEM_IUPAC_INCHIKEY>
BGEAJJAWRXRQLO-UHFFFAOYSA-N

> <PUBCHEM_XLOGP3_AA>
3.7

> <PUBCHEM_EXACT_MASS>
412.18206393

> <PUBCHEM_MOLECULAR_FORMULA>
C23H28N2O3S

> <PUBCHEM_MOLECULAR_WEIGHT>
412.5

> <PUBCHEM_OPENEYE_CAN_SMILES>
CCN(CC1=CC=CC=C1)CC2=CC=C(N2)C3=C(C=CC(=C3)S(=O)(=O)CC)OC

> <PUBCHEM_OPENEYE_ISO_SMILES>
CCN(CC1=CC=CC=C1)CC2=CC=C(N2)C3=C(C=CC(=C3)S(=O)(=O)CC)OC

> <PUBCHEM_CACTVS_TPSA>
70.8

> <PUBCHEM_MONOISOTOPIC_WEIGHT>
412.18206393

> <PUBCHEM_TOTAL_CHARGE>
0

> <PUBCHEM_HEAVY_ATOM_COUNT>
29

> <PUBCHEM_ATOM_DEF_STEREO_COUNT>
0

> <PUBCHEM_ATOM_UDEF_STEREO_COUNT>
0

> <PUBCHEM_BOND_DEF_STEREO_COUNT>
0

> <PUBCHEM_BOND_UDEF_STEREO_COUNT>
0

> <PUBCHEM_ISOTOPIC_ATOM_COUNT>
0

> <PUBCHEM_COMPONENT_COUNT>
1

> <PUBCHEM_CACTVS_TAUTO_COUNT>
-1

> <PUBCHEM_COORDINATE_TYPE>
1
5
255

> <PUBCHEM_BONDANNOTATIONS>
10  14  8
12  16  8
12  18  8
13  14  8
15  16  8
15  21  8
17  23  8
17  24  8
18  22  8
21  22  8
23  26  8
24  27  8
26  28  8
27  28  8
6  10  8
6  8  8
8  13  8

$$$$
