72198191
  -OEChem-09292322332D

 61 66  0     1  0  0  0  0  0999 V2000
    2.0000   -3.7845    0.0000 F   0  0  0  0  0  0  0  0  0  0  0  0
    6.4897    1.7909    0.0000 O   0  0  0  0  0  0  0  0  0  0  0  0
    9.8357    0.6973    0.0000 O   0  0  0  0  0  0  0  0  0  0  0  0
    6.4763   -1.1282    0.0000 N   0  0  0  0  0  0  0  0  0  0  0  0
    8.0761    0.9791    0.0000 N   0  0  0  0  0  0  0  0  0  0  0  0
    5.5443   -5.5892    0.0000 N   0  0  0  0  0  0  0  0  0  0  0  0
    6.8255    4.8508    0.0000 N   0  0  0  0  0  0  0  0  0  0  0  0
    5.8550   -3.0292    0.0000 C   0  0  0  0  0  0  0  0  0  0  0  0
    5.1871   -2.2849    0.0000 C   0  0  0  0  0  0  0  0  0  0  0  0
    6.8335   -2.8230    0.0000 C   0  0  0  0  0  0  0  0  0  0  0  0
    5.4978   -1.3344    0.0000 C   0  0  0  0  0  0  0  0  0  0  0  0
    7.1441   -1.8725    0.0000 C   0  0  0  0  0  0  0  0  0  0  0  0
    6.7870   -0.1776    0.0000 C   0  0  0  0  0  0  0  0  0  0  0  0
    5.5443   -3.9797    0.0000 C   0  0  0  0  0  0  0  0  0  0  0  0
    7.7654    0.0286    0.0000 C   0  0  0  0  0  0  0  0  0  0  0  0
    8.0789    2.5971    0.0000 C   0  0  3  0  0  0  0  0  0  0  0  0
    4.5981   -4.2845    0.0000 C   0  0  0  0  0  0  0  0  0  0  0  0
    9.0294    2.2865    0.0000 C   0  0  0  0  0  0  0  0  0  0  0  0
    7.4897    1.7891    0.0000 C   0  0  0  0  0  0  0  0  0  0  0  0
    6.1279   -4.7845    0.0000 C   0  0  0  0  0  0  0  0  0  0  0  0
    9.0277    1.2865    0.0000 C   0  0  0  0  0  0  0  0  0  0  0  0
    7.7715    3.5487    0.0000 C   0  0  0  0  0  0  0  0  0  0  0  0
    4.5981   -5.2845    0.0000 C   0  0  0  0  0  0  0  0  0  0  0  0
    8.3579    4.3514    0.0000 C   0  0  0  0  0  0  0  0  0  0  0  0
    3.7320   -3.7845    0.0000 C   0  0  0  0  0  0  0  0  0  0  0  0
    6.8264    3.8567    0.0000 C   0  0  0  0  0  0  0  0  0  0  0  0
    7.7702    5.1604    0.0000 C   0  0  0  0  0  0  0  0  0  0  0  0
    3.7320   -5.7845    0.0000 C   0  0  0  0  0  0  0  0  0  0  0  0
    2.8660   -4.2845    0.0000 C   0  0  0  0  0  0  0  0  0  0  0  0
    2.8660   -5.2845    0.0000 C   0  0  0  0  0  0  0  0  0  0  0  0
    9.3525    4.4559    0.0000 C   0  0  0  0  0  0  0  0  0  0  0  0
    8.1769    6.0740    0.0000 C   0  0  0  0  0  0  0  0  0  0  0  0
    9.7592    5.3695    0.0000 C   0  0  0  0  0  0  0  0  0  0  0  0
    9.1714    6.1785    0.0000 C   0  0  0  0  0  0  0  0  0  0  0  0
    6.2690   -3.4907    0.0000 H   0  0  0  0  0  0  0  0  0  0  0  0
    4.6402   -1.9929    0.0000 H   0  0  0  0  0  0  0  0  0  0  0  0
    4.8046   -2.7728    0.0000 H   0  0  0  0  0  0  0  0  0  0  0  0
    6.8540   -3.4426    0.0000 H   0  0  0  0  0  0  0  0  0  0  0  0
    7.4473   -2.9103    0.0000 H   0  0  0  0  0  0  0  0  0  0  0  0
    5.4772   -0.7147    0.0000 H   0  0  0  0  0  0  0  0  0  0  0  0
    4.8840   -1.2470    0.0000 H   0  0  0  0  0  0  0  0  0  0  0  0
    7.6910   -2.1645    0.0000 H   0  0  0  0  0  0  0  0  0  0  0  0
    7.5267   -1.3846    0.0000 H   0  0  0  0  0  0  0  0  0  0  0  0
    6.7664    0.4420    0.0000 H   0  0  0  0  0  0  0  0  0  0  0  0
    6.1731   -0.0903    0.0000 H   0  0  0  0  0  0  0  0  0  0  0  0
    7.7860   -0.5911    0.0000 H   0  0  0  0  0  0  0  0  0  0  0  0
    8.3793   -0.0588    0.0000 H   0  0  0  0  0  0  0  0  0  0  0  0
    8.5181    3.0348    0.0000 H   0  0  0  0  0  0  0  0  0  0  0  0
    9.6459    2.2206    0.0000 H   0  0  0  0  0  0  0  0  0  0  0  0
    9.1594    2.8927    0.0000 H   0  0  0  0  0  0  0  0  0  0  0  0
    6.7479   -4.7845    0.0000 H   0  0  0  0  0  0  0  0  0  0  0  0
    5.7369   -6.1785    0.0000 H   0  0  0  0  0  0  0  0  0  0  0  0
    3.7320   -3.1645    0.0000 H   0  0  0  0  0  0  0  0  0  0  0  0
    6.3248    3.4923    0.0000 H   0  0  0  0  0  0  0  0  0  0  0  0
    3.7320   -6.4045    0.0000 H   0  0  0  0  0  0  0  0  0  0  0  0
    6.3233    5.2144    0.0000 H   0  0  0  0  0  0  0  0  0  0  0  0
    9.7169    3.9544    0.0000 H   0  0  0  0  0  0  0  0  0  0  0  0
    2.3291   -5.5945    0.0000 H   0  0  0  0  0  0  0  0  0  0  0  0
    7.8125    6.5756    0.0000 H   0  0  0  0  0  0  0  0  0  0  0  0
   10.3758    5.4343    0.0000 H   0  0  0  0  0  0  0  0  0  0  0  0
    9.4236    6.7449    0.0000 H   0  0  0  0  0  0  0  0  0  0  0  0
  1 29  1  0  0  0  0
  2 19  2  0  0  0  0
  3 21  2  0  0  0  0
  4 11  1  0  0  0  0
  4 12  1  0  0  0  0
  4 13  1  0  0  0  0
  5 15  1  0  0  0  0
  5 19  1  0  0  0  0
  5 21  1  0  0  0  0
  6 20  1  0  0  0  0
  6 23  1  0  0  0  0
  6 52  1  0  0  0  0
  7 26  1  0  0  0  0
  7 27  1  0  0  0  0
  7 56  1  0  0  0  0
  8  9  1  0  0  0  0
  8 10  1  0  0  0  0
  8 14  1  0  0  0  0
  8 35  1  0  0  0  0
  9 11  1  0  0  0  0
  9 36  1  0  0  0  0
  9 37  1  0  0  0  0
 10 12  1  0  0  0  0
 10 38  1  0  0  0  0
 10 39  1  0  0  0  0
 11 40  1  0  0  0  0
 11 41  1  0  0  0  0
 12 42  1  0  0  0  0
 12 43  1  0  0  0  0
 13 15  1  0  0  0  0
 13 44  1  0  0  0  0
 13 45  1  0  0  0  0
 14 17  1  0  0  0  0
 14 20  2  0  0  0  0
 15 46  1  0  0  0  0
 15 47  1  0  0  0  0
 16 18  1  0  0  0  0
 16 19  1  0  0  0  0
 16 22  1  0  0  0  0
 16 48  1  0  0  0  0
 17 23  2  0  0  0  0
 17 25  1  0  0  0  0
 18 21  1  0  0  0  0
 18 49  1  0  0  0  0
 18 50  1  0  0  0  0
 20 51  1  0  0  0  0
 22 24  1  0  0  0  0
 22 26  2  0  0  0  0
 23 28  1  0  0  0  0
 24 27  1  0  0  0  0
 24 31  2  0  0  0  0
 25 29  2  0  0  0  0
 25 53  1  0  0  0  0
 26 54  1  0  0  0  0
 27 32  2  0  0  0  0
 28 30  2  0  0  0  0
 28 55  1  0  0  0  0
 29 30  1  0  0  0  0
 30 58  1  0  0  0  0
 31 33  1  0  0  0  0
 31 57  1  0  0  0  0
 32 34  1  0  0  0  0
 32 59  1  0  0  0  0
 33 34  2  0  0  0  0
 33 60  1  0  0  0  0
 34 61  1  0  0  0  0
M  END
> <PUBCHEM_COMPOUND_CID>
72198191

> <PUBCHEM_COMPOUND_CANONICALIZED>
1

> <PUBCHEM_CACTVS_COMPLEXITY>
772

> <PUBCHEM_CACTVS_HBOND_ACCEPTOR>
4

> <PUBCHEM_CACTVS_HBOND_DONOR>
2

> <PUBCHEM_CACTVS_ROTATABLE_BOND>
5

> <PUBCHEM_CACTVS_SUBSKEYS>
AAADceB7sQAAAAAAAAAAAAAAAAAAAWLFgAA8YIAAAAAAAFgB/gAAHwAQAAAADQjBngw8wPPJkACoAzV3VACCgCAxAiAI2aE4ZJgIYPLAlZGUIAhgliDIyAcdicCegAAAAAACAAAAAAAAAAQAAAAAAAAAAA==

> <PUBCHEM_IUPAC_OPENEYE_NAME>
1-[2-[4-(5-fluoro-1H-indol-3-yl)-1-piperidyl]ethyl]-3-(1H-indol-3-yl)pyrrolidine-2,5-dione

> <PUBCHEM_IUPAC_CAS_NAME>
1-[2-[4-(5-fluoro-1H-indol-3-yl)-1-piperidinyl]ethyl]-3-(1H-indol-3-yl)pyrrolidine-2,5-dione

> <PUBCHEM_IUPAC_NAME_MARKUP>
1-[2-[4-(5-fluoro-1<I>H</I>-indol-3-yl)piperidin-1-yl]ethyl]-3-(1<I>H</I>-indol-3-yl)pyrrolidine-2,5-dione

> <PUBCHEM_IUPAC_NAME>
1-[2-[4-(5-fluoro-1H-indol-3-yl)piperidin-1-yl]ethyl]-3-(1H-indol-3-yl)pyrrolidine-2,5-dione

> <PUBCHEM_IUPAC_SYSTEMATIC_NAME>
1-[2-[4-(5-fluoranyl-1H-indol-3-yl)piperidin-1-yl]ethyl]-3-(1H-indol-3-yl)pyrrolidine-2,5-dione

> <PUBCHEM_IUPAC_TRADITIONAL_NAME>
1-[2-[4-(5-fluoro-1H-indol-3-yl)piperidino]ethyl]-3-(1H-indol-3-yl)pyrrolidine-2,5-quinone

> <PUBCHEM_IUPAC_INCHI>
InChI=1S/C27H27FN4O2/c28-18-5-6-25-20(13-18)22(15-29-25)17-7-9-31(10-8-17)11-12-32-26(33)14-21(27(32)34)23-16-30-24-4-2-1-3-19(23)24/h1-6,13,15-17,21,29-30H,7-12,14H2

> <PUBCHEM_IUPAC_INCHIKEY>
XKHPZYLJQATCTJ-UHFFFAOYSA-N

> <PUBCHEM_XLOGP3_AA>
3.5

> <PUBCHEM_EXACT_MASS>
458.21180428

> <PUBCHEM_MOLECULAR_FORMULA>
C27H27FN4O2

> <PUBCHEM_MOLECULAR_WEIGHT>
458.5

> <PUBCHEM_OPENEYE_CAN_SMILES>
C1CN(CCC1C2=CNC3=C2C=C(C=C3)F)CCN4C(=O)CC(C4=O)C5=CNC6=CC=CC=C65

> <PUBCHEM_OPENEYE_ISO_SMILES>
C1CN(CCC1C2=CNC3=C2C=C(C=C3)F)CCN4C(=O)CC(C4=O)C5=CNC6=CC=CC=C65

> <PUBCHEM_CACTVS_TPSA>
72.2

> <PUBCHEM_MONOISOTOPIC_WEIGHT>
458.21180428

> <PUBCHEM_TOTAL_CHARGE>
0

> <PUBCHEM_HEAVY_ATOM_COUNT>
34

> <PUBCHEM_ATOM_DEF_STEREO_COUNT>
0

> <PUBCHEM_ATOM_UDEF_STEREO_COUNT>
1

> <PUBCHEM_BOND_DEF_STEREO_COUNT>
0

> <PUBCHEM_BOND_UDEF_STEREO_COUNT>
0

> <PUBCHEM_ISOTOPIC_ATOM_COUNT>
0

> <PUBCHEM_COMPONENT_COUNT>
1

> <PUBCHEM_CACTVS_TAUTO_COUNT>
-1

> <PUBCHEM_COORDINATE_TYPE>
1
5
255

> <PUBCHEM_BONDANNOTATIONS>
14  17  8
14  20  8
16  22  3
17  23  8
17  25  8
22  24  8
22  26  8
23  28  8
24  27  8
24  31  8
25  29  8
27  32  8
28  30  8
29  30  8
31  33  8
32  34  8
33  34  8
6  20  8
6  23  8
7  26  8
7  27  8

$$$$
