118719808
  -OEChem-09292322362D

 69 72  0     0  0  0  0  0  0999 V2000
    4.9836    6.7645    0.0000 O   0  0  0  0  0  0  0  0  0  0  0  0
    4.6215    3.3194    0.0000 N   0  0  0  0  0  0  0  0  0  0  0  0
    3.8080    5.1465    0.0000 N   0  0  0  0  0  0  0  0  0  0  0  0
    3.5783   -3.3871    0.0000 N   0  0  0  0  0  0  0  0  0  0  0  0
    3.0783   -1.8483    0.0000 N   0  0  0  0  0  0  0  0  0  0  0  0
    2.7693   -2.7993    0.0000 N   0  0  0  0  0  0  0  0  0  0  0  0
    3.5783   -7.3871    0.0000 N   0  0  0  0  0  0  0  0  0  0  0  0
    5.2092    4.1284    0.0000 C   0  0  0  0  0  0  0  0  0  0  0  0
    3.6270    3.4239    0.0000 C   0  0  0  0  0  0  0  0  0  0  0  0
    4.8025    5.0420    0.0000 C   0  0  0  0  0  0  0  0  0  0  0  0
    3.2202    4.3375    0.0000 C   0  0  0  0  0  0  0  0  0  0  0  0
    5.0282    2.4059    0.0000 C   0  0  0  0  0  0  0  0  0  0  0  0
    4.4404    1.5968    0.0000 C   0  0  0  0  0  0  0  0  0  0  0  0
    4.8472    0.6833    0.0000 C   0  0  0  0  0  0  0  0  0  0  0  0
    3.4013    6.0600    0.0000 C   0  0  0  0  0  0  0  0  0  0  0  0
    4.2594   -0.1257    0.0000 C   0  0  0  0  0  0  0  0  0  0  0  0
    4.6661   -1.0393    0.0000 C   0  0  0  0  0  0  0  0  0  0  0  0
    3.9890    6.8690    0.0000 C   0  0  0  0  0  0  0  0  0  0  0  0
    2.4067    6.1646    0.0000 C   0  0  0  0  0  0  0  0  0  0  0  0
    4.0783   -1.8483    0.0000 C   0  0  0  0  0  0  0  0  0  0  0  0
    3.5823    7.7826    0.0000 C   0  0  0  0  0  0  0  0  0  0  0  0
    2.0000    7.0781    0.0000 C   0  0  0  0  0  0  0  0  0  0  0  0
    2.5878    7.8871    0.0000 C   0  0  0  0  0  0  0  0  0  0  0  0
    4.3873   -2.7993    0.0000 C   0  0  0  0  0  0  0  0  0  0  0  0
    5.5714    7.5735    0.0000 C   0  0  0  0  0  0  0  0  0  0  0  0
    3.5783   -4.3871    0.0000 C   0  0  0  0  0  0  0  0  0  0  0  0
    2.7123   -4.8871    0.0000 C   0  0  0  0  0  0  0  0  0  0  0  0
    4.4444   -4.8871    0.0000 C   0  0  0  0  0  0  0  0  0  0  0  0
    3.5783   -6.3871    0.0000 C   0  0  0  0  0  0  0  0  0  0  0  0
    2.7123   -5.8871    0.0000 C   0  0  0  0  0  0  0  0  0  0  0  0
    4.4444   -5.8871    0.0000 C   0  0  0  0  0  0  0  0  0  0  0  0
    2.7123   -7.8871    0.0000 C   0  0  0  0  0  0  0  0  0  0  0  0
    4.4444   -7.8871    0.0000 C   0  0  0  0  0  0  0  0  0  0  0  0
    5.6399    3.6824    0.0000 H   0  0  0  0  0  0  0  0  0  0  0  0
    5.7233    4.4751    0.0000 H   0  0  0  0  0  0  0  0  0  0  0  0
    3.0254    3.2739    0.0000 H   0  0  0  0  0  0  0  0  0  0  0  0
    3.6702    2.8054    0.0000 H   0  0  0  0  0  0  0  0  0  0  0  0
    5.4041    5.1920    0.0000 H   0  0  0  0  0  0  0  0  0  0  0  0
    4.7593    5.6604    0.0000 H   0  0  0  0  0  0  0  0  0  0  0  0
    2.7895    4.7835    0.0000 H   0  0  0  0  0  0  0  0  0  0  0  0
    2.7062    3.9908    0.0000 H   0  0  0  0  0  0  0  0  0  0  0  0
    5.4589    1.9599    0.0000 H   0  0  0  0  0  0  0  0  0  0  0  0
    5.5422    2.7526    0.0000 H   0  0  0  0  0  0  0  0  0  0  0  0
    4.0097    2.0428    0.0000 H   0  0  0  0  0  0  0  0  0  0  0  0
    3.9264    1.2501    0.0000 H   0  0  0  0  0  0  0  0  0  0  0  0
    5.2778    0.2373    0.0000 H   0  0  0  0  0  0  0  0  0  0  0  0
    5.3612    1.0300    0.0000 H   0  0  0  0  0  0  0  0  0  0  0  0
    3.8287    0.3203    0.0000 H   0  0  0  0  0  0  0  0  0  0  0  0
    3.7454   -0.4724    0.0000 H   0  0  0  0  0  0  0  0  0  0  0  0
    5.0968   -1.4853    0.0000 H   0  0  0  0  0  0  0  0  0  0  0  0
    5.1801   -0.6926    0.0000 H   0  0  0  0  0  0  0  0  0  0  0  0
    2.0423    5.6630    0.0000 H   0  0  0  0  0  0  0  0  0  0  0  0
    3.9467    8.2842    0.0000 H   0  0  0  0  0  0  0  0  0  0  0  0
    1.3834    7.1429    0.0000 H   0  0  0  0  0  0  0  0  0  0  0  0
    2.3356    8.4535    0.0000 H   0  0  0  0  0  0  0  0  0  0  0  0
    4.9770   -2.9909    0.0000 H   0  0  0  0  0  0  0  0  0  0  0  0
    6.0729    7.2091    0.0000 H   0  0  0  0  0  0  0  0  0  0  0  0
    5.9358    8.0751    0.0000 H   0  0  0  0  0  0  0  0  0  0  0  0
    5.0698    7.9380    0.0000 H   0  0  0  0  0  0  0  0  0  0  0  0
    2.1754   -4.5771    0.0000 H   0  0  0  0  0  0  0  0  0  0  0  0
    4.9813   -4.5771    0.0000 H   0  0  0  0  0  0  0  0  0  0  0  0
    2.1754   -6.1971    0.0000 H   0  0  0  0  0  0  0  0  0  0  0  0
    4.9813   -6.1971    0.0000 H   0  0  0  0  0  0  0  0  0  0  0  0
    2.4023   -7.3502    0.0000 H   0  0  0  0  0  0  0  0  0  0  0  0
    2.1754   -8.1971    0.0000 H   0  0  0  0  0  0  0  0  0  0  0  0
    3.0223   -8.4241    0.0000 H   0  0  0  0  0  0  0  0  0  0  0  0
    4.1344   -8.4241    0.0000 H   0  0  0  0  0  0  0  0  0  0  0  0
    4.9813   -8.1971    0.0000 H   0  0  0  0  0  0  0  0  0  0  0  0
    4.7543   -7.3502    0.0000 H   0  0  0  0  0  0  0  0  0  0  0  0
  1 18  1  0  0  0  0
  1 25  1  0  0  0  0
  2  8  1  0  0  0  0
  2  9  1  0  0  0  0
  2 12  1  0  0  0  0
  3 10  1  0  0  0  0
  3 11  1  0  0  0  0
  3 15  1  0  0  0  0
  4  6  1  0  0  0  0
  4 24  1  0  0  0  0
  4 26  1  0  0  0  0
  5  6  2  0  0  0  0
  5 20  1  0  0  0  0
  7 29  1  0  0  0  0
  7 32  1  0  0  0  0
  7 33  1  0  0  0  0
  8 10  1  0  0  0  0
  8 34  1  0  0  0  0
  8 35  1  0  0  0  0
  9 11  1  0  0  0  0
  9 36  1  0  0  0  0
  9 37  1  0  0  0  0
 10 38  1  0  0  0  0
 10 39  1  0  0  0  0
 11 40  1  0  0  0  0
 11 41  1  0  0  0  0
 12 13  1  0  0  0  0
 12 42  1  0  0  0  0
 12 43  1  0  0  0  0
 13 14  1  0  0  0  0
 13 44  1  0  0  0  0
 13 45  1  0  0  0  0
 14 16  1  0  0  0  0
 14 46  1  0  0  0  0
 14 47  1  0  0  0  0
 15 18  1  0  0  0  0
 15 19  2  0  0  0  0
 16 17  1  0  0  0  0
 16 48  1  0  0  0  0
 16 49  1  0  0  0  0
 17 20  1  0  0  0  0
 17 50  1  0  0  0  0
 17 51  1  0  0  0  0
 18 21  2  0  0  0  0
 19 22  1  0  0  0  0
 19 52  1  0  0  0  0
 20 24  2  0  0  0  0
 21 23  1  0  0  0  0
 21 53  1  0  0  0  0
 22 23  2  0  0  0  0
 22 54  1  0  0  0  0
 23 55  1  0  0  0  0
 24 56  1  0  0  0  0
 25 57  1  0  0  0  0
 25 58  1  0  0  0  0
 25 59  1  0  0  0  0
 26 27  2  0  0  0  0
 26 28  1  0  0  0  0
 27 30  1  0  0  0  0
 27 60  1  0  0  0  0
 28 31  2  0  0  0  0
 28 61  1  0  0  0  0
 29 30  2  0  0  0  0
 29 31  1  0  0  0  0
 30 62  1  0  0  0  0
 31 63  1  0  0  0  0
 32 64  1  0  0  0  0
 32 65  1  0  0  0  0
 32 66  1  0  0  0  0
 33 67  1  0  0  0  0
 33 68  1  0  0  0  0
 33 69  1  0  0  0  0
M  END
> <PUBCHEM_COMPOUND_CID>
118719808

> <PUBCHEM_COMPOUND_CANONICALIZED>
1

> <PUBCHEM_CACTVS_COMPLEXITY>
547

> <PUBCHEM_CACTVS_HBOND_ACCEPTOR>
6

> <PUBCHEM_CACTVS_HBOND_DONOR>
0

> <PUBCHEM_CACTVS_ROTATABLE_BOND>
10

> <PUBCHEM_CACTVS_SUBSKEYS>
AAADcfB7oAAAAAAAAAAAAAAAAAAAAWAAAAA8YIAAAAAAAAAB0AAAHgAIAAAACAzBlgY+xpMIBACiATRnRACCDCQxsgAYmAA/fIgOZmLEsZuVMChkwBHY6AeQwAAAAACAAAAAEAAAAQAAAAAgAAAAAAAAAA==

> <PUBCHEM_IUPAC_OPENEYE_NAME>
4-[4-[5-[4-(2-methoxyphenyl)piperazin-1-yl]pentyl]triazol-1-yl]-N,N-dimethyl-aniline

> <PUBCHEM_IUPAC_CAS_NAME>
4-[4-[5-[4-(2-methoxyphenyl)-1-piperazinyl]pentyl]-1-triazolyl]-N,N-dimethylaniline

> <PUBCHEM_IUPAC_NAME_MARKUP>
4-[4-[5-[4-(2-methoxyphenyl)piperazin-1-yl]pentyl]triazol-1-yl]-<I>N</I>,<I>N</I>-dimethylaniline

> <PUBCHEM_IUPAC_NAME>
4-[4-[5-[4-(2-methoxyphenyl)piperazin-1-yl]pentyl]triazol-1-yl]-N,N-dimethylaniline

> <PUBCHEM_IUPAC_SYSTEMATIC_NAME>
4-[4-[5-[4-(2-methoxyphenyl)piperazin-1-yl]pentyl]-1,2,3-triazol-1-yl]-N,N-dimethyl-aniline

> <PUBCHEM_IUPAC_TRADITIONAL_NAME>
[4-[4-[5-[4-(2-methoxyphenyl)piperazino]pentyl]triazol-1-yl]phenyl]-dimethyl-amine

> <PUBCHEM_IUPAC_INCHI>
InChI=1S/C26H36N6O/c1-29(2)23-12-14-24(15-13-23)32-21-22(27-28-32)9-5-4-8-16-30-17-19-31(20-18-30)25-10-6-7-11-26(25)33-3/h6-7,10-15,21H,4-5,8-9,16-20H2,1-3H3

> <PUBCHEM_IUPAC_INCHIKEY>
JEFLKZKNAVDDCN-UHFFFAOYSA-N

> <PUBCHEM_XLOGP3_AA>
4.4

> <PUBCHEM_EXACT_MASS>
448.29505979

> <PUBCHEM_MOLECULAR_FORMULA>
C26H36N6O

> <PUBCHEM_MOLECULAR_WEIGHT>
448.6

> <PUBCHEM_OPENEYE_CAN_SMILES>
CN(C)C1=CC=C(C=C1)N2C=C(N=N2)CCCCCN3CCN(CC3)C4=CC=CC=C4OC

> <PUBCHEM_OPENEYE_ISO_SMILES>
CN(C)C1=CC=C(C=C1)N2C=C(N=N2)CCCCCN3CCN(CC3)C4=CC=CC=C4OC

> <PUBCHEM_CACTVS_TPSA>
49.7

> <PUBCHEM_MONOISOTOPIC_WEIGHT>
448.29505979

> <PUBCHEM_TOTAL_CHARGE>
0

> <PUBCHEM_HEAVY_ATOM_COUNT>
33

> <PUBCHEM_ATOM_DEF_STEREO_COUNT>
0

> <PUBCHEM_ATOM_UDEF_STEREO_COUNT>
0

> <PUBCHEM_BOND_DEF_STEREO_COUNT>
0

> <PUBCHEM_BOND_UDEF_STEREO_COUNT>
0

> <PUBCHEM_ISOTOPIC_ATOM_COUNT>
0

> <PUBCHEM_COMPONENT_COUNT>
1

> <PUBCHEM_CACTVS_TAUTO_COUNT>
-1

> <PUBCHEM_COORDINATE_TYPE>
1
5
255

> <PUBCHEM_BONDANNOTATIONS>
15  18  8
15  19  8
18  21  8
19  22  8
20  24  8
21  23  8
22  23  8
26  27  8
26  28  8
27  30  8
28  31  8
29  30  8
29  31  8
4  24  8
4  6  8
5  20  8
5  6  8

$$$$
