90664601
  -OEChem-09292322042D

 70 69  0     0  0  0  0  0  0999 V2000
    3.0000    2.6200    0.0000 Cl  0  0  0  0  0  0  0  0  0  0  0  0
    3.0000    0.6200    0.0000 Cl  0  0  0  0  0  0  0  0  0  0  0  0
    6.4187   16.6295    0.0000 Cl  0  0  0  0  0  0  0  0  0  0  0  0
   12.8374    8.3147    0.0000 Cl  0  0  0  0  0  0  0  0  0  0  0  0
   15.8374    8.3147    0.0000 Cl  0  0  0  0  0  0  0  0  0  0  0  0
    0.0000    8.3147    0.0000 Cl  0  0  0  0  0  0  0  0  0  0  0  0
    5.5981   10.1200    0.0000 O   0  0  0  0  0  0  0  0  0  0  0  0
    4.7320    5.6200    0.0000 N   0  0  0  0  0  0  0  0  0  0  0  0
    4.7320    3.6200    0.0000 N   0  0  0  0  0  0  0  0  0  0  0  0
    6.4641    8.6200    0.0000 N   0  0  0  0  0  0  0  0  0  0  0  0
    8.4128   11.3224    0.0000 N   0  0  0  0  0  0  0  0  0  0  0  0
    8.2437    9.7133    0.0000 N   0  0  0  0  0  0  0  0  0  0  0  0
    3.8660    5.1200    0.0000 C   0  0  0  0  0  0  0  0  0  0  0  0
    5.5981    5.1200    0.0000 C   0  0  0  0  0  0  0  0  0  0  0  0
    3.8660    4.1200    0.0000 C   0  0  0  0  0  0  0  0  0  0  0  0
    5.5981    4.1200    0.0000 C   0  0  0  0  0  0  0  0  0  0  0  0
    4.7320    6.6200    0.0000 C   0  0  0  0  0  0  0  0  0  0  0  0
    5.5981    7.1200    0.0000 C   0  0  0  0  0  0  0  0  0  0  0  0
    4.7320    2.6200    0.0000 C   0  0  0  0  0  0  0  0  0  0  0  0
    5.5981    8.1200    0.0000 C   0  0  0  0  0  0  0  0  0  0  0  0
    3.8660    2.1200    0.0000 C   0  0  0  0  0  0  0  0  0  0  0  0
    5.5981    2.1200    0.0000 C   0  0  0  0  0  0  0  0  0  0  0  0
    3.8660    1.1200    0.0000 C   0  0  0  0  0  0  0  0  0  0  0  0
    5.5981    1.1200    0.0000 C   0  0  0  0  0  0  0  0  0  0  0  0
    6.4641    9.6200    0.0000 C   0  0  0  0  0  0  0  0  0  0  0  0
    4.7320    0.6200    0.0000 C   0  0  0  0  0  0  0  0  0  0  0  0
    7.3301   10.1200    0.0000 C   0  0  0  0  0  0  0  0  0  0  0  0
    7.4347   11.1145    0.0000 C   0  0  0  0  0  0  0  0  0  0  0  0
    8.9128   10.4564    0.0000 C   0  0  0  0  0  0  0  0  0  0  0  0
    8.8195   12.2360    0.0000 C   0  0  0  0  0  0  0  0  0  0  0  0
    6.6915   11.7837    0.0000 C   0  0  0  0  0  0  0  0  0  0  0  0
    9.9073   10.3519    0.0000 C   0  0  0  0  0  0  0  0  0  0  0  0
    9.8141   12.3405    0.0000 C   0  0  0  0  0  0  0  0  0  0  0  0
    8.2318   13.0450    0.0000 C   0  0  0  0  0  0  0  0  0  0  0  0
   10.2208   13.2541    0.0000 C   0  0  0  0  0  0  0  0  0  0  0  0
    8.6385   13.9585    0.0000 C   0  0  0  0  0  0  0  0  0  0  0  0
    9.6330   14.0631    0.0000 C   0  0  0  0  0  0  0  0  0  0  0  0
    3.6540    5.7026    0.0000 H   0  0  0  0  0  0  0  0  0  0  0  0
    3.2554    5.0123    0.0000 H   0  0  0  0  0  0  0  0  0  0  0  0
    6.2087    5.0123    0.0000 H   0  0  0  0  0  0  0  0  0  0  0  0
    5.8101    5.7026    0.0000 H   0  0  0  0  0  0  0  0  0  0  0  0
    3.2554    4.2277    0.0000 H   0  0  0  0  0  0  0  0  0  0  0  0
    3.6540    3.5374    0.0000 H   0  0  0  0  0  0  0  0  0  0  0  0
    5.8101    3.5374    0.0000 H   0  0  0  0  0  0  0  0  0  0  0  0
    6.2087    4.2277    0.0000 H   0  0  0  0  0  0  0  0  0  0  0  0
    4.5200    7.2026    0.0000 H   0  0  0  0  0  0  0  0  0  0  0  0
    4.1215    6.5123    0.0000 H   0  0  0  0  0  0  0  0  0  0  0  0
    5.8101    6.5374    0.0000 H   0  0  0  0  0  0  0  0  0  0  0  0
    6.2087    7.2277    0.0000 H   0  0  0  0  0  0  0  0  0  0  0  0
    5.3860    8.7026    0.0000 H   0  0  0  0  0  0  0  0  0  0  0  0
    4.9875    8.0123    0.0000 H   0  0  0  0  0  0  0  0  0  0  0  0
    6.1350    2.4300    0.0000 H   0  0  0  0  0  0  0  0  0  0  0  0
    7.0010    8.3100    0.0000 H   0  0  0  0  0  0  0  0  0  0  0  0
    6.1350    0.8100    0.0000 H   0  0  0  0  0  0  0  0  0  0  0  0
    4.7320    0.0000    0.0000 H   0  0  0  0  0  0  0  0  0  0  0  0
    7.1064   12.2444    0.0000 H   0  0  0  0  0  0  0  0  0  0  0  0
    6.2308   12.1985    0.0000 H   0  0  0  0  0  0  0  0  0  0  0  0
    6.2766   11.3229    0.0000 H   0  0  0  0  0  0  0  0  0  0  0  0
    9.8425    9.7353    0.0000 H   0  0  0  0  0  0  0  0  0  0  0  0
   10.5239   10.2871    0.0000 H   0  0  0  0  0  0  0  0  0  0  0  0
    9.9721   10.9685    0.0000 H   0  0  0  0  0  0  0  0  0  0  0  0
   10.1785   11.8389    0.0000 H   0  0  0  0  0  0  0  0  0  0  0  0
    7.6152   12.9802    0.0000 H   0  0  0  0  0  0  0  0  0  0  0  0
   10.8374   13.3189    0.0000 H   0  0  0  0  0  0  0  0  0  0  0  0
    8.2741   14.4601    0.0000 H   0  0  0  0  0  0  0  0  0  0  0  0
    9.8852   14.6295    0.0000 H   0  0  0  0  0  0  0  0  0  0  0  0
    7.4187   16.6295    0.0000 H   0  0  0  0  0  0  0  0  0  0  0  0
   13.8374    8.3147    0.0000 H   0  0  0  0  0  0  0  0  0  0  0  0
   16.8374    8.3147    0.0000 H   0  0  0  0  0  0  0  0  0  0  0  0
    1.0000    8.3147    0.0000 H   0  0  0  0  0  0  0  0  0  0  0  0
  1 21  1  0  0  0  0
  2 23  1  0  0  0  0
  3 67  1  0  0  0  0
  4 68  1  0  0  0  0
  5 69  1  0  0  0  0
  6 70  1  0  0  0  0
  7 25  2  0  0  0  0
  8 13  1  0  0  0  0
  8 14  1  0  0  0  0
  8 17  1  0  0  0  0
  9 15  1  0  0  0  0
  9 16  1  0  0  0  0
  9 19  1  0  0  0  0
 10 20  1  0  0  0  0
 10 25  1  0  0  0  0
 10 53  1  0  0  0  0
 11 28  1  0  0  0  0
 11 29  1  0  0  0  0
 11 30  1  0  0  0  0
 12 27  1  0  0  0  0
 12 29  2  0  0  0  0
 13 15  1  0  0  0  0
 13 38  1  0  0  0  0
 13 39  1  0  0  0  0
 14 16  1  0  0  0  0
 14 40  1  0  0  0  0
 14 41  1  0  0  0  0
 15 42  1  0  0  0  0
 15 43  1  0  0  0  0
 16 44  1  0  0  0  0
 16 45  1  0  0  0  0
 17 18  1  0  0  0  0
 17 46  1  0  0  0  0
 17 47  1  0  0  0  0
 18 20  1  0  0  0  0
 18 48  1  0  0  0  0
 18 49  1  0  0  0  0
 19 21  2  0  0  0  0
 19 22  1  0  0  0  0
 20 50  1  0  0  0  0
 20 51  1  0  0  0  0
 21 23  1  0  0  0  0
 22 24  2  0  0  0  0
 22 52  1  0  0  0  0
 23 26  2  0  0  0  0
 24 26  1  0  0  0  0
 24 54  1  0  0  0  0
 25 27  1  0  0  0  0
 26 55  1  0  0  0  0
 27 28  2  0  0  0  0
 28 31  1  0  0  0  0
 29 32  1  0  0  0  0
 30 33  2  0  0  0  0
 30 34  1  0  0  0  0
 31 56  1  0  0  0  0
 31 57  1  0  0  0  0
 31 58  1  0  0  0  0
 32 59  1  0  0  0  0
 32 60  1  0  0  0  0
 32 61  1  0  0  0  0
 33 35  1  0  0  0  0
 33 62  1  0  0  0  0
 34 36  2  0  0  0  0
 34 63  1  0  0  0  0
 35 37  2  0  0  0  0
 35 64  1  0  0  0  0
 36 37  1  0  0  0  0
 36 65  1  0  0  0  0
 37 66  1  0  0  0  0
M  END
> <PUBCHEM_COMPOUND_CID>
90664601

> <PUBCHEM_COMPOUND_CANONICALIZED>
1

> <PUBCHEM_CACTVS_COMPLEXITY>
626

> <PUBCHEM_CACTVS_HBOND_ACCEPTOR>
4

> <PUBCHEM_CACTVS_HBOND_DONOR>
5

> <PUBCHEM_CACTVS_ROTATABLE_BOND>
7

> <PUBCHEM_CACTVS_SUBSKEYS>
AAADcfB7oAAHAAAAAAAAAAAAAAAAAWAAAAA8YIAAAAAAAAAB0AAAHgIQAAAACArBlyQz0JfMEACoASdydACCgC0nF6AJmsG4dsiIaHrB27HUIYholgLIyWcQAAAAAAAAAAIAABQAAAAABAAAKAAAAAAAAA==

> <PUBCHEM_IUPAC_OPENEYE_NAME>
N-[3-[4-(2,3-dichlorophenyl)piperazin-1-yl]propyl]-2,5-dimethyl-1-phenyl-imidazole-4-carboxamide;tetrahydrochloride

> <PUBCHEM_IUPAC_CAS_NAME>
N-[3-[4-(2,3-dichlorophenyl)-1-piperazinyl]propyl]-2,5-dimethyl-1-phenyl-4-imidazolecarboxamide;tetrahydrochloride

> <PUBCHEM_IUPAC_NAME_MARKUP>
<I>N</I>-[3-[4-(2,3-dichlorophenyl)piperazin-1-yl]propyl]-2,5-dimethyl-1-phenylimidazole-4-carboxamide;tetrahydrochloride

> <PUBCHEM_IUPAC_NAME>
N-[3-[4-(2,3-dichlorophenyl)piperazin-1-yl]propyl]-2,5-dimethyl-1-phenylimidazole-4-carboxamide;tetrahydrochloride

> <PUBCHEM_IUPAC_SYSTEMATIC_NAME>
N-[3-[4-[2,3-bis(chloranyl)phenyl]piperazin-1-yl]propyl]-2,5-dimethyl-1-phenyl-imidazole-4-carboxamide;tetrahydrochloride

> <PUBCHEM_IUPAC_TRADITIONAL_NAME>
N-[3-[4-(2,3-dichlorophenyl)piperazino]propyl]-2,5-dimethyl-1-phenyl-imidazole-4-carboxamide;tetrahydrochloride

> <PUBCHEM_IUPAC_INCHI>
InChI=1S/C25H29Cl2N5O.4ClH/c1-18-24(29-19(2)32(18)20-8-4-3-5-9-20)25(33)28-12-7-13-30-14-16-31(17-15-30)22-11-6-10-21(26)23(22)27;;;;/h3-6,8-11H,7,12-17H2,1-2H3,(H,28,33);4*1H

> <PUBCHEM_IUPAC_INCHIKEY>
VXPNNEACONQTET-UHFFFAOYSA-N

> <PUBCHEM_EXACT_MASS>
631.078677

> <PUBCHEM_MOLECULAR_FORMULA>
C25H33Cl6N5O

> <PUBCHEM_MOLECULAR_WEIGHT>
632.3

> <PUBCHEM_OPENEYE_CAN_SMILES>
CC1=C(N=C(N1C2=CC=CC=C2)C)C(=O)NCCCN3CCN(CC3)C4=C(C(=CC=C4)Cl)Cl.Cl.Cl.Cl.Cl

> <PUBCHEM_OPENEYE_ISO_SMILES>
CC1=C(N=C(N1C2=CC=CC=C2)C)C(=O)NCCCN3CCN(CC3)C4=C(C(=CC=C4)Cl)Cl.Cl.Cl.Cl.Cl

> <PUBCHEM_CACTVS_TPSA>
53.4

> <PUBCHEM_MONOISOTOPIC_WEIGHT>
629.081627

> <PUBCHEM_TOTAL_CHARGE>
0

> <PUBCHEM_HEAVY_ATOM_COUNT>
37

> <PUBCHEM_ATOM_DEF_STEREO_COUNT>
0

> <PUBCHEM_ATOM_UDEF_STEREO_COUNT>
0

> <PUBCHEM_BOND_DEF_STEREO_COUNT>
0

> <PUBCHEM_BOND_UDEF_STEREO_COUNT>
0

> <PUBCHEM_ISOTOPIC_ATOM_COUNT>
0

> <PUBCHEM_COMPONENT_COUNT>
5

> <PUBCHEM_CACTVS_TAUTO_COUNT>
-1

> <PUBCHEM_COORDINATE_TYPE>
1
5
255

> <PUBCHEM_BONDANNOTATIONS>
11  28  8
11  29  8
12  27  8
12  29  8
19  21  8
19  22  8
21  23  8
22  24  8
23  26  8
24  26  8
27  28  8
30  33  8
30  34  8
33  35  8
34  36  8
35  37  8
36  37  8

$$$$
