45486825
  -OEChem-09292322292D

 64 69  0     1  0  0  0  0  0999 V2000
    2.0000    0.7677    0.0000 F   0  0  0  0  0  0  0  0  0  0  0  0
   12.3664   -1.8069    0.0000 O   0  0  0  0  0  0  0  0  0  0  0  0
   14.5142   -1.4908    0.0000 O   0  0  0  0  0  0  0  0  0  0  0  0
   16.2313   -1.0359    0.0000 O   0  0  0  0  0  0  0  0  0  0  0  0
    9.3887    0.2261    0.0000 N   0  0  0  0  0  0  0  0  0  0  0  0
    4.8717    3.6282    0.0000 N   0  0  0  0  0  0  0  0  0  0  0  0
   15.5865   -2.6911    0.0000 N   0  0  0  0  0  0  0  0  0  0  0  0
    7.0772    1.5134    0.0000 C   0  0  3  0  0  0  0  0  0  0  0  0
    7.7435    0.7677    0.0000 C   0  0  0  0  0  0  0  0  0  0  0  0
    7.3991    2.5040    0.0000 C   0  0  0  0  0  0  0  0  0  0  0  0
    6.0567    1.3047    0.0000 C   0  0  0  0  0  0  0  0  0  0  0  0
    8.7224    0.9718    0.0000 C   0  0  0  0  0  0  0  0  0  0  0  0
   10.7212   -1.2654    0.0000 C   0  0  0  0  0  0  0  0  0  0  0  0
    9.0760   -0.7238    0.0000 C   0  0  0  0  0  0  0  0  0  0  0  0
   10.3676    0.4302    0.0000 C   0  0  0  0  0  0  0  0  0  0  0  0
    9.7423   -1.4695    0.0000 C   0  0  0  0  0  0  0  0  0  0  0  0
   11.0339   -0.3155    0.0000 C   0  0  0  0  0  0  0  0  0  0  0  0
    6.6962    3.2727    0.0000 C   0  0  0  0  0  0  0  0  0  0  0  0
    5.3717    2.0894    0.0000 C   0  0  0  0  0  0  0  0  0  0  0  0
    5.6808    3.0404    0.0000 C   0  0  0  0  0  0  0  0  0  0  0  0
    4.3717    2.0894    0.0000 C   0  0  0  0  0  0  0  0  0  0  0  0
   11.3875   -2.0111    0.0000 C   0  0  0  0  0  0  0  0  0  0  0  0
    4.0627    3.0404    0.0000 C   0  0  0  0  0  0  0  0  0  0  0  0
    3.6868    1.3047    0.0000 C   0  0  0  0  0  0  0  0  0  0  0  0
    3.0473    3.2727    0.0000 C   0  0  0  0  0  0  0  0  0  0  0  0
    2.6663    1.5134    0.0000 C   0  0  0  0  0  0  0  0  0  0  0  0
    2.3444    2.5040    0.0000 C   0  0  0  0  0  0  0  0  0  0  0  0
   13.0327   -2.5527    0.0000 C   0  0  0  0  0  0  0  0  0  0  0  0
   14.0116   -2.3485    0.0000 C   0  0  0  0  0  0  0  0  0  0  0  0
   12.7200   -3.5025    0.0000 C   0  0  0  0  0  0  0  0  0  0  0  0
   14.6779   -3.0942    0.0000 C   0  0  0  0  0  0  0  0  0  0  0  0
   13.3862   -4.2482    0.0000 C   0  0  0  0  0  0  0  0  0  0  0  0
   14.3652   -4.0441    0.0000 C   0  0  0  0  0  0  0  0  0  0  0  0
   15.4856   -1.7021    0.0000 C   0  0  0  0  0  0  0  0  0  0  0  0
    6.8822    0.9248    0.0000 H   0  0  0  0  0  0  0  0  0  0  0  0
    7.2164    0.4411    0.0000 H   0  0  0  0  0  0  0  0  0  0  0  0
    7.9735    0.1919    0.0000 H   0  0  0  0  0  0  0  0  0  0  0  0
    7.9473    2.2144    0.0000 H   0  0  0  0  0  0  0  0  0  0  0  0
    7.7783    2.9945    0.0000 H   0  0  0  0  0  0  0  0  0  0  0  0
    5.5267    0.9829    0.0000 H   0  0  0  0  0  0  0  0  0  0  0  0
    6.2830    0.7275    0.0000 H   0  0  0  0  0  0  0  0  0  0  0  0
    9.2495    1.2983    0.0000 H   0  0  0  0  0  0  0  0  0  0  0  0
    8.4924    1.5475    0.0000 H   0  0  0  0  0  0  0  0  0  0  0  0
   10.5273   -1.8543    0.0000 H   0  0  0  0  0  0  0  0  0  0  0  0
    8.5297   -0.4306    0.0000 H   0  0  0  0  0  0  0  0  0  0  0  0
    8.6924   -1.2109    0.0000 H   0  0  0  0  0  0  0  0  0  0  0  0
   10.8947    0.7567    0.0000 H   0  0  0  0  0  0  0  0  0  0  0  0
   10.1376    1.0060    0.0000 H   0  0  0  0  0  0  0  0  0  0  0  0
    9.2152   -1.7960    0.0000 H   0  0  0  0  0  0  0  0  0  0  0  0
    9.9723   -2.0452    0.0000 H   0  0  0  0  0  0  0  0  0  0  0  0
   11.5802   -0.6087    0.0000 H   0  0  0  0  0  0  0  0  0  0  0  0
   11.4175    0.1716    0.0000 H   0  0  0  0  0  0  0  0  0  0  0  0
    7.2186    3.6066    0.0000 H   0  0  0  0  0  0  0  0  0  0  0  0
    6.4565    3.8445    0.0000 H   0  0  0  0  0  0  0  0  0  0  0  0
   10.8604   -2.3376    0.0000 H   0  0  0  0  0  0  0  0  0  0  0  0
   11.6175   -2.5868    0.0000 H   0  0  0  0  0  0  0  0  0  0  0  0
    4.8717    4.2482    0.0000 H   0  0  0  0  0  0  0  0  0  0  0  0
    3.8852    0.7173    0.0000 H   0  0  0  0  0  0  0  0  0  0  0  0
    2.8626    3.8645    0.0000 H   0  0  0  0  0  0  0  0  0  0  0  0
    1.7384    2.6353    0.0000 H   0  0  0  0  0  0  0  0  0  0  0  0
   12.1130   -3.6291    0.0000 H   0  0  0  0  0  0  0  0  0  0  0  0
   13.1924   -4.8372    0.0000 H   0  0  0  0  0  0  0  0  0  0  0  0
   14.7783   -4.5064    0.0000 H   0  0  0  0  0  0  0  0  0  0  0  0
   16.1228   -3.0022    0.0000 H   0  0  0  0  0  0  0  0  0  0  0  0
  1 26  1  0  0  0  0
  2 22  1  0  0  0  0
  2 28  1  0  0  0  0
  3 29  1  0  0  0  0
  3 34  1  0  0  0  0
  4 34  2  0  0  0  0
  5 12  1  0  0  0  0
  5 14  1  0  0  0  0
  5 15  1  0  0  0  0
  6 20  1  0  0  0  0
  6 23  1  0  0  0  0
  6 57  1  0  0  0  0
  7 31  1  0  0  0  0
  7 34  1  0  0  0  0
  7 64  1  0  0  0  0
  8  9  1  0  0  0  0
  8 10  1  0  0  0  0
  8 11  1  0  0  0  0
  8 35  1  0  0  0  0
  9 12  1  0  0  0  0
  9 36  1  0  0  0  0
  9 37  1  0  0  0  0
 10 18  1  0  0  0  0
 10 38  1  0  0  0  0
 10 39  1  0  0  0  0
 11 19  1  0  0  0  0
 11 40  1  0  0  0  0
 11 41  1  0  0  0  0
 12 42  1  0  0  0  0
 12 43  1  0  0  0  0
 13 16  1  0  0  0  0
 13 17  1  0  0  0  0
 13 22  1  0  0  0  0
 13 44  1  0  0  0  0
 14 16  1  0  0  0  0
 14 45  1  0  0  0  0
 14 46  1  0  0  0  0
 15 17  1  0  0  0  0
 15 47  1  0  0  0  0
 15 48  1  0  0  0  0
 16 49  1  0  0  0  0
 16 50  1  0  0  0  0
 17 51  1  0  0  0  0
 17 52  1  0  0  0  0
 18 20  1  0  0  0  0
 18 53  1  0  0  0  0
 18 54  1  0  0  0  0
 19 20  2  0  0  0  0
 19 21  1  0  0  0  0
 21 23  2  0  0  0  0
 21 24  1  0  0  0  0
 22 55  1  0  0  0  0
 22 56  1  0  0  0  0
 23 25  1  0  0  0  0
 24 26  2  0  0  0  0
 24 58  1  0  0  0  0
 25 27  2  0  0  0  0
 25 59  1  0  0  0  0
 26 27  1  0  0  0  0
 27 60  1  0  0  0  0
 28 29  1  0  0  0  0
 28 30  2  0  0  0  0
 29 31  2  0  0  0  0
 30 32  1  0  0  0  0
 30 61  1  0  0  0  0
 31 33  1  0  0  0  0
 32 33  2  0  0  0  0
 32 62  1  0  0  0  0
 33 63  1  0  0  0  0
M  END
> <PUBCHEM_COMPOUND_CID>
45486825

> <PUBCHEM_COMPOUND_CANONICALIZED>
1

> <PUBCHEM_CACTVS_COMPLEXITY>
717

> <PUBCHEM_CACTVS_HBOND_ACCEPTOR>
5

> <PUBCHEM_CACTVS_HBOND_DONOR>
2

> <PUBCHEM_CACTVS_ROTATABLE_BOND>
6

> <PUBCHEM_CACTVS_SUBSKEYS>
AAADceB7MQAAAAAAAAAAAAAAAAAAAWLAAAA8YMEAAAAAAFgB9AAAHwAQAAAADQzhng4wzvPJlACoAyRiXACCiCAhIiAImSA/7JkPJuLEsZuPOirm1Bna6Aew0MMOgAAAAgACUAAQAAQEAASgAAAAAAAAAA==

> <PUBCHEM_IUPAC_OPENEYE_NAME>
7-[[1-[2-(6-fluoro-2,3,4,9-tetrahydro-1H-carbazol-3-yl)ethyl]-4-piperidyl]methoxy]-3H-1,3-benzoxazol-2-one

> <PUBCHEM_IUPAC_CAS_NAME>
7-[[1-[2-(6-fluoro-2,3,4,9-tetrahydro-1H-carbazol-3-yl)ethyl]-4-piperidinyl]methoxy]-3H-1,3-benzoxazol-2-one

> <PUBCHEM_IUPAC_NAME_MARKUP>
7-[[1-[2-(6-fluoro-2,3,4,9-tetrahydro-1<I>H</I>-carbazol-3-yl)ethyl]piperidin-4-yl]methoxy]-3<I>H</I>-1,3-benzoxazol-2-one

> <PUBCHEM_IUPAC_NAME>
7-[[1-[2-(6-fluoro-2,3,4,9-tetrahydro-1H-carbazol-3-yl)ethyl]piperidin-4-yl]methoxy]-3H-1,3-benzoxazol-2-one

> <PUBCHEM_IUPAC_SYSTEMATIC_NAME>
7-[[1-[2-(6-fluoranyl-2,3,4,9-tetrahydro-1H-carbazol-3-yl)ethyl]piperidin-4-yl]methoxy]-3H-1,3-benzoxazol-2-one

> <PUBCHEM_IUPAC_TRADITIONAL_NAME>
7-[[1-[2-(6-fluoro-2,3,4,9-tetrahydro-1H-carbazol-3-yl)ethyl]-4-piperidyl]methoxy]-3H-1,3-benzoxazol-2-one

> <PUBCHEM_IUPAC_INCHI>
InChI=1S/C27H30FN3O3/c28-19-5-7-23-21(15-19)20-14-17(4-6-22(20)29-23)8-11-31-12-9-18(10-13-31)16-33-25-3-1-2-24-26(25)34-27(32)30-24/h1-3,5,7,15,17-18,29H,4,6,8-14,16H2,(H,30,32)

> <PUBCHEM_IUPAC_INCHIKEY>
VYIBBUMRFFRMSQ-UHFFFAOYSA-N

> <PUBCHEM_XLOGP3_AA>
5.1

> <PUBCHEM_EXACT_MASS>
463.22711999

> <PUBCHEM_MOLECULAR_FORMULA>
C27H30FN3O3

> <PUBCHEM_MOLECULAR_WEIGHT>
463.5

> <PUBCHEM_OPENEYE_CAN_SMILES>
C1CC2=C(CC1CCN3CCC(CC3)COC4=CC=CC5=C4OC(=O)N5)C6=C(N2)C=CC(=C6)F

> <PUBCHEM_OPENEYE_ISO_SMILES>
C1CC2=C(CC1CCN3CCC(CC3)COC4=CC=CC5=C4OC(=O)N5)C6=C(N2)C=CC(=C6)F

> <PUBCHEM_CACTVS_TPSA>
66.6

> <PUBCHEM_MONOISOTOPIC_WEIGHT>
463.22711999

> <PUBCHEM_TOTAL_CHARGE>
0

> <PUBCHEM_HEAVY_ATOM_COUNT>
34

> <PUBCHEM_ATOM_DEF_STEREO_COUNT>
0

> <PUBCHEM_ATOM_UDEF_STEREO_COUNT>
1

> <PUBCHEM_BOND_DEF_STEREO_COUNT>
0

> <PUBCHEM_BOND_UDEF_STEREO_COUNT>
0

> <PUBCHEM_ISOTOPIC_ATOM_COUNT>
0

> <PUBCHEM_COMPONENT_COUNT>
1

> <PUBCHEM_CACTVS_TAUTO_COUNT>
-1

> <PUBCHEM_COORDINATE_TYPE>
1
5
255

> <PUBCHEM_BONDANNOTATIONS>
19  20  8
19  21  8
21  23  8
21  24  8
23  25  8
24  26  8
25  27  8
26  27  8
28  29  8
28  30  8
29  31  8
3  29  8
3  34  8
30  32  8
31  33  8
32  33  8
6  20  8
6  23  8
7  31  8
7  34  8
8  9  3

$$$$
