44415473
  -OEChem-09292322282D

 49 52  0     0  0  0  0  0  0999 V2000
    8.7204    0.1797    0.0000 Cl  0  0  0  0  0  0  0  0  0  0  0  0
    5.7490   -4.6473    0.0000 F   0  0  0  0  0  0  0  0  0  0  0  0
    6.7490   -3.6473    0.0000 F   0  0  0  0  0  0  0  0  0  0  0  0
    4.7490   -3.6473    0.0000 F   0  0  0  0  0  0  0  0  0  0  0  0
    6.6150   -2.1473    0.0000 O   0  0  0  0  0  0  0  0  0  0  0  0
    3.9491    1.9444    0.0000 N   0  0  0  0  0  0  0  0  0  0  0  0
    3.0814    3.7463    0.0000 N   0  0  0  0  0  0  0  0  0  0  0  0
    4.8830   -1.1473    0.0000 N   0  0  0  0  0  0  0  0  0  0  0  0
    5.3830    1.0434    0.0000 N   0  0  0  0  0  0  0  0  0  0  0  0
    4.8830   -2.1473    0.0000 N   0  0  0  0  0  0  0  0  0  0  0  0
    2.9519    2.0191    0.0000 C   0  0  0  0  0  0  0  0  0  0  0  0
    4.5125    2.7706    0.0000 C   0  0  0  0  0  0  0  0  0  0  0  0
    2.5180    2.9201    0.0000 C   0  0  0  0  0  0  0  0  0  0  0  0
    4.0786    3.6716    0.0000 C   0  0  0  0  0  0  0  0  0  0  0  0
    4.3830    1.0434    0.0000 C   0  0  0  0  0  0  0  0  0  0  0  0
    3.7595    0.2616    0.0000 C   0  0  0  0  0  0  0  0  0  0  0  0
    2.6475    4.6473    0.0000 C   0  0  0  0  0  0  0  0  0  0  0  0
    3.9820   -0.7134    0.0000 C   0  0  0  0  0  0  0  0  0  0  0  0
    5.7840   -0.7134    0.0000 C   0  0  0  0  0  0  0  0  0  0  0  0
    6.0065    0.2615    0.0000 C   0  0  0  0  0  0  0  0  0  0  0  0
    2.7690    0.5839    0.0000 C   0  0  0  0  0  0  0  0  0  0  0  0
    3.2295   -1.4336    0.0000 C   0  0  0  0  0  0  0  0  0  0  0  0
    2.0000   -0.1187    0.0000 C   0  0  0  0  0  0  0  0  0  0  0  0
    6.5365   -1.4336    0.0000 C   0  0  0  0  0  0  0  0  0  0  0  0
    6.9970    0.5839    0.0000 C   0  0  0  0  0  0  0  0  0  0  0  0
    2.2318   -1.1342    0.0000 C   0  0  0  0  0  0  0  0  0  0  0  0
    7.5342   -1.1342    0.0000 C   0  0  0  0  0  0  0  0  0  0  0  0
    7.7660   -0.1187    0.0000 C   0  0  0  0  0  0  0  0  0  0  0  0
    5.7490   -2.6473    0.0000 C   0  0  0  0  0  0  0  0  0  0  0  0
    5.7490   -3.6473    0.0000 C   0  0  0  0  0  0  0  0  0  0  0  0
    2.3551    1.8512    0.0000 H   0  0  0  0  0  0  0  0  0  0  0  0
    3.0137    1.4022    0.0000 H   0  0  0  0  0  0  0  0  0  0  0  0
    4.9563    2.3377    0.0000 H   0  0  0  0  0  0  0  0  0  0  0  0
    5.0159    3.1325    0.0000 H   0  0  0  0  0  0  0  0  0  0  0  0
    2.0742    3.3530    0.0000 H   0  0  0  0  0  0  0  0  0  0  0  0
    2.0146    2.5582    0.0000 H   0  0  0  0  0  0  0  0  0  0  0  0
    4.6754    3.8395    0.0000 H   0  0  0  0  0  0  0  0  0  0  0  0
    4.0168    4.2885    0.0000 H   0  0  0  0  0  0  0  0  0  0  0  0
    3.2061    4.9163    0.0000 H   0  0  0  0  0  0  0  0  0  0  0  0
    2.3785    5.2059    0.0000 H   0  0  0  0  0  0  0  0  0  0  0  0
    2.0889    4.3783    0.0000 H   0  0  0  0  0  0  0  0  0  0  0  0
    2.6380    1.1899    0.0000 H   0  0  0  0  0  0  0  0  0  0  0  0
    3.3744   -2.0364    0.0000 H   0  0  0  0  0  0  0  0  0  0  0  0
    1.4083    0.0664    0.0000 H   0  0  0  0  0  0  0  0  0  0  0  0
    6.3916   -2.0364    0.0000 H   0  0  0  0  0  0  0  0  0  0  0  0
    7.1280    1.1899    0.0000 H   0  0  0  0  0  0  0  0  0  0  0  0
    1.7789   -1.5576    0.0000 H   0  0  0  0  0  0  0  0  0  0  0  0
    4.3460   -2.4573    0.0000 H   0  0  0  0  0  0  0  0  0  0  0  0
    7.9871   -1.5577    0.0000 H   0  0  0  0  0  0  0  0  0  0  0  0
  1 28  1  0  0  0  0
  2 30  1  0  0  0  0
  3 30  1  0  0  0  0
  4 30  1  0  0  0  0
  5 29  2  0  0  0  0
  6 11  1  0  0  0  0
  6 12  1  0  0  0  0
  6 15  1  0  0  0  0
  7 13  1  0  0  0  0
  7 14  1  0  0  0  0
  7 17  1  0  0  0  0
  8 10  1  0  0  0  0
  8 18  1  0  0  0  0
  8 19  1  0  0  0  0
  9 15  2  0  0  0  0
  9 20  1  0  0  0  0
 10 29  1  0  0  0  0
 10 48  1  0  0  0  0
 11 13  1  0  0  0  0
 11 31  1  0  0  0  0
 11 32  1  0  0  0  0
 12 14  1  0  0  0  0
 12 33  1  0  0  0  0
 12 34  1  0  0  0  0
 13 35  1  0  0  0  0
 13 36  1  0  0  0  0
 14 37  1  0  0  0  0
 14 38  1  0  0  0  0
 15 16  1  0  0  0  0
 16 18  1  0  0  0  0
 16 21  2  0  0  0  0
 17 39  1  0  0  0  0
 17 40  1  0  0  0  0
 17 41  1  0  0  0  0
 18 22  2  0  0  0  0
 19 20  2  0  0  0  0
 19 24  1  0  0  0  0
 20 25  1  0  0  0  0
 21 23  1  0  0  0  0
 21 42  1  0  0  0  0
 22 26  1  0  0  0  0
 22 43  1  0  0  0  0
 23 26  2  0  0  0  0
 23 44  1  0  0  0  0
 24 27  2  0  0  0  0
 24 45  1  0  0  0  0
 25 28  2  0  0  0  0
 25 46  1  0  0  0  0
 26 47  1  0  0  0  0
 27 28  1  0  0  0  0
 27 49  1  0  0  0  0
 29 30  1  0  0  0  0
M  END
> <PUBCHEM_COMPOUND_CID>
44415473

> <PUBCHEM_COMPOUND_CANONICALIZED>
1

> <PUBCHEM_CACTVS_COMPLEXITY>
667

> <PUBCHEM_CACTVS_HBOND_ACCEPTOR>
7

> <PUBCHEM_CACTVS_HBOND_DONOR>
1

> <PUBCHEM_CACTVS_ROTATABLE_BOND>
2

> <PUBCHEM_CACTVS_SUBSKEYS>
AAADceB7oYAEAAAAAAAAAAAAAAAAAAAAAAA8YIAABAAAAAABQAAAHwIYAAAADArBmDQzwINiAACoAidydACCBAEhBwAbqAAodpgIYOLB25GUIAhggADIyAcQgAAOAABAAAICACAAAIAABAQAQAAAAAAAAA==

> <PUBCHEM_IUPAC_OPENEYE_NAME>
N-[3-chloro-6-(4-methylpiperazin-1-yl)benzo[b][1,4]benzodiazepin-11-yl]-2,2,2-trifluoro-acetamide

> <PUBCHEM_IUPAC_CAS_NAME>
N-[3-chloro-6-(4-methyl-1-piperazinyl)-11-benzo[b][1,4]benzodiazepinyl]-2,2,2-trifluoroacetamide

> <PUBCHEM_IUPAC_NAME_MARKUP>
<I>N</I>-[3-chloro-6-(4-methylpiperazin-1-yl)benzo[b][1,4]benzodiazepin-11-yl]-2,2,2-trifluoroacetamide

> <PUBCHEM_IUPAC_NAME>
N-[3-chloro-6-(4-methylpiperazin-1-yl)benzo[b][1,4]benzodiazepin-11-yl]-2,2,2-trifluoroacetamide

> <PUBCHEM_IUPAC_SYSTEMATIC_NAME>
N-[3-chloranyl-6-(4-methylpiperazin-1-yl)benzo[b][1,4]benzodiazepin-11-yl]-2,2,2-tris(fluoranyl)ethanamide

> <PUBCHEM_IUPAC_TRADITIONAL_NAME>
N-[3-chloro-6-(4-methylpiperazino)benzo[b][1,4]benzodiazepin-11-yl]-2,2,2-trifluoro-acetamide

> <PUBCHEM_IUPAC_INCHI>
InChI=1S/C20H19ClF3N5O/c1-27-8-10-28(11-9-27)18-14-4-2-3-5-16(14)29(26-19(30)20(22,23)24)17-7-6-13(21)12-15(17)25-18/h2-7,12H,8-11H2,1H3,(H,26,30)

> <PUBCHEM_IUPAC_INCHIKEY>
UISZGTKWUGURNK-UHFFFAOYSA-N

> <PUBCHEM_XLOGP3_AA>
3.8

> <PUBCHEM_EXACT_MASS>
437.1230224

> <PUBCHEM_MOLECULAR_FORMULA>
C20H19ClF3N5O

> <PUBCHEM_MOLECULAR_WEIGHT>
437.8

> <PUBCHEM_OPENEYE_CAN_SMILES>
CN1CCN(CC1)C2=NC3=C(C=CC(=C3)Cl)N(C4=CC=CC=C42)NC(=O)C(F)(F)F

> <PUBCHEM_OPENEYE_ISO_SMILES>
CN1CCN(CC1)C2=NC3=C(C=CC(=C3)Cl)N(C4=CC=CC=C42)NC(=O)C(F)(F)F

> <PUBCHEM_CACTVS_TPSA>
51.2

> <PUBCHEM_MONOISOTOPIC_WEIGHT>
437.1230224

> <PUBCHEM_TOTAL_CHARGE>
0

> <PUBCHEM_HEAVY_ATOM_COUNT>
30

> <PUBCHEM_ATOM_DEF_STEREO_COUNT>
0

> <PUBCHEM_ATOM_UDEF_STEREO_COUNT>
0

> <PUBCHEM_BOND_DEF_STEREO_COUNT>
0

> <PUBCHEM_BOND_UDEF_STEREO_COUNT>
0

> <PUBCHEM_ISOTOPIC_ATOM_COUNT>
0

> <PUBCHEM_COMPONENT_COUNT>
1

> <PUBCHEM_CACTVS_TAUTO_COUNT>
-1

> <PUBCHEM_COORDINATE_TYPE>
1
5
255

> <PUBCHEM_BONDANNOTATIONS>
16  18  8
16  21  8
18  22  8
19  20  8
19  24  8
20  25  8
21  23  8
22  26  8
23  26  8
24  27  8
25  28  8
27  28  8

$$$$
