23631454
  -OEChem-09292322252D

 62 66  0     1  0  0  0  0  0999 V2000
    2.0000   -3.8645    0.0000 Cl  0  0  0  0  0  0  0  0  0  0  0  0
    7.7749   -1.0134    0.0000 S   0  0  0  0  0  0  0  0  0  0  0  0
   17.2110    2.0853    0.0000 O   0  0  0  0  0  0  0  0  0  0  0  0
   10.7749    0.7187    0.0000 N   0  0  3  0  0  0  0  0  0  0  0  0
   16.5448    1.3396    0.0000 N   0  0  0  0  0  0  0  0  0  0  0  0
    6.1871   -1.8224    0.0000 N   0  0  0  0  0  0  0  0  0  0  0  0
    6.1871   -0.2044    0.0000 N   0  0  0  0  0  0  0  0  0  0  0  0
    5.2361   -0.5134    0.0000 N   0  0  0  0  0  0  0  0  0  0  0  0
   11.2088    1.6196    0.0000 C   0  0  0  0  0  0  0  0  0  0  0  0
   11.2088   -0.1823    0.0000 C   0  0  0  0  0  0  0  0  0  0  0  0
   12.1837    1.8422    0.0000 C   0  0  0  0  0  0  0  0  0  0  0  0
   12.1837   -0.4048    0.0000 C   0  0  0  0  0  0  0  0  0  0  0  0
   12.9656    1.2187    0.0000 C   0  0  0  0  0  0  0  0  0  0  0  0
   12.9656    0.2187    0.0000 C   0  0  0  0  0  0  0  0  0  0  0  0
    9.7749    0.7187    0.0000 C   0  0  0  0  0  0  0  0  0  0  0  0
    9.2749   -0.1474    0.0000 C   0  0  0  0  0  0  0  0  0  0  0  0
   13.8595    1.7533    0.0000 C   0  0  0  0  0  0  0  0  0  0  0  0
   13.8595   -0.3160    0.0000 C   0  0  0  0  0  0  0  0  0  0  0  0
   14.7656    1.2395    0.0000 C   0  0  0  0  0  0  0  0  0  0  0  0
    8.2749   -0.1474    0.0000 C   0  0  0  0  0  0  0  0  0  0  0  0
   14.7656    0.1979    0.0000 C   0  0  0  0  0  0  0  0  0  0  0  0
   15.6297    1.7428    0.0000 C   0  0  0  0  0  0  0  0  0  0  0  0
   15.7303    2.7377    0.0000 C   0  0  0  0  0  0  0  0  0  0  0  0
    6.7749   -1.0134    0.0000 C   0  0  0  0  0  0  0  0  0  0  0  0
   16.7077    2.9494    0.0000 C   0  0  0  0  0  0  0  0  0  0  0  0
    5.2361   -1.5134    0.0000 C   0  0  0  0  0  0  0  0  0  0  0  0
    6.4961   -2.7735    0.0000 C   0  0  0  0  0  0  0  0  0  0  0  0
    4.4271   -2.1012    0.0000 C   0  0  0  0  0  0  0  0  0  0  0  0
   17.1109    3.8645    0.0000 C   0  0  0  0  0  0  0  0  0  0  0  0
    3.5135   -1.6944    0.0000 C   0  0  0  0  0  0  0  0  0  0  0  0
    4.5316   -3.0957    0.0000 C   0  0  0  0  0  0  0  0  0  0  0  0
    2.7045   -2.2822    0.0000 C   0  0  0  0  0  0  0  0  0  0  0  0
    3.7226   -3.6835    0.0000 C   0  0  0  0  0  0  0  0  0  0  0  0
    2.8090   -3.2767    0.0000 C   0  0  0  0  0  0  0  0  0  0  0  0
   11.2088    2.2396    0.0000 H   0  0  0  0  0  0  0  0  0  0  0  0
   10.6043    1.7576    0.0000 H   0  0  0  0  0  0  0  0  0  0  0  0
   10.6043   -0.3203    0.0000 H   0  0  0  0  0  0  0  0  0  0  0  0
   11.2088   -0.8023    0.0000 H   0  0  0  0  0  0  0  0  0  0  0  0
   12.6685    2.2287    0.0000 H   0  0  0  0  0  0  0  0  0  0  0  0
   11.9147    2.4008    0.0000 H   0  0  0  0  0  0  0  0  0  0  0  0
   11.9147   -0.9634    0.0000 H   0  0  0  0  0  0  0  0  0  0  0  0
   12.6685   -0.7914    0.0000 H   0  0  0  0  0  0  0  0  0  0  0  0
    9.8826    1.3292    0.0000 H   0  0  0  0  0  0  0  0  0  0  0  0
    9.1923    0.9307    0.0000 H   0  0  0  0  0  0  0  0  0  0  0  0
    9.1672   -0.7579    0.0000 H   0  0  0  0  0  0  0  0  0  0  0  0
    9.8575   -0.3594    0.0000 H   0  0  0  0  0  0  0  0  0  0  0  0
   13.8523    2.3733    0.0000 H   0  0  0  0  0  0  0  0  0  0  0  0
   13.8523   -0.9360    0.0000 H   0  0  0  0  0  0  0  0  0  0  0  0
    8.3826    0.4632    0.0000 H   0  0  0  0  0  0  0  0  0  0  0  0
    7.6923    0.0647    0.0000 H   0  0  0  0  0  0  0  0  0  0  0  0
   15.3013   -0.1142    0.0000 H   0  0  0  0  0  0  0  0  0  0  0  0
   15.2680    3.1508    0.0000 H   0  0  0  0  0  0  0  0  0  0  0  0
    5.9065   -2.9651    0.0000 H   0  0  0  0  0  0  0  0  0  0  0  0
    6.6877   -3.3631    0.0000 H   0  0  0  0  0  0  0  0  0  0  0  0
    7.0858   -2.5819    0.0000 H   0  0  0  0  0  0  0  0  0  0  0  0
   17.6783    3.6145    0.0000 H   0  0  0  0  0  0  0  0  0  0  0  0
   17.3609    4.4319    0.0000 H   0  0  0  0  0  0  0  0  0  0  0  0
   16.5435    4.1145    0.0000 H   0  0  0  0  0  0  0  0  0  0  0  0
    3.4487   -1.0778    0.0000 H   0  0  0  0  0  0  0  0  0  0  0  0
    5.0980   -3.3479    0.0000 H   0  0  0  0  0  0  0  0  0  0  0  0
    2.1381   -2.0300    0.0000 H   0  0  0  0  0  0  0  0  0  0  0  0
    3.7874   -4.3001    0.0000 H   0  0  0  0  0  0  0  0  0  0  0  0
  1 34  1  0  0  0  0
  2 20  1  0  0  0  0
  2 24  1  0  0  0  0
  3  5  1  0  0  0  0
  3 25  1  0  0  0  0
  4  9  1  0  0  0  0
  4 10  1  0  0  0  0
  4 15  1  0  0  0  0
  5 22  2  0  0  0  0
  6 24  1  0  0  0  0
  6 26  1  0  0  0  0
  6 27  1  0  0  0  0
  7  8  1  0  0  0  0
  7 24  2  0  0  0  0
  8 26  2  0  0  0  0
  9 11  1  0  0  0  0
  9 35  1  0  0  0  0
  9 36  1  0  0  0  0
 10 12  1  0  0  0  0
 10 37  1  0  0  0  0
 10 38  1  0  0  0  0
 11 13  1  0  0  0  0
 11 39  1  0  0  0  0
 11 40  1  0  0  0  0
 12 14  1  0  0  0  0
 12 41  1  0  0  0  0
 12 42  1  0  0  0  0
 13 14  2  0  0  0  0
 13 17  1  0  0  0  0
 14 18  1  0  0  0  0
 15 16  1  0  0  0  0
 15 43  1  0  0  0  0
 15 44  1  0  0  0  0
 16 20  1  0  0  0  0
 16 45  1  0  0  0  0
 16 46  1  0  0  0  0
 17 19  2  0  0  0  0
 17 47  1  0  0  0  0
 18 21  2  0  0  0  0
 18 48  1  0  0  0  0
 19 21  1  0  0  0  0
 19 22  1  0  0  0  0
 20 49  1  0  0  0  0
 20 50  1  0  0  0  0
 21 51  1  0  0  0  0
 22 23  1  0  0  0  0
 23 25  2  0  0  0  0
 23 52  1  0  0  0  0
 25 29  1  0  0  0  0
 26 28  1  0  0  0  0
 27 53  1  0  0  0  0
 27 54  1  0  0  0  0
 27 55  1  0  0  0  0
 28 30  2  0  0  0  0
 28 31  1  0  0  0  0
 29 56  1  0  0  0  0
 29 57  1  0  0  0  0
 29 58  1  0  0  0  0
 30 32  1  0  0  0  0
 30 59  1  0  0  0  0
 31 33  2  0  0  0  0
 31 60  1  0  0  0  0
 32 34  2  0  0  0  0
 32 61  1  0  0  0  0
 33 34  1  0  0  0  0
 33 62  1  0  0  0  0
M  END
> <PUBCHEM_COMPOUND_CID>
23631454

> <PUBCHEM_COMPOUND_CANONICALIZED>
1

> <PUBCHEM_CACTVS_COMPLEXITY>
638

> <PUBCHEM_CACTVS_HBOND_ACCEPTOR>
6

> <PUBCHEM_CACTVS_HBOND_DONOR>
0

> <PUBCHEM_CACTVS_ROTATABLE_BOND>
7

> <PUBCHEM_CACTVS_SUBSKEYS>
AAADceB7oABEAAAAAAAAAAAAAAAAAWLAAAAwYAAABYAAAAAB9AAAHgYMAAAADA7F3ySzlJccEAirA6ZyZgCS0AtkJ7A92CE+btqILrqhm5OEMYhmiBqIyUeYyOCOxAACAAAQAACIAAQAACAAAAAAAAAAAA==

> <PUBCHEM_IUPAC_OPENEYE_NAME>
3-[3-[3-[[5-(4-chlorophenyl)-4-methyl-1,2,4-triazol-3-yl]sulfanyl]propyl]-1,2,4,5-tetrahydro-3-benzazepin-7-yl]-5-methyl-isoxazole

> <PUBCHEM_IUPAC_CAS_NAME>
3-[3-[3-[[5-(4-chlorophenyl)-4-methyl-1,2,4-triazol-3-yl]thio]propyl]-1,2,4,5-tetrahydro-3-benzazepin-7-yl]-5-methylisoxazole

> <PUBCHEM_IUPAC_NAME_MARKUP>
3-[3-[3-[[5-(4-chlorophenyl)-4-methyl-1,2,4-triazol-3-yl]sulfanyl]propyl]-1,2,4,5-tetrahydro-3-benzazepin-7-yl]-5-methyl-1,2-oxazole

> <PUBCHEM_IUPAC_NAME>
3-[3-[3-[[5-(4-chlorophenyl)-4-methyl-1,2,4-triazol-3-yl]sulfanyl]propyl]-1,2,4,5-tetrahydro-3-benzazepin-7-yl]-5-methyl-1,2-oxazole

> <PUBCHEM_IUPAC_SYSTEMATIC_NAME>
3-[3-[3-[[5-(4-chlorophenyl)-4-methyl-1,2,4-triazol-3-yl]sulfanyl]propyl]-1,2,4,5-tetrahydro-3-benzazepin-7-yl]-5-methyl-1,2-oxazole

> <PUBCHEM_IUPAC_TRADITIONAL_NAME>
3-[3-[3-[[5-(4-chlorophenyl)-4-methyl-1,2,4-triazol-3-yl]thio]propyl]-1,2,4,5-tetrahydro-3-benzazepin-7-yl]-5-methyl-isoxazole

> <PUBCHEM_IUPAC_INCHI>
InChI=1S/C26H28ClN5OS/c1-18-16-24(30-33-18)22-5-4-19-10-13-32(14-11-21(19)17-22)12-3-15-34-26-29-28-25(31(26)2)20-6-8-23(27)9-7-20/h4-9,16-17H,3,10-15H2,1-2H3

> <PUBCHEM_IUPAC_INCHIKEY>
LOGDXDWDCZTLOS-UHFFFAOYSA-N

> <PUBCHEM_XLOGP3_AA>
5.5

> <PUBCHEM_EXACT_MASS>
493.1703094

> <PUBCHEM_MOLECULAR_FORMULA>
C26H28ClN5OS

> <PUBCHEM_MOLECULAR_WEIGHT>
494.1

> <PUBCHEM_OPENEYE_CAN_SMILES>
CC1=CC(=NO1)C2=CC3=C(CCN(CC3)CCCSC4=NN=C(N4C)C5=CC=C(C=C5)Cl)C=C2

> <PUBCHEM_OPENEYE_ISO_SMILES>
CC1=CC(=NO1)C2=CC3=C(CCN(CC3)CCCSC4=NN=C(N4C)C5=CC=C(C=C5)Cl)C=C2

> <PUBCHEM_CACTVS_TPSA>
85.3

> <PUBCHEM_MONOISOTOPIC_WEIGHT>
493.1703094

> <PUBCHEM_TOTAL_CHARGE>
0

> <PUBCHEM_HEAVY_ATOM_COUNT>
34

> <PUBCHEM_ATOM_DEF_STEREO_COUNT>
0

> <PUBCHEM_ATOM_UDEF_STEREO_COUNT>
0

> <PUBCHEM_BOND_DEF_STEREO_COUNT>
0

> <PUBCHEM_BOND_UDEF_STEREO_COUNT>
0

> <PUBCHEM_ISOTOPIC_ATOM_COUNT>
0

> <PUBCHEM_COMPONENT_COUNT>
1

> <PUBCHEM_CACTVS_TAUTO_COUNT>
-1

> <PUBCHEM_COORDINATE_TYPE>
1
5
255

> <PUBCHEM_BONDANNOTATIONS>
13  14  8
13  17  8
14  18  8
17  19  8
18  21  8
19  21  8
22  23  8
23  25  8
28  30  8
28  31  8
3  25  8
3  5  8
30  32  8
31  33  8
32  34  8
33  34  8
5  22  8
6  24  8
6  26  8
7  24  8
7  8  8
8  26  8

$$$$
