70686495
  -OEChem-09292322332D

 59 62  0     1  0  0  0  0  0999 V2000
    7.5732   -3.6153    0.0000 Br  0  0  0  0  0  0  0  0  0  0  0  0
    3.9329    3.1760    0.0000 O   0  0  0  0  0  0  0  0  0  0  0  0
    6.9249    0.9979    0.0000 N   0  0  3  0  0  0  0  0  0  0  0  0
    3.6721   -0.2148    0.0000 N   0  0  0  0  0  0  0  0  0  0  0  0
    5.3860    0.4979    0.0000 C   0  0  2  0  0  0  0  0  0  0  0  0
    5.3860    1.4979    0.0000 C   0  0  1  0  0  0  0  0  0  0  0  0
    4.3778    0.4938    0.0000 C   0  0  1  0  0  0  0  0  0  0  0  0
    4.3778    1.5021    0.0000 C   0  0  1  0  0  0  0  0  0  0  0  0
    6.3371    0.1889    0.0000 C   0  0  1  0  0  0  0  0  0  0  0  0
    6.3371    1.8069    0.0000 C   0  0  0  0  0  0  0  0  0  0  0  0
    3.6721    2.2106    0.0000 C   0  0  0  0  0  0  0  0  0  0  0  0
    6.6461   -0.7622    0.0000 C   0  0  0  0  0  0  0  0  0  0  0  0
    7.9249    0.9979    0.0000 C   0  0  0  0  0  0  0  0  0  0  0  0
    2.7056    0.0421    0.0000 C   0  0  0  0  0  0  0  0  0  0  0  0
    3.9329   -1.1802    0.0000 C   0  0  0  0  0  0  0  0  0  0  0  0
    7.6243   -0.9701    0.0000 C   0  0  0  0  0  0  0  0  0  0  0  0
    5.9770   -1.5053    0.0000 C   0  0  0  0  0  0  0  0  0  0  0  0
    8.4249    1.8640    0.0000 C   0  0  0  0  0  0  0  0  0  0  0  0
    2.0000   -0.6665    0.0000 C   0  0  0  0  0  0  0  0  0  0  0  0
    3.2273   -1.8887    0.0000 C   0  0  0  0  0  0  0  0  0  0  0  0
    7.9333   -1.9211    0.0000 C   0  0  0  0  0  0  0  0  0  0  0  0
    6.2860   -2.4564    0.0000 C   0  0  0  0  0  0  0  0  0  0  0  0
    9.4249    1.8640    0.0000 C   0  0  0  0  0  0  0  0  0  0  0  0
    7.9249    2.7300    0.0000 C   0  0  0  0  0  0  0  0  0  0  0  0
    7.2642   -2.6643    0.0000 C   0  0  0  0  0  0  0  0  0  0  0  0
    9.9249    2.7300    0.0000 C   0  0  0  0  0  0  0  0  0  0  0  0
    8.4249    3.5960    0.0000 C   0  0  0  0  0  0  0  0  0  0  0  0
    9.4249    3.5960    0.0000 C   0  0  0  0  0  0  0  0  0  0  0  0
    5.2548   -0.3419    0.0000 H   0  0  0  0  0  0  0  0  0  0  0  0
    5.2548    2.3377    0.0000 H   0  0  0  0  0  0  0  0  0  0  0  0
    4.6168   -0.0783    0.0000 H   0  0  0  0  0  0  0  0  0  0  0  0
    4.6168    2.0741    0.0000 H   0  0  0  0  0  0  0  0  0  0  0  0
    6.9495    0.0919    0.0000 H   0  0  0  0  0  0  0  0  0  0  0  0
    6.8740    2.1169    0.0000 H   0  0  0  0  0  0  0  0  0  0  0  0
    6.0849    2.3733    0.0000 H   0  0  0  0  0  0  0  0  0  0  0  0
    3.1107    2.4738    0.0000 H   0  0  0  0  0  0  0  0  0  0  0  0
    3.3154    1.7035    0.0000 H   0  0  0  0  0  0  0  0  0  0  0  0
    7.8172    0.3873    0.0000 H   0  0  0  0  0  0  0  0  0  0  0  0
    8.5075    0.7859    0.0000 H   0  0  0  0  0  0  0  0  0  0  0  0
    2.9665    0.6045    0.0000 H   0  0  0  0  0  0  0  0  0  0  0  0
    2.1970    0.3966    0.0000 H   0  0  0  0  0  0  0  0  0  0  0  0
    4.2896   -1.6873    0.0000 H   0  0  0  0  0  0  0  0  0  0  0  0
    4.4943   -0.9170    0.0000 H   0  0  0  0  0  0  0  0  0  0  0  0
    3.4954    3.6153    0.0000 H   0  0  0  0  0  0  0  0  0  0  0  0
    8.0391   -0.5093    0.0000 H   0  0  0  0  0  0  0  0  0  0  0  0
    5.3705   -1.3764    0.0000 H   0  0  0  0  0  0  0  0  0  0  0  0
    1.5607   -0.2290    0.0000 H   0  0  0  0  0  0  0  0  0  0  0  0
    1.5625   -1.1058    0.0000 H   0  0  0  0  0  0  0  0  0  0  0  0
    2.4393   -1.1040    0.0000 H   0  0  0  0  0  0  0  0  0  0  0  0
    2.7880   -1.4512    0.0000 H   0  0  0  0  0  0  0  0  0  0  0  0
    2.7898   -2.3280    0.0000 H   0  0  0  0  0  0  0  0  0  0  0  0
    3.6666   -2.3262    0.0000 H   0  0  0  0  0  0  0  0  0  0  0  0
    8.5397   -2.0500    0.0000 H   0  0  0  0  0  0  0  0  0  0  0  0
    5.8711   -2.9171    0.0000 H   0  0  0  0  0  0  0  0  0  0  0  0
    9.7349    1.3270    0.0000 H   0  0  0  0  0  0  0  0  0  0  0  0
    7.3049    2.7300    0.0000 H   0  0  0  0  0  0  0  0  0  0  0  0
   10.5449    2.7300    0.0000 H   0  0  0  0  0  0  0  0  0  0  0  0
    8.1149    4.1329    0.0000 H   0  0  0  0  0  0  0  0  0  0  0  0
    9.7349    4.1329    0.0000 H   0  0  0  0  0  0  0  0  0  0  0  0
  1 25  1  0  0  0  0
  2 11  1  0  0  0  0
  2 44  1  0  0  0  0
  3  9  1  0  0  0  0
  3 10  1  0  0  0  0
  3 13  1  0  0  0  0
  7  4  1  6  0  0  0
  4 14  1  0  0  0  0
  4 15  1  0  0  0  0
  5  6  1  0  0  0  0
  5  7  1  0  0  0  0
  5  9  1  0  0  0  0
  5 29  1  6  0  0  0
  6  8  1  0  0  0  0
  6 10  1  0  0  0  0
  6 30  1  6  0  0  0
  7  8  1  0  0  0  0
  7 31  1  0  0  0  0
  8 11  1  1  0  0  0
  8 32  1  0  0  0  0
  9 12  1  6  0  0  0
  9 33  1  0  0  0  0
 10 34  1  0  0  0  0
 10 35  1  0  0  0  0
 11 36  1  0  0  0  0
 11 37  1  0  0  0  0
 12 16  2  0  0  0  0
 12 17  1  0  0  0  0
 13 18  1  0  0  0  0
 13 38  1  0  0  0  0
 13 39  1  0  0  0  0
 14 19  1  0  0  0  0
 14 40  1  0  0  0  0
 14 41  1  0  0  0  0
 15 20  1  0  0  0  0
 15 42  1  0  0  0  0
 15 43  1  0  0  0  0
 16 21  1  0  0  0  0
 16 45  1  0  0  0  0
 17 22  2  0  0  0  0
 17 46  1  0  0  0  0
 18 23  2  0  0  0  0
 18 24  1  0  0  0  0
 19 47  1  0  0  0  0
 19 48  1  0  0  0  0
 19 49  1  0  0  0  0
 20 50  1  0  0  0  0
 20 51  1  0  0  0  0
 20 52  1  0  0  0  0
 21 25  2  0  0  0  0
 21 53  1  0  0  0  0
 22 25  1  0  0  0  0
 22 54  1  0  0  0  0
 23 26  1  0  0  0  0
 23 55  1  0  0  0  0
 24 27  2  0  0  0  0
 24 56  1  0  0  0  0
 26 28  2  0  0  0  0
 26 57  1  0  0  0  0
 27 28  1  0  0  0  0
 27 58  1  0  0  0  0
 28 59  1  0  0  0  0
M  END
> <PUBCHEM_COMPOUND_CID>
70686495

> <PUBCHEM_COMPOUND_CANONICALIZED>
1

> <PUBCHEM_CACTVS_COMPLEXITY>
485

> <PUBCHEM_CACTVS_HBOND_ACCEPTOR>
3

> <PUBCHEM_CACTVS_HBOND_DONOR>
1

> <PUBCHEM_CACTVS_ROTATABLE_BOND>
7

> <PUBCHEM_CACTVS_SUBSKEYS>
AAADceB7IAAAEAAAAAAAAAAAAABgAWAAAAAwYAAABYAAAAABQAAAHgBACAABrSjhmAYyAIMAAgCAAiBCAACCAAAgAAQIiAAIBKgIMCKA0RGEYAhmgACIihew0OMOggAAAAAAAAAEAAAAAAAAAAAAAAAAAA==

> <PUBCHEM_IUPAC_OPENEYE_NAME>
[(1R,2S,5S,6S,7S)-3-benzyl-2-(4-bromophenyl)-7-(diethylamino)-3-azabicyclo[3.2.0]heptan-6-yl]methanol

> <PUBCHEM_IUPAC_CAS_NAME>
[(1R,2S,5S,6S,7S)-2-(4-bromophenyl)-7-(diethylamino)-3-(phenylmethyl)-3-azabicyclo[3.2.0]heptan-6-yl]methanol

> <PUBCHEM_IUPAC_NAME_MARKUP>
[(1<I>R</I>,2<I>S</I>,5<I>S</I>,6<I>S</I>,7<I>S</I>)-3-benzyl-2-(4-bromophenyl)-7-(diethylamino)-3-azabicyclo[3.2.0]heptan-6-yl]methanol

> <PUBCHEM_IUPAC_NAME>
[(1R,2S,5S,6S,7S)-3-benzyl-2-(4-bromophenyl)-7-(diethylamino)-3-azabicyclo[3.2.0]heptan-6-yl]methanol

> <PUBCHEM_IUPAC_SYSTEMATIC_NAME>
[(1R,2S,5S,6S,7S)-2-(4-bromophenyl)-7-(diethylamino)-3-(phenylmethyl)-3-azabicyclo[3.2.0]heptan-6-yl]methanol

> <PUBCHEM_IUPAC_TRADITIONAL_NAME>
[(1R,2S,5S,6S,7S)-3-benzyl-2-(4-bromophenyl)-7-(diethylamino)-3-azabicyclo[3.2.0]heptan-6-yl]methanol

> <PUBCHEM_IUPAC_INCHI>
InChI=1S/C24H31BrN2O/c1-3-26(4-2)24-21(16-28)20-15-27(14-17-8-6-5-7-9-17)23(22(20)24)18-10-12-19(25)13-11-18/h5-13,20-24,28H,3-4,14-16H2,1-2H3/t20-,21+,22+,23-,24-/m1/s1

> <PUBCHEM_IUPAC_INCHIKEY>
SHPCAECDGCBRNC-OYTPZHDJSA-N

> <PUBCHEM_XLOGP3_AA>
4.4

> <PUBCHEM_EXACT_MASS>
442.16198

> <PUBCHEM_MOLECULAR_FORMULA>
C24H31BrN2O

> <PUBCHEM_MOLECULAR_WEIGHT>
443.4

> <PUBCHEM_OPENEYE_CAN_SMILES>
CCN(CC)C1C(C2C1C(N(C2)CC3=CC=CC=C3)C4=CC=C(C=C4)Br)CO

> <PUBCHEM_OPENEYE_ISO_SMILES>
CCN(CC)[C@@H]1[C@H]([C@@H]2[C@H]1[C@H](N(C2)CC3=CC=CC=C3)C4=CC=C(C=C4)Br)CO

> <PUBCHEM_CACTVS_TPSA>
26.7

> <PUBCHEM_MONOISOTOPIC_WEIGHT>
442.16198

> <PUBCHEM_TOTAL_CHARGE>
0

> <PUBCHEM_HEAVY_ATOM_COUNT>
28

> <PUBCHEM_ATOM_DEF_STEREO_COUNT>
5

> <PUBCHEM_ATOM_UDEF_STEREO_COUNT>
0

> <PUBCHEM_BOND_DEF_STEREO_COUNT>
0

> <PUBCHEM_BOND_UDEF_STEREO_COUNT>
0

> <PUBCHEM_ISOTOPIC_ATOM_COUNT>
0

> <PUBCHEM_COMPONENT_COUNT>
1

> <PUBCHEM_CACTVS_TAUTO_COUNT>
-1

> <PUBCHEM_COORDINATE_TYPE>
1
5
255

> <PUBCHEM_BONDANNOTATIONS>
12  16  8
12  17  8
16  21  8
17  22  8
18  23  8
18  24  8
21  25  8
22  25  8
23  26  8
24  27  8
26  28  8
27  28  8
7  4  6
5  29  6
6  30  6
8  11  5
9  12  6

$$$$
