156011233
  -OEChem-09292322422D

 47 50  0     1  0  0  0  0  0999 V2000
    5.1804    1.1224    0.0000 O   0  0  0  0  0  0  0  0  0  0  0  0
    6.9464    2.1602    0.0000 O   0  0  0  0  0  0  0  0  0  0  0  0
    7.7925   -2.4060    0.0000 N   0  0  3  0  0  0  0  0  0  0  0  0
    2.5381   -0.3849    0.0000 N   0  0  0  0  0  0  0  0  0  0  0  0
    6.9343   -1.9091    0.0000 C   0  0  3  0  0  0  0  0  0  0  0  0
    6.9343   -0.9091    0.0000 C   0  0  0  0  0  0  0  0  0  0  0  0
    6.0682   -2.4091    0.0000 C   0  0  0  0  0  0  0  0  0  0  0  0
    7.8443   -0.4022    0.0000 C   0  0  0  0  0  0  0  0  0  0  0  0
    8.6580   -1.9218    0.0000 C   0  0  0  0  0  0  0  0  0  0  0  0
    6.0682   -0.4091    0.0000 C   0  0  0  0  0  0  0  0  0  0  0  0
    8.6836   -0.9305    0.0000 C   0  0  0  0  0  0  0  0  0  0  0  0
    5.2022   -1.9091    0.0000 C   0  0  0  0  0  0  0  0  0  0  0  0
    5.2022   -0.9091    0.0000 C   0  0  0  0  0  0  0  0  0  0  0  0
    6.0522    0.6324    0.0000 C   0  0  0  0  0  0  0  0  0  0  0  0
    7.8523    0.6394    0.0000 C   0  0  0  0  0  0  0  0  0  0  0  0
    7.7851   -3.4060    0.0000 C   0  0  0  0  0  0  0  0  0  0  0  0
    6.9502    1.1602    0.0000 C   0  0  0  0  0  0  0  0  0  0  0  0
    4.3083   -2.4437    0.0000 C   0  0  0  0  0  0  0  0  0  0  0  0
    4.3083   -0.3744    0.0000 C   0  0  0  0  0  0  0  0  0  0  0  0
    3.4022   -0.8883    0.0000 C   0  0  0  0  0  0  0  0  0  0  0  0
    3.4022   -1.9299    0.0000 C   0  0  0  0  0  0  0  0  0  0  0  0
    5.1689    2.1223    0.0000 C   0  0  0  0  0  0  0  0  0  0  0  0
    7.8105    2.6635    0.0000 C   0  0  0  0  0  0  0  0  0  0  0  0
    4.2971    2.6123    0.0000 C   0  0  0  0  0  0  0  0  0  0  0  0
    3.4254    3.1022    0.0000 C   0  0  0  0  0  0  0  0  0  0  0  0
    6.9339   -2.5291    0.0000 H   0  0  0  0  0  0  0  0  0  0  0  0
    5.6697   -2.8840    0.0000 H   0  0  0  0  0  0  0  0  0  0  0  0
    6.4668   -2.8840    0.0000 H   0  0  0  0  0  0  0  0  0  0  0  0
    8.8597   -2.5081    0.0000 H   0  0  0  0  0  0  0  0  0  0  0  0
    9.2708   -1.8275    0.0000 H   0  0  0  0  0  0  0  0  0  0  0  0
    9.2907   -1.0564    0.0000 H   0  0  0  0  0  0  0  0  0  0  0  0
    8.9154   -0.3554    0.0000 H   0  0  0  0  0  0  0  0  0  0  0  0
    8.3904    0.9473    0.0000 H   0  0  0  0  0  0  0  0  0  0  0  0
    7.1651   -3.4014    0.0000 H   0  0  0  0  0  0  0  0  0  0  0  0
    7.7805   -4.0260    0.0000 H   0  0  0  0  0  0  0  0  0  0  0  0
    8.4051   -3.4106    0.0000 H   0  0  0  0  0  0  0  0  0  0  0  0
    4.3154   -3.0637    0.0000 H   0  0  0  0  0  0  0  0  0  0  0  0
    4.3154    0.2455    0.0000 H   0  0  0  0  0  0  0  0  0  0  0  0
    2.8665   -2.2420    0.0000 H   0  0  0  0  0  0  0  0  0  0  0  0
    5.7807    2.0217    0.0000 H   0  0  0  0  0  0  0  0  0  0  0  0
    5.3742    2.7073    0.0000 H   0  0  0  0  0  0  0  0  0  0  0  0
    2.0000   -0.6929    0.0000 H   0  0  0  0  0  0  0  0  0  0  0  0
    2.5405    0.2351    0.0000 H   0  0  0  0  0  0  0  0  0  0  0  0
    8.1225    2.1278    0.0000 H   0  0  0  0  0  0  0  0  0  0  0  0
    8.3462    2.9756    0.0000 H   0  0  0  0  0  0  0  0  0  0  0  0
    7.4984    3.1992    0.0000 H   0  0  0  0  0  0  0  0  0  0  0  0
    2.8849    3.4060    0.0000 H   0  0  0  0  0  0  0  0  0  0  0  0
  1 14  1  0  0  0  0
  1 22  1  0  0  0  0
  2 17  1  0  0  0  0
  2 23  1  0  0  0  0
  3  5  1  0  0  0  0
  3  9  1  0  0  0  0
  3 16  1  0  0  0  0
  4 20  1  0  0  0  0
  4 42  1  0  0  0  0
  4 43  1  0  0  0  0
  5  6  1  0  0  0  0
  5  7  1  0  0  0  0
  5 26  1  0  0  0  0
  6  8  1  0  0  0  0
  6 10  2  0  0  0  0
  7 12  1  0  0  0  0
  7 27  1  0  0  0  0
  7 28  1  0  0  0  0
  8 11  1  0  0  0  0
  8 15  2  0  0  0  0
  9 11  1  0  0  0  0
  9 29  1  0  0  0  0
  9 30  1  0  0  0  0
 10 13  1  0  0  0  0
 10 14  1  0  0  0  0
 11 31  1  0  0  0  0
 11 32  1  0  0  0  0
 12 13  2  0  0  0  0
 12 18  1  0  0  0  0
 13 19  1  0  0  0  0
 14 17  2  0  0  0  0
 15 17  1  0  0  0  0
 15 33  1  0  0  0  0
 16 34  1  0  0  0  0
 16 35  1  0  0  0  0
 16 36  1  0  0  0  0
 18 21  2  0  0  0  0
 18 37  1  0  0  0  0
 19 20  2  0  0  0  0
 19 38  1  0  0  0  0
 20 21  1  0  0  0  0
 21 39  1  0  0  0  0
 22 24  1  0  0  0  0
 22 40  1  0  0  0  0
 22 41  1  0  0  0  0
 23 44  1  0  0  0  0
 23 45  1  0  0  0  0
 23 46  1  0  0  0  0
 24 25  3  0  0  0  0
 25 47  1  0  0  0  0
M  END
> <PUBCHEM_COMPOUND_CID>
156011233

> <PUBCHEM_COMPOUND_CANONICALIZED>
1

> <PUBCHEM_CACTVS_COMPLEXITY>
529

> <PUBCHEM_CACTVS_HBOND_ACCEPTOR>
4

> <PUBCHEM_CACTVS_HBOND_DONOR>
1

> <PUBCHEM_CACTVS_ROTATABLE_BOND>
3

> <PUBCHEM_CACTVS_SUBSKEYS>
AAADceB7MAAAAAAAAAAAAAAAAAAAAAAAAAA8YMEAAAAAAADxQAAAHgAQAAAADCzhmAYyxoNABADAGiRCQACCCAAgIgAIiAAO7IgNJiKEsZuGOCrk0BGK6Aew0PMOqAADQAAYQADQAAaAADSAAAAAAAAAAA==

> <PUBCHEM_IUPAC_OPENEYE_NAME>
2-methoxy-6-methyl-1-prop-2-ynoxy-5,6,6a,7-tetrahydro-4H-dibenzo[de,g]quinolin-10-amine

> <PUBCHEM_IUPAC_CAS_NAME>
2-methoxy-6-methyl-1-prop-2-ynoxy-5,6,6a,7-tetrahydro-4H-dibenzo[de,g]quinolin-10-amine

> <PUBCHEM_IUPAC_NAME_MARKUP>
2-methoxy-6-methyl-1-prop-2-ynoxy-5,6,6<I>a</I>,7-tetrahydro-4<I>H</I>-dibenzo[de,g]quinolin-10-amine

> <PUBCHEM_IUPAC_NAME>
2-methoxy-6-methyl-1-prop-2-ynoxy-5,6,6a,7-tetrahydro-4H-dibenzo[de,g]quinolin-10-amine

> <PUBCHEM_IUPAC_SYSTEMATIC_NAME>
2-methoxy-6-methyl-1-prop-2-ynoxy-5,6,6a,7-tetrahydro-4H-dibenzo[de,g]quinolin-10-amine

> <PUBCHEM_IUPAC_TRADITIONAL_NAME>
(2-methoxy-6-methyl-1-propargyloxy-5,6,6a,7-tetrahydro-4H-dibenzo[de,g]quinolin-10-yl)amine

> <PUBCHEM_IUPAC_INCHI>
InChI=1S/C21H22N2O2/c1-4-9-25-21-18(24-3)11-14-7-8-23(2)17-10-13-5-6-15(22)12-16(13)20(21)19(14)17/h1,5-6,11-12,17H,7-10,22H2,2-3H3

> <PUBCHEM_IUPAC_INCHIKEY>
BBXOOHQXEJHYOD-UHFFFAOYSA-N

> <PUBCHEM_XLOGP3_AA>
2.9

> <PUBCHEM_EXACT_MASS>
334.168127949

> <PUBCHEM_MOLECULAR_FORMULA>
C21H22N2O2

> <PUBCHEM_MOLECULAR_WEIGHT>
334.4

> <PUBCHEM_OPENEYE_CAN_SMILES>
CN1CCC2=CC(=C(C3=C2C1CC4=C3C=C(C=C4)N)OCC#C)OC

> <PUBCHEM_OPENEYE_ISO_SMILES>
CN1CCC2=CC(=C(C3=C2C1CC4=C3C=C(C=C4)N)OCC#C)OC

> <PUBCHEM_CACTVS_TPSA>
47.7

> <PUBCHEM_MONOISOTOPIC_WEIGHT>
334.168127949

> <PUBCHEM_TOTAL_CHARGE>
0

> <PUBCHEM_HEAVY_ATOM_COUNT>
25

> <PUBCHEM_ATOM_DEF_STEREO_COUNT>
0

> <PUBCHEM_ATOM_UDEF_STEREO_COUNT>
1

> <PUBCHEM_BOND_DEF_STEREO_COUNT>
0

> <PUBCHEM_BOND_UDEF_STEREO_COUNT>
0

> <PUBCHEM_ISOTOPIC_ATOM_COUNT>
0

> <PUBCHEM_COMPONENT_COUNT>
1

> <PUBCHEM_CACTVS_TAUTO_COUNT>
-1

> <PUBCHEM_COORDINATE_TYPE>
1
5
255

> <PUBCHEM_BONDANNOTATIONS>
10  14  8
12  13  8
12  18  8
13  19  8
14  17  8
15  17  8
18  21  8
19  20  8
20  21  8
5  7  3
6  10  8
6  8  8
8  15  8

$$$$
