44589377
  -OEChem-09292322232D

 63 66  0     0  0  0  0  0  0999 V2000
    5.4641   -7.0194    0.0000 F   0  0  0  0  0  0  0  0  0  0  0  0
    2.0000   -7.0194    0.0000 O   0  0  0  0  0  0  0  0  0  0  0  0
    7.1962    1.9806    0.0000 O   0  0  0  0  0  0  0  0  0  0  0  0
    3.7320   -2.0194    0.0000 N   0  0  0  0  0  0  0  0  0  0  0  0
    3.7320   -4.0194    0.0000 N   0  0  0  0  0  0  0  0  0  0  0  0
    5.4641    1.9806    0.0000 N   0  0  0  0  0  0  0  0  0  0  0  0
    6.3301    6.4806    0.0000 N   0  0  0  0  0  0  0  0  0  0  0  0
    5.8301    8.0194    0.0000 N   0  0  0  0  0  0  0  0  0  0  0  0
    2.8660   -2.5194    0.0000 C   0  0  0  0  0  0  0  0  0  0  0  0
    4.5981   -2.5194    0.0000 C   0  0  0  0  0  0  0  0  0  0  0  0
    2.8660   -3.5194    0.0000 C   0  0  0  0  0  0  0  0  0  0  0  0
    4.5981   -3.5194    0.0000 C   0  0  0  0  0  0  0  0  0  0  0  0
    3.7320   -1.0194    0.0000 C   0  0  0  0  0  0  0  0  0  0  0  0
    4.5981   -0.5194    0.0000 C   0  0  0  0  0  0  0  0  0  0  0  0
    3.7320   -5.0194    0.0000 C   0  0  0  0  0  0  0  0  0  0  0  0
    4.5981    0.4806    0.0000 C   0  0  0  0  0  0  0  0  0  0  0  0
    5.4641    0.9806    0.0000 C   0  0  0  0  0  0  0  0  0  0  0  0
    2.8660   -5.5194    0.0000 C   0  0  0  0  0  0  0  0  0  0  0  0
    4.5981   -5.5194    0.0000 C   0  0  0  0  0  0  0  0  0  0  0  0
    2.8660   -6.5194    0.0000 C   0  0  0  0  0  0  0  0  0  0  0  0
    4.5981   -6.5194    0.0000 C   0  0  0  0  0  0  0  0  0  0  0  0
    3.7320   -7.0194    0.0000 C   0  0  0  0  0  0  0  0  0  0  0  0
    6.3301    2.4806    0.0000 C   0  0  0  0  0  0  0  0  0  0  0  0
    6.3301    3.4806    0.0000 C   0  0  0  0  0  0  0  0  0  0  0  0
    5.4641    3.9806    0.0000 C   0  0  0  0  0  0  0  0  0  0  0  0
    7.1962    3.9806    0.0000 C   0  0  0  0  0  0  0  0  0  0  0  0
    2.0000   -8.0194    0.0000 C   0  0  0  0  0  0  0  0  0  0  0  0
    6.3301    5.4806    0.0000 C   0  0  0  0  0  0  0  0  0  0  0  0
    5.4641    4.9806    0.0000 C   0  0  0  0  0  0  0  0  0  0  0  0
    7.1962    4.9806    0.0000 C   0  0  0  0  0  0  0  0  0  0  0  0
    7.1391    7.0684    0.0000 C   0  0  0  0  0  0  0  0  0  0  0  0
    5.5211    7.0684    0.0000 C   0  0  0  0  0  0  0  0  0  0  0  0
    6.8301    8.0194    0.0000 C   0  0  0  0  0  0  0  0  0  0  0  0
    2.6540   -1.9368    0.0000 H   0  0  0  0  0  0  0  0  0  0  0  0
    2.2554   -2.6271    0.0000 H   0  0  0  0  0  0  0  0  0  0  0  0
    5.2087   -2.6271    0.0000 H   0  0  0  0  0  0  0  0  0  0  0  0
    4.8101   -1.9368    0.0000 H   0  0  0  0  0  0  0  0  0  0  0  0
    2.2554   -3.4118    0.0000 H   0  0  0  0  0  0  0  0  0  0  0  0
    2.6540   -4.1020    0.0000 H   0  0  0  0  0  0  0  0  0  0  0  0
    4.8101   -4.1020    0.0000 H   0  0  0  0  0  0  0  0  0  0  0  0
    5.2087   -3.4118    0.0000 H   0  0  0  0  0  0  0  0  0  0  0  0
    3.5200   -0.4368    0.0000 H   0  0  0  0  0  0  0  0  0  0  0  0
    3.1215   -1.1271    0.0000 H   0  0  0  0  0  0  0  0  0  0  0  0
    4.8101   -1.1020    0.0000 H   0  0  0  0  0  0  0  0  0  0  0  0
    5.2087   -0.4118    0.0000 H   0  0  0  0  0  0  0  0  0  0  0  0
    4.3860    1.0632    0.0000 H   0  0  0  0  0  0  0  0  0  0  0  0
    3.9875    0.3729    0.0000 H   0  0  0  0  0  0  0  0  0  0  0  0
    5.6762    0.3980    0.0000 H   0  0  0  0  0  0  0  0  0  0  0  0
    6.0747    1.0882    0.0000 H   0  0  0  0  0  0  0  0  0  0  0  0
    2.3291   -5.2094    0.0000 H   0  0  0  0  0  0  0  0  0  0  0  0
    5.1350   -5.2094    0.0000 H   0  0  0  0  0  0  0  0  0  0  0  0
    4.9272    2.2906    0.0000 H   0  0  0  0  0  0  0  0  0  0  0  0
    3.7320   -7.6394    0.0000 H   0  0  0  0  0  0  0  0  0  0  0  0
    4.9272    3.6706    0.0000 H   0  0  0  0  0  0  0  0  0  0  0  0
    7.7331    3.6706    0.0000 H   0  0  0  0  0  0  0  0  0  0  0  0
    1.3800   -8.0194    0.0000 H   0  0  0  0  0  0  0  0  0  0  0  0
    2.0000   -8.6394    0.0000 H   0  0  0  0  0  0  0  0  0  0  0  0
    2.6200   -8.0194    0.0000 H   0  0  0  0  0  0  0  0  0  0  0  0
    4.9272    5.2906    0.0000 H   0  0  0  0  0  0  0  0  0  0  0  0
    7.7331    5.2906    0.0000 H   0  0  0  0  0  0  0  0  0  0  0  0
    7.7288    6.8768    0.0000 H   0  0  0  0  0  0  0  0  0  0  0  0
    4.9315    6.8768    0.0000 H   0  0  0  0  0  0  0  0  0  0  0  0
    7.1946    8.5210    0.0000 H   0  0  0  0  0  0  0  0  0  0  0  0
  1 21  1  0  0  0  0
  2 20  1  0  0  0  0
  2 27  1  0  0  0  0
  3 23  2  0  0  0  0
  4  9  1  0  0  0  0
  4 10  1  0  0  0  0
  4 13  1  0  0  0  0
  5 11  1  0  0  0  0
  5 12  1  0  0  0  0
  5 15  1  0  0  0  0
  6 17  1  0  0  0  0
  6 23  1  0  0  0  0
  6 52  1  0  0  0  0
  7 28  1  0  0  0  0
  7 31  1  0  0  0  0
  7 32  1  0  0  0  0
  8 32  2  0  0  0  0
  8 33  1  0  0  0  0
  9 11  1  0  0  0  0
  9 34  1  0  0  0  0
  9 35  1  0  0  0  0
 10 12  1  0  0  0  0
 10 36  1  0  0  0  0
 10 37  1  0  0  0  0
 11 38  1  0  0  0  0
 11 39  1  0  0  0  0
 12 40  1  0  0  0  0
 12 41  1  0  0  0  0
 13 14  1  0  0  0  0
 13 42  1  0  0  0  0
 13 43  1  0  0  0  0
 14 16  1  0  0  0  0
 14 44  1  0  0  0  0
 14 45  1  0  0  0  0
 15 18  2  0  0  0  0
 15 19  1  0  0  0  0
 16 17  1  0  0  0  0
 16 46  1  0  0  0  0
 16 47  1  0  0  0  0
 17 48  1  0  0  0  0
 17 49  1  0  0  0  0
 18 20  1  0  0  0  0
 18 50  1  0  0  0  0
 19 21  2  0  0  0  0
 19 51  1  0  0  0  0
 20 22  2  0  0  0  0
 21 22  1  0  0  0  0
 22 53  1  0  0  0  0
 23 24  1  0  0  0  0
 24 25  2  0  0  0  0
 24 26  1  0  0  0  0
 25 29  1  0  0  0  0
 25 54  1  0  0  0  0
 26 30  2  0  0  0  0
 26 55  1  0  0  0  0
 27 56  1  0  0  0  0
 27 57  1  0  0  0  0
 27 58  1  0  0  0  0
 28 29  2  0  0  0  0
 28 30  1  0  0  0  0
 29 59  1  0  0  0  0
 30 60  1  0  0  0  0
 31 33  2  0  0  0  0
 31 61  1  0  0  0  0
 32 62  1  0  0  0  0
 33 63  1  0  0  0  0
M  END
> <PUBCHEM_COMPOUND_CID>
44589377

> <PUBCHEM_COMPOUND_CANONICALIZED>
1

> <PUBCHEM_CACTVS_COMPLEXITY>
595

> <PUBCHEM_CACTVS_HBOND_ACCEPTOR>
6

> <PUBCHEM_CACTVS_HBOND_DONOR>
1

> <PUBCHEM_CACTVS_ROTATABLE_BOND>
9

> <PUBCHEM_CACTVS_SUBSKEYS>
AAADceB7sQAAAAAAAAAAAAAAAAAAAWAAAAA8YIAAAAAAAAAB0AAAHwAQAAAADAzBmg4/1pfMFACoAjV3dACCiC01MqAJyIEefMiMbnLEvZuUMShu1hvI6aeY2QOeCAAAAgAAAAAQAAAEAAAAAAAAAAAAAA==

> <PUBCHEM_IUPAC_OPENEYE_NAME>
N-[4-[4-(3-fluoro-5-methoxy-phenyl)piperazin-1-yl]butyl]-4-imidazol-1-yl-benzamide

> <PUBCHEM_IUPAC_CAS_NAME>
N-[4-[4-(3-fluoro-5-methoxyphenyl)-1-piperazinyl]butyl]-4-(1-imidazolyl)benzamide

> <PUBCHEM_IUPAC_NAME_MARKUP>
<I>N</I>-[4-[4-(3-fluoro-5-methoxyphenyl)piperazin-1-yl]butyl]-4-imidazol-1-ylbenzamide

> <PUBCHEM_IUPAC_NAME>
N-[4-[4-(3-fluoro-5-methoxyphenyl)piperazin-1-yl]butyl]-4-imidazol-1-ylbenzamide

> <PUBCHEM_IUPAC_SYSTEMATIC_NAME>
N-[4-[4-(3-fluoranyl-5-methoxy-phenyl)piperazin-1-yl]butyl]-4-imidazol-1-yl-benzamide

> <PUBCHEM_IUPAC_TRADITIONAL_NAME>
N-[4-[4-(3-fluoro-5-methoxy-phenyl)piperazino]butyl]-4-imidazol-1-yl-benzamide

> <PUBCHEM_IUPAC_INCHI>
InChI=1S/C25H30FN5O2/c1-33-24-17-21(26)16-23(18-24)30-14-12-29(13-15-30)10-3-2-8-28-25(32)20-4-6-22(7-5-20)31-11-9-27-19-31/h4-7,9,11,16-19H,2-3,8,10,12-15H2,1H3,(H,28,32)

> <PUBCHEM_IUPAC_INCHIKEY>
DKWMITGGRKWYMS-UHFFFAOYSA-N

> <PUBCHEM_XLOGP3_AA>
3.4

> <PUBCHEM_EXACT_MASS>
451.23835338

> <PUBCHEM_MOLECULAR_FORMULA>
C25H30FN5O2

> <PUBCHEM_MOLECULAR_WEIGHT>
451.5

> <PUBCHEM_OPENEYE_CAN_SMILES>
COC1=CC(=CC(=C1)N2CCN(CC2)CCCCNC(=O)C3=CC=C(C=C3)N4C=CN=C4)F

> <PUBCHEM_OPENEYE_ISO_SMILES>
COC1=CC(=CC(=C1)N2CCN(CC2)CCCCNC(=O)C3=CC=C(C=C3)N4C=CN=C4)F

> <PUBCHEM_CACTVS_TPSA>
62.6

> <PUBCHEM_MONOISOTOPIC_WEIGHT>
451.23835338

> <PUBCHEM_TOTAL_CHARGE>
0

> <PUBCHEM_HEAVY_ATOM_COUNT>
33

> <PUBCHEM_ATOM_DEF_STEREO_COUNT>
0

> <PUBCHEM_ATOM_UDEF_STEREO_COUNT>
0

> <PUBCHEM_BOND_DEF_STEREO_COUNT>
0

> <PUBCHEM_BOND_UDEF_STEREO_COUNT>
0

> <PUBCHEM_ISOTOPIC_ATOM_COUNT>
0

> <PUBCHEM_COMPONENT_COUNT>
1

> <PUBCHEM_CACTVS_TAUTO_COUNT>
-1

> <PUBCHEM_COORDINATE_TYPE>
1
5
255

> <PUBCHEM_BONDANNOTATIONS>
15  18  8
15  19  8
18  20  8
19  21  8
20  22  8
21  22  8
24  25  8
24  26  8
25  29  8
26  30  8
28  29  8
28  30  8
31  33  8
7  31  8
7  32  8
8  32  8
8  33  8

$$$$
