134156520
  -OEChem-09292322382D

 76 79  0     0  0  0  0  0  0999 V2000
    8.9282    0.5000    0.0000 O   0  0  0  0  0  0  0  0  0  0  0  0
    8.9282    6.5000    0.0000 O   0  0  0  0  0  0  0  0  0  0  0  0
    9.7942    8.0000    0.0000 O   0  0  0  0  0  0  0  0  0  0  0  0
    5.4641   -3.5000    0.0000 N   0  0  0  0  0  0  0  0  0  0  0  0
    5.4641   -5.5000    0.0000 N   0  0  0  0  0  0  0  0  0  0  0  0
    8.0622    2.0000    0.0000 N   0  0  0  0  0  0  0  0  0  0  0  0
    4.5981   -4.0000    0.0000 C   0  0  0  0  0  0  0  0  0  0  0  0
    6.3301   -4.0000    0.0000 C   0  0  0  0  0  0  0  0  0  0  0  0
    4.5981   -5.0000    0.0000 C   0  0  0  0  0  0  0  0  0  0  0  0
    6.3301   -5.0000    0.0000 C   0  0  0  0  0  0  0  0  0  0  0  0
    5.4641   -2.5000    0.0000 C   0  0  0  0  0  0  0  0  0  0  0  0
    6.3301   -2.0000    0.0000 C   0  0  0  0  0  0  0  0  0  0  0  0
    5.4641   -6.5000    0.0000 C   0  0  0  0  0  0  0  0  0  0  0  0
    6.3301   -1.0000    0.0000 C   0  0  0  0  0  0  0  0  0  0  0  0
    7.1962   -0.5000    0.0000 C   0  0  0  0  0  0  0  0  0  0  0  0
    4.5981   -7.0000    0.0000 C   0  0  0  0  0  0  0  0  0  0  0  0
    6.3301   -7.0000    0.0000 C   0  0  0  0  0  0  0  0  0  0  0  0
    7.1962    0.5000    0.0000 C   0  0  0  0  0  0  0  0  0  0  0  0
    4.5981   -8.0000    0.0000 C   0  0  0  0  0  0  0  0  0  0  0  0
    3.7320   -6.5000    0.0000 C   0  0  0  0  0  0  0  0  0  0  0  0
    6.3301   -8.0000    0.0000 C   0  0  0  0  0  0  0  0  0  0  0  0
    5.4641   -8.5000    0.0000 C   0  0  0  0  0  0  0  0  0  0  0  0
    8.0622    1.0000    0.0000 C   0  0  0  0  0  0  0  0  0  0  0  0
    2.8660   -7.0000    0.0000 C   0  0  0  0  0  0  0  0  0  0  0  0
    3.7320   -5.5000    0.0000 C   0  0  0  0  0  0  0  0  0  0  0  0
    2.0000   -6.5000    0.0000 C   0  0  0  0  0  0  0  0  0  0  0  0
    2.8660   -5.0000    0.0000 C   0  0  0  0  0  0  0  0  0  0  0  0
    8.9282    2.5000    0.0000 C   0  0  0  0  0  0  0  0  0  0  0  0
    2.0000   -5.5000    0.0000 C   0  0  0  0  0  0  0  0  0  0  0  0
    8.9282    3.5000    0.0000 C   0  0  0  0  0  0  0  0  0  0  0  0
    9.7942    4.0000    0.0000 C   0  0  0  0  0  0  0  0  0  0  0  0
    8.0622    4.0000    0.0000 C   0  0  0  0  0  0  0  0  0  0  0  0
    9.7942    5.0000    0.0000 C   0  0  0  0  0  0  0  0  0  0  0  0
    8.0622    5.0000    0.0000 C   0  0  0  0  0  0  0  0  0  0  0  0
    8.9282    5.5000    0.0000 C   0  0  0  0  0  0  0  0  0  0  0  0
    9.7942    7.0000    0.0000 C   0  0  0  0  0  0  0  0  0  0  0  0
   10.6603    8.5000    0.0000 C   0  0  0  0  0  0  0  0  0  0  0  0
    4.3860   -3.4174    0.0000 H   0  0  0  0  0  0  0  0  0  0  0  0
    3.9875   -4.1077    0.0000 H   0  0  0  0  0  0  0  0  0  0  0  0
    6.9407   -4.1077    0.0000 H   0  0  0  0  0  0  0  0  0  0  0  0
    6.5422   -3.4174    0.0000 H   0  0  0  0  0  0  0  0  0  0  0  0
    3.9875   -4.8923    0.0000 H   0  0  0  0  0  0  0  0  0  0  0  0
    4.3860   -5.5826    0.0000 H   0  0  0  0  0  0  0  0  0  0  0  0
    6.5422   -5.5826    0.0000 H   0  0  0  0  0  0  0  0  0  0  0  0
    6.9407   -4.8923    0.0000 H   0  0  0  0  0  0  0  0  0  0  0  0
    5.2520   -1.9174    0.0000 H   0  0  0  0  0  0  0  0  0  0  0  0
    4.8535   -2.6077    0.0000 H   0  0  0  0  0  0  0  0  0  0  0  0
    6.5422   -2.5826    0.0000 H   0  0  0  0  0  0  0  0  0  0  0  0
    6.9407   -1.8923    0.0000 H   0  0  0  0  0  0  0  0  0  0  0  0
    6.1181   -0.4174    0.0000 H   0  0  0  0  0  0  0  0  0  0  0  0
    5.7196   -1.1077    0.0000 H   0  0  0  0  0  0  0  0  0  0  0  0
    7.4082   -1.0826    0.0000 H   0  0  0  0  0  0  0  0  0  0  0  0
    7.8067   -0.3923    0.0000 H   0  0  0  0  0  0  0  0  0  0  0  0
    6.8671   -6.6900    0.0000 H   0  0  0  0  0  0  0  0  0  0  0  0
    6.9841    1.0826    0.0000 H   0  0  0  0  0  0  0  0  0  0  0  0
    6.5856    0.3923    0.0000 H   0  0  0  0  0  0  0  0  0  0  0  0
    4.0611   -8.3100    0.0000 H   0  0  0  0  0  0  0  0  0  0  0  0
    6.8671   -8.3100    0.0000 H   0  0  0  0  0  0  0  0  0  0  0  0
    5.4641   -9.1200    0.0000 H   0  0  0  0  0  0  0  0  0  0  0  0
    2.8660   -7.6200    0.0000 H   0  0  0  0  0  0  0  0  0  0  0  0
    4.2690   -5.1900    0.0000 H   0  0  0  0  0  0  0  0  0  0  0  0
    7.5252    2.3100    0.0000 H   0  0  0  0  0  0  0  0  0  0  0  0
    1.4631   -6.8100    0.0000 H   0  0  0  0  0  0  0  0  0  0  0  0
    2.8660   -4.3800    0.0000 H   0  0  0  0  0  0  0  0  0  0  0  0
    9.1403    1.9174    0.0000 H   0  0  0  0  0  0  0  0  0  0  0  0
    9.5388    2.6077    0.0000 H   0  0  0  0  0  0  0  0  0  0  0  0
    1.4631   -5.1900    0.0000 H   0  0  0  0  0  0  0  0  0  0  0  0
   10.3312    3.6900    0.0000 H   0  0  0  0  0  0  0  0  0  0  0  0
    7.5252    3.6900    0.0000 H   0  0  0  0  0  0  0  0  0  0  0  0
   10.3312    5.3100    0.0000 H   0  0  0  0  0  0  0  0  0  0  0  0
    7.5252    5.3100    0.0000 H   0  0  0  0  0  0  0  0  0  0  0  0
   10.0063    6.4174    0.0000 H   0  0  0  0  0  0  0  0  0  0  0  0
   10.4048    7.1077    0.0000 H   0  0  0  0  0  0  0  0  0  0  0  0
   10.9703    7.9631    0.0000 H   0  0  0  0  0  0  0  0  0  0  0  0
   11.1972    8.8100    0.0000 H   0  0  0  0  0  0  0  0  0  0  0  0
   10.3503    9.0369    0.0000 H   0  0  0  0  0  0  0  0  0  0  0  0
  1 23  2  0  0  0  0
  2 35  1  0  0  0  0
  2 36  1  0  0  0  0
  3 36  1  0  0  0  0
  3 37  1  0  0  0  0
  4  7  1  0  0  0  0
  4  8  1  0  0  0  0
  4 11  1  0  0  0  0
  5  9  1  0  0  0  0
  5 10  1  0  0  0  0
  5 13  1  0  0  0  0
  6 23  1  0  0  0  0
  6 28  1  0  0  0  0
  6 62  1  0  0  0  0
  7  9  1  0  0  0  0
  7 38  1  0  0  0  0
  7 39  1  0  0  0  0
  8 10  1  0  0  0  0
  8 40  1  0  0  0  0
  8 41  1  0  0  0  0
  9 42  1  0  0  0  0
  9 43  1  0  0  0  0
 10 44  1  0  0  0  0
 10 45  1  0  0  0  0
 11 12  1  0  0  0  0
 11 46  1  0  0  0  0
 11 47  1  0  0  0  0
 12 14  1  0  0  0  0
 12 48  1  0  0  0  0
 12 49  1  0  0  0  0
 13 16  1  0  0  0  0
 13 17  2  0  0  0  0
 14 15  1  0  0  0  0
 14 50  1  0  0  0  0
 14 51  1  0  0  0  0
 15 18  1  0  0  0  0
 15 52  1  0  0  0  0
 15 53  1  0  0  0  0
 16 19  2  0  0  0  0
 16 20  1  0  0  0  0
 17 21  1  0  0  0  0
 17 54  1  0  0  0  0
 18 23  1  0  0  0  0
 18 55  1  0  0  0  0
 18 56  1  0  0  0  0
 19 22  1  0  0  0  0
 19 57  1  0  0  0  0
 20 24  2  0  0  0  0
 20 25  1  0  0  0  0
 21 22  2  0  0  0  0
 21 58  1  0  0  0  0
 22 59  1  0  0  0  0
 24 26  1  0  0  0  0
 24 60  1  0  0  0  0
 25 27  2  0  0  0  0
 25 61  1  0  0  0  0
 26 29  2  0  0  0  0
 26 63  1  0  0  0  0
 27 29  1  0  0  0  0
 27 64  1  0  0  0  0
 28 30  1  0  0  0  0
 28 65  1  0  0  0  0
 28 66  1  0  0  0  0
 29 67  1  0  0  0  0
 30 31  2  0  0  0  0
 30 32  1  0  0  0  0
 31 33  1  0  0  0  0
 31 68  1  0  0  0  0
 32 34  2  0  0  0  0
 32 69  1  0  0  0  0
 33 35  2  0  0  0  0
 33 70  1  0  0  0  0
 34 35  1  0  0  0  0
 34 71  1  0  0  0  0
 36 72  1  0  0  0  0
 36 73  1  0  0  0  0
 37 74  1  0  0  0  0
 37 75  1  0  0  0  0
 37 76  1  0  0  0  0
M  END
> <PUBCHEM_COMPOUND_CID>
134156520

> <PUBCHEM_COMPOUND_CANONICALIZED>
1

> <PUBCHEM_CACTVS_COMPLEXITY>
625

> <PUBCHEM_CACTVS_HBOND_ACCEPTOR>
5

> <PUBCHEM_CACTVS_HBOND_DONOR>
1

> <PUBCHEM_CACTVS_ROTATABLE_BOND>
13

> <PUBCHEM_CACTVS_SUBSKEYS>
AAADcfB7MAAAAAAAAAAAAAAAAAAAAAAAAAA8YMEAAAAAAAABUAAAHgAQAAAADAzBmAcyzoPABACIAiVSUACCCAAhIgAIiIEObIgcZjLEsZu0MChk1hHM6AeY2MIOoAAAAAACAABAAAAAAAQAAAAAAAAAAA==

> <PUBCHEM_IUPAC_OPENEYE_NAME>
N-[[4-(methoxymethoxy)phenyl]methyl]-6-[4-(2-phenylphenyl)piperazin-1-yl]hexanamide

> <PUBCHEM_IUPAC_CAS_NAME>
N-[[4-(methoxymethoxy)phenyl]methyl]-6-[4-(2-phenylphenyl)-1-piperazinyl]hexanamide

> <PUBCHEM_IUPAC_NAME_MARKUP>
<I>N</I>-[[4-(methoxymethoxy)phenyl]methyl]-6-[4-(2-phenylphenyl)piperazin-1-yl]hexanamide

> <PUBCHEM_IUPAC_NAME>
N-[[4-(methoxymethoxy)phenyl]methyl]-6-[4-(2-phenylphenyl)piperazin-1-yl]hexanamide

> <PUBCHEM_IUPAC_SYSTEMATIC_NAME>
N-[[4-(methoxymethoxy)phenyl]methyl]-6-[4-(2-phenylphenyl)piperazin-1-yl]hexanamide

> <PUBCHEM_IUPAC_TRADITIONAL_NAME>
N-[4-(methoxymethoxy)benzyl]-6-[4-(2-phenylphenyl)piperazino]hexanamide

> <PUBCHEM_IUPAC_INCHI>
InChI=1S/C31H39N3O3/c1-36-25-37-28-17-15-26(16-18-28)24-32-31(35)14-6-3-9-19-33-20-22-34(23-21-33)30-13-8-7-12-29(30)27-10-4-2-5-11-27/h2,4-5,7-8,10-13,15-18H,3,6,9,14,19-25H2,1H3,(H,32,35)

> <PUBCHEM_IUPAC_INCHIKEY>
HUFSUMIWNMPJOE-UHFFFAOYSA-N

> <PUBCHEM_XLOGP3_AA>
5.2

> <PUBCHEM_EXACT_MASS>
501.29914211

> <PUBCHEM_MOLECULAR_FORMULA>
C31H39N3O3

> <PUBCHEM_MOLECULAR_WEIGHT>
501.7

> <PUBCHEM_OPENEYE_CAN_SMILES>
COCOC1=CC=C(C=C1)CNC(=O)CCCCCN2CCN(CC2)C3=CC=CC=C3C4=CC=CC=C4

> <PUBCHEM_OPENEYE_ISO_SMILES>
COCOC1=CC=C(C=C1)CNC(=O)CCCCCN2CCN(CC2)C3=CC=CC=C3C4=CC=CC=C4

> <PUBCHEM_CACTVS_TPSA>
54

> <PUBCHEM_MONOISOTOPIC_WEIGHT>
501.29914211

> <PUBCHEM_TOTAL_CHARGE>
0

> <PUBCHEM_HEAVY_ATOM_COUNT>
37

> <PUBCHEM_ATOM_DEF_STEREO_COUNT>
0

> <PUBCHEM_ATOM_UDEF_STEREO_COUNT>
0

> <PUBCHEM_BOND_DEF_STEREO_COUNT>
0

> <PUBCHEM_BOND_UDEF_STEREO_COUNT>
0

> <PUBCHEM_ISOTOPIC_ATOM_COUNT>
0

> <PUBCHEM_COMPONENT_COUNT>
1

> <PUBCHEM_CACTVS_TAUTO_COUNT>
-1

> <PUBCHEM_COORDINATE_TYPE>
1
5
255

> <PUBCHEM_BONDANNOTATIONS>
13  16  8
13  17  8
16  19  8
17  21  8
19  22  8
20  24  8
20  25  8
21  22  8
24  26  8
25  27  8
26  29  8
27  29  8
30  31  8
30  32  8
31  33  8
32  34  8
33  35  8
34  35  8

$$$$
