155532983
  -OEChem-09292322402D

 40 43  0     0  0  0  0  0  0999 V2000
    4.9889   -1.5847    0.0000 S   0  0  0  0  0  0  0  0  0  0  0  0
    4.9917    3.5438    0.0000 S   0  0  0  0  0  0  0  0  0  0  0  0
    5.9394   -1.2740    0.0000 O   0  0  0  0  0  0  0  0  0  0  0  0
    4.0384   -1.8954    0.0000 O   0  0  0  0  0  0  0  0  0  0  0  0
    4.6783   -0.6342    0.0000 N   0  0  0  0  0  0  0  0  0  0  0  0
    5.9405    2.2332    0.0000 N   0  0  0  0  0  0  0  0  0  0  0  0
    6.7523    3.8196    0.0000 N   0  0  0  0  0  0  0  0  0  0  0  0
    3.7320   -0.3295    0.0000 C   0  0  0  0  0  0  0  0  0  0  0  0
    3.7320    0.6705    0.0000 C   0  0  0  0  0  0  0  0  0  0  0  0
    4.6783    0.9753    0.0000 C   0  0  0  0  0  0  0  0  0  0  0  0
    5.2619    0.1705    0.0000 C   0  0  0  0  0  0  0  0  0  0  0  0
    4.9889    1.9258    0.0000 C   0  0  0  0  0  0  0  0  0  0  0  0
    2.8660   -0.8295    0.0000 C   0  0  0  0  0  0  0  0  0  0  0  0
    2.8660    1.1706    0.0000 C   0  0  0  0  0  0  0  0  0  0  0  0
    5.2996   -2.5352    0.0000 C   0  0  0  0  0  0  0  0  0  0  0  0
    4.4026    2.7358    0.0000 C   0  0  0  0  0  0  0  0  0  0  0  0
    2.0000   -0.3295    0.0000 C   0  0  0  0  0  0  0  0  0  0  0  0
    2.0000    0.6705    0.0000 C   0  0  0  0  0  0  0  0  0  0  0  0
    4.6318   -3.2795    0.0000 C   0  0  0  0  0  0  0  0  0  0  0  0
    6.2781   -2.7414    0.0000 C   0  0  0  0  0  0  0  0  0  0  0  0
    3.4026    2.7376    0.0000 C   0  0  0  0  0  0  0  0  0  0  0  0
    5.9422    3.2332    0.0000 C   0  0  0  0  0  0  0  0  0  0  0  0
    4.9424   -4.2300    0.0000 C   0  0  0  0  0  0  0  0  0  0  0  0
    6.5888   -3.6920    0.0000 C   0  0  0  0  0  0  0  0  0  0  0  0
    5.9209   -4.4363    0.0000 C   0  0  0  0  0  0  0  0  0  0  0  0
    5.8819    0.1705    0.0000 H   0  0  0  0  0  0  0  0  0  0  0  0
    2.8660   -1.4494    0.0000 H   0  0  0  0  0  0  0  0  0  0  0  0
    2.8660    1.7906    0.0000 H   0  0  0  0  0  0  0  0  0  0  0  0
    1.4631   -0.6395    0.0000 H   0  0  0  0  0  0  0  0  0  0  0  0
    1.4631    0.9805    0.0000 H   0  0  0  0  0  0  0  0  0  0  0  0
    4.0251   -3.1517    0.0000 H   0  0  0  0  0  0  0  0  0  0  0  0
    6.6922   -2.2800    0.0000 H   0  0  0  0  0  0  0  0  0  0  0  0
    3.4036    3.3576    0.0000 H   0  0  0  0  0  0  0  0  0  0  0  0
    2.7826    2.7386    0.0000 H   0  0  0  0  0  0  0  0  0  0  0  0
    3.4015    2.1176    0.0000 H   0  0  0  0  0  0  0  0  0  0  0  0
    4.5284   -4.6915    0.0000 H   0  0  0  0  0  0  0  0  0  0  0  0
    7.1954   -3.8198    0.0000 H   0  0  0  0  0  0  0  0  0  0  0  0
    6.1135   -5.0256    0.0000 H   0  0  0  0  0  0  0  0  0  0  0  0
    6.6886    4.4363    0.0000 H   0  0  0  0  0  0  0  0  0  0  0  0
    7.3182    3.5664    0.0000 H   0  0  0  0  0  0  0  0  0  0  0  0
  1  3  2  0  0  0  0
  1  4  2  0  0  0  0
  1  5  1  0  0  0  0
  1 15  1  0  0  0  0
  2 16  1  0  0  0  0
  2 22  1  0  0  0  0
  5  8  1  0  0  0  0
  5 11  1  0  0  0  0
  6 12  1  0  0  0  0
  6 22  2  0  0  0  0
  7 22  1  0  0  0  0
  7 39  1  0  0  0  0
  7 40  1  0  0  0  0
  8  9  1  0  0  0  0
  8 13  2  0  0  0  0
  9 10  1  0  0  0  0
  9 14  2  0  0  0  0
 10 11  2  0  0  0  0
 10 12  1  0  0  0  0
 11 26  1  0  0  0  0
 12 16  2  0  0  0  0
 13 17  1  0  0  0  0
 13 27  1  0  0  0  0
 14 18  1  0  0  0  0
 14 28  1  0  0  0  0
 15 19  2  0  0  0  0
 15 20  1  0  0  0  0
 16 21  1  0  0  0  0
 17 18  2  0  0  0  0
 17 29  1  0  0  0  0
 18 30  1  0  0  0  0
 19 23  1  0  0  0  0
 19 31  1  0  0  0  0
 20 24  2  0  0  0  0
 20 32  1  0  0  0  0
 21 33  1  0  0  0  0
 21 34  1  0  0  0  0
 21 35  1  0  0  0  0
 23 25  2  0  0  0  0
 23 36  1  0  0  0  0
 24 25  1  0  0  0  0
 24 37  1  0  0  0  0
 25 38  1  0  0  0  0
M  END
> <PUBCHEM_COMPOUND_CID>
155532983

> <PUBCHEM_COMPOUND_CANONICALIZED>
1

> <PUBCHEM_CACTVS_COMPLEXITY>
573

> <PUBCHEM_CACTVS_HBOND_ACCEPTOR>
5

> <PUBCHEM_CACTVS_HBOND_DONOR>
1

> <PUBCHEM_CACTVS_ROTATABLE_BOND>
3

> <PUBCHEM_CACTVS_SUBSKEYS>
AAADccB7MABgAAAAAAAAAAAAAAAAAWLAAAAwYAAAAAAAAFgB/AAAHAQQQAAADAjBXgQ/0fJIEAqkAzRnZHDC8LlxCjkI2Dw4ZJiIIOLg0ZGEIAhggALIyCcQgMAOgAAAAAACAAAAAAAAAAQAAAAAAAAAAA==

> <PUBCHEM_IUPAC_OPENEYE_NAME>
4-[1-(benzenesulfonyl)indol-3-yl]-5-methyl-thiazol-2-amine

> <PUBCHEM_IUPAC_CAS_NAME>
4-[1-(benzenesulfonyl)-3-indolyl]-5-methyl-2-thiazolamine

> <PUBCHEM_IUPAC_NAME_MARKUP>
4-[1-(benzenesulfonyl)indol-3-yl]-5-methyl-1,3-thiazol-2-amine

> <PUBCHEM_IUPAC_NAME>
4-[1-(benzenesulfonyl)indol-3-yl]-5-methyl-1,3-thiazol-2-amine

> <PUBCHEM_IUPAC_SYSTEMATIC_NAME>
5-methyl-4-[1-(phenylsulfonyl)indol-3-yl]-1,3-thiazol-2-amine

> <PUBCHEM_IUPAC_TRADITIONAL_NAME>
[4-(1-besylindol-3-yl)-5-methyl-thiazol-2-yl]amine

> <PUBCHEM_IUPAC_INCHI>
InChI=1S/C18H15N3O2S2/c1-12-17(20-18(19)24-12)15-11-21(16-10-6-5-9-14(15)16)25(22,23)13-7-3-2-4-8-13/h2-11H,1H3,(H2,19,20)

> <PUBCHEM_IUPAC_INCHIKEY>
KLVPAOMLKHDXNT-UHFFFAOYSA-N

> <PUBCHEM_XLOGP3_AA>
4

> <PUBCHEM_EXACT_MASS>
369.06056908

> <PUBCHEM_MOLECULAR_FORMULA>
C18H15N3O2S2

> <PUBCHEM_MOLECULAR_WEIGHT>
369.5

> <PUBCHEM_OPENEYE_CAN_SMILES>
CC1=C(N=C(S1)N)C2=CN(C3=CC=CC=C32)S(=O)(=O)C4=CC=CC=C4

> <PUBCHEM_OPENEYE_ISO_SMILES>
CC1=C(N=C(S1)N)C2=CN(C3=CC=CC=C32)S(=O)(=O)C4=CC=CC=C4

> <PUBCHEM_CACTVS_TPSA>
115

> <PUBCHEM_MONOISOTOPIC_WEIGHT>
369.06056908

> <PUBCHEM_TOTAL_CHARGE>
0

> <PUBCHEM_HEAVY_ATOM_COUNT>
25

> <PUBCHEM_ATOM_DEF_STEREO_COUNT>
0

> <PUBCHEM_ATOM_UDEF_STEREO_COUNT>
0

> <PUBCHEM_BOND_DEF_STEREO_COUNT>
0

> <PUBCHEM_BOND_UDEF_STEREO_COUNT>
0

> <PUBCHEM_ISOTOPIC_ATOM_COUNT>
0

> <PUBCHEM_COMPONENT_COUNT>
1

> <PUBCHEM_CACTVS_TAUTO_COUNT>
-1

> <PUBCHEM_COORDINATE_TYPE>
1
5
255

> <PUBCHEM_BONDANNOTATIONS>
10  11  8
12  16  8
13  17  8
14  18  8
15  19  8
15  20  8
17  18  8
19  23  8
2  16  8
2  22  8
20  24  8
23  25  8
24  25  8
5  11  8
5  8  8
6  12  8
6  22  8
8  13  8
8  9  8
9  10  8
9  14  8

$$$$
