142573380
  -OEChem-09292322412D

 75 79  0     0  0  0  0  0  0999 V2000
    7.4323   -4.6488    0.0000 S   0  0  0  0  0  0  0  0  0  0  0  0
   10.8964    4.3512    0.0000 O   0  0  0  0  0  0  0  0  0  0  0  0
    9.1643   -0.6488    0.0000 N   0  0  0  0  0  0  0  0  0  0  0  0
    9.1643    3.3512    0.0000 N   0  0  0  0  0  0  0  0  0  0  0  0
    5.6527   -4.7420    0.0000 N   0  0  0  0  0  0  0  0  0  0  0  0
    6.4617   -6.1433    0.0000 N   0  0  0  0  0  0  0  0  0  0  0  0
    5.4836   -6.3512    0.0000 N   0  0  0  0  0  0  0  0  0  0  0  0
    9.1643    1.3512    0.0000 C   0  0  0  0  0  0  0  0  0  0  0  0
    8.2983    0.8512    0.0000 C   0  0  0  0  0  0  0  0  0  0  0  0
   10.0303    0.8512    0.0000 C   0  0  0  0  0  0  0  0  0  0  0  0
    8.2983    1.8512    0.0000 C   0  0  0  0  0  0  0  0  0  0  0  0
   10.0303    1.8512    0.0000 C   0  0  0  0  0  0  0  0  0  0  0  0
    8.2983   -0.1488    0.0000 C   0  0  0  0  0  0  0  0  0  0  0  0
   10.0303   -0.1488    0.0000 C   0  0  0  0  0  0  0  0  0  0  0  0
    8.2983    2.8512    0.0000 C   0  0  0  0  0  0  0  0  0  0  0  0
   10.0303    2.8512    0.0000 C   0  0  0  0  0  0  0  0  0  0  0  0
    9.1643   -1.6488    0.0000 C   0  0  0  0  0  0  0  0  0  0  0  0
    9.1643    4.3512    0.0000 C   0  0  0  0  0  0  0  0  0  0  0  0
    8.2983   -2.1488    0.0000 C   0  0  0  0  0  0  0  0  0  0  0  0
    8.2983   -3.1488    0.0000 C   0  0  0  0  0  0  0  0  0  0  0  0
   10.0303    4.8512    0.0000 C   0  0  0  0  0  0  0  0  0  0  0  0
    8.2983    4.8512    0.0000 C   0  0  0  0  0  0  0  0  0  0  0  0
    7.4323   -3.6488    0.0000 C   0  0  0  0  0  0  0  0  0  0  0  0
   10.0303    5.8512    0.0000 C   0  0  0  0  0  0  0  0  0  0  0  0
    8.2983    5.8512    0.0000 C   0  0  0  0  0  0  0  0  0  0  0  0
    9.1643    6.3512    0.0000 C   0  0  0  0  0  0  0  0  0  0  0  0
   11.7624    4.8512    0.0000 C   0  0  0  0  0  0  0  0  0  0  0  0
    6.5662   -5.1488    0.0000 C   0  0  0  0  0  0  0  0  0  0  0  0
    4.9836   -5.4852    0.0000 C   0  0  0  0  0  0  0  0  0  0  0  0
    5.4448   -3.7639    0.0000 C   0  0  0  0  0  0  0  0  0  0  0  0
    3.9890   -5.3807    0.0000 C   0  0  0  0  0  0  0  0  0  0  0  0
    3.4013   -6.1897    0.0000 C   0  0  0  0  0  0  0  0  0  0  0  0
    3.5823   -4.4671    0.0000 C   0  0  0  0  0  0  0  0  0  0  0  0
    2.4067   -6.0851    0.0000 C   0  0  0  0  0  0  0  0  0  0  0  0
    2.5878   -4.3626    0.0000 C   0  0  0  0  0  0  0  0  0  0  0  0
    2.0000   -5.1716    0.0000 C   0  0  0  0  0  0  0  0  0  0  0  0
    8.0862    1.4338    0.0000 H   0  0  0  0  0  0  0  0  0  0  0  0
    7.6877    0.7436    0.0000 H   0  0  0  0  0  0  0  0  0  0  0  0
   10.6409    0.7436    0.0000 H   0  0  0  0  0  0  0  0  0  0  0  0
   10.2424    1.4338    0.0000 H   0  0  0  0  0  0  0  0  0  0  0  0
    7.6877    1.9589    0.0000 H   0  0  0  0  0  0  0  0  0  0  0  0
    8.0862    1.2686    0.0000 H   0  0  0  0  0  0  0  0  0  0  0  0
   10.2424    1.2686    0.0000 H   0  0  0  0  0  0  0  0  0  0  0  0
   10.6409    1.9589    0.0000 H   0  0  0  0  0  0  0  0  0  0  0  0
    7.6877   -0.0411    0.0000 H   0  0  0  0  0  0  0  0  0  0  0  0
    8.0862   -0.7314    0.0000 H   0  0  0  0  0  0  0  0  0  0  0  0
   10.2424   -0.7314    0.0000 H   0  0  0  0  0  0  0  0  0  0  0  0
   10.6409   -0.0411    0.0000 H   0  0  0  0  0  0  0  0  0  0  0  0
    8.0862    3.4338    0.0000 H   0  0  0  0  0  0  0  0  0  0  0  0
    7.6877    2.7436    0.0000 H   0  0  0  0  0  0  0  0  0  0  0  0
   10.6409    2.7436    0.0000 H   0  0  0  0  0  0  0  0  0  0  0  0
   10.2424    3.4338    0.0000 H   0  0  0  0  0  0  0  0  0  0  0  0
    9.3764   -2.2314    0.0000 H   0  0  0  0  0  0  0  0  0  0  0  0
    9.7749   -1.5411    0.0000 H   0  0  0  0  0  0  0  0  0  0  0  0
    8.0862   -1.5662    0.0000 H   0  0  0  0  0  0  0  0  0  0  0  0
    7.6877   -2.2564    0.0000 H   0  0  0  0  0  0  0  0  0  0  0  0
    8.5103   -3.7314    0.0000 H   0  0  0  0  0  0  0  0  0  0  0  0
    8.9089   -3.0411    0.0000 H   0  0  0  0  0  0  0  0  0  0  0  0
    7.7614    4.5412    0.0000 H   0  0  0  0  0  0  0  0  0  0  0  0
    7.2202   -3.0662    0.0000 H   0  0  0  0  0  0  0  0  0  0  0  0
    6.8217   -3.7564    0.0000 H   0  0  0  0  0  0  0  0  0  0  0  0
   10.5673    6.1612    0.0000 H   0  0  0  0  0  0  0  0  0  0  0  0
    7.7614    6.1612    0.0000 H   0  0  0  0  0  0  0  0  0  0  0  0
    9.1643    6.9712    0.0000 H   0  0  0  0  0  0  0  0  0  0  0  0
   12.0724    4.3143    0.0000 H   0  0  0  0  0  0  0  0  0  0  0  0
   12.2993    5.1612    0.0000 H   0  0  0  0  0  0  0  0  0  0  0  0
   11.4524    5.3882    0.0000 H   0  0  0  0  0  0  0  0  0  0  0  0
    6.0512   -3.6350    0.0000 H   0  0  0  0  0  0  0  0  0  0  0  0
    5.3159   -3.1574    0.0000 H   0  0  0  0  0  0  0  0  0  0  0  0
    4.8383   -3.8928    0.0000 H   0  0  0  0  0  0  0  0  0  0  0  0
    3.6534   -6.7561    0.0000 H   0  0  0  0  0  0  0  0  0  0  0  0
    3.9467   -3.9655    0.0000 H   0  0  0  0  0  0  0  0  0  0  0  0
    2.0423   -6.5867    0.0000 H   0  0  0  0  0  0  0  0  0  0  0  0
    2.3356   -3.7962    0.0000 H   0  0  0  0  0  0  0  0  0  0  0  0
    1.3834   -5.1068    0.0000 H   0  0  0  0  0  0  0  0  0  0  0  0
  1 23  1  0  0  0  0
  1 28  1  0  0  0  0
  2 21  1  0  0  0  0
  2 27  1  0  0  0  0
  3 13  1  0  0  0  0
  3 14  1  0  0  0  0
  3 17  1  0  0  0  0
  4 15  1  0  0  0  0
  4 16  1  0  0  0  0
  4 18  1  0  0  0  0
  5 28  1  0  0  0  0
  5 29  1  0  0  0  0
  5 30  1  0  0  0  0
  6  7  1  0  0  0  0
  6 28  2  0  0  0  0
  7 29  2  0  0  0  0
  8  9  1  0  0  0  0
  8 10  1  0  0  0  0
  8 11  1  0  0  0  0
  8 12  1  0  0  0  0
  9 13  1  0  0  0  0
  9 37  1  0  0  0  0
  9 38  1  0  0  0  0
 10 14  1  0  0  0  0
 10 39  1  0  0  0  0
 10 40  1  0  0  0  0
 11 15  1  0  0  0  0
 11 41  1  0  0  0  0
 11 42  1  0  0  0  0
 12 16  1  0  0  0  0
 12 43  1  0  0  0  0
 12 44  1  0  0  0  0
 13 45  1  0  0  0  0
 13 46  1  0  0  0  0
 14 47  1  0  0  0  0
 14 48  1  0  0  0  0
 15 49  1  0  0  0  0
 15 50  1  0  0  0  0
 16 51  1  0  0  0  0
 16 52  1  0  0  0  0
 17 19  1  0  0  0  0
 17 53  1  0  0  0  0
 17 54  1  0  0  0  0
 18 21  1  0  0  0  0
 18 22  2  0  0  0  0
 19 20  1  0  0  0  0
 19 55  1  0  0  0  0
 19 56  1  0  0  0  0
 20 23  1  0  0  0  0
 20 57  1  0  0  0  0
 20 58  1  0  0  0  0
 21 24  2  0  0  0  0
 22 25  1  0  0  0  0
 22 59  1  0  0  0  0
 23 60  1  0  0  0  0
 23 61  1  0  0  0  0
 24 26  1  0  0  0  0
 24 62  1  0  0  0  0
 25 26  2  0  0  0  0
 25 63  1  0  0  0  0
 26 64  1  0  0  0  0
 27 65  1  0  0  0  0
 27 66  1  0  0  0  0
 27 67  1  0  0  0  0
 29 31  1  0  0  0  0
 30 68  1  0  0  0  0
 30 69  1  0  0  0  0
 30 70  1  0  0  0  0
 31 32  2  0  0  0  0
 31 33  1  0  0  0  0
 32 34  1  0  0  0  0
 32 71  1  0  0  0  0
 33 35  2  0  0  0  0
 33 72  1  0  0  0  0
 34 36  2  0  0  0  0
 34 73  1  0  0  0  0
 35 36  1  0  0  0  0
 35 74  1  0  0  0  0
 36 75  1  0  0  0  0
M  END
> <PUBCHEM_COMPOUND_CID>
142573380

> <PUBCHEM_COMPOUND_CANONICALIZED>
1

> <PUBCHEM_CACTVS_COMPLEXITY>
644

> <PUBCHEM_CACTVS_HBOND_ACCEPTOR>
6

> <PUBCHEM_CACTVS_HBOND_DONOR>
0

> <PUBCHEM_CACTVS_ROTATABLE_BOND>
9

> <PUBCHEM_CACTVS_SUBSKEYS>
AAADcfB7oABAAAAAAAAAAAAAAAAAAWAAAAA8eIEAAAAAAAAB0AAAHgQIAAAADgzF2waz1ocMFAiiAiZiZACS2AthIrAdyCAvbJiOLqLkuZuFMChkyBPY6AeQwAAPAAAAAAAAEAAAAAAAAAAgAAAAAAAAAA==

> <PUBCHEM_IUPAC_OPENEYE_NAME>
3-(2-methoxyphenyl)-9-[4-[(4-methyl-5-phenyl-1,2,4-triazol-3-yl)sulfanyl]butyl]-3,9-diazaspiro[5.5]undecane

> <PUBCHEM_IUPAC_CAS_NAME>
3-(2-methoxyphenyl)-9-[4-[(4-methyl-5-phenyl-1,2,4-triazol-3-yl)thio]butyl]-3,9-diazaspiro[5.5]undecane

> <PUBCHEM_IUPAC_NAME_MARKUP>
3-(2-methoxyphenyl)-9-[4-[(4-methyl-5-phenyl-1,2,4-triazol-3-yl)sulfanyl]butyl]-3,9-diazaspiro[5.5]undecane

> <PUBCHEM_IUPAC_NAME>
3-(2-methoxyphenyl)-9-[4-[(4-methyl-5-phenyl-1,2,4-triazol-3-yl)sulfanyl]butyl]-3,9-diazaspiro[5.5]undecane

> <PUBCHEM_IUPAC_SYSTEMATIC_NAME>
3-(2-methoxyphenyl)-9-[4-[(4-methyl-5-phenyl-1,2,4-triazol-3-yl)sulfanyl]butyl]-3,9-diazaspiro[5.5]undecane

> <PUBCHEM_IUPAC_TRADITIONAL_NAME>
3-(2-methoxyphenyl)-9-[4-[(4-methyl-5-phenyl-1,2,4-triazol-3-yl)thio]butyl]-3,9-diazaspiro[5.5]undecane

> <PUBCHEM_IUPAC_INCHI>
InChI=1S/C29H39N5OS/c1-32-27(24-10-4-3-5-11-24)30-31-28(32)36-23-9-8-18-33-19-14-29(15-20-33)16-21-34(22-17-29)25-12-6-7-13-26(25)35-2/h3-7,10-13H,8-9,14-23H2,1-2H3

> <PUBCHEM_IUPAC_INCHIKEY>
IMPOGCXTOZKPHA-UHFFFAOYSA-N

> <PUBCHEM_XLOGP3_AA>
5.6

> <PUBCHEM_EXACT_MASS>
505.28753206

> <PUBCHEM_MOLECULAR_FORMULA>
C29H39N5OS

> <PUBCHEM_MOLECULAR_WEIGHT>
505.7

> <PUBCHEM_OPENEYE_CAN_SMILES>
CN1C(=NN=C1SCCCCN2CCC3(CC2)CCN(CC3)C4=CC=CC=C4OC)C5=CC=CC=C5

> <PUBCHEM_OPENEYE_ISO_SMILES>
CN1C(=NN=C1SCCCCN2CCC3(CC2)CCN(CC3)C4=CC=CC=C4OC)C5=CC=CC=C5

> <PUBCHEM_CACTVS_TPSA>
71.7

> <PUBCHEM_MONOISOTOPIC_WEIGHT>
505.28753206

> <PUBCHEM_TOTAL_CHARGE>
0

> <PUBCHEM_HEAVY_ATOM_COUNT>
36

> <PUBCHEM_ATOM_DEF_STEREO_COUNT>
0

> <PUBCHEM_ATOM_UDEF_STEREO_COUNT>
0

> <PUBCHEM_BOND_DEF_STEREO_COUNT>
0

> <PUBCHEM_BOND_UDEF_STEREO_COUNT>
0

> <PUBCHEM_ISOTOPIC_ATOM_COUNT>
0

> <PUBCHEM_COMPONENT_COUNT>
1

> <PUBCHEM_CACTVS_TAUTO_COUNT>
-1

> <PUBCHEM_COORDINATE_TYPE>
1
5
255

> <PUBCHEM_BONDANNOTATIONS>
18  21  8
18  22  8
21  24  8
22  25  8
24  26  8
25  26  8
31  32  8
31  33  8
32  34  8
33  35  8
34  36  8
35  36  8
5  28  8
5  29  8
6  28  8
6  7  8
7  29  8

$$$$
