208951
  -OEChem-09292322052D

 52 56  0     0  0  0  0  0  0999 V2000
    9.0084   -1.9982    0.0000 O   0  0  0  0  0  0  0  0  0  0  0  0
   10.5920   -2.8030    0.0000 O   0  0  0  0  0  0  0  0  0  0  0  0
    7.1962    1.1970    0.0000 N   0  0  0  0  0  0  0  0  0  0  0  0
    7.1962   -0.8030    0.0000 N   0  0  0  0  0  0  0  0  0  0  0  0
    9.0084   -3.6077    0.0000 N   0  0  0  0  0  0  0  0  0  0  0  0
    6.3301    0.6970    0.0000 C   0  0  0  0  0  0  0  0  0  0  0  0
    8.0622    0.6970    0.0000 C   0  0  0  0  0  0  0  0  0  0  0  0
    6.3301   -0.3030    0.0000 C   0  0  0  0  0  0  0  0  0  0  0  0
    8.0622   -0.3030    0.0000 C   0  0  0  0  0  0  0  0  0  0  0  0
    7.1962    2.1970    0.0000 C   0  0  0  0  0  0  0  0  0  0  0  0
    7.1962   -1.8030    0.0000 C   0  0  0  0  0  0  0  0  0  0  0  0
    6.3301    2.6970    0.0000 C   0  0  0  0  0  0  0  0  0  0  0  0
    8.0622   -2.3030    0.0000 C   0  0  0  0  0  0  0  0  0  0  0  0
    6.3301   -2.3030    0.0000 C   0  0  0  0  0  0  0  0  0  0  0  0
    8.0622   -3.3030    0.0000 C   0  0  0  0  0  0  0  0  0  0  0  0
    5.4641    2.1970    0.0000 C   0  0  0  0  0  0  0  0  0  0  0  0
    6.3301    3.6970    0.0000 C   0  0  0  0  0  0  0  0  0  0  0  0
    6.3301   -3.3030    0.0000 C   0  0  0  0  0  0  0  0  0  0  0  0
    7.1962   -3.8030    0.0000 C   0  0  0  0  0  0  0  0  0  0  0  0
    4.5981    2.6970    0.0000 C   0  0  0  0  0  0  0  0  0  0  0  0
    5.4641    4.1970    0.0000 C   0  0  0  0  0  0  0  0  0  0  0  0
    9.5920   -2.8030    0.0000 C   0  0  0  0  0  0  0  0  0  0  0  0
    4.5981    3.6970    0.0000 C   0  0  0  0  0  0  0  0  0  0  0  0
    3.7320    2.1970    0.0000 C   0  0  0  0  0  0  0  0  0  0  0  0
    2.8660    2.6970    0.0000 C   0  0  0  0  0  0  0  0  0  0  0  0
    3.7320    1.1970    0.0000 C   0  0  0  0  0  0  0  0  0  0  0  0
    2.0000    2.1970    0.0000 C   0  0  0  0  0  0  0  0  0  0  0  0
    2.8660    0.6970    0.0000 C   0  0  0  0  0  0  0  0  0  0  0  0
    2.0000    1.1970    0.0000 C   0  0  0  0  0  0  0  0  0  0  0  0
    6.1181    1.2796    0.0000 H   0  0  0  0  0  0  0  0  0  0  0  0
    5.7196    0.5894    0.0000 H   0  0  0  0  0  0  0  0  0  0  0  0
    8.6728    0.5894    0.0000 H   0  0  0  0  0  0  0  0  0  0  0  0
    8.2742    1.2796    0.0000 H   0  0  0  0  0  0  0  0  0  0  0  0
    5.7196   -0.1953    0.0000 H   0  0  0  0  0  0  0  0  0  0  0  0
    6.1181   -0.8856    0.0000 H   0  0  0  0  0  0  0  0  0  0  0  0
    8.2742   -0.8856    0.0000 H   0  0  0  0  0  0  0  0  0  0  0  0
    8.6728   -0.1953    0.0000 H   0  0  0  0  0  0  0  0  0  0  0  0
    7.8067    2.0894    0.0000 H   0  0  0  0  0  0  0  0  0  0  0  0
    7.4082    2.7796    0.0000 H   0  0  0  0  0  0  0  0  0  0  0  0
    5.7932   -1.9930    0.0000 H   0  0  0  0  0  0  0  0  0  0  0  0
    5.4641    1.5770    0.0000 H   0  0  0  0  0  0  0  0  0  0  0  0
    6.8671    4.0070    0.0000 H   0  0  0  0  0  0  0  0  0  0  0  0
    5.7932   -3.6130    0.0000 H   0  0  0  0  0  0  0  0  0  0  0  0
    7.1962   -4.4230    0.0000 H   0  0  0  0  0  0  0  0  0  0  0  0
    9.2010   -4.1970    0.0000 H   0  0  0  0  0  0  0  0  0  0  0  0
    5.4641    4.8170    0.0000 H   0  0  0  0  0  0  0  0  0  0  0  0
    4.0611    4.0070    0.0000 H   0  0  0  0  0  0  0  0  0  0  0  0
    2.8660    3.3170    0.0000 H   0  0  0  0  0  0  0  0  0  0  0  0
    4.2690    0.8870    0.0000 H   0  0  0  0  0  0  0  0  0  0  0  0
    1.4631    2.5070    0.0000 H   0  0  0  0  0  0  0  0  0  0  0  0
    2.8660    0.0770    0.0000 H   0  0  0  0  0  0  0  0  0  0  0  0
    1.4631    0.8870    0.0000 H   0  0  0  0  0  0  0  0  0  0  0  0
  1 13  1  0  0  0  0
  1 22  1  0  0  0  0
  2 22  2  0  0  0  0
  3  6  1  0  0  0  0
  3  7  1  0  0  0  0
  3 10  1  0  0  0  0
  4  8  1  0  0  0  0
  4  9  1  0  0  0  0
  4 11  1  0  0  0  0
  5 15  1  0  0  0  0
  5 22  1  0  0  0  0
  5 45  1  0  0  0  0
  6  8  1  0  0  0  0
  6 30  1  0  0  0  0
  6 31  1  0  0  0  0
  7  9  1  0  0  0  0
  7 32  1  0  0  0  0
  7 33  1  0  0  0  0
  8 34  1  0  0  0  0
  8 35  1  0  0  0  0
  9 36  1  0  0  0  0
  9 37  1  0  0  0  0
 10 12  1  0  0  0  0
 10 38  1  0  0  0  0
 10 39  1  0  0  0  0
 11 13  1  0  0  0  0
 11 14  2  0  0  0  0
 12 16  2  0  0  0  0
 12 17  1  0  0  0  0
 13 15  2  0  0  0  0
 14 18  1  0  0  0  0
 14 40  1  0  0  0  0
 15 19  1  0  0  0  0
 16 20  1  0  0  0  0
 16 41  1  0  0  0  0
 17 21  2  0  0  0  0
 17 42  1  0  0  0  0
 18 19  2  0  0  0  0
 18 43  1  0  0  0  0
 19 44  1  0  0  0  0
 20 23  2  0  0  0  0
 20 24  1  0  0  0  0
 21 23  1  0  0  0  0
 21 46  1  0  0  0  0
 23 47  1  0  0  0  0
 24 25  2  0  0  0  0
 24 26  1  0  0  0  0
 25 27  1  0  0  0  0
 25 48  1  0  0  0  0
 26 28  2  0  0  0  0
 26 49  1  0  0  0  0
 27 29  2  0  0  0  0
 27 50  1  0  0  0  0
 28 29  1  0  0  0  0
 28 51  1  0  0  0  0
 29 52  1  0  0  0  0
M  END
> <PUBCHEM_COMPOUND_CID>
208951

> <PUBCHEM_COMPOUND_CANONICALIZED>
1

> <PUBCHEM_CACTVS_COMPLEXITY>
556

> <PUBCHEM_CACTVS_HBOND_ACCEPTOR>
4

> <PUBCHEM_CACTVS_HBOND_DONOR>
1

> <PUBCHEM_CACTVS_ROTATABLE_BOND>
4

> <PUBCHEM_CACTVS_SUBSKEYS>
AAADceB7MAAAAAAAAAAAAAAAAAAAAWAAAAA8YMEAAAAAAFgBUAAAHgAQAAAADAzBmAQwzoPABACIAiRCWACCCAAhIgAIiAANbIkOZiLE8dudMihk1BHY6AeQwMAOgAACAAQAEAAAAAQACAAgAAAAAAAAAA==

> <PUBCHEM_IUPAC_OPENEYE_NAME>
7-[4-[(3-phenylphenyl)methyl]piperazin-1-yl]-3H-1,3-benzoxazol-2-one

> <PUBCHEM_IUPAC_CAS_NAME>
7-[4-[(3-phenylphenyl)methyl]-1-piperazinyl]-3H-1,3-benzoxazol-2-one

> <PUBCHEM_IUPAC_NAME_MARKUP>
7-[4-[(3-phenylphenyl)methyl]piperazin-1-yl]-3<I>H</I>-1,3-benzoxazol-2-one

> <PUBCHEM_IUPAC_NAME>
7-[4-[(3-phenylphenyl)methyl]piperazin-1-yl]-3H-1,3-benzoxazol-2-one

> <PUBCHEM_IUPAC_SYSTEMATIC_NAME>
7-[4-[(3-phenylphenyl)methyl]piperazin-1-yl]-3H-1,3-benzoxazol-2-one

> <PUBCHEM_IUPAC_TRADITIONAL_NAME>
7-[4-(3-phenylbenzyl)piperazino]-3H-1,3-benzoxazol-2-one

> <PUBCHEM_IUPAC_INCHI>
InChI=1S/C24H23N3O2/c28-24-25-21-10-5-11-22(23(21)29-24)27-14-12-26(13-15-27)17-18-6-4-9-20(16-18)19-7-2-1-3-8-19/h1-11,16H,12-15,17H2,(H,25,28)

> <PUBCHEM_IUPAC_INCHIKEY>
CYGODHVAJQTCBG-UHFFFAOYSA-N

> <PUBCHEM_XLOGP3_AA>
4.2

> <PUBCHEM_EXACT_MASS>
385.17902698

> <PUBCHEM_MOLECULAR_FORMULA>
C24H23N3O2

> <PUBCHEM_MOLECULAR_WEIGHT>
385.5

> <PUBCHEM_OPENEYE_CAN_SMILES>
C1CN(CCN1CC2=CC(=CC=C2)C3=CC=CC=C3)C4=CC=CC5=C4OC(=O)N5

> <PUBCHEM_OPENEYE_ISO_SMILES>
C1CN(CCN1CC2=CC(=CC=C2)C3=CC=CC=C3)C4=CC=CC5=C4OC(=O)N5

> <PUBCHEM_CACTVS_TPSA>
44.8

> <PUBCHEM_MONOISOTOPIC_WEIGHT>
385.17902698

> <PUBCHEM_TOTAL_CHARGE>
0

> <PUBCHEM_HEAVY_ATOM_COUNT>
29

> <PUBCHEM_ATOM_DEF_STEREO_COUNT>
0

> <PUBCHEM_ATOM_UDEF_STEREO_COUNT>
0

> <PUBCHEM_BOND_DEF_STEREO_COUNT>
0

> <PUBCHEM_BOND_UDEF_STEREO_COUNT>
0

> <PUBCHEM_ISOTOPIC_ATOM_COUNT>
0

> <PUBCHEM_COMPONENT_COUNT>
1

> <PUBCHEM_CACTVS_TAUTO_COUNT>
2

> <PUBCHEM_COORDINATE_TYPE>
1
5
255

> <PUBCHEM_BONDANNOTATIONS>
1  13  8
1  22  8
11  13  8
11  14  8
12  16  8
12  17  8
13  15  8
14  18  8
15  19  8
16  20  8
17  21  8
18  19  8
20  23  8
21  23  8
24  25  8
24  26  8
25  27  8
26  28  8
27  29  8
28  29  8
5  15  8
5  22  8

$$$$
