56361664
  -OEChem-09292322062D

 56 59  0     0  0  0  0  0  0999 V2000
    6.7619   -4.0661    0.0000 O   0  0  0  0  0  0  0  0  0  0  0  0
   10.7619    1.1300    0.0000 O   0  0  0  0  0  0  0  0  0  0  0  0
   12.7619    4.5941    0.0000 O   0  0  0  0  0  0  0  0  0  0  0  0
    7.7619   -0.6020    0.0000 N   0  0  0  0  0  0  0  0  0  0  0  0
    6.7619   -2.3341    0.0000 N   0  0  0  0  0  0  0  0  0  0  0  0
    4.6783   -4.0048    0.0000 N   0  0  0  0  0  0  0  0  0  0  0  0
    6.7619   -0.6020    0.0000 C   0  0  0  0  0  0  0  0  0  0  0  0
    8.2619   -1.4680    0.0000 C   0  0  0  0  0  0  0  0  0  0  0  0
    6.2619   -1.4680    0.0000 C   0  0  0  0  0  0  0  0  0  0  0  0
    7.7619   -2.3341    0.0000 C   0  0  0  0  0  0  0  0  0  0  0  0
    8.2619    0.2640    0.0000 C   0  0  0  0  0  0  0  0  0  0  0  0
    9.2619    0.2640    0.0000 C   0  0  0  0  0  0  0  0  0  0  0  0
    6.2619   -3.2001    0.0000 C   0  0  0  0  0  0  0  0  0  0  0  0
    5.2619   -3.2001    0.0000 C   0  0  0  0  0  0  0  0  0  0  0  0
    9.7619    1.1300    0.0000 C   0  0  0  0  0  0  0  0  0  0  0  0
    4.6783   -2.3954    0.0000 C   0  0  0  0  0  0  0  0  0  0  0  0
    3.7320   -3.7001    0.0000 C   0  0  0  0  0  0  0  0  0  0  0  0
    3.7320   -2.7001    0.0000 C   0  0  0  0  0  0  0  0  0  0  0  0
    2.8660   -4.2001    0.0000 C   0  0  0  0  0  0  0  0  0  0  0  0
    2.8660   -2.2001    0.0000 C   0  0  0  0  0  0  0  0  0  0  0  0
   11.2619    1.9961    0.0000 C   0  0  0  0  0  0  0  0  0  0  0  0
    2.0000   -3.7001    0.0000 C   0  0  0  0  0  0  0  0  0  0  0  0
    2.0000   -2.7001    0.0000 C   0  0  0  0  0  0  0  0  0  0  0  0
   10.7619    2.8621    0.0000 C   0  0  0  0  0  0  0  0  0  0  0  0
   12.2619    1.9961    0.0000 C   0  0  0  0  0  0  0  0  0  0  0  0
   11.2619    3.7281    0.0000 C   0  0  0  0  0  0  0  0  0  0  0  0
   12.7619    2.8621    0.0000 C   0  0  0  0  0  0  0  0  0  0  0  0
   12.2619    3.7281    0.0000 C   0  0  0  0  0  0  0  0  0  0  0  0
   13.7619    4.5941    0.0000 C   0  0  0  0  0  0  0  0  0  0  0  0
    6.8695    0.0086    0.0000 H   0  0  0  0  0  0  0  0  0  0  0  0
    6.1793   -0.3900    0.0000 H   0  0  0  0  0  0  0  0  0  0  0  0
    8.7368   -1.8666    0.0000 H   0  0  0  0  0  0  0  0  0  0  0  0
    8.7368   -1.0695    0.0000 H   0  0  0  0  0  0  0  0  0  0  0  0
    5.7869   -1.0695    0.0000 H   0  0  0  0  0  0  0  0  0  0  0  0
    5.7869   -1.8666    0.0000 H   0  0  0  0  0  0  0  0  0  0  0  0
    7.6542   -2.9446    0.0000 H   0  0  0  0  0  0  0  0  0  0  0  0
    8.3445   -2.5461    0.0000 H   0  0  0  0  0  0  0  0  0  0  0  0
    8.3695    0.8746    0.0000 H   0  0  0  0  0  0  0  0  0  0  0  0
    7.6793    0.4761    0.0000 H   0  0  0  0  0  0  0  0  0  0  0  0
    9.1542   -0.3466    0.0000 H   0  0  0  0  0  0  0  0  0  0  0  0
    9.8445    0.0520    0.0000 H   0  0  0  0  0  0  0  0  0  0  0  0
    9.8695    1.7406    0.0000 H   0  0  0  0  0  0  0  0  0  0  0  0
    9.1793    1.3421    0.0000 H   0  0  0  0  0  0  0  0  0  0  0  0
    4.8709   -4.5941    0.0000 H   0  0  0  0  0  0  0  0  0  0  0  0
    4.8709   -1.8060    0.0000 H   0  0  0  0  0  0  0  0  0  0  0  0
    2.8660   -4.8201    0.0000 H   0  0  0  0  0  0  0  0  0  0  0  0
    2.8660   -1.5801    0.0000 H   0  0  0  0  0  0  0  0  0  0  0  0
    1.4631   -4.0101    0.0000 H   0  0  0  0  0  0  0  0  0  0  0  0
    1.4631   -2.3901    0.0000 H   0  0  0  0  0  0  0  0  0  0  0  0
   10.1419    2.8621    0.0000 H   0  0  0  0  0  0  0  0  0  0  0  0
   12.5719    1.4591    0.0000 H   0  0  0  0  0  0  0  0  0  0  0  0
   10.9519    4.2650    0.0000 H   0  0  0  0  0  0  0  0  0  0  0  0
   13.3819    2.8621    0.0000 H   0  0  0  0  0  0  0  0  0  0  0  0
   13.7619    3.9741    0.0000 H   0  0  0  0  0  0  0  0  0  0  0  0
   14.3819    4.5941    0.0000 H   0  0  0  0  0  0  0  0  0  0  0  0
   13.7619    5.2141    0.0000 H   0  0  0  0  0  0  0  0  0  0  0  0
  1 13  2  0  0  0  0
  2 15  1  0  0  0  0
  2 21  1  0  0  0  0
  3 28  1  0  0  0  0
  3 29  1  0  0  0  0
  4  7  1  0  0  0  0
  4  8  1  0  0  0  0
  4 11  1  0  0  0  0
  5  9  1  0  0  0  0
  5 10  1  0  0  0  0
  5 13  1  0  0  0  0
  6 14  1  0  0  0  0
  6 17  1  0  0  0  0
  6 44  1  0  0  0  0
  7  9  1  0  0  0  0
  7 30  1  0  0  0  0
  7 31  1  0  0  0  0
  8 10  1  0  0  0  0
  8 32  1  0  0  0  0
  8 33  1  0  0  0  0
  9 34  1  0  0  0  0
  9 35  1  0  0  0  0
 10 36  1  0  0  0  0
 10 37  1  0  0  0  0
 11 12  1  0  0  0  0
 11 38  1  0  0  0  0
 11 39  1  0  0  0  0
 12 15  1  0  0  0  0
 12 40  1  0  0  0  0
 12 41  1  0  0  0  0
 13 14  1  0  0  0  0
 14 16  2  0  0  0  0
 15 42  1  0  0  0  0
 15 43  1  0  0  0  0
 16 18  1  0  0  0  0
 16 45  1  0  0  0  0
 17 18  1  0  0  0  0
 17 19  2  0  0  0  0
 18 20  2  0  0  0  0
 19 22  1  0  0  0  0
 19 46  1  0  0  0  0
 20 23  1  0  0  0  0
 20 47  1  0  0  0  0
 21 24  2  0  0  0  0
 21 25  1  0  0  0  0
 22 23  2  0  0  0  0
 22 48  1  0  0  0  0
 23 49  1  0  0  0  0
 24 26  1  0  0  0  0
 24 50  1  0  0  0  0
 25 27  2  0  0  0  0
 25 51  1  0  0  0  0
 26 28  2  0  0  0  0
 26 52  1  0  0  0  0
 27 28  1  0  0  0  0
 27 53  1  0  0  0  0
 29 54  1  0  0  0  0
 29 55  1  0  0  0  0
 29 56  1  0  0  0  0
M  END
> <PUBCHEM_COMPOUND_CID>
56361664

> <PUBCHEM_COMPOUND_CANONICALIZED>
1

> <PUBCHEM_CACTVS_COMPLEXITY>
516

> <PUBCHEM_CACTVS_HBOND_ACCEPTOR>
4

> <PUBCHEM_CACTVS_HBOND_DONOR>
1

> <PUBCHEM_CACTVS_ROTATABLE_BOND>
7

> <PUBCHEM_CACTVS_SUBSKEYS>
AAADceB7MAAAAAAAAAAAAAAAAAAAAWAAAAA8YIAAAAAAAFgB9AAAHgAQAAAADAzhngYyxvPJlACoAyVyVACCiCAnIiAImSG+bNgMZvLEtbuWOSjm1hHI6YfYyYCeAQAAAAACAAACAAAAAAQAAAAAAAAAAA==

> <PUBCHEM_IUPAC_OPENEYE_NAME>
1H-indol-2-yl-[4-[3-(4-methoxyphenoxy)propyl]piperazin-1-yl]methanone

> <PUBCHEM_IUPAC_CAS_NAME>
1H-indol-2-yl-[4-[3-(4-methoxyphenoxy)propyl]-1-piperazinyl]methanone

> <PUBCHEM_IUPAC_NAME_MARKUP>
1<I>H</I>-indol-2-yl-[4-[3-(4-methoxyphenoxy)propyl]piperazin-1-yl]methanone

> <PUBCHEM_IUPAC_NAME>
1H-indol-2-yl-[4-[3-(4-methoxyphenoxy)propyl]piperazin-1-yl]methanone

> <PUBCHEM_IUPAC_SYSTEMATIC_NAME>
1H-indol-2-yl-[4-[3-(4-methoxyphenoxy)propyl]piperazin-1-yl]methanone

> <PUBCHEM_IUPAC_TRADITIONAL_NAME>
1H-indol-2-yl-[4-[3-(4-methoxyphenoxy)propyl]piperazino]methanone

> <PUBCHEM_IUPAC_INCHI>
InChI=1S/C23H27N3O3/c1-28-19-7-9-20(10-8-19)29-16-4-11-25-12-14-26(15-13-25)23(27)22-17-18-5-2-3-6-21(18)24-22/h2-3,5-10,17,24H,4,11-16H2,1H3

> <PUBCHEM_IUPAC_INCHIKEY>
OCFAISWIUDZBGF-UHFFFAOYSA-N

> <PUBCHEM_XLOGP3_AA>
3.6

> <PUBCHEM_EXACT_MASS>
393.20524173

> <PUBCHEM_MOLECULAR_FORMULA>
C23H27N3O3

> <PUBCHEM_MOLECULAR_WEIGHT>
393.5

> <PUBCHEM_OPENEYE_CAN_SMILES>
COC1=CC=C(C=C1)OCCCN2CCN(CC2)C(=O)C3=CC4=CC=CC=C4N3

> <PUBCHEM_OPENEYE_ISO_SMILES>
COC1=CC=C(C=C1)OCCCN2CCN(CC2)C(=O)C3=CC4=CC=CC=C4N3

> <PUBCHEM_CACTVS_TPSA>
57.8

> <PUBCHEM_MONOISOTOPIC_WEIGHT>
393.20524173

> <PUBCHEM_TOTAL_CHARGE>
0

> <PUBCHEM_HEAVY_ATOM_COUNT>
29

> <PUBCHEM_ATOM_DEF_STEREO_COUNT>
0

> <PUBCHEM_ATOM_UDEF_STEREO_COUNT>
0

> <PUBCHEM_BOND_DEF_STEREO_COUNT>
0

> <PUBCHEM_BOND_UDEF_STEREO_COUNT>
0

> <PUBCHEM_ISOTOPIC_ATOM_COUNT>
0

> <PUBCHEM_COMPONENT_COUNT>
1

> <PUBCHEM_CACTVS_TAUTO_COUNT>
-1

> <PUBCHEM_COORDINATE_TYPE>
1
5
255

> <PUBCHEM_BONDANNOTATIONS>
14  16  8
16  18  8
17  18  8
17  19  8
18  20  8
19  22  8
20  23  8
21  24  8
21  25  8
22  23  8
24  26  8
25  27  8
26  28  8
27  28  8
6  14  8
6  17  8

$$$$
