71528209
  -OEChem-09292322332D

 68 72  0     0  0  0  0  0  0999 V2000
    4.0981    5.9330    0.0000 F   0  0  0  0  0  0  0  0  0  0  0  0
    5.0981    5.9330    0.0000 F   0  0  0  0  0  0  0  0  0  0  0  0
    4.5981   -0.9330    0.0000 O   0  0  0  0  0  0  0  0  0  0  0  0
    2.8660   -3.9330    0.0000 N   0  0  0  0  0  0  0  0  0  0  0  0
    3.7320    4.5670    0.0000 N   0  0  0  0  0  0  0  0  0  0  0  0
    5.4641    4.5670    0.0000 N   0  3  0  0  0  0  0  0  0  0  0  0
    2.0000   -4.4330    0.0000 C   0  0  0  0  0  0  0  0  0  0  0  0
    3.7320   -4.4330    0.0000 C   0  0  0  0  0  0  0  0  0  0  0  0
    3.7320    3.5670    0.0000 C   0  0  0  0  0  0  0  0  0  0  0  0
    5.4641    3.5670    0.0000 C   0  0  0  0  0  0  0  0  0  0  0  0
    2.0000   -5.4330    0.0000 C   0  0  0  0  0  0  0  0  0  0  0  0
    3.7320   -5.4330    0.0000 C   0  0  0  0  0  0  0  0  0  0  0  0
    2.8660   -5.9330    0.0000 C   0  0  0  0  0  0  0  0  0  0  0  0
    4.5981    3.0670    0.0000 C   0  0  0  0  0  0  0  0  0  0  0  0
    2.8660   -2.9330    0.0000 C   0  0  0  0  0  0  0  0  0  0  0  0
    2.7858    4.8717    0.0000 C   0  0  0  0  0  0  0  0  0  0  0  0
    6.4103    4.8717    0.0000 C   0  0  0  0  0  0  0  0  0  0  0  0
    2.7858    3.2622    0.0000 C   0  0  0  0  0  0  0  0  0  0  0  0
    6.4103    3.2622    0.0000 C   0  0  0  0  0  0  0  0  0  0  0  0
    2.2022    4.0670    0.0000 C   0  0  0  0  0  0  0  0  0  0  0  0
    6.9939    4.0670    0.0000 C   0  0  0  0  0  0  0  0  0  0  0  0
    3.7320   -2.4330    0.0000 C   0  0  0  0  0  0  0  0  0  0  0  0
    4.5981    2.0670    0.0000 C   0  0  0  0  0  0  0  0  0  0  0  0
    2.4752    5.8222    0.0000 C   0  0  0  0  0  0  0  0  0  0  0  0
    6.7210    5.8222    0.0000 C   0  0  0  0  0  0  0  0  0  0  0  0
    3.7320   -1.4330    0.0000 C   0  0  0  0  0  0  0  0  0  0  0  0
    2.4752    2.3117    0.0000 C   0  0  0  0  0  0  0  0  0  0  0  0
    6.7210    2.3117    0.0000 C   0  0  0  0  0  0  0  0  0  0  0  0
    3.7320    1.5670    0.0000 C   0  0  0  0  0  0  0  0  0  0  0  0
    5.4641    1.5670    0.0000 C   0  0  0  0  0  0  0  0  0  0  0  0
    4.5981    0.0670    0.0000 C   0  0  0  0  0  0  0  0  0  0  0  0
    3.7320    0.5670    0.0000 C   0  0  0  0  0  0  0  0  0  0  0  0
    5.4641    0.5670    0.0000 C   0  0  0  0  0  0  0  0  0  0  0  0
    4.5981    5.0670    0.0000 B   0  5  0  0  0  0  0  0  0  0  0  0
    1.7880   -3.8504    0.0000 H   0  0  0  0  0  0  0  0  0  0  0  0
    1.3894   -4.5407    0.0000 H   0  0  0  0  0  0  0  0  0  0  0  0
    4.3426   -4.5407    0.0000 H   0  0  0  0  0  0  0  0  0  0  0  0
    3.9441   -3.8504    0.0000 H   0  0  0  0  0  0  0  0  0  0  0  0
    1.3894   -5.3254    0.0000 H   0  0  0  0  0  0  0  0  0  0  0  0
    1.7880   -6.0156    0.0000 H   0  0  0  0  0  0  0  0  0  0  0  0
    3.9441   -6.0156    0.0000 H   0  0  0  0  0  0  0  0  0  0  0  0
    4.3426   -5.3254    0.0000 H   0  0  0  0  0  0  0  0  0  0  0  0
    2.4675   -6.4080    0.0000 H   0  0  0  0  0  0  0  0  0  0  0  0
    3.2646   -6.4080    0.0000 H   0  0  0  0  0  0  0  0  0  0  0  0
    2.6540   -2.3504    0.0000 H   0  0  0  0  0  0  0  0  0  0  0  0
    2.2554   -3.0407    0.0000 H   0  0  0  0  0  0  0  0  0  0  0  0
    1.5822    4.0670    0.0000 H   0  0  0  0  0  0  0  0  0  0  0  0
    7.6139    4.0670    0.0000 H   0  0  0  0  0  0  0  0  0  0  0  0
    3.9441   -3.0156    0.0000 H   0  0  0  0  0  0  0  0  0  0  0  0
    4.3426   -2.3253    0.0000 H   0  0  0  0  0  0  0  0  0  0  0  0
    3.0645    6.0148    0.0000 H   0  0  0  0  0  0  0  0  0  0  0  0
    2.2826    6.4116    0.0000 H   0  0  0  0  0  0  0  0  0  0  0  0
    1.8858    5.6296    0.0000 H   0  0  0  0  0  0  0  0  0  0  0  0
    7.3103    5.6296    0.0000 H   0  0  0  0  0  0  0  0  0  0  0  0
    6.9136    6.4116    0.0000 H   0  0  0  0  0  0  0  0  0  0  0  0
    6.1317    6.0148    0.0000 H   0  0  0  0  0  0  0  0  0  0  0  0
    3.5200   -0.8504    0.0000 H   0  0  0  0  0  0  0  0  0  0  0  0
    3.1215   -1.5407    0.0000 H   0  0  0  0  0  0  0  0  0  0  0  0
    1.8858    2.5044    0.0000 H   0  0  0  0  0  0  0  0  0  0  0  0
    2.2826    1.7224    0.0000 H   0  0  0  0  0  0  0  0  0  0  0  0
    3.0645    2.1191    0.0000 H   0  0  0  0  0  0  0  0  0  0  0  0
    6.1317    2.1191    0.0000 H   0  0  0  0  0  0  0  0  0  0  0  0
    6.9136    1.7224    0.0000 H   0  0  0  0  0  0  0  0  0  0  0  0
    7.3103    2.5044    0.0000 H   0  0  0  0  0  0  0  0  0  0  0  0
    3.1951    1.8770    0.0000 H   0  0  0  0  0  0  0  0  0  0  0  0
    6.0010    1.8770    0.0000 H   0  0  0  0  0  0  0  0  0  0  0  0
    3.1951    0.2570    0.0000 H   0  0  0  0  0  0  0  0  0  0  0  0
    6.0010    0.2570    0.0000 H   0  0  0  0  0  0  0  0  0  0  0  0
  1 34  1  0  0  0  0
  2 34  1  0  0  0  0
  3 26  1  0  0  0  0
  3 31  1  0  0  0  0
  4  7  1  0  0  0  0
  4  8  1  0  0  0  0
  4 15  1  0  0  0  0
  5  9  1  0  0  0  0
  5 16  1  0  0  0  0
  5 34  1  0  0  0  0
  6 10  1  0  0  0  0
  6 17  2  0  0  0  0
  6 34  1  0  0  0  0
  7 11  1  0  0  0  0
  7 35  1  0  0  0  0
  7 36  1  0  0  0  0
  8 12  1  0  0  0  0
  8 37  1  0  0  0  0
  8 38  1  0  0  0  0
  9 14  1  0  0  0  0
  9 18  2  0  0  0  0
 10 14  2  0  0  0  0
 10 19  1  0  0  0  0
 11 13  1  0  0  0  0
 11 39  1  0  0  0  0
 11 40  1  0  0  0  0
 12 13  1  0  0  0  0
 12 41  1  0  0  0  0
 12 42  1  0  0  0  0
 13 43  1  0  0  0  0
 13 44  1  0  0  0  0
 14 23  1  0  0  0  0
 15 22  1  0  0  0  0
 15 45  1  0  0  0  0
 15 46  1  0  0  0  0
 16 20  2  0  0  0  0
 16 24  1  0  0  0  0
 17 21  1  0  0  0  0
 17 25  1  0  0  0  0
 18 20  1  0  0  0  0
 18 27  1  0  0  0  0
 19 21  2  0  0  0  0
 19 28  1  0  0  0  0
 20 47  1  0  0  0  0
 21 48  1  0  0  0  0
 22 26  1  0  0  0  0
 22 49  1  0  0  0  0
 22 50  1  0  0  0  0
 23 29  2  0  0  0  0
 23 30  1  0  0  0  0
 24 51  1  0  0  0  0
 24 52  1  0  0  0  0
 24 53  1  0  0  0  0
 25 54  1  0  0  0  0
 25 55  1  0  0  0  0
 25 56  1  0  0  0  0
 26 57  1  0  0  0  0
 26 58  1  0  0  0  0
 27 59  1  0  0  0  0
 27 60  1  0  0  0  0
 27 61  1  0  0  0  0
 28 62  1  0  0  0  0
 28 63  1  0  0  0  0
 28 64  1  0  0  0  0
 29 32  1  0  0  0  0
 29 65  1  0  0  0  0
 30 33  2  0  0  0  0
 30 66  1  0  0  0  0
 31 32  2  0  0  0  0
 31 33  1  0  0  0  0
 32 67  1  0  0  0  0
 33 68  1  0  0  0  0
M  CHG  2   6   1  34  -1
M  END
> <PUBCHEM_COMPOUND_CID>
71528209

> <PUBCHEM_COMPOUND_CANONICALIZED>
1

> <PUBCHEM_CACTVS_COMPLEXITY>
829

> <PUBCHEM_CACTVS_HBOND_ACCEPTOR>
5

> <PUBCHEM_CACTVS_HBOND_DONOR>
0

> <PUBCHEM_CACTVS_ROTATABLE_BOND>
6

> <PUBCHEM_CACTVS_SUBSKEYS>
AAADcfJ7IYAAAAAAAAAAAAAAAAAAAWIAAAA8QIAAAAAAAEABwAAUHgAAAAAADAzhngYyhpMIFACgAyRiRACCiCAhIiAImCA+bJgMJuLEsZuGOCjmwBHI6AeQwOAOIAAAAAAAAABAAAAAAAAAAAAAAAAAAA==

> <PUBCHEM_IUPAC_OPENEYE_NAME>
2,2-difluoro-4,6,10,12-tetramethyl-8-[4-[3-(1-piperidyl)propoxy]phenyl]-3-aza-1-azonia-2-boranuidatricyclo[7.3.0.03,7]dodeca-1(12),4,6,8,10-pentaene

> <PUBCHEM_IUPAC_CAS_NAME>
2,2-difluoro-4,6,10,12-tetramethyl-8-[4-[3-(1-piperidinyl)propoxy]phenyl]-3-aza-1-azonia-2-boranuidatricyclo[7.3.0.03,7]dodeca-1(12),4,6,8,10-pentaene

> <PUBCHEM_IUPAC_NAME_MARKUP>
2,2-difluoro-4,6,10,12-tetramethyl-8-[4-(3-piperidin-1-ylpropoxy)phenyl]-3-aza-1-azonia-2-boranuidatricyclo[7.3.0.0<SUP>3,7</SUP>]dodeca-1(12),4,6,8,10-pentaene

> <PUBCHEM_IUPAC_NAME>
2,2-difluoro-4,6,10,12-tetramethyl-8-[4-(3-piperidin-1-ylpropoxy)phenyl]-3-aza-1-azonia-2-boranuidatricyclo[7.3.0.03,7]dodeca-1(12),4,6,8,10-pentaene

> <PUBCHEM_IUPAC_SYSTEMATIC_NAME>
2,2-bis(fluoranyl)-4,6,10,12-tetramethyl-8-[4-(3-piperidin-1-ylpropoxy)phenyl]-3-aza-1-azonia-2-boranuidatricyclo[7.3.0.03,7]dodeca-1(12),4,6,8,10-pentaene

> <PUBCHEM_IUPAC_TRADITIONAL_NAME>
2,2-difluoro-4,6,10,12-tetramethyl-8-[4-(3-piperidinopropoxy)phenyl]-3-aza-1-azonia-2-boranuidatricyclo[7.3.0.03,7]dodeca-1(12),4,6,8,10-pentaene

> <PUBCHEM_IUPAC_INCHI>
InChI=1S/C27H34BF2N3O/c1-19-17-21(3)32-26(19)25(27-20(2)18-22(4)33(27)28(32,29)30)23-9-11-24(12-10-23)34-16-8-15-31-13-6-5-7-14-31/h9-12,17-18H,5-8,13-16H2,1-4H3

> <PUBCHEM_IUPAC_INCHIKEY>
HPRWHXGAJGUOCP-UHFFFAOYSA-N

> <PUBCHEM_EXACT_MASS>
465.2762992

> <PUBCHEM_MOLECULAR_FORMULA>
C27H34BF2N3O

> <PUBCHEM_MOLECULAR_WEIGHT>
465.4

> <PUBCHEM_OPENEYE_CAN_SMILES>
[B-]1(N2C(=CC(=C2C(=C3[N+]1=C(C=C3C)C)C4=CC=C(C=C4)OCCCN5CCCCC5)C)C)(F)F

> <PUBCHEM_OPENEYE_ISO_SMILES>
[B-]1(N2C(=CC(=C2C(=C3[N+]1=C(C=C3C)C)C4=CC=C(C=C4)OCCCN5CCCCC5)C)C)(F)F

> <PUBCHEM_CACTVS_TPSA>
20.4

> <PUBCHEM_MONOISOTOPIC_WEIGHT>
465.2762992

> <PUBCHEM_TOTAL_CHARGE>
0

> <PUBCHEM_HEAVY_ATOM_COUNT>
34

> <PUBCHEM_ATOM_DEF_STEREO_COUNT>
0

> <PUBCHEM_ATOM_UDEF_STEREO_COUNT>
0

> <PUBCHEM_BOND_DEF_STEREO_COUNT>
0

> <PUBCHEM_BOND_UDEF_STEREO_COUNT>
0

> <PUBCHEM_ISOTOPIC_ATOM_COUNT>
0

> <PUBCHEM_COMPONENT_COUNT>
1

> <PUBCHEM_CACTVS_TAUTO_COUNT>
-1

> <PUBCHEM_COORDINATE_TYPE>
1
5
255

> <PUBCHEM_BONDANNOTATIONS>
16  20  8
18  20  8
23  29  8
23  30  8
29  32  8
30  33  8
31  32  8
31  33  8
5  16  8
5  9  8
9  18  8

$$$$
