11554548
  -OEChem-09292322152D

 67 71  0     1  0  0  0  0  0999 V2000
    7.0693   -1.1698    0.0000 O   0  0  0  0  0  0  0  0  0  0  0  0
    2.0242   -2.9558    0.0000 O   0  0  0  0  0  0  0  0  0  0  0  0
   12.5693    1.4283    0.0000 N   0  0  3  0  0  0  0  0  0  0  0  0
    7.0693    0.5623    0.0000 N   0  0  0  0  0  0  0  0  0  0  0  0
    3.5624   -2.0798    0.0000 N   0  0  0  0  0  0  0  0  0  0  0  0
   18.2881    2.9558    0.0000 N   0  0  0  0  0  0  0  0  0  0  0  0
   10.0693    0.5623    0.0000 C   0  0  0  0  0  0  0  0  0  0  0  0
    9.5693   -0.3038    0.0000 C   0  0  0  0  0  0  0  0  0  0  0  0
    9.5693    1.4283    0.0000 C   0  0  0  0  0  0  0  0  0  0  0  0
    8.0693    0.5623    0.0000 C   0  0  0  0  0  0  0  0  0  0  0  0
    8.5693   -0.3038    0.0000 C   0  0  0  0  0  0  0  0  0  0  0  0
    8.5693    1.4283    0.0000 C   0  0  0  0  0  0  0  0  0  0  0  0
   11.0693    0.5623    0.0000 C   0  0  0  0  0  0  0  0  0  0  0  0
   11.5693    1.4283    0.0000 C   0  0  0  0  0  0  0  0  0  0  0  0
   13.0031    2.3292    0.0000 C   0  0  0  0  0  0  0  0  0  0  0  0
   13.0031    0.5273    0.0000 C   0  0  0  0  0  0  0  0  0  0  0  0
   13.9781    2.5518    0.0000 C   0  0  0  0  0  0  0  0  0  0  0  0
   13.9781    0.3048    0.0000 C   0  0  0  0  0  0  0  0  0  0  0  0
   14.7599    1.9283    0.0000 C   0  0  0  0  0  0  0  0  0  0  0  0
   14.7599    0.9283    0.0000 C   0  0  0  0  0  0  0  0  0  0  0  0
    6.5693   -0.3038    0.0000 C   0  0  0  0  0  0  0  0  0  0  0  0
   15.6538    2.4630    0.0000 C   0  0  0  0  0  0  0  0  0  0  0  0
   15.6538    0.3936    0.0000 C   0  0  0  0  0  0  0  0  0  0  0  0
    5.5693   -0.3038    0.0000 C   0  0  0  0  0  0  0  0  0  0  0  0
   16.5599    1.9491    0.0000 C   0  0  0  0  0  0  0  0  0  0  0  0
   16.5599    0.9075    0.0000 C   0  0  0  0  0  0  0  0  0  0  0  0
    5.0693   -1.1698    0.0000 C   0  0  0  0  0  0  0  0  0  0  0  0
    5.0693    0.5623    0.0000 C   0  0  0  0  0  0  0  0  0  0  0  0
    4.0693   -1.1698    0.0000 C   0  0  0  0  0  0  0  0  0  0  0  0
    4.0693    0.5623    0.0000 C   0  0  0  0  0  0  0  0  0  0  0  0
    3.5693   -0.3038    0.0000 C   0  0  0  0  0  0  0  0  0  0  0  0
   17.4240    2.4524    0.0000 C   0  0  0  0  0  0  0  0  0  0  0  0
    2.5278   -0.2877    0.0000 C   0  0  0  0  0  0  0  0  0  0  0  0
    2.5208   -2.0878    0.0000 C   0  0  0  0  0  0  0  0  0  0  0  0
    2.0000   -1.1857    0.0000 C   0  0  0  0  0  0  0  0  0  0  0  0
   10.3793    0.0253    0.0000 H   0  0  0  0  0  0  0  0  0  0  0  0
    9.4616   -0.9143    0.0000 H   0  0  0  0  0  0  0  0  0  0  0  0
   10.1519   -0.5158    0.0000 H   0  0  0  0  0  0  0  0  0  0  0  0
   10.1519    1.6403    0.0000 H   0  0  0  0  0  0  0  0  0  0  0  0
    9.4616    2.0389    0.0000 H   0  0  0  0  0  0  0  0  0  0  0  0
    7.7593    0.0253    0.0000 H   0  0  0  0  0  0  0  0  0  0  0  0
    7.9866   -0.5158    0.0000 H   0  0  0  0  0  0  0  0  0  0  0  0
    8.6769   -0.9143    0.0000 H   0  0  0  0  0  0  0  0  0  0  0  0
    8.6769    2.0389    0.0000 H   0  0  0  0  0  0  0  0  0  0  0  0
    7.9866    1.6403    0.0000 H   0  0  0  0  0  0  0  0  0  0  0  0
   10.9616   -0.0483    0.0000 H   0  0  0  0  0  0  0  0  0  0  0  0
   11.6519    0.3502    0.0000 H   0  0  0  0  0  0  0  0  0  0  0  0
   11.6769    2.0389    0.0000 H   0  0  0  0  0  0  0  0  0  0  0  0
   10.9867    1.6403    0.0000 H   0  0  0  0  0  0  0  0  0  0  0  0
    6.7593    1.0992    0.0000 H   0  0  0  0  0  0  0  0  0  0  0  0
   13.0031    2.9492    0.0000 H   0  0  0  0  0  0  0  0  0  0  0  0
   12.3987    2.4672    0.0000 H   0  0  0  0  0  0  0  0  0  0  0  0
   12.3987    0.3894    0.0000 H   0  0  0  0  0  0  0  0  0  0  0  0
   13.0031   -0.0927    0.0000 H   0  0  0  0  0  0  0  0  0  0  0  0
   14.4628    2.9383    0.0000 H   0  0  0  0  0  0  0  0  0  0  0  0
   13.7091    3.1104    0.0000 H   0  0  0  0  0  0  0  0  0  0  0  0
   13.7091   -0.2538    0.0000 H   0  0  0  0  0  0  0  0  0  0  0  0
   14.4628   -0.0818    0.0000 H   0  0  0  0  0  0  0  0  0  0  0  0
   15.6467    3.0829    0.0000 H   0  0  0  0  0  0  0  0  0  0  0  0
   15.6467   -0.2263    0.0000 H   0  0  0  0  0  0  0  0  0  0  0  0
   17.0956    0.5954    0.0000 H   0  0  0  0  0  0  0  0  0  0  0  0
    5.3793   -1.7067    0.0000 H   0  0  0  0  0  0  0  0  0  0  0  0
    5.3793    1.0992    0.0000 H   0  0  0  0  0  0  0  0  0  0  0  0
    3.7593    1.0992    0.0000 H   0  0  0  0  0  0  0  0  0  0  0  0
    3.8786   -2.6131    0.0000 H   0  0  0  0  0  0  0  0  0  0  0  0
    2.2240    0.2528    0.0000 H   0  0  0  0  0  0  0  0  0  0  0  0
    1.3800   -1.1833    0.0000 H   0  0  0  0  0  0  0  0  0  0  0  0
  1 21  2  0  0  0  0
  2 34  2  0  0  0  0
  3 14  1  0  0  0  0
  3 15  1  0  0  0  0
  3 16  1  0  0  0  0
  4 10  1  0  0  0  0
  4 21  1  0  0  0  0
  4 50  1  0  0  0  0
  5 29  1  0  0  0  0
  5 34  1  0  0  0  0
  5 65  1  0  0  0  0
  6 32  3  0  0  0  0
  7  8  1  0  0  0  0
  7  9  1  0  0  0  0
  7 13  1  0  0  0  0
  7 36  1  0  0  0  0
  8 11  1  0  0  0  0
  8 37  1  0  0  0  0
  8 38  1  0  0  0  0
  9 12  1  0  0  0  0
  9 39  1  0  0  0  0
  9 40  1  0  0  0  0
 10 11  1  0  0  0  0
 10 12  1  0  0  0  0
 10 41  1  0  0  0  0
 11 42  1  0  0  0  0
 11 43  1  0  0  0  0
 12 44  1  0  0  0  0
 12 45  1  0  0  0  0
 13 14  1  0  0  0  0
 13 46  1  0  0  0  0
 13 47  1  0  0  0  0
 14 48  1  0  0  0  0
 14 49  1  0  0  0  0
 15 17  1  0  0  0  0
 15 51  1  0  0  0  0
 15 52  1  0  0  0  0
 16 18  1  0  0  0  0
 16 53  1  0  0  0  0
 16 54  1  0  0  0  0
 17 19  1  0  0  0  0
 17 55  1  0  0  0  0
 17 56  1  0  0  0  0
 18 20  1  0  0  0  0
 18 57  1  0  0  0  0
 18 58  1  0  0  0  0
 19 20  2  0  0  0  0
 19 22  1  0  0  0  0
 20 23  1  0  0  0  0
 21 24  1  0  0  0  0
 22 25  2  0  0  0  0
 22 59  1  0  0  0  0
 23 26  2  0  0  0  0
 23 60  1  0  0  0  0
 24 27  2  0  0  0  0
 24 28  1  0  0  0  0
 25 26  1  0  0  0  0
 25 32  1  0  0  0  0
 26 61  1  0  0  0  0
 27 29  1  0  0  0  0
 27 62  1  0  0  0  0
 28 30  2  0  0  0  0
 28 63  1  0  0  0  0
 29 31  2  0  0  0  0
 30 31  1  0  0  0  0
 30 64  1  0  0  0  0
 31 33  1  0  0  0  0
 33 35  2  0  0  0  0
 33 66  1  0  0  0  0
 34 35  1  0  0  0  0
 35 67  1  0  0  0  0
M  END
> <PUBCHEM_COMPOUND_CID>
11554548

> <PUBCHEM_COMPOUND_CANONICALIZED>
1

> <PUBCHEM_CACTVS_COMPLEXITY>
839

> <PUBCHEM_CACTVS_HBOND_ACCEPTOR>
4

> <PUBCHEM_CACTVS_HBOND_DONOR>
2

> <PUBCHEM_CACTVS_ROTATABLE_BOND>
5

> <PUBCHEM_CACTVS_SUBSKEYS>
AAADcfB7sAAAAAAAAAAAAAAAAAAAAAAAAAAwYMEABYAAAACBQAAAHgAQAAAADSjBmAQwwIPAAACYBiVSUACiAAAlAgAIiIEIZMgIoDLAlZGEIQhglgDIyY8ciMCOwAACQAASAACQAASAACQAAAAAAAAAAA==

> <PUBCHEM_IUPAC_OPENEYE_NAME>
N-[4-[2-(7-cyano-1,2,4,5-tetrahydro-3-benzazepin-3-yl)ethyl]cyclohexyl]-2-oxo-1H-quinoline-7-carboxamide

> <PUBCHEM_IUPAC_CAS_NAME>
N-[4-[2-(7-cyano-1,2,4,5-tetrahydro-3-benzazepin-3-yl)ethyl]cyclohexyl]-2-oxo-1H-quinoline-7-carboxamide

> <PUBCHEM_IUPAC_NAME_MARKUP>
<I>N</I>-[4-[2-(7-cyano-1,2,4,5-tetrahydro-3-benzazepin-3-yl)ethyl]cyclohexyl]-2-oxo-1<I>H</I>-quinoline-7-carboxamide

> <PUBCHEM_IUPAC_NAME>
N-[4-[2-(7-cyano-1,2,4,5-tetrahydro-3-benzazepin-3-yl)ethyl]cyclohexyl]-2-oxo-1H-quinoline-7-carboxamide

> <PUBCHEM_IUPAC_SYSTEMATIC_NAME>
N-[4-[2-(7-cyano-1,2,4,5-tetrahydro-3-benzazepin-3-yl)ethyl]cyclohexyl]-2-oxidanylidene-1H-quinoline-7-carboxamide

> <PUBCHEM_IUPAC_TRADITIONAL_NAME>
N-[4-[2-(7-cyano-1,2,4,5-tetrahydro-3-benzazepin-3-yl)ethyl]cyclohexyl]-2-keto-1H-quinoline-7-carboxamide

> <PUBCHEM_IUPAC_INCHI>
InChI=1S/C29H32N4O2/c30-19-21-1-4-22-12-15-33(16-13-24(22)17-21)14-11-20-2-8-26(9-3-20)31-29(35)25-6-5-23-7-10-28(34)32-27(23)18-25/h1,4-7,10,17-18,20,26H,2-3,8-9,11-16H2,(H,31,35)(H,32,34)

> <PUBCHEM_IUPAC_INCHIKEY>
GHSGRKSMXSWZPH-UHFFFAOYSA-N

> <PUBCHEM_XLOGP3_AA>
4.2

> <PUBCHEM_EXACT_MASS>
468.25252628

> <PUBCHEM_MOLECULAR_FORMULA>
C29H32N4O2

> <PUBCHEM_MOLECULAR_WEIGHT>
468.6

> <PUBCHEM_OPENEYE_CAN_SMILES>
C1CC(CCC1CCN2CCC3=C(CC2)C=C(C=C3)C#N)NC(=O)C4=CC5=C(C=C4)C=CC(=O)N5

> <PUBCHEM_OPENEYE_ISO_SMILES>
C1CC(CCC1CCN2CCC3=C(CC2)C=C(C=C3)C#N)NC(=O)C4=CC5=C(C=C4)C=CC(=O)N5

> <PUBCHEM_CACTVS_TPSA>
85.2

> <PUBCHEM_MONOISOTOPIC_WEIGHT>
468.25252628

> <PUBCHEM_TOTAL_CHARGE>
0

> <PUBCHEM_HEAVY_ATOM_COUNT>
35

> <PUBCHEM_ATOM_DEF_STEREO_COUNT>
0

> <PUBCHEM_ATOM_UDEF_STEREO_COUNT>
0

> <PUBCHEM_BOND_DEF_STEREO_COUNT>
0

> <PUBCHEM_BOND_UDEF_STEREO_COUNT>
0

> <PUBCHEM_ISOTOPIC_ATOM_COUNT>
0

> <PUBCHEM_COMPONENT_COUNT>
1

> <PUBCHEM_CACTVS_TAUTO_COUNT>
-1

> <PUBCHEM_COORDINATE_TYPE>
1
5
255

> <PUBCHEM_BONDANNOTATIONS>
19  20  8
19  22  8
20  23  8
22  25  8
23  26  8
24  27  8
24  28  8
25  26  8
27  29  8
28  30  8
29  31  8
30  31  8
31  33  8
33  35  8
34  35  8
5  29  8
5  34  8

$$$$
