10643588
  -OEChem-09292322142D

 51 54  0     0  0  0  0  0  0999 V2000
    7.4492    5.3874    0.0000 Cl  0  0  0  0  0  0  0  0  0  0  0  0
    2.8380    0.8913    0.0000 O   0  0  0  0  0  0  0  0  0  0  0  0
    4.5981   -2.3874    0.0000 N   0  0  0  0  0  0  0  0  0  0  0  0
    4.5981    0.6125    0.0000 N   0  0  0  0  0  0  0  0  0  0  0  0
    4.0981    2.1514    0.0000 N   0  0  0  0  0  0  0  0  0  0  0  0
    4.5981   -0.3875    0.0000 C   0  0  0  0  0  0  0  0  0  0  0  0
    3.7320   -0.8875    0.0000 C   0  0  0  0  0  0  0  0  0  0  0  0
    5.4641   -0.8875    0.0000 C   0  0  0  0  0  0  0  0  0  0  0  0
    3.7320   -1.8874    0.0000 C   0  0  0  0  0  0  0  0  0  0  0  0
    5.4641   -1.8874    0.0000 C   0  0  0  0  0  0  0  0  0  0  0  0
    4.5981   -3.3874    0.0000 C   0  0  0  0  0  0  0  0  0  0  0  0
    5.4071    1.2003    0.0000 C   0  0  0  0  0  0  0  0  0  0  0  0
    3.7891    1.2003    0.0000 C   0  0  0  0  0  0  0  0  0  0  0  0
    5.0981    2.1514    0.0000 C   0  0  0  0  0  0  0  0  0  0  0  0
    3.7320   -3.8874    0.0000 C   0  0  0  0  0  0  0  0  0  0  0  0
    6.3582    0.8913    0.0000 C   0  0  0  0  0  0  0  0  0  0  0  0
    5.6859    2.9604    0.0000 C   0  0  0  0  0  0  0  0  0  0  0  0
    3.7320   -4.8874    0.0000 C   0  0  0  0  0  0  0  0  0  0  0  0
    2.8660   -3.3874    0.0000 C   0  0  0  0  0  0  0  0  0  0  0  0
    5.2791    3.8740    0.0000 C   0  0  0  0  0  0  0  0  0  0  0  0
    6.6804    2.8559    0.0000 C   0  0  0  0  0  0  0  0  0  0  0  0
    2.8660   -5.3874    0.0000 C   0  0  0  0  0  0  0  0  0  0  0  0
    2.0000   -3.8874    0.0000 C   0  0  0  0  0  0  0  0  0  0  0  0
    2.0000   -4.8874    0.0000 C   0  0  0  0  0  0  0  0  0  0  0  0
    5.8669    4.6830    0.0000 C   0  0  0  0  0  0  0  0  0  0  0  0
    7.2682    3.6649    0.0000 C   0  0  0  0  0  0  0  0  0  0  0  0
    6.8614    4.5784    0.0000 C   0  0  0  0  0  0  0  0  0  0  0  0
    5.1350   -0.0775    0.0000 H   0  0  0  0  0  0  0  0  0  0  0  0
    3.5200   -0.3048    0.0000 H   0  0  0  0  0  0  0  0  0  0  0  0
    3.1215   -0.9951    0.0000 H   0  0  0  0  0  0  0  0  0  0  0  0
    6.0747   -0.9951    0.0000 H   0  0  0  0  0  0  0  0  0  0  0  0
    5.6762   -0.3048    0.0000 H   0  0  0  0  0  0  0  0  0  0  0  0
    3.1215   -1.7798    0.0000 H   0  0  0  0  0  0  0  0  0  0  0  0
    3.5200   -2.4701    0.0000 H   0  0  0  0  0  0  0  0  0  0  0  0
    5.6762   -2.4701    0.0000 H   0  0  0  0  0  0  0  0  0  0  0  0
    6.0747   -1.7798    0.0000 H   0  0  0  0  0  0  0  0  0  0  0  0
    4.8101   -3.9701    0.0000 H   0  0  0  0  0  0  0  0  0  0  0  0
    5.2087   -3.2798    0.0000 H   0  0  0  0  0  0  0  0  0  0  0  0
    3.7336    2.6530    0.0000 H   0  0  0  0  0  0  0  0  0  0  0  0
    6.1666    0.3017    0.0000 H   0  0  0  0  0  0  0  0  0  0  0  0
    6.9478    0.6997    0.0000 H   0  0  0  0  0  0  0  0  0  0  0  0
    6.5497    1.4810    0.0000 H   0  0  0  0  0  0  0  0  0  0  0  0
    4.2690   -5.1974    0.0000 H   0  0  0  0  0  0  0  0  0  0  0  0
    2.8660   -2.7675    0.0000 H   0  0  0  0  0  0  0  0  0  0  0  0
    4.6625    3.9388    0.0000 H   0  0  0  0  0  0  0  0  0  0  0  0
    6.9326    2.2895    0.0000 H   0  0  0  0  0  0  0  0  0  0  0  0
    2.8660   -6.0075    0.0000 H   0  0  0  0  0  0  0  0  0  0  0  0
    1.4631   -3.5775    0.0000 H   0  0  0  0  0  0  0  0  0  0  0  0
    1.4631   -5.1974    0.0000 H   0  0  0  0  0  0  0  0  0  0  0  0
    5.6147    5.2494    0.0000 H   0  0  0  0  0  0  0  0  0  0  0  0
    7.8848    3.6001    0.0000 H   0  0  0  0  0  0  0  0  0  0  0  0
  1 27  1  0  0  0  0
  2 13  2  0  0  0  0
  3  9  1  0  0  0  0
  3 10  1  0  0  0  0
  3 11  1  0  0  0  0
  4  6  1  0  0  0  0
  4 12  1  0  0  0  0
  4 13  1  0  0  0  0
  5 13  1  0  0  0  0
  5 14  1  0  0  0  0
  5 39  1  0  0  0  0
  6  7  1  0  0  0  0
  6  8  1  0  0  0  0
  6 28  1  0  0  0  0
  7  9  1  0  0  0  0
  7 29  1  0  0  0  0
  7 30  1  0  0  0  0
  8 10  1  0  0  0  0
  8 31  1  0  0  0  0
  8 32  1  0  0  0  0
  9 33  1  0  0  0  0
  9 34  1  0  0  0  0
 10 35  1  0  0  0  0
 10 36  1  0  0  0  0
 11 15  1  0  0  0  0
 11 37  1  0  0  0  0
 11 38  1  0  0  0  0
 12 14  2  0  0  0  0
 12 16  1  0  0  0  0
 14 17  1  0  0  0  0
 15 18  2  0  0  0  0
 15 19  1  0  0  0  0
 16 40  1  0  0  0  0
 16 41  1  0  0  0  0
 16 42  1  0  0  0  0
 17 20  2  0  0  0  0
 17 21  1  0  0  0  0
 18 22  1  0  0  0  0
 18 43  1  0  0  0  0
 19 23  2  0  0  0  0
 19 44  1  0  0  0  0
 20 25  1  0  0  0  0
 20 45  1  0  0  0  0
 21 26  2  0  0  0  0
 21 46  1  0  0  0  0
 22 24  2  0  0  0  0
 22 47  1  0  0  0  0
 23 24  1  0  0  0  0
 23 48  1  0  0  0  0
 24 49  1  0  0  0  0
 25 27  2  0  0  0  0
 25 50  1  0  0  0  0
 26 27  1  0  0  0  0
 26 51  1  0  0  0  0
M  END
> <PUBCHEM_COMPOUND_CID>
10643588

> <PUBCHEM_COMPOUND_CANONICALIZED>
1

> <PUBCHEM_CACTVS_COMPLEXITY>
556

> <PUBCHEM_CACTVS_HBOND_ACCEPTOR>
2

> <PUBCHEM_CACTVS_HBOND_DONOR>
1

> <PUBCHEM_CACTVS_ROTATABLE_BOND>
4

> <PUBCHEM_CACTVS_SUBSKEYS>
AAADceB7IAAEAAAAAAAAAAAAAAAAAQAAAAA8YIAAAAAAAAABQAAAHgIQAAAADCrBGCQzAIPAAACIAiRCUACCAAAgBQAIiAAIBoiIICKB0xGEIAhohgKIiAcQgAAOBAAAAAAAAAAIAAAAAAAAAAAAAAAAAA==

> <PUBCHEM_IUPAC_OPENEYE_NAME>
3-(1-benzyl-4-piperidyl)-5-(4-chlorophenyl)-4-methyl-1H-imidazol-2-one

> <PUBCHEM_IUPAC_CAS_NAME>
5-(4-chlorophenyl)-4-methyl-3-[1-(phenylmethyl)-4-piperidinyl]-1H-imidazol-2-one

> <PUBCHEM_IUPAC_NAME_MARKUP>
3-(1-benzylpiperidin-4-yl)-5-(4-chlorophenyl)-4-methyl-1<I>H</I>-imidazol-2-one

> <PUBCHEM_IUPAC_NAME>
3-(1-benzylpiperidin-4-yl)-5-(4-chlorophenyl)-4-methyl-1H-imidazol-2-one

> <PUBCHEM_IUPAC_SYSTEMATIC_NAME>
5-(4-chlorophenyl)-4-methyl-3-[1-(phenylmethyl)piperidin-4-yl]-1H-imidazol-2-one

> <PUBCHEM_IUPAC_TRADITIONAL_NAME>
1-(1-benzyl-4-piperidyl)-4-(4-chlorophenyl)-5-methyl-4-imidazolin-2-one

> <PUBCHEM_IUPAC_INCHI>
InChI=1S/C22H24ClN3O/c1-16-21(18-7-9-19(23)10-8-18)24-22(27)26(16)20-11-13-25(14-12-20)15-17-5-3-2-4-6-17/h2-10,20H,11-15H2,1H3,(H,24,27)

> <PUBCHEM_IUPAC_INCHIKEY>
ZCDDPEAAEDRNJF-UHFFFAOYSA-N

> <PUBCHEM_XLOGP3_AA>
4.1

> <PUBCHEM_EXACT_MASS>
381.1607901

> <PUBCHEM_MOLECULAR_FORMULA>
C22H24ClN3O

> <PUBCHEM_MOLECULAR_WEIGHT>
381.9

> <PUBCHEM_OPENEYE_CAN_SMILES>
CC1=C(NC(=O)N1C2CCN(CC2)CC3=CC=CC=C3)C4=CC=C(C=C4)Cl

> <PUBCHEM_OPENEYE_ISO_SMILES>
CC1=C(NC(=O)N1C2CCN(CC2)CC3=CC=CC=C3)C4=CC=C(C=C4)Cl

> <PUBCHEM_CACTVS_TPSA>
35.6

> <PUBCHEM_MONOISOTOPIC_WEIGHT>
381.1607901

> <PUBCHEM_TOTAL_CHARGE>
0

> <PUBCHEM_HEAVY_ATOM_COUNT>
27

> <PUBCHEM_ATOM_DEF_STEREO_COUNT>
0

> <PUBCHEM_ATOM_UDEF_STEREO_COUNT>
0

> <PUBCHEM_BOND_DEF_STEREO_COUNT>
0

> <PUBCHEM_BOND_UDEF_STEREO_COUNT>
0

> <PUBCHEM_ISOTOPIC_ATOM_COUNT>
0

> <PUBCHEM_COMPONENT_COUNT>
1

> <PUBCHEM_CACTVS_TAUTO_COUNT>
-1

> <PUBCHEM_COORDINATE_TYPE>
1
5
255

> <PUBCHEM_BONDANNOTATIONS>
12  14  8
15  18  8
15  19  8
17  20  8
17  21  8
18  22  8
19  23  8
20  25  8
21  26  8
22  24  8
23  24  8
25  27  8
26  27  8
4  12  8
4  13  8
5  13  8
5  14  8

$$$$
