45262348
  -OEChem-09292322122D

 76 79  0     1  0  0  0  0  0999 V2000
    7.4373    0.0000    0.0000 Cl  0  0  0  0  0  0  0  0  0  0  0  0
   14.4747    9.3474    0.0000 S   0  0  0  0  0  0  0  0  0  0  0  0
    4.1200    5.7252    0.0000 O   0  0  0  0  0  0  0  0  0  0  0  0
   14.9781    8.4834    0.0000 O   0  0  0  0  0  0  0  0  0  0  0  0
   13.9714   10.2115    0.0000 O   0  0  0  0  0  0  0  0  0  0  0  0
    9.6200    8.3233    0.0000 N   0  0  3  0  0  0  0  0  0  0  0  0
    4.1200    7.4573    0.0000 N   0  0  0  0  0  0  0  0  0  0  0  0
    0.5853    4.8313    0.0000 N   0  0  0  0  0  0  0  0  0  0  0  0
    7.1200    7.4573    0.0000 C   0  0  0  0  0  0  0  0  0  0  0  0
    6.6200    8.3233    0.0000 C   0  0  0  0  0  0  0  0  0  0  0  0
    6.6200    6.5912    0.0000 C   0  0  0  0  0  0  0  0  0  0  0  0
    5.1200    7.4573    0.0000 C   0  0  0  0  0  0  0  0  0  0  0  0
    5.6200    8.3233    0.0000 C   0  0  0  0  0  0  0  0  0  0  0  0
    5.6200    6.5912    0.0000 C   0  0  0  0  0  0  0  0  0  0  0  0
    8.1200    7.4573    0.0000 C   0  0  0  0  0  0  0  0  0  0  0  0
    8.6200    8.3233    0.0000 C   0  0  0  0  0  0  0  0  0  0  0  0
   10.0539    9.2243    0.0000 C   0  0  0  0  0  0  0  0  0  0  0  0
   10.0539    7.4223    0.0000 C   0  0  0  0  0  0  0  0  0  0  0  0
   11.0288    9.4468    0.0000 C   0  0  0  0  0  0  0  0  0  0  0  0
   11.0288    7.1998    0.0000 C   0  0  0  0  0  0  0  0  0  0  0  0
   11.8106    8.8233    0.0000 C   0  0  0  0  0  0  0  0  0  0  0  0
   11.8106    7.8233    0.0000 C   0  0  0  0  0  0  0  0  0  0  0  0
    3.6200    6.5912    0.0000 C   0  0  0  0  0  0  0  0  0  0  0  0
   12.7046    9.3580    0.0000 C   0  0  0  0  0  0  0  0  0  0  0  0
   12.7046    7.2886    0.0000 C   0  0  0  0  0  0  0  0  0  0  0  0
    2.6200    6.5912    0.0000 C   0  0  0  0  0  0  0  0  0  0  0  0
   13.6107    8.8441    0.0000 C   0  0  0  0  0  0  0  0  0  0  0  0
   13.6107    7.8025    0.0000 C   0  0  0  0  0  0  0  0  0  0  0  0
    2.1200    5.7252    0.0000 C   0  0  0  0  0  0  0  0  0  0  0  0
    2.1200    7.4573    0.0000 C   0  0  0  0  0  0  0  0  0  0  0  0
    1.1200    5.7252    0.0000 C   0  0  0  0  0  0  0  0  0  0  0  0
   15.3388    9.8508    0.0000 C   0  0  0  0  0  0  0  0  0  0  0  0
    1.1200    7.4573    0.0000 C   0  0  0  0  0  0  0  0  0  0  0  0
    2.6547    4.8313    0.0000 C   0  0  0  0  0  0  0  0  0  0  0  0
    0.6200    6.5912    0.0000 C   0  0  0  0  0  0  0  0  0  0  0  0
    2.1408    3.9252    0.0000 C   0  0  0  0  0  0  0  0  0  0  0  0
    1.0992    3.9252    0.0000 C   0  0  0  0  0  0  0  0  0  0  0  0
    0.5958    3.0611    0.0000 C   0  0  0  0  0  0  0  0  0  0  0  0
    7.4300    7.9942    0.0000 H   0  0  0  0  0  0  0  0  0  0  0  0
    7.2026    8.5354    0.0000 H   0  0  0  0  0  0  0  0  0  0  0  0
    6.5123    8.9339    0.0000 H   0  0  0  0  0  0  0  0  0  0  0  0
    6.5123    5.9807    0.0000 H   0  0  0  0  0  0  0  0  0  0  0  0
    7.2026    6.3792    0.0000 H   0  0  0  0  0  0  0  0  0  0  0  0
    4.8100    7.9942    0.0000 H   0  0  0  0  0  0  0  0  0  0  0  0
    5.7277    8.9339    0.0000 H   0  0  0  0  0  0  0  0  0  0  0  0
    5.0374    8.5354    0.0000 H   0  0  0  0  0  0  0  0  0  0  0  0
    5.0374    6.3792    0.0000 H   0  0  0  0  0  0  0  0  0  0  0  0
    5.7277    5.9807    0.0000 H   0  0  0  0  0  0  0  0  0  0  0  0
    8.0123    6.8467    0.0000 H   0  0  0  0  0  0  0  0  0  0  0  0
    8.7026    7.2452    0.0000 H   0  0  0  0  0  0  0  0  0  0  0  0
    8.7277    8.9339    0.0000 H   0  0  0  0  0  0  0  0  0  0  0  0
    8.0374    8.5354    0.0000 H   0  0  0  0  0  0  0  0  0  0  0  0
    3.8100    7.9942    0.0000 H   0  0  0  0  0  0  0  0  0  0  0  0
   10.0539    9.8443    0.0000 H   0  0  0  0  0  0  0  0  0  0  0  0
    9.4494    9.3622    0.0000 H   0  0  0  0  0  0  0  0  0  0  0  0
    9.4494    7.2844    0.0000 H   0  0  0  0  0  0  0  0  0  0  0  0
   10.0539    6.8023    0.0000 H   0  0  0  0  0  0  0  0  0  0  0  0
   11.5135    9.8334    0.0000 H   0  0  0  0  0  0  0  0  0  0  0  0
   10.7598   10.0054    0.0000 H   0  0  0  0  0  0  0  0  0  0  0  0
   10.7598    6.6412    0.0000 H   0  0  0  0  0  0  0  0  0  0  0  0
   11.5135    6.8132    0.0000 H   0  0  0  0  0  0  0  0  0  0  0  0
   12.6974    9.9779    0.0000 H   0  0  0  0  0  0  0  0  0  0  0  0
   12.6974    6.6687    0.0000 H   0  0  0  0  0  0  0  0  0  0  0  0
   14.1464    7.4904    0.0000 H   0  0  0  0  0  0  0  0  0  0  0  0
    2.4300    7.9942    0.0000 H   0  0  0  0  0  0  0  0  0  0  0  0
   15.6509    9.3150    0.0000 H   0  0  0  0  0  0  0  0  0  0  0  0
   15.8746   10.1628    0.0000 H   0  0  0  0  0  0  0  0  0  0  0  0
   15.0268   10.3865    0.0000 H   0  0  0  0  0  0  0  0  0  0  0  0
    0.8100    7.9942    0.0000 H   0  0  0  0  0  0  0  0  0  0  0  0
    3.2746    4.8384    0.0000 H   0  0  0  0  0  0  0  0  0  0  0  0
    0.0000    6.5912    0.0000 H   0  0  0  0  0  0  0  0  0  0  0  0
    2.4529    3.3895    0.0000 H   0  0  0  0  0  0  0  0  0  0  0  0
    0.0601    3.3732    0.0000 H   0  0  0  0  0  0  0  0  0  0  0  0
    0.2838    2.5254    0.0000 H   0  0  0  0  0  0  0  0  0  0  0  0
    1.1316    2.7490    0.0000 H   0  0  0  0  0  0  0  0  0  0  0  0
    8.4373    0.0000    0.0000 H   0  0  0  0  0  0  0  0  0  0  0  0
  1 76  1  0  0  0  0
  2  4  2  0  0  0  0
  2  5  2  0  0  0  0
  2 27  1  0  0  0  0
  2 32  1  0  0  0  0
  3 23  2  0  0  0  0
  6 16  1  0  0  0  0
  6 17  1  0  0  0  0
  6 18  1  0  0  0  0
  7 12  1  0  0  0  0
  7 23  1  0  0  0  0
  7 53  1  0  0  0  0
  8 31  1  0  0  0  0
  8 37  2  0  0  0  0
  9 10  1  0  0  0  0
  9 11  1  0  0  0  0
  9 15  1  0  0  0  0
  9 39  1  0  0  0  0
 10 13  1  0  0  0  0
 10 40  1  0  0  0  0
 10 41  1  0  0  0  0
 11 14  1  0  0  0  0
 11 42  1  0  0  0  0
 11 43  1  0  0  0  0
 12 13  1  0  0  0  0
 12 14  1  0  0  0  0
 12 44  1  0  0  0  0
 13 45  1  0  0  0  0
 13 46  1  0  0  0  0
 14 47  1  0  0  0  0
 14 48  1  0  0  0  0
 15 16  1  0  0  0  0
 15 49  1  0  0  0  0
 15 50  1  0  0  0  0
 16 51  1  0  0  0  0
 16 52  1  0  0  0  0
 17 19  1  0  0  0  0
 17 54  1  0  0  0  0
 17 55  1  0  0  0  0
 18 20  1  0  0  0  0
 18 56  1  0  0  0  0
 18 57  1  0  0  0  0
 19 21  1  0  0  0  0
 19 58  1  0  0  0  0
 19 59  1  0  0  0  0
 20 22  1  0  0  0  0
 20 60  1  0  0  0  0
 20 61  1  0  0  0  0
 21 22  2  0  0  0  0
 21 24  1  0  0  0  0
 22 25  1  0  0  0  0
 23 26  1  0  0  0  0
 24 27  2  0  0  0  0
 24 62  1  0  0  0  0
 25 28  2  0  0  0  0
 25 63  1  0  0  0  0
 26 29  2  0  0  0  0
 26 30  1  0  0  0  0
 27 28  1  0  0  0  0
 28 64  1  0  0  0  0
 29 31  1  0  0  0  0
 29 34  1  0  0  0  0
 30 33  2  0  0  0  0
 30 65  1  0  0  0  0
 31 35  2  0  0  0  0
 32 66  1  0  0  0  0
 32 67  1  0  0  0  0
 32 68  1  0  0  0  0
 33 35  1  0  0  0  0
 33 69  1  0  0  0  0
 34 36  2  0  0  0  0
 34 70  1  0  0  0  0
 35 71  1  0  0  0  0
 36 37  1  0  0  0  0
 36 72  1  0  0  0  0
 37 38  1  0  0  0  0
 38 73  1  0  0  0  0
 38 74  1  0  0  0  0
 38 75  1  0  0  0  0
M  END
> <PUBCHEM_COMPOUND_CID>
45262348

> <PUBCHEM_COMPOUND_CANONICALIZED>
1

> <PUBCHEM_CACTVS_COMPLEXITY>
866

> <PUBCHEM_CACTVS_HBOND_ACCEPTOR>
5

> <PUBCHEM_CACTVS_HBOND_DONOR>
2

> <PUBCHEM_CACTVS_ROTATABLE_BOND>
6

> <PUBCHEM_CACTVS_SUBSKEYS>
AAADcfB7MABEAAAAAAAAAAAAAAAAAAAAAAA8YMEABYAAAACx9AAAHgQQAAAADSjB3gSywfPIEAqoAyVyVHDCgCAlCjAImLk4ZNgIIPLglZGEIQhglgDIyYcciMCOkAAAwAASAAAwAAGAACQAAAAAAAAAAA==

> <PUBCHEM_IUPAC_OPENEYE_NAME>
2-methyl-N-[4-[2-(7-methylsulfonyl-1,2,4,5-tetrahydro-3-benzazepin-3-yl)ethyl]cyclohexyl]quinoline-5-carboxamide;hydrochloride

> <PUBCHEM_IUPAC_CAS_NAME>
2-methyl-N-[4-[2-(7-methylsulfonyl-1,2,4,5-tetrahydro-3-benzazepin-3-yl)ethyl]cyclohexyl]-5-quinolinecarboxamide;hydrochloride

> <PUBCHEM_IUPAC_NAME_MARKUP>
2-methyl-<I>N</I>-[4-[2-(7-methylsulfonyl-1,2,4,5-tetrahydro-3-benzazepin-3-yl)ethyl]cyclohexyl]quinoline-5-carboxamide;hydrochloride

> <PUBCHEM_IUPAC_NAME>
2-methyl-N-[4-[2-(7-methylsulfonyl-1,2,4,5-tetrahydro-3-benzazepin-3-yl)ethyl]cyclohexyl]quinoline-5-carboxamide;hydrochloride

> <PUBCHEM_IUPAC_SYSTEMATIC_NAME>
2-methyl-N-[4-[2-(7-methylsulfonyl-1,2,4,5-tetrahydro-3-benzazepin-3-yl)ethyl]cyclohexyl]quinoline-5-carboxamide;hydrochloride

> <PUBCHEM_IUPAC_TRADITIONAL_NAME>
N-[4-[2-(7-mesyl-1,2,4,5-tetrahydro-3-benzazepin-3-yl)ethyl]cyclohexyl]-2-methyl-quinoline-5-carboxamide;hydrochloride

> <PUBCHEM_IUPAC_INCHI>
InChI=1S/C30H37N3O3S.ClH/c1-21-6-13-27-28(4-3-5-29(27)31-21)30(34)32-25-10-7-22(8-11-25)14-17-33-18-15-23-9-12-26(37(2,35)36)20-24(23)16-19-33;/h3-6,9,12-13,20,22,25H,7-8,10-11,14-19H2,1-2H3,(H,32,34);1H

> <PUBCHEM_IUPAC_INCHIKEY>
RTKPRXQMVNTNJA-UHFFFAOYSA-N

> <PUBCHEM_EXACT_MASS>
555.2322410

> <PUBCHEM_MOLECULAR_FORMULA>
C30H38ClN3O3S

> <PUBCHEM_MOLECULAR_WEIGHT>
556.2

> <PUBCHEM_OPENEYE_CAN_SMILES>
CC1=NC2=CC=CC(=C2C=C1)C(=O)NC3CCC(CC3)CCN4CCC5=C(CC4)C=C(C=C5)S(=O)(=O)C.Cl

> <PUBCHEM_OPENEYE_ISO_SMILES>
CC1=NC2=CC=CC(=C2C=C1)C(=O)NC3CCC(CC3)CCN4CCC5=C(CC4)C=C(C=C5)S(=O)(=O)C.Cl

> <PUBCHEM_CACTVS_TPSA>
87.8

> <PUBCHEM_MONOISOTOPIC_WEIGHT>
555.2322410

> <PUBCHEM_TOTAL_CHARGE>
0

> <PUBCHEM_HEAVY_ATOM_COUNT>
38

> <PUBCHEM_ATOM_DEF_STEREO_COUNT>
0

> <PUBCHEM_ATOM_UDEF_STEREO_COUNT>
0

> <PUBCHEM_BOND_DEF_STEREO_COUNT>
0

> <PUBCHEM_BOND_UDEF_STEREO_COUNT>
0

> <PUBCHEM_ISOTOPIC_ATOM_COUNT>
0

> <PUBCHEM_COMPONENT_COUNT>
2

> <PUBCHEM_CACTVS_TAUTO_COUNT>
-1

> <PUBCHEM_COORDINATE_TYPE>
1
5
255

> <PUBCHEM_BONDANNOTATIONS>
21  22  8
21  24  8
22  25  8
24  27  8
25  28  8
26  29  8
26  30  8
27  28  8
29  31  8
29  34  8
30  33  8
31  35  8
33  35  8
34  36  8
36  37  8
8  31  8
8  37  8

$$$$
