71583848
  -OEChem-09292322332D

 66 71  0     0  0  0  0  0  0999 V2000
    5.2641    1.3376    0.0000 N   0  0  0  0  0  0  0  0  0  0  0  0
    6.8822    2.5132    0.0000 N   0  0  0  0  0  0  0  0  0  0  0  0
    4.2232   -1.8274    0.0000 N   0  0  0  0  0  0  0  0  0  0  0  0
    5.2178   -1.7229    0.0000 N   0  0  0  0  0  0  0  0  0  0  0  0
    5.1596    2.3321    0.0000 C   0  0  0  0  0  0  0  0  0  0  0  0
    6.1777    0.9309    0.0000 C   0  0  0  0  0  0  0  0  0  0  0  0
    5.9686    2.9199    0.0000 C   0  0  0  0  0  0  0  0  0  0  0  0
    6.9867    1.5186    0.0000 C   0  0  0  0  0  0  0  0  0  0  0  0
    4.4551    0.7498    0.0000 C   0  0  0  0  0  0  0  0  0  0  0  0
    4.5597   -0.2447    0.0000 C   0  0  0  0  0  0  0  0  0  0  0  0
    7.6912    3.1010    0.0000 C   0  0  0  0  0  0  0  0  0  0  0  0
    3.7232   -2.6934    0.0000 C   0  0  0  0  0  0  0  0  0  0  0  0
    3.8165   -0.9138    0.0000 C   0  0  0  0  0  0  0  0  0  0  0  0
    2.8616   -2.1960    0.0000 C   0  0  0  0  0  0  0  0  0  0  0  0
    3.7232   -1.6985    0.0000 C   0  0  0  0  0  0  0  0  0  0  0  0
    5.4257   -0.7447    0.0000 C   0  0  0  0  0  0  0  0  0  0  0  0
    2.8616   -4.1858    0.0000 C   0  0  0  0  0  0  0  0  0  0  0  0
    4.7637   -1.6764    0.0000 C   0  0  0  0  0  0  0  0  0  0  0  0
    3.7232   -4.6833    0.0000 C   0  0  0  0  0  0  0  0  0  0  0  0
    3.7232   -3.6883    0.0000 C   0  0  0  0  0  0  0  0  0  0  0  0
    8.6047    2.6942    0.0000 C   0  0  0  0  0  0  0  0  0  0  0  0
    7.5867    4.0955    0.0000 C   0  0  0  0  0  0  0  0  0  0  0  0
    4.7637   -4.6612    0.0000 C   0  0  0  0  0  0  0  0  0  0  0  0
    2.0000   -2.6934    0.0000 C   0  0  0  0  0  0  0  0  0  0  0  0
    5.6253   -2.1738    0.0000 C   0  0  0  0  0  0  0  0  0  0  0  0
    2.0000   -3.6883    0.0000 C   0  0  0  0  0  0  0  0  0  0  0  0
    5.6253   -4.1637    0.0000 C   0  0  0  0  0  0  0  0  0  0  0  0
    4.7637   -2.6713    0.0000 C   0  0  0  0  0  0  0  0  0  0  0  0
    6.4869   -2.6713    0.0000 C   0  0  0  0  0  0  0  0  0  0  0  0
    9.4138    3.2820    0.0000 C   0  0  0  0  0  0  0  0  0  0  0  0
    8.3957    4.6833    0.0000 C   0  0  0  0  0  0  0  0  0  0  0  0
    4.7637   -3.6662    0.0000 C   0  0  0  0  0  0  0  0  0  0  0  0
    6.4869   -3.6662    0.0000 C   0  0  0  0  0  0  0  0  0  0  0  0
    9.3092    4.2765    0.0000 C   0  0  0  0  0  0  0  0  0  0  0  0
    4.8878    2.8894    0.0000 H   0  0  0  0  0  0  0  0  0  0  0  0
    4.5636    2.1612    0.0000 H   0  0  0  0  0  0  0  0  0  0  0  0
    5.8310    0.4169    0.0000 H   0  0  0  0  0  0  0  0  0  0  0  0
    6.6237    0.5002    0.0000 H   0  0  0  0  0  0  0  0  0  0  0  0
    6.3153    3.4339    0.0000 H   0  0  0  0  0  0  0  0  0  0  0  0
    5.5226    3.3506    0.0000 H   0  0  0  0  0  0  0  0  0  0  0  0
    7.2585    0.9614    0.0000 H   0  0  0  0  0  0  0  0  0  0  0  0
    7.5827    1.6895    0.0000 H   0  0  0  0  0  0  0  0  0  0  0  0
    4.1833    1.3071    0.0000 H   0  0  0  0  0  0  0  0  0  0  0  0
    3.8591    0.5789    0.0000 H   0  0  0  0  0  0  0  0  0  0  0  0
    3.2101   -0.7849    0.0000 H   0  0  0  0  0  0  0  0  0  0  0  0
    3.9270   -1.1129    0.0000 H   0  0  0  0  0  0  0  0  0  0  0  0
    3.8901   -2.2956    0.0000 H   0  0  0  0  0  0  0  0  0  0  0  0
    5.9921   -0.4925    0.0000 H   0  0  0  0  0  0  0  0  0  0  0  0
    5.2358   -1.2745    0.0000 H   0  0  0  0  0  0  0  0  0  0  0  0
    4.6096   -2.2769    0.0000 H   0  0  0  0  0  0  0  0  0  0  0  0
    3.2511   -5.0851    0.0000 H   0  0  0  0  0  0  0  0  0  0  0  0
    3.8774   -4.0827    0.0000 H   0  0  0  0  0  0  0  0  0  0  0  0
    4.2602   -3.9983    0.0000 H   0  0  0  0  0  0  0  0  0  0  0  0
    4.5599   -5.2467    0.0000 H   0  0  0  0  0  0  0  0  0  0  0  0
    4.5968   -4.0640    0.0000 H   0  0  0  0  0  0  0  0  0  0  0  0
    8.6695    2.0776    0.0000 H   0  0  0  0  0  0  0  0  0  0  0  0
    7.0203    4.3476    0.0000 H   0  0  0  0  0  0  0  0  0  0  0  0
    1.4631   -2.3834    0.0000 H   0  0  0  0  0  0  0  0  0  0  0  0
    1.4631   -3.9983    0.0000 H   0  0  0  0  0  0  0  0  0  0  0  0
    4.2267   -2.3613    0.0000 H   0  0  0  0  0  0  0  0  0  0  0  0
    7.0238   -2.3613    0.0000 H   0  0  0  0  0  0  0  0  0  0  0  0
    4.2267   -3.9762    0.0000 H   0  0  0  0  0  0  0  0  0  0  0  0
    7.0238   -3.9762    0.0000 H   0  0  0  0  0  0  0  0  0  0  0  0
    9.9802    3.0298    0.0000 H   0  0  0  0  0  0  0  0  0  0  0  0
    8.3309    5.2999    0.0000 H   0  0  0  0  0  0  0  0  0  0  0  0
    9.8108    4.6410    0.0000 H   0  0  0  0  0  0  0  0  0  0  0  0
  1  5  1  0  0  0  0
  1  6  1  0  0  0  0
  1  9  1  0  0  0  0
  2  7  1  0  0  0  0
  2  8  1  0  0  0  0
  2 11  1  0  0  0  0
  3  4  1  0  0  0  0
  3 12  1  0  0  0  0
  3 13  1  0  0  0  0
  4 16  2  0  0  0  0
  5  7  1  0  0  0  0
  5 35  1  0  0  0  0
  5 36  1  0  0  0  0
  6  8  1  0  0  0  0
  6 37  1  0  0  0  0
  6 38  1  0  0  0  0
  7 39  1  0  0  0  0
  7 40  1  0  0  0  0
  8 41  1  0  0  0  0
  8 42  1  0  0  0  0
  9 10  1  0  0  0  0
  9 43  1  0  0  0  0
  9 44  1  0  0  0  0
 10 13  2  0  0  0  0
 10 16  1  0  0  0  0
 11 21  2  0  0  0  0
 11 22  1  0  0  0  0
 12 14  2  0  0  0  0
 12 20  1  0  0  0  0
 13 45  1  0  0  0  0
 14 15  1  0  0  0  0
 14 24  1  0  0  0  0
 15 18  1  0  0  0  0
 15 46  1  0  0  0  0
 15 47  1  0  0  0  0
 16 48  1  0  0  0  0
 17 19  1  0  0  0  0
 17 20  2  0  0  0  0
 17 26  1  0  0  0  0
 18 25  1  0  0  0  0
 18 49  1  0  0  0  0
 18 50  1  0  0  0  0
 19 23  1  0  0  0  0
 19 51  1  0  0  0  0
 19 52  1  0  0  0  0
 20 53  1  0  0  0  0
 21 30  1  0  0  0  0
 21 56  1  0  0  0  0
 22 31  2  0  0  0  0
 22 57  1  0  0  0  0
 23 27  1  0  0  0  0
 23 54  1  0  0  0  0
 23 55  1  0  0  0  0
 24 26  2  0  0  0  0
 24 58  1  0  0  0  0
 25 28  2  0  0  0  0
 25 29  1  0  0  0  0
 26 59  1  0  0  0  0
 27 32  2  0  0  0  0
 27 33  1  0  0  0  0
 28 32  1  0  0  0  0
 28 60  1  0  0  0  0
 29 33  2  0  0  0  0
 29 61  1  0  0  0  0
 30 34  2  0  0  0  0
 30 64  1  0  0  0  0
 31 34  1  0  0  0  0
 31 65  1  0  0  0  0
 32 62  1  0  0  0  0
 33 63  1  0  0  0  0
 34 66  1  0  0  0  0
M  END
> <PUBCHEM_COMPOUND_CID>
71583848

> <PUBCHEM_COMPOUND_CANONICALIZED>
1

> <PUBCHEM_CACTVS_COMPLEXITY>
617

> <PUBCHEM_CACTVS_HBOND_ACCEPTOR>
3

> <PUBCHEM_CACTVS_HBOND_DONOR>
0

> <PUBCHEM_CACTVS_ROTATABLE_BOND>
4

> <PUBCHEM_CACTVS_SUBSKEYS>
AAADcfB7gAAAAAAAAAAAAAAAAAAAAWAAAAA8YMEAAAAAAAAB1AAAHAAIAAAADAjBGgQ8wJMIAACiAjRnRACSBCAxggAYmCAoZJgIYOLA0dGUpAhgiADIyAcQgMAOQAAAQAACAACAAACAAAQAAAAAAAAAAA==

> <PUBCHEM_IUPAC_OPENEYE_NAME>
1-phenyl-4-[[1-(5-tricyclo[8.2.2.24,7]hexadeca-1(13),4,6,10(14),11,15-hexaenyl)pyrazol-4-yl]methyl]piperazine

> <PUBCHEM_IUPAC_CAS_NAME>
1-phenyl-4-[[1-(5-tricyclo[8.2.2.24,7]hexadeca-1(13),4,6,10(14),11,15-hexaenyl)-4-pyrazolyl]methyl]piperazine

> <PUBCHEM_IUPAC_NAME_MARKUP>
1-phenyl-4-[[1-(5-tricyclo[8.2.2.2<SUP>4,7</SUP>]hexadeca-1(13),4,6,10(14),11,15-hexaenyl)pyrazol-4-yl]methyl]piperazine

> <PUBCHEM_IUPAC_NAME>
1-phenyl-4-[[1-(5-tricyclo[8.2.2.24,7]hexadeca-1(13),4,6,10(14),11,15-hexaenyl)pyrazol-4-yl]methyl]piperazine

> <PUBCHEM_IUPAC_SYSTEMATIC_NAME>
1-phenyl-4-[[1-(5-tricyclo[8.2.2.24,7]hexadeca-1(13),4,6,10(14),11,15-hexaenyl)pyrazol-4-yl]methyl]piperazine

> <PUBCHEM_IUPAC_TRADITIONAL_NAME>
1-phenyl-4-[[1-(5-tricyclo[8.2.2.24,7]hexadeca-1(13),4,6,10(14),11,15-hexaenyl)pyrazol-4-yl]methyl]piperazine

> <PUBCHEM_IUPAC_INCHI>
InChI=1S/C30H32N4/c1-2-4-29(5-3-1)33-18-16-32(17-19-33)22-27-21-31-34(23-27)30-20-26-11-10-24-6-8-25(9-7-24)12-14-28(30)15-13-26/h1-9,13,15,20-21,23H,10-12,14,16-19,22H2

> <PUBCHEM_IUPAC_INCHIKEY>
VMUIVGHGONOVFW-UHFFFAOYSA-N

> <PUBCHEM_XLOGP3_AA>
5.8

> <PUBCHEM_EXACT_MASS>
448.26269704

> <PUBCHEM_MOLECULAR_FORMULA>
C30H32N4

> <PUBCHEM_MOLECULAR_WEIGHT>
448.6

> <PUBCHEM_OPENEYE_CAN_SMILES>
C1CC2=CC(=C(CCC3=CC=C1C=C3)C=C2)N4C=C(C=N4)CN5CCN(CC5)C6=CC=CC=C6

> <PUBCHEM_OPENEYE_ISO_SMILES>
C1CC2=CC(=C(CCC3=CC=C1C=C3)C=C2)N4C=C(C=N4)CN5CCN(CC5)C6=CC=CC=C6

> <PUBCHEM_CACTVS_TPSA>
24.3

> <PUBCHEM_MONOISOTOPIC_WEIGHT>
448.26269704

> <PUBCHEM_TOTAL_CHARGE>
0

> <PUBCHEM_HEAVY_ATOM_COUNT>
34

> <PUBCHEM_ATOM_DEF_STEREO_COUNT>
0

> <PUBCHEM_ATOM_UDEF_STEREO_COUNT>
0

> <PUBCHEM_BOND_DEF_STEREO_COUNT>
0

> <PUBCHEM_BOND_UDEF_STEREO_COUNT>
0

> <PUBCHEM_ISOTOPIC_ATOM_COUNT>
0

> <PUBCHEM_COMPONENT_COUNT>
1

> <PUBCHEM_CACTVS_TAUTO_COUNT>
-1

> <PUBCHEM_COORDINATE_TYPE>
1
5
255

> <PUBCHEM_BONDANNOTATIONS>
10  13  8
10  16  8
11  21  8
11  22  8
12  14  8
12  20  8
14  24  8
17  20  8
17  26  8
21  30  8
22  31  8
24  26  8
25  28  8
25  29  8
27  32  8
27  33  8
28  32  8
29  33  8
3  13  8
3  4  8
30  34  8
31  34  8
4  16  8

$$$$
