122180617
  -OEChem-09292322362D

 64 68  0     0  0  0  0  0  0999 V2000
    4.9836    6.8100    0.0000 Cl  0  0  0  0  0  0  0  0  0  0  0  0
    3.8080    8.4281    0.0000 Cl  0  0  0  0  0  0  0  0  0  0  0  0
    5.3457    3.3649    0.0000 N   0  0  0  0  0  0  0  0  0  0  0  0
    4.1701    4.9830    0.0000 N   0  0  0  0  0  0  0  0  0  0  0  0
    6.2956   -0.8892    0.0000 N   0  0  0  0  0  0  0  0  0  0  0  0
    7.2956   -0.8892    0.0000 N   0  0  0  0  0  0  0  0  0  0  0  0
    7.6046   -1.8403    0.0000 N   0  0  0  0  0  0  0  0  0  0  0  0
    5.7524    4.2785    0.0000 C   0  0  0  0  0  0  0  0  0  0  0  0
    4.3511    3.2604    0.0000 C   0  0  0  0  0  0  0  0  0  0  0  0
    5.1646    5.0875    0.0000 C   0  0  0  0  0  0  0  0  0  0  0  0
    3.7634    4.0694    0.0000 C   0  0  0  0  0  0  0  0  0  0  0  0
    5.9334    2.5559    0.0000 C   0  0  0  0  0  0  0  0  0  0  0  0
    5.5267    1.6424    0.0000 C   0  0  0  0  0  0  0  0  0  0  0  0
    6.1145    0.8333    0.0000 C   0  0  0  0  0  0  0  0  0  0  0  0
    3.5823    5.7920    0.0000 C   0  0  0  0  0  0  0  0  0  0  0  0
    5.7078   -0.0802    0.0000 C   0  0  0  0  0  0  0  0  0  0  0  0
    3.9890    6.7055    0.0000 C   0  0  0  0  0  0  0  0  0  0  0  0
    2.5878    5.6874    0.0000 C   0  0  0  0  0  0  0  0  0  0  0  0
    3.4013    7.5145    0.0000 C   0  0  0  0  0  0  0  0  0  0  0  0
    2.0000    6.4964    0.0000 C   0  0  0  0  0  0  0  0  0  0  0  0
    5.9865   -1.8403    0.0000 C   0  0  0  0  0  0  0  0  0  0  0  0
    2.4067    7.4100    0.0000 C   0  0  0  0  0  0  0  0  0  0  0  0
    6.7956   -2.4281    0.0000 C   0  0  0  0  0  0  0  0  0  0  0  0
    6.7956   -3.4281    0.0000 C   0  0  0  0  0  0  0  0  0  0  0  0
    5.9295   -3.9281    0.0000 C   0  0  0  0  0  0  0  0  0  0  0  0
    7.6616   -3.9281    0.0000 C   0  0  0  0  0  0  0  0  0  0  0  0
    6.7956   -5.4281    0.0000 C   0  0  0  0  0  0  0  0  0  0  0  0
    5.9295   -4.9281    0.0000 C   0  0  0  0  0  0  0  0  0  0  0  0
    7.6616   -4.9281    0.0000 C   0  0  0  0  0  0  0  0  0  0  0  0
    6.7956   -6.4281    0.0000 C   0  0  0  0  0  0  0  0  0  0  0  0
    7.6616   -6.9281    0.0000 C   0  0  0  0  0  0  0  0  0  0  0  0
    5.9295   -6.9281    0.0000 C   0  0  0  0  0  0  0  0  0  0  0  0
    7.6616   -7.9281    0.0000 C   0  0  0  0  0  0  0  0  0  0  0  0
    5.9295   -7.9281    0.0000 C   0  0  0  0  0  0  0  0  0  0  0  0
    6.7956   -8.4281    0.0000 C   0  0  0  0  0  0  0  0  0  0  0  0
    6.2664    3.9318    0.0000 H   0  0  0  0  0  0  0  0  0  0  0  0
    6.1831    4.7244    0.0000 H   0  0  0  0  0  0  0  0  0  0  0  0
    3.7939    2.9886    0.0000 H   0  0  0  0  0  0  0  0  0  0  0  0
    4.5220    2.6644    0.0000 H   0  0  0  0  0  0  0  0  0  0  0  0
    5.7219    5.3593    0.0000 H   0  0  0  0  0  0  0  0  0  0  0  0
    4.9937    5.6835    0.0000 H   0  0  0  0  0  0  0  0  0  0  0  0
    3.2494    4.4161    0.0000 H   0  0  0  0  0  0  0  0  0  0  0  0
    3.3327    3.6234    0.0000 H   0  0  0  0  0  0  0  0  0  0  0  0
    6.4474    2.2092    0.0000 H   0  0  0  0  0  0  0  0  0  0  0  0
    6.3641    3.0019    0.0000 H   0  0  0  0  0  0  0  0  0  0  0  0
    5.0127    1.9890    0.0000 H   0  0  0  0  0  0  0  0  0  0  0  0
    5.0960    1.1964    0.0000 H   0  0  0  0  0  0  0  0  0  0  0  0
    6.6285    0.4866    0.0000 H   0  0  0  0  0  0  0  0  0  0  0  0
    6.5452    1.2793    0.0000 H   0  0  0  0  0  0  0  0  0  0  0  0
    5.1938    0.2665    0.0000 H   0  0  0  0  0  0  0  0  0  0  0  0
    5.2771   -0.5262    0.0000 H   0  0  0  0  0  0  0  0  0  0  0  0
    2.3356    5.1210    0.0000 H   0  0  0  0  0  0  0  0  0  0  0  0
    1.3834    6.4316    0.0000 H   0  0  0  0  0  0  0  0  0  0  0  0
    5.3969   -2.0319    0.0000 H   0  0  0  0  0  0  0  0  0  0  0  0
    2.0423    7.9116    0.0000 H   0  0  0  0  0  0  0  0  0  0  0  0
    5.3926   -3.6181    0.0000 H   0  0  0  0  0  0  0  0  0  0  0  0
    8.1985   -3.6181    0.0000 H   0  0  0  0  0  0  0  0  0  0  0  0
    5.3926   -5.2381    0.0000 H   0  0  0  0  0  0  0  0  0  0  0  0
    8.1985   -5.2381    0.0000 H   0  0  0  0  0  0  0  0  0  0  0  0
    8.1985   -6.6181    0.0000 H   0  0  0  0  0  0  0  0  0  0  0  0
    5.3926   -6.6181    0.0000 H   0  0  0  0  0  0  0  0  0  0  0  0
    8.1985   -8.2381    0.0000 H   0  0  0  0  0  0  0  0  0  0  0  0
    5.3926   -8.2381    0.0000 H   0  0  0  0  0  0  0  0  0  0  0  0
    6.7956   -9.0481    0.0000 H   0  0  0  0  0  0  0  0  0  0  0  0
  1 17  1  0  0  0  0
  2 19  1  0  0  0  0
  3  8  1  0  0  0  0
  3  9  1  0  0  0  0
  3 12  1  0  0  0  0
  4 10  1  0  0  0  0
  4 11  1  0  0  0  0
  4 15  1  0  0  0  0
  5  6  1  0  0  0  0
  5 16  1  0  0  0  0
  5 21  1  0  0  0  0
  6  7  2  0  0  0  0
  7 23  1  0  0  0  0
  8 10  1  0  0  0  0
  8 36  1  0  0  0  0
  8 37  1  0  0  0  0
  9 11  1  0  0  0  0
  9 38  1  0  0  0  0
  9 39  1  0  0  0  0
 10 40  1  0  0  0  0
 10 41  1  0  0  0  0
 11 42  1  0  0  0  0
 11 43  1  0  0  0  0
 12 13  1  0  0  0  0
 12 44  1  0  0  0  0
 12 45  1  0  0  0  0
 13 14  1  0  0  0  0
 13 46  1  0  0  0  0
 13 47  1  0  0  0  0
 14 16  1  0  0  0  0
 14 48  1  0  0  0  0
 14 49  1  0  0  0  0
 15 17  2  0  0  0  0
 15 18  1  0  0  0  0
 16 50  1  0  0  0  0
 16 51  1  0  0  0  0
 17 19  1  0  0  0  0
 18 20  2  0  0  0  0
 18 52  1  0  0  0  0
 19 22  2  0  0  0  0
 20 22  1  0  0  0  0
 20 53  1  0  0  0  0
 21 23  2  0  0  0  0
 21 54  1  0  0  0  0
 22 55  1  0  0  0  0
 23 24  1  0  0  0  0
 24 25  2  0  0  0  0
 24 26  1  0  0  0  0
 25 28  1  0  0  0  0
 25 56  1  0  0  0  0
 26 29  2  0  0  0  0
 26 57  1  0  0  0  0
 27 28  2  0  0  0  0
 27 29  1  0  0  0  0
 27 30  1  0  0  0  0
 28 58  1  0  0  0  0
 29 59  1  0  0  0  0
 30 31  2  0  0  0  0
 30 32  1  0  0  0  0
 31 33  1  0  0  0  0
 31 60  1  0  0  0  0
 32 34  2  0  0  0  0
 32 61  1  0  0  0  0
 33 35  2  0  0  0  0
 33 62  1  0  0  0  0
 34 35  1  0  0  0  0
 34 63  1  0  0  0  0
 35 64  1  0  0  0  0
M  END
> <PUBCHEM_COMPOUND_CID>
122180617

> <PUBCHEM_COMPOUND_CANONICALIZED>
1

> <PUBCHEM_CACTVS_COMPLEXITY>
617

> <PUBCHEM_CACTVS_HBOND_ACCEPTOR>
4

> <PUBCHEM_CACTVS_HBOND_DONOR>
0

> <PUBCHEM_CACTVS_ROTATABLE_BOND>
8

> <PUBCHEM_CACTVS_SUBSKEYS>
AAADceB7gAAGAAAAAAAAAAAAAAAAAWAAAAA8YMEAAAAAAAAB1AAAHAIIAAAADArBHiQ8wJMIAACiAzRnRACCBAQxlwAY2mA4dpgIYKLBk5HUIAhggADIyAcQgMAOwAAAAAIAABSAAAAABAAAKAAAAAAAAA==

> <PUBCHEM_IUPAC_OPENEYE_NAME>
1-(2,3-dichlorophenyl)-4-[4-[4-(4-phenylphenyl)triazol-1-yl]butyl]piperazine

> <PUBCHEM_IUPAC_CAS_NAME>
1-(2,3-dichlorophenyl)-4-[4-[4-(4-phenylphenyl)-1-triazolyl]butyl]piperazine

> <PUBCHEM_IUPAC_NAME_MARKUP>
1-(2,3-dichlorophenyl)-4-[4-[4-(4-phenylphenyl)triazol-1-yl]butyl]piperazine

> <PUBCHEM_IUPAC_NAME>
1-(2,3-dichlorophenyl)-4-[4-[4-(4-phenylphenyl)triazol-1-yl]butyl]piperazine

> <PUBCHEM_IUPAC_SYSTEMATIC_NAME>
1-[2,3-bis(chloranyl)phenyl]-4-[4-[4-(4-phenylphenyl)-1,2,3-triazol-1-yl]butyl]piperazine

> <PUBCHEM_IUPAC_TRADITIONAL_NAME>
1-(2,3-dichlorophenyl)-4-[4-[4-(4-phenylphenyl)triazol-1-yl]butyl]piperazine

> <PUBCHEM_IUPAC_INCHI>
InChI=1S/C28H29Cl2N5/c29-25-9-6-10-27(28(25)30)34-19-17-33(18-20-34)15-4-5-16-35-21-26(31-32-35)24-13-11-23(12-14-24)22-7-2-1-3-8-22/h1-3,6-14,21H,4-5,15-20H2

> <PUBCHEM_IUPAC_INCHIKEY>
LIJZDQUYGUZHCR-UHFFFAOYSA-N

> <PUBCHEM_XLOGP3_AA>
6.5

> <PUBCHEM_EXACT_MASS>
505.1800013

> <PUBCHEM_MOLECULAR_FORMULA>
C28H29Cl2N5

> <PUBCHEM_MOLECULAR_WEIGHT>
506.5

> <PUBCHEM_OPENEYE_CAN_SMILES>
C1CN(CCN1CCCCN2C=C(N=N2)C3=CC=C(C=C3)C4=CC=CC=C4)C5=C(C(=CC=C5)Cl)Cl

> <PUBCHEM_OPENEYE_ISO_SMILES>
C1CN(CCN1CCCCN2C=C(N=N2)C3=CC=C(C=C3)C4=CC=CC=C4)C5=C(C(=CC=C5)Cl)Cl

> <PUBCHEM_CACTVS_TPSA>
37.2

> <PUBCHEM_MONOISOTOPIC_WEIGHT>
505.1800013

> <PUBCHEM_TOTAL_CHARGE>
0

> <PUBCHEM_HEAVY_ATOM_COUNT>
35

> <PUBCHEM_ATOM_DEF_STEREO_COUNT>
0

> <PUBCHEM_ATOM_UDEF_STEREO_COUNT>
0

> <PUBCHEM_BOND_DEF_STEREO_COUNT>
0

> <PUBCHEM_BOND_UDEF_STEREO_COUNT>
0

> <PUBCHEM_ISOTOPIC_ATOM_COUNT>
0

> <PUBCHEM_COMPONENT_COUNT>
1

> <PUBCHEM_CACTVS_TAUTO_COUNT>
-1

> <PUBCHEM_COORDINATE_TYPE>
1
5
255

> <PUBCHEM_BONDANNOTATIONS>
15  17  8
15  18  8
17  19  8
18  20  8
19  22  8
20  22  8
21  23  8
24  25  8
24  26  8
25  28  8
26  29  8
27  28  8
27  29  8
30  31  8
30  32  8
31  33  8
32  34  8
33  35  8
34  35  8
5  21  8
5  6  8
6  7  8
7  23  8

$$$$
