44212701
  -OEChem-09292322502D

 59 64  0     1  0  0  0  0  0999 V2000
   13.5898   -0.7291    0.0000 O   0  0  0  0  0  0  0  0  0  0  0  0
    5.7334   -2.2666    0.0000 O   0  0  0  0  0  0  0  0  0  0  0  0
   11.8577    0.2709    0.0000 N   0  0  3  0  0  0  0  0  0  0  0  0
   10.0577   -0.7499    0.0000 N   0  0  3  0  0  0  0  0  0  0  0  0
    4.8616   -0.7699    0.0000 N   0  0  0  0  0  0  0  0  0  0  0  0
   11.8577   -0.7291    0.0000 C   0  0  3  0  0  0  0  0  0  0  0  0
   10.9638   -1.2637    0.0000 C   0  0  0  0  0  0  0  0  0  0  0  0
   10.9638    0.8056    0.0000 C   0  0  0  0  0  0  0  0  0  0  0  0
   10.0577    0.2918    0.0000 C   0  0  0  0  0  0  0  0  0  0  0  0
   12.7238   -1.2290    0.0000 C   0  0  0  0  0  0  0  0  0  0  0  0
   12.7238    0.7709    0.0000 C   0  0  0  0  0  0  0  0  0  0  0  0
    9.1936   -1.2532    0.0000 C   0  0  0  0  0  0  0  0  0  0  0  0
   13.5898    0.2709    0.0000 C   0  0  0  0  0  0  0  0  0  0  0  0
    8.3257   -0.7565    0.0000 C   0  0  0  0  0  0  0  0  0  0  0  0
   12.7077    1.8124    0.0000 C   0  0  0  0  0  0  0  0  0  0  0  0
   14.4998    0.7778    0.0000 C   0  0  0  0  0  0  0  0  0  0  0  0
    7.4616   -1.2599    0.0000 C   0  0  0  0  0  0  0  0  0  0  0  0
   13.6058    2.3402    0.0000 C   0  0  0  0  0  0  0  0  0  0  0  0
    4.7548    0.2184    0.0000 C   0  0  0  0  0  0  0  0  0  0  0  0
    8.3218    0.2434    0.0000 C   0  0  0  0  0  0  0  0  0  0  0  0
    3.7822    0.4239    0.0000 C   0  0  0  0  0  0  0  0  0  0  0  0
    6.5937   -0.7632    0.0000 C   0  0  0  0  0  0  0  0  0  0  0  0
   14.5078    1.8194    0.0000 C   0  0  0  0  0  0  0  0  0  0  0  0
    3.9554   -1.1785    0.0000 C   0  0  0  0  0  0  0  0  0  0  0  0
    3.2847   -0.4368    0.0000 C   0  0  0  0  0  0  0  0  0  0  0  0
    5.7296   -1.2666    0.0000 C   0  0  0  0  0  0  0  0  0  0  0  0
    7.4539    0.7401    0.0000 C   0  0  0  0  0  0  0  0  0  0  0  0
    6.5898    0.2368    0.0000 C   0  0  0  0  0  0  0  0  0  0  0  0
    3.6484   -2.1302    0.0000 C   0  0  0  0  0  0  0  0  0  0  0  0
    2.3070   -0.6468    0.0000 C   0  0  0  0  0  0  0  0  0  0  0  0
    2.6707   -2.3402    0.0000 C   0  0  0  0  0  0  0  0  0  0  0  0
    2.0000   -1.5985    0.0000 C   0  0  0  0  0  0  0  0  0  0  0  0
   11.8625   -1.3490    0.0000 H   0  0  0  0  0  0  0  0  0  0  0  0
   10.5702   -1.7427    0.0000 H   0  0  0  0  0  0  0  0  0  0  0  0
   11.3684   -1.7335    0.0000 H   0  0  0  0  0  0  0  0  0  0  0  0
   11.3684    1.2754    0.0000 H   0  0  0  0  0  0  0  0  0  0  0  0
   10.5702    1.2846    0.0000 H   0  0  0  0  0  0  0  0  0  0  0  0
    9.8487    0.8755    0.0000 H   0  0  0  0  0  0  0  0  0  0  0  0
    9.4469    0.1857    0.0000 H   0  0  0  0  0  0  0  0  0  0  0  0
   12.3252   -1.7040    0.0000 H   0  0  0  0  0  0  0  0  0  0  0  0
   13.1223   -1.7040    0.0000 H   0  0  0  0  0  0  0  0  0  0  0  0
    8.7970   -1.7297    0.0000 H   0  0  0  0  0  0  0  0  0  0  0  0
    9.5940   -1.7266    0.0000 H   0  0  0  0  0  0  0  0  0  0  0  0
   12.1672    2.1162    0.0000 H   0  0  0  0  0  0  0  0  0  0  0  0
   15.0331    0.4616    0.0000 H   0  0  0  0  0  0  0  0  0  0  0  0
    7.4640   -1.8799    0.0000 H   0  0  0  0  0  0  0  0  0  0  0  0
    5.3748    0.2199    0.0000 H   0  0  0  0  0  0  0  0  0  0  0  0
    4.8184    0.8351    0.0000 H   0  0  0  0  0  0  0  0  0  0  0  0
   13.6034    2.9602    0.0000 H   0  0  0  0  0  0  0  0  0  0  0  0
    3.9733    1.0137    0.0000 H   0  0  0  0  0  0  0  0  0  0  0  0
    3.2157    0.6760    0.0000 H   0  0  0  0  0  0  0  0  0  0  0  0
    8.8576    0.5555    0.0000 H   0  0  0  0  0  0  0  0  0  0  0  0
   15.0460    2.1273    0.0000 H   0  0  0  0  0  0  0  0  0  0  0  0
    7.4515    1.3601    0.0000 H   0  0  0  0  0  0  0  0  0  0  0  0
    6.0517    0.5447    0.0000 H   0  0  0  0  0  0  0  0  0  0  0  0
    4.0642   -2.5901    0.0000 H   0  0  0  0  0  0  0  0  0  0  0  0
    1.8912   -0.1869    0.0000 H   0  0  0  0  0  0  0  0  0  0  0  0
    2.4804   -2.9303    0.0000 H   0  0  0  0  0  0  0  0  0  0  0  0
    1.3938   -1.7287    0.0000 H   0  0  0  0  0  0  0  0  0  0  0  0
  1 10  1  0  0  0  0
  1 13  1  0  0  0  0
  2 26  2  0  0  0  0
  3  6  1  0  0  0  0
  3  8  1  0  0  0  0
  3 11  1  0  0  0  0
  4  7  1  0  0  0  0
  4  9  1  0  0  0  0
  4 12  1  0  0  0  0
  5 19  1  0  0  0  0
  5 24  1  0  0  0  0
  5 26  1  0  0  0  0
  6  7  1  0  0  0  0
  6 10  1  0  0  0  0
  6 33  1  0  0  0  0
  7 34  1  0  0  0  0
  7 35  1  0  0  0  0
  8  9  1  0  0  0  0
  8 36  1  0  0  0  0
  8 37  1  0  0  0  0
  9 38  1  0  0  0  0
  9 39  1  0  0  0  0
 10 40  1  0  0  0  0
 10 41  1  0  0  0  0
 11 13  1  0  0  0  0
 11 15  2  0  0  0  0
 12 14  1  0  0  0  0
 12 42  1  0  0  0  0
 12 43  1  0  0  0  0
 13 16  2  0  0  0  0
 14 17  2  0  0  0  0
 14 20  1  0  0  0  0
 15 18  1  0  0  0  0
 15 44  1  0  0  0  0
 16 23  1  0  0  0  0
 16 45  1  0  0  0  0
 17 22  1  0  0  0  0
 17 46  1  0  0  0  0
 18 23  2  0  0  0  0
 18 49  1  0  0  0  0
 19 21  1  0  0  0  0
 19 47  1  0  0  0  0
 19 48  1  0  0  0  0
 20 27  2  0  0  0  0
 20 52  1  0  0  0  0
 21 25  1  0  0  0  0
 21 50  1  0  0  0  0
 21 51  1  0  0  0  0
 22 26  1  0  0  0  0
 22 28  2  0  0  0  0
 23 53  1  0  0  0  0
 24 25  1  0  0  0  0
 24 29  2  0  0  0  0
 25 30  2  0  0  0  0
 27 28  1  0  0  0  0
 27 54  1  0  0  0  0
 28 55  1  0  0  0  0
 29 31  1  0  0  0  0
 29 56  1  0  0  0  0
 30 32  1  0  0  0  0
 30 57  1  0  0  0  0
 31 32  2  0  0  0  0
 31 58  1  0  0  0  0
 32 59  1  0  0  0  0
M  END
> <PUBCHEM_COMPOUND_CID>
44212701

> <PUBCHEM_COMPOUND_CANONICALIZED>
1

> <PUBCHEM_CACTVS_COMPLEXITY>
671

> <PUBCHEM_CACTVS_HBOND_ACCEPTOR>
4

> <PUBCHEM_CACTVS_HBOND_DONOR>
0

> <PUBCHEM_CACTVS_ROTATABLE_BOND>
3

> <PUBCHEM_CACTVS_SUBSKEYS>
AAADceB7MAAAAAAAAAAAAAAAAAAAAWAAAAA8eMECAAAAAFixUAAAHgAAAAAADCzhmAYwxoMABACIAiVSUACCCAAlIgAIiAEPbMgOZjLEtZuXOSjmxhHY6YeYycCOAAACAAACEAAAAAQAAAQgAAAAAAAAAA==

> <PUBCHEM_IUPAC_OPENEYE_NAME>
[3-(2,4,4a,5-tetrahydro-1H-pyrazino[2,1-c][1,4]benzoxazin-3-ylmethyl)phenyl]-indolin-1-yl-methanone

> <PUBCHEM_IUPAC_CAS_NAME>
[3-(2,4,4a,5-tetrahydro-1H-pyrazino[2,1-c][1,4]benzoxazin-3-ylmethyl)phenyl]-(2,3-dihydroindol-1-yl)methanone

> <PUBCHEM_IUPAC_NAME_MARKUP>
[3-(2,4,4<I>a</I>,5-tetrahydro-1<I>H</I>-pyrazino[2,1-c][1,4]benzoxazin-3-ylmethyl)phenyl]-(2,3-dihydroindol-1-yl)methanone

> <PUBCHEM_IUPAC_NAME>
[3-(2,4,4a,5-tetrahydro-1H-pyrazino[2,1-c][1,4]benzoxazin-3-ylmethyl)phenyl]-(2,3-dihydroindol-1-yl)methanone

> <PUBCHEM_IUPAC_SYSTEMATIC_NAME>
[3-(2,4,4a,5-tetrahydro-1H-pyrazino[2,1-c][1,4]benzoxazin-3-ylmethyl)phenyl]-(2,3-dihydroindol-1-yl)methanone

> <PUBCHEM_IUPAC_TRADITIONAL_NAME>
[3-(2,4,4a,5-tetrahydro-1H-pyrazino[2,1-c][1,4]benzoxazin-3-ylmethyl)phenyl]-indolin-1-yl-methanone

> <PUBCHEM_IUPAC_INCHI>
InChI=1S/C27H27N3O2/c31-27(30-13-12-21-7-1-2-9-24(21)30)22-8-5-6-20(16-22)17-28-14-15-29-23(18-28)19-32-26-11-4-3-10-25(26)29/h1-11,16,23H,12-15,17-19H2

> <PUBCHEM_IUPAC_INCHIKEY>
DDOCOMAAXSLYLB-UHFFFAOYSA-N

> <PUBCHEM_XLOGP3_AA>
4.2

> <PUBCHEM_EXACT_MASS>
425.21032711

> <PUBCHEM_MOLECULAR_FORMULA>
C27H27N3O2

> <PUBCHEM_MOLECULAR_WEIGHT>
425.5

> <PUBCHEM_OPENEYE_CAN_SMILES>
C1CN(C2=CC=CC=C21)C(=O)C3=CC=CC(=C3)CN4CCN5C(C4)COC6=CC=CC=C65

> <PUBCHEM_OPENEYE_ISO_SMILES>
C1CN(C2=CC=CC=C21)C(=O)C3=CC=CC(=C3)CN4CCN5C(C4)COC6=CC=CC=C65

> <PUBCHEM_CACTVS_TPSA>
36

> <PUBCHEM_MONOISOTOPIC_WEIGHT>
425.21032711

> <PUBCHEM_TOTAL_CHARGE>
0

> <PUBCHEM_HEAVY_ATOM_COUNT>
32

> <PUBCHEM_ATOM_DEF_STEREO_COUNT>
0

> <PUBCHEM_ATOM_UDEF_STEREO_COUNT>
1

> <PUBCHEM_BOND_DEF_STEREO_COUNT>
0

> <PUBCHEM_BOND_UDEF_STEREO_COUNT>
0

> <PUBCHEM_ISOTOPIC_ATOM_COUNT>
0

> <PUBCHEM_COMPONENT_COUNT>
1

> <PUBCHEM_CACTVS_TAUTO_COUNT>
-1

> <PUBCHEM_COORDINATE_TYPE>
1
5
255

> <PUBCHEM_BONDANNOTATIONS>
11  13  8
11  15  8
13  16  8
14  17  8
14  20  8
15  18  8
16  23  8
17  22  8
18  23  8
20  27  8
22  28  8
24  25  8
24  29  8
25  30  8
27  28  8
29  31  8
30  32  8
31  32  8
6  7  3

$$$$
