155515982
  -OEChem-09292322402D

 70 73  0     1  0  0  0  0  0999 V2000
    8.9282   -5.0000    0.0000 O   0  0  0  0  0  0  0  0  0  0  0  0
    6.3301    2.5000    0.0000 O   0  0  0  0  0  0  0  0  0  0  0  0
    7.1962   -2.0000    0.0000 N   0  0  0  0  0  0  0  0  0  0  0  0
    7.1962   -4.0000    0.0000 N   0  0  0  0  0  0  0  0  0  0  0  0
    5.4641    1.0000    0.0000 N   0  0  0  0  0  0  0  0  0  0  0  0
    4.5981    2.5000    0.0000 N   0  0  0  0  0  0  0  0  0  0  0  0
    4.5981    3.5000    0.0000 N   0  0  3  0  0  0  0  0  0  0  0  0
    6.3301   -2.5000    0.0000 C   0  0  0  0  0  0  0  0  0  0  0  0
    8.0622   -2.5000    0.0000 C   0  0  0  0  0  0  0  0  0  0  0  0
    6.3301   -3.5000    0.0000 C   0  0  0  0  0  0  0  0  0  0  0  0
    8.0622   -3.5000    0.0000 C   0  0  0  0  0  0  0  0  0  0  0  0
    7.1962   -1.0000    0.0000 C   0  0  0  0  0  0  0  0  0  0  0  0
    6.3301   -0.5000    0.0000 C   0  0  0  0  0  0  0  0  0  0  0  0
    7.1962   -5.0000    0.0000 C   0  0  0  0  0  0  0  0  0  0  0  0
    6.3301    0.5000    0.0000 C   0  0  0  0  0  0  0  0  0  0  0  0
    8.0622   -5.5000    0.0000 C   0  0  0  0  0  0  0  0  0  0  0  0
    6.3301   -5.5000    0.0000 C   0  0  0  0  0  0  0  0  0  0  0  0
    8.0622   -6.5000    0.0000 C   0  0  0  0  0  0  0  0  0  0  0  0
    6.3301   -6.5000    0.0000 C   0  0  0  0  0  0  0  0  0  0  0  0
    7.1962   -7.0000    0.0000 C   0  0  0  0  0  0  0  0  0  0  0  0
    5.4641    2.0000    0.0000 C   0  0  0  0  0  0  0  0  0  0  0  0
    9.7942   -5.5000    0.0000 C   0  0  0  0  0  0  0  0  0  0  0  0
    5.4641    4.0000    0.0000 C   0  0  0  0  0  0  0  0  0  0  0  0
    3.7320    4.0000    0.0000 C   0  0  0  0  0  0  0  0  0  0  0  0
    5.4641    5.0000    0.0000 C   0  0  0  0  0  0  0  0  0  0  0  0
    3.7320    5.0000    0.0000 C   0  0  0  0  0  0  0  0  0  0  0  0
    2.8660    3.5000    0.0000 C   0  0  0  0  0  0  0  0  0  0  0  0
    4.5981    5.5000    0.0000 C   0  0  0  0  0  0  0  0  0  0  0  0
    6.3301    5.5000    0.0000 C   0  0  0  0  0  0  0  0  0  0  0  0
    2.8660    5.5000    0.0000 C   0  0  0  0  0  0  0  0  0  0  0  0
    2.0000    4.0000    0.0000 C   0  0  0  0  0  0  0  0  0  0  0  0
    4.5981    6.5000    0.0000 C   0  0  0  0  0  0  0  0  0  0  0  0
    6.3301    6.5000    0.0000 C   0  0  0  0  0  0  0  0  0  0  0  0
    2.0000    5.0000    0.0000 C   0  0  0  0  0  0  0  0  0  0  0  0
    5.4641    7.0000    0.0000 C   0  0  0  0  0  0  0  0  0  0  0  0
    6.1181   -1.9174    0.0000 H   0  0  0  0  0  0  0  0  0  0  0  0
    5.7196   -2.6077    0.0000 H   0  0  0  0  0  0  0  0  0  0  0  0
    8.6728   -2.6077    0.0000 H   0  0  0  0  0  0  0  0  0  0  0  0
    8.2742   -1.9174    0.0000 H   0  0  0  0  0  0  0  0  0  0  0  0
    5.7196   -3.3923    0.0000 H   0  0  0  0  0  0  0  0  0  0  0  0
    6.1181   -4.0826    0.0000 H   0  0  0  0  0  0  0  0  0  0  0  0
    8.2742   -4.0826    0.0000 H   0  0  0  0  0  0  0  0  0  0  0  0
    8.6728   -3.3923    0.0000 H   0  0  0  0  0  0  0  0  0  0  0  0
    7.8067   -1.1077    0.0000 H   0  0  0  0  0  0  0  0  0  0  0  0
    7.4082   -0.4174    0.0000 H   0  0  0  0  0  0  0  0  0  0  0  0
    5.7196   -0.3923    0.0000 H   0  0  0  0  0  0  0  0  0  0  0  0
    6.1181   -1.0826    0.0000 H   0  0  0  0  0  0  0  0  0  0  0  0
    6.9407    0.3923    0.0000 H   0  0  0  0  0  0  0  0  0  0  0  0
    6.5422    1.0826    0.0000 H   0  0  0  0  0  0  0  0  0  0  0  0
    5.7932   -5.1900    0.0000 H   0  0  0  0  0  0  0  0  0  0  0  0
    4.9272    0.6900    0.0000 H   0  0  0  0  0  0  0  0  0  0  0  0
    8.5991   -6.8100    0.0000 H   0  0  0  0  0  0  0  0  0  0  0  0
    5.7932   -6.8100    0.0000 H   0  0  0  0  0  0  0  0  0  0  0  0
    7.1962   -7.6200    0.0000 H   0  0  0  0  0  0  0  0  0  0  0  0
    4.0611    2.1900    0.0000 H   0  0  0  0  0  0  0  0  0  0  0  0
    9.4842   -6.0369    0.0000 H   0  0  0  0  0  0  0  0  0  0  0  0
   10.3312   -5.8100    0.0000 H   0  0  0  0  0  0  0  0  0  0  0  0
   10.1042   -4.9631    0.0000 H   0  0  0  0  0  0  0  0  0  0  0  0
    5.6762    3.4174    0.0000 H   0  0  0  0  0  0  0  0  0  0  0  0
    6.0747    4.1077    0.0000 H   0  0  0  0  0  0  0  0  0  0  0  0
    4.2690    5.3100    0.0000 H   0  0  0  0  0  0  0  0  0  0  0  0
    2.8660    2.8800    0.0000 H   0  0  0  0  0  0  0  0  0  0  0  0
    4.0611    5.1900    0.0000 H   0  0  0  0  0  0  0  0  0  0  0  0
    6.8671    5.1900    0.0000 H   0  0  0  0  0  0  0  0  0  0  0  0
    2.8660    6.1200    0.0000 H   0  0  0  0  0  0  0  0  0  0  0  0
    1.4631    3.6900    0.0000 H   0  0  0  0  0  0  0  0  0  0  0  0
    4.0611    6.8100    0.0000 H   0  0  0  0  0  0  0  0  0  0  0  0
    6.8671    6.8100    0.0000 H   0  0  0  0  0  0  0  0  0  0  0  0
    1.4631    5.3100    0.0000 H   0  0  0  0  0  0  0  0  0  0  0  0
    5.4641    7.6200    0.0000 H   0  0  0  0  0  0  0  0  0  0  0  0
  1 16  1  0  0  0  0
  1 22  1  0  0  0  0
  2 21  2  0  0  0  0
  3  8  1  0  0  0  0
  3  9  1  0  0  0  0
  3 12  1  0  0  0  0
  4 10  1  0  0  0  0
  4 11  1  0  0  0  0
  4 14  1  0  0  0  0
  5 15  1  0  0  0  0
  5 21  1  0  0  0  0
  5 51  1  0  0  0  0
  6  7  1  0  0  0  0
  6 21  1  0  0  0  0
  6 55  1  0  0  0  0
  7 23  1  0  0  0  0
  7 24  1  0  0  0  0
  8 10  1  0  0  0  0
  8 36  1  0  0  0  0
  8 37  1  0  0  0  0
  9 11  1  0  0  0  0
  9 38  1  0  0  0  0
  9 39  1  0  0  0  0
 10 40  1  0  0  0  0
 10 41  1  0  0  0  0
 11 42  1  0  0  0  0
 11 43  1  0  0  0  0
 12 13  1  0  0  0  0
 12 44  1  0  0  0  0
 12 45  1  0  0  0  0
 13 15  1  0  0  0  0
 13 46  1  0  0  0  0
 13 47  1  0  0  0  0
 14 16  1  0  0  0  0
 14 17  2  0  0  0  0
 15 48  1  0  0  0  0
 15 49  1  0  0  0  0
 16 18  2  0  0  0  0
 17 19  1  0  0  0  0
 17 50  1  0  0  0  0
 18 20  1  0  0  0  0
 18 52  1  0  0  0  0
 19 20  2  0  0  0  0
 19 53  1  0  0  0  0
 20 54  1  0  0  0  0
 22 56  1  0  0  0  0
 22 57  1  0  0  0  0
 22 58  1  0  0  0  0
 23 25  1  0  0  0  0
 23 59  1  0  0  0  0
 23 60  1  0  0  0  0
 24 26  2  0  0  0  0
 24 27  1  0  0  0  0
 25 28  2  0  0  0  0
 25 29  1  0  0  0  0
 26 30  1  0  0  0  0
 26 61  1  0  0  0  0
 27 31  2  0  0  0  0
 27 62  1  0  0  0  0
 28 32  1  0  0  0  0
 28 63  1  0  0  0  0
 29 33  2  0  0  0  0
 29 64  1  0  0  0  0
 30 34  2  0  0  0  0
 30 65  1  0  0  0  0
 31 34  1  0  0  0  0
 31 66  1  0  0  0  0
 32 35  2  0  0  0  0
 32 67  1  0  0  0  0
 33 35  1  0  0  0  0
 33 68  1  0  0  0  0
 34 69  1  0  0  0  0
 35 70  1  0  0  0  0
M  END
> <PUBCHEM_COMPOUND_CID>
155515982

> <PUBCHEM_COMPOUND_CANONICALIZED>
1

> <PUBCHEM_CACTVS_COMPLEXITY>
600

> <PUBCHEM_CACTVS_HBOND_ACCEPTOR>
5

> <PUBCHEM_CACTVS_HBOND_DONOR>
2

> <PUBCHEM_CACTVS_ROTATABLE_BOND>
10

> <PUBCHEM_CACTVS_SUBSKEYS>
AAADcfB7sAAAAAAAAAAAAAAAAAAAAAAAAAA8YMEAAAAAAAABUAAAHgAYAAAADAzBmAYzxoPiBACIAiRCUACCDAAhIgAeqIAPbIiOZiLE8ZuVMCh01hPY6AeQwAAOAAAAAAAAEAAAAAAAAAAgAAAAAAAAAA==

> <PUBCHEM_IUPAC_OPENEYE_NAME>
1-(N-benzylanilino)-3-[3-[4-(2-methoxyphenyl)piperazin-1-yl]propyl]urea

> <PUBCHEM_IUPAC_CAS_NAME>
1-[3-[4-(2-methoxyphenyl)-1-piperazinyl]propyl]-3-(N-(phenylmethyl)anilino)urea

> <PUBCHEM_IUPAC_NAME_MARKUP>
1-(<I>N</I>-benzylanilino)-3-[3-[4-(2-methoxyphenyl)piperazin-1-yl]propyl]urea

> <PUBCHEM_IUPAC_NAME>
1-(N-benzylanilino)-3-[3-[4-(2-methoxyphenyl)piperazin-1-yl]propyl]urea

> <PUBCHEM_IUPAC_SYSTEMATIC_NAME>
1-[3-[4-(2-methoxyphenyl)piperazin-1-yl]propyl]-3-[phenyl-(phenylmethyl)amino]urea

> <PUBCHEM_IUPAC_TRADITIONAL_NAME>
1-(N-benzylanilino)-3-[3-[4-(2-methoxyphenyl)piperazino]propyl]urea

> <PUBCHEM_IUPAC_INCHI>
InChI=1S/C28H35N5O2/c1-35-27-16-9-8-15-26(27)32-21-19-31(20-22-32)18-10-17-29-28(34)30-33(25-13-6-3-7-14-25)23-24-11-4-2-5-12-24/h2-9,11-16H,10,17-23H2,1H3,(H2,29,30,34)

> <PUBCHEM_IUPAC_INCHIKEY>
QAESTHCUZJPQGF-UHFFFAOYSA-N

> <PUBCHEM_XLOGP3_AA>
4.8

> <PUBCHEM_EXACT_MASS>
473.27907538

> <PUBCHEM_MOLECULAR_FORMULA>
C28H35N5O2

> <PUBCHEM_MOLECULAR_WEIGHT>
473.6

> <PUBCHEM_OPENEYE_CAN_SMILES>
COC1=CC=CC=C1N2CCN(CC2)CCCNC(=O)NN(CC3=CC=CC=C3)C4=CC=CC=C4

> <PUBCHEM_OPENEYE_ISO_SMILES>
COC1=CC=CC=C1N2CCN(CC2)CCCNC(=O)NN(CC3=CC=CC=C3)C4=CC=CC=C4

> <PUBCHEM_CACTVS_TPSA>
60.1

> <PUBCHEM_MONOISOTOPIC_WEIGHT>
473.27907538

> <PUBCHEM_TOTAL_CHARGE>
0

> <PUBCHEM_HEAVY_ATOM_COUNT>
35

> <PUBCHEM_ATOM_DEF_STEREO_COUNT>
0

> <PUBCHEM_ATOM_UDEF_STEREO_COUNT>
0

> <PUBCHEM_BOND_DEF_STEREO_COUNT>
0

> <PUBCHEM_BOND_UDEF_STEREO_COUNT>
0

> <PUBCHEM_ISOTOPIC_ATOM_COUNT>
0

> <PUBCHEM_COMPONENT_COUNT>
1

> <PUBCHEM_CACTVS_TAUTO_COUNT>
-1

> <PUBCHEM_COORDINATE_TYPE>
1
5
255

> <PUBCHEM_BONDANNOTATIONS>
14  16  8
14  17  8
16  18  8
17  19  8
18  20  8
19  20  8
24  26  8
24  27  8
25  28  8
25  29  8
26  30  8
27  31  8
28  32  8
29  33  8
30  34  8
31  34  8
32  35  8
33  35  8

$$$$
