25069121
  -OEChem-09292322302D

 61 65  0     0  0  0  0  0  0999 V2000
   11.3973    1.3724    0.0000 O   0  0  0  0  0  0  0  0  0  0  0  0
   15.2522    2.1276    0.0000 O   0  0  0  0  0  0  0  0  0  0  0  0
    5.3351   -0.1276    0.0000 N   0  0  0  0  0  0  0  0  0  0  0  0
    7.0671    0.8724    0.0000 N   0  0  0  0  0  0  0  0  0  0  0  0
   15.5252    0.3724    0.0000 N   0  0  0  0  0  0  0  0  0  0  0  0
    5.3351    0.8724    0.0000 C   0  0  0  0  0  0  0  0  0  0  0  0
    6.2011   -0.6276    0.0000 C   0  0  0  0  0  0  0  0  0  0  0  0
    6.2011    1.3724    0.0000 C   0  0  0  0  0  0  0  0  0  0  0  0
    7.0671   -0.1276    0.0000 C   0  0  0  0  0  0  0  0  0  0  0  0
    3.6030   -0.1276    0.0000 C   0  0  0  0  0  0  0  0  0  0  0  0
    4.4691   -0.6276    0.0000 C   0  0  0  0  0  0  0  0  0  0  0  0
    3.3938    0.8442    0.0000 C   0  0  0  0  0  0  0  0  0  0  0  0
    2.7370   -0.6276    0.0000 C   0  0  0  0  0  0  0  0  0  0  0  0
    2.4051    0.9472    0.0000 C   0  0  0  0  0  0  0  0  0  0  0  0
    2.0000    0.0395    0.0000 C   0  0  0  0  0  0  0  0  0  0  0  0
    7.9332    1.3724    0.0000 C   0  0  0  0  0  0  0  0  0  0  0  0
    8.7992    0.8724    0.0000 C   0  0  0  0  0  0  0  0  0  0  0  0
    4.4691   -1.6276    0.0000 C   0  0  0  0  0  0  0  0  0  0  0  0
    2.7370   -1.6276    0.0000 C   0  0  0  0  0  0  0  0  0  0  0  0
    3.6030   -2.1276    0.0000 C   0  0  0  0  0  0  0  0  0  0  0  0
    9.6652    1.3724    0.0000 C   0  0  0  0  0  0  0  0  0  0  0  0
   10.5312    0.8724    0.0000 C   0  0  0  0  0  0  0  0  0  0  0  0
   12.2633    0.8724    0.0000 C   0  0  0  0  0  0  0  0  0  0  0  0
   13.9953   -0.1276    0.0000 C   0  0  0  0  0  0  0  0  0  0  0  0
   13.9953    0.8724    0.0000 C   0  0  0  0  0  0  0  0  0  0  0  0
   13.1293    1.3724    0.0000 C   0  0  0  0  0  0  0  0  0  0  0  0
   14.9416   -0.4324    0.0000 C   0  0  0  0  0  0  0  0  0  0  0  0
   12.2633   -0.1276    0.0000 C   0  0  0  0  0  0  0  0  0  0  0  0
   13.1293   -0.6276    0.0000 C   0  0  0  0  0  0  0  0  0  0  0  0
   14.9416    1.1771    0.0000 C   0  0  0  0  0  0  0  0  0  0  0  0
    5.1230    1.4550    0.0000 H   0  0  0  0  0  0  0  0  0  0  0  0
    4.7245    0.7647    0.0000 H   0  0  0  0  0  0  0  0  0  0  0  0
    5.8026   -1.1026    0.0000 H   0  0  0  0  0  0  0  0  0  0  0  0
    6.5996   -1.1026    0.0000 H   0  0  0  0  0  0  0  0  0  0  0  0
    6.5996    1.8473    0.0000 H   0  0  0  0  0  0  0  0  0  0  0  0
    5.8026    1.8473    0.0000 H   0  0  0  0  0  0  0  0  0  0  0  0
    7.2792   -0.7102    0.0000 H   0  0  0  0  0  0  0  0  0  0  0  0
    7.6777   -0.0200    0.0000 H   0  0  0  0  0  0  0  0  0  0  0  0
    4.0103    0.9102    0.0000 H   0  0  0  0  0  0  0  0  0  0  0  0
    3.3929    1.4642    0.0000 H   0  0  0  0  0  0  0  0  0  0  0  0
    2.5338    1.5537    0.0000 H   0  0  0  0  0  0  0  0  0  0  0  0
    1.8155    1.1390    0.0000 H   0  0  0  0  0  0  0  0  0  0  0  0
    1.4635    0.3502    0.0000 H   0  0  0  0  0  0  0  0  0  0  0  0
    1.6346   -0.4614    0.0000 H   0  0  0  0  0  0  0  0  0  0  0  0
    8.3317    1.8473    0.0000 H   0  0  0  0  0  0  0  0  0  0  0  0
    7.5346    1.8473    0.0000 H   0  0  0  0  0  0  0  0  0  0  0  0
    8.4007    0.3974    0.0000 H   0  0  0  0  0  0  0  0  0  0  0  0
    9.1977    0.3974    0.0000 H   0  0  0  0  0  0  0  0  0  0  0  0
    5.0060   -1.9376    0.0000 H   0  0  0  0  0  0  0  0  0  0  0  0
    2.2001   -1.9376    0.0000 H   0  0  0  0  0  0  0  0  0  0  0  0
    3.6030   -2.7476    0.0000 H   0  0  0  0  0  0  0  0  0  0  0  0
   10.0637    1.8473    0.0000 H   0  0  0  0  0  0  0  0  0  0  0  0
    9.2667    1.8473    0.0000 H   0  0  0  0  0  0  0  0  0  0  0  0
   10.1327    0.3974    0.0000 H   0  0  0  0  0  0  0  0  0  0  0  0
   10.9298    0.3974    0.0000 H   0  0  0  0  0  0  0  0  0  0  0  0
   14.6905   -0.9993    0.0000 H   0  0  0  0  0  0  0  0  0  0  0  0
   15.4789   -0.7416    0.0000 H   0  0  0  0  0  0  0  0  0  0  0  0
   13.1293    1.9924    0.0000 H   0  0  0  0  0  0  0  0  0  0  0  0
   11.7264   -0.4376    0.0000 H   0  0  0  0  0  0  0  0  0  0  0  0
   13.1293   -1.2476    0.0000 H   0  0  0  0  0  0  0  0  0  0  0  0
   16.1452    0.3724    0.0000 H   0  0  0  0  0  0  0  0  0  0  0  0
  1 22  1  0  0  0  0
  1 23  1  0  0  0  0
  2 30  2  0  0  0  0
  3  6  1  0  0  0  0
  3  7  1  0  0  0  0
  3 11  1  0  0  0  0
  4  8  1  0  0  0  0
  4  9  1  0  0  0  0
  4 16  1  0  0  0  0
  5 27  1  0  0  0  0
  5 30  1  0  0  0  0
  5 61  1  0  0  0  0
  6  8  1  0  0  0  0
  6 31  1  0  0  0  0
  6 32  1  0  0  0  0
  7  9  1  0  0  0  0
  7 33  1  0  0  0  0
  7 34  1  0  0  0  0
  8 35  1  0  0  0  0
  8 36  1  0  0  0  0
  9 37  1  0  0  0  0
  9 38  1  0  0  0  0
 10 11  1  0  0  0  0
 10 12  1  0  0  0  0
 10 13  2  0  0  0  0
 11 18  2  0  0  0  0
 12 14  1  0  0  0  0
 12 39  1  0  0  0  0
 12 40  1  0  0  0  0
 13 15  1  0  0  0  0
 13 19  1  0  0  0  0
 14 15  1  0  0  0  0
 14 41  1  0  0  0  0
 14 42  1  0  0  0  0
 15 43  1  0  0  0  0
 15 44  1  0  0  0  0
 16 17  1  0  0  0  0
 16 45  1  0  0  0  0
 16 46  1  0  0  0  0
 17 21  1  0  0  0  0
 17 47  1  0  0  0  0
 17 48  1  0  0  0  0
 18 20  1  0  0  0  0
 18 49  1  0  0  0  0
 19 20  2  0  0  0  0
 19 50  1  0  0  0  0
 20 51  1  0  0  0  0
 21 22  1  0  0  0  0
 21 52  1  0  0  0  0
 21 53  1  0  0  0  0
 22 54  1  0  0  0  0
 22 55  1  0  0  0  0
 23 26  2  0  0  0  0
 23 28  1  0  0  0  0
 24 25  2  0  0  0  0
 24 27  1  0  0  0  0
 24 29  1  0  0  0  0
 25 26  1  0  0  0  0
 25 30  1  0  0  0  0
 26 58  1  0  0  0  0
 27 56  1  0  0  0  0
 27 57  1  0  0  0  0
 28 29  2  0  0  0  0
 28 59  1  0  0  0  0
 29 60  1  0  0  0  0
M  END
> <PUBCHEM_COMPOUND_CID>
25069121

> <PUBCHEM_COMPOUND_CANONICALIZED>
1

> <PUBCHEM_CACTVS_COMPLEXITY>
577

> <PUBCHEM_CACTVS_HBOND_ACCEPTOR>
4

> <PUBCHEM_CACTVS_HBOND_DONOR>
1

> <PUBCHEM_CACTVS_ROTATABLE_BOND>
7

> <PUBCHEM_CACTVS_SUBSKEYS>
AAADceB7MAAAAAAAAAAAAAAAAAAAAeIAAAA8YIAAAAAAAHgBQAAAHgAQAAAADAzhmAYwxoPABACIAiVSUACCCAAlIgAIiIEObMgMZjLEtZuWOSjkxhHI6Ye+2JKOoAABQAASAABAAAKAACQAAAAACAAAAA==

> <PUBCHEM_IUPAC_OPENEYE_NAME>
6-[4-(4-indan-4-ylpiperazin-1-yl)butoxy]isoindolin-1-one

> <PUBCHEM_IUPAC_CAS_NAME>
6-[4-[4-(2,3-dihydro-1H-inden-4-yl)-1-piperazinyl]butoxy]-2,3-dihydroisoindol-1-one

> <PUBCHEM_IUPAC_NAME_MARKUP>
6-[4-[4-(2,3-dihydro-1<I>H</I>-inden-4-yl)piperazin-1-yl]butoxy]-2,3-dihydroisoindol-1-one

> <PUBCHEM_IUPAC_NAME>
6-[4-[4-(2,3-dihydro-1H-inden-4-yl)piperazin-1-yl]butoxy]-2,3-dihydroisoindol-1-one

> <PUBCHEM_IUPAC_SYSTEMATIC_NAME>
6-[4-[4-(2,3-dihydro-1H-inden-4-yl)piperazin-1-yl]butoxy]-2,3-dihydroisoindol-1-one

> <PUBCHEM_IUPAC_TRADITIONAL_NAME>
6-[4-(4-indan-4-ylpiperazino)butoxy]isoindolin-1-one

> <PUBCHEM_IUPAC_INCHI>
InChI=1S/C25H31N3O2/c29-25-23-17-21(10-9-20(23)18-26-25)30-16-2-1-11-27-12-14-28(15-13-27)24-8-4-6-19-5-3-7-22(19)24/h4,6,8-10,17H,1-3,5,7,11-16,18H2,(H,26,29)

> <PUBCHEM_IUPAC_INCHIKEY>
PJBISDNIYJBREA-UHFFFAOYSA-N

> <PUBCHEM_XLOGP3_AA>
3.9

> <PUBCHEM_EXACT_MASS>
405.24162724

> <PUBCHEM_MOLECULAR_FORMULA>
C25H31N3O2

> <PUBCHEM_MOLECULAR_WEIGHT>
405.5

> <PUBCHEM_OPENEYE_CAN_SMILES>
C1CC2=C(C1)C(=CC=C2)N3CCN(CC3)CCCCOC4=CC5=C(CNC5=O)C=C4

> <PUBCHEM_OPENEYE_ISO_SMILES>
C1CC2=C(C1)C(=CC=C2)N3CCN(CC3)CCCCOC4=CC5=C(CNC5=O)C=C4

> <PUBCHEM_CACTVS_TPSA>
44.8

> <PUBCHEM_MONOISOTOPIC_WEIGHT>
405.24162724

> <PUBCHEM_TOTAL_CHARGE>
0

> <PUBCHEM_HEAVY_ATOM_COUNT>
30

> <PUBCHEM_ATOM_DEF_STEREO_COUNT>
0

> <PUBCHEM_ATOM_UDEF_STEREO_COUNT>
0

> <PUBCHEM_BOND_DEF_STEREO_COUNT>
0

> <PUBCHEM_BOND_UDEF_STEREO_COUNT>
0

> <PUBCHEM_ISOTOPIC_ATOM_COUNT>
0

> <PUBCHEM_COMPONENT_COUNT>
1

> <PUBCHEM_CACTVS_TAUTO_COUNT>
-1

> <PUBCHEM_COORDINATE_TYPE>
1
5
255

> <PUBCHEM_BONDANNOTATIONS>
10  11  8
10  13  8
11  18  8
13  19  8
18  20  8
19  20  8
23  26  8
23  28  8
24  25  8
24  29  8
25  26  8
28  29  8

$$$$
