10395316
  -OEChem-09292322202D

118123  0     0  0  0  0  0  0999 V2000
    8.4487    0.9296    0.0000 O   0  0  0  0  0  0  0  0  0  0  0  0
    9.2619   -2.1577    0.0000 O   0  0  0  0  0  0  0  0  0  0  0  0
   11.8926    0.5556    0.0000 N   0  0  0  0  0  0  0  0  0  0  0  0
   12.2619   -3.8898    0.0000 N   0  0  0  0  0  0  0  0  0  0  0  0
    4.2746    2.9872    0.0000 N   0  0  0  0  0  0  0  0  0  0  0  0
    4.6783   -1.3530    0.0000 N   0  0  0  0  0  0  0  0  0  0  0  0
    5.2251    4.2860    0.0000 N   0  0  0  0  0  0  0  0  0  0  0  0
    4.6783   -2.9624    0.0000 N   0  0  0  0  0  0  0  0  0  0  0  0
   11.0856    1.1462    0.0000 C   0  0  0  0  0  0  0  0  0  0  0  0
   11.2619   -3.8898    0.0000 C   0  0  0  0  0  0  0  0  0  0  0  0
   12.8075    0.9591    0.0000 C   0  0  0  0  0  0  0  0  0  0  0  0
   11.7846   -0.4386    0.0000 C   0  0  0  0  0  0  0  0  0  0  0  0
   12.7619   -4.7558    0.0000 C   0  0  0  0  0  0  0  0  0  0  0  0
   12.7619   -3.0237    0.0000 C   0  0  0  0  0  0  0  0  0  0  0  0
   10.1706    0.7426    0.0000 C   0  0  0  0  0  0  0  0  0  0  0  0
   10.7619   -3.0237    0.0000 C   0  0  0  0  0  0  0  0  0  0  0  0
   12.9155    1.9533    0.0000 C   0  0  0  0  0  0  0  0  0  0  0  0
   12.5916   -1.0292    0.0000 C   0  0  0  0  0  0  0  0  0  0  0  0
   13.7619   -4.7558    0.0000 C   0  0  0  0  0  0  0  0  0  0  0  0
   13.7619   -3.0237    0.0000 C   0  0  0  0  0  0  0  0  0  0  0  0
    9.3636    1.3332    0.0000 C   0  0  0  0  0  0  0  0  0  0  0  0
    9.7619   -3.0237    0.0000 C   0  0  0  0  0  0  0  0  0  0  0  0
   13.8304    2.3569    0.0000 C   0  0  0  0  0  0  0  0  0  0  0  0
   13.5065   -0.6256    0.0000 C   0  0  0  0  0  0  0  0  0  0  0  0
   14.2619   -5.6218    0.0000 C   0  0  0  0  0  0  0  0  0  0  0  0
   14.2619   -2.1577    0.0000 C   0  0  0  0  0  0  0  0  0  0  0  0
    5.2208    3.2919    0.0000 C   0  0  0  0  0  0  0  0  0  0  0  0
    5.2619   -2.1577    0.0000 C   0  0  0  0  0  0  0  0  0  0  0  0
    3.9639    2.0367    0.0000 C   0  0  0  0  0  0  0  0  0  0  0  0
    4.9889   -0.4025    0.0000 C   0  0  0  0  0  0  0  0  0  0  0  0
    3.6910    3.7919    0.0000 C   0  0  0  0  0  0  0  0  0  0  0  0
    3.7320   -1.6577    0.0000 C   0  0  0  0  0  0  0  0  0  0  0  0
    6.0278    2.7013    0.0000 C   0  0  0  0  0  0  0  0  0  0  0  0
    6.2619   -2.1577    0.0000 C   0  0  0  0  0  0  0  0  0  0  0  0
    4.2815    4.5989    0.0000 C   0  0  0  0  0  0  0  0  0  0  0  0
    3.7320   -2.6577    0.0000 C   0  0  0  0  0  0  0  0  0  0  0  0
    4.6318    1.2924    0.0000 C   0  0  0  0  0  0  0  0  0  0  0  0
    4.3211    0.3418    0.0000 C   0  0  0  0  0  0  0  0  0  0  0  0
    7.6417    1.5202    0.0000 C   0  0  0  0  0  0  0  0  0  0  0  0
    8.2619   -2.1577    0.0000 C   0  0  0  0  0  0  0  0  0  0  0  0
    5.9198    1.7072    0.0000 C   0  0  0  0  0  0  0  0  0  0  0  0
    6.7619   -1.2917    0.0000 C   0  0  0  0  0  0  0  0  0  0  0  0
    6.9427    3.1049    0.0000 C   0  0  0  0  0  0  0  0  0  0  0  0
    6.7619   -3.0237    0.0000 C   0  0  0  0  0  0  0  0  0  0  0  0
    2.6968    3.8999    0.0000 C   0  0  0  0  0  0  0  0  0  0  0  0
    2.8660   -1.1577    0.0000 C   0  0  0  0  0  0  0  0  0  0  0  0
    6.7268    1.1166    0.0000 C   0  0  0  0  0  0  0  0  0  0  0  0
    7.7619   -1.2917    0.0000 C   0  0  0  0  0  0  0  0  0  0  0  0
    7.7497    2.5143    0.0000 C   0  0  0  0  0  0  0  0  0  0  0  0
    7.7619   -3.0237    0.0000 C   0  0  0  0  0  0  0  0  0  0  0  0
    3.8780    5.5138    0.0000 C   0  0  0  0  0  0  0  0  0  0  0  0
    2.8660   -3.1577    0.0000 C   0  0  0  0  0  0  0  0  0  0  0  0
    2.2932    4.8148    0.0000 C   0  0  0  0  0  0  0  0  0  0  0  0
    2.0000   -1.6577    0.0000 C   0  0  0  0  0  0  0  0  0  0  0  0
    2.8838    5.6218    0.0000 C   0  0  0  0  0  0  0  0  0  0  0  0
    2.0000   -2.6577    0.0000 C   0  0  0  0  0  0  0  0  0  0  0  0
   11.5331    1.5753    0.0000 H   0  0  0  0  0  0  0  0  0  0  0  0
   10.7407    1.6614    0.0000 H   0  0  0  0  0  0  0  0  0  0  0  0
   10.6793   -4.1018    0.0000 H   0  0  0  0  0  0  0  0  0  0  0  0
   11.3695   -4.5003    0.0000 H   0  0  0  0  0  0  0  0  0  0  0  0
   12.9554    0.3570    0.0000 H   0  0  0  0  0  0  0  0  0  0  0  0
   13.4261    1.0002    0.0000 H   0  0  0  0  0  0  0  0  0  0  0  0
   11.1892   -0.2656    0.0000 H   0  0  0  0  0  0  0  0  0  0  0  0
   11.5109   -0.9949    0.0000 H   0  0  0  0  0  0  0  0  0  0  0  0
   12.1793   -4.9678    0.0000 H   0  0  0  0  0  0  0  0  0  0  0  0
   12.8695   -5.3664    0.0000 H   0  0  0  0  0  0  0  0  0  0  0  0
   12.8695   -2.4132    0.0000 H   0  0  0  0  0  0  0  0  0  0  0  0
   12.1793   -2.8117    0.0000 H   0  0  0  0  0  0  0  0  0  0  0  0
    9.7232    0.3134    0.0000 H   0  0  0  0  0  0  0  0  0  0  0  0
   10.5155    0.2274    0.0000 H   0  0  0  0  0  0  0  0  0  0  0  0
   11.3445   -2.8117    0.0000 H   0  0  0  0  0  0  0  0  0  0  0  0
   10.6542   -2.4132    0.0000 H   0  0  0  0  0  0  0  0  0  0  0  0
   12.7676    2.5554    0.0000 H   0  0  0  0  0  0  0  0  0  0  0  0
   12.2968    1.9122    0.0000 H   0  0  0  0  0  0  0  0  0  0  0  0
   12.1441   -1.4583    0.0000 H   0  0  0  0  0  0  0  0  0  0  0  0
   12.9365   -1.5444    0.0000 H   0  0  0  0  0  0  0  0  0  0  0  0
   14.3445   -4.5437    0.0000 H   0  0  0  0  0  0  0  0  0  0  0  0
   13.6542   -4.1452    0.0000 H   0  0  0  0  0  0  0  0  0  0  0  0
   13.6542   -3.6343    0.0000 H   0  0  0  0  0  0  0  0  0  0  0  0
   14.3445   -3.2358    0.0000 H   0  0  0  0  0  0  0  0  0  0  0  0
    9.8111    1.7623    0.0000 H   0  0  0  0  0  0  0  0  0  0  0  0
    9.0187    1.8484    0.0000 H   0  0  0  0  0  0  0  0  0  0  0  0
    9.1793   -3.2358    0.0000 H   0  0  0  0  0  0  0  0  0  0  0  0
    9.8695   -3.6343    0.0000 H   0  0  0  0  0  0  0  0  0  0  0  0
   14.0806    1.7896    0.0000 H   0  0  0  0  0  0  0  0  0  0  0  0
   14.3977    2.6071    0.0000 H   0  0  0  0  0  0  0  0  0  0  0  0
   13.5802    2.9241    0.0000 H   0  0  0  0  0  0  0  0  0  0  0  0
   13.7567   -1.1929    0.0000 H   0  0  0  0  0  0  0  0  0  0  0  0
   14.0738   -0.3754    0.0000 H   0  0  0  0  0  0  0  0  0  0  0  0
   13.2563   -0.0583    0.0000 H   0  0  0  0  0  0  0  0  0  0  0  0
   13.7249   -5.9318    0.0000 H   0  0  0  0  0  0  0  0  0  0  0  0
   14.5719   -6.1588    0.0000 H   0  0  0  0  0  0  0  0  0  0  0  0
   14.7988   -5.3118    0.0000 H   0  0  0  0  0  0  0  0  0  0  0  0
   14.7988   -2.4677    0.0000 H   0  0  0  0  0  0  0  0  0  0  0  0
   14.5719   -1.6208    0.0000 H   0  0  0  0  0  0  0  0  0  0  0  0
   13.7249   -1.8477    0.0000 H   0  0  0  0  0  0  0  0  0  0  0  0
    3.4170    2.3287    0.0000 H   0  0  0  0  0  0  0  0  0  0  0  0
    3.5814    1.5488    0.0000 H   0  0  0  0  0  0  0  0  0  0  0  0
    5.5359   -0.6945    0.0000 H   0  0  0  0  0  0  0  0  0  0  0  0
    5.3715    0.0854    0.0000 H   0  0  0  0  0  0  0  0  0  0  0  0
    5.2384    1.4202    0.0000 H   0  0  0  0  0  0  0  0  0  0  0  0
    3.7144    0.2140    0.0000 H   0  0  0  0  0  0  0  0  0  0  0  0
    5.3525    1.4570    0.0000 H   0  0  0  0  0  0  0  0  0  0  0  0
    6.4519   -0.7548    0.0000 H   0  0  0  0  0  0  0  0  0  0  0  0
    7.0097    3.7213    0.0000 H   0  0  0  0  0  0  0  0  0  0  0  0
    6.4519   -3.5607    0.0000 H   0  0  0  0  0  0  0  0  0  0  0  0
    2.3306    3.3996    0.0000 H   0  0  0  0  0  0  0  0  0  0  0  0
    2.8660   -0.5377    0.0000 H   0  0  0  0  0  0  0  0  0  0  0  0
    6.6598    0.5002    0.0000 H   0  0  0  0  0  0  0  0  0  0  0  0
    8.0719   -0.7548    0.0000 H   0  0  0  0  0  0  0  0  0  0  0  0
    8.3170    2.7645    0.0000 H   0  0  0  0  0  0  0  0  0  0  0  0
    8.0719   -3.5607    0.0000 H   0  0  0  0  0  0  0  0  0  0  0  0
    4.2441    6.0142    0.0000 H   0  0  0  0  0  0  0  0  0  0  0  0
    2.8660   -3.7777    0.0000 H   0  0  0  0  0  0  0  0  0  0  0  0
    1.6769    4.8818    0.0000 H   0  0  0  0  0  0  0  0  0  0  0  0
    1.4631   -1.3477    0.0000 H   0  0  0  0  0  0  0  0  0  0  0  0
    2.6336    6.1891    0.0000 H   0  0  0  0  0  0  0  0  0  0  0  0
    1.4631   -2.9677    0.0000 H   0  0  0  0  0  0  0  0  0  0  0  0
  1 21  1  0  0  0  0
  1 39  1  0  0  0  0
  2 22  1  0  0  0  0
  2 40  1  0  0  0  0
  3  9  1  0  0  0  0
  3 11  1  0  0  0  0
  3 12  1  0  0  0  0
  4 10  1  0  0  0  0
  4 13  1  0  0  0  0
  4 14  1  0  0  0  0
  5 27  1  0  0  0  0
  5 29  1  0  0  0  0
  5 31  1  0  0  0  0
  6 28  1  0  0  0  0
  6 30  1  0  0  0  0
  6 32  1  0  0  0  0
  7 27  2  0  0  0  0
  7 35  1  0  0  0  0
  8 28  2  0  0  0  0
  8 36  1  0  0  0  0
  9 15  1  0  0  0  0
  9 57  1  0  0  0  0
  9 58  1  0  0  0  0
 10 16  1  0  0  0  0
 10 59  1  0  0  0  0
 10 60  1  0  0  0  0
 11 17  1  0  0  0  0
 11 61  1  0  0  0  0
 11 62  1  0  0  0  0
 12 18  1  0  0  0  0
 12 63  1  0  0  0  0
 12 64  1  0  0  0  0
 13 19  1  0  0  0  0
 13 65  1  0  0  0  0
 13 66  1  0  0  0  0
 14 20  1  0  0  0  0
 14 67  1  0  0  0  0
 14 68  1  0  0  0  0
 15 21  1  0  0  0  0
 15 69  1  0  0  0  0
 15 70  1  0  0  0  0
 16 22  1  0  0  0  0
 16 71  1  0  0  0  0
 16 72  1  0  0  0  0
 17 23  1  0  0  0  0
 17 73  1  0  0  0  0
 17 74  1  0  0  0  0
 18 24  1  0  0  0  0
 18 75  1  0  0  0  0
 18 76  1  0  0  0  0
 19 25  1  0  0  0  0
 19 77  1  0  0  0  0
 19 78  1  0  0  0  0
 20 26  1  0  0  0  0
 20 79  1  0  0  0  0
 20 80  1  0  0  0  0
 21 81  1  0  0  0  0
 21 82  1  0  0  0  0
 22 83  1  0  0  0  0
 22 84  1  0  0  0  0
 23 85  1  0  0  0  0
 23 86  1  0  0  0  0
 23 87  1  0  0  0  0
 24 88  1  0  0  0  0
 24 89  1  0  0  0  0
 24 90  1  0  0  0  0
 25 91  1  0  0  0  0
 25 92  1  0  0  0  0
 25 93  1  0  0  0  0
 26 94  1  0  0  0  0
 26 95  1  0  0  0  0
 26 96  1  0  0  0  0
 27 33  1  0  0  0  0
 28 34  1  0  0  0  0
 29 37  1  0  0  0  0
 29 97  1  0  0  0  0
 29 98  1  0  0  0  0
 30 38  1  0  0  0  0
 30 99  1  0  0  0  0
 30100  1  0  0  0  0
 31 35  1  0  0  0  0
 31 45  2  0  0  0  0
 32 36  1  0  0  0  0
 32 46  2  0  0  0  0
 33 41  2  0  0  0  0
 33 43  1  0  0  0  0
 34 42  2  0  0  0  0
 34 44  1  0  0  0  0
 35 51  2  0  0  0  0
 36 52  2  0  0  0  0
 37 38  2  0  0  0  0
 37101  1  0  0  0  0
 38102  1  0  0  0  0
 39 47  2  0  0  0  0
 39 49  1  0  0  0  0
 40 48  2  0  0  0  0
 40 50  1  0  0  0  0
 41 47  1  0  0  0  0
 41103  1  0  0  0  0
 42 48  1  0  0  0  0
 42104  1  0  0  0  0
 43 49  2  0  0  0  0
 43105  1  0  0  0  0
 44 50  2  0  0  0  0
 44106  1  0  0  0  0
 45 53  1  0  0  0  0
 45107  1  0  0  0  0
 46 54  1  0  0  0  0
 46108  1  0  0  0  0
 47109  1  0  0  0  0
 48110  1  0  0  0  0
 49111  1  0  0  0  0
 50112  1  0  0  0  0
 51 55  1  0  0  0  0
 51113  1  0  0  0  0
 52 56  1  0  0  0  0
 52114  1  0  0  0  0
 53 55  2  0  0  0  0
 53115  1  0  0  0  0
 54 56  2  0  0  0  0
 54116  1  0  0  0  0
 55117  1  0  0  0  0
 56118  1  0  0  0  0
M  END
> <PUBCHEM_COMPOUND_CID>
10395316

> <PUBCHEM_COMPOUND_CANONICALIZED>
1

> <PUBCHEM_CACTVS_COMPLEXITY>
984

> <PUBCHEM_CACTVS_HBOND_ACCEPTOR>
6

> <PUBCHEM_CACTVS_HBOND_DONOR>
0

> <PUBCHEM_CACTVS_ROTATABLE_BOND>
24

> <PUBCHEM_CACTVS_SUBSKEYS>
AAADcfB/sAAAAAAAAAAAAAAAAAAAAWLAAAAwYMGAAAAAAFgB/gAAHgAAAAAADAzhnwYz1rcMFACgAyZiZACCiC0hMqAJ2CA+fJiMbqLEuZuWOCjuwBPI6CeQ0AIOIAAAAAAAACBAAAAAAAAAQAAAAAAAAA==

> <PUBCHEM_IUPAC_OPENEYE_NAME>
3-[4-[1-[(E)-4-[2-[4-[3-(dipropylamino)propoxy]phenyl]benzimidazol-1-yl]but-2-enyl]benzimidazol-2-yl]phenoxy]-N,N-dipropyl-propan-1-amine

> <PUBCHEM_IUPAC_CAS_NAME>
3-[4-[1-[(E)-4-[2-[4-[3-(dipropylamino)propoxy]phenyl]-1-benzimidazolyl]but-2-enyl]-2-benzimidazolyl]phenoxy]-N,N-dipropyl-1-propanamine

> <PUBCHEM_IUPAC_NAME_MARKUP>
3-[4-[1-[(<I>E</I>)-4-[2-[4-[3-(dipropylamino)propoxy]phenyl]benzimidazol-1-yl]but-2-enyl]benzimidazol-2-yl]phenoxy]-<I>N</I>,<I>N</I>-dipropylpropan-1-amine

> <PUBCHEM_IUPAC_NAME>
3-[4-[1-[(E)-4-[2-[4-[3-(dipropylamino)propoxy]phenyl]benzimidazol-1-yl]but-2-enyl]benzimidazol-2-yl]phenoxy]-N,N-dipropylpropan-1-amine

> <PUBCHEM_IUPAC_SYSTEMATIC_NAME>
3-[4-[1-[(E)-4-[2-[4-[3-(dipropylamino)propoxy]phenyl]benzimidazol-1-yl]but-2-enyl]benzimidazol-2-yl]phenoxy]-N,N-dipropyl-propan-1-amine

> <PUBCHEM_IUPAC_TRADITIONAL_NAME>
3-[4-[1-[(E)-4-[2-[4-[3-(dipropylamino)propoxy]phenyl]benzimidazol-1-yl]but-2-enyl]benzimidazol-2-yl]phenoxy]propyl-dipropyl-amine

> <PUBCHEM_IUPAC_INCHI>
InChI=1S/C48H62N6O2/c1-5-29-51(30-6-2)33-15-37-55-41-25-21-39(22-26-41)47-49-43-17-9-11-19-45(43)53(47)35-13-14-36-54-46-20-12-10-18-44(46)50-48(54)40-23-27-42(28-24-40)56-38-16-34-52(31-7-3)32-8-4/h9-14,17-28H,5-8,15-16,29-38H2,1-4H3/b14-13+

> <PUBCHEM_IUPAC_INCHIKEY>
IKMVUGGIEHIWKD-BUHFOSPRSA-N

> <PUBCHEM_XLOGP3_AA>
10.8

> <PUBCHEM_EXACT_MASS>
754.49342524

> <PUBCHEM_MOLECULAR_FORMULA>
C48H62N6O2

> <PUBCHEM_MOLECULAR_WEIGHT>
755.0

> <PUBCHEM_OPENEYE_CAN_SMILES>
CCCN(CCC)CCCOC1=CC=C(C=C1)C2=NC3=CC=CC=C3N2CC=CCN4C5=CC=CC=C5N=C4C6=CC=C(C=C6)OCCCN(CCC)CCC

> <PUBCHEM_OPENEYE_ISO_SMILES>
CCCN(CCC)CCCOC1=CC=C(C=C1)C2=NC3=CC=CC=C3N2C/C=C/CN4C5=CC=CC=C5N=C4C6=CC=C(C=C6)OCCCN(CCC)CCC

> <PUBCHEM_CACTVS_TPSA>
60.6

> <PUBCHEM_MONOISOTOPIC_WEIGHT>
754.49342524

> <PUBCHEM_TOTAL_CHARGE>
0

> <PUBCHEM_HEAVY_ATOM_COUNT>
56

> <PUBCHEM_ATOM_DEF_STEREO_COUNT>
0

> <PUBCHEM_ATOM_UDEF_STEREO_COUNT>
0

> <PUBCHEM_BOND_DEF_STEREO_COUNT>
1

> <PUBCHEM_BOND_UDEF_STEREO_COUNT>
0

> <PUBCHEM_ISOTOPIC_ATOM_COUNT>
0

> <PUBCHEM_COMPONENT_COUNT>
1

> <PUBCHEM_CACTVS_TAUTO_COUNT>
-1

> <PUBCHEM_COORDINATE_TYPE>
1
5
255

> <PUBCHEM_BONDANNOTATIONS>
31  35  8
31  45  8
32  36  8
32  46  8
33  41  8
33  43  8
34  42  8
34  44  8
35  51  8
36  52  8
39  47  8
39  49  8
40  48  8
40  50  8
41  47  8
42  48  8
43  49  8
44  50  8
45  53  8
46  54  8
5  27  8
5  31  8
51  55  8
52  56  8
53  55  8
54  56  8
6  28  8
6  32  8
7  27  8
7  35  8
8  28  8
8  36  8

$$$$
