49860022
  -OEChem-09292322032D

 54 55  0     1  0  0  0  0  0999 V2000
    0.0000    5.7430    0.0000 Br  0  0  0  0  0  0  0  0  0  0  0  0
    3.0000    5.7430    0.0000 Br  0  0  0  0  0  0  0  0  0  0  0  0
    9.1350    0.0000    0.0000 F   0  0  0  0  0  0  0  0  0  0  0  0
    7.4030    3.0000    0.0000 O   0  0  0  0  0  0  0  0  0  0  0  0
    9.1350    6.0000    0.0000 N   0  0  0  0  0  0  0  0  0  0  0  0
    9.1350    4.0000    0.0000 N   0  0  0  0  0  0  0  0  0  0  0  0
   10.0010    7.5000    0.0000 C   0  0  2  0  0  0  0  0  0  0  0  0
   10.5010    8.3660    0.0000 C   0  0  2  0  0  0  0  0  0  0  0  0
   11.0010    7.5000    0.0000 C   0  0  0  0  0  0  0  0  0  0  0  0
    9.1350    7.0000    0.0000 C   0  0  0  0  0  0  0  0  0  0  0  0
   10.5010    9.3660    0.0000 C   0  0  0  0  0  0  0  0  0  0  0  0
    8.2690    5.5000    0.0000 C   0  0  0  0  0  0  0  0  0  0  0  0
   10.0010    5.5000    0.0000 C   0  0  0  0  0  0  0  0  0  0  0  0
    8.2690    4.5000    0.0000 C   0  0  0  0  0  0  0  0  0  0  0  0
   10.0010    4.5000    0.0000 C   0  0  0  0  0  0  0  0  0  0  0  0
   11.3671    9.8660    0.0000 C   0  0  0  0  0  0  0  0  0  0  0  0
    9.6350    9.8660    0.0000 C   0  0  0  0  0  0  0  0  0  0  0  0
   11.3671   10.8660    0.0000 C   0  0  0  0  0  0  0  0  0  0  0  0
    9.6350   10.8660    0.0000 C   0  0  0  0  0  0  0  0  0  0  0  0
    9.1350    3.0000    0.0000 C   0  0  0  0  0  0  0  0  0  0  0  0
   10.5010   11.3660    0.0000 C   0  0  0  0  0  0  0  0  0  0  0  0
    8.2690    2.5000    0.0000 C   0  0  0  0  0  0  0  0  0  0  0  0
   10.0010    2.5000    0.0000 C   0  0  0  0  0  0  0  0  0  0  0  0
    8.2690    1.5000    0.0000 C   0  0  0  0  0  0  0  0  0  0  0  0
   10.0010    1.5000    0.0000 C   0  0  0  0  0  0  0  0  0  0  0  0
    9.1350    1.0000    0.0000 C   0  0  0  0  0  0  0  0  0  0  0  0
    6.5369    2.5000    0.0000 C   0  0  0  0  0  0  0  0  0  0  0  0
   10.1615    6.9011    0.0000 H   0  0  0  0  0  0  0  0  0  0  0  0
   11.0999    8.5265    0.0000 H   0  0  0  0  0  0  0  0  0  0  0  0
   11.1087    6.8894    0.0000 H   0  0  0  0  0  0  0  0  0  0  0  0
   11.5836    7.7120    0.0000 H   0  0  0  0  0  0  0  0  0  0  0  0
    8.9230    7.5826    0.0000 H   0  0  0  0  0  0  0  0  0  0  0  0
    8.5244    6.8923    0.0000 H   0  0  0  0  0  0  0  0  0  0  0  0
    8.0569    6.0826    0.0000 H   0  0  0  0  0  0  0  0  0  0  0  0
    7.6584    5.3923    0.0000 H   0  0  0  0  0  0  0  0  0  0  0  0
   10.6116    5.3923    0.0000 H   0  0  0  0  0  0  0  0  0  0  0  0
   10.2131    6.0826    0.0000 H   0  0  0  0  0  0  0  0  0  0  0  0
    7.6584    4.6077    0.0000 H   0  0  0  0  0  0  0  0  0  0  0  0
    8.0569    3.9174    0.0000 H   0  0  0  0  0  0  0  0  0  0  0  0
   10.2131    3.9174    0.0000 H   0  0  0  0  0  0  0  0  0  0  0  0
   10.6116    4.6077    0.0000 H   0  0  0  0  0  0  0  0  0  0  0  0
   11.9040    9.5560    0.0000 H   0  0  0  0  0  0  0  0  0  0  0  0
    9.0981    9.5560    0.0000 H   0  0  0  0  0  0  0  0  0  0  0  0
   11.9040   11.1760    0.0000 H   0  0  0  0  0  0  0  0  0  0  0  0
    9.0981   11.1760    0.0000 H   0  0  0  0  0  0  0  0  0  0  0  0
   10.5010   11.9860    0.0000 H   0  0  0  0  0  0  0  0  0  0  0  0
   10.5380    2.8100    0.0000 H   0  0  0  0  0  0  0  0  0  0  0  0
    7.7320    1.1900    0.0000 H   0  0  0  0  0  0  0  0  0  0  0  0
   10.5380    1.1900    0.0000 H   0  0  0  0  0  0  0  0  0  0  0  0
    6.2269    3.0369    0.0000 H   0  0  0  0  0  0  0  0  0  0  0  0
    6.0000    2.1900    0.0000 H   0  0  0  0  0  0  0  0  0  0  0  0
    6.8469    1.9631    0.0000 H   0  0  0  0  0  0  0  0  0  0  0  0
    1.0000    5.7430    0.0000 H   0  0  0  0  0  0  0  0  0  0  0  0
    4.0000    5.7430    0.0000 H   0  0  0  0  0  0  0  0  0  0  0  0
  1 53  1  0  0  0  0
  2 54  1  0  0  0  0
  3 26  1  0  0  0  0
  4 22  1  0  0  0  0
  4 27  1  0  0  0  0
  5 10  1  0  0  0  0
  5 12  1  0  0  0  0
  5 13  1  0  0  0  0
  6 14  1  0  0  0  0
  6 15  1  0  0  0  0
  6 20  1  0  0  0  0
  7  8  1  0  0  0  0
  7  9  1  0  0  0  0
  7 10  1  6  0  0  0
  7 28  1  0  0  0  0
  8  9  1  0  0  0  0
  8 11  1  1  0  0  0
  8 29  1  0  0  0  0
  9 30  1  0  0  0  0
  9 31  1  0  0  0  0
 10 32  1  0  0  0  0
 10 33  1  0  0  0  0
 11 16  2  0  0  0  0
 11 17  1  0  0  0  0
 12 14  1  0  0  0  0
 12 34  1  0  0  0  0
 12 35  1  0  0  0  0
 13 15  1  0  0  0  0
 13 36  1  0  0  0  0
 13 37  1  0  0  0  0
 14 38  1  0  0  0  0
 14 39  1  0  0  0  0
 15 40  1  0  0  0  0
 15 41  1  0  0  0  0
 16 18  1  0  0  0  0
 16 42  1  0  0  0  0
 17 19  2  0  0  0  0
 17 43  1  0  0  0  0
 18 21  2  0  0  0  0
 18 44  1  0  0  0  0
 19 21  1  0  0  0  0
 19 45  1  0  0  0  0
 20 22  2  0  0  0  0
 20 23  1  0  0  0  0
 21 46  1  0  0  0  0
 22 24  1  0  0  0  0
 23 25  2  0  0  0  0
 23 47  1  0  0  0  0
 24 26  2  0  0  0  0
 24 48  1  0  0  0  0
 25 26  1  0  0  0  0
 25 49  1  0  0  0  0
 27 50  1  0  0  0  0
 27 51  1  0  0  0  0
 27 52  1  0  0  0  0
M  END
> <PUBCHEM_COMPOUND_CID>
49860022

> <PUBCHEM_COMPOUND_CANONICALIZED>
1

> <PUBCHEM_CACTVS_COMPLEXITY>
420

> <PUBCHEM_CACTVS_HBOND_ACCEPTOR>
4

> <PUBCHEM_CACTVS_HBOND_DONOR>
2

> <PUBCHEM_CACTVS_ROTATABLE_BOND>
5

> <PUBCHEM_CACTVS_SUBSKEYS>
AAADceB7IQAAGAAAAAAAAAAAGAAAAAAAAAA8YIAAAAAAAAABQAAAHwAAAAAADQzBmA4yxoMABACAAiRCQACCCAAhIgAIiAAPbIgOZiLEsZuVMChkwBHY6AeQwMAOgAAAAAAAEAAAAAAAAAAgAAAAAAAAAA==

> <PUBCHEM_IUPAC_OPENEYE_NAME>
1-(4-fluoro-2-methoxy-phenyl)-4-[[(1S,2S)-2-phenylcyclopropyl]methyl]piperazine;dihydrobromide

> <PUBCHEM_IUPAC_CAS_NAME>
1-(4-fluoro-2-methoxyphenyl)-4-[[(1S,2S)-2-phenylcyclopropyl]methyl]piperazine;dihydrobromide

> <PUBCHEM_IUPAC_NAME_MARKUP>
1-(4-fluoro-2-methoxyphenyl)-4-[[(1<I>S</I>,2<I>S</I>)-2-phenylcyclopropyl]methyl]piperazine;dihydrobromide

> <PUBCHEM_IUPAC_NAME>
1-(4-fluoro-2-methoxyphenyl)-4-[[(1S,2S)-2-phenylcyclopropyl]methyl]piperazine;dihydrobromide

> <PUBCHEM_IUPAC_SYSTEMATIC_NAME>
1-(4-fluoranyl-2-methoxy-phenyl)-4-[[(1S,2S)-2-phenylcyclopropyl]methyl]piperazine;dihydrobromide

> <PUBCHEM_IUPAC_TRADITIONAL_NAME>
1-(4-fluoro-2-methoxy-phenyl)-4-[[(1S,2S)-2-phenylcyclopropyl]methyl]piperazine;dihydrobromide

> <PUBCHEM_IUPAC_INCHI>
InChI=1S/C21H25FN2O.2BrH/c1-25-21-14-18(22)7-8-20(21)24-11-9-23(10-12-24)15-17-13-19(17)16-5-3-2-4-6-16;;/h2-8,14,17,19H,9-13,15H2,1H3;2*1H/t17-,19-;;/m1../s1

> <PUBCHEM_IUPAC_INCHIKEY>
JXLSBRSHDFMHQD-WGMYLSDTSA-N

> <PUBCHEM_EXACT_MASS>
502.04537

> <PUBCHEM_MOLECULAR_FORMULA>
C21H27Br2FN2O

> <PUBCHEM_MOLECULAR_WEIGHT>
502.3

> <PUBCHEM_OPENEYE_CAN_SMILES>
COC1=C(C=CC(=C1)F)N2CCN(CC2)CC3CC3C4=CC=CC=C4.Br.Br

> <PUBCHEM_OPENEYE_ISO_SMILES>
COC1=C(C=CC(=C1)F)N2CCN(CC2)C[C@H]3C[C@@H]3C4=CC=CC=C4.Br.Br

> <PUBCHEM_CACTVS_TPSA>
15.7

> <PUBCHEM_MONOISOTOPIC_WEIGHT>
500.04742

> <PUBCHEM_TOTAL_CHARGE>
0

> <PUBCHEM_HEAVY_ATOM_COUNT>
27

> <PUBCHEM_ATOM_DEF_STEREO_COUNT>
2

> <PUBCHEM_ATOM_UDEF_STEREO_COUNT>
0

> <PUBCHEM_BOND_DEF_STEREO_COUNT>
0

> <PUBCHEM_BOND_UDEF_STEREO_COUNT>
0

> <PUBCHEM_ISOTOPIC_ATOM_COUNT>
0

> <PUBCHEM_COMPONENT_COUNT>
3

> <PUBCHEM_CACTVS_TAUTO_COUNT>
-1

> <PUBCHEM_COORDINATE_TYPE>
1
5
255

> <PUBCHEM_BONDANNOTATIONS>
11  16  8
11  17  8
16  18  8
17  19  8
18  21  8
19  21  8
20  22  8
20  23  8
22  24  8
23  25  8
24  26  8
25  26  8
7  10  6
8  11  5

$$$$
