10762881
  -OEChem-09292322512D

 57 61  0     1  0  0  0  0  0999 V2000
    8.4556    3.7244    0.0000 O   0  0  0  0  0  0  0  0  0  0  0  0
    6.2781    0.5817    0.0000 N   0  0  3  0  0  0  0  0  0  0  0  0
    4.6783   -3.1350    0.0000 N   0  0  0  0  0  0  0  0  0  0  0  0
    8.5458    1.9446    0.0000 N   0  0  0  0  0  0  0  0  0  0  0  0
    9.9484    2.7512    0.0000 N   0  0  0  0  0  0  0  0  0  0  0  0
    4.9889   -0.5751    0.0000 C   0  0  3  0  0  0  0  0  0  0  0  0
    5.9674   -0.3688    0.0000 C   0  0  0  0  0  0  0  0  0  0  0  0
    4.3211    0.1692    0.0000 C   0  0  0  0  0  0  0  0  0  0  0  0
    4.6318    1.1198    0.0000 C   0  0  0  0  0  0  0  0  0  0  0  0
    5.6103    1.3260    0.0000 C   0  0  0  0  0  0  0  0  0  0  0  0
    4.6783   -1.5256    0.0000 C   0  0  0  0  0  0  0  0  0  0  0  0
    7.2566    0.7879    0.0000 C   0  0  0  0  0  0  0  0  0  0  0  0
    3.7320   -1.8303    0.0000 C   0  0  0  0  0  0  0  0  0  0  0  0
    5.2619   -2.3303    0.0000 C   0  0  0  0  0  0  0  0  0  0  0  0
    7.5673    1.7384    0.0000 C   0  0  0  0  0  0  0  0  0  0  0  0
    3.7320   -2.8303    0.0000 C   0  0  0  0  0  0  0  0  0  0  0  0
    6.2619   -2.3303    0.0000 C   0  0  0  0  0  0  0  0  0  0  0  0
    9.2878    1.2742    0.0000 C   0  0  0  0  0  0  0  0  0  0  0  0
    2.8660   -1.3303    0.0000 C   0  0  0  0  0  0  0  0  0  0  0  0
   10.1547    1.7727    0.0000 C   0  0  0  0  0  0  0  0  0  0  0  0
    2.8660   -3.3303    0.0000 C   0  0  0  0  0  0  0  0  0  0  0  0
    8.9541    2.8575    0.0000 C   0  0  0  0  0  0  0  0  0  0  0  0
    2.0000   -1.8303    0.0000 C   0  0  0  0  0  0  0  0  0  0  0  0
    2.0000   -2.8303    0.0000 C   0  0  0  0  0  0  0  0  0  0  0  0
    6.7619   -1.4643    0.0000 C   0  0  0  0  0  0  0  0  0  0  0  0
    6.7619   -3.1963    0.0000 C   0  0  0  0  0  0  0  0  0  0  0  0
    7.7619   -1.4643    0.0000 C   0  0  0  0  0  0  0  0  0  0  0  0
    7.7619   -3.1963    0.0000 C   0  0  0  0  0  0  0  0  0  0  0  0
    8.2619   -2.3303    0.0000 C   0  0  0  0  0  0  0  0  0  0  0  0
    5.4030   -1.0365    0.0000 H   0  0  0  0  0  0  0  0  0  0  0  0
    5.9880   -0.9885    0.0000 H   0  0  0  0  0  0  0  0  0  0  0  0
    6.5812   -0.4562    0.0000 H   0  0  0  0  0  0  0  0  0  0  0  0
    3.7742    0.4613    0.0000 H   0  0  0  0  0  0  0  0  0  0  0  0
    3.9385   -0.3187    0.0000 H   0  0  0  0  0  0  0  0  0  0  0  0
    4.6112    1.7394    0.0000 H   0  0  0  0  0  0  0  0  0  0  0  0
    4.0179    1.2071    0.0000 H   0  0  0  0  0  0  0  0  0  0  0  0
    6.1366    1.6536    0.0000 H   0  0  0  0  0  0  0  0  0  0  0  0
    5.3790    1.9012    0.0000 H   0  0  0  0  0  0  0  0  0  0  0  0
    7.2772    0.1682    0.0000 H   0  0  0  0  0  0  0  0  0  0  0  0
    7.8704    0.7005    0.0000 H   0  0  0  0  0  0  0  0  0  0  0  0
    7.5467    2.3581    0.0000 H   0  0  0  0  0  0  0  0  0  0  0  0
    6.9534    1.8258    0.0000 H   0  0  0  0  0  0  0  0  0  0  0  0
    4.8709   -3.7244    0.0000 H   0  0  0  0  0  0  0  0  0  0  0  0
    8.8263    0.8602    0.0000 H   0  0  0  0  0  0  0  0  0  0  0  0
    9.6513    0.7720    0.0000 H   0  0  0  0  0  0  0  0  0  0  0  0
    2.8660   -0.7103    0.0000 H   0  0  0  0  0  0  0  0  0  0  0  0
   10.4058    1.2059    0.0000 H   0  0  0  0  0  0  0  0  0  0  0  0
   10.7446    1.9633    0.0000 H   0  0  0  0  0  0  0  0  0  0  0  0
    2.8660   -3.9503    0.0000 H   0  0  0  0  0  0  0  0  0  0  0  0
   10.3641    3.2113    0.0000 H   0  0  0  0  0  0  0  0  0  0  0  0
    1.4631   -1.5203    0.0000 H   0  0  0  0  0  0  0  0  0  0  0  0
    1.4631   -3.1403    0.0000 H   0  0  0  0  0  0  0  0  0  0  0  0
    6.4519   -0.9274    0.0000 H   0  0  0  0  0  0  0  0  0  0  0  0
    6.4519   -3.7333    0.0000 H   0  0  0  0  0  0  0  0  0  0  0  0
    8.0719   -0.9274    0.0000 H   0  0  0  0  0  0  0  0  0  0  0  0
    8.0719   -3.7333    0.0000 H   0  0  0  0  0  0  0  0  0  0  0  0
    8.8819   -2.3303    0.0000 H   0  0  0  0  0  0  0  0  0  0  0  0
  1 22  2  0  0  0  0
  2  7  1  0  0  0  0
  2 10  1  0  0  0  0
  2 12  1  0  0  0  0
  3 14  1  0  0  0  0
  3 16  1  0  0  0  0
  3 43  1  0  0  0  0
  4 15  1  0  0  0  0
  4 18  1  0  0  0  0
  4 22  1  0  0  0  0
  5 20  1  0  0  0  0
  5 22  1  0  0  0  0
  5 50  1  0  0  0  0
  6  7  1  0  0  0  0
  6  8  1  0  0  0  0
  6 11  1  0  0  0  0
  6 30  1  0  0  0  0
  7 31  1  0  0  0  0
  7 32  1  0  0  0  0
  8  9  1  0  0  0  0
  8 33  1  0  0  0  0
  8 34  1  0  0  0  0
  9 10  1  0  0  0  0
  9 35  1  0  0  0  0
  9 36  1  0  0  0  0
 10 37  1  0  0  0  0
 10 38  1  0  0  0  0
 11 13  1  0  0  0  0
 11 14  2  0  0  0  0
 12 15  1  0  0  0  0
 12 39  1  0  0  0  0
 12 40  1  0  0  0  0
 13 16  1  0  0  0  0
 13 19  2  0  0  0  0
 14 17  1  0  0  0  0
 15 41  1  0  0  0  0
 15 42  1  0  0  0  0
 16 21  2  0  0  0  0
 17 25  2  0  0  0  0
 17 26  1  0  0  0  0
 18 20  1  0  0  0  0
 18 44  1  0  0  0  0
 18 45  1  0  0  0  0
 19 23  1  0  0  0  0
 19 46  1  0  0  0  0
 20 47  1  0  0  0  0
 20 48  1  0  0  0  0
 21 24  1  0  0  0  0
 21 49  1  0  0  0  0
 23 24  2  0  0  0  0
 23 51  1  0  0  0  0
 24 52  1  0  0  0  0
 25 27  1  0  0  0  0
 25 53  1  0  0  0  0
 26 28  2  0  0  0  0
 26 54  1  0  0  0  0
 27 29  2  0  0  0  0
 27 55  1  0  0  0  0
 28 29  1  0  0  0  0
 28 56  1  0  0  0  0
 29 57  1  0  0  0  0
M  END
> <PUBCHEM_COMPOUND_CID>
10762881

> <PUBCHEM_COMPOUND_CANONICALIZED>
1

> <PUBCHEM_CACTVS_COMPLEXITY>
563

> <PUBCHEM_CACTVS_HBOND_ACCEPTOR>
2

> <PUBCHEM_CACTVS_HBOND_DONOR>
2

> <PUBCHEM_CACTVS_ROTATABLE_BOND>
5

> <PUBCHEM_CACTVS_SUBSKEYS>
AAADceB7oAAAAAAAAAAAAAAAAAAAAWLAAAA8YIAAAAAAAFgB9AAAHgAQAAAADQjBHgQxwPPJkACoAyRiVACCgCAhAiAImaA4ZJiIYOLAkZGUIAholgLIyAcQgMAOgAAAAAACAAAAAAAAAAQAAAAAAAAAAA==

> <PUBCHEM_IUPAC_OPENEYE_NAME>
1-[2-[3-(2-phenyl-1H-indol-3-yl)-1-piperidyl]ethyl]imidazolidin-2-one

> <PUBCHEM_IUPAC_CAS_NAME>
1-[2-[3-(2-phenyl-1H-indol-3-yl)-1-piperidinyl]ethyl]-2-imidazolidinone

> <PUBCHEM_IUPAC_NAME_MARKUP>
1-[2-[3-(2-phenyl-1<I>H</I>-indol-3-yl)piperidin-1-yl]ethyl]imidazolidin-2-one

> <PUBCHEM_IUPAC_NAME>
1-[2-[3-(2-phenyl-1H-indol-3-yl)piperidin-1-yl]ethyl]imidazolidin-2-one

> <PUBCHEM_IUPAC_SYSTEMATIC_NAME>
1-[2-[3-(2-phenyl-1H-indol-3-yl)piperidin-1-yl]ethyl]imidazolidin-2-one

> <PUBCHEM_IUPAC_TRADITIONAL_NAME>
1-[2-[3-(2-phenyl-1H-indol-3-yl)piperidino]ethyl]-2-imidazolidinone

> <PUBCHEM_IUPAC_INCHI>
InChI=1S/C24H28N4O/c29-24-25-12-14-28(24)16-15-27-13-6-9-19(17-27)22-20-10-4-5-11-21(20)26-23(22)18-7-2-1-3-8-18/h1-5,7-8,10-11,19,26H,6,9,12-17H2,(H,25,29)

> <PUBCHEM_IUPAC_INCHIKEY>
XTOXNGQJKCDLHX-UHFFFAOYSA-N

> <PUBCHEM_XLOGP3_AA>
3.4

> <PUBCHEM_EXACT_MASS>
388.22631153

> <PUBCHEM_MOLECULAR_FORMULA>
C24H28N4O

> <PUBCHEM_MOLECULAR_WEIGHT>
388.5

> <PUBCHEM_OPENEYE_CAN_SMILES>
C1CC(CN(C1)CCN2CCNC2=O)C3=C(NC4=CC=CC=C43)C5=CC=CC=C5

> <PUBCHEM_OPENEYE_ISO_SMILES>
C1CC(CN(C1)CCN2CCNC2=O)C3=C(NC4=CC=CC=C43)C5=CC=CC=C5

> <PUBCHEM_CACTVS_TPSA>
51.4

> <PUBCHEM_MONOISOTOPIC_WEIGHT>
388.22631153

> <PUBCHEM_TOTAL_CHARGE>
0

> <PUBCHEM_HEAVY_ATOM_COUNT>
29

> <PUBCHEM_ATOM_DEF_STEREO_COUNT>
0

> <PUBCHEM_ATOM_UDEF_STEREO_COUNT>
1

> <PUBCHEM_BOND_DEF_STEREO_COUNT>
0

> <PUBCHEM_BOND_UDEF_STEREO_COUNT>
0

> <PUBCHEM_ISOTOPIC_ATOM_COUNT>
0

> <PUBCHEM_COMPONENT_COUNT>
1

> <PUBCHEM_CACTVS_TAUTO_COUNT>
-1

> <PUBCHEM_COORDINATE_TYPE>
1
5
255

> <PUBCHEM_BONDANNOTATIONS>
11  13  8
11  14  8
13  16  8
13  19  8
16  21  8
17  25  8
17  26  8
19  23  8
21  24  8
23  24  8
25  27  8
26  28  8
27  29  8
28  29  8
3  14  8
3  16  8
6  11  3

$$$$
