17475863
  -OEChem-09292322242D

 46 49  0     0  0  0  0  0  0999 V2000
    2.8660   -5.7215    0.0000 F   0  0  0  0  0  0  0  0  0  0  0  0
    2.8660    0.2785    0.0000 N   0  0  0  0  0  0  0  0  0  0  0  0
    2.8660   -1.7215    0.0000 N   0  0  0  0  0  0  0  0  0  0  0  0
    4.8147    2.9809    0.0000 N   0  0  0  0  0  0  0  0  0  0  0  0
    5.3147    2.1149    0.0000 N   0  0  0  0  0  0  0  0  0  0  0  0
    3.7320   -0.2215    0.0000 C   0  0  0  0  0  0  0  0  0  0  0  0
    2.0000   -0.2215    0.0000 C   0  0  0  0  0  0  0  0  0  0  0  0
    3.7320   -1.2215    0.0000 C   0  0  0  0  0  0  0  0  0  0  0  0
    2.0000   -1.2215    0.0000 C   0  0  0  0  0  0  0  0  0  0  0  0
    2.8660    1.2785    0.0000 C   0  0  0  0  0  0  0  0  0  0  0  0
    2.8660   -2.7215    0.0000 C   0  0  0  0  0  0  0  0  0  0  0  0
    3.7320    1.7785    0.0000 C   0  0  0  0  0  0  0  0  0  0  0  0
    3.8366    2.7730    0.0000 C   0  0  0  0  0  0  0  0  0  0  0  0
    3.7320   -3.2215    0.0000 C   0  0  0  0  0  0  0  0  0  0  0  0
    2.0000   -3.2215    0.0000 C   0  0  0  0  0  0  0  0  0  0  0  0
    4.6456    1.3717    0.0000 C   0  0  0  0  0  0  0  0  0  0  0  0
    3.7320   -4.2215    0.0000 C   0  0  0  0  0  0  0  0  0  0  0  0
    2.0000   -4.2215    0.0000 C   0  0  0  0  0  0  0  0  0  0  0  0
    5.2215    3.8944    0.0000 C   0  0  0  0  0  0  0  0  0  0  0  0
    2.8660   -4.7215    0.0000 C   0  0  0  0  0  0  0  0  0  0  0  0
    4.6337    4.7035    0.0000 C   0  0  0  0  0  0  0  0  0  0  0  0
    6.2160    3.9990    0.0000 C   0  0  0  0  0  0  0  0  0  0  0  0
    5.0404    5.6170    0.0000 C   0  0  0  0  0  0  0  0  0  0  0  0
    6.6227    4.9125    0.0000 C   0  0  0  0  0  0  0  0  0  0  0  0
    6.0349    5.7215    0.0000 C   0  0  0  0  0  0  0  0  0  0  0  0
    4.3426   -0.3292    0.0000 H   0  0  0  0  0  0  0  0  0  0  0  0
    3.9441    0.3611    0.0000 H   0  0  0  0  0  0  0  0  0  0  0  0
    1.7880    0.3611    0.0000 H   0  0  0  0  0  0  0  0  0  0  0  0
    1.3894   -0.3292    0.0000 H   0  0  0  0  0  0  0  0  0  0  0  0
    3.9441   -1.8041    0.0000 H   0  0  0  0  0  0  0  0  0  0  0  0
    4.3426   -1.1139    0.0000 H   0  0  0  0  0  0  0  0  0  0  0  0
    1.3894   -1.1139    0.0000 H   0  0  0  0  0  0  0  0  0  0  0  0
    1.7880   -1.8041    0.0000 H   0  0  0  0  0  0  0  0  0  0  0  0
    2.6540    1.8611    0.0000 H   0  0  0  0  0  0  0  0  0  0  0  0
    2.2554    1.1708    0.0000 H   0  0  0  0  0  0  0  0  0  0  0  0
    3.3758    3.1878    0.0000 H   0  0  0  0  0  0  0  0  0  0  0  0
    4.2690   -2.9115    0.0000 H   0  0  0  0  0  0  0  0  0  0  0  0
    1.4631   -2.9115    0.0000 H   0  0  0  0  0  0  0  0  0  0  0  0
    4.7745    0.7653    0.0000 H   0  0  0  0  0  0  0  0  0  0  0  0
    4.2690   -4.5315    0.0000 H   0  0  0  0  0  0  0  0  0  0  0  0
    1.4631   -4.5315    0.0000 H   0  0  0  0  0  0  0  0  0  0  0  0
    4.0171    4.6386    0.0000 H   0  0  0  0  0  0  0  0  0  0  0  0
    6.5804    3.4974    0.0000 H   0  0  0  0  0  0  0  0  0  0  0  0
    4.6760    6.1186    0.0000 H   0  0  0  0  0  0  0  0  0  0  0  0
    7.2393    4.9773    0.0000 H   0  0  0  0  0  0  0  0  0  0  0  0
    6.2871    6.2879    0.0000 H   0  0  0  0  0  0  0  0  0  0  0  0
  1 20  1  0  0  0  0
  2  6  1  0  0  0  0
  2  7  1  0  0  0  0
  2 10  1  0  0  0  0
  3  8  1  0  0  0  0
  3  9  1  0  0  0  0
  3 11  1  0  0  0  0
  4  5  1  0  0  0  0
  4 13  1  0  0  0  0
  4 19  1  0  0  0  0
  5 16  2  0  0  0  0
  6  8  1  0  0  0  0
  6 26  1  0  0  0  0
  6 27  1  0  0  0  0
  7  9  1  0  0  0  0
  7 28  1  0  0  0  0
  7 29  1  0  0  0  0
  8 30  1  0  0  0  0
  8 31  1  0  0  0  0
  9 32  1  0  0  0  0
  9 33  1  0  0  0  0
 10 12  1  0  0  0  0
 10 34  1  0  0  0  0
 10 35  1  0  0  0  0
 11 14  2  0  0  0  0
 11 15  1  0  0  0  0
 12 13  2  0  0  0  0
 12 16  1  0  0  0  0
 13 36  1  0  0  0  0
 14 17  1  0  0  0  0
 14 37  1  0  0  0  0
 15 18  2  0  0  0  0
 15 38  1  0  0  0  0
 16 39  1  0  0  0  0
 17 20  2  0  0  0  0
 17 40  1  0  0  0  0
 18 20  1  0  0  0  0
 18 41  1  0  0  0  0
 19 21  2  0  0  0  0
 19 22  1  0  0  0  0
 21 23  1  0  0  0  0
 21 42  1  0  0  0  0
 22 24  2  0  0  0  0
 22 43  1  0  0  0  0
 23 25  2  0  0  0  0
 23 44  1  0  0  0  0
 24 25  1  0  0  0  0
 24 45  1  0  0  0  0
 25 46  1  0  0  0  0
M  END
> <PUBCHEM_COMPOUND_CID>
17475863

> <PUBCHEM_COMPOUND_CANONICALIZED>
1

> <PUBCHEM_CACTVS_COMPLEXITY>
399

> <PUBCHEM_CACTVS_HBOND_ACCEPTOR>
4

> <PUBCHEM_CACTVS_HBOND_DONOR>
0

> <PUBCHEM_CACTVS_ROTATABLE_BOND>
4

> <PUBCHEM_CACTVS_SUBSKEYS>
AAADceB7gQAAAAAAAAAAAAAAAAAAAWAAAAA8YIAAAAAAAAAB0AAAHQAIAAAADAjBGgw8wJMIAACiAjRnRACSBCAxggAYmCAoZJgIYOLA0dGUpAhgiADIyAcQAAAAAAAAAAAAAAAAAAAAAAAAAAAAAAAAAA==

> <PUBCHEM_IUPAC_OPENEYE_NAME>
1-(4-fluorophenyl)-4-[(1-phenylpyrazol-4-yl)methyl]piperazine

> <PUBCHEM_IUPAC_CAS_NAME>
1-(4-fluorophenyl)-4-[(1-phenyl-4-pyrazolyl)methyl]piperazine

> <PUBCHEM_IUPAC_NAME_MARKUP>
1-(4-fluorophenyl)-4-[(1-phenylpyrazol-4-yl)methyl]piperazine

> <PUBCHEM_IUPAC_NAME>
1-(4-fluorophenyl)-4-[(1-phenylpyrazol-4-yl)methyl]piperazine

> <PUBCHEM_IUPAC_SYSTEMATIC_NAME>
1-(4-fluorophenyl)-4-[(1-phenylpyrazol-4-yl)methyl]piperazine

> <PUBCHEM_IUPAC_TRADITIONAL_NAME>
1-(4-fluorophenyl)-4-[(1-phenylpyrazol-4-yl)methyl]piperazine

> <PUBCHEM_IUPAC_INCHI>
InChI=1S/C20H21FN4/c21-18-6-8-19(9-7-18)24-12-10-23(11-13-24)15-17-14-22-25(16-17)20-4-2-1-3-5-20/h1-9,14,16H,10-13,15H2

> <PUBCHEM_IUPAC_INCHIKEY>
ZQEBKQUIKOLFRO-UHFFFAOYSA-N

> <PUBCHEM_XLOGP3_AA>
3.4

> <PUBCHEM_EXACT_MASS>
336.17502485

> <PUBCHEM_MOLECULAR_FORMULA>
C20H21FN4

> <PUBCHEM_MOLECULAR_WEIGHT>
336.4

> <PUBCHEM_OPENEYE_CAN_SMILES>
C1CN(CCN1CC2=CN(N=C2)C3=CC=CC=C3)C4=CC=C(C=C4)F

> <PUBCHEM_OPENEYE_ISO_SMILES>
C1CN(CCN1CC2=CN(N=C2)C3=CC=CC=C3)C4=CC=C(C=C4)F

> <PUBCHEM_CACTVS_TPSA>
24.3

> <PUBCHEM_MONOISOTOPIC_WEIGHT>
336.17502485

> <PUBCHEM_TOTAL_CHARGE>
0

> <PUBCHEM_HEAVY_ATOM_COUNT>
25

> <PUBCHEM_ATOM_DEF_STEREO_COUNT>
0

> <PUBCHEM_ATOM_UDEF_STEREO_COUNT>
0

> <PUBCHEM_BOND_DEF_STEREO_COUNT>
0

> <PUBCHEM_BOND_UDEF_STEREO_COUNT>
0

> <PUBCHEM_ISOTOPIC_ATOM_COUNT>
0

> <PUBCHEM_COMPONENT_COUNT>
1

> <PUBCHEM_CACTVS_TAUTO_COUNT>
-1

> <PUBCHEM_COORDINATE_TYPE>
1
5
255

> <PUBCHEM_BONDANNOTATIONS>
11  14  8
11  15  8
12  13  8
12  16  8
14  17  8
15  18  8
17  20  8
18  20  8
19  21  8
19  22  8
21  23  8
22  24  8
23  25  8
24  25  8
4  13  8
4  5  8
5  16  8

$$$$
