127052778
  -OEChem-09292322372D

 65 69  0     0  0  0  0  0  0999 V2000
    4.6783    4.6349    0.0000 S   0  0  0  0  0  0  0  0  0  0  0  0
   15.2619   -1.3660    0.0000 F   0  0  0  0  0  0  0  0  0  0  0  0
    9.2619   -4.8301    0.0000 F   0  0  0  0  0  0  0  0  0  0  0  0
    6.7619    4.6962    0.0000 O   0  0  0  0  0  0  0  0  0  0  0  0
   10.7619   -0.5000    0.0000 N   0  0  0  0  0  0  0  0  0  0  0  0
    9.7619    1.2320    0.0000 N   0  0  0  0  0  0  0  0  0  0  0  0
    4.6783    3.0254    0.0000 N   0  0  0  0  0  0  0  0  0  0  0  0
    9.7619   -0.5000    0.0000 C   0  0  0  0  0  0  0  0  0  0  0  0
   11.2619    0.3660    0.0000 C   0  0  0  0  0  0  0  0  0  0  0  0
    9.2619    0.3660    0.0000 C   0  0  0  0  0  0  0  0  0  0  0  0
   10.7619    1.2320    0.0000 C   0  0  0  0  0  0  0  0  0  0  0  0
   11.2619   -1.3660    0.0000 C   0  0  0  0  0  0  0  0  0  0  0  0
    9.2619    2.0981    0.0000 C   0  0  0  0  0  0  0  0  0  0  0  0
    8.2619    2.0981    0.0000 C   0  0  0  0  0  0  0  0  0  0  0  0
   12.2619   -1.3660    0.0000 C   0  0  0  0  0  0  0  0  0  0  0  0
   10.7619   -2.2320    0.0000 C   0  0  0  0  0  0  0  0  0  0  0  0
    7.7619    2.9641    0.0000 C   0  0  0  0  0  0  0  0  0  0  0  0
    6.7619    2.9641    0.0000 C   0  0  0  0  0  0  0  0  0  0  0  0
   12.7619   -0.5000    0.0000 C   0  0  0  0  0  0  0  0  0  0  0  0
   11.2619   -3.0981    0.0000 C   0  0  0  0  0  0  0  0  0  0  0  0
   12.7619   -2.2320    0.0000 C   0  0  0  0  0  0  0  0  0  0  0  0
    9.7619   -2.2320    0.0000 C   0  0  0  0  0  0  0  0  0  0  0  0
   13.7619   -0.5000    0.0000 C   0  0  0  0  0  0  0  0  0  0  0  0
   10.7619   -3.9641    0.0000 C   0  0  0  0  0  0  0  0  0  0  0  0
   13.7619   -2.2320    0.0000 C   0  0  0  0  0  0  0  0  0  0  0  0
    9.2619   -3.0981    0.0000 C   0  0  0  0  0  0  0  0  0  0  0  0
    6.2619    3.8301    0.0000 C   0  0  0  0  0  0  0  0  0  0  0  0
   14.2619   -1.3660    0.0000 C   0  0  0  0  0  0  0  0  0  0  0  0
    9.7619   -3.9641    0.0000 C   0  0  0  0  0  0  0  0  0  0  0  0
    5.2619    3.8301    0.0000 C   0  0  0  0  0  0  0  0  0  0  0  0
    3.7320    4.3301    0.0000 C   0  0  0  0  0  0  0  0  0  0  0  0
    3.7320    3.3301    0.0000 C   0  0  0  0  0  0  0  0  0  0  0  0
    2.8660    4.8301    0.0000 C   0  0  0  0  0  0  0  0  0  0  0  0
    2.8660    2.8301    0.0000 C   0  0  0  0  0  0  0  0  0  0  0  0
    2.0000    4.3301    0.0000 C   0  0  0  0  0  0  0  0  0  0  0  0
    2.0000    3.3301    0.0000 C   0  0  0  0  0  0  0  0  0  0  0  0
    9.1793   -0.7121    0.0000 H   0  0  0  0  0  0  0  0  0  0  0  0
    9.8695   -1.1106    0.0000 H   0  0  0  0  0  0  0  0  0  0  0  0
   11.7368   -0.0325    0.0000 H   0  0  0  0  0  0  0  0  0  0  0  0
   11.7368    0.7646    0.0000 H   0  0  0  0  0  0  0  0  0  0  0  0
    8.7869    0.7646    0.0000 H   0  0  0  0  0  0  0  0  0  0  0  0
    8.7869   -0.0325    0.0000 H   0  0  0  0  0  0  0  0  0  0  0  0
   11.3445    1.4441    0.0000 H   0  0  0  0  0  0  0  0  0  0  0  0
   10.6542    1.8426    0.0000 H   0  0  0  0  0  0  0  0  0  0  0  0
   10.6419   -1.3660    0.0000 H   0  0  0  0  0  0  0  0  0  0  0  0
    9.8445    2.3101    0.0000 H   0  0  0  0  0  0  0  0  0  0  0  0
    9.1542    2.7087    0.0000 H   0  0  0  0  0  0  0  0  0  0  0  0
    7.6793    1.8860    0.0000 H   0  0  0  0  0  0  0  0  0  0  0  0
    8.3695    1.4875    0.0000 H   0  0  0  0  0  0  0  0  0  0  0  0
    8.3445    3.1761    0.0000 H   0  0  0  0  0  0  0  0  0  0  0  0
    7.6542    3.5747    0.0000 H   0  0  0  0  0  0  0  0  0  0  0  0
    6.1793    2.7520    0.0000 H   0  0  0  0  0  0  0  0  0  0  0  0
    6.8695    2.3535    0.0000 H   0  0  0  0  0  0  0  0  0  0  0  0
   12.4519    0.0369    0.0000 H   0  0  0  0  0  0  0  0  0  0  0  0
   11.8819   -3.0981    0.0000 H   0  0  0  0  0  0  0  0  0  0  0  0
   12.4519   -2.7690    0.0000 H   0  0  0  0  0  0  0  0  0  0  0  0
    9.4519   -1.6951    0.0000 H   0  0  0  0  0  0  0  0  0  0  0  0
   14.0719    0.0369    0.0000 H   0  0  0  0  0  0  0  0  0  0  0  0
   11.0719   -4.5010    0.0000 H   0  0  0  0  0  0  0  0  0  0  0  0
   14.0719   -2.7690    0.0000 H   0  0  0  0  0  0  0  0  0  0  0  0
    8.6419   -3.0981    0.0000 H   0  0  0  0  0  0  0  0  0  0  0  0
    2.8660    5.4501    0.0000 H   0  0  0  0  0  0  0  0  0  0  0  0
    2.8660    2.2101    0.0000 H   0  0  0  0  0  0  0  0  0  0  0  0
    1.4631    4.6401    0.0000 H   0  0  0  0  0  0  0  0  0  0  0  0
    1.4631    3.0201    0.0000 H   0  0  0  0  0  0  0  0  0  0  0  0
  1 30  1  0  0  0  0
  1 31  1  0  0  0  0
  2 28  1  0  0  0  0
  3 29  1  0  0  0  0
  4 27  2  0  0  0  0
  5  8  1  0  0  0  0
  5  9  1  0  0  0  0
  5 12  1  0  0  0  0
  6 10  1  0  0  0  0
  6 11  1  0  0  0  0
  6 13  1  0  0  0  0
  7 30  2  0  0  0  0
  7 32  1  0  0  0  0
  8 10  1  0  0  0  0
  8 37  1  0  0  0  0
  8 38  1  0  0  0  0
  9 11  1  0  0  0  0
  9 39  1  0  0  0  0
  9 40  1  0  0  0  0
 10 41  1  0  0  0  0
 10 42  1  0  0  0  0
 11 43  1  0  0  0  0
 11 44  1  0  0  0  0
 12 15  1  0  0  0  0
 12 16  1  0  0  0  0
 12 45  1  0  0  0  0
 13 14  1  0  0  0  0
 13 46  1  0  0  0  0
 13 47  1  0  0  0  0
 14 17  1  0  0  0  0
 14 48  1  0  0  0  0
 14 49  1  0  0  0  0
 15 19  2  0  0  0  0
 15 21  1  0  0  0  0
 16 20  2  0  0  0  0
 16 22  1  0  0  0  0
 17 18  1  0  0  0  0
 17 50  1  0  0  0  0
 17 51  1  0  0  0  0
 18 27  1  0  0  0  0
 18 52  1  0  0  0  0
 18 53  1  0  0  0  0
 19 23  1  0  0  0  0
 19 54  1  0  0  0  0
 20 24  1  0  0  0  0
 20 55  1  0  0  0  0
 21 25  2  0  0  0  0
 21 56  1  0  0  0  0
 22 26  2  0  0  0  0
 22 57  1  0  0  0  0
 23 28  2  0  0  0  0
 23 58  1  0  0  0  0
 24 29  2  0  0  0  0
 24 59  1  0  0  0  0
 25 28  1  0  0  0  0
 25 60  1  0  0  0  0
 26 29  1  0  0  0  0
 26 61  1  0  0  0  0
 27 30  1  0  0  0  0
 31 32  1  0  0  0  0
 31 33  2  0  0  0  0
 32 34  2  0  0  0  0
 33 35  1  0  0  0  0
 33 62  1  0  0  0  0
 34 36  1  0  0  0  0
 34 63  1  0  0  0  0
 35 36  2  0  0  0  0
 35 64  1  0  0  0  0
 36 65  1  0  0  0  0
M  END
> <PUBCHEM_COMPOUND_CID>
127052778

> <PUBCHEM_COMPOUND_CANONICALIZED>
1

> <PUBCHEM_CACTVS_COMPLEXITY>
668

> <PUBCHEM_CACTVS_HBOND_ACCEPTOR>
7

> <PUBCHEM_CACTVS_HBOND_DONOR>
0

> <PUBCHEM_CACTVS_ROTATABLE_BOND>
9

> <PUBCHEM_CACTVS_SUBSKEYS>
AAADceB7IYBAAAAAAAAAAAAAAAAAAWAAAAA8YMEAAAAAAFgB9AAAHwQAAAAADCzB3gwwwbMIEAisA6RyRACD8KBjCjhImD24ZJgIYLLgkbGUIAhggADoyAcYgcAOAAAAAAAAAQAAAAAAAAACAAAAAAAAAA==

> <PUBCHEM_IUPAC_OPENEYE_NAME>
1-(1,3-benzothiazol-2-yl)-5-[4-[bis(4-fluorophenyl)methyl]piperazin-1-yl]pentan-1-one

> <PUBCHEM_IUPAC_CAS_NAME>
1-(1,3-benzothiazol-2-yl)-5-[4-[bis(4-fluorophenyl)methyl]-1-piperazinyl]-1-pentanone

> <PUBCHEM_IUPAC_NAME_MARKUP>
1-(1,3-benzothiazol-2-yl)-5-[4-[bis(4-fluorophenyl)methyl]piperazin-1-yl]pentan-1-one

> <PUBCHEM_IUPAC_NAME>
1-(1,3-benzothiazol-2-yl)-5-[4-[bis(4-fluorophenyl)methyl]piperazin-1-yl]pentan-1-one

> <PUBCHEM_IUPAC_SYSTEMATIC_NAME>
1-(1,3-benzothiazol-2-yl)-5-[4-[bis(4-fluorophenyl)methyl]piperazin-1-yl]pentan-1-one

> <PUBCHEM_IUPAC_TRADITIONAL_NAME>
1-(1,3-benzothiazol-2-yl)-5-[4-[bis(4-fluorophenyl)methyl]piperazino]pentan-1-one

> <PUBCHEM_IUPAC_INCHI>
InChI=1S/C29H29F2N3OS/c30-23-12-8-21(9-13-23)28(22-10-14-24(31)15-11-22)34-19-17-33(18-20-34)16-4-3-6-26(35)29-32-25-5-1-2-7-27(25)36-29/h1-2,5,7-15,28H,3-4,6,16-20H2

> <PUBCHEM_IUPAC_INCHIKEY>
MWVBXJPHOJRHOA-UHFFFAOYSA-N

> <PUBCHEM_XLOGP3_AA>
6.3

> <PUBCHEM_EXACT_MASS>
505.19994005

> <PUBCHEM_MOLECULAR_FORMULA>
C29H29F2N3OS

> <PUBCHEM_MOLECULAR_WEIGHT>
505.6

> <PUBCHEM_OPENEYE_CAN_SMILES>
C1CN(CCN1CCCCC(=O)C2=NC3=CC=CC=C3S2)C(C4=CC=C(C=C4)F)C5=CC=C(C=C5)F

> <PUBCHEM_OPENEYE_ISO_SMILES>
C1CN(CCN1CCCCC(=O)C2=NC3=CC=CC=C3S2)C(C4=CC=C(C=C4)F)C5=CC=C(C=C5)F

> <PUBCHEM_CACTVS_TPSA>
64.7

> <PUBCHEM_MONOISOTOPIC_WEIGHT>
505.19994005

> <PUBCHEM_TOTAL_CHARGE>
0

> <PUBCHEM_HEAVY_ATOM_COUNT>
36

> <PUBCHEM_ATOM_DEF_STEREO_COUNT>
0

> <PUBCHEM_ATOM_UDEF_STEREO_COUNT>
0

> <PUBCHEM_BOND_DEF_STEREO_COUNT>
0

> <PUBCHEM_BOND_UDEF_STEREO_COUNT>
0

> <PUBCHEM_ISOTOPIC_ATOM_COUNT>
0

> <PUBCHEM_COMPONENT_COUNT>
1

> <PUBCHEM_CACTVS_TAUTO_COUNT>
-1

> <PUBCHEM_COORDINATE_TYPE>
1
5
255

> <PUBCHEM_BONDANNOTATIONS>
1  30  8
1  31  8
15  19  8
15  21  8
16  20  8
16  22  8
19  23  8
20  24  8
21  25  8
22  26  8
23  28  8
24  29  8
25  28  8
26  29  8
31  32  8
31  33  8
32  34  8
33  35  8
34  36  8
35  36  8
7  30  8
7  32  8

$$$$
