9883587
  -OEChem-09292322142D

 43 46  0     1  0  0  0  0  0999 V2000
    9.0000   -1.2726    0.0000 O   0  0  0  0  0  0  0  0  0  0  0  0
    8.1340   -2.7726    0.0000 O   0  0  0  0  0  0  0  0  0  0  0  0
   10.7860    1.7726    0.0000 O   0  0  0  0  0  0  0  0  0  0  0  0
    5.4679   -1.2934    0.0000 N   0  0  3  0  0  0  0  0  0  0  0  0
    5.4679   -0.2517    0.0000 C   0  0  0  0  0  0  0  0  0  0  0  0
    6.3740    0.2621    0.0000 C   0  0  0  0  0  0  0  0  0  0  0  0
    7.2679   -0.2725    0.0000 C   0  0  0  0  0  0  0  0  0  0  0  0
    6.3740   -1.8072    0.0000 C   0  0  0  0  0  0  0  0  0  0  0  0
    7.2679   -1.2726    0.0000 C   0  0  0  0  0  0  0  0  0  0  0  0
    4.6038   -1.7967    0.0000 C   0  0  0  0  0  0  0  0  0  0  0  0
    8.1340    0.2275    0.0000 C   0  0  0  0  0  0  0  0  0  0  0  0
    8.1340   -1.7726    0.0000 C   0  0  0  0  0  0  0  0  0  0  0  0
    9.0000   -0.2725    0.0000 C   0  0  0  0  0  0  0  0  0  0  0  0
    3.7359   -1.3000    0.0000 C   0  0  0  0  0  0  0  0  0  0  0  0
    8.1179    1.2690    0.0000 C   0  0  0  0  0  0  0  0  0  0  0  0
    9.9100    0.2343    0.0000 C   0  0  0  0  0  0  0  0  0  0  0  0
    9.0159    1.7967    0.0000 C   0  0  0  0  0  0  0  0  0  0  0  0
    9.9180    1.2759    0.0000 C   0  0  0  0  0  0  0  0  0  0  0  0
    2.8718   -1.8034    0.0000 C   0  0  0  0  0  0  0  0  0  0  0  0
    3.7320   -0.3000    0.0000 C   0  0  0  0  0  0  0  0  0  0  0  0
    2.0038   -1.3067    0.0000 C   0  0  0  0  0  0  0  0  0  0  0  0
    2.8641    0.1966    0.0000 C   0  0  0  0  0  0  0  0  0  0  0  0
    2.0000   -0.3067    0.0000 C   0  0  0  0  0  0  0  0  0  0  0  0
   10.7898    2.7726    0.0000 C   0  0  0  0  0  0  0  0  0  0  0  0
    5.2589    0.3320    0.0000 H   0  0  0  0  0  0  0  0  0  0  0  0
    4.8571   -0.3578    0.0000 H   0  0  0  0  0  0  0  0  0  0  0  0
    6.7786    0.7319    0.0000 H   0  0  0  0  0  0  0  0  0  0  0  0
    5.9804    0.7411    0.0000 H   0  0  0  0  0  0  0  0  0  0  0  0
    5.9804   -2.2862    0.0000 H   0  0  0  0  0  0  0  0  0  0  0  0
    6.7786   -2.2770    0.0000 H   0  0  0  0  0  0  0  0  0  0  0  0
    4.2071   -2.2732    0.0000 H   0  0  0  0  0  0  0  0  0  0  0  0
    5.0042   -2.2701    0.0000 H   0  0  0  0  0  0  0  0  0  0  0  0
    7.5774    1.5727    0.0000 H   0  0  0  0  0  0  0  0  0  0  0  0
   10.4433   -0.0819    0.0000 H   0  0  0  0  0  0  0  0  0  0  0  0
    9.0136    2.4167    0.0000 H   0  0  0  0  0  0  0  0  0  0  0  0
    2.8742   -2.4234    0.0000 H   0  0  0  0  0  0  0  0  0  0  0  0
    4.2678    0.0120    0.0000 H   0  0  0  0  0  0  0  0  0  0  0  0
    1.4681   -1.6188    0.0000 H   0  0  0  0  0  0  0  0  0  0  0  0
    2.8617    0.8166    0.0000 H   0  0  0  0  0  0  0  0  0  0  0  0
    1.4619    0.0012    0.0000 H   0  0  0  0  0  0  0  0  0  0  0  0
   11.4098    2.7702    0.0000 H   0  0  0  0  0  0  0  0  0  0  0  0
   10.7922    3.3925    0.0000 H   0  0  0  0  0  0  0  0  0  0  0  0
   10.1698    2.7749    0.0000 H   0  0  0  0  0  0  0  0  0  0  0  0
  1 12  1  0  0  0  0
  1 13  1  0  0  0  0
  2 12  2  0  0  0  0
  3 18  1  0  0  0  0
  3 24  1  0  0  0  0
  4  5  1  0  0  0  0
  4  8  1  0  0  0  0
  4 10  1  0  0  0  0
  5  6  1  0  0  0  0
  5 25  1  0  0  0  0
  5 26  1  0  0  0  0
  6  7  1  0  0  0  0
  6 27  1  0  0  0  0
  6 28  1  0  0  0  0
  7  9  2  0  0  0  0
  7 11  1  0  0  0  0
  8  9  1  0  0  0  0
  8 29  1  0  0  0  0
  8 30  1  0  0  0  0
  9 12  1  0  0  0  0
 10 14  1  0  0  0  0
 10 31  1  0  0  0  0
 10 32  1  0  0  0  0
 11 13  2  0  0  0  0
 11 15  1  0  0  0  0
 13 16  1  0  0  0  0
 14 19  2  0  0  0  0
 14 20  1  0  0  0  0
 15 17  2  0  0  0  0
 15 33  1  0  0  0  0
 16 18  2  0  0  0  0
 16 34  1  0  0  0  0
 17 18  1  0  0  0  0
 17 35  1  0  0  0  0
 19 21  1  0  0  0  0
 19 36  1  0  0  0  0
 20 22  2  0  0  0  0
 20 37  1  0  0  0  0
 21 23  2  0  0  0  0
 21 38  1  0  0  0  0
 22 23  1  0  0  0  0
 22 39  1  0  0  0  0
 23 40  1  0  0  0  0
 24 41  1  0  0  0  0
 24 42  1  0  0  0  0
 24 43  1  0  0  0  0
M  END
> <PUBCHEM_COMPOUND_CID>
9883587

> <PUBCHEM_COMPOUND_CANONICALIZED>
1

> <PUBCHEM_CACTVS_COMPLEXITY>
509

> <PUBCHEM_CACTVS_HBOND_ACCEPTOR>
4

> <PUBCHEM_CACTVS_HBOND_DONOR>
0

> <PUBCHEM_CACTVS_ROTATABLE_BOND>
3

> <PUBCHEM_CACTVS_SUBSKEYS>
AAADceB6MAAAAAAAAAAAAAAAAAAAAAAAAAAwYIEAAAAAAACxQAAAHgAAAAAADATBmAYyDoMABACIAiDSCACCCAAgIAAIiAEODMgMJyqEsRuGOijnwBWIqQeQ8K4OIAAACAAIAABAAAAQABAAAAAAAAAAAA==

> <PUBCHEM_IUPAC_OPENEYE_NAME>
3-benzyl-8-methoxy-2,4-dihydro-1H-chromeno[3,4-c]pyridin-5-one

> <PUBCHEM_IUPAC_CAS_NAME>
8-methoxy-3-(phenylmethyl)-2,4-dihydro-1H-[1]benzopyrano[3,4-c]pyridin-5-one

> <PUBCHEM_IUPAC_NAME_MARKUP>
3-benzyl-8-methoxy-2,4-dihydro-1<I>H</I>-chromeno[3,4-c]pyridin-5-one

> <PUBCHEM_IUPAC_NAME>
3-benzyl-8-methoxy-2,4-dihydro-1H-chromeno[3,4-c]pyridin-5-one

> <PUBCHEM_IUPAC_SYSTEMATIC_NAME>
8-methoxy-3-(phenylmethyl)-2,4-dihydro-1H-chromeno[3,4-c]pyridin-5-one

> <PUBCHEM_IUPAC_TRADITIONAL_NAME>
3-benzyl-8-methoxy-2,4-dihydro-1H-chromeno[3,4-c]pyridin-5-one

> <PUBCHEM_IUPAC_INCHI>
InChI=1S/C20H19NO3/c1-23-15-7-8-17-16-9-10-21(12-14-5-3-2-4-6-14)13-18(16)20(22)24-19(17)11-15/h2-8,11H,9-10,12-13H2,1H3

> <PUBCHEM_IUPAC_INCHIKEY>
XPBGNLUNAORHQZ-UHFFFAOYSA-N

> <PUBCHEM_XLOGP3_AA>
2.8

> <PUBCHEM_EXACT_MASS>
321.13649347

> <PUBCHEM_MOLECULAR_FORMULA>
C20H19NO3

> <PUBCHEM_MOLECULAR_WEIGHT>
321.4

> <PUBCHEM_OPENEYE_CAN_SMILES>
COC1=CC2=C(C=C1)C3=C(CN(CC3)CC4=CC=CC=C4)C(=O)O2

> <PUBCHEM_OPENEYE_ISO_SMILES>
COC1=CC2=C(C=C1)C3=C(CN(CC3)CC4=CC=CC=C4)C(=O)O2

> <PUBCHEM_CACTVS_TPSA>
38.8

> <PUBCHEM_MONOISOTOPIC_WEIGHT>
321.13649347

> <PUBCHEM_TOTAL_CHARGE>
0

> <PUBCHEM_HEAVY_ATOM_COUNT>
24

> <PUBCHEM_ATOM_DEF_STEREO_COUNT>
0

> <PUBCHEM_ATOM_UDEF_STEREO_COUNT>
0

> <PUBCHEM_BOND_DEF_STEREO_COUNT>
0

> <PUBCHEM_BOND_UDEF_STEREO_COUNT>
0

> <PUBCHEM_ISOTOPIC_ATOM_COUNT>
0

> <PUBCHEM_COMPONENT_COUNT>
1

> <PUBCHEM_CACTVS_TAUTO_COUNT>
-1

> <PUBCHEM_COORDINATE_TYPE>
1
5
255

> <PUBCHEM_BONDANNOTATIONS>
1  12  8
1  13  8
11  13  8
11  15  8
13  16  8
14  19  8
14  20  8
15  17  8
16  18  8
17  18  8
19  21  8
20  22  8
21  23  8
22  23  8
7  11  8
7  9  8
9  12  8

$$$$
