72548703
  -OEChem-09292322062D

 77 81  0     0  0  0  0  0  0999 V2000
    6.6391    0.8113    0.0000 S   0  0  0  0  0  0  0  0  0  0  0  0
    7.4481   -3.7765    0.0000 S   0  0  0  0  0  0  0  0  0  0  0  0
    2.3644    5.1245    0.0000 O   0  0  0  0  0  0  0  0  0  0  0  0
    3.7657    6.1425    0.0000 O   0  0  0  0  0  0  0  0  0  0  0  0
    6.7670    3.4849    0.0000 O   0  0  0  0  0  0  0  0  0  0  0  0
    6.4481   -3.7765    0.0000 O   0  0  0  0  0  0  0  0  0  0  0  0
    8.4481   -3.7765    0.0000 O   0  0  0  0  0  0  0  0  0  0  0  0
    5.3658    2.4668    0.0000 N   0  0  0  0  0  0  0  0  0  0  0  0
    7.9481    1.7623    0.0000 N   0  0  0  0  0  0  0  0  0  0  0  0
    7.4481   -4.7765    0.0000 N   0  0  0  0  0  0  0  0  0  0  0  0
    4.7780    3.2758    0.0000 C   0  0  0  0  0  0  0  0  0  0  0  0
    3.9467    4.4200    0.0000 C   0  0  0  0  0  0  0  0  0  0  0  0
    4.9344    4.2635    0.0000 C   0  0  0  0  0  0  0  0  0  0  0  0
    3.7903    3.4323    0.0000 C   0  0  0  0  0  0  0  0  0  0  0  0
    9.9513    1.1714    0.0000 C   0  0  0  0  0  0  0  0  0  0  0  0
   10.9024    0.8624    0.0000 C   0  0  0  0  0  0  0  0  0  0  0  0
    9.7434    2.1495    0.0000 C   0  0  0  0  0  0  0  0  0  0  0  0
   11.6455    1.5315    0.0000 C   0  0  0  0  0  0  0  0  0  0  0  0
   10.4865    2.8187    0.0000 C   0  0  0  0  0  0  0  0  0  0  0  0
   11.4376    2.5097    0.0000 C   0  0  0  0  0  0  0  0  0  0  0  0
    9.2082    0.5023    0.0000 C   0  0  0  0  0  0  0  0  0  0  0  0
    3.3590    5.2290    0.0000 C   0  0  0  0  0  0  0  0  0  0  0  0
    8.2571    0.8113    0.0000 C   0  0  0  0  0  0  0  0  0  0  0  0
    6.3603    2.5714    0.0000 C   0  0  0  0  0  0  0  0  0  0  0  0
    7.4481    0.2235    0.0000 C   0  0  0  0  0  0  0  0  0  0  0  0
    6.9481    1.7623    0.0000 C   0  0  0  0  0  0  0  0  0  0  0  0
    7.4481   -0.7765    0.0000 C   0  0  0  0  0  0  0  0  0  0  0  0
    8.3141   -1.2765    0.0000 C   0  0  0  0  0  0  0  0  0  0  0  0
    8.3141   -2.2765    0.0000 C   0  0  0  0  0  0  0  0  0  0  0  0
    6.5821   -1.2765    0.0000 C   0  0  0  0  0  0  0  0  0  0  0  0
    7.4481   -2.7765    0.0000 C   0  0  0  0  0  0  0  0  0  0  0  0
    6.5821   -5.2765    0.0000 C   0  0  0  0  0  0  0  0  0  0  0  0
    6.5821   -2.2765    0.0000 C   0  0  0  0  0  0  0  0  0  0  0  0
    9.2080   -0.7418    0.0000 C   0  0  0  0  0  0  0  0  0  0  0  0
    9.2080   -2.8112    0.0000 C   0  0  0  0  0  0  0  0  0  0  0  0
    5.7160   -5.7765    0.0000 C   0  0  0  0  0  0  0  0  0  0  0  0
    7.0821   -6.1425    0.0000 C   0  0  0  0  0  0  0  0  0  0  0  0
    6.0821   -4.4105    0.0000 C   0  0  0  0  0  0  0  0  0  0  0  0
   10.1141   -1.2557    0.0000 C   0  0  0  0  0  0  0  0  0  0  0  0
   10.1141   -2.2973    0.0000 C   0  0  0  0  0  0  0  0  0  0  0  0
    4.4540    2.7472    0.0000 H   0  0  0  0  0  0  0  0  0  0  0  0
    4.2707    4.9486    0.0000 H   0  0  0  0  0  0  0  0  0  0  0  0
    5.5468    4.1665    0.0000 H   0  0  0  0  0  0  0  0  0  0  0  0
    5.0314    4.8759    0.0000 H   0  0  0  0  0  0  0  0  0  0  0  0
    3.1779    3.5293    0.0000 H   0  0  0  0  0  0  0  0  0  0  0  0
    3.6933    2.8199    0.0000 H   0  0  0  0  0  0  0  0  0  0  0  0
    9.3616    1.3630    0.0000 H   0  0  0  0  0  0  0  0  0  0  0  0
   10.6113    0.3150    0.0000 H   0  0  0  0  0  0  0  0  0  0  0  0
   11.3909    0.4807    0.0000 H   0  0  0  0  0  0  0  0  0  0  0  0
    9.4148    2.6753    0.0000 H   0  0  0  0  0  0  0  0  0  0  0  0
    9.1685    1.9173    0.0000 H   0  0  0  0  0  0  0  0  0  0  0  0
   11.9741    1.0057    0.0000 H   0  0  0  0  0  0  0  0  0  0  0  0
   12.2204    1.7638    0.0000 H   0  0  0  0  0  0  0  0  0  0  0  0
   10.7776    3.3661    0.0000 H   0  0  0  0  0  0  0  0  0  0  0  0
    9.9980    3.2004    0.0000 H   0  0  0  0  0  0  0  0  0  0  0  0
   12.0572    2.5313    0.0000 H   0  0  0  0  0  0  0  0  0  0  0  0
   11.5239    3.1236    0.0000 H   0  0  0  0  0  0  0  0  0  0  0  0
    8.9171   -0.0452    0.0000 H   0  0  0  0  0  0  0  0  0  0  0  0
    9.6967    0.1206    0.0000 H   0  0  0  0  0  0  0  0  0  0  0  0
    5.1136    1.9004    0.0000 H   0  0  0  0  0  0  0  0  0  0  0  0
    2.0000    5.6260    0.0000 H   0  0  0  0  0  0  0  0  0  0  0  0
    6.0451   -0.9665    0.0000 H   0  0  0  0  0  0  0  0  0  0  0  0
    6.0451   -2.5865    0.0000 H   0  0  0  0  0  0  0  0  0  0  0  0
    7.9850   -5.0865    0.0000 H   0  0  0  0  0  0  0  0  0  0  0  0
    9.2009   -0.1219    0.0000 H   0  0  0  0  0  0  0  0  0  0  0  0
    9.2009   -3.4311    0.0000 H   0  0  0  0  0  0  0  0  0  0  0  0
    5.4060   -5.2396    0.0000 H   0  0  0  0  0  0  0  0  0  0  0  0
    5.1791   -6.0865    0.0000 H   0  0  0  0  0  0  0  0  0  0  0  0
    6.0260   -6.3134    0.0000 H   0  0  0  0  0  0  0  0  0  0  0  0
    6.5451   -6.4525    0.0000 H   0  0  0  0  0  0  0  0  0  0  0  0
    7.3921   -6.6795    0.0000 H   0  0  0  0  0  0  0  0  0  0  0  0
    7.6190   -5.8325    0.0000 H   0  0  0  0  0  0  0  0  0  0  0  0
    6.6190   -4.1005    0.0000 H   0  0  0  0  0  0  0  0  0  0  0  0
    5.7721   -3.8735    0.0000 H   0  0  0  0  0  0  0  0  0  0  0  0
    5.5451   -4.7205    0.0000 H   0  0  0  0  0  0  0  0  0  0  0  0
   10.6499   -0.9436    0.0000 H   0  0  0  0  0  0  0  0  0  0  0  0
   10.6499   -2.6094    0.0000 H   0  0  0  0  0  0  0  0  0  0  0  0
  1 25  1  0  0  0  0
  1 26  1  0  0  0  0
  2  6  2  0  0  0  0
  2  7  2  0  0  0  0
  2 10  1  0  0  0  0
  2 31  1  0  0  0  0
  3 22  1  0  0  0  0
  3 61  1  0  0  0  0
  4 22  2  0  0  0  0
  5 24  2  0  0  0  0
  8 11  1  0  0  0  0
  8 24  1  0  0  0  0
  8 60  1  0  0  0  0
  9 23  1  0  0  0  0
  9 26  2  0  0  0  0
 10 32  1  0  0  0  0
 10 64  1  0  0  0  0
 11 13  1  0  0  0  0
 11 14  1  0  0  0  0
 11 41  1  0  0  0  0
 12 13  1  0  0  0  0
 12 14  1  0  0  0  0
 12 22  1  0  0  0  0
 12 42  1  0  0  0  0
 13 43  1  0  0  0  0
 13 44  1  0  0  0  0
 14 45  1  0  0  0  0
 14 46  1  0  0  0  0
 15 16  1  0  0  0  0
 15 17  1  0  0  0  0
 15 21  1  0  0  0  0
 15 47  1  0  0  0  0
 16 18  1  0  0  0  0
 16 48  1  0  0  0  0
 16 49  1  0  0  0  0
 17 19  1  0  0  0  0
 17 50  1  0  0  0  0
 17 51  1  0  0  0  0
 18 20  1  0  0  0  0
 18 52  1  0  0  0  0
 18 53  1  0  0  0  0
 19 20  1  0  0  0  0
 19 54  1  0  0  0  0
 19 55  1  0  0  0  0
 20 56  1  0  0  0  0
 20 57  1  0  0  0  0
 21 23  1  0  0  0  0
 21 58  1  0  0  0  0
 21 59  1  0  0  0  0
 23 25  2  0  0  0  0
 24 26  1  0  0  0  0
 25 27  1  0  0  0  0
 27 28  1  0  0  0  0
 27 30  2  0  0  0  0
 28 29  1  0  0  0  0
 28 34  2  0  0  0  0
 29 31  1  0  0  0  0
 29 35  2  0  0  0  0
 30 33  1  0  0  0  0
 30 62  1  0  0  0  0
 31 33  2  0  0  0  0
 32 36  1  0  0  0  0
 32 37  1  0  0  0  0
 32 38  1  0  0  0  0
 33 63  1  0  0  0  0
 34 39  1  0  0  0  0
 34 65  1  0  0  0  0
 35 40  1  0  0  0  0
 35 66  1  0  0  0  0
 36 67  1  0  0  0  0
 36 68  1  0  0  0  0
 36 69  1  0  0  0  0
 37 70  1  0  0  0  0
 37 71  1  0  0  0  0
 37 72  1  0  0  0  0
 38 73  1  0  0  0  0
 38 74  1  0  0  0  0
 38 75  1  0  0  0  0
 39 40  2  0  0  0  0
 39 76  1  0  0  0  0
 40 77  1  0  0  0  0
M  END
> <PUBCHEM_COMPOUND_CID>
72548703

> <PUBCHEM_COMPOUND_CANONICALIZED>
1

> <PUBCHEM_CACTVS_COMPLEXITY>
1010

> <PUBCHEM_CACTVS_HBOND_ACCEPTOR>
8

> <PUBCHEM_CACTVS_HBOND_DONOR>
3

> <PUBCHEM_CACTVS_ROTATABLE_BOND>
9

> <PUBCHEM_CACTVS_SUBSKEYS>
AAADcfB7OABgAAAAAAAAAAAAAABgAWAAAAAwYMAAAAAAAADB1AAAHgQQSAAADajB3gQyidLIEgqsAyXyXHBC8LBjCDgImJ24QIgIYDLgkTGUYAAklgDoyAe8gMAOkAACgAAUAAAgAAUAACgAAAAAAAAAAA==

> <PUBCHEM_IUPAC_OPENEYE_NAME>
3-[[5-[4-(tert-butylsulfamoyl)-1-naphthyl]-4-(cyclohexylmethyl)thiazole-2-carbonyl]amino]cyclobutanecarboxylic acid

> <PUBCHEM_IUPAC_CAS_NAME>
3-[[[5-[4-(tert-butylsulfamoyl)-1-naphthalenyl]-4-(cyclohexylmethyl)-2-thiazolyl]-oxomethyl]amino]-1-cyclobutanecarboxylic acid

> <PUBCHEM_IUPAC_NAME_MARKUP>
3-[[5-[4-(<I>tert</I>-butylsulfamoyl)naphthalen-1-yl]-4-(cyclohexylmethyl)-1,3-thiazole-2-carbonyl]amino]cyclobutane-1-carboxylic acid

> <PUBCHEM_IUPAC_NAME>
3-[[5-[4-(tert-butylsulfamoyl)naphthalen-1-yl]-4-(cyclohexylmethyl)-1,3-thiazole-2-carbonyl]amino]cyclobutane-1-carboxylic acid

> <PUBCHEM_IUPAC_SYSTEMATIC_NAME>
3-[[5-[4-(tert-butylsulfamoyl)naphthalen-1-yl]-4-(cyclohexylmethyl)-1,3-thiazol-2-yl]carbonylamino]cyclobutane-1-carboxylic acid

> <PUBCHEM_IUPAC_TRADITIONAL_NAME>
3-[[5-[4-(tert-butylsulfamoyl)-1-naphthyl]-4-(cyclohexylmethyl)thiazole-2-carbonyl]amino]cyclobutanecarboxylic acid

> <PUBCHEM_IUPAC_INCHI>
InChI=1S/C30H37N3O5S2/c1-30(2,3)33-40(37,38)25-14-13-23(21-11-7-8-12-22(21)25)26-24(15-18-9-5-4-6-10-18)32-28(39-26)27(34)31-20-16-19(17-20)29(35)36/h7-8,11-14,18-20,33H,4-6,9-10,15-17H2,1-3H3,(H,31,34)(H,35,36)

> <PUBCHEM_IUPAC_INCHIKEY>
KYIGOCCCBXRHNJ-UHFFFAOYSA-N

> <PUBCHEM_XLOGP3_AA>
6.5

> <PUBCHEM_EXACT_MASS>
583.21746364

> <PUBCHEM_MOLECULAR_FORMULA>
C30H37N3O5S2

> <PUBCHEM_MOLECULAR_WEIGHT>
583.8

> <PUBCHEM_OPENEYE_CAN_SMILES>
CC(C)(C)NS(=O)(=O)C1=CC=C(C2=CC=CC=C21)C3=C(N=C(S3)C(=O)NC4CC(C4)C(=O)O)CC5CCCCC5

> <PUBCHEM_OPENEYE_ISO_SMILES>
CC(C)(C)NS(=O)(=O)C1=CC=C(C2=CC=CC=C21)C3=C(N=C(S3)C(=O)NC4CC(C4)C(=O)O)CC5CCCCC5

> <PUBCHEM_CACTVS_TPSA>
162

> <PUBCHEM_MONOISOTOPIC_WEIGHT>
583.21746364

> <PUBCHEM_TOTAL_CHARGE>
0

> <PUBCHEM_HEAVY_ATOM_COUNT>
40

> <PUBCHEM_ATOM_DEF_STEREO_COUNT>
0

> <PUBCHEM_ATOM_UDEF_STEREO_COUNT>
0

> <PUBCHEM_BOND_DEF_STEREO_COUNT>
0

> <PUBCHEM_BOND_UDEF_STEREO_COUNT>
0

> <PUBCHEM_ISOTOPIC_ATOM_COUNT>
0

> <PUBCHEM_COMPONENT_COUNT>
1

> <PUBCHEM_CACTVS_TAUTO_COUNT>
-1

> <PUBCHEM_COORDINATE_TYPE>
1
5
255

> <PUBCHEM_BONDANNOTATIONS>
1  25  8
1  26  8
23  25  8
27  28  8
27  30  8
28  29  8
28  34  8
29  31  8
29  35  8
30  33  8
31  33  8
34  39  8
35  40  8
39  40  8
9  23  8
9  26  8

$$$$
