10455444
  -OEChem-09292322192D

 58 62  0     1  0  0  0  0  0999 V2000
    2.0000   -2.7531    0.0000 F   0  0  0  0  0  0  0  0  0  0  0  0
   10.9728    1.7121    0.0000 O   0  0  0  0  0  0  0  0  0  0  0  0
   10.2489    5.1472    0.0000 O   0  0  0  0  0  0  0  0  0  0  0  0
    6.4763   -0.0968    0.0000 N   0  0  3  0  0  0  0  0  0  0  0  0
   10.3438    3.3734    0.0000 N   0  0  0  0  0  0  0  0  0  0  0  0
    5.5443   -4.5579    0.0000 N   0  0  0  0  0  0  0  0  0  0  0  0
    5.4978   -0.3031    0.0000 C   0  0  0  0  0  0  0  0  0  0  0  0
    6.7870    0.8537    0.0000 C   0  0  0  0  0  0  0  0  0  0  0  0
    5.1871   -1.2536    0.0000 C   0  0  0  0  0  0  0  0  0  0  0  0
    7.7654    1.0599    0.0000 C   0  0  0  0  0  0  0  0  0  0  0  0
    7.1441   -0.8411    0.0000 C   0  0  0  0  0  0  0  0  0  0  0  0
    5.8550   -1.9979    0.0000 C   0  0  0  0  0  0  0  0  0  0  0  0
    8.0761    2.0104    0.0000 C   0  0  0  0  0  0  0  0  0  0  0  0
    6.8335   -1.7917    0.0000 C   0  0  0  0  0  0  0  0  0  0  0  0
    9.0546    2.2166    0.0000 C   0  0  0  0  0  0  0  0  0  0  0  0
    5.5443   -2.9484    0.0000 C   0  0  0  0  0  0  0  0  0  0  0  0
    9.3653    3.1672    0.0000 C   0  0  0  0  0  0  0  0  0  0  0  0
    4.5981   -3.2531    0.0000 C   0  0  0  0  0  0  0  0  0  0  0  0
    6.1279   -3.7531    0.0000 C   0  0  0  0  0  0  0  0  0  0  0  0
    4.5981   -4.2531    0.0000 C   0  0  0  0  0  0  0  0  0  0  0  0
   11.0808    2.7063    0.0000 C   0  0  0  0  0  0  0  0  0  0  0  0
   10.7489    4.2812    0.0000 C   0  0  0  0  0  0  0  0  0  0  0  0
   11.9438    3.1996    0.0000 C   0  0  0  0  0  0  0  0  0  0  0  0
   11.7376    4.1781    0.0000 C   0  0  0  0  0  0  0  0  0  0  0  0
    3.7320   -2.7531    0.0000 C   0  0  0  0  0  0  0  0  0  0  0  0
    3.7320   -4.7531    0.0000 C   0  0  0  0  0  0  0  0  0  0  0  0
    2.8660   -3.2531    0.0000 C   0  0  0  0  0  0  0  0  0  0  0  0
   12.8944    2.8889    0.0000 C   0  0  0  0  0  0  0  0  0  0  0  0
   12.4819    4.8460    0.0000 C   0  0  0  0  0  0  0  0  0  0  0  0
    2.8660   -4.2531    0.0000 C   0  0  0  0  0  0  0  0  0  0  0  0
   13.6387    3.5568    0.0000 C   0  0  0  0  0  0  0  0  0  0  0  0
   13.4324    4.5353    0.0000 C   0  0  0  0  0  0  0  0  0  0  0  0
    5.4772    0.3166    0.0000 H   0  0  0  0  0  0  0  0  0  0  0  0
    4.8840   -0.2157    0.0000 H   0  0  0  0  0  0  0  0  0  0  0  0
    6.7664    1.4733    0.0000 H   0  0  0  0  0  0  0  0  0  0  0  0
    6.1731    0.9410    0.0000 H   0  0  0  0  0  0  0  0  0  0  0  0
    4.6402   -0.9616    0.0000 H   0  0  0  0  0  0  0  0  0  0  0  0
    4.8046   -1.7415    0.0000 H   0  0  0  0  0  0  0  0  0  0  0  0
    7.7860    0.4402    0.0000 H   0  0  0  0  0  0  0  0  0  0  0  0
    8.3793    0.9725    0.0000 H   0  0  0  0  0  0  0  0  0  0  0  0
    7.6910   -1.1332    0.0000 H   0  0  0  0  0  0  0  0  0  0  0  0
    7.5267   -0.3532    0.0000 H   0  0  0  0  0  0  0  0  0  0  0  0
    8.0556    2.6301    0.0000 H   0  0  0  0  0  0  0  0  0  0  0  0
    7.4623    2.0978    0.0000 H   0  0  0  0  0  0  0  0  0  0  0  0
    7.2475   -2.2531    0.0000 H   0  0  0  0  0  0  0  0  0  0  0  0
    9.0752    1.5970    0.0000 H   0  0  0  0  0  0  0  0  0  0  0  0
    9.6684    2.1293    0.0000 H   0  0  0  0  0  0  0  0  0  0  0  0
    9.3447    3.7868    0.0000 H   0  0  0  0  0  0  0  0  0  0  0  0
    8.7515    3.2545    0.0000 H   0  0  0  0  0  0  0  0  0  0  0  0
    6.7479   -3.7531    0.0000 H   0  0  0  0  0  0  0  0  0  0  0  0
    5.7369   -5.1472    0.0000 H   0  0  0  0  0  0  0  0  0  0  0  0
    3.7320   -2.1331    0.0000 H   0  0  0  0  0  0  0  0  0  0  0  0
    3.7320   -5.3731    0.0000 H   0  0  0  0  0  0  0  0  0  0  0  0
   13.0222    2.2823    0.0000 H   0  0  0  0  0  0  0  0  0  0  0  0
   12.3541    5.4526    0.0000 H   0  0  0  0  0  0  0  0  0  0  0  0
    2.3291   -4.5631    0.0000 H   0  0  0  0  0  0  0  0  0  0  0  0
   14.2280    3.3642    0.0000 H   0  0  0  0  0  0  0  0  0  0  0  0
   13.8939    4.9494    0.0000 H   0  0  0  0  0  0  0  0  0  0  0  0
  1 27  1  0  0  0  0
  2 21  2  0  0  0  0
  3 22  2  0  0  0  0
  4  7  1  0  0  0  0
  4  8  1  0  0  0  0
  4 11  1  0  0  0  0
  5 17  1  0  0  0  0
  5 21  1  0  0  0  0
  5 22  1  0  0  0  0
  6 19  1  0  0  0  0
  6 20  1  0  0  0  0
  6 51  1  0  0  0  0
  7  9  1  0  0  0  0
  7 33  1  0  0  0  0
  7 34  1  0  0  0  0
  8 10  1  0  0  0  0
  8 35  1  0  0  0  0
  8 36  1  0  0  0  0
  9 12  1  0  0  0  0
  9 37  1  0  0  0  0
  9 38  1  0  0  0  0
 10 13  1  0  0  0  0
 10 39  1  0  0  0  0
 10 40  1  0  0  0  0
 11 14  1  0  0  0  0
 11 41  1  0  0  0  0
 11 42  1  0  0  0  0
 12 14  2  0  0  0  0
 12 16  1  0  0  0  0
 13 15  1  0  0  0  0
 13 43  1  0  0  0  0
 13 44  1  0  0  0  0
 14 45  1  0  0  0  0
 15 17  1  0  0  0  0
 15 46  1  0  0  0  0
 15 47  1  0  0  0  0
 16 18  1  0  0  0  0
 16 19  2  0  0  0  0
 17 48  1  0  0  0  0
 17 49  1  0  0  0  0
 18 20  2  0  0  0  0
 18 25  1  0  0  0  0
 19 50  1  0  0  0  0
 20 26  1  0  0  0  0
 21 23  1  0  0  0  0
 22 24  1  0  0  0  0
 23 24  1  0  0  0  0
 23 28  2  0  0  0  0
 24 29  2  0  0  0  0
 25 27  2  0  0  0  0
 25 52  1  0  0  0  0
 26 30  2  0  0  0  0
 26 53  1  0  0  0  0
 27 30  1  0  0  0  0
 28 31  1  0  0  0  0
 28 54  1  0  0  0  0
 29 32  1  0  0  0  0
 29 55  1  0  0  0  0
 30 56  1  0  0  0  0
 31 32  2  0  0  0  0
 31 57  1  0  0  0  0
 32 58  1  0  0  0  0
M  END
> <PUBCHEM_COMPOUND_CID>
10455444

> <PUBCHEM_COMPOUND_CANONICALIZED>
1

> <PUBCHEM_CACTVS_COMPLEXITY>
717

> <PUBCHEM_CACTVS_HBOND_ACCEPTOR>
4

> <PUBCHEM_CACTVS_HBOND_DONOR>
1

> <PUBCHEM_CACTVS_ROTATABLE_BOND>
7

> <PUBCHEM_CACTVS_SUBSKEYS>
AAADceB7MQAAAAAAAAAAAAAAAAAAAWLAAAAwYIAAAAAAAFgB9AAAHwAQAAAADAjBngw8wPPJkACoAzV3VACCgCA1AiAI2aE4ZNgIIPLAlZGEIQhgliDIyYcdiMCOgAAAAAASAAAAAAAAACQAAAAAAAAAAA==

> <PUBCHEM_IUPAC_OPENEYE_NAME>
2-[5-[4-(5-fluoro-1H-indol-3-yl)-3,6-dihydro-2H-pyridin-1-yl]pentyl]isoindoline-1,3-dione

> <PUBCHEM_IUPAC_CAS_NAME>
2-[5-[4-(5-fluoro-1H-indol-3-yl)-3,6-dihydro-2H-pyridin-1-yl]pentyl]isoindole-1,3-dione

> <PUBCHEM_IUPAC_NAME_MARKUP>
2-[5-[4-(5-fluoro-1<I>H</I>-indol-3-yl)-3,6-dihydro-2<I>H</I>-pyridin-1-yl]pentyl]isoindole-1,3-dione

> <PUBCHEM_IUPAC_NAME>
2-[5-[4-(5-fluoro-1H-indol-3-yl)-3,6-dihydro-2H-pyridin-1-yl]pentyl]isoindole-1,3-dione

> <PUBCHEM_IUPAC_SYSTEMATIC_NAME>
2-[5-[4-(5-fluoranyl-1H-indol-3-yl)-3,6-dihydro-2H-pyridin-1-yl]pentyl]isoindole-1,3-dione

> <PUBCHEM_IUPAC_TRADITIONAL_NAME>
2-[5-[4-(5-fluoro-1H-indol-3-yl)-3,6-dihydro-2H-pyridin-1-yl]pentyl]isoindoline-1,3-quinone

> <PUBCHEM_IUPAC_INCHI>
InChI=1S/C26H26FN3O2/c27-19-8-9-24-22(16-19)23(17-28-24)18-10-14-29(15-11-18)12-4-1-5-13-30-25(31)20-6-2-3-7-21(20)26(30)32/h2-3,6-10,16-17,28H,1,4-5,11-15H2

> <PUBCHEM_IUPAC_INCHIKEY>
VURPIGYSDZFRHH-UHFFFAOYSA-N

> <PUBCHEM_XLOGP3_AA>
4.1

> <PUBCHEM_EXACT_MASS>
431.20090524

> <PUBCHEM_MOLECULAR_FORMULA>
C26H26FN3O2

> <PUBCHEM_MOLECULAR_WEIGHT>
431.5

> <PUBCHEM_OPENEYE_CAN_SMILES>
C1CN(CC=C1C2=CNC3=C2C=C(C=C3)F)CCCCCN4C(=O)C5=CC=CC=C5C4=O

> <PUBCHEM_OPENEYE_ISO_SMILES>
C1CN(CC=C1C2=CNC3=C2C=C(C=C3)F)CCCCCN4C(=O)C5=CC=CC=C5C4=O

> <PUBCHEM_CACTVS_TPSA>
56.4

> <PUBCHEM_MONOISOTOPIC_WEIGHT>
431.20090524

> <PUBCHEM_TOTAL_CHARGE>
0

> <PUBCHEM_HEAVY_ATOM_COUNT>
32

> <PUBCHEM_ATOM_DEF_STEREO_COUNT>
0

> <PUBCHEM_ATOM_UDEF_STEREO_COUNT>
0

> <PUBCHEM_BOND_DEF_STEREO_COUNT>
0

> <PUBCHEM_BOND_UDEF_STEREO_COUNT>
0

> <PUBCHEM_ISOTOPIC_ATOM_COUNT>
0

> <PUBCHEM_COMPONENT_COUNT>
1

> <PUBCHEM_CACTVS_TAUTO_COUNT>
-1

> <PUBCHEM_COORDINATE_TYPE>
1
5
255

> <PUBCHEM_BONDANNOTATIONS>
16  18  8
16  19  8
18  20  8
18  25  8
20  26  8
23  24  8
23  28  8
24  29  8
25  27  8
26  30  8
27  30  8
28  31  8
29  32  8
31  32  8
6  19  8
6  20  8

$$$$
