10621790
  -OEChem-09292322522D

 60 62  0     0  0  0  0  0  0999 V2000
    4.5981   -6.0000    0.0000 F   0  0  0  0  0  0  0  0  0  0  0  0
    2.8660   -3.0000    0.0000 O   0  0  0  0  0  0  0  0  0  0  0  0
    8.0622    3.0000    0.0000 O   0  0  0  0  0  0  0  0  0  0  0  0
    4.5981    0.0000    0.0000 N   0  0  0  0  0  0  0  0  0  0  0  0
    4.5981   -2.0000    0.0000 N   0  0  0  0  0  0  0  0  0  0  0  0
    6.3301    3.0000    0.0000 N   0  0  0  0  0  0  0  0  0  0  0  0
    5.4641    4.5000    0.0000 N   0  0  0  0  0  0  0  0  0  0  0  0
    8.9282    4.5000    0.0000 N   0  0  0  0  0  0  0  0  0  0  0  0
    5.4641   -0.5000    0.0000 C   0  0  0  0  0  0  0  0  0  0  0  0
    3.7320   -0.5000    0.0000 C   0  0  0  0  0  0  0  0  0  0  0  0
    5.4641   -1.5000    0.0000 C   0  0  0  0  0  0  0  0  0  0  0  0
    3.7320   -1.5000    0.0000 C   0  0  0  0  0  0  0  0  0  0  0  0
    4.5981    1.0000    0.0000 C   0  0  0  0  0  0  0  0  0  0  0  0
    5.4641    1.5000    0.0000 C   0  0  0  0  0  0  0  0  0  0  0  0
    4.5981   -3.0000    0.0000 C   0  0  0  0  0  0  0  0  0  0  0  0
    5.4641    2.5000    0.0000 C   0  0  0  0  0  0  0  0  0  0  0  0
    3.7320   -3.5000    0.0000 C   0  0  0  0  0  0  0  0  0  0  0  0
    5.4641   -3.5000    0.0000 C   0  0  0  0  0  0  0  0  0  0  0  0
    3.7320   -4.5000    0.0000 C   0  0  0  0  0  0  0  0  0  0  0  0
    5.4641   -4.5000    0.0000 C   0  0  0  0  0  0  0  0  0  0  0  0
    4.5981   -5.0000    0.0000 C   0  0  0  0  0  0  0  0  0  0  0  0
    6.3301    4.0000    0.0000 C   0  0  0  0  0  0  0  0  0  0  0  0
    7.1962    4.5000    0.0000 C   0  0  0  0  0  0  0  0  0  0  0  0
    2.0000   -3.5000    0.0000 C   0  0  0  0  0  0  0  0  0  0  0  0
    7.1962    5.5000    0.0000 C   0  0  0  0  0  0  0  0  0  0  0  0
    8.0622    4.0000    0.0000 C   0  0  0  0  0  0  0  0  0  0  0  0
    5.4641    5.5000    0.0000 C   0  0  0  0  0  0  0  0  0  0  0  0
    6.3301    6.0000    0.0000 C   0  0  0  0  0  0  0  0  0  0  0  0
    9.7942    4.0000    0.0000 C   0  0  0  0  0  0  0  0  0  0  0  0
    8.9282    5.5000    0.0000 C   0  0  0  0  0  0  0  0  0  0  0  0
    6.0747   -0.6077    0.0000 H   0  0  0  0  0  0  0  0  0  0  0  0
    5.6762    0.0826    0.0000 H   0  0  0  0  0  0  0  0  0  0  0  0
    3.5200    0.0826    0.0000 H   0  0  0  0  0  0  0  0  0  0  0  0
    3.1215   -0.6077    0.0000 H   0  0  0  0  0  0  0  0  0  0  0  0
    5.6762   -2.0826    0.0000 H   0  0  0  0  0  0  0  0  0  0  0  0
    6.0747   -1.3923    0.0000 H   0  0  0  0  0  0  0  0  0  0  0  0
    3.1215   -1.3923    0.0000 H   0  0  0  0  0  0  0  0  0  0  0  0
    3.5200   -2.0826    0.0000 H   0  0  0  0  0  0  0  0  0  0  0  0
    4.3860    1.5826    0.0000 H   0  0  0  0  0  0  0  0  0  0  0  0
    3.9875    0.8923    0.0000 H   0  0  0  0  0  0  0  0  0  0  0  0
    5.6762    0.9174    0.0000 H   0  0  0  0  0  0  0  0  0  0  0  0
    6.0747    1.6077    0.0000 H   0  0  0  0  0  0  0  0  0  0  0  0
    5.2520    3.0826    0.0000 H   0  0  0  0  0  0  0  0  0  0  0  0
    4.8535    2.3923    0.0000 H   0  0  0  0  0  0  0  0  0  0  0  0
    6.0010   -3.1900    0.0000 H   0  0  0  0  0  0  0  0  0  0  0  0
    6.8671    2.6900    0.0000 H   0  0  0  0  0  0  0  0  0  0  0  0
    3.1951   -4.8100    0.0000 H   0  0  0  0  0  0  0  0  0  0  0  0
    6.0010   -4.8100    0.0000 H   0  0  0  0  0  0  0  0  0  0  0  0
    1.6900   -2.9631    0.0000 H   0  0  0  0  0  0  0  0  0  0  0  0
    1.4631   -3.8100    0.0000 H   0  0  0  0  0  0  0  0  0  0  0  0
    2.3100   -4.0369    0.0000 H   0  0  0  0  0  0  0  0  0  0  0  0
    7.7331    5.8100    0.0000 H   0  0  0  0  0  0  0  0  0  0  0  0
    4.9272    5.8100    0.0000 H   0  0  0  0  0  0  0  0  0  0  0  0
    6.3301    6.6200    0.0000 H   0  0  0  0  0  0  0  0  0  0  0  0
    9.4842    3.4631    0.0000 H   0  0  0  0  0  0  0  0  0  0  0  0
   10.3312    3.6900    0.0000 H   0  0  0  0  0  0  0  0  0  0  0  0
   10.1042    4.5369    0.0000 H   0  0  0  0  0  0  0  0  0  0  0  0
    9.5482    5.5000    0.0000 H   0  0  0  0  0  0  0  0  0  0  0  0
    8.9282    6.1200    0.0000 H   0  0  0  0  0  0  0  0  0  0  0  0
    8.3082    5.5000    0.0000 H   0  0  0  0  0  0  0  0  0  0  0  0
  1 21  1  0  0  0  0
  2 17  1  0  0  0  0
  2 24  1  0  0  0  0
  3 26  2  0  0  0  0
  4  9  1  0  0  0  0
  4 10  1  0  0  0  0
  4 13  1  0  0  0  0
  5 11  1  0  0  0  0
  5 12  1  0  0  0  0
  5 15  1  0  0  0  0
  6 16  1  0  0  0  0
  6 22  1  0  0  0  0
  6 46  1  0  0  0  0
  7 22  1  0  0  0  0
  7 27  2  0  0  0  0
  8 26  1  0  0  0  0
  8 29  1  0  0  0  0
  8 30  1  0  0  0  0
  9 11  1  0  0  0  0
  9 31  1  0  0  0  0
  9 32  1  0  0  0  0
 10 12  1  0  0  0  0
 10 33  1  0  0  0  0
 10 34  1  0  0  0  0
 11 35  1  0  0  0  0
 11 36  1  0  0  0  0
 12 37  1  0  0  0  0
 12 38  1  0  0  0  0
 13 14  1  0  0  0  0
 13 39  1  0  0  0  0
 13 40  1  0  0  0  0
 14 16  1  0  0  0  0
 14 41  1  0  0  0  0
 14 42  1  0  0  0  0
 15 17  2  0  0  0  0
 15 18  1  0  0  0  0
 16 43  1  0  0  0  0
 16 44  1  0  0  0  0
 17 19  1  0  0  0  0
 18 20  2  0  0  0  0
 18 45  1  0  0  0  0
 19 21  2  0  0  0  0
 19 47  1  0  0  0  0
 20 21  1  0  0  0  0
 20 48  1  0  0  0  0
 22 23  2  0  0  0  0
 23 25  1  0  0  0  0
 23 26  1  0  0  0  0
 24 49  1  0  0  0  0
 24 50  1  0  0  0  0
 24 51  1  0  0  0  0
 25 28  2  0  0  0  0
 25 52  1  0  0  0  0
 27 28  1  0  0  0  0
 27 53  1  0  0  0  0
 28 54  1  0  0  0  0
 29 55  1  0  0  0  0
 29 56  1  0  0  0  0
 29 57  1  0  0  0  0
 30 58  1  0  0  0  0
 30 59  1  0  0  0  0
 30 60  1  0  0  0  0
M  END
> <PUBCHEM_COMPOUND_CID>
10621790

> <PUBCHEM_COMPOUND_CANONICALIZED>
1

> <PUBCHEM_CACTVS_COMPLEXITY>
530

> <PUBCHEM_CACTVS_HBOND_ACCEPTOR>
7

> <PUBCHEM_CACTVS_HBOND_DONOR>
1

> <PUBCHEM_CACTVS_ROTATABLE_BOND>
8

> <PUBCHEM_CACTVS_SUBSKEYS>
AAADceB7sQAAAAAAAAAAAAAAAAAAAAAAAAA8WIAAAAAAAAABwAAAHwAQAAAADAzBmg4/9pPIFACoAjd3dACCiCk1IiAJ2KE/bNiOZvrE/ZuVMahs0hPY6eeYQQAMAAAAAAAAEAAAAAAAAAAgAAAAAAAAAA==

> <PUBCHEM_IUPAC_OPENEYE_NAME>
2-[3-[4-(4-fluoro-2-methoxy-phenyl)piperazin-1-yl]propylamino]-N,N-dimethyl-pyridine-3-carboxamide

> <PUBCHEM_IUPAC_CAS_NAME>
2-[3-[4-(4-fluoro-2-methoxyphenyl)-1-piperazinyl]propylamino]-N,N-dimethyl-3-pyridinecarboxamide

> <PUBCHEM_IUPAC_NAME_MARKUP>
2-[3-[4-(4-fluoro-2-methoxyphenyl)piperazin-1-yl]propylamino]-<I>N</I>,<I>N</I>-dimethylpyridine-3-carboxamide

> <PUBCHEM_IUPAC_NAME>
2-[3-[4-(4-fluoro-2-methoxyphenyl)piperazin-1-yl]propylamino]-N,N-dimethylpyridine-3-carboxamide

> <PUBCHEM_IUPAC_SYSTEMATIC_NAME>
2-[3-[4-(4-fluoranyl-2-methoxy-phenyl)piperazin-1-yl]propylamino]-N,N-dimethyl-pyridine-3-carboxamide

> <PUBCHEM_IUPAC_TRADITIONAL_NAME>
2-[3-[4-(4-fluoro-2-methoxy-phenyl)piperazino]propylamino]-N,N-dimethyl-nicotinamide

> <PUBCHEM_IUPAC_INCHI>
InChI=1S/C22H30FN5O2/c1-26(2)22(29)18-6-4-9-24-21(18)25-10-5-11-27-12-14-28(15-13-27)19-8-7-17(23)16-20(19)30-3/h4,6-9,16H,5,10-15H2,1-3H3,(H,24,25)

> <PUBCHEM_IUPAC_INCHIKEY>
ONPBIKNDHFIIGZ-UHFFFAOYSA-N

> <PUBCHEM_XLOGP3_AA>
3.2

> <PUBCHEM_EXACT_MASS>
415.23835338

> <PUBCHEM_MOLECULAR_FORMULA>
C22H30FN5O2

> <PUBCHEM_MOLECULAR_WEIGHT>
415.5

> <PUBCHEM_OPENEYE_CAN_SMILES>
CN(C)C(=O)C1=C(N=CC=C1)NCCCN2CCN(CC2)C3=C(C=C(C=C3)F)OC

> <PUBCHEM_OPENEYE_ISO_SMILES>
CN(C)C(=O)C1=C(N=CC=C1)NCCCN2CCN(CC2)C3=C(C=C(C=C3)F)OC

> <PUBCHEM_CACTVS_TPSA>
60.9

> <PUBCHEM_MONOISOTOPIC_WEIGHT>
415.23835338

> <PUBCHEM_TOTAL_CHARGE>
0

> <PUBCHEM_HEAVY_ATOM_COUNT>
30

> <PUBCHEM_ATOM_DEF_STEREO_COUNT>
0

> <PUBCHEM_ATOM_UDEF_STEREO_COUNT>
0

> <PUBCHEM_BOND_DEF_STEREO_COUNT>
0

> <PUBCHEM_BOND_UDEF_STEREO_COUNT>
0

> <PUBCHEM_ISOTOPIC_ATOM_COUNT>
0

> <PUBCHEM_COMPONENT_COUNT>
1

> <PUBCHEM_CACTVS_TAUTO_COUNT>
-1

> <PUBCHEM_COORDINATE_TYPE>
1
5
255

> <PUBCHEM_BONDANNOTATIONS>
15  17  8
15  18  8
17  19  8
18  20  8
19  21  8
20  21  8
22  23  8
23  25  8
25  28  8
27  28  8
7  22  8
7  27  8

$$$$
