424430
  -OEChem-09292322262D

 42 45  0     1  0  0  0  0  0999 V2000
    9.9565   -0.2675    0.0000 O   0  0  0  0  0  0  0  0  0  0  0  0
    7.0547   -0.9584    0.0000 N   0  0  0  0  0  0  0  0  0  0  0  0
    4.5274    0.1658    0.0000 N   0  0  0  0  0  0  0  0  0  0  0  0
    6.3518   -0.1898    0.0000 C   0  0  3  0  0  0  0  0  0  0  0  0
    5.3364   -0.4220    0.0000 C   0  0  0  0  0  0  0  0  0  0  0  0
    5.0274   -1.3731    0.0000 C   0  0  0  0  0  0  0  0  0  0  0  0
    5.7123   -2.1578    0.0000 C   0  0  0  0  0  0  0  0  0  0  0  0
    6.7328   -1.9491    0.0000 C   0  0  0  0  0  0  0  0  0  0  0  0
    6.6498    0.7648    0.0000 C   0  0  0  0  0  0  0  0  0  0  0  0
    4.0274   -1.3731    0.0000 C   0  0  0  0  0  0  0  0  0  0  0  0
    3.7183   -0.4220    0.0000 C   0  0  0  0  0  0  0  0  0  0  0  0
    7.6255    0.9840    0.0000 C   0  0  0  0  0  0  0  0  0  0  0  0
    3.3424   -2.1578    0.0000 C   0  0  0  0  0  0  0  0  0  0  0  0
    2.7029   -0.1898    0.0000 C   0  0  0  0  0  0  0  0  0  0  0  0
    2.3219   -1.9491    0.0000 C   0  0  0  0  0  0  0  0  0  0  0  0
    2.0000   -0.9584    0.0000 C   0  0  0  0  0  0  0  0  0  0  0  0
    8.3031    0.2487    0.0000 C   0  0  0  0  0  0  0  0  0  0  0  0
    7.9235    1.9386    0.0000 C   0  0  0  0  0  0  0  0  0  0  0  0
    9.2788    0.4679    0.0000 C   0  0  0  0  0  0  0  0  0  0  0  0
    8.8991    2.1578    0.0000 C   0  0  0  0  0  0  0  0  0  0  0  0
    9.5768    1.4224    0.0000 C   0  0  0  0  0  0  0  0  0  0  0  0
   10.9322   -0.0483    0.0000 C   0  0  0  0  0  0  0  0  0  0  0  0
    6.9570   -0.0550    0.0000 H   0  0  0  0  0  0  0  0  0  0  0  0
    5.1824   -2.4796    0.0000 H   0  0  0  0  0  0  0  0  0  0  0  0
    5.9387   -2.7350    0.0000 H   0  0  0  0  0  0  0  0  0  0  0  0
    6.7513   -2.5688    0.0000 H   0  0  0  0  0  0  0  0  0  0  0  0
    7.3466   -2.0370    0.0000 H   0  0  0  0  0  0  0  0  0  0  0  0
    7.6607   -0.8272    0.0000 H   0  0  0  0  0  0  0  0  0  0  0  0
    6.6210    1.3841    0.0000 H   0  0  0  0  0  0  0  0  0  0  0  0
    6.0349    0.8440    0.0000 H   0  0  0  0  0  0  0  0  0  0  0  0
    4.5274    0.7858    0.0000 H   0  0  0  0  0  0  0  0  0  0  0  0
    3.5408   -2.7452    0.0000 H   0  0  0  0  0  0  0  0  0  0  0  0
    2.5182    0.4021    0.0000 H   0  0  0  0  0  0  0  0  0  0  0  0
    1.9088   -2.4114    0.0000 H   0  0  0  0  0  0  0  0  0  0  0  0
    8.1184   -0.3432    0.0000 H   0  0  0  0  0  0  0  0  0  0  0  0
    1.3940   -0.8272    0.0000 H   0  0  0  0  0  0  0  0  0  0  0  0
    7.5033    2.3945    0.0000 H   0  0  0  0  0  0  0  0  0  0  0  0
    9.0839    2.7496    0.0000 H   0  0  0  0  0  0  0  0  0  0  0  0
   10.1817    1.5583    0.0000 H   0  0  0  0  0  0  0  0  0  0  0  0
   11.0681   -0.6532    0.0000 H   0  0  0  0  0  0  0  0  0  0  0  0
   11.5371    0.0876    0.0000 H   0  0  0  0  0  0  0  0  0  0  0  0
   10.7963    0.5566    0.0000 H   0  0  0  0  0  0  0  0  0  0  0  0
  1 19  1  0  0  0  0
  1 22  1  0  0  0  0
  2  4  1  0  0  0  0
  2  8  1  0  0  0  0
  2 28  1  0  0  0  0
  3  5  1  0  0  0  0
  3 11  1  0  0  0  0
  3 31  1  0  0  0  0
  4  5  1  0  0  0  0
  4  9  1  0  0  0  0
  4 23  1  0  0  0  0
  5  6  2  0  0  0  0
  6  7  1  0  0  0  0
  6 10  1  0  0  0  0
  7  8  1  0  0  0  0
  7 24  1  0  0  0  0
  7 25  1  0  0  0  0
  8 26  1  0  0  0  0
  8 27  1  0  0  0  0
  9 12  1  0  0  0  0
  9 29  1  0  0  0  0
  9 30  1  0  0  0  0
 10 11  1  0  0  0  0
 10 13  2  0  0  0  0
 11 14  2  0  0  0  0
 12 17  2  0  0  0  0
 12 18  1  0  0  0  0
 13 15  1  0  0  0  0
 13 32  1  0  0  0  0
 14 16  1  0  0  0  0
 14 33  1  0  0  0  0
 15 16  2  0  0  0  0
 15 34  1  0  0  0  0
 16 36  1  0  0  0  0
 17 19  1  0  0  0  0
 17 35  1  0  0  0  0
 18 20  2  0  0  0  0
 18 37  1  0  0  0  0
 19 21  2  0  0  0  0
 20 21  1  0  0  0  0
 20 38  1  0  0  0  0
 21 39  1  0  0  0  0
 22 40  1  0  0  0  0
 22 41  1  0  0  0  0
 22 42  1  0  0  0  0
M  END
> <PUBCHEM_COMPOUND_CID>
424430

> <PUBCHEM_COMPOUND_CANONICALIZED>
1

> <PUBCHEM_CACTVS_COMPLEXITY>
374

> <PUBCHEM_CACTVS_HBOND_ACCEPTOR>
2

> <PUBCHEM_CACTVS_HBOND_DONOR>
2

> <PUBCHEM_CACTVS_ROTATABLE_BOND>
3

> <PUBCHEM_CACTVS_SUBSKEYS>
AAADceB7IAAAAAAAAAAAAAAAAAAAAWAAAAA8YIAAAAAAAFgB9AAAHgAQAAAADCzBngYyxvLJlACgAyRiRACCiCAhIiAImaA+bJgMZuLEsZuUMChk0BHI6AeQ0PMOgAABAAACAAAAAAIAAAQAAAAAAAAAAA==

> <PUBCHEM_IUPAC_OPENEYE_NAME>
1-[(3-methoxyphenyl)methyl]-2,3,4,9-tetrahydro-1H-pyrido[3,4-b]indole

> <PUBCHEM_IUPAC_CAS_NAME>
1-[(3-methoxyphenyl)methyl]-2,3,4,9-tetrahydro-1H-pyrido[3,4-b]indole

> <PUBCHEM_IUPAC_NAME_MARKUP>
1-[(3-methoxyphenyl)methyl]-2,3,4,9-tetrahydro-1<I>H</I>-pyrido[3,4-b]indole

> <PUBCHEM_IUPAC_NAME>
1-[(3-methoxyphenyl)methyl]-2,3,4,9-tetrahydro-1H-pyrido[3,4-b]indole

> <PUBCHEM_IUPAC_SYSTEMATIC_NAME>
1-[(3-methoxyphenyl)methyl]-2,3,4,9-tetrahydro-1H-pyrido[3,4-b]indole

> <PUBCHEM_IUPAC_TRADITIONAL_NAME>
1-m-anisyl-2,3,4,9-tetrahydro-1H-beta-carboline

> <PUBCHEM_IUPAC_INCHI>
InChI=1S/C19H20N2O/c1-22-14-6-4-5-13(11-14)12-18-19-16(9-10-20-18)15-7-2-3-8-17(15)21-19/h2-8,11,18,20-21H,9-10,12H2,1H3

> <PUBCHEM_IUPAC_INCHIKEY>
GVVVUTQKKBTPEY-UHFFFAOYSA-N

> <PUBCHEM_XLOGP3_AA>
3.4

> <PUBCHEM_EXACT_MASS>
292.157563266

> <PUBCHEM_MOLECULAR_FORMULA>
C19H20N2O

> <PUBCHEM_MOLECULAR_WEIGHT>
292.4

> <PUBCHEM_OPENEYE_CAN_SMILES>
COC1=CC=CC(=C1)CC2C3=C(CCN2)C4=CC=CC=C4N3

> <PUBCHEM_OPENEYE_ISO_SMILES>
COC1=CC=CC(=C1)CC2C3=C(CCN2)C4=CC=CC=C4N3

> <PUBCHEM_CACTVS_TPSA>
37

> <PUBCHEM_MONOISOTOPIC_WEIGHT>
292.157563266

> <PUBCHEM_TOTAL_CHARGE>
0

> <PUBCHEM_HEAVY_ATOM_COUNT>
22

> <PUBCHEM_ATOM_DEF_STEREO_COUNT>
0

> <PUBCHEM_ATOM_UDEF_STEREO_COUNT>
1

> <PUBCHEM_BOND_DEF_STEREO_COUNT>
0

> <PUBCHEM_BOND_UDEF_STEREO_COUNT>
0

> <PUBCHEM_ISOTOPIC_ATOM_COUNT>
0

> <PUBCHEM_COMPONENT_COUNT>
1

> <PUBCHEM_CACTVS_TAUTO_COUNT>
1

> <PUBCHEM_COORDINATE_TYPE>
1
5
255

> <PUBCHEM_BONDANNOTATIONS>
10  11  8
10  13  8
11  14  8
12  17  8
12  18  8
13  15  8
14  16  8
15  16  8
17  19  8
18  20  8
19  21  8
20  21  8
3  11  8
3  5  8
4  9  3
5  6  8
6  10  8

$$$$
