44415758
  -OEChem-09292322482D

 65 69  0     0  0  0  0  0  0999 V2000
    8.7204   -0.1839    0.0000 Cl  0  0  0  0  0  0  0  0  0  0  0  0
    4.0169   -4.0109    0.0000 Cl  0  0  0  0  0  0  0  0  0  0  0  0
    6.6150   -2.5109    0.0000 O   0  0  0  0  0  0  0  0  0  0  0  0
    3.0814    3.3827    0.0000 N   0  0  0  0  0  0  0  0  0  0  0  0
    3.9491    1.5808    0.0000 N   0  0  0  0  0  0  0  0  0  0  0  0
    5.3830    0.6798    0.0000 N   0  0  0  0  0  0  0  0  0  0  0  0
    4.8830   -1.5109    0.0000 N   0  0  0  0  0  0  0  0  0  0  0  0
    4.8830   -2.5109    0.0000 N   0  0  0  0  0  0  0  0  0  0  0  0
    2.5180    2.5565    0.0000 C   0  0  0  0  0  0  0  0  0  0  0  0
    4.0786    3.3080    0.0000 C   0  0  0  0  0  0  0  0  0  0  0  0
    2.9519    1.6555    0.0000 C   0  0  0  0  0  0  0  0  0  0  0  0
    4.5125    2.4070    0.0000 C   0  0  0  0  0  0  0  0  0  0  0  0
    2.6475    4.2837    0.0000 C   0  0  0  0  0  0  0  0  0  0  0  0
    3.2108    5.1099    0.0000 C   0  0  0  0  0  0  0  0  0  0  0  0
    4.3830    0.6798    0.0000 C   0  0  0  0  0  0  0  0  0  0  0  0
    3.7595   -0.1020    0.0000 C   0  0  0  0  0  0  0  0  0  0  0  0
    2.7769    6.0109    0.0000 C   0  0  0  0  0  0  0  0  0  0  0  0
    4.2080    5.0352    0.0000 C   0  0  0  0  0  0  0  0  0  0  0  0
    3.9820   -1.0770    0.0000 C   0  0  0  0  0  0  0  0  0  0  0  0
    6.0065   -0.1021    0.0000 C   0  0  0  0  0  0  0  0  0  0  0  0
    5.7840   -1.0770    0.0000 C   0  0  0  0  0  0  0  0  0  0  0  0
    2.7690    0.2203    0.0000 C   0  0  0  0  0  0  0  0  0  0  0  0
    3.2295   -1.7972    0.0000 C   0  0  0  0  0  0  0  0  0  0  0  0
    2.0000   -0.4823    0.0000 C   0  0  0  0  0  0  0  0  0  0  0  0
    2.2318   -1.4978    0.0000 C   0  0  0  0  0  0  0  0  0  0  0  0
    6.9970    0.2203    0.0000 C   0  0  0  0  0  0  0  0  0  0  0  0
    6.5365   -1.7972    0.0000 C   0  0  0  0  0  0  0  0  0  0  0  0
    7.7660   -0.4823    0.0000 C   0  0  0  0  0  0  0  0  0  0  0  0
    7.5342   -1.4978    0.0000 C   0  0  0  0  0  0  0  0  0  0  0  0
    5.7490   -3.0109    0.0000 C   0  0  0  0  0  0  0  0  0  0  0  0
    5.7490   -4.0109    0.0000 C   0  0  0  0  0  0  0  0  0  0  0  0
    4.8830   -4.5109    0.0000 C   0  0  0  0  0  0  0  0  0  0  0  0
    6.6150   -4.5109    0.0000 C   0  0  0  0  0  0  0  0  0  0  0  0
    4.8830   -5.5109    0.0000 C   0  0  0  0  0  0  0  0  0  0  0  0
    6.6150   -5.5109    0.0000 C   0  0  0  0  0  0  0  0  0  0  0  0
    5.7490   -6.0109    0.0000 C   0  0  0  0  0  0  0  0  0  0  0  0
    2.0742    2.9894    0.0000 H   0  0  0  0  0  0  0  0  0  0  0  0
    2.0146    2.1945    0.0000 H   0  0  0  0  0  0  0  0  0  0  0  0
    4.6754    3.4759    0.0000 H   0  0  0  0  0  0  0  0  0  0  0  0
    4.0168    3.9249    0.0000 H   0  0  0  0  0  0  0  0  0  0  0  0
    2.3551    1.4876    0.0000 H   0  0  0  0  0  0  0  0  0  0  0  0
    3.0137    1.0386    0.0000 H   0  0  0  0  0  0  0  0  0  0  0  0
    4.9563    1.9741    0.0000 H   0  0  0  0  0  0  0  0  0  0  0  0
    5.0159    2.7689    0.0000 H   0  0  0  0  0  0  0  0  0  0  0  0
    2.2037    4.7166    0.0000 H   0  0  0  0  0  0  0  0  0  0  0  0
    2.1441    3.9218    0.0000 H   0  0  0  0  0  0  0  0  0  0  0  0
    2.5926    5.1562    0.0000 H   0  0  0  0  0  0  0  0  0  0  0  0
    3.3356    6.2799    0.0000 H   0  0  0  0  0  0  0  0  0  0  0  0
    2.5080    6.5695    0.0000 H   0  0  0  0  0  0  0  0  0  0  0  0
    2.2184    5.7419    0.0000 H   0  0  0  0  0  0  0  0  0  0  0  0
    4.1617    4.4169    0.0000 H   0  0  0  0  0  0  0  0  0  0  0  0
    4.8263    4.9888    0.0000 H   0  0  0  0  0  0  0  0  0  0  0  0
    4.2544    5.6534    0.0000 H   0  0  0  0  0  0  0  0  0  0  0  0
    2.6380    0.8263    0.0000 H   0  0  0  0  0  0  0  0  0  0  0  0
    3.3744   -2.4000    0.0000 H   0  0  0  0  0  0  0  0  0  0  0  0
    1.4083   -0.2972    0.0000 H   0  0  0  0  0  0  0  0  0  0  0  0
    7.1280    0.8263    0.0000 H   0  0  0  0  0  0  0  0  0  0  0  0
    1.7789   -1.9212    0.0000 H   0  0  0  0  0  0  0  0  0  0  0  0
    6.3916   -2.4000    0.0000 H   0  0  0  0  0  0  0  0  0  0  0  0
    4.3460   -2.8209    0.0000 H   0  0  0  0  0  0  0  0  0  0  0  0
    7.9871   -1.9213    0.0000 H   0  0  0  0  0  0  0  0  0  0  0  0
    7.1520   -4.2009    0.0000 H   0  0  0  0  0  0  0  0  0  0  0  0
    4.3460   -5.8209    0.0000 H   0  0  0  0  0  0  0  0  0  0  0  0
    7.1520   -5.8209    0.0000 H   0  0  0  0  0  0  0  0  0  0  0  0
    5.7490   -6.6309    0.0000 H   0  0  0  0  0  0  0  0  0  0  0  0
  1 28  1  0  0  0  0
  2 32  1  0  0  0  0
  3 30  2  0  0  0  0
  4  9  1  0  0  0  0
  4 10  1  0  0  0  0
  4 13  1  0  0  0  0
  5 11  1  0  0  0  0
  5 12  1  0  0  0  0
  5 15  1  0  0  0  0
  6 15  2  0  0  0  0
  6 20  1  0  0  0  0
  7  8  1  0  0  0  0
  7 19  1  0  0  0  0
  7 21  1  0  0  0  0
  8 30  1  0  0  0  0
  8 60  1  0  0  0  0
  9 11  1  0  0  0  0
  9 37  1  0  0  0  0
  9 38  1  0  0  0  0
 10 12  1  0  0  0  0
 10 39  1  0  0  0  0
 10 40  1  0  0  0  0
 11 41  1  0  0  0  0
 11 42  1  0  0  0  0
 12 43  1  0  0  0  0
 12 44  1  0  0  0  0
 13 14  1  0  0  0  0
 13 45  1  0  0  0  0
 13 46  1  0  0  0  0
 14 17  1  0  0  0  0
 14 18  1  0  0  0  0
 14 47  1  0  0  0  0
 15 16  1  0  0  0  0
 16 19  1  0  0  0  0
 16 22  2  0  0  0  0
 17 48  1  0  0  0  0
 17 49  1  0  0  0  0
 17 50  1  0  0  0  0
 18 51  1  0  0  0  0
 18 52  1  0  0  0  0
 18 53  1  0  0  0  0
 19 23  2  0  0  0  0
 20 21  2  0  0  0  0
 20 26  1  0  0  0  0
 21 27  1  0  0  0  0
 22 24  1  0  0  0  0
 22 54  1  0  0  0  0
 23 25  1  0  0  0  0
 23 55  1  0  0  0  0
 24 25  2  0  0  0  0
 24 56  1  0  0  0  0
 25 58  1  0  0  0  0
 26 28  2  0  0  0  0
 26 57  1  0  0  0  0
 27 29  2  0  0  0  0
 27 59  1  0  0  0  0
 28 29  1  0  0  0  0
 29 61  1  0  0  0  0
 30 31  1  0  0  0  0
 31 32  1  0  0  0  0
 31 33  2  0  0  0  0
 32 34  2  0  0  0  0
 33 35  1  0  0  0  0
 33 62  1  0  0  0  0
 34 36  1  0  0  0  0
 34 63  1  0  0  0  0
 35 36  2  0  0  0  0
 35 64  1  0  0  0  0
 36 65  1  0  0  0  0
M  END
> <PUBCHEM_COMPOUND_CID>
44415758

> <PUBCHEM_COMPOUND_CANONICALIZED>
1

> <PUBCHEM_CACTVS_COMPLEXITY>
786

> <PUBCHEM_CACTVS_HBOND_ACCEPTOR>
4

> <PUBCHEM_CACTVS_HBOND_DONOR>
1

> <PUBCHEM_CACTVS_ROTATABLE_BOND>
5

> <PUBCHEM_CACTVS_SUBSKEYS>
AAADceB7oAAGAAAAAAAAAAAAAAAAAAAAAAA8YMEABAAAAAABUAAAHgIYAAAADQrBmCQzwINiAACoAidydACCBAElBwAbqAEodtgIYPLB35GUIQhggADIzYcYiACOAABAAAIDACAAAIAABAYAQAAAAAAAAA==

> <PUBCHEM_IUPAC_OPENEYE_NAME>
2-chloro-N-[3-chloro-6-(4-isobutylpiperazin-1-yl)benzo[b][1,4]benzodiazepin-11-yl]benzamide

> <PUBCHEM_IUPAC_CAS_NAME>
2-chloro-N-[3-chloro-6-[4-(2-methylpropyl)-1-piperazinyl]-11-benzo[b][1,4]benzodiazepinyl]benzamide

> <PUBCHEM_IUPAC_NAME_MARKUP>
2-chloro-<I>N</I>-[3-chloro-6-[4-(2-methylpropyl)piperazin-1-yl]benzo[b][1,4]benzodiazepin-11-yl]benzamide

> <PUBCHEM_IUPAC_NAME>
2-chloro-N-[3-chloro-6-[4-(2-methylpropyl)piperazin-1-yl]benzo[b][1,4]benzodiazepin-11-yl]benzamide

> <PUBCHEM_IUPAC_SYSTEMATIC_NAME>
2-chloranyl-N-[3-chloranyl-6-[4-(2-methylpropyl)piperazin-1-yl]benzo[b][1,4]benzodiazepin-11-yl]benzamide

> <PUBCHEM_IUPAC_TRADITIONAL_NAME>
2-chloro-N-[3-chloro-6-(4-isobutylpiperazino)benzo[b][1,4]benzodiazepin-11-yl]benzamide

> <PUBCHEM_IUPAC_INCHI>
InChI=1S/C28H29Cl2N5O/c1-19(2)18-33-13-15-34(16-14-33)27-22-8-4-6-10-25(22)35(26-12-11-20(29)17-24(26)31-27)32-28(36)21-7-3-5-9-23(21)30/h3-12,17,19H,13-16,18H2,1-2H3,(H,32,36)

> <PUBCHEM_IUPAC_INCHIKEY>
ATMSNHXEYRRTQU-UHFFFAOYSA-N

> <PUBCHEM_XLOGP3_AA>
6.3

> <PUBCHEM_EXACT_MASS>
521.1749160

> <PUBCHEM_MOLECULAR_FORMULA>
C28H29Cl2N5O

> <PUBCHEM_MOLECULAR_WEIGHT>
522.5

> <PUBCHEM_OPENEYE_CAN_SMILES>
CC(C)CN1CCN(CC1)C2=NC3=C(C=CC(=C3)Cl)N(C4=CC=CC=C42)NC(=O)C5=CC=CC=C5Cl

> <PUBCHEM_OPENEYE_ISO_SMILES>
CC(C)CN1CCN(CC1)C2=NC3=C(C=CC(=C3)Cl)N(C4=CC=CC=C42)NC(=O)C5=CC=CC=C5Cl

> <PUBCHEM_CACTVS_TPSA>
51.2

> <PUBCHEM_MONOISOTOPIC_WEIGHT>
521.1749160

> <PUBCHEM_TOTAL_CHARGE>
0

> <PUBCHEM_HEAVY_ATOM_COUNT>
36

> <PUBCHEM_ATOM_DEF_STEREO_COUNT>
0

> <PUBCHEM_ATOM_UDEF_STEREO_COUNT>
0

> <PUBCHEM_BOND_DEF_STEREO_COUNT>
0

> <PUBCHEM_BOND_UDEF_STEREO_COUNT>
0

> <PUBCHEM_ISOTOPIC_ATOM_COUNT>
0

> <PUBCHEM_COMPONENT_COUNT>
1

> <PUBCHEM_CACTVS_TAUTO_COUNT>
-1

> <PUBCHEM_COORDINATE_TYPE>
1
5
255

> <PUBCHEM_BONDANNOTATIONS>
16  19  8
16  22  8
19  23  8
20  21  8
20  26  8
21  27  8
22  24  8
23  25  8
24  25  8
26  28  8
27  29  8
28  29  8
31  32  8
31  33  8
32  34  8
33  35  8
34  36  8
35  36  8

$$$$
