46882051
  -OEChem-09292322022D

 49 51  0     0  0  0  0  0  0999 V2000
    3.0990   -2.2634    0.0000 F   0  0  0  0  0  0  0  0  0  0  0  0
    2.0000   -3.1534    0.0000 F   0  0  0  0  0  0  0  0  0  0  0  0
    2.8900   -4.2524    0.0000 F   0  0  0  0  0  0  0  0  0  0  0  0
    4.8991   -0.5889    0.0000 O   0  0  0  0  0  0  0  0  0  0  0  0
    7.5252    2.1899    0.0000 N   0  0  0  0  0  0  0  0  0  0  0  0
    6.6591   -0.3101    0.0000 N   0  0  0  0  0  0  0  0  0  0  0  0
    6.1591   -1.8490    0.0000 N   0  0  0  0  0  0  0  0  0  0  0  0
    6.6242    2.6238    0.0000 C   0  0  0  0  0  0  0  0  0  0  0  0
    8.4261    2.6238    0.0000 C   0  0  0  0  0  0  0  0  0  0  0  0
    7.5252    1.1899    0.0000 C   0  0  0  0  0  0  0  0  0  0  0  0
    6.4017    3.5987    0.0000 C   0  0  0  0  0  0  0  0  0  0  0  0
    8.6486    3.5987    0.0000 C   0  0  0  0  0  0  0  0  0  0  0  0
    7.0252    4.3805    0.0000 C   0  0  0  0  0  0  0  0  0  0  0  0
    8.0252    4.3805    0.0000 C   0  0  0  0  0  0  0  0  0  0  0  0
    6.6591    0.6899    0.0000 C   0  0  0  0  0  0  0  0  0  0  0  0
    7.4682   -0.8979    0.0000 C   0  0  0  0  0  0  0  0  0  0  0  0
    7.1591   -1.8490    0.0000 C   0  0  0  0  0  0  0  0  0  0  0  0
    5.8501   -0.8979    0.0000 C   0  0  0  0  0  0  0  0  0  0  0  0
    5.5714   -2.6580    0.0000 C   0  0  0  0  0  0  0  0  0  0  0  0
    4.5768   -2.5534    0.0000 C   0  0  0  0  0  0  0  0  0  0  0  0
    5.9781   -3.5715    0.0000 C   0  0  0  0  0  0  0  0  0  0  0  0
    3.9890   -3.3625    0.0000 C   0  0  0  0  0  0  0  0  0  0  0  0
    5.3903   -4.3805    0.0000 C   0  0  0  0  0  0  0  0  0  0  0  0
    4.3958   -4.2760    0.0000 C   0  0  0  0  0  0  0  0  0  0  0  0
    2.9945   -3.2579    0.0000 C   0  0  0  0  0  0  0  0  0  0  0  0
    6.0042    2.6238    0.0000 H   0  0  0  0  0  0  0  0  0  0  0  0
    6.4862    2.0193    0.0000 H   0  0  0  0  0  0  0  0  0  0  0  0
    8.5641    2.0193    0.0000 H   0  0  0  0  0  0  0  0  0  0  0  0
    9.0461    2.6238    0.0000 H   0  0  0  0  0  0  0  0  0  0  0  0
    7.7372    0.6073    0.0000 H   0  0  0  0  0  0  0  0  0  0  0  0
    8.1357    1.2976    0.0000 H   0  0  0  0  0  0  0  0  0  0  0  0
    6.0151    4.0834    0.0000 H   0  0  0  0  0  0  0  0  0  0  0  0
    5.8431    3.3297    0.0000 H   0  0  0  0  0  0  0  0  0  0  0  0
    9.2072    3.3297    0.0000 H   0  0  0  0  0  0  0  0  0  0  0  0
    9.0352    4.0834    0.0000 H   0  0  0  0  0  0  0  0  0  0  0  0
    7.1631    4.9850    0.0000 H   0  0  0  0  0  0  0  0  0  0  0  0
    6.4666    4.6495    0.0000 H   0  0  0  0  0  0  0  0  0  0  0  0
    8.5838    4.6495    0.0000 H   0  0  0  0  0  0  0  0  0  0  0  0
    7.8872    4.9850    0.0000 H   0  0  0  0  0  0  0  0  0  0  0  0
    6.4471    1.2725    0.0000 H   0  0  0  0  0  0  0  0  0  0  0  0
    6.0486    0.5822    0.0000 H   0  0  0  0  0  0  0  0  0  0  0  0
    8.0346   -1.1501    0.0000 H   0  0  0  0  0  0  0  0  0  0  0  0
    7.7782   -0.3610    0.0000 H   0  0  0  0  0  0  0  0  0  0  0  0
    7.0943   -2.4656    0.0000 H   0  0  0  0  0  0  0  0  0  0  0  0
    7.7656   -1.9779    0.0000 H   0  0  0  0  0  0  0  0  0  0  0  0
    4.3246   -1.9870    0.0000 H   0  0  0  0  0  0  0  0  0  0  0  0
    6.5947   -3.6363    0.0000 H   0  0  0  0  0  0  0  0  0  0  0  0
    5.6425   -4.9469    0.0000 H   0  0  0  0  0  0  0  0  0  0  0  0
    4.0314   -4.7776    0.0000 H   0  0  0  0  0  0  0  0  0  0  0  0
  1 25  1  0  0  0  0
  2 25  1  0  0  0  0
  3 25  1  0  0  0  0
  4 18  2  0  0  0  0
  5  8  1  0  0  0  0
  5  9  1  0  0  0  0
  5 10  1  0  0  0  0
  6 15  1  0  0  0  0
  6 16  1  0  0  0  0
  6 18  1  0  0  0  0
  7 17  1  0  0  0  0
  7 18  1  0  0  0  0
  7 19  1  0  0  0  0
  8 11  1  0  0  0  0
  8 26  1  0  0  0  0
  8 27  1  0  0  0  0
  9 12  1  0  0  0  0
  9 28  1  0  0  0  0
  9 29  1  0  0  0  0
 10 15  1  0  0  0  0
 10 30  1  0  0  0  0
 10 31  1  0  0  0  0
 11 13  1  0  0  0  0
 11 32  1  0  0  0  0
 11 33  1  0  0  0  0
 12 14  1  0  0  0  0
 12 34  1  0  0  0  0
 12 35  1  0  0  0  0
 13 14  1  0  0  0  0
 13 36  1  0  0  0  0
 13 37  1  0  0  0  0
 14 38  1  0  0  0  0
 14 39  1  0  0  0  0
 15 40  1  0  0  0  0
 15 41  1  0  0  0  0
 16 17  1  0  0  0  0
 16 42  1  0  0  0  0
 16 43  1  0  0  0  0
 17 44  1  0  0  0  0
 17 45  1  0  0  0  0
 19 20  1  0  0  0  0
 19 21  2  0  0  0  0
 20 22  2  0  0  0  0
 20 46  1  0  0  0  0
 21 23  1  0  0  0  0
 21 47  1  0  0  0  0
 22 24  1  0  0  0  0
 22 25  1  0  0  0  0
 23 24  2  0  0  0  0
 23 48  1  0  0  0  0
 24 49  1  0  0  0  0
M  END
> <PUBCHEM_COMPOUND_CID>
46882051

> <PUBCHEM_COMPOUND_CANONICALIZED>
1

> <PUBCHEM_CACTVS_COMPLEXITY>
449

> <PUBCHEM_CACTVS_HBOND_ACCEPTOR>
5

> <PUBCHEM_CACTVS_HBOND_DONOR>
0

> <PUBCHEM_CACTVS_ROTATABLE_BOND>
4

> <PUBCHEM_CACTVS_SUBSKEYS>
AAADceB7IYAAAAAAAAAAAAAAAAAAAWAAAAAwAAAABYAAAAABAAAAHwAAAAAADAjBGBQxwIMAAACIAiRCUACCAAAhAgAIiAAIZIiIYCLAkZGUIAhohgLIyCcQgAAOAAAAQAAAAAAAAACAAAAAAAAAAAAAAA==

> <PUBCHEM_IUPAC_OPENEYE_NAME>
1-[2-(azepan-1-yl)ethyl]-3-[3-(trifluoromethyl)phenyl]imidazolidin-2-one

> <PUBCHEM_IUPAC_CAS_NAME>
1-[2-(1-azepanyl)ethyl]-3-[3-(trifluoromethyl)phenyl]-2-imidazolidinone

> <PUBCHEM_IUPAC_NAME_MARKUP>
1-[2-(azepan-1-yl)ethyl]-3-[3-(trifluoromethyl)phenyl]imidazolidin-2-one

> <PUBCHEM_IUPAC_NAME>
1-[2-(azepan-1-yl)ethyl]-3-[3-(trifluoromethyl)phenyl]imidazolidin-2-one

> <PUBCHEM_IUPAC_SYSTEMATIC_NAME>
1-[2-(azepan-1-yl)ethyl]-3-[3-(trifluoromethyl)phenyl]imidazolidin-2-one

> <PUBCHEM_IUPAC_TRADITIONAL_NAME>
1-[2-(azepan-1-yl)ethyl]-3-[3-(trifluoromethyl)phenyl]-2-imidazolidinone

> <PUBCHEM_IUPAC_INCHI>
InChI=1S/C18H24F3N3O/c19-18(20,21)15-6-5-7-16(14-15)24-13-12-23(17(24)25)11-10-22-8-3-1-2-4-9-22/h5-7,14H,1-4,8-13H2

> <PUBCHEM_IUPAC_INCHIKEY>
GPOXSHFDBBJUJR-UHFFFAOYSA-N

> <PUBCHEM_XLOGP3_AA>
3.2

> <PUBCHEM_EXACT_MASS>
355.18714688

> <PUBCHEM_MOLECULAR_FORMULA>
C18H24F3N3O

> <PUBCHEM_MOLECULAR_WEIGHT>
355.4

> <PUBCHEM_OPENEYE_CAN_SMILES>
C1CCCN(CC1)CCN2CCN(C2=O)C3=CC=CC(=C3)C(F)(F)F

> <PUBCHEM_OPENEYE_ISO_SMILES>
C1CCCN(CC1)CCN2CCN(C2=O)C3=CC=CC(=C3)C(F)(F)F

> <PUBCHEM_CACTVS_TPSA>
26.8

> <PUBCHEM_MONOISOTOPIC_WEIGHT>
355.18714688

> <PUBCHEM_TOTAL_CHARGE>
0

> <PUBCHEM_HEAVY_ATOM_COUNT>
25

> <PUBCHEM_ATOM_DEF_STEREO_COUNT>
0

> <PUBCHEM_ATOM_UDEF_STEREO_COUNT>
0

> <PUBCHEM_BOND_DEF_STEREO_COUNT>
0

> <PUBCHEM_BOND_UDEF_STEREO_COUNT>
0

> <PUBCHEM_ISOTOPIC_ATOM_COUNT>
0

> <PUBCHEM_COMPONENT_COUNT>
1

> <PUBCHEM_CACTVS_TAUTO_COUNT>
-1

> <PUBCHEM_COORDINATE_TYPE>
1
5
255

> <PUBCHEM_BONDANNOTATIONS>
19  20  8
19  21  8
20  22  8
21  23  8
22  24  8
23  24  8

$$$$
