44350861
  -OEChem-09292322112D

 70 72  0     0  0  0  0  0  0999 V2000
    1.4030    3.6200    0.0000 O   0  0  0  0  0  0  0  0  0  0  0  0
    9.1972    5.1200    0.0000 O   0  0  0  0  0  0  0  0  0  0  0  0
    8.7976    9.2853    0.0000 O   0  0  0  0  0  0  0  0  0  0  0  0
    6.1995    9.7853    0.0000 O   0  0  0  0  0  0  0  0  0  0  0  0
    7.9315   10.7853    0.0000 O   0  0  0  0  0  0  0  0  0  0  0  0
    7.0655    8.2853    0.0000 O   0  0  0  0  0  0  0  0  0  0  0  0
    4.8671    3.6200    0.0000 N   0  0  0  0  0  0  0  0  0  0  0  0
    3.1350    2.6200    0.0000 N   0  0  0  0  0  0  0  0  0  0  0  0
    8.3312    3.6200    0.0000 N   0  0  0  0  0  0  0  0  0  0  0  0
    4.8671    2.6200    0.0000 C   0  0  0  0  0  0  0  0  0  0  0  0
    4.0010    4.1200    0.0000 C   0  0  0  0  0  0  0  0  0  0  0  0
    4.0010    2.1200    0.0000 C   0  0  0  0  0  0  0  0  0  0  0  0
    3.1350    3.6200    0.0000 C   0  0  0  0  0  0  0  0  0  0  0  0
    5.7331    4.1200    0.0000 C   0  0  0  0  0  0  0  0  0  0  0  0
    6.5991    3.6200    0.0000 C   0  0  0  0  0  0  0  0  0  0  0  0
    2.2690    2.1200    0.0000 C   0  0  0  0  0  0  0  0  0  0  0  0
    7.4651    4.1200    0.0000 C   0  0  0  0  0  0  0  0  0  0  0  0
    1.4030    2.6200    0.0000 C   0  0  0  0  0  0  0  0  0  0  0  0
    2.2690    1.1200    0.0000 C   0  0  0  0  0  0  0  0  0  0  0  0
    0.5369    2.1200    0.0000 C   0  0  0  0  0  0  0  0  0  0  0  0
    1.4030    0.6200    0.0000 C   0  0  0  0  0  0  0  0  0  0  0  0
    0.5369    1.1200    0.0000 C   0  0  0  0  0  0  0  0  0  0  0  0
    9.1972    4.1200    0.0000 C   0  0  0  0  0  0  0  0  0  0  0  0
   10.0632    3.6200    0.0000 C   0  0  0  0  0  0  0  0  0  0  0  0
   10.9292    4.1200    0.0000 C   0  0  0  0  0  0  0  0  0  0  0  0
    0.5369    4.1200    0.0000 C   0  0  0  0  0  0  0  0  0  0  0  0
   11.7953    3.6200    0.0000 C   0  0  0  0  0  0  0  0  0  0  0  0
   12.6613    4.1200    0.0000 C   0  0  0  0  0  0  0  0  0  0  0  0
   10.9292    5.1200    0.0000 C   0  0  0  0  0  0  0  0  0  0  0  0
   12.6613    5.1200    0.0000 C   0  0  0  0  0  0  0  0  0  0  0  0
   11.7953    5.6200    0.0000 C   0  0  0  0  0  0  0  0  0  0  0  0
   13.5552    3.5853    0.0000 C   0  0  0  0  0  0  0  0  0  0  0  0
   13.5552    5.6547    0.0000 C   0  0  0  0  0  0  0  0  0  0  0  0
   14.4613    4.0992    0.0000 C   0  0  0  0  0  0  0  0  0  0  0  0
   14.4613    5.1408    0.0000 C   0  0  0  0  0  0  0  0  0  0  0  0
    7.9315    9.7853    0.0000 C   0  0  0  0  0  0  0  0  0  0  0  0
    7.0655    9.2853    0.0000 C   0  0  0  0  0  0  0  0  0  0  0  0
    5.0791    2.0374    0.0000 H   0  0  0  0  0  0  0  0  0  0  0  0
    5.4776    2.7277    0.0000 H   0  0  0  0  0  0  0  0  0  0  0  0
    4.3996    4.5950    0.0000 H   0  0  0  0  0  0  0  0  0  0  0  0
    3.6025    4.5950    0.0000 H   0  0  0  0  0  0  0  0  0  0  0  0
    3.6025    1.6450    0.0000 H   0  0  0  0  0  0  0  0  0  0  0  0
    4.3996    1.6450    0.0000 H   0  0  0  0  0  0  0  0  0  0  0  0
    2.9230    4.2026    0.0000 H   0  0  0  0  0  0  0  0  0  0  0  0
    2.5244    3.5123    0.0000 H   0  0  0  0  0  0  0  0  0  0  0  0
    6.1316    4.5950    0.0000 H   0  0  0  0  0  0  0  0  0  0  0  0
    5.3346    4.5950    0.0000 H   0  0  0  0  0  0  0  0  0  0  0  0
    6.2006    3.1450    0.0000 H   0  0  0  0  0  0  0  0  0  0  0  0
    6.9976    3.1450    0.0000 H   0  0  0  0  0  0  0  0  0  0  0  0
    7.8637    4.5950    0.0000 H   0  0  0  0  0  0  0  0  0  0  0  0
    7.0666    4.5950    0.0000 H   0  0  0  0  0  0  0  0  0  0  0  0
    2.8059    0.8100    0.0000 H   0  0  0  0  0  0  0  0  0  0  0  0
    8.3312    3.0000    0.0000 H   0  0  0  0  0  0  0  0  0  0  0  0
    0.0000    2.4300    0.0000 H   0  0  0  0  0  0  0  0  0  0  0  0
    1.4030    0.0000    0.0000 H   0  0  0  0  0  0  0  0  0  0  0  0
    0.0000    0.8100    0.0000 H   0  0  0  0  0  0  0  0  0  0  0  0
    9.6647    3.1450    0.0000 H   0  0  0  0  0  0  0  0  0  0  0  0
   10.4617    3.1450    0.0000 H   0  0  0  0  0  0  0  0  0  0  0  0
    0.8469    4.6569    0.0000 H   0  0  0  0  0  0  0  0  0  0  0  0
    0.0000    4.4300    0.0000 H   0  0  0  0  0  0  0  0  0  0  0  0
    0.2269    3.5831    0.0000 H   0  0  0  0  0  0  0  0  0  0  0  0
   11.7953    3.0000    0.0000 H   0  0  0  0  0  0  0  0  0  0  0  0
   10.3923    5.4300    0.0000 H   0  0  0  0  0  0  0  0  0  0  0  0
   11.7953    6.2400    0.0000 H   0  0  0  0  0  0  0  0  0  0  0  0
   13.5481    2.9654    0.0000 H   0  0  0  0  0  0  0  0  0  0  0  0
   13.5481    6.2746    0.0000 H   0  0  0  0  0  0  0  0  0  0  0  0
   14.9970    3.7871    0.0000 H   0  0  0  0  0  0  0  0  0  0  0  0
   14.9970    5.4529    0.0000 H   0  0  0  0  0  0  0  0  0  0  0  0
    9.3345    9.5953    0.0000 H   0  0  0  0  0  0  0  0  0  0  0  0
    5.6625    9.4753    0.0000 H   0  0  0  0  0  0  0  0  0  0  0  0
  1 18  1  0  0  0  0
  1 26  1  0  0  0  0
  2 23  2  0  0  0  0
  3 36  1  0  0  0  0
  3 69  1  0  0  0  0
  4 37  1  0  0  0  0
  4 70  1  0  0  0  0
  5 36  2  0  0  0  0
  6 37  2  0  0  0  0
  7 10  1  0  0  0  0
  7 11  1  0  0  0  0
  7 14  1  0  0  0  0
  8 12  1  0  0  0  0
  8 13  1  0  0  0  0
  8 16  1  0  0  0  0
  9 17  1  0  0  0  0
  9 23  1  0  0  0  0
  9 53  1  0  0  0  0
 10 12  1  0  0  0  0
 10 38  1  0  0  0  0
 10 39  1  0  0  0  0
 11 13  1  0  0  0  0
 11 40  1  0  0  0  0
 11 41  1  0  0  0  0
 12 42  1  0  0  0  0
 12 43  1  0  0  0  0
 13 44  1  0  0  0  0
 13 45  1  0  0  0  0
 14 15  1  0  0  0  0
 14 46  1  0  0  0  0
 14 47  1  0  0  0  0
 15 17  1  0  0  0  0
 15 48  1  0  0  0  0
 15 49  1  0  0  0  0
 16 18  1  0  0  0  0
 16 19  2  0  0  0  0
 17 50  1  0  0  0  0
 17 51  1  0  0  0  0
 18 20  2  0  0  0  0
 19 21  1  0  0  0  0
 19 52  1  0  0  0  0
 20 22  1  0  0  0  0
 20 54  1  0  0  0  0
 21 22  2  0  0  0  0
 21 55  1  0  0  0  0
 22 56  1  0  0  0  0
 23 24  1  0  0  0  0
 24 25  1  0  0  0  0
 24 57  1  0  0  0  0
 24 58  1  0  0  0  0
 25 27  2  0  0  0  0
 25 29  1  0  0  0  0
 26 59  1  0  0  0  0
 26 60  1  0  0  0  0
 26 61  1  0  0  0  0
 27 28  1  0  0  0  0
 27 62  1  0  0  0  0
 28 30  1  0  0  0  0
 28 32  2  0  0  0  0
 29 31  2  0  0  0  0
 29 63  1  0  0  0  0
 30 31  1  0  0  0  0
 30 33  2  0  0  0  0
 31 64  1  0  0  0  0
 32 34  1  0  0  0  0
 32 65  1  0  0  0  0
 33 35  1  0  0  0  0
 33 66  1  0  0  0  0
 34 35  2  0  0  0  0
 34 67  1  0  0  0  0
 35 68  1  0  0  0  0
 36 37  1  0  0  0  0
M  END
> <PUBCHEM_COMPOUND_CID>
44350861

> <PUBCHEM_COMPOUND_CANONICALIZED>
1

> <PUBCHEM_CACTVS_COMPLEXITY>
620

> <PUBCHEM_CACTVS_HBOND_ACCEPTOR>
8

> <PUBCHEM_CACTVS_HBOND_DONOR>
3

> <PUBCHEM_CACTVS_ROTATABLE_BOND>
9

> <PUBCHEM_CACTVS_SUBSKEYS>
AAADcfB7OAAAAAAAAAAAAAAAAAAAAAAAAAA8YMEAAAAAAADBVAAAHgAQCAAADAzBmAYyzsPABgCIAiXSWAKCCAAhIgAIiIFPbIgPZjLE9ZuVMChk1hHZ6AeYyMCOwAACAAAQEACAAAQAACAgAAAAAAAAAA==

> <PUBCHEM_IUPAC_OPENEYE_NAME>
N-[3-[4-(2-methoxyphenyl)piperazin-1-yl]propyl]-2-(2-naphthyl)acetamide;oxalic acid

> <PUBCHEM_IUPAC_CAS_NAME>
N-[3-[4-(2-methoxyphenyl)-1-piperazinyl]propyl]-2-(2-naphthalenyl)acetamide;oxalic acid

> <PUBCHEM_IUPAC_NAME_MARKUP>
<I>N</I>-[3-[4-(2-methoxyphenyl)piperazin-1-yl]propyl]-2-naphthalen-2-ylacetamide;oxalic acid

> <PUBCHEM_IUPAC_NAME>
N-[3-[4-(2-methoxyphenyl)piperazin-1-yl]propyl]-2-naphthalen-2-ylacetamide;oxalic acid

> <PUBCHEM_IUPAC_SYSTEMATIC_NAME>
ethanedioic acid;N-[3-[4-(2-methoxyphenyl)piperazin-1-yl]propyl]-2-naphthalen-2-yl-ethanamide

> <PUBCHEM_IUPAC_TRADITIONAL_NAME>
N-[3-[4-(2-methoxyphenyl)piperazino]propyl]-2-(2-naphthyl)acetamide;oxalic acid

> <PUBCHEM_IUPAC_INCHI>
InChI=1S/C26H31N3O2.C2H2O4/c1-31-25-10-5-4-9-24(25)29-17-15-28(16-18-29)14-6-13-27-26(30)20-21-11-12-22-7-2-3-8-23(22)19-21;3-1(4)2(5)6/h2-5,7-12,19H,6,13-18,20H2,1H3,(H,27,30);(H,3,4)(H,5,6)

> <PUBCHEM_IUPAC_INCHIKEY>
QANCXJPVGKFWAH-UHFFFAOYSA-N

> <PUBCHEM_EXACT_MASS>
507.23693578

> <PUBCHEM_MOLECULAR_FORMULA>
C28H33N3O6

> <PUBCHEM_MOLECULAR_WEIGHT>
507.6

> <PUBCHEM_OPENEYE_CAN_SMILES>
COC1=CC=CC=C1N2CCN(CC2)CCCNC(=O)CC3=CC4=CC=CC=C4C=C3.C(=O)(C(=O)O)O

> <PUBCHEM_OPENEYE_ISO_SMILES>
COC1=CC=CC=C1N2CCN(CC2)CCCNC(=O)CC3=CC4=CC=CC=C4C=C3.C(=O)(C(=O)O)O

> <PUBCHEM_CACTVS_TPSA>
119

> <PUBCHEM_MONOISOTOPIC_WEIGHT>
507.23693578

> <PUBCHEM_TOTAL_CHARGE>
0

> <PUBCHEM_HEAVY_ATOM_COUNT>
37

> <PUBCHEM_ATOM_DEF_STEREO_COUNT>
0

> <PUBCHEM_ATOM_UDEF_STEREO_COUNT>
0

> <PUBCHEM_BOND_DEF_STEREO_COUNT>
0

> <PUBCHEM_BOND_UDEF_STEREO_COUNT>
0

> <PUBCHEM_ISOTOPIC_ATOM_COUNT>
0

> <PUBCHEM_COMPONENT_COUNT>
2

> <PUBCHEM_CACTVS_TAUTO_COUNT>
-1

> <PUBCHEM_COORDINATE_TYPE>
1
5
255

> <PUBCHEM_BONDANNOTATIONS>
16  18  8
16  19  8
18  20  8
19  21  8
20  22  8
21  22  8
25  27  8
25  29  8
27  28  8
28  30  8
28  32  8
29  31  8
30  31  8
30  33  8
32  34  8
33  35  8
34  35  8

$$$$
