137655594
  -OEChem-09292322392D

 42 44  0     0  0  0  0  0  0999 V2000
    2.8660   -4.0950    0.0000 O   0  0  0  0  0  0  0  0  0  0  0  0
    6.3961   -3.1192    0.0000 O   0  0  0  0  0  0  0  0  0  0  0  0
    2.8660    1.9050    0.0000 N   0  0  0  0  0  0  0  0  0  0  0  0
    2.8660   -0.0950    0.0000 N   0  0  0  0  0  0  0  0  0  0  0  0
    4.6260   -3.1297    0.0000 N   0  0  0  0  0  0  0  0  0  0  0  0
    3.7320    1.4050    0.0000 C   0  0  0  0  0  0  0  0  0  0  0  0
    2.0000    1.4050    0.0000 C   0  0  0  0  0  0  0  0  0  0  0  0
    3.7320    0.4050    0.0000 C   0  0  0  0  0  0  0  0  0  0  0  0
    2.0000    0.4050    0.0000 C   0  0  0  0  0  0  0  0  0  0  0  0
    2.8660    2.9050    0.0000 C   0  0  0  0  0  0  0  0  0  0  0  0
    2.8660   -1.0950    0.0000 C   0  0  0  0  0  0  0  0  0  0  0  0
    2.0000    3.4050    0.0000 C   0  0  0  0  0  0  0  0  0  0  0  0
    3.7320   -1.5950    0.0000 C   0  0  0  0  0  0  0  0  0  0  0  0
    2.0000   -1.5950    0.0000 C   0  0  0  0  0  0  0  0  0  0  0  0
    3.7320   -2.5950    0.0000 C   0  0  0  0  0  0  0  0  0  0  0  0
    2.0000    4.4050    0.0000 C   0  0  0  0  0  0  0  0  0  0  0  0
    2.0000   -2.5950    0.0000 C   0  0  0  0  0  0  0  0  0  0  0  0
    4.6260   -1.0603    0.0000 C   0  0  0  0  0  0  0  0  0  0  0  0
    2.8660   -3.0950    0.0000 C   0  0  0  0  0  0  0  0  0  0  0  0
    5.5321   -1.5742    0.0000 C   0  0  0  0  0  0  0  0  0  0  0  0
    5.5321   -2.6158    0.0000 C   0  0  0  0  0  0  0  0  0  0  0  0
    4.3426    1.2973    0.0000 H   0  0  0  0  0  0  0  0  0  0  0  0
    3.9441    1.9876    0.0000 H   0  0  0  0  0  0  0  0  0  0  0  0
    1.7880    1.9876    0.0000 H   0  0  0  0  0  0  0  0  0  0  0  0
    1.3894    1.2973    0.0000 H   0  0  0  0  0  0  0  0  0  0  0  0
    3.9441   -0.1776    0.0000 H   0  0  0  0  0  0  0  0  0  0  0  0
    4.3426    0.5127    0.0000 H   0  0  0  0  0  0  0  0  0  0  0  0
    1.3894    0.5127    0.0000 H   0  0  0  0  0  0  0  0  0  0  0  0
    1.7880   -0.1776    0.0000 H   0  0  0  0  0  0  0  0  0  0  0  0
    3.4766    2.7973    0.0000 H   0  0  0  0  0  0  0  0  0  0  0  0
    3.0781    3.4876    0.0000 H   0  0  0  0  0  0  0  0  0  0  0  0
    1.3894    3.5127    0.0000 H   0  0  0  0  0  0  0  0  0  0  0  0
    1.7880    2.8224    0.0000 H   0  0  0  0  0  0  0  0  0  0  0  0
    1.4631   -1.2850    0.0000 H   0  0  0  0  0  0  0  0  0  0  0  0
    2.6200    4.4050    0.0000 H   0  0  0  0  0  0  0  0  0  0  0  0
    2.0000    5.0250    0.0000 H   0  0  0  0  0  0  0  0  0  0  0  0
    1.3800    4.4050    0.0000 H   0  0  0  0  0  0  0  0  0  0  0  0
    4.6188   -0.4404    0.0000 H   0  0  0  0  0  0  0  0  0  0  0  0
    1.4631   -2.9050    0.0000 H   0  0  0  0  0  0  0  0  0  0  0  0
    4.6188   -3.7496    0.0000 H   0  0  0  0  0  0  0  0  0  0  0  0
    6.0678   -1.2621    0.0000 H   0  0  0  0  0  0  0  0  0  0  0  0
    2.3291   -4.4050    0.0000 H   0  0  0  0  0  0  0  0  0  0  0  0
  1 19  1  0  0  0  0
  1 42  1  0  0  0  0
  2 21  2  0  0  0  0
  3  6  1  0  0  0  0
  3  7  1  0  0  0  0
  3 10  1  0  0  0  0
  4  8  1  0  0  0  0
  4  9  1  0  0  0  0
  4 11  1  0  0  0  0
  5 15  1  0  0  0  0
  5 21  1  0  0  0  0
  5 40  1  0  0  0  0
  6  8  1  0  0  0  0
  6 22  1  0  0  0  0
  6 23  1  0  0  0  0
  7  9  1  0  0  0  0
  7 24  1  0  0  0  0
  7 25  1  0  0  0  0
  8 26  1  0  0  0  0
  8 27  1  0  0  0  0
  9 28  1  0  0  0  0
  9 29  1  0  0  0  0
 10 12  1  0  0  0  0
 10 30  1  0  0  0  0
 10 31  1  0  0  0  0
 11 13  2  0  0  0  0
 11 14  1  0  0  0  0
 12 16  1  0  0  0  0
 12 32  1  0  0  0  0
 12 33  1  0  0  0  0
 13 15  1  0  0  0  0
 13 18  1  0  0  0  0
 14 17  2  0  0  0  0
 14 34  1  0  0  0  0
 15 19  2  0  0  0  0
 16 35  1  0  0  0  0
 16 36  1  0  0  0  0
 16 37  1  0  0  0  0
 17 19  1  0  0  0  0
 17 39  1  0  0  0  0
 18 20  2  0  0  0  0
 18 38  1  0  0  0  0
 20 21  1  0  0  0  0
 20 41  1  0  0  0  0
M  END
> <PUBCHEM_COMPOUND_CID>
137655594

> <PUBCHEM_COMPOUND_CANONICALIZED>
1

> <PUBCHEM_CACTVS_COMPLEXITY>
404

> <PUBCHEM_CACTVS_HBOND_ACCEPTOR>
4

> <PUBCHEM_CACTVS_HBOND_DONOR>
2

> <PUBCHEM_CACTVS_ROTATABLE_BOND>
3

> <PUBCHEM_CACTVS_SUBSKEYS>
AAADceB7MAAAAAAAAAAAAAAAAAAAAAAAAAA8QIAAAAAAAACBAAAAHgAQCAAADAzBmAQyxoPAAgCIAiVSUACCAAAhIgAIiAAPbMgKZiLS0NOUcAhk1BHY2YewwBAOAEABAAQCEAAAgAIACAQgAAAAAAAAAA==

> <PUBCHEM_IUPAC_OPENEYE_NAME>
8-hydroxy-5-(4-propylpiperazin-1-yl)-1H-quinolin-2-one

> <PUBCHEM_IUPAC_CAS_NAME>
8-hydroxy-5-(4-propyl-1-piperazinyl)-1H-quinolin-2-one

> <PUBCHEM_IUPAC_NAME_MARKUP>
8-hydroxy-5-(4-propylpiperazin-1-yl)-1<I>H</I>-quinolin-2-one

> <PUBCHEM_IUPAC_NAME>
8-hydroxy-5-(4-propylpiperazin-1-yl)-1H-quinolin-2-one

> <PUBCHEM_IUPAC_SYSTEMATIC_NAME>
8-oxidanyl-5-(4-propylpiperazin-1-yl)-1H-quinolin-2-one

> <PUBCHEM_IUPAC_TRADITIONAL_NAME>
8-hydroxy-5-(4-propylpiperazino)carbostyril

> <PUBCHEM_IUPAC_INCHI>
InChI=1S/C16H21N3O2/c1-2-7-18-8-10-19(11-9-18)13-4-5-14(20)16-12(13)3-6-15(21)17-16/h3-6,20H,2,7-11H2,1H3,(H,17,21)

> <PUBCHEM_IUPAC_INCHIKEY>
RKJGOTQLYDWXJL-UHFFFAOYSA-N

> <PUBCHEM_XLOGP3_AA>
1.8

> <PUBCHEM_EXACT_MASS>
287.16337692

> <PUBCHEM_MOLECULAR_FORMULA>
C16H21N3O2

> <PUBCHEM_MOLECULAR_WEIGHT>
287.36

> <PUBCHEM_OPENEYE_CAN_SMILES>
CCCN1CCN(CC1)C2=C3C=CC(=O)NC3=C(C=C2)O

> <PUBCHEM_OPENEYE_ISO_SMILES>
CCCN1CCN(CC1)C2=C3C=CC(=O)NC3=C(C=C2)O

> <PUBCHEM_CACTVS_TPSA>
55.8

> <PUBCHEM_MONOISOTOPIC_WEIGHT>
287.16337692

> <PUBCHEM_TOTAL_CHARGE>
0

> <PUBCHEM_HEAVY_ATOM_COUNT>
21

> <PUBCHEM_ATOM_DEF_STEREO_COUNT>
0

> <PUBCHEM_ATOM_UDEF_STEREO_COUNT>
0

> <PUBCHEM_BOND_DEF_STEREO_COUNT>
0

> <PUBCHEM_BOND_UDEF_STEREO_COUNT>
0

> <PUBCHEM_ISOTOPIC_ATOM_COUNT>
0

> <PUBCHEM_COMPONENT_COUNT>
1

> <PUBCHEM_CACTVS_TAUTO_COUNT>
-1

> <PUBCHEM_COORDINATE_TYPE>
1
5
255

> <PUBCHEM_BONDANNOTATIONS>
11  13  8
11  14  8
13  15  8
13  18  8
14  17  8
15  19  8
17  19  8
18  20  8
20  21  8
5  15  8
5  21  8

$$$$
