44438218
  -OEChem-09292321592D

 47 50  0     0  0  0  0  0  0999 V2000
   10.9017    3.2197    0.0000 Cl  0  0  0  0  0  0  0  0  0  0  0  0
    5.9674    0.1359    0.0000 N   0  0  0  0  0  0  0  0  0  0  0  0
    4.6783   -2.6304    0.0000 N   0  0  0  0  0  0  0  0  0  0  0  0
    7.9244    0.5483    0.0000 C   0  0  0  0  0  0  0  0  0  0  0  0
    7.6138   -0.4022    0.0000 C   0  0  0  0  0  0  0  0  0  0  0  0
    7.2566    1.2926    0.0000 C   0  0  0  0  0  0  0  0  0  0  0  0
    6.6353   -0.6084    0.0000 C   0  0  0  0  0  0  0  0  0  0  0  0
    6.2781    1.0864    0.0000 C   0  0  0  0  0  0  0  0  0  0  0  0
    8.6688    1.2161    0.0000 C   0  0  0  0  0  0  0  0  0  0  0  0
    8.8750    0.2376    0.0000 C   0  0  0  0  0  0  0  0  0  0  0  0
    4.9889   -0.0704    0.0000 C   0  0  0  0  0  0  0  0  0  0  0  0
    4.6783   -1.0209    0.0000 C   0  0  0  0  0  0  0  0  0  0  0  0
    9.6193    0.9055    0.0000 C   0  0  0  0  0  0  0  0  0  0  0  0
    8.4625    2.1946    0.0000 C   0  0  0  0  0  0  0  0  0  0  0  0
    3.7320   -1.3256    0.0000 C   0  0  0  0  0  0  0  0  0  0  0  0
    5.2619   -1.8256    0.0000 C   0  0  0  0  0  0  0  0  0  0  0  0
   10.3636    1.5733    0.0000 C   0  0  0  0  0  0  0  0  0  0  0  0
    9.2068    2.8625    0.0000 C   0  0  0  0  0  0  0  0  0  0  0  0
    3.7320   -2.3256    0.0000 C   0  0  0  0  0  0  0  0  0  0  0  0
   10.1574    2.5518    0.0000 C   0  0  0  0  0  0  0  0  0  0  0  0
    2.8660   -0.8256    0.0000 C   0  0  0  0  0  0  0  0  0  0  0  0
    2.8660   -2.8256    0.0000 C   0  0  0  0  0  0  0  0  0  0  0  0
    2.0000   -1.3256    0.0000 C   0  0  0  0  0  0  0  0  0  0  0  0
    2.0000   -2.3256    0.0000 C   0  0  0  0  0  0  0  0  0  0  0  0
    7.6344   -1.0219    0.0000 H   0  0  0  0  0  0  0  0  0  0  0  0
    8.2276   -0.4896    0.0000 H   0  0  0  0  0  0  0  0  0  0  0  0
    7.7830    1.6202    0.0000 H   0  0  0  0  0  0  0  0  0  0  0  0
    7.0254    1.8678    0.0000 H   0  0  0  0  0  0  0  0  0  0  0  0
    6.1089   -0.9361    0.0000 H   0  0  0  0  0  0  0  0  0  0  0  0
    6.8665   -1.1837    0.0000 H   0  0  0  0  0  0  0  0  0  0  0  0
    6.2575    1.7060    0.0000 H   0  0  0  0  0  0  0  0  0  0  0  0
    5.6643    1.1737    0.0000 H   0  0  0  0  0  0  0  0  0  0  0  0
    8.6824   -0.3517    0.0000 H   0  0  0  0  0  0  0  0  0  0  0  0
    9.4643    0.0450    0.0000 H   0  0  0  0  0  0  0  0  0  0  0  0
    9.0676    0.8270    0.0000 H   0  0  0  0  0  0  0  0  0  0  0  0
    4.9684    0.5493    0.0000 H   0  0  0  0  0  0  0  0  0  0  0  0
    4.3751    0.0170    0.0000 H   0  0  0  0  0  0  0  0  0  0  0  0
    9.7471    0.2988    0.0000 H   0  0  0  0  0  0  0  0  0  0  0  0
    7.8732    2.3872    0.0000 H   0  0  0  0  0  0  0  0  0  0  0  0
    5.8819   -1.8256    0.0000 H   0  0  0  0  0  0  0  0  0  0  0  0
   10.9529    1.3807    0.0000 H   0  0  0  0  0  0  0  0  0  0  0  0
    9.0790    3.4692    0.0000 H   0  0  0  0  0  0  0  0  0  0  0  0
    4.8709   -3.2197    0.0000 H   0  0  0  0  0  0  0  0  0  0  0  0
    2.8660   -0.2056    0.0000 H   0  0  0  0  0  0  0  0  0  0  0  0
    2.8660   -3.4456    0.0000 H   0  0  0  0  0  0  0  0  0  0  0  0
    1.4631   -1.0156    0.0000 H   0  0  0  0  0  0  0  0  0  0  0  0
    1.4631   -2.6356    0.0000 H   0  0  0  0  0  0  0  0  0  0  0  0
  1 20  1  0  0  0  0
  2  7  1  0  0  0  0
  2  8  1  0  0  0  0
  2 11  1  0  0  0  0
  3 16  1  0  0  0  0
  3 19  1  0  0  0  0
  3 43  1  0  0  0  0
  4  5  1  0  0  0  0
  4  6  1  0  0  0  0
  4  9  1  0  0  0  0
  4 10  1  0  0  0  0
  5  7  1  0  0  0  0
  5 25  1  0  0  0  0
  5 26  1  0  0  0  0
  6  8  1  0  0  0  0
  6 27  1  0  0  0  0
  6 28  1  0  0  0  0
  7 29  1  0  0  0  0
  7 30  1  0  0  0  0
  8 31  1  0  0  0  0
  8 32  1  0  0  0  0
  9 13  2  0  0  0  0
  9 14  1  0  0  0  0
 10 33  1  0  0  0  0
 10 34  1  0  0  0  0
 10 35  1  0  0  0  0
 11 12  1  0  0  0  0
 11 36  1  0  0  0  0
 11 37  1  0  0  0  0
 12 15  1  0  0  0  0
 12 16  2  0  0  0  0
 13 17  1  0  0  0  0
 13 38  1  0  0  0  0
 14 18  2  0  0  0  0
 14 39  1  0  0  0  0
 15 19  1  0  0  0  0
 15 21  2  0  0  0  0
 16 40  1  0  0  0  0
 17 20  2  0  0  0  0
 17 41  1  0  0  0  0
 18 20  1  0  0  0  0
 18 42  1  0  0  0  0
 19 22  2  0  0  0  0
 21 23  1  0  0  0  0
 21 44  1  0  0  0  0
 22 24  1  0  0  0  0
 22 45  1  0  0  0  0
 23 24  2  0  0  0  0
 23 46  1  0  0  0  0
 24 47  1  0  0  0  0
M  END
> <PUBCHEM_COMPOUND_CID>
44438218

> <PUBCHEM_COMPOUND_CANONICALIZED>
1

> <PUBCHEM_CACTVS_COMPLEXITY>
410

> <PUBCHEM_CACTVS_HBOND_ACCEPTOR>
1

> <PUBCHEM_CACTVS_HBOND_DONOR>
1

> <PUBCHEM_CACTVS_ROTATABLE_BOND>
3

> <PUBCHEM_CACTVS_SUBSKEYS>
AAADceB7AAAEAAAAAAAAAAAAAAAAAWAAAAA8YIAAAAAAAFgB9AAAHAIQAAAADgrBHiQ+wPPJkACgAzRnRACCgCAxByAI2aA4ZpgIIOLB05GEIAhgkADIyAcQgMAPhAAAAAACAAAIAAAAAAQAAAAAAAAAAA==

> <PUBCHEM_IUPAC_OPENEYE_NAME>
3-[[4-(4-chlorophenyl)-4-methyl-1-piperidyl]methyl]-1H-indole

> <PUBCHEM_IUPAC_CAS_NAME>
3-[[4-(4-chlorophenyl)-4-methyl-1-piperidinyl]methyl]-1H-indole

> <PUBCHEM_IUPAC_NAME_MARKUP>
3-[[4-(4-chlorophenyl)-4-methylpiperidin-1-yl]methyl]-1<I>H</I>-indole

> <PUBCHEM_IUPAC_NAME>
3-[[4-(4-chlorophenyl)-4-methylpiperidin-1-yl]methyl]-1H-indole

> <PUBCHEM_IUPAC_SYSTEMATIC_NAME>
3-[[4-(4-chlorophenyl)-4-methyl-piperidin-1-yl]methyl]-1H-indole

> <PUBCHEM_IUPAC_TRADITIONAL_NAME>
3-[[4-(4-chlorophenyl)-4-methyl-piperidino]methyl]-1H-indole

> <PUBCHEM_IUPAC_INCHI>
InChI=1S/C21H23ClN2/c1-21(17-6-8-18(22)9-7-17)10-12-24(13-11-21)15-16-14-23-20-5-3-2-4-19(16)20/h2-9,14,23H,10-13,15H2,1H3

> <PUBCHEM_IUPAC_INCHIKEY>
ORIBLMYUFXRADV-UHFFFAOYSA-N

> <PUBCHEM_XLOGP3_AA>
5.3

> <PUBCHEM_EXACT_MASS>
338.1549764

> <PUBCHEM_MOLECULAR_FORMULA>
C21H23ClN2

> <PUBCHEM_MOLECULAR_WEIGHT>
338.9

> <PUBCHEM_OPENEYE_CAN_SMILES>
CC1(CCN(CC1)CC2=CNC3=CC=CC=C32)C4=CC=C(C=C4)Cl

> <PUBCHEM_OPENEYE_ISO_SMILES>
CC1(CCN(CC1)CC2=CNC3=CC=CC=C32)C4=CC=C(C=C4)Cl

> <PUBCHEM_CACTVS_TPSA>
19

> <PUBCHEM_MONOISOTOPIC_WEIGHT>
338.1549764

> <PUBCHEM_TOTAL_CHARGE>
0

> <PUBCHEM_HEAVY_ATOM_COUNT>
24

> <PUBCHEM_ATOM_DEF_STEREO_COUNT>
0

> <PUBCHEM_ATOM_UDEF_STEREO_COUNT>
0

> <PUBCHEM_BOND_DEF_STEREO_COUNT>
0

> <PUBCHEM_BOND_UDEF_STEREO_COUNT>
0

> <PUBCHEM_ISOTOPIC_ATOM_COUNT>
0

> <PUBCHEM_COMPONENT_COUNT>
1

> <PUBCHEM_CACTVS_TAUTO_COUNT>
-1

> <PUBCHEM_COORDINATE_TYPE>
1
5
255

> <PUBCHEM_BONDANNOTATIONS>
12  15  8
12  16  8
13  17  8
14  18  8
15  19  8
15  21  8
17  20  8
18  20  8
19  22  8
21  23  8
22  24  8
23  24  8
3  16  8
3  19  8
9  13  8
9  14  8

$$$$
