66801230
  -OEChem-09292322342D

 52 55  0     0  0  0  0  0  0999 V2000
    4.6783   -4.4275    0.0000 S   0  0  0  0  0  0  0  0  0  0  0  0
    9.4778    3.5037    0.0000 S   0  0  0  0  0  0  0  0  0  0  0  0
   11.1983    3.0395    0.0000 S   0  0  0  0  0  0  0  0  0  0  0  0
    9.2715    4.4822    0.0000 O   0  0  0  0  0  0  0  0  0  0  0  0
    9.6840    2.5252    0.0000 O   0  0  0  0  0  0  0  0  0  0  0  0
    5.6103    0.0335    0.0000 N   0  0  0  0  0  0  0  0  0  0  0  0
    4.9889   -1.8675    0.0000 N   0  0  0  0  0  0  0  0  0  0  0  0
    5.2619   -3.6228    0.0000 N   0  0  0  0  0  0  0  0  0  0  0  0
    8.4993    3.2975    0.0000 N   0  0  0  0  0  0  0  0  0  0  0  0
    4.6318   -0.1727    0.0000 C   0  0  0  0  0  0  0  0  0  0  0  0
    6.2781   -0.7108    0.0000 C   0  0  0  0  0  0  0  0  0  0  0  0
    4.3211   -1.1232    0.0000 C   0  0  0  0  0  0  0  0  0  0  0  0
    5.9674   -1.6613    0.0000 C   0  0  0  0  0  0  0  0  0  0  0  0
    5.9209    0.9840    0.0000 C   0  0  0  0  0  0  0  0  0  0  0  0
    6.8994    1.1902    0.0000 C   0  0  0  0  0  0  0  0  0  0  0  0
    7.2101    2.1408    0.0000 C   0  0  0  0  0  0  0  0  0  0  0  0
    4.6783   -2.8180    0.0000 C   0  0  0  0  0  0  0  0  0  0  0  0
    8.1886    2.3470    0.0000 C   0  0  0  0  0  0  0  0  0  0  0  0
    3.7320   -3.1228    0.0000 C   0  0  0  0  0  0  0  0  0  0  0  0
    3.7320   -4.1228    0.0000 C   0  0  0  0  0  0  0  0  0  0  0  0
    2.8660   -2.6228    0.0000 C   0  0  0  0  0  0  0  0  0  0  0  0
    2.8660   -4.6228    0.0000 C   0  0  0  0  0  0  0  0  0  0  0  0
    2.0000   -3.1228    0.0000 C   0  0  0  0  0  0  0  0  0  0  0  0
    2.0000   -4.1228    0.0000 C   0  0  0  0  0  0  0  0  0  0  0  0
   10.4563    3.7099    0.0000 C   0  0  0  0  0  0  0  0  0  0  0  0
   10.8646    4.6228    0.0000 C   0  0  0  0  0  0  0  0  0  0  0  0
   11.8589    4.5165    0.0000 C   0  0  0  0  0  0  0  0  0  0  0  0
   12.0651    3.5380    0.0000 C   0  0  0  0  0  0  0  0  0  0  0  0
    4.6112    0.4469    0.0000 H   0  0  0  0  0  0  0  0  0  0  0  0
    4.0179   -0.0854    0.0000 H   0  0  0  0  0  0  0  0  0  0  0  0
    6.8250   -1.0028    0.0000 H   0  0  0  0  0  0  0  0  0  0  0  0
    6.6607   -0.2229    0.0000 H   0  0  0  0  0  0  0  0  0  0  0  0
    3.7742   -0.8312    0.0000 H   0  0  0  0  0  0  0  0  0  0  0  0
    3.9385   -1.6111    0.0000 H   0  0  0  0  0  0  0  0  0  0  0  0
    5.9880   -2.2810    0.0000 H   0  0  0  0  0  0  0  0  0  0  0  0
    6.5812   -1.7487    0.0000 H   0  0  0  0  0  0  0  0  0  0  0  0
    5.9004    1.6037    0.0000 H   0  0  0  0  0  0  0  0  0  0  0  0
    5.3071    1.0714    0.0000 H   0  0  0  0  0  0  0  0  0  0  0  0
    6.9200    0.5706    0.0000 H   0  0  0  0  0  0  0  0  0  0  0  0
    7.5132    1.1029    0.0000 H   0  0  0  0  0  0  0  0  0  0  0  0
    7.1895    2.7604    0.0000 H   0  0  0  0  0  0  0  0  0  0  0  0
    6.5963    2.2281    0.0000 H   0  0  0  0  0  0  0  0  0  0  0  0
    8.2092    1.7273    0.0000 H   0  0  0  0  0  0  0  0  0  0  0  0
    8.8024    2.2596    0.0000 H   0  0  0  0  0  0  0  0  0  0  0  0
    8.0852    3.7590    0.0000 H   0  0  0  0  0  0  0  0  0  0  0  0
    2.8660   -2.0028    0.0000 H   0  0  0  0  0  0  0  0  0  0  0  0
    2.8660   -5.2428    0.0000 H   0  0  0  0  0  0  0  0  0  0  0  0
    1.4631   -2.8128    0.0000 H   0  0  0  0  0  0  0  0  0  0  0  0
    1.4631   -4.4328    0.0000 H   0  0  0  0  0  0  0  0  0  0  0  0
   10.5555    5.1603    0.0000 H   0  0  0  0  0  0  0  0  0  0  0  0
   12.2746    4.9766    0.0000 H   0  0  0  0  0  0  0  0  0  0  0  0
   12.6311    3.2849    0.0000 H   0  0  0  0  0  0  0  0  0  0  0  0
  1  8  1  0  0  0  0
  1 20  1  0  0  0  0
  2  4  2  0  0  0  0
  2  5  2  0  0  0  0
  2  9  1  0  0  0  0
  2 25  1  0  0  0  0
  3 25  1  0  0  0  0
  3 28  1  0  0  0  0
  6 10  1  0  0  0  0
  6 11  1  0  0  0  0
  6 14  1  0  0  0  0
  7 12  1  0  0  0  0
  7 13  1  0  0  0  0
  7 17  1  0  0  0  0
  8 17  2  0  0  0  0
  9 18  1  0  0  0  0
  9 45  1  0  0  0  0
 10 12  1  0  0  0  0
 10 29  1  0  0  0  0
 10 30  1  0  0  0  0
 11 13  1  0  0  0  0
 11 31  1  0  0  0  0
 11 32  1  0  0  0  0
 12 33  1  0  0  0  0
 12 34  1  0  0  0  0
 13 35  1  0  0  0  0
 13 36  1  0  0  0  0
 14 15  1  0  0  0  0
 14 37  1  0  0  0  0
 14 38  1  0  0  0  0
 15 16  1  0  0  0  0
 15 39  1  0  0  0  0
 15 40  1  0  0  0  0
 16 18  1  0  0  0  0
 16 41  1  0  0  0  0
 16 42  1  0  0  0  0
 17 19  1  0  0  0  0
 18 43  1  0  0  0  0
 18 44  1  0  0  0  0
 19 20  1  0  0  0  0
 19 21  2  0  0  0  0
 20 22  2  0  0  0  0
 21 23  1  0  0  0  0
 21 46  1  0  0  0  0
 22 24  1  0  0  0  0
 22 47  1  0  0  0  0
 23 24  2  0  0  0  0
 23 48  1  0  0  0  0
 24 49  1  0  0  0  0
 25 26  2  0  0  0  0
 26 27  1  0  0  0  0
 26 50  1  0  0  0  0
 27 28  2  0  0  0  0
 27 51  1  0  0  0  0
 28 52  1  0  0  0  0
M  END
> <PUBCHEM_COMPOUND_CID>
66801230

> <PUBCHEM_COMPOUND_CANONICALIZED>
1

> <PUBCHEM_CACTVS_COMPLEXITY>
593

> <PUBCHEM_CACTVS_HBOND_ACCEPTOR>
8

> <PUBCHEM_CACTVS_HBOND_DONOR>
1

> <PUBCHEM_CACTVS_ROTATABLE_BOND>
8

> <PUBCHEM_CACTVS_SUBSKEYS>
AAADceB7sABgAAAAAAAAAAAAAAAAAWJAAAA8QAAAAAAAAFgB/AAAHAQQQAAADADFWgSxsdNAAAqkAiJiYHDDAZAhCBBJmLgoRJiIYKLgmZGUIAxgkALoyAcQgAAOAAAAAAAEAAAAAAAAAAgAAAAAAAAAAA==

> <PUBCHEM_IUPAC_OPENEYE_NAME>
N-[4-[4-(1,2-benzothiazol-3-yl)piperazin-1-yl]butyl]thiophene-2-sulfonamide

> <PUBCHEM_IUPAC_CAS_NAME>
N-[4-[4-(1,2-benzothiazol-3-yl)-1-piperazinyl]butyl]-2-thiophenesulfonamide

> <PUBCHEM_IUPAC_NAME_MARKUP>
<I>N</I>-[4-[4-(1,2-benzothiazol-3-yl)piperazin-1-yl]butyl]thiophene-2-sulfonamide

> <PUBCHEM_IUPAC_NAME>
N-[4-[4-(1,2-benzothiazol-3-yl)piperazin-1-yl]butyl]thiophene-2-sulfonamide

> <PUBCHEM_IUPAC_SYSTEMATIC_NAME>
N-[4-[4-(1,2-benzothiazol-3-yl)piperazin-1-yl]butyl]thiophene-2-sulfonamide

> <PUBCHEM_IUPAC_TRADITIONAL_NAME>
N-[4-[4-(1,2-benzothiazol-3-yl)piperazino]butyl]thiophene-2-sulfonamide

> <PUBCHEM_IUPAC_INCHI>
InChI=1S/C19H24N4O2S3/c24-28(25,18-8-5-15-26-18)20-9-3-4-10-22-11-13-23(14-12-22)19-16-6-1-2-7-17(16)27-21-19/h1-2,5-8,15,20H,3-4,9-14H2

> <PUBCHEM_IUPAC_INCHIKEY>
VNEIHMUMEPSZBA-UHFFFAOYSA-N

> <PUBCHEM_XLOGP3_AA>
4

> <PUBCHEM_EXACT_MASS>
436.10613954

> <PUBCHEM_MOLECULAR_FORMULA>
C19H24N4O2S3

> <PUBCHEM_MOLECULAR_WEIGHT>
436.6

> <PUBCHEM_OPENEYE_CAN_SMILES>
C1CN(CCN1CCCCNS(=O)(=O)C2=CC=CS2)C3=NSC4=CC=CC=C43

> <PUBCHEM_OPENEYE_ISO_SMILES>
C1CN(CCN1CCCCNS(=O)(=O)C2=CC=CS2)C3=NSC4=CC=CC=C43

> <PUBCHEM_CACTVS_TPSA>
130

> <PUBCHEM_MONOISOTOPIC_WEIGHT>
436.10613954

> <PUBCHEM_TOTAL_CHARGE>
0

> <PUBCHEM_HEAVY_ATOM_COUNT>
28

> <PUBCHEM_ATOM_DEF_STEREO_COUNT>
0

> <PUBCHEM_ATOM_UDEF_STEREO_COUNT>
0

> <PUBCHEM_BOND_DEF_STEREO_COUNT>
0

> <PUBCHEM_BOND_UDEF_STEREO_COUNT>
0

> <PUBCHEM_ISOTOPIC_ATOM_COUNT>
0

> <PUBCHEM_COMPONENT_COUNT>
1

> <PUBCHEM_CACTVS_TAUTO_COUNT>
-1

> <PUBCHEM_COORDINATE_TYPE>
1
5
255

> <PUBCHEM_BONDANNOTATIONS>
1  20  8
1  8  8
17  19  8
19  20  8
19  21  8
20  22  8
21  23  8
22  24  8
23  24  8
25  26  8
26  27  8
27  28  8
3  25  8
3  28  8
8  17  8

$$$$
