46180325
  -OEChem-09292322482D

 55 58  0     1  0  0  0  0  0999 V2000
    4.5806    1.2590    0.0000 O   0  0  0  0  0  0  0  0  0  0  0  0
    8.0532   -1.7725    0.0000 N   0  0  3  0  0  0  0  0  0  0  0  0
    7.1950   -1.2756    0.0000 C   0  0  1  0  0  0  0  0  0  0  0  0
    7.1950   -0.2756    0.0000 C   0  0  0  0  0  0  0  0  0  0  0  0
    6.3290   -1.7756    0.0000 C   0  0  0  0  0  0  0  0  0  0  0  0
    8.9187   -1.2883    0.0000 C   0  0  0  0  0  0  0  0  0  0  0  0
    8.1050    0.2313    0.0000 C   0  0  0  0  0  0  0  0  0  0  0  0
    8.9443   -0.2970    0.0000 C   0  0  0  0  0  0  0  0  0  0  0  0
    6.3290    0.2244    0.0000 C   0  0  0  0  0  0  0  0  0  0  0  0
    5.4629   -1.2756    0.0000 C   0  0  0  0  0  0  0  0  0  0  0  0
    8.0458   -2.7725    0.0000 C   0  0  0  0  0  0  0  0  0  0  0  0
    5.4629   -0.2756    0.0000 C   0  0  0  0  0  0  0  0  0  0  0  0
    8.1130    1.2729    0.0000 C   0  0  0  0  0  0  0  0  0  0  0  0
    6.3129    1.2659    0.0000 C   0  0  0  0  0  0  0  0  0  0  0  0
    8.9081   -3.2789    0.0000 C   0  0  0  0  0  0  0  0  0  0  0  0
    4.5690    0.2591    0.0000 C   0  0  0  0  0  0  0  0  0  0  0  0
    4.5690   -1.8102    0.0000 C   0  0  0  0  0  0  0  0  0  0  0  0
    7.2109    1.7937    0.0000 C   0  0  0  0  0  0  0  0  0  0  0  0
    3.6629   -0.2548    0.0000 C   0  0  0  0  0  0  0  0  0  0  0  0
    3.6629   -1.2964    0.0000 C   0  0  0  0  0  0  0  0  0  0  0  0
    8.9007   -4.2788    0.0000 C   0  0  0  0  0  0  0  0  0  0  0  0
    3.7204    1.7690    0.0000 C   0  0  0  0  0  0  0  0  0  0  0  0
    3.7319    2.7689    0.0000 C   0  0  0  0  0  0  0  0  0  0  0  0
    2.8718    3.2789    0.0000 C   0  0  0  0  0  0  0  0  0  0  0  0
    2.8833    4.2788    0.0000 C   0  0  0  0  0  0  0  0  0  0  0  0
    2.0000    2.7890    0.0000 C   0  0  0  0  0  0  0  0  0  0  0  0
    7.1944   -2.1256    0.0000 H   0  0  0  0  0  0  0  0  0  0  0  0
    5.9304   -2.2505    0.0000 H   0  0  0  0  0  0  0  0  0  0  0  0
    6.7275   -2.2505    0.0000 H   0  0  0  0  0  0  0  0  0  0  0  0
    9.1204   -1.8746    0.0000 H   0  0  0  0  0  0  0  0  0  0  0  0
    9.5315   -1.1940    0.0000 H   0  0  0  0  0  0  0  0  0  0  0  0
    9.5514   -0.4228    0.0000 H   0  0  0  0  0  0  0  0  0  0  0  0
    9.1761    0.2781    0.0000 H   0  0  0  0  0  0  0  0  0  0  0  0
    7.4360   -2.6603    0.0000 H   0  0  0  0  0  0  0  0  0  0  0  0
    7.8294   -3.3535    0.0000 H   0  0  0  0  0  0  0  0  0  0  0  0
    8.6511    1.5808    0.0000 H   0  0  0  0  0  0  0  0  0  0  0  0
    5.7724    1.5697    0.0000 H   0  0  0  0  0  0  0  0  0  0  0  0
    9.5179   -3.3910    0.0000 H   0  0  0  0  0  0  0  0  0  0  0  0
    9.1245   -2.6978    0.0000 H   0  0  0  0  0  0  0  0  0  0  0  0
    4.5762   -2.4302    0.0000 H   0  0  0  0  0  0  0  0  0  0  0  0
    7.2086    2.4137    0.0000 H   0  0  0  0  0  0  0  0  0  0  0  0
    3.1272    0.0573    0.0000 H   0  0  0  0  0  0  0  0  0  0  0  0
    3.1272   -1.6085    0.0000 H   0  0  0  0  0  0  0  0  0  0  0  0
    8.2807   -4.2743    0.0000 H   0  0  0  0  0  0  0  0  0  0  0  0
    8.8961   -4.8988    0.0000 H   0  0  0  0  0  0  0  0  0  0  0  0
    9.5207   -4.2834    0.0000 H   0  0  0  0  0  0  0  0  0  0  0  0
    3.1111    1.8837    0.0000 H   0  0  0  0  0  0  0  0  0  0  0  0
    3.5016    1.1889    0.0000 H   0  0  0  0  0  0  0  0  0  0  0  0
    4.2724    3.0727    0.0000 H   0  0  0  0  0  0  0  0  0  0  0  0
    3.5033    4.2717    0.0000 H   0  0  0  0  0  0  0  0  0  0  0  0
    2.8905    4.8988    0.0000 H   0  0  0  0  0  0  0  0  0  0  0  0
    2.2634    4.2860    0.0000 H   0  0  0  0  0  0  0  0  0  0  0  0
    1.6962    3.3294    0.0000 H   0  0  0  0  0  0  0  0  0  0  0  0
    1.4595    2.4852    0.0000 H   0  0  0  0  0  0  0  0  0  0  0  0
    2.3038    2.2485    0.0000 H   0  0  0  0  0  0  0  0  0  0  0  0
  1 16  1  0  0  0  0
  1 22  1  0  0  0  0
  2  3  1  0  0  0  0
  2  6  1  0  0  0  0
  2 11  1  0  0  0  0
  3  4  1  0  0  0  0
  3  5  1  0  0  0  0
  3 27  1  1  0  0  0
  4  7  2  0  0  0  0
  4  9  1  0  0  0  0
  5 10  1  0  0  0  0
  5 28  1  0  0  0  0
  5 29  1  0  0  0  0
  6  8  1  0  0  0  0
  6 30  1  0  0  0  0
  6 31  1  0  0  0  0
  7  8  1  0  0  0  0
  7 13  1  0  0  0  0
  8 32  1  0  0  0  0
  8 33  1  0  0  0  0
  9 12  1  0  0  0  0
  9 14  2  0  0  0  0
 10 12  2  0  0  0  0
 10 17  1  0  0  0  0
 11 15  1  0  0  0  0
 11 34  1  0  0  0  0
 11 35  1  0  0  0  0
 12 16  1  0  0  0  0
 13 18  2  0  0  0  0
 13 36  1  0  0  0  0
 14 18  1  0  0  0  0
 14 37  1  0  0  0  0
 15 21  1  0  0  0  0
 15 38  1  0  0  0  0
 15 39  1  0  0  0  0
 16 19  2  0  0  0  0
 17 20  2  0  0  0  0
 17 40  1  0  0  0  0
 18 41  1  0  0  0  0
 19 20  1  0  0  0  0
 19 42  1  0  0  0  0
 20 43  1  0  0  0  0
 21 44  1  0  0  0  0
 21 45  1  0  0  0  0
 21 46  1  0  0  0  0
 22 23  1  0  0  0  0
 22 47  1  0  0  0  0
 22 48  1  0  0  0  0
 23 24  2  0  0  0  0
 23 49  1  0  0  0  0
 24 25  1  0  0  0  0
 24 26  1  0  0  0  0
 25 50  1  0  0  0  0
 25 51  1  0  0  0  0
 25 52  1  0  0  0  0
 26 53  1  0  0  0  0
 26 54  1  0  0  0  0
 26 55  1  0  0  0  0
M  END
> <PUBCHEM_COMPOUND_CID>
46180325

> <PUBCHEM_COMPOUND_CANONICALIZED>
1

> <PUBCHEM_CACTVS_COMPLEXITY>
496

> <PUBCHEM_CACTVS_HBOND_ACCEPTOR>
2

> <PUBCHEM_CACTVS_HBOND_DONOR>
0

> <PUBCHEM_CACTVS_ROTATABLE_BOND>
5

> <PUBCHEM_CACTVS_SUBSKEYS>
AAADceB6IAAAAAAAAAAAAAAAAAAAAAAAAAA8YMEAAAAAAADxQAAAHgAAAAAADCzhmAYyBoMABACAAiBCAACCCAAgIAAIiAAODIgMJiKEsRuGOCjkwBGIqAeQ0PMOgAADAAAYAACQAAaAADQAAAAAAAAAAA==

> <PUBCHEM_IUPAC_OPENEYE_NAME>
(6aR)-11-(3-methylbut-2-enoxy)-6-propyl-5,6,6a,7-tetrahydro-4H-dibenzo[de,g]quinoline

> <PUBCHEM_IUPAC_CAS_NAME>
(6aR)-11-(3-methylbut-2-enoxy)-6-propyl-5,6,6a,7-tetrahydro-4H-dibenzo[de,g]quinoline

> <PUBCHEM_IUPAC_NAME_MARKUP>
(6<I>a</I><I>R</I>)-11-(3-methylbut-2-enoxy)-6-propyl-5,6,6<I>a</I>,7-tetrahydro-4<I>H</I>-dibenzo[de,g]quinoline

> <PUBCHEM_IUPAC_NAME>
(6aR)-11-(3-methylbut-2-enoxy)-6-propyl-5,6,6a,7-tetrahydro-4H-dibenzo[de,g]quinoline

> <PUBCHEM_IUPAC_SYSTEMATIC_NAME>
(6aR)-11-(3-methylbut-2-enoxy)-6-propyl-5,6,6a,7-tetrahydro-4H-dibenzo[de,g]quinoline

> <PUBCHEM_IUPAC_TRADITIONAL_NAME>
(6aR)-11-(3-methylbut-2-enoxy)-6-propyl-5,6,6a,7-tetrahydro-4H-dibenzo[de,g]quinoline

> <PUBCHEM_IUPAC_INCHI>
InChI=1S/C24H29NO/c1-4-13-25-14-11-18-7-5-9-20-23(18)21(25)16-19-8-6-10-22(24(19)20)26-15-12-17(2)3/h5-10,12,21H,4,11,13-16H2,1-3H3/t21-/m1/s1

> <PUBCHEM_IUPAC_INCHIKEY>
MEYFDHQWLFGNTM-OAQYLSRUSA-N

> <PUBCHEM_XLOGP3_AA>
5.9

> <PUBCHEM_EXACT_MASS>
347.224914549

> <PUBCHEM_MOLECULAR_FORMULA>
C24H29NO

> <PUBCHEM_MOLECULAR_WEIGHT>
347.5

> <PUBCHEM_OPENEYE_CAN_SMILES>
CCCN1CCC2=C3C1CC4=C(C3=CC=C2)C(=CC=C4)OCC=C(C)C

> <PUBCHEM_OPENEYE_ISO_SMILES>
CCCN1CCC2=C3[C@H]1CC4=C(C3=CC=C2)C(=CC=C4)OCC=C(C)C

> <PUBCHEM_CACTVS_TPSA>
12.5

> <PUBCHEM_MONOISOTOPIC_WEIGHT>
347.224914549

> <PUBCHEM_TOTAL_CHARGE>
0

> <PUBCHEM_HEAVY_ATOM_COUNT>
26

> <PUBCHEM_ATOM_DEF_STEREO_COUNT>
1

> <PUBCHEM_ATOM_UDEF_STEREO_COUNT>
0

> <PUBCHEM_BOND_DEF_STEREO_COUNT>
0

> <PUBCHEM_BOND_UDEF_STEREO_COUNT>
0

> <PUBCHEM_ISOTOPIC_ATOM_COUNT>
0

> <PUBCHEM_COMPONENT_COUNT>
1

> <PUBCHEM_CACTVS_TAUTO_COUNT>
-1

> <PUBCHEM_COORDINATE_TYPE>
1
5
255

> <PUBCHEM_BONDANNOTATIONS>
10  12  8
10  17  8
12  16  8
13  18  8
14  18  8
16  19  8
17  20  8
19  20  8
3  27  5
4  7  8
4  9  8
7  13  8
9  14  8

$$$$
