155535154
  -OEChem-09292322412D

 81 86  0     1  0  0  0  0  0999 V2000
    4.6660   -1.6407    0.0000 O   0  0  0  0  0  0  0  0  0  0  0  0
    6.3981    1.3593    0.0000 O   0  0  0  0  0  0  0  0  0  0  0  0
   13.2358   -5.6531    0.0000 O   0  0  0  0  0  0  0  0  0  0  0  0
    4.6660    5.3593    0.0000 O   0  0  0  0  0  0  0  0  0  0  0  0
    8.1301   -3.6407    0.0000 N   0  0  3  0  0  0  0  0  0  0  0  0
    3.8000   -0.1407    0.0000 N   0  0  0  0  0  0  0  0  0  0  0  0
    5.5321   -0.1407    0.0000 N   0  0  0  0  0  0  0  0  0  0  0  0
   11.8031   -1.9428    0.0000 N   0  0  0  0  0  0  0  0  0  0  0  0
    9.8622   -3.6407    0.0000 C   0  0  3  0  0  0  0  0  0  0  0  0
    8.9962   -3.1407    0.0000 C   0  0  0  0  0  0  0  0  0  0  0  0
    9.8622   -4.6407    0.0000 C   0  0  0  0  0  0  0  0  0  0  0  0
    8.9962   -5.1407    0.0000 C   0  0  0  0  0  0  0  0  0  0  0  0
    8.1301   -4.6407    0.0000 C   0  0  0  0  0  0  0  0  0  0  0  0
    7.2641   -3.1407    0.0000 C   0  0  0  0  0  0  0  0  0  0  0  0
   10.7282   -3.1407    0.0000 C   0  0  0  0  0  0  0  0  0  0  0  0
    7.2641   -2.1407    0.0000 C   0  0  0  0  0  0  0  0  0  0  0  0
   11.6360   -3.5458    0.0000 C   0  0  0  0  0  0  0  0  0  0  0  0
    6.3981   -1.6407    0.0000 C   0  0  0  0  0  0  0  0  0  0  0  0
   10.8313   -2.1520    0.0000 C   0  0  0  0  0  0  0  0  0  0  0  0
    6.3981   -0.6407    0.0000 C   0  0  0  0  0  0  0  0  0  0  0  0
   12.3038   -2.8015    0.0000 C   0  0  0  0  0  0  0  0  0  0  0  0
    3.8000    0.8593    0.0000 C   0  0  0  0  0  0  0  0  0  0  0  0
    2.9061    1.3940    0.0000 C   0  0  0  0  0  0  0  0  0  0  0  0
    2.9061   -0.6754    0.0000 C   0  0  0  0  0  0  0  0  0  0  0  0
    2.0000    0.8801    0.0000 C   0  0  0  0  0  0  0  0  0  0  0  0
    2.0000   -0.1615    0.0000 C   0  0  0  0  0  0  0  0  0  0  0  0
    4.6660   -0.6407    0.0000 C   0  0  0  0  0  0  0  0  0  0  0  0
    4.6660    1.3593    0.0000 C   0  0  0  0  0  0  0  0  0  0  0  0
   11.9467   -4.4963    0.0000 C   0  0  0  0  0  0  0  0  0  0  0  0
    5.5321    0.8593    0.0000 C   0  0  0  0  0  0  0  0  0  0  0  0
   13.2823   -3.0077    0.0000 C   0  0  0  0  0  0  0  0  0  0  0  0
   12.9252   -4.7026    0.0000 C   0  0  0  0  0  0  0  0  0  0  0  0
    4.6660    2.3593    0.0000 C   0  0  0  0  0  0  0  0  0  0  0  0
   13.5930   -3.9583    0.0000 C   0  0  0  0  0  0  0  0  0  0  0  0
    3.8000    2.8593    0.0000 C   0  0  0  0  0  0  0  0  0  0  0  0
    5.5321    2.8593    0.0000 C   0  0  0  0  0  0  0  0  0  0  0  0
    3.8000    3.8593    0.0000 C   0  0  0  0  0  0  0  0  0  0  0  0
    5.5321    3.8593    0.0000 C   0  0  0  0  0  0  0  0  0  0  0  0
    4.6660    4.3593    0.0000 C   0  0  0  0  0  0  0  0  0  0  0  0
   14.2143   -5.8593    0.0000 C   0  0  0  0  0  0  0  0  0  0  0  0
    5.5321    5.8593    0.0000 C   0  0  0  0  0  0  0  0  0  0  0  0
    9.8622   -3.0207    0.0000 H   0  0  0  0  0  0  0  0  0  0  0  0
    9.3947   -2.6658    0.0000 H   0  0  0  0  0  0  0  0  0  0  0  0
    8.5976   -2.6658    0.0000 H   0  0  0  0  0  0  0  0  0  0  0  0
   10.0742   -5.2233    0.0000 H   0  0  0  0  0  0  0  0  0  0  0  0
   10.4728   -4.5330    0.0000 H   0  0  0  0  0  0  0  0  0  0  0  0
    8.5976   -5.6156    0.0000 H   0  0  0  0  0  0  0  0  0  0  0  0
    9.3947   -5.6156    0.0000 H   0  0  0  0  0  0  0  0  0  0  0  0
    7.5196   -4.5330    0.0000 H   0  0  0  0  0  0  0  0  0  0  0  0
    7.9181   -5.2233    0.0000 H   0  0  0  0  0  0  0  0  0  0  0  0
    6.6535   -3.0330    0.0000 H   0  0  0  0  0  0  0  0  0  0  0  0
    7.0521   -3.7233    0.0000 H   0  0  0  0  0  0  0  0  0  0  0  0
    7.8747   -2.2484    0.0000 H   0  0  0  0  0  0  0  0  0  0  0  0
    7.4762   -1.5581    0.0000 H   0  0  0  0  0  0  0  0  0  0  0  0
    5.7875   -1.5330    0.0000 H   0  0  0  0  0  0  0  0  0  0  0  0
    6.1860   -2.2233    0.0000 H   0  0  0  0  0  0  0  0  0  0  0  0
   10.3698   -1.7379    0.0000 H   0  0  0  0  0  0  0  0  0  0  0  0
    7.0087   -0.7484    0.0000 H   0  0  0  0  0  0  0  0  0  0  0  0
    6.6101   -0.0581    0.0000 H   0  0  0  0  0  0  0  0  0  0  0  0
    3.3107    1.8638    0.0000 H   0  0  0  0  0  0  0  0  0  0  0  0
    2.5124    1.8730    0.0000 H   0  0  0  0  0  0  0  0  0  0  0  0
    2.5124   -1.1544    0.0000 H   0  0  0  0  0  0  0  0  0  0  0  0
    3.3107   -1.1451    0.0000 H   0  0  0  0  0  0  0  0  0  0  0  0
    1.7909    1.4638    0.0000 H   0  0  0  0  0  0  0  0  0  0  0  0
    1.3891    0.7740    0.0000 H   0  0  0  0  0  0  0  0  0  0  0  0
    1.3891   -0.0554    0.0000 H   0  0  0  0  0  0  0  0  0  0  0  0
    1.7909   -0.7452    0.0000 H   0  0  0  0  0  0  0  0  0  0  0  0
   12.0533   -1.3755    0.0000 H   0  0  0  0  0  0  0  0  0  0  0  0
   11.5326   -4.9578    0.0000 H   0  0  0  0  0  0  0  0  0  0  0  0
   13.6964   -2.5463    0.0000 H   0  0  0  0  0  0  0  0  0  0  0  0
   14.1997   -4.0861    0.0000 H   0  0  0  0  0  0  0  0  0  0  0  0
    3.2631    2.5493    0.0000 H   0  0  0  0  0  0  0  0  0  0  0  0
    6.0690    2.5493    0.0000 H   0  0  0  0  0  0  0  0  0  0  0  0
    3.2631    4.1693    0.0000 H   0  0  0  0  0  0  0  0  0  0  0  0
    6.0690    4.1693    0.0000 H   0  0  0  0  0  0  0  0  0  0  0  0
   14.0865   -6.4660    0.0000 H   0  0  0  0  0  0  0  0  0  0  0  0
   14.8210   -5.9872    0.0000 H   0  0  0  0  0  0  0  0  0  0  0  0
   14.3422   -5.2526    0.0000 H   0  0  0  0  0  0  0  0  0  0  0  0
    5.8421    5.3224    0.0000 H   0  0  0  0  0  0  0  0  0  0  0  0
    6.0690    6.1693    0.0000 H   0  0  0  0  0  0  0  0  0  0  0  0
    5.2221    6.3962    0.0000 H   0  0  0  0  0  0  0  0  0  0  0  0
  1 27  2  0  0  0  0
  2 30  2  0  0  0  0
  3 32  1  0  0  0  0
  3 40  1  0  0  0  0
  4 39  1  0  0  0  0
  4 41  1  0  0  0  0
  5 10  1  0  0  0  0
  5 13  1  0  0  0  0
  5 14  1  0  0  0  0
  6 22  1  0  0  0  0
  6 24  1  0  0  0  0
  6 27  1  0  0  0  0
  7 20  1  0  0  0  0
  7 27  1  0  0  0  0
  7 30  1  0  0  0  0
  8 19  1  0  0  0  0
  8 21  1  0  0  0  0
  8 68  1  0  0  0  0
  9 10  1  0  0  0  0
  9 11  1  0  0  0  0
  9 15  1  0  0  0  0
  9 42  1  0  0  0  0
 10 43  1  0  0  0  0
 10 44  1  0  0  0  0
 11 12  1  0  0  0  0
 11 45  1  0  0  0  0
 11 46  1  0  0  0  0
 12 13  1  0  0  0  0
 12 47  1  0  0  0  0
 12 48  1  0  0  0  0
 13 49  1  0  0  0  0
 13 50  1  0  0  0  0
 14 16  1  0  0  0  0
 14 51  1  0  0  0  0
 14 52  1  0  0  0  0
 15 17  1  0  0  0  0
 15 19  2  0  0  0  0
 16 18  1  0  0  0  0
 16 53  1  0  0  0  0
 16 54  1  0  0  0  0
 17 21  2  0  0  0  0
 17 29  1  0  0  0  0
 18 20  1  0  0  0  0
 18 55  1  0  0  0  0
 18 56  1  0  0  0  0
 19 57  1  0  0  0  0
 20 58  1  0  0  0  0
 20 59  1  0  0  0  0
 21 31  1  0  0  0  0
 22 23  1  0  0  0  0
 22 28  2  0  0  0  0
 23 25  1  0  0  0  0
 23 60  1  0  0  0  0
 23 61  1  0  0  0  0
 24 26  1  0  0  0  0
 24 62  1  0  0  0  0
 24 63  1  0  0  0  0
 25 26  1  0  0  0  0
 25 64  1  0  0  0  0
 25 65  1  0  0  0  0
 26 66  1  0  0  0  0
 26 67  1  0  0  0  0
 28 30  1  0  0  0  0
 28 33  1  0  0  0  0
 29 32  2  0  0  0  0
 29 69  1  0  0  0  0
 31 34  2  0  0  0  0
 31 70  1  0  0  0  0
 32 34  1  0  0  0  0
 33 35  2  0  0  0  0
 33 36  1  0  0  0  0
 34 71  1  0  0  0  0
 35 37  1  0  0  0  0
 35 72  1  0  0  0  0
 36 38  2  0  0  0  0
 36 73  1  0  0  0  0
 37 39  2  0  0  0  0
 37 74  1  0  0  0  0
 38 39  1  0  0  0  0
 38 75  1  0  0  0  0
 40 76  1  0  0  0  0
 40 77  1  0  0  0  0
 40 78  1  0  0  0  0
 41 79  1  0  0  0  0
 41 80  1  0  0  0  0
 41 81  1  0  0  0  0
M  END
> <PUBCHEM_COMPOUND_CID>
155535154

> <PUBCHEM_COMPOUND_CANONICALIZED>
1

> <PUBCHEM_CACTVS_COMPLEXITY>
963

> <PUBCHEM_CACTVS_HBOND_ACCEPTOR>
5

> <PUBCHEM_CACTVS_HBOND_DONOR>
1

> <PUBCHEM_CACTVS_ROTATABLE_BOND>
9

> <PUBCHEM_CACTVS_SUBSKEYS>
AAADcfB/uAAAAAAAAAAAAAAAAAAAAWAAAAA8eIECAAAAAFiB9AAAHgAQAAAADQzBngY/xvPJlACoAzV3VACCiCAxIiAI2aE+bNiMJvLEtZuEMChs1zPI6Ue42PKOoEABAAACAABAgAIAAAQAAAAAAAAAAA==

> <PUBCHEM_IUPAC_OPENEYE_NAME>
2-[4-[3-(5-methoxy-1H-indol-3-yl)-1-piperidyl]butyl]-4-(4-methoxyphenyl)-5,6,7,8-tetrahydropyrido[1,2-c]pyrimidine-1,3-dione

> <PUBCHEM_IUPAC_CAS_NAME>
2-[4-[3-(5-methoxy-1H-indol-3-yl)-1-piperidinyl]butyl]-4-(4-methoxyphenyl)-5,6,7,8-tetrahydropyrido[1,2-c]pyrimidine-1,3-dione

> <PUBCHEM_IUPAC_NAME_MARKUP>
2-[4-[3-(5-methoxy-1<I>H</I>-indol-3-yl)piperidin-1-yl]butyl]-4-(4-methoxyphenyl)-5,6,7,8-tetrahydropyrido[1,2-c]pyrimidine-1,3-dione

> <PUBCHEM_IUPAC_NAME>
2-[4-[3-(5-methoxy-1H-indol-3-yl)piperidin-1-yl]butyl]-4-(4-methoxyphenyl)-5,6,7,8-tetrahydropyrido[1,2-c]pyrimidine-1,3-dione

> <PUBCHEM_IUPAC_SYSTEMATIC_NAME>
2-[4-[3-(5-methoxy-1H-indol-3-yl)piperidin-1-yl]butyl]-4-(4-methoxyphenyl)-5,6,7,8-tetrahydropyrido[1,2-c]pyrimidine-1,3-dione

> <PUBCHEM_IUPAC_TRADITIONAL_NAME>
2-[4-[3-(5-methoxy-1H-indol-3-yl)piperidino]butyl]-4-(4-methoxyphenyl)-5,6,7,8-tetrahydropyrido[1,2-c]pyrimidine-1,3-quinone

> <PUBCHEM_IUPAC_INCHI>
InChI=1S/C33H40N4O4/c1-40-25-12-10-23(11-13-25)31-30-9-3-4-18-36(30)33(39)37(32(31)38)19-6-5-16-35-17-7-8-24(22-35)28-21-34-29-15-14-26(41-2)20-27(28)29/h10-15,20-21,24,34H,3-9,16-19,22H2,1-2H3

> <PUBCHEM_IUPAC_INCHIKEY>
FMIGXIISTXPFJX-UHFFFAOYSA-N

> <PUBCHEM_XLOGP3_AA>
4.8

> <PUBCHEM_EXACT_MASS>
556.30495577

> <PUBCHEM_MOLECULAR_FORMULA>
C33H40N4O4

> <PUBCHEM_MOLECULAR_WEIGHT>
556.7

> <PUBCHEM_OPENEYE_CAN_SMILES>
COC1=CC=C(C=C1)C2=C3CCCCN3C(=O)N(C2=O)CCCCN4CCCC(C4)C5=CNC6=C5C=C(C=C6)OC

> <PUBCHEM_OPENEYE_ISO_SMILES>
COC1=CC=C(C=C1)C2=C3CCCCN3C(=O)N(C2=O)CCCCN4CCCC(C4)C5=CNC6=C5C=C(C=C6)OC

> <PUBCHEM_CACTVS_TPSA>
78.1

> <PUBCHEM_MONOISOTOPIC_WEIGHT>
556.30495577

> <PUBCHEM_TOTAL_CHARGE>
0

> <PUBCHEM_HEAVY_ATOM_COUNT>
41

> <PUBCHEM_ATOM_DEF_STEREO_COUNT>
0

> <PUBCHEM_ATOM_UDEF_STEREO_COUNT>
1

> <PUBCHEM_BOND_DEF_STEREO_COUNT>
0

> <PUBCHEM_BOND_UDEF_STEREO_COUNT>
0

> <PUBCHEM_ISOTOPIC_ATOM_COUNT>
0

> <PUBCHEM_COMPONENT_COUNT>
1

> <PUBCHEM_CACTVS_TAUTO_COUNT>
-1

> <PUBCHEM_COORDINATE_TYPE>
1
5
255

> <PUBCHEM_BONDANNOTATIONS>
15  17  8
15  19  8
17  21  8
17  29  8
21  31  8
22  28  8
28  30  8
29  32  8
31  34  8
32  34  8
33  35  8
33  36  8
35  37  8
36  38  8
37  39  8
38  39  8
6  22  8
6  27  8
7  27  8
7  30  8
8  19  8
8  21  8
9  15  3

$$$$
