44273912
  -OEChem-09292322202D

 57 58  0     0  0  0  0  0  0999 V2000
    2.8660   -6.5000    0.0000 Cl  0  0  0  0  0  0  0  0  0  0  0  0
    5.4641    2.0000    0.0000 O   0  0  0  0  0  0  0  0  0  0  0  0
    2.8660   -0.5000    0.0000 N   0  0  0  0  0  0  0  0  0  0  0  0
    2.8660   -2.5000    0.0000 N   0  0  0  0  0  0  0  0  0  0  0  0
    3.7320    2.0000    0.0000 N   0  0  0  0  0  0  0  0  0  0  0  0
    4.5981    3.5000    0.0000 C   0  0  0  0  0  0  0  0  0  0  0  0
    2.0000   -1.0000    0.0000 C   0  0  0  0  0  0  0  0  0  0  0  0
    3.7320   -1.0000    0.0000 C   0  0  0  0  0  0  0  0  0  0  0  0
    2.0000   -2.0000    0.0000 C   0  0  0  0  0  0  0  0  0  0  0  0
    3.7320   -2.0000    0.0000 C   0  0  0  0  0  0  0  0  0  0  0  0
    2.8660    0.5000    0.0000 C   0  0  0  0  0  0  0  0  0  0  0  0
    4.5981    4.5000    0.0000 C   0  0  0  0  0  0  0  0  0  0  0  0
    3.7320    1.0000    0.0000 C   0  0  0  0  0  0  0  0  0  0  0  0
    4.5981    2.5000    0.0000 C   0  0  0  0  0  0  0  0  0  0  0  0
    5.4641    5.0000    0.0000 C   0  0  0  0  0  0  0  0  0  0  0  0
    5.5981    3.5000    0.0000 C   0  0  0  0  0  0  0  0  0  0  0  0
    3.5981    3.5000    0.0000 C   0  0  0  0  0  0  0  0  0  0  0  0
    2.8660   -3.5000    0.0000 C   0  0  0  0  0  0  0  0  0  0  0  0
    5.4641    6.0000    0.0000 C   0  0  0  0  0  0  0  0  0  0  0  0
    3.7320   -4.0000    0.0000 C   0  0  0  0  0  0  0  0  0  0  0  0
    2.0000   -4.0000    0.0000 C   0  0  0  0  0  0  0  0  0  0  0  0
    6.3301    6.5000    0.0000 C   0  0  0  0  0  0  0  0  0  0  0  0
    3.7320   -5.0000    0.0000 C   0  0  0  0  0  0  0  0  0  0  0  0
    2.0000   -5.0000    0.0000 C   0  0  0  0  0  0  0  0  0  0  0  0
    2.8660   -5.5000    0.0000 C   0  0  0  0  0  0  0  0  0  0  0  0
    1.7880   -0.4174    0.0000 H   0  0  0  0  0  0  0  0  0  0  0  0
    1.3894   -1.1077    0.0000 H   0  0  0  0  0  0  0  0  0  0  0  0
    4.3426   -1.1077    0.0000 H   0  0  0  0  0  0  0  0  0  0  0  0
    3.9441   -0.4174    0.0000 H   0  0  0  0  0  0  0  0  0  0  0  0
    1.3894   -1.8923    0.0000 H   0  0  0  0  0  0  0  0  0  0  0  0
    1.7880   -2.5826    0.0000 H   0  0  0  0  0  0  0  0  0  0  0  0
    3.9441   -2.5826    0.0000 H   0  0  0  0  0  0  0  0  0  0  0  0
    4.3426   -1.8923    0.0000 H   0  0  0  0  0  0  0  0  0  0  0  0
    2.6540    1.0826    0.0000 H   0  0  0  0  0  0  0  0  0  0  0  0
    2.2554    0.3923    0.0000 H   0  0  0  0  0  0  0  0  0  0  0  0
    4.3860    5.0826    0.0000 H   0  0  0  0  0  0  0  0  0  0  0  0
    3.9875    4.3923    0.0000 H   0  0  0  0  0  0  0  0  0  0  0  0
    3.9441    0.4174    0.0000 H   0  0  0  0  0  0  0  0  0  0  0  0
    4.3426    1.1077    0.0000 H   0  0  0  0  0  0  0  0  0  0  0  0
    5.6762    4.4174    0.0000 H   0  0  0  0  0  0  0  0  0  0  0  0
    6.0747    5.1077    0.0000 H   0  0  0  0  0  0  0  0  0  0  0  0
    5.5981    2.8800    0.0000 H   0  0  0  0  0  0  0  0  0  0  0  0
    6.2181    3.5000    0.0000 H   0  0  0  0  0  0  0  0  0  0  0  0
    5.5981    4.1200    0.0000 H   0  0  0  0  0  0  0  0  0  0  0  0
    3.5981    4.1200    0.0000 H   0  0  0  0  0  0  0  0  0  0  0  0
    2.9781    3.5000    0.0000 H   0  0  0  0  0  0  0  0  0  0  0  0
    3.5981    2.8800    0.0000 H   0  0  0  0  0  0  0  0  0  0  0  0
    3.1951    2.3100    0.0000 H   0  0  0  0  0  0  0  0  0  0  0  0
    5.2520    6.5826    0.0000 H   0  0  0  0  0  0  0  0  0  0  0  0
    4.8535    5.8923    0.0000 H   0  0  0  0  0  0  0  0  0  0  0  0
    4.2690   -3.6900    0.0000 H   0  0  0  0  0  0  0  0  0  0  0  0
    1.4631   -3.6900    0.0000 H   0  0  0  0  0  0  0  0  0  0  0  0
    6.6401    5.9631    0.0000 H   0  0  0  0  0  0  0  0  0  0  0  0
    6.8671    6.8100    0.0000 H   0  0  0  0  0  0  0  0  0  0  0  0
    6.0201    7.0369    0.0000 H   0  0  0  0  0  0  0  0  0  0  0  0
    4.2690   -5.3100    0.0000 H   0  0  0  0  0  0  0  0  0  0  0  0
    1.4631   -5.3100    0.0000 H   0  0  0  0  0  0  0  0  0  0  0  0
  1 25  1  0  0  0  0
  2 14  2  0  0  0  0
  3  7  1  0  0  0  0
  3  8  1  0  0  0  0
  3 11  1  0  0  0  0
  4  9  1  0  0  0  0
  4 10  1  0  0  0  0
  4 18  1  0  0  0  0
  5 13  1  0  0  0  0
  5 14  1  0  0  0  0
  5 48  1  0  0  0  0
  6 12  1  0  0  0  0
  6 14  1  0  0  0  0
  6 16  1  0  0  0  0
  6 17  1  0  0  0  0
  7  9  1  0  0  0  0
  7 26  1  0  0  0  0
  7 27  1  0  0  0  0
  8 10  1  0  0  0  0
  8 28  1  0  0  0  0
  8 29  1  0  0  0  0
  9 30  1  0  0  0  0
  9 31  1  0  0  0  0
 10 32  1  0  0  0  0
 10 33  1  0  0  0  0
 11 13  1  0  0  0  0
 11 34  1  0  0  0  0
 11 35  1  0  0  0  0
 12 15  1  0  0  0  0
 12 36  1  0  0  0  0
 12 37  1  0  0  0  0
 13 38  1  0  0  0  0
 13 39  1  0  0  0  0
 15 19  1  0  0  0  0
 15 40  1  0  0  0  0
 15 41  1  0  0  0  0
 16 42  1  0  0  0  0
 16 43  1  0  0  0  0
 16 44  1  0  0  0  0
 17 45  1  0  0  0  0
 17 46  1  0  0  0  0
 17 47  1  0  0  0  0
 18 20  2  0  0  0  0
 18 21  1  0  0  0  0
 19 22  1  0  0  0  0
 19 49  1  0  0  0  0
 19 50  1  0  0  0  0
 20 23  1  0  0  0  0
 20 51  1  0  0  0  0
 21 24  2  0  0  0  0
 21 52  1  0  0  0  0
 22 53  1  0  0  0  0
 22 54  1  0  0  0  0
 22 55  1  0  0  0  0
 23 25  2  0  0  0  0
 23 56  1  0  0  0  0
 24 25  1  0  0  0  0
 24 57  1  0  0  0  0
M  END
> <PUBCHEM_COMPOUND_CID>
44273912

> <PUBCHEM_COMPOUND_CANONICALIZED>
1

> <PUBCHEM_CACTVS_COMPLEXITY>
400

> <PUBCHEM_CACTVS_HBOND_ACCEPTOR>
3

> <PUBCHEM_CACTVS_HBOND_DONOR>
1

> <PUBCHEM_CACTVS_ROTATABLE_BOND>
8

> <PUBCHEM_CACTVS_SUBSKEYS>
AAADcfB7IAAEAAAAAAAAAAAAAAAAAAAAAAA8QAAAAAAAAAABAAAAHgIQAAAADgrBkCQywIPAAACIACVSUACCAAAhBwAIiIEIZogIYDLBk5GUIAhglgDIyAcYCAANAABAAAAAAAAAAIAAAAAAAAAAAAAAAA==

> <PUBCHEM_IUPAC_OPENEYE_NAME>
N-[2-[4-(4-chlorophenyl)piperazin-1-yl]ethyl]-2,2-dimethyl-hexanamide

> <PUBCHEM_IUPAC_CAS_NAME>
N-[2-[4-(4-chlorophenyl)-1-piperazinyl]ethyl]-2,2-dimethylhexanamide

> <PUBCHEM_IUPAC_NAME_MARKUP>
<I>N</I>-[2-[4-(4-chlorophenyl)piperazin-1-yl]ethyl]-2,2-dimethylhexanamide

> <PUBCHEM_IUPAC_NAME>
N-[2-[4-(4-chlorophenyl)piperazin-1-yl]ethyl]-2,2-dimethylhexanamide

> <PUBCHEM_IUPAC_SYSTEMATIC_NAME>
N-[2-[4-(4-chlorophenyl)piperazin-1-yl]ethyl]-2,2-dimethyl-hexanamide

> <PUBCHEM_IUPAC_TRADITIONAL_NAME>
N-[2-[4-(4-chlorophenyl)piperazino]ethyl]-2,2-dimethyl-hexanamide

> <PUBCHEM_IUPAC_INCHI>
InChI=1S/C20H32ClN3O/c1-4-5-10-20(2,3)19(25)22-11-12-23-13-15-24(16-14-23)18-8-6-17(21)7-9-18/h6-9H,4-5,10-16H2,1-3H3,(H,22,25)

> <PUBCHEM_IUPAC_INCHIKEY>
KWXDZKMCZUIKDA-UHFFFAOYSA-N

> <PUBCHEM_XLOGP3_AA>
4.6

> <PUBCHEM_EXACT_MASS>
365.2233903

> <PUBCHEM_MOLECULAR_FORMULA>
C20H32ClN3O

> <PUBCHEM_MOLECULAR_WEIGHT>
365.9

> <PUBCHEM_OPENEYE_CAN_SMILES>
CCCCC(C)(C)C(=O)NCCN1CCN(CC1)C2=CC=C(C=C2)Cl

> <PUBCHEM_OPENEYE_ISO_SMILES>
CCCCC(C)(C)C(=O)NCCN1CCN(CC1)C2=CC=C(C=C2)Cl

> <PUBCHEM_CACTVS_TPSA>
35.6

> <PUBCHEM_MONOISOTOPIC_WEIGHT>
365.2233903

> <PUBCHEM_TOTAL_CHARGE>
0

> <PUBCHEM_HEAVY_ATOM_COUNT>
25

> <PUBCHEM_ATOM_DEF_STEREO_COUNT>
0

> <PUBCHEM_ATOM_UDEF_STEREO_COUNT>
0

> <PUBCHEM_BOND_DEF_STEREO_COUNT>
0

> <PUBCHEM_BOND_UDEF_STEREO_COUNT>
0

> <PUBCHEM_ISOTOPIC_ATOM_COUNT>
0

> <PUBCHEM_COMPONENT_COUNT>
1

> <PUBCHEM_CACTVS_TAUTO_COUNT>
-1

> <PUBCHEM_COORDINATE_TYPE>
1
5
255

> <PUBCHEM_BONDANNOTATIONS>
18  20  8
18  21  8
20  23  8
21  24  8
23  25  8
24  25  8

$$$$
