127038281
  -OEChem-09292322362D

 69 73  0     1  0  0  0  0  0999 V2000
    6.3301    3.8988    0.0000 S   0  0  0  0  0  0  0  0  0  0  0  0
    5.8301    4.7648    0.0000 O   0  0  0  0  0  0  0  0  0  0  0  0
    6.8301    3.0328    0.0000 O   0  0  0  0  0  0  0  0  0  0  0  0
    4.5981   -2.1012    0.0000 O   0  0  0  0  0  0  0  0  0  0  0  0
    5.4641    3.3988    0.0000 N   0  0  3  0  0  0  0  0  0  0  0  0
    5.4641    0.3988    0.0000 N   0  0  0  0  0  0  0  0  0  0  0  0
    8.7788    4.7352    0.0000 N   0  0  0  0  0  0  0  0  0  0  0  0
    8.2788    5.6012    0.0000 N   0  0  0  0  0  0  0  0  0  0  0  0
    3.7320    3.3988    0.0000 C   0  0  0  0  0  0  0  0  0  0  0  0
    2.7320    3.3988    0.0000 C   0  0  0  0  0  0  0  0  0  0  0  0
    3.2320    2.5328    0.0000 C   0  0  0  0  0  0  0  0  0  0  0  0
    4.5981    3.8988    0.0000 C   0  0  0  0  0  0  0  0  0  0  0  0
    5.4641    2.3988    0.0000 C   0  0  0  0  0  0  0  0  0  0  0  0
    6.3301    1.8988    0.0000 C   0  0  0  0  0  0  0  0  0  0  0  0
    4.5981    1.8988    0.0000 C   0  0  0  0  0  0  0  0  0  0  0  0
    6.3301    0.8988    0.0000 C   0  0  0  0  0  0  0  0  0  0  0  0
    4.5981    0.8988    0.0000 C   0  0  0  0  0  0  0  0  0  0  0  0
    5.4641   -0.6012    0.0000 C   0  0  0  0  0  0  0  0  0  0  0  0
    7.1962    4.3988    0.0000 C   0  0  0  0  0  0  0  0  0  0  0  0
    4.5981   -1.1012    0.0000 C   0  0  0  0  0  0  0  0  0  0  0  0
    8.1097    3.9920    0.0000 C   0  0  0  0  0  0  0  0  0  0  0  0
    7.3007    5.3933    0.0000 C   0  0  0  0  0  0  0  0  0  0  0  0
    9.7734    4.6307    0.0000 C   0  0  0  0  0  0  0  0  0  0  0  0
    3.7320   -2.6012    0.0000 C   0  0  0  0  0  0  0  0  0  0  0  0
    3.7320   -3.6012    0.0000 C   0  0  0  0  0  0  0  0  0  0  0  0
    2.8660   -2.1012    0.0000 C   0  0  0  0  0  0  0  0  0  0  0  0
    2.8660   -4.1012    0.0000 C   0  0  0  0  0  0  0  0  0  0  0  0
    4.5981   -4.1012    0.0000 C   0  0  0  0  0  0  0  0  0  0  0  0
    2.0000   -2.6012    0.0000 C   0  0  0  0  0  0  0  0  0  0  0  0
    2.0000   -3.6012    0.0000 C   0  0  0  0  0  0  0  0  0  0  0  0
    4.5981   -5.1012    0.0000 C   0  0  0  0  0  0  0  0  0  0  0  0
    5.4641   -3.6012    0.0000 C   0  0  0  0  0  0  0  0  0  0  0  0
    5.4641   -5.6012    0.0000 C   0  0  0  0  0  0  0  0  0  0  0  0
    6.3301   -4.1012    0.0000 C   0  0  0  0  0  0  0  0  0  0  0  0
    6.3301   -5.1012    0.0000 C   0  0  0  0  0  0  0  0  0  0  0  0
    3.5716    3.9977    0.0000 H   0  0  0  0  0  0  0  0  0  0  0  0
    2.6244    4.0094    0.0000 H   0  0  0  0  0  0  0  0  0  0  0  0
    2.1494    3.1867    0.0000 H   0  0  0  0  0  0  0  0  0  0  0  0
    2.7571    2.1342    0.0000 H   0  0  0  0  0  0  0  0  0  0  0  0
    3.7070    2.1342    0.0000 H   0  0  0  0  0  0  0  0  0  0  0  0
    4.9966    4.3737    0.0000 H   0  0  0  0  0  0  0  0  0  0  0  0
    4.1996    4.3737    0.0000 H   0  0  0  0  0  0  0  0  0  0  0  0
    6.0010    2.7088    0.0000 H   0  0  0  0  0  0  0  0  0  0  0  0
    6.9407    1.7911    0.0000 H   0  0  0  0  0  0  0  0  0  0  0  0
    6.5422    2.4814    0.0000 H   0  0  0  0  0  0  0  0  0  0  0  0
    4.3860    2.4814    0.0000 H   0  0  0  0  0  0  0  0  0  0  0  0
    3.9875    1.7911    0.0000 H   0  0  0  0  0  0  0  0  0  0  0  0
    6.5422    0.3162    0.0000 H   0  0  0  0  0  0  0  0  0  0  0  0
    6.9407    1.0064    0.0000 H   0  0  0  0  0  0  0  0  0  0  0  0
    3.9875    1.0064    0.0000 H   0  0  0  0  0  0  0  0  0  0  0  0
    4.3860    0.3162    0.0000 H   0  0  0  0  0  0  0  0  0  0  0  0
    5.6762   -1.1838    0.0000 H   0  0  0  0  0  0  0  0  0  0  0  0
    6.0747   -0.4936    0.0000 H   0  0  0  0  0  0  0  0  0  0  0  0
    4.3860   -0.5186    0.0000 H   0  0  0  0  0  0  0  0  0  0  0  0
    3.9875   -1.2089    0.0000 H   0  0  0  0  0  0  0  0  0  0  0  0
    8.2386    3.3856    0.0000 H   0  0  0  0  0  0  0  0  0  0  0  0
    6.8399    5.8082    0.0000 H   0  0  0  0  0  0  0  0  0  0  0  0
    9.7085    4.0141    0.0000 H   0  0  0  0  0  0  0  0  0  0  0  0
   10.3900    4.5659    0.0000 H   0  0  0  0  0  0  0  0  0  0  0  0
    9.8382    5.2473    0.0000 H   0  0  0  0  0  0  0  0  0  0  0  0
    2.8660   -1.4812    0.0000 H   0  0  0  0  0  0  0  0  0  0  0  0
    2.8660   -4.7212    0.0000 H   0  0  0  0  0  0  0  0  0  0  0  0
    1.4631   -2.2912    0.0000 H   0  0  0  0  0  0  0  0  0  0  0  0
    1.4631   -3.9112    0.0000 H   0  0  0  0  0  0  0  0  0  0  0  0
    4.0611   -5.4112    0.0000 H   0  0  0  0  0  0  0  0  0  0  0  0
    5.4641   -2.9812    0.0000 H   0  0  0  0  0  0  0  0  0  0  0  0
    5.4641   -6.2212    0.0000 H   0  0  0  0  0  0  0  0  0  0  0  0
    6.8671   -3.7912    0.0000 H   0  0  0  0  0  0  0  0  0  0  0  0
    6.8671   -5.4112    0.0000 H   0  0  0  0  0  0  0  0  0  0  0  0
  1  2  2  0  0  0  0
  1  3  2  0  0  0  0
  1  5  1  0  0  0  0
  1 19  1  0  0  0  0
  4 20  1  0  0  0  0
  4 24  1  0  0  0  0
  5 12  1  0  0  0  0
  5 13  1  0  0  0  0
  6 16  1  0  0  0  0
  6 17  1  0  0  0  0
  6 18  1  0  0  0  0
  7  8  1  0  0  0  0
  7 21  1  0  0  0  0
  7 23  1  0  0  0  0
  8 22  2  0  0  0  0
  9 10  1  0  0  0  0
  9 11  1  0  0  0  0
  9 12  1  0  0  0  0
  9 36  1  0  0  0  0
 10 11  1  0  0  0  0
 10 37  1  0  0  0  0
 10 38  1  0  0  0  0
 11 39  1  0  0  0  0
 11 40  1  0  0  0  0
 12 41  1  0  0  0  0
 12 42  1  0  0  0  0
 13 14  1  0  0  0  0
 13 15  1  0  0  0  0
 13 43  1  0  0  0  0
 14 16  1  0  0  0  0
 14 44  1  0  0  0  0
 14 45  1  0  0  0  0
 15 17  1  0  0  0  0
 15 46  1  0  0  0  0
 15 47  1  0  0  0  0
 16 48  1  0  0  0  0
 16 49  1  0  0  0  0
 17 50  1  0  0  0  0
 17 51  1  0  0  0  0
 18 20  1  0  0  0  0
 18 52  1  0  0  0  0
 18 53  1  0  0  0  0
 19 21  2  0  0  0  0
 19 22  1  0  0  0  0
 20 54  1  0  0  0  0
 20 55  1  0  0  0  0
 21 56  1  0  0  0  0
 22 57  1  0  0  0  0
 23 58  1  0  0  0  0
 23 59  1  0  0  0  0
 23 60  1  0  0  0  0
 24 25  1  0  0  0  0
 24 26  2  0  0  0  0
 25 27  2  0  0  0  0
 25 28  1  0  0  0  0
 26 29  1  0  0  0  0
 26 61  1  0  0  0  0
 27 30  1  0  0  0  0
 27 62  1  0  0  0  0
 28 31  2  0  0  0  0
 28 32  1  0  0  0  0
 29 30  2  0  0  0  0
 29 63  1  0  0  0  0
 30 64  1  0  0  0  0
 31 33  1  0  0  0  0
 31 65  1  0  0  0  0
 32 34  2  0  0  0  0
 32 66  1  0  0  0  0
 33 35  2  0  0  0  0
 33 67  1  0  0  0  0
 34 35  1  0  0  0  0
 34 68  1  0  0  0  0
 35 69  1  0  0  0  0
M  END
> <PUBCHEM_COMPOUND_CID>
127038281

> <PUBCHEM_COMPOUND_CANONICALIZED>
1

> <PUBCHEM_CACTVS_COMPLEXITY>
757

> <PUBCHEM_CACTVS_HBOND_ACCEPTOR>
6

> <PUBCHEM_CACTVS_HBOND_DONOR>
0

> <PUBCHEM_CACTVS_ROTATABLE_BOND>
10

> <PUBCHEM_CACTVS_SUBSKEYS>
AAADcfB7sABAAAAAAAAAAAAAGAAAAWAAAAA8YIAAAAAAAAAB0AAAHgQIQAAADSzh2gY+h5MIBAKiAjBnRHDSDBAxoAAY2CwuTJgOJqLE8VqHvCikyBHYqAeQwOAOgAAAAAAIAAAAAAAAABAAAAAAAAAAAA==

> <PUBCHEM_IUPAC_OPENEYE_NAME>
N-(cyclopropylmethyl)-1-methyl-N-[1-[2-(2-phenylphenoxy)ethyl]-4-piperidyl]pyrazole-4-sulfonamide

> <PUBCHEM_IUPAC_CAS_NAME>
N-(cyclopropylmethyl)-1-methyl-N-[1-[2-(2-phenylphenoxy)ethyl]-4-piperidinyl]-4-pyrazolesulfonamide

> <PUBCHEM_IUPAC_NAME_MARKUP>
<I>N</I>-(cyclopropylmethyl)-1-methyl-<I>N</I>-[1-[2-(2-phenylphenoxy)ethyl]piperidin-4-yl]pyrazole-4-sulfonamide

> <PUBCHEM_IUPAC_NAME>
N-(cyclopropylmethyl)-1-methyl-N-[1-[2-(2-phenylphenoxy)ethyl]piperidin-4-yl]pyrazole-4-sulfonamide

> <PUBCHEM_IUPAC_SYSTEMATIC_NAME>
N-(cyclopropylmethyl)-1-methyl-N-[1-[2-(2-phenylphenoxy)ethyl]piperidin-4-yl]pyrazole-4-sulfonamide

> <PUBCHEM_IUPAC_TRADITIONAL_NAME>
N-(cyclopropylmethyl)-1-methyl-N-[1-[2-(2-phenylphenoxy)ethyl]-4-piperidyl]pyrazole-4-sulfonamide

> <PUBCHEM_IUPAC_INCHI>
InChI=1S/C27H34N4O3S/c1-29-21-25(19-28-29)35(32,33)31(20-22-11-12-22)24-13-15-30(16-14-24)17-18-34-27-10-6-5-9-26(27)23-7-3-2-4-8-23/h2-10,19,21-22,24H,11-18,20H2,1H3

> <PUBCHEM_IUPAC_INCHIKEY>
GGDBGNYGXSSSQM-UHFFFAOYSA-N

> <PUBCHEM_XLOGP3_AA>
4

> <PUBCHEM_EXACT_MASS>
494.23516213

> <PUBCHEM_MOLECULAR_FORMULA>
C27H34N4O3S

> <PUBCHEM_MOLECULAR_WEIGHT>
494.7

> <PUBCHEM_OPENEYE_CAN_SMILES>
CN1C=C(C=N1)S(=O)(=O)N(CC2CC2)C3CCN(CC3)CCOC4=CC=CC=C4C5=CC=CC=C5

> <PUBCHEM_OPENEYE_ISO_SMILES>
CN1C=C(C=N1)S(=O)(=O)N(CC2CC2)C3CCN(CC3)CCOC4=CC=CC=C4C5=CC=CC=C5

> <PUBCHEM_CACTVS_TPSA>
76

> <PUBCHEM_MONOISOTOPIC_WEIGHT>
494.23516213

> <PUBCHEM_TOTAL_CHARGE>
0

> <PUBCHEM_HEAVY_ATOM_COUNT>
35

> <PUBCHEM_ATOM_DEF_STEREO_COUNT>
0

> <PUBCHEM_ATOM_UDEF_STEREO_COUNT>
0

> <PUBCHEM_BOND_DEF_STEREO_COUNT>
0

> <PUBCHEM_BOND_UDEF_STEREO_COUNT>
0

> <PUBCHEM_ISOTOPIC_ATOM_COUNT>
0

> <PUBCHEM_COMPONENT_COUNT>
1

> <PUBCHEM_CACTVS_TAUTO_COUNT>
-1

> <PUBCHEM_COORDINATE_TYPE>
1
5
255

> <PUBCHEM_BONDANNOTATIONS>
19  21  8
19  22  8
24  25  8
24  26  8
25  27  8
26  29  8
27  30  8
28  31  8
28  32  8
29  30  8
31  33  8
32  34  8
33  35  8
34  35  8
7  21  8
7  8  8
8  22  8

$$$$
