155557792
  -OEChem-09292322412D

 60 63  0     1  0  0  0  0  0999 V2000
   10.6603   -0.2990    0.0000 O   0  0  0  0  0  0  0  0  0  0  0  0
    8.9282   -1.2990    0.0000 O   0  0  0  0  0  0  0  0  0  0  0  0
    4.5981    0.2010    0.0000 O   0  0  0  0  0  0  0  0  0  0  0  0
    4.5981   -1.7990    0.0000 O   0  0  0  0  0  0  0  0  0  0  0  0
    7.1962   -0.2990    0.0000 N   0  0  0  0  0  0  0  0  0  0  0  0
    9.7942    0.2010    0.0000 C   0  0  0  0  0  0  0  0  0  0  0  0
    8.9282   -0.2990    0.0000 C   0  0  3  0  0  0  0  0  0  0  0  0
    8.0622    0.2010    0.0000 C   0  0  0  0  0  0  0  0  0  0  0  0
   10.7339    0.5430    0.0000 C   0  0  0  0  0  0  0  0  0  0  0  0
    9.2942    1.0670    0.0000 C   0  0  0  0  0  0  0  0  0  0  0  0
   10.6603   -1.2990    0.0000 C   0  0  0  0  0  0  0  0  0  0  0  0
    9.7942   -1.7990    0.0000 C   0  0  0  0  0  0  0  0  0  0  0  0
   10.9076    1.5278    0.0000 C   0  0  0  0  0  0  0  0  0  0  0  0
    8.2942    1.0670    0.0000 C   0  0  0  0  0  0  0  0  0  0  0  0
   11.5000   -0.0998    0.0000 C   0  0  0  0  0  0  0  0  0  0  0  0
    9.7942    1.9330    0.0000 C   0  0  0  0  0  0  0  0  0  0  0  0
    6.3301    0.2010    0.0000 C   0  0  0  0  0  0  0  0  0  0  0  0
   11.8473    1.8698    0.0000 C   0  0  0  0  0  0  0  0  0  0  0  0
    7.7942    1.9330    0.0000 C   0  0  0  0  0  0  0  0  0  0  0  0
   12.4397    0.2422    0.0000 C   0  0  0  0  0  0  0  0  0  0  0  0
    9.2942    2.7990    0.0000 C   0  0  0  0  0  0  0  0  0  0  0  0
    5.4641   -0.2990    0.0000 C   0  0  0  0  0  0  0  0  0  0  0  0
   12.6133    1.2270    0.0000 C   0  0  0  0  0  0  0  0  0  0  0  0
    8.2942    2.7990    0.0000 C   0  0  0  0  0  0  0  0  0  0  0  0
    3.7320   -0.2990    0.0000 C   0  0  0  0  0  0  0  0  0  0  0  0
    3.7320   -1.2990    0.0000 C   0  0  0  0  0  0  0  0  0  0  0  0
    2.8660    0.2010    0.0000 C   0  0  0  0  0  0  0  0  0  0  0  0
    2.8660   -1.7990    0.0000 C   0  0  0  0  0  0  0  0  0  0  0  0
    2.0000   -0.2990    0.0000 C   0  0  0  0  0  0  0  0  0  0  0  0
    2.0000   -1.2990    0.0000 C   0  0  0  0  0  0  0  0  0  0  0  0
    4.5981   -2.7990    0.0000 C   0  0  0  0  0  0  0  0  0  0  0  0
    8.3913   -0.6090    0.0000 H   0  0  0  0  0  0  0  0  0  0  0  0
    8.4607    0.6759    0.0000 H   0  0  0  0  0  0  0  0  0  0  0  0
    7.6636    0.6759    0.0000 H   0  0  0  0  0  0  0  0  0  0  0  0
   10.8723   -1.8816    0.0000 H   0  0  0  0  0  0  0  0  0  0  0  0
   11.2708   -1.1914    0.0000 H   0  0  0  0  0  0  0  0  0  0  0  0
    9.3957   -2.2740    0.0000 H   0  0  0  0  0  0  0  0  0  0  0  0
   10.1928   -2.2740    0.0000 H   0  0  0  0  0  0  0  0  0  0  0  0
    7.1962   -0.9190    0.0000 H   0  0  0  0  0  0  0  0  0  0  0  0
   10.4326    1.9263    0.0000 H   0  0  0  0  0  0  0  0  0  0  0  0
    7.9842    0.5301    0.0000 H   0  0  0  0  0  0  0  0  0  0  0  0
   11.3923   -0.7104    0.0000 H   0  0  0  0  0  0  0  0  0  0  0  0
   10.4142    1.9330    0.0000 H   0  0  0  0  0  0  0  0  0  0  0  0
    6.7287    0.6759    0.0000 H   0  0  0  0  0  0  0  0  0  0  0  0
    5.9316    0.6759    0.0000 H   0  0  0  0  0  0  0  0  0  0  0  0
   11.9549    2.4804    0.0000 H   0  0  0  0  0  0  0  0  0  0  0  0
    7.1742    1.9330    0.0000 H   0  0  0  0  0  0  0  0  0  0  0  0
   12.9146   -0.1563    0.0000 H   0  0  0  0  0  0  0  0  0  0  0  0
    9.6042    3.3360    0.0000 H   0  0  0  0  0  0  0  0  0  0  0  0
    5.0656   -0.7740    0.0000 H   0  0  0  0  0  0  0  0  0  0  0  0
    5.8626   -0.7740    0.0000 H   0  0  0  0  0  0  0  0  0  0  0  0
   13.1959    1.4391    0.0000 H   0  0  0  0  0  0  0  0  0  0  0  0
    7.9842    3.3360    0.0000 H   0  0  0  0  0  0  0  0  0  0  0  0
    2.8660    0.8210    0.0000 H   0  0  0  0  0  0  0  0  0  0  0  0
    2.8660   -2.4190    0.0000 H   0  0  0  0  0  0  0  0  0  0  0  0
    1.4631    0.0110    0.0000 H   0  0  0  0  0  0  0  0  0  0  0  0
    1.4631   -1.6090    0.0000 H   0  0  0  0  0  0  0  0  0  0  0  0
    3.9781   -2.7990    0.0000 H   0  0  0  0  0  0  0  0  0  0  0  0
    4.5981   -3.4190    0.0000 H   0  0  0  0  0  0  0  0  0  0  0  0
    5.2181   -2.7990    0.0000 H   0  0  0  0  0  0  0  0  0  0  0  0
  1  6  1  0  0  0  0
  1 11  1  0  0  0  0
  2  7  1  0  0  0  0
  2 12  1  0  0  0  0
  3 22  1  0  0  0  0
  3 25  1  0  0  0  0
  4 26  1  0  0  0  0
  4 31  1  0  0  0  0
  5  8  1  0  0  0  0
  5 17  1  0  0  0  0
  5 39  1  0  0  0  0
  6  7  1  0  0  0  0
  6  9  1  0  0  0  0
  6 10  1  0  0  0  0
  7  8  1  0  0  0  0
  7 32  1  0  0  0  0
  8 33  1  0  0  0  0
  8 34  1  0  0  0  0
  9 13  2  0  0  0  0
  9 15  1  0  0  0  0
 10 14  2  0  0  0  0
 10 16  1  0  0  0  0
 11 12  1  0  0  0  0
 11 35  1  0  0  0  0
 11 36  1  0  0  0  0
 12 37  1  0  0  0  0
 12 38  1  0  0  0  0
 13 18  1  0  0  0  0
 13 40  1  0  0  0  0
 14 19  1  0  0  0  0
 14 41  1  0  0  0  0
 15 20  2  0  0  0  0
 15 42  1  0  0  0  0
 16 21  2  0  0  0  0
 16 43  1  0  0  0  0
 17 22  1  0  0  0  0
 17 44  1  0  0  0  0
 17 45  1  0  0  0  0
 18 23  2  0  0  0  0
 18 46  1  0  0  0  0
 19 24  2  0  0  0  0
 19 47  1  0  0  0  0
 20 23  1  0  0  0  0
 20 48  1  0  0  0  0
 21 24  1  0  0  0  0
 21 49  1  0  0  0  0
 22 50  1  0  0  0  0
 22 51  1  0  0  0  0
 23 52  1  0  0  0  0
 24 53  1  0  0  0  0
 25 26  1  0  0  0  0
 25 27  2  0  0  0  0
 26 28  2  0  0  0  0
 27 29  1  0  0  0  0
 27 54  1  0  0  0  0
 28 30  1  0  0  0  0
 28 55  1  0  0  0  0
 29 30  2  0  0  0  0
 29 56  1  0  0  0  0
 30 57  1  0  0  0  0
 31 58  1  0  0  0  0
 31 59  1  0  0  0  0
 31 60  1  0  0  0  0
M  END
> <PUBCHEM_COMPOUND_CID>
155557792

> <PUBCHEM_COMPOUND_CANONICALIZED>
1

> <PUBCHEM_CACTVS_COMPLEXITY>
486

> <PUBCHEM_CACTVS_HBOND_ACCEPTOR>
5

> <PUBCHEM_CACTVS_HBOND_DONOR>
1

> <PUBCHEM_CACTVS_ROTATABLE_BOND>
9

> <PUBCHEM_CACTVS_SUBSKEYS>
AAADceB6OAAAAAAAAAAAAAAAAAAAAAAAAAA0YMEAAAAAAAABUAAAHgAQAAAADFThmAYyBoLABACAAiBCAAACCAAgIAAIiIAOiIgPJiKEsRqHOCKm0BGaqAeQwOAOgAAAAAAAQAAAAAAAAACAAAAAAAAAAA==

> <PUBCHEM_IUPAC_OPENEYE_NAME>
N-[(3,3-diphenyl-1,4-dioxan-2-yl)methyl]-2-(2-methoxyphenoxy)ethanamine

> <PUBCHEM_IUPAC_CAS_NAME>
N-[(3,3-diphenyl-1,4-dioxan-2-yl)methyl]-2-(2-methoxyphenoxy)ethanamine

> <PUBCHEM_IUPAC_NAME_MARKUP>
<I>N</I>-[(3,3-diphenyl-1,4-dioxan-2-yl)methyl]-2-(2-methoxyphenoxy)ethanamine

> <PUBCHEM_IUPAC_NAME>
N-[(3,3-diphenyl-1,4-dioxan-2-yl)methyl]-2-(2-methoxyphenoxy)ethanamine

> <PUBCHEM_IUPAC_SYSTEMATIC_NAME>
N-[(3,3-diphenyl-1,4-dioxan-2-yl)methyl]-2-(2-methoxyphenoxy)ethanamine

> <PUBCHEM_IUPAC_TRADITIONAL_NAME>
(3,3-diphenyl-1,4-dioxan-2-yl)methyl-[2-(2-methoxyphenoxy)ethyl]amine

> <PUBCHEM_IUPAC_INCHI>
InChI=1S/C26H29NO4/c1-28-23-14-8-9-15-24(23)29-17-16-27-20-25-26(31-19-18-30-25,21-10-4-2-5-11-21)22-12-6-3-7-13-22/h2-15,25,27H,16-20H2,1H3

> <PUBCHEM_IUPAC_INCHIKEY>
XPLYYMRQGCFSNB-UHFFFAOYSA-N

> <PUBCHEM_XLOGP3_AA>
4

> <PUBCHEM_EXACT_MASS>
419.20965841

> <PUBCHEM_MOLECULAR_FORMULA>
C26H29NO4

> <PUBCHEM_MOLECULAR_WEIGHT>
419.5

> <PUBCHEM_OPENEYE_CAN_SMILES>
COC1=CC=CC=C1OCCNCC2C(OCCO2)(C3=CC=CC=C3)C4=CC=CC=C4

> <PUBCHEM_OPENEYE_ISO_SMILES>
COC1=CC=CC=C1OCCNCC2C(OCCO2)(C3=CC=CC=C3)C4=CC=CC=C4

> <PUBCHEM_CACTVS_TPSA>
49

> <PUBCHEM_MONOISOTOPIC_WEIGHT>
419.20965841

> <PUBCHEM_TOTAL_CHARGE>
0

> <PUBCHEM_HEAVY_ATOM_COUNT>
31

> <PUBCHEM_ATOM_DEF_STEREO_COUNT>
0

> <PUBCHEM_ATOM_UDEF_STEREO_COUNT>
1

> <PUBCHEM_BOND_DEF_STEREO_COUNT>
0

> <PUBCHEM_BOND_UDEF_STEREO_COUNT>
0

> <PUBCHEM_ISOTOPIC_ATOM_COUNT>
0

> <PUBCHEM_COMPONENT_COUNT>
1

> <PUBCHEM_CACTVS_TAUTO_COUNT>
-1

> <PUBCHEM_COORDINATE_TYPE>
1
5
255

> <PUBCHEM_BONDANNOTATIONS>
10  14  8
10  16  8
13  18  8
14  19  8
15  20  8
16  21  8
18  23  8
19  24  8
20  23  8
21  24  8
25  26  8
25  27  8
26  28  8
27  29  8
28  30  8
29  30  8
7  8  3
9  13  8
9  15  8

$$$$
