71450871
  -OEChem-09292322102D

 62 63  0     1  0  0  0  0  0999 V2000
    3.0134    0.6200    0.0000 Cl  0  0  0  0  0  0  0  0  0  0  0  0
    0.0000    6.3557    0.0000 Cl  0  0  0  0  0  0  0  0  0  0  0  0
    7.5784   12.7113    0.0000 Cl  0  0  0  0  0  0  0  0  0  0  0  0
   11.6900    9.6546    0.0000 O   0  0  0  0  0  0  0  0  0  0  0  0
    8.2096    3.6200    0.0000 N   0  0  0  0  0  0  0  0  0  0  0  0
    9.9416    5.6200    0.0000 N   0  0  0  0  0  0  0  0  0  0  0  0
    6.4775    2.6200    0.0000 N   0  0  0  0  0  0  0  0  0  0  0  0
    9.9416    6.6200    0.0000 C   0  0  3  0  0  0  0  0  0  0  0  0
    9.0756    7.1200    0.0000 C   0  0  0  0  0  0  0  0  0  0  0  0
    9.0756    8.1200    0.0000 C   0  0  0  0  0  0  0  0  0  0  0  0
   10.8077    7.1200    0.0000 C   0  0  0  0  0  0  0  0  0  0  0  0
    9.0756    4.1200    0.0000 C   0  0  0  0  0  0  0  0  0  0  0  0
    9.9416    8.6200    0.0000 C   0  0  0  0  0  0  0  0  0  0  0  0
    7.3436    4.1200    0.0000 C   0  0  0  0  0  0  0  0  0  0  0  0
    8.2096    2.6200    0.0000 C   0  0  0  0  0  0  0  0  0  0  0  0
   10.8077    8.1200    0.0000 C   0  0  0  0  0  0  0  0  0  0  0  0
    9.0756    5.1200    0.0000 C   0  0  0  0  0  0  0  0  0  0  0  0
    6.4775    3.6200    0.0000 C   0  0  0  0  0  0  0  0  0  0  0  0
    7.3436    2.1200    0.0000 C   0  0  0  0  0  0  0  0  0  0  0  0
   11.7016    6.5853    0.0000 C   0  0  0  0  0  0  0  0  0  0  0  0
   11.7016    8.6547    0.0000 C   0  0  0  0  0  0  0  0  0  0  0  0
    5.6115    2.1200    0.0000 C   0  0  0  0  0  0  0  0  0  0  0  0
   12.6077    7.0992    0.0000 C   0  0  0  0  0  0  0  0  0  0  0  0
   12.6077    8.1408    0.0000 C   0  0  0  0  0  0  0  0  0  0  0  0
    5.6115    1.1200    0.0000 C   0  0  0  0  0  0  0  0  0  0  0  0
    4.7455    2.6200    0.0000 C   0  0  0  0  0  0  0  0  0  0  0  0
    4.7455    0.6200    0.0000 C   0  0  0  0  0  0  0  0  0  0  0  0
    3.8794    2.1200    0.0000 C   0  0  0  0  0  0  0  0  0  0  0  0
   12.5502   10.1646    0.0000 C   0  0  0  0  0  0  0  0  0  0  0  0
    3.8794    1.1200    0.0000 C   0  0  0  0  0  0  0  0  0  0  0  0
   10.4786    6.3100    0.0000 H   0  0  0  0  0  0  0  0  0  0  0  0
    8.4650    7.2277    0.0000 H   0  0  0  0  0  0  0  0  0  0  0  0
    8.8636    6.5374    0.0000 H   0  0  0  0  0  0  0  0  0  0  0  0
    8.8636    8.7026    0.0000 H   0  0  0  0  0  0  0  0  0  0  0  0
    8.4650    8.0123    0.0000 H   0  0  0  0  0  0  0  0  0  0  0  0
    9.2877    3.5374    0.0000 H   0  0  0  0  0  0  0  0  0  0  0  0
    9.6862    4.2277    0.0000 H   0  0  0  0  0  0  0  0  0  0  0  0
   10.3402    9.0950    0.0000 H   0  0  0  0  0  0  0  0  0  0  0  0
    9.5431    9.0950    0.0000 H   0  0  0  0  0  0  0  0  0  0  0  0
    7.7421    4.5950    0.0000 H   0  0  0  0  0  0  0  0  0  0  0  0
    6.9450    4.5950    0.0000 H   0  0  0  0  0  0  0  0  0  0  0  0
    8.4216    2.0374    0.0000 H   0  0  0  0  0  0  0  0  0  0  0  0
    8.8202    2.7277    0.0000 H   0  0  0  0  0  0  0  0  0  0  0  0
    8.8636    5.7026    0.0000 H   0  0  0  0  0  0  0  0  0  0  0  0
    8.4650    5.0123    0.0000 H   0  0  0  0  0  0  0  0  0  0  0  0
   10.4786    5.3100    0.0000 H   0  0  0  0  0  0  0  0  0  0  0  0
    6.2655    4.2026    0.0000 H   0  0  0  0  0  0  0  0  0  0  0  0
    5.8670    3.5123    0.0000 H   0  0  0  0  0  0  0  0  0  0  0  0
    6.9450    1.6450    0.0000 H   0  0  0  0  0  0  0  0  0  0  0  0
    7.7421    1.6450    0.0000 H   0  0  0  0  0  0  0  0  0  0  0  0
   11.6944    5.9654    0.0000 H   0  0  0  0  0  0  0  0  0  0  0  0
   13.1434    6.7871    0.0000 H   0  0  0  0  0  0  0  0  0  0  0  0
   13.1434    8.4529    0.0000 H   0  0  0  0  0  0  0  0  0  0  0  0
    6.1484    0.8100    0.0000 H   0  0  0  0  0  0  0  0  0  0  0  0
    4.7455    3.2400    0.0000 H   0  0  0  0  0  0  0  0  0  0  0  0
    4.7455    0.0000    0.0000 H   0  0  0  0  0  0  0  0  0  0  0  0
    3.3425    2.4300    0.0000 H   0  0  0  0  0  0  0  0  0  0  0  0
   12.8664    9.6313    0.0000 H   0  0  0  0  0  0  0  0  0  0  0  0
   13.0835   10.4808    0.0000 H   0  0  0  0  0  0  0  0  0  0  0  0
   12.2340   10.6979    0.0000 H   0  0  0  0  0  0  0  0  0  0  0  0
    1.0000    6.3557    0.0000 H   0  0  0  0  0  0  0  0  0  0  0  0
    8.5784   12.7113    0.0000 H   0  0  0  0  0  0  0  0  0  0  0  0
  1 30  1  0  0  0  0
  2 61  1  0  0  0  0
  3 62  1  0  0  0  0
  4 21  1  0  0  0  0
  4 29  1  0  0  0  0
  5 12  1  0  0  0  0
  5 14  1  0  0  0  0
  5 15  1  0  0  0  0
  6  8  1  0  0  0  0
  6 17  1  0  0  0  0
  6 46  1  0  0  0  0
  7 18  1  0  0  0  0
  7 19  1  0  0  0  0
  7 22  1  0  0  0  0
  8  9  1  0  0  0  0
  8 11  1  0  0  0  0
  8 31  1  0  0  0  0
  9 10  1  0  0  0  0
  9 32  1  0  0  0  0
  9 33  1  0  0  0  0
 10 13  1  0  0  0  0
 10 34  1  0  0  0  0
 10 35  1  0  0  0  0
 11 16  2  0  0  0  0
 11 20  1  0  0  0  0
 12 17  1  0  0  0  0
 12 36  1  0  0  0  0
 12 37  1  0  0  0  0
 13 16  1  0  0  0  0
 13 38  1  0  0  0  0
 13 39  1  0  0  0  0
 14 18  1  0  0  0  0
 14 40  1  0  0  0  0
 14 41  1  0  0  0  0
 15 19  1  0  0  0  0
 15 42  1  0  0  0  0
 15 43  1  0  0  0  0
 16 21  1  0  0  0  0
 17 44  1  0  0  0  0
 17 45  1  0  0  0  0
 18 47  1  0  0  0  0
 18 48  1  0  0  0  0
 19 49  1  0  0  0  0
 19 50  1  0  0  0  0
 20 23  2  0  0  0  0
 20 51  1  0  0  0  0
 21 24  2  0  0  0  0
 22 25  2  0  0  0  0
 22 26  1  0  0  0  0
 23 24  1  0  0  0  0
 23 52  1  0  0  0  0
 24 53  1  0  0  0  0
 25 27  1  0  0  0  0
 25 54  1  0  0  0  0
 26 28  2  0  0  0  0
 26 55  1  0  0  0  0
 27 30  2  0  0  0  0
 27 56  1  0  0  0  0
 28 30  1  0  0  0  0
 28 57  1  0  0  0  0
 29 58  1  0  0  0  0
 29 59  1  0  0  0  0
 29 60  1  0  0  0  0
M  END
> <PUBCHEM_COMPOUND_CID>
71450871

> <PUBCHEM_COMPOUND_CANONICALIZED>
1

> <PUBCHEM_CACTVS_COMPLEXITY>
463

> <PUBCHEM_CACTVS_HBOND_ACCEPTOR>
4

> <PUBCHEM_CACTVS_HBOND_DONOR>
3

> <PUBCHEM_CACTVS_ROTATABLE_BOND>
6

> <PUBCHEM_CACTVS_SUBSKEYS>
AAADcfB7IAAGAAAAAAAAAAAAAAAAAAAAAAA8YMEAAAAAAADBQAAAHgIQAAAADC7BmCYyxoPABACAAiRCQACCCAAhJwAIiIAObogMZiLFs5uUMChk0BHI6AewwLAOgABBAAAYAAAAAIKAADQAAAAAAAAAAA==

> <PUBCHEM_IUPAC_OPENEYE_NAME>
N-[2-[4-(4-chlorophenyl)piperazin-1-yl]ethyl]-5-methoxy-tetralin-1-amine;dihydrochloride

> <PUBCHEM_IUPAC_CAS_NAME>
N-[2-[4-(4-chlorophenyl)-1-piperazinyl]ethyl]-5-methoxy-1,2,3,4-tetrahydronaphthalen-1-amine;dihydrochloride

> <PUBCHEM_IUPAC_NAME_MARKUP>
<I>N</I>-[2-[4-(4-chlorophenyl)piperazin-1-yl]ethyl]-5-methoxy-1,2,3,4-tetrahydronaphthalen-1-amine;dihydrochloride

> <PUBCHEM_IUPAC_NAME>
N-[2-[4-(4-chlorophenyl)piperazin-1-yl]ethyl]-5-methoxy-1,2,3,4-tetrahydronaphthalen-1-amine;dihydrochloride

> <PUBCHEM_IUPAC_SYSTEMATIC_NAME>
N-[2-[4-(4-chlorophenyl)piperazin-1-yl]ethyl]-5-methoxy-1,2,3,4-tetrahydronaphthalen-1-amine;dihydrochloride

> <PUBCHEM_IUPAC_TRADITIONAL_NAME>
2-[4-(4-chlorophenyl)piperazino]ethyl-(5-methoxytetralin-1-yl)amine;dihydrochloride

> <PUBCHEM_IUPAC_INCHI>
InChI=1S/C23H30ClN3O.2ClH/c1-28-23-7-3-4-20-21(23)5-2-6-22(20)25-12-13-26-14-16-27(17-15-26)19-10-8-18(24)9-11-19;;/h3-4,7-11,22,25H,2,5-6,12-17H2,1H3;2*1H

> <PUBCHEM_IUPAC_INCHIKEY>
VVNWKMPTWJQCTA-UHFFFAOYSA-N

> <PUBCHEM_EXACT_MASS>
471.161096

> <PUBCHEM_MOLECULAR_FORMULA>
C23H32Cl3N3O

> <PUBCHEM_MOLECULAR_WEIGHT>
472.9

> <PUBCHEM_OPENEYE_CAN_SMILES>
COC1=CC=CC2=C1CCCC2NCCN3CCN(CC3)C4=CC=C(C=C4)Cl.Cl.Cl

> <PUBCHEM_OPENEYE_ISO_SMILES>
COC1=CC=CC2=C1CCCC2NCCN3CCN(CC3)C4=CC=C(C=C4)Cl.Cl.Cl

> <PUBCHEM_CACTVS_TPSA>
27.7

> <PUBCHEM_MONOISOTOPIC_WEIGHT>
471.161096

> <PUBCHEM_TOTAL_CHARGE>
0

> <PUBCHEM_HEAVY_ATOM_COUNT>
30

> <PUBCHEM_ATOM_DEF_STEREO_COUNT>
0

> <PUBCHEM_ATOM_UDEF_STEREO_COUNT>
1

> <PUBCHEM_BOND_DEF_STEREO_COUNT>
0

> <PUBCHEM_BOND_UDEF_STEREO_COUNT>
0

> <PUBCHEM_ISOTOPIC_ATOM_COUNT>
0

> <PUBCHEM_COMPONENT_COUNT>
3

> <PUBCHEM_CACTVS_TAUTO_COUNT>
-1

> <PUBCHEM_COORDINATE_TYPE>
1
5
255

> <PUBCHEM_BONDANNOTATIONS>
11  16  8
11  20  8
16  21  8
20  23  8
21  24  8
22  25  8
22  26  8
23  24  8
25  27  8
26  28  8
27  30  8
28  30  8
8  6  3

$$$$
