44317229
  -OEChem-09292322212D

 62 65  0     0  0  0  0  0  0999 V2000
    2.0000   -4.7694    0.0000 Cl  0  0  0  0  0  0  0  0  0  0  0  0
    2.0000   -6.7694    0.0000 Cl  0  0  0  0  0  0  0  0  0  0  0  0
    6.2731    5.8184    0.0000 S   0  0  0  0  0  0  0  0  0  0  0  0
    6.3301    3.7306    0.0000 O   0  0  0  0  0  0  0  0  0  0  0  0
    3.7320   -1.7694    0.0000 N   0  0  0  0  0  0  0  0  0  0  0  0
    4.5981    3.7306    0.0000 N   0  0  0  0  0  0  0  0  0  0  0  0
    3.7320   -3.7694    0.0000 N   0  0  0  0  0  0  0  0  0  0  0  0
    4.5981    0.7306    0.0000 C   0  0  0  0  0  0  0  0  0  0  0  0
    3.7320    1.2306    0.0000 C   0  0  0  0  0  0  0  0  0  0  0  0
    5.4641    1.2306    0.0000 C   0  0  0  0  0  0  0  0  0  0  0  0
    4.5981    2.7306    0.0000 C   0  0  0  0  0  0  0  0  0  0  0  0
    3.7320    2.2306    0.0000 C   0  0  0  0  0  0  0  0  0  0  0  0
    5.4641    2.2306    0.0000 C   0  0  0  0  0  0  0  0  0  0  0  0
    4.5981   -0.2694    0.0000 C   0  0  0  0  0  0  0  0  0  0  0  0
    3.7320   -0.7694    0.0000 C   0  0  0  0  0  0  0  0  0  0  0  0
    4.5981   -2.2694    0.0000 C   0  0  0  0  0  0  0  0  0  0  0  0
    2.8660   -2.2694    0.0000 C   0  0  0  0  0  0  0  0  0  0  0  0
    4.5981   -3.2694    0.0000 C   0  0  0  0  0  0  0  0  0  0  0  0
    2.8660   -3.2694    0.0000 C   0  0  0  0  0  0  0  0  0  0  0  0
    3.7320    4.2306    0.0000 C   0  0  0  0  0  0  0  0  0  0  0  0
    5.4641    4.2306    0.0000 C   0  0  0  0  0  0  0  0  0  0  0  0
    3.7320   -4.7694    0.0000 C   0  0  0  0  0  0  0  0  0  0  0  0
    5.4641    5.2306    0.0000 C   0  0  0  0  0  0  0  0  0  0  0  0
    2.8660   -5.2694    0.0000 C   0  0  0  0  0  0  0  0  0  0  0  0
    4.5981   -5.2694    0.0000 C   0  0  0  0  0  0  0  0  0  0  0  0
    4.6551    5.8184    0.0000 C   0  0  0  0  0  0  0  0  0  0  0  0
    2.8660   -6.2694    0.0000 C   0  0  0  0  0  0  0  0  0  0  0  0
    4.5981   -6.2694    0.0000 C   0  0  0  0  0  0  0  0  0  0  0  0
    3.7320   -6.7694    0.0000 C   0  0  0  0  0  0  0  0  0  0  0  0
    4.9641    6.7694    0.0000 C   0  0  0  0  0  0  0  0  0  0  0  0
    5.9641    6.7694    0.0000 C   0  0  0  0  0  0  0  0  0  0  0  0
    5.1350    0.4206    0.0000 H   0  0  0  0  0  0  0  0  0  0  0  0
    3.1215    1.3382    0.0000 H   0  0  0  0  0  0  0  0  0  0  0  0
    3.5200    0.6480    0.0000 H   0  0  0  0  0  0  0  0  0  0  0  0
    5.6762    0.6480    0.0000 H   0  0  0  0  0  0  0  0  0  0  0  0
    6.0747    1.3382    0.0000 H   0  0  0  0  0  0  0  0  0  0  0  0
    5.1350    3.0406    0.0000 H   0  0  0  0  0  0  0  0  0  0  0  0
    3.5200    2.8132    0.0000 H   0  0  0  0  0  0  0  0  0  0  0  0
    3.1215    2.1229    0.0000 H   0  0  0  0  0  0  0  0  0  0  0  0
    6.0747    2.1229    0.0000 H   0  0  0  0  0  0  0  0  0  0  0  0
    5.6762    2.8132    0.0000 H   0  0  0  0  0  0  0  0  0  0  0  0
    4.8101   -0.8520    0.0000 H   0  0  0  0  0  0  0  0  0  0  0  0
    5.2087   -0.1618    0.0000 H   0  0  0  0  0  0  0  0  0  0  0  0
    3.5200   -0.1868    0.0000 H   0  0  0  0  0  0  0  0  0  0  0  0
    3.1215   -0.8771    0.0000 H   0  0  0  0  0  0  0  0  0  0  0  0
    5.2087   -2.3771    0.0000 H   0  0  0  0  0  0  0  0  0  0  0  0
    4.8101   -1.6868    0.0000 H   0  0  0  0  0  0  0  0  0  0  0  0
    2.6540   -1.6868    0.0000 H   0  0  0  0  0  0  0  0  0  0  0  0
    2.2554   -2.3771    0.0000 H   0  0  0  0  0  0  0  0  0  0  0  0
    4.8101   -3.8520    0.0000 H   0  0  0  0  0  0  0  0  0  0  0  0
    5.2087   -3.1618    0.0000 H   0  0  0  0  0  0  0  0  0  0  0  0
    2.2554   -3.1618    0.0000 H   0  0  0  0  0  0  0  0  0  0  0  0
    2.6540   -3.8520    0.0000 H   0  0  0  0  0  0  0  0  0  0  0  0
    4.0420    4.7675    0.0000 H   0  0  0  0  0  0  0  0  0  0  0  0
    3.1951    4.5406    0.0000 H   0  0  0  0  0  0  0  0  0  0  0  0
    3.4220    3.6936    0.0000 H   0  0  0  0  0  0  0  0  0  0  0  0
    5.1350   -4.9594    0.0000 H   0  0  0  0  0  0  0  0  0  0  0  0
    4.0654    5.6268    0.0000 H   0  0  0  0  0  0  0  0  0  0  0  0
    5.1350   -6.5794    0.0000 H   0  0  0  0  0  0  0  0  0  0  0  0
    3.7320   -7.3894    0.0000 H   0  0  0  0  0  0  0  0  0  0  0  0
    4.5997    7.2710    0.0000 H   0  0  0  0  0  0  0  0  0  0  0  0
    6.3285    7.2710    0.0000 H   0  0  0  0  0  0  0  0  0  0  0  0
  1 24  1  0  0  0  0
  2 27  1  0  0  0  0
  3 23  1  0  0  0  0
  3 31  1  0  0  0  0
  4 21  2  0  0  0  0
  5 15  1  0  0  0  0
  5 16  1  0  0  0  0
  5 17  1  0  0  0  0
  6 11  1  0  0  0  0
  6 20  1  0  0  0  0
  6 21  1  0  0  0  0
  7 18  1  0  0  0  0
  7 19  1  0  0  0  0
  7 22  1  0  0  0  0
  8  9  1  0  0  0  0
  8 10  1  0  0  0  0
  8 14  1  0  0  0  0
  8 32  1  0  0  0  0
  9 12  1  0  0  0  0
  9 33  1  0  0  0  0
  9 34  1  0  0  0  0
 10 13  1  0  0  0  0
 10 35  1  0  0  0  0
 10 36  1  0  0  0  0
 11 12  1  0  0  0  0
 11 13  1  0  0  0  0
 11 37  1  0  0  0  0
 12 38  1  0  0  0  0
 12 39  1  0  0  0  0
 13 40  1  0  0  0  0
 13 41  1  0  0  0  0
 14 15  1  0  0  0  0
 14 42  1  0  0  0  0
 14 43  1  0  0  0  0
 15 44  1  0  0  0  0
 15 45  1  0  0  0  0
 16 18  1  0  0  0  0
 16 46  1  0  0  0  0
 16 47  1  0  0  0  0
 17 19  1  0  0  0  0
 17 48  1  0  0  0  0
 17 49  1  0  0  0  0
 18 50  1  0  0  0  0
 18 51  1  0  0  0  0
 19 52  1  0  0  0  0
 19 53  1  0  0  0  0
 20 54  1  0  0  0  0
 20 55  1  0  0  0  0
 20 56  1  0  0  0  0
 21 23  1  0  0  0  0
 22 24  2  0  0  0  0
 22 25  1  0  0  0  0
 23 26  2  0  0  0  0
 24 27  1  0  0  0  0
 25 28  2  0  0  0  0
 25 57  1  0  0  0  0
 26 30  1  0  0  0  0
 26 58  1  0  0  0  0
 27 29  2  0  0  0  0
 28 29  1  0  0  0  0
 28 59  1  0  0  0  0
 29 60  1  0  0  0  0
 30 31  2  0  0  0  0
 30 61  1  0  0  0  0
 31 62  1  0  0  0  0
M  END
> <PUBCHEM_COMPOUND_CID>
44317229

> <PUBCHEM_COMPOUND_CANONICALIZED>
1

> <PUBCHEM_CACTVS_COMPLEXITY>
581

> <PUBCHEM_CACTVS_HBOND_ACCEPTOR>
4

> <PUBCHEM_CACTVS_HBOND_DONOR>
0

> <PUBCHEM_CACTVS_ROTATABLE_BOND>
6

> <PUBCHEM_CACTVS_SUBSKEYS>
AAADceB7IABGAAAAAAAAAAAAAAAAASAAAAA8YIAAAAAAAAABwAAAHgYAAAAADSrF0CSywYMAAAiMACVSUACDAIAlDxBIilkIZsgIYDLhl5HUIQhghgDoyYcYgIAOAAAAAAIAABQQAAAABAAAKAAAAAAAAA==

> <PUBCHEM_IUPAC_OPENEYE_NAME>
N-[4-[2-[4-(2,3-dichlorophenyl)piperazin-1-yl]ethyl]cyclohexyl]-N-methyl-thiophene-2-carboxamide

> <PUBCHEM_IUPAC_CAS_NAME>
N-[4-[2-[4-(2,3-dichlorophenyl)-1-piperazinyl]ethyl]cyclohexyl]-N-methyl-2-thiophenecarboxamide

> <PUBCHEM_IUPAC_NAME_MARKUP>
<I>N</I>-[4-[2-[4-(2,3-dichlorophenyl)piperazin-1-yl]ethyl]cyclohexyl]-<I>N</I>-methylthiophene-2-carboxamide

> <PUBCHEM_IUPAC_NAME>
N-[4-[2-[4-(2,3-dichlorophenyl)piperazin-1-yl]ethyl]cyclohexyl]-N-methylthiophene-2-carboxamide

> <PUBCHEM_IUPAC_SYSTEMATIC_NAME>
N-[4-[2-[4-[2,3-bis(chloranyl)phenyl]piperazin-1-yl]ethyl]cyclohexyl]-N-methyl-thiophene-2-carboxamide

> <PUBCHEM_IUPAC_TRADITIONAL_NAME>
N-[4-[2-[4-(2,3-dichlorophenyl)piperazino]ethyl]cyclohexyl]-N-methyl-thiophene-2-carboxamide

> <PUBCHEM_IUPAC_INCHI>
InChI=1S/C24H31Cl2N3OS/c1-27(24(30)22-6-3-17-31-22)19-9-7-18(8-10-19)11-12-28-13-15-29(16-14-28)21-5-2-4-20(25)23(21)26/h2-6,17-19H,7-16H2,1H3

> <PUBCHEM_IUPAC_INCHIKEY>
JCGBUUHLRXHEQS-UHFFFAOYSA-N

> <PUBCHEM_XLOGP3_AA>
6.2

> <PUBCHEM_EXACT_MASS>
479.1564892

> <PUBCHEM_MOLECULAR_FORMULA>
C24H31Cl2N3OS

> <PUBCHEM_MOLECULAR_WEIGHT>
480.5

> <PUBCHEM_OPENEYE_CAN_SMILES>
CN(C1CCC(CC1)CCN2CCN(CC2)C3=C(C(=CC=C3)Cl)Cl)C(=O)C4=CC=CS4

> <PUBCHEM_OPENEYE_ISO_SMILES>
CN(C1CCC(CC1)CCN2CCN(CC2)C3=C(C(=CC=C3)Cl)Cl)C(=O)C4=CC=CS4

> <PUBCHEM_CACTVS_TPSA>
55

> <PUBCHEM_MONOISOTOPIC_WEIGHT>
479.1564892

> <PUBCHEM_TOTAL_CHARGE>
0

> <PUBCHEM_HEAVY_ATOM_COUNT>
31

> <PUBCHEM_ATOM_DEF_STEREO_COUNT>
0

> <PUBCHEM_ATOM_UDEF_STEREO_COUNT>
0

> <PUBCHEM_BOND_DEF_STEREO_COUNT>
0

> <PUBCHEM_BOND_UDEF_STEREO_COUNT>
0

> <PUBCHEM_ISOTOPIC_ATOM_COUNT>
0

> <PUBCHEM_COMPONENT_COUNT>
1

> <PUBCHEM_CACTVS_TAUTO_COUNT>
-1

> <PUBCHEM_COORDINATE_TYPE>
1
5
255

> <PUBCHEM_BONDANNOTATIONS>
22  24  8
22  25  8
23  26  8
24  27  8
25  28  8
26  30  8
27  29  8
28  29  8
3  23  8
3  31  8
30  31  8

$$$$
