21073667
  -OEChem-09292322312D

 62 66  0     0  0  0  0  0  0999 V2000
   15.0737    2.5329    0.0000 F   0  0  0  0  0  0  0  0  0  0  0  0
    7.2622   -1.9370    0.0000 O   0  0  0  0  0  0  0  0  0  0  0  0
    2.0000   -1.9129    0.0000 O   0  0  0  0  0  0  0  0  0  0  0  0
   11.5942   -1.4537    0.0000 N   0  0  0  0  0  0  0  0  0  0  0  0
   13.3301   -0.4604    0.0000 N   0  0  0  0  0  0  0  0  0  0  0  0
    3.7320   -1.9129    0.0000 N   0  0  0  0  0  0  0  0  0  0  0  0
    5.4920   -1.9476    0.0000 N   0  0  0  0  0  0  0  0  0  0  0  0
   12.4583   -1.9571    0.0000 C   0  0  0  0  0  0  0  0  0  0  0  0
   11.5981   -0.4537    0.0000 C   0  0  0  0  0  0  0  0  0  0  0  0
   13.3262   -1.4604    0.0000 C   0  0  0  0  0  0  0  0  0  0  0  0
   12.4660    0.0429    0.0000 C   0  0  0  0  0  0  0  0  0  0  0  0
   10.7263   -1.9504    0.0000 C   0  0  0  0  0  0  0  0  0  0  0  0
    9.8622   -1.4470    0.0000 C   0  0  0  0  0  0  0  0  0  0  0  0
   14.1980    0.0362    0.0000 C   0  0  0  0  0  0  0  0  0  0  0  0
    8.9942   -1.9437    0.0000 C   0  0  0  0  0  0  0  0  0  0  0  0
   15.0621   -0.4671    0.0000 C   0  0  0  0  0  0  0  0  0  0  0  0
   14.2019    1.0362    0.0000 C   0  0  0  0  0  0  0  0  0  0  0  0
    8.1301   -1.4404    0.0000 C   0  0  0  0  0  0  0  0  0  0  0  0
   15.9301    0.0296    0.0000 C   0  0  0  0  0  0  0  0  0  0  0  0
   15.0421   -1.5085    0.0000 C   0  0  0  0  0  0  0  0  0  0  0  0
   15.0698    1.5329    0.0000 C   0  0  0  0  0  0  0  0  0  0  0  0
   15.9339    1.0296    0.0000 C   0  0  0  0  0  0  0  0  0  0  0  0
   16.8381   -0.4808    0.0000 C   0  0  0  0  0  0  0  0  0  0  0  0
   15.9381   -2.0397    0.0000 C   0  0  0  0  0  0  0  0  0  0  0  0
   16.8421   -1.5224    0.0000 C   0  0  0  0  0  0  0  0  0  0  0  0
    4.5981   -0.4129    0.0000 C   0  0  0  0  0  0  0  0  0  0  0  0
    3.7320    0.0871    0.0000 C   0  0  0  0  0  0  0  0  0  0  0  0
    6.3981   -1.4337    0.0000 C   0  0  0  0  0  0  0  0  0  0  0  0
    4.5981   -1.4129    0.0000 C   0  0  0  0  0  0  0  0  0  0  0  0
    2.8660   -0.4129    0.0000 C   0  0  0  0  0  0  0  0  0  0  0  0
    5.4920    0.1218    0.0000 C   0  0  0  0  0  0  0  0  0  0  0  0
    6.3981   -0.3921    0.0000 C   0  0  0  0  0  0  0  0  0  0  0  0
    2.8660   -1.4129    0.0000 C   0  0  0  0  0  0  0  0  0  0  0  0
   12.0579   -2.4305    0.0000 H   0  0  0  0  0  0  0  0  0  0  0  0
   12.8550   -2.4336    0.0000 H   0  0  0  0  0  0  0  0  0  0  0  0
   11.3882    0.1297    0.0000 H   0  0  0  0  0  0  0  0  0  0  0  0
   10.9871   -0.5590    0.0000 H   0  0  0  0  0  0  0  0  0  0  0  0
   13.5360   -2.0438    0.0000 H   0  0  0  0  0  0  0  0  0  0  0  0
   13.9372   -1.3551    0.0000 H   0  0  0  0  0  0  0  0  0  0  0  0
   12.8664    0.5163    0.0000 H   0  0  0  0  0  0  0  0  0  0  0  0
   12.0693    0.5194    0.0000 H   0  0  0  0  0  0  0  0  0  0  0  0
   10.3259   -2.4238    0.0000 H   0  0  0  0  0  0  0  0  0  0  0  0
   11.1229   -2.4269    0.0000 H   0  0  0  0  0  0  0  0  0  0  0  0
   10.2625   -0.9736    0.0000 H   0  0  0  0  0  0  0  0  0  0  0  0
    9.4655   -0.9706    0.0000 H   0  0  0  0  0  0  0  0  0  0  0  0
    8.5939   -2.4171    0.0000 H   0  0  0  0  0  0  0  0  0  0  0  0
    9.3909   -2.4202    0.0000 H   0  0  0  0  0  0  0  0  0  0  0  0
   13.6662    1.3483    0.0000 H   0  0  0  0  0  0  0  0  0  0  0  0
    8.5305   -0.9670    0.0000 H   0  0  0  0  0  0  0  0  0  0  0  0
    7.7334   -0.9639    0.0000 H   0  0  0  0  0  0  0  0  0  0  0  0
   14.5004   -1.8102    0.0000 H   0  0  0  0  0  0  0  0  0  0  0  0
   16.4721    1.3375    0.0000 H   0  0  0  0  0  0  0  0  0  0  0  0
   17.3726   -0.1667    0.0000 H   0  0  0  0  0  0  0  0  0  0  0  0
   15.9333   -2.6597    0.0000 H   0  0  0  0  0  0  0  0  0  0  0  0
   17.3791   -1.8324    0.0000 H   0  0  0  0  0  0  0  0  0  0  0  0
    4.1306    0.5621    0.0000 H   0  0  0  0  0  0  0  0  0  0  0  0
    3.3335    0.5621    0.0000 H   0  0  0  0  0  0  0  0  0  0  0  0
    2.6540    0.1697    0.0000 H   0  0  0  0  0  0  0  0  0  0  0  0
    2.2554   -0.5205    0.0000 H   0  0  0  0  0  0  0  0  0  0  0  0
    5.4848    0.7417    0.0000 H   0  0  0  0  0  0  0  0  0  0  0  0
    6.9338   -0.0800    0.0000 H   0  0  0  0  0  0  0  0  0  0  0  0
    3.7320   -2.5329    0.0000 H   0  0  0  0  0  0  0  0  0  0  0  0
  1 21  1  0  0  0  0
  2 18  1  0  0  0  0
  2 28  1  0  0  0  0
  3 33  2  0  0  0  0
  4  8  1  0  0  0  0
  4  9  1  0  0  0  0
  4 12  1  0  0  0  0
  5 10  1  0  0  0  0
  5 11  1  0  0  0  0
  5 14  1  0  0  0  0
  6 29  1  0  0  0  0
  6 33  1  0  0  0  0
  6 62  1  0  0  0  0
  7 28  2  0  0  0  0
  7 29  1  0  0  0  0
  8 10  1  0  0  0  0
  8 34  1  0  0  0  0
  8 35  1  0  0  0  0
  9 11  1  0  0  0  0
  9 36  1  0  0  0  0
  9 37  1  0  0  0  0
 10 38  1  0  0  0  0
 10 39  1  0  0  0  0
 11 40  1  0  0  0  0
 11 41  1  0  0  0  0
 12 13  1  0  0  0  0
 12 42  1  0  0  0  0
 12 43  1  0  0  0  0
 13 15  1  0  0  0  0
 13 44  1  0  0  0  0
 13 45  1  0  0  0  0
 14 16  1  0  0  0  0
 14 17  2  0  0  0  0
 15 18  1  0  0  0  0
 15 46  1  0  0  0  0
 15 47  1  0  0  0  0
 16 19  1  0  0  0  0
 16 20  2  0  0  0  0
 17 21  1  0  0  0  0
 17 48  1  0  0  0  0
 18 49  1  0  0  0  0
 18 50  1  0  0  0  0
 19 22  1  0  0  0  0
 19 23  2  0  0  0  0
 20 24  1  0  0  0  0
 20 51  1  0  0  0  0
 21 22  2  0  0  0  0
 22 52  1  0  0  0  0
 23 25  1  0  0  0  0
 23 53  1  0  0  0  0
 24 25  2  0  0  0  0
 24 54  1  0  0  0  0
 25 55  1  0  0  0  0
 26 27  1  0  0  0  0
 26 29  2  0  0  0  0
 26 31  1  0  0  0  0
 27 30  1  0  0  0  0
 27 56  1  0  0  0  0
 27 57  1  0  0  0  0
 28 32  1  0  0  0  0
 30 33  1  0  0  0  0
 30 58  1  0  0  0  0
 30 59  1  0  0  0  0
 31 32  2  0  0  0  0
 31 60  1  0  0  0  0
 32 61  1  0  0  0  0
M  END
> <PUBCHEM_COMPOUND_CID>
21073667

> <PUBCHEM_COMPOUND_CANONICALIZED>
1

> <PUBCHEM_CACTVS_COMPLEXITY>
644

> <PUBCHEM_CACTVS_HBOND_ACCEPTOR>
6

> <PUBCHEM_CACTVS_HBOND_DONOR>
1

> <PUBCHEM_CACTVS_ROTATABLE_BOND>
7

> <PUBCHEM_CACTVS_SUBSKEYS>
AAADceB7sQAAAAAAAAAAAAAAAAAAAAAAAAA8eLECAAAAAADx1AAAHwAQAAAADAjhmg4x9NPIFACoAidydACCiCkhIiAJmCE+bJiMZvLEuZueOCjs1RPI6Ce42aKOgAAAQAASAAAAAACAACQAAAAAAAAAAA==

> <PUBCHEM_IUPAC_OPENEYE_NAME>
7-[4-[4-(3-fluoro-1-naphthyl)piperazin-1-yl]butoxy]-3,4-dihydro-1H-1,8-naphthyridin-2-one

> <PUBCHEM_IUPAC_CAS_NAME>
7-[4-[4-(3-fluoro-1-naphthalenyl)-1-piperazinyl]butoxy]-3,4-dihydro-1H-1,8-naphthyridin-2-one

> <PUBCHEM_IUPAC_NAME_MARKUP>
7-[4-[4-(3-fluoronaphthalen-1-yl)piperazin-1-yl]butoxy]-3,4-dihydro-1<I>H</I>-1,8-naphthyridin-2-one

> <PUBCHEM_IUPAC_NAME>
7-[4-[4-(3-fluoronaphthalen-1-yl)piperazin-1-yl]butoxy]-3,4-dihydro-1H-1,8-naphthyridin-2-one

> <PUBCHEM_IUPAC_SYSTEMATIC_NAME>
7-[4-[4-(3-fluoranylnaphthalen-1-yl)piperazin-1-yl]butoxy]-3,4-dihydro-1H-1,8-naphthyridin-2-one

> <PUBCHEM_IUPAC_TRADITIONAL_NAME>
7-[4-[4-(3-fluoro-1-naphthyl)piperazino]butoxy]-3,4-dihydro-1H-1,8-naphthyridin-2-one

> <PUBCHEM_IUPAC_INCHI>
InChI=1S/C26H29FN4O2/c27-21-17-20-5-1-2-6-22(20)23(18-21)31-14-12-30(13-15-31)11-3-4-16-33-25-10-8-19-7-9-24(32)28-26(19)29-25/h1-2,5-6,8,10,17-18H,3-4,7,9,11-16H2,(H,28,29,32)

> <PUBCHEM_IUPAC_INCHIKEY>
YOBZEYPRYAJSBZ-UHFFFAOYSA-N

> <PUBCHEM_XLOGP3_AA>
4.3

> <PUBCHEM_EXACT_MASS>
448.22745434

> <PUBCHEM_MOLECULAR_FORMULA>
C26H29FN4O2

> <PUBCHEM_MOLECULAR_WEIGHT>
448.5

> <PUBCHEM_OPENEYE_CAN_SMILES>
C1CC(=O)NC2=C1C=CC(=N2)OCCCCN3CCN(CC3)C4=CC(=CC5=CC=CC=C54)F

> <PUBCHEM_OPENEYE_ISO_SMILES>
C1CC(=O)NC2=C1C=CC(=N2)OCCCCN3CCN(CC3)C4=CC(=CC5=CC=CC=C54)F

> <PUBCHEM_CACTVS_TPSA>
57.7

> <PUBCHEM_MONOISOTOPIC_WEIGHT>
448.22745434

> <PUBCHEM_TOTAL_CHARGE>
0

> <PUBCHEM_HEAVY_ATOM_COUNT>
33

> <PUBCHEM_ATOM_DEF_STEREO_COUNT>
0

> <PUBCHEM_ATOM_UDEF_STEREO_COUNT>
0

> <PUBCHEM_BOND_DEF_STEREO_COUNT>
0

> <PUBCHEM_BOND_UDEF_STEREO_COUNT>
0

> <PUBCHEM_ISOTOPIC_ATOM_COUNT>
0

> <PUBCHEM_COMPONENT_COUNT>
1

> <PUBCHEM_CACTVS_TAUTO_COUNT>
-1

> <PUBCHEM_COORDINATE_TYPE>
1
5
255

> <PUBCHEM_BONDANNOTATIONS>
14  16  8
14  17  8
16  19  8
16  20  8
17  21  8
19  22  8
19  23  8
20  24  8
21  22  8
23  25  8
24  25  8
26  29  8
26  31  8
28  32  8
31  32  8
7  28  8
7  29  8

$$$$
