85658088
  -OEChem-09292322382D

 37 38  0     1  0  0  0  0  0999 V2000
    2.0000   -3.6820    0.0000 O   0  0  0  0  0  0  0  0  0  0  0  0
    3.2320    0.8569    0.0000 N   0  0  3  0  0  0  0  0  0  0  0  0
    3.7320   -0.6820    0.0000 C   0  0  3  0  0  0  0  0  0  0  0  0
    2.9230   -0.0942    0.0000 C   0  0  0  0  0  0  0  0  0  0  0  0
    4.5411   -0.0942    0.0000 C   0  0  0  0  0  0  0  0  0  0  0  0
    4.2320    0.8569    0.0000 C   0  0  0  0  0  0  0  0  0  0  0  0
    2.6443    1.6659    0.0000 C   0  0  0  0  0  0  0  0  0  0  0  0
    3.7320   -1.6820    0.0000 C   0  0  0  0  0  0  0  0  0  0  0  0
    3.0510    2.5794    0.0000 C   0  0  0  0  0  0  0  0  0  0  0  0
    2.4632    3.3884    0.0000 C   0  0  0  0  0  0  0  0  0  0  0  0
    2.8660   -2.1820    0.0000 C   0  0  0  0  0  0  0  0  0  0  0  0
    4.5981   -2.1820    0.0000 C   0  0  0  0  0  0  0  0  0  0  0  0
    2.8660   -3.1820    0.0000 C   0  0  0  0  0  0  0  0  0  0  0  0
    4.5981   -3.1820    0.0000 C   0  0  0  0  0  0  0  0  0  0  0  0
    2.8699    4.3020    0.0000 C   0  0  0  0  0  0  0  0  0  0  0  0
    3.7320   -3.6820    0.0000 C   0  0  0  0  0  0  0  0  0  0  0  0
    4.2845   -0.9635    0.0000 H   0  0  0  0  0  0  0  0  0  0  0  0
    2.3566    0.1580    0.0000 H   0  0  0  0  0  0  0  0  0  0  0  0
    2.6130   -0.6311    0.0000 H   0  0  0  0  0  0  0  0  0  0  0  0
    4.8511   -0.6311    0.0000 H   0  0  0  0  0  0  0  0  0  0  0  0
    5.1075    0.1580    0.0000 H   0  0  0  0  0  0  0  0  0  0  0  0
    4.8385    0.9858    0.0000 H   0  0  0  0  0  0  0  0  0  0  0  0
    4.1672    1.4735    0.0000 H   0  0  0  0  0  0  0  0  0  0  0  0
    2.1303    2.0126    0.0000 H   0  0  0  0  0  0  0  0  0  0  0  0
    2.2136    1.2199    0.0000 H   0  0  0  0  0  0  0  0  0  0  0  0
    3.5650    2.2327    0.0000 H   0  0  0  0  0  0  0  0  0  0  0  0
    3.4817    3.0254    0.0000 H   0  0  0  0  0  0  0  0  0  0  0  0
    1.9492    3.7351    0.0000 H   0  0  0  0  0  0  0  0  0  0  0  0
    2.0325    2.9424    0.0000 H   0  0  0  0  0  0  0  0  0  0  0  0
    2.3291   -1.8720    0.0000 H   0  0  0  0  0  0  0  0  0  0  0  0
    5.1350   -1.8720    0.0000 H   0  0  0  0  0  0  0  0  0  0  0  0
    5.1350   -3.4920    0.0000 H   0  0  0  0  0  0  0  0  0  0  0  0
    3.4364    4.0498    0.0000 H   0  0  0  0  0  0  0  0  0  0  0  0
    3.1221    4.8684    0.0000 H   0  0  0  0  0  0  0  0  0  0  0  0
    2.3036    4.5542    0.0000 H   0  0  0  0  0  0  0  0  0  0  0  0
    3.7320   -4.3020    0.0000 H   0  0  0  0  0  0  0  0  0  0  0  0
    2.0000   -4.3020    0.0000 H   0  0  0  0  0  0  0  0  0  0  0  0
  1 13  1  0  0  0  0
  1 37  1  0  0  0  0
  2  4  1  0  0  0  0
  2  6  1  0  0  0  0
  2  7  1  0  0  0  0
  3  4  1  0  0  0  0
  3  5  1  0  0  0  0
  3  8  1  0  0  0  0
  3 17  1  0  0  0  0
  4 18  1  0  0  0  0
  4 19  1  0  0  0  0
  5  6  1  0  0  0  0
  5 20  1  0  0  0  0
  5 21  1  0  0  0  0
  6 22  1  0  0  0  0
  6 23  1  0  0  0  0
  7  9  1  0  0  0  0
  7 24  1  0  0  0  0
  7 25  1  0  0  0  0
  8 11  2  0  0  0  0
  8 12  1  0  0  0  0
  9 10  1  0  0  0  0
  9 26  1  0  0  0  0
  9 27  1  0  0  0  0
 10 15  1  0  0  0  0
 10 28  1  0  0  0  0
 10 29  1  0  0  0  0
 11 13  1  0  0  0  0
 11 30  1  0  0  0  0
 12 14  2  0  0  0  0
 12 31  1  0  0  0  0
 13 16  2  0  0  0  0
 14 16  1  0  0  0  0
 14 32  1  0  0  0  0
 15 33  1  0  0  0  0
 15 34  1  0  0  0  0
 15 35  1  0  0  0  0
 16 36  1  0  0  0  0
M  END
> <PUBCHEM_COMPOUND_CID>
85658088

> <PUBCHEM_COMPOUND_CANONICALIZED>
1

> <PUBCHEM_CACTVS_COMPLEXITY>
207

> <PUBCHEM_CACTVS_HBOND_ACCEPTOR>
2

> <PUBCHEM_CACTVS_HBOND_DONOR>
1

> <PUBCHEM_CACTVS_ROTATABLE_BOND>
4

> <PUBCHEM_CACTVS_SUBSKEYS>
AAADceByIAAAAAAAAAAAAAAAAAAAAWAAAAAwAAAAAAAAAAABAAAAHgAACAAADQTBmAQyBoMAAgCAAiBCAAACAAAgIAAIiAAOCIgIJiKCkROEcAAkwBGImAeQ0PIOgAABAAAAAAAAAAIAAAAAAAAAAAAAAA==

> <PUBCHEM_IUPAC_OPENEYE_NAME>
3-(1-butylpyrrolidin-3-yl)phenol

> <PUBCHEM_IUPAC_CAS_NAME>
3-(1-butyl-3-pyrrolidinyl)phenol

> <PUBCHEM_IUPAC_NAME_MARKUP>
3-(1-butylpyrrolidin-3-yl)phenol

> <PUBCHEM_IUPAC_NAME>
3-(1-butylpyrrolidin-3-yl)phenol

> <PUBCHEM_IUPAC_SYSTEMATIC_NAME>
3-(1-butylpyrrolidin-3-yl)phenol

> <PUBCHEM_IUPAC_TRADITIONAL_NAME>
3-(1-butylpyrrolidin-3-yl)phenol

> <PUBCHEM_IUPAC_INCHI>
InChI=1S/C14H21NO/c1-2-3-8-15-9-7-13(11-15)12-5-4-6-14(16)10-12/h4-6,10,13,16H,2-3,7-9,11H2,1H3

> <PUBCHEM_IUPAC_INCHIKEY>
JYIJFUATJBLBJG-UHFFFAOYSA-N

> <PUBCHEM_XLOGP3_AA>
3

> <PUBCHEM_EXACT_MASS>
219.162314293

> <PUBCHEM_MOLECULAR_FORMULA>
C14H21NO

> <PUBCHEM_MOLECULAR_WEIGHT>
219.32

> <PUBCHEM_OPENEYE_CAN_SMILES>
CCCCN1CCC(C1)C2=CC(=CC=C2)O

> <PUBCHEM_OPENEYE_ISO_SMILES>
CCCCN1CCC(C1)C2=CC(=CC=C2)O

> <PUBCHEM_CACTVS_TPSA>
23.5

> <PUBCHEM_MONOISOTOPIC_WEIGHT>
219.162314293

> <PUBCHEM_TOTAL_CHARGE>
0

> <PUBCHEM_HEAVY_ATOM_COUNT>
16

> <PUBCHEM_ATOM_DEF_STEREO_COUNT>
0

> <PUBCHEM_ATOM_UDEF_STEREO_COUNT>
1

> <PUBCHEM_BOND_DEF_STEREO_COUNT>
0

> <PUBCHEM_BOND_UDEF_STEREO_COUNT>
0

> <PUBCHEM_ISOTOPIC_ATOM_COUNT>
0

> <PUBCHEM_COMPONENT_COUNT>
1

> <PUBCHEM_CACTVS_TAUTO_COUNT>
-1

> <PUBCHEM_COORDINATE_TYPE>
1
5
255

> <PUBCHEM_BONDANNOTATIONS>
11  13  8
12  14  8
13  16  8
14  16  8
3  8  3
8  11  8
8  12  8

$$$$
