10492351
  -OEChem-09292322512D

 41 43  0     0  0  0  0  0  0999 V2000
    2.0000    0.2436    0.0000 O   0  0  0  0  0  0  0  0  0  0  0  0
    3.7601   -0.0352    0.0000 N   0  0  0  0  0  0  0  0  0  0  0  0
    3.7601   -3.0352    0.0000 N   0  0  0  0  0  0  0  0  0  0  0  0
    3.2601    1.5036    0.0000 N   0  0  0  0  0  0  0  0  0  0  0  0
    3.7601   -1.0352    0.0000 C   0  0  0  0  0  0  0  0  0  0  0  0
    4.6261   -1.5352    0.0000 C   0  0  0  0  0  0  0  0  0  0  0  0
    2.8940   -1.5352    0.0000 C   0  0  0  0  0  0  0  0  0  0  0  0
    4.6261   -2.5352    0.0000 C   0  0  0  0  0  0  0  0  0  0  0  0
    2.8940   -2.5352    0.0000 C   0  0  0  0  0  0  0  0  0  0  0  0
    4.5691    0.5526    0.0000 C   0  0  0  0  0  0  0  0  0  0  0  0
    2.9511    0.5526    0.0000 C   0  0  0  0  0  0  0  0  0  0  0  0
    4.2601    1.5036    0.0000 C   0  0  0  0  0  0  0  0  0  0  0  0
    3.7601   -4.0352    0.0000 C   0  0  0  0  0  0  0  0  0  0  0  0
    5.5202    0.2436    0.0000 C   0  0  0  0  0  0  0  0  0  0  0  0
    4.8479    2.3126    0.0000 C   0  0  0  0  0  0  0  0  0  0  0  0
    5.8424    2.2081    0.0000 C   0  0  0  0  0  0  0  0  0  0  0  0
    4.4411    3.2262    0.0000 C   0  0  0  0  0  0  0  0  0  0  0  0
    6.4302    3.0171    0.0000 C   0  0  0  0  0  0  0  0  0  0  0  0
    5.0289    4.0352    0.0000 C   0  0  0  0  0  0  0  0  0  0  0  0
    6.0234    3.9307    0.0000 C   0  0  0  0  0  0  0  0  0  0  0  0
    3.2231   -0.7252    0.0000 H   0  0  0  0  0  0  0  0  0  0  0  0
    5.2367   -1.6429    0.0000 H   0  0  0  0  0  0  0  0  0  0  0  0
    4.8382   -0.9526    0.0000 H   0  0  0  0  0  0  0  0  0  0  0  0
    2.6820   -0.9526    0.0000 H   0  0  0  0  0  0  0  0  0  0  0  0
    2.2835   -1.6429    0.0000 H   0  0  0  0  0  0  0  0  0  0  0  0
    4.8382   -3.1178    0.0000 H   0  0  0  0  0  0  0  0  0  0  0  0
    5.2367   -2.4276    0.0000 H   0  0  0  0  0  0  0  0  0  0  0  0
    2.2835   -2.4276    0.0000 H   0  0  0  0  0  0  0  0  0  0  0  0
    2.6820   -3.1178    0.0000 H   0  0  0  0  0  0  0  0  0  0  0  0
    3.1401   -4.0352    0.0000 H   0  0  0  0  0  0  0  0  0  0  0  0
    3.7601   -4.6552    0.0000 H   0  0  0  0  0  0  0  0  0  0  0  0
    4.3801   -4.0352    0.0000 H   0  0  0  0  0  0  0  0  0  0  0  0
    2.8956    2.0052    0.0000 H   0  0  0  0  0  0  0  0  0  0  0  0
    5.3286   -0.3461    0.0000 H   0  0  0  0  0  0  0  0  0  0  0  0
    6.1098    0.0520    0.0000 H   0  0  0  0  0  0  0  0  0  0  0  0
    5.7117    0.8332    0.0000 H   0  0  0  0  0  0  0  0  0  0  0  0
    6.0946    1.6417    0.0000 H   0  0  0  0  0  0  0  0  0  0  0  0
    3.8245    3.2910    0.0000 H   0  0  0  0  0  0  0  0  0  0  0  0
    7.0468    2.9523    0.0000 H   0  0  0  0  0  0  0  0  0  0  0  0
    4.7767    4.6016    0.0000 H   0  0  0  0  0  0  0  0  0  0  0  0
    6.3879    4.4323    0.0000 H   0  0  0  0  0  0  0  0  0  0  0  0
  1 11  2  0  0  0  0
  2  5  1  0  0  0  0
  2 10  1  0  0  0  0
  2 11  1  0  0  0  0
  3  8  1  0  0  0  0
  3  9  1  0  0  0  0
  3 13  1  0  0  0  0
  4 11  1  0  0  0  0
  4 12  1  0  0  0  0
  4 33  1  0  0  0  0
  5  6  1  0  0  0  0
  5  7  1  0  0  0  0
  5 21  1  0  0  0  0
  6  8  1  0  0  0  0
  6 22  1  0  0  0  0
  6 23  1  0  0  0  0
  7  9  1  0  0  0  0
  7 24  1  0  0  0  0
  7 25  1  0  0  0  0
  8 26  1  0  0  0  0
  8 27  1  0  0  0  0
  9 28  1  0  0  0  0
  9 29  1  0  0  0  0
 10 12  2  0  0  0  0
 10 14  1  0  0  0  0
 12 15  1  0  0  0  0
 13 30  1  0  0  0  0
 13 31  1  0  0  0  0
 13 32  1  0  0  0  0
 14 34  1  0  0  0  0
 14 35  1  0  0  0  0
 14 36  1  0  0  0  0
 15 16  2  0  0  0  0
 15 17  1  0  0  0  0
 16 18  1  0  0  0  0
 16 37  1  0  0  0  0
 17 19  2  0  0  0  0
 17 38  1  0  0  0  0
 18 20  2  0  0  0  0
 18 39  1  0  0  0  0
 19 20  1  0  0  0  0
 19 40  1  0  0  0  0
 20 41  1  0  0  0  0
M  END
> <PUBCHEM_COMPOUND_CID>
10492351

> <PUBCHEM_COMPOUND_CANONICALIZED>
1

> <PUBCHEM_CACTVS_COMPLEXITY>
404

> <PUBCHEM_CACTVS_HBOND_ACCEPTOR>
2

> <PUBCHEM_CACTVS_HBOND_DONOR>
1

> <PUBCHEM_CACTVS_ROTATABLE_BOND>
2

> <PUBCHEM_CACTVS_SUBSKEYS>
AAADceB7IAAAAAAAAAAAAAAAAAAAAQAAAAA8QAAAAAAAAAABAAAAHgAQAAAADCjBGAQzAIPAAACIAiRCUACCAAAgAAAIiAAIBIiIICKA0RGEIAhohgKIiAcQgAAOAAAAAAAAAAAAAAAAAAAAAAAAAAAAAA==

> <PUBCHEM_IUPAC_OPENEYE_NAME>
4-methyl-3-(1-methyl-4-piperidyl)-5-phenyl-1H-imidazol-2-one

> <PUBCHEM_IUPAC_CAS_NAME>
4-methyl-3-(1-methyl-4-piperidinyl)-5-phenyl-1H-imidazol-2-one

> <PUBCHEM_IUPAC_NAME_MARKUP>
4-methyl-3-(1-methylpiperidin-4-yl)-5-phenyl-1<I>H</I>-imidazol-2-one

> <PUBCHEM_IUPAC_NAME>
4-methyl-3-(1-methylpiperidin-4-yl)-5-phenyl-1H-imidazol-2-one

> <PUBCHEM_IUPAC_SYSTEMATIC_NAME>
4-methyl-3-(1-methylpiperidin-4-yl)-5-phenyl-1H-imidazol-2-one

> <PUBCHEM_IUPAC_TRADITIONAL_NAME>
5-methyl-1-(1-methyl-4-piperidyl)-4-phenyl-4-imidazolin-2-one

> <PUBCHEM_IUPAC_INCHI>
InChI=1S/C16H21N3O/c1-12-15(13-6-4-3-5-7-13)17-16(20)19(12)14-8-10-18(2)11-9-14/h3-7,14H,8-11H2,1-2H3,(H,17,20)

> <PUBCHEM_IUPAC_INCHIKEY>
NTTKBDRKKNQJKU-UHFFFAOYSA-N

> <PUBCHEM_XLOGP3_AA>
1.9

> <PUBCHEM_EXACT_MASS>
271.168462302

> <PUBCHEM_MOLECULAR_FORMULA>
C16H21N3O

> <PUBCHEM_MOLECULAR_WEIGHT>
271.36

> <PUBCHEM_OPENEYE_CAN_SMILES>
CC1=C(NC(=O)N1C2CCN(CC2)C)C3=CC=CC=C3

> <PUBCHEM_OPENEYE_ISO_SMILES>
CC1=C(NC(=O)N1C2CCN(CC2)C)C3=CC=CC=C3

> <PUBCHEM_CACTVS_TPSA>
35.6

> <PUBCHEM_MONOISOTOPIC_WEIGHT>
271.168462302

> <PUBCHEM_TOTAL_CHARGE>
0

> <PUBCHEM_HEAVY_ATOM_COUNT>
20

> <PUBCHEM_ATOM_DEF_STEREO_COUNT>
0

> <PUBCHEM_ATOM_UDEF_STEREO_COUNT>
0

> <PUBCHEM_BOND_DEF_STEREO_COUNT>
0

> <PUBCHEM_BOND_UDEF_STEREO_COUNT>
0

> <PUBCHEM_ISOTOPIC_ATOM_COUNT>
0

> <PUBCHEM_COMPONENT_COUNT>
1

> <PUBCHEM_CACTVS_TAUTO_COUNT>
-1

> <PUBCHEM_COORDINATE_TYPE>
1
5
255

> <PUBCHEM_BONDANNOTATIONS>
10  12  8
15  16  8
15  17  8
16  18  8
17  19  8
18  20  8
19  20  8
2  10  8
2  11  8
4  11  8
4  12  8

$$$$
