10474613
  -OEChem-09292322202D

 57 60  0     1  0  0  0  0  0999 V2000
    6.3301    0.4827    0.0000 O   0  0  0  0  0  0  0  0  0  0  0  0
    6.3301    2.4827    0.0000 O   0  0  0  0  0  0  0  0  0  0  0  0
    4.5981   -0.5173    0.0000 N   0  0  0  0  0  0  0  0  0  0  0  0
    4.5981   -2.5173    0.0000 C   0  0  0  0  0  0  0  0  0  0  0  0
    3.7320   -2.0173    0.0000 C   0  0  0  0  0  0  0  0  0  0  0  0
    5.4641   -2.0173    0.0000 C   0  0  0  0  0  0  0  0  0  0  0  0
    3.7320   -1.0173    0.0000 C   0  0  0  0  0  0  0  0  0  0  0  0
    5.4641   -1.0173    0.0000 C   0  0  0  0  0  0  0  0  0  0  0  0
    4.5981   -3.5173    0.0000 C   0  0  0  0  0  0  0  0  0  0  0  0
    4.5981    0.4827    0.0000 C   0  0  0  0  0  0  0  0  0  0  0  0
    5.4641    0.9827    0.0000 C   0  0  3  0  0  0  0  0  0  0  0  0
    3.7320   -4.0173    0.0000 C   0  0  0  0  0  0  0  0  0  0  0  0
    5.4641    1.9827    0.0000 C   0  0  0  0  0  0  0  0  0  0  0  0
    3.7320   -5.0173    0.0000 C   0  0  0  0  0  0  0  0  0  0  0  0
    2.8660   -3.5173    0.0000 C   0  0  0  0  0  0  0  0  0  0  0  0
    2.8660   -5.5173    0.0000 C   0  0  0  0  0  0  0  0  0  0  0  0
    2.0000   -4.0173    0.0000 C   0  0  0  0  0  0  0  0  0  0  0  0
    2.0000   -5.0173    0.0000 C   0  0  0  0  0  0  0  0  0  0  0  0
    6.3301    3.4827    0.0000 C   0  0  0  0  0  0  0  0  0  0  0  0
    7.1962    3.9827    0.0000 C   0  0  0  0  0  0  0  0  0  0  0  0
    5.4641    3.9827    0.0000 C   0  0  0  0  0  0  0  0  0  0  0  0
    7.1962    4.9827    0.0000 C   0  0  0  0  0  0  0  0  0  0  0  0
    8.0901    3.4480    0.0000 C   0  0  0  0  0  0  0  0  0  0  0  0
    5.4641    4.9827    0.0000 C   0  0  0  0  0  0  0  0  0  0  0  0
    6.3301    5.4827    0.0000 C   0  0  0  0  0  0  0  0  0  0  0  0
    8.0901    5.5173    0.0000 C   0  0  0  0  0  0  0  0  0  0  0  0
    8.9962    3.9618    0.0000 C   0  0  0  0  0  0  0  0  0  0  0  0
    8.9962    5.0035    0.0000 C   0  0  0  0  0  0  0  0  0  0  0  0
    5.1350   -2.8273    0.0000 H   0  0  0  0  0  0  0  0  0  0  0  0
    3.1215   -1.9097    0.0000 H   0  0  0  0  0  0  0  0  0  0  0  0
    3.5200   -2.5999    0.0000 H   0  0  0  0  0  0  0  0  0  0  0  0
    5.6762   -2.5999    0.0000 H   0  0  0  0  0  0  0  0  0  0  0  0
    6.0747   -1.9097    0.0000 H   0  0  0  0  0  0  0  0  0  0  0  0
    3.5200   -0.4347    0.0000 H   0  0  0  0  0  0  0  0  0  0  0  0
    3.1215   -1.1250    0.0000 H   0  0  0  0  0  0  0  0  0  0  0  0
    6.0747   -1.1250    0.0000 H   0  0  0  0  0  0  0  0  0  0  0  0
    5.6762   -0.4347    0.0000 H   0  0  0  0  0  0  0  0  0  0  0  0
    4.8101   -4.0999    0.0000 H   0  0  0  0  0  0  0  0  0  0  0  0
    5.2087   -3.4097    0.0000 H   0  0  0  0  0  0  0  0  0  0  0  0
    4.3860    1.0653    0.0000 H   0  0  0  0  0  0  0  0  0  0  0  0
    3.9875    0.3750    0.0000 H   0  0  0  0  0  0  0  0  0  0  0  0
    5.4641    0.3627    0.0000 H   0  0  0  0  0  0  0  0  0  0  0  0
    5.2520    2.5653    0.0000 H   0  0  0  0  0  0  0  0  0  0  0  0
    4.8535    1.8750    0.0000 H   0  0  0  0  0  0  0  0  0  0  0  0
    4.2690   -5.3273    0.0000 H   0  0  0  0  0  0  0  0  0  0  0  0
    2.8660   -2.8973    0.0000 H   0  0  0  0  0  0  0  0  0  0  0  0
    6.8671    0.7927    0.0000 H   0  0  0  0  0  0  0  0  0  0  0  0
    2.8660   -6.1373    0.0000 H   0  0  0  0  0  0  0  0  0  0  0  0
    1.4631   -3.7073    0.0000 H   0  0  0  0  0  0  0  0  0  0  0  0
    1.4631   -5.3273    0.0000 H   0  0  0  0  0  0  0  0  0  0  0  0
    4.9272    3.6727    0.0000 H   0  0  0  0  0  0  0  0  0  0  0  0
    8.0829    2.8280    0.0000 H   0  0  0  0  0  0  0  0  0  0  0  0
    4.9272    5.2927    0.0000 H   0  0  0  0  0  0  0  0  0  0  0  0
    6.3301    6.1027    0.0000 H   0  0  0  0  0  0  0  0  0  0  0  0
    8.0829    6.1373    0.0000 H   0  0  0  0  0  0  0  0  0  0  0  0
    9.5319    3.6498    0.0000 H   0  0  0  0  0  0  0  0  0  0  0  0
    9.5319    5.3156    0.0000 H   0  0  0  0  0  0  0  0  0  0  0  0
  1 11  1  0  0  0  0
  1 47  1  0  0  0  0
  2 13  1  0  0  0  0
  2 19  1  0  0  0  0
  3  7  1  0  0  0  0
  3  8  1  0  0  0  0
  3 10  1  0  0  0  0
  4  5  1  0  0  0  0
  4  6  1  0  0  0  0
  4  9  1  0  0  0  0
  4 29  1  0  0  0  0
  5  7  1  0  0  0  0
  5 30  1  0  0  0  0
  5 31  1  0  0  0  0
  6  8  1  0  0  0  0
  6 32  1  0  0  0  0
  6 33  1  0  0  0  0
  7 34  1  0  0  0  0
  7 35  1  0  0  0  0
  8 36  1  0  0  0  0
  8 37  1  0  0  0  0
  9 12  1  0  0  0  0
  9 38  1  0  0  0  0
  9 39  1  0  0  0  0
 10 11  1  0  0  0  0
 10 40  1  0  0  0  0
 10 41  1  0  0  0  0
 11 13  1  0  0  0  0
 11 42  1  0  0  0  0
 12 14  2  0  0  0  0
 12 15  1  0  0  0  0
 13 43  1  0  0  0  0
 13 44  1  0  0  0  0
 14 16  1  0  0  0  0
 14 45  1  0  0  0  0
 15 17  2  0  0  0  0
 15 46  1  0  0  0  0
 16 18  2  0  0  0  0
 16 48  1  0  0  0  0
 17 18  1  0  0  0  0
 17 49  1  0  0  0  0
 18 50  1  0  0  0  0
 19 20  1  0  0  0  0
 19 21  2  0  0  0  0
 20 22  1  0  0  0  0
 20 23  2  0  0  0  0
 21 24  1  0  0  0  0
 21 51  1  0  0  0  0
 22 25  1  0  0  0  0
 22 26  2  0  0  0  0
 23 27  1  0  0  0  0
 23 52  1  0  0  0  0
 24 25  2  0  0  0  0
 24 53  1  0  0  0  0
 25 54  1  0  0  0  0
 26 28  1  0  0  0  0
 26 55  1  0  0  0  0
 27 28  2  0  0  0  0
 27 56  1  0  0  0  0
 28 57  1  0  0  0  0
M  END
> <PUBCHEM_COMPOUND_CID>
10474613

> <PUBCHEM_COMPOUND_CANONICALIZED>
1

> <PUBCHEM_CACTVS_COMPLEXITY>
442

> <PUBCHEM_CACTVS_HBOND_ACCEPTOR>
3

> <PUBCHEM_CACTVS_HBOND_DONOR>
1

> <PUBCHEM_CACTVS_ROTATABLE_BOND>
7

> <PUBCHEM_CACTVS_SUBSKEYS>
AAADceB6MAAAAAAAAAAAAAAAAAAAAAAAAAA8YMEAAAAAAADBVAAAHgAACAAADRThmAYwBsMABgCAAiBCAAACCAAgIAAIiAAOCIgPNiKEsRqGOCCmwBGbqAeQwPAOgAABAAAYAAAAAAIAADAAAAAAAAAAAA==

> <PUBCHEM_IUPAC_OPENEYE_NAME>
1-(4-benzyl-1-piperidyl)-3-(1-naphthyloxy)propan-2-ol

> <PUBCHEM_IUPAC_CAS_NAME>
1-(1-naphthalenyloxy)-3-[4-(phenylmethyl)-1-piperidinyl]-2-propanol

> <PUBCHEM_IUPAC_NAME_MARKUP>
1-(4-benzylpiperidin-1-yl)-3-naphthalen-1-yloxypropan-2-ol

> <PUBCHEM_IUPAC_NAME>
1-(4-benzylpiperidin-1-yl)-3-naphthalen-1-yloxypropan-2-ol

> <PUBCHEM_IUPAC_SYSTEMATIC_NAME>
1-naphthalen-1-yloxy-3-[4-(phenylmethyl)piperidin-1-yl]propan-2-ol

> <PUBCHEM_IUPAC_TRADITIONAL_NAME>
1-(4-benzylpiperidino)-3-(1-naphthoxy)propan-2-ol

> <PUBCHEM_IUPAC_INCHI>
InChI=1S/C25H29NO2/c27-23(19-28-25-12-6-10-22-9-4-5-11-24(22)25)18-26-15-13-21(14-16-26)17-20-7-2-1-3-8-20/h1-12,21,23,27H,13-19H2

> <PUBCHEM_IUPAC_INCHIKEY>
CWNOZQXNGIIXDT-UHFFFAOYSA-N

> <PUBCHEM_XLOGP3>
5.3

> <PUBCHEM_EXACT_MASS>
375.219829168

> <PUBCHEM_MOLECULAR_FORMULA>
C25H29NO2

> <PUBCHEM_MOLECULAR_WEIGHT>
375.5

> <PUBCHEM_OPENEYE_CAN_SMILES>
C1CN(CCC1CC2=CC=CC=C2)CC(COC3=CC=CC4=CC=CC=C43)O

> <PUBCHEM_OPENEYE_ISO_SMILES>
C1CN(CCC1CC2=CC=CC=C2)CC(COC3=CC=CC4=CC=CC=C43)O

> <PUBCHEM_CACTVS_TPSA>
32.7

> <PUBCHEM_MONOISOTOPIC_WEIGHT>
375.219829168

> <PUBCHEM_TOTAL_CHARGE>
0

> <PUBCHEM_HEAVY_ATOM_COUNT>
28

> <PUBCHEM_ATOM_DEF_STEREO_COUNT>
0

> <PUBCHEM_ATOM_UDEF_STEREO_COUNT>
1

> <PUBCHEM_BOND_DEF_STEREO_COUNT>
0

> <PUBCHEM_BOND_UDEF_STEREO_COUNT>
0

> <PUBCHEM_ISOTOPIC_ATOM_COUNT>
0

> <PUBCHEM_COMPONENT_COUNT>
1

> <PUBCHEM_CACTVS_TAUTO_COUNT>
-1

> <PUBCHEM_COORDINATE_TYPE>
1
5
255

> <PUBCHEM_BONDANNOTATIONS>
11  1  3
12  14  8
12  15  8
14  16  8
15  17  8
16  18  8
17  18  8
19  20  8
19  21  8
20  22  8
20  23  8
21  24  8
22  25  8
22  26  8
23  27  8
24  25  8
26  28  8
27  28  8

$$$$
