44447070
  -OEChem-09292322262D

 65 70  0     1  0  0  0  0  0999 V2000
    3.7899   -4.7307    0.0000 S   0  0  0  0  0  0  0  0  0  0  0  0
   15.2710    4.7307    0.0000 F   0  0  0  0  0  0  0  0  0  0  0  0
   14.6962    0.1844    0.0000 O   0  0  0  0  0  0  0  0  0  0  0  0
    7.4629   -2.0328    0.0000 N   0  0  0  0  0  0  0  0  0  0  0  0
    5.7308   -3.0328    0.0000 N   0  0  0  0  0  0  0  0  0  0  0  0
   13.0499    0.7224    0.0000 N   0  0  0  0  0  0  0  0  0  0  0  0
    4.7617   -4.5215    0.0000 N   0  0  0  0  0  0  0  0  0  0  0  0
   12.7392   -0.2281    0.0000 C   0  0  3  0  0  0  0  0  0  0  0  0
   13.3228   -1.0328    0.0000 C   0  0  0  0  0  0  0  0  0  0  0  0
   11.7930   -0.5328    0.0000 C   0  0  0  0  0  0  0  0  0  0  0  0
   11.7930   -1.5328    0.0000 C   0  0  0  0  0  0  0  0  0  0  0  0
   12.7392   -1.8376    0.0000 C   0  0  0  0  0  0  0  0  0  0  0  0
    7.4629   -3.0328    0.0000 C   0  0  0  0  0  0  0  0  0  0  0  0
    6.5968   -1.5328    0.0000 C   0  0  0  0  0  0  0  0  0  0  0  0
    8.3289   -1.5328    0.0000 C   0  0  0  0  0  0  0  0  0  0  0  0
    6.5968   -3.5328    0.0000 C   0  0  0  0  0  0  0  0  0  0  0  0
    5.7308   -2.0328    0.0000 C   0  0  0  0  0  0  0  0  0  0  0  0
    9.1949   -2.0328    0.0000 C   0  0  0  0  0  0  0  0  0  0  0  0
   10.0610   -1.5328    0.0000 C   0  0  0  0  0  0  0  0  0  0  0  0
   10.9270   -2.0328    0.0000 C   0  0  0  0  0  0  0  0  0  0  0  0
   10.9270   -0.0328    0.0000 C   0  0  0  0  0  0  0  0  0  0  0  0
   10.0610   -0.5328    0.0000 C   0  0  0  0  0  0  0  0  0  0  0  0
    4.8648   -3.5328    0.0000 C   0  0  0  0  0  0  0  0  0  0  0  0
    3.9570   -3.1277    0.0000 C   0  0  0  0  0  0  0  0  0  0  0  0
   14.0284    0.9287    0.0000 C   0  0  0  0  0  0  0  0  0  0  0  0
    3.2892   -3.8720    0.0000 C   0  0  0  0  0  0  0  0  0  0  0  0
    3.6464   -2.1772    0.0000 C   0  0  0  0  0  0  0  0  0  0  0  0
   14.3391    1.8792    0.0000 C   0  0  0  0  0  0  0  0  0  0  0  0
    2.3107   -3.6658    0.0000 C   0  0  0  0  0  0  0  0  0  0  0  0
    2.6678   -1.9710    0.0000 C   0  0  0  0  0  0  0  0  0  0  0  0
    2.0000   -2.7153    0.0000 C   0  0  0  0  0  0  0  0  0  0  0  0
   13.6712    2.6235    0.0000 C   0  0  0  0  0  0  0  0  0  0  0  0
   15.3176    2.0854    0.0000 C   0  0  0  0  0  0  0  0  0  0  0  0
   13.9819    3.5740    0.0000 C   0  0  0  0  0  0  0  0  0  0  0  0
   15.6282    3.0359    0.0000 C   0  0  0  0  0  0  0  0  0  0  0  0
   14.9604    3.7802    0.0000 C   0  0  0  0  0  0  0  0  0  0  0  0
   13.3517   -0.1319    0.0000 H   0  0  0  0  0  0  0  0  0  0  0  0
   13.7837   -1.4475    0.0000 H   0  0  0  0  0  0  0  0  0  0  0  0
   13.7837   -0.6181    0.0000 H   0  0  0  0  0  0  0  0  0  0  0  0
   12.4882   -2.4045    0.0000 H   0  0  0  0  0  0  0  0  0  0  0  0
   13.2766   -2.1468    0.0000 H   0  0  0  0  0  0  0  0  0  0  0  0
    7.6749   -3.6154    0.0000 H   0  0  0  0  0  0  0  0  0  0  0  0
    8.0734   -2.9252    0.0000 H   0  0  0  0  0  0  0  0  0  0  0  0
    6.9954   -1.0579    0.0000 H   0  0  0  0  0  0  0  0  0  0  0  0
    6.1983   -1.0579    0.0000 H   0  0  0  0  0  0  0  0  0  0  0  0
    8.7274   -1.0579    0.0000 H   0  0  0  0  0  0  0  0  0  0  0  0
    7.9304   -1.0579    0.0000 H   0  0  0  0  0  0  0  0  0  0  0  0
    6.1983   -4.0078    0.0000 H   0  0  0  0  0  0  0  0  0  0  0  0
    6.9954   -4.0078    0.0000 H   0  0  0  0  0  0  0  0  0  0  0  0
    5.5188   -1.4502    0.0000 H   0  0  0  0  0  0  0  0  0  0  0  0
    5.1202   -2.1405    0.0000 H   0  0  0  0  0  0  0  0  0  0  0  0
    8.7964   -2.5078    0.0000 H   0  0  0  0  0  0  0  0  0  0  0  0
    9.5934   -2.5078    0.0000 H   0  0  0  0  0  0  0  0  0  0  0  0
   10.9270   -2.6528    0.0000 H   0  0  0  0  0  0  0  0  0  0  0  0
   10.9270    0.5872    0.0000 H   0  0  0  0  0  0  0  0  0  0  0  0
    9.5240   -0.2228    0.0000 H   0  0  0  0  0  0  0  0  0  0  0  0
   12.6358    1.1839    0.0000 H   0  0  0  0  0  0  0  0  0  0  0  0
    4.0604   -1.7157    0.0000 H   0  0  0  0  0  0  0  0  0  0  0  0
    1.8966   -4.1272    0.0000 H   0  0  0  0  0  0  0  0  0  0  0  0
    2.4752   -1.3816    0.0000 H   0  0  0  0  0  0  0  0  0  0  0  0
    1.3933   -2.5874    0.0000 H   0  0  0  0  0  0  0  0  0  0  0  0
   13.0645    2.4956    0.0000 H   0  0  0  0  0  0  0  0  0  0  0  0
   15.7316    1.6239    0.0000 H   0  0  0  0  0  0  0  0  0  0  0  0
   13.5678    4.0355    0.0000 H   0  0  0  0  0  0  0  0  0  0  0  0
   16.2349    3.1638    0.0000 H   0  0  0  0  0  0  0  0  0  0  0  0
  1  7  1  0  0  0  0
  1 26  1  0  0  0  0
  2 36  1  0  0  0  0
  3 25  2  0  0  0  0
  4 13  1  0  0  0  0
  4 14  1  0  0  0  0
  4 15  1  0  0  0  0
  5 16  1  0  0  0  0
  5 17  1  0  0  0  0
  5 23  1  0  0  0  0
  6  8  1  0  0  0  0
  6 25  1  0  0  0  0
  6 57  1  0  0  0  0
  7 23  2  0  0  0  0
  8  9  1  0  0  0  0
  8 10  1  0  0  0  0
  8 37  1  0  0  0  0
  9 12  1  0  0  0  0
  9 38  1  0  0  0  0
  9 39  1  0  0  0  0
 10 11  2  0  0  0  0
 10 21  1  0  0  0  0
 11 12  1  0  0  0  0
 11 20  1  0  0  0  0
 12 40  1  0  0  0  0
 12 41  1  0  0  0  0
 13 16  1  0  0  0  0
 13 42  1  0  0  0  0
 13 43  1  0  0  0  0
 14 17  1  0  0  0  0
 14 44  1  0  0  0  0
 14 45  1  0  0  0  0
 15 18  1  0  0  0  0
 15 46  1  0  0  0  0
 15 47  1  0  0  0  0
 16 48  1  0  0  0  0
 16 49  1  0  0  0  0
 17 50  1  0  0  0  0
 17 51  1  0  0  0  0
 18 19  1  0  0  0  0
 18 52  1  0  0  0  0
 18 53  1  0  0  0  0
 19 20  2  0  0  0  0
 19 22  1  0  0  0  0
 20 54  1  0  0  0  0
 21 22  2  0  0  0  0
 21 55  1  0  0  0  0
 22 56  1  0  0  0  0
 23 24  1  0  0  0  0
 24 26  1  0  0  0  0
 24 27  2  0  0  0  0
 25 28  1  0  0  0  0
 26 29  2  0  0  0  0
 27 30  1  0  0  0  0
 27 58  1  0  0  0  0
 28 32  2  0  0  0  0
 28 33  1  0  0  0  0
 29 31  1  0  0  0  0
 29 59  1  0  0  0  0
 30 31  2  0  0  0  0
 30 60  1  0  0  0  0
 31 61  1  0  0  0  0
 32 34  1  0  0  0  0
 32 62  1  0  0  0  0
 33 35  2  0  0  0  0
 33 63  1  0  0  0  0
 34 36  2  0  0  0  0
 34 64  1  0  0  0  0
 35 36  1  0  0  0  0
 35 65  1  0  0  0  0
M  END
> <PUBCHEM_COMPOUND_CID>
44447070

> <PUBCHEM_COMPOUND_CANONICALIZED>
1

> <PUBCHEM_CACTVS_COMPLEXITY>
741

> <PUBCHEM_CACTVS_HBOND_ACCEPTOR>
6

> <PUBCHEM_CACTVS_HBOND_DONOR>
1

> <PUBCHEM_CACTVS_ROTATABLE_BOND>
6

> <PUBCHEM_CACTVS_SUBSKEYS>
AAADceB7oQBAAAAAAAAAAAAAAAAAAeIAAAA8YMEAAAAAAHgB9AAAHwQQQAAADCjB2gwxsdPAAACsAiNycACDABAlAABJmLkoRNiIYLLAnZGUIQxglgLIyYcYiMCOwAACAAAUAACAAAQAACgAACAACQAAAA==

> <PUBCHEM_IUPAC_OPENEYE_NAME>
N-[5-[2-[4-(1,2-benzothiazol-3-yl)piperazin-1-yl]ethyl]indan-1-yl]-4-fluoro-benzamide

> <PUBCHEM_IUPAC_CAS_NAME>
N-[5-[2-[4-(1,2-benzothiazol-3-yl)-1-piperazinyl]ethyl]-2,3-dihydro-1H-inden-1-yl]-4-fluorobenzamide

> <PUBCHEM_IUPAC_NAME_MARKUP>
<I>N</I>-[5-[2-[4-(1,2-benzothiazol-3-yl)piperazin-1-yl]ethyl]-2,3-dihydro-1<I>H</I>-inden-1-yl]-4-fluorobenzamide

> <PUBCHEM_IUPAC_NAME>
N-[5-[2-[4-(1,2-benzothiazol-3-yl)piperazin-1-yl]ethyl]-2,3-dihydro-1H-inden-1-yl]-4-fluorobenzamide

> <PUBCHEM_IUPAC_SYSTEMATIC_NAME>
N-[5-[2-[4-(1,2-benzothiazol-3-yl)piperazin-1-yl]ethyl]-2,3-dihydro-1H-inden-1-yl]-4-fluoranyl-benzamide

> <PUBCHEM_IUPAC_TRADITIONAL_NAME>
N-[5-[2-[4-(1,2-benzothiazol-3-yl)piperazino]ethyl]indan-1-yl]-4-fluoro-benzamide

> <PUBCHEM_IUPAC_INCHI>
InChI=1S/C29H29FN4OS/c30-23-9-6-21(7-10-23)29(35)31-26-12-8-22-19-20(5-11-24(22)26)13-14-33-15-17-34(18-16-33)28-25-3-1-2-4-27(25)36-32-28/h1-7,9-11,19,26H,8,12-18H2,(H,31,35)

> <PUBCHEM_IUPAC_INCHIKEY>
PHCUGENQVJPTLC-UHFFFAOYSA-N

> <PUBCHEM_XLOGP3_AA>
5.8

> <PUBCHEM_EXACT_MASS>
500.20461090

> <PUBCHEM_MOLECULAR_FORMULA>
C29H29FN4OS

> <PUBCHEM_MOLECULAR_WEIGHT>
500.6

> <PUBCHEM_OPENEYE_CAN_SMILES>
C1CC2=C(C1NC(=O)C3=CC=C(C=C3)F)C=CC(=C2)CCN4CCN(CC4)C5=NSC6=CC=CC=C65

> <PUBCHEM_OPENEYE_ISO_SMILES>
C1CC2=C(C1NC(=O)C3=CC=C(C=C3)F)C=CC(=C2)CCN4CCN(CC4)C5=NSC6=CC=CC=C65

> <PUBCHEM_CACTVS_TPSA>
76.7

> <PUBCHEM_MONOISOTOPIC_WEIGHT>
500.20461090

> <PUBCHEM_TOTAL_CHARGE>
0

> <PUBCHEM_HEAVY_ATOM_COUNT>
36

> <PUBCHEM_ATOM_DEF_STEREO_COUNT>
0

> <PUBCHEM_ATOM_UDEF_STEREO_COUNT>
1

> <PUBCHEM_BOND_DEF_STEREO_COUNT>
0

> <PUBCHEM_BOND_UDEF_STEREO_COUNT>
0

> <PUBCHEM_ISOTOPIC_ATOM_COUNT>
0

> <PUBCHEM_COMPONENT_COUNT>
1

> <PUBCHEM_CACTVS_TAUTO_COUNT>
-1

> <PUBCHEM_COORDINATE_TYPE>
1
5
255

> <PUBCHEM_BONDANNOTATIONS>
1  26  8
1  7  8
10  11  8
10  21  8
11  20  8
19  20  8
19  22  8
21  22  8
23  24  8
24  26  8
24  27  8
26  29  8
27  30  8
28  32  8
28  33  8
29  31  8
30  31  8
32  34  8
33  35  8
34  36  8
35  36  8
8  6  3
7  23  8

$$$$
