127040695
  -OEChem-09292322472D

 65 69  0     1  0  0  0  0  0999 V2000
    3.9444   -0.0631    0.0000 S   0  0  0  0  0  0  0  0  0  0  0  0
    2.4067    5.0001    0.0000 O   0  0  0  0  0  0  0  0  0  0  0  0
    4.5322   -7.9498    0.0000 O   0  0  0  0  0  0  0  0  0  0  0  0
    3.5823    3.3820    0.0000 N   0  0  3  0  0  0  0  0  0  0  0  0
    4.2232   -1.8232    0.0000 N   0  0  0  0  0  0  0  0  0  0  0  0
    5.5322   -0.8721    0.0000 N   0  0  0  0  0  0  0  0  0  0  0  0
    5.8412   -1.8232    0.0000 N   0  0  0  0  0  0  0  0  0  0  0  0
    5.8412   -6.9987    0.0000 N   0  0  0  0  0  0  0  0  0  0  0  0
    4.2232   -6.9987    0.0000 N   0  0  0  0  0  0  0  0  0  0  0  0
    3.9890    4.2956    0.0000 C   0  0  0  0  0  0  0  0  0  0  0  0
    3.4013    5.1046    0.0000 C   0  0  3  0  0  0  0  0  0  0  0  0
    2.5878    3.2775    0.0000 C   0  0  0  0  0  0  0  0  0  0  0  0
    4.1701    2.5730    0.0000 C   0  0  0  0  0  0  0  0  0  0  0  0
    2.0000    4.0865    0.0000 C   0  0  0  0  0  0  0  0  0  0  0  0
    3.8080    6.0182    0.0000 C   0  0  0  0  0  0  0  0  0  0  0  0
    3.7634    1.6595    0.0000 C   0  0  0  0  0  0  0  0  0  0  0  0
    4.3511    0.8505    0.0000 C   0  0  0  0  0  0  0  0  0  0  0  0
    4.8025    6.1227    0.0000 C   0  0  0  0  0  0  0  0  0  0  0  0
    3.2202    6.8272    0.0000 C   0  0  0  0  0  0  0  0  0  0  0  0
    5.2092    7.0362    0.0000 C   0  0  0  0  0  0  0  0  0  0  0  0
    3.6270    7.7407    0.0000 C   0  0  0  0  0  0  0  0  0  0  0  0
    4.6215    7.8452    0.0000 C   0  0  0  0  0  0  0  0  0  0  0  0
    4.5322   -0.8721    0.0000 C   0  0  0  0  0  0  0  0  0  0  0  0
    5.0282    8.7588    0.0000 C   0  0  0  0  0  0  0  0  0  0  0  0
    5.0322   -2.4109    0.0000 C   0  0  0  0  0  0  0  0  0  0  0  0
    5.0322   -3.4109    0.0000 C   0  0  0  0  0  0  0  0  0  0  0  0
    3.2721   -2.1322    0.0000 C   0  0  0  0  0  0  0  0  0  0  0  0
    5.8982   -3.9109    0.0000 C   0  0  0  0  0  0  0  0  0  0  0  0
    4.1662   -3.9109    0.0000 C   0  0  0  0  0  0  0  0  0  0  0  0
    5.0322   -5.4109    0.0000 C   0  0  0  0  0  0  0  0  0  0  0  0
    5.8982   -4.9109    0.0000 C   0  0  0  0  0  0  0  0  0  0  0  0
    4.1662   -4.9109    0.0000 C   0  0  0  0  0  0  0  0  0  0  0  0
    5.0322   -6.4109    0.0000 C   0  0  0  0  0  0  0  0  0  0  0  0
    5.5322   -7.9498    0.0000 C   0  0  0  0  0  0  0  0  0  0  0  0
    6.1200   -8.7588    0.0000 C   0  0  0  0  0  0  0  0  0  0  0  0
    4.5030    3.9489    0.0000 H   0  0  0  0  0  0  0  0  0  0  0  0
    4.4197    4.7416    0.0000 H   0  0  0  0  0  0  0  0  0  0  0  0
    4.0179    5.1694    0.0000 H   0  0  0  0  0  0  0  0  0  0  0  0
    2.0305    3.0057    0.0000 H   0  0  0  0  0  0  0  0  0  0  0  0
    2.7587    2.6815    0.0000 H   0  0  0  0  0  0  0  0  0  0  0  0
    4.6841    2.2263    0.0000 H   0  0  0  0  0  0  0  0  0  0  0  0
    4.6008    3.0190    0.0000 H   0  0  0  0  0  0  0  0  0  0  0  0
    1.4860    4.4332    0.0000 H   0  0  0  0  0  0  0  0  0  0  0  0
    1.5693    3.6406    0.0000 H   0  0  0  0  0  0  0  0  0  0  0  0
    3.2494    2.0062    0.0000 H   0  0  0  0  0  0  0  0  0  0  0  0
    3.3327    1.2135    0.0000 H   0  0  0  0  0  0  0  0  0  0  0  0
    4.8651    0.5038    0.0000 H   0  0  0  0  0  0  0  0  0  0  0  0
    4.7818    1.2965    0.0000 H   0  0  0  0  0  0  0  0  0  0  0  0
    5.1669    5.6211    0.0000 H   0  0  0  0  0  0  0  0  0  0  0  0
    2.6036    6.7624    0.0000 H   0  0  0  0  0  0  0  0  0  0  0  0
    5.8259    7.1010    0.0000 H   0  0  0  0  0  0  0  0  0  0  0  0
    3.2625    8.2423    0.0000 H   0  0  0  0  0  0  0  0  0  0  0  0
    5.5946    8.5066    0.0000 H   0  0  0  0  0  0  0  0  0  0  0  0
    5.2804    9.3252    0.0000 H   0  0  0  0  0  0  0  0  0  0  0  0
    4.4618    9.0110    0.0000 H   0  0  0  0  0  0  0  0  0  0  0  0
    3.0805   -1.5425    0.0000 H   0  0  0  0  0  0  0  0  0  0  0  0
    2.6825   -2.3238    0.0000 H   0  0  0  0  0  0  0  0  0  0  0  0
    3.4637   -2.7218    0.0000 H   0  0  0  0  0  0  0  0  0  0  0  0
    6.4352   -3.6009    0.0000 H   0  0  0  0  0  0  0  0  0  0  0  0
    3.6292   -3.6009    0.0000 H   0  0  0  0  0  0  0  0  0  0  0  0
    6.4352   -5.2209    0.0000 H   0  0  0  0  0  0  0  0  0  0  0  0
    3.6292   -5.2209    0.0000 H   0  0  0  0  0  0  0  0  0  0  0  0
    5.6184   -9.1232    0.0000 H   0  0  0  0  0  0  0  0  0  0  0  0
    6.4844   -9.2604    0.0000 H   0  0  0  0  0  0  0  0  0  0  0  0
    6.6216   -8.3944    0.0000 H   0  0  0  0  0  0  0  0  0  0  0  0
  1 17  1  0  0  0  0
  1 23  1  0  0  0  0
  2 11  1  0  0  0  0
  2 14  1  0  0  0  0
  3  9  1  0  0  0  0
  3 34  1  0  0  0  0
  4 10  1  0  0  0  0
  4 12  1  0  0  0  0
  4 13  1  0  0  0  0
  5 23  1  0  0  0  0
  5 25  1  0  0  0  0
  5 27  1  0  0  0  0
  6  7  1  0  0  0  0
  6 23  2  0  0  0  0
  7 25  2  0  0  0  0
  8 33  1  0  0  0  0
  8 34  2  0  0  0  0
  9 33  2  0  0  0  0
 10 11  1  0  0  0  0
 10 36  1  0  0  0  0
 10 37  1  0  0  0  0
 11 15  1  0  0  0  0
 11 38  1  0  0  0  0
 12 14  1  0  0  0  0
 12 39  1  0  0  0  0
 12 40  1  0  0  0  0
 13 16  1  0  0  0  0
 13 41  1  0  0  0  0
 13 42  1  0  0  0  0
 14 43  1  0  0  0  0
 14 44  1  0  0  0  0
 15 18  2  0  0  0  0
 15 19  1  0  0  0  0
 16 17  1  0  0  0  0
 16 45  1  0  0  0  0
 16 46  1  0  0  0  0
 17 47  1  0  0  0  0
 17 48  1  0  0  0  0
 18 20  1  0  0  0  0
 18 49  1  0  0  0  0
 19 21  2  0  0  0  0
 19 50  1  0  0  0  0
 20 22  2  0  0  0  0
 20 51  1  0  0  0  0
 21 22  1  0  0  0  0
 21 52  1  0  0  0  0
 22 24  1  0  0  0  0
 24 53  1  0  0  0  0
 24 54  1  0  0  0  0
 24 55  1  0  0  0  0
 25 26  1  0  0  0  0
 26 28  2  0  0  0  0
 26 29  1  0  0  0  0
 27 56  1  0  0  0  0
 27 57  1  0  0  0  0
 27 58  1  0  0  0  0
 28 31  1  0  0  0  0
 28 59  1  0  0  0  0
 29 32  2  0  0  0  0
 29 60  1  0  0  0  0
 30 31  2  0  0  0  0
 30 32  1  0  0  0  0
 30 33  1  0  0  0  0
 31 61  1  0  0  0  0
 32 62  1  0  0  0  0
 34 35  1  0  0  0  0
 35 63  1  0  0  0  0
 35 64  1  0  0  0  0
 35 65  1  0  0  0  0
M  END
> <PUBCHEM_COMPOUND_CID>
127040695

> <PUBCHEM_COMPOUND_CANONICALIZED>
1

> <PUBCHEM_CACTVS_COMPLEXITY>
645

> <PUBCHEM_CACTVS_HBOND_ACCEPTOR>
8

> <PUBCHEM_CACTVS_HBOND_DONOR>
0

> <PUBCHEM_CACTVS_ROTATABLE_BOND>
8

> <PUBCHEM_CACTVS_SUBSKEYS>
AAADceB7sABAAAAAAAAAAAAAAAAAAWLAAAA8YIAAAAAAAAAB9AAAHgQMAAAADBTl2wazEIccFAirAiNyNgCS0AtgALA9yCA4DJiKLqKguRmHMAhkzQOYqAeQwPAOQAAAAAAAAACAAAAAAAAAAAAAAAAAAA==

> <PUBCHEM_IUPAC_OPENEYE_NAME>
4-[3-[[4-methyl-5-[4-(5-methyl-1,2,4-oxadiazol-3-yl)phenyl]-1,2,4-triazol-3-yl]sulfanyl]propyl]-2-(p-tolyl)morpholine

> <PUBCHEM_IUPAC_CAS_NAME>
4-[3-[[4-methyl-5-[4-(5-methyl-1,2,4-oxadiazol-3-yl)phenyl]-1,2,4-triazol-3-yl]thio]propyl]-2-(4-methylphenyl)morpholine

> <PUBCHEM_IUPAC_NAME_MARKUP>
4-[3-[[4-methyl-5-[4-(5-methyl-1,2,4-oxadiazol-3-yl)phenyl]-1,2,4-triazol-3-yl]sulfanyl]propyl]-2-(4-methylphenyl)morpholine

> <PUBCHEM_IUPAC_NAME>
4-[3-[[4-methyl-5-[4-(5-methyl-1,2,4-oxadiazol-3-yl)phenyl]-1,2,4-triazol-3-yl]sulfanyl]propyl]-2-(4-methylphenyl)morpholine

> <PUBCHEM_IUPAC_SYSTEMATIC_NAME>
4-[3-[[4-methyl-5-[4-(5-methyl-1,2,4-oxadiazol-3-yl)phenyl]-1,2,4-triazol-3-yl]sulfanyl]propyl]-2-(4-methylphenyl)morpholine

> <PUBCHEM_IUPAC_TRADITIONAL_NAME>
4-[3-[[4-methyl-5-[4-(5-methyl-1,2,4-oxadiazol-3-yl)phenyl]-1,2,4-triazol-3-yl]thio]propyl]-2-(p-tolyl)morpholine

> <PUBCHEM_IUPAC_INCHI>
InChI=1S/C26H30N6O2S/c1-18-5-7-20(8-6-18)23-17-32(14-15-33-23)13-4-16-35-26-29-28-25(31(26)3)22-11-9-21(10-12-22)24-27-19(2)34-30-24/h5-12,23H,4,13-17H2,1-3H3

> <PUBCHEM_IUPAC_INCHIKEY>
WQOCUOYKDKZARU-UHFFFAOYSA-N

> <PUBCHEM_XLOGP3_AA>
4.1

> <PUBCHEM_EXACT_MASS>
490.21509539

> <PUBCHEM_MOLECULAR_FORMULA>
C26H30N6O2S

> <PUBCHEM_MOLECULAR_WEIGHT>
490.6

> <PUBCHEM_OPENEYE_CAN_SMILES>
CC1=CC=C(C=C1)C2CN(CCO2)CCCSC3=NN=C(N3C)C4=CC=C(C=C4)C5=NOC(=N5)C

> <PUBCHEM_OPENEYE_ISO_SMILES>
CC1=CC=C(C=C1)C2CN(CCO2)CCCSC3=NN=C(N3C)C4=CC=C(C=C4)C5=NOC(=N5)C

> <PUBCHEM_CACTVS_TPSA>
107

> <PUBCHEM_MONOISOTOPIC_WEIGHT>
490.21509539

> <PUBCHEM_TOTAL_CHARGE>
0

> <PUBCHEM_HEAVY_ATOM_COUNT>
35

> <PUBCHEM_ATOM_DEF_STEREO_COUNT>
0

> <PUBCHEM_ATOM_UDEF_STEREO_COUNT>
1

> <PUBCHEM_BOND_DEF_STEREO_COUNT>
0

> <PUBCHEM_BOND_UDEF_STEREO_COUNT>
0

> <PUBCHEM_ISOTOPIC_ATOM_COUNT>
0

> <PUBCHEM_COMPONENT_COUNT>
1

> <PUBCHEM_CACTVS_TAUTO_COUNT>
-1

> <PUBCHEM_COORDINATE_TYPE>
1
5
255

> <PUBCHEM_BONDANNOTATIONS>
11  15  3
15  18  8
15  19  8
18  20  8
19  21  8
20  22  8
21  22  8
26  28  8
26  29  8
28  31  8
29  32  8
3  34  8
3  9  8
30  31  8
30  32  8
5  23  8
5  25  8
6  23  8
6  7  8
7  25  8
8  33  8
8  34  8
9  33  8

$$$$
