145982165
  -OEChem-09292322392D

 68 72  0     1  0  0  0  0  0999 V2000
    5.4921    0.2132    0.0000 O   0  0  0  0  0  0  0  0  0  0  0  0
    2.0000    1.4920    0.0000 O   0  0  0  0  0  0  0  0  0  0  0  0
    5.5202    1.4920    0.0000 O   0  0  0  0  0  0  0  0  0  0  0  0
    7.2242   -4.7867    0.0000 O   0  0  0  0  0  0  0  0  0  0  0  0
    5.4921   -1.7868    0.0000 N   0  0  0  0  0  0  0  0  0  0  0  0
    7.2242   -2.7868    0.0000 N   0  0  0  0  0  0  0  0  0  0  0  0
    3.7601    1.2132    0.0000 N   0  0  0  0  0  0  0  0  0  0  0  0
    4.2601    2.7521    0.0000 N   0  0  0  0  0  0  0  0  0  0  0  0
    3.2601    2.7521    0.0000 C   0  0  3  0  0  0  0  0  0  0  0  0
    4.6261   -1.2868    0.0000 C   0  0  0  0  0  0  0  0  0  0  0  0
    5.4921   -2.7868    0.0000 C   0  0  0  0  0  0  0  0  0  0  0  0
    6.3582   -1.2868    0.0000 C   0  0  0  0  0  0  0  0  0  0  0  0
    4.6261   -0.2868    0.0000 C   0  0  3  0  0  0  0  0  0  0  0  0
    6.3582   -3.2868    0.0000 C   0  0  0  0  0  0  0  0  0  0  0  0
    7.2242   -1.7868    0.0000 C   0  0  0  0  0  0  0  0  0  0  0  0
    3.7601    0.2132    0.0000 C   0  0  0  0  0  0  0  0  0  0  0  0
    2.9511    1.8010    0.0000 C   0  0  0  0  0  0  0  0  0  0  0  0
    3.2601    3.7521    0.0000 C   0  0  0  0  0  0  0  0  0  0  0  0
    4.5691    1.8010    0.0000 C   0  0  0  0  0  0  0  0  0  0  0  0
    2.3090    3.0611    0.0000 C   0  0  0  0  0  0  0  0  0  0  0  0
    8.0902   -3.2868    0.0000 C   0  0  0  0  0  0  0  0  0  0  0  0
    4.1261    4.2521    0.0000 C   0  0  0  0  0  0  0  0  0  0  0  0
    2.3940    4.2521    0.0000 C   0  0  0  0  0  0  0  0  0  0  0  0
    4.1261    5.2521    0.0000 C   0  0  0  0  0  0  0  0  0  0  0  0
    8.0902   -4.2867    0.0000 C   0  0  0  0  0  0  0  0  0  0  0  0
    8.9562   -2.7868    0.0000 C   0  0  0  0  0  0  0  0  0  0  0  0
    2.3940    5.2521    0.0000 C   0  0  0  0  0  0  0  0  0  0  0  0
    5.0200    3.7174    0.0000 C   0  0  0  0  0  0  0  0  0  0  0  0
    3.2601    5.7521    0.0000 C   0  0  0  0  0  0  0  0  0  0  0  0
    5.0200    5.7867    0.0000 C   0  0  0  0  0  0  0  0  0  0  0  0
    8.9562   -4.7867    0.0000 C   0  0  0  0  0  0  0  0  0  0  0  0
    9.8222   -3.2868    0.0000 C   0  0  0  0  0  0  0  0  0  0  0  0
    5.9261    4.2313    0.0000 C   0  0  0  0  0  0  0  0  0  0  0  0
    5.9261    5.2729    0.0000 C   0  0  0  0  0  0  0  0  0  0  0  0
    9.8222   -4.2867    0.0000 C   0  0  0  0  0  0  0  0  0  0  0  0
    7.2242   -5.7867    0.0000 C   0  0  0  0  0  0  0  0  0  0  0  0
    4.0155   -1.1791    0.0000 H   0  0  0  0  0  0  0  0  0  0  0  0
    4.4140   -1.8694    0.0000 H   0  0  0  0  0  0  0  0  0  0  0  0
    4.8815   -2.6791    0.0000 H   0  0  0  0  0  0  0  0  0  0  0  0
    5.2801   -3.3694    0.0000 H   0  0  0  0  0  0  0  0  0  0  0  0
    6.7567   -0.8118    0.0000 H   0  0  0  0  0  0  0  0  0  0  0  0
    5.9596   -0.8118    0.0000 H   0  0  0  0  0  0  0  0  0  0  0  0
    5.1630   -0.5968    0.0000 H   0  0  0  0  0  0  0  0  0  0  0  0
    5.9596   -3.7617    0.0000 H   0  0  0  0  0  0  0  0  0  0  0  0
    6.7567   -3.7617    0.0000 H   0  0  0  0  0  0  0  0  0  0  0  0
    7.8348   -1.8944    0.0000 H   0  0  0  0  0  0  0  0  0  0  0  0
    7.4362   -1.2041    0.0000 H   0  0  0  0  0  0  0  0  0  0  0  0
    3.1495    0.3209    0.0000 H   0  0  0  0  0  0  0  0  0  0  0  0
    3.5480   -0.3694    0.0000 H   0  0  0  0  0  0  0  0  0  0  0  0
    4.6245    3.2537    0.0000 H   0  0  0  0  0  0  0  0  0  0  0  0
    2.5006    3.6508    0.0000 H   0  0  0  0  0  0  0  0  0  0  0  0
    1.7194    3.2527    0.0000 H   0  0  0  0  0  0  0  0  0  0  0  0
    2.1174    2.4714    0.0000 H   0  0  0  0  0  0  0  0  0  0  0  0
    1.8571    3.9421    0.0000 H   0  0  0  0  0  0  0  0  0  0  0  0
    6.0291   -0.0968    0.0000 H   0  0  0  0  0  0  0  0  0  0  0  0
    8.9562   -2.1668    0.0000 H   0  0  0  0  0  0  0  0  0  0  0  0
    1.8571    5.5621    0.0000 H   0  0  0  0  0  0  0  0  0  0  0  0
    5.0129    3.0975    0.0000 H   0  0  0  0  0  0  0  0  0  0  0  0
    3.2601    6.3721    0.0000 H   0  0  0  0  0  0  0  0  0  0  0  0
    5.0129    6.4067    0.0000 H   0  0  0  0  0  0  0  0  0  0  0  0
    8.9562   -5.4068    0.0000 H   0  0  0  0  0  0  0  0  0  0  0  0
   10.3592   -2.9768    0.0000 H   0  0  0  0  0  0  0  0  0  0  0  0
    6.4618    3.9192    0.0000 H   0  0  0  0  0  0  0  0  0  0  0  0
    6.4618    5.5850    0.0000 H   0  0  0  0  0  0  0  0  0  0  0  0
   10.3592   -4.5968    0.0000 H   0  0  0  0  0  0  0  0  0  0  0  0
    6.6042   -5.7867    0.0000 H   0  0  0  0  0  0  0  0  0  0  0  0
    7.2242   -6.4068    0.0000 H   0  0  0  0  0  0  0  0  0  0  0  0
    7.8442   -5.7867    0.0000 H   0  0  0  0  0  0  0  0  0  0  0  0
  1 13  1  0  0  0  0
  1 55  1  0  0  0  0
  2 17  2  0  0  0  0
  3 19  2  0  0  0  0
  4 25  1  0  0  0  0
  4 36  1  0  0  0  0
  5 10  1  0  0  0  0
  5 11  1  0  0  0  0
  5 12  1  0  0  0  0
  6 14  1  0  0  0  0
  6 15  1  0  0  0  0
  6 21  1  0  0  0  0
  7 16  1  0  0  0  0
  7 17  1  0  0  0  0
  7 19  1  0  0  0  0
  8  9  1  0  0  0  0
  8 19  1  0  0  0  0
  8 50  1  0  0  0  0
  9 17  1  0  0  0  0
  9 18  1  0  0  0  0
  9 20  1  0  0  0  0
 10 13  1  0  0  0  0
 10 37  1  0  0  0  0
 10 38  1  0  0  0  0
 11 14  1  0  0  0  0
 11 39  1  0  0  0  0
 11 40  1  0  0  0  0
 12 15  1  0  0  0  0
 12 41  1  0  0  0  0
 12 42  1  0  0  0  0
 13 16  1  0  0  0  0
 13 43  1  0  0  0  0
 14 44  1  0  0  0  0
 14 45  1  0  0  0  0
 15 46  1  0  0  0  0
 15 47  1  0  0  0  0
 16 48  1  0  0  0  0
 16 49  1  0  0  0  0
 18 22  1  0  0  0  0
 18 23  2  0  0  0  0
 20 51  1  0  0  0  0
 20 52  1  0  0  0  0
 20 53  1  0  0  0  0
 21 25  1  0  0  0  0
 21 26  2  0  0  0  0
 22 24  1  0  0  0  0
 22 28  2  0  0  0  0
 23 27  1  0  0  0  0
 23 54  1  0  0  0  0
 24 29  1  0  0  0  0
 24 30  2  0  0  0  0
 25 31  2  0  0  0  0
 26 32  1  0  0  0  0
 26 56  1  0  0  0  0
 27 29  2  0  0  0  0
 27 57  1  0  0  0  0
 28 33  1  0  0  0  0
 28 58  1  0  0  0  0
 29 59  1  0  0  0  0
 30 34  1  0  0  0  0
 30 60  1  0  0  0  0
 31 35  1  0  0  0  0
 31 61  1  0  0  0  0
 32 35  2  0  0  0  0
 32 62  1  0  0  0  0
 33 34  2  0  0  0  0
 33 63  1  0  0  0  0
 34 64  1  0  0  0  0
 35 65  1  0  0  0  0
 36 66  1  0  0  0  0
 36 67  1  0  0  0  0
 36 68  1  0  0  0  0
M  END
> <PUBCHEM_COMPOUND_CID>
145982165

> <PUBCHEM_COMPOUND_CANONICALIZED>
1

> <PUBCHEM_CACTVS_COMPLEXITY>
788

> <PUBCHEM_CACTVS_HBOND_ACCEPTOR>
6

> <PUBCHEM_CACTVS_HBOND_DONOR>
2

> <PUBCHEM_CACTVS_ROTATABLE_BOND>
7

> <PUBCHEM_CACTVS_SUBSKEYS>
AAADcfB7uAAAAAAAAAAAAAAAAAAAAWAAAAA8YMEAAAAAAADBVAAAHgAQCAAADJzhmAYzxsPABgCIAiVSUACCCAAhIgAIiAGPbIiOdjLE9buVMChs1zPY6AeYyMCOgAACAAAQEAAAAAQAACAgAAAAAAAAAA==

> <PUBCHEM_IUPAC_OPENEYE_NAME>
3-[2-hydroxy-3-[4-(2-methoxyphenyl)piperazin-1-yl]propyl]-5-methyl-5-(1-naphthyl)imidazolidine-2,4-dione

> <PUBCHEM_IUPAC_CAS_NAME>
3-[2-hydroxy-3-[4-(2-methoxyphenyl)-1-piperazinyl]propyl]-5-methyl-5-(1-naphthalenyl)imidazolidine-2,4-dione

> <PUBCHEM_IUPAC_NAME_MARKUP>
3-[2-hydroxy-3-[4-(2-methoxyphenyl)piperazin-1-yl]propyl]-5-methyl-5-naphthalen-1-ylimidazolidine-2,4-dione

> <PUBCHEM_IUPAC_NAME>
3-[2-hydroxy-3-[4-(2-methoxyphenyl)piperazin-1-yl]propyl]-5-methyl-5-naphthalen-1-ylimidazolidine-2,4-dione

> <PUBCHEM_IUPAC_SYSTEMATIC_NAME>
3-[3-[4-(2-methoxyphenyl)piperazin-1-yl]-2-oxidanyl-propyl]-5-methyl-5-naphthalen-1-yl-imidazolidine-2,4-dione

> <PUBCHEM_IUPAC_TRADITIONAL_NAME>
3-[2-hydroxy-3-[4-(2-methoxyphenyl)piperazino]propyl]-5-methyl-5-(1-naphthyl)hydantoin

> <PUBCHEM_IUPAC_INCHI>
InChI=1S/C28H32N4O4/c1-28(23-11-7-9-20-8-3-4-10-22(20)23)26(34)32(27(35)29-28)19-21(33)18-30-14-16-31(17-15-30)24-12-5-6-13-25(24)36-2/h3-13,21,33H,14-19H2,1-2H3,(H,29,35)

> <PUBCHEM_IUPAC_INCHIKEY>
CBUWAEDOOAMJSO-UHFFFAOYSA-N

> <PUBCHEM_XLOGP3_AA>
3.3

> <PUBCHEM_EXACT_MASS>
488.24235551

> <PUBCHEM_MOLECULAR_FORMULA>
C28H32N4O4

> <PUBCHEM_MOLECULAR_WEIGHT>
488.6

> <PUBCHEM_OPENEYE_CAN_SMILES>
CC1(C(=O)N(C(=O)N1)CC(CN2CCN(CC2)C3=CC=CC=C3OC)O)C4=CC=CC5=CC=CC=C54

> <PUBCHEM_OPENEYE_ISO_SMILES>
CC1(C(=O)N(C(=O)N1)CC(CN2CCN(CC2)C3=CC=CC=C3OC)O)C4=CC=CC5=CC=CC=C54

> <PUBCHEM_CACTVS_TPSA>
85.4

> <PUBCHEM_MONOISOTOPIC_WEIGHT>
488.24235551

> <PUBCHEM_TOTAL_CHARGE>
0

> <PUBCHEM_HEAVY_ATOM_COUNT>
36

> <PUBCHEM_ATOM_DEF_STEREO_COUNT>
0

> <PUBCHEM_ATOM_UDEF_STEREO_COUNT>
2

> <PUBCHEM_BOND_DEF_STEREO_COUNT>
0

> <PUBCHEM_BOND_UDEF_STEREO_COUNT>
0

> <PUBCHEM_ISOTOPIC_ATOM_COUNT>
0

> <PUBCHEM_COMPONENT_COUNT>
1

> <PUBCHEM_CACTVS_TAUTO_COUNT>
-1

> <PUBCHEM_COORDINATE_TYPE>
1
5
255

> <PUBCHEM_BONDANNOTATIONS>
13  1  3
18  22  8
18  23  8
21  25  8
21  26  8
22  24  8
22  28  8
23  27  8
24  29  8
24  30  8
25  31  8
26  32  8
27  29  8
28  33  8
30  34  8
31  35  8
32  35  8
33  34  8
9  20  3

$$$$
