155561845
  -OEChem-09292322062D

 39 43  0     1  0  0  0  0  0999 V2000
    7.6409   -2.2760    0.0000 O   0  0  0  0  0  0  0  0  0  0  0  0
    9.0927   -1.4377    0.0000 O   0  0  0  0  0  0  0  0  0  0  0  0
    2.9554   -0.7721    0.0000 O   0  0  0  0  0  0  0  0  0  0  0  0
    5.6750    1.8056    0.0000 N   0  0  3  0  0  0  0  0  0  0  0  0
    5.6750    0.8056    0.0000 C   0  0  3  0  0  0  0  0  0  0  0  0
    4.7810    0.2709    0.0000 C   0  0  0  0  0  0  0  0  0  0  0  0
    6.5410    0.3056    0.0000 C   0  0  0  0  0  0  0  0  0  0  0  0
    6.5410    2.3056    0.0000 C   0  0  0  0  0  0  0  0  0  0  0  0
    4.7810    2.3402    0.0000 C   0  0  0  0  0  0  0  0  0  0  0  0
    7.4070    1.8056    0.0000 C   0  0  0  0  0  0  0  0  0  0  0  0
    7.4070    0.8056    0.0000 C   0  0  0  0  0  0  0  0  0  0  0  0
    3.8749    0.7848    0.0000 C   0  0  0  0  0  0  0  0  0  0  0  0
    3.8749    1.8264    0.0000 C   0  0  0  0  0  0  0  0  0  0  0  0
    6.5249   -0.7359    0.0000 C   0  0  0  0  0  0  0  0  0  0  0  0
    8.3170    0.2987    0.0000 C   0  0  0  0  0  0  0  0  0  0  0  0
    2.9438    0.2278    0.0000 C   0  0  0  0  0  0  0  0  0  0  0  0
    7.4230   -1.2637    0.0000 C   0  0  0  0  0  0  0  0  0  0  0  0
    8.3250   -0.7429    0.0000 C   0  0  0  0  0  0  0  0  0  0  0  0
    2.9438    2.3833    0.0000 C   0  0  0  0  0  0  0  0  0  0  0  0
    2.0000    0.7631    0.0000 C   0  0  0  0  0  0  0  0  0  0  0  0
    2.0000    1.8481    0.0000 C   0  0  0  0  0  0  0  0  0  0  0  0
    8.6708   -2.3833    0.0000 C   0  0  0  0  0  0  0  0  0  0  0  0
    5.6797    0.1856    0.0000 H   0  0  0  0  0  0  0  0  0  0  0  0
    4.3874   -0.2081    0.0000 H   0  0  0  0  0  0  0  0  0  0  0  0
    5.1856   -0.1989    0.0000 H   0  0  0  0  0  0  0  0  0  0  0  0
    6.9395    2.7805    0.0000 H   0  0  0  0  0  0  0  0  0  0  0  0
    6.1424    2.7805    0.0000 H   0  0  0  0  0  0  0  0  0  0  0  0
    5.1856    2.8100    0.0000 H   0  0  0  0  0  0  0  0  0  0  0  0
    4.3874    2.8192    0.0000 H   0  0  0  0  0  0  0  0  0  0  0  0
    8.0176    1.6979    0.0000 H   0  0  0  0  0  0  0  0  0  0  0  0
    7.6191    2.3882    0.0000 H   0  0  0  0  0  0  0  0  0  0  0  0
    5.9844   -1.0397    0.0000 H   0  0  0  0  0  0  0  0  0  0  0  0
    8.8503    0.6149    0.0000 H   0  0  0  0  0  0  0  0  0  0  0  0
    2.9510    3.0033    0.0000 H   0  0  0  0  0  0  0  0  0  0  0  0
    1.4643    0.4510    0.0000 H   0  0  0  0  0  0  0  0  0  0  0  0
    1.4643    2.1601    0.0000 H   0  0  0  0  0  0  0  0  0  0  0  0
    8.5420   -2.9898    0.0000 H   0  0  0  0  0  0  0  0  0  0  0  0
    9.2604   -2.5751    0.0000 H   0  0  0  0  0  0  0  0  0  0  0  0
    2.4220   -1.0883    0.0000 H   0  0  0  0  0  0  0  0  0  0  0  0
  1 17  1  0  0  0  0
  1 22  1  0  0  0  0
  2 18  1  0  0  0  0
  2 22  1  0  0  0  0
  3 16  1  0  0  0  0
  3 39  1  0  0  0  0
  4  5  1  0  0  0  0
  4  8  1  0  0  0  0
  4  9  1  0  0  0  0
  5  6  1  0  0  0  0
  5  7  1  0  0  0  0
  5 23  1  0  0  0  0
  6 12  1  0  0  0  0
  6 24  1  0  0  0  0
  6 25  1  0  0  0  0
  7 11  1  0  0  0  0
  7 14  2  0  0  0  0
  8 10  1  0  0  0  0
  8 26  1  0  0  0  0
  8 27  1  0  0  0  0
  9 13  1  0  0  0  0
  9 28  1  0  0  0  0
  9 29  1  0  0  0  0
 10 11  1  0  0  0  0
 10 30  1  0  0  0  0
 10 31  1  0  0  0  0
 11 15  2  0  0  0  0
 12 13  2  0  0  0  0
 12 16  1  0  0  0  0
 13 19  1  0  0  0  0
 14 17  1  0  0  0  0
 14 32  1  0  0  0  0
 15 18  1  0  0  0  0
 15 33  1  0  0  0  0
 16 20  2  0  0  0  0
 17 18  2  0  0  0  0
 19 21  2  0  0  0  0
 19 34  1  0  0  0  0
 20 21  1  0  0  0  0
 20 35  1  0  0  0  0
 21 36  1  0  0  0  0
 22 37  1  0  0  0  0
 22 38  1  0  0  0  0
M  END
> <PUBCHEM_COMPOUND_CID>
155561845

> <PUBCHEM_COMPOUND_CANONICALIZED>
1

> <PUBCHEM_CACTVS_COMPLEXITY>
431

> <PUBCHEM_CACTVS_HBOND_ACCEPTOR>
4

> <PUBCHEM_CACTVS_HBOND_DONOR>
1

> <PUBCHEM_CACTVS_ROTATABLE_BOND>
0

> <PUBCHEM_CACTVS_SUBSKEYS>
AAADceB6MAAAAAAAAAAAAAAAAAAAASAAAAA8eIEAAAAAAEixQAAAHgAACAAADCzBmAcwDoMABgCAAiBCAACCCAAgIAAIiAAOjIgdJiKGsRukcCpkwBGOuAew0PMOoAABAAAYQABAAAIAADCAAAAAAAAAAA==

> <PUBCHEM_IUPAC_OPENEYE_NAME>
5,7-dioxa-13-azapentacyclo[11.8.0.02,10.04,8.015,20]henicosa-2,4(8),9,15(20),16,18-hexaen-19-ol

> <PUBCHEM_IUPAC_CAS_NAME>
5,7-dioxa-13-azapentacyclo[11.8.0.02,10.04,8.015,20]heneicosa-2,4(8),9,15(20),16,18-hexaen-19-ol

> <PUBCHEM_IUPAC_NAME_MARKUP>
5,7-dioxa-13-azapentacyclo[11.8.0.0<SUP>2,10</SUP>.0<SUP>4,8</SUP>.0<SUP>15,20</SUP>]henicosa-2,4(8),9,15(20),16,18-hexaen-19-ol

> <PUBCHEM_IUPAC_NAME>
5,7-dioxa-13-azapentacyclo[11.8.0.02,10.04,8.015,20]henicosa-2,4(8),9,15(20),16,18-hexaen-19-ol

> <PUBCHEM_IUPAC_SYSTEMATIC_NAME>
5,7-dioxa-13-azapentacyclo[11.8.0.02,10.04,8.015,20]henicosa-2,4(8),9,15(20),16,18-hexaen-19-ol

> <PUBCHEM_IUPAC_TRADITIONAL_NAME>
5,7-dioxa-13-azapentacyclo[11.8.0.02,10.04,8.015,20]heneicosa-2,4(8),9,15(20),16,18-hexaen-19-ol

> <PUBCHEM_IUPAC_INCHI>
InChI=1S/C18H17NO3/c20-16-3-1-2-12-9-19-5-4-11-6-17-18(22-10-21-17)8-13(11)15(19)7-14(12)16/h1-3,6,8,15,20H,4-5,7,9-10H2

> <PUBCHEM_IUPAC_INCHIKEY>
AJIGSTIZSNHTOD-UHFFFAOYSA-N

> <PUBCHEM_XLOGP3_AA>
2.8

> <PUBCHEM_EXACT_MASS>
295.12084340

> <PUBCHEM_MOLECULAR_FORMULA>
C18H17NO3

> <PUBCHEM_MOLECULAR_WEIGHT>
295.3

> <PUBCHEM_OPENEYE_CAN_SMILES>
C1CN2CC3=C(CC2C4=CC5=C(C=C41)OCO5)C(=CC=C3)O

> <PUBCHEM_OPENEYE_ISO_SMILES>
C1CN2CC3=C(CC2C4=CC5=C(C=C41)OCO5)C(=CC=C3)O

> <PUBCHEM_CACTVS_TPSA>
41.9

> <PUBCHEM_MONOISOTOPIC_WEIGHT>
295.12084340

> <PUBCHEM_TOTAL_CHARGE>
0

> <PUBCHEM_HEAVY_ATOM_COUNT>
22

> <PUBCHEM_ATOM_DEF_STEREO_COUNT>
0

> <PUBCHEM_ATOM_UDEF_STEREO_COUNT>
1

> <PUBCHEM_BOND_DEF_STEREO_COUNT>
0

> <PUBCHEM_BOND_UDEF_STEREO_COUNT>
0

> <PUBCHEM_ISOTOPIC_ATOM_COUNT>
0

> <PUBCHEM_COMPONENT_COUNT>
1

> <PUBCHEM_CACTVS_TAUTO_COUNT>
-1

> <PUBCHEM_COORDINATE_TYPE>
1
5
255

> <PUBCHEM_BONDANNOTATIONS>
11  15  8
12  13  8
12  16  8
13  19  8
14  17  8
15  18  8
16  20  8
17  18  8
19  21  8
20  21  8
5  6  3
7  11  8
7  14  8

$$$$
