71724946
  -OEChem-09292322012D

 52 55  0     0  0  0  0  0  0999 V2000
    9.7619    1.9961    0.0000 O   0  0  0  0  0  0  0  0  0  0  0  0
    6.7619   -3.2001    0.0000 O   0  0  0  0  0  0  0  0  0  0  0  0
   12.7619    3.7281    0.0000 O   0  0  0  0  0  0  0  0  0  0  0  0
    7.7619    0.2640    0.0000 N   0  0  0  0  0  0  0  0  0  0  0  0
    6.7619   -1.4680    0.0000 N   0  0  0  0  0  0  0  0  0  0  0  0
    4.6783   -3.1388    0.0000 N   0  0  0  0  0  0  0  0  0  0  0  0
    2.8660   -3.3341    0.0000 N   0  0  0  0  0  0  0  0  0  0  0  0
    6.7619    0.2640    0.0000 C   0  0  0  0  0  0  0  0  0  0  0  0
    8.2619   -0.6020    0.0000 C   0  0  0  0  0  0  0  0  0  0  0  0
    6.2619   -0.6020    0.0000 C   0  0  0  0  0  0  0  0  0  0  0  0
    7.7619   -1.4680    0.0000 C   0  0  0  0  0  0  0  0  0  0  0  0
    8.2619    1.1300    0.0000 C   0  0  0  0  0  0  0  0  0  0  0  0
    6.2619   -2.3341    0.0000 C   0  0  0  0  0  0  0  0  0  0  0  0
    9.2619    1.1300    0.0000 C   0  0  0  0  0  0  0  0  0  0  0  0
    5.2619   -2.3341    0.0000 C   0  0  0  0  0  0  0  0  0  0  0  0
    4.6783   -1.5293    0.0000 C   0  0  0  0  0  0  0  0  0  0  0  0
    3.7320   -1.8341    0.0000 C   0  0  0  0  0  0  0  0  0  0  0  0
    3.7320   -2.8341    0.0000 C   0  0  0  0  0  0  0  0  0  0  0  0
   10.7619    1.9961    0.0000 C   0  0  0  0  0  0  0  0  0  0  0  0
    2.8660   -1.3341    0.0000 C   0  0  0  0  0  0  0  0  0  0  0  0
    2.0000   -1.8341    0.0000 C   0  0  0  0  0  0  0  0  0  0  0  0
   11.2619    2.8621    0.0000 C   0  0  0  0  0  0  0  0  0  0  0  0
    2.0000   -2.8341    0.0000 C   0  0  0  0  0  0  0  0  0  0  0  0
   11.2619    1.1300    0.0000 C   0  0  0  0  0  0  0  0  0  0  0  0
   12.2619    2.8621    0.0000 C   0  0  0  0  0  0  0  0  0  0  0  0
   12.2619    1.1300    0.0000 C   0  0  0  0  0  0  0  0  0  0  0  0
   12.7619    1.9961    0.0000 C   0  0  0  0  0  0  0  0  0  0  0  0
   13.7619    3.7281    0.0000 C   0  0  0  0  0  0  0  0  0  0  0  0
    6.8695    0.8746    0.0000 H   0  0  0  0  0  0  0  0  0  0  0  0
    6.1793    0.4761    0.0000 H   0  0  0  0  0  0  0  0  0  0  0  0
    8.7368   -1.0005    0.0000 H   0  0  0  0  0  0  0  0  0  0  0  0
    8.7368   -0.2035    0.0000 H   0  0  0  0  0  0  0  0  0  0  0  0
    5.7869   -0.2035    0.0000 H   0  0  0  0  0  0  0  0  0  0  0  0
    5.7869   -1.0005    0.0000 H   0  0  0  0  0  0  0  0  0  0  0  0
    7.6542   -2.0786    0.0000 H   0  0  0  0  0  0  0  0  0  0  0  0
    8.3445   -1.6801    0.0000 H   0  0  0  0  0  0  0  0  0  0  0  0
    8.3695    1.7406    0.0000 H   0  0  0  0  0  0  0  0  0  0  0  0
    7.6793    1.3421    0.0000 H   0  0  0  0  0  0  0  0  0  0  0  0
    9.1542    0.5195    0.0000 H   0  0  0  0  0  0  0  0  0  0  0  0
    9.8445    0.9180    0.0000 H   0  0  0  0  0  0  0  0  0  0  0  0
    4.8709   -0.9400    0.0000 H   0  0  0  0  0  0  0  0  0  0  0  0
    4.8709   -3.7281    0.0000 H   0  0  0  0  0  0  0  0  0  0  0  0
    2.8660   -0.7141    0.0000 H   0  0  0  0  0  0  0  0  0  0  0  0
    1.4631   -1.5241    0.0000 H   0  0  0  0  0  0  0  0  0  0  0  0
   10.9519    3.3990    0.0000 H   0  0  0  0  0  0  0  0  0  0  0  0
   10.9519    0.5931    0.0000 H   0  0  0  0  0  0  0  0  0  0  0  0
    1.4631   -3.1441    0.0000 H   0  0  0  0  0  0  0  0  0  0  0  0
   12.5719    0.5931    0.0000 H   0  0  0  0  0  0  0  0  0  0  0  0
   13.3819    1.9961    0.0000 H   0  0  0  0  0  0  0  0  0  0  0  0
   13.7619    3.1081    0.0000 H   0  0  0  0  0  0  0  0  0  0  0  0
   14.3819    3.7281    0.0000 H   0  0  0  0  0  0  0  0  0  0  0  0
   13.7619    4.3481    0.0000 H   0  0  0  0  0  0  0  0  0  0  0  0
  1 14  1  0  0  0  0
  1 19  1  0  0  0  0
  2 13  2  0  0  0  0
  3 25  1  0  0  0  0
  3 28  1  0  0  0  0
  4  8  1  0  0  0  0
  4  9  1  0  0  0  0
  4 12  1  0  0  0  0
  5 10  1  0  0  0  0
  5 11  1  0  0  0  0
  5 13  1  0  0  0  0
  6 15  1  0  0  0  0
  6 18  1  0  0  0  0
  6 42  1  0  0  0  0
  7 18  1  0  0  0  0
  7 23  2  0  0  0  0
  8 10  1  0  0  0  0
  8 29  1  0  0  0  0
  8 30  1  0  0  0  0
  9 11  1  0  0  0  0
  9 31  1  0  0  0  0
  9 32  1  0  0  0  0
 10 33  1  0  0  0  0
 10 34  1  0  0  0  0
 11 35  1  0  0  0  0
 11 36  1  0  0  0  0
 12 14  1  0  0  0  0
 12 37  1  0  0  0  0
 12 38  1  0  0  0  0
 13 15  1  0  0  0  0
 14 39  1  0  0  0  0
 14 40  1  0  0  0  0
 15 16  2  0  0  0  0
 16 17  1  0  0  0  0
 16 41  1  0  0  0  0
 17 18  2  0  0  0  0
 17 20  1  0  0  0  0
 19 22  1  0  0  0  0
 19 24  2  0  0  0  0
 20 21  2  0  0  0  0
 20 43  1  0  0  0  0
 21 23  1  0  0  0  0
 21 44  1  0  0  0  0
 22 25  2  0  0  0  0
 22 45  1  0  0  0  0
 23 47  1  0  0  0  0
 24 26  1  0  0  0  0
 24 46  1  0  0  0  0
 25 27  1  0  0  0  0
 26 27  2  0  0  0  0
 26 48  1  0  0  0  0
 27 49  1  0  0  0  0
 28 50  1  0  0  0  0
 28 51  1  0  0  0  0
 28 52  1  0  0  0  0
M  END
> <PUBCHEM_COMPOUND_CID>
71724946

> <PUBCHEM_COMPOUND_CANONICALIZED>
1

> <PUBCHEM_CACTVS_COMPLEXITY>
512

> <PUBCHEM_CACTVS_HBOND_ACCEPTOR>
5

> <PUBCHEM_CACTVS_HBOND_DONOR>
1

> <PUBCHEM_CACTVS_ROTATABLE_BOND>
6

> <PUBCHEM_CACTVS_SUBSKEYS>
AAADceB7sAAAAAAAAAAAAAAAAAAAAWAAAAA8WIAAAAAAAFgB/AAAHgAQAAAADAzhnwY/tt/JlACoAzd3dACCiCm3IqAJ2SG+bNiOb/LEvbuXOSjt1hfY6aeY6QyOAAAACAAAAAAAAAAQAAAAAAAAAAAAAA==

> <PUBCHEM_IUPAC_OPENEYE_NAME>
[4-[2-(3-methoxyphenoxy)ethyl]piperazin-1-yl]-(1H-pyrrolo[2,3-b]pyridin-2-yl)methanone

> <PUBCHEM_IUPAC_CAS_NAME>
[4-[2-(3-methoxyphenoxy)ethyl]-1-piperazinyl]-(1H-pyrrolo[2,3-b]pyridin-2-yl)methanone

> <PUBCHEM_IUPAC_NAME_MARKUP>
[4-[2-(3-methoxyphenoxy)ethyl]piperazin-1-yl]-(1<I>H</I>-pyrrolo[2,3-b]pyridin-2-yl)methanone

> <PUBCHEM_IUPAC_NAME>
[4-[2-(3-methoxyphenoxy)ethyl]piperazin-1-yl]-(1H-pyrrolo[2,3-b]pyridin-2-yl)methanone

> <PUBCHEM_IUPAC_SYSTEMATIC_NAME>
[4-[2-(3-methoxyphenoxy)ethyl]piperazin-1-yl]-(1H-pyrrolo[2,3-b]pyridin-2-yl)methanone

> <PUBCHEM_IUPAC_TRADITIONAL_NAME>
[4-[2-(3-methoxyphenoxy)ethyl]piperazino]-(1H-pyrrolo[2,3-b]pyridin-2-yl)methanone

> <PUBCHEM_IUPAC_INCHI>
InChI=1S/C21H24N4O3/c1-27-17-5-2-6-18(15-17)28-13-12-24-8-10-25(11-9-24)21(26)19-14-16-4-3-7-22-20(16)23-19/h2-7,14-15H,8-13H2,1H3,(H,22,23)

> <PUBCHEM_IUPAC_INCHIKEY>
PSIMZXQMJNBYKI-UHFFFAOYSA-N

> <PUBCHEM_XLOGP3_AA>
2.6

> <PUBCHEM_EXACT_MASS>
380.18484064

> <PUBCHEM_MOLECULAR_FORMULA>
C21H24N4O3

> <PUBCHEM_MOLECULAR_WEIGHT>
380.4

> <PUBCHEM_OPENEYE_CAN_SMILES>
COC1=CC(=CC=C1)OCCN2CCN(CC2)C(=O)C3=CC4=C(N3)N=CC=C4

> <PUBCHEM_OPENEYE_ISO_SMILES>
COC1=CC(=CC=C1)OCCN2CCN(CC2)C(=O)C3=CC4=C(N3)N=CC=C4

> <PUBCHEM_CACTVS_TPSA>
70.7

> <PUBCHEM_MONOISOTOPIC_WEIGHT>
380.18484064

> <PUBCHEM_TOTAL_CHARGE>
0

> <PUBCHEM_HEAVY_ATOM_COUNT>
28

> <PUBCHEM_ATOM_DEF_STEREO_COUNT>
0

> <PUBCHEM_ATOM_UDEF_STEREO_COUNT>
0

> <PUBCHEM_BOND_DEF_STEREO_COUNT>
0

> <PUBCHEM_BOND_UDEF_STEREO_COUNT>
0

> <PUBCHEM_ISOTOPIC_ATOM_COUNT>
0

> <PUBCHEM_COMPONENT_COUNT>
1

> <PUBCHEM_CACTVS_TAUTO_COUNT>
-1

> <PUBCHEM_COORDINATE_TYPE>
1
5
255

> <PUBCHEM_BONDANNOTATIONS>
15  16  8
16  17  8
17  18  8
17  20  8
19  22  8
19  24  8
20  21  8
21  23  8
22  25  8
24  26  8
25  27  8
26  27  8
6  15  8
6  18  8
7  18  8
7  23  8

$$$$
