155541866
  -OEChem-09292322402D

 52 55  0     0  0  0  0  0  0999 V2000
   10.2509    0.7150    0.0000 O   0  0  0  0  0  0  0  0  0  0  0  0
    2.8660   -2.6611    0.0000 O   0  0  0  0  0  0  0  0  0  0  0  0
   13.4928    4.0605    0.0000 O   0  0  0  0  0  0  0  0  0  0  0  0
    6.4103   -4.4659    0.0000 N   0  0  0  0  0  0  0  0  0  0  0  0
    8.0102   -0.7492    0.0000 N   0  0  0  0  0  0  0  0  0  0  0  0
    6.4103   -2.8564    0.0000 C   0  0  0  0  0  0  0  0  0  0  0  0
    6.7210   -1.9059    0.0000 C   0  0  0  0  0  0  0  0  0  0  0  0
    5.4641   -3.1611    0.0000 C   0  0  0  0  0  0  0  0  0  0  0  0
    7.6995   -1.6997    0.0000 C   0  0  0  0  0  0  0  0  0  0  0  0
    5.4641   -4.1611    0.0000 C   0  0  0  0  0  0  0  0  0  0  0  0
    6.9939   -3.6611    0.0000 C   0  0  0  0  0  0  0  0  0  0  0  0
    4.5981   -2.6611    0.0000 C   0  0  0  0  0  0  0  0  0  0  0  0
    8.9887   -0.5429    0.0000 C   0  0  0  0  0  0  0  0  0  0  0  0
    4.5981   -4.6611    0.0000 C   0  0  0  0  0  0  0  0  0  0  0  0
    3.7320   -3.1611    0.0000 C   0  0  0  0  0  0  0  0  0  0  0  0
    9.2993    0.4076    0.0000 C   0  0  0  0  0  0  0  0  0  0  0  0
    3.7320   -4.1611    0.0000 C   0  0  0  0  0  0  0  0  0  0  0  0
   10.2526    1.7150    0.0000 C   0  0  0  0  0  0  0  0  0  0  0  0
    8.7129    1.2176    0.0000 C   0  0  0  0  0  0  0  0  0  0  0  0
    9.3021    2.0256    0.0000 C   0  0  0  0  0  0  0  0  0  0  0  0
   11.0627    2.3013    0.0000 C   0  0  0  0  0  0  0  0  0  0  0  0
   11.9755    1.8930    0.0000 C   0  0  0  0  0  0  0  0  0  0  0  0
   10.9599    3.2960    0.0000 C   0  0  0  0  0  0  0  0  0  0  0  0
   12.7855    2.4794    0.0000 C   0  0  0  0  0  0  0  0  0  0  0  0
   11.7699    3.8824    0.0000 C   0  0  0  0  0  0  0  0  0  0  0  0
   12.6827    3.4741    0.0000 C   0  0  0  0  0  0  0  0  0  0  0  0
    2.0000   -3.1611    0.0000 C   0  0  0  0  0  0  0  0  0  0  0  0
   13.3900    5.0552    0.0000 C   0  0  0  0  0  0  0  0  0  0  0  0
    6.7004   -1.2862    0.0000 H   0  0  0  0  0  0  0  0  0  0  0  0
    6.1072   -1.8185    0.0000 H   0  0  0  0  0  0  0  0  0  0  0  0
    7.7201   -2.3193    0.0000 H   0  0  0  0  0  0  0  0  0  0  0  0
    8.3133   -1.7870    0.0000 H   0  0  0  0  0  0  0  0  0  0  0  0
    7.6139   -3.6611    0.0000 H   0  0  0  0  0  0  0  0  0  0  0  0
    6.6029   -5.0552    0.0000 H   0  0  0  0  0  0  0  0  0  0  0  0
    7.5961   -0.2877    0.0000 H   0  0  0  0  0  0  0  0  0  0  0  0
    4.5981   -2.0411    0.0000 H   0  0  0  0  0  0  0  0  0  0  0  0
    9.0092   -1.1626    0.0000 H   0  0  0  0  0  0  0  0  0  0  0  0
    9.6025   -0.6303    0.0000 H   0  0  0  0  0  0  0  0  0  0  0  0
    4.5981   -5.2811    0.0000 H   0  0  0  0  0  0  0  0  0  0  0  0
    3.1951   -4.4711    0.0000 H   0  0  0  0  0  0  0  0  0  0  0  0
    8.0929    1.2187    0.0000 H   0  0  0  0  0  0  0  0  0  0  0  0
    9.1116    2.6156    0.0000 H   0  0  0  0  0  0  0  0  0  0  0  0
   12.0393    1.2763    0.0000 H   0  0  0  0  0  0  0  0  0  0  0  0
   10.3939    3.5492    0.0000 H   0  0  0  0  0  0  0  0  0  0  0  0
   13.3515    2.2262    0.0000 H   0  0  0  0  0  0  0  0  0  0  0  0
   11.7062    4.4991    0.0000 H   0  0  0  0  0  0  0  0  0  0  0  0
    1.6900   -2.6242    0.0000 H   0  0  0  0  0  0  0  0  0  0  0  0
    1.4631   -3.4711    0.0000 H   0  0  0  0  0  0  0  0  0  0  0  0
    2.3100   -3.6981    0.0000 H   0  0  0  0  0  0  0  0  0  0  0  0
   14.0067    5.1189    0.0000 H   0  0  0  0  0  0  0  0  0  0  0  0
   13.3262    5.6719    0.0000 H   0  0  0  0  0  0  0  0  0  0  0  0
   12.7733    4.9915    0.0000 H   0  0  0  0  0  0  0  0  0  0  0  0
  1 16  1  0  0  0  0
  1 18  1  0  0  0  0
  2 15  1  0  0  0  0
  2 27  1  0  0  0  0
  3 26  1  0  0  0  0
  3 28  1  0  0  0  0
  4 10  1  0  0  0  0
  4 11  1  0  0  0  0
  4 34  1  0  0  0  0
  5  9  1  0  0  0  0
  5 13  1  0  0  0  0
  5 35  1  0  0  0  0
  6  7  1  0  0  0  0
  6  8  1  0  0  0  0
  6 11  2  0  0  0  0
  7  9  1  0  0  0  0
  7 29  1  0  0  0  0
  7 30  1  0  0  0  0
  8 10  2  0  0  0  0
  8 12  1  0  0  0  0
  9 31  1  0  0  0  0
  9 32  1  0  0  0  0
 10 14  1  0  0  0  0
 11 33  1  0  0  0  0
 12 15  2  0  0  0  0
 12 36  1  0  0  0  0
 13 16  1  0  0  0  0
 13 37  1  0  0  0  0
 13 38  1  0  0  0  0
 14 17  2  0  0  0  0
 14 39  1  0  0  0  0
 15 17  1  0  0  0  0
 16 19  2  0  0  0  0
 17 40  1  0  0  0  0
 18 20  2  0  0  0  0
 18 21  1  0  0  0  0
 19 20  1  0  0  0  0
 19 41  1  0  0  0  0
 20 42  1  0  0  0  0
 21 22  2  0  0  0  0
 21 23  1  0  0  0  0
 22 24  1  0  0  0  0
 22 43  1  0  0  0  0
 23 25  2  0  0  0  0
 23 44  1  0  0  0  0
 24 26  2  0  0  0  0
 24 45  1  0  0  0  0
 25 26  1  0  0  0  0
 25 46  1  0  0  0  0
 27 47  1  0  0  0  0
 27 48  1  0  0  0  0
 27 49  1  0  0  0  0
 28 50  1  0  0  0  0
 28 51  1  0  0  0  0
 28 52  1  0  0  0  0
M  END
> <PUBCHEM_COMPOUND_CID>
155541866

> <PUBCHEM_COMPOUND_CANONICALIZED>
1

> <PUBCHEM_CACTVS_COMPLEXITY>
469

> <PUBCHEM_CACTVS_HBOND_ACCEPTOR>
4

> <PUBCHEM_CACTVS_HBOND_DONOR>
2

> <PUBCHEM_CACTVS_ROTATABLE_BOND>
8

> <PUBCHEM_CACTVS_SUBSKEYS>
AAADceB7MAAAAAAAAAAAAAAAAAAAAWJAAAAwYAAAAAAAAFgB/AAAHgAQAAAADAzBngY+xvLJlECoA7R3RACCiCA1IiAI2aG+bNgOJvLEtbuHOSjk0BHY6Ye4/f7OoEABAAACAABAgAIAAAQAAAAAAAAAAA==

> <PUBCHEM_IUPAC_OPENEYE_NAME>
2-(5-methoxy-1H-indol-3-yl)-N-[[5-(4-methoxyphenyl)-2-furyl]methyl]ethanamine

> <PUBCHEM_IUPAC_CAS_NAME>
2-(5-methoxy-1H-indol-3-yl)-N-[[5-(4-methoxyphenyl)-2-furanyl]methyl]ethanamine

> <PUBCHEM_IUPAC_NAME_MARKUP>
2-(5-methoxy-1<I>H</I>-indol-3-yl)-<I>N</I>-[[5-(4-methoxyphenyl)furan-2-yl]methyl]ethanamine

> <PUBCHEM_IUPAC_NAME>
2-(5-methoxy-1H-indol-3-yl)-N-[[5-(4-methoxyphenyl)furan-2-yl]methyl]ethanamine

> <PUBCHEM_IUPAC_SYSTEMATIC_NAME>
2-(5-methoxy-1H-indol-3-yl)-N-[[5-(4-methoxyphenyl)furan-2-yl]methyl]ethanamine

> <PUBCHEM_IUPAC_TRADITIONAL_NAME>
2-(5-methoxy-1H-indol-3-yl)ethyl-[[5-(4-methoxyphenyl)-2-furyl]methyl]amine

> <PUBCHEM_IUPAC_INCHI>
InChI=1S/C23H24N2O3/c1-26-18-5-3-16(4-6-18)23-10-8-20(28-23)15-24-12-11-17-14-25-22-9-7-19(27-2)13-21(17)22/h3-10,13-14,24-25H,11-12,15H2,1-2H3

> <PUBCHEM_IUPAC_INCHIKEY>
VOQWGUWQIPPYSL-UHFFFAOYSA-N

> <PUBCHEM_XLOGP3_AA>
4.1

> <PUBCHEM_EXACT_MASS>
376.17869263

> <PUBCHEM_MOLECULAR_FORMULA>
C23H24N2O3

> <PUBCHEM_MOLECULAR_WEIGHT>
376.4

> <PUBCHEM_OPENEYE_CAN_SMILES>
COC1=CC=C(C=C1)C2=CC=C(O2)CNCCC3=CNC4=C3C=C(C=C4)OC

> <PUBCHEM_OPENEYE_ISO_SMILES>
COC1=CC=C(C=C1)C2=CC=C(O2)CNCCC3=CNC4=C3C=C(C=C4)OC

> <PUBCHEM_CACTVS_TPSA>
59.4

> <PUBCHEM_MONOISOTOPIC_WEIGHT>
376.17869263

> <PUBCHEM_TOTAL_CHARGE>
0

> <PUBCHEM_HEAVY_ATOM_COUNT>
28

> <PUBCHEM_ATOM_DEF_STEREO_COUNT>
0

> <PUBCHEM_ATOM_UDEF_STEREO_COUNT>
0

> <PUBCHEM_BOND_DEF_STEREO_COUNT>
0

> <PUBCHEM_BOND_UDEF_STEREO_COUNT>
0

> <PUBCHEM_ISOTOPIC_ATOM_COUNT>
0

> <PUBCHEM_COMPONENT_COUNT>
1

> <PUBCHEM_CACTVS_TAUTO_COUNT>
-1

> <PUBCHEM_COORDINATE_TYPE>
1
5
255

> <PUBCHEM_BONDANNOTATIONS>
1  16  8
1  18  8
10  14  8
12  15  8
14  17  8
15  17  8
16  19  8
18  20  8
19  20  8
21  22  8
21  23  8
22  24  8
23  25  8
24  26  8
25  26  8
4  10  8
4  11  8
6  11  8
6  8  8
8  10  8
8  12  8

$$$$
