56944664
  -OEChem-09292322342D

 58 61  0     0  0  0  0  0  0999 V2000
    9.4778    3.3818    0.0000 S   0  0  0  0  0  0  0  0  0  0  0  0
    4.6783   -4.5495    0.0000 O   0  0  0  0  0  0  0  0  0  0  0  0
    9.2715    4.3603    0.0000 O   0  0  0  0  0  0  0  0  0  0  0  0
    9.6840    2.4033    0.0000 O   0  0  0  0  0  0  0  0  0  0  0  0
    5.6103   -0.0884    0.0000 N   0  0  0  0  0  0  0  0  0  0  0  0
    4.9889   -1.9895    0.0000 N   0  0  0  0  0  0  0  0  0  0  0  0
    5.2619   -3.7447    0.0000 N   0  0  0  0  0  0  0  0  0  0  0  0
    8.4993    3.1756    0.0000 N   0  0  0  0  0  0  0  0  0  0  0  0
    4.6318   -0.2947    0.0000 C   0  0  0  0  0  0  0  0  0  0  0  0
    6.2781   -0.8327    0.0000 C   0  0  0  0  0  0  0  0  0  0  0  0
    4.3211   -1.2452    0.0000 C   0  0  0  0  0  0  0  0  0  0  0  0
    5.9674   -1.7833    0.0000 C   0  0  0  0  0  0  0  0  0  0  0  0
    5.9209    0.8621    0.0000 C   0  0  0  0  0  0  0  0  0  0  0  0
    6.8994    1.0683    0.0000 C   0  0  0  0  0  0  0  0  0  0  0  0
    7.2101    2.0188    0.0000 C   0  0  0  0  0  0  0  0  0  0  0  0
    4.6783   -2.9400    0.0000 C   0  0  0  0  0  0  0  0  0  0  0  0
    8.1886    2.2250    0.0000 C   0  0  0  0  0  0  0  0  0  0  0  0
    3.7320   -3.2447    0.0000 C   0  0  0  0  0  0  0  0  0  0  0  0
    3.7320   -4.2447    0.0000 C   0  0  0  0  0  0  0  0  0  0  0  0
    2.8660   -2.7447    0.0000 C   0  0  0  0  0  0  0  0  0  0  0  0
    2.8660   -4.7447    0.0000 C   0  0  0  0  0  0  0  0  0  0  0  0
   10.4563    3.5880    0.0000 C   0  0  0  0  0  0  0  0  0  0  0  0
    2.0000   -3.2447    0.0000 C   0  0  0  0  0  0  0  0  0  0  0  0
    2.0000   -4.2447    0.0000 C   0  0  0  0  0  0  0  0  0  0  0  0
   11.1241    2.8437    0.0000 C   0  0  0  0  0  0  0  0  0  0  0  0
   10.7669    4.5385    0.0000 C   0  0  0  0  0  0  0  0  0  0  0  0
   12.1026    3.0499    0.0000 C   0  0  0  0  0  0  0  0  0  0  0  0
   11.7454    4.7447    0.0000 C   0  0  0  0  0  0  0  0  0  0  0  0
   12.4133    4.0004    0.0000 C   0  0  0  0  0  0  0  0  0  0  0  0
   12.7705    2.3056    0.0000 C   0  0  0  0  0  0  0  0  0  0  0  0
    4.6112    0.3250    0.0000 H   0  0  0  0  0  0  0  0  0  0  0  0
    4.0179   -0.2073    0.0000 H   0  0  0  0  0  0  0  0  0  0  0  0
    6.8250   -1.1248    0.0000 H   0  0  0  0  0  0  0  0  0  0  0  0
    6.6607   -0.3448    0.0000 H   0  0  0  0  0  0  0  0  0  0  0  0
    3.7742   -0.9532    0.0000 H   0  0  0  0  0  0  0  0  0  0  0  0
    3.9385   -1.7331    0.0000 H   0  0  0  0  0  0  0  0  0  0  0  0
    5.9880   -2.4029    0.0000 H   0  0  0  0  0  0  0  0  0  0  0  0
    6.5812   -1.8706    0.0000 H   0  0  0  0  0  0  0  0  0  0  0  0
    5.9004    1.4817    0.0000 H   0  0  0  0  0  0  0  0  0  0  0  0
    5.3071    0.9494    0.0000 H   0  0  0  0  0  0  0  0  0  0  0  0
    6.9200    0.4486    0.0000 H   0  0  0  0  0  0  0  0  0  0  0  0
    7.5132    0.9809    0.0000 H   0  0  0  0  0  0  0  0  0  0  0  0
    7.1895    2.6385    0.0000 H   0  0  0  0  0  0  0  0  0  0  0  0
    6.5963    2.1062    0.0000 H   0  0  0  0  0  0  0  0  0  0  0  0
    8.2092    1.6054    0.0000 H   0  0  0  0  0  0  0  0  0  0  0  0
    8.8024    2.1377    0.0000 H   0  0  0  0  0  0  0  0  0  0  0  0
    8.0852    3.6370    0.0000 H   0  0  0  0  0  0  0  0  0  0  0  0
    2.8660   -2.1247    0.0000 H   0  0  0  0  0  0  0  0  0  0  0  0
    2.8660   -5.3647    0.0000 H   0  0  0  0  0  0  0  0  0  0  0  0
    1.4631   -2.9347    0.0000 H   0  0  0  0  0  0  0  0  0  0  0  0
    1.4631   -4.5547    0.0000 H   0  0  0  0  0  0  0  0  0  0  0  0
   10.9315    2.2544    0.0000 H   0  0  0  0  0  0  0  0  0  0  0  0
   10.3529    5.0000    0.0000 H   0  0  0  0  0  0  0  0  0  0  0  0
   11.9380    5.3341    0.0000 H   0  0  0  0  0  0  0  0  0  0  0  0
   13.0200    4.1283    0.0000 H   0  0  0  0  0  0  0  0  0  0  0  0
   12.3090    1.8916    0.0000 H   0  0  0  0  0  0  0  0  0  0  0  0
   13.1845    1.8441    0.0000 H   0  0  0  0  0  0  0  0  0  0  0  0
   13.2319    2.7197    0.0000 H   0  0  0  0  0  0  0  0  0  0  0  0
  1  3  2  0  0  0  0
  1  4  2  0  0  0  0
  1  8  1  0  0  0  0
  1 22  1  0  0  0  0
  2  7  1  0  0  0  0
  2 19  1  0  0  0  0
  5  9  1  0  0  0  0
  5 10  1  0  0  0  0
  5 13  1  0  0  0  0
  6 11  1  0  0  0  0
  6 12  1  0  0  0  0
  6 16  1  0  0  0  0
  7 16  2  0  0  0  0
  8 17  1  0  0  0  0
  8 47  1  0  0  0  0
  9 11  1  0  0  0  0
  9 31  1  0  0  0  0
  9 32  1  0  0  0  0
 10 12  1  0  0  0  0
 10 33  1  0  0  0  0
 10 34  1  0  0  0  0
 11 35  1  0  0  0  0
 11 36  1  0  0  0  0
 12 37  1  0  0  0  0
 12 38  1  0  0  0  0
 13 14  1  0  0  0  0
 13 39  1  0  0  0  0
 13 40  1  0  0  0  0
 14 15  1  0  0  0  0
 14 41  1  0  0  0  0
 14 42  1  0  0  0  0
 15 17  1  0  0  0  0
 15 43  1  0  0  0  0
 15 44  1  0  0  0  0
 16 18  1  0  0  0  0
 17 45  1  0  0  0  0
 17 46  1  0  0  0  0
 18 19  1  0  0  0  0
 18 20  2  0  0  0  0
 19 21  2  0  0  0  0
 20 23  1  0  0  0  0
 20 48  1  0  0  0  0
 21 24  1  0  0  0  0
 21 49  1  0  0  0  0
 22 25  1  0  0  0  0
 22 26  2  0  0  0  0
 23 24  2  0  0  0  0
 23 50  1  0  0  0  0
 24 51  1  0  0  0  0
 25 27  2  0  0  0  0
 25 52  1  0  0  0  0
 26 28  1  0  0  0  0
 26 53  1  0  0  0  0
 27 29  1  0  0  0  0
 27 30  1  0  0  0  0
 28 29  2  0  0  0  0
 28 54  1  0  0  0  0
 29 55  1  0  0  0  0
 30 56  1  0  0  0  0
 30 57  1  0  0  0  0
 30 58  1  0  0  0  0
M  END
> <PUBCHEM_COMPOUND_CID>
56944664

> <PUBCHEM_COMPOUND_CANONICALIZED>
1

> <PUBCHEM_CACTVS_COMPLEXITY>
633

> <PUBCHEM_CACTVS_HBOND_ACCEPTOR>
7

> <PUBCHEM_CACTVS_HBOND_DONOR>
1

> <PUBCHEM_CACTVS_ROTATABLE_BOND>
8

> <PUBCHEM_CACTVS_SUBSKEYS>
AAADceB7sABAAAAAAAAAAAAAAAAAAWAAAAA8YIAAAAAAAFgB9AAAHgQUQAAADATB2gQzt9NQAAKpAqJyYnDCABAlIAApmLkuTNqIZrrAnZOUMYhm0BvIyceYyCCOAAAAgAAIAAAAAAEAABAAAAAAAAAAAA==

> <PUBCHEM_IUPAC_OPENEYE_NAME>
N-[4-[4-(1,2-benzoxazol-3-yl)piperazin-1-yl]butyl]-3-methyl-benzenesulfonamide

> <PUBCHEM_IUPAC_CAS_NAME>
N-[4-[4-(1,2-benzoxazol-3-yl)-1-piperazinyl]butyl]-3-methylbenzenesulfonamide

> <PUBCHEM_IUPAC_NAME_MARKUP>
<I>N</I>-[4-[4-(1,2-benzoxazol-3-yl)piperazin-1-yl]butyl]-3-methylbenzenesulfonamide

> <PUBCHEM_IUPAC_NAME>
N-[4-[4-(1,2-benzoxazol-3-yl)piperazin-1-yl]butyl]-3-methylbenzenesulfonamide

> <PUBCHEM_IUPAC_SYSTEMATIC_NAME>
N-[4-[4-(1,2-benzoxazol-3-yl)piperazin-1-yl]butyl]-3-methyl-benzenesulfonamide

> <PUBCHEM_IUPAC_TRADITIONAL_NAME>
N-[4-(4-indoxazen-3-ylpiperazino)butyl]-3-methyl-benzenesulfonamide

> <PUBCHEM_IUPAC_INCHI>
InChI=1S/C22H28N4O3S/c1-18-7-6-8-19(17-18)30(27,28)23-11-4-5-12-25-13-15-26(16-14-25)22-20-9-2-3-10-21(20)29-24-22/h2-3,6-10,17,23H,4-5,11-16H2,1H3

> <PUBCHEM_IUPAC_INCHIKEY>
UGKBAMPEXOAPEC-UHFFFAOYSA-N

> <PUBCHEM_XLOGP3_AA>
3.7

> <PUBCHEM_EXACT_MASS>
428.18821194

> <PUBCHEM_MOLECULAR_FORMULA>
C22H28N4O3S

> <PUBCHEM_MOLECULAR_WEIGHT>
428.5

> <PUBCHEM_OPENEYE_CAN_SMILES>
CC1=CC(=CC=C1)S(=O)(=O)NCCCCN2CCN(CC2)C3=NOC4=CC=CC=C43

> <PUBCHEM_OPENEYE_ISO_SMILES>
CC1=CC(=CC=C1)S(=O)(=O)NCCCCN2CCN(CC2)C3=NOC4=CC=CC=C43

> <PUBCHEM_CACTVS_TPSA>
87.1

> <PUBCHEM_MONOISOTOPIC_WEIGHT>
428.18821194

> <PUBCHEM_TOTAL_CHARGE>
0

> <PUBCHEM_HEAVY_ATOM_COUNT>
30

> <PUBCHEM_ATOM_DEF_STEREO_COUNT>
0

> <PUBCHEM_ATOM_UDEF_STEREO_COUNT>
0

> <PUBCHEM_BOND_DEF_STEREO_COUNT>
0

> <PUBCHEM_BOND_UDEF_STEREO_COUNT>
0

> <PUBCHEM_ISOTOPIC_ATOM_COUNT>
0

> <PUBCHEM_COMPONENT_COUNT>
1

> <PUBCHEM_CACTVS_TAUTO_COUNT>
-1

> <PUBCHEM_COORDINATE_TYPE>
1
5
255

> <PUBCHEM_BONDANNOTATIONS>
16  18  8
18  19  8
18  20  8
19  21  8
2  19  8
2  7  8
20  23  8
21  24  8
22  25  8
22  26  8
23  24  8
25  27  8
26  28  8
27  29  8
28  29  8
7  16  8

$$$$
