44409727
  -OEChem-09292322272D

 73 75  0     0  0  0  0  0  0999 V2000
    2.3660   -5.7010    0.0000 F   0  0  0  0  0  0  0  0  0  0  0  0
    2.0000   -7.0670    0.0000 F   0  0  0  0  0  0  0  0  0  0  0  0
    3.3660   -7.4330    0.0000 F   0  0  0  0  0  0  0  0  0  0  0  0
    8.0622    2.4330    0.0000 O   0  0  0  0  0  0  0  0  0  0  0  0
    4.5981   -1.5670    0.0000 N   0  0  0  0  0  0  0  0  0  0  0  0
    4.5981   -3.5670    0.0000 N   0  0  0  0  0  0  0  0  0  0  0  0
    5.4641   -5.0670    0.0000 N   0  0  0  0  0  0  0  0  0  0  0  0
    4.5981   -6.5670    0.0000 N   0  0  0  0  0  0  0  0  0  0  0  0
    6.3301    2.4330    0.0000 N   0  0  0  0  0  0  0  0  0  0  0  0
    7.1962    3.9330    0.0000 N   0  0  0  0  0  0  0  0  0  0  0  0
    3.7320   -2.0670    0.0000 C   0  0  0  0  0  0  0  0  0  0  0  0
    5.4641   -2.0670    0.0000 C   0  0  0  0  0  0  0  0  0  0  0  0
    3.7320   -3.0670    0.0000 C   0  0  0  0  0  0  0  0  0  0  0  0
    5.4641   -3.0670    0.0000 C   0  0  0  0  0  0  0  0  0  0  0  0
    4.5981   -0.5670    0.0000 C   0  0  0  0  0  0  0  0  0  0  0  0
    5.4641   -0.0670    0.0000 C   0  0  0  0  0  0  0  0  0  0  0  0
    4.5981   -4.5670    0.0000 C   0  0  0  0  0  0  0  0  0  0  0  0
    5.4641    0.9330    0.0000 C   0  0  0  0  0  0  0  0  0  0  0  0
    6.3301   -6.5670    0.0000 C   0  0  0  0  0  0  0  0  0  0  0  0
    5.4641   -6.0670    0.0000 C   0  0  0  0  0  0  0  0  0  0  0  0
    3.7320   -5.0670    0.0000 C   0  0  0  0  0  0  0  0  0  0  0  0
    6.3301    1.4330    0.0000 C   0  0  0  0  0  0  0  0  0  0  0  0
    3.7320   -6.0670    0.0000 C   0  0  0  0  0  0  0  0  0  0  0  0
    7.1962   -7.0670    0.0000 C   0  0  0  0  0  0  0  0  0  0  0  0
    5.8301   -7.4330    0.0000 C   0  0  0  0  0  0  0  0  0  0  0  0
    6.8301   -5.7010    0.0000 C   0  0  0  0  0  0  0  0  0  0  0  0
    2.8660   -6.5670    0.0000 C   0  0  0  0  0  0  0  0  0  0  0  0
    7.1962    2.9330    0.0000 C   0  0  0  0  0  0  0  0  0  0  0  0
    8.0622    4.4330    0.0000 C   0  0  0  0  0  0  0  0  0  0  0  0
    8.0622    5.4330    0.0000 C   0  0  0  0  0  0  0  0  0  0  0  0
    8.9282    5.9330    0.0000 C   0  0  0  0  0  0  0  0  0  0  0  0
    9.7942    5.4330    0.0000 C   0  0  0  0  0  0  0  0  0  0  0  0
    8.9282    6.9330    0.0000 C   0  0  0  0  0  0  0  0  0  0  0  0
   10.6603    5.9330    0.0000 C   0  0  0  0  0  0  0  0  0  0  0  0
    9.7942    7.4330    0.0000 C   0  0  0  0  0  0  0  0  0  0  0  0
   10.6603    6.9330    0.0000 C   0  0  0  0  0  0  0  0  0  0  0  0
    3.5200   -1.4844    0.0000 H   0  0  0  0  0  0  0  0  0  0  0  0
    3.1215   -2.1747    0.0000 H   0  0  0  0  0  0  0  0  0  0  0  0
    6.0747   -2.1747    0.0000 H   0  0  0  0  0  0  0  0  0  0  0  0
    5.6762   -1.4844    0.0000 H   0  0  0  0  0  0  0  0  0  0  0  0
    3.1215   -2.9593    0.0000 H   0  0  0  0  0  0  0  0  0  0  0  0
    3.5200   -3.6496    0.0000 H   0  0  0  0  0  0  0  0  0  0  0  0
    5.6762   -3.6496    0.0000 H   0  0  0  0  0  0  0  0  0  0  0  0
    6.0747   -2.9593    0.0000 H   0  0  0  0  0  0  0  0  0  0  0  0
    4.3860    0.0156    0.0000 H   0  0  0  0  0  0  0  0  0  0  0  0
    3.9875   -0.6746    0.0000 H   0  0  0  0  0  0  0  0  0  0  0  0
    5.6762   -0.6496    0.0000 H   0  0  0  0  0  0  0  0  0  0  0  0
    6.0747    0.0407    0.0000 H   0  0  0  0  0  0  0  0  0  0  0  0
    5.2520    1.5156    0.0000 H   0  0  0  0  0  0  0  0  0  0  0  0
    4.8535    0.8254    0.0000 H   0  0  0  0  0  0  0  0  0  0  0  0
    3.1951   -4.7570    0.0000 H   0  0  0  0  0  0  0  0  0  0  0  0
    6.5422    0.8504    0.0000 H   0  0  0  0  0  0  0  0  0  0  0  0
    6.9407    1.5407    0.0000 H   0  0  0  0  0  0  0  0  0  0  0  0
    6.8862   -7.6039    0.0000 H   0  0  0  0  0  0  0  0  0  0  0  0
    7.7331   -7.3770    0.0000 H   0  0  0  0  0  0  0  0  0  0  0  0
    7.5062   -6.5300    0.0000 H   0  0  0  0  0  0  0  0  0  0  0  0
    5.2932   -7.1230    0.0000 H   0  0  0  0  0  0  0  0  0  0  0  0
    5.5201   -7.9700    0.0000 H   0  0  0  0  0  0  0  0  0  0  0  0
    6.3671   -7.7430    0.0000 H   0  0  0  0  0  0  0  0  0  0  0  0
    7.3671   -6.0110    0.0000 H   0  0  0  0  0  0  0  0  0  0  0  0
    7.1401   -5.1640    0.0000 H   0  0  0  0  0  0  0  0  0  0  0  0
    6.2932   -5.3910    0.0000 H   0  0  0  0  0  0  0  0  0  0  0  0
    5.7932    2.7430    0.0000 H   0  0  0  0  0  0  0  0  0  0  0  0
    6.6592    4.2430    0.0000 H   0  0  0  0  0  0  0  0  0  0  0  0
    8.2742    3.8504    0.0000 H   0  0  0  0  0  0  0  0  0  0  0  0
    8.6728    4.5407    0.0000 H   0  0  0  0  0  0  0  0  0  0  0  0
    7.8501    6.0156    0.0000 H   0  0  0  0  0  0  0  0  0  0  0  0
    7.4516    5.3254    0.0000 H   0  0  0  0  0  0  0  0  0  0  0  0
    9.7942    4.8130    0.0000 H   0  0  0  0  0  0  0  0  0  0  0  0
    8.3913    7.2430    0.0000 H   0  0  0  0  0  0  0  0  0  0  0  0
   11.1972    5.6230    0.0000 H   0  0  0  0  0  0  0  0  0  0  0  0
    9.7942    8.0530    0.0000 H   0  0  0  0  0  0  0  0  0  0  0  0
   11.1972    7.2430    0.0000 H   0  0  0  0  0  0  0  0  0  0  0  0
  1 27  1  0  0  0  0
  2 27  1  0  0  0  0
  3 27  1  0  0  0  0
  4 28  2  0  0  0  0
  5 11  1  0  0  0  0
  5 12  1  0  0  0  0
  5 15  1  0  0  0  0
  6 13  1  0  0  0  0
  6 14  1  0  0  0  0
  6 17  1  0  0  0  0
  7 17  2  0  0  0  0
  7 20  1  0  0  0  0
  8 20  2  0  0  0  0
  8 23  1  0  0  0  0
  9 22  1  0  0  0  0
  9 28  1  0  0  0  0
  9 63  1  0  0  0  0
 10 28  1  0  0  0  0
 10 29  1  0  0  0  0
 10 64  1  0  0  0  0
 11 13  1  0  0  0  0
 11 37  1  0  0  0  0
 11 38  1  0  0  0  0
 12 14  1  0  0  0  0
 12 39  1  0  0  0  0
 12 40  1  0  0  0  0
 13 41  1  0  0  0  0
 13 42  1  0  0  0  0
 14 43  1  0  0  0  0
 14 44  1  0  0  0  0
 15 16  1  0  0  0  0
 15 45  1  0  0  0  0
 15 46  1  0  0  0  0
 16 18  1  0  0  0  0
 16 47  1  0  0  0  0
 16 48  1  0  0  0  0
 17 21  1  0  0  0  0
 18 22  1  0  0  0  0
 18 49  1  0  0  0  0
 18 50  1  0  0  0  0
 19 20  1  0  0  0  0
 19 24  1  0  0  0  0
 19 25  1  0  0  0  0
 19 26  1  0  0  0  0
 21 23  2  0  0  0  0
 21 51  1  0  0  0  0
 22 52  1  0  0  0  0
 22 53  1  0  0  0  0
 23 27  1  0  0  0  0
 24 54  1  0  0  0  0
 24 55  1  0  0  0  0
 24 56  1  0  0  0  0
 25 57  1  0  0  0  0
 25 58  1  0  0  0  0
 25 59  1  0  0  0  0
 26 60  1  0  0  0  0
 26 61  1  0  0  0  0
 26 62  1  0  0  0  0
 29 30  1  0  0  0  0
 29 65  1  0  0  0  0
 29 66  1  0  0  0  0
 30 31  1  0  0  0  0
 30 67  1  0  0  0  0
 30 68  1  0  0  0  0
 31 32  2  0  0  0  0
 31 33  1  0  0  0  0
 32 34  1  0  0  0  0
 32 69  1  0  0  0  0
 33 35  2  0  0  0  0
 33 70  1  0  0  0  0
 34 36  2  0  0  0  0
 34 71  1  0  0  0  0
 35 36  1  0  0  0  0
 35 72  1  0  0  0  0
 36 73  1  0  0  0  0
M  END
> <PUBCHEM_COMPOUND_CID>
44409727

> <PUBCHEM_COMPOUND_CANONICALIZED>
1

> <PUBCHEM_CACTVS_COMPLEXITY>
657

> <PUBCHEM_CACTVS_HBOND_ACCEPTOR>
8

> <PUBCHEM_CACTVS_HBOND_DONOR>
2

> <PUBCHEM_CACTVS_ROTATABLE_BOND>
10

> <PUBCHEM_CACTVS_SUBSKEYS>
AAADcfB7oYAAAAAAAAAAAAAAAAAAAAAAAAA8WIAAAAAAAAABwAAAHwAQAAAADgjBHxQzsJfIEACoAyZidACCgCkhAqAJmKA4ZJiIaCLA2dGUJAholgLIyCcQgIAOAAAAAAAAAAAAAAAAAAAAAAAAAAAAAA==

> <PUBCHEM_IUPAC_OPENEYE_NAME>
1-[4-[4-[2-tert-butyl-6-(trifluoromethyl)pyrimidin-4-yl]piperazin-1-yl]butyl]-3-(2-phenylethyl)urea

> <PUBCHEM_IUPAC_CAS_NAME>
1-[4-[4-[2-tert-butyl-6-(trifluoromethyl)-4-pyrimidinyl]-1-piperazinyl]butyl]-3-(2-phenylethyl)urea

> <PUBCHEM_IUPAC_NAME_MARKUP>
1-[4-[4-[2-<I>tert</I>-butyl-6-(trifluoromethyl)pyrimidin-4-yl]piperazin-1-yl]butyl]-3-(2-phenylethyl)urea

> <PUBCHEM_IUPAC_NAME>
1-[4-[4-[2-tert-butyl-6-(trifluoromethyl)pyrimidin-4-yl]piperazin-1-yl]butyl]-3-(2-phenylethyl)urea

> <PUBCHEM_IUPAC_SYSTEMATIC_NAME>
1-[4-[4-[2-tert-butyl-6-(trifluoromethyl)pyrimidin-4-yl]piperazin-1-yl]butyl]-3-(2-phenylethyl)urea

> <PUBCHEM_IUPAC_TRADITIONAL_NAME>
1-[4-[4-[2-tert-butyl-6-(trifluoromethyl)pyrimidin-4-yl]piperazino]butyl]-3-phenethyl-urea

> <PUBCHEM_IUPAC_INCHI>
InChI=1S/C26H37F3N6O/c1-25(2,3)23-32-21(26(27,28)29)19-22(33-23)35-17-15-34(16-18-35)14-8-7-12-30-24(36)31-13-11-20-9-5-4-6-10-20/h4-6,9-10,19H,7-8,11-18H2,1-3H3,(H2,30,31,36)

> <PUBCHEM_IUPAC_INCHIKEY>
VJPBVQZEPQLKCA-UHFFFAOYSA-N

> <PUBCHEM_XLOGP3_AA>
4.9

> <PUBCHEM_EXACT_MASS>
506.29809431

> <PUBCHEM_MOLECULAR_FORMULA>
C26H37F3N6O

> <PUBCHEM_MOLECULAR_WEIGHT>
506.6

> <PUBCHEM_OPENEYE_CAN_SMILES>
CC(C)(C)C1=NC(=CC(=N1)N2CCN(CC2)CCCCNC(=O)NCCC3=CC=CC=C3)C(F)(F)F

> <PUBCHEM_OPENEYE_ISO_SMILES>
CC(C)(C)C1=NC(=CC(=N1)N2CCN(CC2)CCCCNC(=O)NCCC3=CC=CC=C3)C(F)(F)F

> <PUBCHEM_CACTVS_TPSA>
73.4

> <PUBCHEM_MONOISOTOPIC_WEIGHT>
506.29809431

> <PUBCHEM_TOTAL_CHARGE>
0

> <PUBCHEM_HEAVY_ATOM_COUNT>
36

> <PUBCHEM_ATOM_DEF_STEREO_COUNT>
0

> <PUBCHEM_ATOM_UDEF_STEREO_COUNT>
0

> <PUBCHEM_BOND_DEF_STEREO_COUNT>
0

> <PUBCHEM_BOND_UDEF_STEREO_COUNT>
0

> <PUBCHEM_ISOTOPIC_ATOM_COUNT>
0

> <PUBCHEM_COMPONENT_COUNT>
1

> <PUBCHEM_CACTVS_TAUTO_COUNT>
-1

> <PUBCHEM_COORDINATE_TYPE>
1
5
255

> <PUBCHEM_BONDANNOTATIONS>
17  21  8
21  23  8
31  32  8
31  33  8
32  34  8
33  35  8
34  36  8
35  36  8
7  17  8
7  20  8
8  20  8
8  23  8

$$$$
