56833463
  -OEChem-09292322322D

 88 91  0     0  0  0  0  0  0999 V2000
    8.9282    8.7420    0.0000 O   0  0  0  0  0  0  0  0  0  0  0  0
    3.7320    1.7420    0.0000 O   0  0  0  0  0  0  0  0  0  0  0  0
    4.5981   -2.7580    0.0000 O   0  0  0  0  0  0  0  0  0  0  0  0
    2.8660   -1.7580    0.0000 O   0  0  0  0  0  0  0  0  0  0  0  0
    7.1962    5.7420    0.0000 N   0  0  0  0  0  0  0  0  0  0  0  0
    7.1962    7.7420    0.0000 N   0  0  0  0  0  0  0  0  0  0  0  0
    5.4641    1.7420    0.0000 N   0  0  0  0  0  0  0  0  0  0  0  0
    6.8301   -7.2969    0.0000 N   0  0  0  0  0  0  0  0  0  0  0  0
    5.5211   -6.3458    0.0000 N   0  0  0  0  0  0  0  0  0  0  0  0
    5.8301   -7.2969    0.0000 N   0  0  0  0  0  0  0  0  0  0  0  0
    8.0622    6.2420    0.0000 C   0  0  0  0  0  0  0  0  0  0  0  0
    6.3301    6.2420    0.0000 C   0  0  0  0  0  0  0  0  0  0  0  0
    8.0622    7.2420    0.0000 C   0  0  0  0  0  0  0  0  0  0  0  0
    6.3301    7.2420    0.0000 C   0  0  0  0  0  0  0  0  0  0  0  0
    7.1962    4.7420    0.0000 C   0  0  0  0  0  0  0  0  0  0  0  0
    6.3301    4.2420    0.0000 C   0  0  0  0  0  0  0  0  0  0  0  0
    7.1962    8.7420    0.0000 C   0  0  0  0  0  0  0  0  0  0  0  0
    6.3301    3.2420    0.0000 C   0  0  0  0  0  0  0  0  0  0  0  0
    5.4641    2.7420    0.0000 C   0  0  0  0  0  0  0  0  0  0  0  0
    8.0622    9.2420    0.0000 C   0  0  0  0  0  0  0  0  0  0  0  0
    6.3301    9.2420    0.0000 C   0  0  0  0  0  0  0  0  0  0  0  0
    8.0622   10.2420    0.0000 C   0  0  0  0  0  0  0  0  0  0  0  0
    6.3301   10.2420    0.0000 C   0  0  0  0  0  0  0  0  0  0  0  0
    7.1962   10.7420    0.0000 C   0  0  0  0  0  0  0  0  0  0  0  0
    4.5981    1.2420    0.0000 C   0  0  0  0  0  0  0  0  0  0  0  0
    9.7942    9.2420    0.0000 C   0  0  0  0  0  0  0  0  0  0  0  0
    4.5981    0.2420    0.0000 C   0  0  0  0  0  0  0  0  0  0  0  0
    6.3301   -4.7580    0.0000 C   0  0  0  0  0  0  0  0  0  0  0  0
    5.4641   -4.2580    0.0000 C   0  0  0  0  0  0  0  0  0  0  0  0
    7.4179   -8.1059    0.0000 C   0  0  0  0  0  0  0  0  0  0  0  0
    3.7320   -0.2580    0.0000 C   0  0  0  0  0  0  0  0  0  0  0  0
    7.0112   -9.0194    0.0000 C   0  0  0  0  0  0  0  0  0  0  0  0
    5.4641   -0.2580    0.0000 C   0  0  0  0  0  0  0  0  0  0  0  0
    6.3301   -5.7580    0.0000 C   0  0  0  0  0  0  0  0  0  0  0  0
    5.4641   -3.2580    0.0000 C   0  0  0  0  0  0  0  0  0  0  0  0
    4.5981   -1.7580    0.0000 C   0  0  0  0  0  0  0  0  0  0  0  0
    3.7320   -1.2580    0.0000 C   0  0  0  0  0  0  0  0  0  0  0  0
    7.5990   -9.8284    0.0000 C   0  0  0  0  0  0  0  0  0  0  0  0
    7.1391   -6.3458    0.0000 C   0  0  0  0  0  0  0  0  0  0  0  0
    5.4641   -1.2580    0.0000 C   0  0  0  0  0  0  0  0  0  0  0  0
    7.1922  -10.7420    0.0000 C   0  0  0  0  0  0  0  0  0  0  0  0
    2.0000   -1.2580    0.0000 C   0  0  0  0  0  0  0  0  0  0  0  0
    8.2742    5.6594    0.0000 H   0  0  0  0  0  0  0  0  0  0  0  0
    8.6728    6.3496    0.0000 H   0  0  0  0  0  0  0  0  0  0  0  0
    5.7196    6.3496    0.0000 H   0  0  0  0  0  0  0  0  0  0  0  0
    6.1181    5.6594    0.0000 H   0  0  0  0  0  0  0  0  0  0  0  0
    8.6728    7.1343    0.0000 H   0  0  0  0  0  0  0  0  0  0  0  0
    8.2742    7.8246    0.0000 H   0  0  0  0  0  0  0  0  0  0  0  0
    6.1181    7.8246    0.0000 H   0  0  0  0  0  0  0  0  0  0  0  0
    5.7196    7.1343    0.0000 H   0  0  0  0  0  0  0  0  0  0  0  0
    7.4082    4.1594    0.0000 H   0  0  0  0  0  0  0  0  0  0  0  0
    7.8067    4.8496    0.0000 H   0  0  0  0  0  0  0  0  0  0  0  0
    6.1181    4.8246    0.0000 H   0  0  0  0  0  0  0  0  0  0  0  0
    5.7196    4.1343    0.0000 H   0  0  0  0  0  0  0  0  0  0  0  0
    6.5422    2.6594    0.0000 H   0  0  0  0  0  0  0  0  0  0  0  0
    6.9407    3.3496    0.0000 H   0  0  0  0  0  0  0  0  0  0  0  0
    5.2520    3.3246    0.0000 H   0  0  0  0  0  0  0  0  0  0  0  0
    4.8535    2.6343    0.0000 H   0  0  0  0  0  0  0  0  0  0  0  0
    5.7932    8.9320    0.0000 H   0  0  0  0  0  0  0  0  0  0  0  0
    8.5991   10.5520    0.0000 H   0  0  0  0  0  0  0  0  0  0  0  0
    5.7932   10.5520    0.0000 H   0  0  0  0  0  0  0  0  0  0  0  0
    6.0010    1.4320    0.0000 H   0  0  0  0  0  0  0  0  0  0  0  0
    7.1962   11.3620    0.0000 H   0  0  0  0  0  0  0  0  0  0  0  0
   10.1042    8.7050    0.0000 H   0  0  0  0  0  0  0  0  0  0  0  0
   10.3312    9.5520    0.0000 H   0  0  0  0  0  0  0  0  0  0  0  0
    9.4842    9.7789    0.0000 H   0  0  0  0  0  0  0  0  0  0  0  0
    6.9407   -4.8657    0.0000 H   0  0  0  0  0  0  0  0  0  0  0  0
    6.5422   -4.1754    0.0000 H   0  0  0  0  0  0  0  0  0  0  0  0
    7.9319   -8.4526    0.0000 H   0  0  0  0  0  0  0  0  0  0  0  0
    7.8486   -7.6599    0.0000 H   0  0  0  0  0  0  0  0  0  0  0  0
    4.8535   -4.1504    0.0000 H   0  0  0  0  0  0  0  0  0  0  0  0
    5.2520   -4.8406    0.0000 H   0  0  0  0  0  0  0  0  0  0  0  0
    6.4972   -8.6727    0.0000 H   0  0  0  0  0  0  0  0  0  0  0  0
    6.5805   -9.4654    0.0000 H   0  0  0  0  0  0  0  0  0  0  0  0
    3.1951    0.0520    0.0000 H   0  0  0  0  0  0  0  0  0  0  0  0
    6.0010    0.0520    0.0000 H   0  0  0  0  0  0  0  0  0  0  0  0
    6.0747   -3.3657    0.0000 H   0  0  0  0  0  0  0  0  0  0  0  0
    5.6762   -2.6754    0.0000 H   0  0  0  0  0  0  0  0  0  0  0  0
    8.1130  -10.1751    0.0000 H   0  0  0  0  0  0  0  0  0  0  0  0
    8.0296   -9.3824    0.0000 H   0  0  0  0  0  0  0  0  0  0  0  0
    7.7288   -6.1542    0.0000 H   0  0  0  0  0  0  0  0  0  0  0  0
    6.0010   -1.5680    0.0000 H   0  0  0  0  0  0  0  0  0  0  0  0
    6.6258  -10.4898    0.0000 H   0  0  0  0  0  0  0  0  0  0  0  0
    6.9400  -11.3084    0.0000 H   0  0  0  0  0  0  0  0  0  0  0  0
    7.7586  -10.9942    0.0000 H   0  0  0  0  0  0  0  0  0  0  0  0
    2.3100   -0.7211    0.0000 H   0  0  0  0  0  0  0  0  0  0  0  0
    1.4631   -0.9480    0.0000 H   0  0  0  0  0  0  0  0  0  0  0  0
    1.6900   -1.7950    0.0000 H   0  0  0  0  0  0  0  0  0  0  0  0
  1 20  1  0  0  0  0
  1 26  1  0  0  0  0
  2 25  2  0  0  0  0
  3 35  1  0  0  0  0
  3 36  1  0  0  0  0
  4 37  1  0  0  0  0
  4 42  1  0  0  0  0
  5 11  1  0  0  0  0
  5 12  1  0  0  0  0
  5 15  1  0  0  0  0
  6 13  1  0  0  0  0
  6 14  1  0  0  0  0
  6 17  1  0  0  0  0
  7 19  1  0  0  0  0
  7 25  1  0  0  0  0
  7 62  1  0  0  0  0
  8 10  1  0  0  0  0
  8 30  1  0  0  0  0
  8 39  1  0  0  0  0
  9 10  2  0  0  0  0
  9 34  1  0  0  0  0
 11 13  1  0  0  0  0
 11 43  1  0  0  0  0
 11 44  1  0  0  0  0
 12 14  1  0  0  0  0
 12 45  1  0  0  0  0
 12 46  1  0  0  0  0
 13 47  1  0  0  0  0
 13 48  1  0  0  0  0
 14 49  1  0  0  0  0
 14 50  1  0  0  0  0
 15 16  1  0  0  0  0
 15 51  1  0  0  0  0
 15 52  1  0  0  0  0
 16 18  1  0  0  0  0
 16 53  1  0  0  0  0
 16 54  1  0  0  0  0
 17 20  1  0  0  0  0
 17 21  2  0  0  0  0
 18 19  1  0  0  0  0
 18 55  1  0  0  0  0
 18 56  1  0  0  0  0
 19 57  1  0  0  0  0
 19 58  1  0  0  0  0
 20 22  2  0  0  0  0
 21 23  1  0  0  0  0
 21 59  1  0  0  0  0
 22 24  1  0  0  0  0
 22 60  1  0  0  0  0
 23 24  2  0  0  0  0
 23 61  1  0  0  0  0
 24 63  1  0  0  0  0
 25 27  1  0  0  0  0
 26 64  1  0  0  0  0
 26 65  1  0  0  0  0
 26 66  1  0  0  0  0
 27 31  2  0  0  0  0
 27 33  1  0  0  0  0
 28 29  1  0  0  0  0
 28 34  1  0  0  0  0
 28 67  1  0  0  0  0
 28 68  1  0  0  0  0
 29 35  1  0  0  0  0
 29 71  1  0  0  0  0
 29 72  1  0  0  0  0
 30 32  1  0  0  0  0
 30 69  1  0  0  0  0
 30 70  1  0  0  0  0
 31 37  1  0  0  0  0
 31 75  1  0  0  0  0
 32 38  1  0  0  0  0
 32 73  1  0  0  0  0
 32 74  1  0  0  0  0
 33 40  2  0  0  0  0
 33 76  1  0  0  0  0
 34 39  2  0  0  0  0
 35 77  1  0  0  0  0
 35 78  1  0  0  0  0
 36 37  2  0  0  0  0
 36 40  1  0  0  0  0
 38 41  1  0  0  0  0
 38 79  1  0  0  0  0
 38 80  1  0  0  0  0
 39 81  1  0  0  0  0
 40 82  1  0  0  0  0
 41 83  1  0  0  0  0
 41 84  1  0  0  0  0
 41 85  1  0  0  0  0
 42 86  1  0  0  0  0
 42 87  1  0  0  0  0
 42 88  1  0  0  0  0
M  END
> <PUBCHEM_COMPOUND_CID>
56833463

> <PUBCHEM_COMPOUND_CANONICALIZED>
1

> <PUBCHEM_CACTVS_COMPLEXITY>
755

> <PUBCHEM_CACTVS_HBOND_ACCEPTOR>
8

> <PUBCHEM_CACTVS_HBOND_DONOR>
1

> <PUBCHEM_CACTVS_ROTATABLE_BOND>
17

> <PUBCHEM_CACTVS_SUBSKEYS>
AAADcfB/uAAAAAAAAAAAAAAAAAAAAWAAAAA8YIAAAAAAAAAB0AAAHgAYAAAADAzhngY+xpPIBACqAzV3VACCDAQ1sgAY2IE//MgPZjLEtZuXOSrk1hHa6Ye63BLOIAABAAAAUABAAAIAAACgAAAAAAAAAA==

> <PUBCHEM_IUPAC_OPENEYE_NAME>
4-[3-(1-butyltriazol-4-yl)propoxy]-3-methoxy-N-[4-[4-(2-methoxyphenyl)piperazin-1-yl]butyl]benzamide

> <PUBCHEM_IUPAC_CAS_NAME>
4-[3-(1-butyl-4-triazolyl)propoxy]-3-methoxy-N-[4-[4-(2-methoxyphenyl)-1-piperazinyl]butyl]benzamide

> <PUBCHEM_IUPAC_NAME_MARKUP>
4-[3-(1-butyltriazol-4-yl)propoxy]-3-methoxy-<I>N</I>-[4-[4-(2-methoxyphenyl)piperazin-1-yl]butyl]benzamide

> <PUBCHEM_IUPAC_NAME>
4-[3-(1-butyltriazol-4-yl)propoxy]-3-methoxy-N-[4-[4-(2-methoxyphenyl)piperazin-1-yl]butyl]benzamide

> <PUBCHEM_IUPAC_SYSTEMATIC_NAME>
4-[3-(1-butyl-1,2,3-triazol-4-yl)propoxy]-3-methoxy-N-[4-[4-(2-methoxyphenyl)piperazin-1-yl]butyl]benzamide

> <PUBCHEM_IUPAC_TRADITIONAL_NAME>
4-[3-(1-butyltriazol-4-yl)propoxy]-3-methoxy-N-[4-[4-(2-methoxyphenyl)piperazino]butyl]benzamide

> <PUBCHEM_IUPAC_INCHI>
InChI=1S/C32H46N6O4/c1-4-5-18-38-25-27(34-35-38)11-10-23-42-30-15-14-26(24-31(30)41-3)32(39)33-16-8-9-17-36-19-21-37(22-20-36)28-12-6-7-13-29(28)40-2/h6-7,12-15,24-25H,4-5,8-11,16-23H2,1-3H3,(H,33,39)

> <PUBCHEM_IUPAC_INCHIKEY>
ROYIVTSMYARVGE-UHFFFAOYSA-N

> <PUBCHEM_XLOGP3_AA>
4.8

> <PUBCHEM_EXACT_MASS>
578.35805397

> <PUBCHEM_MOLECULAR_FORMULA>
C32H46N6O4

> <PUBCHEM_MOLECULAR_WEIGHT>
578.7

> <PUBCHEM_OPENEYE_CAN_SMILES>
CCCCN1C=C(N=N1)CCCOC2=C(C=C(C=C2)C(=O)NCCCCN3CCN(CC3)C4=CC=CC=C4OC)OC

> <PUBCHEM_OPENEYE_ISO_SMILES>
CCCCN1C=C(N=N1)CCCOC2=C(C=C(C=C2)C(=O)NCCCCN3CCN(CC3)C4=CC=CC=C4OC)OC

> <PUBCHEM_CACTVS_TPSA>
94

> <PUBCHEM_MONOISOTOPIC_WEIGHT>
578.35805397

> <PUBCHEM_TOTAL_CHARGE>
0

> <PUBCHEM_HEAVY_ATOM_COUNT>
42

> <PUBCHEM_ATOM_DEF_STEREO_COUNT>
0

> <PUBCHEM_ATOM_UDEF_STEREO_COUNT>
0

> <PUBCHEM_BOND_DEF_STEREO_COUNT>
0

> <PUBCHEM_BOND_UDEF_STEREO_COUNT>
0

> <PUBCHEM_ISOTOPIC_ATOM_COUNT>
0

> <PUBCHEM_COMPONENT_COUNT>
1

> <PUBCHEM_CACTVS_TAUTO_COUNT>
-1

> <PUBCHEM_COORDINATE_TYPE>
1
5
255

> <PUBCHEM_BONDANNOTATIONS>
17  20  8
17  21  8
20  22  8
21  23  8
22  24  8
23  24  8
27  31  8
27  33  8
31  37  8
33  40  8
34  39  8
36  37  8
36  40  8
8  10  8
8  39  8
9  10  8
9  34  8

$$$$
