137641643
  -OEChem-09292322472D

 63 67  0     1  0  0  0  0  0999 V2000
    6.4021   -1.8116    0.0000 S   0  0  0  0  0  0  0  0  0  0  0  0
    4.9836    5.9685    0.0000 O   0  0  0  0  0  0  0  0  0  0  0  0
    4.6701    1.1884    0.0000 N   0  0  0  0  0  0  0  0  0  0  0  0
    4.1701    4.1414    0.0000 N   0  0  3  0  0  0  0  0  0  0  0  0
    5.5931   -3.3994    0.0000 N   0  0  0  0  0  0  0  0  0  0  0  0
    7.2112   -3.3994    0.0000 N   0  0  0  0  0  0  0  0  0  0  0  0
    6.9021   -4.3505    0.0000 N   0  0  0  0  0  0  0  0  0  0  0  0
    4.6701    2.6026    0.0000 C   0  0  0  0  0  0  0  0  0  0  0  0
    3.9630    1.8955    0.0000 C   0  0  0  0  0  0  0  0  0  0  0  0
    5.3772    1.8955    0.0000 C   0  0  0  0  0  0  0  0  0  0  0  0
    5.4791    3.1904    0.0000 C   0  0  0  0  0  0  0  0  0  0  0  0
    3.8611    3.1904    0.0000 C   0  0  0  0  0  0  0  0  0  0  0  0
    5.1701    4.1414    0.0000 C   0  0  0  0  0  0  0  0  0  0  0  0
    4.6701    0.1884    0.0000 C   0  0  0  0  0  0  0  0  0  0  0  0
    3.5823    4.9504    0.0000 C   0  0  0  0  0  0  0  0  0  0  0  0
    5.5361   -0.3116    0.0000 C   0  0  0  0  0  0  0  0  0  0  0  0
    3.9890    5.8640    0.0000 C   0  0  0  0  0  0  0  0  0  0  0  0
    2.5878    4.8459    0.0000 C   0  0  0  0  0  0  0  0  0  0  0  0
    5.5361   -1.3116    0.0000 C   0  0  0  0  0  0  0  0  0  0  0  0
    3.4013    6.6730    0.0000 C   0  0  0  0  0  0  0  0  0  0  0  0
    2.0000    5.6549    0.0000 C   0  0  0  0  0  0  0  0  0  0  0  0
    2.4067    6.5685    0.0000 C   0  0  0  0  0  0  0  0  0  0  0  0
    5.3903    6.8821    0.0000 C   0  0  0  0  0  0  0  0  0  0  0  0
    6.4021   -2.8116    0.0000 C   0  0  0  0  0  0  0  0  0  0  0  0
    5.9021   -4.3505    0.0000 C   0  0  0  0  0  0  0  0  0  0  0  0
    4.6421   -3.0904    0.0000 C   0  0  0  0  0  0  0  0  0  0  0  0
    5.3144   -5.1595    0.0000 C   0  0  0  0  0  0  0  0  0  0  0  0
    5.7211   -6.0730    0.0000 C   0  0  0  0  0  0  0  0  0  0  0  0
    4.3198   -5.0550    0.0000 C   0  0  0  0  0  0  0  0  0  0  0  0
    5.1333   -6.8821    0.0000 C   0  0  0  0  0  0  0  0  0  0  0  0
    3.7320   -5.8640    0.0000 C   0  0  0  0  0  0  0  0  0  0  0  0
    4.1388   -6.7775    0.0000 C   0  0  0  0  0  0  0  0  0  0  0  0
    3.5246    2.3339    0.0000 H   0  0  0  0  0  0  0  0  0  0  0  0
    3.5246    1.4571    0.0000 H   0  0  0  0  0  0  0  0  0  0  0  0
    5.8156    1.4571    0.0000 H   0  0  0  0  0  0  0  0  0  0  0  0
    5.8156    2.3339    0.0000 H   0  0  0  0  0  0  0  0  0  0  0  0
    5.7891    2.6534    0.0000 H   0  0  0  0  0  0  0  0  0  0  0  0
    6.0455    3.4425    0.0000 H   0  0  0  0  0  0  0  0  0  0  0  0
    3.2947    3.4425    0.0000 H   0  0  0  0  0  0  0  0  0  0  0  0
    3.5511    2.6534    0.0000 H   0  0  0  0  0  0  0  0  0  0  0  0
    5.7765    4.2703    0.0000 H   0  0  0  0  0  0  0  0  0  0  0  0
    5.1053    4.7580    0.0000 H   0  0  0  0  0  0  0  0  0  0  0  0
    4.0595    0.2960    0.0000 H   0  0  0  0  0  0  0  0  0  0  0  0
    4.4580   -0.3942    0.0000 H   0  0  0  0  0  0  0  0  0  0  0  0
    6.1467   -0.4193    0.0000 H   0  0  0  0  0  0  0  0  0  0  0  0
    5.7482    0.2710    0.0000 H   0  0  0  0  0  0  0  0  0  0  0  0
    2.3356    4.2795    0.0000 H   0  0  0  0  0  0  0  0  0  0  0  0
    4.9255   -1.2040    0.0000 H   0  0  0  0  0  0  0  0  0  0  0  0
    5.3241   -1.8942    0.0000 H   0  0  0  0  0  0  0  0  0  0  0  0
    3.6534    7.2394    0.0000 H   0  0  0  0  0  0  0  0  0  0  0  0
    1.3834    5.5901    0.0000 H   0  0  0  0  0  0  0  0  0  0  0  0
    2.0423    7.0701    0.0000 H   0  0  0  0  0  0  0  0  0  0  0  0
    5.9567    6.6299    0.0000 H   0  0  0  0  0  0  0  0  0  0  0  0
    5.6425    7.4484    0.0000 H   0  0  0  0  0  0  0  0  0  0  0  0
    4.8239    7.1342    0.0000 H   0  0  0  0  0  0  0  0  0  0  0  0
    4.8337   -2.5008    0.0000 H   0  0  0  0  0  0  0  0  0  0  0  0
    4.0524   -2.8988    0.0000 H   0  0  0  0  0  0  0  0  0  0  0  0
    4.4505   -3.6801    0.0000 H   0  0  0  0  0  0  0  0  0  0  0  0
    6.3377   -6.1378    0.0000 H   0  0  0  0  0  0  0  0  0  0  0  0
    4.0677   -4.4886    0.0000 H   0  0  0  0  0  0  0  0  0  0  0  0
    5.3855   -7.4484    0.0000 H   0  0  0  0  0  0  0  0  0  0  0  0
    3.1154   -5.7992    0.0000 H   0  0  0  0  0  0  0  0  0  0  0  0
    3.7744   -7.2791    0.0000 H   0  0  0  0  0  0  0  0  0  0  0  0
  1 19  1  0  0  0  0
  1 24  1  0  0  0  0
  2 17  1  0  0  0  0
  2 23  1  0  0  0  0
  3  9  1  0  0  0  0
  3 10  1  0  0  0  0
  3 14  1  0  0  0  0
  4 12  1  0  0  0  0
  4 13  1  0  0  0  0
  4 15  1  0  0  0  0
  5 24  1  0  0  0  0
  5 25  1  0  0  0  0
  5 26  1  0  0  0  0
  6  7  1  0  0  0  0
  6 24  2  0  0  0  0
  7 25  2  0  0  0  0
  8  9  1  0  0  0  0
  8 10  1  0  0  0  0
  8 11  1  0  0  0  0
  8 12  1  0  0  0  0
  9 33  1  0  0  0  0
  9 34  1  0  0  0  0
 10 35  1  0  0  0  0
 10 36  1  0  0  0  0
 11 13  1  0  0  0  0
 11 37  1  0  0  0  0
 11 38  1  0  0  0  0
 12 39  1  0  0  0  0
 12 40  1  0  0  0  0
 13 41  1  0  0  0  0
 13 42  1  0  0  0  0
 14 16  1  0  0  0  0
 14 43  1  0  0  0  0
 14 44  1  0  0  0  0
 15 17  1  0  0  0  0
 15 18  2  0  0  0  0
 16 19  1  0  0  0  0
 16 45  1  0  0  0  0
 16 46  1  0  0  0  0
 17 20  2  0  0  0  0
 18 21  1  0  0  0  0
 18 47  1  0  0  0  0
 19 48  1  0  0  0  0
 19 49  1  0  0  0  0
 20 22  1  0  0  0  0
 20 50  1  0  0  0  0
 21 22  2  0  0  0  0
 21 51  1  0  0  0  0
 22 52  1  0  0  0  0
 23 53  1  0  0  0  0
 23 54  1  0  0  0  0
 23 55  1  0  0  0  0
 25 27  1  0  0  0  0
 26 56  1  0  0  0  0
 26 57  1  0  0  0  0
 26 58  1  0  0  0  0
 27 28  2  0  0  0  0
 27 29  1  0  0  0  0
 28 30  1  0  0  0  0
 28 59  1  0  0  0  0
 29 31  2  0  0  0  0
 29 60  1  0  0  0  0
 30 32  2  0  0  0  0
 30 61  1  0  0  0  0
 31 32  1  0  0  0  0
 31 62  1  0  0  0  0
 32 63  1  0  0  0  0
M  END
> <PUBCHEM_COMPOUND_CID>
137641643

> <PUBCHEM_COMPOUND_CANONICALIZED>
1

> <PUBCHEM_CACTVS_COMPLEXITY>
597

> <PUBCHEM_CACTVS_HBOND_ACCEPTOR>
6

> <PUBCHEM_CACTVS_HBOND_DONOR>
0

> <PUBCHEM_CACTVS_ROTATABLE_BOND>
8

> <PUBCHEM_CACTVS_SUBSKEYS>
AAADceB7oABAAAAAAAAAAAAAAABYAWLAAAAwYAAAAAAAAAAB0AAAHgQIAAAADgzF2waz1ocMFAiiAiZiZACS2AthIrAdyCAvbJiOLqLk+ZuFMChkyBPY6AeQwAAPAAAAAAAAEAAAAAAAAAAgAAAAAAAAAA==

> <PUBCHEM_IUPAC_OPENEYE_NAME>
7-(2-methoxyphenyl)-2-[3-[(4-methyl-5-phenyl-1,2,4-triazol-3-yl)sulfanyl]propyl]-2,7-diazaspiro[3.4]octane

> <PUBCHEM_IUPAC_CAS_NAME>
7-(2-methoxyphenyl)-2-[3-[(4-methyl-5-phenyl-1,2,4-triazol-3-yl)thio]propyl]-2,7-diazaspiro[3.4]octane

> <PUBCHEM_IUPAC_NAME_MARKUP>
7-(2-methoxyphenyl)-2-[3-[(4-methyl-5-phenyl-1,2,4-triazol-3-yl)sulfanyl]propyl]-2,7-diazaspiro[3.4]octane

> <PUBCHEM_IUPAC_NAME>
7-(2-methoxyphenyl)-2-[3-[(4-methyl-5-phenyl-1,2,4-triazol-3-yl)sulfanyl]propyl]-2,7-diazaspiro[3.4]octane

> <PUBCHEM_IUPAC_SYSTEMATIC_NAME>
7-(2-methoxyphenyl)-2-[3-[(4-methyl-5-phenyl-1,2,4-triazol-3-yl)sulfanyl]propyl]-2,7-diazaspiro[3.4]octane

> <PUBCHEM_IUPAC_TRADITIONAL_NAME>
7-(2-methoxyphenyl)-2-[3-[(4-methyl-5-phenyl-1,2,4-triazol-3-yl)thio]propyl]-2,7-diazaspiro[3.4]octane

> <PUBCHEM_IUPAC_INCHI>
InChI=1S/C25H31N5OS/c1-28-23(20-9-4-3-5-10-20)26-27-24(28)32-16-8-14-29-17-25(18-29)13-15-30(19-25)21-11-6-7-12-22(21)31-2/h3-7,9-12H,8,13-19H2,1-2H3

> <PUBCHEM_IUPAC_INCHIKEY>
WTHYXVSYKDCUKR-UHFFFAOYSA-N

> <PUBCHEM_XLOGP3_AA>
4.1

> <PUBCHEM_EXACT_MASS>
449.22493180

> <PUBCHEM_MOLECULAR_FORMULA>
C25H31N5OS

> <PUBCHEM_MOLECULAR_WEIGHT>
449.6

> <PUBCHEM_OPENEYE_CAN_SMILES>
CN1C(=NN=C1SCCCN2CC3(C2)CCN(C3)C4=CC=CC=C4OC)C5=CC=CC=C5

> <PUBCHEM_OPENEYE_ISO_SMILES>
CN1C(=NN=C1SCCCN2CC3(C2)CCN(C3)C4=CC=CC=C4OC)C5=CC=CC=C5

> <PUBCHEM_CACTVS_TPSA>
71.7

> <PUBCHEM_MONOISOTOPIC_WEIGHT>
449.22493180

> <PUBCHEM_TOTAL_CHARGE>
0

> <PUBCHEM_HEAVY_ATOM_COUNT>
32

> <PUBCHEM_ATOM_DEF_STEREO_COUNT>
0

> <PUBCHEM_ATOM_UDEF_STEREO_COUNT>
0

> <PUBCHEM_BOND_DEF_STEREO_COUNT>
0

> <PUBCHEM_BOND_UDEF_STEREO_COUNT>
0

> <PUBCHEM_ISOTOPIC_ATOM_COUNT>
0

> <PUBCHEM_COMPONENT_COUNT>
1

> <PUBCHEM_CACTVS_TAUTO_COUNT>
-1

> <PUBCHEM_COORDINATE_TYPE>
1
5
255

> <PUBCHEM_BONDANNOTATIONS>
15  17  8
15  18  8
17  20  8
18  21  8
20  22  8
21  22  8
27  28  8
27  29  8
28  30  8
29  31  8
30  32  8
31  32  8
5  24  8
5  25  8
6  24  8
6  7  8
7  25  8

$$$$
