126534948
  -OEChem-09292322372D

 58 62  0     1  0  0  0  0  0999 V2000
    2.0000   -0.1888    0.0000 Cl  0  0  0  0  0  0  0  0  0  0  0  0
    2.7202   -3.5772    0.0000 Cl  0  0  0  0  0  0  0  0  0  0  0  0
    9.4372    2.7681    0.0000 S   0  0  0  0  0  0  0  0  0  0  0  0
   12.7850    0.6804    0.0000 O   0  0  0  0  0  0  0  0  0  0  0  0
    3.9563    0.2271    0.0000 N   0  0  3  0  0  0  0  0  0  0  0  0
    6.4372    1.0361    0.0000 N   0  0  3  0  0  0  0  0  0  0  0  0
   11.0250    1.9591    0.0000 N   0  0  0  0  0  0  0  0  0  0  0  0
   11.0250    3.5772    0.0000 N   0  0  0  0  0  0  0  0  0  0  0  0
   11.9760    3.2681    0.0000 N   0  0  0  0  0  0  0  0  0  0  0  0
   14.3239    1.1804    0.0000 N   0  0  0  0  0  0  0  0  0  0  0  0
    4.9074    1.5361    0.0000 C   0  0  3  0  0  0  0  0  0  0  0  0
    4.9074    0.5361    0.0000 C   0  0  3  0  0  0  0  0  0  0  0  0
    5.8536    1.8408    0.0000 C   0  0  0  0  0  0  0  0  0  0  0  0
    3.9563    1.8451    0.0000 C   0  0  0  0  0  0  0  0  0  0  0  0
    5.8536    0.2314    0.0000 C   0  0  0  0  0  0  0  0  0  0  0  0
    3.3685    1.0361    0.0000 C   0  0  0  0  0  0  0  0  0  0  0  0
    7.4372    1.0361    0.0000 C   0  0  0  0  0  0  0  0  0  0  0  0
    3.6473   -0.7240    0.0000 C   0  0  0  0  0  0  0  0  0  0  0  0
    7.9372    1.9021    0.0000 C   0  0  0  0  0  0  0  0  0  0  0  0
    2.6691   -0.9319    0.0000 C   0  0  0  0  0  0  0  0  0  0  0  0
    4.3164   -1.4671    0.0000 C   0  0  0  0  0  0  0  0  0  0  0  0
    8.9372    1.9021    0.0000 C   0  0  0  0  0  0  0  0  0  0  0  0
    2.3601   -1.8830    0.0000 C   0  0  0  0  0  0  0  0  0  0  0  0
    4.0074   -2.4182    0.0000 C   0  0  0  0  0  0  0  0  0  0  0  0
    3.0292   -2.6261    0.0000 C   0  0  0  0  0  0  0  0  0  0  0  0
   10.4372    2.7681    0.0000 C   0  0  0  0  0  0  0  0  0  0  0  0
   11.9760    2.2681    0.0000 C   0  0  0  0  0  0  0  0  0  0  0  0
   10.7159    1.0081    0.0000 C   0  0  0  0  0  0  0  0  0  0  0  0
   12.7850    1.6804    0.0000 C   0  0  0  0  0  0  0  0  0  0  0  0
   13.7361    1.9894    0.0000 C   0  0  0  0  0  0  0  0  0  0  0  0
   14.0451    2.9404    0.0000 C   0  0  0  0  0  0  0  0  0  0  0  0
   13.7361    0.3713    0.0000 C   0  0  0  0  0  0  0  0  0  0  0  0
    4.9082    2.1561    0.0000 H   0  0  0  0  0  0  0  0  0  0  0  0
    4.9082   -0.0839    0.0000 H   0  0  0  0  0  0  0  0  0  0  0  0
    6.3910    2.1500    0.0000 H   0  0  0  0  0  0  0  0  0  0  0  0
    5.6025    2.4077    0.0000 H   0  0  0  0  0  0  0  0  0  0  0  0
    4.2085    2.4115    0.0000 H   0  0  0  0  0  0  0  0  0  0  0  0
    3.4194    2.1551    0.0000 H   0  0  0  0  0  0  0  0  0  0  0  0
    5.6025   -0.3356    0.0000 H   0  0  0  0  0  0  0  0  0  0  0  0
    6.3910   -0.0779    0.0000 H   0  0  0  0  0  0  0  0  0  0  0  0
    2.9078    1.4510    0.0000 H   0  0  0  0  0  0  0  0  0  0  0  0
    2.9078    0.6212    0.0000 H   0  0  0  0  0  0  0  0  0  0  0  0
    7.3295    0.4255    0.0000 H   0  0  0  0  0  0  0  0  0  0  0  0
    8.0198    0.8240    0.0000 H   0  0  0  0  0  0  0  0  0  0  0  0
    8.0448    2.5127    0.0000 H   0  0  0  0  0  0  0  0  0  0  0  0
    7.3546    2.1142    0.0000 H   0  0  0  0  0  0  0  0  0  0  0  0
    4.9229   -1.3382    0.0000 H   0  0  0  0  0  0  0  0  0  0  0  0
    8.8295    1.2915    0.0000 H   0  0  0  0  0  0  0  0  0  0  0  0
    9.5198    1.6901    0.0000 H   0  0  0  0  0  0  0  0  0  0  0  0
    1.7537   -2.0119    0.0000 H   0  0  0  0  0  0  0  0  0  0  0  0
    4.4222   -2.8789    0.0000 H   0  0  0  0  0  0  0  0  0  0  0  0
   10.1263    1.1997    0.0000 H   0  0  0  0  0  0  0  0  0  0  0  0
   10.5244    0.4184    0.0000 H   0  0  0  0  0  0  0  0  0  0  0  0
   11.3056    0.8165    0.0000 H   0  0  0  0  0  0  0  0  0  0  0  0
   14.6348    2.7488    0.0000 H   0  0  0  0  0  0  0  0  0  0  0  0
   14.2367    3.5301    0.0000 H   0  0  0  0  0  0  0  0  0  0  0  0
   13.4555    3.1320    0.0000 H   0  0  0  0  0  0  0  0  0  0  0  0
   13.9277   -0.2183    0.0000 H   0  0  0  0  0  0  0  0  0  0  0  0
  1 20  1  0  0  0  0
  2 25  1  0  0  0  0
  3 22  1  0  0  0  0
  3 26  1  0  0  0  0
  4 29  1  0  0  0  0
  4 32  1  0  0  0  0
  5 12  1  0  0  0  0
  5 16  1  0  0  0  0
  5 18  1  0  0  0  0
  6 13  1  0  0  0  0
  6 15  1  0  0  0  0
  6 17  1  0  0  0  0
  7 26  1  0  0  0  0
  7 27  1  0  0  0  0
  7 28  1  0  0  0  0
  8  9  1  0  0  0  0
  8 26  2  0  0  0  0
  9 27  2  0  0  0  0
 10 30  1  0  0  0  0
 10 32  2  0  0  0  0
 11 12  1  0  0  0  0
 11 13  1  0  0  0  0
 11 14  1  0  0  0  0
 11 33  1  0  0  0  0
 12 15  1  0  0  0  0
 12 34  1  0  0  0  0
 13 35  1  0  0  0  0
 13 36  1  0  0  0  0
 14 16  1  0  0  0  0
 14 37  1  0  0  0  0
 14 38  1  0  0  0  0
 15 39  1  0  0  0  0
 15 40  1  0  0  0  0
 16 41  1  0  0  0  0
 16 42  1  0  0  0  0
 17 19  1  0  0  0  0
 17 43  1  0  0  0  0
 17 44  1  0  0  0  0
 18 20  2  0  0  0  0
 18 21  1  0  0  0  0
 19 22  1  0  0  0  0
 19 45  1  0  0  0  0
 19 46  1  0  0  0  0
 20 23  1  0  0  0  0
 21 24  2  0  0  0  0
 21 47  1  0  0  0  0
 22 48  1  0  0  0  0
 22 49  1  0  0  0  0
 23 25  2  0  0  0  0
 23 50  1  0  0  0  0
 24 25  1  0  0  0  0
 24 51  1  0  0  0  0
 27 29  1  0  0  0  0
 28 52  1  0  0  0  0
 28 53  1  0  0  0  0
 28 54  1  0  0  0  0
 29 30  2  0  0  0  0
 30 31  1  0  0  0  0
 31 55  1  0  0  0  0
 31 56  1  0  0  0  0
 31 57  1  0  0  0  0
 32 58  1  0  0  0  0
M  END
> <PUBCHEM_COMPOUND_CID>
126534948

> <PUBCHEM_COMPOUND_CANONICALIZED>
1

> <PUBCHEM_CACTVS_COMPLEXITY>
637

> <PUBCHEM_CACTVS_HBOND_ACCEPTOR>
7

> <PUBCHEM_CACTVS_HBOND_DONOR>
0

> <PUBCHEM_CACTVS_ROTATABLE_BOND>
7

> <PUBCHEM_CACTVS_SUBSKEYS>
AAADceB7oABGAAAAAAAAAAAAAAAAAWLFiwAwAAAAAAAWAAAB8AAAHgYIAAAADS7F1ya31JcMFEiqAaZz9ASS2Ct7Z7Ad2CG9ZpiOaCLl27HdIChgjALYyAcQAAAKAABAAACAABAAAIAAAQAAIAAAAAAAAA==

> <PUBCHEM_IUPAC_OPENEYE_NAME>
5-[5-[3-[1-(2,4-dichlorophenyl)-2,3,3a,4,6,6a-hexahydropyrrolo[2,3-c]pyrrol-5-yl]propylsulfanyl]-4-methyl-1,2,4-triazol-3-yl]-4-methyl-oxazole

> <PUBCHEM_IUPAC_CAS_NAME>
5-[5-[3-[1-(2,4-dichlorophenyl)-2,3,3a,4,6,6a-hexahydropyrrolo[2,3-c]pyrrol-5-yl]propylthio]-4-methyl-1,2,4-triazol-3-yl]-4-methyloxazole

> <PUBCHEM_IUPAC_NAME_MARKUP>
5-[5-[3-[1-(2,4-dichlorophenyl)-2,3,3<I>a</I>,4,6,6<I>a</I>-hexahydropyrrolo[2,3-c]pyrrol-5-yl]propylsulfanyl]-4-methyl-1,2,4-triazol-3-yl]-4-methyl-1,3-oxazole

> <PUBCHEM_IUPAC_NAME>
5-[5-[3-[1-(2,4-dichlorophenyl)-2,3,3a,4,6,6a-hexahydropyrrolo[2,3-c]pyrrol-5-yl]propylsulfanyl]-4-methyl-1,2,4-triazol-3-yl]-4-methyl-1,3-oxazole

> <PUBCHEM_IUPAC_SYSTEMATIC_NAME>
5-[5-[3-[1-(2,4-dichlorophenyl)-2,3,3a,4,6,6a-hexahydropyrrolo[2,3-c]pyrrol-5-yl]propylsulfanyl]-4-methyl-1,2,4-triazol-3-yl]-4-methyl-1,3-oxazole

> <PUBCHEM_IUPAC_TRADITIONAL_NAME>
5-[5-[3-[1-(2,4-dichlorophenyl)-2,3,3a,4,6,6a-hexahydropyrrolo[2,3-c]pyrrol-5-yl]propylthio]-4-methyl-1,2,4-triazol-3-yl]-4-methyl-oxazole

> <PUBCHEM_IUPAC_INCHI>
InChI=1S/C22H26Cl2N6OS/c1-14-20(31-13-25-14)21-26-27-22(28(21)2)32-9-3-7-29-11-15-6-8-30(19(15)12-29)18-5-4-16(23)10-17(18)24/h4-5,10,13,15,19H,3,6-9,11-12H2,1-2H3

> <PUBCHEM_IUPAC_INCHIKEY>
LJXBPSXSJHVHOV-UHFFFAOYSA-N

> <PUBCHEM_XLOGP3_AA>
4.5

> <PUBCHEM_EXACT_MASS>
492.1265860

> <PUBCHEM_MOLECULAR_FORMULA>
C22H26Cl2N6OS

> <PUBCHEM_MOLECULAR_WEIGHT>
493.5

> <PUBCHEM_OPENEYE_CAN_SMILES>
CC1=C(OC=N1)C2=NN=C(N2C)SCCCN3CC4CCN(C4C3)C5=C(C=C(C=C5)Cl)Cl

> <PUBCHEM_OPENEYE_ISO_SMILES>
CC1=C(OC=N1)C2=NN=C(N2C)SCCCN3CC4CCN(C4C3)C5=C(C=C(C=C5)Cl)Cl

> <PUBCHEM_CACTVS_TPSA>
88.5

> <PUBCHEM_MONOISOTOPIC_WEIGHT>
492.1265860

> <PUBCHEM_TOTAL_CHARGE>
0

> <PUBCHEM_HEAVY_ATOM_COUNT>
32

> <PUBCHEM_ATOM_DEF_STEREO_COUNT>
0

> <PUBCHEM_ATOM_UDEF_STEREO_COUNT>
2

> <PUBCHEM_BOND_DEF_STEREO_COUNT>
0

> <PUBCHEM_BOND_UDEF_STEREO_COUNT>
0

> <PUBCHEM_ISOTOPIC_ATOM_COUNT>
0

> <PUBCHEM_COMPONENT_COUNT>
1

> <PUBCHEM_CACTVS_TAUTO_COUNT>
-1

> <PUBCHEM_COORDINATE_TYPE>
1
5
255

> <PUBCHEM_BONDANNOTATIONS>
10  30  8
10  32  8
11  14  3
12  15  3
18  20  8
18  21  8
20  23  8
21  24  8
23  25  8
24  25  8
29  30  8
4  29  8
4  32  8
7  26  8
7  27  8
8  26  8
8  9  8
9  27  8

$$$$
