135921193
  -OEChem-09292322142D

 53 56  0     0  0  0  0  0  0999 V2000
   10.7282    1.5600    0.0000 O   0  0  0  0  0  0  0  0  0  0  0  0
    4.6660    0.0600    0.0000 O   0  0  0  0  0  0  0  0  0  0  0  0
    8.9962   -1.4400    0.0000 N   0  0  0  0  0  0  0  0  0  0  0  0
   10.7282   -0.4400    0.0000 N   0  0  0  0  0  0  0  0  0  0  0  0
    6.3981   -1.9400    0.0000 N   0  0  0  0  0  0  0  0  0  0  0  0
    4.6660   -1.9400    0.0000 N   0  0  0  0  0  0  0  0  0  0  0  0
    9.8622   -1.9400    0.0000 C   0  0  0  0  0  0  0  0  0  0  0  0
    8.9962   -0.4400    0.0000 C   0  0  0  0  0  0  0  0  0  0  0  0
   10.7282   -1.4400    0.0000 C   0  0  0  0  0  0  0  0  0  0  0  0
    9.8622    0.0600    0.0000 C   0  0  0  0  0  0  0  0  0  0  0  0
    8.1301   -1.9400    0.0000 C   0  0  0  0  0  0  0  0  0  0  0  0
   11.5942    0.0600    0.0000 C   0  0  0  0  0  0  0  0  0  0  0  0
    7.2641   -1.4400    0.0000 C   0  0  0  0  0  0  0  0  0  0  0  0
   11.5942    1.0600    0.0000 C   0  0  0  0  0  0  0  0  0  0  0  0
   12.4603   -0.4400    0.0000 C   0  0  0  0  0  0  0  0  0  0  0  0
   12.4603    1.5600    0.0000 C   0  0  0  0  0  0  0  0  0  0  0  0
   13.3263    0.0600    0.0000 C   0  0  0  0  0  0  0  0  0  0  0  0
    5.5321   -1.4400    0.0000 C   0  0  0  0  0  0  0  0  0  0  0  0
   13.3263    1.0600    0.0000 C   0  0  0  0  0  0  0  0  0  0  0  0
    5.5321   -0.4400    0.0000 C   0  0  0  0  0  0  0  0  0  0  0  0
    3.8000   -1.4400    0.0000 C   0  0  0  0  0  0  0  0  0  0  0  0
    3.8000   -0.4400    0.0000 C   0  0  0  0  0  0  0  0  0  0  0  0
   10.7282    2.5600    0.0000 C   0  0  0  0  0  0  0  0  0  0  0  0
    2.9061   -1.9747    0.0000 C   0  0  0  0  0  0  0  0  0  0  0  0
    2.9061    0.0947    0.0000 C   0  0  0  0  0  0  0  0  0  0  0  0
    2.0000   -1.4608    0.0000 C   0  0  0  0  0  0  0  0  0  0  0  0
    2.0000   -0.4192    0.0000 C   0  0  0  0  0  0  0  0  0  0  0  0
    9.4637   -2.4150    0.0000 H   0  0  0  0  0  0  0  0  0  0  0  0
   10.2607   -2.4150    0.0000 H   0  0  0  0  0  0  0  0  0  0  0  0
    8.7841    0.1426    0.0000 H   0  0  0  0  0  0  0  0  0  0  0  0
    8.3856   -0.5477    0.0000 H   0  0  0  0  0  0  0  0  0  0  0  0
   10.9403   -2.0226    0.0000 H   0  0  0  0  0  0  0  0  0  0  0  0
   11.3388   -1.3323    0.0000 H   0  0  0  0  0  0  0  0  0  0  0  0
   10.2607    0.5349    0.0000 H   0  0  0  0  0  0  0  0  0  0  0  0
    9.4637    0.5349    0.0000 H   0  0  0  0  0  0  0  0  0  0  0  0
    7.7316   -2.4150    0.0000 H   0  0  0  0  0  0  0  0  0  0  0  0
    8.5287   -2.4150    0.0000 H   0  0  0  0  0  0  0  0  0  0  0  0
    7.6626   -0.9651    0.0000 H   0  0  0  0  0  0  0  0  0  0  0  0
    6.8656   -0.9651    0.0000 H   0  0  0  0  0  0  0  0  0  0  0  0
   12.4603   -1.0600    0.0000 H   0  0  0  0  0  0  0  0  0  0  0  0
   12.4603    2.1800    0.0000 H   0  0  0  0  0  0  0  0  0  0  0  0
   13.8632   -0.2500    0.0000 H   0  0  0  0  0  0  0  0  0  0  0  0
   13.8632    1.3700    0.0000 H   0  0  0  0  0  0  0  0  0  0  0  0
    6.1426   -0.5477    0.0000 H   0  0  0  0  0  0  0  0  0  0  0  0
    5.7441    0.1426    0.0000 H   0  0  0  0  0  0  0  0  0  0  0  0
    4.6660   -2.5600    0.0000 H   0  0  0  0  0  0  0  0  0  0  0  0
   11.3482    2.5600    0.0000 H   0  0  0  0  0  0  0  0  0  0  0  0
   10.7282    3.1800    0.0000 H   0  0  0  0  0  0  0  0  0  0  0  0
   10.1082    2.5600    0.0000 H   0  0  0  0  0  0  0  0  0  0  0  0
    2.9132   -2.5946    0.0000 H   0  0  0  0  0  0  0  0  0  0  0  0
    2.9132    0.7146    0.0000 H   0  0  0  0  0  0  0  0  0  0  0  0
    1.4643   -1.7729    0.0000 H   0  0  0  0  0  0  0  0  0  0  0  0
    1.4643   -0.1071    0.0000 H   0  0  0  0  0  0  0  0  0  0  0  0
  1 14  1  0  0  0  0
  1 23  1  0  0  0  0
  2 20  1  0  0  0  0
  2 22  1  0  0  0  0
  3  7  1  0  0  0  0
  3  8  1  0  0  0  0
  3 11  1  0  0  0  0
  4  9  1  0  0  0  0
  4 10  1  0  0  0  0
  4 12  1  0  0  0  0
  5 13  1  0  0  0  0
  5 18  2  0  0  0  0
  6 18  1  0  0  0  0
  6 21  1  0  0  0  0
  6 46  1  0  0  0  0
  7  9  1  0  0  0  0
  7 28  1  0  0  0  0
  7 29  1  0  0  0  0
  8 10  1  0  0  0  0
  8 30  1  0  0  0  0
  8 31  1  0  0  0  0
  9 32  1  0  0  0  0
  9 33  1  0  0  0  0
 10 34  1  0  0  0  0
 10 35  1  0  0  0  0
 11 13  1  0  0  0  0
 11 36  1  0  0  0  0
 11 37  1  0  0  0  0
 12 14  1  0  0  0  0
 12 15  2  0  0  0  0
 13 38  1  0  0  0  0
 13 39  1  0  0  0  0
 14 16  2  0  0  0  0
 15 17  1  0  0  0  0
 15 40  1  0  0  0  0
 16 19  1  0  0  0  0
 16 41  1  0  0  0  0
 17 19  2  0  0  0  0
 17 42  1  0  0  0  0
 18 20  1  0  0  0  0
 19 43  1  0  0  0  0
 20 44  1  0  0  0  0
 20 45  1  0  0  0  0
 21 22  1  0  0  0  0
 21 24  2  0  0  0  0
 22 25  2  0  0  0  0
 23 47  1  0  0  0  0
 23 48  1  0  0  0  0
 23 49  1  0  0  0  0
 24 26  1  0  0  0  0
 24 50  1  0  0  0  0
 25 27  1  0  0  0  0
 25 51  1  0  0  0  0
 26 27  2  0  0  0  0
 26 52  1  0  0  0  0
 27 53  1  0  0  0  0
M  END
> <PUBCHEM_COMPOUND_CID>
135921193

> <PUBCHEM_COMPOUND_CANONICALIZED>
1

> <PUBCHEM_CACTVS_COMPLEXITY>
493

> <PUBCHEM_CACTVS_HBOND_ACCEPTOR>
5

> <PUBCHEM_CACTVS_HBOND_DONOR>
1

> <PUBCHEM_CACTVS_ROTATABLE_BOND>
5

> <PUBCHEM_CACTVS_SUBSKEYS>
AAADceB7sAAAAAAAAAAAAAAAAAAAAAAAAAA8eIEAAAAAAACxQAAAHgAQAAAACAzhkAYzxoPABACgACZiZASCCAEhIgAJiAAfbIgOZiLEuZuXOCjk0BHY6AeQQAAAAAAAAAAAEAAAAAAAAAAgAAAAAAAAAA==

> <PUBCHEM_IUPAC_OPENEYE_NAME>
N-[2-[4-(2-methoxyphenyl)piperazin-1-yl]ethyl]-4H-1,4-benzoxazin-3-imine

> <PUBCHEM_IUPAC_CAS_NAME>
N-[2-[4-(2-methoxyphenyl)-1-piperazinyl]ethyl]-4H-1,4-benzoxazin-3-imine

> <PUBCHEM_IUPAC_NAME_MARKUP>
<I>N</I>-[2-[4-(2-methoxyphenyl)piperazin-1-yl]ethyl]-4<I>H</I>-1,4-benzoxazin-3-imine

> <PUBCHEM_IUPAC_NAME>
N-[2-[4-(2-methoxyphenyl)piperazin-1-yl]ethyl]-4H-1,4-benzoxazin-3-imine

> <PUBCHEM_IUPAC_SYSTEMATIC_NAME>
N-[2-[4-(2-methoxyphenyl)piperazin-1-yl]ethyl]-4H-1,4-benzoxazin-3-imine

> <PUBCHEM_IUPAC_TRADITIONAL_NAME>
4H-1,4-benzoxazin-3-ylidene-[2-[4-(2-methoxyphenyl)piperazino]ethyl]amine

> <PUBCHEM_IUPAC_INCHI>
InChI=1S/C21H26N4O2/c1-26-20-9-5-3-7-18(20)25-14-12-24(13-15-25)11-10-22-21-16-27-19-8-4-2-6-17(19)23-21/h2-9H,10-16H2,1H3,(H,22,23)

> <PUBCHEM_IUPAC_INCHIKEY>
CLSKBBHRGMBREO-UHFFFAOYSA-N

> <PUBCHEM_XLOGP3_AA>
2.6

> <PUBCHEM_EXACT_MASS>
366.20557608

> <PUBCHEM_MOLECULAR_FORMULA>
C21H26N4O2

> <PUBCHEM_MOLECULAR_WEIGHT>
366.5

> <PUBCHEM_OPENEYE_CAN_SMILES>
COC1=CC=CC=C1N2CCN(CC2)CCN=C3COC4=CC=CC=C4N3

> <PUBCHEM_OPENEYE_ISO_SMILES>
COC1=CC=CC=C1N2CCN(CC2)CCN=C3COC4=CC=CC=C4N3

> <PUBCHEM_CACTVS_TPSA>
49.3

> <PUBCHEM_MONOISOTOPIC_WEIGHT>
366.20557608

> <PUBCHEM_TOTAL_CHARGE>
0

> <PUBCHEM_HEAVY_ATOM_COUNT>
27

> <PUBCHEM_ATOM_DEF_STEREO_COUNT>
0

> <PUBCHEM_ATOM_UDEF_STEREO_COUNT>
0

> <PUBCHEM_BOND_DEF_STEREO_COUNT>
0

> <PUBCHEM_BOND_UDEF_STEREO_COUNT>
0

> <PUBCHEM_ISOTOPIC_ATOM_COUNT>
0

> <PUBCHEM_COMPONENT_COUNT>
1

> <PUBCHEM_CACTVS_TAUTO_COUNT>
-1

> <PUBCHEM_COORDINATE_TYPE>
1
5
255

> <PUBCHEM_BONDANNOTATIONS>
12  14  8
12  15  8
14  16  8
15  17  8
16  19  8
17  19  8
21  22  8
21  24  8
22  25  8
24  26  8
25  27  8
26  27  8

$$$$
