95214051
  -OEChem-09292322402D

 44 46  0     1  0  0  0  0  0999 V2000
    3.9901   -2.2041    0.0000 S   0  0  0  0  0  0  0  0  0  0  0  0
    6.1808    3.1719    0.0000 O   0  0  0  0  0  0  0  0  0  0  0  0
    6.1808    5.1719    0.0000 O   0  0  0  0  0  0  0  0  0  0  0  0
    2.5000    0.4695    0.0000 N   0  0  3  0  0  0  0  0  0  0  0  0
    4.4487    3.1719    0.0000 N   0  0  0  0  0  0  0  0  0  0  0  0
    2.3720   -2.2041    0.0000 N   0  0  0  0  0  0  0  0  0  0  0  0
    3.5827    1.6719    0.0000 C   0  0  1  0  0  0  0  0  0  0  0  0
    2.6691    2.0787    0.0000 C   0  0  0  0  0  0  0  0  0  0  0  0
    3.4782    0.6774    0.0000 C   0  0  0  0  0  0  0  0  0  0  0  0
    2.0000    1.3355    0.0000 C   0  0  0  0  0  0  0  0  0  0  0  0
    4.4487    2.1719    0.0000 C   0  0  0  0  0  0  0  0  0  0  0  0
    2.0933   -0.4441    0.0000 C   0  0  0  0  0  0  0  0  0  0  0  0
    2.6810   -1.2531    0.0000 C   0  0  0  0  0  0  0  0  0  0  0  0
    5.3147    3.6719    0.0000 C   0  0  0  0  0  0  0  0  0  0  0  0
    3.6810   -1.2531    0.0000 C   0  0  0  0  0  0  0  0  0  0  0  0
    3.1810   -2.7919    0.0000 C   0  0  0  0  0  0  0  0  0  0  0  0
    5.3147    4.6719    0.0000 C   0  0  0  0  0  0  0  0  0  0  0  0
    3.1810   -3.7919    0.0000 C   0  0  0  0  0  0  0  0  0  0  0  0
    2.3150   -4.2919    0.0000 C   0  0  0  0  0  0  0  0  0  0  0  0
    4.0471   -4.2919    0.0000 C   0  0  0  0  0  0  0  0  0  0  0  0
    2.3150   -5.2919    0.0000 C   0  0  0  0  0  0  0  0  0  0  0  0
    4.0471   -5.2919    0.0000 C   0  0  0  0  0  0  0  0  0  0  0  0
    3.1810   -5.7919    0.0000 C   0  0  0  0  0  0  0  0  0  0  0  0
    4.1026    1.3342    0.0000 H   0  0  0  0  0  0  0  0  0  0  0  0
    2.9791    2.6156    0.0000 H   0  0  0  0  0  0  0  0  0  0  0  0
    2.1675    2.4431    0.0000 H   0  0  0  0  0  0  0  0  0  0  0  0
    3.5430    0.0608    0.0000 H   0  0  0  0  0  0  0  0  0  0  0  0
    4.0982    0.6774    0.0000 H   0  0  0  0  0  0  0  0  0  0  0  0
    1.5851    1.7963    0.0000 H   0  0  0  0  0  0  0  0  0  0  0  0
    1.4984    0.9711    0.0000 H   0  0  0  0  0  0  0  0  0  0  0  0
    4.6608    1.5893    0.0000 H   0  0  0  0  0  0  0  0  0  0  0  0
    5.0593    2.2796    0.0000 H   0  0  0  0  0  0  0  0  0  0  0  0
    1.5793   -0.0974    0.0000 H   0  0  0  0  0  0  0  0  0  0  0  0
    1.6626   -0.8901    0.0000 H   0  0  0  0  0  0  0  0  0  0  0  0
    3.9118    3.4819    0.0000 H   0  0  0  0  0  0  0  0  0  0  0  0
    4.0455   -0.7515    0.0000 H   0  0  0  0  0  0  0  0  0  0  0  0
    5.1027    5.2545    0.0000 H   0  0  0  0  0  0  0  0  0  0  0  0
    4.7042    4.5643    0.0000 H   0  0  0  0  0  0  0  0  0  0  0  0
    1.7781   -3.9819    0.0000 H   0  0  0  0  0  0  0  0  0  0  0  0
    4.5840   -3.9819    0.0000 H   0  0  0  0  0  0  0  0  0  0  0  0
    6.1808    5.7919    0.0000 H   0  0  0  0  0  0  0  0  0  0  0  0
    1.7781   -5.6019    0.0000 H   0  0  0  0  0  0  0  0  0  0  0  0
    4.5840   -5.6019    0.0000 H   0  0  0  0  0  0  0  0  0  0  0  0
    3.1810   -6.4119    0.0000 H   0  0  0  0  0  0  0  0  0  0  0  0
  1 15  1  0  0  0  0
  1 16  1  0  0  0  0
  2 14  2  0  0  0  0
  3 17  1  0  0  0  0
  3 41  1  0  0  0  0
  4  9  1  0  0  0  0
  4 10  1  0  0  0  0
  4 12  1  0  0  0  0
  5 11  1  0  0  0  0
  5 14  1  0  0  0  0
  5 35  1  0  0  0  0
  6 13  1  0  0  0  0
  6 16  2  0  0  0  0
  7  8  1  0  0  0  0
  7  9  1  0  0  0  0
  7 11  1  6  0  0  0
  7 24  1  0  0  0  0
  8 10  1  0  0  0  0
  8 25  1  0  0  0  0
  8 26  1  0  0  0  0
  9 27  1  0  0  0  0
  9 28  1  0  0  0  0
 10 29  1  0  0  0  0
 10 30  1  0  0  0  0
 11 31  1  0  0  0  0
 11 32  1  0  0  0  0
 12 13  1  0  0  0  0
 12 33  1  0  0  0  0
 12 34  1  0  0  0  0
 13 15  2  0  0  0  0
 14 17  1  0  0  0  0
 15 36  1  0  0  0  0
 16 18  1  0  0  0  0
 17 37  1  0  0  0  0
 17 38  1  0  0  0  0
 18 19  2  0  0  0  0
 18 20  1  0  0  0  0
 19 21  1  0  0  0  0
 19 39  1  0  0  0  0
 20 22  2  0  0  0  0
 20 40  1  0  0  0  0
 21 23  2  0  0  0  0
 21 42  1  0  0  0  0
 22 23  1  0  0  0  0
 22 43  1  0  0  0  0
 23 44  1  0  0  0  0
M  END
> <PUBCHEM_COMPOUND_CID>
95214051

> <PUBCHEM_COMPOUND_CANONICALIZED>
1

> <PUBCHEM_CACTVS_COMPLEXITY>
390

> <PUBCHEM_CACTVS_HBOND_ACCEPTOR>
5

> <PUBCHEM_CACTVS_HBOND_DONOR>
2

> <PUBCHEM_CACTVS_ROTATABLE_BOND>
6

> <PUBCHEM_CACTVS_SUBSKEYS>
AAADceB7MABAAAAAAAAAAAAAAAAAAWLAAAAwAAAAAAAAAAABwAAAHgQQCAAADQjl3gawgZPIEgisAyVyVAKC8KBhCjgIiLR4JJgKcKKg0RGUIAhglgC4iAcQgAAOAAAAAAAAAAAAAAAAAAAAAAAAAAAAAA==

> <PUBCHEM_IUPAC_OPENEYE_NAME>
2-hydroxy-N-[[(3R)-1-[(2-phenylthiazol-4-yl)methyl]pyrrolidin-3-yl]methyl]acetamide

> <PUBCHEM_IUPAC_CAS_NAME>
2-hydroxy-N-[[(3R)-1-[(2-phenyl-4-thiazolyl)methyl]-3-pyrrolidinyl]methyl]acetamide

> <PUBCHEM_IUPAC_NAME_MARKUP>
2-hydroxy-<I>N</I>-[[(3<I>R</I>)-1-[(2-phenyl-1,3-thiazol-4-yl)methyl]pyrrolidin-3-yl]methyl]acetamide

> <PUBCHEM_IUPAC_NAME>
2-hydroxy-N-[[(3R)-1-[(2-phenyl-1,3-thiazol-4-yl)methyl]pyrrolidin-3-yl]methyl]acetamide

> <PUBCHEM_IUPAC_SYSTEMATIC_NAME>
2-oxidanyl-N-[[(3R)-1-[(2-phenyl-1,3-thiazol-4-yl)methyl]pyrrolidin-3-yl]methyl]ethanamide

> <PUBCHEM_IUPAC_TRADITIONAL_NAME>
2-hydroxy-N-[[(3R)-1-[(2-phenylthiazol-4-yl)methyl]pyrrolidin-3-yl]methyl]acetamide

> <PUBCHEM_IUPAC_INCHI>
InChI=1S/C17H21N3O2S/c21-11-16(22)18-8-13-6-7-20(9-13)10-15-12-23-17(19-15)14-4-2-1-3-5-14/h1-5,12-13,21H,6-11H2,(H,18,22)/t13-/m1/s1

> <PUBCHEM_IUPAC_INCHIKEY>
NHESEAWKSLDBRA-CYBMUJFWSA-N

> <PUBCHEM_XLOGP3_AA>
1.5

> <PUBCHEM_EXACT_MASS>
331.13544809

> <PUBCHEM_MOLECULAR_FORMULA>
C17H21N3O2S

> <PUBCHEM_MOLECULAR_WEIGHT>
331.4

> <PUBCHEM_OPENEYE_CAN_SMILES>
C1CN(CC1CNC(=O)CO)CC2=CSC(=N2)C3=CC=CC=C3

> <PUBCHEM_OPENEYE_ISO_SMILES>
C1CN(C[C@H]1CNC(=O)CO)CC2=CSC(=N2)C3=CC=CC=C3

> <PUBCHEM_CACTVS_TPSA>
93.7

> <PUBCHEM_MONOISOTOPIC_WEIGHT>
331.13544809

> <PUBCHEM_TOTAL_CHARGE>
0

> <PUBCHEM_HEAVY_ATOM_COUNT>
23

> <PUBCHEM_ATOM_DEF_STEREO_COUNT>
1

> <PUBCHEM_ATOM_UDEF_STEREO_COUNT>
0

> <PUBCHEM_BOND_DEF_STEREO_COUNT>
0

> <PUBCHEM_BOND_UDEF_STEREO_COUNT>
0

> <PUBCHEM_ISOTOPIC_ATOM_COUNT>
0

> <PUBCHEM_COMPONENT_COUNT>
1

> <PUBCHEM_CACTVS_TAUTO_COUNT>
-1

> <PUBCHEM_COORDINATE_TYPE>
1
5
255

> <PUBCHEM_BONDANNOTATIONS>
1  15  8
1  16  8
13  15  8
18  19  8
18  20  8
19  21  8
20  22  8
21  23  8
22  23  8
6  13  8
6  16  8
7  11  6

$$$$
