44436728
  -OEChem-09292322252D

 62 65  0     1  0  0  0  0  0999 V2000
    2.0000   -6.0194    0.0000 Cl  0  0  0  0  0  0  0  0  0  0  0  0
    8.8712    5.0684    0.0000 S   0  0  0  0  0  0  0  0  0  0  0  0
    8.9282    2.9806    0.0000 O   0  0  0  0  0  0  0  0  0  0  0  0
    5.4641   -3.0194    0.0000 N   0  0  0  0  0  0  0  0  0  0  0  0
    5.4641   -1.0194    0.0000 N   0  0  0  0  0  0  0  0  0  0  0  0
    7.1962    2.9806    0.0000 N   0  0  0  0  0  0  0  0  0  0  0  0
    4.5981   -2.5194    0.0000 C   0  0  0  0  0  0  0  0  0  0  0  0
    6.3301   -2.5194    0.0000 C   0  0  0  0  0  0  0  0  0  0  0  0
    4.5981   -1.5194    0.0000 C   0  0  0  0  0  0  0  0  0  0  0  0
    6.3301   -1.5194    0.0000 C   0  0  0  0  0  0  0  0  0  0  0  0
    5.4641   -4.0194    0.0000 C   0  0  3  0  0  0  0  0  0  0  0  0
    5.4641   -0.0194    0.0000 C   0  0  0  0  0  0  0  0  0  0  0  0
    6.3301    0.4806    0.0000 C   0  0  0  0  0  0  0  0  0  0  0  0
    4.5981   -4.5194    0.0000 C   0  0  0  0  0  0  0  0  0  0  0  0
    6.3301   -4.5194    0.0000 C   0  0  0  0  0  0  0  0  0  0  0  0
    6.3301    1.4806    0.0000 C   0  0  0  0  0  0  0  0  0  0  0  0
    4.5981   -5.5194    0.0000 C   0  0  0  0  0  0  0  0  0  0  0  0
    3.7320   -4.0194    0.0000 C   0  0  0  0  0  0  0  0  0  0  0  0
    6.3301   -5.5194    0.0000 C   0  0  0  0  0  0  0  0  0  0  0  0
    7.1962   -4.0194    0.0000 C   0  0  0  0  0  0  0  0  0  0  0  0
    7.1962    1.9806    0.0000 C   0  0  0  0  0  0  0  0  0  0  0  0
    3.7320   -6.0194    0.0000 C   0  0  0  0  0  0  0  0  0  0  0  0
    2.8660   -4.5194    0.0000 C   0  0  0  0  0  0  0  0  0  0  0  0
    7.1962   -6.0194    0.0000 C   0  0  0  0  0  0  0  0  0  0  0  0
    8.0622   -4.5194    0.0000 C   0  0  0  0  0  0  0  0  0  0  0  0
    2.8660   -5.5194    0.0000 C   0  0  0  0  0  0  0  0  0  0  0  0
    8.0622   -5.5194    0.0000 C   0  0  0  0  0  0  0  0  0  0  0  0
    8.0622    3.4806    0.0000 C   0  0  0  0  0  0  0  0  0  0  0  0
    8.0622    4.4806    0.0000 C   0  0  0  0  0  0  0  0  0  0  0  0
    7.2532    5.0684    0.0000 C   0  0  0  0  0  0  0  0  0  0  0  0
    7.5622    6.0194    0.0000 C   0  0  0  0  0  0  0  0  0  0  0  0
    8.5622    6.0194    0.0000 C   0  0  0  0  0  0  0  0  0  0  0  0
    3.9875   -2.4118    0.0000 H   0  0  0  0  0  0  0  0  0  0  0  0
    4.3860   -3.1020    0.0000 H   0  0  0  0  0  0  0  0  0  0  0  0
    6.5422   -3.1020    0.0000 H   0  0  0  0  0  0  0  0  0  0  0  0
    6.9407   -2.4118    0.0000 H   0  0  0  0  0  0  0  0  0  0  0  0
    4.3860   -0.9368    0.0000 H   0  0  0  0  0  0  0  0  0  0  0  0
    3.9875   -1.6271    0.0000 H   0  0  0  0  0  0  0  0  0  0  0  0
    6.9407   -1.6271    0.0000 H   0  0  0  0  0  0  0  0  0  0  0  0
    6.5422   -0.9368    0.0000 H   0  0  0  0  0  0  0  0  0  0  0  0
    5.4641   -4.6394    0.0000 H   0  0  0  0  0  0  0  0  0  0  0  0
    5.2520    0.5632    0.0000 H   0  0  0  0  0  0  0  0  0  0  0  0
    4.8535   -0.1271    0.0000 H   0  0  0  0  0  0  0  0  0  0  0  0
    6.5422   -0.1020    0.0000 H   0  0  0  0  0  0  0  0  0  0  0  0
    6.9407    0.5882    0.0000 H   0  0  0  0  0  0  0  0  0  0  0  0
    6.1181    2.0632    0.0000 H   0  0  0  0  0  0  0  0  0  0  0  0
    5.7196    1.3729    0.0000 H   0  0  0  0  0  0  0  0  0  0  0  0
    5.1350   -5.8294    0.0000 H   0  0  0  0  0  0  0  0  0  0  0  0
    3.7320   -3.3994    0.0000 H   0  0  0  0  0  0  0  0  0  0  0  0
    5.7932   -5.8294    0.0000 H   0  0  0  0  0  0  0  0  0  0  0  0
    7.1962   -3.3994    0.0000 H   0  0  0  0  0  0  0  0  0  0  0  0
    7.4082    1.3980    0.0000 H   0  0  0  0  0  0  0  0  0  0  0  0
    7.8067    2.0882    0.0000 H   0  0  0  0  0  0  0  0  0  0  0  0
    3.7320   -6.6394    0.0000 H   0  0  0  0  0  0  0  0  0  0  0  0
    2.3291   -4.2094    0.0000 H   0  0  0  0  0  0  0  0  0  0  0  0
    7.1962   -6.6394    0.0000 H   0  0  0  0  0  0  0  0  0  0  0  0
    8.5991   -4.2094    0.0000 H   0  0  0  0  0  0  0  0  0  0  0  0
    6.6592    3.2906    0.0000 H   0  0  0  0  0  0  0  0  0  0  0  0
    8.5991   -5.8294    0.0000 H   0  0  0  0  0  0  0  0  0  0  0  0
    6.6635    4.8768    0.0000 H   0  0  0  0  0  0  0  0  0  0  0  0
    7.1978    6.5210    0.0000 H   0  0  0  0  0  0  0  0  0  0  0  0
    8.9266    6.5210    0.0000 H   0  0  0  0  0  0  0  0  0  0  0  0
  1 26  1  0  0  0  0
  2 29  1  0  0  0  0
  2 32  1  0  0  0  0
  3 28  2  0  0  0  0
  4  7  1  0  0  0  0
  4  8  1  0  0  0  0
  4 11  1  0  0  0  0
  5  9  1  0  0  0  0
  5 10  1  0  0  0  0
  5 12  1  0  0  0  0
  6 21  1  0  0  0  0
  6 28  1  0  0  0  0
  6 58  1  0  0  0  0
  7  9  1  0  0  0  0
  7 33  1  0  0  0  0
  7 34  1  0  0  0  0
  8 10  1  0  0  0  0
  8 35  1  0  0  0  0
  8 36  1  0  0  0  0
  9 37  1  0  0  0  0
  9 38  1  0  0  0  0
 10 39  1  0  0  0  0
 10 40  1  0  0  0  0
 11 14  1  0  0  0  0
 11 15  1  0  0  0  0
 11 41  1  0  0  0  0
 12 13  1  0  0  0  0
 12 42  1  0  0  0  0
 12 43  1  0  0  0  0
 13 16  1  0  0  0  0
 13 44  1  0  0  0  0
 13 45  1  0  0  0  0
 14 17  2  0  0  0  0
 14 18  1  0  0  0  0
 15 19  2  0  0  0  0
 15 20  1  0  0  0  0
 16 21  1  0  0  0  0
 16 46  1  0  0  0  0
 16 47  1  0  0  0  0
 17 22  1  0  0  0  0
 17 48  1  0  0  0  0
 18 23  2  0  0  0  0
 18 49  1  0  0  0  0
 19 24  1  0  0  0  0
 19 50  1  0  0  0  0
 20 25  2  0  0  0  0
 20 51  1  0  0  0  0
 21 52  1  0  0  0  0
 21 53  1  0  0  0  0
 22 26  2  0  0  0  0
 22 54  1  0  0  0  0
 23 26  1  0  0  0  0
 23 55  1  0  0  0  0
 24 27  2  0  0  0  0
 24 56  1  0  0  0  0
 25 27  1  0  0  0  0
 25 57  1  0  0  0  0
 27 59  1  0  0  0  0
 28 29  1  0  0  0  0
 29 30  2  0  0  0  0
 30 31  1  0  0  0  0
 30 60  1  0  0  0  0
 31 32  2  0  0  0  0
 31 61  1  0  0  0  0
 32 62  1  0  0  0  0
M  END
> <PUBCHEM_COMPOUND_CID>
44436728

> <PUBCHEM_COMPOUND_CANONICALIZED>
1

> <PUBCHEM_CACTVS_COMPLEXITY>
557

> <PUBCHEM_CACTVS_HBOND_ACCEPTOR>
4

> <PUBCHEM_CACTVS_HBOND_DONOR>
1

> <PUBCHEM_CACTVS_ROTATABLE_BOND>
9

> <PUBCHEM_CACTVS_SUBSKEYS>
AAADceB7IABEAAAAAAAAAAAAAAAAASAAAAA8YIAAAAAAAAAB0AAAHgYQAAAADCrF2CSwAYPAAAiMAiFSEACDAIAkDRBIiJkIBsgIYDKhlxGUIQhglgCoiYcYgMAOBAAAAAAAAAAIAAAAAAAAAAAAAAAAAA==

> <PUBCHEM_IUPAC_OPENEYE_NAME>
N-[4-[4-[(4-chlorophenyl)-phenyl-methyl]piperazin-1-yl]butyl]thiophene-2-carboxamide

> <PUBCHEM_IUPAC_CAS_NAME>
N-[4-[4-[(4-chlorophenyl)-phenylmethyl]-1-piperazinyl]butyl]-2-thiophenecarboxamide

> <PUBCHEM_IUPAC_NAME_MARKUP>
<I>N</I>-[4-[4-[(4-chlorophenyl)-phenylmethyl]piperazin-1-yl]butyl]thiophene-2-carboxamide

> <PUBCHEM_IUPAC_NAME>
N-[4-[4-[(4-chlorophenyl)-phenylmethyl]piperazin-1-yl]butyl]thiophene-2-carboxamide

> <PUBCHEM_IUPAC_SYSTEMATIC_NAME>
N-[4-[4-[(4-chlorophenyl)-phenyl-methyl]piperazin-1-yl]butyl]thiophene-2-carboxamide

> <PUBCHEM_IUPAC_TRADITIONAL_NAME>
N-[4-[4-[(4-chlorophenyl)-phenyl-methyl]piperazino]butyl]thiophene-2-carboxamide

> <PUBCHEM_IUPAC_INCHI>
InChI=1S/C26H30ClN3OS/c27-23-12-10-22(11-13-23)25(21-7-2-1-3-8-21)30-18-16-29(17-19-30)15-5-4-14-28-26(31)24-9-6-20-32-24/h1-3,6-13,20,25H,4-5,14-19H2,(H,28,31)

> <PUBCHEM_IUPAC_INCHIKEY>
CUKXVIBQJUBHRB-UHFFFAOYSA-N

> <PUBCHEM_XLOGP3_AA>
5.6

> <PUBCHEM_EXACT_MASS>
467.1798115

> <PUBCHEM_MOLECULAR_FORMULA>
C26H30ClN3OS

> <PUBCHEM_MOLECULAR_WEIGHT>
468.1

> <PUBCHEM_OPENEYE_CAN_SMILES>
C1CN(CCN1CCCCNC(=O)C2=CC=CS2)C(C3=CC=CC=C3)C4=CC=C(C=C4)Cl

> <PUBCHEM_OPENEYE_ISO_SMILES>
C1CN(CCN1CCCCNC(=O)C2=CC=CS2)C(C3=CC=CC=C3)C4=CC=C(C=C4)Cl

> <PUBCHEM_CACTVS_TPSA>
63.8

> <PUBCHEM_MONOISOTOPIC_WEIGHT>
467.1798115

> <PUBCHEM_TOTAL_CHARGE>
0

> <PUBCHEM_HEAVY_ATOM_COUNT>
32

> <PUBCHEM_ATOM_DEF_STEREO_COUNT>
0

> <PUBCHEM_ATOM_UDEF_STEREO_COUNT>
1

> <PUBCHEM_BOND_DEF_STEREO_COUNT>
0

> <PUBCHEM_BOND_UDEF_STEREO_COUNT>
0

> <PUBCHEM_ISOTOPIC_ATOM_COUNT>
0

> <PUBCHEM_COMPONENT_COUNT>
1

> <PUBCHEM_CACTVS_TAUTO_COUNT>
-1

> <PUBCHEM_COORDINATE_TYPE>
1
5
255

> <PUBCHEM_BONDANNOTATIONS>
11  15  3
14  17  8
14  18  8
15  19  8
15  20  8
17  22  8
18  23  8
19  24  8
2  29  8
2  32  8
20  25  8
22  26  8
23  26  8
24  27  8
25  27  8
29  30  8
30  31  8
31  32  8

$$$$
