54580387
  -OEChem-09292322312D

 65 68  0     1  0  0  0  0  0999 V2000
   11.4348    3.0499    0.0000 Cl  0  0  0  0  0  0  0  0  0  0  0  0
   12.0561    4.9510    0.0000 Cl  0  0  0  0  0  0  0  0  0  0  0  0
    4.6783   -5.2938    0.0000 S   0  0  0  0  0  0  0  0  0  0  0  0
    8.8564    0.7364    0.0000 N   0  0  0  0  0  0  0  0  0  0  0  0
    9.4778    2.6375    0.0000 N   0  0  0  0  0  0  0  0  0  0  0  0
    5.9674   -2.5276    0.0000 N   0  0  3  0  0  0  0  0  0  0  0  0
    8.1886    1.4807    0.0000 C   0  0  0  0  0  0  0  0  0  0  0  0
    9.8349    0.9427    0.0000 C   0  0  0  0  0  0  0  0  0  0  0  0
    8.5458   -0.2141    0.0000 C   0  0  0  0  0  0  0  0  0  0  0  0
    8.4993    2.4313    0.0000 C   0  0  0  0  0  0  0  0  0  0  0  0
   10.1456    1.8932    0.0000 C   0  0  0  0  0  0  0  0  0  0  0  0
    7.5673   -0.4203    0.0000 C   0  0  0  0  0  0  0  0  0  0  0  0
    7.2566   -1.3708    0.0000 C   0  0  0  0  0  0  0  0  0  0  0  0
    6.2781   -1.5770    0.0000 C   0  0  0  0  0  0  0  0  0  0  0  0
    9.7884    3.5880    0.0000 C   0  0  0  0  0  0  0  0  0  0  0  0
    4.9889   -2.7338    0.0000 C   0  0  0  0  0  0  0  0  0  0  0  0
    6.6353   -3.2719    0.0000 C   0  0  0  0  0  0  0  0  0  0  0  0
    4.6783   -3.6843    0.0000 C   0  0  0  0  0  0  0  0  0  0  0  0
    7.6138   -3.0657    0.0000 C   0  0  0  0  0  0  0  0  0  0  0  0
   10.7669    3.7942    0.0000 C   0  0  0  0  0  0  0  0  0  0  0  0
    9.1206    4.3323    0.0000 C   0  0  0  0  0  0  0  0  0  0  0  0
    3.7320   -3.9890    0.0000 C   0  0  0  0  0  0  0  0  0  0  0  0
    5.2619   -4.4890    0.0000 C   0  0  0  0  0  0  0  0  0  0  0  0
    8.2816   -3.8100    0.0000 C   0  0  0  0  0  0  0  0  0  0  0  0
   11.0776    4.7447    0.0000 C   0  0  0  0  0  0  0  0  0  0  0  0
    9.4312    5.2828    0.0000 C   0  0  0  0  0  0  0  0  0  0  0  0
    3.7320   -4.9890    0.0000 C   0  0  0  0  0  0  0  0  0  0  0  0
   10.4097    5.4890    0.0000 C   0  0  0  0  0  0  0  0  0  0  0  0
    2.8660   -3.4890    0.0000 C   0  0  0  0  0  0  0  0  0  0  0  0
    2.8660   -5.4890    0.0000 C   0  0  0  0  0  0  0  0  0  0  0  0
    2.0000   -3.9890    0.0000 C   0  0  0  0  0  0  0  0  0  0  0  0
    2.0000   -4.9890    0.0000 C   0  0  0  0  0  0  0  0  0  0  0  0
    7.6417    1.7728    0.0000 H   0  0  0  0  0  0  0  0  0  0  0  0
    7.8060    0.9928    0.0000 H   0  0  0  0  0  0  0  0  0  0  0  0
    9.8555    0.3230    0.0000 H   0  0  0  0  0  0  0  0  0  0  0  0
   10.4488    0.8553    0.0000 H   0  0  0  0  0  0  0  0  0  0  0  0
    8.5663   -0.8337    0.0000 H   0  0  0  0  0  0  0  0  0  0  0  0
    9.1596   -0.3014    0.0000 H   0  0  0  0  0  0  0  0  0  0  0  0
    8.4787    3.0509    0.0000 H   0  0  0  0  0  0  0  0  0  0  0  0
    7.8854    2.5186    0.0000 H   0  0  0  0  0  0  0  0  0  0  0  0
   10.6925    1.6012    0.0000 H   0  0  0  0  0  0  0  0  0  0  0  0
   10.5282    2.3811    0.0000 H   0  0  0  0  0  0  0  0  0  0  0  0
    7.5467    0.1994    0.0000 H   0  0  0  0  0  0  0  0  0  0  0  0
    6.9534   -0.3330    0.0000 H   0  0  0  0  0  0  0  0  0  0  0  0
    7.2772   -1.9905    0.0000 H   0  0  0  0  0  0  0  0  0  0  0  0
    7.8704   -1.4582    0.0000 H   0  0  0  0  0  0  0  0  0  0  0  0
    6.2575   -0.9574    0.0000 H   0  0  0  0  0  0  0  0  0  0  0  0
    5.6643   -1.4897    0.0000 H   0  0  0  0  0  0  0  0  0  0  0  0
    4.9684   -2.1141    0.0000 H   0  0  0  0  0  0  0  0  0  0  0  0
    4.3751   -2.6464    0.0000 H   0  0  0  0  0  0  0  0  0  0  0  0
    6.1089   -3.5995    0.0000 H   0  0  0  0  0  0  0  0  0  0  0  0
    6.8665   -3.8471    0.0000 H   0  0  0  0  0  0  0  0  0  0  0  0
    8.1402   -2.7380    0.0000 H   0  0  0  0  0  0  0  0  0  0  0  0
    7.3825   -2.4904    0.0000 H   0  0  0  0  0  0  0  0  0  0  0  0
    8.5139    4.2044    0.0000 H   0  0  0  0  0  0  0  0  0  0  0  0
    5.8819   -4.4890    0.0000 H   0  0  0  0  0  0  0  0  0  0  0  0
    7.8202   -4.2240    0.0000 H   0  0  0  0  0  0  0  0  0  0  0  0
    8.6957   -4.2714    0.0000 H   0  0  0  0  0  0  0  0  0  0  0  0
    8.7431   -3.3959    0.0000 H   0  0  0  0  0  0  0  0  0  0  0  0
    9.0172    5.7443    0.0000 H   0  0  0  0  0  0  0  0  0  0  0  0
   10.6024    6.0784    0.0000 H   0  0  0  0  0  0  0  0  0  0  0  0
    2.8660   -2.8690    0.0000 H   0  0  0  0  0  0  0  0  0  0  0  0
    2.8660   -6.1090    0.0000 H   0  0  0  0  0  0  0  0  0  0  0  0
    1.4631   -3.6790    0.0000 H   0  0  0  0  0  0  0  0  0  0  0  0
    1.4631   -5.2990    0.0000 H   0  0  0  0  0  0  0  0  0  0  0  0
  1 20  1  0  0  0  0
  2 25  1  0  0  0  0
  3 23  1  0  0  0  0
  3 27  1  0  0  0  0
  4  7  1  0  0  0  0
  4  8  1  0  0  0  0
  4  9  1  0  0  0  0
  5 10  1  0  0  0  0
  5 11  1  0  0  0  0
  5 15  1  0  0  0  0
  6 14  1  0  0  0  0
  6 16  1  0  0  0  0
  6 17  1  0  0  0  0
  7 10  1  0  0  0  0
  7 33  1  0  0  0  0
  7 34  1  0  0  0  0
  8 11  1  0  0  0  0
  8 35  1  0  0  0  0
  8 36  1  0  0  0  0
  9 12  1  0  0  0  0
  9 37  1  0  0  0  0
  9 38  1  0  0  0  0
 10 39  1  0  0  0  0
 10 40  1  0  0  0  0
 11 41  1  0  0  0  0
 11 42  1  0  0  0  0
 12 13  1  0  0  0  0
 12 43  1  0  0  0  0
 12 44  1  0  0  0  0
 13 14  1  0  0  0  0
 13 45  1  0  0  0  0
 13 46  1  0  0  0  0
 14 47  1  0  0  0  0
 14 48  1  0  0  0  0
 15 20  2  0  0  0  0
 15 21  1  0  0  0  0
 16 18  1  0  0  0  0
 16 49  1  0  0  0  0
 16 50  1  0  0  0  0
 17 19  1  0  0  0  0
 17 51  1  0  0  0  0
 17 52  1  0  0  0  0
 18 22  1  0  0  0  0
 18 23  2  0  0  0  0
 19 24  1  0  0  0  0
 19 53  1  0  0  0  0
 19 54  1  0  0  0  0
 20 25  1  0  0  0  0
 21 26  2  0  0  0  0
 21 55  1  0  0  0  0
 22 27  1  0  0  0  0
 22 29  2  0  0  0  0
 23 56  1  0  0  0  0
 24 57  1  0  0  0  0
 24 58  1  0  0  0  0
 24 59  1  0  0  0  0
 25 28  2  0  0  0  0
 26 28  1  0  0  0  0
 26 60  1  0  0  0  0
 27 30  2  0  0  0  0
 28 61  1  0  0  0  0
 29 31  1  0  0  0  0
 29 62  1  0  0  0  0
 30 32  1  0  0  0  0
 30 63  1  0  0  0  0
 31 32  2  0  0  0  0
 31 64  1  0  0  0  0
 32 65  1  0  0  0  0
M  END
> <PUBCHEM_COMPOUND_CID>
54580387

> <PUBCHEM_COMPOUND_CANONICALIZED>
1

> <PUBCHEM_CACTVS_COMPLEXITY>
545

> <PUBCHEM_CACTVS_HBOND_ACCEPTOR>
4

> <PUBCHEM_CACTVS_HBOND_DONOR>
0

> <PUBCHEM_CACTVS_ROTATABLE_BOND>
10

> <PUBCHEM_CACTVS_SUBSKEYS>
AAADcfB7AABGAAAAAAAAAAAAAAAAASAAAAA8YIAAAAAAAEgB9AAAHAYAAAAADArFWCSywcMAAAiEAiRCQACDAIAhDxBIilgIZogIYCLhk5HUIAhggADoyAcQgMAOgAAAAAIEABQAAAAABAgAKAAAAAAAAA==

> <PUBCHEM_IUPAC_OPENEYE_NAME>
N-(benzothiophen-3-ylmethyl)-4-[4-(2,3-dichlorophenyl)piperazin-1-yl]-N-propyl-butan-1-amine

> <PUBCHEM_IUPAC_CAS_NAME>
N-(1-benzothiophen-3-ylmethyl)-4-[4-(2,3-dichlorophenyl)-1-piperazinyl]-N-propyl-1-butanamine

> <PUBCHEM_IUPAC_NAME_MARKUP>
<I>N</I>-(1-benzothiophen-3-ylmethyl)-4-[4-(2,3-dichlorophenyl)piperazin-1-yl]-<I>N</I>-propylbutan-1-amine

> <PUBCHEM_IUPAC_NAME>
N-(1-benzothiophen-3-ylmethyl)-4-[4-(2,3-dichlorophenyl)piperazin-1-yl]-N-propylbutan-1-amine

> <PUBCHEM_IUPAC_SYSTEMATIC_NAME>
N-(1-benzothiophen-3-ylmethyl)-4-[4-[2,3-bis(chloranyl)phenyl]piperazin-1-yl]-N-propyl-butan-1-amine

> <PUBCHEM_IUPAC_TRADITIONAL_NAME>
benzothiophen-3-ylmethyl-[4-[4-(2,3-dichlorophenyl)piperazino]butyl]-propyl-amine

> <PUBCHEM_IUPAC_INCHI>
InChI=1S/C26H33Cl2N3S/c1-2-12-30(19-21-20-32-25-11-4-3-8-22(21)25)14-6-5-13-29-15-17-31(18-16-29)24-10-7-9-23(27)26(24)28/h3-4,7-11,20H,2,5-6,12-19H2,1H3

> <PUBCHEM_IUPAC_INCHIKEY>
JHMYLCCZLFZGNF-UHFFFAOYSA-N

> <PUBCHEM_XLOGP3_AA>
7.3

> <PUBCHEM_EXACT_MASS>
489.1772246

> <PUBCHEM_MOLECULAR_FORMULA>
C26H33Cl2N3S

> <PUBCHEM_MOLECULAR_WEIGHT>
490.5

> <PUBCHEM_OPENEYE_CAN_SMILES>
CCCN(CCCCN1CCN(CC1)C2=C(C(=CC=C2)Cl)Cl)CC3=CSC4=CC=CC=C43

> <PUBCHEM_OPENEYE_ISO_SMILES>
CCCN(CCCCN1CCN(CC1)C2=C(C(=CC=C2)Cl)Cl)CC3=CSC4=CC=CC=C43

> <PUBCHEM_CACTVS_TPSA>
38

> <PUBCHEM_MONOISOTOPIC_WEIGHT>
489.1772246

> <PUBCHEM_TOTAL_CHARGE>
0

> <PUBCHEM_HEAVY_ATOM_COUNT>
32

> <PUBCHEM_ATOM_DEF_STEREO_COUNT>
0

> <PUBCHEM_ATOM_UDEF_STEREO_COUNT>
0

> <PUBCHEM_BOND_DEF_STEREO_COUNT>
0

> <PUBCHEM_BOND_UDEF_STEREO_COUNT>
0

> <PUBCHEM_ISOTOPIC_ATOM_COUNT>
0

> <PUBCHEM_COMPONENT_COUNT>
1

> <PUBCHEM_CACTVS_TAUTO_COUNT>
-1

> <PUBCHEM_COORDINATE_TYPE>
1
5
255

> <PUBCHEM_BONDANNOTATIONS>
15  20  8
15  21  8
18  22  8
18  23  8
20  25  8
21  26  8
22  27  8
22  29  8
25  28  8
26  28  8
27  30  8
29  31  8
3  23  8
3  27  8
30  32  8
31  32  8

$$$$
