11575799
  -OEChem-09292322282D

 42 45  0     0  0  0  0  0  0999 V2000
    2.0000    3.5311    0.0000 Br  0  0  0  0  0  0  0  0  0  0  0  0
    8.6279   -3.5311    0.0000 Cl  0  0  0  0  0  0  0  0  0  0  0  0
   10.6279   -3.5311    0.0000 Cl  0  0  0  0  0  0  0  0  0  0  0  0
    7.6279    1.6651    0.0000 N   0  0  0  0  0  0  0  0  0  0  0  0
    8.6279   -0.0670    0.0000 N   0  0  0  0  0  0  0  0  0  0  0  0
    4.5981    3.0311    0.0000 N   0  0  0  0  0  0  0  0  0  0  0  0
    5.5443    1.7264    0.0000 N   0  0  0  0  0  0  0  0  0  0  0  0
    7.1279    0.7990    0.0000 C   0  0  0  0  0  0  0  0  0  0  0  0
    8.6279    1.6651    0.0000 C   0  0  0  0  0  0  0  0  0  0  0  0
    7.6279   -0.0670    0.0000 C   0  0  0  0  0  0  0  0  0  0  0  0
    9.1279    0.7990    0.0000 C   0  0  0  0  0  0  0  0  0  0  0  0
    7.1279    2.5311    0.0000 C   0  0  0  0  0  0  0  0  0  0  0  0
    9.1279   -0.9330    0.0000 C   0  0  0  0  0  0  0  0  0  0  0  0
    6.1279    2.5311    0.0000 C   0  0  0  0  0  0  0  0  0  0  0  0
    5.5443    3.3358    0.0000 C   0  0  0  0  0  0  0  0  0  0  0  0
    8.6279   -1.7990    0.0000 C   0  0  0  0  0  0  0  0  0  0  0  0
   10.1279   -0.9330    0.0000 C   0  0  0  0  0  0  0  0  0  0  0  0
    4.5981    2.0311    0.0000 C   0  0  0  0  0  0  0  0  0  0  0  0
    9.1279   -2.6651    0.0000 C   0  0  0  0  0  0  0  0  0  0  0  0
   10.6279   -1.7990    0.0000 C   0  0  0  0  0  0  0  0  0  0  0  0
    3.7320    3.5311    0.0000 C   0  0  0  0  0  0  0  0  0  0  0  0
    3.7320    1.5311    0.0000 C   0  0  0  0  0  0  0  0  0  0  0  0
   10.1279   -2.6651    0.0000 C   0  0  0  0  0  0  0  0  0  0  0  0
    2.8660    3.0311    0.0000 C   0  0  0  0  0  0  0  0  0  0  0  0
    2.8660    2.0311    0.0000 C   0  0  0  0  0  0  0  0  0  0  0  0
    6.6530    1.1976    0.0000 H   0  0  0  0  0  0  0  0  0  0  0  0
    6.6530    0.4005    0.0000 H   0  0  0  0  0  0  0  0  0  0  0  0
    9.2105    1.8771    0.0000 H   0  0  0  0  0  0  0  0  0  0  0  0
    8.5202    2.2756    0.0000 H   0  0  0  0  0  0  0  0  0  0  0  0
    7.0453   -0.2790    0.0000 H   0  0  0  0  0  0  0  0  0  0  0  0
    7.7356   -0.6776    0.0000 H   0  0  0  0  0  0  0  0  0  0  0  0
    9.6028    0.4005    0.0000 H   0  0  0  0  0  0  0  0  0  0  0  0
    9.6028    1.1976    0.0000 H   0  0  0  0  0  0  0  0  0  0  0  0
    7.7105    2.7431    0.0000 H   0  0  0  0  0  0  0  0  0  0  0  0
    7.0202    3.1417    0.0000 H   0  0  0  0  0  0  0  0  0  0  0  0
    5.7369    3.9251    0.0000 H   0  0  0  0  0  0  0  0  0  0  0  0
    8.0079   -1.7990    0.0000 H   0  0  0  0  0  0  0  0  0  0  0  0
   10.4379   -0.3961    0.0000 H   0  0  0  0  0  0  0  0  0  0  0  0
   11.2479   -1.7990    0.0000 H   0  0  0  0  0  0  0  0  0  0  0  0
    3.7320    4.1511    0.0000 H   0  0  0  0  0  0  0  0  0  0  0  0
    3.7320    0.9111    0.0000 H   0  0  0  0  0  0  0  0  0  0  0  0
    2.3291    1.7211    0.0000 H   0  0  0  0  0  0  0  0  0  0  0  0
  1 24  1  0  0  0  0
  2 19  1  0  0  0  0
  3 23  1  0  0  0  0
  4  8  1  0  0  0  0
  4  9  1  0  0  0  0
  4 12  1  0  0  0  0
  5 10  1  0  0  0  0
  5 11  1  0  0  0  0
  5 13  1  0  0  0  0
  6 15  1  0  0  0  0
  6 18  1  0  0  0  0
  6 21  1  0  0  0  0
  7 14  1  0  0  0  0
  7 18  2  0  0  0  0
  8 10  1  0  0  0  0
  8 26  1  0  0  0  0
  8 27  1  0  0  0  0
  9 11  1  0  0  0  0
  9 28  1  0  0  0  0
  9 29  1  0  0  0  0
 10 30  1  0  0  0  0
 10 31  1  0  0  0  0
 11 32  1  0  0  0  0
 11 33  1  0  0  0  0
 12 14  1  0  0  0  0
 12 34  1  0  0  0  0
 12 35  1  0  0  0  0
 13 16  2  0  0  0  0
 13 17  1  0  0  0  0
 14 15  2  0  0  0  0
 15 36  1  0  0  0  0
 16 19  1  0  0  0  0
 16 37  1  0  0  0  0
 17 20  2  0  0  0  0
 17 38  1  0  0  0  0
 18 22  1  0  0  0  0
 19 23  2  0  0  0  0
 20 23  1  0  0  0  0
 20 39  1  0  0  0  0
 21 24  2  0  0  0  0
 21 40  1  0  0  0  0
 22 25  2  0  0  0  0
 22 41  1  0  0  0  0
 24 25  1  0  0  0  0
 25 42  1  0  0  0  0
M  END
> <PUBCHEM_COMPOUND_CID>
11575799

> <PUBCHEM_COMPOUND_CANONICALIZED>
1

> <PUBCHEM_CACTVS_COMPLEXITY>
449

> <PUBCHEM_CACTVS_HBOND_ACCEPTOR>
3

> <PUBCHEM_CACTVS_HBOND_DONOR>
0

> <PUBCHEM_CACTVS_ROTATABLE_BOND>
3

> <PUBCHEM_CACTVS_SUBSKEYS>
AAADceB7gAAGEAAAAAAAAAAAAAAAAWAAAAA8WIAAAAAAAFgB8AAAHAJAAAABqArBFyQ98J8MGACgATZnZACCgC0xF6QJ2mA4driIaOLB25GUIAhogALIyjcQAAAAAABAAAIAAAQAAIAABAAACAAAAAAAAA==

> <PUBCHEM_IUPAC_OPENEYE_NAME>
6-bromo-2-[[4-(3,4-dichlorophenyl)piperazin-1-yl]methyl]imidazo[1,2-a]pyridine

> <PUBCHEM_IUPAC_CAS_NAME>
6-bromo-2-[[4-(3,4-dichlorophenyl)-1-piperazinyl]methyl]imidazo[1,2-a]pyridine

> <PUBCHEM_IUPAC_NAME_MARKUP>
6-bromo-2-[[4-(3,4-dichlorophenyl)piperazin-1-yl]methyl]imidazo[1,2-a]pyridine

> <PUBCHEM_IUPAC_NAME>
6-bromo-2-[[4-(3,4-dichlorophenyl)piperazin-1-yl]methyl]imidazo[1,2-a]pyridine

> <PUBCHEM_IUPAC_SYSTEMATIC_NAME>
6-bromanyl-2-[[4-(3,4-dichlorophenyl)piperazin-1-yl]methyl]imidazo[1,2-a]pyridine

> <PUBCHEM_IUPAC_TRADITIONAL_NAME>
6-bromo-2-[[4-(3,4-dichlorophenyl)piperazino]methyl]imidazo[1,2-a]pyridine

> <PUBCHEM_IUPAC_INCHI>
InChI=1S/C18H17BrCl2N4/c19-13-1-4-18-22-14(12-25(18)10-13)11-23-5-7-24(8-6-23)15-2-3-16(20)17(21)9-15/h1-4,9-10,12H,5-8,11H2

> <PUBCHEM_IUPAC_INCHIKEY>
RGMLMPPJETZGOG-UHFFFAOYSA-N

> <PUBCHEM_XLOGP3_AA>
5.2

> <PUBCHEM_EXACT_MASS>
438.00136

> <PUBCHEM_MOLECULAR_FORMULA>
C18H17BrCl2N4

> <PUBCHEM_MOLECULAR_WEIGHT>
440.2

> <PUBCHEM_OPENEYE_CAN_SMILES>
C1CN(CCN1CC2=CN3C=C(C=CC3=N2)Br)C4=CC(=C(C=C4)Cl)Cl

> <PUBCHEM_OPENEYE_ISO_SMILES>
C1CN(CCN1CC2=CN3C=C(C=CC3=N2)Br)C4=CC(=C(C=C4)Cl)Cl

> <PUBCHEM_CACTVS_TPSA>
23.8

> <PUBCHEM_MONOISOTOPIC_WEIGHT>
438.00136

> <PUBCHEM_TOTAL_CHARGE>
0

> <PUBCHEM_HEAVY_ATOM_COUNT>
25

> <PUBCHEM_ATOM_DEF_STEREO_COUNT>
0

> <PUBCHEM_ATOM_UDEF_STEREO_COUNT>
0

> <PUBCHEM_BOND_DEF_STEREO_COUNT>
0

> <PUBCHEM_BOND_UDEF_STEREO_COUNT>
0

> <PUBCHEM_ISOTOPIC_ATOM_COUNT>
0

> <PUBCHEM_COMPONENT_COUNT>
1

> <PUBCHEM_CACTVS_TAUTO_COUNT>
-1

> <PUBCHEM_COORDINATE_TYPE>
1
5
255

> <PUBCHEM_BONDANNOTATIONS>
13  16  8
13  17  8
14  15  8
16  19  8
17  20  8
18  22  8
19  23  8
20  23  8
21  24  8
22  25  8
24  25  8
6  15  8
6  18  8
6  21  8
7  14  8
7  18  8

$$$$
