137635157
  -OEChem-09292322002D

 69 72  0     1  0  0  0  0  0999 V2000
    4.8714   -1.6895    0.0000 O   0  0  0  0  0  0  0  0  0  0  0  0
    2.6166    1.8126    0.0000 O   0  0  0  0  0  0  0  0  0  0  0  0
    4.6660   -3.4351    0.0000 N   0  0  0  0  0  0  0  0  0  0  0  0
    3.3073   -2.4912    0.0000 N   0  0  0  0  0  0  0  0  0  0  0  0
    6.3981   -5.4351    0.0000 N   0  0  0  0  0  0  0  0  0  0  0  0
    5.5321   -4.9351    0.0000 C   0  0  1  0  0  0  0  0  0  0  0  0
    5.5321   -3.9351    0.0000 C   0  0  0  0  0  0  0  0  0  0  0  0
    3.8000   -3.9351    0.0000 C   0  0  0  0  0  0  0  0  0  0  0  0
    4.6660   -5.4351    0.0000 C   0  0  0  0  0  0  0  0  0  0  0  0
    3.8000   -4.9351    0.0000 C   0  0  0  0  0  0  0  0  0  0  0  0
    2.9061   -3.4004    0.0000 C   0  0  0  0  0  0  0  0  0  0  0  0
    4.3009   -2.5108    0.0000 C   0  0  0  0  0  0  0  0  0  0  0  0
    2.7696   -1.6481    0.0000 C   0  0  0  0  0  0  0  0  0  0  0  0
    2.9061   -5.4698    0.0000 C   0  0  0  0  0  0  0  0  0  0  0  0
    2.0000   -3.9143    0.0000 C   0  0  0  0  0  0  0  0  0  0  0  0
    3.2308   -0.7609    0.0000 C   0  0  0  0  0  0  0  0  0  0  0  0
    6.3981   -6.4351    0.0000 C   0  0  0  0  0  0  0  0  0  0  0  0
    2.0000   -4.9559    0.0000 C   0  0  0  0  0  0  0  0  0  0  0  0
    2.6931    0.0823    0.0000 C   0  0  0  0  0  0  0  0  0  0  0  0
    7.2641   -6.9351    0.0000 C   0  0  0  0  0  0  0  0  0  0  0  0
    3.1544    0.9695    0.0000 C   0  0  0  0  0  0  0  0  0  0  0  0
    7.2641   -7.9351    0.0000 C   0  0  0  0  0  0  0  0  0  0  0  0
    3.0779    2.6999    0.0000 C   0  0  0  0  0  0  0  0  0  0  0  0
    2.5401    3.5430    0.0000 C   0  0  0  0  0  0  0  0  0  0  0  0
    3.0014    4.4302    0.0000 C   0  0  0  0  0  0  0  0  0  0  0  0
    2.4637    5.2733    0.0000 C   0  0  0  0  0  0  0  0  0  0  0  0
    2.9250    6.1606    0.0000 C   0  0  0  0  0  0  0  0  0  0  0  0
    2.3872    7.0037    0.0000 C   0  0  0  0  0  0  0  0  0  0  0  0
    3.9240    6.2047    0.0000 C   0  0  0  0  0  0  0  0  0  0  0  0
    2.8485    7.8910    0.0000 C   0  0  0  0  0  0  0  0  0  0  0  0
    4.3853    7.0920    0.0000 C   0  0  0  0  0  0  0  0  0  0  0  0
    3.8475    7.9351    0.0000 C   0  0  0  0  0  0  0  0  0  0  0  0
    5.5321   -5.5551    0.0000 H   0  0  0  0  0  0  0  0  0  0  0  0
    6.1426   -4.0428    0.0000 H   0  0  0  0  0  0  0  0  0  0  0  0
    5.7441   -3.3525    0.0000 H   0  0  0  0  0  0  0  0  0  0  0  0
    4.2675   -5.9100    0.0000 H   0  0  0  0  0  0  0  0  0  0  0  0
    5.0646   -5.9100    0.0000 H   0  0  0  0  0  0  0  0  0  0  0  0
    6.9350   -5.1251    0.0000 H   0  0  0  0  0  0  0  0  0  0  0  0
    2.2775   -1.2709    0.0000 H   0  0  0  0  0  0  0  0  0  0  0  0
    2.3127   -2.0672    0.0000 H   0  0  0  0  0  0  0  0  0  0  0  0
    2.9132   -6.0897    0.0000 H   0  0  0  0  0  0  0  0  0  0  0  0
    1.4643   -3.6022    0.0000 H   0  0  0  0  0  0  0  0  0  0  0  0
    3.7229   -1.1380    0.0000 H   0  0  0  0  0  0  0  0  0  0  0  0
    3.6877   -0.3417    0.0000 H   0  0  0  0  0  0  0  0  0  0  0  0
    5.7875   -6.3274    0.0000 H   0  0  0  0  0  0  0  0  0  0  0  0
    6.1860   -7.0177    0.0000 H   0  0  0  0  0  0  0  0  0  0  0  0
    1.4643   -5.2680    0.0000 H   0  0  0  0  0  0  0  0  0  0  0  0
    2.2010    0.4594    0.0000 H   0  0  0  0  0  0  0  0  0  0  0  0
    2.2362   -0.3369    0.0000 H   0  0  0  0  0  0  0  0  0  0  0  0
    7.8747   -7.0428    0.0000 H   0  0  0  0  0  0  0  0  0  0  0  0
    7.4762   -6.3525    0.0000 H   0  0  0  0  0  0  0  0  0  0  0  0
    3.6464    0.5923    0.0000 H   0  0  0  0  0  0  0  0  0  0  0  0
    3.6112    1.3886    0.0000 H   0  0  0  0  0  0  0  0  0  0  0  0
    6.6441   -7.9351    0.0000 H   0  0  0  0  0  0  0  0  0  0  0  0
    7.2641   -8.5551    0.0000 H   0  0  0  0  0  0  0  0  0  0  0  0
    7.8841   -7.9351    0.0000 H   0  0  0  0  0  0  0  0  0  0  0  0
    3.5700    2.3227    0.0000 H   0  0  0  0  0  0  0  0  0  0  0  0
    3.5348    3.1190    0.0000 H   0  0  0  0  0  0  0  0  0  0  0  0
    2.0481    3.9202    0.0000 H   0  0  0  0  0  0  0  0  0  0  0  0
    2.0832    3.1239    0.0000 H   0  0  0  0  0  0  0  0  0  0  0  0
    3.4935    4.0531    0.0000 H   0  0  0  0  0  0  0  0  0  0  0  0
    3.4583    4.8493    0.0000 H   0  0  0  0  0  0  0  0  0  0  0  0
    1.9716    5.6505    0.0000 H   0  0  0  0  0  0  0  0  0  0  0  0
    2.0068    4.8542    0.0000 H   0  0  0  0  0  0  0  0  0  0  0  0
    1.7678    6.9763    0.0000 H   0  0  0  0  0  0  0  0  0  0  0  0
    4.2574    5.6820    0.0000 H   0  0  0  0  0  0  0  0  0  0  0  0
    2.5151    8.4137    0.0000 H   0  0  0  0  0  0  0  0  0  0  0  0
    5.0047    7.1194    0.0000 H   0  0  0  0  0  0  0  0  0  0  0  0
    4.1335    8.4852    0.0000 H   0  0  0  0  0  0  0  0  0  0  0  0
  1 12  2  0  0  0  0
  2 21  1  0  0  0  0
  2 23  1  0  0  0  0
  3  7  1  0  0  0  0
  3  8  1  0  0  0  0
  3 12  1  0  0  0  0
  4 11  1  0  0  0  0
  4 12  1  0  0  0  0
  4 13  1  0  0  0  0
  6  5  1  6  0  0  0
  5 17  1  0  0  0  0
  5 38  1  0  0  0  0
  6  7  1  0  0  0  0
  6  9  1  0  0  0  0
  6 33  1  0  0  0  0
  7 34  1  0  0  0  0
  7 35  1  0  0  0  0
  8 10  2  0  0  0  0
  8 11  1  0  0  0  0
  9 10  1  0  0  0  0
  9 36  1  0  0  0  0
  9 37  1  0  0  0  0
 10 14  1  0  0  0  0
 11 15  2  0  0  0  0
 13 16  1  0  0  0  0
 13 39  1  0  0  0  0
 13 40  1  0  0  0  0
 14 18  2  0  0  0  0
 14 41  1  0  0  0  0
 15 18  1  0  0  0  0
 15 42  1  0  0  0  0
 16 19  1  0  0  0  0
 16 43  1  0  0  0  0
 16 44  1  0  0  0  0
 17 20  1  0  0  0  0
 17 45  1  0  0  0  0
 17 46  1  0  0  0  0
 18 47  1  0  0  0  0
 19 21  1  0  0  0  0
 19 48  1  0  0  0  0
 19 49  1  0  0  0  0
 20 22  1  0  0  0  0
 20 50  1  0  0  0  0
 20 51  1  0  0  0  0
 21 52  1  0  0  0  0
 21 53  1  0  0  0  0
 22 54  1  0  0  0  0
 22 55  1  0  0  0  0
 22 56  1  0  0  0  0
 23 24  1  0  0  0  0
 23 57  1  0  0  0  0
 23 58  1  0  0  0  0
 24 25  1  0  0  0  0
 24 59  1  0  0  0  0
 24 60  1  0  0  0  0
 25 26  1  0  0  0  0
 25 61  1  0  0  0  0
 25 62  1  0  0  0  0
 26 27  1  0  0  0  0
 26 63  1  0  0  0  0
 26 64  1  0  0  0  0
 27 28  2  0  0  0  0
 27 29  1  0  0  0  0
 28 30  1  0  0  0  0
 28 65  1  0  0  0  0
 29 31  2  0  0  0  0
 29 66  1  0  0  0  0
 30 32  2  0  0  0  0
 30 67  1  0  0  0  0
 31 32  1  0  0  0  0
 31 68  1  0  0  0  0
 32 69  1  0  0  0  0
M  END
> <PUBCHEM_COMPOUND_CID>
137635157

> <PUBCHEM_COMPOUND_CANONICALIZED>
1

> <PUBCHEM_CACTVS_COMPLEXITY>
565

> <PUBCHEM_CACTVS_HBOND_ACCEPTOR>
3

> <PUBCHEM_CACTVS_HBOND_DONOR>
1

> <PUBCHEM_CACTVS_ROTATABLE_BOND>
13

> <PUBCHEM_CACTVS_SUBSKEYS>
AAADcfB7MAAAAAAAAAAAAAAAAAAAAWAAAAA8YIAAAAAAAFixQAAAHgAQAAAADCjhmAYzwIPABACIAiRCUACCAAAhAgAIiIAIdIiIYCLAkZGWIAhslgLIyCewwLAOAAAAQAACACAAAACAAAQAQAAAAAAAAA==

> <PUBCHEM_IUPAC_OPENEYE_NAME>
(10R)-3-[4-(4-phenylbutoxy)butyl]-10-(propylamino)-1,3-diazatricyclo[6.3.1.04,12]dodeca-4,6,8(12)-trien-2-one

> <PUBCHEM_IUPAC_CAS_NAME>
(10R)-3-[4-(4-phenylbutoxy)butyl]-10-(propylamino)-1,3-diazatricyclo[6.3.1.04,12]dodeca-4,6,8(12)-trien-2-one

> <PUBCHEM_IUPAC_NAME_MARKUP>
(10<I>R</I>)-3-[4-(4-phenylbutoxy)butyl]-10-(propylamino)-1,3-diazatricyclo[6.3.1.0<SUP>4,12</SUP>]dodeca-4,6,8(12)-trien-2-one

> <PUBCHEM_IUPAC_NAME>
(10R)-3-[4-(4-phenylbutoxy)butyl]-10-(propylamino)-1,3-diazatricyclo[6.3.1.04,12]dodeca-4,6,8(12)-trien-2-one

> <PUBCHEM_IUPAC_SYSTEMATIC_NAME>
(10R)-3-[4-(4-phenylbutoxy)butyl]-10-(propylamino)-1,3-diazatricyclo[6.3.1.04,12]dodeca-4,6,8(12)-trien-2-one

> <PUBCHEM_IUPAC_TRADITIONAL_NAME>
(10R)-3-[4-(4-phenylbutoxy)butyl]-10-(propylamino)-1,3-diazatricyclo[6.3.1.04,12]dodeca-4,6,8(12)-trien-2-one

> <PUBCHEM_IUPAC_INCHI>
InChI=1S/C27H37N3O2/c1-2-16-28-24-20-23-14-10-15-25-26(23)30(21-24)27(31)29(25)17-7-9-19-32-18-8-6-13-22-11-4-3-5-12-22/h3-5,10-12,14-15,24,28H,2,6-9,13,16-21H2,1H3/t24-/m1/s1

> <PUBCHEM_IUPAC_INCHIKEY>
HMBLGIYYEVWFCT-XMMPIXPASA-N

> <PUBCHEM_XLOGP3_AA>
4.7

> <PUBCHEM_EXACT_MASS>
435.28857743

> <PUBCHEM_MOLECULAR_FORMULA>
C27H37N3O2

> <PUBCHEM_MOLECULAR_WEIGHT>
435.6

> <PUBCHEM_OPENEYE_CAN_SMILES>
CCCNC1CC2=C3C(=CC=C2)N(C(=O)N3C1)CCCCOCCCCC4=CC=CC=C4

> <PUBCHEM_OPENEYE_ISO_SMILES>
CCCN[C@@H]1CC2=C3C(=CC=C2)N(C(=O)N3C1)CCCCOCCCCC4=CC=CC=C4

> <PUBCHEM_CACTVS_TPSA>
44.8

> <PUBCHEM_MONOISOTOPIC_WEIGHT>
435.28857743

> <PUBCHEM_TOTAL_CHARGE>
0

> <PUBCHEM_HEAVY_ATOM_COUNT>
32

> <PUBCHEM_ATOM_DEF_STEREO_COUNT>
1

> <PUBCHEM_ATOM_UDEF_STEREO_COUNT>
0

> <PUBCHEM_BOND_DEF_STEREO_COUNT>
0

> <PUBCHEM_BOND_UDEF_STEREO_COUNT>
0

> <PUBCHEM_ISOTOPIC_ATOM_COUNT>
0

> <PUBCHEM_COMPONENT_COUNT>
1

> <PUBCHEM_CACTVS_TAUTO_COUNT>
-1

> <PUBCHEM_COORDINATE_TYPE>
1
5
255

> <PUBCHEM_BONDANNOTATIONS>
10  14  8
11  15  8
14  18  8
15  18  8
27  28  8
27  29  8
28  30  8
29  31  8
3  12  8
3  8  8
30  32  8
31  32  8
4  11  8
4  12  8
6  5  6
8  10  8
8  11  8

$$$$
