57383426
  -OEChem-09292321582D

 46 49  0     1  0  0  0  0  0999 V2000
    9.4364   -1.4589    0.0000 S   0  0  3  0  0  0  0  0  0  0  0  0
   10.3703    1.6327    0.0000 O   0  0  0  0  0  0  0  0  0  0  0  0
    9.4364   -2.4589    0.0000 O   0  0  0  0  0  0  0  0  0  0  0  0
    5.3802    0.8439    0.0000 O   0  0  0  0  0  0  0  0  0  0  0  0
    8.9364    0.7317    0.0000 N   0  0  0  0  0  0  0  0  0  0  0  0
    4.8633   -0.8092    0.0000 N   0  0  0  0  0  0  0  0  0  0  0  0
    8.3129   -0.0501    0.0000 C   0  0  0  0  0  0  0  0  0  0  0  0
    8.5354   -1.0250    0.0000 C   0  0  0  0  0  0  0  0  0  0  0  0
   10.5599   -0.0501    0.0000 C   0  0  0  0  0  0  0  0  0  0  0  0
    8.5025    1.6327    0.0000 C   0  0  0  0  0  0  0  0  0  0  0  0
   10.3373   -1.0250    0.0000 C   0  0  0  0  0  0  0  0  0  0  0  0
    9.9364    0.7317    0.0000 C   0  0  0  0  0  0  0  0  0  0  0  0
    7.3224    0.2722    0.0000 C   0  0  0  0  0  0  0  0  0  0  0  0
    6.5534   -0.4303    0.0000 C   0  0  0  0  0  0  0  0  0  0  0  0
    7.7828   -1.7452    0.0000 C   0  0  0  0  0  0  0  0  0  0  0  0
    6.7852   -1.4459    0.0000 C   0  0  0  0  0  0  0  0  0  0  0  0
   11.5504    0.2722    0.0000 C   0  0  0  0  0  0  0  0  0  0  0  0
   11.0899   -1.7452    0.0000 C   0  0  0  0  0  0  0  0  0  0  0  0
    9.0658    2.4589    0.0000 C   0  0  0  0  0  0  0  0  0  0  0  0
    5.5990   -0.1319    0.0000 C   0  0  0  0  0  0  0  0  0  0  0  0
   12.3194   -0.4304    0.0000 C   0  0  0  0  0  0  0  0  0  0  0  0
   12.0876   -1.4459    0.0000 C   0  0  0  0  0  0  0  0  0  0  0  0
    3.9088   -0.5108    0.0000 C   0  0  0  0  0  0  0  0  0  0  0  0
    3.1732   -1.1881    0.0000 C   0  0  0  0  0  0  0  0  0  0  0  0
    3.6901    0.4650    0.0000 C   0  0  0  0  0  0  0  0  0  0  0  0
    2.2188   -0.8897    0.0000 C   0  0  0  0  0  0  0  0  0  0  0  0
    2.7357    0.7634    0.0000 C   0  0  0  0  0  0  0  0  0  0  0  0
    2.0000    0.0861    0.0000 C   0  0  0  0  0  0  0  0  0  0  0  0
    8.0587    2.0656    0.0000 H   0  0  0  0  0  0  0  0  0  0  0  0
    7.9991    1.2708    0.0000 H   0  0  0  0  0  0  0  0  0  0  0  0
    7.1914    0.8782    0.0000 H   0  0  0  0  0  0  0  0  0  0  0  0
    7.9278   -2.3480    0.0000 H   0  0  0  0  0  0  0  0  0  0  0  0
    6.3323   -1.8693    0.0000 H   0  0  0  0  0  0  0  0  0  0  0  0
   11.6813    0.8782    0.0000 H   0  0  0  0  0  0  0  0  0  0  0  0
   10.9450   -2.3481    0.0000 H   0  0  0  0  0  0  0  0  0  0  0  0
    9.5781    2.1097    0.0000 H   0  0  0  0  0  0  0  0  0  0  0  0
    9.4151    2.9712    0.0000 H   0  0  0  0  0  0  0  0  0  0  0  0
    8.5536    2.8082    0.0000 H   0  0  0  0  0  0  0  0  0  0  0  0
   12.9111   -0.2454    0.0000 H   0  0  0  0  0  0  0  0  0  0  0  0
   12.5405   -1.8694    0.0000 H   0  0  0  0  0  0  0  0  0  0  0  0
    4.9989   -1.4142    0.0000 H   0  0  0  0  0  0  0  0  0  0  0  0
    3.3088   -1.7931    0.0000 H   0  0  0  0  0  0  0  0  0  0  0  0
    4.1462    0.8849    0.0000 H   0  0  0  0  0  0  0  0  0  0  0  0
    1.7626   -1.3096    0.0000 H   0  0  0  0  0  0  0  0  0  0  0  0
    2.6000    1.3684    0.0000 H   0  0  0  0  0  0  0  0  0  0  0  0
    1.4083    0.2711    0.0000 H   0  0  0  0  0  0  0  0  0  0  0  0
  1  3  2  0  0  0  0
  1  8  1  0  0  0  0
  1 11  1  0  0  0  0
  2 12  2  0  0  0  0
  4 20  2  0  0  0  0
  5  7  1  0  0  0  0
  5 10  1  0  0  0  0
  5 12  1  0  0  0  0
  6 20  1  0  0  0  0
  6 23  1  0  0  0  0
  6 41  1  0  0  0  0
  7  8  2  0  0  0  0
  7 13  1  0  0  0  0
  8 15  1  0  0  0  0
  9 11  1  0  0  0  0
  9 12  1  0  0  0  0
  9 17  2  0  0  0  0
 10 19  1  0  0  0  0
 10 29  1  0  0  0  0
 10 30  1  0  0  0  0
 11 18  2  0  0  0  0
 13 14  2  0  0  0  0
 13 31  1  0  0  0  0
 14 16  1  0  0  0  0
 14 20  1  0  0  0  0
 15 16  2  0  0  0  0
 15 32  1  0  0  0  0
 16 33  1  0  0  0  0
 17 21  1  0  0  0  0
 17 34  1  0  0  0  0
 18 22  1  0  0  0  0
 18 35  1  0  0  0  0
 19 36  1  0  0  0  0
 19 37  1  0  0  0  0
 19 38  1  0  0  0  0
 21 22  2  0  0  0  0
 21 39  1  0  0  0  0
 22 40  1  0  0  0  0
 23 24  2  0  0  0  0
 23 25  1  0  0  0  0
 24 26  1  0  0  0  0
 24 42  1  0  0  0  0
 25 27  2  0  0  0  0
 25 43  1  0  0  0  0
 26 28  2  0  0  0  0
 26 44  1  0  0  0  0
 27 28  1  0  0  0  0
 27 45  1  0  0  0  0
 28 46  1  0  0  0  0
M  END
> <PUBCHEM_COMPOUND_CID>
57383426

> <PUBCHEM_COMPOUND_CANONICALIZED>
1

> <PUBCHEM_CACTVS_COMPLEXITY>
619

> <PUBCHEM_CACTVS_HBOND_ACCEPTOR>
4

> <PUBCHEM_CACTVS_HBOND_DONOR>
1

> <PUBCHEM_CACTVS_ROTATABLE_BOND>
3

> <PUBCHEM_CACTVS_SUBSKEYS>
AAADceB7MABAAAAAAAAAAAAAAAAAAAAAAAAwYMAABYAAAAABUAAAHgQQAAAADAjB2AQywYPAAAqIAiVSUEDCAAAlChAIiB0IZMgIIDLglZGEIQhglgDoyYcciACOEAAAQAAEAQAgAACAAAgCAAAAAAAAAA==

> <PUBCHEM_IUPAC_OPENEYE_NAME>
5-ethyl-6,11-dioxo-N-phenyl-benzo[b][1,4]benzothiazepine-3-carboxamide

> <PUBCHEM_IUPAC_CAS_NAME>
5-ethyl-6,11-dioxo-N-phenyl-3-benzo[b][1,4]benzothiazepinecarboxamide

> <PUBCHEM_IUPAC_NAME_MARKUP>
5-ethyl-6,11-dioxo-<I>N</I>-phenylbenzo[b][1,4]benzothiazepine-3-carboxamide

> <PUBCHEM_IUPAC_NAME>
5-ethyl-6,11-dioxo-N-phenylbenzo[b][1,4]benzothiazepine-3-carboxamide

> <PUBCHEM_IUPAC_SYSTEMATIC_NAME>
5-ethyl-6,11-bis(oxidanylidene)-N-phenyl-benzo[b][1,4]benzothiazepine-3-carboxamide

> <PUBCHEM_IUPAC_TRADITIONAL_NAME>
5-ethyl-6,11-diketo-N-phenyl-benzo[b][1,4]benzothiazepine-3-carboxamide

> <PUBCHEM_IUPAC_INCHI>
InChI=1S/C22H18N2O3S/c1-2-24-18-14-15(21(25)23-16-8-4-3-5-9-16)12-13-20(18)28(27)19-11-7-6-10-17(19)22(24)26/h3-14H,2H2,1H3,(H,23,25)

> <PUBCHEM_IUPAC_INCHIKEY>
HPMKECMYBOYYGF-UHFFFAOYSA-N

> <PUBCHEM_XLOGP3_AA>
3

> <PUBCHEM_EXACT_MASS>
390.10381361

> <PUBCHEM_MOLECULAR_FORMULA>
C22H18N2O3S

> <PUBCHEM_MOLECULAR_WEIGHT>
390.5

> <PUBCHEM_OPENEYE_CAN_SMILES>
CCN1C2=C(C=CC(=C2)C(=O)NC3=CC=CC=C3)S(=O)C4=CC=CC=C4C1=O

> <PUBCHEM_OPENEYE_ISO_SMILES>
CCN1C2=C(C=CC(=C2)C(=O)NC3=CC=CC=C3)S(=O)C4=CC=CC=C4C1=O

> <PUBCHEM_CACTVS_TPSA>
85.7

> <PUBCHEM_MONOISOTOPIC_WEIGHT>
390.10381361

> <PUBCHEM_TOTAL_CHARGE>
0

> <PUBCHEM_HEAVY_ATOM_COUNT>
28

> <PUBCHEM_ATOM_DEF_STEREO_COUNT>
0

> <PUBCHEM_ATOM_UDEF_STEREO_COUNT>
1

> <PUBCHEM_BOND_DEF_STEREO_COUNT>
0

> <PUBCHEM_BOND_UDEF_STEREO_COUNT>
0

> <PUBCHEM_ISOTOPIC_ATOM_COUNT>
0

> <PUBCHEM_COMPONENT_COUNT>
1

> <PUBCHEM_CACTVS_TAUTO_COUNT>
-1

> <PUBCHEM_COORDINATE_TYPE>
1
5
255

> <PUBCHEM_BONDANNOTATIONS>
1  11  3
11  18  8
13  14  8
14  16  8
15  16  8
17  21  8
18  22  8
21  22  8
23  24  8
23  25  8
24  26  8
25  27  8
26  28  8
27  28  8
7  13  8
7  8  8
8  15  8
9  11  8
9  17  8

$$$$
