126534678
  -OEChem-09292322372D

 61 65  0     1  0  0  0  0  0999 V2000
   11.3153    2.9760    0.0000 S   0  0  0  0  0  0  0  0  0  0  0  0
    2.6420   -3.7851    0.0000 F   0  0  0  0  0  0  0  0  0  0  0  0
    2.0000   -2.5250    0.0000 F   0  0  0  0  0  0  0  0  0  0  0  0
    3.9021   -3.1430    0.0000 F   0  0  0  0  0  0  0  0  0  0  0  0
    3.2601   -1.8830    0.0000 O   0  0  0  0  0  0  0  0  0  0  0  0
    5.8344    0.4350    0.0000 N   0  0  3  0  0  0  0  0  0  0  0  0
    8.3153    1.2440    0.0000 N   0  0  3  0  0  0  0  0  0  0  0  0
   12.9031    2.1670    0.0000 N   0  0  0  0  0  0  0  0  0  0  0  0
   12.9031    3.7851    0.0000 N   0  0  0  0  0  0  0  0  0  0  0  0
   13.8541    3.4760    0.0000 N   0  0  0  0  0  0  0  0  0  0  0  0
   15.5767    2.2950    0.0000 N   0  0  0  0  0  0  0  0  0  0  0  0
   15.3676    0.3060    0.0000 N   0  0  0  0  0  0  0  0  0  0  0  0
    6.7855    1.7440    0.0000 C   0  0  3  0  0  0  0  0  0  0  0  0
    6.7855    0.7440    0.0000 C   0  0  3  0  0  0  0  0  0  0  0  0
    7.7317    2.0487    0.0000 C   0  0  0  0  0  0  0  0  0  0  0  0
    5.8344    2.0530    0.0000 C   0  0  0  0  0  0  0  0  0  0  0  0
    7.7317    0.4393    0.0000 C   0  0  0  0  0  0  0  0  0  0  0  0
    5.2466    1.2440    0.0000 C   0  0  0  0  0  0  0  0  0  0  0  0
    9.3153    1.2440    0.0000 C   0  0  0  0  0  0  0  0  0  0  0  0
    5.5254   -0.5161    0.0000 C   0  0  0  0  0  0  0  0  0  0  0  0
    9.8153    2.1100    0.0000 C   0  0  0  0  0  0  0  0  0  0  0  0
    4.5472   -0.7240    0.0000 C   0  0  0  0  0  0  0  0  0  0  0  0
    6.1945   -1.2592    0.0000 C   0  0  0  0  0  0  0  0  0  0  0  0
   10.8153    2.1100    0.0000 C   0  0  0  0  0  0  0  0  0  0  0  0
    4.2382   -1.6750    0.0000 C   0  0  0  0  0  0  0  0  0  0  0  0
    5.8855   -2.2103    0.0000 C   0  0  0  0  0  0  0  0  0  0  0  0
    4.9074   -2.4182    0.0000 C   0  0  0  0  0  0  0  0  0  0  0  0
   12.3153    2.9760    0.0000 C   0  0  0  0  0  0  0  0  0  0  0  0
    2.9511   -2.8340    0.0000 C   0  0  0  0  0  0  0  0  0  0  0  0
   13.8541    2.4760    0.0000 C   0  0  0  0  0  0  0  0  0  0  0  0
   12.5941    1.2160    0.0000 C   0  0  0  0  0  0  0  0  0  0  0  0
   14.6631    1.8883    0.0000 C   0  0  0  0  0  0  0  0  0  0  0  0
   14.5586    0.8937    0.0000 C   0  0  0  0  0  0  0  0  0  0  0  0
   16.3857    1.7072    0.0000 C   0  0  0  0  0  0  0  0  0  0  0  0
   16.2812    0.7127    0.0000 C   0  0  0  0  0  0  0  0  0  0  0  0
    6.7863    2.3640    0.0000 H   0  0  0  0  0  0  0  0  0  0  0  0
    6.7863    0.1240    0.0000 H   0  0  0  0  0  0  0  0  0  0  0  0
    8.2691    2.3580    0.0000 H   0  0  0  0  0  0  0  0  0  0  0  0
    7.4806    2.6156    0.0000 H   0  0  0  0  0  0  0  0  0  0  0  0
    6.0866    2.6194    0.0000 H   0  0  0  0  0  0  0  0  0  0  0  0
    5.2975    2.3630    0.0000 H   0  0  0  0  0  0  0  0  0  0  0  0
    7.4806   -0.1276    0.0000 H   0  0  0  0  0  0  0  0  0  0  0  0
    8.2691    0.1300    0.0000 H   0  0  0  0  0  0  0  0  0  0  0  0
    4.7859    1.6589    0.0000 H   0  0  0  0  0  0  0  0  0  0  0  0
    4.7859    0.8291    0.0000 H   0  0  0  0  0  0  0  0  0  0  0  0
    9.2076    0.6334    0.0000 H   0  0  0  0  0  0  0  0  0  0  0  0
    9.8979    1.0320    0.0000 H   0  0  0  0  0  0  0  0  0  0  0  0
    9.9230    2.7206    0.0000 H   0  0  0  0  0  0  0  0  0  0  0  0
    9.2327    2.3221    0.0000 H   0  0  0  0  0  0  0  0  0  0  0  0
    4.1324   -0.2632    0.0000 H   0  0  0  0  0  0  0  0  0  0  0  0
    6.8010   -1.1303    0.0000 H   0  0  0  0  0  0  0  0  0  0  0  0
   10.7076    1.4994    0.0000 H   0  0  0  0  0  0  0  0  0  0  0  0
   11.3979    1.8980    0.0000 H   0  0  0  0  0  0  0  0  0  0  0  0
    6.3004   -2.6710    0.0000 H   0  0  0  0  0  0  0  0  0  0  0  0
    4.7158   -3.0078    0.0000 H   0  0  0  0  0  0  0  0  0  0  0  0
   12.0044    1.4076    0.0000 H   0  0  0  0  0  0  0  0  0  0  0  0
   12.4025    0.6263    0.0000 H   0  0  0  0  0  0  0  0  0  0  0  0
   13.1837    1.0244    0.0000 H   0  0  0  0  0  0  0  0  0  0  0  0
   13.9922    0.6416    0.0000 H   0  0  0  0  0  0  0  0  0  0  0  0
   16.9521    1.9594    0.0000 H   0  0  0  0  0  0  0  0  0  0  0  0
   16.7828    0.3483    0.0000 H   0  0  0  0  0  0  0  0  0  0  0  0
  1 24  1  0  0  0  0
  1 28  1  0  0  0  0
  2 29  1  0  0  0  0
  3 29  1  0  0  0  0
  4 29  1  0  0  0  0
  5 25  1  0  0  0  0
  5 29  1  0  0  0  0
  6 14  1  0  0  0  0
  6 18  1  0  0  0  0
  6 20  1  0  0  0  0
  7 15  1  0  0  0  0
  7 17  1  0  0  0  0
  7 19  1  0  0  0  0
  8 28  1  0  0  0  0
  8 30  1  0  0  0  0
  8 31  1  0  0  0  0
  9 10  1  0  0  0  0
  9 28  2  0  0  0  0
 10 30  2  0  0  0  0
 11 32  2  0  0  0  0
 11 34  1  0  0  0  0
 12 33  2  0  0  0  0
 12 35  1  0  0  0  0
 13 14  1  0  0  0  0
 13 15  1  0  0  0  0
 13 16  1  0  0  0  0
 13 36  1  0  0  0  0
 14 17  1  0  0  0  0
 14 37  1  0  0  0  0
 15 38  1  0  0  0  0
 15 39  1  0  0  0  0
 16 18  1  0  0  0  0
 16 40  1  0  0  0  0
 16 41  1  0  0  0  0
 17 42  1  0  0  0  0
 17 43  1  0  0  0  0
 18 44  1  0  0  0  0
 18 45  1  0  0  0  0
 19 21  1  0  0  0  0
 19 46  1  0  0  0  0
 19 47  1  0  0  0  0
 20 22  2  0  0  0  0
 20 23  1  0  0  0  0
 21 24  1  0  0  0  0
 21 48  1  0  0  0  0
 21 49  1  0  0  0  0
 22 25  1  0  0  0  0
 22 50  1  0  0  0  0
 23 26  2  0  0  0  0
 23 51  1  0  0  0  0
 24 52  1  0  0  0  0
 24 53  1  0  0  0  0
 25 27  2  0  0  0  0
 26 27  1  0  0  0  0
 26 54  1  0  0  0  0
 27 55  1  0  0  0  0
 30 32  1  0  0  0  0
 31 56  1  0  0  0  0
 31 57  1  0  0  0  0
 31 58  1  0  0  0  0
 32 33  1  0  0  0  0
 33 59  1  0  0  0  0
 34 35  2  0  0  0  0
 34 60  1  0  0  0  0
 35 61  1  0  0  0  0
M  END
> <PUBCHEM_COMPOUND_CID>
126534678

> <PUBCHEM_COMPOUND_CANONICALIZED>
1

> <PUBCHEM_CACTVS_COMPLEXITY>
692

> <PUBCHEM_CACTVS_HBOND_ACCEPTOR>
11

> <PUBCHEM_CACTVS_HBOND_DONOR>
0

> <PUBCHEM_CACTVS_ROTATABLE_BOND>
8

> <PUBCHEM_CACTVS_SUBSKEYS>
AAADceB7oYBAAAAAAAAAAAAAAAAAAWLFgAA8QAAAAAAWAAAB8AAAHwQIAAAADSzF1xS/1pcMFAiiATZnZACS2C9xMrAd2CA+fJiMbuLk+ZuUMChmyBvI6AeQUAMKAAAAAgAAAAAAAAAEAAAAAAAAAAAAAA==

> <PUBCHEM_IUPAC_OPENEYE_NAME>
5-[3-[(4-methyl-5-pyrazin-2-yl-1,2,4-triazol-3-yl)sulfanyl]propyl]-1-[3-(trifluoromethoxy)phenyl]-2,3,3a,4,6,6a-hexahydropyrrolo[2,3-c]pyrrole

> <PUBCHEM_IUPAC_CAS_NAME>
5-[3-[[4-methyl-5-(2-pyrazinyl)-1,2,4-triazol-3-yl]thio]propyl]-1-[3-(trifluoromethoxy)phenyl]-2,3,3a,4,6,6a-hexahydropyrrolo[2,3-c]pyrrole

> <PUBCHEM_IUPAC_NAME_MARKUP>
5-[3-[(4-methyl-5-pyrazin-2-yl-1,2,4-triazol-3-yl)sulfanyl]propyl]-1-[3-(trifluoromethoxy)phenyl]-2,3,3<I>a</I>,4,6,6<I>a</I>-hexahydropyrrolo[2,3-c]pyrrole

> <PUBCHEM_IUPAC_NAME>
5-[3-[(4-methyl-5-pyrazin-2-yl-1,2,4-triazol-3-yl)sulfanyl]propyl]-1-[3-(trifluoromethoxy)phenyl]-2,3,3a,4,6,6a-hexahydropyrrolo[2,3-c]pyrrole

> <PUBCHEM_IUPAC_SYSTEMATIC_NAME>
5-[3-[(4-methyl-5-pyrazin-2-yl-1,2,4-triazol-3-yl)sulfanyl]propyl]-1-[3-(trifluoromethyloxy)phenyl]-2,3,3a,4,6,6a-hexahydropyrrolo[2,3-c]pyrrole

> <PUBCHEM_IUPAC_TRADITIONAL_NAME>
5-[3-[(4-methyl-5-pyrazin-2-yl-1,2,4-triazol-3-yl)thio]propyl]-1-[3-(trifluoromethoxy)phenyl]-2,3,3a,4,6,6a-hexahydropyrrolo[2,3-c]pyrrole

> <PUBCHEM_IUPAC_INCHI>
InChI=1S/C23H26F3N7OS/c1-31-21(19-13-27-7-8-28-19)29-30-22(31)35-11-3-9-32-14-16-6-10-33(20(16)15-32)17-4-2-5-18(12-17)34-23(24,25)26/h2,4-5,7-8,12-13,16,20H,3,6,9-11,14-15H2,1H3

> <PUBCHEM_IUPAC_INCHIKEY>
IZZNYYLQSUDWDO-UHFFFAOYSA-N

> <PUBCHEM_XLOGP3_AA>
3.5

> <PUBCHEM_EXACT_MASS>
505.18716414

> <PUBCHEM_MOLECULAR_FORMULA>
C23H26F3N7OS

> <PUBCHEM_MOLECULAR_WEIGHT>
505.6

> <PUBCHEM_OPENEYE_CAN_SMILES>
CN1C(=NN=C1SCCCN2CC3CCN(C3C2)C4=CC(=CC=C4)OC(F)(F)F)C5=NC=CN=C5

> <PUBCHEM_OPENEYE_ISO_SMILES>
CN1C(=NN=C1SCCCN2CC3CCN(C3C2)C4=CC(=CC=C4)OC(F)(F)F)C5=NC=CN=C5

> <PUBCHEM_CACTVS_TPSA>
97.5

> <PUBCHEM_MONOISOTOPIC_WEIGHT>
505.18716414

> <PUBCHEM_TOTAL_CHARGE>
0

> <PUBCHEM_HEAVY_ATOM_COUNT>
35

> <PUBCHEM_ATOM_DEF_STEREO_COUNT>
0

> <PUBCHEM_ATOM_UDEF_STEREO_COUNT>
2

> <PUBCHEM_BOND_DEF_STEREO_COUNT>
0

> <PUBCHEM_BOND_UDEF_STEREO_COUNT>
0

> <PUBCHEM_ISOTOPIC_ATOM_COUNT>
0

> <PUBCHEM_COMPONENT_COUNT>
1

> <PUBCHEM_CACTVS_TAUTO_COUNT>
-1

> <PUBCHEM_COORDINATE_TYPE>
1
5
255

> <PUBCHEM_BONDANNOTATIONS>
10  30  8
11  32  8
11  34  8
12  33  8
12  35  8
13  16  3
14  17  3
20  22  8
20  23  8
22  25  8
23  26  8
25  27  8
26  27  8
32  33  8
34  35  8
8  28  8
8  30  8
9  10  8
9  28  8

$$$$
