44270558
  -OEChem-09292322182D

 45 48  0     0  0  0  0  0  0999 V2000
   11.8385    2.3304    0.0000 Cl  0  0  0  0  0  0  0  0  0  0  0  0
    5.9674    1.0930    0.0000 N   0  0  0  0  0  0  0  0  0  0  0  0
    7.9244    1.5055    0.0000 N   0  0  0  0  0  0  0  0  0  0  0  0
    3.7320   -1.3684    0.0000 N   0  0  0  0  0  0  0  0  0  0  0  0
    4.6783   -1.6732    0.0000 N   0  0  0  0  0  0  0  0  0  0  0  0
    6.6353    0.3487    0.0000 C   0  0  0  0  0  0  0  0  0  0  0  0
    6.2781    2.0436    0.0000 C   0  0  0  0  0  0  0  0  0  0  0  0
    7.6138    0.5550    0.0000 C   0  0  0  0  0  0  0  0  0  0  0  0
    7.2566    2.2498    0.0000 C   0  0  0  0  0  0  0  0  0  0  0  0
    4.9889    0.8868    0.0000 C   0  0  0  0  0  0  0  0  0  0  0  0
    4.6783   -0.0637    0.0000 C   0  0  0  0  0  0  0  0  0  0  0  0
    8.9030    1.7117    0.0000 C   0  0  0  0  0  0  0  0  0  0  0  0
    3.7320   -0.3684    0.0000 C   0  0  0  0  0  0  0  0  0  0  0  0
    5.2619   -0.8684    0.0000 C   0  0  0  0  0  0  0  0  0  0  0  0
    9.5708    0.9674    0.0000 C   0  0  0  0  0  0  0  0  0  0  0  0
    9.2136    2.6622    0.0000 C   0  0  0  0  0  0  0  0  0  0  0  0
    2.8660    0.1316    0.0000 C   0  0  0  0  0  0  0  0  0  0  0  0
    2.8660   -1.8684    0.0000 C   0  0  0  0  0  0  0  0  0  0  0  0
    2.0000   -0.3684    0.0000 C   0  0  0  0  0  0  0  0  0  0  0  0
    2.0000   -1.3684    0.0000 C   0  0  0  0  0  0  0  0  0  0  0  0
   10.5493    1.1736    0.0000 C   0  0  0  0  0  0  0  0  0  0  0  0
   10.1921    2.8684    0.0000 C   0  0  0  0  0  0  0  0  0  0  0  0
    2.8660   -2.8684    0.0000 C   0  0  0  0  0  0  0  0  0  0  0  0
   10.8600    2.1241    0.0000 C   0  0  0  0  0  0  0  0  0  0  0  0
    6.1089    0.0211    0.0000 H   0  0  0  0  0  0  0  0  0  0  0  0
    6.8665   -0.2265    0.0000 H   0  0  0  0  0  0  0  0  0  0  0  0
    6.2575    2.6632    0.0000 H   0  0  0  0  0  0  0  0  0  0  0  0
    5.6643    2.1309    0.0000 H   0  0  0  0  0  0  0  0  0  0  0  0
    7.6344   -0.0647    0.0000 H   0  0  0  0  0  0  0  0  0  0  0  0
    8.2276    0.4676    0.0000 H   0  0  0  0  0  0  0  0  0  0  0  0
    7.7830    2.5774    0.0000 H   0  0  0  0  0  0  0  0  0  0  0  0
    7.0254    2.8250    0.0000 H   0  0  0  0  0  0  0  0  0  0  0  0
    4.9684    1.5065    0.0000 H   0  0  0  0  0  0  0  0  0  0  0  0
    4.3751    0.9742    0.0000 H   0  0  0  0  0  0  0  0  0  0  0  0
    5.8819   -0.8684    0.0000 H   0  0  0  0  0  0  0  0  0  0  0  0
    9.3782    0.3781    0.0000 H   0  0  0  0  0  0  0  0  0  0  0  0
    8.7996    3.1237    0.0000 H   0  0  0  0  0  0  0  0  0  0  0  0
    2.8660    0.7516    0.0000 H   0  0  0  0  0  0  0  0  0  0  0  0
    1.4631   -0.0584    0.0000 H   0  0  0  0  0  0  0  0  0  0  0  0
    1.4631   -1.6784    0.0000 H   0  0  0  0  0  0  0  0  0  0  0  0
   10.9634    0.7121    0.0000 H   0  0  0  0  0  0  0  0  0  0  0  0
   10.3847    3.4578    0.0000 H   0  0  0  0  0  0  0  0  0  0  0  0
    2.2460   -2.8684    0.0000 H   0  0  0  0  0  0  0  0  0  0  0  0
    2.8660   -3.4884    0.0000 H   0  0  0  0  0  0  0  0  0  0  0  0
    3.4860   -2.8684    0.0000 H   0  0  0  0  0  0  0  0  0  0  0  0
  1 24  1  0  0  0  0
  2  6  1  0  0  0  0
  2  7  1  0  0  0  0
  2 10  1  0  0  0  0
  3  8  1  0  0  0  0
  3  9  1  0  0  0  0
  3 12  1  0  0  0  0
  4  5  1  0  0  0  0
  4 13  1  0  0  0  0
  4 18  1  0  0  0  0
  5 14  2  0  0  0  0
  6  8  1  0  0  0  0
  6 25  1  0  0  0  0
  6 26  1  0  0  0  0
  7  9  1  0  0  0  0
  7 27  1  0  0  0  0
  7 28  1  0  0  0  0
  8 29  1  0  0  0  0
  8 30  1  0  0  0  0
  9 31  1  0  0  0  0
  9 32  1  0  0  0  0
 10 11  1  0  0  0  0
 10 33  1  0  0  0  0
 10 34  1  0  0  0  0
 11 13  2  0  0  0  0
 11 14  1  0  0  0  0
 12 15  2  0  0  0  0
 12 16  1  0  0  0  0
 13 17  1  0  0  0  0
 14 35  1  0  0  0  0
 15 21  1  0  0  0  0
 15 36  1  0  0  0  0
 16 22  2  0  0  0  0
 16 37  1  0  0  0  0
 17 19  2  0  0  0  0
 17 38  1  0  0  0  0
 18 20  2  0  0  0  0
 18 23  1  0  0  0  0
 19 20  1  0  0  0  0
 19 39  1  0  0  0  0
 20 40  1  0  0  0  0
 21 24  2  0  0  0  0
 21 41  1  0  0  0  0
 22 24  1  0  0  0  0
 22 42  1  0  0  0  0
 23 43  1  0  0  0  0
 23 44  1  0  0  0  0
 23 45  1  0  0  0  0
M  END
> <PUBCHEM_COMPOUND_CID>
44270558

> <PUBCHEM_COMPOUND_CANONICALIZED>
1

> <PUBCHEM_CACTVS_COMPLEXITY>
404

> <PUBCHEM_CACTVS_HBOND_ACCEPTOR>
3

> <PUBCHEM_CACTVS_HBOND_DONOR>
0

> <PUBCHEM_CACTVS_ROTATABLE_BOND>
3

> <PUBCHEM_CACTVS_SUBSKEYS>
AAADceB7gAAEAAAAAAAAAAAAAAAAAWAAAAA8WIAAAAAAAFgB8AAAHAIIAAAADArBHiQ+wLMIEACiAzRnRACShCAhhyAYmCA4ZpgIYOLB09GUpAhgiADIyAcQgMAMAABAAAAAAAAAAIAAAAAAAAAAAAAAAA==

> <PUBCHEM_IUPAC_OPENEYE_NAME>
3-[[4-(4-chlorophenyl)piperazin-1-yl]methyl]-7-methyl-pyrazolo[1,5-a]pyridine

> <PUBCHEM_IUPAC_CAS_NAME>
3-[[4-(4-chlorophenyl)-1-piperazinyl]methyl]-7-methylpyrazolo[1,5-a]pyridine

> <PUBCHEM_IUPAC_NAME_MARKUP>
3-[[4-(4-chlorophenyl)piperazin-1-yl]methyl]-7-methylpyrazolo[1,5-a]pyridine

> <PUBCHEM_IUPAC_NAME>
3-[[4-(4-chlorophenyl)piperazin-1-yl]methyl]-7-methylpyrazolo[1,5-a]pyridine

> <PUBCHEM_IUPAC_SYSTEMATIC_NAME>
3-[[4-(4-chlorophenyl)piperazin-1-yl]methyl]-7-methyl-pyrazolo[1,5-a]pyridine

> <PUBCHEM_IUPAC_TRADITIONAL_NAME>
3-[[4-(4-chlorophenyl)piperazino]methyl]-7-methyl-pyrazolo[1,5-a]pyridine

> <PUBCHEM_IUPAC_INCHI>
InChI=1S/C19H21ClN4/c1-15-3-2-4-19-16(13-21-24(15)19)14-22-9-11-23(12-10-22)18-7-5-17(20)6-8-18/h2-8,13H,9-12,14H2,1H3

> <PUBCHEM_IUPAC_INCHIKEY>
UIYATCKYXWPCQG-UHFFFAOYSA-N

> <PUBCHEM_XLOGP3_AA>
3.5

> <PUBCHEM_EXACT_MASS>
340.1454744

> <PUBCHEM_MOLECULAR_FORMULA>
C19H21ClN4

> <PUBCHEM_MOLECULAR_WEIGHT>
340.8

> <PUBCHEM_OPENEYE_CAN_SMILES>
CC1=CC=CC2=C(C=NN12)CN3CCN(CC3)C4=CC=C(C=C4)Cl

> <PUBCHEM_OPENEYE_ISO_SMILES>
CC1=CC=CC2=C(C=NN12)CN3CCN(CC3)C4=CC=C(C=C4)Cl

> <PUBCHEM_CACTVS_TPSA>
23.8

> <PUBCHEM_MONOISOTOPIC_WEIGHT>
340.1454744

> <PUBCHEM_TOTAL_CHARGE>
0

> <PUBCHEM_HEAVY_ATOM_COUNT>
24

> <PUBCHEM_ATOM_DEF_STEREO_COUNT>
0

> <PUBCHEM_ATOM_UDEF_STEREO_COUNT>
0

> <PUBCHEM_BOND_DEF_STEREO_COUNT>
0

> <PUBCHEM_BOND_UDEF_STEREO_COUNT>
0

> <PUBCHEM_ISOTOPIC_ATOM_COUNT>
0

> <PUBCHEM_COMPONENT_COUNT>
1

> <PUBCHEM_CACTVS_TAUTO_COUNT>
-1

> <PUBCHEM_COORDINATE_TYPE>
1
5
255

> <PUBCHEM_BONDANNOTATIONS>
11  13  8
11  14  8
12  15  8
12  16  8
13  17  8
15  21  8
16  22  8
17  19  8
18  20  8
19  20  8
21  24  8
22  24  8
4  13  8
4  18  8
4  5  8
5  14  8

$$$$
