162671034
  -OEChem-09292322432D

 56 59  0     0  0  0  0  0  0999 V2000
    2.0000   -6.2333    0.0000 F   0  0  0  0  0  0  0  0  0  0  0  0
   11.6330    3.0499    0.0000 F   0  0  0  0  0  0  0  0  0  0  0  0
    5.5443   -6.0381    0.0000 O   0  0  0  0  0  0  0  0  0  0  0  0
    9.0546    0.7364    0.0000 O   0  0  0  0  0  0  0  0  0  0  0  0
    8.6509    5.0766    0.0000 O   0  0  0  0  0  0  0  0  0  0  0  0
    6.4763   -1.5770    0.0000 N   0  0  0  0  0  0  0  0  0  0  0  0
    6.1279   -5.2333    0.0000 N   0  0  0  0  0  0  0  0  0  0  0  0
   10.2973    4.5385    0.0000 N   0  0  0  0  0  0  0  0  0  0  0  0
    5.8550   -3.4781    0.0000 C   0  0  0  0  0  0  0  0  0  0  0  0
    5.1871   -2.7338    0.0000 C   0  0  0  0  0  0  0  0  0  0  0  0
    6.8335   -3.2719    0.0000 C   0  0  0  0  0  0  0  0  0  0  0  0
    5.4978   -1.7833    0.0000 C   0  0  0  0  0  0  0  0  0  0  0  0
    7.1441   -2.3213    0.0000 C   0  0  0  0  0  0  0  0  0  0  0  0
    6.7870   -0.6265    0.0000 C   0  0  0  0  0  0  0  0  0  0  0  0
    5.5443   -4.4286    0.0000 C   0  0  0  0  0  0  0  0  0  0  0  0
    7.7654   -0.4203    0.0000 C   0  0  0  0  0  0  0  0  0  0  0  0
    4.5981   -4.7333    0.0000 C   0  0  0  0  0  0  0  0  0  0  0  0
    4.5981   -5.7333    0.0000 C   0  0  0  0  0  0  0  0  0  0  0  0
    8.0761    0.5302    0.0000 C   0  0  0  0  0  0  0  0  0  0  0  0
    3.7320   -4.2333    0.0000 C   0  0  0  0  0  0  0  0  0  0  0  0
    3.7320   -6.2333    0.0000 C   0  0  0  0  0  0  0  0  0  0  0  0
    2.8660   -4.7333    0.0000 C   0  0  0  0  0  0  0  0  0  0  0  0
    2.8660   -5.7333    0.0000 C   0  0  0  0  0  0  0  0  0  0  0  0
    9.3653    1.6870    0.0000 C   0  0  0  0  0  0  0  0  0  0  0  0
   10.3438    1.8932    0.0000 C   0  0  0  0  0  0  0  0  0  0  0  0
    8.6974    2.4313    0.0000 C   0  0  0  0  0  0  0  0  0  0  0  0
   10.6545    2.8437    0.0000 C   0  0  0  0  0  0  0  0  0  0  0  0
    9.0081    3.3818    0.0000 C   0  0  0  0  0  0  0  0  0  0  0  0
    9.9866    3.5880    0.0000 C   0  0  0  0  0  0  0  0  0  0  0  0
    9.6294    5.2828    0.0000 C   0  0  0  0  0  0  0  0  0  0  0  0
    9.9401    6.2333    0.0000 C   0  0  0  0  0  0  0  0  0  0  0  0
    6.2690   -3.9396    0.0000 H   0  0  0  0  0  0  0  0  0  0  0  0
    4.6402   -2.4418    0.0000 H   0  0  0  0  0  0  0  0  0  0  0  0
    4.8046   -3.2217    0.0000 H   0  0  0  0  0  0  0  0  0  0  0  0
    6.8540   -3.8915    0.0000 H   0  0  0  0  0  0  0  0  0  0  0  0
    7.4473   -3.3592    0.0000 H   0  0  0  0  0  0  0  0  0  0  0  0
    5.4772   -1.1636    0.0000 H   0  0  0  0  0  0  0  0  0  0  0  0
    4.8840   -1.6959    0.0000 H   0  0  0  0  0  0  0  0  0  0  0  0
    7.6910   -2.6134    0.0000 H   0  0  0  0  0  0  0  0  0  0  0  0
    7.5267   -1.8334    0.0000 H   0  0  0  0  0  0  0  0  0  0  0  0
    6.7664   -0.0069    0.0000 H   0  0  0  0  0  0  0  0  0  0  0  0
    6.1731   -0.5392    0.0000 H   0  0  0  0  0  0  0  0  0  0  0  0
    7.7860   -1.0400    0.0000 H   0  0  0  0  0  0  0  0  0  0  0  0
    8.3793   -0.5077    0.0000 H   0  0  0  0  0  0  0  0  0  0  0  0
    8.0556    1.1499    0.0000 H   0  0  0  0  0  0  0  0  0  0  0  0
    7.4623    0.6176    0.0000 H   0  0  0  0  0  0  0  0  0  0  0  0
    3.7320   -3.6133    0.0000 H   0  0  0  0  0  0  0  0  0  0  0  0
    3.7320   -6.8533    0.0000 H   0  0  0  0  0  0  0  0  0  0  0  0
    2.3291   -4.4233    0.0000 H   0  0  0  0  0  0  0  0  0  0  0  0
   10.7578    1.4317    0.0000 H   0  0  0  0  0  0  0  0  0  0  0  0
    8.0908    2.3034    0.0000 H   0  0  0  0  0  0  0  0  0  0  0  0
    8.5940    3.8432    0.0000 H   0  0  0  0  0  0  0  0  0  0  0  0
   10.9039    4.6664    0.0000 H   0  0  0  0  0  0  0  0  0  0  0  0
   10.5294    6.0407    0.0000 H   0  0  0  0  0  0  0  0  0  0  0  0
   10.1327    6.8227    0.0000 H   0  0  0  0  0  0  0  0  0  0  0  0
    9.3508    6.4260    0.0000 H   0  0  0  0  0  0  0  0  0  0  0  0
  1 23  1  0  0  0  0
  2 27  1  0  0  0  0
  3  7  1  0  0  0  0
  3 18  1  0  0  0  0
  4 19  1  0  0  0  0
  4 24  1  0  0  0  0
  5 30  2  0  0  0  0
  6 12  1  0  0  0  0
  6 13  1  0  0  0  0
  6 14  1  0  0  0  0
  7 15  2  0  0  0  0
  8 29  1  0  0  0  0
  8 30  1  0  0  0  0
  8 53  1  0  0  0  0
  9 10  1  0  0  0  0
  9 11  1  0  0  0  0
  9 15  1  0  0  0  0
  9 32  1  0  0  0  0
 10 12  1  0  0  0  0
 10 33  1  0  0  0  0
 10 34  1  0  0  0  0
 11 13  1  0  0  0  0
 11 35  1  0  0  0  0
 11 36  1  0  0  0  0
 12 37  1  0  0  0  0
 12 38  1  0  0  0  0
 13 39  1  0  0  0  0
 13 40  1  0  0  0  0
 14 16  1  0  0  0  0
 14 41  1  0  0  0  0
 14 42  1  0  0  0  0
 15 17  1  0  0  0  0
 16 19  1  0  0  0  0
 16 43  1  0  0  0  0
 16 44  1  0  0  0  0
 17 18  2  0  0  0  0
 17 20  1  0  0  0  0
 18 21  1  0  0  0  0
 19 45  1  0  0  0  0
 19 46  1  0  0  0  0
 20 22  2  0  0  0  0
 20 47  1  0  0  0  0
 21 23  2  0  0  0  0
 21 48  1  0  0  0  0
 22 23  1  0  0  0  0
 22 49  1  0  0  0  0
 24 25  2  0  0  0  0
 24 26  1  0  0  0  0
 25 27  1  0  0  0  0
 25 50  1  0  0  0  0
 26 28  2  0  0  0  0
 26 51  1  0  0  0  0
 27 29  2  0  0  0  0
 28 29  1  0  0  0  0
 28 52  1  0  0  0  0
 30 31  1  0  0  0  0
 31 54  1  0  0  0  0
 31 55  1  0  0  0  0
 31 56  1  0  0  0  0
M  END
> <PUBCHEM_COMPOUND_CID>
162671034

> <PUBCHEM_COMPOUND_CANONICALIZED>
1

> <PUBCHEM_CACTVS_COMPLEXITY>
590

> <PUBCHEM_CACTVS_HBOND_ACCEPTOR>
7

> <PUBCHEM_CACTVS_HBOND_DONOR>
1

> <PUBCHEM_CACTVS_ROTATABLE_BOND>
7

> <PUBCHEM_CACTVS_SUBSKEYS>
AAADceB7MYAAAAAAAAAAAAAAAAAAAWAAAAA8YIAAAAAAAFgB9AAAHwAUAAAADQzhng4yxtPQBACpA6VyUgCCCAAlIgAomCE+bNoMJrrEtZuGOajm1BnI6ce4yOCOAEAAAAAIAAAAgAAAABAAAAAAAAAAAA==

> <PUBCHEM_IUPAC_OPENEYE_NAME>
N-[2-fluoro-4-[3-[4-(6-fluoro-1,2-benzoxazol-3-yl)-1-piperidyl]propoxy]phenyl]acetamide

> <PUBCHEM_IUPAC_CAS_NAME>
N-[2-fluoro-4-[3-[4-(6-fluoro-1,2-benzoxazol-3-yl)-1-piperidinyl]propoxy]phenyl]acetamide

> <PUBCHEM_IUPAC_NAME_MARKUP>
<I>N</I>-[2-fluoro-4-[3-[4-(6-fluoro-1,2-benzoxazol-3-yl)piperidin-1-yl]propoxy]phenyl]acetamide

> <PUBCHEM_IUPAC_NAME>
N-[2-fluoro-4-[3-[4-(6-fluoro-1,2-benzoxazol-3-yl)piperidin-1-yl]propoxy]phenyl]acetamide

> <PUBCHEM_IUPAC_SYSTEMATIC_NAME>
N-[2-fluoranyl-4-[3-[4-(6-fluoranyl-1,2-benzoxazol-3-yl)piperidin-1-yl]propoxy]phenyl]ethanamide

> <PUBCHEM_IUPAC_TRADITIONAL_NAME>
N-[2-fluoro-4-[3-[4-(6-fluoroindoxazen-3-yl)piperidino]propoxy]phenyl]acetamide

> <PUBCHEM_IUPAC_INCHI>
InChI=1S/C23H25F2N3O3/c1-15(29)26-21-6-4-18(14-20(21)25)30-12-2-9-28-10-7-16(8-11-28)23-19-5-3-17(24)13-22(19)31-27-23/h3-6,13-14,16H,2,7-12H2,1H3,(H,26,29)

> <PUBCHEM_IUPAC_INCHIKEY>
TZTPNIBCXONRKH-UHFFFAOYSA-N

> <PUBCHEM_XLOGP3_AA>
3.7

> <PUBCHEM_EXACT_MASS>
429.18639799

> <PUBCHEM_MOLECULAR_FORMULA>
C23H25F2N3O3

> <PUBCHEM_MOLECULAR_WEIGHT>
429.5

> <PUBCHEM_OPENEYE_CAN_SMILES>
CC(=O)NC1=C(C=C(C=C1)OCCCN2CCC(CC2)C3=NOC4=C3C=CC(=C4)F)F

> <PUBCHEM_OPENEYE_ISO_SMILES>
CC(=O)NC1=C(C=C(C=C1)OCCCN2CCC(CC2)C3=NOC4=C3C=CC(=C4)F)F

> <PUBCHEM_CACTVS_TPSA>
67.6

> <PUBCHEM_MONOISOTOPIC_WEIGHT>
429.18639799

> <PUBCHEM_TOTAL_CHARGE>
0

> <PUBCHEM_HEAVY_ATOM_COUNT>
31

> <PUBCHEM_ATOM_DEF_STEREO_COUNT>
0

> <PUBCHEM_ATOM_UDEF_STEREO_COUNT>
0

> <PUBCHEM_BOND_DEF_STEREO_COUNT>
0

> <PUBCHEM_BOND_UDEF_STEREO_COUNT>
0

> <PUBCHEM_ISOTOPIC_ATOM_COUNT>
0

> <PUBCHEM_COMPONENT_COUNT>
1

> <PUBCHEM_CACTVS_TAUTO_COUNT>
-1

> <PUBCHEM_COORDINATE_TYPE>
1
5
255

> <PUBCHEM_BONDANNOTATIONS>
15  17  8
17  18  8
17  20  8
18  21  8
20  22  8
21  23  8
22  23  8
24  25  8
24  26  8
25  27  8
26  28  8
27  29  8
28  29  8
3  18  8
3  7  8
7  15  8

$$$$
