44212703
  -OEChem-09292322502D

 58 62  0     1  0  0  0  0  0999 V2000
   12.4641   -0.7659    0.0000 O   0  0  0  0  0  0  0  0  0  0  0  0
    4.6077   -2.3034    0.0000 O   0  0  0  0  0  0  0  0  0  0  0  0
   10.7320    0.2341    0.0000 N   0  0  3  0  0  0  0  0  0  0  0  0
    8.9320   -0.7867    0.0000 N   0  0  3  0  0  0  0  0  0  0  0  0
    3.7359   -0.8067    0.0000 N   0  0  0  0  0  0  0  0  0  0  0  0
   10.7320   -0.7659    0.0000 C   0  0  3  0  0  0  0  0  0  0  0  0
    9.8381   -1.3005    0.0000 C   0  0  0  0  0  0  0  0  0  0  0  0
    9.8381    0.7688    0.0000 C   0  0  0  0  0  0  0  0  0  0  0  0
    8.9320    0.2549    0.0000 C   0  0  0  0  0  0  0  0  0  0  0  0
   11.5980   -1.2659    0.0000 C   0  0  0  0  0  0  0  0  0  0  0  0
   11.5980    0.7341    0.0000 C   0  0  0  0  0  0  0  0  0  0  0  0
    8.0679   -1.2900    0.0000 C   0  0  0  0  0  0  0  0  0  0  0  0
   12.4641    0.2341    0.0000 C   0  0  0  0  0  0  0  0  0  0  0  0
    7.2000   -0.7934    0.0000 C   0  0  0  0  0  0  0  0  0  0  0  0
   11.5820    1.7756    0.0000 C   0  0  0  0  0  0  0  0  0  0  0  0
    2.0000    0.1866    0.0000 C   0  0  0  0  0  0  0  0  0  0  0  0
    2.8641    0.6899    0.0000 C   0  0  0  0  0  0  0  0  0  0  0  0
    2.0038   -0.8134    0.0000 C   0  0  0  0  0  0  0  0  0  0  0  0
    3.7320    0.1933    0.0000 C   0  0  0  0  0  0  0  0  0  0  0  0
    2.8718   -1.3101    0.0000 C   0  0  0  0  0  0  0  0  0  0  0  0
   13.3741    0.7410    0.0000 C   0  0  0  0  0  0  0  0  0  0  0  0
    6.3359   -1.2967    0.0000 C   0  0  0  0  0  0  0  0  0  0  0  0
    5.4679   -0.8001    0.0000 C   0  0  0  0  0  0  0  0  0  0  0  0
    4.6038   -1.3034    0.0000 C   0  0  0  0  0  0  0  0  0  0  0  0
    7.1961    0.2066    0.0000 C   0  0  0  0  0  0  0  0  0  0  0  0
   12.4800    2.3034    0.0000 C   0  0  0  0  0  0  0  0  0  0  0  0
   13.3821    1.7826    0.0000 C   0  0  0  0  0  0  0  0  0  0  0  0
    5.4641    0.1999    0.0000 C   0  0  0  0  0  0  0  0  0  0  0  0
    6.3282    0.7033    0.0000 C   0  0  0  0  0  0  0  0  0  0  0  0
   10.7368   -1.3859    0.0000 H   0  0  0  0  0  0  0  0  0  0  0  0
    9.4444   -1.7796    0.0000 H   0  0  0  0  0  0  0  0  0  0  0  0
   10.2427   -1.7703    0.0000 H   0  0  0  0  0  0  0  0  0  0  0  0
   10.2427    1.2386    0.0000 H   0  0  0  0  0  0  0  0  0  0  0  0
    9.4444    1.2478    0.0000 H   0  0  0  0  0  0  0  0  0  0  0  0
    8.7230    0.8386    0.0000 H   0  0  0  0  0  0  0  0  0  0  0  0
    8.3212    0.1488    0.0000 H   0  0  0  0  0  0  0  0  0  0  0  0
   11.1995   -1.7408    0.0000 H   0  0  0  0  0  0  0  0  0  0  0  0
   11.9966   -1.7408    0.0000 H   0  0  0  0  0  0  0  0  0  0  0  0
    7.6712   -1.7665    0.0000 H   0  0  0  0  0  0  0  0  0  0  0  0
    8.4683   -1.7634    0.0000 H   0  0  0  0  0  0  0  0  0  0  0  0
   11.0415    2.0794    0.0000 H   0  0  0  0  0  0  0  0  0  0  0  0
    1.7857    0.7684    0.0000 H   0  0  0  0  0  0  0  0  0  0  0  0
    1.3898    0.0766    0.0000 H   0  0  0  0  0  0  0  0  0  0  0  0
    3.2608    1.1664    0.0000 H   0  0  0  0  0  0  0  0  0  0  0  0
    2.4637    1.1633    0.0000 H   0  0  0  0  0  0  0  0  0  0  0  0
    1.3929   -0.7081    0.0000 H   0  0  0  0  0  0  0  0  0  0  0  0
    1.7940   -1.3968    0.0000 H   0  0  0  0  0  0  0  0  0  0  0  0
    4.3430    0.0880    0.0000 H   0  0  0  0  0  0  0  0  0  0  0  0
    3.9418    0.7767    0.0000 H   0  0  0  0  0  0  0  0  0  0  0  0
    2.4751   -1.7865    0.0000 H   0  0  0  0  0  0  0  0  0  0  0  0
    3.2722   -1.7835    0.0000 H   0  0  0  0  0  0  0  0  0  0  0  0
   13.9074    0.4248    0.0000 H   0  0  0  0  0  0  0  0  0  0  0  0
    6.3383   -1.9167    0.0000 H   0  0  0  0  0  0  0  0  0  0  0  0
    7.7318    0.5187    0.0000 H   0  0  0  0  0  0  0  0  0  0  0  0
   12.4776    2.9234    0.0000 H   0  0  0  0  0  0  0  0  0  0  0  0
   13.9202    2.0905    0.0000 H   0  0  0  0  0  0  0  0  0  0  0  0
    4.9260    0.5079    0.0000 H   0  0  0  0  0  0  0  0  0  0  0  0
    6.3258    1.3233    0.0000 H   0  0  0  0  0  0  0  0  0  0  0  0
  1 10  1  0  0  0  0
  1 13  1  0  0  0  0
  2 24  2  0  0  0  0
  3  6  1  0  0  0  0
  3  8  1  0  0  0  0
  3 11  1  0  0  0  0
  4  7  1  0  0  0  0
  4  9  1  0  0  0  0
  4 12  1  0  0  0  0
  5 19  1  0  0  0  0
  5 20  1  0  0  0  0
  5 24  1  0  0  0  0
  6  7  1  0  0  0  0
  6 10  1  0  0  0  0
  6 30  1  0  0  0  0
  7 31  1  0  0  0  0
  7 32  1  0  0  0  0
  8  9  1  0  0  0  0
  8 33  1  0  0  0  0
  8 34  1  0  0  0  0
  9 35  1  0  0  0  0
  9 36  1  0  0  0  0
 10 37  1  0  0  0  0
 10 38  1  0  0  0  0
 11 13  1  0  0  0  0
 11 15  2  0  0  0  0
 12 14  1  0  0  0  0
 12 39  1  0  0  0  0
 12 40  1  0  0  0  0
 13 21  2  0  0  0  0
 14 22  2  0  0  0  0
 14 25  1  0  0  0  0
 15 26  1  0  0  0  0
 15 41  1  0  0  0  0
 16 17  1  0  0  0  0
 16 18  1  0  0  0  0
 16 42  1  0  0  0  0
 16 43  1  0  0  0  0
 17 19  1  0  0  0  0
 17 44  1  0  0  0  0
 17 45  1  0  0  0  0
 18 20  1  0  0  0  0
 18 46  1  0  0  0  0
 18 47  1  0  0  0  0
 19 48  1  0  0  0  0
 19 49  1  0  0  0  0
 20 50  1  0  0  0  0
 20 51  1  0  0  0  0
 21 27  1  0  0  0  0
 21 52  1  0  0  0  0
 22 23  1  0  0  0  0
 22 53  1  0  0  0  0
 23 24  1  0  0  0  0
 23 28  2  0  0  0  0
 25 29  2  0  0  0  0
 25 54  1  0  0  0  0
 26 27  2  0  0  0  0
 26 55  1  0  0  0  0
 27 56  1  0  0  0  0
 28 29  1  0  0  0  0
 28 57  1  0  0  0  0
 29 58  1  0  0  0  0
M  END
> <PUBCHEM_COMPOUND_CID>
44212703

> <PUBCHEM_COMPOUND_CANONICALIZED>
1

> <PUBCHEM_CACTVS_COMPLEXITY>
564

> <PUBCHEM_CACTVS_HBOND_ACCEPTOR>
4

> <PUBCHEM_CACTVS_HBOND_DONOR>
0

> <PUBCHEM_CACTVS_ROTATABLE_BOND>
3

> <PUBCHEM_CACTVS_SUBSKEYS>
AAADceB7MAAAAAAAAAAAAAAAAAAAAAAAAAA8eLECAAAAAACxQAAAHgAAAAAADCzhmAYwxoMABACIAiVSUACCCAAlIgAIiAEPbMgOZjLEtZuXOSjmxhHY6YeYyUCOAAACAAAAEAAAAAQAAAAgAAAAAAAAAA==

> <PUBCHEM_IUPAC_OPENEYE_NAME>
[3-(2,4,4a,5-tetrahydro-1H-pyrazino[2,1-c][1,4]benzoxazin-3-ylmethyl)phenyl]-(1-piperidyl)methanone

> <PUBCHEM_IUPAC_CAS_NAME>
[3-(2,4,4a,5-tetrahydro-1H-pyrazino[2,1-c][1,4]benzoxazin-3-ylmethyl)phenyl]-(1-piperidinyl)methanone

> <PUBCHEM_IUPAC_NAME_MARKUP>
[3-(2,4,4<I>a</I>,5-tetrahydro-1<I>H</I>-pyrazino[2,1-c][1,4]benzoxazin-3-ylmethyl)phenyl]-piperidin-1-ylmethanone

> <PUBCHEM_IUPAC_NAME>
[3-(2,4,4a,5-tetrahydro-1H-pyrazino[2,1-c][1,4]benzoxazin-3-ylmethyl)phenyl]-piperidin-1-ylmethanone

> <PUBCHEM_IUPAC_SYSTEMATIC_NAME>
[3-(2,4,4a,5-tetrahydro-1H-pyrazino[2,1-c][1,4]benzoxazin-3-ylmethyl)phenyl]-piperidin-1-yl-methanone

> <PUBCHEM_IUPAC_TRADITIONAL_NAME>
[3-(2,4,4a,5-tetrahydro-1H-pyrazino[2,1-c][1,4]benzoxazin-3-ylmethyl)phenyl]-piperidino-methanone

> <PUBCHEM_IUPAC_INCHI>
InChI=1S/C24H29N3O2/c28-24(26-11-4-1-5-12-26)20-8-6-7-19(15-20)16-25-13-14-27-21(17-25)18-29-23-10-3-2-9-22(23)27/h2-3,6-10,15,21H,1,4-5,11-14,16-18H2

> <PUBCHEM_IUPAC_INCHIKEY>
MLQBZMDETHZBJW-UHFFFAOYSA-N

> <PUBCHEM_XLOGP3_AA>
3.5

> <PUBCHEM_EXACT_MASS>
391.22597718

> <PUBCHEM_MOLECULAR_FORMULA>
C24H29N3O2

> <PUBCHEM_MOLECULAR_WEIGHT>
391.5

> <PUBCHEM_OPENEYE_CAN_SMILES>
C1CCN(CC1)C(=O)C2=CC=CC(=C2)CN3CCN4C(C3)COC5=CC=CC=C54

> <PUBCHEM_OPENEYE_ISO_SMILES>
C1CCN(CC1)C(=O)C2=CC=CC(=C2)CN3CCN4C(C3)COC5=CC=CC=C54

> <PUBCHEM_CACTVS_TPSA>
36

> <PUBCHEM_MONOISOTOPIC_WEIGHT>
391.22597718

> <PUBCHEM_TOTAL_CHARGE>
0

> <PUBCHEM_HEAVY_ATOM_COUNT>
29

> <PUBCHEM_ATOM_DEF_STEREO_COUNT>
0

> <PUBCHEM_ATOM_UDEF_STEREO_COUNT>
1

> <PUBCHEM_BOND_DEF_STEREO_COUNT>
0

> <PUBCHEM_BOND_UDEF_STEREO_COUNT>
0

> <PUBCHEM_ISOTOPIC_ATOM_COUNT>
0

> <PUBCHEM_COMPONENT_COUNT>
1

> <PUBCHEM_CACTVS_TAUTO_COUNT>
-1

> <PUBCHEM_COORDINATE_TYPE>
1
5
255

> <PUBCHEM_BONDANNOTATIONS>
11  13  8
11  15  8
13  21  8
14  22  8
14  25  8
15  26  8
21  27  8
22  23  8
23  28  8
25  29  8
26  27  8
28  29  8
6  7  3

$$$$
