11540842
  -OEChem-09292322242D

 67 70  0     0  0  0  0  0  0999 V2000
    2.0000   -5.1193    0.0000 Cl  0  0  0  0  0  0  0  0  0  0  0  0
    2.0000   -7.1193    0.0000 Cl  0  0  0  0  0  0  0  0  0  0  0  0
    5.4641    3.8807    0.0000 O   0  0  0  0  0  0  0  0  0  0  0  0
    3.7320   -2.1193    0.0000 N   0  0  0  0  0  0  0  0  0  0  0  0
    3.7320   -4.1193    0.0000 N   0  0  0  0  0  0  0  0  0  0  0  0
    6.3301    2.3807    0.0000 N   0  0  0  0  0  0  0  0  0  0  0  0
    8.2788    5.0831    0.0000 N   0  0  0  0  0  0  0  0  0  0  0  0
    8.1097    3.4740    0.0000 N   0  0  0  0  0  0  0  0  0  0  0  0
    8.7788    4.2171    0.0000 N   0  0  0  0  0  0  0  0  0  0  0  0
    2.8660   -2.6193    0.0000 C   0  0  0  0  0  0  0  0  0  0  0  0
    4.5981   -2.6193    0.0000 C   0  0  0  0  0  0  0  0  0  0  0  0
    2.8660   -3.6193    0.0000 C   0  0  0  0  0  0  0  0  0  0  0  0
    4.5981   -3.6193    0.0000 C   0  0  0  0  0  0  0  0  0  0  0  0
    3.7320   -1.1193    0.0000 C   0  0  0  0  0  0  0  0  0  0  0  0
    4.5981   -0.6193    0.0000 C   0  0  0  0  0  0  0  0  0  0  0  0
    4.5981    0.3807    0.0000 C   0  0  0  0  0  0  0  0  0  0  0  0
    3.7320   -5.1193    0.0000 C   0  0  0  0  0  0  0  0  0  0  0  0
    5.4641    0.8807    0.0000 C   0  0  0  0  0  0  0  0  0  0  0  0
    5.4641    1.8807    0.0000 C   0  0  0  0  0  0  0  0  0  0  0  0
    2.8660   -5.6193    0.0000 C   0  0  0  0  0  0  0  0  0  0  0  0
    4.5981   -5.6193    0.0000 C   0  0  0  0  0  0  0  0  0  0  0  0
    2.8660   -6.6193    0.0000 C   0  0  0  0  0  0  0  0  0  0  0  0
    4.5981   -6.6193    0.0000 C   0  0  0  0  0  0  0  0  0  0  0  0
    3.7320   -7.1193    0.0000 C   0  0  0  0  0  0  0  0  0  0  0  0
    6.3301    3.3807    0.0000 C   0  0  0  0  0  0  0  0  0  0  0  0
    7.1962    3.8807    0.0000 C   0  0  0  0  0  0  0  0  0  0  0  0
    7.3007    4.8752    0.0000 C   0  0  0  0  0  0  0  0  0  0  0  0
    8.6856    5.9967    0.0000 C   0  0  0  0  0  0  0  0  0  0  0  0
    6.5575    5.5444    0.0000 C   0  0  0  0  0  0  0  0  0  0  0  0
    9.6801    6.1012    0.0000 C   0  0  0  0  0  0  0  0  0  0  0  0
   10.0868    7.0148    0.0000 C   0  0  0  0  0  0  0  0  0  0  0  0
   10.2679    5.2922    0.0000 C   0  0  0  0  0  0  0  0  0  0  0  0
   11.0813    7.1193    0.0000 C   0  0  0  0  0  0  0  0  0  0  0  0
   11.2624    5.3967    0.0000 C   0  0  0  0  0  0  0  0  0  0  0  0
   11.6691    6.3103    0.0000 C   0  0  0  0  0  0  0  0  0  0  0  0
    2.6540   -2.0367    0.0000 H   0  0  0  0  0  0  0  0  0  0  0  0
    2.2554   -2.7270    0.0000 H   0  0  0  0  0  0  0  0  0  0  0  0
    5.2087   -2.7270    0.0000 H   0  0  0  0  0  0  0  0  0  0  0  0
    4.8101   -2.0367    0.0000 H   0  0  0  0  0  0  0  0  0  0  0  0
    2.2554   -3.5116    0.0000 H   0  0  0  0  0  0  0  0  0  0  0  0
    2.6540   -4.2019    0.0000 H   0  0  0  0  0  0  0  0  0  0  0  0
    4.8101   -4.2019    0.0000 H   0  0  0  0  0  0  0  0  0  0  0  0
    5.2087   -3.5116    0.0000 H   0  0  0  0  0  0  0  0  0  0  0  0
    3.5200   -0.5367    0.0000 H   0  0  0  0  0  0  0  0  0  0  0  0
    3.1215   -1.2270    0.0000 H   0  0  0  0  0  0  0  0  0  0  0  0
    4.8101   -1.2019    0.0000 H   0  0  0  0  0  0  0  0  0  0  0  0
    5.2087   -0.5116    0.0000 H   0  0  0  0  0  0  0  0  0  0  0  0
    4.3860    0.9633    0.0000 H   0  0  0  0  0  0  0  0  0  0  0  0
    3.9875    0.2730    0.0000 H   0  0  0  0  0  0  0  0  0  0  0  0
    5.6762    0.2981    0.0000 H   0  0  0  0  0  0  0  0  0  0  0  0
    6.0747    0.9884    0.0000 H   0  0  0  0  0  0  0  0  0  0  0  0
    5.2520    2.4633    0.0000 H   0  0  0  0  0  0  0  0  0  0  0  0
    4.8535    1.7730    0.0000 H   0  0  0  0  0  0  0  0  0  0  0  0
    5.1350   -5.3093    0.0000 H   0  0  0  0  0  0  0  0  0  0  0  0
    5.1350   -6.9293    0.0000 H   0  0  0  0  0  0  0  0  0  0  0  0
    6.8671    2.0707    0.0000 H   0  0  0  0  0  0  0  0  0  0  0  0
    3.7320   -7.7393    0.0000 H   0  0  0  0  0  0  0  0  0  0  0  0
    8.7288    6.6152    0.0000 H   0  0  0  0  0  0  0  0  0  0  0  0
    8.0840    6.1467    0.0000 H   0  0  0  0  0  0  0  0  0  0  0  0
    6.9724    6.0051    0.0000 H   0  0  0  0  0  0  0  0  0  0  0  0
    6.0968    5.9592    0.0000 H   0  0  0  0  0  0  0  0  0  0  0  0
    6.1427    5.0836    0.0000 H   0  0  0  0  0  0  0  0  0  0  0  0
    9.7224    7.5164    0.0000 H   0  0  0  0  0  0  0  0  0  0  0  0
   10.0157    4.7258    0.0000 H   0  0  0  0  0  0  0  0  0  0  0  0
   11.3335    7.6857    0.0000 H   0  0  0  0  0  0  0  0  0  0  0  0
   11.6268    4.8951    0.0000 H   0  0  0  0  0  0  0  0  0  0  0  0
   12.2857    6.3751    0.0000 H   0  0  0  0  0  0  0  0  0  0  0  0
  1 20  1  0  0  0  0
  2 22  1  0  0  0  0
  3 25  2  0  0  0  0
  4 10  1  0  0  0  0
  4 11  1  0  0  0  0
  4 14  1  0  0  0  0
  5 12  1  0  0  0  0
  5 13  1  0  0  0  0
  5 17  1  0  0  0  0
  6 19  1  0  0  0  0
  6 25  1  0  0  0  0
  6 56  1  0  0  0  0
  7  9  1  0  0  0  0
  7 27  1  0  0  0  0
  7 28  1  0  0  0  0
  8  9  2  0  0  0  0
  8 26  1  0  0  0  0
 10 12  1  0  0  0  0
 10 36  1  0  0  0  0
 10 37  1  0  0  0  0
 11 13  1  0  0  0  0
 11 38  1  0  0  0  0
 11 39  1  0  0  0  0
 12 40  1  0  0  0  0
 12 41  1  0  0  0  0
 13 42  1  0  0  0  0
 13 43  1  0  0  0  0
 14 15  1  0  0  0  0
 14 44  1  0  0  0  0
 14 45  1  0  0  0  0
 15 16  1  0  0  0  0
 15 46  1  0  0  0  0
 15 47  1  0  0  0  0
 16 18  1  0  0  0  0
 16 48  1  0  0  0  0
 16 49  1  0  0  0  0
 17 20  2  0  0  0  0
 17 21  1  0  0  0  0
 18 19  1  0  0  0  0
 18 50  1  0  0  0  0
 18 51  1  0  0  0  0
 19 52  1  0  0  0  0
 19 53  1  0  0  0  0
 20 22  1  0  0  0  0
 21 23  2  0  0  0  0
 21 54  1  0  0  0  0
 22 24  2  0  0  0  0
 23 24  1  0  0  0  0
 23 55  1  0  0  0  0
 24 57  1  0  0  0  0
 25 26  1  0  0  0  0
 26 27  2  0  0  0  0
 27 29  1  0  0  0  0
 28 30  1  0  0  0  0
 28 58  1  0  0  0  0
 28 59  1  0  0  0  0
 29 60  1  0  0  0  0
 29 61  1  0  0  0  0
 29 62  1  0  0  0  0
 30 31  2  0  0  0  0
 30 32  1  0  0  0  0
 31 33  1  0  0  0  0
 31 63  1  0  0  0  0
 32 34  2  0  0  0  0
 32 64  1  0  0  0  0
 33 35  2  0  0  0  0
 33 65  1  0  0  0  0
 34 35  1  0  0  0  0
 34 66  1  0  0  0  0
 35 67  1  0  0  0  0
M  END
> <PUBCHEM_COMPOUND_CID>
11540842

> <PUBCHEM_COMPOUND_CANONICALIZED>
1

> <PUBCHEM_CACTVS_COMPLEXITY>
643

> <PUBCHEM_CACTVS_HBOND_ACCEPTOR>
5

> <PUBCHEM_CACTVS_HBOND_DONOR>
1

> <PUBCHEM_CACTVS_ROTATABLE_BOND>
10

> <PUBCHEM_CACTVS_SUBSKEYS>
AAADcfB7oAAGAAAAAAAAAAAAAAAAAWAAAAA8YIAAAAAAAAAB0AAAHgIYAAAADArBniQywJPIAACqAyVyVACCBAQnlwAY2sG4dsgIYDrB05HUIYhglgDIyUcQgAAOAAAAAAIAABQAAAAABAAAKAAAAAAAAA==

> <PUBCHEM_IUPAC_OPENEYE_NAME>
1-benzyl-N-[5-[4-(2,3-dichlorophenyl)piperazin-1-yl]pentyl]-5-methyl-triazole-4-carboxamide

> <PUBCHEM_IUPAC_CAS_NAME>
N-[5-[4-(2,3-dichlorophenyl)-1-piperazinyl]pentyl]-5-methyl-1-(phenylmethyl)-4-triazolecarboxamide

> <PUBCHEM_IUPAC_NAME_MARKUP>
1-benzyl-<I>N</I>-[5-[4-(2,3-dichlorophenyl)piperazin-1-yl]pentyl]-5-methyltriazole-4-carboxamide

> <PUBCHEM_IUPAC_NAME>
1-benzyl-N-[5-[4-(2,3-dichlorophenyl)piperazin-1-yl]pentyl]-5-methyltriazole-4-carboxamide

> <PUBCHEM_IUPAC_SYSTEMATIC_NAME>
N-[5-[4-[2,3-bis(chloranyl)phenyl]piperazin-1-yl]pentyl]-5-methyl-1-(phenylmethyl)-1,2,3-triazole-4-carboxamide

> <PUBCHEM_IUPAC_TRADITIONAL_NAME>
1-benzyl-N-[5-[4-(2,3-dichlorophenyl)piperazino]pentyl]-5-methyl-triazole-4-carboxamide

> <PUBCHEM_IUPAC_INCHI>
InChI=1S/C26H32Cl2N6O/c1-20-25(30-31-34(20)19-21-9-4-2-5-10-21)26(35)29-13-6-3-7-14-32-15-17-33(18-16-32)23-12-8-11-22(27)24(23)28/h2,4-5,8-12H,3,6-7,13-19H2,1H3,(H,29,35)

> <PUBCHEM_IUPAC_INCHIKEY>
FYHDUYJHKIWKCX-UHFFFAOYSA-N

> <PUBCHEM_XLOGP3_AA>
5.3

> <PUBCHEM_EXACT_MASS>
514.2014651

> <PUBCHEM_MOLECULAR_FORMULA>
C26H32Cl2N6O

> <PUBCHEM_MOLECULAR_WEIGHT>
515.5

> <PUBCHEM_OPENEYE_CAN_SMILES>
CC1=C(N=NN1CC2=CC=CC=C2)C(=O)NCCCCCN3CCN(CC3)C4=C(C(=CC=C4)Cl)Cl

> <PUBCHEM_OPENEYE_ISO_SMILES>
CC1=C(N=NN1CC2=CC=CC=C2)C(=O)NCCCCCN3CCN(CC3)C4=C(C(=CC=C4)Cl)Cl

> <PUBCHEM_CACTVS_TPSA>
66.3

> <PUBCHEM_MONOISOTOPIC_WEIGHT>
514.2014651

> <PUBCHEM_TOTAL_CHARGE>
0

> <PUBCHEM_HEAVY_ATOM_COUNT>
35

> <PUBCHEM_ATOM_DEF_STEREO_COUNT>
0

> <PUBCHEM_ATOM_UDEF_STEREO_COUNT>
0

> <PUBCHEM_BOND_DEF_STEREO_COUNT>
0

> <PUBCHEM_BOND_UDEF_STEREO_COUNT>
0

> <PUBCHEM_ISOTOPIC_ATOM_COUNT>
0

> <PUBCHEM_COMPONENT_COUNT>
1

> <PUBCHEM_CACTVS_TAUTO_COUNT>
-1

> <PUBCHEM_COORDINATE_TYPE>
1
5
255

> <PUBCHEM_BONDANNOTATIONS>
17  20  8
17  21  8
20  22  8
21  23  8
22  24  8
23  24  8
26  27  8
30  31  8
30  32  8
31  33  8
32  34  8
33  35  8
34  35  8
7  27  8
7  9  8
8  26  8
8  9  8

$$$$
