71540967
  -OEChem-09292322052D

 28 30  0     0  0  0  0  0  0999 V2000
    4.1087   -1.8076    0.0000 S   0  0  0  0  0  0  0  0  0  0  0  0
    5.8262    2.7767    0.0000 N   0  0  0  0  0  0  0  0  0  0  0  0
    2.7149   -1.0029    0.0000 N   0  0  0  0  0  0  0  0  0  0  0  0
    2.6200   -2.7767    0.0000 N   0  0  0  0  0  0  0  0  0  0  0  0
    5.1840    0.6642    0.0000 C   0  0  0  0  0  0  0  0  0  0  0  0
    4.3179    1.1642    0.0000 C   0  0  0  0  0  0  0  0  0  0  0  0
    6.0945    1.0287    0.0000 C   0  0  0  0  0  0  0  0  0  0  0  0
    4.1783    2.1350    0.0000 C   0  0  0  0  0  0  0  0  0  0  0  0
    6.3798    1.9670    0.0000 C   0  0  0  0  0  0  0  0  0  0  0  0
    4.8483    2.8513    0.0000 C   0  0  0  0  0  0  0  0  0  0  0  0
    5.1840   -0.3358    0.0000 C   0  0  0  0  0  0  0  0  0  0  0  0
    3.4519    0.6642    0.0000 C   0  0  0  0  0  0  0  0  0  0  0  0
    4.3179   -0.8358    0.0000 C   0  0  0  0  0  0  0  0  0  0  0  0
    3.4519   -0.3358    0.0000 C   0  0  0  0  0  0  0  0  0  0  0  0
    3.1200   -1.9106    0.0000 C   0  0  0  0  0  0  0  0  0  0  0  0
    6.1905    0.4162    0.0000 H   0  0  0  0  0  0  0  0  0  0  0  0
    6.7130    0.9854    0.0000 H   0  0  0  0  0  0  0  0  0  0  0  0
    3.8316    2.6490    0.0000 H   0  0  0  0  0  0  0  0  0  0  0  0
    3.5998    1.9119    0.0000 H   0  0  0  0  0  0  0  0  0  0  0  0
    6.9177    1.6587    0.0000 H   0  0  0  0  0  0  0  0  0  0  0  0
    6.8005    2.4225    0.0000 H   0  0  0  0  0  0  0  0  0  0  0  0
    5.0324    3.4433    0.0000 H   0  0  0  0  0  0  0  0  0  0  0  0
    4.3123    3.1630    0.0000 H   0  0  0  0  0  0  0  0  0  0  0  0
    6.1362    3.3136    0.0000 H   0  0  0  0  0  0  0  0  0  0  0  0
    5.7209   -0.6458    0.0000 H   0  0  0  0  0  0  0  0  0  0  0  0
    2.9150    0.9742    0.0000 H   0  0  0  0  0  0  0  0  0  0  0  0
    2.0000   -2.7767    0.0000 H   0  0  0  0  0  0  0  0  0  0  0  0
    2.9300   -3.3136    0.0000 H   0  0  0  0  0  0  0  0  0  0  0  0
  1 13  1  0  0  0  0
  1 15  1  0  0  0  0
  2  9  1  0  0  0  0
  2 10  1  0  0  0  0
  2 24  1  0  0  0  0
  3 14  1  0  0  0  0
  3 15  2  0  0  0  0
  4 15  1  0  0  0  0
  4 27  1  0  0  0  0
  4 28  1  0  0  0  0
  5  6  1  0  0  0  0
  5  7  1  0  0  0  0
  5 11  2  0  0  0  0
  6  8  1  0  0  0  0
  6 12  2  0  0  0  0
  7  9  1  0  0  0  0
  7 16  1  0  0  0  0
  7 17  1  0  0  0  0
  8 10  1  0  0  0  0
  8 18  1  0  0  0  0
  8 19  1  0  0  0  0
  9 20  1  0  0  0  0
  9 21  1  0  0  0  0
 10 22  1  0  0  0  0
 10 23  1  0  0  0  0
 11 13  1  0  0  0  0
 11 25  1  0  0  0  0
 12 14  1  0  0  0  0
 12 26  1  0  0  0  0
 13 14  2  0  0  0  0
M  END
> <PUBCHEM_COMPOUND_CID>
71540967

> <PUBCHEM_COMPOUND_CANONICALIZED>
1

> <PUBCHEM_CACTVS_COMPLEXITY>
236

> <PUBCHEM_CACTVS_HBOND_ACCEPTOR>
4

> <PUBCHEM_CACTVS_HBOND_DONOR>
2

> <PUBCHEM_CACTVS_ROTATABLE_BOND>
0

> <PUBCHEM_CACTVS_SUBSKEYS>
AAADccBzAABAAAAAAAAAAAAAAAAAAWAAAAAwAAAABYAAAFgB8AAAHAQQAAAADAjBXgQx0bLIEAikAyRiZACD8KlhCjlAmLw4ZJiIIKLgkZGEIAhgkALIyCcQgIAOmAAAwAAQAQAwAAGAACACAAAAAAAAAA==

> <PUBCHEM_IUPAC_OPENEYE_NAME>
6,7,8,9-tetrahydro-5H-thiazolo[4,5-h][3]benzazepin-2-amine

> <PUBCHEM_IUPAC_CAS_NAME>
6,7,8,9-tetrahydro-5H-thiazolo[4,5-h][3]benzazepin-2-amine

> <PUBCHEM_IUPAC_NAME_MARKUP>
6,7,8,9-tetrahydro-5<I>H</I>-[1,3]thiazolo[4,5-h][3]benzazepin-2-amine

> <PUBCHEM_IUPAC_NAME>
6,7,8,9-tetrahydro-5H-[1,3]thiazolo[4,5-h][3]benzazepin-2-amine

> <PUBCHEM_IUPAC_SYSTEMATIC_NAME>
6,7,8,9-tetrahydro-5H-[1,3]thiazolo[4,5-h][3]benzazepin-2-amine

> <PUBCHEM_IUPAC_TRADITIONAL_NAME>
6,7,8,9-tetrahydro-5H-thiazolo[4,5-h][3]benzazepin-2-ylamine

> <PUBCHEM_IUPAC_INCHI>
InChI=1S/C11H13N3S/c12-11-14-9-5-7-1-3-13-4-2-8(7)6-10(9)15-11/h5-6,13H,1-4H2,(H2,12,14)

> <PUBCHEM_IUPAC_INCHIKEY>
LHRPHLZKEFNWMU-UHFFFAOYSA-N

> <PUBCHEM_XLOGP3_AA>
1.9

> <PUBCHEM_EXACT_MASS>
219.08301860

> <PUBCHEM_MOLECULAR_FORMULA>
C11H13N3S

> <PUBCHEM_MOLECULAR_WEIGHT>
219.31

> <PUBCHEM_OPENEYE_CAN_SMILES>
C1CNCCC2=CC3=C(C=C21)N=C(S3)N

> <PUBCHEM_OPENEYE_ISO_SMILES>
C1CNCCC2=CC3=C(C=C21)N=C(S3)N

> <PUBCHEM_CACTVS_TPSA>
79.2

> <PUBCHEM_MONOISOTOPIC_WEIGHT>
219.08301860

> <PUBCHEM_TOTAL_CHARGE>
0

> <PUBCHEM_HEAVY_ATOM_COUNT>
15

> <PUBCHEM_ATOM_DEF_STEREO_COUNT>
0

> <PUBCHEM_ATOM_UDEF_STEREO_COUNT>
0

> <PUBCHEM_BOND_DEF_STEREO_COUNT>
0

> <PUBCHEM_BOND_UDEF_STEREO_COUNT>
0

> <PUBCHEM_ISOTOPIC_ATOM_COUNT>
0

> <PUBCHEM_COMPONENT_COUNT>
1

> <PUBCHEM_CACTVS_TAUTO_COUNT>
-1

> <PUBCHEM_COORDINATE_TYPE>
1
5
255

> <PUBCHEM_BONDANNOTATIONS>
1  13  8
1  15  8
11  13  8
12  14  8
13  14  8
3  14  8
3  15  8
5  11  8
5  6  8
6  12  8

$$$$
