44304314
  -OEChem-09292322032D

 48 52  0     0  0  0  0  0  0999 V2000
    6.0528   -0.0355    0.0000 N   0  0  0  0  0  0  0  0  0  0  0  0
    7.3738   -1.5372    0.0000 N   0  0  0  0  0  0  0  0  0  0  0  0
    9.0148   -2.0914    0.0000 N   0  0  0  0  0  0  0  0  0  0  0  0
    7.7143   -3.2355    0.0000 N   0  0  0  0  0  0  0  0  0  0  0  0
    7.0333    0.1610    0.0000 C   0  0  0  0  0  0  0  0  0  0  0  0
    5.7328   -0.9830    0.0000 C   0  0  0  0  0  0  0  0  0  0  0  0
    5.3923    0.7153    0.0000 C   0  0  0  0  0  0  0  0  0  0  0  0
    7.6938   -0.5898    0.0000 C   0  0  0  0  0  0  0  0  0  0  0  0
    6.3933   -1.7338    0.0000 C   0  0  0  0  0  0  0  0  0  0  0  0
    5.7123    1.6627    0.0000 C   0  0  0  0  0  0  0  0  0  0  0  0
    5.0274    2.4474    0.0000 C   0  0  0  0  0  0  0  0  0  0  0  0
    5.3364    3.3985    0.0000 C   0  0  0  0  0  0  0  0  0  0  0  0
    4.0274    2.4474    0.0000 C   0  0  0  0  0  0  0  0  0  0  0  0
    4.5274    3.9863    0.0000 C   0  0  0  0  0  0  0  0  0  0  0  0
    3.7183    3.3985    0.0000 C   0  0  0  0  0  0  0  0  0  0  0  0
    6.7328    1.8714    0.0000 C   0  0  0  0  0  0  0  0  0  0  0  0
    6.3518    3.6308    0.0000 C   0  0  0  0  0  0  0  0  0  0  0  0
    8.0343   -2.2880    0.0000 C   0  0  0  0  0  0  0  0  0  0  0  0
    7.0547    2.8621    0.0000 C   0  0  0  0  0  0  0  0  0  0  0  0
    3.3424    1.6627    0.0000 C   0  0  0  0  0  0  0  0  0  0  0  0
    2.7029    3.6308    0.0000 C   0  0  0  0  0  0  0  0  0  0  0  0
    2.3219    1.8714    0.0000 C   0  0  0  0  0  0  0  0  0  0  0  0
    2.0000    2.8621    0.0000 C   0  0  0  0  0  0  0  0  0  0  0  0
    9.6753   -2.8423    0.0000 C   0  0  0  0  0  0  0  0  0  0  0  0
    8.3748   -3.9863    0.0000 C   0  0  0  0  0  0  0  0  0  0  0  0
    9.3553   -3.7897    0.0000 C   0  0  0  0  0  0  0  0  0  0  0  0
    7.5629    0.4835    0.0000 H   0  0  0  0  0  0  0  0  0  0  0  0
    6.8077    0.7385    0.0000 H   0  0  0  0  0  0  0  0  0  0  0  0
    5.1888   -0.6856    0.0000 H   0  0  0  0  0  0  0  0  0  0  0  0
    5.3455   -1.4671    0.0000 H   0  0  0  0  0  0  0  0  0  0  0  0
    4.8483    1.0127    0.0000 H   0  0  0  0  0  0  0  0  0  0  0  0
    5.0050    0.2312    0.0000 H   0  0  0  0  0  0  0  0  0  0  0  0
    8.2378   -0.8872    0.0000 H   0  0  0  0  0  0  0  0  0  0  0  0
    8.0811   -0.1057    0.0000 H   0  0  0  0  0  0  0  0  0  0  0  0
    5.8638   -2.0562    0.0000 H   0  0  0  0  0  0  0  0  0  0  0  0
    6.6189   -2.3113    0.0000 H   0  0  0  0  0  0  0  0  0  0  0  0
    4.9422    4.4470    0.0000 H   0  0  0  0  0  0  0  0  0  0  0  0
    4.1125    4.4470    0.0000 H   0  0  0  0  0  0  0  0  0  0  0  0
    7.1459    1.4091    0.0000 H   0  0  0  0  0  0  0  0  0  0  0  0
    6.5365    4.2226    0.0000 H   0  0  0  0  0  0  0  0  0  0  0  0
    7.6607    2.9933    0.0000 H   0  0  0  0  0  0  0  0  0  0  0  0
    3.5408    1.0753    0.0000 H   0  0  0  0  0  0  0  0  0  0  0  0
    2.5182    4.2226    0.0000 H   0  0  0  0  0  0  0  0  0  0  0  0
    1.9088    1.4091    0.0000 H   0  0  0  0  0  0  0  0  0  0  0  0
    1.3940    2.9933    0.0000 H   0  0  0  0  0  0  0  0  0  0  0  0
    8.1764   -4.5737    0.0000 H   0  0  0  0  0  0  0  0  0  0  0  0
   10.2832   -2.7204    0.0000 H   0  0  0  0  0  0  0  0  0  0  0  0
    9.7648   -4.2552    0.0000 H   0  0  0  0  0  0  0  0  0  0  0  0
  1  5  1  0  0  0  0
  1  6  1  0  0  0  0
  1  7  1  0  0  0  0
  2  8  1  0  0  0  0
  2  9  1  0  0  0  0
  2 18  1  0  0  0  0
  3 18  2  0  0  0  0
  3 24  1  0  0  0  0
  4 18  1  0  0  0  0
  4 25  2  0  0  0  0
  5  8  1  0  0  0  0
  5 27  1  0  0  0  0
  5 28  1  0  0  0  0
  6  9  1  0  0  0  0
  6 29  1  0  0  0  0
  6 30  1  0  0  0  0
  7 10  1  0  0  0  0
  7 31  1  0  0  0  0
  7 32  1  0  0  0  0
  8 33  1  0  0  0  0
  8 34  1  0  0  0  0
  9 35  1  0  0  0  0
  9 36  1  0  0  0  0
 10 11  1  0  0  0  0
 10 16  2  0  0  0  0
 11 12  2  0  0  0  0
 11 13  1  0  0  0  0
 12 14  1  0  0  0  0
 12 17  1  0  0  0  0
 13 15  1  0  0  0  0
 13 20  2  0  0  0  0
 14 15  1  0  0  0  0
 14 37  1  0  0  0  0
 14 38  1  0  0  0  0
 15 21  2  0  0  0  0
 16 19  1  0  0  0  0
 16 39  1  0  0  0  0
 17 19  2  0  0  0  0
 17 40  1  0  0  0  0
 19 41  1  0  0  0  0
 20 22  1  0  0  0  0
 20 42  1  0  0  0  0
 21 23  1  0  0  0  0
 21 43  1  0  0  0  0
 22 23  2  0  0  0  0
 22 44  1  0  0  0  0
 23 45  1  0  0  0  0
 24 26  2  0  0  0  0
 24 47  1  0  0  0  0
 25 26  1  0  0  0  0
 25 46  1  0  0  0  0
 26 48  1  0  0  0  0
M  END
> <PUBCHEM_COMPOUND_CID>
44304314

> <PUBCHEM_COMPOUND_CANONICALIZED>
1

> <PUBCHEM_CACTVS_COMPLEXITY>
455

> <PUBCHEM_CACTVS_HBOND_ACCEPTOR>
4

> <PUBCHEM_CACTVS_HBOND_DONOR>
0

> <PUBCHEM_CACTVS_ROTATABLE_BOND>
3

> <PUBCHEM_CACTVS_SUBSKEYS>
AAADceB7gAAAAAAAAAAAAAAAAAAAAYAAAAA8eIEAAAAAAGAB0AAAHAAAAAAADADBGgQ9kJcIEACgAjBnZACCgCkxAqAJ2CA4ZJiIaKLA2VGUJAhogALIiCcQgMAOgAACAAAQAAAAAAQAACAAAQAACAAAAA==

> <PUBCHEM_IUPAC_OPENEYE_NAME>
2-[4-(9H-fluoren-4-ylmethyl)piperazin-1-yl]pyrimidine

> <PUBCHEM_IUPAC_CAS_NAME>
2-[4-(9H-fluoren-4-ylmethyl)-1-piperazinyl]pyrimidine

> <PUBCHEM_IUPAC_NAME_MARKUP>
2-[4-(9<I>H</I>-fluoren-4-ylmethyl)piperazin-1-yl]pyrimidine

> <PUBCHEM_IUPAC_NAME>
2-[4-(9H-fluoren-4-ylmethyl)piperazin-1-yl]pyrimidine

> <PUBCHEM_IUPAC_SYSTEMATIC_NAME>
2-[4-(9H-fluoren-4-ylmethyl)piperazin-1-yl]pyrimidine

> <PUBCHEM_IUPAC_TRADITIONAL_NAME>
2-[4-(9H-fluoren-4-ylmethyl)piperazino]pyrimidine

> <PUBCHEM_IUPAC_INCHI>
InChI=1S/C22H22N4/c1-2-8-20-17(5-1)15-18-6-3-7-19(21(18)20)16-25-11-13-26(14-12-25)22-23-9-4-10-24-22/h1-10H,11-16H2

> <PUBCHEM_IUPAC_INCHIKEY>
GARRNCFUWHSEJV-UHFFFAOYSA-N

> <PUBCHEM_XLOGP3_AA>
3.6

> <PUBCHEM_EXACT_MASS>
342.18444672

> <PUBCHEM_MOLECULAR_FORMULA>
C22H22N4

> <PUBCHEM_MOLECULAR_WEIGHT>
342.4

> <PUBCHEM_OPENEYE_CAN_SMILES>
C1CN(CCN1CC2=CC=CC3=C2C4=CC=CC=C4C3)C5=NC=CC=N5

> <PUBCHEM_OPENEYE_ISO_SMILES>
C1CN(CCN1CC2=CC=CC3=C2C4=CC=CC=C4C3)C5=NC=CC=N5

> <PUBCHEM_CACTVS_TPSA>
32.3

> <PUBCHEM_MONOISOTOPIC_WEIGHT>
342.18444672

> <PUBCHEM_TOTAL_CHARGE>
0

> <PUBCHEM_HEAVY_ATOM_COUNT>
26

> <PUBCHEM_ATOM_DEF_STEREO_COUNT>
0

> <PUBCHEM_ATOM_UDEF_STEREO_COUNT>
0

> <PUBCHEM_BOND_DEF_STEREO_COUNT>
0

> <PUBCHEM_BOND_UDEF_STEREO_COUNT>
0

> <PUBCHEM_ISOTOPIC_ATOM_COUNT>
0

> <PUBCHEM_COMPONENT_COUNT>
1

> <PUBCHEM_CACTVS_TAUTO_COUNT>
-1

> <PUBCHEM_COORDINATE_TYPE>
1
5
255

> <PUBCHEM_BONDANNOTATIONS>
10  11  8
10  16  8
11  12  8
12  17  8
13  15  8
13  20  8
15  21  8
16  19  8
17  19  8
20  22  8
21  23  8
22  23  8
24  26  8
25  26  8
3  18  8
3  24  8
4  18  8
4  25  8

$$$$
