9992903
  -OEChem-09292322132D

 45 46  0     1  0  0  0  0  0999 V2000
    9.8602   -2.2568    0.0000 O   0  0  0  0  0  0  0  0  0  0  0  0
    4.5981   -0.2327    0.0000 N   0  0  0  0  0  0  0  0  0  0  0  0
    8.0901   -2.2673    0.0000 N   0  0  0  0  0  0  0  0  0  0  0  0
    5.4641   -0.7327    0.0000 C   0  0  3  0  0  0  0  0  0  0  0  0
    5.4641   -1.7327    0.0000 C   0  0  0  0  0  0  0  0  0  0  0  0
    6.3301   -0.2327    0.0000 C   0  0  0  0  0  0  0  0  0  0  0  0
    6.3301   -2.2327    0.0000 C   0  0  0  0  0  0  0  0  0  0  0  0
    7.1962   -0.7327    0.0000 C   0  0  0  0  0  0  0  0  0  0  0  0
    7.1962   -1.7327    0.0000 C   0  0  0  0  0  0  0  0  0  0  0  0
    3.7320   -0.7327    0.0000 C   0  0  0  0  0  0  0  0  0  0  0  0
    4.5981    0.7673    0.0000 C   0  0  0  0  0  0  0  0  0  0  0  0
    2.8660   -0.2327    0.0000 C   0  0  0  0  0  0  0  0  0  0  0  0
    3.7320    1.2673    0.0000 C   0  0  0  0  0  0  0  0  0  0  0  0
    8.0901   -0.1980    0.0000 C   0  0  0  0  0  0  0  0  0  0  0  0
    8.9962   -0.7119    0.0000 C   0  0  0  0  0  0  0  0  0  0  0  0
    2.0000   -0.7327    0.0000 C   0  0  0  0  0  0  0  0  0  0  0  0
    3.7320    2.2673    0.0000 C   0  0  0  0  0  0  0  0  0  0  0  0
    8.9962   -1.7535    0.0000 C   0  0  0  0  0  0  0  0  0  0  0  0
   10.7282   -1.7602    0.0000 C   0  0  0  0  0  0  0  0  0  0  0  0
    5.4641   -0.1127    0.0000 H   0  0  0  0  0  0  0  0  0  0  0  0
    4.8535   -1.6250    0.0000 H   0  0  0  0  0  0  0  0  0  0  0  0
    5.2520   -2.3153    0.0000 H   0  0  0  0  0  0  0  0  0  0  0  0
    6.7287    0.2423    0.0000 H   0  0  0  0  0  0  0  0  0  0  0  0
    5.9316    0.2423    0.0000 H   0  0  0  0  0  0  0  0  0  0  0  0
    5.9316   -2.7076    0.0000 H   0  0  0  0  0  0  0  0  0  0  0  0
    6.7287   -2.7076    0.0000 H   0  0  0  0  0  0  0  0  0  0  0  0
    3.3335   -1.2076    0.0000 H   0  0  0  0  0  0  0  0  0  0  0  0
    4.1306   -1.2076    0.0000 H   0  0  0  0  0  0  0  0  0  0  0  0
    5.2087    0.6597    0.0000 H   0  0  0  0  0  0  0  0  0  0  0  0
    4.8101    1.3499    0.0000 H   0  0  0  0  0  0  0  0  0  0  0  0
    3.2646    0.2423    0.0000 H   0  0  0  0  0  0  0  0  0  0  0  0
    2.4675    0.2423    0.0000 H   0  0  0  0  0  0  0  0  0  0  0  0
    3.1215    1.3750    0.0000 H   0  0  0  0  0  0  0  0  0  0  0  0
    3.5200    0.6847    0.0000 H   0  0  0  0  0  0  0  0  0  0  0  0
    8.0829    0.4220    0.0000 H   0  0  0  0  0  0  0  0  0  0  0  0
    9.5319   -0.3998    0.0000 H   0  0  0  0  0  0  0  0  0  0  0  0
    1.6900   -0.1957    0.0000 H   0  0  0  0  0  0  0  0  0  0  0  0
    1.4631   -1.0427    0.0000 H   0  0  0  0  0  0  0  0  0  0  0  0
    2.3100   -1.2696    0.0000 H   0  0  0  0  0  0  0  0  0  0  0  0
    4.3520    2.2673    0.0000 H   0  0  0  0  0  0  0  0  0  0  0  0
    3.7320    2.8873    0.0000 H   0  0  0  0  0  0  0  0  0  0  0  0
    3.1120    2.2673    0.0000 H   0  0  0  0  0  0  0  0  0  0  0  0
   11.0361   -2.2983    0.0000 H   0  0  0  0  0  0  0  0  0  0  0  0
   11.2663   -1.4522    0.0000 H   0  0  0  0  0  0  0  0  0  0  0  0
   10.4203   -1.2220    0.0000 H   0  0  0  0  0  0  0  0  0  0  0  0
  1 18  1  0  0  0  0
  1 19  1  0  0  0  0
  2  4  1  0  0  0  0
  2 10  1  0  0  0  0
  2 11  1  0  0  0  0
  3  9  1  0  0  0  0
  3 18  2  0  0  0  0
  4  5  1  0  0  0  0
  4  6  1  0  0  0  0
  4 20  1  0  0  0  0
  5  7  1  0  0  0  0
  5 21  1  0  0  0  0
  5 22  1  0  0  0  0
  6  8  1  0  0  0  0
  6 23  1  0  0  0  0
  6 24  1  0  0  0  0
  7  9  1  0  0  0  0
  7 25  1  0  0  0  0
  7 26  1  0  0  0  0
  8  9  2  0  0  0  0
  8 14  1  0  0  0  0
 10 12  1  0  0  0  0
 10 27  1  0  0  0  0
 10 28  1  0  0  0  0
 11 13  1  0  0  0  0
 11 29  1  0  0  0  0
 11 30  1  0  0  0  0
 12 16  1  0  0  0  0
 12 31  1  0  0  0  0
 12 32  1  0  0  0  0
 13 17  1  0  0  0  0
 13 33  1  0  0  0  0
 13 34  1  0  0  0  0
 14 15  2  0  0  0  0
 14 35  1  0  0  0  0
 15 18  1  0  0  0  0
 15 36  1  0  0  0  0
 16 37  1  0  0  0  0
 16 38  1  0  0  0  0
 16 39  1  0  0  0  0
 17 40  1  0  0  0  0
 17 41  1  0  0  0  0
 17 42  1  0  0  0  0
 19 43  1  0  0  0  0
 19 44  1  0  0  0  0
 19 45  1  0  0  0  0
M  END
> <PUBCHEM_COMPOUND_CID>
9992903

> <PUBCHEM_COMPOUND_CANONICALIZED>
1

> <PUBCHEM_CACTVS_COMPLEXITY>
253

> <PUBCHEM_CACTVS_HBOND_ACCEPTOR>
3

> <PUBCHEM_CACTVS_HBOND_DONOR>
0

> <PUBCHEM_CACTVS_ROTATABLE_BOND>
6

> <PUBCHEM_CACTVS_SUBSKEYS>
AAADceB7IAAAAAAAAAAAAAAAAAAAAAAAAAA8QAAAAAAAAACxgAAAHgAAAAAADCjBngYyhJMIFACgAyRiRACCiCAhIiAImCA+bJgMJuLEsZuEMChkwBHI6AeQ0KEOAAAAAAAAAAAAAQCAAAQAAAAAAAAAAA==

> <PUBCHEM_IUPAC_OPENEYE_NAME>
2-methoxy-N,N-dipropyl-5,6,7,8-tetrahydroquinolin-6-amine

> <PUBCHEM_IUPAC_CAS_NAME>
2-methoxy-N,N-dipropyl-5,6,7,8-tetrahydroquinolin-6-amine

> <PUBCHEM_IUPAC_NAME_MARKUP>
2-methoxy-<I>N</I>,<I>N</I>-dipropyl-5,6,7,8-tetrahydroquinolin-6-amine

> <PUBCHEM_IUPAC_NAME>
2-methoxy-N,N-dipropyl-5,6,7,8-tetrahydroquinolin-6-amine

> <PUBCHEM_IUPAC_SYSTEMATIC_NAME>
2-methoxy-N,N-dipropyl-5,6,7,8-tetrahydroquinolin-6-amine

> <PUBCHEM_IUPAC_TRADITIONAL_NAME>
(2-methoxy-5,6,7,8-tetrahydroquinolin-6-yl)-dipropyl-amine

> <PUBCHEM_IUPAC_INCHI>
InChI=1S/C16H26N2O/c1-4-10-18(11-5-2)14-7-8-15-13(12-14)6-9-16(17-15)19-3/h6,9,14H,4-5,7-8,10-12H2,1-3H3

> <PUBCHEM_IUPAC_INCHIKEY>
CQPLSAHLVMGWEI-UHFFFAOYSA-N

> <PUBCHEM_XLOGP3_AA>
3.7

> <PUBCHEM_EXACT_MASS>
262.204513457

> <PUBCHEM_MOLECULAR_FORMULA>
C16H26N2O

> <PUBCHEM_MOLECULAR_WEIGHT>
262.39

> <PUBCHEM_OPENEYE_CAN_SMILES>
CCCN(CCC)C1CCC2=C(C1)C=CC(=N2)OC

> <PUBCHEM_OPENEYE_ISO_SMILES>
CCCN(CCC)C1CCC2=C(C1)C=CC(=N2)OC

> <PUBCHEM_CACTVS_TPSA>
25.4

> <PUBCHEM_MONOISOTOPIC_WEIGHT>
262.204513457

> <PUBCHEM_TOTAL_CHARGE>
0

> <PUBCHEM_HEAVY_ATOM_COUNT>
19

> <PUBCHEM_ATOM_DEF_STEREO_COUNT>
0

> <PUBCHEM_ATOM_UDEF_STEREO_COUNT>
1

> <PUBCHEM_BOND_DEF_STEREO_COUNT>
0

> <PUBCHEM_BOND_UDEF_STEREO_COUNT>
0

> <PUBCHEM_ISOTOPIC_ATOM_COUNT>
0

> <PUBCHEM_COMPONENT_COUNT>
1

> <PUBCHEM_CACTVS_TAUTO_COUNT>
-1

> <PUBCHEM_COORDINATE_TYPE>
1
5
255

> <PUBCHEM_BONDANNOTATIONS>
14  15  8
15  18  8
4  2  3
3  18  8
3  9  8
8  14  8
8  9  8

$$$$
