18427972
  -OEChem-09292322092D

 46 48  0     0  0  0  0  0  0999 V2000
    5.7320    6.4820    0.0000 Cl  0  0  0  0  0  0  0  0  0  0  0  0
    2.8660   -6.4820    0.0000 F   0  0  0  0  0  0  0  0  0  0  0  0
    3.2320    3.8840    0.0000 O   0  0  0  0  0  0  0  0  0  0  0  0
    3.7320    1.0180    0.0000 N   0  0  0  0  0  0  0  0  0  0  0  0
    3.7320    3.0180    0.0000 C   0  0  0  0  0  0  0  0  0  0  0  0
    2.8660    2.5180    0.0000 C   0  0  0  0  0  0  0  0  0  0  0  0
    4.5981    2.5180    0.0000 C   0  0  0  0  0  0  0  0  0  0  0  0
    2.8660    1.5180    0.0000 C   0  0  0  0  0  0  0  0  0  0  0  0
    4.5981    1.5180    0.0000 C   0  0  0  0  0  0  0  0  0  0  0  0
    4.2320    3.8840    0.0000 C   0  0  0  0  0  0  0  0  0  0  0  0
    3.7320    0.0179    0.0000 C   0  0  0  0  0  0  0  0  0  0  0  0
    3.7320    4.7500    0.0000 C   0  0  0  0  0  0  0  0  0  0  0  0
    5.2320    3.8840    0.0000 C   0  0  0  0  0  0  0  0  0  0  0  0
    2.8660   -0.4821    0.0000 C   0  0  0  0  0  0  0  0  0  0  0  0
    4.2320    5.6160    0.0000 C   0  0  0  0  0  0  0  0  0  0  0  0
    5.7320    4.7500    0.0000 C   0  0  0  0  0  0  0  0  0  0  0  0
    5.2320    5.6160    0.0000 C   0  0  0  0  0  0  0  0  0  0  0  0
    2.8660   -1.4820    0.0000 C   0  0  0  0  0  0  0  0  0  0  0  0
    2.8660   -2.4820    0.0000 C   0  0  0  0  0  0  0  0  0  0  0  0
    2.8660   -3.4820    0.0000 C   0  0  0  0  0  0  0  0  0  0  0  0
    2.0000   -3.9820    0.0000 C   0  0  0  0  0  0  0  0  0  0  0  0
    3.7320   -3.9820    0.0000 C   0  0  0  0  0  0  0  0  0  0  0  0
    2.0000   -4.9820    0.0000 C   0  0  0  0  0  0  0  0  0  0  0  0
    3.7320   -4.9820    0.0000 C   0  0  0  0  0  0  0  0  0  0  0  0
    2.8660   -5.4820    0.0000 C   0  0  0  0  0  0  0  0  0  0  0  0
    2.6540    3.1006    0.0000 H   0  0  0  0  0  0  0  0  0  0  0  0
    2.2554    2.4103    0.0000 H   0  0  0  0  0  0  0  0  0  0  0  0
    5.2087    2.4103    0.0000 H   0  0  0  0  0  0  0  0  0  0  0  0
    4.8101    3.1006    0.0000 H   0  0  0  0  0  0  0  0  0  0  0  0
    2.2554    1.6256    0.0000 H   0  0  0  0  0  0  0  0  0  0  0  0
    2.6540    0.9353    0.0000 H   0  0  0  0  0  0  0  0  0  0  0  0
    4.8101    0.9353    0.0000 H   0  0  0  0  0  0  0  0  0  0  0  0
    5.2087    1.6256    0.0000 H   0  0  0  0  0  0  0  0  0  0  0  0
    3.9441   -0.5647    0.0000 H   0  0  0  0  0  0  0  0  0  0  0  0
    4.3426    0.1256    0.0000 H   0  0  0  0  0  0  0  0  0  0  0  0
    2.6120    3.8840    0.0000 H   0  0  0  0  0  0  0  0  0  0  0  0
    3.1120    4.7500    0.0000 H   0  0  0  0  0  0  0  0  0  0  0  0
    5.5420    3.3470    0.0000 H   0  0  0  0  0  0  0  0  0  0  0  0
    2.6540    0.1006    0.0000 H   0  0  0  0  0  0  0  0  0  0  0  0
    2.2554   -0.5897    0.0000 H   0  0  0  0  0  0  0  0  0  0  0  0
    3.9220    6.1530    0.0000 H   0  0  0  0  0  0  0  0  0  0  0  0
    6.3520    4.7500    0.0000 H   0  0  0  0  0  0  0  0  0  0  0  0
    1.4631   -3.6720    0.0000 H   0  0  0  0  0  0  0  0  0  0  0  0
    4.2690   -3.6720    0.0000 H   0  0  0  0  0  0  0  0  0  0  0  0
    1.4631   -5.2920    0.0000 H   0  0  0  0  0  0  0  0  0  0  0  0
    4.2690   -5.2920    0.0000 H   0  0  0  0  0  0  0  0  0  0  0  0
  1 17  1  0  0  0  0
  2 25  1  0  0  0  0
  3  5  1  0  0  0  0
  3 36  1  0  0  0  0
  4  8  1  0  0  0  0
  4  9  1  0  0  0  0
  4 11  1  0  0  0  0
  5  6  1  0  0  0  0
  5  7  1  0  0  0  0
  5 10  1  0  0  0  0
  6  8  1  0  0  0  0
  6 26  1  0  0  0  0
  6 27  1  0  0  0  0
  7  9  1  0  0  0  0
  7 28  1  0  0  0  0
  7 29  1  0  0  0  0
  8 30  1  0  0  0  0
  8 31  1  0  0  0  0
  9 32  1  0  0  0  0
  9 33  1  0  0  0  0
 10 12  2  0  0  0  0
 10 13  1  0  0  0  0
 11 14  1  0  0  0  0
 11 34  1  0  0  0  0
 11 35  1  0  0  0  0
 12 15  1  0  0  0  0
 12 37  1  0  0  0  0
 13 16  2  0  0  0  0
 13 38  1  0  0  0  0
 14 18  1  0  0  0  0
 14 39  1  0  0  0  0
 14 40  1  0  0  0  0
 15 17  2  0  0  0  0
 15 41  1  0  0  0  0
 16 17  1  0  0  0  0
 16 42  1  0  0  0  0
 18 19  3  0  0  0  0
 19 20  1  0  0  0  0
 20 21  2  0  0  0  0
 20 22  1  0  0  0  0
 21 23  1  0  0  0  0
 21 43  1  0  0  0  0
 22 24  2  0  0  0  0
 22 44  1  0  0  0  0
 23 25  2  0  0  0  0
 23 45  1  0  0  0  0
 24 25  1  0  0  0  0
 24 46  1  0  0  0  0
M  END
> <PUBCHEM_COMPOUND_CID>
18427972

> <PUBCHEM_COMPOUND_CANONICALIZED>
1

> <PUBCHEM_CACTVS_COMPLEXITY>
475

> <PUBCHEM_CACTVS_HBOND_ACCEPTOR>
3

> <PUBCHEM_CACTVS_HBOND_DONOR>
1

> <PUBCHEM_CACTVS_ROTATABLE_BOND>
4

> <PUBCHEM_CACTVS_SUBSKEYS>
AAADceB6IQAEAAAAAAAAAAAAAAAAAAAAAAA8YIAAAAAAAAABQAAAHwIACAAADEbBmCwwAIMAAgDAEiBCAAgCAAAgBQAIiAAICogIJiKBkxCEcAAmwAGImAeQwOAOhAAAAAAAAAAIAAAAAAAAAAAAAAAAAA==

> <PUBCHEM_IUPAC_OPENEYE_NAME>
4-(4-chlorophenyl)-1-[4-(4-fluorophenyl)but-3-ynyl]piperidin-4-ol

> <PUBCHEM_IUPAC_CAS_NAME>
4-(4-chlorophenyl)-1-[4-(4-fluorophenyl)but-3-ynyl]-4-piperidinol

> <PUBCHEM_IUPAC_NAME_MARKUP>
4-(4-chlorophenyl)-1-[4-(4-fluorophenyl)but-3-ynyl]piperidin-4-ol

> <PUBCHEM_IUPAC_NAME>
4-(4-chlorophenyl)-1-[4-(4-fluorophenyl)but-3-ynyl]piperidin-4-ol

> <PUBCHEM_IUPAC_SYSTEMATIC_NAME>
4-(4-chlorophenyl)-1-[4-(4-fluorophenyl)but-3-ynyl]piperidin-4-ol

> <PUBCHEM_IUPAC_TRADITIONAL_NAME>
4-(4-chlorophenyl)-1-[4-(4-fluorophenyl)but-3-ynyl]piperidin-4-ol

> <PUBCHEM_IUPAC_INCHI>
InChI=1S/C21H21ClFNO/c22-19-8-6-18(7-9-19)21(25)12-15-24(16-13-21)14-2-1-3-17-4-10-20(23)11-5-17/h4-11,25H,2,12-16H2

> <PUBCHEM_IUPAC_INCHIKEY>
FCFNEHFCHRJYQM-UHFFFAOYSA-N

> <PUBCHEM_XLOGP3_AA>
4.5

> <PUBCHEM_EXACT_MASS>
357.1295701

> <PUBCHEM_MOLECULAR_FORMULA>
C21H21ClFNO

> <PUBCHEM_MOLECULAR_WEIGHT>
357.8

> <PUBCHEM_OPENEYE_CAN_SMILES>
C1CN(CCC1(C2=CC=C(C=C2)Cl)O)CCC#CC3=CC=C(C=C3)F

> <PUBCHEM_OPENEYE_ISO_SMILES>
C1CN(CCC1(C2=CC=C(C=C2)Cl)O)CCC#CC3=CC=C(C=C3)F

> <PUBCHEM_CACTVS_TPSA>
23.5

> <PUBCHEM_MONOISOTOPIC_WEIGHT>
357.1295701

> <PUBCHEM_TOTAL_CHARGE>
0

> <PUBCHEM_HEAVY_ATOM_COUNT>
25

> <PUBCHEM_ATOM_DEF_STEREO_COUNT>
0

> <PUBCHEM_ATOM_UDEF_STEREO_COUNT>
0

> <PUBCHEM_BOND_DEF_STEREO_COUNT>
0

> <PUBCHEM_BOND_UDEF_STEREO_COUNT>
0

> <PUBCHEM_ISOTOPIC_ATOM_COUNT>
0

> <PUBCHEM_COMPONENT_COUNT>
1

> <PUBCHEM_CACTVS_TAUTO_COUNT>
-1

> <PUBCHEM_COORDINATE_TYPE>
1
5
255

> <PUBCHEM_BONDANNOTATIONS>
10  12  8
10  13  8
12  15  8
13  16  8
15  17  8
16  17  8
20  21  8
20  22  8
21  23  8
22  24  8
23  25  8
24  25  8

$$$$
