155552826
  -OEChem-09292322462D

 35 37  0     0  0  0  0  0  0999 V2000
    2.8660   -0.5199    0.0000 O   0  0  0  0  0  0  0  0  0  0  0  0
    3.7320    0.9801    0.0000 O   0  0  0  0  0  0  0  0  0  0  0  0
    7.0006    1.5454    0.0000 N   0  0  0  0  0  0  0  0  0  0  0  0
    7.2764   -1.8247    0.0000 N   0  0  0  0  0  0  0  0  0  0  0  0
    8.5403    2.0427    0.0000 N   0  0  0  0  0  0  0  0  0  0  0  0
    7.2764   -0.2152    0.0000 C   0  0  0  0  0  0  0  0  0  0  0  0
    6.3301   -0.5199    0.0000 C   0  0  0  0  0  0  0  0  0  0  0  0
    7.5870    0.7353    0.0000 C   0  0  0  0  0  0  0  0  0  0  0  0
    6.3301   -1.5199    0.0000 C   0  0  0  0  0  0  0  0  0  0  0  0
    7.8600   -1.0199    0.0000 C   0  0  0  0  0  0  0  0  0  0  0  0
    5.4641   -0.0199    0.0000 C   0  0  0  0  0  0  0  0  0  0  0  0
    6.0006    1.5471    0.0000 C   0  0  0  0  0  0  0  0  0  0  0  0
    5.4641   -2.0199    0.0000 C   0  0  0  0  0  0  0  0  0  0  0  0
    8.5386    1.0427    0.0000 C   0  0  0  0  0  0  0  0  0  0  0  0
    4.5981   -0.5199    0.0000 C   0  0  0  0  0  0  0  0  0  0  0  0
    7.5898    2.3534    0.0000 C   0  0  0  0  0  0  0  0  0  0  0  0
    4.5981   -1.5199    0.0000 C   0  0  0  0  0  0  0  0  0  0  0  0
    5.5021    2.4140    0.0000 C   0  0  0  0  0  0  0  0  0  0  0  0
    3.7320   -0.0199    0.0000 C   0  0  0  0  0  0  0  0  0  0  0  0
    2.0000   -0.0199    0.0000 C   0  0  0  0  0  0  0  0  0  0  0  0
    8.4800   -1.0199    0.0000 H   0  0  0  0  0  0  0  0  0  0  0  0
    7.4690   -2.4140    0.0000 H   0  0  0  0  0  0  0  0  0  0  0  0
    5.4641    0.6001    0.0000 H   0  0  0  0  0  0  0  0  0  0  0  0
    5.4176    1.3360    0.0000 H   0  0  0  0  0  0  0  0  0  0  0  0
    6.1072    0.9363    0.0000 H   0  0  0  0  0  0  0  0  0  0  0  0
    5.4641   -2.6399    0.0000 H   0  0  0  0  0  0  0  0  0  0  0  0
    9.0396    0.6774    0.0000 H   0  0  0  0  0  0  0  0  0  0  0  0
    7.3992    2.9433    0.0000 H   0  0  0  0  0  0  0  0  0  0  0  0
    4.0611   -1.8299    0.0000 H   0  0  0  0  0  0  0  0  0  0  0  0
    6.0396    2.7231    0.0000 H   0  0  0  0  0  0  0  0  0  0  0  0
    5.1931    2.9514    0.0000 H   0  0  0  0  0  0  0  0  0  0  0  0
    4.9646    2.1049    0.0000 H   0  0  0  0  0  0  0  0  0  0  0  0
    2.3100    0.5170    0.0000 H   0  0  0  0  0  0  0  0  0  0  0  0
    1.4631    0.2901    0.0000 H   0  0  0  0  0  0  0  0  0  0  0  0
    1.6900   -0.5569    0.0000 H   0  0  0  0  0  0  0  0  0  0  0  0
  1 19  1  0  0  0  0
  1 20  1  0  0  0  0
  2 19  2  0  0  0  0
  3  8  1  0  0  0  0
  3 12  1  0  0  0  0
  3 16  1  0  0  0  0
  4  9  1  0  0  0  0
  4 10  1  0  0  0  0
  4 22  1  0  0  0  0
  5 14  1  0  0  0  0
  5 16  2  0  0  0  0
  6  7  1  0  0  0  0
  6  8  1  0  0  0  0
  6 10  2  0  0  0  0
  7  9  2  0  0  0  0
  7 11  1  0  0  0  0
  8 14  2  0  0  0  0
  9 13  1  0  0  0  0
 10 21  1  0  0  0  0
 11 15  2  0  0  0  0
 11 23  1  0  0  0  0
 12 18  1  0  0  0  0
 12 24  1  0  0  0  0
 12 25  1  0  0  0  0
 13 17  2  0  0  0  0
 13 26  1  0  0  0  0
 14 27  1  0  0  0  0
 15 17  1  0  0  0  0
 15 19  1  0  0  0  0
 16 28  1  0  0  0  0
 17 29  1  0  0  0  0
 18 30  1  0  0  0  0
 18 31  1  0  0  0  0
 18 32  1  0  0  0  0
 20 33  1  0  0  0  0
 20 34  1  0  0  0  0
 20 35  1  0  0  0  0
M  END
> <PUBCHEM_COMPOUND_CID>
155552826

> <PUBCHEM_COMPOUND_CANONICALIZED>
1

> <PUBCHEM_CACTVS_COMPLEXITY>
363

> <PUBCHEM_CACTVS_HBOND_ACCEPTOR>
3

> <PUBCHEM_CACTVS_HBOND_DONOR>
1

> <PUBCHEM_CACTVS_ROTATABLE_BOND>
4

> <PUBCHEM_CACTVS_SUBSKEYS>
AAADccBzMAAAAAAAAAAAAAAAAAAAAWLAAAAwAAAAAAAAAFgB/AAAHgAQAAAADAjBngY/2PfNlACoAzT3bACCgC01EqAJ2aE4fNiIbvLA/ZmUMQhs0API6aeY2fOeiAACAAACAAAQAAQAAAQAAAAAAAAAAA==

> <PUBCHEM_IUPAC_OPENEYE_NAME>
methyl 3-(3-ethylimidazol-4-yl)-1H-indole-5-carboxylate

> <PUBCHEM_IUPAC_CAS_NAME>
3-(3-ethyl-4-imidazolyl)-1H-indole-5-carboxylic acid methyl ester

> <PUBCHEM_IUPAC_NAME_MARKUP>
methyl 3-(3-ethylimidazol-4-yl)-1<I>H</I>-indole-5-carboxylate

> <PUBCHEM_IUPAC_NAME>
methyl 3-(3-ethylimidazol-4-yl)-1H-indole-5-carboxylate

> <PUBCHEM_IUPAC_SYSTEMATIC_NAME>
methyl 3-(3-ethylimidazol-4-yl)-1H-indole-5-carboxylate

> <PUBCHEM_IUPAC_TRADITIONAL_NAME>
3-(3-ethylimidazol-4-yl)-1H-indole-5-carboxylic acid methyl ester

> <PUBCHEM_IUPAC_INCHI>
InChI=1S/C15H15N3O2/c1-3-18-9-16-8-14(18)12-7-17-13-5-4-10(6-11(12)13)15(19)20-2/h4-9,17H,3H2,1-2H3

> <PUBCHEM_IUPAC_INCHIKEY>
JBKOPAJOLXKSND-UHFFFAOYSA-N

> <PUBCHEM_XLOGP3_AA>
2

> <PUBCHEM_EXACT_MASS>
269.116426730

> <PUBCHEM_MOLECULAR_FORMULA>
C15H15N3O2

> <PUBCHEM_MOLECULAR_WEIGHT>
269.30

> <PUBCHEM_OPENEYE_CAN_SMILES>
CCN1C=NC=C1C2=CNC3=C2C=C(C=C3)C(=O)OC

> <PUBCHEM_OPENEYE_ISO_SMILES>
CCN1C=NC=C1C2=CNC3=C2C=C(C=C3)C(=O)OC

> <PUBCHEM_CACTVS_TPSA>
59.9

> <PUBCHEM_MONOISOTOPIC_WEIGHT>
269.116426730

> <PUBCHEM_TOTAL_CHARGE>
0

> <PUBCHEM_HEAVY_ATOM_COUNT>
20

> <PUBCHEM_ATOM_DEF_STEREO_COUNT>
0

> <PUBCHEM_ATOM_UDEF_STEREO_COUNT>
0

> <PUBCHEM_BOND_DEF_STEREO_COUNT>
0

> <PUBCHEM_BOND_UDEF_STEREO_COUNT>
0

> <PUBCHEM_ISOTOPIC_ATOM_COUNT>
0

> <PUBCHEM_COMPONENT_COUNT>
1

> <PUBCHEM_CACTVS_TAUTO_COUNT>
-1

> <PUBCHEM_COORDINATE_TYPE>
1
5
255

> <PUBCHEM_BONDANNOTATIONS>
11  15  8
13  17  8
15  17  8
3  16  8
3  8  8
4  10  8
4  9  8
5  14  8
5  16  8
6  10  8
6  7  8
7  11  8
7  9  8
8  14  8
9  13  8

$$$$
