10596978
  -OEChem-09292322142D

 59 62  0     0  0  0  0  0  0999 V2000
    5.4071    5.8184    0.0000 S   0  0  0  0  0  0  0  0  0  0  0  0
    5.4641    3.7306    0.0000 O   0  0  0  0  0  0  0  0  0  0  0  0
    2.8660   -1.7694    0.0000 N   0  0  0  0  0  0  0  0  0  0  0  0
    3.7320    3.7306    0.0000 N   0  0  0  0  0  0  0  0  0  0  0  0
    2.8660   -3.7694    0.0000 N   0  0  0  0  0  0  0  0  0  0  0  0
    3.7320    0.7306    0.0000 C   0  0  0  0  0  0  0  0  0  0  0  0
    2.8660    1.2306    0.0000 C   0  0  0  0  0  0  0  0  0  0  0  0
    4.5981    1.2306    0.0000 C   0  0  0  0  0  0  0  0  0  0  0  0
    3.7320    2.7306    0.0000 C   0  0  0  0  0  0  0  0  0  0  0  0
    2.8660    2.2306    0.0000 C   0  0  0  0  0  0  0  0  0  0  0  0
    4.5981    2.2306    0.0000 C   0  0  0  0  0  0  0  0  0  0  0  0
    3.7320   -0.2694    0.0000 C   0  0  0  0  0  0  0  0  0  0  0  0
    2.8660   -0.7694    0.0000 C   0  0  0  0  0  0  0  0  0  0  0  0
    2.0000   -2.2694    0.0000 C   0  0  0  0  0  0  0  0  0  0  0  0
    3.7320   -2.2694    0.0000 C   0  0  0  0  0  0  0  0  0  0  0  0
    2.0000   -3.2694    0.0000 C   0  0  0  0  0  0  0  0  0  0  0  0
    3.7320   -3.2694    0.0000 C   0  0  0  0  0  0  0  0  0  0  0  0
    4.5981    4.2306    0.0000 C   0  0  0  0  0  0  0  0  0  0  0  0
    2.8660   -4.7694    0.0000 C   0  0  0  0  0  0  0  0  0  0  0  0
    4.5981    5.2306    0.0000 C   0  0  0  0  0  0  0  0  0  0  0  0
    3.7320   -5.2694    0.0000 C   0  0  0  0  0  0  0  0  0  0  0  0
    2.0000   -5.2694    0.0000 C   0  0  0  0  0  0  0  0  0  0  0  0
    3.7320   -6.2694    0.0000 C   0  0  0  0  0  0  0  0  0  0  0  0
    2.0000   -6.2694    0.0000 C   0  0  0  0  0  0  0  0  0  0  0  0
    3.7891    5.8184    0.0000 C   0  0  0  0  0  0  0  0  0  0  0  0
    2.8660   -6.7694    0.0000 C   0  0  0  0  0  0  0  0  0  0  0  0
    4.0981    6.7694    0.0000 C   0  0  0  0  0  0  0  0  0  0  0  0
    5.0981    6.7694    0.0000 C   0  0  0  0  0  0  0  0  0  0  0  0
    4.2690    0.4206    0.0000 H   0  0  0  0  0  0  0  0  0  0  0  0
    2.2554    1.3382    0.0000 H   0  0  0  0  0  0  0  0  0  0  0  0
    2.6540    0.6480    0.0000 H   0  0  0  0  0  0  0  0  0  0  0  0
    4.8101    0.6480    0.0000 H   0  0  0  0  0  0  0  0  0  0  0  0
    5.2087    1.3382    0.0000 H   0  0  0  0  0  0  0  0  0  0  0  0
    4.2690    3.0406    0.0000 H   0  0  0  0  0  0  0  0  0  0  0  0
    2.6540    2.8132    0.0000 H   0  0  0  0  0  0  0  0  0  0  0  0
    2.2554    2.1229    0.0000 H   0  0  0  0  0  0  0  0  0  0  0  0
    5.2087    2.1229    0.0000 H   0  0  0  0  0  0  0  0  0  0  0  0
    4.8101    2.8132    0.0000 H   0  0  0  0  0  0  0  0  0  0  0  0
    3.9441   -0.8520    0.0000 H   0  0  0  0  0  0  0  0  0  0  0  0
    4.3426   -0.1618    0.0000 H   0  0  0  0  0  0  0  0  0  0  0  0
    2.6540   -0.1868    0.0000 H   0  0  0  0  0  0  0  0  0  0  0  0
    2.2554   -0.8771    0.0000 H   0  0  0  0  0  0  0  0  0  0  0  0
    1.7880   -1.6868    0.0000 H   0  0  0  0  0  0  0  0  0  0  0  0
    1.3894   -2.3771    0.0000 H   0  0  0  0  0  0  0  0  0  0  0  0
    4.3426   -2.3771    0.0000 H   0  0  0  0  0  0  0  0  0  0  0  0
    3.9441   -1.6868    0.0000 H   0  0  0  0  0  0  0  0  0  0  0  0
    3.1951    4.0406    0.0000 H   0  0  0  0  0  0  0  0  0  0  0  0
    1.3894   -3.1618    0.0000 H   0  0  0  0  0  0  0  0  0  0  0  0
    1.7880   -3.8520    0.0000 H   0  0  0  0  0  0  0  0  0  0  0  0
    3.9441   -3.8520    0.0000 H   0  0  0  0  0  0  0  0  0  0  0  0
    4.3426   -3.1618    0.0000 H   0  0  0  0  0  0  0  0  0  0  0  0
    4.2690   -4.9594    0.0000 H   0  0  0  0  0  0  0  0  0  0  0  0
    1.4631   -4.9594    0.0000 H   0  0  0  0  0  0  0  0  0  0  0  0
    4.2690   -6.5794    0.0000 H   0  0  0  0  0  0  0  0  0  0  0  0
    1.4631   -6.5794    0.0000 H   0  0  0  0  0  0  0  0  0  0  0  0
    3.1994    5.6268    0.0000 H   0  0  0  0  0  0  0  0  0  0  0  0
    2.8660   -7.3894    0.0000 H   0  0  0  0  0  0  0  0  0  0  0  0
    3.7336    7.2710    0.0000 H   0  0  0  0  0  0  0  0  0  0  0  0
    5.4625    7.2710    0.0000 H   0  0  0  0  0  0  0  0  0  0  0  0
  1 20  1  0  0  0  0
  1 28  1  0  0  0  0
  2 18  2  0  0  0  0
  3 13  1  0  0  0  0
  3 14  1  0  0  0  0
  3 15  1  0  0  0  0
  4  9  1  0  0  0  0
  4 18  1  0  0  0  0
  4 47  1  0  0  0  0
  5 16  1  0  0  0  0
  5 17  1  0  0  0  0
  5 19  1  0  0  0  0
  6  7  1  0  0  0  0
  6  8  1  0  0  0  0
  6 12  1  0  0  0  0
  6 29  1  0  0  0  0
  7 10  1  0  0  0  0
  7 30  1  0  0  0  0
  7 31  1  0  0  0  0
  8 11  1  0  0  0  0
  8 32  1  0  0  0  0
  8 33  1  0  0  0  0
  9 10  1  0  0  0  0
  9 11  1  0  0  0  0
  9 34  1  0  0  0  0
 10 35  1  0  0  0  0
 10 36  1  0  0  0  0
 11 37  1  0  0  0  0
 11 38  1  0  0  0  0
 12 13  1  0  0  0  0
 12 39  1  0  0  0  0
 12 40  1  0  0  0  0
 13 41  1  0  0  0  0
 13 42  1  0  0  0  0
 14 16  1  0  0  0  0
 14 43  1  0  0  0  0
 14 44  1  0  0  0  0
 15 17  1  0  0  0  0
 15 45  1  0  0  0  0
 15 46  1  0  0  0  0
 16 48  1  0  0  0  0
 16 49  1  0  0  0  0
 17 50  1  0  0  0  0
 17 51  1  0  0  0  0
 18 20  1  0  0  0  0
 19 21  2  0  0  0  0
 19 22  1  0  0  0  0
 20 25  2  0  0  0  0
 21 23  1  0  0  0  0
 21 52  1  0  0  0  0
 22 24  2  0  0  0  0
 22 53  1  0  0  0  0
 23 26  2  0  0  0  0
 23 54  1  0  0  0  0
 24 26  1  0  0  0  0
 24 55  1  0  0  0  0
 25 27  1  0  0  0  0
 25 56  1  0  0  0  0
 26 57  1  0  0  0  0
 27 28  2  0  0  0  0
 27 58  1  0  0  0  0
 28 59  1  0  0  0  0
M  END
> <PUBCHEM_COMPOUND_CID>
10596978

> <PUBCHEM_COMPOUND_CANONICALIZED>
1

> <PUBCHEM_CACTVS_COMPLEXITY>
480

> <PUBCHEM_CACTVS_HBOND_ACCEPTOR>
4

> <PUBCHEM_CACTVS_HBOND_DONOR>
1

> <PUBCHEM_CACTVS_ROTATABLE_BOND>
6

> <PUBCHEM_CACTVS_SUBSKEYS>
AAADceB7IABAAAAAAAAAAAAAAAAAASAAAAA8YIAAAAAAAAABwAAAHgQQAAAADSjF0ASwwYPAAAiMACVSUACDAIAlChBIiJkIZMgIYDLglZGUIQhglgDoyYcYgIAOAAAAAAAAAAAQAAAAAAAAAAAAAAAAAA==

> <PUBCHEM_IUPAC_OPENEYE_NAME>
N-[4-[2-(4-phenylpiperazin-1-yl)ethyl]cyclohexyl]thiophene-2-carboxamide

> <PUBCHEM_IUPAC_CAS_NAME>
N-[4-[2-(4-phenyl-1-piperazinyl)ethyl]cyclohexyl]-2-thiophenecarboxamide

> <PUBCHEM_IUPAC_NAME_MARKUP>
<I>N</I>-[4-[2-(4-phenylpiperazin-1-yl)ethyl]cyclohexyl]thiophene-2-carboxamide

> <PUBCHEM_IUPAC_NAME>
N-[4-[2-(4-phenylpiperazin-1-yl)ethyl]cyclohexyl]thiophene-2-carboxamide

> <PUBCHEM_IUPAC_SYSTEMATIC_NAME>
N-[4-[2-(4-phenylpiperazin-1-yl)ethyl]cyclohexyl]thiophene-2-carboxamide

> <PUBCHEM_IUPAC_TRADITIONAL_NAME>
N-[4-[2-(4-phenylpiperazino)ethyl]cyclohexyl]thiophene-2-carboxamide

> <PUBCHEM_IUPAC_INCHI>
InChI=1S/C23H31N3OS/c27-23(22-7-4-18-28-22)24-20-10-8-19(9-11-20)12-13-25-14-16-26(17-15-25)21-5-2-1-3-6-21/h1-7,18-20H,8-17H2,(H,24,27)

> <PUBCHEM_IUPAC_INCHIKEY>
CEJURZXMIYUTSE-UHFFFAOYSA-N

> <PUBCHEM_XLOGP3_AA>
4.7

> <PUBCHEM_EXACT_MASS>
397.21878379

> <PUBCHEM_MOLECULAR_FORMULA>
C23H31N3OS

> <PUBCHEM_MOLECULAR_WEIGHT>
397.6

> <PUBCHEM_OPENEYE_CAN_SMILES>
C1CC(CCC1CCN2CCN(CC2)C3=CC=CC=C3)NC(=O)C4=CC=CS4

> <PUBCHEM_OPENEYE_ISO_SMILES>
C1CC(CCC1CCN2CCN(CC2)C3=CC=CC=C3)NC(=O)C4=CC=CS4

> <PUBCHEM_CACTVS_TPSA>
63.8

> <PUBCHEM_MONOISOTOPIC_WEIGHT>
397.21878379

> <PUBCHEM_TOTAL_CHARGE>
0

> <PUBCHEM_HEAVY_ATOM_COUNT>
28

> <PUBCHEM_ATOM_DEF_STEREO_COUNT>
0

> <PUBCHEM_ATOM_UDEF_STEREO_COUNT>
0

> <PUBCHEM_BOND_DEF_STEREO_COUNT>
0

> <PUBCHEM_BOND_UDEF_STEREO_COUNT>
0

> <PUBCHEM_ISOTOPIC_ATOM_COUNT>
0

> <PUBCHEM_COMPONENT_COUNT>
1

> <PUBCHEM_CACTVS_TAUTO_COUNT>
-1

> <PUBCHEM_COORDINATE_TYPE>
1
5
255

> <PUBCHEM_BONDANNOTATIONS>
1  20  8
1  28  8
19  21  8
19  22  8
20  25  8
21  23  8
22  24  8
23  26  8
24  26  8
25  27  8
27  28  8

$$$$
