156077377
  -OEChem-09292322452D

 66 71  0     1  0  0  0  0  0999 V2000
    2.8090    4.2255    0.0000 O   0  0  0  0  0  0  0  0  0  0  0  0
    8.4459   -2.3133    0.0000 O   0  0  0  0  0  0  0  0  0  0  0  0
    5.8479    3.1867    0.0000 N   0  0  3  0  0  0  0  0  0  0  0  0
    3.7601    3.9165    0.0000 N   0  0  0  0  0  0  0  0  0  0  0  0
    6.7139   -2.3133    0.0000 N   0  0  0  0  0  0  0  0  0  0  0  0
    9.9758   -4.8133    0.0000 N   0  0  0  0  0  0  0  0  0  0  0  0
    9.3922   -5.6180    0.0000 N   0  0  0  0  0  0  0  0  0  0  0  0
    5.3479    4.7255    0.0000 C   0  0  3  0  0  0  0  0  0  0  0  0
    6.3479    4.7255    0.0000 C   0  0  3  0  0  0  0  0  0  0  0  0
    5.8479    5.5921    0.0000 C   0  0  0  0  0  0  0  0  0  0  0  0
    5.0388    3.7745    0.0000 C   0  0  0  0  0  0  0  0  0  0  0  0
    6.6569    3.7745    0.0000 C   0  0  0  0  0  0  0  0  0  0  0  0
    4.3479    4.7255    0.0000 C   0  0  0  0  0  0  0  0  0  0  0  0
    5.8479    2.1867    0.0000 C   0  0  0  0  0  0  0  0  0  0  0  0
    6.7139    1.6867    0.0000 C   0  0  0  0  0  0  0  0  0  0  0  0
    3.7601    5.5346    0.0000 C   0  0  0  0  0  0  0  0  0  0  0  0
    6.7139    0.6867    0.0000 C   0  0  0  0  0  0  0  0  0  0  0  0
    2.8090    5.2255    0.0000 C   0  0  0  0  0  0  0  0  0  0  0  0
    7.5799    0.1867    0.0000 C   0  0  0  0  0  0  0  0  0  0  0  0
    5.8479    0.1867    0.0000 C   0  0  0  0  0  0  0  0  0  0  0  0
    7.5799   -0.8133    0.0000 C   0  0  0  0  0  0  0  0  0  0  0  0
    5.8479   -0.8133    0.0000 C   0  0  0  0  0  0  0  0  0  0  0  0
    6.7139   -1.3133    0.0000 C   0  0  0  0  0  0  0  0  0  0  0  0
    2.0000    5.8133    0.0000 C   0  0  0  0  0  0  0  0  0  0  0  0
    7.5799   -2.8133    0.0000 C   0  0  0  0  0  0  0  0  0  0  0  0
    7.5799   -3.8133    0.0000 C   0  0  0  0  0  0  0  0  0  0  0  0
    8.4459   -4.3133    0.0000 C   0  0  0  0  0  0  0  0  0  0  0  0
    6.7139   -4.3133    0.0000 C   0  0  0  0  0  0  0  0  0  0  0  0
    8.4459   -5.3133    0.0000 C   0  0  0  0  0  0  0  0  0  0  0  0
    9.3922   -4.0086    0.0000 C   0  0  0  0  0  0  0  0  0  0  0  0
    6.7139   -5.3133    0.0000 C   0  0  0  0  0  0  0  0  0  0  0  0
    7.5799   -5.8133    0.0000 C   0  0  0  0  0  0  0  0  0  0  0  0
   10.9758   -4.8133    0.0000 C   0  0  0  0  0  0  0  0  0  0  0  0
    6.9143    4.9776    0.0000 H   0  0  0  0  0  0  0  0  0  0  0  0
    6.3228    5.9906    0.0000 H   0  0  0  0  0  0  0  0  0  0  0  0
    5.3729    5.9906    0.0000 H   0  0  0  0  0  0  0  0  0  0  0  0
    4.4724    4.0266    0.0000 H   0  0  0  0  0  0  0  0  0  0  0  0
    4.7288    3.2375    0.0000 H   0  0  0  0  0  0  0  0  0  0  0  0
    6.9669    3.2375    0.0000 H   0  0  0  0  0  0  0  0  0  0  0  0
    7.2233    4.0266    0.0000 H   0  0  0  0  0  0  0  0  0  0  0  0
    5.2373    2.2944    0.0000 H   0  0  0  0  0  0  0  0  0  0  0  0
    5.6358    1.6041    0.0000 H   0  0  0  0  0  0  0  0  0  0  0  0
    7.3245    1.5790    0.0000 H   0  0  0  0  0  0  0  0  0  0  0  0
    6.9259    2.2693    0.0000 H   0  0  0  0  0  0  0  0  0  0  0  0
    3.9517    6.1242    0.0000 H   0  0  0  0  0  0  0  0  0  0  0  0
    7.2508    0.9967    0.0000 H   0  0  0  0  0  0  0  0  0  0  0  0
    8.1905    0.0790    0.0000 H   0  0  0  0  0  0  0  0  0  0  0  0
    7.7920    0.7693    0.0000 H   0  0  0  0  0  0  0  0  0  0  0  0
    5.6358    0.7693    0.0000 H   0  0  0  0  0  0  0  0  0  0  0  0
    5.2373    0.0790    0.0000 H   0  0  0  0  0  0  0  0  0  0  0  0
    7.7920   -1.3959    0.0000 H   0  0  0  0  0  0  0  0  0  0  0  0
    8.1905   -0.7057    0.0000 H   0  0  0  0  0  0  0  0  0  0  0  0
    5.2373   -0.7057    0.0000 H   0  0  0  0  0  0  0  0  0  0  0  0
    5.6358   -1.3959    0.0000 H   0  0  0  0  0  0  0  0  0  0  0  0
    7.2508   -1.6233    0.0000 H   0  0  0  0  0  0  0  0  0  0  0  0
    2.3644    6.3149    0.0000 H   0  0  0  0  0  0  0  0  0  0  0  0
    1.4984    6.1777    0.0000 H   0  0  0  0  0  0  0  0  0  0  0  0
    1.6356    5.3117    0.0000 H   0  0  0  0  0  0  0  0  0  0  0  0
    6.1770   -2.6233    0.0000 H   0  0  0  0  0  0  0  0  0  0  0  0
    6.1770   -4.0033    0.0000 H   0  0  0  0  0  0  0  0  0  0  0  0
    9.5848   -3.4193    0.0000 H   0  0  0  0  0  0  0  0  0  0  0  0
    6.1770   -5.6233    0.0000 H   0  0  0  0  0  0  0  0  0  0  0  0
    7.5799   -6.4333    0.0000 H   0  0  0  0  0  0  0  0  0  0  0  0
   10.9758   -5.4333    0.0000 H   0  0  0  0  0  0  0  0  0  0  0  0
   11.5958   -4.8133    0.0000 H   0  0  0  0  0  0  0  0  0  0  0  0
   10.9758   -4.1933    0.0000 H   0  0  0  0  0  0  0  0  0  0  0  0
  1  4  1  0  0  0  0
  1 18  1  0  0  0  0
  2 25  2  0  0  0  0
  3 11  1  0  0  0  0
  3 12  1  0  0  0  0
  3 14  1  0  0  0  0
  4 13  2  0  0  0  0
  5 23  1  0  0  0  0
  5 25  1  0  0  0  0
  5 59  1  0  0  0  0
  6  7  1  0  0  0  0
  6 30  1  0  0  0  0
  6 33  1  0  0  0  0
  7 29  2  0  0  0  0
  8  9  1  0  0  0  0
  8 10  1  0  0  0  0
  8 11  1  0  0  0  0
  8 13  1  0  0  0  0
  9 10  1  0  0  0  0
  9 12  1  0  0  0  0
  9 34  1  0  0  0  0
 10 35  1  0  0  0  0
 10 36  1  0  0  0  0
 11 37  1  0  0  0  0
 11 38  1  0  0  0  0
 12 39  1  0  0  0  0
 12 40  1  0  0  0  0
 13 16  1  0  0  0  0
 14 15  1  0  0  0  0
 14 41  1  0  0  0  0
 14 42  1  0  0  0  0
 15 17  1  0  0  0  0
 15 43  1  0  0  0  0
 15 44  1  0  0  0  0
 16 18  2  0  0  0  0
 16 45  1  0  0  0  0
 17 19  1  0  0  0  0
 17 20  1  0  0  0  0
 17 46  1  0  0  0  0
 18 24  1  0  0  0  0
 19 21  1  0  0  0  0
 19 47  1  0  0  0  0
 19 48  1  0  0  0  0
 20 22  1  0  0  0  0
 20 49  1  0  0  0  0
 20 50  1  0  0  0  0
 21 23  1  0  0  0  0
 21 51  1  0  0  0  0
 21 52  1  0  0  0  0
 22 23  1  0  0  0  0
 22 53  1  0  0  0  0
 22 54  1  0  0  0  0
 23 55  1  0  0  0  0
 24 56  1  0  0  0  0
 24 57  1  0  0  0  0
 24 58  1  0  0  0  0
 25 26  1  0  0  0  0
 26 27  1  0  0  0  0
 26 28  2  0  0  0  0
 27 29  1  0  0  0  0
 27 30  2  0  0  0  0
 28 31  1  0  0  0  0
 28 60  1  0  0  0  0
 29 32  1  0  0  0  0
 30 61  1  0  0  0  0
 31 32  2  0  0  0  0
 31 62  1  0  0  0  0
 32 63  1  0  0  0  0
 33 64  1  0  0  0  0
 33 65  1  0  0  0  0
 33 66  1  0  0  0  0
M  END
> <PUBCHEM_COMPOUND_CID>
156077377

> <PUBCHEM_COMPOUND_CANONICALIZED>
1

> <PUBCHEM_CACTVS_COMPLEXITY>
728

> <PUBCHEM_CACTVS_HBOND_ACCEPTOR>
5

> <PUBCHEM_CACTVS_HBOND_DONOR>
1

> <PUBCHEM_CACTVS_ROTATABLE_BOND>
6

> <PUBCHEM_CACTVS_SUBSKEYS>
AAADcfB7sAAAAAAAAAAAAAAAGAAAAWLFgAA8YIAAAAAAAFgB/AAAHgAcAAAADyzBngQ+xPPYAACrA7V3VgCSBAA1ogA42KE+bNoIJrrA1dOEtYhmnhjIycec2fKPgAAAQAASAAAQAACAACQAAAAAAAAAAA==

> <PUBCHEM_IUPAC_OPENEYE_NAME>
2-methyl-N-[4-[2-[1-(5-methylisoxazol-3-yl)-3-azabicyclo[3.1.0]hexan-3-yl]ethyl]cyclohexyl]indazole-4-carboxamide

> <PUBCHEM_IUPAC_CAS_NAME>
2-methyl-N-[4-[2-[1-(5-methyl-3-isoxazolyl)-3-azabicyclo[3.1.0]hexan-3-yl]ethyl]cyclohexyl]-4-indazolecarboxamide

> <PUBCHEM_IUPAC_NAME_MARKUP>
2-methyl-<I>N</I>-[4-[2-[1-(5-methyl-1,2-oxazol-3-yl)-3-azabicyclo[3.1.0]hexan-3-yl]ethyl]cyclohexyl]indazole-4-carboxamide

> <PUBCHEM_IUPAC_NAME>
2-methyl-N-[4-[2-[1-(5-methyl-1,2-oxazol-3-yl)-3-azabicyclo[3.1.0]hexan-3-yl]ethyl]cyclohexyl]indazole-4-carboxamide

> <PUBCHEM_IUPAC_SYSTEMATIC_NAME>
2-methyl-N-[4-[2-[1-(5-methyl-1,2-oxazol-3-yl)-3-azabicyclo[3.1.0]hexan-3-yl]ethyl]cyclohexyl]indazole-4-carboxamide

> <PUBCHEM_IUPAC_TRADITIONAL_NAME>
2-methyl-N-[4-[2-[1-(5-methylisoxazol-3-yl)-3-azabicyclo[3.1.0]hexan-3-yl]ethyl]cyclohexyl]indazole-4-carboxamide

> <PUBCHEM_IUPAC_INCHI>
InChI=1S/C26H33N5O2/c1-17-12-24(29-33-17)26-13-19(26)14-31(16-26)11-10-18-6-8-20(9-7-18)27-25(32)21-4-3-5-23-22(21)15-30(2)28-23/h3-5,12,15,18-20H,6-11,13-14,16H2,1-2H3,(H,27,32)

> <PUBCHEM_IUPAC_INCHIKEY>
AEXGGULFDFKXQV-UHFFFAOYSA-N

> <PUBCHEM_XLOGP3_AA>
3.6

> <PUBCHEM_EXACT_MASS>
447.26342531

> <PUBCHEM_MOLECULAR_FORMULA>
C26H33N5O2

> <PUBCHEM_MOLECULAR_WEIGHT>
447.6

> <PUBCHEM_OPENEYE_CAN_SMILES>
CC1=CC(=NO1)C23CC2CN(C3)CCC4CCC(CC4)NC(=O)C5=CC=CC6=NN(C=C65)C

> <PUBCHEM_OPENEYE_ISO_SMILES>
CC1=CC(=NO1)C23CC2CN(C3)CCC4CCC(CC4)NC(=O)C5=CC=CC6=NN(C=C65)C

> <PUBCHEM_CACTVS_TPSA>
76.2

> <PUBCHEM_MONOISOTOPIC_WEIGHT>
447.26342531

> <PUBCHEM_TOTAL_CHARGE>
0

> <PUBCHEM_HEAVY_ATOM_COUNT>
33

> <PUBCHEM_ATOM_DEF_STEREO_COUNT>
0

> <PUBCHEM_ATOM_UDEF_STEREO_COUNT>
2

> <PUBCHEM_BOND_DEF_STEREO_COUNT>
0

> <PUBCHEM_BOND_UDEF_STEREO_COUNT>
0

> <PUBCHEM_ISOTOPIC_ATOM_COUNT>
0

> <PUBCHEM_COMPONENT_COUNT>
1

> <PUBCHEM_CACTVS_TAUTO_COUNT>
-1

> <PUBCHEM_COORDINATE_TYPE>
1
5
255

> <PUBCHEM_BONDANNOTATIONS>
1  18  8
1  4  8
13  16  8
16  18  8
26  27  8
26  28  8
27  29  8
27  30  8
28  31  8
29  32  8
31  32  8
4  13  8
6  30  8
6  7  8
7  29  8
8  13  3
9  10  3

$$$$
