72736381
  -OEChem-09292322342D

 54 56  0     1  0  0  0  0  0999 V2000
   12.4603   -1.4573    0.0000 O   0  0  0  0  0  0  0  0  0  0  0  0
   11.5942    0.0427    0.0000 O   0  0  0  0  0  0  0  0  0  0  0  0
    5.5321    0.5427    0.0000 N   0  0  3  0  0  0  0  0  0  0  0  0
   10.7282   -1.4573    0.0000 N   0  0  0  0  0  0  0  0  0  0  0  0
    5.5321    1.5427    0.0000 C   0  0  0  0  0  0  0  0  0  0  0  0
    4.6660    0.0427    0.0000 C   0  0  0  0  0  0  0  0  0  0  0  0
    4.6660    2.0427    0.0000 C   0  0  0  0  0  0  0  0  0  0  0  0
    6.3981    0.0427    0.0000 C   0  0  0  0  0  0  0  0  0  0  0  0
    3.8000    0.5427    0.0000 C   0  0  0  0  0  0  0  0  0  0  0  0
    3.8000    1.5427    0.0000 C   0  0  0  0  0  0  0  0  0  0  0  0
    7.2641    0.5427    0.0000 C   0  0  0  0  0  0  0  0  0  0  0  0
    2.9061    0.0080    0.0000 C   0  0  0  0  0  0  0  0  0  0  0  0
    2.9061    2.0773    0.0000 C   0  0  0  0  0  0  0  0  0  0  0  0
    8.1301    0.0427    0.0000 C   0  0  0  0  0  0  0  0  0  0  0  0
    2.0000    0.5219    0.0000 C   0  0  0  0  0  0  0  0  0  0  0  0
    2.0000    1.5635    0.0000 C   0  0  0  0  0  0  0  0  0  0  0  0
    8.1301   -0.9573    0.0000 C   0  0  0  0  0  0  0  0  0  0  0  0
    8.9962    0.5427    0.0000 C   0  0  0  0  0  0  0  0  0  0  0  0
   13.3263   -0.9573    0.0000 C   0  0  0  0  0  0  0  0  0  0  0  0
    9.8622   -0.9573    0.0000 C   0  0  0  0  0  0  0  0  0  0  0  0
    8.9962   -1.4573    0.0000 C   0  0  0  0  0  0  0  0  0  0  0  0
    9.8622    0.0427    0.0000 C   0  0  0  0  0  0  0  0  0  0  0  0
   14.1923   -0.4573    0.0000 C   0  0  0  0  0  0  0  0  0  0  0  0
   13.8263   -1.8234    0.0000 C   0  0  0  0  0  0  0  0  0  0  0  0
   12.8263   -0.0913    0.0000 C   0  0  0  0  0  0  0  0  0  0  0  0
   11.5942   -0.9573    0.0000 C   0  0  0  0  0  0  0  0  0  0  0  0
    6.1426    1.4350    0.0000 H   0  0  0  0  0  0  0  0  0  0  0  0
    5.7441    2.1253    0.0000 H   0  0  0  0  0  0  0  0  0  0  0  0
    4.2675   -0.4323    0.0000 H   0  0  0  0  0  0  0  0  0  0  0  0
    5.0646   -0.4323    0.0000 H   0  0  0  0  0  0  0  0  0  0  0  0
    5.0646    2.5176    0.0000 H   0  0  0  0  0  0  0  0  0  0  0  0
    4.2675    2.5176    0.0000 H   0  0  0  0  0  0  0  0  0  0  0  0
    5.9996   -0.4323    0.0000 H   0  0  0  0  0  0  0  0  0  0  0  0
    6.7966   -0.4323    0.0000 H   0  0  0  0  0  0  0  0  0  0  0  0
    7.6626    1.0176    0.0000 H   0  0  0  0  0  0  0  0  0  0  0  0
    6.8656    1.0176    0.0000 H   0  0  0  0  0  0  0  0  0  0  0  0
    2.9132   -0.6120    0.0000 H   0  0  0  0  0  0  0  0  0  0  0  0
    2.9132    2.6973    0.0000 H   0  0  0  0  0  0  0  0  0  0  0  0
    1.4643    0.2098    0.0000 H   0  0  0  0  0  0  0  0  0  0  0  0
    1.4643    1.8756    0.0000 H   0  0  0  0  0  0  0  0  0  0  0  0
    7.5932   -1.2673    0.0000 H   0  0  0  0  0  0  0  0  0  0  0  0
    8.9962    1.1627    0.0000 H   0  0  0  0  0  0  0  0  0  0  0  0
    8.9962   -2.0773    0.0000 H   0  0  0  0  0  0  0  0  0  0  0  0
   10.3991    0.3527    0.0000 H   0  0  0  0  0  0  0  0  0  0  0  0
   14.5023   -0.9943    0.0000 H   0  0  0  0  0  0  0  0  0  0  0  0
   14.7292   -0.1473    0.0000 H   0  0  0  0  0  0  0  0  0  0  0  0
   13.8823    0.0796    0.0000 H   0  0  0  0  0  0  0  0  0  0  0  0
   13.2894   -2.1334    0.0000 H   0  0  0  0  0  0  0  0  0  0  0  0
   14.1363   -2.3603    0.0000 H   0  0  0  0  0  0  0  0  0  0  0  0
   14.3632   -1.5134    0.0000 H   0  0  0  0  0  0  0  0  0  0  0  0
   13.3632    0.2187    0.0000 H   0  0  0  0  0  0  0  0  0  0  0  0
   12.5163    0.4456    0.0000 H   0  0  0  0  0  0  0  0  0  0  0  0
   12.2894   -0.4013    0.0000 H   0  0  0  0  0  0  0  0  0  0  0  0
   10.7282   -2.0773    0.0000 H   0  0  0  0  0  0  0  0  0  0  0  0
  1 19  1  0  0  0  0
  1 26  1  0  0  0  0
  2 26  2  0  0  0  0
  3  5  1  0  0  0  0
  3  6  1  0  0  0  0
  3  8  1  0  0  0  0
  4 20  1  0  0  0  0
  4 26  1  0  0  0  0
  4 54  1  0  0  0  0
  5  7  1  0  0  0  0
  5 27  1  0  0  0  0
  5 28  1  0  0  0  0
  6  9  1  0  0  0  0
  6 29  1  0  0  0  0
  6 30  1  0  0  0  0
  7 10  1  0  0  0  0
  7 31  1  0  0  0  0
  7 32  1  0  0  0  0
  8 11  1  0  0  0  0
  8 33  1  0  0  0  0
  8 34  1  0  0  0  0
  9 10  1  0  0  0  0
  9 12  2  0  0  0  0
 10 13  2  0  0  0  0
 11 14  1  0  0  0  0
 11 35  1  0  0  0  0
 11 36  1  0  0  0  0
 12 15  1  0  0  0  0
 12 37  1  0  0  0  0
 13 16  1  0  0  0  0
 13 38  1  0  0  0  0
 14 17  2  0  0  0  0
 14 18  1  0  0  0  0
 15 16  2  0  0  0  0
 15 39  1  0  0  0  0
 16 40  1  0  0  0  0
 17 21  1  0  0  0  0
 17 41  1  0  0  0  0
 18 22  2  0  0  0  0
 18 42  1  0  0  0  0
 19 23  1  0  0  0  0
 19 24  1  0  0  0  0
 19 25  1  0  0  0  0
 20 21  2  0  0  0  0
 20 22  1  0  0  0  0
 21 43  1  0  0  0  0
 22 44  1  0  0  0  0
 23 45  1  0  0  0  0
 23 46  1  0  0  0  0
 23 47  1  0  0  0  0
 24 48  1  0  0  0  0
 24 49  1  0  0  0  0
 24 50  1  0  0  0  0
 25 51  1  0  0  0  0
 25 52  1  0  0  0  0
 25 53  1  0  0  0  0
M  END
> <PUBCHEM_COMPOUND_CID>
72736381

> <PUBCHEM_COMPOUND_CANONICALIZED>
1

> <PUBCHEM_CACTVS_COMPLEXITY>
452

> <PUBCHEM_CACTVS_HBOND_ACCEPTOR>
3

> <PUBCHEM_CACTVS_HBOND_DONOR>
1

> <PUBCHEM_CACTVS_ROTATABLE_BOND>
6

> <PUBCHEM_CACTVS_SUBSKEYS>
AAADceB7MAAAAAAAAAAAAAAAAAAAAAAAAAA8YIAAAAAAAACxQAAAHgAQAAAADEzBmAQyyIPABACIAiRCWACCAAAhAgAIiAAIZIkIICLAkZGMIAhglADIyAcQgIAOiAAAAAAQAAAQAAAAACAAAAAAAAAAAA==

> <PUBCHEM_IUPAC_OPENEYE_NAME>
tert-butyl N-[4-[2-(3,4-dihydro-1H-isoquinolin-2-yl)ethyl]phenyl]carbamate

> <PUBCHEM_IUPAC_CAS_NAME>
N-[4-[2-(3,4-dihydro-1H-isoquinolin-2-yl)ethyl]phenyl]carbamic acid tert-butyl ester

> <PUBCHEM_IUPAC_NAME_MARKUP>
<I>tert</I>-butyl <I>N</I>-[4-[2-(3,4-dihydro-1<I>H</I>-isoquinolin-2-yl)ethyl]phenyl]carbamate

> <PUBCHEM_IUPAC_NAME>
tert-butyl N-[4-[2-(3,4-dihydro-1H-isoquinolin-2-yl)ethyl]phenyl]carbamate

> <PUBCHEM_IUPAC_SYSTEMATIC_NAME>
tert-butyl N-[4-[2-(3,4-dihydro-1H-isoquinolin-2-yl)ethyl]phenyl]carbamate

> <PUBCHEM_IUPAC_TRADITIONAL_NAME>
N-[4-[2-(3,4-dihydro-1H-isoquinolin-2-yl)ethyl]phenyl]carbamic acid tert-butyl ester

> <PUBCHEM_IUPAC_INCHI>
InChI=1S/C22H28N2O2/c1-22(2,3)26-21(25)23-20-10-8-17(9-11-20)12-14-24-15-13-18-6-4-5-7-19(18)16-24/h4-11H,12-16H2,1-3H3,(H,23,25)

> <PUBCHEM_IUPAC_INCHIKEY>
JBBWXRZCIQADQF-UHFFFAOYSA-N

> <PUBCHEM_XLOGP3_AA>
4.3

> <PUBCHEM_EXACT_MASS>
352.215078140

> <PUBCHEM_MOLECULAR_FORMULA>
C22H28N2O2

> <PUBCHEM_MOLECULAR_WEIGHT>
352.5

> <PUBCHEM_OPENEYE_CAN_SMILES>
CC(C)(C)OC(=O)NC1=CC=C(C=C1)CCN2CCC3=CC=CC=C3C2

> <PUBCHEM_OPENEYE_ISO_SMILES>
CC(C)(C)OC(=O)NC1=CC=C(C=C1)CCN2CCC3=CC=CC=C3C2

> <PUBCHEM_CACTVS_TPSA>
41.6

> <PUBCHEM_MONOISOTOPIC_WEIGHT>
352.215078140

> <PUBCHEM_TOTAL_CHARGE>
0

> <PUBCHEM_HEAVY_ATOM_COUNT>
26

> <PUBCHEM_ATOM_DEF_STEREO_COUNT>
0

> <PUBCHEM_ATOM_UDEF_STEREO_COUNT>
0

> <PUBCHEM_BOND_DEF_STEREO_COUNT>
0

> <PUBCHEM_BOND_UDEF_STEREO_COUNT>
0

> <PUBCHEM_ISOTOPIC_ATOM_COUNT>
0

> <PUBCHEM_COMPONENT_COUNT>
1

> <PUBCHEM_CACTVS_TAUTO_COUNT>
-1

> <PUBCHEM_COORDINATE_TYPE>
1
5
255

> <PUBCHEM_BONDANNOTATIONS>
10  13  8
12  15  8
13  16  8
14  17  8
14  18  8
15  16  8
17  21  8
18  22  8
20  21  8
20  22  8
9  10  8
9  12  8

$$$$
