11515697
  -OEChem-09292322242D

 47 51  0     1  0  0  0  0  0999 V2000
    4.3198    0.2484    0.0000 O   0  0  0  0  0  0  0  0  0  0  0  0
    2.5381   -0.7620    0.0000 O   0  0  0  0  0  0  0  0  0  0  0  0
    7.7925   -2.7831    0.0000 N   0  0  3  0  0  0  0  0  0  0  0  0
    6.9343   -2.2862    0.0000 C   0  0  1  0  0  0  0  0  0  0  0  0
    6.9343   -1.2862    0.0000 C   0  0  0  0  0  0  0  0  0  0  0  0
    6.0682   -2.7862    0.0000 C   0  0  0  0  0  0  0  0  0  0  0  0
    7.8443   -0.7793    0.0000 C   0  0  0  0  0  0  0  0  0  0  0  0
    8.6580   -2.2989    0.0000 C   0  0  0  0  0  0  0  0  0  0  0  0
    6.0682   -0.7862    0.0000 C   0  0  0  0  0  0  0  0  0  0  0  0
    8.6836   -1.3076    0.0000 C   0  0  0  0  0  0  0  0  0  0  0  0
    5.2022   -2.2862    0.0000 C   0  0  0  0  0  0  0  0  0  0  0  0
    5.2022   -1.2862    0.0000 C   0  0  0  0  0  0  0  0  0  0  0  0
    7.8523    0.2623    0.0000 C   0  0  0  0  0  0  0  0  0  0  0  0
    6.0522    0.2553    0.0000 C   0  0  0  0  0  0  0  0  0  0  0  0
    7.7851   -3.7831    0.0000 C   0  0  0  0  0  0  0  0  0  0  0  0
    6.9502    0.7831    0.0000 C   0  0  0  0  0  0  0  0  0  0  0  0
    4.3083   -0.7515    0.0000 C   0  0  0  0  0  0  0  0  0  0  0  0
    4.3083   -2.8208    0.0000 C   0  0  0  0  0  0  0  0  0  0  0  0
    3.4022   -1.2654    0.0000 C   0  0  0  0  0  0  0  0  0  0  0  0
    6.9464    1.7831    0.0000 C   0  0  0  0  0  0  0  0  0  0  0  0
    3.4022   -2.3070    0.0000 C   0  0  0  0  0  0  0  0  0  0  0  0
    6.0784    2.2797    0.0000 C   0  0  0  0  0  0  0  0  0  0  0  0
    7.8105    2.2864    0.0000 C   0  0  0  0  0  0  0  0  0  0  0  0
    6.0746    3.2797    0.0000 C   0  0  0  0  0  0  0  0  0  0  0  0
    7.8066    3.2864    0.0000 C   0  0  0  0  0  0  0  0  0  0  0  0
    6.9387    3.7831    0.0000 C   0  0  0  0  0  0  0  0  0  0  0  0
    6.9337   -3.1362    0.0000 H   0  0  0  0  0  0  0  0  0  0  0  0
    5.6697   -3.2611    0.0000 H   0  0  0  0  0  0  0  0  0  0  0  0
    6.4668   -3.2611    0.0000 H   0  0  0  0  0  0  0  0  0  0  0  0
    8.8597   -2.8852    0.0000 H   0  0  0  0  0  0  0  0  0  0  0  0
    9.2708   -2.2046    0.0000 H   0  0  0  0  0  0  0  0  0  0  0  0
    9.2907   -1.4334    0.0000 H   0  0  0  0  0  0  0  0  0  0  0  0
    8.9154   -0.7325    0.0000 H   0  0  0  0  0  0  0  0  0  0  0  0
    8.3904    0.5702    0.0000 H   0  0  0  0  0  0  0  0  0  0  0  0
    5.5117    0.5591    0.0000 H   0  0  0  0  0  0  0  0  0  0  0  0
    7.1651   -3.7785    0.0000 H   0  0  0  0  0  0  0  0  0  0  0  0
    7.7805   -4.4030    0.0000 H   0  0  0  0  0  0  0  0  0  0  0  0
    8.4051   -3.7877    0.0000 H   0  0  0  0  0  0  0  0  0  0  0  0
    4.3154   -3.4408    0.0000 H   0  0  0  0  0  0  0  0  0  0  0  0
    2.8665   -2.6190    0.0000 H   0  0  0  0  0  0  0  0  0  0  0  0
    3.7865    0.5646    0.0000 H   0  0  0  0  0  0  0  0  0  0  0  0
    5.5427    1.9677    0.0000 H   0  0  0  0  0  0  0  0  0  0  0  0
    8.3486    1.9785    0.0000 H   0  0  0  0  0  0  0  0  0  0  0  0
    2.0000   -1.0700    0.0000 H   0  0  0  0  0  0  0  0  0  0  0  0
    5.5364    3.5877    0.0000 H   0  0  0  0  0  0  0  0  0  0  0  0
    8.3424    3.5985    0.0000 H   0  0  0  0  0  0  0  0  0  0  0  0
    6.9363    4.4031    0.0000 H   0  0  0  0  0  0  0  0  0  0  0  0
  1 17  1  0  0  0  0
  1 41  1  0  0  0  0
  2 19  1  0  0  0  0
  2 44  1  0  0  0  0
  3  4  1  0  0  0  0
  3  8  1  0  0  0  0
  3 15  1  0  0  0  0
  4  5  1  0  0  0  0
  4  6  1  0  0  0  0
  4 27  1  1  0  0  0
  5  7  2  0  0  0  0
  5  9  1  0  0  0  0
  6 11  1  0  0  0  0
  6 28  1  0  0  0  0
  6 29  1  0  0  0  0
  7 10  1  0  0  0  0
  7 13  1  0  0  0  0
  8 10  1  0  0  0  0
  8 30  1  0  0  0  0
  8 31  1  0  0  0  0
  9 12  1  0  0  0  0
  9 14  2  0  0  0  0
 10 32  1  0  0  0  0
 10 33  1  0  0  0  0
 11 12  2  0  0  0  0
 11 18  1  0  0  0  0
 12 17  1  0  0  0  0
 13 16  2  0  0  0  0
 13 34  1  0  0  0  0
 14 16  1  0  0  0  0
 14 35  1  0  0  0  0
 15 36  1  0  0  0  0
 15 37  1  0  0  0  0
 15 38  1  0  0  0  0
 16 20  1  0  0  0  0
 17 19  2  0  0  0  0
 18 21  2  0  0  0  0
 18 39  1  0  0  0  0
 19 21  1  0  0  0  0
 20 22  2  0  0  0  0
 20 23  1  0  0  0  0
 21 40  1  0  0  0  0
 22 24  1  0  0  0  0
 22 42  1  0  0  0  0
 23 25  2  0  0  0  0
 23 43  1  0  0  0  0
 24 26  2  0  0  0  0
 24 45  1  0  0  0  0
 25 26  1  0  0  0  0
 25 46  1  0  0  0  0
 26 47  1  0  0  0  0
M  END
> <PUBCHEM_COMPOUND_CID>
11515697

> <PUBCHEM_COMPOUND_CANONICALIZED>
1

> <PUBCHEM_CACTVS_COMPLEXITY>
504

> <PUBCHEM_CACTVS_HBOND_ACCEPTOR>
3

> <PUBCHEM_CACTVS_HBOND_DONOR>
2

> <PUBCHEM_CACTVS_ROTATABLE_BOND>
1

> <PUBCHEM_CACTVS_SUBSKEYS>
AAADceB6MAAAAAAAAAAAAAAAAAAAAAAAAAA8YMGCAAAAAADxUAAAHgAACAAADCzBmAQyBoMAAgCAAiBCAACCAAAgIAAIiAAOjIgJJiKCkROEcAlkwBGJmAeQ0PMO4AADAAAYQADQAAaAADSAAAAAAAAAAA==

> <PUBCHEM_IUPAC_OPENEYE_NAME>
(6aR)-6-methyl-2-phenyl-5,6,6a,7-tetrahydro-4H-dibenzo[de,g]quinoline-10,11-diol

> <PUBCHEM_IUPAC_CAS_NAME>
(6aR)-6-methyl-2-phenyl-5,6,6a,7-tetrahydro-4H-dibenzo[de,g]quinoline-10,11-diol

> <PUBCHEM_IUPAC_NAME_MARKUP>
(6<I>a</I><I>R</I>)-6-methyl-2-phenyl-5,6,6<I>a</I>,7-tetrahydro-4<I>H</I>-dibenzo[de,g]quinoline-10,11-diol

> <PUBCHEM_IUPAC_NAME>
(6aR)-6-methyl-2-phenyl-5,6,6a,7-tetrahydro-4H-dibenzo[de,g]quinoline-10,11-diol

> <PUBCHEM_IUPAC_SYSTEMATIC_NAME>
(6aR)-6-methyl-2-phenyl-5,6,6a,7-tetrahydro-4H-dibenzo[de,g]quinoline-10,11-diol

> <PUBCHEM_IUPAC_TRADITIONAL_NAME>
(6aR)-6-methyl-2-phenyl-5,6,6a,7-tetrahydro-4H-dibenzo[de,g]quinoline-10,11-diol

> <PUBCHEM_IUPAC_INCHI>
InChI=1S/C23H21NO2/c1-24-10-9-16-11-17(14-5-3-2-4-6-14)12-18-21(16)19(24)13-15-7-8-20(25)23(26)22(15)18/h2-8,11-12,19,25-26H,9-10,13H2,1H3/t19-/m1/s1

> <PUBCHEM_IUPAC_INCHIKEY>
NJWHLJABYCIZPL-LJQANCHMSA-N

> <PUBCHEM_XLOGP3>
3.9

> <PUBCHEM_EXACT_MASS>
343.157228913

> <PUBCHEM_MOLECULAR_FORMULA>
C23H21NO2

> <PUBCHEM_MOLECULAR_WEIGHT>
343.4

> <PUBCHEM_OPENEYE_CAN_SMILES>
CN1CCC2=C3C1CC4=C(C3=CC(=C2)C5=CC=CC=C5)C(=C(C=C4)O)O

> <PUBCHEM_OPENEYE_ISO_SMILES>
CN1CCC2=C3[C@H]1CC4=C(C3=CC(=C2)C5=CC=CC=C5)C(=C(C=C4)O)O

> <PUBCHEM_CACTVS_TPSA>
43.7

> <PUBCHEM_MONOISOTOPIC_WEIGHT>
343.157228913

> <PUBCHEM_TOTAL_CHARGE>
0

> <PUBCHEM_HEAVY_ATOM_COUNT>
26

> <PUBCHEM_ATOM_DEF_STEREO_COUNT>
1

> <PUBCHEM_ATOM_UDEF_STEREO_COUNT>
0

> <PUBCHEM_BOND_DEF_STEREO_COUNT>
0

> <PUBCHEM_BOND_UDEF_STEREO_COUNT>
0

> <PUBCHEM_ISOTOPIC_ATOM_COUNT>
0

> <PUBCHEM_COMPONENT_COUNT>
1

> <PUBCHEM_CACTVS_TAUTO_COUNT>
-1

> <PUBCHEM_COORDINATE_TYPE>
1
5
255

> <PUBCHEM_BONDANNOTATIONS>
11  12  8
11  18  8
12  17  8
13  16  8
14  16  8
17  19  8
18  21  8
19  21  8
20  22  8
20  23  8
22  24  8
23  25  8
24  26  8
25  26  8
4  27  5
5  7  8
5  9  8
7  13  8
9  14  8

$$$$
