44378077
  -OEChem-09292322192D

 58 62  0     1  0  0  0  0  0999 V2000
    5.8579   -5.9408    0.0000 S   0  0  0  0  0  0  0  0  0  0  0  0
    2.6066    5.9408    0.0000 F   0  0  0  0  0  0  0  0  0  0  0  0
    5.6200    2.4883    0.0000 O   0  0  0  0  0  0  0  0  0  0  0  0
    5.9632   -3.7307    0.0000 N   0  0  3  0  0  0  0  0  0  0  0  0
    4.6333   -0.9796    0.0000 N   0  0  3  0  0  0  0  0  0  0  0  0
    2.6200    2.4768    0.0000 N   0  0  0  0  0  0  0  0  0  0  0  0
    5.6541   -2.7796    0.0000 C   0  0  2  0  0  0  0  0  0  0  0  0
    4.6541   -2.7796    0.0000 C   0  0  1  0  0  0  0  0  0  0  0  0
    6.1888   -1.8857    0.0000 C   0  0  0  0  0  0  0  0  0  0  0  0
    4.1195   -1.8857    0.0000 C   0  0  0  0  0  0  0  0  0  0  0  0
    4.3451   -3.7307    0.0000 C   0  0  0  0  0  0  0  0  0  0  0  0
    5.1541   -4.3184    0.0000 C   0  0  0  0  0  0  0  0  0  0  0  0
    5.6750   -0.9796    0.0000 C   0  0  0  0  0  0  0  0  0  0  0  0
    6.9068   -3.9980    0.0000 C   0  0  0  0  0  0  0  0  0  0  0  0
    4.1300   -0.1155    0.0000 C   0  0  0  0  0  0  0  0  0  0  0  0
    5.1167   -5.2985    0.0000 C   0  0  0  0  0  0  0  0  0  0  0  0
    3.4700   -4.1816    0.0000 C   0  0  0  0  0  0  0  0  0  0  0  0
    7.2887   -4.9014    0.0000 C   0  0  0  0  0  0  0  0  0  0  0  0
    6.8227   -5.7644    0.0000 C   0  0  0  0  0  0  0  0  0  0  0  0
    4.6267    0.7524    0.0000 C   0  0  0  0  0  0  0  0  0  0  0  0
    4.2256   -5.7169    0.0000 C   0  0  0  0  0  0  0  0  0  0  0  0
    3.4109   -5.1643    0.0000 C   0  0  0  0  0  0  0  0  0  0  0  0
    4.1233    1.6165    0.0000 C   0  0  0  0  0  0  0  0  0  0  0  0
    4.6200    2.4845    0.0000 C   0  0  0  0  0  0  0  0  0  0  0  0
    4.1166    3.3486    0.0000 C   0  0  0  0  0  0  0  0  0  0  0  0
    3.1166    3.3447    0.0000 C   0  0  0  0  0  0  0  0  0  0  0  0
    4.6133    4.2165    0.0000 C   0  0  0  0  0  0  0  0  0  0  0  0
    2.6133    4.2088    0.0000 C   0  0  0  0  0  0  0  0  0  0  0  0
    4.1100    5.0806    0.0000 C   0  0  0  0  0  0  0  0  0  0  0  0
    3.1100    5.0768    0.0000 C   0  0  0  0  0  0  0  0  0  0  0  0
    6.4988   -2.8750    0.0000 H   0  0  0  0  0  0  0  0  0  0  0  0
    3.8095   -2.8750    0.0000 H   0  0  0  0  0  0  0  0  0  0  0  0
    6.6586   -2.2903    0.0000 H   0  0  0  0  0  0  0  0  0  0  0  0
    6.6678   -1.4920    0.0000 H   0  0  0  0  0  0  0  0  0  0  0  0
    3.6405   -1.4920    0.0000 H   0  0  0  0  0  0  0  0  0  0  0  0
    3.6497   -2.2903    0.0000 H   0  0  0  0  0  0  0  0  0  0  0  0
    6.2587   -0.7705    0.0000 H   0  0  0  0  0  0  0  0  0  0  0  0
    5.5689   -0.3687    0.0000 H   0  0  0  0  0  0  0  0  0  0  0  0
    7.5174   -3.8902    0.0000 H   0  0  0  0  0  0  0  0  0  0  0  0
    6.9383   -3.3787    0.0000 H   0  0  0  0  0  0  0  0  0  0  0  0
    3.6535    0.2812    0.0000 H   0  0  0  0  0  0  0  0  0  0  0  0
    3.6566   -0.5159    0.0000 H   0  0  0  0  0  0  0  0  0  0  0  0
    2.9506   -3.8431    0.0000 H   0  0  0  0  0  0  0  0  0  0  0  0
    7.7547   -5.3103    0.0000 H   0  0  0  0  0  0  0  0  0  0  0  0
    7.7914   -4.5385    0.0000 H   0  0  0  0  0  0  0  0  0  0  0  0
    6.7952   -6.3838    0.0000 H   0  0  0  0  0  0  0  0  0  0  0  0
    7.4203   -5.9296    0.0000 H   0  0  0  0  0  0  0  0  0  0  0  0
    5.1031    0.3557    0.0000 H   0  0  0  0  0  0  0  0  0  0  0  0
    5.1001    1.1528    0.0000 H   0  0  0  0  0  0  0  0  0  0  0  0
    4.1769   -6.3350    0.0000 H   0  0  0  0  0  0  0  0  0  0  0  0
    2.8546   -5.4380    0.0000 H   0  0  0  0  0  0  0  0  0  0  0  0
    3.6468    2.0132    0.0000 H   0  0  0  0  0  0  0  0  0  0  0  0
    3.6499    1.2162    0.0000 H   0  0  0  0  0  0  0  0  0  0  0  0
    5.2333    4.2189    0.0000 H   0  0  0  0  0  0  0  0  0  0  0  0
    1.9933    4.2064    0.0000 H   0  0  0  0  0  0  0  0  0  0  0  0
    4.4179    5.6187    0.0000 H   0  0  0  0  0  0  0  0  0  0  0  0
    2.0000    2.4744    0.0000 H   0  0  0  0  0  0  0  0  0  0  0  0
    2.9321    1.9410    0.0000 H   0  0  0  0  0  0  0  0  0  0  0  0
  1 16  1  0  0  0  0
  1 19  1  0  0  0  0
  2 30  1  0  0  0  0
  3 24  2  0  0  0  0
  4  7  1  0  0  0  0
  4 12  1  0  0  0  0
  4 14  1  0  0  0  0
  5 10  1  0  0  0  0
  5 13  1  0  0  0  0
  5 15  1  0  0  0  0
  6 26  1  0  0  0  0
  6 57  1  0  0  0  0
  6 58  1  0  0  0  0
  7  8  1  0  0  0  0
  7  9  1  0  0  0  0
  7 31  1  1  0  0  0
  8 10  1  0  0  0  0
  8 11  1  0  0  0  0
  8 32  1  1  0  0  0
  9 13  1  0  0  0  0
  9 33  1  0  0  0  0
  9 34  1  0  0  0  0
 10 35  1  0  0  0  0
 10 36  1  0  0  0  0
 11 12  2  0  0  0  0
 11 17  1  0  0  0  0
 12 16  1  0  0  0  0
 13 37  1  0  0  0  0
 13 38  1  0  0  0  0
 14 18  1  0  0  0  0
 14 39  1  0  0  0  0
 14 40  1  0  0  0  0
 15 20  1  0  0  0  0
 15 41  1  0  0  0  0
 15 42  1  0  0  0  0
 16 21  2  0  0  0  0
 17 22  2  0  0  0  0
 17 43  1  0  0  0  0
 18 19  1  0  0  0  0
 18 44  1  0  0  0  0
 18 45  1  0  0  0  0
 19 46  1  0  0  0  0
 19 47  1  0  0  0  0
 20 23  1  0  0  0  0
 20 48  1  0  0  0  0
 20 49  1  0  0  0  0
 21 22  1  0  0  0  0
 21 50  1  0  0  0  0
 22 51  1  0  0  0  0
 23 24  1  0  0  0  0
 23 52  1  0  0  0  0
 23 53  1  0  0  0  0
 24 25  1  0  0  0  0
 25 26  2  0  0  0  0
 25 27  1  0  0  0  0
 26 28  1  0  0  0  0
 27 29  2  0  0  0  0
 27 54  1  0  0  0  0
 28 30  2  0  0  0  0
 28 55  1  0  0  0  0
 29 30  1  0  0  0  0
 29 56  1  0  0  0  0
M  END
> <PUBCHEM_COMPOUND_CID>
44378077

> <PUBCHEM_COMPOUND_CANONICALIZED>
1

> <PUBCHEM_CACTVS_COMPLEXITY>
621

> <PUBCHEM_CACTVS_HBOND_ACCEPTOR>
6

> <PUBCHEM_CACTVS_HBOND_DONOR>
1

> <PUBCHEM_CACTVS_ROTATABLE_BOND>
5

> <PUBCHEM_CACTVS_SUBSKEYS>
AAADceB7IQBAAAAAAAAAAAAAAAAAAWAAAAA8YIAABYAAAFixQAAAHwQQAAAADSzF2AywwYNAAAiIAqRSQACCAAAlChAIiB0IZMgIIDrg1ZGEIYhgkADoyccciMCOgAAAgAACAQAAAAEAAAQCAAAAAAAAAA==

> <PUBCHEM_IUPAC_OPENEYE_NAME>
1-(2-amino-4-fluoro-phenyl)-4-[(11S,16R)-6-thia-10,14-diazatetracyclo[8.6.1.05,17.011,16]heptadeca-1(17),2,4-trien-14-yl]butan-1-one

> <PUBCHEM_IUPAC_CAS_NAME>
1-(2-amino-4-fluorophenyl)-4-[(11S,16R)-6-thia-10,14-diazatetracyclo[8.6.1.05,17.011,16]heptadeca-1(17),2,4-trien-14-yl]-1-butanone

> <PUBCHEM_IUPAC_NAME_MARKUP>
1-(2-amino-4-fluorophenyl)-4-[(11<I>S</I>,16<I>R</I>)-6-thia-10,14-diazatetracyclo[8.6.1.0<SUP>5,17</SUP>.0<SUP>11,16</SUP>]heptadeca-1(17),2,4-trien-14-yl]butan-1-one

> <PUBCHEM_IUPAC_NAME>
1-(2-amino-4-fluorophenyl)-4-[(11S,16R)-6-thia-10,14-diazatetracyclo[8.6.1.05,17.011,16]heptadeca-1(17),2,4-trien-14-yl]butan-1-one

> <PUBCHEM_IUPAC_SYSTEMATIC_NAME>
1-(2-azanyl-4-fluoranyl-phenyl)-4-[(11S,16R)-6-thia-10,14-diazatetracyclo[8.6.1.05,17.011,16]heptadeca-1(17),2,4-trien-14-yl]butan-1-one

> <PUBCHEM_IUPAC_TRADITIONAL_NAME>
1-(2-amino-4-fluoro-phenyl)-4-[(11S,16R)-6-thia-10,14-diazatetracyclo[8.6.1.05,17.011,16]heptadeca-1(17),2,4-trien-14-yl]butan-1-one

> <PUBCHEM_IUPAC_INCHI>
InChI=1S/C24H28FN3OS/c25-16-7-8-18(20(26)14-16)22(29)5-2-10-27-12-9-21-19(15-27)17-4-1-6-23-24(17)28(21)11-3-13-30-23/h1,4,6-8,14,19,21H,2-3,5,9-13,15,26H2/t19-,21-/m0/s1

> <PUBCHEM_IUPAC_INCHIKEY>
DPASSLWFBPICMV-FPOVZHCZSA-N

> <PUBCHEM_XLOGP3_AA>
4.4

> <PUBCHEM_EXACT_MASS>
425.19371186

> <PUBCHEM_MOLECULAR_FORMULA>
C24H28FN3OS

> <PUBCHEM_MOLECULAR_WEIGHT>
425.6

> <PUBCHEM_OPENEYE_CAN_SMILES>
C1CN2C3CCN(CC3C4=C2C(=CC=C4)SC1)CCCC(=O)C5=C(C=C(C=C5)F)N

> <PUBCHEM_OPENEYE_ISO_SMILES>
C1CN2[C@H]3CCN(C[C@H]3C4=C2C(=CC=C4)SC1)CCCC(=O)C5=C(C=C(C=C5)F)N

> <PUBCHEM_CACTVS_TPSA>
74.9

> <PUBCHEM_MONOISOTOPIC_WEIGHT>
425.19371186

> <PUBCHEM_TOTAL_CHARGE>
0

> <PUBCHEM_HEAVY_ATOM_COUNT>
30

> <PUBCHEM_ATOM_DEF_STEREO_COUNT>
2

> <PUBCHEM_ATOM_UDEF_STEREO_COUNT>
0

> <PUBCHEM_BOND_DEF_STEREO_COUNT>
0

> <PUBCHEM_BOND_UDEF_STEREO_COUNT>
0

> <PUBCHEM_ISOTOPIC_ATOM_COUNT>
0

> <PUBCHEM_COMPONENT_COUNT>
1

> <PUBCHEM_CACTVS_TAUTO_COUNT>
-1

> <PUBCHEM_COORDINATE_TYPE>
1
5
255

> <PUBCHEM_BONDANNOTATIONS>
11  12  8
11  17  8
12  16  8
16  21  8
17  22  8
21  22  8
25  26  8
25  27  8
26  28  8
27  29  8
28  30  8
29  30  8
7  31  5
8  32  5

$$$$
