10691523
  -OEChem-09292322132D

 47 50  0     0  0  0  0  0  0999 V2000
    2.8660   -2.3874    0.0000 Cl  0  0  0  0  0  0  0  0  0  0  0  0
    7.4492    5.3874    0.0000 Cl  0  0  0  0  0  0  0  0  0  0  0  0
    4.5981   -2.3874    0.0000 N   0  0  0  0  0  0  0  0  0  0  0  0
    3.7891    1.2003    0.0000 N   0  0  0  0  0  0  0  0  0  0  0  0
    4.0981    2.1514    0.0000 N   0  0  0  0  0  0  0  0  0  0  0  0
    4.5981   -0.3875    0.0000 C   0  0  0  0  0  0  0  0  0  0  0  0
    3.7320   -0.8875    0.0000 C   0  0  0  0  0  0  0  0  0  0  0  0
    5.4641   -0.8875    0.0000 C   0  0  0  0  0  0  0  0  0  0  0  0
    3.7320   -1.8874    0.0000 C   0  0  0  0  0  0  0  0  0  0  0  0
    5.4641   -1.8874    0.0000 C   0  0  0  0  0  0  0  0  0  0  0  0
    4.5981    0.6125    0.0000 C   0  0  0  0  0  0  0  0  0  0  0  0
    4.5981   -3.3874    0.0000 C   0  0  0  0  0  0  0  0  0  0  0  0
    5.4071    1.2003    0.0000 C   0  0  0  0  0  0  0  0  0  0  0  0
    3.7320   -3.8874    0.0000 C   0  0  0  0  0  0  0  0  0  0  0  0
    5.0981    2.1514    0.0000 C   0  0  0  0  0  0  0  0  0  0  0  0
    2.8660   -3.3874    0.0000 C   0  0  0  0  0  0  0  0  0  0  0  0
    3.7320   -4.8874    0.0000 C   0  0  0  0  0  0  0  0  0  0  0  0
    5.6859    2.9604    0.0000 C   0  0  0  0  0  0  0  0  0  0  0  0
    2.0000   -3.8874    0.0000 C   0  0  0  0  0  0  0  0  0  0  0  0
    2.8660   -5.3874    0.0000 C   0  0  0  0  0  0  0  0  0  0  0  0
    6.6804    2.8559    0.0000 C   0  0  0  0  0  0  0  0  0  0  0  0
    5.2791    3.8740    0.0000 C   0  0  0  0  0  0  0  0  0  0  0  0
    2.0000   -4.8874    0.0000 C   0  0  0  0  0  0  0  0  0  0  0  0
    7.2682    3.6649    0.0000 C   0  0  0  0  0  0  0  0  0  0  0  0
    5.8669    4.6830    0.0000 C   0  0  0  0  0  0  0  0  0  0  0  0
    6.8614    4.5784    0.0000 C   0  0  0  0  0  0  0  0  0  0  0  0
    5.1350   -0.0775    0.0000 H   0  0  0  0  0  0  0  0  0  0  0  0
    3.5200   -0.3048    0.0000 H   0  0  0  0  0  0  0  0  0  0  0  0
    3.1215   -0.9951    0.0000 H   0  0  0  0  0  0  0  0  0  0  0  0
    6.0747   -0.9951    0.0000 H   0  0  0  0  0  0  0  0  0  0  0  0
    5.6762   -0.3048    0.0000 H   0  0  0  0  0  0  0  0  0  0  0  0
    3.1215   -1.7798    0.0000 H   0  0  0  0  0  0  0  0  0  0  0  0
    3.5200   -2.4701    0.0000 H   0  0  0  0  0  0  0  0  0  0  0  0
    5.6762   -2.4701    0.0000 H   0  0  0  0  0  0  0  0  0  0  0  0
    6.0747   -1.7798    0.0000 H   0  0  0  0  0  0  0  0  0  0  0  0
    4.8101   -3.9701    0.0000 H   0  0  0  0  0  0  0  0  0  0  0  0
    5.2087   -3.2798    0.0000 H   0  0  0  0  0  0  0  0  0  0  0  0
    5.9967    1.0087    0.0000 H   0  0  0  0  0  0  0  0  0  0  0  0
    3.1994    1.0087    0.0000 H   0  0  0  0  0  0  0  0  0  0  0  0
    4.2690   -5.1974    0.0000 H   0  0  0  0  0  0  0  0  0  0  0  0
    1.4631   -3.5775    0.0000 H   0  0  0  0  0  0  0  0  0  0  0  0
    2.8660   -6.0075    0.0000 H   0  0  0  0  0  0  0  0  0  0  0  0
    6.9326    2.2895    0.0000 H   0  0  0  0  0  0  0  0  0  0  0  0
    4.6625    3.9388    0.0000 H   0  0  0  0  0  0  0  0  0  0  0  0
    1.4631   -5.1974    0.0000 H   0  0  0  0  0  0  0  0  0  0  0  0
    7.8848    3.6001    0.0000 H   0  0  0  0  0  0  0  0  0  0  0  0
    5.6147    5.2494    0.0000 H   0  0  0  0  0  0  0  0  0  0  0  0
  1 16  1  0  0  0  0
  2 26  1  0  0  0  0
  3  9  1  0  0  0  0
  3 10  1  0  0  0  0
  3 12  1  0  0  0  0
  4  5  1  0  0  0  0
  4 11  1  0  0  0  0
  4 39  1  0  0  0  0
  5 15  2  0  0  0  0
  6  7  1  0  0  0  0
  6  8  1  0  0  0  0
  6 11  1  0  0  0  0
  6 27  1  0  0  0  0
  7  9  1  0  0  0  0
  7 28  1  0  0  0  0
  7 29  1  0  0  0  0
  8 10  1  0  0  0  0
  8 30  1  0  0  0  0
  8 31  1  0  0  0  0
  9 32  1  0  0  0  0
  9 33  1  0  0  0  0
 10 34  1  0  0  0  0
 10 35  1  0  0  0  0
 11 13  2  0  0  0  0
 12 14  1  0  0  0  0
 12 36  1  0  0  0  0
 12 37  1  0  0  0  0
 13 15  1  0  0  0  0
 13 38  1  0  0  0  0
 14 16  1  0  0  0  0
 14 17  2  0  0  0  0
 15 18  1  0  0  0  0
 16 19  2  0  0  0  0
 17 20  1  0  0  0  0
 17 40  1  0  0  0  0
 18 21  2  0  0  0  0
 18 22  1  0  0  0  0
 19 23  1  0  0  0  0
 19 41  1  0  0  0  0
 20 23  2  0  0  0  0
 20 42  1  0  0  0  0
 21 24  1  0  0  0  0
 21 43  1  0  0  0  0
 22 25  2  0  0  0  0
 22 44  1  0  0  0  0
 23 45  1  0  0  0  0
 24 26  2  0  0  0  0
 24 46  1  0  0  0  0
 25 26  1  0  0  0  0
 25 47  1  0  0  0  0
M  END
> <PUBCHEM_COMPOUND_CID>
10691523

> <PUBCHEM_COMPOUND_CANONICALIZED>
1

> <PUBCHEM_CACTVS_COMPLEXITY>
433

> <PUBCHEM_CACTVS_HBOND_ACCEPTOR>
2

> <PUBCHEM_CACTVS_HBOND_DONOR>
1

> <PUBCHEM_CACTVS_ROTATABLE_BOND>
4

> <PUBCHEM_CACTVS_SUBSKEYS>
AAADceB7AAAGAAAAAAAAAAAAAAAAAWAAAAA8YIAAAAAAAAAB0AAAHAIYAAAADQrBHiQwgJNjAACiAyRiQACSBAAgBwAYuSA4ZpgIIKKB09GEpAhgmACIyAcQgMAOBAAAAAABAAAIAAAAAAIAAAAAAAAAAA==

> <PUBCHEM_IUPAC_OPENEYE_NAME>
1-[(2-chlorophenyl)methyl]-4-[3-(4-chlorophenyl)-1H-pyrazol-5-yl]piperidine

> <PUBCHEM_IUPAC_CAS_NAME>
1-[(2-chlorophenyl)methyl]-4-[3-(4-chlorophenyl)-1H-pyrazol-5-yl]piperidine

> <PUBCHEM_IUPAC_NAME_MARKUP>
1-[(2-chlorophenyl)methyl]-4-[3-(4-chlorophenyl)-1<I>H</I>-pyrazol-5-yl]piperidine

> <PUBCHEM_IUPAC_NAME>
1-[(2-chlorophenyl)methyl]-4-[3-(4-chlorophenyl)-1H-pyrazol-5-yl]piperidine

> <PUBCHEM_IUPAC_SYSTEMATIC_NAME>
1-[(2-chlorophenyl)methyl]-4-[3-(4-chlorophenyl)-1H-pyrazol-5-yl]piperidine

> <PUBCHEM_IUPAC_TRADITIONAL_NAME>
1-(2-chlorobenzyl)-4-[3-(4-chlorophenyl)-1H-pyrazol-5-yl]piperidine

> <PUBCHEM_IUPAC_INCHI>
InChI=1S/C21H21Cl2N3/c22-18-7-5-15(6-8-18)20-13-21(25-24-20)16-9-11-26(12-10-16)14-17-3-1-2-4-19(17)23/h1-8,13,16H,9-12,14H2,(H,24,25)

> <PUBCHEM_IUPAC_INCHIKEY>
LKPNIBAOVAQLNF-UHFFFAOYSA-N

> <PUBCHEM_XLOGP3_AA>
5.2

> <PUBCHEM_EXACT_MASS>
385.1112531

> <PUBCHEM_MOLECULAR_FORMULA>
C21H21Cl2N3

> <PUBCHEM_MOLECULAR_WEIGHT>
386.3

> <PUBCHEM_OPENEYE_CAN_SMILES>
C1CN(CCC1C2=CC(=NN2)C3=CC=C(C=C3)Cl)CC4=CC=CC=C4Cl

> <PUBCHEM_OPENEYE_ISO_SMILES>
C1CN(CCC1C2=CC(=NN2)C3=CC=C(C=C3)Cl)CC4=CC=CC=C4Cl

> <PUBCHEM_CACTVS_TPSA>
31.9

> <PUBCHEM_MONOISOTOPIC_WEIGHT>
385.1112531

> <PUBCHEM_TOTAL_CHARGE>
0

> <PUBCHEM_HEAVY_ATOM_COUNT>
26

> <PUBCHEM_ATOM_DEF_STEREO_COUNT>
0

> <PUBCHEM_ATOM_UDEF_STEREO_COUNT>
0

> <PUBCHEM_BOND_DEF_STEREO_COUNT>
0

> <PUBCHEM_BOND_UDEF_STEREO_COUNT>
0

> <PUBCHEM_ISOTOPIC_ATOM_COUNT>
0

> <PUBCHEM_COMPONENT_COUNT>
1

> <PUBCHEM_CACTVS_TAUTO_COUNT>
-1

> <PUBCHEM_COORDINATE_TYPE>
1
5
255

> <PUBCHEM_BONDANNOTATIONS>
11  13  8
13  15  8
14  16  8
14  17  8
16  19  8
17  20  8
18  21  8
18  22  8
19  23  8
20  23  8
21  24  8
22  25  8
24  26  8
25  26  8
4  11  8
4  5  8
5  15  8

$$$$
