9848933
  -OEChem-09292322512D

 67 71  0     1  0  0  0  0  0999 V2000
    2.8924   -6.3715    0.0000 Cl  0  0  0  0  0  0  0  0  0  0  0  0
    5.9674    0.9459    0.0000 O   0  0  0  0  0  0  0  0  0  0  0  0
    6.7619    2.0413    0.0000 O   0  0  0  0  0  0  0  0  0  0  0  0
    4.6318   -0.5427    0.0000 N   0  0  0  0  0  0  0  0  0  0  0  0
    4.6783    2.1026    0.0000 N   0  0  0  0  0  0  0  0  0  0  0  0
    5.2531   -2.4438    0.0000 N   0  0  0  0  0  0  0  0  0  0  0  0
    6.7619    3.7734    0.0000 N   0  0  0  0  0  0  0  0  0  0  0  0
    5.2619    2.9074    0.0000 C   0  0  1  0  0  0  0  0  0  0  0  0
    3.9639   -1.2870    0.0000 C   0  0  0  0  0  0  0  0  0  0  0  0
    5.6103   -0.7489    0.0000 C   0  0  0  0  0  0  0  0  0  0  0  0
    4.2746   -2.2375    0.0000 C   0  0  0  0  0  0  0  0  0  0  0  0
    5.9209   -1.6994    0.0000 C   0  0  0  0  0  0  0  0  0  0  0  0
    4.6783    3.7121    0.0000 C   0  0  0  0  0  0  0  0  0  0  0  0
    4.3211    0.4078    0.0000 C   0  0  0  0  0  0  0  0  0  0  0  0
    3.7320    2.4074    0.0000 C   0  0  0  0  0  0  0  0  0  0  0  0
    3.7320    3.4074    0.0000 C   0  0  0  0  0  0  0  0  0  0  0  0
    4.9889    1.1521    0.0000 C   0  0  0  0  0  0  0  0  0  0  0  0
    5.5637   -3.3943    0.0000 C   0  0  0  0  0  0  0  0  0  0  0  0
    6.2619    2.9074    0.0000 C   0  0  0  0  0  0  0  0  0  0  0  0
    2.8660    1.9074    0.0000 C   0  0  0  0  0  0  0  0  0  0  0  0
    2.8660    3.9074    0.0000 C   0  0  0  0  0  0  0  0  0  0  0  0
    4.8959   -4.1386    0.0000 C   0  0  0  0  0  0  0  0  0  0  0  0
    2.0000    2.4074    0.0000 C   0  0  0  0  0  0  0  0  0  0  0  0
    2.0000    3.4074    0.0000 C   0  0  0  0  0  0  0  0  0  0  0  0
    7.7619    3.7734    0.0000 C   0  0  0  0  0  0  0  0  0  0  0  0
    5.2066   -5.0891    0.0000 C   0  0  0  0  0  0  0  0  0  0  0  0
    3.9174   -3.9324    0.0000 C   0  0  0  0  0  0  0  0  0  0  0  0
    8.2619    4.6394    0.0000 C   0  0  0  0  0  0  0  0  0  0  0  0
    4.5387   -5.8334    0.0000 C   0  0  0  0  0  0  0  0  0  0  0  0
    3.2496   -4.6767    0.0000 C   0  0  0  0  0  0  0  0  0  0  0  0
    3.5602   -5.6272    0.0000 C   0  0  0  0  0  0  0  0  0  0  0  0
    7.7619    5.5054    0.0000 C   0  0  0  0  0  0  0  0  0  0  0  0
    9.2619    4.6394    0.0000 C   0  0  0  0  0  0  0  0  0  0  0  0
    8.2619    6.3715    0.0000 C   0  0  0  0  0  0  0  0  0  0  0  0
    9.7619    5.5054    0.0000 C   0  0  0  0  0  0  0  0  0  0  0  0
    9.2619    6.3715    0.0000 C   0  0  0  0  0  0  0  0  0  0  0  0
    5.5436    2.3551    0.0000 H   0  0  0  0  0  0  0  0  0  0  0  0
    3.5814   -0.7991    0.0000 H   0  0  0  0  0  0  0  0  0  0  0  0
    3.4170   -1.5790    0.0000 H   0  0  0  0  0  0  0  0  0  0  0  0
    6.2241   -0.6616    0.0000 H   0  0  0  0  0  0  0  0  0  0  0  0
    5.6308   -0.1293    0.0000 H   0  0  0  0  0  0  0  0  0  0  0  0
    3.6608   -2.3249    0.0000 H   0  0  0  0  0  0  0  0  0  0  0  0
    4.2540   -2.8572    0.0000 H   0  0  0  0  0  0  0  0  0  0  0  0
    6.3035   -2.1874    0.0000 H   0  0  0  0  0  0  0  0  0  0  0  0
    6.4678   -1.4074    0.0000 H   0  0  0  0  0  0  0  0  0  0  0  0
    5.2156    4.0213    0.0000 H   0  0  0  0  0  0  0  0  0  0  0  0
    4.4272    4.2790    0.0000 H   0  0  0  0  0  0  0  0  0  0  0  0
    3.9385    0.8957    0.0000 H   0  0  0  0  0  0  0  0  0  0  0  0
    3.7742    0.1158    0.0000 H   0  0  0  0  0  0  0  0  0  0  0  0
    5.9463   -3.8822    0.0000 H   0  0  0  0  0  0  0  0  0  0  0  0
    6.1107   -3.1022    0.0000 H   0  0  0  0  0  0  0  0  0  0  0  0
    2.8660    1.2874    0.0000 H   0  0  0  0  0  0  0  0  0  0  0  0
    2.8660    4.5274    0.0000 H   0  0  0  0  0  0  0  0  0  0  0  0
    1.4631    2.0974    0.0000 H   0  0  0  0  0  0  0  0  0  0  0  0
    1.4631    3.7174    0.0000 H   0  0  0  0  0  0  0  0  0  0  0  0
    6.4519    4.3103    0.0000 H   0  0  0  0  0  0  0  0  0  0  0  0
    7.6542    3.1628    0.0000 H   0  0  0  0  0  0  0  0  0  0  0  0
    8.3445    3.5613    0.0000 H   0  0  0  0  0  0  0  0  0  0  0  0
    5.8132   -5.2169    0.0000 H   0  0  0  0  0  0  0  0  0  0  0  0
    3.7248   -3.3430    0.0000 H   0  0  0  0  0  0  0  0  0  0  0  0
    4.7313   -6.4227    0.0000 H   0  0  0  0  0  0  0  0  0  0  0  0
    2.6429   -4.5488    0.0000 H   0  0  0  0  0  0  0  0  0  0  0  0
    7.1419    5.5054    0.0000 H   0  0  0  0  0  0  0  0  0  0  0  0
    9.5719    4.1025    0.0000 H   0  0  0  0  0  0  0  0  0  0  0  0
    7.9519    6.9084    0.0000 H   0  0  0  0  0  0  0  0  0  0  0  0
   10.3819    5.5054    0.0000 H   0  0  0  0  0  0  0  0  0  0  0  0
    9.5719    6.9084    0.0000 H   0  0  0  0  0  0  0  0  0  0  0  0
  1 31  1  0  0  0  0
  2 17  2  0  0  0  0
  3 19  2  0  0  0  0
  4  9  1  0  0  0  0
  4 10  1  0  0  0  0
  4 14  1  0  0  0  0
  5  8  1  0  0  0  0
  5 15  1  0  0  0  0
  5 17  1  0  0  0  0
  6 11  1  0  0  0  0
  6 12  1  0  0  0  0
  6 18  1  0  0  0  0
  7 19  1  0  0  0  0
  7 25  1  0  0  0  0
  7 56  1  0  0  0  0
  8 13  1  0  0  0  0
  8 19  1  1  0  0  0
  8 37  1  0  0  0  0
  9 11  1  0  0  0  0
  9 38  1  0  0  0  0
  9 39  1  0  0  0  0
 10 12  1  0  0  0  0
 10 40  1  0  0  0  0
 10 41  1  0  0  0  0
 11 42  1  0  0  0  0
 11 43  1  0  0  0  0
 12 44  1  0  0  0  0
 12 45  1  0  0  0  0
 13 16  1  0  0  0  0
 13 46  1  0  0  0  0
 13 47  1  0  0  0  0
 14 17  1  0  0  0  0
 14 48  1  0  0  0  0
 14 49  1  0  0  0  0
 15 16  1  0  0  0  0
 15 20  2  0  0  0  0
 16 21  2  0  0  0  0
 18 22  1  0  0  0  0
 18 50  1  0  0  0  0
 18 51  1  0  0  0  0
 20 23  1  0  0  0  0
 20 52  1  0  0  0  0
 21 24  1  0  0  0  0
 21 53  1  0  0  0  0
 22 26  2  0  0  0  0
 22 27  1  0  0  0  0
 23 24  2  0  0  0  0
 23 54  1  0  0  0  0
 24 55  1  0  0  0  0
 25 28  1  0  0  0  0
 25 57  1  0  0  0  0
 25 58  1  0  0  0  0
 26 29  1  0  0  0  0
 26 59  1  0  0  0  0
 27 30  2  0  0  0  0
 27 60  1  0  0  0  0
 28 32  2  0  0  0  0
 28 33  1  0  0  0  0
 29 31  2  0  0  0  0
 29 61  1  0  0  0  0
 30 31  1  0  0  0  0
 30 62  1  0  0  0  0
 32 34  1  0  0  0  0
 32 63  1  0  0  0  0
 33 35  2  0  0  0  0
 33 64  1  0  0  0  0
 34 36  2  0  0  0  0
 34 65  1  0  0  0  0
 35 36  1  0  0  0  0
 35 66  1  0  0  0  0
 36 67  1  0  0  0  0
M  END
> <PUBCHEM_COMPOUND_CID>
9848933

> <PUBCHEM_COMPOUND_CANONICALIZED>
1

> <PUBCHEM_CACTVS_COMPLEXITY>
729

> <PUBCHEM_CACTVS_HBOND_ACCEPTOR>
4

> <PUBCHEM_CACTVS_HBOND_DONOR>
1

> <PUBCHEM_CACTVS_ROTATABLE_BOND>
7

> <PUBCHEM_CACTVS_SUBSKEYS>
AAADceB7sAAEAAAAAAAAAAAAAAAAAWAAAAA8YMEAAAAAAFgBUAAAHgIQAAAADCrBmCQwwIPAAACIAiVSUACCAAAhBwAIiIGIZogIYDLBk7GUIAhglgDIyAcYiYCeBAAAAAACAAAIAAAAAAQAAAAAAAAAAA==

> <PUBCHEM_IUPAC_OPENEYE_NAME>
(2S)-N-benzyl-1-[2-[4-[(4-chlorophenyl)methyl]piperazin-1-yl]acetyl]indoline-2-carboxamide

> <PUBCHEM_IUPAC_CAS_NAME>
(2S)-1-[2-[4-[(4-chlorophenyl)methyl]-1-piperazinyl]-1-oxoethyl]-N-(phenylmethyl)-2,3-dihydroindole-2-carboxamide

> <PUBCHEM_IUPAC_NAME_MARKUP>
(2<I>S</I>)-<I>N</I>-benzyl-1-[2-[4-[(4-chlorophenyl)methyl]piperazin-1-yl]acetyl]-2,3-dihydroindole-2-carboxamide

> <PUBCHEM_IUPAC_NAME>
(2S)-N-benzyl-1-[2-[4-[(4-chlorophenyl)methyl]piperazin-1-yl]acetyl]-2,3-dihydroindole-2-carboxamide

> <PUBCHEM_IUPAC_SYSTEMATIC_NAME>
(2S)-1-[2-[4-[(4-chlorophenyl)methyl]piperazin-1-yl]ethanoyl]-N-(phenylmethyl)-2,3-dihydroindole-2-carboxamide

> <PUBCHEM_IUPAC_TRADITIONAL_NAME>
(2S)-N-benzyl-1-[2-[4-(4-chlorobenzyl)piperazino]acetyl]indoline-2-carboxamide

> <PUBCHEM_IUPAC_INCHI>
InChI=1S/C29H31ClN4O2/c30-25-12-10-23(11-13-25)20-32-14-16-33(17-15-32)21-28(35)34-26-9-5-4-8-24(26)18-27(34)29(36)31-19-22-6-2-1-3-7-22/h1-13,27H,14-21H2,(H,31,36)/t27-/m0/s1

> <PUBCHEM_IUPAC_INCHIKEY>
WNYJACXWJDHSMQ-MHZLTWQESA-N

> <PUBCHEM_XLOGP3_AA>
4.2

> <PUBCHEM_EXACT_MASS>
502.2135539

> <PUBCHEM_MOLECULAR_FORMULA>
C29H31ClN4O2

> <PUBCHEM_MOLECULAR_WEIGHT>
503.0

> <PUBCHEM_OPENEYE_CAN_SMILES>
C1CN(CCN1CC2=CC=C(C=C2)Cl)CC(=O)N3C(CC4=CC=CC=C43)C(=O)NCC5=CC=CC=C5

> <PUBCHEM_OPENEYE_ISO_SMILES>
C1CN(CCN1CC2=CC=C(C=C2)Cl)CC(=O)N3[C@@H](CC4=CC=CC=C43)C(=O)NCC5=CC=CC=C5

> <PUBCHEM_CACTVS_TPSA>
55.9

> <PUBCHEM_MONOISOTOPIC_WEIGHT>
502.2135539

> <PUBCHEM_TOTAL_CHARGE>
0

> <PUBCHEM_HEAVY_ATOM_COUNT>
36

> <PUBCHEM_ATOM_DEF_STEREO_COUNT>
1

> <PUBCHEM_ATOM_UDEF_STEREO_COUNT>
0

> <PUBCHEM_BOND_DEF_STEREO_COUNT>
0

> <PUBCHEM_BOND_UDEF_STEREO_COUNT>
0

> <PUBCHEM_ISOTOPIC_ATOM_COUNT>
0

> <PUBCHEM_COMPONENT_COUNT>
1

> <PUBCHEM_CACTVS_TAUTO_COUNT>
-1

> <PUBCHEM_COORDINATE_TYPE>
1
5
255

> <PUBCHEM_BONDANNOTATIONS>
15  16  8
15  20  8
16  21  8
20  23  8
21  24  8
22  26  8
22  27  8
23  24  8
26  29  8
27  30  8
28  32  8
28  33  8
29  31  8
30  31  8
32  34  8
33  35  8
34  36  8
35  36  8
8  19  5

$$$$
