44330639
  -OEChem-09292322512D

 28 30  0     0  0  0  0  0  0999 V2000
    2.1245   -0.0148    0.0000 S   0  0  0  0  0  0  0  0  0  0  0  0
    4.6282   -0.5958    0.0000 N   0  0  0  0  0  0  0  0  0  0  0  0
    6.2142   -0.8822    0.0000 N   0  0  0  0  0  0  0  0  0  0  0  0
    5.7424   -1.7572    0.0000 N   0  0  0  0  0  0  0  0  0  0  0  0
    4.1282    1.5949    0.0000 C   0  0  0  0  0  0  0  0  0  0  0  0
    3.5047    0.8131    0.0000 C   0  0  0  0  0  0  0  0  0  0  0  0
    5.1282    1.5949    0.0000 C   0  0  0  0  0  0  0  0  0  0  0  0
    3.7272   -0.1619    0.0000 C   0  0  0  0  0  0  0  0  0  0  0  0
    5.7517    0.8131    0.0000 C   0  0  0  0  0  0  0  0  0  0  0  0
    5.5291   -0.1619    0.0000 C   0  0  0  0  0  0  0  0  0  0  0  0
    2.5144    0.8996    0.0000 C   0  0  0  0  0  0  0  0  0  0  0  0
    2.8725   -0.6695    0.0000 C   0  0  0  0  0  0  0  0  0  0  0  0
    4.7642   -1.5805    0.0000 C   0  0  0  0  0  0  0  0  0  0  0  0
    2.0000    1.7572    0.0000 C   0  0  0  0  0  0  0  0  0  0  0  0
    2.7812   -1.6653    0.0000 C   0  0  0  0  0  0  0  0  0  0  0  0
    4.2661    2.1993    0.0000 H   0  0  0  0  0  0  0  0  0  0  0  0
    3.5696    1.8639    0.0000 H   0  0  0  0  0  0  0  0  0  0  0  0
    5.6868    1.8639    0.0000 H   0  0  0  0  0  0  0  0  0  0  0  0
    4.9902    2.1993    0.0000 H   0  0  0  0  0  0  0  0  0  0  0  0
    6.3103    0.5440    0.0000 H   0  0  0  0  0  0  0  0  0  0  0  0
    6.1382    1.2978    0.0000 H   0  0  0  0  0  0  0  0  0  0  0  0
    4.3168   -2.0097    0.0000 H   0  0  0  0  0  0  0  0  0  0  0  0
    2.5317    2.0761    0.0000 H   0  0  0  0  0  0  0  0  0  0  0  0
    1.6811    2.2888    0.0000 H   0  0  0  0  0  0  0  0  0  0  0  0
    1.4683    1.4382    0.0000 H   0  0  0  0  0  0  0  0  0  0  0  0
    2.1638   -1.6087    0.0000 H   0  0  0  0  0  0  0  0  0  0  0  0
    2.7245   -2.2828    0.0000 H   0  0  0  0  0  0  0  0  0  0  0  0
    3.3986   -1.7220    0.0000 H   0  0  0  0  0  0  0  0  0  0  0  0
  1 11  1  0  0  0  0
  1 12  1  0  0  0  0
  2  8  1  0  0  0  0
  2 10  1  0  0  0  0
  2 13  1  0  0  0  0
  3  4  1  0  0  0  0
  3 10  2  0  0  0  0
  4 13  2  0  0  0  0
  5  6  1  0  0  0  0
  5  7  1  0  0  0  0
  5 16  1  0  0  0  0
  5 17  1  0  0  0  0
  6  8  1  0  0  0  0
  6 11  2  0  0  0  0
  7  9  1  0  0  0  0
  7 18  1  0  0  0  0
  7 19  1  0  0  0  0
  8 12  2  0  0  0  0
  9 10  1  0  0  0  0
  9 20  1  0  0  0  0
  9 21  1  0  0  0  0
 11 14  1  0  0  0  0
 12 15  1  0  0  0  0
 13 22  1  0  0  0  0
 14 23  1  0  0  0  0
 14 24  1  0  0  0  0
 14 25  1  0  0  0  0
 15 26  1  0  0  0  0
 15 27  1  0  0  0  0
 15 28  1  0  0  0  0
M  END
> <PUBCHEM_COMPOUND_CID>
44330639

> <PUBCHEM_COMPOUND_CANONICALIZED>
1

> <PUBCHEM_CACTVS_COMPLEXITY>
248

> <PUBCHEM_CACTVS_HBOND_ACCEPTOR>
3

> <PUBCHEM_CACTVS_HBOND_DONOR>
0

> <PUBCHEM_CACTVS_ROTATABLE_BOND>
0

> <PUBCHEM_CACTVS_SUBSKEYS>
AAADccBzAABAAAAAAAAAAAAAAAAAAWJAAAAAAAAABYAAAACx4AAAHAQIAAAADAiBWwQH0YcMEAimAgZhZACTgKsxiLAVyBQ4RIiIKCLgmJCEAAxgiALoyCcQgIAOAAAAAAAAAAAAAAAAAAAAAAAAAAAAAA==

> <PUBCHEM_IUPAC_OPENEYE_NAME>
3,5-dimethyl-4-thia-1,11,12-triazatricyclo[8.3.0.02,6]trideca-2,5,10,12-tetraene

> <PUBCHEM_IUPAC_CAS_NAME>
3,5-dimethyl-4-thia-1,11,12-triazatricyclo[8.3.0.02,6]trideca-2,5,10,12-tetraene

> <PUBCHEM_IUPAC_NAME_MARKUP>
3,5-dimethyl-4-thia-1,11,12-triazatricyclo[8.3.0.0<SUP>2,6</SUP>]trideca-2,5,10,12-tetraene

> <PUBCHEM_IUPAC_NAME>
3,5-dimethyl-4-thia-1,11,12-triazatricyclo[8.3.0.02,6]trideca-2,5,10,12-tetraene

> <PUBCHEM_IUPAC_SYSTEMATIC_NAME>
3,5-dimethyl-4-thia-1,11,12-triazatricyclo[8.3.0.02,6]trideca-2,5,10,12-tetraene

> <PUBCHEM_IUPAC_TRADITIONAL_NAME>
3,5-dimethyl-4-thia-1,11,12-triazatricyclo[8.3.0.02,6]trideca-2,5,10,12-tetraene

> <PUBCHEM_IUPAC_INCHI>
InChI=1S/C11H13N3S/c1-7-9-4-3-5-10-13-12-6-14(10)11(9)8(2)15-7/h6H,3-5H2,1-2H3

> <PUBCHEM_IUPAC_INCHIKEY>
HNTQDXMQRZDTPP-UHFFFAOYSA-N

> <PUBCHEM_XLOGP3_AA>
2.3

> <PUBCHEM_EXACT_MASS>
219.08301860

> <PUBCHEM_MOLECULAR_FORMULA>
C11H13N3S

> <PUBCHEM_MOLECULAR_WEIGHT>
219.31

> <PUBCHEM_OPENEYE_CAN_SMILES>
CC1=C2CCCC3=NN=CN3C2=C(S1)C

> <PUBCHEM_OPENEYE_ISO_SMILES>
CC1=C2CCCC3=NN=CN3C2=C(S1)C

> <PUBCHEM_CACTVS_TPSA>
59

> <PUBCHEM_MONOISOTOPIC_WEIGHT>
219.08301860

> <PUBCHEM_TOTAL_CHARGE>
0

> <PUBCHEM_HEAVY_ATOM_COUNT>
15

> <PUBCHEM_ATOM_DEF_STEREO_COUNT>
0

> <PUBCHEM_ATOM_UDEF_STEREO_COUNT>
0

> <PUBCHEM_BOND_DEF_STEREO_COUNT>
0

> <PUBCHEM_BOND_UDEF_STEREO_COUNT>
0

> <PUBCHEM_ISOTOPIC_ATOM_COUNT>
0

> <PUBCHEM_COMPONENT_COUNT>
1

> <PUBCHEM_CACTVS_TAUTO_COUNT>
-1

> <PUBCHEM_COORDINATE_TYPE>
1
5
255

> <PUBCHEM_BONDANNOTATIONS>
1  11  8
1  12  8
2  10  8
2  13  8
3  10  8
3  4  8
4  13  8
6  11  8
6  8  8
8  12  8

$$$$
