44395711
  -OEChem-09292322232D

 45 48  0     1  0  0  0  0  0999 V2000
    2.0000   -4.8247    0.0000 Cl  0  0  0  0  0  0  0  0  0  0  0  0
    7.6434    4.8247    0.0000 F   0  0  0  0  0  0  0  0  0  0  0  0
    3.5863   -1.5868    0.0000 O   0  0  0  0  0  0  0  0  0  0  0  0
    6.1434    0.4945    0.0000 N   0  0  0  0  0  0  0  0  0  0  0  0
    6.8800   -0.4881    0.0000 C   0  0  3  0  0  0  0  0  0  0  0  0
    6.6212   -1.4540    0.0000 C   0  0  3  0  0  0  0  0  0  0  0  0
    4.5712   -1.7605    0.0000 C   0  0  0  0  0  0  0  0  0  0  0  0
    4.8468   -0.7992    0.0000 C   0  0  0  0  0  0  0  0  0  0  0  0
    5.4002   -2.3197    0.0000 C   0  0  0  0  0  0  0  0  0  0  0  0
    8.2790   -0.9969    0.0000 C   0  0  0  0  0  0  0  0  0  0  0  0
    8.0201   -1.9628    0.0000 C   0  0  0  0  0  0  0  0  0  0  0  0
    5.6434    1.3606    0.0000 C   0  0  0  0  0  0  0  0  0  0  0  0
    3.9284   -2.5265    0.0000 C   0  0  0  0  0  0  0  0  0  0  0  0
    6.1434    2.2266    0.0000 C   0  0  0  0  0  0  0  0  0  0  0  0
    2.9436   -2.3529    0.0000 C   0  0  0  0  0  0  0  0  0  0  0  0
    4.2704   -3.4662    0.0000 C   0  0  0  0  0  0  0  0  0  0  0  0
    5.6434    3.0926    0.0000 C   0  0  0  0  0  0  0  0  0  0  0  0
    7.1434    2.2266    0.0000 C   0  0  0  0  0  0  0  0  0  0  0  0
    2.3008   -3.1189    0.0000 C   0  0  0  0  0  0  0  0  0  0  0  0
    3.6276   -4.2323    0.0000 C   0  0  0  0  0  0  0  0  0  0  0  0
    2.6428   -4.0586    0.0000 C   0  0  0  0  0  0  0  0  0  0  0  0
    6.1434    3.9586    0.0000 C   0  0  0  0  0  0  0  0  0  0  0  0
    7.6434    3.0926    0.0000 C   0  0  0  0  0  0  0  0  0  0  0  0
    7.1434    3.9586    0.0000 C   0  0  0  0  0  0  0  0  0  0  0  0
    7.2494    0.0099    0.0000 H   0  0  0  0  0  0  0  0  0  0  0  0
    6.7040   -2.0685    0.0000 H   0  0  0  0  0  0  0  0  0  0  0  0
    4.8417   -0.1792    0.0000 H   0  0  0  0  0  0  0  0  0  0  0  0
    4.2325   -0.7154    0.0000 H   0  0  0  0  0  0  0  0  0  0  0  0
    4.9943   -2.7884    0.0000 H   0  0  0  0  0  0  0  0  0  0  0  0
    5.8168   -2.7788    0.0000 H   0  0  0  0  0  0  0  0  0  0  0  0
    8.8729   -1.1747    0.0000 H   0  0  0  0  0  0  0  0  0  0  0  0
    8.4739   -0.4083    0.0000 H   0  0  0  0  0  0  0  0  0  0  0  0
    7.8252   -2.5514    0.0000 H   0  0  0  0  0  0  0  0  0  0  0  0
    8.6141   -2.1406    0.0000 H   0  0  0  0  0  0  0  0  0  0  0  0
    5.1685    1.7591    0.0000 H   0  0  0  0  0  0  0  0  0  0  0  0
    5.1685    0.9620    0.0000 H   0  0  0  0  0  0  0  0  0  0  0  0
    3.3743   -1.0042    0.0000 H   0  0  0  0  0  0  0  0  0  0  0  0
    2.7315   -1.7703    0.0000 H   0  0  0  0  0  0  0  0  0  0  0  0
    4.8810   -3.5739    0.0000 H   0  0  0  0  0  0  0  0  0  0  0  0
    5.0234    3.0926    0.0000 H   0  0  0  0  0  0  0  0  0  0  0  0
    7.4534    1.6896    0.0000 H   0  0  0  0  0  0  0  0  0  0  0  0
    1.6902   -3.0113    0.0000 H   0  0  0  0  0  0  0  0  0  0  0  0
    3.8396   -4.8149    0.0000 H   0  0  0  0  0  0  0  0  0  0  0  0
    5.8334    4.4956    0.0000 H   0  0  0  0  0  0  0  0  0  0  0  0
    8.2634    3.0926    0.0000 H   0  0  0  0  0  0  0  0  0  0  0  0
  1 21  1  0  0  0  0
  2 24  1  0  0  0  0
  3  7  1  0  0  0  0
  3 37  1  0  0  0  0
  4  5  1  0  0  0  0
  4  6  1  0  0  0  0
  4 12  1  0  0  0  0
  5  8  1  0  0  0  0
  5 10  1  0  0  0  0
  5 25  1  0  0  0  0
  6  9  1  0  0  0  0
  6 11  1  0  0  0  0
  6 26  1  0  0  0  0
  7  8  1  0  0  0  0
  7  9  1  0  0  0  0
  7 13  1  0  0  0  0
  8 27  1  0  0  0  0
  8 28  1  0  0  0  0
  9 29  1  0  0  0  0
  9 30  1  0  0  0  0
 10 11  1  0  0  0  0
 10 31  1  0  0  0  0
 10 32  1  0  0  0  0
 11 33  1  0  0  0  0
 11 34  1  0  0  0  0
 12 14  1  0  0  0  0
 12 35  1  0  0  0  0
 12 36  1  0  0  0  0
 13 15  2  0  0  0  0
 13 16  1  0  0  0  0
 14 17  2  0  0  0  0
 14 18  1  0  0  0  0
 15 19  1  0  0  0  0
 15 38  1  0  0  0  0
 16 20  2  0  0  0  0
 16 39  1  0  0  0  0
 17 22  1  0  0  0  0
 17 40  1  0  0  0  0
 18 23  2  0  0  0  0
 18 41  1  0  0  0  0
 19 21  2  0  0  0  0
 19 42  1  0  0  0  0
 20 21  1  0  0  0  0
 20 43  1  0  0  0  0
 22 24  2  0  0  0  0
 22 44  1  0  0  0  0
 23 24  1  0  0  0  0
 23 45  1  0  0  0  0
M  END
> <PUBCHEM_COMPOUND_CID>
44395711

> <PUBCHEM_COMPOUND_CANONICALIZED>
1

> <PUBCHEM_CACTVS_COMPLEXITY>
417

> <PUBCHEM_CACTVS_HBOND_ACCEPTOR>
3

> <PUBCHEM_CACTVS_HBOND_DONOR>
1

> <PUBCHEM_CACTVS_ROTATABLE_BOND>
3

> <PUBCHEM_CACTVS_SUBSKEYS>
AAADceB6IQAEAAAAAAAAAAAAAAAAAWAAAAA8YIAABgAAAAABQAAAHwIACAAADG7BmCwwAIMAAgCAAiBCAACCAAAgBQAIiAAIDogIJiKBkxGEcAhmwAGImAeQwOAOhAAAAAAAAAAIAAAAAAAAAAAAAAAAAA==

> <PUBCHEM_IUPAC_OPENEYE_NAME>
3-(4-chlorophenyl)-8-[(4-fluorophenyl)methyl]-8-azabicyclo[3.2.1]octan-3-ol

> <PUBCHEM_IUPAC_CAS_NAME>
3-(4-chlorophenyl)-8-[(4-fluorophenyl)methyl]-8-azabicyclo[3.2.1]octan-3-ol

> <PUBCHEM_IUPAC_NAME_MARKUP>
3-(4-chlorophenyl)-8-[(4-fluorophenyl)methyl]-8-azabicyclo[3.2.1]octan-3-ol

> <PUBCHEM_IUPAC_NAME>
3-(4-chlorophenyl)-8-[(4-fluorophenyl)methyl]-8-azabicyclo[3.2.1]octan-3-ol

> <PUBCHEM_IUPAC_SYSTEMATIC_NAME>
3-(4-chlorophenyl)-8-[(4-fluorophenyl)methyl]-8-azabicyclo[3.2.1]octan-3-ol

> <PUBCHEM_IUPAC_TRADITIONAL_NAME>
3-(4-chlorophenyl)-8-(4-fluorobenzyl)-8-azabicyclo[3.2.1]octan-3-ol

> <PUBCHEM_IUPAC_INCHI>
InChI=1S/C20H21ClFNO/c21-16-5-3-15(4-6-16)20(24)11-18-9-10-19(12-20)23(18)13-14-1-7-17(22)8-2-14/h1-8,18-19,24H,9-13H2

> <PUBCHEM_IUPAC_INCHIKEY>
UTSVFENYHGEOSM-UHFFFAOYSA-N

> <PUBCHEM_XLOGP3_AA>
4.3

> <PUBCHEM_EXACT_MASS>
345.1295701

> <PUBCHEM_MOLECULAR_FORMULA>
C20H21ClFNO

> <PUBCHEM_MOLECULAR_WEIGHT>
345.8

> <PUBCHEM_OPENEYE_CAN_SMILES>
C1CC2CC(CC1N2CC3=CC=C(C=C3)F)(C4=CC=C(C=C4)Cl)O

> <PUBCHEM_OPENEYE_ISO_SMILES>
C1CC2CC(CC1N2CC3=CC=C(C=C3)F)(C4=CC=C(C=C4)Cl)O

> <PUBCHEM_CACTVS_TPSA>
23.5

> <PUBCHEM_MONOISOTOPIC_WEIGHT>
345.1295701

> <PUBCHEM_TOTAL_CHARGE>
0

> <PUBCHEM_HEAVY_ATOM_COUNT>
24

> <PUBCHEM_ATOM_DEF_STEREO_COUNT>
0

> <PUBCHEM_ATOM_UDEF_STEREO_COUNT>
2

> <PUBCHEM_BOND_DEF_STEREO_COUNT>
0

> <PUBCHEM_BOND_UDEF_STEREO_COUNT>
0

> <PUBCHEM_ISOTOPIC_ATOM_COUNT>
0

> <PUBCHEM_COMPONENT_COUNT>
1

> <PUBCHEM_CACTVS_TAUTO_COUNT>
-1

> <PUBCHEM_COORDINATE_TYPE>
1
5
255

> <PUBCHEM_BONDANNOTATIONS>
13  15  8
13  16  8
14  17  8
14  18  8
15  19  8
16  20  8
17  22  8
18  23  8
19  21  8
20  21  8
22  24  8
23  24  8
5  10  3
6  11  3

$$$$
