44317105
  -OEChem-09292322212D

 59 62  0     0  0  0  0  0  0999 V2000
    2.0000   -4.7694    0.0000 Cl  0  0  0  0  0  0  0  0  0  0  0  0
    6.2731    5.8184    0.0000 S   0  0  0  0  0  0  0  0  0  0  0  0
    6.3301    3.7306    0.0000 O   0  0  0  0  0  0  0  0  0  0  0  0
    3.7320   -1.7694    0.0000 N   0  0  0  0  0  0  0  0  0  0  0  0
    4.5981    3.7306    0.0000 N   0  0  0  0  0  0  0  0  0  0  0  0
    3.7320   -3.7694    0.0000 N   0  0  0  0  0  0  0  0  0  0  0  0
    4.5981    0.7306    0.0000 C   0  0  0  0  0  0  0  0  0  0  0  0
    3.7320    1.2306    0.0000 C   0  0  0  0  0  0  0  0  0  0  0  0
    5.4641    1.2306    0.0000 C   0  0  0  0  0  0  0  0  0  0  0  0
    4.5981    2.7306    0.0000 C   0  0  0  0  0  0  0  0  0  0  0  0
    3.7320    2.2306    0.0000 C   0  0  0  0  0  0  0  0  0  0  0  0
    5.4641    2.2306    0.0000 C   0  0  0  0  0  0  0  0  0  0  0  0
    4.5981   -0.2694    0.0000 C   0  0  0  0  0  0  0  0  0  0  0  0
    3.7320   -0.7694    0.0000 C   0  0  0  0  0  0  0  0  0  0  0  0
    4.5981   -2.2694    0.0000 C   0  0  0  0  0  0  0  0  0  0  0  0
    2.8660   -2.2694    0.0000 C   0  0  0  0  0  0  0  0  0  0  0  0
    4.5981   -3.2694    0.0000 C   0  0  0  0  0  0  0  0  0  0  0  0
    2.8660   -3.2694    0.0000 C   0  0  0  0  0  0  0  0  0  0  0  0
    5.4641    4.2306    0.0000 C   0  0  0  0  0  0  0  0  0  0  0  0
    3.7320   -4.7694    0.0000 C   0  0  0  0  0  0  0  0  0  0  0  0
    5.4641    5.2306    0.0000 C   0  0  0  0  0  0  0  0  0  0  0  0
    2.8660   -5.2694    0.0000 C   0  0  0  0  0  0  0  0  0  0  0  0
    4.5981   -5.2694    0.0000 C   0  0  0  0  0  0  0  0  0  0  0  0
    2.8660   -6.2694    0.0000 C   0  0  0  0  0  0  0  0  0  0  0  0
    4.5981   -6.2694    0.0000 C   0  0  0  0  0  0  0  0  0  0  0  0
    4.6551    5.8184    0.0000 C   0  0  0  0  0  0  0  0  0  0  0  0
    3.7320   -6.7694    0.0000 C   0  0  0  0  0  0  0  0  0  0  0  0
    4.9641    6.7694    0.0000 C   0  0  0  0  0  0  0  0  0  0  0  0
    5.9641    6.7694    0.0000 C   0  0  0  0  0  0  0  0  0  0  0  0
    5.1350    0.4206    0.0000 H   0  0  0  0  0  0  0  0  0  0  0  0
    3.1215    1.3382    0.0000 H   0  0  0  0  0  0  0  0  0  0  0  0
    3.5200    0.6480    0.0000 H   0  0  0  0  0  0  0  0  0  0  0  0
    5.6762    0.6480    0.0000 H   0  0  0  0  0  0  0  0  0  0  0  0
    6.0747    1.3382    0.0000 H   0  0  0  0  0  0  0  0  0  0  0  0
    5.1350    3.0406    0.0000 H   0  0  0  0  0  0  0  0  0  0  0  0
    3.5200    2.8132    0.0000 H   0  0  0  0  0  0  0  0  0  0  0  0
    3.1215    2.1229    0.0000 H   0  0  0  0  0  0  0  0  0  0  0  0
    6.0747    2.1229    0.0000 H   0  0  0  0  0  0  0  0  0  0  0  0
    5.6762    2.8132    0.0000 H   0  0  0  0  0  0  0  0  0  0  0  0
    4.8101   -0.8520    0.0000 H   0  0  0  0  0  0  0  0  0  0  0  0
    5.2087   -0.1618    0.0000 H   0  0  0  0  0  0  0  0  0  0  0  0
    3.5200   -0.1868    0.0000 H   0  0  0  0  0  0  0  0  0  0  0  0
    3.1215   -0.8771    0.0000 H   0  0  0  0  0  0  0  0  0  0  0  0
    5.2087   -2.3771    0.0000 H   0  0  0  0  0  0  0  0  0  0  0  0
    4.8101   -1.6868    0.0000 H   0  0  0  0  0  0  0  0  0  0  0  0
    2.6540   -1.6868    0.0000 H   0  0  0  0  0  0  0  0  0  0  0  0
    2.2554   -2.3771    0.0000 H   0  0  0  0  0  0  0  0  0  0  0  0
    4.0611    4.0406    0.0000 H   0  0  0  0  0  0  0  0  0  0  0  0
    4.8101   -3.8520    0.0000 H   0  0  0  0  0  0  0  0  0  0  0  0
    5.2087   -3.1618    0.0000 H   0  0  0  0  0  0  0  0  0  0  0  0
    2.2554   -3.1618    0.0000 H   0  0  0  0  0  0  0  0  0  0  0  0
    2.6540   -3.8520    0.0000 H   0  0  0  0  0  0  0  0  0  0  0  0
    5.1350   -4.9594    0.0000 H   0  0  0  0  0  0  0  0  0  0  0  0
    2.3291   -6.5794    0.0000 H   0  0  0  0  0  0  0  0  0  0  0  0
    5.1350   -6.5794    0.0000 H   0  0  0  0  0  0  0  0  0  0  0  0
    4.0654    5.6268    0.0000 H   0  0  0  0  0  0  0  0  0  0  0  0
    3.7320   -7.3894    0.0000 H   0  0  0  0  0  0  0  0  0  0  0  0
    4.5997    7.2710    0.0000 H   0  0  0  0  0  0  0  0  0  0  0  0
    6.3285    7.2710    0.0000 H   0  0  0  0  0  0  0  0  0  0  0  0
  1 22  1  0  0  0  0
  2 21  1  0  0  0  0
  2 29  1  0  0  0  0
  3 19  2  0  0  0  0
  4 14  1  0  0  0  0
  4 15  1  0  0  0  0
  4 16  1  0  0  0  0
  5 10  1  0  0  0  0
  5 19  1  0  0  0  0
  5 48  1  0  0  0  0
  6 17  1  0  0  0  0
  6 18  1  0  0  0  0
  6 20  1  0  0  0  0
  7  8  1  0  0  0  0
  7  9  1  0  0  0  0
  7 13  1  0  0  0  0
  7 30  1  0  0  0  0
  8 11  1  0  0  0  0
  8 31  1  0  0  0  0
  8 32  1  0  0  0  0
  9 12  1  0  0  0  0
  9 33  1  0  0  0  0
  9 34  1  0  0  0  0
 10 11  1  0  0  0  0
 10 12  1  0  0  0  0
 10 35  1  0  0  0  0
 11 36  1  0  0  0  0
 11 37  1  0  0  0  0
 12 38  1  0  0  0  0
 12 39  1  0  0  0  0
 13 14  1  0  0  0  0
 13 40  1  0  0  0  0
 13 41  1  0  0  0  0
 14 42  1  0  0  0  0
 14 43  1  0  0  0  0
 15 17  1  0  0  0  0
 15 44  1  0  0  0  0
 15 45  1  0  0  0  0
 16 18  1  0  0  0  0
 16 46  1  0  0  0  0
 16 47  1  0  0  0  0
 17 49  1  0  0  0  0
 17 50  1  0  0  0  0
 18 51  1  0  0  0  0
 18 52  1  0  0  0  0
 19 21  1  0  0  0  0
 20 22  1  0  0  0  0
 20 23  2  0  0  0  0
 21 26  2  0  0  0  0
 22 24  2  0  0  0  0
 23 25  1  0  0  0  0
 23 53  1  0  0  0  0
 24 27  1  0  0  0  0
 24 54  1  0  0  0  0
 25 27  2  0  0  0  0
 25 55  1  0  0  0  0
 26 28  1  0  0  0  0
 26 56  1  0  0  0  0
 27 57  1  0  0  0  0
 28 29  2  0  0  0  0
 28 58  1  0  0  0  0
 29 59  1  0  0  0  0
M  END
> <PUBCHEM_COMPOUND_CID>
44317105

> <PUBCHEM_COMPOUND_CANONICALIZED>
1

> <PUBCHEM_CACTVS_COMPLEXITY>
520

> <PUBCHEM_CACTVS_HBOND_ACCEPTOR>
4

> <PUBCHEM_CACTVS_HBOND_DONOR>
1

> <PUBCHEM_CACTVS_ROTATABLE_BOND>
6

> <PUBCHEM_CACTVS_SUBSKEYS>
AAADceB7IABEAAAAAAAAAAAAAAAAASAAAAA8YIAAAAAAAAABwAAAHgYQAAAADSrF0CSwwYPAAAiMACVSUACDAIAlDxBIiJkIZsgIYDLhl5HUIQhglgDoyYcYgIAOAAAAAAAAABAQAAAAAAAAIAAAAAAAAA==

> <PUBCHEM_IUPAC_OPENEYE_NAME>
N-[4-[2-[4-(2-chlorophenyl)piperazin-1-yl]ethyl]cyclohexyl]thiophene-2-carboxamide

> <PUBCHEM_IUPAC_CAS_NAME>
N-[4-[2-[4-(2-chlorophenyl)-1-piperazinyl]ethyl]cyclohexyl]-2-thiophenecarboxamide

> <PUBCHEM_IUPAC_NAME_MARKUP>
<I>N</I>-[4-[2-[4-(2-chlorophenyl)piperazin-1-yl]ethyl]cyclohexyl]thiophene-2-carboxamide

> <PUBCHEM_IUPAC_NAME>
N-[4-[2-[4-(2-chlorophenyl)piperazin-1-yl]ethyl]cyclohexyl]thiophene-2-carboxamide

> <PUBCHEM_IUPAC_SYSTEMATIC_NAME>
N-[4-[2-[4-(2-chlorophenyl)piperazin-1-yl]ethyl]cyclohexyl]thiophene-2-carboxamide

> <PUBCHEM_IUPAC_TRADITIONAL_NAME>
N-[4-[2-[4-(2-chlorophenyl)piperazino]ethyl]cyclohexyl]thiophene-2-carboxamide

> <PUBCHEM_IUPAC_INCHI>
InChI=1S/C23H30ClN3OS/c24-20-4-1-2-5-21(20)27-15-13-26(14-16-27)12-11-18-7-9-19(10-8-18)25-23(28)22-6-3-17-29-22/h1-6,17-19H,7-16H2,(H,25,28)

> <PUBCHEM_IUPAC_INCHIKEY>
GBBXKCGHLOWKFM-UHFFFAOYSA-N

> <PUBCHEM_XLOGP3_AA>
5.4

> <PUBCHEM_EXACT_MASS>
431.1798115

> <PUBCHEM_MOLECULAR_FORMULA>
C23H30ClN3OS

> <PUBCHEM_MOLECULAR_WEIGHT>
432.0

> <PUBCHEM_OPENEYE_CAN_SMILES>
C1CC(CCC1CCN2CCN(CC2)C3=CC=CC=C3Cl)NC(=O)C4=CC=CS4

> <PUBCHEM_OPENEYE_ISO_SMILES>
C1CC(CCC1CCN2CCN(CC2)C3=CC=CC=C3Cl)NC(=O)C4=CC=CS4

> <PUBCHEM_CACTVS_TPSA>
63.8

> <PUBCHEM_MONOISOTOPIC_WEIGHT>
431.1798115

> <PUBCHEM_TOTAL_CHARGE>
0

> <PUBCHEM_HEAVY_ATOM_COUNT>
29

> <PUBCHEM_ATOM_DEF_STEREO_COUNT>
0

> <PUBCHEM_ATOM_UDEF_STEREO_COUNT>
0

> <PUBCHEM_BOND_DEF_STEREO_COUNT>
0

> <PUBCHEM_BOND_UDEF_STEREO_COUNT>
0

> <PUBCHEM_ISOTOPIC_ATOM_COUNT>
0

> <PUBCHEM_COMPONENT_COUNT>
1

> <PUBCHEM_CACTVS_TAUTO_COUNT>
-1

> <PUBCHEM_COORDINATE_TYPE>
1
5
255

> <PUBCHEM_BONDANNOTATIONS>
2  21  8
2  29  8
20  22  8
20  23  8
21  26  8
22  24  8
23  25  8
24  27  8
25  27  8
26  28  8
28  29  8

$$$$
