11740275
  -OEChem-09292322202D

 54 56  0     1  0  0  0  0  0999 V2000
    6.3301   -3.2942    0.0000 S   0  0  0  0  0  0  0  0  0  0  0  0
    2.8660   -1.2942    0.0000 O   0  0  0  0  0  0  0  0  0  0  0  0
    5.8301   -4.1603    0.0000 O   0  0  0  0  0  0  0  0  0  0  0  0
    6.8301   -2.4282    0.0000 O   0  0  0  0  0  0  0  0  0  0  0  0
    3.9170    2.9672    0.0000 N   0  0  0  0  0  0  0  0  0  0  0  0
    3.7891    0.2935    0.0000 N   0  0  0  0  0  0  0  0  0  0  0  0
    4.9116    3.0717    0.0000 C   0  0  0  0  0  0  0  0  0  0  0  0
    3.3292    3.7762    0.0000 C   0  0  0  0  0  0  0  0  0  0  0  0
    3.5103    2.0536    0.0000 C   0  0  3  0  0  0  0  0  0  0  0  0
    5.3183    3.9852    0.0000 C   0  0  0  0  0  0  0  0  0  0  0  0
    3.7360    4.6897    0.0000 C   0  0  0  0  0  0  0  0  0  0  0  0
    4.7305    4.7942    0.0000 C   0  0  0  0  0  0  0  0  0  0  0  0
    4.0981    1.2446    0.0000 C   0  0  0  0  0  0  0  0  0  0  0  0
    2.5158    1.9491    0.0000 C   0  0  0  0  0  0  0  0  0  0  0  0
    5.0981    1.2446    0.0000 C   0  0  0  0  0  0  0  0  0  0  0  0
    4.5981   -0.2942    0.0000 C   0  0  0  0  0  0  0  0  0  0  0  0
    5.4071    0.2935    0.0000 C   0  0  0  0  0  0  0  0  0  0  0  0
    4.5981   -1.2942    0.0000 C   0  0  0  0  0  0  0  0  0  0  0  0
    5.4641   -1.7942    0.0000 C   0  0  0  0  0  0  0  0  0  0  0  0
    3.7320   -1.7942    0.0000 C   0  0  0  0  0  0  0  0  0  0  0  0
    5.4641   -2.7942    0.0000 C   0  0  0  0  0  0  0  0  0  0  0  0
    4.5981   -3.2942    0.0000 C   0  0  0  0  0  0  0  0  0  0  0  0
    3.7320   -2.7942    0.0000 C   0  0  0  0  0  0  0  0  0  0  0  0
    7.1962   -3.7942    0.0000 C   0  0  0  0  0  0  0  0  0  0  0  0
    7.1962   -4.7942    0.0000 C   0  0  0  0  0  0  0  0  0  0  0  0
    2.0000   -1.7942    0.0000 C   0  0  0  0  0  0  0  0  0  0  0  0
    4.8683    2.4532    0.0000 H   0  0  0  0  0  0  0  0  0  0  0  0
    5.5131    2.9217    0.0000 H   0  0  0  0  0  0  0  0  0  0  0  0
    2.8152    4.1229    0.0000 H   0  0  0  0  0  0  0  0  0  0  0  0
    2.8986    3.3302    0.0000 H   0  0  0  0  0  0  0  0  0  0  0  0
    3.1459    2.5552    0.0000 H   0  0  0  0  0  0  0  0  0  0  0  0
    5.8323    3.6385    0.0000 H   0  0  0  0  0  0  0  0  0  0  0  0
    5.7490    4.4312    0.0000 H   0  0  0  0  0  0  0  0  0  0  0  0
    3.7792    5.3082    0.0000 H   0  0  0  0  0  0  0  0  0  0  0  0
    3.1344    4.8397    0.0000 H   0  0  0  0  0  0  0  0  0  0  0  0
    5.2878    5.0660    0.0000 H   0  0  0  0  0  0  0  0  0  0  0  0
    4.5596    5.3902    0.0000 H   0  0  0  0  0  0  0  0  0  0  0  0
    2.4510    2.5657    0.0000 H   0  0  0  0  0  0  0  0  0  0  0  0
    1.8992    1.8843    0.0000 H   0  0  0  0  0  0  0  0  0  0  0  0
    2.5806    1.3325    0.0000 H   0  0  0  0  0  0  0  0  0  0  0  0
    3.1994    0.1019    0.0000 H   0  0  0  0  0  0  0  0  0  0  0  0
    5.4625    1.7462    0.0000 H   0  0  0  0  0  0  0  0  0  0  0  0
    5.9967    0.1019    0.0000 H   0  0  0  0  0  0  0  0  0  0  0  0
    6.0010   -1.4842    0.0000 H   0  0  0  0  0  0  0  0  0  0  0  0
    4.5981   -3.9142    0.0000 H   0  0  0  0  0  0  0  0  0  0  0  0
    3.1951   -3.1042    0.0000 H   0  0  0  0  0  0  0  0  0  0  0  0
    7.8067   -3.9019    0.0000 H   0  0  0  0  0  0  0  0  0  0  0  0
    7.4082   -3.2116    0.0000 H   0  0  0  0  0  0  0  0  0  0  0  0
    6.5762   -4.7942    0.0000 H   0  0  0  0  0  0  0  0  0  0  0  0
    7.1962   -5.4142    0.0000 H   0  0  0  0  0  0  0  0  0  0  0  0
    7.8162   -4.7942    0.0000 H   0  0  0  0  0  0  0  0  0  0  0  0
    1.6900   -1.2573    0.0000 H   0  0  0  0  0  0  0  0  0  0  0  0
    1.4631   -2.1042    0.0000 H   0  0  0  0  0  0  0  0  0  0  0  0
    2.3100   -2.3312    0.0000 H   0  0  0  0  0  0  0  0  0  0  0  0
  1  3  2  0  0  0  0
  1  4  2  0  0  0  0
  1 21  1  0  0  0  0
  1 24  1  0  0  0  0
  2 20  1  0  0  0  0
  2 26  1  0  0  0  0
  5  7  1  0  0  0  0
  5  8  1  0  0  0  0
  5  9  1  0  0  0  0
  6 13  1  0  0  0  0
  6 16  1  0  0  0  0
  6 41  1  0  0  0  0
  7 10  1  0  0  0  0
  7 27  1  0  0  0  0
  7 28  1  0  0  0  0
  8 11  1  0  0  0  0
  8 29  1  0  0  0  0
  8 30  1  0  0  0  0
  9 13  1  0  0  0  0
  9 14  1  0  0  0  0
  9 31  1  0  0  0  0
 10 12  1  0  0  0  0
 10 32  1  0  0  0  0
 10 33  1  0  0  0  0
 11 12  1  0  0  0  0
 11 34  1  0  0  0  0
 11 35  1  0  0  0  0
 12 36  1  0  0  0  0
 12 37  1  0  0  0  0
 13 15  2  0  0  0  0
 14 38  1  0  0  0  0
 14 39  1  0  0  0  0
 14 40  1  0  0  0  0
 15 17  1  0  0  0  0
 15 42  1  0  0  0  0
 16 17  2  0  0  0  0
 16 18  1  0  0  0  0
 17 43  1  0  0  0  0
 18 19  1  0  0  0  0
 18 20  2  0  0  0  0
 19 21  2  0  0  0  0
 19 44  1  0  0  0  0
 20 23  1  0  0  0  0
 21 22  1  0  0  0  0
 22 23  2  0  0  0  0
 22 45  1  0  0  0  0
 23 46  1  0  0  0  0
 24 25  1  0  0  0  0
 24 47  1  0  0  0  0
 24 48  1  0  0  0  0
 25 49  1  0  0  0  0
 25 50  1  0  0  0  0
 25 51  1  0  0  0  0
 26 52  1  0  0  0  0
 26 53  1  0  0  0  0
 26 54  1  0  0  0  0
M  END
> <PUBCHEM_COMPOUND_CID>
11740275

> <PUBCHEM_COMPOUND_CANONICALIZED>
1

> <PUBCHEM_CACTVS_COMPLEXITY>
542

> <PUBCHEM_CACTVS_HBOND_ACCEPTOR>
4

> <PUBCHEM_CACTVS_HBOND_DONOR>
1

> <PUBCHEM_CACTVS_ROTATABLE_BOND>
6

> <PUBCHEM_CACTVS_SUBSKEYS>
AAADceB7MABAAAAAAAAAAAAAAAAAAWAAAAA8QAAAAAAAAAABwAAAHgQQAAAADCzF3gayh5PJlAqgAyRiRHDCiCAhKjAImTg+bJgMZuLksZuUMChm0BHo6AeQwOAOAIAAgAAIAAABAAEAABAAAAAAAAAAAA==

> <PUBCHEM_IUPAC_OPENEYE_NAME>
1-[1-[5-(5-ethylsulfonyl-2-methoxy-phenyl)-1H-pyrrol-2-yl]ethyl]piperidine

> <PUBCHEM_IUPAC_CAS_NAME>
1-[1-[5-(5-ethylsulfonyl-2-methoxyphenyl)-1H-pyrrol-2-yl]ethyl]piperidine

> <PUBCHEM_IUPAC_NAME_MARKUP>
1-[1-[5-(5-ethylsulfonyl-2-methoxyphenyl)-1<I>H</I>-pyrrol-2-yl]ethyl]piperidine

> <PUBCHEM_IUPAC_NAME>
1-[1-[5-(5-ethylsulfonyl-2-methoxyphenyl)-1H-pyrrol-2-yl]ethyl]piperidine

> <PUBCHEM_IUPAC_SYSTEMATIC_NAME>
1-[1-[5-(5-ethylsulfonyl-2-methoxy-phenyl)-1H-pyrrol-2-yl]ethyl]piperidine

> <PUBCHEM_IUPAC_TRADITIONAL_NAME>
1-[1-[5-(5-esyl-2-methoxy-phenyl)-1H-pyrrol-2-yl]ethyl]piperidine

> <PUBCHEM_IUPAC_INCHI>
InChI=1S/C20H28N2O3S/c1-4-26(23,24)16-8-11-20(25-3)17(14-16)19-10-9-18(21-19)15(2)22-12-6-5-7-13-22/h8-11,14-15,21H,4-7,12-13H2,1-3H3

> <PUBCHEM_IUPAC_INCHIKEY>
YHRNVXAUNZJNND-UHFFFAOYSA-N

> <PUBCHEM_XLOGP3_AA>
3.1

> <PUBCHEM_EXACT_MASS>
376.18206393

> <PUBCHEM_MOLECULAR_FORMULA>
C20H28N2O3S

> <PUBCHEM_MOLECULAR_WEIGHT>
376.5

> <PUBCHEM_OPENEYE_CAN_SMILES>
CCS(=O)(=O)C1=CC(=C(C=C1)OC)C2=CC=C(N2)C(C)N3CCCCC3

> <PUBCHEM_OPENEYE_ISO_SMILES>
CCS(=O)(=O)C1=CC(=C(C=C1)OC)C2=CC=C(N2)C(C)N3CCCCC3

> <PUBCHEM_CACTVS_TPSA>
70.8

> <PUBCHEM_MONOISOTOPIC_WEIGHT>
376.18206393

> <PUBCHEM_TOTAL_CHARGE>
0

> <PUBCHEM_HEAVY_ATOM_COUNT>
26

> <PUBCHEM_ATOM_DEF_STEREO_COUNT>
0

> <PUBCHEM_ATOM_UDEF_STEREO_COUNT>
1

> <PUBCHEM_BOND_DEF_STEREO_COUNT>
0

> <PUBCHEM_BOND_UDEF_STEREO_COUNT>
0

> <PUBCHEM_ISOTOPIC_ATOM_COUNT>
0

> <PUBCHEM_COMPONENT_COUNT>
1

> <PUBCHEM_CACTVS_TAUTO_COUNT>
-1

> <PUBCHEM_COORDINATE_TYPE>
1
5
255

> <PUBCHEM_BONDANNOTATIONS>
13  15  8
15  17  8
16  17  8
18  19  8
18  20  8
19  21  8
20  23  8
21  22  8
22  23  8
6  13  8
6  16  8
9  14  3

$$$$
