66801701
  -OEChem-09292322392D

 62 65  0     1  0  0  0  0  0999 V2000
    2.0000   -2.5477    0.0000 Cl  0  0  0  0  0  0  0  0  0  0  0  0
   10.3438    3.5788    0.0000 S   0  0  0  0  0  0  0  0  0  0  0  0
   10.1376    4.5573    0.0000 O   0  0  0  0  0  0  0  0  0  0  0  0
   10.5500    2.6003    0.0000 O   0  0  0  0  0  0  0  0  0  0  0  0
    6.4763    0.1086    0.0000 N   0  0  3  0  0  0  0  0  0  0  0  0
    5.5443   -4.3524    0.0000 N   0  0  0  0  0  0  0  0  0  0  0  0
    9.3653    3.3726    0.0000 N   0  0  0  0  0  0  0  0  0  0  0  0
    5.4978   -0.0976    0.0000 C   0  0  0  0  0  0  0  0  0  0  0  0
    5.1871   -1.0482    0.0000 C   0  0  0  0  0  0  0  0  0  0  0  0
    5.8550   -1.7924    0.0000 C   0  0  0  0  0  0  0  0  0  0  0  0
    6.7870    1.0591    0.0000 C   0  0  0  0  0  0  0  0  0  0  0  0
    7.1441   -0.6357    0.0000 C   0  0  0  0  0  0  0  0  0  0  0  0
    5.5443   -2.7430    0.0000 C   0  0  0  0  0  0  0  0  0  0  0  0
    7.7654    1.2653    0.0000 C   0  0  0  0  0  0  0  0  0  0  0  0
    6.8335   -1.5862    0.0000 C   0  0  0  0  0  0  0  0  0  0  0  0
    8.0761    2.2158    0.0000 C   0  0  0  0  0  0  0  0  0  0  0  0
    4.5981   -3.0477    0.0000 C   0  0  0  0  0  0  0  0  0  0  0  0
    6.1279   -3.5477    0.0000 C   0  0  0  0  0  0  0  0  0  0  0  0
    4.5981   -4.0477    0.0000 C   0  0  0  0  0  0  0  0  0  0  0  0
    9.0546    2.4221    0.0000 C   0  0  0  0  0  0  0  0  0  0  0  0
    3.7320   -2.5477    0.0000 C   0  0  0  0  0  0  0  0  0  0  0  0
    7.1279   -3.5477    0.0000 C   0  0  0  0  0  0  0  0  0  0  0  0
    3.7320   -4.5477    0.0000 C   0  0  0  0  0  0  0  0  0  0  0  0
    2.8660   -3.0477    0.0000 C   0  0  0  0  0  0  0  0  0  0  0  0
    2.8660   -4.0477    0.0000 C   0  0  0  0  0  0  0  0  0  0  0  0
   11.3223    3.7850    0.0000 C   0  0  0  0  0  0  0  0  0  0  0  0
   11.9901    3.0407    0.0000 C   0  0  0  0  0  0  0  0  0  0  0  0
   11.6330    4.7355    0.0000 C   0  0  0  0  0  0  0  0  0  0  0  0
   12.9686    3.2469    0.0000 C   0  0  0  0  0  0  0  0  0  0  0  0
   12.6115    4.9418    0.0000 C   0  0  0  0  0  0  0  0  0  0  0  0
   13.2793    4.1975    0.0000 C   0  0  0  0  0  0  0  0  0  0  0  0
   13.6365    2.5026    0.0000 C   0  0  0  0  0  0  0  0  0  0  0  0
    5.4772    0.5220    0.0000 H   0  0  0  0  0  0  0  0  0  0  0  0
    4.8840   -0.0103    0.0000 H   0  0  0  0  0  0  0  0  0  0  0  0
    4.6402   -0.7561    0.0000 H   0  0  0  0  0  0  0  0  0  0  0  0
    4.8046   -1.5361    0.0000 H   0  0  0  0  0  0  0  0  0  0  0  0
    6.7664    1.6788    0.0000 H   0  0  0  0  0  0  0  0  0  0  0  0
    6.1731    1.1465    0.0000 H   0  0  0  0  0  0  0  0  0  0  0  0
    7.6910   -0.9277    0.0000 H   0  0  0  0  0  0  0  0  0  0  0  0
    7.5267   -0.1478    0.0000 H   0  0  0  0  0  0  0  0  0  0  0  0
    7.7860    0.6457    0.0000 H   0  0  0  0  0  0  0  0  0  0  0  0
    8.3793    1.1780    0.0000 H   0  0  0  0  0  0  0  0  0  0  0  0
    7.2475   -2.0477    0.0000 H   0  0  0  0  0  0  0  0  0  0  0  0
    8.0556    2.8355    0.0000 H   0  0  0  0  0  0  0  0  0  0  0  0
    7.4623    2.3032    0.0000 H   0  0  0  0  0  0  0  0  0  0  0  0
    9.0752    1.8024    0.0000 H   0  0  0  0  0  0  0  0  0  0  0  0
    9.6684    2.3347    0.0000 H   0  0  0  0  0  0  0  0  0  0  0  0
    5.7369   -4.9418    0.0000 H   0  0  0  0  0  0  0  0  0  0  0  0
    3.7320   -1.9277    0.0000 H   0  0  0  0  0  0  0  0  0  0  0  0
    7.1279   -4.1677    0.0000 H   0  0  0  0  0  0  0  0  0  0  0  0
    7.7479   -3.5477    0.0000 H   0  0  0  0  0  0  0  0  0  0  0  0
    7.1279   -2.9277    0.0000 H   0  0  0  0  0  0  0  0  0  0  0  0
    3.7320   -5.1677    0.0000 H   0  0  0  0  0  0  0  0  0  0  0  0
    8.9512    3.8340    0.0000 H   0  0  0  0  0  0  0  0  0  0  0  0
    2.3291   -4.3577    0.0000 H   0  0  0  0  0  0  0  0  0  0  0  0
   11.7975    2.4514    0.0000 H   0  0  0  0  0  0  0  0  0  0  0  0
   11.2189    5.1970    0.0000 H   0  0  0  0  0  0  0  0  0  0  0  0
   12.8041    5.5311    0.0000 H   0  0  0  0  0  0  0  0  0  0  0  0
   13.8860    4.3253    0.0000 H   0  0  0  0  0  0  0  0  0  0  0  0
   13.1750    2.0886    0.0000 H   0  0  0  0  0  0  0  0  0  0  0  0
   14.0506    2.0412    0.0000 H   0  0  0  0  0  0  0  0  0  0  0  0
   14.0980    2.9167    0.0000 H   0  0  0  0  0  0  0  0  0  0  0  0
  1 24  1  0  0  0  0
  2  3  2  0  0  0  0
  2  4  2  0  0  0  0
  2  7  1  0  0  0  0
  2 26  1  0  0  0  0
  5  8  1  0  0  0  0
  5 11  1  0  0  0  0
  5 12  1  0  0  0  0
  6 18  1  0  0  0  0
  6 19  1  0  0  0  0
  6 48  1  0  0  0  0
  7 20  1  0  0  0  0
  7 54  1  0  0  0  0
  8  9  1  0  0  0  0
  8 33  1  0  0  0  0
  8 34  1  0  0  0  0
  9 10  1  0  0  0  0
  9 35  1  0  0  0  0
  9 36  1  0  0  0  0
 10 13  1  0  0  0  0
 10 15  2  0  0  0  0
 11 14  1  0  0  0  0
 11 37  1  0  0  0  0
 11 38  1  0  0  0  0
 12 15  1  0  0  0  0
 12 39  1  0  0  0  0
 12 40  1  0  0  0  0
 13 17  1  0  0  0  0
 13 18  2  0  0  0  0
 14 16  1  0  0  0  0
 14 41  1  0  0  0  0
 14 42  1  0  0  0  0
 15 43  1  0  0  0  0
 16 20  1  0  0  0  0
 16 44  1  0  0  0  0
 16 45  1  0  0  0  0
 17 19  2  0  0  0  0
 17 21  1  0  0  0  0
 18 22  1  0  0  0  0
 19 23  1  0  0  0  0
 20 46  1  0  0  0  0
 20 47  1  0  0  0  0
 21 24  2  0  0  0  0
 21 49  1  0  0  0  0
 22 50  1  0  0  0  0
 22 51  1  0  0  0  0
 22 52  1  0  0  0  0
 23 25  2  0  0  0  0
 23 53  1  0  0  0  0
 24 25  1  0  0  0  0
 25 55  1  0  0  0  0
 26 27  1  0  0  0  0
 26 28  2  0  0  0  0
 27 29  2  0  0  0  0
 27 56  1  0  0  0  0
 28 30  1  0  0  0  0
 28 57  1  0  0  0  0
 29 31  1  0  0  0  0
 29 32  1  0  0  0  0
 30 31  2  0  0  0  0
 30 58  1  0  0  0  0
 31 59  1  0  0  0  0
 32 60  1  0  0  0  0
 32 61  1  0  0  0  0
 32 62  1  0  0  0  0
M  END
> <PUBCHEM_COMPOUND_CID>
66801701

> <PUBCHEM_COMPOUND_CANONICALIZED>
1

> <PUBCHEM_CACTVS_COMPLEXITY>
753

> <PUBCHEM_CACTVS_HBOND_ACCEPTOR>
4

> <PUBCHEM_CACTVS_HBOND_DONOR>
2

> <PUBCHEM_CACTVS_ROTATABLE_BOND>
8

> <PUBCHEM_CACTVS_SUBSKEYS>
AAADceB7MABEAAAAAAAAAAAAAAAAAWAAAAAwYIAAAAAAAFgB9AAAHAYQQAAADArBXiQywfPJkAKgAyRiRHDCgDAhByAImbg4ZpgIIOLBk5GEIAhgkADIyAcQgMAOgABAoAACAAAAAIFAAAQAAAAAAAAAAA==

> <PUBCHEM_IUPAC_OPENEYE_NAME>
N-[4-[4-(5-chloro-2-methyl-1H-indol-3-yl)-3,6-dihydro-2H-pyridin-1-yl]butyl]-3-methyl-benzenesulfonamide

> <PUBCHEM_IUPAC_CAS_NAME>
N-[4-[4-(5-chloro-2-methyl-1H-indol-3-yl)-3,6-dihydro-2H-pyridin-1-yl]butyl]-3-methylbenzenesulfonamide

> <PUBCHEM_IUPAC_NAME_MARKUP>
<I>N</I>-[4-[4-(5-chloro-2-methyl-1<I>H</I>-indol-3-yl)-3,6-dihydro-2<I>H</I>-pyridin-1-yl]butyl]-3-methylbenzenesulfonamide

> <PUBCHEM_IUPAC_NAME>
N-[4-[4-(5-chloro-2-methyl-1H-indol-3-yl)-3,6-dihydro-2H-pyridin-1-yl]butyl]-3-methylbenzenesulfonamide

> <PUBCHEM_IUPAC_SYSTEMATIC_NAME>
N-[4-[4-(5-chloranyl-2-methyl-1H-indol-3-yl)-3,6-dihydro-2H-pyridin-1-yl]butyl]-3-methyl-benzenesulfonamide

> <PUBCHEM_IUPAC_TRADITIONAL_NAME>
N-[4-[4-(5-chloro-2-methyl-1H-indol-3-yl)-3,6-dihydro-2H-pyridin-1-yl]butyl]-3-methyl-benzenesulfonamide

> <PUBCHEM_IUPAC_INCHI>
InChI=1S/C25H30ClN3O2S/c1-18-6-5-7-22(16-18)32(30,31)27-12-3-4-13-29-14-10-20(11-15-29)25-19(2)28-24-9-8-21(26)17-23(24)25/h5-10,16-17,27-28H,3-4,11-15H2,1-2H3

> <PUBCHEM_IUPAC_INCHIKEY>
FFITVORVMLXMEI-UHFFFAOYSA-N

> <PUBCHEM_XLOGP3_AA>
5

> <PUBCHEM_EXACT_MASS>
471.1747261

> <PUBCHEM_MOLECULAR_FORMULA>
C25H30ClN3O2S

> <PUBCHEM_MOLECULAR_WEIGHT>
472.0

> <PUBCHEM_OPENEYE_CAN_SMILES>
CC1=CC(=CC=C1)S(=O)(=O)NCCCCN2CCC(=CC2)C3=C(NC4=C3C=C(C=C4)Cl)C

> <PUBCHEM_OPENEYE_ISO_SMILES>
CC1=CC(=CC=C1)S(=O)(=O)NCCCCN2CCC(=CC2)C3=C(NC4=C3C=C(C=C4)Cl)C

> <PUBCHEM_CACTVS_TPSA>
73.6

> <PUBCHEM_MONOISOTOPIC_WEIGHT>
471.1747261

> <PUBCHEM_TOTAL_CHARGE>
0

> <PUBCHEM_HEAVY_ATOM_COUNT>
32

> <PUBCHEM_ATOM_DEF_STEREO_COUNT>
0

> <PUBCHEM_ATOM_UDEF_STEREO_COUNT>
0

> <PUBCHEM_BOND_DEF_STEREO_COUNT>
0

> <PUBCHEM_BOND_UDEF_STEREO_COUNT>
0

> <PUBCHEM_ISOTOPIC_ATOM_COUNT>
0

> <PUBCHEM_COMPONENT_COUNT>
1

> <PUBCHEM_CACTVS_TAUTO_COUNT>
-1

> <PUBCHEM_COORDINATE_TYPE>
1
5
255

> <PUBCHEM_BONDANNOTATIONS>
13  17  8
13  18  8
17  19  8
17  21  8
19  23  8
21  24  8
23  25  8
24  25  8
26  27  8
26  28  8
27  29  8
28  30  8
29  31  8
30  31  8
6  18  8
6  19  8

$$$$
