44374863
  -OEChem-09292322192D

 63 67  0     1  0  0  0  0  0999 V2000
    2.3161   -2.1030    0.0000 O   0  0  0  0  0  0  0  0  0  0  0  0
    3.5135   -3.3005    0.0000 N   0  0  0  0  0  0  0  0  0  0  0  0
    3.4806   -0.6427    0.0000 N   0  0  0  0  0  0  0  0  0  0  0  0
    2.6128    1.1592    0.0000 N   0  0  0  0  0  0  0  0  0  0  0  0
    2.8665   -4.0484    0.0000 C   0  0  0  0  0  0  0  0  0  0  0  0
    3.9145   -1.5437    0.0000 C   0  0  3  0  0  0  0  0  0  0  0  0
    3.3422   -4.9155    0.0000 C   0  0  0  0  0  0  0  0  0  0  0  0
    4.4145   -3.7344    0.0000 C   0  0  0  0  0  0  0  0  0  0  0  0
    4.3206   -4.7717    0.0000 C   0  0  0  0  0  0  0  0  0  0  0  0
    4.9145   -1.5437    0.0000 C   0  0  0  0  0  0  0  0  0  0  0  0
    3.2910   -2.3255    0.0000 C   0  0  0  0  0  0  0  0  0  0  0  0
    5.3154   -3.3005    0.0000 C   0  0  0  0  0  0  0  0  0  0  0  0
    5.5380   -2.3255    0.0000 C   0  0  0  0  0  0  0  0  0  0  0  0
    2.4834   -0.5680    0.0000 C   0  0  0  0  0  0  0  0  0  0  0  0
    4.0439    0.1835    0.0000 C   0  0  0  0  0  0  0  0  0  0  0  0
    2.0000   -4.5476    0.0000 C   0  0  0  0  0  0  0  0  0  0  0  0
    2.1240   -3.3786    0.0000 C   0  0  0  0  0  0  0  0  0  0  0  0
    2.0495    0.3330    0.0000 C   0  0  0  0  0  0  0  0  0  0  0  0
    3.6100    1.0845    0.0000 C   0  0  0  0  0  0  0  0  0  0  0  0
    5.1767   -5.3651    0.0000 C   0  0  0  0  0  0  0  0  0  0  0  0
    6.1850   -3.8739    0.0000 C   0  0  0  0  0  0  0  0  0  0  0  0
    6.1152   -4.9132    0.0000 C   0  0  0  0  0  0  0  0  0  0  0  0
    2.1790    2.0602    0.0000 C   0  0  0  0  0  0  0  0  0  0  0  0
    2.7423    2.8864    0.0000 C   0  0  0  0  0  0  0  0  0  0  0  0
    3.7395    2.8117    0.0000 C   0  0  0  0  0  0  0  0  0  0  0  0
    2.3084    3.7874    0.0000 C   0  0  0  0  0  0  0  0  0  0  0  0
    4.3028    3.6379    0.0000 C   0  0  0  0  0  0  0  0  0  0  0  0
    2.8717    4.6136    0.0000 C   0  0  0  0  0  0  0  0  0  0  0  0
    3.8689    4.5389    0.0000 C   0  0  0  0  0  0  0  0  0  0  0  0
    4.4322    5.3651    0.0000 C   0  0  0  0  0  0  0  0  0  0  0  0
    4.2443   -1.0187    0.0000 H   0  0  0  0  0  0  0  0  0  0  0  0
    2.7671   -5.1473    0.0000 H   0  0  0  0  0  0  0  0  0  0  0  0
    3.5043   -5.5139    0.0000 H   0  0  0  0  0  0  0  0  0  0  0  0
    5.4731   -1.2747    0.0000 H   0  0  0  0  0  0  0  0  0  0  0  0
    4.7765   -0.9392    0.0000 H   0  0  0  0  0  0  0  0  0  0  0  0
    6.0966   -2.5945    0.0000 H   0  0  0  0  0  0  0  0  0  0  0  0
    5.9245   -1.8408    0.0000 H   0  0  0  0  0  0  0  0  0  0  0  0
    1.8866   -0.7359    0.0000 H   0  0  0  0  0  0  0  0  0  0  0  0
    2.5451   -1.1849    0.0000 H   0  0  0  0  0  0  0  0  0  0  0  0
    4.4878   -0.2494    0.0000 H   0  0  0  0  0  0  0  0  0  0  0  0
    4.5473    0.5454    0.0000 H   0  0  0  0  0  0  0  0  0  0  0  0
    1.6905   -4.0103    0.0000 H   0  0  0  0  0  0  0  0  0  0  0  0
    1.4628   -4.8570    0.0000 H   0  0  0  0  0  0  0  0  0  0  0  0
    2.3095   -5.0848    0.0000 H   0  0  0  0  0  0  0  0  0  0  0  0
    2.5393   -2.9182    0.0000 H   0  0  0  0  0  0  0  0  0  0  0  0
    1.6637   -2.9632    0.0000 H   0  0  0  0  0  0  0  0  0  0  0  0
    1.7087   -3.8389    0.0000 H   0  0  0  0  0  0  0  0  0  0  0  0
    1.6057    0.7659    0.0000 H   0  0  0  0  0  0  0  0  0  0  0  0
    1.5461   -0.0290    0.0000 H   0  0  0  0  0  0  0  0  0  0  0  0
    4.2069    1.2524    0.0000 H   0  0  0  0  0  0  0  0  0  0  0  0
    3.5483    1.7014    0.0000 H   0  0  0  0  0  0  0  0  0  0  0  0
    5.1280   -5.9832    0.0000 H   0  0  0  0  0  0  0  0  0  0  0  0
    6.7405   -3.5984    0.0000 H   0  0  0  0  0  0  0  0  0  0  0  0
    6.6288   -5.2605    0.0000 H   0  0  0  0  0  0  0  0  0  0  0  0
    1.7351    2.4931    0.0000 H   0  0  0  0  0  0  0  0  0  0  0  0
    1.6756    1.6982    0.0000 H   0  0  0  0  0  0  0  0  0  0  0  0
    4.0085    2.2531    0.0000 H   0  0  0  0  0  0  0  0  0  0  0  0
    1.6901    3.8337    0.0000 H   0  0  0  0  0  0  0  0  0  0  0  0
    4.9211    3.5916    0.0000 H   0  0  0  0  0  0  0  0  0  0  0  0
    2.6027    5.1722    0.0000 H   0  0  0  0  0  0  0  0  0  0  0  0
    4.9445    5.0159    0.0000 H   0  0  0  0  0  0  0  0  0  0  0  0
    4.7815    5.8774    0.0000 H   0  0  0  0  0  0  0  0  0  0  0  0
    3.9200    5.7144    0.0000 H   0  0  0  0  0  0  0  0  0  0  0  0
  1 11  2  0  0  0  0
  2  5  1  0  0  0  0
  2  8  1  0  0  0  0
  2 11  1  0  0  0  0
  3  6  1  0  0  0  0
  3 14  1  0  0  0  0
  3 15  1  0  0  0  0
  4 18  1  0  0  0  0
  4 19  1  0  0  0  0
  4 23  1  0  0  0  0
  5  7  1  0  0  0  0
  5 16  1  0  0  0  0
  5 17  1  0  0  0  0
  6 10  1  0  0  0  0
  6 11  1  0  0  0  0
  6 31  1  0  0  0  0
  7  9  1  0  0  0  0
  7 32  1  0  0  0  0
  7 33  1  0  0  0  0
  8  9  1  0  0  0  0
  8 12  2  0  0  0  0
  9 20  2  0  0  0  0
 10 13  1  0  0  0  0
 10 34  1  0  0  0  0
 10 35  1  0  0  0  0
 12 13  1  0  0  0  0
 12 21  1  0  0  0  0
 13 36  1  0  0  0  0
 13 37  1  0  0  0  0
 14 18  1  0  0  0  0
 14 38  1  0  0  0  0
 14 39  1  0  0  0  0
 15 19  1  0  0  0  0
 15 40  1  0  0  0  0
 15 41  1  0  0  0  0
 16 42  1  0  0  0  0
 16 43  1  0  0  0  0
 16 44  1  0  0  0  0
 17 45  1  0  0  0  0
 17 46  1  0  0  0  0
 17 47  1  0  0  0  0
 18 48  1  0  0  0  0
 18 49  1  0  0  0  0
 19 50  1  0  0  0  0
 19 51  1  0  0  0  0
 20 22  1  0  0  0  0
 20 52  1  0  0  0  0
 21 22  2  0  0  0  0
 21 53  1  0  0  0  0
 22 54  1  0  0  0  0
 23 24  1  0  0  0  0
 23 55  1  0  0  0  0
 23 56  1  0  0  0  0
 24 25  2  0  0  0  0
 24 26  1  0  0  0  0
 25 27  1  0  0  0  0
 25 57  1  0  0  0  0
 26 28  2  0  0  0  0
 26 58  1  0  0  0  0
 27 29  2  0  0  0  0
 27 59  1  0  0  0  0
 28 29  1  0  0  0  0
 28 60  1  0  0  0  0
 29 30  1  0  0  0  0
 30 61  1  0  0  0  0
 30 62  1  0  0  0  0
 30 63  1  0  0  0  0
M  END
> <PUBCHEM_COMPOUND_CID>
44374863

> <PUBCHEM_COMPOUND_CANONICALIZED>
1

> <PUBCHEM_CACTVS_COMPLEXITY>
618

> <PUBCHEM_CACTVS_HBOND_ACCEPTOR>
3

> <PUBCHEM_CACTVS_HBOND_DONOR>
0

> <PUBCHEM_CACTVS_ROTATABLE_BOND>
3

> <PUBCHEM_CACTVS_SUBSKEYS>
AAADcfB7IAAAAAAAAAAAAAAAAAAAAWAAAAA8YIAABYAAAFixQAAAHgAAAAAADKjBmAQywIMAAACIAiVSUACCAAAhAAAIiAGIRIgIYDLAkbGUIAhghADIyAcYiMCOQAACAAACAACAAAQAAAQAAAAAAAAAAA==

> <PUBCHEM_IUPAC_OPENEYE_NAME>
2,2-dimethyl-11-[4-(p-tolylmethyl)piperazin-1-yl]-1-azatricyclo[6.4.1.04,13]trideca-4,6,8(13)-trien-12-one

> <PUBCHEM_IUPAC_CAS_NAME>
2,2-dimethyl-11-[4-[(4-methylphenyl)methyl]-1-piperazinyl]-1-azatricyclo[6.4.1.04,13]trideca-4,6,8(13)-trien-12-one

> <PUBCHEM_IUPAC_NAME_MARKUP>
2,2-dimethyl-11-[4-[(4-methylphenyl)methyl]piperazin-1-yl]-1-azatricyclo[6.4.1.0<SUP>4,13</SUP>]trideca-4,6,8(13)-trien-12-one

> <PUBCHEM_IUPAC_NAME>
2,2-dimethyl-11-[4-[(4-methylphenyl)methyl]piperazin-1-yl]-1-azatricyclo[6.4.1.04,13]trideca-4,6,8(13)-trien-12-one

> <PUBCHEM_IUPAC_SYSTEMATIC_NAME>
2,2-dimethyl-11-[4-[(4-methylphenyl)methyl]piperazin-1-yl]-1-azatricyclo[6.4.1.04,13]trideca-4,6,8(13)-trien-12-one

> <PUBCHEM_IUPAC_TRADITIONAL_NAME>
2,2-dimethyl-11-[4-(4-methylbenzyl)piperazino]-1-azatricyclo[6.4.1.04,13]trideca-4,6,8(13)-trien-12-one

> <PUBCHEM_IUPAC_INCHI>
InChI=1S/C26H33N3O/c1-19-7-9-20(10-8-19)18-27-13-15-28(16-14-27)23-12-11-21-5-4-6-22-17-26(2,3)29(24(21)22)25(23)30/h4-10,23H,11-18H2,1-3H3

> <PUBCHEM_IUPAC_INCHIKEY>
OLGSDKVBQGETRV-UHFFFAOYSA-N

> <PUBCHEM_XLOGP3_AA>
4.1

> <PUBCHEM_EXACT_MASS>
403.262362685

> <PUBCHEM_MOLECULAR_FORMULA>
C26H33N3O

> <PUBCHEM_MOLECULAR_WEIGHT>
403.6

> <PUBCHEM_OPENEYE_CAN_SMILES>
CC1=CC=C(C=C1)CN2CCN(CC2)C3CCC4=C5C(=CC=C4)CC(N5C3=O)(C)C

> <PUBCHEM_OPENEYE_ISO_SMILES>
CC1=CC=C(C=C1)CN2CCN(CC2)C3CCC4=C5C(=CC=C4)CC(N5C3=O)(C)C

> <PUBCHEM_CACTVS_TPSA>
26.8

> <PUBCHEM_MONOISOTOPIC_WEIGHT>
403.262362685

> <PUBCHEM_TOTAL_CHARGE>
0

> <PUBCHEM_HEAVY_ATOM_COUNT>
30

> <PUBCHEM_ATOM_DEF_STEREO_COUNT>
0

> <PUBCHEM_ATOM_UDEF_STEREO_COUNT>
1

> <PUBCHEM_BOND_DEF_STEREO_COUNT>
0

> <PUBCHEM_BOND_UDEF_STEREO_COUNT>
0

> <PUBCHEM_ISOTOPIC_ATOM_COUNT>
0

> <PUBCHEM_COMPONENT_COUNT>
1

> <PUBCHEM_CACTVS_TAUTO_COUNT>
-1

> <PUBCHEM_COORDINATE_TYPE>
1
5
255

> <PUBCHEM_BONDANNOTATIONS>
12  21  8
20  22  8
21  22  8
24  25  8
24  26  8
25  27  8
26  28  8
27  29  8
28  29  8
6  3  3
8  12  8
8  9  8
9  20  8

$$$$
