21048816
  -OEChem-09292322272D

 58 60  0     1  0  0  0  0  0999 V2000
    8.0622   -2.5000    0.0000 S   0  0  0  0  0  0  0  0  0  0  0  0
    7.5622   -3.3660    0.0000 O   0  0  0  0  0  0  0  0  0  0  0  0
    8.5622   -1.6340    0.0000 O   0  0  0  0  0  0  0  0  0  0  0  0
    5.4641    1.0000    0.0000 N   0  0  3  0  0  0  0  0  0  0  0  0
    4.5981    2.5000    0.0000 C   0  0  3  0  0  0  0  0  0  0  0  0
    4.5981    1.5000    0.0000 C   0  0  0  0  0  0  0  0  0  0  0  0
    7.1962   -2.0000    0.0000 C   0  0  0  0  0  0  0  0  0  0  0  0
    5.4641    3.0000    0.0000 C   0  0  0  0  0  0  0  0  0  0  0  0
    6.3301    1.5000    0.0000 C   0  0  0  0  0  0  0  0  0  0  0  0
    5.4641    0.0000    0.0000 C   0  0  0  0  0  0  0  0  0  0  0  0
    6.3301   -1.5000    0.0000 C   0  0  0  0  0  0  0  0  0  0  0  0
    6.3301    2.5000    0.0000 C   0  0  0  0  0  0  0  0  0  0  0  0
    6.3301   -0.5000    0.0000 C   0  0  0  0  0  0  0  0  0  0  0  0
    3.7320    3.0000    0.0000 C   0  0  0  0  0  0  0  0  0  0  0  0
    6.6962   -2.8660    0.0000 C   0  0  0  0  0  0  0  0  0  0  0  0
    7.6962   -1.1340    0.0000 C   0  0  0  0  0  0  0  0  0  0  0  0
    8.9282   -3.0000    0.0000 C   0  0  0  0  0  0  0  0  0  0  0  0
    2.8660    2.5000    0.0000 C   0  0  0  0  0  0  0  0  0  0  0  0
    3.7320    4.0000    0.0000 C   0  0  0  0  0  0  0  0  0  0  0  0
    9.7942   -2.5000    0.0000 C   0  0  0  0  0  0  0  0  0  0  0  0
    8.9282   -4.0000    0.0000 C   0  0  0  0  0  0  0  0  0  0  0  0
    2.0000    3.0000    0.0000 C   0  0  0  0  0  0  0  0  0  0  0  0
    2.8660    4.5000    0.0000 C   0  0  0  0  0  0  0  0  0  0  0  0
    2.0000    4.0000    0.0000 C   0  0  0  0  0  0  0  0  0  0  0  0
   10.6603   -3.0000    0.0000 C   0  0  0  0  0  0  0  0  0  0  0  0
    9.7942   -4.5000    0.0000 C   0  0  0  0  0  0  0  0  0  0  0  0
   10.6603   -4.0000    0.0000 C   0  0  0  0  0  0  0  0  0  0  0  0
    4.5981    3.1200    0.0000 H   0  0  0  0  0  0  0  0  0  0  0  0
    3.9875    1.6077    0.0000 H   0  0  0  0  0  0  0  0  0  0  0  0
    4.3860    0.9174    0.0000 H   0  0  0  0  0  0  0  0  0  0  0  0
    5.8626    3.4750    0.0000 H   0  0  0  0  0  0  0  0  0  0  0  0
    5.0656    3.4750    0.0000 H   0  0  0  0  0  0  0  0  0  0  0  0
    6.5422    0.9174    0.0000 H   0  0  0  0  0  0  0  0  0  0  0  0
    6.9407    1.6077    0.0000 H   0  0  0  0  0  0  0  0  0  0  0  0
    4.8535    0.1077    0.0000 H   0  0  0  0  0  0  0  0  0  0  0  0
    5.2520   -0.5826    0.0000 H   0  0  0  0  0  0  0  0  0  0  0  0
    5.7196   -1.3923    0.0000 H   0  0  0  0  0  0  0  0  0  0  0  0
    6.1181   -2.0826    0.0000 H   0  0  0  0  0  0  0  0  0  0  0  0
    6.9407    2.3923    0.0000 H   0  0  0  0  0  0  0  0  0  0  0  0
    6.5422    3.0826    0.0000 H   0  0  0  0  0  0  0  0  0  0  0  0
    6.9407   -0.6077    0.0000 H   0  0  0  0  0  0  0  0  0  0  0  0
    6.5422    0.0826    0.0000 H   0  0  0  0  0  0  0  0  0  0  0  0
    6.1592   -2.5560    0.0000 H   0  0  0  0  0  0  0  0  0  0  0  0
    6.3862   -3.4030    0.0000 H   0  0  0  0  0  0  0  0  0  0  0  0
    7.2331   -3.1760    0.0000 H   0  0  0  0  0  0  0  0  0  0  0  0
    8.2331   -1.4440    0.0000 H   0  0  0  0  0  0  0  0  0  0  0  0
    8.0062   -0.5970    0.0000 H   0  0  0  0  0  0  0  0  0  0  0  0
    7.1592   -0.8240    0.0000 H   0  0  0  0  0  0  0  0  0  0  0  0
    2.8660    1.8800    0.0000 H   0  0  0  0  0  0  0  0  0  0  0  0
    4.2690    4.3100    0.0000 H   0  0  0  0  0  0  0  0  0  0  0  0
    9.7942   -1.8800    0.0000 H   0  0  0  0  0  0  0  0  0  0  0  0
    8.3913   -4.3100    0.0000 H   0  0  0  0  0  0  0  0  0  0  0  0
    1.4631    2.6900    0.0000 H   0  0  0  0  0  0  0  0  0  0  0  0
    2.8660    5.1200    0.0000 H   0  0  0  0  0  0  0  0  0  0  0  0
    1.4631    4.3100    0.0000 H   0  0  0  0  0  0  0  0  0  0  0  0
   11.1972   -2.6900    0.0000 H   0  0  0  0  0  0  0  0  0  0  0  0
    9.7942   -5.1200    0.0000 H   0  0  0  0  0  0  0  0  0  0  0  0
   11.1972   -4.3100    0.0000 H   0  0  0  0  0  0  0  0  0  0  0  0
  1  2  2  0  0  0  0
  1  3  2  0  0  0  0
  1  7  1  0  0  0  0
  1 17  1  0  0  0  0
  4  6  1  0  0  0  0
  4  9  1  0  0  0  0
  4 10  1  0  0  0  0
  5  6  1  0  0  0  0
  5  8  1  0  0  0  0
  5 14  1  0  0  0  0
  5 28  1  0  0  0  0
  6 29  1  0  0  0  0
  6 30  1  0  0  0  0
  7 11  1  0  0  0  0
  7 15  1  0  0  0  0
  7 16  1  0  0  0  0
  8 12  1  0  0  0  0
  8 31  1  0  0  0  0
  8 32  1  0  0  0  0
  9 12  1  0  0  0  0
  9 33  1  0  0  0  0
  9 34  1  0  0  0  0
 10 13  1  0  0  0  0
 10 35  1  0  0  0  0
 10 36  1  0  0  0  0
 11 13  1  0  0  0  0
 11 37  1  0  0  0  0
 11 38  1  0  0  0  0
 12 39  1  0  0  0  0
 12 40  1  0  0  0  0
 13 41  1  0  0  0  0
 13 42  1  0  0  0  0
 14 18  2  0  0  0  0
 14 19  1  0  0  0  0
 15 43  1  0  0  0  0
 15 44  1  0  0  0  0
 15 45  1  0  0  0  0
 16 46  1  0  0  0  0
 16 47  1  0  0  0  0
 16 48  1  0  0  0  0
 17 20  2  0  0  0  0
 17 21  1  0  0  0  0
 18 22  1  0  0  0  0
 18 49  1  0  0  0  0
 19 23  2  0  0  0  0
 19 50  1  0  0  0  0
 20 25  1  0  0  0  0
 20 51  1  0  0  0  0
 21 26  2  0  0  0  0
 21 52  1  0  0  0  0
 22 24  2  0  0  0  0
 22 53  1  0  0  0  0
 23 24  1  0  0  0  0
 23 54  1  0  0  0  0
 24 55  1  0  0  0  0
 25 27  2  0  0  0  0
 25 56  1  0  0  0  0
 26 27  1  0  0  0  0
 26 57  1  0  0  0  0
 27 58  1  0  0  0  0
M  END
> <PUBCHEM_COMPOUND_CID>
21048816

> <PUBCHEM_COMPOUND_CANONICALIZED>
1

> <PUBCHEM_CACTVS_COMPLEXITY>
539

> <PUBCHEM_CACTVS_HBOND_ACCEPTOR>
3

> <PUBCHEM_CACTVS_HBOND_DONOR>
0

> <PUBCHEM_CACTVS_ROTATABLE_BOND>
7

> <PUBCHEM_CACTVS_SUBSKEYS>
AAADceB6MABAAAAAAAAAAAAAAAAAAAAAAAA8YIAAAAAAAAABQAAAHAQAAAAADQDBWAQyAYMAAAqAAiBCAHBCAAAgCBAIiBgIAIgIICKgkRGEIAAggACoiAcQgMAOgAAAAAAAAAAAAAAAAAAAAAAAAAAAAA==

> <PUBCHEM_IUPAC_OPENEYE_NAME>
1-[4-(benzenesulfonyl)-4-methyl-pentyl]-3-phenyl-piperidine

> <PUBCHEM_IUPAC_CAS_NAME>
1-[4-(benzenesulfonyl)-4-methylpentyl]-3-phenylpiperidine

> <PUBCHEM_IUPAC_NAME_MARKUP>
1-[4-(benzenesulfonyl)-4-methylpentyl]-3-phenylpiperidine

> <PUBCHEM_IUPAC_NAME>
1-[4-(benzenesulfonyl)-4-methylpentyl]-3-phenylpiperidine

> <PUBCHEM_IUPAC_SYSTEMATIC_NAME>
1-[4-methyl-4-(phenylsulfonyl)pentyl]-3-phenyl-piperidine

> <PUBCHEM_IUPAC_TRADITIONAL_NAME>
1-(4-besyl-4-methyl-pentyl)-3-phenyl-piperidine

> <PUBCHEM_IUPAC_INCHI>
InChI=1S/C23H31NO2S/c1-23(2,27(25,26)22-14-7-4-8-15-22)16-10-18-24-17-9-13-21(19-24)20-11-5-3-6-12-20/h3-8,11-12,14-15,21H,9-10,13,16-19H2,1-2H3

> <PUBCHEM_IUPAC_INCHIKEY>
OSLJYKCMMISVMB-UHFFFAOYSA-N

> <PUBCHEM_XLOGP3_AA>
4.8

> <PUBCHEM_EXACT_MASS>
385.20755041

> <PUBCHEM_MOLECULAR_FORMULA>
C23H31NO2S

> <PUBCHEM_MOLECULAR_WEIGHT>
385.6

> <PUBCHEM_OPENEYE_CAN_SMILES>
CC(C)(CCCN1CCCC(C1)C2=CC=CC=C2)S(=O)(=O)C3=CC=CC=C3

> <PUBCHEM_OPENEYE_ISO_SMILES>
CC(C)(CCCN1CCCC(C1)C2=CC=CC=C2)S(=O)(=O)C3=CC=CC=C3

> <PUBCHEM_CACTVS_TPSA>
45.8

> <PUBCHEM_MONOISOTOPIC_WEIGHT>
385.20755041

> <PUBCHEM_TOTAL_CHARGE>
0

> <PUBCHEM_HEAVY_ATOM_COUNT>
27

> <PUBCHEM_ATOM_DEF_STEREO_COUNT>
0

> <PUBCHEM_ATOM_UDEF_STEREO_COUNT>
1

> <PUBCHEM_BOND_DEF_STEREO_COUNT>
0

> <PUBCHEM_BOND_UDEF_STEREO_COUNT>
0

> <PUBCHEM_ISOTOPIC_ATOM_COUNT>
0

> <PUBCHEM_COMPONENT_COUNT>
1

> <PUBCHEM_CACTVS_TAUTO_COUNT>
-1

> <PUBCHEM_COORDINATE_TYPE>
1
5
255

> <PUBCHEM_BONDANNOTATIONS>
14  18  8
14  19  8
17  20  8
17  21  8
18  22  8
19  23  8
20  25  8
21  26  8
22  24  8
23  24  8
25  27  8
26  27  8
5  14  3

$$$$
