10436285
  -OEChem-09292322042D

 62 66  0     0  0  0  0  0  0999 V2000
    7.0948   -5.4337    0.0000 Cl  0  0  0  0  0  0  0  0  0  0  0  0
    6.4548   -7.3286    0.0000 Cl  0  0  0  0  0  0  0  0  0  0  0  0
    4.4118    2.8610    0.0000 O   0  0  0  0  0  0  0  0  0  0  0  0
    4.5274    7.3286    0.0000 O   0  0  0  0  0  0  0  0  0  0  0  0
    6.4138   -2.0372    0.0000 N   0  0  0  0  0  0  0  0  0  0  0  0
    5.7739   -3.9320    0.0000 N   0  0  0  0  0  0  0  0  0  0  0  0
    6.0528    2.3067    0.0000 N   0  0  0  0  0  0  0  0  0  0  0  0
    5.4334   -2.2338    0.0000 C   0  0  0  0  0  0  0  0  0  0  0  0
    7.0743   -2.7880    0.0000 C   0  0  0  0  0  0  0  0  0  0  0  0
    5.1133   -3.1812    0.0000 C   0  0  0  0  0  0  0  0  0  0  0  0
    6.7543   -3.7355    0.0000 C   0  0  0  0  0  0  0  0  0  0  0  0
    6.7338   -1.0898    0.0000 C   0  0  0  0  0  0  0  0  0  0  0  0
    6.0733   -0.3390    0.0000 C   0  0  0  0  0  0  0  0  0  0  0  0
    6.3933    0.6085    0.0000 C   0  0  0  0  0  0  0  0  0  0  0  0
    5.4538   -4.8795    0.0000 C   0  0  0  0  0  0  0  0  0  0  0  0
    5.7328    1.3593    0.0000 C   0  0  0  0  0  0  0  0  0  0  0  0
    6.1143   -5.6303    0.0000 C   0  0  0  0  0  0  0  0  0  0  0  0
    4.4734   -5.0761    0.0000 C   0  0  0  0  0  0  0  0  0  0  0  0
    5.0274    4.7897    0.0000 C   0  0  0  0  0  0  0  0  0  0  0  0
    5.7123    4.0050    0.0000 C   0  0  0  0  0  0  0  0  0  0  0  0
    4.0274    4.7897    0.0000 C   0  0  0  0  0  0  0  0  0  0  0  0
    5.3364    5.7408    0.0000 C   0  0  0  0  0  0  0  0  0  0  0  0
    5.3923    3.0576    0.0000 C   0  0  0  0  0  0  0  0  0  0  0  0
    5.7944   -6.5777    0.0000 C   0  0  0  0  0  0  0  0  0  0  0  0
    4.1534   -6.0235    0.0000 C   0  0  0  0  0  0  0  0  0  0  0  0
    3.7183    5.7408    0.0000 C   0  0  0  0  0  0  0  0  0  0  0  0
    4.5274    6.3286    0.0000 C   0  0  0  0  0  0  0  0  0  0  0  0
    4.8139   -6.7743    0.0000 C   0  0  0  0  0  0  0  0  0  0  0  0
    6.7328    4.2137    0.0000 C   0  0  0  0  0  0  0  0  0  0  0  0
    6.3518    5.9730    0.0000 C   0  0  0  0  0  0  0  0  0  0  0  0
    3.3424    4.0050    0.0000 C   0  0  0  0  0  0  0  0  0  0  0  0
    7.0547    5.2043    0.0000 C   0  0  0  0  0  0  0  0  0  0  0  0
    2.7029    5.9730    0.0000 C   0  0  0  0  0  0  0  0  0  0  0  0
    2.3219    4.2137    0.0000 C   0  0  0  0  0  0  0  0  0  0  0  0
    2.0000    5.2043    0.0000 C   0  0  0  0  0  0  0  0  0  0  0  0
    5.4189   -1.6140    0.0000 H   0  0  0  0  0  0  0  0  0  0  0  0
    4.8204   -2.1404    0.0000 H   0  0  0  0  0  0  0  0  0  0  0  0
    7.6184   -3.0854    0.0000 H   0  0  0  0  0  0  0  0  0  0  0  0
    7.4617   -2.3039    0.0000 H   0  0  0  0  0  0  0  0  0  0  0  0
    4.5693   -2.8838    0.0000 H   0  0  0  0  0  0  0  0  0  0  0  0
    4.7260   -3.6653    0.0000 H   0  0  0  0  0  0  0  0  0  0  0  0
    6.7688   -4.3553    0.0000 H   0  0  0  0  0  0  0  0  0  0  0  0
    7.3673   -3.8288    0.0000 H   0  0  0  0  0  0  0  0  0  0  0  0
    7.2778   -1.3872    0.0000 H   0  0  0  0  0  0  0  0  0  0  0  0
    7.1212   -0.6057    0.0000 H   0  0  0  0  0  0  0  0  0  0  0  0
    5.5293   -0.0416    0.0000 H   0  0  0  0  0  0  0  0  0  0  0  0
    5.6860   -0.8231    0.0000 H   0  0  0  0  0  0  0  0  0  0  0  0
    6.9374    0.3111    0.0000 H   0  0  0  0  0  0  0  0  0  0  0  0
    6.7807    1.0926    0.0000 H   0  0  0  0  0  0  0  0  0  0  0  0
    5.1888    1.6567    0.0000 H   0  0  0  0  0  0  0  0  0  0  0  0
    5.3455    0.8752    0.0000 H   0  0  0  0  0  0  0  0  0  0  0  0
    4.0639   -4.6105    0.0000 H   0  0  0  0  0  0  0  0  0  0  0  0
    6.6607    2.4286    0.0000 H   0  0  0  0  0  0  0  0  0  0  0  0
    3.5455   -6.1454    0.0000 H   0  0  0  0  0  0  0  0  0  0  0  0
    4.6155   -7.3617    0.0000 H   0  0  0  0  0  0  0  0  0  0  0  0
    7.1459    3.7513    0.0000 H   0  0  0  0  0  0  0  0  0  0  0  0
    6.5365    6.5648    0.0000 H   0  0  0  0  0  0  0  0  0  0  0  0
    3.5408    3.4176    0.0000 H   0  0  0  0  0  0  0  0  0  0  0  0
    7.6607    5.3356    0.0000 H   0  0  0  0  0  0  0  0  0  0  0  0
    2.5182    6.5648    0.0000 H   0  0  0  0  0  0  0  0  0  0  0  0
    1.9088    3.7513    0.0000 H   0  0  0  0  0  0  0  0  0  0  0  0
    1.3940    5.3356    0.0000 H   0  0  0  0  0  0  0  0  0  0  0  0
  1 17  1  0  0  0  0
  2 24  1  0  0  0  0
  3 23  2  0  0  0  0
  4 27  2  0  0  0  0
  5  8  1  0  0  0  0
  5  9  1  0  0  0  0
  5 12  1  0  0  0  0
  6 10  1  0  0  0  0
  6 11  1  0  0  0  0
  6 15  1  0  0  0  0
  7 16  1  0  0  0  0
  7 23  1  0  0  0  0
  7 53  1  0  0  0  0
  8 10  1  0  0  0  0
  8 36  1  0  0  0  0
  8 37  1  0  0  0  0
  9 11  1  0  0  0  0
  9 38  1  0  0  0  0
  9 39  1  0  0  0  0
 10 40  1  0  0  0  0
 10 41  1  0  0  0  0
 11 42  1  0  0  0  0
 11 43  1  0  0  0  0
 12 13  1  0  0  0  0
 12 44  1  0  0  0  0
 12 45  1  0  0  0  0
 13 14  1  0  0  0  0
 13 46  1  0  0  0  0
 13 47  1  0  0  0  0
 14 16  1  0  0  0  0
 14 48  1  0  0  0  0
 14 49  1  0  0  0  0
 15 17  2  0  0  0  0
 15 18  1  0  0  0  0
 16 50  1  0  0  0  0
 16 51  1  0  0  0  0
 17 24  1  0  0  0  0
 18 25  2  0  0  0  0
 18 52  1  0  0  0  0
 19 20  1  0  0  0  0
 19 21  1  0  0  0  0
 19 22  2  0  0  0  0
 20 23  1  0  0  0  0
 20 29  2  0  0  0  0
 21 26  1  0  0  0  0
 21 31  2  0  0  0  0
 22 27  1  0  0  0  0
 22 30  1  0  0  0  0
 24 28  2  0  0  0  0
 25 28  1  0  0  0  0
 25 54  1  0  0  0  0
 26 27  1  0  0  0  0
 26 33  2  0  0  0  0
 28 55  1  0  0  0  0
 29 32  1  0  0  0  0
 29 56  1  0  0  0  0
 30 32  2  0  0  0  0
 30 57  1  0  0  0  0
 31 34  1  0  0  0  0
 31 58  1  0  0  0  0
 32 59  1  0  0  0  0
 33 35  1  0  0  0  0
 33 60  1  0  0  0  0
 34 35  2  0  0  0  0
 34 61  1  0  0  0  0
 35 62  1  0  0  0  0
M  END
> <PUBCHEM_COMPOUND_CID>
10436285

> <PUBCHEM_COMPOUND_CANONICALIZED>
1

> <PUBCHEM_CACTVS_COMPLEXITY>
744

> <PUBCHEM_CACTVS_HBOND_ACCEPTOR>
4

> <PUBCHEM_CACTVS_HBOND_DONOR>
1

> <PUBCHEM_CACTVS_ROTATABLE_BOND>
7

> <PUBCHEM_CACTVS_SUBSKEYS>
AAADceB7MAAGAAAAAAAAAAAAAAAAAYAAAAA8YMEAAAAAAGABUAAAHgIQAAAADA7BmCQwwIPAAACIAqVSUACCAAAlBwAIisEIZsgIYDLBl5HUIQhglgDIyYcYi8CugAACAAIQABQAAAQABCAAKQAACAAAAA==

> <PUBCHEM_IUPAC_OPENEYE_NAME>
N-[4-[4-(2,3-dichlorophenyl)piperazin-1-yl]butyl]-9-oxo-fluorene-4-carboxamide

> <PUBCHEM_IUPAC_CAS_NAME>
N-[4-[4-(2,3-dichlorophenyl)-1-piperazinyl]butyl]-9-oxo-4-fluorenecarboxamide

> <PUBCHEM_IUPAC_NAME_MARKUP>
<I>N</I>-[4-[4-(2,3-dichlorophenyl)piperazin-1-yl]butyl]-9-oxofluorene-4-carboxamide

> <PUBCHEM_IUPAC_NAME>
N-[4-[4-(2,3-dichlorophenyl)piperazin-1-yl]butyl]-9-oxofluorene-4-carboxamide

> <PUBCHEM_IUPAC_SYSTEMATIC_NAME>
N-[4-[4-[2,3-bis(chloranyl)phenyl]piperazin-1-yl]butyl]-9-oxidanylidene-fluorene-4-carboxamide

> <PUBCHEM_IUPAC_TRADITIONAL_NAME>
N-[4-[4-(2,3-dichlorophenyl)piperazino]butyl]-9-keto-fluorene-4-carboxamide

> <PUBCHEM_IUPAC_INCHI>
InChI=1S/C28H27Cl2N3O2/c29-23-11-6-12-24(26(23)30)33-17-15-32(16-18-33)14-4-3-13-31-28(35)22-10-5-9-21-25(22)19-7-1-2-8-20(19)27(21)34/h1-2,5-12H,3-4,13-18H2,(H,31,35)

> <PUBCHEM_IUPAC_INCHIKEY>
WOWYFQWPMWYJNL-UHFFFAOYSA-N

> <PUBCHEM_XLOGP3_AA>
5.9

> <PUBCHEM_EXACT_MASS>
507.1480325

> <PUBCHEM_MOLECULAR_FORMULA>
C28H27Cl2N3O2

> <PUBCHEM_MOLECULAR_WEIGHT>
508.4

> <PUBCHEM_OPENEYE_CAN_SMILES>
C1CN(CCN1CCCCNC(=O)C2=CC=CC3=C2C4=CC=CC=C4C3=O)C5=C(C(=CC=C5)Cl)Cl

> <PUBCHEM_OPENEYE_ISO_SMILES>
C1CN(CCN1CCCCNC(=O)C2=CC=CC3=C2C4=CC=CC=C4C3=O)C5=C(C(=CC=C5)Cl)Cl

> <PUBCHEM_CACTVS_TPSA>
52.6

> <PUBCHEM_MONOISOTOPIC_WEIGHT>
507.1480325

> <PUBCHEM_TOTAL_CHARGE>
0

> <PUBCHEM_HEAVY_ATOM_COUNT>
35

> <PUBCHEM_ATOM_DEF_STEREO_COUNT>
0

> <PUBCHEM_ATOM_UDEF_STEREO_COUNT>
0

> <PUBCHEM_BOND_DEF_STEREO_COUNT>
0

> <PUBCHEM_BOND_UDEF_STEREO_COUNT>
0

> <PUBCHEM_ISOTOPIC_ATOM_COUNT>
0

> <PUBCHEM_COMPONENT_COUNT>
1

> <PUBCHEM_CACTVS_TAUTO_COUNT>
-1

> <PUBCHEM_COORDINATE_TYPE>
1
5
255

> <PUBCHEM_BONDANNOTATIONS>
15  17  8
15  18  8
17  24  8
18  25  8
19  20  8
19  22  8
20  29  8
21  26  8
21  31  8
22  30  8
24  28  8
25  28  8
26  33  8
29  32  8
30  32  8
31  34  8
33  35  8
34  35  8

$$$$
