52949885
  -OEChem-09292322302D

 63 67  0     0  0  0  0  0  0999 V2000
    5.3351   -2.6593    0.0000 O   0  0  0  0  0  0  0  0  0  0  0  0
    4.0617   -6.3754    0.0000 O   0  0  0  0  0  0  0  0  0  0  0  0
    7.0671    1.3407    0.0000 N   0  0  0  0  0  0  0  0  0  0  0  0
    7.0671    3.3407    0.0000 N   0  0  0  0  0  0  0  0  0  0  0  0
    2.4051   -5.7341    0.0000 N   0  0  0  0  0  0  0  0  0  0  0  0
    7.9332    1.8407    0.0000 C   0  0  0  0  0  0  0  0  0  0  0  0
    6.2011    1.8407    0.0000 C   0  0  0  0  0  0  0  0  0  0  0  0
    7.9332    2.8407    0.0000 C   0  0  0  0  0  0  0  0  0  0  0  0
    6.2011    2.8407    0.0000 C   0  0  0  0  0  0  0  0  0  0  0  0
    7.0671    0.3407    0.0000 C   0  0  0  0  0  0  0  0  0  0  0  0
    6.2011   -0.1593    0.0000 C   0  0  0  0  0  0  0  0  0  0  0  0
    7.0671    4.3407    0.0000 C   0  0  0  0  0  0  0  0  0  0  0  0
    6.2011   -1.1593    0.0000 C   0  0  0  0  0  0  0  0  0  0  0  0
    7.9332    4.8407    0.0000 C   0  0  0  0  0  0  0  0  0  0  0  0
    5.3351   -1.6593    0.0000 C   0  0  0  0  0  0  0  0  0  0  0  0
    6.2011    4.8407    0.0000 C   0  0  0  0  0  0  0  0  0  0  0  0
    7.9332    5.8407    0.0000 C   0  0  0  0  0  0  0  0  0  0  0  0
    8.8271    4.3061    0.0000 C   0  0  0  0  0  0  0  0  0  0  0  0
    6.2011    5.8407    0.0000 C   0  0  0  0  0  0  0  0  0  0  0  0
    7.0671    6.3407    0.0000 C   0  0  0  0  0  0  0  0  0  0  0  0
    3.6030   -4.6593    0.0000 C   0  0  0  0  0  0  0  0  0  0  0  0
    4.4691   -3.1593    0.0000 C   0  0  0  0  0  0  0  0  0  0  0  0
    4.4691   -4.1593    0.0000 C   0  0  0  0  0  0  0  0  0  0  0  0
    2.7370   -4.1593    0.0000 C   0  0  0  0  0  0  0  0  0  0  0  0
    8.8271    6.3754    0.0000 C   0  0  0  0  0  0  0  0  0  0  0  0
    2.0000   -4.8264    0.0000 C   0  0  0  0  0  0  0  0  0  0  0  0
    9.7332    4.8199    0.0000 C   0  0  0  0  0  0  0  0  0  0  0  0
    3.6030   -2.6593    0.0000 C   0  0  0  0  0  0  0  0  0  0  0  0
    2.7370   -3.1593    0.0000 C   0  0  0  0  0  0  0  0  0  0  0  0
    3.3938   -5.6311    0.0000 C   0  0  0  0  0  0  0  0  0  0  0  0
    9.7332    5.8615    0.0000 C   0  0  0  0  0  0  0  0  0  0  0  0
    5.3351   -4.6593    0.0000 C   0  0  0  0  0  0  0  0  0  0  0  0
    8.1452    1.2581    0.0000 H   0  0  0  0  0  0  0  0  0  0  0  0
    8.5438    1.9484    0.0000 H   0  0  0  0  0  0  0  0  0  0  0  0
    5.5905    1.9484    0.0000 H   0  0  0  0  0  0  0  0  0  0  0  0
    5.9891    1.2581    0.0000 H   0  0  0  0  0  0  0  0  0  0  0  0
    8.5438    2.7331    0.0000 H   0  0  0  0  0  0  0  0  0  0  0  0
    8.1452    3.4233    0.0000 H   0  0  0  0  0  0  0  0  0  0  0  0
    5.9891    3.4233    0.0000 H   0  0  0  0  0  0  0  0  0  0  0  0
    5.5905    2.7331    0.0000 H   0  0  0  0  0  0  0  0  0  0  0  0
    7.2792   -0.2419    0.0000 H   0  0  0  0  0  0  0  0  0  0  0  0
    7.6777    0.4484    0.0000 H   0  0  0  0  0  0  0  0  0  0  0  0
    5.9891    0.4233    0.0000 H   0  0  0  0  0  0  0  0  0  0  0  0
    5.5905   -0.2669    0.0000 H   0  0  0  0  0  0  0  0  0  0  0  0
    6.4132   -1.7419    0.0000 H   0  0  0  0  0  0  0  0  0  0  0  0
    6.8117   -1.0516    0.0000 H   0  0  0  0  0  0  0  0  0  0  0  0
    5.1230   -1.0767    0.0000 H   0  0  0  0  0  0  0  0  0  0  0  0
    4.7245   -1.7669    0.0000 H   0  0  0  0  0  0  0  0  0  0  0  0
    5.6642    4.5307    0.0000 H   0  0  0  0  0  0  0  0  0  0  0  0
    8.8199    3.6861    0.0000 H   0  0  0  0  0  0  0  0  0  0  0  0
    5.6642    6.1507    0.0000 H   0  0  0  0  0  0  0  0  0  0  0  0
    7.0671    6.9607    0.0000 H   0  0  0  0  0  0  0  0  0  0  0  0
    8.8199    6.9954    0.0000 H   0  0  0  0  0  0  0  0  0  0  0  0
    1.6346   -4.3255    0.0000 H   0  0  0  0  0  0  0  0  0  0  0  0
    1.4635   -5.1371    0.0000 H   0  0  0  0  0  0  0  0  0  0  0  0
   10.2689    4.5078    0.0000 H   0  0  0  0  0  0  0  0  0  0  0  0
    3.6030   -2.0393    0.0000 H   0  0  0  0  0  0  0  0  0  0  0  0
    2.2001   -2.8493    0.0000 H   0  0  0  0  0  0  0  0  0  0  0  0
    2.0951   -6.2711    0.0000 H   0  0  0  0  0  0  0  0  0  0  0  0
   10.2689    6.1736    0.0000 H   0  0  0  0  0  0  0  0  0  0  0  0
    5.0251   -5.1962    0.0000 H   0  0  0  0  0  0  0  0  0  0  0  0
    5.8720   -4.9693    0.0000 H   0  0  0  0  0  0  0  0  0  0  0  0
    5.6451   -4.1223    0.0000 H   0  0  0  0  0  0  0  0  0  0  0  0
  1 15  1  0  0  0  0
  1 22  1  0  0  0  0
  2 30  2  0  0  0  0
  3  6  1  0  0  0  0
  3  7  1  0  0  0  0
  3 10  1  0  0  0  0
  4  8  1  0  0  0  0
  4  9  1  0  0  0  0
  4 12  1  0  0  0  0
  5 26  1  0  0  0  0
  5 30  1  0  0  0  0
  5 59  1  0  0  0  0
  6  8  1  0  0  0  0
  6 33  1  0  0  0  0
  6 34  1  0  0  0  0
  7  9  1  0  0  0  0
  7 35  1  0  0  0  0
  7 36  1  0  0  0  0
  8 37  1  0  0  0  0
  8 38  1  0  0  0  0
  9 39  1  0  0  0  0
  9 40  1  0  0  0  0
 10 11  1  0  0  0  0
 10 41  1  0  0  0  0
 10 42  1  0  0  0  0
 11 13  1  0  0  0  0
 11 43  1  0  0  0  0
 11 44  1  0  0  0  0
 12 14  1  0  0  0  0
 12 16  2  0  0  0  0
 13 15  1  0  0  0  0
 13 45  1  0  0  0  0
 13 46  1  0  0  0  0
 14 17  1  0  0  0  0
 14 18  2  0  0  0  0
 15 47  1  0  0  0  0
 15 48  1  0  0  0  0
 16 19  1  0  0  0  0
 16 49  1  0  0  0  0
 17 20  1  0  0  0  0
 17 25  2  0  0  0  0
 18 27  1  0  0  0  0
 18 50  1  0  0  0  0
 19 20  2  0  0  0  0
 19 51  1  0  0  0  0
 20 52  1  0  0  0  0
 21 23  1  0  0  0  0
 21 24  2  0  0  0  0
 21 30  1  0  0  0  0
 22 23  2  0  0  0  0
 22 28  1  0  0  0  0
 23 32  1  0  0  0  0
 24 26  1  0  0  0  0
 24 29  1  0  0  0  0
 25 31  1  0  0  0  0
 25 53  1  0  0  0  0
 26 54  1  0  0  0  0
 26 55  1  0  0  0  0
 27 31  2  0  0  0  0
 27 56  1  0  0  0  0
 28 29  2  0  0  0  0
 28 57  1  0  0  0  0
 29 58  1  0  0  0  0
 31 60  1  0  0  0  0
 32 61  1  0  0  0  0
 32 62  1  0  0  0  0
 32 63  1  0  0  0  0
M  END
> <PUBCHEM_COMPOUND_CID>
52949885

> <PUBCHEM_COMPOUND_CANONICALIZED>
1

> <PUBCHEM_CACTVS_COMPLEXITY>
620

> <PUBCHEM_CACTVS_HBOND_ACCEPTOR>
4

> <PUBCHEM_CACTVS_HBOND_DONOR>
1

> <PUBCHEM_CACTVS_ROTATABLE_BOND>
7

> <PUBCHEM_CACTVS_SUBSKEYS>
AAADceB7MAAAAAAAAAAAAAAAAAAAAWAAAAA8YMEAAAAAAFjBVAAAHgAQAAAADAzhmAYyxsPABACIAiVSUACCCAAlIgAIiIEObMgMZjLEtZuWOSjkxhHI6Qe+2PKOoAADQAAaAABAAAaAADQAAAAAAAAAAA==

> <PUBCHEM_IUPAC_OPENEYE_NAME>
7-methyl-6-[4-[4-(1-naphthyl)piperazin-1-yl]butoxy]isoindolin-1-one

> <PUBCHEM_IUPAC_CAS_NAME>
7-methyl-6-[4-[4-(1-naphthalenyl)-1-piperazinyl]butoxy]-2,3-dihydroisoindol-1-one

> <PUBCHEM_IUPAC_NAME_MARKUP>
7-methyl-6-[4-(4-naphthalen-1-ylpiperazin-1-yl)butoxy]-2,3-dihydroisoindol-1-one

> <PUBCHEM_IUPAC_NAME>
7-methyl-6-[4-(4-naphthalen-1-ylpiperazin-1-yl)butoxy]-2,3-dihydroisoindol-1-one

> <PUBCHEM_IUPAC_SYSTEMATIC_NAME>
7-methyl-6-[4-(4-naphthalen-1-ylpiperazin-1-yl)butoxy]-2,3-dihydroisoindol-1-one

> <PUBCHEM_IUPAC_TRADITIONAL_NAME>
7-methyl-6-[4-[4-(1-naphthyl)piperazino]butoxy]isoindolin-1-one

> <PUBCHEM_IUPAC_INCHI>
InChI=1S/C27H31N3O2/c1-20-25(12-11-22-19-28-27(31)26(20)22)32-18-5-4-13-29-14-16-30(17-15-29)24-10-6-8-21-7-2-3-9-23(21)24/h2-3,6-12H,4-5,13-19H2,1H3,(H,28,31)

> <PUBCHEM_IUPAC_INCHIKEY>
GWGIUBSVFHLVKW-UHFFFAOYSA-N

> <PUBCHEM_XLOGP3_AA>
4.7

> <PUBCHEM_EXACT_MASS>
429.24162724

> <PUBCHEM_MOLECULAR_FORMULA>
C27H31N3O2

> <PUBCHEM_MOLECULAR_WEIGHT>
429.6

> <PUBCHEM_OPENEYE_CAN_SMILES>
CC1=C(C=CC2=C1C(=O)NC2)OCCCCN3CCN(CC3)C4=CC=CC5=CC=CC=C54

> <PUBCHEM_OPENEYE_ISO_SMILES>
CC1=C(C=CC2=C1C(=O)NC2)OCCCCN3CCN(CC3)C4=CC=CC5=CC=CC=C54

> <PUBCHEM_CACTVS_TPSA>
44.8

> <PUBCHEM_MONOISOTOPIC_WEIGHT>
429.24162724

> <PUBCHEM_TOTAL_CHARGE>
0

> <PUBCHEM_HEAVY_ATOM_COUNT>
32

> <PUBCHEM_ATOM_DEF_STEREO_COUNT>
0

> <PUBCHEM_ATOM_UDEF_STEREO_COUNT>
0

> <PUBCHEM_BOND_DEF_STEREO_COUNT>
0

> <PUBCHEM_BOND_UDEF_STEREO_COUNT>
0

> <PUBCHEM_ISOTOPIC_ATOM_COUNT>
0

> <PUBCHEM_COMPONENT_COUNT>
1

> <PUBCHEM_CACTVS_TAUTO_COUNT>
-1

> <PUBCHEM_COORDINATE_TYPE>
1
5
255

> <PUBCHEM_BONDANNOTATIONS>
12  14  8
12  16  8
14  17  8
14  18  8
16  19  8
17  20  8
17  25  8
18  27  8
19  20  8
21  23  8
21  24  8
22  23  8
22  28  8
24  29  8
25  31  8
27  31  8
28  29  8

$$$$
