155195311
  -OEChem-09292322402D

 63 67  0     1  0  0  0  0  0999 V2000
   13.6279    1.5675    0.0000 O   0  0  0  0  0  0  0  0  0  0  0  0
    6.7619   -2.3966    0.0000 O   0  0  0  0  0  0  0  0  0  0  0  0
   11.6279    1.5675    0.0000 N   0  0  3  0  0  0  0  0  0  0  0  0
    6.7619   -0.6645    0.0000 N   0  0  0  0  0  0  0  0  0  0  0  0
   15.1279   -1.0306    0.0000 N   0  0  0  0  0  0  0  0  0  0  0  0
    4.6783   -2.3353    0.0000 N   0  0  0  0  0  0  0  0  0  0  0  0
   15.1279   -2.7626    0.0000 N   0  0  0  0  0  0  0  0  0  0  0  0
   10.1279    0.7015    0.0000 C   0  0  2  0  0  0  0  0  0  0  0  0
    9.2619    0.2015    0.0000 C   0  0  2  0  0  0  0  0  0  0  0  0
   10.1279   -0.2985    0.0000 C   0  0  0  0  0  0  0  0  0  0  0  0
   10.6279    1.5675    0.0000 C   0  0  0  0  0  0  0  0  0  0  0  0
    8.2619    0.2015    0.0000 C   0  0  0  0  0  0  0  0  0  0  0  0
    7.7619   -0.6645    0.0000 C   0  0  0  0  0  0  0  0  0  0  0  0
   12.1279    2.4335    0.0000 C   0  0  2  0  0  0  0  0  0  0  0  0
   12.1279    0.7015    0.0000 C   0  0  0  0  0  0  0  0  0  0  0  0
   13.1279    0.7015    0.0000 C   0  0  2  0  0  0  0  0  0  0  0  0
   13.1279    2.4335    0.0000 C   0  0  0  0  0  0  0  0  0  0  0  0
   11.6279    3.2996    0.0000 C   0  0  0  0  0  0  0  0  0  0  0  0
   13.6279   -0.1645    0.0000 C   0  0  0  0  0  0  0  0  0  0  0  0
    6.2619   -1.5306    0.0000 C   0  0  0  0  0  0  0  0  0  0  0  0
   13.1279   -1.0306    0.0000 C   0  0  0  0  0  0  0  0  0  0  0  0
   14.6279   -0.1645    0.0000 C   0  0  0  0  0  0  0  0  0  0  0  0
    5.2619   -1.5306    0.0000 C   0  0  0  0  0  0  0  0  0  0  0  0
   13.6279   -1.8966    0.0000 C   0  0  0  0  0  0  0  0  0  0  0  0
   14.6279   -1.8966    0.0000 C   0  0  0  0  0  0  0  0  0  0  0  0
    4.6783   -0.7258    0.0000 C   0  0  0  0  0  0  0  0  0  0  0  0
    3.7320   -2.0306    0.0000 C   0  0  0  0  0  0  0  0  0  0  0  0
    3.7320   -1.0306    0.0000 C   0  0  0  0  0  0  0  0  0  0  0  0
    2.8660   -2.5306    0.0000 C   0  0  0  0  0  0  0  0  0  0  0  0
    2.8660   -0.5306    0.0000 C   0  0  0  0  0  0  0  0  0  0  0  0
    2.0000   -2.0306    0.0000 C   0  0  0  0  0  0  0  0  0  0  0  0
    2.0000   -1.0306    0.0000 C   0  0  0  0  0  0  0  0  0  0  0  0
    9.6895    1.1399    0.0000 H   0  0  0  0  0  0  0  0  0  0  0  0
    9.1014    0.8004    0.0000 H   0  0  0  0  0  0  0  0  0  0  0  0
    9.9158   -0.8811    0.0000 H   0  0  0  0  0  0  0  0  0  0  0  0
   10.7385   -0.4062    0.0000 H   0  0  0  0  0  0  0  0  0  0  0  0
   10.7356    2.1781    0.0000 H   0  0  0  0  0  0  0  0  0  0  0  0
   10.0453    1.7796    0.0000 H   0  0  0  0  0  0  0  0  0  0  0  0
    8.3695    0.8121    0.0000 H   0  0  0  0  0  0  0  0  0  0  0  0
    7.6793    0.4135    0.0000 H   0  0  0  0  0  0  0  0  0  0  0  0
    7.6542   -1.2751    0.0000 H   0  0  0  0  0  0  0  0  0  0  0  0
    8.3445   -0.8766    0.0000 H   0  0  0  0  0  0  0  0  0  0  0  0
   11.5079    2.4335    0.0000 H   0  0  0  0  0  0  0  0  0  0  0  0
   11.5453    0.4894    0.0000 H   0  0  0  0  0  0  0  0  0  0  0  0
   12.2356    0.0909    0.0000 H   0  0  0  0  0  0  0  0  0  0  0  0
   12.8179    0.1645    0.0000 H   0  0  0  0  0  0  0  0  0  0  0  0
   13.7105    2.6456    0.0000 H   0  0  0  0  0  0  0  0  0  0  0  0
   13.0202    3.0441    0.0000 H   0  0  0  0  0  0  0  0  0  0  0  0
   12.1648    3.6096    0.0000 H   0  0  0  0  0  0  0  0  0  0  0  0
   11.3179    3.8365    0.0000 H   0  0  0  0  0  0  0  0  0  0  0  0
   11.0910    2.9896    0.0000 H   0  0  0  0  0  0  0  0  0  0  0  0
    6.4519   -0.1276    0.0000 H   0  0  0  0  0  0  0  0  0  0  0  0
   12.5079   -1.0306    0.0000 H   0  0  0  0  0  0  0  0  0  0  0  0
   14.9379    0.3724    0.0000 H   0  0  0  0  0  0  0  0  0  0  0  0
   13.3179   -2.4335    0.0000 H   0  0  0  0  0  0  0  0  0  0  0  0
    4.8709   -2.9246    0.0000 H   0  0  0  0  0  0  0  0  0  0  0  0
    4.8709   -0.1365    0.0000 H   0  0  0  0  0  0  0  0  0  0  0  0
   15.7479   -2.7626    0.0000 H   0  0  0  0  0  0  0  0  0  0  0  0
   14.8179   -3.2996    0.0000 H   0  0  0  0  0  0  0  0  0  0  0  0
    2.8660   -3.1506    0.0000 H   0  0  0  0  0  0  0  0  0  0  0  0
    2.8660    0.0894    0.0000 H   0  0  0  0  0  0  0  0  0  0  0  0
    1.4631   -2.3406    0.0000 H   0  0  0  0  0  0  0  0  0  0  0  0
    1.4631   -0.7206    0.0000 H   0  0  0  0  0  0  0  0  0  0  0  0
  1 16  1  0  0  0  0
  1 17  1  0  0  0  0
  2 20  2  0  0  0  0
  3 11  1  0  0  0  0
  3 14  1  0  0  0  0
  3 15  1  0  0  0  0
  4 13  1  0  0  0  0
  4 20  1  0  0  0  0
  4 52  1  0  0  0  0
  5 22  1  0  0  0  0
  5 25  2  0  0  0  0
  6 23  1  0  0  0  0
  6 27  1  0  0  0  0
  6 56  1  0  0  0  0
  7 25  1  0  0  0  0
  7 58  1  0  0  0  0
  7 59  1  0  0  0  0
  8  9  1  0  0  0  0
  8 10  1  0  0  0  0
  8 11  1  1  0  0  0
  8 33  1  0  0  0  0
  9 10  1  0  0  0  0
  9 12  1  6  0  0  0
  9 34  1  0  0  0  0
 10 35  1  0  0  0  0
 10 36  1  0  0  0  0
 11 37  1  0  0  0  0
 11 38  1  0  0  0  0
 12 13  1  0  0  0  0
 12 39  1  0  0  0  0
 12 40  1  0  0  0  0
 13 41  1  0  0  0  0
 13 42  1  0  0  0  0
 14 17  1  0  0  0  0
 14 18  1  1  0  0  0
 14 43  1  0  0  0  0
 15 16  1  0  0  0  0
 15 44  1  0  0  0  0
 15 45  1  0  0  0  0
 16 19  1  1  0  0  0
 16 46  1  0  0  0  0
 17 47  1  0  0  0  0
 17 48  1  0  0  0  0
 18 49  1  0  0  0  0
 18 50  1  0  0  0  0
 18 51  1  0  0  0  0
 19 21  1  0  0  0  0
 19 22  2  0  0  0  0
 20 23  1  0  0  0  0
 21 24  2  0  0  0  0
 21 53  1  0  0  0  0
 22 54  1  0  0  0  0
 23 26  2  0  0  0  0
 24 25  1  0  0  0  0
 24 55  1  0  0  0  0
 26 28  1  0  0  0  0
 26 57  1  0  0  0  0
 27 28  1  0  0  0  0
 27 29  2  0  0  0  0
 28 30  2  0  0  0  0
 29 31  1  0  0  0  0
 29 60  1  0  0  0  0
 30 32  1  0  0  0  0
 30 61  1  0  0  0  0
 31 32  2  0  0  0  0
 31 62  1  0  0  0  0
 32 63  1  0  0  0  0
M  END
> <PUBCHEM_COMPOUND_CID>
155195311

> <PUBCHEM_COMPOUND_CANONICALIZED>
1

> <PUBCHEM_CACTVS_COMPLEXITY>
648

> <PUBCHEM_CACTVS_HBOND_ACCEPTOR>
5

> <PUBCHEM_CACTVS_HBOND_DONOR>
3

> <PUBCHEM_CACTVS_ROTATABLE_BOND>
7

> <PUBCHEM_CACTVS_SUBSKEYS>
AAADceB7sAAAAAAAAAAAAAAAGAAAAWAAAAA8WIAAAAAAAFgB/AAAHgAQAAAADTzhngY/8PPJlACoAzd3dACCgCk3AiAI2aG4bNiKZvLAtbmXMQhm1gPY6aeYmYKeAAAAAAACAAAAAAAAAAQAAAAAAAAAAA==

> <PUBCHEM_IUPAC_OPENEYE_NAME>
N-[2-[(1R,2S)-2-[[(2S,5S)-2-(6-amino-3-pyridyl)-5-methyl-morpholin-4-yl]methyl]cyclopropyl]ethyl]-1H-indole-2-carboxamide

> <PUBCHEM_IUPAC_CAS_NAME>
N-[2-[(1R,2S)-2-[[(2S,5S)-2-(6-amino-3-pyridinyl)-5-methyl-4-morpholinyl]methyl]cyclopropyl]ethyl]-1H-indole-2-carboxamide

> <PUBCHEM_IUPAC_NAME_MARKUP>
<I>N</I>-[2-[(1<I>R</I>,2<I>S</I>)-2-[[(2<I>S</I>,5<I>S</I>)-2-(6-aminopyridin-3-yl)-5-methylmorpholin-4-yl]methyl]cyclopropyl]ethyl]-1<I>H</I>-indole-2-carboxamide

> <PUBCHEM_IUPAC_NAME>
N-[2-[(1R,2S)-2-[[(2S,5S)-2-(6-aminopyridin-3-yl)-5-methylmorpholin-4-yl]methyl]cyclopropyl]ethyl]-1H-indole-2-carboxamide

> <PUBCHEM_IUPAC_SYSTEMATIC_NAME>
N-[2-[(1R,2S)-2-[[(2S,5S)-2-(6-azanylpyridin-3-yl)-5-methyl-morpholin-4-yl]methyl]cyclopropyl]ethyl]-1H-indole-2-carboxamide

> <PUBCHEM_IUPAC_TRADITIONAL_NAME>
N-[2-[(1R,2S)-2-[[(2S,5S)-2-(6-amino-3-pyridyl)-5-methyl-morpholino]methyl]cyclopropyl]ethyl]-1H-indole-2-carboxamide

> <PUBCHEM_IUPAC_INCHI>
InChI=1S/C25H31N5O2/c1-16-15-32-23(19-6-7-24(26)28-12-19)14-30(16)13-20-10-17(20)8-9-27-25(31)22-11-18-4-2-3-5-21(18)29-22/h2-7,11-12,16-17,20,23,29H,8-10,13-15H2,1H3,(H2,26,28)(H,27,31)/t16-,17-,20+,23+/m0/s1

> <PUBCHEM_IUPAC_INCHIKEY>
JQBHQHNVJCDNEL-SLHLXQHXSA-N

> <PUBCHEM_XLOGP3_AA>
2.9

> <PUBCHEM_EXACT_MASS>
433.24777525

> <PUBCHEM_MOLECULAR_FORMULA>
C25H31N5O2

> <PUBCHEM_MOLECULAR_WEIGHT>
433.5

> <PUBCHEM_OPENEYE_CAN_SMILES>
CC1COC(CN1CC2CC2CCNC(=O)C3=CC4=CC=CC=C4N3)C5=CN=C(C=C5)N

> <PUBCHEM_OPENEYE_ISO_SMILES>
C[C@H]1CO[C@H](CN1C[C@H]2C[C@@H]2CCNC(=O)C3=CC4=CC=CC=C4N3)C5=CN=C(C=C5)N

> <PUBCHEM_CACTVS_TPSA>
96.3

> <PUBCHEM_MONOISOTOPIC_WEIGHT>
433.24777525

> <PUBCHEM_TOTAL_CHARGE>
0

> <PUBCHEM_HEAVY_ATOM_COUNT>
32

> <PUBCHEM_ATOM_DEF_STEREO_COUNT>
4

> <PUBCHEM_ATOM_UDEF_STEREO_COUNT>
0

> <PUBCHEM_BOND_DEF_STEREO_COUNT>
0

> <PUBCHEM_BOND_UDEF_STEREO_COUNT>
0

> <PUBCHEM_ISOTOPIC_ATOM_COUNT>
0

> <PUBCHEM_COMPONENT_COUNT>
1

> <PUBCHEM_CACTVS_TAUTO_COUNT>
-1

> <PUBCHEM_COORDINATE_TYPE>
1
5
255

> <PUBCHEM_BONDANNOTATIONS>
14  18  5
16  19  5
19  21  8
19  22  8
21  24  8
23  26  8
24  25  8
26  28  8
27  28  8
27  29  8
28  30  8
29  31  8
30  32  8
31  32  8
5  22  8
5  25  8
6  23  8
6  27  8
8  11  5
9  12  6

$$$$
