10340117
  -OEChem-09292322152D

 51 55  0     0  0  0  0  0  0999 V2000
    6.4103   -3.4982    0.0000 O   0  0  0  0  0  0  0  0  0  0  0  0
    7.9939   -4.3030    0.0000 O   0  0  0  0  0  0  0  0  0  0  0  0
    4.5981   -0.3030    0.0000 N   0  0  0  0  0  0  0  0  0  0  0  0
    4.5981   -2.3030    0.0000 N   0  0  0  0  0  0  0  0  0  0  0  0
    6.4103   -5.1077    0.0000 N   0  0  0  0  0  0  0  0  0  0  0  0
    2.0000    1.1970    0.0000 N   0  0  0  0  0  0  0  0  0  0  0  0
    3.7320   -0.8030    0.0000 C   0  0  0  0  0  0  0  0  0  0  0  0
    5.4641   -0.8030    0.0000 C   0  0  0  0  0  0  0  0  0  0  0  0
    3.7320   -1.8030    0.0000 C   0  0  0  0  0  0  0  0  0  0  0  0
    5.4641   -1.8030    0.0000 C   0  0  0  0  0  0  0  0  0  0  0  0
    4.5981    0.6970    0.0000 C   0  0  0  0  0  0  0  0  0  0  0  0
    4.5981   -3.3030    0.0000 C   0  0  0  0  0  0  0  0  0  0  0  0
    3.7320    1.1970    0.0000 C   0  0  0  0  0  0  0  0  0  0  0  0
    5.4641   -3.8030    0.0000 C   0  0  0  0  0  0  0  0  0  0  0  0
    3.7320   -3.8030    0.0000 C   0  0  0  0  0  0  0  0  0  0  0  0
    5.4641   -4.8030    0.0000 C   0  0  0  0  0  0  0  0  0  0  0  0
    3.7320    2.1970    0.0000 C   0  0  0  0  0  0  0  0  0  0  0  0
    3.7320   -4.8030    0.0000 C   0  0  0  0  0  0  0  0  0  0  0  0
    4.5981   -5.3030    0.0000 C   0  0  0  0  0  0  0  0  0  0  0  0
    2.8660    0.6970    0.0000 C   0  0  0  0  0  0  0  0  0  0  0  0
    2.8660    2.6970    0.0000 C   0  0  0  0  0  0  0  0  0  0  0  0
    6.9939   -4.3030    0.0000 C   0  0  0  0  0  0  0  0  0  0  0  0
    2.0000    2.1970    0.0000 C   0  0  0  0  0  0  0  0  0  0  0  0
    2.8660    3.6970    0.0000 C   0  0  0  0  0  0  0  0  0  0  0  0
    2.0000    4.1970    0.0000 C   0  0  0  0  0  0  0  0  0  0  0  0
    3.7320    4.1970    0.0000 C   0  0  0  0  0  0  0  0  0  0  0  0
    2.0000    5.1970    0.0000 C   0  0  0  0  0  0  0  0  0  0  0  0
    3.7320    5.1970    0.0000 C   0  0  0  0  0  0  0  0  0  0  0  0
    2.8660    5.6970    0.0000 C   0  0  0  0  0  0  0  0  0  0  0  0
    3.5200   -0.2204    0.0000 H   0  0  0  0  0  0  0  0  0  0  0  0
    3.1215   -0.9106    0.0000 H   0  0  0  0  0  0  0  0  0  0  0  0
    6.0747   -0.9106    0.0000 H   0  0  0  0  0  0  0  0  0  0  0  0
    5.6762   -0.2204    0.0000 H   0  0  0  0  0  0  0  0  0  0  0  0
    3.1215   -1.6953    0.0000 H   0  0  0  0  0  0  0  0  0  0  0  0
    3.5200   -2.3856    0.0000 H   0  0  0  0  0  0  0  0  0  0  0  0
    5.6762   -2.3856    0.0000 H   0  0  0  0  0  0  0  0  0  0  0  0
    6.0747   -1.6953    0.0000 H   0  0  0  0  0  0  0  0  0  0  0  0
    5.2087    0.5894    0.0000 H   0  0  0  0  0  0  0  0  0  0  0  0
    4.8101    1.2796    0.0000 H   0  0  0  0  0  0  0  0  0  0  0  0
    3.1951   -3.4930    0.0000 H   0  0  0  0  0  0  0  0  0  0  0  0
    4.2690    2.5070    0.0000 H   0  0  0  0  0  0  0  0  0  0  0  0
    3.1951   -5.1130    0.0000 H   0  0  0  0  0  0  0  0  0  0  0  0
    4.5981   -5.9230    0.0000 H   0  0  0  0  0  0  0  0  0  0  0  0
    2.8660    0.0770    0.0000 H   0  0  0  0  0  0  0  0  0  0  0  0
    6.6029   -5.6970    0.0000 H   0  0  0  0  0  0  0  0  0  0  0  0
    1.4631    2.5070    0.0000 H   0  0  0  0  0  0  0  0  0  0  0  0
    1.4631    3.8870    0.0000 H   0  0  0  0  0  0  0  0  0  0  0  0
    4.2690    3.8870    0.0000 H   0  0  0  0  0  0  0  0  0  0  0  0
    1.4631    5.5070    0.0000 H   0  0  0  0  0  0  0  0  0  0  0  0
    4.2690    5.5070    0.0000 H   0  0  0  0  0  0  0  0  0  0  0  0
    2.8660    6.3170    0.0000 H   0  0  0  0  0  0  0  0  0  0  0  0
  1 14  1  0  0  0  0
  1 22  1  0  0  0  0
  2 22  2  0  0  0  0
  3  7  1  0  0  0  0
  3  8  1  0  0  0  0
  3 11  1  0  0  0  0
  4  9  1  0  0  0  0
  4 10  1  0  0  0  0
  4 12  1  0  0  0  0
  5 16  1  0  0  0  0
  5 22  1  0  0  0  0
  5 45  1  0  0  0  0
  6 20  2  0  0  0  0
  6 23  1  0  0  0  0
  7  9  1  0  0  0  0
  7 30  1  0  0  0  0
  7 31  1  0  0  0  0
  8 10  1  0  0  0  0
  8 32  1  0  0  0  0
  8 33  1  0  0  0  0
  9 34  1  0  0  0  0
  9 35  1  0  0  0  0
 10 36  1  0  0  0  0
 10 37  1  0  0  0  0
 11 13  1  0  0  0  0
 11 38  1  0  0  0  0
 11 39  1  0  0  0  0
 12 14  1  0  0  0  0
 12 15  2  0  0  0  0
 13 17  2  0  0  0  0
 13 20  1  0  0  0  0
 14 16  2  0  0  0  0
 15 18  1  0  0  0  0
 15 40  1  0  0  0  0
 16 19  1  0  0  0  0
 17 21  1  0  0  0  0
 17 41  1  0  0  0  0
 18 19  2  0  0  0  0
 18 42  1  0  0  0  0
 19 43  1  0  0  0  0
 20 44  1  0  0  0  0
 21 23  2  0  0  0  0
 21 24  1  0  0  0  0
 23 46  1  0  0  0  0
 24 25  2  0  0  0  0
 24 26  1  0  0  0  0
 25 27  1  0  0  0  0
 25 47  1  0  0  0  0
 26 28  2  0  0  0  0
 26 48  1  0  0  0  0
 27 29  2  0  0  0  0
 27 49  1  0  0  0  0
 28 29  1  0  0  0  0
 28 50  1  0  0  0  0
 29 51  1  0  0  0  0
M  END
> <PUBCHEM_COMPOUND_CID>
10340117

> <PUBCHEM_COMPOUND_CANONICALIZED>
1

> <PUBCHEM_CACTVS_COMPLEXITY>
559

> <PUBCHEM_CACTVS_HBOND_ACCEPTOR>
5

> <PUBCHEM_CACTVS_HBOND_DONOR>
1

> <PUBCHEM_CACTVS_ROTATABLE_BOND>
4

> <PUBCHEM_CACTVS_SUBSKEYS>
AAADceB7sAAAAAAAAAAAAAAAAAAAAWAAAAA8eIEAAAAAAFgB0AAAHgAQAAAADAzBmgQ8zpPIFACoAjRnXACCiCAxIiAI2CAtbJkOZuLE8dudMihk1BHY6AeQwMAOgAAAAAQAEAAAAAAACAAgAAAAAAAAAA==

> <PUBCHEM_IUPAC_OPENEYE_NAME>
7-[4-[(5-phenyl-3-pyridyl)methyl]piperazin-1-yl]-3H-1,3-benzoxazol-2-one

> <PUBCHEM_IUPAC_CAS_NAME>
7-[4-[(5-phenyl-3-pyridinyl)methyl]-1-piperazinyl]-3H-1,3-benzoxazol-2-one

> <PUBCHEM_IUPAC_NAME_MARKUP>
7-[4-[(5-phenylpyridin-3-yl)methyl]piperazin-1-yl]-3<I>H</I>-1,3-benzoxazol-2-one

> <PUBCHEM_IUPAC_NAME>
7-[4-[(5-phenylpyridin-3-yl)methyl]piperazin-1-yl]-3H-1,3-benzoxazol-2-one

> <PUBCHEM_IUPAC_SYSTEMATIC_NAME>
7-[4-[(5-phenylpyridin-3-yl)methyl]piperazin-1-yl]-3H-1,3-benzoxazol-2-one

> <PUBCHEM_IUPAC_TRADITIONAL_NAME>
7-[4-[(5-phenyl-3-pyridyl)methyl]piperazino]-3H-1,3-benzoxazol-2-one

> <PUBCHEM_IUPAC_INCHI>
InChI=1S/C23H22N4O2/c28-23-25-20-7-4-8-21(22(20)29-23)27-11-9-26(10-12-27)16-17-13-19(15-24-14-17)18-5-2-1-3-6-18/h1-8,13-15H,9-12,16H2,(H,25,28)

> <PUBCHEM_IUPAC_INCHIKEY>
ZPYBYTJAEKTXBQ-UHFFFAOYSA-N

> <PUBCHEM_XLOGP3_AA>
3.1

> <PUBCHEM_EXACT_MASS>
386.17427596

> <PUBCHEM_MOLECULAR_FORMULA>
C23H22N4O2

> <PUBCHEM_MOLECULAR_WEIGHT>
386.4

> <PUBCHEM_OPENEYE_CAN_SMILES>
C1CN(CCN1CC2=CC(=CN=C2)C3=CC=CC=C3)C4=CC=CC5=C4OC(=O)N5

> <PUBCHEM_OPENEYE_ISO_SMILES>
C1CN(CCN1CC2=CC(=CN=C2)C3=CC=CC=C3)C4=CC=CC5=C4OC(=O)N5

> <PUBCHEM_CACTVS_TPSA>
57.7

> <PUBCHEM_MONOISOTOPIC_WEIGHT>
386.17427596

> <PUBCHEM_TOTAL_CHARGE>
0

> <PUBCHEM_HEAVY_ATOM_COUNT>
29

> <PUBCHEM_ATOM_DEF_STEREO_COUNT>
0

> <PUBCHEM_ATOM_UDEF_STEREO_COUNT>
0

> <PUBCHEM_BOND_DEF_STEREO_COUNT>
0

> <PUBCHEM_BOND_UDEF_STEREO_COUNT>
0

> <PUBCHEM_ISOTOPIC_ATOM_COUNT>
0

> <PUBCHEM_COMPONENT_COUNT>
1

> <PUBCHEM_CACTVS_TAUTO_COUNT>
-1

> <PUBCHEM_COORDINATE_TYPE>
1
5
255

> <PUBCHEM_BONDANNOTATIONS>
1  14  8
1  22  8
12  14  8
12  15  8
13  17  8
13  20  8
14  16  8
15  18  8
16  19  8
17  21  8
18  19  8
21  23  8
24  25  8
24  26  8
25  27  8
26  28  8
27  29  8
28  29  8
5  16  8
5  22  8
6  20  8
6  23  8

$$$$
