145986441
  -OEChem-09292322472D

 52 54  0     1  0  0  0  0  0999 V2000
   15.0506   -2.2771    0.0000 Br  0  0  0  0  0  0  0  0  0  0  0  0
    2.0000    1.2771    0.0000 O   0  0  0  0  0  0  0  0  0  0  0  0
    2.0000   -0.7229    0.0000 O   0  0  0  0  0  0  0  0  0  0  0  0
   11.5981    0.7362    0.0000 O   0  0  0  0  0  0  0  0  0  0  0  0
    6.3981   -0.2437    0.0000 N   0  0  3  0  0  0  0  0  0  0  0  0
   10.7263   -0.7604    0.0000 N   0  0  0  0  0  0  0  0  0  0  0  0
    6.3981    0.7979    0.0000 C   0  0  0  0  0  0  0  0  0  0  0  0
    5.4920   -0.7576    0.0000 C   0  0  0  0  0  0  0  0  0  0  0  0
    5.4920    1.3118    0.0000 C   0  0  0  0  0  0  0  0  0  0  0  0
    7.2622   -0.7471    0.0000 C   0  0  0  0  0  0  0  0  0  0  0  0
    4.5981   -0.2229    0.0000 C   0  0  0  0  0  0  0  0  0  0  0  0
    4.5981    0.7771    0.0000 C   0  0  0  0  0  0  0  0  0  0  0  0
    8.1301   -0.2504    0.0000 C   0  0  0  0  0  0  0  0  0  0  0  0
    8.9942   -0.7537    0.0000 C   0  0  0  0  0  0  0  0  0  0  0  0
    3.7320   -0.7229    0.0000 C   0  0  0  0  0  0  0  0  0  0  0  0
    3.7320    1.2771    0.0000 C   0  0  0  0  0  0  0  0  0  0  0  0
    9.8622   -0.2571    0.0000 C   0  0  0  0  0  0  0  0  0  0  0  0
    2.8660    0.7771    0.0000 C   0  0  0  0  0  0  0  0  0  0  0  0
    2.8660   -0.2229    0.0000 C   0  0  0  0  0  0  0  0  0  0  0  0
   11.5942   -0.2638    0.0000 C   0  0  0  0  0  0  0  0  0  0  0  0
    2.0000    2.2771    0.0000 C   0  0  0  0  0  0  0  0  0  0  0  0
   12.4583   -0.7671    0.0000 C   0  0  0  0  0  0  0  0  0  0  0  0
   12.4544   -1.7671    0.0000 C   0  0  0  0  0  0  0  0  0  0  0  0
   13.3262   -0.2704    0.0000 C   0  0  0  0  0  0  0  0  0  0  0  0
   13.3185   -2.2704    0.0000 C   0  0  0  0  0  0  0  0  0  0  0  0
   14.1903   -0.7738    0.0000 C   0  0  0  0  0  0  0  0  0  0  0  0
   14.1865   -1.7738    0.0000 C   0  0  0  0  0  0  0  0  0  0  0  0
    7.0089    0.6918    0.0000 H   0  0  0  0  0  0  0  0  0  0  0  0
    6.6071    1.3816    0.0000 H   0  0  0  0  0  0  0  0  0  0  0  0
    5.0874   -1.2274    0.0000 H   0  0  0  0  0  0  0  0  0  0  0  0
    5.8856   -1.2366    0.0000 H   0  0  0  0  0  0  0  0  0  0  0  0
    5.8856    1.7908    0.0000 H   0  0  0  0  0  0  0  0  0  0  0  0
    5.0874    1.7815    0.0000 H   0  0  0  0  0  0  0  0  0  0  0  0
    6.8618   -1.2205    0.0000 H   0  0  0  0  0  0  0  0  0  0  0  0
    7.6589   -1.2235    0.0000 H   0  0  0  0  0  0  0  0  0  0  0  0
    8.5305    0.2230    0.0000 H   0  0  0  0  0  0  0  0  0  0  0  0
    7.7334    0.2261    0.0000 H   0  0  0  0  0  0  0  0  0  0  0  0
    8.5939   -1.2271    0.0000 H   0  0  0  0  0  0  0  0  0  0  0  0
    9.3909   -1.2302    0.0000 H   0  0  0  0  0  0  0  0  0  0  0  0
    3.7320   -1.3429    0.0000 H   0  0  0  0  0  0  0  0  0  0  0  0
    3.7320    1.8971    0.0000 H   0  0  0  0  0  0  0  0  0  0  0  0
   10.2625    0.2163    0.0000 H   0  0  0  0  0  0  0  0  0  0  0  0
    9.4655    0.2194    0.0000 H   0  0  0  0  0  0  0  0  0  0  0  0
   10.7239   -1.3804    0.0000 H   0  0  0  0  0  0  0  0  0  0  0  0
    2.0000   -1.3429    0.0000 H   0  0  0  0  0  0  0  0  0  0  0  0
    2.6200    2.2771    0.0000 H   0  0  0  0  0  0  0  0  0  0  0  0
    2.0000    2.8971    0.0000 H   0  0  0  0  0  0  0  0  0  0  0  0
    1.3800    2.2771    0.0000 H   0  0  0  0  0  0  0  0  0  0  0  0
   11.9163   -2.0750    0.0000 H   0  0  0  0  0  0  0  0  0  0  0  0
   13.3286    0.3496    0.0000 H   0  0  0  0  0  0  0  0  0  0  0  0
   13.3161   -2.8904    0.0000 H   0  0  0  0  0  0  0  0  0  0  0  0
   14.7285   -0.4658    0.0000 H   0  0  0  0  0  0  0  0  0  0  0  0
  1 27  1  0  0  0  0
  2 18  1  0  0  0  0
  2 21  1  0  0  0  0
  3 19  1  0  0  0  0
  3 45  1  0  0  0  0
  4 20  2  0  0  0  0
  5  7  1  0  0  0  0
  5  8  1  0  0  0  0
  5 10  1  0  0  0  0
  6 17  1  0  0  0  0
  6 20  1  0  0  0  0
  6 44  1  0  0  0  0
  7  9  1  0  0  0  0
  7 28  1  0  0  0  0
  7 29  1  0  0  0  0
  8 11  1  0  0  0  0
  8 30  1  0  0  0  0
  8 31  1  0  0  0  0
  9 12  1  0  0  0  0
  9 32  1  0  0  0  0
  9 33  1  0  0  0  0
 10 13  1  0  0  0  0
 10 34  1  0  0  0  0
 10 35  1  0  0  0  0
 11 12  1  0  0  0  0
 11 15  2  0  0  0  0
 12 16  2  0  0  0  0
 13 14  1  0  0  0  0
 13 36  1  0  0  0  0
 13 37  1  0  0  0  0
 14 17  1  0  0  0  0
 14 38  1  0  0  0  0
 14 39  1  0  0  0  0
 15 19  1  0  0  0  0
 15 40  1  0  0  0  0
 16 18  1  0  0  0  0
 16 41  1  0  0  0  0
 17 42  1  0  0  0  0
 17 43  1  0  0  0  0
 18 19  2  0  0  0  0
 20 22  1  0  0  0  0
 21 46  1  0  0  0  0
 21 47  1  0  0  0  0
 21 48  1  0  0  0  0
 22 23  2  0  0  0  0
 22 24  1  0  0  0  0
 23 25  1  0  0  0  0
 23 49  1  0  0  0  0
 24 26  2  0  0  0  0
 24 50  1  0  0  0  0
 25 27  2  0  0  0  0
 25 51  1  0  0  0  0
 26 27  1  0  0  0  0
 26 52  1  0  0  0  0
M  END
> <PUBCHEM_COMPOUND_CID>
145986441

> <PUBCHEM_COMPOUND_CANONICALIZED>
1

> <PUBCHEM_CACTVS_COMPLEXITY>
470

> <PUBCHEM_CACTVS_HBOND_ACCEPTOR>
4

> <PUBCHEM_CACTVS_HBOND_DONOR>
2

> <PUBCHEM_CACTVS_ROTATABLE_BOND>
7

> <PUBCHEM_CACTVS_SUBSKEYS>
AAADceB7MAAAEAAAAAAAAAAAAAAAAAAAAAA8YIAAAAAAAACxQAAAHgBQCAABrATBmAYyBoPABgCIAiFSEACCCAAkIAQIiIEOjOgNJjKGtRuEcStk1hGLu5e42LKOogABAAAQQABEAAIAACCAAAAAAAAAAA==

> <PUBCHEM_IUPAC_OPENEYE_NAME>
4-bromo-N-[4-(7-hydroxy-6-methoxy-3,4-dihydro-1H-isoquinolin-2-yl)butyl]benzamide

> <PUBCHEM_IUPAC_CAS_NAME>
4-bromo-N-[4-(7-hydroxy-6-methoxy-3,4-dihydro-1H-isoquinolin-2-yl)butyl]benzamide

> <PUBCHEM_IUPAC_NAME_MARKUP>
4-bromo-<I>N</I>-[4-(7-hydroxy-6-methoxy-3,4-dihydro-1<I>H</I>-isoquinolin-2-yl)butyl]benzamide

> <PUBCHEM_IUPAC_NAME>
4-bromo-N-[4-(7-hydroxy-6-methoxy-3,4-dihydro-1H-isoquinolin-2-yl)butyl]benzamide

> <PUBCHEM_IUPAC_SYSTEMATIC_NAME>
4-bromanyl-N-[4-(6-methoxy-7-oxidanyl-3,4-dihydro-1H-isoquinolin-2-yl)butyl]benzamide

> <PUBCHEM_IUPAC_TRADITIONAL_NAME>
4-bromo-N-[4-(7-hydroxy-6-methoxy-3,4-dihydro-1H-isoquinolin-2-yl)butyl]benzamide

> <PUBCHEM_IUPAC_INCHI>
InChI=1S/C21H25BrN2O3/c1-27-20-13-16-8-11-24(14-17(16)12-19(20)25)10-3-2-9-23-21(26)15-4-6-18(22)7-5-15/h4-7,12-13,25H,2-3,8-11,14H2,1H3,(H,23,26)

> <PUBCHEM_IUPAC_INCHIKEY>
ZKVLCVQFJYHODC-UHFFFAOYSA-N

> <PUBCHEM_XLOGP3_AA>
3.8

> <PUBCHEM_EXACT_MASS>
432.10486

> <PUBCHEM_MOLECULAR_FORMULA>
C21H25BrN2O3

> <PUBCHEM_MOLECULAR_WEIGHT>
433.3

> <PUBCHEM_OPENEYE_CAN_SMILES>
COC1=C(C=C2CN(CCC2=C1)CCCCNC(=O)C3=CC=C(C=C3)Br)O

> <PUBCHEM_OPENEYE_ISO_SMILES>
COC1=C(C=C2CN(CCC2=C1)CCCCNC(=O)C3=CC=C(C=C3)Br)O

> <PUBCHEM_CACTVS_TPSA>
61.8

> <PUBCHEM_MONOISOTOPIC_WEIGHT>
432.10486

> <PUBCHEM_TOTAL_CHARGE>
0

> <PUBCHEM_HEAVY_ATOM_COUNT>
27

> <PUBCHEM_ATOM_DEF_STEREO_COUNT>
0

> <PUBCHEM_ATOM_UDEF_STEREO_COUNT>
0

> <PUBCHEM_BOND_DEF_STEREO_COUNT>
0

> <PUBCHEM_BOND_UDEF_STEREO_COUNT>
0

> <PUBCHEM_ISOTOPIC_ATOM_COUNT>
0

> <PUBCHEM_COMPONENT_COUNT>
1

> <PUBCHEM_CACTVS_TAUTO_COUNT>
-1

> <PUBCHEM_COORDINATE_TYPE>
1
5
255

> <PUBCHEM_BONDANNOTATIONS>
11  12  8
11  15  8
12  16  8
15  19  8
16  18  8
18  19  8
22  23  8
22  24  8
23  25  8
24  26  8
25  27  8
26  27  8

$$$$
