44408630
  -OEChem-09292322272D

 54 56  0     1  0  0  0  0  0999 V2000
    7.9128   -2.3512    0.0000 S   0  0  0  0  0  0  0  0  0  0  0  0
    3.4782    4.1433    0.0000 O   0  0  0  0  0  0  0  0  0  0  0  0
    7.4128   -3.2172    0.0000 O   0  0  0  0  0  0  0  0  0  0  0  0
    8.4128   -1.4852    0.0000 O   0  0  0  0  0  0  0  0  0  0  0  0
    5.3147    1.1488    0.0000 N   0  0  3  0  0  0  0  0  0  0  0  0
    2.0000    3.4852    0.0000 N   0  0  0  0  0  0  0  0  0  0  0  0
    7.0468   -1.8512    0.0000 C   0  0  0  0  0  0  0  0  0  0  0  0
    4.4487    2.6488    0.0000 C   0  0  3  0  0  0  0  0  0  0  0  0
    4.4487    1.6488    0.0000 C   0  0  0  0  0  0  0  0  0  0  0  0
    6.1808   -1.3512    0.0000 C   0  0  0  0  0  0  0  0  0  0  0  0
    5.3147    0.1488    0.0000 C   0  0  0  0  0  0  0  0  0  0  0  0
    5.3147    3.1488    0.0000 C   0  0  0  0  0  0  0  0  0  0  0  0
    6.1808    1.6488    0.0000 C   0  0  0  0  0  0  0  0  0  0  0  0
    6.1808   -0.3512    0.0000 C   0  0  0  0  0  0  0  0  0  0  0  0
    6.1808    2.6488    0.0000 C   0  0  0  0  0  0  0  0  0  0  0  0
    6.5468   -2.7172    0.0000 C   0  0  0  0  0  0  0  0  0  0  0  0
    7.5468   -0.9852    0.0000 C   0  0  0  0  0  0  0  0  0  0  0  0
    3.5827    3.1488    0.0000 C   0  0  0  0  0  0  0  0  0  0  0  0
    8.7788   -2.8512    0.0000 C   0  0  0  0  0  0  0  0  0  0  0  0
    2.6691    2.7420    0.0000 C   0  0  0  0  0  0  0  0  0  0  0  0
    9.6448   -2.3512    0.0000 C   0  0  0  0  0  0  0  0  0  0  0  0
    8.7788   -3.8512    0.0000 C   0  0  0  0  0  0  0  0  0  0  0  0
    2.5000    4.3512    0.0000 C   0  0  0  0  0  0  0  0  0  0  0  0
   10.5109   -2.8512    0.0000 C   0  0  0  0  0  0  0  0  0  0  0  0
    9.6448   -4.3512    0.0000 C   0  0  0  0  0  0  0  0  0  0  0  0
   10.5109   -3.8512    0.0000 C   0  0  0  0  0  0  0  0  0  0  0  0
    3.9118    2.3388    0.0000 H   0  0  0  0  0  0  0  0  0  0  0  0
    3.8381    1.7564    0.0000 H   0  0  0  0  0  0  0  0  0  0  0  0
    4.2366    1.0662    0.0000 H   0  0  0  0  0  0  0  0  0  0  0  0
    5.5702   -1.2436    0.0000 H   0  0  0  0  0  0  0  0  0  0  0  0
    5.9687   -1.9338    0.0000 H   0  0  0  0  0  0  0  0  0  0  0  0
    4.7042    0.2564    0.0000 H   0  0  0  0  0  0  0  0  0  0  0  0
    5.1027   -0.4338    0.0000 H   0  0  0  0  0  0  0  0  0  0  0  0
    5.7133    3.6237    0.0000 H   0  0  0  0  0  0  0  0  0  0  0  0
    4.9162    3.6237    0.0000 H   0  0  0  0  0  0  0  0  0  0  0  0
    6.3928    1.0662    0.0000 H   0  0  0  0  0  0  0  0  0  0  0  0
    6.7913    1.7564    0.0000 H   0  0  0  0  0  0  0  0  0  0  0  0
    6.7913   -0.4589    0.0000 H   0  0  0  0  0  0  0  0  0  0  0  0
    6.3928    0.2314    0.0000 H   0  0  0  0  0  0  0  0  0  0  0  0
    6.7913    2.5411    0.0000 H   0  0  0  0  0  0  0  0  0  0  0  0
    6.3928    3.2314    0.0000 H   0  0  0  0  0  0  0  0  0  0  0  0
    6.0098   -2.4072    0.0000 H   0  0  0  0  0  0  0  0  0  0  0  0
    6.2368   -3.2542    0.0000 H   0  0  0  0  0  0  0  0  0  0  0  0
    7.0837   -3.0272    0.0000 H   0  0  0  0  0  0  0  0  0  0  0  0
    8.0837   -1.2952    0.0000 H   0  0  0  0  0  0  0  0  0  0  0  0
    7.8568   -0.4483    0.0000 H   0  0  0  0  0  0  0  0  0  0  0  0
    7.0098   -0.6752    0.0000 H   0  0  0  0  0  0  0  0  0  0  0  0
    2.5402    2.1356    0.0000 H   0  0  0  0  0  0  0  0  0  0  0  0
    9.6448   -1.7312    0.0000 H   0  0  0  0  0  0  0  0  0  0  0  0
    8.2419   -4.1612    0.0000 H   0  0  0  0  0  0  0  0  0  0  0  0
    2.2478    4.9176    0.0000 H   0  0  0  0  0  0  0  0  0  0  0  0
   11.0478   -2.5412    0.0000 H   0  0  0  0  0  0  0  0  0  0  0  0
    9.6448   -4.9712    0.0000 H   0  0  0  0  0  0  0  0  0  0  0  0
   11.0478   -4.1612    0.0000 H   0  0  0  0  0  0  0  0  0  0  0  0
  1  3  2  0  0  0  0
  1  4  2  0  0  0  0
  1  7  1  0  0  0  0
  1 19  1  0  0  0  0
  2 18  1  0  0  0  0
  2 23  1  0  0  0  0
  5  9  1  0  0  0  0
  5 11  1  0  0  0  0
  5 13  1  0  0  0  0
  6 20  1  0  0  0  0
  6 23  2  0  0  0  0
  7 10  1  0  0  0  0
  7 16  1  0  0  0  0
  7 17  1  0  0  0  0
  8  9  1  0  0  0  0
  8 12  1  0  0  0  0
  8 18  1  0  0  0  0
  8 27  1  0  0  0  0
  9 28  1  0  0  0  0
  9 29  1  0  0  0  0
 10 14  1  0  0  0  0
 10 30  1  0  0  0  0
 10 31  1  0  0  0  0
 11 14  1  0  0  0  0
 11 32  1  0  0  0  0
 11 33  1  0  0  0  0
 12 15  1  0  0  0  0
 12 34  1  0  0  0  0
 12 35  1  0  0  0  0
 13 15  1  0  0  0  0
 13 36  1  0  0  0  0
 13 37  1  0  0  0  0
 14 38  1  0  0  0  0
 14 39  1  0  0  0  0
 15 40  1  0  0  0  0
 15 41  1  0  0  0  0
 16 42  1  0  0  0  0
 16 43  1  0  0  0  0
 16 44  1  0  0  0  0
 17 45  1  0  0  0  0
 17 46  1  0  0  0  0
 17 47  1  0  0  0  0
 18 20  2  0  0  0  0
 19 21  2  0  0  0  0
 19 22  1  0  0  0  0
 20 48  1  0  0  0  0
 21 24  1  0  0  0  0
 21 49  1  0  0  0  0
 22 25  2  0  0  0  0
 22 50  1  0  0  0  0
 23 51  1  0  0  0  0
 24 26  2  0  0  0  0
 24 52  1  0  0  0  0
 25 26  1  0  0  0  0
 25 53  1  0  0  0  0
 26 54  1  0  0  0  0
M  END
> <PUBCHEM_COMPOUND_CID>
44408630

> <PUBCHEM_COMPOUND_CANONICALIZED>
1

> <PUBCHEM_CACTVS_COMPLEXITY>
538

> <PUBCHEM_CACTVS_HBOND_ACCEPTOR>
5

> <PUBCHEM_CACTVS_HBOND_DONOR>
0

> <PUBCHEM_CACTVS_ROTATABLE_BOND>
7

> <PUBCHEM_CACTVS_SUBSKEYS>
AAADceB7MABAAAAAAAAAAAAAAAAAAWAAAAA8QAAAAAAAAAABwAAAHgQAAAAADQTB0gY+hZMIFEqoALB31HRCiCA7SDAI2BmrQIgOIDrgkTGNIAAmhgD4yAeYEQIOAAAAAAAAAAAAAAAAAAAAAAAAAAAAAA==

> <PUBCHEM_IUPAC_OPENEYE_NAME>
5-[1-[4-(benzenesulfonyl)-4-methyl-pentyl]-3-piperidyl]oxazole

> <PUBCHEM_IUPAC_CAS_NAME>
5-[1-[4-(benzenesulfonyl)-4-methylpentyl]-3-piperidinyl]oxazole

> <PUBCHEM_IUPAC_NAME_MARKUP>
5-[1-[4-(benzenesulfonyl)-4-methylpentyl]piperidin-3-yl]-1,3-oxazole

> <PUBCHEM_IUPAC_NAME>
5-[1-[4-(benzenesulfonyl)-4-methylpentyl]piperidin-3-yl]-1,3-oxazole

> <PUBCHEM_IUPAC_SYSTEMATIC_NAME>
5-[1-[4-methyl-4-(phenylsulfonyl)pentyl]piperidin-3-yl]-1,3-oxazole

> <PUBCHEM_IUPAC_TRADITIONAL_NAME>
5-[1-(4-besyl-4-methyl-pentyl)-3-piperidyl]oxazole

> <PUBCHEM_IUPAC_INCHI>
InChI=1S/C20H28N2O3S/c1-20(2,26(23,24)18-9-4-3-5-10-18)11-7-13-22-12-6-8-17(15-22)19-14-21-16-25-19/h3-5,9-10,14,16-17H,6-8,11-13,15H2,1-2H3

> <PUBCHEM_IUPAC_INCHIKEY>
VZHJJBFDOPZNIN-UHFFFAOYSA-N

> <PUBCHEM_XLOGP3_AA>
3.2

> <PUBCHEM_EXACT_MASS>
376.18206393

> <PUBCHEM_MOLECULAR_FORMULA>
C20H28N2O3S

> <PUBCHEM_MOLECULAR_WEIGHT>
376.5

> <PUBCHEM_OPENEYE_CAN_SMILES>
CC(C)(CCCN1CCCC(C1)C2=CN=CO2)S(=O)(=O)C3=CC=CC=C3

> <PUBCHEM_OPENEYE_ISO_SMILES>
CC(C)(CCCN1CCCC(C1)C2=CN=CO2)S(=O)(=O)C3=CC=CC=C3

> <PUBCHEM_CACTVS_TPSA>
71.8

> <PUBCHEM_MONOISOTOPIC_WEIGHT>
376.18206393

> <PUBCHEM_TOTAL_CHARGE>
0

> <PUBCHEM_HEAVY_ATOM_COUNT>
26

> <PUBCHEM_ATOM_DEF_STEREO_COUNT>
0

> <PUBCHEM_ATOM_UDEF_STEREO_COUNT>
1

> <PUBCHEM_BOND_DEF_STEREO_COUNT>
0

> <PUBCHEM_BOND_UDEF_STEREO_COUNT>
0

> <PUBCHEM_ISOTOPIC_ATOM_COUNT>
0

> <PUBCHEM_COMPONENT_COUNT>
1

> <PUBCHEM_CACTVS_TAUTO_COUNT>
-1

> <PUBCHEM_COORDINATE_TYPE>
1
5
255

> <PUBCHEM_BONDANNOTATIONS>
18  20  8
19  21  8
19  22  8
2  18  8
2  23  8
21  24  8
22  25  8
24  26  8
25  26  8
6  20  8
6  23  8
8  18  3

$$$$
