10688036
  -OEChem-09292322142D

 49 52  0     0  0  0  0  0  0999 V2000
    3.7320   -1.2852    0.0000 N   0  0  0  0  0  0  0  0  0  0  0  0
    2.9230    2.3026    0.0000 N   0  0  0  0  0  0  0  0  0  0  0  0
    3.2320    3.2536    0.0000 N   0  0  0  0  0  0  0  0  0  0  0  0
    5.0009    5.7852    0.0000 N   0  0  0  0  0  0  0  0  0  0  0  0
    3.7320    0.7148    0.0000 C   0  0  0  0  0  0  0  0  0  0  0  0
    2.8660    0.2148    0.0000 C   0  0  0  0  0  0  0  0  0  0  0  0
    4.5981    0.2148    0.0000 C   0  0  0  0  0  0  0  0  0  0  0  0
    2.8660   -0.7852    0.0000 C   0  0  0  0  0  0  0  0  0  0  0  0
    4.5981   -0.7852    0.0000 C   0  0  0  0  0  0  0  0  0  0  0  0
    3.7320    1.7148    0.0000 C   0  0  0  0  0  0  0  0  0  0  0  0
    3.7320   -2.2852    0.0000 C   0  0  0  0  0  0  0  0  0  0  0  0
    2.8660   -2.7852    0.0000 C   0  0  0  0  0  0  0  0  0  0  0  0
    4.5411    2.3026    0.0000 C   0  0  0  0  0  0  0  0  0  0  0  0
    4.2320    3.2536    0.0000 C   0  0  0  0  0  0  0  0  0  0  0  0
    2.8660   -3.7852    0.0000 C   0  0  0  0  0  0  0  0  0  0  0  0
    4.8198    4.0626    0.0000 C   0  0  0  0  0  0  0  0  0  0  0  0
    2.0000   -4.2852    0.0000 C   0  0  0  0  0  0  0  0  0  0  0  0
    3.7320   -4.2852    0.0000 C   0  0  0  0  0  0  0  0  0  0  0  0
    2.0000   -5.2852    0.0000 C   0  0  0  0  0  0  0  0  0  0  0  0
    3.7320   -5.2852    0.0000 C   0  0  0  0  0  0  0  0  0  0  0  0
    5.8144    3.9581    0.0000 C   0  0  0  0  0  0  0  0  0  0  0  0
    4.4131    4.9762    0.0000 C   0  0  0  0  0  0  0  0  0  0  0  0
    2.8660   -5.7852    0.0000 C   0  0  0  0  0  0  0  0  0  0  0  0
    6.4021    4.7671    0.0000 C   0  0  0  0  0  0  0  0  0  0  0  0
    5.9954    5.6807    0.0000 C   0  0  0  0  0  0  0  0  0  0  0  0
    4.2690    1.0248    0.0000 H   0  0  0  0  0  0  0  0  0  0  0  0
    2.6540    0.7974    0.0000 H   0  0  0  0  0  0  0  0  0  0  0  0
    2.2554    0.1071    0.0000 H   0  0  0  0  0  0  0  0  0  0  0  0
    5.2087    0.1071    0.0000 H   0  0  0  0  0  0  0  0  0  0  0  0
    4.8101    0.7974    0.0000 H   0  0  0  0  0  0  0  0  0  0  0  0
    2.2554   -0.6775    0.0000 H   0  0  0  0  0  0  0  0  0  0  0  0
    2.6540   -1.3678    0.0000 H   0  0  0  0  0  0  0  0  0  0  0  0
    4.8101   -1.3678    0.0000 H   0  0  0  0  0  0  0  0  0  0  0  0
    5.2087   -0.6775    0.0000 H   0  0  0  0  0  0  0  0  0  0  0  0
    3.9441   -2.8678    0.0000 H   0  0  0  0  0  0  0  0  0  0  0  0
    4.3426   -2.1776    0.0000 H   0  0  0  0  0  0  0  0  0  0  0  0
    2.6540   -2.2026    0.0000 H   0  0  0  0  0  0  0  0  0  0  0  0
    2.2554   -2.8929    0.0000 H   0  0  0  0  0  0  0  0  0  0  0  0
    5.1307    2.1110    0.0000 H   0  0  0  0  0  0  0  0  0  0  0  0
    2.3334    2.1110    0.0000 H   0  0  0  0  0  0  0  0  0  0  0  0
    1.4631   -3.9752    0.0000 H   0  0  0  0  0  0  0  0  0  0  0  0
    4.2690   -3.9752    0.0000 H   0  0  0  0  0  0  0  0  0  0  0  0
    1.4631   -5.5952    0.0000 H   0  0  0  0  0  0  0  0  0  0  0  0
    4.2690   -5.5952    0.0000 H   0  0  0  0  0  0  0  0  0  0  0  0
    6.0665    3.3917    0.0000 H   0  0  0  0  0  0  0  0  0  0  0  0
    3.7965    5.0410    0.0000 H   0  0  0  0  0  0  0  0  0  0  0  0
    2.8660   -6.4052    0.0000 H   0  0  0  0  0  0  0  0  0  0  0  0
    7.0188    4.7023    0.0000 H   0  0  0  0  0  0  0  0  0  0  0  0
    6.3598    6.1823    0.0000 H   0  0  0  0  0  0  0  0  0  0  0  0
  1  8  1  0  0  0  0
  1  9  1  0  0  0  0
  1 11  1  0  0  0  0
  2  3  1  0  0  0  0
  2 10  1  0  0  0  0
  2 40  1  0  0  0  0
  3 14  2  0  0  0  0
  4 22  1  0  0  0  0
  4 25  2  0  0  0  0
  5  6  1  0  0  0  0
  5  7  1  0  0  0  0
  5 10  1  0  0  0  0
  5 26  1  0  0  0  0
  6  8  1  0  0  0  0
  6 27  1  0  0  0  0
  6 28  1  0  0  0  0
  7  9  1  0  0  0  0
  7 29  1  0  0  0  0
  7 30  1  0  0  0  0
  8 31  1  0  0  0  0
  8 32  1  0  0  0  0
  9 33  1  0  0  0  0
  9 34  1  0  0  0  0
 10 13  2  0  0  0  0
 11 12  1  0  0  0  0
 11 35  1  0  0  0  0
 11 36  1  0  0  0  0
 12 15  1  0  0  0  0
 12 37  1  0  0  0  0
 12 38  1  0  0  0  0
 13 14  1  0  0  0  0
 13 39  1  0  0  0  0
 14 16  1  0  0  0  0
 15 17  2  0  0  0  0
 15 18  1  0  0  0  0
 16 21  1  0  0  0  0
 16 22  2  0  0  0  0
 17 19  1  0  0  0  0
 17 41  1  0  0  0  0
 18 20  2  0  0  0  0
 18 42  1  0  0  0  0
 19 23  2  0  0  0  0
 19 43  1  0  0  0  0
 20 23  1  0  0  0  0
 20 44  1  0  0  0  0
 21 24  2  0  0  0  0
 21 45  1  0  0  0  0
 22 46  1  0  0  0  0
 23 47  1  0  0  0  0
 24 25  1  0  0  0  0
 24 48  1  0  0  0  0
 25 49  1  0  0  0  0
M  END
> <PUBCHEM_COMPOUND_CID>
10688036

> <PUBCHEM_COMPOUND_CANONICALIZED>
1

> <PUBCHEM_CACTVS_COMPLEXITY>
387

> <PUBCHEM_CACTVS_HBOND_ACCEPTOR>
3

> <PUBCHEM_CACTVS_HBOND_DONOR>
1

> <PUBCHEM_CACTVS_ROTATABLE_BOND>
5

> <PUBCHEM_CACTVS_SUBSKEYS>
AAADceB7gAAAAAAAAAAAAAAAAAAAAWAAAAA8WIAAAAAAAAAB8AAAHAAYAAAADQjBHgQ8gJNrEACiAzRnRACShCAxAiAY+SA4ZJgIIOLA0dGEpAhgmADIyAcQgMAOAAAAAAAAAAAAAAAAAAAAAAAAAAAAAA==

> <PUBCHEM_IUPAC_OPENEYE_NAME>
3-[5-[1-(2-phenylethyl)-4-piperidyl]-1H-pyrazol-3-yl]pyridine

> <PUBCHEM_IUPAC_CAS_NAME>
3-[5-[1-(2-phenylethyl)-4-piperidinyl]-1H-pyrazol-3-yl]pyridine

> <PUBCHEM_IUPAC_NAME_MARKUP>
3-[5-[1-(2-phenylethyl)piperidin-4-yl]-1<I>H</I>-pyrazol-3-yl]pyridine

> <PUBCHEM_IUPAC_NAME>
3-[5-[1-(2-phenylethyl)piperidin-4-yl]-1H-pyrazol-3-yl]pyridine

> <PUBCHEM_IUPAC_SYSTEMATIC_NAME>
3-[5-[1-(2-phenylethyl)piperidin-4-yl]-1H-pyrazol-3-yl]pyridine

> <PUBCHEM_IUPAC_TRADITIONAL_NAME>
3-[5-(1-phenethyl-4-piperidyl)-1H-pyrazol-3-yl]pyridine

> <PUBCHEM_IUPAC_INCHI>
InChI=1S/C21H24N4/c1-2-5-17(6-3-1)8-12-25-13-9-18(10-14-25)20-15-21(24-23-20)19-7-4-11-22-16-19/h1-7,11,15-16,18H,8-10,12-14H2,(H,23,24)

> <PUBCHEM_IUPAC_INCHIKEY>
XTZZQQZBOKCCIX-UHFFFAOYSA-N

> <PUBCHEM_XLOGP3_AA>
3.4

> <PUBCHEM_EXACT_MASS>
332.20009678

> <PUBCHEM_MOLECULAR_FORMULA>
C21H24N4

> <PUBCHEM_MOLECULAR_WEIGHT>
332.4

> <PUBCHEM_OPENEYE_CAN_SMILES>
C1CN(CCC1C2=CC(=NN2)C3=CN=CC=C3)CCC4=CC=CC=C4

> <PUBCHEM_OPENEYE_ISO_SMILES>
C1CN(CCC1C2=CC(=NN2)C3=CN=CC=C3)CCC4=CC=CC=C4

> <PUBCHEM_CACTVS_TPSA>
44.8

> <PUBCHEM_MONOISOTOPIC_WEIGHT>
332.20009678

> <PUBCHEM_TOTAL_CHARGE>
0

> <PUBCHEM_HEAVY_ATOM_COUNT>
25

> <PUBCHEM_ATOM_DEF_STEREO_COUNT>
0

> <PUBCHEM_ATOM_UDEF_STEREO_COUNT>
0

> <PUBCHEM_BOND_DEF_STEREO_COUNT>
0

> <PUBCHEM_BOND_UDEF_STEREO_COUNT>
0

> <PUBCHEM_ISOTOPIC_ATOM_COUNT>
0

> <PUBCHEM_COMPONENT_COUNT>
1

> <PUBCHEM_CACTVS_TAUTO_COUNT>
-1

> <PUBCHEM_COORDINATE_TYPE>
1
5
255

> <PUBCHEM_BONDANNOTATIONS>
10  13  8
13  14  8
15  17  8
15  18  8
16  21  8
16  22  8
17  19  8
18  20  8
19  23  8
2  10  8
2  3  8
20  23  8
21  24  8
24  25  8
3  14  8
4  22  8
4  25  8

$$$$
