117870490
  -OEChem-09292322352D

 68 71  0     0  0  0  0  0  0999 V2000
    6.7619    2.9641    0.0000 O   0  0  0  0  0  0  0  0  0  0  0  0
   10.7619   -0.5000    0.0000 N   0  0  0  0  0  0  0  0  0  0  0  0
   12.7619   -0.5000    0.0000 N   0  0  0  0  0  0  0  0  0  0  0  0
   14.2619   -1.3660    0.0000 N   0  0  0  0  0  0  0  0  0  0  0  0
   15.7619   -0.5000    0.0000 N   0  0  0  0  0  0  0  0  0  0  0  0
    6.7619    1.2320    0.0000 N   0  0  0  0  0  0  0  0  0  0  0  0
    3.7320    2.5981    0.0000 N   0  0  0  0  0  0  0  0  0  0  0  0
    4.6783    1.2933    0.0000 N   0  0  0  0  0  0  0  0  0  0  0  0
   11.2619   -1.3660    0.0000 C   0  0  0  0  0  0  0  0  0  0  0  0
   11.2619    0.3660    0.0000 C   0  0  0  0  0  0  0  0  0  0  0  0
   12.2619   -1.3660    0.0000 C   0  0  0  0  0  0  0  0  0  0  0  0
   12.2619    0.3660    0.0000 C   0  0  0  0  0  0  0  0  0  0  0  0
    9.7619   -0.5000    0.0000 C   0  0  0  0  0  0  0  0  0  0  0  0
    9.2619    0.3660    0.0000 C   0  0  0  0  0  0  0  0  0  0  0  0
   13.7619   -0.5000    0.0000 C   0  0  0  0  0  0  0  0  0  0  0  0
    8.2619    0.3660    0.0000 C   0  0  0  0  0  0  0  0  0  0  0  0
   15.7619   -2.2320    0.0000 C   0  0  0  0  0  0  0  0  0  0  0  0
   15.2619   -1.3660    0.0000 C   0  0  0  0  0  0  0  0  0  0  0  0
   14.2619    0.3660    0.0000 C   0  0  0  0  0  0  0  0  0  0  0  0
    7.7619    1.2320    0.0000 C   0  0  0  0  0  0  0  0  0  0  0  0
   15.2619    0.3660    0.0000 C   0  0  0  0  0  0  0  0  0  0  0  0
   16.2619   -3.0981    0.0000 C   0  0  0  0  0  0  0  0  0  0  0  0
   16.6279   -1.7320    0.0000 C   0  0  0  0  0  0  0  0  0  0  0  0
   14.8959   -2.7320    0.0000 C   0  0  0  0  0  0  0  0  0  0  0  0
   15.7619    1.2320    0.0000 C   0  0  0  0  0  0  0  0  0  0  0  0
    6.2619    2.0981    0.0000 C   0  0  0  0  0  0  0  0  0  0  0  0
    5.2619    2.0981    0.0000 C   0  0  0  0  0  0  0  0  0  0  0  0
    4.6783    2.9028    0.0000 C   0  0  0  0  0  0  0  0  0  0  0  0
    3.7320    1.5981    0.0000 C   0  0  0  0  0  0  0  0  0  0  0  0
    2.8660    3.0981    0.0000 C   0  0  0  0  0  0  0  0  0  0  0  0
    2.8660    1.0981    0.0000 C   0  0  0  0  0  0  0  0  0  0  0  0
    2.0000    2.5981    0.0000 C   0  0  0  0  0  0  0  0  0  0  0  0
    2.0000    1.5981    0.0000 C   0  0  0  0  0  0  0  0  0  0  0  0
   10.6793   -1.5781    0.0000 H   0  0  0  0  0  0  0  0  0  0  0  0
   11.3695   -1.9766    0.0000 H   0  0  0  0  0  0  0  0  0  0  0  0
   11.3695    0.9766    0.0000 H   0  0  0  0  0  0  0  0  0  0  0  0
   10.6793    0.5781    0.0000 H   0  0  0  0  0  0  0  0  0  0  0  0
   12.1542   -1.9766    0.0000 H   0  0  0  0  0  0  0  0  0  0  0  0
   12.8445   -1.5781    0.0000 H   0  0  0  0  0  0  0  0  0  0  0  0
   12.8445    0.5781    0.0000 H   0  0  0  0  0  0  0  0  0  0  0  0
   12.1542    0.9766    0.0000 H   0  0  0  0  0  0  0  0  0  0  0  0
    9.1793   -0.7121    0.0000 H   0  0  0  0  0  0  0  0  0  0  0  0
    9.8695   -1.1106    0.0000 H   0  0  0  0  0  0  0  0  0  0  0  0
    9.8445    0.5781    0.0000 H   0  0  0  0  0  0  0  0  0  0  0  0
    9.1542    0.9766    0.0000 H   0  0  0  0  0  0  0  0  0  0  0  0
    7.6793    0.1540    0.0000 H   0  0  0  0  0  0  0  0  0  0  0  0
    8.3695   -0.2446    0.0000 H   0  0  0  0  0  0  0  0  0  0  0  0
   13.9519    0.9030    0.0000 H   0  0  0  0  0  0  0  0  0  0  0  0
    8.3445    1.4441    0.0000 H   0  0  0  0  0  0  0  0  0  0  0  0
    7.6542    1.8426    0.0000 H   0  0  0  0  0  0  0  0  0  0  0  0
   15.7249   -3.4081    0.0000 H   0  0  0  0  0  0  0  0  0  0  0  0
   16.5719   -3.6350    0.0000 H   0  0  0  0  0  0  0  0  0  0  0  0
   16.7988   -2.7881    0.0000 H   0  0  0  0  0  0  0  0  0  0  0  0
   16.9379   -2.2690    0.0000 H   0  0  0  0  0  0  0  0  0  0  0  0
   17.1648   -1.4220    0.0000 H   0  0  0  0  0  0  0  0  0  0  0  0
   16.3179   -1.1951    0.0000 H   0  0  0  0  0  0  0  0  0  0  0  0
   14.5859   -2.1951    0.0000 H   0  0  0  0  0  0  0  0  0  0  0  0
   14.3589   -3.0420    0.0000 H   0  0  0  0  0  0  0  0  0  0  0  0
   15.2059   -3.2690    0.0000 H   0  0  0  0  0  0  0  0  0  0  0  0
    6.4519    0.6951    0.0000 H   0  0  0  0  0  0  0  0  0  0  0  0
   16.2988    0.9221    0.0000 H   0  0  0  0  0  0  0  0  0  0  0  0
   16.0719    1.7690    0.0000 H   0  0  0  0  0  0  0  0  0  0  0  0
   15.2249    1.5420    0.0000 H   0  0  0  0  0  0  0  0  0  0  0  0
    4.8709    3.4921    0.0000 H   0  0  0  0  0  0  0  0  0  0  0  0
    2.8660    3.7181    0.0000 H   0  0  0  0  0  0  0  0  0  0  0  0
    2.8660    0.4781    0.0000 H   0  0  0  0  0  0  0  0  0  0  0  0
    1.4631    2.9081    0.0000 H   0  0  0  0  0  0  0  0  0  0  0  0
    1.4631    1.2881    0.0000 H   0  0  0  0  0  0  0  0  0  0  0  0
  1 26  2  0  0  0  0
  2  9  1  0  0  0  0
  2 10  1  0  0  0  0
  2 13  1  0  0  0  0
  3 11  1  0  0  0  0
  3 12  1  0  0  0  0
  3 15  1  0  0  0  0
  4 15  2  0  0  0  0
  4 18  1  0  0  0  0
  5 18  2  0  0  0  0
  5 21  1  0  0  0  0
  6 20  1  0  0  0  0
  6 26  1  0  0  0  0
  6 60  1  0  0  0  0
  7 28  1  0  0  0  0
  7 29  1  0  0  0  0
  7 30  1  0  0  0  0
  8 27  1  0  0  0  0
  8 29  2  0  0  0  0
  9 11  1  0  0  0  0
  9 34  1  0  0  0  0
  9 35  1  0  0  0  0
 10 12  1  0  0  0  0
 10 36  1  0  0  0  0
 10 37  1  0  0  0  0
 11 38  1  0  0  0  0
 11 39  1  0  0  0  0
 12 40  1  0  0  0  0
 12 41  1  0  0  0  0
 13 14  1  0  0  0  0
 13 42  1  0  0  0  0
 13 43  1  0  0  0  0
 14 16  1  0  0  0  0
 14 44  1  0  0  0  0
 14 45  1  0  0  0  0
 15 19  1  0  0  0  0
 16 20  1  0  0  0  0
 16 46  1  0  0  0  0
 16 47  1  0  0  0  0
 17 18  1  0  0  0  0
 17 22  1  0  0  0  0
 17 23  1  0  0  0  0
 17 24  1  0  0  0  0
 19 21  2  0  0  0  0
 19 48  1  0  0  0  0
 20 49  1  0  0  0  0
 20 50  1  0  0  0  0
 21 25  1  0  0  0  0
 22 51  1  0  0  0  0
 22 52  1  0  0  0  0
 22 53  1  0  0  0  0
 23 54  1  0  0  0  0
 23 55  1  0  0  0  0
 23 56  1  0  0  0  0
 24 57  1  0  0  0  0
 24 58  1  0  0  0  0
 24 59  1  0  0  0  0
 25 61  1  0  0  0  0
 25 62  1  0  0  0  0
 25 63  1  0  0  0  0
 26 27  1  0  0  0  0
 27 28  2  0  0  0  0
 28 64  1  0  0  0  0
 29 31  1  0  0  0  0
 30 32  2  0  0  0  0
 30 65  1  0  0  0  0
 31 33  2  0  0  0  0
 31 66  1  0  0  0  0
 32 33  1  0  0  0  0
 32 67  1  0  0  0  0
 33 68  1  0  0  0  0
M  END
> <PUBCHEM_COMPOUND_CID>
117870490

> <PUBCHEM_COMPOUND_CANONICALIZED>
1

> <PUBCHEM_CACTVS_COMPLEXITY>
631

> <PUBCHEM_CACTVS_HBOND_ACCEPTOR>
6

> <PUBCHEM_CACTVS_HBOND_DONOR>
1

> <PUBCHEM_CACTVS_ROTATABLE_BOND>
8

> <PUBCHEM_CACTVS_SUBSKEYS>
AAADcfB7oAAAAAAAAAAAAAAAAAAAAWAAAAAsWLAAAAAAAFgB+AAAHgAQAAAADgjBlwQ/sJ/MGACoATd3dACCgC03EqAJ2KG4dNiIaOrA2fGUJIholgLIyOYQAAAAAAAAAAAAAAAAAAAAAAAAAAAAAAAAAA==

> <PUBCHEM_IUPAC_OPENEYE_NAME>
N-[4-[4-(2-tert-butyl-6-methyl-pyrimidin-4-yl)piperazin-1-yl]butyl]imidazo[1,2-a]pyridine-2-carboxamide

> <PUBCHEM_IUPAC_CAS_NAME>
N-[4-[4-(2-tert-butyl-6-methyl-4-pyrimidinyl)-1-piperazinyl]butyl]-2-imidazo[1,2-a]pyridinecarboxamide

> <PUBCHEM_IUPAC_NAME_MARKUP>
<I>N</I>-[4-[4-(2-<I>tert</I>-butyl-6-methylpyrimidin-4-yl)piperazin-1-yl]butyl]imidazo[1,2-a]pyridine-2-carboxamide

> <PUBCHEM_IUPAC_NAME>
N-[4-[4-(2-tert-butyl-6-methylpyrimidin-4-yl)piperazin-1-yl]butyl]imidazo[1,2-a]pyridine-2-carboxamide

> <PUBCHEM_IUPAC_SYSTEMATIC_NAME>
N-[4-[4-(2-tert-butyl-6-methyl-pyrimidin-4-yl)piperazin-1-yl]butyl]imidazo[1,2-a]pyridine-2-carboxamide

> <PUBCHEM_IUPAC_TRADITIONAL_NAME>
N-[4-[4-(2-tert-butyl-6-methyl-pyrimidin-4-yl)piperazino]butyl]imidazo[1,2-a]pyridine-2-carboxamide

> <PUBCHEM_IUPAC_INCHI>
InChI=1S/C25H35N7O/c1-19-17-22(29-24(27-19)25(2,3)4)31-15-13-30(14-16-31)11-8-6-10-26-23(33)20-18-32-12-7-5-9-21(32)28-20/h5,7,9,12,17-18H,6,8,10-11,13-16H2,1-4H3,(H,26,33)

> <PUBCHEM_IUPAC_INCHIKEY>
HWNDEDIZZJRHGF-UHFFFAOYSA-N

> <PUBCHEM_XLOGP3_AA>
4.4

> <PUBCHEM_EXACT_MASS>
449.29030877

> <PUBCHEM_MOLECULAR_FORMULA>
C25H35N7O

> <PUBCHEM_MOLECULAR_WEIGHT>
449.6

> <PUBCHEM_OPENEYE_CAN_SMILES>
CC1=CC(=NC(=N1)C(C)(C)C)N2CCN(CC2)CCCCNC(=O)C3=CN4C=CC=CC4=N3

> <PUBCHEM_OPENEYE_ISO_SMILES>
CC1=CC(=NC(=N1)C(C)(C)C)N2CCN(CC2)CCCCNC(=O)C3=CN4C=CC=CC4=N3

> <PUBCHEM_CACTVS_TPSA>
78.7

> <PUBCHEM_MONOISOTOPIC_WEIGHT>
449.29030877

> <PUBCHEM_TOTAL_CHARGE>
0

> <PUBCHEM_HEAVY_ATOM_COUNT>
33

> <PUBCHEM_ATOM_DEF_STEREO_COUNT>
0

> <PUBCHEM_ATOM_UDEF_STEREO_COUNT>
0

> <PUBCHEM_BOND_DEF_STEREO_COUNT>
0

> <PUBCHEM_BOND_UDEF_STEREO_COUNT>
0

> <PUBCHEM_ISOTOPIC_ATOM_COUNT>
0

> <PUBCHEM_COMPONENT_COUNT>
1

> <PUBCHEM_CACTVS_TAUTO_COUNT>
-1

> <PUBCHEM_COORDINATE_TYPE>
1
5
255

> <PUBCHEM_BONDANNOTATIONS>
15  19  8
19  21  8
27  28  8
29  31  8
30  32  8
31  33  8
32  33  8
4  15  8
4  18  8
5  18  8
5  21  8
7  28  8
7  29  8
7  30  8
8  27  8
8  29  8

$$$$
