49799688
  -OEChem-09292322302D

 57 59  0     0  0  0  0  0  0999 V2000
    9.4386    6.6653    0.0000 I   0  0  0  0  0  0  0  0  0  0  0  0
    7.4119    3.6832    0.0000 O   0  0  0  0  0  0  0  0  0  0  0  0
    1.4030    3.6200    0.0000 O   0  0  0  0  0  0  0  0  0  0  0  0
    6.0440    9.9134    0.0000 O   0  0  0  0  0  0  0  0  0  0  0  0
    3.4459   10.4134    0.0000 O   0  0  0  0  0  0  0  0  0  0  0  0
    5.1779   11.4134    0.0000 O   0  0  0  0  0  0  0  0  0  0  0  0
    4.3119    8.9134    0.0000 O   0  0  0  0  0  0  0  0  0  0  0  0
    4.5044    3.5815    0.0000 N   0  0  0  0  0  0  0  0  0  0  0  0
    3.2152    0.8153    0.0000 N   0  0  0  0  0  0  0  0  0  0  0  0
    6.4614    3.9939    0.0000 C   0  0  0  0  0  0  0  0  0  0  0  0
    5.7935    4.7382    0.0000 C   0  0  0  0  0  0  0  0  0  0  0  0
    6.1507    3.0434    0.0000 C   0  0  0  0  0  0  0  0  0  0  0  0
    4.8150    4.5320    0.0000 C   0  0  0  0  0  0  0  0  0  0  0  0
    5.1722    2.8372    0.0000 C   0  0  0  0  0  0  0  0  0  0  0  0
    3.5259    3.3752    0.0000 C   0  0  0  0  0  0  0  0  0  0  0  0
    7.2057    4.6617    0.0000 C   0  0  0  0  0  0  0  0  0  0  0  0
    3.2152    2.4247    0.0000 C   0  0  0  0  0  0  0  0  0  0  0  0
    6.9995    5.6403    0.0000 C   0  0  0  0  0  0  0  0  0  0  0  0
    8.1562    4.3511    0.0000 C   0  0  0  0  0  0  0  0  0  0  0  0
    2.2690    2.1200    0.0000 C   0  0  0  0  0  0  0  0  0  0  0  0
    3.7988    1.6200    0.0000 C   0  0  0  0  0  0  0  0  0  0  0  0
    2.2690    1.1200    0.0000 C   0  0  0  0  0  0  0  0  0  0  0  0
    7.7438    6.3081    0.0000 C   0  0  0  0  0  0  0  0  0  0  0  0
    8.9005    5.0189    0.0000 C   0  0  0  0  0  0  0  0  0  0  0  0
    1.4030    2.6200    0.0000 C   0  0  0  0  0  0  0  0  0  0  0  0
    8.6943    5.9974    0.0000 C   0  0  0  0  0  0  0  0  0  0  0  0
    1.4030    0.6200    0.0000 C   0  0  0  0  0  0  0  0  0  0  0  0
    0.5369    2.1200    0.0000 C   0  0  0  0  0  0  0  0  0  0  0  0
    0.5369    1.1200    0.0000 C   0  0  0  0  0  0  0  0  0  0  0  0
    0.5369    4.1200    0.0000 C   0  0  0  0  0  0  0  0  0  0  0  0
    5.1779   10.4134    0.0000 C   0  0  0  0  0  0  0  0  0  0  0  0
    4.3119    9.9134    0.0000 C   0  0  0  0  0  0  0  0  0  0  0  0
    6.3199    5.0658    0.0000 H   0  0  0  0  0  0  0  0  0  0  0  0
    5.5623    5.3135    0.0000 H   0  0  0  0  0  0  0  0  0  0  0  0
    6.1713    2.4237    0.0000 H   0  0  0  0  0  0  0  0  0  0  0  0
    6.7645    2.9560    0.0000 H   0  0  0  0  0  0  0  0  0  0  0  0
    4.7945    5.1516    0.0000 H   0  0  0  0  0  0  0  0  0  0  0  0
    4.2012    4.6193    0.0000 H   0  0  0  0  0  0  0  0  0  0  0  0
    4.6459    2.5095    0.0000 H   0  0  0  0  0  0  0  0  0  0  0  0
    5.4035    2.2619    0.0000 H   0  0  0  0  0  0  0  0  0  0  0  0
    3.5053    3.9949    0.0000 H   0  0  0  0  0  0  0  0  0  0  0  0
    2.9120    3.4626    0.0000 H   0  0  0  0  0  0  0  0  0  0  0  0
    7.5398    3.0766    0.0000 H   0  0  0  0  0  0  0  0  0  0  0  0
    6.4102    5.8329    0.0000 H   0  0  0  0  0  0  0  0  0  0  0  0
    8.2841    3.7444    0.0000 H   0  0  0  0  0  0  0  0  0  0  0  0
    4.4188    1.6200    0.0000 H   0  0  0  0  0  0  0  0  0  0  0  0
    3.4078    0.2259    0.0000 H   0  0  0  0  0  0  0  0  0  0  0  0
    7.6159    6.9148    0.0000 H   0  0  0  0  0  0  0  0  0  0  0  0
    9.4898    4.8263    0.0000 H   0  0  0  0  0  0  0  0  0  0  0  0
    1.4030    0.0000    0.0000 H   0  0  0  0  0  0  0  0  0  0  0  0
    0.0000    2.4300    0.0000 H   0  0  0  0  0  0  0  0  0  0  0  0
    0.0000    0.8100    0.0000 H   0  0  0  0  0  0  0  0  0  0  0  0
    0.8469    4.6569    0.0000 H   0  0  0  0  0  0  0  0  0  0  0  0
    0.0000    4.4300    0.0000 H   0  0  0  0  0  0  0  0  0  0  0  0
    0.2269    3.5831    0.0000 H   0  0  0  0  0  0  0  0  0  0  0  0
    6.5809   10.2234    0.0000 H   0  0  0  0  0  0  0  0  0  0  0  0
    2.9089   10.1034    0.0000 H   0  0  0  0  0  0  0  0  0  0  0  0
  1 26  1  0  0  0  0
  2 10  1  0  0  0  0
  2 43  1  0  0  0  0
  3 25  1  0  0  0  0
  3 30  1  0  0  0  0
  4 31  1  0  0  0  0
  4 56  1  0  0  0  0
  5 32  1  0  0  0  0
  5 57  1  0  0  0  0
  6 31  2  0  0  0  0
  7 32  2  0  0  0  0
  8 13  1  0  0  0  0
  8 14  1  0  0  0  0
  8 15  1  0  0  0  0
  9 21  1  0  0  0  0
  9 22  1  0  0  0  0
  9 47  1  0  0  0  0
 10 11  1  0  0  0  0
 10 12  1  0  0  0  0
 10 16  1  0  0  0  0
 11 13  1  0  0  0  0
 11 33  1  0  0  0  0
 11 34  1  0  0  0  0
 12 14  1  0  0  0  0
 12 35  1  0  0  0  0
 12 36  1  0  0  0  0
 13 37  1  0  0  0  0
 13 38  1  0  0  0  0
 14 39  1  0  0  0  0
 14 40  1  0  0  0  0
 15 17  1  0  0  0  0
 15 41  1  0  0  0  0
 15 42  1  0  0  0  0
 16 18  2  0  0  0  0
 16 19  1  0  0  0  0
 17 20  1  0  0  0  0
 17 21  2  0  0  0  0
 18 23  1  0  0  0  0
 18 44  1  0  0  0  0
 19 24  2  0  0  0  0
 19 45  1  0  0  0  0
 20 22  2  0  0  0  0
 20 25  1  0  0  0  0
 21 46  1  0  0  0  0
 22 27  1  0  0  0  0
 23 26  2  0  0  0  0
 23 48  1  0  0  0  0
 24 26  1  0  0  0  0
 24 49  1  0  0  0  0
 25 28  2  0  0  0  0
 27 29  2  0  0  0  0
 27 50  1  0  0  0  0
 28 29  1  0  0  0  0
 28 51  1  0  0  0  0
 29 52  1  0  0  0  0
 30 53  1  0  0  0  0
 30 54  1  0  0  0  0
 30 55  1  0  0  0  0
 31 32  1  0  0  0  0
M  END
> <PUBCHEM_COMPOUND_CID>
49799688

> <PUBCHEM_COMPOUND_CANONICALIZED>
1

> <PUBCHEM_CACTVS_COMPLEXITY>
533

> <PUBCHEM_CACTVS_HBOND_ACCEPTOR>
7

> <PUBCHEM_CACTVS_HBOND_DONOR>
4

> <PUBCHEM_CACTVS_ROTATABLE_BOND>
5

> <PUBCHEM_CACTVS_SUBSKEYS>
AAADceB7OAAAAgAAAAAAAAAAAAAAAWAAAAA8YIAAAAAAAFgB9AAAHgAwCAAADEzDngY+zvPJlgCoAzT3TAKCiCAxIiAI2aB+bJgNJuLE8ZuEcChm0BnJ+Aew0OMOgAAAAgAKAAAAAAAEABQAAAAAAAAAAA==

> <PUBCHEM_IUPAC_OPENEYE_NAME>
4-(4-iodophenyl)-1-[(4-methoxy-1H-indol-3-yl)methyl]piperidin-4-ol;oxalic acid

> <PUBCHEM_IUPAC_CAS_NAME>
4-(4-iodophenyl)-1-[(4-methoxy-1H-indol-3-yl)methyl]-4-piperidinol;oxalic acid

> <PUBCHEM_IUPAC_NAME_MARKUP>
4-(4-iodophenyl)-1-[(4-methoxy-1<I>H</I>-indol-3-yl)methyl]piperidin-4-ol;oxalic acid

> <PUBCHEM_IUPAC_NAME>
4-(4-iodophenyl)-1-[(4-methoxy-1H-indol-3-yl)methyl]piperidin-4-ol;oxalic acid

> <PUBCHEM_IUPAC_SYSTEMATIC_NAME>
ethanedioic acid;4-(4-iodophenyl)-1-[(4-methoxy-1H-indol-3-yl)methyl]piperidin-4-ol

> <PUBCHEM_IUPAC_TRADITIONAL_NAME>
4-(4-iodophenyl)-1-[(4-methoxy-1H-indol-3-yl)methyl]piperidin-4-ol;oxalic acid

> <PUBCHEM_IUPAC_INCHI>
InChI=1S/C21H23IN2O2.C2H2O4/c1-26-19-4-2-3-18-20(19)15(13-23-18)14-24-11-9-21(25,10-12-24)16-5-7-17(22)8-6-16;3-1(4)2(5)6/h2-8,13,23,25H,9-12,14H2,1H3;(H,3,4)(H,5,6)

> <PUBCHEM_IUPAC_INCHIKEY>
GXZAKHNZDZWTDH-UHFFFAOYSA-N

> <PUBCHEM_EXACT_MASS>
552.07573

> <PUBCHEM_MOLECULAR_FORMULA>
C23H25IN2O6

> <PUBCHEM_MOLECULAR_WEIGHT>
552.4

> <PUBCHEM_OPENEYE_CAN_SMILES>
COC1=CC=CC2=C1C(=CN2)CN3CCC(CC3)(C4=CC=C(C=C4)I)O.C(=O)(C(=O)O)O

> <PUBCHEM_OPENEYE_ISO_SMILES>
COC1=CC=CC2=C1C(=CN2)CN3CCC(CC3)(C4=CC=C(C=C4)I)O.C(=O)(C(=O)O)O

> <PUBCHEM_CACTVS_TPSA>
123

> <PUBCHEM_MONOISOTOPIC_WEIGHT>
552.07573

> <PUBCHEM_TOTAL_CHARGE>
0

> <PUBCHEM_HEAVY_ATOM_COUNT>
32

> <PUBCHEM_ATOM_DEF_STEREO_COUNT>
0

> <PUBCHEM_ATOM_UDEF_STEREO_COUNT>
0

> <PUBCHEM_BOND_DEF_STEREO_COUNT>
0

> <PUBCHEM_BOND_UDEF_STEREO_COUNT>
0

> <PUBCHEM_ISOTOPIC_ATOM_COUNT>
0

> <PUBCHEM_COMPONENT_COUNT>
2

> <PUBCHEM_CACTVS_TAUTO_COUNT>
-1

> <PUBCHEM_COORDINATE_TYPE>
1
5
255

> <PUBCHEM_BONDANNOTATIONS>
16  18  8
16  19  8
17  20  8
17  21  8
18  23  8
19  24  8
20  22  8
20  25  8
22  27  8
23  26  8
24  26  8
25  28  8
27  29  8
28  29  8
9  21  8
9  22  8

$$$$
