127047537
  -OEChem-09292322472D

 62 66  0     0  0  0  0  0  0999 V2000
    8.4530   -2.4518    0.0000 S   0  0  0  0  0  0  0  0  0  0  0  0
    6.3301    5.3034    0.0000 F   0  0  0  0  0  0  0  0  0  0  0  0
    5.3301    4.3034    0.0000 F   0  0  0  0  0  0  0  0  0  0  0  0
    7.3301    4.3034    0.0000 F   0  0  0  0  0  0  0  0  0  0  0  0
    9.3850   -5.3034    0.0000 O   0  0  0  0  0  0  0  0  0  0  0  0
    9.4035   -2.1412    0.0000 O   0  0  0  0  0  0  0  0  0  0  0  0
    7.5025   -2.7625    0.0000 O   0  0  0  0  0  0  0  0  0  0  0  0
    8.1424   -1.5013    0.0000 N   0  0  0  0  0  0  0  0  0  0  0  0
    4.5981   -1.6966    0.0000 N   0  0  0  0  0  0  0  0  0  0  0  0
    2.8660   -2.6966    0.0000 N   0  0  0  0  0  0  0  0  0  0  0  0
    6.3301   -1.6966    0.0000 N   0  0  0  0  0  0  0  0  0  0  0  0
    8.7637   -3.4024    0.0000 C   0  0  0  0  0  0  0  0  0  0  0  0
    8.0958   -4.1467    0.0000 C   0  0  0  0  0  0  0  0  0  0  0  0
    9.7422   -3.6086    0.0000 C   0  0  0  0  0  0  0  0  0  0  0  0
    8.4065   -5.0972    0.0000 C   0  0  0  0  0  0  0  0  0  0  0  0
   10.0529   -4.5591    0.0000 C   0  0  0  0  0  0  0  0  0  0  0  0
    7.1962   -1.1966    0.0000 C   0  0  0  0  0  0  0  0  0  0  0  0
    3.7320   -1.1966    0.0000 C   0  0  0  0  0  0  0  0  0  0  0  0
    4.5981   -2.6966    0.0000 C   0  0  0  0  0  0  0  0  0  0  0  0
    7.1962   -0.1966    0.0000 C   0  0  0  0  0  0  0  0  0  0  0  0
    2.8660   -1.6966    0.0000 C   0  0  0  0  0  0  0  0  0  0  0  0
    3.7320   -3.1966    0.0000 C   0  0  0  0  0  0  0  0  0  0  0  0
    5.4641   -1.1966    0.0000 C   0  0  0  0  0  0  0  0  0  0  0  0
    8.7260   -0.6966    0.0000 C   0  0  0  0  0  0  0  0  0  0  0  0
    6.3301    0.3034    0.0000 C   0  0  0  0  0  0  0  0  0  0  0  0
    8.1424    0.1081    0.0000 C   0  0  0  0  0  0  0  0  0  0  0  0
    5.4641   -0.1966    0.0000 C   0  0  0  0  0  0  0  0  0  0  0  0
    2.0000   -3.1966    0.0000 C   0  0  0  0  0  0  0  0  0  0  0  0
    6.3301    1.3034    0.0000 C   0  0  0  0  0  0  0  0  0  0  0  0
    5.4641    1.8034    0.0000 C   0  0  0  0  0  0  0  0  0  0  0  0
    7.1962    1.8034    0.0000 C   0  0  0  0  0  0  0  0  0  0  0  0
    5.4641    2.8034    0.0000 C   0  0  0  0  0  0  0  0  0  0  0  0
    7.1962    2.8034    0.0000 C   0  0  0  0  0  0  0  0  0  0  0  0
    6.3301    3.3034    0.0000 C   0  0  0  0  0  0  0  0  0  0  0  0
    6.3301    4.3034    0.0000 C   0  0  0  0  0  0  0  0  0  0  0  0
    8.1570   -3.2745    0.0000 H   0  0  0  0  0  0  0  0  0  0  0  0
    7.7133   -3.6588    0.0000 H   0  0  0  0  0  0  0  0  0  0  0  0
    7.5489   -4.4387    0.0000 H   0  0  0  0  0  0  0  0  0  0  0  0
   10.3560   -3.5212    0.0000 H   0  0  0  0  0  0  0  0  0  0  0  0
    9.7628   -2.9889    0.0000 H   0  0  0  0  0  0  0  0  0  0  0  0
    7.7927   -5.1845    0.0000 H   0  0  0  0  0  0  0  0  0  0  0  0
    8.3860   -5.7168    0.0000 H   0  0  0  0  0  0  0  0  0  0  0  0
   10.4354   -5.0470    0.0000 H   0  0  0  0  0  0  0  0  0  0  0  0
   10.5998   -4.2671    0.0000 H   0  0  0  0  0  0  0  0  0  0  0  0
    4.1306   -0.7216    0.0000 H   0  0  0  0  0  0  0  0  0  0  0  0
    3.3335   -0.7216    0.0000 H   0  0  0  0  0  0  0  0  0  0  0  0
    4.8101   -3.2792    0.0000 H   0  0  0  0  0  0  0  0  0  0  0  0
    5.2087   -2.5889    0.0000 H   0  0  0  0  0  0  0  0  0  0  0  0
    2.6540   -1.1140    0.0000 H   0  0  0  0  0  0  0  0  0  0  0  0
    2.2554   -1.8043    0.0000 H   0  0  0  0  0  0  0  0  0  0  0  0
    3.3335   -3.6715    0.0000 H   0  0  0  0  0  0  0  0  0  0  0  0
    4.1306   -3.6715    0.0000 H   0  0  0  0  0  0  0  0  0  0  0  0
    9.3460   -0.6966    0.0000 H   0  0  0  0  0  0  0  0  0  0  0  0
    8.3350    0.6975    0.0000 H   0  0  0  0  0  0  0  0  0  0  0  0
    4.9272    0.1134    0.0000 H   0  0  0  0  0  0  0  0  0  0  0  0
    1.6900   -2.6597    0.0000 H   0  0  0  0  0  0  0  0  0  0  0  0
    1.4631   -3.5066    0.0000 H   0  0  0  0  0  0  0  0  0  0  0  0
    2.3100   -3.7335    0.0000 H   0  0  0  0  0  0  0  0  0  0  0  0
    4.9272    1.4934    0.0000 H   0  0  0  0  0  0  0  0  0  0  0  0
    7.7331    1.4934    0.0000 H   0  0  0  0  0  0  0  0  0  0  0  0
    4.9272    3.1134    0.0000 H   0  0  0  0  0  0  0  0  0  0  0  0
    7.7331    3.1134    0.0000 H   0  0  0  0  0  0  0  0  0  0  0  0
  1  6  2  0  0  0  0
  1  7  2  0  0  0  0
  1  8  1  0  0  0  0
  1 12  1  0  0  0  0
  2 35  1  0  0  0  0
  3 35  1  0  0  0  0
  4 35  1  0  0  0  0
  5 15  1  0  0  0  0
  5 16  1  0  0  0  0
  8 17  1  0  0  0  0
  8 24  1  0  0  0  0
  9 18  1  0  0  0  0
  9 19  1  0  0  0  0
  9 23  1  0  0  0  0
 10 21  1  0  0  0  0
 10 22  1  0  0  0  0
 10 28  1  0  0  0  0
 11 17  1  0  0  0  0
 11 23  2  0  0  0  0
 12 13  1  0  0  0  0
 12 14  1  0  0  0  0
 12 36  1  0  0  0  0
 13 15  1  0  0  0  0
 13 37  1  0  0  0  0
 13 38  1  0  0  0  0
 14 16  1  0  0  0  0
 14 39  1  0  0  0  0
 14 40  1  0  0  0  0
 15 41  1  0  0  0  0
 15 42  1  0  0  0  0
 16 43  1  0  0  0  0
 16 44  1  0  0  0  0
 17 20  2  0  0  0  0
 18 21  1  0  0  0  0
 18 45  1  0  0  0  0
 18 46  1  0  0  0  0
 19 22  1  0  0  0  0
 19 47  1  0  0  0  0
 19 48  1  0  0  0  0
 20 25  1  0  0  0  0
 20 26  1  0  0  0  0
 21 49  1  0  0  0  0
 21 50  1  0  0  0  0
 22 51  1  0  0  0  0
 22 52  1  0  0  0  0
 23 27  1  0  0  0  0
 24 26  2  0  0  0  0
 24 53  1  0  0  0  0
 25 27  2  0  0  0  0
 25 29  1  0  0  0  0
 26 54  1  0  0  0  0
 27 55  1  0  0  0  0
 28 56  1  0  0  0  0
 28 57  1  0  0  0  0
 28 58  1  0  0  0  0
 29 30  2  0  0  0  0
 29 31  1  0  0  0  0
 30 32  1  0  0  0  0
 30 59  1  0  0  0  0
 31 33  2  0  0  0  0
 31 60  1  0  0  0  0
 32 34  2  0  0  0  0
 32 61  1  0  0  0  0
 33 34  1  0  0  0  0
 33 62  1  0  0  0  0
 34 35  1  0  0  0  0
M  END
> <PUBCHEM_COMPOUND_CID>
127047537

> <PUBCHEM_COMPOUND_CANONICALIZED>
1

> <PUBCHEM_CACTVS_COMPLEXITY>
817

> <PUBCHEM_CACTVS_HBOND_ACCEPTOR>
9

> <PUBCHEM_CACTVS_HBOND_DONOR>
0

> <PUBCHEM_CACTVS_ROTATABLE_BOND>
4

> <PUBCHEM_CACTVS_SUBSKEYS>
AAADceB7sYBAAAAAAAAAAAAAAAAAAWAAAAA8WJEAAAAAAFgB/AAAHwQAQAAADADl2xa/sN8IFAKgAjJnZHDCgCkxAqAJ2CA4ZJiIaOLAmZGWIAhsgALIyCeQgMAOwAAAAAAAAACAAAAAAAAAAAAAAAAAAA==

> <PUBCHEM_IUPAC_OPENEYE_NAME>
6-(4-methylpiperazin-1-yl)-1-tetrahydropyran-4-ylsulfonyl-4-[4-(trifluoromethyl)phenyl]pyrrolo[2,3-b]pyridine

> <PUBCHEM_IUPAC_CAS_NAME>
6-(4-methyl-1-piperazinyl)-1-(4-oxanylsulfonyl)-4-[4-(trifluoromethyl)phenyl]pyrrolo[2,3-b]pyridine

> <PUBCHEM_IUPAC_NAME_MARKUP>
6-(4-methylpiperazin-1-yl)-1-(oxan-4-ylsulfonyl)-4-[4-(trifluoromethyl)phenyl]pyrrolo[2,3-b]pyridine

> <PUBCHEM_IUPAC_NAME>
6-(4-methylpiperazin-1-yl)-1-(oxan-4-ylsulfonyl)-4-[4-(trifluoromethyl)phenyl]pyrrolo[2,3-b]pyridine

> <PUBCHEM_IUPAC_SYSTEMATIC_NAME>
6-(4-methylpiperazin-1-yl)-1-(oxan-4-ylsulfonyl)-4-[4-(trifluoromethyl)phenyl]pyrrolo[2,3-b]pyridine

> <PUBCHEM_IUPAC_TRADITIONAL_NAME>
6-(4-methylpiperazino)-1-tetrahydropyran-4-ylsulfonyl-4-[4-(trifluoromethyl)phenyl]pyrrolo[2,3-b]pyridine

> <PUBCHEM_IUPAC_INCHI>
InChI=1S/C24H27F3N4O3S/c1-29-10-12-30(13-11-29)22-16-21(17-2-4-18(5-3-17)24(25,26)27)20-6-9-31(23(20)28-22)35(32,33)19-7-14-34-15-8-19/h2-6,9,16,19H,7-8,10-15H2,1H3

> <PUBCHEM_IUPAC_INCHIKEY>
YDIDXPKIMIHSET-UHFFFAOYSA-N

> <PUBCHEM_XLOGP3_AA>
4.1

> <PUBCHEM_EXACT_MASS>
508.17559640

> <PUBCHEM_MOLECULAR_FORMULA>
C24H27F3N4O3S

> <PUBCHEM_MOLECULAR_WEIGHT>
508.6

> <PUBCHEM_OPENEYE_CAN_SMILES>
CN1CCN(CC1)C2=NC3=C(C=CN3S(=O)(=O)C4CCOCC4)C(=C2)C5=CC=C(C=C5)C(F)(F)F

> <PUBCHEM_OPENEYE_ISO_SMILES>
CN1CCN(CC1)C2=NC3=C(C=CN3S(=O)(=O)C4CCOCC4)C(=C2)C5=CC=C(C=C5)C(F)(F)F

> <PUBCHEM_CACTVS_TPSA>
76

> <PUBCHEM_MONOISOTOPIC_WEIGHT>
508.17559640

> <PUBCHEM_TOTAL_CHARGE>
0

> <PUBCHEM_HEAVY_ATOM_COUNT>
35

> <PUBCHEM_ATOM_DEF_STEREO_COUNT>
0

> <PUBCHEM_ATOM_UDEF_STEREO_COUNT>
0

> <PUBCHEM_BOND_DEF_STEREO_COUNT>
0

> <PUBCHEM_BOND_UDEF_STEREO_COUNT>
0

> <PUBCHEM_ISOTOPIC_ATOM_COUNT>
0

> <PUBCHEM_COMPONENT_COUNT>
1

> <PUBCHEM_CACTVS_TAUTO_COUNT>
-1

> <PUBCHEM_COORDINATE_TYPE>
1
5
255

> <PUBCHEM_BONDANNOTATIONS>
11  17  8
11  23  8
17  20  8
20  25  8
20  26  8
23  27  8
24  26  8
25  27  8
29  30  8
29  31  8
30  32  8
31  33  8
32  34  8
33  34  8
8  17  8
8  24  8

$$$$
