11493794
  -OEChem-09292322042D

 47 49  0     1  0  0  0  0  0999 V2000
    3.0329   -1.0046    0.0000 Cl  0  0  0  0  0  0  0  0  0  0  0  0
    6.9966    0.8090    0.0000 O   0  0  0  0  0  0  0  0  0  0  0  0
    5.7094    1.9680    0.0000 O   0  0  0  0  0  0  0  0  0  0  0  0
    8.8747   -3.3532    0.0000 N   0  0  3  0  0  0  0  0  0  0  0  0
    6.6365   -0.8852    0.0000 N   0  0  0  0  0  0  0  0  0  0  0  0
    2.4149    0.8975    0.0000 N   0  0  0  0  0  0  0  0  0  0  0  0
    8.8747   -2.3532    0.0000 C   0  0  2  0  0  0  0  0  0  0  0  0
    7.9236   -2.0442    0.0000 C   0  0  1  0  0  0  0  0  0  0  0  0
    9.8209   -2.0484    0.0000 C   0  0  0  0  0  0  0  0  0  0  0  0
    7.3358   -2.8532    0.0000 C   0  0  0  0  0  0  0  0  0  0  0  0
    7.9236   -3.6622    0.0000 C   0  0  0  0  0  0  0  0  0  0  0  0
    9.8209   -3.6579    0.0000 C   0  0  0  0  0  0  0  0  0  0  0  0
   10.4045   -2.8532    0.0000 C   0  0  0  0  0  0  0  0  0  0  0  0
    7.6146   -1.0931    0.0000 C   0  0  0  0  0  0  0  0  0  0  0  0
    6.3274    0.0659    0.0000 C   0  0  0  0  0  0  0  0  0  0  0  0
    5.3493    0.2738    0.0000 C   0  0  0  0  0  0  0  0  0  0  0  0
    5.0403    1.2248    0.0000 C   0  0  0  0  0  0  0  0  0  0  0  0
    4.6802   -0.4694    0.0000 C   0  0  0  0  0  0  0  0  0  0  0  0
    4.0621    1.4328    0.0000 C   0  0  0  0  0  0  0  0  0  0  0  0
    3.7020   -0.2614    0.0000 C   0  0  0  0  0  0  0  0  0  0  0  0
    3.3930    0.6896    0.0000 C   0  0  0  0  0  0  0  0  0  0  0  0
    5.4004    2.9190    0.0000 C   0  0  0  0  0  0  0  0  0  0  0  0
    6.0695    3.6622    0.0000 C   0  0  0  0  0  0  0  0  0  0  0  0
    8.8758   -1.5032    0.0000 H   0  0  0  0  0  0  0  0  0  0  0  0
    8.3620   -1.6058    0.0000 H   0  0  0  0  0  0  0  0  0  0  0  0
   10.3583   -1.7392    0.0000 H   0  0  0  0  0  0  0  0  0  0  0  0
    9.5699   -1.4815    0.0000 H   0  0  0  0  0  0  0  0  0  0  0  0
    6.8751   -2.4383    0.0000 H   0  0  0  0  0  0  0  0  0  0  0  0
    6.8751   -3.2680    0.0000 H   0  0  0  0  0  0  0  0  0  0  0  0
    7.3867   -3.9722    0.0000 H   0  0  0  0  0  0  0  0  0  0  0  0
    8.1758   -4.2286    0.0000 H   0  0  0  0  0  0  0  0  0  0  0  0
    9.5699   -4.2248    0.0000 H   0  0  0  0  0  0  0  0  0  0  0  0
   10.3583   -3.9671    0.0000 H   0  0  0  0  0  0  0  0  0  0  0  0
   10.8654   -3.2679    0.0000 H   0  0  0  0  0  0  0  0  0  0  0  0
   10.8654   -2.4384    0.0000 H   0  0  0  0  0  0  0  0  0  0  0  0
    8.2286   -1.0068    0.0000 H   0  0  0  0  0  0  0  0  0  0  0  0
    7.6362   -0.4735    0.0000 H   0  0  0  0  0  0  0  0  0  0  0  0
    6.2216   -1.3459    0.0000 H   0  0  0  0  0  0  0  0  0  0  0  0
    4.8718   -1.0590    0.0000 H   0  0  0  0  0  0  0  0  0  0  0  0
    3.8706    2.0224    0.0000 H   0  0  0  0  0  0  0  0  0  0  0  0
    5.0187    3.4076    0.0000 H   0  0  0  0  0  0  0  0  0  0  0  0
    4.8530    2.6280    0.0000 H   0  0  0  0  0  0  0  0  0  0  0  0
    2.2233    1.4872    0.0000 H   0  0  0  0  0  0  0  0  0  0  0  0
    2.0000    0.4368    0.0000 H   0  0  0  0  0  0  0  0  0  0  0  0
    6.5303    3.2473    0.0000 H   0  0  0  0  0  0  0  0  0  0  0  0
    6.4844    4.1229    0.0000 H   0  0  0  0  0  0  0  0  0  0  0  0
    5.6088    4.0770    0.0000 H   0  0  0  0  0  0  0  0  0  0  0  0
  1 20  1  0  0  0  0
  2 15  2  0  0  0  0
  3 17  1  0  0  0  0
  3 22  1  0  0  0  0
  4  7  1  0  0  0  0
  4 11  1  0  0  0  0
  4 12  1  0  0  0  0
  5 14  1  0  0  0  0
  5 15  1  0  0  0  0
  5 38  1  0  0  0  0
  6 21  1  0  0  0  0
  6 43  1  0  0  0  0
  6 44  1  0  0  0  0
  7  8  1  0  0  0  0
  7  9  1  0  0  0  0
  7 24  1  1  0  0  0
  8 10  1  0  0  0  0
  8 14  1  1  0  0  0
  8 25  1  0  0  0  0
  9 13  1  0  0  0  0
  9 26  1  0  0  0  0
  9 27  1  0  0  0  0
 10 11  1  0  0  0  0
 10 28  1  0  0  0  0
 10 29  1  0  0  0  0
 11 30  1  0  0  0  0
 11 31  1  0  0  0  0
 12 13  1  0  0  0  0
 12 32  1  0  0  0  0
 12 33  1  0  0  0  0
 13 34  1  0  0  0  0
 13 35  1  0  0  0  0
 14 36  1  0  0  0  0
 14 37  1  0  0  0  0
 15 16  1  0  0  0  0
 16 17  1  0  0  0  0
 16 18  2  0  0  0  0
 17 19  2  0  0  0  0
 18 20  1  0  0  0  0
 18 39  1  0  0  0  0
 19 21  1  0  0  0  0
 19 40  1  0  0  0  0
 20 21  2  0  0  0  0
 22 23  1  0  0  0  0
 22 41  1  0  0  0  0
 22 42  1  0  0  0  0
 23 45  1  0  0  0  0
 23 46  1  0  0  0  0
 23 47  1  0  0  0  0
M  END
> <PUBCHEM_COMPOUND_CID>
11493794

> <PUBCHEM_COMPOUND_CANONICALIZED>
1

> <PUBCHEM_CACTVS_COMPLEXITY>
423

> <PUBCHEM_CACTVS_HBOND_ACCEPTOR>
4

> <PUBCHEM_CACTVS_HBOND_DONOR>
2

> <PUBCHEM_CACTVS_ROTATABLE_BOND>
5

> <PUBCHEM_CACTVS_SUBSKEYS>
AAADceB7MAAEAAAAAAAAAAAAAAAAAWLAAAAwAAAAAAAWAAABAAAAHgIQAAAADS7hmCYyxoPABACIAiVSUACCCAAkJwAAiIEObsgMJjaF9puGOWjm9hmI6YeY2SGeCCAAIgAIABAQQABEABAAIAAAAAAAAA==

> <PUBCHEM_IUPAC_OPENEYE_NAME>
4-amino-5-chloro-2-ethoxy-N-[[(1S,8S)-2,3,5,6,7,8-hexahydro-1H-pyrrolizin-1-yl]methyl]benzamide

> <PUBCHEM_IUPAC_CAS_NAME>
4-amino-5-chloro-2-ethoxy-N-[[(1S,8S)-2,3,5,6,7,8-hexahydro-1H-pyrrolizin-1-yl]methyl]benzamide

> <PUBCHEM_IUPAC_NAME_MARKUP>
4-amino-5-chloro-2-ethoxy-<I>N</I>-[[(1<I>S</I>,8<I>S</I>)-2,3,5,6,7,8-hexahydro-1<I>H</I>-pyrrolizin-1-yl]methyl]benzamide

> <PUBCHEM_IUPAC_NAME>
4-amino-5-chloro-2-ethoxy-N-[[(1S,8S)-2,3,5,6,7,8-hexahydro-1H-pyrrolizin-1-yl]methyl]benzamide

> <PUBCHEM_IUPAC_SYSTEMATIC_NAME>
4-azanyl-5-chloranyl-2-ethoxy-N-[[(1S,8S)-2,3,5,6,7,8-hexahydro-1H-pyrrolizin-1-yl]methyl]benzamide

> <PUBCHEM_IUPAC_TRADITIONAL_NAME>
4-amino-5-chloro-2-ethoxy-N-[[(1S,8S)-pyrrolizidin-1-yl]methyl]benzamide

> <PUBCHEM_IUPAC_INCHI>
InChI=1S/C17H24ClN3O2/c1-2-23-16-9-14(19)13(18)8-12(16)17(22)20-10-11-5-7-21-6-3-4-15(11)21/h8-9,11,15H,2-7,10,19H2,1H3,(H,20,22)/t11-,15-/m0/s1

> <PUBCHEM_IUPAC_INCHIKEY>
QDTWANUYGDJQMC-NHYWBVRUSA-N

> <PUBCHEM_XLOGP3_AA>
2.5

> <PUBCHEM_EXACT_MASS>
337.1557047

> <PUBCHEM_MOLECULAR_FORMULA>
C17H24ClN3O2

> <PUBCHEM_MOLECULAR_WEIGHT>
337.8

> <PUBCHEM_OPENEYE_CAN_SMILES>
CCOC1=CC(=C(C=C1C(=O)NCC2CCN3C2CCC3)Cl)N

> <PUBCHEM_OPENEYE_ISO_SMILES>
CCOC1=CC(=C(C=C1C(=O)NC[C@@H]2CCN3[C@H]2CCC3)Cl)N

> <PUBCHEM_CACTVS_TPSA>
67.6

> <PUBCHEM_MONOISOTOPIC_WEIGHT>
337.1557047

> <PUBCHEM_TOTAL_CHARGE>
0

> <PUBCHEM_HEAVY_ATOM_COUNT>
23

> <PUBCHEM_ATOM_DEF_STEREO_COUNT>
2

> <PUBCHEM_ATOM_UDEF_STEREO_COUNT>
0

> <PUBCHEM_BOND_DEF_STEREO_COUNT>
0

> <PUBCHEM_BOND_UDEF_STEREO_COUNT>
0

> <PUBCHEM_ISOTOPIC_ATOM_COUNT>
0

> <PUBCHEM_COMPONENT_COUNT>
1

> <PUBCHEM_CACTVS_TAUTO_COUNT>
-1

> <PUBCHEM_COORDINATE_TYPE>
1
5
255

> <PUBCHEM_BONDANNOTATIONS>
16  17  8
16  18  8
17  19  8
18  20  8
19  21  8
20  21  8
7  24  5
8  14  5

$$$$
