44537919
  -OEChem-09292322042D

 91 96  0     1  0  0  0  0  0999 V2000
   15.9588    3.9125    0.0000 O   0  0  0  0  0  0  0  0  0  0  0  0
   15.9588    1.8642    0.0000 O   0  0  0  0  0  0  0  0  0  0  0  0
    2.9136   -3.9531    0.0000 O   0  0  0  0  0  0  0  0  0  0  0  0
   11.1041    2.8884    0.0000 N   0  0  3  0  0  0  0  0  0  0  0  0
    6.3587   -3.5910    0.0000 N   0  0  0  0  0  0  0  0  0  0  0  0
    4.7406   -4.7665    0.0000 N   0  0  0  0  0  0  0  0  0  0  0  0
    8.1041    1.1563    0.0000 N   0  0  0  0  0  0  0  0  0  0  0  0
    7.1095    1.0518    0.0000 N   0  0  0  0  0  0  0  0  0  0  0  0
    6.9016    0.0736    0.0000 N   0  0  0  0  0  0  0  0  0  0  0  0
   12.5129    4.0119    0.0000 C   0  0  3  0  0  0  0  0  0  0  0  0
   11.5379    3.7893    0.0000 C   0  0  0  0  0  0  0  0  0  0  0  0
   11.5379    1.9874    0.0000 C   0  0  0  0  0  0  0  0  0  0  0  0
   13.2947    3.3884    0.0000 C   0  0  0  0  0  0  0  0  0  0  0  0
   12.5129    1.7649    0.0000 C   0  0  0  0  0  0  0  0  0  0  0  0
   13.2947    2.3884    0.0000 C   0  0  0  0  0  0  0  0  0  0  0  0
   10.1041    2.8884    0.0000 C   0  0  0  0  0  0  0  0  0  0  0  0
   12.7354    4.9868    0.0000 C   0  0  0  0  0  0  0  0  0  0  0  0
    6.4632   -4.5855    0.0000 C   0  0  0  0  0  0  0  0  0  0  0  0
    5.4451   -3.1842    0.0000 C   0  0  0  0  0  0  0  0  0  0  0  0
    9.6041    2.0223    0.0000 C   0  0  0  0  0  0  0  0  0  0  0  0
    5.6542   -5.1733    0.0000 C   0  0  0  0  0  0  0  0  0  0  0  0
    4.6361   -3.7720    0.0000 C   0  0  0  0  0  0  0  0  0  0  0  0
    7.1677   -3.0032    0.0000 C   0  0  0  0  0  0  0  0  0  0  0  0
   14.1886    3.9230    0.0000 C   0  0  0  0  0  0  0  0  0  0  0  0
   14.1886    1.8537    0.0000 C   0  0  0  0  0  0  0  0  0  0  0  0
    7.0632   -2.0087    0.0000 C   0  0  0  0  0  0  0  0  0  0  0  0
    8.6041    2.0223    0.0000 C   0  0  0  0  0  0  0  0  0  0  0  0
   13.6910    5.2815    0.0000 C   0  0  0  0  0  0  0  0  0  0  0  0
   12.0023    5.6670    0.0000 C   0  0  0  0  0  0  0  0  0  0  0  0
    7.8722   -1.4209    0.0000 C   0  0  0  0  0  0  0  0  0  0  0  0
   15.0947    3.4092    0.0000 C   0  0  0  0  0  0  0  0  0  0  0  0
    3.9316   -5.3543    0.0000 C   0  0  0  0  0  0  0  0  0  0  0  0
   15.0947    2.3676    0.0000 C   0  0  0  0  0  0  0  0  0  0  0  0
    7.7676   -0.4264    0.0000 C   0  0  0  0  0  0  0  0  0  0  0  0
   13.9135    6.2565    0.0000 C   0  0  0  0  0  0  0  0  0  0  0  0
   14.4240    4.6014    0.0000 C   0  0  0  0  0  0  0  0  0  0  0  0
    8.5108    0.2428    0.0000 C   0  0  0  0  0  0  0  0  0  0  0  0
   12.2249    6.6419    0.0000 C   0  0  0  0  0  0  0  0  0  0  0  0
   13.1804    6.9366    0.0000 C   0  0  0  0  0  0  0  0  0  0  0  0
    3.0181   -4.9476    0.0000 C   0  0  0  0  0  0  0  0  0  0  0  0
    4.0362   -6.3488    0.0000 C   0  0  0  0  0  0  0  0  0  0  0  0
    2.2091   -5.5354    0.0000 C   0  0  0  0  0  0  0  0  0  0  0  0
    3.2271   -6.9366    0.0000 C   0  0  0  0  0  0  0  0  0  0  0  0
    2.3136   -6.5299    0.0000 C   0  0  0  0  0  0  0  0  0  0  0  0
    2.0000   -3.5463    0.0000 C   0  0  0  0  0  0  0  0  0  0  0  0
   12.0745    4.4503    0.0000 H   0  0  0  0  0  0  0  0  0  0  0  0
   11.5379    4.4093    0.0000 H   0  0  0  0  0  0  0  0  0  0  0  0
   10.9335    3.9273    0.0000 H   0  0  0  0  0  0  0  0  0  0  0  0
   10.9335    1.8494    0.0000 H   0  0  0  0  0  0  0  0  0  0  0  0
   11.5379    1.3674    0.0000 H   0  0  0  0  0  0  0  0  0  0  0  0
   12.2439    1.2063    0.0000 H   0  0  0  0  0  0  0  0  0  0  0  0
   12.9976    1.3783    0.0000 H   0  0  0  0  0  0  0  0  0  0  0  0
   10.2117    3.4990    0.0000 H   0  0  0  0  0  0  0  0  0  0  0  0
    9.5214    3.1004    0.0000 H   0  0  0  0  0  0  0  0  0  0  0  0
    6.7350   -5.1428    0.0000 H   0  0  0  0  0  0  0  0  0  0  0  0
    7.0592   -4.4146    0.0000 H   0  0  0  0  0  0  0  0  0  0  0  0
    5.7918   -2.6702    0.0000 H   0  0  0  0  0  0  0  0  0  0  0  0
    4.9991   -2.7536    0.0000 H   0  0  0  0  0  0  0  0  0  0  0  0
    9.4964    1.4118    0.0000 H   0  0  0  0  0  0  0  0  0  0  0  0
   10.1867    1.8103    0.0000 H   0  0  0  0  0  0  0  0  0  0  0  0
    5.3075   -5.6873    0.0000 H   0  0  0  0  0  0  0  0  0  0  0  0
    6.1002   -5.6040    0.0000 H   0  0  0  0  0  0  0  0  0  0  0  0
    4.3643   -3.2148    0.0000 H   0  0  0  0  0  0  0  0  0  0  0  0
    4.0401   -3.9429    0.0000 H   0  0  0  0  0  0  0  0  0  0  0  0
    7.4395   -3.5604    0.0000 H   0  0  0  0  0  0  0  0  0  0  0  0
    7.7637   -2.8323    0.0000 H   0  0  0  0  0  0  0  0  0  0  0  0
   14.1815    4.5430    0.0000 H   0  0  0  0  0  0  0  0  0  0  0  0
   14.1815    1.2337    0.0000 H   0  0  0  0  0  0  0  0  0  0  0  0
    6.7914   -1.4514    0.0000 H   0  0  0  0  0  0  0  0  0  0  0  0
    6.4672   -2.1796    0.0000 H   0  0  0  0  0  0  0  0  0  0  0  0
    8.7117    2.6329    0.0000 H   0  0  0  0  0  0  0  0  0  0  0  0
    8.0214    2.2344    0.0000 H   0  0  0  0  0  0  0  0  0  0  0  0
   11.4099    5.4842    0.0000 H   0  0  0  0  0  0  0  0  0  0  0  0
    8.1440   -1.9781    0.0000 H   0  0  0  0  0  0  0  0  0  0  0  0
    8.4682   -1.2500    0.0000 H   0  0  0  0  0  0  0  0  0  0  0  0
   14.5059    6.4392    0.0000 H   0  0  0  0  0  0  0  0  0  0  0  0
   14.0023    4.1469    0.0000 H   0  0  0  0  0  0  0  0  0  0  0  0
   14.8785    4.1797    0.0000 H   0  0  0  0  0  0  0  0  0  0  0  0
   14.8457    5.0559    0.0000 H   0  0  0  0  0  0  0  0  0  0  0  0
    9.1172    0.1139    0.0000 H   0  0  0  0  0  0  0  0  0  0  0  0
   11.7704    7.0636    0.0000 H   0  0  0  0  0  0  0  0  0  0  0  0
   13.3184    7.5411    0.0000 H   0  0  0  0  0  0  0  0  0  0  0  0
    4.6026   -6.6010    0.0000 H   0  0  0  0  0  0  0  0  0  0  0  0
   16.4969    3.6046    0.0000 H   0  0  0  0  0  0  0  0  0  0  0  0
   15.9564    1.2442    0.0000 H   0  0  0  0  0  0  0  0  0  0  0  0
    1.6427   -5.2832    0.0000 H   0  0  0  0  0  0  0  0  0  0  0  0
    3.2919   -7.5532    0.0000 H   0  0  0  0  0  0  0  0  0  0  0  0
    1.8120   -6.8943    0.0000 H   0  0  0  0  0  0  0  0  0  0  0  0
    2.2522   -2.9799    0.0000 H   0  0  0  0  0  0  0  0  0  0  0  0
    1.4336   -3.2942    0.0000 H   0  0  0  0  0  0  0  0  0  0  0  0
    1.7478   -4.1127    0.0000 H   0  0  0  0  0  0  0  0  0  0  0  0
  1 31  1  0  0  0  0
  1 84  1  0  0  0  0
  2 33  1  0  0  0  0
  2 85  1  0  0  0  0
  3 40  1  0  0  0  0
  3 45  1  0  0  0  0
  4 11  1  0  0  0  0
  4 12  1  0  0  0  0
  4 16  1  0  0  0  0
  5 18  1  0  0  0  0
  5 19  1  0  0  0  0
  5 23  1  0  0  0  0
  6 21  1  0  0  0  0
  6 22  1  0  0  0  0
  6 32  1  0  0  0  0
  7  8  1  0  0  0  0
  7 27  1  0  0  0  0
  7 37  1  0  0  0  0
  8  9  2  0  0  0  0
  9 34  1  0  0  0  0
 10 11  1  0  0  0  0
 10 13  1  0  0  0  0
 10 17  1  0  0  0  0
 10 46  1  0  0  0  0
 11 47  1  0  0  0  0
 11 48  1  0  0  0  0
 12 14  1  0  0  0  0
 12 49  1  0  0  0  0
 12 50  1  0  0  0  0
 13 15  1  0  0  0  0
 13 24  2  0  0  0  0
 14 15  1  0  0  0  0
 14 51  1  0  0  0  0
 14 52  1  0  0  0  0
 15 25  2  0  0  0  0
 16 20  1  0  0  0  0
 16 53  1  0  0  0  0
 16 54  1  0  0  0  0
 17 28  1  0  0  0  0
 17 29  2  0  0  0  0
 18 21  1  0  0  0  0
 18 55  1  0  0  0  0
 18 56  1  0  0  0  0
 19 22  1  0  0  0  0
 19 57  1  0  0  0  0
 19 58  1  0  0  0  0
 20 27  1  0  0  0  0
 20 59  1  0  0  0  0
 20 60  1  0  0  0  0
 21 61  1  0  0  0  0
 21 62  1  0  0  0  0
 22 63  1  0  0  0  0
 22 64  1  0  0  0  0
 23 26  1  0  0  0  0
 23 65  1  0  0  0  0
 23 66  1  0  0  0  0
 24 31  1  0  0  0  0
 24 67  1  0  0  0  0
 25 33  1  0  0  0  0
 25 68  1  0  0  0  0
 26 30  1  0  0  0  0
 26 69  1  0  0  0  0
 26 70  1  0  0  0  0
 27 71  1  0  0  0  0
 27 72  1  0  0  0  0
 28 35  2  0  0  0  0
 28 36  1  0  0  0  0
 29 38  1  0  0  0  0
 29 73  1  0  0  0  0
 30 34  1  0  0  0  0
 30 74  1  0  0  0  0
 30 75  1  0  0  0  0
 31 33  2  0  0  0  0
 32 40  1  0  0  0  0
 32 41  2  0  0  0  0
 34 37  2  0  0  0  0
 35 39  1  0  0  0  0
 35 76  1  0  0  0  0
 36 77  1  0  0  0  0
 36 78  1  0  0  0  0
 36 79  1  0  0  0  0
 37 80  1  0  0  0  0
 38 39  2  0  0  0  0
 38 81  1  0  0  0  0
 39 82  1  0  0  0  0
 40 42  2  0  0  0  0
 41 43  1  0  0  0  0
 41 83  1  0  0  0  0
 42 44  1  0  0  0  0
 42 86  1  0  0  0  0
 43 44  2  0  0  0  0
 43 87  1  0  0  0  0
 44 88  1  0  0  0  0
 45 89  1  0  0  0  0
 45 90  1  0  0  0  0
 45 91  1  0  0  0  0
M  END
> <PUBCHEM_COMPOUND_CID>
44537919

> <PUBCHEM_COMPOUND_CANONICALIZED>
1

> <PUBCHEM_CACTVS_COMPLEXITY>
876

> <PUBCHEM_CACTVS_HBOND_ACCEPTOR>
8

> <PUBCHEM_CACTVS_HBOND_DONOR>
2

> <PUBCHEM_CACTVS_ROTATABLE_BOND>
11

> <PUBCHEM_CACTVS_SUBSKEYS>
AAADcfB/sAAAAAAAAAAAAAAAAAAAAWAAAAA8YMEABYAAAAAB1AAAHgAICAAADQzBngY+xpMIBgCiAzRnRACCDAQxsgAY2AA//IgPZiLG8ZuVcClkwBHZ+AeQ0PIOoAABAAAQUABAAAIAACCgAAAAAAAAAA==

> <PUBCHEM_IUPAC_OPENEYE_NAME>
3-[3-[4-[3-[4-(2-methoxyphenyl)piperazin-1-yl]propyl]triazol-1-yl]propyl]-5-(o-tolyl)-1,2,4,5-tetrahydro-3-benzazepine-7,8-diol

> <PUBCHEM_IUPAC_CAS_NAME>
3-[3-[4-[3-[4-(2-methoxyphenyl)-1-piperazinyl]propyl]-1-triazolyl]propyl]-5-(2-methylphenyl)-1,2,4,5-tetrahydro-3-benzazepine-7,8-diol

> <PUBCHEM_IUPAC_NAME_MARKUP>
3-[3-[4-[3-[4-(2-methoxyphenyl)piperazin-1-yl]propyl]triazol-1-yl]propyl]-5-(2-methylphenyl)-1,2,4,5-tetrahydro-3-benzazepine-7,8-diol

> <PUBCHEM_IUPAC_NAME>
3-[3-[4-[3-[4-(2-methoxyphenyl)piperazin-1-yl]propyl]triazol-1-yl]propyl]-5-(2-methylphenyl)-1,2,4,5-tetrahydro-3-benzazepine-7,8-diol

> <PUBCHEM_IUPAC_SYSTEMATIC_NAME>
3-[3-[4-[3-[4-(2-methoxyphenyl)piperazin-1-yl]propyl]-1,2,3-triazol-1-yl]propyl]-5-(2-methylphenyl)-1,2,4,5-tetrahydro-3-benzazepine-7,8-diol

> <PUBCHEM_IUPAC_TRADITIONAL_NAME>
3-[3-[4-[3-[4-(2-methoxyphenyl)piperazino]propyl]triazol-1-yl]propyl]-5-(o-tolyl)-1,2,4,5-tetrahydro-3-benzazepine-7,8-diol

> <PUBCHEM_IUPAC_INCHI>
InChI=1S/C36H46N6O3/c1-27-9-3-4-11-30(27)32-26-40(18-14-28-23-34(43)35(44)24-31(28)32)16-8-17-42-25-29(37-38-42)10-7-15-39-19-21-41(22-20-39)33-12-5-6-13-36(33)45-2/h3-6,9,11-13,23-25,32,43-44H,7-8,10,14-22,26H2,1-2H3

> <PUBCHEM_IUPAC_INCHIKEY>
ACWOUFNDQFUXQN-UHFFFAOYSA-N

> <PUBCHEM_XLOGP3_AA>
5.4

> <PUBCHEM_EXACT_MASS>
610.36313935

> <PUBCHEM_MOLECULAR_FORMULA>
C36H46N6O3

> <PUBCHEM_MOLECULAR_WEIGHT>
610.8

> <PUBCHEM_OPENEYE_CAN_SMILES>
CC1=CC=CC=C1C2CN(CCC3=CC(=C(C=C23)O)O)CCCN4C=C(N=N4)CCCN5CCN(CC5)C6=CC=CC=C6OC

> <PUBCHEM_OPENEYE_ISO_SMILES>
CC1=CC=CC=C1C2CN(CCC3=CC(=C(C=C23)O)O)CCCN4C=C(N=N4)CCCN5CCN(CC5)C6=CC=CC=C6OC

> <PUBCHEM_CACTVS_TPSA>
90.1

> <PUBCHEM_MONOISOTOPIC_WEIGHT>
610.36313935

> <PUBCHEM_TOTAL_CHARGE>
0

> <PUBCHEM_HEAVY_ATOM_COUNT>
45

> <PUBCHEM_ATOM_DEF_STEREO_COUNT>
0

> <PUBCHEM_ATOM_UDEF_STEREO_COUNT>
1

> <PUBCHEM_BOND_DEF_STEREO_COUNT>
0

> <PUBCHEM_BOND_UDEF_STEREO_COUNT>
0

> <PUBCHEM_ISOTOPIC_ATOM_COUNT>
0

> <PUBCHEM_COMPONENT_COUNT>
1

> <PUBCHEM_CACTVS_TAUTO_COUNT>
-1

> <PUBCHEM_COORDINATE_TYPE>
1
5
255

> <PUBCHEM_BONDANNOTATIONS>
10  17  3
13  15  8
13  24  8
15  25  8
17  28  8
17  29  8
24  31  8
25  33  8
28  35  8
29  38  8
31  33  8
32  40  8
32  41  8
34  37  8
35  39  8
38  39  8
40  42  8
41  43  8
42  44  8
43  44  8
7  37  8
7  8  8
8  9  8
9  34  8

$$$$
