138692462
  -OEChem-09292322452D

 58 60  0     0  0  0  0  0  0999 V2000
    2.0000   -2.2320    0.0000 Cl  0  0  0  0  0  0  0  0  0  0  0  0
    4.9641    1.6340    0.0000 F   0  0  0  0  0  0  0  0  0  0  0  0
    2.0000   -4.2320    0.0000 F   0  0  0  0  0  0  0  0  0  0  0  0
    6.3301   -2.7320    0.0000 O   0  0  0  0  0  0  0  0  0  0  0  0
    8.9641    3.3660    0.0000 O   0  0  0  0  0  0  0  0  0  0  0  0
    5.4641   -1.2320    0.0000 N   0  0  0  0  0  0  0  0  0  0  0  0
    6.9641    1.6340    0.0000 N   0  0  0  0  0  0  0  0  0  0  0  0
   10.4641    2.5000    0.0000 N   0  0  0  0  0  0  0  0  0  0  0  0
   11.9641    1.6340    0.0000 N   0  0  0  0  0  0  0  0  0  0  0  0
    5.4641    0.7679    0.0000 C   0  0  0  0  0  0  0  0  0  0  0  0
    4.5981    0.2679    0.0000 C   0  0  0  0  0  0  0  0  0  0  0  0
    6.3301    0.2679    0.0000 C   0  0  0  0  0  0  0  0  0  0  0  0
    4.5981   -0.7321    0.0000 C   0  0  0  0  0  0  0  0  0  0  0  0
    6.3301   -0.7321    0.0000 C   0  0  0  0  0  0  0  0  0  0  0  0
    5.9641    1.6340    0.0000 C   0  0  0  0  0  0  0  0  0  0  0  0
    5.4641   -2.2320    0.0000 C   0  0  0  0  0  0  0  0  0  0  0  0
    7.4641    2.5000    0.0000 C   0  0  0  0  0  0  0  0  0  0  0  0
    4.5981   -2.7320    0.0000 C   0  0  0  0  0  0  0  0  0  0  0  0
    8.4641    2.5000    0.0000 C   0  0  0  0  0  0  0  0  0  0  0  0
    3.7320   -2.2320    0.0000 C   0  0  0  0  0  0  0  0  0  0  0  0
    4.5981   -3.7320    0.0000 C   0  0  0  0  0  0  0  0  0  0  0  0
    2.8660   -2.7320    0.0000 C   0  0  0  0  0  0  0  0  0  0  0  0
    3.7320   -4.2320    0.0000 C   0  0  0  0  0  0  0  0  0  0  0  0
    2.8660   -3.7320    0.0000 C   0  0  0  0  0  0  0  0  0  0  0  0
    9.9641    3.3660    0.0000 C   0  0  0  0  0  0  0  0  0  0  0  0
   10.4641    4.2320    0.0000 C   0  0  0  0  0  0  0  0  0  0  0  0
   11.4641    2.5000    0.0000 C   0  0  0  0  0  0  0  0  0  0  0  0
   11.4641    4.2320    0.0000 C   0  0  0  0  0  0  0  0  0  0  0  0
   11.9641    3.3660    0.0000 C   0  0  0  0  0  0  0  0  0  0  0  0
   12.9641    1.6340    0.0000 C   0  0  0  0  0  0  0  0  0  0  0  0
   11.4641    0.7679    0.0000 C   0  0  0  0  0  0  0  0  0  0  0  0
    4.3860    0.8506    0.0000 H   0  0  0  0  0  0  0  0  0  0  0  0
    3.9875    0.1603    0.0000 H   0  0  0  0  0  0  0  0  0  0  0  0
    6.9407    0.1603    0.0000 H   0  0  0  0  0  0  0  0  0  0  0  0
    6.5422    0.8506    0.0000 H   0  0  0  0  0  0  0  0  0  0  0  0
    3.9875   -0.6244    0.0000 H   0  0  0  0  0  0  0  0  0  0  0  0
    4.3860   -1.3147    0.0000 H   0  0  0  0  0  0  0  0  0  0  0  0
    6.5422   -1.3147    0.0000 H   0  0  0  0  0  0  0  0  0  0  0  0
    6.9407   -0.6244    0.0000 H   0  0  0  0  0  0  0  0  0  0  0  0
    6.0718    2.2446    0.0000 H   0  0  0  0  0  0  0  0  0  0  0  0
    5.3815    1.8460    0.0000 H   0  0  0  0  0  0  0  0  0  0  0  0
    7.2741    1.0970    0.0000 H   0  0  0  0  0  0  0  0  0  0  0  0
    7.5718    3.1106    0.0000 H   0  0  0  0  0  0  0  0  0  0  0  0
    6.8815    2.7120    0.0000 H   0  0  0  0  0  0  0  0  0  0  0  0
    8.3564    1.8894    0.0000 H   0  0  0  0  0  0  0  0  0  0  0  0
    9.0467    2.2880    0.0000 H   0  0  0  0  0  0  0  0  0  0  0  0
    3.7320   -1.6120    0.0000 H   0  0  0  0  0  0  0  0  0  0  0  0
    5.1350   -4.0420    0.0000 H   0  0  0  0  0  0  0  0  0  0  0  0
    3.7320   -4.8520    0.0000 H   0  0  0  0  0  0  0  0  0  0  0  0
   10.1541    4.7690    0.0000 H   0  0  0  0  0  0  0  0  0  0  0  0
   11.7741    4.7690    0.0000 H   0  0  0  0  0  0  0  0  0  0  0  0
   12.5841    3.3660    0.0000 H   0  0  0  0  0  0  0  0  0  0  0  0
   12.9641    1.0140    0.0000 H   0  0  0  0  0  0  0  0  0  0  0  0
   13.5841    1.6340    0.0000 H   0  0  0  0  0  0  0  0  0  0  0  0
   12.9641    2.2540    0.0000 H   0  0  0  0  0  0  0  0  0  0  0  0
   10.9272    1.0780    0.0000 H   0  0  0  0  0  0  0  0  0  0  0  0
   11.1541    0.2310    0.0000 H   0  0  0  0  0  0  0  0  0  0  0  0
   12.0010    0.4579    0.0000 H   0  0  0  0  0  0  0  0  0  0  0  0
  1 22  1  0  0  0  0
  2 10  1  0  0  0  0
  3 24  1  0  0  0  0
  4 16  2  0  0  0  0
  5 19  1  0  0  0  0
  5 25  1  0  0  0  0
  6 13  1  0  0  0  0
  6 14  1  0  0  0  0
  6 16  1  0  0  0  0
  7 15  1  0  0  0  0
  7 17  1  0  0  0  0
  7 42  1  0  0  0  0
  8 25  1  0  0  0  0
  8 27  2  0  0  0  0
  9 27  1  0  0  0  0
  9 30  1  0  0  0  0
  9 31  1  0  0  0  0
 10 11  1  0  0  0  0
 10 12  1  0  0  0  0
 10 15  1  0  0  0  0
 11 13  1  0  0  0  0
 11 32  1  0  0  0  0
 11 33  1  0  0  0  0
 12 14  1  0  0  0  0
 12 34  1  0  0  0  0
 12 35  1  0  0  0  0
 13 36  1  0  0  0  0
 13 37  1  0  0  0  0
 14 38  1  0  0  0  0
 14 39  1  0  0  0  0
 15 40  1  0  0  0  0
 15 41  1  0  0  0  0
 16 18  1  0  0  0  0
 17 19  1  0  0  0  0
 17 43  1  0  0  0  0
 17 44  1  0  0  0  0
 18 20  2  0  0  0  0
 18 21  1  0  0  0  0
 19 45  1  0  0  0  0
 19 46  1  0  0  0  0
 20 22  1  0  0  0  0
 20 47  1  0  0  0  0
 21 23  2  0  0  0  0
 21 48  1  0  0  0  0
 22 24  2  0  0  0  0
 23 24  1  0  0  0  0
 23 49  1  0  0  0  0
 25 26  2  0  0  0  0
 26 28  1  0  0  0  0
 26 50  1  0  0  0  0
 27 29  1  0  0  0  0
 28 29  2  0  0  0  0
 28 51  1  0  0  0  0
 29 52  1  0  0  0  0
 30 53  1  0  0  0  0
 30 54  1  0  0  0  0
 30 55  1  0  0  0  0
 31 56  1  0  0  0  0
 31 57  1  0  0  0  0
 31 58  1  0  0  0  0
M  END
> <PUBCHEM_COMPOUND_CID>
138692462

> <PUBCHEM_COMPOUND_CANONICALIZED>
1

> <PUBCHEM_CACTVS_COMPLEXITY>
578

> <PUBCHEM_CACTVS_HBOND_ACCEPTOR>
7

> <PUBCHEM_CACTVS_HBOND_DONOR>
1

> <PUBCHEM_CACTVS_ROTATABLE_BOND>
8

> <PUBCHEM_CACTVS_SUBSKEYS>
AAADceB7sYAEAAAAAAAAAAAAAAAAAAAAAAA8WIAAAAAAAAABwAAAHwIQAAAADALhmi4ztJPIFACoAiNydACCiCklJyAJmKE+btiOJvLFt5uPOSjs1hPY6aeYmAKOAAAAIAAAAAAAAABAAAAAAAAAAAAAAA==

> <PUBCHEM_IUPAC_OPENEYE_NAME>
(3-chloro-4-fluoro-phenyl)-[4-[[2-[[6-(dimethylamino)-2-pyridyl]oxy]ethylamino]methyl]-4-fluoro-1-piperidyl]methanone

> <PUBCHEM_IUPAC_CAS_NAME>
(3-chloro-4-fluorophenyl)-[4-[[2-[[6-(dimethylamino)-2-pyridinyl]oxy]ethylamino]methyl]-4-fluoro-1-piperidinyl]methanone

> <PUBCHEM_IUPAC_NAME_MARKUP>
(3-chloro-4-fluorophenyl)-[4-[[2-[6-(dimethylamino)pyridin-2-yl]oxyethylamino]methyl]-4-fluoropiperidin-1-yl]methanone

> <PUBCHEM_IUPAC_NAME>
(3-chloro-4-fluorophenyl)-[4-[[2-[6-(dimethylamino)pyridin-2-yl]oxyethylamino]methyl]-4-fluoropiperidin-1-yl]methanone

> <PUBCHEM_IUPAC_SYSTEMATIC_NAME>
(3-chloranyl-4-fluoranyl-phenyl)-[4-[[2-[6-(dimethylamino)pyridin-2-yl]oxyethylamino]methyl]-4-fluoranyl-piperidin-1-yl]methanone

> <PUBCHEM_IUPAC_TRADITIONAL_NAME>
(3-chloro-4-fluoro-phenyl)-[4-[[2-[[6-(dimethylamino)-2-pyridyl]oxy]ethylamino]methyl]-4-fluoro-piperidino]methanone

> <PUBCHEM_IUPAC_INCHI>
InChI=1S/C22H27ClF2N4O2/c1-28(2)19-4-3-5-20(27-19)31-13-10-26-15-22(25)8-11-29(12-9-22)21(30)16-6-7-18(24)17(23)14-16/h3-7,14,26H,8-13,15H2,1-2H3

> <PUBCHEM_IUPAC_INCHIKEY>
JZCAGBINSPHSNG-UHFFFAOYSA-N

> <PUBCHEM_XLOGP3_AA>
3.8

> <PUBCHEM_EXACT_MASS>
452.1790601

> <PUBCHEM_MOLECULAR_FORMULA>
C22H27ClF2N4O2

> <PUBCHEM_MOLECULAR_WEIGHT>
452.9

> <PUBCHEM_OPENEYE_CAN_SMILES>
CN(C)C1=NC(=CC=C1)OCCNCC2(CCN(CC2)C(=O)C3=CC(=C(C=C3)F)Cl)F

> <PUBCHEM_OPENEYE_ISO_SMILES>
CN(C)C1=NC(=CC=C1)OCCNCC2(CCN(CC2)C(=O)C3=CC(=C(C=C3)F)Cl)F

> <PUBCHEM_CACTVS_TPSA>
57.7

> <PUBCHEM_MONOISOTOPIC_WEIGHT>
452.1790601

> <PUBCHEM_TOTAL_CHARGE>
0

> <PUBCHEM_HEAVY_ATOM_COUNT>
31

> <PUBCHEM_ATOM_DEF_STEREO_COUNT>
0

> <PUBCHEM_ATOM_UDEF_STEREO_COUNT>
0

> <PUBCHEM_BOND_DEF_STEREO_COUNT>
0

> <PUBCHEM_BOND_UDEF_STEREO_COUNT>
0

> <PUBCHEM_ISOTOPIC_ATOM_COUNT>
0

> <PUBCHEM_COMPONENT_COUNT>
1

> <PUBCHEM_CACTVS_TAUTO_COUNT>
-1

> <PUBCHEM_COORDINATE_TYPE>
1
5
255

> <PUBCHEM_BONDANNOTATIONS>
18  20  8
18  21  8
20  22  8
21  23  8
22  24  8
23  24  8
25  26  8
26  28  8
27  29  8
28  29  8
8  25  8
8  27  8

$$$$
