46889016
  -OEChem-09292322292D

 67 71  0     1  0  0  0  0  0999 V2000
    2.9848   -3.5882    0.0000 S   0  0  0  0  0  0  0  0  0  0  0  0
    6.6233   -1.1879    0.0000 O   0  0  0  0  0  0  0  0  0  0  0  0
   16.6753    1.9133    0.0000 O   0  0  0  0  0  0  0  0  0  0  0  0
    3.1585   -4.5730    0.0000 O   0  0  0  0  0  0  0  0  0  0  0  0
    2.8112   -2.6034    0.0000 O   0  0  0  0  0  0  0  0  0  0  0  0
    8.2921    0.8652    0.0000 N   0  0  0  0  0  0  0  0  0  0  0  0
   14.9052    1.9028    0.0000 N   0  0  0  0  0  0  0  0  0  0  0  0
    3.9696   -3.4145    0.0000 N   0  0  0  0  0  0  0  0  0  0  0  0
   10.5471    2.4374    0.0000 C   0  0  0  0  0  0  0  0  0  0  0  0
    8.5986    2.9152    0.0000 C   0  0  3  0  0  0  0  0  0  0  0  0
    9.5645    3.1741    0.0000 C   0  0  3  0  0  0  0  0  0  0  0  0
    8.0898    4.3142    0.0000 C   0  0  0  0  0  0  0  0  0  0  0  0
    9.0557    4.5730    0.0000 C   0  0  0  0  0  0  0  0  0  0  0  0
    7.7329    1.6942    0.0000 C   0  0  0  0  0  0  0  0  0  0  0  0
    9.2534    1.1408    0.0000 C   0  0  0  0  0  0  0  0  0  0  0  0
   11.4132    1.9374    0.0000 C   0  0  0  0  0  0  0  0  0  0  0  0
    7.9501   -0.0745    0.0000 C   0  0  0  0  0  0  0  0  0  0  0  0
   12.2792    2.4374    0.0000 C   0  0  0  0  0  0  0  0  0  0  0  0
    6.9653   -0.2482    0.0000 C   0  0  0  0  0  0  0  0  0  0  0  0
   13.1452    1.9374    0.0000 C   0  0  0  0  0  0  0  0  0  0  0  0
   12.2792    3.4374    0.0000 C   0  0  0  0  0  0  0  0  0  0  0  0
   14.0112    2.4374    0.0000 C   0  0  0  0  0  0  0  0  0  0  0  0
   13.1452    3.9374    0.0000 C   0  0  0  0  0  0  0  0  0  0  0  0
   14.0112    3.4374    0.0000 C   0  0  0  0  0  0  0  0  0  0  0  0
   14.9052    3.9721    0.0000 C   0  0  0  0  0  0  0  0  0  0  0  0
   15.8112    3.4583    0.0000 C   0  0  0  0  0  0  0  0  0  0  0  0
    5.6385   -1.3615    0.0000 C   0  0  0  0  0  0  0  0  0  0  0  0
   15.8112    2.4166    0.0000 C   0  0  0  0  0  0  0  0  0  0  0  0
    5.2964   -2.3012    0.0000 C   0  0  0  0  0  0  0  0  0  0  0  0
    4.9957   -0.5955    0.0000 C   0  0  0  0  0  0  0  0  0  0  0  0
    4.3116   -2.4748    0.0000 C   0  0  0  0  0  0  0  0  0  0  0  0
    4.0109   -0.7691    0.0000 C   0  0  0  0  0  0  0  0  0  0  0  0
    3.6688   -1.7088    0.0000 C   0  0  0  0  0  0  0  0  0  0  0  0
    2.0000   -3.7618    0.0000 C   0  0  0  0  0  0  0  0  0  0  0  0
   10.8887    2.9549    0.0000 H   0  0  0  0  0  0  0  0  0  0  0  0
    7.9841    2.9980    0.0000 H   0  0  0  0  0  0  0  0  0  0  0  0
   10.0625    3.5434    0.0000 H   0  0  0  0  0  0  0  0  0  0  0  0
    7.9120    4.9081    0.0000 H   0  0  0  0  0  0  0  0  0  0  0  0
    7.5012    4.1192    0.0000 H   0  0  0  0  0  0  0  0  0  0  0  0
    9.6442    4.7679    0.0000 H   0  0  0  0  0  0  0  0  0  0  0  0
    8.8779    5.1670    0.0000 H   0  0  0  0  0  0  0  0  0  0  0  0
    7.2738    2.1109    0.0000 H   0  0  0  0  0  0  0  0  0  0  0  0
    7.2642    1.2884    0.0000 H   0  0  0  0  0  0  0  0  0  0  0  0
    9.3372    0.5265    0.0000 H   0  0  0  0  0  0  0  0  0  0  0  0
    9.8734    1.1358    0.0000 H   0  0  0  0  0  0  0  0  0  0  0  0
   11.0146    1.4625    0.0000 H   0  0  0  0  0  0  0  0  0  0  0  0
   11.8117    1.4625    0.0000 H   0  0  0  0  0  0  0  0  0  0  0  0
    7.9501   -0.6945    0.0000 H   0  0  0  0  0  0  0  0  0  0  0  0
    8.5607   -0.1822    0.0000 H   0  0  0  0  0  0  0  0  0  0  0  0
    6.9653    0.3718    0.0000 H   0  0  0  0  0  0  0  0  0  0  0  0
    6.3547   -0.1405    0.0000 H   0  0  0  0  0  0  0  0  0  0  0  0
   13.1452    1.3174    0.0000 H   0  0  0  0  0  0  0  0  0  0  0  0
   11.7422    3.7474    0.0000 H   0  0  0  0  0  0  0  0  0  0  0  0
   13.1452    4.5574    0.0000 H   0  0  0  0  0  0  0  0  0  0  0  0
   15.2988    4.4511    0.0000 H   0  0  0  0  0  0  0  0  0  0  0  0
   14.5006    4.4419    0.0000 H   0  0  0  0  0  0  0  0  0  0  0  0
   14.8980    1.2828    0.0000 H   0  0  0  0  0  0  0  0  0  0  0  0
   16.4221    3.3522    0.0000 H   0  0  0  0  0  0  0  0  0  0  0  0
   16.0203    4.0420    0.0000 H   0  0  0  0  0  0  0  0  0  0  0  0
    5.6950   -2.7762    0.0000 H   0  0  0  0  0  0  0  0  0  0  0  0
    5.2077   -0.0129    0.0000 H   0  0  0  0  0  0  0  0  0  0  0  0
    3.6123   -0.2942    0.0000 H   0  0  0  0  0  0  0  0  0  0  0  0
    3.0583   -1.8165    0.0000 H   0  0  0  0  0  0  0  0  0  0  0  0
    4.3681   -3.8895    0.0000 H   0  0  0  0  0  0  0  0  0  0  0  0
    1.8923   -3.1512    0.0000 H   0  0  0  0  0  0  0  0  0  0  0  0
    1.3894   -3.8695    0.0000 H   0  0  0  0  0  0  0  0  0  0  0  0
    2.1077   -4.3724    0.0000 H   0  0  0  0  0  0  0  0  0  0  0  0
  1  4  2  0  0  0  0
  1  5  2  0  0  0  0
  1  8  1  0  0  0  0
  1 34  1  0  0  0  0
  2 19  1  0  0  0  0
  2 27  1  0  0  0  0
  3 28  2  0  0  0  0
  6 14  1  0  0  0  0
  6 15  1  0  0  0  0
  6 17  1  0  0  0  0
  7 22  1  0  0  0  0
  7 28  1  0  0  0  0
  7 57  1  0  0  0  0
  8 31  1  0  0  0  0
  8 64  1  0  0  0  0
  9 10  1  0  0  0  0
  9 11  1  0  0  0  0
  9 16  1  0  0  0  0
  9 35  1  0  0  0  0
 10 12  1  0  0  0  0
 10 14  1  0  0  0  0
 10 36  1  0  0  0  0
 11 13  1  0  0  0  0
 11 15  1  0  0  0  0
 11 37  1  0  0  0  0
 12 13  1  0  0  0  0
 12 38  1  0  0  0  0
 12 39  1  0  0  0  0
 13 40  1  0  0  0  0
 13 41  1  0  0  0  0
 14 42  1  0  0  0  0
 14 43  1  0  0  0  0
 15 44  1  0  0  0  0
 15 45  1  0  0  0  0
 16 18  1  0  0  0  0
 16 46  1  0  0  0  0
 16 47  1  0  0  0  0
 17 19  1  0  0  0  0
 17 48  1  0  0  0  0
 17 49  1  0  0  0  0
 18 20  2  0  0  0  0
 18 21  1  0  0  0  0
 19 50  1  0  0  0  0
 19 51  1  0  0  0  0
 20 22  1  0  0  0  0
 20 52  1  0  0  0  0
 21 23  2  0  0  0  0
 21 53  1  0  0  0  0
 22 24  2  0  0  0  0
 23 24  1  0  0  0  0
 23 54  1  0  0  0  0
 24 25  1  0  0  0  0
 25 26  1  0  0  0  0
 25 55  1  0  0  0  0
 25 56  1  0  0  0  0
 26 28  1  0  0  0  0
 26 58  1  0  0  0  0
 26 59  1  0  0  0  0
 27 29  1  0  0  0  0
 27 30  2  0  0  0  0
 29 31  2  0  0  0  0
 29 60  1  0  0  0  0
 30 32  1  0  0  0  0
 30 61  1  0  0  0  0
 31 33  1  0  0  0  0
 32 33  2  0  0  0  0
 32 62  1  0  0  0  0
 33 63  1  0  0  0  0
 34 65  1  0  0  0  0
 34 66  1  0  0  0  0
 34 67  1  0  0  0  0
M  END
> <PUBCHEM_COMPOUND_CID>
46889016

> <PUBCHEM_COMPOUND_CANONICALIZED>
1

> <PUBCHEM_CACTVS_COMPLEXITY>
801

> <PUBCHEM_CACTVS_HBOND_ACCEPTOR>
6

> <PUBCHEM_CACTVS_HBOND_DONOR>
2

> <PUBCHEM_CACTVS_ROTATABLE_BOND>
8

> <PUBCHEM_CACTVS_SUBSKEYS>
AAADcfB7OABAAAAAAAAAAAAAAAAAAYAAAAA8eIEABYAAAACxQAAAHgQQQAAADQzhmAayxoPABAKIAiVSUHCCCAAhIgAIiAEObIgOJjLEsZuHOCjm1BnY6AeY2cGewAAAQgACAACAAACEAAQAAQAACAAAAA==

> <PUBCHEM_IUPAC_OPENEYE_NAME>
N-[3-[2-[8-[(2-oxo-3,4-dihydro-1H-quinolin-7-yl)methyl]-3-azabicyclo[3.2.1]octan-3-yl]ethoxy]phenyl]methanesulfonamide

> <PUBCHEM_IUPAC_CAS_NAME>
N-[3-[2-[8-[(2-oxo-3,4-dihydro-1H-quinolin-7-yl)methyl]-3-azabicyclo[3.2.1]octan-3-yl]ethoxy]phenyl]methanesulfonamide

> <PUBCHEM_IUPAC_NAME_MARKUP>
<I>N</I>-[3-[2-[8-[(2-oxo-3,4-dihydro-1<I>H</I>-quinolin-7-yl)methyl]-3-azabicyclo[3.2.1]octan-3-yl]ethoxy]phenyl]methanesulfonamide

> <PUBCHEM_IUPAC_NAME>
N-[3-[2-[8-[(2-oxo-3,4-dihydro-1H-quinolin-7-yl)methyl]-3-azabicyclo[3.2.1]octan-3-yl]ethoxy]phenyl]methanesulfonamide

> <PUBCHEM_IUPAC_SYSTEMATIC_NAME>
N-[3-[2-[8-[(2-oxidanylidene-3,4-dihydro-1H-quinolin-7-yl)methyl]-3-azabicyclo[3.2.1]octan-3-yl]ethoxy]phenyl]methanesulfonamide

> <PUBCHEM_IUPAC_TRADITIONAL_NAME>
N-[3-[2-[8-[(2-keto-3,4-dihydro-1H-quinolin-7-yl)methyl]-3-azabicyclo[3.2.1]octan-3-yl]ethoxy]phenyl]methanesulfonamide

> <PUBCHEM_IUPAC_INCHI>
InChI=1S/C26H33N3O4S/c1-34(31,32)28-22-3-2-4-23(15-22)33-12-11-29-16-20-7-8-21(17-29)24(20)13-18-5-6-19-9-10-26(30)27-25(19)14-18/h2-6,14-15,20-21,24,28H,7-13,16-17H2,1H3,(H,27,30)

> <PUBCHEM_IUPAC_INCHIKEY>
YOOMBGFSQWGFNO-UHFFFAOYSA-N

> <PUBCHEM_XLOGP3_AA>
3

> <PUBCHEM_EXACT_MASS>
483.21917772

> <PUBCHEM_MOLECULAR_FORMULA>
C26H33N3O4S

> <PUBCHEM_MOLECULAR_WEIGHT>
483.6

> <PUBCHEM_OPENEYE_CAN_SMILES>
CS(=O)(=O)NC1=CC(=CC=C1)OCCN2CC3CCC(C2)C3CC4=CC5=C(CCC(=O)N5)C=C4

> <PUBCHEM_OPENEYE_ISO_SMILES>
CS(=O)(=O)NC1=CC(=CC=C1)OCCN2CC3CCC(C2)C3CC4=CC5=C(CCC(=O)N5)C=C4

> <PUBCHEM_CACTVS_TPSA>
96.1

> <PUBCHEM_MONOISOTOPIC_WEIGHT>
483.21917772

> <PUBCHEM_TOTAL_CHARGE>
0

> <PUBCHEM_HEAVY_ATOM_COUNT>
34

> <PUBCHEM_ATOM_DEF_STEREO_COUNT>
0

> <PUBCHEM_ATOM_UDEF_STEREO_COUNT>
2

> <PUBCHEM_BOND_DEF_STEREO_COUNT>
0

> <PUBCHEM_BOND_UDEF_STEREO_COUNT>
0

> <PUBCHEM_ISOTOPIC_ATOM_COUNT>
0

> <PUBCHEM_COMPONENT_COUNT>
1

> <PUBCHEM_CACTVS_TAUTO_COUNT>
-1

> <PUBCHEM_COORDINATE_TYPE>
1
5
255

> <PUBCHEM_BONDANNOTATIONS>
10  12  3
11  13  3
18  20  8
18  21  8
20  22  8
21  23  8
22  24  8
23  24  8
27  29  8
27  30  8
29  31  8
30  32  8
31  33  8
32  33  8

$$$$
