155551269
  -OEChem-09292322412D

171177  0     1  0  0  0  0  0999 V2000
    7.6537    0.8205    0.0000 Cl  0  0  0  0  0  0  0  0  0  0  0  0
    2.0000   -2.0817    0.0000 Cl  0  0  0  0  0  0  0  0  0  0  0  0
    4.8511    2.8566    0.0000 Cl  0  0  0  0  0  0  0  0  0  0  0  0
   45.6822   -2.0346    0.0000 O   0  0  0  0  0  0  0  0  0  0  0  0
   36.1396    0.5000    0.0000 O   0  0  0  0  0  0  0  0  0  0  0  0
   33.5415   -2.0000    0.0000 O   0  0  0  0  0  0  0  0  0  0  0  0
   16.2210   -1.0000    0.0000 O   0  0  0  0  0  0  0  0  0  0  0  0
    8.4268   -3.5000    0.0000 O   0  0  0  0  0  0  0  0  0  0  0  0
   27.4793    0.5000    0.0000 O   0  0  0  0  0  0  0  0  0  0  0  0
   22.2832   -3.5000    0.0000 O   0  0  0  0  0  0  0  0  0  0  0  0
   42.2018    1.0000    0.0000 N   0  0  3  0  0  0  0  0  0  0  0  0
   37.0056   -1.0000    0.0000 N   0  0  0  0  0  0  0  0  0  0  0  0
   32.6755   -0.5000    0.0000 N   0  0  0  0  0  0  0  0  0  0  0  0
   15.3550   -2.5000    0.0000 N   0  0  0  0  0  0  0  0  0  0  0  0
    9.2928   -2.0000    0.0000 N   0  0  0  0  0  0  0  0  0  0  0  0
    6.4781   -0.7976    0.0000 N   0  0  0  0  0  0  0  0  0  0  0  0
   21.4172   -2.0000    0.0000 N   0  0  0  0  0  0  0  0  0  0  0  0
    7.4562   -1.0055    0.0000 N   0  0  0  0  0  0  0  0  0  0  0  0
   26.6133   -1.0000    0.0000 N   0  0  0  0  0  0  0  0  0  0  0  0
   43.0678    0.5000    0.0000 C   0  0  3  0  0  0  0  0  0  0  0  0
   43.0678   -0.5000    0.0000 C   0  0  0  0  0  0  0  0  0  0  0  0
   43.9338    1.0000    0.0000 C   0  0  0  0  0  0  0  0  0  0  0  0
   43.9338   -1.0000    0.0000 C   0  0  0  0  0  0  0  0  0  0  0  0
   44.7999    0.5000    0.0000 C   0  0  0  0  0  0  0  0  0  0  0  0
   44.7999   -0.5000    0.0000 C   0  0  0  0  0  0  0  0  0  0  0  0
   41.3358    0.5000    0.0000 C   0  0  0  0  0  0  0  0  0  0  0  0
   42.2018    2.0000    0.0000 C   0  0  0  0  0  0  0  0  0  0  0  0
   40.4697    1.0000    0.0000 C   0  0  0  0  0  0  0  0  0  0  0  0
   45.6938    1.0347    0.0000 C   0  0  0  0  0  0  0  0  0  0  0  0
   45.6938   -1.0347    0.0000 C   0  0  0  0  0  0  0  0  0  0  0  0
   41.3358    2.5000    0.0000 C   0  0  0  0  0  0  0  0  0  0  0  0
   46.5999    0.5208    0.0000 C   0  0  0  0  0  0  0  0  0  0  0  0
   46.5999   -0.5208    0.0000 C   0  0  0  0  0  0  0  0  0  0  0  0
   39.6037    0.5000    0.0000 C   0  0  0  0  0  0  0  0  0  0  0  0
   41.3358    3.5000    0.0000 C   0  0  0  0  0  0  0  0  0  0  0  0
   39.6037   -0.5000    0.0000 C   0  0  0  0  0  0  0  0  0  0  0  0
   38.7377    1.0000    0.0000 C   0  0  0  0  0  0  0  0  0  0  0  0
   38.7377   -1.0000    0.0000 C   0  0  0  0  0  0  0  0  0  0  0  0
   37.8717    0.5000    0.0000 C   0  0  0  0  0  0  0  0  0  0  0  0
   37.8717   -0.5000    0.0000 C   0  0  0  0  0  0  0  0  0  0  0  0
   36.1396   -0.5000    0.0000 C   0  0  0  0  0  0  0  0  0  0  0  0
   35.2736   -1.0000    0.0000 C   0  0  0  0  0  0  0  0  0  0  0  0
   34.4076   -0.5000    0.0000 C   0  0  0  0  0  0  0  0  0  0  0  0
   33.5415   -1.0000    0.0000 C   0  0  0  0  0  0  0  0  0  0  0  0
   12.7569   -2.0000    0.0000 C   0  0  0  0  0  0  0  0  0  0  0  0
   11.8909   -2.5000    0.0000 C   0  0  0  0  0  0  0  0  0  0  0  0
   13.6229   -2.5000    0.0000 C   0  0  0  0  0  0  0  0  0  0  0  0
   11.0249   -2.0000    0.0000 C   0  0  0  0  0  0  0  0  0  0  0  0
   14.4890   -2.0000    0.0000 C   0  0  0  0  0  0  0  0  0  0  0  0
   31.8095   -1.0000    0.0000 C   0  0  0  0  0  0  0  0  0  0  0  0
   30.9434   -0.5000    0.0000 C   0  0  0  0  0  0  0  0  0  0  0  0
   10.1588   -2.5000    0.0000 C   0  0  0  0  0  0  0  0  0  0  0  0
   17.9531   -2.0000    0.0000 C   0  0  0  0  0  0  0  0  0  0  0  0
   18.8191   -2.5000    0.0000 C   0  0  0  0  0  0  0  0  0  0  0  0
   30.0774   -1.0000    0.0000 C   0  0  0  0  0  0  0  0  0  0  0  0
   17.0870   -2.5000    0.0000 C   0  0  0  0  0  0  0  0  0  0  0  0
   19.6851   -2.0000    0.0000 C   0  0  0  0  0  0  0  0  0  0  0  0
   29.2114   -0.5000    0.0000 C   0  0  0  0  0  0  0  0  0  0  0  0
   16.2210   -2.0000    0.0000 C   0  0  0  0  0  0  0  0  0  0  0  0
   20.5511   -2.5000    0.0000 C   0  0  0  0  0  0  0  0  0  0  0  0
   28.3454   -1.0000    0.0000 C   0  0  0  0  0  0  0  0  0  0  0  0
    8.4268   -2.5000    0.0000 C   0  0  0  0  0  0  0  0  0  0  0  0
    7.5608   -2.0000    0.0000 C   0  0  0  0  0  0  0  0  0  0  0  0
    6.6472   -2.4067    0.0000 C   0  0  0  0  0  0  0  0  0  0  0  0
    5.9781   -1.6636    0.0000 C   0  0  0  0  0  0  0  0  0  0  0  0
   27.4793   -0.5000    0.0000 C   0  0  0  0  0  0  0  0  0  0  0  0
    4.9836   -1.7681    0.0000 C   0  0  0  0  0  0  0  0  0  0  0  0
    6.4393   -3.3849    0.0000 C   0  0  0  0  0  0  0  0  0  0  0  0
    6.0714    0.1160    0.0000 C   0  0  0  0  0  0  0  0  0  0  0  0
   22.2832   -2.5000    0.0000 C   0  0  0  0  0  0  0  0  0  0  0  0
   25.7473   -0.5000    0.0000 C   0  0  0  0  0  0  0  0  0  0  0  0
   23.1492   -2.0000    0.0000 C   0  0  0  0  0  0  0  0  0  0  0  0
   24.8813   -1.0000    0.0000 C   0  0  0  0  0  0  0  0  0  0  0  0
    4.5768   -2.6817    0.0000 C   0  0  0  0  0  0  0  0  0  0  0  0
    4.3958   -0.9591    0.0000 C   0  0  0  0  0  0  0  0  0  0  0  0
   23.1492   -1.0000    0.0000 C   0  0  0  0  0  0  0  0  0  0  0  0
   24.0152   -2.5000    0.0000 C   0  0  0  0  0  0  0  0  0  0  0  0
   24.0152   -0.5000    0.0000 C   0  0  0  0  0  0  0  0  0  0  0  0
   24.8813   -2.0000    0.0000 C   0  0  0  0  0  0  0  0  0  0  0  0
    6.6591    0.9250    0.0000 C   0  0  0  0  0  0  0  0  0  0  0  0
    5.0768    0.2205    0.0000 C   0  0  0  0  0  0  0  0  0  0  0  0
    3.5823   -2.7862    0.0000 C   0  0  0  0  0  0  0  0  0  0  0  0
    3.4013   -1.0636    0.0000 C   0  0  0  0  0  0  0  0  0  0  0  0
    6.2524    1.8385    0.0000 C   0  0  0  0  0  0  0  0  0  0  0  0
    4.6701    1.1340    0.0000 C   0  0  0  0  0  0  0  0  0  0  0  0
    2.9945   -1.9772    0.0000 C   0  0  0  0  0  0  0  0  0  0  0  0
    5.2579    1.9431    0.0000 C   0  0  0  0  0  0  0  0  0  0  0  0
   43.0678    1.1200    0.0000 H   0  0  0  0  0  0  0  0  0  0  0  0
   42.4572   -0.3923    0.0000 H   0  0  0  0  0  0  0  0  0  0  0  0
   42.8558   -1.0826    0.0000 H   0  0  0  0  0  0  0  0  0  0  0  0
   44.3324    1.4750    0.0000 H   0  0  0  0  0  0  0  0  0  0  0  0
   43.5353    1.4750    0.0000 H   0  0  0  0  0  0  0  0  0  0  0  0
   43.5353   -1.4750    0.0000 H   0  0  0  0  0  0  0  0  0  0  0  0
   44.3324   -1.4750    0.0000 H   0  0  0  0  0  0  0  0  0  0  0  0
   40.9372    0.0251    0.0000 H   0  0  0  0  0  0  0  0  0  0  0  0
   41.7343    0.0251    0.0000 H   0  0  0  0  0  0  0  0  0  0  0  0
   42.8124    1.8923    0.0000 H   0  0  0  0  0  0  0  0  0  0  0  0
   42.4138    2.5826    0.0000 H   0  0  0  0  0  0  0  0  0  0  0  0
   40.8683    1.4750    0.0000 H   0  0  0  0  0  0  0  0  0  0  0  0
   40.0712    1.4750    0.0000 H   0  0  0  0  0  0  0  0  0  0  0  0
   45.6866    1.6546    0.0000 H   0  0  0  0  0  0  0  0  0  0  0  0
   40.7252    2.6077    0.0000 H   0  0  0  0  0  0  0  0  0  0  0  0
   41.1237    1.9174    0.0000 H   0  0  0  0  0  0  0  0  0  0  0  0
   47.1356    0.8329    0.0000 H   0  0  0  0  0  0  0  0  0  0  0  0
   47.1356   -0.8329    0.0000 H   0  0  0  0  0  0  0  0  0  0  0  0
   41.9558    3.5000    0.0000 H   0  0  0  0  0  0  0  0  0  0  0  0
   41.3358    4.1200    0.0000 H   0  0  0  0  0  0  0  0  0  0  0  0
   40.7158    3.5000    0.0000 H   0  0  0  0  0  0  0  0  0  0  0  0
   46.2155   -2.3508    0.0000 H   0  0  0  0  0  0  0  0  0  0  0  0
   40.1406   -0.8100    0.0000 H   0  0  0  0  0  0  0  0  0  0  0  0
   38.7377    1.6200    0.0000 H   0  0  0  0  0  0  0  0  0  0  0  0
   38.7377   -1.6200    0.0000 H   0  0  0  0  0  0  0  0  0  0  0  0
   37.3347    0.8100    0.0000 H   0  0  0  0  0  0  0  0  0  0  0  0
   37.0056   -1.6200    0.0000 H   0  0  0  0  0  0  0  0  0  0  0  0
   34.8750   -1.4750    0.0000 H   0  0  0  0  0  0  0  0  0  0  0  0
   35.6721   -1.4750    0.0000 H   0  0  0  0  0  0  0  0  0  0  0  0
   34.8061   -0.0251    0.0000 H   0  0  0  0  0  0  0  0  0  0  0  0
   34.0090   -0.0251    0.0000 H   0  0  0  0  0  0  0  0  0  0  0  0
   13.1554   -1.5250    0.0000 H   0  0  0  0  0  0  0  0  0  0  0  0
   12.3584   -1.5250    0.0000 H   0  0  0  0  0  0  0  0  0  0  0  0
   11.4924   -2.9750    0.0000 H   0  0  0  0  0  0  0  0  0  0  0  0
   12.2894   -2.9750    0.0000 H   0  0  0  0  0  0  0  0  0  0  0  0
   13.2244   -2.9750    0.0000 H   0  0  0  0  0  0  0  0  0  0  0  0
   14.0215   -2.9750    0.0000 H   0  0  0  0  0  0  0  0  0  0  0  0
   11.4234   -1.5250    0.0000 H   0  0  0  0  0  0  0  0  0  0  0  0
   10.6263   -1.5250    0.0000 H   0  0  0  0  0  0  0  0  0  0  0  0
   32.6755    0.1200    0.0000 H   0  0  0  0  0  0  0  0  0  0  0  0
   14.8875   -1.5250    0.0000 H   0  0  0  0  0  0  0  0  0  0  0  0
   14.0904   -1.5250    0.0000 H   0  0  0  0  0  0  0  0  0  0  0  0
   31.4109   -1.4750    0.0000 H   0  0  0  0  0  0  0  0  0  0  0  0
   32.2080   -1.4750    0.0000 H   0  0  0  0  0  0  0  0  0  0  0  0
    9.7603   -2.9750    0.0000 H   0  0  0  0  0  0  0  0  0  0  0  0
   10.5574   -2.9750    0.0000 H   0  0  0  0  0  0  0  0  0  0  0  0
   31.3420   -0.0251    0.0000 H   0  0  0  0  0  0  0  0  0  0  0  0
   30.5449   -0.0251    0.0000 H   0  0  0  0  0  0  0  0  0  0  0  0
   18.3516   -1.5250    0.0000 H   0  0  0  0  0  0  0  0  0  0  0  0
   17.5545   -1.5250    0.0000 H   0  0  0  0  0  0  0  0  0  0  0  0
   18.4206   -2.9750    0.0000 H   0  0  0  0  0  0  0  0  0  0  0  0
   19.2176   -2.9750    0.0000 H   0  0  0  0  0  0  0  0  0  0  0  0
   29.6789   -1.4750    0.0000 H   0  0  0  0  0  0  0  0  0  0  0  0
   30.4760   -1.4750    0.0000 H   0  0  0  0  0  0  0  0  0  0  0  0
   16.6885   -2.9750    0.0000 H   0  0  0  0  0  0  0  0  0  0  0  0
   17.4856   -2.9750    0.0000 H   0  0  0  0  0  0  0  0  0  0  0  0
   20.0836   -1.5250    0.0000 H   0  0  0  0  0  0  0  0  0  0  0  0
   19.2866   -1.5250    0.0000 H   0  0  0  0  0  0  0  0  0  0  0  0
   15.3550   -3.1200    0.0000 H   0  0  0  0  0  0  0  0  0  0  0  0
   29.6099   -0.0251    0.0000 H   0  0  0  0  0  0  0  0  0  0  0  0
   28.8129   -0.0251    0.0000 H   0  0  0  0  0  0  0  0  0  0  0  0
    9.2928   -1.3800    0.0000 H   0  0  0  0  0  0  0  0  0  0  0  0
   20.1526   -2.9750    0.0000 H   0  0  0  0  0  0  0  0  0  0  0  0
   20.9497   -2.9750    0.0000 H   0  0  0  0  0  0  0  0  0  0  0  0
   27.9468   -1.4750    0.0000 H   0  0  0  0  0  0  0  0  0  0  0  0
   28.7439   -1.4750    0.0000 H   0  0  0  0  0  0  0  0  0  0  0  0
   21.4172   -1.3800    0.0000 H   0  0  0  0  0  0  0  0  0  0  0  0
    5.8328   -3.2560    0.0000 H   0  0  0  0  0  0  0  0  0  0  0  0
    6.3104   -3.9913    0.0000 H   0  0  0  0  0  0  0  0  0  0  0  0
    7.0458   -3.5138    0.0000 H   0  0  0  0  0  0  0  0  0  0  0  0
   26.6133   -1.6200    0.0000 H   0  0  0  0  0  0  0  0  0  0  0  0
   26.1458   -0.0251    0.0000 H   0  0  0  0  0  0  0  0  0  0  0  0
   25.3488   -0.0251    0.0000 H   0  0  0  0  0  0  0  0  0  0  0  0
    4.9413   -3.1833    0.0000 H   0  0  0  0  0  0  0  0  0  0  0  0
    4.6480   -0.3927    0.0000 H   0  0  0  0  0  0  0  0  0  0  0  0
   22.6123   -0.6900    0.0000 H   0  0  0  0  0  0  0  0  0  0  0  0
   24.0152   -3.1200    0.0000 H   0  0  0  0  0  0  0  0  0  0  0  0
   24.0152    0.1200    0.0000 H   0  0  0  0  0  0  0  0  0  0  0  0
   25.4182   -2.3100    0.0000 H   0  0  0  0  0  0  0  0  0  0  0  0
    4.7124   -0.2811    0.0000 H   0  0  0  0  0  0  0  0  0  0  0  0
    3.3301   -3.3526    0.0000 H   0  0  0  0  0  0  0  0  0  0  0  0
    3.0368   -0.5620    0.0000 H   0  0  0  0  0  0  0  0  0  0  0  0
    6.6168    2.3401    0.0000 H   0  0  0  0  0  0  0  0  0  0  0  0
    4.0535    1.1989    0.0000 H   0  0  0  0  0  0  0  0  0  0  0  0
  1 80  1  0  0  0  0
  2 86  1  0  0  0  0
  3 87  1  0  0  0  0
  4 30  1  0  0  0  0
  4109  1  0  0  0  0
  5 41  2  0  0  0  0
  6 44  2  0  0  0  0
  7 59  2  0  0  0  0
  8 62  2  0  0  0  0
  9 66  2  0  0  0  0
 10 70  2  0  0  0  0
 11 20  1  0  0  0  0
 11 26  1  0  0  0  0
 11 27  1  0  0  0  0
 12 40  1  0  0  0  0
 12 41  1  0  0  0  0
 12114  1  0  0  0  0
 13 44  1  0  0  0  0
 13 50  1  0  0  0  0
 13127  1  0  0  0  0
 14 49  1  0  0  0  0
 14 59  1  0  0  0  0
 14146  1  0  0  0  0
 15 52  1  0  0  0  0
 15 62  1  0  0  0  0
 15149  1  0  0  0  0
 16 18  1  0  0  0  0
 16 65  1  0  0  0  0
 16 69  1  0  0  0  0
 17 60  1  0  0  0  0
 17 70  1  0  0  0  0
 17154  1  0  0  0  0
 18 63  2  0  0  0  0
 19 66  1  0  0  0  0
 19 71  1  0  0  0  0
 19158  1  0  0  0  0
 20 21  1  0  0  0  0
 20 22  1  0  0  0  0
 20 88  1  0  0  0  0
 21 23  1  0  0  0  0
 21 89  1  0  0  0  0
 21 90  1  0  0  0  0
 22 24  1  0  0  0  0
 22 91  1  0  0  0  0
 22 92  1  0  0  0  0
 23 25  1  0  0  0  0
 23 93  1  0  0  0  0
 23 94  1  0  0  0  0
 24 25  2  0  0  0  0
 24 29  1  0  0  0  0
 25 30  1  0  0  0  0
 26 28  1  0  0  0  0
 26 95  1  0  0  0  0
 26 96  1  0  0  0  0
 27 31  1  0  0  0  0
 27 97  1  0  0  0  0
 27 98  1  0  0  0  0
 28 34  1  0  0  0  0
 28 99  1  0  0  0  0
 28100  1  0  0  0  0
 29 32  2  0  0  0  0
 29101  1  0  0  0  0
 30 33  2  0  0  0  0
 31 35  1  0  0  0  0
 31102  1  0  0  0  0
 31103  1  0  0  0  0
 32 33  1  0  0  0  0
 32104  1  0  0  0  0
 33105  1  0  0  0  0
 34 36  2  0  0  0  0
 34 37  1  0  0  0  0
 35106  1  0  0  0  0
 35107  1  0  0  0  0
 35108  1  0  0  0  0
 36 38  1  0  0  0  0
 36110  1  0  0  0  0
 37 39  2  0  0  0  0
 37111  1  0  0  0  0
 38 40  2  0  0  0  0
 38112  1  0  0  0  0
 39 40  1  0  0  0  0
 39113  1  0  0  0  0
 41 42  1  0  0  0  0
 42 43  1  0  0  0  0
 42115  1  0  0  0  0
 42116  1  0  0  0  0
 43 44  1  0  0  0  0
 43117  1  0  0  0  0
 43118  1  0  0  0  0
 45 46  1  0  0  0  0
 45 47  1  0  0  0  0
 45119  1  0  0  0  0
 45120  1  0  0  0  0
 46 48  1  0  0  0  0
 46121  1  0  0  0  0
 46122  1  0  0  0  0
 47 49  1  0  0  0  0
 47123  1  0  0  0  0
 47124  1  0  0  0  0
 48 52  1  0  0  0  0
 48125  1  0  0  0  0
 48126  1  0  0  0  0
 49128  1  0  0  0  0
 49129  1  0  0  0  0
 50 51  1  0  0  0  0
 50130  1  0  0  0  0
 50131  1  0  0  0  0
 51 55  1  0  0  0  0
 51134  1  0  0  0  0
 51135  1  0  0  0  0
 52132  1  0  0  0  0
 52133  1  0  0  0  0
 53 54  1  0  0  0  0
 53 56  1  0  0  0  0
 53136  1  0  0  0  0
 53137  1  0  0  0  0
 54 57  1  0  0  0  0
 54138  1  0  0  0  0
 54139  1  0  0  0  0
 55 58  1  0  0  0  0
 55140  1  0  0  0  0
 55141  1  0  0  0  0
 56 59  1  0  0  0  0
 56142  1  0  0  0  0
 56143  1  0  0  0  0
 57 60  1  0  0  0  0
 57144  1  0  0  0  0
 57145  1  0  0  0  0
 58 61  1  0  0  0  0
 58147  1  0  0  0  0
 58148  1  0  0  0  0
 60150  1  0  0  0  0
 60151  1  0  0  0  0
 61 66  1  0  0  0  0
 61152  1  0  0  0  0
 61153  1  0  0  0  0
 62 63  1  0  0  0  0
 63 64  1  0  0  0  0
 64 65  2  0  0  0  0
 64 68  1  0  0  0  0
 65 67  1  0  0  0  0
 67 74  2  0  0  0  0
 67 75  1  0  0  0  0
 68155  1  0  0  0  0
 68156  1  0  0  0  0
 68157  1  0  0  0  0
 69 80  2  0  0  0  0
 69 81  1  0  0  0  0
 70 72  1  0  0  0  0
 71 73  1  0  0  0  0
 71159  1  0  0  0  0
 71160  1  0  0  0  0
 72 76  2  0  0  0  0
 72 77  1  0  0  0  0
 73 78  2  0  0  0  0
 73 79  1  0  0  0  0
 74 82  1  0  0  0  0
 74161  1  0  0  0  0
 75 83  2  0  0  0  0
 75162  1  0  0  0  0
 76 78  1  0  0  0  0
 76163  1  0  0  0  0
 77 79  2  0  0  0  0
 77164  1  0  0  0  0
 78165  1  0  0  0  0
 79166  1  0  0  0  0
 80 84  1  0  0  0  0
 81 85  2  0  0  0  0
 81167  1  0  0  0  0
 82 86  2  0  0  0  0
 82168  1  0  0  0  0
 83 86  1  0  0  0  0
 83169  1  0  0  0  0
 84 87  2  0  0  0  0
 84170  1  0  0  0  0
 85 87  1  0  0  0  0
 85171  1  0  0  0  0
M  END
> <PUBCHEM_COMPOUND_CID>
155551269

> <PUBCHEM_COMPOUND_CANONICALIZED>
1

> <PUBCHEM_CACTVS_COMPLEXITY>
2060

> <PUBCHEM_CACTVS_HBOND_ACCEPTOR>
9

> <PUBCHEM_CACTVS_HBOND_DONOR>
7

> <PUBCHEM_CACTVS_ROTATABLE_BOND>
35

> <PUBCHEM_CACTVS_SUBSKEYS>
AAADcfB/+AAGAAAAAAAAAAAAAAAAAWAAAAAwYMGDAAAAAADB1AAAHgIYCAAADC7BniQyxpPIAgCqAyVyVACSBCAnJwAYmKGubtgIZvLD19PU9Qhk3hHI2Yed2POOzABBAACYABCYAIKAATAAIAAAAAAAAA==

> <PUBCHEM_IUPAC_OPENEYE_NAME>
N-[6-[[4-[[6-[6-[[5-(4-chlorophenyl)-1-(2,4-dichlorophenyl)-4-methyl-pyrazole-3-carbonyl]amino]hexylamino]-6-oxo-hexyl]carbamoyl]phenyl]methylamino]-6-oxo-hexyl]-N'-[4-[2-[(5-hydroxytetralin-2-yl)-propyl-amino]ethyl]phenyl]butanediamide

> <PUBCHEM_IUPAC_CAS_NAME>
N-[6-[[4-[[[6-[6-[[[5-(4-chlorophenyl)-1-(2,4-dichlorophenyl)-4-methyl-3-pyrazolyl]-oxomethyl]amino]hexylamino]-6-oxohexyl]amino]-oxomethyl]phenyl]methylamino]-6-oxohexyl]-N'-[4-[2-[(5-hydroxy-1,2,3,4-tetrahydronaphthalen-2-yl)-propylamino]ethyl]phenyl]butanediamide

> <PUBCHEM_IUPAC_NAME_MARKUP>
<I>N</I>-[6-[[4-[[6-[6-[[5-(4-chlorophenyl)-1-(2,4-dichlorophenyl)-4-methylpyrazole-3-carbonyl]amino]hexylamino]-6-oxohexyl]carbamoyl]phenyl]methylamino]-6-oxohexyl]-<I>N</I>&apos;-[4-[2-[(5-hydroxy-1,2,3,4-tetrahydronaphthalen-2-yl)-propylamino]ethyl]phenyl]butanediamide

> <PUBCHEM_IUPAC_NAME>
N-[6-[[4-[[6-[6-[[5-(4-chlorophenyl)-1-(2,4-dichlorophenyl)-4-methylpyrazole-3-carbonyl]amino]hexylamino]-6-oxohexyl]carbamoyl]phenyl]methylamino]-6-oxohexyl]-N'-[4-[2-[(5-hydroxy-1,2,3,4-tetrahydronaphthalen-2-yl)-propylamino]ethyl]phenyl]butanediamide

> <PUBCHEM_IUPAC_SYSTEMATIC_NAME>
N-[6-[[4-[[6-[6-[[5-(4-chlorophenyl)-1-(2,4-dichlorophenyl)-4-methyl-pyrazol-3-yl]carbonylamino]hexylamino]-6-oxidanylidene-hexyl]carbamoyl]phenyl]methylamino]-6-oxidanylidene-hexyl]-N'-[4-[2-[(5-oxidanyl-1,2,3,4-tetrahydronaphthalen-2-yl)-propyl-amino]ethyl]phenyl]butanediamide

> <PUBCHEM_IUPAC_TRADITIONAL_NAME>
N-[6-[[4-[[6-[6-[[5-(4-chlorophenyl)-1-(2,4-dichlorophenyl)-4-methyl-pyrazole-3-carbonyl]amino]hexylamino]-6-keto-hexyl]carbamoyl]benzyl]amino]-6-keto-hexyl]-N'-[4-[2-[(5-hydroxytetralin-2-yl)-propyl-amino]ethyl]phenyl]succinamide

> <PUBCHEM_IUPAC_INCHI>
InChI=1S/C68H84Cl3N9O7/c1-3-42-79(56-32-33-57-52(44-56)15-14-16-60(57)81)43-37-48-21-30-55(31-22-48)77-64(85)36-35-63(84)73-39-12-6-9-18-62(83)76-46-49-19-23-51(24-20-49)67(86)74-40-13-7-8-17-61(82)72-38-10-4-5-11-41-75-68(87)65-47(2)66(50-25-27-53(69)28-26-50)80(78-65)59-34-29-54(70)45-58(59)71/h14-16,19-31,34,45,56,81H,3-13,17-18,32-33,35-44,46H2,1-2H3,(H,72,82)(H,73,84)(H,74,86)(H,75,87)(H,76,83)(H,77,85)

> <PUBCHEM_IUPAC_INCHIKEY>
MWDRDYKQKODQGI-UHFFFAOYSA-N

> <PUBCHEM_XLOGP3_AA>
11.6

> <PUBCHEM_EXACT_MASS>
1243.555929

> <PUBCHEM_MOLECULAR_FORMULA>
C68H84Cl3N9O7

> <PUBCHEM_MOLECULAR_WEIGHT>
1245.8

> <PUBCHEM_OPENEYE_CAN_SMILES>
CCCN(CCC1=CC=C(C=C1)NC(=O)CCC(=O)NCCCCCC(=O)NCC2=CC=C(C=C2)C(=O)NCCCCCC(=O)NCCCCCCNC(=O)C3=NN(C(=C3C)C4=CC=C(C=C4)Cl)C5=C(C=C(C=C5)Cl)Cl)C6CCC7=C(C6)C=CC=C7O

> <PUBCHEM_OPENEYE_ISO_SMILES>
CCCN(CCC1=CC=C(C=C1)NC(=O)CCC(=O)NCCCCCC(=O)NCC2=CC=C(C=C2)C(=O)NCCCCCC(=O)NCCCCCCNC(=O)C3=NN(C(=C3C)C4=CC=C(C=C4)Cl)C5=C(C=C(C=C5)Cl)Cl)C6CCC7=C(C6)C=CC=C7O

> <PUBCHEM_CACTVS_TPSA>
216

> <PUBCHEM_MONOISOTOPIC_WEIGHT>
1243.555929

> <PUBCHEM_TOTAL_CHARGE>
0

> <PUBCHEM_HEAVY_ATOM_COUNT>
87

> <PUBCHEM_ATOM_DEF_STEREO_COUNT>
0

> <PUBCHEM_ATOM_UDEF_STEREO_COUNT>
1

> <PUBCHEM_BOND_DEF_STEREO_COUNT>
0

> <PUBCHEM_BOND_UDEF_STEREO_COUNT>
0

> <PUBCHEM_ISOTOPIC_ATOM_COUNT>
0

> <PUBCHEM_COMPONENT_COUNT>
1

> <PUBCHEM_CACTVS_TAUTO_COUNT>
-1

> <PUBCHEM_COORDINATE_TYPE>
1
5
255

> <PUBCHEM_BONDANNOTATIONS>
20  11  3
16  18  8
16  65  8
18  63  8
24  25  8
24  29  8
25  30  8
29  32  8
30  33  8
32  33  8
34  36  8
34  37  8
36  38  8
37  39  8
38  40  8
39  40  8
63  64  8
64  65  8
67  74  8
67  75  8
69  80  8
69  81  8
72  76  8
72  77  8
73  78  8
73  79  8
74  82  8
75  83  8
76  78  8
77  79  8
80  84  8
81  85  8
82  86  8
83  86  8
84  87  8
85  87  8

$$$$
