44287180
  -OEChem-09292322502D

 54 56  0     1  0  0  0  0  0999 V2000
    6.3405   -0.7328    0.0000 O   0  0  0  0  0  0  0  0  0  0  0  0
    2.8602   -1.7874    0.0000 O   0  0  0  0  0  0  0  0  0  0  0  0
    8.0726    1.2672    0.0000 N   0  0  0  0  0  0  0  0  0  0  0  0
    7.2066    0.7672    0.0000 C   0  0  3  0  0  0  0  0  0  0  0  0
    6.3405    1.2672    0.0000 C   0  0  0  0  0  0  0  0  0  0  0  0
    7.2066   -0.2328    0.0000 C   0  0  0  0  0  0  0  0  0  0  0  0
    5.4745    0.7672    0.0000 C   0  0  0  0  0  0  0  0  0  0  0  0
    8.9386    0.7672    0.0000 C   0  0  0  0  0  0  0  0  0  0  0  0
    8.0726    2.2672    0.0000 C   0  0  0  0  0  0  0  0  0  0  0  0
    5.4745   -0.2328    0.0000 C   0  0  0  0  0  0  0  0  0  0  0  0
    9.8046    1.2672    0.0000 C   0  0  0  0  0  0  0  0  0  0  0  0
    8.9386    2.7672    0.0000 C   0  0  0  0  0  0  0  0  0  0  0  0
    4.5806   -0.7674    0.0000 C   0  0  0  0  0  0  0  0  0  0  0  0
    4.5806    1.3019    0.0000 C   0  0  0  0  0  0  0  0  0  0  0  0
    3.6745   -0.2536    0.0000 C   0  0  0  0  0  0  0  0  0  0  0  0
    3.6745    0.7880    0.0000 C   0  0  0  0  0  0  0  0  0  0  0  0
   10.6707    0.7672    0.0000 C   0  0  0  0  0  0  0  0  0  0  0  0
    8.9386    3.7672    0.0000 C   0  0  0  0  0  0  0  0  0  0  0  0
    4.5921   -1.7674    0.0000 C   0  0  0  0  0  0  0  0  0  0  0  0
    3.7319   -2.2773    0.0000 C   0  0  0  0  0  0  0  0  0  0  0  0
    5.4639   -2.2573    0.0000 C   0  0  0  0  0  0  0  0  0  0  0  0
    3.7435   -3.2773    0.0000 C   0  0  0  0  0  0  0  0  0  0  0  0
    5.4754   -3.2572    0.0000 C   0  0  0  0  0  0  0  0  0  0  0  0
    4.6152   -3.7672    0.0000 C   0  0  0  0  0  0  0  0  0  0  0  0
    2.0000   -2.2974    0.0000 C   0  0  0  0  0  0  0  0  0  0  0  0
    7.7435    0.4572    0.0000 H   0  0  0  0  0  0  0  0  0  0  0  0
    6.7390    1.7422    0.0000 H   0  0  0  0  0  0  0  0  0  0  0  0
    5.9420    1.7422    0.0000 H   0  0  0  0  0  0  0  0  0  0  0  0
    7.4186   -0.8154    0.0000 H   0  0  0  0  0  0  0  0  0  0  0  0
    7.8171   -0.1251    0.0000 H   0  0  0  0  0  0  0  0  0  0  0  0
    8.5401    0.2923    0.0000 H   0  0  0  0  0  0  0  0  0  0  0  0
    9.3371    0.2923    0.0000 H   0  0  0  0  0  0  0  0  0  0  0  0
    7.8605    2.8498    0.0000 H   0  0  0  0  0  0  0  0  0  0  0  0
    7.4620    2.1596    0.0000 H   0  0  0  0  0  0  0  0  0  0  0  0
   10.2032    1.7422    0.0000 H   0  0  0  0  0  0  0  0  0  0  0  0
    9.4061    1.7422    0.0000 H   0  0  0  0  0  0  0  0  0  0  0  0
    9.1506    2.1846    0.0000 H   0  0  0  0  0  0  0  0  0  0  0  0
    9.5492    2.8749    0.0000 H   0  0  0  0  0  0  0  0  0  0  0  0
    4.5877    1.9218    0.0000 H   0  0  0  0  0  0  0  0  0  0  0  0
    3.1388   -0.5657    0.0000 H   0  0  0  0  0  0  0  0  0  0  0  0
    3.1388    1.1001    0.0000 H   0  0  0  0  0  0  0  0  0  0  0  0
   10.3607    0.2303    0.0000 H   0  0  0  0  0  0  0  0  0  0  0  0
   11.2076    0.4572    0.0000 H   0  0  0  0  0  0  0  0  0  0  0  0
   10.9807    1.3042    0.0000 H   0  0  0  0  0  0  0  0  0  0  0  0
    9.5586    3.7672    0.0000 H   0  0  0  0  0  0  0  0  0  0  0  0
    8.9386    4.3872    0.0000 H   0  0  0  0  0  0  0  0  0  0  0  0
    8.3186    3.7672    0.0000 H   0  0  0  0  0  0  0  0  0  0  0  0
    5.9972   -1.9411    0.0000 H   0  0  0  0  0  0  0  0  0  0  0  0
    3.2102   -3.5935    0.0000 H   0  0  0  0  0  0  0  0  0  0  0  0
    6.0159   -3.5610    0.0000 H   0  0  0  0  0  0  0  0  0  0  0  0
    4.6224   -4.3872    0.0000 H   0  0  0  0  0  0  0  0  0  0  0  0
    1.6838   -1.7641    0.0000 H   0  0  0  0  0  0  0  0  0  0  0  0
    1.4667   -2.6136    0.0000 H   0  0  0  0  0  0  0  0  0  0  0  0
    2.3162   -2.8307    0.0000 H   0  0  0  0  0  0  0  0  0  0  0  0
  1  6  1  0  0  0  0
  1 10  1  0  0  0  0
  2 20  1  0  0  0  0
  2 25  1  0  0  0  0
  3  4  1  0  0  0  0
  3  8  1  0  0  0  0
  3  9  1  0  0  0  0
  4  5  1  0  0  0  0
  4  6  1  0  0  0  0
  4 26  1  0  0  0  0
  5  7  1  0  0  0  0
  5 27  1  0  0  0  0
  5 28  1  0  0  0  0
  6 29  1  0  0  0  0
  6 30  1  0  0  0  0
  7 10  2  0  0  0  0
  7 14  1  0  0  0  0
  8 11  1  0  0  0  0
  8 31  1  0  0  0  0
  8 32  1  0  0  0  0
  9 12  1  0  0  0  0
  9 33  1  0  0  0  0
  9 34  1  0  0  0  0
 10 13  1  0  0  0  0
 11 17  1  0  0  0  0
 11 35  1  0  0  0  0
 11 36  1  0  0  0  0
 12 18  1  0  0  0  0
 12 37  1  0  0  0  0
 12 38  1  0  0  0  0
 13 15  2  0  0  0  0
 13 19  1  0  0  0  0
 14 16  2  0  0  0  0
 14 39  1  0  0  0  0
 15 16  1  0  0  0  0
 15 40  1  0  0  0  0
 16 41  1  0  0  0  0
 17 42  1  0  0  0  0
 17 43  1  0  0  0  0
 17 44  1  0  0  0  0
 18 45  1  0  0  0  0
 18 46  1  0  0  0  0
 18 47  1  0  0  0  0
 19 20  1  0  0  0  0
 19 21  2  0  0  0  0
 20 22  2  0  0  0  0
 21 23  1  0  0  0  0
 21 48  1  0  0  0  0
 22 24  1  0  0  0  0
 22 49  1  0  0  0  0
 23 24  2  0  0  0  0
 23 50  1  0  0  0  0
 24 51  1  0  0  0  0
 25 52  1  0  0  0  0
 25 53  1  0  0  0  0
 25 54  1  0  0  0  0
M  END
> <PUBCHEM_COMPOUND_CID>
44287180

> <PUBCHEM_COMPOUND_CANONICALIZED>
1

> <PUBCHEM_CACTVS_COMPLEXITY>
382

> <PUBCHEM_CACTVS_HBOND_ACCEPTOR>
3

> <PUBCHEM_CACTVS_HBOND_DONOR>
0

> <PUBCHEM_CACTVS_ROTATABLE_BOND>
7

> <PUBCHEM_CACTVS_SUBSKEYS>
AAADceB6MAAAAAAAAAAAAAAAAAAAAAAAAAA0YIAAAAAAAACRQAAAHgAAAAAADCzhmAYyBoMABACAAiBCAAACCAAgIAAIiAAOCIgOJiKEsRuHOCCkwBGYqAfwwPAOgAACAAAIAAAAAAQAABAAAAAAAAAAAA==

> <PUBCHEM_IUPAC_OPENEYE_NAME>
8-(2-methoxyphenyl)-N,N-dipropyl-chroman-3-amine

> <PUBCHEM_IUPAC_CAS_NAME>
8-(2-methoxyphenyl)-N,N-dipropyl-3,4-dihydro-2H-1-benzopyran-3-amine

> <PUBCHEM_IUPAC_NAME_MARKUP>
8-(2-methoxyphenyl)-<I>N</I>,<I>N</I>-dipropyl-3,4-dihydro-2<I>H</I>-chromen-3-amine

> <PUBCHEM_IUPAC_NAME>
8-(2-methoxyphenyl)-N,N-dipropyl-3,4-dihydro-2H-chromen-3-amine

> <PUBCHEM_IUPAC_SYSTEMATIC_NAME>
8-(2-methoxyphenyl)-N,N-dipropyl-3,4-dihydro-2H-chromen-3-amine

> <PUBCHEM_IUPAC_TRADITIONAL_NAME>
[8-(2-methoxyphenyl)chroman-3-yl]-dipropyl-amine

> <PUBCHEM_IUPAC_INCHI>
InChI=1S/C22H29NO2/c1-4-13-23(14-5-2)18-15-17-9-8-11-20(22(17)25-16-18)19-10-6-7-12-21(19)24-3/h6-12,18H,4-5,13-16H2,1-3H3

> <PUBCHEM_IUPAC_INCHIKEY>
VDFXNGPWAIBQSN-UHFFFAOYSA-N

> <PUBCHEM_XLOGP3_AA>
5.4

> <PUBCHEM_EXACT_MASS>
339.219829168

> <PUBCHEM_MOLECULAR_FORMULA>
C22H29NO2

> <PUBCHEM_MOLECULAR_WEIGHT>
339.5

> <PUBCHEM_OPENEYE_CAN_SMILES>
CCCN(CCC)C1CC2=C(C(=CC=C2)C3=CC=CC=C3OC)OC1

> <PUBCHEM_OPENEYE_ISO_SMILES>
CCCN(CCC)C1CC2=C(C(=CC=C2)C3=CC=CC=C3OC)OC1

> <PUBCHEM_CACTVS_TPSA>
21.7

> <PUBCHEM_MONOISOTOPIC_WEIGHT>
339.219829168

> <PUBCHEM_TOTAL_CHARGE>
0

> <PUBCHEM_HEAVY_ATOM_COUNT>
25

> <PUBCHEM_ATOM_DEF_STEREO_COUNT>
0

> <PUBCHEM_ATOM_UDEF_STEREO_COUNT>
1

> <PUBCHEM_BOND_DEF_STEREO_COUNT>
0

> <PUBCHEM_BOND_UDEF_STEREO_COUNT>
0

> <PUBCHEM_ISOTOPIC_ATOM_COUNT>
0

> <PUBCHEM_COMPONENT_COUNT>
1

> <PUBCHEM_CACTVS_TAUTO_COUNT>
-1

> <PUBCHEM_COORDINATE_TYPE>
1
5
255

> <PUBCHEM_BONDANNOTATIONS>
10  13  8
13  15  8
14  16  8
15  16  8
19  20  8
19  21  8
20  22  8
21  23  8
22  24  8
23  24  8
4  3  3
7  10  8
7  14  8

$$$$
