10698929
  -OEChem-09292322112D

 59 63  0     1  0  0  0  0  0999 V2000
    6.3934    2.0158    0.0000 S   0  0  0  0  0  0  0  0  0  0  0  0
    3.7435   -2.4539    0.0000 S   0  0  0  0  0  0  0  0  0  0  0  0
    6.4166    4.0156    0.0000 F   0  0  0  0  0  0  0  0  0  0  0  0
    5.4051    3.0272    0.0000 F   0  0  0  0  0  0  0  0  0  0  0  0
    7.4049    3.0041    0.0000 F   0  0  0  0  0  0  0  0  0  0  0  0
    2.0000   -3.4338    0.0000 F   0  0  0  0  0  0  0  0  0  0  0  0
    3.3617   -3.8156    0.0000 F   0  0  0  0  0  0  0  0  0  0  0  0
    2.3818   -2.0721    0.0000 F   0  0  0  0  0  0  0  0  0  0  0  0
    6.3819    1.0158    0.0000 O   0  0  0  0  0  0  0  0  0  0  0  0
    4.6152   -1.9640    0.0000 O   0  0  0  0  0  0  0  0  0  0  0  0
    5.3935    2.0273    0.0000 O   0  0  0  0  0  0  0  0  0  0  0  0
    7.3934    2.0042    0.0000 O   0  0  0  0  0  0  0  0  0  0  0  0
    4.2335   -3.3257    0.0000 O   0  0  0  0  0  0  0  0  0  0  0  0
    3.2536   -1.5822    0.0000 O   0  0  0  0  0  0  0  0  0  0  0  0
    9.8430   -3.0156    0.0000 N   0  0  3  0  0  0  0  0  0  0  0  0
    8.9847   -2.5187    0.0000 C   0  0  1  0  0  0  0  0  0  0  0  0
    8.9847   -1.5187    0.0000 C   0  0  0  0  0  0  0  0  0  0  0  0
    8.1187   -3.0187    0.0000 C   0  0  0  0  0  0  0  0  0  0  0  0
    9.8947   -1.0119    0.0000 C   0  0  0  0  0  0  0  0  0  0  0  0
   10.7084   -2.5315    0.0000 C   0  0  0  0  0  0  0  0  0  0  0  0
    8.1187   -1.0187    0.0000 C   0  0  0  0  0  0  0  0  0  0  0  0
   10.7341   -1.5401    0.0000 C   0  0  0  0  0  0  0  0  0  0  0  0
    7.2527   -2.5187    0.0000 C   0  0  0  0  0  0  0  0  0  0  0  0
    7.2527   -1.5187    0.0000 C   0  0  0  0  0  0  0  0  0  0  0  0
    9.8356   -4.0156    0.0000 C   0  0  0  0  0  0  0  0  0  0  0  0
    6.3588   -0.9841    0.0000 C   0  0  0  0  0  0  0  0  0  0  0  0
    9.9028    0.0297    0.0000 C   0  0  0  0  0  0  0  0  0  0  0  0
    8.1026    0.0228    0.0000 C   0  0  0  0  0  0  0  0  0  0  0  0
    6.3588   -3.0534    0.0000 C   0  0  0  0  0  0  0  0  0  0  0  0
    9.0007    0.5505    0.0000 C   0  0  0  0  0  0  0  0  0  0  0  0
    5.4527   -1.4979    0.0000 C   0  0  0  0  0  0  0  0  0  0  0  0
    5.4986   -0.4741    0.0000 C   0  0  0  0  0  0  0  0  0  0  0  0
    5.4527   -2.5395    0.0000 C   0  0  0  0  0  0  0  0  0  0  0  0
    5.5101    0.5259    0.0000 C   0  0  0  0  0  0  0  0  0  0  0  0
    4.6268   -0.9640    0.0000 C   0  0  0  0  0  0  0  0  0  0  0  0
    4.6499    1.0358    0.0000 C   0  0  0  0  0  0  0  0  0  0  0  0
    3.7666   -0.4540    0.0000 C   0  0  0  0  0  0  0  0  0  0  0  0
    3.7782    0.5459    0.0000 C   0  0  0  0  0  0  0  0  0  0  0  0
    6.4050    3.0157    0.0000 C   0  0  0  0  0  0  0  0  0  0  0  0
    2.8718   -2.9439    0.0000 C   0  0  0  0  0  0  0  0  0  0  0  0
    8.9842   -3.3687    0.0000 H   0  0  0  0  0  0  0  0  0  0  0  0
    7.7202   -3.4937    0.0000 H   0  0  0  0  0  0  0  0  0  0  0  0
    8.5172   -3.4937    0.0000 H   0  0  0  0  0  0  0  0  0  0  0  0
   10.9102   -3.1177    0.0000 H   0  0  0  0  0  0  0  0  0  0  0  0
   11.3212   -2.4371    0.0000 H   0  0  0  0  0  0  0  0  0  0  0  0
   11.3411   -1.6660    0.0000 H   0  0  0  0  0  0  0  0  0  0  0  0
   10.9658   -0.9650    0.0000 H   0  0  0  0  0  0  0  0  0  0  0  0
    9.2156   -4.0110    0.0000 H   0  0  0  0  0  0  0  0  0  0  0  0
    9.8310   -4.6356    0.0000 H   0  0  0  0  0  0  0  0  0  0  0  0
   10.4555   -4.0202    0.0000 H   0  0  0  0  0  0  0  0  0  0  0  0
   10.4409    0.3377    0.0000 H   0  0  0  0  0  0  0  0  0  0  0  0
    7.5622    0.3266    0.0000 H   0  0  0  0  0  0  0  0  0  0  0  0
    6.3659   -3.6733    0.0000 H   0  0  0  0  0  0  0  0  0  0  0  0
    8.9983    1.1705    0.0000 H   0  0  0  0  0  0  0  0  0  0  0  0
    4.9169   -1.1858    0.0000 H   0  0  0  0  0  0  0  0  0  0  0  0
    4.9169   -2.8516    0.0000 H   0  0  0  0  0  0  0  0  0  0  0  0
    4.6571    1.6558    0.0000 H   0  0  0  0  0  0  0  0  0  0  0  0
    3.2261   -0.7578    0.0000 H   0  0  0  0  0  0  0  0  0  0  0  0
    3.2449    0.8621    0.0000 H   0  0  0  0  0  0  0  0  0  0  0  0
  1  9  1  0  0  0  0
  1 11  2  0  0  0  0
  1 12  2  0  0  0  0
  1 39  1  0  0  0  0
  2 10  1  0  0  0  0
  2 13  2  0  0  0  0
  2 14  2  0  0  0  0
  2 40  1  0  0  0  0
  3 39  1  0  0  0  0
  4 39  1  0  0  0  0
  5 39  1  0  0  0  0
  6 40  1  0  0  0  0
  7 40  1  0  0  0  0
  8 40  1  0  0  0  0
  9 34  1  0  0  0  0
 10 35  1  0  0  0  0
 15 16  1  0  0  0  0
 15 20  1  0  0  0  0
 15 25  1  0  0  0  0
 16 17  1  0  0  0  0
 16 18  1  0  0  0  0
 16 41  1  1  0  0  0
 17 19  2  0  0  0  0
 17 21  1  0  0  0  0
 18 23  1  0  0  0  0
 18 42  1  0  0  0  0
 18 43  1  0  0  0  0
 19 22  1  0  0  0  0
 19 27  1  0  0  0  0
 20 22  1  0  0  0  0
 20 44  1  0  0  0  0
 20 45  1  0  0  0  0
 21 24  1  0  0  0  0
 21 28  2  0  0  0  0
 22 46  1  0  0  0  0
 22 47  1  0  0  0  0
 23 24  2  0  0  0  0
 23 29  1  0  0  0  0
 24 26  1  0  0  0  0
 25 48  1  0  0  0  0
 25 49  1  0  0  0  0
 25 50  1  0  0  0  0
 26 31  2  0  0  0  0
 26 32  1  0  0  0  0
 27 30  2  0  0  0  0
 27 51  1  0  0  0  0
 28 30  1  0  0  0  0
 28 52  1  0  0  0  0
 29 33  2  0  0  0  0
 29 53  1  0  0  0  0
 30 54  1  0  0  0  0
 31 33  1  0  0  0  0
 31 55  1  0  0  0  0
 32 34  2  0  0  0  0
 32 35  1  0  0  0  0
 33 56  1  0  0  0  0
 34 36  1  0  0  0  0
 35 37  2  0  0  0  0
 36 38  2  0  0  0  0
 36 57  1  0  0  0  0
 37 38  1  0  0  0  0
 37 58  1  0  0  0  0
 38 59  1  0  0  0  0
M  END
> <PUBCHEM_COMPOUND_CID>
10698929

> <PUBCHEM_COMPOUND_CANONICALIZED>
1

> <PUBCHEM_CACTVS_COMPLEXITY>
1080

> <PUBCHEM_CACTVS_HBOND_ACCEPTOR>
13

> <PUBCHEM_CACTVS_HBOND_DONOR>
0

> <PUBCHEM_CACTVS_ROTATABLE_BOND>
5

> <PUBCHEM_CACTVS_SUBSKEYS>
AAADceB6OcBgAAAAAAAAAAAAAAAAAAAAAAA8YMGCAAAAAADxUAAAHwQAAAAADCzBmBQyBoMAAAKAAiBCAHCCAAAgIAAIiAAODIgIJyKAkROEMAhlwBWIiAeQ4PQOgAACCAAYAACQAASQADQAAAAAAAAAAA==

> <PUBCHEM_IUPAC_OPENEYE_NAME>
[2-[(6aR)-6-methyl-5,6,6a,7-tetrahydro-4H-dibenzo[de,g]quinolin-11-yl]-3-(trifluoromethylsulfonyloxy)phenyl] trifluoromethanesulfonate

> <PUBCHEM_IUPAC_CAS_NAME>
trifluoromethanesulfonic acid [2-[(6aR)-6-methyl-5,6,6a,7-tetrahydro-4H-dibenzo[de,g]quinolin-11-yl]-3-(trifluoromethylsulfonyloxy)phenyl] ester

> <PUBCHEM_IUPAC_NAME_MARKUP>
[2-[(6<I>a</I><I>R</I>)-6-methyl-5,6,6<I>a</I>,7-tetrahydro-4<I>H</I>-dibenzo[de,g]quinolin-11-yl]-3-(trifluoromethylsulfonyloxy)phenyl] trifluoromethanesulfonate

> <PUBCHEM_IUPAC_NAME>
[2-[(6aR)-6-methyl-5,6,6a,7-tetrahydro-4H-dibenzo[de,g]quinolin-11-yl]-3-(trifluoromethylsulfonyloxy)phenyl] trifluoromethanesulfonate

> <PUBCHEM_IUPAC_SYSTEMATIC_NAME>
[2-[(6aR)-6-methyl-5,6,6a,7-tetrahydro-4H-dibenzo[de,g]quinolin-11-yl]-3-(trifluoromethylsulfonyloxy)phenyl] tris(fluoranyl)methanesulfonate

> <PUBCHEM_IUPAC_TRADITIONAL_NAME>
trifluoromethanesulfonic acid [2-[(6aR)-6-methyl-5,6,6a,7-tetrahydro-4H-dibenzo[de,g]quinolin-11-yl]-3-triflyloxy-phenyl] ester

> <PUBCHEM_IUPAC_INCHI>
InChI=1S/C25H19F6NO6S2/c1-32-12-11-14-5-2-7-16-21-15(13-18(32)22(14)16)6-3-8-17(21)23-19(37-39(33,34)24(26,27)28)9-4-10-20(23)38-40(35,36)25(29,30)31/h2-10,18H,11-13H2,1H3/t18-/m1/s1

> <PUBCHEM_IUPAC_INCHIKEY>
PNFSZBQKXYOEES-GOSISDBHSA-N

> <PUBCHEM_XLOGP3_AA>
6.6

> <PUBCHEM_EXACT_MASS>
607.05579865

> <PUBCHEM_MOLECULAR_FORMULA>
C25H19F6NO6S2

> <PUBCHEM_MOLECULAR_WEIGHT>
607.5

> <PUBCHEM_OPENEYE_CAN_SMILES>
CN1CCC2=C3C1CC4=C(C3=CC=C2)C(=CC=C4)C5=C(C=CC=C5OS(=O)(=O)C(F)(F)F)OS(=O)(=O)C(F)(F)F

> <PUBCHEM_OPENEYE_ISO_SMILES>
CN1CCC2=C3[C@H]1CC4=C(C3=CC=C2)C(=CC=C4)C5=C(C=CC=C5OS(=O)(=O)C(F)(F)F)OS(=O)(=O)C(F)(F)F

> <PUBCHEM_CACTVS_TPSA>
107

> <PUBCHEM_MONOISOTOPIC_WEIGHT>
607.05579865

> <PUBCHEM_TOTAL_CHARGE>
0

> <PUBCHEM_HEAVY_ATOM_COUNT>
40

> <PUBCHEM_ATOM_DEF_STEREO_COUNT>
1

> <PUBCHEM_ATOM_UDEF_STEREO_COUNT>
0

> <PUBCHEM_BOND_DEF_STEREO_COUNT>
0

> <PUBCHEM_BOND_UDEF_STEREO_COUNT>
0

> <PUBCHEM_ISOTOPIC_ATOM_COUNT>
0

> <PUBCHEM_COMPONENT_COUNT>
1

> <PUBCHEM_CACTVS_TAUTO_COUNT>
-1

> <PUBCHEM_COORDINATE_TYPE>
1
5
255

> <PUBCHEM_BONDANNOTATIONS>
16  41  5
17  19  8
17  21  8
19  27  8
21  28  8
23  24  8
23  29  8
24  26  8
26  31  8
27  30  8
28  30  8
29  33  8
31  33  8
32  34  8
32  35  8
34  36  8
35  37  8
36  38  8
37  38  8

$$$$
