155569568
  -OEChem-09292322402D

 48 51  0     0  0  0  0  0  0999 V2000
   13.4928    4.5578    0.0000 Cl  0  0  0  0  0  0  0  0  0  0  0  0
   10.2509    1.2123    0.0000 O   0  0  0  0  0  0  0  0  0  0  0  0
    2.8660   -2.1638    0.0000 O   0  0  0  0  0  0  0  0  0  0  0  0
    6.4103   -3.9685    0.0000 N   0  0  0  0  0  0  0  0  0  0  0  0
    8.0102   -0.2518    0.0000 N   0  0  0  0  0  0  0  0  0  0  0  0
    6.4103   -2.3591    0.0000 C   0  0  0  0  0  0  0  0  0  0  0  0
    6.7210   -1.4085    0.0000 C   0  0  0  0  0  0  0  0  0  0  0  0
    5.4641   -2.6638    0.0000 C   0  0  0  0  0  0  0  0  0  0  0  0
    7.6995   -1.2023    0.0000 C   0  0  0  0  0  0  0  0  0  0  0  0
    5.4641   -3.6638    0.0000 C   0  0  0  0  0  0  0  0  0  0  0  0
    6.9939   -3.1638    0.0000 C   0  0  0  0  0  0  0  0  0  0  0  0
    4.5981   -2.1638    0.0000 C   0  0  0  0  0  0  0  0  0  0  0  0
    8.9887   -0.0456    0.0000 C   0  0  0  0  0  0  0  0  0  0  0  0
    4.5981   -4.1638    0.0000 C   0  0  0  0  0  0  0  0  0  0  0  0
    3.7320   -2.6638    0.0000 C   0  0  0  0  0  0  0  0  0  0  0  0
    9.2993    0.9049    0.0000 C   0  0  0  0  0  0  0  0  0  0  0  0
    3.7320   -3.6638    0.0000 C   0  0  0  0  0  0  0  0  0  0  0  0
    8.7129    1.7150    0.0000 C   0  0  0  0  0  0  0  0  0  0  0  0
   10.2526    2.2123    0.0000 C   0  0  0  0  0  0  0  0  0  0  0  0
    9.3021    2.5230    0.0000 C   0  0  0  0  0  0  0  0  0  0  0  0
   11.0627    2.7987    0.0000 C   0  0  0  0  0  0  0  0  0  0  0  0
   11.9755    2.3904    0.0000 C   0  0  0  0  0  0  0  0  0  0  0  0
   10.9599    3.7934    0.0000 C   0  0  0  0  0  0  0  0  0  0  0  0
    2.0000   -2.6638    0.0000 C   0  0  0  0  0  0  0  0  0  0  0  0
   12.7855    2.9768    0.0000 C   0  0  0  0  0  0  0  0  0  0  0  0
   11.7699    4.3798    0.0000 C   0  0  0  0  0  0  0  0  0  0  0  0
   12.6827    3.9715    0.0000 C   0  0  0  0  0  0  0  0  0  0  0  0
    6.7004   -0.7889    0.0000 H   0  0  0  0  0  0  0  0  0  0  0  0
    6.1072   -1.3212    0.0000 H   0  0  0  0  0  0  0  0  0  0  0  0
    7.7201   -1.8220    0.0000 H   0  0  0  0  0  0  0  0  0  0  0  0
    8.3133   -1.2897    0.0000 H   0  0  0  0  0  0  0  0  0  0  0  0
    7.6139   -3.1638    0.0000 H   0  0  0  0  0  0  0  0  0  0  0  0
    6.6029   -4.5578    0.0000 H   0  0  0  0  0  0  0  0  0  0  0  0
    7.5961    0.2097    0.0000 H   0  0  0  0  0  0  0  0  0  0  0  0
    4.5981   -1.5438    0.0000 H   0  0  0  0  0  0  0  0  0  0  0  0
    9.0092   -0.6652    0.0000 H   0  0  0  0  0  0  0  0  0  0  0  0
    9.6025   -0.1329    0.0000 H   0  0  0  0  0  0  0  0  0  0  0  0
    4.5981   -4.7838    0.0000 H   0  0  0  0  0  0  0  0  0  0  0  0
    3.1951   -3.9738    0.0000 H   0  0  0  0  0  0  0  0  0  0  0  0
    8.0929    1.7160    0.0000 H   0  0  0  0  0  0  0  0  0  0  0  0
    9.1116    3.1130    0.0000 H   0  0  0  0  0  0  0  0  0  0  0  0
   12.0393    1.7737    0.0000 H   0  0  0  0  0  0  0  0  0  0  0  0
   10.3939    4.0466    0.0000 H   0  0  0  0  0  0  0  0  0  0  0  0
    1.6900   -2.1269    0.0000 H   0  0  0  0  0  0  0  0  0  0  0  0
    1.4631   -2.9738    0.0000 H   0  0  0  0  0  0  0  0  0  0  0  0
    2.3100   -3.2007    0.0000 H   0  0  0  0  0  0  0  0  0  0  0  0
   13.3515    2.7236    0.0000 H   0  0  0  0  0  0  0  0  0  0  0  0
   11.7062    4.9965    0.0000 H   0  0  0  0  0  0  0  0  0  0  0  0
  1 27  1  0  0  0  0
  2 16  1  0  0  0  0
  2 19  1  0  0  0  0
  3 15  1  0  0  0  0
  3 24  1  0  0  0  0
  4 10  1  0  0  0  0
  4 11  1  0  0  0  0
  4 33  1  0  0  0  0
  5  9  1  0  0  0  0
  5 13  1  0  0  0  0
  5 34  1  0  0  0  0
  6  7  1  0  0  0  0
  6  8  1  0  0  0  0
  6 11  2  0  0  0  0
  7  9  1  0  0  0  0
  7 28  1  0  0  0  0
  7 29  1  0  0  0  0
  8 10  2  0  0  0  0
  8 12  1  0  0  0  0
  9 30  1  0  0  0  0
  9 31  1  0  0  0  0
 10 14  1  0  0  0  0
 11 32  1  0  0  0  0
 12 15  2  0  0  0  0
 12 35  1  0  0  0  0
 13 16  1  0  0  0  0
 13 36  1  0  0  0  0
 13 37  1  0  0  0  0
 14 17  2  0  0  0  0
 14 38  1  0  0  0  0
 15 17  1  0  0  0  0
 16 18  2  0  0  0  0
 17 39  1  0  0  0  0
 18 20  1  0  0  0  0
 18 40  1  0  0  0  0
 19 20  2  0  0  0  0
 19 21  1  0  0  0  0
 20 41  1  0  0  0  0
 21 22  2  0  0  0  0
 21 23  1  0  0  0  0
 22 25  1  0  0  0  0
 22 42  1  0  0  0  0
 23 26  2  0  0  0  0
 23 43  1  0  0  0  0
 24 44  1  0  0  0  0
 24 45  1  0  0  0  0
 24 46  1  0  0  0  0
 25 27  2  0  0  0  0
 25 47  1  0  0  0  0
 26 27  1  0  0  0  0
 26 48  1  0  0  0  0
M  END
> <PUBCHEM_COMPOUND_CID>
155569568

> <PUBCHEM_COMPOUND_CANONICALIZED>
1

> <PUBCHEM_CACTVS_COMPLEXITY>
458

> <PUBCHEM_CACTVS_HBOND_ACCEPTOR>
3

> <PUBCHEM_CACTVS_HBOND_DONOR>
2

> <PUBCHEM_CACTVS_ROTATABLE_BOND>
7

> <PUBCHEM_CACTVS_SUBSKEYS>
AAADceB7MAAEAAAAAAAAAAAAAAAAAWJAAAAwYAAAAAAAAFgB/AAAHgIQAAAADA7BniY+xvLJlECoA7R3RACCiCA1JyAI2aG+btgOJvLFt7uHOSjk0BHY6Ye42fKOhEABAAACAAAIgAIAAAQAAAAAAAAAAA==

> <PUBCHEM_IUPAC_OPENEYE_NAME>
N-[[5-(4-chlorophenyl)-2-furyl]methyl]-2-(5-methoxy-1H-indol-3-yl)ethanamine

> <PUBCHEM_IUPAC_CAS_NAME>
N-[[5-(4-chlorophenyl)-2-furanyl]methyl]-2-(5-methoxy-1H-indol-3-yl)ethanamine

> <PUBCHEM_IUPAC_NAME_MARKUP>
<I>N</I>-[[5-(4-chlorophenyl)furan-2-yl]methyl]-2-(5-methoxy-1<I>H</I>-indol-3-yl)ethanamine

> <PUBCHEM_IUPAC_NAME>
N-[[5-(4-chlorophenyl)furan-2-yl]methyl]-2-(5-methoxy-1H-indol-3-yl)ethanamine

> <PUBCHEM_IUPAC_SYSTEMATIC_NAME>
N-[[5-(4-chlorophenyl)furan-2-yl]methyl]-2-(5-methoxy-1H-indol-3-yl)ethanamine

> <PUBCHEM_IUPAC_TRADITIONAL_NAME>
[5-(4-chlorophenyl)-2-furyl]methyl-[2-(5-methoxy-1H-indol-3-yl)ethyl]amine

> <PUBCHEM_IUPAC_INCHI>
InChI=1S/C22H21ClN2O2/c1-26-18-6-8-21-20(12-18)16(13-25-21)10-11-24-14-19-7-9-22(27-19)15-2-4-17(23)5-3-15/h2-9,12-13,24-25H,10-11,14H2,1H3

> <PUBCHEM_IUPAC_INCHIKEY>
VGKVYVYBJMIGOD-UHFFFAOYSA-N

> <PUBCHEM_XLOGP3_AA>
4.7

> <PUBCHEM_EXACT_MASS>
380.1291556

> <PUBCHEM_MOLECULAR_FORMULA>
C22H21ClN2O2

> <PUBCHEM_MOLECULAR_WEIGHT>
380.9

> <PUBCHEM_OPENEYE_CAN_SMILES>
COC1=CC2=C(C=C1)NC=C2CCNCC3=CC=C(O3)C4=CC=C(C=C4)Cl

> <PUBCHEM_OPENEYE_ISO_SMILES>
COC1=CC2=C(C=C1)NC=C2CCNCC3=CC=C(O3)C4=CC=C(C=C4)Cl

> <PUBCHEM_CACTVS_TPSA>
50.2

> <PUBCHEM_MONOISOTOPIC_WEIGHT>
380.1291556

> <PUBCHEM_TOTAL_CHARGE>
0

> <PUBCHEM_HEAVY_ATOM_COUNT>
27

> <PUBCHEM_ATOM_DEF_STEREO_COUNT>
0

> <PUBCHEM_ATOM_UDEF_STEREO_COUNT>
0

> <PUBCHEM_BOND_DEF_STEREO_COUNT>
0

> <PUBCHEM_BOND_UDEF_STEREO_COUNT>
0

> <PUBCHEM_ISOTOPIC_ATOM_COUNT>
0

> <PUBCHEM_COMPONENT_COUNT>
1

> <PUBCHEM_CACTVS_TAUTO_COUNT>
-1

> <PUBCHEM_COORDINATE_TYPE>
1
5
255

> <PUBCHEM_BONDANNOTATIONS>
10  14  8
12  15  8
14  17  8
15  17  8
16  18  8
18  20  8
19  20  8
2  16  8
2  19  8
21  22  8
21  23  8
22  25  8
23  26  8
25  27  8
26  27  8
4  10  8
4  11  8
6  11  8
6  8  8
8  10  8
8  12  8

$$$$
