23631093
  -OEChem-09292322252D

 64 67  0     1  0  0  0  0  0999 V2000
    6.1569   -1.4906    0.0000 S   0  0  0  0  0  0  0  0  0  0  0  0
   15.5930    1.6082    0.0000 O   0  0  0  0  0  0  0  0  0  0  0  0
    9.1569    0.2415    0.0000 N   0  0  3  0  0  0  0  0  0  0  0  0
    4.5691   -2.2996    0.0000 N   0  0  0  0  0  0  0  0  0  0  0  0
    3.6180   -0.9906    0.0000 N   0  0  0  0  0  0  0  0  0  0  0  0
    4.5691   -0.6815    0.0000 N   0  0  0  0  0  0  0  0  0  0  0  0
   14.9267    0.8624    0.0000 N   0  0  0  0  0  0  0  0  0  0  0  0
    9.5908    1.1425    0.0000 C   0  0  0  0  0  0  0  0  0  0  0  0
    9.5908   -0.6595    0.0000 C   0  0  0  0  0  0  0  0  0  0  0  0
   10.5657    1.3650    0.0000 C   0  0  0  0  0  0  0  0  0  0  0  0
   10.5657   -0.8820    0.0000 C   0  0  0  0  0  0  0  0  0  0  0  0
    8.1569    0.2415    0.0000 C   0  0  0  0  0  0  0  0  0  0  0  0
   11.3475    0.7415    0.0000 C   0  0  0  0  0  0  0  0  0  0  0  0
   11.3475   -0.2585    0.0000 C   0  0  0  0  0  0  0  0  0  0  0  0
    7.6569   -0.6245    0.0000 C   0  0  0  0  0  0  0  0  0  0  0  0
    2.8090   -2.5783    0.0000 C   0  0  0  0  0  0  0  0  0  0  0  0
   12.2415    1.2762    0.0000 C   0  0  0  0  0  0  0  0  0  0  0  0
   12.2415   -0.7932    0.0000 C   0  0  0  0  0  0  0  0  0  0  0  0
    6.6569   -0.6245    0.0000 C   0  0  0  0  0  0  0  0  0  0  0  0
   13.1475    0.7623    0.0000 C   0  0  0  0  0  0  0  0  0  0  0  0
    3.6180   -1.9906    0.0000 C   0  0  0  0  0  0  0  0  0  0  0  0
   13.1475   -0.2793    0.0000 C   0  0  0  0  0  0  0  0  0  0  0  0
    2.0000   -3.1661    0.0000 C   0  0  0  0  0  0  0  0  0  0  0  0
    2.2212   -1.7693    0.0000 C   0  0  0  0  0  0  0  0  0  0  0  0
    3.3968   -3.3874    0.0000 C   0  0  0  0  0  0  0  0  0  0  0  0
    5.1569   -1.4906    0.0000 C   0  0  0  0  0  0  0  0  0  0  0  0
   14.0116    1.2656    0.0000 C   0  0  0  0  0  0  0  0  0  0  0  0
    4.8781   -3.2506    0.0000 C   0  0  0  0  0  0  0  0  0  0  0  0
   14.1123    2.2606    0.0000 C   0  0  0  0  0  0  0  0  0  0  0  0
   15.0897    2.4722    0.0000 C   0  0  0  0  0  0  0  0  0  0  0  0
   15.4929    3.3874    0.0000 C   0  0  0  0  0  0  0  0  0  0  0  0
    9.5908    1.7625    0.0000 H   0  0  0  0  0  0  0  0  0  0  0  0
    8.9863    1.2804    0.0000 H   0  0  0  0  0  0  0  0  0  0  0  0
    8.9863   -0.7974    0.0000 H   0  0  0  0  0  0  0  0  0  0  0  0
    9.5908   -1.2795    0.0000 H   0  0  0  0  0  0  0  0  0  0  0  0
   11.0504    1.7516    0.0000 H   0  0  0  0  0  0  0  0  0  0  0  0
   10.2967    1.9236    0.0000 H   0  0  0  0  0  0  0  0  0  0  0  0
   10.2967   -1.4406    0.0000 H   0  0  0  0  0  0  0  0  0  0  0  0
   11.0504   -1.2686    0.0000 H   0  0  0  0  0  0  0  0  0  0  0  0
    8.2645    0.8521    0.0000 H   0  0  0  0  0  0  0  0  0  0  0  0
    7.5743    0.4536    0.0000 H   0  0  0  0  0  0  0  0  0  0  0  0
    7.5492   -1.2351    0.0000 H   0  0  0  0  0  0  0  0  0  0  0  0
    8.2395   -0.8366    0.0000 H   0  0  0  0  0  0  0  0  0  0  0  0
   12.2343    1.8961    0.0000 H   0  0  0  0  0  0  0  0  0  0  0  0
   12.2343   -1.4131    0.0000 H   0  0  0  0  0  0  0  0  0  0  0  0
    6.7645   -0.0139    0.0000 H   0  0  0  0  0  0  0  0  0  0  0  0
    6.0743   -0.4125    0.0000 H   0  0  0  0  0  0  0  0  0  0  0  0
   13.6833   -0.5914    0.0000 H   0  0  0  0  0  0  0  0  0  0  0  0
    1.6356   -2.6645    0.0000 H   0  0  0  0  0  0  0  0  0  0  0  0
    1.4984   -3.5306    0.0000 H   0  0  0  0  0  0  0  0  0  0  0  0
    2.3644   -3.6677    0.0000 H   0  0  0  0  0  0  0  0  0  0  0  0
    2.7228   -1.4049    0.0000 H   0  0  0  0  0  0  0  0  0  0  0  0
    1.8568   -1.2677    0.0000 H   0  0  0  0  0  0  0  0  0  0  0  0
    1.7196   -2.1338    0.0000 H   0  0  0  0  0  0  0  0  0  0  0  0
    2.8952   -3.7518    0.0000 H   0  0  0  0  0  0  0  0  0  0  0  0
    3.7612   -3.8889    0.0000 H   0  0  0  0  0  0  0  0  0  0  0  0
    3.8984   -3.0229    0.0000 H   0  0  0  0  0  0  0  0  0  0  0  0
    4.2884   -3.4422    0.0000 H   0  0  0  0  0  0  0  0  0  0  0  0
    5.0697   -3.8403    0.0000 H   0  0  0  0  0  0  0  0  0  0  0  0
    5.4678   -3.0590    0.0000 H   0  0  0  0  0  0  0  0  0  0  0  0
   13.6500    2.6736    0.0000 H   0  0  0  0  0  0  0  0  0  0  0  0
   16.0602    3.1374    0.0000 H   0  0  0  0  0  0  0  0  0  0  0  0
   15.7429    3.9547    0.0000 H   0  0  0  0  0  0  0  0  0  0  0  0
   14.9255    3.6373    0.0000 H   0  0  0  0  0  0  0  0  0  0  0  0
  1 19  1  0  0  0  0
  1 26  1  0  0  0  0
  2  7  1  0  0  0  0
  2 30  1  0  0  0  0
  3  8  1  0  0  0  0
  3  9  1  0  0  0  0
  3 12  1  0  0  0  0
  4 21  1  0  0  0  0
  4 26  1  0  0  0  0
  4 28  1  0  0  0  0
  5  6  1  0  0  0  0
  5 21  2  0  0  0  0
  6 26  2  0  0  0  0
  7 27  2  0  0  0  0
  8 10  1  0  0  0  0
  8 32  1  0  0  0  0
  8 33  1  0  0  0  0
  9 11  1  0  0  0  0
  9 34  1  0  0  0  0
  9 35  1  0  0  0  0
 10 13  1  0  0  0  0
 10 36  1  0  0  0  0
 10 37  1  0  0  0  0
 11 14  1  0  0  0  0
 11 38  1  0  0  0  0
 11 39  1  0  0  0  0
 12 15  1  0  0  0  0
 12 40  1  0  0  0  0
 12 41  1  0  0  0  0
 13 14  2  0  0  0  0
 13 17  1  0  0  0  0
 14 18  1  0  0  0  0
 15 19  1  0  0  0  0
 15 42  1  0  0  0  0
 15 43  1  0  0  0  0
 16 21  1  0  0  0  0
 16 23  1  0  0  0  0
 16 24  1  0  0  0  0
 16 25  1  0  0  0  0
 17 20  2  0  0  0  0
 17 44  1  0  0  0  0
 18 22  2  0  0  0  0
 18 45  1  0  0  0  0
 19 46  1  0  0  0  0
 19 47  1  0  0  0  0
 20 22  1  0  0  0  0
 20 27  1  0  0  0  0
 22 48  1  0  0  0  0
 23 49  1  0  0  0  0
 23 50  1  0  0  0  0
 23 51  1  0  0  0  0
 24 52  1  0  0  0  0
 24 53  1  0  0  0  0
 24 54  1  0  0  0  0
 25 55  1  0  0  0  0
 25 56  1  0  0  0  0
 25 57  1  0  0  0  0
 27 29  1  0  0  0  0
 28 58  1  0  0  0  0
 28 59  1  0  0  0  0
 28 60  1  0  0  0  0
 29 30  2  0  0  0  0
 29 61  1  0  0  0  0
 30 31  1  0  0  0  0
 31 62  1  0  0  0  0
 31 63  1  0  0  0  0
 31 64  1  0  0  0  0
M  END
> <PUBCHEM_COMPOUND_CID>
23631093

> <PUBCHEM_COMPOUND_CANONICALIZED>
1

> <PUBCHEM_CACTVS_COMPLEXITY>
573

> <PUBCHEM_CACTVS_HBOND_ACCEPTOR>
6

> <PUBCHEM_CACTVS_HBOND_DONOR>
0

> <PUBCHEM_CACTVS_ROTATABLE_BOND>
7

> <PUBCHEM_CACTVS_SUBSKEYS>
AAADcfB7oABAAAAAAAAAAAAAAAAAAWLAAAAwAAAABYAAAAAB8AAAHgQMAAAADgzF3wSzlJccEAirA6ZyZgCS0AtkIrA92CE+bNqILrqgmZOEMYBmiBqIyUeYyOCOwAACAAAQAACAAAQAACAAAAAAAAAAAA==

> <PUBCHEM_IUPAC_OPENEYE_NAME>
3-[3-[3-[(5-tert-butyl-4-methyl-1,2,4-triazol-3-yl)sulfanyl]propyl]-1,2,4,5-tetrahydro-3-benzazepin-7-yl]-5-methyl-isoxazole

> <PUBCHEM_IUPAC_CAS_NAME>
3-[3-[3-[(5-tert-butyl-4-methyl-1,2,4-triazol-3-yl)thio]propyl]-1,2,4,5-tetrahydro-3-benzazepin-7-yl]-5-methylisoxazole

> <PUBCHEM_IUPAC_NAME_MARKUP>
3-[3-[3-[(5-<I>tert</I>-butyl-4-methyl-1,2,4-triazol-3-yl)sulfanyl]propyl]-1,2,4,5-tetrahydro-3-benzazepin-7-yl]-5-methyl-1,2-oxazole

> <PUBCHEM_IUPAC_NAME>
3-[3-[3-[(5-tert-butyl-4-methyl-1,2,4-triazol-3-yl)sulfanyl]propyl]-1,2,4,5-tetrahydro-3-benzazepin-7-yl]-5-methyl-1,2-oxazole

> <PUBCHEM_IUPAC_SYSTEMATIC_NAME>
3-[3-[3-[(5-tert-butyl-4-methyl-1,2,4-triazol-3-yl)sulfanyl]propyl]-1,2,4,5-tetrahydro-3-benzazepin-7-yl]-5-methyl-1,2-oxazole

> <PUBCHEM_IUPAC_TRADITIONAL_NAME>
3-[3-[3-[(5-tert-butyl-4-methyl-1,2,4-triazol-3-yl)thio]propyl]-1,2,4,5-tetrahydro-3-benzazepin-7-yl]-5-methyl-isoxazole

> <PUBCHEM_IUPAC_INCHI>
InChI=1S/C24H33N5OS/c1-17-15-21(27-30-17)20-8-7-18-9-12-29(13-10-19(18)16-20)11-6-14-31-23-26-25-22(28(23)5)24(2,3)4/h7-8,15-16H,6,9-14H2,1-5H3

> <PUBCHEM_IUPAC_INCHIKEY>
YFWICZORWGKFIF-UHFFFAOYSA-N

> <PUBCHEM_XLOGP3_AA>
4.9

> <PUBCHEM_EXACT_MASS>
439.24058187

> <PUBCHEM_MOLECULAR_FORMULA>
C24H33N5OS

> <PUBCHEM_MOLECULAR_WEIGHT>
439.6

> <PUBCHEM_OPENEYE_CAN_SMILES>
CC1=CC(=NO1)C2=CC3=C(CCN(CC3)CCCSC4=NN=C(N4C)C(C)(C)C)C=C2

> <PUBCHEM_OPENEYE_ISO_SMILES>
CC1=CC(=NO1)C2=CC3=C(CCN(CC3)CCCSC4=NN=C(N4C)C(C)(C)C)C=C2

> <PUBCHEM_CACTVS_TPSA>
85.3

> <PUBCHEM_MONOISOTOPIC_WEIGHT>
439.24058187

> <PUBCHEM_TOTAL_CHARGE>
0

> <PUBCHEM_HEAVY_ATOM_COUNT>
31

> <PUBCHEM_ATOM_DEF_STEREO_COUNT>
0

> <PUBCHEM_ATOM_UDEF_STEREO_COUNT>
0

> <PUBCHEM_BOND_DEF_STEREO_COUNT>
0

> <PUBCHEM_BOND_UDEF_STEREO_COUNT>
0

> <PUBCHEM_ISOTOPIC_ATOM_COUNT>
0

> <PUBCHEM_COMPONENT_COUNT>
1

> <PUBCHEM_CACTVS_TAUTO_COUNT>
-1

> <PUBCHEM_COORDINATE_TYPE>
1
5
255

> <PUBCHEM_BONDANNOTATIONS>
13  14  8
13  17  8
14  18  8
17  20  8
18  22  8
2  30  8
2  7  8
20  22  8
27  29  8
29  30  8
4  21  8
4  26  8
5  21  8
5  6  8
6  26  8
7  27  8

$$$$
