145979626
  -OEChem-09292322472D

 60 63  0     1  0  0  0  0  0999 V2000
    2.9511   -6.0280    0.0000 F   0  0  0  0  0  0  0  0  0  0  0  0
    4.6759    0.8793    0.0000 O   0  0  0  0  0  0  0  0  0  0  0  0
    4.5388   -2.8370    0.0000 O   0  0  0  0  0  0  0  0  0  0  0  0
    3.4511    0.5108    0.0000 O   0  0  0  0  0  0  0  0  0  0  0  0
    6.4586    5.1010    0.0000 O   0  0  0  0  0  0  0  0  0  0  0  0
    6.5780    1.4974    0.0000 N   0  0  0  0  0  0  0  0  0  0  0  0
    4.2601   -1.0770    0.0000 N   0  0  0  0  0  0  0  0  0  0  0  0
    6.9938    3.4537    0.0000 N   0  0  0  0  0  0  0  0  0  0  0  0
    2.6420   -1.0770    0.0000 N   0  0  0  0  0  0  0  0  0  0  0  0
    6.3701    0.5192    0.0000 C   0  0  0  0  0  0  0  0  0  0  0  0
    5.4190    0.2102    0.0000 C   0  0  3  0  0  0  0  0  0  0  0  0
    7.5291    1.8064    0.0000 C   0  0  0  0  0  0  0  0  0  0  0  0
    5.8349    2.1665    0.0000 C   0  0  0  0  0  0  0  0  0  0  0  0
    2.9511   -2.0280    0.0000 C   0  0  3  0  0  0  0  0  0  0  0  0
    5.2111   -0.7679    0.0000 C   0  0  0  0  0  0  0  0  0  0  0  0
    7.7370    2.7846    0.0000 C   0  0  0  0  0  0  0  0  0  0  0  0
    6.0428    3.1447    0.0000 C   0  0  0  0  0  0  0  0  0  0  0  0
    3.9511   -2.0280    0.0000 C   0  0  0  0  0  0  0  0  0  0  0  0
    3.4511   -0.4892    0.0000 C   0  0  0  0  0  0  0  0  0  0  0  0
    2.9511   -3.0280    0.0000 C   0  0  0  0  0  0  0  0  0  0  0  0
    2.0000   -2.3370    0.0000 C   0  0  0  0  0  0  0  0  0  0  0  0
    7.2018    4.4318    0.0000 C   0  0  0  0  0  0  0  0  0  0  0  0
    3.8171   -3.5280    0.0000 C   0  0  0  0  0  0  0  0  0  0  0  0
    2.0850   -3.5280    0.0000 C   0  0  0  0  0  0  0  0  0  0  0  0
    8.1528    4.7408    0.0000 C   0  0  0  0  0  0  0  0  0  0  0  0
    3.8171   -4.5280    0.0000 C   0  0  0  0  0  0  0  0  0  0  0  0
    2.0850   -4.5280    0.0000 C   0  0  0  0  0  0  0  0  0  0  0  0
    2.9511   -5.0280    0.0000 C   0  0  0  0  0  0  0  0  0  0  0  0
    8.3607    5.7190    0.0000 C   0  0  0  0  0  0  0  0  0  0  0  0
    8.8959    4.0717    0.0000 C   0  0  0  0  0  0  0  0  0  0  0  0
    9.3118    6.0280    0.0000 C   0  0  0  0  0  0  0  0  0  0  0  0
    9.8470    4.3807    0.0000 C   0  0  0  0  0  0  0  0  0  0  0  0
   10.0549    5.3589    0.0000 C   0  0  0  0  0  0  0  0  0  0  0  0
    6.4564   -0.0947    0.0000 H   0  0  0  0  0  0  0  0  0  0  0  0
    6.9897    0.4976    0.0000 H   0  0  0  0  0  0  0  0  0  0  0  0
    4.8294    0.0186    0.0000 H   0  0  0  0  0  0  0  0  0  0  0  0
    7.6154    1.1924    0.0000 H   0  0  0  0  0  0  0  0  0  0  0  0
    8.1487    1.7848    0.0000 H   0  0  0  0  0  0  0  0  0  0  0  0
    5.2600    2.3988    0.0000 H   0  0  0  0  0  0  0  0  0  0  0  0
    5.5063    1.6407    0.0000 H   0  0  0  0  0  0  0  0  0  0  0  0
    5.2974   -1.3819    0.0000 H   0  0  0  0  0  0  0  0  0  0  0  0
    5.8308   -0.7896    0.0000 H   0  0  0  0  0  0  0  0  0  0  0  0
    8.3118    2.5523    0.0000 H   0  0  0  0  0  0  0  0  0  0  0  0
    8.0655    3.3103    0.0000 H   0  0  0  0  0  0  0  0  0  0  0  0
    5.9565    3.7586    0.0000 H   0  0  0  0  0  0  0  0  0  0  0  0
    5.4232    3.1663    0.0000 H   0  0  0  0  0  0  0  0  0  0  0  0
    2.0524   -0.8854    0.0000 H   0  0  0  0  0  0  0  0  0  0  0  0
    1.8084   -1.7474    0.0000 H   0  0  0  0  0  0  0  0  0  0  0  0
    1.4103   -2.5286    0.0000 H   0  0  0  0  0  0  0  0  0  0  0  0
    2.1916   -2.9267    0.0000 H   0  0  0  0  0  0  0  0  0  0  0  0
    4.8048    1.4858    0.0000 H   0  0  0  0  0  0  0  0  0  0  0  0
    4.3540   -3.2180    0.0000 H   0  0  0  0  0  0  0  0  0  0  0  0
    1.5481   -3.2180    0.0000 H   0  0  0  0  0  0  0  0  0  0  0  0
    4.3540   -4.8380    0.0000 H   0  0  0  0  0  0  0  0  0  0  0  0
    1.5481   -4.8380    0.0000 H   0  0  0  0  0  0  0  0  0  0  0  0
    7.9000    6.1338    0.0000 H   0  0  0  0  0  0  0  0  0  0  0  0
    8.7670    3.4653    0.0000 H   0  0  0  0  0  0  0  0  0  0  0  0
    9.4407    6.6345    0.0000 H   0  0  0  0  0  0  0  0  0  0  0  0
   10.3078    3.9659    0.0000 H   0  0  0  0  0  0  0  0  0  0  0  0
   10.6446    5.5505    0.0000 H   0  0  0  0  0  0  0  0  0  0  0  0
  1 28  1  0  0  0  0
  2 11  1  0  0  0  0
  2 51  1  0  0  0  0
  3 18  2  0  0  0  0
  4 19  2  0  0  0  0
  5 22  2  0  0  0  0
  6 10  1  0  0  0  0
  6 12  1  0  0  0  0
  6 13  1  0  0  0  0
  7 15  1  0  0  0  0
  7 18  1  0  0  0  0
  7 19  1  0  0  0  0
  8 16  1  0  0  0  0
  8 17  1  0  0  0  0
  8 22  1  0  0  0  0
  9 14  1  0  0  0  0
  9 19  1  0  0  0  0
  9 47  1  0  0  0  0
 10 11  1  0  0  0  0
 10 34  1  0  0  0  0
 10 35  1  0  0  0  0
 11 15  1  0  0  0  0
 11 36  1  0  0  0  0
 12 16  1  0  0  0  0
 12 37  1  0  0  0  0
 12 38  1  0  0  0  0
 13 17  1  0  0  0  0
 13 39  1  0  0  0  0
 13 40  1  0  0  0  0
 14 18  1  0  0  0  0
 14 20  1  0  0  0  0
 14 21  1  0  0  0  0
 15 41  1  0  0  0  0
 15 42  1  0  0  0  0
 16 43  1  0  0  0  0
 16 44  1  0  0  0  0
 17 45  1  0  0  0  0
 17 46  1  0  0  0  0
 20 23  2  0  0  0  0
 20 24  1  0  0  0  0
 21 48  1  0  0  0  0
 21 49  1  0  0  0  0
 21 50  1  0  0  0  0
 22 25  1  0  0  0  0
 23 26  1  0  0  0  0
 23 52  1  0  0  0  0
 24 27  2  0  0  0  0
 24 53  1  0  0  0  0
 25 29  2  0  0  0  0
 25 30  1  0  0  0  0
 26 28  2  0  0  0  0
 26 54  1  0  0  0  0
 27 28  1  0  0  0  0
 27 55  1  0  0  0  0
 29 31  1  0  0  0  0
 29 56  1  0  0  0  0
 30 32  2  0  0  0  0
 30 57  1  0  0  0  0
 31 33  2  0  0  0  0
 31 58  1  0  0  0  0
 32 33  1  0  0  0  0
 32 59  1  0  0  0  0
 33 60  1  0  0  0  0
M  END
> <PUBCHEM_COMPOUND_CID>
145979626

> <PUBCHEM_COMPOUND_CANONICALIZED>
1

> <PUBCHEM_CACTVS_COMPLEXITY>
730

> <PUBCHEM_CACTVS_HBOND_ACCEPTOR>
6

> <PUBCHEM_CACTVS_HBOND_DONOR>
2

> <PUBCHEM_CACTVS_ROTATABLE_BOND>
6

> <PUBCHEM_CACTVS_SUBSKEYS>
AAADceB7uQAAAAAAAAAAAAAAAAAAAWAAAAA8YIAAAAAAAAABQAAAHwAQCAAADJzhmA4zAIPAAgCIAiFSEACCAAAkAAAIiAGIBMiKcDKA1TGUIQholyKYiYcYiMCOgAAAAAAAAAAAAAAAAAAAAAAAAAAAAA==

> <PUBCHEM_IUPAC_OPENEYE_NAME>
3-[3-(4-benzoylpiperazin-1-yl)-2-hydroxy-propyl]-5-(4-fluorophenyl)-5-methyl-imidazolidine-2,4-dione

> <PUBCHEM_IUPAC_CAS_NAME>
3-[3-(4-benzoyl-1-piperazinyl)-2-hydroxypropyl]-5-(4-fluorophenyl)-5-methylimidazolidine-2,4-dione

> <PUBCHEM_IUPAC_NAME_MARKUP>
3-[3-(4-benzoylpiperazin-1-yl)-2-hydroxypropyl]-5-(4-fluorophenyl)-5-methylimidazolidine-2,4-dione

> <PUBCHEM_IUPAC_NAME>
3-[3-(4-benzoylpiperazin-1-yl)-2-hydroxypropyl]-5-(4-fluorophenyl)-5-methylimidazolidine-2,4-dione

> <PUBCHEM_IUPAC_SYSTEMATIC_NAME>
5-(4-fluorophenyl)-5-methyl-3-[2-oxidanyl-3-[4-(phenylcarbonyl)piperazin-1-yl]propyl]imidazolidine-2,4-dione

> <PUBCHEM_IUPAC_TRADITIONAL_NAME>
3-[3-(4-benzoylpiperazino)-2-hydroxy-propyl]-5-(4-fluorophenyl)-5-methyl-hydantoin

> <PUBCHEM_IUPAC_INCHI>
InChI=1S/C24H27FN4O4/c1-24(18-7-9-19(25)10-8-18)22(32)29(23(33)26-24)16-20(30)15-27-11-13-28(14-12-27)21(31)17-5-3-2-4-6-17/h2-10,20,30H,11-16H2,1H3,(H,26,33)

> <PUBCHEM_IUPAC_INCHIKEY>
IQEKWTUDUCNREQ-UHFFFAOYSA-N

> <PUBCHEM_XLOGP3_AA>
1.5

> <PUBCHEM_EXACT_MASS>
454.20163352

> <PUBCHEM_MOLECULAR_FORMULA>
C24H27FN4O4

> <PUBCHEM_MOLECULAR_WEIGHT>
454.5

> <PUBCHEM_OPENEYE_CAN_SMILES>
CC1(C(=O)N(C(=O)N1)CC(CN2CCN(CC2)C(=O)C3=CC=CC=C3)O)C4=CC=C(C=C4)F

> <PUBCHEM_OPENEYE_ISO_SMILES>
CC1(C(=O)N(C(=O)N1)CC(CN2CCN(CC2)C(=O)C3=CC=CC=C3)O)C4=CC=C(C=C4)F

> <PUBCHEM_CACTVS_TPSA>
93.2

> <PUBCHEM_MONOISOTOPIC_WEIGHT>
454.20163352

> <PUBCHEM_TOTAL_CHARGE>
0

> <PUBCHEM_HEAVY_ATOM_COUNT>
33

> <PUBCHEM_ATOM_DEF_STEREO_COUNT>
0

> <PUBCHEM_ATOM_UDEF_STEREO_COUNT>
2

> <PUBCHEM_BOND_DEF_STEREO_COUNT>
0

> <PUBCHEM_BOND_UDEF_STEREO_COUNT>
0

> <PUBCHEM_ISOTOPIC_ATOM_COUNT>
0

> <PUBCHEM_COMPONENT_COUNT>
1

> <PUBCHEM_CACTVS_TAUTO_COUNT>
-1

> <PUBCHEM_COORDINATE_TYPE>
1
5
255

> <PUBCHEM_BONDANNOTATIONS>
14  21  3
11  2  3
20  23  8
20  24  8
23  26  8
24  27  8
25  29  8
25  30  8
26  28  8
27  28  8
29  31  8
30  32  8
31  33  8
32  33  8

$$$$
