164610892
  -OEChem-09292322012D

 61 62  0     1  0  0  0  0  0999 V2000
    4.0015    5.1857    0.0000 S   0  0  0  0  0  0  0  0  0  0  0  0
    4.9720   -0.3088    0.0000 O   0  0  0  0  0  0  0  0  0  0  0  0
    5.8381   -1.8088    0.0000 N   0  0  0  0  0  0  0  0  0  0  0  0
    6.7041   -0.3088    0.0000 N   0  0  0  0  0  0  0  0  0  0  0  0
    5.8381    1.1912    0.0000 N   0  0  0  0  0  0  0  0  0  0  0  0
    7.5701    1.1912    0.0000 N   0  0  0  0  0  0  0  0  0  0  0  0
    2.5233    4.5276    0.0000 N   0  0  0  0  0  0  0  0  0  0  0  0
    2.6166    6.3072    0.0000 N   0  0  0  0  0  0  0  0  0  0  0  0
    4.1060   -4.8088    0.0000 C   0  0  0  0  0  0  0  0  0  0  0  0
    3.2400   -5.3088    0.0000 C   0  0  0  0  0  0  0  0  0  0  0  0
    4.9720   -5.3088    0.0000 C   0  0  0  0  0  0  0  0  0  0  0  0
    4.1060   -3.8088    0.0000 C   0  0  0  0  0  0  0  0  0  0  0  0
    3.2400   -6.3088    0.0000 C   0  0  0  0  0  0  0  0  0  0  0  0
    4.9720   -6.3088    0.0000 C   0  0  0  0  0  0  0  0  0  0  0  0
    4.1060   -6.8088    0.0000 C   0  0  0  0  0  0  0  0  0  0  0  0
    4.9720   -3.3088    0.0000 C   0  0  3  0  0  0  0  0  0  0  0  0
    4.9720   -2.3088    0.0000 C   0  0  0  0  0  0  0  0  0  0  0  0
    5.8381   -3.8088    0.0000 C   0  0  0  0  0  0  0  0  0  0  0  0
    5.8381   -0.8088    0.0000 C   0  0  0  0  0  0  0  0  0  0  0  0
    6.7041    0.6912    0.0000 C   0  0  0  0  0  0  0  0  0  0  0  0
    4.9720    2.6912    0.0000 C   0  0  0  0  0  0  0  0  0  0  0  0
    4.9720    3.6912    0.0000 C   0  0  0  0  0  0  0  0  0  0  0  0
    5.8381    2.1912    0.0000 C   0  0  0  0  0  0  0  0  0  0  0  0
    4.1060    4.1912    0.0000 C   0  0  0  0  0  0  0  0  0  0  0  0
    3.1925    3.7845    0.0000 C   0  0  0  0  0  0  0  0  0  0  0  0
    2.9846    2.8063    0.0000 C   0  0  0  0  0  0  0  0  0  0  0  0
    3.0233    5.3936    0.0000 C   0  0  0  0  0  0  0  0  0  0  0  0
    3.5691   -4.4988    0.0000 H   0  0  0  0  0  0  0  0  0  0  0  0
    3.0279   -4.7262    0.0000 H   0  0  0  0  0  0  0  0  0  0  0  0
    2.6294   -5.4164    0.0000 H   0  0  0  0  0  0  0  0  0  0  0  0
    5.5826   -5.4164    0.0000 H   0  0  0  0  0  0  0  0  0  0  0  0
    5.1841   -4.7262    0.0000 H   0  0  0  0  0  0  0  0  0  0  0  0
    3.8940   -3.2262    0.0000 H   0  0  0  0  0  0  0  0  0  0  0  0
    3.4954   -3.9164    0.0000 H   0  0  0  0  0  0  0  0  0  0  0  0
    2.6294   -6.2011    0.0000 H   0  0  0  0  0  0  0  0  0  0  0  0
    3.0279   -6.8914    0.0000 H   0  0  0  0  0  0  0  0  0  0  0  0
    5.1841   -6.8914    0.0000 H   0  0  0  0  0  0  0  0  0  0  0  0
    5.5826   -6.2011    0.0000 H   0  0  0  0  0  0  0  0  0  0  0  0
    3.7075   -7.2837    0.0000 H   0  0  0  0  0  0  0  0  0  0  0  0
    4.5045   -7.2837    0.0000 H   0  0  0  0  0  0  0  0  0  0  0  0
    4.9720   -3.9288    0.0000 H   0  0  0  0  0  0  0  0  0  0  0  0
    4.7600   -1.7262    0.0000 H   0  0  0  0  0  0  0  0  0  0  0  0
    4.3615   -2.4165    0.0000 H   0  0  0  0  0  0  0  0  0  0  0  0
    5.5281   -4.3457    0.0000 H   0  0  0  0  0  0  0  0  0  0  0  0
    6.3750   -4.1188    0.0000 H   0  0  0  0  0  0  0  0  0  0  0  0
    6.1481   -3.2718    0.0000 H   0  0  0  0  0  0  0  0  0  0  0  0
    6.3750   -2.1188    0.0000 H   0  0  0  0  0  0  0  0  0  0  0  0
    7.2410   -0.6188    0.0000 H   0  0  0  0  0  0  0  0  0  0  0  0
    4.3615    2.7989    0.0000 H   0  0  0  0  0  0  0  0  0  0  0  0
    4.7600    2.1086    0.0000 H   0  0  0  0  0  0  0  0  0  0  0  0
    5.5826    3.5836    0.0000 H   0  0  0  0  0  0  0  0  0  0  0  0
    5.1841    4.2738    0.0000 H   0  0  0  0  0  0  0  0  0  0  0  0
    6.4486    2.0835    0.0000 H   0  0  0  0  0  0  0  0  0  0  0  0
    6.0501    2.7738    0.0000 H   0  0  0  0  0  0  0  0  0  0  0  0
    7.5701    1.8112    0.0000 H   0  0  0  0  0  0  0  0  0  0  0  0
    8.1070    0.8812    0.0000 H   0  0  0  0  0  0  0  0  0  0  0  0
    2.3781    2.9352    0.0000 H   0  0  0  0  0  0  0  0  0  0  0  0
    2.8556    2.1999    0.0000 H   0  0  0  0  0  0  0  0  0  0  0  0
    3.5910    2.6774    0.0000 H   0  0  0  0  0  0  0  0  0  0  0  0
    2.0000    6.3720    0.0000 H   0  0  0  0  0  0  0  0  0  0  0  0
    2.9810    6.8088    0.0000 H   0  0  0  0  0  0  0  0  0  0  0  0
  1 24  1  0  0  0  0
  1 27  1  0  0  0  0
  2 19  2  0  0  0  0
  3 17  1  0  0  0  0
  3 19  1  0  0  0  0
  3 47  1  0  0  0  0
  4 19  1  0  0  0  0
  4 20  1  0  0  0  0
  4 48  1  0  0  0  0
  5 20  2  0  0  0  0
  5 23  1  0  0  0  0
  6 20  1  0  0  0  0
  6 55  1  0  0  0  0
  6 56  1  0  0  0  0
  7 25  1  0  0  0  0
  7 27  2  0  0  0  0
  8 27  1  0  0  0  0
  8 60  1  0  0  0  0
  8 61  1  0  0  0  0
  9 10  1  0  0  0  0
  9 11  1  0  0  0  0
  9 12  1  0  0  0  0
  9 28  1  0  0  0  0
 10 13  1  0  0  0  0
 10 29  1  0  0  0  0
 10 30  1  0  0  0  0
 11 14  1  0  0  0  0
 11 31  1  0  0  0  0
 11 32  1  0  0  0  0
 12 16  1  0  0  0  0
 12 33  1  0  0  0  0
 12 34  1  0  0  0  0
 13 15  1  0  0  0  0
 13 35  1  0  0  0  0
 13 36  1  0  0  0  0
 14 15  1  0  0  0  0
 14 37  1  0  0  0  0
 14 38  1  0  0  0  0
 15 39  1  0  0  0  0
 15 40  1  0  0  0  0
 16 17  1  0  0  0  0
 16 18  1  0  0  0  0
 16 41  1  0  0  0  0
 17 42  1  0  0  0  0
 17 43  1  0  0  0  0
 18 44  1  0  0  0  0
 18 45  1  0  0  0  0
 18 46  1  0  0  0  0
 21 22  1  0  0  0  0
 21 23  1  0  0  0  0
 21 49  1  0  0  0  0
 21 50  1  0  0  0  0
 22 24  1  0  0  0  0
 22 51  1  0  0  0  0
 22 52  1  0  0  0  0
 23 53  1  0  0  0  0
 23 54  1  0  0  0  0
 24 25  2  0  0  0  0
 25 26  1  0  0  0  0
 26 57  1  0  0  0  0
 26 58  1  0  0  0  0
 26 59  1  0  0  0  0
M  END
> <PUBCHEM_COMPOUND_CID>
164610892

> <PUBCHEM_COMPOUND_CANONICALIZED>
1

> <PUBCHEM_CACTVS_COMPLEXITY>
483

> <PUBCHEM_CACTVS_HBOND_ACCEPTOR>
5

> <PUBCHEM_CACTVS_HBOND_DONOR>
4

> <PUBCHEM_CACTVS_ROTATABLE_BOND>
9

> <PUBCHEM_CACTVS_SUBSKEYS>
AAADcfB7oABAAAAAAAAAAAAAAAAAAWAAAAAwAAAAAAAAAAABgAAAHgQQAAAADQjBVgQDkRLIEAisAQRgdAAA8KlhCDkBGJQ4QAiAIAJgkACEAAAolwJISCMQgMAOAAAAAAAAAAAAAAAAAAAAAAAAAAAAAA==

> <PUBCHEM_IUPAC_OPENEYE_NAME>
1-[N'-[3-(2-amino-4-methyl-thiazol-5-yl)propyl]carbamimidoyl]-3-(3-cyclohexyl-2-methyl-propyl)urea

> <PUBCHEM_IUPAC_CAS_NAME>
1-[amino-[3-(2-amino-4-methyl-5-thiazolyl)propylimino]methyl]-3-(3-cyclohexyl-2-methylpropyl)urea

> <PUBCHEM_IUPAC_NAME_MARKUP>
1-[<I>N</I>&apos;-[3-(2-amino-4-methyl-1,3-thiazol-5-yl)propyl]carbamimidoyl]-3-(3-cyclohexyl-2-methylpropyl)urea

> <PUBCHEM_IUPAC_NAME>
1-[N'-[3-(2-amino-4-methyl-1,3-thiazol-5-yl)propyl]carbamimidoyl]-3-(3-cyclohexyl-2-methylpropyl)urea

> <PUBCHEM_IUPAC_SYSTEMATIC_NAME>
1-[N'-[3-(2-azanyl-4-methyl-1,3-thiazol-5-yl)propyl]carbamimidoyl]-3-(3-cyclohexyl-2-methyl-propyl)urea

> <PUBCHEM_IUPAC_TRADITIONAL_NAME>
1-[N'-[3-(2-amino-4-methyl-thiazol-5-yl)propyl]amidino]-3-(3-cyclohexyl-2-methyl-propyl)urea

> <PUBCHEM_IUPAC_INCHI>
InChI=1S/C19H34N6OS/c1-13(11-15-7-4-3-5-8-15)12-23-19(26)25-17(20)22-10-6-9-16-14(2)24-18(21)27-16/h13,15H,3-12H2,1-2H3,(H2,21,24)(H4,20,22,23,25,26)

> <PUBCHEM_IUPAC_INCHIKEY>
GOPXEUGGDXDMDT-UHFFFAOYSA-N

> <PUBCHEM_XLOGP3_AA>
4.6

> <PUBCHEM_EXACT_MASS>
394.25148090

> <PUBCHEM_MOLECULAR_FORMULA>
C19H34N6OS

> <PUBCHEM_MOLECULAR_WEIGHT>
394.6

> <PUBCHEM_OPENEYE_CAN_SMILES>
CC1=C(SC(=N1)N)CCCN=C(N)NC(=O)NCC(C)CC2CCCCC2

> <PUBCHEM_OPENEYE_ISO_SMILES>
CC1=C(SC(=N1)N)CCCN=C(N)NC(=O)NCC(C)CC2CCCCC2

> <PUBCHEM_CACTVS_TPSA>
147

> <PUBCHEM_MONOISOTOPIC_WEIGHT>
394.25148090

> <PUBCHEM_TOTAL_CHARGE>
0

> <PUBCHEM_HEAVY_ATOM_COUNT>
27

> <PUBCHEM_ATOM_DEF_STEREO_COUNT>
0

> <PUBCHEM_ATOM_UDEF_STEREO_COUNT>
1

> <PUBCHEM_BOND_DEF_STEREO_COUNT>
0

> <PUBCHEM_BOND_UDEF_STEREO_COUNT>
0

> <PUBCHEM_ISOTOPIC_ATOM_COUNT>
0

> <PUBCHEM_COMPONENT_COUNT>
1

> <PUBCHEM_CACTVS_TAUTO_COUNT>
-1

> <PUBCHEM_COORDINATE_TYPE>
1
5
255

> <PUBCHEM_BONDANNOTATIONS>
1  24  8
1  27  8
16  18  3
24  25  8
7  25  8
7  27  8

$$$$
