25157260
  -OEChem-09292322502D

 56 58  0     0  0  0  0  0  0999 V2000
    7.1962   -1.7500    0.0000 O   0  0  0  0  0  0  0  0  0  0  0  0
   11.5263    2.7500    0.0000 O   0  0  0  0  0  0  0  0  0  0  0  0
    4.5981   -2.2500    0.0000 N   0  0  0  0  0  0  0  0  0  0  0  0
    2.8660   -3.2500    0.0000 N   0  0  0  0  0  0  0  0  0  0  0  0
    4.5981   -3.2500    0.0000 C   0  0  0  0  0  0  0  0  0  0  0  0
    3.7320   -1.7500    0.0000 C   0  0  0  0  0  0  0  0  0  0  0  0
    3.7320   -3.7500    0.0000 C   0  0  0  0  0  0  0  0  0  0  0  0
    2.8660   -2.2500    0.0000 C   0  0  0  0  0  0  0  0  0  0  0  0
    5.4641   -1.7500    0.0000 C   0  0  0  0  0  0  0  0  0  0  0  0
    6.3301   -2.2500    0.0000 C   0  0  0  0  0  0  0  0  0  0  0  0
    2.0000   -3.7500    0.0000 C   0  0  0  0  0  0  0  0  0  0  0  0
    8.0622   -2.2500    0.0000 C   0  0  0  0  0  0  0  0  0  0  0  0
    8.9282   -1.7500    0.0000 C   0  0  0  0  0  0  0  0  0  0  0  0
    8.9282   -0.7500    0.0000 C   0  0  0  0  0  0  0  0  0  0  0  0
    9.7942   -0.2500    0.0000 C   0  0  0  0  0  0  0  0  0  0  0  0
    8.0622   -3.2500    0.0000 C   0  0  0  0  0  0  0  0  0  0  0  0
    9.7942   -2.2500    0.0000 C   0  0  0  0  0  0  0  0  0  0  0  0
    9.7942    0.7500    0.0000 C   0  0  0  0  0  0  0  0  0  0  0  0
    8.9282   -3.7500    0.0000 C   0  0  0  0  0  0  0  0  0  0  0  0
    9.7942   -3.2500    0.0000 C   0  0  0  0  0  0  0  0  0  0  0  0
   10.6603    1.2500    0.0000 C   0  0  0  0  0  0  0  0  0  0  0  0
    8.9282    1.2500    0.0000 C   0  0  0  0  0  0  0  0  0  0  0  0
   10.6603    2.2500    0.0000 C   0  0  0  0  0  0  0  0  0  0  0  0
    8.9282    2.2500    0.0000 C   0  0  0  0  0  0  0  0  0  0  0  0
    9.7942    2.7500    0.0000 C   0  0  0  0  0  0  0  0  0  0  0  0
   11.5263    3.7500    0.0000 C   0  0  0  0  0  0  0  0  0  0  0  0
    4.8101   -3.8326    0.0000 H   0  0  0  0  0  0  0  0  0  0  0  0
    5.2087   -3.1423    0.0000 H   0  0  0  0  0  0  0  0  0  0  0  0
    4.1306   -1.2750    0.0000 H   0  0  0  0  0  0  0  0  0  0  0  0
    3.3335   -1.2750    0.0000 H   0  0  0  0  0  0  0  0  0  0  0  0
    3.3335   -4.2250    0.0000 H   0  0  0  0  0  0  0  0  0  0  0  0
    4.1306   -4.2250    0.0000 H   0  0  0  0  0  0  0  0  0  0  0  0
    2.6540   -1.6674    0.0000 H   0  0  0  0  0  0  0  0  0  0  0  0
    2.2554   -2.3577    0.0000 H   0  0  0  0  0  0  0  0  0  0  0  0
    5.8626   -1.2750    0.0000 H   0  0  0  0  0  0  0  0  0  0  0  0
    5.0656   -1.2750    0.0000 H   0  0  0  0  0  0  0  0  0  0  0  0
    5.9316   -2.7250    0.0000 H   0  0  0  0  0  0  0  0  0  0  0  0
    6.7287   -2.7250    0.0000 H   0  0  0  0  0  0  0  0  0  0  0  0
    1.6900   -3.2131    0.0000 H   0  0  0  0  0  0  0  0  0  0  0  0
    1.4631   -4.0600    0.0000 H   0  0  0  0  0  0  0  0  0  0  0  0
    2.3100   -4.2869    0.0000 H   0  0  0  0  0  0  0  0  0  0  0  0
    8.7162   -0.1674    0.0000 H   0  0  0  0  0  0  0  0  0  0  0  0
    8.3176   -0.8577    0.0000 H   0  0  0  0  0  0  0  0  0  0  0  0
   10.0063   -0.8326    0.0000 H   0  0  0  0  0  0  0  0  0  0  0  0
   10.4048   -0.1423    0.0000 H   0  0  0  0  0  0  0  0  0  0  0  0
    7.5252   -3.5600    0.0000 H   0  0  0  0  0  0  0  0  0  0  0  0
   10.3312   -1.9400    0.0000 H   0  0  0  0  0  0  0  0  0  0  0  0
    8.9282   -4.3700    0.0000 H   0  0  0  0  0  0  0  0  0  0  0  0
   10.3312   -3.5600    0.0000 H   0  0  0  0  0  0  0  0  0  0  0  0
   11.1972    0.9400    0.0000 H   0  0  0  0  0  0  0  0  0  0  0  0
    8.3913    0.9400    0.0000 H   0  0  0  0  0  0  0  0  0  0  0  0
    8.3913    2.5600    0.0000 H   0  0  0  0  0  0  0  0  0  0  0  0
    9.7942    3.3700    0.0000 H   0  0  0  0  0  0  0  0  0  0  0  0
   12.1463    3.7500    0.0000 H   0  0  0  0  0  0  0  0  0  0  0  0
   11.5263    4.3700    0.0000 H   0  0  0  0  0  0  0  0  0  0  0  0
   10.9063    3.7500    0.0000 H   0  0  0  0  0  0  0  0  0  0  0  0
  1 10  1  0  0  0  0
  1 12  1  0  0  0  0
  2 23  1  0  0  0  0
  2 26  1  0  0  0  0
  3  5  1  0  0  0  0
  3  6  1  0  0  0  0
  3  9  1  0  0  0  0
  4  7  1  0  0  0  0
  4  8  1  0  0  0  0
  4 11  1  0  0  0  0
  5  7  1  0  0  0  0
  5 27  1  0  0  0  0
  5 28  1  0  0  0  0
  6  8  1  0  0  0  0
  6 29  1  0  0  0  0
  6 30  1  0  0  0  0
  7 31  1  0  0  0  0
  7 32  1  0  0  0  0
  8 33  1  0  0  0  0
  8 34  1  0  0  0  0
  9 10  1  0  0  0  0
  9 35  1  0  0  0  0
  9 36  1  0  0  0  0
 10 37  1  0  0  0  0
 10 38  1  0  0  0  0
 11 39  1  0  0  0  0
 11 40  1  0  0  0  0
 11 41  1  0  0  0  0
 12 13  1  0  0  0  0
 12 16  2  0  0  0  0
 13 14  1  0  0  0  0
 13 17  2  0  0  0  0
 14 15  1  0  0  0  0
 14 42  1  0  0  0  0
 14 43  1  0  0  0  0
 15 18  1  0  0  0  0
 15 44  1  0  0  0  0
 15 45  1  0  0  0  0
 16 19  1  0  0  0  0
 16 46  1  0  0  0  0
 17 20  1  0  0  0  0
 17 47  1  0  0  0  0
 18 21  2  0  0  0  0
 18 22  1  0  0  0  0
 19 20  2  0  0  0  0
 19 48  1  0  0  0  0
 20 49  1  0  0  0  0
 21 23  1  0  0  0  0
 21 50  1  0  0  0  0
 22 24  2  0  0  0  0
 22 51  1  0  0  0  0
 23 25  2  0  0  0  0
 24 25  1  0  0  0  0
 24 52  1  0  0  0  0
 25 53  1  0  0  0  0
 26 54  1  0  0  0  0
 26 55  1  0  0  0  0
 26 56  1  0  0  0  0
M  END
> <PUBCHEM_COMPOUND_CID>
25157260

> <PUBCHEM_COMPOUND_CANONICALIZED>
1

> <PUBCHEM_CACTVS_COMPLEXITY>
384

> <PUBCHEM_CACTVS_HBOND_ACCEPTOR>
4

> <PUBCHEM_CACTVS_HBOND_DONOR>
0

> <PUBCHEM_CACTVS_ROTATABLE_BOND>
8

> <PUBCHEM_CACTVS_SUBSKEYS>
AAADceB7MAAAAAAAAAAAAAAAAAAAAAAAAAA8YIAAAAAAAAABQAAAHgAAAAAADAThmAYyBoMABACAAiBCAAACCAAgIAAIiAAOCIgOZiKEMRqTOCCkwBGYqAeAwPAOAAABAAAIAAAAAAIAABAAAAAAAAAAAA==

> <PUBCHEM_IUPAC_OPENEYE_NAME>
1-[2-[2-[2-(3-methoxyphenyl)ethyl]phenoxy]ethyl]-4-methyl-piperazine

> <PUBCHEM_IUPAC_CAS_NAME>
1-[2-[2-[2-(3-methoxyphenyl)ethyl]phenoxy]ethyl]-4-methylpiperazine

> <PUBCHEM_IUPAC_NAME_MARKUP>
1-[2-[2-[2-(3-methoxyphenyl)ethyl]phenoxy]ethyl]-4-methylpiperazine

> <PUBCHEM_IUPAC_NAME>
1-[2-[2-[2-(3-methoxyphenyl)ethyl]phenoxy]ethyl]-4-methylpiperazine

> <PUBCHEM_IUPAC_SYSTEMATIC_NAME>
1-[2-[2-[2-(3-methoxyphenyl)ethyl]phenoxy]ethyl]-4-methyl-piperazine

> <PUBCHEM_IUPAC_TRADITIONAL_NAME>
1-[2-[2-[2-(3-methoxyphenyl)ethyl]phenoxy]ethyl]-4-methyl-piperazine

> <PUBCHEM_IUPAC_INCHI>
InChI=1S/C22H30N2O2/c1-23-12-14-24(15-13-23)16-17-26-22-9-4-3-7-20(22)11-10-19-6-5-8-21(18-19)25-2/h3-9,18H,10-17H2,1-2H3

> <PUBCHEM_IUPAC_INCHIKEY>
QNUFXAULMIMQGB-UHFFFAOYSA-N

> <PUBCHEM_XLOGP3_AA>
3.9

> <PUBCHEM_EXACT_MASS>
354.230728204

> <PUBCHEM_MOLECULAR_FORMULA>
C22H30N2O2

> <PUBCHEM_MOLECULAR_WEIGHT>
354.5

> <PUBCHEM_OPENEYE_CAN_SMILES>
CN1CCN(CC1)CCOC2=CC=CC=C2CCC3=CC(=CC=C3)OC

> <PUBCHEM_OPENEYE_ISO_SMILES>
CN1CCN(CC1)CCOC2=CC=CC=C2CCC3=CC(=CC=C3)OC

> <PUBCHEM_CACTVS_TPSA>
24.9

> <PUBCHEM_MONOISOTOPIC_WEIGHT>
354.230728204

> <PUBCHEM_TOTAL_CHARGE>
0

> <PUBCHEM_HEAVY_ATOM_COUNT>
26

> <PUBCHEM_ATOM_DEF_STEREO_COUNT>
0

> <PUBCHEM_ATOM_UDEF_STEREO_COUNT>
0

> <PUBCHEM_BOND_DEF_STEREO_COUNT>
0

> <PUBCHEM_BOND_UDEF_STEREO_COUNT>
0

> <PUBCHEM_ISOTOPIC_ATOM_COUNT>
0

> <PUBCHEM_COMPONENT_COUNT>
1

> <PUBCHEM_CACTVS_TAUTO_COUNT>
-1

> <PUBCHEM_COORDINATE_TYPE>
1
5
255

> <PUBCHEM_BONDANNOTATIONS>
12  13  8
12  16  8
13  17  8
16  19  8
17  20  8
18  21  8
18  22  8
19  20  8
21  23  8
22  24  8
23  25  8
24  25  8

$$$$
