13493795
  -OEChem-09292322042D

 57 58  0     1  0  0  0  0  0999 V2000
    3.7320    1.6488    0.0000 O   0  0  0  0  0  0  0  0  0  0  0  0
    2.8660    0.1488    0.0000 O   0  0  0  0  0  0  0  0  0  0  0  0
    6.3301    0.1488    0.0000 O   0  0  0  0  0  0  0  0  0  0  0  0
    7.2437    2.7420    0.0000 N   0  0  3  0  0  0  0  0  0  0  0  0
    5.4641    1.6488    0.0000 N   0  0  0  0  0  0  0  0  0  0  0  0
    6.3301    3.1488    0.0000 C   0  0  1  0  0  0  0  0  0  0  0  0
    6.4347    4.1433    0.0000 C   0  0  0  0  0  0  0  0  0  0  0  0
    7.4128    4.3512    0.0000 C   0  0  0  0  0  0  0  0  0  0  0  0
    7.9128    3.4852    0.0000 C   0  0  0  0  0  0  0  0  0  0  0  0
    5.4641    2.6488    0.0000 C   0  0  0  0  0  0  0  0  0  0  0  0
    7.4516    1.7639    0.0000 C   0  0  0  0  0  0  0  0  0  0  0  0
    8.4026    1.4549    0.0000 C   0  0  0  0  0  0  0  0  0  0  0  0
    4.5981    1.1488    0.0000 C   0  0  0  0  0  0  0  0  0  0  0  0
    4.5981    0.1488    0.0000 C   0  0  0  0  0  0  0  0  0  0  0  0
    3.7320   -0.3512    0.0000 C   0  0  0  0  0  0  0  0  0  0  0  0
    3.7320   -1.3512    0.0000 C   0  0  0  0  0  0  0  0  0  0  0  0
    2.8660   -1.8512    0.0000 C   0  0  0  0  0  0  0  0  0  0  0  0
    5.4641   -0.3512    0.0000 C   0  0  0  0  0  0  0  0  0  0  0  0
    2.8660   -2.8512    0.0000 C   0  0  0  0  0  0  0  0  0  0  0  0
    4.5981   -1.8512    0.0000 C   0  0  0  0  0  0  0  0  0  0  0  0
    5.4641   -1.3512    0.0000 C   0  0  0  0  0  0  0  0  0  0  0  0
    2.0000   -3.3512    0.0000 C   0  0  0  0  0  0  0  0  0  0  0  0
    2.0000   -4.3512    0.0000 C   0  0  0  0  0  0  0  0  0  0  0  0
    2.0000   -0.3512    0.0000 C   0  0  0  0  0  0  0  0  0  0  0  0
    7.1962   -0.3512    0.0000 C   0  0  0  0  0  0  0  0  0  0  0  0
    6.3626    2.5296    0.0000 H   0  0  0  0  0  0  0  0  0  0  0  0
    6.3698    4.7599    0.0000 H   0  0  0  0  0  0  0  0  0  0  0  0
    5.8147    4.1433    0.0000 H   0  0  0  0  0  0  0  0  0  0  0  0
    7.9792    4.6034    0.0000 H   0  0  0  0  0  0  0  0  0  0  0  0
    7.2212    4.9409    0.0000 H   0  0  0  0  0  0  0  0  0  0  0  0
    8.3277    3.0244    0.0000 H   0  0  0  0  0  0  0  0  0  0  0  0
    8.4144    3.8496    0.0000 H   0  0  0  0  0  0  0  0  0  0  0  0
    5.2520    3.2314    0.0000 H   0  0  0  0  0  0  0  0  0  0  0  0
    4.8535    2.5411    0.0000 H   0  0  0  0  0  0  0  0  0  0  0  0
    6.8320    1.7423    0.0000 H   0  0  0  0  0  0  0  0  0  0  0  0
    7.3653    1.1499    0.0000 H   0  0  0  0  0  0  0  0  0  0  0  0
    6.0010    1.3388    0.0000 H   0  0  0  0  0  0  0  0  0  0  0  0
    8.2110    0.8652    0.0000 H   0  0  0  0  0  0  0  0  0  0  0  0
    8.9923    1.2633    0.0000 H   0  0  0  0  0  0  0  0  0  0  0  0
    8.5942    2.0445    0.0000 H   0  0  0  0  0  0  0  0  0  0  0  0
    2.6540   -1.2686    0.0000 H   0  0  0  0  0  0  0  0  0  0  0  0
    2.2554   -1.9589    0.0000 H   0  0  0  0  0  0  0  0  0  0  0  0
    3.0781   -3.4338    0.0000 H   0  0  0  0  0  0  0  0  0  0  0  0
    3.4766   -2.7436    0.0000 H   0  0  0  0  0  0  0  0  0  0  0  0
    4.5981   -2.4712    0.0000 H   0  0  0  0  0  0  0  0  0  0  0  0
    6.0010   -1.6612    0.0000 H   0  0  0  0  0  0  0  0  0  0  0  0
    1.7880   -2.7686    0.0000 H   0  0  0  0  0  0  0  0  0  0  0  0
    1.3894   -3.4589    0.0000 H   0  0  0  0  0  0  0  0  0  0  0  0
    1.3800   -4.3512    0.0000 H   0  0  0  0  0  0  0  0  0  0  0  0
    2.0000   -4.9712    0.0000 H   0  0  0  0  0  0  0  0  0  0  0  0
    2.6200   -4.3512    0.0000 H   0  0  0  0  0  0  0  0  0  0  0  0
    1.6900    0.1857    0.0000 H   0  0  0  0  0  0  0  0  0  0  0  0
    1.4631   -0.6612    0.0000 H   0  0  0  0  0  0  0  0  0  0  0  0
    2.3100   -0.8882    0.0000 H   0  0  0  0  0  0  0  0  0  0  0  0
    6.8862   -0.8882    0.0000 H   0  0  0  0  0  0  0  0  0  0  0  0
    7.7331   -0.6612    0.0000 H   0  0  0  0  0  0  0  0  0  0  0  0
    7.5062    0.1857    0.0000 H   0  0  0  0  0  0  0  0  0  0  0  0
  1 13  2  0  0  0  0
  2 15  1  0  0  0  0
  2 24  1  0  0  0  0
  3 18  1  0  0  0  0
  3 25  1  0  0  0  0
  4  6  1  0  0  0  0
  4  9  1  0  0  0  0
  4 11  1  0  0  0  0
  5 10  1  0  0  0  0
  5 13  1  0  0  0  0
  5 37  1  0  0  0  0
  6  7  1  0  0  0  0
  6 10  1  6  0  0  0
  6 26  1  0  0  0  0
  7  8  1  0  0  0  0
  7 27  1  0  0  0  0
  7 28  1  0  0  0  0
  8  9  1  0  0  0  0
  8 29  1  0  0  0  0
  8 30  1  0  0  0  0
  9 31  1  0  0  0  0
  9 32  1  0  0  0  0
 10 33  1  0  0  0  0
 10 34  1  0  0  0  0
 11 12  1  0  0  0  0
 11 35  1  0  0  0  0
 11 36  1  0  0  0  0
 12 38  1  0  0  0  0
 12 39  1  0  0  0  0
 12 40  1  0  0  0  0
 13 14  1  0  0  0  0
 14 15  1  0  0  0  0
 14 18  2  0  0  0  0
 15 16  2  0  0  0  0
 16 17  1  0  0  0  0
 16 20  1  0  0  0  0
 17 19  1  0  0  0  0
 17 41  1  0  0  0  0
 17 42  1  0  0  0  0
 18 21  1  0  0  0  0
 19 22  1  0  0  0  0
 19 43  1  0  0  0  0
 19 44  1  0  0  0  0
 20 21  2  0  0  0  0
 20 45  1  0  0  0  0
 21 46  1  0  0  0  0
 22 23  1  0  0  0  0
 22 47  1  0  0  0  0
 22 48  1  0  0  0  0
 23 49  1  0  0  0  0
 23 50  1  0  0  0  0
 23 51  1  0  0  0  0
 24 52  1  0  0  0  0
 24 53  1  0  0  0  0
 24 54  1  0  0  0  0
 25 55  1  0  0  0  0
 25 56  1  0  0  0  0
 25 57  1  0  0  0  0
M  END
> <PUBCHEM_COMPOUND_CID>
13493795

> <PUBCHEM_COMPOUND_CANONICALIZED>
1

> <PUBCHEM_CACTVS_COMPLEXITY>
404

> <PUBCHEM_CACTVS_HBOND_ACCEPTOR>
4

> <PUBCHEM_CACTVS_HBOND_DONOR>
1

> <PUBCHEM_CACTVS_ROTATABLE_BOND>
9

> <PUBCHEM_CACTVS_SUBSKEYS>
AAADcfB7MAAAAAAAAAAAAAAAAAAAAWAAAAAwAAAAAAAAAAABAAAAHgAQAAAADCzBmAYyBoPABACIAiFSEACCCAAkIAAIiIEODMgMZzaEtRuUMWhn9hWIqQeY6OyOIAACCAAIAABAAAQQABAAAAAAAAAAAA==

> <PUBCHEM_IUPAC_OPENEYE_NAME>
3-butyl-N-[[(2S)-1-ethylpyrrolidin-2-yl]methyl]-2,6-dimethoxy-benzamide

> <PUBCHEM_IUPAC_CAS_NAME>
3-butyl-N-[[(2S)-1-ethyl-2-pyrrolidinyl]methyl]-2,6-dimethoxybenzamide

> <PUBCHEM_IUPAC_NAME_MARKUP>
3-butyl-<I>N</I>-[[(2<I>S</I>)-1-ethylpyrrolidin-2-yl]methyl]-2,6-dimethoxybenzamide

> <PUBCHEM_IUPAC_NAME>
3-butyl-N-[[(2S)-1-ethylpyrrolidin-2-yl]methyl]-2,6-dimethoxybenzamide

> <PUBCHEM_IUPAC_SYSTEMATIC_NAME>
3-butyl-N-[[(2S)-1-ethylpyrrolidin-2-yl]methyl]-2,6-dimethoxy-benzamide

> <PUBCHEM_IUPAC_TRADITIONAL_NAME>
3-butyl-N-[[(2S)-1-ethylpyrrolidin-2-yl]methyl]-2,6-dimethoxy-benzamide

> <PUBCHEM_IUPAC_INCHI>
InChI=1S/C20H32N2O3/c1-5-7-9-15-11-12-17(24-3)18(19(15)25-4)20(23)21-14-16-10-8-13-22(16)6-2/h11-12,16H,5-10,13-14H2,1-4H3,(H,21,23)/t16-/m0/s1

> <PUBCHEM_IUPAC_INCHIKEY>
PFXPCDOQQVRYNP-INIZCTEOSA-N

> <PUBCHEM_XLOGP3>
3.3

> <PUBCHEM_EXACT_MASS>
348.24129289

> <PUBCHEM_MOLECULAR_FORMULA>
C20H32N2O3

> <PUBCHEM_MOLECULAR_WEIGHT>
348.5

> <PUBCHEM_OPENEYE_CAN_SMILES>
CCCCC1=C(C(=C(C=C1)OC)C(=O)NCC2CCCN2CC)OC

> <PUBCHEM_OPENEYE_ISO_SMILES>
CCCCC1=C(C(=C(C=C1)OC)C(=O)NC[C@@H]2CCCN2CC)OC

> <PUBCHEM_CACTVS_TPSA>
50.8

> <PUBCHEM_MONOISOTOPIC_WEIGHT>
348.24129289

> <PUBCHEM_TOTAL_CHARGE>
0

> <PUBCHEM_HEAVY_ATOM_COUNT>
25

> <PUBCHEM_ATOM_DEF_STEREO_COUNT>
1

> <PUBCHEM_ATOM_UDEF_STEREO_COUNT>
0

> <PUBCHEM_BOND_DEF_STEREO_COUNT>
0

> <PUBCHEM_BOND_UDEF_STEREO_COUNT>
0

> <PUBCHEM_ISOTOPIC_ATOM_COUNT>
0

> <PUBCHEM_COMPONENT_COUNT>
1

> <PUBCHEM_CACTVS_TAUTO_COUNT>
-1

> <PUBCHEM_COORDINATE_TYPE>
1
5
255

> <PUBCHEM_BONDANNOTATIONS>
14  15  8
14  18  8
15  16  8
16  20  8
18  21  8
20  21  8
6  10  6

$$$$
