121304597
  -OEChem-09292322372D

 56 60  0     1  0  0  0  0  0999 V2000
    3.9538    1.2511    0.0000 S   0  0  0  0  0  0  0  0  0  0  0  0
    5.3159   -6.5989    0.0000 F   0  0  0  0  0  0  0  0  0  0  0  0
    8.7800   -6.5989    0.0000 F   0  0  0  0  0  0  0  0  0  0  0  0
    4.3159   -2.1941    0.0000 N   0  0  3  0  0  0  0  0  0  0  0  0
    3.6750    3.0111    0.0000 N   0  0  0  0  0  0  0  0  0  0  0  0
    2.3660    2.0601    0.0000 N   0  0  0  0  0  0  0  0  0  0  0  0
    2.0570    3.0111    0.0000 N   0  0  0  0  0  0  0  0  0  0  0  0
    2.0000    6.0989    0.0000 N   0  0  0  0  0  0  0  0  0  0  0  0
    4.8159   -3.7329    0.0000 C   0  0  2  0  0  0  0  0  0  0  0  0
    5.3159   -4.5989    0.0000 C   0  0  2  0  0  0  0  0  0  0  0  0
    4.3159   -4.5989    0.0000 C   0  0  0  0  0  0  0  0  0  0  0  0
    5.6249   -3.1451    0.0000 C   0  0  0  0  0  0  0  0  0  0  0  0
    4.0069   -3.1451    0.0000 C   0  0  0  0  0  0  0  0  0  0  0  0
    5.3159   -2.1941    0.0000 C   0  0  0  0  0  0  0  0  0  0  0  0
    6.1819   -5.0989    0.0000 C   0  0  0  0  0  0  0  0  0  0  0  0
    3.7281   -1.3850    0.0000 C   0  0  0  0  0  0  0  0  0  0  0  0
    6.1819   -6.0989    0.0000 C   0  0  0  0  0  0  0  0  0  0  0  0
    7.0480   -4.5989    0.0000 C   0  0  0  0  0  0  0  0  0  0  0  0
    4.1349   -0.4715    0.0000 C   0  0  0  0  0  0  0  0  0  0  0  0
    7.0480   -6.5989    0.0000 C   0  0  0  0  0  0  0  0  0  0  0  0
    7.9140   -5.0989    0.0000 C   0  0  0  0  0  0  0  0  0  0  0  0
    3.5471    0.3375    0.0000 C   0  0  0  0  0  0  0  0  0  0  0  0
    7.9140   -6.0989    0.0000 C   0  0  0  0  0  0  0  0  0  0  0  0
    3.3660    2.0601    0.0000 C   0  0  0  0  0  0  0  0  0  0  0  0
    2.8660    3.5989    0.0000 C   0  0  0  0  0  0  0  0  0  0  0  0
    4.6261    3.3202    0.0000 C   0  0  0  0  0  0  0  0  0  0  0  0
    2.8660    4.5989    0.0000 C   0  0  0  0  0  0  0  0  0  0  0  0
    3.7320    5.0989    0.0000 C   0  0  0  0  0  0  0  0  0  0  0  0
    2.0000    5.0989    0.0000 C   0  0  0  0  0  0  0  0  0  0  0  0
    3.7320    6.0989    0.0000 C   0  0  0  0  0  0  0  0  0  0  0  0
    2.8660    6.5989    0.0000 C   0  0  0  0  0  0  0  0  0  0  0  0
    5.1554   -5.1978    0.0000 H   0  0  0  0  0  0  0  0  0  0  0  0
    3.7333   -4.3869    0.0000 H   0  0  0  0  0  0  0  0  0  0  0  0
    4.2082   -5.2095    0.0000 H   0  0  0  0  0  0  0  0  0  0  0  0
    5.9349   -3.6820    0.0000 H   0  0  0  0  0  0  0  0  0  0  0  0
    6.1913   -2.8929    0.0000 H   0  0  0  0  0  0  0  0  0  0  0  0
    3.4405   -2.8929    0.0000 H   0  0  0  0  0  0  0  0  0  0  0  0
    3.6969   -3.6820    0.0000 H   0  0  0  0  0  0  0  0  0  0  0  0
    5.9224   -2.0652    0.0000 H   0  0  0  0  0  0  0  0  0  0  0  0
    5.2511   -1.5774    0.0000 H   0  0  0  0  0  0  0  0  0  0  0  0
    3.2141   -1.0383    0.0000 H   0  0  0  0  0  0  0  0  0  0  0  0
    3.2974   -1.8310    0.0000 H   0  0  0  0  0  0  0  0  0  0  0  0
    7.0480   -3.9789    0.0000 H   0  0  0  0  0  0  0  0  0  0  0  0
    4.6489   -0.8182    0.0000 H   0  0  0  0  0  0  0  0  0  0  0  0
    4.5656   -0.0255    0.0000 H   0  0  0  0  0  0  0  0  0  0  0  0
    7.0480   -7.2189    0.0000 H   0  0  0  0  0  0  0  0  0  0  0  0
    8.4509   -4.7889    0.0000 H   0  0  0  0  0  0  0  0  0  0  0  0
    3.0331    0.6842    0.0000 H   0  0  0  0  0  0  0  0  0  0  0  0
    3.1164   -0.1085    0.0000 H   0  0  0  0  0  0  0  0  0  0  0  0
    4.8177    2.7305    0.0000 H   0  0  0  0  0  0  0  0  0  0  0  0
    5.2158    3.5118    0.0000 H   0  0  0  0  0  0  0  0  0  0  0  0
    4.4345    3.9098    0.0000 H   0  0  0  0  0  0  0  0  0  0  0  0
    4.2690    4.7889    0.0000 H   0  0  0  0  0  0  0  0  0  0  0  0
    1.4631    4.7889    0.0000 H   0  0  0  0  0  0  0  0  0  0  0  0
    4.2690    6.4089    0.0000 H   0  0  0  0  0  0  0  0  0  0  0  0
    2.8660    7.2189    0.0000 H   0  0  0  0  0  0  0  0  0  0  0  0
  1 22  1  0  0  0  0
  1 24  1  0  0  0  0
  2 17  1  0  0  0  0
  3 23  1  0  0  0  0
  4 13  1  0  0  0  0
  4 14  1  0  0  0  0
  4 16  1  0  0  0  0
  5 24  1  0  0  0  0
  5 25  1  0  0  0  0
  5 26  1  0  0  0  0
  6  7  1  0  0  0  0
  6 24  2  0  0  0  0
  7 25  2  0  0  0  0
  8 29  1  0  0  0  0
  8 31  2  0  0  0  0
  9 10  1  0  0  0  0
  9 11  1  6  0  0  0
  9 12  1  0  0  0  0
  9 13  1  0  0  0  0
 10 11  1  0  0  0  0
 10 15  1  1  0  0  0
 10 32  1  0  0  0  0
 11 33  1  0  0  0  0
 11 34  1  0  0  0  0
 12 14  1  0  0  0  0
 12 35  1  0  0  0  0
 12 36  1  0  0  0  0
 13 37  1  0  0  0  0
 13 38  1  0  0  0  0
 14 39  1  0  0  0  0
 14 40  1  0  0  0  0
 15 17  2  0  0  0  0
 15 18  1  0  0  0  0
 16 19  1  0  0  0  0
 16 41  1  0  0  0  0
 16 42  1  0  0  0  0
 17 20  1  0  0  0  0
 18 21  2  0  0  0  0
 18 43  1  0  0  0  0
 19 22  1  0  0  0  0
 19 44  1  0  0  0  0
 19 45  1  0  0  0  0
 20 23  2  0  0  0  0
 20 46  1  0  0  0  0
 21 23  1  0  0  0  0
 21 47  1  0  0  0  0
 22 48  1  0  0  0  0
 22 49  1  0  0  0  0
 25 27  1  0  0  0  0
 26 50  1  0  0  0  0
 26 51  1  0  0  0  0
 26 52  1  0  0  0  0
 27 28  1  0  0  0  0
 27 29  2  0  0  0  0
 28 30  2  0  0  0  0
 28 53  1  0  0  0  0
 29 54  1  0  0  0  0
 30 31  1  0  0  0  0
 30 55  1  0  0  0  0
 31 56  1  0  0  0  0
M  END
> <PUBCHEM_COMPOUND_CID>
121304597

> <PUBCHEM_COMPOUND_CANONICALIZED>
1

> <PUBCHEM_CACTVS_COMPLEXITY>
615

> <PUBCHEM_CACTVS_HBOND_ACCEPTOR>
7

> <PUBCHEM_CACTVS_HBOND_DONOR>
0

> <PUBCHEM_CACTVS_ROTATABLE_BOND>
7

> <PUBCHEM_CACTVS_SUBSKEYS>
AAADceB7gYBAAAAAAAAAAAAAGAAAAWLAAAA8QAAAAAAAAAAB8AAAHQQIAAAADwDFWwy/kJcMEAiiAjJnZACS0CtxArAd2CA4ZJiIKOLg2ZGEIAhgiALIyAcQgMAPgAAAAAAAAAAAAAAAAAAAAAAAAAAAAA==

> <PUBCHEM_IUPAC_OPENEYE_NAME>
(2S,3S)-2-(2,4-difluorophenyl)-5-[3-[[4-methyl-5-(3-pyridyl)-1,2,4-triazol-3-yl]sulfanyl]propyl]-5-azaspiro[2.4]heptane

> <PUBCHEM_IUPAC_CAS_NAME>
(2S,3S)-2-(2,4-difluorophenyl)-5-[3-[[4-methyl-5-(3-pyridinyl)-1,2,4-triazol-3-yl]thio]propyl]-5-azaspiro[2.4]heptane

> <PUBCHEM_IUPAC_NAME_MARKUP>
(2<I>S</I>,3<I>S</I>)-2-(2,4-difluorophenyl)-5-[3-[(4-methyl-5-pyridin-3-yl-1,2,4-triazol-3-yl)sulfanyl]propyl]-5-azaspiro[2.4]heptane

> <PUBCHEM_IUPAC_NAME>
(2S,3S)-2-(2,4-difluorophenyl)-5-[3-[(4-methyl-5-pyridin-3-yl-1,2,4-triazol-3-yl)sulfanyl]propyl]-5-azaspiro[2.4]heptane

> <PUBCHEM_IUPAC_SYSTEMATIC_NAME>
(2S,3S)-2-[2,4-bis(fluoranyl)phenyl]-5-[3-[(4-methyl-5-pyridin-3-yl-1,2,4-triazol-3-yl)sulfanyl]propyl]-5-azaspiro[2.4]heptane

> <PUBCHEM_IUPAC_TRADITIONAL_NAME>
(2S,3S)-2-(2,4-difluorophenyl)-5-[3-[[4-methyl-5-(3-pyridyl)-1,2,4-triazol-3-yl]thio]propyl]-5-azaspiro[2.4]heptane

> <PUBCHEM_IUPAC_INCHI>
InChI=1S/C23H25F2N5S/c1-29-21(16-4-2-8-26-14-16)27-28-22(29)31-11-3-9-30-10-7-23(15-30)13-19(23)18-6-5-17(24)12-20(18)25/h2,4-6,8,12,14,19H,3,7,9-11,13,15H2,1H3/t19-,23+/m1/s1

> <PUBCHEM_IUPAC_INCHIKEY>
IKSPSLCLHNNQFS-XXBNENTESA-N

> <PUBCHEM_XLOGP3_AA>
3.6

> <PUBCHEM_EXACT_MASS>
441.17987332

> <PUBCHEM_MOLECULAR_FORMULA>
C23H25F2N5S

> <PUBCHEM_MOLECULAR_WEIGHT>
441.5

> <PUBCHEM_OPENEYE_CAN_SMILES>
CN1C(=NN=C1SCCCN2CCC3(C2)CC3C4=C(C=C(C=C4)F)F)C5=CN=CC=C5

> <PUBCHEM_OPENEYE_ISO_SMILES>
CN1C(=NN=C1SCCCN2CC[C@@]3(C2)C[C@@H]3C4=C(C=C(C=C4)F)F)C5=CN=CC=C5

> <PUBCHEM_CACTVS_TPSA>
72.1

> <PUBCHEM_MONOISOTOPIC_WEIGHT>
441.17987332

> <PUBCHEM_TOTAL_CHARGE>
0

> <PUBCHEM_HEAVY_ATOM_COUNT>
31

> <PUBCHEM_ATOM_DEF_STEREO_COUNT>
2

> <PUBCHEM_ATOM_UDEF_STEREO_COUNT>
0

> <PUBCHEM_BOND_DEF_STEREO_COUNT>
0

> <PUBCHEM_BOND_UDEF_STEREO_COUNT>
0

> <PUBCHEM_ISOTOPIC_ATOM_COUNT>
0

> <PUBCHEM_COMPONENT_COUNT>
1

> <PUBCHEM_CACTVS_TAUTO_COUNT>
-1

> <PUBCHEM_COORDINATE_TYPE>
1
5
255

> <PUBCHEM_BONDANNOTATIONS>
10  15  5
15  17  8
15  18  8
17  20  8
18  21  8
20  23  8
21  23  8
27  28  8
27  29  8
28  30  8
30  31  8
5  24  8
5  25  8
6  24  8
6  7  8
7  25  8
8  29  8
8  31  8
9  11  6

$$$$
