25099159
  -OEChem-09292322232D

 60 64  0     1  0  0  0  0  0999 V2000
    2.0000   -0.2567    0.0000 F   0  0  0  0  0  0  0  0  0  0  0  0
   12.8517   -1.0377    0.0000 O   0  0  0  0  0  0  0  0  0  0  0  0
    4.7684    1.9650    0.0000 O   0  0  0  0  0  0  0  0  0  0  0  0
   11.0395    1.7671    0.0000 O   0  0  0  0  0  0  0  0  0  0  0  0
   14.9353   -1.0990    0.0000 O   0  0  0  0  0  0  0  0  0  0  0  0
   14.9353    0.6331    0.0000 O   0  0  0  0  0  0  0  0  0  0  0  0
    8.4414   -0.7329    0.0000 N   0  0  0  0  0  0  0  0  0  0  0  0
    5.7402    1.7558    0.0000 N   0  0  0  0  0  0  0  0  0  0  0  0
   10.1734   -0.7329    0.0000 C   0  0  3  0  0  0  0  0  0  0  0  0
    6.7093    0.2671    0.0000 C   0  0  0  0  0  0  0  0  0  0  0  0
    9.3074   -1.2329    0.0000 C   0  0  0  0  0  0  0  0  0  0  0  0
    7.5754   -1.2329    0.0000 C   0  0  0  0  0  0  0  0  0  0  0  0
    8.4414    0.2671    0.0000 C   0  0  0  0  0  0  0  0  0  0  0  0
    6.7093   -0.7329    0.0000 C   0  0  0  0  0  0  0  0  0  0  0  0
    7.5754    0.7671    0.0000 C   0  0  0  0  0  0  0  0  0  0  0  0
   11.0395   -1.2329    0.0000 C   0  0  0  0  0  0  0  0  0  0  0  0
   10.1734    0.2671    0.0000 C   0  0  0  0  0  0  0  0  0  0  0  0
    5.8433    0.7671    0.0000 C   0  0  0  0  0  0  0  0  0  0  0  0
   11.9055   -0.7329    0.0000 C   0  0  0  0  0  0  0  0  0  0  0  0
   11.9055    0.2671    0.0000 C   0  0  0  0  0  0  0  0  0  0  0  0
   11.0395    0.7671    0.0000 C   0  0  0  0  0  0  0  0  0  0  0  0
    4.9355    0.3619    0.0000 C   0  0  0  0  0  0  0  0  0  0  0  0
   12.8517    0.5718    0.0000 C   0  0  0  0  0  0  0  0  0  0  0  0
   13.4353   -0.2329    0.0000 C   0  0  0  0  0  0  0  0  0  0  0  0
    4.2677    1.1062    0.0000 C   0  0  0  0  0  0  0  0  0  0  0  0
   13.1624    1.5223    0.0000 C   0  0  0  0  0  0  0  0  0  0  0  0
    4.6249   -0.5886    0.0000 C   0  0  0  0  0  0  0  0  0  0  0  0
    3.2892    0.9000    0.0000 C   0  0  0  0  0  0  0  0  0  0  0  0
   14.4353   -0.2329    0.0000 C   0  0  0  0  0  0  0  0  0  0  0  0
    3.6464   -0.7948    0.0000 C   0  0  0  0  0  0  0  0  0  0  0  0
    2.9785   -0.0505    0.0000 C   0  0  0  0  0  0  0  0  0  0  0  0
   15.9353   -1.0990    0.0000 C   0  0  0  0  0  0  0  0  0  0  0  0
   16.4353   -1.9650    0.0000 C   0  0  0  0  0  0  0  0  0  0  0  0
   10.1734   -1.3529    0.0000 H   0  0  0  0  0  0  0  0  0  0  0  0
    6.7093    0.8871    0.0000 H   0  0  0  0  0  0  0  0  0  0  0  0
    8.9089   -1.7079    0.0000 H   0  0  0  0  0  0  0  0  0  0  0  0
    9.7059   -1.7079    0.0000 H   0  0  0  0  0  0  0  0  0  0  0  0
    7.1768   -1.7079    0.0000 H   0  0  0  0  0  0  0  0  0  0  0  0
    7.9739   -1.7079    0.0000 H   0  0  0  0  0  0  0  0  0  0  0  0
    9.0520    0.1594    0.0000 H   0  0  0  0  0  0  0  0  0  0  0  0
    8.6534    0.8497    0.0000 H   0  0  0  0  0  0  0  0  0  0  0  0
    6.0988   -0.6253    0.0000 H   0  0  0  0  0  0  0  0  0  0  0  0
    6.4973   -1.3156    0.0000 H   0  0  0  0  0  0  0  0  0  0  0  0
    7.9739    1.2420    0.0000 H   0  0  0  0  0  0  0  0  0  0  0  0
    7.1768    1.2420    0.0000 H   0  0  0  0  0  0  0  0  0  0  0  0
   10.6409   -1.7079    0.0000 H   0  0  0  0  0  0  0  0  0  0  0  0
   11.4380   -1.7079    0.0000 H   0  0  0  0  0  0  0  0  0  0  0  0
    9.9614    0.8497    0.0000 H   0  0  0  0  0  0  0  0  0  0  0  0
    9.5628    0.1594    0.0000 H   0  0  0  0  0  0  0  0  0  0  0  0
   13.7517    1.3297    0.0000 H   0  0  0  0  0  0  0  0  0  0  0  0
   13.3550    2.1116    0.0000 H   0  0  0  0  0  0  0  0  0  0  0  0
   12.5730    1.7149    0.0000 H   0  0  0  0  0  0  0  0  0  0  0  0
    5.0389   -1.0500    0.0000 H   0  0  0  0  0  0  0  0  0  0  0  0
    2.8751    1.3615    0.0000 H   0  0  0  0  0  0  0  0  0  0  0  0
    3.4537   -1.3841    0.0000 H   0  0  0  0  0  0  0  0  0  0  0  0
   16.5179   -0.8869    0.0000 H   0  0  0  0  0  0  0  0  0  0  0  0
   15.8277   -0.4884    0.0000 H   0  0  0  0  0  0  0  0  0  0  0  0
   15.8984   -2.2750    0.0000 H   0  0  0  0  0  0  0  0  0  0  0  0
   16.7453   -2.5019    0.0000 H   0  0  0  0  0  0  0  0  0  0  0  0
   16.9722   -1.6550    0.0000 H   0  0  0  0  0  0  0  0  0  0  0  0
  1 31  1  0  0  0  0
  2 19  1  0  0  0  0
  2 24  1  0  0  0  0
  3  8  1  0  0  0  0
  3 25  1  0  0  0  0
  4 21  2  0  0  0  0
  5 29  1  0  0  0  0
  5 32  1  0  0  0  0
  6 29  2  0  0  0  0
  7 11  1  0  0  0  0
  7 12  1  0  0  0  0
  7 13  1  0  0  0  0
  8 18  2  0  0  0  0
  9 11  1  0  0  0  0
  9 16  1  0  0  0  0
  9 17  1  0  0  0  0
  9 34  1  0  0  0  0
 10 14  1  0  0  0  0
 10 15  1  0  0  0  0
 10 18  1  0  0  0  0
 10 35  1  0  0  0  0
 11 36  1  0  0  0  0
 11 37  1  0  0  0  0
 12 14  1  0  0  0  0
 12 38  1  0  0  0  0
 12 39  1  0  0  0  0
 13 15  1  0  0  0  0
 13 40  1  0  0  0  0
 13 41  1  0  0  0  0
 14 42  1  0  0  0  0
 14 43  1  0  0  0  0
 15 44  1  0  0  0  0
 15 45  1  0  0  0  0
 16 19  1  0  0  0  0
 16 46  1  0  0  0  0
 16 47  1  0  0  0  0
 17 21  1  0  0  0  0
 17 48  1  0  0  0  0
 17 49  1  0  0  0  0
 18 22  1  0  0  0  0
 19 20  2  0  0  0  0
 20 21  1  0  0  0  0
 20 23  1  0  0  0  0
 22 25  2  0  0  0  0
 22 27  1  0  0  0  0
 23 24  2  0  0  0  0
 23 26  1  0  0  0  0
 24 29  1  0  0  0  0
 25 28  1  0  0  0  0
 26 50  1  0  0  0  0
 26 51  1  0  0  0  0
 26 52  1  0  0  0  0
 27 30  2  0  0  0  0
 27 53  1  0  0  0  0
 28 31  2  0  0  0  0
 28 54  1  0  0  0  0
 30 31  1  0  0  0  0
 30 55  1  0  0  0  0
 32 33  1  0  0  0  0
 32 56  1  0  0  0  0
 32 57  1  0  0  0  0
 33 58  1  0  0  0  0
 33 59  1  0  0  0  0
 33 60  1  0  0  0  0
M  END
> <PUBCHEM_COMPOUND_CID>
25099159

> <PUBCHEM_COMPOUND_CANONICALIZED>
1

> <PUBCHEM_CACTVS_COMPLEXITY>
730

> <PUBCHEM_CACTVS_HBOND_ACCEPTOR>
8

> <PUBCHEM_CACTVS_HBOND_DONOR>
0

> <PUBCHEM_CACTVS_ROTATABLE_BOND>
6

> <PUBCHEM_CACTVS_SUBSKEYS>
AAADceB7OQAAAAAAAAAAAAAAAAAAAWJAAAA8YIAAAAAAAFgB/AAAHwAEAAAADQzhng4yjtMQBECpA6TySgKCCAAkIAAomCF+TNoNJr6MtZ+GOeDm4BmK6ce/7vzugAAAAAAIAACAAAIAABAAAAAAAAAAAA==

> <PUBCHEM_IUPAC_OPENEYE_NAME>
ethyl 6-[[4-(6-fluoro-1,2-benzoxazol-3-yl)-1-piperidyl]methyl]-3-methyl-4-oxo-6,7-dihydro-5H-benzofuran-2-carboxylate

> <PUBCHEM_IUPAC_CAS_NAME>
6-[[4-(6-fluoro-1,2-benzoxazol-3-yl)-1-piperidinyl]methyl]-3-methyl-4-oxo-6,7-dihydro-5H-benzofuran-2-carboxylic acid ethyl ester

> <PUBCHEM_IUPAC_NAME_MARKUP>
ethyl 6-[[4-(6-fluoro-1,2-benzoxazol-3-yl)piperidin-1-yl]methyl]-3-methyl-4-oxo-6,7-dihydro-5<I>H</I>-1-benzofuran-2-carboxylate

> <PUBCHEM_IUPAC_NAME>
ethyl 6-[[4-(6-fluoro-1,2-benzoxazol-3-yl)piperidin-1-yl]methyl]-3-methyl-4-oxo-6,7-dihydro-5H-1-benzofuran-2-carboxylate

> <PUBCHEM_IUPAC_SYSTEMATIC_NAME>
ethyl 6-[[4-(6-fluoranyl-1,2-benzoxazol-3-yl)piperidin-1-yl]methyl]-3-methyl-4-oxidanylidene-6,7-dihydro-5H-1-benzofuran-2-carboxylate

> <PUBCHEM_IUPAC_TRADITIONAL_NAME>
6-[[4-(6-fluoroindoxazen-3-yl)piperidino]methyl]-4-keto-3-methyl-6,7-dihydro-5H-benzofuran-2-carboxylic acid ethyl ester

> <PUBCHEM_IUPAC_INCHI>
InChI=1S/C25H27FN2O5/c1-3-31-25(30)24-14(2)22-19(29)10-15(11-21(22)32-24)13-28-8-6-16(7-9-28)23-18-5-4-17(26)12-20(18)33-27-23/h4-5,12,15-16H,3,6-11,13H2,1-2H3

> <PUBCHEM_IUPAC_INCHIKEY>
NSGGYUGNVVGXHF-UHFFFAOYSA-N

> <PUBCHEM_XLOGP3_AA>
4.1

> <PUBCHEM_EXACT_MASS>
454.19040013

> <PUBCHEM_MOLECULAR_FORMULA>
C25H27FN2O5

> <PUBCHEM_MOLECULAR_WEIGHT>
454.5

> <PUBCHEM_OPENEYE_CAN_SMILES>
CCOC(=O)C1=C(C2=C(O1)CC(CC2=O)CN3CCC(CC3)C4=NOC5=C4C=CC(=C5)F)C

> <PUBCHEM_OPENEYE_ISO_SMILES>
CCOC(=O)C1=C(C2=C(O1)CC(CC2=O)CN3CCC(CC3)C4=NOC5=C4C=CC(=C5)F)C

> <PUBCHEM_CACTVS_TPSA>
85.8

> <PUBCHEM_MONOISOTOPIC_WEIGHT>
454.19040013

> <PUBCHEM_TOTAL_CHARGE>
0

> <PUBCHEM_HEAVY_ATOM_COUNT>
33

> <PUBCHEM_ATOM_DEF_STEREO_COUNT>
0

> <PUBCHEM_ATOM_UDEF_STEREO_COUNT>
1

> <PUBCHEM_BOND_DEF_STEREO_COUNT>
0

> <PUBCHEM_BOND_UDEF_STEREO_COUNT>
0

> <PUBCHEM_ISOTOPIC_ATOM_COUNT>
0

> <PUBCHEM_COMPONENT_COUNT>
1

> <PUBCHEM_CACTVS_TAUTO_COUNT>
-1

> <PUBCHEM_COORDINATE_TYPE>
1
5
255

> <PUBCHEM_BONDANNOTATIONS>
18  22  8
19  20  8
2  19  8
2  24  8
20  23  8
22  25  8
22  27  8
23  24  8
25  28  8
27  30  8
28  31  8
3  25  8
3  8  8
30  31  8
8  18  8
9  11  3

$$$$
