11233507
  -OEChem-09292322342D

 49 52  0     0  0  0  0  0  0999 V2000
    8.9282    1.7500    0.0000 O   0  0  0  0  0  0  0  0  0  0  0  0
    2.8660    1.2500    0.0000 O   0  0  0  0  0  0  0  0  0  0  0  0
    6.3301    1.2500    0.0000 N   0  0  0  0  0  0  0  0  0  0  0  0
    4.5981    0.2500    0.0000 N   0  0  0  0  0  0  0  0  0  0  0  0
   12.4725    1.5547    0.0000 N   0  0  0  0  0  0  0  0  0  0  0  0
   12.4725   -0.0547    0.0000 N   0  0  0  0  0  0  0  0  0  0  0  0
   13.0561    0.7500    0.0000 N   0  0  0  0  0  0  0  0  0  0  0  0
    6.3301    0.2500    0.0000 C   0  0  0  0  0  0  0  0  0  0  0  0
    5.4641    1.7500    0.0000 C   0  0  0  0  0  0  0  0  0  0  0  0
    5.4641   -0.2500    0.0000 C   0  0  0  0  0  0  0  0  0  0  0  0
    4.5981    1.2500    0.0000 C   0  0  0  0  0  0  0  0  0  0  0  0
    7.1962    1.7500    0.0000 C   0  0  0  0  0  0  0  0  0  0  0  0
    3.7320   -0.2500    0.0000 C   0  0  0  0  0  0  0  0  0  0  0  0
    8.0622    1.2500    0.0000 C   0  0  0  0  0  0  0  0  0  0  0  0
    2.8660    0.2500    0.0000 C   0  0  0  0  0  0  0  0  0  0  0  0
    3.7320   -1.2500    0.0000 C   0  0  0  0  0  0  0  0  0  0  0  0
    2.0000   -0.2500    0.0000 C   0  0  0  0  0  0  0  0  0  0  0  0
    2.8660   -1.7500    0.0000 C   0  0  0  0  0  0  0  0  0  0  0  0
    2.0000   -1.2500    0.0000 C   0  0  0  0  0  0  0  0  0  0  0  0
    9.7942    1.2500    0.0000 C   0  0  0  0  0  0  0  0  0  0  0  0
   10.6603    1.7500    0.0000 C   0  0  0  0  0  0  0  0  0  0  0  0
    9.7942    0.2500    0.0000 C   0  0  0  0  0  0  0  0  0  0  0  0
   11.5263    1.2500    0.0000 C   0  0  0  0  0  0  0  0  0  0  0  0
    2.0000    1.7500    0.0000 C   0  0  0  0  0  0  0  0  0  0  0  0
   11.5263    0.2500    0.0000 C   0  0  0  0  0  0  0  0  0  0  0  0
   10.6603   -0.2500    0.0000 C   0  0  0  0  0  0  0  0  0  0  0  0
    6.5422   -0.3326    0.0000 H   0  0  0  0  0  0  0  0  0  0  0  0
    6.9407    0.3577    0.0000 H   0  0  0  0  0  0  0  0  0  0  0  0
    5.8626    2.2250    0.0000 H   0  0  0  0  0  0  0  0  0  0  0  0
    5.0656    2.2250    0.0000 H   0  0  0  0  0  0  0  0  0  0  0  0
    5.0656   -0.7249    0.0000 H   0  0  0  0  0  0  0  0  0  0  0  0
    5.8626   -0.7249    0.0000 H   0  0  0  0  0  0  0  0  0  0  0  0
    4.3860    1.8326    0.0000 H   0  0  0  0  0  0  0  0  0  0  0  0
    3.9875    1.1423    0.0000 H   0  0  0  0  0  0  0  0  0  0  0  0
    7.5947    2.2250    0.0000 H   0  0  0  0  0  0  0  0  0  0  0  0
    6.7976    2.2250    0.0000 H   0  0  0  0  0  0  0  0  0  0  0  0
    7.6636    0.7751    0.0000 H   0  0  0  0  0  0  0  0  0  0  0  0
    8.4607    0.7751    0.0000 H   0  0  0  0  0  0  0  0  0  0  0  0
    4.2690   -1.5600    0.0000 H   0  0  0  0  0  0  0  0  0  0  0  0
    1.4631    0.0600    0.0000 H   0  0  0  0  0  0  0  0  0  0  0  0
    2.8660   -2.3700    0.0000 H   0  0  0  0  0  0  0  0  0  0  0  0
    1.4631   -1.5600    0.0000 H   0  0  0  0  0  0  0  0  0  0  0  0
   10.6603    2.3700    0.0000 H   0  0  0  0  0  0  0  0  0  0  0  0
    9.2573   -0.0600    0.0000 H   0  0  0  0  0  0  0  0  0  0  0  0
    2.3100    2.2869    0.0000 H   0  0  0  0  0  0  0  0  0  0  0  0
    1.4631    2.0600    0.0000 H   0  0  0  0  0  0  0  0  0  0  0  0
    1.6900    1.2131    0.0000 H   0  0  0  0  0  0  0  0  0  0  0  0
   10.6603   -0.8700    0.0000 H   0  0  0  0  0  0  0  0  0  0  0  0
   13.6761    0.7500    0.0000 H   0  0  0  0  0  0  0  0  0  0  0  0
  1 14  1  0  0  0  0
  1 20  1  0  0  0  0
  2 15  1  0  0  0  0
  2 24  1  0  0  0  0
  3  8  1  0  0  0  0
  3  9  1  0  0  0  0
  3 12  1  0  0  0  0
  4 10  1  0  0  0  0
  4 11  1  0  0  0  0
  4 13  1  0  0  0  0
  5  7  1  0  0  0  0
  5 23  2  0  0  0  0
  6  7  1  0  0  0  0
  6 25  2  0  0  0  0
  7 49  1  0  0  0  0
  8 10  1  0  0  0  0
  8 27  1  0  0  0  0
  8 28  1  0  0  0  0
  9 11  1  0  0  0  0
  9 29  1  0  0  0  0
  9 30  1  0  0  0  0
 10 31  1  0  0  0  0
 10 32  1  0  0  0  0
 11 33  1  0  0  0  0
 11 34  1  0  0  0  0
 12 14  1  0  0  0  0
 12 35  1  0  0  0  0
 12 36  1  0  0  0  0
 13 15  1  0  0  0  0
 13 16  2  0  0  0  0
 14 37  1  0  0  0  0
 14 38  1  0  0  0  0
 15 17  2  0  0  0  0
 16 18  1  0  0  0  0
 16 39  1  0  0  0  0
 17 19  1  0  0  0  0
 17 40  1  0  0  0  0
 18 19  2  0  0  0  0
 18 41  1  0  0  0  0
 19 42  1  0  0  0  0
 20 21  2  0  0  0  0
 20 22  1  0  0  0  0
 21 23  1  0  0  0  0
 21 43  1  0  0  0  0
 22 26  2  0  0  0  0
 22 44  1  0  0  0  0
 23 25  1  0  0  0  0
 24 45  1  0  0  0  0
 24 46  1  0  0  0  0
 24 47  1  0  0  0  0
 25 26  1  0  0  0  0
 26 48  1  0  0  0  0
M  END
> <PUBCHEM_COMPOUND_CID>
11233507

> <PUBCHEM_COMPOUND_CANONICALIZED>
1

> <PUBCHEM_CACTVS_COMPLEXITY>
432

> <PUBCHEM_CACTVS_HBOND_ACCEPTOR>
6

> <PUBCHEM_CACTVS_HBOND_DONOR>
1

> <PUBCHEM_CACTVS_ROTATABLE_BOND>
6

> <PUBCHEM_CACTVS_SUBSKEYS>
AAADceB7sAAAAAAAAAAAAAAAAAAAAWAAAAA8YIAAAAAAAFgB9AAAHgAYAAAACAzhlgYyxrMCBACiASRiQACCDAQhMgAYuCA/fJgOZqLEsZuXOCjmwBnY6AewUAEAAEAAAgAAECAAgAAEAAAgQAAAAAAAAA==

> <PUBCHEM_IUPAC_OPENEYE_NAME>
5-[2-[4-(2-methoxyphenyl)piperazin-1-yl]ethoxy]-2H-benzotriazole

> <PUBCHEM_IUPAC_CAS_NAME>
5-[2-[4-(2-methoxyphenyl)-1-piperazinyl]ethoxy]-2H-benzotriazole

> <PUBCHEM_IUPAC_NAME_MARKUP>
5-[2-[4-(2-methoxyphenyl)piperazin-1-yl]ethoxy]-2<I>H</I>-benzotriazole

> <PUBCHEM_IUPAC_NAME>
5-[2-[4-(2-methoxyphenyl)piperazin-1-yl]ethoxy]-2H-benzotriazole

> <PUBCHEM_IUPAC_SYSTEMATIC_NAME>
5-[2-[4-(2-methoxyphenyl)piperazin-1-yl]ethoxy]-2H-benzotriazole

> <PUBCHEM_IUPAC_TRADITIONAL_NAME>
5-[2-[4-(2-methoxyphenyl)piperazino]ethoxy]-2H-benzotriazole

> <PUBCHEM_IUPAC_INCHI>
InChI=1S/C19H23N5O2/c1-25-19-5-3-2-4-18(19)24-10-8-23(9-11-24)12-13-26-15-6-7-16-17(14-15)21-22-20-16/h2-7,14H,8-13H2,1H3,(H,20,21,22)

> <PUBCHEM_IUPAC_INCHIKEY>
GIAKVIIADZNGFQ-UHFFFAOYSA-N

> <PUBCHEM_XLOGP3_AA>
2.6

> <PUBCHEM_EXACT_MASS>
353.18517499

> <PUBCHEM_MOLECULAR_FORMULA>
C19H23N5O2

> <PUBCHEM_MOLECULAR_WEIGHT>
353.4

> <PUBCHEM_OPENEYE_CAN_SMILES>
COC1=CC=CC=C1N2CCN(CC2)CCOC3=CC4=NNN=C4C=C3

> <PUBCHEM_OPENEYE_ISO_SMILES>
COC1=CC=CC=C1N2CCN(CC2)CCOC3=CC4=NNN=C4C=C3

> <PUBCHEM_CACTVS_TPSA>
66.5

> <PUBCHEM_MONOISOTOPIC_WEIGHT>
353.18517499

> <PUBCHEM_TOTAL_CHARGE>
0

> <PUBCHEM_HEAVY_ATOM_COUNT>
26

> <PUBCHEM_ATOM_DEF_STEREO_COUNT>
0

> <PUBCHEM_ATOM_UDEF_STEREO_COUNT>
0

> <PUBCHEM_BOND_DEF_STEREO_COUNT>
0

> <PUBCHEM_BOND_UDEF_STEREO_COUNT>
0

> <PUBCHEM_ISOTOPIC_ATOM_COUNT>
0

> <PUBCHEM_COMPONENT_COUNT>
1

> <PUBCHEM_CACTVS_TAUTO_COUNT>
-1

> <PUBCHEM_COORDINATE_TYPE>
1
5
255

> <PUBCHEM_BONDANNOTATIONS>
13  15  8
13  16  8
15  17  8
16  18  8
17  19  8
18  19  8
20  21  8
20  22  8
21  23  8
22  26  8
23  25  8
25  26  8
5  23  8
5  7  8
6  25  8
6  7  8

$$$$
