127027974
  -OEChem-09292322362D

 61 63  0     0  0  0  0  0  0999 V2000
    2.8660   -4.2500    0.0000 O   0  0  0  0  0  0  0  0  0  0  0  0
    8.0622    2.7500    0.0000 O   0  0  0  0  0  0  0  0  0  0  0  0
    4.5981   -1.2500    0.0000 N   0  0  0  0  0  0  0  0  0  0  0  0
    4.5981   -3.2500    0.0000 N   0  0  0  0  0  0  0  0  0  0  0  0
    6.3301    2.7500    0.0000 N   0  0  0  0  0  0  0  0  0  0  0  0
    7.1962    4.2500    0.0000 N   0  0  0  0  0  0  0  0  0  0  0  0
    5.4641   -1.7500    0.0000 C   0  0  0  0  0  0  0  0  0  0  0  0
    3.7320   -1.7500    0.0000 C   0  0  0  0  0  0  0  0  0  0  0  0
    5.4641   -2.7500    0.0000 C   0  0  0  0  0  0  0  0  0  0  0  0
    3.7320   -2.7500    0.0000 C   0  0  0  0  0  0  0  0  0  0  0  0
    4.5981   -0.2500    0.0000 C   0  0  0  0  0  0  0  0  0  0  0  0
    5.4641    0.2500    0.0000 C   0  0  0  0  0  0  0  0  0  0  0  0
    4.5981   -4.2500    0.0000 C   0  0  0  0  0  0  0  0  0  0  0  0
    5.4641    1.2500    0.0000 C   0  0  0  0  0  0  0  0  0  0  0  0
    6.3301    1.7500    0.0000 C   0  0  0  0  0  0  0  0  0  0  0  0
    3.7320   -4.7500    0.0000 C   0  0  0  0  0  0  0  0  0  0  0  0
    5.4641   -4.7500    0.0000 C   0  0  0  0  0  0  0  0  0  0  0  0
    3.7320   -5.7500    0.0000 C   0  0  0  0  0  0  0  0  0  0  0  0
    5.4641   -5.7500    0.0000 C   0  0  0  0  0  0  0  0  0  0  0  0
    4.5981   -6.2500    0.0000 C   0  0  0  0  0  0  0  0  0  0  0  0
    7.1962    3.2500    0.0000 C   0  0  0  0  0  0  0  0  0  0  0  0
    2.0000   -4.7500    0.0000 C   0  0  0  0  0  0  0  0  0  0  0  0
    8.0622    4.7500    0.0000 C   0  0  0  0  0  0  0  0  0  0  0  0
    6.3301    4.7500    0.0000 C   0  0  0  0  0  0  0  0  0  0  0  0
    8.9282    4.2500    0.0000 C   0  0  0  0  0  0  0  0  0  0  0  0
    8.0622    5.7500    0.0000 C   0  0  0  0  0  0  0  0  0  0  0  0
    9.7942    4.7500    0.0000 C   0  0  0  0  0  0  0  0  0  0  0  0
    8.9282    6.2500    0.0000 C   0  0  0  0  0  0  0  0  0  0  0  0
    9.7942    5.7500    0.0000 C   0  0  0  0  0  0  0  0  0  0  0  0
    6.0747   -1.8577    0.0000 H   0  0  0  0  0  0  0  0  0  0  0  0
    5.6762   -1.1674    0.0000 H   0  0  0  0  0  0  0  0  0  0  0  0
    3.5200   -1.1674    0.0000 H   0  0  0  0  0  0  0  0  0  0  0  0
    3.1215   -1.8577    0.0000 H   0  0  0  0  0  0  0  0  0  0  0  0
    5.6762   -3.3326    0.0000 H   0  0  0  0  0  0  0  0  0  0  0  0
    6.0747   -2.6423    0.0000 H   0  0  0  0  0  0  0  0  0  0  0  0
    3.1215   -2.6423    0.0000 H   0  0  0  0  0  0  0  0  0  0  0  0
    3.5200   -3.3326    0.0000 H   0  0  0  0  0  0  0  0  0  0  0  0
    4.3860    0.3326    0.0000 H   0  0  0  0  0  0  0  0  0  0  0  0
    3.9875   -0.3577    0.0000 H   0  0  0  0  0  0  0  0  0  0  0  0
    5.6762   -0.3326    0.0000 H   0  0  0  0  0  0  0  0  0  0  0  0
    6.0747    0.3577    0.0000 H   0  0  0  0  0  0  0  0  0  0  0  0
    5.2520    1.8326    0.0000 H   0  0  0  0  0  0  0  0  0  0  0  0
    4.8535    1.1423    0.0000 H   0  0  0  0  0  0  0  0  0  0  0  0
    6.5422    1.1674    0.0000 H   0  0  0  0  0  0  0  0  0  0  0  0
    6.9407    1.8577    0.0000 H   0  0  0  0  0  0  0  0  0  0  0  0
    6.0010   -4.4400    0.0000 H   0  0  0  0  0  0  0  0  0  0  0  0
    3.1951   -6.0600    0.0000 H   0  0  0  0  0  0  0  0  0  0  0  0
    5.7932    3.0600    0.0000 H   0  0  0  0  0  0  0  0  0  0  0  0
    6.0010   -6.0600    0.0000 H   0  0  0  0  0  0  0  0  0  0  0  0
    4.5981   -6.8700    0.0000 H   0  0  0  0  0  0  0  0  0  0  0  0
    1.6900   -4.2131    0.0000 H   0  0  0  0  0  0  0  0  0  0  0  0
    1.4631   -5.0600    0.0000 H   0  0  0  0  0  0  0  0  0  0  0  0
    2.3100   -5.2869    0.0000 H   0  0  0  0  0  0  0  0  0  0  0  0
    6.6401    5.2869    0.0000 H   0  0  0  0  0  0  0  0  0  0  0  0
    5.7932    5.0600    0.0000 H   0  0  0  0  0  0  0  0  0  0  0  0
    6.0201    4.2131    0.0000 H   0  0  0  0  0  0  0  0  0  0  0  0
    8.9282    3.6300    0.0000 H   0  0  0  0  0  0  0  0  0  0  0  0
    7.5252    6.0600    0.0000 H   0  0  0  0  0  0  0  0  0  0  0  0
   10.3312    4.4400    0.0000 H   0  0  0  0  0  0  0  0  0  0  0  0
    8.9282    6.8700    0.0000 H   0  0  0  0  0  0  0  0  0  0  0  0
   10.3312    6.0600    0.0000 H   0  0  0  0  0  0  0  0  0  0  0  0
  1 16  1  0  0  0  0
  1 22  1  0  0  0  0
  2 21  2  0  0  0  0
  3  7  1  0  0  0  0
  3  8  1  0  0  0  0
  3 11  1  0  0  0  0
  4  9  1  0  0  0  0
  4 10  1  0  0  0  0
  4 13  1  0  0  0  0
  5 15  1  0  0  0  0
  5 21  1  0  0  0  0
  5 48  1  0  0  0  0
  6 21  1  0  0  0  0
  6 23  1  0  0  0  0
  6 24  1  0  0  0  0
  7  9  1  0  0  0  0
  7 30  1  0  0  0  0
  7 31  1  0  0  0  0
  8 10  1  0  0  0  0
  8 32  1  0  0  0  0
  8 33  1  0  0  0  0
  9 34  1  0  0  0  0
  9 35  1  0  0  0  0
 10 36  1  0  0  0  0
 10 37  1  0  0  0  0
 11 12  1  0  0  0  0
 11 38  1  0  0  0  0
 11 39  1  0  0  0  0
 12 14  1  0  0  0  0
 12 40  1  0  0  0  0
 12 41  1  0  0  0  0
 13 16  1  0  0  0  0
 13 17  2  0  0  0  0
 14 15  1  0  0  0  0
 14 42  1  0  0  0  0
 14 43  1  0  0  0  0
 15 44  1  0  0  0  0
 15 45  1  0  0  0  0
 16 18  2  0  0  0  0
 17 19  1  0  0  0  0
 17 46  1  0  0  0  0
 18 20  1  0  0  0  0
 18 47  1  0  0  0  0
 19 20  2  0  0  0  0
 19 49  1  0  0  0  0
 20 50  1  0  0  0  0
 22 51  1  0  0  0  0
 22 52  1  0  0  0  0
 22 53  1  0  0  0  0
 23 25  2  0  0  0  0
 23 26  1  0  0  0  0
 24 54  1  0  0  0  0
 24 55  1  0  0  0  0
 24 56  1  0  0  0  0
 25 27  1  0  0  0  0
 25 57  1  0  0  0  0
 26 28  2  0  0  0  0
 26 58  1  0  0  0  0
 27 29  2  0  0  0  0
 27 59  1  0  0  0  0
 28 29  1  0  0  0  0
 28 60  1  0  0  0  0
 29 61  1  0  0  0  0
M  END
> <PUBCHEM_COMPOUND_CID>
127027974

> <PUBCHEM_COMPOUND_CANONICALIZED>
1

> <PUBCHEM_CACTVS_COMPLEXITY>
476

> <PUBCHEM_CACTVS_HBOND_ACCEPTOR>
4

> <PUBCHEM_CACTVS_HBOND_DONOR>
1

> <PUBCHEM_CACTVS_ROTATABLE_BOND>
8

> <PUBCHEM_CACTVS_SUBSKEYS>
AAADcfB7sAAAAAAAAAAAAAAAAAAAAAAAAAA8YIAAAAAAAAABQAAAHgAQAAAACAzBkAYzxoPABACIACRCUACCCAAhIgAIiIAPbIiOZiLEsZuVMChs1hPY6CeQQAAAAAAAAAAAEAAAAAAAAAAgAAAAAAAAAA==

> <PUBCHEM_IUPAC_OPENEYE_NAME>
3-[4-[4-(2-methoxyphenyl)piperazin-1-yl]butyl]-1-methyl-1-phenyl-urea

> <PUBCHEM_IUPAC_CAS_NAME>
3-[4-[4-(2-methoxyphenyl)-1-piperazinyl]butyl]-1-methyl-1-phenylurea

> <PUBCHEM_IUPAC_NAME_MARKUP>
3-[4-[4-(2-methoxyphenyl)piperazin-1-yl]butyl]-1-methyl-1-phenylurea

> <PUBCHEM_IUPAC_NAME>
3-[4-[4-(2-methoxyphenyl)piperazin-1-yl]butyl]-1-methyl-1-phenylurea

> <PUBCHEM_IUPAC_SYSTEMATIC_NAME>
3-[4-[4-(2-methoxyphenyl)piperazin-1-yl]butyl]-1-methyl-1-phenyl-urea

> <PUBCHEM_IUPAC_TRADITIONAL_NAME>
3-[4-[4-(2-methoxyphenyl)piperazino]butyl]-1-methyl-1-phenyl-urea

> <PUBCHEM_IUPAC_INCHI>
InChI=1S/C23H32N4O2/c1-25(20-10-4-3-5-11-20)23(28)24-14-8-9-15-26-16-18-27(19-17-26)21-12-6-7-13-22(21)29-2/h3-7,10-13H,8-9,14-19H2,1-2H3,(H,24,28)

> <PUBCHEM_IUPAC_INCHIKEY>
SSFLFRPKMGNFFZ-UHFFFAOYSA-N

> <PUBCHEM_XLOGP3_AA>
3.4

> <PUBCHEM_EXACT_MASS>
396.25252628

> <PUBCHEM_MOLECULAR_FORMULA>
C23H32N4O2

> <PUBCHEM_MOLECULAR_WEIGHT>
396.5

> <PUBCHEM_OPENEYE_CAN_SMILES>
CN(C1=CC=CC=C1)C(=O)NCCCCN2CCN(CC2)C3=CC=CC=C3OC

> <PUBCHEM_OPENEYE_ISO_SMILES>
CN(C1=CC=CC=C1)C(=O)NCCCCN2CCN(CC2)C3=CC=CC=C3OC

> <PUBCHEM_CACTVS_TPSA>
48

> <PUBCHEM_MONOISOTOPIC_WEIGHT>
396.25252628

> <PUBCHEM_TOTAL_CHARGE>
0

> <PUBCHEM_HEAVY_ATOM_COUNT>
29

> <PUBCHEM_ATOM_DEF_STEREO_COUNT>
0

> <PUBCHEM_ATOM_UDEF_STEREO_COUNT>
0

> <PUBCHEM_BOND_DEF_STEREO_COUNT>
0

> <PUBCHEM_BOND_UDEF_STEREO_COUNT>
0

> <PUBCHEM_ISOTOPIC_ATOM_COUNT>
0

> <PUBCHEM_COMPONENT_COUNT>
1

> <PUBCHEM_CACTVS_TAUTO_COUNT>
-1

> <PUBCHEM_COORDINATE_TYPE>
1
5
255

> <PUBCHEM_BONDANNOTATIONS>
13  16  8
13  17  8
16  18  8
17  19  8
18  20  8
19  20  8
23  25  8
23  26  8
25  27  8
26  28  8
27  29  8
28  29  8

$$$$
