44290508
  -OEChem-09292322522D

 41 43  0     0  0  0  0  0  0999 V2000
    4.7320    4.9330    0.0000 I   0  0  0  0  0  0  0  0  0  0  0  0
    4.7320    0.9330    0.0000 O   0  0  0  0  0  0  0  0  0  0  0  0
    3.8660   -2.5670    0.0000 N   0  0  0  0  0  0  0  0  0  0  0  0
    3.0000   -4.0670    0.0000 C   0  0  0  0  0  0  0  0  0  0  0  0
    2.0000   -4.0670    0.0000 C   0  0  0  0  0  0  0  0  0  0  0  0
    2.5000   -4.9330    0.0000 C   0  0  0  0  0  0  0  0  0  0  0  0
    3.8660   -3.5670    0.0000 C   0  0  0  0  0  0  0  0  0  0  0  0
    3.8660   -0.5670    0.0000 C   0  0  0  0  0  0  0  0  0  0  0  0
    3.0000   -2.0670    0.0000 C   0  0  0  0  0  0  0  0  0  0  0  0
    4.7320   -2.0670    0.0000 C   0  0  0  0  0  0  0  0  0  0  0  0
    3.0000   -1.0670    0.0000 C   0  0  0  0  0  0  0  0  0  0  0  0
    4.7320   -1.0670    0.0000 C   0  0  0  0  0  0  0  0  0  0  0  0
    3.8660    0.4330    0.0000 C   0  0  0  0  0  0  0  0  0  0  0  0
    4.7320    1.9330    0.0000 C   0  0  0  0  0  0  0  0  0  0  0  0
    5.5981    2.4330    0.0000 C   0  0  0  0  0  0  0  0  0  0  0  0
    3.8660    2.4330    0.0000 C   0  0  0  0  0  0  0  0  0  0  0  0
    5.5981    3.4330    0.0000 C   0  0  0  0  0  0  0  0  0  0  0  0
    3.8660    3.4330    0.0000 C   0  0  0  0  0  0  0  0  0  0  0  0
    4.7320    3.9330    0.0000 C   0  0  0  0  0  0  0  0  0  0  0  0
    3.4384   -4.5054    0.0000 H   0  0  0  0  0  0  0  0  0  0  0  0
    1.8923   -3.4564    0.0000 H   0  0  0  0  0  0  0  0  0  0  0  0
    1.4174   -4.2790    0.0000 H   0  0  0  0  0  0  0  0  0  0  0  0
    2.0250   -5.3315    0.0000 H   0  0  0  0  0  0  0  0  0  0  0  0
    2.9750   -5.3315    0.0000 H   0  0  0  0  0  0  0  0  0  0  0  0
    4.0781   -4.1496    0.0000 H   0  0  0  0  0  0  0  0  0  0  0  0
    4.4766   -3.4593    0.0000 H   0  0  0  0  0  0  0  0  0  0  0  0
    4.4030   -0.2570    0.0000 H   0  0  0  0  0  0  0  0  0  0  0  0
    2.3894   -1.9593    0.0000 H   0  0  0  0  0  0  0  0  0  0  0  0
    2.7880   -2.6496    0.0000 H   0  0  0  0  0  0  0  0  0  0  0  0
    4.9441   -2.6496    0.0000 H   0  0  0  0  0  0  0  0  0  0  0  0
    5.3426   -1.9593    0.0000 H   0  0  0  0  0  0  0  0  0  0  0  0
    2.7880   -0.4844    0.0000 H   0  0  0  0  0  0  0  0  0  0  0  0
    2.3894   -1.1746    0.0000 H   0  0  0  0  0  0  0  0  0  0  0  0
    5.3426   -1.1746    0.0000 H   0  0  0  0  0  0  0  0  0  0  0  0
    4.9441   -0.4844    0.0000 H   0  0  0  0  0  0  0  0  0  0  0  0
    3.6540    1.0156    0.0000 H   0  0  0  0  0  0  0  0  0  0  0  0
    3.2554    0.3254    0.0000 H   0  0  0  0  0  0  0  0  0  0  0  0
    6.1350    2.1230    0.0000 H   0  0  0  0  0  0  0  0  0  0  0  0
    3.3291    2.1230    0.0000 H   0  0  0  0  0  0  0  0  0  0  0  0
    6.1350    3.7430    0.0000 H   0  0  0  0  0  0  0  0  0  0  0  0
    3.3291    3.7430    0.0000 H   0  0  0  0  0  0  0  0  0  0  0  0
  1 19  1  0  0  0  0
  2 13  1  0  0  0  0
  2 14  1  0  0  0  0
  3  7  1  0  0  0  0
  3  9  1  0  0  0  0
  3 10  1  0  0  0  0
  4  5  1  0  0  0  0
  4  6  1  0  0  0  0
  4  7  1  0  0  0  0
  4 20  1  0  0  0  0
  5  6  1  0  0  0  0
  5 21  1  0  0  0  0
  5 22  1  0  0  0  0
  6 23  1  0  0  0  0
  6 24  1  0  0  0  0
  7 25  1  0  0  0  0
  7 26  1  0  0  0  0
  8 11  1  0  0  0  0
  8 12  1  0  0  0  0
  8 13  1  0  0  0  0
  8 27  1  0  0  0  0
  9 11  1  0  0  0  0
  9 28  1  0  0  0  0
  9 29  1  0  0  0  0
 10 12  1  0  0  0  0
 10 30  1  0  0  0  0
 10 31  1  0  0  0  0
 11 32  1  0  0  0  0
 11 33  1  0  0  0  0
 12 34  1  0  0  0  0
 12 35  1  0  0  0  0
 13 36  1  0  0  0  0
 13 37  1  0  0  0  0
 14 15  2  0  0  0  0
 14 16  1  0  0  0  0
 15 17  1  0  0  0  0
 15 38  1  0  0  0  0
 16 18  2  0  0  0  0
 16 39  1  0  0  0  0
 17 19  2  0  0  0  0
 17 40  1  0  0  0  0
 18 19  1  0  0  0  0
 18 41  1  0  0  0  0
M  END
> <PUBCHEM_COMPOUND_CID>
44290508

> <PUBCHEM_COMPOUND_CANONICALIZED>
1

> <PUBCHEM_CACTVS_COMPLEXITY>
266

> <PUBCHEM_CACTVS_HBOND_ACCEPTOR>
2

> <PUBCHEM_CACTVS_HBOND_DONOR>
0

> <PUBCHEM_CACTVS_ROTATABLE_BOND>
5

> <PUBCHEM_CACTVS_SUBSKEYS>
AAADceB6IAAAAgAAAAAAAAAAGAAAAAAAAAA8QAAAAAAAAAABAAAAHgAgAAAADQTjkAYwBoMABACAACBCAAACCAAgIAAIiAAOCIgMJiKEsRqGOCCkwBGIqAewQAAKAAAAAAAAAAAAAAAAAAAAAAAAAAAAAA==

> <PUBCHEM_IUPAC_OPENEYE_NAME>
1-(cyclopropylmethyl)-4-[(4-iodophenoxy)methyl]piperidine

> <PUBCHEM_IUPAC_CAS_NAME>
1-(cyclopropylmethyl)-4-[(4-iodophenoxy)methyl]piperidine

> <PUBCHEM_IUPAC_NAME_MARKUP>
1-(cyclopropylmethyl)-4-[(4-iodophenoxy)methyl]piperidine

> <PUBCHEM_IUPAC_NAME>
1-(cyclopropylmethyl)-4-[(4-iodophenoxy)methyl]piperidine

> <PUBCHEM_IUPAC_SYSTEMATIC_NAME>
1-(cyclopropylmethyl)-4-[(4-iodanylphenoxy)methyl]piperidine

> <PUBCHEM_IUPAC_TRADITIONAL_NAME>
1-(cyclopropylmethyl)-4-[(4-iodophenoxy)methyl]piperidine

> <PUBCHEM_IUPAC_INCHI>
InChI=1S/C16H22INO/c17-15-3-5-16(6-4-15)19-12-14-7-9-18(10-8-14)11-13-1-2-13/h3-6,13-14H,1-2,7-12H2

> <PUBCHEM_IUPAC_INCHIKEY>
JXQVMKWSWFFOHD-UHFFFAOYSA-N

> <PUBCHEM_XLOGP3_AA>
4.1

> <PUBCHEM_EXACT_MASS>
371.07461

> <PUBCHEM_MOLECULAR_FORMULA>
C16H22INO

> <PUBCHEM_MOLECULAR_WEIGHT>
371.26

> <PUBCHEM_OPENEYE_CAN_SMILES>
C1CC1CN2CCC(CC2)COC3=CC=C(C=C3)I

> <PUBCHEM_OPENEYE_ISO_SMILES>
C1CC1CN2CCC(CC2)COC3=CC=C(C=C3)I

> <PUBCHEM_CACTVS_TPSA>
12.5

> <PUBCHEM_MONOISOTOPIC_WEIGHT>
371.07461

> <PUBCHEM_TOTAL_CHARGE>
0

> <PUBCHEM_HEAVY_ATOM_COUNT>
19

> <PUBCHEM_ATOM_DEF_STEREO_COUNT>
0

> <PUBCHEM_ATOM_UDEF_STEREO_COUNT>
0

> <PUBCHEM_BOND_DEF_STEREO_COUNT>
0

> <PUBCHEM_BOND_UDEF_STEREO_COUNT>
0

> <PUBCHEM_ISOTOPIC_ATOM_COUNT>
0

> <PUBCHEM_COMPONENT_COUNT>
1

> <PUBCHEM_CACTVS_TAUTO_COUNT>
-1

> <PUBCHEM_COORDINATE_TYPE>
1
5
255

> <PUBCHEM_BONDANNOTATIONS>
14  15  8
14  16  8
15  17  8
16  18  8
17  19  8
18  19  8

$$$$
