168296938
  -OEChem-09292322442D

 56 59  0     0  0  0  0  0  0999 V2000
    2.0000   -4.2500    0.0000 Cl  0  0  0  0  0  0  0  0  0  0  0  0
    2.0000   -6.2500    0.0000 Cl  0  0  0  0  0  0  0  0  0  0  0  0
    3.7320   -1.2500    0.0000 N   0  0  0  0  0  0  0  0  0  0  0  0
    4.5981    1.2500    0.0000 N   0  0  0  0  0  0  0  0  0  0  0  0
    3.7320   -3.2500    0.0000 N   0  0  0  0  0  0  0  0  0  0  0  0
    4.5981    3.2500    0.0000 N   0  0  0  0  0  0  0  0  0  0  0  0
    5.4641    4.7500    0.0000 N   0  0  0  0  0  0  0  0  0  0  0  0
    2.0000    3.7500    0.0000 N   0  0  0  0  0  0  0  0  0  0  0  0
    3.7320   -0.2500    0.0000 C   0  0  0  0  0  0  0  0  0  0  0  0
    4.5981    0.2500    0.0000 C   0  0  0  0  0  0  0  0  0  0  0  0
    2.8660   -1.7500    0.0000 C   0  0  0  0  0  0  0  0  0  0  0  0
    4.5981   -1.7500    0.0000 C   0  0  0  0  0  0  0  0  0  0  0  0
    5.4641    1.7500    0.0000 C   0  0  0  0  0  0  0  0  0  0  0  0
    3.7320    1.7500    0.0000 C   0  0  0  0  0  0  0  0  0  0  0  0
    2.8660   -2.7500    0.0000 C   0  0  0  0  0  0  0  0  0  0  0  0
    4.5981   -2.7500    0.0000 C   0  0  0  0  0  0  0  0  0  0  0  0
    5.4641    2.7500    0.0000 C   0  0  0  0  0  0  0  0  0  0  0  0
    3.7320    2.7500    0.0000 C   0  0  0  0  0  0  0  0  0  0  0  0
    3.7320   -4.2500    0.0000 C   0  0  0  0  0  0  0  0  0  0  0  0
    4.5981    4.2500    0.0000 C   0  0  0  0  0  0  0  0  0  0  0  0
    2.8660   -4.7500    0.0000 C   0  0  0  0  0  0  0  0  0  0  0  0
    4.5981   -4.7500    0.0000 C   0  0  0  0  0  0  0  0  0  0  0  0
    3.7320    4.7500    0.0000 C   0  0  0  0  0  0  0  0  0  0  0  0
    2.8660   -5.7500    0.0000 C   0  0  0  0  0  0  0  0  0  0  0  0
    4.5981   -5.7500    0.0000 C   0  0  0  0  0  0  0  0  0  0  0  0
    3.7320    5.7500    0.0000 C   0  0  0  0  0  0  0  0  0  0  0  0
    3.7320   -6.2500    0.0000 C   0  0  0  0  0  0  0  0  0  0  0  0
    5.4641    5.7500    0.0000 C   0  0  0  0  0  0  0  0  0  0  0  0
    4.5981    6.2500    0.0000 C   0  0  0  0  0  0  0  0  0  0  0  0
    2.8660    4.2500    0.0000 C   0  0  0  0  0  0  0  0  0  0  0  0
    3.5200    0.3326    0.0000 H   0  0  0  0  0  0  0  0  0  0  0  0
    3.1215   -0.3577    0.0000 H   0  0  0  0  0  0  0  0  0  0  0  0
    4.8101   -0.3326    0.0000 H   0  0  0  0  0  0  0  0  0  0  0  0
    5.2087    0.3577    0.0000 H   0  0  0  0  0  0  0  0  0  0  0  0
    2.6540   -1.1674    0.0000 H   0  0  0  0  0  0  0  0  0  0  0  0
    2.2554   -1.8577    0.0000 H   0  0  0  0  0  0  0  0  0  0  0  0
    5.2087   -1.8577    0.0000 H   0  0  0  0  0  0  0  0  0  0  0  0
    4.8101   -1.1674    0.0000 H   0  0  0  0  0  0  0  0  0  0  0  0
    5.6762    1.1674    0.0000 H   0  0  0  0  0  0  0  0  0  0  0  0
    6.0747    1.8577    0.0000 H   0  0  0  0  0  0  0  0  0  0  0  0
    3.1215    1.8577    0.0000 H   0  0  0  0  0  0  0  0  0  0  0  0
    3.5200    1.1674    0.0000 H   0  0  0  0  0  0  0  0  0  0  0  0
    2.2554   -2.6423    0.0000 H   0  0  0  0  0  0  0  0  0  0  0  0
    2.6540   -3.3326    0.0000 H   0  0  0  0  0  0  0  0  0  0  0  0
    4.8101   -3.3326    0.0000 H   0  0  0  0  0  0  0  0  0  0  0  0
    5.2087   -2.6423    0.0000 H   0  0  0  0  0  0  0  0  0  0  0  0
    6.0747    2.6423    0.0000 H   0  0  0  0  0  0  0  0  0  0  0  0
    5.6762    3.3326    0.0000 H   0  0  0  0  0  0  0  0  0  0  0  0
    3.5200    3.3326    0.0000 H   0  0  0  0  0  0  0  0  0  0  0  0
    3.1215    2.6423    0.0000 H   0  0  0  0  0  0  0  0  0  0  0  0
    5.1350   -4.4400    0.0000 H   0  0  0  0  0  0  0  0  0  0  0  0
    5.1350   -6.0600    0.0000 H   0  0  0  0  0  0  0  0  0  0  0  0
    3.1951    6.0600    0.0000 H   0  0  0  0  0  0  0  0  0  0  0  0
    3.7320   -6.8700    0.0000 H   0  0  0  0  0  0  0  0  0  0  0  0
    6.0010    6.0600    0.0000 H   0  0  0  0  0  0  0  0  0  0  0  0
    4.5981    6.8700    0.0000 H   0  0  0  0  0  0  0  0  0  0  0  0
  1 21  1  0  0  0  0
  2 24  1  0  0  0  0
  3  9  1  0  0  0  0
  3 11  1  0  0  0  0
  3 12  1  0  0  0  0
  4 10  1  0  0  0  0
  4 13  1  0  0  0  0
  4 14  1  0  0  0  0
  5 15  1  0  0  0  0
  5 16  1  0  0  0  0
  5 19  1  0  0  0  0
  6 17  1  0  0  0  0
  6 18  1  0  0  0  0
  6 20  1  0  0  0  0
  7 20  1  0  0  0  0
  7 28  2  0  0  0  0
  8 30  3  0  0  0  0
  9 10  1  0  0  0  0
  9 31  1  0  0  0  0
  9 32  1  0  0  0  0
 10 33  1  0  0  0  0
 10 34  1  0  0  0  0
 11 15  1  0  0  0  0
 11 35  1  0  0  0  0
 11 36  1  0  0  0  0
 12 16  1  0  0  0  0
 12 37  1  0  0  0  0
 12 38  1  0  0  0  0
 13 17  1  0  0  0  0
 13 39  1  0  0  0  0
 13 40  1  0  0  0  0
 14 18  1  0  0  0  0
 14 41  1  0  0  0  0
 14 42  1  0  0  0  0
 15 43  1  0  0  0  0
 15 44  1  0  0  0  0
 16 45  1  0  0  0  0
 16 46  1  0  0  0  0
 17 47  1  0  0  0  0
 17 48  1  0  0  0  0
 18 49  1  0  0  0  0
 18 50  1  0  0  0  0
 19 21  2  0  0  0  0
 19 22  1  0  0  0  0
 20 23  2  0  0  0  0
 21 24  1  0  0  0  0
 22 25  2  0  0  0  0
 22 51  1  0  0  0  0
 23 26  1  0  0  0  0
 23 30  1  0  0  0  0
 24 27  2  0  0  0  0
 25 27  1  0  0  0  0
 25 52  1  0  0  0  0
 26 29  2  0  0  0  0
 26 53  1  0  0  0  0
 27 54  1  0  0  0  0
 28 29  1  0  0  0  0
 28 55  1  0  0  0  0
 29 56  1  0  0  0  0
M  END
> <PUBCHEM_COMPOUND_CID>
168296938

> <PUBCHEM_COMPOUND_CANONICALIZED>
1

> <PUBCHEM_CACTVS_COMPLEXITY>
581

> <PUBCHEM_CACTVS_HBOND_ACCEPTOR>
6

> <PUBCHEM_CACTVS_HBOND_DONOR>
0

> <PUBCHEM_CACTVS_ROTATABLE_BOND>
5

> <PUBCHEM_CACTVS_SUBSKEYS>
AAADceB7gAAGAAAAAAAAAAAAAAAAAAAAAAA8WLEAAAAAAAABwAAAHAIAAAAADArBGiQ98JMIEACwBjZnZACigCkxByAJ2mA4ZpiI4OLBm5HUIAhogALIyC8QAAAMAAAAAAIAABQAAAAABAAAKAAAAAAAAA==

> <PUBCHEM_IUPAC_OPENEYE_NAME>
2-[4-[2-[4-(2,3-dichlorophenyl)piperazin-1-yl]ethyl]piperazin-1-yl]pyridine-3-carbonitrile

> <PUBCHEM_IUPAC_CAS_NAME>
2-[4-[2-[4-(2,3-dichlorophenyl)-1-piperazinyl]ethyl]-1-piperazinyl]-3-pyridinecarbonitrile

> <PUBCHEM_IUPAC_NAME_MARKUP>
2-[4-[2-[4-(2,3-dichlorophenyl)piperazin-1-yl]ethyl]piperazin-1-yl]pyridine-3-carbonitrile

> <PUBCHEM_IUPAC_NAME>
2-[4-[2-[4-(2,3-dichlorophenyl)piperazin-1-yl]ethyl]piperazin-1-yl]pyridine-3-carbonitrile

> <PUBCHEM_IUPAC_SYSTEMATIC_NAME>
2-[4-[2-[4-[2,3-bis(chloranyl)phenyl]piperazin-1-yl]ethyl]piperazin-1-yl]pyridine-3-carbonitrile

> <PUBCHEM_IUPAC_TRADITIONAL_NAME>
2-[4-[2-[4-(2,3-dichlorophenyl)piperazino]ethyl]piperazino]nicotinonitrile

> <PUBCHEM_IUPAC_INCHI>
InChI=1S/C22H26Cl2N6/c23-19-4-1-5-20(21(19)24)29-13-9-27(10-14-29)7-8-28-11-15-30(16-12-28)22-18(17-25)3-2-6-26-22/h1-6H,7-16H2

> <PUBCHEM_IUPAC_INCHIKEY>
QYSQVRCEVBDIDO-UHFFFAOYSA-N

> <PUBCHEM_XLOGP3_AA>
3.7

> <PUBCHEM_EXACT_MASS>
444.1596002

> <PUBCHEM_MOLECULAR_FORMULA>
C22H26Cl2N6

> <PUBCHEM_MOLECULAR_WEIGHT>
445.4

> <PUBCHEM_OPENEYE_CAN_SMILES>
C1CN(CCN1CCN2CCN(CC2)C3=C(C=CC=N3)C#N)C4=C(C(=CC=C4)Cl)Cl

> <PUBCHEM_OPENEYE_ISO_SMILES>
C1CN(CCN1CCN2CCN(CC2)C3=C(C=CC=N3)C#N)C4=C(C(=CC=C4)Cl)Cl

> <PUBCHEM_CACTVS_TPSA>
49.6

> <PUBCHEM_MONOISOTOPIC_WEIGHT>
444.1596002

> <PUBCHEM_TOTAL_CHARGE>
0

> <PUBCHEM_HEAVY_ATOM_COUNT>
30

> <PUBCHEM_ATOM_DEF_STEREO_COUNT>
0

> <PUBCHEM_ATOM_UDEF_STEREO_COUNT>
0

> <PUBCHEM_BOND_DEF_STEREO_COUNT>
0

> <PUBCHEM_BOND_UDEF_STEREO_COUNT>
0

> <PUBCHEM_ISOTOPIC_ATOM_COUNT>
0

> <PUBCHEM_COMPONENT_COUNT>
1

> <PUBCHEM_CACTVS_TAUTO_COUNT>
-1

> <PUBCHEM_COORDINATE_TYPE>
1
5
255

> <PUBCHEM_BONDANNOTATIONS>
19  21  8
19  22  8
20  23  8
21  24  8
22  25  8
23  26  8
24  27  8
25  27  8
26  29  8
28  29  8
7  20  8
7  28  8

$$$$
