11627879
  -OEChem-09292322492D

 70 75  0     1  0  0  0  0  0999 V2000
   11.5467   -0.5483    0.0000 S   0  0  0  0  0  0  0  0  0  0  0  0
    3.7702    0.1491    0.0000 O   0  0  0  0  0  0  0  0  0  0  0  0
    2.0000    2.2079    0.0000 O   0  0  0  0  0  0  0  0  0  0  0  0
    8.5467    1.1838    0.0000 N   0  0  3  0  0  0  0  0  0  0  0  0
    3.7702    2.2184    0.0000 N   0  0  0  0  0  0  0  0  0  0  0  0
   13.1345   -1.3573    0.0000 N   0  0  0  0  0  0  0  0  0  0  0  0
   13.1345    0.2607    0.0000 N   0  0  0  0  0  0  0  0  0  0  0  0
   14.0856   -0.0483    0.0000 N   0  0  0  0  0  0  0  0  0  0  0  0
   17.5752   -1.4082    0.0000 N   0  0  0  0  0  0  0  0  0  0  0  0
    8.1224    2.0680    0.0000 C   0  0  0  0  0  0  0  0  0  0  0  0
    8.1224    0.2995    0.0000 C   0  0  0  0  0  0  0  0  0  0  0  0
    7.1671    2.2901    0.0000 C   0  0  0  0  0  0  0  0  0  0  0  0
    7.1671    0.0774    0.0000 C   0  0  0  0  0  0  0  0  0  0  0  0
    6.3961    1.6838    0.0000 C   0  0  0  0  0  0  0  0  0  0  0  0
    6.3961    0.6838    0.0000 C   0  0  0  0  0  0  0  0  0  0  0  0
    9.5467    1.1838    0.0000 C   0  0  0  0  0  0  0  0  0  0  0  0
    5.5301    2.1838    0.0000 C   0  0  0  0  0  0  0  0  0  0  0  0
    5.5301    0.1838    0.0000 C   0  0  0  0  0  0  0  0  0  0  0  0
   10.0467    0.3177    0.0000 C   0  0  0  0  0  0  0  0  0  0  0  0
    4.6641    1.6838    0.0000 C   0  0  0  0  0  0  0  0  0  0  0  0
    4.6641    0.6838    0.0000 C   0  0  0  0  0  0  0  0  0  0  0  0
   11.0467    0.3177    0.0000 C   0  0  0  0  0  0  0  0  0  0  0  0
    2.8641    0.6630    0.0000 C   0  0  0  0  0  0  0  0  0  0  0  0
    2.8641    1.7046    0.0000 C   0  0  0  0  0  0  0  0  0  0  0  0
    3.7817    3.2184    0.0000 C   0  0  0  0  0  0  0  0  0  0  0  0
   12.5467   -0.5483    0.0000 C   0  0  0  0  0  0  0  0  0  0  0  0
   14.0856   -1.0483    0.0000 C   0  0  0  0  0  0  0  0  0  0  0  0
   14.8946   -1.6361    0.0000 C   0  0  0  0  0  0  0  0  0  0  0  0
   15.8081   -1.2293    0.0000 C   0  0  0  0  0  0  0  0  0  0  0  0
   12.8255   -2.3084    0.0000 C   0  0  0  0  0  0  0  0  0  0  0  0
   16.6172   -1.8171    0.0000 C   0  0  0  0  0  0  0  0  0  0  0  0
   14.7901   -2.6306    0.0000 C   0  0  0  0  0  0  0  0  0  0  0  0
   15.9010   -0.1918    0.0000 C   0  0  0  0  0  0  0  0  0  0  0  0
   16.5126   -2.8116    0.0000 C   0  0  0  0  0  0  0  0  0  0  0  0
   15.5991   -3.2184    0.0000 C   0  0  0  0  0  0  0  0  0  0  0  0
   16.8493    0.2391    0.0000 C   0  0  0  0  0  0  0  0  0  0  0  0
   17.6920   -0.3731    0.0000 C   0  0  0  0  0  0  0  0  0  0  0  0
   18.6071    0.0301    0.0000 C   0  0  0  0  0  0  0  0  0  0  0  0
    8.7271    2.2046    0.0000 H   0  0  0  0  0  0  0  0  0  0  0  0
    8.1243    2.6880    0.0000 H   0  0  0  0  0  0  0  0  0  0  0  0
    8.1243   -0.3205    0.0000 H   0  0  0  0  0  0  0  0  0  0  0  0
    8.7271    0.1629    0.0000 H   0  0  0  0  0  0  0  0  0  0  0  0
    7.4388    2.8474    0.0000 H   0  0  0  0  0  0  0  0  0  0  0  0
    6.6846    2.6795    0.0000 H   0  0  0  0  0  0  0  0  0  0  0  0
    6.6846   -0.3120    0.0000 H   0  0  0  0  0  0  0  0  0  0  0  0
    7.4388   -0.4798    0.0000 H   0  0  0  0  0  0  0  0  0  0  0  0
   10.1293    1.3958    0.0000 H   0  0  0  0  0  0  0  0  0  0  0  0
    9.4391    1.7944    0.0000 H   0  0  0  0  0  0  0  0  0  0  0  0
    5.5301    2.8038    0.0000 H   0  0  0  0  0  0  0  0  0  0  0  0
    9.4641    0.1057    0.0000 H   0  0  0  0  0  0  0  0  0  0  0  0
   10.1544   -0.2928    0.0000 H   0  0  0  0  0  0  0  0  0  0  0  0
    5.5301   -0.4362    0.0000 H   0  0  0  0  0  0  0  0  0  0  0  0
   11.6293    0.5298    0.0000 H   0  0  0  0  0  0  0  0  0  0  0  0
   10.9391    0.9283    0.0000 H   0  0  0  0  0  0  0  0  0  0  0  0
    2.2532    0.7691    0.0000 H   0  0  0  0  0  0  0  0  0  0  0  0
    2.6550    0.0793    0.0000 H   0  0  0  0  0  0  0  0  0  0  0  0
    4.4017    3.2112    0.0000 H   0  0  0  0  0  0  0  0  0  0  0  0
    3.7889    3.8383    0.0000 H   0  0  0  0  0  0  0  0  0  0  0  0
    3.1618    3.2255    0.0000 H   0  0  0  0  0  0  0  0  0  0  0  0
   12.2359   -2.1168    0.0000 H   0  0  0  0  0  0  0  0  0  0  0  0
   12.6339   -2.8980    0.0000 H   0  0  0  0  0  0  0  0  0  0  0  0
   13.4152   -2.4999    0.0000 H   0  0  0  0  0  0  0  0  0  0  0  0
   14.2237   -2.8828    0.0000 H   0  0  0  0  0  0  0  0  0  0  0  0
   15.3953    0.1668    0.0000 H   0  0  0  0  0  0  0  0  0  0  0  0
   17.0142   -3.1761    0.0000 H   0  0  0  0  0  0  0  0  0  0  0  0
   15.5343   -3.8350    0.0000 H   0  0  0  0  0  0  0  0  0  0  0  0
   16.9118    0.8560    0.0000 H   0  0  0  0  0  0  0  0  0  0  0  0
   18.8571   -0.5373    0.0000 H   0  0  0  0  0  0  0  0  0  0  0  0
   19.1745    0.2801    0.0000 H   0  0  0  0  0  0  0  0  0  0  0  0
   18.3571    0.5975    0.0000 H   0  0  0  0  0  0  0  0  0  0  0  0
  1 22  1  0  0  0  0
  1 26  1  0  0  0  0
  2 21  1  0  0  0  0
  2 23  1  0  0  0  0
  3 24  2  0  0  0  0
  4 10  1  0  0  0  0
  4 11  1  0  0  0  0
  4 16  1  0  0  0  0
  5 20  1  0  0  0  0
  5 24  1  0  0  0  0
  5 25  1  0  0  0  0
  6 26  1  0  0  0  0
  6 27  1  0  0  0  0
  6 30  1  0  0  0  0
  7  8  1  0  0  0  0
  7 26  2  0  0  0  0
  8 27  2  0  0  0  0
  9 31  1  0  0  0  0
  9 37  2  0  0  0  0
 10 12  1  0  0  0  0
 10 39  1  0  0  0  0
 10 40  1  0  0  0  0
 11 13  1  0  0  0  0
 11 41  1  0  0  0  0
 11 42  1  0  0  0  0
 12 14  1  0  0  0  0
 12 43  1  0  0  0  0
 12 44  1  0  0  0  0
 13 15  1  0  0  0  0
 13 45  1  0  0  0  0
 13 46  1  0  0  0  0
 14 15  1  0  0  0  0
 14 17  2  0  0  0  0
 15 18  2  0  0  0  0
 16 19  1  0  0  0  0
 16 47  1  0  0  0  0
 16 48  1  0  0  0  0
 17 20  1  0  0  0  0
 17 49  1  0  0  0  0
 18 21  1  0  0  0  0
 18 52  1  0  0  0  0
 19 22  1  0  0  0  0
 19 50  1  0  0  0  0
 19 51  1  0  0  0  0
 20 21  2  0  0  0  0
 22 53  1  0  0  0  0
 22 54  1  0  0  0  0
 23 24  1  0  0  0  0
 23 55  1  0  0  0  0
 23 56  1  0  0  0  0
 25 57  1  0  0  0  0
 25 58  1  0  0  0  0
 25 59  1  0  0  0  0
 27 28  1  0  0  0  0
 28 29  2  0  0  0  0
 28 32  1  0  0  0  0
 29 31  1  0  0  0  0
 29 33  1  0  0  0  0
 30 60  1  0  0  0  0
 30 61  1  0  0  0  0
 30 62  1  0  0  0  0
 31 34  2  0  0  0  0
 32 35  2  0  0  0  0
 32 63  1  0  0  0  0
 33 36  2  0  0  0  0
 33 64  1  0  0  0  0
 34 35  1  0  0  0  0
 34 65  1  0  0  0  0
 35 66  1  0  0  0  0
 36 37  1  0  0  0  0
 36 67  1  0  0  0  0
 37 38  1  0  0  0  0
 38 68  1  0  0  0  0
 38 69  1  0  0  0  0
 38 70  1  0  0  0  0
M  END
> <PUBCHEM_COMPOUND_CID>
11627879

> <PUBCHEM_COMPOUND_CANONICALIZED>
1

> <PUBCHEM_CACTVS_COMPLEXITY>
820

> <PUBCHEM_CACTVS_HBOND_ACCEPTOR>
7

> <PUBCHEM_CACTVS_HBOND_DONOR>
0

> <PUBCHEM_CACTVS_ROTATABLE_BOND>
6

> <PUBCHEM_CACTVS_SUBSKEYS>
AAADcfB7sABAAAAAAAAAAAAAAAAAAWAAAAA8eIEABYAAAACx/AAAHgQIAAAADAzl3waz1vcMFAiqAydydAKS2CthIrAd2CB/bJiOLuLkuZ+HOCjkzhPY6AeQ0PIOqAABQAASEABQAAKAACQgAAAAAAAAAA==

> <PUBCHEM_IUPAC_OPENEYE_NAME>
4-methyl-8-[3-[[4-methyl-5-(2-methyl-5-quinolyl)-1,2,4-triazol-3-yl]sulfanyl]propyl]-6,7,9,10-tetrahydro-[1,4]oxazino[2,3-h][3]benzazepin-3-one

> <PUBCHEM_IUPAC_CAS_NAME>
4-methyl-8-[3-[[4-methyl-5-(2-methyl-5-quinolinyl)-1,2,4-triazol-3-yl]thio]propyl]-6,7,9,10-tetrahydro-[1,4]oxazino[2,3-h][3]benzazepin-3-one

> <PUBCHEM_IUPAC_NAME_MARKUP>
4-methyl-8-[3-[[4-methyl-5-(2-methylquinolin-5-yl)-1,2,4-triazol-3-yl]sulfanyl]propyl]-6,7,9,10-tetrahydro-[1,4]oxazino[2,3-h][3]benzazepin-3-one

> <PUBCHEM_IUPAC_NAME>
4-methyl-8-[3-[[4-methyl-5-(2-methylquinolin-5-yl)-1,2,4-triazol-3-yl]sulfanyl]propyl]-6,7,9,10-tetrahydro-[1,4]oxazino[2,3-h][3]benzazepin-3-one

> <PUBCHEM_IUPAC_SYSTEMATIC_NAME>
4-methyl-8-[3-[[4-methyl-5-(2-methylquinolin-5-yl)-1,2,4-triazol-3-yl]sulfanyl]propyl]-6,7,9,10-tetrahydro-[1,4]oxazino[2,3-h][3]benzazepin-3-one

> <PUBCHEM_IUPAC_TRADITIONAL_NAME>
4-methyl-8-[3-[[4-methyl-5-(2-methyl-5-quinolyl)-1,2,4-triazol-3-yl]thio]propyl]-6,7,9,10-tetrahydro-[1,4]oxazino[2,3-h][3]benzazepin-3-one

> <PUBCHEM_IUPAC_INCHI>
InChI=1S/C29H32N6O2S/c1-19-8-9-22-23(6-4-7-24(22)30-19)28-31-32-29(34(28)3)38-15-5-12-35-13-10-20-16-25-26(17-21(20)11-14-35)37-18-27(36)33(25)2/h4,6-9,16-17H,5,10-15,18H2,1-3H3

> <PUBCHEM_IUPAC_INCHIKEY>
ZENBFJWQHFZSBC-UHFFFAOYSA-N

> <PUBCHEM_XLOGP3_AA>
4.1

> <PUBCHEM_EXACT_MASS>
528.23074546

> <PUBCHEM_MOLECULAR_FORMULA>
C29H32N6O2S

> <PUBCHEM_MOLECULAR_WEIGHT>
528.7

> <PUBCHEM_OPENEYE_CAN_SMILES>
CC1=NC2=CC=CC(=C2C=C1)C3=NN=C(N3C)SCCCN4CCC5=CC6=C(C=C5CC4)OCC(=O)N6C

> <PUBCHEM_OPENEYE_ISO_SMILES>
CC1=NC2=CC=CC(=C2C=C1)C3=NN=C(N3C)SCCCN4CCC5=CC6=C(C=C5CC4)OCC(=O)N6C

> <PUBCHEM_CACTVS_TPSA>
102

> <PUBCHEM_MONOISOTOPIC_WEIGHT>
528.23074546

> <PUBCHEM_TOTAL_CHARGE>
0

> <PUBCHEM_HEAVY_ATOM_COUNT>
38

> <PUBCHEM_ATOM_DEF_STEREO_COUNT>
0

> <PUBCHEM_ATOM_UDEF_STEREO_COUNT>
0

> <PUBCHEM_BOND_DEF_STEREO_COUNT>
0

> <PUBCHEM_BOND_UDEF_STEREO_COUNT>
0

> <PUBCHEM_ISOTOPIC_ATOM_COUNT>
0

> <PUBCHEM_COMPONENT_COUNT>
1

> <PUBCHEM_CACTVS_TAUTO_COUNT>
-1

> <PUBCHEM_COORDINATE_TYPE>
1
5
255

> <PUBCHEM_BONDANNOTATIONS>
14  15  8
14  17  8
15  18  8
17  20  8
18  21  8
20  21  8
28  29  8
28  32  8
29  31  8
29  33  8
31  34  8
32  35  8
33  36  8
34  35  8
36  37  8
6  26  8
6  27  8
7  26  8
7  8  8
8  27  8
9  31  8
9  37  8

$$$$
