45262692
  -OEChem-09292322142D

 37 38  0     1  0  0  0  0  0999 V2000
    2.5064    0.0000    0.0000 Cl  0  0  0  0  0  0  0  0  0  0  0  0
    5.4747    5.2323    0.0000 O   0  0  0  0  0  0  0  0  0  0  0  0
    0.6200    4.2081    0.0000 N   0  0  0  0  0  0  0  0  0  0  0  0
    2.0288    5.3316    0.0000 C   0  0  3  0  0  0  0  0  0  0  0  0
    2.8106    4.7081    0.0000 C   0  0  0  0  0  0  0  0  0  0  0  0
    1.0539    5.1091    0.0000 C   0  0  0  0  0  0  0  0  0  0  0  0
    2.8106    3.7081    0.0000 C   0  0  0  0  0  0  0  0  0  0  0  0
    2.0288    3.0846    0.0000 C   0  0  0  0  0  0  0  0  0  0  0  0
    1.0539    3.3071    0.0000 C   0  0  0  0  0  0  0  0  0  0  0  0
    2.2513    6.3065    0.0000 C   0  0  0  0  0  0  0  0  0  0  0  0
    3.7046    5.2428    0.0000 C   0  0  0  0  0  0  0  0  0  0  0  0
    3.7046    3.1734    0.0000 C   0  0  0  0  0  0  0  0  0  0  0  0
    3.2069    6.6013    0.0000 C   0  0  0  0  0  0  0  0  0  0  0  0
    1.5183    6.9867    0.0000 C   0  0  0  0  0  0  0  0  0  0  0  0
    4.6106    4.7289    0.0000 C   0  0  0  0  0  0  0  0  0  0  0  0
    4.6106    3.6873    0.0000 C   0  0  0  0  0  0  0  0  0  0  0  0
    3.4294    7.5762    0.0000 C   0  0  0  0  0  0  0  0  0  0  0  0
    1.7408    7.9616    0.0000 C   0  0  0  0  0  0  0  0  0  0  0  0
    2.6964    8.2564    0.0000 C   0  0  0  0  0  0  0  0  0  0  0  0
    1.5904    5.7700    0.0000 H   0  0  0  0  0  0  0  0  0  0  0  0
    1.0539    5.7291    0.0000 H   0  0  0  0  0  0  0  0  0  0  0  0
    0.4494    5.2470    0.0000 H   0  0  0  0  0  0  0  0  0  0  0  0
    1.7598    2.5260    0.0000 H   0  0  0  0  0  0  0  0  0  0  0  0
    2.5136    2.6981    0.0000 H   0  0  0  0  0  0  0  0  0  0  0  0
    0.4494    3.1692    0.0000 H   0  0  0  0  0  0  0  0  0  0  0  0
    1.0539    2.6871    0.0000 H   0  0  0  0  0  0  0  0  0  0  0  0
    0.0000    4.2081    0.0000 H   0  0  0  0  0  0  0  0  0  0  0  0
    3.6974    5.8627    0.0000 H   0  0  0  0  0  0  0  0  0  0  0  0
    3.6974    2.5535    0.0000 H   0  0  0  0  0  0  0  0  0  0  0  0
    3.6614    6.1796    0.0000 H   0  0  0  0  0  0  0  0  0  0  0  0
    0.9258    6.8040    0.0000 H   0  0  0  0  0  0  0  0  0  0  0  0
    5.1464    3.3752    0.0000 H   0  0  0  0  0  0  0  0  0  0  0  0
    4.0219    7.7590    0.0000 H   0  0  0  0  0  0  0  0  0  0  0  0
    1.2863    8.3833    0.0000 H   0  0  0  0  0  0  0  0  0  0  0  0
    2.8343    8.8608    0.0000 H   0  0  0  0  0  0  0  0  0  0  0  0
    6.0129    4.9243    0.0000 H   0  0  0  0  0  0  0  0  0  0  0  0
    3.5064    0.0000    0.0000 H   0  0  0  0  0  0  0  0  0  0  0  0
  1 37  1  0  0  0  0
  2 15  1  0  0  0  0
  2 36  1  0  0  0  0
  3  6  1  0  0  0  0
  3  9  1  0  0  0  0
  3 27  1  0  0  0  0
  4  5  1  0  0  0  0
  4  6  1  0  0  0  0
  4 10  1  0  0  0  0
  4 20  1  0  0  0  0
  5  7  2  0  0  0  0
  5 11  1  0  0  0  0
  6 21  1  0  0  0  0
  6 22  1  0  0  0  0
  7  8  1  0  0  0  0
  7 12  1  0  0  0  0
  8  9  1  0  0  0  0
  8 23  1  0  0  0  0
  8 24  1  0  0  0  0
  9 25  1  0  0  0  0
  9 26  1  0  0  0  0
 10 13  2  0  0  0  0
 10 14  1  0  0  0  0
 11 15  2  0  0  0  0
 11 28  1  0  0  0  0
 12 16  2  0  0  0  0
 12 29  1  0  0  0  0
 13 17  1  0  0  0  0
 13 30  1  0  0  0  0
 14 18  2  0  0  0  0
 14 31  1  0  0  0  0
 15 16  1  0  0  0  0
 16 32  1  0  0  0  0
 17 19  2  0  0  0  0
 17 33  1  0  0  0  0
 18 19  1  0  0  0  0
 18 34  1  0  0  0  0
 19 35  1  0  0  0  0
M  END
> <PUBCHEM_COMPOUND_CID>
45262692

> <PUBCHEM_COMPOUND_CANONICALIZED>
1

> <PUBCHEM_CACTVS_COMPLEXITY>
262

> <PUBCHEM_CACTVS_HBOND_ACCEPTOR>
2

> <PUBCHEM_CACTVS_HBOND_DONOR>
3

> <PUBCHEM_CACTVS_ROTATABLE_BOND>
1

> <PUBCHEM_CACTVS_SUBSKEYS>
AAADceB6IAAEAAAAAAAAAAAAAAAAAAAAAAAwYAAABYAAAAABQAAAHgAQCAAADQTBmAQwBoLAAgCAAiBCAAACAAAgIAAIiIAOCIgIJiKCkROEcAAk0BGImAeQ0PIOoAABAAAQAABAAAIAACAAAAAAAAAAAA==

> <PUBCHEM_IUPAC_OPENEYE_NAME>
5-phenyl-2,3,4,5-tetrahydro-1H-3-benzazepin-7-ol;hydrochloride

> <PUBCHEM_IUPAC_CAS_NAME>
5-phenyl-2,3,4,5-tetrahydro-1H-3-benzazepin-7-ol;hydrochloride

> <PUBCHEM_IUPAC_NAME_MARKUP>
5-phenyl-2,3,4,5-tetrahydro-1<I>H</I>-3-benzazepin-7-ol;hydrochloride

> <PUBCHEM_IUPAC_NAME>
5-phenyl-2,3,4,5-tetrahydro-1H-3-benzazepin-7-ol;hydrochloride

> <PUBCHEM_IUPAC_SYSTEMATIC_NAME>
5-phenyl-2,3,4,5-tetrahydro-1H-3-benzazepin-7-ol;hydrochloride

> <PUBCHEM_IUPAC_TRADITIONAL_NAME>
5-phenyl-2,3,4,5-tetrahydro-1H-3-benzazepin-7-ol;hydrochloride

> <PUBCHEM_IUPAC_INCHI>
InChI=1S/C16H17NO.ClH/c18-14-7-6-13-8-9-17-11-16(15(13)10-14)12-4-2-1-3-5-12;/h1-7,10,16-18H,8-9,11H2;1H

> <PUBCHEM_IUPAC_INCHIKEY>
IIXSGSAELYLGCN-UHFFFAOYSA-N

> <PUBCHEM_EXACT_MASS>
275.1076919

> <PUBCHEM_MOLECULAR_FORMULA>
C16H18ClNO

> <PUBCHEM_MOLECULAR_WEIGHT>
275.77

> <PUBCHEM_OPENEYE_CAN_SMILES>
C1CNCC(C2=C1C=CC(=C2)O)C3=CC=CC=C3.Cl

> <PUBCHEM_OPENEYE_ISO_SMILES>
C1CNCC(C2=C1C=CC(=C2)O)C3=CC=CC=C3.Cl

> <PUBCHEM_CACTVS_TPSA>
32.3

> <PUBCHEM_MONOISOTOPIC_WEIGHT>
275.1076919

> <PUBCHEM_TOTAL_CHARGE>
0

> <PUBCHEM_HEAVY_ATOM_COUNT>
19

> <PUBCHEM_ATOM_DEF_STEREO_COUNT>
0

> <PUBCHEM_ATOM_UDEF_STEREO_COUNT>
1

> <PUBCHEM_BOND_DEF_STEREO_COUNT>
0

> <PUBCHEM_BOND_UDEF_STEREO_COUNT>
0

> <PUBCHEM_ISOTOPIC_ATOM_COUNT>
0

> <PUBCHEM_COMPONENT_COUNT>
2

> <PUBCHEM_CACTVS_TAUTO_COUNT>
-1

> <PUBCHEM_COORDINATE_TYPE>
1
5
255

> <PUBCHEM_BONDANNOTATIONS>
10  13  8
10  14  8
11  15  8
12  16  8
13  17  8
14  18  8
15  16  8
17  19  8
18  19  8
4  10  3
5  11  8
5  7  8
7  12  8

$$$$
