44347697
  -OEChem-09292322132D

 55 57  0     1  0  0  0  0  0999 V2000
    8.3312    3.6386    0.0000 O   0  0  0  0  0  0  0  0  0  0  0  0
    5.7665    0.0000    0.0000 O   0  0  0  0  0  0  0  0  0  0  0  0
    4.8671    3.6386    0.0000 N   0  0  0  0  0  0  0  0  0  0  0  0
    6.5991    4.6386    0.0000 C   0  0  0  0  0  0  0  0  0  0  0  0
    7.4651    5.1386    0.0000 C   0  0  3  0  0  0  0  0  0  0  0  0
    6.5991    3.6386    0.0000 C   0  0  0  0  0  0  0  0  0  0  0  0
    5.7331    5.1386    0.0000 C   0  0  0  0  0  0  0  0  0  0  0  0
    5.7331    3.1386    0.0000 C   0  0  0  0  0  0  0  0  0  0  0  0
    4.8671    4.6386    0.0000 C   0  0  0  0  0  0  0  0  0  0  0  0
    7.4651    6.1386    0.0000 C   0  0  0  0  0  0  0  0  0  0  0  0
    8.3312    4.6386    0.0000 C   0  0  0  0  0  0  0  0  0  0  0  0
    8.3312    6.6386    0.0000 C   0  0  0  0  0  0  0  0  0  0  0  0
    9.1972    5.1386    0.0000 C   0  0  0  0  0  0  0  0  0  0  0  0
    9.1972    6.1386    0.0000 C   0  0  0  0  0  0  0  0  0  0  0  0
    4.0010    3.1386    0.0000 C   0  0  0  0  0  0  0  0  0  0  0  0
    3.1350    3.6386    0.0000 C   0  0  0  0  0  0  0  0  0  0  0  0
   10.0911    4.6039    0.0000 C   0  0  0  0  0  0  0  0  0  0  0  0
   10.0911    6.6732    0.0000 C   0  0  0  0  0  0  0  0  0  0  0  0
   10.9972    5.1178    0.0000 C   0  0  0  0  0  0  0  0  0  0  0  0
   10.9972    6.1594    0.0000 C   0  0  0  0  0  0  0  0  0  0  0  0
    2.2690    3.1386    0.0000 C   0  0  0  0  0  0  0  0  0  0  0  0
    3.1350    4.6386    0.0000 C   0  0  0  0  0  0  0  0  0  0  0  0
    1.4030    3.6386    0.0000 C   0  0  0  0  0  0  0  0  0  0  0  0
    2.2690    5.1386    0.0000 C   0  0  0  0  0  0  0  0  0  0  0  0
    1.4030    4.6386    0.0000 C   0  0  0  0  0  0  0  0  0  0  0  0
    0.5369    5.1386    0.0000 C   0  0  0  0  0  0  0  0  0  0  0  0
    6.5991    5.2586    0.0000 H   0  0  0  0  0  0  0  0  0  0  0  0
    7.4651    4.5186    0.0000 H   0  0  0  0  0  0  0  0  0  0  0  0
    6.8112    3.0560    0.0000 H   0  0  0  0  0  0  0  0  0  0  0  0
    7.2097    3.7462    0.0000 H   0  0  0  0  0  0  0  0  0  0  0  0
    6.1316    5.6135    0.0000 H   0  0  0  0  0  0  0  0  0  0  0  0
    5.3346    5.6135    0.0000 H   0  0  0  0  0  0  0  0  0  0  0  0
    5.3346    2.6636    0.0000 H   0  0  0  0  0  0  0  0  0  0  0  0
    6.1316    2.6636    0.0000 H   0  0  0  0  0  0  0  0  0  0  0  0
    4.6550    5.2212    0.0000 H   0  0  0  0  0  0  0  0  0  0  0  0
    4.2565    4.5309    0.0000 H   0  0  0  0  0  0  0  0  0  0  0  0
    7.2531    6.7212    0.0000 H   0  0  0  0  0  0  0  0  0  0  0  0
    6.8546    6.0309    0.0000 H   0  0  0  0  0  0  0  0  0  0  0  0
    8.7297    7.1135    0.0000 H   0  0  0  0  0  0  0  0  0  0  0  0
    7.9326    7.1135    0.0000 H   0  0  0  0  0  0  0  0  0  0  0  0
    3.6025    2.6636    0.0000 H   0  0  0  0  0  0  0  0  0  0  0  0
    4.3996    2.6636    0.0000 H   0  0  0  0  0  0  0  0  0  0  0  0
   10.0840    3.9840    0.0000 H   0  0  0  0  0  0  0  0  0  0  0  0
   10.0840    7.2932    0.0000 H   0  0  0  0  0  0  0  0  0  0  0  0
   11.5329    4.8057    0.0000 H   0  0  0  0  0  0  0  0  0  0  0  0
   11.5329    6.4715    0.0000 H   0  0  0  0  0  0  0  0  0  0  0  0
    2.2690    2.5186    0.0000 H   0  0  0  0  0  0  0  0  0  0  0  0
    3.6720    4.9486    0.0000 H   0  0  0  0  0  0  0  0  0  0  0  0
    0.8660    3.3286    0.0000 H   0  0  0  0  0  0  0  0  0  0  0  0
    2.2690    5.7586    0.0000 H   0  0  0  0  0  0  0  0  0  0  0  0
    0.8469    5.6755    0.0000 H   0  0  0  0  0  0  0  0  0  0  0  0
    0.0000    5.4486    0.0000 H   0  0  0  0  0  0  0  0  0  0  0  0
    0.2269    4.6016    0.0000 H   0  0  0  0  0  0  0  0  0  0  0  0
    6.3034    0.3100    0.0000 H   0  0  0  0  0  0  0  0  0  0  0  0
    5.2295    0.3100    0.0000 H   0  0  0  0  0  0  0  0  0  0  0  0
  1 11  2  0  0  0  0
  2 54  1  0  0  0  0
  2 55  1  0  0  0  0
  3  8  1  0  0  0  0
  3  9  1  0  0  0  0
  3 15  1  0  0  0  0
  4  5  1  0  0  0  0
  4  6  1  0  0  0  0
  4  7  1  0  0  0  0
  4 27  1  0  0  0  0
  5 10  1  0  0  0  0
  5 11  1  0  0  0  0
  5 28  1  0  0  0  0
  6  8  1  0  0  0  0
  6 29  1  0  0  0  0
  6 30  1  0  0  0  0
  7  9  1  0  0  0  0
  7 31  1  0  0  0  0
  7 32  1  0  0  0  0
  8 33  1  0  0  0  0
  8 34  1  0  0  0  0
  9 35  1  0  0  0  0
  9 36  1  0  0  0  0
 10 12  1  0  0  0  0
 10 37  1  0  0  0  0
 10 38  1  0  0  0  0
 11 13  1  0  0  0  0
 12 14  1  0  0  0  0
 12 39  1  0  0  0  0
 12 40  1  0  0  0  0
 13 14  1  0  0  0  0
 13 17  2  0  0  0  0
 14 18  2  0  0  0  0
 15 16  1  0  0  0  0
 15 41  1  0  0  0  0
 15 42  1  0  0  0  0
 16 21  2  0  0  0  0
 16 22  1  0  0  0  0
 17 19  1  0  0  0  0
 17 43  1  0  0  0  0
 18 20  1  0  0  0  0
 18 44  1  0  0  0  0
 19 20  2  0  0  0  0
 19 45  1  0  0  0  0
 20 46  1  0  0  0  0
 21 23  1  0  0  0  0
 21 47  1  0  0  0  0
 22 24  2  0  0  0  0
 22 48  1  0  0  0  0
 23 25  2  0  0  0  0
 23 49  1  0  0  0  0
 24 25  1  0  0  0  0
 24 50  1  0  0  0  0
 25 26  1  0  0  0  0
 26 51  1  0  0  0  0
 26 52  1  0  0  0  0
 26 53  1  0  0  0  0
M  END
> <PUBCHEM_COMPOUND_CID>
44347697

> <PUBCHEM_COMPOUND_CANONICALIZED>
1

> <PUBCHEM_CACTVS_COMPLEXITY>
445

> <PUBCHEM_CACTVS_HBOND_ACCEPTOR>
3

> <PUBCHEM_CACTVS_HBOND_DONOR>
1

> <PUBCHEM_CACTVS_ROTATABLE_BOND>
3

> <PUBCHEM_CACTVS_SUBSKEYS>
AAADceB6MAAAAAAAAAAAAAAAAAAAAAAAAAA8YMEAAAAAAADBQAAAHgAACAAADQTBmAQyAIMAAACIAqBSAACCAAAkAAAIiAEIBMgIIDKAlRGEIQhggACIiYcYicCOwAAAAAAQAACAAAQAACAAAAAAAAAAAA==

> <PUBCHEM_IUPAC_OPENEYE_NAME>
2-[1-(p-tolylmethyl)-4-piperidyl]tetralin-1-one;hydrate

> <PUBCHEM_IUPAC_CAS_NAME>
2-[1-[(4-methylphenyl)methyl]-4-piperidinyl]-3,4-dihydro-2H-naphthalen-1-one;hydrate

> <PUBCHEM_IUPAC_NAME_MARKUP>
2-[1-[(4-methylphenyl)methyl]piperidin-4-yl]-3,4-dihydro-2<I>H</I>-naphthalen-1-one;hydrate

> <PUBCHEM_IUPAC_NAME>
2-[1-[(4-methylphenyl)methyl]piperidin-4-yl]-3,4-dihydro-2H-naphthalen-1-one;hydrate

> <PUBCHEM_IUPAC_SYSTEMATIC_NAME>
2-[1-[(4-methylphenyl)methyl]piperidin-4-yl]-3,4-dihydro-2H-naphthalen-1-one;hydrate

> <PUBCHEM_IUPAC_TRADITIONAL_NAME>
2-[1-(4-methylbenzyl)-4-piperidyl]tetralin-1-one;hydrate

> <PUBCHEM_IUPAC_INCHI>
InChI=1S/C23H27NO.H2O/c1-17-6-8-18(9-7-17)16-24-14-12-20(13-15-24)22-11-10-19-4-2-3-5-21(19)23(22)25;/h2-9,20,22H,10-16H2,1H3;1H2

> <PUBCHEM_IUPAC_INCHIKEY>
GSDIVDZHUVDTSH-UHFFFAOYSA-N

> <PUBCHEM_EXACT_MASS>
351.219829168

> <PUBCHEM_MOLECULAR_FORMULA>
C23H29NO2

> <PUBCHEM_MOLECULAR_WEIGHT>
351.5

> <PUBCHEM_OPENEYE_CAN_SMILES>
CC1=CC=C(C=C1)CN2CCC(CC2)C3CCC4=CC=CC=C4C3=O.O

> <PUBCHEM_OPENEYE_ISO_SMILES>
CC1=CC=C(C=C1)CN2CCC(CC2)C3CCC4=CC=CC=C4C3=O.O

> <PUBCHEM_CACTVS_TPSA>
21.3

> <PUBCHEM_MONOISOTOPIC_WEIGHT>
351.219829168

> <PUBCHEM_TOTAL_CHARGE>
0

> <PUBCHEM_HEAVY_ATOM_COUNT>
26

> <PUBCHEM_ATOM_DEF_STEREO_COUNT>
0

> <PUBCHEM_ATOM_UDEF_STEREO_COUNT>
1

> <PUBCHEM_BOND_DEF_STEREO_COUNT>
0

> <PUBCHEM_BOND_UDEF_STEREO_COUNT>
0

> <PUBCHEM_ISOTOPIC_ATOM_COUNT>
0

> <PUBCHEM_COMPONENT_COUNT>
2

> <PUBCHEM_CACTVS_TAUTO_COUNT>
-1

> <PUBCHEM_COORDINATE_TYPE>
1
5
255

> <PUBCHEM_BONDANNOTATIONS>
13  14  8
13  17  8
14  18  8
16  21  8
16  22  8
17  19  8
18  20  8
19  20  8
21  23  8
22  24  8
23  25  8
24  25  8
5  4  3

$$$$
