127047536
  -OEChem-09292322472D

 64 68  0     0  0  0  0  0  0999 V2000
    8.4530   -2.4518    0.0000 S   0  0  0  0  0  0  0  0  0  0  0  0
    6.3301    5.3034    0.0000 F   0  0  0  0  0  0  0  0  0  0  0  0
    5.3301    4.3034    0.0000 F   0  0  0  0  0  0  0  0  0  0  0  0
    7.3301    4.3034    0.0000 F   0  0  0  0  0  0  0  0  0  0  0  0
    9.4035   -2.1412    0.0000 O   0  0  0  0  0  0  0  0  0  0  0  0
    7.5025   -2.7625    0.0000 O   0  0  0  0  0  0  0  0  0  0  0  0
    8.1424   -1.5013    0.0000 N   0  0  0  0  0  0  0  0  0  0  0  0
    4.5981   -1.6966    0.0000 N   0  0  0  0  0  0  0  0  0  0  0  0
    2.8660   -2.6966    0.0000 N   0  0  0  0  0  0  0  0  0  0  0  0
    6.3301   -1.6966    0.0000 N   0  0  0  0  0  0  0  0  0  0  0  0
    8.7637   -3.4024    0.0000 C   0  0  0  0  0  0  0  0  0  0  0  0
    8.0958   -4.1467    0.0000 C   0  0  0  0  0  0  0  0  0  0  0  0
    9.7422   -3.6086    0.0000 C   0  0  0  0  0  0  0  0  0  0  0  0
    8.4065   -5.0972    0.0000 C   0  0  0  0  0  0  0  0  0  0  0  0
   10.0529   -4.5591    0.0000 C   0  0  0  0  0  0  0  0  0  0  0  0
    9.3850   -5.3034    0.0000 C   0  0  0  0  0  0  0  0  0  0  0  0
    7.1962   -1.1966    0.0000 C   0  0  0  0  0  0  0  0  0  0  0  0
    7.1962   -0.1966    0.0000 C   0  0  0  0  0  0  0  0  0  0  0  0
    8.7260   -0.6966    0.0000 C   0  0  0  0  0  0  0  0  0  0  0  0
    3.7320   -1.1966    0.0000 C   0  0  0  0  0  0  0  0  0  0  0  0
    4.5981   -2.6966    0.0000 C   0  0  0  0  0  0  0  0  0  0  0  0
    5.4641   -1.1966    0.0000 C   0  0  0  0  0  0  0  0  0  0  0  0
    8.1424    0.1081    0.0000 C   0  0  0  0  0  0  0  0  0  0  0  0
    2.8660   -1.6966    0.0000 C   0  0  0  0  0  0  0  0  0  0  0  0
    3.7320   -3.1966    0.0000 C   0  0  0  0  0  0  0  0  0  0  0  0
    6.3301    0.3034    0.0000 C   0  0  0  0  0  0  0  0  0  0  0  0
    5.4641   -0.1966    0.0000 C   0  0  0  0  0  0  0  0  0  0  0  0
    6.3301    1.3034    0.0000 C   0  0  0  0  0  0  0  0  0  0  0  0
    2.0000   -3.1966    0.0000 C   0  0  0  0  0  0  0  0  0  0  0  0
    5.4641    1.8034    0.0000 C   0  0  0  0  0  0  0  0  0  0  0  0
    7.1962    1.8034    0.0000 C   0  0  0  0  0  0  0  0  0  0  0  0
    5.4641    2.8034    0.0000 C   0  0  0  0  0  0  0  0  0  0  0  0
    7.1962    2.8034    0.0000 C   0  0  0  0  0  0  0  0  0  0  0  0
    6.3301    3.3034    0.0000 C   0  0  0  0  0  0  0  0  0  0  0  0
    6.3301    4.3034    0.0000 C   0  0  0  0  0  0  0  0  0  0  0  0
    8.1570   -3.2745    0.0000 H   0  0  0  0  0  0  0  0  0  0  0  0
    7.7133   -3.6588    0.0000 H   0  0  0  0  0  0  0  0  0  0  0  0
    7.5489   -4.4387    0.0000 H   0  0  0  0  0  0  0  0  0  0  0  0
   10.3560   -3.5212    0.0000 H   0  0  0  0  0  0  0  0  0  0  0  0
    9.7628   -2.9889    0.0000 H   0  0  0  0  0  0  0  0  0  0  0  0
    7.7927   -5.1845    0.0000 H   0  0  0  0  0  0  0  0  0  0  0  0
    8.3860   -5.7168    0.0000 H   0  0  0  0  0  0  0  0  0  0  0  0
   10.4354   -5.0470    0.0000 H   0  0  0  0  0  0  0  0  0  0  0  0
   10.5998   -4.2671    0.0000 H   0  0  0  0  0  0  0  0  0  0  0  0
    9.1538   -5.8787    0.0000 H   0  0  0  0  0  0  0  0  0  0  0  0
    9.9114   -5.6310    0.0000 H   0  0  0  0  0  0  0  0  0  0  0  0
    9.3460   -0.6966    0.0000 H   0  0  0  0  0  0  0  0  0  0  0  0
    4.1306   -0.7216    0.0000 H   0  0  0  0  0  0  0  0  0  0  0  0
    3.3335   -0.7216    0.0000 H   0  0  0  0  0  0  0  0  0  0  0  0
    4.8101   -3.2792    0.0000 H   0  0  0  0  0  0  0  0  0  0  0  0
    5.2087   -2.5889    0.0000 H   0  0  0  0  0  0  0  0  0  0  0  0
    8.3350    0.6975    0.0000 H   0  0  0  0  0  0  0  0  0  0  0  0
    2.6540   -1.1140    0.0000 H   0  0  0  0  0  0  0  0  0  0  0  0
    2.2554   -1.8043    0.0000 H   0  0  0  0  0  0  0  0  0  0  0  0
    3.3335   -3.6715    0.0000 H   0  0  0  0  0  0  0  0  0  0  0  0
    4.1306   -3.6715    0.0000 H   0  0  0  0  0  0  0  0  0  0  0  0
    4.9272    0.1134    0.0000 H   0  0  0  0  0  0  0  0  0  0  0  0
    1.6900   -2.6597    0.0000 H   0  0  0  0  0  0  0  0  0  0  0  0
    1.4631   -3.5066    0.0000 H   0  0  0  0  0  0  0  0  0  0  0  0
    2.3100   -3.7335    0.0000 H   0  0  0  0  0  0  0  0  0  0  0  0
    4.9272    1.4934    0.0000 H   0  0  0  0  0  0  0  0  0  0  0  0
    7.7331    1.4934    0.0000 H   0  0  0  0  0  0  0  0  0  0  0  0
    4.9272    3.1134    0.0000 H   0  0  0  0  0  0  0  0  0  0  0  0
    7.7331    3.1134    0.0000 H   0  0  0  0  0  0  0  0  0  0  0  0
  1  5  2  0  0  0  0
  1  6  2  0  0  0  0
  1  7  1  0  0  0  0
  1 11  1  0  0  0  0
  2 35  1  0  0  0  0
  3 35  1  0  0  0  0
  4 35  1  0  0  0  0
  7 17  1  0  0  0  0
  7 19  1  0  0  0  0
  8 20  1  0  0  0  0
  8 21  1  0  0  0  0
  8 22  1  0  0  0  0
  9 24  1  0  0  0  0
  9 25  1  0  0  0  0
  9 29  1  0  0  0  0
 10 17  1  0  0  0  0
 10 22  2  0  0  0  0
 11 12  1  0  0  0  0
 11 13  1  0  0  0  0
 11 36  1  0  0  0  0
 12 14  1  0  0  0  0
 12 37  1  0  0  0  0
 12 38  1  0  0  0  0
 13 15  1  0  0  0  0
 13 39  1  0  0  0  0
 13 40  1  0  0  0  0
 14 16  1  0  0  0  0
 14 41  1  0  0  0  0
 14 42  1  0  0  0  0
 15 16  1  0  0  0  0
 15 43  1  0  0  0  0
 15 44  1  0  0  0  0
 16 45  1  0  0  0  0
 16 46  1  0  0  0  0
 17 18  2  0  0  0  0
 18 23  1  0  0  0  0
 18 26  1  0  0  0  0
 19 23  2  0  0  0  0
 19 47  1  0  0  0  0
 20 24  1  0  0  0  0
 20 48  1  0  0  0  0
 20 49  1  0  0  0  0
 21 25  1  0  0  0  0
 21 50  1  0  0  0  0
 21 51  1  0  0  0  0
 22 27  1  0  0  0  0
 23 52  1  0  0  0  0
 24 53  1  0  0  0  0
 24 54  1  0  0  0  0
 25 55  1  0  0  0  0
 25 56  1  0  0  0  0
 26 27  2  0  0  0  0
 26 28  1  0  0  0  0
 27 57  1  0  0  0  0
 28 30  2  0  0  0  0
 28 31  1  0  0  0  0
 29 58  1  0  0  0  0
 29 59  1  0  0  0  0
 29 60  1  0  0  0  0
 30 32  1  0  0  0  0
 30 61  1  0  0  0  0
 31 33  2  0  0  0  0
 31 62  1  0  0  0  0
 32 34  2  0  0  0  0
 32 63  1  0  0  0  0
 33 34  1  0  0  0  0
 33 64  1  0  0  0  0
 34 35  1  0  0  0  0
M  END
> <PUBCHEM_COMPOUND_CID>
127047536

> <PUBCHEM_COMPOUND_CANONICALIZED>
1

> <PUBCHEM_CACTVS_COMPLEXITY>
814

> <PUBCHEM_CACTVS_HBOND_ACCEPTOR>
8

> <PUBCHEM_CACTVS_HBOND_DONOR>
0

> <PUBCHEM_CACTVS_ROTATABLE_BOND>
4

> <PUBCHEM_CACTVS_SUBSKEYS>
AAADceB7sYBAAAAAAAAAAAAAAAAAAWAAAAA8eIEAAAAAAFgB/AAAHQQAQAAADADFWxS/sN8IEAKgAjJnZHDCgCkxAqAJ2CA4ZJiIaOLAmZGUIAhogALIyCcQgMAOwAAAAAAAAACAAAAAAAAAAAAAAAAAAA==

> <PUBCHEM_IUPAC_OPENEYE_NAME>
1-cyclohexylsulfonyl-6-(4-methylpiperazin-1-yl)-4-[4-(trifluoromethyl)phenyl]pyrrolo[2,3-b]pyridine

> <PUBCHEM_IUPAC_CAS_NAME>
1-cyclohexylsulfonyl-6-(4-methyl-1-piperazinyl)-4-[4-(trifluoromethyl)phenyl]pyrrolo[2,3-b]pyridine

> <PUBCHEM_IUPAC_NAME_MARKUP>
1-cyclohexylsulfonyl-6-(4-methylpiperazin-1-yl)-4-[4-(trifluoromethyl)phenyl]pyrrolo[2,3-b]pyridine

> <PUBCHEM_IUPAC_NAME>
1-cyclohexylsulfonyl-6-(4-methylpiperazin-1-yl)-4-[4-(trifluoromethyl)phenyl]pyrrolo[2,3-b]pyridine

> <PUBCHEM_IUPAC_SYSTEMATIC_NAME>
1-cyclohexylsulfonyl-6-(4-methylpiperazin-1-yl)-4-[4-(trifluoromethyl)phenyl]pyrrolo[2,3-b]pyridine

> <PUBCHEM_IUPAC_TRADITIONAL_NAME>
1-cyclohexylsulfonyl-6-(4-methylpiperazino)-4-[4-(trifluoromethyl)phenyl]pyrrolo[2,3-b]pyridine

> <PUBCHEM_IUPAC_INCHI>
InChI=1S/C25H29F3N4O2S/c1-30-13-15-31(16-14-30)23-17-22(18-7-9-19(10-8-18)25(26,27)28)21-11-12-32(24(21)29-23)35(33,34)20-5-3-2-4-6-20/h7-12,17,20H,2-6,13-16H2,1H3

> <PUBCHEM_IUPAC_INCHIKEY>
MAQJPWRPCIFRMT-UHFFFAOYSA-N

> <PUBCHEM_XLOGP3_AA>
5.5

> <PUBCHEM_EXACT_MASS>
506.19633184

> <PUBCHEM_MOLECULAR_FORMULA>
C25H29F3N4O2S

> <PUBCHEM_MOLECULAR_WEIGHT>
506.6

> <PUBCHEM_OPENEYE_CAN_SMILES>
CN1CCN(CC1)C2=NC3=C(C=CN3S(=O)(=O)C4CCCCC4)C(=C2)C5=CC=C(C=C5)C(F)(F)F

> <PUBCHEM_OPENEYE_ISO_SMILES>
CN1CCN(CC1)C2=NC3=C(C=CN3S(=O)(=O)C4CCCCC4)C(=C2)C5=CC=C(C=C5)C(F)(F)F

> <PUBCHEM_CACTVS_TPSA>
66.8

> <PUBCHEM_MONOISOTOPIC_WEIGHT>
506.19633184

> <PUBCHEM_TOTAL_CHARGE>
0

> <PUBCHEM_HEAVY_ATOM_COUNT>
35

> <PUBCHEM_ATOM_DEF_STEREO_COUNT>
0

> <PUBCHEM_ATOM_UDEF_STEREO_COUNT>
0

> <PUBCHEM_BOND_DEF_STEREO_COUNT>
0

> <PUBCHEM_BOND_UDEF_STEREO_COUNT>
0

> <PUBCHEM_ISOTOPIC_ATOM_COUNT>
0

> <PUBCHEM_COMPONENT_COUNT>
1

> <PUBCHEM_CACTVS_TAUTO_COUNT>
-1

> <PUBCHEM_COORDINATE_TYPE>
1
5
255

> <PUBCHEM_BONDANNOTATIONS>
10  17  8
10  22  8
17  18  8
18  23  8
18  26  8
19  23  8
22  27  8
26  27  8
28  30  8
28  31  8
30  32  8
31  33  8
32  34  8
33  34  8
7  17  8
7  19  8

$$$$
