11826673
  -OEChem-09292322122D

 63 65  0     0  0  0  0  0  0999 V2000
    9.0622    7.0000    0.0000 F   0  0  0  0  0  0  0  0  0  0  0  0
    8.0622    8.0000    0.0000 F   0  0  0  0  0  0  0  0  0  0  0  0
    7.0622    7.0000    0.0000 F   0  0  0  0  0  0  0  0  0  0  0  0
    2.8660   -6.0000    0.0000 O   0  0  0  0  0  0  0  0  0  0  0  0
    8.0622    1.0000    0.0000 O   0  0  0  0  0  0  0  0  0  0  0  0
    4.5981   -3.0000    0.0000 N   0  0  0  0  0  0  0  0  0  0  0  0
    4.5981   -5.0000    0.0000 N   0  0  0  0  0  0  0  0  0  0  0  0
    6.3301    1.0000    0.0000 N   0  0  0  0  0  0  0  0  0  0  0  0
    3.7320   -3.5000    0.0000 C   0  0  0  0  0  0  0  0  0  0  0  0
    5.4641   -3.5000    0.0000 C   0  0  0  0  0  0  0  0  0  0  0  0
    3.7320   -4.5000    0.0000 C   0  0  0  0  0  0  0  0  0  0  0  0
    5.4641   -4.5000    0.0000 C   0  0  0  0  0  0  0  0  0  0  0  0
    4.5981   -2.0000    0.0000 C   0  0  0  0  0  0  0  0  0  0  0  0
    5.4641   -1.5000    0.0000 C   0  0  0  0  0  0  0  0  0  0  0  0
    4.5981   -6.0000    0.0000 C   0  0  0  0  0  0  0  0  0  0  0  0
    5.4641   -0.5000    0.0000 C   0  0  0  0  0  0  0  0  0  0  0  0
    6.3301   -0.0000    0.0000 C   0  0  0  0  0  0  0  0  0  0  0  0
    3.7320   -6.5000    0.0000 C   0  0  0  0  0  0  0  0  0  0  0  0
    5.4641   -6.5000    0.0000 C   0  0  0  0  0  0  0  0  0  0  0  0
    3.7320   -7.5000    0.0000 C   0  0  0  0  0  0  0  0  0  0  0  0
    5.4641   -7.5000    0.0000 C   0  0  0  0  0  0  0  0  0  0  0  0
    4.5981   -8.0000    0.0000 C   0  0  0  0  0  0  0  0  0  0  0  0
    7.1962    1.5000    0.0000 C   0  0  0  0  0  0  0  0  0  0  0  0
    2.0000   -6.5000    0.0000 C   0  0  0  0  0  0  0  0  0  0  0  0
    7.1962    2.5000    0.0000 C   0  0  0  0  0  0  0  0  0  0  0  0
    8.0622    3.0000    0.0000 C   0  0  0  0  0  0  0  0  0  0  0  0
    8.0622    4.0000    0.0000 C   0  0  0  0  0  0  0  0  0  0  0  0
    7.1962    4.5000    0.0000 C   0  0  0  0  0  0  0  0  0  0  0  0
    8.9282    4.5000    0.0000 C   0  0  0  0  0  0  0  0  0  0  0  0
    8.0622    6.0000    0.0000 C   0  0  0  0  0  0  0  0  0  0  0  0
    7.1962    5.5000    0.0000 C   0  0  0  0  0  0  0  0  0  0  0  0
    8.9282    5.5000    0.0000 C   0  0  0  0  0  0  0  0  0  0  0  0
    8.0622    7.0000    0.0000 C   0  0  0  0  0  0  0  0  0  0  0  0
    3.5200   -2.9174    0.0000 H   0  0  0  0  0  0  0  0  0  0  0  0
    3.1215   -3.6077    0.0000 H   0  0  0  0  0  0  0  0  0  0  0  0
    6.0747   -3.6077    0.0000 H   0  0  0  0  0  0  0  0  0  0  0  0
    5.6762   -2.9174    0.0000 H   0  0  0  0  0  0  0  0  0  0  0  0
    3.1215   -4.3923    0.0000 H   0  0  0  0  0  0  0  0  0  0  0  0
    3.5200   -5.0826    0.0000 H   0  0  0  0  0  0  0  0  0  0  0  0
    5.6762   -5.0826    0.0000 H   0  0  0  0  0  0  0  0  0  0  0  0
    6.0747   -4.3923    0.0000 H   0  0  0  0  0  0  0  0  0  0  0  0
    4.3860   -1.4174    0.0000 H   0  0  0  0  0  0  0  0  0  0  0  0
    3.9875   -2.1077    0.0000 H   0  0  0  0  0  0  0  0  0  0  0  0
    5.6762   -2.0826    0.0000 H   0  0  0  0  0  0  0  0  0  0  0  0
    6.0747   -1.3923    0.0000 H   0  0  0  0  0  0  0  0  0  0  0  0
    5.2520    0.0826    0.0000 H   0  0  0  0  0  0  0  0  0  0  0  0
    4.8535   -0.6077    0.0000 H   0  0  0  0  0  0  0  0  0  0  0  0
    6.5422   -0.5826    0.0000 H   0  0  0  0  0  0  0  0  0  0  0  0
    6.9407    0.1077    0.0000 H   0  0  0  0  0  0  0  0  0  0  0  0
    6.0010   -6.1900    0.0000 H   0  0  0  0  0  0  0  0  0  0  0  0
    3.1951   -7.8100    0.0000 H   0  0  0  0  0  0  0  0  0  0  0  0
    6.0010   -7.8100    0.0000 H   0  0  0  0  0  0  0  0  0  0  0  0
    5.7932    1.3100    0.0000 H   0  0  0  0  0  0  0  0  0  0  0  0
    4.5981   -8.6200    0.0000 H   0  0  0  0  0  0  0  0  0  0  0  0
    1.6900   -5.9631    0.0000 H   0  0  0  0  0  0  0  0  0  0  0  0
    1.4631   -6.8100    0.0000 H   0  0  0  0  0  0  0  0  0  0  0  0
    2.3100   -7.0369    0.0000 H   0  0  0  0  0  0  0  0  0  0  0  0
    6.6592    2.8100    0.0000 H   0  0  0  0  0  0  0  0  0  0  0  0
    8.5991    2.6900    0.0000 H   0  0  0  0  0  0  0  0  0  0  0  0
    6.6592    4.1900    0.0000 H   0  0  0  0  0  0  0  0  0  0  0  0
    9.4651    4.1900    0.0000 H   0  0  0  0  0  0  0  0  0  0  0  0
    6.6592    5.8100    0.0000 H   0  0  0  0  0  0  0  0  0  0  0  0
    9.4651    5.8100    0.0000 H   0  0  0  0  0  0  0  0  0  0  0  0
  1 33  1  0  0  0  0
  2 33  1  0  0  0  0
  3 33  1  0  0  0  0
  4 18  1  0  0  0  0
  4 24  1  0  0  0  0
  5 23  2  0  0  0  0
  6  9  1  0  0  0  0
  6 10  1  0  0  0  0
  6 13  1  0  0  0  0
  7 11  1  0  0  0  0
  7 12  1  0  0  0  0
  7 15  1  0  0  0  0
  8 17  1  0  0  0  0
  8 23  1  0  0  0  0
  8 53  1  0  0  0  0
  9 11  1  0  0  0  0
  9 34  1  0  0  0  0
  9 35  1  0  0  0  0
 10 12  1  0  0  0  0
 10 36  1  0  0  0  0
 10 37  1  0  0  0  0
 11 38  1  0  0  0  0
 11 39  1  0  0  0  0
 12 40  1  0  0  0  0
 12 41  1  0  0  0  0
 13 14  1  0  0  0  0
 13 42  1  0  0  0  0
 13 43  1  0  0  0  0
 14 16  1  0  0  0  0
 14 44  1  0  0  0  0
 14 45  1  0  0  0  0
 15 18  1  0  0  0  0
 15 19  2  0  0  0  0
 16 17  1  0  0  0  0
 16 46  1  0  0  0  0
 16 47  1  0  0  0  0
 17 48  1  0  0  0  0
 17 49  1  0  0  0  0
 18 20  2  0  0  0  0
 19 21  1  0  0  0  0
 19 50  1  0  0  0  0
 20 22  1  0  0  0  0
 20 51  1  0  0  0  0
 21 22  2  0  0  0  0
 21 52  1  0  0  0  0
 22 54  1  0  0  0  0
 23 25  1  0  0  0  0
 24 55  1  0  0  0  0
 24 56  1  0  0  0  0
 24 57  1  0  0  0  0
 25 26  2  0  0  0  0
 25 58  1  0  0  0  0
 26 27  1  0  0  0  0
 26 59  1  0  0  0  0
 27 28  2  0  0  0  0
 27 29  1  0  0  0  0
 28 31  1  0  0  0  0
 28 60  1  0  0  0  0
 29 32  2  0  0  0  0
 29 61  1  0  0  0  0
 30 31  2  0  0  0  0
 30 32  1  0  0  0  0
 30 33  1  0  0  0  0
 31 62  1  0  0  0  0
 32 63  1  0  0  0  0
M  END
> <PUBCHEM_COMPOUND_CID>
11826673

> <PUBCHEM_COMPOUND_CANONICALIZED>
1

> <PUBCHEM_CACTVS_COMPLEXITY>
613

> <PUBCHEM_CACTVS_HBOND_ACCEPTOR>
7

> <PUBCHEM_CACTVS_HBOND_DONOR>
1

> <PUBCHEM_CACTVS_ROTATABLE_BOND>
9

> <PUBCHEM_CACTVS_SUBSKEYS>
AAADceB7MYAAAAAAAAAAAAAAAAAAAAAAAAA8YIAAAAAAAAABQAAAHwAQAAAADAzBmBYyxoPABACIAiVSUACCCAAhIgAIiIAPbMgOZiLEsZuVMChk1hHY6YeQwAAOQAAAAAAAEACAAAAAAAAgAAAAAAAAAA==

> <PUBCHEM_IUPAC_OPENEYE_NAME>
(E)-N-[4-[4-(2-methoxyphenyl)piperazin-1-yl]butyl]-3-[4-(trifluoromethyl)phenyl]prop-2-enamide

> <PUBCHEM_IUPAC_CAS_NAME>
(E)-N-[4-[4-(2-methoxyphenyl)-1-piperazinyl]butyl]-3-[4-(trifluoromethyl)phenyl]-2-propenamide

> <PUBCHEM_IUPAC_NAME_MARKUP>
(<I>E</I>)-<I>N</I>-[4-[4-(2-methoxyphenyl)piperazin-1-yl]butyl]-3-[4-(trifluoromethyl)phenyl]prop-2-enamide

> <PUBCHEM_IUPAC_NAME>
(E)-N-[4-[4-(2-methoxyphenyl)piperazin-1-yl]butyl]-3-[4-(trifluoromethyl)phenyl]prop-2-enamide

> <PUBCHEM_IUPAC_SYSTEMATIC_NAME>
(E)-N-[4-[4-(2-methoxyphenyl)piperazin-1-yl]butyl]-3-[4-(trifluoromethyl)phenyl]prop-2-enamide

> <PUBCHEM_IUPAC_TRADITIONAL_NAME>
(E)-N-[4-[4-(2-methoxyphenyl)piperazino]butyl]-3-[4-(trifluoromethyl)phenyl]acrylamide

> <PUBCHEM_IUPAC_INCHI>
InChI=1S/C25H30F3N3O2/c1-33-23-7-3-2-6-22(23)31-18-16-30(17-19-31)15-5-4-14-29-24(32)13-10-20-8-11-21(12-9-20)25(26,27)28/h2-3,6-13H,4-5,14-19H2,1H3,(H,29,32)/b13-10+

> <PUBCHEM_IUPAC_INCHIKEY>
SJUYCGYJRSRZHG-JLHYYAGUSA-N

> <PUBCHEM_XLOGP3_AA>
4.8

> <PUBCHEM_EXACT_MASS>
461.22901169

> <PUBCHEM_MOLECULAR_FORMULA>
C25H30F3N3O2

> <PUBCHEM_MOLECULAR_WEIGHT>
461.5

> <PUBCHEM_OPENEYE_CAN_SMILES>
COC1=CC=CC=C1N2CCN(CC2)CCCCNC(=O)C=CC3=CC=C(C=C3)C(F)(F)F

> <PUBCHEM_OPENEYE_ISO_SMILES>
COC1=CC=CC=C1N2CCN(CC2)CCCCNC(=O)/C=C/C3=CC=C(C=C3)C(F)(F)F

> <PUBCHEM_CACTVS_TPSA>
44.8

> <PUBCHEM_MONOISOTOPIC_WEIGHT>
461.22901169

> <PUBCHEM_TOTAL_CHARGE>
0

> <PUBCHEM_HEAVY_ATOM_COUNT>
33

> <PUBCHEM_ATOM_DEF_STEREO_COUNT>
0

> <PUBCHEM_ATOM_UDEF_STEREO_COUNT>
0

> <PUBCHEM_BOND_DEF_STEREO_COUNT>
1

> <PUBCHEM_BOND_UDEF_STEREO_COUNT>
0

> <PUBCHEM_ISOTOPIC_ATOM_COUNT>
0

> <PUBCHEM_COMPONENT_COUNT>
1

> <PUBCHEM_CACTVS_TAUTO_COUNT>
-1

> <PUBCHEM_COORDINATE_TYPE>
1
5
255

> <PUBCHEM_BONDANNOTATIONS>
15  18  8
15  19  8
18  20  8
19  21  8
20  22  8
21  22  8
27  28  8
27  29  8
28  31  8
29  32  8
30  31  8
30  32  8

$$$$
