66801551
  -OEChem-09292322082D

 62 66  0     0  0  0  0  0  0999 V2000
    7.1279    2.5079    0.0000 S   0  0  0  0  0  0  0  0  0  0  0  0
    5.5443    1.7032    0.0000 S   0  0  0  0  0  0  0  0  0  0  0  0
   16.9682   -3.7233    0.0000 F   0  0  0  0  0  0  0  0  0  0  0  0
    2.0000    3.5079    0.0000 F   0  0  0  0  0  0  0  0  0  0  0  0
   13.4598   -4.2631    0.0000 O   0  0  0  0  0  0  0  0  0  0  0  0
    7.1279    1.5079    0.0000 O   0  0  0  0  0  0  0  0  0  0  0  0
    7.1279    3.5079    0.0000 O   0  0  0  0  0  0  0  0  0  0  0  0
   11.6279   -0.0902    0.0000 N   0  0  0  0  0  0  0  0  0  0  0  0
   12.7228   -3.5960    0.0000 N   0  0  0  0  0  0  0  0  0  0  0  0
    8.1279    2.5079    0.0000 N   0  0  0  0  0  0  0  0  0  0  0  0
   12.6279   -1.8222    0.0000 C   0  0  0  0  0  0  0  0  0  0  0  0
   11.6279   -1.8222    0.0000 C   0  0  0  0  0  0  0  0  0  0  0  0
   13.1279   -0.9562    0.0000 C   0  0  0  0  0  0  0  0  0  0  0  0
   11.1279   -0.9562    0.0000 C   0  0  0  0  0  0  0  0  0  0  0  0
   12.6279   -0.0902    0.0000 C   0  0  0  0  0  0  0  0  0  0  0  0
   11.1279    0.7758    0.0000 C   0  0  0  0  0  0  0  0  0  0  0  0
   13.1279   -2.6883    0.0000 C   0  0  0  0  0  0  0  0  0  0  0  0
   10.1279    0.7758    0.0000 C   0  0  0  0  0  0  0  0  0  0  0  0
   14.1166   -2.7913    0.0000 C   0  0  0  0  0  0  0  0  0  0  0  0
    9.6279    1.6419    0.0000 C   0  0  0  0  0  0  0  0  0  0  0  0
    8.6279    1.6419    0.0000 C   0  0  0  0  0  0  0  0  0  0  0  0
   14.3228   -3.7698    0.0000 C   0  0  0  0  0  0  0  0  0  0  0  0
   14.8609   -2.1235    0.0000 C   0  0  0  0  0  0  0  0  0  0  0  0
   15.2734   -4.0805    0.0000 C   0  0  0  0  0  0  0  0  0  0  0  0
   15.8115   -2.4341    0.0000 C   0  0  0  0  0  0  0  0  0  0  0  0
   16.0177   -3.4126    0.0000 C   0  0  0  0  0  0  0  0  0  0  0  0
    6.1279    2.5079    0.0000 C   0  0  0  0  0  0  0  0  0  0  0  0
    5.5443    3.3126    0.0000 C   0  0  0  0  0  0  0  0  0  0  0  0
    4.5981    3.0079    0.0000 C   0  0  0  0  0  0  0  0  0  0  0  0
    4.5981    2.0079    0.0000 C   0  0  0  0  0  0  0  0  0  0  0  0
    5.8550    4.2631    0.0000 C   0  0  0  0  0  0  0  0  0  0  0  0
    3.7320    3.5079    0.0000 C   0  0  0  0  0  0  0  0  0  0  0  0
    3.7320    1.5079    0.0000 C   0  0  0  0  0  0  0  0  0  0  0  0
    2.8660    3.0079    0.0000 C   0  0  0  0  0  0  0  0  0  0  0  0
    2.8660    2.0079    0.0000 C   0  0  0  0  0  0  0  0  0  0  0  0
   13.2479   -1.8222    0.0000 H   0  0  0  0  0  0  0  0  0  0  0  0
   11.0453   -2.0343    0.0000 H   0  0  0  0  0  0  0  0  0  0  0  0
   11.7356   -2.4328    0.0000 H   0  0  0  0  0  0  0  0  0  0  0  0
   13.6029   -1.3547    0.0000 H   0  0  0  0  0  0  0  0  0  0  0  0
   13.6029   -0.5577    0.0000 H   0  0  0  0  0  0  0  0  0  0  0  0
   10.6530   -0.5577    0.0000 H   0  0  0  0  0  0  0  0  0  0  0  0
   10.6530   -1.3547    0.0000 H   0  0  0  0  0  0  0  0  0  0  0  0
   13.2105    0.1219    0.0000 H   0  0  0  0  0  0  0  0  0  0  0  0
   12.5202    0.5204    0.0000 H   0  0  0  0  0  0  0  0  0  0  0  0
   11.7105    0.9879    0.0000 H   0  0  0  0  0  0  0  0  0  0  0  0
   11.0202    1.3864    0.0000 H   0  0  0  0  0  0  0  0  0  0  0  0
    9.5453    0.5638    0.0000 H   0  0  0  0  0  0  0  0  0  0  0  0
   10.2356    0.1653    0.0000 H   0  0  0  0  0  0  0  0  0  0  0  0
   10.2105    1.8539    0.0000 H   0  0  0  0  0  0  0  0  0  0  0  0
    9.5202    2.2524    0.0000 H   0  0  0  0  0  0  0  0  0  0  0  0
    8.0453    1.4298    0.0000 H   0  0  0  0  0  0  0  0  0  0  0  0
    8.7356    1.0313    0.0000 H   0  0  0  0  0  0  0  0  0  0  0  0
   14.7331   -1.5168    0.0000 H   0  0  0  0  0  0  0  0  0  0  0  0
    8.4379    3.0448    0.0000 H   0  0  0  0  0  0  0  0  0  0  0  0
   15.4012   -4.6872    0.0000 H   0  0  0  0  0  0  0  0  0  0  0  0
   16.2729   -2.0201    0.0000 H   0  0  0  0  0  0  0  0  0  0  0  0
    6.4443    4.0705    0.0000 H   0  0  0  0  0  0  0  0  0  0  0  0
    6.0476    4.8525    0.0000 H   0  0  0  0  0  0  0  0  0  0  0  0
    5.2656    4.4558    0.0000 H   0  0  0  0  0  0  0  0  0  0  0  0
    3.7320    4.1279    0.0000 H   0  0  0  0  0  0  0  0  0  0  0  0
    3.7320    0.8879    0.0000 H   0  0  0  0  0  0  0  0  0  0  0  0
    2.3291    1.6979    0.0000 H   0  0  0  0  0  0  0  0  0  0  0  0
  1  6  2  0  0  0  0
  1  7  2  0  0  0  0
  1 10  1  0  0  0  0
  1 27  1  0  0  0  0
  2 27  1  0  0  0  0
  2 30  1  0  0  0  0
  3 26  1  0  0  0  0
  4 34  1  0  0  0  0
  5  9  1  0  0  0  0
  5 22  1  0  0  0  0
  8 14  1  0  0  0  0
  8 15  1  0  0  0  0
  8 16  1  0  0  0  0
  9 17  2  0  0  0  0
 10 21  1  0  0  0  0
 10 54  1  0  0  0  0
 11 12  1  0  0  0  0
 11 13  1  0  0  0  0
 11 17  1  0  0  0  0
 11 36  1  0  0  0  0
 12 14  1  0  0  0  0
 12 37  1  0  0  0  0
 12 38  1  0  0  0  0
 13 15  1  0  0  0  0
 13 39  1  0  0  0  0
 13 40  1  0  0  0  0
 14 41  1  0  0  0  0
 14 42  1  0  0  0  0
 15 43  1  0  0  0  0
 15 44  1  0  0  0  0
 16 18  1  0  0  0  0
 16 45  1  0  0  0  0
 16 46  1  0  0  0  0
 17 19  1  0  0  0  0
 18 20  1  0  0  0  0
 18 47  1  0  0  0  0
 18 48  1  0  0  0  0
 19 22  2  0  0  0  0
 19 23  1  0  0  0  0
 20 21  1  0  0  0  0
 20 49  1  0  0  0  0
 20 50  1  0  0  0  0
 21 51  1  0  0  0  0
 21 52  1  0  0  0  0
 22 24  1  0  0  0  0
 23 25  2  0  0  0  0
 23 53  1  0  0  0  0
 24 26  2  0  0  0  0
 24 55  1  0  0  0  0
 25 26  1  0  0  0  0
 25 56  1  0  0  0  0
 27 28  2  0  0  0  0
 28 29  1  0  0  0  0
 28 31  1  0  0  0  0
 29 30  2  0  0  0  0
 29 32  1  0  0  0  0
 30 33  1  0  0  0  0
 31 57  1  0  0  0  0
 31 58  1  0  0  0  0
 31 59  1  0  0  0  0
 32 34  2  0  0  0  0
 32 60  1  0  0  0  0
 33 35  2  0  0  0  0
 33 61  1  0  0  0  0
 34 35  1  0  0  0  0
 35 62  1  0  0  0  0
M  END
> <PUBCHEM_COMPOUND_CID>
66801551

> <PUBCHEM_COMPOUND_CANONICALIZED>
1

> <PUBCHEM_CACTVS_COMPLEXITY>
808

> <PUBCHEM_CACTVS_HBOND_ACCEPTOR>
9

> <PUBCHEM_CACTVS_HBOND_DONOR>
1

> <PUBCHEM_CACTVS_ROTATABLE_BOND>
8

> <PUBCHEM_CACTVS_SUBSKEYS>
AAADceB7MYBgAAAAAAAAAAAAAAAAAWJAAAA8YIAAAAAAAFgB/gAAHwQUQAAADQzB3gwyh9NQAAqtA6RyQnDDAZAkKBBomLk+TNoIJrqglZOEMYBm0BmoyceYyOCOgAAAAAAMAAAAAAAAABgAAAAAAAAAAA==

> <PUBCHEM_IUPAC_OPENEYE_NAME>
5-fluoro-N-[4-[4-(6-fluoro-1,2-benzoxazol-3-yl)-1-piperidyl]butyl]-3-methyl-benzothiophene-2-sulfonamide

> <PUBCHEM_IUPAC_CAS_NAME>
5-fluoro-N-[4-[4-(6-fluoro-1,2-benzoxazol-3-yl)-1-piperidinyl]butyl]-3-methyl-1-benzothiophene-2-sulfonamide

> <PUBCHEM_IUPAC_NAME_MARKUP>
5-fluoro-<I>N</I>-[4-[4-(6-fluoro-1,2-benzoxazol-3-yl)piperidin-1-yl]butyl]-3-methyl-1-benzothiophene-2-sulfonamide

> <PUBCHEM_IUPAC_NAME>
5-fluoro-N-[4-[4-(6-fluoro-1,2-benzoxazol-3-yl)piperidin-1-yl]butyl]-3-methyl-1-benzothiophene-2-sulfonamide

> <PUBCHEM_IUPAC_SYSTEMATIC_NAME>
5-fluoranyl-N-[4-[4-(6-fluoranyl-1,2-benzoxazol-3-yl)piperidin-1-yl]butyl]-3-methyl-1-benzothiophene-2-sulfonamide

> <PUBCHEM_IUPAC_TRADITIONAL_NAME>
5-fluoro-N-[4-[4-(6-fluoroindoxazen-3-yl)piperidino]butyl]-3-methyl-benzothiophene-2-sulfonamide

> <PUBCHEM_IUPAC_INCHI>
InChI=1S/C25H27F2N3O3S2/c1-16-21-14-18(26)5-7-23(21)34-25(16)35(31,32)28-10-2-3-11-30-12-8-17(9-13-30)24-20-6-4-19(27)15-22(20)33-29-24/h4-7,14-15,17,28H,2-3,8-13H2,1H3

> <PUBCHEM_IUPAC_INCHIKEY>
GCGNPPCFOWHEEJ-UHFFFAOYSA-N

> <PUBCHEM_XLOGP3_AA>
5.6

> <PUBCHEM_EXACT_MASS>
519.14619040

> <PUBCHEM_MOLECULAR_FORMULA>
C25H27F2N3O3S2

> <PUBCHEM_MOLECULAR_WEIGHT>
519.6

> <PUBCHEM_OPENEYE_CAN_SMILES>
CC1=C(SC2=C1C=C(C=C2)F)S(=O)(=O)NCCCCN3CCC(CC3)C4=NOC5=C4C=CC(=C5)F

> <PUBCHEM_OPENEYE_ISO_SMILES>
CC1=C(SC2=C1C=C(C=C2)F)S(=O)(=O)NCCCCN3CCC(CC3)C4=NOC5=C4C=CC(=C5)F

> <PUBCHEM_CACTVS_TPSA>
112

> <PUBCHEM_MONOISOTOPIC_WEIGHT>
519.14619040

> <PUBCHEM_TOTAL_CHARGE>
0

> <PUBCHEM_HEAVY_ATOM_COUNT>
35

> <PUBCHEM_ATOM_DEF_STEREO_COUNT>
0

> <PUBCHEM_ATOM_UDEF_STEREO_COUNT>
0

> <PUBCHEM_BOND_DEF_STEREO_COUNT>
0

> <PUBCHEM_BOND_UDEF_STEREO_COUNT>
0

> <PUBCHEM_ISOTOPIC_ATOM_COUNT>
0

> <PUBCHEM_COMPONENT_COUNT>
1

> <PUBCHEM_CACTVS_TAUTO_COUNT>
-1

> <PUBCHEM_COORDINATE_TYPE>
1
5
255

> <PUBCHEM_BONDANNOTATIONS>
17  19  8
19  22  8
19  23  8
2  27  8
2  30  8
22  24  8
23  25  8
24  26  8
25  26  8
27  28  8
28  29  8
29  30  8
29  32  8
30  33  8
32  34  8
33  35  8
34  35  8
5  22  8
5  9  8
9  17  8

$$$$
