11697270
  -OEChem-09292322272D

 59 63  0     0  0  0  0  0  0999 V2000
   10.6279    2.0000    0.0000 O   0  0  0  0  0  0  0  0  0  0  0  0
    7.6279    0.2679    0.0000 N   0  0  0  0  0  0  0  0  0  0  0  0
    8.6279    2.0000    0.0000 N   0  0  0  0  0  0  0  0  0  0  0  0
    4.5981   -0.0981    0.0000 N   0  0  0  0  0  0  0  0  0  0  0  0
    5.5443   -1.4028    0.0000 N   0  0  0  0  0  0  0  0  0  0  0  0
    7.1279    1.1340    0.0000 C   0  0  0  0  0  0  0  0  0  0  0  0
    8.6279    0.2679    0.0000 C   0  0  0  0  0  0  0  0  0  0  0  0
    7.6279    2.0000    0.0000 C   0  0  0  0  0  0  0  0  0  0  0  0
    9.1279    1.1340    0.0000 C   0  0  0  0  0  0  0  0  0  0  0  0
    7.1279   -0.5981    0.0000 C   0  0  0  0  0  0  0  0  0  0  0  0
    9.1279    2.8660    0.0000 C   0  0  0  0  0  0  0  0  0  0  0  0
    6.1279   -0.5981    0.0000 C   0  0  0  0  0  0  0  0  0  0  0  0
    5.5443    0.2067    0.0000 C   0  0  0  0  0  0  0  0  0  0  0  0
    4.5981   -1.0981    0.0000 C   0  0  0  0  0  0  0  0  0  0  0  0
   10.1279    2.8660    0.0000 C   0  0  0  0  0  0  0  0  0  0  0  0
    8.6279    3.7320    0.0000 C   0  0  0  0  0  0  0  0  0  0  0  0
    3.7320   -1.5981    0.0000 C   0  0  0  0  0  0  0  0  0  0  0  0
    3.7320    0.4019    0.0000 C   0  0  0  0  0  0  0  0  0  0  0  0
    2.8660   -0.0981    0.0000 C   0  0  0  0  0  0  0  0  0  0  0  0
    2.8660   -1.0981    0.0000 C   0  0  0  0  0  0  0  0  0  0  0  0
   10.6279    3.7320    0.0000 C   0  0  0  0  0  0  0  0  0  0  0  0
    9.1279    4.5981    0.0000 C   0  0  0  0  0  0  0  0  0  0  0  0
    3.7320   -2.5981    0.0000 C   0  0  0  0  0  0  0  0  0  0  0  0
   10.1279    4.5981    0.0000 C   0  0  0  0  0  0  0  0  0  0  0  0
    2.0000    0.4019    0.0000 C   0  0  0  0  0  0  0  0  0  0  0  0
    4.5981   -3.0981    0.0000 C   0  0  0  0  0  0  0  0  0  0  0  0
    2.8660   -3.0981    0.0000 C   0  0  0  0  0  0  0  0  0  0  0  0
   11.6279    2.0000    0.0000 C   0  0  0  0  0  0  0  0  0  0  0  0
    4.5981   -4.0981    0.0000 C   0  0  0  0  0  0  0  0  0  0  0  0
    2.8660   -4.0981    0.0000 C   0  0  0  0  0  0  0  0  0  0  0  0
    3.7320   -4.5981    0.0000 C   0  0  0  0  0  0  0  0  0  0  0  0
    6.6530    1.5325    0.0000 H   0  0  0  0  0  0  0  0  0  0  0  0
    6.6530    0.7354    0.0000 H   0  0  0  0  0  0  0  0  0  0  0  0
    8.5202   -0.3426    0.0000 H   0  0  0  0  0  0  0  0  0  0  0  0
    9.2105    0.0559    0.0000 H   0  0  0  0  0  0  0  0  0  0  0  0
    7.7356    2.6106    0.0000 H   0  0  0  0  0  0  0  0  0  0  0  0
    7.0453    2.2120    0.0000 H   0  0  0  0  0  0  0  0  0  0  0  0
    9.6028    0.7354    0.0000 H   0  0  0  0  0  0  0  0  0  0  0  0
    9.6028    1.5325    0.0000 H   0  0  0  0  0  0  0  0  0  0  0  0
    7.0202   -1.2087    0.0000 H   0  0  0  0  0  0  0  0  0  0  0  0
    7.7105   -0.8101    0.0000 H   0  0  0  0  0  0  0  0  0  0  0  0
    5.7369    0.7960    0.0000 H   0  0  0  0  0  0  0  0  0  0  0  0
    8.0079    3.7320    0.0000 H   0  0  0  0  0  0  0  0  0  0  0  0
    3.7320    1.0219    0.0000 H   0  0  0  0  0  0  0  0  0  0  0  0
    2.3291   -1.4081    0.0000 H   0  0  0  0  0  0  0  0  0  0  0  0
   11.2479    3.7320    0.0000 H   0  0  0  0  0  0  0  0  0  0  0  0
    8.8179    5.1350    0.0000 H   0  0  0  0  0  0  0  0  0  0  0  0
   10.4379    5.1350    0.0000 H   0  0  0  0  0  0  0  0  0  0  0  0
    2.3100    0.9389    0.0000 H   0  0  0  0  0  0  0  0  0  0  0  0
    1.4631    0.7119    0.0000 H   0  0  0  0  0  0  0  0  0  0  0  0
    1.6900   -0.1350    0.0000 H   0  0  0  0  0  0  0  0  0  0  0  0
    5.1350   -2.7881    0.0000 H   0  0  0  0  0  0  0  0  0  0  0  0
    2.3291   -2.7881    0.0000 H   0  0  0  0  0  0  0  0  0  0  0  0
   11.6279    1.3800    0.0000 H   0  0  0  0  0  0  0  0  0  0  0  0
   12.2479    2.0000    0.0000 H   0  0  0  0  0  0  0  0  0  0  0  0
   11.6279    2.6200    0.0000 H   0  0  0  0  0  0  0  0  0  0  0  0
    5.1350   -4.4081    0.0000 H   0  0  0  0  0  0  0  0  0  0  0  0
    2.3291   -4.4081    0.0000 H   0  0  0  0  0  0  0  0  0  0  0  0
    3.7320   -5.2181    0.0000 H   0  0  0  0  0  0  0  0  0  0  0  0
  1 15  1  0  0  0  0
  1 28  1  0  0  0  0
  2  6  1  0  0  0  0
  2  7  1  0  0  0  0
  2 10  1  0  0  0  0
  3  8  1  0  0  0  0
  3  9  1  0  0  0  0
  3 11  1  0  0  0  0
  4 13  1  0  0  0  0
  4 14  1  0  0  0  0
  4 18  1  0  0  0  0
  5 12  1  0  0  0  0
  5 14  2  0  0  0  0
  6  8  1  0  0  0  0
  6 32  1  0  0  0  0
  6 33  1  0  0  0  0
  7  9  1  0  0  0  0
  7 34  1  0  0  0  0
  7 35  1  0  0  0  0
  8 36  1  0  0  0  0
  8 37  1  0  0  0  0
  9 38  1  0  0  0  0
  9 39  1  0  0  0  0
 10 12  1  0  0  0  0
 10 40  1  0  0  0  0
 10 41  1  0  0  0  0
 11 15  1  0  0  0  0
 11 16  2  0  0  0  0
 12 13  2  0  0  0  0
 13 42  1  0  0  0  0
 14 17  1  0  0  0  0
 15 21  2  0  0  0  0
 16 22  1  0  0  0  0
 16 43  1  0  0  0  0
 17 20  2  0  0  0  0
 17 23  1  0  0  0  0
 18 19  2  0  0  0  0
 18 44  1  0  0  0  0
 19 20  1  0  0  0  0
 19 25  1  0  0  0  0
 20 45  1  0  0  0  0
 21 24  1  0  0  0  0
 21 46  1  0  0  0  0
 22 24  2  0  0  0  0
 22 47  1  0  0  0  0
 23 26  2  0  0  0  0
 23 27  1  0  0  0  0
 24 48  1  0  0  0  0
 25 49  1  0  0  0  0
 25 50  1  0  0  0  0
 25 51  1  0  0  0  0
 26 29  1  0  0  0  0
 26 52  1  0  0  0  0
 27 30  2  0  0  0  0
 27 53  1  0  0  0  0
 28 54  1  0  0  0  0
 28 55  1  0  0  0  0
 28 56  1  0  0  0  0
 29 31  2  0  0  0  0
 29 57  1  0  0  0  0
 30 31  1  0  0  0  0
 30 58  1  0  0  0  0
 31 59  1  0  0  0  0
M  END
> <PUBCHEM_COMPOUND_CID>
11697270

> <PUBCHEM_COMPOUND_CANONICALIZED>
1

> <PUBCHEM_CACTVS_COMPLEXITY>
560

> <PUBCHEM_CACTVS_HBOND_ACCEPTOR>
4

> <PUBCHEM_CACTVS_HBOND_DONOR>
0

> <PUBCHEM_CACTVS_ROTATABLE_BOND>
5

> <PUBCHEM_CACTVS_SUBSKEYS>
AAADceB7oAAAAAAAAAAAAAAAAAAAAWAAAAA8eIEAAAAAAFgB9AAAHgAAAAAADAzBnwY/9p8MHACgAzZnZACCiC0xMqAJ2CA/fJiObuLE+ZuVMChswBPY6CeQwMAOgAAAAAAAEAAAAAAAAAAgAAAAAAAAAA==

> <PUBCHEM_IUPAC_OPENEYE_NAME>
2-[[4-(2-methoxyphenyl)piperazin-1-yl]methyl]-6-methyl-8-phenyl-imidazo[1,2-a]pyridine

> <PUBCHEM_IUPAC_CAS_NAME>
2-[[4-(2-methoxyphenyl)-1-piperazinyl]methyl]-6-methyl-8-phenylimidazo[1,2-a]pyridine

> <PUBCHEM_IUPAC_NAME_MARKUP>
2-[[4-(2-methoxyphenyl)piperazin-1-yl]methyl]-6-methyl-8-phenylimidazo[1,2-a]pyridine

> <PUBCHEM_IUPAC_NAME>
2-[[4-(2-methoxyphenyl)piperazin-1-yl]methyl]-6-methyl-8-phenylimidazo[1,2-a]pyridine

> <PUBCHEM_IUPAC_SYSTEMATIC_NAME>
2-[[4-(2-methoxyphenyl)piperazin-1-yl]methyl]-6-methyl-8-phenyl-imidazo[1,2-a]pyridine

> <PUBCHEM_IUPAC_TRADITIONAL_NAME>
2-[[4-(2-methoxyphenyl)piperazino]methyl]-6-methyl-8-phenyl-imidazo[1,2-a]pyridine

> <PUBCHEM_IUPAC_INCHI>
InChI=1S/C26H28N4O/c1-20-16-23(21-8-4-3-5-9-21)26-27-22(19-30(26)17-20)18-28-12-14-29(15-13-28)24-10-6-7-11-25(24)31-2/h3-11,16-17,19H,12-15,18H2,1-2H3

> <PUBCHEM_IUPAC_INCHIKEY>
LNEZIIGVFFLLQU-UHFFFAOYSA-N

> <PUBCHEM_XLOGP3_AA>
5.2

> <PUBCHEM_EXACT_MASS>
412.22631153

> <PUBCHEM_MOLECULAR_FORMULA>
C26H28N4O

> <PUBCHEM_MOLECULAR_WEIGHT>
412.5

> <PUBCHEM_OPENEYE_CAN_SMILES>
CC1=CN2C=C(N=C2C(=C1)C3=CC=CC=C3)CN4CCN(CC4)C5=CC=CC=C5OC

> <PUBCHEM_OPENEYE_ISO_SMILES>
CC1=CN2C=C(N=C2C(=C1)C3=CC=CC=C3)CN4CCN(CC4)C5=CC=CC=C5OC

> <PUBCHEM_CACTVS_TPSA>
33

> <PUBCHEM_MONOISOTOPIC_WEIGHT>
412.22631153

> <PUBCHEM_TOTAL_CHARGE>
0

> <PUBCHEM_HEAVY_ATOM_COUNT>
31

> <PUBCHEM_ATOM_DEF_STEREO_COUNT>
0

> <PUBCHEM_ATOM_UDEF_STEREO_COUNT>
0

> <PUBCHEM_BOND_DEF_STEREO_COUNT>
0

> <PUBCHEM_BOND_UDEF_STEREO_COUNT>
0

> <PUBCHEM_ISOTOPIC_ATOM_COUNT>
0

> <PUBCHEM_COMPONENT_COUNT>
1

> <PUBCHEM_CACTVS_TAUTO_COUNT>
-1

> <PUBCHEM_COORDINATE_TYPE>
1
5
255

> <PUBCHEM_BONDANNOTATIONS>
11  15  8
11  16  8
12  13  8
14  17  8
15  21  8
16  22  8
17  20  8
18  19  8
19  20  8
21  24  8
22  24  8
23  26  8
23  27  8
26  29  8
27  30  8
29  31  8
30  31  8
4  13  8
4  14  8
4  18  8
5  12  8
5  14  8

$$$$
