53324045
  -OEChem-09292322392D

 63 66  0     0  0  0  0  0  0999 V2000
    4.5981   -5.8971    0.0000 Cl  0  0  0  0  0  0  0  0  0  0  0  0
    2.0000   -5.3971    0.0000 F   0  0  0  0  0  0  0  0  0  0  0  0
    2.3660   -4.0311    0.0000 F   0  0  0  0  0  0  0  0  0  0  0  0
    3.3660   -5.7631    0.0000 F   0  0  0  0  0  0  0  0  0  0  0  0
    3.7320   -2.3971    0.0000 O   0  0  0  0  0  0  0  0  0  0  0  0
    5.5981   -0.1651    0.0000 N   0  0  0  0  0  0  0  0  0  0  0  0
    4.5981   -1.8971    0.0000 C   0  0  0  0  0  0  0  0  0  0  0  0
    4.0981   -1.0311    0.0000 C   0  0  0  0  0  0  0  0  0  0  0  0
    5.5981   -1.8971    0.0000 C   0  0  0  0  0  0  0  0  0  0  0  0
    4.5981   -0.1651    0.0000 C   0  0  0  0  0  0  0  0  0  0  0  0
    6.0981   -1.0311    0.0000 C   0  0  0  0  0  0  0  0  0  0  0  0
    6.0981    0.7010    0.0000 C   0  0  0  0  0  0  0  0  0  0  0  0
    4.5981   -2.8971    0.0000 C   0  0  0  0  0  0  0  0  0  0  0  0
    5.5981    1.5670    0.0000 C   0  0  0  0  0  0  0  0  0  0  0  0
    6.0981    2.4330    0.0000 C   0  0  0  0  0  0  0  0  0  0  0  0
    5.5981    3.2990    0.0000 C   0  0  0  0  0  0  0  0  0  0  0  0
    3.7320   -3.3971    0.0000 C   0  0  0  0  0  0  0  0  0  0  0  0
    5.4641   -3.3971    0.0000 C   0  0  0  0  0  0  0  0  0  0  0  0
    3.7320   -4.3971    0.0000 C   0  0  0  0  0  0  0  0  0  0  0  0
    6.0981    4.1651    0.0000 C   0  0  0  0  0  0  0  0  0  0  0  0
    4.5981    3.2990    0.0000 C   0  0  0  0  0  0  0  0  0  0  0  0
    5.4641   -4.3971    0.0000 C   0  0  0  0  0  0  0  0  0  0  0  0
    4.5981   -4.8971    0.0000 C   0  0  0  0  0  0  0  0  0  0  0  0
    2.8660   -4.8971    0.0000 C   0  0  0  0  0  0  0  0  0  0  0  0
    7.0981    4.1651    0.0000 C   0  0  0  0  0  0  0  0  0  0  0  0
    4.0981    4.1651    0.0000 C   0  0  0  0  0  0  0  0  0  0  0  0
    5.5981    5.0311    0.0000 C   0  0  0  0  0  0  0  0  0  0  0  0
    4.0981    2.4330    0.0000 C   0  0  0  0  0  0  0  0  0  0  0  0
    7.5981    5.0311    0.0000 C   0  0  0  0  0  0  0  0  0  0  0  0
    3.0981    4.1651    0.0000 C   0  0  0  0  0  0  0  0  0  0  0  0
    6.0981    5.8971    0.0000 C   0  0  0  0  0  0  0  0  0  0  0  0
    3.0981    2.4330    0.0000 C   0  0  0  0  0  0  0  0  0  0  0  0
    7.0981    5.8971    0.0000 C   0  0  0  0  0  0  0  0  0  0  0  0
    2.5981    3.2990    0.0000 C   0  0  0  0  0  0  0  0  0  0  0  0
    3.6231   -0.6326    0.0000 H   0  0  0  0  0  0  0  0  0  0  0  0
    3.6231   -1.4296    0.0000 H   0  0  0  0  0  0  0  0  0  0  0  0
    5.4904   -2.5077    0.0000 H   0  0  0  0  0  0  0  0  0  0  0  0
    6.1807   -2.1092    0.0000 H   0  0  0  0  0  0  0  0  0  0  0  0
    4.7057    0.4455    0.0000 H   0  0  0  0  0  0  0  0  0  0  0  0
    4.0155    0.0470    0.0000 H   0  0  0  0  0  0  0  0  0  0  0  0
    6.5730   -1.4296    0.0000 H   0  0  0  0  0  0  0  0  0  0  0  0
    6.5730   -0.6326    0.0000 H   0  0  0  0  0  0  0  0  0  0  0  0
    6.5730    0.3024    0.0000 H   0  0  0  0  0  0  0  0  0  0  0  0
    6.5730    1.0995    0.0000 H   0  0  0  0  0  0  0  0  0  0  0  0
    5.1231    1.9655    0.0000 H   0  0  0  0  0  0  0  0  0  0  0  0
    5.1231    1.1685    0.0000 H   0  0  0  0  0  0  0  0  0  0  0  0
    6.5730    2.0345    0.0000 H   0  0  0  0  0  0  0  0  0  0  0  0
    6.5730    2.8315    0.0000 H   0  0  0  0  0  0  0  0  0  0  0  0
    3.1951   -2.0871    0.0000 H   0  0  0  0  0  0  0  0  0  0  0  0
    5.2881    2.7621    0.0000 H   0  0  0  0  0  0  0  0  0  0  0  0
    3.1951   -3.0871    0.0000 H   0  0  0  0  0  0  0  0  0  0  0  0
    6.0010   -3.0871    0.0000 H   0  0  0  0  0  0  0  0  0  0  0  0
    6.0010   -4.7071    0.0000 H   0  0  0  0  0  0  0  0  0  0  0  0
    7.4081    3.6281    0.0000 H   0  0  0  0  0  0  0  0  0  0  0  0
    4.4081    4.7020    0.0000 H   0  0  0  0  0  0  0  0  0  0  0  0
    4.9781    5.0311    0.0000 H   0  0  0  0  0  0  0  0  0  0  0  0
    4.4081    1.8961    0.0000 H   0  0  0  0  0  0  0  0  0  0  0  0
    8.2181    5.0311    0.0000 H   0  0  0  0  0  0  0  0  0  0  0  0
    2.7881    4.7020    0.0000 H   0  0  0  0  0  0  0  0  0  0  0  0
    5.7881    6.4340    0.0000 H   0  0  0  0  0  0  0  0  0  0  0  0
    2.7881    1.8961    0.0000 H   0  0  0  0  0  0  0  0  0  0  0  0
    7.4081    6.4340    0.0000 H   0  0  0  0  0  0  0  0  0  0  0  0
    1.9781    3.2990    0.0000 H   0  0  0  0  0  0  0  0  0  0  0  0
  1 23  1  0  0  0  0
  2 24  1  0  0  0  0
  3 24  1  0  0  0  0
  4 24  1  0  0  0  0
  5  7  1  0  0  0  0
  5 49  1  0  0  0  0
  6 10  1  0  0  0  0
  6 11  1  0  0  0  0
  6 12  1  0  0  0  0
  7  8  1  0  0  0  0
  7  9  1  0  0  0  0
  7 13  1  0  0  0  0
  8 10  1  0  0  0  0
  8 35  1  0  0  0  0
  8 36  1  0  0  0  0
  9 11  1  0  0  0  0
  9 37  1  0  0  0  0
  9 38  1  0  0  0  0
 10 39  1  0  0  0  0
 10 40  1  0  0  0  0
 11 41  1  0  0  0  0
 11 42  1  0  0  0  0
 12 14  1  0  0  0  0
 12 43  1  0  0  0  0
 12 44  1  0  0  0  0
 13 17  2  0  0  0  0
 13 18  1  0  0  0  0
 14 15  1  0  0  0  0
 14 45  1  0  0  0  0
 14 46  1  0  0  0  0
 15 16  1  0  0  0  0
 15 47  1  0  0  0  0
 15 48  1  0  0  0  0
 16 20  1  0  0  0  0
 16 21  1  0  0  0  0
 16 50  1  0  0  0  0
 17 19  1  0  0  0  0
 17 51  1  0  0  0  0
 18 22  2  0  0  0  0
 18 52  1  0  0  0  0
 19 23  2  0  0  0  0
 19 24  1  0  0  0  0
 20 25  2  0  0  0  0
 20 27  1  0  0  0  0
 21 26  2  0  0  0  0
 21 28  1  0  0  0  0
 22 23  1  0  0  0  0
 22 53  1  0  0  0  0
 25 29  1  0  0  0  0
 25 54  1  0  0  0  0
 26 30  1  0  0  0  0
 26 55  1  0  0  0  0
 27 31  2  0  0  0  0
 27 56  1  0  0  0  0
 28 32  2  0  0  0  0
 28 57  1  0  0  0  0
 29 33  2  0  0  0  0
 29 58  1  0  0  0  0
 30 34  2  0  0  0  0
 30 59  1  0  0  0  0
 31 33  1  0  0  0  0
 31 60  1  0  0  0  0
 32 34  1  0  0  0  0
 32 61  1  0  0  0  0
 33 62  1  0  0  0  0
 34 63  1  0  0  0  0
M  END
> <PUBCHEM_COMPOUND_CID>
53324045

> <PUBCHEM_COMPOUND_CANONICALIZED>
1

> <PUBCHEM_CACTVS_COMPLEXITY>
591

> <PUBCHEM_CACTVS_HBOND_ACCEPTOR>
5

> <PUBCHEM_CACTVS_HBOND_DONOR>
1

> <PUBCHEM_CACTVS_ROTATABLE_BOND>
7

> <PUBCHEM_CACTVS_SUBSKEYS>
AAADceB6IYAEAAAAAAAAAAAAAAAAAAAAAAA8YMEAAAAAAAABUAAAHwIACAAADUbBmDQwAIMAAgCAAiBCAAACAAAgBQAIiAAICogIJiKBkxCEcAAmwAGImAeQwOAOhAACAAABAAAIAAQAAAIAAAAAAAAAAA==

> <PUBCHEM_IUPAC_OPENEYE_NAME>
4-[4-chloro-3-(trifluoromethyl)phenyl]-1-(4,4-diphenylbutyl)piperidin-4-ol

> <PUBCHEM_IUPAC_CAS_NAME>
4-[4-chloro-3-(trifluoromethyl)phenyl]-1-(4,4-diphenylbutyl)-4-piperidinol

> <PUBCHEM_IUPAC_NAME_MARKUP>
4-[4-chloro-3-(trifluoromethyl)phenyl]-1-(4,4-diphenylbutyl)piperidin-4-ol

> <PUBCHEM_IUPAC_NAME>
4-[4-chloro-3-(trifluoromethyl)phenyl]-1-(4,4-diphenylbutyl)piperidin-4-ol

> <PUBCHEM_IUPAC_SYSTEMATIC_NAME>
4-[4-chloranyl-3-(trifluoromethyl)phenyl]-1-(4,4-diphenylbutyl)piperidin-4-ol

> <PUBCHEM_IUPAC_TRADITIONAL_NAME>
4-[4-chloro-3-(trifluoromethyl)phenyl]-1-(4,4-diphenylbutyl)piperidin-4-ol

> <PUBCHEM_IUPAC_INCHI>
InChI=1S/C28H29ClF3NO/c29-26-14-13-23(20-25(26)28(30,31)32)27(34)15-18-33(19-16-27)17-7-12-24(21-8-3-1-4-9-21)22-10-5-2-6-11-22/h1-6,8-11,13-14,20,24,34H,7,12,15-19H2

> <PUBCHEM_IUPAC_INCHIKEY>
SGUZNMAAJVIZHU-UHFFFAOYSA-N

> <PUBCHEM_XLOGP3_AA>
7.1

> <PUBCHEM_EXACT_MASS>
487.1889767

> <PUBCHEM_MOLECULAR_FORMULA>
C28H29ClF3NO

> <PUBCHEM_MOLECULAR_WEIGHT>
488.0

> <PUBCHEM_OPENEYE_CAN_SMILES>
C1CN(CCC1(C2=CC(=C(C=C2)Cl)C(F)(F)F)O)CCCC(C3=CC=CC=C3)C4=CC=CC=C4

> <PUBCHEM_OPENEYE_ISO_SMILES>
C1CN(CCC1(C2=CC(=C(C=C2)Cl)C(F)(F)F)O)CCCC(C3=CC=CC=C3)C4=CC=CC=C4

> <PUBCHEM_CACTVS_TPSA>
23.5

> <PUBCHEM_MONOISOTOPIC_WEIGHT>
487.1889767

> <PUBCHEM_TOTAL_CHARGE>
0

> <PUBCHEM_HEAVY_ATOM_COUNT>
34

> <PUBCHEM_ATOM_DEF_STEREO_COUNT>
0

> <PUBCHEM_ATOM_UDEF_STEREO_COUNT>
0

> <PUBCHEM_BOND_DEF_STEREO_COUNT>
0

> <PUBCHEM_BOND_UDEF_STEREO_COUNT>
0

> <PUBCHEM_ISOTOPIC_ATOM_COUNT>
0

> <PUBCHEM_COMPONENT_COUNT>
1

> <PUBCHEM_CACTVS_TAUTO_COUNT>
-1

> <PUBCHEM_COORDINATE_TYPE>
1
5
255

> <PUBCHEM_BONDANNOTATIONS>
13  17  8
13  18  8
17  19  8
18  22  8
19  23  8
20  25  8
20  27  8
21  26  8
21  28  8
22  23  8
25  29  8
26  30  8
27  31  8
28  32  8
29  33  8
30  34  8
31  33  8
32  34  8

$$$$
