126534830
  -OEChem-09292322442D

 65 69  0     1  0  0  0  0  0999 V2000
    9.6680    3.2437    0.0000 S   0  0  0  0  0  0  0  0  0  0  0  0
    2.6420   -4.0527    0.0000 F   0  0  0  0  0  0  0  0  0  0  0  0
    2.0000   -2.7926    0.0000 F   0  0  0  0  0  0  0  0  0  0  0  0
    3.9021   -3.4106    0.0000 F   0  0  0  0  0  0  0  0  0  0  0  0
   14.6339    0.9803    0.0000 O   0  0  0  0  0  0  0  0  0  0  0  0
    4.1871    0.7026    0.0000 N   0  0  3  0  0  0  0  0  0  0  0  0
    6.6680    1.5116    0.0000 N   0  0  3  0  0  0  0  0  0  0  0  0
    2.5909   -1.4074    0.0000 N   0  0  0  0  0  0  0  0  0  0  0  0
   11.2558    2.4346    0.0000 N   0  0  0  0  0  0  0  0  0  0  0  0
   12.2069    3.7437    0.0000 N   0  0  0  0  0  0  0  0  0  0  0  0
   11.2558    4.0527    0.0000 N   0  0  0  0  0  0  0  0  0  0  0  0
    5.1382    2.0116    0.0000 C   0  0  3  0  0  0  0  0  0  0  0  0
    5.1382    1.0116    0.0000 C   0  0  3  0  0  0  0  0  0  0  0  0
    6.0844    2.3164    0.0000 C   0  0  0  0  0  0  0  0  0  0  0  0
    4.1871    2.3206    0.0000 C   0  0  0  0  0  0  0  0  0  0  0  0
    6.0844    0.7069    0.0000 C   0  0  0  0  0  0  0  0  0  0  0  0
    3.5993    1.5116    0.0000 C   0  0  0  0  0  0  0  0  0  0  0  0
    7.6680    1.5116    0.0000 C   0  0  0  0  0  0  0  0  0  0  0  0
    3.8781   -0.2485    0.0000 C   0  0  0  0  0  0  0  0  0  0  0  0
    8.1680    2.3776    0.0000 C   0  0  0  0  0  0  0  0  0  0  0  0
    4.5472   -0.9916    0.0000 C   0  0  0  0  0  0  0  0  0  0  0  0
    2.9000   -0.4564    0.0000 C   0  0  0  0  0  0  0  0  0  0  0  0
    9.1680    2.3776    0.0000 C   0  0  0  0  0  0  0  0  0  0  0  0
    4.2382   -1.9427    0.0000 C   0  0  0  0  0  0  0  0  0  0  0  0
    3.2601   -2.1506    0.0000 C   0  0  0  0  0  0  0  0  0  0  0  0
   13.0159    2.1559    0.0000 C   0  0  0  0  0  0  0  0  0  0  0  0
   12.9113    1.1614    0.0000 C   0  0  0  0  0  0  0  0  0  0  0  0
   13.9294    2.5626    0.0000 C   0  0  0  0  0  0  0  0  0  0  0  0
   12.2069    2.7437    0.0000 C   0  0  0  0  0  0  0  0  0  0  0  0
   10.6680    3.2437    0.0000 C   0  0  0  0  0  0  0  0  0  0  0  0
   13.7204    0.5736    0.0000 C   0  0  0  0  0  0  0  0  0  0  0  0
   14.7384    1.9748    0.0000 C   0  0  0  0  0  0  0  0  0  0  0  0
    2.9511   -3.1016    0.0000 C   0  0  0  0  0  0  0  0  0  0  0  0
   10.9468    1.4836    0.0000 C   0  0  0  0  0  0  0  0  0  0  0  0
    5.1390    2.6316    0.0000 H   0  0  0  0  0  0  0  0  0  0  0  0
    5.1390    0.3916    0.0000 H   0  0  0  0  0  0  0  0  0  0  0  0
    6.6218    2.6256    0.0000 H   0  0  0  0  0  0  0  0  0  0  0  0
    5.8334    2.8832    0.0000 H   0  0  0  0  0  0  0  0  0  0  0  0
    4.4393    2.8870    0.0000 H   0  0  0  0  0  0  0  0  0  0  0  0
    3.6502    2.6306    0.0000 H   0  0  0  0  0  0  0  0  0  0  0  0
    5.8334    0.1400    0.0000 H   0  0  0  0  0  0  0  0  0  0  0  0
    6.6218    0.3977    0.0000 H   0  0  0  0  0  0  0  0  0  0  0  0
    3.1386    1.9265    0.0000 H   0  0  0  0  0  0  0  0  0  0  0  0
    3.1386    1.0967    0.0000 H   0  0  0  0  0  0  0  0  0  0  0  0
    7.5604    0.9010    0.0000 H   0  0  0  0  0  0  0  0  0  0  0  0
    8.2506    1.2996    0.0000 H   0  0  0  0  0  0  0  0  0  0  0  0
    8.2757    2.9882    0.0000 H   0  0  0  0  0  0  0  0  0  0  0  0
    7.5854    2.5897    0.0000 H   0  0  0  0  0  0  0  0  0  0  0  0
    5.1537   -0.8627    0.0000 H   0  0  0  0  0  0  0  0  0  0  0  0
    2.4851    0.0044    0.0000 H   0  0  0  0  0  0  0  0  0  0  0  0
    9.0604    1.7671    0.0000 H   0  0  0  0  0  0  0  0  0  0  0  0
    9.7506    2.1656    0.0000 H   0  0  0  0  0  0  0  0  0  0  0  0
    4.6531   -2.4034    0.0000 H   0  0  0  0  0  0  0  0  0  0  0  0
   12.4495    1.9037    0.0000 H   0  0  0  0  0  0  0  0  0  0  0  0
   12.3154    1.3322    0.0000 H   0  0  0  0  0  0  0  0  0  0  0  0
   12.6395    0.6041    0.0000 H   0  0  0  0  0  0  0  0  0  0  0  0
   14.3754    2.9933    0.0000 H   0  0  0  0  0  0  0  0  0  0  0  0
   13.5827    3.0766    0.0000 H   0  0  0  0  0  0  0  0  0  0  0  0
   13.2744    0.1429    0.0000 H   0  0  0  0  0  0  0  0  0  0  0  0
   14.0671    0.0596    0.0000 H   0  0  0  0  0  0  0  0  0  0  0  0
   15.3344    1.8039    0.0000 H   0  0  0  0  0  0  0  0  0  0  0  0
   15.0102    2.5321    0.0000 H   0  0  0  0  0  0  0  0  0  0  0  0
   10.3571    1.6752    0.0000 H   0  0  0  0  0  0  0  0  0  0  0  0
   10.7552    0.8939    0.0000 H   0  0  0  0  0  0  0  0  0  0  0  0
   11.5364    1.2920    0.0000 H   0  0  0  0  0  0  0  0  0  0  0  0
  1 23  1  0  0  0  0
  1 30  1  0  0  0  0
  2 33  1  0  0  0  0
  3 33  1  0  0  0  0
  4 33  1  0  0  0  0
  5 31  1  0  0  0  0
  5 32  1  0  0  0  0
  6 13  1  0  0  0  0
  6 17  1  0  0  0  0
  6 19  1  0  0  0  0
  7 14  1  0  0  0  0
  7 16  1  0  0  0  0
  7 18  1  0  0  0  0
  8 22  1  0  0  0  0
  8 25  2  0  0  0  0
  9 29  1  0  0  0  0
  9 30  1  0  0  0  0
  9 34  1  0  0  0  0
 10 11  1  0  0  0  0
 10 29  2  0  0  0  0
 11 30  2  0  0  0  0
 12 13  1  0  0  0  0
 12 14  1  0  0  0  0
 12 15  1  0  0  0  0
 12 35  1  0  0  0  0
 13 16  1  0  0  0  0
 13 36  1  0  0  0  0
 14 37  1  0  0  0  0
 14 38  1  0  0  0  0
 15 17  1  0  0  0  0
 15 39  1  0  0  0  0
 15 40  1  0  0  0  0
 16 41  1  0  0  0  0
 16 42  1  0  0  0  0
 17 43  1  0  0  0  0
 17 44  1  0  0  0  0
 18 20  1  0  0  0  0
 18 45  1  0  0  0  0
 18 46  1  0  0  0  0
 19 21  1  0  0  0  0
 19 22  2  0  0  0  0
 20 23  1  0  0  0  0
 20 47  1  0  0  0  0
 20 48  1  0  0  0  0
 21 24  2  0  0  0  0
 21 49  1  0  0  0  0
 22 50  1  0  0  0  0
 23 51  1  0  0  0  0
 23 52  1  0  0  0  0
 24 25  1  0  0  0  0
 24 53  1  0  0  0  0
 25 33  1  0  0  0  0
 26 27  1  0  0  0  0
 26 28  1  0  0  0  0
 26 29  1  0  0  0  0
 26 54  1  0  0  0  0
 27 31  1  0  0  0  0
 27 55  1  0  0  0  0
 27 56  1  0  0  0  0
 28 32  1  0  0  0  0
 28 57  1  0  0  0  0
 28 58  1  0  0  0  0
 31 59  1  0  0  0  0
 31 60  1  0  0  0  0
 32 61  1  0  0  0  0
 32 62  1  0  0  0  0
 34 63  1  0  0  0  0
 34 64  1  0  0  0  0
 34 65  1  0  0  0  0
M  END
> <PUBCHEM_COMPOUND_CID>
126534830

> <PUBCHEM_COMPOUND_CANONICALIZED>
1

> <PUBCHEM_CACTVS_COMPLEXITY>
669

> <PUBCHEM_CACTVS_HBOND_ACCEPTOR>
10

> <PUBCHEM_CACTVS_HBOND_DONOR>
0

> <PUBCHEM_CACTVS_ROTATABLE_BOND>
7

> <PUBCHEM_CACTVS_SUBSKEYS>
AAADceB7oYBAAAAAAAAAAAAAAAAAAWLFgAAsSAAAAAAWAAAB4AAAHwQIAAAADSjl1xa/0JcMFAiiATZnZACS0CtxErAd2CA4dJiIaOLg2ZGWIAhkiALIyAewAAAKAAAAAAAAAAAAAAAAAAAAAAAAAAAAAA==

> <PUBCHEM_IUPAC_OPENEYE_NAME>
5-[3-[(4-methyl-5-tetrahydropyran-4-yl-1,2,4-triazol-3-yl)sulfanyl]propyl]-1-[6-(trifluoromethyl)-3-pyridyl]-2,3,3a,4,6,6a-hexahydropyrrolo[2,3-c]pyrrole

> <PUBCHEM_IUPAC_CAS_NAME>
5-[3-[[4-methyl-5-(4-oxanyl)-1,2,4-triazol-3-yl]thio]propyl]-1-[6-(trifluoromethyl)-3-pyridinyl]-2,3,3a,4,6,6a-hexahydropyrrolo[2,3-c]pyrrole

> <PUBCHEM_IUPAC_NAME_MARKUP>
5-[3-[[4-methyl-5-(oxan-4-yl)-1,2,4-triazol-3-yl]sulfanyl]propyl]-1-[6-(trifluoromethyl)pyridin-3-yl]-2,3,3<I>a</I>,4,6,6<I>a</I>-hexahydropyrrolo[2,3-c]pyrrole

> <PUBCHEM_IUPAC_NAME>
5-[3-[[4-methyl-5-(oxan-4-yl)-1,2,4-triazol-3-yl]sulfanyl]propyl]-1-[6-(trifluoromethyl)pyridin-3-yl]-2,3,3a,4,6,6a-hexahydropyrrolo[2,3-c]pyrrole

> <PUBCHEM_IUPAC_SYSTEMATIC_NAME>
5-[3-[[4-methyl-5-(oxan-4-yl)-1,2,4-triazol-3-yl]sulfanyl]propyl]-1-[6-(trifluoromethyl)pyridin-3-yl]-2,3,3a,4,6,6a-hexahydropyrrolo[2,3-c]pyrrole

> <PUBCHEM_IUPAC_TRADITIONAL_NAME>
5-[3-[(4-methyl-5-tetrahydropyran-4-yl-1,2,4-triazol-3-yl)thio]propyl]-1-[6-(trifluoromethyl)-3-pyridyl]-2,3,3a,4,6,6a-hexahydropyrrolo[2,3-c]pyrrole

> <PUBCHEM_IUPAC_INCHI>
InChI=1S/C23H31F3N6OS/c1-30-21(16-6-10-33-11-7-16)28-29-22(30)34-12-2-8-31-14-17-5-9-32(19(17)15-31)18-3-4-20(27-13-18)23(24,25)26/h3-4,13,16-17,19H,2,5-12,14-15H2,1H3

> <PUBCHEM_IUPAC_INCHIKEY>
GYPMSCDWBIWORF-UHFFFAOYSA-N

> <PUBCHEM_XLOGP3_AA>
3

> <PUBCHEM_EXACT_MASS>
496.22321529

> <PUBCHEM_MOLECULAR_FORMULA>
C23H31F3N6OS

> <PUBCHEM_MOLECULAR_WEIGHT>
496.6

> <PUBCHEM_OPENEYE_CAN_SMILES>
CN1C(=NN=C1SCCCN2CC3CCN(C3C2)C4=CN=C(C=C4)C(F)(F)F)C5CCOCC5

> <PUBCHEM_OPENEYE_ISO_SMILES>
CN1C(=NN=C1SCCCN2CC3CCN(C3C2)C4=CN=C(C=C4)C(F)(F)F)C5CCOCC5

> <PUBCHEM_CACTVS_TPSA>
84.6

> <PUBCHEM_MONOISOTOPIC_WEIGHT>
496.22321529

> <PUBCHEM_TOTAL_CHARGE>
0

> <PUBCHEM_HEAVY_ATOM_COUNT>
34

> <PUBCHEM_ATOM_DEF_STEREO_COUNT>
0

> <PUBCHEM_ATOM_UDEF_STEREO_COUNT>
2

> <PUBCHEM_BOND_DEF_STEREO_COUNT>
0

> <PUBCHEM_BOND_UDEF_STEREO_COUNT>
0

> <PUBCHEM_ISOTOPIC_ATOM_COUNT>
0

> <PUBCHEM_COMPONENT_COUNT>
1

> <PUBCHEM_CACTVS_TAUTO_COUNT>
-1

> <PUBCHEM_COORDINATE_TYPE>
1
5
255

> <PUBCHEM_BONDANNOTATIONS>
10  11  8
10  29  8
11  30  8
12  15  3
13  16  3
19  21  8
19  22  8
21  24  8
24  25  8
8  22  8
8  25  8
9  29  8
9  30  8

$$$$
