11584858
  -OEChem-09292322242D

 71 74  0     0  0  0  0  0  0999 V2000
    4.1701    7.4715    0.0000 Br  0  0  0  0  0  0  0  0  0  0  0  0
   11.6691   -5.4715    0.0000 O   0  0  0  0  0  0  0  0  0  0  0  0
    8.2050    3.5285    0.0000 O   0  0  0  0  0  0  0  0  0  0  0  0
    9.9371   -2.4715    0.0000 N   0  0  0  0  0  0  0  0  0  0  0  0
    9.9371   -4.4715    0.0000 N   0  0  0  0  0  0  0  0  0  0  0  0
    7.3390    2.0285    0.0000 N   0  0  0  0  0  0  0  0  0  0  0  0
    5.3903    4.7309    0.0000 N   0  0  0  0  0  0  0  0  0  0  0  0
    5.5594    3.1217    0.0000 N   0  0  0  0  0  0  0  0  0  0  0  0
    4.8903    3.8649    0.0000 N   0  0  0  0  0  0  0  0  0  0  0  0
   10.8031   -2.9715    0.0000 C   0  0  0  0  0  0  0  0  0  0  0  0
    9.0710   -2.9715    0.0000 C   0  0  0  0  0  0  0  0  0  0  0  0
   10.8031   -3.9715    0.0000 C   0  0  0  0  0  0  0  0  0  0  0  0
    9.0710   -3.9715    0.0000 C   0  0  0  0  0  0  0  0  0  0  0  0
    9.9371   -1.4715    0.0000 C   0  0  0  0  0  0  0  0  0  0  0  0
    9.0710   -0.9715    0.0000 C   0  0  0  0  0  0  0  0  0  0  0  0
    9.0710    0.0285    0.0000 C   0  0  0  0  0  0  0  0  0  0  0  0
    9.9371   -5.4715    0.0000 C   0  0  0  0  0  0  0  0  0  0  0  0
    8.2050    0.5285    0.0000 C   0  0  0  0  0  0  0  0  0  0  0  0
   10.8031   -5.9715    0.0000 C   0  0  0  0  0  0  0  0  0  0  0  0
    8.2050    1.5285    0.0000 C   0  0  0  0  0  0  0  0  0  0  0  0
    9.0710   -5.9715    0.0000 C   0  0  0  0  0  0  0  0  0  0  0  0
   10.8031   -6.9715    0.0000 C   0  0  0  0  0  0  0  0  0  0  0  0
    9.0710   -6.9715    0.0000 C   0  0  0  0  0  0  0  0  0  0  0  0
    9.9371   -7.4715    0.0000 C   0  0  0  0  0  0  0  0  0  0  0  0
    7.3390    3.0285    0.0000 C   0  0  0  0  0  0  0  0  0  0  0  0
    6.4730    3.5285    0.0000 C   0  0  0  0  0  0  0  0  0  0  0  0
   12.5352   -5.9715    0.0000 C   0  0  0  0  0  0  0  0  0  0  0  0
    6.3684    4.5230    0.0000 C   0  0  0  0  0  0  0  0  0  0  0  0
    4.9836    5.6444    0.0000 C   0  0  0  0  0  0  0  0  0  0  0  0
    7.1116    5.1921    0.0000 C   0  0  0  0  0  0  0  0  0  0  0  0
    3.9890    5.7490    0.0000 C   0  0  0  0  0  0  0  0  0  0  0  0
    3.5823    6.6625    0.0000 C   0  0  0  0  0  0  0  0  0  0  0  0
    3.4013    4.9400    0.0000 C   0  0  0  0  0  0  0  0  0  0  0  0
    2.5878    6.7670    0.0000 C   0  0  0  0  0  0  0  0  0  0  0  0
    2.4067    5.0445    0.0000 C   0  0  0  0  0  0  0  0  0  0  0  0
    2.0000    5.9580    0.0000 C   0  0  0  0  0  0  0  0  0  0  0  0
   11.4137   -3.0792    0.0000 H   0  0  0  0  0  0  0  0  0  0  0  0
   11.0152   -2.3889    0.0000 H   0  0  0  0  0  0  0  0  0  0  0  0
    8.8590   -2.3889    0.0000 H   0  0  0  0  0  0  0  0  0  0  0  0
    8.4605   -3.0792    0.0000 H   0  0  0  0  0  0  0  0  0  0  0  0
   11.0152   -4.5541    0.0000 H   0  0  0  0  0  0  0  0  0  0  0  0
   11.4137   -3.8639    0.0000 H   0  0  0  0  0  0  0  0  0  0  0  0
    8.4605   -3.8639    0.0000 H   0  0  0  0  0  0  0  0  0  0  0  0
    8.8590   -4.5541    0.0000 H   0  0  0  0  0  0  0  0  0  0  0  0
   10.5477   -1.5792    0.0000 H   0  0  0  0  0  0  0  0  0  0  0  0
   10.1491   -0.8889    0.0000 H   0  0  0  0  0  0  0  0  0  0  0  0
    8.4605   -0.8639    0.0000 H   0  0  0  0  0  0  0  0  0  0  0  0
    8.8590   -1.5541    0.0000 H   0  0  0  0  0  0  0  0  0  0  0  0
    9.6816   -0.0792    0.0000 H   0  0  0  0  0  0  0  0  0  0  0  0
    9.2831    0.6111    0.0000 H   0  0  0  0  0  0  0  0  0  0  0  0
    7.5944    0.6361    0.0000 H   0  0  0  0  0  0  0  0  0  0  0  0
    7.9930   -0.0541    0.0000 H   0  0  0  0  0  0  0  0  0  0  0  0
    8.8156    1.4208    0.0000 H   0  0  0  0  0  0  0  0  0  0  0  0
    8.4171    2.1111    0.0000 H   0  0  0  0  0  0  0  0  0  0  0  0
    8.5341   -5.6615    0.0000 H   0  0  0  0  0  0  0  0  0  0  0  0
   11.3400   -7.2815    0.0000 H   0  0  0  0  0  0  0  0  0  0  0  0
    8.5341   -7.2815    0.0000 H   0  0  0  0  0  0  0  0  0  0  0  0
    6.8021    1.7185    0.0000 H   0  0  0  0  0  0  0  0  0  0  0  0
    9.9371   -8.0915    0.0000 H   0  0  0  0  0  0  0  0  0  0  0  0
   12.2252   -6.5085    0.0000 H   0  0  0  0  0  0  0  0  0  0  0  0
   13.0721   -6.2815    0.0000 H   0  0  0  0  0  0  0  0  0  0  0  0
   12.8452   -5.4346    0.0000 H   0  0  0  0  0  0  0  0  0  0  0  0
    5.5851    5.7944    0.0000 H   0  0  0  0  0  0  0  0  0  0  0  0
    4.9403    6.2629    0.0000 H   0  0  0  0  0  0  0  0  0  0  0  0
    7.5265    4.7314    0.0000 H   0  0  0  0  0  0  0  0  0  0  0  0
    7.5723    5.6070    0.0000 H   0  0  0  0  0  0  0  0  0  0  0  0
    6.6967    5.6529    0.0000 H   0  0  0  0  0  0  0  0  0  0  0  0
    3.6534    4.3736    0.0000 H   0  0  0  0  0  0  0  0  0  0  0  0
    2.3356    7.3334    0.0000 H   0  0  0  0  0  0  0  0  0  0  0  0
    2.0423    4.5429    0.0000 H   0  0  0  0  0  0  0  0  0  0  0  0
    1.3834    6.0228    0.0000 H   0  0  0  0  0  0  0  0  0  0  0  0
  1 32  1  0  0  0  0
  2 19  1  0  0  0  0
  2 27  1  0  0  0  0
  3 25  2  0  0  0  0
  4 10  1  0  0  0  0
  4 11  1  0  0  0  0
  4 14  1  0  0  0  0
  5 12  1  0  0  0  0
  5 13  1  0  0  0  0
  5 17  1  0  0  0  0
  6 20  1  0  0  0  0
  6 25  1  0  0  0  0
  6 58  1  0  0  0  0
  7  9  1  0  0  0  0
  7 28  1  0  0  0  0
  7 29  1  0  0  0  0
  8  9  2  0  0  0  0
  8 26  1  0  0  0  0
 10 12  1  0  0  0  0
 10 37  1  0  0  0  0
 10 38  1  0  0  0  0
 11 13  1  0  0  0  0
 11 39  1  0  0  0  0
 11 40  1  0  0  0  0
 12 41  1  0  0  0  0
 12 42  1  0  0  0  0
 13 43  1  0  0  0  0
 13 44  1  0  0  0  0
 14 15  1  0  0  0  0
 14 45  1  0  0  0  0
 14 46  1  0  0  0  0
 15 16  1  0  0  0  0
 15 47  1  0  0  0  0
 15 48  1  0  0  0  0
 16 18  1  0  0  0  0
 16 49  1  0  0  0  0
 16 50  1  0  0  0  0
 17 19  1  0  0  0  0
 17 21  2  0  0  0  0
 18 20  1  0  0  0  0
 18 51  1  0  0  0  0
 18 52  1  0  0  0  0
 19 22  2  0  0  0  0
 20 53  1  0  0  0  0
 20 54  1  0  0  0  0
 21 23  1  0  0  0  0
 21 55  1  0  0  0  0
 22 24  1  0  0  0  0
 22 56  1  0  0  0  0
 23 24  2  0  0  0  0
 23 57  1  0  0  0  0
 24 59  1  0  0  0  0
 25 26  1  0  0  0  0
 26 28  2  0  0  0  0
 27 60  1  0  0  0  0
 27 61  1  0  0  0  0
 27 62  1  0  0  0  0
 28 30  1  0  0  0  0
 29 31  1  0  0  0  0
 29 63  1  0  0  0  0
 29 64  1  0  0  0  0
 30 65  1  0  0  0  0
 30 66  1  0  0  0  0
 30 67  1  0  0  0  0
 31 32  1  0  0  0  0
 31 33  2  0  0  0  0
 32 34  2  0  0  0  0
 33 35  1  0  0  0  0
 33 68  1  0  0  0  0
 34 36  1  0  0  0  0
 34 69  1  0  0  0  0
 35 36  2  0  0  0  0
 35 70  1  0  0  0  0
 36 71  1  0  0  0  0
M  END
> <PUBCHEM_COMPOUND_CID>
11584858

> <PUBCHEM_COMPOUND_CANONICALIZED>
1

> <PUBCHEM_CACTVS_COMPLEXITY>
664

> <PUBCHEM_CACTVS_HBOND_ACCEPTOR>
6

> <PUBCHEM_CACTVS_HBOND_DONOR>
1

> <PUBCHEM_CACTVS_ROTATABLE_BOND>
11

> <PUBCHEM_CACTVS_SUBSKEYS>
AAADcfB7sAAAEAAAAAAAAAAAAAAAAWAAAAA8YIAAAAAAAAAB0AAAHgBYAAABrAzBngYyxpPIBACqAyVyVACCDAQnsgQY2IG/fOgOZjrE8ZuVMahk1hHY61eQwAAOAAAAAAAAkAAAAAAAAAEgAAAAAAAAAA==

> <PUBCHEM_IUPAC_OPENEYE_NAME>
1-[(2-bromophenyl)methyl]-N-[5-[4-(2-methoxyphenyl)piperazin-1-yl]pentyl]-5-methyl-triazole-4-carboxamide

> <PUBCHEM_IUPAC_CAS_NAME>
1-[(2-bromophenyl)methyl]-N-[5-[4-(2-methoxyphenyl)-1-piperazinyl]pentyl]-5-methyl-4-triazolecarboxamide

> <PUBCHEM_IUPAC_NAME_MARKUP>
1-[(2-bromophenyl)methyl]-<I>N</I>-[5-[4-(2-methoxyphenyl)piperazin-1-yl]pentyl]-5-methyltriazole-4-carboxamide

> <PUBCHEM_IUPAC_NAME>
1-[(2-bromophenyl)methyl]-N-[5-[4-(2-methoxyphenyl)piperazin-1-yl]pentyl]-5-methyltriazole-4-carboxamide

> <PUBCHEM_IUPAC_SYSTEMATIC_NAME>
1-[(2-bromophenyl)methyl]-N-[5-[4-(2-methoxyphenyl)piperazin-1-yl]pentyl]-5-methyl-1,2,3-triazole-4-carboxamide

> <PUBCHEM_IUPAC_TRADITIONAL_NAME>
1-(2-bromobenzyl)-N-[5-[4-(2-methoxyphenyl)piperazino]pentyl]-5-methyl-triazole-4-carboxamide

> <PUBCHEM_IUPAC_INCHI>
InChI=1S/C27H35BrN6O2/c1-21-26(30-31-34(21)20-22-10-4-5-11-23(22)28)27(35)29-14-8-3-9-15-32-16-18-33(19-17-32)24-12-6-7-13-25(24)36-2/h4-7,10-13H,3,8-9,14-20H2,1-2H3,(H,29,35)

> <PUBCHEM_IUPAC_INCHIKEY>
GTVPXEVAFBWKHY-UHFFFAOYSA-N

> <PUBCHEM_XLOGP3_AA>
4.7

> <PUBCHEM_EXACT_MASS>
554.20049

> <PUBCHEM_MOLECULAR_FORMULA>
C27H35BrN6O2

> <PUBCHEM_MOLECULAR_WEIGHT>
555.5

> <PUBCHEM_OPENEYE_CAN_SMILES>
CC1=C(N=NN1CC2=CC=CC=C2Br)C(=O)NCCCCCN3CCN(CC3)C4=CC=CC=C4OC

> <PUBCHEM_OPENEYE_ISO_SMILES>
CC1=C(N=NN1CC2=CC=CC=C2Br)C(=O)NCCCCCN3CCN(CC3)C4=CC=CC=C4OC

> <PUBCHEM_CACTVS_TPSA>
75.5

> <PUBCHEM_MONOISOTOPIC_WEIGHT>
554.20049

> <PUBCHEM_TOTAL_CHARGE>
0

> <PUBCHEM_HEAVY_ATOM_COUNT>
36

> <PUBCHEM_ATOM_DEF_STEREO_COUNT>
0

> <PUBCHEM_ATOM_UDEF_STEREO_COUNT>
0

> <PUBCHEM_BOND_DEF_STEREO_COUNT>
0

> <PUBCHEM_BOND_UDEF_STEREO_COUNT>
0

> <PUBCHEM_ISOTOPIC_ATOM_COUNT>
0

> <PUBCHEM_COMPONENT_COUNT>
1

> <PUBCHEM_CACTVS_TAUTO_COUNT>
-1

> <PUBCHEM_COORDINATE_TYPE>
1
5
255

> <PUBCHEM_BONDANNOTATIONS>
17  19  8
17  21  8
19  22  8
21  23  8
22  24  8
23  24  8
26  28  8
31  32  8
31  33  8
32  34  8
33  35  8
34  36  8
35  36  8
7  28  8
7  9  8
8  26  8
8  9  8

$$$$
