126533877
  -OEChem-09292322372D

 61 65  0     1  0  0  0  0  0999 V2000
   10.3642    2.5005    0.0000 S   0  0  0  0  0  0  0  0  0  0  0  0
    2.3090   -2.3585    0.0000 O   0  0  0  0  0  0  0  0  0  0  0  0
    4.8834   -0.0405    0.0000 N   0  0  3  0  0  0  0  0  0  0  0  0
    7.3642    0.7685    0.0000 N   0  0  3  0  0  0  0  0  0  0  0  0
   11.9520    1.6915    0.0000 N   0  0  0  0  0  0  0  0  0  0  0  0
   11.9520    3.3095    0.0000 N   0  0  0  0  0  0  0  0  0  0  0  0
   12.9031    3.0005    0.0000 N   0  0  0  0  0  0  0  0  0  0  0  0
   14.6256    1.8195    0.0000 N   0  0  0  0  0  0  0  0  0  0  0  0
   14.4166   -0.1696    0.0000 N   0  0  0  0  0  0  0  0  0  0  0  0
    5.8344    1.2685    0.0000 C   0  0  3  0  0  0  0  0  0  0  0  0
    5.8344    0.2685    0.0000 C   0  0  3  0  0  0  0  0  0  0  0  0
    6.7806    1.5732    0.0000 C   0  0  0  0  0  0  0  0  0  0  0  0
    4.8834    1.5775    0.0000 C   0  0  0  0  0  0  0  0  0  0  0  0
    6.7806   -0.0363    0.0000 C   0  0  0  0  0  0  0  0  0  0  0  0
    4.2956    0.7685    0.0000 C   0  0  0  0  0  0  0  0  0  0  0  0
    8.3642    0.7685    0.0000 C   0  0  0  0  0  0  0  0  0  0  0  0
    4.5743   -0.9916    0.0000 C   0  0  0  0  0  0  0  0  0  0  0  0
    8.8642    1.6345    0.0000 C   0  0  0  0  0  0  0  0  0  0  0  0
    3.5962   -1.1995    0.0000 C   0  0  0  0  0  0  0  0  0  0  0  0
    5.2435   -1.7348    0.0000 C   0  0  0  0  0  0  0  0  0  0  0  0
    9.8642    1.6345    0.0000 C   0  0  0  0  0  0  0  0  0  0  0  0
    3.2872   -2.1506    0.0000 C   0  0  0  0  0  0  0  0  0  0  0  0
    4.9344   -2.6858    0.0000 C   0  0  0  0  0  0  0  0  0  0  0  0
    3.9563   -2.8937    0.0000 C   0  0  0  0  0  0  0  0  0  0  0  0
   11.3642    2.5005    0.0000 C   0  0  0  0  0  0  0  0  0  0  0  0
    2.0000   -3.3095    0.0000 C   0  0  0  0  0  0  0  0  0  0  0  0
   12.9031    2.0005    0.0000 C   0  0  0  0  0  0  0  0  0  0  0  0
   11.6430    0.7404    0.0000 C   0  0  0  0  0  0  0  0  0  0  0  0
   13.7121    1.4127    0.0000 C   0  0  0  0  0  0  0  0  0  0  0  0
   13.6076    0.4182    0.0000 C   0  0  0  0  0  0  0  0  0  0  0  0
   15.4347    1.2317    0.0000 C   0  0  0  0  0  0  0  0  0  0  0  0
   15.3301    0.2372    0.0000 C   0  0  0  0  0  0  0  0  0  0  0  0
    5.8352    1.8885    0.0000 H   0  0  0  0  0  0  0  0  0  0  0  0
    5.8352   -0.3515    0.0000 H   0  0  0  0  0  0  0  0  0  0  0  0
    7.3180    1.8824    0.0000 H   0  0  0  0  0  0  0  0  0  0  0  0
    6.5296    2.1401    0.0000 H   0  0  0  0  0  0  0  0  0  0  0  0
    5.1355    2.1439    0.0000 H   0  0  0  0  0  0  0  0  0  0  0  0
    4.3464    1.8875    0.0000 H   0  0  0  0  0  0  0  0  0  0  0  0
    6.5296   -0.6032    0.0000 H   0  0  0  0  0  0  0  0  0  0  0  0
    7.3180   -0.3455    0.0000 H   0  0  0  0  0  0  0  0  0  0  0  0
    3.8348    1.1833    0.0000 H   0  0  0  0  0  0  0  0  0  0  0  0
    3.8348    0.3536    0.0000 H   0  0  0  0  0  0  0  0  0  0  0  0
    8.2566    0.1579    0.0000 H   0  0  0  0  0  0  0  0  0  0  0  0
    8.9468    0.5564    0.0000 H   0  0  0  0  0  0  0  0  0  0  0  0
    8.9719    2.2451    0.0000 H   0  0  0  0  0  0  0  0  0  0  0  0
    8.2816    1.8466    0.0000 H   0  0  0  0  0  0  0  0  0  0  0  0
    3.1813   -0.7388    0.0000 H   0  0  0  0  0  0  0  0  0  0  0  0
    5.8499   -1.6058    0.0000 H   0  0  0  0  0  0  0  0  0  0  0  0
    9.7566    1.0239    0.0000 H   0  0  0  0  0  0  0  0  0  0  0  0
   10.4468    1.4224    0.0000 H   0  0  0  0  0  0  0  0  0  0  0  0
    5.3493   -3.1466    0.0000 H   0  0  0  0  0  0  0  0  0  0  0  0
    3.7647   -3.4834    0.0000 H   0  0  0  0  0  0  0  0  0  0  0  0
    1.4103   -3.1180    0.0000 H   0  0  0  0  0  0  0  0  0  0  0  0
    1.8084   -3.8992    0.0000 H   0  0  0  0  0  0  0  0  0  0  0  0
    2.5897   -3.5011    0.0000 H   0  0  0  0  0  0  0  0  0  0  0  0
   11.0533    0.9320    0.0000 H   0  0  0  0  0  0  0  0  0  0  0  0
   11.4514    0.1508    0.0000 H   0  0  0  0  0  0  0  0  0  0  0  0
   12.2327    0.5489    0.0000 H   0  0  0  0  0  0  0  0  0  0  0  0
   13.0412    0.1660    0.0000 H   0  0  0  0  0  0  0  0  0  0  0  0
   16.0011    1.4839    0.0000 H   0  0  0  0  0  0  0  0  0  0  0  0
   15.8317   -0.1273    0.0000 H   0  0  0  0  0  0  0  0  0  0  0  0
  1 21  1  0  0  0  0
  1 25  1  0  0  0  0
  2 22  1  0  0  0  0
  2 26  1  0  0  0  0
  3 11  1  0  0  0  0
  3 15  1  0  0  0  0
  3 17  1  0  0  0  0
  4 12  1  0  0  0  0
  4 14  1  0  0  0  0
  4 16  1  0  0  0  0
  5 25  1  0  0  0  0
  5 27  1  0  0  0  0
  5 28  1  0  0  0  0
  6  7  1  0  0  0  0
  6 25  2  0  0  0  0
  7 27  2  0  0  0  0
  8 29  2  0  0  0  0
  8 31  1  0  0  0  0
  9 30  2  0  0  0  0
  9 32  1  0  0  0  0
 10 11  1  0  0  0  0
 10 12  1  0  0  0  0
 10 13  1  0  0  0  0
 10 33  1  0  0  0  0
 11 14  1  0  0  0  0
 11 34  1  0  0  0  0
 12 35  1  0  0  0  0
 12 36  1  0  0  0  0
 13 15  1  0  0  0  0
 13 37  1  0  0  0  0
 13 38  1  0  0  0  0
 14 39  1  0  0  0  0
 14 40  1  0  0  0  0
 15 41  1  0  0  0  0
 15 42  1  0  0  0  0
 16 18  1  0  0  0  0
 16 43  1  0  0  0  0
 16 44  1  0  0  0  0
 17 19  2  0  0  0  0
 17 20  1  0  0  0  0
 18 21  1  0  0  0  0
 18 45  1  0  0  0  0
 18 46  1  0  0  0  0
 19 22  1  0  0  0  0
 19 47  1  0  0  0  0
 20 23  2  0  0  0  0
 20 48  1  0  0  0  0
 21 49  1  0  0  0  0
 21 50  1  0  0  0  0
 22 24  2  0  0  0  0
 23 24  1  0  0  0  0
 23 51  1  0  0  0  0
 24 52  1  0  0  0  0
 26 53  1  0  0  0  0
 26 54  1  0  0  0  0
 26 55  1  0  0  0  0
 27 29  1  0  0  0  0
 28 56  1  0  0  0  0
 28 57  1  0  0  0  0
 28 58  1  0  0  0  0
 29 30  1  0  0  0  0
 30 59  1  0  0  0  0
 31 32  2  0  0  0  0
 31 60  1  0  0  0  0
 32 61  1  0  0  0  0
M  END
> <PUBCHEM_COMPOUND_CID>
126533877

> <PUBCHEM_COMPOUND_CANONICALIZED>
1

> <PUBCHEM_CACTVS_COMPLEXITY>
601

> <PUBCHEM_CACTVS_HBOND_ACCEPTOR>
8

> <PUBCHEM_CACTVS_HBOND_DONOR>
0

> <PUBCHEM_CACTVS_ROTATABLE_BOND>
8

> <PUBCHEM_CACTVS_SUBSKEYS>
AAADceB7oABAAAAAAAAAAAAAAAAAAWLFgAA8QAAAAAAWAAAB8AAAHgQIAAAADSzF1wa/1pcMFAiiATZnZACS2C9xMrAd2CA+fJiMbuLk+ZuUMChmyBvI6AeQUAMKAAAAAgAAAAAAAAAEAAAAAAAAAAAAAA==

> <PUBCHEM_IUPAC_OPENEYE_NAME>
1-(3-methoxyphenyl)-5-[3-[(4-methyl-5-pyrazin-2-yl-1,2,4-triazol-3-yl)sulfanyl]propyl]-2,3,3a,4,6,6a-hexahydropyrrolo[2,3-c]pyrrole

> <PUBCHEM_IUPAC_CAS_NAME>
1-(3-methoxyphenyl)-5-[3-[[4-methyl-5-(2-pyrazinyl)-1,2,4-triazol-3-yl]thio]propyl]-2,3,3a,4,6,6a-hexahydropyrrolo[2,3-c]pyrrole

> <PUBCHEM_IUPAC_NAME_MARKUP>
1-(3-methoxyphenyl)-5-[3-[(4-methyl-5-pyrazin-2-yl-1,2,4-triazol-3-yl)sulfanyl]propyl]-2,3,3<I>a</I>,4,6,6<I>a</I>-hexahydropyrrolo[2,3-c]pyrrole

> <PUBCHEM_IUPAC_NAME>
1-(3-methoxyphenyl)-5-[3-[(4-methyl-5-pyrazin-2-yl-1,2,4-triazol-3-yl)sulfanyl]propyl]-2,3,3a,4,6,6a-hexahydropyrrolo[2,3-c]pyrrole

> <PUBCHEM_IUPAC_SYSTEMATIC_NAME>
1-(3-methoxyphenyl)-5-[3-[(4-methyl-5-pyrazin-2-yl-1,2,4-triazol-3-yl)sulfanyl]propyl]-2,3,3a,4,6,6a-hexahydropyrrolo[2,3-c]pyrrole

> <PUBCHEM_IUPAC_TRADITIONAL_NAME>
1-(3-methoxyphenyl)-5-[3-[(4-methyl-5-pyrazin-2-yl-1,2,4-triazol-3-yl)thio]propyl]-2,3,3a,4,6,6a-hexahydropyrrolo[2,3-c]pyrrole

> <PUBCHEM_IUPAC_INCHI>
InChI=1S/C23H29N7OS/c1-28-22(20-14-24-8-9-25-20)26-27-23(28)32-12-4-10-29-15-17-7-11-30(21(17)16-29)18-5-3-6-19(13-18)31-2/h3,5-6,8-9,13-14,17,21H,4,7,10-12,15-16H2,1-2H3

> <PUBCHEM_IUPAC_INCHIKEY>
RARLPFKZTJRIOM-UHFFFAOYSA-N

> <PUBCHEM_XLOGP3_AA>
2.2

> <PUBCHEM_EXACT_MASS>
451.21542975

> <PUBCHEM_MOLECULAR_FORMULA>
C23H29N7OS

> <PUBCHEM_MOLECULAR_WEIGHT>
451.6

> <PUBCHEM_OPENEYE_CAN_SMILES>
CN1C(=NN=C1SCCCN2CC3CCN(C3C2)C4=CC(=CC=C4)OC)C5=NC=CN=C5

> <PUBCHEM_OPENEYE_ISO_SMILES>
CN1C(=NN=C1SCCCN2CC3CCN(C3C2)C4=CC(=CC=C4)OC)C5=NC=CN=C5

> <PUBCHEM_CACTVS_TPSA>
97.5

> <PUBCHEM_MONOISOTOPIC_WEIGHT>
451.21542975

> <PUBCHEM_TOTAL_CHARGE>
0

> <PUBCHEM_HEAVY_ATOM_COUNT>
32

> <PUBCHEM_ATOM_DEF_STEREO_COUNT>
0

> <PUBCHEM_ATOM_UDEF_STEREO_COUNT>
2

> <PUBCHEM_BOND_DEF_STEREO_COUNT>
0

> <PUBCHEM_BOND_UDEF_STEREO_COUNT>
0

> <PUBCHEM_ISOTOPIC_ATOM_COUNT>
0

> <PUBCHEM_COMPONENT_COUNT>
1

> <PUBCHEM_CACTVS_TAUTO_COUNT>
-1

> <PUBCHEM_COORDINATE_TYPE>
1
5
255

> <PUBCHEM_BONDANNOTATIONS>
10  13  3
11  14  3
17  19  8
17  20  8
19  22  8
20  23  8
22  24  8
23  24  8
29  30  8
31  32  8
5  25  8
5  27  8
6  25  8
6  7  8
7  27  8
8  29  8
8  31  8
9  30  8
9  32  8

$$$$
