57395341
  -OEChem-09292322322D

 73 76  0     0  0  0  0  0  0999 V2000
   17.9007    0.6736    0.0000 O   0  0  0  0  0  0  0  0  0  0  0  0
   10.3833   -0.0256    0.0000 O   0  0  0  0  0  0  0  0  0  0  0  0
    6.3301   -2.0252    0.0000 O   0  0  0  0  0  0  0  0  0  0  0  0
    3.7320   -1.5252    0.0000 O   0  0  0  0  0  0  0  0  0  0  0  0
   14.6080    1.7498    0.0000 N   0  0  0  0  0  0  0  0  0  0  0  0
   16.5650    2.1622    0.0000 N   0  0  0  0  0  0  0  0  0  0  0  0
   12.0296   -0.5637    0.0000 N   0  0  0  0  0  0  0  0  0  0  0  0
    9.7942   -3.0252    0.0000 N   0  0  0  0  0  0  0  0  0  0  0  0
   10.7404   -3.3299    0.0000 N   0  0  0  0  0  0  0  0  0  0  0  0
   15.2758    1.0055    0.0000 C   0  0  0  0  0  0  0  0  0  0  0  0
   14.9186    2.7003    0.0000 C   0  0  0  0  0  0  0  0  0  0  0  0
   16.2543    1.2117    0.0000 C   0  0  0  0  0  0  0  0  0  0  0  0
   15.8971    2.9065    0.0000 C   0  0  0  0  0  0  0  0  0  0  0  0
   13.6294    1.5436    0.0000 C   0  0  0  0  0  0  0  0  0  0  0  0
   13.3188    0.5930    0.0000 C   0  0  0  0  0  0  0  0  0  0  0  0
   17.5435    2.3684    0.0000 C   0  0  0  0  0  0  0  0  0  0  0  0
   12.3403    0.3868    0.0000 C   0  0  0  0  0  0  0  0  0  0  0  0
   18.2113    1.6241    0.0000 C   0  0  0  0  0  0  0  0  0  0  0  0
   17.8541    3.3190    0.0000 C   0  0  0  0  0  0  0  0  0  0  0  0
   19.1898    1.8304    0.0000 C   0  0  0  0  0  0  0  0  0  0  0  0
   18.8326    3.5252    0.0000 C   0  0  0  0  0  0  0  0  0  0  0  0
   19.5005    2.7809    0.0000 C   0  0  0  0  0  0  0  0  0  0  0  0
   11.0511   -0.7699    0.0000 C   0  0  0  0  0  0  0  0  0  0  0  0
   10.7404   -1.7204    0.0000 C   0  0  0  0  0  0  0  0  0  0  0  0
    9.7942   -2.0252    0.0000 C   0  0  0  0  0  0  0  0  0  0  0  0
   11.3241   -2.5252    0.0000 C   0  0  0  0  0  0  0  0  0  0  0  0
    8.9282   -1.5252    0.0000 C   0  0  0  0  0  0  0  0  0  0  0  0
   18.5685   -0.0707    0.0000 C   0  0  0  0  0  0  0  0  0  0  0  0
    8.0622   -2.0252    0.0000 C   0  0  0  0  0  0  0  0  0  0  0  0
    8.9282   -3.5252    0.0000 C   0  0  0  0  0  0  0  0  0  0  0  0
    8.0622   -3.0252    0.0000 C   0  0  0  0  0  0  0  0  0  0  0  0
    7.1962   -1.5252    0.0000 C   0  0  0  0  0  0  0  0  0  0  0  0
    5.4641   -1.5252    0.0000 C   0  0  0  0  0  0  0  0  0  0  0  0
    4.5981   -2.0252    0.0000 C   0  0  0  0  0  0  0  0  0  0  0  0
    2.8660   -2.0252    0.0000 C   0  0  0  0  0  0  0  0  0  0  0  0
    2.0000   -1.5252    0.0000 C   0  0  0  0  0  0  0  0  0  0  0  0
   14.7494    0.6778    0.0000 H   0  0  0  0  0  0  0  0  0  0  0  0
   15.5071    0.4302    0.0000 H   0  0  0  0  0  0  0  0  0  0  0  0
   14.8981    3.3200    0.0000 H   0  0  0  0  0  0  0  0  0  0  0  0
   14.3048    2.7877    0.0000 H   0  0  0  0  0  0  0  0  0  0  0  0
   16.2749    0.5920    0.0000 H   0  0  0  0  0  0  0  0  0  0  0  0
   16.8681    1.1243    0.0000 H   0  0  0  0  0  0  0  0  0  0  0  0
   16.4235    3.2342    0.0000 H   0  0  0  0  0  0  0  0  0  0  0  0
   15.6659    3.4818    0.0000 H   0  0  0  0  0  0  0  0  0  0  0  0
   13.6089    2.1632    0.0000 H   0  0  0  0  0  0  0  0  0  0  0  0
   13.0156    1.6309    0.0000 H   0  0  0  0  0  0  0  0  0  0  0  0
   13.3393   -0.0266    0.0000 H   0  0  0  0  0  0  0  0  0  0  0  0
   13.9326    0.5057    0.0000 H   0  0  0  0  0  0  0  0  0  0  0  0
   12.3197    1.0065    0.0000 H   0  0  0  0  0  0  0  0  0  0  0  0
   11.7265    0.4742    0.0000 H   0  0  0  0  0  0  0  0  0  0  0  0
   17.4401    3.7804    0.0000 H   0  0  0  0  0  0  0  0  0  0  0  0
   12.4437   -1.0252    0.0000 H   0  0  0  0  0  0  0  0  0  0  0  0
   19.6039    1.3689    0.0000 H   0  0  0  0  0  0  0  0  0  0  0  0
   19.0253    4.1145    0.0000 H   0  0  0  0  0  0  0  0  0  0  0  0
   20.1072    2.9087    0.0000 H   0  0  0  0  0  0  0  0  0  0  0  0
   11.9441   -2.5252    0.0000 H   0  0  0  0  0  0  0  0  0  0  0  0
    8.9282   -0.9052    0.0000 H   0  0  0  0  0  0  0  0  0  0  0  0
   18.1070   -0.4848    0.0000 H   0  0  0  0  0  0  0  0  0  0  0  0
   18.9826   -0.5322    0.0000 H   0  0  0  0  0  0  0  0  0  0  0  0
   19.0300    0.3434    0.0000 H   0  0  0  0  0  0  0  0  0  0  0  0
    8.9282   -4.1452    0.0000 H   0  0  0  0  0  0  0  0  0  0  0  0
    7.5252   -3.3352    0.0000 H   0  0  0  0  0  0  0  0  0  0  0  0
    7.5947   -1.0502    0.0000 H   0  0  0  0  0  0  0  0  0  0  0  0
    6.7976   -1.0502    0.0000 H   0  0  0  0  0  0  0  0  0  0  0  0
    5.8626   -1.0502    0.0000 H   0  0  0  0  0  0  0  0  0  0  0  0
    5.0656   -1.0502    0.0000 H   0  0  0  0  0  0  0  0  0  0  0  0
    4.1996   -2.5001    0.0000 H   0  0  0  0  0  0  0  0  0  0  0  0
    4.9966   -2.5001    0.0000 H   0  0  0  0  0  0  0  0  0  0  0  0
    2.4675   -2.5001    0.0000 H   0  0  0  0  0  0  0  0  0  0  0  0
    3.2646   -2.5001    0.0000 H   0  0  0  0  0  0  0  0  0  0  0  0
    2.3100   -0.9882    0.0000 H   0  0  0  0  0  0  0  0  0  0  0  0
    1.4631   -1.2152    0.0000 H   0  0  0  0  0  0  0  0  0  0  0  0
    1.6900   -2.0621    0.0000 H   0  0  0  0  0  0  0  0  0  0  0  0
  1 18  1  0  0  0  0
  1 28  1  0  0  0  0
  2 23  2  0  0  0  0
  3 32  1  0  0  0  0
  3 33  1  0  0  0  0
  4 34  1  0  0  0  0
  4 35  1  0  0  0  0
  5 10  1  0  0  0  0
  5 11  1  0  0  0  0
  5 14  1  0  0  0  0
  6 12  1  0  0  0  0
  6 13  1  0  0  0  0
  6 16  1  0  0  0  0
  7 17  1  0  0  0  0
  7 23  1  0  0  0  0
  7 52  1  0  0  0  0
  8  9  1  0  0  0  0
  8 25  1  0  0  0  0
  8 30  1  0  0  0  0
  9 26  2  0  0  0  0
 10 12  1  0  0  0  0
 10 37  1  0  0  0  0
 10 38  1  0  0  0  0
 11 13  1  0  0  0  0
 11 39  1  0  0  0  0
 11 40  1  0  0  0  0
 12 41  1  0  0  0  0
 12 42  1  0  0  0  0
 13 43  1  0  0  0  0
 13 44  1  0  0  0  0
 14 15  1  0  0  0  0
 14 45  1  0  0  0  0
 14 46  1  0  0  0  0
 15 17  1  0  0  0  0
 15 47  1  0  0  0  0
 15 48  1  0  0  0  0
 16 18  1  0  0  0  0
 16 19  2  0  0  0  0
 17 49  1  0  0  0  0
 17 50  1  0  0  0  0
 18 20  2  0  0  0  0
 19 21  1  0  0  0  0
 19 51  1  0  0  0  0
 20 22  1  0  0  0  0
 20 53  1  0  0  0  0
 21 22  2  0  0  0  0
 21 54  1  0  0  0  0
 22 55  1  0  0  0  0
 23 24  1  0  0  0  0
 24 25  2  0  0  0  0
 24 26  1  0  0  0  0
 25 27  1  0  0  0  0
 26 56  1  0  0  0  0
 27 29  2  0  0  0  0
 27 57  1  0  0  0  0
 28 58  1  0  0  0  0
 28 59  1  0  0  0  0
 28 60  1  0  0  0  0
 29 31  1  0  0  0  0
 29 32  1  0  0  0  0
 30 31  2  0  0  0  0
 30 61  1  0  0  0  0
 31 62  1  0  0  0  0
 32 63  1  0  0  0  0
 32 64  1  0  0  0  0
 33 34  1  0  0  0  0
 33 65  1  0  0  0  0
 33 66  1  0  0  0  0
 34 67  1  0  0  0  0
 34 68  1  0  0  0  0
 35 36  1  0  0  0  0
 35 69  1  0  0  0  0
 35 70  1  0  0  0  0
 36 71  1  0  0  0  0
 36 72  1  0  0  0  0
 36 73  1  0  0  0  0
M  END
> <PUBCHEM_COMPOUND_CID>
57395341

> <PUBCHEM_COMPOUND_CANONICALIZED>
1

> <PUBCHEM_CACTVS_COMPLEXITY>
648

> <PUBCHEM_CACTVS_HBOND_ACCEPTOR>
7

> <PUBCHEM_CACTVS_HBOND_DONOR>
1

> <PUBCHEM_CACTVS_ROTATABLE_BOND>
13

> <PUBCHEM_CACTVS_SUBSKEYS>
AAADcfB7uAAAAAAAAAAAAAAAAAAAAWAAAAA8WIAAAAAAAFgB8AAAHgAYAAAADAzhngY+xrPIFACqAzV3VACSjCA1oiAY2KE/bNgPZvrE9duXtahk3hHa6ce4yFCOAAAAAAAAEAAAAAAAAAAgAAAAAAAAAA==

> <PUBCHEM_IUPAC_OPENEYE_NAME>
5-(2-ethoxyethoxymethyl)-N-[3-[4-(2-methoxyphenyl)piperazin-1-yl]propyl]pyrazolo[1,5-a]pyridine-3-carboxamide

> <PUBCHEM_IUPAC_CAS_NAME>
5-(2-ethoxyethoxymethyl)-N-[3-[4-(2-methoxyphenyl)-1-piperazinyl]propyl]-3-pyrazolo[1,5-a]pyridinecarboxamide

> <PUBCHEM_IUPAC_NAME_MARKUP>
5-(2-ethoxyethoxymethyl)-<I>N</I>-[3-[4-(2-methoxyphenyl)piperazin-1-yl]propyl]pyrazolo[1,5-a]pyridine-3-carboxamide

> <PUBCHEM_IUPAC_NAME>
5-(2-ethoxyethoxymethyl)-N-[3-[4-(2-methoxyphenyl)piperazin-1-yl]propyl]pyrazolo[1,5-a]pyridine-3-carboxamide

> <PUBCHEM_IUPAC_SYSTEMATIC_NAME>
5-(2-ethoxyethoxymethyl)-N-[3-[4-(2-methoxyphenyl)piperazin-1-yl]propyl]pyrazolo[1,5-a]pyridine-3-carboxamide

> <PUBCHEM_IUPAC_TRADITIONAL_NAME>
5-(2-ethoxyethoxymethyl)-N-[3-[4-(2-methoxyphenyl)piperazino]propyl]pyrazolo[1,5-a]pyridine-3-carboxamide

> <PUBCHEM_IUPAC_INCHI>
InChI=1S/C27H37N5O4/c1-3-35-17-18-36-21-22-9-12-32-25(19-22)23(20-29-32)27(33)28-10-6-11-30-13-15-31(16-14-30)24-7-4-5-8-26(24)34-2/h4-5,7-9,12,19-20H,3,6,10-11,13-18,21H2,1-2H3,(H,28,33)

> <PUBCHEM_IUPAC_INCHIKEY>
BBOKZSYVAQYXBY-UHFFFAOYSA-N

> <PUBCHEM_XLOGP3_AA>
2.2

> <PUBCHEM_EXACT_MASS>
495.28455468

> <PUBCHEM_MOLECULAR_FORMULA>
C27H37N5O4

> <PUBCHEM_MOLECULAR_WEIGHT>
495.6

> <PUBCHEM_OPENEYE_CAN_SMILES>
CCOCCOCC1=CC2=C(C=NN2C=C1)C(=O)NCCCN3CCN(CC3)C4=CC=CC=C4OC

> <PUBCHEM_OPENEYE_ISO_SMILES>
CCOCCOCC1=CC2=C(C=NN2C=C1)C(=O)NCCCN3CCN(CC3)C4=CC=CC=C4OC

> <PUBCHEM_CACTVS_TPSA>
80.6

> <PUBCHEM_MONOISOTOPIC_WEIGHT>
495.28455468

> <PUBCHEM_TOTAL_CHARGE>
0

> <PUBCHEM_HEAVY_ATOM_COUNT>
36

> <PUBCHEM_ATOM_DEF_STEREO_COUNT>
0

> <PUBCHEM_ATOM_UDEF_STEREO_COUNT>
0

> <PUBCHEM_BOND_DEF_STEREO_COUNT>
0

> <PUBCHEM_BOND_UDEF_STEREO_COUNT>
0

> <PUBCHEM_ISOTOPIC_ATOM_COUNT>
0

> <PUBCHEM_COMPONENT_COUNT>
1

> <PUBCHEM_CACTVS_TAUTO_COUNT>
-1

> <PUBCHEM_COORDINATE_TYPE>
1
5
255

> <PUBCHEM_BONDANNOTATIONS>
16  18  8
16  19  8
18  20  8
19  21  8
20  22  8
21  22  8
24  25  8
24  26  8
25  27  8
27  29  8
29  31  8
30  31  8
8  25  8
8  30  8
8  9  8
9  26  8

$$$$
