122180621
  -OEChem-09292322362D

 63 66  0     1  0  0  0  0  0999 V2000
    4.6701   -0.6397    0.0000 O   0  0  0  0  0  0  0  0  0  0  0  0
    8.1342   -4.6397    0.0000 O   0  0  0  0  0  0  0  0  0  0  0  0
    4.9836    5.7262    0.0000 O   0  0  0  0  0  0  0  0  0  0  0  0
    6.4021   -1.6397    0.0000 N   0  0  0  0  0  0  0  0  0  0  0  0
    6.4021   -3.6397    0.0000 N   0  0  0  0  0  0  0  0  0  0  0  0
    4.6701    2.3603    0.0000 N   0  0  0  0  0  0  0  0  0  0  0  0
    5.4791    2.9480    0.0000 N   0  0  0  0  0  0  0  0  0  0  0  0
    5.1701    3.8991    0.0000 N   0  0  0  0  0  0  0  0  0  0  0  0
    7.2682   -2.1397    0.0000 C   0  0  0  0  0  0  0  0  0  0  0  0
    5.5361   -2.1397    0.0000 C   0  0  0  0  0  0  0  0  0  0  0  0
    7.2682   -3.1397    0.0000 C   0  0  0  0  0  0  0  0  0  0  0  0
    5.5361   -3.1397    0.0000 C   0  0  0  0  0  0  0  0  0  0  0  0
    6.4021   -0.6397    0.0000 C   0  0  0  0  0  0  0  0  0  0  0  0
    5.5361   -0.1397    0.0000 C   0  0  3  0  0  0  0  0  0  0  0  0
    5.5361    0.8603    0.0000 C   0  0  0  0  0  0  0  0  0  0  0  0
    6.4021   -4.6397    0.0000 C   0  0  0  0  0  0  0  0  0  0  0  0
    4.6701    1.3603    0.0000 C   0  0  0  0  0  0  0  0  0  0  0  0
    7.2682   -5.1397    0.0000 C   0  0  0  0  0  0  0  0  0  0  0  0
    5.5361   -5.1397    0.0000 C   0  0  0  0  0  0  0  0  0  0  0  0
    7.2682   -6.1397    0.0000 C   0  0  0  0  0  0  0  0  0  0  0  0
    5.5361   -6.1397    0.0000 C   0  0  0  0  0  0  0  0  0  0  0  0
    6.4021   -6.6397    0.0000 C   0  0  0  0  0  0  0  0  0  0  0  0
    3.8611    2.9480    0.0000 C   0  0  0  0  0  0  0  0  0  0  0  0
    4.1701    3.8991    0.0000 C   0  0  0  0  0  0  0  0  0  0  0  0
    3.5823    4.7081    0.0000 C   0  0  0  0  0  0  0  0  0  0  0  0
    9.0002   -5.1397    0.0000 C   0  0  0  0  0  0  0  0  0  0  0  0
    3.9890    5.6217    0.0000 C   0  0  0  0  0  0  0  0  0  0  0  0
    2.5878    4.6036    0.0000 C   0  0  0  0  0  0  0  0  0  0  0  0
    3.4013    6.4307    0.0000 C   0  0  0  0  0  0  0  0  0  0  0  0
    2.0000    5.4126    0.0000 C   0  0  0  0  0  0  0  0  0  0  0  0
    2.4067    6.3262    0.0000 C   0  0  0  0  0  0  0  0  0  0  0  0
    5.3903    6.6397    0.0000 C   0  0  0  0  0  0  0  0  0  0  0  0
    7.8788   -2.2474    0.0000 H   0  0  0  0  0  0  0  0  0  0  0  0
    7.4802   -1.5571    0.0000 H   0  0  0  0  0  0  0  0  0  0  0  0
    5.3241   -1.5571    0.0000 H   0  0  0  0  0  0  0  0  0  0  0  0
    4.9255   -2.2474    0.0000 H   0  0  0  0  0  0  0  0  0  0  0  0
    7.4802   -3.7224    0.0000 H   0  0  0  0  0  0  0  0  0  0  0  0
    7.8788   -3.0321    0.0000 H   0  0  0  0  0  0  0  0  0  0  0  0
    4.9255   -3.0321    0.0000 H   0  0  0  0  0  0  0  0  0  0  0  0
    5.3241   -3.7224    0.0000 H   0  0  0  0  0  0  0  0  0  0  0  0
    7.0127   -0.7474    0.0000 H   0  0  0  0  0  0  0  0  0  0  0  0
    6.6142   -0.0571    0.0000 H   0  0  0  0  0  0  0  0  0  0  0  0
    4.9992    0.1703    0.0000 H   0  0  0  0  0  0  0  0  0  0  0  0
    6.1467    0.7526    0.0000 H   0  0  0  0  0  0  0  0  0  0  0  0
    5.7482    1.4429    0.0000 H   0  0  0  0  0  0  0  0  0  0  0  0
    4.0595    1.4679    0.0000 H   0  0  0  0  0  0  0  0  0  0  0  0
    4.4580    0.7777    0.0000 H   0  0  0  0  0  0  0  0  0  0  0  0
    4.1332   -0.3297    0.0000 H   0  0  0  0  0  0  0  0  0  0  0  0
    4.9992   -4.8297    0.0000 H   0  0  0  0  0  0  0  0  0  0  0  0
    7.8051   -6.4497    0.0000 H   0  0  0  0  0  0  0  0  0  0  0  0
    4.9992   -6.4497    0.0000 H   0  0  0  0  0  0  0  0  0  0  0  0
    3.2714    2.7565    0.0000 H   0  0  0  0  0  0  0  0  0  0  0  0
    6.4021   -7.2597    0.0000 H   0  0  0  0  0  0  0  0  0  0  0  0
    8.6902   -5.6767    0.0000 H   0  0  0  0  0  0  0  0  0  0  0  0
    9.5372   -5.4497    0.0000 H   0  0  0  0  0  0  0  0  0  0  0  0
    9.3102   -4.6028    0.0000 H   0  0  0  0  0  0  0  0  0  0  0  0
    2.3356    4.0372    0.0000 H   0  0  0  0  0  0  0  0  0  0  0  0
    3.6534    6.9971    0.0000 H   0  0  0  0  0  0  0  0  0  0  0  0
    1.3834    5.3478    0.0000 H   0  0  0  0  0  0  0  0  0  0  0  0
    2.0423    6.8277    0.0000 H   0  0  0  0  0  0  0  0  0  0  0  0
    5.9567    6.3876    0.0000 H   0  0  0  0  0  0  0  0  0  0  0  0
    5.6425    7.2061    0.0000 H   0  0  0  0  0  0  0  0  0  0  0  0
    4.8239    6.8919    0.0000 H   0  0  0  0  0  0  0  0  0  0  0  0
  1 14  1  0  0  0  0
  1 48  1  0  0  0  0
  2 18  1  0  0  0  0
  2 26  1  0  0  0  0
  3 27  1  0  0  0  0
  3 32  1  0  0  0  0
  4  9  1  0  0  0  0
  4 10  1  0  0  0  0
  4 13  1  0  0  0  0
  5 11  1  0  0  0  0
  5 12  1  0  0  0  0
  5 16  1  0  0  0  0
  6  7  1  0  0  0  0
  6 17  1  0  0  0  0
  6 23  1  0  0  0  0
  7  8  2  0  0  0  0
  8 24  1  0  0  0  0
  9 11  1  0  0  0  0
  9 33  1  0  0  0  0
  9 34  1  0  0  0  0
 10 12  1  0  0  0  0
 10 35  1  0  0  0  0
 10 36  1  0  0  0  0
 11 37  1  0  0  0  0
 11 38  1  0  0  0  0
 12 39  1  0  0  0  0
 12 40  1  0  0  0  0
 13 14  1  0  0  0  0
 13 41  1  0  0  0  0
 13 42  1  0  0  0  0
 14 15  1  0  0  0  0
 14 43  1  0  0  0  0
 15 17  1  0  0  0  0
 15 44  1  0  0  0  0
 15 45  1  0  0  0  0
 16 18  1  0  0  0  0
 16 19  2  0  0  0  0
 17 46  1  0  0  0  0
 17 47  1  0  0  0  0
 18 20  2  0  0  0  0
 19 21  1  0  0  0  0
 19 49  1  0  0  0  0
 20 22  1  0  0  0  0
 20 50  1  0  0  0  0
 21 22  2  0  0  0  0
 21 51  1  0  0  0  0
 22 53  1  0  0  0  0
 23 24  2  0  0  0  0
 23 52  1  0  0  0  0
 24 25  1  0  0  0  0
 25 27  1  0  0  0  0
 25 28  2  0  0  0  0
 26 54  1  0  0  0  0
 26 55  1  0  0  0  0
 26 56  1  0  0  0  0
 27 29  2  0  0  0  0
 28 30  1  0  0  0  0
 28 57  1  0  0  0  0
 29 31  1  0  0  0  0
 29 58  1  0  0  0  0
 30 31  2  0  0  0  0
 30 59  1  0  0  0  0
 31 60  1  0  0  0  0
 32 61  1  0  0  0  0
 32 62  1  0  0  0  0
 32 63  1  0  0  0  0
M  END
> <PUBCHEM_COMPOUND_CID>
122180621

> <PUBCHEM_COMPOUND_CANONICALIZED>
1

> <PUBCHEM_CACTVS_COMPLEXITY>
548

> <PUBCHEM_CACTVS_HBOND_ACCEPTOR>
7

> <PUBCHEM_CACTVS_HBOND_DONOR>
1

> <PUBCHEM_CACTVS_ROTATABLE_BOND>
9

> <PUBCHEM_CACTVS_SUBSKEYS>
AAADceB7sAAAAAAAAAAAAAAAAAAAAWAAAAA8YIAAAAAAAAAB0AAAHgAICAAADBzhngY+xpMIBgCiAzRnRACCDAQxsgAY2CA/fJgOdqLEsZuVcChmwBHY6AewwKAOAAAAAAAIEAAAAAAAABAgAAAAAAAAAA==

> <PUBCHEM_IUPAC_OPENEYE_NAME>
1-[4-(2-methoxyphenyl)piperazin-1-yl]-4-[4-(2-methoxyphenyl)triazol-1-yl]butan-2-ol

> <PUBCHEM_IUPAC_CAS_NAME>
1-[4-(2-methoxyphenyl)-1-piperazinyl]-4-[4-(2-methoxyphenyl)-1-triazolyl]-2-butanol

> <PUBCHEM_IUPAC_NAME_MARKUP>
1-[4-(2-methoxyphenyl)piperazin-1-yl]-4-[4-(2-methoxyphenyl)triazol-1-yl]butan-2-ol

> <PUBCHEM_IUPAC_NAME>
1-[4-(2-methoxyphenyl)piperazin-1-yl]-4-[4-(2-methoxyphenyl)triazol-1-yl]butan-2-ol

> <PUBCHEM_IUPAC_SYSTEMATIC_NAME>
1-[4-(2-methoxyphenyl)piperazin-1-yl]-4-[4-(2-methoxyphenyl)-1,2,3-triazol-1-yl]butan-2-ol

> <PUBCHEM_IUPAC_TRADITIONAL_NAME>
1-[4-(2-methoxyphenyl)piperazino]-4-[4-(2-methoxyphenyl)triazol-1-yl]butan-2-ol

> <PUBCHEM_IUPAC_INCHI>
InChI=1S/C24H31N5O3/c1-31-23-9-5-3-7-20(23)21-18-29(26-25-21)12-11-19(30)17-27-13-15-28(16-14-27)22-8-4-6-10-24(22)32-2/h3-10,18-19,30H,11-17H2,1-2H3

> <PUBCHEM_IUPAC_INCHIKEY>
LEVQMJILJZDTPU-UHFFFAOYSA-N

> <PUBCHEM_XLOGP3_AA>
2.6

> <PUBCHEM_EXACT_MASS>
437.24268987

> <PUBCHEM_MOLECULAR_FORMULA>
C24H31N5O3

> <PUBCHEM_MOLECULAR_WEIGHT>
437.5

> <PUBCHEM_OPENEYE_CAN_SMILES>
COC1=CC=CC=C1C2=CN(N=N2)CCC(CN3CCN(CC3)C4=CC=CC=C4OC)O

> <PUBCHEM_OPENEYE_ISO_SMILES>
COC1=CC=CC=C1C2=CN(N=N2)CCC(CN3CCN(CC3)C4=CC=CC=C4OC)O

> <PUBCHEM_CACTVS_TPSA>
75.9

> <PUBCHEM_MONOISOTOPIC_WEIGHT>
437.24268987

> <PUBCHEM_TOTAL_CHARGE>
0

> <PUBCHEM_HEAVY_ATOM_COUNT>
32

> <PUBCHEM_ATOM_DEF_STEREO_COUNT>
0

> <PUBCHEM_ATOM_UDEF_STEREO_COUNT>
1

> <PUBCHEM_BOND_DEF_STEREO_COUNT>
0

> <PUBCHEM_BOND_UDEF_STEREO_COUNT>
0

> <PUBCHEM_ISOTOPIC_ATOM_COUNT>
0

> <PUBCHEM_COMPONENT_COUNT>
1

> <PUBCHEM_CACTVS_TAUTO_COUNT>
-1

> <PUBCHEM_COORDINATE_TYPE>
1
5
255

> <PUBCHEM_BONDANNOTATIONS>
14  1  3
16  18  8
16  19  8
18  20  8
19  21  8
20  22  8
21  22  8
23  24  8
25  27  8
25  28  8
27  29  8
28  30  8
29  31  8
30  31  8
6  23  8
6  7  8
7  8  8
8  24  8

$$$$
