44274687
  -OEChem-09292322122D

 46 48  0     1  0  0  0  0  0999 V2000
    2.0000   -1.2122    0.0000 O   0  0  0  0  0  0  0  0  0  0  0  0
    4.6362    1.2846    0.0000 N   0  0  0  0  0  0  0  0  0  0  0  0
    3.7702   -1.2154    0.0000 N   0  0  0  0  0  0  0  0  0  0  0  0
    2.8522   -2.7638    0.0000 N   0  0  0  0  0  0  0  0  0  0  0  0
    4.6362    0.2846    0.0000 C   0  0  1  0  0  0  0  0  0  0  0  0
    3.7702   -0.2154    0.0000 C   0  0  0  0  0  0  0  0  0  0  0  0
    5.5022   -0.2154    0.0000 C   0  0  0  0  0  0  0  0  0  0  0  0
    5.5022   -1.2154    0.0000 C   0  0  0  0  0  0  0  0  0  0  0  0
    4.6362   -1.7154    0.0000 C   0  0  0  0  0  0  0  0  0  0  0  0
    5.5022    1.7846    0.0000 C   0  0  0  0  0  0  0  0  0  0  0  0
    3.7702    1.7846    0.0000 C   0  0  0  0  0  0  0  0  0  0  0  0
    4.6523   -2.7569    0.0000 C   0  0  0  0  0  0  0  0  0  0  0  0
    2.8602   -1.7222    0.0000 C   0  0  0  0  0  0  0  0  0  0  0  0
    3.7542   -3.2846    0.0000 C   0  0  0  0  0  0  0  0  0  0  0  0
    6.3617   -1.7101    0.0000 C   0  0  0  0  0  0  0  0  0  0  0  0
    5.5022    2.7846    0.0000 C   0  0  0  0  0  0  0  0  0  0  0  0
    3.7702    2.7846    0.0000 C   0  0  0  0  0  0  0  0  0  0  0  0
    5.5294   -3.2196    0.0000 C   0  0  0  0  0  0  0  0  0  0  0  0
    6.3751   -2.7018    0.0000 C   0  0  0  0  0  0  0  0  0  0  0  0
    6.3683    3.2846    0.0000 C   0  0  0  0  0  0  0  0  0  0  0  0
    2.9042    3.2846    0.0000 C   0  0  0  0  0  0  0  0  0  0  0  0
    4.0993    0.5946    0.0000 H   0  0  0  0  0  0  0  0  0  0  0  0
    3.5581    0.3672    0.0000 H   0  0  0  0  0  0  0  0  0  0  0  0
    3.1596   -0.3230    0.0000 H   0  0  0  0  0  0  0  0  0  0  0  0
    6.1128   -0.3230    0.0000 H   0  0  0  0  0  0  0  0  0  0  0  0
    5.7143    0.3672    0.0000 H   0  0  0  0  0  0  0  0  0  0  0  0
    5.7143    1.2020    0.0000 H   0  0  0  0  0  0  0  0  0  0  0  0
    6.1128    1.8923    0.0000 H   0  0  0  0  0  0  0  0  0  0  0  0
    3.1596    1.8923    0.0000 H   0  0  0  0  0  0  0  0  0  0  0  0
    3.5581    1.2020    0.0000 H   0  0  0  0  0  0  0  0  0  0  0  0
    3.3569   -3.7606    0.0000 H   0  0  0  0  0  0  0  0  0  0  0  0
    4.1552   -3.7575    0.0000 H   0  0  0  0  0  0  0  0  0  0  0  0
    6.8963   -1.3962    0.0000 H   0  0  0  0  0  0  0  0  0  0  0  0
    5.2902    3.3672    0.0000 H   0  0  0  0  0  0  0  0  0  0  0  0
    4.8917    2.6770    0.0000 H   0  0  0  0  0  0  0  0  0  0  0  0
    4.3808    2.6770    0.0000 H   0  0  0  0  0  0  0  0  0  0  0  0
    3.9822    3.3672    0.0000 H   0  0  0  0  0  0  0  0  0  0  0  0
    2.3140   -3.0717    0.0000 H   0  0  0  0  0  0  0  0  0  0  0  0
    5.5492   -3.8393    0.0000 H   0  0  0  0  0  0  0  0  0  0  0  0
    6.9181   -3.0011    0.0000 H   0  0  0  0  0  0  0  0  0  0  0  0
    6.6783    2.7477    0.0000 H   0  0  0  0  0  0  0  0  0  0  0  0
    6.9052    3.5946    0.0000 H   0  0  0  0  0  0  0  0  0  0  0  0
    6.0583    3.8216    0.0000 H   0  0  0  0  0  0  0  0  0  0  0  0
    3.2142    3.8216    0.0000 H   0  0  0  0  0  0  0  0  0  0  0  0
    2.3672    3.5946    0.0000 H   0  0  0  0  0  0  0  0  0  0  0  0
    2.5942    2.7477    0.0000 H   0  0  0  0  0  0  0  0  0  0  0  0
  1 13  2  0  0  0  0
  5  2  1  6  0  0  0
  2 10  1  0  0  0  0
  2 11  1  0  0  0  0
  3  6  1  0  0  0  0
  3  9  1  0  0  0  0
  3 13  1  0  0  0  0
  4 13  1  0  0  0  0
  4 14  1  0  0  0  0
  4 38  1  0  0  0  0
  5  6  1  0  0  0  0
  5  7  1  0  0  0  0
  5 22  1  0  0  0  0
  6 23  1  0  0  0  0
  6 24  1  0  0  0  0
  7  8  1  0  0  0  0
  7 25  1  0  0  0  0
  7 26  1  0  0  0  0
  8  9  2  0  0  0  0
  8 15  1  0  0  0  0
  9 12  1  0  0  0  0
 10 16  1  0  0  0  0
 10 27  1  0  0  0  0
 10 28  1  0  0  0  0
 11 17  1  0  0  0  0
 11 29  1  0  0  0  0
 11 30  1  0  0  0  0
 12 14  1  0  0  0  0
 12 18  2  0  0  0  0
 14 31  1  0  0  0  0
 14 32  1  0  0  0  0
 15 19  2  0  0  0  0
 15 33  1  0  0  0  0
 16 20  1  0  0  0  0
 16 34  1  0  0  0  0
 16 35  1  0  0  0  0
 17 21  1  0  0  0  0
 17 36  1  0  0  0  0
 17 37  1  0  0  0  0
 18 19  1  0  0  0  0
 18 39  1  0  0  0  0
 19 40  1  0  0  0  0
 20 41  1  0  0  0  0
 20 42  1  0  0  0  0
 20 43  1  0  0  0  0
 21 44  1  0  0  0  0
 21 45  1  0  0  0  0
 21 46  1  0  0  0  0
M  END
> <PUBCHEM_COMPOUND_CID>
44274687

> <PUBCHEM_COMPOUND_CANONICALIZED>
1

> <PUBCHEM_CACTVS_COMPLEXITY>
367

> <PUBCHEM_CACTVS_HBOND_ACCEPTOR>
2

> <PUBCHEM_CACTVS_HBOND_DONOR>
1

> <PUBCHEM_CACTVS_ROTATABLE_BOND>
5

> <PUBCHEM_CACTVS_SUBSKEYS>
AAADceB7IAAAAAAAAAAAAAAAAAAAAAAAAAA8WIAAAAAAAACxAAAAHgAQAAAADCjBGAQzwIPAAACIAiRCUACCAAAhAAAIiIAIRIiIYCLA0ZGUIAhohgLIyCcQgMAOAAACAAACAAAAAAQAAAQAAAAAAAAAAA==

> <PUBCHEM_IUPAC_OPENEYE_NAME>
(11R)-11-(dipropylamino)-1,3-diazatricyclo[7.3.1.05,13]trideca-5,7,9(13)-trien-2-one

> <PUBCHEM_IUPAC_CAS_NAME>
(11R)-11-(dipropylamino)-1,3-diazatricyclo[7.3.1.05,13]trideca-5,7,9(13)-trien-2-one

> <PUBCHEM_IUPAC_NAME_MARKUP>
(11<I>R</I>)-11-(dipropylamino)-1,3-diazatricyclo[7.3.1.0<SUP>5,13</SUP>]trideca-5,7,9(13)-trien-2-one

> <PUBCHEM_IUPAC_NAME>
(11R)-11-(dipropylamino)-1,3-diazatricyclo[7.3.1.05,13]trideca-5,7,9(13)-trien-2-one

> <PUBCHEM_IUPAC_SYSTEMATIC_NAME>
(11R)-11-(dipropylamino)-1,3-diazatricyclo[7.3.1.05,13]trideca-5,7,9(13)-trien-2-one

> <PUBCHEM_IUPAC_TRADITIONAL_NAME>
(11R)-11-(dipropylamino)-1,3-diazatricyclo[7.3.1.05,13]trideca-5,7,9(13)-trien-2-one

> <PUBCHEM_IUPAC_INCHI>
InChI=1S/C17H25N3O/c1-3-8-19(9-4-2)15-10-13-6-5-7-14-11-18-17(21)20(12-15)16(13)14/h5-7,15H,3-4,8-12H2,1-2H3,(H,18,21)/t15-/m1/s1

> <PUBCHEM_IUPAC_INCHIKEY>
GZQMSNKBMQEZJK-OAHLLOKOSA-N

> <PUBCHEM_XLOGP3_AA>
2.6

> <PUBCHEM_EXACT_MASS>
287.199762429

> <PUBCHEM_MOLECULAR_FORMULA>
C17H25N3O

> <PUBCHEM_MOLECULAR_WEIGHT>
287.4

> <PUBCHEM_OPENEYE_CAN_SMILES>
CCCN(CCC)C1CC2=C3C(=CC=C2)CNC(=O)N3C1

> <PUBCHEM_OPENEYE_ISO_SMILES>
CCCN(CCC)[C@@H]1CC2=C3C(=CC=C2)CNC(=O)N3C1

> <PUBCHEM_CACTVS_TPSA>
35.6

> <PUBCHEM_MONOISOTOPIC_WEIGHT>
287.199762429

> <PUBCHEM_TOTAL_CHARGE>
0

> <PUBCHEM_HEAVY_ATOM_COUNT>
21

> <PUBCHEM_ATOM_DEF_STEREO_COUNT>
1

> <PUBCHEM_ATOM_UDEF_STEREO_COUNT>
0

> <PUBCHEM_BOND_DEF_STEREO_COUNT>
0

> <PUBCHEM_BOND_UDEF_STEREO_COUNT>
0

> <PUBCHEM_ISOTOPIC_ATOM_COUNT>
0

> <PUBCHEM_COMPONENT_COUNT>
1

> <PUBCHEM_CACTVS_TAUTO_COUNT>
-1

> <PUBCHEM_COORDINATE_TYPE>
1
5
255

> <PUBCHEM_BONDANNOTATIONS>
12  18  8
15  19  8
18  19  8
5  2  6
8  15  8
8  9  8
9  12  8

$$$$
