44415954
  -OEChem-09292322282D

 67 70  0     0  0  0  0  0  0999 V2000
    8.7204    0.6797    0.0000 Cl  0  0  0  0  0  0  0  0  0  0  0  0
    6.6150   -1.6473    0.0000 O   0  0  0  0  0  0  0  0  0  0  0  0
    3.9491    2.4444    0.0000 N   0  0  0  0  0  0  0  0  0  0  0  0
    3.0814    4.2463    0.0000 N   0  0  0  0  0  0  0  0  0  0  0  0
    4.8830   -0.6473    0.0000 N   0  0  0  0  0  0  0  0  0  0  0  0
    4.8830   -1.6473    0.0000 N   0  0  0  0  0  0  0  0  0  0  0  0
    5.3830    1.5434    0.0000 N   0  0  0  0  0  0  0  0  0  0  0  0
    2.9519    2.5191    0.0000 C   0  0  0  0  0  0  0  0  0  0  0  0
    4.5125    3.2706    0.0000 C   0  0  0  0  0  0  0  0  0  0  0  0
    2.5180    3.4201    0.0000 C   0  0  0  0  0  0  0  0  0  0  0  0
    4.0786    4.1716    0.0000 C   0  0  0  0  0  0  0  0  0  0  0  0
    5.7490   -3.1473    0.0000 C   0  0  0  0  0  0  0  0  0  0  0  0
    4.3830    1.5434    0.0000 C   0  0  0  0  0  0  0  0  0  0  0  0
    6.6150   -3.6473    0.0000 C   0  0  0  0  0  0  0  0  0  0  0  0
    4.8830   -3.6473    0.0000 C   0  0  0  0  0  0  0  0  0  0  0  0
    3.7595    0.7616    0.0000 C   0  0  0  0  0  0  0  0  0  0  0  0
    3.9820   -0.2134    0.0000 C   0  0  0  0  0  0  0  0  0  0  0  0
    2.6475    5.1473    0.0000 C   0  0  0  0  0  0  0  0  0  0  0  0
    5.7490   -2.1473    0.0000 C   0  0  0  0  0  0  0  0  0  0  0  0
    5.7840   -0.2134    0.0000 C   0  0  0  0  0  0  0  0  0  0  0  0
    6.6150   -4.6473    0.0000 C   0  0  0  0  0  0  0  0  0  0  0  0
    4.8830   -4.6473    0.0000 C   0  0  0  0  0  0  0  0  0  0  0  0
    6.0065    0.7615    0.0000 C   0  0  0  0  0  0  0  0  0  0  0  0
    2.7690    1.0839    0.0000 C   0  0  0  0  0  0  0  0  0  0  0  0
    3.2295   -0.9335    0.0000 C   0  0  0  0  0  0  0  0  0  0  0  0
    7.4810   -5.1473    0.0000 C   0  0  0  0  0  0  0  0  0  0  0  0
    4.0169   -5.1472    0.0000 C   0  0  0  0  0  0  0  0  0  0  0  0
    6.5365   -0.9336    0.0000 C   0  0  0  0  0  0  0  0  0  0  0  0
    2.0000    0.3813    0.0000 C   0  0  0  0  0  0  0  0  0  0  0  0
    6.9970    1.0839    0.0000 C   0  0  0  0  0  0  0  0  0  0  0  0
    2.2318   -0.6342    0.0000 C   0  0  0  0  0  0  0  0  0  0  0  0
    7.5342   -0.6342    0.0000 C   0  0  0  0  0  0  0  0  0  0  0  0
    7.7660    0.3813    0.0000 C   0  0  0  0  0  0  0  0  0  0  0  0
    2.3551    2.3512    0.0000 H   0  0  0  0  0  0  0  0  0  0  0  0
    3.0137    1.9022    0.0000 H   0  0  0  0  0  0  0  0  0  0  0  0
    4.9563    2.8377    0.0000 H   0  0  0  0  0  0  0  0  0  0  0  0
    5.0159    3.6325    0.0000 H   0  0  0  0  0  0  0  0  0  0  0  0
    2.0742    3.8530    0.0000 H   0  0  0  0  0  0  0  0  0  0  0  0
    2.0146    3.0582    0.0000 H   0  0  0  0  0  0  0  0  0  0  0  0
    4.6754    4.3395    0.0000 H   0  0  0  0  0  0  0  0  0  0  0  0
    4.0168    4.7885    0.0000 H   0  0  0  0  0  0  0  0  0  0  0  0
    5.2121   -2.8373    0.0000 H   0  0  0  0  0  0  0  0  0  0  0  0
    7.2256   -3.7549    0.0000 H   0  0  0  0  0  0  0  0  0  0  0  0
    6.8271   -3.0647    0.0000 H   0  0  0  0  0  0  0  0  0  0  0  0
    4.6709   -3.0646    0.0000 H   0  0  0  0  0  0  0  0  0  0  0  0
    4.2724   -3.7549    0.0000 H   0  0  0  0  0  0  0  0  0  0  0  0
    3.2061    5.4163    0.0000 H   0  0  0  0  0  0  0  0  0  0  0  0
    2.3785    5.7059    0.0000 H   0  0  0  0  0  0  0  0  0  0  0  0
    2.0889    4.8783    0.0000 H   0  0  0  0  0  0  0  0  0  0  0  0
    6.0044   -4.5396    0.0000 H   0  0  0  0  0  0  0  0  0  0  0  0
    6.4030   -5.2299    0.0000 H   0  0  0  0  0  0  0  0  0  0  0  0
    5.0950   -5.2299    0.0000 H   0  0  0  0  0  0  0  0  0  0  0  0
    5.4935   -4.5396    0.0000 H   0  0  0  0  0  0  0  0  0  0  0  0
    4.3460   -1.9572    0.0000 H   0  0  0  0  0  0  0  0  0  0  0  0
    2.6380    1.6899    0.0000 H   0  0  0  0  0  0  0  0  0  0  0  0
    3.3744   -1.5364    0.0000 H   0  0  0  0  0  0  0  0  0  0  0  0
    7.1710   -5.6842    0.0000 H   0  0  0  0  0  0  0  0  0  0  0  0
    8.0180   -5.4573    0.0000 H   0  0  0  0  0  0  0  0  0  0  0  0
    7.7910   -4.6103    0.0000 H   0  0  0  0  0  0  0  0  0  0  0  0
    3.7069   -4.6103    0.0000 H   0  0  0  0  0  0  0  0  0  0  0  0
    3.4800   -5.4572    0.0000 H   0  0  0  0  0  0  0  0  0  0  0  0
    4.3269   -5.6842    0.0000 H   0  0  0  0  0  0  0  0  0  0  0  0
    6.3916   -1.5364    0.0000 H   0  0  0  0  0  0  0  0  0  0  0  0
    1.4083    0.5664    0.0000 H   0  0  0  0  0  0  0  0  0  0  0  0
    7.1280    1.6899    0.0000 H   0  0  0  0  0  0  0  0  0  0  0  0
    1.7789   -1.0576    0.0000 H   0  0  0  0  0  0  0  0  0  0  0  0
    7.9871   -1.0577    0.0000 H   0  0  0  0  0  0  0  0  0  0  0  0
  1 33  1  0  0  0  0
  2 19  2  0  0  0  0
  3  8  1  0  0  0  0
  3  9  1  0  0  0  0
  3 13  1  0  0  0  0
  4 10  1  0  0  0  0
  4 11  1  0  0  0  0
  4 18  1  0  0  0  0
  5  6  1  0  0  0  0
  5 17  1  0  0  0  0
  5 20  1  0  0  0  0
  6 19  1  0  0  0  0
  6 54  1  0  0  0  0
  7 13  2  0  0  0  0
  7 23  1  0  0  0  0
  8 10  1  0  0  0  0
  8 34  1  0  0  0  0
  8 35  1  0  0  0  0
  9 11  1  0  0  0  0
  9 36  1  0  0  0  0
  9 37  1  0  0  0  0
 10 38  1  0  0  0  0
 10 39  1  0  0  0  0
 11 40  1  0  0  0  0
 11 41  1  0  0  0  0
 12 14  1  0  0  0  0
 12 15  1  0  0  0  0
 12 19  1  0  0  0  0
 12 42  1  0  0  0  0
 13 16  1  0  0  0  0
 14 21  1  0  0  0  0
 14 43  1  0  0  0  0
 14 44  1  0  0  0  0
 15 22  1  0  0  0  0
 15 45  1  0  0  0  0
 15 46  1  0  0  0  0
 16 17  1  0  0  0  0
 16 24  2  0  0  0  0
 17 25  2  0  0  0  0
 18 47  1  0  0  0  0
 18 48  1  0  0  0  0
 18 49  1  0  0  0  0
 20 23  2  0  0  0  0
 20 28  1  0  0  0  0
 21 26  1  0  0  0  0
 21 50  1  0  0  0  0
 21 51  1  0  0  0  0
 22 27  1  0  0  0  0
 22 52  1  0  0  0  0
 22 53  1  0  0  0  0
 23 30  1  0  0  0  0
 24 29  1  0  0  0  0
 24 55  1  0  0  0  0
 25 31  1  0  0  0  0
 25 56  1  0  0  0  0
 26 57  1  0  0  0  0
 26 58  1  0  0  0  0
 26 59  1  0  0  0  0
 27 60  1  0  0  0  0
 27 61  1  0  0  0  0
 27 62  1  0  0  0  0
 28 32  2  0  0  0  0
 28 63  1  0  0  0  0
 29 31  2  0  0  0  0
 29 64  1  0  0  0  0
 30 33  2  0  0  0  0
 30 65  1  0  0  0  0
 31 66  1  0  0  0  0
 32 33  1  0  0  0  0
 32 67  1  0  0  0  0
M  END
> <PUBCHEM_COMPOUND_CID>
44415954

> <PUBCHEM_COMPOUND_CANONICALIZED>
1

> <PUBCHEM_CACTVS_COMPLEXITY>
674

> <PUBCHEM_CACTVS_HBOND_ACCEPTOR>
4

> <PUBCHEM_CACTVS_HBOND_DONOR>
1

> <PUBCHEM_CACTVS_ROTATABLE_BOND>
7

> <PUBCHEM_CACTVS_SUBSKEYS>
AAADcfB7oAAEAAAAAAAAAAAAAAAAAAAAAAA8YIAABAAAAAABQAAAHgIYAAAADQrBmCQzwINiAACoAidydACCBAEhBwAbqAEodpgIYPLB25GUIAhgkADIyAcYgAAOAABAAAICACAAAIAABAQAQAAAAAAAAA==

> <PUBCHEM_IUPAC_OPENEYE_NAME>
N-[3-chloro-6-(4-methylpiperazin-1-yl)benzo[b][1,4]benzodiazepin-11-yl]-2-propyl-pentanamide

> <PUBCHEM_IUPAC_CAS_NAME>
N-[3-chloro-6-(4-methyl-1-piperazinyl)-11-benzo[b][1,4]benzodiazepinyl]-2-propylpentanamide

> <PUBCHEM_IUPAC_NAME_MARKUP>
<I>N</I>-[3-chloro-6-(4-methylpiperazin-1-yl)benzo[b][1,4]benzodiazepin-11-yl]-2-propylpentanamide

> <PUBCHEM_IUPAC_NAME>
N-[3-chloro-6-(4-methylpiperazin-1-yl)benzo[b][1,4]benzodiazepin-11-yl]-2-propylpentanamide

> <PUBCHEM_IUPAC_SYSTEMATIC_NAME>
N-[3-chloranyl-6-(4-methylpiperazin-1-yl)benzo[b][1,4]benzodiazepin-11-yl]-2-propyl-pentanamide

> <PUBCHEM_IUPAC_TRADITIONAL_NAME>
N-[3-chloro-6-(4-methylpiperazino)benzo[b][1,4]benzodiazepin-11-yl]-2-propyl-valeramide

> <PUBCHEM_IUPAC_INCHI>
InChI=1S/C26H34ClN5O/c1-4-8-19(9-5-2)26(33)29-32-23-11-7-6-10-21(23)25(31-16-14-30(3)15-17-31)28-22-18-20(27)12-13-24(22)32/h6-7,10-13,18-19H,4-5,8-9,14-17H2,1-3H3,(H,29,33)

> <PUBCHEM_IUPAC_INCHIKEY>
KPULVFIDUFPCCH-UHFFFAOYSA-N

> <PUBCHEM_XLOGP3_AA>
5.6

> <PUBCHEM_EXACT_MASS>
467.2451884

> <PUBCHEM_MOLECULAR_FORMULA>
C26H34ClN5O

> <PUBCHEM_MOLECULAR_WEIGHT>
468.0

> <PUBCHEM_OPENEYE_CAN_SMILES>
CCCC(CCC)C(=O)NN1C2=C(C=C(C=C2)Cl)N=C(C3=CC=CC=C31)N4CCN(CC4)C

> <PUBCHEM_OPENEYE_ISO_SMILES>
CCCC(CCC)C(=O)NN1C2=C(C=C(C=C2)Cl)N=C(C3=CC=CC=C31)N4CCN(CC4)C

> <PUBCHEM_CACTVS_TPSA>
51.2

> <PUBCHEM_MONOISOTOPIC_WEIGHT>
467.2451884

> <PUBCHEM_TOTAL_CHARGE>
0

> <PUBCHEM_HEAVY_ATOM_COUNT>
33

> <PUBCHEM_ATOM_DEF_STEREO_COUNT>
0

> <PUBCHEM_ATOM_UDEF_STEREO_COUNT>
0

> <PUBCHEM_BOND_DEF_STEREO_COUNT>
0

> <PUBCHEM_BOND_UDEF_STEREO_COUNT>
0

> <PUBCHEM_ISOTOPIC_ATOM_COUNT>
0

> <PUBCHEM_COMPONENT_COUNT>
1

> <PUBCHEM_CACTVS_TAUTO_COUNT>
-1

> <PUBCHEM_COORDINATE_TYPE>
1
5
255

> <PUBCHEM_BONDANNOTATIONS>
16  17  8
16  24  8
17  25  8
20  23  8
20  28  8
23  30  8
24  29  8
25  31  8
28  32  8
29  31  8
30  33  8
32  33  8

$$$$
