66801379
  -OEChem-09292322342D

 57 61  0     0  0  0  0  0  0999 V2000
    8.7710   -2.9449    0.0000 S   0  0  0  0  0  0  0  0  0  0  0  0
    2.0000    3.3870    0.0000 S   0  0  0  0  0  0  0  0  0  0  0  0
   10.5833   -5.7496    0.0000 S   0  0  0  0  0  0  0  0  0  0  0  0
    7.7710   -2.9449    0.0000 O   0  0  0  0  0  0  0  0  0  0  0  0
    9.7710   -2.9449    0.0000 O   0  0  0  0  0  0  0  0  0  0  0  0
    6.1730    1.5551    0.0000 N   0  0  0  0  0  0  0  0  0  0  0  0
    4.4409    2.5551    0.0000 N   0  0  0  0  0  0  0  0  0  0  0  0
    8.7710   -1.9449    0.0000 N   0  0  0  0  0  0  0  0  0  0  0  0
    2.6671    2.6500    0.0000 N   0  0  0  0  0  0  0  0  0  0  0  0
   10.5833   -4.1402    0.0000 N   0  0  0  0  0  0  0  0  0  0  0  0
    6.1730    2.5551    0.0000 C   0  0  0  0  0  0  0  0  0  0  0  0
    5.3069    1.0551    0.0000 C   0  0  0  0  0  0  0  0  0  0  0  0
    5.3069    3.0551    0.0000 C   0  0  0  0  0  0  0  0  0  0  0  0
    4.4409    1.5551    0.0000 C   0  0  0  0  0  0  0  0  0  0  0  0
    7.0390    1.0551    0.0000 C   0  0  0  0  0  0  0  0  0  0  0  0
    7.0390    0.0551    0.0000 C   0  0  0  0  0  0  0  0  0  0  0  0
    7.9050   -0.4449    0.0000 C   0  0  0  0  0  0  0  0  0  0  0  0
    3.5749    3.0551    0.0000 C   0  0  0  0  0  0  0  0  0  0  0  0
    7.9050   -1.4449    0.0000 C   0  0  0  0  0  0  0  0  0  0  0  0
    3.4718    4.0438    0.0000 C   0  0  0  0  0  0  0  0  0  0  0  0
    2.4933    4.2501    0.0000 C   0  0  0  0  0  0  0  0  0  0  0  0
    4.1397    4.7881    0.0000 C   0  0  0  0  0  0  0  0  0  0  0  0
    8.7710   -3.9449    0.0000 C   0  0  0  0  0  0  0  0  0  0  0  0
    2.1827    5.2006    0.0000 C   0  0  0  0  0  0  0  0  0  0  0  0
    3.8290    5.7387    0.0000 C   0  0  0  0  0  0  0  0  0  0  0  0
    2.8505    5.9449    0.0000 C   0  0  0  0  0  0  0  0  0  0  0  0
    9.6370   -4.4449    0.0000 C   0  0  0  0  0  0  0  0  0  0  0  0
    7.9050   -4.4449    0.0000 C   0  0  0  0  0  0  0  0  0  0  0  0
    9.6370   -5.4449    0.0000 C   0  0  0  0  0  0  0  0  0  0  0  0
    7.9050   -5.4449    0.0000 C   0  0  0  0  0  0  0  0  0  0  0  0
    8.7710   -5.9449    0.0000 C   0  0  0  0  0  0  0  0  0  0  0  0
   11.1669   -4.9449    0.0000 C   0  0  0  0  0  0  0  0  0  0  0  0
    6.7835    2.4475    0.0000 H   0  0  0  0  0  0  0  0  0  0  0  0
    6.3850    3.1377    0.0000 H   0  0  0  0  0  0  0  0  0  0  0  0
    4.9084    0.5802    0.0000 H   0  0  0  0  0  0  0  0  0  0  0  0
    5.7054    0.5802    0.0000 H   0  0  0  0  0  0  0  0  0  0  0  0
    5.7054    3.5301    0.0000 H   0  0  0  0  0  0  0  0  0  0  0  0
    4.9084    3.5301    0.0000 H   0  0  0  0  0  0  0  0  0  0  0  0
    3.8303    1.6628    0.0000 H   0  0  0  0  0  0  0  0  0  0  0  0
    4.2288    0.9725    0.0000 H   0  0  0  0  0  0  0  0  0  0  0  0
    7.6496    0.9475    0.0000 H   0  0  0  0  0  0  0  0  0  0  0  0
    7.2510    1.6377    0.0000 H   0  0  0  0  0  0  0  0  0  0  0  0
    6.4284    0.1628    0.0000 H   0  0  0  0  0  0  0  0  0  0  0  0
    6.8269   -0.5275    0.0000 H   0  0  0  0  0  0  0  0  0  0  0  0
    8.5156   -0.5525    0.0000 H   0  0  0  0  0  0  0  0  0  0  0  0
    8.1171    0.1377    0.0000 H   0  0  0  0  0  0  0  0  0  0  0  0
    7.2944   -1.3372    0.0000 H   0  0  0  0  0  0  0  0  0  0  0  0
    7.6930   -2.0275    0.0000 H   0  0  0  0  0  0  0  0  0  0  0  0
    9.3080   -1.6349    0.0000 H   0  0  0  0  0  0  0  0  0  0  0  0
    4.7463    4.6603    0.0000 H   0  0  0  0  0  0  0  0  0  0  0  0
    1.5760    5.3284    0.0000 H   0  0  0  0  0  0  0  0  0  0  0  0
    4.2431    6.2001    0.0000 H   0  0  0  0  0  0  0  0  0  0  0  0
    2.6579    6.5342    0.0000 H   0  0  0  0  0  0  0  0  0  0  0  0
    7.3681   -4.1349    0.0000 H   0  0  0  0  0  0  0  0  0  0  0  0
    7.3681   -5.7549    0.0000 H   0  0  0  0  0  0  0  0  0  0  0  0
    8.7710   -6.5649    0.0000 H   0  0  0  0  0  0  0  0  0  0  0  0
   11.7869   -4.9449    0.0000 H   0  0  0  0  0  0  0  0  0  0  0  0
  1  4  2  0  0  0  0
  1  5  2  0  0  0  0
  1  8  1  0  0  0  0
  1 23  1  0  0  0  0
  2  9  1  0  0  0  0
  2 21  1  0  0  0  0
  3 29  1  0  0  0  0
  3 32  1  0  0  0  0
  6 11  1  0  0  0  0
  6 12  1  0  0  0  0
  6 15  1  0  0  0  0
  7 13  1  0  0  0  0
  7 14  1  0  0  0  0
  7 18  1  0  0  0  0
  8 19  1  0  0  0  0
  8 49  1  0  0  0  0
  9 18  2  0  0  0  0
 10 27  1  0  0  0  0
 10 32  2  0  0  0  0
 11 13  1  0  0  0  0
 11 33  1  0  0  0  0
 11 34  1  0  0  0  0
 12 14  1  0  0  0  0
 12 35  1  0  0  0  0
 12 36  1  0  0  0  0
 13 37  1  0  0  0  0
 13 38  1  0  0  0  0
 14 39  1  0  0  0  0
 14 40  1  0  0  0  0
 15 16  1  0  0  0  0
 15 41  1  0  0  0  0
 15 42  1  0  0  0  0
 16 17  1  0  0  0  0
 16 43  1  0  0  0  0
 16 44  1  0  0  0  0
 17 19  1  0  0  0  0
 17 45  1  0  0  0  0
 17 46  1  0  0  0  0
 18 20  1  0  0  0  0
 19 47  1  0  0  0  0
 19 48  1  0  0  0  0
 20 21  1  0  0  0  0
 20 22  2  0  0  0  0
 21 24  2  0  0  0  0
 22 25  1  0  0  0  0
 22 50  1  0  0  0  0
 23 27  1  0  0  0  0
 23 28  2  0  0  0  0
 24 26  1  0  0  0  0
 24 51  1  0  0  0  0
 25 26  2  0  0  0  0
 25 52  1  0  0  0  0
 26 53  1  0  0  0  0
 27 29  2  0  0  0  0
 28 30  1  0  0  0  0
 28 54  1  0  0  0  0
 29 31  1  0  0  0  0
 30 31  2  0  0  0  0
 30 55  1  0  0  0  0
 31 56  1  0  0  0  0
 32 57  1  0  0  0  0
M  END
> <PUBCHEM_COMPOUND_CID>
66801379

> <PUBCHEM_COMPOUND_CANONICALIZED>
1

> <PUBCHEM_CACTVS_COMPLEXITY>
713

> <PUBCHEM_CACTVS_HBOND_ACCEPTOR>
9

> <PUBCHEM_CACTVS_HBOND_DONOR>
1

> <PUBCHEM_CACTVS_ROTATABLE_BOND>
8

> <PUBCHEM_CACTVS_SUBSKEYS>
AAADceB7sABgAAAAAAAAAAAAAAAAAWLAAAA8YIAAAAAAAFgB/gAAHAQQQAAADAjBXgS18fNIEAqkAyZjZHDD8LBxCDhJ2LwoRJiIYKLgmZGUIAxgkALIyAcQgAAOAAAAAEAEAQAAAAAAgAgCAAAAAAAAAA==

> <PUBCHEM_IUPAC_OPENEYE_NAME>
N-[4-[4-(1,2-benzothiazol-3-yl)piperazin-1-yl]butyl]-1,3-benzothiazole-4-sulfonamide

> <PUBCHEM_IUPAC_CAS_NAME>
N-[4-[4-(1,2-benzothiazol-3-yl)-1-piperazinyl]butyl]-1,3-benzothiazole-4-sulfonamide

> <PUBCHEM_IUPAC_NAME_MARKUP>
<I>N</I>-[4-[4-(1,2-benzothiazol-3-yl)piperazin-1-yl]butyl]-1,3-benzothiazole-4-sulfonamide

> <PUBCHEM_IUPAC_NAME>
N-[4-[4-(1,2-benzothiazol-3-yl)piperazin-1-yl]butyl]-1,3-benzothiazole-4-sulfonamide

> <PUBCHEM_IUPAC_SYSTEMATIC_NAME>
N-[4-[4-(1,2-benzothiazol-3-yl)piperazin-1-yl]butyl]-1,3-benzothiazole-4-sulfonamide

> <PUBCHEM_IUPAC_TRADITIONAL_NAME>
N-[4-[4-(1,2-benzothiazol-3-yl)piperazino]butyl]-1,3-benzothiazole-4-sulfonamide

> <PUBCHEM_IUPAC_INCHI>
InChI=1S/C22H25N5O2S3/c28-32(29,20-9-5-8-19-21(20)23-16-30-19)24-10-3-4-11-26-12-14-27(15-13-26)22-17-6-1-2-7-18(17)31-25-22/h1-2,5-9,16,24H,3-4,10-15H2

> <PUBCHEM_IUPAC_INCHIKEY>
YQHLZLIFZLFKSH-UHFFFAOYSA-N

> <PUBCHEM_XLOGP3_AA>
4.4

> <PUBCHEM_EXACT_MASS>
487.11703858

> <PUBCHEM_MOLECULAR_FORMULA>
C22H25N5O2S3

> <PUBCHEM_MOLECULAR_WEIGHT>
487.7

> <PUBCHEM_OPENEYE_CAN_SMILES>
C1CN(CCN1CCCCNS(=O)(=O)C2=CC=CC3=C2N=CS3)C4=NSC5=CC=CC=C54

> <PUBCHEM_OPENEYE_ISO_SMILES>
C1CN(CCN1CCCCNS(=O)(=O)C2=CC=CC3=C2N=CS3)C4=NSC5=CC=CC=C54

> <PUBCHEM_CACTVS_TPSA>
143

> <PUBCHEM_MONOISOTOPIC_WEIGHT>
487.11703858

> <PUBCHEM_TOTAL_CHARGE>
0

> <PUBCHEM_HEAVY_ATOM_COUNT>
32

> <PUBCHEM_ATOM_DEF_STEREO_COUNT>
0

> <PUBCHEM_ATOM_UDEF_STEREO_COUNT>
0

> <PUBCHEM_BOND_DEF_STEREO_COUNT>
0

> <PUBCHEM_BOND_UDEF_STEREO_COUNT>
0

> <PUBCHEM_ISOTOPIC_ATOM_COUNT>
0

> <PUBCHEM_COMPONENT_COUNT>
1

> <PUBCHEM_CACTVS_TAUTO_COUNT>
-1

> <PUBCHEM_COORDINATE_TYPE>
1
5
255

> <PUBCHEM_BONDANNOTATIONS>
10  27  8
10  32  8
18  20  8
2  21  8
2  9  8
20  21  8
20  22  8
21  24  8
22  25  8
23  27  8
23  28  8
24  26  8
25  26  8
27  29  8
28  30  8
29  31  8
3  29  8
3  32  8
30  31  8
9  18  8

$$$$
