71462178
  -OEChem-09292322332D

 60 64  0     1  0  0  0  0  0999 V2000
   11.0208   -0.8095    0.0000 O   0  0  0  0  0  0  0  0  0  0  0  0
    6.3981    1.3245    0.0000 O   0  0  0  0  0  0  0  0  0  0  0  0
    9.2128    1.1221    0.0000 N   0  0  3  0  0  0  0  0  0  0  0  0
    7.2641    2.8245    0.0000 N   0  0  0  0  0  0  0  0  0  0  0  0
    4.6660    2.3245    0.0000 N   0  0  0  0  0  0  0  0  0  0  0  0
    8.1301    2.3245    0.0000 C   0  0  3  0  0  0  0  0  0  0  0  0
    9.0437    2.7313    0.0000 C   0  0  0  0  0  0  0  0  0  0  0  0
    8.2347    1.3300    0.0000 C   0  0  0  0  0  0  0  0  0  0  0  0
    9.7128    1.9881    0.0000 C   0  0  0  0  0  0  0  0  0  0  0  0
    9.6196    0.2085    0.0000 C   0  0  0  0  0  0  0  0  0  0  0  0
   10.6141    0.1040    0.0000 C   0  0  0  0  0  0  0  0  0  0  0  0
    6.3981    2.3245    0.0000 C   0  0  0  0  0  0  0  0  0  0  0  0
    5.5321    2.8245    0.0000 C   0  0  0  0  0  0  0  0  0  0  0  0
   12.0153   -0.9141    0.0000 C   0  0  0  0  0  0  0  0  0  0  0  0
    5.5321    3.8245    0.0000 C   0  0  0  0  0  0  0  0  0  0  0  0
   12.4221   -1.8276    0.0000 C   0  0  0  0  0  0  0  0  0  0  0  0
    3.8000    2.8245    0.0000 C   0  0  0  0  0  0  0  0  0  0  0  0
   12.6031   -0.1050    0.0000 C   0  0  0  0  0  0  0  0  0  0  0  0
    4.6660    4.3245    0.0000 C   0  0  0  0  0  0  0  0  0  0  0  0
    3.8000    3.8245    0.0000 C   0  0  0  0  0  0  0  0  0  0  0  0
   11.8343   -2.6366    0.0000 C   0  0  0  0  0  0  0  0  0  0  0  0
   13.4166   -1.9321    0.0000 C   0  0  0  0  0  0  0  0  0  0  0  0
   13.5976   -0.2096    0.0000 C   0  0  0  0  0  0  0  0  0  0  0  0
   14.0044   -1.1231    0.0000 C   0  0  0  0  0  0  0  0  0  0  0  0
    2.9061    2.2899    0.0000 C   0  0  0  0  0  0  0  0  0  0  0  0
    2.9061    4.3592    0.0000 C   0  0  0  0  0  0  0  0  0  0  0  0
   10.8398   -2.5321    0.0000 C   0  0  0  0  0  0  0  0  0  0  0  0
   12.2410   -3.5502    0.0000 C   0  0  0  0  0  0  0  0  0  0  0  0
    2.0000    2.8037    0.0000 C   0  0  0  0  0  0  0  0  0  0  0  0
    2.0000    3.8453    0.0000 C   0  0  0  0  0  0  0  0  0  0  0  0
   10.2520   -3.3411    0.0000 C   0  0  0  0  0  0  0  0  0  0  0  0
   11.6532   -4.3592    0.0000 C   0  0  0  0  0  0  0  0  0  0  0  0
   10.6587   -4.2547    0.0000 C   0  0  0  0  0  0  0  0  0  0  0  0
    7.6102    1.9868    0.0000 H   0  0  0  0  0  0  0  0  0  0  0  0
    9.5453    3.0957    0.0000 H   0  0  0  0  0  0  0  0  0  0  0  0
    8.7337    3.2682    0.0000 H   0  0  0  0  0  0  0  0  0  0  0  0
    7.6147    1.3300    0.0000 H   0  0  0  0  0  0  0  0  0  0  0  0
    8.1699    0.7134    0.0000 H   0  0  0  0  0  0  0  0  0  0  0  0
   10.2144    1.6237    0.0000 H   0  0  0  0  0  0  0  0  0  0  0  0
   10.1277    2.4489    0.0000 H   0  0  0  0  0  0  0  0  0  0  0  0
    9.0180    0.0586    0.0000 H   0  0  0  0  0  0  0  0  0  0  0  0
    9.6628   -0.4099    0.0000 H   0  0  0  0  0  0  0  0  0  0  0  0
    7.2641    3.4445    0.0000 H   0  0  0  0  0  0  0  0  0  0  0  0
   11.2157    0.2540    0.0000 H   0  0  0  0  0  0  0  0  0  0  0  0
   10.5708    0.7225    0.0000 H   0  0  0  0  0  0  0  0  0  0  0  0
    6.0690    4.1345    0.0000 H   0  0  0  0  0  0  0  0  0  0  0  0
   12.3509    0.4614    0.0000 H   0  0  0  0  0  0  0  0  0  0  0  0
    4.6660    4.9445    0.0000 H   0  0  0  0  0  0  0  0  0  0  0  0
   13.6688   -2.4985    0.0000 H   0  0  0  0  0  0  0  0  0  0  0  0
   13.9621    0.2920    0.0000 H   0  0  0  0  0  0  0  0  0  0  0  0
   14.6210   -1.1879    0.0000 H   0  0  0  0  0  0  0  0  0  0  0  0
    2.9132    1.6699    0.0000 H   0  0  0  0  0  0  0  0  0  0  0  0
    2.9132    4.9791    0.0000 H   0  0  0  0  0  0  0  0  0  0  0  0
   10.5876   -1.9657    0.0000 H   0  0  0  0  0  0  0  0  0  0  0  0
   12.8576   -3.6150    0.0000 H   0  0  0  0  0  0  0  0  0  0  0  0
    1.4643    2.4916    0.0000 H   0  0  0  0  0  0  0  0  0  0  0  0
    1.4643    4.1574    0.0000 H   0  0  0  0  0  0  0  0  0  0  0  0
    9.6354   -3.2763    0.0000 H   0  0  0  0  0  0  0  0  0  0  0  0
   11.9054   -4.9256    0.0000 H   0  0  0  0  0  0  0  0  0  0  0  0
   10.2943   -4.7562    0.0000 H   0  0  0  0  0  0  0  0  0  0  0  0
  1 11  1  0  0  0  0
  1 14  1  0  0  0  0
  2 12  2  0  0  0  0
  3  8  1  0  0  0  0
  3  9  1  0  0  0  0
  3 10  1  0  0  0  0
  4  6  1  0  0  0  0
  4 12  1  0  0  0  0
  4 43  1  0  0  0  0
  5 13  2  0  0  0  0
  5 17  1  0  0  0  0
  6  7  1  0  0  0  0
  6  8  1  0  0  0  0
  6 34  1  0  0  0  0
  7  9  1  0  0  0  0
  7 35  1  0  0  0  0
  7 36  1  0  0  0  0
  8 37  1  0  0  0  0
  8 38  1  0  0  0  0
  9 39  1  0  0  0  0
  9 40  1  0  0  0  0
 10 11  1  0  0  0  0
 10 41  1  0  0  0  0
 10 42  1  0  0  0  0
 11 44  1  0  0  0  0
 11 45  1  0  0  0  0
 12 13  1  0  0  0  0
 13 15  1  0  0  0  0
 14 16  1  0  0  0  0
 14 18  2  0  0  0  0
 15 19  2  0  0  0  0
 15 46  1  0  0  0  0
 16 21  1  0  0  0  0
 16 22  2  0  0  0  0
 17 20  1  0  0  0  0
 17 25  2  0  0  0  0
 18 23  1  0  0  0  0
 18 47  1  0  0  0  0
 19 20  1  0  0  0  0
 19 48  1  0  0  0  0
 20 26  2  0  0  0  0
 21 27  2  0  0  0  0
 21 28  1  0  0  0  0
 22 24  1  0  0  0  0
 22 49  1  0  0  0  0
 23 24  2  0  0  0  0
 23 50  1  0  0  0  0
 24 51  1  0  0  0  0
 25 29  1  0  0  0  0
 25 52  1  0  0  0  0
 26 30  1  0  0  0  0
 26 53  1  0  0  0  0
 27 31  1  0  0  0  0
 27 54  1  0  0  0  0
 28 32  2  0  0  0  0
 28 55  1  0  0  0  0
 29 30  2  0  0  0  0
 29 56  1  0  0  0  0
 30 57  1  0  0  0  0
 31 33  2  0  0  0  0
 31 58  1  0  0  0  0
 32 33  1  0  0  0  0
 32 59  1  0  0  0  0
 33 60  1  0  0  0  0
M  END
> <PUBCHEM_COMPOUND_CID>
71462178

> <PUBCHEM_COMPOUND_CANONICALIZED>
1

> <PUBCHEM_CACTVS_COMPLEXITY>
622

> <PUBCHEM_CACTVS_HBOND_ACCEPTOR>
4

> <PUBCHEM_CACTVS_HBOND_DONOR>
1

> <PUBCHEM_CACTVS_ROTATABLE_BOND>
7

> <PUBCHEM_CACTVS_SUBSKEYS>
AAADceB7MAAAAAAAAAAAAAAAAAAAAWAAAAA8YMEAAAAAAACx9AAAHgAQAAAADCzhngYwxvPIFACoAyVyVACCiCAnIiAImKG+bNgOZvLE9buXOSjk1hHY6YeYyOCOgAAAAAAKAAAAAAAAABQAAAAAAAAAAA==

> <PUBCHEM_IUPAC_OPENEYE_NAME>
N-[1-[2-(2-phenylphenoxy)ethyl]pyrrolidin-3-yl]quinoline-2-carboxamide

> <PUBCHEM_IUPAC_CAS_NAME>
N-[1-[2-(2-phenylphenoxy)ethyl]-3-pyrrolidinyl]-2-quinolinecarboxamide

> <PUBCHEM_IUPAC_NAME_MARKUP>
<I>N</I>-[1-[2-(2-phenylphenoxy)ethyl]pyrrolidin-3-yl]quinoline-2-carboxamide

> <PUBCHEM_IUPAC_NAME>
N-[1-[2-(2-phenylphenoxy)ethyl]pyrrolidin-3-yl]quinoline-2-carboxamide

> <PUBCHEM_IUPAC_SYSTEMATIC_NAME>
N-[1-[2-(2-phenylphenoxy)ethyl]pyrrolidin-3-yl]quinoline-2-carboxamide

> <PUBCHEM_IUPAC_TRADITIONAL_NAME>
N-[1-[2-(2-phenylphenoxy)ethyl]pyrrolidin-3-yl]quinaldamide

> <PUBCHEM_IUPAC_INCHI>
InChI=1S/C28H27N3O2/c32-28(26-15-14-22-10-4-6-12-25(22)30-26)29-23-16-17-31(20-23)18-19-33-27-13-7-5-11-24(27)21-8-2-1-3-9-21/h1-15,23H,16-20H2,(H,29,32)

> <PUBCHEM_IUPAC_INCHIKEY>
LYYTTXCSEIAHQX-UHFFFAOYSA-N

> <PUBCHEM_XLOGP3_AA>
5.3

> <PUBCHEM_EXACT_MASS>
437.21032711

> <PUBCHEM_MOLECULAR_FORMULA>
C28H27N3O2

> <PUBCHEM_MOLECULAR_WEIGHT>
437.5

> <PUBCHEM_OPENEYE_CAN_SMILES>
C1CN(CC1NC(=O)C2=NC3=CC=CC=C3C=C2)CCOC4=CC=CC=C4C5=CC=CC=C5

> <PUBCHEM_OPENEYE_ISO_SMILES>
C1CN(CC1NC(=O)C2=NC3=CC=CC=C3C=C2)CCOC4=CC=CC=C4C5=CC=CC=C5

> <PUBCHEM_CACTVS_TPSA>
54.5

> <PUBCHEM_MONOISOTOPIC_WEIGHT>
437.21032711

> <PUBCHEM_TOTAL_CHARGE>
0

> <PUBCHEM_HEAVY_ATOM_COUNT>
33

> <PUBCHEM_ATOM_DEF_STEREO_COUNT>
0

> <PUBCHEM_ATOM_UDEF_STEREO_COUNT>
1

> <PUBCHEM_BOND_DEF_STEREO_COUNT>
0

> <PUBCHEM_BOND_UDEF_STEREO_COUNT>
0

> <PUBCHEM_ISOTOPIC_ATOM_COUNT>
0

> <PUBCHEM_COMPONENT_COUNT>
1

> <PUBCHEM_CACTVS_TAUTO_COUNT>
-1

> <PUBCHEM_COORDINATE_TYPE>
1
5
255

> <PUBCHEM_BONDANNOTATIONS>
13  15  8
14  16  8
14  18  8
15  19  8
16  22  8
17  20  8
17  25  8
18  23  8
19  20  8
20  26  8
21  27  8
21  28  8
22  24  8
23  24  8
25  29  8
26  30  8
27  31  8
28  32  8
29  30  8
31  33  8
32  33  8
6  4  3
5  13  8
5  17  8

$$$$
