146025817
  -OEChem-09292322012D

 46 49  0     1  0  0  0  0  0999 V2000
    4.6497    1.7484    0.0000 O   0  0  0  0  0  0  0  0  0  0  0  0
    2.8680    0.7380    0.0000 O   0  0  0  0  0  0  0  0  0  0  0  0
    8.1223   -1.2831    0.0000 N   0  0  3  0  0  0  0  0  0  0  0  0
    7.2641   -0.7862    0.0000 C   0  0  1  0  0  0  0  0  0  0  0  0
    7.2641    0.2138    0.0000 C   0  0  0  0  0  0  0  0  0  0  0  0
    6.3981   -1.2862    0.0000 C   0  0  0  0  0  0  0  0  0  0  0  0
    8.1741    0.7207    0.0000 C   0  0  0  0  0  0  0  0  0  0  0  0
    8.9878   -0.7989    0.0000 C   0  0  0  0  0  0  0  0  0  0  0  0
    9.0134    0.1924    0.0000 C   0  0  0  0  0  0  0  0  0  0  0  0
    6.3981    0.7138    0.0000 C   0  0  0  0  0  0  0  0  0  0  0  0
    5.5320   -0.7862    0.0000 C   0  0  0  0  0  0  0  0  0  0  0  0
    5.5320    0.2138    0.0000 C   0  0  0  0  0  0  0  0  0  0  0  0
    8.1821    1.7623    0.0000 C   0  0  0  0  0  0  0  0  0  0  0  0
    8.1149   -2.2831    0.0000 C   0  0  0  0  0  0  0  0  0  0  0  0
    6.3820    1.7553    0.0000 C   0  0  0  0  0  0  0  0  0  0  0  0
    7.2800    2.2831    0.0000 C   0  0  0  0  0  0  0  0  0  0  0  0
    4.6381    0.7485    0.0000 C   0  0  0  0  0  0  0  0  0  0  0  0
    4.6381   -1.3208    0.0000 C   0  0  0  0  0  0  0  0  0  0  0  0
    9.0501    2.2589    0.0000 C   0  0  0  0  0  0  0  0  0  0  0  0
    3.7320    0.2346    0.0000 C   0  0  0  0  0  0  0  0  0  0  0  0
    3.7320   -0.8070    0.0000 C   0  0  0  0  0  0  0  0  0  0  0  0
    3.7895    2.2584    0.0000 C   0  0  0  0  0  0  0  0  0  0  0  0
    2.0000    0.2413    0.0000 C   0  0  0  0  0  0  0  0  0  0  0  0
    7.2636   -1.6362    0.0000 H   0  0  0  0  0  0  0  0  0  0  0  0
    5.9995   -1.7611    0.0000 H   0  0  0  0  0  0  0  0  0  0  0  0
    6.7966   -1.7611    0.0000 H   0  0  0  0  0  0  0  0  0  0  0  0
    9.1895   -1.3852    0.0000 H   0  0  0  0  0  0  0  0  0  0  0  0
    9.6006   -0.7046    0.0000 H   0  0  0  0  0  0  0  0  0  0  0  0
    9.6205    0.0665    0.0000 H   0  0  0  0  0  0  0  0  0  0  0  0
    9.2452    0.7675    0.0000 H   0  0  0  0  0  0  0  0  0  0  0  0
    7.4949   -2.2785    0.0000 H   0  0  0  0  0  0  0  0  0  0  0  0
    8.1103   -2.9031    0.0000 H   0  0  0  0  0  0  0  0  0  0  0  0
    8.7349   -2.2877    0.0000 H   0  0  0  0  0  0  0  0  0  0  0  0
    5.8415    2.0591    0.0000 H   0  0  0  0  0  0  0  0  0  0  0  0
    7.2777    2.9031    0.0000 H   0  0  0  0  0  0  0  0  0  0  0  0
    4.6453   -1.9408    0.0000 H   0  0  0  0  0  0  0  0  0  0  0  0
    9.3580    1.7208    0.0000 H   0  0  0  0  0  0  0  0  0  0  0  0
    9.5882    2.5668    0.0000 H   0  0  0  0  0  0  0  0  0  0  0  0
    8.7422    2.7970    0.0000 H   0  0  0  0  0  0  0  0  0  0  0  0
    3.1963   -1.1191    0.0000 H   0  0  0  0  0  0  0  0  0  0  0  0
    4.1057    2.7917    0.0000 H   0  0  0  0  0  0  0  0  0  0  0  0
    3.2562    2.5746    0.0000 H   0  0  0  0  0  0  0  0  0  0  0  0
    3.4733    1.7251    0.0000 H   0  0  0  0  0  0  0  0  0  0  0  0
    1.6921    0.7794    0.0000 H   0  0  0  0  0  0  0  0  0  0  0  0
    1.4619   -0.0666    0.0000 H   0  0  0  0  0  0  0  0  0  0  0  0
    2.3079   -0.2968    0.0000 H   0  0  0  0  0  0  0  0  0  0  0  0
  1 17  1  0  0  0  0
  1 22  1  0  0  0  0
  2 20  1  0  0  0  0
  2 23  1  0  0  0  0
  3  4  1  0  0  0  0
  3  8  1  0  0  0  0
  3 14  1  0  0  0  0
  4  5  1  0  0  0  0
  4  6  1  0  0  0  0
  4 24  1  1  0  0  0
  5  7  1  0  0  0  0
  5 10  2  0  0  0  0
  6 11  1  0  0  0  0
  6 25  1  0  0  0  0
  6 26  1  0  0  0  0
  7  9  1  0  0  0  0
  7 13  2  0  0  0  0
  8  9  1  0  0  0  0
  8 27  1  0  0  0  0
  8 28  1  0  0  0  0
  9 29  1  0  0  0  0
  9 30  1  0  0  0  0
 10 12  1  0  0  0  0
 10 15  1  0  0  0  0
 11 12  2  0  0  0  0
 11 18  1  0  0  0  0
 12 17  1  0  0  0  0
 13 16  1  0  0  0  0
 13 19  1  0  0  0  0
 14 31  1  0  0  0  0
 14 32  1  0  0  0  0
 14 33  1  0  0  0  0
 15 16  2  0  0  0  0
 15 34  1  0  0  0  0
 16 35  1  0  0  0  0
 17 20  2  0  0  0  0
 18 21  2  0  0  0  0
 18 36  1  0  0  0  0
 19 37  1  0  0  0  0
 19 38  1  0  0  0  0
 19 39  1  0  0  0  0
 20 21  1  0  0  0  0
 21 40  1  0  0  0  0
 22 41  1  0  0  0  0
 22 42  1  0  0  0  0
 22 43  1  0  0  0  0
 23 44  1  0  0  0  0
 23 45  1  0  0  0  0
 23 46  1  0  0  0  0
M  END
> <PUBCHEM_COMPOUND_CID>
146025817

> <PUBCHEM_COMPOUND_CANONICALIZED>
1

> <PUBCHEM_CACTVS_COMPLEXITY>
428

> <PUBCHEM_CACTVS_HBOND_ACCEPTOR>
3

> <PUBCHEM_CACTVS_HBOND_DONOR>
0

> <PUBCHEM_CACTVS_ROTATABLE_BOND>
2

> <PUBCHEM_CACTVS_SUBSKEYS>
AAADceB6MAAAAAAAAAAAAAAAAAAAAAAAAAA8YMEAAAAAAADxQAAAHgAAAAAADCzBmAYyBoMABACAAiBCAACCCAAgIAAIiAAOjIgNJiKEsRuEMCpkwBGKqAeQ0PMO4AADAAAYQADQAAaAADSAAAAAAAAAAA==

> <PUBCHEM_IUPAC_OPENEYE_NAME>
(6aR)-10,11-dimethoxy-3,6-dimethyl-5,6,6a,7-tetrahydro-4H-dibenzo[de,g]quinoline

> <PUBCHEM_IUPAC_CAS_NAME>
(6aR)-10,11-dimethoxy-3,6-dimethyl-5,6,6a,7-tetrahydro-4H-dibenzo[de,g]quinoline

> <PUBCHEM_IUPAC_NAME_MARKUP>
(6<I>a</I><I>R</I>)-10,11-dimethoxy-3,6-dimethyl-5,6,6<I>a</I>,7-tetrahydro-4<I>H</I>-dibenzo[de,g]quinoline

> <PUBCHEM_IUPAC_NAME>
(6aR)-10,11-dimethoxy-3,6-dimethyl-5,6,6a,7-tetrahydro-4H-dibenzo[de,g]quinoline

> <PUBCHEM_IUPAC_SYSTEMATIC_NAME>
(6aR)-10,11-dimethoxy-3,6-dimethyl-5,6,6a,7-tetrahydro-4H-dibenzo[de,g]quinoline

> <PUBCHEM_IUPAC_TRADITIONAL_NAME>
(6aR)-10,11-dimethoxy-3,6-dimethyl-5,6,6a,7-tetrahydro-4H-dibenzo[de,g]quinoline

> <PUBCHEM_IUPAC_INCHI>
InChI=1S/C20H23NO2/c1-12-5-7-15-18-13(6-8-17(22-3)20(18)23-4)11-16-19(15)14(12)9-10-21(16)2/h5-8,16H,9-11H2,1-4H3/t16-/m1/s1

> <PUBCHEM_IUPAC_INCHIKEY>
AVUWEGVPHVPZJZ-MRXNPFEDSA-N

> <PUBCHEM_XLOGP3>
3.3

> <PUBCHEM_EXACT_MASS>
309.172878976

> <PUBCHEM_MOLECULAR_FORMULA>
C20H23NO2

> <PUBCHEM_MOLECULAR_WEIGHT>
309.4

> <PUBCHEM_OPENEYE_CAN_SMILES>
CC1=C2CCN(C3C2=C(C=C1)C4=C(C3)C=CC(=C4OC)OC)C

> <PUBCHEM_OPENEYE_ISO_SMILES>
CC1=C2CCN([C@H]3C2=C(C=C1)C4=C(C3)C=CC(=C4OC)OC)C

> <PUBCHEM_CACTVS_TPSA>
21.7

> <PUBCHEM_MONOISOTOPIC_WEIGHT>
309.172878976

> <PUBCHEM_TOTAL_CHARGE>
0

> <PUBCHEM_HEAVY_ATOM_COUNT>
23

> <PUBCHEM_ATOM_DEF_STEREO_COUNT>
1

> <PUBCHEM_ATOM_UDEF_STEREO_COUNT>
0

> <PUBCHEM_BOND_DEF_STEREO_COUNT>
0

> <PUBCHEM_BOND_UDEF_STEREO_COUNT>
0

> <PUBCHEM_ISOTOPIC_ATOM_COUNT>
0

> <PUBCHEM_COMPONENT_COUNT>
1

> <PUBCHEM_CACTVS_TAUTO_COUNT>
-1

> <PUBCHEM_COORDINATE_TYPE>
1
5
255

> <PUBCHEM_BONDANNOTATIONS>
10  15  8
11  12  8
11  18  8
12  17  8
13  16  8
15  16  8
17  20  8
18  21  8
20  21  8
4  24  5
5  10  8
5  7  8
7  13  8

$$$$
