137649193
  -OEChem-09292322472D

 60 64  0     1  0  0  0  0  0999 V2000
    7.4392   -1.3245    0.0000 S   0  0  0  0  0  0  0  0  0  0  0  0
    4.0000    5.5289    0.0000 O   0  0  0  0  0  0  0  0  0  0  0  0
    5.0000    3.7968    0.0000 N   0  0  3  0  0  0  0  0  0  0  0  0
    5.7071    1.6755    0.0000 N   0  0  0  0  0  0  0  0  0  0  0  0
    6.6301   -2.9123    0.0000 N   0  0  0  0  0  0  0  0  0  0  0  0
    8.2482   -2.9123    0.0000 N   0  0  0  0  0  0  0  0  0  0  0  0
    7.9392   -3.8633    0.0000 N   0  0  0  0  0  0  0  0  0  0  0  0
    5.7071    3.0897    0.0000 C   0  0  0  0  0  0  0  0  0  0  0  0
    5.0000    2.3826    0.0000 C   0  0  0  0  0  0  0  0  0  0  0  0
    6.4142    2.3826    0.0000 C   0  0  0  0  0  0  0  0  0  0  0  0
    6.4142    3.7968    0.0000 C   0  0  0  0  0  0  0  0  0  0  0  0
    5.7071    4.5039    0.0000 C   0  0  0  0  0  0  0  0  0  0  0  0
    5.7071    0.6755    0.0000 C   0  0  0  0  0  0  0  0  0  0  0  0
    4.0000    3.7968    0.0000 C   0  0  0  0  0  0  0  0  0  0  0  0
    6.5731    0.1755    0.0000 C   0  0  0  0  0  0  0  0  0  0  0  0
    3.5000    4.6629    0.0000 C   0  0  0  0  0  0  0  0  0  0  0  0
    3.5000    2.9308    0.0000 C   0  0  0  0  0  0  0  0  0  0  0  0
    6.5731   -0.8245    0.0000 C   0  0  0  0  0  0  0  0  0  0  0  0
    2.5000    4.6629    0.0000 C   0  0  0  0  0  0  0  0  0  0  0  0
    2.5000    2.9308    0.0000 C   0  0  0  0  0  0  0  0  0  0  0  0
    2.0000    3.7968    0.0000 C   0  0  0  0  0  0  0  0  0  0  0  0
    3.5000    6.3949    0.0000 C   0  0  0  0  0  0  0  0  0  0  0  0
    7.4392   -2.3245    0.0000 C   0  0  0  0  0  0  0  0  0  0  0  0
    6.9392   -3.8633    0.0000 C   0  0  0  0  0  0  0  0  0  0  0  0
    5.6791   -2.6033    0.0000 C   0  0  0  0  0  0  0  0  0  0  0  0
    6.3514   -4.6724    0.0000 C   0  0  0  0  0  0  0  0  0  0  0  0
    5.3568   -4.5678    0.0000 C   0  0  0  0  0  0  0  0  0  0  0  0
    6.7581   -5.5859    0.0000 C   0  0  0  0  0  0  0  0  0  0  0  0
    4.7691   -5.3768    0.0000 C   0  0  0  0  0  0  0  0  0  0  0  0
    6.1703   -6.3949    0.0000 C   0  0  0  0  0  0  0  0  0  0  0  0
    5.1758   -6.2904    0.0000 C   0  0  0  0  0  0  0  0  0  0  0  0
    4.5616    2.8210    0.0000 H   0  0  0  0  0  0  0  0  0  0  0  0
    4.5616    1.9442    0.0000 H   0  0  0  0  0  0  0  0  0  0  0  0
    6.8526    1.9442    0.0000 H   0  0  0  0  0  0  0  0  0  0  0  0
    6.8526    2.8210    0.0000 H   0  0  0  0  0  0  0  0  0  0  0  0
    6.8526    3.3584    0.0000 H   0  0  0  0  0  0  0  0  0  0  0  0
    6.8526    4.2352    0.0000 H   0  0  0  0  0  0  0  0  0  0  0  0
    6.1455    4.9424    0.0000 H   0  0  0  0  0  0  0  0  0  0  0  0
    5.2687    4.9424    0.0000 H   0  0  0  0  0  0  0  0  0  0  0  0
    5.0965    0.7832    0.0000 H   0  0  0  0  0  0  0  0  0  0  0  0
    5.4950    0.0929    0.0000 H   0  0  0  0  0  0  0  0  0  0  0  0
    7.1837    0.0679    0.0000 H   0  0  0  0  0  0  0  0  0  0  0  0
    6.7852    0.7581    0.0000 H   0  0  0  0  0  0  0  0  0  0  0  0
    3.8100    2.3939    0.0000 H   0  0  0  0  0  0  0  0  0  0  0  0
    5.9626   -0.7168    0.0000 H   0  0  0  0  0  0  0  0  0  0  0  0
    6.3611   -1.4071    0.0000 H   0  0  0  0  0  0  0  0  0  0  0  0
    2.1900    5.1998    0.0000 H   0  0  0  0  0  0  0  0  0  0  0  0
    2.1900    2.3939    0.0000 H   0  0  0  0  0  0  0  0  0  0  0  0
    1.3800    3.7968    0.0000 H   0  0  0  0  0  0  0  0  0  0  0  0
    4.0369    6.7049    0.0000 H   0  0  0  0  0  0  0  0  0  0  0  0
    3.1900    6.9318    0.0000 H   0  0  0  0  0  0  0  0  0  0  0  0
    2.9631    6.0849    0.0000 H   0  0  0  0  0  0  0  0  0  0  0  0
    5.8707   -2.0136    0.0000 H   0  0  0  0  0  0  0  0  0  0  0  0
    5.0894   -2.4117    0.0000 H   0  0  0  0  0  0  0  0  0  0  0  0
    5.4875   -3.1929    0.0000 H   0  0  0  0  0  0  0  0  0  0  0  0
    5.1047   -4.0014    0.0000 H   0  0  0  0  0  0  0  0  0  0  0  0
    7.3747   -5.6507    0.0000 H   0  0  0  0  0  0  0  0  0  0  0  0
    4.1525   -5.3120    0.0000 H   0  0  0  0  0  0  0  0  0  0  0  0
    6.4225   -6.9613    0.0000 H   0  0  0  0  0  0  0  0  0  0  0  0
    4.8114   -6.7920    0.0000 H   0  0  0  0  0  0  0  0  0  0  0  0
  1 18  1  0  0  0  0
  1 23  1  0  0  0  0
  2 16  1  0  0  0  0
  2 22  1  0  0  0  0
  3  8  1  0  0  0  0
  3 12  1  0  0  0  0
  3 14  1  0  0  0  0
  4  9  1  0  0  0  0
  4 10  1  0  0  0  0
  4 13  1  0  0  0  0
  5 23  1  0  0  0  0
  5 24  1  0  0  0  0
  5 25  1  0  0  0  0
  6  7  1  0  0  0  0
  6 23  2  0  0  0  0
  7 24  2  0  0  0  0
  8  9  1  0  0  0  0
  8 10  1  0  0  0  0
  8 11  1  0  0  0  0
  9 32  1  0  0  0  0
  9 33  1  0  0  0  0
 10 34  1  0  0  0  0
 10 35  1  0  0  0  0
 11 12  1  0  0  0  0
 11 36  1  0  0  0  0
 11 37  1  0  0  0  0
 12 38  1  0  0  0  0
 12 39  1  0  0  0  0
 13 15  1  0  0  0  0
 13 40  1  0  0  0  0
 13 41  1  0  0  0  0
 14 16  1  0  0  0  0
 14 17  2  0  0  0  0
 15 18  1  0  0  0  0
 15 42  1  0  0  0  0
 15 43  1  0  0  0  0
 16 19  2  0  0  0  0
 17 20  1  0  0  0  0
 17 44  1  0  0  0  0
 18 45  1  0  0  0  0
 18 46  1  0  0  0  0
 19 21  1  0  0  0  0
 19 47  1  0  0  0  0
 20 21  2  0  0  0  0
 20 48  1  0  0  0  0
 21 49  1  0  0  0  0
 22 50  1  0  0  0  0
 22 51  1  0  0  0  0
 22 52  1  0  0  0  0
 24 26  1  0  0  0  0
 25 53  1  0  0  0  0
 25 54  1  0  0  0  0
 25 55  1  0  0  0  0
 26 27  2  0  0  0  0
 26 28  1  0  0  0  0
 27 29  1  0  0  0  0
 27 56  1  0  0  0  0
 28 30  2  0  0  0  0
 28 57  1  0  0  0  0
 29 31  2  0  0  0  0
 29 58  1  0  0  0  0
 30 31  1  0  0  0  0
 30 59  1  0  0  0  0
 31 60  1  0  0  0  0
M  END
> <PUBCHEM_COMPOUND_CID>
137649193

> <PUBCHEM_COMPOUND_CANONICALIZED>
1

> <PUBCHEM_CACTVS_COMPLEXITY>
582

> <PUBCHEM_CACTVS_HBOND_ACCEPTOR>
6

> <PUBCHEM_CACTVS_HBOND_DONOR>
0

> <PUBCHEM_CACTVS_ROTATABLE_BOND>
8

> <PUBCHEM_CACTVS_SUBSKEYS>
AAADceB7oABAAAAAAAAAAAAAAABYsWAAAAAwYAAAAAAAAAAB0AAAHgQIAAAADIzF2waz1ocMFAiiAiZiZACS2AthIrAdyCAvbJiObqLkuZuVMChkyBPY6AeQwAAOAAAAAAAAEAAAAAAAAAAgAAAAAAAAAA==

> <PUBCHEM_IUPAC_OPENEYE_NAME>
1-(2-methoxyphenyl)-6-[3-[(4-methyl-5-phenyl-1,2,4-triazol-3-yl)sulfanyl]propyl]-1,6-diazaspiro[3.3]heptane

> <PUBCHEM_IUPAC_CAS_NAME>
1-(2-methoxyphenyl)-6-[3-[(4-methyl-5-phenyl-1,2,4-triazol-3-yl)thio]propyl]-1,6-diazaspiro[3.3]heptane

> <PUBCHEM_IUPAC_NAME_MARKUP>
1-(2-methoxyphenyl)-6-[3-[(4-methyl-5-phenyl-1,2,4-triazol-3-yl)sulfanyl]propyl]-1,6-diazaspiro[3.3]heptane

> <PUBCHEM_IUPAC_NAME>
1-(2-methoxyphenyl)-6-[3-[(4-methyl-5-phenyl-1,2,4-triazol-3-yl)sulfanyl]propyl]-1,6-diazaspiro[3.3]heptane

> <PUBCHEM_IUPAC_SYSTEMATIC_NAME>
1-(2-methoxyphenyl)-6-[3-[(4-methyl-5-phenyl-1,2,4-triazol-3-yl)sulfanyl]propyl]-1,6-diazaspiro[3.3]heptane

> <PUBCHEM_IUPAC_TRADITIONAL_NAME>
1-(2-methoxyphenyl)-6-[3-[(4-methyl-5-phenyl-1,2,4-triazol-3-yl)thio]propyl]-1,6-diazaspiro[3.3]heptane

> <PUBCHEM_IUPAC_INCHI>
InChI=1S/C24H29N5OS/c1-27-22(19-9-4-3-5-10-19)25-26-23(27)31-16-8-14-28-17-24(18-28)13-15-29(24)20-11-6-7-12-21(20)30-2/h3-7,9-12H,8,13-18H2,1-2H3

> <PUBCHEM_IUPAC_INCHIKEY>
YUMDWQNKTSWTQP-UHFFFAOYSA-N

> <PUBCHEM_XLOGP3_AA>
3.9

> <PUBCHEM_EXACT_MASS>
435.20928174

> <PUBCHEM_MOLECULAR_FORMULA>
C24H29N5OS

> <PUBCHEM_MOLECULAR_WEIGHT>
435.6

> <PUBCHEM_OPENEYE_CAN_SMILES>
CN1C(=NN=C1SCCCN2CC3(C2)CCN3C4=CC=CC=C4OC)C5=CC=CC=C5

> <PUBCHEM_OPENEYE_ISO_SMILES>
CN1C(=NN=C1SCCCN2CC3(C2)CCN3C4=CC=CC=C4OC)C5=CC=CC=C5

> <PUBCHEM_CACTVS_TPSA>
71.7

> <PUBCHEM_MONOISOTOPIC_WEIGHT>
435.20928174

> <PUBCHEM_TOTAL_CHARGE>
0

> <PUBCHEM_HEAVY_ATOM_COUNT>
31

> <PUBCHEM_ATOM_DEF_STEREO_COUNT>
0

> <PUBCHEM_ATOM_UDEF_STEREO_COUNT>
0

> <PUBCHEM_BOND_DEF_STEREO_COUNT>
0

> <PUBCHEM_BOND_UDEF_STEREO_COUNT>
0

> <PUBCHEM_ISOTOPIC_ATOM_COUNT>
0

> <PUBCHEM_COMPONENT_COUNT>
1

> <PUBCHEM_CACTVS_TAUTO_COUNT>
-1

> <PUBCHEM_COORDINATE_TYPE>
1
5
255

> <PUBCHEM_BONDANNOTATIONS>
14  16  8
14  17  8
16  19  8
17  20  8
19  21  8
20  21  8
26  27  8
26  28  8
27  29  8
28  30  8
29  31  8
30  31  8
5  23  8
5  24  8
6  23  8
6  7  8
7  24  8

$$$$
