16756751
  -OEChem-09292322252D

 68 71  0     0  0  0  0  0  0999 V2000
    8.9282    3.0000    0.0000 O   0  0  0  0  0  0  0  0  0  0  0  0
    4.5981   -6.5000    0.0000 O   0  0  0  0  0  0  0  0  0  0  0  0
    8.9282    7.0000    0.0000 O   0  0  0  0  0  0  0  0  0  0  0  0
    5.4641   -0.0000    0.0000 N   0  0  0  0  0  0  0  0  0  0  0  0
    3.7320   -5.0000    0.0000 N   0  0  0  0  0  0  0  0  0  0  0  0
    5.4641   -2.0000    0.0000 C   0  0  0  0  0  0  0  0  0  0  0  0
    4.5981   -1.5000    0.0000 C   0  0  0  0  0  0  0  0  0  0  0  0
    6.3301   -1.5000    0.0000 C   0  0  0  0  0  0  0  0  0  0  0  0
    4.5981   -0.5000    0.0000 C   0  0  0  0  0  0  0  0  0  0  0  0
    6.3301   -0.5000    0.0000 C   0  0  0  0  0  0  0  0  0  0  0  0
    5.4641   -3.0000    0.0000 C   0  0  0  0  0  0  0  0  0  0  0  0
    5.4641    1.0000    0.0000 C   0  0  0  0  0  0  0  0  0  0  0  0
    4.5981   -3.5000    0.0000 C   0  0  0  0  0  0  0  0  0  0  0  0
    6.3301   -3.5000    0.0000 C   0  0  0  0  0  0  0  0  0  0  0  0
    6.3301    1.5000    0.0000 C   0  0  0  0  0  0  0  0  0  0  0  0
    4.5981   -4.5000    0.0000 C   0  0  0  0  0  0  0  0  0  0  0  0
    6.3301   -4.5000    0.0000 C   0  0  0  0  0  0  0  0  0  0  0  0
    5.4641   -5.0000    0.0000 C   0  0  0  0  0  0  0  0  0  0  0  0
    7.1962    1.0000    0.0000 C   0  0  0  0  0  0  0  0  0  0  0  0
    6.3301    2.5000    0.0000 C   0  0  0  0  0  0  0  0  0  0  0  0
    8.0622    1.5000    0.0000 C   0  0  0  0  0  0  0  0  0  0  0  0
    7.1962    3.0000    0.0000 C   0  0  0  0  0  0  0  0  0  0  0  0
    8.0622    2.5000    0.0000 C   0  0  0  0  0  0  0  0  0  0  0  0
    3.7320   -6.0000    0.0000 C   0  0  0  0  0  0  0  0  0  0  0  0
    2.8660   -6.5000    0.0000 C   0  0  0  0  0  0  0  0  0  0  0  0
    2.8660   -7.5000    0.0000 C   0  0  0  0  0  0  0  0  0  0  0  0
    2.0000   -6.0000    0.0000 C   0  0  0  0  0  0  0  0  0  0  0  0
    8.9282    4.0000    0.0000 C   0  0  0  0  0  0  0  0  0  0  0  0
    8.0622    4.5000    0.0000 C   0  0  0  0  0  0  0  0  0  0  0  0
    9.7942    4.5000    0.0000 C   0  0  0  0  0  0  0  0  0  0  0  0
    8.0622    5.5000    0.0000 C   0  0  0  0  0  0  0  0  0  0  0  0
    9.7942    5.5000    0.0000 C   0  0  0  0  0  0  0  0  0  0  0  0
    8.9282    6.0000    0.0000 C   0  0  0  0  0  0  0  0  0  0  0  0
    9.7942    7.5000    0.0000 C   0  0  0  0  0  0  0  0  0  0  0  0
    6.0010   -2.3100    0.0000 H   0  0  0  0  0  0  0  0  0  0  0  0
    3.9875   -1.3923    0.0000 H   0  0  0  0  0  0  0  0  0  0  0  0
    4.3860   -2.0826    0.0000 H   0  0  0  0  0  0  0  0  0  0  0  0
    6.5422   -2.0826    0.0000 H   0  0  0  0  0  0  0  0  0  0  0  0
    6.9407   -1.3923    0.0000 H   0  0  0  0  0  0  0  0  0  0  0  0
    4.3860    0.0826    0.0000 H   0  0  0  0  0  0  0  0  0  0  0  0
    3.9875   -0.6077    0.0000 H   0  0  0  0  0  0  0  0  0  0  0  0
    6.9407   -0.6077    0.0000 H   0  0  0  0  0  0  0  0  0  0  0  0
    6.5422    0.0826    0.0000 H   0  0  0  0  0  0  0  0  0  0  0  0
    5.2520    1.5826    0.0000 H   0  0  0  0  0  0  0  0  0  0  0  0
    4.8535    0.8923    0.0000 H   0  0  0  0  0  0  0  0  0  0  0  0
    4.0611   -3.1900    0.0000 H   0  0  0  0  0  0  0  0  0  0  0  0
    6.8671   -3.1900    0.0000 H   0  0  0  0  0  0  0  0  0  0  0  0
    6.8671   -4.8100    0.0000 H   0  0  0  0  0  0  0  0  0  0  0  0
    5.4641   -5.6200    0.0000 H   0  0  0  0  0  0  0  0  0  0  0  0
    7.1962    0.3800    0.0000 H   0  0  0  0  0  0  0  0  0  0  0  0
    5.7932    2.8100    0.0000 H   0  0  0  0  0  0  0  0  0  0  0  0
    3.1951   -4.6900    0.0000 H   0  0  0  0  0  0  0  0  0  0  0  0
    8.5991    1.1900    0.0000 H   0  0  0  0  0  0  0  0  0  0  0  0
    7.1962    3.6200    0.0000 H   0  0  0  0  0  0  0  0  0  0  0  0
    2.8660   -5.8800    0.0000 H   0  0  0  0  0  0  0  0  0  0  0  0
    2.2460   -7.5000    0.0000 H   0  0  0  0  0  0  0  0  0  0  0  0
    2.8660   -8.1200    0.0000 H   0  0  0  0  0  0  0  0  0  0  0  0
    3.4860   -7.5000    0.0000 H   0  0  0  0  0  0  0  0  0  0  0  0
    2.3100   -5.4631    0.0000 H   0  0  0  0  0  0  0  0  0  0  0  0
    1.4631   -5.6900    0.0000 H   0  0  0  0  0  0  0  0  0  0  0  0
    1.6900   -6.5369    0.0000 H   0  0  0  0  0  0  0  0  0  0  0  0
    7.5252    4.1900    0.0000 H   0  0  0  0  0  0  0  0  0  0  0  0
   10.3312    4.1900    0.0000 H   0  0  0  0  0  0  0  0  0  0  0  0
    7.5252    5.8100    0.0000 H   0  0  0  0  0  0  0  0  0  0  0  0
   10.3312    5.8100    0.0000 H   0  0  0  0  0  0  0  0  0  0  0  0
   10.1042    6.9631    0.0000 H   0  0  0  0  0  0  0  0  0  0  0  0
   10.3312    7.8100    0.0000 H   0  0  0  0  0  0  0  0  0  0  0  0
    9.4842    8.0369    0.0000 H   0  0  0  0  0  0  0  0  0  0  0  0
  1 23  1  0  0  0  0
  1 28  1  0  0  0  0
  2 24  2  0  0  0  0
  3 33  1  0  0  0  0
  3 34  1  0  0  0  0
  4  9  1  0  0  0  0
  4 10  1  0  0  0  0
  4 12  1  0  0  0  0
  5 16  1  0  0  0  0
  5 24  1  0  0  0  0
  5 52  1  0  0  0  0
  6  7  1  0  0  0  0
  6  8  1  0  0  0  0
  6 11  1  0  0  0  0
  6 35  1  0  0  0  0
  7  9  1  0  0  0  0
  7 36  1  0  0  0  0
  7 37  1  0  0  0  0
  8 10  1  0  0  0  0
  8 38  1  0  0  0  0
  8 39  1  0  0  0  0
  9 40  1  0  0  0  0
  9 41  1  0  0  0  0
 10 42  1  0  0  0  0
 10 43  1  0  0  0  0
 11 13  2  0  0  0  0
 11 14  1  0  0  0  0
 12 15  1  0  0  0  0
 12 44  1  0  0  0  0
 12 45  1  0  0  0  0
 13 16  1  0  0  0  0
 13 46  1  0  0  0  0
 14 17  2  0  0  0  0
 14 47  1  0  0  0  0
 15 19  2  0  0  0  0
 15 20  1  0  0  0  0
 16 18  2  0  0  0  0
 17 18  1  0  0  0  0
 17 48  1  0  0  0  0
 18 49  1  0  0  0  0
 19 21  1  0  0  0  0
 19 50  1  0  0  0  0
 20 22  2  0  0  0  0
 20 51  1  0  0  0  0
 21 23  2  0  0  0  0
 21 53  1  0  0  0  0
 22 23  1  0  0  0  0
 22 54  1  0  0  0  0
 24 25  1  0  0  0  0
 25 26  1  0  0  0  0
 25 27  1  0  0  0  0
 25 55  1  0  0  0  0
 26 56  1  0  0  0  0
 26 57  1  0  0  0  0
 26 58  1  0  0  0  0
 27 59  1  0  0  0  0
 27 60  1  0  0  0  0
 27 61  1  0  0  0  0
 28 29  2  0  0  0  0
 28 30  1  0  0  0  0
 29 31  1  0  0  0  0
 29 62  1  0  0  0  0
 30 32  2  0  0  0  0
 30 63  1  0  0  0  0
 31 33  2  0  0  0  0
 31 64  1  0  0  0  0
 32 33  1  0  0  0  0
 32 65  1  0  0  0  0
 34 66  1  0  0  0  0
 34 67  1  0  0  0  0
 34 68  1  0  0  0  0
M  END
> <PUBCHEM_COMPOUND_CID>
16756751

> <PUBCHEM_COMPOUND_CANONICALIZED>
1

> <PUBCHEM_CACTVS_COMPLEXITY>
603

> <PUBCHEM_CACTVS_HBOND_ACCEPTOR>
4

> <PUBCHEM_CACTVS_HBOND_DONOR>
1

> <PUBCHEM_CACTVS_ROTATABLE_BOND>
8

> <PUBCHEM_CACTVS_SUBSKEYS>
AAADcfB7MAAAAAAAAAAAAAAAAAAAAAAAAAA8YMEAAAAAAAABUAAAHgAQAAAADQzBmAYyxoPABACIAiVSUACCCAAhIgAIiAEObIgMJiLEsZuGOCjk1BHI6AfQ0MIOoQAAQAAAAABCAACAAAAAAAAAAAAAAA==

> <PUBCHEM_IUPAC_OPENEYE_NAME>
N-[3-[1-[[4-(4-methoxyphenoxy)phenyl]methyl]-4-piperidyl]phenyl]-2-methyl-propanamide

> <PUBCHEM_IUPAC_CAS_NAME>
N-[3-[1-[[4-(4-methoxyphenoxy)phenyl]methyl]-4-piperidinyl]phenyl]-2-methylpropanamide

> <PUBCHEM_IUPAC_NAME_MARKUP>
<I>N</I>-[3-[1-[[4-(4-methoxyphenoxy)phenyl]methyl]piperidin-4-yl]phenyl]-2-methylpropanamide

> <PUBCHEM_IUPAC_NAME>
N-[3-[1-[[4-(4-methoxyphenoxy)phenyl]methyl]piperidin-4-yl]phenyl]-2-methylpropanamide

> <PUBCHEM_IUPAC_SYSTEMATIC_NAME>
N-[3-[1-[[4-(4-methoxyphenoxy)phenyl]methyl]piperidin-4-yl]phenyl]-2-methyl-propanamide

> <PUBCHEM_IUPAC_TRADITIONAL_NAME>
N-[3-[1-[4-(4-methoxyphenoxy)benzyl]-4-piperidyl]phenyl]-2-methyl-propionamide

> <PUBCHEM_IUPAC_INCHI>
InChI=1S/C29H34N2O3/c1-21(2)29(32)30-25-6-4-5-24(19-25)23-15-17-31(18-16-23)20-22-7-9-27(10-8-22)34-28-13-11-26(33-3)12-14-28/h4-14,19,21,23H,15-18,20H2,1-3H3,(H,30,32)

> <PUBCHEM_IUPAC_INCHIKEY>
RBVKMXSYCQGAEL-UHFFFAOYSA-N

> <PUBCHEM_XLOGP3_AA>
5.7

> <PUBCHEM_EXACT_MASS>
458.25694295

> <PUBCHEM_MOLECULAR_FORMULA>
C29H34N2O3

> <PUBCHEM_MOLECULAR_WEIGHT>
458.6

> <PUBCHEM_OPENEYE_CAN_SMILES>
CC(C)C(=O)NC1=CC=CC(=C1)C2CCN(CC2)CC3=CC=C(C=C3)OC4=CC=C(C=C4)OC

> <PUBCHEM_OPENEYE_ISO_SMILES>
CC(C)C(=O)NC1=CC=CC(=C1)C2CCN(CC2)CC3=CC=C(C=C3)OC4=CC=C(C=C4)OC

> <PUBCHEM_CACTVS_TPSA>
50.8

> <PUBCHEM_MONOISOTOPIC_WEIGHT>
458.25694295

> <PUBCHEM_TOTAL_CHARGE>
0

> <PUBCHEM_HEAVY_ATOM_COUNT>
34

> <PUBCHEM_ATOM_DEF_STEREO_COUNT>
0

> <PUBCHEM_ATOM_UDEF_STEREO_COUNT>
0

> <PUBCHEM_BOND_DEF_STEREO_COUNT>
0

> <PUBCHEM_BOND_UDEF_STEREO_COUNT>
0

> <PUBCHEM_ISOTOPIC_ATOM_COUNT>
0

> <PUBCHEM_COMPONENT_COUNT>
1

> <PUBCHEM_CACTVS_TAUTO_COUNT>
-1

> <PUBCHEM_COORDINATE_TYPE>
1
5
255

> <PUBCHEM_BONDANNOTATIONS>
11  13  8
11  14  8
13  16  8
14  17  8
15  19  8
15  20  8
16  18  8
17  18  8
19  21  8
20  22  8
21  23  8
22  23  8
28  29  8
28  30  8
29  31  8
30  32  8
31  33  8
32  33  8

$$$$
