44404422
  -OEChem-09292322262D

 61 65  0     1  0  0  0  0  0999 V2000
    3.5851    4.3719    0.0000 F   0  0  0  0  0  0  0  0  0  0  0  0
    4.9511   -4.6579    0.0000 O   0  0  0  0  0  0  0  0  0  0  0  0
    6.1938    0.8474    0.0000 O   0  0  0  0  0  0  0  0  0  0  0  0
    4.4511   -0.1281    0.0000 N   0  0  0  0  0  0  0  0  0  0  0  0
    7.0771    2.3373    0.0000 N   0  0  0  0  0  0  0  0  0  0  0  0
    4.4511   -2.1281    0.0000 N   0  0  0  0  0  0  0  0  0  0  0  0
    5.2558   -3.7117    0.0000 N   0  0  0  0  0  0  0  0  0  0  0  0
    7.0771    4.4066    0.0000 C   0  0  3  0  0  0  0  0  0  0  0  0
    6.1831    2.8719    0.0000 C   0  0  0  0  0  0  0  0  0  0  0  0
    6.1831    3.8719    0.0000 C   0  0  0  0  0  0  0  0  0  0  0  0
    7.9831    3.8927    0.0000 C   0  0  0  0  0  0  0  0  0  0  0  0
    4.4511    0.8719    0.0000 C   0  0  0  0  0  0  0  0  0  0  0  0
    3.5851   -0.6281    0.0000 C   0  0  0  0  0  0  0  0  0  0  0  0
    5.3171   -0.6281    0.0000 C   0  0  0  0  0  0  0  0  0  0  0  0
    5.3171    1.3719    0.0000 C   0  0  0  0  0  0  0  0  0  0  0  0
    5.3171    2.3719    0.0000 C   0  0  0  0  0  0  0  0  0  0  0  0
    7.9831    2.8511    0.0000 C   0  0  0  0  0  0  0  0  0  0  0  0
    3.5851   -1.6281    0.0000 C   0  0  0  0  0  0  0  0  0  0  0  0
    5.3171   -1.6281    0.0000 C   0  0  0  0  0  0  0  0  0  0  0  0
    7.0655    5.4065    0.0000 C   0  0  0  0  0  0  0  0  0  0  0  0
    5.3171    4.3719    0.0000 C   0  0  0  0  0  0  0  0  0  0  0  0
    4.4511    2.8719    0.0000 C   0  0  0  0  0  0  0  0  0  0  0  0
    4.4511   -3.1281    0.0000 C   0  0  0  0  0  0  0  0  0  0  0  0
    4.4511    3.8719    0.0000 C   0  0  0  0  0  0  0  0  0  0  0  0
    7.0655    1.3373    0.0000 C   0  0  0  0  0  0  0  0  0  0  0  0
    3.6464   -3.7117    0.0000 C   0  0  0  0  0  0  0  0  0  0  0  0
    7.9257    0.8273    0.0000 C   0  0  0  0  0  0  0  0  0  0  0  0
    3.9570   -4.6622    0.0000 C   0  0  0  0  0  0  0  0  0  0  0  0
    2.6678   -3.5055    0.0000 C   0  0  0  0  0  0  0  0  0  0  0  0
    3.2892   -5.4065    0.0000 C   0  0  0  0  0  0  0  0  0  0  0  0
    2.0000   -4.2498    0.0000 C   0  0  0  0  0  0  0  0  0  0  0  0
    2.3107   -5.2003    0.0000 C   0  0  0  0  0  0  0  0  0  0  0  0
    6.5360    4.7093    0.0000 H   0  0  0  0  0  0  0  0  0  0  0  0
    8.5940    3.7866    0.0000 H   0  0  0  0  0  0  0  0  0  0  0  0
    8.1922    4.4764    0.0000 H   0  0  0  0  0  0  0  0  0  0  0  0
    4.2390    1.4545    0.0000 H   0  0  0  0  0  0  0  0  0  0  0  0
    3.8405    0.7643    0.0000 H   0  0  0  0  0  0  0  0  0  0  0  0
    3.3730   -0.0455    0.0000 H   0  0  0  0  0  0  0  0  0  0  0  0
    2.9745   -0.7357    0.0000 H   0  0  0  0  0  0  0  0  0  0  0  0
    5.9277   -0.7357    0.0000 H   0  0  0  0  0  0  0  0  0  0  0  0
    5.5292   -0.0455    0.0000 H   0  0  0  0  0  0  0  0  0  0  0  0
    5.5292    0.7893    0.0000 H   0  0  0  0  0  0  0  0  0  0  0  0
    5.9277    1.4796    0.0000 H   0  0  0  0  0  0  0  0  0  0  0  0
    8.1922    2.2674    0.0000 H   0  0  0  0  0  0  0  0  0  0  0  0
    8.5940    2.9572    0.0000 H   0  0  0  0  0  0  0  0  0  0  0  0
    2.9745   -1.5204    0.0000 H   0  0  0  0  0  0  0  0  0  0  0  0
    3.3730   -2.2107    0.0000 H   0  0  0  0  0  0  0  0  0  0  0  0
    5.5292   -2.2107    0.0000 H   0  0  0  0  0  0  0  0  0  0  0  0
    5.9277   -1.5204    0.0000 H   0  0  0  0  0  0  0  0  0  0  0  0
    7.6855    5.4137    0.0000 H   0  0  0  0  0  0  0  0  0  0  0  0
    7.0583    6.0265    0.0000 H   0  0  0  0  0  0  0  0  0  0  0  0
    6.4456    5.3993    0.0000 H   0  0  0  0  0  0  0  0  0  0  0  0
    5.3171    4.9919    0.0000 H   0  0  0  0  0  0  0  0  0  0  0  0
    3.9142    2.5619    0.0000 H   0  0  0  0  0  0  0  0  0  0  0  0
    7.6095    0.2940    0.0000 H   0  0  0  0  0  0  0  0  0  0  0  0
    8.4590    0.5112    0.0000 H   0  0  0  0  0  0  0  0  0  0  0  0
    8.2419    1.3607    0.0000 H   0  0  0  0  0  0  0  0  0  0  0  0
    2.4752   -2.9162    0.0000 H   0  0  0  0  0  0  0  0  0  0  0  0
    3.4818   -5.9958    0.0000 H   0  0  0  0  0  0  0  0  0  0  0  0
    1.3933   -4.1219    0.0000 H   0  0  0  0  0  0  0  0  0  0  0  0
    1.8966   -5.6618    0.0000 H   0  0  0  0  0  0  0  0  0  0  0  0
  1 24  1  0  0  0  0
  2  7  1  0  0  0  0
  2 28  1  0  0  0  0
  3 25  2  0  0  0  0
  4 12  1  0  0  0  0
  4 13  1  0  0  0  0
  4 14  1  0  0  0  0
  5  9  1  0  0  0  0
  5 17  1  0  0  0  0
  5 25  1  0  0  0  0
  6 18  1  0  0  0  0
  6 19  1  0  0  0  0
  6 23  1  0  0  0  0
  7 23  2  0  0  0  0
  8 10  1  0  0  0  0
  8 11  1  0  0  0  0
  8 20  1  0  0  0  0
  8 33  1  0  0  0  0
  9 10  1  0  0  0  0
  9 16  2  0  0  0  0
 10 21  2  0  0  0  0
 11 17  1  0  0  0  0
 11 34  1  0  0  0  0
 11 35  1  0  0  0  0
 12 15  1  0  0  0  0
 12 36  1  0  0  0  0
 12 37  1  0  0  0  0
 13 18  1  0  0  0  0
 13 38  1  0  0  0  0
 13 39  1  0  0  0  0
 14 19  1  0  0  0  0
 14 40  1  0  0  0  0
 14 41  1  0  0  0  0
 15 16  1  0  0  0  0
 15 42  1  0  0  0  0
 15 43  1  0  0  0  0
 16 22  1  0  0  0  0
 17 44  1  0  0  0  0
 17 45  1  0  0  0  0
 18 46  1  0  0  0  0
 18 47  1  0  0  0  0
 19 48  1  0  0  0  0
 19 49  1  0  0  0  0
 20 50  1  0  0  0  0
 20 51  1  0  0  0  0
 20 52  1  0  0  0  0
 21 24  1  0  0  0  0
 21 53  1  0  0  0  0
 22 24  2  0  0  0  0
 22 54  1  0  0  0  0
 23 26  1  0  0  0  0
 25 27  1  0  0  0  0
 26 28  1  0  0  0  0
 26 29  2  0  0  0  0
 27 55  1  0  0  0  0
 27 56  1  0  0  0  0
 27 57  1  0  0  0  0
 28 30  2  0  0  0  0
 29 31  1  0  0  0  0
 29 58  1  0  0  0  0
 30 32  1  0  0  0  0
 30 59  1  0  0  0  0
 31 32  2  0  0  0  0
 31 60  1  0  0  0  0
 32 61  1  0  0  0  0
M  END
> <PUBCHEM_COMPOUND_CID>
44404422

> <PUBCHEM_COMPOUND_CANONICALIZED>
1

> <PUBCHEM_CACTVS_COMPLEXITY>
658

> <PUBCHEM_CACTVS_HBOND_ACCEPTOR>
6

> <PUBCHEM_CACTVS_HBOND_DONOR>
0

> <PUBCHEM_CACTVS_ROTATABLE_BOND>
4

> <PUBCHEM_CACTVS_SUBSKEYS>
AAADceB7sQAAAAAAAAAAAAAAAAAAAWAAAAA8eIEAAAAAAFix9AAAHwAEAAAADQzBmgwz9tMQAACpAqdycgCCAAAlIAApmCEuTNqIZrrAnZOUMYhmxhvIyceYyOCOgAACAAAKAAAAAAQAABQAAAAAAAAAAA==

> <PUBCHEM_IUPAC_OPENEYE_NAME>
1-[8-[2-[4-(1,2-benzoxazol-3-yl)piperazin-1-yl]ethyl]-6-fluoro-4-methyl-3,4-dihydro-2H-quinolin-1-yl]ethanone

> <PUBCHEM_IUPAC_CAS_NAME>
1-[8-[2-[4-(1,2-benzoxazol-3-yl)-1-piperazinyl]ethyl]-6-fluoro-4-methyl-3,4-dihydro-2H-quinolin-1-yl]ethanone

> <PUBCHEM_IUPAC_NAME_MARKUP>
1-[8-[2-[4-(1,2-benzoxazol-3-yl)piperazin-1-yl]ethyl]-6-fluoro-4-methyl-3,4-dihydro-2<I>H</I>-quinolin-1-yl]ethanone

> <PUBCHEM_IUPAC_NAME>
1-[8-[2-[4-(1,2-benzoxazol-3-yl)piperazin-1-yl]ethyl]-6-fluoro-4-methyl-3,4-dihydro-2H-quinolin-1-yl]ethanone

> <PUBCHEM_IUPAC_SYSTEMATIC_NAME>
1-[8-[2-[4-(1,2-benzoxazol-3-yl)piperazin-1-yl]ethyl]-6-fluoranyl-4-methyl-3,4-dihydro-2H-quinolin-1-yl]ethanone

> <PUBCHEM_IUPAC_TRADITIONAL_NAME>
1-[6-fluoro-8-[2-(4-indoxazen-3-ylpiperazino)ethyl]-4-methyl-3,4-dihydro-2H-quinolin-1-yl]ethanone

> <PUBCHEM_IUPAC_INCHI>
InChI=1S/C25H29FN4O2/c1-17-7-10-30(18(2)31)24-19(15-20(26)16-22(17)24)8-9-28-11-13-29(14-12-28)25-21-5-3-4-6-23(21)32-27-25/h3-6,15-17H,7-14H2,1-2H3

> <PUBCHEM_IUPAC_INCHIKEY>
DXQITHRANRYTGO-UHFFFAOYSA-N

> <PUBCHEM_XLOGP3_AA>
4.1

> <PUBCHEM_EXACT_MASS>
436.22745434

> <PUBCHEM_MOLECULAR_FORMULA>
C25H29FN4O2

> <PUBCHEM_MOLECULAR_WEIGHT>
436.5

> <PUBCHEM_OPENEYE_CAN_SMILES>
CC1CCN(C2=C(C=C(C=C12)F)CCN3CCN(CC3)C4=NOC5=CC=CC=C54)C(=O)C

> <PUBCHEM_OPENEYE_ISO_SMILES>
CC1CCN(C2=C(C=C(C=C12)F)CCN3CCN(CC3)C4=NOC5=CC=CC=C54)C(=O)C

> <PUBCHEM_CACTVS_TPSA>
52.8

> <PUBCHEM_MONOISOTOPIC_WEIGHT>
436.22745434

> <PUBCHEM_TOTAL_CHARGE>
0

> <PUBCHEM_HEAVY_ATOM_COUNT>
32

> <PUBCHEM_ATOM_DEF_STEREO_COUNT>
0

> <PUBCHEM_ATOM_UDEF_STEREO_COUNT>
1

> <PUBCHEM_BOND_DEF_STEREO_COUNT>
0

> <PUBCHEM_BOND_UDEF_STEREO_COUNT>
0

> <PUBCHEM_ISOTOPIC_ATOM_COUNT>
0

> <PUBCHEM_COMPONENT_COUNT>
1

> <PUBCHEM_CACTVS_TAUTO_COUNT>
-1

> <PUBCHEM_COORDINATE_TYPE>
1
5
255

> <PUBCHEM_BONDANNOTATIONS>
10  21  8
16  22  8
2  28  8
2  7  8
21  24  8
22  24  8
23  26  8
26  28  8
26  29  8
28  30  8
29  31  8
30  32  8
31  32  8
7  23  8
8  20  3
9  10  8
9  16  8

$$$$
