11548217
  -OEChem-09292322492D

 72 77  0     1  0  0  0  0  0999 V2000
    9.7062    0.8739    0.0000 S   0  0  0  0  0  0  0  0  0  0  0  0
    4.9887   -5.4424    0.0000 O   0  0  0  0  0  0  0  0  0  0  0  0
    6.7062   -0.8582    0.0000 N   0  0  3  0  0  0  0  0  0  0  0  0
    3.5949   -4.6377    0.0000 N   0  0  0  0  0  0  0  0  0  0  0  0
   11.2008    1.8444    0.0000 N   0  0  0  0  0  0  0  0  0  0  0  0
    9.7995    2.6535    0.0000 N   0  0  0  0  0  0  0  0  0  0  0  0
   10.5426    3.3226    0.0000 N   0  0  0  0  0  0  0  0  0  0  0  0
   13.4651    5.6647    0.0000 N   0  0  0  0  0  0  0  0  0  0  0  0
    7.2598   -1.6678    0.0000 C   0  0  0  0  0  0  0  0  0  0  0  0
    5.7283   -0.7836    0.0000 C   0  0  0  0  0  0  0  0  0  0  0  0
    6.9745   -2.6062    0.0000 C   0  0  0  0  0  0  0  0  0  0  0  0
    5.0583   -1.4998    0.0000 C   0  0  0  0  0  0  0  0  0  0  0  0
    6.0640   -2.9706    0.0000 C   0  0  0  0  0  0  0  0  0  0  0  0
    5.1979   -2.4706    0.0000 C   0  0  0  0  0  0  0  0  0  0  0  0
    7.2062    0.0079    0.0000 C   0  0  0  0  0  0  0  0  0  0  0  0
    8.2062    0.0079    0.0000 C   0  0  0  0  0  0  0  0  0  0  0  0
    6.0640   -3.9706    0.0000 C   0  0  0  0  0  0  0  0  0  0  0  0
    4.3319   -2.9706    0.0000 C   0  0  0  0  0  0  0  0  0  0  0  0
    5.1979   -4.4706    0.0000 C   0  0  0  0  0  0  0  0  0  0  0  0
    4.3319   -3.9706    0.0000 C   0  0  0  0  0  0  0  0  0  0  0  0
    8.7062    0.8739    0.0000 C   0  0  0  0  0  0  0  0  0  0  0  0
    4.0000   -5.5455    0.0000 C   0  0  0  0  0  0  0  0  0  0  0  0
    3.5000   -6.4115    0.0000 C   0  0  0  0  0  0  0  0  0  0  0  0
    2.5000   -6.4115    0.0000 C   0  0  0  0  0  0  0  0  0  0  0  0
   10.2062    1.7399    0.0000 C   0  0  0  0  0  0  0  0  0  0  0  0
   11.4087    2.8226    0.0000 C   0  0  0  0  0  0  0  0  0  0  0  0
   12.3222    3.2293    0.0000 C   0  0  0  0  0  0  0  0  0  0  0  0
    2.0000   -7.2776    0.0000 C   0  0  0  0  0  0  0  0  0  0  0  0
   12.4267    4.2238    0.0000 C   0  0  0  0  0  0  0  0  0  0  0  0
   11.8699    1.1013    0.0000 C   0  0  0  0  0  0  0  0  0  0  0  0
   13.3403    4.6306    0.0000 C   0  0  0  0  0  0  0  0  0  0  0  0
   13.1312    2.6415    0.0000 C   0  0  0  0  0  0  0  0  0  0  0  0
   11.5747    4.8230    0.0000 C   0  0  0  0  0  0  0  0  0  0  0  0
   14.1493    4.0428    0.0000 C   0  0  0  0  0  0  0  0  0  0  0  0
   14.0448    3.0483    0.0000 C   0  0  0  0  0  0  0  0  0  0  0  0
   11.6756    5.8598    0.0000 C   0  0  0  0  0  0  0  0  0  0  0  0
   12.6272    6.2834    0.0000 C   0  0  0  0  0  0  0  0  0  0  0  0
   12.7355    7.2776    0.0000 C   0  0  0  0  0  0  0  0  0  0  0  0
    7.7977   -1.9761    0.0000 H   0  0  0  0  0  0  0  0  0  0  0  0
    7.6805   -1.2124    0.0000 H   0  0  0  0  0  0  0  0  0  0  0  0
    5.9124   -0.1915    0.0000 H   0  0  0  0  0  0  0  0  0  0  0  0
    5.1923   -0.4719    0.0000 H   0  0  0  0  0  0  0  0  0  0  0  0
    7.0705   -3.2187    0.0000 H   0  0  0  0  0  0  0  0  0  0  0  0
    7.5930   -2.6494    0.0000 H   0  0  0  0  0  0  0  0  0  0  0  0
    4.7116   -0.9858    0.0000 H   0  0  0  0  0  0  0  0  0  0  0  0
    4.4798   -1.7230    0.0000 H   0  0  0  0  0  0  0  0  0  0  0  0
    7.3139    0.6184    0.0000 H   0  0  0  0  0  0  0  0  0  0  0  0
    6.6236    0.2199    0.0000 H   0  0  0  0  0  0  0  0  0  0  0  0
    8.0986   -0.6027    0.0000 H   0  0  0  0  0  0  0  0  0  0  0  0
    8.7888   -0.2042    0.0000 H   0  0  0  0  0  0  0  0  0  0  0  0
    6.6009   -4.2806    0.0000 H   0  0  0  0  0  0  0  0  0  0  0  0
    3.7950   -2.6606    0.0000 H   0  0  0  0  0  0  0  0  0  0  0  0
    8.8139    1.4845    0.0000 H   0  0  0  0  0  0  0  0  0  0  0  0
    8.1236    1.0859    0.0000 H   0  0  0  0  0  0  0  0  0  0  0  0
    3.3923   -7.0221    0.0000 H   0  0  0  0  0  0  0  0  0  0  0  0
    4.0826   -6.6236    0.0000 H   0  0  0  0  0  0  0  0  0  0  0  0
    2.6077   -5.8009    0.0000 H   0  0  0  0  0  0  0  0  0  0  0  0
    1.9174   -6.1995    0.0000 H   0  0  0  0  0  0  0  0  0  0  0  0
    1.4631   -6.9676    0.0000 H   0  0  0  0  0  0  0  0  0  0  0  0
    1.6900   -7.8145    0.0000 H   0  0  0  0  0  0  0  0  0  0  0  0
    2.5369   -7.5876    0.0000 H   0  0  0  0  0  0  0  0  0  0  0  0
   11.4091    0.6864    0.0000 H   0  0  0  0  0  0  0  0  0  0  0  0
   12.2847    0.6405    0.0000 H   0  0  0  0  0  0  0  0  0  0  0  0
   12.3306    1.5162    0.0000 H   0  0  0  0  0  0  0  0  0  0  0  0
   13.0664    2.0249    0.0000 H   0  0  0  0  0  0  0  0  0  0  0  0
   11.0113    4.5643    0.0000 H   0  0  0  0  0  0  0  0  0  0  0  0
   14.7157    4.2950    0.0000 H   0  0  0  0  0  0  0  0  0  0  0  0
   14.5464    2.6838    0.0000 H   0  0  0  0  0  0  0  0  0  0  0  0
   11.1726    6.2223    0.0000 H   0  0  0  0  0  0  0  0  0  0  0  0
   13.3519    7.2104    0.0000 H   0  0  0  0  0  0  0  0  0  0  0  0
   12.8027    7.8939    0.0000 H   0  0  0  0  0  0  0  0  0  0  0  0
   12.1192    7.3447    0.0000 H   0  0  0  0  0  0  0  0  0  0  0  0
  1 21  1  0  0  0  0
  1 25  1  0  0  0  0
  2 19  1  0  0  0  0
  2 22  1  0  0  0  0
  3  9  1  0  0  0  0
  3 10  1  0  0  0  0
  3 15  1  0  0  0  0
  4 20  1  0  0  0  0
  4 22  2  0  0  0  0
  5 25  1  0  0  0  0
  5 26  1  0  0  0  0
  5 30  1  0  0  0  0
  6  7  1  0  0  0  0
  6 25  2  0  0  0  0
  7 26  2  0  0  0  0
  8 31  1  0  0  0  0
  8 37  2  0  0  0  0
  9 11  1  0  0  0  0
  9 39  1  0  0  0  0
  9 40  1  0  0  0  0
 10 12  1  0  0  0  0
 10 41  1  0  0  0  0
 10 42  1  0  0  0  0
 11 13  1  0  0  0  0
 11 43  1  0  0  0  0
 11 44  1  0  0  0  0
 12 14  1  0  0  0  0
 12 45  1  0  0  0  0
 12 46  1  0  0  0  0
 13 14  1  0  0  0  0
 13 17  2  0  0  0  0
 14 18  2  0  0  0  0
 15 16  1  0  0  0  0
 15 47  1  0  0  0  0
 15 48  1  0  0  0  0
 16 21  1  0  0  0  0
 16 49  1  0  0  0  0
 16 50  1  0  0  0  0
 17 19  1  0  0  0  0
 17 51  1  0  0  0  0
 18 20  1  0  0  0  0
 18 52  1  0  0  0  0
 19 20  2  0  0  0  0
 21 53  1  0  0  0  0
 21 54  1  0  0  0  0
 22 23  1  0  0  0  0
 23 24  1  0  0  0  0
 23 55  1  0  0  0  0
 23 56  1  0  0  0  0
 24 28  1  0  0  0  0
 24 57  1  0  0  0  0
 24 58  1  0  0  0  0
 26 27  1  0  0  0  0
 27 29  2  0  0  0  0
 27 32  1  0  0  0  0
 28 59  1  0  0  0  0
 28 60  1  0  0  0  0
 28 61  1  0  0  0  0
 29 31  1  0  0  0  0
 29 33  1  0  0  0  0
 30 62  1  0  0  0  0
 30 63  1  0  0  0  0
 30 64  1  0  0  0  0
 31 34  2  0  0  0  0
 32 35  2  0  0  0  0
 32 65  1  0  0  0  0
 33 36  2  0  0  0  0
 33 66  1  0  0  0  0
 34 35  1  0  0  0  0
 34 67  1  0  0  0  0
 35 68  1  0  0  0  0
 36 37  1  0  0  0  0
 36 69  1  0  0  0  0
 37 38  1  0  0  0  0
 38 70  1  0  0  0  0
 38 71  1  0  0  0  0
 38 72  1  0  0  0  0
M  END
> <PUBCHEM_COMPOUND_CID>
11548217

> <PUBCHEM_COMPOUND_CANONICALIZED>
1

> <PUBCHEM_CACTVS_COMPLEXITY>
760

> <PUBCHEM_CACTVS_HBOND_ACCEPTOR>
7

> <PUBCHEM_CACTVS_HBOND_DONOR>
0

> <PUBCHEM_CACTVS_ROTATABLE_BOND>
8

> <PUBCHEM_CACTVS_SUBSKEYS>
AAADcfB7oABAAAAAAAAAAAAAAAAAAWLAAAA8YIAABYAAAFix/gAAHgQIAAAADAzF3wSz1vcMFEiqA6dydASS2CtvYrAd2CG/bNiOLvLkvbuPOSjkzBPY6YeY2fKOqAABQAASEABQAAKAACQgAAAAAAAAAA==

> <PUBCHEM_IUPAC_OPENEYE_NAME>
7-[3-[[4-methyl-5-(2-methyl-5-quinolyl)-1,2,4-triazol-3-yl]sulfanyl]propyl]-2-propyl-5,6,8,9-tetrahydrooxazolo[4,5-h][3]benzazepine

> <PUBCHEM_IUPAC_CAS_NAME>
7-[3-[[4-methyl-5-(2-methyl-5-quinolinyl)-1,2,4-triazol-3-yl]thio]propyl]-2-propyl-5,6,8,9-tetrahydrooxazolo[4,5-h][3]benzazepine

> <PUBCHEM_IUPAC_NAME_MARKUP>
7-[3-[[4-methyl-5-(2-methylquinolin-5-yl)-1,2,4-triazol-3-yl]sulfanyl]propyl]-2-propyl-5,6,8,9-tetrahydro-[1,3]oxazolo[4,5-h][3]benzazepine

> <PUBCHEM_IUPAC_NAME>
7-[3-[[4-methyl-5-(2-methylquinolin-5-yl)-1,2,4-triazol-3-yl]sulfanyl]propyl]-2-propyl-5,6,8,9-tetrahydro-[1,3]oxazolo[4,5-h][3]benzazepine

> <PUBCHEM_IUPAC_SYSTEMATIC_NAME>
7-[3-[[4-methyl-5-(2-methylquinolin-5-yl)-1,2,4-triazol-3-yl]sulfanyl]propyl]-2-propyl-5,6,8,9-tetrahydro-[1,3]oxazolo[4,5-h][3]benzazepine

> <PUBCHEM_IUPAC_TRADITIONAL_NAME>
7-[3-[[4-methyl-5-(2-methyl-5-quinolyl)-1,2,4-triazol-3-yl]thio]propyl]-2-propyl-5,6,8,9-tetrahydrooxazolo[4,5-h][3]benzazepine

> <PUBCHEM_IUPAC_INCHI>
InChI=1S/C30H34N6OS/c1-4-7-28-32-26-18-21-12-15-36(16-13-22(21)19-27(26)37-28)14-6-17-38-30-34-33-29(35(30)3)24-8-5-9-25-23(24)11-10-20(2)31-25/h5,8-11,18-19H,4,6-7,12-17H2,1-3H3

> <PUBCHEM_IUPAC_INCHIKEY>
UKHPZHQUPSAUMR-UHFFFAOYSA-N

> <PUBCHEM_XLOGP3_AA>
6

> <PUBCHEM_EXACT_MASS>
526.25148090

> <PUBCHEM_MOLECULAR_FORMULA>
C30H34N6OS

> <PUBCHEM_MOLECULAR_WEIGHT>
526.7

> <PUBCHEM_OPENEYE_CAN_SMILES>
CCCC1=NC2=C(O1)C=C3CCN(CCC3=C2)CCCSC4=NN=C(N4C)C5=C6C=CC(=NC6=CC=C5)C

> <PUBCHEM_OPENEYE_ISO_SMILES>
CCCC1=NC2=C(O1)C=C3CCN(CCC3=C2)CCCSC4=NN=C(N4C)C5=C6C=CC(=NC6=CC=C5)C

> <PUBCHEM_CACTVS_TPSA>
98.2

> <PUBCHEM_MONOISOTOPIC_WEIGHT>
526.25148090

> <PUBCHEM_TOTAL_CHARGE>
0

> <PUBCHEM_HEAVY_ATOM_COUNT>
38

> <PUBCHEM_ATOM_DEF_STEREO_COUNT>
0

> <PUBCHEM_ATOM_UDEF_STEREO_COUNT>
0

> <PUBCHEM_BOND_DEF_STEREO_COUNT>
0

> <PUBCHEM_BOND_UDEF_STEREO_COUNT>
0

> <PUBCHEM_ISOTOPIC_ATOM_COUNT>
0

> <PUBCHEM_COMPONENT_COUNT>
1

> <PUBCHEM_CACTVS_TAUTO_COUNT>
-1

> <PUBCHEM_COORDINATE_TYPE>
1
5
255

> <PUBCHEM_BONDANNOTATIONS>
13  14  8
13  17  8
14  18  8
17  19  8
18  20  8
19  20  8
2  19  8
2  22  8
27  29  8
27  32  8
29  31  8
29  33  8
31  34  8
32  35  8
33  36  8
34  35  8
36  37  8
4  20  8
4  22  8
5  25  8
5  26  8
6  25  8
6  7  8
7  26  8
8  31  8
8  37  8

$$$$
