44380685
  -OEChem-09292322222D

 50 52  0     1  0  0  0  0  0999 V2000
    6.3301   -3.2267    0.0000 Cl  0  0  0  0  0  0  0  0  0  0  0  0
    3.7320    0.2733    0.0000 O   0  0  0  0  0  0  0  0  0  0  0  0
    2.8660   -1.2267    0.0000 O   0  0  0  0  0  0  0  0  0  0  0  0
    7.9128    2.1097    0.0000 N   0  0  3  0  0  0  0  0  0  0  0  0
    5.4641    0.2733    0.0000 N   0  0  0  0  0  0  0  0  0  0  0  0
    4.5981   -4.2267    0.0000 N   0  0  0  0  0  0  0  0  0  0  0  0
    6.3301    1.7733    0.0000 C   0  0  1  0  0  0  0  0  0  0  0  0
    6.4347    2.7678    0.0000 C   0  0  0  0  0  0  0  0  0  0  0  0
    7.2437    1.3665    0.0000 C   0  0  0  0  0  0  0  0  0  0  0  0
    7.4128    2.9757    0.0000 C   0  0  0  0  0  0  0  0  0  0  0  0
    5.4641    1.2733    0.0000 C   0  0  0  0  0  0  0  0  0  0  0  0
    8.9073    2.0052    0.0000 C   0  0  0  0  0  0  0  0  0  0  0  0
    9.4951    2.8142    0.0000 C   0  0  0  0  0  0  0  0  0  0  0  0
    4.5981   -0.2267    0.0000 C   0  0  0  0  0  0  0  0  0  0  0  0
    9.0884    3.7277    0.0000 C   0  0  0  0  0  0  0  0  0  0  0  0
   10.4896    2.7096    0.0000 C   0  0  0  0  0  0  0  0  0  0  0  0
    4.5981   -1.2267    0.0000 C   0  0  0  0  0  0  0  0  0  0  0  0
    9.6762    4.5367    0.0000 C   0  0  0  0  0  0  0  0  0  0  0  0
   11.0774    3.5187    0.0000 C   0  0  0  0  0  0  0  0  0  0  0  0
   10.6707    4.4322    0.0000 C   0  0  0  0  0  0  0  0  0  0  0  0
    3.7320   -1.7267    0.0000 C   0  0  0  0  0  0  0  0  0  0  0  0
    5.4641   -1.7267    0.0000 C   0  0  0  0  0  0  0  0  0  0  0  0
    3.7320   -2.7267    0.0000 C   0  0  0  0  0  0  0  0  0  0  0  0
    5.4641   -2.7267    0.0000 C   0  0  0  0  0  0  0  0  0  0  0  0
    4.5981   -3.2267    0.0000 C   0  0  0  0  0  0  0  0  0  0  0  0
    2.0000   -1.7267    0.0000 C   0  0  0  0  0  0  0  0  0  0  0  0
    5.8102    2.1110    0.0000 H   0  0  0  0  0  0  0  0  0  0  0  0
    6.3698    3.3844    0.0000 H   0  0  0  0  0  0  0  0  0  0  0  0
    5.8147    2.7678    0.0000 H   0  0  0  0  0  0  0  0  0  0  0  0
    6.9337    0.8296    0.0000 H   0  0  0  0  0  0  0  0  0  0  0  0
    7.7453    1.0021    0.0000 H   0  0  0  0  0  0  0  0  0  0  0  0
    7.9792    3.2279    0.0000 H   0  0  0  0  0  0  0  0  0  0  0  0
    7.2212    3.5654    0.0000 H   0  0  0  0  0  0  0  0  0  0  0  0
    5.2520    1.8559    0.0000 H   0  0  0  0  0  0  0  0  0  0  0  0
    4.8535    1.1656    0.0000 H   0  0  0  0  0  0  0  0  0  0  0  0
    8.7364    1.4092    0.0000 H   0  0  0  0  0  0  0  0  0  0  0  0
    9.4646    1.7334    0.0000 H   0  0  0  0  0  0  0  0  0  0  0  0
    6.0010   -0.0367    0.0000 H   0  0  0  0  0  0  0  0  0  0  0  0
    8.4718    3.7925    0.0000 H   0  0  0  0  0  0  0  0  0  0  0  0
   10.7418    2.1432    0.0000 H   0  0  0  0  0  0  0  0  0  0  0  0
    9.4240    5.1031    0.0000 H   0  0  0  0  0  0  0  0  0  0  0  0
   11.6940    3.4538    0.0000 H   0  0  0  0  0  0  0  0  0  0  0  0
   11.0351    4.9338    0.0000 H   0  0  0  0  0  0  0  0  0  0  0  0
    6.0010   -1.4167    0.0000 H   0  0  0  0  0  0  0  0  0  0  0  0
    3.1951   -3.0367    0.0000 H   0  0  0  0  0  0  0  0  0  0  0  0
    4.0611   -4.5367    0.0000 H   0  0  0  0  0  0  0  0  0  0  0  0
    5.1350   -4.5367    0.0000 H   0  0  0  0  0  0  0  0  0  0  0  0
    1.6900   -1.1898    0.0000 H   0  0  0  0  0  0  0  0  0  0  0  0
    1.4631   -2.0367    0.0000 H   0  0  0  0  0  0  0  0  0  0  0  0
    2.3100   -2.2637    0.0000 H   0  0  0  0  0  0  0  0  0  0  0  0
  1 24  1  0  0  0  0
  2 14  2  0  0  0  0
  3 21  1  0  0  0  0
  3 26  1  0  0  0  0
  4  9  1  0  0  0  0
  4 10  1  0  0  0  0
  4 12  1  0  0  0  0
  5 11  1  0  0  0  0
  5 14  1  0  0  0  0
  5 38  1  0  0  0  0
  6 25  1  0  0  0  0
  6 46  1  0  0  0  0
  6 47  1  0  0  0  0
  7  8  1  0  0  0  0
  7  9  1  0  0  0  0
  7 11  1  1  0  0  0
  7 27  1  0  0  0  0
  8 10  1  0  0  0  0
  8 28  1  0  0  0  0
  8 29  1  0  0  0  0
  9 30  1  0  0  0  0
  9 31  1  0  0  0  0
 10 32  1  0  0  0  0
 10 33  1  0  0  0  0
 11 34  1  0  0  0  0
 11 35  1  0  0  0  0
 12 13  1  0  0  0  0
 12 36  1  0  0  0  0
 12 37  1  0  0  0  0
 13 15  2  0  0  0  0
 13 16  1  0  0  0  0
 14 17  1  0  0  0  0
 15 18  1  0  0  0  0
 15 39  1  0  0  0  0
 16 19  2  0  0  0  0
 16 40  1  0  0  0  0
 17 21  1  0  0  0  0
 17 22  2  0  0  0  0
 18 20  2  0  0  0  0
 18 41  1  0  0  0  0
 19 20  1  0  0  0  0
 19 42  1  0  0  0  0
 20 43  1  0  0  0  0
 21 23  2  0  0  0  0
 22 24  1  0  0  0  0
 22 44  1  0  0  0  0
 23 25  1  0  0  0  0
 23 45  1  0  0  0  0
 24 25  2  0  0  0  0
 26 48  1  0  0  0  0
 26 49  1  0  0  0  0
 26 50  1  0  0  0  0
M  END
> <PUBCHEM_COMPOUND_CID>
44380685

> <PUBCHEM_COMPOUND_CANONICALIZED>
1

> <PUBCHEM_CACTVS_COMPLEXITY>
458

> <PUBCHEM_CACTVS_HBOND_ACCEPTOR>
4

> <PUBCHEM_CACTVS_HBOND_DONOR>
2

> <PUBCHEM_CACTVS_ROTATABLE_BOND>
6

> <PUBCHEM_CACTVS_SUBSKEYS>
AAADceB7MAAEAAAAAAAAAAAAAAAAAWAAAAAwYAAAAAAAAAABQAAAHgIQAAAADQ7BmCYyxoPABACIAiVSUACCCAAkJwAIiIEObsgMJjaF95uEMWhm9hmI6YeY2SGeCCAAIgAIABAQQABEABAAIAAAAAAAAA==

> <PUBCHEM_IUPAC_OPENEYE_NAME>
4-amino-N-[[(3R)-1-benzylpyrrolidin-3-yl]methyl]-5-chloro-2-methoxy-benzamide

> <PUBCHEM_IUPAC_CAS_NAME>
4-amino-5-chloro-2-methoxy-N-[[(3R)-1-(phenylmethyl)-3-pyrrolidinyl]methyl]benzamide

> <PUBCHEM_IUPAC_NAME_MARKUP>
4-amino-<I>N</I>-[[(3<I>R</I>)-1-benzylpyrrolidin-3-yl]methyl]-5-chloro-2-methoxybenzamide

> <PUBCHEM_IUPAC_NAME>
4-amino-N-[[(3R)-1-benzylpyrrolidin-3-yl]methyl]-5-chloro-2-methoxybenzamide

> <PUBCHEM_IUPAC_SYSTEMATIC_NAME>
4-azanyl-5-chloranyl-2-methoxy-N-[[(3R)-1-(phenylmethyl)pyrrolidin-3-yl]methyl]benzamide

> <PUBCHEM_IUPAC_TRADITIONAL_NAME>
4-amino-N-[[(3R)-1-benzylpyrrolidin-3-yl]methyl]-5-chloro-2-methoxy-benzamide

> <PUBCHEM_IUPAC_INCHI>
InChI=1S/C20H24ClN3O2/c1-26-19-10-18(22)17(21)9-16(19)20(25)23-11-15-7-8-24(13-15)12-14-5-3-2-4-6-14/h2-6,9-10,15H,7-8,11-13,22H2,1H3,(H,23,25)/t15-/m1/s1

> <PUBCHEM_IUPAC_INCHIKEY>
XZPQRIJZBKZROM-OAHLLOKOSA-N

> <PUBCHEM_XLOGP3_AA>
3

> <PUBCHEM_EXACT_MASS>
373.1557047

> <PUBCHEM_MOLECULAR_FORMULA>
C20H24ClN3O2

> <PUBCHEM_MOLECULAR_WEIGHT>
373.9

> <PUBCHEM_OPENEYE_CAN_SMILES>
COC1=CC(=C(C=C1C(=O)NCC2CCN(C2)CC3=CC=CC=C3)Cl)N

> <PUBCHEM_OPENEYE_ISO_SMILES>
COC1=CC(=C(C=C1C(=O)NC[C@H]2CCN(C2)CC3=CC=CC=C3)Cl)N

> <PUBCHEM_CACTVS_TPSA>
67.6

> <PUBCHEM_MONOISOTOPIC_WEIGHT>
373.1557047

> <PUBCHEM_TOTAL_CHARGE>
0

> <PUBCHEM_HEAVY_ATOM_COUNT>
26

> <PUBCHEM_ATOM_DEF_STEREO_COUNT>
1

> <PUBCHEM_ATOM_UDEF_STEREO_COUNT>
0

> <PUBCHEM_BOND_DEF_STEREO_COUNT>
0

> <PUBCHEM_BOND_UDEF_STEREO_COUNT>
0

> <PUBCHEM_ISOTOPIC_ATOM_COUNT>
0

> <PUBCHEM_COMPONENT_COUNT>
1

> <PUBCHEM_CACTVS_TAUTO_COUNT>
-1

> <PUBCHEM_COORDINATE_TYPE>
1
5
255

> <PUBCHEM_BONDANNOTATIONS>
13  15  8
13  16  8
15  18  8
16  19  8
17  21  8
17  22  8
18  20  8
19  20  8
21  23  8
22  24  8
23  25  8
24  25  8
7  11  5

$$$$
