44589176
  -OEChem-09292322502D

 57 60  0     0  0  0  0  0  0999 V2000
    2.8660    2.5000    0.0000 O   0  0  0  0  0  0  0  0  0  0  0  0
   13.2583    0.5000    0.0000 O   0  0  0  0  0  0  0  0  0  0  0  0
   17.3862   -1.5000    0.0000 O   0  0  0  0  0  0  0  0  0  0  0  0
    8.0622   -0.5000    0.0000 N   0  0  0  0  0  0  0  0  0  0  0  0
    6.3301    0.5000    0.0000 N   0  0  0  0  0  0  0  0  0  0  0  0
   12.3923   -1.0000    0.0000 N   0  0  0  0  0  0  0  0  0  0  0  0
   16.8026   -0.6953    0.0000 N   0  0  0  0  0  0  0  0  0  0  0  0
   16.8026   -2.3047    0.0000 N   0  0  0  0  0  0  0  0  0  0  0  0
    7.1962   -1.0000    0.0000 C   0  0  0  0  0  0  0  0  0  0  0  0
    8.0622    0.5000    0.0000 C   0  0  0  0  0  0  0  0  0  0  0  0
    6.3301   -0.5000    0.0000 C   0  0  0  0  0  0  0  0  0  0  0  0
    7.1962    1.0000    0.0000 C   0  0  0  0  0  0  0  0  0  0  0  0
    8.9282   -1.0000    0.0000 C   0  0  0  0  0  0  0  0  0  0  0  0
    9.7942   -0.5000    0.0000 C   0  0  0  0  0  0  0  0  0  0  0  0
    5.4641    1.0000    0.0000 C   0  0  0  0  0  0  0  0  0  0  0  0
   10.6603   -1.0000    0.0000 C   0  0  0  0  0  0  0  0  0  0  0  0
   11.5263   -0.5000    0.0000 C   0  0  0  0  0  0  0  0  0  0  0  0
    5.4641    2.0000    0.0000 C   0  0  0  0  0  0  0  0  0  0  0  0
    4.5981    0.5000    0.0000 C   0  0  0  0  0  0  0  0  0  0  0  0
    4.5981    2.5000    0.0000 C   0  0  0  0  0  0  0  0  0  0  0  0
    3.7320    1.0000    0.0000 C   0  0  0  0  0  0  0  0  0  0  0  0
    3.7320    2.0000    0.0000 C   0  0  0  0  0  0  0  0  0  0  0  0
   13.2583   -0.5000    0.0000 C   0  0  0  0  0  0  0  0  0  0  0  0
   14.1244   -1.0000    0.0000 C   0  0  0  0  0  0  0  0  0  0  0  0
   14.9904   -0.5000    0.0000 C   0  0  0  0  0  0  0  0  0  0  0  0
   14.1244   -2.0000    0.0000 C   0  0  0  0  0  0  0  0  0  0  0  0
   15.8564   -1.0000    0.0000 C   0  0  0  0  0  0  0  0  0  0  0  0
    2.0000    2.0000    0.0000 C   0  0  0  0  0  0  0  0  0  0  0  0
   14.9904   -2.5000    0.0000 C   0  0  0  0  0  0  0  0  0  0  0  0
   15.8564   -2.0000    0.0000 C   0  0  0  0  0  0  0  0  0  0  0  0
    6.7976   -1.4750    0.0000 H   0  0  0  0  0  0  0  0  0  0  0  0
    7.5947   -1.4750    0.0000 H   0  0  0  0  0  0  0  0  0  0  0  0
    8.6728    0.3923    0.0000 H   0  0  0  0  0  0  0  0  0  0  0  0
    8.2742    1.0826    0.0000 H   0  0  0  0  0  0  0  0  0  0  0  0
    5.7196   -0.3923    0.0000 H   0  0  0  0  0  0  0  0  0  0  0  0
    6.1181   -1.0826    0.0000 H   0  0  0  0  0  0  0  0  0  0  0  0
    7.5947    1.4750    0.0000 H   0  0  0  0  0  0  0  0  0  0  0  0
    6.7976    1.4750    0.0000 H   0  0  0  0  0  0  0  0  0  0  0  0
    8.5297   -1.4750    0.0000 H   0  0  0  0  0  0  0  0  0  0  0  0
    9.3267   -1.4750    0.0000 H   0  0  0  0  0  0  0  0  0  0  0  0
   10.1928   -0.0251    0.0000 H   0  0  0  0  0  0  0  0  0  0  0  0
    9.3957   -0.0251    0.0000 H   0  0  0  0  0  0  0  0  0  0  0  0
   10.2617   -1.4750    0.0000 H   0  0  0  0  0  0  0  0  0  0  0  0
   11.0588   -1.4750    0.0000 H   0  0  0  0  0  0  0  0  0  0  0  0
   11.9248   -0.0251    0.0000 H   0  0  0  0  0  0  0  0  0  0  0  0
   11.1278   -0.0251    0.0000 H   0  0  0  0  0  0  0  0  0  0  0  0
    6.0010    2.3100    0.0000 H   0  0  0  0  0  0  0  0  0  0  0  0
    4.5981   -0.1200    0.0000 H   0  0  0  0  0  0  0  0  0  0  0  0
   12.3923   -1.6200    0.0000 H   0  0  0  0  0  0  0  0  0  0  0  0
    4.5981    3.1200    0.0000 H   0  0  0  0  0  0  0  0  0  0  0  0
    3.1951    0.6900    0.0000 H   0  0  0  0  0  0  0  0  0  0  0  0
   14.9904    0.1200    0.0000 H   0  0  0  0  0  0  0  0  0  0  0  0
   13.5874   -2.3100    0.0000 H   0  0  0  0  0  0  0  0  0  0  0  0
   14.9904   -3.1200    0.0000 H   0  0  0  0  0  0  0  0  0  0  0  0
    1.6900    2.5369    0.0000 H   0  0  0  0  0  0  0  0  0  0  0  0
    1.4631    1.6900    0.0000 H   0  0  0  0  0  0  0  0  0  0  0  0
    2.3100    1.4631    0.0000 H   0  0  0  0  0  0  0  0  0  0  0  0
  1 22  1  0  0  0  0
  1 28  1  0  0  0  0
  2 23  2  0  0  0  0
  3  7  1  0  0  0  0
  3  8  1  0  0  0  0
  4  9  1  0  0  0  0
  4 10  1  0  0  0  0
  4 13  1  0  0  0  0
  5 11  1  0  0  0  0
  5 12  1  0  0  0  0
  5 15  1  0  0  0  0
  6 17  1  0  0  0  0
  6 23  1  0  0  0  0
  6 49  1  0  0  0  0
  7 27  2  0  0  0  0
  8 30  2  0  0  0  0
  9 11  1  0  0  0  0
  9 31  1  0  0  0  0
  9 32  1  0  0  0  0
 10 12  1  0  0  0  0
 10 33  1  0  0  0  0
 10 34  1  0  0  0  0
 11 35  1  0  0  0  0
 11 36  1  0  0  0  0
 12 37  1  0  0  0  0
 12 38  1  0  0  0  0
 13 14  1  0  0  0  0
 13 39  1  0  0  0  0
 13 40  1  0  0  0  0
 14 16  1  0  0  0  0
 14 41  1  0  0  0  0
 14 42  1  0  0  0  0
 15 18  2  0  0  0  0
 15 19  1  0  0  0  0
 16 17  1  0  0  0  0
 16 43  1  0  0  0  0
 16 44  1  0  0  0  0
 17 45  1  0  0  0  0
 17 46  1  0  0  0  0
 18 20  1  0  0  0  0
 18 47  1  0  0  0  0
 19 21  2  0  0  0  0
 19 48  1  0  0  0  0
 20 22  2  0  0  0  0
 20 50  1  0  0  0  0
 21 22  1  0  0  0  0
 21 51  1  0  0  0  0
 23 24  1  0  0  0  0
 24 25  2  0  0  0  0
 24 26  1  0  0  0  0
 25 27  1  0  0  0  0
 25 52  1  0  0  0  0
 26 29  2  0  0  0  0
 26 53  1  0  0  0  0
 27 30  1  0  0  0  0
 28 55  1  0  0  0  0
 28 56  1  0  0  0  0
 28 57  1  0  0  0  0
 29 30  1  0  0  0  0
 29 54  1  0  0  0  0
M  END
> <PUBCHEM_COMPOUND_CID>
44589176

> <PUBCHEM_COMPOUND_CANONICALIZED>
1

> <PUBCHEM_CACTVS_COMPLEXITY>
535

> <PUBCHEM_CACTVS_HBOND_ACCEPTOR>
7

> <PUBCHEM_CACTVS_HBOND_DONOR>
1

> <PUBCHEM_CACTVS_ROTATABLE_BOND>
8

> <PUBCHEM_CACTVS_SUBSKEYS>
AAADceB7sAAAAAAAAAAAAAAAAAAAAWAAAAA8YIAAAAAAAFgB9AAAHgAUAAAADAzBngYyxrPQBACpAyVyUgCCCAQlMgAomKE+fNoMZrLEtZuUMShk1pHI6Ye8yQCeCEAAQAAAACAQgACAAAAAQAAAAAAAAA==

> <PUBCHEM_IUPAC_OPENEYE_NAME>
N-[4-[4-(4-methoxyphenyl)piperazin-1-yl]butyl]-2,1,3-benzoxadiazole-5-carboxamide

> <PUBCHEM_IUPAC_CAS_NAME>
N-[4-[4-(4-methoxyphenyl)-1-piperazinyl]butyl]-2,1,3-benzoxadiazole-5-carboxamide

> <PUBCHEM_IUPAC_NAME_MARKUP>
<I>N</I>-[4-[4-(4-methoxyphenyl)piperazin-1-yl]butyl]-2,1,3-benzoxadiazole-5-carboxamide

> <PUBCHEM_IUPAC_NAME>
N-[4-[4-(4-methoxyphenyl)piperazin-1-yl]butyl]-2,1,3-benzoxadiazole-5-carboxamide

> <PUBCHEM_IUPAC_SYSTEMATIC_NAME>
N-[4-[4-(4-methoxyphenyl)piperazin-1-yl]butyl]-2,1,3-benzoxadiazole-5-carboxamide

> <PUBCHEM_IUPAC_TRADITIONAL_NAME>
N-[4-[4-(4-methoxyphenyl)piperazino]butyl]benzofurazan-5-carboxamide

> <PUBCHEM_IUPAC_INCHI>
InChI=1S/C22H27N5O3/c1-29-19-7-5-18(6-8-19)27-14-12-26(13-15-27)11-3-2-10-23-22(28)17-4-9-20-21(16-17)25-30-24-20/h4-9,16H,2-3,10-15H2,1H3,(H,23,28)

> <PUBCHEM_IUPAC_INCHIKEY>
DDFNIAVTIHLFOR-UHFFFAOYSA-N

> <PUBCHEM_XLOGP3_AA>
2.8

> <PUBCHEM_EXACT_MASS>
409.21138974

> <PUBCHEM_MOLECULAR_FORMULA>
C22H27N5O3

> <PUBCHEM_MOLECULAR_WEIGHT>
409.5

> <PUBCHEM_OPENEYE_CAN_SMILES>
COC1=CC=C(C=C1)N2CCN(CC2)CCCCNC(=O)C3=CC4=NON=C4C=C3

> <PUBCHEM_OPENEYE_ISO_SMILES>
COC1=CC=C(C=C1)N2CCN(CC2)CCCCNC(=O)C3=CC4=NON=C4C=C3

> <PUBCHEM_CACTVS_TPSA>
83.7

> <PUBCHEM_MONOISOTOPIC_WEIGHT>
409.21138974

> <PUBCHEM_TOTAL_CHARGE>
0

> <PUBCHEM_HEAVY_ATOM_COUNT>
30

> <PUBCHEM_ATOM_DEF_STEREO_COUNT>
0

> <PUBCHEM_ATOM_UDEF_STEREO_COUNT>
0

> <PUBCHEM_BOND_DEF_STEREO_COUNT>
0

> <PUBCHEM_BOND_UDEF_STEREO_COUNT>
0

> <PUBCHEM_ISOTOPIC_ATOM_COUNT>
0

> <PUBCHEM_COMPONENT_COUNT>
1

> <PUBCHEM_CACTVS_TAUTO_COUNT>
-1

> <PUBCHEM_COORDINATE_TYPE>
1
5
255

> <PUBCHEM_BONDANNOTATIONS>
15  18  8
15  19  8
18  20  8
19  21  8
20  22  8
21  22  8
24  25  8
24  26  8
25  27  8
26  29  8
27  30  8
29  30  8
3  7  8
3  8  8
7  27  8
8  30  8

$$$$
