49781680
  -OEChem-09292322312D

 60 64  0     1  0  0  0  0  0999 V2000
    7.7463   -2.7342    0.0000 S   0  0  0  0  0  0  0  0  0  0  0  0
    6.8124    0.3574    0.0000 N   0  0  0  0  0  0  0  0  0  0  0  0
    5.9447    2.1593    0.0000 N   0  0  0  0  0  0  0  0  0  0  0  0
    7.2463   -0.5436    0.0000 C   0  0  3  0  0  0  0  0  0  0  0  0
    5.8152    0.4321    0.0000 C   0  0  0  0  0  0  0  0  0  0  0  0
    7.3757    1.1836    0.0000 C   0  0  0  0  0  0  0  0  0  0  0  0
    8.2463   -0.5436    0.0000 C   0  0  0  0  0  0  0  0  0  0  0  0
    5.3813    1.3331    0.0000 C   0  0  0  0  0  0  0  0  0  0  0  0
    6.9419    2.0846    0.0000 C   0  0  0  0  0  0  0  0  0  0  0  0
    6.6228   -1.3254    0.0000 C   0  0  0  0  0  0  0  0  0  0  0  0
    8.8698   -1.3254    0.0000 C   0  0  0  0  0  0  0  0  0  0  0  0
    6.8453   -2.3003    0.0000 C   0  0  0  0  0  0  0  0  0  0  0  0
    5.6323   -1.0031    0.0000 C   0  0  0  0  0  0  0  0  0  0  0  0
    5.5108    3.0603    0.0000 C   0  0  0  0  0  0  0  0  0  0  0  0
    8.6472   -2.3004    0.0000 C   0  0  0  0  0  0  0  0  0  0  0  0
    4.8633   -1.7056    0.0000 C   0  0  0  0  0  0  0  0  0  0  0  0
    6.0928   -3.0205    0.0000 C   0  0  0  0  0  0  0  0  0  0  0  0
    9.8603   -1.0031    0.0000 C   0  0  0  0  0  0  0  0  0  0  0  0
    5.0951   -2.7212    0.0000 C   0  0  0  0  0  0  0  0  0  0  0  0
    3.9088   -1.4072    0.0000 C   0  0  0  0  0  0  0  0  0  0  0  0
    9.3998   -3.0205    0.0000 C   0  0  0  0  0  0  0  0  0  0  0  0
   10.6293   -1.7057    0.0000 C   0  0  0  0  0  0  0  0  0  0  0  0
   10.3975   -2.7212    0.0000 C   0  0  0  0  0  0  0  0  0  0  0  0
    3.1732   -2.0845    0.0000 C   0  0  0  0  0  0  0  0  0  0  0  0
    3.6901   -0.4314    0.0000 C   0  0  0  0  0  0  0  0  0  0  0  0
    2.2188   -1.7861    0.0000 C   0  0  0  0  0  0  0  0  0  0  0  0
    2.7357   -0.1330    0.0000 C   0  0  0  0  0  0  0  0  0  0  0  0
    3.3919   -3.0603    0.0000 C   0  0  0  0  0  0  0  0  0  0  0  0
    4.4258    0.2459    0.0000 C   0  0  0  0  0  0  0  0  0  0  0  0
    2.0000   -0.8103    0.0000 C   0  0  0  0  0  0  0  0  0  0  0  0
    7.5762   -0.0186    0.0000 H   0  0  0  0  0  0  0  0  0  0  0  0
    5.2184    0.2642    0.0000 H   0  0  0  0  0  0  0  0  0  0  0  0
    5.8769   -0.1848    0.0000 H   0  0  0  0  0  0  0  0  0  0  0  0
    7.8196    0.7507    0.0000 H   0  0  0  0  0  0  0  0  0  0  0  0
    7.8791    1.5456    0.0000 H   0  0  0  0  0  0  0  0  0  0  0  0
    8.8049   -0.2746    0.0000 H   0  0  0  0  0  0  0  0  0  0  0  0
    8.1083    0.0609    0.0000 H   0  0  0  0  0  0  0  0  0  0  0  0
    4.9375    1.7660    0.0000 H   0  0  0  0  0  0  0  0  0  0  0  0
    4.8779    0.9712    0.0000 H   0  0  0  0  0  0  0  0  0  0  0  0
    7.5387    2.2525    0.0000 H   0  0  0  0  0  0  0  0  0  0  0  0
    6.8801    2.7015    0.0000 H   0  0  0  0  0  0  0  0  0  0  0  0
    5.5013   -0.3970    0.0000 H   0  0  0  0  0  0  0  0  0  0  0  0
    6.0694    3.3293    0.0000 H   0  0  0  0  0  0  0  0  0  0  0  0
    5.2418    3.6189    0.0000 H   0  0  0  0  0  0  0  0  0  0  0  0
    4.9522    2.7913    0.0000 H   0  0  0  0  0  0  0  0  0  0  0  0
    6.2377   -3.6233    0.0000 H   0  0  0  0  0  0  0  0  0  0  0  0
    9.9913   -0.3971    0.0000 H   0  0  0  0  0  0  0  0  0  0  0  0
    4.6422   -3.1446    0.0000 H   0  0  0  0  0  0  0  0  0  0  0  0
    9.2548   -3.6234    0.0000 H   0  0  0  0  0  0  0  0  0  0  0  0
   11.2210   -1.5206    0.0000 H   0  0  0  0  0  0  0  0  0  0  0  0
   10.8504   -3.1446    0.0000 H   0  0  0  0  0  0  0  0  0  0  0  0
    1.7626   -2.2060    0.0000 H   0  0  0  0  0  0  0  0  0  0  0  0
    2.6000    0.4720    0.0000 H   0  0  0  0  0  0  0  0  0  0  0  0
    2.7870   -3.1959    0.0000 H   0  0  0  0  0  0  0  0  0  0  0  0
    3.5276   -3.6653    0.0000 H   0  0  0  0  0  0  0  0  0  0  0  0
    3.9969   -2.9247    0.0000 H   0  0  0  0  0  0  0  0  0  0  0  0
    4.8457   -0.2102    0.0000 H   0  0  0  0  0  0  0  0  0  0  0  0
    4.8819    0.6659    0.0000 H   0  0  0  0  0  0  0  0  0  0  0  0
    4.0058    0.7020    0.0000 H   0  0  0  0  0  0  0  0  0  0  0  0
    1.4083   -0.6253    0.0000 H   0  0  0  0  0  0  0  0  0  0  0  0
  1 12  1  0  0  0  0
  1 15  1  0  0  0  0
  2  4  1  0  0  0  0
  2  5  1  0  0  0  0
  2  6  1  0  0  0  0
  3  8  1  0  0  0  0
  3  9  1  0  0  0  0
  3 14  1  0  0  0  0
  4  7  1  0  0  0  0
  4 10  1  0  0  0  0
  4 31  1  0  0  0  0
  5  8  1  0  0  0  0
  5 32  1  0  0  0  0
  5 33  1  0  0  0  0
  6  9  1  0  0  0  0
  6 34  1  0  0  0  0
  6 35  1  0  0  0  0
  7 11  1  0  0  0  0
  7 36  1  0  0  0  0
  7 37  1  0  0  0  0
  8 38  1  0  0  0  0
  8 39  1  0  0  0  0
  9 40  1  0  0  0  0
  9 41  1  0  0  0  0
 10 12  2  0  0  0  0
 10 13  1  0  0  0  0
 11 15  1  0  0  0  0
 11 18  2  0  0  0  0
 12 17  1  0  0  0  0
 13 16  2  0  0  0  0
 13 42  1  0  0  0  0
 14 43  1  0  0  0  0
 14 44  1  0  0  0  0
 14 45  1  0  0  0  0
 15 21  2  0  0  0  0
 16 19  1  0  0  0  0
 16 20  1  0  0  0  0
 17 19  2  0  0  0  0
 17 46  1  0  0  0  0
 18 22  1  0  0  0  0
 18 47  1  0  0  0  0
 19 48  1  0  0  0  0
 20 24  2  0  0  0  0
 20 25  1  0  0  0  0
 21 23  1  0  0  0  0
 21 49  1  0  0  0  0
 22 23  2  0  0  0  0
 22 50  1  0  0  0  0
 23 51  1  0  0  0  0
 24 26  1  0  0  0  0
 24 28  1  0  0  0  0
 25 27  2  0  0  0  0
 25 29  1  0  0  0  0
 26 30  2  0  0  0  0
 26 52  1  0  0  0  0
 27 30  1  0  0  0  0
 27 53  1  0  0  0  0
 28 54  1  0  0  0  0
 28 55  1  0  0  0  0
 28 56  1  0  0  0  0
 29 57  1  0  0  0  0
 29 58  1  0  0  0  0
 29 59  1  0  0  0  0
 30 60  1  0  0  0  0
M  END
> <PUBCHEM_COMPOUND_CID>
49781680

> <PUBCHEM_COMPOUND_CANONICALIZED>
1

> <PUBCHEM_CACTVS_COMPLEXITY>
549

> <PUBCHEM_CACTVS_HBOND_ACCEPTOR>
3

> <PUBCHEM_CACTVS_HBOND_DONOR>
0

> <PUBCHEM_CACTVS_ROTATABLE_BOND>
2

> <PUBCHEM_CACTVS_SUBSKEYS>
AAADceB7AABAAAAAAAAAAAAAAAAAAAAAAAA8YMEABIAAAAABUAAAHAQAAAAADCjBWAQyAYMAAAiAAiBCAACCAAAgCBAIiBgIBIgIYCKgkRGUIAhggACoiAcQgMAOkAACAAAUAAAgAAQAACgAAAAAAAAAAA==

> <PUBCHEM_IUPAC_OPENEYE_NAME>
1-[3-(2,6-dimethylphenyl)-5,6-dihydrobenzo[b][1]benzothiepin-5-yl]-4-methyl-piperazine

> <PUBCHEM_IUPAC_CAS_NAME>
1-[3-(2,6-dimethylphenyl)-5,6-dihydrobenzo[b][1]benzothiepin-5-yl]-4-methylpiperazine

> <PUBCHEM_IUPAC_NAME_MARKUP>
1-[3-(2,6-dimethylphenyl)-5,6-dihydrobenzo[b][1]benzothiepin-5-yl]-4-methylpiperazine

> <PUBCHEM_IUPAC_NAME>
1-[3-(2,6-dimethylphenyl)-5,6-dihydrobenzo[b][1]benzothiepin-5-yl]-4-methylpiperazine

> <PUBCHEM_IUPAC_SYSTEMATIC_NAME>
1-[3-(2,6-dimethylphenyl)-5,6-dihydrobenzo[b][1]benzothiepin-5-yl]-4-methyl-piperazine

> <PUBCHEM_IUPAC_TRADITIONAL_NAME>
1-[3-(2,6-dimethylphenyl)-5,6-dihydrobenzo[b][1]benzothiepin-5-yl]-4-methyl-piperazine

> <PUBCHEM_IUPAC_INCHI>
InChI=1S/C27H30N2S/c1-19-7-6-8-20(2)27(19)22-11-12-26-23(17-22)24(29-15-13-28(3)14-16-29)18-21-9-4-5-10-25(21)30-26/h4-12,17,24H,13-16,18H2,1-3H3

> <PUBCHEM_IUPAC_INCHIKEY>
KQRHCJXCCFJNQW-UHFFFAOYSA-N

> <PUBCHEM_XLOGP3_AA>
6.1

> <PUBCHEM_EXACT_MASS>
414.21297014

> <PUBCHEM_MOLECULAR_FORMULA>
C27H30N2S

> <PUBCHEM_MOLECULAR_WEIGHT>
414.6

> <PUBCHEM_OPENEYE_CAN_SMILES>
CC1=C(C(=CC=C1)C)C2=CC3=C(C=C2)SC4=CC=CC=C4CC3N5CCN(CC5)C

> <PUBCHEM_OPENEYE_ISO_SMILES>
CC1=C(C(=CC=C1)C)C2=CC3=C(C=C2)SC4=CC=CC=C4CC3N5CCN(CC5)C

> <PUBCHEM_CACTVS_TPSA>
31.8

> <PUBCHEM_MONOISOTOPIC_WEIGHT>
414.21297014

> <PUBCHEM_TOTAL_CHARGE>
0

> <PUBCHEM_HEAVY_ATOM_COUNT>
30

> <PUBCHEM_ATOM_DEF_STEREO_COUNT>
0

> <PUBCHEM_ATOM_UDEF_STEREO_COUNT>
1

> <PUBCHEM_BOND_DEF_STEREO_COUNT>
0

> <PUBCHEM_BOND_UDEF_STEREO_COUNT>
0

> <PUBCHEM_ISOTOPIC_ATOM_COUNT>
0

> <PUBCHEM_COMPONENT_COUNT>
1

> <PUBCHEM_CACTVS_TAUTO_COUNT>
-1

> <PUBCHEM_COORDINATE_TYPE>
1
5
255

> <PUBCHEM_BONDANNOTATIONS>
10  12  8
10  13  8
11  15  8
11  18  8
12  17  8
13  16  8
15  21  8
16  19  8
17  19  8
18  22  8
4  2  3
20  24  8
20  25  8
21  23  8
22  23  8
24  26  8
25  27  8
26  30  8
27  30  8

$$$$
