135986088
  -OEChem-09292322232D

 77 82  0     0  0  0  0  0  0999 V2000
    8.7204   -5.5036    0.0000 Cl  0  0  0  0  0  0  0  0  0  0  0  0
    4.9008    2.2689    0.0000 O   0  0  0  0  0  0  0  0  0  0  0  0
    5.1597    5.7233    0.0000 N   0  0  0  0  0  0  0  0  0  0  0  0
    3.0814   -1.9370    0.0000 N   0  0  0  0  0  0  0  0  0  0  0  0
    3.9491   -3.7389    0.0000 N   0  0  0  0  0  0  0  0  0  0  0  0
    5.3830   -4.6399    0.0000 N   0  0  0  0  0  0  0  0  0  0  0  0
    4.8830   -6.8306    0.0000 N   0  0  0  0  0  0  0  0  0  0  0  0
    6.1569    5.6486    0.0000 C   0  0  0  0  0  0  0  0  0  0  0  0
    4.7258    6.6243    0.0000 C   0  0  0  0  0  0  0  0  0  0  0  0
    6.7202    6.4748    0.0000 C   0  0  0  0  0  0  0  0  0  0  0  0
    5.2892    7.4506    0.0000 C   0  0  0  0  0  0  0  0  0  0  0  0
    6.2864    7.3758    0.0000 C   0  0  0  0  0  0  0  0  0  0  0  0
    2.5180   -2.7632    0.0000 C   0  0  0  0  0  0  0  0  0  0  0  0
    4.0786   -2.0117    0.0000 C   0  0  0  0  0  0  0  0  0  0  0  0
    2.9519   -3.6642    0.0000 C   0  0  0  0  0  0  0  0  0  0  0  0
    4.5125   -2.9127    0.0000 C   0  0  0  0  0  0  0  0  0  0  0  0
    4.5964    4.8971    0.0000 C   0  0  0  0  0  0  0  0  0  0  0  0
    2.6475   -1.0360    0.0000 C   0  0  0  0  0  0  0  0  0  0  0  0
    5.0303    3.9961    0.0000 C   0  0  0  0  0  0  0  0  0  0  0  0
    4.3830   -4.6399    0.0000 C   0  0  0  0  0  0  0  0  0  0  0  0
    3.2108   -0.2098    0.0000 C   0  0  0  0  0  0  0  0  0  0  0  0
    4.4669    3.1699    0.0000 C   0  0  0  0  0  0  0  0  0  0  0  0
    3.7595   -5.4217    0.0000 C   0  0  0  0  0  0  0  0  0  0  0  0
    3.9820   -6.3967    0.0000 C   0  0  0  0  0  0  0  0  0  0  0  0
    4.2080   -0.2845    0.0000 C   0  0  0  0  0  0  0  0  0  0  0  0
    2.7769    0.6912    0.0000 C   0  0  0  0  0  0  0  0  0  0  0  0
    4.3375    1.4427    0.0000 C   0  0  0  0  0  0  0  0  0  0  0  0
    6.0065   -5.4217    0.0000 C   0  0  0  0  0  0  0  0  0  0  0  0
    2.7690   -5.0994    0.0000 C   0  0  0  0  0  0  0  0  0  0  0  0
    4.7714    0.5417    0.0000 C   0  0  0  0  0  0  0  0  0  0  0  0
    3.3403    1.5174    0.0000 C   0  0  0  0  0  0  0  0  0  0  0  0
    5.7840   -6.3967    0.0000 C   0  0  0  0  0  0  0  0  0  0  0  0
    3.2295   -7.1168    0.0000 C   0  0  0  0  0  0  0  0  0  0  0  0
    2.0000   -5.8020    0.0000 C   0  0  0  0  0  0  0  0  0  0  0  0
    2.2318   -6.8175    0.0000 C   0  0  0  0  0  0  0  0  0  0  0  0
    6.9970   -5.0994    0.0000 C   0  0  0  0  0  0  0  0  0  0  0  0
    6.5365   -7.1168    0.0000 C   0  0  0  0  0  0  0  0  0  0  0  0
    7.7660   -5.8020    0.0000 C   0  0  0  0  0  0  0  0  0  0  0  0
    7.5342   -6.8175    0.0000 C   0  0  0  0  0  0  0  0  0  0  0  0
    6.0039    5.0478    0.0000 H   0  0  0  0  0  0  0  0  0  0  0  0
    6.7220    5.3936    0.0000 H   0  0  0  0  0  0  0  0  0  0  0  0
    4.2820    7.0572    0.0000 H   0  0  0  0  0  0  0  0  0  0  0  0
    4.2224    6.2624    0.0000 H   0  0  0  0  0  0  0  0  0  0  0  0
    7.1641    6.0419    0.0000 H   0  0  0  0  0  0  0  0  0  0  0  0
    7.2236    6.8368    0.0000 H   0  0  0  0  0  0  0  0  0  0  0  0
    5.4422    8.0514    0.0000 H   0  0  0  0  0  0  0  0  0  0  0  0
    4.7240    7.7056    0.0000 H   0  0  0  0  0  0  0  0  0  0  0  0
    6.8832    7.5437    0.0000 H   0  0  0  0  0  0  0  0  0  0  0  0
    6.2246    7.9927    0.0000 H   0  0  0  0  0  0  0  0  0  0  0  0
    2.0742   -2.3303    0.0000 H   0  0  0  0  0  0  0  0  0  0  0  0
    2.0146   -3.1251    0.0000 H   0  0  0  0  0  0  0  0  0  0  0  0
    4.6754   -1.8438    0.0000 H   0  0  0  0  0  0  0  0  0  0  0  0
    4.0168   -1.3948    0.0000 H   0  0  0  0  0  0  0  0  0  0  0  0
    2.3551   -3.8321    0.0000 H   0  0  0  0  0  0  0  0  0  0  0  0
    3.0137   -4.2811    0.0000 H   0  0  0  0  0  0  0  0  0  0  0  0
    4.9563   -3.3456    0.0000 H   0  0  0  0  0  0  0  0  0  0  0  0
    5.0159   -2.5508    0.0000 H   0  0  0  0  0  0  0  0  0  0  0  0
    4.1525    5.3300    0.0000 H   0  0  0  0  0  0  0  0  0  0  0  0
    4.0930    4.5352    0.0000 H   0  0  0  0  0  0  0  0  0  0  0  0
    2.2037   -0.6031    0.0000 H   0  0  0  0  0  0  0  0  0  0  0  0
    2.1441   -1.3979    0.0000 H   0  0  0  0  0  0  0  0  0  0  0  0
    5.4741    3.5632    0.0000 H   0  0  0  0  0  0  0  0  0  0  0  0
    5.5337    4.3581    0.0000 H   0  0  0  0  0  0  0  0  0  0  0  0
    4.0231    3.6028    0.0000 H   0  0  0  0  0  0  0  0  0  0  0  0
    3.9635    2.8080    0.0000 H   0  0  0  0  0  0  0  0  0  0  0  0
    4.4770   -0.8431    0.0000 H   0  0  0  0  0  0  0  0  0  0  0  0
    2.1587    0.7375    0.0000 H   0  0  0  0  0  0  0  0  0  0  0  0
    2.6380   -4.4934    0.0000 H   0  0  0  0  0  0  0  0  0  0  0  0
    5.3896    0.4954    0.0000 H   0  0  0  0  0  0  0  0  0  0  0  0
    3.0713    2.0760    0.0000 H   0  0  0  0  0  0  0  0  0  0  0  0
    4.8830   -7.4506    0.0000 H   0  0  0  0  0  0  0  0  0  0  0  0
    3.3744   -7.7196    0.0000 H   0  0  0  0  0  0  0  0  0  0  0  0
    1.4083   -5.6169    0.0000 H   0  0  0  0  0  0  0  0  0  0  0  0
    1.7789   -7.2409    0.0000 H   0  0  0  0  0  0  0  0  0  0  0  0
    7.1280   -4.4934    0.0000 H   0  0  0  0  0  0  0  0  0  0  0  0
    6.3916   -7.7197    0.0000 H   0  0  0  0  0  0  0  0  0  0  0  0
    7.9871   -7.2410    0.0000 H   0  0  0  0  0  0  0  0  0  0  0  0
  1 38  1  0  0  0  0
  2 22  1  0  0  0  0
  2 27  1  0  0  0  0
  3  8  1  0  0  0  0
  3  9  1  0  0  0  0
  3 17  1  0  0  0  0
  4 13  1  0  0  0  0
  4 14  1  0  0  0  0
  4 18  1  0  0  0  0
  5 15  1  0  0  0  0
  5 16  1  0  0  0  0
  5 20  1  0  0  0  0
  6 20  2  0  0  0  0
  6 28  1  0  0  0  0
  7 24  1  0  0  0  0
  7 32  1  0  0  0  0
  7 71  1  0  0  0  0
  8 10  1  0  0  0  0
  8 40  1  0  0  0  0
  8 41  1  0  0  0  0
  9 11  1  0  0  0  0
  9 42  1  0  0  0  0
  9 43  1  0  0  0  0
 10 12  1  0  0  0  0
 10 44  1  0  0  0  0
 10 45  1  0  0  0  0
 11 12  1  0  0  0  0
 11 46  1  0  0  0  0
 11 47  1  0  0  0  0
 12 48  1  0  0  0  0
 12 49  1  0  0  0  0
 13 15  1  0  0  0  0
 13 50  1  0  0  0  0
 13 51  1  0  0  0  0
 14 16  1  0  0  0  0
 14 52  1  0  0  0  0
 14 53  1  0  0  0  0
 15 54  1  0  0  0  0
 15 55  1  0  0  0  0
 16 56  1  0  0  0  0
 16 57  1  0  0  0  0
 17 19  1  0  0  0  0
 17 58  1  0  0  0  0
 17 59  1  0  0  0  0
 18 21  1  0  0  0  0
 18 60  1  0  0  0  0
 18 61  1  0  0  0  0
 19 22  1  0  0  0  0
 19 62  1  0  0  0  0
 19 63  1  0  0  0  0
 20 23  1  0  0  0  0
 21 25  2  0  0  0  0
 21 26  1  0  0  0  0
 22 64  1  0  0  0  0
 22 65  1  0  0  0  0
 23 24  1  0  0  0  0
 23 29  2  0  0  0  0
 24 33  2  0  0  0  0
 25 30  1  0  0  0  0
 25 66  1  0  0  0  0
 26 31  2  0  0  0  0
 26 67  1  0  0  0  0
 27 30  2  0  0  0  0
 27 31  1  0  0  0  0
 28 32  2  0  0  0  0
 28 36  1  0  0  0  0
 29 34  1  0  0  0  0
 29 68  1  0  0  0  0
 30 69  1  0  0  0  0
 31 70  1  0  0  0  0
 32 37  1  0  0  0  0
 33 35  1  0  0  0  0
 33 72  1  0  0  0  0
 34 35  2  0  0  0  0
 34 73  1  0  0  0  0
 35 74  1  0  0  0  0
 36 38  2  0  0  0  0
 36 75  1  0  0  0  0
 37 39  2  0  0  0  0
 37 76  1  0  0  0  0
 38 39  1  0  0  0  0
 39 77  1  0  0  0  0
M  END
> <PUBCHEM_COMPOUND_CID>
135986088

> <PUBCHEM_COMPOUND_CANONICALIZED>
1

> <PUBCHEM_CACTVS_COMPLEXITY>
775

> <PUBCHEM_CACTVS_HBOND_ACCEPTOR>
5

> <PUBCHEM_CACTVS_HBOND_DONOR>
1

> <PUBCHEM_CACTVS_ROTATABLE_BOND>
8

> <PUBCHEM_CACTVS_SUBSKEYS>
AAADcfB/oAAEAAAAAAAAAAAAAAAAAAAAAAA8eMECBAAAAAABUAAAHgIQAAAADA7hmCYxxoPABACgAiZiZACCCAEhJwAJiAAufpgMZuLF+5uWOCjm0BHI6AeQ0AIOIABAAAICACBAAIAABAQAQAAAAAAAAA==

> <PUBCHEM_IUPAC_OPENEYE_NAME>
3-chloro-6-[4-[[4-[3-(1-piperidyl)propoxy]phenyl]methyl]piperazin-1-yl]-11H-benzo[b][1,4]benzodiazepine

> <PUBCHEM_IUPAC_CAS_NAME>
3-chloro-6-[4-[[4-[3-(1-piperidinyl)propoxy]phenyl]methyl]-1-piperazinyl]-11H-benzo[b][1,4]benzodiazepine

> <PUBCHEM_IUPAC_NAME_MARKUP>
3-chloro-6-[4-[[4-(3-piperidin-1-ylpropoxy)phenyl]methyl]piperazin-1-yl]-11<I>H</I>-benzo[b][1,4]benzodiazepine

> <PUBCHEM_IUPAC_NAME>
3-chloro-6-[4-[[4-(3-piperidin-1-ylpropoxy)phenyl]methyl]piperazin-1-yl]-11H-benzo[b][1,4]benzodiazepine

> <PUBCHEM_IUPAC_SYSTEMATIC_NAME>
3-chloranyl-6-[4-[[4-(3-piperidin-1-ylpropoxy)phenyl]methyl]piperazin-1-yl]-11H-benzo[b][1,4]benzodiazepine

> <PUBCHEM_IUPAC_TRADITIONAL_NAME>
3-chloro-6-[4-[4-(3-piperidinopropoxy)benzyl]piperazino]-11H-benzo[b][1,4]benzodiazepine

> <PUBCHEM_IUPAC_INCHI>
InChI=1S/C32H38ClN5O/c33-26-11-14-30-31(23-26)35-32(28-7-2-3-8-29(28)34-30)38-20-18-37(19-21-38)24-25-9-12-27(13-10-25)39-22-6-17-36-15-4-1-5-16-36/h2-3,7-14,23,34H,1,4-6,15-22,24H2

> <PUBCHEM_IUPAC_INCHIKEY>
CILDROBPHGWMGB-UHFFFAOYSA-N

> <PUBCHEM_XLOGP3_AA>
5.8

> <PUBCHEM_EXACT_MASS>
543.2764885

> <PUBCHEM_MOLECULAR_FORMULA>
C32H38ClN5O

> <PUBCHEM_MOLECULAR_WEIGHT>
544.1

> <PUBCHEM_OPENEYE_CAN_SMILES>
C1CCN(CC1)CCCOC2=CC=C(C=C2)CN3CCN(CC3)C4=NC5=C(C=CC(=C5)Cl)NC6=CC=CC=C64

> <PUBCHEM_OPENEYE_ISO_SMILES>
C1CCN(CC1)CCCOC2=CC=C(C=C2)CN3CCN(CC3)C4=NC5=C(C=CC(=C5)Cl)NC6=CC=CC=C64

> <PUBCHEM_CACTVS_TPSA>
43.3

> <PUBCHEM_MONOISOTOPIC_WEIGHT>
543.2764885

> <PUBCHEM_TOTAL_CHARGE>
0

> <PUBCHEM_HEAVY_ATOM_COUNT>
39

> <PUBCHEM_ATOM_DEF_STEREO_COUNT>
0

> <PUBCHEM_ATOM_UDEF_STEREO_COUNT>
0

> <PUBCHEM_BOND_DEF_STEREO_COUNT>
0

> <PUBCHEM_BOND_UDEF_STEREO_COUNT>
0

> <PUBCHEM_ISOTOPIC_ATOM_COUNT>
0

> <PUBCHEM_COMPONENT_COUNT>
1

> <PUBCHEM_CACTVS_TAUTO_COUNT>
-1

> <PUBCHEM_COORDINATE_TYPE>
1
5
255

> <PUBCHEM_BONDANNOTATIONS>
21  25  8
21  26  8
23  24  8
23  29  8
24  33  8
25  30  8
26  31  8
27  30  8
27  31  8
28  32  8
28  36  8
29  34  8
32  37  8
33  35  8
34  35  8
36  38  8
37  39  8
38  39  8

$$$$
