46893146
  -OEChem-09292322312D

 67 71  0     0  0  0  0  0  0999 V2000
    2.6663    1.5056    0.0000 S   0  0  0  0  0  0  0  0  0  0  0  0
    7.1115   -1.1154    0.0000 O   0  0  0  0  0  0  0  0  0  0  0  0
   15.7717   -0.1154    0.0000 O   0  0  0  0  0  0  0  0  0  0  0  0
   12.3076   -0.1154    0.0000 N   0  0  0  0  0  0  0  0  0  0  0  0
   14.0397   -1.1154    0.0000 N   0  0  0  0  0  0  0  0  0  0  0  0
    7.9775    0.3846    0.0000 N   0  0  0  0  0  0  0  0  0  0  0  0
   12.3076   -1.1154    0.0000 C   0  0  0  0  0  0  0  0  0  0  0  0
   13.1737    0.3846    0.0000 C   0  0  0  0  0  0  0  0  0  0  0  0
   11.4416    0.3846    0.0000 C   0  0  0  0  0  0  0  0  0  0  0  0
   13.1737   -1.6154    0.0000 C   0  0  0  0  0  0  0  0  0  0  0  0
   14.0397   -0.1154    0.0000 C   0  0  0  0  0  0  0  0  0  0  0  0
   10.5756   -0.1154    0.0000 C   0  0  0  0  0  0  0  0  0  0  0  0
    9.7096    0.3846    0.0000 C   0  0  0  0  0  0  0  0  0  0  0  0
    8.8435   -0.1154    0.0000 C   0  0  0  0  0  0  0  0  0  0  0  0
    7.9775    1.3846    0.0000 C   0  0  0  0  0  0  0  0  0  0  0  0
   14.9057   -1.6154    0.0000 C   0  0  0  0  0  0  0  0  0  0  0  0
    7.1115    1.8846    0.0000 C   0  0  0  0  0  0  0  0  0  0  0  0
    6.2455    1.3846    0.0000 C   0  0  0  0  0  0  0  0  0  0  0  0
    7.1115   -0.1154    0.0000 C   0  0  0  0  0  0  0  0  0  0  0  0
    6.2455    0.3846    0.0000 C   0  0  0  0  0  0  0  0  0  0  0  0
   15.7717   -1.1154    0.0000 C   0  0  0  0  0  0  0  0  0  0  0  0
   14.9057   -2.6154    0.0000 C   0  0  0  0  0  0  0  0  0  0  0  0
    5.3515    1.9193    0.0000 C   0  0  0  0  0  0  0  0  0  0  0  0
    5.3515   -0.1500    0.0000 C   0  0  0  0  0  0  0  0  0  0  0  0
    4.4455    1.4054    0.0000 C   0  0  0  0  0  0  0  0  0  0  0  0
    4.4455    0.3638    0.0000 C   0  0  0  0  0  0  0  0  0  0  0  0
   16.6378   -1.6154    0.0000 C   0  0  0  0  0  0  0  0  0  0  0  0
   15.7717   -3.1154    0.0000 C   0  0  0  0  0  0  0  0  0  0  0  0
   16.6378   -2.6154    0.0000 C   0  0  0  0  0  0  0  0  0  0  0  0
    3.5814    1.9088    0.0000 C   0  0  0  0  0  0  0  0  0  0  0  0
    3.4807    2.9037    0.0000 C   0  0  0  0  0  0  0  0  0  0  0  0
   16.6378    0.3846    0.0000 C   0  0  0  0  0  0  0  0  0  0  0  0
    2.5033    3.1154    0.0000 C   0  0  0  0  0  0  0  0  0  0  0  0
    2.0000    2.2513    0.0000 C   0  0  0  0  0  0  0  0  0  0  0  0
   11.6971   -1.0077    0.0000 H   0  0  0  0  0  0  0  0  0  0  0  0
   12.0956   -1.6980    0.0000 H   0  0  0  0  0  0  0  0  0  0  0  0
   13.5722    0.8596    0.0000 H   0  0  0  0  0  0  0  0  0  0  0  0
   12.7751    0.8596    0.0000 H   0  0  0  0  0  0  0  0  0  0  0  0
   11.8401    0.8596    0.0000 H   0  0  0  0  0  0  0  0  0  0  0  0
   11.0431    0.8596    0.0000 H   0  0  0  0  0  0  0  0  0  0  0  0
   12.7751   -2.0903    0.0000 H   0  0  0  0  0  0  0  0  0  0  0  0
   13.5722   -2.0903    0.0000 H   0  0  0  0  0  0  0  0  0  0  0  0
   14.6503   -0.2230    0.0000 H   0  0  0  0  0  0  0  0  0  0  0  0
   14.2517    0.4672    0.0000 H   0  0  0  0  0  0  0  0  0  0  0  0
   10.1771   -0.5903    0.0000 H   0  0  0  0  0  0  0  0  0  0  0  0
   10.9741   -0.5903    0.0000 H   0  0  0  0  0  0  0  0  0  0  0  0
   10.1081    0.8596    0.0000 H   0  0  0  0  0  0  0  0  0  0  0  0
    9.3110    0.8596    0.0000 H   0  0  0  0  0  0  0  0  0  0  0  0
    8.4450   -0.5903    0.0000 H   0  0  0  0  0  0  0  0  0  0  0  0
    9.2421   -0.5903    0.0000 H   0  0  0  0  0  0  0  0  0  0  0  0
    8.5881    1.2770    0.0000 H   0  0  0  0  0  0  0  0  0  0  0  0
    8.1896    1.9672    0.0000 H   0  0  0  0  0  0  0  0  0  0  0  0
    7.5100    2.3596    0.0000 H   0  0  0  0  0  0  0  0  0  0  0  0
    6.7130    2.3596    0.0000 H   0  0  0  0  0  0  0  0  0  0  0  0
   14.3688   -2.9254    0.0000 H   0  0  0  0  0  0  0  0  0  0  0  0
    5.3587    2.5392    0.0000 H   0  0  0  0  0  0  0  0  0  0  0  0
    5.3587   -0.7700    0.0000 H   0  0  0  0  0  0  0  0  0  0  0  0
    3.9097    0.0517    0.0000 H   0  0  0  0  0  0  0  0  0  0  0  0
   17.1747   -1.3054    0.0000 H   0  0  0  0  0  0  0  0  0  0  0  0
   15.7717   -3.7354    0.0000 H   0  0  0  0  0  0  0  0  0  0  0  0
   17.1747   -2.9254    0.0000 H   0  0  0  0  0  0  0  0  0  0  0  0
    3.9430    3.3168    0.0000 H   0  0  0  0  0  0  0  0  0  0  0  0
   16.9478   -0.1523    0.0000 H   0  0  0  0  0  0  0  0  0  0  0  0
   17.1747    0.6946    0.0000 H   0  0  0  0  0  0  0  0  0  0  0  0
   16.3278    0.9216    0.0000 H   0  0  0  0  0  0  0  0  0  0  0  0
    2.2533    3.6827    0.0000 H   0  0  0  0  0  0  0  0  0  0  0  0
    1.3832    2.1888    0.0000 H   0  0  0  0  0  0  0  0  0  0  0  0
  1 30  1  0  0  0  0
  1 34  1  0  0  0  0
  2 19  2  0  0  0  0
  3 21  1  0  0  0  0
  3 32  1  0  0  0  0
  4  7  1  0  0  0  0
  4  8  1  0  0  0  0
  4  9  1  0  0  0  0
  5 10  1  0  0  0  0
  5 11  1  0  0  0  0
  5 16  1  0  0  0  0
  6 14  1  0  0  0  0
  6 15  1  0  0  0  0
  6 19  1  0  0  0  0
  7 10  1  0  0  0  0
  7 35  1  0  0  0  0
  7 36  1  0  0  0  0
  8 11  1  0  0  0  0
  8 37  1  0  0  0  0
  8 38  1  0  0  0  0
  9 12  1  0  0  0  0
  9 39  1  0  0  0  0
  9 40  1  0  0  0  0
 10 41  1  0  0  0  0
 10 42  1  0  0  0  0
 11 43  1  0  0  0  0
 11 44  1  0  0  0  0
 12 13  1  0  0  0  0
 12 45  1  0  0  0  0
 12 46  1  0  0  0  0
 13 14  1  0  0  0  0
 13 47  1  0  0  0  0
 13 48  1  0  0  0  0
 14 49  1  0  0  0  0
 14 50  1  0  0  0  0
 15 17  1  0  0  0  0
 15 51  1  0  0  0  0
 15 52  1  0  0  0  0
 16 21  1  0  0  0  0
 16 22  2  0  0  0  0
 17 18  1  0  0  0  0
 17 53  1  0  0  0  0
 17 54  1  0  0  0  0
 18 20  2  0  0  0  0
 18 23  1  0  0  0  0
 19 20  1  0  0  0  0
 20 24  1  0  0  0  0
 21 27  2  0  0  0  0
 22 28  1  0  0  0  0
 22 55  1  0  0  0  0
 23 25  2  0  0  0  0
 23 56  1  0  0  0  0
 24 26  2  0  0  0  0
 24 57  1  0  0  0  0
 25 26  1  0  0  0  0
 25 30  1  0  0  0  0
 26 58  1  0  0  0  0
 27 29  1  0  0  0  0
 27 59  1  0  0  0  0
 28 29  2  0  0  0  0
 28 60  1  0  0  0  0
 29 61  1  0  0  0  0
 30 31  2  0  0  0  0
 31 33  1  0  0  0  0
 31 62  1  0  0  0  0
 32 63  1  0  0  0  0
 32 64  1  0  0  0  0
 32 65  1  0  0  0  0
 33 34  2  0  0  0  0
 33 66  1  0  0  0  0
 34 67  1  0  0  0  0
M  END
> <PUBCHEM_COMPOUND_CID>
46893146

> <PUBCHEM_COMPOUND_CANONICALIZED>
1

> <PUBCHEM_CACTVS_COMPLEXITY>
656

> <PUBCHEM_CACTVS_HBOND_ACCEPTOR>
5

> <PUBCHEM_CACTVS_HBOND_DONOR>
0

> <PUBCHEM_CACTVS_ROTATABLE_BOND>
8

> <PUBCHEM_CACTVS_SUBSKEYS>
AAADcfB7MABAAAAAAAAAAAAAAAAAASAAAAA8eIEAAAAAAACx0AAAHgQAAAAADAzF2Aayx4MABAiMAiVSUACDCIAlKhBIiBkPbMgOZjLktZuVMShkxhH46YeYycCOwAACAAAQEACAAAQAACAgAAAAAAAAAA==

> <PUBCHEM_IUPAC_OPENEYE_NAME>
2-[4-[4-(2-methoxyphenyl)piperazin-1-yl]butyl]-6-(2-thienyl)-3,4-dihydroisoquinolin-1-one

> <PUBCHEM_IUPAC_CAS_NAME>
2-[4-[4-(2-methoxyphenyl)-1-piperazinyl]butyl]-6-thiophen-2-yl-3,4-dihydroisoquinolin-1-one

> <PUBCHEM_IUPAC_NAME_MARKUP>
2-[4-[4-(2-methoxyphenyl)piperazin-1-yl]butyl]-6-thiophen-2-yl-3,4-dihydroisoquinolin-1-one

> <PUBCHEM_IUPAC_NAME>
2-[4-[4-(2-methoxyphenyl)piperazin-1-yl]butyl]-6-thiophen-2-yl-3,4-dihydroisoquinolin-1-one

> <PUBCHEM_IUPAC_SYSTEMATIC_NAME>
2-[4-[4-(2-methoxyphenyl)piperazin-1-yl]butyl]-6-thiophen-2-yl-3,4-dihydroisoquinolin-1-one

> <PUBCHEM_IUPAC_TRADITIONAL_NAME>
2-[4-[4-(2-methoxyphenyl)piperazino]butyl]-6-(2-thienyl)-3,4-dihydroisocarbostyril

> <PUBCHEM_IUPAC_INCHI>
InChI=1S/C28H33N3O2S/c1-33-26-8-3-2-7-25(26)30-18-16-29(17-19-30)13-4-5-14-31-15-12-22-21-23(27-9-6-20-34-27)10-11-24(22)28(31)32/h2-3,6-11,20-21H,4-5,12-19H2,1H3

> <PUBCHEM_IUPAC_INCHIKEY>
AMJCGARHMZJBKQ-UHFFFAOYSA-N

> <PUBCHEM_XLOGP3_AA>
5.1

> <PUBCHEM_EXACT_MASS>
475.22934848

> <PUBCHEM_MOLECULAR_FORMULA>
C28H33N3O2S

> <PUBCHEM_MOLECULAR_WEIGHT>
475.6

> <PUBCHEM_OPENEYE_CAN_SMILES>
COC1=CC=CC=C1N2CCN(CC2)CCCCN3CCC4=C(C3=O)C=CC(=C4)C5=CC=CS5

> <PUBCHEM_OPENEYE_ISO_SMILES>
COC1=CC=CC=C1N2CCN(CC2)CCCCN3CCC4=C(C3=O)C=CC(=C4)C5=CC=CS5

> <PUBCHEM_CACTVS_TPSA>
64.3

> <PUBCHEM_MONOISOTOPIC_WEIGHT>
475.22934848

> <PUBCHEM_TOTAL_CHARGE>
0

> <PUBCHEM_HEAVY_ATOM_COUNT>
34

> <PUBCHEM_ATOM_DEF_STEREO_COUNT>
0

> <PUBCHEM_ATOM_UDEF_STEREO_COUNT>
0

> <PUBCHEM_BOND_DEF_STEREO_COUNT>
0

> <PUBCHEM_BOND_UDEF_STEREO_COUNT>
0

> <PUBCHEM_ISOTOPIC_ATOM_COUNT>
0

> <PUBCHEM_COMPONENT_COUNT>
1

> <PUBCHEM_CACTVS_TAUTO_COUNT>
-1

> <PUBCHEM_COORDINATE_TYPE>
1
5
255

> <PUBCHEM_BONDANNOTATIONS>
1  30  8
1  34  8
16  21  8
16  22  8
18  20  8
18  23  8
20  24  8
21  27  8
22  28  8
23  25  8
24  26  8
25  26  8
27  29  8
28  29  8
30  31  8
31  33  8
33  34  8

$$$$
