44330640
  -OEChem-09292322502D

 29 31  0     0  0  0  0  0  0999 V2000
    2.1245   -0.0148    0.0000 S   0  0  0  0  0  0  0  0  0  0  0  0
    4.6282   -0.5958    0.0000 N   0  0  0  0  0  0  0  0  0  0  0  0
    6.2142   -0.8822    0.0000 N   0  0  0  0  0  0  0  0  0  0  0  0
    4.1282    1.5949    0.0000 C   0  0  0  0  0  0  0  0  0  0  0  0
    3.5047    0.8131    0.0000 C   0  0  0  0  0  0  0  0  0  0  0  0
    5.1282    1.5949    0.0000 C   0  0  0  0  0  0  0  0  0  0  0  0
    3.7272   -0.1619    0.0000 C   0  0  0  0  0  0  0  0  0  0  0  0
    5.7517    0.8131    0.0000 C   0  0  0  0  0  0  0  0  0  0  0  0
    5.5291   -0.1619    0.0000 C   0  0  0  0  0  0  0  0  0  0  0  0
    2.5144    0.8996    0.0000 C   0  0  0  0  0  0  0  0  0  0  0  0
    2.8725   -0.6695    0.0000 C   0  0  0  0  0  0  0  0  0  0  0  0
    4.7642   -1.5805    0.0000 C   0  0  0  0  0  0  0  0  0  0  0  0
    2.0000    1.7572    0.0000 C   0  0  0  0  0  0  0  0  0  0  0  0
    2.7812   -1.6653    0.0000 C   0  0  0  0  0  0  0  0  0  0  0  0
    5.7424   -1.7572    0.0000 C   0  0  0  0  0  0  0  0  0  0  0  0
    4.2661    2.1993    0.0000 H   0  0  0  0  0  0  0  0  0  0  0  0
    3.5696    1.8639    0.0000 H   0  0  0  0  0  0  0  0  0  0  0  0
    5.6868    1.8639    0.0000 H   0  0  0  0  0  0  0  0  0  0  0  0
    4.9902    2.1993    0.0000 H   0  0  0  0  0  0  0  0  0  0  0  0
    6.3103    0.5440    0.0000 H   0  0  0  0  0  0  0  0  0  0  0  0
    6.1382    1.2978    0.0000 H   0  0  0  0  0  0  0  0  0  0  0  0
    4.3168   -2.0097    0.0000 H   0  0  0  0  0  0  0  0  0  0  0  0
    2.5317    2.0761    0.0000 H   0  0  0  0  0  0  0  0  0  0  0  0
    1.6811    2.2888    0.0000 H   0  0  0  0  0  0  0  0  0  0  0  0
    1.4683    1.4382    0.0000 H   0  0  0  0  0  0  0  0  0  0  0  0
    2.1638   -1.6087    0.0000 H   0  0  0  0  0  0  0  0  0  0  0  0
    2.7245   -2.2828    0.0000 H   0  0  0  0  0  0  0  0  0  0  0  0
    3.3986   -1.7220    0.0000 H   0  0  0  0  0  0  0  0  0  0  0  0
    6.0114   -2.3158    0.0000 H   0  0  0  0  0  0  0  0  0  0  0  0
  1 10  1  0  0  0  0
  1 11  1  0  0  0  0
  2  7  1  0  0  0  0
  2  9  1  0  0  0  0
  2 12  1  0  0  0  0
  3  9  2  0  0  0  0
  3 15  1  0  0  0  0
  4  5  1  0  0  0  0
  4  6  1  0  0  0  0
  4 16  1  0  0  0  0
  4 17  1  0  0  0  0
  5  7  1  0  0  0  0
  5 10  2  0  0  0  0
  6  8  1  0  0  0  0
  6 18  1  0  0  0  0
  6 19  1  0  0  0  0
  7 11  2  0  0  0  0
  8  9  1  0  0  0  0
  8 20  1  0  0  0  0
  8 21  1  0  0  0  0
 10 13  1  0  0  0  0
 11 14  1  0  0  0  0
 12 15  2  0  0  0  0
 12 22  1  0  0  0  0
 13 23  1  0  0  0  0
 13 24  1  0  0  0  0
 13 25  1  0  0  0  0
 14 26  1  0  0  0  0
 14 27  1  0  0  0  0
 14 28  1  0  0  0  0
 15 29  1  0  0  0  0
M  END
> <PUBCHEM_COMPOUND_CID>
44330640

> <PUBCHEM_COMPOUND_CANONICALIZED>
1

> <PUBCHEM_CACTVS_COMPLEXITY>
246

> <PUBCHEM_CACTVS_HBOND_ACCEPTOR>
2

> <PUBCHEM_CACTVS_HBOND_DONOR>
0

> <PUBCHEM_CACTVS_ROTATABLE_BOND>
0

> <PUBCHEM_CACTVS_SUBSKEYS>
AAADccBzAABAAAAAAAAAAAAAAAAAAWJAAAAAAAAABYAAAACx4AAAHAQAAAAADAjBWwQv0ZcMEAikAhZnZACDgK0xGrAJyBQ4dIiIaGLgmJCUAAxogALoyCcQgIAOAAAAAAAAAAAAAAAAAAAAAAAAAAAAAA==

> <PUBCHEM_IUPAC_OPENEYE_NAME>
3,5-dimethyl-4-thia-1,11-diazatricyclo[8.3.0.02,6]trideca-2,5,10,12-tetraene

> <PUBCHEM_IUPAC_CAS_NAME>
3,5-dimethyl-4-thia-1,11-diazatricyclo[8.3.0.02,6]trideca-2,5,10,12-tetraene

> <PUBCHEM_IUPAC_NAME_MARKUP>
3,5-dimethyl-4-thia-1,11-diazatricyclo[8.3.0.0<SUP>2,6</SUP>]trideca-2,5,10,12-tetraene

> <PUBCHEM_IUPAC_NAME>
3,5-dimethyl-4-thia-1,11-diazatricyclo[8.3.0.02,6]trideca-2,5,10,12-tetraene

> <PUBCHEM_IUPAC_SYSTEMATIC_NAME>
3,5-dimethyl-4-thia-1,11-diazatricyclo[8.3.0.02,6]trideca-2,5,10,12-tetraene

> <PUBCHEM_IUPAC_TRADITIONAL_NAME>
3,5-dimethyl-4-thia-1,11-diazatricyclo[8.3.0.02,6]trideca-2,5,10,12-tetraene

> <PUBCHEM_IUPAC_INCHI>
InChI=1S/C12H14N2S/c1-8-10-4-3-5-11-13-6-7-14(11)12(10)9(2)15-8/h6-7H,3-5H2,1-2H3

> <PUBCHEM_IUPAC_INCHIKEY>
VBPCEMPPAWIIEA-UHFFFAOYSA-N

> <PUBCHEM_XLOGP3_AA>
2.8

> <PUBCHEM_EXACT_MASS>
218.08776963

> <PUBCHEM_MOLECULAR_FORMULA>
C12H14N2S

> <PUBCHEM_MOLECULAR_WEIGHT>
218.32

> <PUBCHEM_OPENEYE_CAN_SMILES>
CC1=C2CCCC3=NC=CN3C2=C(S1)C

> <PUBCHEM_OPENEYE_ISO_SMILES>
CC1=C2CCCC3=NC=CN3C2=C(S1)C

> <PUBCHEM_CACTVS_TPSA>
46.1

> <PUBCHEM_MONOISOTOPIC_WEIGHT>
218.08776963

> <PUBCHEM_TOTAL_CHARGE>
0

> <PUBCHEM_HEAVY_ATOM_COUNT>
15

> <PUBCHEM_ATOM_DEF_STEREO_COUNT>
0

> <PUBCHEM_ATOM_UDEF_STEREO_COUNT>
0

> <PUBCHEM_BOND_DEF_STEREO_COUNT>
0

> <PUBCHEM_BOND_UDEF_STEREO_COUNT>
0

> <PUBCHEM_ISOTOPIC_ATOM_COUNT>
0

> <PUBCHEM_COMPONENT_COUNT>
1

> <PUBCHEM_CACTVS_TAUTO_COUNT>
-1

> <PUBCHEM_COORDINATE_TYPE>
1
5
255

> <PUBCHEM_BONDANNOTATIONS>
1  10  8
1  11  8
12  15  8
2  12  8
2  9  8
3  15  8
3  9  8
5  10  8
5  7  8
7  11  8

$$$$
