11188446
  -OEChem-09292322472D

 49 52  0     0  0  0  0  0  0999 V2000
    2.0000    0.5530    0.0000 F   0  0  0  0  0  0  0  0  0  0  0  0
    2.3660   -0.8131    0.0000 F   0  0  0  0  0  0  0  0  0  0  0  0
    3.3660    0.9190    0.0000 F   0  0  0  0  0  0  0  0  0  0  0  0
   10.6603    1.5530    0.0000 O   0  0  0  0  0  0  0  0  0  0  0  0
    8.0622    1.0530    0.0000 N   0  0  0  0  0  0  0  0  0  0  0  0
    6.3301    0.0530    0.0000 N   0  0  0  0  0  0  0  0  0  0  0  0
   14.2045    1.3577    0.0000 N   0  0  0  0  0  0  0  0  0  0  0  0
   14.2045   -0.2518    0.0000 N   0  0  0  0  0  0  0  0  0  0  0  0
    7.1962    1.5530    0.0000 C   0  0  0  0  0  0  0  0  0  0  0  0
    8.0622    0.0530    0.0000 C   0  0  0  0  0  0  0  0  0  0  0  0
    6.3301    1.0530    0.0000 C   0  0  0  0  0  0  0  0  0  0  0  0
    7.1962   -0.4470    0.0000 C   0  0  0  0  0  0  0  0  0  0  0  0
    8.9282    1.5530    0.0000 C   0  0  0  0  0  0  0  0  0  0  0  0
    5.4641   -0.4470    0.0000 C   0  0  0  0  0  0  0  0  0  0  0  0
    9.7942    1.0530    0.0000 C   0  0  0  0  0  0  0  0  0  0  0  0
    4.5981    0.0530    0.0000 C   0  0  0  0  0  0  0  0  0  0  0  0
    5.4641   -1.4470    0.0000 C   0  0  0  0  0  0  0  0  0  0  0  0
    3.7320   -0.4470    0.0000 C   0  0  0  0  0  0  0  0  0  0  0  0
    4.5981   -1.9470    0.0000 C   0  0  0  0  0  0  0  0  0  0  0  0
    3.7320   -1.4470    0.0000 C   0  0  0  0  0  0  0  0  0  0  0  0
   11.5263    1.0530    0.0000 C   0  0  0  0  0  0  0  0  0  0  0  0
    2.8660    0.0530    0.0000 C   0  0  0  0  0  0  0  0  0  0  0  0
   12.3923    1.5530    0.0000 C   0  0  0  0  0  0  0  0  0  0  0  0
   13.2583    1.0530    0.0000 C   0  0  0  0  0  0  0  0  0  0  0  0
   11.5263    0.0530    0.0000 C   0  0  0  0  0  0  0  0  0  0  0  0
   13.2583    0.0530    0.0000 C   0  0  0  0  0  0  0  0  0  0  0  0
   12.3923   -0.4470    0.0000 C   0  0  0  0  0  0  0  0  0  0  0  0
   14.7882    0.5530    0.0000 C   0  0  0  0  0  0  0  0  0  0  0  0
    7.5947    2.0279    0.0000 H   0  0  0  0  0  0  0  0  0  0  0  0
    6.7976    2.0279    0.0000 H   0  0  0  0  0  0  0  0  0  0  0  0
    8.2742   -0.5296    0.0000 H   0  0  0  0  0  0  0  0  0  0  0  0
    8.6728    0.1606    0.0000 H   0  0  0  0  0  0  0  0  0  0  0  0
    6.1181    1.6356    0.0000 H   0  0  0  0  0  0  0  0  0  0  0  0
    5.7196    0.9453    0.0000 H   0  0  0  0  0  0  0  0  0  0  0  0
    6.7976   -0.9220    0.0000 H   0  0  0  0  0  0  0  0  0  0  0  0
    7.5947   -0.9220    0.0000 H   0  0  0  0  0  0  0  0  0  0  0  0
    9.3267    2.0279    0.0000 H   0  0  0  0  0  0  0  0  0  0  0  0
    8.5297    2.0279    0.0000 H   0  0  0  0  0  0  0  0  0  0  0  0
    9.3957    0.5780    0.0000 H   0  0  0  0  0  0  0  0  0  0  0  0
   10.1928    0.5780    0.0000 H   0  0  0  0  0  0  0  0  0  0  0  0
    4.5981    0.6730    0.0000 H   0  0  0  0  0  0  0  0  0  0  0  0
    6.0010   -1.7570    0.0000 H   0  0  0  0  0  0  0  0  0  0  0  0
    4.5981   -2.5670    0.0000 H   0  0  0  0  0  0  0  0  0  0  0  0
    3.1951   -1.7570    0.0000 H   0  0  0  0  0  0  0  0  0  0  0  0
   12.3923    2.1730    0.0000 H   0  0  0  0  0  0  0  0  0  0  0  0
   10.9893   -0.2570    0.0000 H   0  0  0  0  0  0  0  0  0  0  0  0
   12.3923   -1.0670    0.0000 H   0  0  0  0  0  0  0  0  0  0  0  0
   14.3972    1.9470    0.0000 H   0  0  0  0  0  0  0  0  0  0  0  0
   15.4082    0.5530    0.0000 H   0  0  0  0  0  0  0  0  0  0  0  0
  1 22  1  0  0  0  0
  2 22  1  0  0  0  0
  3 22  1  0  0  0  0
  4 15  1  0  0  0  0
  4 21  1  0  0  0  0
  5  9  1  0  0  0  0
  5 10  1  0  0  0  0
  5 13  1  0  0  0  0
  6 11  1  0  0  0  0
  6 12  1  0  0  0  0
  6 14  1  0  0  0  0
  7 24  1  0  0  0  0
  7 28  1  0  0  0  0
  7 48  1  0  0  0  0
  8 26  1  0  0  0  0
  8 28  2  0  0  0  0
  9 11  1  0  0  0  0
  9 29  1  0  0  0  0
  9 30  1  0  0  0  0
 10 12  1  0  0  0  0
 10 31  1  0  0  0  0
 10 32  1  0  0  0  0
 11 33  1  0  0  0  0
 11 34  1  0  0  0  0
 12 35  1  0  0  0  0
 12 36  1  0  0  0  0
 13 15  1  0  0  0  0
 13 37  1  0  0  0  0
 13 38  1  0  0  0  0
 14 16  1  0  0  0  0
 14 17  2  0  0  0  0
 15 39  1  0  0  0  0
 15 40  1  0  0  0  0
 16 18  2  0  0  0  0
 16 41  1  0  0  0  0
 17 19  1  0  0  0  0
 17 42  1  0  0  0  0
 18 20  1  0  0  0  0
 18 22  1  0  0  0  0
 19 20  2  0  0  0  0
 19 43  1  0  0  0  0
 20 44  1  0  0  0  0
 21 23  2  0  0  0  0
 21 25  1  0  0  0  0
 23 24  1  0  0  0  0
 23 45  1  0  0  0  0
 24 26  2  0  0  0  0
 25 27  2  0  0  0  0
 25 46  1  0  0  0  0
 26 27  1  0  0  0  0
 27 47  1  0  0  0  0
 28 49  1  0  0  0  0
M  END
> <PUBCHEM_COMPOUND_CID>
11188446

> <PUBCHEM_COMPOUND_CANONICALIZED>
1

> <PUBCHEM_CACTVS_COMPLEXITY>
498

> <PUBCHEM_CACTVS_HBOND_ACCEPTOR>
7

> <PUBCHEM_CACTVS_HBOND_DONOR>
1

> <PUBCHEM_CACTVS_ROTATABLE_BOND>
5

> <PUBCHEM_CACTVS_SUBSKEYS>
AAADceB7oYAAAAAAAAAAAAAAAAAAAWAAAAA8YIAAAAAAAFgB9AAAHwAQAAAADAzhnhY11rfJlACgAyRjZACCiC2xMqAJ2aA+fJiObqLEuZuXOCju0BvY6Cew0AMOAEAAQgAAACAAgACEAAAAQAAAAAAAAA==

> <PUBCHEM_IUPAC_OPENEYE_NAME>
6-[2-[4-[3-(trifluoromethyl)phenyl]piperazin-1-yl]ethoxy]-1H-benzimidazole

> <PUBCHEM_IUPAC_CAS_NAME>
6-[2-[4-[3-(trifluoromethyl)phenyl]-1-piperazinyl]ethoxy]-1H-benzimidazole

> <PUBCHEM_IUPAC_NAME_MARKUP>
6-[2-[4-[3-(trifluoromethyl)phenyl]piperazin-1-yl]ethoxy]-1<I>H</I>-benzimidazole

> <PUBCHEM_IUPAC_NAME>
6-[2-[4-[3-(trifluoromethyl)phenyl]piperazin-1-yl]ethoxy]-1H-benzimidazole

> <PUBCHEM_IUPAC_SYSTEMATIC_NAME>
6-[2-[4-[3-(trifluoromethyl)phenyl]piperazin-1-yl]ethoxy]-1H-benzimidazole

> <PUBCHEM_IUPAC_TRADITIONAL_NAME>
6-[2-[4-[3-(trifluoromethyl)phenyl]piperazino]ethoxy]-1H-benzimidazole

> <PUBCHEM_IUPAC_INCHI>
InChI=1S/C20H21F3N4O/c21-20(22,23)15-2-1-3-16(12-15)27-8-6-26(7-9-27)10-11-28-17-4-5-18-19(13-17)25-14-24-18/h1-5,12-14H,6-11H2,(H,24,25)

> <PUBCHEM_IUPAC_INCHIKEY>
OOANJQQMFGMQPF-UHFFFAOYSA-N

> <PUBCHEM_XLOGP3_AA>
4

> <PUBCHEM_EXACT_MASS>
390.16674579

> <PUBCHEM_MOLECULAR_FORMULA>
C20H21F3N4O

> <PUBCHEM_MOLECULAR_WEIGHT>
390.4

> <PUBCHEM_OPENEYE_CAN_SMILES>
C1CN(CCN1CCOC2=CC3=C(C=C2)N=CN3)C4=CC=CC(=C4)C(F)(F)F

> <PUBCHEM_OPENEYE_ISO_SMILES>
C1CN(CCN1CCOC2=CC3=C(C=C2)N=CN3)C4=CC=CC(=C4)C(F)(F)F

> <PUBCHEM_CACTVS_TPSA>
44.4

> <PUBCHEM_MONOISOTOPIC_WEIGHT>
390.16674579

> <PUBCHEM_TOTAL_CHARGE>
0

> <PUBCHEM_HEAVY_ATOM_COUNT>
28

> <PUBCHEM_ATOM_DEF_STEREO_COUNT>
0

> <PUBCHEM_ATOM_UDEF_STEREO_COUNT>
0

> <PUBCHEM_BOND_DEF_STEREO_COUNT>
0

> <PUBCHEM_BOND_UDEF_STEREO_COUNT>
0

> <PUBCHEM_ISOTOPIC_ATOM_COUNT>
0

> <PUBCHEM_COMPONENT_COUNT>
1

> <PUBCHEM_CACTVS_TAUTO_COUNT>
-1

> <PUBCHEM_COORDINATE_TYPE>
1
5
255

> <PUBCHEM_BONDANNOTATIONS>
14  16  8
14  17  8
16  18  8
17  19  8
18  20  8
19  20  8
21  23  8
21  25  8
23  24  8
24  26  8
25  27  8
26  27  8
7  24  8
7  28  8
8  26  8
8  28  8

$$$$
