76322159
  -OEChem-09292321592D

122129  0     1  0  0  0  0  0999 V2000
    6.3637   -1.2287    0.0000 O   0  0  0  0  0  0  0  0  0  0  0  0
   26.3835    1.2287    0.0000 O   0  0  0  0  0  0  0  0  0  0  0  0
    8.1455   -0.2183    0.0000 O   0  0  0  0  0  0  0  0  0  0  0  0
   24.6018    0.2183    0.0000 O   0  0  0  0  0  0  0  0  0  0  0  0
   12.4813    1.2650    0.0000 O   0  0  0  0  0  0  0  0  0  0  0  0
   20.2659   -1.2650    0.0000 O   0  0  0  0  0  0  0  0  0  0  0  0
    2.8911    1.8028    0.0000 N   0  0  3  0  0  0  0  0  0  0  0  0
   29.8561   -1.8028    0.0000 N   0  0  3  0  0  0  0  0  0  0  0  0
   11.6095   -0.2316    0.0000 N   0  0  0  0  0  0  0  0  0  0  0  0
   21.1377    0.2316    0.0000 N   0  0  0  0  0  0  0  0  0  0  0  0
    3.7493    1.3059    0.0000 C   0  0  1  0  0  0  0  0  0  0  0  0
   28.9979   -1.3059    0.0000 C   0  0  1  0  0  0  0  0  0  0  0  0
    3.7493    0.3059    0.0000 C   0  0  0  0  0  0  0  0  0  0  0  0
   28.9979   -0.3059    0.0000 C   0  0  0  0  0  0  0  0  0  0  0  0
    4.6153    1.8059    0.0000 C   0  0  0  0  0  0  0  0  0  0  0  0
   28.1319   -1.8059    0.0000 C   0  0  0  0  0  0  0  0  0  0  0  0
    2.8393   -0.2010    0.0000 C   0  0  0  0  0  0  0  0  0  0  0  0
   29.9079    0.2010    0.0000 C   0  0  0  0  0  0  0  0  0  0  0  0
    2.0256    1.3186    0.0000 C   0  0  0  0  0  0  0  0  0  0  0  0
   30.7216   -1.3186    0.0000 C   0  0  0  0  0  0  0  0  0  0  0  0
    2.0000    0.3272    0.0000 C   0  0  0  0  0  0  0  0  0  0  0  0
   30.7472   -0.3272    0.0000 C   0  0  0  0  0  0  0  0  0  0  0  0
    4.6153   -0.1941    0.0000 C   0  0  0  0  0  0  0  0  0  0  0  0
   28.1319    0.1941    0.0000 C   0  0  0  0  0  0  0  0  0  0  0  0
    5.4814    1.3059    0.0000 C   0  0  0  0  0  0  0  0  0  0  0  0
   27.2659   -1.3059    0.0000 C   0  0  0  0  0  0  0  0  0  0  0  0
    5.4814    0.3059    0.0000 C   0  0  0  0  0  0  0  0  0  0  0  0
   27.2659   -0.3059    0.0000 C   0  0  0  0  0  0  0  0  0  0  0  0
    2.8985    2.8028    0.0000 C   0  0  0  0  0  0  0  0  0  0  0  0
   29.8487   -2.8028    0.0000 C   0  0  0  0  0  0  0  0  0  0  0  0
    2.8313   -1.2426    0.0000 C   0  0  0  0  0  0  0  0  0  0  0  0
   29.9159    1.2426    0.0000 C   0  0  0  0  0  0  0  0  0  0  0  0
    4.6314   -1.2356    0.0000 C   0  0  0  0  0  0  0  0  0  0  0  0
   28.1158    1.2356    0.0000 C   0  0  0  0  0  0  0  0  0  0  0  0
    6.3753   -0.2288    0.0000 C   0  0  0  0  0  0  0  0  0  0  0  0
   26.3719    0.2288    0.0000 C   0  0  0  0  0  0  0  0  0  0  0  0
    6.3753    1.8405    0.0000 C   0  0  0  0  0  0  0  0  0  0  0  0
   26.3719   -1.8405    0.0000 C   0  0  0  0  0  0  0  0  0  0  0  0
    3.7334   -1.7634    0.0000 C   0  0  0  0  0  0  0  0  0  0  0  0
   29.0139    1.7634    0.0000 C   0  0  0  0  0  0  0  0  0  0  0  0
    7.2814    0.2850    0.0000 C   0  0  0  0  0  0  0  0  0  0  0  0
   25.4658   -0.2850    0.0000 C   0  0  0  0  0  0  0  0  0  0  0  0
    7.2814    1.3267    0.0000 C   0  0  0  0  0  0  0  0  0  0  0  0
   25.4658   -1.3267    0.0000 C   0  0  0  0  0  0  0  0  0  0  0  0
    9.0134    0.2784    0.0000 C   0  0  0  0  0  0  0  0  0  0  0  0
   23.7338   -0.2784    0.0000 C   0  0  0  0  0  0  0  0  0  0  0  0
    9.8775   -0.2250    0.0000 C   0  0  0  0  0  0  0  0  0  0  0  0
   22.8697    0.2250    0.0000 C   0  0  0  0  0  0  0  0  0  0  0  0
   10.7455    0.2717    0.0000 C   0  0  0  0  0  0  0  0  0  0  0  0
   22.0018   -0.2717    0.0000 C   0  0  0  0  0  0  0  0  0  0  0  0
   15.9416    0.2517    0.0000 C   0  0  0  0  0  0  0  0  0  0  0  0
   16.8057   -0.2517    0.0000 C   0  0  0  0  0  0  0  0  0  0  0  0
   15.0736   -0.2450    0.0000 C   0  0  0  0  0  0  0  0  0  0  0  0
   17.6736    0.2450    0.0000 C   0  0  0  0  0  0  0  0  0  0  0  0
   14.2095    0.2583    0.0000 C   0  0  0  0  0  0  0  0  0  0  0  0
   18.5377   -0.2583    0.0000 C   0  0  0  0  0  0  0  0  0  0  0  0
   13.3416   -0.2383    0.0000 C   0  0  0  0  0  0  0  0  0  0  0  0
   19.4056    0.2383    0.0000 C   0  0  0  0  0  0  0  0  0  0  0  0
   12.4775    0.2650    0.0000 C   0  0  0  0  0  0  0  0  0  0  0  0
   20.2697   -0.2650    0.0000 C   0  0  0  0  0  0  0  0  0  0  0  0
    3.7498    2.1559    0.0000 H   0  0  0  0  0  0  0  0  0  0  0  0
   28.9974   -2.1559    0.0000 H   0  0  0  0  0  0  0  0  0  0  0  0
    5.0139    2.2808    0.0000 H   0  0  0  0  0  0  0  0  0  0  0  0
    4.2168    2.2808    0.0000 H   0  0  0  0  0  0  0  0  0  0  0  0
   27.7334   -2.2808    0.0000 H   0  0  0  0  0  0  0  0  0  0  0  0
   28.5304   -2.2808    0.0000 H   0  0  0  0  0  0  0  0  0  0  0  0
    1.8239    1.9049    0.0000 H   0  0  0  0  0  0  0  0  0  0  0  0
    1.4128    1.2243    0.0000 H   0  0  0  0  0  0  0  0  0  0  0  0
   30.9233   -1.9049    0.0000 H   0  0  0  0  0  0  0  0  0  0  0  0
   31.3344   -1.2243    0.0000 H   0  0  0  0  0  0  0  0  0  0  0  0
    1.3929    0.4531    0.0000 H   0  0  0  0  0  0  0  0  0  0  0  0
    1.7682   -0.2478    0.0000 H   0  0  0  0  0  0  0  0  0  0  0  0
   31.3543   -0.4531    0.0000 H   0  0  0  0  0  0  0  0  0  0  0  0
   30.9790    0.2478    0.0000 H   0  0  0  0  0  0  0  0  0  0  0  0
    3.5185    2.7982    0.0000 H   0  0  0  0  0  0  0  0  0  0  0  0
    2.9031    3.4228    0.0000 H   0  0  0  0  0  0  0  0  0  0  0  0
    2.2785    2.8074    0.0000 H   0  0  0  0  0  0  0  0  0  0  0  0
   29.2287   -2.7982    0.0000 H   0  0  0  0  0  0  0  0  0  0  0  0
   29.8441   -3.4228    0.0000 H   0  0  0  0  0  0  0  0  0  0  0  0
   30.4687   -2.8074    0.0000 H   0  0  0  0  0  0  0  0  0  0  0  0
    2.2932   -1.5505    0.0000 H   0  0  0  0  0  0  0  0  0  0  0  0
   30.4541    1.5505    0.0000 H   0  0  0  0  0  0  0  0  0  0  0  0
    5.1719   -1.5394    0.0000 H   0  0  0  0  0  0  0  0  0  0  0  0
   27.5753    1.5394    0.0000 H   0  0  0  0  0  0  0  0  0  0  0  0
    6.3681    2.4605    0.0000 H   0  0  0  0  0  0  0  0  0  0  0  0
   26.3791   -2.4605    0.0000 H   0  0  0  0  0  0  0  0  0  0  0  0
    3.7358   -2.3834    0.0000 H   0  0  0  0  0  0  0  0  0  0  0  0
   29.0115    2.3834    0.0000 H   0  0  0  0  0  0  0  0  0  0  0  0
    7.8171    1.6388    0.0000 H   0  0  0  0  0  0  0  0  0  0  0  0
   24.9301   -1.6388    0.0000 H   0  0  0  0  0  0  0  0  0  0  0  0
    6.8971   -1.5449    0.0000 H   0  0  0  0  0  0  0  0  0  0  0  0
   25.8502    1.5449    0.0000 H   0  0  0  0  0  0  0  0  0  0  0  0
    9.4138    0.7518    0.0000 H   0  0  0  0  0  0  0  0  0  0  0  0
    8.6167    0.7549    0.0000 H   0  0  0  0  0  0  0  0  0  0  0  0
   23.3335   -0.7518    0.0000 H   0  0  0  0  0  0  0  0  0  0  0  0
   24.1305   -0.7549    0.0000 H   0  0  0  0  0  0  0  0  0  0  0  0
    9.4772   -0.6984    0.0000 H   0  0  0  0  0  0  0  0  0  0  0  0
   10.2742   -0.7014    0.0000 H   0  0  0  0  0  0  0  0  0  0  0  0
   23.2701    0.6984    0.0000 H   0  0  0  0  0  0  0  0  0  0  0  0
   22.4730    0.7014    0.0000 H   0  0  0  0  0  0  0  0  0  0  0  0
   11.1458    0.7451    0.0000 H   0  0  0  0  0  0  0  0  0  0  0  0
   10.3488    0.7482    0.0000 H   0  0  0  0  0  0  0  0  0  0  0  0
   21.6014   -0.7451    0.0000 H   0  0  0  0  0  0  0  0  0  0  0  0
   22.3985   -0.7482    0.0000 H   0  0  0  0  0  0  0  0  0  0  0  0
   16.3419    0.7251    0.0000 H   0  0  0  0  0  0  0  0  0  0  0  0
   15.5449    0.7281    0.0000 H   0  0  0  0  0  0  0  0  0  0  0  0
   16.4053   -0.7251    0.0000 H   0  0  0  0  0  0  0  0  0  0  0  0
   17.2024   -0.7281    0.0000 H   0  0  0  0  0  0  0  0  0  0  0  0
   14.6733   -0.7184    0.0000 H   0  0  0  0  0  0  0  0  0  0  0  0
   15.4703   -0.7215    0.0000 H   0  0  0  0  0  0  0  0  0  0  0  0
   18.0740    0.7184    0.0000 H   0  0  0  0  0  0  0  0  0  0  0  0
   17.2769    0.7215    0.0000 H   0  0  0  0  0  0  0  0  0  0  0  0
   14.6099    0.7318    0.0000 H   0  0  0  0  0  0  0  0  0  0  0  0
   13.8128    0.7348    0.0000 H   0  0  0  0  0  0  0  0  0  0  0  0
   18.1373   -0.7318    0.0000 H   0  0  0  0  0  0  0  0  0  0  0  0
   18.9344   -0.7348    0.0000 H   0  0  0  0  0  0  0  0  0  0  0  0
   11.6072   -0.8516    0.0000 H   0  0  0  0  0  0  0  0  0  0  0  0
   21.1401    0.8516    0.0000 H   0  0  0  0  0  0  0  0  0  0  0  0
   12.9412   -0.7117    0.0000 H   0  0  0  0  0  0  0  0  0  0  0  0
   13.7383   -0.7148    0.0000 H   0  0  0  0  0  0  0  0  0  0  0  0
   19.8060    0.7117    0.0000 H   0  0  0  0  0  0  0  0  0  0  0  0
   19.0089    0.7148    0.0000 H   0  0  0  0  0  0  0  0  0  0  0  0
  1 35  1  0  0  0  0
  1 91  1  0  0  0  0
  2 36  1  0  0  0  0
  2 92  1  0  0  0  0
  3 41  1  0  0  0  0
  3 45  1  0  0  0  0
  4 42  1  0  0  0  0
  4 46  1  0  0  0  0
  5 59  2  0  0  0  0
  6 60  2  0  0  0  0
  7 11  1  0  0  0  0
  7 19  1  0  0  0  0
  7 29  1  0  0  0  0
  8 12  1  0  0  0  0
  8 20  1  0  0  0  0
  8 30  1  0  0  0  0
  9 49  1  0  0  0  0
  9 59  1  0  0  0  0
  9117  1  0  0  0  0
 10 50  1  0  0  0  0
 10 60  1  0  0  0  0
 10118  1  0  0  0  0
 11 13  1  0  0  0  0
 11 15  1  0  0  0  0
 11 61  1  1  0  0  0
 12 14  1  0  0  0  0
 12 16  1  0  0  0  0
 12 62  1  1  0  0  0
 13 17  2  0  0  0  0
 13 23  1  0  0  0  0
 14 18  2  0  0  0  0
 14 24  1  0  0  0  0
 15 25  1  0  0  0  0
 15 63  1  0  0  0  0
 15 64  1  0  0  0  0
 16 26  1  0  0  0  0
 16 65  1  0  0  0  0
 16 66  1  0  0  0  0
 17 21  1  0  0  0  0
 17 31  1  0  0  0  0
 18 22  1  0  0  0  0
 18 32  1  0  0  0  0
 19 21  1  0  0  0  0
 19 67  1  0  0  0  0
 19 68  1  0  0  0  0
 20 22  1  0  0  0  0
 20 69  1  0  0  0  0
 20 70  1  0  0  0  0
 21 71  1  0  0  0  0
 21 72  1  0  0  0  0
 22 73  1  0  0  0  0
 22 74  1  0  0  0  0
 23 27  1  0  0  0  0
 23 33  2  0  0  0  0
 24 28  1  0  0  0  0
 24 34  2  0  0  0  0
 25 27  2  0  0  0  0
 25 37  1  0  0  0  0
 26 28  2  0  0  0  0
 26 38  1  0  0  0  0
 27 35  1  0  0  0  0
 28 36  1  0  0  0  0
 29 75  1  0  0  0  0
 29 76  1  0  0  0  0
 29 77  1  0  0  0  0
 30 78  1  0  0  0  0
 30 79  1  0  0  0  0
 30 80  1  0  0  0  0
 31 39  2  0  0  0  0
 31 81  1  0  0  0  0
 32 40  2  0  0  0  0
 32 82  1  0  0  0  0
 33 39  1  0  0  0  0
 33 83  1  0  0  0  0
 34 40  1  0  0  0  0
 34 84  1  0  0  0  0
 35 41  2  0  0  0  0
 36 42  2  0  0  0  0
 37 43  2  0  0  0  0
 37 85  1  0  0  0  0
 38 44  2  0  0  0  0
 38 86  1  0  0  0  0
 39 87  1  0  0  0  0
 40 88  1  0  0  0  0
 41 43  1  0  0  0  0
 42 44  1  0  0  0  0
 43 89  1  0  0  0  0
 44 90  1  0  0  0  0
 45 47  1  0  0  0  0
 45 93  1  0  0  0  0
 45 94  1  0  0  0  0
 46 48  1  0  0  0  0
 46 95  1  0  0  0  0
 46 96  1  0  0  0  0
 47 49  1  0  0  0  0
 47 97  1  0  0  0  0
 47 98  1  0  0  0  0
 48 50  1  0  0  0  0
 48 99  1  0  0  0  0
 48100  1  0  0  0  0
 49101  1  0  0  0  0
 49102  1  0  0  0  0
 50103  1  0  0  0  0
 50104  1  0  0  0  0
 51 52  1  0  0  0  0
 51 53  1  0  0  0  0
 51105  1  0  0  0  0
 51106  1  0  0  0  0
 52 54  1  0  0  0  0
 52107  1  0  0  0  0
 52108  1  0  0  0  0
 53 55  1  0  0  0  0
 53109  1  0  0  0  0
 53110  1  0  0  0  0
 54 56  1  0  0  0  0
 54111  1  0  0  0  0
 54112  1  0  0  0  0
 55 57  1  0  0  0  0
 55113  1  0  0  0  0
 55114  1  0  0  0  0
 56 58  1  0  0  0  0
 56115  1  0  0  0  0
 56116  1  0  0  0  0
 57 59  1  0  0  0  0
 57119  1  0  0  0  0
 57120  1  0  0  0  0
 58 60  1  0  0  0  0
 58121  1  0  0  0  0
 58122  1  0  0  0  0
M  END
> <PUBCHEM_COMPOUND_CID>
76322159

> <PUBCHEM_COMPOUND_CANONICALIZED>
1

> <PUBCHEM_CACTVS_COMPLEXITY>
1270

> <PUBCHEM_CACTVS_HBOND_ACCEPTOR>
8

> <PUBCHEM_CACTVS_HBOND_DONOR>
4

> <PUBCHEM_CACTVS_ROTATABLE_BOND>
19

> <PUBCHEM_CACTVS_SUBSKEYS>
AAADcfB/uAAAAAAAAAAAAAAAAAAAAAAAAAA8eMGDAAAAAADxVAAAHgAQCAAADCzhmAYyBoPABgCIAiFSEACCCAAgIAAIiIEOjIgNJjKGsRuGeCvm1hGLuAeY2POOoAADAAAYQADQAAaAADSAAAAAAAAAAA==

> <PUBCHEM_IUPAC_OPENEYE_NAME>
N,N'-bis[3-[[(6aR)-11-hydroxy-6-methyl-5,6,6a,7-tetrahydro-4H-dibenzo[de,g]quinolin-10-yl]oxy]propyl]decanediamide

> <PUBCHEM_IUPAC_CAS_NAME>
N,N'-bis[3-[[(6aR)-11-hydroxy-6-methyl-5,6,6a,7-tetrahydro-4H-dibenzo[de,g]quinolin-10-yl]oxy]propyl]decanediamide

> <PUBCHEM_IUPAC_NAME_MARKUP>
<I>N</I>,<I>N</I>&apos;-bis[3-[[(6<I>a</I><I>R</I>)-11-hydroxy-6-methyl-5,6,6<I>a</I>,7-tetrahydro-4<I>H</I>-dibenzo[de,g]quinolin-10-yl]oxy]propyl]decanediamide

> <PUBCHEM_IUPAC_NAME>
N,N'-bis[3-[[(6aR)-11-hydroxy-6-methyl-5,6,6a,7-tetrahydro-4H-dibenzo[de,g]quinolin-10-yl]oxy]propyl]decanediamide

> <PUBCHEM_IUPAC_SYSTEMATIC_NAME>
N,N'-bis[3-[[(6aR)-6-methyl-11-oxidanyl-5,6,6a,7-tetrahydro-4H-dibenzo[de,g]quinolin-10-yl]oxy]propyl]decanediamide

> <PUBCHEM_IUPAC_TRADITIONAL_NAME>
N,N'-bis[3-[[(6aR)-11-hydroxy-6-methyl-5,6,6a,7-tetrahydro-4H-dibenzo[de,g]quinolin-10-yl]oxy]propyl]sebacamide

> <PUBCHEM_IUPAC_INCHI>
InChI=1S/C50H62N4O6/c1-53-27-23-33-13-9-15-37-45(33)39(53)31-35-19-21-41(49(57)47(35)37)59-29-11-25-51-43(55)17-7-5-3-4-6-8-18-44(56)52-26-12-30-60-42-22-20-36-32-40-46-34(24-28-54(40)2)14-10-16-38(46)48(36)50(42)58/h9-10,13-16,19-22,39-40,57-58H,3-8,11-12,17-18,23-32H2,1-2H3,(H,51,55)(H,52,56)/t39-,40-/m1/s1

> <PUBCHEM_IUPAC_INCHIKEY>
UXUXUQARLNBXGL-XRSDMRJBSA-N

> <PUBCHEM_XLOGP3_AA>
8.1

> <PUBCHEM_EXACT_MASS>
814.46693571

> <PUBCHEM_MOLECULAR_FORMULA>
C50H62N4O6

> <PUBCHEM_MOLECULAR_WEIGHT>
815.0

> <PUBCHEM_OPENEYE_CAN_SMILES>
CN1CCC2=C3C1CC4=C(C3=CC=C2)C(=C(C=C4)OCCCNC(=O)CCCCCCCCC(=O)NCCCOC5=C(C6=C(CC7C8=C(CCN7C)C=CC=C86)C=C5)O)O

> <PUBCHEM_OPENEYE_ISO_SMILES>
CN1CCC2=C3[C@H]1CC4=C(C3=CC=C2)C(=C(C=C4)OCCCNC(=O)CCCCCCCCC(=O)NCCCOC5=C(C6=C(C[C@@H]7C8=C(CCN7C)C=CC=C86)C=C5)O)O

> <PUBCHEM_CACTVS_TPSA>
124

> <PUBCHEM_MONOISOTOPIC_WEIGHT>
814.46693571

> <PUBCHEM_TOTAL_CHARGE>
0

> <PUBCHEM_HEAVY_ATOM_COUNT>
60

> <PUBCHEM_ATOM_DEF_STEREO_COUNT>
2

> <PUBCHEM_ATOM_UDEF_STEREO_COUNT>
0

> <PUBCHEM_BOND_DEF_STEREO_COUNT>
0

> <PUBCHEM_BOND_UDEF_STEREO_COUNT>
0

> <PUBCHEM_ISOTOPIC_ATOM_COUNT>
0

> <PUBCHEM_COMPONENT_COUNT>
1

> <PUBCHEM_CACTVS_TAUTO_COUNT>
-1

> <PUBCHEM_COORDINATE_TYPE>
1
5
255

> <PUBCHEM_BONDANNOTATIONS>
11  61  5
12  62  5
13  17  8
13  23  8
14  18  8
14  24  8
17  31  8
18  32  8
23  33  8
24  34  8
25  27  8
25  37  8
26  28  8
26  38  8
27  35  8
28  36  8
31  39  8
32  40  8
33  39  8
34  40  8
35  41  8
36  42  8
37  43  8
38  44  8
41  43  8
42  44  8

$$$$
