71528204
  -OEChem-09292321592D

 69 72  0     1  0  0  0  0  0999 V2000
    2.8834    0.0322    0.0000 O   0  0  0  0  0  0  0  0  0  0  0  0
    2.0116    1.5288    0.0000 O   0  0  0  0  0  0  0  0  0  0  0  0
    6.4155    0.0319    0.0000 N   0  0  3  0  0  0  0  0  0  0  0  0
    7.4035   -4.1582    0.0000 N   0  0  0  0  0  0  0  0  0  0  0  0
    3.7436    1.5355    0.0000 N   0  0  0  0  0  0  0  0  0  0  0  0
    2.8718    3.0322    0.0000 N   0  0  0  0  0  0  0  0  0  0  0  0
    5.4641    4.5422    0.0000 N   0  0  0  0  0  0  0  0  0  0  0  0
    5.5334   -1.5096    0.0000 C   0  0  2  0  0  0  0  0  0  0  0  0
    6.3995   -1.0096    0.0000 C   0  0  1  0  0  0  0  0  0  0  0  0
    4.6234   -1.0028    0.0000 C   0  0  0  0  0  0  0  0  0  0  0  0
    4.6154    0.0389    0.0000 C   0  0  2  0  0  0  0  0  0  0  0  0
    7.2655   -1.5096    0.0000 C   0  0  0  0  0  0  0  0  0  0  0  0
    5.5334   -2.5096    0.0000 C   0  0  0  0  0  0  0  0  0  0  0  0
    5.5175    0.5597    0.0000 C   0  0  0  0  0  0  0  0  0  0  0  0
    6.3995   -3.0096    0.0000 C   0  0  0  0  0  0  0  0  0  0  0  0
    7.2655   -2.5096    0.0000 C   0  0  0  0  0  0  0  0  0  0  0  0
    6.4155   -4.0511    0.0000 C   0  0  0  0  0  0  0  0  0  0  0  0
    7.2873    0.5219    0.0000 C   0  0  0  0  0  0  0  0  0  0  0  0
    3.7475    0.5355    0.0000 C   0  0  0  0  0  0  0  0  0  0  0  0
    4.6234   -3.0164    0.0000 C   0  0  0  0  0  0  0  0  0  0  0  0
    7.8834   -3.2880    0.0000 C   0  0  0  0  0  0  0  0  0  0  0  0
    5.5175   -4.5788    0.0000 C   0  0  0  0  0  0  0  0  0  0  0  0
    4.6154   -4.0580    0.0000 C   0  0  0  0  0  0  0  0  0  0  0  0
    7.8648   -5.0455    0.0000 C   0  0  0  0  0  0  0  0  0  0  0  0
    4.6077    2.0388    0.0000 C   0  0  0  0  0  0  0  0  0  0  0  0
    2.8757    2.0322    0.0000 C   0  0  0  0  0  0  0  0  0  0  0  0
    4.6038    3.0388    0.0000 C   0  0  0  0  0  0  0  0  0  0  0  0
    5.4679    3.5422    0.0000 C   0  0  0  0  0  0  0  0  0  0  0  0
    2.0038    3.5288    0.0000 C   0  0  0  0  0  0  0  0  0  0  0  0
    6.3282    5.0455    0.0000 C   0  0  0  0  0  0  0  0  0  0  0  0
    4.5961    5.0388    0.0000 C   0  0  0  0  0  0  0  0  0  0  0  0
    2.0000    4.5288    0.0000 C   0  0  0  0  0  0  0  0  0  0  0  0
    4.8006   -1.9402    0.0000 H   0  0  0  0  0  0  0  0  0  0  0  0
    7.1388   -0.5903    0.0000 H   0  0  0  0  0  0  0  0  0  0  0  0
    4.0118   -0.9014    0.0000 H   0  0  0  0  0  0  0  0  0  0  0  0
    4.4189   -1.5880    0.0000 H   0  0  0  0  0  0  0  0  0  0  0  0
    4.0803   -0.2742    0.0000 H   0  0  0  0  0  0  0  0  0  0  0  0
    7.8761   -1.6172    0.0000 H   0  0  0  0  0  0  0  0  0  0  0  0
    7.4775   -0.9270    0.0000 H   0  0  0  0  0  0  0  0  0  0  0  0
    5.9184    1.0326    0.0000 H   0  0  0  0  0  0  0  0  0  0  0  0
    5.1202    1.0356    0.0000 H   0  0  0  0  0  0  0  0  0  0  0  0
    7.5910   -0.0186    0.0000 H   0  0  0  0  0  0  0  0  0  0  0  0
    7.8278    0.8256    0.0000 H   0  0  0  0  0  0  0  0  0  0  0  0
    6.9835    1.0623    0.0000 H   0  0  0  0  0  0  0  0  0  0  0  0
    4.0901   -2.7002    0.0000 H   0  0  0  0  0  0  0  0  0  0  0  0
    8.5012   -3.2362    0.0000 H   0  0  0  0  0  0  0  0  0  0  0  0
    5.5199   -5.1988    0.0000 H   0  0  0  0  0  0  0  0  0  0  0  0
    4.0773   -4.3660    0.0000 H   0  0  0  0  0  0  0  0  0  0  0  0
    7.3147   -5.3315    0.0000 H   0  0  0  0  0  0  0  0  0  0  0  0
    8.1508   -5.5956    0.0000 H   0  0  0  0  0  0  0  0  0  0  0  0
    8.4149   -4.7595    0.0000 H   0  0  0  0  0  0  0  0  0  0  0  0
    4.8220    1.4570    0.0000 H   0  0  0  0  0  0  0  0  0  0  0  0
    5.2178    2.1488    0.0000 H   0  0  0  0  0  0  0  0  0  0  0  0
    4.3895    3.6206    0.0000 H   0  0  0  0  0  0  0  0  0  0  0  0
    3.9937    2.9288    0.0000 H   0  0  0  0  0  0  0  0  0  0  0  0
    5.6822    2.9604    0.0000 H   0  0  0  0  0  0  0  0  0  0  0  0
    6.0781    3.6522    0.0000 H   0  0  0  0  0  0  0  0  0  0  0  0
    3.4075    3.3442    0.0000 H   0  0  0  0  0  0  0  0  0  0  0  0
    1.3929    3.6341    0.0000 H   0  0  0  0  0  0  0  0  0  0  0  0
    1.7940    2.9454    0.0000 H   0  0  0  0  0  0  0  0  0  0  0  0
    6.6402    4.5098    0.0000 H   0  0  0  0  0  0  0  0  0  0  0  0
    6.8639    5.3576    0.0000 H   0  0  0  0  0  0  0  0  0  0  0  0
    6.0161    5.5812    0.0000 H   0  0  0  0  0  0  0  0  0  0  0  0
    4.9041    5.5769    0.0000 H   0  0  0  0  0  0  0  0  0  0  0  0
    4.0580    5.3468    0.0000 H   0  0  0  0  0  0  0  0  0  0  0  0
    4.2882    4.5007    0.0000 H   0  0  0  0  0  0  0  0  0  0  0  0
    2.6200    4.5312    0.0000 H   0  0  0  0  0  0  0  0  0  0  0  0
    1.9976    5.1488    0.0000 H   0  0  0  0  0  0  0  0  0  0  0  0
    1.3800    4.5264    0.0000 H   0  0  0  0  0  0  0  0  0  0  0  0
  1 19  2  0  0  0  0
  2 26  2  0  0  0  0
  3  9  1  0  0  0  0
  3 14  1  0  0  0  0
  3 18  1  0  0  0  0
  4 17  1  0  0  0  0
  4 21  1  0  0  0  0
  4 24  1  0  0  0  0
  5 19  1  0  0  0  0
  5 25  1  0  0  0  0
  5 26  1  0  0  0  0
  6 26  1  0  0  0  0
  6 29  1  0  0  0  0
  6 58  1  0  0  0  0
  7 28  1  0  0  0  0
  7 30  1  0  0  0  0
  7 31  1  0  0  0  0
  8  9  1  0  0  0  0
  8 10  1  0  0  0  0
  8 13  1  0  0  0  0
  8 33  1  6  0  0  0
  9 12  1  0  0  0  0
  9 34  1  1  0  0  0
 10 11  1  0  0  0  0
 10 35  1  0  0  0  0
 10 36  1  0  0  0  0
 11 14  1  0  0  0  0
 11 19  1  1  0  0  0
 11 37  1  0  0  0  0
 12 16  1  0  0  0  0
 12 38  1  0  0  0  0
 12 39  1  0  0  0  0
 13 15  2  0  0  0  0
 13 20  1  0  0  0  0
 14 40  1  0  0  0  0
 14 41  1  0  0  0  0
 15 16  1  0  0  0  0
 15 17  1  0  0  0  0
 16 21  2  0  0  0  0
 17 22  2  0  0  0  0
 18 42  1  0  0  0  0
 18 43  1  0  0  0  0
 18 44  1  0  0  0  0
 20 23  2  0  0  0  0
 20 45  1  0  0  0  0
 21 46  1  0  0  0  0
 22 23  1  0  0  0  0
 22 47  1  0  0  0  0
 23 48  1  0  0  0  0
 24 49  1  0  0  0  0
 24 50  1  0  0  0  0
 24 51  1  0  0  0  0
 25 27  1  0  0  0  0
 25 52  1  0  0  0  0
 25 53  1  0  0  0  0
 27 28  1  0  0  0  0
 27 54  1  0  0  0  0
 27 55  1  0  0  0  0
 28 56  1  0  0  0  0
 28 57  1  0  0  0  0
 29 32  1  0  0  0  0
 29 59  1  0  0  0  0
 29 60  1  0  0  0  0
 30 61  1  0  0  0  0
 30 62  1  0  0  0  0
 30 63  1  0  0  0  0
 31 64  1  0  0  0  0
 31 65  1  0  0  0  0
 31 66  1  0  0  0  0
 32 67  1  0  0  0  0
 32 68  1  0  0  0  0
 32 69  1  0  0  0  0
M  END
> <PUBCHEM_COMPOUND_CID>
71528204

> <PUBCHEM_COMPOUND_CANONICALIZED>
1

> <PUBCHEM_CACTVS_COMPLEXITY>
685

> <PUBCHEM_CACTVS_HBOND_ACCEPTOR>
4

> <PUBCHEM_CACTVS_HBOND_DONOR>
1

> <PUBCHEM_CACTVS_ROTATABLE_BOND>
6

> <PUBCHEM_CACTVS_SUBSKEYS>
AAADcfB7sAAAAAAAAAAAAAAAAAAAAWAAAAA8YIAAAAAAAFjx8AAAHgAQAAAADSjBngQ/wPPMEACoAzV3VACCgCAxAiAI2KE4ZJiIIPrA0ZGEIAholyLIyAcYicCegAAAQAASAACQAASAACQAAAAAAAAAAA==

> <PUBCHEM_IUPAC_OPENEYE_NAME>
(6aR,9R,10aR)-N-[3-(dimethylamino)propyl]-N-(ethylcarbamoyl)-4,7-dimethyl-6,6a,8,9,10,10a-hexahydroindolo[4,3-fg]quinoline-9-carboxamide

> <PUBCHEM_IUPAC_CAS_NAME>
(6aR,9R,10aR)-N-[3-(dimethylamino)propyl]-N-(ethylcarbamoyl)-4,7-dimethyl-6,6a,8,9,10,10a-hexahydroindolo[4,3-fg]quinoline-9-carboxamide

> <PUBCHEM_IUPAC_NAME_MARKUP>
(6<I>a</I><I>R</I>,9<I>R</I>,10<I>a</I><I>R</I>)-<I>N</I>-[3-(dimethylamino)propyl]-<I>N</I>-(ethylcarbamoyl)-4,7-dimethyl-6,6<I>a</I>,8,9,10,10<I>a</I>-hexahydroindolo[4,3-fg]quinoline-9-carboxamide

> <PUBCHEM_IUPAC_NAME>
(6aR,9R,10aR)-N-[3-(dimethylamino)propyl]-N-(ethylcarbamoyl)-4,7-dimethyl-6,6a,8,9,10,10a-hexahydroindolo[4,3-fg]quinoline-9-carboxamide

> <PUBCHEM_IUPAC_SYSTEMATIC_NAME>
(6aR,9R,10aR)-N-[3-(dimethylamino)propyl]-N-(ethylcarbamoyl)-4,7-dimethyl-6,6a,8,9,10,10a-hexahydroindolo[4,3-fg]quinoline-9-carboxamide

> <PUBCHEM_IUPAC_TRADITIONAL_NAME>
(6aR,9R,10aR)-N-[3-(dimethylamino)propyl]-N-(ethylcarbamoyl)-4,7-dimethyl-6,6a,8,9,10,10a-hexahydroindolo[4,3-fg]quinoline-9-carboxamide

> <PUBCHEM_IUPAC_INCHI>
InChI=1S/C25H37N5O2/c1-6-26-25(32)30(12-8-11-27(2)3)24(31)18-13-20-19-9-7-10-21-23(19)17(15-28(21)4)14-22(20)29(5)16-18/h7,9-10,15,18,20,22H,6,8,11-14,16H2,1-5H3,(H,26,32)/t18-,20-,22-/m1/s1

> <PUBCHEM_IUPAC_INCHIKEY>
OQPYDZQJBICVMH-SYYKKAFVSA-N

> <PUBCHEM_XLOGP3_AA>
2.7

> <PUBCHEM_EXACT_MASS>
439.29472544

> <PUBCHEM_MOLECULAR_FORMULA>
C25H37N5O2

> <PUBCHEM_MOLECULAR_WEIGHT>
439.6

> <PUBCHEM_OPENEYE_CAN_SMILES>
CCNC(=O)N(CCCN(C)C)C(=O)C1CC2C(CC3=CN(C4=CC=CC2=C34)C)N(C1)C

> <PUBCHEM_OPENEYE_ISO_SMILES>
CCNC(=O)N(CCCN(C)C)C(=O)[C@@H]1C[C@H]2[C@@H](CC3=CN(C4=CC=CC2=C34)C)N(C1)C

> <PUBCHEM_CACTVS_TPSA>
60.8

> <PUBCHEM_MONOISOTOPIC_WEIGHT>
439.29472544

> <PUBCHEM_TOTAL_CHARGE>
0

> <PUBCHEM_HEAVY_ATOM_COUNT>
32

> <PUBCHEM_ATOM_DEF_STEREO_COUNT>
3

> <PUBCHEM_ATOM_UDEF_STEREO_COUNT>
0

> <PUBCHEM_BOND_DEF_STEREO_COUNT>
0

> <PUBCHEM_BOND_UDEF_STEREO_COUNT>
0

> <PUBCHEM_ISOTOPIC_ATOM_COUNT>
0

> <PUBCHEM_COMPONENT_COUNT>
1

> <PUBCHEM_CACTVS_TAUTO_COUNT>
-1

> <PUBCHEM_COORDINATE_TYPE>
1
5
255

> <PUBCHEM_BONDANNOTATIONS>
11  19  5
13  15  8
13  20  8
15  16  8
15  17  8
16  21  8
17  22  8
20  23  8
22  23  8
4  17  8
4  21  8
8  33  6
9  34  5

$$$$
