45260656
  -OEChem-09292322502D

 47 49  0     0  0  0  0  0  0999 V2000
    4.6284    0.0000    0.0000 Cl  0  0  0  0  0  0  0  0  0  0  0  0
    6.2078    4.9777    0.0000 O   0  0  0  0  0  0  0  0  0  0  0  0
    5.8988    7.5468    0.0000 O   0  0  0  0  0  0  0  0  0  0  0  0
    3.6200    5.7867    0.0000 N   0  0  0  0  0  0  0  0  0  0  0  0
    5.6200    5.7867    0.0000 C   0  0  0  0  0  0  0  0  0  0  0  0
    5.1200    6.6527    0.0000 C   0  0  0  0  0  0  0  0  0  0  0  0
    5.1200    4.9207    0.0000 C   0  0  0  0  0  0  0  0  0  0  0  0
    4.1200    6.6527    0.0000 C   0  0  0  0  0  0  0  0  0  0  0  0
    4.1200    4.9207    0.0000 C   0  0  0  0  0  0  0  0  0  0  0  0
    6.2078    6.5957    0.0000 C   0  0  0  0  0  0  0  0  0  0  0  0
    2.6200    5.7867    0.0000 C   0  0  0  0  0  0  0  0  0  0  0  0
    7.1588    5.2867    0.0000 C   0  0  0  0  0  0  0  0  0  0  0  0
    7.1588    6.2867    0.0000 C   0  0  0  0  0  0  0  0  0  0  0  0
    2.1200    4.9207    0.0000 C   0  0  0  0  0  0  0  0  0  0  0  0
    7.9679    4.6989    0.0000 C   0  0  0  0  0  0  0  0  0  0  0  0
    2.6200    4.0546    0.0000 C   0  0  0  0  0  0  0  0  0  0  0  0
    1.1200    4.9207    0.0000 C   0  0  0  0  0  0  0  0  0  0  0  0
    8.8814    5.1056    0.0000 C   0  0  0  0  0  0  0  0  0  0  0  0
    7.8633    3.7044    0.0000 C   0  0  0  0  0  0  0  0  0  0  0  0
    2.1200    3.1886    0.0000 C   0  0  0  0  0  0  0  0  0  0  0  0
    0.6200    4.0546    0.0000 C   0  0  0  0  0  0  0  0  0  0  0  0
    9.6904    4.5179    0.0000 C   0  0  0  0  0  0  0  0  0  0  0  0
    8.6724    3.1166    0.0000 C   0  0  0  0  0  0  0  0  0  0  0  0
    1.1200    3.1886    0.0000 C   0  0  0  0  0  0  0  0  0  0  0  0
    9.5859    3.5233    0.0000 C   0  0  0  0  0  0  0  0  0  0  0  0
    5.7026    6.8648    0.0000 H   0  0  0  0  0  0  0  0  0  0  0  0
    5.0123    7.2633    0.0000 H   0  0  0  0  0  0  0  0  0  0  0  0
    5.0123    4.3101    0.0000 H   0  0  0  0  0  0  0  0  0  0  0  0
    5.7026    4.7086    0.0000 H   0  0  0  0  0  0  0  0  0  0  0  0
    4.2277    7.2633    0.0000 H   0  0  0  0  0  0  0  0  0  0  0  0
    3.5374    6.8648    0.0000 H   0  0  0  0  0  0  0  0  0  0  0  0
    3.5374    4.7086    0.0000 H   0  0  0  0  0  0  0  0  0  0  0  0
    4.2277    4.3101    0.0000 H   0  0  0  0  0  0  0  0  0  0  0  0
    2.7277    6.3973    0.0000 H   0  0  0  0  0  0  0  0  0  0  0  0
    2.0374    5.9988    0.0000 H   0  0  0  0  0  0  0  0  0  0  0  0
    7.6604    6.6511    0.0000 H   0  0  0  0  0  0  0  0  0  0  0  0
    3.2400    4.0546    0.0000 H   0  0  0  0  0  0  0  0  0  0  0  0
    0.8100    5.4576    0.0000 H   0  0  0  0  0  0  0  0  0  0  0  0
    8.9462    5.7222    0.0000 H   0  0  0  0  0  0  0  0  0  0  0  0
    7.2969    3.4522    0.0000 H   0  0  0  0  0  0  0  0  0  0  0  0
    2.4300    2.6517    0.0000 H   0  0  0  0  0  0  0  0  0  0  0  0
    0.0000    4.0546    0.0000 H   0  0  0  0  0  0  0  0  0  0  0  0
   10.2568    4.7700    0.0000 H   0  0  0  0  0  0  0  0  0  0  0  0
    8.6075    2.5000    0.0000 H   0  0  0  0  0  0  0  0  0  0  0  0
    0.8100    2.6517    0.0000 H   0  0  0  0  0  0  0  0  0  0  0  0
   10.0875    3.1589    0.0000 H   0  0  0  0  0  0  0  0  0  0  0  0
    5.6284    0.0000    0.0000 H   0  0  0  0  0  0  0  0  0  0  0  0
  1 47  1  0  0  0  0
  2  5  1  0  0  0  0
  2 12  1  0  0  0  0
  3 10  2  0  0  0  0
  4  8  1  0  0  0  0
  4  9  1  0  0  0  0
  4 11  1  0  0  0  0
  5  6  1  0  0  0  0
  5  7  1  0  0  0  0
  5 10  1  0  0  0  0
  6  8  1  0  0  0  0
  6 26  1  0  0  0  0
  6 27  1  0  0  0  0
  7  9  1  0  0  0  0
  7 28  1  0  0  0  0
  7 29  1  0  0  0  0
  8 30  1  0  0  0  0
  8 31  1  0  0  0  0
  9 32  1  0  0  0  0
  9 33  1  0  0  0  0
 10 13  1  0  0  0  0
 11 14  1  0  0  0  0
 11 34  1  0  0  0  0
 11 35  1  0  0  0  0
 12 13  2  0  0  0  0
 12 15  1  0  0  0  0
 13 36  1  0  0  0  0
 14 16  2  0  0  0  0
 14 17  1  0  0  0  0
 15 18  2  0  0  0  0
 15 19  1  0  0  0  0
 16 20  1  0  0  0  0
 16 37  1  0  0  0  0
 17 21  2  0  0  0  0
 17 38  1  0  0  0  0
 18 22  1  0  0  0  0
 18 39  1  0  0  0  0
 19 23  2  0  0  0  0
 19 40  1  0  0  0  0
 20 24  2  0  0  0  0
 20 41  1  0  0  0  0
 21 24  1  0  0  0  0
 21 42  1  0  0  0  0
 22 25  2  0  0  0  0
 22 43  1  0  0  0  0
 23 25  1  0  0  0  0
 23 44  1  0  0  0  0
 24 45  1  0  0  0  0
 25 46  1  0  0  0  0
M  END
> <PUBCHEM_COMPOUND_CID>
45260656

> <PUBCHEM_COMPOUND_CANONICALIZED>
1

> <PUBCHEM_CACTVS_COMPLEXITY>
478

> <PUBCHEM_CACTVS_HBOND_ACCEPTOR>
3

> <PUBCHEM_CACTVS_HBOND_DONOR>
1

> <PUBCHEM_CACTVS_ROTATABLE_BOND>
3

> <PUBCHEM_CACTVS_SUBSKEYS>
AAADceB6MAAEAAAAAAAAAAAAAAAAAQAAAAA8YIAAAAAAAAABQAAAHgAAAAAADETBmAQwAIMABACIAqBSAAKCCAAgIAAIiAFIDMgIJjKAsR2GMAhmwAGIqQeUwCAOAAAAAAAAAAAAAAAAAAAAAAAAAAAAAA==

> <PUBCHEM_IUPAC_OPENEYE_NAME>
8-benzyl-2-phenyl-1-oxa-8-azaspiro[4.5]dec-2-en-4-one;hydrochloride

> <PUBCHEM_IUPAC_CAS_NAME>
2-phenyl-8-(phenylmethyl)-1-oxa-8-azaspiro[4.5]dec-2-en-4-one;hydrochloride

> <PUBCHEM_IUPAC_NAME_MARKUP>
8-benzyl-2-phenyl-1-oxa-8-azaspiro[4.5]dec-2-en-4-one;hydrochloride

> <PUBCHEM_IUPAC_NAME>
8-benzyl-2-phenyl-1-oxa-8-azaspiro[4.5]dec-2-en-4-one;hydrochloride

> <PUBCHEM_IUPAC_SYSTEMATIC_NAME>
2-phenyl-8-(phenylmethyl)-1-oxa-8-azaspiro[4.5]dec-2-en-4-one;hydrochloride

> <PUBCHEM_IUPAC_TRADITIONAL_NAME>
8-benzyl-2-phenyl-1-oxa-8-azaspiro[4.5]dec-2-en-4-one;hydrochloride

> <PUBCHEM_IUPAC_INCHI>
InChI=1S/C21H21NO2.ClH/c23-20-15-19(18-9-5-2-6-10-18)24-21(20)11-13-22(14-12-21)16-17-7-3-1-4-8-17;/h1-10,15H,11-14,16H2;1H

> <PUBCHEM_IUPAC_INCHIKEY>
HPNJRVPMZMDDMP-UHFFFAOYSA-N

> <PUBCHEM_EXACT_MASS>
355.1339066

> <PUBCHEM_MOLECULAR_FORMULA>
C21H22ClNO2

> <PUBCHEM_MOLECULAR_WEIGHT>
355.9

> <PUBCHEM_OPENEYE_CAN_SMILES>
C1CN(CCC12C(=O)C=C(O2)C3=CC=CC=C3)CC4=CC=CC=C4.Cl

> <PUBCHEM_OPENEYE_ISO_SMILES>
C1CN(CCC12C(=O)C=C(O2)C3=CC=CC=C3)CC4=CC=CC=C4.Cl

> <PUBCHEM_CACTVS_TPSA>
29.5

> <PUBCHEM_MONOISOTOPIC_WEIGHT>
355.1339066

> <PUBCHEM_TOTAL_CHARGE>
0

> <PUBCHEM_HEAVY_ATOM_COUNT>
25

> <PUBCHEM_ATOM_DEF_STEREO_COUNT>
0

> <PUBCHEM_ATOM_UDEF_STEREO_COUNT>
0

> <PUBCHEM_BOND_DEF_STEREO_COUNT>
0

> <PUBCHEM_BOND_UDEF_STEREO_COUNT>
0

> <PUBCHEM_ISOTOPIC_ATOM_COUNT>
0

> <PUBCHEM_COMPONENT_COUNT>
2

> <PUBCHEM_CACTVS_TAUTO_COUNT>
-1

> <PUBCHEM_COORDINATE_TYPE>
1
5
255

> <PUBCHEM_BONDANNOTATIONS>
14  16  8
14  17  8
15  18  8
15  19  8
16  20  8
17  21  8
18  22  8
19  23  8
20  24  8
21  24  8
22  25  8
23  25  8

$$$$
