46231588
  -OEChem-09292322292D

 52 54  0     1  0  0  0  0  0999 V2000
    7.8547   -4.2890    0.0000 Cl  0  0  0  0  0  0  0  0  0  0  0  0
    4.7884    3.4134    0.0000 S   0  0  0  0  0  0  0  0  0  0  0  0
    7.8547   -2.2407    0.0000 O   0  0  0  0  0  0  0  0  0  0  0  0
    3.8134    3.6360    0.0000 O   0  0  0  0  0  0  0  0  0  0  0  0
    5.7633    3.1909    0.0000 O   0  0  0  0  0  0  0  0  0  0  0  0
    3.0000   -3.2649    0.0000 N   0  0  3  0  0  0  0  0  0  0  0  0
    4.5658    2.4385    0.0000 N   0  0  3  0  0  0  0  0  0  0  0  0
    4.4088   -2.1414    0.0000 C   0  0  1  0  0  0  0  0  0  0  0  0
    3.4339   -2.3639    0.0000 C   0  0  0  0  0  0  0  0  0  0  0  0
    5.1906   -2.7649    0.0000 C   0  0  0  0  0  0  0  0  0  0  0  0
    3.4339   -4.1658    0.0000 C   0  0  0  0  0  0  0  0  0  0  0  0
    4.4088   -4.3884    0.0000 C   0  0  0  0  0  0  0  0  0  0  0  0
    5.1906   -3.7649    0.0000 C   0  0  0  0  0  0  0  0  0  0  0  0
    4.6313   -1.1664    0.0000 C   0  0  0  0  0  0  0  0  0  0  0  0
    6.0846   -2.2302    0.0000 C   0  0  0  0  0  0  0  0  0  0  0  0
    2.0000   -3.2649    0.0000 C   0  0  0  0  0  0  0  0  0  0  0  0
    6.0846   -4.2995    0.0000 C   0  0  0  0  0  0  0  0  0  0  0  0
    3.8983   -0.4863    0.0000 C   0  0  0  0  0  0  0  0  0  0  0  0
    5.5869   -0.8717    0.0000 C   0  0  0  0  0  0  0  0  0  0  0  0
    6.9906   -2.7440    0.0000 C   0  0  0  0  0  0  0  0  0  0  0  0
    5.0764    0.7834    0.0000 C   0  0  0  0  0  0  0  0  0  0  0  0
    6.9906   -3.7857    0.0000 C   0  0  0  0  0  0  0  0  0  0  0  0
    4.1208    0.4886    0.0000 C   0  0  0  0  0  0  0  0  0  0  0  0
    5.8094    0.1032    0.0000 C   0  0  0  0  0  0  0  0  0  0  0  0
    5.2989    1.7583    0.0000 C   0  0  0  0  0  0  0  0  0  0  0  0
    3.6103    2.1438    0.0000 C   0  0  0  0  0  0  0  0  0  0  0  0
    5.0109    4.3884    0.0000 C   0  0  0  0  0  0  0  0  0  0  0  0
    3.9704   -1.7030    0.0000 H   0  0  0  0  0  0  0  0  0  0  0  0
    3.4339   -1.7439    0.0000 H   0  0  0  0  0  0  0  0  0  0  0  0
    2.8294   -2.2259    0.0000 H   0  0  0  0  0  0  0  0  0  0  0  0
    2.8294   -4.3038    0.0000 H   0  0  0  0  0  0  0  0  0  0  0  0
    3.4339   -4.7858    0.0000 H   0  0  0  0  0  0  0  0  0  0  0  0
    4.1398   -4.9470    0.0000 H   0  0  0  0  0  0  0  0  0  0  0  0
    4.8936   -4.7749    0.0000 H   0  0  0  0  0  0  0  0  0  0  0  0
    6.0774   -1.6102    0.0000 H   0  0  0  0  0  0  0  0  0  0  0  0
    2.0000   -2.6449    0.0000 H   0  0  0  0  0  0  0  0  0  0  0  0
    1.3800   -3.2649    0.0000 H   0  0  0  0  0  0  0  0  0  0  0  0
    2.0000   -3.8849    0.0000 H   0  0  0  0  0  0  0  0  0  0  0  0
    6.0774   -4.9195    0.0000 H   0  0  0  0  0  0  0  0  0  0  0  0
    3.3058   -0.6690    0.0000 H   0  0  0  0  0  0  0  0  0  0  0  0
    6.0414   -1.2934    0.0000 H   0  0  0  0  0  0  0  0  0  0  0  0
    3.6663    0.9104    0.0000 H   0  0  0  0  0  0  0  0  0  0  0  0
    6.4019    0.2860    0.0000 H   0  0  0  0  0  0  0  0  0  0  0  0
    5.8702    1.5175    0.0000 H   0  0  0  0  0  0  0  0  0  0  0  0
    5.6353    2.2792    0.0000 H   0  0  0  0  0  0  0  0  0  0  0  0
    3.4275    2.7362    0.0000 H   0  0  0  0  0  0  0  0  0  0  0  0
    3.0178    1.9610    0.0000 H   0  0  0  0  0  0  0  0  0  0  0  0
    3.7930    1.5513    0.0000 H   0  0  0  0  0  0  0  0  0  0  0  0
    8.3929   -2.5486    0.0000 H   0  0  0  0  0  0  0  0  0  0  0  0
    5.6153    4.2504    0.0000 H   0  0  0  0  0  0  0  0  0  0  0  0
    5.1489    4.9928    0.0000 H   0  0  0  0  0  0  0  0  0  0  0  0
    4.4064    4.5263    0.0000 H   0  0  0  0  0  0  0  0  0  0  0  0
  1 22  1  0  0  0  0
  2  4  2  0  0  0  0
  2  5  2  0  0  0  0
  2  7  1  0  0  0  0
  2 27  1  0  0  0  0
  3 20  1  0  0  0  0
  3 49  1  0  0  0  0
  6  9  1  0  0  0  0
  6 11  1  0  0  0  0
  6 16  1  0  0  0  0
  7 25  1  0  0  0  0
  7 26  1  0  0  0  0
  8  9  1  0  0  0  0
  8 10  1  0  0  0  0
  8 14  1  6  0  0  0
  8 28  1  0  0  0  0
  9 29  1  0  0  0  0
  9 30  1  0  0  0  0
 10 13  1  0  0  0  0
 10 15  2  0  0  0  0
 11 12  1  0  0  0  0
 11 31  1  0  0  0  0
 11 32  1  0  0  0  0
 12 13  1  0  0  0  0
 12 33  1  0  0  0  0
 12 34  1  0  0  0  0
 13 17  2  0  0  0  0
 14 18  2  0  0  0  0
 14 19  1  0  0  0  0
 15 20  1  0  0  0  0
 15 35  1  0  0  0  0
 16 36  1  0  0  0  0
 16 37  1  0  0  0  0
 16 38  1  0  0  0  0
 17 22  1  0  0  0  0
 17 39  1  0  0  0  0
 18 23  1  0  0  0  0
 18 40  1  0  0  0  0
 19 24  2  0  0  0  0
 19 41  1  0  0  0  0
 20 22  2  0  0  0  0
 21 23  2  0  0  0  0
 21 24  1  0  0  0  0
 21 25  1  0  0  0  0
 23 42  1  0  0  0  0
 24 43  1  0  0  0  0
 25 44  1  0  0  0  0
 25 45  1  0  0  0  0
 26 46  1  0  0  0  0
 26 47  1  0  0  0  0
 26 48  1  0  0  0  0
 27 50  1  0  0  0  0
 27 51  1  0  0  0  0
 27 52  1  0  0  0  0
M  END
> <PUBCHEM_COMPOUND_CID>
46231588

> <PUBCHEM_COMPOUND_CANONICALIZED>
1

> <PUBCHEM_CACTVS_COMPLEXITY>
589

> <PUBCHEM_CACTVS_HBOND_ACCEPTOR>
5

> <PUBCHEM_CACTVS_HBOND_DONOR>
1

> <PUBCHEM_CACTVS_ROTATABLE_BOND>
4

> <PUBCHEM_CACTVS_SUBSKEYS>
AAADceB7MABEAAAAAAAAAAAAAAAAAAAAAAAwYAAABYAAAAABQAAAHgYASAAADQbBmCSyBoMAAgKAAiBCAHCCAAAgJUAIiAAOD4gIJiKDkxOEcAhkwBGImAeQ0PIO5AABIAAQCADIAAJAACAQAAAAAAAAAA==

> <PUBCHEM_IUPAC_OPENEYE_NAME>
N-[[4-[(5R)-8-chloro-7-hydroxy-3-methyl-1,2,4,5-tetrahydro-3-benzazepin-5-yl]phenyl]methyl]-N-methyl-methanesulfonamide

> <PUBCHEM_IUPAC_CAS_NAME>
N-[[4-[(5R)-8-chloro-7-hydroxy-3-methyl-1,2,4,5-tetrahydro-3-benzazepin-5-yl]phenyl]methyl]-N-methylmethanesulfonamide

> <PUBCHEM_IUPAC_NAME_MARKUP>
<I>N</I>-[[4-[(5<I>R</I>)-8-chloro-7-hydroxy-3-methyl-1,2,4,5-tetrahydro-3-benzazepin-5-yl]phenyl]methyl]-<I>N</I>-methylmethanesulfonamide

> <PUBCHEM_IUPAC_NAME>
N-[[4-[(5R)-8-chloro-7-hydroxy-3-methyl-1,2,4,5-tetrahydro-3-benzazepin-5-yl]phenyl]methyl]-N-methylmethanesulfonamide

> <PUBCHEM_IUPAC_SYSTEMATIC_NAME>
N-[[4-[(5R)-8-chloranyl-3-methyl-7-oxidanyl-1,2,4,5-tetrahydro-3-benzazepin-5-yl]phenyl]methyl]-N-methyl-methanesulfonamide

> <PUBCHEM_IUPAC_TRADITIONAL_NAME>
N-[4-[(5R)-8-chloro-7-hydroxy-3-methyl-1,2,4,5-tetrahydro-3-benzazepin-5-yl]benzyl]-N-methyl-methanesulfonamide

> <PUBCHEM_IUPAC_INCHI>
InChI=1S/C20H25ClN2O3S/c1-22-9-8-16-10-19(21)20(24)11-17(16)18(13-22)15-6-4-14(5-7-15)12-23(2)27(3,25)26/h4-7,10-11,18,24H,8-9,12-13H2,1-3H3/t18-/m1/s1

> <PUBCHEM_IUPAC_INCHIKEY>
VVPYOHCUMZPDTM-GOSISDBHSA-N

> <PUBCHEM_XLOGP3_AA>
3.1

> <PUBCHEM_EXACT_MASS>
408.1274415

> <PUBCHEM_MOLECULAR_FORMULA>
C20H25ClN2O3S

> <PUBCHEM_MOLECULAR_WEIGHT>
408.9

> <PUBCHEM_OPENEYE_CAN_SMILES>
CN1CCC2=CC(=C(C=C2C(C1)C3=CC=C(C=C3)CN(C)S(=O)(=O)C)O)Cl

> <PUBCHEM_OPENEYE_ISO_SMILES>
CN1CCC2=CC(=C(C=C2[C@H](C1)C3=CC=C(C=C3)CN(C)S(=O)(=O)C)O)Cl

> <PUBCHEM_CACTVS_TPSA>
69.2

> <PUBCHEM_MONOISOTOPIC_WEIGHT>
408.1274415

> <PUBCHEM_TOTAL_CHARGE>
0

> <PUBCHEM_HEAVY_ATOM_COUNT>
27

> <PUBCHEM_ATOM_DEF_STEREO_COUNT>
1

> <PUBCHEM_ATOM_UDEF_STEREO_COUNT>
0

> <PUBCHEM_BOND_DEF_STEREO_COUNT>
0

> <PUBCHEM_BOND_UDEF_STEREO_COUNT>
0

> <PUBCHEM_ISOTOPIC_ATOM_COUNT>
0

> <PUBCHEM_COMPONENT_COUNT>
1

> <PUBCHEM_CACTVS_TAUTO_COUNT>
-1

> <PUBCHEM_COORDINATE_TYPE>
1
5
255

> <PUBCHEM_BONDANNOTATIONS>
10  13  8
10  15  8
13  17  8
14  18  8
14  19  8
15  20  8
17  22  8
18  23  8
19  24  8
20  22  8
21  23  8
21  24  8
8  14  6

$$$$
