44626734
  -OEChem-09292322302D

 62 67  0     1  0  0  0  0  0999 V2000
    4.3228    6.7656    0.0000 Cl  0  0  0  0  0  0  0  0  0  0  0  0
    6.1499    5.9521    0.0000 Cl  0  0  0  0  0  0  0  0  0  0  0  0
    3.7759   -1.3830    0.0000 S   0  0  0  0  0  0  0  0  0  0  0  0
    3.4138    2.0621    0.0000 N   0  0  3  0  0  0  0  0  0  0  0  0
    4.0547   -3.1431    0.0000 N   0  0  0  0  0  0  0  0  0  0  0  0
    5.3637   -2.1920    0.0000 N   0  0  0  0  0  0  0  0  0  0  0  0
    5.6728   -3.1431    0.0000 N   0  0  0  0  0  0  0  0  0  0  0  0
    6.6237   -6.7656    0.0000 N   0  0  0  0  0  0  0  0  0  0  0  0
    2.9138    3.6009    0.0000 C   0  0  3  0  0  0  0  0  0  0  0  0
    2.1048    3.0132    0.0000 C   0  0  3  0  0  0  0  0  0  0  0  0
    2.0000    4.0081    0.0000 C   0  0  0  0  0  0  0  0  0  0  0  0
    3.7229    3.0132    0.0000 C   0  0  0  0  0  0  0  0  0  0  0  0
    2.4138    2.0621    0.0000 C   0  0  0  0  0  0  0  0  0  0  0  0
    3.7229    4.1887    0.0000 C   0  0  0  0  0  0  0  0  0  0  0  0
    4.0016    1.2531    0.0000 C   0  0  0  0  0  0  0  0  0  0  0  0
    3.6183    5.1832    0.0000 C   0  0  0  0  0  0  0  0  0  0  0  0
    4.6364    3.7820    0.0000 C   0  0  0  0  0  0  0  0  0  0  0  0
    3.5949    0.3395    0.0000 C   0  0  0  0  0  0  0  0  0  0  0  0
    4.4274    5.7710    0.0000 C   0  0  0  0  0  0  0  0  0  0  0  0
    5.4454    4.3698    0.0000 C   0  0  0  0  0  0  0  0  0  0  0  0
    4.1827   -0.4695    0.0000 C   0  0  0  0  0  0  0  0  0  0  0  0
    5.3409    5.3643    0.0000 C   0  0  0  0  0  0  0  0  0  0  0  0
    4.3637   -2.1920    0.0000 C   0  0  0  0  0  0  0  0  0  0  0  0
    4.8637   -3.7309    0.0000 C   0  0  0  0  0  0  0  0  0  0  0  0
    3.1037   -3.4521    0.0000 C   0  0  0  0  0  0  0  0  0  0  0  0
    4.8637   -4.7309    0.0000 C   0  0  0  0  0  0  0  0  0  0  0  0
    5.7298   -5.2309    0.0000 C   0  0  0  0  0  0  0  0  0  0  0  0
    3.9977   -5.2309    0.0000 C   0  0  0  0  0  0  0  0  0  0  0  0
    5.7298   -6.2309    0.0000 C   0  0  0  0  0  0  0  0  0  0  0  0
    6.6237   -4.6962    0.0000 C   0  0  0  0  0  0  0  0  0  0  0  0
    3.9977   -6.2309    0.0000 C   0  0  0  0  0  0  0  0  0  0  0  0
    4.8637   -6.7309    0.0000 C   0  0  0  0  0  0  0  0  0  0  0  0
    7.5298   -5.2101    0.0000 C   0  0  0  0  0  0  0  0  0  0  0  0
    7.5298   -6.2517    0.0000 C   0  0  0  0  0  0  0  0  0  0  0  0
    8.3939   -6.7550    0.0000 C   0  0  0  0  0  0  0  0  0  0  0  0
    1.4984    2.8842    0.0000 H   0  0  0  0  0  0  0  0  0  0  0  0
    2.1500    4.6097    0.0000 H   0  0  0  0  0  0  0  0  0  0  0  0
    1.3815    4.0513    0.0000 H   0  0  0  0  0  0  0  0  0  0  0  0
    4.2893    2.7610    0.0000 H   0  0  0  0  0  0  0  0  0  0  0  0
    4.0329    3.5501    0.0000 H   0  0  0  0  0  0  0  0  0  0  0  0
    1.8074    1.9332    0.0000 H   0  0  0  0  0  0  0  0  0  0  0  0
    2.4786    1.4455    0.0000 H   0  0  0  0  0  0  0  0  0  0  0  0
    4.5156    0.9064    0.0000 H   0  0  0  0  0  0  0  0  0  0  0  0
    4.4323    1.6991    0.0000 H   0  0  0  0  0  0  0  0  0  0  0  0
    3.0519    5.4354    0.0000 H   0  0  0  0  0  0  0  0  0  0  0  0
    4.7012    3.1654    0.0000 H   0  0  0  0  0  0  0  0  0  0  0  0
    3.0809    0.6862    0.0000 H   0  0  0  0  0  0  0  0  0  0  0  0
    3.1642   -0.1065    0.0000 H   0  0  0  0  0  0  0  0  0  0  0  0
    6.0118    4.1176    0.0000 H   0  0  0  0  0  0  0  0  0  0  0  0
    4.6967   -0.8162    0.0000 H   0  0  0  0  0  0  0  0  0  0  0  0
    4.6134   -0.0235    0.0000 H   0  0  0  0  0  0  0  0  0  0  0  0
    2.9121   -2.8625    0.0000 H   0  0  0  0  0  0  0  0  0  0  0  0
    2.5140   -3.6437    0.0000 H   0  0  0  0  0  0  0  0  0  0  0  0
    3.2952   -4.0418    0.0000 H   0  0  0  0  0  0  0  0  0  0  0  0
    3.4608   -4.9209    0.0000 H   0  0  0  0  0  0  0  0  0  0  0  0
    6.6165   -4.0763    0.0000 H   0  0  0  0  0  0  0  0  0  0  0  0
    3.4608   -6.5409    0.0000 H   0  0  0  0  0  0  0  0  0  0  0  0
    4.8637   -7.3509    0.0000 H   0  0  0  0  0  0  0  0  0  0  0  0
    8.0655   -4.8980    0.0000 H   0  0  0  0  0  0  0  0  0  0  0  0
    8.0818   -7.2908    0.0000 H   0  0  0  0  0  0  0  0  0  0  0  0
    8.9296   -7.0671    0.0000 H   0  0  0  0  0  0  0  0  0  0  0  0
    8.7059   -6.2193    0.0000 H   0  0  0  0  0  0  0  0  0  0  0  0
  1 19  1  0  0  0  0
  2 22  1  0  0  0  0
  3 21  1  0  0  0  0
  3 23  1  0  0  0  0
  4 12  1  0  0  0  0
  4 13  1  0  0  0  0
  4 15  1  0  0  0  0
  5 23  1  0  0  0  0
  5 24  1  0  0  0  0
  5 25  1  0  0  0  0
  6  7  1  0  0  0  0
  6 23  2  0  0  0  0
  7 24  2  0  0  0  0
  8 29  1  0  0  0  0
  8 34  2  0  0  0  0
  9 10  1  0  0  0  0
  9 11  1  0  0  0  0
  9 12  1  0  0  0  0
  9 14  1  0  0  0  0
 10 11  1  0  0  0  0
 10 13  1  0  0  0  0
 10 36  1  0  0  0  0
 11 37  1  0  0  0  0
 11 38  1  0  0  0  0
 12 39  1  0  0  0  0
 12 40  1  0  0  0  0
 13 41  1  0  0  0  0
 13 42  1  0  0  0  0
 14 16  2  0  0  0  0
 14 17  1  0  0  0  0
 15 18  1  0  0  0  0
 15 43  1  0  0  0  0
 15 44  1  0  0  0  0
 16 19  1  0  0  0  0
 16 45  1  0  0  0  0
 17 20  2  0  0  0  0
 17 46  1  0  0  0  0
 18 21  1  0  0  0  0
 18 47  1  0  0  0  0
 18 48  1  0  0  0  0
 19 22  2  0  0  0  0
 20 22  1  0  0  0  0
 20 49  1  0  0  0  0
 21 50  1  0  0  0  0
 21 51  1  0  0  0  0
 24 26  1  0  0  0  0
 25 52  1  0  0  0  0
 25 53  1  0  0  0  0
 25 54  1  0  0  0  0
 26 27  2  0  0  0  0
 26 28  1  0  0  0  0
 27 29  1  0  0  0  0
 27 30  1  0  0  0  0
 28 31  2  0  0  0  0
 28 55  1  0  0  0  0
 29 32  2  0  0  0  0
 30 33  2  0  0  0  0
 30 56  1  0  0  0  0
 31 32  1  0  0  0  0
 31 57  1  0  0  0  0
 32 58  1  0  0  0  0
 33 34  1  0  0  0  0
 33 59  1  0  0  0  0
 34 35  1  0  0  0  0
 35 60  1  0  0  0  0
 35 61  1  0  0  0  0
 35 62  1  0  0  0  0
M  END
> <PUBCHEM_COMPOUND_CID>
44626734

> <PUBCHEM_COMPOUND_CANONICALIZED>
1

> <PUBCHEM_CACTVS_COMPLEXITY>
746

> <PUBCHEM_CACTVS_HBOND_ACCEPTOR>
5

> <PUBCHEM_CACTVS_HBOND_DONOR>
0

> <PUBCHEM_CACTVS_ROTATABLE_BOND>
7

> <PUBCHEM_CACTVS_SUBSKEYS>
AAADceB7gABGAAAAAAAAAAAAGAAAAWLAAAA8eIEAAAAAAACx/AAAHAYIAAAADwrFXySz0PcMEAiiAyZiZACS0CthB7Ad2mA4ZpiIKOLhm5GEIAhgiALIyAcQgMAPhAAAYAASAAQIAADAACQACAAAAAAAAA==

> <PUBCHEM_IUPAC_OPENEYE_NAME>
5-[5-[3-[1-(3,4-dichlorophenyl)-3-azabicyclo[3.1.0]hexan-3-yl]propylsulfanyl]-4-methyl-1,2,4-triazol-3-yl]-2-methyl-quinoline

> <PUBCHEM_IUPAC_CAS_NAME>
5-[5-[3-[1-(3,4-dichlorophenyl)-3-azabicyclo[3.1.0]hexan-3-yl]propylthio]-4-methyl-1,2,4-triazol-3-yl]-2-methylquinoline

> <PUBCHEM_IUPAC_NAME_MARKUP>
5-[5-[3-[1-(3,4-dichlorophenyl)-3-azabicyclo[3.1.0]hexan-3-yl]propylsulfanyl]-4-methyl-1,2,4-triazol-3-yl]-2-methylquinoline

> <PUBCHEM_IUPAC_NAME>
5-[5-[3-[1-(3,4-dichlorophenyl)-3-azabicyclo[3.1.0]hexan-3-yl]propylsulfanyl]-4-methyl-1,2,4-triazol-3-yl]-2-methylquinoline

> <PUBCHEM_IUPAC_SYSTEMATIC_NAME>
5-[5-[3-[1-(3,4-dichlorophenyl)-3-azabicyclo[3.1.0]hexan-3-yl]propylsulfanyl]-4-methyl-1,2,4-triazol-3-yl]-2-methyl-quinoline

> <PUBCHEM_IUPAC_TRADITIONAL_NAME>
5-[5-[3-[1-(3,4-dichlorophenyl)-3-azabicyclo[3.1.0]hexan-3-yl]propylthio]-4-methyl-1,2,4-triazol-3-yl]-2-methyl-quinoline

> <PUBCHEM_IUPAC_INCHI>
InChI=1S/C27H27Cl2N5S/c1-17-7-9-20-21(5-3-6-24(20)30-17)25-31-32-26(33(25)2)35-12-4-11-34-15-19-14-27(19,16-34)18-8-10-22(28)23(29)13-18/h3,5-10,13,19H,4,11-12,14-16H2,1-2H3

> <PUBCHEM_IUPAC_INCHIKEY>
URICTYNITRPTLS-UHFFFAOYSA-N

> <PUBCHEM_XLOGP3_AA>
6.2

> <PUBCHEM_EXACT_MASS>
523.1364224

> <PUBCHEM_MOLECULAR_FORMULA>
C27H27Cl2N5S

> <PUBCHEM_MOLECULAR_WEIGHT>
524.5

> <PUBCHEM_OPENEYE_CAN_SMILES>
CC1=NC2=CC=CC(=C2C=C1)C3=NN=C(N3C)SCCCN4CC5CC5(C4)C6=CC(=C(C=C6)Cl)Cl

> <PUBCHEM_OPENEYE_ISO_SMILES>
CC1=NC2=CC=CC(=C2C=C1)C3=NN=C(N3C)SCCCN4CC5CC5(C4)C6=CC(=C(C=C6)Cl)Cl

> <PUBCHEM_CACTVS_TPSA>
72.1

> <PUBCHEM_MONOISOTOPIC_WEIGHT>
523.1364224

> <PUBCHEM_TOTAL_CHARGE>
0

> <PUBCHEM_HEAVY_ATOM_COUNT>
35

> <PUBCHEM_ATOM_DEF_STEREO_COUNT>
0

> <PUBCHEM_ATOM_UDEF_STEREO_COUNT>
2

> <PUBCHEM_BOND_DEF_STEREO_COUNT>
0

> <PUBCHEM_BOND_UDEF_STEREO_COUNT>
0

> <PUBCHEM_ISOTOPIC_ATOM_COUNT>
0

> <PUBCHEM_COMPONENT_COUNT>
1

> <PUBCHEM_CACTVS_TAUTO_COUNT>
-1

> <PUBCHEM_COORDINATE_TYPE>
1
5
255

> <PUBCHEM_BONDANNOTATIONS>
10  11  3
14  16  8
14  17  8
16  19  8
17  20  8
19  22  8
20  22  8
26  27  8
26  28  8
27  29  8
27  30  8
28  31  8
29  32  8
30  33  8
31  32  8
33  34  8
5  23  8
5  24  8
6  23  8
6  7  8
7  24  8
8  29  8
8  34  8
9  14  3

$$$$
