127028798
  -OEChem-09292322372D

 64 67  0     1  0  0  0  0  0999 V2000
    2.9511   -6.3881    0.0000 F   0  0  0  0  0  0  0  0  0  0  0  0
    4.6759    0.5192    0.0000 O   0  0  0  0  0  0  0  0  0  0  0  0
    4.5388   -3.1971    0.0000 O   0  0  0  0  0  0  0  0  0  0  0  0
    3.4511    0.1507    0.0000 O   0  0  0  0  0  0  0  0  0  0  0  0
    6.5780    1.1373    0.0000 N   0  0  0  0  0  0  0  0  0  0  0  0
    6.9938    3.0936    0.0000 N   0  0  0  0  0  0  0  0  0  0  0  0
    4.2601   -1.4371    0.0000 N   0  0  0  0  0  0  0  0  0  0  0  0
    2.6420   -1.4371    0.0000 N   0  0  0  0  0  0  0  0  0  0  0  0
    7.5291    1.4463    0.0000 C   0  0  0  0  0  0  0  0  0  0  0  0
    5.8349    1.8064    0.0000 C   0  0  0  0  0  0  0  0  0  0  0  0
    6.3701    0.1591    0.0000 C   0  0  0  0  0  0  0  0  0  0  0  0
    7.7370    2.4244    0.0000 C   0  0  0  0  0  0  0  0  0  0  0  0
    6.0428    2.7846    0.0000 C   0  0  0  0  0  0  0  0  0  0  0  0
    5.4190   -0.1499    0.0000 C   0  0  3  0  0  0  0  0  0  0  0  0
    2.9511   -2.3881    0.0000 C   0  0  3  0  0  0  0  0  0  0  0  0
    5.2111   -1.1280    0.0000 C   0  0  0  0  0  0  0  0  0  0  0  0
    3.9511   -2.3881    0.0000 C   0  0  0  0  0  0  0  0  0  0  0  0
    7.2018    4.0717    0.0000 C   0  0  0  0  0  0  0  0  0  0  0  0
    3.4511   -0.8493    0.0000 C   0  0  0  0  0  0  0  0  0  0  0  0
    2.9511   -3.3881    0.0000 C   0  0  0  0  0  0  0  0  0  0  0  0
    2.0000   -2.6971    0.0000 C   0  0  0  0  0  0  0  0  0  0  0  0
    8.1528    4.3807    0.0000 C   0  0  0  0  0  0  0  0  0  0  0  0
    6.4586    4.7408    0.0000 C   0  0  0  0  0  0  0  0  0  0  0  0
    3.8171   -3.8881    0.0000 C   0  0  0  0  0  0  0  0  0  0  0  0
    2.0850   -3.8881    0.0000 C   0  0  0  0  0  0  0  0  0  0  0  0
    6.6665    5.7190    0.0000 C   0  0  0  0  0  0  0  0  0  0  0  0
    8.3607    5.3589    0.0000 C   0  0  0  0  0  0  0  0  0  0  0  0
    8.8959    3.7116    0.0000 C   0  0  0  0  0  0  0  0  0  0  0  0
    7.6176    6.0280    0.0000 C   0  0  0  0  0  0  0  0  0  0  0  0
    3.8171   -4.8881    0.0000 C   0  0  0  0  0  0  0  0  0  0  0  0
    2.0850   -4.8881    0.0000 C   0  0  0  0  0  0  0  0  0  0  0  0
    5.9234    6.3881    0.0000 C   0  0  0  0  0  0  0  0  0  0  0  0
    2.9511   -5.3881    0.0000 C   0  0  0  0  0  0  0  0  0  0  0  0
    7.6154    0.8323    0.0000 H   0  0  0  0  0  0  0  0  0  0  0  0
    8.1487    1.4246    0.0000 H   0  0  0  0  0  0  0  0  0  0  0  0
    5.2600    2.0386    0.0000 H   0  0  0  0  0  0  0  0  0  0  0  0
    5.5063    1.2806    0.0000 H   0  0  0  0  0  0  0  0  0  0  0  0
    6.4564   -0.4548    0.0000 H   0  0  0  0  0  0  0  0  0  0  0  0
    6.9897    0.1375    0.0000 H   0  0  0  0  0  0  0  0  0  0  0  0
    8.3118    2.1922    0.0000 H   0  0  0  0  0  0  0  0  0  0  0  0
    8.0655    2.9502    0.0000 H   0  0  0  0  0  0  0  0  0  0  0  0
    5.9565    3.3985    0.0000 H   0  0  0  0  0  0  0  0  0  0  0  0
    5.4232    2.8062    0.0000 H   0  0  0  0  0  0  0  0  0  0  0  0
    4.8294   -0.3415    0.0000 H   0  0  0  0  0  0  0  0  0  0  0  0
    5.2974   -1.7420    0.0000 H   0  0  0  0  0  0  0  0  0  0  0  0
    5.8308   -1.1497    0.0000 H   0  0  0  0  0  0  0  0  0  0  0  0
    2.0524   -1.2455    0.0000 H   0  0  0  0  0  0  0  0  0  0  0  0
    1.8084   -2.1075    0.0000 H   0  0  0  0  0  0  0  0  0  0  0  0
    1.4103   -2.8887    0.0000 H   0  0  0  0  0  0  0  0  0  0  0  0
    2.1916   -3.2868    0.0000 H   0  0  0  0  0  0  0  0  0  0  0  0
    4.8048    1.1257    0.0000 H   0  0  0  0  0  0  0  0  0  0  0  0
    5.8690    4.5492    0.0000 H   0  0  0  0  0  0  0  0  0  0  0  0
    4.3540   -3.5781    0.0000 H   0  0  0  0  0  0  0  0  0  0  0  0
    1.5481   -3.5781    0.0000 H   0  0  0  0  0  0  0  0  0  0  0  0
    8.9504    5.5505    0.0000 H   0  0  0  0  0  0  0  0  0  0  0  0
    8.4811    3.2508    0.0000 H   0  0  0  0  0  0  0  0  0  0  0  0
    9.3567    3.2967    0.0000 H   0  0  0  0  0  0  0  0  0  0  0  0
    9.3108    4.1724    0.0000 H   0  0  0  0  0  0  0  0  0  0  0  0
    7.7465    6.6345    0.0000 H   0  0  0  0  0  0  0  0  0  0  0  0
    4.3540   -5.1981    0.0000 H   0  0  0  0  0  0  0  0  0  0  0  0
    1.5481   -5.1981    0.0000 H   0  0  0  0  0  0  0  0  0  0  0  0
    6.3382    6.8489    0.0000 H   0  0  0  0  0  0  0  0  0  0  0  0
    5.4626    6.8030    0.0000 H   0  0  0  0  0  0  0  0  0  0  0  0
    5.5085    5.9274    0.0000 H   0  0  0  0  0  0  0  0  0  0  0  0
  1 33  1  0  0  0  0
  2 14  1  0  0  0  0
  2 51  1  0  0  0  0
  3 17  2  0  0  0  0
  4 19  2  0  0  0  0
  5  9  1  0  0  0  0
  5 10  1  0  0  0  0
  5 11  1  0  0  0  0
  6 12  1  0  0  0  0
  6 13  1  0  0  0  0
  6 18  1  0  0  0  0
  7 16  1  0  0  0  0
  7 17  1  0  0  0  0
  7 19  1  0  0  0  0
  8 15  1  0  0  0  0
  8 19  1  0  0  0  0
  8 47  1  0  0  0  0
  9 12  1  0  0  0  0
  9 34  1  0  0  0  0
  9 35  1  0  0  0  0
 10 13  1  0  0  0  0
 10 36  1  0  0  0  0
 10 37  1  0  0  0  0
 11 14  1  0  0  0  0
 11 38  1  0  0  0  0
 11 39  1  0  0  0  0
 12 40  1  0  0  0  0
 12 41  1  0  0  0  0
 13 42  1  0  0  0  0
 13 43  1  0  0  0  0
 14 16  1  0  0  0  0
 14 44  1  0  0  0  0
 15 17  1  0  0  0  0
 15 20  1  0  0  0  0
 15 21  1  0  0  0  0
 16 45  1  0  0  0  0
 16 46  1  0  0  0  0
 18 22  2  0  0  0  0
 18 23  1  0  0  0  0
 20 24  2  0  0  0  0
 20 25  1  0  0  0  0
 21 48  1  0  0  0  0
 21 49  1  0  0  0  0
 21 50  1  0  0  0  0
 22 27  1  0  0  0  0
 22 28  1  0  0  0  0
 23 26  2  0  0  0  0
 23 52  1  0  0  0  0
 24 30  1  0  0  0  0
 24 53  1  0  0  0  0
 25 31  2  0  0  0  0
 25 54  1  0  0  0  0
 26 29  1  0  0  0  0
 26 32  1  0  0  0  0
 27 29  2  0  0  0  0
 27 55  1  0  0  0  0
 28 56  1  0  0  0  0
 28 57  1  0  0  0  0
 28 58  1  0  0  0  0
 29 59  1  0  0  0  0
 30 33  2  0  0  0  0
 30 60  1  0  0  0  0
 31 33  1  0  0  0  0
 31 61  1  0  0  0  0
 32 62  1  0  0  0  0
 32 63  1  0  0  0  0
 32 64  1  0  0  0  0
M  END
> <PUBCHEM_COMPOUND_CID>
127028798

> <PUBCHEM_COMPOUND_CANONICALIZED>
1

> <PUBCHEM_CACTVS_COMPLEXITY>
708

> <PUBCHEM_CACTVS_HBOND_ACCEPTOR>
6

> <PUBCHEM_CACTVS_HBOND_DONOR>
2

> <PUBCHEM_CACTVS_ROTATABLE_BOND>
6

> <PUBCHEM_CACTVS_SUBSKEYS>
AAADceB7sQAAAAAAAAAAAAAAAAAAAWAAAAA8YIAAAAAAAAABQAAAHwAQCAAADJzhmA4zwIPAAgCIAiVSUACCAAAhAgAIiAGIZIiKcDLA1bGUIAholyLYyAcYiMCOwAAAQAACAACAAACAAAQAAAAAAAAAAA==

> <PUBCHEM_IUPAC_OPENEYE_NAME>
3-[3-[4-(2,5-dimethylphenyl)piperazin-1-yl]-2-hydroxy-propyl]-5-(4-fluorophenyl)-5-methyl-imidazolidine-2,4-dione

> <PUBCHEM_IUPAC_CAS_NAME>
3-[3-[4-(2,5-dimethylphenyl)-1-piperazinyl]-2-hydroxypropyl]-5-(4-fluorophenyl)-5-methylimidazolidine-2,4-dione

> <PUBCHEM_IUPAC_NAME_MARKUP>
3-[3-[4-(2,5-dimethylphenyl)piperazin-1-yl]-2-hydroxypropyl]-5-(4-fluorophenyl)-5-methylimidazolidine-2,4-dione

> <PUBCHEM_IUPAC_NAME>
3-[3-[4-(2,5-dimethylphenyl)piperazin-1-yl]-2-hydroxypropyl]-5-(4-fluorophenyl)-5-methylimidazolidine-2,4-dione

> <PUBCHEM_IUPAC_SYSTEMATIC_NAME>
3-[3-[4-(2,5-dimethylphenyl)piperazin-1-yl]-2-oxidanyl-propyl]-5-(4-fluorophenyl)-5-methyl-imidazolidine-2,4-dione

> <PUBCHEM_IUPAC_TRADITIONAL_NAME>
3-[3-[4-(2,5-dimethylphenyl)piperazino]-2-hydroxy-propyl]-5-(4-fluorophenyl)-5-methyl-hydantoin

> <PUBCHEM_IUPAC_INCHI>
InChI=1S/C25H31FN4O3/c1-17-4-5-18(2)22(14-17)29-12-10-28(11-13-29)15-21(31)16-30-23(32)25(3,27-24(30)33)19-6-8-20(26)9-7-19/h4-9,14,21,31H,10-13,15-16H2,1-3H3,(H,27,33)

> <PUBCHEM_IUPAC_INCHIKEY>
HKFCZKONZLVXFH-UHFFFAOYSA-N

> <PUBCHEM_XLOGP3_AA>
2.9

> <PUBCHEM_EXACT_MASS>
454.23801903

> <PUBCHEM_MOLECULAR_FORMULA>
C25H31FN4O3

> <PUBCHEM_MOLECULAR_WEIGHT>
454.5

> <PUBCHEM_OPENEYE_CAN_SMILES>
CC1=CC(=C(C=C1)C)N2CCN(CC2)CC(CN3C(=O)C(NC3=O)(C)C4=CC=C(C=C4)F)O

> <PUBCHEM_OPENEYE_ISO_SMILES>
CC1=CC(=C(C=C1)C)N2CCN(CC2)CC(CN3C(=O)C(NC3=O)(C)C4=CC=C(C=C4)F)O

> <PUBCHEM_CACTVS_TPSA>
76.1

> <PUBCHEM_MONOISOTOPIC_WEIGHT>
454.23801903

> <PUBCHEM_TOTAL_CHARGE>
0

> <PUBCHEM_HEAVY_ATOM_COUNT>
33

> <PUBCHEM_ATOM_DEF_STEREO_COUNT>
0

> <PUBCHEM_ATOM_UDEF_STEREO_COUNT>
2

> <PUBCHEM_BOND_DEF_STEREO_COUNT>
0

> <PUBCHEM_BOND_UDEF_STEREO_COUNT>
0

> <PUBCHEM_ISOTOPIC_ATOM_COUNT>
0

> <PUBCHEM_COMPONENT_COUNT>
1

> <PUBCHEM_CACTVS_TAUTO_COUNT>
-1

> <PUBCHEM_COORDINATE_TYPE>
1
5
255

> <PUBCHEM_BONDANNOTATIONS>
15  21  3
18  22  8
18  23  8
14  2  3
20  24  8
20  25  8
22  27  8
23  26  8
24  30  8
25  31  8
26  29  8
27  29  8
30  33  8
31  33  8

$$$$
