57242
  -OEChem-09292321592D

 40 42  0     1  0  0  0  0  0999 V2000
    7.8282    0.0845    0.0000 N   0  0  3  0  0  0  0  0  0  0  0  0
    4.3083   -1.9848    0.0000 N   0  0  0  0  0  0  0  0  0  0  0  0
    3.4022   -0.4294    0.0000 N   0  0  0  0  0  0  0  0  0  0  0  0
    2.5381   -1.9743    0.0000 N   0  0  0  0  0  0  0  0  0  0  0  0
    6.9343   -1.4502    0.0000 C   0  0  2  0  0  0  0  0  0  0  0  0
    6.9343   -0.4502    0.0000 C   0  0  1  0  0  0  0  0  0  0  0  0
    7.8282   -1.9848    0.0000 C   0  0  0  0  0  0  0  0  0  0  0  0
    6.0682    0.0498    0.0000 C   0  0  0  0  0  0  0  0  0  0  0  0
    6.0682   -1.9502    0.0000 C   0  0  0  0  0  0  0  0  0  0  0  0
    8.7343   -1.4710    0.0000 C   0  0  0  0  0  0  0  0  0  0  0  0
    8.7343   -0.4294    0.0000 C   0  0  0  0  0  0  0  0  0  0  0  0
    5.2022   -0.4502    0.0000 C   0  0  0  0  0  0  0  0  0  0  0  0
    5.2022   -1.4502    0.0000 C   0  0  0  0  0  0  0  0  0  0  0  0
    7.8167    1.0844    0.0000 C   0  0  0  0  0  0  0  0  0  0  0  0
    8.6768    1.5944    0.0000 C   0  0  0  0  0  0  0  0  0  0  0  0
    4.3083    0.0845    0.0000 C   0  0  0  0  0  0  0  0  0  0  0  0
    8.6653    2.5943    0.0000 C   0  0  0  0  0  0  0  0  0  0  0  0
    3.4022   -1.4710    0.0000 C   0  0  0  0  0  0  0  0  0  0  0  0
    6.9277   -2.3002    0.0000 H   0  0  0  0  0  0  0  0  0  0  0  0
    6.9277    0.3998    0.0000 H   0  0  0  0  0  0  0  0  0  0  0  0
    7.4236   -2.4546    0.0000 H   0  0  0  0  0  0  0  0  0  0  0  0
    8.2218   -2.4639    0.0000 H   0  0  0  0  0  0  0  0  0  0  0  0
    6.4668    0.5248    0.0000 H   0  0  0  0  0  0  0  0  0  0  0  0
    5.6697    0.5248    0.0000 H   0  0  0  0  0  0  0  0  0  0  0  0
    5.6697   -2.4251    0.0000 H   0  0  0  0  0  0  0  0  0  0  0  0
    6.4668   -2.4251    0.0000 H   0  0  0  0  0  0  0  0  0  0  0  0
    8.9433   -2.0547    0.0000 H   0  0  0  0  0  0  0  0  0  0  0  0
    9.3451   -1.3649    0.0000 H   0  0  0  0  0  0  0  0  0  0  0  0
    9.3451   -0.5355    0.0000 H   0  0  0  0  0  0  0  0  0  0  0  0
    8.9433    0.1543    0.0000 H   0  0  0  0  0  0  0  0  0  0  0  0
    7.5979    1.6645    0.0000 H   0  0  0  0  0  0  0  0  0  0  0  0
    7.2074    0.9697    0.0000 H   0  0  0  0  0  0  0  0  0  0  0  0
    8.8956    1.0143    0.0000 H   0  0  0  0  0  0  0  0  0  0  0  0
    9.2861    1.7091    0.0000 H   0  0  0  0  0  0  0  0  0  0  0  0
    4.3154    0.7044    0.0000 H   0  0  0  0  0  0  0  0  0  0  0  0
    9.2852    2.6015    0.0000 H   0  0  0  0  0  0  0  0  0  0  0  0
    8.6581    3.2143    0.0000 H   0  0  0  0  0  0  0  0  0  0  0  0
    8.0453    2.5872    0.0000 H   0  0  0  0  0  0  0  0  0  0  0  0
    2.0000   -1.6664    0.0000 H   0  0  0  0  0  0  0  0  0  0  0  0
    2.5405   -2.5943    0.0000 H   0  0  0  0  0  0  0  0  0  0  0  0
  1  6  1  0  0  0  0
  1 11  1  0  0  0  0
  1 14  1  0  0  0  0
  2 13  2  0  0  0  0
  2 18  1  0  0  0  0
  3 16  1  0  0  0  0
  3 18  2  0  0  0  0
  4 18  1  0  0  0  0
  4 39  1  0  0  0  0
  4 40  1  0  0  0  0
  5  6  1  0  0  0  0
  5  7  1  0  0  0  0
  5  9  1  0  0  0  0
  5 19  1  1  0  0  0
  6  8  1  0  0  0  0
  6 20  1  6  0  0  0
  7 10  1  0  0  0  0
  7 21  1  0  0  0  0
  7 22  1  0  0  0  0
  8 12  1  0  0  0  0
  8 23  1  0  0  0  0
  8 24  1  0  0  0  0
  9 13  1  0  0  0  0
  9 25  1  0  0  0  0
  9 26  1  0  0  0  0
 10 11  1  0  0  0  0
 10 27  1  0  0  0  0
 10 28  1  0  0  0  0
 11 29  1  0  0  0  0
 11 30  1  0  0  0  0
 12 13  1  0  0  0  0
 12 16  2  0  0  0  0
 14 15  1  0  0  0  0
 14 31  1  0  0  0  0
 14 32  1  0  0  0  0
 15 17  1  0  0  0  0
 15 33  1  0  0  0  0
 15 34  1  0  0  0  0
 16 35  1  0  0  0  0
 17 36  1  0  0  0  0
 17 37  1  0  0  0  0
 17 38  1  0  0  0  0
M  END
> <PUBCHEM_COMPOUND_CID>
57242

> <PUBCHEM_COMPOUND_CANONICALIZED>
1

> <PUBCHEM_CACTVS_COMPLEXITY>
283

> <PUBCHEM_CACTVS_HBOND_ACCEPTOR>
4

> <PUBCHEM_CACTVS_HBOND_DONOR>
1

> <PUBCHEM_CACTVS_ROTATABLE_BOND>
2

> <PUBCHEM_CACTVS_SUBSKEYS>
AAADceBzgAAAAAAAAAAAAAAAAAAAAAAAAAA8WIAAAAAAAACxgAAAHAAQAAAADSjBHgQvkJdIEACgAxRnZACAgCkxAKABWCA4RBiAKIJA2cGEBAhogALISCMQgMAOAAAAAAAAAACAAQCAAAQAAAAAAAAAAA==

> <PUBCHEM_IUPAC_OPENEYE_NAME>
(5aR,9aR)-6-propyl-5a,7,8,9,9a,10-hexahydro-5H-pyrido[2,3-g]quinazolin-2-amine

> <PUBCHEM_IUPAC_CAS_NAME>
(5aR,9aR)-6-propyl-5a,7,8,9,9a,10-hexahydro-5H-pyrido[2,3-g]quinazolin-2-amine

> <PUBCHEM_IUPAC_NAME_MARKUP>
(5<I>a</I><I>R</I>,9<I>a</I><I>R</I>)-6-propyl-5<I>a</I>,7,8,9,9<I>a</I>,10-hexahydro-5<I>H</I>-pyrido[2,3-g]quinazolin-2-amine

> <PUBCHEM_IUPAC_NAME>
(5aR,9aR)-6-propyl-5a,7,8,9,9a,10-hexahydro-5H-pyrido[2,3-g]quinazolin-2-amine

> <PUBCHEM_IUPAC_SYSTEMATIC_NAME>
(5aR,9aR)-6-propyl-5a,7,8,9,9a,10-hexahydro-5H-pyrido[2,3-g]quinazolin-2-amine

> <PUBCHEM_IUPAC_TRADITIONAL_NAME>
[(5aR,9aR)-6-propyl-5a,7,8,9,9a,10-hexahydro-5H-pyrido[2,3-g]quinazolin-2-yl]amine

> <PUBCHEM_IUPAC_INCHI>
InChI=1S/C14H22N4/c1-2-5-18-6-3-4-10-7-12-11(8-13(10)18)9-16-14(15)17-12/h9-10,13H,2-8H2,1H3,(H2,15,16,17)/t10-,13-/m1/s1

> <PUBCHEM_IUPAC_INCHIKEY>
TUFADSGTJUOBEH-ZWNOBZJWSA-N

> <PUBCHEM_XLOGP3_AA>
1.9

> <PUBCHEM_EXACT_MASS>
246.18444672

> <PUBCHEM_MOLECULAR_FORMULA>
C14H22N4

> <PUBCHEM_MOLECULAR_WEIGHT>
246.35

> <PUBCHEM_OPENEYE_CAN_SMILES>
CCCN1CCCC2C1CC3=CN=C(N=C3C2)N

> <PUBCHEM_OPENEYE_ISO_SMILES>
CCCN1CCC[C@H]2[C@H]1CC3=CN=C(N=C3C2)N

> <PUBCHEM_CACTVS_TPSA>
55

> <PUBCHEM_MONOISOTOPIC_WEIGHT>
246.18444672

> <PUBCHEM_TOTAL_CHARGE>
0

> <PUBCHEM_HEAVY_ATOM_COUNT>
18

> <PUBCHEM_ATOM_DEF_STEREO_COUNT>
2

> <PUBCHEM_ATOM_UDEF_STEREO_COUNT>
0

> <PUBCHEM_BOND_DEF_STEREO_COUNT>
0

> <PUBCHEM_BOND_UDEF_STEREO_COUNT>
0

> <PUBCHEM_ISOTOPIC_ATOM_COUNT>
0

> <PUBCHEM_COMPONENT_COUNT>
1

> <PUBCHEM_CACTVS_TAUTO_COUNT>
6

> <PUBCHEM_COORDINATE_TYPE>
1
5
255

> <PUBCHEM_BONDANNOTATIONS>
12  13  8
12  16  8
2  13  8
2  18  8
3  16  8
3  18  8
5  19  5
6  20  6

$$$$
