56681926
  -OEChem-09292322322D

 72 74  0     0  0  0  0  0  0999 V2000
   10.0778    0.6305    0.0000 O   0  0  0  0  0  0  0  0  0  0  0  0
    4.0022    4.1071    0.0000 O   0  0  0  0  0  0  0  0  0  0  0  0
   15.3400    0.6546    0.0000 O   0  0  0  0  0  0  0  0  0  0  0  0
    8.9690    8.7377    0.0000 O   0  0  0  0  0  0  0  0  0  0  0  0
    6.3710    9.2377    0.0000 O   0  0  0  0  0  0  0  0  0  0  0  0
    8.1030   10.2377    0.0000 O   0  0  0  0  0  0  0  0  0  0  0  0
    7.2370    7.7377    0.0000 O   0  0  0  0  0  0  0  0  0  0  0  0
    5.7458    1.1138    0.0000 N   0  0  0  0  0  0  0  0  0  0  0  0
    4.0099    2.1071    0.0000 N   0  0  0  0  0  0  0  0  0  0  0  0
   13.6080    0.6546    0.0000 N   0  0  0  0  0  0  0  0  0  0  0  0
    5.7420    2.1138    0.0000 C   0  0  0  0  0  0  0  0  0  0  0  0
    4.8817    0.6104    0.0000 C   0  0  0  0  0  0  0  0  0  0  0  0
    4.8740    2.6104    0.0000 C   0  0  0  0  0  0  0  0  0  0  0  0
    4.0138    1.1071    0.0000 C   0  0  0  0  0  0  0  0  0  0  0  0
    6.6138    0.6171    0.0000 C   0  0  0  0  0  0  0  0  0  0  0  0
    7.4778    1.1204    0.0000 C   0  0  0  0  0  0  0  0  0  0  0  0
    3.1420    2.6037    0.0000 C   0  0  0  0  0  0  0  0  0  0  0  0
    8.3458    0.6238    0.0000 C   0  0  0  0  0  0  0  0  0  0  0  0
    3.1381    3.6037    0.0000 C   0  0  0  0  0  0  0  0  0  0  0  0
    9.2099    1.1271    0.0000 C   0  0  0  0  0  0  0  0  0  0  0  0
    2.2779    2.1004    0.0000 C   0  0  0  0  0  0  0  0  0  0  0  0
    2.2702    4.1004    0.0000 C   0  0  0  0  0  0  0  0  0  0  0  0
    1.4099    2.5971    0.0000 C   0  0  0  0  0  0  0  0  0  0  0  0
    1.4061    3.5971    0.0000 C   0  0  0  0  0  0  0  0  0  0  0  0
   10.9419    1.1338    0.0000 C   0  0  0  0  0  0  0  0  0  0  0  0
   12.7419    2.1546    0.0000 C   0  0  0  0  0  0  0  0  0  0  0  0
   13.6080    2.6546    0.0000 C   0  0  0  0  0  0  0  0  0  0  0  0
   12.7419    1.1546    0.0000 C   0  0  0  0  0  0  0  0  0  0  0  0
   14.4740    2.1546    0.0000 C   0  0  0  0  0  0  0  0  0  0  0  0
   11.8480    0.6200    0.0000 C   0  0  0  0  0  0  0  0  0  0  0  0
    0.5381    4.0937    0.0000 C   0  0  0  0  0  0  0  0  0  0  0  0
   10.9419    2.1754    0.0000 C   0  0  0  0  0  0  0  0  0  0  0  0
   11.8480    2.6893    0.0000 C   0  0  0  0  0  0  0  0  0  0  0  0
   14.4740    1.1546    0.0000 C   0  0  0  0  0  0  0  0  0  0  0  0
    3.9984    5.1071    0.0000 C   0  0  0  0  0  0  0  0  0  0  0  0
    8.1030    9.2377    0.0000 C   0  0  0  0  0  0  0  0  0  0  0  0
    7.2370    8.7377    0.0000 C   0  0  0  0  0  0  0  0  0  0  0  0
    6.3529    2.0085    0.0000 H   0  0  0  0  0  0  0  0  0  0  0  0
    5.9518    2.6972    0.0000 H   0  0  0  0  0  0  0  0  0  0  0  0
    4.4850    0.1340    0.0000 H   0  0  0  0  0  0  0  0  0  0  0  0
    5.2821    0.1370    0.0000 H   0  0  0  0  0  0  0  0  0  0  0  0
    5.2707    3.0869    0.0000 H   0  0  0  0  0  0  0  0  0  0  0  0
    4.4736    3.0838    0.0000 H   0  0  0  0  0  0  0  0  0  0  0  0
    3.4028    1.2124    0.0000 H   0  0  0  0  0  0  0  0  0  0  0  0
    3.8040    0.5237    0.0000 H   0  0  0  0  0  0  0  0  0  0  0  0
    6.2171    0.1406    0.0000 H   0  0  0  0  0  0  0  0  0  0  0  0
    7.0141    0.1437    0.0000 H   0  0  0  0  0  0  0  0  0  0  0  0
    7.8745    1.5969    0.0000 H   0  0  0  0  0  0  0  0  0  0  0  0
    7.0775    1.5939    0.0000 H   0  0  0  0  0  0  0  0  0  0  0  0
    7.9491    0.1473    0.0000 H   0  0  0  0  0  0  0  0  0  0  0  0
    8.7461    0.1504    0.0000 H   0  0  0  0  0  0  0  0  0  0  0  0
    9.6066    1.6036    0.0000 H   0  0  0  0  0  0  0  0  0  0  0  0
    8.8095    1.6005    0.0000 H   0  0  0  0  0  0  0  0  0  0  0  0
    2.2803    1.4804    0.0000 H   0  0  0  0  0  0  0  0  0  0  0  0
    2.2678    4.7204    0.0000 H   0  0  0  0  0  0  0  0  0  0  0  0
    0.8742    2.2850    0.0000 H   0  0  0  0  0  0  0  0  0  0  0  0
   14.0065    3.1296    0.0000 H   0  0  0  0  0  0  0  0  0  0  0  0
   13.2094    3.1296    0.0000 H   0  0  0  0  0  0  0  0  0  0  0  0
   15.0846    2.0470    0.0000 H   0  0  0  0  0  0  0  0  0  0  0  0
   14.6860    2.7372    0.0000 H   0  0  0  0  0  0  0  0  0  0  0  0
   11.8552    0.0000    0.0000 H   0  0  0  0  0  0  0  0  0  0  0  0
    0.8461    4.6318    0.0000 H   0  0  0  0  0  0  0  0  0  0  0  0
    0.0000    4.4016    0.0000 H   0  0  0  0  0  0  0  0  0  0  0  0
    0.2302    3.5556    0.0000 H   0  0  0  0  0  0  0  0  0  0  0  0
   11.8552    3.3092    0.0000 H   0  0  0  0  0  0  0  0  0  0  0  0
   10.4062    2.4875    0.0000 H   0  0  0  0  0  0  0  0  0  0  0  0
   13.6080    0.0346    0.0000 H   0  0  0  0  0  0  0  0  0  0  0  0
    4.6183    5.1095    0.0000 H   0  0  0  0  0  0  0  0  0  0  0  0
    3.9960    5.7271    0.0000 H   0  0  0  0  0  0  0  0  0  0  0  0
    3.3784    5.1047    0.0000 H   0  0  0  0  0  0  0  0  0  0  0  0
    9.5060    9.0477    0.0000 H   0  0  0  0  0  0  0  0  0  0  0  0
    5.8340    8.9277    0.0000 H   0  0  0  0  0  0  0  0  0  0  0  0
  1 20  1  0  0  0  0
  1 25  1  0  0  0  0
  2 19  1  0  0  0  0
  2 35  1  0  0  0  0
  3 34  2  0  0  0  0
  4 36  1  0  0  0  0
  4 71  1  0  0  0  0
  5 37  1  0  0  0  0
  5 72  1  0  0  0  0
  6 36  2  0  0  0  0
  7 37  2  0  0  0  0
  8 11  1  0  0  0  0
  8 12  1  0  0  0  0
  8 15  1  0  0  0  0
  9 13  1  0  0  0  0
  9 14  1  0  0  0  0
  9 17  1  0  0  0  0
 10 28  1  0  0  0  0
 10 34  1  0  0  0  0
 10 67  1  0  0  0  0
 11 13  1  0  0  0  0
 11 38  1  0  0  0  0
 11 39  1  0  0  0  0
 12 14  1  0  0  0  0
 12 40  1  0  0  0  0
 12 41  1  0  0  0  0
 13 42  1  0  0  0  0
 13 43  1  0  0  0  0
 14 44  1  0  0  0  0
 14 45  1  0  0  0  0
 15 16  1  0  0  0  0
 15 46  1  0  0  0  0
 15 47  1  0  0  0  0
 16 18  1  0  0  0  0
 16 48  1  0  0  0  0
 16 49  1  0  0  0  0
 17 19  2  0  0  0  0
 17 21  1  0  0  0  0
 18 20  1  0  0  0  0
 18 50  1  0  0  0  0
 18 51  1  0  0  0  0
 19 22  1  0  0  0  0
 20 52  1  0  0  0  0
 20 53  1  0  0  0  0
 21 23  2  0  0  0  0
 21 54  1  0  0  0  0
 22 24  2  0  0  0  0
 22 55  1  0  0  0  0
 23 24  1  0  0  0  0
 23 56  1  0  0  0  0
 24 31  1  0  0  0  0
 25 30  2  0  0  0  0
 25 32  1  0  0  0  0
 26 27  1  0  0  0  0
 26 28  2  0  0  0  0
 26 33  1  0  0  0  0
 27 29  1  0  0  0  0
 27 57  1  0  0  0  0
 27 58  1  0  0  0  0
 28 30  1  0  0  0  0
 29 34  1  0  0  0  0
 29 59  1  0  0  0  0
 29 60  1  0  0  0  0
 30 61  1  0  0  0  0
 31 62  1  0  0  0  0
 31 63  1  0  0  0  0
 31 64  1  0  0  0  0
 32 33  2  0  0  0  0
 32 66  1  0  0  0  0
 33 65  1  0  0  0  0
 35 68  1  0  0  0  0
 35 69  1  0  0  0  0
 35 70  1  0  0  0  0
 36 37  1  0  0  0  0
M  END
> <PUBCHEM_COMPOUND_CID>
56681926

> <PUBCHEM_COMPOUND_CANONICALIZED>
1

> <PUBCHEM_CACTVS_COMPLEXITY>
638

> <PUBCHEM_CACTVS_HBOND_ACCEPTOR>
9

> <PUBCHEM_CACTVS_HBOND_DONOR>
3

> <PUBCHEM_CACTVS_ROTATABLE_BOND>
9

> <PUBCHEM_CACTVS_SUBSKEYS>
AAADcfB7OAAAAAAAAAAAAAAAAAAAAAAAAAA8eIEAAAAAAACxQAAAHgAQCAAADAzhmAYyzoPABgCIAiXSWAKCCAAhIgAIiAFPbIgPZjLEsZuXOCjm1BnZ6Ae42bOeKAABAgACEABQAAIEAAQgAAAAAAAAAA==

> <PUBCHEM_IUPAC_OPENEYE_NAME>
7-[4-[4-(2-methoxy-4-methyl-phenyl)piperazin-1-yl]butoxy]-3,4-dihydro-1H-quinolin-2-one;oxalic acid

> <PUBCHEM_IUPAC_CAS_NAME>
7-[4-[4-(2-methoxy-4-methylphenyl)-1-piperazinyl]butoxy]-3,4-dihydro-1H-quinolin-2-one;oxalic acid

> <PUBCHEM_IUPAC_NAME_MARKUP>
7-[4-[4-(2-methoxy-4-methylphenyl)piperazin-1-yl]butoxy]-3,4-dihydro-1<I>H</I>-quinolin-2-one;oxalic acid

> <PUBCHEM_IUPAC_NAME>
7-[4-[4-(2-methoxy-4-methylphenyl)piperazin-1-yl]butoxy]-3,4-dihydro-1H-quinolin-2-one;oxalic acid

> <PUBCHEM_IUPAC_SYSTEMATIC_NAME>
ethanedioic acid;7-[4-[4-(2-methoxy-4-methyl-phenyl)piperazin-1-yl]butoxy]-3,4-dihydro-1H-quinolin-2-one

> <PUBCHEM_IUPAC_TRADITIONAL_NAME>
7-[4-[4-(2-methoxy-4-methyl-phenyl)piperazino]butoxy]-3,4-dihydrocarbostyril;oxalic acid

> <PUBCHEM_IUPAC_INCHI>
InChI=1S/C25H33N3O3.C2H2O4/c1-19-5-9-23(24(17-19)30-2)28-14-12-27(13-15-28)11-3-4-16-31-21-8-6-20-7-10-25(29)26-22(20)18-21;3-1(4)2(5)6/h5-6,8-9,17-18H,3-4,7,10-16H2,1-2H3,(H,26,29);(H,3,4)(H,5,6)

> <PUBCHEM_IUPAC_INCHIKEY>
KQNQOTGDSHLFFV-UHFFFAOYSA-N

> <PUBCHEM_EXACT_MASS>
513.24750046

> <PUBCHEM_MOLECULAR_FORMULA>
C27H35N3O7

> <PUBCHEM_MOLECULAR_WEIGHT>
513.6

> <PUBCHEM_OPENEYE_CAN_SMILES>
CC1=CC(=C(C=C1)N2CCN(CC2)CCCCOC3=CC4=C(CCC(=O)N4)C=C3)OC.C(=O)(C(=O)O)O

> <PUBCHEM_OPENEYE_ISO_SMILES>
CC1=CC(=C(C=C1)N2CCN(CC2)CCCCOC3=CC4=C(CCC(=O)N4)C=C3)OC.C(=O)(C(=O)O)O

> <PUBCHEM_CACTVS_TPSA>
129

> <PUBCHEM_MONOISOTOPIC_WEIGHT>
513.24750046

> <PUBCHEM_TOTAL_CHARGE>
0

> <PUBCHEM_HEAVY_ATOM_COUNT>
37

> <PUBCHEM_ATOM_DEF_STEREO_COUNT>
0

> <PUBCHEM_ATOM_UDEF_STEREO_COUNT>
0

> <PUBCHEM_BOND_DEF_STEREO_COUNT>
0

> <PUBCHEM_BOND_UDEF_STEREO_COUNT>
0

> <PUBCHEM_ISOTOPIC_ATOM_COUNT>
0

> <PUBCHEM_COMPONENT_COUNT>
2

> <PUBCHEM_CACTVS_TAUTO_COUNT>
-1

> <PUBCHEM_COORDINATE_TYPE>
1
5
255

> <PUBCHEM_BONDANNOTATIONS>
17  19  8
17  21  8
19  22  8
21  23  8
22  24  8
23  24  8
25  30  8
25  32  8
26  28  8
26  33  8
28  30  8
32  33  8

$$$$
