11720119
  -OEChem-09292322242D

 74 77  0     0  0  0  0  0  0999 V2000
    9.7844   -5.7942    0.0000 O   0  0  0  0  0  0  0  0  0  0  0  0
    4.5883    1.2058    0.0000 O   0  0  0  0  0  0  0  0  0  0  0  0
    8.0524   -2.7942    0.0000 N   0  0  0  0  0  0  0  0  0  0  0  0
    8.0524   -4.7942    0.0000 N   0  0  0  0  0  0  0  0  0  0  0  0
    6.3203    1.2058    0.0000 N   0  0  0  0  0  0  0  0  0  0  0  0
    4.9543    4.2446    0.0000 N   0  0  0  0  0  0  0  0  0  0  0  0
    6.2633    3.2935    0.0000 N   0  0  0  0  0  0  0  0  0  0  0  0
    5.9543    4.2446    0.0000 N   0  0  0  0  0  0  0  0  0  0  0  0
    8.9184   -3.2942    0.0000 C   0  0  0  0  0  0  0  0  0  0  0  0
    7.1863   -3.2942    0.0000 C   0  0  0  0  0  0  0  0  0  0  0  0
    8.9184   -4.2942    0.0000 C   0  0  0  0  0  0  0  0  0  0  0  0
    7.1863   -4.2942    0.0000 C   0  0  0  0  0  0  0  0  0  0  0  0
    8.0524   -1.7942    0.0000 C   0  0  0  0  0  0  0  0  0  0  0  0
    7.1863   -1.2942    0.0000 C   0  0  0  0  0  0  0  0  0  0  0  0
    8.0524   -5.7942    0.0000 C   0  0  0  0  0  0  0  0  0  0  0  0
    7.1863   -0.2942    0.0000 C   0  0  0  0  0  0  0  0  0  0  0  0
    6.3203    0.2058    0.0000 C   0  0  0  0  0  0  0  0  0  0  0  0
    8.9184   -6.2942    0.0000 C   0  0  0  0  0  0  0  0  0  0  0  0
    7.1863   -6.2942    0.0000 C   0  0  0  0  0  0  0  0  0  0  0  0
    8.9184   -7.2942    0.0000 C   0  0  0  0  0  0  0  0  0  0  0  0
    7.1863   -7.2942    0.0000 C   0  0  0  0  0  0  0  0  0  0  0  0
    8.0524   -7.7942    0.0000 C   0  0  0  0  0  0  0  0  0  0  0  0
    5.4543    1.7058    0.0000 C   0  0  0  0  0  0  0  0  0  0  0  0
    4.6453    3.2935    0.0000 C   0  0  0  0  0  0  0  0  0  0  0  0
    5.4543    2.7058    0.0000 C   0  0  0  0  0  0  0  0  0  0  0  0
    3.6942    2.9845    0.0000 C   0  0  0  0  0  0  0  0  0  0  0  0
    2.9511    3.6536    0.0000 C   0  0  0  0  0  0  0  0  0  0  0  0
    4.3665    5.0536    0.0000 C   0  0  0  0  0  0  0  0  0  0  0  0
   10.6504   -6.2942    0.0000 C   0  0  0  0  0  0  0  0  0  0  0  0
    4.7732    5.9672    0.0000 C   0  0  0  0  0  0  0  0  0  0  0  0
    2.0000    3.3446    0.0000 C   0  0  0  0  0  0  0  0  0  0  0  0
    5.7678    6.0717    0.0000 C   0  0  0  0  0  0  0  0  0  0  0  0
    4.1854    6.7762    0.0000 C   0  0  0  0  0  0  0  0  0  0  0  0
    6.1745    6.9852    0.0000 C   0  0  0  0  0  0  0  0  0  0  0  0
    4.5922    7.6897    0.0000 C   0  0  0  0  0  0  0  0  0  0  0  0
    5.5867    7.7942    0.0000 C   0  0  0  0  0  0  0  0  0  0  0  0
    9.5290   -3.4019    0.0000 H   0  0  0  0  0  0  0  0  0  0  0  0
    9.1304   -2.7116    0.0000 H   0  0  0  0  0  0  0  0  0  0  0  0
    6.9743   -2.7116    0.0000 H   0  0  0  0  0  0  0  0  0  0  0  0
    6.5757   -3.4019    0.0000 H   0  0  0  0  0  0  0  0  0  0  0  0
    9.1304   -4.8769    0.0000 H   0  0  0  0  0  0  0  0  0  0  0  0
    9.5290   -4.1866    0.0000 H   0  0  0  0  0  0  0  0  0  0  0  0
    6.5757   -4.1866    0.0000 H   0  0  0  0  0  0  0  0  0  0  0  0
    6.9743   -4.8769    0.0000 H   0  0  0  0  0  0  0  0  0  0  0  0
    8.6629   -1.9019    0.0000 H   0  0  0  0  0  0  0  0  0  0  0  0
    8.2644   -1.2116    0.0000 H   0  0  0  0  0  0  0  0  0  0  0  0
    6.5757   -1.1866    0.0000 H   0  0  0  0  0  0  0  0  0  0  0  0
    6.9743   -1.8769    0.0000 H   0  0  0  0  0  0  0  0  0  0  0  0
    7.7969   -0.4019    0.0000 H   0  0  0  0  0  0  0  0  0  0  0  0
    7.3984    0.2884    0.0000 H   0  0  0  0  0  0  0  0  0  0  0  0
    5.7097    0.3134    0.0000 H   0  0  0  0  0  0  0  0  0  0  0  0
    6.1082   -0.3769    0.0000 H   0  0  0  0  0  0  0  0  0  0  0  0
    6.6494   -5.9842    0.0000 H   0  0  0  0  0  0  0  0  0  0  0  0
    6.8572    1.5158    0.0000 H   0  0  0  0  0  0  0  0  0  0  0  0
    9.4553   -7.6042    0.0000 H   0  0  0  0  0  0  0  0  0  0  0  0
    6.6494   -7.6042    0.0000 H   0  0  0  0  0  0  0  0  0  0  0  0
    8.0524   -8.4142    0.0000 H   0  0  0  0  0  0  0  0  0  0  0  0
    3.2056    2.6028    0.0000 H   0  0  0  0  0  0  0  0  0  0  0  0
    3.9853    2.4371    0.0000 H   0  0  0  0  0  0  0  0  0  0  0  0
    3.4396    4.0354    0.0000 H   0  0  0  0  0  0  0  0  0  0  0  0
    2.6600    4.2011    0.0000 H   0  0  0  0  0  0  0  0  0  0  0  0
    3.8525    5.4003    0.0000 H   0  0  0  0  0  0  0  0  0  0  0  0
    3.9358    4.6076    0.0000 H   0  0  0  0  0  0  0  0  0  0  0  0
   10.3404   -6.8312    0.0000 H   0  0  0  0  0  0  0  0  0  0  0  0
   11.1874   -6.6042    0.0000 H   0  0  0  0  0  0  0  0  0  0  0  0
   10.9604   -5.7573    0.0000 H   0  0  0  0  0  0  0  0  0  0  0  0
    1.8084    3.9343    0.0000 H   0  0  0  0  0  0  0  0  0  0  0  0
    1.4103    3.1530    0.0000 H   0  0  0  0  0  0  0  0  0  0  0  0
    2.1916    2.7550    0.0000 H   0  0  0  0  0  0  0  0  0  0  0  0
    6.1322    5.5701    0.0000 H   0  0  0  0  0  0  0  0  0  0  0  0
    3.5688    6.7114    0.0000 H   0  0  0  0  0  0  0  0  0  0  0  0
    6.7911    7.0500    0.0000 H   0  0  0  0  0  0  0  0  0  0  0  0
    4.2278    8.1913    0.0000 H   0  0  0  0  0  0  0  0  0  0  0  0
    5.8389    8.3606    0.0000 H   0  0  0  0  0  0  0  0  0  0  0  0
  1 18  1  0  0  0  0
  1 29  1  0  0  0  0
  2 23  2  0  0  0  0
  3  9  1  0  0  0  0
  3 10  1  0  0  0  0
  3 13  1  0  0  0  0
  4 11  1  0  0  0  0
  4 12  1  0  0  0  0
  4 15  1  0  0  0  0
  5 17  1  0  0  0  0
  5 23  1  0  0  0  0
  5 54  1  0  0  0  0
  6  8  1  0  0  0  0
  6 24  1  0  0  0  0
  6 28  1  0  0  0  0
  7  8  2  0  0  0  0
  7 25  1  0  0  0  0
  9 11  1  0  0  0  0
  9 37  1  0  0  0  0
  9 38  1  0  0  0  0
 10 12  1  0  0  0  0
 10 39  1  0  0  0  0
 10 40  1  0  0  0  0
 11 41  1  0  0  0  0
 11 42  1  0  0  0  0
 12 43  1  0  0  0  0
 12 44  1  0  0  0  0
 13 14  1  0  0  0  0
 13 45  1  0  0  0  0
 13 46  1  0  0  0  0
 14 16  1  0  0  0  0
 14 47  1  0  0  0  0
 14 48  1  0  0  0  0
 15 18  1  0  0  0  0
 15 19  2  0  0  0  0
 16 17  1  0  0  0  0
 16 49  1  0  0  0  0
 16 50  1  0  0  0  0
 17 51  1  0  0  0  0
 17 52  1  0  0  0  0
 18 20  2  0  0  0  0
 19 21  1  0  0  0  0
 19 53  1  0  0  0  0
 20 22  1  0  0  0  0
 20 55  1  0  0  0  0
 21 22  2  0  0  0  0
 21 56  1  0  0  0  0
 22 57  1  0  0  0  0
 23 25  1  0  0  0  0
 24 25  2  0  0  0  0
 24 26  1  0  0  0  0
 26 27  1  0  0  0  0
 26 58  1  0  0  0  0
 26 59  1  0  0  0  0
 27 31  1  0  0  0  0
 27 60  1  0  0  0  0
 27 61  1  0  0  0  0
 28 30  1  0  0  0  0
 28 62  1  0  0  0  0
 28 63  1  0  0  0  0
 29 64  1  0  0  0  0
 29 65  1  0  0  0  0
 29 66  1  0  0  0  0
 30 32  2  0  0  0  0
 30 33  1  0  0  0  0
 31 67  1  0  0  0  0
 31 68  1  0  0  0  0
 31 69  1  0  0  0  0
 32 34  1  0  0  0  0
 32 70  1  0  0  0  0
 33 35  2  0  0  0  0
 33 71  1  0  0  0  0
 34 36  2  0  0  0  0
 34 72  1  0  0  0  0
 35 36  1  0  0  0  0
 35 73  1  0  0  0  0
 36 74  1  0  0  0  0
M  END
> <PUBCHEM_COMPOUND_CID>
11720119

> <PUBCHEM_COMPOUND_CANONICALIZED>
1

> <PUBCHEM_CACTVS_COMPLEXITY>
638

> <PUBCHEM_CACTVS_HBOND_ACCEPTOR>
6

> <PUBCHEM_CACTVS_HBOND_DONOR>
1

> <PUBCHEM_CACTVS_ROTATABLE_BOND>
12

> <PUBCHEM_CACTVS_SUBSKEYS>
AAADcfB7sAAAAAAAAAAAAAAAAAAAAWAAAAA8YIAAAAAAAAAB0AAAHgAYAAAADAzBngYyxpPIBACqAyVyVACCDAQnsgAY2IG/fMgOZjrE8ZuVMahk1hHY6UeYyAAOAAAAAAAAEAAAAAAAAAAgAAAAAAAAAA==

> <PUBCHEM_IUPAC_OPENEYE_NAME>
1-benzyl-N-[4-[4-(2-methoxyphenyl)piperazin-1-yl]butyl]-5-propyl-triazole-4-carboxamide

> <PUBCHEM_IUPAC_CAS_NAME>
N-[4-[4-(2-methoxyphenyl)-1-piperazinyl]butyl]-1-(phenylmethyl)-5-propyl-4-triazolecarboxamide

> <PUBCHEM_IUPAC_NAME_MARKUP>
1-benzyl-<I>N</I>-[4-[4-(2-methoxyphenyl)piperazin-1-yl]butyl]-5-propyltriazole-4-carboxamide

> <PUBCHEM_IUPAC_NAME>
1-benzyl-N-[4-[4-(2-methoxyphenyl)piperazin-1-yl]butyl]-5-propyltriazole-4-carboxamide

> <PUBCHEM_IUPAC_SYSTEMATIC_NAME>
N-[4-[4-(2-methoxyphenyl)piperazin-1-yl]butyl]-1-(phenylmethyl)-5-propyl-1,2,3-triazole-4-carboxamide

> <PUBCHEM_IUPAC_TRADITIONAL_NAME>
1-benzyl-N-[4-[4-(2-methoxyphenyl)piperazino]butyl]-5-propyl-triazole-4-carboxamide

> <PUBCHEM_IUPAC_INCHI>
InChI=1S/C28H38N6O2/c1-3-11-25-27(30-31-34(25)22-23-12-5-4-6-13-23)28(35)29-16-9-10-17-32-18-20-33(21-19-32)24-14-7-8-15-26(24)36-2/h4-8,12-15H,3,9-11,16-22H2,1-2H3,(H,29,35)

> <PUBCHEM_IUPAC_INCHIKEY>
UTJCXDMLSWYEJA-UHFFFAOYSA-N

> <PUBCHEM_XLOGP3_AA>
4.4

> <PUBCHEM_EXACT_MASS>
490.30562448

> <PUBCHEM_MOLECULAR_FORMULA>
C28H38N6O2

> <PUBCHEM_MOLECULAR_WEIGHT>
490.6

> <PUBCHEM_OPENEYE_CAN_SMILES>
CCCC1=C(N=NN1CC2=CC=CC=C2)C(=O)NCCCCN3CCN(CC3)C4=CC=CC=C4OC

> <PUBCHEM_OPENEYE_ISO_SMILES>
CCCC1=C(N=NN1CC2=CC=CC=C2)C(=O)NCCCCN3CCN(CC3)C4=CC=CC=C4OC

> <PUBCHEM_CACTVS_TPSA>
75.5

> <PUBCHEM_MONOISOTOPIC_WEIGHT>
490.30562448

> <PUBCHEM_TOTAL_CHARGE>
0

> <PUBCHEM_HEAVY_ATOM_COUNT>
36

> <PUBCHEM_ATOM_DEF_STEREO_COUNT>
0

> <PUBCHEM_ATOM_UDEF_STEREO_COUNT>
0

> <PUBCHEM_BOND_DEF_STEREO_COUNT>
0

> <PUBCHEM_BOND_UDEF_STEREO_COUNT>
0

> <PUBCHEM_ISOTOPIC_ATOM_COUNT>
0

> <PUBCHEM_COMPONENT_COUNT>
1

> <PUBCHEM_CACTVS_TAUTO_COUNT>
-1

> <PUBCHEM_COORDINATE_TYPE>
1
5
255

> <PUBCHEM_BONDANNOTATIONS>
15  18  8
15  19  8
18  20  8
19  21  8
20  22  8
21  22  8
24  25  8
30  32  8
30  33  8
32  34  8
33  35  8
34  36  8
35  36  8
6  24  8
6  8  8
7  25  8
7  8  8

$$$$
