49781447
  -OEChem-09292322312D

 53 57  0     1  0  0  0  0  0999 V2000
    7.7536   -2.7541    0.0000 S   0  0  0  0  0  0  0  0  0  0  0  0
    6.8198    0.3375    0.0000 N   0  0  0  0  0  0  0  0  0  0  0  0
    5.9520    2.1394    0.0000 N   0  0  0  0  0  0  0  0  0  0  0  0
    3.5967   -0.4795    0.0000 N   0  0  0  0  0  0  0  0  0  0  0  0
    3.1138   -2.0238    0.0000 N   0  0  0  0  0  0  0  0  0  0  0  0
    2.5967   -0.4906    0.0000 N   0  0  0  0  0  0  0  0  0  0  0  0
    7.2536   -0.5635    0.0000 C   0  0  3  0  0  0  0  0  0  0  0  0
    5.8226    0.4122    0.0000 C   0  0  0  0  0  0  0  0  0  0  0  0
    7.3831    1.1637    0.0000 C   0  0  0  0  0  0  0  0  0  0  0  0
    5.3887    1.3132    0.0000 C   0  0  0  0  0  0  0  0  0  0  0  0
    6.9492    2.0647    0.0000 C   0  0  0  0  0  0  0  0  0  0  0  0
    8.2536   -0.5635    0.0000 C   0  0  0  0  0  0  0  0  0  0  0  0
    6.6302   -1.3453    0.0000 C   0  0  0  0  0  0  0  0  0  0  0  0
    8.8771   -1.3453    0.0000 C   0  0  0  0  0  0  0  0  0  0  0  0
    6.8527   -2.3202    0.0000 C   0  0  0  0  0  0  0  0  0  0  0  0
    5.6397   -1.0230    0.0000 C   0  0  0  0  0  0  0  0  0  0  0  0
    5.5182    3.0404    0.0000 C   0  0  0  0  0  0  0  0  0  0  0  0
    8.6546   -2.3202    0.0000 C   0  0  0  0  0  0  0  0  0  0  0  0
    4.8707   -1.7255    0.0000 C   0  0  0  0  0  0  0  0  0  0  0  0
    6.1001   -3.0404    0.0000 C   0  0  0  0  0  0  0  0  0  0  0  0
    9.8676   -1.0230    0.0000 C   0  0  0  0  0  0  0  0  0  0  0  0
    5.1024   -2.7410    0.0000 C   0  0  0  0  0  0  0  0  0  0  0  0
    9.4072   -3.0404    0.0000 C   0  0  0  0  0  0  0  0  0  0  0  0
   10.6366   -1.7256    0.0000 C   0  0  0  0  0  0  0  0  0  0  0  0
   10.4049   -2.7411    0.0000 C   0  0  0  0  0  0  0  0  0  0  0  0
    3.9162   -1.4271    0.0000 C   0  0  0  0  0  0  0  0  0  0  0  0
    2.2983   -1.4450    0.0000 C   0  0  0  0  0  0  0  0  0  0  0  0
    2.0000    0.3118    0.0000 C   0  0  0  0  0  0  0  0  0  0  0  0
    7.5835   -0.0385    0.0000 H   0  0  0  0  0  0  0  0  0  0  0  0
    5.2258    0.2443    0.0000 H   0  0  0  0  0  0  0  0  0  0  0  0
    5.8843   -0.2047    0.0000 H   0  0  0  0  0  0  0  0  0  0  0  0
    7.8269    0.7308    0.0000 H   0  0  0  0  0  0  0  0  0  0  0  0
    7.8865    1.5257    0.0000 H   0  0  0  0  0  0  0  0  0  0  0  0
    4.9449    1.7461    0.0000 H   0  0  0  0  0  0  0  0  0  0  0  0
    4.8853    0.9513    0.0000 H   0  0  0  0  0  0  0  0  0  0  0  0
    7.5461    2.2326    0.0000 H   0  0  0  0  0  0  0  0  0  0  0  0
    6.8875    2.6816    0.0000 H   0  0  0  0  0  0  0  0  0  0  0  0
    8.8123   -0.2945    0.0000 H   0  0  0  0  0  0  0  0  0  0  0  0
    8.1157    0.0410    0.0000 H   0  0  0  0  0  0  0  0  0  0  0  0
    5.5087   -0.4169    0.0000 H   0  0  0  0  0  0  0  0  0  0  0  0
    6.0768    3.3094    0.0000 H   0  0  0  0  0  0  0  0  0  0  0  0
    5.2491    3.5990    0.0000 H   0  0  0  0  0  0  0  0  0  0  0  0
    4.9595    2.7714    0.0000 H   0  0  0  0  0  0  0  0  0  0  0  0
    6.2450   -3.6432    0.0000 H   0  0  0  0  0  0  0  0  0  0  0  0
    9.9986   -0.4170    0.0000 H   0  0  0  0  0  0  0  0  0  0  0  0
    4.6496   -3.1645    0.0000 H   0  0  0  0  0  0  0  0  0  0  0  0
    9.2622   -3.6432    0.0000 H   0  0  0  0  0  0  0  0  0  0  0  0
   11.2284   -1.5405    0.0000 H   0  0  0  0  0  0  0  0  0  0  0  0
   10.8577   -3.1645    0.0000 H   0  0  0  0  0  0  0  0  0  0  0  0
    1.7108   -1.6432    0.0000 H   0  0  0  0  0  0  0  0  0  0  0  0
    2.4975    0.6818    0.0000 H   0  0  0  0  0  0  0  0  0  0  0  0
    1.6300    0.8093    0.0000 H   0  0  0  0  0  0  0  0  0  0  0  0
    1.5025   -0.0581    0.0000 H   0  0  0  0  0  0  0  0  0  0  0  0
  1 15  1  0  0  0  0
  1 18  1  0  0  0  0
  2  7  1  0  0  0  0
  2  8  1  0  0  0  0
  2  9  1  0  0  0  0
  3 10  1  0  0  0  0
  3 11  1  0  0  0  0
  3 17  1  0  0  0  0
  4  6  1  0  0  0  0
  4 26  2  0  0  0  0
  5 26  1  0  0  0  0
  5 27  2  0  0  0  0
  6 27  1  0  0  0  0
  6 28  1  0  0  0  0
  7 12  1  0  0  0  0
  7 13  1  0  0  0  0
  7 29  1  0  0  0  0
  8 10  1  0  0  0  0
  8 30  1  0  0  0  0
  8 31  1  0  0  0  0
  9 11  1  0  0  0  0
  9 32  1  0  0  0  0
  9 33  1  0  0  0  0
 10 34  1  0  0  0  0
 10 35  1  0  0  0  0
 11 36  1  0  0  0  0
 11 37  1  0  0  0  0
 12 14  1  0  0  0  0
 12 38  1  0  0  0  0
 12 39  1  0  0  0  0
 13 15  2  0  0  0  0
 13 16  1  0  0  0  0
 14 18  1  0  0  0  0
 14 21  2  0  0  0  0
 15 20  1  0  0  0  0
 16 19  2  0  0  0  0
 16 40  1  0  0  0  0
 17 41  1  0  0  0  0
 17 42  1  0  0  0  0
 17 43  1  0  0  0  0
 18 23  2  0  0  0  0
 19 22  1  0  0  0  0
 19 26  1  0  0  0  0
 20 22  2  0  0  0  0
 20 44  1  0  0  0  0
 21 24  1  0  0  0  0
 21 45  1  0  0  0  0
 22 46  1  0  0  0  0
 23 25  1  0  0  0  0
 23 47  1  0  0  0  0
 24 25  2  0  0  0  0
 24 48  1  0  0  0  0
 25 49  1  0  0  0  0
 27 50  1  0  0  0  0
 28 51  1  0  0  0  0
 28 52  1  0  0  0  0
 28 53  1  0  0  0  0
M  END
> <PUBCHEM_COMPOUND_CID>
49781447

> <PUBCHEM_COMPOUND_CANONICALIZED>
1

> <PUBCHEM_CACTVS_COMPLEXITY>
525

> <PUBCHEM_CACTVS_HBOND_ACCEPTOR>
5

> <PUBCHEM_CACTVS_HBOND_DONOR>
0

> <PUBCHEM_CACTVS_ROTATABLE_BOND>
2

> <PUBCHEM_CACTVS_SUBSKEYS>
AAADceB7gABAAAAAAAAAAAAAAAAAAWAAAAA8YIAABIAAAAAB0AAAHAQIAAAADCjBWwQ3EYcIEAiiAiJjJACSgAswiLAdyDgoBJiIaKKgmRGUIAhoiAKoiAcQgMAOEAACAAAEAAAgAAQAAAgAAAAAAAAAAA==

> <PUBCHEM_IUPAC_OPENEYE_NAME>
1-methyl-4-[3-(1-methyl-1,2,4-triazol-3-yl)-5,6-dihydrobenzo[b][1]benzothiepin-5-yl]piperazine

> <PUBCHEM_IUPAC_CAS_NAME>
1-methyl-4-[3-(1-methyl-1,2,4-triazol-3-yl)-5,6-dihydrobenzo[b][1]benzothiepin-5-yl]piperazine

> <PUBCHEM_IUPAC_NAME_MARKUP>
1-methyl-4-[3-(1-methyl-1,2,4-triazol-3-yl)-5,6-dihydrobenzo[b][1]benzothiepin-5-yl]piperazine

> <PUBCHEM_IUPAC_NAME>
1-methyl-4-[3-(1-methyl-1,2,4-triazol-3-yl)-5,6-dihydrobenzo[b][1]benzothiepin-5-yl]piperazine

> <PUBCHEM_IUPAC_SYSTEMATIC_NAME>
1-methyl-4-[3-(1-methyl-1,2,4-triazol-3-yl)-5,6-dihydrobenzo[b][1]benzothiepin-5-yl]piperazine

> <PUBCHEM_IUPAC_TRADITIONAL_NAME>
1-methyl-4-[3-(1-methyl-1,2,4-triazol-3-yl)-5,6-dihydrobenzo[b][1]benzothiepin-5-yl]piperazine

> <PUBCHEM_IUPAC_INCHI>
InChI=1S/C22H25N5S/c1-25-9-11-27(12-10-25)19-14-16-5-3-4-6-20(16)28-21-8-7-17(13-18(19)21)22-23-15-26(2)24-22/h3-8,13,15,19H,9-12,14H2,1-2H3

> <PUBCHEM_IUPAC_INCHIKEY>
VKHDCWQCGOAHKV-UHFFFAOYSA-N

> <PUBCHEM_XLOGP3_AA>
3.5

> <PUBCHEM_EXACT_MASS>
391.18306699

> <PUBCHEM_MOLECULAR_FORMULA>
C22H25N5S

> <PUBCHEM_MOLECULAR_WEIGHT>
391.5

> <PUBCHEM_OPENEYE_CAN_SMILES>
CN1CCN(CC1)C2CC3=CC=CC=C3SC4=C2C=C(C=C4)C5=NN(C=N5)C

> <PUBCHEM_OPENEYE_ISO_SMILES>
CN1CCN(CC1)C2CC3=CC=CC=C3SC4=C2C=C(C=C4)C5=NN(C=N5)C

> <PUBCHEM_CACTVS_TPSA>
62.5

> <PUBCHEM_MONOISOTOPIC_WEIGHT>
391.18306699

> <PUBCHEM_TOTAL_CHARGE>
0

> <PUBCHEM_HEAVY_ATOM_COUNT>
28

> <PUBCHEM_ATOM_DEF_STEREO_COUNT>
0

> <PUBCHEM_ATOM_UDEF_STEREO_COUNT>
1

> <PUBCHEM_BOND_DEF_STEREO_COUNT>
0

> <PUBCHEM_BOND_UDEF_STEREO_COUNT>
0

> <PUBCHEM_ISOTOPIC_ATOM_COUNT>
0

> <PUBCHEM_COMPONENT_COUNT>
1

> <PUBCHEM_CACTVS_TAUTO_COUNT>
-1

> <PUBCHEM_COORDINATE_TYPE>
1
5
255

> <PUBCHEM_BONDANNOTATIONS>
13  15  8
13  16  8
14  18  8
14  21  8
15  20  8
16  19  8
18  23  8
19  22  8
7  2  3
20  22  8
21  24  8
23  25  8
24  25  8
4  26  8
4  6  8
5  26  8
5  27  8
6  27  8

$$$$
