122183775
  -OEChem-09292322362D

 62 65  0     1  0  0  0  0  0999 V2000
    9.8622   -0.0173    0.0000 O   0  0  0  0  0  0  0  0  0  0  0  0
   13.3263   -2.0173    0.0000 O   0  0  0  0  0  0  0  0  0  0  0  0
    6.3981   -0.0173    0.0000 O   0  0  0  0  0  0  0  0  0  0  0  0
   11.5942    0.9827    0.0000 N   0  0  0  0  0  0  0  0  0  0  0  0
   13.3263   -0.0173    0.0000 N   0  0  0  0  0  0  0  0  0  0  0  0
    7.2641    1.4827    0.0000 N   0  0  0  0  0  0  0  0  0  0  0  0
    4.6660    0.9827    0.0000 N   0  0  0  0  0  0  0  0  0  0  0  0
   11.5942   -0.0173    0.0000 C   0  0  0  0  0  0  0  0  0  0  0  0
   12.4603    1.4827    0.0000 C   0  0  0  0  0  0  0  0  0  0  0  0
   12.4603   -0.5173    0.0000 C   0  0  0  0  0  0  0  0  0  0  0  0
   13.3263    0.9827    0.0000 C   0  0  0  0  0  0  0  0  0  0  0  0
   10.7282    1.4827    0.0000 C   0  0  0  0  0  0  0  0  0  0  0  0
    9.8622    0.9827    0.0000 C   0  0  3  0  0  0  0  0  0  0  0  0
    8.9962    1.4827    0.0000 C   0  0  0  0  0  0  0  0  0  0  0  0
   14.1923   -0.5173    0.0000 C   0  0  0  0  0  0  0  0  0  0  0  0
    8.1301    0.9827    0.0000 C   0  0  0  0  0  0  0  0  0  0  0  0
   14.1923   -1.5173    0.0000 C   0  0  0  0  0  0  0  0  0  0  0  0
   15.0583   -0.0173    0.0000 C   0  0  0  0  0  0  0  0  0  0  0  0
   15.0583   -2.0173    0.0000 C   0  0  0  0  0  0  0  0  0  0  0  0
   15.9244   -0.5173    0.0000 C   0  0  0  0  0  0  0  0  0  0  0  0
   15.9244   -1.5173    0.0000 C   0  0  0  0  0  0  0  0  0  0  0  0
    6.3981    0.9827    0.0000 C   0  0  0  0  0  0  0  0  0  0  0  0
   13.3263   -3.0173    0.0000 C   0  0  0  0  0  0  0  0  0  0  0  0
    5.5321    1.4827    0.0000 C   0  0  0  0  0  0  0  0  0  0  0  0
    5.5321    2.4827    0.0000 C   0  0  0  0  0  0  0  0  0  0  0  0
    3.8000    1.4827    0.0000 C   0  0  0  0  0  0  0  0  0  0  0  0
    3.8000    2.4827    0.0000 C   0  0  0  0  0  0  0  0  0  0  0  0
    4.6660    2.9827    0.0000 C   0  0  0  0  0  0  0  0  0  0  0  0
    2.9061    0.9480    0.0000 C   0  0  0  0  0  0  0  0  0  0  0  0
    2.9061    3.0173    0.0000 C   0  0  0  0  0  0  0  0  0  0  0  0
    2.0000    1.4619    0.0000 C   0  0  0  0  0  0  0  0  0  0  0  0
    2.0000    2.5035    0.0000 C   0  0  0  0  0  0  0  0  0  0  0  0
   10.9837    0.0903    0.0000 H   0  0  0  0  0  0  0  0  0  0  0  0
   11.3822   -0.5999    0.0000 H   0  0  0  0  0  0  0  0  0  0  0  0
   12.8588    1.9576    0.0000 H   0  0  0  0  0  0  0  0  0  0  0  0
   12.0617    1.9576    0.0000 H   0  0  0  0  0  0  0  0  0  0  0  0
   12.0617   -0.9923    0.0000 H   0  0  0  0  0  0  0  0  0  0  0  0
   12.8588   -0.9923    0.0000 H   0  0  0  0  0  0  0  0  0  0  0  0
   13.9369    0.8750    0.0000 H   0  0  0  0  0  0  0  0  0  0  0  0
   13.5383    1.5653    0.0000 H   0  0  0  0  0  0  0  0  0  0  0  0
   11.1267    1.9576    0.0000 H   0  0  0  0  0  0  0  0  0  0  0  0
   10.3297    1.9576    0.0000 H   0  0  0  0  0  0  0  0  0  0  0  0
    9.3252    0.6727    0.0000 H   0  0  0  0  0  0  0  0  0  0  0  0
    9.3947    1.9576    0.0000 H   0  0  0  0  0  0  0  0  0  0  0  0
    8.5976    1.9576    0.0000 H   0  0  0  0  0  0  0  0  0  0  0  0
    7.7316    0.5077    0.0000 H   0  0  0  0  0  0  0  0  0  0  0  0
    8.5287    0.5077    0.0000 H   0  0  0  0  0  0  0  0  0  0  0  0
   15.0583    0.6027    0.0000 H   0  0  0  0  0  0  0  0  0  0  0  0
    9.3252   -0.3273    0.0000 H   0  0  0  0  0  0  0  0  0  0  0  0
    7.2641    2.1027    0.0000 H   0  0  0  0  0  0  0  0  0  0  0  0
   15.0583   -2.6373    0.0000 H   0  0  0  0  0  0  0  0  0  0  0  0
   16.4613   -0.2073    0.0000 H   0  0  0  0  0  0  0  0  0  0  0  0
   16.4613   -1.8273    0.0000 H   0  0  0  0  0  0  0  0  0  0  0  0
   12.7063   -3.0173    0.0000 H   0  0  0  0  0  0  0  0  0  0  0  0
   13.3263   -3.6373    0.0000 H   0  0  0  0  0  0  0  0  0  0  0  0
   13.9463   -3.0173    0.0000 H   0  0  0  0  0  0  0  0  0  0  0  0
    6.0690    2.7927    0.0000 H   0  0  0  0  0  0  0  0  0  0  0  0
    4.6660    3.6027    0.0000 H   0  0  0  0  0  0  0  0  0  0  0  0
    2.9132    0.3280    0.0000 H   0  0  0  0  0  0  0  0  0  0  0  0
    2.9132    3.6373    0.0000 H   0  0  0  0  0  0  0  0  0  0  0  0
    1.4643    1.1498    0.0000 H   0  0  0  0  0  0  0  0  0  0  0  0
    1.4643    2.8156    0.0000 H   0  0  0  0  0  0  0  0  0  0  0  0
  1 13  1  0  0  0  0
  1 49  1  0  0  0  0
  2 17  1  0  0  0  0
  2 23  1  0  0  0  0
  3 22  2  0  0  0  0
  4  8  1  0  0  0  0
  4  9  1  0  0  0  0
  4 12  1  0  0  0  0
  5 10  1  0  0  0  0
  5 11  1  0  0  0  0
  5 15  1  0  0  0  0
  6 16  1  0  0  0  0
  6 22  1  0  0  0  0
  6 50  1  0  0  0  0
  7 24  2  0  0  0  0
  7 26  1  0  0  0  0
  8 10  1  0  0  0  0
  8 33  1  0  0  0  0
  8 34  1  0  0  0  0
  9 11  1  0  0  0  0
  9 35  1  0  0  0  0
  9 36  1  0  0  0  0
 10 37  1  0  0  0  0
 10 38  1  0  0  0  0
 11 39  1  0  0  0  0
 11 40  1  0  0  0  0
 12 13  1  0  0  0  0
 12 41  1  0  0  0  0
 12 42  1  0  0  0  0
 13 14  1  0  0  0  0
 13 43  1  0  0  0  0
 14 16  1  0  0  0  0
 14 44  1  0  0  0  0
 14 45  1  0  0  0  0
 15 17  1  0  0  0  0
 15 18  2  0  0  0  0
 16 46  1  0  0  0  0
 16 47  1  0  0  0  0
 17 19  2  0  0  0  0
 18 20  1  0  0  0  0
 18 48  1  0  0  0  0
 19 21  1  0  0  0  0
 19 51  1  0  0  0  0
 20 21  2  0  0  0  0
 20 52  1  0  0  0  0
 21 53  1  0  0  0  0
 22 24  1  0  0  0  0
 23 54  1  0  0  0  0
 23 55  1  0  0  0  0
 23 56  1  0  0  0  0
 24 25  1  0  0  0  0
 25 28  2  0  0  0  0
 25 57  1  0  0  0  0
 26 27  1  0  0  0  0
 26 29  2  0  0  0  0
 27 28  1  0  0  0  0
 27 30  2  0  0  0  0
 28 58  1  0  0  0  0
 29 31  1  0  0  0  0
 29 59  1  0  0  0  0
 30 32  1  0  0  0  0
 30 60  1  0  0  0  0
 31 32  2  0  0  0  0
 31 61  1  0  0  0  0
 32 62  1  0  0  0  0
M  END
> <PUBCHEM_COMPOUND_CID>
122183775

> <PUBCHEM_COMPOUND_CANONICALIZED>
1

> <PUBCHEM_CACTVS_COMPLEXITY>
584

> <PUBCHEM_CACTVS_HBOND_ACCEPTOR>
6

> <PUBCHEM_CACTVS_HBOND_DONOR>
2

> <PUBCHEM_CACTVS_ROTATABLE_BOND>
8

> <PUBCHEM_CACTVS_SUBSKEYS>
AAADceB7sAAAAAAAAAAAAAAAAAAAAAAAAAA8eIEAAAAAAACx9AAAHgAQCAAADBzhngYyxvPIFgCoAyVyVACCiCAnIiAImKG/bNgOdvLEtbuVcShm1hHY6YeYyICOAAAAAAACEAAAAAAAAAQgAAAAAAAAAA==

> <PUBCHEM_IUPAC_OPENEYE_NAME>
N-[3-hydroxy-4-[4-(2-methoxyphenyl)piperazin-1-yl]butyl]quinoline-2-carboxamide

> <PUBCHEM_IUPAC_CAS_NAME>
N-[3-hydroxy-4-[4-(2-methoxyphenyl)-1-piperazinyl]butyl]-2-quinolinecarboxamide

> <PUBCHEM_IUPAC_NAME_MARKUP>
<I>N</I>-[3-hydroxy-4-[4-(2-methoxyphenyl)piperazin-1-yl]butyl]quinoline-2-carboxamide

> <PUBCHEM_IUPAC_NAME>
N-[3-hydroxy-4-[4-(2-methoxyphenyl)piperazin-1-yl]butyl]quinoline-2-carboxamide

> <PUBCHEM_IUPAC_SYSTEMATIC_NAME>
N-[4-[4-(2-methoxyphenyl)piperazin-1-yl]-3-oxidanyl-butyl]quinoline-2-carboxamide

> <PUBCHEM_IUPAC_TRADITIONAL_NAME>
N-[3-hydroxy-4-[4-(2-methoxyphenyl)piperazino]butyl]quinaldamide

> <PUBCHEM_IUPAC_INCHI>
InChI=1S/C25H30N4O3/c1-32-24-9-5-4-8-23(24)29-16-14-28(15-17-29)18-20(30)12-13-26-25(31)22-11-10-19-6-2-3-7-21(19)27-22/h2-11,20,30H,12-18H2,1H3,(H,26,31)

> <PUBCHEM_IUPAC_INCHIKEY>
PPRPQASEYHUGIG-UHFFFAOYSA-N

> <PUBCHEM_XLOGP3_AA>
3.1

> <PUBCHEM_EXACT_MASS>
434.23179083

> <PUBCHEM_MOLECULAR_FORMULA>
C25H30N4O3

> <PUBCHEM_MOLECULAR_WEIGHT>
434.5

> <PUBCHEM_OPENEYE_CAN_SMILES>
COC1=CC=CC=C1N2CCN(CC2)CC(CCNC(=O)C3=NC4=CC=CC=C4C=C3)O

> <PUBCHEM_OPENEYE_ISO_SMILES>
COC1=CC=CC=C1N2CCN(CC2)CC(CCNC(=O)C3=NC4=CC=CC=C4C=C3)O

> <PUBCHEM_CACTVS_TPSA>
77.9

> <PUBCHEM_MONOISOTOPIC_WEIGHT>
434.23179083

> <PUBCHEM_TOTAL_CHARGE>
0

> <PUBCHEM_HEAVY_ATOM_COUNT>
32

> <PUBCHEM_ATOM_DEF_STEREO_COUNT>
0

> <PUBCHEM_ATOM_UDEF_STEREO_COUNT>
1

> <PUBCHEM_BOND_DEF_STEREO_COUNT>
0

> <PUBCHEM_BOND_UDEF_STEREO_COUNT>
0

> <PUBCHEM_ISOTOPIC_ATOM_COUNT>
0

> <PUBCHEM_COMPONENT_COUNT>
1

> <PUBCHEM_CACTVS_TAUTO_COUNT>
-1

> <PUBCHEM_COORDINATE_TYPE>
1
5
255

> <PUBCHEM_BONDANNOTATIONS>
13  1  3
15  17  8
15  18  8
17  19  8
18  20  8
19  21  8
20  21  8
24  25  8
25  28  8
26  27  8
26  29  8
27  28  8
27  30  8
29  31  8
30  32  8
31  32  8
7  24  8
7  26  8

$$$$
