44334603
  -OEChem-09292322142D

 60 65  0     1  0  0  0  0  0999 V2000
    6.8798   -1.4990    0.0000 O   0  0  0  0  0  0  0  0  0  0  0  0
    8.6719   -2.5337    0.0000 O   0  0  0  0  0  0  0  0  0  0  0  0
   12.3497    0.6627    0.0000 O   0  0  0  0  0  0  0  0  0  0  0  0
    3.0000   -2.6745    0.0000 O   0  0  0  0  0  0  0  0  0  0  0  0
    3.0000   -4.4066    0.0000 O   0  0  0  0  0  0  0  0  0  0  0  0
    8.6381    0.5321    0.0000 N   0  0  0  0  0  0  0  0  0  0  0  0
   11.2303    2.0421    0.0000 N   0  0  0  0  0  0  0  0  0  0  0  0
   12.8039    2.3800    0.0000 N   0  0  0  0  0  0  0  0  0  0  0  0
    5.0836   -4.3453    0.0000 N   0  0  0  0  0  0  0  0  0  0  0  0
   10.3663    1.5387    0.0000 C   0  0  0  0  0  0  0  0  0  0  0  0
   10.3701    0.5387    0.0000 C   0  0  0  0  0  0  0  0  0  0  0  0
    9.4983    2.0354    0.0000 C   0  0  0  0  0  0  0  0  0  0  0  0
    9.5060    0.0354    0.0000 C   0  0  0  0  0  0  0  0  0  0  0  0
    8.6342    1.5320    0.0000 C   0  0  0  0  0  0  0  0  0  0  0  0
    7.7740    0.0287    0.0000 C   0  0  0  0  0  0  0  0  0  0  0  0
    7.7778   -0.9713    0.0000 C   0  0  3  0  0  0  0  0  0  0  0  0
   11.3296    3.0312    0.0000 C   0  0  0  0  0  0  0  0  0  0  0  0
   12.1397    1.6404    0.0000 C   0  0  0  0  0  0  0  0  0  0  0  0
    8.6799   -1.4921    0.0000 C   0  0  0  0  0  0  0  0  0  0  0  0
   12.3073    3.2412    0.0000 C   0  0  0  0  0  0  0  0  0  0  0  0
    6.8958   -2.5405    0.0000 C   0  0  0  0  0  0  0  0  0  0  0  0
   10.6589    3.7729    0.0000 C   0  0  0  0  0  0  0  0  0  0  0  0
    7.7619   -3.0405    0.0000 C   0  0  0  0  0  0  0  0  0  0  0  0
   12.6143    4.1929    0.0000 C   0  0  0  0  0  0  0  0  0  0  0  0
    6.0298   -3.0405    0.0000 C   0  0  0  0  0  0  0  0  0  0  0  0
   10.9659    4.7246    0.0000 C   0  0  0  0  0  0  0  0  0  0  0  0
    6.0298   -4.0405    0.0000 C   0  0  0  0  0  0  0  0  0  0  0  0
   11.9436    4.9346    0.0000 C   0  0  0  0  0  0  0  0  0  0  0  0
    7.7619   -4.0405    0.0000 C   0  0  0  0  0  0  0  0  0  0  0  0
    5.0836   -2.7358    0.0000 C   0  0  0  0  0  0  0  0  0  0  0  0
    6.8958   -4.5405    0.0000 C   0  0  0  0  0  0  0  0  0  0  0  0
    4.5000   -3.5405    0.0000 C   0  0  0  0  0  0  0  0  0  0  0  0
    3.5000   -3.5405    0.0000 C   0  0  0  0  0  0  0  0  0  0  0  0
    2.0000   -2.6745    0.0000 C   0  0  0  0  0  0  0  0  0  0  0  0
   10.9044    1.2308    0.0000 H   0  0  0  0  0  0  0  0  0  0  0  0
   10.5844   -0.0431    0.0000 H   0  0  0  0  0  0  0  0  0  0  0  0
   10.9803    0.6487    0.0000 H   0  0  0  0  0  0  0  0  0  0  0  0
    9.8950    2.5119    0.0000 H   0  0  0  0  0  0  0  0  0  0  0  0
    9.0980    2.5088    0.0000 H   0  0  0  0  0  0  0  0  0  0  0  0
    9.1093   -0.4411    0.0000 H   0  0  0  0  0  0  0  0  0  0  0  0
    9.9064   -0.4380    0.0000 H   0  0  0  0  0  0  0  0  0  0  0  0
    8.4199    2.1138    0.0000 H   0  0  0  0  0  0  0  0  0  0  0  0
    8.0241    1.4220    0.0000 H   0  0  0  0  0  0  0  0  0  0  0  0
    7.5597    0.6105    0.0000 H   0  0  0  0  0  0  0  0  0  0  0  0
    7.1638   -0.0813    0.0000 H   0  0  0  0  0  0  0  0  0  0  0  0
    7.2391   -0.6644    0.0000 H   0  0  0  0  0  0  0  0  0  0  0  0
    9.2899   -1.6029    0.0000 H   0  0  0  0  0  0  0  0  0  0  0  0
    8.8935   -0.9100    0.0000 H   0  0  0  0  0  0  0  0  0  0  0  0
   13.4206    2.3155    0.0000 H   0  0  0  0  0  0  0  0  0  0  0  0
   10.0527    3.6427    0.0000 H   0  0  0  0  0  0  0  0  0  0  0  0
   13.2205    4.3231    0.0000 H   0  0  0  0  0  0  0  0  0  0  0  0
   10.5500    5.1845    0.0000 H   0  0  0  0  0  0  0  0  0  0  0  0
   12.1339    5.5246    0.0000 H   0  0  0  0  0  0  0  0  0  0  0  0
    8.2988   -4.3505    0.0000 H   0  0  0  0  0  0  0  0  0  0  0  0
    4.8910   -2.1465    0.0000 H   0  0  0  0  0  0  0  0  0  0  0  0
    6.8958   -5.1605    0.0000 H   0  0  0  0  0  0  0  0  0  0  0  0
    4.8910   -4.9346    0.0000 H   0  0  0  0  0  0  0  0  0  0  0  0
    2.0000   -2.0545    0.0000 H   0  0  0  0  0  0  0  0  0  0  0  0
    1.3800   -2.6745    0.0000 H   0  0  0  0  0  0  0  0  0  0  0  0
    2.0000   -3.2945    0.0000 H   0  0  0  0  0  0  0  0  0  0  0  0
  1 16  1  0  0  0  0
  1 21  1  0  0  0  0
  2 19  1  0  0  0  0
  2 23  1  0  0  0  0
  3 18  2  0  0  0  0
  4 33  1  0  0  0  0
  4 34  1  0  0  0  0
  5 33  2  0  0  0  0
  6 13  1  0  0  0  0
  6 14  1  0  0  0  0
  6 15  1  0  0  0  0
  7 10  1  0  0  0  0
  7 17  1  0  0  0  0
  7 18  1  0  0  0  0
  8 18  1  0  0  0  0
  8 20  1  0  0  0  0
  8 49  1  0  0  0  0
  9 27  1  0  0  0  0
  9 32  1  0  0  0  0
  9 57  1  0  0  0  0
 10 11  1  0  0  0  0
 10 12  1  0  0  0  0
 10 35  1  0  0  0  0
 11 13  1  0  0  0  0
 11 36  1  0  0  0  0
 11 37  1  0  0  0  0
 12 14  1  0  0  0  0
 12 38  1  0  0  0  0
 12 39  1  0  0  0  0
 13 40  1  0  0  0  0
 13 41  1  0  0  0  0
 14 42  1  0  0  0  0
 14 43  1  0  0  0  0
 15 16  1  0  0  0  0
 15 44  1  0  0  0  0
 15 45  1  0  0  0  0
 16 19  1  0  0  0  0
 16 46  1  0  0  0  0
 17 20  1  0  0  0  0
 17 22  2  0  0  0  0
 19 47  1  0  0  0  0
 19 48  1  0  0  0  0
 20 24  2  0  0  0  0
 21 23  2  0  0  0  0
 21 25  1  0  0  0  0
 22 26  1  0  0  0  0
 22 50  1  0  0  0  0
 23 29  1  0  0  0  0
 24 28  1  0  0  0  0
 24 51  1  0  0  0  0
 25 27  2  0  0  0  0
 25 30  1  0  0  0  0
 26 28  2  0  0  0  0
 26 52  1  0  0  0  0
 27 31  1  0  0  0  0
 28 53  1  0  0  0  0
 29 31  2  0  0  0  0
 29 54  1  0  0  0  0
 30 32  2  0  0  0  0
 30 55  1  0  0  0  0
 31 56  1  0  0  0  0
 32 33  1  0  0  0  0
 34 58  1  0  0  0  0
 34 59  1  0  0  0  0
 34 60  1  0  0  0  0
M  END
> <PUBCHEM_COMPOUND_CID>
44334603

> <PUBCHEM_COMPOUND_CANONICALIZED>
1

> <PUBCHEM_CACTVS_COMPLEXITY>
774

> <PUBCHEM_CACTVS_HBOND_ACCEPTOR>
6

> <PUBCHEM_CACTVS_HBOND_DONOR>
2

> <PUBCHEM_CACTVS_ROTATABLE_BOND>
5

> <PUBCHEM_CACTVS_SUBSKEYS>
AAADceB7uAAAAAAAAAAAAAAAAAAAAWLAAAA8aIEAAAAAAFiR9AAAHgAQAAAADDzhngYzzvPJlACoAyTyXASCiCAnIiAImSG+/NiPZvLE9buXOSru1hva6ae4/b/eAEABAgAKQCAAgAIEABSAQAAAAAAAAA==

> <PUBCHEM_IUPAC_OPENEYE_NAME>
methyl 2-[[4-(2-oxo-3H-benzimidazol-1-yl)-1-piperidyl]methyl]-3,7-dihydro-2H-[1,4]dioxino[2,3-e]indole-8-carboxylate

> <PUBCHEM_IUPAC_CAS_NAME>
2-[[4-(2-oxo-3H-benzimidazol-1-yl)-1-piperidinyl]methyl]-3,7-dihydro-2H-[1,4]dioxino[2,3-e]indole-8-carboxylic acid methyl ester

> <PUBCHEM_IUPAC_NAME_MARKUP>
methyl 2-[[4-(2-oxo-3<I>H</I>-benzimidazol-1-yl)piperidin-1-yl]methyl]-3,7-dihydro-2<I>H</I>-[1,4]dioxino[2,3-e]indole-8-carboxylate

> <PUBCHEM_IUPAC_NAME>
methyl 2-[[4-(2-oxo-3H-benzimidazol-1-yl)piperidin-1-yl]methyl]-3,7-dihydro-2H-[1,4]dioxino[2,3-e]indole-8-carboxylate

> <PUBCHEM_IUPAC_SYSTEMATIC_NAME>
methyl 2-[[4-(2-oxidanylidene-3H-benzimidazol-1-yl)piperidin-1-yl]methyl]-3,7-dihydro-2H-[1,4]dioxino[2,3-e]indole-8-carboxylate

> <PUBCHEM_IUPAC_TRADITIONAL_NAME>
2-[[4-(2-keto-3H-benzimidazol-1-yl)piperidino]methyl]-3,7-dihydro-2H-[1,4]dioxin[2,3-e]indole-8-carboxylic acid methyl ester

> <PUBCHEM_IUPAC_INCHI>
InChI=1S/C25H26N4O5/c1-32-24(30)20-12-17-18(26-20)6-7-22-23(17)34-16(14-33-22)13-28-10-8-15(9-11-28)29-21-5-3-2-4-19(21)27-25(29)31/h2-7,12,15-16,26H,8-11,13-14H2,1H3,(H,27,31)

> <PUBCHEM_IUPAC_INCHIKEY>
BBLSPFIVZYOCKM-UHFFFAOYSA-N

> <PUBCHEM_XLOGP3_AA>
3.1

> <PUBCHEM_EXACT_MASS>
462.19031994

> <PUBCHEM_MOLECULAR_FORMULA>
C25H26N4O5

> <PUBCHEM_MOLECULAR_WEIGHT>
462.5

> <PUBCHEM_OPENEYE_CAN_SMILES>
COC(=O)C1=CC2=C(N1)C=CC3=C2OC(CO3)CN4CCC(CC4)N5C6=CC=CC=C6NC5=O

> <PUBCHEM_OPENEYE_ISO_SMILES>
COC(=O)C1=CC2=C(N1)C=CC3=C2OC(CO3)CN4CCC(CC4)N5C6=CC=CC=C6NC5=O

> <PUBCHEM_CACTVS_TPSA>
96.1

> <PUBCHEM_MONOISOTOPIC_WEIGHT>
462.19031994

> <PUBCHEM_TOTAL_CHARGE>
0

> <PUBCHEM_HEAVY_ATOM_COUNT>
34

> <PUBCHEM_ATOM_DEF_STEREO_COUNT>
0

> <PUBCHEM_ATOM_UDEF_STEREO_COUNT>
1

> <PUBCHEM_BOND_DEF_STEREO_COUNT>
0

> <PUBCHEM_BOND_UDEF_STEREO_COUNT>
0

> <PUBCHEM_ISOTOPIC_ATOM_COUNT>
0

> <PUBCHEM_COMPONENT_COUNT>
1

> <PUBCHEM_CACTVS_TAUTO_COUNT>
-1

> <PUBCHEM_COORDINATE_TYPE>
1
5
255

> <PUBCHEM_BONDANNOTATIONS>
16  15  3
17  20  8
17  22  8
20  24  8
21  23  8
21  25  8
22  26  8
23  29  8
24  28  8
25  27  8
25  30  8
26  28  8
27  31  8
29  31  8
30  32  8
7  17  8
7  18  8
8  18  8
8  20  8
9  27  8
9  32  8

$$$$
