44336138
  -OEChem-09292322162D

 54 57  0     1  0  0  0  0  0999 V2000
    3.5998   -5.6147    0.0000 Cl  0  0  0  0  0  0  0  0  0  0  0  0
    5.6587    4.6147    0.0000 S   0  0  0  0  0  0  0  0  0  0  0  0
    6.4677    5.2025    0.0000 O   0  0  0  0  0  0  0  0  0  0  0  0
    6.4677    4.0269    0.0000 O   0  0  0  0  0  0  0  0  0  0  0  0
    4.3607    0.4203    0.0000 N   0  0  0  0  0  0  0  0  0  0  0  0
    3.0250   -1.0683    0.0000 N   0  0  0  0  0  0  0  0  0  0  0  0
    5.0751    3.8100    0.0000 N   0  0  3  0  0  0  0  0  0  0  0  0
    4.6714   -0.5302    0.0000 C   0  0  0  0  0  0  0  0  0  0  0  0
    3.3822    0.6265    0.0000 C   0  0  0  0  0  0  0  0  0  0  0  0
    5.0286    1.1646    0.0000 C   0  0  0  0  0  0  0  0  0  0  0  0
    4.0035   -1.2745    0.0000 C   0  0  0  0  0  0  0  0  0  0  0  0
    2.7144   -0.1178    0.0000 C   0  0  0  0  0  0  0  0  0  0  0  0
    4.7179    2.1151    0.0000 C   0  0  0  0  0  0  0  0  0  0  0  0
    5.3857    2.8594    0.0000 C   0  0  0  0  0  0  0  0  0  0  0  0
    5.0751    5.4194    0.0000 C   0  0  0  0  0  0  0  0  0  0  0  0
    4.1288    4.1147    0.0000 C   0  0  0  0  0  0  0  0  0  0  0  0
    4.1288    5.1147    0.0000 C   0  0  0  0  0  0  0  0  0  0  0  0
    2.3572   -1.8126    0.0000 C   0  0  0  0  0  0  0  0  0  0  0  0
    3.2628    3.6147    0.0000 C   0  0  0  0  0  0  0  0  0  0  0  0
    2.6678   -2.7631    0.0000 C   0  0  0  0  0  0  0  0  0  0  0  0
    3.2628    5.6147    0.0000 C   0  0  0  0  0  0  0  0  0  0  0  0
    2.3968    4.1147    0.0000 C   0  0  0  0  0  0  0  0  0  0  0  0
    2.3968    5.1147    0.0000 C   0  0  0  0  0  0  0  0  0  0  0  0
    2.0000   -3.5074    0.0000 C   0  0  0  0  0  0  0  0  0  0  0  0
    3.6464   -2.9693    0.0000 C   0  0  0  0  0  0  0  0  0  0  0  0
    2.3107   -4.4579    0.0000 C   0  0  0  0  0  0  0  0  0  0  0  0
    3.9570   -3.9199    0.0000 C   0  0  0  0  0  0  0  0  0  0  0  0
    3.2892   -4.6642    0.0000 C   0  0  0  0  0  0  0  0  0  0  0  0
    5.0539   -1.0181    0.0000 H   0  0  0  0  0  0  0  0  0  0  0  0
    5.2183   -0.2382    0.0000 H   0  0  0  0  0  0  0  0  0  0  0  0
    3.6135    1.2018    0.0000 H   0  0  0  0  0  0  0  0  0  0  0  0
    2.8559    0.9542    0.0000 H   0  0  0  0  0  0  0  0  0  0  0  0
    5.4111    0.6767    0.0000 H   0  0  0  0  0  0  0  0  0  0  0  0
    5.5755    1.4566    0.0000 H   0  0  0  0  0  0  0  0  0  0  0  0
    3.7723   -1.8498    0.0000 H   0  0  0  0  0  0  0  0  0  0  0  0
    4.5299   -1.6022    0.0000 H   0  0  0  0  0  0  0  0  0  0  0  0
    2.3318    0.3701    0.0000 H   0  0  0  0  0  0  0  0  0  0  0  0
    2.1674   -0.4098    0.0000 H   0  0  0  0  0  0  0  0  0  0  0  0
    4.3353    2.6030    0.0000 H   0  0  0  0  0  0  0  0  0  0  0  0
    4.1710    1.8231    0.0000 H   0  0  0  0  0  0  0  0  0  0  0  0
    5.7683    2.3715    0.0000 H   0  0  0  0  0  0  0  0  0  0  0  0
    5.9327    3.1514    0.0000 H   0  0  0  0  0  0  0  0  0  0  0  0
    5.6125    5.7286    0.0000 H   0  0  0  0  0  0  0  0  0  0  0  0
    4.8240    5.9863    0.0000 H   0  0  0  0  0  0  0  0  0  0  0  0
    1.9746   -1.3247    0.0000 H   0  0  0  0  0  0  0  0  0  0  0  0
    1.8103   -2.1046    0.0000 H   0  0  0  0  0  0  0  0  0  0  0  0
    3.2628    2.9947    0.0000 H   0  0  0  0  0  0  0  0  0  0  0  0
    3.2628    6.2347    0.0000 H   0  0  0  0  0  0  0  0  0  0  0  0
    1.8599    3.8047    0.0000 H   0  0  0  0  0  0  0  0  0  0  0  0
    1.8599    5.4247    0.0000 H   0  0  0  0  0  0  0  0  0  0  0  0
    1.3933   -3.3796    0.0000 H   0  0  0  0  0  0  0  0  0  0  0  0
    4.0604   -2.5079    0.0000 H   0  0  0  0  0  0  0  0  0  0  0  0
    1.8966   -4.9194    0.0000 H   0  0  0  0  0  0  0  0  0  0  0  0
    4.5637   -4.0477    0.0000 H   0  0  0  0  0  0  0  0  0  0  0  0
  1 28  1  0  0  0  0
  2  3  2  0  0  0  0
  2  4  2  0  0  0  0
  2  7  1  0  0  0  0
  2 15  1  0  0  0  0
  5  8  1  0  0  0  0
  5  9  1  0  0  0  0
  5 10  1  0  0  0  0
  6 11  1  0  0  0  0
  6 12  1  0  0  0  0
  6 18  1  0  0  0  0
  7 14  1  0  0  0  0
  7 16  1  0  0  0  0
  8 11  1  0  0  0  0
  8 29  1  0  0  0  0
  8 30  1  0  0  0  0
  9 12  1  0  0  0  0
  9 31  1  0  0  0  0
  9 32  1  0  0  0  0
 10 13  1  0  0  0  0
 10 33  1  0  0  0  0
 10 34  1  0  0  0  0
 11 35  1  0  0  0  0
 11 36  1  0  0  0  0
 12 37  1  0  0  0  0
 12 38  1  0  0  0  0
 13 14  1  0  0  0  0
 13 39  1  0  0  0  0
 13 40  1  0  0  0  0
 14 41  1  0  0  0  0
 14 42  1  0  0  0  0
 15 17  1  0  0  0  0
 15 43  1  0  0  0  0
 15 44  1  0  0  0  0
 16 17  1  0  0  0  0
 16 19  2  0  0  0  0
 17 21  2  0  0  0  0
 18 20  1  0  0  0  0
 18 45  1  0  0  0  0
 18 46  1  0  0  0  0
 19 22  1  0  0  0  0
 19 47  1  0  0  0  0
 20 24  2  0  0  0  0
 20 25  1  0  0  0  0
 21 23  1  0  0  0  0
 21 48  1  0  0  0  0
 22 23  2  0  0  0  0
 22 49  1  0  0  0  0
 23 50  1  0  0  0  0
 24 26  1  0  0  0  0
 24 51  1  0  0  0  0
 25 27  2  0  0  0  0
 25 52  1  0  0  0  0
 26 28  2  0  0  0  0
 26 53  1  0  0  0  0
 27 28  1  0  0  0  0
 27 54  1  0  0  0  0
M  END
> <PUBCHEM_COMPOUND_CID>
44336138

> <PUBCHEM_COMPOUND_CANONICALIZED>
1

> <PUBCHEM_CACTVS_COMPLEXITY>
595

> <PUBCHEM_CACTVS_HBOND_ACCEPTOR>
5

> <PUBCHEM_CACTVS_HBOND_DONOR>
0

> <PUBCHEM_CACTVS_ROTATABLE_BOND>
6

> <PUBCHEM_CACTVS_SUBSKEYS>
AAADceB7MABEAAAAAAAAAAAAAAAAAWAAAAA8YIAAAAAAAFgBQAAAHAYAQAAADArFWCSwwIMAAAKAAiRCQHDCAAAhBwAIiAAIZogIYCLB05GUIAhggADIyAcQgAAOBAAAAAACAAAIAAAAAAQAAAAAAAAAAA==

> <PUBCHEM_IUPAC_OPENEYE_NAME>
1-[3-[4-[(4-chlorophenyl)methyl]piperazin-1-yl]propyl]-3H-2,1-benzothiazole 2,2-dioxide

> <PUBCHEM_IUPAC_CAS_NAME>
1-[3-[4-[(4-chlorophenyl)methyl]-1-piperazinyl]propyl]-3H-2,1-benzothiazole 2,2-dioxide

> <PUBCHEM_IUPAC_NAME_MARKUP>
1-[3-[4-[(4-chlorophenyl)methyl]piperazin-1-yl]propyl]-3<I>H</I>-2,1-benzothiazole 2,2-dioxide

> <PUBCHEM_IUPAC_NAME>
1-[3-[4-[(4-chlorophenyl)methyl]piperazin-1-yl]propyl]-3H-2,1-benzothiazole 2,2-dioxide

> <PUBCHEM_IUPAC_SYSTEMATIC_NAME>
1-[3-[4-[(4-chlorophenyl)methyl]piperazin-1-yl]propyl]-3H-2,1-benzothiazole 2,2-dioxide

> <PUBCHEM_IUPAC_TRADITIONAL_NAME>
1-[3-[4-(4-chlorobenzyl)piperazino]propyl]-3H-2,1-benzothiazole 2,2-dioxide

> <PUBCHEM_IUPAC_INCHI>
InChI=1S/C21H26ClN3O2S/c22-20-8-6-18(7-9-20)16-24-14-12-23(13-15-24)10-3-11-25-21-5-2-1-4-19(21)17-28(25,26)27/h1-2,4-9H,3,10-17H2

> <PUBCHEM_IUPAC_INCHIKEY>
AYLLMRKBBYQUGB-UHFFFAOYSA-N

> <PUBCHEM_XLOGP3_AA>
3

> <PUBCHEM_EXACT_MASS>
419.1434259

> <PUBCHEM_MOLECULAR_FORMULA>
C21H26ClN3O2S

> <PUBCHEM_MOLECULAR_WEIGHT>
420.0

> <PUBCHEM_OPENEYE_CAN_SMILES>
C1CN(CCN1CCCN2C3=CC=CC=C3CS2(=O)=O)CC4=CC=C(C=C4)Cl

> <PUBCHEM_OPENEYE_ISO_SMILES>
C1CN(CCN1CCCN2C3=CC=CC=C3CS2(=O)=O)CC4=CC=C(C=C4)Cl

> <PUBCHEM_CACTVS_TPSA>
52.2

> <PUBCHEM_MONOISOTOPIC_WEIGHT>
419.1434259

> <PUBCHEM_TOTAL_CHARGE>
0

> <PUBCHEM_HEAVY_ATOM_COUNT>
28

> <PUBCHEM_ATOM_DEF_STEREO_COUNT>
0

> <PUBCHEM_ATOM_UDEF_STEREO_COUNT>
0

> <PUBCHEM_BOND_DEF_STEREO_COUNT>
0

> <PUBCHEM_BOND_UDEF_STEREO_COUNT>
0

> <PUBCHEM_ISOTOPIC_ATOM_COUNT>
0

> <PUBCHEM_COMPONENT_COUNT>
1

> <PUBCHEM_CACTVS_TAUTO_COUNT>
-1

> <PUBCHEM_COORDINATE_TYPE>
1
5
255

> <PUBCHEM_BONDANNOTATIONS>
16  17  8
16  19  8
17  21  8
19  22  8
20  24  8
20  25  8
21  23  8
22  23  8
24  26  8
25  27  8
26  28  8
27  28  8

$$$$
