53359024
  -OEChem-09292322482D

 53 59  0     1  0  0  0  0  0999 V2000
    4.9947    2.4885    0.0000 O   0  0  0  0  0  0  0  0  0  0  0  0
    7.7863   -1.3621    0.0000 O   0  0  0  0  0  0  0  0  0  0  0  0
    9.3070   -2.1913    0.0000 O   0  0  0  0  0  0  0  0  0  0  0  0
    5.2236    1.1741    0.0000 N   0  0  3  0  0  0  0  0  0  0  0  0
    7.7440    0.3694    0.0000 N   0  0  0  0  0  0  0  0  0  0  0  0
    3.1124    0.5839    0.0000 C   0  0  3  0  0  0  0  0  0  0  0  0
    3.1124   -0.3242    0.0000 C   0  0  3  0  0  0  0  0  0  0  0  0
    4.1339    0.5839    0.0000 C   0  0  3  0  0  0  0  0  0  0  0  0
    4.1226   -0.3356    0.0000 C   0  0  3  0  0  0  0  0  0  0  0  0
    3.6118    2.2580    0.0000 C   0  0  3  0  0  0  0  0  0  0  0  0
    3.6118    1.2365    0.0000 C   0  0  3  0  0  0  0  0  0  0  0  0
    2.7853    1.6576    0.0000 C   0  0  3  0  0  0  0  0  0  0  0  0
    2.7853    0.6360    0.0000 C   0  0  3  0  0  0  0  0  0  0  0  0
    4.4383    1.6576    0.0000 C   0  0  3  0  0  0  0  0  0  0  0  0
    4.4383    0.6360    0.0000 C   0  0  3  0  0  0  0  0  0  0  0  0
    2.0000    1.2649    0.0000 C   0  0  0  0  0  0  0  0  0  0  0  0
    6.2233    1.1985    0.0000 C   0  0  0  0  0  0  0  0  0  0  0  0
    6.7443    0.3450    0.0000 C   0  0  0  0  0  0  0  0  0  0  0  0
    8.2650   -0.4842    0.0000 C   0  0  0  0  0  0  0  0  0  0  0  0
    9.2647   -0.4597    0.0000 C   0  0  0  0  0  0  0  0  0  0  0  0
    9.7857   -1.3133    0.0000 C   0  0  0  0  0  0  0  0  0  0  0  0
    9.7434    0.4183    0.0000 C   0  0  0  0  0  0  0  0  0  0  0  0
   10.7431    0.4427    0.0000 C   0  0  0  0  0  0  0  0  0  0  0  0
   10.7854   -1.2888    0.0000 C   0  0  0  0  0  0  0  0  0  0  0  0
   11.2641   -0.4109    0.0000 C   0  0  0  0  0  0  0  0  0  0  0  0
   11.2218    1.3207    0.0000 C   0  0  0  0  0  0  0  0  0  0  0  0
    9.8280   -3.0448    0.0000 C   0  0  0  0  0  0  0  0  0  0  0  0
    2.4991    0.4925    0.0000 H   0  0  0  0  0  0  0  0  0  0  0  0
    2.7487   -0.8263    0.0000 H   0  0  0  0  0  0  0  0  0  0  0  0
    4.7475    0.4947    0.0000 H   0  0  0  0  0  0  0  0  0  0  0  0
    4.4842   -0.8392    0.0000 H   0  0  0  0  0  0  0  0  0  0  0  0
    3.6118    2.8780    0.0000 H   0  0  0  0  0  0  0  0  0  0  0  0
    4.1642    1.5180    0.0000 H   0  0  0  0  0  0  0  0  0  0  0  0
    2.4634    2.1874    0.0000 H   0  0  0  0  0  0  0  0  0  0  0  0
    2.2778    0.2799    0.0000 H   0  0  0  0  0  0  0  0  0  0  0  0
    4.9348    0.2647    0.0000 H   0  0  0  0  0  0  0  0  0  0  0  0
    1.6460    1.7739    0.0000 H   0  0  0  0  0  0  0  0  0  0  0  0
    1.5470    0.8416    0.0000 H   0  0  0  0  0  0  0  0  0  0  0  0
    4.7210    3.0448    0.0000 H   0  0  0  0  0  0  0  0  0  0  0  0
    6.8006    1.4247    0.0000 H   0  0  0  0  0  0  0  0  0  0  0  0
    6.1008    1.8063    0.0000 H   0  0  0  0  0  0  0  0  0  0  0  0
    6.1671    0.1187    0.0000 H   0  0  0  0  0  0  0  0  0  0  0  0
    6.8669   -0.2628    0.0000 H   0  0  0  0  0  0  0  0  0  0  0  0
    8.0408    0.9137    0.0000 H   0  0  0  0  0  0  0  0  0  0  0  0
    9.4204    0.9475    0.0000 H   0  0  0  0  0  0  0  0  0  0  0  0
   11.1085   -1.8181    0.0000 H   0  0  0  0  0  0  0  0  0  0  0  0
   11.8839   -0.3957    0.0000 H   0  0  0  0  0  0  0  0  0  0  0  0
   11.7662    1.0239    0.0000 H   0  0  0  0  0  0  0  0  0  0  0  0
   11.5186    1.8650    0.0000 H   0  0  0  0  0  0  0  0  0  0  0  0
   10.6775    1.6174    0.0000 H   0  0  0  0  0  0  0  0  0  0  0  0
    9.2988   -3.3678    0.0000 H   0  0  0  0  0  0  0  0  0  0  0  0
   10.1511   -3.5740    0.0000 H   0  0  0  0  0  0  0  0  0  0  0  0
   10.3572   -2.7218    0.0000 H   0  0  0  0  0  0  0  0  0  0  0  0
  1 14  1  0  0  0  0
  1 39  1  0  0  0  0
  2 19  2  0  0  0  0
  3 21  1  0  0  0  0
  3 27  1  0  0  0  0
  4 14  1  0  0  0  0
  4 15  1  0  0  0  0
  4 17  1  0  0  0  0
  5 18  1  0  0  0  0
  5 19  1  0  0  0  0
  5 44  1  0  0  0  0
  6  7  1  0  0  0  0
  6  8  1  0  0  0  0
  6 12  1  0  0  0  0
  6 28  1  0  0  0  0
  7  9  1  0  0  0  0
  7 13  1  0  0  0  0
  7 29  1  0  0  0  0
  8  9  1  0  0  0  0
  8 14  1  0  0  0  0
  8 30  1  0  0  0  0
  9 15  1  0  0  0  0
  9 31  1  0  0  0  0
 10 11  1  0  0  0  0
 10 12  1  0  0  0  0
 10 14  1  0  0  0  0
 10 32  1  0  0  0  0
 11 13  1  0  0  0  0
 11 15  1  0  0  0  0
 11 33  1  0  0  0  0
 12 16  1  0  0  0  0
 12 34  1  0  0  0  0
 13 16  1  0  0  0  0
 13 35  1  0  0  0  0
 15 36  1  0  0  0  0
 16 37  1  0  0  0  0
 16 38  1  0  0  0  0
 17 18  1  0  0  0  0
 17 40  1  0  0  0  0
 17 41  1  0  0  0  0
 18 42  1  0  0  0  0
 18 43  1  0  0  0  0
 19 20  1  0  0  0  0
 20 21  2  0  0  0  0
 20 22  1  0  0  0  0
 21 24  1  0  0  0  0
 22 23  2  0  0  0  0
 22 45  1  0  0  0  0
 23 25  1  0  0  0  0
 23 26  1  0  0  0  0
 24 25  2  0  0  0  0
 24 46  1  0  0  0  0
 25 47  1  0  0  0  0
 26 48  1  0  0  0  0
 26 49  1  0  0  0  0
 26 50  1  0  0  0  0
 27 51  1  0  0  0  0
 27 52  1  0  0  0  0
 27 53  1  0  0  0  0
M  END
> <PUBCHEM_COMPOUND_CID>
53359024

> <PUBCHEM_COMPOUND_CANONICALIZED>
1

> <PUBCHEM_CACTVS_COMPLEXITY>
714

> <PUBCHEM_CACTVS_HBOND_ACCEPTOR>
4

> <PUBCHEM_CACTVS_HBOND_DONOR>
2

> <PUBCHEM_CACTVS_ROTATABLE_BOND>
5

> <PUBCHEM_CACTVS_SUBSKEYS>
AAADceB7MAAAAAAAAAAAAAAAAABgAePGDBAwAAAAAAAAAAABAAAAHgAQCAAADSzBmAYyBoPABgCIAiFSEACCCAAkIAAIiIEODMgMZjaEtRuUcWhm9hGIqYe4yPCOoAACAAAIAADAgAaAADQAAaAADQAAAA==

> <PUBCHEM_IUPAC_OPENEYE_NAME>
N-[2-(4-hydroxy-5-azahexacyclo[5.4.1.02,6.03,10.04,8.09,12]dodecan-5-yl)ethyl]-2-methoxy-5-methyl-benzamide

> <PUBCHEM_IUPAC_CAS_NAME>
N-[2-(4-hydroxy-5-azahexacyclo[5.4.1.02,6.03,10.04,8.09,12]dodecan-5-yl)ethyl]-2-methoxy-5-methylbenzamide

> <PUBCHEM_IUPAC_NAME_MARKUP>
<I>N</I>-[2-(4-hydroxy-5-azahexacyclo[5.4.1.0<SUP>2,6</SUP>.0<SUP>3,10</SUP>.0<SUP>4,8</SUP>.0<SUP>9,12</SUP>]dodecan-5-yl)ethyl]-2-methoxy-5-methylbenzamide

> <PUBCHEM_IUPAC_NAME>
N-[2-(4-hydroxy-5-azahexacyclo[5.4.1.02,6.03,10.04,8.09,12]dodecan-5-yl)ethyl]-2-methoxy-5-methylbenzamide

> <PUBCHEM_IUPAC_SYSTEMATIC_NAME>
2-methoxy-5-methyl-N-[2-(4-oxidanyl-5-azahexacyclo[5.4.1.02,6.03,10.04,8.09,12]dodecan-5-yl)ethyl]benzamide

> <PUBCHEM_IUPAC_TRADITIONAL_NAME>
N-[2-(4-hydroxy-5-azahexacyclo[5.4.1.02,6.03,10.04,8.09,12]dodecan-5-yl)ethyl]-2-methoxy-5-methyl-benzamide

> <PUBCHEM_IUPAC_INCHI>
InChI=1S/C22H26N2O3/c1-9-3-4-13(27-2)10(7-9)21(25)23-5-6-24-20-16-11-8-12-15-14(11)17(20)19(15)22(24,26)18(12)16/h3-4,7,11-12,14-20,26H,5-6,8H2,1-2H3,(H,23,25)

> <PUBCHEM_IUPAC_INCHIKEY>
ZOAKYUHDXICZSY-UHFFFAOYSA-N

> <PUBCHEM_XLOGP3_AA>
2.2

> <PUBCHEM_EXACT_MASS>
366.19434270

> <PUBCHEM_MOLECULAR_FORMULA>
C22H26N2O3

> <PUBCHEM_MOLECULAR_WEIGHT>
366.5

> <PUBCHEM_OPENEYE_CAN_SMILES>
CC1=CC(=C(C=C1)OC)C(=O)NCCN2C3C4C5CC6C4C2(C7C6C5C73)O

> <PUBCHEM_OPENEYE_ISO_SMILES>
CC1=CC(=C(C=C1)OC)C(=O)NCCN2C3C4C5CC6C4C2(C7C6C5C73)O

> <PUBCHEM_CACTVS_TPSA>
61.8

> <PUBCHEM_MONOISOTOPIC_WEIGHT>
366.19434270

> <PUBCHEM_TOTAL_CHARGE>
0

> <PUBCHEM_HEAVY_ATOM_COUNT>
27

> <PUBCHEM_ATOM_DEF_STEREO_COUNT>
0

> <PUBCHEM_ATOM_UDEF_STEREO_COUNT>
10

> <PUBCHEM_BOND_DEF_STEREO_COUNT>
0

> <PUBCHEM_BOND_UDEF_STEREO_COUNT>
0

> <PUBCHEM_ISOTOPIC_ATOM_COUNT>
0

> <PUBCHEM_COMPONENT_COUNT>
1

> <PUBCHEM_CACTVS_TAUTO_COUNT>
-1

> <PUBCHEM_COORDINATE_TYPE>
1
5
255

> <PUBCHEM_BONDANNOTATIONS>
14  1  3
10  12  3
11  13  3
12  16  3
13  16  3
20  21  8
20  22  8
21  24  8
22  23  8
23  25  8
24  25  8
15  4  3
6  12  3
8  6  3
7  13  3
9  7  3

$$$$
