44436300
  -OEChem-09292322252D

 53 56  0     0  0  0  0  0  0999 V2000
    4.6783   -1.2256    0.0000 S   0  0  0  0  0  0  0  0  0  0  0  0
    5.4883   -1.8120    0.0000 O   0  0  0  0  0  0  0  0  0  0  0  0
    4.3709   -2.1772    0.0000 O   0  0  0  0  0  0  0  0  0  0  0  0
    4.9889    1.3344    0.0000 O   0  0  0  0  0  0  0  0  0  0  0  0
    9.2619    1.3112    0.0000 N   0  0  0  0  0  0  0  0  0  0  0  0
   11.2619    1.3112    0.0000 N   0  0  0  0  0  0  0  0  0  0  0  0
    5.2619   -0.4209    0.0000 N   0  0  0  0  0  0  0  0  0  0  0  0
    9.7619    0.4451    0.0000 C   0  0  0  0  0  0  0  0  0  0  0  0
    9.7619    2.1772    0.0000 C   0  0  0  0  0  0  0  0  0  0  0  0
    8.2619    1.3112    0.0000 C   0  0  0  0  0  0  0  0  0  0  0  0
   10.7619    0.4451    0.0000 C   0  0  0  0  0  0  0  0  0  0  0  0
   10.7619    2.1772    0.0000 C   0  0  0  0  0  0  0  0  0  0  0  0
    7.7619    0.4451    0.0000 C   0  0  0  0  0  0  0  0  0  0  0  0
    6.7619    0.4451    0.0000 C   0  0  0  0  0  0  0  0  0  0  0  0
    6.2619   -0.4209    0.0000 C   0  0  0  0  0  0  0  0  0  0  0  0
   12.2619    1.3112    0.0000 C   0  0  0  0  0  0  0  0  0  0  0  0
    3.7320   -0.9209    0.0000 C   0  0  0  0  0  0  0  0  0  0  0  0
    4.6783    0.3839    0.0000 C   0  0  0  0  0  0  0  0  0  0  0  0
    3.7320    0.0791    0.0000 C   0  0  0  0  0  0  0  0  0  0  0  0
   12.7619    0.4451    0.0000 C   0  0  0  0  0  0  0  0  0  0  0  0
   12.7619    2.1772    0.0000 C   0  0  0  0  0  0  0  0  0  0  0  0
    2.8660   -1.4209    0.0000 C   0  0  0  0  0  0  0  0  0  0  0  0
    2.8660    0.5791    0.0000 C   0  0  0  0  0  0  0  0  0  0  0  0
    2.0000   -0.9209    0.0000 C   0  0  0  0  0  0  0  0  0  0  0  0
    2.0000    0.0791    0.0000 C   0  0  0  0  0  0  0  0  0  0  0  0
   13.7619    0.4451    0.0000 C   0  0  0  0  0  0  0  0  0  0  0  0
   13.7619    2.1772    0.0000 C   0  0  0  0  0  0  0  0  0  0  0  0
   14.2619    1.3112    0.0000 C   0  0  0  0  0  0  0  0  0  0  0  0
    9.1793    0.2331    0.0000 H   0  0  0  0  0  0  0  0  0  0  0  0
    9.8695   -0.1654    0.0000 H   0  0  0  0  0  0  0  0  0  0  0  0
    9.8695    2.7878    0.0000 H   0  0  0  0  0  0  0  0  0  0  0  0
    9.1793    2.3892    0.0000 H   0  0  0  0  0  0  0  0  0  0  0  0
    8.3695    1.9218    0.0000 H   0  0  0  0  0  0  0  0  0  0  0  0
    7.6793    1.5232    0.0000 H   0  0  0  0  0  0  0  0  0  0  0  0
   10.6542   -0.1654    0.0000 H   0  0  0  0  0  0  0  0  0  0  0  0
   11.3445    0.2331    0.0000 H   0  0  0  0  0  0  0  0  0  0  0  0
   11.3445    2.3892    0.0000 H   0  0  0  0  0  0  0  0  0  0  0  0
   10.6542    2.7878    0.0000 H   0  0  0  0  0  0  0  0  0  0  0  0
    7.6542   -0.1654    0.0000 H   0  0  0  0  0  0  0  0  0  0  0  0
    8.3445    0.2331    0.0000 H   0  0  0  0  0  0  0  0  0  0  0  0
    6.8695    1.0557    0.0000 H   0  0  0  0  0  0  0  0  0  0  0  0
    6.1793    0.6572    0.0000 H   0  0  0  0  0  0  0  0  0  0  0  0
    6.1542   -1.0315    0.0000 H   0  0  0  0  0  0  0  0  0  0  0  0
    6.8445   -0.6329    0.0000 H   0  0  0  0  0  0  0  0  0  0  0  0
   12.4519   -0.0918    0.0000 H   0  0  0  0  0  0  0  0  0  0  0  0
   12.4519    2.7141    0.0000 H   0  0  0  0  0  0  0  0  0  0  0  0
    2.8660   -2.0409    0.0000 H   0  0  0  0  0  0  0  0  0  0  0  0
    2.8660    1.1991    0.0000 H   0  0  0  0  0  0  0  0  0  0  0  0
    1.4631   -1.2309    0.0000 H   0  0  0  0  0  0  0  0  0  0  0  0
    1.4631    0.3891    0.0000 H   0  0  0  0  0  0  0  0  0  0  0  0
   14.0719   -0.0918    0.0000 H   0  0  0  0  0  0  0  0  0  0  0  0
   14.0719    2.7141    0.0000 H   0  0  0  0  0  0  0  0  0  0  0  0
   14.8819    1.3112    0.0000 H   0  0  0  0  0  0  0  0  0  0  0  0
  1  2  2  0  0  0  0
  1  3  2  0  0  0  0
  1  7  1  0  0  0  0
  1 17  1  0  0  0  0
  4 18  2  0  0  0  0
  5  8  1  0  0  0  0
  5  9  1  0  0  0  0
  5 10  1  0  0  0  0
  6 11  1  0  0  0  0
  6 12  1  0  0  0  0
  6 16  1  0  0  0  0
  7 15  1  0  0  0  0
  7 18  1  0  0  0  0
  8 11  1  0  0  0  0
  8 29  1  0  0  0  0
  8 30  1  0  0  0  0
  9 12  1  0  0  0  0
  9 31  1  0  0  0  0
  9 32  1  0  0  0  0
 10 13  1  0  0  0  0
 10 33  1  0  0  0  0
 10 34  1  0  0  0  0
 11 35  1  0  0  0  0
 11 36  1  0  0  0  0
 12 37  1  0  0  0  0
 12 38  1  0  0  0  0
 13 14  1  0  0  0  0
 13 39  1  0  0  0  0
 13 40  1  0  0  0  0
 14 15  1  0  0  0  0
 14 41  1  0  0  0  0
 14 42  1  0  0  0  0
 15 43  1  0  0  0  0
 15 44  1  0  0  0  0
 16 20  2  0  0  0  0
 16 21  1  0  0  0  0
 17 19  1  0  0  0  0
 17 22  2  0  0  0  0
 18 19  1  0  0  0  0
 19 23  2  0  0  0  0
 20 26  1  0  0  0  0
 20 45  1  0  0  0  0
 21 27  2  0  0  0  0
 21 46  1  0  0  0  0
 22 24  1  0  0  0  0
 22 47  1  0  0  0  0
 23 25  1  0  0  0  0
 23 48  1  0  0  0  0
 24 25  2  0  0  0  0
 24 49  1  0  0  0  0
 25 50  1  0  0  0  0
 26 28  2  0  0  0  0
 26 51  1  0  0  0  0
 27 28  1  0  0  0  0
 27 52  1  0  0  0  0
 28 53  1  0  0  0  0
M  END
> <PUBCHEM_COMPOUND_CID>
44436300

> <PUBCHEM_COMPOUND_CANONICALIZED>
1

> <PUBCHEM_CACTVS_COMPLEXITY>
634

> <PUBCHEM_CACTVS_HBOND_ACCEPTOR>
5

> <PUBCHEM_CACTVS_HBOND_DONOR>
0

> <PUBCHEM_CACTVS_ROTATABLE_BOND>
6

> <PUBCHEM_CACTVS_SUBSKEYS>
AAADceB7MABAAAAAAAAAAAAAAAAAAWAAAAA8YIAAAAAAAFgBQAAAHgQAQAAADAjB2AQwwYMAAAKIAiVSUHDCABAlAgAIiBkIZMgIYDLAlZGUIQhghgDIyYcYiACOAAAAAAAEAAAAAAAAAAgAAAAAAAAAAA==

> <PUBCHEM_IUPAC_OPENEYE_NAME>
1,1-dioxo-2-[4-(4-phenylpiperazin-1-yl)butyl]-1,2-benzothiazol-3-one

> <PUBCHEM_IUPAC_CAS_NAME>
1,1-dioxo-2-[4-(4-phenyl-1-piperazinyl)butyl]-1,2-benzothiazol-3-one

> <PUBCHEM_IUPAC_NAME_MARKUP>
1,1-dioxo-2-[4-(4-phenylpiperazin-1-yl)butyl]-1,2-benzothiazol-3-one

> <PUBCHEM_IUPAC_NAME>
1,1-dioxo-2-[4-(4-phenylpiperazin-1-yl)butyl]-1,2-benzothiazol-3-one

> <PUBCHEM_IUPAC_SYSTEMATIC_NAME>
1,1-bis(oxidanylidene)-2-[4-(4-phenylpiperazin-1-yl)butyl]-1,2-benzothiazol-3-one

> <PUBCHEM_IUPAC_TRADITIONAL_NAME>
1,1-diketo-2-[4-(4-phenylpiperazino)butyl]-1,2-benzothiazol-3-one

> <PUBCHEM_IUPAC_INCHI>
InChI=1S/C21H25N3O3S/c25-21-19-10-4-5-11-20(19)28(26,27)24(21)13-7-6-12-22-14-16-23(17-15-22)18-8-2-1-3-9-18/h1-5,8-11H,6-7,12-17H2

> <PUBCHEM_IUPAC_INCHIKEY>
TWQROZICHMTHNN-UHFFFAOYSA-N

> <PUBCHEM_XLOGP3_AA>
2.9

> <PUBCHEM_EXACT_MASS>
399.16166284

> <PUBCHEM_MOLECULAR_FORMULA>
C21H25N3O3S

> <PUBCHEM_MOLECULAR_WEIGHT>
399.5

> <PUBCHEM_OPENEYE_CAN_SMILES>
C1CN(CCN1CCCCN2C(=O)C3=CC=CC=C3S2(=O)=O)C4=CC=CC=C4

> <PUBCHEM_OPENEYE_ISO_SMILES>
C1CN(CCN1CCCCN2C(=O)C3=CC=CC=C3S2(=O)=O)C4=CC=CC=C4

> <PUBCHEM_CACTVS_TPSA>
69.3

> <PUBCHEM_MONOISOTOPIC_WEIGHT>
399.16166284

> <PUBCHEM_TOTAL_CHARGE>
0

> <PUBCHEM_HEAVY_ATOM_COUNT>
28

> <PUBCHEM_ATOM_DEF_STEREO_COUNT>
0

> <PUBCHEM_ATOM_UDEF_STEREO_COUNT>
0

> <PUBCHEM_BOND_DEF_STEREO_COUNT>
0

> <PUBCHEM_BOND_UDEF_STEREO_COUNT>
0

> <PUBCHEM_ISOTOPIC_ATOM_COUNT>
0

> <PUBCHEM_COMPONENT_COUNT>
1

> <PUBCHEM_CACTVS_TAUTO_COUNT>
-1

> <PUBCHEM_COORDINATE_TYPE>
1
5
255

> <PUBCHEM_BONDANNOTATIONS>
16  20  8
16  21  8
17  19  8
17  22  8
19  23  8
20  26  8
21  27  8
22  24  8
23  25  8
24  25  8
26  28  8
27  28  8

$$$$
