53323859
  -OEChem-09292322312D

 91 97  0     1  0  0  0  0  0999 V2000
    8.2282   -2.9623    0.0000 O   0  0  0  0  0  0  0  0  0  0  0  0
    4.9870    7.5914    0.0000 O   0  0  0  0  0  0  0  0  0  0  0  0
   11.7008   -5.9938    0.0000 N   0  0  3  0  0  0  0  0  0  0  0  0
    5.3092    4.1423    0.0000 N   0  0  0  0  0  0  0  0  0  0  0  0
    4.1524    5.7738    0.0000 N   0  0  0  0  0  0  0  0  0  0  0  0
    6.5309    0.0575    0.0000 N   0  0  0  0  0  0  0  0  0  0  0  0
    7.0487    1.5905    0.0000 N   0  0  0  0  0  0  0  0  0  0  0  0
    7.3467    0.6359    0.0000 N   0  0  0  0  0  0  0  0  0  0  0  0
   10.8426   -5.4969    0.0000 C   0  0  2  0  0  0  0  0  0  0  0  0
   10.8426   -4.4969    0.0000 C   0  0  0  0  0  0  0  0  0  0  0  0
    9.9766   -5.9969    0.0000 C   0  0  0  0  0  0  0  0  0  0  0  0
   12.5663   -5.5097    0.0000 C   0  0  0  0  0  0  0  0  0  0  0  0
   11.7526   -3.9901    0.0000 C   0  0  0  0  0  0  0  0  0  0  0  0
   12.5919   -4.5183    0.0000 C   0  0  0  0  0  0  0  0  0  0  0  0
    9.9766   -3.9969    0.0000 C   0  0  0  0  0  0  0  0  0  0  0  0
    9.1105   -5.4969    0.0000 C   0  0  0  0  0  0  0  0  0  0  0  0
    9.1105   -4.4969    0.0000 C   0  0  0  0  0  0  0  0  0  0  0  0
   11.6934   -6.9938    0.0000 C   0  0  0  0  0  0  0  0  0  0  0  0
   11.7606   -2.9485    0.0000 C   0  0  0  0  0  0  0  0  0  0  0  0
    9.9605   -2.9554    0.0000 C   0  0  0  0  0  0  0  0  0  0  0  0
   12.5557   -7.5002    0.0000 C   0  0  0  0  0  0  0  0  0  0  0  0
    8.2166   -3.9623    0.0000 C   0  0  0  0  0  0  0  0  0  0  0  0
    8.2166   -6.0316    0.0000 C   0  0  0  0  0  0  0  0  0  0  0  0
   10.8585   -2.4277    0.0000 C   0  0  0  0  0  0  0  0  0  0  0  0
    7.3105   -4.4761    0.0000 C   0  0  0  0  0  0  0  0  0  0  0  0
    7.3105   -5.5177    0.0000 C   0  0  0  0  0  0  0  0  0  0  0  0
   12.5483   -8.5002    0.0000 C   0  0  0  0  0  0  0  0  0  0  0  0
    5.7265    5.0511    0.0000 C   0  0  0  0  0  0  0  0  0  0  0  0
    4.3136    4.0493    0.0000 C   0  0  0  0  0  0  0  0  0  0  0  0
    5.1481    5.8669    0.0000 C   0  0  0  0  0  0  0  0  0  0  0  0
    3.7352    4.8651    0.0000 C   0  0  0  0  0  0  0  0  0  0  0  0
    5.8876    3.3266    0.0000 C   0  0  0  0  0  0  0  0  0  0  0  0
    7.3680   -2.4523    0.0000 C   0  0  0  0  0  0  0  0  0  0  0  0
    5.4704    2.4178    0.0000 C   0  0  0  0  0  0  0  0  0  0  0  0
    3.5741    6.5896    0.0000 C   0  0  0  0  0  0  0  0  0  0  0  0
    7.3795   -1.4524    0.0000 C   0  0  0  0  0  0  0  0  0  0  0  0
    6.5194   -0.9424    0.0000 C   0  0  0  0  0  0  0  0  0  0  0  0
    6.0487    1.6020    0.0000 C   0  0  0  0  0  0  0  0  0  0  0  0
    3.9913    7.4984    0.0000 C   0  0  0  0  0  0  0  0  0  0  0  0
    2.5784    6.4966    0.0000 C   0  0  0  0  0  0  0  0  0  0  0  0
    5.7287    0.6546    0.0000 C   0  0  0  0  0  0  0  0  0  0  0  0
    3.4129    8.3142    0.0000 C   0  0  0  0  0  0  0  0  0  0  0  0
    2.0000    7.3123    0.0000 C   0  0  0  0  0  0  0  0  0  0  0  0
    2.4173    8.2211    0.0000 C   0  0  0  0  0  0  0  0  0  0  0  0
    5.4043    8.5002    0.0000 C   0  0  0  0  0  0  0  0  0  0  0  0
   10.8421   -6.3469    0.0000 H   0  0  0  0  0  0  0  0  0  0  0  0
    9.5780   -6.4719    0.0000 H   0  0  0  0  0  0  0  0  0  0  0  0
   10.3751   -6.4719    0.0000 H   0  0  0  0  0  0  0  0  0  0  0  0
   12.7680   -6.0959    0.0000 H   0  0  0  0  0  0  0  0  0  0  0  0
   13.1791   -5.4153    0.0000 H   0  0  0  0  0  0  0  0  0  0  0  0
   13.1990   -4.6442    0.0000 H   0  0  0  0  0  0  0  0  0  0  0  0
   12.8237   -3.9432    0.0000 H   0  0  0  0  0  0  0  0  0  0  0  0
   11.0836   -6.8816    0.0000 H   0  0  0  0  0  0  0  0  0  0  0  0
   11.4770   -7.5748    0.0000 H   0  0  0  0  0  0  0  0  0  0  0  0
   12.2987   -2.6405    0.0000 H   0  0  0  0  0  0  0  0  0  0  0  0
    9.4200   -2.6516    0.0000 H   0  0  0  0  0  0  0  0  0  0  0  0
   13.1655   -7.6124    0.0000 H   0  0  0  0  0  0  0  0  0  0  0  0
   12.7721   -6.9192    0.0000 H   0  0  0  0  0  0  0  0  0  0  0  0
    8.2238   -6.6515    0.0000 H   0  0  0  0  0  0  0  0  0  0  0  0
   10.8561   -1.8077    0.0000 H   0  0  0  0  0  0  0  0  0  0  0  0
    6.7748   -4.1640    0.0000 H   0  0  0  0  0  0  0  0  0  0  0  0
    6.7748   -5.8298    0.0000 H   0  0  0  0  0  0  0  0  0  0  0  0
   11.9283   -8.4956    0.0000 H   0  0  0  0  0  0  0  0  0  0  0  0
   12.5437   -9.1202    0.0000 H   0  0  0  0  0  0  0  0  0  0  0  0
   13.1683   -8.5048    0.0000 H   0  0  0  0  0  0  0  0  0  0  0  0
    6.2365    4.6985    0.0000 H   0  0  0  0  0  0  0  0  0  0  0  0
    6.1623    5.4921    0.0000 H   0  0  0  0  0  0  0  0  0  0  0  0
    3.7532    3.7840    0.0000 H   0  0  0  0  0  0  0  0  0  0  0  0
    4.4776    3.4514    0.0000 H   0  0  0  0  0  0  0  0  0  0  0  0
    5.7085    6.1322    0.0000 H   0  0  0  0  0  0  0  0  0  0  0  0
    4.9841    6.4648    0.0000 H   0  0  0  0  0  0  0  0  0  0  0  0
    3.2252    5.2177    0.0000 H   0  0  0  0  0  0  0  0  0  0  0  0
    3.2994    4.4241    0.0000 H   0  0  0  0  0  0  0  0  0  0  0  0
    6.3976    2.9740    0.0000 H   0  0  0  0  0  0  0  0  0  0  0  0
    6.3234    3.7676    0.0000 H   0  0  0  0  0  0  0  0  0  0  0  0
    6.7587   -2.3376    0.0000 H   0  0  0  0  0  0  0  0  0  0  0  0
    7.1492   -3.0325    0.0000 H   0  0  0  0  0  0  0  0  0  0  0  0
    4.9604    2.7704    0.0000 H   0  0  0  0  0  0  0  0  0  0  0  0
    5.0345    1.9768    0.0000 H   0  0  0  0  0  0  0  0  0  0  0  0
    7.9888   -1.5671    0.0000 H   0  0  0  0  0  0  0  0  0  0  0  0
    7.5983   -0.8723    0.0000 H   0  0  0  0  0  0  0  0  0  0  0  0
    5.9100   -0.8277    0.0000 H   0  0  0  0  0  0  0  0  0  0  0  0
    6.3006   -1.5226    0.0000 H   0  0  0  0  0  0  0  0  0  0  0  0
    2.3197    5.9331    0.0000 H   0  0  0  0  0  0  0  0  0  0  0  0
    5.1369    0.4698    0.0000 H   0  0  0  0  0  0  0  0  0  0  0  0
    3.6716    8.8776    0.0000 H   0  0  0  0  0  0  0  0  0  0  0  0
    1.3827    7.2547    0.0000 H   0  0  0  0  0  0  0  0  0  0  0  0
    2.0587    8.7269    0.0000 H   0  0  0  0  0  0  0  0  0  0  0  0
    5.9677    8.2415    0.0000 H   0  0  0  0  0  0  0  0  0  0  0  0
    5.6630    9.0636    0.0000 H   0  0  0  0  0  0  0  0  0  0  0  0
    4.8408    8.7589    0.0000 H   0  0  0  0  0  0  0  0  0  0  0  0
  1 22  1  0  0  0  0
  1 33  1  0  0  0  0
  2 39  1  0  0  0  0
  2 45  1  0  0  0  0
  3  9  1  0  0  0  0
  3 12  1  0  0  0  0
  3 18  1  0  0  0  0
  4 28  1  0  0  0  0
  4 29  1  0  0  0  0
  4 32  1  0  0  0  0
  5 30  1  0  0  0  0
  5 31  1  0  0  0  0
  5 35  1  0  0  0  0
  6  8  1  0  0  0  0
  6 37  1  0  0  0  0
  6 41  1  0  0  0  0
  7  8  2  0  0  0  0
  7 38  1  0  0  0  0
  9 10  1  0  0  0  0
  9 11  1  0  0  0  0
  9 46  1  6  0  0  0
 10 13  2  0  0  0  0
 10 15  1  0  0  0  0
 11 16  1  0  0  0  0
 11 47  1  0  0  0  0
 11 48  1  0  0  0  0
 12 14  1  0  0  0  0
 12 49  1  0  0  0  0
 12 50  1  0  0  0  0
 13 14  1  0  0  0  0
 13 19  1  0  0  0  0
 14 51  1  0  0  0  0
 14 52  1  0  0  0  0
 15 17  1  0  0  0  0
 15 20  2  0  0  0  0
 16 17  2  0  0  0  0
 16 23  1  0  0  0  0
 17 22  1  0  0  0  0
 18 21  1  0  0  0  0
 18 53  1  0  0  0  0
 18 54  1  0  0  0  0
 19 24  2  0  0  0  0
 19 55  1  0  0  0  0
 20 24  1  0  0  0  0
 20 56  1  0  0  0  0
 21 27  1  0  0  0  0
 21 57  1  0  0  0  0
 21 58  1  0  0  0  0
 22 25  2  0  0  0  0
 23 26  2  0  0  0  0
 23 59  1  0  0  0  0
 24 60  1  0  0  0  0
 25 26  1  0  0  0  0
 25 61  1  0  0  0  0
 26 62  1  0  0  0  0
 27 63  1  0  0  0  0
 27 64  1  0  0  0  0
 27 65  1  0  0  0  0
 28 30  1  0  0  0  0
 28 66  1  0  0  0  0
 28 67  1  0  0  0  0
 29 31  1  0  0  0  0
 29 68  1  0  0  0  0
 29 69  1  0  0  0  0
 30 70  1  0  0  0  0
 30 71  1  0  0  0  0
 31 72  1  0  0  0  0
 31 73  1  0  0  0  0
 32 34  1  0  0  0  0
 32 74  1  0  0  0  0
 32 75  1  0  0  0  0
 33 36  1  0  0  0  0
 33 76  1  0  0  0  0
 33 77  1  0  0  0  0
 34 38  1  0  0  0  0
 34 78  1  0  0  0  0
 34 79  1  0  0  0  0
 35 39  1  0  0  0  0
 35 40  2  0  0  0  0
 36 37  1  0  0  0  0
 36 80  1  0  0  0  0
 36 81  1  0  0  0  0
 37 82  1  0  0  0  0
 37 83  1  0  0  0  0
 38 41  2  0  0  0  0
 39 42  2  0  0  0  0
 40 43  1  0  0  0  0
 40 84  1  0  0  0  0
 41 85  1  0  0  0  0
 42 44  1  0  0  0  0
 42 86  1  0  0  0  0
 43 44  2  0  0  0  0
 43 87  1  0  0  0  0
 44 88  1  0  0  0  0
 45 89  1  0  0  0  0
 45 90  1  0  0  0  0
 45 91  1  0  0  0  0
M  END
> <PUBCHEM_COMPOUND_CID>
53323859

> <PUBCHEM_COMPOUND_CANONICALIZED>
1

> <PUBCHEM_CACTVS_COMPLEXITY>
902

> <PUBCHEM_CACTVS_HBOND_ACCEPTOR>
7

> <PUBCHEM_CACTVS_HBOND_DONOR>
0

> <PUBCHEM_CACTVS_ROTATABLE_BOND>
12

> <PUBCHEM_CACTVS_SUBSKEYS>
AAADcfB/sAAAAAAAAAAAAAAAAAAAAWAAAAA8eMGCAAAAAADx1AAAHgAIAAAADCzhngY+xpMIBACiAzRnRACCDAQxsgAY2AA/fIgOZiLE8ZuXOCjmwBHY6AeQ0PMOgAADAAAYEACQAAaAADQgAAAAAAAAAA==

> <PUBCHEM_IUPAC_OPENEYE_NAME>
(6aS)-11-[3-[4-[2-[4-(2-methoxyphenyl)piperazin-1-yl]ethyl]triazol-1-yl]propoxy]-6-propyl-5,6,6a,7-tetrahydro-4H-dibenzo[de,g]quinoline

> <PUBCHEM_IUPAC_CAS_NAME>
(6aS)-11-[3-[4-[2-[4-(2-methoxyphenyl)-1-piperazinyl]ethyl]-1-triazolyl]propoxy]-6-propyl-5,6,6a,7-tetrahydro-4H-dibenzo[de,g]quinoline

> <PUBCHEM_IUPAC_NAME_MARKUP>
(6<I>a</I><I>S</I>)-11-[3-[4-[2-[4-(2-methoxyphenyl)piperazin-1-yl]ethyl]triazol-1-yl]propoxy]-6-propyl-5,6,6<I>a</I>,7-tetrahydro-4<I>H</I>-dibenzo[de,g]quinoline

> <PUBCHEM_IUPAC_NAME>
(6aS)-11-[3-[4-[2-[4-(2-methoxyphenyl)piperazin-1-yl]ethyl]triazol-1-yl]propoxy]-6-propyl-5,6,6a,7-tetrahydro-4H-dibenzo[de,g]quinoline

> <PUBCHEM_IUPAC_SYSTEMATIC_NAME>
(6aS)-11-[3-[4-[2-[4-(2-methoxyphenyl)piperazin-1-yl]ethyl]-1,2,3-triazol-1-yl]propoxy]-6-propyl-5,6,6a,7-tetrahydro-4H-dibenzo[de,g]quinoline

> <PUBCHEM_IUPAC_TRADITIONAL_NAME>
(6aS)-11-[3-[4-[2-[4-(2-methoxyphenyl)piperazino]ethyl]triazol-1-yl]propoxy]-6-propyl-5,6,6a,7-tetrahydro-4H-dibenzo[de,g]quinoline

> <PUBCHEM_IUPAC_INCHI>
InChI=1S/C37H46N6O2/c1-3-17-41-20-15-28-9-6-11-31-36(28)33(41)26-29-10-7-14-35(37(29)31)45-25-8-18-43-27-30(38-39-43)16-19-40-21-23-42(24-22-40)32-12-4-5-13-34(32)44-2/h4-7,9-14,27,33H,3,8,15-26H2,1-2H3/t33-/m0/s1

> <PUBCHEM_IUPAC_INCHIKEY>
RXIFDJMCJKEING-XIFFEERXSA-N

> <PUBCHEM_XLOGP3_AA>
6

> <PUBCHEM_EXACT_MASS>
606.36822473

> <PUBCHEM_MOLECULAR_FORMULA>
C37H46N6O2

> <PUBCHEM_MOLECULAR_WEIGHT>
606.8

> <PUBCHEM_OPENEYE_CAN_SMILES>
CCCN1CCC2=C3C1CC4=C(C3=CC=C2)C(=CC=C4)OCCCN5C=C(N=N5)CCN6CCN(CC6)C7=CC=CC=C7OC

> <PUBCHEM_OPENEYE_ISO_SMILES>
CCCN1CCC2=C3[C@@H]1CC4=C(C3=CC=C2)C(=CC=C4)OCCCN5C=C(N=N5)CCN6CCN(CC6)C7=CC=CC=C7OC

> <PUBCHEM_CACTVS_TPSA>
58.9

> <PUBCHEM_MONOISOTOPIC_WEIGHT>
606.36822473

> <PUBCHEM_TOTAL_CHARGE>
0

> <PUBCHEM_HEAVY_ATOM_COUNT>
45

> <PUBCHEM_ATOM_DEF_STEREO_COUNT>
1

> <PUBCHEM_ATOM_UDEF_STEREO_COUNT>
0

> <PUBCHEM_BOND_DEF_STEREO_COUNT>
0

> <PUBCHEM_BOND_UDEF_STEREO_COUNT>
0

> <PUBCHEM_ISOTOPIC_ATOM_COUNT>
0

> <PUBCHEM_COMPONENT_COUNT>
1

> <PUBCHEM_CACTVS_TAUTO_COUNT>
-1

> <PUBCHEM_COORDINATE_TYPE>
1
5
255

> <PUBCHEM_BONDANNOTATIONS>
10  13  8
10  15  8
13  19  8
15  20  8
16  17  8
16  23  8
17  22  8
19  24  8
20  24  8
22  25  8
23  26  8
25  26  8
35  39  8
35  40  8
38  41  8
39  42  8
40  43  8
42  44  8
43  44  8
6  41  8
6  8  8
7  38  8
7  8  8
9  46  6

$$$$
