137635185
  -OEChem-09292322392D

 49 52  0     0  0  0  0  0  0999 V2000
    4.0745    1.8568    0.0000 S   0  0  0  0  0  0  0  0  0  0  0  0
    5.9710   -1.9302    0.0000 O   0  0  0  0  0  0  0  0  0  0  0  0
    4.9176    2.3945    0.0000 O   0  0  0  0  0  0  0  0  0  0  0  0
    3.2314    1.3190    0.0000 O   0  0  0  0  0  0  0  0  0  0  0  0
    4.6123    1.0137    0.0000 N   0  0  0  0  0  0  0  0  0  0  0  0
    7.7031   -2.9302    0.0000 N   0  0  0  0  0  0  0  0  0  0  0  0
    5.1050   -0.4302    0.0000 C   0  0  0  0  0  0  0  0  0  0  0  0
    4.2110    0.1044    0.0000 C   0  0  0  0  0  0  0  0  0  0  0  0
    5.9710    0.0698    0.0000 C   0  0  0  0  0  0  0  0  0  0  0  0
    5.6059    0.9941    0.0000 C   0  0  0  0  0  0  0  0  0  0  0  0
    5.1050   -1.4302    0.0000 C   0  0  0  0  0  0  0  0  0  0  0  0
    6.8370   -1.4302    0.0000 C   0  0  0  0  0  0  0  0  0  0  0  0
    7.7031   -1.9302    0.0000 C   0  0  0  0  0  0  0  0  0  0  0  0
    6.8370   -0.4302    0.0000 C   0  0  0  0  0  0  0  0  0  0  0  0
    3.3050   -0.4094    0.0000 C   0  0  0  0  0  0  0  0  0  0  0  0
    4.2110   -1.9649    0.0000 C   0  0  0  0  0  0  0  0  0  0  0  0
    8.5691   -3.4302    0.0000 C   0  0  0  0  0  0  0  0  0  0  0  0
    6.8370   -3.4302    0.0000 C   0  0  0  0  0  0  0  0  0  0  0  0
    3.3050   -1.4510    0.0000 C   0  0  0  0  0  0  0  0  0  0  0  0
    3.5368    2.6999    0.0000 C   0  0  0  0  0  0  0  0  0  0  0  0
    8.5691   -4.4302    0.0000 C   0  0  0  0  0  0  0  0  0  0  0  0
    6.8370   -4.4302    0.0000 C   0  0  0  0  0  0  0  0  0  0  0  0
    3.9980    3.5871    0.0000 C   0  0  0  0  0  0  0  0  0  0  0  0
    2.5378    2.6557    0.0000 C   0  0  0  0  0  0  0  0  0  0  0  0
    3.4603    4.4302    0.0000 C   0  0  0  0  0  0  0  0  0  0  0  0
    2.0000    3.4988    0.0000 C   0  0  0  0  0  0  0  0  0  0  0  0
    2.4613    4.3861    0.0000 C   0  0  0  0  0  0  0  0  0  0  0  0
    5.9596    1.5033    0.0000 H   0  0  0  0  0  0  0  0  0  0  0  0
    8.3136   -2.0379    0.0000 H   0  0  0  0  0  0  0  0  0  0  0  0
    7.9151   -1.3476    0.0000 H   0  0  0  0  0  0  0  0  0  0  0  0
    7.3740   -0.1202    0.0000 H   0  0  0  0  0  0  0  0  0  0  0  0
    2.7692   -0.0973    0.0000 H   0  0  0  0  0  0  0  0  0  0  0  0
    4.2182   -2.5848    0.0000 H   0  0  0  0  0  0  0  0  0  0  0  0
    9.1797   -3.5379    0.0000 H   0  0  0  0  0  0  0  0  0  0  0  0
    8.7811   -2.8476    0.0000 H   0  0  0  0  0  0  0  0  0  0  0  0
    6.6250   -2.8476    0.0000 H   0  0  0  0  0  0  0  0  0  0  0  0
    6.2264   -3.5379    0.0000 H   0  0  0  0  0  0  0  0  0  0  0  0
    2.7692   -1.7631    0.0000 H   0  0  0  0  0  0  0  0  0  0  0  0
    7.9491   -4.4302    0.0000 H   0  0  0  0  0  0  0  0  0  0  0  0
    8.5691   -5.0502    0.0000 H   0  0  0  0  0  0  0  0  0  0  0  0
    9.1891   -4.4302    0.0000 H   0  0  0  0  0  0  0  0  0  0  0  0
    6.2170   -4.4302    0.0000 H   0  0  0  0  0  0  0  0  0  0  0  0
    6.8370   -5.0502    0.0000 H   0  0  0  0  0  0  0  0  0  0  0  0
    7.4570   -4.4302    0.0000 H   0  0  0  0  0  0  0  0  0  0  0  0
    4.6174    3.6145    0.0000 H   0  0  0  0  0  0  0  0  0  0  0  0
    2.2518    2.1056    0.0000 H   0  0  0  0  0  0  0  0  0  0  0  0
    3.7463    4.9803    0.0000 H   0  0  0  0  0  0  0  0  0  0  0  0
    1.3806    3.4715    0.0000 H   0  0  0  0  0  0  0  0  0  0  0  0
    2.1279    4.9088    0.0000 H   0  0  0  0  0  0  0  0  0  0  0  0
  1  3  2  0  0  0  0
  1  4  2  0  0  0  0
  1  5  1  0  0  0  0
  1 20  1  0  0  0  0
  2 11  1  0  0  0  0
  2 12  1  0  0  0  0
  5  8  1  0  0  0  0
  5 10  1  0  0  0  0
  6 13  1  0  0  0  0
  6 17  1  0  0  0  0
  6 18  1  0  0  0  0
  7  8  2  0  0  0  0
  7  9  1  0  0  0  0
  7 11  1  0  0  0  0
  8 15  1  0  0  0  0
  9 10  2  0  0  0  0
  9 14  1  0  0  0  0
 10 28  1  0  0  0  0
 11 16  2  0  0  0  0
 12 13  1  0  0  0  0
 12 14  2  0  0  0  0
 13 29  1  0  0  0  0
 13 30  1  0  0  0  0
 14 31  1  0  0  0  0
 15 19  2  0  0  0  0
 15 32  1  0  0  0  0
 16 19  1  0  0  0  0
 16 33  1  0  0  0  0
 17 21  1  0  0  0  0
 17 34  1  0  0  0  0
 17 35  1  0  0  0  0
 18 22  1  0  0  0  0
 18 36  1  0  0  0  0
 18 37  1  0  0  0  0
 19 38  1  0  0  0  0
 20 23  2  0  0  0  0
 20 24  1  0  0  0  0
 21 39  1  0  0  0  0
 21 40  1  0  0  0  0
 21 41  1  0  0  0  0
 22 42  1  0  0  0  0
 22 43  1  0  0  0  0
 22 44  1  0  0  0  0
 23 25  1  0  0  0  0
 23 45  1  0  0  0  0
 24 26  2  0  0  0  0
 24 46  1  0  0  0  0
 25 27  2  0  0  0  0
 25 47  1  0  0  0  0
 26 27  1  0  0  0  0
 26 48  1  0  0  0  0
 27 49  1  0  0  0  0
M  END
> <PUBCHEM_COMPOUND_CID>
137635185

> <PUBCHEM_COMPOUND_CANONICALIZED>
1

> <PUBCHEM_CACTVS_COMPLEXITY>
647

> <PUBCHEM_CACTVS_HBOND_ACCEPTOR>
4

> <PUBCHEM_CACTVS_HBOND_DONOR>
0

> <PUBCHEM_CACTVS_ROTATABLE_BOND>
6

> <PUBCHEM_CACTVS_SUBSKEYS>
AAADceB7MABAAAAAAAAAAAAAAAAAAWAAAAAwYIAAAAAAAFiB9AAAHgQAQAAADAzB3gQ+x/MIFAKgAzRnRHDCiDAxIiAI2Dg+bJgOJuLEsZuHOCjmwBnY6Aew0OMOgAAAAgAKAAAAAAAEABQAAAAAAAAAAA==

> <PUBCHEM_IUPAC_OPENEYE_NAME>
N-[[2-(benzenesulfonyl)-7-oxa-2-azatricyclo[6.3.1.04,12]dodeca-1(12),3,5,8,10-pentaen-6-yl]methyl]-N-ethyl-ethanamine

> <PUBCHEM_IUPAC_CAS_NAME>
N-[[2-(benzenesulfonyl)-7-oxa-2-azatricyclo[6.3.1.04,12]dodeca-1(12),3,5,8,10-pentaen-6-yl]methyl]-N-ethylethanamine

> <PUBCHEM_IUPAC_NAME_MARKUP>
<I>N</I>-[[2-(benzenesulfonyl)-7-oxa-2-azatricyclo[6.3.1.0<SUP>4,12</SUP>]dodeca-1(12),3,5,8,10-pentaen-6-yl]methyl]-<I>N</I>-ethylethanamine

> <PUBCHEM_IUPAC_NAME>
N-[[2-(benzenesulfonyl)-7-oxa-2-azatricyclo[6.3.1.04,12]dodeca-1(12),3,5,8,10-pentaen-6-yl]methyl]-N-ethylethanamine

> <PUBCHEM_IUPAC_SYSTEMATIC_NAME>
N-ethyl-N-[[2-(phenylsulfonyl)-7-oxa-2-azatricyclo[6.3.1.04,12]dodeca-1(12),3,5,8,10-pentaen-6-yl]methyl]ethanamine

> <PUBCHEM_IUPAC_TRADITIONAL_NAME>
(2-besyl-7-oxa-2-azatricyclo[6.3.1.04,12]dodeca-1(12),3,5,8,10-pentaen-6-yl)methyl-diethyl-amine

> <PUBCHEM_IUPAC_INCHI>
InChI=1S/C21H22N2O3S/c1-3-22(4-2)15-17-13-16-14-23(19-11-8-12-20(26-17)21(16)19)27(24,25)18-9-6-5-7-10-18/h5-14H,3-4,15H2,1-2H3

> <PUBCHEM_IUPAC_INCHIKEY>
YPUNCYRZMZDDIB-UHFFFAOYSA-N

> <PUBCHEM_XLOGP3_AA>
3.9

> <PUBCHEM_EXACT_MASS>
382.13511374

> <PUBCHEM_MOLECULAR_FORMULA>
C21H22N2O3S

> <PUBCHEM_MOLECULAR_WEIGHT>
382.5

> <PUBCHEM_OPENEYE_CAN_SMILES>
CCN(CC)CC1=CC2=CN(C3=C2C(=CC=C3)O1)S(=O)(=O)C4=CC=CC=C4

> <PUBCHEM_OPENEYE_ISO_SMILES>
CCN(CC)CC1=CC2=CN(C3=C2C(=CC=C3)O1)S(=O)(=O)C4=CC=CC=C4

> <PUBCHEM_CACTVS_TPSA>
59.9

> <PUBCHEM_MONOISOTOPIC_WEIGHT>
382.13511374

> <PUBCHEM_TOTAL_CHARGE>
0

> <PUBCHEM_HEAVY_ATOM_COUNT>
27

> <PUBCHEM_ATOM_DEF_STEREO_COUNT>
0

> <PUBCHEM_ATOM_UDEF_STEREO_COUNT>
0

> <PUBCHEM_BOND_DEF_STEREO_COUNT>
0

> <PUBCHEM_BOND_UDEF_STEREO_COUNT>
0

> <PUBCHEM_ISOTOPIC_ATOM_COUNT>
0

> <PUBCHEM_COMPONENT_COUNT>
1

> <PUBCHEM_CACTVS_TAUTO_COUNT>
-1

> <PUBCHEM_COORDINATE_TYPE>
1
5
255

> <PUBCHEM_BONDANNOTATIONS>
11  16  8
15  19  8
16  19  8
20  23  8
20  24  8
23  25  8
24  26  8
25  27  8
26  27  8
5  10  8
5  8  8
7  11  8
7  8  8
7  9  8
8  15  8
9  10  8

$$$$
