118714496
  -OEChem-09292322352D

 58 60  0     0  0  0  0  0  0999 V2000
   11.1972    5.3100    0.0000 F   0  0  0  0  0  0  0  0  0  0  0  0
   12.1972    4.3100    0.0000 F   0  0  0  0  0  0  0  0  0  0  0  0
   10.1972    4.3100    0.0000 F   0  0  0  0  0  0  0  0  0  0  0  0
    4.2690   -4.6900    0.0000 O   0  0  0  0  0  0  0  0  0  0  0  0
    7.7331    0.3100    0.0000 N   0  0  0  0  0  0  0  0  0  0  0  0
    3.4030   -3.1900    0.0000 N   0  0  0  0  0  0  0  0  0  0  0  0
    9.4651    1.3100    0.0000 N   0  0  0  0  0  0  0  0  0  0  0  0
    2.5369   -4.6900    0.0000 N   0  0  0  0  0  0  0  0  0  0  0  0
   13.7953    0.8100    0.0000 N   0  0  0  0  0  0  0  0  0  0  0  0
    6.0010   -1.6900    0.0000 C   0  0  0  0  0  0  0  0  0  0  0  0
    6.0010   -2.6900    0.0000 C   0  0  0  0  0  0  0  0  0  0  0  0
    5.1350   -1.1900    0.0000 C   0  0  0  0  0  0  0  0  0  0  0  0
    4.2690   -2.6900    0.0000 C   0  0  0  0  0  0  0  0  0  0  0  0
    6.8671   -1.1900    0.0000 C   0  0  0  0  0  0  0  0  0  0  0  0
    5.1350   -3.1900    0.0000 C   0  0  0  0  0  0  0  0  0  0  0  0
    4.2690   -1.6900    0.0000 C   0  0  0  0  0  0  0  0  0  0  0  0
    6.8671   -0.1900    0.0000 C   0  0  0  0  0  0  0  0  0  0  0  0
    8.5991   -0.1900    0.0000 C   0  0  0  0  0  0  0  0  0  0  0  0
    7.7331    1.3100    0.0000 C   0  0  0  0  0  0  0  0  0  0  0  0
    9.4651    0.3100    0.0000 C   0  0  0  0  0  0  0  0  0  0  0  0
    8.5991    1.8100    0.0000 C   0  0  0  0  0  0  0  0  0  0  0  0
   10.3312    1.8100    0.0000 C   0  0  0  0  0  0  0  0  0  0  0  0
    3.4030   -4.1900    0.0000 C   0  0  0  0  0  0  0  0  0  0  0  0
   10.3312    2.8100    0.0000 C   0  0  0  0  0  0  0  0  0  0  0  0
   11.1972    1.3100    0.0000 C   0  0  0  0  0  0  0  0  0  0  0  0
   11.1972    3.3100    0.0000 C   0  0  0  0  0  0  0  0  0  0  0  0
   12.0632    1.8100    0.0000 C   0  0  0  0  0  0  0  0  0  0  0  0
   12.0632    2.8100    0.0000 C   0  0  0  0  0  0  0  0  0  0  0  0
   11.1972    4.3100    0.0000 C   0  0  0  0  0  0  0  0  0  0  0  0
   12.9292    1.3100    0.0000 C   0  0  0  0  0  0  0  0  0  0  0  0
    6.5380   -2.0000    0.0000 H   0  0  0  0  0  0  0  0  0  0  0  0
    6.2131   -3.2726    0.0000 H   0  0  0  0  0  0  0  0  0  0  0  0
    6.6116   -2.5823    0.0000 H   0  0  0  0  0  0  0  0  0  0  0  0
    5.5335   -0.7151    0.0000 H   0  0  0  0  0  0  0  0  0  0  0  0
    4.7365   -0.7151    0.0000 H   0  0  0  0  0  0  0  0  0  0  0  0
    4.2690   -3.3100    0.0000 H   0  0  0  0  0  0  0  0  0  0  0  0
    7.0791   -1.7726    0.0000 H   0  0  0  0  0  0  0  0  0  0  0  0
    7.4776   -1.0823    0.0000 H   0  0  0  0  0  0  0  0  0  0  0  0
    4.7365   -3.6650    0.0000 H   0  0  0  0  0  0  0  0  0  0  0  0
    5.5335   -3.6650    0.0000 H   0  0  0  0  0  0  0  0  0  0  0  0
    4.0569   -1.1074    0.0000 H   0  0  0  0  0  0  0  0  0  0  0  0
    3.6584   -1.7977    0.0000 H   0  0  0  0  0  0  0  0  0  0  0  0
    6.6550    0.3926    0.0000 H   0  0  0  0  0  0  0  0  0  0  0  0
    6.2565   -0.2977    0.0000 H   0  0  0  0  0  0  0  0  0  0  0  0
    8.2006   -0.6649    0.0000 H   0  0  0  0  0  0  0  0  0  0  0  0
    8.9976   -0.6649    0.0000 H   0  0  0  0  0  0  0  0  0  0  0  0
    7.5210    1.8926    0.0000 H   0  0  0  0  0  0  0  0  0  0  0  0
    7.1225    1.2023    0.0000 H   0  0  0  0  0  0  0  0  0  0  0  0
    2.8660   -2.8800    0.0000 H   0  0  0  0  0  0  0  0  0  0  0  0
    9.6772   -0.2726    0.0000 H   0  0  0  0  0  0  0  0  0  0  0  0
   10.0757    0.4177    0.0000 H   0  0  0  0  0  0  0  0  0  0  0  0
    8.9976    2.2849    0.0000 H   0  0  0  0  0  0  0  0  0  0  0  0
    8.2006    2.2849    0.0000 H   0  0  0  0  0  0  0  0  0  0  0  0
    9.7942    3.1200    0.0000 H   0  0  0  0  0  0  0  0  0  0  0  0
   11.1972    0.6900    0.0000 H   0  0  0  0  0  0  0  0  0  0  0  0
    2.5369   -5.3100    0.0000 H   0  0  0  0  0  0  0  0  0  0  0  0
    2.0000   -4.3800    0.0000 H   0  0  0  0  0  0  0  0  0  0  0  0
   12.6002    3.1200    0.0000 H   0  0  0  0  0  0  0  0  0  0  0  0
  1 29  1  0  0  0  0
  2 29  1  0  0  0  0
  3 29  1  0  0  0  0
  4 23  2  0  0  0  0
  5 17  1  0  0  0  0
  5 18  1  0  0  0  0
  5 19  1  0  0  0  0
  6 13  1  0  0  0  0
  6 23  1  0  0  0  0
  6 49  1  0  0  0  0
  7 20  1  0  0  0  0
  7 21  1  0  0  0  0
  7 22  1  0  0  0  0
  8 23  1  0  0  0  0
  8 56  1  0  0  0  0
  8 57  1  0  0  0  0
  9 30  3  0  0  0  0
 10 11  1  0  0  0  0
 10 12  1  0  0  0  0
 10 14  1  0  0  0  0
 10 31  1  0  0  0  0
 11 15  1  0  0  0  0
 11 32  1  0  0  0  0
 11 33  1  0  0  0  0
 12 16  1  0  0  0  0
 12 34  1  0  0  0  0
 12 35  1  0  0  0  0
 13 15  1  0  0  0  0
 13 16  1  0  0  0  0
 13 36  1  0  0  0  0
 14 17  1  0  0  0  0
 14 37  1  0  0  0  0
 14 38  1  0  0  0  0
 15 39  1  0  0  0  0
 15 40  1  0  0  0  0
 16 41  1  0  0  0  0
 16 42  1  0  0  0  0
 17 43  1  0  0  0  0
 17 44  1  0  0  0  0
 18 20  1  0  0  0  0
 18 45  1  0  0  0  0
 18 46  1  0  0  0  0
 19 21  1  0  0  0  0
 19 47  1  0  0  0  0
 19 48  1  0  0  0  0
 20 50  1  0  0  0  0
 20 51  1  0  0  0  0
 21 52  1  0  0  0  0
 21 53  1  0  0  0  0
 22 24  1  0  0  0  0
 22 25  2  0  0  0  0
 24 26  2  0  0  0  0
 24 54  1  0  0  0  0
 25 27  1  0  0  0  0
 25 55  1  0  0  0  0
 26 28  1  0  0  0  0
 26 29  1  0  0  0  0
 27 28  2  0  0  0  0
 27 30  1  0  0  0  0
 28 58  1  0  0  0  0
M  END
> <PUBCHEM_COMPOUND_CID>
118714496

> <PUBCHEM_COMPOUND_CANONICALIZED>
1

> <PUBCHEM_CACTVS_COMPLEXITY>
618

> <PUBCHEM_CACTVS_HBOND_ACCEPTOR>
7

> <PUBCHEM_CACTVS_HBOND_DONOR>
2

> <PUBCHEM_CACTVS_ROTATABLE_BOND>
5

> <PUBCHEM_CACTVS_SUBSKEYS>
AAADceB7oYAAAAAAAAAAAAAAAAAAAAAAAAA8YIAAAAAAAAABAAAAHwAQAAAADSjBGBQxwIPAAACYBiRCUACiAAAhAgAAiIAIZIiI4CLAkZGUIAhglgLIyA8QgMAOAAACQAAAAAAQAASAAAAAAAAAAAAAAA==

> <PUBCHEM_IUPAC_OPENEYE_NAME>
[4-[2-[4-[3-cyano-5-(trifluoromethyl)phenyl]piperazin-1-yl]ethyl]cyclohexyl]urea

> <PUBCHEM_IUPAC_CAS_NAME>
[4-[2-[4-[3-cyano-5-(trifluoromethyl)phenyl]-1-piperazinyl]ethyl]cyclohexyl]urea

> <PUBCHEM_IUPAC_NAME_MARKUP>
[4-[2-[4-[3-cyano-5-(trifluoromethyl)phenyl]piperazin-1-yl]ethyl]cyclohexyl]urea

> <PUBCHEM_IUPAC_NAME>
[4-[2-[4-[3-cyano-5-(trifluoromethyl)phenyl]piperazin-1-yl]ethyl]cyclohexyl]urea

> <PUBCHEM_IUPAC_SYSTEMATIC_NAME>
1-[4-[2-[4-[3-cyano-5-(trifluoromethyl)phenyl]piperazin-1-yl]ethyl]cyclohexyl]urea

> <PUBCHEM_IUPAC_TRADITIONAL_NAME>
[4-[2-[4-[3-cyano-5-(trifluoromethyl)phenyl]piperazino]ethyl]cyclohexyl]urea

> <PUBCHEM_IUPAC_INCHI>
InChI=1S/C21H28F3N5O/c22-21(23,24)17-11-16(14-25)12-19(13-17)29-9-7-28(8-10-29)6-5-15-1-3-18(4-2-15)27-20(26)30/h11-13,15,18H,1-10H2,(H3,26,27,30)

> <PUBCHEM_IUPAC_INCHIKEY>
QWPNEQOAVUPQBX-UHFFFAOYSA-N

> <PUBCHEM_XLOGP3_AA>
3.1

> <PUBCHEM_EXACT_MASS>
423.22459502

> <PUBCHEM_MOLECULAR_FORMULA>
C21H28F3N5O

> <PUBCHEM_MOLECULAR_WEIGHT>
423.5

> <PUBCHEM_OPENEYE_CAN_SMILES>
C1CC(CCC1CCN2CCN(CC2)C3=CC(=CC(=C3)C(F)(F)F)C#N)NC(=O)N

> <PUBCHEM_OPENEYE_ISO_SMILES>
C1CC(CCC1CCN2CCN(CC2)C3=CC(=CC(=C3)C(F)(F)F)C#N)NC(=O)N

> <PUBCHEM_CACTVS_TPSA>
85.4

> <PUBCHEM_MONOISOTOPIC_WEIGHT>
423.22459502

> <PUBCHEM_TOTAL_CHARGE>
0

> <PUBCHEM_HEAVY_ATOM_COUNT>
30

> <PUBCHEM_ATOM_DEF_STEREO_COUNT>
0

> <PUBCHEM_ATOM_UDEF_STEREO_COUNT>
0

> <PUBCHEM_BOND_DEF_STEREO_COUNT>
0

> <PUBCHEM_BOND_UDEF_STEREO_COUNT>
0

> <PUBCHEM_ISOTOPIC_ATOM_COUNT>
0

> <PUBCHEM_COMPONENT_COUNT>
1

> <PUBCHEM_CACTVS_TAUTO_COUNT>
-1

> <PUBCHEM_COORDINATE_TYPE>
1
5
255

> <PUBCHEM_BONDANNOTATIONS>
22  24  8
22  25  8
24  26  8
25  27  8
26  28  8
27  28  8

$$$$
