44341033
  -OEChem-09292322082D

 71 73  0     1  0  0  0  0  0999 V2000
    8.8070    6.3700    0.0000 O   0  0  0  0  0  0  0  0  0  0  0  0
   13.1371    5.8700    0.0000 O   0  0  0  0  0  0  0  0  0  0  0  0
    9.6730    4.8700    0.0000 O   0  0  0  0  0  0  0  0  0  0  0  0
   12.2711    7.3700    0.0000 O   0  0  0  0  0  0  0  0  0  0  0  0
    3.1350    3.6200    0.0000 N   0  0  0  0  0  0  0  0  0  0  0  0
    3.1350    6.6200    0.0000 N   0  0  3  0  0  0  0  0  0  0  0  0
    3.1350    5.6200    0.0000 C   0  0  0  0  0  0  0  0  0  0  0  0
    2.2690    5.1200    0.0000 C   0  0  0  0  0  0  0  0  0  0  0  0
    4.0010    5.1200    0.0000 C   0  0  0  0  0  0  0  0  0  0  0  0
    2.2690    4.1200    0.0000 C   0  0  0  0  0  0  0  0  0  0  0  0
    4.0010    4.1200    0.0000 C   0  0  0  0  0  0  0  0  0  0  0  0
    3.1350    2.6200    0.0000 C   0  0  0  0  0  0  0  0  0  0  0  0
    2.2690    7.1200    0.0000 C   0  0  0  0  0  0  0  0  0  0  0  0
    4.0010    7.1200    0.0000 C   0  0  0  0  0  0  0  0  0  0  0  0
    2.2690    2.1200    0.0000 C   0  0  0  0  0  0  0  0  0  0  0  0
    2.2690    8.1200    0.0000 C   0  0  0  0  0  0  0  0  0  0  0  0
    4.0010    8.1200    0.0000 C   0  0  0  0  0  0  0  0  0  0  0  0
    4.8671    6.6200    0.0000 C   0  0  0  0  0  0  0  0  0  0  0  0
    1.4030    2.6200    0.0000 C   0  0  0  0  0  0  0  0  0  0  0  0
    2.2690    1.1200    0.0000 C   0  0  0  0  0  0  0  0  0  0  0  0
    4.8671    8.6200    0.0000 C   0  0  0  0  0  0  0  0  0  0  0  0
    5.7331    7.1200    0.0000 C   0  0  0  0  0  0  0  0  0  0  0  0
    1.4030    8.6200    0.0000 C   0  0  0  0  0  0  0  0  0  0  0  0
    5.7331    8.1200    0.0000 C   0  0  0  0  0  0  0  0  0  0  0  0
    0.5369    2.1200    0.0000 C   0  0  0  0  0  0  0  0  0  0  0  0
    1.4030    0.6200    0.0000 C   0  0  0  0  0  0  0  0  0  0  0  0
    0.5369    1.1200    0.0000 C   0  0  0  0  0  0  0  0  0  0  0  0
    1.4030    9.6200    0.0000 C   0  0  0  0  0  0  0  0  0  0  0  0
    0.5369   10.1200    0.0000 C   0  0  0  0  0  0  0  0  0  0  0  0
    2.2690   10.1200    0.0000 C   0  0  0  0  0  0  0  0  0  0  0  0
    0.5369   11.1200    0.0000 C   0  0  0  0  0  0  0  0  0  0  0  0
    2.2690   11.1200    0.0000 C   0  0  0  0  0  0  0  0  0  0  0  0
    1.4030   11.6200    0.0000 C   0  0  0  0  0  0  0  0  0  0  0  0
   10.5390    6.3700    0.0000 C   0  0  0  0  0  0  0  0  0  0  0  0
   11.4050    5.8700    0.0000 C   0  0  0  0  0  0  0  0  0  0  0  0
    9.6730    5.8700    0.0000 C   0  0  0  0  0  0  0  0  0  0  0  0
   12.2711    6.3700    0.0000 C   0  0  0  0  0  0  0  0  0  0  0  0
    3.6720    5.9300    0.0000 H   0  0  0  0  0  0  0  0  0  0  0  0
    2.0569    5.7026    0.0000 H   0  0  0  0  0  0  0  0  0  0  0  0
    1.6584    5.0123    0.0000 H   0  0  0  0  0  0  0  0  0  0  0  0
    4.6116    5.0123    0.0000 H   0  0  0  0  0  0  0  0  0  0  0  0
    4.2131    5.7026    0.0000 H   0  0  0  0  0  0  0  0  0  0  0  0
    1.6584    4.2277    0.0000 H   0  0  0  0  0  0  0  0  0  0  0  0
    2.0569    3.5374    0.0000 H   0  0  0  0  0  0  0  0  0  0  0  0
    4.2131    3.5374    0.0000 H   0  0  0  0  0  0  0  0  0  0  0  0
    4.6116    4.2277    0.0000 H   0  0  0  0  0  0  0  0  0  0  0  0
    3.3471    2.0374    0.0000 H   0  0  0  0  0  0  0  0  0  0  0  0
    3.7456    2.7277    0.0000 H   0  0  0  0  0  0  0  0  0  0  0  0
    1.6584    7.2277    0.0000 H   0  0  0  0  0  0  0  0  0  0  0  0
    2.0569    6.5374    0.0000 H   0  0  0  0  0  0  0  0  0  0  0  0
    2.8059    8.4300    0.0000 H   0  0  0  0  0  0  0  0  0  0  0  0
    3.4641    8.4300    0.0000 H   0  0  0  0  0  0  0  0  0  0  0  0
    4.8671    6.0000    0.0000 H   0  0  0  0  0  0  0  0  0  0  0  0
    1.4030    3.2400    0.0000 H   0  0  0  0  0  0  0  0  0  0  0  0
    2.8059    0.8100    0.0000 H   0  0  0  0  0  0  0  0  0  0  0  0
    4.8671    9.2400    0.0000 H   0  0  0  0  0  0  0  0  0  0  0  0
    6.2700    6.8100    0.0000 H   0  0  0  0  0  0  0  0  0  0  0  0
    0.8660    8.3100    0.0000 H   0  0  0  0  0  0  0  0  0  0  0  0
    6.2700    8.4300    0.0000 H   0  0  0  0  0  0  0  0  0  0  0  0
    0.0000    2.4300    0.0000 H   0  0  0  0  0  0  0  0  0  0  0  0
    1.4030    0.0000    0.0000 H   0  0  0  0  0  0  0  0  0  0  0  0
    0.0000    0.8100    0.0000 H   0  0  0  0  0  0  0  0  0  0  0  0
    0.0000    9.8100    0.0000 H   0  0  0  0  0  0  0  0  0  0  0  0
    2.8059    9.8100    0.0000 H   0  0  0  0  0  0  0  0  0  0  0  0
    0.0000   11.4300    0.0000 H   0  0  0  0  0  0  0  0  0  0  0  0
    2.8059   11.4300    0.0000 H   0  0  0  0  0  0  0  0  0  0  0  0
    1.4030   12.2400    0.0000 H   0  0  0  0  0  0  0  0  0  0  0  0
   10.5390    6.9900    0.0000 H   0  0  0  0  0  0  0  0  0  0  0  0
   11.4050    5.2500    0.0000 H   0  0  0  0  0  0  0  0  0  0  0  0
    8.2700    6.0600    0.0000 H   0  0  0  0  0  0  0  0  0  0  0  0
   13.6740    6.1800    0.0000 H   0  0  0  0  0  0  0  0  0  0  0  0
  1 36  1  0  0  0  0
  1 70  1  0  0  0  0
  2 37  1  0  0  0  0
  2 71  1  0  0  0  0
  3 36  2  0  0  0  0
  4 37  2  0  0  0  0
  5 10  1  0  0  0  0
  5 11  1  0  0  0  0
  5 12  1  0  0  0  0
  6  7  1  0  0  0  0
  6 13  1  0  0  0  0
  6 14  1  0  0  0  0
  7  8  1  0  0  0  0
  7  9  1  0  0  0  0
  7 38  1  0  0  0  0
  8 10  1  0  0  0  0
  8 39  1  0  0  0  0
  8 40  1  0  0  0  0
  9 11  1  0  0  0  0
  9 41  1  0  0  0  0
  9 42  1  0  0  0  0
 10 43  1  0  0  0  0
 10 44  1  0  0  0  0
 11 45  1  0  0  0  0
 11 46  1  0  0  0  0
 12 15  1  0  0  0  0
 12 47  1  0  0  0  0
 12 48  1  0  0  0  0
 13 16  1  0  0  0  0
 13 49  1  0  0  0  0
 13 50  1  0  0  0  0
 14 17  2  0  0  0  0
 14 18  1  0  0  0  0
 15 19  2  0  0  0  0
 15 20  1  0  0  0  0
 16 23  2  0  0  0  0
 16 51  1  0  0  0  0
 17 21  1  0  0  0  0
 17 52  1  0  0  0  0
 18 22  2  0  0  0  0
 18 53  1  0  0  0  0
 19 25  1  0  0  0  0
 19 54  1  0  0  0  0
 20 26  2  0  0  0  0
 20 55  1  0  0  0  0
 21 24  2  0  0  0  0
 21 56  1  0  0  0  0
 22 24  1  0  0  0  0
 22 57  1  0  0  0  0
 23 28  1  0  0  0  0
 23 58  1  0  0  0  0
 24 59  1  0  0  0  0
 25 27  2  0  0  0  0
 25 60  1  0  0  0  0
 26 27  1  0  0  0  0
 26 61  1  0  0  0  0
 27 62  1  0  0  0  0
 28 29  2  0  0  0  0
 28 30  1  0  0  0  0
 29 31  1  0  0  0  0
 29 63  1  0  0  0  0
 30 32  2  0  0  0  0
 30 64  1  0  0  0  0
 31 33  2  0  0  0  0
 31 65  1  0  0  0  0
 32 33  1  0  0  0  0
 32 66  1  0  0  0  0
 33 67  1  0  0  0  0
 34 35  2  0  0  0  0
 34 36  1  0  0  0  0
 34 68  1  0  0  0  0
 35 37  1  0  0  0  0
 35 69  1  0  0  0  0
M  END
> <PUBCHEM_COMPOUND_CID>
44341033

> <PUBCHEM_COMPOUND_CANONICALIZED>
1

> <PUBCHEM_CACTVS_COMPLEXITY>
580

> <PUBCHEM_CACTVS_HBOND_ACCEPTOR>
6

> <PUBCHEM_CACTVS_HBOND_DONOR>
2

> <PUBCHEM_CACTVS_ROTATABLE_BOND>
9

> <PUBCHEM_CACTVS_SUBSKEYS>
AAADcfB7OAAAAAAAAAAAAAAAAAAAAAAAAAA8YMEAAAAAAAABUAAAHgAACAAADCjBmAQwyIMAAgCIAiTSSACCAAAhAgAIiAAIZMgIJCLA0ZGEMAhggADI2YcQgAAOAAAAAAAAAAAAAAAAAAAAAAAAAAAAAA==

> <PUBCHEM_IUPAC_OPENEYE_NAME>
1-benzyl-N-[(E)-cinnamyl]-N-phenyl-piperidin-4-amine;fumaric acid

> <PUBCHEM_IUPAC_CAS_NAME>
(E)-2-butenedioic acid;N-phenyl-1-(phenylmethyl)-N-[(E)-3-phenylprop-2-enyl]-4-piperidinamine

> <PUBCHEM_IUPAC_NAME_MARKUP>
1-benzyl-<I>N</I>-phenyl-<I>N</I>-[(<I>E</I>)-3-phenylprop-2-enyl]piperidin-4-amine;(<I>E</I>)-but-2-enedioic acid

> <PUBCHEM_IUPAC_NAME>
1-benzyl-N-phenyl-N-[(E)-3-phenylprop-2-enyl]piperidin-4-amine;(E)-but-2-enedioic acid

> <PUBCHEM_IUPAC_SYSTEMATIC_NAME>
(E)-but-2-enedioic acid;N-phenyl-1-(phenylmethyl)-N-[(E)-3-phenylprop-2-enyl]piperidin-4-amine

> <PUBCHEM_IUPAC_TRADITIONAL_NAME>
(1-benzyl-4-piperidyl)-[(E)-cinnamyl]-phenyl-amine;fumaric acid

> <PUBCHEM_IUPAC_INCHI>
InChI=1S/C27H30N2.C4H4O4/c1-4-11-24(12-5-1)15-10-20-29(26-16-8-3-9-17-26)27-18-21-28(22-19-27)23-25-13-6-2-7-14-25;5-3(6)1-2-4(7)8/h1-17,27H,18-23H2;1-2H,(H,5,6)(H,7,8)/b15-10+;2-1+

> <PUBCHEM_IUPAC_INCHIKEY>
WCXOWTJHPPKZLX-ISDHSLPTSA-N

> <PUBCHEM_EXACT_MASS>
498.25185757

> <PUBCHEM_MOLECULAR_FORMULA>
C31H34N2O4

> <PUBCHEM_MOLECULAR_WEIGHT>
498.6

> <PUBCHEM_OPENEYE_CAN_SMILES>
C1CN(CCC1N(CC=CC2=CC=CC=C2)C3=CC=CC=C3)CC4=CC=CC=C4.C(=CC(=O)O)C(=O)O

> <PUBCHEM_OPENEYE_ISO_SMILES>
C1CN(CCC1N(C/C=C/C2=CC=CC=C2)C3=CC=CC=C3)CC4=CC=CC=C4.C(=C/C(=O)O)\C(=O)O

> <PUBCHEM_CACTVS_TPSA>
81.1

> <PUBCHEM_MONOISOTOPIC_WEIGHT>
498.25185757

> <PUBCHEM_TOTAL_CHARGE>
0

> <PUBCHEM_HEAVY_ATOM_COUNT>
37

> <PUBCHEM_ATOM_DEF_STEREO_COUNT>
0

> <PUBCHEM_ATOM_UDEF_STEREO_COUNT>
0

> <PUBCHEM_BOND_DEF_STEREO_COUNT>
2

> <PUBCHEM_BOND_UDEF_STEREO_COUNT>
0

> <PUBCHEM_ISOTOPIC_ATOM_COUNT>
0

> <PUBCHEM_COMPONENT_COUNT>
2

> <PUBCHEM_CACTVS_TAUTO_COUNT>
-1

> <PUBCHEM_COORDINATE_TYPE>
1
5
255

> <PUBCHEM_BONDANNOTATIONS>
14  17  8
14  18  8
15  19  8
15  20  8
17  21  8
18  22  8
19  25  8
20  26  8
21  24  8
22  24  8
25  27  8
26  27  8
28  29  8
28  30  8
29  31  8
30  32  8
31  33  8
32  33  8

$$$$
