72198014
  -OEChem-09292322332D

 68 73  0     1  0  0  0  0  0999 V2000
   10.5564    1.1273    0.0000 O   0  0  0  0  0  0  0  0  0  0  0  0
    9.8305    4.5718    0.0000 O   0  0  0  0  0  0  0  0  0  0  0  0
    2.8660   -2.1777    0.0000 O   0  0  0  0  0  0  0  0  0  0  0  0
    7.3423    0.4786    0.0000 N   0  0  0  0  0  0  0  0  0  0  0  0
    9.9206    2.7920    0.0000 N   0  0  0  0  0  0  0  0  0  0  0  0
    6.4103   -3.9825    0.0000 N   0  0  0  0  0  0  0  0  0  0  0  0
   13.6347    1.1307    0.0000 N   0  0  0  0  0  0  0  0  0  0  0  0
    6.7210   -1.4225    0.0000 C   0  0  0  0  0  0  0  0  0  0  0  0
    6.0531   -0.6782    0.0000 C   0  0  0  0  0  0  0  0  0  0  0  0
    7.6995   -1.2162    0.0000 C   0  0  0  0  0  0  0  0  0  0  0  0
    6.3638    0.2724    0.0000 C   0  0  0  0  0  0  0  0  0  0  0  0
    8.0102   -0.2657    0.0000 C   0  0  0  0  0  0  0  0  0  0  0  0
    7.6530    1.4291    0.0000 C   0  0  0  0  0  0  0  0  0  0  0  0
    6.4103   -2.3730    0.0000 C   0  0  0  0  0  0  0  0  0  0  0  0
    8.6315    1.6353    0.0000 C   0  0  0  0  0  0  0  0  0  0  0  0
    8.9421    2.5858    0.0000 C   0  0  0  0  0  0  0  0  0  0  0  0
    5.4641   -2.6777    0.0000 C   0  0  0  0  0  0  0  0  0  0  0  0
   11.5295    2.6201    0.0000 C   0  0  3  0  0  0  0  0  0  0  0  0
    6.9939   -3.1777    0.0000 C   0  0  0  0  0  0  0  0  0  0  0  0
   11.3233    3.5986    0.0000 C   0  0  0  0  0  0  0  0  0  0  0  0
   10.6626    2.1216    0.0000 C   0  0  0  0  0  0  0  0  0  0  0  0
    5.4641   -3.6777    0.0000 C   0  0  0  0  0  0  0  0  0  0  0  0
   10.3290    3.7049    0.0000 C   0  0  0  0  0  0  0  0  0  0  0  0
   12.4424    2.2118    0.0000 C   0  0  0  0  0  0  0  0  0  0  0  0
    4.5981   -2.1777    0.0000 C   0  0  0  0  0  0  0  0  0  0  0  0
   13.3037    2.7081    0.0000 C   0  0  0  0  0  0  0  0  0  0  0  0
    4.5981   -4.1777    0.0000 C   0  0  0  0  0  0  0  0  0  0  0  0
   12.6465    1.2389    0.0000 C   0  0  0  0  0  0  0  0  0  0  0  0
   14.0445    2.0364    0.0000 C   0  0  0  0  0  0  0  0  0  0  0  0
    3.7320   -2.6777    0.0000 C   0  0  0  0  0  0  0  0  0  0  0  0
    3.7320   -3.6777    0.0000 C   0  0  0  0  0  0  0  0  0  0  0  0
   13.5150    3.6855    0.0000 C   0  0  0  0  0  0  0  0  0  0  0  0
   14.9966    2.3421    0.0000 C   0  0  0  0  0  0  0  0  0  0  0  0
   14.4671    3.9913    0.0000 C   0  0  0  0  0  0  0  0  0  0  0  0
   15.2079    3.3196    0.0000 C   0  0  0  0  0  0  0  0  0  0  0  0
    2.0000   -2.6777    0.0000 C   0  0  0  0  0  0  0  0  0  0  0  0
    6.1143   -1.5503    0.0000 H   0  0  0  0  0  0  0  0  0  0  0  0
    5.5062   -0.3861    0.0000 H   0  0  0  0  0  0  0  0  0  0  0  0
    5.6706   -1.1661    0.0000 H   0  0  0  0  0  0  0  0  0  0  0  0
    7.7201   -1.8359    0.0000 H   0  0  0  0  0  0  0  0  0  0  0  0
    8.3133   -1.3036    0.0000 H   0  0  0  0  0  0  0  0  0  0  0  0
    6.3432    0.8920    0.0000 H   0  0  0  0  0  0  0  0  0  0  0  0
    5.7500    0.3597    0.0000 H   0  0  0  0  0  0  0  0  0  0  0  0
    8.5571   -0.5578    0.0000 H   0  0  0  0  0  0  0  0  0  0  0  0
    8.3927    0.2222    0.0000 H   0  0  0  0  0  0  0  0  0  0  0  0
    7.6324    2.0488    0.0000 H   0  0  0  0  0  0  0  0  0  0  0  0
    7.0392    1.5164    0.0000 H   0  0  0  0  0  0  0  0  0  0  0  0
    8.6520    1.0156    0.0000 H   0  0  0  0  0  0  0  0  0  0  0  0
    9.2453    1.5480    0.0000 H   0  0  0  0  0  0  0  0  0  0  0  0
    8.9216    3.2055    0.0000 H   0  0  0  0  0  0  0  0  0  0  0  0
    8.3283    2.6732    0.0000 H   0  0  0  0  0  0  0  0  0  0  0  0
   12.0120    3.0095    0.0000 H   0  0  0  0  0  0  0  0  0  0  0  0
    7.6139   -3.1777    0.0000 H   0  0  0  0  0  0  0  0  0  0  0  0
   11.9400    3.6624    0.0000 H   0  0  0  0  0  0  0  0  0  0  0  0
   11.3244    4.2186    0.0000 H   0  0  0  0  0  0  0  0  0  0  0  0
    6.6029   -4.5718    0.0000 H   0  0  0  0  0  0  0  0  0  0  0  0
    4.5981   -1.5577    0.0000 H   0  0  0  0  0  0  0  0  0  0  0  0
    4.5981   -4.7977    0.0000 H   0  0  0  0  0  0  0  0  0  0  0  0
   12.2301    0.7796    0.0000 H   0  0  0  0  0  0  0  0  0  0  0  0
   13.9419    0.5922    0.0000 H   0  0  0  0  0  0  0  0  0  0  0  0
    3.1951   -3.9877    0.0000 H   0  0  0  0  0  0  0  0  0  0  0  0
   13.0557    4.1020    0.0000 H   0  0  0  0  0  0  0  0  0  0  0  0
   15.4559    1.9257    0.0000 H   0  0  0  0  0  0  0  0  0  0  0  0
   14.5981    4.5973    0.0000 H   0  0  0  0  0  0  0  0  0  0  0  0
   15.7982    3.5091    0.0000 H   0  0  0  0  0  0  0  0  0  0  0  0
    1.6900   -2.1408    0.0000 H   0  0  0  0  0  0  0  0  0  0  0  0
    1.4631   -2.9877    0.0000 H   0  0  0  0  0  0  0  0  0  0  0  0
    2.3100   -3.2147    0.0000 H   0  0  0  0  0  0  0  0  0  0  0  0
  1 21  2  0  0  0  0
  2 23  2  0  0  0  0
  3 30  1  0  0  0  0
  3 36  1  0  0  0  0
  4 11  1  0  0  0  0
  4 12  1  0  0  0  0
  4 13  1  0  0  0  0
  5 16  1  0  0  0  0
  5 21  1  0  0  0  0
  5 23  1  0  0  0  0
  6 19  1  0  0  0  0
  6 22  1  0  0  0  0
  6 56  1  0  0  0  0
  7 28  1  0  0  0  0
  7 29  1  0  0  0  0
  7 60  1  0  0  0  0
  8  9  1  0  0  0  0
  8 10  1  0  0  0  0
  8 14  1  0  0  0  0
  8 37  1  0  0  0  0
  9 11  1  0  0  0  0
  9 38  1  0  0  0  0
  9 39  1  0  0  0  0
 10 12  1  0  0  0  0
 10 40  1  0  0  0  0
 10 41  1  0  0  0  0
 11 42  1  0  0  0  0
 11 43  1  0  0  0  0
 12 44  1  0  0  0  0
 12 45  1  0  0  0  0
 13 15  1  0  0  0  0
 13 46  1  0  0  0  0
 13 47  1  0  0  0  0
 14 17  1  0  0  0  0
 14 19  2  0  0  0  0
 15 16  1  0  0  0  0
 15 48  1  0  0  0  0
 15 49  1  0  0  0  0
 16 50  1  0  0  0  0
 16 51  1  0  0  0  0
 17 22  2  0  0  0  0
 17 25  1  0  0  0  0
 18 20  1  0  0  0  0
 18 21  1  0  0  0  0
 18 24  1  0  0  0  0
 18 52  1  0  0  0  0
 19 53  1  0  0  0  0
 20 23  1  0  0  0  0
 20 54  1  0  0  0  0
 20 55  1  0  0  0  0
 22 27  1  0  0  0  0
 24 26  1  0  0  0  0
 24 28  2  0  0  0  0
 25 30  2  0  0  0  0
 25 57  1  0  0  0  0
 26 29  1  0  0  0  0
 26 32  2  0  0  0  0
 27 31  2  0  0  0  0
 27 58  1  0  0  0  0
 28 59  1  0  0  0  0
 29 33  2  0  0  0  0
 30 31  1  0  0  0  0
 31 61  1  0  0  0  0
 32 34  1  0  0  0  0
 32 62  1  0  0  0  0
 33 35  1  0  0  0  0
 33 63  1  0  0  0  0
 34 35  2  0  0  0  0
 34 64  1  0  0  0  0
 35 65  1  0  0  0  0
 36 66  1  0  0  0  0
 36 67  1  0  0  0  0
 36 68  1  0  0  0  0
M  END
> <PUBCHEM_COMPOUND_CID>
72198014

> <PUBCHEM_COMPOUND_CANONICALIZED>
1

> <PUBCHEM_CACTVS_COMPLEXITY>
799

> <PUBCHEM_CACTVS_HBOND_ACCEPTOR>
4

> <PUBCHEM_CACTVS_HBOND_DONOR>
2

> <PUBCHEM_CACTVS_ROTATABLE_BOND>
7

> <PUBCHEM_CACTVS_SUBSKEYS>
AAADcfB7sAAAAAAAAAAAAAAAAAAAAWLFgAA8YIAAAAAAAFgB/gAAHgAQAAAADQzBngY+xvPJlACoAzV3VACCiCAxIiAI2aE+bJgMJvLE9ZuEMChk1jHI6Ae92fKegEABAAACAAAAgAIAAAQAAAAAAAAAAA==

> <PUBCHEM_IUPAC_OPENEYE_NAME>
3-(1H-indol-3-yl)-1-[3-[4-(5-methoxy-1H-indol-3-yl)-1-piperidyl]propyl]pyrrolidine-2,5-dione

> <PUBCHEM_IUPAC_CAS_NAME>
3-(1H-indol-3-yl)-1-[3-[4-(5-methoxy-1H-indol-3-yl)-1-piperidinyl]propyl]pyrrolidine-2,5-dione

> <PUBCHEM_IUPAC_NAME_MARKUP>
3-(1<I>H</I>-indol-3-yl)-1-[3-[4-(5-methoxy-1<I>H</I>-indol-3-yl)piperidin-1-yl]propyl]pyrrolidine-2,5-dione

> <PUBCHEM_IUPAC_NAME>
3-(1H-indol-3-yl)-1-[3-[4-(5-methoxy-1H-indol-3-yl)piperidin-1-yl]propyl]pyrrolidine-2,5-dione

> <PUBCHEM_IUPAC_SYSTEMATIC_NAME>
3-(1H-indol-3-yl)-1-[3-[4-(5-methoxy-1H-indol-3-yl)piperidin-1-yl]propyl]pyrrolidine-2,5-dione

> <PUBCHEM_IUPAC_TRADITIONAL_NAME>
3-(1H-indol-3-yl)-1-[3-[4-(5-methoxy-1H-indol-3-yl)piperidino]propyl]pyrrolidine-2,5-quinone

> <PUBCHEM_IUPAC_INCHI>
InChI=1S/C29H32N4O3/c1-36-20-7-8-27-22(15-20)24(17-30-27)19-9-13-32(14-10-19)11-4-12-33-28(34)16-23(29(33)35)25-18-31-26-6-3-2-5-21(25)26/h2-3,5-8,15,17-19,23,30-31H,4,9-14,16H2,1H3

> <PUBCHEM_IUPAC_INCHIKEY>
ZYUVIRYBRCERLS-UHFFFAOYSA-N

> <PUBCHEM_XLOGP3_AA>
3.7

> <PUBCHEM_EXACT_MASS>
484.24744090

> <PUBCHEM_MOLECULAR_FORMULA>
C29H32N4O3

> <PUBCHEM_MOLECULAR_WEIGHT>
484.6

> <PUBCHEM_OPENEYE_CAN_SMILES>
COC1=CC2=C(C=C1)NC=C2C3CCN(CC3)CCCN4C(=O)CC(C4=O)C5=CNC6=CC=CC=C65

> <PUBCHEM_OPENEYE_ISO_SMILES>
COC1=CC2=C(C=C1)NC=C2C3CCN(CC3)CCCN4C(=O)CC(C4=O)C5=CNC6=CC=CC=C65

> <PUBCHEM_CACTVS_TPSA>
81.4

> <PUBCHEM_MONOISOTOPIC_WEIGHT>
484.24744090

> <PUBCHEM_TOTAL_CHARGE>
0

> <PUBCHEM_HEAVY_ATOM_COUNT>
36

> <PUBCHEM_ATOM_DEF_STEREO_COUNT>
0

> <PUBCHEM_ATOM_UDEF_STEREO_COUNT>
1

> <PUBCHEM_BOND_DEF_STEREO_COUNT>
0

> <PUBCHEM_BOND_UDEF_STEREO_COUNT>
0

> <PUBCHEM_ISOTOPIC_ATOM_COUNT>
0

> <PUBCHEM_COMPONENT_COUNT>
1

> <PUBCHEM_CACTVS_TAUTO_COUNT>
-1

> <PUBCHEM_COORDINATE_TYPE>
1
5
255

> <PUBCHEM_BONDANNOTATIONS>
14  17  8
14  19  8
17  22  8
17  25  8
18  24  3
22  27  8
24  26  8
24  28  8
25  30  8
26  29  8
26  32  8
27  31  8
29  33  8
30  31  8
32  34  8
33  35  8
34  35  8
6  19  8
6  22  8
7  28  8
7  29  8

$$$$
