23630903
  -OEChem-09292322252D

 70 75  0     1  0  0  0  0  0999 V2000
    9.5606   -0.9074    0.0000 S   0  0  0  0  0  0  0  0  0  0  0  0
   18.9967    2.1913    0.0000 O   0  0  0  0  0  0  0  0  0  0  0  0
   12.5606    0.8247    0.0000 N   0  0  3  0  0  0  0  0  0  0  0  0
    7.9728   -1.7164    0.0000 N   0  0  0  0  0  0  0  0  0  0  0  0
   18.3305    1.4456    0.0000 N   0  0  0  0  0  0  0  0  0  0  0  0
    7.9728   -0.0984    0.0000 N   0  0  0  0  0  0  0  0  0  0  0  0
    7.0218   -0.4074    0.0000 N   0  0  0  0  0  0  0  0  0  0  0  0
    3.7616   -3.7959    0.0000 N   0  0  0  0  0  0  0  0  0  0  0  0
   12.9945    1.7256    0.0000 C   0  0  0  0  0  0  0  0  0  0  0  0
   12.9945   -0.0763    0.0000 C   0  0  0  0  0  0  0  0  0  0  0  0
   13.9694    1.9481    0.0000 C   0  0  0  0  0  0  0  0  0  0  0  0
   13.9694   -0.2988    0.0000 C   0  0  0  0  0  0  0  0  0  0  0  0
   14.7513    1.3247    0.0000 C   0  0  0  0  0  0  0  0  0  0  0  0
   14.7513    0.3247    0.0000 C   0  0  0  0  0  0  0  0  0  0  0  0
   11.5606    0.8247    0.0000 C   0  0  0  0  0  0  0  0  0  0  0  0
   11.0606   -0.0414    0.0000 C   0  0  0  0  0  0  0  0  0  0  0  0
   15.6452    1.8593    0.0000 C   0  0  0  0  0  0  0  0  0  0  0  0
   15.6452   -0.2100    0.0000 C   0  0  0  0  0  0  0  0  0  0  0  0
   16.5513    1.3455    0.0000 C   0  0  0  0  0  0  0  0  0  0  0  0
   10.0606   -0.0414    0.0000 C   0  0  0  0  0  0  0  0  0  0  0  0
   16.5513    0.3038    0.0000 C   0  0  0  0  0  0  0  0  0  0  0  0
   17.4154    1.8488    0.0000 C   0  0  0  0  0  0  0  0  0  0  0  0
   17.5160    2.8437    0.0000 C   0  0  0  0  0  0  0  0  0  0  0  0
    8.5606   -0.9074    0.0000 C   0  0  0  0  0  0  0  0  0  0  0  0
   18.4934    3.0554    0.0000 C   0  0  0  0  0  0  0  0  0  0  0  0
    7.0218   -1.4074    0.0000 C   0  0  0  0  0  0  0  0  0  0  0  0
    6.2128   -1.9952    0.0000 C   0  0  0  0  0  0  0  0  0  0  0  0
    8.2818   -2.6675    0.0000 C   0  0  0  0  0  0  0  0  0  0  0  0
    5.2992   -1.5884    0.0000 C   0  0  0  0  0  0  0  0  0  0  0  0
    4.4902   -2.1762    0.0000 C   0  0  0  0  0  0  0  0  0  0  0  0
   18.8966    3.9705    0.0000 C   0  0  0  0  0  0  0  0  0  0  0  0
    6.3173   -2.9897    0.0000 C   0  0  0  0  0  0  0  0  0  0  0  0
    4.5947   -3.1708    0.0000 C   0  0  0  0  0  0  0  0  0  0  0  0
    5.5083   -3.5775    0.0000 C   0  0  0  0  0  0  0  0  0  0  0  0
    3.5453   -1.7379    0.0000 C   0  0  0  0  0  0  0  0  0  0  0  0
    2.8068   -3.3796    0.0000 C   0  0  0  0  0  0  0  0  0  0  0  0
    2.6979   -2.3437    0.0000 C   0  0  0  0  0  0  0  0  0  0  0  0
    2.0000   -3.9705    0.0000 C   0  0  0  0  0  0  0  0  0  0  0  0
   12.9945    2.3456    0.0000 H   0  0  0  0  0  0  0  0  0  0  0  0
   12.3900    1.8636    0.0000 H   0  0  0  0  0  0  0  0  0  0  0  0
   12.3900   -0.2143    0.0000 H   0  0  0  0  0  0  0  0  0  0  0  0
   12.9945   -0.6963    0.0000 H   0  0  0  0  0  0  0  0  0  0  0  0
   14.4542    2.3347    0.0000 H   0  0  0  0  0  0  0  0  0  0  0  0
   13.7004    2.5067    0.0000 H   0  0  0  0  0  0  0  0  0  0  0  0
   13.7004   -0.8574    0.0000 H   0  0  0  0  0  0  0  0  0  0  0  0
   14.4542   -0.6854    0.0000 H   0  0  0  0  0  0  0  0  0  0  0  0
   11.6683    1.4352    0.0000 H   0  0  0  0  0  0  0  0  0  0  0  0
   10.9780    1.0367    0.0000 H   0  0  0  0  0  0  0  0  0  0  0  0
   10.9529   -0.6520    0.0000 H   0  0  0  0  0  0  0  0  0  0  0  0
   11.6432   -0.2534    0.0000 H   0  0  0  0  0  0  0  0  0  0  0  0
   15.6380    2.4793    0.0000 H   0  0  0  0  0  0  0  0  0  0  0  0
   15.6380   -0.8300    0.0000 H   0  0  0  0  0  0  0  0  0  0  0  0
   10.1683    0.5692    0.0000 H   0  0  0  0  0  0  0  0  0  0  0  0
    9.4780    0.1707    0.0000 H   0  0  0  0  0  0  0  0  0  0  0  0
   17.0870   -0.0082    0.0000 H   0  0  0  0  0  0  0  0  0  0  0  0
   17.0537    3.2568    0.0000 H   0  0  0  0  0  0  0  0  0  0  0  0
    7.6922   -2.8591    0.0000 H   0  0  0  0  0  0  0  0  0  0  0  0
    8.4734   -3.2571    0.0000 H   0  0  0  0  0  0  0  0  0  0  0  0
    8.8715   -2.4759    0.0000 H   0  0  0  0  0  0  0  0  0  0  0  0
    5.2344   -0.9718    0.0000 H   0  0  0  0  0  0  0  0  0  0  0  0
    6.8837   -3.2419    0.0000 H   0  0  0  0  0  0  0  0  0  0  0  0
   19.4640    3.7205    0.0000 H   0  0  0  0  0  0  0  0  0  0  0  0
   19.1466    4.5379    0.0000 H   0  0  0  0  0  0  0  0  0  0  0  0
   18.3292    4.2205    0.0000 H   0  0  0  0  0  0  0  0  0  0  0  0
    5.5731   -4.1941    0.0000 H   0  0  0  0  0  0  0  0  0  0  0  0
    3.4876   -1.1206    0.0000 H   0  0  0  0  0  0  0  0  0  0  0  0
    2.1324   -2.0893    0.0000 H   0  0  0  0  0  0  0  0  0  0  0  0
    1.6336   -3.4703    0.0000 H   0  0  0  0  0  0  0  0  0  0  0  0
    1.4998   -4.3369    0.0000 H   0  0  0  0  0  0  0  0  0  0  0  0
    2.3664   -4.4707    0.0000 H   0  0  0  0  0  0  0  0  0  0  0  0
  1 20  1  0  0  0  0
  1 24  1  0  0  0  0
  2  5  1  0  0  0  0
  2 25  1  0  0  0  0
  3  9  1  0  0  0  0
  3 10  1  0  0  0  0
  3 15  1  0  0  0  0
  4 24  1  0  0  0  0
  4 26  1  0  0  0  0
  4 28  1  0  0  0  0
  5 22  2  0  0  0  0
  6  7  1  0  0  0  0
  6 24  2  0  0  0  0
  7 26  2  0  0  0  0
  8 33  1  0  0  0  0
  8 36  2  0  0  0  0
  9 11  1  0  0  0  0
  9 39  1  0  0  0  0
  9 40  1  0  0  0  0
 10 12  1  0  0  0  0
 10 41  1  0  0  0  0
 10 42  1  0  0  0  0
 11 13  1  0  0  0  0
 11 43  1  0  0  0  0
 11 44  1  0  0  0  0
 12 14  1  0  0  0  0
 12 45  1  0  0  0  0
 12 46  1  0  0  0  0
 13 14  2  0  0  0  0
 13 17  1  0  0  0  0
 14 18  1  0  0  0  0
 15 16  1  0  0  0  0
 15 47  1  0  0  0  0
 15 48  1  0  0  0  0
 16 20  1  0  0  0  0
 16 49  1  0  0  0  0
 16 50  1  0  0  0  0
 17 19  2  0  0  0  0
 17 51  1  0  0  0  0
 18 21  2  0  0  0  0
 18 52  1  0  0  0  0
 19 21  1  0  0  0  0
 19 22  1  0  0  0  0
 20 53  1  0  0  0  0
 20 54  1  0  0  0  0
 21 55  1  0  0  0  0
 22 23  1  0  0  0  0
 23 25  2  0  0  0  0
 23 56  1  0  0  0  0
 25 31  1  0  0  0  0
 26 27  1  0  0  0  0
 27 29  2  0  0  0  0
 27 32  1  0  0  0  0
 28 57  1  0  0  0  0
 28 58  1  0  0  0  0
 28 59  1  0  0  0  0
 29 30  1  0  0  0  0
 29 60  1  0  0  0  0
 30 33  2  0  0  0  0
 30 35  1  0  0  0  0
 31 62  1  0  0  0  0
 31 63  1  0  0  0  0
 31 64  1  0  0  0  0
 32 34  2  0  0  0  0
 32 61  1  0  0  0  0
 33 34  1  0  0  0  0
 34 65  1  0  0  0  0
 35 37  2  0  0  0  0
 35 66  1  0  0  0  0
 36 37  1  0  0  0  0
 36 38  1  0  0  0  0
 37 67  1  0  0  0  0
 38 68  1  0  0  0  0
 38 69  1  0  0  0  0
 38 70  1  0  0  0  0
M  END
> <PUBCHEM_COMPOUND_CID>
23630903

> <PUBCHEM_COMPOUND_CANONICALIZED>
1

> <PUBCHEM_CACTVS_COMPLEXITY>
760

> <PUBCHEM_CACTVS_HBOND_ACCEPTOR>
7

> <PUBCHEM_CACTVS_HBOND_DONOR>
0

> <PUBCHEM_CACTVS_ROTATABLE_BOND>
7

> <PUBCHEM_CACTVS_SUBSKEYS>
AAADcfB7oABAAAAAAAAAAAAAAAAAAWLAAAA8YIAABYAAAACx/gAAHgQMAAAADAzF3wSz1PccEAirA6ZyZgCS0CtlIrA92CE+bNqILvrgmZOEMYhmiBrIyUeYyOCOyAACAAASAACQAAQAACQAAAAAAAAAAA==

> <PUBCHEM_IUPAC_OPENEYE_NAME>
5-methyl-3-[3-[3-[[4-methyl-5-(2-methyl-6-quinolyl)-1,2,4-triazol-3-yl]sulfanyl]propyl]-1,2,4,5-tetrahydro-3-benzazepin-7-yl]isoxazole

> <PUBCHEM_IUPAC_CAS_NAME>
5-methyl-3-[3-[3-[[4-methyl-5-(2-methyl-6-quinolinyl)-1,2,4-triazol-3-yl]thio]propyl]-1,2,4,5-tetrahydro-3-benzazepin-7-yl]isoxazole

> <PUBCHEM_IUPAC_NAME_MARKUP>
5-methyl-3-[3-[3-[[4-methyl-5-(2-methylquinolin-6-yl)-1,2,4-triazol-3-yl]sulfanyl]propyl]-1,2,4,5-tetrahydro-3-benzazepin-7-yl]-1,2-oxazole

> <PUBCHEM_IUPAC_NAME>
5-methyl-3-[3-[3-[[4-methyl-5-(2-methylquinolin-6-yl)-1,2,4-triazol-3-yl]sulfanyl]propyl]-1,2,4,5-tetrahydro-3-benzazepin-7-yl]-1,2-oxazole

> <PUBCHEM_IUPAC_SYSTEMATIC_NAME>
5-methyl-3-[3-[3-[[4-methyl-5-(2-methylquinolin-6-yl)-1,2,4-triazol-3-yl]sulfanyl]propyl]-1,2,4,5-tetrahydro-3-benzazepin-7-yl]-1,2-oxazole

> <PUBCHEM_IUPAC_TRADITIONAL_NAME>
5-methyl-3-[3-[3-[[4-methyl-5-(2-methyl-6-quinolyl)-1,2,4-triazol-3-yl]thio]propyl]-1,2,4,5-tetrahydro-3-benzazepin-7-yl]isoxazole

> <PUBCHEM_IUPAC_INCHI>
InChI=1S/C30H32N6OS/c1-20-5-6-24-19-26(9-10-27(24)31-20)29-32-33-30(35(29)3)38-16-4-13-36-14-11-22-7-8-25(18-23(22)12-15-36)28-17-21(2)37-34-28/h5-10,17-19H,4,11-16H2,1-3H3

> <PUBCHEM_IUPAC_INCHIKEY>
WJWXIOHJLIZWJX-UHFFFAOYSA-N

> <PUBCHEM_XLOGP3_AA>
5.5

> <PUBCHEM_EXACT_MASS>
524.23583084

> <PUBCHEM_MOLECULAR_FORMULA>
C30H32N6OS

> <PUBCHEM_MOLECULAR_WEIGHT>
524.7

> <PUBCHEM_OPENEYE_CAN_SMILES>
CC1=NC2=C(C=C1)C=C(C=C2)C3=NN=C(N3C)SCCCN4CCC5=C(CC4)C=C(C=C5)C6=NOC(=C6)C

> <PUBCHEM_OPENEYE_ISO_SMILES>
CC1=NC2=C(C=C1)C=C(C=C2)C3=NN=C(N3C)SCCCN4CCC5=C(CC4)C=C(C=C5)C6=NOC(=C6)C

> <PUBCHEM_CACTVS_TPSA>
98.2

> <PUBCHEM_MONOISOTOPIC_WEIGHT>
524.23583084

> <PUBCHEM_TOTAL_CHARGE>
0

> <PUBCHEM_HEAVY_ATOM_COUNT>
38

> <PUBCHEM_ATOM_DEF_STEREO_COUNT>
0

> <PUBCHEM_ATOM_UDEF_STEREO_COUNT>
0

> <PUBCHEM_BOND_DEF_STEREO_COUNT>
0

> <PUBCHEM_BOND_UDEF_STEREO_COUNT>
0

> <PUBCHEM_ISOTOPIC_ATOM_COUNT>
0

> <PUBCHEM_COMPONENT_COUNT>
1

> <PUBCHEM_CACTVS_TAUTO_COUNT>
-1

> <PUBCHEM_COORDINATE_TYPE>
1
5
255

> <PUBCHEM_BONDANNOTATIONS>
13  14  8
13  17  8
14  18  8
17  19  8
18  21  8
19  21  8
2  25  8
2  5  8
22  23  8
23  25  8
27  29  8
27  32  8
29  30  8
30  33  8
30  35  8
32  34  8
33  34  8
35  37  8
36  37  8
4  24  8
4  26  8
5  22  8
6  24  8
6  7  8
7  26  8
8  33  8
8  36  8

$$$$
