9800145
  -OEChem-09292322342D

 53 56  0     0  0  0  0  0  0999 V2000
   14.0561    1.0530    0.0000 S   0  0  0  0  0  0  0  0  0  0  0  0
    4.5981   -1.4470    0.0000 O   0  0  0  0  0  0  0  0  0  0  0  0
    6.3301    1.5530    0.0000 N   0  0  0  0  0  0  0  0  0  0  0  0
    4.5981    0.5530    0.0000 N   0  0  0  0  0  0  0  0  0  0  0  0
   12.4725    1.8577    0.0000 N   0  0  0  0  0  0  0  0  0  0  0  0
   12.4725    0.2482    0.0000 N   0  0  0  0  0  0  0  0  0  0  0  0
    5.4641    2.0530    0.0000 C   0  0  0  0  0  0  0  0  0  0  0  0
    6.3301    0.5530    0.0000 C   0  0  0  0  0  0  0  0  0  0  0  0
    4.5981    1.5530    0.0000 C   0  0  0  0  0  0  0  0  0  0  0  0
    5.4641    0.0530    0.0000 C   0  0  0  0  0  0  0  0  0  0  0  0
    7.1962    2.0530    0.0000 C   0  0  0  0  0  0  0  0  0  0  0  0
    8.0622    1.5530    0.0000 C   0  0  0  0  0  0  0  0  0  0  0  0
    3.7320    0.0530    0.0000 C   0  0  0  0  0  0  0  0  0  0  0  0
    8.9282    2.0530    0.0000 C   0  0  0  0  0  0  0  0  0  0  0  0
    9.7942    1.5530    0.0000 C   0  0  0  0  0  0  0  0  0  0  0  0
    3.7320   -0.9470    0.0000 C   0  0  0  0  0  0  0  0  0  0  0  0
    2.8660    0.5530    0.0000 C   0  0  0  0  0  0  0  0  0  0  0  0
   10.6603    2.0530    0.0000 C   0  0  0  0  0  0  0  0  0  0  0  0
    9.7942    0.5530    0.0000 C   0  0  0  0  0  0  0  0  0  0  0  0
   11.5263    1.5530    0.0000 C   0  0  0  0  0  0  0  0  0  0  0  0
   11.5263    0.5530    0.0000 C   0  0  0  0  0  0  0  0  0  0  0  0
    2.8660   -1.4470    0.0000 C   0  0  0  0  0  0  0  0  0  0  0  0
    2.0000    0.0530    0.0000 C   0  0  0  0  0  0  0  0  0  0  0  0
   10.6603    0.0530    0.0000 C   0  0  0  0  0  0  0  0  0  0  0  0
    2.0000   -0.9470    0.0000 C   0  0  0  0  0  0  0  0  0  0  0  0
   13.0561    1.0530    0.0000 C   0  0  0  0  0  0  0  0  0  0  0  0
    4.5981   -2.4470    0.0000 C   0  0  0  0  0  0  0  0  0  0  0  0
    5.8626    2.5279    0.0000 H   0  0  0  0  0  0  0  0  0  0  0  0
    5.0656    2.5279    0.0000 H   0  0  0  0  0  0  0  0  0  0  0  0
    6.5422   -0.0296    0.0000 H   0  0  0  0  0  0  0  0  0  0  0  0
    6.9407    0.6606    0.0000 H   0  0  0  0  0  0  0  0  0  0  0  0
    4.3860    2.1356    0.0000 H   0  0  0  0  0  0  0  0  0  0  0  0
    3.9875    1.4453    0.0000 H   0  0  0  0  0  0  0  0  0  0  0  0
    5.0656   -0.4220    0.0000 H   0  0  0  0  0  0  0  0  0  0  0  0
    5.8626   -0.4220    0.0000 H   0  0  0  0  0  0  0  0  0  0  0  0
    7.5947    2.5279    0.0000 H   0  0  0  0  0  0  0  0  0  0  0  0
    6.7976    2.5279    0.0000 H   0  0  0  0  0  0  0  0  0  0  0  0
    7.6636    1.0780    0.0000 H   0  0  0  0  0  0  0  0  0  0  0  0
    8.4607    1.0780    0.0000 H   0  0  0  0  0  0  0  0  0  0  0  0
    9.3267    2.5279    0.0000 H   0  0  0  0  0  0  0  0  0  0  0  0
    8.5297    2.5279    0.0000 H   0  0  0  0  0  0  0  0  0  0  0  0
    2.8660    1.1730    0.0000 H   0  0  0  0  0  0  0  0  0  0  0  0
   10.6603    2.6730    0.0000 H   0  0  0  0  0  0  0  0  0  0  0  0
    9.2573    0.2430    0.0000 H   0  0  0  0  0  0  0  0  0  0  0  0
    2.8660   -2.0670    0.0000 H   0  0  0  0  0  0  0  0  0  0  0  0
    1.4631    0.3630    0.0000 H   0  0  0  0  0  0  0  0  0  0  0  0
   10.6603   -0.5670    0.0000 H   0  0  0  0  0  0  0  0  0  0  0  0
    1.4631   -1.2570    0.0000 H   0  0  0  0  0  0  0  0  0  0  0  0
   12.6651    2.4470    0.0000 H   0  0  0  0  0  0  0  0  0  0  0  0
   12.6651   -0.3411    0.0000 H   0  0  0  0  0  0  0  0  0  0  0  0
    3.9781   -2.4470    0.0000 H   0  0  0  0  0  0  0  0  0  0  0  0
    4.5981   -3.0670    0.0000 H   0  0  0  0  0  0  0  0  0  0  0  0
    5.2181   -2.4470    0.0000 H   0  0  0  0  0  0  0  0  0  0  0  0
  1 26  2  0  0  0  0
  2 16  1  0  0  0  0
  2 27  1  0  0  0  0
  3  7  1  0  0  0  0
  3  8  1  0  0  0  0
  3 11  1  0  0  0  0
  4  9  1  0  0  0  0
  4 10  1  0  0  0  0
  4 13  1  0  0  0  0
  5 20  1  0  0  0  0
  5 26  1  0  0  0  0
  5 49  1  0  0  0  0
  6 21  1  0  0  0  0
  6 26  1  0  0  0  0
  6 50  1  0  0  0  0
  7  9  1  0  0  0  0
  7 28  1  0  0  0  0
  7 29  1  0  0  0  0
  8 10  1  0  0  0  0
  8 30  1  0  0  0  0
  8 31  1  0  0  0  0
  9 32  1  0  0  0  0
  9 33  1  0  0  0  0
 10 34  1  0  0  0  0
 10 35  1  0  0  0  0
 11 12  1  0  0  0  0
 11 36  1  0  0  0  0
 11 37  1  0  0  0  0
 12 14  1  0  0  0  0
 12 38  1  0  0  0  0
 12 39  1  0  0  0  0
 13 16  1  0  0  0  0
 13 17  2  0  0  0  0
 14 15  1  0  0  0  0
 14 40  1  0  0  0  0
 14 41  1  0  0  0  0
 15 18  2  0  0  0  0
 15 19  1  0  0  0  0
 16 22  2  0  0  0  0
 17 23  1  0  0  0  0
 17 42  1  0  0  0  0
 18 20  1  0  0  0  0
 18 43  1  0  0  0  0
 19 24  2  0  0  0  0
 19 44  1  0  0  0  0
 20 21  2  0  0  0  0
 21 24  1  0  0  0  0
 22 25  1  0  0  0  0
 22 45  1  0  0  0  0
 23 25  2  0  0  0  0
 23 46  1  0  0  0  0
 24 47  1  0  0  0  0
 25 48  1  0  0  0  0
 27 51  1  0  0  0  0
 27 52  1  0  0  0  0
 27 53  1  0  0  0  0
M  END
> <PUBCHEM_COMPOUND_CID>
9800145

> <PUBCHEM_COMPOUND_CANONICALIZED>
1

> <PUBCHEM_CACTVS_COMPLEXITY>
497

> <PUBCHEM_CACTVS_HBOND_ACCEPTOR>
4

> <PUBCHEM_CACTVS_HBOND_DONOR>
2

> <PUBCHEM_CACTVS_ROTATABLE_BOND>
6

> <PUBCHEM_CACTVS_SUBSKEYS>
AAADceB7oABAAAAAAAAAAAAAAAAAAWAAAAA8YIAAAAAAAFgBQAAAHgQQAAAADAzBmAYzxoPABACEAiRCQACCCAAhIgkIiAAPfIiOZiLEsZuVMChs0BPY6CeQwIAOCAAAQAAAECAQAACAAAAgQAAAAAAAAA==

> <PUBCHEM_IUPAC_OPENEYE_NAME>
5-[3-[4-(2-methoxyphenyl)piperazin-1-yl]propyl]-1,3-dihydrobenzimidazole-2-thione

> <PUBCHEM_IUPAC_CAS_NAME>
5-[3-[4-(2-methoxyphenyl)-1-piperazinyl]propyl]-1,3-dihydrobenzimidazole-2-thione

> <PUBCHEM_IUPAC_NAME_MARKUP>
5-[3-[4-(2-methoxyphenyl)piperazin-1-yl]propyl]-1,3-dihydrobenzimidazole-2-thione

> <PUBCHEM_IUPAC_NAME>
5-[3-[4-(2-methoxyphenyl)piperazin-1-yl]propyl]-1,3-dihydrobenzimidazole-2-thione

> <PUBCHEM_IUPAC_SYSTEMATIC_NAME>
5-[3-[4-(2-methoxyphenyl)piperazin-1-yl]propyl]-1,3-dihydrobenzimidazole-2-thione

> <PUBCHEM_IUPAC_TRADITIONAL_NAME>
5-[3-[4-(2-methoxyphenyl)piperazino]propyl]-1,3-dihydrobenzimidazole-2-thione

> <PUBCHEM_IUPAC_INCHI>
InChI=1S/C21H26N4OS/c1-26-20-7-3-2-6-19(20)25-13-11-24(12-14-25)10-4-5-16-8-9-17-18(15-16)23-21(27)22-17/h2-3,6-9,15H,4-5,10-14H2,1H3,(H2,22,23,27)

> <PUBCHEM_IUPAC_INCHIKEY>
WGYLSXPWKYVIGW-UHFFFAOYSA-N

> <PUBCHEM_XLOGP3_AA>
3.4

> <PUBCHEM_EXACT_MASS>
382.18273264

> <PUBCHEM_MOLECULAR_FORMULA>
C21H26N4OS

> <PUBCHEM_MOLECULAR_WEIGHT>
382.5

> <PUBCHEM_OPENEYE_CAN_SMILES>
COC1=CC=CC=C1N2CCN(CC2)CCCC3=CC4=C(C=C3)NC(=S)N4

> <PUBCHEM_OPENEYE_ISO_SMILES>
COC1=CC=CC=C1N2CCN(CC2)CCCC3=CC4=C(C=C3)NC(=S)N4

> <PUBCHEM_CACTVS_TPSA>
71.9

> <PUBCHEM_MONOISOTOPIC_WEIGHT>
382.18273264

> <PUBCHEM_TOTAL_CHARGE>
0

> <PUBCHEM_HEAVY_ATOM_COUNT>
27

> <PUBCHEM_ATOM_DEF_STEREO_COUNT>
0

> <PUBCHEM_ATOM_UDEF_STEREO_COUNT>
0

> <PUBCHEM_BOND_DEF_STEREO_COUNT>
0

> <PUBCHEM_BOND_UDEF_STEREO_COUNT>
0

> <PUBCHEM_ISOTOPIC_ATOM_COUNT>
0

> <PUBCHEM_COMPONENT_COUNT>
1

> <PUBCHEM_CACTVS_TAUTO_COUNT>
-1

> <PUBCHEM_COORDINATE_TYPE>
1
5
255

> <PUBCHEM_BONDANNOTATIONS>
13  16  8
13  17  8
15  18  8
15  19  8
16  22  8
17  23  8
18  20  8
19  24  8
20  21  8
21  24  8
22  25  8
23  25  8
5  20  8
5  26  8
6  21  8
6  26  8

$$$$
