15021876
  -OEChem-09292322192D

 51 54  0     1  0  0  0  0  0999 V2000
    2.0000    1.4827    0.0000 F   0  0  0  0  0  0  0  0  0  0  0  0
    5.4641   -1.5173    0.0000 O   0  0  0  0  0  0  0  0  0  0  0  0
   10.6603   -1.5173    0.0000 O   0  0  0  0  0  0  0  0  0  0  0  0
    8.0622    0.9827    0.0000 N   0  0  0  0  0  0  0  0  0  0  0  0
    9.7942    0.9827    0.0000 C   0  0  3  0  0  0  0  0  0  0  0  0
    8.9282    1.4827    0.0000 C   0  0  0  0  0  0  0  0  0  0  0  0
    6.3301   -0.0173    0.0000 C   0  0  0  0  0  0  0  0  0  0  0  0
    7.1962    1.4827    0.0000 C   0  0  0  0  0  0  0  0  0  0  0  0
    8.0622   -0.0173    0.0000 C   0  0  0  0  0  0  0  0  0  0  0  0
    6.3301    0.9827    0.0000 C   0  0  0  0  0  0  0  0  0  0  0  0
    7.1962   -0.5173    0.0000 C   0  0  0  0  0  0  0  0  0  0  0  0
   10.6603    1.4827    0.0000 C   0  0  0  0  0  0  0  0  0  0  0  0
    9.7942   -0.0173    0.0000 C   0  0  0  0  0  0  0  0  0  0  0  0
   11.5263    0.9827    0.0000 C   0  0  0  0  0  0  0  0  0  0  0  0
    5.4641   -0.5173    0.0000 C   0  0  0  0  0  0  0  0  0  0  0  0
   10.6603   -0.5173    0.0000 C   0  0  0  0  0  0  0  0  0  0  0  0
   11.5263   -0.0173    0.0000 C   0  0  0  0  0  0  0  0  0  0  0  0
   12.4202    1.5173    0.0000 C   0  0  0  0  0  0  0  0  0  0  0  0
    4.5981   -0.0173    0.0000 C   0  0  0  0  0  0  0  0  0  0  0  0
   12.4202   -0.5520    0.0000 C   0  0  0  0  0  0  0  0  0  0  0  0
   13.3263    1.0035    0.0000 C   0  0  0  0  0  0  0  0  0  0  0  0
   13.3263   -0.0381    0.0000 C   0  0  0  0  0  0  0  0  0  0  0  0
    4.5981    0.9827    0.0000 C   0  0  0  0  0  0  0  0  0  0  0  0
    3.7320   -0.5173    0.0000 C   0  0  0  0  0  0  0  0  0  0  0  0
    3.7320    1.4827    0.0000 C   0  0  0  0  0  0  0  0  0  0  0  0
    2.8660   -0.0173    0.0000 C   0  0  0  0  0  0  0  0  0  0  0  0
    2.8660    0.9827    0.0000 C   0  0  0  0  0  0  0  0  0  0  0  0
    9.2573    0.6727    0.0000 H   0  0  0  0  0  0  0  0  0  0  0  0
    9.3267    1.9576    0.0000 H   0  0  0  0  0  0  0  0  0  0  0  0
    8.5297    1.9576    0.0000 H   0  0  0  0  0  0  0  0  0  0  0  0
    5.7932    0.2927    0.0000 H   0  0  0  0  0  0  0  0  0  0  0  0
    7.5947    1.9576    0.0000 H   0  0  0  0  0  0  0  0  0  0  0  0
    6.7976    1.9576    0.0000 H   0  0  0  0  0  0  0  0  0  0  0  0
    8.2742   -0.5999    0.0000 H   0  0  0  0  0  0  0  0  0  0  0  0
    8.6728    0.0903    0.0000 H   0  0  0  0  0  0  0  0  0  0  0  0
    6.1181    1.5653    0.0000 H   0  0  0  0  0  0  0  0  0  0  0  0
    5.7196    0.8750    0.0000 H   0  0  0  0  0  0  0  0  0  0  0  0
    6.7976   -0.9923    0.0000 H   0  0  0  0  0  0  0  0  0  0  0  0
    7.5947   -0.9923    0.0000 H   0  0  0  0  0  0  0  0  0  0  0  0
   11.0588    1.9576    0.0000 H   0  0  0  0  0  0  0  0  0  0  0  0
   10.2617    1.9576    0.0000 H   0  0  0  0  0  0  0  0  0  0  0  0
    9.1836    0.0903    0.0000 H   0  0  0  0  0  0  0  0  0  0  0  0
    9.5822   -0.5999    0.0000 H   0  0  0  0  0  0  0  0  0  0  0  0
   12.4131    2.1373    0.0000 H   0  0  0  0  0  0  0  0  0  0  0  0
   12.4131   -1.1720    0.0000 H   0  0  0  0  0  0  0  0  0  0  0  0
   13.8620    1.3156    0.0000 H   0  0  0  0  0  0  0  0  0  0  0  0
   13.8620   -0.3502    0.0000 H   0  0  0  0  0  0  0  0  0  0  0  0
    5.1350    1.2927    0.0000 H   0  0  0  0  0  0  0  0  0  0  0  0
    3.7320   -1.1373    0.0000 H   0  0  0  0  0  0  0  0  0  0  0  0
    3.7320    2.1027    0.0000 H   0  0  0  0  0  0  0  0  0  0  0  0
    2.3291   -0.3273    0.0000 H   0  0  0  0  0  0  0  0  0  0  0  0
  1 27  1  0  0  0  0
  2 15  2  0  0  0  0
  3 16  2  0  0  0  0
  4  6  1  0  0  0  0
  4  8  1  0  0  0  0
  4  9  1  0  0  0  0
  5  6  1  0  0  0  0
  5 12  1  0  0  0  0
  5 13  1  0  0  0  0
  5 28  1  0  0  0  0
  6 29  1  0  0  0  0
  6 30  1  0  0  0  0
  7 10  1  0  0  0  0
  7 11  1  0  0  0  0
  7 15  1  0  0  0  0
  7 31  1  0  0  0  0
  8 10  1  0  0  0  0
  8 32  1  0  0  0  0
  8 33  1  0  0  0  0
  9 11  1  0  0  0  0
  9 34  1  0  0  0  0
  9 35  1  0  0  0  0
 10 36  1  0  0  0  0
 10 37  1  0  0  0  0
 11 38  1  0  0  0  0
 11 39  1  0  0  0  0
 12 14  1  0  0  0  0
 12 40  1  0  0  0  0
 12 41  1  0  0  0  0
 13 16  1  0  0  0  0
 13 42  1  0  0  0  0
 13 43  1  0  0  0  0
 14 17  1  0  0  0  0
 14 18  2  0  0  0  0
 15 19  1  0  0  0  0
 16 17  1  0  0  0  0
 17 20  2  0  0  0  0
 18 21  1  0  0  0  0
 18 44  1  0  0  0  0
 19 23  2  0  0  0  0
 19 24  1  0  0  0  0
 20 22  1  0  0  0  0
 20 45  1  0  0  0  0
 21 22  2  0  0  0  0
 21 46  1  0  0  0  0
 22 47  1  0  0  0  0
 23 25  1  0  0  0  0
 23 48  1  0  0  0  0
 24 26  2  0  0  0  0
 24 49  1  0  0  0  0
 25 27  2  0  0  0  0
 25 50  1  0  0  0  0
 26 27  1  0  0  0  0
 26 51  1  0  0  0  0
M  END
> <PUBCHEM_COMPOUND_CID>
15021876

> <PUBCHEM_COMPOUND_CANONICALIZED>
1

> <PUBCHEM_CACTVS_COMPLEXITY>
535

> <PUBCHEM_CACTVS_HBOND_ACCEPTOR>
4

> <PUBCHEM_CACTVS_HBOND_DONOR>
0

> <PUBCHEM_CACTVS_ROTATABLE_BOND>
4

> <PUBCHEM_CACTVS_SUBSKEYS>
AAADceB6MQAAAAAAAAAAAAAAAAAAAAAAAAA8YMEAAAAAAADBQAAAHwAAAAAADQTBmAwwAIMAAACIAqBSAAACAAAkAAAIiAEIAMgIIDKAlRCEIQAggACIiYcciMCOgAAAAAAQAACAAAQAACAAAAAAAAAAAA==

> <PUBCHEM_IUPAC_OPENEYE_NAME>
3-[[4-(4-fluorobenzoyl)-1-piperidyl]methyl]tetralin-1-one

> <PUBCHEM_IUPAC_CAS_NAME>
3-[[4-[(4-fluorophenyl)-oxomethyl]-1-piperidinyl]methyl]-3,4-dihydro-2H-naphthalen-1-one

> <PUBCHEM_IUPAC_NAME_MARKUP>
3-[[4-(4-fluorobenzoyl)piperidin-1-yl]methyl]-3,4-dihydro-2<I>H</I>-naphthalen-1-one

> <PUBCHEM_IUPAC_NAME>
3-[[4-(4-fluorobenzoyl)piperidin-1-yl]methyl]-3,4-dihydro-2H-naphthalen-1-one

> <PUBCHEM_IUPAC_SYSTEMATIC_NAME>
3-[[4-(4-fluorophenyl)carbonylpiperidin-1-yl]methyl]-3,4-dihydro-2H-naphthalen-1-one

> <PUBCHEM_IUPAC_TRADITIONAL_NAME>
3-[[4-(4-fluorobenzoyl)piperidino]methyl]tetralin-1-one

> <PUBCHEM_IUPAC_INCHI>
InChI=1S/C23H24FNO2/c24-20-7-5-17(6-8-20)23(27)18-9-11-25(12-10-18)15-16-13-19-3-1-2-4-21(19)22(26)14-16/h1-8,16,18H,9-15H2

> <PUBCHEM_IUPAC_INCHIKEY>
JFVJCLYJXOVMSI-UHFFFAOYSA-N

> <PUBCHEM_XLOGP3_AA>
3.9

> <PUBCHEM_EXACT_MASS>
365.17910717

> <PUBCHEM_MOLECULAR_FORMULA>
C23H24FNO2

> <PUBCHEM_MOLECULAR_WEIGHT>
365.4

> <PUBCHEM_OPENEYE_CAN_SMILES>
C1CN(CCC1C(=O)C2=CC=C(C=C2)F)CC3CC4=CC=CC=C4C(=O)C3

> <PUBCHEM_OPENEYE_ISO_SMILES>
C1CN(CCC1C(=O)C2=CC=C(C=C2)F)CC3CC4=CC=CC=C4C(=O)C3

> <PUBCHEM_CACTVS_TPSA>
37.4

> <PUBCHEM_MONOISOTOPIC_WEIGHT>
365.17910717

> <PUBCHEM_TOTAL_CHARGE>
0

> <PUBCHEM_HEAVY_ATOM_COUNT>
27

> <PUBCHEM_ATOM_DEF_STEREO_COUNT>
0

> <PUBCHEM_ATOM_UDEF_STEREO_COUNT>
1

> <PUBCHEM_BOND_DEF_STEREO_COUNT>
0

> <PUBCHEM_BOND_UDEF_STEREO_COUNT>
0

> <PUBCHEM_ISOTOPIC_ATOM_COUNT>
0

> <PUBCHEM_COMPONENT_COUNT>
1

> <PUBCHEM_CACTVS_TAUTO_COUNT>
-1

> <PUBCHEM_COORDINATE_TYPE>
1
5
255

> <PUBCHEM_BONDANNOTATIONS>
14  17  8
14  18  8
17  20  8
18  21  8
19  23  8
19  24  8
20  22  8
21  22  8
23  25  8
24  26  8
25  27  8
26  27  8
5  6  3

$$$$
