25156132
  -OEChem-09292322502D

 76 79  0     0  0  0  0  0  0999 V2000
    8.9282    3.2500    0.0000 O   0  0  0  0  0  0  0  0  0  0  0  0
    4.5981   -4.2500    0.0000 O   0  0  0  0  0  0  0  0  0  0  0  0
    2.8660    4.7500    0.0000 O   0  0  0  0  0  0  0  0  0  0  0  0
    6.3301   -1.2500    0.0000 N   0  0  0  0  0  0  0  0  0  0  0  0
    6.3301   -3.2500    0.0000 N   0  0  0  0  0  0  0  0  0  0  0  0
    7.1962   -1.7500    0.0000 C   0  0  0  0  0  0  0  0  0  0  0  0
    5.4641   -1.7500    0.0000 C   0  0  0  0  0  0  0  0  0  0  0  0
    7.1962   -2.7500    0.0000 C   0  0  0  0  0  0  0  0  0  0  0  0
    5.4641   -2.7500    0.0000 C   0  0  0  0  0  0  0  0  0  0  0  0
    6.3301   -0.2500    0.0000 C   0  0  0  0  0  0  0  0  0  0  0  0
    7.1962    0.2500    0.0000 C   0  0  0  0  0  0  0  0  0  0  0  0
    7.1962    1.2500    0.0000 C   0  0  0  0  0  0  0  0  0  0  0  0
    6.3301   -4.2500    0.0000 C   0  0  0  0  0  0  0  0  0  0  0  0
    8.0622    1.7500    0.0000 C   0  0  0  0  0  0  0  0  0  0  0  0
    5.4641   -4.7500    0.0000 C   0  0  0  0  0  0  0  0  0  0  0  0
    7.1962   -4.7500    0.0000 C   0  0  0  0  0  0  0  0  0  0  0  0
    8.0622    2.7500    0.0000 C   0  0  0  0  0  0  0  0  0  0  0  0
    5.4641   -5.7500    0.0000 C   0  0  0  0  0  0  0  0  0  0  0  0
    7.1962   -5.7500    0.0000 C   0  0  0  0  0  0  0  0  0  0  0  0
    6.3301   -6.2500    0.0000 C   0  0  0  0  0  0  0  0  0  0  0  0
    8.9282    4.2500    0.0000 C   0  0  0  0  0  0  0  0  0  0  0  0
    8.0622    4.7500    0.0000 C   0  0  0  0  0  0  0  0  0  0  0  0
    7.1962    4.2500    0.0000 C   0  0  0  0  0  0  0  0  0  0  0  0
    6.3301    4.7500    0.0000 C   0  0  0  0  0  0  0  0  0  0  0  0
    3.7320   -4.7500    0.0000 C   0  0  0  0  0  0  0  0  0  0  0  0
    9.7942    4.7500    0.0000 C   0  0  0  0  0  0  0  0  0  0  0  0
    8.0622    5.7500    0.0000 C   0  0  0  0  0  0  0  0  0  0  0  0
    5.4641    4.2500    0.0000 C   0  0  0  0  0  0  0  0  0  0  0  0
    9.7942    5.7500    0.0000 C   0  0  0  0  0  0  0  0  0  0  0  0
    8.9282    6.2500    0.0000 C   0  0  0  0  0  0  0  0  0  0  0  0
    4.5981    4.7500    0.0000 C   0  0  0  0  0  0  0  0  0  0  0  0
    5.4641    3.2500    0.0000 C   0  0  0  0  0  0  0  0  0  0  0  0
    3.7320    4.2500    0.0000 C   0  0  0  0  0  0  0  0  0  0  0  0
    4.5981    2.7500    0.0000 C   0  0  0  0  0  0  0  0  0  0  0  0
    3.7320    3.2500    0.0000 C   0  0  0  0  0  0  0  0  0  0  0  0
    2.0000    4.2500    0.0000 C   0  0  0  0  0  0  0  0  0  0  0  0
    7.8067   -1.8577    0.0000 H   0  0  0  0  0  0  0  0  0  0  0  0
    7.4082   -1.1674    0.0000 H   0  0  0  0  0  0  0  0  0  0  0  0
    5.2520   -1.1674    0.0000 H   0  0  0  0  0  0  0  0  0  0  0  0
    4.8535   -1.8577    0.0000 H   0  0  0  0  0  0  0  0  0  0  0  0
    7.4082   -3.3326    0.0000 H   0  0  0  0  0  0  0  0  0  0  0  0
    7.8067   -2.6423    0.0000 H   0  0  0  0  0  0  0  0  0  0  0  0
    4.8535   -2.6423    0.0000 H   0  0  0  0  0  0  0  0  0  0  0  0
    5.2520   -3.3326    0.0000 H   0  0  0  0  0  0  0  0  0  0  0  0
    6.1181    0.3326    0.0000 H   0  0  0  0  0  0  0  0  0  0  0  0
    5.7196   -0.3577    0.0000 H   0  0  0  0  0  0  0  0  0  0  0  0
    7.4082   -0.3326    0.0000 H   0  0  0  0  0  0  0  0  0  0  0  0
    7.8067    0.3577    0.0000 H   0  0  0  0  0  0  0  0  0  0  0  0
    6.9841    1.8326    0.0000 H   0  0  0  0  0  0  0  0  0  0  0  0
    6.5856    1.1423    0.0000 H   0  0  0  0  0  0  0  0  0  0  0  0
    8.2742    1.1674    0.0000 H   0  0  0  0  0  0  0  0  0  0  0  0
    8.6728    1.8577    0.0000 H   0  0  0  0  0  0  0  0  0  0  0  0
    7.7331   -4.4400    0.0000 H   0  0  0  0  0  0  0  0  0  0  0  0
    7.8501    3.3326    0.0000 H   0  0  0  0  0  0  0  0  0  0  0  0
    7.4516    2.6423    0.0000 H   0  0  0  0  0  0  0  0  0  0  0  0
    4.9272   -6.0600    0.0000 H   0  0  0  0  0  0  0  0  0  0  0  0
    7.7331   -6.0600    0.0000 H   0  0  0  0  0  0  0  0  0  0  0  0
    6.3301   -6.8700    0.0000 H   0  0  0  0  0  0  0  0  0  0  0  0
    6.7976    3.7750    0.0000 H   0  0  0  0  0  0  0  0  0  0  0  0
    7.5947    3.7750    0.0000 H   0  0  0  0  0  0  0  0  0  0  0  0
    6.7287    5.2250    0.0000 H   0  0  0  0  0  0  0  0  0  0  0  0
    5.9316    5.2250    0.0000 H   0  0  0  0  0  0  0  0  0  0  0  0
    3.4220   -4.2131    0.0000 H   0  0  0  0  0  0  0  0  0  0  0  0
    3.1951   -5.0600    0.0000 H   0  0  0  0  0  0  0  0  0  0  0  0
    4.0420   -5.2869    0.0000 H   0  0  0  0  0  0  0  0  0  0  0  0
   10.3312    4.4400    0.0000 H   0  0  0  0  0  0  0  0  0  0  0  0
    7.5252    6.0600    0.0000 H   0  0  0  0  0  0  0  0  0  0  0  0
   10.3312    6.0600    0.0000 H   0  0  0  0  0  0  0  0  0  0  0  0
    8.9282    6.8700    0.0000 H   0  0  0  0  0  0  0  0  0  0  0  0
    4.5981    5.3700    0.0000 H   0  0  0  0  0  0  0  0  0  0  0  0
    6.0010    2.9400    0.0000 H   0  0  0  0  0  0  0  0  0  0  0  0
    4.5981    2.1300    0.0000 H   0  0  0  0  0  0  0  0  0  0  0  0
    3.1951    2.9400    0.0000 H   0  0  0  0  0  0  0  0  0  0  0  0
    1.6900    4.7869    0.0000 H   0  0  0  0  0  0  0  0  0  0  0  0
    1.4631    3.9400    0.0000 H   0  0  0  0  0  0  0  0  0  0  0  0
    2.3100    3.7131    0.0000 H   0  0  0  0  0  0  0  0  0  0  0  0
  1 17  1  0  0  0  0
  1 21  1  0  0  0  0
  2 15  1  0  0  0  0
  2 25  1  0  0  0  0
  3 33  1  0  0  0  0
  3 36  1  0  0  0  0
  4  6  1  0  0  0  0
  4  7  1  0  0  0  0
  4 10  1  0  0  0  0
  5  8  1  0  0  0  0
  5  9  1  0  0  0  0
  5 13  1  0  0  0  0
  6  8  1  0  0  0  0
  6 37  1  0  0  0  0
  6 38  1  0  0  0  0
  7  9  1  0  0  0  0
  7 39  1  0  0  0  0
  7 40  1  0  0  0  0
  8 41  1  0  0  0  0
  8 42  1  0  0  0  0
  9 43  1  0  0  0  0
  9 44  1  0  0  0  0
 10 11  1  0  0  0  0
 10 45  1  0  0  0  0
 10 46  1  0  0  0  0
 11 12  1  0  0  0  0
 11 47  1  0  0  0  0
 11 48  1  0  0  0  0
 12 14  1  0  0  0  0
 12 49  1  0  0  0  0
 12 50  1  0  0  0  0
 13 15  1  0  0  0  0
 13 16  2  0  0  0  0
 14 17  1  0  0  0  0
 14 51  1  0  0  0  0
 14 52  1  0  0  0  0
 15 18  2  0  0  0  0
 16 19  1  0  0  0  0
 16 53  1  0  0  0  0
 17 54  1  0  0  0  0
 17 55  1  0  0  0  0
 18 20  1  0  0  0  0
 18 56  1  0  0  0  0
 19 20  2  0  0  0  0
 19 57  1  0  0  0  0
 20 58  1  0  0  0  0
 21 22  1  0  0  0  0
 21 26  2  0  0  0  0
 22 23  1  0  0  0  0
 22 27  2  0  0  0  0
 23 24  1  0  0  0  0
 23 59  1  0  0  0  0
 23 60  1  0  0  0  0
 24 28  1  0  0  0  0
 24 61  1  0  0  0  0
 24 62  1  0  0  0  0
 25 63  1  0  0  0  0
 25 64  1  0  0  0  0
 25 65  1  0  0  0  0
 26 29  1  0  0  0  0
 26 66  1  0  0  0  0
 27 30  1  0  0  0  0
 27 67  1  0  0  0  0
 28 31  2  0  0  0  0
 28 32  1  0  0  0  0
 29 30  2  0  0  0  0
 29 68  1  0  0  0  0
 30 69  1  0  0  0  0
 31 33  1  0  0  0  0
 31 70  1  0  0  0  0
 32 34  2  0  0  0  0
 32 71  1  0  0  0  0
 33 35  2  0  0  0  0
 34 35  1  0  0  0  0
 34 72  1  0  0  0  0
 35 73  1  0  0  0  0
 36 74  1  0  0  0  0
 36 75  1  0  0  0  0
 36 76  1  0  0  0  0
M  END
> <PUBCHEM_COMPOUND_CID>
25156132

> <PUBCHEM_COMPOUND_CANONICALIZED>
1

> <PUBCHEM_CACTVS_COMPLEXITY>
582

> <PUBCHEM_CACTVS_HBOND_ACCEPTOR>
5

> <PUBCHEM_CACTVS_HBOND_DONOR>
0

> <PUBCHEM_CACTVS_ROTATABLE_BOND>
13

> <PUBCHEM_CACTVS_SUBSKEYS>
AAADcfB7MAAAAAAAAAAAAAAAAAAAAAAAAAA8YMEAAAAAAAABUAAAHgAAAAAADAzhmAYyxoMABACAAiRCQACCCAAhIgAIiAAPbIgOZiLEsZuXOCjkwBHY6AeQ0PIOAAABAAAIEAAAAAIAABAgAAAAAAAAAA==

> <PUBCHEM_IUPAC_OPENEYE_NAME>
1-(2-methoxyphenyl)-4-[5-[2-[2-(3-methoxyphenyl)ethyl]phenoxy]pentyl]piperazine

> <PUBCHEM_IUPAC_CAS_NAME>
1-(2-methoxyphenyl)-4-[5-[2-[2-(3-methoxyphenyl)ethyl]phenoxy]pentyl]piperazine

> <PUBCHEM_IUPAC_NAME_MARKUP>
1-(2-methoxyphenyl)-4-[5-[2-[2-(3-methoxyphenyl)ethyl]phenoxy]pentyl]piperazine

> <PUBCHEM_IUPAC_NAME>
1-(2-methoxyphenyl)-4-[5-[2-[2-(3-methoxyphenyl)ethyl]phenoxy]pentyl]piperazine

> <PUBCHEM_IUPAC_SYSTEMATIC_NAME>
1-(2-methoxyphenyl)-4-[5-[2-[2-(3-methoxyphenyl)ethyl]phenoxy]pentyl]piperazine

> <PUBCHEM_IUPAC_TRADITIONAL_NAME>
1-(2-methoxyphenyl)-4-[5-[2-[2-(3-methoxyphenyl)ethyl]phenoxy]pentyl]piperazine

> <PUBCHEM_IUPAC_INCHI>
InChI=1S/C31H40N2O3/c1-34-28-13-10-11-26(25-28)17-18-27-12-4-6-15-30(27)36-24-9-3-8-19-32-20-22-33(23-21-32)29-14-5-7-16-31(29)35-2/h4-7,10-16,25H,3,8-9,17-24H2,1-2H3

> <PUBCHEM_IUPAC_INCHIKEY>
YGTRMXKFXMERRE-UHFFFAOYSA-N

> <PUBCHEM_XLOGP3_AA>
6.8

> <PUBCHEM_EXACT_MASS>
488.30389314

> <PUBCHEM_MOLECULAR_FORMULA>
C31H40N2O3

> <PUBCHEM_MOLECULAR_WEIGHT>
488.7

> <PUBCHEM_OPENEYE_CAN_SMILES>
COC1=CC=CC(=C1)CCC2=CC=CC=C2OCCCCCN3CCN(CC3)C4=CC=CC=C4OC

> <PUBCHEM_OPENEYE_ISO_SMILES>
COC1=CC=CC(=C1)CCC2=CC=CC=C2OCCCCCN3CCN(CC3)C4=CC=CC=C4OC

> <PUBCHEM_CACTVS_TPSA>
34.2

> <PUBCHEM_MONOISOTOPIC_WEIGHT>
488.30389314

> <PUBCHEM_TOTAL_CHARGE>
0

> <PUBCHEM_HEAVY_ATOM_COUNT>
36

> <PUBCHEM_ATOM_DEF_STEREO_COUNT>
0

> <PUBCHEM_ATOM_UDEF_STEREO_COUNT>
0

> <PUBCHEM_BOND_DEF_STEREO_COUNT>
0

> <PUBCHEM_BOND_UDEF_STEREO_COUNT>
0

> <PUBCHEM_ISOTOPIC_ATOM_COUNT>
0

> <PUBCHEM_COMPONENT_COUNT>
1

> <PUBCHEM_CACTVS_TAUTO_COUNT>
-1

> <PUBCHEM_COORDINATE_TYPE>
1
5
255

> <PUBCHEM_BONDANNOTATIONS>
13  15  8
13  16  8
15  18  8
16  19  8
18  20  8
19  20  8
21  22  8
21  26  8
22  27  8
26  29  8
27  30  8
28  31  8
28  32  8
29  30  8
31  33  8
32  34  8
33  35  8
34  35  8

$$$$
