25156129
  -OEChem-09292322502D

 69 72  0     0  0  0  0  0  0999 V2000
    8.7942    6.2500    0.0000 F   0  0  0  0  0  0  0  0  0  0  0  0
    9.7942    7.2500    0.0000 F   0  0  0  0  0  0  0  0  0  0  0  0
   10.7942    6.2500    0.0000 F   0  0  0  0  0  0  0  0  0  0  0  0
    4.5981   -0.7500    0.0000 O   0  0  0  0  0  0  0  0  0  0  0  0
    6.3301   -6.7500    0.0000 O   0  0  0  0  0  0  0  0  0  0  0  0
    6.3301    2.2500    0.0000 N   0  0  0  0  0  0  0  0  0  0  0  0
    8.0622    3.2500    0.0000 N   0  0  0  0  0  0  0  0  0  0  0  0
    6.3301    3.2500    0.0000 C   0  0  0  0  0  0  0  0  0  0  0  0
    7.1962    1.7500    0.0000 C   0  0  0  0  0  0  0  0  0  0  0  0
    7.1962    3.7500    0.0000 C   0  0  0  0  0  0  0  0  0  0  0  0
    8.0622    2.2500    0.0000 C   0  0  0  0  0  0  0  0  0  0  0  0
    5.4641    1.7500    0.0000 C   0  0  0  0  0  0  0  0  0  0  0  0
    5.4641    0.7500    0.0000 C   0  0  0  0  0  0  0  0  0  0  0  0
    8.9282    3.7500    0.0000 C   0  0  0  0  0  0  0  0  0  0  0  0
    4.5981    0.2500    0.0000 C   0  0  0  0  0  0  0  0  0  0  0  0
    8.9282    4.7500    0.0000 C   0  0  0  0  0  0  0  0  0  0  0  0
    9.7942    3.2500    0.0000 C   0  0  0  0  0  0  0  0  0  0  0  0
    9.7942    5.2500    0.0000 C   0  0  0  0  0  0  0  0  0  0  0  0
   10.6603    3.7500    0.0000 C   0  0  0  0  0  0  0  0  0  0  0  0
   10.6603    4.7500    0.0000 C   0  0  0  0  0  0  0  0  0  0  0  0
    3.7320   -1.2500    0.0000 C   0  0  0  0  0  0  0  0  0  0  0  0
    3.7320   -2.2500    0.0000 C   0  0  0  0  0  0  0  0  0  0  0  0
    4.5981   -2.7500    0.0000 C   0  0  0  0  0  0  0  0  0  0  0  0
    9.7942    6.2500    0.0000 C   0  0  0  0  0  0  0  0  0  0  0  0
    4.5981   -3.7500    0.0000 C   0  0  0  0  0  0  0  0  0  0  0  0
    2.8660   -0.7500    0.0000 C   0  0  0  0  0  0  0  0  0  0  0  0
    2.8660   -2.7500    0.0000 C   0  0  0  0  0  0  0  0  0  0  0  0
    5.4641   -4.2500    0.0000 C   0  0  0  0  0  0  0  0  0  0  0  0
    2.0000   -1.2500    0.0000 C   0  0  0  0  0  0  0  0  0  0  0  0
    2.0000   -2.2500    0.0000 C   0  0  0  0  0  0  0  0  0  0  0  0
    5.4641   -5.2500    0.0000 C   0  0  0  0  0  0  0  0  0  0  0  0
    6.3301   -3.7500    0.0000 C   0  0  0  0  0  0  0  0  0  0  0  0
    6.3301   -5.7500    0.0000 C   0  0  0  0  0  0  0  0  0  0  0  0
    7.1962   -4.2500    0.0000 C   0  0  0  0  0  0  0  0  0  0  0  0
    7.1962   -5.2500    0.0000 C   0  0  0  0  0  0  0  0  0  0  0  0
    7.1962   -7.2500    0.0000 C   0  0  0  0  0  0  0  0  0  0  0  0
    6.1181    3.8326    0.0000 H   0  0  0  0  0  0  0  0  0  0  0  0
    5.7196    3.1423    0.0000 H   0  0  0  0  0  0  0  0  0  0  0  0
    6.7976    1.2750    0.0000 H   0  0  0  0  0  0  0  0  0  0  0  0
    7.5947    1.2750    0.0000 H   0  0  0  0  0  0  0  0  0  0  0  0
    7.5947    4.2250    0.0000 H   0  0  0  0  0  0  0  0  0  0  0  0
    6.7976    4.2250    0.0000 H   0  0  0  0  0  0  0  0  0  0  0  0
    8.2742    1.6674    0.0000 H   0  0  0  0  0  0  0  0  0  0  0  0
    8.6728    2.3577    0.0000 H   0  0  0  0  0  0  0  0  0  0  0  0
    5.2520    2.3326    0.0000 H   0  0  0  0  0  0  0  0  0  0  0  0
    4.8535    1.6423    0.0000 H   0  0  0  0  0  0  0  0  0  0  0  0
    5.6762    0.1674    0.0000 H   0  0  0  0  0  0  0  0  0  0  0  0
    6.0747    0.8577    0.0000 H   0  0  0  0  0  0  0  0  0  0  0  0
    4.3860    0.8326    0.0000 H   0  0  0  0  0  0  0  0  0  0  0  0
    3.9875    0.1423    0.0000 H   0  0  0  0  0  0  0  0  0  0  0  0
    8.3913    5.0600    0.0000 H   0  0  0  0  0  0  0  0  0  0  0  0
    9.7942    2.6300    0.0000 H   0  0  0  0  0  0  0  0  0  0  0  0
   11.1972    3.4400    0.0000 H   0  0  0  0  0  0  0  0  0  0  0  0
   11.1972    5.0600    0.0000 H   0  0  0  0  0  0  0  0  0  0  0  0
    5.2087   -2.8577    0.0000 H   0  0  0  0  0  0  0  0  0  0  0  0
    4.8101   -2.1674    0.0000 H   0  0  0  0  0  0  0  0  0  0  0  0
    3.9875   -3.6423    0.0000 H   0  0  0  0  0  0  0  0  0  0  0  0
    4.3860   -4.3326    0.0000 H   0  0  0  0  0  0  0  0  0  0  0  0
    2.8660   -0.1300    0.0000 H   0  0  0  0  0  0  0  0  0  0  0  0
    2.8660   -3.3700    0.0000 H   0  0  0  0  0  0  0  0  0  0  0  0
    1.4631   -0.9400    0.0000 H   0  0  0  0  0  0  0  0  0  0  0  0
    1.4631   -2.5600    0.0000 H   0  0  0  0  0  0  0  0  0  0  0  0
    4.9272   -5.5600    0.0000 H   0  0  0  0  0  0  0  0  0  0  0  0
    6.3301   -3.1300    0.0000 H   0  0  0  0  0  0  0  0  0  0  0  0
    7.7331   -3.9400    0.0000 H   0  0  0  0  0  0  0  0  0  0  0  0
    7.7331   -5.5600    0.0000 H   0  0  0  0  0  0  0  0  0  0  0  0
    6.8862   -7.7869    0.0000 H   0  0  0  0  0  0  0  0  0  0  0  0
    7.7331   -7.5600    0.0000 H   0  0  0  0  0  0  0  0  0  0  0  0
    7.5062   -6.7131    0.0000 H   0  0  0  0  0  0  0  0  0  0  0  0
  1 24  1  0  0  0  0
  2 24  1  0  0  0  0
  3 24  1  0  0  0  0
  4 15  1  0  0  0  0
  4 21  1  0  0  0  0
  5 33  1  0  0  0  0
  5 36  1  0  0  0  0
  6  8  1  0  0  0  0
  6  9  1  0  0  0  0
  6 12  1  0  0  0  0
  7 10  1  0  0  0  0
  7 11  1  0  0  0  0
  7 14  1  0  0  0  0
  8 10  1  0  0  0  0
  8 37  1  0  0  0  0
  8 38  1  0  0  0  0
  9 11  1  0  0  0  0
  9 39  1  0  0  0  0
  9 40  1  0  0  0  0
 10 41  1  0  0  0  0
 10 42  1  0  0  0  0
 11 43  1  0  0  0  0
 11 44  1  0  0  0  0
 12 13  1  0  0  0  0
 12 45  1  0  0  0  0
 12 46  1  0  0  0  0
 13 15  1  0  0  0  0
 13 47  1  0  0  0  0
 13 48  1  0  0  0  0
 14 16  1  0  0  0  0
 14 17  2  0  0  0  0
 15 49  1  0  0  0  0
 15 50  1  0  0  0  0
 16 18  2  0  0  0  0
 16 51  1  0  0  0  0
 17 19  1  0  0  0  0
 17 52  1  0  0  0  0
 18 20  1  0  0  0  0
 18 24  1  0  0  0  0
 19 20  2  0  0  0  0
 19 53  1  0  0  0  0
 20 54  1  0  0  0  0
 21 22  1  0  0  0  0
 21 26  2  0  0  0  0
 22 23  1  0  0  0  0
 22 27  2  0  0  0  0
 23 25  1  0  0  0  0
 23 55  1  0  0  0  0
 23 56  1  0  0  0  0
 25 28  1  0  0  0  0
 25 57  1  0  0  0  0
 25 58  1  0  0  0  0
 26 29  1  0  0  0  0
 26 59  1  0  0  0  0
 27 30  1  0  0  0  0
 27 60  1  0  0  0  0
 28 31  2  0  0  0  0
 28 32  1  0  0  0  0
 29 30  2  0  0  0  0
 29 61  1  0  0  0  0
 30 62  1  0  0  0  0
 31 33  1  0  0  0  0
 31 63  1  0  0  0  0
 32 34  2  0  0  0  0
 32 64  1  0  0  0  0
 33 35  2  0  0  0  0
 34 35  1  0  0  0  0
 34 65  1  0  0  0  0
 35 66  1  0  0  0  0
 36 67  1  0  0  0  0
 36 68  1  0  0  0  0
 36 69  1  0  0  0  0
M  END
> <PUBCHEM_COMPOUND_CID>
25156129

> <PUBCHEM_COMPOUND_CANONICALIZED>
1

> <PUBCHEM_CACTVS_COMPLEXITY>
626

> <PUBCHEM_CACTVS_HBOND_ACCEPTOR>
7

> <PUBCHEM_CACTVS_HBOND_DONOR>
0

> <PUBCHEM_CACTVS_ROTATABLE_BOND>
10

> <PUBCHEM_CACTVS_SUBSKEYS>
AAADcfB7MYAAAAAAAAAAAAAAAAAAAAAAAAA8YMEAAAAAAAABUAAAHwAAAAAADAzhmBYyxoMABACAAiRCQACCCAAhIgAIiAAObIgMZiLEsZuWOCjmwBHI6AeQwPAOAAABQAAIAAAAAAKAABAAAAAAAAAAAA==

> <PUBCHEM_IUPAC_OPENEYE_NAME>
1-[3-[2-[2-(3-methoxyphenyl)ethyl]phenoxy]propyl]-4-[3-(trifluoromethyl)phenyl]piperazine

> <PUBCHEM_IUPAC_CAS_NAME>
1-[3-[2-[2-(3-methoxyphenyl)ethyl]phenoxy]propyl]-4-[3-(trifluoromethyl)phenyl]piperazine

> <PUBCHEM_IUPAC_NAME_MARKUP>
1-[3-[2-[2-(3-methoxyphenyl)ethyl]phenoxy]propyl]-4-[3-(trifluoromethyl)phenyl]piperazine

> <PUBCHEM_IUPAC_NAME>
1-[3-[2-[2-(3-methoxyphenyl)ethyl]phenoxy]propyl]-4-[3-(trifluoromethyl)phenyl]piperazine

> <PUBCHEM_IUPAC_SYSTEMATIC_NAME>
1-[3-[2-[2-(3-methoxyphenyl)ethyl]phenoxy]propyl]-4-[3-(trifluoromethyl)phenyl]piperazine

> <PUBCHEM_IUPAC_TRADITIONAL_NAME>
1-[3-[2-[2-(3-methoxyphenyl)ethyl]phenoxy]propyl]-4-[3-(trifluoromethyl)phenyl]piperazine

> <PUBCHEM_IUPAC_INCHI>
InChI=1S/C29H33F3N2O2/c1-35-27-11-4-7-23(21-27)13-14-24-8-2-3-12-28(24)36-20-6-15-33-16-18-34(19-17-33)26-10-5-9-25(22-26)29(30,31)32/h2-5,7-12,21-22H,6,13-20H2,1H3

> <PUBCHEM_IUPAC_INCHIKEY>
ZYTBQQBJAVGRKU-UHFFFAOYSA-N

> <PUBCHEM_XLOGP3_AA>
7

> <PUBCHEM_EXACT_MASS>
498.24941279

> <PUBCHEM_MOLECULAR_FORMULA>
C29H33F3N2O2

> <PUBCHEM_MOLECULAR_WEIGHT>
498.6

> <PUBCHEM_OPENEYE_CAN_SMILES>
COC1=CC=CC(=C1)CCC2=CC=CC=C2OCCCN3CCN(CC3)C4=CC=CC(=C4)C(F)(F)F

> <PUBCHEM_OPENEYE_ISO_SMILES>
COC1=CC=CC(=C1)CCC2=CC=CC=C2OCCCN3CCN(CC3)C4=CC=CC(=C4)C(F)(F)F

> <PUBCHEM_CACTVS_TPSA>
24.9

> <PUBCHEM_MONOISOTOPIC_WEIGHT>
498.24941279

> <PUBCHEM_TOTAL_CHARGE>
0

> <PUBCHEM_HEAVY_ATOM_COUNT>
36

> <PUBCHEM_ATOM_DEF_STEREO_COUNT>
0

> <PUBCHEM_ATOM_UDEF_STEREO_COUNT>
0

> <PUBCHEM_BOND_DEF_STEREO_COUNT>
0

> <PUBCHEM_BOND_UDEF_STEREO_COUNT>
0

> <PUBCHEM_ISOTOPIC_ATOM_COUNT>
0

> <PUBCHEM_COMPONENT_COUNT>
1

> <PUBCHEM_CACTVS_TAUTO_COUNT>
-1

> <PUBCHEM_COORDINATE_TYPE>
1
5
255

> <PUBCHEM_BONDANNOTATIONS>
14  16  8
14  17  8
16  18  8
17  19  8
18  20  8
19  20  8
21  22  8
21  26  8
22  27  8
26  29  8
27  30  8
28  31  8
28  32  8
29  30  8
31  33  8
32  34  8
33  35  8
34  35  8

$$$$
