44389321
  -OEChem-09292322092D

 58 61  0     1  0  0  0  0  0999 V2000
   11.6020   -2.4390    0.0000 F   0  0  0  0  0  0  0  0  0  0  0  0
    9.3681    3.0169    0.0000 O   0  0  0  0  0  0  0  0  0  0  0  0
    5.3095   -1.7987    0.0000 N   0  0  0  0  0  0  0  0  0  0  0  0
    3.7181   -3.0101    0.0000 N   0  0  0  0  0  0  0  0  0  0  0  0
    5.9772   -0.1592    0.0000 N   0  0  0  0  0  0  0  0  0  0  0  0
    5.4362   -2.7906    0.0000 C   0  0  0  0  0  0  0  0  0  0  0  0
    4.3871   -1.4124    0.0000 C   0  0  0  0  0  0  0  0  0  0  0  0
    4.6405   -3.3963    0.0000 C   0  0  0  0  0  0  0  0  0  0  0  0
    3.5914   -2.0181    0.0000 C   0  0  0  0  0  0  0  0  0  0  0  0
    7.7371    0.0794    0.0000 C   0  0  0  0  0  0  0  0  0  0  0  0
    8.6610    0.4620    0.0000 C   0  0  0  0  0  0  0  0  0  0  0  0
    8.6610    2.3098    0.0000 C   0  0  1  0  0  0  0  0  0  0  0  0
    9.0437    1.3859    0.0000 C   0  0  0  0  0  0  0  0  0  0  0  0
    6.8132    0.4620    0.0000 C   0  0  0  0  0  0  0  0  0  0  0  0
    7.7371    2.6925    0.0000 C   0  0  0  0  0  0  0  0  0  0  0  0
    6.4306    1.3859    0.0000 C   0  0  0  0  0  0  0  0  0  0  0  0
    6.8132    2.3098    0.0000 C   0  0  0  0  0  0  0  0  0  0  0  0
    6.1052   -1.1930    0.0000 C   0  0  0  0  0  0  0  0  0  0  0  0
    7.8890   -0.9511    0.0000 C   0  0  0  0  0  0  0  0  0  0  0  0
    7.0675   -1.5916    0.0000 C   0  0  0  0  0  0  0  0  0  0  0  0
    2.9224   -3.6158    0.0000 C   0  0  0  0  0  0  0  0  0  0  0  0
    8.8172   -1.3231    0.0000 C   0  0  0  0  0  0  0  0  0  0  0  0
    2.0000   -3.2295    0.0000 C   0  0  0  0  0  0  0  0  0  0  0  0
    9.6035   -0.7052    0.0000 C   0  0  0  0  0  0  0  0  0  0  0  0
    8.9592   -2.3130    0.0000 C   0  0  0  0  0  0  0  0  0  0  0  0
   10.5317   -1.0772    0.0000 C   0  0  0  0  0  0  0  0  0  0  0  0
    9.8874   -2.6850    0.0000 C   0  0  0  0  0  0  0  0  0  0  0  0
   10.6737   -2.0671    0.0000 C   0  0  0  0  0  0  0  0  0  0  0  0
    5.7204   -3.3417    0.0000 H   0  0  0  0  0  0  0  0  0  0  0  0
    6.0282   -2.6065    0.0000 H   0  0  0  0  0  0  0  0  0  0  0  0
    4.7222   -0.8908    0.0000 H   0  0  0  0  0  0  0  0  0  0  0  0
    3.9316   -0.9918    0.0000 H   0  0  0  0  0  0  0  0  0  0  0  0
    4.3054   -3.9179    0.0000 H   0  0  0  0  0  0  0  0  0  0  0  0
    5.0960   -3.8170    0.0000 H   0  0  0  0  0  0  0  0  0  0  0  0
    3.3072   -1.4671    0.0000 H   0  0  0  0  0  0  0  0  0  0  0  0
    2.9994   -2.2023    0.0000 H   0  0  0  0  0  0  0  0  0  0  0  0
    8.7419   -0.1527    0.0000 H   0  0  0  0  0  0  0  0  0  0  0  0
    9.2757    0.3811    0.0000 H   0  0  0  0  0  0  0  0  0  0  0  0
    8.5400    2.9179    0.0000 H   0  0  0  0  0  0  0  0  0  0  0  0
    9.5356    1.0085    0.0000 H   0  0  0  0  0  0  0  0  0  0  0  0
    9.5356    1.7634    0.0000 H   0  0  0  0  0  0  0  0  0  0  0  0
    8.1146    3.1844    0.0000 H   0  0  0  0  0  0  0  0  0  0  0  0
    7.3597    3.1844    0.0000 H   0  0  0  0  0  0  0  0  0  0  0  0
    5.9387    1.7634    0.0000 H   0  0  0  0  0  0  0  0  0  0  0  0
    5.9387    1.0085    0.0000 H   0  0  0  0  0  0  0  0  0  0  0  0
    6.7323    2.9245    0.0000 H   0  0  0  0  0  0  0  0  0  0  0  0
    6.1985    2.3907    0.0000 H   0  0  0  0  0  0  0  0  0  0  0  0
    7.1508   -2.2060    0.0000 H   0  0  0  0  0  0  0  0  0  0  0  0
    2.5873   -4.1374    0.0000 H   0  0  0  0  0  0  0  0  0  0  0  0
    3.3779   -4.0364    0.0000 H   0  0  0  0  0  0  0  0  0  0  0  0
    2.2395   -2.6576    0.0000 H   0  0  0  0  0  0  0  0  0  0  0  0
    1.4281   -2.9901    0.0000 H   0  0  0  0  0  0  0  0  0  0  0  0
    1.7605   -3.8014    0.0000 H   0  0  0  0  0  0  0  0  0  0  0  0
    9.2076    3.6158    0.0000 H   0  0  0  0  0  0  0  0  0  0  0  0
    9.5155   -0.0915    0.0000 H   0  0  0  0  0  0  0  0  0  0  0  0
    8.4717   -2.6961    0.0000 H   0  0  0  0  0  0  0  0  0  0  0  0
   11.0192   -0.6941    0.0000 H   0  0  0  0  0  0  0  0  0  0  0  0
    9.9755   -3.2987    0.0000 H   0  0  0  0  0  0  0  0  0  0  0  0
  1 28  1  0  0  0  0
 12  2  1  1  0  0  0
  2 54  1  0  0  0  0
  3  6  1  0  0  0  0
  3  7  1  0  0  0  0
  3 18  1  0  0  0  0
  4  8  1  0  0  0  0
  4  9  1  0  0  0  0
  4 21  1  0  0  0  0
  5 14  1  0  0  0  0
  5 18  2  0  0  0  0
  6  8  1  0  0  0  0
  6 29  1  0  0  0  0
  6 30  1  0  0  0  0
  7  9  1  0  0  0  0
  7 31  1  0  0  0  0
  7 32  1  0  0  0  0
  8 33  1  0  0  0  0
  8 34  1  0  0  0  0
  9 35  1  0  0  0  0
  9 36  1  0  0  0  0
 10 11  1  0  0  0  0
 10 14  2  0  0  0  0
 10 19  1  0  0  0  0
 11 13  1  0  0  0  0
 11 37  1  0  0  0  0
 11 38  1  0  0  0  0
 12 13  1  0  0  0  0
 12 15  1  0  0  0  0
 12 39  1  0  0  0  0
 13 40  1  0  0  0  0
 13 41  1  0  0  0  0
 14 16  1  0  0  0  0
 15 17  1  0  0  0  0
 15 42  1  0  0  0  0
 15 43  1  0  0  0  0
 16 17  1  0  0  0  0
 16 44  1  0  0  0  0
 16 45  1  0  0  0  0
 17 46  1  0  0  0  0
 17 47  1  0  0  0  0
 18 20  1  0  0  0  0
 19 20  2  0  0  0  0
 19 22  1  0  0  0  0
 20 48  1  0  0  0  0
 21 23  1  0  0  0  0
 21 49  1  0  0  0  0
 21 50  1  0  0  0  0
 22 24  2  0  0  0  0
 22 25  1  0  0  0  0
 23 51  1  0  0  0  0
 23 52  1  0  0  0  0
 23 53  1  0  0  0  0
 24 26  1  0  0  0  0
 24 55  1  0  0  0  0
 25 27  2  0  0  0  0
 25 56  1  0  0  0  0
 26 28  2  0  0  0  0
 26 57  1  0  0  0  0
 27 28  1  0  0  0  0
 27 58  1  0  0  0  0
M  END
> <PUBCHEM_COMPOUND_CID>
44389321

> <PUBCHEM_COMPOUND_CANONICALIZED>
1

> <PUBCHEM_CACTVS_COMPLEXITY>
477

> <PUBCHEM_CACTVS_HBOND_ACCEPTOR>
5

> <PUBCHEM_CACTVS_HBOND_DONOR>
1

> <PUBCHEM_CACTVS_ROTATABLE_BOND>
3

> <PUBCHEM_CACTVS_SUBSKEYS>
AAADceB7IQAAAAAAAAAAAAAAAAAAAAAAAAA8WIAAAAAYAAABwAAAHwAACAAADBzhng4zsJMIEgCgAyZiZACCgCkhAiAJmCA4ZJiIcGLAmZGUYAhsgALIyCeQ0PMOgAAAAAAAAAAAAAAAAAAAAAAAAAAAAA==

> <PUBCHEM_IUPAC_OPENEYE_NAME>
(7R)-2-(4-ethylpiperazin-1-yl)-4-(4-fluorophenyl)-5,6,7,8,9,10-hexahydrocycloocta[b]pyridin-7-ol

> <PUBCHEM_IUPAC_CAS_NAME>
(7R)-2-(4-ethyl-1-piperazinyl)-4-(4-fluorophenyl)-5,6,7,8,9,10-hexahydrocycloocta[b]pyridin-7-ol

> <PUBCHEM_IUPAC_NAME_MARKUP>
(7<I>R</I>)-2-(4-ethylpiperazin-1-yl)-4-(4-fluorophenyl)-5,6,7,8,9,10-hexahydrocycloocta[b]pyridin-7-ol

> <PUBCHEM_IUPAC_NAME>
(7R)-2-(4-ethylpiperazin-1-yl)-4-(4-fluorophenyl)-5,6,7,8,9,10-hexahydrocycloocta[b]pyridin-7-ol

> <PUBCHEM_IUPAC_SYSTEMATIC_NAME>
(7R)-2-(4-ethylpiperazin-1-yl)-4-(4-fluorophenyl)-5,6,7,8,9,10-hexahydrocycloocta[b]pyridin-7-ol

> <PUBCHEM_IUPAC_TRADITIONAL_NAME>
(7R)-2-(4-ethylpiperazino)-4-(4-fluorophenyl)-5,6,7,8,9,10-hexahydrocycloocta[b]pyridin-7-ol

> <PUBCHEM_IUPAC_INCHI>
InChI=1S/C23H30FN3O/c1-2-26-12-14-27(15-13-26)23-16-21(17-6-8-18(24)9-7-17)20-11-10-19(28)4-3-5-22(20)25-23/h6-9,16,19,28H,2-5,10-15H2,1H3/t19-/m1/s1

> <PUBCHEM_IUPAC_INCHIKEY>
RXCVDBZASONCNP-LJQANCHMSA-N

> <PUBCHEM_XLOGP3_AA>
4

> <PUBCHEM_EXACT_MASS>
383.23729075

> <PUBCHEM_MOLECULAR_FORMULA>
C23H30FN3O

> <PUBCHEM_MOLECULAR_WEIGHT>
383.5

> <PUBCHEM_OPENEYE_CAN_SMILES>
CCN1CCN(CC1)C2=NC3=C(CCC(CCC3)O)C(=C2)C4=CC=C(C=C4)F

> <PUBCHEM_OPENEYE_ISO_SMILES>
CCN1CCN(CC1)C2=NC3=C(CC[C@@H](CCC3)O)C(=C2)C4=CC=C(C=C4)F

> <PUBCHEM_CACTVS_TPSA>
39.6

> <PUBCHEM_MONOISOTOPIC_WEIGHT>
383.23729075

> <PUBCHEM_TOTAL_CHARGE>
0

> <PUBCHEM_HEAVY_ATOM_COUNT>
28

> <PUBCHEM_ATOM_DEF_STEREO_COUNT>
1

> <PUBCHEM_ATOM_UDEF_STEREO_COUNT>
0

> <PUBCHEM_BOND_DEF_STEREO_COUNT>
0

> <PUBCHEM_BOND_UDEF_STEREO_COUNT>
0

> <PUBCHEM_ISOTOPIC_ATOM_COUNT>
0

> <PUBCHEM_COMPONENT_COUNT>
1

> <PUBCHEM_CACTVS_TAUTO_COUNT>
-1

> <PUBCHEM_COORDINATE_TYPE>
1
5
255

> <PUBCHEM_BONDANNOTATIONS>
10  14  8
10  19  8
18  20  8
19  20  8
12  2  5
22  24  8
22  25  8
24  26  8
25  27  8
26  28  8
27  28  8
5  14  8
5  18  8

$$$$
