51111982
  -OEChem-09292322402D

 50 53  0     0  0  0  0  0  0999 V2000
    6.7619    0.8122    0.0000 N   0  0  0  0  0  0  0  0  0  0  0  0
    7.7619   -0.9199    0.0000 N   0  0  0  0  0  0  0  0  0  0  0  0
    3.7320    1.1782    0.0000 N   0  0  0  0  0  0  0  0  0  0  0  0
    5.2996    4.3840    0.0000 N   0  0  0  0  0  0  0  0  0  0  0  0
    6.2619   -0.0538    0.0000 C   0  0  0  0  0  0  0  0  0  0  0  0
    7.7619    0.8122    0.0000 C   0  0  0  0  0  0  0  0  0  0  0  0
    6.7619   -0.9199    0.0000 C   0  0  0  0  0  0  0  0  0  0  0  0
    8.2619   -0.0538    0.0000 C   0  0  0  0  0  0  0  0  0  0  0  0
    6.2619    1.6782    0.0000 C   0  0  0  0  0  0  0  0  0  0  0  0
    8.2619   -1.7859    0.0000 C   0  0  0  0  0  0  0  0  0  0  0  0
    5.2619    1.6782    0.0000 C   0  0  0  0  0  0  0  0  0  0  0  0
    9.2619   -1.7859    0.0000 C   0  0  0  0  0  0  0  0  0  0  0  0
    4.6783    2.4829    0.0000 C   0  0  0  0  0  0  0  0  0  0  0  0
    4.6783    0.8735    0.0000 C   0  0  0  0  0  0  0  0  0  0  0  0
    3.7320    2.1782    0.0000 C   0  0  0  0  0  0  0  0  0  0  0  0
    9.7619   -2.6519    0.0000 C   0  0  0  0  0  0  0  0  0  0  0  0
    2.8660    2.6782    0.0000 C   0  0  0  0  0  0  0  0  0  0  0  0
    2.8660    0.6782    0.0000 C   0  0  0  0  0  0  0  0  0  0  0  0
   10.7619   -2.6519    0.0000 C   0  0  0  0  0  0  0  0  0  0  0  0
    9.2619   -3.5180    0.0000 C   0  0  0  0  0  0  0  0  0  0  0  0
    4.9889    3.4334    0.0000 C   0  0  0  0  0  0  0  0  0  0  0  0
    2.0000    2.1782    0.0000 C   0  0  0  0  0  0  0  0  0  0  0  0
    2.0000    1.1782    0.0000 C   0  0  0  0  0  0  0  0  0  0  0  0
   11.2619   -3.5180    0.0000 C   0  0  0  0  0  0  0  0  0  0  0  0
    9.7619   -4.3840    0.0000 C   0  0  0  0  0  0  0  0  0  0  0  0
   10.7619   -4.3840    0.0000 C   0  0  0  0  0  0  0  0  0  0  0  0
    5.7869    0.3447    0.0000 H   0  0  0  0  0  0  0  0  0  0  0  0
    5.7869   -0.4524    0.0000 H   0  0  0  0  0  0  0  0  0  0  0  0
    8.3445    1.0242    0.0000 H   0  0  0  0  0  0  0  0  0  0  0  0
    7.6542    1.4228    0.0000 H   0  0  0  0  0  0  0  0  0  0  0  0
    6.1793   -1.1319    0.0000 H   0  0  0  0  0  0  0  0  0  0  0  0
    6.8695   -1.5304    0.0000 H   0  0  0  0  0  0  0  0  0  0  0  0
    8.7368   -0.4524    0.0000 H   0  0  0  0  0  0  0  0  0  0  0  0
    8.7368    0.3447    0.0000 H   0  0  0  0  0  0  0  0  0  0  0  0
    6.8445    1.8902    0.0000 H   0  0  0  0  0  0  0  0  0  0  0  0
    6.1542    2.2888    0.0000 H   0  0  0  0  0  0  0  0  0  0  0  0
    7.6793   -1.9980    0.0000 H   0  0  0  0  0  0  0  0  0  0  0  0
    8.3695   -2.3965    0.0000 H   0  0  0  0  0  0  0  0  0  0  0  0
    9.8445   -1.5738    0.0000 H   0  0  0  0  0  0  0  0  0  0  0  0
    9.1542   -1.1753    0.0000 H   0  0  0  0  0  0  0  0  0  0  0  0
    4.8709    0.2841    0.0000 H   0  0  0  0  0  0  0  0  0  0  0  0
    2.8660    3.2982    0.0000 H   0  0  0  0  0  0  0  0  0  0  0  0
    2.8660    0.0582    0.0000 H   0  0  0  0  0  0  0  0  0  0  0  0
   11.0719   -2.1150    0.0000 H   0  0  0  0  0  0  0  0  0  0  0  0
    8.6419   -3.5180    0.0000 H   0  0  0  0  0  0  0  0  0  0  0  0
    1.4631    2.4882    0.0000 H   0  0  0  0  0  0  0  0  0  0  0  0
    1.4631    0.8682    0.0000 H   0  0  0  0  0  0  0  0  0  0  0  0
   11.8819   -3.5180    0.0000 H   0  0  0  0  0  0  0  0  0  0  0  0
    9.4519   -4.9209    0.0000 H   0  0  0  0  0  0  0  0  0  0  0  0
   11.0719   -4.9209    0.0000 H   0  0  0  0  0  0  0  0  0  0  0  0
  1  5  1  0  0  0  0
  1  6  1  0  0  0  0
  1  9  1  0  0  0  0
  2  7  1  0  0  0  0
  2  8  1  0  0  0  0
  2 10  1  0  0  0  0
  3 14  1  0  0  0  0
  3 15  1  0  0  0  0
  3 18  1  0  0  0  0
  4 21  3  0  0  0  0
  5  7  1  0  0  0  0
  5 27  1  0  0  0  0
  5 28  1  0  0  0  0
  6  8  1  0  0  0  0
  6 29  1  0  0  0  0
  6 30  1  0  0  0  0
  7 31  1  0  0  0  0
  7 32  1  0  0  0  0
  8 33  1  0  0  0  0
  8 34  1  0  0  0  0
  9 11  1  0  0  0  0
  9 35  1  0  0  0  0
  9 36  1  0  0  0  0
 10 12  1  0  0  0  0
 10 37  1  0  0  0  0
 10 38  1  0  0  0  0
 11 13  1  0  0  0  0
 11 14  2  0  0  0  0
 12 16  1  0  0  0  0
 12 39  1  0  0  0  0
 12 40  1  0  0  0  0
 13 15  2  0  0  0  0
 13 21  1  0  0  0  0
 14 41  1  0  0  0  0
 15 17  1  0  0  0  0
 16 19  2  0  0  0  0
 16 20  1  0  0  0  0
 17 22  2  0  0  0  0
 17 42  1  0  0  0  0
 18 23  2  0  0  0  0
 18 43  1  0  0  0  0
 19 24  1  0  0  0  0
 19 44  1  0  0  0  0
 20 25  2  0  0  0  0
 20 45  1  0  0  0  0
 22 23  1  0  0  0  0
 22 46  1  0  0  0  0
 23 47  1  0  0  0  0
 24 26  2  0  0  0  0
 24 48  1  0  0  0  0
 25 26  1  0  0  0  0
 25 49  1  0  0  0  0
 26 50  1  0  0  0  0
M  END
> <PUBCHEM_COMPOUND_CID>
51111982

> <PUBCHEM_COMPOUND_CANONICALIZED>
1

> <PUBCHEM_CACTVS_COMPLEXITY>
484

> <PUBCHEM_CACTVS_HBOND_ACCEPTOR>
3

> <PUBCHEM_CACTVS_HBOND_DONOR>
0

> <PUBCHEM_CACTVS_ROTATABLE_BOND>
5

> <PUBCHEM_CACTVS_SUBSKEYS>
AAADceB7gAAAAAAAAAAAAAAAAAAAAWAAAAA8WIAAAAAAAFgB8AAAHAAAAAAADAjBHgQ8wLMMGACwBzRnRACigCAxAiAI2CA4ZJgI4OLA0ZGUIAhggADIyA8QgMAOgAAAAAAAAAAAAAAAAAAAAAAAAAAAAA==

> <PUBCHEM_IUPAC_OPENEYE_NAME>
2-[[4-(2-phenylethyl)piperazin-1-yl]methyl]indolizine-1-carbonitrile

> <PUBCHEM_IUPAC_CAS_NAME>
2-[[4-(2-phenylethyl)-1-piperazinyl]methyl]-1-indolizinecarbonitrile

> <PUBCHEM_IUPAC_NAME_MARKUP>
2-[[4-(2-phenylethyl)piperazin-1-yl]methyl]indolizine-1-carbonitrile

> <PUBCHEM_IUPAC_NAME>
2-[[4-(2-phenylethyl)piperazin-1-yl]methyl]indolizine-1-carbonitrile

> <PUBCHEM_IUPAC_SYSTEMATIC_NAME>
2-[[4-(2-phenylethyl)piperazin-1-yl]methyl]indolizine-1-carbonitrile

> <PUBCHEM_IUPAC_TRADITIONAL_NAME>
2-[(4-phenethylpiperazino)methyl]indolizine-1-carbonitrile

> <PUBCHEM_IUPAC_INCHI>
InChI=1S/C22H24N4/c23-16-21-20(18-26-10-5-4-8-22(21)26)17-25-14-12-24(13-15-25)11-9-19-6-2-1-3-7-19/h1-8,10,18H,9,11-15,17H2

> <PUBCHEM_IUPAC_INCHIKEY>
MZCGNTZTYZJMJK-UHFFFAOYSA-N

> <PUBCHEM_XLOGP3_AA>
3.8

> <PUBCHEM_EXACT_MASS>
344.20009678

> <PUBCHEM_MOLECULAR_FORMULA>
C22H24N4

> <PUBCHEM_MOLECULAR_WEIGHT>
344.5

> <PUBCHEM_OPENEYE_CAN_SMILES>
C1CN(CCN1CCC2=CC=CC=C2)CC3=CN4C=CC=CC4=C3C#N

> <PUBCHEM_OPENEYE_ISO_SMILES>
C1CN(CCN1CCC2=CC=CC=C2)CC3=CN4C=CC=CC4=C3C#N

> <PUBCHEM_CACTVS_TPSA>
34.7

> <PUBCHEM_MONOISOTOPIC_WEIGHT>
344.20009678

> <PUBCHEM_TOTAL_CHARGE>
0

> <PUBCHEM_HEAVY_ATOM_COUNT>
26

> <PUBCHEM_ATOM_DEF_STEREO_COUNT>
0

> <PUBCHEM_ATOM_UDEF_STEREO_COUNT>
0

> <PUBCHEM_BOND_DEF_STEREO_COUNT>
0

> <PUBCHEM_BOND_UDEF_STEREO_COUNT>
0

> <PUBCHEM_ISOTOPIC_ATOM_COUNT>
0

> <PUBCHEM_COMPONENT_COUNT>
1

> <PUBCHEM_CACTVS_TAUTO_COUNT>
-1

> <PUBCHEM_COORDINATE_TYPE>
1
5
255

> <PUBCHEM_BONDANNOTATIONS>
11  13  8
11  14  8
13  15  8
15  17  8
16  19  8
16  20  8
17  22  8
18  23  8
19  24  8
20  25  8
22  23  8
24  26  8
25  26  8
3  14  8
3  15  8
3  18  8

$$$$
