9961911
  -OEChem-09292322202D

108115  0     0  0  0  0  0  0999 V2000
    9.2619   -2.5907    0.0000 O   0  0  0  0  0  0  0  0  0  0  0  0
    8.4487    0.4966    0.0000 O   0  0  0  0  0  0  0  0  0  0  0  0
   12.2619   -4.3228    0.0000 N   0  0  0  0  0  0  0  0  0  0  0  0
   11.8926    0.1226    0.0000 N   0  0  0  0  0  0  0  0  0  0  0  0
    4.6783   -1.7860    0.0000 N   0  0  0  0  0  0  0  0  0  0  0  0
    4.2746    2.5542    0.0000 N   0  0  0  0  0  0  0  0  0  0  0  0
    4.6783   -3.3955    0.0000 N   0  0  0  0  0  0  0  0  0  0  0  0
    5.2251    3.8530    0.0000 N   0  0  0  0  0  0  0  0  0  0  0  0
   12.7619   -5.1888    0.0000 C   0  0  0  0  0  0  0  0  0  0  0  0
   12.7619   -3.4568    0.0000 C   0  0  0  0  0  0  0  0  0  0  0  0
   11.7846   -0.8716    0.0000 C   0  0  0  0  0  0  0  0  0  0  0  0
   12.8075    0.5261    0.0000 C   0  0  0  0  0  0  0  0  0  0  0  0
   13.7619   -5.1888    0.0000 C   0  0  0  0  0  0  0  0  0  0  0  0
   13.7619   -3.4568    0.0000 C   0  0  0  0  0  0  0  0  0  0  0  0
   12.5916   -1.4622    0.0000 C   0  0  0  0  0  0  0  0  0  0  0  0
   13.6145   -0.0644    0.0000 C   0  0  0  0  0  0  0  0  0  0  0  0
   14.2619   -4.3228    0.0000 C   0  0  0  0  0  0  0  0  0  0  0  0
   13.5065   -1.0586    0.0000 C   0  0  0  0  0  0  0  0  0  0  0  0
   11.2619   -4.3228    0.0000 C   0  0  0  0  0  0  0  0  0  0  0  0
   11.0856    0.7131    0.0000 C   0  0  0  0  0  0  0  0  0  0  0  0
   10.7619   -3.4568    0.0000 C   0  0  0  0  0  0  0  0  0  0  0  0
   10.1706    0.3096    0.0000 C   0  0  0  0  0  0  0  0  0  0  0  0
    9.7619   -3.4568    0.0000 C   0  0  0  0  0  0  0  0  0  0  0  0
    9.3636    0.9002    0.0000 C   0  0  0  0  0  0  0  0  0  0  0  0
    8.2619   -2.5907    0.0000 C   0  0  0  0  0  0  0  0  0  0  0  0
    7.6417    1.0872    0.0000 C   0  0  0  0  0  0  0  0  0  0  0  0
    5.2619   -2.5907    0.0000 C   0  0  0  0  0  0  0  0  0  0  0  0
    5.2208    2.8589    0.0000 C   0  0  0  0  0  0  0  0  0  0  0  0
    6.2619   -2.5907    0.0000 C   0  0  0  0  0  0  0  0  0  0  0  0
    6.0278    2.2683    0.0000 C   0  0  0  0  0  0  0  0  0  0  0  0
    7.7619   -3.4568    0.0000 C   0  0  0  0  0  0  0  0  0  0  0  0
    6.7268    0.6836    0.0000 C   0  0  0  0  0  0  0  0  0  0  0  0
    7.7619   -1.7247    0.0000 C   0  0  0  0  0  0  0  0  0  0  0  0
    7.7497    2.0813    0.0000 C   0  0  0  0  0  0  0  0  0  0  0  0
    4.9889   -0.8355    0.0000 C   0  0  0  0  0  0  0  0  0  0  0  0
    3.9639    1.6036    0.0000 C   0  0  0  0  0  0  0  0  0  0  0  0
    3.7320   -2.0907    0.0000 C   0  0  0  0  0  0  0  0  0  0  0  0
    3.6910    3.3589    0.0000 C   0  0  0  0  0  0  0  0  0  0  0  0
    6.7619   -3.4568    0.0000 C   0  0  0  0  0  0  0  0  0  0  0  0
    5.9198    1.2742    0.0000 C   0  0  0  0  0  0  0  0  0  0  0  0
    6.7619   -1.7247    0.0000 C   0  0  0  0  0  0  0  0  0  0  0  0
    6.9427    2.6719    0.0000 C   0  0  0  0  0  0  0  0  0  0  0  0
    3.7320   -3.0907    0.0000 C   0  0  0  0  0  0  0  0  0  0  0  0
    4.2815    4.1659    0.0000 C   0  0  0  0  0  0  0  0  0  0  0  0
    4.3211   -0.0912    0.0000 C   0  0  0  0  0  0  0  0  0  0  0  0
    4.6318    0.8594    0.0000 C   0  0  0  0  0  0  0  0  0  0  0  0
    2.8660   -1.5907    0.0000 C   0  0  0  0  0  0  0  0  0  0  0  0
    2.6968    3.4669    0.0000 C   0  0  0  0  0  0  0  0  0  0  0  0
    2.8660   -3.5907    0.0000 C   0  0  0  0  0  0  0  0  0  0  0  0
    3.8780    5.0808    0.0000 C   0  0  0  0  0  0  0  0  0  0  0  0
    2.0000   -2.0907    0.0000 C   0  0  0  0  0  0  0  0  0  0  0  0
    2.2932    4.3818    0.0000 C   0  0  0  0  0  0  0  0  0  0  0  0
    2.0000   -3.0907    0.0000 C   0  0  0  0  0  0  0  0  0  0  0  0
    2.8838    5.1888    0.0000 C   0  0  0  0  0  0  0  0  0  0  0  0
   12.1793   -5.4008    0.0000 H   0  0  0  0  0  0  0  0  0  0  0  0
   12.8695   -5.7994    0.0000 H   0  0  0  0  0  0  0  0  0  0  0  0
   12.8695   -2.8462    0.0000 H   0  0  0  0  0  0  0  0  0  0  0  0
   12.1793   -3.2447    0.0000 H   0  0  0  0  0  0  0  0  0  0  0  0
   11.1892   -0.6986    0.0000 H   0  0  0  0  0  0  0  0  0  0  0  0
   11.5109   -1.4279    0.0000 H   0  0  0  0  0  0  0  0  0  0  0  0
   13.2550    0.9553    0.0000 H   0  0  0  0  0  0  0  0  0  0  0  0
   12.4626    1.0413    0.0000 H   0  0  0  0  0  0  0  0  0  0  0  0
   13.6542   -5.7994    0.0000 H   0  0  0  0  0  0  0  0  0  0  0  0
   14.3445   -5.4008    0.0000 H   0  0  0  0  0  0  0  0  0  0  0  0
   14.3445   -3.2447    0.0000 H   0  0  0  0  0  0  0  0  0  0  0  0
   13.6542   -2.8462    0.0000 H   0  0  0  0  0  0  0  0  0  0  0  0
   12.1441   -1.8913    0.0000 H   0  0  0  0  0  0  0  0  0  0  0  0
   12.9365   -1.9774    0.0000 H   0  0  0  0  0  0  0  0  0  0  0  0
   14.2099   -0.2374    0.0000 H   0  0  0  0  0  0  0  0  0  0  0  0
   13.8882    0.4919    0.0000 H   0  0  0  0  0  0  0  0  0  0  0  0
   14.7368   -4.7213    0.0000 H   0  0  0  0  0  0  0  0  0  0  0  0
   14.7368   -3.9242    0.0000 H   0  0  0  0  0  0  0  0  0  0  0  0
   13.6544   -1.6607    0.0000 H   0  0  0  0  0  0  0  0  0  0  0  0
   14.1251   -1.0175    0.0000 H   0  0  0  0  0  0  0  0  0  0  0  0
   10.6793   -4.5348    0.0000 H   0  0  0  0  0  0  0  0  0  0  0  0
   11.3695   -4.9334    0.0000 H   0  0  0  0  0  0  0  0  0  0  0  0
   11.5331    1.1423    0.0000 H   0  0  0  0  0  0  0  0  0  0  0  0
   10.7407    1.2283    0.0000 H   0  0  0  0  0  0  0  0  0  0  0  0
   11.3445   -3.2447    0.0000 H   0  0  0  0  0  0  0  0  0  0  0  0
   10.6542   -2.8462    0.0000 H   0  0  0  0  0  0  0  0  0  0  0  0
    9.7232   -0.1196    0.0000 H   0  0  0  0  0  0  0  0  0  0  0  0
   10.5155   -0.2056    0.0000 H   0  0  0  0  0  0  0  0  0  0  0  0
    9.1793   -3.6688    0.0000 H   0  0  0  0  0  0  0  0  0  0  0  0
    9.8695   -4.0673    0.0000 H   0  0  0  0  0  0  0  0  0  0  0  0
    9.8111    1.3293    0.0000 H   0  0  0  0  0  0  0  0  0  0  0  0
    9.0187    1.4154    0.0000 H   0  0  0  0  0  0  0  0  0  0  0  0
    8.0719   -3.9937    0.0000 H   0  0  0  0  0  0  0  0  0  0  0  0
    6.6598    0.0672    0.0000 H   0  0  0  0  0  0  0  0  0  0  0  0
    8.0719   -1.1878    0.0000 H   0  0  0  0  0  0  0  0  0  0  0  0
    8.3170    2.3315    0.0000 H   0  0  0  0  0  0  0  0  0  0  0  0
    5.5359   -1.1275    0.0000 H   0  0  0  0  0  0  0  0  0  0  0  0
    5.3715   -0.3476    0.0000 H   0  0  0  0  0  0  0  0  0  0  0  0
    3.4170    1.8957    0.0000 H   0  0  0  0  0  0  0  0  0  0  0  0
    3.5814    1.1158    0.0000 H   0  0  0  0  0  0  0  0  0  0  0  0
    6.4519   -3.9937    0.0000 H   0  0  0  0  0  0  0  0  0  0  0  0
    5.3525    1.0240    0.0000 H   0  0  0  0  0  0  0  0  0  0  0  0
    6.4519   -1.1878    0.0000 H   0  0  0  0  0  0  0  0  0  0  0  0
    7.0097    3.2883    0.0000 H   0  0  0  0  0  0  0  0  0  0  0  0
    3.7144   -0.2190    0.0000 H   0  0  0  0  0  0  0  0  0  0  0  0
    5.2384    0.9872    0.0000 H   0  0  0  0  0  0  0  0  0  0  0  0
    2.8660   -0.9707    0.0000 H   0  0  0  0  0  0  0  0  0  0  0  0
    2.3306    2.9665    0.0000 H   0  0  0  0  0  0  0  0  0  0  0  0
    2.8660   -4.2107    0.0000 H   0  0  0  0  0  0  0  0  0  0  0  0
    4.2441    5.5812    0.0000 H   0  0  0  0  0  0  0  0  0  0  0  0
    1.4631   -1.7807    0.0000 H   0  0  0  0  0  0  0  0  0  0  0  0
    1.6769    4.4488    0.0000 H   0  0  0  0  0  0  0  0  0  0  0  0
    1.4631   -3.4007    0.0000 H   0  0  0  0  0  0  0  0  0  0  0  0
    2.6336    5.7561    0.0000 H   0  0  0  0  0  0  0  0  0  0  0  0
  1 23  1  0  0  0  0
  1 25  1  0  0  0  0
  2 24  1  0  0  0  0
  2 26  1  0  0  0  0
  3  9  1  0  0  0  0
  3 10  1  0  0  0  0
  3 19  1  0  0  0  0
  4 11  1  0  0  0  0
  4 12  1  0  0  0  0
  4 20  1  0  0  0  0
  5 27  1  0  0  0  0
  5 35  1  0  0  0  0
  5 37  1  0  0  0  0
  6 28  1  0  0  0  0
  6 36  1  0  0  0  0
  6 38  1  0  0  0  0
  7 27  2  0  0  0  0
  7 43  1  0  0  0  0
  8 28  2  0  0  0  0
  8 44  1  0  0  0  0
  9 13  1  0  0  0  0
  9 55  1  0  0  0  0
  9 56  1  0  0  0  0
 10 14  1  0  0  0  0
 10 57  1  0  0  0  0
 10 58  1  0  0  0  0
 11 15  1  0  0  0  0
 11 59  1  0  0  0  0
 11 60  1  0  0  0  0
 12 16  1  0  0  0  0
 12 61  1  0  0  0  0
 12 62  1  0  0  0  0
 13 17  1  0  0  0  0
 13 63  1  0  0  0  0
 13 64  1  0  0  0  0
 14 17  1  0  0  0  0
 14 65  1  0  0  0  0
 14 66  1  0  0  0  0
 15 18  1  0  0  0  0
 15 67  1  0  0  0  0
 15 68  1  0  0  0  0
 16 18  1  0  0  0  0
 16 69  1  0  0  0  0
 16 70  1  0  0  0  0
 17 71  1  0  0  0  0
 17 72  1  0  0  0  0
 18 73  1  0  0  0  0
 18 74  1  0  0  0  0
 19 21  1  0  0  0  0
 19 75  1  0  0  0  0
 19 76  1  0  0  0  0
 20 22  1  0  0  0  0
 20 77  1  0  0  0  0
 20 78  1  0  0  0  0
 21 23  1  0  0  0  0
 21 79  1  0  0  0  0
 21 80  1  0  0  0  0
 22 24  1  0  0  0  0
 22 81  1  0  0  0  0
 22 82  1  0  0  0  0
 23 83  1  0  0  0  0
 23 84  1  0  0  0  0
 24 85  1  0  0  0  0
 24 86  1  0  0  0  0
 25 31  2  0  0  0  0
 25 33  1  0  0  0  0
 26 32  2  0  0  0  0
 26 34  1  0  0  0  0
 27 29  1  0  0  0  0
 28 30  1  0  0  0  0
 29 39  2  0  0  0  0
 29 41  1  0  0  0  0
 30 40  2  0  0  0  0
 30 42  1  0  0  0  0
 31 39  1  0  0  0  0
 31 87  1  0  0  0  0
 32 40  1  0  0  0  0
 32 88  1  0  0  0  0
 33 41  2  0  0  0  0
 33 89  1  0  0  0  0
 34 42  2  0  0  0  0
 34 90  1  0  0  0  0
 35 45  1  0  0  0  0
 35 91  1  0  0  0  0
 35 92  1  0  0  0  0
 36 46  1  0  0  0  0
 36 93  1  0  0  0  0
 36 94  1  0  0  0  0
 37 43  1  0  0  0  0
 37 47  2  0  0  0  0
 38 44  1  0  0  0  0
 38 48  2  0  0  0  0
 39 95  1  0  0  0  0
 40 96  1  0  0  0  0
 41 97  1  0  0  0  0
 42 98  1  0  0  0  0
 43 49  2  0  0  0  0
 44 50  2  0  0  0  0
 45 46  2  0  0  0  0
 45 99  1  0  0  0  0
 46100  1  0  0  0  0
 47 51  1  0  0  0  0
 47101  1  0  0  0  0
 48 52  1  0  0  0  0
 48102  1  0  0  0  0
 49 53  1  0  0  0  0
 49103  1  0  0  0  0
 50 54  1  0  0  0  0
 50104  1  0  0  0  0
 51 53  2  0  0  0  0
 51105  1  0  0  0  0
 52 54  2  0  0  0  0
 52106  1  0  0  0  0
 53107  1  0  0  0  0
 54108  1  0  0  0  0
M  END
> <PUBCHEM_COMPOUND_CID>
9961911

> <PUBCHEM_COMPOUND_CANONICALIZED>
1

> <PUBCHEM_CACTVS_COMPLEXITY>
1010

> <PUBCHEM_CACTVS_HBOND_ACCEPTOR>
6

> <PUBCHEM_CACTVS_HBOND_DONOR>
0

> <PUBCHEM_CACTVS_ROTATABLE_BOND>
16

> <PUBCHEM_CACTVS_SUBSKEYS>
AAADcfB/sAAAAAAAAAAAAAAAAAAAAWLAAAA8eMGCAAAAAFgB/gAAHgAAAAAADAzhnwYx1rcMFACgAyZiZACCiC0hMqAJ2CA+fJiMbqLEuZuWOCjuwBPI6CeQ0AIOIAAAAAAAACBAAAAAAAAAQAAAAAAAAA==

> <PUBCHEM_IUPAC_OPENEYE_NAME>
2-[4-[3-(1-piperidyl)propoxy]phenyl]-1-[(E)-4-[2-[4-[3-(1-piperidyl)propoxy]phenyl]benzimidazol-1-yl]but-2-enyl]benzimidazole

> <PUBCHEM_IUPAC_CAS_NAME>
2-[4-[3-(1-piperidinyl)propoxy]phenyl]-1-[(E)-4-[2-[4-[3-(1-piperidinyl)propoxy]phenyl]-1-benzimidazolyl]but-2-enyl]benzimidazole

> <PUBCHEM_IUPAC_NAME_MARKUP>
2-[4-(3-piperidin-1-ylpropoxy)phenyl]-1-[(<I>E</I>)-4-[2-[4-(3-piperidin-1-ylpropoxy)phenyl]benzimidazol-1-yl]but-2-enyl]benzimidazole

> <PUBCHEM_IUPAC_NAME>
2-[4-(3-piperidin-1-ylpropoxy)phenyl]-1-[(E)-4-[2-[4-(3-piperidin-1-ylpropoxy)phenyl]benzimidazol-1-yl]but-2-enyl]benzimidazole

> <PUBCHEM_IUPAC_SYSTEMATIC_NAME>
2-[4-(3-piperidin-1-ylpropoxy)phenyl]-1-[(E)-4-[2-[4-(3-piperidin-1-ylpropoxy)phenyl]benzimidazol-1-yl]but-2-enyl]benzimidazole

> <PUBCHEM_IUPAC_TRADITIONAL_NAME>
2-[4-(3-piperidinopropoxy)phenyl]-1-[(E)-4-[2-[4-(3-piperidinopropoxy)phenyl]benzimidazol-1-yl]but-2-enyl]benzimidazole

> <PUBCHEM_IUPAC_INCHI>
InChI=1S/C46H54N6O2/c1-7-27-49(28-8-1)31-13-35-53-39-23-19-37(20-24-39)45-47-41-15-3-5-17-43(41)51(45)33-11-12-34-52-44-18-6-4-16-42(44)48-46(52)38-21-25-40(26-22-38)54-36-14-32-50-29-9-2-10-30-50/h3-6,11-12,15-26H,1-2,7-10,13-14,27-36H2/b12-11+

> <PUBCHEM_IUPAC_INCHIKEY>
RTRBUDIKCGJLKP-VAWYXSNFSA-N

> <PUBCHEM_XLOGP3_AA>
8.9

> <PUBCHEM_EXACT_MASS>
722.43082499

> <PUBCHEM_MOLECULAR_FORMULA>
C46H54N6O2

> <PUBCHEM_MOLECULAR_WEIGHT>
723.0

> <PUBCHEM_OPENEYE_CAN_SMILES>
C1CCN(CC1)CCCOC2=CC=C(C=C2)C3=NC4=CC=CC=C4N3CC=CCN5C6=CC=CC=C6N=C5C7=CC=C(C=C7)OCCCN8CCCCC8

> <PUBCHEM_OPENEYE_ISO_SMILES>
C1CCN(CC1)CCCOC2=CC=C(C=C2)C3=NC4=CC=CC=C4N3C/C=C/CN5C6=CC=CC=C6N=C5C7=CC=C(C=C7)OCCCN8CCCCC8

> <PUBCHEM_CACTVS_TPSA>
60.6

> <PUBCHEM_MONOISOTOPIC_WEIGHT>
722.43082499

> <PUBCHEM_TOTAL_CHARGE>
0

> <PUBCHEM_HEAVY_ATOM_COUNT>
54

> <PUBCHEM_ATOM_DEF_STEREO_COUNT>
0

> <PUBCHEM_ATOM_UDEF_STEREO_COUNT>
0

> <PUBCHEM_BOND_DEF_STEREO_COUNT>
1

> <PUBCHEM_BOND_UDEF_STEREO_COUNT>
0

> <PUBCHEM_ISOTOPIC_ATOM_COUNT>
0

> <PUBCHEM_COMPONENT_COUNT>
1

> <PUBCHEM_CACTVS_TAUTO_COUNT>
-1

> <PUBCHEM_COORDINATE_TYPE>
1
5
255

> <PUBCHEM_BONDANNOTATIONS>
25  31  8
25  33  8
26  32  8
26  34  8
29  39  8
29  41  8
30  40  8
30  42  8
31  39  8
32  40  8
33  41  8
34  42  8
37  43  8
37  47  8
38  44  8
38  48  8
43  49  8
44  50  8
47  51  8
48  52  8
49  53  8
5  27  8
5  37  8
50  54  8
51  53  8
52  54  8
6  28  8
6  38  8
7  27  8
7  43  8
8  28  8
8  44  8

$$$$
