44324041
  -OEChem-09292322152D

 45 47  0     1  0  0  0  0  0999 V2000
    9.2619   -3.0055    0.0000 O   0  5  0  0  0  0  0  0  0  0  0  0
    7.7619   -3.8715    0.0000 O   0  0  0  0  0  0  0  0  0  0  0  0
    4.6783   -2.0781    0.0000 N   0  0  0  0  0  0  0  0  0  0  0  0
    4.6318    2.1767    0.0000 N   0  0  3  0  0  0  0  0  0  0  0  0
    8.2619   -3.0055    0.0000 N   0  3  0  0  0  0  0  0  0  0  0  0
    4.6783   -0.4687    0.0000 C   0  0  0  0  0  0  0  0  0  0  0  0
    4.9889    0.4818    0.0000 C   0  0  0  0  0  0  0  0  0  0  0  0
    5.2619   -1.2734    0.0000 C   0  0  0  0  0  0  0  0  0  0  0  0
    3.7320   -0.7734    0.0000 C   0  0  0  0  0  0  0  0  0  0  0  0
    4.3211    1.2261    0.0000 C   0  0  0  0  0  0  0  0  0  0  0  0
    3.7320   -1.7734    0.0000 C   0  0  0  0  0  0  0  0  0  0  0  0
    6.2619   -1.2734    0.0000 C   0  0  0  0  0  0  0  0  0  0  0  0
    2.8660   -0.2734    0.0000 C   0  0  0  0  0  0  0  0  0  0  0  0
    3.9639    2.9210    0.0000 C   0  0  0  0  0  0  0  0  0  0  0  0
    2.8660   -2.2734    0.0000 C   0  0  0  0  0  0  0  0  0  0  0  0
    5.6103    2.3829    0.0000 C   0  0  0  0  0  0  0  0  0  0  0  0
    2.0000   -0.7734    0.0000 C   0  0  0  0  0  0  0  0  0  0  0  0
    6.7619   -2.1394    0.0000 C   0  0  0  0  0  0  0  0  0  0  0  0
    2.0000   -1.7734    0.0000 C   0  0  0  0  0  0  0  0  0  0  0  0
    6.7619   -0.4074    0.0000 C   0  0  0  0  0  0  0  0  0  0  0  0
    4.2746    3.8715    0.0000 C   0  0  0  0  0  0  0  0  0  0  0  0
    7.7619   -2.1394    0.0000 C   0  0  0  0  0  0  0  0  0  0  0  0
    7.7619   -0.4074    0.0000 C   0  0  0  0  0  0  0  0  0  0  0  0
    8.2619   -1.2734    0.0000 C   0  0  0  0  0  0  0  0  0  0  0  0
    5.5359    0.1898    0.0000 H   0  0  0  0  0  0  0  0  0  0  0  0
    5.3715    0.9697    0.0000 H   0  0  0  0  0  0  0  0  0  0  0  0
    3.7742    1.5182    0.0000 H   0  0  0  0  0  0  0  0  0  0  0  0
    3.9385    0.7382    0.0000 H   0  0  0  0  0  0  0  0  0  0  0  0
    4.8709   -2.6675    0.0000 H   0  0  0  0  0  0  0  0  0  0  0  0
    2.8660    0.3466    0.0000 H   0  0  0  0  0  0  0  0  0  0  0  0
    3.4170    3.2130    0.0000 H   0  0  0  0  0  0  0  0  0  0  0  0
    3.5814    2.4331    0.0000 H   0  0  0  0  0  0  0  0  0  0  0  0
    2.8660   -2.8934    0.0000 H   0  0  0  0  0  0  0  0  0  0  0  0
    5.7381    1.7762    0.0000 H   0  0  0  0  0  0  0  0  0  0  0  0
    6.2169    2.5107    0.0000 H   0  0  0  0  0  0  0  0  0  0  0  0
    5.4824    2.9896    0.0000 H   0  0  0  0  0  0  0  0  0  0  0  0
    1.4631   -0.4634    0.0000 H   0  0  0  0  0  0  0  0  0  0  0  0
    6.4519   -2.6764    0.0000 H   0  0  0  0  0  0  0  0  0  0  0  0
    1.4631   -2.0834    0.0000 H   0  0  0  0  0  0  0  0  0  0  0  0
    6.4519    0.1296    0.0000 H   0  0  0  0  0  0  0  0  0  0  0  0
    4.8639    3.6789    0.0000 H   0  0  0  0  0  0  0  0  0  0  0  0
    4.4672    4.4608    0.0000 H   0  0  0  0  0  0  0  0  0  0  0  0
    3.6852    4.0641    0.0000 H   0  0  0  0  0  0  0  0  0  0  0  0
    8.0719    0.1296    0.0000 H   0  0  0  0  0  0  0  0  0  0  0  0
    8.8819   -1.2734    0.0000 H   0  0  0  0  0  0  0  0  0  0  0  0
  1  5  1  0  0  0  0
  2  5  2  0  0  0  0
  3  8  1  0  0  0  0
  3 11  1  0  0  0  0
  3 29  1  0  0  0  0
  4 10  1  0  0  0  0
  4 14  1  0  0  0  0
  4 16  1  0  0  0  0
  5 22  1  0  0  0  0
  6  7  1  0  0  0  0
  6  8  2  0  0  0  0
  6  9  1  0  0  0  0
  7 10  1  0  0  0  0
  7 25  1  0  0  0  0
  7 26  1  0  0  0  0
  8 12  1  0  0  0  0
  9 11  1  0  0  0  0
  9 13  2  0  0  0  0
 10 27  1  0  0  0  0
 10 28  1  0  0  0  0
 11 15  2  0  0  0  0
 12 18  2  0  0  0  0
 12 20  1  0  0  0  0
 13 17  1  0  0  0  0
 13 30  1  0  0  0  0
 14 21  1  0  0  0  0
 14 31  1  0  0  0  0
 14 32  1  0  0  0  0
 15 19  1  0  0  0  0
 15 33  1  0  0  0  0
 16 34  1  0  0  0  0
 16 35  1  0  0  0  0
 16 36  1  0  0  0  0
 17 19  2  0  0  0  0
 17 37  1  0  0  0  0
 18 22  1  0  0  0  0
 18 38  1  0  0  0  0
 19 39  1  0  0  0  0
 20 23  2  0  0  0  0
 20 40  1  0  0  0  0
 21 41  1  0  0  0  0
 21 42  1  0  0  0  0
 21 43  1  0  0  0  0
 22 24  2  0  0  0  0
 23 24  1  0  0  0  0
 23 44  1  0  0  0  0
 24 45  1  0  0  0  0
M  CHG  2   1  -1   5   1
M  END
> <PUBCHEM_COMPOUND_CID>
44324041

> <PUBCHEM_COMPOUND_CANONICALIZED>
1

> <PUBCHEM_CACTVS_COMPLEXITY>
425

> <PUBCHEM_CACTVS_HBOND_ACCEPTOR>
3

> <PUBCHEM_CACTVS_HBOND_DONOR>
1

> <PUBCHEM_CACTVS_ROTATABLE_BOND>
5

> <PUBCHEM_CACTVS_SUBSKEYS>
AAADceB7MAAAAAAAAAAAAAAAAAAAAWAAAAAwYAAAAAAAAFgB9AAAHAAUAAAADAjBHgQywPPZ0AChAyRiRwCCgCAhAiAomSA4ZJoIIOLAkZGEIAhgkADIyAcQgMAOgAAAQAACAAAAAACAAAQAAAAAAAAAAA==

> <PUBCHEM_IUPAC_OPENEYE_NAME>
N-ethyl-N-methyl-2-[2-(3-nitrophenyl)-1H-indol-3-yl]ethanamine

> <PUBCHEM_IUPAC_CAS_NAME>
N-ethyl-N-methyl-2-[2-(3-nitrophenyl)-1H-indol-3-yl]ethanamine

> <PUBCHEM_IUPAC_NAME_MARKUP>
<I>N</I>-ethyl-<I>N</I>-methyl-2-[2-(3-nitrophenyl)-1<I>H</I>-indol-3-yl]ethanamine

> <PUBCHEM_IUPAC_NAME>
N-ethyl-N-methyl-2-[2-(3-nitrophenyl)-1H-indol-3-yl]ethanamine

> <PUBCHEM_IUPAC_SYSTEMATIC_NAME>
N-ethyl-N-methyl-2-[2-(3-nitrophenyl)-1H-indol-3-yl]ethanamine

> <PUBCHEM_IUPAC_TRADITIONAL_NAME>
ethyl-methyl-[2-[2-(3-nitrophenyl)-1H-indol-3-yl]ethyl]amine

> <PUBCHEM_IUPAC_INCHI>
InChI=1S/C19H21N3O2/c1-3-21(2)12-11-17-16-9-4-5-10-18(16)20-19(17)14-7-6-8-15(13-14)22(23)24/h4-10,13,20H,3,11-12H2,1-2H3

> <PUBCHEM_IUPAC_INCHIKEY>
NPNPXVGDECLLAT-UHFFFAOYSA-N

> <PUBCHEM_XLOGP3_AA>
4.2

> <PUBCHEM_EXACT_MASS>
323.16337692

> <PUBCHEM_MOLECULAR_FORMULA>
C19H21N3O2

> <PUBCHEM_MOLECULAR_WEIGHT>
323.4

> <PUBCHEM_OPENEYE_CAN_SMILES>
CCN(C)CCC1=C(NC2=CC=CC=C21)C3=CC(=CC=C3)[N+](=O)[O-]

> <PUBCHEM_OPENEYE_ISO_SMILES>
CCN(C)CCC1=C(NC2=CC=CC=C21)C3=CC(=CC=C3)[N+](=O)[O-]

> <PUBCHEM_CACTVS_TPSA>
64.8

> <PUBCHEM_MONOISOTOPIC_WEIGHT>
323.16337692

> <PUBCHEM_TOTAL_CHARGE>
0

> <PUBCHEM_HEAVY_ATOM_COUNT>
24

> <PUBCHEM_ATOM_DEF_STEREO_COUNT>
0

> <PUBCHEM_ATOM_UDEF_STEREO_COUNT>
0

> <PUBCHEM_BOND_DEF_STEREO_COUNT>
0

> <PUBCHEM_BOND_UDEF_STEREO_COUNT>
0

> <PUBCHEM_ISOTOPIC_ATOM_COUNT>
0

> <PUBCHEM_COMPONENT_COUNT>
1

> <PUBCHEM_CACTVS_TAUTO_COUNT>
-1

> <PUBCHEM_COORDINATE_TYPE>
1
5
255

> <PUBCHEM_BONDANNOTATIONS>
11  15  8
12  18  8
12  20  8
13  17  8
15  19  8
17  19  8
18  22  8
20  23  8
22  24  8
23  24  8
3  11  8
3  8  8
6  8  8
6  9  8
9  11  8
9  13  8

$$$$
