76331989
  -OEChem-09292322342D

 61 66  0     1  0  0  0  0  0999 V2000
    2.0000    0.1410    0.0000 F   0  0  0  0  0  0  0  0  0  0  0  0
    4.7684    2.3627    0.0000 O   0  0  0  0  0  0  0  0  0  0  0  0
   11.0395    2.1648    0.0000 O   0  0  0  0  0  0  0  0  0  0  0  0
    8.4414   -0.3352    0.0000 N   0  0  0  0  0  0  0  0  0  0  0  0
    5.7402    2.1535    0.0000 N   0  0  0  0  0  0  0  0  0  0  0  0
    6.7093    0.6648    0.0000 C   0  0  0  0  0  0  0  0  0  0  0  0
   10.1734   -0.3352    0.0000 C   0  0  3  0  0  0  0  0  0  0  0  0
    9.3074   -0.8352    0.0000 C   0  0  0  0  0  0  0  0  0  0  0  0
    7.5754   -0.8352    0.0000 C   0  0  0  0  0  0  0  0  0  0  0  0
    8.4414    0.6648    0.0000 C   0  0  0  0  0  0  0  0  0  0  0  0
    6.7093   -0.3352    0.0000 C   0  0  0  0  0  0  0  0  0  0  0  0
    7.5754    1.1648    0.0000 C   0  0  0  0  0  0  0  0  0  0  0  0
   11.0395   -0.8352    0.0000 C   0  0  0  0  0  0  0  0  0  0  0  0
   10.1734    0.6648    0.0000 C   0  0  0  0  0  0  0  0  0  0  0  0
    5.8433    1.1648    0.0000 C   0  0  0  0  0  0  0  0  0  0  0  0
   11.9055   -0.3352    0.0000 C   0  0  0  0  0  0  0  0  0  0  0  0
   11.0395    1.1648    0.0000 C   0  0  0  0  0  0  0  0  0  0  0  0
   11.9055    0.6648    0.0000 C   0  0  0  0  0  0  0  0  0  0  0  0
    4.9355    0.7597    0.0000 C   0  0  0  0  0  0  0  0  0  0  0  0
   12.7994   -0.8699    0.0000 C   0  0  0  0  0  0  0  0  0  0  0  0
   12.7994    1.1994    0.0000 C   0  0  0  0  0  0  0  0  0  0  0  0
    4.2677    1.5040    0.0000 C   0  0  0  0  0  0  0  0  0  0  0  0
   13.7055   -0.3560    0.0000 C   0  0  0  0  0  0  0  0  0  0  0  0
   13.7055    0.6856    0.0000 C   0  0  0  0  0  0  0  0  0  0  0  0
    4.6249   -0.1909    0.0000 C   0  0  0  0  0  0  0  0  0  0  0  0
    3.2892    1.2977    0.0000 C   0  0  0  0  0  0  0  0  0  0  0  0
   14.5696   -0.8594    0.0000 C   0  0  0  0  0  0  0  0  0  0  0  0
    3.6464   -0.3971    0.0000 C   0  0  0  0  0  0  0  0  0  0  0  0
    2.9785    0.3472    0.0000 C   0  0  0  0  0  0  0  0  0  0  0  0
   15.4375   -0.3627    0.0000 C   0  0  0  0  0  0  0  0  0  0  0  0
   14.5657   -1.8594    0.0000 C   0  0  0  0  0  0  0  0  0  0  0  0
   16.3016   -0.8661    0.0000 C   0  0  0  0  0  0  0  0  0  0  0  0
   15.4298   -2.3627    0.0000 C   0  0  0  0  0  0  0  0  0  0  0  0
   16.2978   -1.8660    0.0000 C   0  0  0  0  0  0  0  0  0  0  0  0
    6.7093    1.2848    0.0000 H   0  0  0  0  0  0  0  0  0  0  0  0
   10.1734   -0.9552    0.0000 H   0  0  0  0  0  0  0  0  0  0  0  0
    8.9089   -1.3102    0.0000 H   0  0  0  0  0  0  0  0  0  0  0  0
    9.7059   -1.3102    0.0000 H   0  0  0  0  0  0  0  0  0  0  0  0
    7.1768   -1.3102    0.0000 H   0  0  0  0  0  0  0  0  0  0  0  0
    7.9739   -1.3102    0.0000 H   0  0  0  0  0  0  0  0  0  0  0  0
    9.0520    0.5571    0.0000 H   0  0  0  0  0  0  0  0  0  0  0  0
    8.6534    1.2474    0.0000 H   0  0  0  0  0  0  0  0  0  0  0  0
    6.0988   -0.2276    0.0000 H   0  0  0  0  0  0  0  0  0  0  0  0
    6.4973   -0.9178    0.0000 H   0  0  0  0  0  0  0  0  0  0  0  0
    7.9739    1.6397    0.0000 H   0  0  0  0  0  0  0  0  0  0  0  0
    7.1768    1.6397    0.0000 H   0  0  0  0  0  0  0  0  0  0  0  0
   10.6409   -1.3102    0.0000 H   0  0  0  0  0  0  0  0  0  0  0  0
   11.4380   -1.3102    0.0000 H   0  0  0  0  0  0  0  0  0  0  0  0
    9.9614    1.2474    0.0000 H   0  0  0  0  0  0  0  0  0  0  0  0
    9.5628    0.5571    0.0000 H   0  0  0  0  0  0  0  0  0  0  0  0
   12.7923   -1.4898    0.0000 H   0  0  0  0  0  0  0  0  0  0  0  0
   12.7923    1.8194    0.0000 H   0  0  0  0  0  0  0  0  0  0  0  0
   14.2412    0.9977    0.0000 H   0  0  0  0  0  0  0  0  0  0  0  0
    5.0389   -0.6523    0.0000 H   0  0  0  0  0  0  0  0  0  0  0  0
    2.8751    1.7592    0.0000 H   0  0  0  0  0  0  0  0  0  0  0  0
    3.4537   -0.9864    0.0000 H   0  0  0  0  0  0  0  0  0  0  0  0
   15.4399    0.2573    0.0000 H   0  0  0  0  0  0  0  0  0  0  0  0
   14.0276   -2.1673    0.0000 H   0  0  0  0  0  0  0  0  0  0  0  0
   16.8397   -0.5581    0.0000 H   0  0  0  0  0  0  0  0  0  0  0  0
   15.4274   -2.9827    0.0000 H   0  0  0  0  0  0  0  0  0  0  0  0
   16.8335   -2.1781    0.0000 H   0  0  0  0  0  0  0  0  0  0  0  0
  1 29  1  0  0  0  0
  2  5  1  0  0  0  0
  2 22  1  0  0  0  0
  3 17  2  0  0  0  0
  4  8  1  0  0  0  0
  4  9  1  0  0  0  0
  4 10  1  0  0  0  0
  5 15  2  0  0  0  0
  6 11  1  0  0  0  0
  6 12  1  0  0  0  0
  6 15  1  0  0  0  0
  6 35  1  0  0  0  0
  7  8  1  0  0  0  0
  7 13  1  0  0  0  0
  7 14  1  0  0  0  0
  7 36  1  0  0  0  0
  8 37  1  0  0  0  0
  8 38  1  0  0  0  0
  9 11  1  0  0  0  0
  9 39  1  0  0  0  0
  9 40  1  0  0  0  0
 10 12  1  0  0  0  0
 10 41  1  0  0  0  0
 10 42  1  0  0  0  0
 11 43  1  0  0  0  0
 11 44  1  0  0  0  0
 12 45  1  0  0  0  0
 12 46  1  0  0  0  0
 13 16  1  0  0  0  0
 13 47  1  0  0  0  0
 13 48  1  0  0  0  0
 14 17  1  0  0  0  0
 14 49  1  0  0  0  0
 14 50  1  0  0  0  0
 15 19  1  0  0  0  0
 16 18  2  0  0  0  0
 16 20  1  0  0  0  0
 17 18  1  0  0  0  0
 18 21  1  0  0  0  0
 19 22  2  0  0  0  0
 19 25  1  0  0  0  0
 20 23  2  0  0  0  0
 20 51  1  0  0  0  0
 21 24  2  0  0  0  0
 21 52  1  0  0  0  0
 22 26  1  0  0  0  0
 23 24  1  0  0  0  0
 23 27  1  0  0  0  0
 24 53  1  0  0  0  0
 25 28  2  0  0  0  0
 25 54  1  0  0  0  0
 26 29  2  0  0  0  0
 26 55  1  0  0  0  0
 27 30  2  0  0  0  0
 27 31  1  0  0  0  0
 28 29  1  0  0  0  0
 28 56  1  0  0  0  0
 30 32  1  0  0  0  0
 30 57  1  0  0  0  0
 31 33  2  0  0  0  0
 31 58  1  0  0  0  0
 32 34  2  0  0  0  0
 32 59  1  0  0  0  0
 33 34  1  0  0  0  0
 33 60  1  0  0  0  0
 34 61  1  0  0  0  0
M  END
> <PUBCHEM_COMPOUND_CID>
76331989

> <PUBCHEM_COMPOUND_CANONICALIZED>
1

> <PUBCHEM_CACTVS_COMPLEXITY>
704

> <PUBCHEM_CACTVS_HBOND_ACCEPTOR>
5

> <PUBCHEM_CACTVS_HBOND_DONOR>
0

> <PUBCHEM_CACTVS_ROTATABLE_BOND>
4

> <PUBCHEM_CACTVS_SUBSKEYS>
AAADceB7MQAAAAAAAAAAAAAAAAAAAWAAAAA8YMGCAAAAAFjB9AAAHwAEAAAADQzBngwwhtMQAACpA6RyQgCCAAAkIAAomCE+TNoIJrqAlZOEMYBmwBmIycecyOCOwAACAAAYAACAAAQAADAAAAAAAAAAAA==

> <PUBCHEM_IUPAC_OPENEYE_NAME>
3-[[4-(6-fluoro-1,2-benzoxazol-3-yl)-1-piperidyl]methyl]-6-phenyl-tetralin-1-one

> <PUBCHEM_IUPAC_CAS_NAME>
3-[[4-(6-fluoro-1,2-benzoxazol-3-yl)-1-piperidinyl]methyl]-6-phenyl-3,4-dihydro-2H-naphthalen-1-one

> <PUBCHEM_IUPAC_NAME_MARKUP>
3-[[4-(6-fluoro-1,2-benzoxazol-3-yl)piperidin-1-yl]methyl]-6-phenyl-3,4-dihydro-2<I>H</I>-naphthalen-1-one

> <PUBCHEM_IUPAC_NAME>
3-[[4-(6-fluoro-1,2-benzoxazol-3-yl)piperidin-1-yl]methyl]-6-phenyl-3,4-dihydro-2H-naphthalen-1-one

> <PUBCHEM_IUPAC_SYSTEMATIC_NAME>
3-[[4-(6-fluoranyl-1,2-benzoxazol-3-yl)piperidin-1-yl]methyl]-6-phenyl-3,4-dihydro-2H-naphthalen-1-one

> <PUBCHEM_IUPAC_TRADITIONAL_NAME>
3-[[4-(6-fluoroindoxazen-3-yl)piperidino]methyl]-6-phenyl-tetralin-1-one

> <PUBCHEM_IUPAC_INCHI>
InChI=1S/C29H27FN2O2/c30-24-7-9-26-28(17-24)34-31-29(26)21-10-12-32(13-11-21)18-19-14-23-16-22(20-4-2-1-3-5-20)6-8-25(23)27(33)15-19/h1-9,16-17,19,21H,10-15,18H2

> <PUBCHEM_IUPAC_INCHIKEY>
NVAPLAXQQUNGEK-UHFFFAOYSA-N

> <PUBCHEM_XLOGP3_AA>
5.7

> <PUBCHEM_EXACT_MASS>
454.20565627

> <PUBCHEM_MOLECULAR_FORMULA>
C29H27FN2O2

> <PUBCHEM_MOLECULAR_WEIGHT>
454.5

> <PUBCHEM_OPENEYE_CAN_SMILES>
C1CN(CCC1C2=NOC3=C2C=CC(=C3)F)CC4CC5=C(C=CC(=C5)C6=CC=CC=C6)C(=O)C4

> <PUBCHEM_OPENEYE_ISO_SMILES>
C1CN(CCC1C2=NOC3=C2C=CC(=C3)F)CC4CC5=C(C=CC(=C5)C6=CC=CC=C6)C(=O)C4

> <PUBCHEM_CACTVS_TPSA>
46.3

> <PUBCHEM_MONOISOTOPIC_WEIGHT>
454.20565627

> <PUBCHEM_TOTAL_CHARGE>
0

> <PUBCHEM_HEAVY_ATOM_COUNT>
34

> <PUBCHEM_ATOM_DEF_STEREO_COUNT>
0

> <PUBCHEM_ATOM_UDEF_STEREO_COUNT>
1

> <PUBCHEM_BOND_DEF_STEREO_COUNT>
0

> <PUBCHEM_BOND_UDEF_STEREO_COUNT>
0

> <PUBCHEM_ISOTOPIC_ATOM_COUNT>
0

> <PUBCHEM_COMPONENT_COUNT>
1

> <PUBCHEM_CACTVS_TAUTO_COUNT>
-1

> <PUBCHEM_COORDINATE_TYPE>
1
5
255

> <PUBCHEM_BONDANNOTATIONS>
15  19  8
16  18  8
16  20  8
18  21  8
19  22  8
19  25  8
2  22  8
2  5  8
20  23  8
21  24  8
22  26  8
23  24  8
25  28  8
26  29  8
27  30  8
27  31  8
28  29  8
30  32  8
31  33  8
32  34  8
33  34  8
5  15  8
7  8  3

$$$$
