137636185
  -OEChem-09292322082D

 34 35  0     1  0  0  0  0  0999 V2000
    7.2602   -0.7464    0.0000 N   0  0  3  0  0  0  0  0  0  0  0  0
    2.0000    1.2811    0.0000 N   0  0  0  0  0  0  0  0  0  0  0  0
    7.2602    0.2536    0.0000 C   0  0  0  0  0  0  0  0  0  0  0  0
    6.3942   -1.2464    0.0000 C   0  0  0  0  0  0  0  0  0  0  0  0
    6.3942    0.7536    0.0000 C   0  0  0  0  0  0  0  0  0  0  0  0
    8.1263   -1.2464    0.0000 C   0  0  0  0  0  0  0  0  0  0  0  0
    5.5282   -0.7464    0.0000 C   0  0  0  0  0  0  0  0  0  0  0  0
    5.5282    0.2536    0.0000 C   0  0  0  0  0  0  0  0  0  0  0  0
    8.9923   -0.7464    0.0000 C   0  0  0  0  0  0  0  0  0  0  0  0
    9.8583   -1.2464    0.0000 C   0  0  0  0  0  0  0  0  0  0  0  0
    4.6342   -1.2811    0.0000 C   0  0  0  0  0  0  0  0  0  0  0  0
    4.6342    0.7882    0.0000 C   0  0  0  0  0  0  0  0  0  0  0  0
    3.7282    0.2744    0.0000 C   0  0  0  0  0  0  0  0  0  0  0  0
    3.7282   -0.7672    0.0000 C   0  0  0  0  0  0  0  0  0  0  0  0
   10.7243   -0.7464    0.0000 C   0  0  0  0  0  0  0  0  0  0  0  0
    2.8641    0.7777    0.0000 C   0  0  0  0  0  0  0  0  0  0  0  0
    7.8708    0.1459    0.0000 H   0  0  0  0  0  0  0  0  0  0  0  0
    7.4723    0.8362    0.0000 H   0  0  0  0  0  0  0  0  0  0  0  0
    5.9957   -1.7214    0.0000 H   0  0  0  0  0  0  0  0  0  0  0  0
    6.7928   -1.7214    0.0000 H   0  0  0  0  0  0  0  0  0  0  0  0
    6.7928    1.2285    0.0000 H   0  0  0  0  0  0  0  0  0  0  0  0
    5.9957    1.2285    0.0000 H   0  0  0  0  0  0  0  0  0  0  0  0
    7.7277   -1.7214    0.0000 H   0  0  0  0  0  0  0  0  0  0  0  0
    8.5248   -1.7214    0.0000 H   0  0  0  0  0  0  0  0  0  0  0  0
    9.3908   -0.2715    0.0000 H   0  0  0  0  0  0  0  0  0  0  0  0
    8.5938   -0.2715    0.0000 H   0  0  0  0  0  0  0  0  0  0  0  0
    9.4598   -1.7214    0.0000 H   0  0  0  0  0  0  0  0  0  0  0  0
   10.2568   -1.7214    0.0000 H   0  0  0  0  0  0  0  0  0  0  0  0
    4.6414   -1.9010    0.0000 H   0  0  0  0  0  0  0  0  0  0  0  0
    4.6414    1.4082    0.0000 H   0  0  0  0  0  0  0  0  0  0  0  0
    3.1924   -1.0793    0.0000 H   0  0  0  0  0  0  0  0  0  0  0  0
   11.0343   -1.2834    0.0000 H   0  0  0  0  0  0  0  0  0  0  0  0
   11.2613   -0.4364    0.0000 H   0  0  0  0  0  0  0  0  0  0  0  0
   10.4143   -0.2095    0.0000 H   0  0  0  0  0  0  0  0  0  0  0  0
  1  3  1  0  0  0  0
  1  4  1  0  0  0  0
  1  6  1  0  0  0  0
  2 16  3  0  0  0  0
  3  5  1  0  0  0  0
  3 17  1  0  0  0  0
  3 18  1  0  0  0  0
  4  7  1  0  0  0  0
  4 19  1  0  0  0  0
  4 20  1  0  0  0  0
  5  8  1  0  0  0  0
  5 21  1  0  0  0  0
  5 22  1  0  0  0  0
  6  9  1  0  0  0  0
  6 23  1  0  0  0  0
  6 24  1  0  0  0  0
  7  8  2  0  0  0  0
  7 11  1  0  0  0  0
  8 12  1  0  0  0  0
  9 10  1  0  0  0  0
  9 25  1  0  0  0  0
  9 26  1  0  0  0  0
 10 15  1  0  0  0  0
 10 27  1  0  0  0  0
 10 28  1  0  0  0  0
 11 14  2  0  0  0  0
 11 29  1  0  0  0  0
 12 13  2  0  0  0  0
 12 30  1  0  0  0  0
 13 14  1  0  0  0  0
 13 16  1  0  0  0  0
 14 31  1  0  0  0  0
 15 32  1  0  0  0  0
 15 33  1  0  0  0  0
 15 34  1  0  0  0  0
M  END
> <PUBCHEM_COMPOUND_CID>
137636185

> <PUBCHEM_COMPOUND_CANONICALIZED>
1

> <PUBCHEM_CACTVS_COMPLEXITY>
265

> <PUBCHEM_CACTVS_HBOND_ACCEPTOR>
2

> <PUBCHEM_CACTVS_HBOND_DONOR>
0

> <PUBCHEM_CACTVS_ROTATABLE_BOND>
3

> <PUBCHEM_CACTVS_SUBSKEYS>
AAADceBzAAAAAAAAAAAAAAAAAAAAAAAAAAA8QAAAAAAAAACxAAAAHAAAAAAADADBGAQyAIMAAACQBiBCAACiAAAgAAAIiAAIBIgIoCKAkRGEIAhggACIiA8QgMAOwAACAAAQAACAAAQAACAAAAAAAAAAAA==

> <PUBCHEM_IUPAC_OPENEYE_NAME>
2-butyl-3,4-dihydro-1H-isoquinoline-6-carbonitrile

> <PUBCHEM_IUPAC_CAS_NAME>
2-butyl-3,4-dihydro-1H-isoquinoline-6-carbonitrile

> <PUBCHEM_IUPAC_NAME_MARKUP>
2-butyl-3,4-dihydro-1<I>H</I>-isoquinoline-6-carbonitrile

> <PUBCHEM_IUPAC_NAME>
2-butyl-3,4-dihydro-1H-isoquinoline-6-carbonitrile

> <PUBCHEM_IUPAC_SYSTEMATIC_NAME>
2-butyl-3,4-dihydro-1H-isoquinoline-6-carbonitrile

> <PUBCHEM_IUPAC_TRADITIONAL_NAME>
2-butyl-3,4-dihydro-1H-isoquinoline-6-carbonitrile

> <PUBCHEM_IUPAC_INCHI>
InChI=1S/C14H18N2/c1-2-3-7-16-8-6-13-9-12(10-15)4-5-14(13)11-16/h4-5,9H,2-3,6-8,11H2,1H3

> <PUBCHEM_IUPAC_INCHIKEY>
GRSMDZFQRIQAGW-UHFFFAOYSA-N

> <PUBCHEM_XLOGP3_AA>
2.8

> <PUBCHEM_EXACT_MASS>
214.146998583

> <PUBCHEM_MOLECULAR_FORMULA>
C14H18N2

> <PUBCHEM_MOLECULAR_WEIGHT>
214.31

> <PUBCHEM_OPENEYE_CAN_SMILES>
CCCCN1CCC2=C(C1)C=CC(=C2)C#N

> <PUBCHEM_OPENEYE_ISO_SMILES>
CCCCN1CCC2=C(C1)C=CC(=C2)C#N

> <PUBCHEM_CACTVS_TPSA>
27

> <PUBCHEM_MONOISOTOPIC_WEIGHT>
214.146998583

> <PUBCHEM_TOTAL_CHARGE>
0

> <PUBCHEM_HEAVY_ATOM_COUNT>
16

> <PUBCHEM_ATOM_DEF_STEREO_COUNT>
0

> <PUBCHEM_ATOM_UDEF_STEREO_COUNT>
0

> <PUBCHEM_BOND_DEF_STEREO_COUNT>
0

> <PUBCHEM_BOND_UDEF_STEREO_COUNT>
0

> <PUBCHEM_ISOTOPIC_ATOM_COUNT>
0

> <PUBCHEM_COMPONENT_COUNT>
1

> <PUBCHEM_CACTVS_TAUTO_COUNT>
-1

> <PUBCHEM_COORDINATE_TYPE>
1
5
255

> <PUBCHEM_BONDANNOTATIONS>
11  14  8
12  13  8
13  14  8
7  11  8
7  8  8
8  12  8

$$$$
