164618771
  -OEChem-09292322432D

 61 63  0     1  0  0  0  0  0999 V2000
    6.0010   -5.1227    0.0000 Cl  0  0  0  0  0  0  0  0  0  0  0  0
    3.4030   -1.6227    0.0000 O   0  0  0  0  0  0  0  0  0  0  0  0
    6.0010   -3.1227    0.0000 O   0  0  0  0  0  0  0  0  0  0  0  0
    2.5369   -3.1227    0.0000 O   0  0  0  0  0  0  0  0  0  0  0  0
    6.1056    0.8718    0.0000 N   0  0  3  0  0  0  0  0  0  0  0  0
    5.1350   -1.6227    0.0000 N   0  0  0  0  0  0  0  0  0  0  0  0
    6.0010   -0.1227    0.0000 C   0  0  1  0  0  0  0  0  0  0  0  0
    6.9146   -0.5294    0.0000 C   0  0  0  0  0  0  0  0  0  0  0  0
    7.0837    1.0798    0.0000 C   0  0  0  0  0  0  0  0  0  0  0  0
    7.5837    0.2137    0.0000 C   0  0  0  0  0  0  0  0  0  0  0  0
    5.3624    1.5410    0.0000 C   0  0  0  0  0  0  0  0  0  0  0  0
    5.1350   -0.6227    0.0000 C   0  0  0  0  0  0  0  0  0  0  0  0
    5.5703    2.5191    0.0000 C   0  0  0  0  0  0  0  0  0  0  0  0
    4.8272    3.1882    0.0000 C   0  0  0  0  0  0  0  0  0  0  0  0
    4.2690   -2.1227    0.0000 C   0  0  0  0  0  0  0  0  0  0  0  0
    5.0351    4.1664    0.0000 C   0  0  0  0  0  0  0  0  0  0  0  0
    4.2690   -3.1227    0.0000 C   0  0  0  0  0  0  0  0  0  0  0  0
    4.2920    4.8355    0.0000 C   0  0  0  0  0  0  0  0  0  0  0  0
    5.9862    4.4754    0.0000 C   0  0  0  0  0  0  0  0  0  0  0  0
    3.4030   -3.6227    0.0000 C   0  0  0  0  0  0  0  0  0  0  0  0
    5.1350   -3.6227    0.0000 C   0  0  0  0  0  0  0  0  0  0  0  0
    3.4030   -4.6227    0.0000 C   0  0  0  0  0  0  0  0  0  0  0  0
    4.4999    5.8137    0.0000 C   0  0  0  0  0  0  0  0  0  0  0  0
    6.1941    5.4536    0.0000 C   0  0  0  0  0  0  0  0  0  0  0  0
    5.1350   -4.6227    0.0000 C   0  0  0  0  0  0  0  0  0  0  0  0
    4.2690   -5.1227    0.0000 C   0  0  0  0  0  0  0  0  0  0  0  0
    5.4509    6.1227    0.0000 C   0  0  0  0  0  0  0  0  0  0  0  0
    2.5369   -5.1227    0.0000 C   0  0  0  0  0  0  0  0  0  0  0  0
    2.5369   -6.1227    0.0000 C   0  0  0  0  0  0  0  0  0  0  0  0
    6.8671   -3.6227    0.0000 C   0  0  0  0  0  0  0  0  0  0  0  0
    5.4811    0.2150    0.0000 H   0  0  0  0  0  0  0  0  0  0  0  0
    6.6046   -1.0664    0.0000 H   0  0  0  0  0  0  0  0  0  0  0  0
    7.4162   -0.8938    0.0000 H   0  0  0  0  0  0  0  0  0  0  0  0
    7.6501    1.3319    0.0000 H   0  0  0  0  0  0  0  0  0  0  0  0
    6.8921    1.6694    0.0000 H   0  0  0  0  0  0  0  0  0  0  0  0
    7.9986   -0.2470    0.0000 H   0  0  0  0  0  0  0  0  0  0  0  0
    8.0853    0.5781    0.0000 H   0  0  0  0  0  0  0  0  0  0  0  0
    4.7876    1.7732    0.0000 H   0  0  0  0  0  0  0  0  0  0  0  0
    5.0339    1.0152    0.0000 H   0  0  0  0  0  0  0  0  0  0  0  0
    4.9230   -0.0401    0.0000 H   0  0  0  0  0  0  0  0  0  0  0  0
    4.5244   -0.7303    0.0000 H   0  0  0  0  0  0  0  0  0  0  0  0
    6.1452    2.2869    0.0000 H   0  0  0  0  0  0  0  0  0  0  0  0
    5.8989    3.0449    0.0000 H   0  0  0  0  0  0  0  0  0  0  0  0
    5.6720   -1.9327    0.0000 H   0  0  0  0  0  0  0  0  0  0  0  0
    4.2523    3.4205    0.0000 H   0  0  0  0  0  0  0  0  0  0  0  0
    4.4986    2.6625    0.0000 H   0  0  0  0  0  0  0  0  0  0  0  0
    3.7023    4.6439    0.0000 H   0  0  0  0  0  0  0  0  0  0  0  0
    6.4469    4.0606    0.0000 H   0  0  0  0  0  0  0  0  0  0  0  0
    4.0391    6.2285    0.0000 H   0  0  0  0  0  0  0  0  0  0  0  0
    6.7837    5.6452    0.0000 H   0  0  0  0  0  0  0  0  0  0  0  0
    4.2690   -5.7427    0.0000 H   0  0  0  0  0  0  0  0  0  0  0  0
    2.3249   -4.5401    0.0000 H   0  0  0  0  0  0  0  0  0  0  0  0
    1.9264   -5.2303    0.0000 H   0  0  0  0  0  0  0  0  0  0  0  0
    5.5798    6.7291    0.0000 H   0  0  0  0  0  0  0  0  0  0  0  0
    2.0000   -3.4327    0.0000 H   0  0  0  0  0  0  0  0  0  0  0  0
    1.9169   -6.1227    0.0000 H   0  0  0  0  0  0  0  0  0  0  0  0
    2.5369   -6.7427    0.0000 H   0  0  0  0  0  0  0  0  0  0  0  0
    3.1569   -6.1227    0.0000 H   0  0  0  0  0  0  0  0  0  0  0  0
    6.5571   -4.1596    0.0000 H   0  0  0  0  0  0  0  0  0  0  0  0
    7.4040   -3.9327    0.0000 H   0  0  0  0  0  0  0  0  0  0  0  0
    7.1771   -3.0858    0.0000 H   0  0  0  0  0  0  0  0  0  0  0  0
  1 25  1  0  0  0  0
  2 15  2  0  0  0  0
  3 21  1  0  0  0  0
  3 30  1  0  0  0  0
  4 20  1  0  0  0  0
  4 55  1  0  0  0  0
  5  7  1  0  0  0  0
  5  9  1  0  0  0  0
  5 11  1  0  0  0  0
  6 12  1  0  0  0  0
  6 15  1  0  0  0  0
  6 44  1  0  0  0  0
  7  8  1  0  0  0  0
  7 12  1  1  0  0  0
  7 31  1  0  0  0  0
  8 10  1  0  0  0  0
  8 32  1  0  0  0  0
  8 33  1  0  0  0  0
  9 10  1  0  0  0  0
  9 34  1  0  0  0  0
  9 35  1  0  0  0  0
 10 36  1  0  0  0  0
 10 37  1  0  0  0  0
 11 13  1  0  0  0  0
 11 38  1  0  0  0  0
 11 39  1  0  0  0  0
 12 40  1  0  0  0  0
 12 41  1  0  0  0  0
 13 14  1  0  0  0  0
 13 42  1  0  0  0  0
 13 43  1  0  0  0  0
 14 16  1  0  0  0  0
 14 45  1  0  0  0  0
 14 46  1  0  0  0  0
 15 17  1  0  0  0  0
 16 18  2  0  0  0  0
 16 19  1  0  0  0  0
 17 20  2  0  0  0  0
 17 21  1  0  0  0  0
 18 23  1  0  0  0  0
 18 47  1  0  0  0  0
 19 24  2  0  0  0  0
 19 48  1  0  0  0  0
 20 22  1  0  0  0  0
 21 25  2  0  0  0  0
 22 26  2  0  0  0  0
 22 28  1  0  0  0  0
 23 27  2  0  0  0  0
 23 49  1  0  0  0  0
 24 27  1  0  0  0  0
 24 50  1  0  0  0  0
 25 26  1  0  0  0  0
 26 51  1  0  0  0  0
 27 54  1  0  0  0  0
 28 29  1  0  0  0  0
 28 52  1  0  0  0  0
 28 53  1  0  0  0  0
 29 56  1  0  0  0  0
 29 57  1  0  0  0  0
 29 58  1  0  0  0  0
 30 59  1  0  0  0  0
 30 60  1  0  0  0  0
 30 61  1  0  0  0  0
M  END
> <PUBCHEM_COMPOUND_CID>
164618771

> <PUBCHEM_COMPOUND_CANONICALIZED>
1

> <PUBCHEM_CACTVS_COMPLEXITY>
529

> <PUBCHEM_CACTVS_HBOND_ACCEPTOR>
4

> <PUBCHEM_CACTVS_HBOND_DONOR>
2

> <PUBCHEM_CACTVS_ROTATABLE_BOND>
9

> <PUBCHEM_CACTVS_SUBSKEYS>
AAADceB7MAAEAAAAAAAAAAAAAAAAAWAAAAAwYAAAAAAAAAABQAAAHgIQCAAADC7BmCYyBoPABgCIAiFSEACCCAAkJUAIiIEMD8gMZzeHtxuUcWhn9hWIuQeY6OyOICACKAAICABAQARQABAQAAAAAAAAAA==

> <PUBCHEM_IUPAC_OPENEYE_NAME>
5-chloro-3-ethyl-2-hydroxy-6-methoxy-N-[[(2S)-1-(3-phenylpropyl)pyrrolidin-2-yl]methyl]benzamide

> <PUBCHEM_IUPAC_CAS_NAME>
5-chloro-3-ethyl-2-hydroxy-6-methoxy-N-[[(2S)-1-(3-phenylpropyl)-2-pyrrolidinyl]methyl]benzamide

> <PUBCHEM_IUPAC_NAME_MARKUP>
5-chloro-3-ethyl-2-hydroxy-6-methoxy-<I>N</I>-[[(2<I>S</I>)-1-(3-phenylpropyl)pyrrolidin-2-yl]methyl]benzamide

> <PUBCHEM_IUPAC_NAME>
5-chloro-3-ethyl-2-hydroxy-6-methoxy-N-[[(2S)-1-(3-phenylpropyl)pyrrolidin-2-yl]methyl]benzamide

> <PUBCHEM_IUPAC_SYSTEMATIC_NAME>
3-chloranyl-5-ethyl-2-methoxy-6-oxidanyl-N-[[(2S)-1-(3-phenylpropyl)pyrrolidin-2-yl]methyl]benzamide

> <PUBCHEM_IUPAC_TRADITIONAL_NAME>
5-chloro-3-ethyl-2-hydroxy-6-methoxy-N-[[(2S)-1-(3-phenylpropyl)pyrrolidin-2-yl]methyl]benzamide

> <PUBCHEM_IUPAC_INCHI>
InChI=1S/C24H31ClN2O3/c1-3-18-15-20(25)23(30-2)21(22(18)28)24(29)26-16-19-12-8-14-27(19)13-7-11-17-9-5-4-6-10-17/h4-6,9-10,15,19,28H,3,7-8,11-14,16H2,1-2H3,(H,26,29)/t19-/m0/s1

> <PUBCHEM_IUPAC_INCHIKEY>
BVLKCMNJCFXMPO-IBGZPJMESA-N

> <PUBCHEM_XLOGP3_AA>
5.7

> <PUBCHEM_EXACT_MASS>
430.2023205

> <PUBCHEM_MOLECULAR_FORMULA>
C24H31ClN2O3

> <PUBCHEM_MOLECULAR_WEIGHT>
431.0

> <PUBCHEM_OPENEYE_CAN_SMILES>
CCC1=CC(=C(C(=C1O)C(=O)NCC2CCCN2CCCC3=CC=CC=C3)OC)Cl

> <PUBCHEM_OPENEYE_ISO_SMILES>
CCC1=CC(=C(C(=C1O)C(=O)NC[C@@H]2CCCN2CCCC3=CC=CC=C3)OC)Cl

> <PUBCHEM_CACTVS_TPSA>
61.8

> <PUBCHEM_MONOISOTOPIC_WEIGHT>
430.2023205

> <PUBCHEM_TOTAL_CHARGE>
0

> <PUBCHEM_HEAVY_ATOM_COUNT>
30

> <PUBCHEM_ATOM_DEF_STEREO_COUNT>
1

> <PUBCHEM_ATOM_UDEF_STEREO_COUNT>
0

> <PUBCHEM_BOND_DEF_STEREO_COUNT>
0

> <PUBCHEM_BOND_UDEF_STEREO_COUNT>
0

> <PUBCHEM_ISOTOPIC_ATOM_COUNT>
0

> <PUBCHEM_COMPONENT_COUNT>
1

> <PUBCHEM_CACTVS_TAUTO_COUNT>
-1

> <PUBCHEM_COORDINATE_TYPE>
1
5
255

> <PUBCHEM_BONDANNOTATIONS>
16  18  8
16  19  8
17  20  8
17  21  8
18  23  8
19  24  8
20  22  8
21  25  8
22  26  8
23  27  8
24  27  8
25  26  8
7  12  5

$$$$
