11306892
  -OEChem-09292322292D

 58 62  0     1  0  0  0  0  0999 V2000
    2.1374    4.1434    0.0000 Cl  0  0  0  0  0  0  0  0  0  0  0  0
    6.4516   -2.8893    0.0000 Cl  0  0  0  0  0  0  0  0  0  0  0  0
    9.9070   -3.1349    0.0000 Cl  0  0  0  0  0  0  0  0  0  0  0  0
    2.5932    2.1465    0.0000 O   0  0  0  0  0  0  0  0  0  0  0  0
    6.5225   -1.8919    0.0000 O   0  0  0  0  0  0  0  0  0  0  0  0
    7.0983    4.2253    0.0000 N   0  0  3  0  0  0  0  0  0  0  0  0
    7.4927   -0.4570    0.0000 N   0  0  0  0  0  0  0  0  0  0  0  0
    8.2502   -2.0146    0.0000 N   0  0  0  0  0  0  0  0  0  0  0  0
    6.8758    3.2503    0.0000 C   0  0  2  0  0  0  0  0  0  0  0  0
    5.9748    2.8164    0.0000 C   0  0  2  0  0  0  0  0  0  0  0  0
    7.7453    2.6769    0.0000 C   0  0  0  0  0  0  0  0  0  0  0  0
    5.8810    1.7790    0.0000 C   0  0  0  0  0  0  0  0  0  0  0  0
    7.6755    1.6376    0.0000 C   0  0  0  0  0  0  0  0  0  0  0  0
    5.0738    3.2503    0.0000 C   0  0  0  0  0  0  0  0  0  0  0  0
    6.7370    1.1857    0.0000 C   0  0  0  0  0  0  0  0  0  0  0  0
    6.4748    5.0071    0.0000 C   0  0  0  0  0  0  0  0  0  0  0  0
    4.8513    4.2253    0.0000 C   0  0  0  0  0  0  0  0  0  0  0  0
    5.4748    5.0071    0.0000 C   0  0  0  0  0  0  0  0  0  0  0  0
    8.0732    4.4478    0.0000 C   0  0  0  0  0  0  0  0  0  0  0  0
    4.8928    1.3310    0.0000 C   0  0  0  0  0  0  0  0  0  0  0  0
    6.6643    0.1031    0.0000 C   0  0  0  0  0  0  0  0  0  0  0  0
    4.3213    2.5302    0.0000 C   0  0  0  0  0  0  0  0  0  0  0  0
    3.8608    4.5476    0.0000 C   0  0  0  0  0  0  0  0  0  0  0  0
    4.7950    0.2504    0.0000 C   0  0  0  0  0  0  0  0  0  0  0  0
    5.6868   -0.3677    0.0000 C   0  0  0  0  0  0  0  0  0  0  0  0
    3.3236    2.8295    0.0000 C   0  0  0  0  0  0  0  0  0  0  0  0
    3.0918    3.8450    0.0000 C   0  0  0  0  0  0  0  0  0  0  0  0
    7.4218   -1.4545    0.0000 C   0  0  0  0  0  0  0  0  0  0  0  0
    8.1793   -3.0121    0.0000 C   0  0  0  0  0  0  0  0  0  0  0  0
    7.2800   -3.4495    0.0000 C   0  0  0  0  0  0  0  0  0  0  0  0
    9.0077   -3.5722    0.0000 C   0  0  0  0  0  0  0  0  0  0  0  0
    7.2092   -4.4470    0.0000 C   0  0  0  0  0  0  0  0  0  0  0  0
    8.9368   -4.5697    0.0000 C   0  0  0  0  0  0  0  0  0  0  0  0
    8.0376   -5.0071    0.0000 C   0  0  0  0  0  0  0  0  0  0  0  0
    7.6646    3.5670    0.0000 H   0  0  0  0  0  0  0  0  0  0  0  0
    5.2354    2.3971    0.0000 H   0  0  0  0  0  0  0  0  0  0  0  0
    8.3477    2.5301    0.0000 H   0  0  0  0  0  0  0  0  0  0  0  0
    7.9931    3.2453    0.0000 H   0  0  0  0  0  0  0  0  0  0  0  0
    7.8450    1.0412    0.0000 H   0  0  0  0  0  0  0  0  0  0  0  0
    8.2921    1.7025    0.0000 H   0  0  0  0  0  0  0  0  0  0  0  0
    7.0334    5.2761    0.0000 H   0  0  0  0  0  0  0  0  0  0  0  0
    6.3368    5.6116    0.0000 H   0  0  0  0  0  0  0  0  0  0  0  0
    5.6128    5.6116    0.0000 H   0  0  0  0  0  0  0  0  0  0  0  0
    4.9162    5.2761    0.0000 H   0  0  0  0  0  0  0  0  0  0  0  0
    8.2112    3.8433    0.0000 H   0  0  0  0  0  0  0  0  0  0  0  0
    8.6777    4.5857    0.0000 H   0  0  0  0  0  0  0  0  0  0  0  0
    7.9352    5.0522    0.0000 H   0  0  0  0  0  0  0  0  0  0  0  0
    4.3873    1.6901    0.0000 H   0  0  0  0  0  0  0  0  0  0  0  0
    4.4662    1.9273    0.0000 H   0  0  0  0  0  0  0  0  0  0  0  0
    3.7298    5.1536    0.0000 H   0  0  0  0  0  0  0  0  0  0  0  0
    4.2334   -0.0121    0.0000 H   0  0  0  0  0  0  0  0  0  0  0  0
    5.6380   -0.9857    0.0000 H   0  0  0  0  0  0  0  0  0  0  0  0
    8.0503   -0.1859    0.0000 H   0  0  0  0  0  0  0  0  0  0  0  0
    2.0000    2.3270    0.0000 H   0  0  0  0  0  0  0  0  0  0  0  0
    8.8078   -1.7435    0.0000 H   0  0  0  0  0  0  0  0  0  0  0  0
    6.6516   -4.7181    0.0000 H   0  0  0  0  0  0  0  0  0  0  0  0
    9.4505   -4.9170    0.0000 H   0  0  0  0  0  0  0  0  0  0  0  0
    7.9936   -5.6255    0.0000 H   0  0  0  0  0  0  0  0  0  0  0  0
  1 27  1  0  0  0  0
  2 30  1  0  0  0  0
  3 31  1  0  0  0  0
  4 26  1  0  0  0  0
  4 54  1  0  0  0  0
  5 28  2  0  0  0  0
  6  9  1  0  0  0  0
  6 16  1  0  0  0  0
  6 19  1  0  0  0  0
  7 21  1  0  0  0  0
  7 28  1  0  0  0  0
  7 53  1  0  0  0  0
  8 28  1  0  0  0  0
  8 29  1  0  0  0  0
  8 55  1  0  0  0  0
  9 10  1  0  0  0  0
  9 11  1  0  0  0  0
  9 35  1  6  0  0  0
 10 12  1  0  0  0  0
 10 14  1  0  0  0  0
 10 36  1  1  0  0  0
 11 13  1  0  0  0  0
 11 37  1  0  0  0  0
 11 38  1  0  0  0  0
 12 15  2  0  0  0  0
 12 20  1  0  0  0  0
 13 15  1  0  0  0  0
 13 39  1  0  0  0  0
 13 40  1  0  0  0  0
 14 17  1  0  0  0  0
 14 22  2  0  0  0  0
 15 21  1  0  0  0  0
 16 18  1  0  0  0  0
 16 41  1  0  0  0  0
 16 42  1  0  0  0  0
 17 18  1  0  0  0  0
 17 23  2  0  0  0  0
 18 43  1  0  0  0  0
 18 44  1  0  0  0  0
 19 45  1  0  0  0  0
 19 46  1  0  0  0  0
 19 47  1  0  0  0  0
 20 24  2  0  0  0  0
 20 48  1  0  0  0  0
 21 25  2  0  0  0  0
 22 26  1  0  0  0  0
 22 49  1  0  0  0  0
 23 27  1  0  0  0  0
 23 50  1  0  0  0  0
 24 25  1  0  0  0  0
 24 51  1  0  0  0  0
 25 52  1  0  0  0  0
 26 27  2  0  0  0  0
 29 30  2  0  0  0  0
 29 31  1  0  0  0  0
 30 32  1  0  0  0  0
 31 33  2  0  0  0  0
 32 34  2  0  0  0  0
 32 56  1  0  0  0  0
 33 34  1  0  0  0  0
 33 57  1  0  0  0  0
 34 58  1  0  0  0  0
M  END
> <PUBCHEM_COMPOUND_CID>
11306892

> <PUBCHEM_COMPOUND_CANONICALIZED>
1

> <PUBCHEM_CACTVS_COMPLEXITY>
719

> <PUBCHEM_CACTVS_HBOND_ACCEPTOR>
3

> <PUBCHEM_CACTVS_HBOND_DONOR>
3

> <PUBCHEM_CACTVS_ROTATABLE_BOND>
2

> <PUBCHEM_CACTVS_SUBSKEYS>
AAADceB7MAAGAAAAAAAAAAAAAAAAAAAAAAAwYMGABYAAAADBUAAAHgIQCAAADS7BmCQzxoPAAgCIAiRCUACCAAAhJ0AIiAAOb4iIJiLDk5PEcAhs1BPI2CeQ0PMOpAABYACSCBBYAAbAASQQIAAAAAAAAA==

> <PUBCHEM_IUPAC_OPENEYE_NAME>
1-[(6aS,13bS)-11-chloro-12-hydroxy-7-methyl-5,6,6a,8,9,13b-hexahydronaphtho[1,2-a][3]benzazepin-4-yl]-3-(2,6-dichlorophenyl)urea

> <PUBCHEM_IUPAC_CAS_NAME>
1-[(6aS,13bS)-11-chloro-12-hydroxy-7-methyl-5,6,6a,8,9,13b-hexahydronaphtho[1,2-a][3]benzazepin-4-yl]-3-(2,6-dichlorophenyl)urea

> <PUBCHEM_IUPAC_NAME_MARKUP>
1-[(6<I>a</I><I>S</I>,13<I>b</I><I>S</I>)-11-chloro-12-hydroxy-7-methyl-5,6,6<I>a</I>,8,9,13<I>b</I>-hexahydronaphtho[1,2-a][3]benzazepin-4-yl]-3-(2,6-dichlorophenyl)urea

> <PUBCHEM_IUPAC_NAME>
1-[(6aS,13bS)-11-chloro-12-hydroxy-7-methyl-5,6,6a,8,9,13b-hexahydronaphtho[1,2-a][3]benzazepin-4-yl]-3-(2,6-dichlorophenyl)urea

> <PUBCHEM_IUPAC_SYSTEMATIC_NAME>
1-[(6aS,13bS)-11-chloranyl-7-methyl-12-oxidanyl-5,6,6a,8,9,13b-hexahydronaphtho[1,2-a][3]benzazepin-4-yl]-3-[2,6-bis(chloranyl)phenyl]urea

> <PUBCHEM_IUPAC_TRADITIONAL_NAME>
1-[(6aS,13bS)-11-chloro-12-hydroxy-7-methyl-5,6,6a,8,9,13b-hexahydronaphtho[1,2-a][3]benzazepin-4-yl]-3-(2,6-dichlorophenyl)urea

> <PUBCHEM_IUPAC_INCHI>
InChI=1S/C26H24Cl3N3O2/c1-32-11-10-14-12-20(29)23(33)13-17(14)24-16-4-2-7-21(15(16)8-9-22(24)32)30-26(34)31-25-18(27)5-3-6-19(25)28/h2-7,12-13,22,24,33H,8-11H2,1H3,(H2,30,31,34)/t22-,24+/m0/s1

> <PUBCHEM_IUPAC_INCHIKEY>
SVNHWLZUROYKTP-LADGPHEKSA-N

> <PUBCHEM_XLOGP3_AA>
6.3

> <PUBCHEM_EXACT_MASS>
515.093410

> <PUBCHEM_MOLECULAR_FORMULA>
C26H24Cl3N3O2

> <PUBCHEM_MOLECULAR_WEIGHT>
516.8

> <PUBCHEM_OPENEYE_CAN_SMILES>
CN1CCC2=CC(=C(C=C2C3C1CCC4=C3C=CC=C4NC(=O)NC5=C(C=CC=C5Cl)Cl)O)Cl

> <PUBCHEM_OPENEYE_ISO_SMILES>
CN1CCC2=CC(=C(C=C2[C@@H]3[C@@H]1CCC4=C3C=CC=C4NC(=O)NC5=C(C=CC=C5Cl)Cl)O)Cl

> <PUBCHEM_CACTVS_TPSA>
64.6

> <PUBCHEM_MONOISOTOPIC_WEIGHT>
515.093410

> <PUBCHEM_TOTAL_CHARGE>
0

> <PUBCHEM_HEAVY_ATOM_COUNT>
34

> <PUBCHEM_ATOM_DEF_STEREO_COUNT>
2

> <PUBCHEM_ATOM_UDEF_STEREO_COUNT>
0

> <PUBCHEM_BOND_DEF_STEREO_COUNT>
0

> <PUBCHEM_BOND_UDEF_STEREO_COUNT>
0

> <PUBCHEM_ISOTOPIC_ATOM_COUNT>
0

> <PUBCHEM_COMPONENT_COUNT>
1

> <PUBCHEM_CACTVS_TAUTO_COUNT>
-1

> <PUBCHEM_COORDINATE_TYPE>
1
5
255

> <PUBCHEM_BONDANNOTATIONS>
10  36  5
12  15  8
12  20  8
14  17  8
14  22  8
15  21  8
17  23  8
20  24  8
21  25  8
22  26  8
23  27  8
24  25  8
26  27  8
29  30  8
29  31  8
30  32  8
31  33  8
32  34  8
33  34  8
9  35  6

$$$$
