76329028
  -OEChem-09292321592D

 75 79  0     1  0  0  0  0  0999 V2000
   16.8026    1.0547    0.0000 S   0  0  0  0  0  0  0  0  0  0  0  0
    2.8660   -1.7500    0.0000 O   0  0  0  0  0  0  0  0  0  0  0  0
   13.2583    1.2500    0.0000 N   0  0  3  0  0  0  0  0  0  0  0  0
   10.6603    0.7500    0.0000 N   0  0  0  0  0  0  0  0  0  0  0  0
    8.9282   -0.2500    0.0000 N   0  0  0  0  0  0  0  0  0  0  0  0
   16.8026   -0.5547    0.0000 N   0  0  0  0  0  0  0  0  0  0  0  0
   18.3862    0.2500    0.0000 N   0  0  0  0  0  0  0  0  0  0  0  0
   14.1244    0.7500    0.0000 C   0  0  1  0  0  0  0  0  0  0  0  0
   14.1244   -0.2500    0.0000 C   0  0  0  0  0  0  0  0  0  0  0  0
   14.9904    1.2500    0.0000 C   0  0  0  0  0  0  0  0  0  0  0  0
   12.3923    0.7500    0.0000 C   0  0  0  0  0  0  0  0  0  0  0  0
   11.5263    1.2500    0.0000 C   0  0  0  0  0  0  0  0  0  0  0  0
   14.9904   -0.7500    0.0000 C   0  0  0  0  0  0  0  0  0  0  0  0
   13.2583    2.2500    0.0000 C   0  0  0  0  0  0  0  0  0  0  0  0
   15.8564    0.7500    0.0000 C   0  0  0  0  0  0  0  0  0  0  0  0
    9.7942    1.2500    0.0000 C   0  0  0  0  0  0  0  0  0  0  0  0
   10.6603   -0.2500    0.0000 C   0  0  0  0  0  0  0  0  0  0  0  0
   15.8564   -0.2500    0.0000 C   0  0  0  0  0  0  0  0  0  0  0  0
    8.9282    0.7500    0.0000 C   0  0  0  0  0  0  0  0  0  0  0  0
    9.7942   -0.7500    0.0000 C   0  0  0  0  0  0  0  0  0  0  0  0
   12.3923    2.7500    0.0000 C   0  0  0  0  0  0  0  0  0  0  0  0
    8.0622   -0.7500    0.0000 C   0  0  0  0  0  0  0  0  0  0  0  0
   17.3862    0.2500    0.0000 C   0  0  0  0  0  0  0  0  0  0  0  0
   12.3923    3.7500    0.0000 C   0  0  0  0  0  0  0  0  0  0  0  0
    7.1962   -0.2500    0.0000 C   0  0  0  0  0  0  0  0  0  0  0  0
    8.0622   -1.7500    0.0000 C   0  0  0  0  0  0  0  0  0  0  0  0
    6.3301   -0.7500    0.0000 C   0  0  0  0  0  0  0  0  0  0  0  0
    7.1962   -2.2500    0.0000 C   0  0  0  0  0  0  0  0  0  0  0  0
    6.3301   -1.7500    0.0000 C   0  0  0  0  0  0  0  0  0  0  0  0
    5.4641   -2.2500    0.0000 C   0  0  0  0  0  0  0  0  0  0  0  0
    4.5981   -1.7500    0.0000 C   0  0  0  0  0  0  0  0  0  0  0  0
    5.4641   -3.2500    0.0000 C   0  0  0  0  0  0  0  0  0  0  0  0
    3.7320   -2.2500    0.0000 C   0  0  0  0  0  0  0  0  0  0  0  0
    4.5981   -3.7500    0.0000 C   0  0  0  0  0  0  0  0  0  0  0  0
    3.7320   -3.2500    0.0000 C   0  0  0  0  0  0  0  0  0  0  0  0
    2.0000   -2.2500    0.0000 C   0  0  0  0  0  0  0  0  0  0  0  0
   13.5874    0.4400    0.0000 H   0  0  0  0  0  0  0  0  0  0  0  0
   13.5138   -0.1423    0.0000 H   0  0  0  0  0  0  0  0  0  0  0  0
   13.9123   -0.8326    0.0000 H   0  0  0  0  0  0  0  0  0  0  0  0
   15.3889    1.7250    0.0000 H   0  0  0  0  0  0  0  0  0  0  0  0
   14.5919    1.7250    0.0000 H   0  0  0  0  0  0  0  0  0  0  0  0
   11.9938    0.2751    0.0000 H   0  0  0  0  0  0  0  0  0  0  0  0
   12.7908    0.2751    0.0000 H   0  0  0  0  0  0  0  0  0  0  0  0
   11.9248    1.7250    0.0000 H   0  0  0  0  0  0  0  0  0  0  0  0
   11.1278    1.7250    0.0000 H   0  0  0  0  0  0  0  0  0  0  0  0
   14.5919   -1.2250    0.0000 H   0  0  0  0  0  0  0  0  0  0  0  0
   15.3889   -1.2250    0.0000 H   0  0  0  0  0  0  0  0  0  0  0  0
   13.8689    2.1423    0.0000 H   0  0  0  0  0  0  0  0  0  0  0  0
   13.4704    2.8326    0.0000 H   0  0  0  0  0  0  0  0  0  0  0  0
   10.1928    1.7250    0.0000 H   0  0  0  0  0  0  0  0  0  0  0  0
    9.3957    1.7250    0.0000 H   0  0  0  0  0  0  0  0  0  0  0  0
   10.8723   -0.8326    0.0000 H   0  0  0  0  0  0  0  0  0  0  0  0
   11.2708   -0.1423    0.0000 H   0  0  0  0  0  0  0  0  0  0  0  0
    8.7162    1.3326    0.0000 H   0  0  0  0  0  0  0  0  0  0  0  0
    8.3176    0.6423    0.0000 H   0  0  0  0  0  0  0  0  0  0  0  0
    9.3957   -1.2250    0.0000 H   0  0  0  0  0  0  0  0  0  0  0  0
   10.1928   -1.2250    0.0000 H   0  0  0  0  0  0  0  0  0  0  0  0
   11.7817    2.8577    0.0000 H   0  0  0  0  0  0  0  0  0  0  0  0
   12.1803    2.1674    0.0000 H   0  0  0  0  0  0  0  0  0  0  0  0
   13.0123    3.7500    0.0000 H   0  0  0  0  0  0  0  0  0  0  0  0
   12.3923    4.3700    0.0000 H   0  0  0  0  0  0  0  0  0  0  0  0
   11.7723    3.7500    0.0000 H   0  0  0  0  0  0  0  0  0  0  0  0
    7.1962    0.3700    0.0000 H   0  0  0  0  0  0  0  0  0  0  0  0
    8.5991   -2.0600    0.0000 H   0  0  0  0  0  0  0  0  0  0  0  0
   18.6962   -0.2869    0.0000 H   0  0  0  0  0  0  0  0  0  0  0  0
   18.6962    0.7869    0.0000 H   0  0  0  0  0  0  0  0  0  0  0  0
    5.7932   -0.4400    0.0000 H   0  0  0  0  0  0  0  0  0  0  0  0
    7.1962   -2.8700    0.0000 H   0  0  0  0  0  0  0  0  0  0  0  0
    4.5981   -1.1300    0.0000 H   0  0  0  0  0  0  0  0  0  0  0  0
    6.0010   -3.5600    0.0000 H   0  0  0  0  0  0  0  0  0  0  0  0
    4.5981   -4.3700    0.0000 H   0  0  0  0  0  0  0  0  0  0  0  0
    3.1951   -3.5600    0.0000 H   0  0  0  0  0  0  0  0  0  0  0  0
    1.6900   -1.7131    0.0000 H   0  0  0  0  0  0  0  0  0  0  0  0
    1.4631   -2.5600    0.0000 H   0  0  0  0  0  0  0  0  0  0  0  0
    2.3100   -2.7869    0.0000 H   0  0  0  0  0  0  0  0  0  0  0  0
  1 15  1  0  0  0  0
  1 23  1  0  0  0  0
  2 33  1  0  0  0  0
  2 36  1  0  0  0  0
  8  3  1  6  0  0  0
  3 11  1  0  0  0  0
  3 14  1  0  0  0  0
  4 12  1  0  0  0  0
  4 16  1  0  0  0  0
  4 17  1  0  0  0  0
  5 19  1  0  0  0  0
  5 20  1  0  0  0  0
  5 22  1  0  0  0  0
  6 18  1  0  0  0  0
  6 23  2  0  0  0  0
  7 23  1  0  0  0  0
  7 65  1  0  0  0  0
  7 66  1  0  0  0  0
  8  9  1  0  0  0  0
  8 10  1  0  0  0  0
  8 37  1  0  0  0  0
  9 13  1  0  0  0  0
  9 38  1  0  0  0  0
  9 39  1  0  0  0  0
 10 15  1  0  0  0  0
 10 40  1  0  0  0  0
 10 41  1  0  0  0  0
 11 12  1  0  0  0  0
 11 42  1  0  0  0  0
 11 43  1  0  0  0  0
 12 44  1  0  0  0  0
 12 45  1  0  0  0  0
 13 18  1  0  0  0  0
 13 46  1  0  0  0  0
 13 47  1  0  0  0  0
 14 21  1  0  0  0  0
 14 48  1  0  0  0  0
 14 49  1  0  0  0  0
 15 18  2  0  0  0  0
 16 19  1  0  0  0  0
 16 50  1  0  0  0  0
 16 51  1  0  0  0  0
 17 20  1  0  0  0  0
 17 52  1  0  0  0  0
 17 53  1  0  0  0  0
 19 54  1  0  0  0  0
 19 55  1  0  0  0  0
 20 56  1  0  0  0  0
 20 57  1  0  0  0  0
 21 24  1  0  0  0  0
 21 58  1  0  0  0  0
 21 59  1  0  0  0  0
 22 25  2  0  0  0  0
 22 26  1  0  0  0  0
 24 60  1  0  0  0  0
 24 61  1  0  0  0  0
 24 62  1  0  0  0  0
 25 27  1  0  0  0  0
 25 63  1  0  0  0  0
 26 28  2  0  0  0  0
 26 64  1  0  0  0  0
 27 29  2  0  0  0  0
 27 67  1  0  0  0  0
 28 29  1  0  0  0  0
 28 68  1  0  0  0  0
 29 30  1  0  0  0  0
 30 31  2  0  0  0  0
 30 32  1  0  0  0  0
 31 33  1  0  0  0  0
 31 69  1  0  0  0  0
 32 34  2  0  0  0  0
 32 70  1  0  0  0  0
 33 35  2  0  0  0  0
 34 35  1  0  0  0  0
 34 71  1  0  0  0  0
 35 72  1  0  0  0  0
 36 73  1  0  0  0  0
 36 74  1  0  0  0  0
 36 75  1  0  0  0  0
M  END
> <PUBCHEM_COMPOUND_CID>
76329028

> <PUBCHEM_COMPOUND_CANONICALIZED>
1

> <PUBCHEM_CACTVS_COMPLEXITY>
654

> <PUBCHEM_CACTVS_HBOND_ACCEPTOR>
7

> <PUBCHEM_CACTVS_HBOND_DONOR>
1

> <PUBCHEM_CACTVS_ROTATABLE_BOND>
9

> <PUBCHEM_CACTVS_SUBSKEYS>
AAADcfB7oABAAAAAAAAAAAAAAAAAAWAAAAA8YMEAAAAAAFgB0AAAHgQQAAAADCzB3gYz15NIFAikAyRiZACC+KlhKjkImBQ+bIiMZiLksZuUMChkwBPI6CeQwPAOiAABAAAAAAAQAQIAQAACAAAAAAAAAA==

> <PUBCHEM_IUPAC_OPENEYE_NAME>
(6S)-N6-[2-[4-[4-(3-methoxyphenyl)phenyl]piperazin-1-yl]ethyl]-N6-propyl-4,5,6,7-tetrahydro-1,3-benzothiazole-2,6-diamine

> <PUBCHEM_IUPAC_CAS_NAME>
(6S)-N6-[2-[4-[4-(3-methoxyphenyl)phenyl]-1-piperazinyl]ethyl]-N6-propyl-4,5,6,7-tetrahydro-1,3-benzothiazole-2,6-diamine

> <PUBCHEM_IUPAC_NAME_MARKUP>
(6<I>S</I>)-6-<I>N</I>-[2-[4-[4-(3-methoxyphenyl)phenyl]piperazin-1-yl]ethyl]-6-<I>N</I>-propyl-4,5,6,7-tetrahydro-1,3-benzothiazole-2,6-diamine

> <PUBCHEM_IUPAC_NAME>
(6S)-6-N-[2-[4-[4-(3-methoxyphenyl)phenyl]piperazin-1-yl]ethyl]-6-N-propyl-4,5,6,7-tetrahydro-1,3-benzothiazole-2,6-diamine

> <PUBCHEM_IUPAC_SYSTEMATIC_NAME>
(6S)-N6-[2-[4-[4-(3-methoxyphenyl)phenyl]piperazin-1-yl]ethyl]-N6-propyl-4,5,6,7-tetrahydro-1,3-benzothiazole-2,6-diamine

> <PUBCHEM_IUPAC_TRADITIONAL_NAME>
[(6S)-2-amino-4,5,6,7-tetrahydro-1,3-benzothiazol-6-yl]-[2-[4-[4-(3-methoxyphenyl)phenyl]piperazino]ethyl]-propyl-amine

> <PUBCHEM_IUPAC_INCHI>
InChI=1S/C29H39N5OS/c1-3-13-33(25-11-12-27-28(21-25)36-29(30)31-27)17-14-32-15-18-34(19-16-32)24-9-7-22(8-10-24)23-5-4-6-26(20-23)35-2/h4-10,20,25H,3,11-19,21H2,1-2H3,(H2,30,31)/t25-/m0/s1

> <PUBCHEM_IUPAC_INCHIKEY>
DUVNCSZVWYCEFO-VWLOTQADSA-N

> <PUBCHEM_XLOGP3_AA>
5.6

> <PUBCHEM_EXACT_MASS>
505.28753206

> <PUBCHEM_MOLECULAR_FORMULA>
C29H39N5OS

> <PUBCHEM_MOLECULAR_WEIGHT>
505.7

> <PUBCHEM_OPENEYE_CAN_SMILES>
CCCN(CCN1CCN(CC1)C2=CC=C(C=C2)C3=CC(=CC=C3)OC)C4CCC5=C(C4)SC(=N5)N

> <PUBCHEM_OPENEYE_ISO_SMILES>
CCCN(CCN1CCN(CC1)C2=CC=C(C=C2)C3=CC(=CC=C3)OC)[C@H]4CCC5=C(C4)SC(=N5)N

> <PUBCHEM_CACTVS_TPSA>
86.1

> <PUBCHEM_MONOISOTOPIC_WEIGHT>
505.28753206

> <PUBCHEM_TOTAL_CHARGE>
0

> <PUBCHEM_HEAVY_ATOM_COUNT>
36

> <PUBCHEM_ATOM_DEF_STEREO_COUNT>
1

> <PUBCHEM_ATOM_UDEF_STEREO_COUNT>
0

> <PUBCHEM_BOND_DEF_STEREO_COUNT>
0

> <PUBCHEM_BOND_UDEF_STEREO_COUNT>
0

> <PUBCHEM_ISOTOPIC_ATOM_COUNT>
0

> <PUBCHEM_COMPONENT_COUNT>
1

> <PUBCHEM_CACTVS_TAUTO_COUNT>
-1

> <PUBCHEM_COORDINATE_TYPE>
1
5
255

> <PUBCHEM_BONDANNOTATIONS>
1  15  8
1  23  8
15  18  8
22  25  8
22  26  8
25  27  8
26  28  8
27  29  8
28  29  8
8  3  6
30  31  8
30  32  8
31  33  8
32  34  8
33  35  8
34  35  8
6  18  8
6  23  8

$$$$
