44408833
  -OEChem-09292322272D

 58 60  0     1  0  0  0  0  0999 V2000
    9.8622   -0.3170    0.0000 S   0  0  0  0  0  0  0  0  0  0  0  0
   10.3622   -1.1830    0.0000 O   0  0  0  0  0  0  0  0  0  0  0  0
    9.3622    0.5490    0.0000 O   0  0  0  0  0  0  0  0  0  0  0  0
    5.5321   -0.8170    0.0000 N   0  0  3  0  0  0  0  0  0  0  0  0
    3.8000   -0.8170    0.0000 C   0  0  2  0  0  0  0  0  0  0  0  0
    3.8000    0.1830    0.0000 C   0  0  2  0  0  0  0  0  0  0  0  0
    4.6660   -1.3170    0.0000 C   0  0  0  0  0  0  0  0  0  0  0  0
    4.6660    0.6830    0.0000 C   0  0  0  0  0  0  0  0  0  0  0  0
    2.9061   -1.3516    0.0000 C   0  0  0  0  0  0  0  0  0  0  0  0
    2.9061    0.7177    0.0000 C   0  0  0  0  0  0  0  0  0  0  0  0
    5.5321    0.1830    0.0000 C   0  0  0  0  0  0  0  0  0  0  0  0
    2.0000   -0.8378    0.0000 C   0  0  0  0  0  0  0  0  0  0  0  0
    2.0000    0.2038    0.0000 C   0  0  0  0  0  0  0  0  0  0  0  0
    6.3981   -1.3170    0.0000 C   0  0  0  0  0  0  0  0  0  0  0  0
    7.2641   -0.8170    0.0000 C   0  0  0  0  0  0  0  0  0  0  0  0
    8.1301   -1.3170    0.0000 C   0  0  0  0  0  0  0  0  0  0  0  0
    8.9962   -0.8170    0.0000 C   0  0  0  0  0  0  0  0  0  0  0  0
    9.4962   -1.6830    0.0000 C   0  0  0  0  0  0  0  0  0  0  0  0
    8.4962    0.0490    0.0000 C   0  0  0  0  0  0  0  0  0  0  0  0
   10.7282    0.1830    0.0000 C   0  0  0  0  0  0  0  0  0  0  0  0
   10.7282    1.1830    0.0000 C   0  0  0  0  0  0  0  0  0  0  0  0
   11.5942   -0.3170    0.0000 C   0  0  0  0  0  0  0  0  0  0  0  0
   11.5942    1.6830    0.0000 C   0  0  0  0  0  0  0  0  0  0  0  0
   12.4603    0.1830    0.0000 C   0  0  0  0  0  0  0  0  0  0  0  0
   12.4603    1.1830    0.0000 C   0  0  0  0  0  0  0  0  0  0  0  0
    3.8066   -1.6670    0.0000 H   0  0  0  0  0  0  0  0  0  0  0  0
    3.8066    1.0330    0.0000 H   0  0  0  0  0  0  0  0  0  0  0  0
    4.2675   -1.7919    0.0000 H   0  0  0  0  0  0  0  0  0  0  0  0
    5.0646   -1.7919    0.0000 H   0  0  0  0  0  0  0  0  0  0  0  0
    5.0646    1.1580    0.0000 H   0  0  0  0  0  0  0  0  0  0  0  0
    4.2675    1.1580    0.0000 H   0  0  0  0  0  0  0  0  0  0  0  0
    2.5124   -1.8307    0.0000 H   0  0  0  0  0  0  0  0  0  0  0  0
    3.3107   -1.8214    0.0000 H   0  0  0  0  0  0  0  0  0  0  0  0
    3.3107    1.1875    0.0000 H   0  0  0  0  0  0  0  0  0  0  0  0
    2.5124    1.1967    0.0000 H   0  0  0  0  0  0  0  0  0  0  0  0
    6.1426    0.0754    0.0000 H   0  0  0  0  0  0  0  0  0  0  0  0
    5.7441    0.7656    0.0000 H   0  0  0  0  0  0  0  0  0  0  0  0
    1.3891   -0.7317    0.0000 H   0  0  0  0  0  0  0  0  0  0  0  0
    1.7909   -1.4215    0.0000 H   0  0  0  0  0  0  0  0  0  0  0  0
    1.7909    0.7875    0.0000 H   0  0  0  0  0  0  0  0  0  0  0  0
    1.3891    0.0977    0.0000 H   0  0  0  0  0  0  0  0  0  0  0  0
    5.9996   -1.7919    0.0000 H   0  0  0  0  0  0  0  0  0  0  0  0
    6.7966   -1.7919    0.0000 H   0  0  0  0  0  0  0  0  0  0  0  0
    7.6626   -0.3420    0.0000 H   0  0  0  0  0  0  0  0  0  0  0  0
    6.8656   -0.3420    0.0000 H   0  0  0  0  0  0  0  0  0  0  0  0
    7.7316   -1.7919    0.0000 H   0  0  0  0  0  0  0  0  0  0  0  0
    8.5287   -1.7919    0.0000 H   0  0  0  0  0  0  0  0  0  0  0  0
    8.9592   -1.9930    0.0000 H   0  0  0  0  0  0  0  0  0  0  0  0
    9.8062   -2.2200    0.0000 H   0  0  0  0  0  0  0  0  0  0  0  0
   10.0331   -1.3730    0.0000 H   0  0  0  0  0  0  0  0  0  0  0  0
    9.0331    0.3590    0.0000 H   0  0  0  0  0  0  0  0  0  0  0  0
    8.1862    0.5860    0.0000 H   0  0  0  0  0  0  0  0  0  0  0  0
    7.9592   -0.2610    0.0000 H   0  0  0  0  0  0  0  0  0  0  0  0
   10.1913    1.4930    0.0000 H   0  0  0  0  0  0  0  0  0  0  0  0
   11.5942   -0.9370    0.0000 H   0  0  0  0  0  0  0  0  0  0  0  0
   11.5942    2.3030    0.0000 H   0  0  0  0  0  0  0  0  0  0  0  0
   12.9972   -0.1270    0.0000 H   0  0  0  0  0  0  0  0  0  0  0  0
   12.9972    1.4930    0.0000 H   0  0  0  0  0  0  0  0  0  0  0  0
  1  2  2  0  0  0  0
  1  3  2  0  0  0  0
  1 17  1  0  0  0  0
  1 20  1  0  0  0  0
  4  7  1  0  0  0  0
  4 11  1  0  0  0  0
  4 14  1  0  0  0  0
  5  6  1  0  0  0  0
  5  7  1  0  0  0  0
  5  9  1  0  0  0  0
  5 26  1  1  0  0  0
  6  8  1  0  0  0  0
  6 10  1  0  0  0  0
  6 27  1  6  0  0  0
  7 28  1  0  0  0  0
  7 29  1  0  0  0  0
  8 11  1  0  0  0  0
  8 30  1  0  0  0  0
  8 31  1  0  0  0  0
  9 12  1  0  0  0  0
  9 32  1  0  0  0  0
  9 33  1  0  0  0  0
 10 13  1  0  0  0  0
 10 34  1  0  0  0  0
 10 35  1  0  0  0  0
 11 36  1  0  0  0  0
 11 37  1  0  0  0  0
 12 13  1  0  0  0  0
 12 38  1  0  0  0  0
 12 39  1  0  0  0  0
 13 40  1  0  0  0  0
 13 41  1  0  0  0  0
 14 15  1  0  0  0  0
 14 42  1  0  0  0  0
 14 43  1  0  0  0  0
 15 16  1  0  0  0  0
 15 44  1  0  0  0  0
 15 45  1  0  0  0  0
 16 17  1  0  0  0  0
 16 46  1  0  0  0  0
 16 47  1  0  0  0  0
 17 18  1  0  0  0  0
 17 19  1  0  0  0  0
 18 48  1  0  0  0  0
 18 49  1  0  0  0  0
 18 50  1  0  0  0  0
 19 51  1  0  0  0  0
 19 52  1  0  0  0  0
 19 53  1  0  0  0  0
 20 21  2  0  0  0  0
 20 22  1  0  0  0  0
 21 23  1  0  0  0  0
 21 54  1  0  0  0  0
 22 24  2  0  0  0  0
 22 55  1  0  0  0  0
 23 25  2  0  0  0  0
 23 56  1  0  0  0  0
 24 25  1  0  0  0  0
 24 57  1  0  0  0  0
 25 58  1  0  0  0  0
M  END
> <PUBCHEM_COMPOUND_CID>
44408833

> <PUBCHEM_COMPOUND_CANONICALIZED>
1

> <PUBCHEM_CACTVS_COMPLEXITY>
517

> <PUBCHEM_CACTVS_HBOND_ACCEPTOR>
3

> <PUBCHEM_CACTVS_HBOND_DONOR>
0

> <PUBCHEM_CACTVS_ROTATABLE_BOND>
6

> <PUBCHEM_CACTVS_SUBSKEYS>
AAADcfB6MABAAAAAAAAAAAAAAAAAAAAAAAA8YIAAAAAAAACxAAAAHAQAAAAADQDBUAQyAYMAAAqAACBCAHBCAAAgCBAIiBgIAIgIICKgkRCEIAAggACoiAcQgIAOgAAAAAAAAAAAAAAAACAAAAAAAAAAAA==

> <PUBCHEM_IUPAC_OPENEYE_NAME>
(4aS,8aR)-2-[4-(benzenesulfonyl)-4-methyl-pentyl]-3,4,4a,5,6,7,8,8a-octahydro-1H-isoquinoline

> <PUBCHEM_IUPAC_CAS_NAME>
(4aS,8aR)-2-[4-(benzenesulfonyl)-4-methylpentyl]-3,4,4a,5,6,7,8,8a-octahydro-1H-isoquinoline

> <PUBCHEM_IUPAC_NAME_MARKUP>
(4<I>a</I><I>S</I>,8<I>a</I><I>R</I>)-2-[4-(benzenesulfonyl)-4-methylpentyl]-3,4,4<I>a</I>,5,6,7,8,8<I>a</I>-octahydro-1<I>H</I>-isoquinoline

> <PUBCHEM_IUPAC_NAME>
(4aS,8aR)-2-[4-(benzenesulfonyl)-4-methylpentyl]-3,4,4a,5,6,7,8,8a-octahydro-1H-isoquinoline

> <PUBCHEM_IUPAC_SYSTEMATIC_NAME>
(4aS,8aR)-2-[4-methyl-4-(phenylsulfonyl)pentyl]-3,4,4a,5,6,7,8,8a-octahydro-1H-isoquinoline

> <PUBCHEM_IUPAC_TRADITIONAL_NAME>
(4aS,8aR)-2-(4-besyl-4-methyl-pentyl)-3,4,4a,5,6,7,8,8a-octahydro-1H-isoquinoline

> <PUBCHEM_IUPAC_INCHI>
InChI=1S/C21H33NO2S/c1-21(2,25(23,24)20-11-4-3-5-12-20)14-8-15-22-16-13-18-9-6-7-10-19(18)17-22/h3-5,11-12,18-19H,6-10,13-17H2,1-2H3/t18-,19-/m0/s1

> <PUBCHEM_IUPAC_INCHIKEY>
ZKMMUOFYONDNCU-OALUTQOASA-N

> <PUBCHEM_XLOGP3_AA>
4.9

> <PUBCHEM_EXACT_MASS>
363.22320047

> <PUBCHEM_MOLECULAR_FORMULA>
C21H33NO2S

> <PUBCHEM_MOLECULAR_WEIGHT>
363.6

> <PUBCHEM_OPENEYE_CAN_SMILES>
CC(C)(CCCN1CCC2CCCCC2C1)S(=O)(=O)C3=CC=CC=C3

> <PUBCHEM_OPENEYE_ISO_SMILES>
CC(C)(CCCN1CC[C@@H]2CCCC[C@H]2C1)S(=O)(=O)C3=CC=CC=C3

> <PUBCHEM_CACTVS_TPSA>
45.8

> <PUBCHEM_MONOISOTOPIC_WEIGHT>
363.22320047

> <PUBCHEM_TOTAL_CHARGE>
0

> <PUBCHEM_HEAVY_ATOM_COUNT>
25

> <PUBCHEM_ATOM_DEF_STEREO_COUNT>
2

> <PUBCHEM_ATOM_UDEF_STEREO_COUNT>
0

> <PUBCHEM_BOND_DEF_STEREO_COUNT>
0

> <PUBCHEM_BOND_UDEF_STEREO_COUNT>
0

> <PUBCHEM_ISOTOPIC_ATOM_COUNT>
0

> <PUBCHEM_COMPONENT_COUNT>
1

> <PUBCHEM_CACTVS_TAUTO_COUNT>
-1

> <PUBCHEM_COORDINATE_TYPE>
1
5
255

> <PUBCHEM_BONDANNOTATIONS>
20  21  8
20  22  8
21  23  8
22  24  8
23  25  8
24  25  8
5  26  5
6  27  6

$$$$
