44381279
  -OEChem-09292322192D

 50 53  0     1  0  0  0  0  0999 V2000
    5.4641   -2.5000    0.0000 O   0  0  0  0  0  0  0  0  0  0  0  0
    6.3301    1.0000    0.0000 N   0  0  0  0  0  0  0  0  0  0  0  0
    4.5981    2.0000    0.0000 N   0  0  0  0  0  0  0  0  0  0  0  0
    8.0622   -1.0000    0.0000 N   0  0  0  0  0  0  0  0  0  0  0  0
    7.1962   -2.5000    0.0000 N   0  0  0  0  0  0  0  0  0  0  0  0
    6.3301    2.0000    0.0000 C   0  0  0  0  0  0  0  0  0  0  0  0
    5.4641    0.5000    0.0000 C   0  0  0  0  0  0  0  0  0  0  0  0
    7.1962    0.5000    0.0000 C   0  0  0  0  0  0  0  0  0  0  0  0
    5.4641    2.5000    0.0000 C   0  0  0  0  0  0  0  0  0  0  0  0
    4.5981    1.0000    0.0000 C   0  0  0  0  0  0  0  0  0  0  0  0
    7.1962   -0.5000    0.0000 C   0  0  1  0  0  0  0  0  0  0  0  0
    6.3301   -1.0000    0.0000 C   0  0  0  0  0  0  0  0  0  0  0  0
    3.7320    2.5000    0.0000 C   0  0  0  0  0  0  0  0  0  0  0  0
    6.3301   -2.0000    0.0000 C   0  0  0  0  0  0  0  0  0  0  0  0
    8.0622   -2.0000    0.0000 C   0  0  0  0  0  0  0  0  0  0  0  0
    2.8660    2.0000    0.0000 C   0  0  0  0  0  0  0  0  0  0  0  0
    3.7320    3.5000    0.0000 C   0  0  0  0  0  0  0  0  0  0  0  0
    8.9282   -2.5000    0.0000 C   0  0  0  0  0  0  0  0  0  0  0  0
    2.0000    2.5000    0.0000 C   0  0  0  0  0  0  0  0  0  0  0  0
    2.8660    4.0000    0.0000 C   0  0  0  0  0  0  0  0  0  0  0  0
    2.0000    3.5000    0.0000 C   0  0  0  0  0  0  0  0  0  0  0  0
    9.7942   -2.0000    0.0000 C   0  0  0  0  0  0  0  0  0  0  0  0
    8.9282   -3.5000    0.0000 C   0  0  0  0  0  0  0  0  0  0  0  0
   10.6603   -2.5000    0.0000 C   0  0  0  0  0  0  0  0  0  0  0  0
    9.7942   -4.0000    0.0000 C   0  0  0  0  0  0  0  0  0  0  0  0
   10.6603   -3.5000    0.0000 C   0  0  0  0  0  0  0  0  0  0  0  0
    6.9407    1.8923    0.0000 H   0  0  0  0  0  0  0  0  0  0  0  0
    6.5422    2.5826    0.0000 H   0  0  0  0  0  0  0  0  0  0  0  0
    5.0656    0.0251    0.0000 H   0  0  0  0  0  0  0  0  0  0  0  0
    5.8626    0.0251    0.0000 H   0  0  0  0  0  0  0  0  0  0  0  0
    7.8067    0.3923    0.0000 H   0  0  0  0  0  0  0  0  0  0  0  0
    7.4082    1.0826    0.0000 H   0  0  0  0  0  0  0  0  0  0  0  0
    5.8626    2.9750    0.0000 H   0  0  0  0  0  0  0  0  0  0  0  0
    5.0656    2.9750    0.0000 H   0  0  0  0  0  0  0  0  0  0  0  0
    3.9875    1.1077    0.0000 H   0  0  0  0  0  0  0  0  0  0  0  0
    4.3860    0.4174    0.0000 H   0  0  0  0  0  0  0  0  0  0  0  0
    7.7331   -0.1900    0.0000 H   0  0  0  0  0  0  0  0  0  0  0  0
    6.1181   -0.4174    0.0000 H   0  0  0  0  0  0  0  0  0  0  0  0
    5.7196   -1.1077    0.0000 H   0  0  0  0  0  0  0  0  0  0  0  0
    7.1962   -3.1200    0.0000 H   0  0  0  0  0  0  0  0  0  0  0  0
    2.8660    1.3800    0.0000 H   0  0  0  0  0  0  0  0  0  0  0  0
    4.2690    3.8100    0.0000 H   0  0  0  0  0  0  0  0  0  0  0  0
    1.4631    2.1900    0.0000 H   0  0  0  0  0  0  0  0  0  0  0  0
    2.8660    4.6200    0.0000 H   0  0  0  0  0  0  0  0  0  0  0  0
    1.4631    3.8100    0.0000 H   0  0  0  0  0  0  0  0  0  0  0  0
    9.7942   -1.3800    0.0000 H   0  0  0  0  0  0  0  0  0  0  0  0
    8.3913   -3.8100    0.0000 H   0  0  0  0  0  0  0  0  0  0  0  0
   11.1972   -2.1900    0.0000 H   0  0  0  0  0  0  0  0  0  0  0  0
    9.7942   -4.6200    0.0000 H   0  0  0  0  0  0  0  0  0  0  0  0
   11.1972   -3.8100    0.0000 H   0  0  0  0  0  0  0  0  0  0  0  0
  1 14  2  0  0  0  0
  2  6  1  0  0  0  0
  2  7  1  0  0  0  0
  2  8  1  0  0  0  0
  3  9  1  0  0  0  0
  3 10  1  0  0  0  0
  3 13  1  0  0  0  0
  4 11  1  0  0  0  0
  4 15  2  0  0  0  0
  5 14  1  0  0  0  0
  5 15  1  0  0  0  0
  5 40  1  0  0  0  0
  6  9  1  0  0  0  0
  6 27  1  0  0  0  0
  6 28  1  0  0  0  0
  7 10  1  0  0  0  0
  7 29  1  0  0  0  0
  7 30  1  0  0  0  0
 11  8  1  6  0  0  0
  8 31  1  0  0  0  0
  8 32  1  0  0  0  0
  9 33  1  0  0  0  0
  9 34  1  0  0  0  0
 10 35  1  0  0  0  0
 10 36  1  0  0  0  0
 11 12  1  0  0  0  0
 11 37  1  0  0  0  0
 12 14  1  0  0  0  0
 12 38  1  0  0  0  0
 12 39  1  0  0  0  0
 13 16  2  0  0  0  0
 13 17  1  0  0  0  0
 15 18  1  0  0  0  0
 16 19  1  0  0  0  0
 16 41  1  0  0  0  0
 17 20  2  0  0  0  0
 17 42  1  0  0  0  0
 18 22  2  0  0  0  0
 18 23  1  0  0  0  0
 19 21  2  0  0  0  0
 19 43  1  0  0  0  0
 20 21  1  0  0  0  0
 20 44  1  0  0  0  0
 21 45  1  0  0  0  0
 22 24  1  0  0  0  0
 22 46  1  0  0  0  0
 23 25  2  0  0  0  0
 23 47  1  0  0  0  0
 24 26  2  0  0  0  0
 24 48  1  0  0  0  0
 25 26  1  0  0  0  0
 25 49  1  0  0  0  0
 26 50  1  0  0  0  0
M  END
> <PUBCHEM_COMPOUND_CID>
44381279

> <PUBCHEM_COMPOUND_CANONICALIZED>
1

> <PUBCHEM_CACTVS_COMPLEXITY>
500

> <PUBCHEM_CACTVS_HBOND_ACCEPTOR>
4

> <PUBCHEM_CACTVS_HBOND_DONOR>
1

> <PUBCHEM_CACTVS_ROTATABLE_BOND>
4

> <PUBCHEM_CACTVS_SUBSKEYS>
AAADceB7oAAAAAAAAAAAAAAAAAAAAAAAAAA8YIEAAAAAAAABQAAAHgAQAAAADCjBmAQxwIPAAACoAidydACCAAEhAgAJiAEoZJgIYLrA2ZGUIAhglADIyAcUgAAOAAAAAAAAAAAAAAAAAAAAAAAAAAAAAA==

> <PUBCHEM_IUPAC_OPENEYE_NAME>
(4R)-2-phenyl-4-[(4-phenylpiperazin-1-yl)methyl]-4,5-dihydro-1H-pyrimidin-6-one

> <PUBCHEM_IUPAC_CAS_NAME>
(4R)-2-phenyl-4-[(4-phenyl-1-piperazinyl)methyl]-4,5-dihydro-1H-pyrimidin-6-one

> <PUBCHEM_IUPAC_NAME_MARKUP>
(4<I>R</I>)-2-phenyl-4-[(4-phenylpiperazin-1-yl)methyl]-4,5-dihydro-1<I>H</I>-pyrimidin-6-one

> <PUBCHEM_IUPAC_NAME>
(4R)-2-phenyl-4-[(4-phenylpiperazin-1-yl)methyl]-4,5-dihydro-1H-pyrimidin-6-one

> <PUBCHEM_IUPAC_SYSTEMATIC_NAME>
(4R)-2-phenyl-4-[(4-phenylpiperazin-1-yl)methyl]-4,5-dihydro-1H-pyrimidin-6-one

> <PUBCHEM_IUPAC_TRADITIONAL_NAME>
(4R)-2-phenyl-4-[(4-phenylpiperazino)methyl]-4,5-dihydro-1H-pyrimidin-6-one

> <PUBCHEM_IUPAC_INCHI>
InChI=1S/C21H24N4O/c26-20-15-18(22-21(23-20)17-7-3-1-4-8-17)16-24-11-13-25(14-12-24)19-9-5-2-6-10-19/h1-10,18H,11-16H2,(H,22,23,26)/t18-/m1/s1

> <PUBCHEM_IUPAC_INCHIKEY>
DKXYPAWNMBQJBN-GOSISDBHSA-N

> <PUBCHEM_XLOGP3_AA>
2.3

> <PUBCHEM_EXACT_MASS>
348.19501140

> <PUBCHEM_MOLECULAR_FORMULA>
C21H24N4O

> <PUBCHEM_MOLECULAR_WEIGHT>
348.4

> <PUBCHEM_OPENEYE_CAN_SMILES>
C1CN(CCN1CC2CC(=O)NC(=N2)C3=CC=CC=C3)C4=CC=CC=C4

> <PUBCHEM_OPENEYE_ISO_SMILES>
C1CN(CCN1C[C@H]2CC(=O)NC(=N2)C3=CC=CC=C3)C4=CC=CC=C4

> <PUBCHEM_CACTVS_TPSA>
47.9

> <PUBCHEM_MONOISOTOPIC_WEIGHT>
348.19501140

> <PUBCHEM_TOTAL_CHARGE>
0

> <PUBCHEM_HEAVY_ATOM_COUNT>
26

> <PUBCHEM_ATOM_DEF_STEREO_COUNT>
1

> <PUBCHEM_ATOM_UDEF_STEREO_COUNT>
0

> <PUBCHEM_BOND_DEF_STEREO_COUNT>
0

> <PUBCHEM_BOND_UDEF_STEREO_COUNT>
0

> <PUBCHEM_ISOTOPIC_ATOM_COUNT>
0

> <PUBCHEM_COMPONENT_COUNT>
1

> <PUBCHEM_CACTVS_TAUTO_COUNT>
-1

> <PUBCHEM_COORDINATE_TYPE>
1
5
255

> <PUBCHEM_BONDANNOTATIONS>
13  16  8
13  17  8
16  19  8
17  20  8
18  22  8
18  23  8
19  21  8
20  21  8
22  24  8
23  25  8
24  26  8
25  26  8
11  8  6

$$$$
