11526531
  -OEChem-09292322492D

 70 76  0     1  0  0  0  0  0999 V2000
    9.0723    0.9409    0.0000 S   0  0  0  0  0  0  0  0  0  0  0  0
    4.3548   -5.3755    0.0000 O   0  0  0  0  0  0  0  0  0  0  0  0
    2.9609   -4.5707    0.0000 N   0  0  0  0  0  0  0  0  0  0  0  0
    6.0723   -0.7912    0.0000 N   0  0  3  0  0  0  0  0  0  0  0  0
   10.5668    1.9114    0.0000 N   0  0  0  0  0  0  0  0  0  0  0  0
    9.1655    2.7204    0.0000 N   0  0  0  0  0  0  0  0  0  0  0  0
    9.9087    3.3896    0.0000 N   0  0  0  0  0  0  0  0  0  0  0  0
   12.8312    5.7317    0.0000 N   0  0  0  0  0  0  0  0  0  0  0  0
    2.8660   -6.3445    0.0000 C   0  0  0  0  0  0  0  0  0  0  0  0
    2.8660   -7.3445    0.0000 C   0  0  0  0  0  0  0  0  0  0  0  0
    2.0000   -6.8445    0.0000 C   0  0  0  0  0  0  0  0  0  0  0  0
    3.3660   -5.4785    0.0000 C   0  0  0  0  0  0  0  0  0  0  0  0
    4.5640   -4.4036    0.0000 C   0  0  0  0  0  0  0  0  0  0  0  0
    3.6979   -3.9036    0.0000 C   0  0  0  0  0  0  0  0  0  0  0  0
    5.4300   -2.9036    0.0000 C   0  0  0  0  0  0  0  0  0  0  0  0
    4.5640   -2.4036    0.0000 C   0  0  0  0  0  0  0  0  0  0  0  0
    6.3405   -2.5392    0.0000 C   0  0  0  0  0  0  0  0  0  0  0  0
    4.4243   -1.4328    0.0000 C   0  0  0  0  0  0  0  0  0  0  0  0
    6.6258   -1.6008    0.0000 C   0  0  0  0  0  0  0  0  0  0  0  0
    5.0943   -0.7166    0.0000 C   0  0  0  0  0  0  0  0  0  0  0  0
    5.4300   -3.9036    0.0000 C   0  0  0  0  0  0  0  0  0  0  0  0
    3.6979   -2.9036    0.0000 C   0  0  0  0  0  0  0  0  0  0  0  0
    6.5723    0.0748    0.0000 C   0  0  0  0  0  0  0  0  0  0  0  0
    7.5723    0.0748    0.0000 C   0  0  0  0  0  0  0  0  0  0  0  0
    8.0723    0.9409    0.0000 C   0  0  0  0  0  0  0  0  0  0  0  0
    9.5723    1.8069    0.0000 C   0  0  0  0  0  0  0  0  0  0  0  0
   10.7747    2.8896    0.0000 C   0  0  0  0  0  0  0  0  0  0  0  0
   11.6882    3.2963    0.0000 C   0  0  0  0  0  0  0  0  0  0  0  0
   11.7928    4.2908    0.0000 C   0  0  0  0  0  0  0  0  0  0  0  0
   11.2359    1.1683    0.0000 C   0  0  0  0  0  0  0  0  0  0  0  0
   12.7063    4.6976    0.0000 C   0  0  0  0  0  0  0  0  0  0  0  0
   12.4973    2.7085    0.0000 C   0  0  0  0  0  0  0  0  0  0  0  0
   10.9407    4.8900    0.0000 C   0  0  0  0  0  0  0  0  0  0  0  0
   13.5153    4.1098    0.0000 C   0  0  0  0  0  0  0  0  0  0  0  0
   13.4108    3.1153    0.0000 C   0  0  0  0  0  0  0  0  0  0  0  0
   11.0416    5.9268    0.0000 C   0  0  0  0  0  0  0  0  0  0  0  0
   11.9932    6.3504    0.0000 C   0  0  0  0  0  0  0  0  0  0  0  0
   12.1016    7.3445    0.0000 C   0  0  0  0  0  0  0  0  0  0  0  0
    3.4649   -6.5050    0.0000 H   0  0  0  0  0  0  0  0  0  0  0  0
    2.6540   -7.9272    0.0000 H   0  0  0  0  0  0  0  0  0  0  0  0
    3.4766   -7.4522    0.0000 H   0  0  0  0  0  0  0  0  0  0  0  0
    1.6015   -6.3696    0.0000 H   0  0  0  0  0  0  0  0  0  0  0  0
    1.6015   -7.3195    0.0000 H   0  0  0  0  0  0  0  0  0  0  0  0
    6.4365   -3.1517    0.0000 H   0  0  0  0  0  0  0  0  0  0  0  0
    6.9590   -2.5825    0.0000 H   0  0  0  0  0  0  0  0  0  0  0  0
    4.0776   -0.9189    0.0000 H   0  0  0  0  0  0  0  0  0  0  0  0
    3.8458   -1.6560    0.0000 H   0  0  0  0  0  0  0  0  0  0  0  0
    7.1638   -1.9091    0.0000 H   0  0  0  0  0  0  0  0  0  0  0  0
    7.0465   -1.1454    0.0000 H   0  0  0  0  0  0  0  0  0  0  0  0
    5.2784   -0.1245    0.0000 H   0  0  0  0  0  0  0  0  0  0  0  0
    4.5584   -0.4049    0.0000 H   0  0  0  0  0  0  0  0  0  0  0  0
    5.9669   -4.2136    0.0000 H   0  0  0  0  0  0  0  0  0  0  0  0
    3.1610   -2.5936    0.0000 H   0  0  0  0  0  0  0  0  0  0  0  0
    6.6799    0.6854    0.0000 H   0  0  0  0  0  0  0  0  0  0  0  0
    5.9896    0.2869    0.0000 H   0  0  0  0  0  0  0  0  0  0  0  0
    7.4646   -0.5357    0.0000 H   0  0  0  0  0  0  0  0  0  0  0  0
    8.1549   -0.1372    0.0000 H   0  0  0  0  0  0  0  0  0  0  0  0
    8.1799    1.5514    0.0000 H   0  0  0  0  0  0  0  0  0  0  0  0
    7.4896    1.1529    0.0000 H   0  0  0  0  0  0  0  0  0  0  0  0
   10.7752    0.7534    0.0000 H   0  0  0  0  0  0  0  0  0  0  0  0
   11.6508    0.7075    0.0000 H   0  0  0  0  0  0  0  0  0  0  0  0
   11.6967    1.5831    0.0000 H   0  0  0  0  0  0  0  0  0  0  0  0
   12.4324    2.0919    0.0000 H   0  0  0  0  0  0  0  0  0  0  0  0
   10.3773    4.6313    0.0000 H   0  0  0  0  0  0  0  0  0  0  0  0
   14.0817    4.3620    0.0000 H   0  0  0  0  0  0  0  0  0  0  0  0
   13.9124    2.7508    0.0000 H   0  0  0  0  0  0  0  0  0  0  0  0
   10.5386    6.2892    0.0000 H   0  0  0  0  0  0  0  0  0  0  0  0
   12.7179    7.2774    0.0000 H   0  0  0  0  0  0  0  0  0  0  0  0
   12.1687    7.9609    0.0000 H   0  0  0  0  0  0  0  0  0  0  0  0
   11.4852    7.4117    0.0000 H   0  0  0  0  0  0  0  0  0  0  0  0
  1 25  1  0  0  0  0
  1 26  1  0  0  0  0
  2 12  1  0  0  0  0
  2 13  1  0  0  0  0
  3 12  2  0  0  0  0
  3 14  1  0  0  0  0
  4 19  1  0  0  0  0
  4 20  1  0  0  0  0
  4 23  1  0  0  0  0
  5 26  1  0  0  0  0
  5 27  1  0  0  0  0
  5 30  1  0  0  0  0
  6  7  1  0  0  0  0
  6 26  2  0  0  0  0
  7 27  2  0  0  0  0
  8 31  1  0  0  0  0
  8 37  2  0  0  0  0
  9 10  1  0  0  0  0
  9 11  1  0  0  0  0
  9 12  1  0  0  0  0
  9 39  1  0  0  0  0
 10 11  1  0  0  0  0
 10 40  1  0  0  0  0
 10 41  1  0  0  0  0
 11 42  1  0  0  0  0
 11 43  1  0  0  0  0
 13 14  2  0  0  0  0
 13 21  1  0  0  0  0
 14 22  1  0  0  0  0
 15 16  1  0  0  0  0
 15 17  1  0  0  0  0
 15 21  2  0  0  0  0
 16 18  1  0  0  0  0
 16 22  2  0  0  0  0
 17 19  1  0  0  0  0
 17 44  1  0  0  0  0
 17 45  1  0  0  0  0
 18 20  1  0  0  0  0
 18 46  1  0  0  0  0
 18 47  1  0  0  0  0
 19 48  1  0  0  0  0
 19 49  1  0  0  0  0
 20 50  1  0  0  0  0
 20 51  1  0  0  0  0
 21 52  1  0  0  0  0
 22 53  1  0  0  0  0
 23 24  1  0  0  0  0
 23 54  1  0  0  0  0
 23 55  1  0  0  0  0
 24 25  1  0  0  0  0
 24 56  1  0  0  0  0
 24 57  1  0  0  0  0
 25 58  1  0  0  0  0
 25 59  1  0  0  0  0
 27 28  1  0  0  0  0
 28 29  2  0  0  0  0
 28 32  1  0  0  0  0
 29 31  1  0  0  0  0
 29 33  1  0  0  0  0
 30 60  1  0  0  0  0
 30 61  1  0  0  0  0
 30 62  1  0  0  0  0
 31 34  2  0  0  0  0
 32 35  2  0  0  0  0
 32 63  1  0  0  0  0
 33 36  2  0  0  0  0
 33 64  1  0  0  0  0
 34 35  1  0  0  0  0
 34 65  1  0  0  0  0
 35 66  1  0  0  0  0
 36 37  1  0  0  0  0
 36 67  1  0  0  0  0
 37 38  1  0  0  0  0
 38 68  1  0  0  0  0
 38 69  1  0  0  0  0
 38 70  1  0  0  0  0
M  END
> <PUBCHEM_COMPOUND_CID>
11526531

> <PUBCHEM_COMPOUND_CANONICALIZED>
1

> <PUBCHEM_CACTVS_COMPLEXITY>
801

> <PUBCHEM_CACTVS_HBOND_ACCEPTOR>
7

> <PUBCHEM_CACTVS_HBOND_DONOR>
0

> <PUBCHEM_CACTVS_ROTATABLE_BOND>
7

> <PUBCHEM_CACTVS_SUBSKEYS>
AAADcfB7oABAAAAAAAAAAAAAGAAAAWLAAAA8YIAABYAAAFix/gAAHgQIAAAADQzF3wSz1vcMFEiqA6dydASS2CtvYrAd2CG/bNiOLvLkvbuPOSjkzBPY6YeY2fKOqAABQAASEABQAAKAACQgAAAAAAAAAA==

> <PUBCHEM_IUPAC_OPENEYE_NAME>
2-cyclopropyl-7-[3-[[4-methyl-5-(2-methyl-5-quinolyl)-1,2,4-triazol-3-yl]sulfanyl]propyl]-5,6,8,9-tetrahydrooxazolo[4,5-h][3]benzazepine

> <PUBCHEM_IUPAC_CAS_NAME>
2-cyclopropyl-7-[3-[[4-methyl-5-(2-methyl-5-quinolinyl)-1,2,4-triazol-3-yl]thio]propyl]-5,6,8,9-tetrahydrooxazolo[4,5-h][3]benzazepine

> <PUBCHEM_IUPAC_NAME_MARKUP>
2-cyclopropyl-7-[3-[[4-methyl-5-(2-methylquinolin-5-yl)-1,2,4-triazol-3-yl]sulfanyl]propyl]-5,6,8,9-tetrahydro-[1,3]oxazolo[4,5-h][3]benzazepine

> <PUBCHEM_IUPAC_NAME>
2-cyclopropyl-7-[3-[[4-methyl-5-(2-methylquinolin-5-yl)-1,2,4-triazol-3-yl]sulfanyl]propyl]-5,6,8,9-tetrahydro-[1,3]oxazolo[4,5-h][3]benzazepine

> <PUBCHEM_IUPAC_SYSTEMATIC_NAME>
2-cyclopropyl-7-[3-[[4-methyl-5-(2-methylquinolin-5-yl)-1,2,4-triazol-3-yl]sulfanyl]propyl]-5,6,8,9-tetrahydro-[1,3]oxazolo[4,5-h][3]benzazepine

> <PUBCHEM_IUPAC_TRADITIONAL_NAME>
2-cyclopropyl-7-[3-[[4-methyl-5-(2-methyl-5-quinolyl)-1,2,4-triazol-3-yl]thio]propyl]-5,6,8,9-tetrahydrooxazolo[4,5-h][3]benzazepine

> <PUBCHEM_IUPAC_INCHI>
InChI=1S/C30H32N6OS/c1-19-7-10-23-24(5-3-6-25(23)31-19)28-33-34-30(35(28)2)38-16-4-13-36-14-11-21-17-26-27(18-22(21)12-15-36)37-29(32-26)20-8-9-20/h3,5-7,10,17-18,20H,4,8-9,11-16H2,1-2H3

> <PUBCHEM_IUPAC_INCHIKEY>
YHBNNSZPKVUPMG-UHFFFAOYSA-N

> <PUBCHEM_XLOGP3_AA>
5.4

> <PUBCHEM_EXACT_MASS>
524.23583084

> <PUBCHEM_MOLECULAR_FORMULA>
C30H32N6OS

> <PUBCHEM_MOLECULAR_WEIGHT>
524.7

> <PUBCHEM_OPENEYE_CAN_SMILES>
CC1=NC2=CC=CC(=C2C=C1)C3=NN=C(N3C)SCCCN4CCC5=CC6=C(C=C5CC4)OC(=N6)C7CC7

> <PUBCHEM_OPENEYE_ISO_SMILES>
CC1=NC2=CC=CC(=C2C=C1)C3=NN=C(N3C)SCCCN4CCC5=CC6=C(C=C5CC4)OC(=N6)C7CC7

> <PUBCHEM_CACTVS_TPSA>
98.2

> <PUBCHEM_MONOISOTOPIC_WEIGHT>
524.23583084

> <PUBCHEM_TOTAL_CHARGE>
0

> <PUBCHEM_HEAVY_ATOM_COUNT>
38

> <PUBCHEM_ATOM_DEF_STEREO_COUNT>
0

> <PUBCHEM_ATOM_UDEF_STEREO_COUNT>
0

> <PUBCHEM_BOND_DEF_STEREO_COUNT>
0

> <PUBCHEM_BOND_UDEF_STEREO_COUNT>
0

> <PUBCHEM_ISOTOPIC_ATOM_COUNT>
0

> <PUBCHEM_COMPONENT_COUNT>
1

> <PUBCHEM_CACTVS_TAUTO_COUNT>
-1

> <PUBCHEM_COORDINATE_TYPE>
1
5
255

> <PUBCHEM_BONDANNOTATIONS>
13  14  8
13  21  8
14  22  8
15  16  8
15  21  8
16  22  8
2  12  8
2  13  8
28  29  8
28  32  8
29  31  8
29  33  8
3  12  8
3  14  8
31  34  8
32  35  8
33  36  8
34  35  8
36  37  8
5  26  8
5  27  8
6  26  8
6  7  8
7  27  8
8  31  8
8  37  8

$$$$
