155557134
  -OEChem-09292322412D

 70 74  0     1  0  0  0  0  0999 V2000
   11.2917   -2.3464    0.0000 S   0  0  0  0  0  0  0  0  0  0  0  0
   11.2705   -1.3466    0.0000 O   0  0  0  0  0  0  0  0  0  0  0  0
   12.2360   -2.0173    0.0000 O   0  0  0  0  0  0  0  0  0  0  0  0
    4.9971    4.3739    0.0000 O   0  0  0  0  0  0  0  0  0  0  0  0
    5.1500    0.9132    0.0000 N   0  0  0  0  0  0  0  0  0  0  0  0
    4.0745    2.5994    0.0000 N   0  0  0  0  0  0  0  0  0  0  0  0
   10.2981   -2.3268    0.0000 N   0  0  3  0  0  0  0  0  0  0  0  0
    5.6113    1.8005    0.0000 C   0  0  0  0  0  0  0  0  0  0  0  0
    4.1510    0.8691    0.0000 C   0  0  0  0  0  0  0  0  0  0  0  0
    5.6878    0.0701    0.0000 C   0  0  0  0  0  0  0  0  0  0  0  0
    5.0735    2.6436    0.0000 C   0  0  0  0  0  0  0  0  0  0  0  0
    3.6132    1.7122    0.0000 C   0  0  0  0  0  0  0  0  0  0  0  0
    6.6868    0.1142    0.0000 C   0  0  0  0  0  0  0  0  0  0  0  0
    7.2245   -0.7289    0.0000 C   0  0  0  0  0  0  0  0  0  0  0  0
    8.2236   -0.6847    0.0000 C   0  0  0  0  0  0  0  0  0  0  0  0
    9.7603   -1.4837    0.0000 C   0  0  0  0  0  0  0  0  0  0  0  0
    8.7613   -1.5278    0.0000 C   0  0  0  0  0  0  0  0  0  0  0  0
    9.8968   -3.2360    0.0000 C   0  0  0  0  0  0  0  0  0  0  0  0
   10.7908   -3.7707    0.0000 C   0  0  0  0  0  0  0  0  0  0  0  0
   11.6568   -3.2707    0.0000 C   0  0  0  0  0  0  0  0  0  0  0  0
    3.5368    3.4425    0.0000 C   0  0  0  0  0  0  0  0  0  0  0  0
   10.7908   -4.7707    0.0000 C   0  0  0  0  0  0  0  0  0  0  0  0
    8.9908   -3.7498    0.0000 C   0  0  0  0  0  0  0  0  0  0  0  0
   12.5228   -3.7707    0.0000 C   0  0  0  0  0  0  0  0  0  0  0  0
    9.8968   -5.3053    0.0000 C   0  0  0  0  0  0  0  0  0  0  0  0
   11.6568   -5.2707    0.0000 C   0  0  0  0  0  0  0  0  0  0  0  0
    3.9980    4.3298    0.0000 C   0  0  0  0  0  0  0  0  0  0  0  0
    8.9908   -4.7915    0.0000 C   0  0  0  0  0  0  0  0  0  0  0  0
   12.5228   -4.7707    0.0000 C   0  0  0  0  0  0  0  0  0  0  0  0
    2.5378    3.3984    0.0000 C   0  0  0  0  0  0  0  0  0  0  0  0
    3.4603    5.1729    0.0000 C   0  0  0  0  0  0  0  0  0  0  0  0
    2.0000    4.2415    0.0000 C   0  0  0  0  0  0  0  0  0  0  0  0
    2.4613    5.1287    0.0000 C   0  0  0  0  0  0  0  0  0  0  0  0
    5.4584    5.2612    0.0000 C   0  0  0  0  0  0  0  0  0  0  0  0
    6.4574    5.3053    0.0000 C   0  0  0  0  0  0  0  0  0  0  0  0
    6.1034    1.4233    0.0000 H   0  0  0  0  0  0  0  0  0  0  0  0
    6.0682    2.2196    0.0000 H   0  0  0  0  0  0  0  0  0  0  0  0
    3.5783    0.6315    0.0000 H   0  0  0  0  0  0  0  0  0  0  0  0
    4.2855    0.2638    0.0000 H   0  0  0  0  0  0  0  0  0  0  0  0
    5.1151   -0.1675    0.0000 H   0  0  0  0  0  0  0  0  0  0  0  0
    5.8223   -0.5351    0.0000 H   0  0  0  0  0  0  0  0  0  0  0  0
    5.6462    2.8811    0.0000 H   0  0  0  0  0  0  0  0  0  0  0  0
    4.9390    3.2488    0.0000 H   0  0  0  0  0  0  0  0  0  0  0  0
    3.1212    2.0893    0.0000 H   0  0  0  0  0  0  0  0  0  0  0  0
    3.1564    1.2930    0.0000 H   0  0  0  0  0  0  0  0  0  0  0  0
    7.2595    0.3518    0.0000 H   0  0  0  0  0  0  0  0  0  0  0  0
    6.5523    0.7195    0.0000 H   0  0  0  0  0  0  0  0  0  0  0  0
    6.6518   -0.9664    0.0000 H   0  0  0  0  0  0  0  0  0  0  0  0
    7.3590   -1.3341    0.0000 H   0  0  0  0  0  0  0  0  0  0  0  0
    8.7962   -0.4471    0.0000 H   0  0  0  0  0  0  0  0  0  0  0  0
    8.0890   -0.0795    0.0000 H   0  0  0  0  0  0  0  0  0  0  0  0
   10.3330   -1.2461    0.0000 H   0  0  0  0  0  0  0  0  0  0  0  0
    9.6258   -0.8784    0.0000 H   0  0  0  0  0  0  0  0  0  0  0  0
    8.1886   -1.7654    0.0000 H   0  0  0  0  0  0  0  0  0  0  0  0
    8.8958   -2.1330    0.0000 H   0  0  0  0  0  0  0  0  0  0  0  0
    8.4550   -3.4378    0.0000 H   0  0  0  0  0  0  0  0  0  0  0  0
   13.0598   -3.4607    0.0000 H   0  0  0  0  0  0  0  0  0  0  0  0
    9.9040   -5.9253    0.0000 H   0  0  0  0  0  0  0  0  0  0  0  0
   11.6568   -5.8907    0.0000 H   0  0  0  0  0  0  0  0  0  0  0  0
    8.4550   -5.1036    0.0000 H   0  0  0  0  0  0  0  0  0  0  0  0
   13.0598   -5.0807    0.0000 H   0  0  0  0  0  0  0  0  0  0  0  0
    2.2518    2.8483    0.0000 H   0  0  0  0  0  0  0  0  0  0  0  0
    3.7463    5.7230    0.0000 H   0  0  0  0  0  0  0  0  0  0  0  0
    1.3806    4.2141    0.0000 H   0  0  0  0  0  0  0  0  0  0  0  0
    2.1279    5.6515    0.0000 H   0  0  0  0  0  0  0  0  0  0  0  0
    5.5390    5.8759    0.0000 H   0  0  0  0  0  0  0  0  0  0  0  0
    4.8670    5.4473    0.0000 H   0  0  0  0  0  0  0  0  0  0  0  0
    6.4848    4.6859    0.0000 H   0  0  0  0  0  0  0  0  0  0  0  0
    7.0768    5.3327    0.0000 H   0  0  0  0  0  0  0  0  0  0  0  0
    6.4300    5.9247    0.0000 H   0  0  0  0  0  0  0  0  0  0  0  0
  1  2  2  0  0  0  0
  1  3  2  0  0  0  0
  1  7  1  0  0  0  0
  1 20  1  0  0  0  0
  4 27  1  0  0  0  0
  4 34  1  0  0  0  0
  5  8  1  0  0  0  0
  5  9  1  0  0  0  0
  5 10  1  0  0  0  0
  6 11  1  0  0  0  0
  6 12  1  0  0  0  0
  6 21  1  0  0  0  0
  7 16  1  0  0  0  0
  7 18  1  0  0  0  0
  8 11  1  0  0  0  0
  8 36  1  0  0  0  0
  8 37  1  0  0  0  0
  9 12  1  0  0  0  0
  9 38  1  0  0  0  0
  9 39  1  0  0  0  0
 10 13  1  0  0  0  0
 10 40  1  0  0  0  0
 10 41  1  0  0  0  0
 11 42  1  0  0  0  0
 11 43  1  0  0  0  0
 12 44  1  0  0  0  0
 12 45  1  0  0  0  0
 13 14  1  0  0  0  0
 13 46  1  0  0  0  0
 13 47  1  0  0  0  0
 14 15  1  0  0  0  0
 14 48  1  0  0  0  0
 14 49  1  0  0  0  0
 15 17  1  0  0  0  0
 15 50  1  0  0  0  0
 15 51  1  0  0  0  0
 16 17  1  0  0  0  0
 16 52  1  0  0  0  0
 16 53  1  0  0  0  0
 17 54  1  0  0  0  0
 17 55  1  0  0  0  0
 18 19  1  0  0  0  0
 18 23  2  0  0  0  0
 19 20  1  0  0  0  0
 19 22  2  0  0  0  0
 20 24  2  0  0  0  0
 21 27  1  0  0  0  0
 21 30  2  0  0  0  0
 22 25  1  0  0  0  0
 22 26  1  0  0  0  0
 23 28  1  0  0  0  0
 23 56  1  0  0  0  0
 24 29  1  0  0  0  0
 24 57  1  0  0  0  0
 25 28  2  0  0  0  0
 25 58  1  0  0  0  0
 26 29  2  0  0  0  0
 26 59  1  0  0  0  0
 27 31  2  0  0  0  0
 28 60  1  0  0  0  0
 29 61  1  0  0  0  0
 30 32  1  0  0  0  0
 30 62  1  0  0  0  0
 31 33  1  0  0  0  0
 31 63  1  0  0  0  0
 32 33  2  0  0  0  0
 32 64  1  0  0  0  0
 33 65  1  0  0  0  0
 34 35  1  0  0  0  0
 34 66  1  0  0  0  0
 34 67  1  0  0  0  0
 35 68  1  0  0  0  0
 35 69  1  0  0  0  0
 35 70  1  0  0  0  0
M  END
> <PUBCHEM_COMPOUND_CID>
155557134

> <PUBCHEM_COMPOUND_CANONICALIZED>
1

> <PUBCHEM_CACTVS_COMPLEXITY>
764

> <PUBCHEM_CACTVS_HBOND_ACCEPTOR>
6

> <PUBCHEM_CACTVS_HBOND_DONOR>
0

> <PUBCHEM_CACTVS_ROTATABLE_BOND>
10

> <PUBCHEM_CACTVS_SUBSKEYS>
AAADcfB7MABAAAAAAAAAAAAAAAAAAWAAAAA8YMEAAAAAAFjBVAAAHgQAQAAADAzh2AYyx8MABAKAAiRCQHDCCBAhIgAIiBgPbIgOZiLEsZuXOCzkwBHY6AeQwIAOgAAAwAAWEAAAAAGAACwgAAAAAAAAAA==

> <PUBCHEM_IUPAC_OPENEYE_NAME>
3-[6-[4-(2-ethoxyphenyl)piperazin-1-yl]hexyl]-2lambda6-thia-3-azatricyclo[6.3.1.04,12]dodeca-1(11),4,6,8(12),9-pentaene 2,2-dioxide

> <PUBCHEM_IUPAC_CAS_NAME>
3-[6-[4-(2-ethoxyphenyl)-1-piperazinyl]hexyl]-2lambda6-thia-3-azatricyclo[6.3.1.04,12]dodeca-1(11),4,6,8(12),9-pentaene 2,2-dioxide

> <PUBCHEM_IUPAC_NAME_MARKUP>
3-[6-[4-(2-ethoxyphenyl)piperazin-1-yl]hexyl]-2&lambda;<SUP>6</SUP>-thia-3-azatricyclo[6.3.1.0<SUP>4,12</SUP>]dodeca-1(11),4,6,8(12),9-pentaene 2,2-dioxide

> <PUBCHEM_IUPAC_NAME>
3-[6-[4-(2-ethoxyphenyl)piperazin-1-yl]hexyl]-2lambda6-thia-3-azatricyclo[6.3.1.04,12]dodeca-1(11),4,6,8(12),9-pentaene 2,2-dioxide

> <PUBCHEM_IUPAC_SYSTEMATIC_NAME>
3-[6-[4-(2-ethoxyphenyl)piperazin-1-yl]hexyl]-2lambda6-thia-3-azatricyclo[6.3.1.04,12]dodeca-1(11),4,6,8(12),9-pentaene 2,2-dioxide

> <PUBCHEM_IUPAC_TRADITIONAL_NAME>
3-[6-(4-o-phenetylpiperazino)hexyl]-2lambda6-thia-3-azatricyclo[6.3.1.04,12]dodeca-1(11),4,6,8(12),9-pentaene 2,2-dioxide

> <PUBCHEM_IUPAC_INCHI>
InChI=1S/C28H35N3O3S/c1-2-34-26-15-6-5-13-24(26)30-21-19-29(20-22-30)17-7-3-4-8-18-31-25-14-9-11-23-12-10-16-27(28(23)25)35(31,32)33/h5-6,9-16H,2-4,7-8,17-22H2,1H3

> <PUBCHEM_IUPAC_INCHIKEY>
AQSVMVNGAJNPNB-UHFFFAOYSA-N

> <PUBCHEM_XLOGP3_AA>
5.4

> <PUBCHEM_EXACT_MASS>
493.23991316

> <PUBCHEM_MOLECULAR_FORMULA>
C28H35N3O3S

> <PUBCHEM_MOLECULAR_WEIGHT>
493.7

> <PUBCHEM_OPENEYE_CAN_SMILES>
CCOC1=CC=CC=C1N2CCN(CC2)CCCCCCN3C4=CC=CC5=C4C(=CC=C5)S3(=O)=O

> <PUBCHEM_OPENEYE_ISO_SMILES>
CCOC1=CC=CC=C1N2CCN(CC2)CCCCCCN3C4=CC=CC5=C4C(=CC=C5)S3(=O)=O

> <PUBCHEM_CACTVS_TPSA>
61.5

> <PUBCHEM_MONOISOTOPIC_WEIGHT>
493.23991316

> <PUBCHEM_TOTAL_CHARGE>
0

> <PUBCHEM_HEAVY_ATOM_COUNT>
35

> <PUBCHEM_ATOM_DEF_STEREO_COUNT>
0

> <PUBCHEM_ATOM_UDEF_STEREO_COUNT>
0

> <PUBCHEM_BOND_DEF_STEREO_COUNT>
0

> <PUBCHEM_BOND_UDEF_STEREO_COUNT>
0

> <PUBCHEM_ISOTOPIC_ATOM_COUNT>
0

> <PUBCHEM_COMPONENT_COUNT>
1

> <PUBCHEM_CACTVS_TAUTO_COUNT>
-1

> <PUBCHEM_COORDINATE_TYPE>
1
5
255

> <PUBCHEM_BONDANNOTATIONS>
18  19  8
18  23  8
19  20  8
19  22  8
20  24  8
21  27  8
21  30  8
22  25  8
22  26  8
23  28  8
24  29  8
25  28  8
26  29  8
27  31  8
30  32  8
31  33  8
32  33  8

$$$$
