162672516
  -OEChem-09292322432D

 59 62  0     0  0  0  0  0  0999 V2000
    2.0000   -5.2200    0.0000 F   0  0  0  0  0  0  0  0  0  0  0  0
    5.5443   -5.0247    0.0000 O   0  0  0  0  0  0  0  0  0  0  0  0
    9.3653    2.7003    0.0000 O   0  0  0  0  0  0  0  0  0  0  0  0
   12.9221    5.2200    0.0000 O   0  0  0  0  0  0  0  0  0  0  0  0
    6.4763   -0.5637    0.0000 N   0  0  0  0  0  0  0  0  0  0  0  0
    6.1279   -4.2200    0.0000 N   0  0  0  0  0  0  0  0  0  0  0  0
   13.2793    3.5252    0.0000 N   0  0  0  0  0  0  0  0  0  0  0  0
    5.8550   -2.4647    0.0000 C   0  0  0  0  0  0  0  0  0  0  0  0
    5.1871   -1.7204    0.0000 C   0  0  0  0  0  0  0  0  0  0  0  0
    6.8335   -2.2585    0.0000 C   0  0  0  0  0  0  0  0  0  0  0  0
    5.4978   -0.7699    0.0000 C   0  0  0  0  0  0  0  0  0  0  0  0
    7.1441   -1.3080    0.0000 C   0  0  0  0  0  0  0  0  0  0  0  0
    6.7870    0.3868    0.0000 C   0  0  0  0  0  0  0  0  0  0  0  0
    5.5443   -3.4153    0.0000 C   0  0  0  0  0  0  0  0  0  0  0  0
    7.7654    0.5930    0.0000 C   0  0  0  0  0  0  0  0  0  0  0  0
    4.5981   -3.7200    0.0000 C   0  0  0  0  0  0  0  0  0  0  0  0
    8.0761    1.5436    0.0000 C   0  0  0  0  0  0  0  0  0  0  0  0
    4.5981   -4.7200    0.0000 C   0  0  0  0  0  0  0  0  0  0  0  0
    3.7320   -3.2200    0.0000 C   0  0  0  0  0  0  0  0  0  0  0  0
    9.0546    1.7498    0.0000 C   0  0  0  0  0  0  0  0  0  0  0  0
    3.7320   -5.2200    0.0000 C   0  0  0  0  0  0  0  0  0  0  0  0
    2.8660   -3.7200    0.0000 C   0  0  0  0  0  0  0  0  0  0  0  0
    2.8660   -4.7200    0.0000 C   0  0  0  0  0  0  0  0  0  0  0  0
   10.3438    2.9065    0.0000 C   0  0  0  0  0  0  0  0  0  0  0  0
   10.6545    3.8570    0.0000 C   0  0  0  0  0  0  0  0  0  0  0  0
   11.0116    2.1622    0.0000 C   0  0  0  0  0  0  0  0  0  0  0  0
   11.6330    4.0633    0.0000 C   0  0  0  0  0  0  0  0  0  0  0  0
   11.9901    2.3684    0.0000 C   0  0  0  0  0  0  0  0  0  0  0  0
   12.3008    3.3190    0.0000 C   0  0  0  0  0  0  0  0  0  0  0  0
   13.5900    4.4757    0.0000 C   0  0  0  0  0  0  0  0  0  0  0  0
   14.5685    4.6819    0.0000 C   0  0  0  0  0  0  0  0  0  0  0  0
    6.2690   -2.9262    0.0000 H   0  0  0  0  0  0  0  0  0  0  0  0
    4.6402   -1.4284    0.0000 H   0  0  0  0  0  0  0  0  0  0  0  0
    4.8046   -2.2083    0.0000 H   0  0  0  0  0  0  0  0  0  0  0  0
    6.8540   -2.8782    0.0000 H   0  0  0  0  0  0  0  0  0  0  0  0
    7.4473   -2.3459    0.0000 H   0  0  0  0  0  0  0  0  0  0  0  0
    5.4772   -0.1503    0.0000 H   0  0  0  0  0  0  0  0  0  0  0  0
    4.8840   -0.6826    0.0000 H   0  0  0  0  0  0  0  0  0  0  0  0
    7.6910   -1.6000    0.0000 H   0  0  0  0  0  0  0  0  0  0  0  0
    7.5267   -0.8201    0.0000 H   0  0  0  0  0  0  0  0  0  0  0  0
    6.7664    1.0065    0.0000 H   0  0  0  0  0  0  0  0  0  0  0  0
    6.1731    0.4742    0.0000 H   0  0  0  0  0  0  0  0  0  0  0  0
    7.7860   -0.0266    0.0000 H   0  0  0  0  0  0  0  0  0  0  0  0
    8.3793    0.5057    0.0000 H   0  0  0  0  0  0  0  0  0  0  0  0
    8.0556    2.1632    0.0000 H   0  0  0  0  0  0  0  0  0  0  0  0
    7.4623    1.6309    0.0000 H   0  0  0  0  0  0  0  0  0  0  0  0
    3.7320   -2.6000    0.0000 H   0  0  0  0  0  0  0  0  0  0  0  0
    9.0752    1.1301    0.0000 H   0  0  0  0  0  0  0  0  0  0  0  0
    9.6684    1.6624    0.0000 H   0  0  0  0  0  0  0  0  0  0  0  0
    3.7320   -5.8400    0.0000 H   0  0  0  0  0  0  0  0  0  0  0  0
    2.3291   -3.4100    0.0000 H   0  0  0  0  0  0  0  0  0  0  0  0
   10.2404    4.3185    0.0000 H   0  0  0  0  0  0  0  0  0  0  0  0
   10.8190    1.5729    0.0000 H   0  0  0  0  0  0  0  0  0  0  0  0
   11.8256    4.6526    0.0000 H   0  0  0  0  0  0  0  0  0  0  0  0
   12.4042    1.9070    0.0000 H   0  0  0  0  0  0  0  0  0  0  0  0
   13.6934    3.0637    0.0000 H   0  0  0  0  0  0  0  0  0  0  0  0
   14.6963    4.0752    0.0000 H   0  0  0  0  0  0  0  0  0  0  0  0
   15.1751    4.8098    0.0000 H   0  0  0  0  0  0  0  0  0  0  0  0
   14.4406    5.2886    0.0000 H   0  0  0  0  0  0  0  0  0  0  0  0
  1 23  1  0  0  0  0
  2  6  1  0  0  0  0
  2 18  1  0  0  0  0
  3 20  1  0  0  0  0
  3 24  1  0  0  0  0
  4 30  2  0  0  0  0
  5 11  1  0  0  0  0
  5 12  1  0  0  0  0
  5 13  1  0  0  0  0
  6 14  2  0  0  0  0
  7 29  1  0  0  0  0
  7 30  1  0  0  0  0
  7 56  1  0  0  0  0
  8  9  1  0  0  0  0
  8 10  1  0  0  0  0
  8 14  1  0  0  0  0
  8 32  1  0  0  0  0
  9 11  1  0  0  0  0
  9 33  1  0  0  0  0
  9 34  1  0  0  0  0
 10 12  1  0  0  0  0
 10 35  1  0  0  0  0
 10 36  1  0  0  0  0
 11 37  1  0  0  0  0
 11 38  1  0  0  0  0
 12 39  1  0  0  0  0
 12 40  1  0  0  0  0
 13 15  1  0  0  0  0
 13 41  1  0  0  0  0
 13 42  1  0  0  0  0
 14 16  1  0  0  0  0
 15 17  1  0  0  0  0
 15 43  1  0  0  0  0
 15 44  1  0  0  0  0
 16 18  2  0  0  0  0
 16 19  1  0  0  0  0
 17 20  1  0  0  0  0
 17 45  1  0  0  0  0
 17 46  1  0  0  0  0
 18 21  1  0  0  0  0
 19 22  2  0  0  0  0
 19 47  1  0  0  0  0
 20 48  1  0  0  0  0
 20 49  1  0  0  0  0
 21 23  2  0  0  0  0
 21 50  1  0  0  0  0
 22 23  1  0  0  0  0
 22 51  1  0  0  0  0
 24 25  2  0  0  0  0
 24 26  1  0  0  0  0
 25 27  1  0  0  0  0
 25 52  1  0  0  0  0
 26 28  2  0  0  0  0
 26 53  1  0  0  0  0
 27 29  2  0  0  0  0
 27 54  1  0  0  0  0
 28 29  1  0  0  0  0
 28 55  1  0  0  0  0
 30 31  1  0  0  0  0
 31 57  1  0  0  0  0
 31 58  1  0  0  0  0
 31 59  1  0  0  0  0
M  END
> <PUBCHEM_COMPOUND_CID>
162672516

> <PUBCHEM_COMPOUND_CANONICALIZED>
1

> <PUBCHEM_CACTVS_COMPLEXITY>
564

> <PUBCHEM_CACTVS_HBOND_ACCEPTOR>
6

> <PUBCHEM_CACTVS_HBOND_DONOR>
1

> <PUBCHEM_CACTVS_ROTATABLE_BOND>
8

> <PUBCHEM_CACTVS_SUBSKEYS>
AAADceB7MQAAAAAAAAAAAAAAAAAAAWAAAAA8YIAAAAAAAFgB9AAAHwAUAAAADQzhng4yxtPQBACpA6VyUgCCCAAlIgAomCE+bNoMJrrEtZuGOajm1BnI6ce4yOCOAEAAAAAIAAAAgAAAABAAAAAAAAAAAA==

> <PUBCHEM_IUPAC_OPENEYE_NAME>
N-[4-[4-[4-(6-fluoro-1,2-benzoxazol-3-yl)-1-piperidyl]butoxy]phenyl]acetamide

> <PUBCHEM_IUPAC_CAS_NAME>
N-[4-[4-[4-(6-fluoro-1,2-benzoxazol-3-yl)-1-piperidinyl]butoxy]phenyl]acetamide

> <PUBCHEM_IUPAC_NAME_MARKUP>
<I>N</I>-[4-[4-[4-(6-fluoro-1,2-benzoxazol-3-yl)piperidin-1-yl]butoxy]phenyl]acetamide

> <PUBCHEM_IUPAC_NAME>
N-[4-[4-[4-(6-fluoro-1,2-benzoxazol-3-yl)piperidin-1-yl]butoxy]phenyl]acetamide

> <PUBCHEM_IUPAC_SYSTEMATIC_NAME>
N-[4-[4-[4-(6-fluoranyl-1,2-benzoxazol-3-yl)piperidin-1-yl]butoxy]phenyl]ethanamide

> <PUBCHEM_IUPAC_TRADITIONAL_NAME>
N-[4-[4-[4-(6-fluoroindoxazen-3-yl)piperidino]butoxy]phenyl]acetamide

> <PUBCHEM_IUPAC_INCHI>
InChI=1S/C24H28FN3O3/c1-17(29)26-20-5-7-21(8-6-20)30-15-3-2-12-28-13-10-18(11-14-28)24-22-9-4-19(25)16-23(22)31-27-24/h4-9,16,18H,2-3,10-15H2,1H3,(H,26,29)

> <PUBCHEM_IUPAC_INCHIKEY>
TZFKQPVOFBQHAZ-UHFFFAOYSA-N

> <PUBCHEM_XLOGP3_AA>
4

> <PUBCHEM_EXACT_MASS>
425.21146993

> <PUBCHEM_MOLECULAR_FORMULA>
C24H28FN3O3

> <PUBCHEM_MOLECULAR_WEIGHT>
425.5

> <PUBCHEM_OPENEYE_CAN_SMILES>
CC(=O)NC1=CC=C(C=C1)OCCCCN2CCC(CC2)C3=NOC4=C3C=CC(=C4)F

> <PUBCHEM_OPENEYE_ISO_SMILES>
CC(=O)NC1=CC=C(C=C1)OCCCCN2CCC(CC2)C3=NOC4=C3C=CC(=C4)F

> <PUBCHEM_CACTVS_TPSA>
67.6

> <PUBCHEM_MONOISOTOPIC_WEIGHT>
425.21146993

> <PUBCHEM_TOTAL_CHARGE>
0

> <PUBCHEM_HEAVY_ATOM_COUNT>
31

> <PUBCHEM_ATOM_DEF_STEREO_COUNT>
0

> <PUBCHEM_ATOM_UDEF_STEREO_COUNT>
0

> <PUBCHEM_BOND_DEF_STEREO_COUNT>
0

> <PUBCHEM_BOND_UDEF_STEREO_COUNT>
0

> <PUBCHEM_ISOTOPIC_ATOM_COUNT>
0

> <PUBCHEM_COMPONENT_COUNT>
1

> <PUBCHEM_CACTVS_TAUTO_COUNT>
-1

> <PUBCHEM_COORDINATE_TYPE>
1
5
255

> <PUBCHEM_BONDANNOTATIONS>
14  16  8
16  18  8
16  19  8
18  21  8
19  22  8
2  18  8
2  6  8
21  23  8
22  23  8
24  25  8
24  26  8
25  27  8
26  28  8
27  29  8
28  29  8
6  14  8

$$$$
