45259644
  -OEChem-09292322152D

 57 59  0     0  0  0  0  0  0999 V2000
    9.8535    6.8134    0.0000 Cl  0  0  0  0  0  0  0  0  0  0  0  0
    5.6458   12.9189    0.0000 S   0  0  0  0  0  0  0  0  0  0  0  0
    1.4030    2.6200    0.0000 O   0  0  0  0  0  0  0  0  0  0  0  0
    4.0580   10.2078    0.0000 O   0  0  0  0  0  0  0  0  0  0  0  0
    3.1350    5.6200    0.0000 N   0  0  0  0  0  0  0  0  0  0  0  0
    3.1350    3.6200    0.0000 N   0  0  0  0  0  0  0  0  0  0  0  0
    4.3671   11.1588    0.0000 N   0  0  0  0  0  0  0  0  0  0  0  0
    4.0010    5.1200    0.0000 C   0  0  0  0  0  0  0  0  0  0  0  0
    2.2690    5.1200    0.0000 C   0  0  0  0  0  0  0  0  0  0  0  0
    4.0010    4.1200    0.0000 C   0  0  0  0  0  0  0  0  0  0  0  0
    2.2690    4.1200    0.0000 C   0  0  0  0  0  0  0  0  0  0  0  0
    3.1350    6.6200    0.0000 C   0  0  0  0  0  0  0  0  0  0  0  0
    4.0010    7.1200    0.0000 C   0  0  0  0  0  0  0  0  0  0  0  0
    3.1350    2.6200    0.0000 C   0  0  0  0  0  0  0  0  0  0  0  0
    4.0010    8.1200    0.0000 C   0  0  0  0  0  0  0  0  0  0  0  0
    4.8671    8.6200    0.0000 C   0  0  0  0  0  0  0  0  0  0  0  0
    2.2690    2.1200    0.0000 C   0  0  0  0  0  0  0  0  0  0  0  0
    4.0010    2.1200    0.0000 C   0  0  0  0  0  0  0  0  0  0  0  0
    4.8671    9.6200    0.0000 C   0  0  0  0  0  0  0  0  0  0  0  0
    2.2690    1.1200    0.0000 C   0  0  0  0  0  0  0  0  0  0  0  0
    4.0010    1.1200    0.0000 C   0  0  0  0  0  0  0  0  0  0  0  0
    3.1350    0.6200    0.0000 C   0  0  0  0  0  0  0  0  0  0  0  0
    5.6761   10.2078    0.0000 C   0  0  0  0  0  0  0  0  0  0  0  0
    5.3671   11.1588    0.0000 C   0  0  0  0  0  0  0  0  0  0  0  0
    0.5369    2.1200    0.0000 C   0  0  0  0  0  0  0  0  0  0  0  0
    5.9549   11.9679    0.0000 C   0  0  0  0  0  0  0  0  0  0  0  0
    6.9548   11.9679    0.0000 C   0  0  0  0  0  0  0  0  0  0  0  0
    7.2639   12.9189    0.0000 C   0  0  0  0  0  0  0  0  0  0  0  0
    6.4549   13.5067    0.0000 C   0  0  0  0  0  0  0  0  0  0  0  0
    4.6116    5.0123    0.0000 H   0  0  0  0  0  0  0  0  0  0  0  0
    4.2131    5.7026    0.0000 H   0  0  0  0  0  0  0  0  0  0  0  0
    2.0569    5.7026    0.0000 H   0  0  0  0  0  0  0  0  0  0  0  0
    1.6584    5.0123    0.0000 H   0  0  0  0  0  0  0  0  0  0  0  0
    4.2131    3.5374    0.0000 H   0  0  0  0  0  0  0  0  0  0  0  0
    4.6116    4.2277    0.0000 H   0  0  0  0  0  0  0  0  0  0  0  0
    1.6584    4.2277    0.0000 H   0  0  0  0  0  0  0  0  0  0  0  0
    2.0569    3.5374    0.0000 H   0  0  0  0  0  0  0  0  0  0  0  0
    2.9230    7.2026    0.0000 H   0  0  0  0  0  0  0  0  0  0  0  0
    2.5244    6.5123    0.0000 H   0  0  0  0  0  0  0  0  0  0  0  0
    4.2131    6.5374    0.0000 H   0  0  0  0  0  0  0  0  0  0  0  0
    4.6116    7.2277    0.0000 H   0  0  0  0  0  0  0  0  0  0  0  0
    3.7890    8.7026    0.0000 H   0  0  0  0  0  0  0  0  0  0  0  0
    3.3905    8.0123    0.0000 H   0  0  0  0  0  0  0  0  0  0  0  0
    5.0791    8.0374    0.0000 H   0  0  0  0  0  0  0  0  0  0  0  0
    5.4776    8.7277    0.0000 H   0  0  0  0  0  0  0  0  0  0  0  0
    4.5380    2.4300    0.0000 H   0  0  0  0  0  0  0  0  0  0  0  0
    1.7320    0.8100    0.0000 H   0  0  0  0  0  0  0  0  0  0  0  0
    4.5380    0.8100    0.0000 H   0  0  0  0  0  0  0  0  0  0  0  0
    3.1350    0.0000    0.0000 H   0  0  0  0  0  0  0  0  0  0  0  0
    6.2657   10.0162    0.0000 H   0  0  0  0  0  0  0  0  0  0  0  0
    0.2269    2.6569    0.0000 H   0  0  0  0  0  0  0  0  0  0  0  0
    0.0000    1.8100    0.0000 H   0  0  0  0  0  0  0  0  0  0  0  0
    0.8469    1.5831    0.0000 H   0  0  0  0  0  0  0  0  0  0  0  0
    7.3193   11.4663    0.0000 H   0  0  0  0  0  0  0  0  0  0  0  0
    7.8535   13.1105    0.0000 H   0  0  0  0  0  0  0  0  0  0  0  0
    6.4549   14.1267    0.0000 H   0  0  0  0  0  0  0  0  0  0  0  0
   10.8535    6.8134    0.0000 H   0  0  0  0  0  0  0  0  0  0  0  0
  1 57  1  0  0  0  0
  2 26  1  0  0  0  0
  2 29  1  0  0  0  0
  3 17  1  0  0  0  0
  3 25  1  0  0  0  0
  4  7  1  0  0  0  0
  4 19  1  0  0  0  0
  5  8  1  0  0  0  0
  5  9  1  0  0  0  0
  5 12  1  0  0  0  0
  6 10  1  0  0  0  0
  6 11  1  0  0  0  0
  6 14  1  0  0  0  0
  7 24  2  0  0  0  0
  8 10  1  0  0  0  0
  8 30  1  0  0  0  0
  8 31  1  0  0  0  0
  9 11  1  0  0  0  0
  9 32  1  0  0  0  0
  9 33  1  0  0  0  0
 10 34  1  0  0  0  0
 10 35  1  0  0  0  0
 11 36  1  0  0  0  0
 11 37  1  0  0  0  0
 12 13  1  0  0  0  0
 12 38  1  0  0  0  0
 12 39  1  0  0  0  0
 13 15  1  0  0  0  0
 13 40  1  0  0  0  0
 13 41  1  0  0  0  0
 14 17  1  0  0  0  0
 14 18  2  0  0  0  0
 15 16  1  0  0  0  0
 15 42  1  0  0  0  0
 15 43  1  0  0  0  0
 16 19  1  0  0  0  0
 16 44  1  0  0  0  0
 16 45  1  0  0  0  0
 17 20  2  0  0  0  0
 18 21  1  0  0  0  0
 18 46  1  0  0  0  0
 19 23  2  0  0  0  0
 20 22  1  0  0  0  0
 20 47  1  0  0  0  0
 21 22  2  0  0  0  0
 21 48  1  0  0  0  0
 22 49  1  0  0  0  0
 23 24  1  0  0  0  0
 23 50  1  0  0  0  0
 24 26  1  0  0  0  0
 25 51  1  0  0  0  0
 25 52  1  0  0  0  0
 25 53  1  0  0  0  0
 26 27  2  0  0  0  0
 27 28  1  0  0  0  0
 27 54  1  0  0  0  0
 28 29  2  0  0  0  0
 28 55  1  0  0  0  0
 29 56  1  0  0  0  0
M  END
> <PUBCHEM_COMPOUND_CID>
45259644

> <PUBCHEM_COMPOUND_CANONICALIZED>
1

> <PUBCHEM_CACTVS_COMPLEXITY>
461

> <PUBCHEM_CACTVS_HBOND_ACCEPTOR>
6

> <PUBCHEM_CACTVS_HBOND_DONOR>
1

> <PUBCHEM_CACTVS_ROTATABLE_BOND>
8

> <PUBCHEM_CACTVS_SUBSKEYS>
AAADceB7MABEAAAAAAAAAAAAAAAAAWJAAAA8QAAAAAAAAAAB8AAAHgQEAAAACAzF1gayx5MQBAitAaRyQgCDCIAlKhBomDk/bNoOZrrksZuVMahmwBn46UeY2aKAAAAAAAAAEAAAAAAAAAAgAAAAAAAAAA==

> <PUBCHEM_IUPAC_OPENEYE_NAME>
5-[4-[4-(2-methoxyphenyl)piperazin-1-yl]butyl]-3-(2-thienyl)isoxazole;hydrochloride

> <PUBCHEM_IUPAC_CAS_NAME>
5-[4-[4-(2-methoxyphenyl)-1-piperazinyl]butyl]-3-thiophen-2-ylisoxazole;hydrochloride

> <PUBCHEM_IUPAC_NAME_MARKUP>
5-[4-[4-(2-methoxyphenyl)piperazin-1-yl]butyl]-3-thiophen-2-yl-1,2-oxazole;hydrochloride

> <PUBCHEM_IUPAC_NAME>
5-[4-[4-(2-methoxyphenyl)piperazin-1-yl]butyl]-3-thiophen-2-yl-1,2-oxazole;hydrochloride

> <PUBCHEM_IUPAC_SYSTEMATIC_NAME>
5-[4-[4-(2-methoxyphenyl)piperazin-1-yl]butyl]-3-thiophen-2-yl-1,2-oxazole;hydrochloride

> <PUBCHEM_IUPAC_TRADITIONAL_NAME>
5-[4-[4-(2-methoxyphenyl)piperazino]butyl]-3-(2-thienyl)isoxazole;hydrochloride

> <PUBCHEM_IUPAC_INCHI>
InChI=1S/C22H27N3O2S.ClH/c1-26-21-9-3-2-8-20(21)25-14-12-24(13-15-25)11-5-4-7-18-17-19(23-27-18)22-10-6-16-28-22;/h2-3,6,8-10,16-17H,4-5,7,11-15H2,1H3;1H

> <PUBCHEM_IUPAC_INCHIKEY>
UYGXAJSFPKGBBQ-UHFFFAOYSA-N

> <PUBCHEM_EXACT_MASS>
433.1590760

> <PUBCHEM_MOLECULAR_FORMULA>
C22H28ClN3O2S

> <PUBCHEM_MOLECULAR_WEIGHT>
434.0

> <PUBCHEM_OPENEYE_CAN_SMILES>
COC1=CC=CC=C1N2CCN(CC2)CCCCC3=CC(=NO3)C4=CC=CS4.Cl

> <PUBCHEM_OPENEYE_ISO_SMILES>
COC1=CC=CC=C1N2CCN(CC2)CCCCC3=CC(=NO3)C4=CC=CS4.Cl

> <PUBCHEM_CACTVS_TPSA>
70

> <PUBCHEM_MONOISOTOPIC_WEIGHT>
433.1590760

> <PUBCHEM_TOTAL_CHARGE>
0

> <PUBCHEM_HEAVY_ATOM_COUNT>
29

> <PUBCHEM_ATOM_DEF_STEREO_COUNT>
0

> <PUBCHEM_ATOM_UDEF_STEREO_COUNT>
0

> <PUBCHEM_BOND_DEF_STEREO_COUNT>
0

> <PUBCHEM_BOND_UDEF_STEREO_COUNT>
0

> <PUBCHEM_ISOTOPIC_ATOM_COUNT>
0

> <PUBCHEM_COMPONENT_COUNT>
2

> <PUBCHEM_CACTVS_TAUTO_COUNT>
-1

> <PUBCHEM_COORDINATE_TYPE>
1
5
255

> <PUBCHEM_BONDANNOTATIONS>
14  17  8
14  18  8
17  20  8
18  21  8
19  23  8
2  26  8
2  29  8
20  22  8
21  22  8
23  24  8
26  27  8
27  28  8
28  29  8
4  19  8
4  7  8
7  24  8

$$$$
