52946023
  -OEChem-09292322312D

 67 71  0     0  0  0  0  0  0999 V2000
    9.3850   -6.0206    0.0000 F   0  0  0  0  0  0  0  0  0  0  0  0
   12.4338    4.0679    0.0000 O   0  0  0  0  0  0  0  0  0  0  0  0
    2.8660    0.5862    0.0000 O   0  0  0  0  0  0  0  0  0  0  0  0
    9.0744    2.2425    0.0000 N   0  0  0  0  0  0  0  0  0  0  0  0
    8.1424   -2.2186    0.0000 N   0  0  0  0  0  0  0  0  0  0  0  0
   10.6742    4.3497    0.0000 N   0  0  0  0  0  0  0  0  0  0  0  0
   11.6275    5.6571    0.0000 N   0  0  0  0  0  0  0  0  0  0  0  0
    3.7320   -0.9138    0.0000 N   0  0  0  0  0  0  0  0  0  0  0  0
    8.4530    0.3414    0.0000 C   0  0  0  0  0  0  0  0  0  0  0  0
    7.7852    1.0857    0.0000 C   0  0  0  0  0  0  0  0  0  0  0  0
    9.4315    0.5476    0.0000 C   0  0  0  0  0  0  0  0  0  0  0  0
    8.0958    2.0362    0.0000 C   0  0  0  0  0  0  0  0  0  0  0  0
    9.7422    1.4982    0.0000 C   0  0  0  0  0  0  0  0  0  0  0  0
    8.1424   -0.6091    0.0000 C   0  0  0  0  0  0  0  0  0  0  0  0
    9.3850    3.1930    0.0000 C   0  0  0  0  0  0  0  0  0  0  0  0
    7.1962   -0.9138    0.0000 C   0  0  0  0  0  0  0  0  0  0  0  0
    8.7260   -1.4138    0.0000 C   0  0  0  0  0  0  0  0  0  0  0  0
   10.3635    3.3992    0.0000 C   0  0  0  0  0  0  0  0  0  0  0  0
    7.1962   -1.9138    0.0000 C   0  0  0  0  0  0  0  0  0  0  0  0
    6.3301   -0.4138    0.0000 C   0  0  0  0  0  0  0  0  0  0  0  0
   10.0878    5.1598    0.0000 C   0  0  0  0  0  0  0  0  0  0  0  0
    6.3301   -2.4138    0.0000 C   0  0  0  0  0  0  0  0  0  0  0  0
    5.4641   -0.9138    0.0000 C   0  0  0  0  0  0  0  0  0  0  0  0
    8.4530   -3.1691    0.0000 C   0  0  0  0  0  0  0  0  0  0  0  0
   10.6770    5.9678    0.0000 C   0  0  0  0  0  0  0  0  0  0  0  0
   11.6258    4.6571    0.0000 C   0  0  0  0  0  0  0  0  0  0  0  0
    5.4641   -1.9138    0.0000 C   0  0  0  0  0  0  0  0  0  0  0  0
    4.5981   -0.4138    0.0000 C   0  0  0  0  0  0  0  0  0  0  0  0
    9.4315   -3.3753    0.0000 C   0  0  0  0  0  0  0  0  0  0  0  0
    7.7852   -3.9134    0.0000 C   0  0  0  0  0  0  0  0  0  0  0  0
    9.7422   -4.3258    0.0000 C   0  0  0  0  0  0  0  0  0  0  0  0
    8.0958   -4.8639    0.0000 C   0  0  0  0  0  0  0  0  0  0  0  0
    9.0744   -5.0701    0.0000 C   0  0  0  0  0  0  0  0  0  0  0  0
    2.8660   -0.4138    0.0000 C   0  0  0  0  0  0  0  0  0  0  0  0
    2.0000   -0.9138    0.0000 C   0  0  0  0  0  0  0  0  0  0  0  0
    7.8464    0.2136    0.0000 H   0  0  0  0  0  0  0  0  0  0  0  0
    7.2383    1.3777    0.0000 H   0  0  0  0  0  0  0  0  0  0  0  0
    7.4026    0.5978    0.0000 H   0  0  0  0  0  0  0  0  0  0  0  0
    9.4521   -0.0720    0.0000 H   0  0  0  0  0  0  0  0  0  0  0  0
   10.0454    0.4603    0.0000 H   0  0  0  0  0  0  0  0  0  0  0  0
    8.0753    2.6559    0.0000 H   0  0  0  0  0  0  0  0  0  0  0  0
    7.4820    2.1236    0.0000 H   0  0  0  0  0  0  0  0  0  0  0  0
   10.2891    1.2061    0.0000 H   0  0  0  0  0  0  0  0  0  0  0  0
   10.1248    1.9861    0.0000 H   0  0  0  0  0  0  0  0  0  0  0  0
    9.3645    3.8126    0.0000 H   0  0  0  0  0  0  0  0  0  0  0  0
    8.7712    3.2803    0.0000 H   0  0  0  0  0  0  0  0  0  0  0  0
    9.3460   -1.4138    0.0000 H   0  0  0  0  0  0  0  0  0  0  0  0
   10.3841    2.7795    0.0000 H   0  0  0  0  0  0  0  0  0  0  0  0
   10.9773    3.3118    0.0000 H   0  0  0  0  0  0  0  0  0  0  0  0
    6.3301    0.2062    0.0000 H   0  0  0  0  0  0  0  0  0  0  0  0
    9.6278    5.5754    0.0000 H   0  0  0  0  0  0  0  0  0  0  0  0
    9.6263    4.7457    0.0000 H   0  0  0  0  0  0  0  0  0  0  0  0
    6.3301   -3.0338    0.0000 H   0  0  0  0  0  0  0  0  0  0  0  0
   10.9301    6.5337    0.0000 H   0  0  0  0  0  0  0  0  0  0  0  0
   10.1406    6.2787    0.0000 H   0  0  0  0  0  0  0  0  0  0  0  0
    4.9272   -2.2238    0.0000 H   0  0  0  0  0  0  0  0  0  0  0  0
   12.1297    6.0206    0.0000 H   0  0  0  0  0  0  0  0  0  0  0  0
    4.9966    0.0611    0.0000 H   0  0  0  0  0  0  0  0  0  0  0  0
    4.1996    0.0611    0.0000 H   0  0  0  0  0  0  0  0  0  0  0  0
    9.8456   -2.9138    0.0000 H   0  0  0  0  0  0  0  0  0  0  0  0
    7.1785   -3.7855    0.0000 H   0  0  0  0  0  0  0  0  0  0  0  0
    3.7320   -1.5338    0.0000 H   0  0  0  0  0  0  0  0  0  0  0  0
   10.3489   -4.4537    0.0000 H   0  0  0  0  0  0  0  0  0  0  0  0
    7.6818   -5.3254    0.0000 H   0  0  0  0  0  0  0  0  0  0  0  0
    1.6900   -0.3769    0.0000 H   0  0  0  0  0  0  0  0  0  0  0  0
    1.4631   -1.2238    0.0000 H   0  0  0  0  0  0  0  0  0  0  0  0
    2.3100   -1.4508    0.0000 H   0  0  0  0  0  0  0  0  0  0  0  0
  1 33  1  0  0  0  0
  2 26  2  0  0  0  0
  3 34  2  0  0  0  0
  4 12  1  0  0  0  0
  4 13  1  0  0  0  0
  4 15  1  0  0  0  0
  5 17  1  0  0  0  0
  5 19  1  0  0  0  0
  5 24  1  0  0  0  0
  6 18  1  0  0  0  0
  6 21  1  0  0  0  0
  6 26  1  0  0  0  0
  7 25  1  0  0  0  0
  7 26  1  0  0  0  0
  7 57  1  0  0  0  0
  8 28  1  0  0  0  0
  8 34  1  0  0  0  0
  8 62  1  0  0  0  0
  9 10  1  0  0  0  0
  9 11  1  0  0  0  0
  9 14  1  0  0  0  0
  9 36  1  0  0  0  0
 10 12  1  0  0  0  0
 10 37  1  0  0  0  0
 10 38  1  0  0  0  0
 11 13  1  0  0  0  0
 11 39  1  0  0  0  0
 11 40  1  0  0  0  0
 12 41  1  0  0  0  0
 12 42  1  0  0  0  0
 13 43  1  0  0  0  0
 13 44  1  0  0  0  0
 14 16  1  0  0  0  0
 14 17  2  0  0  0  0
 15 18  1  0  0  0  0
 15 45  1  0  0  0  0
 15 46  1  0  0  0  0
 16 19  2  0  0  0  0
 16 20  1  0  0  0  0
 17 47  1  0  0  0  0
 18 48  1  0  0  0  0
 18 49  1  0  0  0  0
 19 22  1  0  0  0  0
 20 23  2  0  0  0  0
 20 50  1  0  0  0  0
 21 25  1  0  0  0  0
 21 51  1  0  0  0  0
 21 52  1  0  0  0  0
 22 27  2  0  0  0  0
 22 53  1  0  0  0  0
 23 27  1  0  0  0  0
 23 28  1  0  0  0  0
 24 29  2  0  0  0  0
 24 30  1  0  0  0  0
 25 54  1  0  0  0  0
 25 55  1  0  0  0  0
 27 56  1  0  0  0  0
 28 58  1  0  0  0  0
 28 59  1  0  0  0  0
 29 31  1  0  0  0  0
 29 60  1  0  0  0  0
 30 32  2  0  0  0  0
 30 61  1  0  0  0  0
 31 33  2  0  0  0  0
 31 63  1  0  0  0  0
 32 33  1  0  0  0  0
 32 64  1  0  0  0  0
 34 35  1  0  0  0  0
 35 65  1  0  0  0  0
 35 66  1  0  0  0  0
 35 67  1  0  0  0  0
M  END
> <PUBCHEM_COMPOUND_CID>
52946023

> <PUBCHEM_COMPOUND_CANONICALIZED>
1

> <PUBCHEM_CACTVS_COMPLEXITY>
737

> <PUBCHEM_CACTVS_HBOND_ACCEPTOR>
4

> <PUBCHEM_CACTVS_HBOND_DONOR>
2

> <PUBCHEM_CACTVS_ROTATABLE_BOND>
7

> <PUBCHEM_CACTVS_SUBSKEYS>
AAADcfB7sQAAAAAAAAAAAAAAAAAAAWLAAAA8YIAAAAAAAFgB9AAAHwAQAAAADQjBngw/wPPMEACoAzV3VACCgCAxAiAI2KA4ZJiIYOLAkZGUIAholgLIyAcQgMAOiAACAAACAAAQAAQAAAQAAAAAAAAAAA==

> <PUBCHEM_IUPAC_OPENEYE_NAME>
N-[[1-(4-fluorophenyl)-3-[1-[2-(2-oxoimidazolidin-1-yl)ethyl]-4-piperidyl]indol-5-yl]methyl]acetamide

> <PUBCHEM_IUPAC_CAS_NAME>
N-[[1-(4-fluorophenyl)-3-[1-[2-(2-oxo-1-imidazolidinyl)ethyl]-4-piperidinyl]-5-indolyl]methyl]acetamide

> <PUBCHEM_IUPAC_NAME_MARKUP>
<I>N</I>-[[1-(4-fluorophenyl)-3-[1-[2-(2-oxoimidazolidin-1-yl)ethyl]piperidin-4-yl]indol-5-yl]methyl]acetamide

> <PUBCHEM_IUPAC_NAME>
N-[[1-(4-fluorophenyl)-3-[1-[2-(2-oxoimidazolidin-1-yl)ethyl]piperidin-4-yl]indol-5-yl]methyl]acetamide

> <PUBCHEM_IUPAC_SYSTEMATIC_NAME>
N-[[1-(4-fluorophenyl)-3-[1-[2-(2-oxidanylideneimidazolidin-1-yl)ethyl]piperidin-4-yl]indol-5-yl]methyl]ethanamide

> <PUBCHEM_IUPAC_TRADITIONAL_NAME>
N-[[1-(4-fluorophenyl)-3-[1-[2-(2-ketoimidazolidin-1-yl)ethyl]-4-piperidyl]indol-5-yl]methyl]acetamide

> <PUBCHEM_IUPAC_INCHI>
InChI=1S/C27H32FN5O2/c1-19(34)30-17-20-2-7-26-24(16-20)25(18-33(26)23-5-3-22(28)4-6-23)21-8-11-31(12-9-21)14-15-32-13-10-29-27(32)35/h2-7,16,18,21H,8-15,17H2,1H3,(H,29,35)(H,30,34)

> <PUBCHEM_IUPAC_INCHIKEY>
KEEXCUUQRQNRNF-UHFFFAOYSA-N

> <PUBCHEM_XLOGP3_AA>
2.6

> <PUBCHEM_EXACT_MASS>
477.25400344

> <PUBCHEM_MOLECULAR_FORMULA>
C27H32FN5O2

> <PUBCHEM_MOLECULAR_WEIGHT>
477.6

> <PUBCHEM_OPENEYE_CAN_SMILES>
CC(=O)NCC1=CC2=C(C=C1)N(C=C2C3CCN(CC3)CCN4CCNC4=O)C5=CC=C(C=C5)F

> <PUBCHEM_OPENEYE_ISO_SMILES>
CC(=O)NCC1=CC2=C(C=C1)N(C=C2C3CCN(CC3)CCN4CCNC4=O)C5=CC=C(C=C5)F

> <PUBCHEM_CACTVS_TPSA>
69.6

> <PUBCHEM_MONOISOTOPIC_WEIGHT>
477.25400344

> <PUBCHEM_TOTAL_CHARGE>
0

> <PUBCHEM_HEAVY_ATOM_COUNT>
35

> <PUBCHEM_ATOM_DEF_STEREO_COUNT>
0

> <PUBCHEM_ATOM_UDEF_STEREO_COUNT>
0

> <PUBCHEM_BOND_DEF_STEREO_COUNT>
0

> <PUBCHEM_BOND_UDEF_STEREO_COUNT>
0

> <PUBCHEM_ISOTOPIC_ATOM_COUNT>
0

> <PUBCHEM_COMPONENT_COUNT>
1

> <PUBCHEM_CACTVS_TAUTO_COUNT>
-1

> <PUBCHEM_COORDINATE_TYPE>
1
5
255

> <PUBCHEM_BONDANNOTATIONS>
14  16  8
14  17  8
16  19  8
16  20  8
19  22  8
20  23  8
22  27  8
23  27  8
24  29  8
24  30  8
29  31  8
30  32  8
31  33  8
32  33  8
5  17  8
5  19  8

$$$$
