155539557
  -OEChem-09292322412D

 62 64  0     1  0  0  0  0  0999 V2000
   12.6064    6.7478    0.0000 Cl  0  0  0  0  0  0  0  0  0  0  0  0
    6.2331    8.9860    0.0000 S   0  0  0  0  0  0  0  0  0  0  0  0
    4.8671    0.6200    0.0000 F   0  0  0  0  0  0  0  0  0  0  0  0
    1.4030    2.6200    0.0000 O   0  0  0  0  0  0  0  0  0  0  0  0
    4.5010    5.9860    0.0000 N   0  0  3  0  0  0  0  0  0  0  0  0
    7.2036   10.4805    0.0000 N   0  0  0  0  0  0  0  0  0  0  0  0
    8.0127    9.0793    0.0000 N   0  0  0  0  0  0  0  0  0  0  0  0
    8.6818    9.8224    0.0000 N   0  0  0  0  0  0  0  0  0  0  0  0
    3.6350    4.4860    0.0000 C   0  0  3  0  0  0  0  0  0  0  0  0
    3.1350    3.6200    0.0000 C   0  0  3  0  0  0  0  0  0  0  0  0
    2.6350    4.4860    0.0000 C   0  0  0  0  0  0  0  0  0  0  0  0
    4.5010    4.9860    0.0000 C   0  0  0  0  0  0  0  0  0  0  0  0
    3.1350    2.6200    0.0000 C   0  0  0  0  0  0  0  0  0  0  0  0
    2.2690    2.1200    0.0000 C   0  0  0  0  0  0  0  0  0  0  0  0
    4.0010    2.1200    0.0000 C   0  0  0  0  0  0  0  0  0  0  0  0
    5.3671    6.4860    0.0000 C   0  0  0  0  0  0  0  0  0  0  0  0
    3.6350    6.4860    0.0000 C   0  0  0  0  0  0  0  0  0  0  0  0
    2.2690    1.1200    0.0000 C   0  0  0  0  0  0  0  0  0  0  0  0
    4.0010    1.1200    0.0000 C   0  0  0  0  0  0  0  0  0  0  0  0
    5.3671    7.4860    0.0000 C   0  0  0  0  0  0  0  0  0  0  0  0
    3.1350    0.6200    0.0000 C   0  0  0  0  0  0  0  0  0  0  0  0
    6.2331    7.9860    0.0000 C   0  0  0  0  0  0  0  0  0  0  0  0
    0.5369    2.1200    0.0000 C   0  0  0  0  0  0  0  0  0  0  0  0
    7.0991    9.4860    0.0000 C   0  0  0  0  0  0  0  0  0  0  0  0
    8.1818   10.6885    0.0000 C   0  0  0  0  0  0  0  0  0  0  0  0
    6.4605   11.1497    0.0000 C   0  0  0  0  0  0  0  0  0  0  0  0
    8.5885   11.6020    0.0000 C   0  0  0  0  0  0  0  0  0  0  0  0
    8.0007   12.4110    0.0000 C   0  0  0  0  0  0  0  0  0  0  0  0
    9.5830   11.7065    0.0000 C   0  0  0  0  0  0  0  0  0  0  0  0
    8.4075   13.3246    0.0000 C   0  0  0  0  0  0  0  0  0  0  0  0
    9.9898   12.6201    0.0000 C   0  0  0  0  0  0  0  0  0  0  0  0
    9.4020   13.4291    0.0000 C   0  0  0  0  0  0  0  0  0  0  0  0
    3.4745    5.0849    0.0000 H   0  0  0  0  0  0  0  0  0  0  0  0
    3.7339    3.4595    0.0000 H   0  0  0  0  0  0  0  0  0  0  0  0
    2.5274    5.0966    0.0000 H   0  0  0  0  0  0  0  0  0  0  0  0
    2.0524    4.2740    0.0000 H   0  0  0  0  0  0  0  0  0  0  0  0
    4.7131    4.4034    0.0000 H   0  0  0  0  0  0  0  0  0  0  0  0
    5.1116    5.0937    0.0000 H   0  0  0  0  0  0  0  0  0  0  0  0
    4.5380    2.4300    0.0000 H   0  0  0  0  0  0  0  0  0  0  0  0
    5.5791    5.9034    0.0000 H   0  0  0  0  0  0  0  0  0  0  0  0
    5.9776    6.5937    0.0000 H   0  0  0  0  0  0  0  0  0  0  0  0
    3.9450    7.0230    0.0000 H   0  0  0  0  0  0  0  0  0  0  0  0
    3.0981    6.7960    0.0000 H   0  0  0  0  0  0  0  0  0  0  0  0
    3.3250    5.9491    0.0000 H   0  0  0  0  0  0  0  0  0  0  0  0
    1.7320    0.8100    0.0000 H   0  0  0  0  0  0  0  0  0  0  0  0
    5.1550    8.0686    0.0000 H   0  0  0  0  0  0  0  0  0  0  0  0
    4.7565    7.3784    0.0000 H   0  0  0  0  0  0  0  0  0  0  0  0
    3.1350    0.0000    0.0000 H   0  0  0  0  0  0  0  0  0  0  0  0
    6.4451    7.4034    0.0000 H   0  0  0  0  0  0  0  0  0  0  0  0
    6.8437    8.0937    0.0000 H   0  0  0  0  0  0  0  0  0  0  0  0
    0.2269    2.6569    0.0000 H   0  0  0  0  0  0  0  0  0  0  0  0
    0.0000    1.8100    0.0000 H   0  0  0  0  0  0  0  0  0  0  0  0
    0.8469    1.5831    0.0000 H   0  0  0  0  0  0  0  0  0  0  0  0
    6.8754   11.6104    0.0000 H   0  0  0  0  0  0  0  0  0  0  0  0
    5.9998   11.5645    0.0000 H   0  0  0  0  0  0  0  0  0  0  0  0
    6.0456   10.6889    0.0000 H   0  0  0  0  0  0  0  0  0  0  0  0
    7.3841   12.3462    0.0000 H   0  0  0  0  0  0  0  0  0  0  0  0
    9.9475   11.2049    0.0000 H   0  0  0  0  0  0  0  0  0  0  0  0
    8.0430   13.8262    0.0000 H   0  0  0  0  0  0  0  0  0  0  0  0
   10.6064   12.6849    0.0000 H   0  0  0  0  0  0  0  0  0  0  0  0
    9.6542   13.9955    0.0000 H   0  0  0  0  0  0  0  0  0  0  0  0
   13.6064    6.7478    0.0000 H   0  0  0  0  0  0  0  0  0  0  0  0
  1 62  1  0  0  0  0
  2 22  1  0  0  0  0
  2 24  1  0  0  0  0
  3 19  1  0  0  0  0
  4 14  1  0  0  0  0
  4 23  1  0  0  0  0
  5 12  1  0  0  0  0
  5 16  1  0  0  0  0
  5 17  1  0  0  0  0
  6 24  1  0  0  0  0
  6 25  1  0  0  0  0
  6 26  1  0  0  0  0
  7  8  1  0  0  0  0
  7 24  2  0  0  0  0
  8 25  2  0  0  0  0
  9 10  1  0  0  0  0
  9 11  1  0  0  0  0
  9 12  1  0  0  0  0
  9 33  1  0  0  0  0
 10 11  1  0  0  0  0
 10 13  1  0  0  0  0
 10 34  1  0  0  0  0
 11 35  1  0  0  0  0
 11 36  1  0  0  0  0
 12 37  1  0  0  0  0
 12 38  1  0  0  0  0
 13 14  2  0  0  0  0
 13 15  1  0  0  0  0
 14 18  1  0  0  0  0
 15 19  2  0  0  0  0
 15 39  1  0  0  0  0
 16 20  1  0  0  0  0
 16 40  1  0  0  0  0
 16 41  1  0  0  0  0
 17 42  1  0  0  0  0
 17 43  1  0  0  0  0
 17 44  1  0  0  0  0
 18 21  2  0  0  0  0
 18 45  1  0  0  0  0
 19 21  1  0  0  0  0
 20 22  1  0  0  0  0
 20 46  1  0  0  0  0
 20 47  1  0  0  0  0
 21 48  1  0  0  0  0
 22 49  1  0  0  0  0
 22 50  1  0  0  0  0
 23 51  1  0  0  0  0
 23 52  1  0  0  0  0
 23 53  1  0  0  0  0
 25 27  1  0  0  0  0
 26 54  1  0  0  0  0
 26 55  1  0  0  0  0
 26 56  1  0  0  0  0
 27 28  2  0  0  0  0
 27 29  1  0  0  0  0
 28 30  1  0  0  0  0
 28 57  1  0  0  0  0
 29 31  2  0  0  0  0
 29 58  1  0  0  0  0
 30 32  2  0  0  0  0
 30 59  1  0  0  0  0
 31 32  1  0  0  0  0
 31 60  1  0  0  0  0
 32 61  1  0  0  0  0
M  END
> <PUBCHEM_COMPOUND_CID>
155539557

> <PUBCHEM_COMPOUND_CANONICALIZED>
1

> <PUBCHEM_CACTVS_COMPLEXITY>
552

> <PUBCHEM_CACTVS_HBOND_ACCEPTOR>
6

> <PUBCHEM_CACTVS_HBOND_DONOR>
1

> <PUBCHEM_CACTVS_ROTATABLE_BOND>
10

> <PUBCHEM_CACTVS_SUBSKEYS>
AAADceB7oQBEAAAAAAAAAAAAGAAAAWAAAAAwYAAAAAAAAAAB0AAAHwQIAAAADQTF2w6zFocMFAiiAiJiJACS2AtgILAdyCAuDJiMLqKkuRuEMChkyBOIqAeQ0OIOgAAAAAAIAAAAAAAAABAAAAAAAAAAAA==

> <PUBCHEM_IUPAC_OPENEYE_NAME>
N-[[2-(5-fluoro-2-methoxy-phenyl)cyclopropyl]methyl]-N-methyl-3-[(4-methyl-5-phenyl-1,2,4-triazol-3-yl)sulfanyl]propan-1-amine;hydrochloride

> <PUBCHEM_IUPAC_CAS_NAME>
N-[[2-(5-fluoro-2-methoxyphenyl)cyclopropyl]methyl]-N-methyl-3-[(4-methyl-5-phenyl-1,2,4-triazol-3-yl)thio]-1-propanamine;hydrochloride

> <PUBCHEM_IUPAC_NAME_MARKUP>
<I>N</I>-[[2-(5-fluoro-2-methoxyphenyl)cyclopropyl]methyl]-<I>N</I>-methyl-3-[(4-methyl-5-phenyl-1,2,4-triazol-3-yl)sulfanyl]propan-1-amine;hydrochloride

> <PUBCHEM_IUPAC_NAME>
N-[[2-(5-fluoro-2-methoxyphenyl)cyclopropyl]methyl]-N-methyl-3-[(4-methyl-5-phenyl-1,2,4-triazol-3-yl)sulfanyl]propan-1-amine;hydrochloride

> <PUBCHEM_IUPAC_SYSTEMATIC_NAME>
N-[[2-(5-fluoranyl-2-methoxy-phenyl)cyclopropyl]methyl]-N-methyl-3-[(4-methyl-5-phenyl-1,2,4-triazol-3-yl)sulfanyl]propan-1-amine;hydrochloride

> <PUBCHEM_IUPAC_TRADITIONAL_NAME>
[2-(5-fluoro-2-methoxy-phenyl)cyclopropyl]methyl-methyl-[3-[(4-methyl-5-phenyl-1,2,4-triazol-3-yl)thio]propyl]amine;hydrochloride

> <PUBCHEM_IUPAC_INCHI>
InChI=1S/C24H29FN4OS.ClH/c1-28(16-18-14-20(18)21-15-19(25)10-11-22(21)30-3)12-7-13-31-24-27-26-23(29(24)2)17-8-5-4-6-9-17;/h4-6,8-11,15,18,20H,7,12-14,16H2,1-3H3;1H

> <PUBCHEM_IUPAC_INCHIKEY>
WPBGQWOUJGQJTR-UHFFFAOYSA-N

> <PUBCHEM_EXACT_MASS>
476.1812886

> <PUBCHEM_MOLECULAR_FORMULA>
C24H30ClFN4OS

> <PUBCHEM_MOLECULAR_WEIGHT>
477.0

> <PUBCHEM_OPENEYE_CAN_SMILES>
CN1C(=NN=C1SCCCN(C)CC2CC2C3=C(C=CC(=C3)F)OC)C4=CC=CC=C4.Cl

> <PUBCHEM_OPENEYE_ISO_SMILES>
CN1C(=NN=C1SCCCN(C)CC2CC2C3=C(C=CC(=C3)F)OC)C4=CC=CC=C4.Cl

> <PUBCHEM_CACTVS_TPSA>
68.5

> <PUBCHEM_MONOISOTOPIC_WEIGHT>
476.1812886

> <PUBCHEM_TOTAL_CHARGE>
0

> <PUBCHEM_HEAVY_ATOM_COUNT>
32

> <PUBCHEM_ATOM_DEF_STEREO_COUNT>
0

> <PUBCHEM_ATOM_UDEF_STEREO_COUNT>
2

> <PUBCHEM_BOND_DEF_STEREO_COUNT>
0

> <PUBCHEM_BOND_UDEF_STEREO_COUNT>
0

> <PUBCHEM_ISOTOPIC_ATOM_COUNT>
0

> <PUBCHEM_COMPONENT_COUNT>
2

> <PUBCHEM_CACTVS_TAUTO_COUNT>
-1

> <PUBCHEM_COORDINATE_TYPE>
1
5
255

> <PUBCHEM_BONDANNOTATIONS>
10  13  3
13  14  8
13  15  8
14  18  8
15  19  8
18  21  8
19  21  8
27  28  8
27  29  8
28  30  8
29  31  8
30  32  8
31  32  8
6  24  8
6  25  8
7  24  8
7  8  8
8  25  8
9  12  3

$$$$
