145992523
  -OEChem-09292322062D

 55 59  0     0  0  0  0  0  0999 V2000
    2.8660    3.0640    0.0000 Cl  0  0  0  0  0  0  0  0  0  0  0  0
   14.0666   -2.4803    0.0000 S   0  0  0  0  0  0  0  0  0  0  0  0
    4.9889    2.8192    0.0000 O   0  0  0  0  0  0  0  0  0  0  0  0
    4.9889   -0.6913    0.0000 O   0  0  0  0  0  0  0  0  0  0  0  0
    9.2619   -0.6681    0.0000 N   0  0  0  0  0  0  0  0  0  0  0  0
   11.2619   -0.6681    0.0000 N   0  0  0  0  0  0  0  0  0  0  0  0
    5.2619    1.0640    0.0000 N   0  0  0  0  0  0  0  0  0  0  0  0
    9.7619   -1.5341    0.0000 C   0  0  0  0  0  0  0  0  0  0  0  0
    9.7619    0.1979    0.0000 C   0  0  0  0  0  0  0  0  0  0  0  0
   10.7619   -1.5341    0.0000 C   0  0  0  0  0  0  0  0  0  0  0  0
   10.7619    0.1979    0.0000 C   0  0  0  0  0  0  0  0  0  0  0  0
    8.2619   -0.6681    0.0000 C   0  0  0  0  0  0  0  0  0  0  0  0
    7.7619    0.1979    0.0000 C   0  0  0  0  0  0  0  0  0  0  0  0
    6.7619    0.1979    0.0000 C   0  0  0  0  0  0  0  0  0  0  0  0
   12.2619   -0.6681    0.0000 C   0  0  0  0  0  0  0  0  0  0  0  0
    6.2619    1.0640    0.0000 C   0  0  0  0  0  0  0  0  0  0  0  0
   12.7619   -1.5341    0.0000 C   0  0  0  0  0  0  0  0  0  0  0  0
   12.7619    0.1979    0.0000 C   0  0  0  0  0  0  0  0  0  0  0  0
   13.7619   -1.5341    0.0000 C   0  0  0  0  0  0  0  0  0  0  0  0
    4.6783    1.8687    0.0000 C   0  0  0  0  0  0  0  0  0  0  0  0
    4.6783    0.2592    0.0000 C   0  0  0  0  0  0  0  0  0  0  0  0
   12.4571   -2.4803    0.0000 C   0  0  0  0  0  0  0  0  0  0  0  0
    3.7320    1.5640    0.0000 C   0  0  0  0  0  0  0  0  0  0  0  0
    3.7320    0.5640    0.0000 C   0  0  0  0  0  0  0  0  0  0  0  0
   13.7619    0.1979    0.0000 C   0  0  0  0  0  0  0  0  0  0  0  0
   14.2619   -0.6681    0.0000 C   0  0  0  0  0  0  0  0  0  0  0  0
   13.2619   -3.0640    0.0000 C   0  0  0  0  0  0  0  0  0  0  0  0
    2.8660    2.0640    0.0000 C   0  0  0  0  0  0  0  0  0  0  0  0
    2.8660    0.0640    0.0000 C   0  0  0  0  0  0  0  0  0  0  0  0
    2.0000    1.5640    0.0000 C   0  0  0  0  0  0  0  0  0  0  0  0
    2.0000    0.5640    0.0000 C   0  0  0  0  0  0  0  0  0  0  0  0
    9.1793   -1.7462    0.0000 H   0  0  0  0  0  0  0  0  0  0  0  0
    9.8695   -2.1447    0.0000 H   0  0  0  0  0  0  0  0  0  0  0  0
    9.8695    0.8085    0.0000 H   0  0  0  0  0  0  0  0  0  0  0  0
    9.1793    0.4100    0.0000 H   0  0  0  0  0  0  0  0  0  0  0  0
   10.6542   -2.1447    0.0000 H   0  0  0  0  0  0  0  0  0  0  0  0
   11.3445   -1.7462    0.0000 H   0  0  0  0  0  0  0  0  0  0  0  0
   11.3445    0.4100    0.0000 H   0  0  0  0  0  0  0  0  0  0  0  0
   10.6542    0.8085    0.0000 H   0  0  0  0  0  0  0  0  0  0  0  0
    7.6793   -0.8802    0.0000 H   0  0  0  0  0  0  0  0  0  0  0  0
    8.3695   -1.2787    0.0000 H   0  0  0  0  0  0  0  0  0  0  0  0
    8.3445    0.4100    0.0000 H   0  0  0  0  0  0  0  0  0  0  0  0
    7.6542    0.8085    0.0000 H   0  0  0  0  0  0  0  0  0  0  0  0
    6.1793   -0.0141    0.0000 H   0  0  0  0  0  0  0  0  0  0  0  0
    6.8695   -0.4127    0.0000 H   0  0  0  0  0  0  0  0  0  0  0  0
    6.8445    1.2760    0.0000 H   0  0  0  0  0  0  0  0  0  0  0  0
    6.1542    1.6745    0.0000 H   0  0  0  0  0  0  0  0  0  0  0  0
   12.4519    0.7349    0.0000 H   0  0  0  0  0  0  0  0  0  0  0  0
   11.8678   -2.6730    0.0000 H   0  0  0  0  0  0  0  0  0  0  0  0
   14.0719    0.7349    0.0000 H   0  0  0  0  0  0  0  0  0  0  0  0
   14.8819   -0.6681    0.0000 H   0  0  0  0  0  0  0  0  0  0  0  0
   13.2619   -3.6840    0.0000 H   0  0  0  0  0  0  0  0  0  0  0  0
    2.8660   -0.5560    0.0000 H   0  0  0  0  0  0  0  0  0  0  0  0
    1.4631    1.8740    0.0000 H   0  0  0  0  0  0  0  0  0  0  0  0
    1.4631    0.2540    0.0000 H   0  0  0  0  0  0  0  0  0  0  0  0
  1 28  1  0  0  0  0
  2 19  1  0  0  0  0
  2 27  1  0  0  0  0
  3 20  2  0  0  0  0
  4 21  2  0  0  0  0
  5  8  1  0  0  0  0
  5  9  1  0  0  0  0
  5 12  1  0  0  0  0
  6 10  1  0  0  0  0
  6 11  1  0  0  0  0
  6 15  1  0  0  0  0
  7 16  1  0  0  0  0
  7 20  1  0  0  0  0
  7 21  1  0  0  0  0
  8 10  1  0  0  0  0
  8 32  1  0  0  0  0
  8 33  1  0  0  0  0
  9 11  1  0  0  0  0
  9 34  1  0  0  0  0
  9 35  1  0  0  0  0
 10 36  1  0  0  0  0
 10 37  1  0  0  0  0
 11 38  1  0  0  0  0
 11 39  1  0  0  0  0
 12 13  1  0  0  0  0
 12 40  1  0  0  0  0
 12 41  1  0  0  0  0
 13 14  1  0  0  0  0
 13 42  1  0  0  0  0
 13 43  1  0  0  0  0
 14 16  1  0  0  0  0
 14 44  1  0  0  0  0
 14 45  1  0  0  0  0
 15 17  2  0  0  0  0
 15 18  1  0  0  0  0
 16 46  1  0  0  0  0
 16 47  1  0  0  0  0
 17 19  1  0  0  0  0
 17 22  1  0  0  0  0
 18 25  2  0  0  0  0
 18 48  1  0  0  0  0
 19 26  2  0  0  0  0
 20 23  1  0  0  0  0
 21 24  1  0  0  0  0
 22 27  2  0  0  0  0
 22 49  1  0  0  0  0
 23 24  2  0  0  0  0
 23 28  1  0  0  0  0
 24 29  1  0  0  0  0
 25 26  1  0  0  0  0
 25 50  1  0  0  0  0
 26 51  1  0  0  0  0
 27 52  1  0  0  0  0
 28 30  2  0  0  0  0
 29 31  2  0  0  0  0
 29 53  1  0  0  0  0
 30 31  1  0  0  0  0
 30 54  1  0  0  0  0
 31 55  1  0  0  0  0
M  END
> <PUBCHEM_COMPOUND_CID>
145992523

> <PUBCHEM_COMPOUND_CANONICALIZED>
1

> <PUBCHEM_CACTVS_COMPLEXITY>
671

> <PUBCHEM_CACTVS_HBOND_ACCEPTOR>
5

> <PUBCHEM_CACTVS_HBOND_DONOR>
0

> <PUBCHEM_CACTVS_ROTATABLE_BOND>
6

> <PUBCHEM_CACTVS_SUBSKEYS>
AAADceB7MABEAAAAAAAAAAAAAAAAAWJAAAA8YIAAAAAAAFgB9AAAHgYAAAAADArF2CSwwcMAAAiMAiVSUACDAIAlDxBIiBkIZsgIYDLhl5GUIQxghiDozYcdiICOgAAAICAXAAAAAABAQC4AAAAAAAAAAA==

> <PUBCHEM_IUPAC_OPENEYE_NAME>
2-[4-[4-(benzothiophen-4-yl)piperazin-1-yl]butyl]-4-chloro-isoindoline-1,3-dione

> <PUBCHEM_IUPAC_CAS_NAME>
2-[4-[4-(1-benzothiophen-4-yl)-1-piperazinyl]butyl]-4-chloroisoindole-1,3-dione

> <PUBCHEM_IUPAC_NAME_MARKUP>
2-[4-[4-(1-benzothiophen-4-yl)piperazin-1-yl]butyl]-4-chloroisoindole-1,3-dione

> <PUBCHEM_IUPAC_NAME>
2-[4-[4-(1-benzothiophen-4-yl)piperazin-1-yl]butyl]-4-chloroisoindole-1,3-dione

> <PUBCHEM_IUPAC_SYSTEMATIC_NAME>
2-[4-[4-(1-benzothiophen-4-yl)piperazin-1-yl]butyl]-4-chloranyl-isoindole-1,3-dione

> <PUBCHEM_IUPAC_TRADITIONAL_NAME>
2-[4-[4-(benzothiophen-4-yl)piperazino]butyl]-4-chloro-isoindoline-1,3-quinone

> <PUBCHEM_IUPAC_INCHI>
InChI=1S/C24H24ClN3O2S/c25-19-6-3-5-18-22(19)24(30)28(23(18)29)11-2-1-10-26-12-14-27(15-13-26)20-7-4-8-21-17(20)9-16-31-21/h3-9,16H,1-2,10-15H2

> <PUBCHEM_IUPAC_INCHIKEY>
IZQJTFHFKAKSCB-UHFFFAOYSA-N

> <PUBCHEM_XLOGP3_AA>
4.9

> <PUBCHEM_EXACT_MASS>
453.1277759

> <PUBCHEM_MOLECULAR_FORMULA>
C24H24ClN3O2S

> <PUBCHEM_MOLECULAR_WEIGHT>
454.0

> <PUBCHEM_OPENEYE_CAN_SMILES>
C1CN(CCN1CCCCN2C(=O)C3=C(C2=O)C(=CC=C3)Cl)C4=C5C=CSC5=CC=C4

> <PUBCHEM_OPENEYE_ISO_SMILES>
C1CN(CCN1CCCCN2C(=O)C3=C(C2=O)C(=CC=C3)Cl)C4=C5C=CSC5=CC=C4

> <PUBCHEM_CACTVS_TPSA>
72.1

> <PUBCHEM_MONOISOTOPIC_WEIGHT>
453.1277759

> <PUBCHEM_TOTAL_CHARGE>
0

> <PUBCHEM_HEAVY_ATOM_COUNT>
31

> <PUBCHEM_ATOM_DEF_STEREO_COUNT>
0

> <PUBCHEM_ATOM_UDEF_STEREO_COUNT>
0

> <PUBCHEM_BOND_DEF_STEREO_COUNT>
0

> <PUBCHEM_BOND_UDEF_STEREO_COUNT>
0

> <PUBCHEM_ISOTOPIC_ATOM_COUNT>
0

> <PUBCHEM_COMPONENT_COUNT>
1

> <PUBCHEM_CACTVS_TAUTO_COUNT>
-1

> <PUBCHEM_COORDINATE_TYPE>
1
5
255

> <PUBCHEM_BONDANNOTATIONS>
15  17  8
15  18  8
17  19  8
17  22  8
18  25  8
19  26  8
2  19  8
2  27  8
22  27  8
23  24  8
23  28  8
24  29  8
25  26  8
28  30  8
29  31  8
30  31  8

$$$$
