44338326
  -OEChem-09292322192D

 50 53  0     0  0  0  0  0  0999 V2000
    8.9030    1.8870    0.0000 Cl  0  0  0  0  0  0  0  0  0  0  0  0
   11.2619   -2.4251    0.0000 O   0  0  0  0  0  0  0  0  0  0  0  0
   11.2619   -0.6931    0.0000 O   0  0  0  0  0  0  0  0  0  0  0  0
    4.6783    0.1117    0.0000 N   0  0  0  0  0  0  0  0  0  0  0  0
    4.6783   -1.4978    0.0000 N   0  0  0  0  0  0  0  0  0  0  0  0
    5.2619   -0.6931    0.0000 C   0  0  0  0  0  0  0  0  0  0  0  0
    6.2619   -0.6931    0.0000 C   0  0  0  0  0  0  0  0  0  0  0  0
    3.7320   -0.1931    0.0000 C   0  0  0  0  0  0  0  0  0  0  0  0
    4.9889    1.0622    0.0000 C   0  0  0  0  0  0  0  0  0  0  0  0
    6.7619   -1.5591    0.0000 C   0  0  0  0  0  0  0  0  0  0  0  0
    3.7320   -1.1931    0.0000 C   0  0  0  0  0  0  0  0  0  0  0  0
    5.9674    1.2684    0.0000 C   0  0  0  0  0  0  0  0  0  0  0  0
    7.7619   -1.5591    0.0000 C   0  0  0  0  0  0  0  0  0  0  0  0
    2.8660    0.3069    0.0000 C   0  0  0  0  0  0  0  0  0  0  0  0
    2.8660   -1.6931    0.0000 C   0  0  0  0  0  0  0  0  0  0  0  0
    2.0000   -0.1931    0.0000 C   0  0  0  0  0  0  0  0  0  0  0  0
    2.0000   -1.1931    0.0000 C   0  0  0  0  0  0  0  0  0  0  0  0
    8.2619   -0.6931    0.0000 C   0  0  0  0  0  0  0  0  0  0  0  0
    8.2619   -2.4251    0.0000 C   0  0  0  0  0  0  0  0  0  0  0  0
    6.2781    2.2189    0.0000 C   0  0  0  0  0  0  0  0  0  0  0  0
    6.6353    0.5241    0.0000 C   0  0  0  0  0  0  0  0  0  0  0  0
    9.2619   -0.6931    0.0000 C   0  0  0  0  0  0  0  0  0  0  0  0
    9.2619   -2.4251    0.0000 C   0  0  0  0  0  0  0  0  0  0  0  0
    9.7619   -1.5591    0.0000 C   0  0  0  0  0  0  0  0  0  0  0  0
    7.2566    2.4251    0.0000 C   0  0  0  0  0  0  0  0  0  0  0  0
    7.6138    0.7303    0.0000 C   0  0  0  0  0  0  0  0  0  0  0  0
    7.9244    1.6808    0.0000 C   0  0  0  0  0  0  0  0  0  0  0  0
   10.7619   -1.5591    0.0000 C   0  0  0  0  0  0  0  0  0  0  0  0
   12.2619   -2.4251    0.0000 C   0  0  0  0  0  0  0  0  0  0  0  0
    6.8445   -0.4810    0.0000 H   0  0  0  0  0  0  0  0  0  0  0  0
    6.1542   -0.0825    0.0000 H   0  0  0  0  0  0  0  0  0  0  0  0
    4.9684    1.6818    0.0000 H   0  0  0  0  0  0  0  0  0  0  0  0
    4.3751    1.1495    0.0000 H   0  0  0  0  0  0  0  0  0  0  0  0
    6.1793   -1.7712    0.0000 H   0  0  0  0  0  0  0  0  0  0  0  0
    6.8695   -2.1697    0.0000 H   0  0  0  0  0  0  0  0  0  0  0  0
    2.8660    0.9269    0.0000 H   0  0  0  0  0  0  0  0  0  0  0  0
    2.8660   -2.3131    0.0000 H   0  0  0  0  0  0  0  0  0  0  0  0
    1.4631    0.1169    0.0000 H   0  0  0  0  0  0  0  0  0  0  0  0
    1.4631   -1.5031    0.0000 H   0  0  0  0  0  0  0  0  0  0  0  0
    7.9519   -0.1561    0.0000 H   0  0  0  0  0  0  0  0  0  0  0  0
    7.9519   -2.9621    0.0000 H   0  0  0  0  0  0  0  0  0  0  0  0
    5.8640    2.6804    0.0000 H   0  0  0  0  0  0  0  0  0  0  0  0
    6.4427   -0.0652    0.0000 H   0  0  0  0  0  0  0  0  0  0  0  0
    9.5719   -0.1561    0.0000 H   0  0  0  0  0  0  0  0  0  0  0  0
    9.5719   -2.9621    0.0000 H   0  0  0  0  0  0  0  0  0  0  0  0
    7.4492    3.0144    0.0000 H   0  0  0  0  0  0  0  0  0  0  0  0
    8.0279    0.2688    0.0000 H   0  0  0  0  0  0  0  0  0  0  0  0
   12.2619   -3.0451    0.0000 H   0  0  0  0  0  0  0  0  0  0  0  0
   12.8819   -2.4251    0.0000 H   0  0  0  0  0  0  0  0  0  0  0  0
   12.2619   -1.8051    0.0000 H   0  0  0  0  0  0  0  0  0  0  0  0
  1 27  1  0  0  0  0
  2 28  1  0  0  0  0
  2 29  1  0  0  0  0
  3 28  2  0  0  0  0
  4  6  1  0  0  0  0
  4  8  1  0  0  0  0
  4  9  1  0  0  0  0
  5  6  2  0  0  0  0
  5 11  1  0  0  0  0
  6  7  1  0  0  0  0
  7 10  1  0  0  0  0
  7 30  1  0  0  0  0
  7 31  1  0  0  0  0
  8 11  1  0  0  0  0
  8 14  2  0  0  0  0
  9 12  1  0  0  0  0
  9 32  1  0  0  0  0
  9 33  1  0  0  0  0
 10 13  1  0  0  0  0
 10 34  1  0  0  0  0
 10 35  1  0  0  0  0
 11 15  2  0  0  0  0
 12 20  2  0  0  0  0
 12 21  1  0  0  0  0
 13 18  2  0  0  0  0
 13 19  1  0  0  0  0
 14 16  1  0  0  0  0
 14 36  1  0  0  0  0
 15 17  1  0  0  0  0
 15 37  1  0  0  0  0
 16 17  2  0  0  0  0
 16 38  1  0  0  0  0
 17 39  1  0  0  0  0
 18 22  1  0  0  0  0
 18 40  1  0  0  0  0
 19 23  2  0  0  0  0
 19 41  1  0  0  0  0
 20 25  1  0  0  0  0
 20 42  1  0  0  0  0
 21 26  2  0  0  0  0
 21 43  1  0  0  0  0
 22 24  2  0  0  0  0
 22 44  1  0  0  0  0
 23 24  1  0  0  0  0
 23 45  1  0  0  0  0
 24 28  1  0  0  0  0
 25 27  2  0  0  0  0
 25 46  1  0  0  0  0
 26 27  1  0  0  0  0
 26 47  1  0  0  0  0
 29 48  1  0  0  0  0
 29 49  1  0  0  0  0
 29 50  1  0  0  0  0
M  END
> <PUBCHEM_COMPOUND_CID>
44338326

> <PUBCHEM_COMPOUND_CANONICALIZED>
1

> <PUBCHEM_CACTVS_COMPLEXITY>
529

> <PUBCHEM_CACTVS_HBOND_ACCEPTOR>
3

> <PUBCHEM_CACTVS_HBOND_DONOR>
0

> <PUBCHEM_CACTVS_ROTATABLE_BOND>
7

> <PUBCHEM_CACTVS_SUBSKEYS>
AAADceB7MAAEAAAAAAAAAAAAAAAAAWAAAAAwYMAAAAAAAFgB9AAAHgIAAAAADArBnyYz2LcMFACoAybybACCgC0lF6AJ2CE4ftiIbrLBv5mUMQhswAPI6aeYyPCORAAAAAAAACCIAAAAAAAAQAAAAAAAAA==

> <PUBCHEM_IUPAC_OPENEYE_NAME>
methyl 4-[2-[1-[(4-chlorophenyl)methyl]benzimidazol-2-yl]ethyl]benzoate

> <PUBCHEM_IUPAC_CAS_NAME>
4-[2-[1-[(4-chlorophenyl)methyl]-2-benzimidazolyl]ethyl]benzoic acid methyl ester

> <PUBCHEM_IUPAC_NAME_MARKUP>
methyl 4-[2-[1-[(4-chlorophenyl)methyl]benzimidazol-2-yl]ethyl]benzoate

> <PUBCHEM_IUPAC_NAME>
methyl 4-[2-[1-[(4-chlorophenyl)methyl]benzimidazol-2-yl]ethyl]benzoate

> <PUBCHEM_IUPAC_SYSTEMATIC_NAME>
methyl 4-[2-[1-[(4-chlorophenyl)methyl]benzimidazol-2-yl]ethyl]benzoate

> <PUBCHEM_IUPAC_TRADITIONAL_NAME>
4-[2-[1-(4-chlorobenzyl)benzimidazol-2-yl]ethyl]benzoic acid methyl ester

> <PUBCHEM_IUPAC_INCHI>
InChI=1S/C24H21ClN2O2/c1-29-24(28)19-11-6-17(7-12-19)10-15-23-26-21-4-2-3-5-22(21)27(23)16-18-8-13-20(25)14-9-18/h2-9,11-14H,10,15-16H2,1H3

> <PUBCHEM_IUPAC_INCHIKEY>
AFECYHQHVIVPNI-UHFFFAOYSA-N

> <PUBCHEM_XLOGP3_AA>
5.8

> <PUBCHEM_EXACT_MASS>
404.1291556

> <PUBCHEM_MOLECULAR_FORMULA>
C24H21ClN2O2

> <PUBCHEM_MOLECULAR_WEIGHT>
404.9

> <PUBCHEM_OPENEYE_CAN_SMILES>
COC(=O)C1=CC=C(C=C1)CCC2=NC3=CC=CC=C3N2CC4=CC=C(C=C4)Cl

> <PUBCHEM_OPENEYE_ISO_SMILES>
COC(=O)C1=CC=C(C=C1)CCC2=NC3=CC=CC=C3N2CC4=CC=C(C=C4)Cl

> <PUBCHEM_CACTVS_TPSA>
44.1

> <PUBCHEM_MONOISOTOPIC_WEIGHT>
404.1291556

> <PUBCHEM_TOTAL_CHARGE>
0

> <PUBCHEM_HEAVY_ATOM_COUNT>
29

> <PUBCHEM_ATOM_DEF_STEREO_COUNT>
0

> <PUBCHEM_ATOM_UDEF_STEREO_COUNT>
0

> <PUBCHEM_BOND_DEF_STEREO_COUNT>
0

> <PUBCHEM_BOND_UDEF_STEREO_COUNT>
0

> <PUBCHEM_ISOTOPIC_ATOM_COUNT>
0

> <PUBCHEM_COMPONENT_COUNT>
1

> <PUBCHEM_CACTVS_TAUTO_COUNT>
-1

> <PUBCHEM_COORDINATE_TYPE>
1
5
255

> <PUBCHEM_BONDANNOTATIONS>
11  15  8
12  20  8
12  21  8
13  18  8
13  19  8
14  16  8
15  17  8
16  17  8
18  22  8
19  23  8
20  25  8
21  26  8
22  24  8
23  24  8
25  27  8
26  27  8
4  6  8
4  8  8
5  11  8
5  6  8
8  11  8
8  14  8

$$$$
