155522744
  -OEChem-09292322062D

 52 55  0     1  0  0  0  0  0999 V2000
    6.4203    1.4083    0.0000 O   0  0  0  0  0  0  0  0  0  0  0  0
    5.6405   -3.2255    0.0000 O   0  0  0  0  0  0  0  0  0  0  0  0
    3.8372   -4.2853    0.0000 O   0  0  0  0  0  0  0  0  0  0  0  0
    6.4361    3.4565    0.0000 O   0  0  0  0  0  0  0  0  0  0  0  0
    4.6622    4.4807    0.0000 O   0  0  0  0  0  0  0  0  0  0  0  0
    2.9180    0.4114    0.0000 N   0  0  3  0  0  0  0  0  0  0  0  0
    3.7841   -0.0886    0.0000 C   0  0  3  0  0  0  0  0  0  0  0  0
    4.6501    0.4114    0.0000 C   0  0  0  0  0  0  0  0  0  0  0  0
    2.0080   -0.0954    0.0000 C   0  0  0  0  0  0  0  0  0  0  0  0
    3.8001   -1.1301    0.0000 C   0  0  0  0  0  0  0  0  0  0  0  0
    2.9180    1.4114    0.0000 C   0  0  0  0  0  0  0  0  0  0  0  0
    2.0000   -1.1370    0.0000 C   0  0  0  0  0  0  0  0  0  0  0  0
    4.6501    1.4114    0.0000 C   0  0  0  0  0  0  0  0  0  0  0  0
    2.9021   -1.6578    0.0000 C   0  0  0  0  0  0  0  0  0  0  0  0
    3.7841    1.9114    0.0000 C   0  0  0  0  0  0  0  0  0  0  0  0
    4.7520   -1.6507    0.0000 C   0  0  0  0  0  0  0  0  0  0  0  0
    5.5601    1.9183    0.0000 C   0  0  0  0  0  0  0  0  0  0  0  0
    2.8937   -2.7428    0.0000 C   0  0  0  0  0  0  0  0  0  0  0  0
    3.7680    2.9529    0.0000 C   0  0  0  0  0  0  0  0  0  0  0  0
    4.7688   -2.7356    0.0000 C   0  0  0  0  0  0  0  0  0  0  0  0
    3.8334   -3.2853    0.0000 C   0  0  0  0  0  0  0  0  0  0  0  0
    5.5681    2.9599    0.0000 C   0  0  0  0  0  0  0  0  0  0  0  0
    4.6660    3.4807    0.0000 C   0  0  0  0  0  0  0  0  0  0  0  0
    7.2920    1.8982    0.0000 C   0  0  0  0  0  0  0  0  0  0  0  0
    5.6521   -4.2255    0.0000 C   0  0  0  0  0  0  0  0  0  0  0  0
    2.9731   -4.7886    0.0000 C   0  0  0  0  0  0  0  0  0  0  0  0
    6.4399    4.4565    0.0000 C   0  0  0  0  0  0  0  0  0  0  0  0
    4.3234   -0.3944    0.0000 H   0  0  0  0  0  0  0  0  0  0  0  0
    4.8621   -0.1712    0.0000 H   0  0  0  0  0  0  0  0  0  0  0  0
    5.2607    0.5191    0.0000 H   0  0  0  0  0  0  0  0  0  0  0  0
    1.8035    0.4899    0.0000 H   0  0  0  0  0  0  0  0  0  0  0  0
    1.3964   -0.1968    0.0000 H   0  0  0  0  0  0  0  0  0  0  0  0
    2.7060    1.9940    0.0000 H   0  0  0  0  0  0  0  0  0  0  0  0
    2.3074    1.3038    0.0000 H   0  0  0  0  0  0  0  0  0  0  0  0
    1.3900   -1.0262    0.0000 H   0  0  0  0  0  0  0  0  0  0  0  0
    1.7864   -1.7191    0.0000 H   0  0  0  0  0  0  0  0  0  0  0  0
    5.2829   -1.3304    0.0000 H   0  0  0  0  0  0  0  0  0  0  0  0
    2.3556   -3.0507    0.0000 H   0  0  0  0  0  0  0  0  0  0  0  0
    3.2275    3.2567    0.0000 H   0  0  0  0  0  0  0  0  0  0  0  0
    4.1241    4.7886    0.0000 H   0  0  0  0  0  0  0  0  0  0  0  0
    7.5958    1.3578    0.0000 H   0  0  0  0  0  0  0  0  0  0  0  0
    7.8325    2.2020    0.0000 H   0  0  0  0  0  0  0  0  0  0  0  0
    6.9882    2.4387    0.0000 H   0  0  0  0  0  0  0  0  0  0  0  0
    5.0321   -4.2326    0.0000 H   0  0  0  0  0  0  0  0  0  0  0  0
    5.6592   -4.8454    0.0000 H   0  0  0  0  0  0  0  0  0  0  0  0
    6.2720   -4.2183    0.0000 H   0  0  0  0  0  0  0  0  0  0  0  0
    2.6610   -4.2529    0.0000 H   0  0  0  0  0  0  0  0  0  0  0  0
    2.4374   -5.1007    0.0000 H   0  0  0  0  0  0  0  0  0  0  0  0
    3.2852   -5.3244    0.0000 H   0  0  0  0  0  0  0  0  0  0  0  0
    7.0599    4.4541    0.0000 H   0  0  0  0  0  0  0  0  0  0  0  0
    6.4423    5.0765    0.0000 H   0  0  0  0  0  0  0  0  0  0  0  0
    5.8199    4.4589    0.0000 H   0  0  0  0  0  0  0  0  0  0  0  0
  1 17  1  0  0  0  0
  1 24  1  0  0  0  0
  2 20  1  0  0  0  0
  2 25  1  0  0  0  0
  3 21  1  0  0  0  0
  3 26  1  0  0  0  0
  4 22  1  0  0  0  0
  4 27  1  0  0  0  0
  5 23  1  0  0  0  0
  5 40  1  0  0  0  0
  6  7  1  0  0  0  0
  6  9  1  0  0  0  0
  6 11  1  0  0  0  0
  7  8  1  0  0  0  0
  7 10  1  0  0  0  0
  7 28  1  0  0  0  0
  8 13  1  0  0  0  0
  8 29  1  0  0  0  0
  8 30  1  0  0  0  0
  9 12  1  0  0  0  0
  9 31  1  0  0  0  0
  9 32  1  0  0  0  0
 10 14  1  0  0  0  0
 10 16  2  0  0  0  0
 11 15  1  0  0  0  0
 11 33  1  0  0  0  0
 11 34  1  0  0  0  0
 12 14  1  0  0  0  0
 12 35  1  0  0  0  0
 12 36  1  0  0  0  0
 13 15  1  0  0  0  0
 13 17  2  0  0  0  0
 14 18  2  0  0  0  0
 15 19  2  0  0  0  0
 16 20  1  0  0  0  0
 16 37  1  0  0  0  0
 17 22  1  0  0  0  0
 18 21  1  0  0  0  0
 18 38  1  0  0  0  0
 19 23  1  0  0  0  0
 19 39  1  0  0  0  0
 20 21  2  0  0  0  0
 22 23  2  0  0  0  0
 24 41  1  0  0  0  0
 24 42  1  0  0  0  0
 24 43  1  0  0  0  0
 25 44  1  0  0  0  0
 25 45  1  0  0  0  0
 25 46  1  0  0  0  0
 26 47  1  0  0  0  0
 26 48  1  0  0  0  0
 26 49  1  0  0  0  0
 27 50  1  0  0  0  0
 27 51  1  0  0  0  0
 27 52  1  0  0  0  0
M  END
> <PUBCHEM_COMPOUND_CID>
155522744

> <PUBCHEM_COMPOUND_CANONICALIZED>
1

> <PUBCHEM_CACTVS_COMPLEXITY>
505

> <PUBCHEM_CACTVS_HBOND_ACCEPTOR>
6

> <PUBCHEM_CACTVS_HBOND_DONOR>
1

> <PUBCHEM_CACTVS_ROTATABLE_BOND>
4

> <PUBCHEM_CACTVS_SUBSKEYS>
AAADceB6OAAAAAAAAAAAAAAAAAAAAAAAAAA8eIEAAAAAAACxQAAAHgAACAAADCzBmAYyBoMABgCAAiBCAACCCAAgIAAAiAAOjIgNJyKGsRuEcCtlwBWLuAew8P8OoAABCAAYQABAAAIQADCAAAAAAAAAAA==

> <PUBCHEM_IUPAC_OPENEYE_NAME>
2,3,11,12-tetramethoxy-6,8,13,13a-tetrahydro-5H-isoquinolino[2,1-b]isoquinolin-10-ol

> <PUBCHEM_IUPAC_CAS_NAME>
2,3,11,12-tetramethoxy-6,8,13,13a-tetrahydro-5H-isoquinolino[2,1-b]isoquinolin-10-ol

> <PUBCHEM_IUPAC_NAME_MARKUP>
2,3,11,12-tetramethoxy-6,8,13,13<I>a</I>-tetrahydro-5<I>H</I>-isoquinolino[2,1-b]isoquinolin-10-ol

> <PUBCHEM_IUPAC_NAME>
2,3,11,12-tetramethoxy-6,8,13,13a-tetrahydro-5H-isoquinolino[2,1-b]isoquinolin-10-ol

> <PUBCHEM_IUPAC_SYSTEMATIC_NAME>
2,3,11,12-tetramethoxy-6,8,13,13a-tetrahydro-5H-isoquinolino[2,1-b]isoquinolin-10-ol

> <PUBCHEM_IUPAC_TRADITIONAL_NAME>
2,3,11,12-tetramethoxy-6,8,13,13a-tetrahydro-5H-isoquinolin[2,1-b]isoquinolin-10-ol

> <PUBCHEM_IUPAC_INCHI>
InChI=1S/C21H25NO5/c1-24-18-8-12-5-6-22-11-13-7-17(23)21(27-4)20(26-3)15(13)9-16(22)14(12)10-19(18)25-2/h7-8,10,16,23H,5-6,9,11H2,1-4H3

> <PUBCHEM_IUPAC_INCHIKEY>
NBSPNGNYACXYLH-UHFFFAOYSA-N

> <PUBCHEM_XLOGP3_AA>
2.9

> <PUBCHEM_EXACT_MASS>
371.17327290

> <PUBCHEM_MOLECULAR_FORMULA>
C21H25NO5

> <PUBCHEM_MOLECULAR_WEIGHT>
371.4

> <PUBCHEM_OPENEYE_CAN_SMILES>
COC1=C(C=C2C3CC4=C(C(=C(C=C4CN3CCC2=C1)O)OC)OC)OC

> <PUBCHEM_OPENEYE_ISO_SMILES>
COC1=C(C=C2C3CC4=C(C(=C(C=C4CN3CCC2=C1)O)OC)OC)OC

> <PUBCHEM_CACTVS_TPSA>
60.4

> <PUBCHEM_MONOISOTOPIC_WEIGHT>
371.17327290

> <PUBCHEM_TOTAL_CHARGE>
0

> <PUBCHEM_HEAVY_ATOM_COUNT>
27

> <PUBCHEM_ATOM_DEF_STEREO_COUNT>
0

> <PUBCHEM_ATOM_UDEF_STEREO_COUNT>
1

> <PUBCHEM_BOND_DEF_STEREO_COUNT>
0

> <PUBCHEM_BOND_UDEF_STEREO_COUNT>
0

> <PUBCHEM_ISOTOPIC_ATOM_COUNT>
0

> <PUBCHEM_COMPONENT_COUNT>
1

> <PUBCHEM_CACTVS_TAUTO_COUNT>
-1

> <PUBCHEM_COORDINATE_TYPE>
1
5
255

> <PUBCHEM_BONDANNOTATIONS>
10  14  8
10  16  8
13  15  8
13  17  8
14  18  8
15  19  8
16  20  8
17  22  8
18  21  8
19  23  8
20  21  8
22  23  8
7  8  3

$$$$
