24849462
  -OEChem-09292322292D

 46 49  0     0  0  0  0  0  0999 V2000
    9.7619   -3.9087    0.0000 Cl  0  0  0  0  0  0  0  0  0  0  0  0
    6.7619    1.2874    0.0000 N   0  0  0  0  0  0  0  0  0  0  0  0
    4.6783    2.9582    0.0000 N   0  0  0  0  0  0  0  0  0  0  0  0
    4.6783    1.3487    0.0000 N   0  0  0  0  0  0  0  0  0  0  0  0
    7.7619   -0.4446    0.0000 C   0  0  0  0  0  0  0  0  0  0  0  0
    8.2619    0.4214    0.0000 C   0  0  0  0  0  0  0  0  0  0  0  0
    6.7619   -0.4446    0.0000 C   0  0  0  0  0  0  0  0  0  0  0  0
    7.7619    1.2874    0.0000 C   0  0  0  0  0  0  0  0  0  0  0  0
    6.2619    0.4214    0.0000 C   0  0  0  0  0  0  0  0  0  0  0  0
    6.2619    2.1535    0.0000 C   0  0  0  0  0  0  0  0  0  0  0  0
    8.2619   -1.3106    0.0000 C   0  0  0  0  0  0  0  0  0  0  0  0
    5.2619    2.1535    0.0000 C   0  0  0  0  0  0  0  0  0  0  0  0
    9.2619   -1.3106    0.0000 C   0  0  0  0  0  0  0  0  0  0  0  0
    7.7619   -2.1767    0.0000 C   0  0  0  0  0  0  0  0  0  0  0  0
    3.7320    2.6535    0.0000 C   0  0  0  0  0  0  0  0  0  0  0  0
    3.7320    1.6535    0.0000 C   0  0  0  0  0  0  0  0  0  0  0  0
    9.7619   -2.1767    0.0000 C   0  0  0  0  0  0  0  0  0  0  0  0
    8.2619   -3.0427    0.0000 C   0  0  0  0  0  0  0  0  0  0  0  0
    4.9889    3.9087    0.0000 C   0  0  0  0  0  0  0  0  0  0  0  0
    9.2619   -3.0427    0.0000 C   0  0  0  0  0  0  0  0  0  0  0  0
    2.8660    3.1535    0.0000 C   0  0  0  0  0  0  0  0  0  0  0  0
    2.8660    1.1535    0.0000 C   0  0  0  0  0  0  0  0  0  0  0  0
    2.0000    2.6535    0.0000 C   0  0  0  0  0  0  0  0  0  0  0  0
    2.0000    1.6535    0.0000 C   0  0  0  0  0  0  0  0  0  0  0  0
    7.4519   -0.9815    0.0000 H   0  0  0  0  0  0  0  0  0  0  0  0
    8.7368    0.0229    0.0000 H   0  0  0  0  0  0  0  0  0  0  0  0
    8.7368    0.8199    0.0000 H   0  0  0  0  0  0  0  0  0  0  0  0
    6.1793   -0.6567    0.0000 H   0  0  0  0  0  0  0  0  0  0  0  0
    6.8695   -1.0552    0.0000 H   0  0  0  0  0  0  0  0  0  0  0  0
    8.3445    1.4995    0.0000 H   0  0  0  0  0  0  0  0  0  0  0  0
    7.6542    1.8980    0.0000 H   0  0  0  0  0  0  0  0  0  0  0  0
    5.7869    0.8199    0.0000 H   0  0  0  0  0  0  0  0  0  0  0  0
    5.7869    0.0229    0.0000 H   0  0  0  0  0  0  0  0  0  0  0  0
    6.8445    2.3655    0.0000 H   0  0  0  0  0  0  0  0  0  0  0  0
    6.1542    2.7640    0.0000 H   0  0  0  0  0  0  0  0  0  0  0  0
    9.5719   -0.7737    0.0000 H   0  0  0  0  0  0  0  0  0  0  0  0
    7.1419   -2.1767    0.0000 H   0  0  0  0  0  0  0  0  0  0  0  0
   10.3819   -2.1767    0.0000 H   0  0  0  0  0  0  0  0  0  0  0  0
    7.9519   -3.5796    0.0000 H   0  0  0  0  0  0  0  0  0  0  0  0
    5.5783    3.7161    0.0000 H   0  0  0  0  0  0  0  0  0  0  0  0
    5.1815    4.4980    0.0000 H   0  0  0  0  0  0  0  0  0  0  0  0
    4.3996    4.1013    0.0000 H   0  0  0  0  0  0  0  0  0  0  0  0
    2.8660    3.7735    0.0000 H   0  0  0  0  0  0  0  0  0  0  0  0
    2.8660    0.5335    0.0000 H   0  0  0  0  0  0  0  0  0  0  0  0
    1.4631    2.9635    0.0000 H   0  0  0  0  0  0  0  0  0  0  0  0
    1.4631    1.3435    0.0000 H   0  0  0  0  0  0  0  0  0  0  0  0
  1 20  1  0  0  0  0
  2  8  1  0  0  0  0
  2  9  1  0  0  0  0
  2 10  1  0  0  0  0
  3 12  1  0  0  0  0
  3 15  1  0  0  0  0
  3 19  1  0  0  0  0
  4 12  2  0  0  0  0
  4 16  1  0  0  0  0
  5  6  1  0  0  0  0
  5  7  1  0  0  0  0
  5 11  1  0  0  0  0
  5 25  1  0  0  0  0
  6  8  1  0  0  0  0
  6 26  1  0  0  0  0
  6 27  1  0  0  0  0
  7  9  1  0  0  0  0
  7 28  1  0  0  0  0
  7 29  1  0  0  0  0
  8 30  1  0  0  0  0
  8 31  1  0  0  0  0
  9 32  1  0  0  0  0
  9 33  1  0  0  0  0
 10 12  1  0  0  0  0
 10 34  1  0  0  0  0
 10 35  1  0  0  0  0
 11 13  2  0  0  0  0
 11 14  1  0  0  0  0
 13 17  1  0  0  0  0
 13 36  1  0  0  0  0
 14 18  2  0  0  0  0
 14 37  1  0  0  0  0
 15 16  1  0  0  0  0
 15 21  2  0  0  0  0
 16 22  2  0  0  0  0
 17 20  2  0  0  0  0
 17 38  1  0  0  0  0
 18 20  1  0  0  0  0
 18 39  1  0  0  0  0
 19 40  1  0  0  0  0
 19 41  1  0  0  0  0
 19 42  1  0  0  0  0
 21 23  1  0  0  0  0
 21 43  1  0  0  0  0
 22 24  1  0  0  0  0
 22 44  1  0  0  0  0
 23 24  2  0  0  0  0
 23 45  1  0  0  0  0
 24 46  1  0  0  0  0
M  END
> <PUBCHEM_COMPOUND_CID>
24849462

> <PUBCHEM_COMPOUND_CANONICALIZED>
1

> <PUBCHEM_CACTVS_COMPLEXITY>
402

> <PUBCHEM_CACTVS_HBOND_ACCEPTOR>
2

> <PUBCHEM_CACTVS_HBOND_DONOR>
0

> <PUBCHEM_CACTVS_ROTATABLE_BOND>
3

> <PUBCHEM_CACTVS_SUBSKEYS>
AAADceB7AAAEAAAAAAAAAAAAAAAAAWAAAAA8YIAAAAAAAFgB9AAAHAIAAAAADQrBHyQz0LcMEACgAyZiZACCgC0hF6AJ2CA4dpiIaKLBm5GUIAhogALIyCcQgMAOhAAAAAAAACAIAAAAAAAAQAAAAAAAAA==

> <PUBCHEM_IUPAC_OPENEYE_NAME>
2-[[4-(4-chlorophenyl)-1-piperidyl]methyl]-1-methyl-benzimidazole

> <PUBCHEM_IUPAC_CAS_NAME>
2-[[4-(4-chlorophenyl)-1-piperidinyl]methyl]-1-methylbenzimidazole

> <PUBCHEM_IUPAC_NAME_MARKUP>
2-[[4-(4-chlorophenyl)piperidin-1-yl]methyl]-1-methylbenzimidazole

> <PUBCHEM_IUPAC_NAME>
2-[[4-(4-chlorophenyl)piperidin-1-yl]methyl]-1-methylbenzimidazole

> <PUBCHEM_IUPAC_SYSTEMATIC_NAME>
2-[[4-(4-chlorophenyl)piperidin-1-yl]methyl]-1-methyl-benzimidazole

> <PUBCHEM_IUPAC_TRADITIONAL_NAME>
2-[[4-(4-chlorophenyl)piperidino]methyl]-1-methyl-benzimidazole

> <PUBCHEM_IUPAC_INCHI>
InChI=1S/C20H22ClN3/c1-23-19-5-3-2-4-18(19)22-20(23)14-24-12-10-16(11-13-24)15-6-8-17(21)9-7-15/h2-9,16H,10-14H2,1H3

> <PUBCHEM_IUPAC_INCHIKEY>
RARDZQWGAVAIAO-UHFFFAOYSA-N

> <PUBCHEM_XLOGP3_AA>
4.2

> <PUBCHEM_EXACT_MASS>
339.1502254

> <PUBCHEM_MOLECULAR_FORMULA>
C20H22ClN3

> <PUBCHEM_MOLECULAR_WEIGHT>
339.9

> <PUBCHEM_OPENEYE_CAN_SMILES>
CN1C2=CC=CC=C2N=C1CN3CCC(CC3)C4=CC=C(C=C4)Cl

> <PUBCHEM_OPENEYE_ISO_SMILES>
CN1C2=CC=CC=C2N=C1CN3CCC(CC3)C4=CC=C(C=C4)Cl

> <PUBCHEM_CACTVS_TPSA>
21.1

> <PUBCHEM_MONOISOTOPIC_WEIGHT>
339.1502254

> <PUBCHEM_TOTAL_CHARGE>
0

> <PUBCHEM_HEAVY_ATOM_COUNT>
24

> <PUBCHEM_ATOM_DEF_STEREO_COUNT>
0

> <PUBCHEM_ATOM_UDEF_STEREO_COUNT>
0

> <PUBCHEM_BOND_DEF_STEREO_COUNT>
0

> <PUBCHEM_BOND_UDEF_STEREO_COUNT>
0

> <PUBCHEM_ISOTOPIC_ATOM_COUNT>
0

> <PUBCHEM_COMPONENT_COUNT>
1

> <PUBCHEM_CACTVS_TAUTO_COUNT>
-1

> <PUBCHEM_COORDINATE_TYPE>
1
5
255

> <PUBCHEM_BONDANNOTATIONS>
11  13  8
11  14  8
13  17  8
14  18  8
15  16  8
15  21  8
16  22  8
17  20  8
18  20  8
21  23  8
22  24  8
23  24  8
3  12  8
3  15  8
4  12  8
4  16  8

$$$$
