71457844
  -OEChem-09292322332D

 67 71  0     0  0  0  0  0  0999 V2000
    9.7142    0.5786    0.0000 O   0  0  0  0  0  0  0  0  0  0  0  0
    6.4358   -2.2845    0.0000 N   0  0  0  0  0  0  0  0  0  0  0  0
    6.4162    1.6384    0.0000 N   0  0  0  0  0  0  0  0  0  0  0  0
    8.3711    2.0606    0.0000 N   0  0  0  0  0  0  0  0  0  0  0  0
    6.7512   -3.2335    0.0000 C   0  0  0  0  0  0  0  0  0  0  0  0
    7.0999   -1.5369    0.0000 C   0  0  0  0  0  0  0  0  0  0  0  0
    5.4562   -2.0832    0.0000 C   0  0  0  0  0  0  0  0  0  0  0  0
    5.4387    1.4273    0.0000 C   0  0  0  0  0  0  0  0  0  0  0  0
    6.7221    2.5904    0.0000 C   0  0  0  0  0  0  0  0  0  0  0  0
    7.0877    0.8974    0.0000 C   0  0  0  0  0  0  0  0  0  0  0  0
    7.7307   -3.4348    0.0000 C   0  0  0  0  0  0  0  0  0  0  0  0
    8.0794   -1.7382    0.0000 C   0  0  0  0  0  0  0  0  0  0  0  0
    8.3948   -2.6872    0.0000 C   0  0  0  0  0  0  0  0  0  0  0  0
    5.1408   -1.1342    0.0000 C   0  0  0  0  0  0  0  0  0  0  0  0
    5.1328    0.4752    0.0000 C   0  0  0  0  0  0  0  0  0  0  0  0
    7.6996    2.8015    0.0000 C   0  0  0  0  0  0  0  0  0  0  0  0
    8.0652    1.1085    0.0000 C   0  0  0  0  0  0  0  0  0  0  0  0
    4.1931   -0.8342    0.0000 C   0  0  0  0  0  0  0  0  0  0  0  0
    4.1881    0.1658    0.0000 C   0  0  0  0  0  0  0  0  0  0  0  0
    5.7204   -0.3266    0.0000 C   0  0  0  0  0  0  0  0  0  0  0  0
    9.3486    2.2717    0.0000 C   0  0  0  0  0  0  0  0  0  0  0  0
    3.4144   -1.4616    0.0000 C   0  0  0  0  0  0  0  0  0  0  0  0
    3.4032    0.7854    0.0000 C   0  0  0  0  0  0  0  0  0  0  0  0
   10.0201    1.5307    0.0000 C   0  0  0  0  0  0  0  0  0  0  0  0
    9.6545    3.2237    0.0000 C   0  0  0  0  0  0  0  0  0  0  0  0
    2.4384   -1.2439    0.0000 C   0  0  0  0  0  0  0  0  0  0  0  0
    2.4294    0.5580    0.0000 C   0  0  0  0  0  0  0  0  0  0  0  0
    2.0000   -0.3451    0.0000 C   0  0  0  0  0  0  0  0  0  0  0  0
   10.9976    1.7418    0.0000 C   0  0  0  0  0  0  0  0  0  0  0  0
   10.6320    3.4348    0.0000 C   0  0  0  0  0  0  0  0  0  0  0  0
   11.3035    2.6938    0.0000 C   0  0  0  0  0  0  0  0  0  0  0  0
   10.3858   -0.1623    0.0000 C   0  0  0  0  0  0  0  0  0  0  0  0
    6.1378   -3.3239    0.0000 H   0  0  0  0  0  0  0  0  0  0  0  0
    6.7337   -3.8532    0.0000 H   0  0  0  0  0  0  0  0  0  0  0  0
    7.3283   -0.9605    0.0000 H   0  0  0  0  0  0  0  0  0  0  0  0
    6.5719   -1.2119    0.0000 H   0  0  0  0  0  0  0  0  0  0  0  0
    4.8429   -2.1736    0.0000 H   0  0  0  0  0  0  0  0  0  0  0  0
    5.4388   -2.7029    0.0000 H   0  0  0  0  0  0  0  0  0  0  0  0
    5.4151    2.0468    0.0000 H   0  0  0  0  0  0  0  0  0  0  0  0
    4.8245    1.5116    0.0000 H   0  0  0  0  0  0  0  0  0  0  0  0
    6.6985    3.2100    0.0000 H   0  0  0  0  0  0  0  0  0  0  0  0
    6.1079    2.6747    0.0000 H   0  0  0  0  0  0  0  0  0  0  0  0
    6.5630    0.5672    0.0000 H   0  0  0  0  0  0  0  0  0  0  0  0
    7.3219    0.3233    0.0000 H   0  0  0  0  0  0  0  0  0  0  0  0
    7.5023   -4.0112    0.0000 H   0  0  0  0  0  0  0  0  0  0  0  0
    8.2587   -3.7598    0.0000 H   0  0  0  0  0  0  0  0  0  0  0  0
    8.6928   -1.6478    0.0000 H   0  0  0  0  0  0  0  0  0  0  0  0
    8.0969   -1.1185    0.0000 H   0  0  0  0  0  0  0  0  0  0  0  0
    8.7798   -3.1732    0.0000 H   0  0  0  0  0  0  0  0  0  0  0  0
    8.9403   -2.3925    0.0000 H   0  0  0  0  0  0  0  0  0  0  0  0
    8.2243    3.1318    0.0000 H   0  0  0  0  0  0  0  0  0  0  0  0
    7.4654    3.3756    0.0000 H   0  0  0  0  0  0  0  0  0  0  0  0
    8.0889    0.4890    0.0000 H   0  0  0  0  0  0  0  0  0  0  0  0
    8.6794    1.0242    0.0000 H   0  0  0  0  0  0  0  0  0  0  0  0
    6.3404   -0.3235    0.0000 H   0  0  0  0  0  0  0  0  0  0  0  0
    3.5554   -2.0654    0.0000 H   0  0  0  0  0  0  0  0  0  0  0  0
    3.5381    1.3905    0.0000 H   0  0  0  0  0  0  0  0  0  0  0  0
    9.2381    3.6831    0.0000 H   0  0  0  0  0  0  0  0  0  0  0  0
    2.0542   -1.7306    0.0000 H   0  0  0  0  0  0  0  0  0  0  0  0
    2.0404    1.0408    0.0000 H   0  0  0  0  0  0  0  0  0  0  0  0
    1.3800   -0.3482    0.0000 H   0  0  0  0  0  0  0  0  0  0  0  0
   11.4140    1.2824    0.0000 H   0  0  0  0  0  0  0  0  0  0  0  0
   10.8216    4.0251    0.0000 H   0  0  0  0  0  0  0  0  0  0  0  0
   11.9096    2.8247    0.0000 H   0  0  0  0  0  0  0  0  0  0  0  0
    9.9264   -0.5787    0.0000 H   0  0  0  0  0  0  0  0  0  0  0  0
   10.8021   -0.6217    0.0000 H   0  0  0  0  0  0  0  0  0  0  0  0
   10.8452    0.2540    0.0000 H   0  0  0  0  0  0  0  0  0  0  0  0
  1 24  1  0  0  0  0
  1 32  1  0  0  0  0
  2  5  1  0  0  0  0
  2  6  1  0  0  0  0
  2  7  1  0  0  0  0
  3  8  1  0  0  0  0
  3  9  1  0  0  0  0
  3 10  1  0  0  0  0
  4 16  1  0  0  0  0
  4 17  1  0  0  0  0
  4 21  1  0  0  0  0
  5 11  1  0  0  0  0
  5 33  1  0  0  0  0
  5 34  1  0  0  0  0
  6 12  1  0  0  0  0
  6 35  1  0  0  0  0
  6 36  1  0  0  0  0
  7 14  1  0  0  0  0
  7 37  1  0  0  0  0
  7 38  1  0  0  0  0
  8 15  1  0  0  0  0
  8 39  1  0  0  0  0
  8 40  1  0  0  0  0
  9 16  1  0  0  0  0
  9 41  1  0  0  0  0
  9 42  1  0  0  0  0
 10 17  1  0  0  0  0
 10 43  1  0  0  0  0
 10 44  1  0  0  0  0
 11 13  1  0  0  0  0
 11 45  1  0  0  0  0
 11 46  1  0  0  0  0
 12 13  1  0  0  0  0
 12 47  1  0  0  0  0
 12 48  1  0  0  0  0
 13 49  1  0  0  0  0
 13 50  1  0  0  0  0
 14 18  1  0  0  0  0
 14 20  2  0  0  0  0
 15 19  2  0  0  0  0
 15 20  1  0  0  0  0
 16 51  1  0  0  0  0
 16 52  1  0  0  0  0
 17 53  1  0  0  0  0
 17 54  1  0  0  0  0
 18 19  1  0  0  0  0
 18 22  2  0  0  0  0
 19 23  1  0  0  0  0
 20 55  1  0  0  0  0
 21 24  1  0  0  0  0
 21 25  2  0  0  0  0
 22 26  1  0  0  0  0
 22 56  1  0  0  0  0
 23 27  2  0  0  0  0
 23 57  1  0  0  0  0
 24 29  2  0  0  0  0
 25 30  1  0  0  0  0
 25 58  1  0  0  0  0
 26 28  2  0  0  0  0
 26 59  1  0  0  0  0
 27 28  1  0  0  0  0
 27 60  1  0  0  0  0
 28 61  1  0  0  0  0
 29 31  1  0  0  0  0
 29 62  1  0  0  0  0
 30 31  2  0  0  0  0
 30 63  1  0  0  0  0
 31 64  1  0  0  0  0
 32 65  1  0  0  0  0
 32 66  1  0  0  0  0
 32 67  1  0  0  0  0
M  END
> <PUBCHEM_COMPOUND_CID>
71457844

> <PUBCHEM_COMPOUND_CANONICALIZED>
1

> <PUBCHEM_CACTVS_COMPLEXITY>
557

> <PUBCHEM_CACTVS_HBOND_ACCEPTOR>
4

> <PUBCHEM_CACTVS_HBOND_DONOR>
0

> <PUBCHEM_CACTVS_ROTATABLE_BOND>
6

> <PUBCHEM_CACTVS_SUBSKEYS>
AAADcfB7IAAAAAAAAAAAAAAAAAAAAYAAAAA8WIAABgAAAADBQAAAHgAAAAAADAzBmAYyxsMABACAAiRCQACCCAAhIgAIiAAPbIgOZiLEsZuVMChkwBHY6AeQwMAOgAAAAAAAEAAAAAAAAAAgAQAACAAAAA==

> <PUBCHEM_IUPAC_OPENEYE_NAME>
1-(2-methoxyphenyl)-4-[[3-(1-piperidylmethyl)azulen-1-yl]methyl]piperazine

> <PUBCHEM_IUPAC_CAS_NAME>
1-(2-methoxyphenyl)-4-[[3-(1-piperidinylmethyl)-1-azulenyl]methyl]piperazine

> <PUBCHEM_IUPAC_NAME_MARKUP>
1-(2-methoxyphenyl)-4-[[3-(piperidin-1-ylmethyl)azulen-1-yl]methyl]piperazine

> <PUBCHEM_IUPAC_NAME>
1-(2-methoxyphenyl)-4-[[3-(piperidin-1-ylmethyl)azulen-1-yl]methyl]piperazine

> <PUBCHEM_IUPAC_SYSTEMATIC_NAME>
1-(2-methoxyphenyl)-4-[[3-(piperidin-1-ylmethyl)azulen-1-yl]methyl]piperazine

> <PUBCHEM_IUPAC_TRADITIONAL_NAME>
1-(2-methoxyphenyl)-4-[[3-(piperidinomethyl)azulen-1-yl]methyl]piperazine

> <PUBCHEM_IUPAC_INCHI>
InChI=1S/C28H35N3O/c1-32-28-13-7-6-12-27(28)31-18-16-30(17-19-31)22-24-20-23(21-29-14-8-3-9-15-29)25-10-4-2-5-11-26(24)25/h2,4-7,10-13,20H,3,8-9,14-19,21-22H2,1H3

> <PUBCHEM_IUPAC_INCHIKEY>
IOFOPIMDJBEBFZ-UHFFFAOYSA-N

> <PUBCHEM_XLOGP3_AA>
5

> <PUBCHEM_EXACT_MASS>
429.278012748

> <PUBCHEM_MOLECULAR_FORMULA>
C28H35N3O

> <PUBCHEM_MOLECULAR_WEIGHT>
429.6

> <PUBCHEM_OPENEYE_CAN_SMILES>
COC1=CC=CC=C1N2CCN(CC2)CC3=C4C=CC=CC=C4C(=C3)CN5CCCCC5

> <PUBCHEM_OPENEYE_ISO_SMILES>
COC1=CC=CC=C1N2CCN(CC2)CC3=C4C=CC=CC=C4C(=C3)CN5CCCCC5

> <PUBCHEM_CACTVS_TPSA>
19

> <PUBCHEM_MONOISOTOPIC_WEIGHT>
429.278012748

> <PUBCHEM_TOTAL_CHARGE>
0

> <PUBCHEM_HEAVY_ATOM_COUNT>
32

> <PUBCHEM_ATOM_DEF_STEREO_COUNT>
0

> <PUBCHEM_ATOM_UDEF_STEREO_COUNT>
0

> <PUBCHEM_BOND_DEF_STEREO_COUNT>
0

> <PUBCHEM_BOND_UDEF_STEREO_COUNT>
0

> <PUBCHEM_ISOTOPIC_ATOM_COUNT>
0

> <PUBCHEM_COMPONENT_COUNT>
1

> <PUBCHEM_CACTVS_TAUTO_COUNT>
-1

> <PUBCHEM_COORDINATE_TYPE>
1
5
255

> <PUBCHEM_BONDANNOTATIONS>
14  18  8
14  20  8
15  19  8
15  20  8
18  22  8
19  23  8
21  24  8
21  25  8
22  26  8
23  27  8
24  29  8
25  30  8
26  28  8
27  28  8
29  31  8
30  31  8

$$$$
