66801613
  -OEChem-09292322342D

 52 55  0     0  0  0  0  0  0999 V2000
   11.0776    4.3726    0.0000 Cl  0  0  0  0  0  0  0  0  0  0  0  0
    9.7419    5.8612    0.0000 Cl  0  0  0  0  0  0  0  0  0  0  0  0
    8.4993    2.0591    0.0000 S   0  0  0  0  0  0  0  0  0  0  0  0
    4.6783   -5.6659    0.0000 S   0  0  0  0  0  0  0  0  0  0  0  0
    9.4498    1.7484    0.0000 O   0  0  0  0  0  0  0  0  0  0  0  0
    7.5487    2.3698    0.0000 O   0  0  0  0  0  0  0  0  0  0  0  0
    5.6103   -1.2049    0.0000 N   0  0  0  0  0  0  0  0  0  0  0  0
    4.9889   -3.1059    0.0000 N   0  0  0  0  0  0  0  0  0  0  0  0
    8.1886    1.1086    0.0000 N   0  0  0  0  0  0  0  0  0  0  0  0
    5.2619   -4.8612    0.0000 N   0  0  0  0  0  0  0  0  0  0  0  0
    4.6318   -1.4111    0.0000 C   0  0  0  0  0  0  0  0  0  0  0  0
    6.2781   -1.9492    0.0000 C   0  0  0  0  0  0  0  0  0  0  0  0
    4.3211   -2.3616    0.0000 C   0  0  0  0  0  0  0  0  0  0  0  0
    5.9674   -2.8997    0.0000 C   0  0  0  0  0  0  0  0  0  0  0  0
    5.9209   -0.2544    0.0000 C   0  0  0  0  0  0  0  0  0  0  0  0
    6.8994   -0.0482    0.0000 C   0  0  0  0  0  0  0  0  0  0  0  0
    4.6783   -4.0564    0.0000 C   0  0  0  0  0  0  0  0  0  0  0  0
    7.2101    0.9024    0.0000 C   0  0  0  0  0  0  0  0  0  0  0  0
    3.7320   -4.3612    0.0000 C   0  0  0  0  0  0  0  0  0  0  0  0
    3.7320   -5.3612    0.0000 C   0  0  0  0  0  0  0  0  0  0  0  0
    2.8660   -3.8612    0.0000 C   0  0  0  0  0  0  0  0  0  0  0  0
    2.8660   -5.8612    0.0000 C   0  0  0  0  0  0  0  0  0  0  0  0
    8.8099    3.0096    0.0000 C   0  0  0  0  0  0  0  0  0  0  0  0
    2.0000   -4.3612    0.0000 C   0  0  0  0  0  0  0  0  0  0  0  0
    2.0000   -5.3612    0.0000 C   0  0  0  0  0  0  0  0  0  0  0  0
    9.7884    3.2158    0.0000 C   0  0  0  0  0  0  0  0  0  0  0  0
    8.1421    3.7539    0.0000 C   0  0  0  0  0  0  0  0  0  0  0  0
   10.0991    4.1664    0.0000 C   0  0  0  0  0  0  0  0  0  0  0  0
    8.4527    4.7044    0.0000 C   0  0  0  0  0  0  0  0  0  0  0  0
    9.4312    4.9107    0.0000 C   0  0  0  0  0  0  0  0  0  0  0  0
    4.6112   -0.7915    0.0000 H   0  0  0  0  0  0  0  0  0  0  0  0
    4.0179   -1.3238    0.0000 H   0  0  0  0  0  0  0  0  0  0  0  0
    6.8250   -2.2412    0.0000 H   0  0  0  0  0  0  0  0  0  0  0  0
    6.6607   -1.4613    0.0000 H   0  0  0  0  0  0  0  0  0  0  0  0
    3.7742   -2.0696    0.0000 H   0  0  0  0  0  0  0  0  0  0  0  0
    3.9385   -2.8495    0.0000 H   0  0  0  0  0  0  0  0  0  0  0  0
    5.9880   -3.5194    0.0000 H   0  0  0  0  0  0  0  0  0  0  0  0
    6.5812   -2.9871    0.0000 H   0  0  0  0  0  0  0  0  0  0  0  0
    5.9004    0.3653    0.0000 H   0  0  0  0  0  0  0  0  0  0  0  0
    5.3071   -0.1670    0.0000 H   0  0  0  0  0  0  0  0  0  0  0  0
    6.9200   -0.6678    0.0000 H   0  0  0  0  0  0  0  0  0  0  0  0
    7.5132   -0.1355    0.0000 H   0  0  0  0  0  0  0  0  0  0  0  0
    7.1895    1.5220    0.0000 H   0  0  0  0  0  0  0  0  0  0  0  0
    6.5963    0.9897    0.0000 H   0  0  0  0  0  0  0  0  0  0  0  0
    8.6027    0.6471    0.0000 H   0  0  0  0  0  0  0  0  0  0  0  0
    2.8660   -3.2412    0.0000 H   0  0  0  0  0  0  0  0  0  0  0  0
    2.8660   -6.4812    0.0000 H   0  0  0  0  0  0  0  0  0  0  0  0
    1.4631   -4.0512    0.0000 H   0  0  0  0  0  0  0  0  0  0  0  0
    1.4631   -5.6712    0.0000 H   0  0  0  0  0  0  0  0  0  0  0  0
   10.2025    2.7544    0.0000 H   0  0  0  0  0  0  0  0  0  0  0  0
    7.5354    3.6261    0.0000 H   0  0  0  0  0  0  0  0  0  0  0  0
    8.0387    5.1659    0.0000 H   0  0  0  0  0  0  0  0  0  0  0  0
  1 28  1  0  0  0  0
  2 30  1  0  0  0  0
  3  5  2  0  0  0  0
  3  6  2  0  0  0  0
  3  9  1  0  0  0  0
  3 23  1  0  0  0  0
  4 10  1  0  0  0  0
  4 20  1  0  0  0  0
  7 11  1  0  0  0  0
  7 12  1  0  0  0  0
  7 15  1  0  0  0  0
  8 13  1  0  0  0  0
  8 14  1  0  0  0  0
  8 17  1  0  0  0  0
  9 18  1  0  0  0  0
  9 45  1  0  0  0  0
 10 17  2  0  0  0  0
 11 13  1  0  0  0  0
 11 31  1  0  0  0  0
 11 32  1  0  0  0  0
 12 14  1  0  0  0  0
 12 33  1  0  0  0  0
 12 34  1  0  0  0  0
 13 35  1  0  0  0  0
 13 36  1  0  0  0  0
 14 37  1  0  0  0  0
 14 38  1  0  0  0  0
 15 16  1  0  0  0  0
 15 39  1  0  0  0  0
 15 40  1  0  0  0  0
 16 18  1  0  0  0  0
 16 41  1  0  0  0  0
 16 42  1  0  0  0  0
 17 19  1  0  0  0  0
 18 43  1  0  0  0  0
 18 44  1  0  0  0  0
 19 20  1  0  0  0  0
 19 21  2  0  0  0  0
 20 22  2  0  0  0  0
 21 24  1  0  0  0  0
 21 46  1  0  0  0  0
 22 25  1  0  0  0  0
 22 47  1  0  0  0  0
 23 26  2  0  0  0  0
 23 27  1  0  0  0  0
 24 25  2  0  0  0  0
 24 48  1  0  0  0  0
 25 49  1  0  0  0  0
 26 28  1  0  0  0  0
 26 50  1  0  0  0  0
 27 29  2  0  0  0  0
 27 51  1  0  0  0  0
 28 30  2  0  0  0  0
 29 30  1  0  0  0  0
 29 52  1  0  0  0  0
M  END
> <PUBCHEM_COMPOUND_CID>
66801613

> <PUBCHEM_COMPOUND_CANONICALIZED>
1

> <PUBCHEM_CACTVS_COMPLEXITY>
658

> <PUBCHEM_CACTVS_HBOND_ACCEPTOR>
7

> <PUBCHEM_CACTVS_HBOND_DONOR>
1

> <PUBCHEM_CACTVS_ROTATABLE_BOND>
7

> <PUBCHEM_CACTVS_SUBSKEYS>
AAADceB7sABmAAAAAAAAAAAAAAAAAWAAAAA8YIAAAAAAAFgB9AAAHAYQQAAADALBWiQxsdNAAAKkAiJiYHDDABAhBQBJmvgoRpiIYKLB25GUIAxgkALIyAcQgAAOAAIAABAEAAQABAAAIAgACAAAAAAAAA==

> <PUBCHEM_IUPAC_OPENEYE_NAME>
N-[3-[4-(1,2-benzothiazol-3-yl)piperazin-1-yl]propyl]-3,4-dichloro-benzenesulfonamide

> <PUBCHEM_IUPAC_CAS_NAME>
N-[3-[4-(1,2-benzothiazol-3-yl)-1-piperazinyl]propyl]-3,4-dichlorobenzenesulfonamide

> <PUBCHEM_IUPAC_NAME_MARKUP>
<I>N</I>-[3-[4-(1,2-benzothiazol-3-yl)piperazin-1-yl]propyl]-3,4-dichlorobenzenesulfonamide

> <PUBCHEM_IUPAC_NAME>
N-[3-[4-(1,2-benzothiazol-3-yl)piperazin-1-yl]propyl]-3,4-dichlorobenzenesulfonamide

> <PUBCHEM_IUPAC_SYSTEMATIC_NAME>
N-[3-[4-(1,2-benzothiazol-3-yl)piperazin-1-yl]propyl]-3,4-bis(chloranyl)benzenesulfonamide

> <PUBCHEM_IUPAC_TRADITIONAL_NAME>
N-[3-[4-(1,2-benzothiazol-3-yl)piperazino]propyl]-3,4-dichloro-benzenesulfonamide

> <PUBCHEM_IUPAC_INCHI>
InChI=1S/C20H22Cl2N4O2S2/c21-17-7-6-15(14-18(17)22)30(27,28)23-8-3-9-25-10-12-26(13-11-25)20-16-4-1-2-5-19(16)29-24-20/h1-2,4-7,14,23H,3,8-13H2

> <PUBCHEM_IUPAC_INCHIKEY>
NJTCYGAQRADUAS-UHFFFAOYSA-N

> <PUBCHEM_XLOGP3_AA>
4.9

> <PUBCHEM_EXACT_MASS>
484.0561237

> <PUBCHEM_MOLECULAR_FORMULA>
C20H22Cl2N4O2S2

> <PUBCHEM_MOLECULAR_WEIGHT>
485.5

> <PUBCHEM_OPENEYE_CAN_SMILES>
C1CN(CCN1CCCNS(=O)(=O)C2=CC(=C(C=C2)Cl)Cl)C3=NSC4=CC=CC=C43

> <PUBCHEM_OPENEYE_ISO_SMILES>
C1CN(CCN1CCCNS(=O)(=O)C2=CC(=C(C=C2)Cl)Cl)C3=NSC4=CC=CC=C43

> <PUBCHEM_CACTVS_TPSA>
102

> <PUBCHEM_MONOISOTOPIC_WEIGHT>
484.0561237

> <PUBCHEM_TOTAL_CHARGE>
0

> <PUBCHEM_HEAVY_ATOM_COUNT>
30

> <PUBCHEM_ATOM_DEF_STEREO_COUNT>
0

> <PUBCHEM_ATOM_UDEF_STEREO_COUNT>
0

> <PUBCHEM_BOND_DEF_STEREO_COUNT>
0

> <PUBCHEM_BOND_UDEF_STEREO_COUNT>
0

> <PUBCHEM_ISOTOPIC_ATOM_COUNT>
0

> <PUBCHEM_COMPONENT_COUNT>
1

> <PUBCHEM_CACTVS_TAUTO_COUNT>
-1

> <PUBCHEM_COORDINATE_TYPE>
1
5
255

> <PUBCHEM_BONDANNOTATIONS>
10  17  8
17  19  8
19  20  8
19  21  8
20  22  8
21  24  8
22  25  8
23  26  8
23  27  8
24  25  8
26  28  8
27  29  8
28  30  8
29  30  8
4  10  8
4  20  8

$$$$
