44393415
  -OEChem-09292322092D

 53 55  0     0  0  0  0  0  0999 V2000
    8.2839    6.4239    0.0000 I   0  0  0  0  0  0  0  0  0  0  0  0
    8.0052    4.6639    0.0000 S   0  0  0  0  0  0  0  0  0  0  0  0
    2.8660   -4.4239    0.0000 O   0  0  0  0  0  0  0  0  0  0  0  0
    8.0622    2.5761    0.0000 O   0  0  0  0  0  0  0  0  0  0  0  0
    4.5981   -1.4239    0.0000 N   0  0  0  0  0  0  0  0  0  0  0  0
    4.5981   -3.4239    0.0000 N   0  0  0  0  0  0  0  0  0  0  0  0
    6.3301    2.5761    0.0000 N   0  0  0  0  0  0  0  0  0  0  0  0
    5.4641   -1.9239    0.0000 C   0  0  0  0  0  0  0  0  0  0  0  0
    3.7320   -1.9239    0.0000 C   0  0  0  0  0  0  0  0  0  0  0  0
    5.4641   -2.9239    0.0000 C   0  0  0  0  0  0  0  0  0  0  0  0
    3.7320   -2.9239    0.0000 C   0  0  0  0  0  0  0  0  0  0  0  0
    4.5981   -0.4239    0.0000 C   0  0  0  0  0  0  0  0  0  0  0  0
    5.4641    0.0761    0.0000 C   0  0  0  0  0  0  0  0  0  0  0  0
    4.5981   -4.4239    0.0000 C   0  0  0  0  0  0  0  0  0  0  0  0
    5.4641    1.0761    0.0000 C   0  0  0  0  0  0  0  0  0  0  0  0
    6.3301    1.5761    0.0000 C   0  0  0  0  0  0  0  0  0  0  0  0
    3.7320   -4.9239    0.0000 C   0  0  0  0  0  0  0  0  0  0  0  0
    5.4641   -4.9239    0.0000 C   0  0  0  0  0  0  0  0  0  0  0  0
    3.7320   -5.9239    0.0000 C   0  0  0  0  0  0  0  0  0  0  0  0
    5.4641   -5.9239    0.0000 C   0  0  0  0  0  0  0  0  0  0  0  0
    4.5981   -6.4239    0.0000 C   0  0  0  0  0  0  0  0  0  0  0  0
    7.1962    3.0761    0.0000 C   0  0  0  0  0  0  0  0  0  0  0  0
    2.0000   -4.9239    0.0000 C   0  0  0  0  0  0  0  0  0  0  0  0
    7.1962    4.0761    0.0000 C   0  0  0  0  0  0  0  0  0  0  0  0
    6.3871    4.6639    0.0000 C   0  0  0  0  0  0  0  0  0  0  0  0
    6.6962    5.6149    0.0000 C   0  0  0  0  0  0  0  0  0  0  0  0
    7.6962    5.6149    0.0000 C   0  0  0  0  0  0  0  0  0  0  0  0
    6.0747   -2.0316    0.0000 H   0  0  0  0  0  0  0  0  0  0  0  0
    5.6762   -1.3413    0.0000 H   0  0  0  0  0  0  0  0  0  0  0  0
    3.5200   -1.3413    0.0000 H   0  0  0  0  0  0  0  0  0  0  0  0
    3.1215   -2.0316    0.0000 H   0  0  0  0  0  0  0  0  0  0  0  0
    5.6762   -3.5065    0.0000 H   0  0  0  0  0  0  0  0  0  0  0  0
    6.0747   -2.8163    0.0000 H   0  0  0  0  0  0  0  0  0  0  0  0
    3.1215   -2.8163    0.0000 H   0  0  0  0  0  0  0  0  0  0  0  0
    3.5200   -3.5065    0.0000 H   0  0  0  0  0  0  0  0  0  0  0  0
    4.3860    0.1587    0.0000 H   0  0  0  0  0  0  0  0  0  0  0  0
    3.9875   -0.5316    0.0000 H   0  0  0  0  0  0  0  0  0  0  0  0
    5.6762   -0.5065    0.0000 H   0  0  0  0  0  0  0  0  0  0  0  0
    6.0747    0.1837    0.0000 H   0  0  0  0  0  0  0  0  0  0  0  0
    5.2520    1.6587    0.0000 H   0  0  0  0  0  0  0  0  0  0  0  0
    4.8535    0.9684    0.0000 H   0  0  0  0  0  0  0  0  0  0  0  0
    6.5422    0.9935    0.0000 H   0  0  0  0  0  0  0  0  0  0  0  0
    6.9407    1.6837    0.0000 H   0  0  0  0  0  0  0  0  0  0  0  0
    6.0010   -4.6139    0.0000 H   0  0  0  0  0  0  0  0  0  0  0  0
    3.1951   -6.2339    0.0000 H   0  0  0  0  0  0  0  0  0  0  0  0
    6.0010   -6.2339    0.0000 H   0  0  0  0  0  0  0  0  0  0  0  0
    5.7932    2.8861    0.0000 H   0  0  0  0  0  0  0  0  0  0  0  0
    4.5981   -7.0439    0.0000 H   0  0  0  0  0  0  0  0  0  0  0  0
    1.6900   -4.3870    0.0000 H   0  0  0  0  0  0  0  0  0  0  0  0
    1.4631   -5.2339    0.0000 H   0  0  0  0  0  0  0  0  0  0  0  0
    2.3100   -5.4609    0.0000 H   0  0  0  0  0  0  0  0  0  0  0  0
    5.7975    4.4723    0.0000 H   0  0  0  0  0  0  0  0  0  0  0  0
    6.3317    6.1165    0.0000 H   0  0  0  0  0  0  0  0  0  0  0  0
  1 27  1  0  0  0  0
  2 24  1  0  0  0  0
  2 27  1  0  0  0  0
  3 17  1  0  0  0  0
  3 23  1  0  0  0  0
  4 22  2  0  0  0  0
  5  8  1  0  0  0  0
  5  9  1  0  0  0  0
  5 12  1  0  0  0  0
  6 10  1  0  0  0  0
  6 11  1  0  0  0  0
  6 14  1  0  0  0  0
  7 16  1  0  0  0  0
  7 22  1  0  0  0  0
  7 47  1  0  0  0  0
  8 10  1  0  0  0  0
  8 28  1  0  0  0  0
  8 29  1  0  0  0  0
  9 11  1  0  0  0  0
  9 30  1  0  0  0  0
  9 31  1  0  0  0  0
 10 32  1  0  0  0  0
 10 33  1  0  0  0  0
 11 34  1  0  0  0  0
 11 35  1  0  0  0  0
 12 13  1  0  0  0  0
 12 36  1  0  0  0  0
 12 37  1  0  0  0  0
 13 15  1  0  0  0  0
 13 38  1  0  0  0  0
 13 39  1  0  0  0  0
 14 17  1  0  0  0  0
 14 18  2  0  0  0  0
 15 16  1  0  0  0  0
 15 40  1  0  0  0  0
 15 41  1  0  0  0  0
 16 42  1  0  0  0  0
 16 43  1  0  0  0  0
 17 19  2  0  0  0  0
 18 20  1  0  0  0  0
 18 44  1  0  0  0  0
 19 21  1  0  0  0  0
 19 45  1  0  0  0  0
 20 21  2  0  0  0  0
 20 46  1  0  0  0  0
 21 48  1  0  0  0  0
 22 24  1  0  0  0  0
 23 49  1  0  0  0  0
 23 50  1  0  0  0  0
 23 51  1  0  0  0  0
 24 25  2  0  0  0  0
 25 26  1  0  0  0  0
 25 52  1  0  0  0  0
 26 27  2  0  0  0  0
 26 53  1  0  0  0  0
M  END
> <PUBCHEM_COMPOUND_CID>
44393415

> <PUBCHEM_COMPOUND_CANONICALIZED>
1

> <PUBCHEM_CACTVS_COMPLEXITY>
463

> <PUBCHEM_CACTVS_HBOND_ACCEPTOR>
5

> <PUBCHEM_CACTVS_HBOND_DONOR>
1

> <PUBCHEM_CACTVS_ROTATABLE_BOND>
8

> <PUBCHEM_CACTVS_SUBSKEYS>
AAADceB7MABAAgAAAAAAAAAAAAAAASAAAAA8QAAAAAAAAAABwAAAHgQwAAAACAzD0AYyx4PABAiMACVSUACDCIAlKhBIiJkPbMgOZjLktZuVMShk1hH46YeYQAAAAAAAAAAAEAAAAAAAAAAgAAAAAAAAAA==

> <PUBCHEM_IUPAC_OPENEYE_NAME>
5-iodo-N-[4-[4-(2-methoxyphenyl)piperazin-1-yl]butyl]thiophene-2-carboxamide

> <PUBCHEM_IUPAC_CAS_NAME>
5-iodo-N-[4-[4-(2-methoxyphenyl)-1-piperazinyl]butyl]-2-thiophenecarboxamide

> <PUBCHEM_IUPAC_NAME_MARKUP>
5-iodo-<I>N</I>-[4-[4-(2-methoxyphenyl)piperazin-1-yl]butyl]thiophene-2-carboxamide

> <PUBCHEM_IUPAC_NAME>
5-iodo-N-[4-[4-(2-methoxyphenyl)piperazin-1-yl]butyl]thiophene-2-carboxamide

> <PUBCHEM_IUPAC_SYSTEMATIC_NAME>
5-iodanyl-N-[4-[4-(2-methoxyphenyl)piperazin-1-yl]butyl]thiophene-2-carboxamide

> <PUBCHEM_IUPAC_TRADITIONAL_NAME>
5-iodo-N-[4-[4-(2-methoxyphenyl)piperazino]butyl]thiophene-2-carboxamide

> <PUBCHEM_IUPAC_INCHI>
InChI=1S/C20H26IN3O2S/c1-26-17-7-3-2-6-16(17)24-14-12-23(13-15-24)11-5-4-10-22-20(25)18-8-9-19(21)27-18/h2-3,6-9H,4-5,10-15H2,1H3,(H,22,25)

> <PUBCHEM_IUPAC_INCHIKEY>
HBYKTDPONPUZPO-UHFFFAOYSA-N

> <PUBCHEM_XLOGP3_AA>
4.2

> <PUBCHEM_EXACT_MASS>
499.07905

> <PUBCHEM_MOLECULAR_FORMULA>
C20H26IN3O2S

> <PUBCHEM_MOLECULAR_WEIGHT>
499.4

> <PUBCHEM_OPENEYE_CAN_SMILES>
COC1=CC=CC=C1N2CCN(CC2)CCCCNC(=O)C3=CC=C(S3)I

> <PUBCHEM_OPENEYE_ISO_SMILES>
COC1=CC=CC=C1N2CCN(CC2)CCCCNC(=O)C3=CC=C(S3)I

> <PUBCHEM_CACTVS_TPSA>
73

> <PUBCHEM_MONOISOTOPIC_WEIGHT>
499.07905

> <PUBCHEM_TOTAL_CHARGE>
0

> <PUBCHEM_HEAVY_ATOM_COUNT>
27

> <PUBCHEM_ATOM_DEF_STEREO_COUNT>
0

> <PUBCHEM_ATOM_UDEF_STEREO_COUNT>
0

> <PUBCHEM_BOND_DEF_STEREO_COUNT>
0

> <PUBCHEM_BOND_UDEF_STEREO_COUNT>
0

> <PUBCHEM_ISOTOPIC_ATOM_COUNT>
0

> <PUBCHEM_COMPONENT_COUNT>
1

> <PUBCHEM_CACTVS_TAUTO_COUNT>
-1

> <PUBCHEM_COORDINATE_TYPE>
1
5
255

> <PUBCHEM_BONDANNOTATIONS>
14  17  8
14  18  8
17  19  8
18  20  8
19  21  8
2  24  8
2  27  8
20  21  8
24  25  8
25  26  8
26  27  8

$$$$
