118736376
  -OEChem-09292322352D

 67 71  0     0  0  0  0  0  0999 V2000
   14.7459   -4.4980    0.0000 Cl  0  0  0  0  0  0  0  0  0  0  0  0
   16.6491   -3.8832    0.0000 Cl  0  0  0  0  0  0  0  0  0  0  0  0
    3.3823    0.6280    0.0000 O   0  0  0  0  0  0  0  0  0  0  0  0
    2.6330    4.0876    0.0000 O   0  0  0  0  0  0  0  0  0  0  0  0
   12.1972    0.1392    0.0000 N   0  0  0  0  0  0  0  0  0  0  0  0
   13.6811   -1.2016    0.0000 N   0  0  0  0  0  0  0  0  0  0  0  0
    7.1164    1.2284    0.0000 N   0  0  0  0  0  0  0  0  0  0  0  0
    5.5047    1.2270    0.0000 N   0  0  0  0  0  0  0  0  0  0  0  0
    6.0047    2.7658    0.0000 N   0  0  0  0  0  0  0  0  0  0  0  0
    4.3197    3.5506    0.0000 N   0  0  0  0  0  0  0  0  0  0  0  0
    2.9773    2.3512    0.0000 N   0  0  0  0  0  0  0  0  0  0  0  0
   11.9875   -0.8385    0.0000 C   0  0  0  0  0  0  0  0  0  0  0  0
   13.1487    0.4466    0.0000 C   0  0  0  0  0  0  0  0  0  0  0  0
   11.4552    0.8097    0.0000 C   0  0  0  0  0  0  0  0  0  0  0  0
   12.7295   -1.5090    0.0000 C   0  0  0  0  0  0  0  0  0  0  0  0
   13.8907   -0.2238    0.0000 C   0  0  0  0  0  0  0  0  0  0  0  0
   10.5036    0.5023    0.0000 C   0  0  0  0  0  0  0  0  0  0  0  0
    9.7616    1.1727    0.0000 C   0  0  0  0  0  0  0  0  0  0  0  0
    8.8100    0.8653    0.0000 C   0  0  0  0  0  0  0  0  0  0  0  0
    8.0680    1.5358    0.0000 C   0  0  0  0  0  0  0  0  0  0  0  0
    6.3137    1.8148    0.0000 C   0  0  0  0  0  0  0  0  0  0  0  0
    6.8084    0.2832    0.0000 C   0  0  0  0  0  0  0  0  0  0  0  0
   14.4231   -1.8720    0.0000 C   0  0  0  0  0  0  0  0  0  0  0  0
    4.6957    1.8148    0.0000 C   0  0  0  0  0  0  0  0  0  0  0  0
    5.8143    0.2824    0.0000 C   0  0  0  0  0  0  0  0  0  0  0  0
    5.0047    2.7658    0.0000 C   0  0  0  0  0  0  0  0  0  0  0  0
    7.3962   -0.5258    0.0000 C   0  0  0  0  0  0  0  0  0  0  0  0
    3.6803    1.5825    0.0000 C   0  0  0  0  0  0  0  0  0  0  0  0
   14.2135   -2.8498    0.0000 C   0  0  0  0  0  0  0  0  0  0  0  0
   15.3747   -1.5646    0.0000 C   0  0  0  0  0  0  0  0  0  0  0  0
    3.2992    3.3419    0.0000 C   0  0  0  0  0  0  0  0  0  0  0  0
    4.6397    4.4980    0.0000 C   0  0  0  0  0  0  0  0  0  0  0  0
   14.9555   -3.5202    0.0000 C   0  0  0  0  0  0  0  0  0  0  0  0
   16.1167   -2.2350    0.0000 C   0  0  0  0  0  0  0  0  0  0  0  0
    2.0000    2.1395    0.0000 C   0  0  0  0  0  0  0  0  0  0  0  0
   15.9071   -3.2128    0.0000 C   0  0  0  0  0  0  0  0  0  0  0  0
   11.4131   -0.6053    0.0000 H   0  0  0  0  0  0  0  0  0  0  0  0
   11.6581   -1.3638    0.0000 H   0  0  0  0  0  0  0  0  0  0  0  0
   13.6380    0.8275    0.0000 H   0  0  0  0  0  0  0  0  0  0  0  0
   12.8586    0.9946    0.0000 H   0  0  0  0  0  0  0  0  0  0  0  0
   11.9444    1.1905    0.0000 H   0  0  0  0  0  0  0  0  0  0  0  0
   11.1650    1.3576    0.0000 H   0  0  0  0  0  0  0  0  0  0  0  0
   12.2403   -1.8898    0.0000 H   0  0  0  0  0  0  0  0  0  0  0  0
   13.0197   -2.0569    0.0000 H   0  0  0  0  0  0  0  0  0  0  0  0
   14.4652   -0.4570    0.0000 H   0  0  0  0  0  0  0  0  0  0  0  0
   14.2202    0.3014    0.0000 H   0  0  0  0  0  0  0  0  0  0  0  0
   10.0143    0.1214    0.0000 H   0  0  0  0  0  0  0  0  0  0  0  0
   10.7937   -0.0456    0.0000 H   0  0  0  0  0  0  0  0  0  0  0  0
   10.2508    1.5536    0.0000 H   0  0  0  0  0  0  0  0  0  0  0  0
    9.4715    1.7206    0.0000 H   0  0  0  0  0  0  0  0  0  0  0  0
    8.3208    0.4845    0.0000 H   0  0  0  0  0  0  0  0  0  0  0  0
    9.1001    0.3174    0.0000 H   0  0  0  0  0  0  0  0  0  0  0  0
    8.5572    1.9166    0.0000 H   0  0  0  0  0  0  0  0  0  0  0  0
    7.7779    2.0837    0.0000 H   0  0  0  0  0  0  0  0  0  0  0  0
    5.4508   -0.2199    0.0000 H   0  0  0  0  0  0  0  0  0  0  0  0
    6.8946   -0.8902    0.0000 H   0  0  0  0  0  0  0  0  0  0  0  0
    7.7606   -1.0274    0.0000 H   0  0  0  0  0  0  0  0  0  0  0  0
    7.8978   -0.1614    0.0000 H   0  0  0  0  0  0  0  0  0  0  0  0
   13.6235   -3.0404    0.0000 H   0  0  0  0  0  0  0  0  0  0  0  0
   15.5047   -0.9584    0.0000 H   0  0  0  0  0  0  0  0  0  0  0  0
    5.2271    4.2996    0.0000 H   0  0  0  0  0  0  0  0  0  0  0  0
    4.8381    5.0854    0.0000 H   0  0  0  0  0  0  0  0  0  0  0  0
    4.0523    4.6964    0.0000 H   0  0  0  0  0  0  0  0  0  0  0  0
   16.7067   -2.0445    0.0000 H   0  0  0  0  0  0  0  0  0  0  0  0
    1.8688    2.7455    0.0000 H   0  0  0  0  0  0  0  0  0  0  0  0
    1.3940    2.0083    0.0000 H   0  0  0  0  0  0  0  0  0  0  0  0
    2.1312    1.5336    0.0000 H   0  0  0  0  0  0  0  0  0  0  0  0
  1 33  1  0  0  0  0
  2 36  1  0  0  0  0
  3 28  2  0  0  0  0
  4 31  2  0  0  0  0
  5 12  1  0  0  0  0
  5 13  1  0  0  0  0
  5 14  1  0  0  0  0
  6 15  1  0  0  0  0
  6 16  1  0  0  0  0
  6 23  1  0  0  0  0
  7 20  1  0  0  0  0
  7 21  1  0  0  0  0
  7 22  1  0  0  0  0
  8 21  1  0  0  0  0
  8 24  1  0  0  0  0
  8 25  1  0  0  0  0
  9 21  2  0  0  0  0
  9 26  1  0  0  0  0
 10 26  1  0  0  0  0
 10 31  1  0  0  0  0
 10 32  1  0  0  0  0
 11 28  1  0  0  0  0
 11 31  1  0  0  0  0
 11 35  1  0  0  0  0
 12 15  1  0  0  0  0
 12 37  1  0  0  0  0
 12 38  1  0  0  0  0
 13 16  1  0  0  0  0
 13 39  1  0  0  0  0
 13 40  1  0  0  0  0
 14 17  1  0  0  0  0
 14 41  1  0  0  0  0
 14 42  1  0  0  0  0
 15 43  1  0  0  0  0
 15 44  1  0  0  0  0
 16 45  1  0  0  0  0
 16 46  1  0  0  0  0
 17 18  1  0  0  0  0
 17 47  1  0  0  0  0
 17 48  1  0  0  0  0
 18 19  1  0  0  0  0
 18 49  1  0  0  0  0
 18 50  1  0  0  0  0
 19 20  1  0  0  0  0
 19 51  1  0  0  0  0
 19 52  1  0  0  0  0
 20 53  1  0  0  0  0
 20 54  1  0  0  0  0
 22 25  2  0  0  0  0
 22 27  1  0  0  0  0
 23 29  2  0  0  0  0
 23 30  1  0  0  0  0
 24 26  2  0  0  0  0
 24 28  1  0  0  0  0
 25 55  1  0  0  0  0
 27 56  1  0  0  0  0
 27 57  1  0  0  0  0
 27 58  1  0  0  0  0
 29 33  1  0  0  0  0
 29 59  1  0  0  0  0
 30 34  2  0  0  0  0
 30 60  1  0  0  0  0
 32 61  1  0  0  0  0
 32 62  1  0  0  0  0
 32 63  1  0  0  0  0
 33 36  2  0  0  0  0
 34 36  1  0  0  0  0
 34 64  1  0  0  0  0
 35 65  1  0  0  0  0
 35 66  1  0  0  0  0
 35 67  1  0  0  0  0
M  END
> <PUBCHEM_COMPOUND_CID>
118736376

> <PUBCHEM_COMPOUND_CANONICALIZED>
1

> <PUBCHEM_CACTVS_COMPLEXITY>
813

> <PUBCHEM_CACTVS_HBOND_ACCEPTOR>
5

> <PUBCHEM_CACTVS_HBOND_DONOR>
0

> <PUBCHEM_CACTVS_ROTATABLE_BOND>
7

> <PUBCHEM_CACTVS_SUBSKEYS>
AAADceB7sAAGAAAAAAAAAAAAAAAAAWLAAAA8WIAAAAAWAFgB8AAAHgIAAAAACArBliQ/8JcMGACoATd3dACCgC03F6AJ2kG4dsiIaGrB27GUIIhohyLIyGcQAAAAAABAAAIAAAQAAIAABAAACAAAAAAAAA==

> <PUBCHEM_IUPAC_OPENEYE_NAME>
6-[5-[4-(3,4-dichlorophenyl)piperazin-1-yl]pentyl]-2,4,7-trimethyl-purino[7,8-a]imidazole-1,3-dione

> <PUBCHEM_IUPAC_CAS_NAME>
6-[5-[4-(3,4-dichlorophenyl)-1-piperazinyl]pentyl]-2,4,7-trimethylpurino[7,8-a]imidazole-1,3-dione

> <PUBCHEM_IUPAC_NAME_MARKUP>
6-[5-[4-(3,4-dichlorophenyl)piperazin-1-yl]pentyl]-2,4,7-trimethylpurino[7,8-a]imidazole-1,3-dione

> <PUBCHEM_IUPAC_NAME>
6-[5-[4-(3,4-dichlorophenyl)piperazin-1-yl]pentyl]-2,4,7-trimethylpurino[7,8-a]imidazole-1,3-dione

> <PUBCHEM_IUPAC_SYSTEMATIC_NAME>
6-[5-[4-(3,4-dichlorophenyl)piperazin-1-yl]pentyl]-2,4,7-trimethyl-purino[7,8-a]imidazole-1,3-dione

> <PUBCHEM_IUPAC_TRADITIONAL_NAME>
6-[5-[4-(3,4-dichlorophenyl)piperazino]pentyl]-2,4,7-trimethyl-purin[7,8-a]imidazole-1,3-quinone

> <PUBCHEM_IUPAC_INCHI>
InChI=1S/C25H31Cl2N7O2/c1-17-16-34-21-22(29(2)25(36)30(3)23(21)35)28-24(34)33(17)10-6-4-5-9-31-11-13-32(14-12-31)18-7-8-19(26)20(27)15-18/h7-8,15-16H,4-6,9-14H2,1-3H3

> <PUBCHEM_IUPAC_INCHIKEY>
QAJBLBPQVIYECG-UHFFFAOYSA-N

> <PUBCHEM_XLOGP3_AA>
4.8

> <PUBCHEM_EXACT_MASS>
531.1916286

> <PUBCHEM_MOLECULAR_FORMULA>
C25H31Cl2N7O2

> <PUBCHEM_MOLECULAR_WEIGHT>
532.5

> <PUBCHEM_OPENEYE_CAN_SMILES>
CC1=CN2C3=C(N=C2N1CCCCCN4CCN(CC4)C5=CC(=C(C=C5)Cl)Cl)N(C(=O)N(C3=O)C)C

> <PUBCHEM_OPENEYE_ISO_SMILES>
CC1=CN2C3=C(N=C2N1CCCCCN4CCN(CC4)C5=CC(=C(C=C5)Cl)Cl)N(C(=O)N(C3=O)C)C

> <PUBCHEM_CACTVS_TPSA>
69.3

> <PUBCHEM_MONOISOTOPIC_WEIGHT>
531.1916286

> <PUBCHEM_TOTAL_CHARGE>
0

> <PUBCHEM_HEAVY_ATOM_COUNT>
36

> <PUBCHEM_ATOM_DEF_STEREO_COUNT>
0

> <PUBCHEM_ATOM_UDEF_STEREO_COUNT>
0

> <PUBCHEM_BOND_DEF_STEREO_COUNT>
0

> <PUBCHEM_BOND_UDEF_STEREO_COUNT>
0

> <PUBCHEM_ISOTOPIC_ATOM_COUNT>
0

> <PUBCHEM_COMPONENT_COUNT>
1

> <PUBCHEM_CACTVS_TAUTO_COUNT>
-1

> <PUBCHEM_COORDINATE_TYPE>
1
5
255

> <PUBCHEM_BONDANNOTATIONS>
10  26  8
10  31  8
11  28  8
11  31  8
22  25  8
23  29  8
23  30  8
24  26  8
24  28  8
29  33  8
30  34  8
33  36  8
34  36  8
7  21  8
7  22  8
8  21  8
8  24  8
8  25  8
9  21  8
9  26  8

$$$$
