156017609
  -OEChem-09292322422D

 65 69  0     0  0  0  0  0  0999 V2000
    3.7822   -1.5935    0.0000 S   0  0  0  0  0  0  0  0  0  0  0  0
   13.5295    1.5668    0.0000 O   0  0  0  0  0  0  0  0  0  0  0  0
   18.7917   -0.4573    0.0000 O   0  0  0  0  0  0  0  0  0  0  0  0
    7.4655    1.0902    0.0000 N   0  0  0  0  0  0  0  0  0  0  0  0
    5.7296    0.0969    0.0000 N   0  0  0  0  0  0  0  0  0  0  0  0
    4.7548   -1.3881    0.0000 N   0  0  0  0  0  0  0  0  0  0  0  0
   17.0597   -0.4573    0.0000 N   0  0  0  0  0  0  0  0  0  0  0  0
    6.6014    1.5935    0.0000 C   0  0  0  0  0  0  0  0  0  0  0  0
    7.4616    0.0902    0.0000 C   0  0  0  0  0  0  0  0  0  0  0  0
    5.7334    1.0969    0.0000 C   0  0  0  0  0  0  0  0  0  0  0  0
    6.5937   -0.4064    0.0000 C   0  0  0  0  0  0  0  0  0  0  0  0
    8.3334    1.5869    0.0000 C   0  0  0  0  0  0  0  0  0  0  0  0
    9.1975    1.0835    0.0000 C   0  0  0  0  0  0  0  0  0  0  0  0
   10.0654    1.5802    0.0000 C   0  0  0  0  0  0  0  0  0  0  0  0
    4.8616   -0.3998    0.0000 C   0  0  0  0  0  0  0  0  0  0  0  0
   10.9295    1.0769    0.0000 C   0  0  0  0  0  0  0  0  0  0  0  0
   11.7975    1.5735    0.0000 C   0  0  0  0  0  0  0  0  0  0  0  0
    3.9554    0.0088    0.0000 C   0  0  0  0  0  0  0  0  0  0  0  0
   12.6616    1.0702    0.0000 C   0  0  0  0  0  0  0  0  0  0  0  0
    3.2847   -0.7329    0.0000 C   0  0  0  0  0  0  0  0  0  0  0  0
    3.6484    0.9606    0.0000 C   0  0  0  0  0  0  0  0  0  0  0  0
   16.1936    1.0427    0.0000 C   0  0  0  0  0  0  0  0  0  0  0  0
   17.0597    1.5427    0.0000 C   0  0  0  0  0  0  0  0  0  0  0  0
    2.3070   -0.5229    0.0000 C   0  0  0  0  0  0  0  0  0  0  0  0
   14.3936    1.0635    0.0000 C   0  0  0  0  0  0  0  0  0  0  0  0
   16.1936    0.0427    0.0000 C   0  0  0  0  0  0  0  0  0  0  0  0
   17.9257    1.0427    0.0000 C   0  0  0  0  0  0  0  0  0  0  0  0
    2.6707    1.1705    0.0000 C   0  0  0  0  0  0  0  0  0  0  0  0
   15.2997    1.5774    0.0000 C   0  0  0  0  0  0  0  0  0  0  0  0
    2.0000    0.4288    0.0000 C   0  0  0  0  0  0  0  0  0  0  0  0
   14.3936    0.0219    0.0000 C   0  0  0  0  0  0  0  0  0  0  0  0
   15.2997   -0.4920    0.0000 C   0  0  0  0  0  0  0  0  0  0  0  0
   17.9257    0.0427    0.0000 C   0  0  0  0  0  0  0  0  0  0  0  0
    7.0017    2.0670    0.0000 H   0  0  0  0  0  0  0  0  0  0  0  0
    6.2047    2.0700    0.0000 H   0  0  0  0  0  0  0  0  0  0  0  0
    7.6714   -0.4932    0.0000 H   0  0  0  0  0  0  0  0  0  0  0  0
    8.0726    0.1955    0.0000 H   0  0  0  0  0  0  0  0  0  0  0  0
    5.5236    1.6803    0.0000 H   0  0  0  0  0  0  0  0  0  0  0  0
    5.1224    0.9916    0.0000 H   0  0  0  0  0  0  0  0  0  0  0  0
    6.1933   -0.8799    0.0000 H   0  0  0  0  0  0  0  0  0  0  0  0
    6.9904   -0.8829    0.0000 H   0  0  0  0  0  0  0  0  0  0  0  0
    8.7338    2.0603    0.0000 H   0  0  0  0  0  0  0  0  0  0  0  0
    7.9367    2.0633    0.0000 H   0  0  0  0  0  0  0  0  0  0  0  0
    8.7972    0.6101    0.0000 H   0  0  0  0  0  0  0  0  0  0  0  0
    9.5942    0.6071    0.0000 H   0  0  0  0  0  0  0  0  0  0  0  0
   10.4658    2.0536    0.0000 H   0  0  0  0  0  0  0  0  0  0  0  0
    9.6688    2.0567    0.0000 H   0  0  0  0  0  0  0  0  0  0  0  0
   10.5292    0.6034    0.0000 H   0  0  0  0  0  0  0  0  0  0  0  0
   11.3262    0.6004    0.0000 H   0  0  0  0  0  0  0  0  0  0  0  0
   12.1978    2.0469    0.0000 H   0  0  0  0  0  0  0  0  0  0  0  0
   11.4008    2.0500    0.0000 H   0  0  0  0  0  0  0  0  0  0  0  0
   12.2612    0.5968    0.0000 H   0  0  0  0  0  0  0  0  0  0  0  0
   13.0583    0.5937    0.0000 H   0  0  0  0  0  0  0  0  0  0  0  0
    4.0642    1.4204    0.0000 H   0  0  0  0  0  0  0  0  0  0  0  0
   17.4582    2.0176    0.0000 H   0  0  0  0  0  0  0  0  0  0  0  0
   16.6611    2.0176    0.0000 H   0  0  0  0  0  0  0  0  0  0  0  0
    1.8912   -0.9828    0.0000 H   0  0  0  0  0  0  0  0  0  0  0  0
   18.5363    0.9350    0.0000 H   0  0  0  0  0  0  0  0  0  0  0  0
   18.1377    1.6253    0.0000 H   0  0  0  0  0  0  0  0  0  0  0  0
   15.3069    2.1973    0.0000 H   0  0  0  0  0  0  0  0  0  0  0  0
    2.4804    1.7606    0.0000 H   0  0  0  0  0  0  0  0  0  0  0  0
    1.3938    0.5590    0.0000 H   0  0  0  0  0  0  0  0  0  0  0  0
   13.8579   -0.2902    0.0000 H   0  0  0  0  0  0  0  0  0  0  0  0
   15.3069   -1.1119    0.0000 H   0  0  0  0  0  0  0  0  0  0  0  0
   17.0597   -1.0773    0.0000 H   0  0  0  0  0  0  0  0  0  0  0  0
  1  6  1  0  0  0  0
  1 20  1  0  0  0  0
  2 19  1  0  0  0  0
  2 25  1  0  0  0  0
  3 33  2  0  0  0  0
  4  8  1  0  0  0  0
  4  9  1  0  0  0  0
  4 12  1  0  0  0  0
  5 10  1  0  0  0  0
  5 11  1  0  0  0  0
  5 15  1  0  0  0  0
  6 15  2  0  0  0  0
  7 26  1  0  0  0  0
  7 33  1  0  0  0  0
  7 65  1  0  0  0  0
  8 10  1  0  0  0  0
  8 34  1  0  0  0  0
  8 35  1  0  0  0  0
  9 11  1  0  0  0  0
  9 36  1  0  0  0  0
  9 37  1  0  0  0  0
 10 38  1  0  0  0  0
 10 39  1  0  0  0  0
 11 40  1  0  0  0  0
 11 41  1  0  0  0  0
 12 13  1  0  0  0  0
 12 42  1  0  0  0  0
 12 43  1  0  0  0  0
 13 14  1  0  0  0  0
 13 44  1  0  0  0  0
 13 45  1  0  0  0  0
 14 16  1  0  0  0  0
 14 46  1  0  0  0  0
 14 47  1  0  0  0  0
 15 18  1  0  0  0  0
 16 17  1  0  0  0  0
 16 48  1  0  0  0  0
 16 49  1  0  0  0  0
 17 19  1  0  0  0  0
 17 50  1  0  0  0  0
 17 51  1  0  0  0  0
 18 20  1  0  0  0  0
 18 21  2  0  0  0  0
 19 52  1  0  0  0  0
 19 53  1  0  0  0  0
 20 24  2  0  0  0  0
 21 28  1  0  0  0  0
 21 54  1  0  0  0  0
 22 23  1  0  0  0  0
 22 26  2  0  0  0  0
 22 29  1  0  0  0  0
 23 27  1  0  0  0  0
 23 55  1  0  0  0  0
 23 56  1  0  0  0  0
 24 30  1  0  0  0  0
 24 57  1  0  0  0  0
 25 29  2  0  0  0  0
 25 31  1  0  0  0  0
 26 32  1  0  0  0  0
 27 33  1  0  0  0  0
 27 58  1  0  0  0  0
 27 59  1  0  0  0  0
 28 30  2  0  0  0  0
 28 61  1  0  0  0  0
 29 60  1  0  0  0  0
 30 62  1  0  0  0  0
 31 32  2  0  0  0  0
 31 63  1  0  0  0  0
 32 64  1  0  0  0  0
M  END
> <PUBCHEM_COMPOUND_CID>
156017609

> <PUBCHEM_COMPOUND_CANONICALIZED>
1

> <PUBCHEM_CACTVS_COMPLEXITY>
629

> <PUBCHEM_CACTVS_HBOND_ACCEPTOR>
6

> <PUBCHEM_CACTVS_HBOND_DONOR>
1

> <PUBCHEM_CACTVS_ROTATABLE_BOND>
9

> <PUBCHEM_CACTVS_SUBSKEYS>
AAADcfB7sABAAAAAAAAAAAAAAAAAAWAAAAA8eIEAAAAAAFix9AAAHgQQQAAADAzh2gYx99PABACsAidycACDCBAhIgBJmDkubJiMZrLEuZuWOCzk1BPI6Ae4ybCeAEABAAAGAAAAgAIAAAwAAAAAAAAAAA==

> <PUBCHEM_IUPAC_OPENEYE_NAME>
6-[6-[4-(1,2-benzothiazol-3-yl)piperazin-1-yl]hexoxy]-3,4-dihydro-1H-quinolin-2-one

> <PUBCHEM_IUPAC_CAS_NAME>
6-[6-[4-(1,2-benzothiazol-3-yl)-1-piperazinyl]hexoxy]-3,4-dihydro-1H-quinolin-2-one

> <PUBCHEM_IUPAC_NAME_MARKUP>
6-[6-[4-(1,2-benzothiazol-3-yl)piperazin-1-yl]hexoxy]-3,4-dihydro-1<I>H</I>-quinolin-2-one

> <PUBCHEM_IUPAC_NAME>
6-[6-[4-(1,2-benzothiazol-3-yl)piperazin-1-yl]hexoxy]-3,4-dihydro-1H-quinolin-2-one

> <PUBCHEM_IUPAC_SYSTEMATIC_NAME>
6-[6-[4-(1,2-benzothiazol-3-yl)piperazin-1-yl]hexoxy]-3,4-dihydro-1H-quinolin-2-one

> <PUBCHEM_IUPAC_TRADITIONAL_NAME>
6-[6-[4-(1,2-benzothiazol-3-yl)piperazino]hexoxy]-3,4-dihydrocarbostyril

> <PUBCHEM_IUPAC_INCHI>
InChI=1S/C26H32N4O2S/c31-25-12-9-20-19-21(10-11-23(20)27-25)32-18-6-2-1-5-13-29-14-16-30(17-15-29)26-22-7-3-4-8-24(22)33-28-26/h3-4,7-8,10-11,19H,1-2,5-6,9,12-18H2,(H,27,31)

> <PUBCHEM_IUPAC_INCHIKEY>
JNMNZCISRVSLEC-UHFFFAOYSA-N

> <PUBCHEM_XLOGP3_AA>
4.8

> <PUBCHEM_EXACT_MASS>
464.22459745

> <PUBCHEM_MOLECULAR_FORMULA>
C26H32N4O2S

> <PUBCHEM_MOLECULAR_WEIGHT>
464.6

> <PUBCHEM_OPENEYE_CAN_SMILES>
C1CC(=O)NC2=C1C=C(C=C2)OCCCCCCN3CCN(CC3)C4=NSC5=CC=CC=C54

> <PUBCHEM_OPENEYE_ISO_SMILES>
C1CC(=O)NC2=C1C=C(C=C2)OCCCCCCN3CCN(CC3)C4=NSC5=CC=CC=C54

> <PUBCHEM_CACTVS_TPSA>
85.9

> <PUBCHEM_MONOISOTOPIC_WEIGHT>
464.22459745

> <PUBCHEM_TOTAL_CHARGE>
0

> <PUBCHEM_HEAVY_ATOM_COUNT>
33

> <PUBCHEM_ATOM_DEF_STEREO_COUNT>
0

> <PUBCHEM_ATOM_UDEF_STEREO_COUNT>
0

> <PUBCHEM_BOND_DEF_STEREO_COUNT>
0

> <PUBCHEM_BOND_UDEF_STEREO_COUNT>
0

> <PUBCHEM_ISOTOPIC_ATOM_COUNT>
0

> <PUBCHEM_COMPONENT_COUNT>
1

> <PUBCHEM_CACTVS_TAUTO_COUNT>
-1

> <PUBCHEM_COORDINATE_TYPE>
1
5
255

> <PUBCHEM_BONDANNOTATIONS>
1  20  8
1  6  8
15  18  8
18  20  8
18  21  8
20  24  8
21  28  8
22  26  8
22  29  8
24  30  8
25  29  8
25  31  8
26  32  8
28  30  8
31  32  8
6  15  8

$$$$
