44319412
  -OEChem-09292322472D

 52 55  0     0  0  0  0  0  0999 V2000
    9.2619    0.6020    0.0000 O   0  0  0  0  0  0  0  0  0  0  0  0
   12.2619   -1.1300    0.0000 N   0  0  0  0  0  0  0  0  0  0  0  0
   14.2619   -1.1300    0.0000 N   0  0  0  0  0  0  0  0  0  0  0  0
    4.6783    1.4067    0.0000 N   0  0  0  0  0  0  0  0  0  0  0  0
    4.6783   -0.2027    0.0000 N   0  0  0  0  0  0  0  0  0  0  0  0
   12.7619   -1.9961    0.0000 C   0  0  0  0  0  0  0  0  0  0  0  0
   12.7619   -0.2640    0.0000 C   0  0  0  0  0  0  0  0  0  0  0  0
   13.7619   -1.9961    0.0000 C   0  0  0  0  0  0  0  0  0  0  0  0
   13.7619   -0.2640    0.0000 C   0  0  0  0  0  0  0  0  0  0  0  0
   11.2619   -1.1300    0.0000 C   0  0  0  0  0  0  0  0  0  0  0  0
   10.7619   -0.2640    0.0000 C   0  0  0  0  0  0  0  0  0  0  0  0
   15.2619   -1.1300    0.0000 C   0  0  0  0  0  0  0  0  0  0  0  0
    9.7619   -0.2640    0.0000 C   0  0  0  0  0  0  0  0  0  0  0  0
    8.2619    0.6020    0.0000 C   0  0  0  0  0  0  0  0  0  0  0  0
    6.2619    0.6020    0.0000 C   0  0  0  0  0  0  0  0  0  0  0  0
    7.7619   -0.2640    0.0000 C   0  0  0  0  0  0  0  0  0  0  0  0
    7.7619    1.4680    0.0000 C   0  0  0  0  0  0  0  0  0  0  0  0
    5.2619    0.6020    0.0000 C   0  0  0  0  0  0  0  0  0  0  0  0
    6.7619   -0.2640    0.0000 C   0  0  0  0  0  0  0  0  0  0  0  0
    6.7619    1.4680    0.0000 C   0  0  0  0  0  0  0  0  0  0  0  0
    3.7320    1.1020    0.0000 C   0  0  0  0  0  0  0  0  0  0  0  0
    3.7320    0.1020    0.0000 C   0  0  0  0  0  0  0  0  0  0  0  0
    2.8660    1.6020    0.0000 C   0  0  0  0  0  0  0  0  0  0  0  0
    2.8660   -0.3980    0.0000 C   0  0  0  0  0  0  0  0  0  0  0  0
    2.0000    1.1020    0.0000 C   0  0  0  0  0  0  0  0  0  0  0  0
    2.0000    0.1020    0.0000 C   0  0  0  0  0  0  0  0  0  0  0  0
   12.1793   -2.2081    0.0000 H   0  0  0  0  0  0  0  0  0  0  0  0
   12.8695   -2.6066    0.0000 H   0  0  0  0  0  0  0  0  0  0  0  0
   12.8695    0.3466    0.0000 H   0  0  0  0  0  0  0  0  0  0  0  0
   12.1793   -0.0520    0.0000 H   0  0  0  0  0  0  0  0  0  0  0  0
   13.6542   -2.6066    0.0000 H   0  0  0  0  0  0  0  0  0  0  0  0
   14.3445   -2.2081    0.0000 H   0  0  0  0  0  0  0  0  0  0  0  0
   14.3445   -0.0520    0.0000 H   0  0  0  0  0  0  0  0  0  0  0  0
   13.6542    0.3466    0.0000 H   0  0  0  0  0  0  0  0  0  0  0  0
   10.6793   -1.3421    0.0000 H   0  0  0  0  0  0  0  0  0  0  0  0
   11.3695   -1.7406    0.0000 H   0  0  0  0  0  0  0  0  0  0  0  0
   11.3445   -0.0520    0.0000 H   0  0  0  0  0  0  0  0  0  0  0  0
   10.6542    0.3466    0.0000 H   0  0  0  0  0  0  0  0  0  0  0  0
   15.2619   -1.7500    0.0000 H   0  0  0  0  0  0  0  0  0  0  0  0
   15.8819   -1.1300    0.0000 H   0  0  0  0  0  0  0  0  0  0  0  0
   15.2619   -0.5100    0.0000 H   0  0  0  0  0  0  0  0  0  0  0  0
    9.1793   -0.4761    0.0000 H   0  0  0  0  0  0  0  0  0  0  0  0
    9.8695   -0.8746    0.0000 H   0  0  0  0  0  0  0  0  0  0  0  0
    8.0719   -0.8010    0.0000 H   0  0  0  0  0  0  0  0  0  0  0  0
    8.0719    2.0050    0.0000 H   0  0  0  0  0  0  0  0  0  0  0  0
    6.4519   -0.8010    0.0000 H   0  0  0  0  0  0  0  0  0  0  0  0
    6.4519    2.0050    0.0000 H   0  0  0  0  0  0  0  0  0  0  0  0
    4.8709    1.9961    0.0000 H   0  0  0  0  0  0  0  0  0  0  0  0
    2.8660    2.2220    0.0000 H   0  0  0  0  0  0  0  0  0  0  0  0
    2.8660   -1.0180    0.0000 H   0  0  0  0  0  0  0  0  0  0  0  0
    1.4631    1.4120    0.0000 H   0  0  0  0  0  0  0  0  0  0  0  0
    1.4631   -0.2080    0.0000 H   0  0  0  0  0  0  0  0  0  0  0  0
  1 13  1  0  0  0  0
  1 14  1  0  0  0  0
  2  6  1  0  0  0  0
  2  7  1  0  0  0  0
  2 10  1  0  0  0  0
  3  8  1  0  0  0  0
  3  9  1  0  0  0  0
  3 12  1  0  0  0  0
  4 18  1  0  0  0  0
  4 21  1  0  0  0  0
  4 48  1  0  0  0  0
  5 18  2  0  0  0  0
  5 22  1  0  0  0  0
  6  8  1  0  0  0  0
  6 27  1  0  0  0  0
  6 28  1  0  0  0  0
  7  9  1  0  0  0  0
  7 29  1  0  0  0  0
  7 30  1  0  0  0  0
  8 31  1  0  0  0  0
  8 32  1  0  0  0  0
  9 33  1  0  0  0  0
  9 34  1  0  0  0  0
 10 11  1  0  0  0  0
 10 35  1  0  0  0  0
 10 36  1  0  0  0  0
 11 13  1  0  0  0  0
 11 37  1  0  0  0  0
 11 38  1  0  0  0  0
 12 39  1  0  0  0  0
 12 40  1  0  0  0  0
 12 41  1  0  0  0  0
 13 42  1  0  0  0  0
 13 43  1  0  0  0  0
 14 16  2  0  0  0  0
 14 17  1  0  0  0  0
 15 18  1  0  0  0  0
 15 19  2  0  0  0  0
 15 20  1  0  0  0  0
 16 19  1  0  0  0  0
 16 44  1  0  0  0  0
 17 20  2  0  0  0  0
 17 45  1  0  0  0  0
 19 46  1  0  0  0  0
 20 47  1  0  0  0  0
 21 22  1  0  0  0  0
 21 23  2  0  0  0  0
 22 24  2  0  0  0  0
 23 25  1  0  0  0  0
 23 49  1  0  0  0  0
 24 26  1  0  0  0  0
 24 50  1  0  0  0  0
 25 26  2  0  0  0  0
 25 51  1  0  0  0  0
 26 52  1  0  0  0  0
M  END
> <PUBCHEM_COMPOUND_CID>
44319412

> <PUBCHEM_COMPOUND_CANONICALIZED>
1

> <PUBCHEM_CACTVS_COMPLEXITY>
418

> <PUBCHEM_CACTVS_HBOND_ACCEPTOR>
4

> <PUBCHEM_CACTVS_HBOND_DONOR>
1

> <PUBCHEM_CACTVS_ROTATABLE_BOND>
6

> <PUBCHEM_CACTVS_SUBSKEYS>
AAADceB7oAAAAAAAAAAAAAAAAAAAAWAAAAA8YIAAAAAAAFgB9AAAHgAQAAAADAzhnwYz1rfJlACgAyZiZACCiC2hMqAJmSA+fJiMbqLEuZuWOCju0BPI6CeQ0AIOIAAAAAAAACBAAAAAAAAAQAAAAAAAAA==

> <PUBCHEM_IUPAC_OPENEYE_NAME>
2-[4-[3-(4-methylpiperazin-1-yl)propoxy]phenyl]-1H-benzimidazole

> <PUBCHEM_IUPAC_CAS_NAME>
2-[4-[3-(4-methyl-1-piperazinyl)propoxy]phenyl]-1H-benzimidazole

> <PUBCHEM_IUPAC_NAME_MARKUP>
2-[4-[3-(4-methylpiperazin-1-yl)propoxy]phenyl]-1<I>H</I>-benzimidazole

> <PUBCHEM_IUPAC_NAME>
2-[4-[3-(4-methylpiperazin-1-yl)propoxy]phenyl]-1H-benzimidazole

> <PUBCHEM_IUPAC_SYSTEMATIC_NAME>
2-[4-[3-(4-methylpiperazin-1-yl)propoxy]phenyl]-1H-benzimidazole

> <PUBCHEM_IUPAC_TRADITIONAL_NAME>
2-[4-[3-(4-methylpiperazino)propoxy]phenyl]-1H-benzimidazole

> <PUBCHEM_IUPAC_INCHI>
InChI=1S/C21H26N4O/c1-24-12-14-25(15-13-24)11-4-16-26-18-9-7-17(8-10-18)21-22-19-5-2-3-6-20(19)23-21/h2-3,5-10H,4,11-16H2,1H3,(H,22,23)

> <PUBCHEM_IUPAC_INCHIKEY>
PSSMSADYPZZWDS-UHFFFAOYSA-N

> <PUBCHEM_XLOGP3>
3.4

> <PUBCHEM_EXACT_MASS>
350.21066147

> <PUBCHEM_MOLECULAR_FORMULA>
C21H26N4O

> <PUBCHEM_MOLECULAR_WEIGHT>
350.5

> <PUBCHEM_OPENEYE_CAN_SMILES>
CN1CCN(CC1)CCCOC2=CC=C(C=C2)C3=NC4=CC=CC=C4N3

> <PUBCHEM_OPENEYE_ISO_SMILES>
CN1CCN(CC1)CCCOC2=CC=C(C=C2)C3=NC4=CC=CC=C4N3

> <PUBCHEM_CACTVS_TPSA>
44.4

> <PUBCHEM_MONOISOTOPIC_WEIGHT>
350.21066147

> <PUBCHEM_TOTAL_CHARGE>
0

> <PUBCHEM_HEAVY_ATOM_COUNT>
26

> <PUBCHEM_ATOM_DEF_STEREO_COUNT>
0

> <PUBCHEM_ATOM_UDEF_STEREO_COUNT>
0

> <PUBCHEM_BOND_DEF_STEREO_COUNT>
0

> <PUBCHEM_BOND_UDEF_STEREO_COUNT>
0

> <PUBCHEM_ISOTOPIC_ATOM_COUNT>
0

> <PUBCHEM_COMPONENT_COUNT>
1

> <PUBCHEM_CACTVS_TAUTO_COUNT>
-1

> <PUBCHEM_COORDINATE_TYPE>
1
5
255

> <PUBCHEM_BONDANNOTATIONS>
14  16  8
14  17  8
15  19  8
15  20  8
16  19  8
17  20  8
21  22  8
21  23  8
22  24  8
23  25  8
24  26  8
25  26  8
4  18  8
4  21  8
5  18  8
5  22  8

$$$$
