201536
  -OEChem-09292322012D

 47 50  0     1  0  0  0  0  0999 V2000
    5.5138    1.2608    0.0000 O   0  0  0  0  0  0  0  0  0  0  0  0
    3.7320    0.2503    0.0000 O   0  0  0  0  0  0  0  0  0  0  0  0
    3.7818    1.2808    0.0000 O   0  0  0  0  0  0  0  0  0  0  0  0
    2.8602   -1.2463    0.0000 O   0  0  0  0  0  0  0  0  0  0  0  0
    8.9864   -1.7707    0.0000 N   0  0  3  0  0  0  0  0  0  0  0  0
    8.1282   -1.2738    0.0000 C   0  0  1  0  0  0  0  0  0  0  0  0
    8.1282   -0.2738    0.0000 C   0  0  0  0  0  0  0  0  0  0  0  0
    7.2622   -1.7738    0.0000 C   0  0  0  0  0  0  0  0  0  0  0  0
    9.0382    0.2330    0.0000 C   0  0  0  0  0  0  0  0  0  0  0  0
    9.8519   -1.2866    0.0000 C   0  0  0  0  0  0  0  0  0  0  0  0
    9.8775   -0.2952    0.0000 C   0  0  0  0  0  0  0  0  0  0  0  0
    7.2622    0.2262    0.0000 C   0  0  0  0  0  0  0  0  0  0  0  0
    6.3961   -1.2738    0.0000 C   0  0  0  0  0  0  0  0  0  0  0  0
    6.3961   -0.2738    0.0000 C   0  0  0  0  0  0  0  0  0  0  0  0
    8.9790   -2.7707    0.0000 C   0  0  0  0  0  0  0  0  0  0  0  0
    9.0462    1.2746    0.0000 C   0  0  0  0  0  0  0  0  0  0  0  0
    7.2461    1.2677    0.0000 C   0  0  0  0  0  0  0  0  0  0  0  0
    5.5022    0.2609    0.0000 C   0  0  0  0  0  0  0  0  0  0  0  0
    5.5022   -1.8085    0.0000 C   0  0  0  0  0  0  0  0  0  0  0  0
    8.1441    1.7955    0.0000 C   0  0  0  0  0  0  0  0  0  0  0  0
    4.5961   -0.2530    0.0000 C   0  0  0  0  0  0  0  0  0  0  0  0
    4.5961   -1.2946    0.0000 C   0  0  0  0  0  0  0  0  0  0  0  0
    4.6536    1.7708    0.0000 C   0  0  0  0  0  0  0  0  0  0  0  0
    2.8641   -0.2463    0.0000 C   0  0  0  0  0  0  0  0  0  0  0  0
    4.6651    2.7707    0.0000 C   0  0  0  0  0  0  0  0  0  0  0  0
    2.0000    0.2570    0.0000 C   0  0  0  0  0  0  0  0  0  0  0  0
    8.1277   -2.1238    0.0000 H   0  0  0  0  0  0  0  0  0  0  0  0
    6.8636   -2.2487    0.0000 H   0  0  0  0  0  0  0  0  0  0  0  0
    7.6607   -2.2487    0.0000 H   0  0  0  0  0  0  0  0  0  0  0  0
   10.0536   -1.8728    0.0000 H   0  0  0  0  0  0  0  0  0  0  0  0
   10.4647   -1.1922    0.0000 H   0  0  0  0  0  0  0  0  0  0  0  0
   10.4846   -0.4211    0.0000 H   0  0  0  0  0  0  0  0  0  0  0  0
   10.1093    0.2799    0.0000 H   0  0  0  0  0  0  0  0  0  0  0  0
    8.3590   -2.7661    0.0000 H   0  0  0  0  0  0  0  0  0  0  0  0
    8.9744   -3.3907    0.0000 H   0  0  0  0  0  0  0  0  0  0  0  0
    9.5990   -2.7753    0.0000 H   0  0  0  0  0  0  0  0  0  0  0  0
    9.5844    1.5826    0.0000 H   0  0  0  0  0  0  0  0  0  0  0  0
    6.7056    1.5715    0.0000 H   0  0  0  0  0  0  0  0  0  0  0  0
    5.5094   -2.4284    0.0000 H   0  0  0  0  0  0  0  0  0  0  0  0
    8.1418    2.4154    0.0000 H   0  0  0  0  0  0  0  0  0  0  0  0
    4.0604   -1.6067    0.0000 H   0  0  0  0  0  0  0  0  0  0  0  0
    5.2851    2.7635    0.0000 H   0  0  0  0  0  0  0  0  0  0  0  0
    4.6723    3.3907    0.0000 H   0  0  0  0  0  0  0  0  0  0  0  0
    4.0452    2.7779    0.0000 H   0  0  0  0  0  0  0  0  0  0  0  0
    2.3121    0.7928    0.0000 H   0  0  0  0  0  0  0  0  0  0  0  0
    1.4643    0.5691    0.0000 H   0  0  0  0  0  0  0  0  0  0  0  0
    1.6879   -0.2787    0.0000 H   0  0  0  0  0  0  0  0  0  0  0  0
  1 18  1  0  0  0  0
  1 23  1  0  0  0  0
  2 21  1  0  0  0  0
  2 24  1  0  0  0  0
  3 23  2  0  0  0  0
  4 24  2  0  0  0  0
  5  6  1  0  0  0  0
  5 10  1  0  0  0  0
  5 15  1  0  0  0  0
  6  7  1  0  0  0  0
  6  8  1  0  0  0  0
  6 27  1  1  0  0  0
  7  9  2  0  0  0  0
  7 12  1  0  0  0  0
  8 13  1  0  0  0  0
  8 28  1  0  0  0  0
  8 29  1  0  0  0  0
  9 11  1  0  0  0  0
  9 16  1  0  0  0  0
 10 11  1  0  0  0  0
 10 30  1  0  0  0  0
 10 31  1  0  0  0  0
 11 32  1  0  0  0  0
 11 33  1  0  0  0  0
 12 14  1  0  0  0  0
 12 17  2  0  0  0  0
 13 14  2  0  0  0  0
 13 19  1  0  0  0  0
 14 18  1  0  0  0  0
 15 34  1  0  0  0  0
 15 35  1  0  0  0  0
 15 36  1  0  0  0  0
 16 20  2  0  0  0  0
 16 37  1  0  0  0  0
 17 20  1  0  0  0  0
 17 38  1  0  0  0  0
 18 21  2  0  0  0  0
 19 22  2  0  0  0  0
 19 39  1  0  0  0  0
 20 40  1  0  0  0  0
 21 22  1  0  0  0  0
 22 41  1  0  0  0  0
 23 25  1  0  0  0  0
 24 26  1  0  0  0  0
 25 42  1  0  0  0  0
 25 43  1  0  0  0  0
 25 44  1  0  0  0  0
 26 45  1  0  0  0  0
 26 46  1  0  0  0  0
 26 47  1  0  0  0  0
M  END
> <PUBCHEM_COMPOUND_CID>
201536

> <PUBCHEM_COMPOUND_CANONICALIZED>
1

> <PUBCHEM_CACTVS_COMPLEXITY>
564

> <PUBCHEM_CACTVS_HBOND_ACCEPTOR>
5

> <PUBCHEM_CACTVS_HBOND_DONOR>
0

> <PUBCHEM_CACTVS_ROTATABLE_BOND>
4

> <PUBCHEM_CACTVS_SUBSKEYS>
AAADceB6OAAAAAAAAAAAAAAAAAAAAAAAAAA8YMEAAAAAAADxQAAAHgAAAAAADCzBmAQyDoMABACIAiDSCACCCAAgIAAIiAAOjIgNJiKEsRuGOirkwBGKqAeQ0PMOoAADAAAYQADQAAaAADSAAAAAAAAAAA==

> <PUBCHEM_IUPAC_OPENEYE_NAME>
[(6aR)-11-acetoxy-6-methyl-5,6,6a,7-tetrahydro-4H-dibenzo[de,g]quinolin-10-yl] acetate

> <PUBCHEM_IUPAC_CAS_NAME>
acetic acid [(6aR)-11-acetyloxy-6-methyl-5,6,6a,7-tetrahydro-4H-dibenzo[de,g]quinolin-10-yl] ester

> <PUBCHEM_IUPAC_NAME_MARKUP>
[(6<I>a</I><I>R</I>)-11-acetyloxy-6-methyl-5,6,6<I>a</I>,7-tetrahydro-4<I>H</I>-dibenzo[de,g]quinolin-10-yl] acetate

> <PUBCHEM_IUPAC_NAME>
[(6aR)-11-acetyloxy-6-methyl-5,6,6a,7-tetrahydro-4H-dibenzo[de,g]quinolin-10-yl] acetate

> <PUBCHEM_IUPAC_SYSTEMATIC_NAME>
[(6aR)-11-acetyloxy-6-methyl-5,6,6a,7-tetrahydro-4H-dibenzo[de,g]quinolin-10-yl] ethanoate

> <PUBCHEM_IUPAC_TRADITIONAL_NAME>
acetic acid [(6aR)-11-acetoxy-6-methyl-5,6,6a,7-tetrahydro-4H-dibenzo[de,g]quinolin-10-yl] ester

> <PUBCHEM_IUPAC_INCHI>
InChI=1S/C21H21NO4/c1-12(23)25-18-8-7-15-11-17-19-14(9-10-22(17)3)5-4-6-16(19)20(15)21(18)26-13(2)24/h4-8,17H,9-11H2,1-3H3/t17-/m1/s1

> <PUBCHEM_IUPAC_INCHIKEY>
PJAGGJPKGNYFJH-QGZVFWFLSA-N

> <PUBCHEM_XLOGP3>
2.5

> <PUBCHEM_EXACT_MASS>
351.14705815

> <PUBCHEM_MOLECULAR_FORMULA>
C21H21NO4

> <PUBCHEM_MOLECULAR_WEIGHT>
351.4

> <PUBCHEM_OPENEYE_CAN_SMILES>
CC(=O)OC1=C(C2=C(CC3C4=C(CCN3C)C=CC=C42)C=C1)OC(=O)C

> <PUBCHEM_OPENEYE_ISO_SMILES>
CC(=O)OC1=C(C2=C(C[C@@H]3C4=C(CCN3C)C=CC=C42)C=C1)OC(=O)C

> <PUBCHEM_CACTVS_TPSA>
55.8

> <PUBCHEM_MONOISOTOPIC_WEIGHT>
351.14705815

> <PUBCHEM_TOTAL_CHARGE>
0

> <PUBCHEM_HEAVY_ATOM_COUNT>
26

> <PUBCHEM_ATOM_DEF_STEREO_COUNT>
1

> <PUBCHEM_ATOM_UDEF_STEREO_COUNT>
0

> <PUBCHEM_BOND_DEF_STEREO_COUNT>
0

> <PUBCHEM_BOND_UDEF_STEREO_COUNT>
0

> <PUBCHEM_ISOTOPIC_ATOM_COUNT>
0

> <PUBCHEM_COMPONENT_COUNT>
1

> <PUBCHEM_CACTVS_TAUTO_COUNT>
1

> <PUBCHEM_COORDINATE_TYPE>
1
5
255

> <PUBCHEM_BONDANNOTATIONS>
12  17  8
13  14  8
13  19  8
14  18  8
16  20  8
17  20  8
18  21  8
19  22  8
21  22  8
6  27  5
7  12  8
7  9  8
9  16  8

$$$$
