22403039
  -OEChem-09292322202D

 57 59  0     1  0  0  0  0  0999 V2000
    3.4596   -1.9406    0.0000 S   0  0  0  0  0  0  0  0  0  0  0  0
    5.3022    1.6097    0.0000 O   0  0  0  0  0  0  0  0  0  0  0  0
    2.5720   -1.4800    0.0000 O   0  0  0  0  0  0  0  0  0  0  0  0
    4.3472   -2.4013    0.0000 O   0  0  0  0  0  0  0  0  0  0  0  0
    9.5766    0.6824    0.0000 N   0  0  3  0  0  0  0  0  0  0  0  0
    6.9298    0.7589    0.0000 N   0  0  0  0  0  0  0  0  0  0  0  0
    8.6756    1.1163    0.0000 C   0  0  3  0  0  0  0  0  0  0  0  0
    8.4531    2.0912    0.0000 C   0  0  0  0  0  0  0  0  0  0  0  0
    9.0766    2.8731    0.0000 C   0  0  0  0  0  0  0  0  0  0  0  0
   10.4775    1.1163    0.0000 C   0  0  0  0  0  0  0  0  0  0  0  0
   10.0766    2.8731    0.0000 C   0  0  0  0  0  0  0  0  0  0  0  0
   10.7001    2.0912    0.0000 C   0  0  0  0  0  0  0  0  0  0  0  0
    7.8938    0.4928    0.0000 C   0  0  0  0  0  0  0  0  0  0  0  0
    9.5766   -0.3176    0.0000 C   0  0  0  0  0  0  0  0  0  0  0  0
    7.9386   -0.5062    0.0000 C   0  0  0  0  0  0  0  0  0  0  0  0
    6.3789   -0.0757    0.0000 C   0  0  0  0  0  0  0  0  0  0  0  0
   10.4426   -0.8176    0.0000 C   0  0  0  0  0  0  0  0  0  0  0  0
    7.0024   -0.8575    0.0000 C   0  0  0  0  0  0  0  0  0  0  0  0
    5.3799   -0.1206    0.0000 C   0  0  0  0  0  0  0  0  0  0  0  0
    4.9193   -1.0082    0.0000 C   0  0  0  0  0  0  0  0  0  0  0  0
    4.8416    0.7221    0.0000 C   0  0  0  0  0  0  0  0  0  0  0  0
    3.9203   -1.0530    0.0000 C   0  0  0  0  0  0  0  0  0  0  0  0
    3.8426    0.6773    0.0000 C   0  0  0  0  0  0  0  0  0  0  0  0
    3.3819   -0.2103    0.0000 C   0  0  0  0  0  0  0  0  0  0  0  0
    2.9990   -2.8282    0.0000 C   0  0  0  0  0  0  0  0  0  0  0  0
    2.0000   -2.8731    0.0000 C   0  0  0  0  0  0  0  0  0  0  0  0
    4.7638    2.4524    0.0000 C   0  0  0  0  0  0  0  0  0  0  0  0
    8.7450    0.5002    0.0000 H   0  0  0  0  0  0  0  0  0  0  0  0
    8.0665    2.5760    0.0000 H   0  0  0  0  0  0  0  0  0  0  0  0
    7.8945    1.8222    0.0000 H   0  0  0  0  0  0  0  0  0  0  0  0
    9.2145    3.4775    0.0000 H   0  0  0  0  0  0  0  0  0  0  0  0
    8.5180    3.1421    0.0000 H   0  0  0  0  0  0  0  0  0  0  0  0
   10.6155    0.5119    0.0000 H   0  0  0  0  0  0  0  0  0  0  0  0
   11.0975    1.1163    0.0000 H   0  0  0  0  0  0  0  0  0  0  0  0
   10.6352    3.1421    0.0000 H   0  0  0  0  0  0  0  0  0  0  0  0
    9.9386    3.4775    0.0000 H   0  0  0  0  0  0  0  0  0  0  0  0
   11.2587    1.8222    0.0000 H   0  0  0  0  0  0  0  0  0  0  0  0
   11.0866    2.5760    0.0000 H   0  0  0  0  0  0  0  0  0  0  0  0
    8.9660   -0.2099    0.0000 H   0  0  0  0  0  0  0  0  0  0  0  0
    9.3645   -0.9002    0.0000 H   0  0  0  0  0  0  0  0  0  0  0  0
    6.7120    1.3393    0.0000 H   0  0  0  0  0  0  0  0  0  0  0  0
    8.4561   -0.8477    0.0000 H   0  0  0  0  0  0  0  0  0  0  0  0
   10.1326   -1.3545    0.0000 H   0  0  0  0  0  0  0  0  0  0  0  0
   10.9795   -1.1276    0.0000 H   0  0  0  0  0  0  0  0  0  0  0  0
   10.7526   -0.2806    0.0000 H   0  0  0  0  0  0  0  0  0  0  0  0
    6.8374   -1.4552    0.0000 H   0  0  0  0  0  0  0  0  0  0  0  0
    5.2530   -1.5306    0.0000 H   0  0  0  0  0  0  0  0  0  0  0  0
    3.5088    1.1998    0.0000 H   0  0  0  0  0  0  0  0  0  0  0  0
    2.7626   -0.2381    0.0000 H   0  0  0  0  0  0  0  0  0  0  0  0
    2.9188   -3.4430    0.0000 H   0  0  0  0  0  0  0  0  0  0  0  0
    3.5905   -3.0139    0.0000 H   0  0  0  0  0  0  0  0  0  0  0  0
    1.9722   -2.2537    0.0000 H   0  0  0  0  0  0  0  0  0  0  0  0
    1.3806   -2.9009    0.0000 H   0  0  0  0  0  0  0  0  0  0  0  0
    2.0278   -3.4924    0.0000 H   0  0  0  0  0  0  0  0  0  0  0  0
    5.2863    2.7862    0.0000 H   0  0  0  0  0  0  0  0  0  0  0  0
    4.4301    2.9749    0.0000 H   0  0  0  0  0  0  0  0  0  0  0  0
    4.2414    2.1187    0.0000 H   0  0  0  0  0  0  0  0  0  0  0  0
  1  3  2  0  0  0  0
  1  4  2  0  0  0  0
  1 22  1  0  0  0  0
  1 25  1  0  0  0  0
  2 21  1  0  0  0  0
  2 27  1  0  0  0  0
  5  7  1  0  0  0  0
  5 10  1  0  0  0  0
  5 14  1  0  0  0  0
  6 13  1  0  0  0  0
  6 16  1  0  0  0  0
  6 41  1  0  0  0  0
  7  8  1  0  0  0  0
  7 13  1  0  0  0  0
  7 28  1  0  0  0  0
  8  9  1  0  0  0  0
  8 29  1  0  0  0  0
  8 30  1  0  0  0  0
  9 11  1  0  0  0  0
  9 31  1  0  0  0  0
  9 32  1  0  0  0  0
 10 12  1  0  0  0  0
 10 33  1  0  0  0  0
 10 34  1  0  0  0  0
 11 12  1  0  0  0  0
 11 35  1  0  0  0  0
 11 36  1  0  0  0  0
 12 37  1  0  0  0  0
 12 38  1  0  0  0  0
 13 15  2  0  0  0  0
 14 17  1  0  0  0  0
 14 39  1  0  0  0  0
 14 40  1  0  0  0  0
 15 18  1  0  0  0  0
 15 42  1  0  0  0  0
 16 18  2  0  0  0  0
 16 19  1  0  0  0  0
 17 43  1  0  0  0  0
 17 44  1  0  0  0  0
 17 45  1  0  0  0  0
 18 46  1  0  0  0  0
 19 20  1  0  0  0  0
 19 21  2  0  0  0  0
 20 22  2  0  0  0  0
 20 47  1  0  0  0  0
 21 23  1  0  0  0  0
 22 24  1  0  0  0  0
 23 24  2  0  0  0  0
 23 48  1  0  0  0  0
 24 49  1  0  0  0  0
 25 26  1  0  0  0  0
 25 50  1  0  0  0  0
 25 51  1  0  0  0  0
 26 52  1  0  0  0  0
 26 53  1  0  0  0  0
 26 54  1  0  0  0  0
 27 55  1  0  0  0  0
 27 56  1  0  0  0  0
 27 57  1  0  0  0  0
M  END
> <PUBCHEM_COMPOUND_CID>
22403039

> <PUBCHEM_COMPOUND_CANONICALIZED>
1

> <PUBCHEM_CACTVS_COMPLEXITY>
562

> <PUBCHEM_CACTVS_HBOND_ACCEPTOR>
4

> <PUBCHEM_CACTVS_HBOND_DONOR>
1

> <PUBCHEM_CACTVS_ROTATABLE_BOND>
6

> <PUBCHEM_CACTVS_SUBSKEYS>
AAADceB7MABAAAAAAAAAAAAAAAAAAWAAAAAwAAAABYAAAAABwAAAHgQQAAAADCzF3gayh5PJlAqgAyRiRHDCiCAhKjAImTg+bJgMZuLksZuUMChm0BHo6AeQwOAOAIAAgAAIAAABAAEAABAAAAAAAAAAAA==

> <PUBCHEM_IUPAC_OPENEYE_NAME>
1-ethyl-2-[5-(5-ethylsulfonyl-2-methoxy-phenyl)-1H-pyrrol-2-yl]azepane

> <PUBCHEM_IUPAC_CAS_NAME>
1-ethyl-2-[5-(5-ethylsulfonyl-2-methoxyphenyl)-1H-pyrrol-2-yl]azepane

> <PUBCHEM_IUPAC_NAME_MARKUP>
1-ethyl-2-[5-(5-ethylsulfonyl-2-methoxyphenyl)-1<I>H</I>-pyrrol-2-yl]azepane

> <PUBCHEM_IUPAC_NAME>
1-ethyl-2-[5-(5-ethylsulfonyl-2-methoxyphenyl)-1H-pyrrol-2-yl]azepane

> <PUBCHEM_IUPAC_SYSTEMATIC_NAME>
1-ethyl-2-[5-(5-ethylsulfonyl-2-methoxy-phenyl)-1H-pyrrol-2-yl]azepane

> <PUBCHEM_IUPAC_TRADITIONAL_NAME>
2-[5-(5-esyl-2-methoxy-phenyl)-1H-pyrrol-2-yl]-1-ethyl-azepane

> <PUBCHEM_IUPAC_INCHI>
InChI=1S/C21H30N2O3S/c1-4-23-14-8-6-7-9-20(23)19-12-11-18(22-19)17-15-16(27(24,25)5-2)10-13-21(17)26-3/h10-13,15,20,22H,4-9,14H2,1-3H3

> <PUBCHEM_IUPAC_INCHIKEY>
QHUAVXDRCSLDHT-UHFFFAOYSA-N

> <PUBCHEM_XLOGP3_AA>
3.4

> <PUBCHEM_EXACT_MASS>
390.19771400

> <PUBCHEM_MOLECULAR_FORMULA>
C21H30N2O3S

> <PUBCHEM_MOLECULAR_WEIGHT>
390.5

> <PUBCHEM_OPENEYE_CAN_SMILES>
CCN1CCCCCC1C2=CC=C(N2)C3=C(C=CC(=C3)S(=O)(=O)CC)OC

> <PUBCHEM_OPENEYE_ISO_SMILES>
CCN1CCCCCC1C2=CC=C(N2)C3=C(C=CC(=C3)S(=O)(=O)CC)OC

> <PUBCHEM_CACTVS_TPSA>
70.8

> <PUBCHEM_MONOISOTOPIC_WEIGHT>
390.19771400

> <PUBCHEM_TOTAL_CHARGE>
0

> <PUBCHEM_HEAVY_ATOM_COUNT>
27

> <PUBCHEM_ATOM_DEF_STEREO_COUNT>
0

> <PUBCHEM_ATOM_UDEF_STEREO_COUNT>
1

> <PUBCHEM_BOND_DEF_STEREO_COUNT>
0

> <PUBCHEM_BOND_UDEF_STEREO_COUNT>
0

> <PUBCHEM_ISOTOPIC_ATOM_COUNT>
0

> <PUBCHEM_COMPONENT_COUNT>
1

> <PUBCHEM_CACTVS_TAUTO_COUNT>
-1

> <PUBCHEM_COORDINATE_TYPE>
1
5
255

> <PUBCHEM_BONDANNOTATIONS>
13  15  8
15  18  8
16  18  8
19  20  8
19  21  8
20  22  8
21  23  8
22  24  8
23  24  8
6  13  8
6  16  8
7  13  3

$$$$
