16007752
  -OEChem-09292321582D

 60 64  0     1  0  0  0  0  0999 V2000
   11.4246   -1.9419    0.0000 S   0  0  3  0  0  0  0  0  0  0  0  0
   12.3585    1.1497    0.0000 O   0  0  0  0  0  0  0  0  0  0  0  0
   11.4246   -2.9419    0.0000 O   0  0  0  0  0  0  0  0  0  0  0  0
    7.3685    0.3609    0.0000 O   0  0  0  0  0  0  0  0  0  0  0  0
    2.9544   -3.7031    0.0000 O   0  0  0  0  0  0  0  0  0  0  0  0
   10.9247    0.2487    0.0000 N   0  0  0  0  0  0  0  0  0  0  0  0
    6.8516   -1.2922    0.0000 N   0  0  0  0  0  0  0  0  0  0  0  0
   10.3012   -0.5331    0.0000 C   0  0  0  0  0  0  0  0  0  0  0  0
   10.5237   -1.5080    0.0000 C   0  0  0  0  0  0  0  0  0  0  0  0
   10.4908    1.1497    0.0000 C   0  0  0  0  0  0  0  0  0  0  0  0
   12.5481   -0.5331    0.0000 C   0  0  0  0  0  0  0  0  0  0  0  0
   11.9247    0.2487    0.0000 C   0  0  0  0  0  0  0  0  0  0  0  0
   12.3256   -1.5080    0.0000 C   0  0  0  0  0  0  0  0  0  0  0  0
    9.3107   -0.2108    0.0000 C   0  0  0  0  0  0  0  0  0  0  0  0
    8.5416   -0.9133    0.0000 C   0  0  0  0  0  0  0  0  0  0  0  0
    9.7711   -2.2282    0.0000 C   0  0  0  0  0  0  0  0  0  0  0  0
   11.0541    1.9759    0.0000 C   0  0  0  0  0  0  0  0  0  0  0  0
    8.7734   -1.9289    0.0000 C   0  0  0  0  0  0  0  0  0  0  0  0
   13.5386   -0.2108    0.0000 C   0  0  0  0  0  0  0  0  0  0  0  0
   13.0782   -2.2282    0.0000 C   0  0  0  0  0  0  0  0  0  0  0  0
    7.5872   -0.6149    0.0000 C   0  0  0  0  0  0  0  0  0  0  0  0
   14.3076   -0.9134    0.0000 C   0  0  0  0  0  0  0  0  0  0  0  0
   10.6202    2.8769    0.0000 C   0  0  0  0  0  0  0  0  0  0  0  0
   12.0513    1.9012    0.0000 C   0  0  0  0  0  0  0  0  0  0  0  0
   14.0759   -1.9289    0.0000 C   0  0  0  0  0  0  0  0  0  0  0  0
    5.8971   -0.9938    0.0000 C   0  0  0  0  0  0  0  0  0  0  0  0
   11.1836    3.7031    0.0000 C   0  0  0  0  0  0  0  0  0  0  0  0
   12.6146    2.7274    0.0000 C   0  0  0  0  0  0  0  0  0  0  0  0
    5.1614   -1.6711    0.0000 C   0  0  0  0  0  0  0  0  0  0  0  0
   12.1808    3.6284    0.0000 C   0  0  0  0  0  0  0  0  0  0  0  0
    4.2070   -1.3727    0.0000 C   0  0  0  0  0  0  0  0  0  0  0  0
    5.3802   -2.6469    0.0000 C   0  0  0  0  0  0  0  0  0  0  0  0
    3.4714   -2.0500    0.0000 C   0  0  0  0  0  0  0  0  0  0  0  0
    4.6445   -3.3242    0.0000 C   0  0  0  0  0  0  0  0  0  0  0  0
    3.6901   -3.0258    0.0000 C   0  0  0  0  0  0  0  0  0  0  0  0
    2.0000   -3.4047    0.0000 C   0  0  0  0  0  0  0  0  0  0  0  0
   10.0469    1.5826    0.0000 H   0  0  0  0  0  0  0  0  0  0  0  0
    9.9874    0.7878    0.0000 H   0  0  0  0  0  0  0  0  0  0  0  0
    9.1797    0.3952    0.0000 H   0  0  0  0  0  0  0  0  0  0  0  0
    9.9160   -2.8310    0.0000 H   0  0  0  0  0  0  0  0  0  0  0  0
    8.3206   -2.3523    0.0000 H   0  0  0  0  0  0  0  0  0  0  0  0
   13.6696    0.3952    0.0000 H   0  0  0  0  0  0  0  0  0  0  0  0
   12.9332   -2.8310    0.0000 H   0  0  0  0  0  0  0  0  0  0  0  0
   14.8994   -0.7284    0.0000 H   0  0  0  0  0  0  0  0  0  0  0  0
   10.0020    2.9232    0.0000 H   0  0  0  0  0  0  0  0  0  0  0  0
   12.3203    1.3426    0.0000 H   0  0  0  0  0  0  0  0  0  0  0  0
   14.5287   -2.3524    0.0000 H   0  0  0  0  0  0  0  0  0  0  0  0
    6.9872   -1.8972    0.0000 H   0  0  0  0  0  0  0  0  0  0  0  0
    6.1821   -0.4432    0.0000 H   0  0  0  0  0  0  0  0  0  0  0  0
    5.4044   -0.6175    0.0000 H   0  0  0  0  0  0  0  0  0  0  0  0
   10.9146    4.2617    0.0000 H   0  0  0  0  0  0  0  0  0  0  0  0
   13.2329    2.6811    0.0000 H   0  0  0  0  0  0  0  0  0  0  0  0
   12.5300    4.1407    0.0000 H   0  0  0  0  0  0  0  0  0  0  0  0
    4.0714   -0.7677    0.0000 H   0  0  0  0  0  0  0  0  0  0  0  0
    5.9720   -2.8319    0.0000 H   0  0  0  0  0  0  0  0  0  0  0  0
    2.8796   -1.8650    0.0000 H   0  0  0  0  0  0  0  0  0  0  0  0
    4.7802   -3.9292    0.0000 H   0  0  0  0  0  0  0  0  0  0  0  0
    2.1850   -2.8130    0.0000 H   0  0  0  0  0  0  0  0  0  0  0  0
    1.4083   -3.2197    0.0000 H   0  0  0  0  0  0  0  0  0  0  0  0
    1.8150   -3.9964    0.0000 H   0  0  0  0  0  0  0  0  0  0  0  0
  1  3  2  0  0  0  0
  1  9  1  0  0  0  0
  1 13  1  0  0  0  0
  2 12  2  0  0  0  0
  4 21  2  0  0  0  0
  5 35  1  0  0  0  0
  5 36  1  0  0  0  0
  6  8  1  0  0  0  0
  6 10  1  0  0  0  0
  6 12  1  0  0  0  0
  7 21  1  0  0  0  0
  7 26  1  0  0  0  0
  7 48  1  0  0  0  0
  8  9  2  0  0  0  0
  8 14  1  0  0  0  0
  9 16  1  0  0  0  0
 10 17  1  0  0  0  0
 10 37  1  0  0  0  0
 10 38  1  0  0  0  0
 11 12  1  0  0  0  0
 11 13  1  0  0  0  0
 11 19  2  0  0  0  0
 13 20  2  0  0  0  0
 14 15  2  0  0  0  0
 14 39  1  0  0  0  0
 15 18  1  0  0  0  0
 15 21  1  0  0  0  0
 16 18  2  0  0  0  0
 16 40  1  0  0  0  0
 17 23  2  0  0  0  0
 17 24  1  0  0  0  0
 18 41  1  0  0  0  0
 19 22  1  0  0  0  0
 19 42  1  0  0  0  0
 20 25  1  0  0  0  0
 20 43  1  0  0  0  0
 22 25  2  0  0  0  0
 22 44  1  0  0  0  0
 23 27  1  0  0  0  0
 23 45  1  0  0  0  0
 24 28  2  0  0  0  0
 24 46  1  0  0  0  0
 25 47  1  0  0  0  0
 26 29  1  0  0  0  0
 26 49  1  0  0  0  0
 26 50  1  0  0  0  0
 27 30  2  0  0  0  0
 27 51  1  0  0  0  0
 28 30  1  0  0  0  0
 28 52  1  0  0  0  0
 29 31  2  0  0  0  0
 29 32  1  0  0  0  0
 30 53  1  0  0  0  0
 31 33  1  0  0  0  0
 31 54  1  0  0  0  0
 32 34  2  0  0  0  0
 32 55  1  0  0  0  0
 33 35  2  0  0  0  0
 33 56  1  0  0  0  0
 34 35  1  0  0  0  0
 34 57  1  0  0  0  0
 36 58  1  0  0  0  0
 36 59  1  0  0  0  0
 36 60  1  0  0  0  0
M  END
> <PUBCHEM_COMPOUND_CID>
16007752

> <PUBCHEM_COMPOUND_CANONICALIZED>
1

> <PUBCHEM_CACTVS_COMPLEXITY>
792

> <PUBCHEM_CACTVS_HBOND_ACCEPTOR>
5

> <PUBCHEM_CACTVS_HBOND_DONOR>
1

> <PUBCHEM_CACTVS_ROTATABLE_BOND>
6

> <PUBCHEM_CACTVS_SUBSKEYS>
AAADceB7OABAAAAAAAAAAAAAAAAAAAAAAAAwYMGABYAAAAABVAAAHgQQAAAADAzB2AYyx4PABAqIAiVSUEDCCAAlKhAIiJ0ObMgMJjLktZuEMShkxhHo6Yec2AKOMAAAQAAEAQBgAACAAAgCAAAAAAAAAA==

> <PUBCHEM_IUPAC_OPENEYE_NAME>
5-benzyl-N-[(4-methoxyphenyl)methyl]-6,11-dioxo-benzo[b][1,4]benzothiazepine-3-carboxamide

> <PUBCHEM_IUPAC_CAS_NAME>
N-[(4-methoxyphenyl)methyl]-6,11-dioxo-5-(phenylmethyl)-3-benzo[b][1,4]benzothiazepinecarboxamide

> <PUBCHEM_IUPAC_NAME_MARKUP>
5-benzyl-<I>N</I>-[(4-methoxyphenyl)methyl]-6,11-dioxobenzo[b][1,4]benzothiazepine-3-carboxamide

> <PUBCHEM_IUPAC_NAME>
5-benzyl-N-[(4-methoxyphenyl)methyl]-6,11-dioxobenzo[b][1,4]benzothiazepine-3-carboxamide

> <PUBCHEM_IUPAC_SYSTEMATIC_NAME>
N-[(4-methoxyphenyl)methyl]-6,11-bis(oxidanylidene)-5-(phenylmethyl)benzo[b][1,4]benzothiazepine-3-carboxamide

> <PUBCHEM_IUPAC_TRADITIONAL_NAME>
5-benzyl-6,11-diketo-N-p-anisyl-benzo[b][1,4]benzothiazepine-3-carboxamide

> <PUBCHEM_IUPAC_INCHI>
InChI=1S/C29H24N2O4S/c1-35-23-14-11-20(12-15-23)18-30-28(32)22-13-16-27-25(17-22)31(19-21-7-3-2-4-8-21)29(33)24-9-5-6-10-26(24)36(27)34/h2-17H,18-19H2,1H3,(H,30,32)

> <PUBCHEM_IUPAC_INCHIKEY>
QZVYQEKZNAYMRK-UHFFFAOYSA-N

> <PUBCHEM_XLOGP3_AA>
4

> <PUBCHEM_EXACT_MASS>
496.14567842

> <PUBCHEM_MOLECULAR_FORMULA>
C29H24N2O4S

> <PUBCHEM_MOLECULAR_WEIGHT>
496.6

> <PUBCHEM_OPENEYE_CAN_SMILES>
COC1=CC=C(C=C1)CNC(=O)C2=CC3=C(C=C2)S(=O)C4=CC=CC=C4C(=O)N3CC5=CC=CC=C5

> <PUBCHEM_OPENEYE_ISO_SMILES>
COC1=CC=C(C=C1)CNC(=O)C2=CC3=C(C=C2)S(=O)C4=CC=CC=C4C(=O)N3CC5=CC=CC=C5

> <PUBCHEM_CACTVS_TPSA>
94.9

> <PUBCHEM_MONOISOTOPIC_WEIGHT>
496.14567842

> <PUBCHEM_TOTAL_CHARGE>
0

> <PUBCHEM_HEAVY_ATOM_COUNT>
36

> <PUBCHEM_ATOM_DEF_STEREO_COUNT>
0

> <PUBCHEM_ATOM_UDEF_STEREO_COUNT>
1

> <PUBCHEM_BOND_DEF_STEREO_COUNT>
0

> <PUBCHEM_BOND_UDEF_STEREO_COUNT>
0

> <PUBCHEM_ISOTOPIC_ATOM_COUNT>
0

> <PUBCHEM_COMPONENT_COUNT>
1

> <PUBCHEM_CACTVS_TAUTO_COUNT>
-1

> <PUBCHEM_COORDINATE_TYPE>
1
5
255

> <PUBCHEM_BONDANNOTATIONS>
1  13  3
11  13  8
11  19  8
13  20  8
14  15  8
15  18  8
16  18  8
17  23  8
17  24  8
19  22  8
20  25  8
22  25  8
23  27  8
24  28  8
27  30  8
28  30  8
29  31  8
29  32  8
31  33  8
32  34  8
33  35  8
34  35  8
8  14  8
8  9  8
9  16  8

$$$$
