138671131
  -OEChem-09292322452D

 69 72  0     1  0  0  0  0  0999 V2000
   16.7859   -3.8290    0.0000 F   0  0  0  0  0  0  0  0  0  0  0  0
   18.1533   -3.4682    0.0000 F   0  0  0  0  0  0  0  0  0  0  0  0
   17.7925   -2.1008    0.0000 F   0  0  0  0  0  0  0  0  0  0  0  0
    5.2024    0.6640    0.0000 O   0  0  0  0  0  0  0  0  0  0  0  0
   15.5572   -2.9582    0.0000 O   0  0  0  0  0  0  0  0  0  0  0  0
    2.2079    0.7685    0.0000 O   0  0  0  0  0  0  0  0  0  0  0  0
    2.9705    3.2412    0.0000 O   0  0  0  0  0  0  0  0  0  0  0  0
   10.7024   -1.9341    0.0000 N   0  0  3  0  0  0  0  0  0  0  0  0
    5.2024   -1.0680    0.0000 N   0  0  0  0  0  0  0  0  0  0  0  0
   13.7870   -2.9687    0.0000 N   0  0  0  0  0  0  0  0  0  0  0  0
    2.0000    1.7467    0.0000 N   0  0  0  0  0  0  0  0  0  0  0  0
    8.2024   -1.0680    0.0000 C   0  0  0  0  0  0  0  0  0  0  0  0
    7.7024   -1.9341    0.0000 C   0  0  0  0  0  0  0  0  0  0  0  0
    7.7024   -0.2020    0.0000 C   0  0  0  0  0  0  0  0  0  0  0  0
    6.2024   -1.0680    0.0000 C   0  0  0  0  0  0  0  0  0  0  0  0
    6.7024   -1.9341    0.0000 C   0  0  0  0  0  0  0  0  0  0  0  0
    6.7024   -0.2020    0.0000 C   0  0  0  0  0  0  0  0  0  0  0  0
    9.2024   -1.0680    0.0000 C   0  0  0  0  0  0  0  0  0  0  0  0
    9.7024   -1.9341    0.0000 C   0  0  0  0  0  0  0  0  0  0  0  0
   11.1363   -1.0331    0.0000 C   0  0  0  0  0  0  0  0  0  0  0  0
   11.1363   -2.8350    0.0000 C   0  0  0  0  0  0  0  0  0  0  0  0
   12.1112   -0.8106    0.0000 C   0  0  0  0  0  0  0  0  0  0  0  0
   12.1112   -3.0576    0.0000 C   0  0  0  0  0  0  0  0  0  0  0  0
    4.7024   -0.2020    0.0000 C   0  0  0  0  0  0  0  0  0  0  0  0
   12.8931   -1.4341    0.0000 C   0  0  0  0  0  0  0  0  0  0  0  0
   12.8931   -2.4341    0.0000 C   0  0  0  0  0  0  0  0  0  0  0  0
    3.7024   -0.2020    0.0000 C   0  0  0  0  0  0  0  0  0  0  0  0
   13.7870   -0.8994    0.0000 C   0  0  0  0  0  0  0  0  0  0  0  0
   14.6931   -1.4133    0.0000 C   0  0  0  0  0  0  0  0  0  0  0  0
    3.2024    0.6640    0.0000 C   0  0  0  0  0  0  0  0  0  0  0  0
   14.6931   -2.4549    0.0000 C   0  0  0  0  0  0  0  0  0  0  0  0
    3.6092    1.5776    0.0000 C   0  0  0  0  0  0  0  0  0  0  0  0
    2.8660    2.2467    0.0000 C   0  0  0  0  0  0  0  0  0  0  0  0
   16.4251   -2.4616    0.0000 C   0  0  0  0  0  0  0  0  0  0  0  0
   17.2892   -2.9649    0.0000 C   0  0  0  0  0  0  0  0  0  0  0  0
    2.1615    3.8290    0.0000 C   0  0  0  0  0  0  0  0  0  0  0  0
    8.5124   -1.6050    0.0000 H   0  0  0  0  0  0  0  0  0  0  0  0
    7.5948   -2.5446    0.0000 H   0  0  0  0  0  0  0  0  0  0  0  0
    8.2850   -2.1461    0.0000 H   0  0  0  0  0  0  0  0  0  0  0  0
    8.2850    0.0100    0.0000 H   0  0  0  0  0  0  0  0  0  0  0  0
    7.5948    0.4086    0.0000 H   0  0  0  0  0  0  0  0  0  0  0  0
    5.8924   -1.6050    0.0000 H   0  0  0  0  0  0  0  0  0  0  0  0
    6.1198   -2.1461    0.0000 H   0  0  0  0  0  0  0  0  0  0  0  0
    6.8101   -2.5446    0.0000 H   0  0  0  0  0  0  0  0  0  0  0  0
    6.8101    0.4086    0.0000 H   0  0  0  0  0  0  0  0  0  0  0  0
    6.1198    0.0100    0.0000 H   0  0  0  0  0  0  0  0  0  0  0  0
    9.7850   -0.8560    0.0000 H   0  0  0  0  0  0  0  0  0  0  0  0
    9.0948   -0.4575    0.0000 H   0  0  0  0  0  0  0  0  0  0  0  0
    9.1198   -2.1461    0.0000 H   0  0  0  0  0  0  0  0  0  0  0  0
    9.8101   -2.5446    0.0000 H   0  0  0  0  0  0  0  0  0  0  0  0
    4.8924   -1.6050    0.0000 H   0  0  0  0  0  0  0  0  0  0  0  0
   11.1363   -0.4131    0.0000 H   0  0  0  0  0  0  0  0  0  0  0  0
   10.5319   -0.8951    0.0000 H   0  0  0  0  0  0  0  0  0  0  0  0
   10.5319   -2.9730    0.0000 H   0  0  0  0  0  0  0  0  0  0  0  0
   11.1363   -3.4550    0.0000 H   0  0  0  0  0  0  0  0  0  0  0  0
   12.5960   -0.4240    0.0000 H   0  0  0  0  0  0  0  0  0  0  0  0
   11.8422   -0.2520    0.0000 H   0  0  0  0  0  0  0  0  0  0  0  0
   11.8422   -3.6162    0.0000 H   0  0  0  0  0  0  0  0  0  0  0  0
   12.5960   -3.4441    0.0000 H   0  0  0  0  0  0  0  0  0  0  0  0
    3.1198   -0.4141    0.0000 H   0  0  0  0  0  0  0  0  0  0  0  0
    3.8101   -0.8126    0.0000 H   0  0  0  0  0  0  0  0  0  0  0  0
   13.7799   -0.2795    0.0000 H   0  0  0  0  0  0  0  0  0  0  0  0
   15.2288   -1.1012    0.0000 H   0  0  0  0  0  0  0  0  0  0  0  0
    4.2156    1.7065    0.0000 H   0  0  0  0  0  0  0  0  0  0  0  0
   16.8255   -1.9882    0.0000 H   0  0  0  0  0  0  0  0  0  0  0  0
   16.0284   -1.9851    0.0000 H   0  0  0  0  0  0  0  0  0  0  0  0
    2.5260    4.3306    0.0000 H   0  0  0  0  0  0  0  0  0  0  0  0
    1.6600    4.1934    0.0000 H   0  0  0  0  0  0  0  0  0  0  0  0
    1.7971    3.3274    0.0000 H   0  0  0  0  0  0  0  0  0  0  0  0
  1 35  1  0  0  0  0
  2 35  1  0  0  0  0
  3 35  1  0  0  0  0
  4 24  2  0  0  0  0
  5 31  1  0  0  0  0
  5 34  1  0  0  0  0
  6 11  1  0  0  0  0
  6 30  1  0  0  0  0
  7 33  1  0  0  0  0
  7 36  1  0  0  0  0
  8 19  1  0  0  0  0
  8 20  1  0  0  0  0
  8 21  1  0  0  0  0
  9 15  1  0  0  0  0
  9 24  1  0  0  0  0
  9 51  1  0  0  0  0
 10 26  1  0  0  0  0
 10 31  2  0  0  0  0
 11 33  2  0  0  0  0
 12 13  1  0  0  0  0
 12 14  1  0  0  0  0
 12 18  1  0  0  0  0
 12 37  1  0  0  0  0
 13 16  1  0  0  0  0
 13 38  1  0  0  0  0
 13 39  1  0  0  0  0
 14 17  1  0  0  0  0
 14 40  1  0  0  0  0
 14 41  1  0  0  0  0
 15 16  1  0  0  0  0
 15 17  1  0  0  0  0
 15 42  1  0  0  0  0
 16 43  1  0  0  0  0
 16 44  1  0  0  0  0
 17 45  1  0  0  0  0
 17 46  1  0  0  0  0
 18 19  1  0  0  0  0
 18 47  1  0  0  0  0
 18 48  1  0  0  0  0
 19 49  1  0  0  0  0
 19 50  1  0  0  0  0
 20 22  1  0  0  0  0
 20 52  1  0  0  0  0
 20 53  1  0  0  0  0
 21 23  1  0  0  0  0
 21 54  1  0  0  0  0
 21 55  1  0  0  0  0
 22 25  1  0  0  0  0
 22 56  1  0  0  0  0
 22 57  1  0  0  0  0
 23 26  1  0  0  0  0
 23 58  1  0  0  0  0
 23 59  1  0  0  0  0
 24 27  1  0  0  0  0
 25 26  2  0  0  0  0
 25 28  1  0  0  0  0
 27 30  1  0  0  0  0
 27 60  1  0  0  0  0
 27 61  1  0  0  0  0
 28 29  2  0  0  0  0
 28 62  1  0  0  0  0
 29 31  1  0  0  0  0
 29 63  1  0  0  0  0
 30 32  2  0  0  0  0
 32 33  1  0  0  0  0
 32 64  1  0  0  0  0
 34 35  1  0  0  0  0
 34 65  1  0  0  0  0
 34 66  1  0  0  0  0
 36 67  1  0  0  0  0
 36 68  1  0  0  0  0
 36 69  1  0  0  0  0
M  END
> <PUBCHEM_COMPOUND_CID>
138671131

> <PUBCHEM_COMPOUND_CANONICALIZED>
1

> <PUBCHEM_CACTVS_COMPLEXITY>
693

> <PUBCHEM_CACTVS_HBOND_ACCEPTOR>
10

> <PUBCHEM_CACTVS_HBOND_DONOR>
1

> <PUBCHEM_CACTVS_ROTATABLE_BOND>
9

> <PUBCHEM_CACTVS_SUBSKEYS>
AAADcfB7uYAAAAAAAAAAAAAAAAAAAWAAAAA8QAAABYAAAAAB4AAAHwAUAAAADSzhnhYyhJPYFACpA6VyVgCCiCAlIiAomKE+bNoMJ/7M9ZuOOOjn9h3I6EeY1aMOAAAAAAAAAAAQAAAAAAAAAAAAAAAAAA==

> <PUBCHEM_IUPAC_OPENEYE_NAME>
2-(3-methoxyisoxazol-5-yl)-N-[4-[2-[2-(2,2,2-trifluoroethoxy)-5,6,8,9-tetrahydropyrido[2,3-d]azepin-7-yl]ethyl]cyclohexyl]acetamide

> <PUBCHEM_IUPAC_CAS_NAME>
2-(3-methoxy-5-isoxazolyl)-N-[4-[2-[2-(2,2,2-trifluoroethoxy)-5,6,8,9-tetrahydropyrido[2,3-d]azepin-7-yl]ethyl]cyclohexyl]acetamide

> <PUBCHEM_IUPAC_NAME_MARKUP>
2-(3-methoxy-1,2-oxazol-5-yl)-<I>N</I>-[4-[2-[2-(2,2,2-trifluoroethoxy)-5,6,8,9-tetrahydropyrido[2,3-d]azepin-7-yl]ethyl]cyclohexyl]acetamide

> <PUBCHEM_IUPAC_NAME>
2-(3-methoxy-1,2-oxazol-5-yl)-N-[4-[2-[2-(2,2,2-trifluoroethoxy)-5,6,8,9-tetrahydropyrido[2,3-d]azepin-7-yl]ethyl]cyclohexyl]acetamide

> <PUBCHEM_IUPAC_SYSTEMATIC_NAME>
2-(3-methoxy-1,2-oxazol-5-yl)-N-[4-[2-[2-[2,2,2-tris(fluoranyl)ethoxy]-5,6,8,9-tetrahydropyrido[2,3-d]azepin-7-yl]ethyl]cyclohexyl]ethanamide

> <PUBCHEM_IUPAC_TRADITIONAL_NAME>
2-(3-methoxyisoxazol-5-yl)-N-[4-[2-[2-(2,2,2-trifluoroethoxy)-5,6,8,9-tetrahydropyrid[2,3-d]azepin-7-yl]ethyl]cyclohexyl]acetamide

> <PUBCHEM_IUPAC_INCHI>
InChI=1S/C25H33F3N4O4/c1-34-24-15-20(36-31-24)14-22(33)29-19-5-2-17(3-6-19)8-11-32-12-9-18-4-7-23(30-21(18)10-13-32)35-16-25(26,27)28/h4,7,15,17,19H,2-3,5-6,8-14,16H2,1H3,(H,29,33)

> <PUBCHEM_IUPAC_INCHIKEY>
ZTUVVTSLJSCZMY-UHFFFAOYSA-N

> <PUBCHEM_XLOGP3_AA>
4.2

> <PUBCHEM_EXACT_MASS>
510.24539003

> <PUBCHEM_MOLECULAR_FORMULA>
C25H33F3N4O4

> <PUBCHEM_MOLECULAR_WEIGHT>
510.5

> <PUBCHEM_OPENEYE_CAN_SMILES>
COC1=NOC(=C1)CC(=O)NC2CCC(CC2)CCN3CCC4=C(CC3)N=C(C=C4)OCC(F)(F)F

> <PUBCHEM_OPENEYE_ISO_SMILES>
COC1=NOC(=C1)CC(=O)NC2CCC(CC2)CCN3CCC4=C(CC3)N=C(C=C4)OCC(F)(F)F

> <PUBCHEM_CACTVS_TPSA>
89.7

> <PUBCHEM_MONOISOTOPIC_WEIGHT>
510.24539003

> <PUBCHEM_TOTAL_CHARGE>
0

> <PUBCHEM_HEAVY_ATOM_COUNT>
36

> <PUBCHEM_ATOM_DEF_STEREO_COUNT>
0

> <PUBCHEM_ATOM_UDEF_STEREO_COUNT>
0

> <PUBCHEM_BOND_DEF_STEREO_COUNT>
0

> <PUBCHEM_BOND_UDEF_STEREO_COUNT>
0

> <PUBCHEM_ISOTOPIC_ATOM_COUNT>
0

> <PUBCHEM_COMPONENT_COUNT>
1

> <PUBCHEM_CACTVS_TAUTO_COUNT>
-1

> <PUBCHEM_COORDINATE_TYPE>
1
5
255

> <PUBCHEM_BONDANNOTATIONS>
10  26  8
10  31  8
11  33  8
25  26  8
25  28  8
28  29  8
29  31  8
30  32  8
32  33  8
6  11  8
6  30  8

$$$$
