45260701
  -OEChem-09292322502D

 51 51  0     1  0  0  0  0  0999 V2000
    8.5230    4.1690    0.0000 Cl  0  0  0  0  0  0  0  0  0  0  0  0
    5.9860    3.7181    0.0000 O   0  0  0  0  0  0  0  0  0  0  0  0
    3.3880    5.2181    0.0000 O   0  0  0  0  0  0  0  0  0  0  0  0
    2.1200    1.4860    0.0000 N   0  0  0  0  0  0  0  0  0  0  0  0
    5.1200    3.2181    0.0000 C   0  0  3  0  0  0  0  0  0  0  0  0
    4.6200    2.3521    0.0000 C   0  0  0  0  0  0  0  0  0  0  0  0
    3.6200    2.3521    0.0000 C   0  0  0  0  0  0  0  0  0  0  0  0
    4.2540    3.7181    0.0000 C   0  0  0  0  0  0  0  0  0  0  0  0
    3.1200    1.4860    0.0000 C   0  0  0  0  0  0  0  0  0  0  0  0
    5.6200    2.3521    0.0000 C   0  0  0  0  0  0  0  0  0  0  0  0
    4.2540    4.7181    0.0000 C   0  0  0  0  0  0  0  0  0  0  0  0
    5.1200    5.2181    0.0000 C   0  0  0  0  0  0  0  0  0  0  0  0
    5.9860    4.7181    0.0000 C   0  0  0  0  0  0  0  0  0  0  0  0
    1.6200    0.6200    0.0000 C   0  0  0  0  0  0  0  0  0  0  0  0
    1.6200    2.3521    0.0000 C   0  0  0  0  0  0  0  0  0  0  0  0
    5.1200    6.2181    0.0000 C   0  0  0  0  0  0  0  0  0  0  0  0
    0.6200    0.6200    0.0000 C   0  0  0  0  0  0  0  0  0  0  0  0
    0.6200    2.3521    0.0000 C   0  0  0  0  0  0  0  0  0  0  0  0
    4.2540    6.7181    0.0000 C   0  0  0  0  0  0  0  0  0  0  0  0
    5.9860    6.7181    0.0000 C   0  0  0  0  0  0  0  0  0  0  0  0
    4.2540    7.7181    0.0000 C   0  0  0  0  0  0  0  0  0  0  0  0
    5.9860    7.7181    0.0000 C   0  0  0  0  0  0  0  0  0  0  0  0
    5.1200    8.2181    0.0000 C   0  0  0  0  0  0  0  0  0  0  0  0
    4.5123    1.7415    0.0000 H   0  0  0  0  0  0  0  0  0  0  0  0
    5.2026    2.1400    0.0000 H   0  0  0  0  0  0  0  0  0  0  0  0
    3.7277    2.9626    0.0000 H   0  0  0  0  0  0  0  0  0  0  0  0
    3.0374    2.5641    0.0000 H   0  0  0  0  0  0  0  0  0  0  0  0
    3.6434    3.8257    0.0000 H   0  0  0  0  0  0  0  0  0  0  0  0
    4.0419    3.1355    0.0000 H   0  0  0  0  0  0  0  0  0  0  0  0
    3.0123    0.8754    0.0000 H   0  0  0  0  0  0  0  0  0  0  0  0
    3.7026    1.2740    0.0000 H   0  0  0  0  0  0  0  0  0  0  0  0
    5.0831    2.0420    0.0000 H   0  0  0  0  0  0  0  0  0  0  0  0
    5.9300    1.8151    0.0000 H   0  0  0  0  0  0  0  0  0  0  0  0
    6.1569    2.6620    0.0000 H   0  0  0  0  0  0  0  0  0  0  0  0
    6.5230    5.0281    0.0000 H   0  0  0  0  0  0  0  0  0  0  0  0
    1.5123    0.0094    0.0000 H   0  0  0  0  0  0  0  0  0  0  0  0
    2.2026    0.4079    0.0000 H   0  0  0  0  0  0  0  0  0  0  0  0
    2.2026    2.5641    0.0000 H   0  0  0  0  0  0  0  0  0  0  0  0
    1.5123    2.9626    0.0000 H   0  0  0  0  0  0  0  0  0  0  0  0
    0.6200    1.2400    0.0000 H   0  0  0  0  0  0  0  0  0  0  0  0
    0.0000    0.6200    0.0000 H   0  0  0  0  0  0  0  0  0  0  0  0
    0.6200    0.0000    0.0000 H   0  0  0  0  0  0  0  0  0  0  0  0
    0.6200    2.9720    0.0000 H   0  0  0  0  0  0  0  0  0  0  0  0
    0.0000    2.3521    0.0000 H   0  0  0  0  0  0  0  0  0  0  0  0
    0.6200    1.7320    0.0000 H   0  0  0  0  0  0  0  0  0  0  0  0
    3.7170    6.4081    0.0000 H   0  0  0  0  0  0  0  0  0  0  0  0
    6.5230    6.4081    0.0000 H   0  0  0  0  0  0  0  0  0  0  0  0
    3.7170    8.0281    0.0000 H   0  0  0  0  0  0  0  0  0  0  0  0
    6.5230    8.0281    0.0000 H   0  0  0  0  0  0  0  0  0  0  0  0
    5.1200    8.8381    0.0000 H   0  0  0  0  0  0  0  0  0  0  0  0
    9.5230    4.1690    0.0000 H   0  0  0  0  0  0  0  0  0  0  0  0
  1 51  1  0  0  0  0
  2  5  1  0  0  0  0
  2 13  1  0  0  0  0
  3 11  2  0  0  0  0
  4  9  1  0  0  0  0
  4 14  1  0  0  0  0
  4 15  1  0  0  0  0
  5  6  1  0  0  0  0
  5  8  1  0  0  0  0
  5 10  1  0  0  0  0
  6  7  1  0  0  0  0
  6 24  1  0  0  0  0
  6 25  1  0  0  0  0
  7  9  1  0  0  0  0
  7 26  1  0  0  0  0
  7 27  1  0  0  0  0
  8 11  1  0  0  0  0
  8 28  1  0  0  0  0
  8 29  1  0  0  0  0
  9 30  1  0  0  0  0
  9 31  1  0  0  0  0
 10 32  1  0  0  0  0
 10 33  1  0  0  0  0
 10 34  1  0  0  0  0
 11 12  1  0  0  0  0
 12 13  2  0  0  0  0
 12 16  1  0  0  0  0
 13 35  1  0  0  0  0
 14 17  1  0  0  0  0
 14 36  1  0  0  0  0
 14 37  1  0  0  0  0
 15 18  1  0  0  0  0
 15 38  1  0  0  0  0
 15 39  1  0  0  0  0
 16 19  2  0  0  0  0
 16 20  1  0  0  0  0
 17 40  1  0  0  0  0
 17 41  1  0  0  0  0
 17 42  1  0  0  0  0
 18 43  1  0  0  0  0
 18 44  1  0  0  0  0
 18 45  1  0  0  0  0
 19 21  1  0  0  0  0
 19 46  1  0  0  0  0
 20 22  2  0  0  0  0
 20 47  1  0  0  0  0
 21 23  2  0  0  0  0
 21 48  1  0  0  0  0
 22 23  1  0  0  0  0
 22 49  1  0  0  0  0
 23 50  1  0  0  0  0
M  END
> <PUBCHEM_COMPOUND_CID>
45260701

> <PUBCHEM_COMPOUND_CANONICALIZED>
1

> <PUBCHEM_CACTVS_COMPLEXITY>
394

> <PUBCHEM_CACTVS_HBOND_ACCEPTOR>
3

> <PUBCHEM_CACTVS_HBOND_DONOR>
1

> <PUBCHEM_CACTVS_ROTATABLE_BOND>
7

> <PUBCHEM_CACTVS_SUBSKEYS>
AAADceB6MAAEAAAAAAAAAAAAAAAAAAAAAAAwQAAAAAAAAAABAAAAHgAAAAAADEThmAYyAIMABACIAqBSAAACCAAgIAAIiAEIAMgIIDaAlRCEIAAkoACIiIe4yPCOAAAAAAAAAAAAAAAAAAAAAAAAAAAAAA==

> <PUBCHEM_IUPAC_OPENEYE_NAME>
2-[3-(diethylamino)propyl]-2-methyl-5-phenyl-3H-pyran-4-one;hydrochloride

> <PUBCHEM_IUPAC_CAS_NAME>
2-[3-(diethylamino)propyl]-2-methyl-5-phenyl-3H-pyran-4-one;hydrochloride

> <PUBCHEM_IUPAC_NAME_MARKUP>
2-[3-(diethylamino)propyl]-2-methyl-5-phenyl-3<I>H</I>-pyran-4-one;hydrochloride

> <PUBCHEM_IUPAC_NAME>
2-[3-(diethylamino)propyl]-2-methyl-5-phenyl-3H-pyran-4-one;hydrochloride

> <PUBCHEM_IUPAC_SYSTEMATIC_NAME>
2-[3-(diethylamino)propyl]-2-methyl-5-phenyl-3H-pyran-4-one;hydrochloride

> <PUBCHEM_IUPAC_TRADITIONAL_NAME>
2-[3-(diethylamino)propyl]-2-methyl-5-phenyl-3H-pyran-4-one;hydrochloride

> <PUBCHEM_IUPAC_INCHI>
InChI=1S/C19H27NO2.ClH/c1-4-20(5-2)13-9-12-19(3)14-18(21)17(15-22-19)16-10-7-6-8-11-16;/h6-8,10-11,15H,4-5,9,12-14H2,1-3H3;1H

> <PUBCHEM_IUPAC_INCHIKEY>
DAYKDUFHNDBLNY-UHFFFAOYSA-N

> <PUBCHEM_EXACT_MASS>
337.1808568

> <PUBCHEM_MOLECULAR_FORMULA>
C19H28ClNO2

> <PUBCHEM_MOLECULAR_WEIGHT>
337.9

> <PUBCHEM_OPENEYE_CAN_SMILES>
CCN(CC)CCCC1(CC(=O)C(=CO1)C2=CC=CC=C2)C.Cl

> <PUBCHEM_OPENEYE_ISO_SMILES>
CCN(CC)CCCC1(CC(=O)C(=CO1)C2=CC=CC=C2)C.Cl

> <PUBCHEM_CACTVS_TPSA>
29.5

> <PUBCHEM_MONOISOTOPIC_WEIGHT>
337.1808568

> <PUBCHEM_TOTAL_CHARGE>
0

> <PUBCHEM_HEAVY_ATOM_COUNT>
23

> <PUBCHEM_ATOM_DEF_STEREO_COUNT>
0

> <PUBCHEM_ATOM_UDEF_STEREO_COUNT>
1

> <PUBCHEM_BOND_DEF_STEREO_COUNT>
0

> <PUBCHEM_BOND_UDEF_STEREO_COUNT>
0

> <PUBCHEM_ISOTOPIC_ATOM_COUNT>
0

> <PUBCHEM_COMPONENT_COUNT>
2

> <PUBCHEM_CACTVS_TAUTO_COUNT>
-1

> <PUBCHEM_COORDINATE_TYPE>
1
5
255

> <PUBCHEM_BONDANNOTATIONS>
16  19  8
16  20  8
19  21  8
20  22  8
21  23  8
22  23  8
5  10  3

$$$$
