155520499
  -OEChem-09292322412D

 65 69  0     1  0  0  0  0  0999 V2000
   11.2917   -2.3243    0.0000 S   0  0  0  0  0  0  0  0  0  0  0  0
   11.2705   -1.3245    0.0000 O   0  0  0  0  0  0  0  0  0  0  0  0
   12.2360   -1.9952    0.0000 O   0  0  0  0  0  0  0  0  0  0  0  0
    5.4584    5.2832    0.0000 O   0  5  0  0  0  0  0  0  0  0  0  0
    5.5348    3.5529    0.0000 O   0  0  0  0  0  0  0  0  0  0  0  0
    5.1500    0.9353    0.0000 N   0  0  0  0  0  0  0  0  0  0  0  0
    4.0745    2.6215    0.0000 N   0  0  0  0  0  0  0  0  0  0  0  0
   10.2981   -2.3047    0.0000 N   0  0  3  0  0  0  0  0  0  0  0  0
    4.9971    4.3960    0.0000 N   0  3  0  0  0  0  0  0  0  0  0  0
    5.6113    1.8225    0.0000 C   0  0  0  0  0  0  0  0  0  0  0  0
    4.1510    0.8911    0.0000 C   0  0  0  0  0  0  0  0  0  0  0  0
    5.6878    0.0922    0.0000 C   0  0  0  0  0  0  0  0  0  0  0  0
    5.0735    2.6656    0.0000 C   0  0  0  0  0  0  0  0  0  0  0  0
    3.6132    1.7342    0.0000 C   0  0  0  0  0  0  0  0  0  0  0  0
    6.6868    0.1363    0.0000 C   0  0  0  0  0  0  0  0  0  0  0  0
    7.2245   -0.7068    0.0000 C   0  0  0  0  0  0  0  0  0  0  0  0
    8.2236   -0.6626    0.0000 C   0  0  0  0  0  0  0  0  0  0  0  0
    9.7603   -1.4616    0.0000 C   0  0  0  0  0  0  0  0  0  0  0  0
    8.7613   -1.5058    0.0000 C   0  0  0  0  0  0  0  0  0  0  0  0
    9.8968   -3.2139    0.0000 C   0  0  0  0  0  0  0  0  0  0  0  0
   10.7908   -3.7486    0.0000 C   0  0  0  0  0  0  0  0  0  0  0  0
   11.6568   -3.2486    0.0000 C   0  0  0  0  0  0  0  0  0  0  0  0
    3.5368    3.4646    0.0000 C   0  0  0  0  0  0  0  0  0  0  0  0
   10.7908   -4.7486    0.0000 C   0  0  0  0  0  0  0  0  0  0  0  0
    8.9908   -3.7278    0.0000 C   0  0  0  0  0  0  0  0  0  0  0  0
   12.5228   -3.7486    0.0000 C   0  0  0  0  0  0  0  0  0  0  0  0
    9.8968   -5.2832    0.0000 C   0  0  0  0  0  0  0  0  0  0  0  0
   11.6568   -5.2486    0.0000 C   0  0  0  0  0  0  0  0  0  0  0  0
    3.9980    4.3518    0.0000 C   0  0  0  0  0  0  0  0  0  0  0  0
    8.9908   -4.7694    0.0000 C   0  0  0  0  0  0  0  0  0  0  0  0
   12.5228   -4.7486    0.0000 C   0  0  0  0  0  0  0  0  0  0  0  0
    2.5378    3.4204    0.0000 C   0  0  0  0  0  0  0  0  0  0  0  0
    3.4603    5.1950    0.0000 C   0  0  0  0  0  0  0  0  0  0  0  0
    2.0000    4.2636    0.0000 C   0  0  0  0  0  0  0  0  0  0  0  0
    2.4613    5.1508    0.0000 C   0  0  0  0  0  0  0  0  0  0  0  0
    6.1034    1.4454    0.0000 H   0  0  0  0  0  0  0  0  0  0  0  0
    6.0682    2.2416    0.0000 H   0  0  0  0  0  0  0  0  0  0  0  0
    3.5783    0.6536    0.0000 H   0  0  0  0  0  0  0  0  0  0  0  0
    4.2855    0.2859    0.0000 H   0  0  0  0  0  0  0  0  0  0  0  0
    5.1151   -0.1454    0.0000 H   0  0  0  0  0  0  0  0  0  0  0  0
    5.8223   -0.5131    0.0000 H   0  0  0  0  0  0  0  0  0  0  0  0
    5.6462    2.9032    0.0000 H   0  0  0  0  0  0  0  0  0  0  0  0
    4.9390    3.2709    0.0000 H   0  0  0  0  0  0  0  0  0  0  0  0
    3.1212    2.1114    0.0000 H   0  0  0  0  0  0  0  0  0  0  0  0
    3.1564    1.3151    0.0000 H   0  0  0  0  0  0  0  0  0  0  0  0
    7.2595    0.3739    0.0000 H   0  0  0  0  0  0  0  0  0  0  0  0
    6.5523    0.7416    0.0000 H   0  0  0  0  0  0  0  0  0  0  0  0
    6.6518   -0.9444    0.0000 H   0  0  0  0  0  0  0  0  0  0  0  0
    7.3590   -1.3120    0.0000 H   0  0  0  0  0  0  0  0  0  0  0  0
    8.7962   -0.4251    0.0000 H   0  0  0  0  0  0  0  0  0  0  0  0
    8.0890   -0.0574    0.0000 H   0  0  0  0  0  0  0  0  0  0  0  0
   10.3330   -1.2240    0.0000 H   0  0  0  0  0  0  0  0  0  0  0  0
    9.6258   -0.8564    0.0000 H   0  0  0  0  0  0  0  0  0  0  0  0
    8.1886   -1.7433    0.0000 H   0  0  0  0  0  0  0  0  0  0  0  0
    8.8958   -2.1110    0.0000 H   0  0  0  0  0  0  0  0  0  0  0  0
    8.4550   -3.4157    0.0000 H   0  0  0  0  0  0  0  0  0  0  0  0
   13.0598   -3.4386    0.0000 H   0  0  0  0  0  0  0  0  0  0  0  0
    9.9040   -5.9032    0.0000 H   0  0  0  0  0  0  0  0  0  0  0  0
   11.6568   -5.8686    0.0000 H   0  0  0  0  0  0  0  0  0  0  0  0
    8.4550   -5.0815    0.0000 H   0  0  0  0  0  0  0  0  0  0  0  0
   13.0598   -5.0586    0.0000 H   0  0  0  0  0  0  0  0  0  0  0  0
    2.2518    2.8704    0.0000 H   0  0  0  0  0  0  0  0  0  0  0  0
    3.7463    5.7451    0.0000 H   0  0  0  0  0  0  0  0  0  0  0  0
    1.3806    4.2362    0.0000 H   0  0  0  0  0  0  0  0  0  0  0  0
    2.1279    5.6735    0.0000 H   0  0  0  0  0  0  0  0  0  0  0  0
  1  2  2  0  0  0  0
  1  3  2  0  0  0  0
  1  8  1  0  0  0  0
  1 22  1  0  0  0  0
  4  9  1  0  0  0  0
  5  9  2  0  0  0  0
  6 10  1  0  0  0  0
  6 11  1  0  0  0  0
  6 12  1  0  0  0  0
  7 13  1  0  0  0  0
  7 14  1  0  0  0  0
  7 23  1  0  0  0  0
  8 18  1  0  0  0  0
  8 20  1  0  0  0  0
  9 29  1  0  0  0  0
 10 13  1  0  0  0  0
 10 36  1  0  0  0  0
 10 37  1  0  0  0  0
 11 14  1  0  0  0  0
 11 38  1  0  0  0  0
 11 39  1  0  0  0  0
 12 15  1  0  0  0  0
 12 40  1  0  0  0  0
 12 41  1  0  0  0  0
 13 42  1  0  0  0  0
 13 43  1  0  0  0  0
 14 44  1  0  0  0  0
 14 45  1  0  0  0  0
 15 16  1  0  0  0  0
 15 46  1  0  0  0  0
 15 47  1  0  0  0  0
 16 17  1  0  0  0  0
 16 48  1  0  0  0  0
 16 49  1  0  0  0  0
 17 19  1  0  0  0  0
 17 50  1  0  0  0  0
 17 51  1  0  0  0  0
 18 19  1  0  0  0  0
 18 52  1  0  0  0  0
 18 53  1  0  0  0  0
 19 54  1  0  0  0  0
 19 55  1  0  0  0  0
 20 21  1  0  0  0  0
 20 25  2  0  0  0  0
 21 22  1  0  0  0  0
 21 24  2  0  0  0  0
 22 26  2  0  0  0  0
 23 29  1  0  0  0  0
 23 32  2  0  0  0  0
 24 27  1  0  0  0  0
 24 28  1  0  0  0  0
 25 30  1  0  0  0  0
 25 56  1  0  0  0  0
 26 31  1  0  0  0  0
 26 57  1  0  0  0  0
 27 30  2  0  0  0  0
 27 58  1  0  0  0  0
 28 31  2  0  0  0  0
 28 59  1  0  0  0  0
 29 33  2  0  0  0  0
 30 60  1  0  0  0  0
 31 61  1  0  0  0  0
 32 34  1  0  0  0  0
 32 62  1  0  0  0  0
 33 35  1  0  0  0  0
 33 63  1  0  0  0  0
 34 35  2  0  0  0  0
 34 64  1  0  0  0  0
 35 65  1  0  0  0  0
M  CHG  2   4  -1   9   1
M  END
> <PUBCHEM_COMPOUND_CID>
155520499

> <PUBCHEM_COMPOUND_CANONICALIZED>
1

> <PUBCHEM_CACTVS_COMPLEXITY>
820

> <PUBCHEM_CACTVS_HBOND_ACCEPTOR>
7

> <PUBCHEM_CACTVS_HBOND_DONOR>
0

> <PUBCHEM_CACTVS_ROTATABLE_BOND>
8

> <PUBCHEM_CACTVS_SUBSKEYS>
AAADceB7uABAAAAAAAAAAAAAAAAAAWAAAAA8YMEAAAAAAFjBVAAAHAQEQAAADAjBWAQwwcMQQAKBAiRCQ3DCABAhAgAoiBgIdIoIYCLAkZGUIAxggIDIyAcQgIAOgAAAwAAWACAAAAGAACwAQAAAAAAAAA==

> <PUBCHEM_IUPAC_OPENEYE_NAME>
3-[6-[4-(2-nitrophenyl)piperazin-1-yl]hexyl]-2lambda6-thia-3-azatricyclo[6.3.1.04,12]dodeca-1(11),4,6,8(12),9-pentaene 2,2-dioxide

> <PUBCHEM_IUPAC_CAS_NAME>
3-[6-[4-(2-nitrophenyl)-1-piperazinyl]hexyl]-2lambda6-thia-3-azatricyclo[6.3.1.04,12]dodeca-1(11),4,6,8(12),9-pentaene 2,2-dioxide

> <PUBCHEM_IUPAC_NAME_MARKUP>
3-[6-[4-(2-nitrophenyl)piperazin-1-yl]hexyl]-2&lambda;<SUP>6</SUP>-thia-3-azatricyclo[6.3.1.0<SUP>4,12</SUP>]dodeca-1(11),4,6,8(12),9-pentaene 2,2-dioxide

> <PUBCHEM_IUPAC_NAME>
3-[6-[4-(2-nitrophenyl)piperazin-1-yl]hexyl]-2lambda6-thia-3-azatricyclo[6.3.1.04,12]dodeca-1(11),4,6,8(12),9-pentaene 2,2-dioxide

> <PUBCHEM_IUPAC_SYSTEMATIC_NAME>
3-[6-[4-(2-nitrophenyl)piperazin-1-yl]hexyl]-2lambda6-thia-3-azatricyclo[6.3.1.04,12]dodeca-1(11),4,6,8(12),9-pentaene 2,2-dioxide

> <PUBCHEM_IUPAC_TRADITIONAL_NAME>
3-[6-[4-(2-nitrophenyl)piperazino]hexyl]-2lambda6-thia-3-azatricyclo[6.3.1.04,12]dodeca-1(11),4,6,8(12),9-pentaene 2,2-dioxide

> <PUBCHEM_IUPAC_INCHI>
InChI=1S/C26H30N4O4S/c31-30(32)23-12-4-3-11-22(23)28-19-17-27(18-20-28)15-5-1-2-6-16-29-24-13-7-9-21-10-8-14-25(26(21)24)35(29,33)34/h3-4,7-14H,1-2,5-6,15-20H2

> <PUBCHEM_IUPAC_INCHIKEY>
ULMWAKXWMKUGMX-UHFFFAOYSA-N

> <PUBCHEM_XLOGP3_AA>
4.8

> <PUBCHEM_EXACT_MASS>
494.19877662

> <PUBCHEM_MOLECULAR_FORMULA>
C26H30N4O4S

> <PUBCHEM_MOLECULAR_WEIGHT>
494.6

> <PUBCHEM_OPENEYE_CAN_SMILES>
C1CN(CCN1CCCCCCN2C3=CC=CC4=C3C(=CC=C4)S2(=O)=O)C5=CC=CC=C5[N+](=O)[O-]

> <PUBCHEM_OPENEYE_ISO_SMILES>
C1CN(CCN1CCCCCCN2C3=CC=CC4=C3C(=CC=C4)S2(=O)=O)C5=CC=CC=C5[N+](=O)[O-]

> <PUBCHEM_CACTVS_TPSA>
98.1

> <PUBCHEM_MONOISOTOPIC_WEIGHT>
494.19877662

> <PUBCHEM_TOTAL_CHARGE>
0

> <PUBCHEM_HEAVY_ATOM_COUNT>
35

> <PUBCHEM_ATOM_DEF_STEREO_COUNT>
0

> <PUBCHEM_ATOM_UDEF_STEREO_COUNT>
0

> <PUBCHEM_BOND_DEF_STEREO_COUNT>
0

> <PUBCHEM_BOND_UDEF_STEREO_COUNT>
0

> <PUBCHEM_ISOTOPIC_ATOM_COUNT>
0

> <PUBCHEM_COMPONENT_COUNT>
1

> <PUBCHEM_CACTVS_TAUTO_COUNT>
-1

> <PUBCHEM_COORDINATE_TYPE>
1
5
255

> <PUBCHEM_BONDANNOTATIONS>
20  21  8
20  25  8
21  22  8
21  24  8
22  26  8
23  29  8
23  32  8
24  27  8
24  28  8
25  30  8
26  31  8
27  30  8
28  31  8
29  33  8
32  34  8
33  35  8
34  35  8

$$$$
