166633391
  -OEChem-09292322442D

 53 56  0     1  0  0  0  0  0999 V2000
   14.9001    1.2456    0.0000 Cl  0  0  0  0  0  0  0  0  0  0  0  0
   11.4544    0.8894    0.0000 S   0  0  0  0  0  0  0  0  0  0  0  0
   14.6945    3.2350    0.0000 F   0  0  0  0  0  0  0  0  0  0  0  0
    2.0000   -3.2350    0.0000 F   0  0  0  0  0  0  0  0  0  0  0  0
   12.0408    0.0794    0.0000 O   0  0  0  0  0  0  0  0  0  0  0  0
   10.8680    1.6994    0.0000 O   0  0  0  0  0  0  0  0  0  0  0  0
    5.5443   -3.0397    0.0000 O   0  0  0  0  0  0  0  0  0  0  0  0
    8.1226    0.8833    0.0000 N   0  0  3  0  0  0  0  0  0  0  0  0
   10.6443    0.3030    0.0000 N   0  0  0  0  0  0  0  0  0  0  0  0
    6.1279   -2.2350    0.0000 N   0  0  0  0  0  0  0  0  0  0  0  0
    8.5310    1.7961    0.0000 C   0  0  2  0  0  0  0  0  0  0  0  0
    9.7315    0.7113    0.0000 C   0  0  1  0  0  0  0  0  0  0  0  0
    9.5253    1.6898    0.0000 C   0  0  0  0  0  0  0  0  0  0  0  0
    8.8646    0.2128    0.0000 C   0  0  0  0  0  0  0  0  0  0  0  0
    7.1441    0.6770    0.0000 C   0  0  0  0  0  0  0  0  0  0  0  0
    8.0325    2.6630    0.0000 C   0  0  0  0  0  0  0  0  0  0  0  0
    6.8335   -0.2735    0.0000 C   0  0  0  0  0  0  0  0  0  0  0  0
    5.8550   -0.4797    0.0000 C   0  0  0  0  0  0  0  0  0  0  0  0
   12.2644    1.4758    0.0000 C   0  0  0  0  0  0  0  0  0  0  0  0
    5.5443   -1.4302    0.0000 C   0  0  0  0  0  0  0  0  0  0  0  0
    4.5981   -1.7350    0.0000 C   0  0  0  0  0  0  0  0  0  0  0  0
   13.1773    1.0675    0.0000 C   0  0  0  0  0  0  0  0  0  0  0  0
   12.1616    2.4705    0.0000 C   0  0  0  0  0  0  0  0  0  0  0  0
    4.5981   -2.7350    0.0000 C   0  0  0  0  0  0  0  0  0  0  0  0
    3.7320   -1.2350    0.0000 C   0  0  0  0  0  0  0  0  0  0  0  0
   13.9873    1.6539    0.0000 C   0  0  0  0  0  0  0  0  0  0  0  0
   12.9716    3.0569    0.0000 C   0  0  0  0  0  0  0  0  0  0  0  0
   13.8845    2.6486    0.0000 C   0  0  0  0  0  0  0  0  0  0  0  0
    3.7320   -3.2350    0.0000 C   0  0  0  0  0  0  0  0  0  0  0  0
    2.8660   -1.7350    0.0000 C   0  0  0  0  0  0  0  0  0  0  0  0
    2.8660   -2.7350    0.0000 C   0  0  0  0  0  0  0  0  0  0  0  0
    7.9117    1.7647    0.0000 H   0  0  0  0  0  0  0  0  0  0  0  0
    9.7629    0.0921    0.0000 H   0  0  0  0  0  0  0  0  0  0  0  0
   10.1420    1.7536    0.0000 H   0  0  0  0  0  0  0  0  0  0  0  0
    9.5264    2.3098    0.0000 H   0  0  0  0  0  0  0  0  0  0  0  0
    8.4032   -0.2012    0.0000 H   0  0  0  0  0  0  0  0  0  0  0  0
    9.2282   -0.2894    0.0000 H   0  0  0  0  0  0  0  0  0  0  0  0
    7.1236    1.2967    0.0000 H   0  0  0  0  0  0  0  0  0  0  0  0
    6.5303    0.7644    0.0000 H   0  0  0  0  0  0  0  0  0  0  0  0
    8.5699    2.9721    0.0000 H   0  0  0  0  0  0  0  0  0  0  0  0
    7.7234    3.2005    0.0000 H   0  0  0  0  0  0  0  0  0  0  0  0
    7.4950    2.3539    0.0000 H   0  0  0  0  0  0  0  0  0  0  0  0
   10.7081   -0.3137    0.0000 H   0  0  0  0  0  0  0  0  0  0  0  0
    6.8540   -0.8931    0.0000 H   0  0  0  0  0  0  0  0  0  0  0  0
    7.4473   -0.3608    0.0000 H   0  0  0  0  0  0  0  0  0  0  0  0
    5.8344    0.1400    0.0000 H   0  0  0  0  0  0  0  0  0  0  0  0
    5.2411   -0.3923    0.0000 H   0  0  0  0  0  0  0  0  0  0  0  0
   13.2410    0.4508    0.0000 H   0  0  0  0  0  0  0  0  0  0  0  0
   11.5956    2.7236    0.0000 H   0  0  0  0  0  0  0  0  0  0  0  0
    3.7320   -0.6150    0.0000 H   0  0  0  0  0  0  0  0  0  0  0  0
   12.9079    3.6736    0.0000 H   0  0  0  0  0  0  0  0  0  0  0  0
    3.7320   -3.8550    0.0000 H   0  0  0  0  0  0  0  0  0  0  0  0
    2.3291   -1.4250    0.0000 H   0  0  0  0  0  0  0  0  0  0  0  0
  1 26  1  0  0  0  0
  2  5  2  0  0  0  0
  2  6  2  0  0  0  0
  2  9  1  0  0  0  0
  2 19  1  0  0  0  0
  3 28  1  0  0  0  0
  4 31  1  0  0  0  0
  7 10  1  0  0  0  0
  7 24  1  0  0  0  0
  8 11  1  0  0  0  0
  8 14  1  0  0  0  0
  8 15  1  0  0  0  0
 12  9  1  6  0  0  0
  9 43  1  0  0  0  0
 10 20  2  0  0  0  0
 11 13  1  0  0  0  0
 11 16  1  1  0  0  0
 11 32  1  0  0  0  0
 12 13  1  0  0  0  0
 12 14  1  0  0  0  0
 12 33  1  0  0  0  0
 13 34  1  0  0  0  0
 13 35  1  0  0  0  0
 14 36  1  0  0  0  0
 14 37  1  0  0  0  0
 15 17  1  0  0  0  0
 15 38  1  0  0  0  0
 15 39  1  0  0  0  0
 16 40  1  0  0  0  0
 16 41  1  0  0  0  0
 16 42  1  0  0  0  0
 17 18  1  0  0  0  0
 17 44  1  0  0  0  0
 17 45  1  0  0  0  0
 18 20  1  0  0  0  0
 18 46  1  0  0  0  0
 18 47  1  0  0  0  0
 19 22  2  0  0  0  0
 19 23  1  0  0  0  0
 20 21  1  0  0  0  0
 21 24  2  0  0  0  0
 21 25  1  0  0  0  0
 22 26  1  0  0  0  0
 22 48  1  0  0  0  0
 23 27  2  0  0  0  0
 23 49  1  0  0  0  0
 24 29  1  0  0  0  0
 25 30  2  0  0  0  0
 25 50  1  0  0  0  0
 26 28  2  0  0  0  0
 27 28  1  0  0  0  0
 27 51  1  0  0  0  0
 29 31  2  0  0  0  0
 29 52  1  0  0  0  0
 30 31  1  0  0  0  0
 30 53  1  0  0  0  0
M  END
> <PUBCHEM_COMPOUND_CID>
166633391

> <PUBCHEM_COMPOUND_CANONICALIZED>
1

> <PUBCHEM_CACTVS_COMPLEXITY>
713

> <PUBCHEM_CACTVS_HBOND_ACCEPTOR>
8

> <PUBCHEM_CACTVS_HBOND_DONOR>
1

> <PUBCHEM_CACTVS_ROTATABLE_BOND>
7

> <PUBCHEM_CACTVS_SUBSKEYS>
AAADceB7MYBEAAAAAAAAAAAAAAAAAWLAAAAwYAAAAAAAAFgB9AAAHwYUQAAADC7B3iwyh9NQAAKpA6RyQnDCABAkJQAomLk+TtoIZrqB15OUMYBm0BmIyceYyKCOAAAAABAIAAAAAAAAIBAAAAAAAAAAAA==

> <PUBCHEM_IUPAC_OPENEYE_NAME>
3-chloro-4-fluoro-N-[(3S,5S)-1-[3-(6-fluoro-1,2-benzoxazol-3-yl)propyl]-5-methyl-pyrrolidin-3-yl]benzenesulfonamide

> <PUBCHEM_IUPAC_CAS_NAME>
3-chloro-4-fluoro-N-[(3S,5S)-1-[3-(6-fluoro-1,2-benzoxazol-3-yl)propyl]-5-methyl-3-pyrrolidinyl]benzenesulfonamide

> <PUBCHEM_IUPAC_NAME_MARKUP>
3-chloro-4-fluoro-<I>N</I>-[(3<I>S</I>,5<I>S</I>)-1-[3-(6-fluoro-1,2-benzoxazol-3-yl)propyl]-5-methylpyrrolidin-3-yl]benzenesulfonamide

> <PUBCHEM_IUPAC_NAME>
3-chloro-4-fluoro-N-[(3S,5S)-1-[3-(6-fluoro-1,2-benzoxazol-3-yl)propyl]-5-methylpyrrolidin-3-yl]benzenesulfonamide

> <PUBCHEM_IUPAC_SYSTEMATIC_NAME>
3-chloranyl-4-fluoranyl-N-[(3S,5S)-1-[3-(6-fluoranyl-1,2-benzoxazol-3-yl)propyl]-5-methyl-pyrrolidin-3-yl]benzenesulfonamide

> <PUBCHEM_IUPAC_TRADITIONAL_NAME>
3-chloro-4-fluoro-N-[(3S,5S)-1-[3-(6-fluoroindoxazen-3-yl)propyl]-5-methyl-pyrrolidin-3-yl]benzenesulfonamide

> <PUBCHEM_IUPAC_INCHI>
InChI=1S/C21H22ClF2N3O3S/c1-13-9-15(26-31(28,29)16-5-7-19(24)18(22)11-16)12-27(13)8-2-3-20-17-6-4-14(23)10-21(17)30-25-20/h4-7,10-11,13,15,26H,2-3,8-9,12H2,1H3/t13-,15-/m0/s1

> <PUBCHEM_IUPAC_INCHIKEY>
WPHJGSMNRMHHKG-ZFWWWQNUSA-N

> <PUBCHEM_XLOGP3_AA>
4.5

> <PUBCHEM_EXACT_MASS>
469.1038468

> <PUBCHEM_MOLECULAR_FORMULA>
C21H22ClF2N3O3S

> <PUBCHEM_MOLECULAR_WEIGHT>
469.9

> <PUBCHEM_OPENEYE_CAN_SMILES>
CC1CC(CN1CCCC2=NOC3=C2C=CC(=C3)F)NS(=O)(=O)C4=CC(=C(C=C4)F)Cl

> <PUBCHEM_OPENEYE_ISO_SMILES>
C[C@H]1C[C@@H](CN1CCCC2=NOC3=C2C=CC(=C3)F)NS(=O)(=O)C4=CC(=C(C=C4)F)Cl

> <PUBCHEM_CACTVS_TPSA>
83.8

> <PUBCHEM_MONOISOTOPIC_WEIGHT>
469.1038468

> <PUBCHEM_TOTAL_CHARGE>
0

> <PUBCHEM_HEAVY_ATOM_COUNT>
31

> <PUBCHEM_ATOM_DEF_STEREO_COUNT>
2

> <PUBCHEM_ATOM_UDEF_STEREO_COUNT>
0

> <PUBCHEM_BOND_DEF_STEREO_COUNT>
0

> <PUBCHEM_BOND_UDEF_STEREO_COUNT>
0

> <PUBCHEM_ISOTOPIC_ATOM_COUNT>
0

> <PUBCHEM_COMPONENT_COUNT>
1

> <PUBCHEM_CACTVS_TAUTO_COUNT>
-1

> <PUBCHEM_COORDINATE_TYPE>
1
5
255

> <PUBCHEM_BONDANNOTATIONS>
10  20  8
11  16  5
19  22  8
19  23  8
20  21  8
21  24  8
21  25  8
22  26  8
23  27  8
24  29  8
25  30  8
26  28  8
27  28  8
29  31  8
30  31  8
7  10  8
7  24  8
12  9  6

$$$$
