44439409
  -OEChem-09292322262D

 46 48  0     1  0  0  0  0  0999 V2000
   11.0511    0.7993    0.0000 O   0  0  0  0  0  0  0  0  0  0  0  0
   12.6975    0.2612    0.0000 O   0  0  0  0  0  0  0  0  0  0  0  0
    7.1962    0.0440    0.0000 N   0  0  0  0  0  0  0  0  0  0  0  0
    5.4641    0.0440    0.0000 N   0  0  0  0  0  0  0  0  0  0  0  0
   10.7404   -0.1513    0.0000 C   0  0  3  0  0  0  0  0  0  0  0  0
   11.3241   -0.9560    0.0000 C   0  0  0  0  0  0  0  0  0  0  0  0
   10.7404   -1.7607    0.0000 C   0  0  0  0  0  0  0  0  0  0  0  0
    9.7942   -0.4560    0.0000 C   0  0  0  0  0  0  0  0  0  0  0  0
    9.7942   -1.4560    0.0000 C   0  0  0  0  0  0  0  0  0  0  0  0
    8.9282    0.0440    0.0000 C   0  0  0  0  0  0  0  0  0  0  0  0
    8.9282   -1.9560    0.0000 C   0  0  0  0  0  0  0  0  0  0  0  0
    8.0622   -0.4560    0.0000 C   0  0  0  0  0  0  0  0  0  0  0  0
    8.0622   -1.4560    0.0000 C   0  0  0  0  0  0  0  0  0  0  0  0
   12.0296    1.0055    0.0000 C   0  0  0  0  0  0  0  0  0  0  0  0
    6.3301   -0.4560    0.0000 C   0  0  0  0  0  0  0  0  0  0  0  0
    4.5981   -0.4560    0.0000 C   0  0  0  0  0  0  0  0  0  0  0  0
   12.3403    1.9560    0.0000 C   0  0  0  0  0  0  0  0  0  0  0  0
    3.7320    0.0440    0.0000 C   0  0  0  0  0  0  0  0  0  0  0  0
    5.4641    1.0440    0.0000 C   0  0  0  0  0  0  0  0  0  0  0  0
    3.7320    1.0440    0.0000 C   0  0  0  0  0  0  0  0  0  0  0  0
    2.8660   -0.4560    0.0000 C   0  0  0  0  0  0  0  0  0  0  0  0
    2.8660    1.5440    0.0000 C   0  0  0  0  0  0  0  0  0  0  0  0
    2.0000    0.0440    0.0000 C   0  0  0  0  0  0  0  0  0  0  0  0
    2.0000    1.0440    0.0000 C   0  0  0  0  0  0  0  0  0  0  0  0
   10.3030    0.2881    0.0000 H   0  0  0  0  0  0  0  0  0  0  0  0
   11.7849   -1.3707    0.0000 H   0  0  0  0  0  0  0  0  0  0  0  0
   11.7849   -0.5413    0.0000 H   0  0  0  0  0  0  0  0  0  0  0  0
   10.4894   -2.3276    0.0000 H   0  0  0  0  0  0  0  0  0  0  0  0
   11.2778   -2.0700    0.0000 H   0  0  0  0  0  0  0  0  0  0  0  0
    8.9282    0.6640    0.0000 H   0  0  0  0  0  0  0  0  0  0  0  0
    8.9282   -2.5760    0.0000 H   0  0  0  0  0  0  0  0  0  0  0  0
    7.5252   -1.7660    0.0000 H   0  0  0  0  0  0  0  0  0  0  0  0
    6.3301   -1.0760    0.0000 H   0  0  0  0  0  0  0  0  0  0  0  0
    4.1996   -0.9309    0.0000 H   0  0  0  0  0  0  0  0  0  0  0  0
    4.9966   -0.9309    0.0000 H   0  0  0  0  0  0  0  0  0  0  0  0
   12.9296    1.7634    0.0000 H   0  0  0  0  0  0  0  0  0  0  0  0
   12.5329    2.5453    0.0000 H   0  0  0  0  0  0  0  0  0  0  0  0
   11.7510    2.1486    0.0000 H   0  0  0  0  0  0  0  0  0  0  0  0
    6.0841    1.0440    0.0000 H   0  0  0  0  0  0  0  0  0  0  0  0
    5.4641    1.6640    0.0000 H   0  0  0  0  0  0  0  0  0  0  0  0
    4.8441    1.0440    0.0000 H   0  0  0  0  0  0  0  0  0  0  0  0
    4.2690    1.3540    0.0000 H   0  0  0  0  0  0  0  0  0  0  0  0
    2.8660   -1.0760    0.0000 H   0  0  0  0  0  0  0  0  0  0  0  0
    2.8660    2.1640    0.0000 H   0  0  0  0  0  0  0  0  0  0  0  0
    1.4631   -0.2660    0.0000 H   0  0  0  0  0  0  0  0  0  0  0  0
    1.4631    1.3540    0.0000 H   0  0  0  0  0  0  0  0  0  0  0  0
  1  5  1  0  0  0  0
  1 14  1  0  0  0  0
  2 14  2  0  0  0  0
  3 12  1  0  0  0  0
  3 15  2  0  0  0  0
  4 15  1  0  0  0  0
  4 16  1  0  0  0  0
  4 19  1  0  0  0  0
  5  6  1  0  0  0  0
  5  8  1  0  0  0  0
  5 25  1  0  0  0  0
  6  7  1  0  0  0  0
  6 26  1  0  0  0  0
  6 27  1  0  0  0  0
  7  9  1  0  0  0  0
  7 28  1  0  0  0  0
  7 29  1  0  0  0  0
  8  9  2  0  0  0  0
  8 10  1  0  0  0  0
  9 11  1  0  0  0  0
 10 12  2  0  0  0  0
 10 30  1  0  0  0  0
 11 13  2  0  0  0  0
 11 31  1  0  0  0  0
 12 13  1  0  0  0  0
 13 32  1  0  0  0  0
 14 17  1  0  0  0  0
 15 33  1  0  0  0  0
 16 18  1  0  0  0  0
 16 34  1  0  0  0  0
 16 35  1  0  0  0  0
 17 36  1  0  0  0  0
 17 37  1  0  0  0  0
 17 38  1  0  0  0  0
 18 20  2  0  0  0  0
 18 21  1  0  0  0  0
 19 39  1  0  0  0  0
 19 40  1  0  0  0  0
 19 41  1  0  0  0  0
 20 22  1  0  0  0  0
 20 42  1  0  0  0  0
 21 23  2  0  0  0  0
 21 43  1  0  0  0  0
 22 24  2  0  0  0  0
 22 44  1  0  0  0  0
 23 24  1  0  0  0  0
 23 45  1  0  0  0  0
 24 46  1  0  0  0  0
M  END
> <PUBCHEM_COMPOUND_CID>
44439409

> <PUBCHEM_COMPOUND_CANONICALIZED>
1

> <PUBCHEM_CACTVS_COMPLEXITY>
445

> <PUBCHEM_CACTVS_HBOND_ACCEPTOR>
3

> <PUBCHEM_CACTVS_HBOND_DONOR>
0

> <PUBCHEM_CACTVS_ROTATABLE_BOND>
6

> <PUBCHEM_CACTVS_SUBSKEYS>
AAADceB7MAAAAAAAAAAAAAAAAAAAAYAAAAAwYAAAAAAAAGABQAAAHgAAAAAADBzhmAYzyIMABACoAiTTbACCAAEgAgAJiAAIbIgIJiKAuZmGMAhkwAEI6AewwKAOiAAAQAAQAAAQAACAACAAAIAADAAAAA==

> <PUBCHEM_IUPAC_OPENEYE_NAME>
[6-[[benzyl(methyl)amino]methyleneamino]indan-1-yl] acetate

> <PUBCHEM_IUPAC_CAS_NAME>
acetic acid [6-[[methyl-(phenylmethyl)amino]methylideneamino]-2,3-dihydro-1H-inden-1-yl] ester

> <PUBCHEM_IUPAC_NAME_MARKUP>
[6-[[benzyl(methyl)amino]methylideneamino]-2,3-dihydro-1<I>H</I>-inden-1-yl] acetate

> <PUBCHEM_IUPAC_NAME>
[6-[[benzyl(methyl)amino]methylideneamino]-2,3-dihydro-1H-inden-1-yl] acetate

> <PUBCHEM_IUPAC_SYSTEMATIC_NAME>
[6-[[methyl-(phenylmethyl)amino]methylideneamino]-2,3-dihydro-1H-inden-1-yl] ethanoate

> <PUBCHEM_IUPAC_TRADITIONAL_NAME>
acetic acid [6-[[benzyl(methyl)amino]methyleneamino]indan-1-yl] ester

> <PUBCHEM_IUPAC_INCHI>
InChI=1S/C20H22N2O2/c1-15(23)24-20-11-9-17-8-10-18(12-19(17)20)21-14-22(2)13-16-6-4-3-5-7-16/h3-8,10,12,14,20H,9,11,13H2,1-2H3

> <PUBCHEM_IUPAC_INCHIKEY>
LGWSPIADNFUMJB-UHFFFAOYSA-N

> <PUBCHEM_XLOGP3_AA>
3.2

> <PUBCHEM_EXACT_MASS>
322.168127949

> <PUBCHEM_MOLECULAR_FORMULA>
C20H22N2O2

> <PUBCHEM_MOLECULAR_WEIGHT>
322.4

> <PUBCHEM_OPENEYE_CAN_SMILES>
CC(=O)OC1CCC2=C1C=C(C=C2)N=CN(C)CC3=CC=CC=C3

> <PUBCHEM_OPENEYE_ISO_SMILES>
CC(=O)OC1CCC2=C1C=C(C=C2)N=CN(C)CC3=CC=CC=C3

> <PUBCHEM_CACTVS_TPSA>
41.9

> <PUBCHEM_MONOISOTOPIC_WEIGHT>
322.168127949

> <PUBCHEM_TOTAL_CHARGE>
0

> <PUBCHEM_HEAVY_ATOM_COUNT>
24

> <PUBCHEM_ATOM_DEF_STEREO_COUNT>
0

> <PUBCHEM_ATOM_UDEF_STEREO_COUNT>
1

> <PUBCHEM_BOND_DEF_STEREO_COUNT>
0

> <PUBCHEM_BOND_UDEF_STEREO_COUNT>
0

> <PUBCHEM_ISOTOPIC_ATOM_COUNT>
0

> <PUBCHEM_COMPONENT_COUNT>
1

> <PUBCHEM_CACTVS_TAUTO_COUNT>
-1

> <PUBCHEM_COORDINATE_TYPE>
1
5
255

> <PUBCHEM_BONDANNOTATIONS>
5  1  3
10  12  8
11  13  8
12  13  8
18  20  8
18  21  8
20  22  8
21  23  8
22  24  8
23  24  8
8  10  8
8  9  8
9  11  8

$$$$
