76325763
  -OEChem-09292322342D

 70 72  0     0  0  0  0  0  0999 V2000
   14.0309    2.4860    0.0000 O   0  0  0  0  0  0  0  0  0  0  0  0
    7.0309    0.7540    0.0000 O   0  0  0  0  0  0  0  0  0  0  0  0
    1.4030    2.6200    0.0000 O   0  0  0  0  0  0  0  0  0  0  0  0
    9.6245    8.6935    0.0000 O   0  0  0  0  0  0  0  0  0  0  0  0
    7.0264    9.1935    0.0000 O   0  0  0  0  0  0  0  0  0  0  0  0
    8.7584   10.1935    0.0000 O   0  0  0  0  0  0  0  0  0  0  0  0
    7.8924    7.6935    0.0000 O   0  0  0  0  0  0  0  0  0  0  0  0
   11.0309    4.2181    0.0000 N   0  0  0  0  0  0  0  0  0  0  0  0
   13.0309    4.2181    0.0000 N   0  0  0  0  0  0  0  0  0  0  0  0
    7.0309    2.4860    0.0000 N   0  0  0  0  0  0  0  0  0  0  0  0
    4.9473    0.8153    0.0000 N   0  0  0  0  0  0  0  0  0  0  0  0
   11.5309    5.0841    0.0000 C   0  0  0  0  0  0  0  0  0  0  0  0
   11.5309    3.3520    0.0000 C   0  0  0  0  0  0  0  0  0  0  0  0
   12.5309    5.0841    0.0000 C   0  0  0  0  0  0  0  0  0  0  0  0
   12.5309    3.3520    0.0000 C   0  0  0  0  0  0  0  0  0  0  0  0
   10.0309    4.2181    0.0000 C   0  0  0  0  0  0  0  0  0  0  0  0
   14.0309    4.2181    0.0000 C   0  0  0  0  0  0  0  0  0  0  0  0
    9.5309    3.3520    0.0000 C   0  0  0  0  0  0  0  0  0  0  0  0
   14.5309    3.3520    0.0000 C   0  0  0  0  0  0  0  0  0  0  0  0
   14.5309    5.0841    0.0000 C   0  0  0  0  0  0  0  0  0  0  0  0
   15.5309    3.3520    0.0000 C   0  0  0  0  0  0  0  0  0  0  0  0
    8.5309    3.3520    0.0000 C   0  0  0  0  0  0  0  0  0  0  0  0
   15.5309    5.0841    0.0000 C   0  0  0  0  0  0  0  0  0  0  0  0
   16.0309    4.2181    0.0000 C   0  0  0  0  0  0  0  0  0  0  0  0
    8.0309    2.4860    0.0000 C   0  0  0  0  0  0  0  0  0  0  0  0
    5.5309    1.6200    0.0000 C   0  0  0  0  0  0  0  0  0  0  0  0
   14.5309    1.6200    0.0000 C   0  0  0  0  0  0  0  0  0  0  0  0
    4.0010    2.1200    0.0000 C   0  0  0  0  0  0  0  0  0  0  0  0
    4.0010    1.1200    0.0000 C   0  0  0  0  0  0  0  0  0  0  0  0
    6.5309    1.6200    0.0000 C   0  0  0  0  0  0  0  0  0  0  0  0
    4.9473    2.4247    0.0000 C   0  0  0  0  0  0  0  0  0  0  0  0
    3.1350    2.6200    0.0000 C   0  0  0  0  0  0  0  0  0  0  0  0
    3.1350    0.6200    0.0000 C   0  0  0  0  0  0  0  0  0  0  0  0
    2.2690    2.1200    0.0000 C   0  0  0  0  0  0  0  0  0  0  0  0
    2.2690    1.1200    0.0000 C   0  0  0  0  0  0  0  0  0  0  0  0
    0.5369    2.1200    0.0000 C   0  0  0  0  0  0  0  0  0  0  0  0
    8.7584    9.1935    0.0000 C   0  0  0  0  0  0  0  0  0  0  0  0
    7.8924    8.6935    0.0000 C   0  0  0  0  0  0  0  0  0  0  0  0
   11.6385    5.6947    0.0000 H   0  0  0  0  0  0  0  0  0  0  0  0
   10.9483    5.2962    0.0000 H   0  0  0  0  0  0  0  0  0  0  0  0
   10.9483    3.1400    0.0000 H   0  0  0  0  0  0  0  0  0  0  0  0
   11.6385    2.7415    0.0000 H   0  0  0  0  0  0  0  0  0  0  0  0
   13.1135    5.2962    0.0000 H   0  0  0  0  0  0  0  0  0  0  0  0
   12.4232    5.6947    0.0000 H   0  0  0  0  0  0  0  0  0  0  0  0
   12.4232    2.7415    0.0000 H   0  0  0  0  0  0  0  0  0  0  0  0
   13.1135    3.1400    0.0000 H   0  0  0  0  0  0  0  0  0  0  0  0
   10.1385    4.8287    0.0000 H   0  0  0  0  0  0  0  0  0  0  0  0
    9.4483    4.4301    0.0000 H   0  0  0  0  0  0  0  0  0  0  0  0
    9.8409    2.8151    0.0000 H   0  0  0  0  0  0  0  0  0  0  0  0
   14.2209    5.6210    0.0000 H   0  0  0  0  0  0  0  0  0  0  0  0
   15.8409    2.8151    0.0000 H   0  0  0  0  0  0  0  0  0  0  0  0
    8.2209    3.8890    0.0000 H   0  0  0  0  0  0  0  0  0  0  0  0
   15.8409    5.6210    0.0000 H   0  0  0  0  0  0  0  0  0  0  0  0
   16.6509    4.2181    0.0000 H   0  0  0  0  0  0  0  0  0  0  0  0
    7.9232    1.8754    0.0000 H   0  0  0  0  0  0  0  0  0  0  0  0
    8.6135    2.2740    0.0000 H   0  0  0  0  0  0  0  0  0  0  0  0
    6.7209    3.0230    0.0000 H   0  0  0  0  0  0  0  0  0  0  0  0
   13.9939    1.3100    0.0000 H   0  0  0  0  0  0  0  0  0  0  0  0
   14.8409    1.0831    0.0000 H   0  0  0  0  0  0  0  0  0  0  0  0
   15.0678    1.9300    0.0000 H   0  0  0  0  0  0  0  0  0  0  0  0
    5.1399    3.0141    0.0000 H   0  0  0  0  0  0  0  0  0  0  0  0
    5.1399    0.2259    0.0000 H   0  0  0  0  0  0  0  0  0  0  0  0
    3.1350    3.2400    0.0000 H   0  0  0  0  0  0  0  0  0  0  0  0
    3.1350    0.0000    0.0000 H   0  0  0  0  0  0  0  0  0  0  0  0
    1.7320    0.8100    0.0000 H   0  0  0  0  0  0  0  0  0  0  0  0
    0.2269    2.6569    0.0000 H   0  0  0  0  0  0  0  0  0  0  0  0
    0.0000    1.8100    0.0000 H   0  0  0  0  0  0  0  0  0  0  0  0
    0.8469    1.5831    0.0000 H   0  0  0  0  0  0  0  0  0  0  0  0
   10.1614    9.0035    0.0000 H   0  0  0  0  0  0  0  0  0  0  0  0
    6.4895    8.8835    0.0000 H   0  0  0  0  0  0  0  0  0  0  0  0
  1 19  1  0  0  0  0
  1 27  1  0  0  0  0
  2 30  2  0  0  0  0
  3 34  1  0  0  0  0
  3 36  1  0  0  0  0
  4 37  1  0  0  0  0
  4 69  1  0  0  0  0
  5 38  1  0  0  0  0
  5 70  1  0  0  0  0
  6 37  2  0  0  0  0
  7 38  2  0  0  0  0
  8 12  1  0  0  0  0
  8 13  1  0  0  0  0
  8 16  1  0  0  0  0
  9 14  1  0  0  0  0
  9 15  1  0  0  0  0
  9 17  1  0  0  0  0
 10 25  1  0  0  0  0
 10 30  1  0  0  0  0
 10 57  1  0  0  0  0
 11 26  1  0  0  0  0
 11 29  1  0  0  0  0
 11 62  1  0  0  0  0
 12 14  1  0  0  0  0
 12 39  1  0  0  0  0
 12 40  1  0  0  0  0
 13 15  1  0  0  0  0
 13 41  1  0  0  0  0
 13 42  1  0  0  0  0
 14 43  1  0  0  0  0
 14 44  1  0  0  0  0
 15 45  1  0  0  0  0
 15 46  1  0  0  0  0
 16 18  1  0  0  0  0
 16 47  1  0  0  0  0
 16 48  1  0  0  0  0
 17 19  1  0  0  0  0
 17 20  2  0  0  0  0
 18 22  2  0  0  0  0
 18 49  1  0  0  0  0
 19 21  2  0  0  0  0
 20 23  1  0  0  0  0
 20 50  1  0  0  0  0
 21 24  1  0  0  0  0
 21 51  1  0  0  0  0
 22 25  1  0  0  0  0
 22 52  1  0  0  0  0
 23 24  2  0  0  0  0
 23 53  1  0  0  0  0
 24 54  1  0  0  0  0
 25 55  1  0  0  0  0
 25 56  1  0  0  0  0
 26 30  1  0  0  0  0
 26 31  2  0  0  0  0
 27 58  1  0  0  0  0
 27 59  1  0  0  0  0
 27 60  1  0  0  0  0
 28 29  2  0  0  0  0
 28 31  1  0  0  0  0
 28 32  1  0  0  0  0
 29 33  1  0  0  0  0
 31 61  1  0  0  0  0
 32 34  2  0  0  0  0
 32 63  1  0  0  0  0
 33 35  2  0  0  0  0
 33 64  1  0  0  0  0
 34 35  1  0  0  0  0
 35 65  1  0  0  0  0
 36 66  1  0  0  0  0
 36 67  1  0  0  0  0
 36 68  1  0  0  0  0
 37 38  1  0  0  0  0
M  END
> <PUBCHEM_COMPOUND_CID>
76325763

> <PUBCHEM_COMPOUND_CANONICALIZED>
1

> <PUBCHEM_CACTVS_COMPLEXITY>
694

> <PUBCHEM_CACTVS_HBOND_ACCEPTOR>
9

> <PUBCHEM_CACTVS_HBOND_DONOR>
4

> <PUBCHEM_CACTVS_ROTATABLE_BOND>
9

> <PUBCHEM_CACTVS_SUBSKEYS>
AAADcfB7uAAAAAAAAAAAAAAAAAAAAWAAAAA8YIAAAAAAAFgB9AAAHgAQCAAADAzBngYyzvPJlgCoAyXyXAKCiCAnIiAImaH/bNgPZvLEtbuVMShk1hHZ6Ye42bOeAEABAAACEAAAgAIAAAQgAAAAAAAAAA==

> <PUBCHEM_IUPAC_OPENEYE_NAME>
5-methoxy-N-[(E)-4-[4-(2-methoxyphenyl)piperazin-1-yl]but-2-enyl]-1H-indole-2-carboxamide;oxalic acid

> <PUBCHEM_IUPAC_CAS_NAME>
5-methoxy-N-[(E)-4-[4-(2-methoxyphenyl)-1-piperazinyl]but-2-enyl]-1H-indole-2-carboxamide;oxalic acid

> <PUBCHEM_IUPAC_NAME_MARKUP>
5-methoxy-<I>N</I>-[(<I>E</I>)-4-[4-(2-methoxyphenyl)piperazin-1-yl]but-2-enyl]-1<I>H</I>-indole-2-carboxamide;oxalic acid

> <PUBCHEM_IUPAC_NAME>
5-methoxy-N-[(E)-4-[4-(2-methoxyphenyl)piperazin-1-yl]but-2-enyl]-1H-indole-2-carboxamide;oxalic acid

> <PUBCHEM_IUPAC_SYSTEMATIC_NAME>
ethanedioic acid;5-methoxy-N-[(E)-4-[4-(2-methoxyphenyl)piperazin-1-yl]but-2-enyl]-1H-indole-2-carboxamide

> <PUBCHEM_IUPAC_TRADITIONAL_NAME>
5-methoxy-N-[(E)-4-[4-(2-methoxyphenyl)piperazino]but-2-enyl]-1H-indole-2-carboxamide;oxalic acid

> <PUBCHEM_IUPAC_INCHI>
InChI=1S/C25H30N4O3.C2H2O4/c1-31-20-9-10-21-19(17-20)18-22(27-21)25(30)26-11-5-6-12-28-13-15-29(16-14-28)23-7-3-4-8-24(23)32-2;3-1(4)2(5)6/h3-10,17-18,27H,11-16H2,1-2H3,(H,26,30);(H,3,4)(H,5,6)/b6-5+;

> <PUBCHEM_IUPAC_INCHIKEY>
SUCWLBCHGIDFRN-IPZCTEOASA-N

> <PUBCHEM_EXACT_MASS>
524.22709937

> <PUBCHEM_MOLECULAR_FORMULA>
C27H32N4O7

> <PUBCHEM_MOLECULAR_WEIGHT>
524.6

> <PUBCHEM_OPENEYE_CAN_SMILES>
COC1=CC2=C(C=C1)NC(=C2)C(=O)NCC=CCN3CCN(CC3)C4=CC=CC=C4OC.C(=O)(C(=O)O)O

> <PUBCHEM_OPENEYE_ISO_SMILES>
COC1=CC2=C(C=C1)NC(=C2)C(=O)NC/C=C/CN3CCN(CC3)C4=CC=CC=C4OC.C(=O)(C(=O)O)O

> <PUBCHEM_CACTVS_TPSA>
144

> <PUBCHEM_MONOISOTOPIC_WEIGHT>
524.22709937

> <PUBCHEM_TOTAL_CHARGE>
0

> <PUBCHEM_HEAVY_ATOM_COUNT>
38

> <PUBCHEM_ATOM_DEF_STEREO_COUNT>
0

> <PUBCHEM_ATOM_UDEF_STEREO_COUNT>
0

> <PUBCHEM_BOND_DEF_STEREO_COUNT>
1

> <PUBCHEM_BOND_UDEF_STEREO_COUNT>
0

> <PUBCHEM_ISOTOPIC_ATOM_COUNT>
0

> <PUBCHEM_COMPONENT_COUNT>
2

> <PUBCHEM_CACTVS_TAUTO_COUNT>
-1

> <PUBCHEM_COORDINATE_TYPE>
1
5
255

> <PUBCHEM_BONDANNOTATIONS>
11  26  8
11  29  8
17  19  8
17  20  8
19  21  8
20  23  8
21  24  8
23  24  8
26  31  8
28  29  8
28  31  8
28  32  8
29  33  8
32  34  8
33  35  8
34  35  8

$$$$
