25139014
  -OEChem-09292322502D

 31 33  0     1  0  0  0  0  0999 V2000
    8.1962   -2.0668    0.0000 Br  0  0  0  0  0  0  0  0  0  0  0  0
    3.8000    1.4573    0.0000 N   0  0  0  0  0  0  0  0  0  0  0  0
    4.6660   -0.0427    0.0000 C   0  0  3  0  0  0  0  0  0  0  0  0
    5.5321   -0.5427    0.0000 C   0  0  0  0  0  0  0  0  0  0  0  0
    3.8000   -0.5427    0.0000 C   0  0  0  0  0  0  0  0  0  0  0  0
    4.6660   -2.0427    0.0000 C   0  0  0  0  0  0  0  0  0  0  0  0
    5.5321   -1.5427    0.0000 C   0  0  0  0  0  0  0  0  0  0  0  0
    3.8000   -1.5427    0.0000 C   0  0  0  0  0  0  0  0  0  0  0  0
    4.6660    0.9573    0.0000 C   0  0  0  0  0  0  0  0  0  0  0  0
    6.4260   -0.0080    0.0000 C   0  0  0  0  0  0  0  0  0  0  0  0
    2.9061   -0.0080    0.0000 C   0  0  0  0  0  0  0  0  0  0  0  0
    6.4260   -2.0773    0.0000 C   0  0  0  0  0  0  0  0  0  0  0  0
    2.9061   -2.0773    0.0000 C   0  0  0  0  0  0  0  0  0  0  0  0
    7.3321   -0.5219    0.0000 C   0  0  0  0  0  0  0  0  0  0  0  0
    2.0000   -0.5219    0.0000 C   0  0  0  0  0  0  0  0  0  0  0  0
    7.3321   -1.5635    0.0000 C   0  0  0  0  0  0  0  0  0  0  0  0
    2.0000   -1.5635    0.0000 C   0  0  0  0  0  0  0  0  0  0  0  0
    5.2030    0.2673    0.0000 H   0  0  0  0  0  0  0  0  0  0  0  0
    4.2675   -2.5176    0.0000 H   0  0  0  0  0  0  0  0  0  0  0  0
    5.0646   -2.5176    0.0000 H   0  0  0  0  0  0  0  0  0  0  0  0
    5.2766    0.8497    0.0000 H   0  0  0  0  0  0  0  0  0  0  0  0
    4.8781    1.5399    0.0000 H   0  0  0  0  0  0  0  0  0  0  0  0
    6.4188    0.6120    0.0000 H   0  0  0  0  0  0  0  0  0  0  0  0
    2.9132    0.6120    0.0000 H   0  0  0  0  0  0  0  0  0  0  0  0
    6.4188   -2.6973    0.0000 H   0  0  0  0  0  0  0  0  0  0  0  0
    2.9132   -2.6973    0.0000 H   0  0  0  0  0  0  0  0  0  0  0  0
    7.8678   -0.2098    0.0000 H   0  0  0  0  0  0  0  0  0  0  0  0
    1.4643   -0.2098    0.0000 H   0  0  0  0  0  0  0  0  0  0  0  0
    1.4643   -1.8756    0.0000 H   0  0  0  0  0  0  0  0  0  0  0  0
    3.8000    2.0773    0.0000 H   0  0  0  0  0  0  0  0  0  0  0  0
    3.2631    1.1473    0.0000 H   0  0  0  0  0  0  0  0  0  0  0  0
  1 16  1  0  0  0  0
  2  9  1  0  0  0  0
  2 30  1  0  0  0  0
  2 31  1  0  0  0  0
  3  4  1  0  0  0  0
  3  5  1  0  0  0  0
  3  9  1  0  0  0  0
  3 18  1  0  0  0  0
  4  7  2  0  0  0  0
  4 10  1  0  0  0  0
  5  8  1  0  0  0  0
  5 11  2  0  0  0  0
  6  7  1  0  0  0  0
  6  8  1  0  0  0  0
  6 19  1  0  0  0  0
  6 20  1  0  0  0  0
  7 12  1  0  0  0  0
  8 13  2  0  0  0  0
  9 21  1  0  0  0  0
  9 22  1  0  0  0  0
 10 14  2  0  0  0  0
 10 23  1  0  0  0  0
 11 15  1  0  0  0  0
 11 24  1  0  0  0  0
 12 16  2  0  0  0  0
 12 25  1  0  0  0  0
 13 17  1  0  0  0  0
 13 26  1  0  0  0  0
 14 16  1  0  0  0  0
 14 27  1  0  0  0  0
 15 17  2  0  0  0  0
 15 28  1  0  0  0  0
 17 29  1  0  0  0  0
M  END
> <PUBCHEM_COMPOUND_CID>
25139014

> <PUBCHEM_COMPOUND_CANONICALIZED>
1

> <PUBCHEM_CACTVS_COMPLEXITY>
268

> <PUBCHEM_CACTVS_HBOND_ACCEPTOR>
1

> <PUBCHEM_CACTVS_HBOND_DONOR>
1

> <PUBCHEM_CACTVS_ROTATABLE_BOND>
1

> <PUBCHEM_CACTVS_SUBSKEYS>
AAADccByAAAAEAAAAAAAAAAAAAAAAAAAAAAwYMAAAAAAAADBQAAAHABQAAABrQDBGAQwAIBAAACAAiBCAAACAAAgAAQIiIAAAKgIICKAkRGAIAAgkAAIihcQgMAOggAAEAAQAACEAAQgACAAAAAAAAAAAA==

> <PUBCHEM_IUPAC_OPENEYE_NAME>
(3-bromo-9,10-dihydroanthracen-9-yl)methanamine

> <PUBCHEM_IUPAC_CAS_NAME>
(3-bromo-9,10-dihydroanthracen-9-yl)methanamine

> <PUBCHEM_IUPAC_NAME_MARKUP>
(3-bromo-9,10-dihydroanthracen-9-yl)methanamine

> <PUBCHEM_IUPAC_NAME>
(3-bromo-9,10-dihydroanthracen-9-yl)methanamine

> <PUBCHEM_IUPAC_SYSTEMATIC_NAME>
(3-bromanyl-9,10-dihydroanthracen-9-yl)methanamine

> <PUBCHEM_IUPAC_TRADITIONAL_NAME>
(3-bromo-9,10-dihydroanthracen-9-yl)methylamine

> <PUBCHEM_IUPAC_INCHI>
InChI=1S/C15H14BrN/c16-12-5-6-14-11(8-12)7-10-3-1-2-4-13(10)15(14)9-17/h1-6,8,15H,7,9,17H2

> <PUBCHEM_IUPAC_INCHIKEY>
LVTUDYZTQRSARZ-UHFFFAOYSA-N

> <PUBCHEM_XLOGP3_AA>
3.4

> <PUBCHEM_EXACT_MASS>
287.03096

> <PUBCHEM_MOLECULAR_FORMULA>
C15H14BrN

> <PUBCHEM_MOLECULAR_WEIGHT>
288.18

> <PUBCHEM_OPENEYE_CAN_SMILES>
C1C2=CC=CC=C2C(C3=C1C=C(C=C3)Br)CN

> <PUBCHEM_OPENEYE_ISO_SMILES>
C1C2=CC=CC=C2C(C3=C1C=C(C=C3)Br)CN

> <PUBCHEM_CACTVS_TPSA>
26

> <PUBCHEM_MONOISOTOPIC_WEIGHT>
287.03096

> <PUBCHEM_TOTAL_CHARGE>
0

> <PUBCHEM_HEAVY_ATOM_COUNT>
17

> <PUBCHEM_ATOM_DEF_STEREO_COUNT>
0

> <PUBCHEM_ATOM_UDEF_STEREO_COUNT>
1

> <PUBCHEM_BOND_DEF_STEREO_COUNT>
0

> <PUBCHEM_BOND_UDEF_STEREO_COUNT>
0

> <PUBCHEM_ISOTOPIC_ATOM_COUNT>
0

> <PUBCHEM_COMPONENT_COUNT>
1

> <PUBCHEM_CACTVS_TAUTO_COUNT>
-1

> <PUBCHEM_COORDINATE_TYPE>
1
5
255

> <PUBCHEM_BONDANNOTATIONS>
10  14  8
11  15  8
12  16  8
13  17  8
14  16  8
15  17  8
3  9  3
4  10  8
4  7  8
5  11  8
5  8  8
7  12  8
8  13  8

$$$$
