130431317
  -OEChem-09292322422D

 62 65  0     1  0  0  0  0  0999 V2000
   13.7619   -2.6651    0.0000 Cl  0  0  0  0  0  0  0  0  0  0  0  0
    9.7619    0.7990    0.0000 O   0  0  0  0  0  0  0  0  0  0  0  0
    4.6783    0.8603    0.0000 O   0  0  0  0  0  0  0  0  0  0  0  0
    6.7619    2.5311    0.0000 O   0  0  0  0  0  0  0  0  0  0  0  0
   10.7619   -0.9330    0.0000 N   0  0  0  0  0  0  0  0  0  0  0  0
   12.7619   -0.9330    0.0000 N   0  0  0  0  0  0  0  0  0  0  0  0
    6.7619    0.7990    0.0000 N   0  0  0  0  0  0  0  0  0  0  0  0
   11.2619   -1.7990    0.0000 C   0  0  0  0  0  0  0  0  0  0  0  0
   11.2619   -0.0670    0.0000 C   0  0  0  0  0  0  0  0  0  0  0  0
   12.2619   -1.7990    0.0000 C   0  0  0  0  0  0  0  0  0  0  0  0
   12.2619   -0.0670    0.0000 C   0  0  0  0  0  0  0  0  0  0  0  0
    9.7619   -0.9330    0.0000 C   0  0  0  0  0  0  0  0  0  0  0  0
    9.2619   -0.0670    0.0000 C   0  0  3  0  0  0  0  0  0  0  0  0
   13.7619   -0.9330    0.0000 C   0  0  0  0  0  0  0  0  0  0  0  0
    8.2619   -0.0670    0.0000 C   0  0  0  0  0  0  0  0  0  0  0  0
    7.7619    0.7990    0.0000 C   0  0  0  0  0  0  0  0  0  0  0  0
   14.2619   -1.7990    0.0000 C   0  0  0  0  0  0  0  0  0  0  0  0
   14.2619   -0.0670    0.0000 C   0  0  0  0  0  0  0  0  0  0  0  0
   15.2619   -1.7990    0.0000 C   0  0  0  0  0  0  0  0  0  0  0  0
   15.2619   -0.0670    0.0000 C   0  0  0  0  0  0  0  0  0  0  0  0
   15.7619   -0.9330    0.0000 C   0  0  0  0  0  0  0  0  0  0  0  0
   15.7619   -2.6651    0.0000 C   0  0  0  0  0  0  0  0  0  0  0  0
    6.2619    1.6651    0.0000 C   0  0  0  0  0  0  0  0  0  0  0  0
   16.7619   -2.6651    0.0000 C   0  0  0  0  0  0  0  0  0  0  0  0
    5.2619    1.6651    0.0000 C   0  0  0  0  0  0  0  0  0  0  0  0
    4.6783    2.4698    0.0000 C   0  0  0  0  0  0  0  0  0  0  0  0
    3.7320    2.1651    0.0000 C   0  0  0  0  0  0  0  0  0  0  0  0
    3.7320    1.1651    0.0000 C   0  0  0  0  0  0  0  0  0  0  0  0
    2.8660    2.6651    0.0000 C   0  0  0  0  0  0  0  0  0  0  0  0
    2.8660    0.6651    0.0000 C   0  0  0  0  0  0  0  0  0  0  0  0
    2.0000    2.1651    0.0000 C   0  0  0  0  0  0  0  0  0  0  0  0
    2.0000    1.1651    0.0000 C   0  0  0  0  0  0  0  0  0  0  0  0
   10.6793   -2.0111    0.0000 H   0  0  0  0  0  0  0  0  0  0  0  0
   11.3695   -2.4096    0.0000 H   0  0  0  0  0  0  0  0  0  0  0  0
   11.3695    0.5436    0.0000 H   0  0  0  0  0  0  0  0  0  0  0  0
   10.6793    0.1451    0.0000 H   0  0  0  0  0  0  0  0  0  0  0  0
   12.1542   -2.4096    0.0000 H   0  0  0  0  0  0  0  0  0  0  0  0
   12.8445   -2.0111    0.0000 H   0  0  0  0  0  0  0  0  0  0  0  0
   12.8445    0.1451    0.0000 H   0  0  0  0  0  0  0  0  0  0  0  0
   12.1542    0.5436    0.0000 H   0  0  0  0  0  0  0  0  0  0  0  0
    9.1793   -1.1451    0.0000 H   0  0  0  0  0  0  0  0  0  0  0  0
    9.8695   -1.5436    0.0000 H   0  0  0  0  0  0  0  0  0  0  0  0
    9.8819   -0.0670    0.0000 H   0  0  0  0  0  0  0  0  0  0  0  0
    7.6793   -0.2790    0.0000 H   0  0  0  0  0  0  0  0  0  0  0  0
    8.3695   -0.6776    0.0000 H   0  0  0  0  0  0  0  0  0  0  0  0
    8.3445    1.0111    0.0000 H   0  0  0  0  0  0  0  0  0  0  0  0
    7.6542    1.4096    0.0000 H   0  0  0  0  0  0  0  0  0  0  0  0
   13.9519    0.4699    0.0000 H   0  0  0  0  0  0  0  0  0  0  0  0
    9.4519    1.3360    0.0000 H   0  0  0  0  0  0  0  0  0  0  0  0
   15.5719    0.4699    0.0000 H   0  0  0  0  0  0  0  0  0  0  0  0
    6.4519    0.2621    0.0000 H   0  0  0  0  0  0  0  0  0  0  0  0
   16.3819   -0.9330    0.0000 H   0  0  0  0  0  0  0  0  0  0  0  0
   15.1793   -2.8771    0.0000 H   0  0  0  0  0  0  0  0  0  0  0  0
   15.8695   -3.2756    0.0000 H   0  0  0  0  0  0  0  0  0  0  0  0
   16.7619   -3.2851    0.0000 H   0  0  0  0  0  0  0  0  0  0  0  0
   17.3819   -2.6651    0.0000 H   0  0  0  0  0  0  0  0  0  0  0  0
   16.7619   -2.0451    0.0000 H   0  0  0  0  0  0  0  0  0  0  0  0
    4.8709    3.0591    0.0000 H   0  0  0  0  0  0  0  0  0  0  0  0
    2.8660    3.2851    0.0000 H   0  0  0  0  0  0  0  0  0  0  0  0
    2.8660    0.0451    0.0000 H   0  0  0  0  0  0  0  0  0  0  0  0
    1.4631    2.4751    0.0000 H   0  0  0  0  0  0  0  0  0  0  0  0
    1.4631    0.8551    0.0000 H   0  0  0  0  0  0  0  0  0  0  0  0
  1 17  1  0  0  0  0
  2 13  1  0  0  0  0
  2 49  1  0  0  0  0
  3 25  1  0  0  0  0
  3 28  1  0  0  0  0
  4 23  2  0  0  0  0
  5  8  1  0  0  0  0
  5  9  1  0  0  0  0
  5 12  1  0  0  0  0
  6 10  1  0  0  0  0
  6 11  1  0  0  0  0
  6 14  1  0  0  0  0
  7 16  1  0  0  0  0
  7 23  1  0  0  0  0
  7 51  1  0  0  0  0
  8 10  1  0  0  0  0
  8 33  1  0  0  0  0
  8 34  1  0  0  0  0
  9 11  1  0  0  0  0
  9 35  1  0  0  0  0
  9 36  1  0  0  0  0
 10 37  1  0  0  0  0
 10 38  1  0  0  0  0
 11 39  1  0  0  0  0
 11 40  1  0  0  0  0
 12 13  1  0  0  0  0
 12 41  1  0  0  0  0
 12 42  1  0  0  0  0
 13 15  1  0  0  0  0
 13 43  1  0  0  0  0
 14 17  1  0  0  0  0
 14 18  2  0  0  0  0
 15 16  1  0  0  0  0
 15 44  1  0  0  0  0
 15 45  1  0  0  0  0
 16 46  1  0  0  0  0
 16 47  1  0  0  0  0
 17 19  2  0  0  0  0
 18 20  1  0  0  0  0
 18 48  1  0  0  0  0
 19 21  1  0  0  0  0
 19 22  1  0  0  0  0
 20 21  2  0  0  0  0
 20 50  1  0  0  0  0
 21 52  1  0  0  0  0
 22 24  1  0  0  0  0
 22 53  1  0  0  0  0
 22 54  1  0  0  0  0
 23 25  1  0  0  0  0
 24 55  1  0  0  0  0
 24 56  1  0  0  0  0
 24 57  1  0  0  0  0
 25 26  2  0  0  0  0
 26 27  1  0  0  0  0
 26 58  1  0  0  0  0
 27 28  1  0  0  0  0
 27 29  2  0  0  0  0
 28 30  2  0  0  0  0
 29 31  1  0  0  0  0
 29 59  1  0  0  0  0
 30 32  1  0  0  0  0
 30 60  1  0  0  0  0
 31 32  2  0  0  0  0
 31 61  1  0  0  0  0
 32 62  1  0  0  0  0
M  END
> <PUBCHEM_COMPOUND_CID>
130431317

> <PUBCHEM_COMPOUND_CANONICALIZED>
1

> <PUBCHEM_CACTVS_COMPLEXITY>
601

> <PUBCHEM_CACTVS_HBOND_ACCEPTOR>
5

> <PUBCHEM_CACTVS_HBOND_DONOR>
2

> <PUBCHEM_CACTVS_ROTATABLE_BOND>
8

> <PUBCHEM_CACTVS_SUBSKEYS>
AAADceB7MAAEAAAAAAAAAAAAAAAAASAAAAA8YIAAAAAAAEgB9AAAHgIQCAAADB7hmCYyxsPABkCIAqVSUAKCCAAlJgAIiIHObsgOdjLFt7/XeSjm1hHY6YeY36LuAAAAQAAJABAAAACAABIAIAAAAAAAAA==

> <PUBCHEM_IUPAC_OPENEYE_NAME>
N-[4-[4-(2-chloro-3-ethyl-phenyl)piperazin-1-yl]-3-hydroxy-butyl]benzofuran-2-carboxamide

> <PUBCHEM_IUPAC_CAS_NAME>
N-[4-[4-(2-chloro-3-ethylphenyl)-1-piperazinyl]-3-hydroxybutyl]-2-benzofurancarboxamide

> <PUBCHEM_IUPAC_NAME_MARKUP>
<I>N</I>-[4-[4-(2-chloro-3-ethylphenyl)piperazin-1-yl]-3-hydroxybutyl]-1-benzofuran-2-carboxamide

> <PUBCHEM_IUPAC_NAME>
N-[4-[4-(2-chloro-3-ethylphenyl)piperazin-1-yl]-3-hydroxybutyl]-1-benzofuran-2-carboxamide

> <PUBCHEM_IUPAC_SYSTEMATIC_NAME>
N-[4-[4-(2-chloranyl-3-ethyl-phenyl)piperazin-1-yl]-3-oxidanyl-butyl]-1-benzofuran-2-carboxamide

> <PUBCHEM_IUPAC_TRADITIONAL_NAME>
N-[4-[4-(2-chloro-3-ethyl-phenyl)piperazino]-3-hydroxy-butyl]coumarilamide

> <PUBCHEM_IUPAC_INCHI>
InChI=1S/C25H30ClN3O3/c1-2-18-7-5-8-21(24(18)26)29-14-12-28(13-15-29)17-20(30)10-11-27-25(31)23-16-19-6-3-4-9-22(19)32-23/h3-9,16,20,30H,2,10-15,17H2,1H3,(H,27,31)

> <PUBCHEM_IUPAC_INCHIKEY>
ANDAVALYLUYQOC-UHFFFAOYSA-N

> <PUBCHEM_XLOGP3_AA>
4.7

> <PUBCHEM_EXACT_MASS>
455.1975695

> <PUBCHEM_MOLECULAR_FORMULA>
C25H30ClN3O3

> <PUBCHEM_MOLECULAR_WEIGHT>
456.0

> <PUBCHEM_OPENEYE_CAN_SMILES>
CCC1=C(C(=CC=C1)N2CCN(CC2)CC(CCNC(=O)C3=CC4=CC=CC=C4O3)O)Cl

> <PUBCHEM_OPENEYE_ISO_SMILES>
CCC1=C(C(=CC=C1)N2CCN(CC2)CC(CCNC(=O)C3=CC4=CC=CC=C4O3)O)Cl

> <PUBCHEM_CACTVS_TPSA>
69

> <PUBCHEM_MONOISOTOPIC_WEIGHT>
455.1975695

> <PUBCHEM_TOTAL_CHARGE>
0

> <PUBCHEM_HEAVY_ATOM_COUNT>
32

> <PUBCHEM_ATOM_DEF_STEREO_COUNT>
0

> <PUBCHEM_ATOM_UDEF_STEREO_COUNT>
1

> <PUBCHEM_BOND_DEF_STEREO_COUNT>
0

> <PUBCHEM_BOND_UDEF_STEREO_COUNT>
0

> <PUBCHEM_ISOTOPIC_ATOM_COUNT>
0

> <PUBCHEM_COMPONENT_COUNT>
1

> <PUBCHEM_CACTVS_TAUTO_COUNT>
-1

> <PUBCHEM_COORDINATE_TYPE>
1
5
255

> <PUBCHEM_BONDANNOTATIONS>
14  17  8
14  18  8
17  19  8
18  20  8
19  21  8
13  2  3
20  21  8
25  26  8
26  27  8
27  28  8
27  29  8
28  30  8
29  31  8
3  25  8
3  28  8
30  32  8
31  32  8

$$$$
