24823920
  -OEChem-09292322262D

 41 44  0     0  0  0  0  0  0999 V2000
   10.5028    2.8437    0.0000 F   0  0  0  0  0  0  0  0  0  0  0  0
    5.9674    0.1178    0.0000 N   0  0  0  0  0  0  0  0  0  0  0  0
    7.9244    0.5302    0.0000 N   0  0  0  0  0  0  0  0  0  0  0  0
    3.7320   -2.3437    0.0000 N   0  0  0  0  0  0  0  0  0  0  0  0
    4.6783   -2.6484    0.0000 N   0  0  0  0  0  0  0  0  0  0  0  0
    9.2136    1.6870    0.0000 N   0  0  0  0  0  0  0  0  0  0  0  0
    6.2781    1.0683    0.0000 C   0  0  0  0  0  0  0  0  0  0  0  0
    6.6353   -0.6265    0.0000 C   0  0  0  0  0  0  0  0  0  0  0  0
    7.2566    1.2745    0.0000 C   0  0  0  0  0  0  0  0  0  0  0  0
    7.6138   -0.4203    0.0000 C   0  0  0  0  0  0  0  0  0  0  0  0
    4.9889   -0.0884    0.0000 C   0  0  0  0  0  0  0  0  0  0  0  0
    4.6783   -1.0390    0.0000 C   0  0  0  0  0  0  0  0  0  0  0  0
    8.9030    0.7364    0.0000 C   0  0  0  0  0  0  0  0  0  0  0  0
    3.7320   -1.3437    0.0000 C   0  0  0  0  0  0  0  0  0  0  0  0
    5.2619   -1.8437    0.0000 C   0  0  0  0  0  0  0  0  0  0  0  0
    9.5708   -0.0079    0.0000 C   0  0  0  0  0  0  0  0  0  0  0  0
    2.8660   -0.8437    0.0000 C   0  0  0  0  0  0  0  0  0  0  0  0
    2.8660   -2.8437    0.0000 C   0  0  0  0  0  0  0  0  0  0  0  0
    2.0000   -1.3437    0.0000 C   0  0  0  0  0  0  0  0  0  0  0  0
   10.5493    0.1984    0.0000 C   0  0  0  0  0  0  0  0  0  0  0  0
    2.0000   -2.3437    0.0000 C   0  0  0  0  0  0  0  0  0  0  0  0
   10.1921    1.8932    0.0000 C   0  0  0  0  0  0  0  0  0  0  0  0
   10.8600    1.1489    0.0000 C   0  0  0  0  0  0  0  0  0  0  0  0
    6.2575    1.6880    0.0000 H   0  0  0  0  0  0  0  0  0  0  0  0
    5.6643    1.1556    0.0000 H   0  0  0  0  0  0  0  0  0  0  0  0
    6.1089   -0.9542    0.0000 H   0  0  0  0  0  0  0  0  0  0  0  0
    6.8665   -1.2018    0.0000 H   0  0  0  0  0  0  0  0  0  0  0  0
    7.7830    1.6022    0.0000 H   0  0  0  0  0  0  0  0  0  0  0  0
    7.0254    1.8498    0.0000 H   0  0  0  0  0  0  0  0  0  0  0  0
    7.6344   -1.0400    0.0000 H   0  0  0  0  0  0  0  0  0  0  0  0
    8.2276   -0.5077    0.0000 H   0  0  0  0  0  0  0  0  0  0  0  0
    4.9684    0.5312    0.0000 H   0  0  0  0  0  0  0  0  0  0  0  0
    4.3751   -0.0011    0.0000 H   0  0  0  0  0  0  0  0  0  0  0  0
    5.8819   -1.8437    0.0000 H   0  0  0  0  0  0  0  0  0  0  0  0
    9.3782   -0.5972    0.0000 H   0  0  0  0  0  0  0  0  0  0  0  0
    2.8660   -0.2237    0.0000 H   0  0  0  0  0  0  0  0  0  0  0  0
    2.8660   -3.4637    0.0000 H   0  0  0  0  0  0  0  0  0  0  0  0
    1.4631   -1.0337    0.0000 H   0  0  0  0  0  0  0  0  0  0  0  0
   10.9634   -0.2631    0.0000 H   0  0  0  0  0  0  0  0  0  0  0  0
    1.4631   -2.6537    0.0000 H   0  0  0  0  0  0  0  0  0  0  0  0
   11.4666    1.2767    0.0000 H   0  0  0  0  0  0  0  0  0  0  0  0
  1 22  1  0  0  0  0
  2  7  1  0  0  0  0
  2  8  1  0  0  0  0
  2 11  1  0  0  0  0
  3  9  1  0  0  0  0
  3 10  1  0  0  0  0
  3 13  1  0  0  0  0
  4  5  1  0  0  0  0
  4 14  1  0  0  0  0
  4 18  1  0  0  0  0
  5 15  2  0  0  0  0
  6 13  2  0  0  0  0
  6 22  1  0  0  0  0
  7  9  1  0  0  0  0
  7 24  1  0  0  0  0
  7 25  1  0  0  0  0
  8 10  1  0  0  0  0
  8 26  1  0  0  0  0
  8 27  1  0  0  0  0
  9 28  1  0  0  0  0
  9 29  1  0  0  0  0
 10 30  1  0  0  0  0
 10 31  1  0  0  0  0
 11 12  1  0  0  0  0
 11 32  1  0  0  0  0
 11 33  1  0  0  0  0
 12 14  2  0  0  0  0
 12 15  1  0  0  0  0
 13 16  1  0  0  0  0
 14 17  1  0  0  0  0
 15 34  1  0  0  0  0
 16 20  2  0  0  0  0
 16 35  1  0  0  0  0
 17 19  2  0  0  0  0
 17 36  1  0  0  0  0
 18 21  2  0  0  0  0
 18 37  1  0  0  0  0
 19 21  1  0  0  0  0
 19 38  1  0  0  0  0
 20 23  1  0  0  0  0
 20 39  1  0  0  0  0
 21 40  1  0  0  0  0
 22 23  2  0  0  0  0
 23 41  1  0  0  0  0
M  END
> <PUBCHEM_COMPOUND_CID>
24823920

> <PUBCHEM_COMPOUND_CANONICALIZED>
1

> <PUBCHEM_CACTVS_COMPLEXITY>
387

> <PUBCHEM_CACTVS_HBOND_ACCEPTOR>
5

> <PUBCHEM_CACTVS_HBOND_DONOR>
0

> <PUBCHEM_CACTVS_ROTATABLE_BOND>
3

> <PUBCHEM_CACTVS_SUBSKEYS>
AAADceB7gQAAAAAAAAAAAAAAAAAAAWAAAAAsWLAAAAAAAFgB+AAAHQAIAAAADAjBHgw98LMIEACiAzZnZACShCkxgiAZ2CA4ZJiIYOLA2dGUpAhoiALIyCcQgEAMAAAAAAAAAAAAAAAAAAAAAAAAAAAAAA==

> <PUBCHEM_IUPAC_OPENEYE_NAME>
3-[[4-(6-fluoro-2-pyridyl)piperazin-1-yl]methyl]pyrazolo[1,5-a]pyridine

> <PUBCHEM_IUPAC_CAS_NAME>
3-[[4-(6-fluoro-2-pyridinyl)-1-piperazinyl]methyl]pyrazolo[1,5-a]pyridine

> <PUBCHEM_IUPAC_NAME_MARKUP>
3-[[4-(6-fluoropyridin-2-yl)piperazin-1-yl]methyl]pyrazolo[1,5-a]pyridine

> <PUBCHEM_IUPAC_NAME>
3-[[4-(6-fluoropyridin-2-yl)piperazin-1-yl]methyl]pyrazolo[1,5-a]pyridine

> <PUBCHEM_IUPAC_SYSTEMATIC_NAME>
3-[[4-(6-fluoranylpyridin-2-yl)piperazin-1-yl]methyl]pyrazolo[1,5-a]pyridine

> <PUBCHEM_IUPAC_TRADITIONAL_NAME>
3-[[4-(6-fluoro-2-pyridyl)piperazino]methyl]pyrazolo[1,5-a]pyridine

> <PUBCHEM_IUPAC_INCHI>
InChI=1S/C17H18FN5/c18-16-5-3-6-17(20-16)22-10-8-21(9-11-22)13-14-12-19-23-7-2-1-4-15(14)23/h1-7,12H,8-11,13H2

> <PUBCHEM_IUPAC_INCHIKEY>
PWOUQMPSBBVTMJ-UHFFFAOYSA-N

> <PUBCHEM_XLOGP3_AA>
2.2

> <PUBCHEM_EXACT_MASS>
311.15462376

> <PUBCHEM_MOLECULAR_FORMULA>
C17H18FN5

> <PUBCHEM_MOLECULAR_WEIGHT>
311.36

> <PUBCHEM_OPENEYE_CAN_SMILES>
C1CN(CCN1CC2=C3C=CC=CN3N=C2)C4=NC(=CC=C4)F

> <PUBCHEM_OPENEYE_ISO_SMILES>
C1CN(CCN1CC2=C3C=CC=CN3N=C2)C4=NC(=CC=C4)F

> <PUBCHEM_CACTVS_TPSA>
36.7

> <PUBCHEM_MONOISOTOPIC_WEIGHT>
311.15462376

> <PUBCHEM_TOTAL_CHARGE>
0

> <PUBCHEM_HEAVY_ATOM_COUNT>
23

> <PUBCHEM_ATOM_DEF_STEREO_COUNT>
0

> <PUBCHEM_ATOM_UDEF_STEREO_COUNT>
0

> <PUBCHEM_BOND_DEF_STEREO_COUNT>
0

> <PUBCHEM_BOND_UDEF_STEREO_COUNT>
0

> <PUBCHEM_ISOTOPIC_ATOM_COUNT>
0

> <PUBCHEM_COMPONENT_COUNT>
1

> <PUBCHEM_CACTVS_TAUTO_COUNT>
-1

> <PUBCHEM_COORDINATE_TYPE>
1
5
255

> <PUBCHEM_BONDANNOTATIONS>
12  14  8
12  15  8
13  16  8
14  17  8
16  20  8
17  19  8
18  21  8
19  21  8
20  23  8
22  23  8
4  14  8
4  18  8
4  5  8
5  15  8
6  13  8
6  22  8

$$$$
