10392655
  -OEChem-09292322332D

 60 62  0     0  0  0  0  0  0999 V2000
    6.3301   -5.7500    0.0000 Br  0  0  0  0  0  0  0  0  0  0  0  0
    8.9282    4.7500    0.0000 Cl  0  0  0  0  0  0  0  0  0  0  0  0
    8.9282    6.7500    0.0000 Cl  0  0  0  0  0  0  0  0  0  0  0  0
    3.7320   -2.2500    0.0000 O   0  0  0  0  0  0  0  0  0  0  0  0
    2.8660   -3.7500    0.0000 O   0  0  0  0  0  0  0  0  0  0  0  0
    2.8660   -5.7500    0.0000 O   0  0  0  0  0  0  0  0  0  0  0  0
    7.1962    1.7500    0.0000 N   0  0  0  0  0  0  0  0  0  0  0  0
    7.1962    3.7500    0.0000 N   0  0  0  0  0  0  0  0  0  0  0  0
    5.4641   -2.2500    0.0000 N   0  0  0  0  0  0  0  0  0  0  0  0
    8.0622    2.2500    0.0000 C   0  0  0  0  0  0  0  0  0  0  0  0
    6.3301    2.2500    0.0000 C   0  0  0  0  0  0  0  0  0  0  0  0
    8.0622    3.2500    0.0000 C   0  0  0  0  0  0  0  0  0  0  0  0
    6.3301    3.2500    0.0000 C   0  0  0  0  0  0  0  0  0  0  0  0
    7.1962    0.7500    0.0000 C   0  0  0  0  0  0  0  0  0  0  0  0
    6.3301    0.2500    0.0000 C   0  0  0  0  0  0  0  0  0  0  0  0
    7.1962    4.7500    0.0000 C   0  0  0  0  0  0  0  0  0  0  0  0
    6.3301   -0.7500    0.0000 C   0  0  0  0  0  0  0  0  0  0  0  0
    5.4641   -1.2500    0.0000 C   0  0  0  0  0  0  0  0  0  0  0  0
    8.0622    5.2500    0.0000 C   0  0  0  0  0  0  0  0  0  0  0  0
    6.3301    5.2500    0.0000 C   0  0  0  0  0  0  0  0  0  0  0  0
    8.0622    6.2500    0.0000 C   0  0  0  0  0  0  0  0  0  0  0  0
    6.3301    6.2500    0.0000 C   0  0  0  0  0  0  0  0  0  0  0  0
    7.1962    6.7500    0.0000 C   0  0  0  0  0  0  0  0  0  0  0  0
    4.5981   -2.7500    0.0000 C   0  0  0  0  0  0  0  0  0  0  0  0
    4.5981   -3.7500    0.0000 C   0  0  0  0  0  0  0  0  0  0  0  0
    3.7320   -4.2500    0.0000 C   0  0  0  0  0  0  0  0  0  0  0  0
    5.4641   -4.2500    0.0000 C   0  0  0  0  0  0  0  0  0  0  0  0
    3.7320   -5.2500    0.0000 C   0  0  0  0  0  0  0  0  0  0  0  0
    5.4641   -5.2500    0.0000 C   0  0  0  0  0  0  0  0  0  0  0  0
    4.5981   -5.7500    0.0000 C   0  0  0  0  0  0  0  0  0  0  0  0
    2.0000   -4.2500    0.0000 C   0  0  0  0  0  0  0  0  0  0  0  0
    2.8660   -6.7500    0.0000 C   0  0  0  0  0  0  0  0  0  0  0  0
    8.2742    1.6674    0.0000 H   0  0  0  0  0  0  0  0  0  0  0  0
    8.6728    2.3577    0.0000 H   0  0  0  0  0  0  0  0  0  0  0  0
    5.7196    2.3577    0.0000 H   0  0  0  0  0  0  0  0  0  0  0  0
    6.1181    1.6674    0.0000 H   0  0  0  0  0  0  0  0  0  0  0  0
    8.6728    3.1423    0.0000 H   0  0  0  0  0  0  0  0  0  0  0  0
    8.2742    3.8326    0.0000 H   0  0  0  0  0  0  0  0  0  0  0  0
    6.1181    3.8326    0.0000 H   0  0  0  0  0  0  0  0  0  0  0  0
    5.7196    3.1423    0.0000 H   0  0  0  0  0  0  0  0  0  0  0  0
    7.4082    0.1674    0.0000 H   0  0  0  0  0  0  0  0  0  0  0  0
    7.8067    0.8577    0.0000 H   0  0  0  0  0  0  0  0  0  0  0  0
    6.1181    0.8326    0.0000 H   0  0  0  0  0  0  0  0  0  0  0  0
    5.7196    0.1423    0.0000 H   0  0  0  0  0  0  0  0  0  0  0  0
    6.5422   -1.3326    0.0000 H   0  0  0  0  0  0  0  0  0  0  0  0
    6.9407   -0.6423    0.0000 H   0  0  0  0  0  0  0  0  0  0  0  0
    5.2520   -0.6674    0.0000 H   0  0  0  0  0  0  0  0  0  0  0  0
    4.8535   -1.3577    0.0000 H   0  0  0  0  0  0  0  0  0  0  0  0
    5.7932    4.9400    0.0000 H   0  0  0  0  0  0  0  0  0  0  0  0
    6.0010   -2.5600    0.0000 H   0  0  0  0  0  0  0  0  0  0  0  0
    5.7932    6.5600    0.0000 H   0  0  0  0  0  0  0  0  0  0  0  0
    7.1962    7.3700    0.0000 H   0  0  0  0  0  0  0  0  0  0  0  0
    6.0010   -3.9400    0.0000 H   0  0  0  0  0  0  0  0  0  0  0  0
    4.5981   -6.3700    0.0000 H   0  0  0  0  0  0  0  0  0  0  0  0
    1.6900   -3.7131    0.0000 H   0  0  0  0  0  0  0  0  0  0  0  0
    1.4631   -4.5600    0.0000 H   0  0  0  0  0  0  0  0  0  0  0  0
    2.3100   -4.7869    0.0000 H   0  0  0  0  0  0  0  0  0  0  0  0
    2.2460   -6.7500    0.0000 H   0  0  0  0  0  0  0  0  0  0  0  0
    2.8660   -7.3700    0.0000 H   0  0  0  0  0  0  0  0  0  0  0  0
    3.4860   -6.7500    0.0000 H   0  0  0  0  0  0  0  0  0  0  0  0
  1 29  1  0  0  0  0
  2 19  1  0  0  0  0
  3 21  1  0  0  0  0
  4 24  2  0  0  0  0
  5 26  1  0  0  0  0
  5 31  1  0  0  0  0
  6 28  1  0  0  0  0
  6 32  1  0  0  0  0
  7 10  1  0  0  0  0
  7 11  1  0  0  0  0
  7 14  1  0  0  0  0
  8 12  1  0  0  0  0
  8 13  1  0  0  0  0
  8 16  1  0  0  0  0
  9 18  1  0  0  0  0
  9 24  1  0  0  0  0
  9 50  1  0  0  0  0
 10 12  1  0  0  0  0
 10 33  1  0  0  0  0
 10 34  1  0  0  0  0
 11 13  1  0  0  0  0
 11 35  1  0  0  0  0
 11 36  1  0  0  0  0
 12 37  1  0  0  0  0
 12 38  1  0  0  0  0
 13 39  1  0  0  0  0
 13 40  1  0  0  0  0
 14 15  1  0  0  0  0
 14 41  1  0  0  0  0
 14 42  1  0  0  0  0
 15 17  1  0  0  0  0
 15 43  1  0  0  0  0
 15 44  1  0  0  0  0
 16 19  2  0  0  0  0
 16 20  1  0  0  0  0
 17 18  1  0  0  0  0
 17 45  1  0  0  0  0
 17 46  1  0  0  0  0
 18 47  1  0  0  0  0
 18 48  1  0  0  0  0
 19 21  1  0  0  0  0
 20 22  2  0  0  0  0
 20 49  1  0  0  0  0
 21 23  2  0  0  0  0
 22 23  1  0  0  0  0
 22 51  1  0  0  0  0
 23 52  1  0  0  0  0
 24 25  1  0  0  0  0
 25 26  2  0  0  0  0
 25 27  1  0  0  0  0
 26 28  1  0  0  0  0
 27 29  2  0  0  0  0
 27 53  1  0  0  0  0
 28 30  2  0  0  0  0
 29 30  1  0  0  0  0
 30 54  1  0  0  0  0
 31 55  1  0  0  0  0
 31 56  1  0  0  0  0
 31 57  1  0  0  0  0
 32 58  1  0  0  0  0
 32 59  1  0  0  0  0
 32 60  1  0  0  0  0
M  END
> <PUBCHEM_COMPOUND_CID>
10392655

> <PUBCHEM_COMPOUND_CANONICALIZED>
1

> <PUBCHEM_CACTVS_COMPLEXITY>
583

> <PUBCHEM_CACTVS_HBOND_ACCEPTOR>
5

> <PUBCHEM_CACTVS_HBOND_DONOR>
1

> <PUBCHEM_CACTVS_ROTATABLE_BOND>
9

> <PUBCHEM_CACTVS_SUBSKEYS>
AAADceB7MAAGEAAAAAAAAAAAAAAAAAAAAAA8YIAAAAAAAAABQAAAHgJQAAABrA7BmCYyxoPABACIAiVSUACCCAAlJwQIisEO7ugNZjbFt5vUMWpm9hHK65e6yDCOABABEIIIQBQAIAIhBBCAKAAAAAAAAA==

> <PUBCHEM_IUPAC_OPENEYE_NAME>
5-bromo-N-[4-[4-(2,3-dichlorophenyl)piperazin-1-yl]butyl]-2,3-dimethoxy-benzamide

> <PUBCHEM_IUPAC_CAS_NAME>
5-bromo-N-[4-[4-(2,3-dichlorophenyl)-1-piperazinyl]butyl]-2,3-dimethoxybenzamide

> <PUBCHEM_IUPAC_NAME_MARKUP>
5-bromo-<I>N</I>-[4-[4-(2,3-dichlorophenyl)piperazin-1-yl]butyl]-2,3-dimethoxybenzamide

> <PUBCHEM_IUPAC_NAME>
5-bromo-N-[4-[4-(2,3-dichlorophenyl)piperazin-1-yl]butyl]-2,3-dimethoxybenzamide

> <PUBCHEM_IUPAC_SYSTEMATIC_NAME>
N-[4-[4-[2,3-bis(chloranyl)phenyl]piperazin-1-yl]butyl]-5-bromanyl-2,3-dimethoxy-benzamide

> <PUBCHEM_IUPAC_TRADITIONAL_NAME>
5-bromo-N-[4-[4-(2,3-dichlorophenyl)piperazino]butyl]-2,3-dimethoxy-benzamide

> <PUBCHEM_IUPAC_INCHI>
InChI=1S/C23H28BrCl2N3O3/c1-31-20-15-16(24)14-17(22(20)32-2)23(30)27-8-3-4-9-28-10-12-29(13-11-28)19-7-5-6-18(25)21(19)26/h5-7,14-15H,3-4,8-13H2,1-2H3,(H,27,30)

> <PUBCHEM_IUPAC_INCHIKEY>
RYXXRKZWJMNUEJ-UHFFFAOYSA-N

> <PUBCHEM_XLOGP3_AA>
5.4

> <PUBCHEM_EXACT_MASS>
543.06911

> <PUBCHEM_MOLECULAR_FORMULA>
C23H28BrCl2N3O3

> <PUBCHEM_MOLECULAR_WEIGHT>
545.3

> <PUBCHEM_OPENEYE_CAN_SMILES>
COC1=CC(=CC(=C1OC)C(=O)NCCCCN2CCN(CC2)C3=C(C(=CC=C3)Cl)Cl)Br

> <PUBCHEM_OPENEYE_ISO_SMILES>
COC1=CC(=CC(=C1OC)C(=O)NCCCCN2CCN(CC2)C3=C(C(=CC=C3)Cl)Cl)Br

> <PUBCHEM_CACTVS_TPSA>
54

> <PUBCHEM_MONOISOTOPIC_WEIGHT>
543.06911

> <PUBCHEM_TOTAL_CHARGE>
0

> <PUBCHEM_HEAVY_ATOM_COUNT>
32

> <PUBCHEM_ATOM_DEF_STEREO_COUNT>
0

> <PUBCHEM_ATOM_UDEF_STEREO_COUNT>
0

> <PUBCHEM_BOND_DEF_STEREO_COUNT>
0

> <PUBCHEM_BOND_UDEF_STEREO_COUNT>
0

> <PUBCHEM_ISOTOPIC_ATOM_COUNT>
0

> <PUBCHEM_COMPONENT_COUNT>
1

> <PUBCHEM_CACTVS_TAUTO_COUNT>
-1

> <PUBCHEM_COORDINATE_TYPE>
1
5
255

> <PUBCHEM_BONDANNOTATIONS>
16  19  8
16  20  8
19  21  8
20  22  8
21  23  8
22  23  8
25  26  8
25  27  8
26  28  8
27  29  8
28  30  8
29  30  8

$$$$
