112815120
  -OEChem-09292322092D

 39 42  0     1  0  0  0  0  0999 V2000
    7.3077    3.5600    0.0000 S   0  0  0  0  0  0  0  0  0  0  0  0
    5.6103    1.4904    0.0000 N   0  0  3  0  0  0  0  0  0  0  0  0
    4.6783   -2.9706    0.0000 N   0  0  0  0  0  0  0  0  0  0  0  0
    4.6318    1.2842    0.0000 C   0  0  0  0  0  0  0  0  0  0  0  0
    4.3211    0.3336    0.0000 C   0  0  0  0  0  0  0  0  0  0  0  0
    4.9889   -0.4107    0.0000 C   0  0  0  0  0  0  0  0  0  0  0  0
    6.2781    0.7461    0.0000 C   0  0  0  0  0  0  0  0  0  0  0  0
    5.9674   -0.2044    0.0000 C   0  0  0  0  0  0  0  0  0  0  0  0
    4.6783   -1.3612    0.0000 C   0  0  0  0  0  0  0  0  0  0  0  0
    5.9209    2.4409    0.0000 C   0  0  0  0  0  0  0  0  0  0  0  0
    3.7320   -1.6659    0.0000 C   0  0  0  0  0  0  0  0  0  0  0  0
    3.7320   -2.6659    0.0000 C   0  0  0  0  0  0  0  0  0  0  0  0
    5.2619   -2.1659    0.0000 C   0  0  0  0  0  0  0  0  0  0  0  0
    6.8994    2.6471    0.0000 C   0  0  0  0  0  0  0  0  0  0  0  0
    2.8660   -1.1659    0.0000 C   0  0  0  0  0  0  0  0  0  0  0  0
    2.8660   -3.1659    0.0000 C   0  0  0  0  0  0  0  0  0  0  0  0
    7.6414    1.9767    0.0000 C   0  0  0  0  0  0  0  0  0  0  0  0
    2.0000   -1.6659    0.0000 C   0  0  0  0  0  0  0  0  0  0  0  0
    2.0000   -2.6659    0.0000 C   0  0  0  0  0  0  0  0  0  0  0  0
    8.5083    2.4752    0.0000 C   0  0  0  0  0  0  0  0  0  0  0  0
    8.3021    3.4537    0.0000 C   0  0  0  0  0  0  0  0  0  0  0  0
    4.6112    1.9038    0.0000 H   0  0  0  0  0  0  0  0  0  0  0  0
    4.0179    1.3715    0.0000 H   0  0  0  0  0  0  0  0  0  0  0  0
    3.7742    0.6257    0.0000 H   0  0  0  0  0  0  0  0  0  0  0  0
    3.9385   -0.1543    0.0000 H   0  0  0  0  0  0  0  0  0  0  0  0
    6.8250    0.4541    0.0000 H   0  0  0  0  0  0  0  0  0  0  0  0
    6.6607    1.2340    0.0000 H   0  0  0  0  0  0  0  0  0  0  0  0
    6.3815   -0.6659    0.0000 H   0  0  0  0  0  0  0  0  0  0  0  0
    5.9004    3.0606    0.0000 H   0  0  0  0  0  0  0  0  0  0  0  0
    5.3071    2.5282    0.0000 H   0  0  0  0  0  0  0  0  0  0  0  0
    5.8819   -2.1659    0.0000 H   0  0  0  0  0  0  0  0  0  0  0  0
    4.8709   -3.5600    0.0000 H   0  0  0  0  0  0  0  0  0  0  0  0
    2.8660   -0.5459    0.0000 H   0  0  0  0  0  0  0  0  0  0  0  0
    2.8660   -3.7859    0.0000 H   0  0  0  0  0  0  0  0  0  0  0  0
    7.5755    1.3602    0.0000 H   0  0  0  0  0  0  0  0  0  0  0  0
    1.4631   -1.3559    0.0000 H   0  0  0  0  0  0  0  0  0  0  0  0
    1.4631   -2.9759    0.0000 H   0  0  0  0  0  0  0  0  0  0  0  0
    9.0743    2.2220    0.0000 H   0  0  0  0  0  0  0  0  0  0  0  0
    8.7177    3.9138    0.0000 H   0  0  0  0  0  0  0  0  0  0  0  0
  1 14  1  0  0  0  0
  1 21  1  0  0  0  0
  2  4  1  0  0  0  0
  2  7  1  0  0  0  0
  2 10  1  0  0  0  0
  3 12  1  0  0  0  0
  3 13  1  0  0  0  0
  3 32  1  0  0  0  0
  4  5  1  0  0  0  0
  4 22  1  0  0  0  0
  4 23  1  0  0  0  0
  5  6  1  0  0  0  0
  5 24  1  0  0  0  0
  5 25  1  0  0  0  0
  6  8  2  0  0  0  0
  6  9  1  0  0  0  0
  7  8  1  0  0  0  0
  7 26  1  0  0  0  0
  7 27  1  0  0  0  0
  8 28  1  0  0  0  0
  9 11  1  0  0  0  0
  9 13  2  0  0  0  0
 10 14  1  0  0  0  0
 10 29  1  0  0  0  0
 10 30  1  0  0  0  0
 11 12  1  0  0  0  0
 11 15  2  0  0  0  0
 12 16  2  0  0  0  0
 13 31  1  0  0  0  0
 14 17  2  0  0  0  0
 15 18  1  0  0  0  0
 15 33  1  0  0  0  0
 16 19  1  0  0  0  0
 16 34  1  0  0  0  0
 17 20  1  0  0  0  0
 17 35  1  0  0  0  0
 18 19  2  0  0  0  0
 18 36  1  0  0  0  0
 19 37  1  0  0  0  0
 20 21  2  0  0  0  0
 20 38  1  0  0  0  0
 21 39  1  0  0  0  0
M  END
> <PUBCHEM_COMPOUND_CID>
112815120

> <PUBCHEM_COMPOUND_CANONICALIZED>
1

> <PUBCHEM_CACTVS_COMPLEXITY>
395

> <PUBCHEM_CACTVS_HBOND_ACCEPTOR>
2

> <PUBCHEM_CACTVS_HBOND_DONOR>
1

> <PUBCHEM_CACTVS_ROTATABLE_BOND>
3

> <PUBCHEM_CACTVS_SUBSKEYS>
AAADceB7AABAAAAAAAAAAAAAAAAAAWJAAAAwQAAAAAAAAFgB/AAAHAQQAAAADAjFXgS8wfPJkAikAzRnRACDgKAxCjBI2bg4ZJgIIOLgkZGEIAhgkADoyAcQgMAOgAAAAAACAAAAAAAAAAQAAAAAAAAAAA==

> <PUBCHEM_IUPAC_OPENEYE_NAME>
3-[1-(2-thienylmethyl)-3,6-dihydro-2H-pyridin-4-yl]-1H-indole

> <PUBCHEM_IUPAC_CAS_NAME>
3-[1-(thiophen-2-ylmethyl)-3,6-dihydro-2H-pyridin-4-yl]-1H-indole

> <PUBCHEM_IUPAC_NAME_MARKUP>
3-[1-(thiophen-2-ylmethyl)-3,6-dihydro-2<I>H</I>-pyridin-4-yl]-1<I>H</I>-indole

> <PUBCHEM_IUPAC_NAME>
3-[1-(thiophen-2-ylmethyl)-3,6-dihydro-2H-pyridin-4-yl]-1H-indole

> <PUBCHEM_IUPAC_SYSTEMATIC_NAME>
3-[1-(thiophen-2-ylmethyl)-3,6-dihydro-2H-pyridin-4-yl]-1H-indole

> <PUBCHEM_IUPAC_TRADITIONAL_NAME>
3-[1-(2-thenyl)-3,6-dihydro-2H-pyridin-4-yl]-1H-indole

> <PUBCHEM_IUPAC_INCHI>
InChI=1S/C18H18N2S/c1-2-6-18-16(5-1)17(12-19-18)14-7-9-20(10-8-14)13-15-4-3-11-21-15/h1-7,11-12,19H,8-10,13H2

> <PUBCHEM_IUPAC_INCHIKEY>
SLQCIADZTNONHH-UHFFFAOYSA-N

> <PUBCHEM_XLOGP3_AA>
3.5

> <PUBCHEM_EXACT_MASS>
294.11906976

> <PUBCHEM_MOLECULAR_FORMULA>
C18H18N2S

> <PUBCHEM_MOLECULAR_WEIGHT>
294.4

> <PUBCHEM_OPENEYE_CAN_SMILES>
C1CN(CC=C1C2=CNC3=CC=CC=C32)CC4=CC=CS4

> <PUBCHEM_OPENEYE_ISO_SMILES>
C1CN(CC=C1C2=CNC3=CC=CC=C32)CC4=CC=CS4

> <PUBCHEM_CACTVS_TPSA>
47.3

> <PUBCHEM_MONOISOTOPIC_WEIGHT>
294.11906976

> <PUBCHEM_TOTAL_CHARGE>
0

> <PUBCHEM_HEAVY_ATOM_COUNT>
21

> <PUBCHEM_ATOM_DEF_STEREO_COUNT>
0

> <PUBCHEM_ATOM_UDEF_STEREO_COUNT>
0

> <PUBCHEM_BOND_DEF_STEREO_COUNT>
0

> <PUBCHEM_BOND_UDEF_STEREO_COUNT>
0

> <PUBCHEM_ISOTOPIC_ATOM_COUNT>
0

> <PUBCHEM_COMPONENT_COUNT>
1

> <PUBCHEM_CACTVS_TAUTO_COUNT>
-1

> <PUBCHEM_COORDINATE_TYPE>
1
5
255

> <PUBCHEM_BONDANNOTATIONS>
1  14  8
1  21  8
11  12  8
11  15  8
12  16  8
14  17  8
15  18  8
16  19  8
17  20  8
18  19  8
20  21  8
3  12  8
3  13  8
9  11  8
9  13  8

$$$$
