122191603
  -OEChem-09292322362D

 60 63  0     1  0  0  0  0  0999 V2000
   13.7619    1.5630    0.0000 Br  0  0  0  0  0  0  0  0  0  0  0  0
    7.7619   -0.1690    0.0000 N   0  0  0  0  0  0  0  0  0  0  0  0
    6.7619   -1.9010    0.0000 N   0  0  0  0  0  0  0  0  0  0  0  0
    9.7619    1.5630    0.0000 N   0  0  3  0  0  0  0  0  0  0  0  0
    4.6783   -3.5718    0.0000 N   0  0  0  0  0  0  0  0  0  0  0  0
    6.7619   -0.1690    0.0000 C   0  0  0  0  0  0  0  0  0  0  0  0
    8.2619   -1.0350    0.0000 C   0  0  0  0  0  0  0  0  0  0  0  0
    6.2619   -1.0350    0.0000 C   0  0  0  0  0  0  0  0  0  0  0  0
    7.7619   -1.9010    0.0000 C   0  0  0  0  0  0  0  0  0  0  0  0
    8.2619    0.6970    0.0000 C   0  0  0  0  0  0  0  0  0  0  0  0
    6.2619   -2.7671    0.0000 C   0  0  0  0  0  0  0  0  0  0  0  0
    9.2619    0.6970    0.0000 C   0  0  0  0  0  0  0  0  0  0  0  0
    5.2619   -2.7671    0.0000 C   0  0  0  0  0  0  0  0  0  0  0  0
    9.2619    2.4291    0.0000 C   0  0  0  0  0  0  0  0  0  0  0  0
    4.6783   -1.9623    0.0000 C   0  0  0  0  0  0  0  0  0  0  0  0
   10.7619    1.5630    0.0000 C   0  0  0  0  0  0  0  0  0  0  0  0
    3.7320   -3.2671    0.0000 C   0  0  0  0  0  0  0  0  0  0  0  0
    3.7320   -2.2671    0.0000 C   0  0  0  0  0  0  0  0  0  0  0  0
    9.7619    3.2951    0.0000 C   0  0  0  0  0  0  0  0  0  0  0  0
   11.2619    0.6970    0.0000 C   0  0  0  0  0  0  0  0  0  0  0  0
   11.2619    2.4291    0.0000 C   0  0  0  0  0  0  0  0  0  0  0  0
    2.8660   -3.7671    0.0000 C   0  0  0  0  0  0  0  0  0  0  0  0
    2.8660   -1.7671    0.0000 C   0  0  0  0  0  0  0  0  0  0  0  0
    9.2619    4.1611    0.0000 C   0  0  0  0  0  0  0  0  0  0  0  0
    2.0000   -3.2671    0.0000 C   0  0  0  0  0  0  0  0  0  0  0  0
    2.0000   -2.2671    0.0000 C   0  0  0  0  0  0  0  0  0  0  0  0
   12.2619    0.6970    0.0000 C   0  0  0  0  0  0  0  0  0  0  0  0
   12.2619    2.4291    0.0000 C   0  0  0  0  0  0  0  0  0  0  0  0
   12.7619    1.5630    0.0000 C   0  0  0  0  0  0  0  0  0  0  0  0
    6.8695    0.4416    0.0000 H   0  0  0  0  0  0  0  0  0  0  0  0
    6.1793    0.0431    0.0000 H   0  0  0  0  0  0  0  0  0  0  0  0
    8.7368   -1.4336    0.0000 H   0  0  0  0  0  0  0  0  0  0  0  0
    8.7368   -0.6365    0.0000 H   0  0  0  0  0  0  0  0  0  0  0  0
    5.7869   -0.6365    0.0000 H   0  0  0  0  0  0  0  0  0  0  0  0
    5.7869   -1.4336    0.0000 H   0  0  0  0  0  0  0  0  0  0  0  0
    7.6542   -2.5116    0.0000 H   0  0  0  0  0  0  0  0  0  0  0  0
    8.3445   -2.1131    0.0000 H   0  0  0  0  0  0  0  0  0  0  0  0
    8.3695    1.3076    0.0000 H   0  0  0  0  0  0  0  0  0  0  0  0
    7.6793    0.9091    0.0000 H   0  0  0  0  0  0  0  0  0  0  0  0
    6.1542   -3.3777    0.0000 H   0  0  0  0  0  0  0  0  0  0  0  0
    6.8445   -2.9791    0.0000 H   0  0  0  0  0  0  0  0  0  0  0  0
    9.1542    0.0864    0.0000 H   0  0  0  0  0  0  0  0  0  0  0  0
    9.8445    0.4850    0.0000 H   0  0  0  0  0  0  0  0  0  0  0  0
    8.7869    2.8276    0.0000 H   0  0  0  0  0  0  0  0  0  0  0  0
    8.7869    2.0306    0.0000 H   0  0  0  0  0  0  0  0  0  0  0  0
    4.8709   -4.1611    0.0000 H   0  0  0  0  0  0  0  0  0  0  0  0
    4.8709   -1.3730    0.0000 H   0  0  0  0  0  0  0  0  0  0  0  0
   10.2368    2.8966    0.0000 H   0  0  0  0  0  0  0  0  0  0  0  0
   10.2368    3.6936    0.0000 H   0  0  0  0  0  0  0  0  0  0  0  0
   10.9519    0.1601    0.0000 H   0  0  0  0  0  0  0  0  0  0  0  0
   10.9519    2.9660    0.0000 H   0  0  0  0  0  0  0  0  0  0  0  0
    2.8660   -4.3871    0.0000 H   0  0  0  0  0  0  0  0  0  0  0  0
    2.8660   -1.1471    0.0000 H   0  0  0  0  0  0  0  0  0  0  0  0
    9.7988    4.4711    0.0000 H   0  0  0  0  0  0  0  0  0  0  0  0
    8.9519    4.6981    0.0000 H   0  0  0  0  0  0  0  0  0  0  0  0
    8.7249    3.8511    0.0000 H   0  0  0  0  0  0  0  0  0  0  0  0
    1.4631   -3.5771    0.0000 H   0  0  0  0  0  0  0  0  0  0  0  0
    1.4631   -1.9571    0.0000 H   0  0  0  0  0  0  0  0  0  0  0  0
   12.5719    0.1601    0.0000 H   0  0  0  0  0  0  0  0  0  0  0  0
   12.5719    2.9660    0.0000 H   0  0  0  0  0  0  0  0  0  0  0  0
  1 29  1  0  0  0  0
  2  6  1  0  0  0  0
  2  7  1  0  0  0  0
  2 10  1  0  0  0  0
  3  8  1  0  0  0  0
  3  9  1  0  0  0  0
  3 11  1  0  0  0  0
  4 12  1  0  0  0  0
  4 14  1  0  0  0  0
  4 16  1  0  0  0  0
  5 13  1  0  0  0  0
  5 17  1  0  0  0  0
  5 46  1  0  0  0  0
  6  8  1  0  0  0  0
  6 30  1  0  0  0  0
  6 31  1  0  0  0  0
  7  9  1  0  0  0  0
  7 32  1  0  0  0  0
  7 33  1  0  0  0  0
  8 34  1  0  0  0  0
  8 35  1  0  0  0  0
  9 36  1  0  0  0  0
  9 37  1  0  0  0  0
 10 12  1  0  0  0  0
 10 38  1  0  0  0  0
 10 39  1  0  0  0  0
 11 13  1  0  0  0  0
 11 40  1  0  0  0  0
 11 41  1  0  0  0  0
 12 42  1  0  0  0  0
 12 43  1  0  0  0  0
 13 15  2  0  0  0  0
 14 19  1  0  0  0  0
 14 44  1  0  0  0  0
 14 45  1  0  0  0  0
 15 18  1  0  0  0  0
 15 47  1  0  0  0  0
 16 20  2  0  0  0  0
 16 21  1  0  0  0  0
 17 18  1  0  0  0  0
 17 22  2  0  0  0  0
 18 23  2  0  0  0  0
 19 24  1  0  0  0  0
 19 48  1  0  0  0  0
 19 49  1  0  0  0  0
 20 27  1  0  0  0  0
 20 50  1  0  0  0  0
 21 28  2  0  0  0  0
 21 51  1  0  0  0  0
 22 25  1  0  0  0  0
 22 52  1  0  0  0  0
 23 26  1  0  0  0  0
 23 53  1  0  0  0  0
 24 54  1  0  0  0  0
 24 55  1  0  0  0  0
 24 56  1  0  0  0  0
 25 26  2  0  0  0  0
 25 57  1  0  0  0  0
 26 58  1  0  0  0  0
 27 29  2  0  0  0  0
 27 59  1  0  0  0  0
 28 29  1  0  0  0  0
 28 60  1  0  0  0  0
M  END
> <PUBCHEM_COMPOUND_CID>
122191603

> <PUBCHEM_COMPOUND_CANONICALIZED>
1

> <PUBCHEM_CACTVS_COMPLEXITY>
474

> <PUBCHEM_CACTVS_HBOND_ACCEPTOR>
3

> <PUBCHEM_CACTVS_HBOND_DONOR>
1

> <PUBCHEM_CACTVS_ROTATABLE_BOND>
8

> <PUBCHEM_CACTVS_SUBSKEYS>
AAADceB7gAAAEAAAAAAAAAAAAAAAAWAAAAA8YIAAAAAAAFgB9AAAHABQAAABrAjBHgQywPPJkACgAyRiRACCgCAhAiQImSA4ZLgIYOLAkZGUIAhgkADIyhcQgIAOAAAgAAACAAAAAEAAAAQAAAAAAAAAAA==

> <PUBCHEM_IUPAC_OPENEYE_NAME>
4-bromo-N-[2-[4-(1H-indol-2-ylmethyl)piperazin-1-yl]ethyl]-N-propyl-aniline

> <PUBCHEM_IUPAC_CAS_NAME>
4-bromo-N-[2-[4-(1H-indol-2-ylmethyl)-1-piperazinyl]ethyl]-N-propylaniline

> <PUBCHEM_IUPAC_NAME_MARKUP>
4-bromo-<I>N</I>-[2-[4-(1<I>H</I>-indol-2-ylmethyl)piperazin-1-yl]ethyl]-<I>N</I>-propylaniline

> <PUBCHEM_IUPAC_NAME>
4-bromo-N-[2-[4-(1H-indol-2-ylmethyl)piperazin-1-yl]ethyl]-N-propylaniline

> <PUBCHEM_IUPAC_SYSTEMATIC_NAME>
4-bromanyl-N-[2-[4-(1H-indol-2-ylmethyl)piperazin-1-yl]ethyl]-N-propyl-aniline

> <PUBCHEM_IUPAC_TRADITIONAL_NAME>
(4-bromophenyl)-[2-[4-(1H-indol-2-ylmethyl)piperazino]ethyl]-propyl-amine

> <PUBCHEM_IUPAC_INCHI>
InChI=1S/C24H31BrN4/c1-2-11-29(23-9-7-21(25)8-10-23)17-16-27-12-14-28(15-13-27)19-22-18-20-5-3-4-6-24(20)26-22/h3-10,18,26H,2,11-17,19H2,1H3

> <PUBCHEM_IUPAC_INCHIKEY>
VCGDITFNZVUQSJ-UHFFFAOYSA-N

> <PUBCHEM_XLOGP3_AA>
5.1

> <PUBCHEM_EXACT_MASS>
454.17321

> <PUBCHEM_MOLECULAR_FORMULA>
C24H31BrN4

> <PUBCHEM_MOLECULAR_WEIGHT>
455.4

> <PUBCHEM_OPENEYE_CAN_SMILES>
CCCN(CCN1CCN(CC1)CC2=CC3=CC=CC=C3N2)C4=CC=C(C=C4)Br

> <PUBCHEM_OPENEYE_ISO_SMILES>
CCCN(CCN1CCN(CC1)CC2=CC3=CC=CC=C3N2)C4=CC=C(C=C4)Br

> <PUBCHEM_CACTVS_TPSA>
25.5

> <PUBCHEM_MONOISOTOPIC_WEIGHT>
454.17321

> <PUBCHEM_TOTAL_CHARGE>
0

> <PUBCHEM_HEAVY_ATOM_COUNT>
29

> <PUBCHEM_ATOM_DEF_STEREO_COUNT>
0

> <PUBCHEM_ATOM_UDEF_STEREO_COUNT>
0

> <PUBCHEM_BOND_DEF_STEREO_COUNT>
0

> <PUBCHEM_BOND_UDEF_STEREO_COUNT>
0

> <PUBCHEM_ISOTOPIC_ATOM_COUNT>
0

> <PUBCHEM_COMPONENT_COUNT>
1

> <PUBCHEM_CACTVS_TAUTO_COUNT>
-1

> <PUBCHEM_COORDINATE_TYPE>
1
5
255

> <PUBCHEM_BONDANNOTATIONS>
13  15  8
15  18  8
16  20  8
16  21  8
17  18  8
17  22  8
18  23  8
20  27  8
21  28  8
22  25  8
23  26  8
25  26  8
27  29  8
28  29  8
5  13  8
5  17  8

$$$$
