134149077
  -OEChem-09292322382D

 54 57  0     1  0  0  0  0  0999 V2000
    2.8963    2.8708    0.0000 O   0  0  0  0  0  0  0  0  0  0  0  0
    3.8372   -4.8573    0.0000 O   0  0  0  0  0  0  0  0  0  0  0  0
    5.6405   -3.7976    0.0000 O   0  0  0  0  0  0  0  0  0  0  0  0
    4.6622    3.9086    0.0000 O   0  0  0  0  0  0  0  0  0  0  0  0
    2.9180   -0.1606    0.0000 N   0  0  3  0  0  0  0  0  0  0  0  0
    3.7841   -0.6606    0.0000 C   0  0  1  0  0  0  0  0  0  0  0  0
    4.6501   -0.1606    0.0000 C   0  0  0  0  0  0  0  0  0  0  0  0
    2.0080   -0.6675    0.0000 C   0  0  0  0  0  0  0  0  0  0  0  0
    2.9180    0.8394    0.0000 C   0  0  0  0  0  0  0  0  0  0  0  0
    3.8001   -1.7021    0.0000 C   0  0  0  0  0  0  0  0  0  0  0  0
    2.0000   -1.7091    0.0000 C   0  0  0  0  0  0  0  0  0  0  0  0
    4.6501    0.8394    0.0000 C   0  0  0  0  0  0  0  0  0  0  0  0
    3.7841    1.3394    0.0000 C   0  0  0  0  0  0  0  0  0  0  0  0
    2.9021   -2.2299    0.0000 C   0  0  0  0  0  0  0  0  0  0  0  0
    4.7520   -2.2228    0.0000 C   0  0  0  0  0  0  0  0  0  0  0  0
    3.7680    2.3809    0.0000 C   0  0  0  0  0  0  0  0  0  0  0  0
    5.5601    1.3462    0.0000 C   0  0  0  0  0  0  0  0  0  0  0  0
    2.8937   -3.3148    0.0000 C   0  0  0  0  0  0  0  0  0  0  0  0
    4.7688   -3.3076    0.0000 C   0  0  0  0  0  0  0  0  0  0  0  0
    4.6660    2.9086    0.0000 C   0  0  0  0  0  0  0  0  0  0  0  0
    3.8334   -3.8573    0.0000 C   0  0  0  0  0  0  0  0  0  0  0  0
    5.5681    2.3878    0.0000 C   0  0  0  0  0  0  0  0  0  0  0  0
    2.8847    3.8708    0.0000 C   0  0  3  0  0  0  0  0  0  0  0  0
    2.0129    4.3607    0.0000 C   0  0  0  0  0  0  0  0  0  0  0  0
    3.7449    4.3808    0.0000 C   0  0  0  0  0  0  0  0  0  0  0  0
    2.0014    5.3607    0.0000 C   0  0  0  0  0  0  0  0  0  0  0  0
    2.9731   -5.3607    0.0000 C   0  0  0  0  0  0  0  0  0  0  0  0
    4.5234   -1.0799    0.0000 H   0  0  0  0  0  0  0  0  0  0  0  0
    4.8621   -0.7432    0.0000 H   0  0  0  0  0  0  0  0  0  0  0  0
    5.2607   -0.0530    0.0000 H   0  0  0  0  0  0  0  0  0  0  0  0
    1.8035   -0.0822    0.0000 H   0  0  0  0  0  0  0  0  0  0  0  0
    1.3964   -0.7688    0.0000 H   0  0  0  0  0  0  0  0  0  0  0  0
    2.7060    1.4220    0.0000 H   0  0  0  0  0  0  0  0  0  0  0  0
    2.3074    0.7317    0.0000 H   0  0  0  0  0  0  0  0  0  0  0  0
    1.3900   -1.5983    0.0000 H   0  0  0  0  0  0  0  0  0  0  0  0
    1.7864   -2.2911    0.0000 H   0  0  0  0  0  0  0  0  0  0  0  0
    5.2829   -1.9025    0.0000 H   0  0  0  0  0  0  0  0  0  0  0  0
    6.0934    1.0300    0.0000 H   0  0  0  0  0  0  0  0  0  0  0  0
    2.3556   -3.6228    0.0000 H   0  0  0  0  0  0  0  0  0  0  0  0
    6.1062    2.6958    0.0000 H   0  0  0  0  0  0  0  0  0  0  0  0
    2.3514    3.5546    0.0000 H   0  0  0  0  0  0  0  0  0  0  0  0
    1.4011    4.4613    0.0000 H   0  0  0  0  0  0  0  0  0  0  0  0
    1.8076    3.7757    0.0000 H   0  0  0  0  0  0  0  0  0  0  0  0
    4.0611    3.8474    0.0000 H   0  0  0  0  0  0  0  0  0  0  0  0
    4.2782    4.6970    0.0000 H   0  0  0  0  0  0  0  0  0  0  0  0
    3.4287    4.9141    0.0000 H   0  0  0  0  0  0  0  0  0  0  0  0
    5.6477   -4.4175    0.0000 H   0  0  0  0  0  0  0  0  0  0  0  0
    5.1979    4.2207    0.0000 H   0  0  0  0  0  0  0  0  0  0  0  0
    2.6213    5.3678    0.0000 H   0  0  0  0  0  0  0  0  0  0  0  0
    1.9942    5.9806    0.0000 H   0  0  0  0  0  0  0  0  0  0  0  0
    1.3814    5.3535    0.0000 H   0  0  0  0  0  0  0  0  0  0  0  0
    2.6610   -4.8249    0.0000 H   0  0  0  0  0  0  0  0  0  0  0  0
    2.4374   -5.6727    0.0000 H   0  0  0  0  0  0  0  0  0  0  0  0
    3.2852   -5.8964    0.0000 H   0  0  0  0  0  0  0  0  0  0  0  0
  1 16  1  0  0  0  0
  1 23  1  0  0  0  0
  2 21  1  0  0  0  0
  2 27  1  0  0  0  0
  3 19  1  0  0  0  0
  3 47  1  0  0  0  0
  4 20  1  0  0  0  0
  4 48  1  0  0  0  0
  5  6  1  0  0  0  0
  5  8  1  0  0  0  0
  5  9  1  0  0  0  0
  6  7  1  0  0  0  0
  6 10  1  0  0  0  0
  6 28  1  6  0  0  0
  7 12  1  0  0  0  0
  7 29  1  0  0  0  0
  7 30  1  0  0  0  0
  8 11  1  0  0  0  0
  8 31  1  0  0  0  0
  8 32  1  0  0  0  0
  9 13  1  0  0  0  0
  9 33  1  0  0  0  0
  9 34  1  0  0  0  0
 10 14  1  0  0  0  0
 10 15  2  0  0  0  0
 11 14  1  0  0  0  0
 11 35  1  0  0  0  0
 11 36  1  0  0  0  0
 12 13  2  0  0  0  0
 12 17  1  0  0  0  0
 13 16  1  0  0  0  0
 14 18  2  0  0  0  0
 15 19  1  0  0  0  0
 15 37  1  0  0  0  0
 16 20  2  0  0  0  0
 17 22  2  0  0  0  0
 17 38  1  0  0  0  0
 18 21  1  0  0  0  0
 18 39  1  0  0  0  0
 19 21  2  0  0  0  0
 20 22  1  0  0  0  0
 22 40  1  0  0  0  0
 23 24  1  0  0  0  0
 23 25  1  0  0  0  0
 23 41  1  0  0  0  0
 24 26  1  0  0  0  0
 24 42  1  0  0  0  0
 24 43  1  0  0  0  0
 25 44  1  0  0  0  0
 25 45  1  0  0  0  0
 25 46  1  0  0  0  0
 26 49  1  0  0  0  0
 26 50  1  0  0  0  0
 26 51  1  0  0  0  0
 27 52  1  0  0  0  0
 27 53  1  0  0  0  0
 27 54  1  0  0  0  0
M  END
> <PUBCHEM_COMPOUND_CID>
134149077

> <PUBCHEM_COMPOUND_CANONICALIZED>
1

> <PUBCHEM_CACTVS_COMPLEXITY>
503

> <PUBCHEM_CACTVS_HBOND_ACCEPTOR>
5

> <PUBCHEM_CACTVS_HBOND_DONOR>
2

> <PUBCHEM_CACTVS_ROTATABLE_BOND>
4

> <PUBCHEM_CACTVS_SUBSKEYS>
AAADceB6OAAAAAAAAAAAAAAAAAAAAAAAAAA8eIEAAAAAAACxQAAAHgAACAAADDzhmAYyBoMABgCAAiBCAACCCAAgIAAIiAAOjIgNJiKGsRuGeCvmwBGLuAew0PMOoAABAAAYQABAAAIAADCAAAAAAAAAAA==

> <PUBCHEM_IUPAC_OPENEYE_NAME>
(13aS)-3-methoxy-9-sec-butoxy-6,8,13,13a-tetrahydro-5H-isoquinolino[2,1-b]isoquinoline-2,10-diol

> <PUBCHEM_IUPAC_CAS_NAME>
(13aS)-9-butan-2-yloxy-3-methoxy-6,8,13,13a-tetrahydro-5H-isoquinolino[2,1-b]isoquinoline-2,10-diol

> <PUBCHEM_IUPAC_NAME_MARKUP>
(13<I>a</I><I>S</I>)-9-butan-2-yloxy-3-methoxy-6,8,13,13<I>a</I>-tetrahydro-5<I>H</I>-isoquinolino[2,1-b]isoquinoline-2,10-diol

> <PUBCHEM_IUPAC_NAME>
(13aS)-9-butan-2-yloxy-3-methoxy-6,8,13,13a-tetrahydro-5H-isoquinolino[2,1-b]isoquinoline-2,10-diol

> <PUBCHEM_IUPAC_SYSTEMATIC_NAME>
(13aS)-9-butan-2-yloxy-3-methoxy-6,8,13,13a-tetrahydro-5H-isoquinolino[2,1-b]isoquinoline-2,10-diol

> <PUBCHEM_IUPAC_TRADITIONAL_NAME>
(13aS)-3-methoxy-9-sec-butoxy-6,8,13,13a-tetrahydro-5H-isoquinolin[2,1-b]isoquinoline-2,10-diol

> <PUBCHEM_IUPAC_INCHI>
InChI=1S/C22H27NO4/c1-4-13(2)27-22-17-12-23-8-7-15-10-21(26-3)20(25)11-16(15)18(23)9-14(17)5-6-19(22)24/h5-6,10-11,13,18,24-25H,4,7-9,12H2,1-3H3/t13?,18-/m0/s1

> <PUBCHEM_IUPAC_INCHIKEY>
BTEHEQVRGFEGCF-UWBLVGDVSA-N

> <PUBCHEM_XLOGP3_AA>
3.9

> <PUBCHEM_EXACT_MASS>
369.19400834

> <PUBCHEM_MOLECULAR_FORMULA>
C22H27NO4

> <PUBCHEM_MOLECULAR_WEIGHT>
369.5

> <PUBCHEM_OPENEYE_CAN_SMILES>
CCC(C)OC1=C(C=CC2=C1CN3CCC4=CC(=C(C=C4C3C2)O)OC)O

> <PUBCHEM_OPENEYE_ISO_SMILES>
CCC(C)OC1=C(C=CC2=C1CN3CCC4=CC(=C(C=C4[C@@H]3C2)O)OC)O

> <PUBCHEM_CACTVS_TPSA>
62.2

> <PUBCHEM_MONOISOTOPIC_WEIGHT>
369.19400834

> <PUBCHEM_TOTAL_CHARGE>
0

> <PUBCHEM_HEAVY_ATOM_COUNT>
27

> <PUBCHEM_ATOM_DEF_STEREO_COUNT>
1

> <PUBCHEM_ATOM_UDEF_STEREO_COUNT>
1

> <PUBCHEM_BOND_DEF_STEREO_COUNT>
0

> <PUBCHEM_BOND_UDEF_STEREO_COUNT>
0

> <PUBCHEM_ISOTOPIC_ATOM_COUNT>
0

> <PUBCHEM_COMPONENT_COUNT>
1

> <PUBCHEM_CACTVS_TAUTO_COUNT>
-1

> <PUBCHEM_COORDINATE_TYPE>
1
5
255

> <PUBCHEM_BONDANNOTATIONS>
10  14  8
10  15  8
12  13  8
12  17  8
13  16  8
14  18  8
15  19  8
16  20  8
17  22  8
18  21  8
19  21  8
20  22  8
23  25  3
6  28  6

$$$$
