44419056
  -OEChem-09292322242D

 61 64  0     0  0  0  0  0  0999 V2000
    6.9473   -1.6318    0.0000 S   0  0  0  0  0  0  0  0  0  0  0  0
   16.0309    0.0390    0.0000 O   0  0  0  0  0  0  0  0  0  0  0  0
    9.0309   -1.6931    0.0000 O   0  0  0  0  0  0  0  0  0  0  0  0
   13.0309    1.7710    0.0000 N   0  0  0  0  0  0  0  0  0  0  0  0
   15.0309    1.7710    0.0000 N   0  0  0  0  0  0  0  0  0  0  0  0
    9.0309    0.0390    0.0000 N   0  0  0  0  0  0  0  0  0  0  0  0
   13.5309    0.9050    0.0000 C   0  0  0  0  0  0  0  0  0  0  0  0
   13.5309    2.6370    0.0000 C   0  0  0  0  0  0  0  0  0  0  0  0
   14.5309    0.9050    0.0000 C   0  0  0  0  0  0  0  0  0  0  0  0
   14.5309    2.6370    0.0000 C   0  0  0  0  0  0  0  0  0  0  0  0
   12.0309    1.7710    0.0000 C   0  0  0  0  0  0  0  0  0  0  0  0
   11.5309    0.9050    0.0000 C   0  0  0  0  0  0  0  0  0  0  0  0
   16.0309    1.7710    0.0000 C   0  0  0  0  0  0  0  0  0  0  0  0
   10.5309    0.9050    0.0000 C   0  0  0  0  0  0  0  0  0  0  0  0
   10.0309    0.0390    0.0000 C   0  0  0  0  0  0  0  0  0  0  0  0
   16.5309    0.9050    0.0000 C   0  0  0  0  0  0  0  0  0  0  0  0
   16.5309    2.6370    0.0000 C   0  0  0  0  0  0  0  0  0  0  0  0
   17.5309    0.9050    0.0000 C   0  0  0  0  0  0  0  0  0  0  0  0
   17.5309    2.6370    0.0000 C   0  0  0  0  0  0  0  0  0  0  0  0
   18.0309    1.7710    0.0000 C   0  0  0  0  0  0  0  0  0  0  0  0
    8.5309   -0.8271    0.0000 C   0  0  0  0  0  0  0  0  0  0  0  0
    7.5309   -0.8271    0.0000 C   0  0  0  0  0  0  0  0  0  0  0  0
   16.5309   -0.8271    0.0000 C   0  0  0  0  0  0  0  0  0  0  0  0
    6.9473   -0.0223    0.0000 C   0  0  0  0  0  0  0  0  0  0  0  0
    6.0010   -0.3271    0.0000 C   0  0  0  0  0  0  0  0  0  0  0  0
    6.0010   -1.3270    0.0000 C   0  0  0  0  0  0  0  0  0  0  0  0
    5.1350    0.1729    0.0000 C   0  0  0  0  0  0  0  0  0  0  0  0
    5.1350   -1.8270    0.0000 C   0  0  0  0  0  0  0  0  0  0  0  0
    4.2690   -1.3270    0.0000 C   0  0  0  0  0  0  0  0  0  0  0  0
    4.2690   -0.3271    0.0000 C   0  0  0  0  0  0  0  0  0  0  0  0
    3.4030   -1.8270    0.0000 C   0  0  0  0  0  0  0  0  0  0  0  0
    2.5369   -2.3270    0.0000 C   0  0  0  0  0  0  0  0  0  0  0  0
   12.9483    0.6929    0.0000 H   0  0  0  0  0  0  0  0  0  0  0  0
   13.6385    0.2944    0.0000 H   0  0  0  0  0  0  0  0  0  0  0  0
   13.6385    3.2476    0.0000 H   0  0  0  0  0  0  0  0  0  0  0  0
   12.9483    2.8491    0.0000 H   0  0  0  0  0  0  0  0  0  0  0  0
   14.4232    0.2944    0.0000 H   0  0  0  0  0  0  0  0  0  0  0  0
   15.1135    0.6929    0.0000 H   0  0  0  0  0  0  0  0  0  0  0  0
   15.1135    2.8491    0.0000 H   0  0  0  0  0  0  0  0  0  0  0  0
   14.4232    3.2476    0.0000 H   0  0  0  0  0  0  0  0  0  0  0  0
   12.1385    2.3816    0.0000 H   0  0  0  0  0  0  0  0  0  0  0  0
   11.4483    1.9831    0.0000 H   0  0  0  0  0  0  0  0  0  0  0  0
   11.4232    0.2944    0.0000 H   0  0  0  0  0  0  0  0  0  0  0  0
   12.1135    0.6929    0.0000 H   0  0  0  0  0  0  0  0  0  0  0  0
   10.6385    1.5156    0.0000 H   0  0  0  0  0  0  0  0  0  0  0  0
    9.9483    1.1171    0.0000 H   0  0  0  0  0  0  0  0  0  0  0  0
    9.9232   -0.5716    0.0000 H   0  0  0  0  0  0  0  0  0  0  0  0
   10.6135   -0.1731    0.0000 H   0  0  0  0  0  0  0  0  0  0  0  0
   16.2209    3.1740    0.0000 H   0  0  0  0  0  0  0  0  0  0  0  0
   17.8409    0.3681    0.0000 H   0  0  0  0  0  0  0  0  0  0  0  0
    8.7209    0.5759    0.0000 H   0  0  0  0  0  0  0  0  0  0  0  0
   17.8409    3.1740    0.0000 H   0  0  0  0  0  0  0  0  0  0  0  0
   18.6509    1.7710    0.0000 H   0  0  0  0  0  0  0  0  0  0  0  0
   15.9939   -1.1370    0.0000 H   0  0  0  0  0  0  0  0  0  0  0  0
   16.8409   -1.3640    0.0000 H   0  0  0  0  0  0  0  0  0  0  0  0
   17.0678   -0.5171    0.0000 H   0  0  0  0  0  0  0  0  0  0  0  0
    7.1399    0.5670    0.0000 H   0  0  0  0  0  0  0  0  0  0  0  0
    5.1350    0.7929    0.0000 H   0  0  0  0  0  0  0  0  0  0  0  0
    5.1350   -2.4470    0.0000 H   0  0  0  0  0  0  0  0  0  0  0  0
    3.7320   -0.0171    0.0000 H   0  0  0  0  0  0  0  0  0  0  0  0
    2.0000   -2.6370    0.0000 H   0  0  0  0  0  0  0  0  0  0  0  0
  1 22  1  0  0  0  0
  1 26  1  0  0  0  0
  2 16  1  0  0  0  0
  2 23  1  0  0  0  0
  3 21  2  0  0  0  0
  4  7  1  0  0  0  0
  4  8  1  0  0  0  0
  4 11  1  0  0  0  0
  5  9  1  0  0  0  0
  5 10  1  0  0  0  0
  5 13  1  0  0  0  0
  6 15  1  0  0  0  0
  6 21  1  0  0  0  0
  6 51  1  0  0  0  0
  7  9  1  0  0  0  0
  7 33  1  0  0  0  0
  7 34  1  0  0  0  0
  8 10  1  0  0  0  0
  8 35  1  0  0  0  0
  8 36  1  0  0  0  0
  9 37  1  0  0  0  0
  9 38  1  0  0  0  0
 10 39  1  0  0  0  0
 10 40  1  0  0  0  0
 11 12  1  0  0  0  0
 11 41  1  0  0  0  0
 11 42  1  0  0  0  0
 12 14  1  0  0  0  0
 12 43  1  0  0  0  0
 12 44  1  0  0  0  0
 13 16  1  0  0  0  0
 13 17  2  0  0  0  0
 14 15  1  0  0  0  0
 14 45  1  0  0  0  0
 14 46  1  0  0  0  0
 15 47  1  0  0  0  0
 15 48  1  0  0  0  0
 16 18  2  0  0  0  0
 17 19  1  0  0  0  0
 17 49  1  0  0  0  0
 18 20  1  0  0  0  0
 18 50  1  0  0  0  0
 19 20  2  0  0  0  0
 19 52  1  0  0  0  0
 20 53  1  0  0  0  0
 21 22  1  0  0  0  0
 22 24  2  0  0  0  0
 23 54  1  0  0  0  0
 23 55  1  0  0  0  0
 23 56  1  0  0  0  0
 24 25  1  0  0  0  0
 24 57  1  0  0  0  0
 25 26  2  0  0  0  0
 25 27  1  0  0  0  0
 26 28  1  0  0  0  0
 27 30  2  0  0  0  0
 27 58  1  0  0  0  0
 28 29  2  0  0  0  0
 28 59  1  0  0  0  0
 29 30  1  0  0  0  0
 29 31  1  0  0  0  0
 30 60  1  0  0  0  0
 31 32  3  0  0  0  0
 32 61  1  0  0  0  0
M  END
> <PUBCHEM_COMPOUND_CID>
44419056

> <PUBCHEM_COMPOUND_CANONICALIZED>
1

> <PUBCHEM_CACTVS_COMPLEXITY>
657

> <PUBCHEM_CACTVS_HBOND_ACCEPTOR>
5

> <PUBCHEM_CACTVS_HBOND_DONOR>
1

> <PUBCHEM_CACTVS_ROTATABLE_BOND>
9

> <PUBCHEM_CACTVS_SUBSKEYS>
AAADceB7MABAAAAAAAAAAAAAAAAAASAAAAA8YIAAAAAAAEgB9AAAHgQQAAAADAzB2AYyx8PABAjMGiVSUAiDCIAlKhBIiJkPbMgOZjLktZuVMShk1hH46YeYyMCOQAAAgAAEEACAAAEAAAggAAAAAAAAAA==

> <PUBCHEM_IUPAC_OPENEYE_NAME>
6-ethynyl-N-[4-[4-(2-methoxyphenyl)piperazin-1-yl]butyl]benzothiophene-2-carboxamide

> <PUBCHEM_IUPAC_CAS_NAME>
6-ethynyl-N-[4-[4-(2-methoxyphenyl)-1-piperazinyl]butyl]-1-benzothiophene-2-carboxamide

> <PUBCHEM_IUPAC_NAME_MARKUP>
6-ethynyl-<I>N</I>-[4-[4-(2-methoxyphenyl)piperazin-1-yl]butyl]-1-benzothiophene-2-carboxamide

> <PUBCHEM_IUPAC_NAME>
6-ethynyl-N-[4-[4-(2-methoxyphenyl)piperazin-1-yl]butyl]-1-benzothiophene-2-carboxamide

> <PUBCHEM_IUPAC_SYSTEMATIC_NAME>
6-ethynyl-N-[4-[4-(2-methoxyphenyl)piperazin-1-yl]butyl]-1-benzothiophene-2-carboxamide

> <PUBCHEM_IUPAC_TRADITIONAL_NAME>
6-ethynyl-N-[4-[4-(2-methoxyphenyl)piperazino]butyl]benzothiophene-2-carboxamide

> <PUBCHEM_IUPAC_INCHI>
InChI=1S/C26H29N3O2S/c1-3-20-10-11-21-19-25(32-24(21)18-20)26(30)27-12-6-7-13-28-14-16-29(17-15-28)22-8-4-5-9-23(22)31-2/h1,4-5,8-11,18-19H,6-7,12-17H2,2H3,(H,27,30)

> <PUBCHEM_IUPAC_INCHIKEY>
DTLXZNWCYSVXJZ-UHFFFAOYSA-N

> <PUBCHEM_XLOGP3_AA>
5.1

> <PUBCHEM_EXACT_MASS>
447.19804835

> <PUBCHEM_MOLECULAR_FORMULA>
C26H29N3O2S

> <PUBCHEM_MOLECULAR_WEIGHT>
447.6

> <PUBCHEM_OPENEYE_CAN_SMILES>
COC1=CC=CC=C1N2CCN(CC2)CCCCNC(=O)C3=CC4=C(S3)C=C(C=C4)C#C

> <PUBCHEM_OPENEYE_ISO_SMILES>
COC1=CC=CC=C1N2CCN(CC2)CCCCNC(=O)C3=CC4=C(S3)C=C(C=C4)C#C

> <PUBCHEM_CACTVS_TPSA>
73

> <PUBCHEM_MONOISOTOPIC_WEIGHT>
447.19804835

> <PUBCHEM_TOTAL_CHARGE>
0

> <PUBCHEM_HEAVY_ATOM_COUNT>
32

> <PUBCHEM_ATOM_DEF_STEREO_COUNT>
0

> <PUBCHEM_ATOM_UDEF_STEREO_COUNT>
0

> <PUBCHEM_BOND_DEF_STEREO_COUNT>
0

> <PUBCHEM_BOND_UDEF_STEREO_COUNT>
0

> <PUBCHEM_ISOTOPIC_ATOM_COUNT>
0

> <PUBCHEM_COMPONENT_COUNT>
1

> <PUBCHEM_CACTVS_TAUTO_COUNT>
-1

> <PUBCHEM_COORDINATE_TYPE>
1
5
255

> <PUBCHEM_BONDANNOTATIONS>
1  22  8
1  26  8
13  16  8
13  17  8
16  18  8
17  19  8
18  20  8
19  20  8
22  24  8
24  25  8
25  26  8
25  27  8
26  28  8
27  30  8
28  29  8
29  30  8

$$$$
