145983794
  -OEChem-09292322392D

 68 73  0     1  0  0  0  0  0999 V2000
    4.6660    0.0173    0.0000 S   0  0  0  0  0  0  0  0  0  0  0  0
   13.1973    0.1844    0.0000 S   0  0  0  0  0  0  0  0  0  0  0  0
    5.6660    0.0173    0.0000 O   0  0  0  0  0  0  0  0  0  0  0  0
    3.6660    0.0173    0.0000 O   0  0  0  0  0  0  0  0  0  0  0  0
    4.6660    1.0173    0.0000 N   0  0  3  0  0  0  0  0  0  0  0  0
    8.1301    1.0173    0.0000 N   0  0  0  0  0  0  0  0  0  0  0  0
    9.8622    0.0173    0.0000 N   0  0  0  0  0  0  0  0  0  0  0  0
    5.5321   -2.4827    0.0000 N   0  0  0  0  0  0  0  0  0  0  0  0
    5.5321    1.5173    0.0000 C   0  0  2  0  0  0  0  0  0  0  0  0
    5.5321    2.5173    0.0000 C   0  0  0  0  0  0  0  0  0  0  0  0
    6.3981    1.0173    0.0000 C   0  0  0  0  0  0  0  0  0  0  0  0
    4.6660    3.0173    0.0000 C   0  0  0  0  0  0  0  0  0  0  0  0
    3.8000    1.5173    0.0000 C   0  0  0  0  0  0  0  0  0  0  0  0
    3.8000    2.5173    0.0000 C   0  0  0  0  0  0  0  0  0  0  0  0
    7.2641    1.5173    0.0000 C   0  0  0  0  0  0  0  0  0  0  0  0
    8.1301    0.0173    0.0000 C   0  0  0  0  0  0  0  0  0  0  0  0
    8.9962    1.5173    0.0000 C   0  0  0  0  0  0  0  0  0  0  0  0
    8.9962   -0.4827    0.0000 C   0  0  0  0  0  0  0  0  0  0  0  0
    9.8622    1.0173    0.0000 C   0  0  0  0  0  0  0  0  0  0  0  0
    4.6660   -0.9827    0.0000 C   0  0  0  0  0  0  0  0  0  0  0  0
   10.7282   -0.4827    0.0000 C   0  0  0  0  0  0  0  0  0  0  0  0
    3.8000   -1.4827    0.0000 C   0  0  0  0  0  0  0  0  0  0  0  0
    5.5321   -1.4827    0.0000 C   0  0  0  0  0  0  0  0  0  0  0  0
   11.5942    0.0173    0.0000 C   0  0  0  0  0  0  0  0  0  0  0  0
   10.7282   -1.4827    0.0000 C   0  0  0  0  0  0  0  0  0  0  0  0
    3.8000   -2.4827    0.0000 C   0  0  0  0  0  0  0  0  0  0  0  0
   12.4603   -0.4827    0.0000 C   0  0  0  0  0  0  0  0  0  0  0  0
    2.9061   -0.9480    0.0000 C   0  0  0  0  0  0  0  0  0  0  0  0
   11.8034    0.9891    0.0000 C   0  0  0  0  0  0  0  0  0  0  0  0
   11.5942   -1.9827    0.0000 C   0  0  0  0  0  0  0  0  0  0  0  0
    4.6660   -2.9827    0.0000 C   0  0  0  0  0  0  0  0  0  0  0  0
   12.4603   -1.4827    0.0000 C   0  0  0  0  0  0  0  0  0  0  0  0
    2.9061   -3.0173    0.0000 C   0  0  0  0  0  0  0  0  0  0  0  0
    2.0000   -1.4619    0.0000 C   0  0  0  0  0  0  0  0  0  0  0  0
   12.7922    1.0922    0.0000 C   0  0  0  0  0  0  0  0  0  0  0  0
    2.0000   -2.5035    0.0000 C   0  0  0  0  0  0  0  0  0  0  0  0
    5.5321    0.8973    0.0000 H   0  0  0  0  0  0  0  0  0  0  0  0
    6.1426    2.4097    0.0000 H   0  0  0  0  0  0  0  0  0  0  0  0
    5.7441    3.0999    0.0000 H   0  0  0  0  0  0  0  0  0  0  0  0
    5.9996    0.5424    0.0000 H   0  0  0  0  0  0  0  0  0  0  0  0
    6.7966    0.5424    0.0000 H   0  0  0  0  0  0  0  0  0  0  0  0
    5.0646    3.4923    0.0000 H   0  0  0  0  0  0  0  0  0  0  0  0
    4.2675    3.4923    0.0000 H   0  0  0  0  0  0  0  0  0  0  0  0
    3.1894    1.6250    0.0000 H   0  0  0  0  0  0  0  0  0  0  0  0
    3.5880    0.9347    0.0000 H   0  0  0  0  0  0  0  0  0  0  0  0
    3.5880    3.0999    0.0000 H   0  0  0  0  0  0  0  0  0  0  0  0
    3.1894    2.4097    0.0000 H   0  0  0  0  0  0  0  0  0  0  0  0
    7.6626    1.9923    0.0000 H   0  0  0  0  0  0  0  0  0  0  0  0
    6.8656    1.9923    0.0000 H   0  0  0  0  0  0  0  0  0  0  0  0
    7.5196    0.1250    0.0000 H   0  0  0  0  0  0  0  0  0  0  0  0
    7.9181   -0.5653    0.0000 H   0  0  0  0  0  0  0  0  0  0  0  0
    9.3947    1.9923    0.0000 H   0  0  0  0  0  0  0  0  0  0  0  0
    8.5976    1.9923    0.0000 H   0  0  0  0  0  0  0  0  0  0  0  0
    8.5976   -0.9576    0.0000 H   0  0  0  0  0  0  0  0  0  0  0  0
    9.3947   -0.9576    0.0000 H   0  0  0  0  0  0  0  0  0  0  0  0
   10.4728    0.9097    0.0000 H   0  0  0  0  0  0  0  0  0  0  0  0
   10.0742    1.5999    0.0000 H   0  0  0  0  0  0  0  0  0  0  0  0
    6.0690   -1.1727    0.0000 H   0  0  0  0  0  0  0  0  0  0  0  0
   10.1913   -1.7927    0.0000 H   0  0  0  0  0  0  0  0  0  0  0  0
    2.9132   -0.3280    0.0000 H   0  0  0  0  0  0  0  0  0  0  0  0
   11.3894    1.4506    0.0000 H   0  0  0  0  0  0  0  0  0  0  0  0
   11.5942   -2.6027    0.0000 H   0  0  0  0  0  0  0  0  0  0  0  0
    4.6660   -3.6027    0.0000 H   0  0  0  0  0  0  0  0  0  0  0  0
   12.9972   -1.7927    0.0000 H   0  0  0  0  0  0  0  0  0  0  0  0
    2.9132   -3.6373    0.0000 H   0  0  0  0  0  0  0  0  0  0  0  0
    1.4643   -1.1498    0.0000 H   0  0  0  0  0  0  0  0  0  0  0  0
   13.1022    1.6291    0.0000 H   0  0  0  0  0  0  0  0  0  0  0  0
    1.4643   -2.8156    0.0000 H   0  0  0  0  0  0  0  0  0  0  0  0
  1  3  2  0  0  0  0
  1  4  2  0  0  0  0
  1  5  1  0  0  0  0
  1 20  1  0  0  0  0
  2 27  1  0  0  0  0
  2 35  1  0  0  0  0
  5  9  1  0  0  0  0
  5 13  1  0  0  0  0
  6 15  1  0  0  0  0
  6 16  1  0  0  0  0
  6 17  1  0  0  0  0
  7 18  1  0  0  0  0
  7 19  1  0  0  0  0
  7 21  1  0  0  0  0
  8 23  1  0  0  0  0
  8 31  2  0  0  0  0
  9 10  1  0  0  0  0
  9 11  1  6  0  0  0
  9 37  1  0  0  0  0
 10 12  1  0  0  0  0
 10 38  1  0  0  0  0
 10 39  1  0  0  0  0
 11 15  1  0  0  0  0
 11 40  1  0  0  0  0
 11 41  1  0  0  0  0
 12 14  1  0  0  0  0
 12 42  1  0  0  0  0
 12 43  1  0  0  0  0
 13 14  1  0  0  0  0
 13 44  1  0  0  0  0
 13 45  1  0  0  0  0
 14 46  1  0  0  0  0
 14 47  1  0  0  0  0
 15 48  1  0  0  0  0
 15 49  1  0  0  0  0
 16 18  1  0  0  0  0
 16 50  1  0  0  0  0
 16 51  1  0  0  0  0
 17 19  1  0  0  0  0
 17 52  1  0  0  0  0
 17 53  1  0  0  0  0
 18 54  1  0  0  0  0
 18 55  1  0  0  0  0
 19 56  1  0  0  0  0
 19 57  1  0  0  0  0
 20 22  1  0  0  0  0
 20 23  2  0  0  0  0
 21 24  2  0  0  0  0
 21 25  1  0  0  0  0
 22 26  1  0  0  0  0
 22 28  2  0  0  0  0
 23 58  1  0  0  0  0
 24 27  1  0  0  0  0
 24 29  1  0  0  0  0
 25 30  2  0  0  0  0
 25 59  1  0  0  0  0
 26 31  1  0  0  0  0
 26 33  2  0  0  0  0
 27 32  2  0  0  0  0
 28 34  1  0  0  0  0
 28 60  1  0  0  0  0
 29 35  2  0  0  0  0
 29 61  1  0  0  0  0
 30 32  1  0  0  0  0
 30 62  1  0  0  0  0
 31 63  1  0  0  0  0
 32 64  1  0  0  0  0
 33 36  1  0  0  0  0
 33 65  1  0  0  0  0
 34 36  2  0  0  0  0
 34 66  1  0  0  0  0
 35 67  1  0  0  0  0
 36 68  1  0  0  0  0
M  END
> <PUBCHEM_COMPOUND_CID>
145983794

> <PUBCHEM_COMPOUND_CANONICALIZED>
1

> <PUBCHEM_CACTVS_COMPLEXITY>
828

> <PUBCHEM_CACTVS_HBOND_ACCEPTOR>
7

> <PUBCHEM_CACTVS_HBOND_DONOR>
0

> <PUBCHEM_CACTVS_ROTATABLE_BOND>
6

> <PUBCHEM_CACTVS_SUBSKEYS>
AAADcfB7sABgAAAAAAAAAAAAAAAAASAAAAA8eLECAAAAAEix/gAAHAQAQAAADCjFWgS8wdMIEAqkAjRnRHDDgLAxCjBI2DwoZJgIYOLg0ZGUIAxggADoyAcQgIAOgAAAACAWAAAAAAAAQCwAAAAAAAAAAA==

> <PUBCHEM_IUPAC_OPENEYE_NAME>
4-[[(2R)-2-[2-[4-(benzothiophen-4-yl)piperazin-1-yl]ethyl]-1-piperidyl]sulfonyl]isoquinoline

> <PUBCHEM_IUPAC_CAS_NAME>
4-[[(2R)-2-[2-[4-(1-benzothiophen-4-yl)-1-piperazinyl]ethyl]-1-piperidinyl]sulfonyl]isoquinoline

> <PUBCHEM_IUPAC_NAME_MARKUP>
4-[(2<I>R</I>)-2-[2-[4-(1-benzothiophen-4-yl)piperazin-1-yl]ethyl]piperidin-1-yl]sulfonylisoquinoline

> <PUBCHEM_IUPAC_NAME>
4-[(2R)-2-[2-[4-(1-benzothiophen-4-yl)piperazin-1-yl]ethyl]piperidin-1-yl]sulfonylisoquinoline

> <PUBCHEM_IUPAC_SYSTEMATIC_NAME>
4-[(2R)-2-[2-[4-(1-benzothiophen-4-yl)piperazin-1-yl]ethyl]piperidin-1-yl]sulfonylisoquinoline

> <PUBCHEM_IUPAC_TRADITIONAL_NAME>
4-[(2R)-2-[2-[4-(benzothiophen-4-yl)piperazino]ethyl]piperidino]sulfonylisoquinoline

> <PUBCHEM_IUPAC_INCHI>
InChI=1S/C28H32N4O2S2/c33-36(34,28-21-29-20-22-6-1-2-8-24(22)28)32-13-4-3-7-23(32)11-14-30-15-17-31(18-16-30)26-9-5-10-27-25(26)12-19-35-27/h1-2,5-6,8-10,12,19-21,23H,3-4,7,11,13-18H2/t23-/m1/s1

> <PUBCHEM_IUPAC_INCHIKEY>
LWDHUYPVZPEUAM-HSZRJFAPSA-N

> <PUBCHEM_XLOGP3_AA>
5.2

> <PUBCHEM_EXACT_MASS>
520.19666862

> <PUBCHEM_MOLECULAR_FORMULA>
C28H32N4O2S2

> <PUBCHEM_MOLECULAR_WEIGHT>
520.7

> <PUBCHEM_OPENEYE_CAN_SMILES>
C1CCN(C(C1)CCN2CCN(CC2)C3=C4C=CSC4=CC=C3)S(=O)(=O)C5=CN=CC6=CC=CC=C65

> <PUBCHEM_OPENEYE_ISO_SMILES>
C1CCN([C@H](C1)CCN2CCN(CC2)C3=C4C=CSC4=CC=C3)S(=O)(=O)C5=CN=CC6=CC=CC=C65

> <PUBCHEM_CACTVS_TPSA>
93.4

> <PUBCHEM_MONOISOTOPIC_WEIGHT>
520.19666862

> <PUBCHEM_TOTAL_CHARGE>
0

> <PUBCHEM_HEAVY_ATOM_COUNT>
36

> <PUBCHEM_ATOM_DEF_STEREO_COUNT>
1

> <PUBCHEM_ATOM_UDEF_STEREO_COUNT>
0

> <PUBCHEM_BOND_DEF_STEREO_COUNT>
0

> <PUBCHEM_BOND_UDEF_STEREO_COUNT>
0

> <PUBCHEM_ISOTOPIC_ATOM_COUNT>
0

> <PUBCHEM_COMPONENT_COUNT>
1

> <PUBCHEM_CACTVS_TAUTO_COUNT>
-1

> <PUBCHEM_COORDINATE_TYPE>
1
5
255

> <PUBCHEM_BONDANNOTATIONS>
2  27  8
2  35  8
20  22  8
20  23  8
21  24  8
21  25  8
22  26  8
22  28  8
24  27  8
24  29  8
25  30  8
26  31  8
26  33  8
27  32  8
28  34  8
29  35  8
30  32  8
33  36  8
34  36  8
8  23  8
8  31  8
9  11  6

$$$$
