24879005
  -OEChem-09292322492D

 48 49  0     1  0  0  0  0  0999 V2000
    6.5468    5.0342    0.0000 F   0  0  0  0  0  0  0  0  0  0  0  0
    7.9128    4.6682    0.0000 F   0  0  0  0  0  0  0  0  0  0  0  0
    7.5468    3.3022    0.0000 F   0  0  0  0  0  0  0  0  0  0  0  0
    6.1808    3.6682    0.0000 O   0  0  0  0  0  0  0  0  0  0  0  0
    3.5827   -3.8318    0.0000 N   0  0  0  0  0  0  0  0  0  0  0  0
    5.3147   -1.8318    0.0000 N   0  0  3  0  0  0  0  0  0  0  0  0
    2.6691   -3.4251    0.0000 C   0  0  0  0  0  0  0  0  0  0  0  0
    3.4782   -4.8263    0.0000 C   0  0  0  0  0  0  0  0  0  0  0  0
    2.0000   -4.1682    0.0000 C   0  0  0  0  0  0  0  0  0  0  0  0
    2.5000   -5.0342    0.0000 C   0  0  0  0  0  0  0  0  0  0  0  0
    4.4487   -3.3318    0.0000 C   0  0  0  0  0  0  0  0  0  0  0  0
    4.4487   -2.3318    0.0000 C   0  0  0  0  0  0  0  0  0  0  0  0
    5.3147   -0.8318    0.0000 C   0  0  0  0  0  0  0  0  0  0  0  0
    6.1808   -2.3318    0.0000 C   0  0  0  0  0  0  0  0  0  0  0  0
    6.1808   -0.3318    0.0000 C   0  0  0  0  0  0  0  0  0  0  0  0
    6.1808   -3.3318    0.0000 C   0  0  0  0  0  0  0  0  0  0  0  0
    6.1808    0.6682    0.0000 C   0  0  0  0  0  0  0  0  0  0  0  0
    5.3147    1.1682    0.0000 C   0  0  0  0  0  0  0  0  0  0  0  0
    7.0468    1.1682    0.0000 C   0  0  0  0  0  0  0  0  0  0  0  0
    5.3147    2.1682    0.0000 C   0  0  0  0  0  0  0  0  0  0  0  0
    7.0468    2.1682    0.0000 C   0  0  0  0  0  0  0  0  0  0  0  0
    6.1808    2.6682    0.0000 C   0  0  0  0  0  0  0  0  0  0  0  0
    7.0468    4.1682    0.0000 C   0  0  0  0  0  0  0  0  0  0  0  0
    2.9791   -2.8881    0.0000 H   0  0  0  0  0  0  0  0  0  0  0  0
    2.1675   -3.0606    0.0000 H   0  0  0  0  0  0  0  0  0  0  0  0
    3.5430   -5.4429    0.0000 H   0  0  0  0  0  0  0  0  0  0  0  0
    4.0982   -4.8263    0.0000 H   0  0  0  0  0  0  0  0  0  0  0  0
    1.5851   -3.7074    0.0000 H   0  0  0  0  0  0  0  0  0  0  0  0
    1.4984   -4.5326    0.0000 H   0  0  0  0  0  0  0  0  0  0  0  0
    1.9336   -5.2864    0.0000 H   0  0  0  0  0  0  0  0  0  0  0  0
    2.6916   -5.6239    0.0000 H   0  0  0  0  0  0  0  0  0  0  0  0
    4.6608   -3.9144    0.0000 H   0  0  0  0  0  0  0  0  0  0  0  0
    5.0593   -3.2241    0.0000 H   0  0  0  0  0  0  0  0  0  0  0  0
    4.2366   -1.7492    0.0000 H   0  0  0  0  0  0  0  0  0  0  0  0
    3.8381   -2.4395    0.0000 H   0  0  0  0  0  0  0  0  0  0  0  0
    5.1027   -0.2492    0.0000 H   0  0  0  0  0  0  0  0  0  0  0  0
    4.7042   -0.9395    0.0000 H   0  0  0  0  0  0  0  0  0  0  0  0
    6.7913   -2.4395    0.0000 H   0  0  0  0  0  0  0  0  0  0  0  0
    6.3928   -1.7492    0.0000 H   0  0  0  0  0  0  0  0  0  0  0  0
    6.3928   -0.9144    0.0000 H   0  0  0  0  0  0  0  0  0  0  0  0
    6.7913   -0.2241    0.0000 H   0  0  0  0  0  0  0  0  0  0  0  0
    5.5608   -3.3318    0.0000 H   0  0  0  0  0  0  0  0  0  0  0  0
    6.1808   -3.9518    0.0000 H   0  0  0  0  0  0  0  0  0  0  0  0
    6.8008   -3.3318    0.0000 H   0  0  0  0  0  0  0  0  0  0  0  0
    4.7778    0.8582    0.0000 H   0  0  0  0  0  0  0  0  0  0  0  0
    7.5837    0.8582    0.0000 H   0  0  0  0  0  0  0  0  0  0  0  0
    4.7778    2.4782    0.0000 H   0  0  0  0  0  0  0  0  0  0  0  0
    7.5837    2.4782    0.0000 H   0  0  0  0  0  0  0  0  0  0  0  0
  1 23  1  0  0  0  0
  2 23  1  0  0  0  0
  3 23  1  0  0  0  0
  4 22  1  0  0  0  0
  4 23  1  0  0  0  0
  5  7  1  0  0  0  0
  5  8  1  0  0  0  0
  5 11  1  0  0  0  0
  6 12  1  0  0  0  0
  6 13  1  0  0  0  0
  6 14  1  0  0  0  0
  7  9  1  0  0  0  0
  7 24  1  0  0  0  0
  7 25  1  0  0  0  0
  8 10  1  0  0  0  0
  8 26  1  0  0  0  0
  8 27  1  0  0  0  0
  9 10  1  0  0  0  0
  9 28  1  0  0  0  0
  9 29  1  0  0  0  0
 10 30  1  0  0  0  0
 10 31  1  0  0  0  0
 11 12  1  0  0  0  0
 11 32  1  0  0  0  0
 11 33  1  0  0  0  0
 12 34  1  0  0  0  0
 12 35  1  0  0  0  0
 13 15  1  0  0  0  0
 13 36  1  0  0  0  0
 13 37  1  0  0  0  0
 14 16  1  0  0  0  0
 14 38  1  0  0  0  0
 14 39  1  0  0  0  0
 15 17  1  0  0  0  0
 15 40  1  0  0  0  0
 15 41  1  0  0  0  0
 16 42  1  0  0  0  0
 16 43  1  0  0  0  0
 16 44  1  0  0  0  0
 17 18  2  0  0  0  0
 17 19  1  0  0  0  0
 18 20  1  0  0  0  0
 18 45  1  0  0  0  0
 19 21  2  0  0  0  0
 19 46  1  0  0  0  0
 20 22  2  0  0  0  0
 20 47  1  0  0  0  0
 21 22  1  0  0  0  0
 21 48  1  0  0  0  0
M  END
> <PUBCHEM_COMPOUND_CID>
24879005

> <PUBCHEM_COMPOUND_CANONICALIZED>
1

> <PUBCHEM_CACTVS_COMPLEXITY>
324

> <PUBCHEM_CACTVS_HBOND_ACCEPTOR>
6

> <PUBCHEM_CACTVS_HBOND_DONOR>
0

> <PUBCHEM_CACTVS_ROTATABLE_BOND>
8

> <PUBCHEM_CACTVS_SUBSKEYS>
AAADceB7IYAAAAAAAAAAAAAAAAAAAWAAAAAwAAAAAAAAAAABAAAAHwAAAAAADATBmBQyBoMABACAAiBCAAACCAAgIAAIiAAOCIgMZiKEsRuUMCAkwBGIqAeQwIAOIAAAAAAAAABAAAAAAAAAAAAAAAAAAA==

> <PUBCHEM_IUPAC_OPENEYE_NAME>
N-ethyl-N-(2-pyrrolidin-1-ylethyl)-2-[4-(trifluoromethoxy)phenyl]ethanamine

> <PUBCHEM_IUPAC_CAS_NAME>
N-ethyl-N-[2-(1-pyrrolidinyl)ethyl]-2-[4-(trifluoromethoxy)phenyl]ethanamine

> <PUBCHEM_IUPAC_NAME_MARKUP>
<I>N</I>-ethyl-<I>N</I>-(2-pyrrolidin-1-ylethyl)-2-[4-(trifluoromethoxy)phenyl]ethanamine

> <PUBCHEM_IUPAC_NAME>
N-ethyl-N-(2-pyrrolidin-1-ylethyl)-2-[4-(trifluoromethoxy)phenyl]ethanamine

> <PUBCHEM_IUPAC_SYSTEMATIC_NAME>
N-ethyl-N-(2-pyrrolidin-1-ylethyl)-2-[4-(trifluoromethyloxy)phenyl]ethanamine

> <PUBCHEM_IUPAC_TRADITIONAL_NAME>
ethyl-(2-pyrrolidinoethyl)-[2-[4-(trifluoromethoxy)phenyl]ethyl]amine

> <PUBCHEM_IUPAC_INCHI>
InChI=1S/C17H25F3N2O/c1-2-21(13-14-22-10-3-4-11-22)12-9-15-5-7-16(8-6-15)23-17(18,19)20/h5-8H,2-4,9-14H2,1H3

> <PUBCHEM_IUPAC_INCHIKEY>
RYMGUUFPMNAKMP-UHFFFAOYSA-N

> <PUBCHEM_XLOGP3_AA>
4.3

> <PUBCHEM_EXACT_MASS>
330.19189791

> <PUBCHEM_MOLECULAR_FORMULA>
C17H25F3N2O

> <PUBCHEM_MOLECULAR_WEIGHT>
330.4

> <PUBCHEM_OPENEYE_CAN_SMILES>
CCN(CCC1=CC=C(C=C1)OC(F)(F)F)CCN2CCCC2

> <PUBCHEM_OPENEYE_ISO_SMILES>
CCN(CCC1=CC=C(C=C1)OC(F)(F)F)CCN2CCCC2

> <PUBCHEM_CACTVS_TPSA>
15.7

> <PUBCHEM_MONOISOTOPIC_WEIGHT>
330.19189791

> <PUBCHEM_TOTAL_CHARGE>
0

> <PUBCHEM_HEAVY_ATOM_COUNT>
23

> <PUBCHEM_ATOM_DEF_STEREO_COUNT>
0

> <PUBCHEM_ATOM_UDEF_STEREO_COUNT>
0

> <PUBCHEM_BOND_DEF_STEREO_COUNT>
0

> <PUBCHEM_BOND_UDEF_STEREO_COUNT>
0

> <PUBCHEM_ISOTOPIC_ATOM_COUNT>
0

> <PUBCHEM_COMPONENT_COUNT>
1

> <PUBCHEM_CACTVS_TAUTO_COUNT>
-1

> <PUBCHEM_COORDINATE_TYPE>
1
5
255

> <PUBCHEM_BONDANNOTATIONS>
17  18  8
17  19  8
18  20  8
19  21  8
20  22  8
21  22  8

$$$$
