71151591
  -OEChem-09292322352D

 67 71  0     0  0  0  0  0  0999 V2000
    9.6113   -6.8282    0.0000 F   0  0  0  0  0  0  0  0  0  0  0  0
    5.1350    3.8282    0.0000 O   0  0  0  0  0  0  0  0  0  0  0  0
    3.4030    3.8282    0.0000 O   0  0  0  0  0  0  0  0  0  0  0  0
    6.8671    0.8281    0.0000 N   0  0  0  0  0  0  0  0  0  0  0  0
    6.8671   -1.1718    0.0000 N   0  0  0  0  0  0  0  0  0  0  0  0
    8.6793   -3.9766    0.0000 N   0  0  0  0  0  0  0  0  0  0  0  0
    2.5369    5.3282    0.0000 N   0  0  0  0  0  0  0  0  0  0  0  0
    7.7331    0.3281    0.0000 C   0  0  0  0  0  0  0  0  0  0  0  0
    6.0010    0.3281    0.0000 C   0  0  0  0  0  0  0  0  0  0  0  0
    7.7331   -0.6719    0.0000 C   0  0  0  0  0  0  0  0  0  0  0  0
    6.0010   -0.6719    0.0000 C   0  0  0  0  0  0  0  0  0  0  0  0
    6.8671    1.8282    0.0000 C   0  0  0  0  0  0  0  0  0  0  0  0
    6.8671   -2.1718    0.0000 C   0  0  0  0  0  0  0  0  0  0  0  0
    7.7331   -2.6718    0.0000 C   0  0  0  0  0  0  0  0  0  0  0  0
    6.0010    2.3282    0.0000 C   0  0  0  0  0  0  0  0  0  0  0  0
    7.7331   -3.6718    0.0000 C   0  0  0  0  0  0  0  0  0  0  0  0
    6.0010   -2.6718    0.0000 C   0  0  0  0  0  0  0  0  0  0  0  0
    8.6793   -2.3671    0.0000 C   0  0  0  0  0  0  0  0  0  0  0  0
    6.0010    3.3282    0.0000 C   0  0  0  0  0  0  0  0  0  0  0  0
    6.8671   -4.1718    0.0000 C   0  0  0  0  0  0  0  0  0  0  0  0
    9.2629   -3.1718    0.0000 C   0  0  0  0  0  0  0  0  0  0  0  0
    6.0010   -3.6718    0.0000 C   0  0  0  0  0  0  0  0  0  0  0  0
    8.9900   -4.9271    0.0000 C   0  0  0  0  0  0  0  0  0  0  0  0
    9.9685   -5.1333    0.0000 C   0  0  0  0  0  0  0  0  0  0  0  0
   10.2791   -6.0838    0.0000 C   0  0  0  0  0  0  0  0  0  0  0  0
   10.6363   -4.3890    0.0000 C   0  0  0  0  0  0  0  0  0  0  0  0
    5.1350    4.8282    0.0000 C   0  0  0  0  0  0  0  0  0  0  0  0
   11.2576   -6.2901    0.0000 C   0  0  0  0  0  0  0  0  0  0  0  0
   11.6148   -4.5952    0.0000 C   0  0  0  0  0  0  0  0  0  0  0  0
    4.2690    5.3282    0.0000 C   0  0  0  0  0  0  0  0  0  0  0  0
    6.0010    5.3282    0.0000 C   0  0  0  0  0  0  0  0  0  0  0  0
   11.9255   -5.5458    0.0000 C   0  0  0  0  0  0  0  0  0  0  0  0
    4.2690    6.3282    0.0000 C   0  0  0  0  0  0  0  0  0  0  0  0
    6.0010    6.3282    0.0000 C   0  0  0  0  0  0  0  0  0  0  0  0
    5.1350    6.8282    0.0000 C   0  0  0  0  0  0  0  0  0  0  0  0
    3.4030    4.8282    0.0000 C   0  0  0  0  0  0  0  0  0  0  0  0
    8.3437    0.2205    0.0000 H   0  0  0  0  0  0  0  0  0  0  0  0
    7.9451    0.9108    0.0000 H   0  0  0  0  0  0  0  0  0  0  0  0
    5.7890    0.9108    0.0000 H   0  0  0  0  0  0  0  0  0  0  0  0
    5.3905    0.2205    0.0000 H   0  0  0  0  0  0  0  0  0  0  0  0
    7.9451   -1.2545    0.0000 H   0  0  0  0  0  0  0  0  0  0  0  0
    8.3437   -0.5642    0.0000 H   0  0  0  0  0  0  0  0  0  0  0  0
    5.3905   -0.5642    0.0000 H   0  0  0  0  0  0  0  0  0  0  0  0
    5.7890   -1.2545    0.0000 H   0  0  0  0  0  0  0  0  0  0  0  0
    7.4776    1.7205    0.0000 H   0  0  0  0  0  0  0  0  0  0  0  0
    7.0791    2.4108    0.0000 H   0  0  0  0  0  0  0  0  0  0  0  0
    5.3905    2.4358    0.0000 H   0  0  0  0  0  0  0  0  0  0  0  0
    5.7890    1.7455    0.0000 H   0  0  0  0  0  0  0  0  0  0  0  0
    5.4641   -2.3618    0.0000 H   0  0  0  0  0  0  0  0  0  0  0  0
    8.8719   -1.7778    0.0000 H   0  0  0  0  0  0  0  0  0  0  0  0
    6.6116    3.2205    0.0000 H   0  0  0  0  0  0  0  0  0  0  0  0
    6.2131    3.9108    0.0000 H   0  0  0  0  0  0  0  0  0  0  0  0
    6.8671   -4.7918    0.0000 H   0  0  0  0  0  0  0  0  0  0  0  0
    9.8829   -3.1718    0.0000 H   0  0  0  0  0  0  0  0  0  0  0  0
    5.4641   -3.9818    0.0000 H   0  0  0  0  0  0  0  0  0  0  0  0
    8.3762   -5.0145    0.0000 H   0  0  0  0  0  0  0  0  0  0  0  0
    8.9694   -5.5468    0.0000 H   0  0  0  0  0  0  0  0  0  0  0  0
   10.4437   -3.7997    0.0000 H   0  0  0  0  0  0  0  0  0  0  0  0
   11.4503   -6.8794    0.0000 H   0  0  0  0  0  0  0  0  0  0  0  0
   12.0289   -4.1338    0.0000 H   0  0  0  0  0  0  0  0  0  0  0  0
    6.5380    5.0182    0.0000 H   0  0  0  0  0  0  0  0  0  0  0  0
   12.5322   -5.6736    0.0000 H   0  0  0  0  0  0  0  0  0  0  0  0
    3.7320    6.6382    0.0000 H   0  0  0  0  0  0  0  0  0  0  0  0
    6.5380    6.6382    0.0000 H   0  0  0  0  0  0  0  0  0  0  0  0
    5.1350    7.4482    0.0000 H   0  0  0  0  0  0  0  0  0  0  0  0
    2.0000    5.0182    0.0000 H   0  0  0  0  0  0  0  0  0  0  0  0
    2.5369    5.9482    0.0000 H   0  0  0  0  0  0  0  0  0  0  0  0
  1 25  1  0  0  0  0
  2 19  1  0  0  0  0
  2 27  1  0  0  0  0
  3 36  2  0  0  0  0
  4  8  1  0  0  0  0
  4  9  1  0  0  0  0
  4 12  1  0  0  0  0
  5 10  1  0  0  0  0
  5 11  1  0  0  0  0
  5 13  1  0  0  0  0
  6 16  1  0  0  0  0
  6 21  1  0  0  0  0
  6 23  1  0  0  0  0
  7 36  1  0  0  0  0
  7 66  1  0  0  0  0
  7 67  1  0  0  0  0
  8 10  1  0  0  0  0
  8 37  1  0  0  0  0
  8 38  1  0  0  0  0
  9 11  1  0  0  0  0
  9 39  1  0  0  0  0
  9 40  1  0  0  0  0
 10 41  1  0  0  0  0
 10 42  1  0  0  0  0
 11 43  1  0  0  0  0
 11 44  1  0  0  0  0
 12 15  1  0  0  0  0
 12 45  1  0  0  0  0
 12 46  1  0  0  0  0
 13 14  1  0  0  0  0
 13 17  2  0  0  0  0
 14 16  2  0  0  0  0
 14 18  1  0  0  0  0
 15 19  1  0  0  0  0
 15 47  1  0  0  0  0
 15 48  1  0  0  0  0
 16 20  1  0  0  0  0
 17 22  1  0  0  0  0
 17 49  1  0  0  0  0
 18 21  2  0  0  0  0
 18 50  1  0  0  0  0
 19 51  1  0  0  0  0
 19 52  1  0  0  0  0
 20 22  2  0  0  0  0
 20 53  1  0  0  0  0
 21 54  1  0  0  0  0
 22 55  1  0  0  0  0
 23 24  1  0  0  0  0
 23 56  1  0  0  0  0
 23 57  1  0  0  0  0
 24 25  1  0  0  0  0
 24 26  2  0  0  0  0
 25 28  2  0  0  0  0
 26 29  1  0  0  0  0
 26 58  1  0  0  0  0
 27 30  1  0  0  0  0
 27 31  2  0  0  0  0
 28 32  1  0  0  0  0
 28 59  1  0  0  0  0
 29 32  2  0  0  0  0
 29 60  1  0  0  0  0
 30 33  2  0  0  0  0
 30 36  1  0  0  0  0
 31 34  1  0  0  0  0
 31 61  1  0  0  0  0
 32 62  1  0  0  0  0
 33 35  1  0  0  0  0
 33 63  1  0  0  0  0
 34 35  2  0  0  0  0
 34 64  1  0  0  0  0
 35 65  1  0  0  0  0
M  END
> <PUBCHEM_COMPOUND_CID>
71151591

> <PUBCHEM_COMPOUND_CANONICALIZED>
1

> <PUBCHEM_CACTVS_COMPLEXITY>
703

> <PUBCHEM_CACTVS_HBOND_ACCEPTOR>
5

> <PUBCHEM_CACTVS_HBOND_DONOR>
1

> <PUBCHEM_CACTVS_ROTATABLE_BOND>
9

> <PUBCHEM_CACTVS_SUBSKEYS>
AAADceB7sQAAAAAAAAAAAAAAAAAAAWAAAAA8YMEAAAAAAFgB9AAAHwAQAAAADAzhng48xvNMFACoAzV3VACCiCA1IiAI2CE+bNgMZvbE9duWPWjm4BHI6YeYyKCOAAAAAAQKAAAAAAAACBQAAAAAAAAAAA==

> <PUBCHEM_IUPAC_OPENEYE_NAME>
2-[3-[4-[1-[(2-fluorophenyl)methyl]indol-4-yl]piperazin-1-yl]propoxy]benzamide

> <PUBCHEM_IUPAC_CAS_NAME>
2-[3-[4-[1-[(2-fluorophenyl)methyl]-4-indolyl]-1-piperazinyl]propoxy]benzamide

> <PUBCHEM_IUPAC_NAME_MARKUP>
2-[3-[4-[1-[(2-fluorophenyl)methyl]indol-4-yl]piperazin-1-yl]propoxy]benzamide

> <PUBCHEM_IUPAC_NAME>
2-[3-[4-[1-[(2-fluorophenyl)methyl]indol-4-yl]piperazin-1-yl]propoxy]benzamide

> <PUBCHEM_IUPAC_SYSTEMATIC_NAME>
2-[3-[4-[1-[(2-fluorophenyl)methyl]indol-4-yl]piperazin-1-yl]propoxy]benzamide

> <PUBCHEM_IUPAC_TRADITIONAL_NAME>
2-[3-[4-[1-(2-fluorobenzyl)indol-4-yl]piperazino]propoxy]benzamide

> <PUBCHEM_IUPAC_INCHI>
InChI=1S/C29H31FN4O2/c30-25-9-3-1-7-22(25)21-34-15-13-23-26(10-5-11-27(23)34)33-18-16-32(17-19-33)14-6-20-36-28-12-4-2-8-24(28)29(31)35/h1-5,7-13,15H,6,14,16-21H2,(H2,31,35)

> <PUBCHEM_IUPAC_INCHIKEY>
UPCMRVZQJLKQQG-UHFFFAOYSA-N

> <PUBCHEM_XLOGP3_AA>
4.5

> <PUBCHEM_EXACT_MASS>
486.24310441

> <PUBCHEM_MOLECULAR_FORMULA>
C29H31FN4O2

> <PUBCHEM_MOLECULAR_WEIGHT>
486.6

> <PUBCHEM_OPENEYE_CAN_SMILES>
C1CN(CCN1CCCOC2=CC=CC=C2C(=O)N)C3=CC=CC4=C3C=CN4CC5=CC=CC=C5F

> <PUBCHEM_OPENEYE_ISO_SMILES>
C1CN(CCN1CCCOC2=CC=CC=C2C(=O)N)C3=CC=CC4=C3C=CN4CC5=CC=CC=C5F

> <PUBCHEM_CACTVS_TPSA>
63.7

> <PUBCHEM_MONOISOTOPIC_WEIGHT>
486.24310441

> <PUBCHEM_TOTAL_CHARGE>
0

> <PUBCHEM_HEAVY_ATOM_COUNT>
36

> <PUBCHEM_ATOM_DEF_STEREO_COUNT>
0

> <PUBCHEM_ATOM_UDEF_STEREO_COUNT>
0

> <PUBCHEM_BOND_DEF_STEREO_COUNT>
0

> <PUBCHEM_BOND_UDEF_STEREO_COUNT>
0

> <PUBCHEM_ISOTOPIC_ATOM_COUNT>
0

> <PUBCHEM_COMPONENT_COUNT>
1

> <PUBCHEM_CACTVS_TAUTO_COUNT>
-1

> <PUBCHEM_COORDINATE_TYPE>
1
5
255

> <PUBCHEM_BONDANNOTATIONS>
13  14  8
13  17  8
14  16  8
14  18  8
16  20  8
17  22  8
18  21  8
20  22  8
24  25  8
24  26  8
25  28  8
26  29  8
27  30  8
27  31  8
28  32  8
29  32  8
30  33  8
31  34  8
33  35  8
34  35  8
6  16  8
6  21  8

$$$$
