90645295
  -OEChem-09292322352D

 63 64  0     0  0  0  0  0  0999 V2000
    9.1962    6.9151    0.0000 Cl  0  0  0  0  0  0  0  0  0  0  0  0
    6.6962    4.3170    0.0000 O   0  0  0  0  0  0  0  0  0  0  0  0
    3.7320   -5.5490    0.0000 O   0  0  0  0  0  0  0  0  0  0  0  0
    2.8660   -4.0490    0.0000 O   0  0  0  0  0  0  0  0  0  0  0  0
    7.1962    1.4510    0.0000 N   0  0  0  0  0  0  0  0  0  0  0  0
    4.5981   -4.0490    0.0000 N   0  0  0  0  0  0  0  0  0  0  0  0
    7.1962    3.4510    0.0000 C   0  0  0  0  0  0  0  0  0  0  0  0
    6.3301    2.9510    0.0000 C   0  0  0  0  0  0  0  0  0  0  0  0
    8.0622    2.9510    0.0000 C   0  0  0  0  0  0  0  0  0  0  0  0
    6.3301    1.9510    0.0000 C   0  0  0  0  0  0  0  0  0  0  0  0
    8.0622    1.9510    0.0000 C   0  0  0  0  0  0  0  0  0  0  0  0
    7.1962    0.4510    0.0000 C   0  0  0  0  0  0  0  0  0  0  0  0
    7.6962    4.3170    0.0000 C   0  0  0  0  0  0  0  0  0  0  0  0
    6.3301   -0.0490    0.0000 C   0  0  0  0  0  0  0  0  0  0  0  0
    6.3301   -1.0490    0.0000 C   0  0  0  0  0  0  0  0  0  0  0  0
    7.1962    5.1830    0.0000 C   0  0  0  0  0  0  0  0  0  0  0  0
    8.6962    4.3170    0.0000 C   0  0  0  0  0  0  0  0  0  0  0  0
    5.4641   -1.5490    0.0000 C   0  0  0  0  0  0  0  0  0  0  0  0
    5.4641   -2.5490    0.0000 C   0  0  0  0  0  0  0  0  0  0  0  0
    7.6962    6.0490    0.0000 C   0  0  0  0  0  0  0  0  0  0  0  0
    9.1962    5.1830    0.0000 C   0  0  0  0  0  0  0  0  0  0  0  0
    8.6962    6.0490    0.0000 C   0  0  0  0  0  0  0  0  0  0  0  0
    4.5981   -3.0490    0.0000 C   0  0  0  0  0  0  0  0  0  0  0  0
    2.8660   -6.0490    0.0000 C   0  0  0  0  0  0  0  0  0  0  0  0
    3.7320   -4.5490    0.0000 C   0  0  0  0  0  0  0  0  0  0  0  0
    2.0000   -6.5490    0.0000 C   0  0  0  0  0  0  0  0  0  0  0  0
    3.3660   -6.9151    0.0000 C   0  0  0  0  0  0  0  0  0  0  0  0
    2.3660   -5.1830    0.0000 C   0  0  0  0  0  0  0  0  0  0  0  0
    6.1181    3.5336    0.0000 H   0  0  0  0  0  0  0  0  0  0  0  0
    5.7196    2.8433    0.0000 H   0  0  0  0  0  0  0  0  0  0  0  0
    8.6728    2.8433    0.0000 H   0  0  0  0  0  0  0  0  0  0  0  0
    8.2742    3.5336    0.0000 H   0  0  0  0  0  0  0  0  0  0  0  0
    5.7196    2.0586    0.0000 H   0  0  0  0  0  0  0  0  0  0  0  0
    6.1181    1.3684    0.0000 H   0  0  0  0  0  0  0  0  0  0  0  0
    8.2742    1.3684    0.0000 H   0  0  0  0  0  0  0  0  0  0  0  0
    8.6728    2.0586    0.0000 H   0  0  0  0  0  0  0  0  0  0  0  0
    7.4082   -0.1316    0.0000 H   0  0  0  0  0  0  0  0  0  0  0  0
    7.8067    0.5586    0.0000 H   0  0  0  0  0  0  0  0  0  0  0  0
    6.1181    0.5336    0.0000 H   0  0  0  0  0  0  0  0  0  0  0  0
    5.7196   -0.1567    0.0000 H   0  0  0  0  0  0  0  0  0  0  0  0
    6.0762    4.3170    0.0000 H   0  0  0  0  0  0  0  0  0  0  0  0
    6.5422   -1.6316    0.0000 H   0  0  0  0  0  0  0  0  0  0  0  0
    6.9407   -0.9414    0.0000 H   0  0  0  0  0  0  0  0  0  0  0  0
    6.5762    5.1830    0.0000 H   0  0  0  0  0  0  0  0  0  0  0  0
    9.0062    3.7800    0.0000 H   0  0  0  0  0  0  0  0  0  0  0  0
    5.2520   -0.9664    0.0000 H   0  0  0  0  0  0  0  0  0  0  0  0
    4.8535   -1.6567    0.0000 H   0  0  0  0  0  0  0  0  0  0  0  0
    5.6762   -3.1316    0.0000 H   0  0  0  0  0  0  0  0  0  0  0  0
    6.0747   -2.4414    0.0000 H   0  0  0  0  0  0  0  0  0  0  0  0
    7.3862    6.5860    0.0000 H   0  0  0  0  0  0  0  0  0  0  0  0
    9.8162    5.1830    0.0000 H   0  0  0  0  0  0  0  0  0  0  0  0
    4.3860   -2.4664    0.0000 H   0  0  0  0  0  0  0  0  0  0  0  0
    3.9875   -3.1567    0.0000 H   0  0  0  0  0  0  0  0  0  0  0  0
    5.1350   -4.3590    0.0000 H   0  0  0  0  0  0  0  0  0  0  0  0
    1.6900   -6.0121    0.0000 H   0  0  0  0  0  0  0  0  0  0  0  0
    1.4631   -6.8590    0.0000 H   0  0  0  0  0  0  0  0  0  0  0  0
    2.3100   -7.0860    0.0000 H   0  0  0  0  0  0  0  0  0  0  0  0
    2.8291   -7.2251    0.0000 H   0  0  0  0  0  0  0  0  0  0  0  0
    3.6760   -7.4520    0.0000 H   0  0  0  0  0  0  0  0  0  0  0  0
    3.9030   -6.6051    0.0000 H   0  0  0  0  0  0  0  0  0  0  0  0
    2.9030   -4.8730    0.0000 H   0  0  0  0  0  0  0  0  0  0  0  0
    2.0560   -4.6461    0.0000 H   0  0  0  0  0  0  0  0  0  0  0  0
    1.8291   -5.4930    0.0000 H   0  0  0  0  0  0  0  0  0  0  0  0
  1 22  1  0  0  0  0
  2  7  1  0  0  0  0
  2 41  1  0  0  0  0
  3 24  1  0  0  0  0
  3 25  1  0  0  0  0
  4 25  2  0  0  0  0
  5 10  1  0  0  0  0
  5 11  1  0  0  0  0
  5 12  1  0  0  0  0
  6 23  1  0  0  0  0
  6 25  1  0  0  0  0
  6 54  1  0  0  0  0
  7  8  1  0  0  0  0
  7  9  1  0  0  0  0
  7 13  1  0  0  0  0
  8 10  1  0  0  0  0
  8 29  1  0  0  0  0
  8 30  1  0  0  0  0
  9 11  1  0  0  0  0
  9 31  1  0  0  0  0
  9 32  1  0  0  0  0
 10 33  1  0  0  0  0
 10 34  1  0  0  0  0
 11 35  1  0  0  0  0
 11 36  1  0  0  0  0
 12 14  1  0  0  0  0
 12 37  1  0  0  0  0
 12 38  1  0  0  0  0
 13 16  2  0  0  0  0
 13 17  1  0  0  0  0
 14 15  1  0  0  0  0
 14 39  1  0  0  0  0
 14 40  1  0  0  0  0
 15 18  1  0  0  0  0
 15 42  1  0  0  0  0
 15 43  1  0  0  0  0
 16 20  1  0  0  0  0
 16 44  1  0  0  0  0
 17 21  2  0  0  0  0
 17 45  1  0  0  0  0
 18 19  1  0  0  0  0
 18 46  1  0  0  0  0
 18 47  1  0  0  0  0
 19 23  1  0  0  0  0
 19 48  1  0  0  0  0
 19 49  1  0  0  0  0
 20 22  2  0  0  0  0
 20 50  1  0  0  0  0
 21 22  1  0  0  0  0
 21 51  1  0  0  0  0
 23 52  1  0  0  0  0
 23 53  1  0  0  0  0
 24 26  1  0  0  0  0
 24 27  1  0  0  0  0
 24 28  1  0  0  0  0
 26 55  1  0  0  0  0
 26 56  1  0  0  0  0
 26 57  1  0  0  0  0
 27 58  1  0  0  0  0
 27 59  1  0  0  0  0
 27 60  1  0  0  0  0
 28 61  1  0  0  0  0
 28 62  1  0  0  0  0
 28 63  1  0  0  0  0
M  END
> <PUBCHEM_COMPOUND_CID>
90645295

> <PUBCHEM_COMPOUND_CANONICALIZED>
1

> <PUBCHEM_CACTVS_COMPLEXITY>
465

> <PUBCHEM_CACTVS_HBOND_ACCEPTOR>
4

> <PUBCHEM_CACTVS_HBOND_DONOR>
2

> <PUBCHEM_CACTVS_ROTATABLE_BOND>
10

> <PUBCHEM_CACTVS_SUBSKEYS>
AAADcfB7MAAEAAAAAAAAAAAAAAAAAAAAAAA8QAAAAAAAAAABAAAAHgIQCAAADEbBmCQyCIPABgCIAiBCGAACAAAgBQAIiIAICokIJiKBkxCMcAAm1gGImAeQwOAOhAAAAAAAAAAIAAAAAAAAAAAAAAAAAA==

> <PUBCHEM_IUPAC_OPENEYE_NAME>
tert-butyl N-[6-[4-(4-chlorophenyl)-4-hydroxy-1-piperidyl]hexyl]carbamate

> <PUBCHEM_IUPAC_CAS_NAME>
N-[6-[4-(4-chlorophenyl)-4-hydroxy-1-piperidinyl]hexyl]carbamic acid tert-butyl ester

> <PUBCHEM_IUPAC_NAME_MARKUP>
<I>tert</I>-butyl <I>N</I>-[6-[4-(4-chlorophenyl)-4-hydroxypiperidin-1-yl]hexyl]carbamate

> <PUBCHEM_IUPAC_NAME>
tert-butyl N-[6-[4-(4-chlorophenyl)-4-hydroxypiperidin-1-yl]hexyl]carbamate

> <PUBCHEM_IUPAC_SYSTEMATIC_NAME>
tert-butyl N-[6-[4-(4-chlorophenyl)-4-oxidanyl-piperidin-1-yl]hexyl]carbamate

> <PUBCHEM_IUPAC_TRADITIONAL_NAME>
N-[6-[4-(4-chlorophenyl)-4-hydroxy-piperidino]hexyl]carbamic acid tert-butyl ester

> <PUBCHEM_IUPAC_INCHI>
InChI=1S/C22H35ClN2O3/c1-21(2,3)28-20(26)24-14-6-4-5-7-15-25-16-12-22(27,13-17-25)18-8-10-19(23)11-9-18/h8-11,27H,4-7,12-17H2,1-3H3,(H,24,26)

> <PUBCHEM_IUPAC_INCHIKEY>
TUZNGRNEPJAFOL-UHFFFAOYSA-N

> <PUBCHEM_XLOGP3_AA>
4.2

> <PUBCHEM_EXACT_MASS>
410.2336207

> <PUBCHEM_MOLECULAR_FORMULA>
C22H35ClN2O3

> <PUBCHEM_MOLECULAR_WEIGHT>
411.0

> <PUBCHEM_OPENEYE_CAN_SMILES>
CC(C)(C)OC(=O)NCCCCCCN1CCC(CC1)(C2=CC=C(C=C2)Cl)O

> <PUBCHEM_OPENEYE_ISO_SMILES>
CC(C)(C)OC(=O)NCCCCCCN1CCC(CC1)(C2=CC=C(C=C2)Cl)O

> <PUBCHEM_CACTVS_TPSA>
61.8

> <PUBCHEM_MONOISOTOPIC_WEIGHT>
410.2336207

> <PUBCHEM_TOTAL_CHARGE>
0

> <PUBCHEM_HEAVY_ATOM_COUNT>
28

> <PUBCHEM_ATOM_DEF_STEREO_COUNT>
0

> <PUBCHEM_ATOM_UDEF_STEREO_COUNT>
0

> <PUBCHEM_BOND_DEF_STEREO_COUNT>
0

> <PUBCHEM_BOND_UDEF_STEREO_COUNT>
0

> <PUBCHEM_ISOTOPIC_ATOM_COUNT>
0

> <PUBCHEM_COMPONENT_COUNT>
1

> <PUBCHEM_CACTVS_TAUTO_COUNT>
-1

> <PUBCHEM_COORDINATE_TYPE>
1
5
255

> <PUBCHEM_BONDANNOTATIONS>
13  16  8
13  17  8
16  20  8
17  21  8
20  22  8
21  22  8

$$$$
