137644966
  -OEChem-09292322002D

 53 56  0     0  0  0  0  0  0999 V2000
    4.5981   -2.1029    0.0000 Cl  0  0  0  0  0  0  0  0  0  0  0  0
    2.8660   -3.1029    0.0000 Cl  0  0  0  0  0  0  0  0  0  0  0  0
    9.7942   -0.1029    0.0000 O   0  0  0  0  0  0  0  0  0  0  0  0
    6.3301    0.8971    0.0000 N   0  0  0  0  0  0  0  0  0  0  0  0
    4.5981   -0.1029    0.0000 N   0  0  0  0  0  0  0  0  0  0  0  0
   10.6603    1.3971    0.0000 N   0  0  0  0  0  0  0  0  0  0  0  0
   13.2583   -0.1029    0.0000 N   0  0  0  0  0  0  0  0  0  0  0  0
   14.2045   -0.4076    0.0000 N   0  0  0  0  0  0  0  0  0  0  0  0
   14.8259    3.1029    0.0000 N   0  0  0  0  0  0  0  0  0  0  0  0
    5.4641    1.3971    0.0000 C   0  0  0  0  0  0  0  0  0  0  0  0
    6.3301   -0.1029    0.0000 C   0  0  0  0  0  0  0  0  0  0  0  0
    4.5981    0.8971    0.0000 C   0  0  0  0  0  0  0  0  0  0  0  0
    5.4641   -0.6029    0.0000 C   0  0  0  0  0  0  0  0  0  0  0  0
    7.1962    1.3971    0.0000 C   0  0  0  0  0  0  0  0  0  0  0  0
    8.0622    0.8971    0.0000 C   0  0  0  0  0  0  0  0  0  0  0  0
    3.7320   -0.6029    0.0000 C   0  0  0  0  0  0  0  0  0  0  0  0
    8.9282    1.3971    0.0000 C   0  0  0  0  0  0  0  0  0  0  0  0
    3.7320   -1.6029    0.0000 C   0  0  0  0  0  0  0  0  0  0  0  0
    2.8660   -0.1029    0.0000 C   0  0  0  0  0  0  0  0  0  0  0  0
    9.7942    0.8971    0.0000 C   0  0  0  0  0  0  0  0  0  0  0  0
    2.8660   -2.1029    0.0000 C   0  0  0  0  0  0  0  0  0  0  0  0
    2.0000   -0.6029    0.0000 C   0  0  0  0  0  0  0  0  0  0  0  0
    2.0000   -1.6029    0.0000 C   0  0  0  0  0  0  0  0  0  0  0  0
   11.5263    0.8971    0.0000 C   0  0  0  0  0  0  0  0  0  0  0  0
   12.3923    1.3971    0.0000 C   0  0  0  0  0  0  0  0  0  0  0  0
   13.2583    0.8971    0.0000 C   0  0  0  0  0  0  0  0  0  0  0  0
   11.5263   -0.1029    0.0000 C   0  0  0  0  0  0  0  0  0  0  0  0
   12.3923   -0.6029    0.0000 C   0  0  0  0  0  0  0  0  0  0  0  0
   14.2045    1.2018    0.0000 C   0  0  0  0  0  0  0  0  0  0  0  0
   14.7882    0.3971    0.0000 C   0  0  0  0  0  0  0  0  0  0  0  0
   14.5152    2.1524    0.0000 C   0  0  0  0  0  0  0  0  0  0  0  0
    5.8626    1.8721    0.0000 H   0  0  0  0  0  0  0  0  0  0  0  0
    5.0656    1.8721    0.0000 H   0  0  0  0  0  0  0  0  0  0  0  0
    6.5422   -0.6855    0.0000 H   0  0  0  0  0  0  0  0  0  0  0  0
    6.9407    0.0048    0.0000 H   0  0  0  0  0  0  0  0  0  0  0  0
    4.3860    1.4797    0.0000 H   0  0  0  0  0  0  0  0  0  0  0  0
    3.9875    0.7895    0.0000 H   0  0  0  0  0  0  0  0  0  0  0  0
    5.0656   -1.0778    0.0000 H   0  0  0  0  0  0  0  0  0  0  0  0
    5.8626   -1.0778    0.0000 H   0  0  0  0  0  0  0  0  0  0  0  0
    7.5947    1.8721    0.0000 H   0  0  0  0  0  0  0  0  0  0  0  0
    6.7976    1.8721    0.0000 H   0  0  0  0  0  0  0  0  0  0  0  0
    7.6636    0.4222    0.0000 H   0  0  0  0  0  0  0  0  0  0  0  0
    8.4607    0.4222    0.0000 H   0  0  0  0  0  0  0  0  0  0  0  0
    9.3267    1.8721    0.0000 H   0  0  0  0  0  0  0  0  0  0  0  0
    8.5297    1.8721    0.0000 H   0  0  0  0  0  0  0  0  0  0  0  0
    2.8660    0.5171    0.0000 H   0  0  0  0  0  0  0  0  0  0  0  0
    1.4631   -0.2929    0.0000 H   0  0  0  0  0  0  0  0  0  0  0  0
   10.6603    2.0171    0.0000 H   0  0  0  0  0  0  0  0  0  0  0  0
    1.4631   -1.9129    0.0000 H   0  0  0  0  0  0  0  0  0  0  0  0
   12.3923    2.0171    0.0000 H   0  0  0  0  0  0  0  0  0  0  0  0
   10.9893   -0.4129    0.0000 H   0  0  0  0  0  0  0  0  0  0  0  0
   12.3923   -1.2229    0.0000 H   0  0  0  0  0  0  0  0  0  0  0  0
   15.4082    0.3971    0.0000 H   0  0  0  0  0  0  0  0  0  0  0  0
  1 18  1  0  0  0  0
  2 21  1  0  0  0  0
  3 20  2  0  0  0  0
  4 10  1  0  0  0  0
  4 11  1  0  0  0  0
  4 14  1  0  0  0  0
  5 12  1  0  0  0  0
  5 13  1  0  0  0  0
  5 16  1  0  0  0  0
  6 20  1  0  0  0  0
  6 24  1  0  0  0  0
  6 48  1  0  0  0  0
  7  8  1  0  0  0  0
  7 26  1  0  0  0  0
  7 28  1  0  0  0  0
  8 30  2  0  0  0  0
  9 31  3  0  0  0  0
 10 12  1  0  0  0  0
 10 32  1  0  0  0  0
 10 33  1  0  0  0  0
 11 13  1  0  0  0  0
 11 34  1  0  0  0  0
 11 35  1  0  0  0  0
 12 36  1  0  0  0  0
 12 37  1  0  0  0  0
 13 38  1  0  0  0  0
 13 39  1  0  0  0  0
 14 15  1  0  0  0  0
 14 40  1  0  0  0  0
 14 41  1  0  0  0  0
 15 17  1  0  0  0  0
 15 42  1  0  0  0  0
 15 43  1  0  0  0  0
 16 18  2  0  0  0  0
 16 19  1  0  0  0  0
 17 20  1  0  0  0  0
 17 44  1  0  0  0  0
 17 45  1  0  0  0  0
 18 21  1  0  0  0  0
 19 22  2  0  0  0  0
 19 46  1  0  0  0  0
 21 23  2  0  0  0  0
 22 23  1  0  0  0  0
 22 47  1  0  0  0  0
 23 49  1  0  0  0  0
 24 25  2  0  0  0  0
 24 27  1  0  0  0  0
 25 26  1  0  0  0  0
 25 50  1  0  0  0  0
 26 29  2  0  0  0  0
 27 28  2  0  0  0  0
 27 51  1  0  0  0  0
 28 52  1  0  0  0  0
 29 30  1  0  0  0  0
 29 31  1  0  0  0  0
 30 53  1  0  0  0  0
M  END
> <PUBCHEM_COMPOUND_CID>
137644966

> <PUBCHEM_COMPOUND_CANONICALIZED>
1

> <PUBCHEM_CACTVS_COMPLEXITY>
664

> <PUBCHEM_CACTVS_HBOND_ACCEPTOR>
5

> <PUBCHEM_CACTVS_HBOND_DONOR>
1

> <PUBCHEM_CACTVS_ROTATABLE_BOND>
6

> <PUBCHEM_CACTVS_SUBSKEYS>
AAADceB7oAAGAAAAAAAAAAAAAAAAAWAAAAA8WIAAAAAAAFgB8AAAHgIYAAAADArBniQ8wLPIEAC6BzV3VACyhCAxhyAY2mE4ZpgI4PLB09HUpAhgnADIyA8UgEAMAAAAAAIAABQAAAAABAAAKAAAAAAAAA==

> <PUBCHEM_IUPAC_OPENEYE_NAME>
N-(3-cyanopyrazolo[1,5-a]pyridin-5-yl)-4-[4-(2,3-dichlorophenyl)piperazin-1-yl]butanamide

> <PUBCHEM_IUPAC_CAS_NAME>
N-(3-cyano-5-pyrazolo[1,5-a]pyridinyl)-4-[4-(2,3-dichlorophenyl)-1-piperazinyl]butanamide

> <PUBCHEM_IUPAC_NAME_MARKUP>
<I>N</I>-(3-cyanopyrazolo[1,5-a]pyridin-5-yl)-4-[4-(2,3-dichlorophenyl)piperazin-1-yl]butanamide

> <PUBCHEM_IUPAC_NAME>
N-(3-cyanopyrazolo[1,5-a]pyridin-5-yl)-4-[4-(2,3-dichlorophenyl)piperazin-1-yl]butanamide

> <PUBCHEM_IUPAC_SYSTEMATIC_NAME>
4-[4-[2,3-bis(chloranyl)phenyl]piperazin-1-yl]-N-(3-cyanopyrazolo[1,5-a]pyridin-5-yl)butanamide

> <PUBCHEM_IUPAC_TRADITIONAL_NAME>
N-(3-cyanopyrazolo[1,5-a]pyridin-5-yl)-4-[4-(2,3-dichlorophenyl)piperazino]butyramide

> <PUBCHEM_IUPAC_INCHI>
InChI=1S/C22H22Cl2N6O/c23-18-3-1-4-19(22(18)24)29-11-9-28(10-12-29)7-2-5-21(31)27-17-6-8-30-20(13-17)16(14-25)15-26-30/h1,3-4,6,8,13,15H,2,5,7,9-12H2,(H,27,31)

> <PUBCHEM_IUPAC_INCHIKEY>
MBMINXDPXIMQPF-UHFFFAOYSA-N

> <PUBCHEM_XLOGP3_AA>
3.1

> <PUBCHEM_EXACT_MASS>
456.1232147

> <PUBCHEM_MOLECULAR_FORMULA>
C22H22Cl2N6O

> <PUBCHEM_MOLECULAR_WEIGHT>
457.4

> <PUBCHEM_OPENEYE_CAN_SMILES>
C1CN(CCN1CCCC(=O)NC2=CC3=C(C=NN3C=C2)C#N)C4=C(C(=CC=C4)Cl)Cl

> <PUBCHEM_OPENEYE_ISO_SMILES>
C1CN(CCN1CCCC(=O)NC2=CC3=C(C=NN3C=C2)C#N)C4=C(C(=CC=C4)Cl)Cl

> <PUBCHEM_CACTVS_TPSA>
76.7

> <PUBCHEM_MONOISOTOPIC_WEIGHT>
456.1232147

> <PUBCHEM_TOTAL_CHARGE>
0

> <PUBCHEM_HEAVY_ATOM_COUNT>
31

> <PUBCHEM_ATOM_DEF_STEREO_COUNT>
0

> <PUBCHEM_ATOM_UDEF_STEREO_COUNT>
0

> <PUBCHEM_BOND_DEF_STEREO_COUNT>
0

> <PUBCHEM_BOND_UDEF_STEREO_COUNT>
0

> <PUBCHEM_ISOTOPIC_ATOM_COUNT>
0

> <PUBCHEM_COMPONENT_COUNT>
1

> <PUBCHEM_CACTVS_TAUTO_COUNT>
-1

> <PUBCHEM_COORDINATE_TYPE>
1
5
255

> <PUBCHEM_BONDANNOTATIONS>
16  18  8
16  19  8
18  21  8
19  22  8
21  23  8
22  23  8
24  25  8
24  27  8
25  26  8
26  29  8
27  28  8
29  30  8
7  26  8
7  28  8
7  8  8
8  30  8

$$$$
