10641955
  -OEChem-09292322142D

 43 46  0     1  0  0  0  0  0999 V2000
    2.8602    1.1966    0.0000 Cl  0  0  0  0  0  0  0  0  0  0  0  0
    9.0000   -1.2726    0.0000 O   0  0  0  0  0  0  0  0  0  0  0  0
    8.1340   -2.7726    0.0000 O   0  0  0  0  0  0  0  0  0  0  0  0
   10.7860    1.7726    0.0000 O   0  0  0  0  0  0  0  0  0  0  0  0
    5.4679   -1.2934    0.0000 N   0  0  3  0  0  0  0  0  0  0  0  0
    5.4679   -0.2517    0.0000 C   0  0  0  0  0  0  0  0  0  0  0  0
    6.3740    0.2621    0.0000 C   0  0  0  0  0  0  0  0  0  0  0  0
    6.3740   -1.8072    0.0000 C   0  0  0  0  0  0  0  0  0  0  0  0
    7.2679   -0.2725    0.0000 C   0  0  0  0  0  0  0  0  0  0  0  0
    7.2679   -1.2726    0.0000 C   0  0  0  0  0  0  0  0  0  0  0  0
    4.6038   -1.7967    0.0000 C   0  0  0  0  0  0  0  0  0  0  0  0
    8.1340    0.2275    0.0000 C   0  0  0  0  0  0  0  0  0  0  0  0
    8.1340   -1.7726    0.0000 C   0  0  0  0  0  0  0  0  0  0  0  0
    9.0000   -0.2725    0.0000 C   0  0  0  0  0  0  0  0  0  0  0  0
    3.7359   -1.3000    0.0000 C   0  0  0  0  0  0  0  0  0  0  0  0
    8.1179    1.2690    0.0000 C   0  0  0  0  0  0  0  0  0  0  0  0
    9.9100    0.2343    0.0000 C   0  0  0  0  0  0  0  0  0  0  0  0
    9.0159    1.7967    0.0000 C   0  0  0  0  0  0  0  0  0  0  0  0
    9.9180    1.2759    0.0000 C   0  0  0  0  0  0  0  0  0  0  0  0
    3.7320   -0.3000    0.0000 C   0  0  0  0  0  0  0  0  0  0  0  0
    2.8718   -1.8034    0.0000 C   0  0  0  0  0  0  0  0  0  0  0  0
    2.8641    0.1966    0.0000 C   0  0  0  0  0  0  0  0  0  0  0  0
    2.0038   -1.3067    0.0000 C   0  0  0  0  0  0  0  0  0  0  0  0
    2.0000   -0.3067    0.0000 C   0  0  0  0  0  0  0  0  0  0  0  0
   10.7898    2.7726    0.0000 C   0  0  0  0  0  0  0  0  0  0  0  0
    5.2589    0.3320    0.0000 H   0  0  0  0  0  0  0  0  0  0  0  0
    4.8571   -0.3578    0.0000 H   0  0  0  0  0  0  0  0  0  0  0  0
    6.7786    0.7319    0.0000 H   0  0  0  0  0  0  0  0  0  0  0  0
    5.9804    0.7411    0.0000 H   0  0  0  0  0  0  0  0  0  0  0  0
    5.9804   -2.2862    0.0000 H   0  0  0  0  0  0  0  0  0  0  0  0
    6.7786   -2.2770    0.0000 H   0  0  0  0  0  0  0  0  0  0  0  0
    4.2071   -2.2732    0.0000 H   0  0  0  0  0  0  0  0  0  0  0  0
    5.0042   -2.2701    0.0000 H   0  0  0  0  0  0  0  0  0  0  0  0
    7.5774    1.5727    0.0000 H   0  0  0  0  0  0  0  0  0  0  0  0
   10.4433   -0.0819    0.0000 H   0  0  0  0  0  0  0  0  0  0  0  0
    9.0136    2.4167    0.0000 H   0  0  0  0  0  0  0  0  0  0  0  0
    4.2678    0.0120    0.0000 H   0  0  0  0  0  0  0  0  0  0  0  0
    2.8742   -2.4234    0.0000 H   0  0  0  0  0  0  0  0  0  0  0  0
    1.4681   -1.6188    0.0000 H   0  0  0  0  0  0  0  0  0  0  0  0
    1.4619    0.0012    0.0000 H   0  0  0  0  0  0  0  0  0  0  0  0
   11.4098    2.7702    0.0000 H   0  0  0  0  0  0  0  0  0  0  0  0
   10.7922    3.3925    0.0000 H   0  0  0  0  0  0  0  0  0  0  0  0
   10.1698    2.7749    0.0000 H   0  0  0  0  0  0  0  0  0  0  0  0
  1 22  1  0  0  0  0
  2 13  1  0  0  0  0
  2 14  1  0  0  0  0
  3 13  2  0  0  0  0
  4 19  1  0  0  0  0
  4 25  1  0  0  0  0
  5  6  1  0  0  0  0
  5  8  1  0  0  0  0
  5 11  1  0  0  0  0
  6  7  1  0  0  0  0
  6 26  1  0  0  0  0
  6 27  1  0  0  0  0
  7  9  1  0  0  0  0
  7 28  1  0  0  0  0
  7 29  1  0  0  0  0
  8 10  1  0  0  0  0
  8 30  1  0  0  0  0
  8 31  1  0  0  0  0
  9 10  2  0  0  0  0
  9 12  1  0  0  0  0
 10 13  1  0  0  0  0
 11 15  1  0  0  0  0
 11 32  1  0  0  0  0
 11 33  1  0  0  0  0
 12 14  2  0  0  0  0
 12 16  1  0  0  0  0
 14 17  1  0  0  0  0
 15 20  2  0  0  0  0
 15 21  1  0  0  0  0
 16 18  2  0  0  0  0
 16 34  1  0  0  0  0
 17 19  2  0  0  0  0
 17 35  1  0  0  0  0
 18 19  1  0  0  0  0
 18 36  1  0  0  0  0
 20 22  1  0  0  0  0
 20 37  1  0  0  0  0
 21 23  2  0  0  0  0
 21 38  1  0  0  0  0
 22 24  2  0  0  0  0
 23 24  1  0  0  0  0
 23 39  1  0  0  0  0
 24 40  1  0  0  0  0
 25 41  1  0  0  0  0
 25 42  1  0  0  0  0
 25 43  1  0  0  0  0
M  END
> <PUBCHEM_COMPOUND_CID>
10641955

> <PUBCHEM_COMPOUND_CANONICALIZED>
1

> <PUBCHEM_CACTVS_COMPLEXITY>
549

> <PUBCHEM_CACTVS_HBOND_ACCEPTOR>
4

> <PUBCHEM_CACTVS_HBOND_DONOR>
0

> <PUBCHEM_CACTVS_ROTATABLE_BOND>
3

> <PUBCHEM_CACTVS_SUBSKEYS>
AAADceB6MAAEAAAAAAAAAAAAAAAAAAAAAAAwYIEAAAAAAACxQAAAHgIAAAAADAbBmCYyDoMABACIAiDSCACCCAAgJQAIiAEODsgMJyqFsxuGOijnwBWIqQeQ8K4OIAAAKAAIAABAAABQABAAAAAAAAAAAA==

> <PUBCHEM_IUPAC_OPENEYE_NAME>
3-[(3-chlorophenyl)methyl]-8-methoxy-2,4-dihydro-1H-chromeno[3,4-c]pyridin-5-one

> <PUBCHEM_IUPAC_CAS_NAME>
3-[(3-chlorophenyl)methyl]-8-methoxy-2,4-dihydro-1H-[1]benzopyrano[3,4-c]pyridin-5-one

> <PUBCHEM_IUPAC_NAME_MARKUP>
3-[(3-chlorophenyl)methyl]-8-methoxy-2,4-dihydro-1<I>H</I>-chromeno[3,4-c]pyridin-5-one

> <PUBCHEM_IUPAC_NAME>
3-[(3-chlorophenyl)methyl]-8-methoxy-2,4-dihydro-1H-chromeno[3,4-c]pyridin-5-one

> <PUBCHEM_IUPAC_SYSTEMATIC_NAME>
3-[(3-chlorophenyl)methyl]-8-methoxy-2,4-dihydro-1H-chromeno[3,4-c]pyridin-5-one

> <PUBCHEM_IUPAC_TRADITIONAL_NAME>
3-(3-chlorobenzyl)-8-methoxy-2,4-dihydro-1H-chromeno[3,4-c]pyridin-5-one

> <PUBCHEM_IUPAC_INCHI>
InChI=1S/C20H18ClNO3/c1-24-15-5-6-17-16-7-8-22(11-13-3-2-4-14(21)9-13)12-18(16)20(23)25-19(17)10-15/h2-6,9-10H,7-8,11-12H2,1H3

> <PUBCHEM_IUPAC_INCHIKEY>
MMTKBQGOVDOJAE-UHFFFAOYSA-N

> <PUBCHEM_XLOGP3_AA>
3.4

> <PUBCHEM_EXACT_MASS>
355.0975211

> <PUBCHEM_MOLECULAR_FORMULA>
C20H18ClNO3

> <PUBCHEM_MOLECULAR_WEIGHT>
355.8

> <PUBCHEM_OPENEYE_CAN_SMILES>
COC1=CC2=C(C=C1)C3=C(CN(CC3)CC4=CC(=CC=C4)Cl)C(=O)O2

> <PUBCHEM_OPENEYE_ISO_SMILES>
COC1=CC2=C(C=C1)C3=C(CN(CC3)CC4=CC(=CC=C4)Cl)C(=O)O2

> <PUBCHEM_CACTVS_TPSA>
38.8

> <PUBCHEM_MONOISOTOPIC_WEIGHT>
355.0975211

> <PUBCHEM_TOTAL_CHARGE>
0

> <PUBCHEM_HEAVY_ATOM_COUNT>
25

> <PUBCHEM_ATOM_DEF_STEREO_COUNT>
0

> <PUBCHEM_ATOM_UDEF_STEREO_COUNT>
0

> <PUBCHEM_BOND_DEF_STEREO_COUNT>
0

> <PUBCHEM_BOND_UDEF_STEREO_COUNT>
0

> <PUBCHEM_ISOTOPIC_ATOM_COUNT>
0

> <PUBCHEM_COMPONENT_COUNT>
1

> <PUBCHEM_CACTVS_TAUTO_COUNT>
-1

> <PUBCHEM_COORDINATE_TYPE>
1
5
255

> <PUBCHEM_BONDANNOTATIONS>
10  13  8
12  14  8
12  16  8
14  17  8
15  20  8
15  21  8
16  18  8
17  19  8
18  19  8
2  13  8
2  14  8
20  22  8
21  23  8
22  24  8
23  24  8
9  10  8
9  12  8

$$$$
