10574303
  -OEChem-09292322142D

 61 65  0     0  0  0  0  0  0999 V2000
    2.9100    1.2436    0.0000 O   0  0  0  0  0  0  0  0  0  0  0  0
    4.6701   -2.0352    0.0000 N   0  0  0  0  0  0  0  0  0  0  0  0
    4.6701    0.9648    0.0000 N   0  0  0  0  0  0  0  0  0  0  0  0
    4.1701    2.5036    0.0000 N   0  0  0  0  0  0  0  0  0  0  0  0
    4.6701   -0.0352    0.0000 C   0  0  0  0  0  0  0  0  0  0  0  0
    3.8041   -0.5352    0.0000 C   0  0  0  0  0  0  0  0  0  0  0  0
    5.5361   -0.5352    0.0000 C   0  0  0  0  0  0  0  0  0  0  0  0
    3.8041   -1.5352    0.0000 C   0  0  0  0  0  0  0  0  0  0  0  0
    5.5361   -1.5352    0.0000 C   0  0  0  0  0  0  0  0  0  0  0  0
    5.4791    1.5526    0.0000 C   0  0  0  0  0  0  0  0  0  0  0  0
    4.6701   -3.0352    0.0000 C   0  0  0  0  0  0  0  0  0  0  0  0
    3.8611    1.5526    0.0000 C   0  0  0  0  0  0  0  0  0  0  0  0
    5.1701    2.5036    0.0000 C   0  0  0  0  0  0  0  0  0  0  0  0
    6.4302    1.2436    0.0000 C   0  0  0  0  0  0  0  0  0  0  0  0
    3.8041   -3.5352    0.0000 C   0  0  0  0  0  0  0  0  0  0  0  0
    5.7579    3.3126    0.0000 C   0  0  0  0  0  0  0  0  0  0  0  0
    3.5823    3.3126    0.0000 C   0  0  0  0  0  0  0  0  0  0  0  0
    2.9380   -3.0352    0.0000 C   0  0  0  0  0  0  0  0  0  0  0  0
    3.8041   -4.5352    0.0000 C   0  0  0  0  0  0  0  0  0  0  0  0
    6.7524    3.2081    0.0000 C   0  0  0  0  0  0  0  0  0  0  0  0
    5.3511    4.2262    0.0000 C   0  0  0  0  0  0  0  0  0  0  0  0
    3.9890    4.2262    0.0000 C   0  0  0  0  0  0  0  0  0  0  0  0
    2.5878    3.2081    0.0000 C   0  0  0  0  0  0  0  0  0  0  0  0
    2.0720   -3.5352    0.0000 C   0  0  0  0  0  0  0  0  0  0  0  0
    2.9380   -5.0352    0.0000 C   0  0  0  0  0  0  0  0  0  0  0  0
    7.3402    4.0171    0.0000 C   0  0  0  0  0  0  0  0  0  0  0  0
    5.9389    5.0352    0.0000 C   0  0  0  0  0  0  0  0  0  0  0  0
    3.4013    5.0352    0.0000 C   0  0  0  0  0  0  0  0  0  0  0  0
    2.0000    4.0171    0.0000 C   0  0  0  0  0  0  0  0  0  0  0  0
    2.0720   -4.5352    0.0000 C   0  0  0  0  0  0  0  0  0  0  0  0
    6.9334    4.9307    0.0000 C   0  0  0  0  0  0  0  0  0  0  0  0
    2.4067    4.9307    0.0000 C   0  0  0  0  0  0  0  0  0  0  0  0
    5.2070    0.2748    0.0000 H   0  0  0  0  0  0  0  0  0  0  0  0
    3.5920    0.0474    0.0000 H   0  0  0  0  0  0  0  0  0  0  0  0
    3.1935   -0.6429    0.0000 H   0  0  0  0  0  0  0  0  0  0  0  0
    6.1467   -0.6429    0.0000 H   0  0  0  0  0  0  0  0  0  0  0  0
    5.7482    0.0474    0.0000 H   0  0  0  0  0  0  0  0  0  0  0  0
    3.1935   -1.4276    0.0000 H   0  0  0  0  0  0  0  0  0  0  0  0
    3.5920   -2.1178    0.0000 H   0  0  0  0  0  0  0  0  0  0  0  0
    5.7482   -2.1178    0.0000 H   0  0  0  0  0  0  0  0  0  0  0  0
    6.1467   -1.4276    0.0000 H   0  0  0  0  0  0  0  0  0  0  0  0
    4.8821   -3.6178    0.0000 H   0  0  0  0  0  0  0  0  0  0  0  0
    5.2807   -2.9276    0.0000 H   0  0  0  0  0  0  0  0  0  0  0  0
    6.2386    0.6539    0.0000 H   0  0  0  0  0  0  0  0  0  0  0  0
    7.0198    1.0520    0.0000 H   0  0  0  0  0  0  0  0  0  0  0  0
    6.6218    1.8332    0.0000 H   0  0  0  0  0  0  0  0  0  0  0  0
    2.9380   -2.4152    0.0000 H   0  0  0  0  0  0  0  0  0  0  0  0
    4.3410   -4.8452    0.0000 H   0  0  0  0  0  0  0  0  0  0  0  0
    7.0046    2.6417    0.0000 H   0  0  0  0  0  0  0  0  0  0  0  0
    4.7345    4.2910    0.0000 H   0  0  0  0  0  0  0  0  0  0  0  0
    4.6056    4.2910    0.0000 H   0  0  0  0  0  0  0  0  0  0  0  0
    2.3356    2.6417    0.0000 H   0  0  0  0  0  0  0  0  0  0  0  0
    1.5351   -3.2252    0.0000 H   0  0  0  0  0  0  0  0  0  0  0  0
    2.9380   -5.6552    0.0000 H   0  0  0  0  0  0  0  0  0  0  0  0
    7.9568    3.9523    0.0000 H   0  0  0  0  0  0  0  0  0  0  0  0
    5.6868    5.6016    0.0000 H   0  0  0  0  0  0  0  0  0  0  0  0
    3.6534    5.6016    0.0000 H   0  0  0  0  0  0  0  0  0  0  0  0
    1.3834    3.9523    0.0000 H   0  0  0  0  0  0  0  0  0  0  0  0
    1.5351   -4.8452    0.0000 H   0  0  0  0  0  0  0  0  0  0  0  0
    7.2979    5.4323    0.0000 H   0  0  0  0  0  0  0  0  0  0  0  0
    2.0423    5.4323    0.0000 H   0  0  0  0  0  0  0  0  0  0  0  0
  1 12  2  0  0  0  0
  2  8  1  0  0  0  0
  2  9  1  0  0  0  0
  2 11  1  0  0  0  0
  3  5  1  0  0  0  0
  3 10  1  0  0  0  0
  3 12  1  0  0  0  0
  4 12  1  0  0  0  0
  4 13  1  0  0  0  0
  4 17  1  0  0  0  0
  5  6  1  0  0  0  0
  5  7  1  0  0  0  0
  5 33  1  0  0  0  0
  6  8  1  0  0  0  0
  6 34  1  0  0  0  0
  6 35  1  0  0  0  0
  7  9  1  0  0  0  0
  7 36  1  0  0  0  0
  7 37  1  0  0  0  0
  8 38  1  0  0  0  0
  8 39  1  0  0  0  0
  9 40  1  0  0  0  0
  9 41  1  0  0  0  0
 10 13  2  0  0  0  0
 10 14  1  0  0  0  0
 11 15  1  0  0  0  0
 11 42  1  0  0  0  0
 11 43  1  0  0  0  0
 13 16  1  0  0  0  0
 14 44  1  0  0  0  0
 14 45  1  0  0  0  0
 14 46  1  0  0  0  0
 15 18  2  0  0  0  0
 15 19  1  0  0  0  0
 16 20  2  0  0  0  0
 16 21  1  0  0  0  0
 17 22  2  0  0  0  0
 17 23  1  0  0  0  0
 18 24  1  0  0  0  0
 18 47  1  0  0  0  0
 19 25  2  0  0  0  0
 19 48  1  0  0  0  0
 20 26  1  0  0  0  0
 20 49  1  0  0  0  0
 21 27  2  0  0  0  0
 21 50  1  0  0  0  0
 22 28  1  0  0  0  0
 22 51  1  0  0  0  0
 23 29  2  0  0  0  0
 23 52  1  0  0  0  0
 24 30  2  0  0  0  0
 24 53  1  0  0  0  0
 25 30  1  0  0  0  0
 25 54  1  0  0  0  0
 26 31  2  0  0  0  0
 26 55  1  0  0  0  0
 27 31  1  0  0  0  0
 27 56  1  0  0  0  0
 28 32  2  0  0  0  0
 28 57  1  0  0  0  0
 29 32  1  0  0  0  0
 29 58  1  0  0  0  0
 30 59  1  0  0  0  0
 31 60  1  0  0  0  0
 32 61  1  0  0  0  0
M  END
> <PUBCHEM_COMPOUND_CID>
10574303

> <PUBCHEM_COMPOUND_CANONICALIZED>
1

> <PUBCHEM_CACTVS_COMPLEXITY>
662

> <PUBCHEM_CACTVS_HBOND_ACCEPTOR>
2

> <PUBCHEM_CACTVS_HBOND_DONOR>
0

> <PUBCHEM_CACTVS_ROTATABLE_BOND>
5

> <PUBCHEM_CACTVS_SUBSKEYS>
AAADceB7IAAAAAAAAAAAAAAAAAAAAQAAAAA8YMEAAAAAAAABUAAAHgAAAAAADCjBGAQzwIMAAACIAiRCUACCAAAhAgAIiAAIZIiIICLA0ZGEIAhohgLIyCcQgAAOAAAAAAAAAAAAAAAAAAAAAAAAAAAAAA==

> <PUBCHEM_IUPAC_OPENEYE_NAME>
1-(1-benzyl-4-piperidyl)-5-methyl-3,4-diphenyl-imidazol-2-one

> <PUBCHEM_IUPAC_CAS_NAME>
4-methyl-1,5-diphenyl-3-[1-(phenylmethyl)-4-piperidinyl]-2-imidazolone

> <PUBCHEM_IUPAC_NAME_MARKUP>
1-(1-benzylpiperidin-4-yl)-5-methyl-3,4-diphenylimidazol-2-one

> <PUBCHEM_IUPAC_NAME>
1-(1-benzylpiperidin-4-yl)-5-methyl-3,4-diphenylimidazol-2-one

> <PUBCHEM_IUPAC_SYSTEMATIC_NAME>
4-methyl-1,5-diphenyl-3-[1-(phenylmethyl)piperidin-4-yl]imidazol-2-one

> <PUBCHEM_IUPAC_TRADITIONAL_NAME>
1-(1-benzyl-4-piperidyl)-5-methyl-3,4-diphenyl-4-imidazolin-2-one

> <PUBCHEM_IUPAC_INCHI>
InChI=1S/C28H29N3O/c1-22-27(24-13-7-3-8-14-24)31(25-15-9-4-10-16-25)28(32)30(22)26-17-19-29(20-18-26)21-23-11-5-2-6-12-23/h2-16,26H,17-21H2,1H3

> <PUBCHEM_IUPAC_INCHIKEY>
JICSUTQEGNUBOG-UHFFFAOYSA-N

> <PUBCHEM_XLOGP3_AA>
5.2

> <PUBCHEM_EXACT_MASS>
423.231062557

> <PUBCHEM_MOLECULAR_FORMULA>
C28H29N3O

> <PUBCHEM_MOLECULAR_WEIGHT>
423.5

> <PUBCHEM_OPENEYE_CAN_SMILES>
CC1=C(N(C(=O)N1C2CCN(CC2)CC3=CC=CC=C3)C4=CC=CC=C4)C5=CC=CC=C5

> <PUBCHEM_OPENEYE_ISO_SMILES>
CC1=C(N(C(=O)N1C2CCN(CC2)CC3=CC=CC=C3)C4=CC=CC=C4)C5=CC=CC=C5

> <PUBCHEM_CACTVS_TPSA>
26.8

> <PUBCHEM_MONOISOTOPIC_WEIGHT>
423.231062557

> <PUBCHEM_TOTAL_CHARGE>
0

> <PUBCHEM_HEAVY_ATOM_COUNT>
32

> <PUBCHEM_ATOM_DEF_STEREO_COUNT>
0

> <PUBCHEM_ATOM_UDEF_STEREO_COUNT>
0

> <PUBCHEM_BOND_DEF_STEREO_COUNT>
0

> <PUBCHEM_BOND_UDEF_STEREO_COUNT>
0

> <PUBCHEM_ISOTOPIC_ATOM_COUNT>
0

> <PUBCHEM_COMPONENT_COUNT>
1

> <PUBCHEM_CACTVS_TAUTO_COUNT>
-1

> <PUBCHEM_COORDINATE_TYPE>
1
5
255

> <PUBCHEM_BONDANNOTATIONS>
10  13  8
15  18  8
15  19  8
16  20  8
16  21  8
17  22  8
17  23  8
18  24  8
19  25  8
20  26  8
21  27  8
22  28  8
23  29  8
24  30  8
25  30  8
26  31  8
27  31  8
28  32  8
29  32  8
3  10  8
3  12  8
4  12  8
4  13  8

$$$$
