168279281
  -OEChem-09292322442D

 51 53  0     0  0  0  0  0  0999 V2000
    2.8660    1.1550    0.0000 N   0  0  0  0  0  0  0  0  0  0  0  0
    2.8660    3.1550    0.0000 N   0  0  0  0  0  0  0  0  0  0  0  0
    4.5981   -2.8450    0.0000 N   0  0  0  0  0  0  0  0  0  0  0  0
    5.4641   -4.3450    0.0000 N   0  0  0  0  0  0  0  0  0  0  0  0
    6.3301   -2.8450    0.0000 N   0  0  0  0  0  0  0  0  0  0  0  0
    7.1962   -4.3450    0.0000 N   0  0  0  0  0  0  0  0  0  0  0  0
    6.3301   -5.8450    0.0000 N   0  0  0  0  0  0  0  0  0  0  0  0
    8.0622   -2.8450    0.0000 N   0  0  0  0  0  0  0  0  0  0  0  0
    3.7320    1.6550    0.0000 C   0  0  0  0  0  0  0  0  0  0  0  0
    2.0000    1.6550    0.0000 C   0  0  0  0  0  0  0  0  0  0  0  0
    3.7320    2.6550    0.0000 C   0  0  0  0  0  0  0  0  0  0  0  0
    2.0000    2.6550    0.0000 C   0  0  0  0  0  0  0  0  0  0  0  0
    2.8660    0.1550    0.0000 C   0  0  0  0  0  0  0  0  0  0  0  0
    3.7320   -0.3450    0.0000 C   0  0  0  0  0  0  0  0  0  0  0  0
    3.7320   -1.3450    0.0000 C   0  0  0  0  0  0  0  0  0  0  0  0
    2.8660    4.1550    0.0000 C   0  0  0  0  0  0  0  0  0  0  0  0
    4.5981   -1.8450    0.0000 C   0  0  0  0  0  0  0  0  0  0  0  0
    3.7320    4.6550    0.0000 C   0  0  0  0  0  0  0  0  0  0  0  0
    2.0000    4.6550    0.0000 C   0  0  0  0  0  0  0  0  0  0  0  0
    3.7320    5.6550    0.0000 C   0  0  0  0  0  0  0  0  0  0  0  0
    2.0000    5.6550    0.0000 C   0  0  0  0  0  0  0  0  0  0  0  0
    2.8660    6.1550    0.0000 C   0  0  0  0  0  0  0  0  0  0  0  0
    5.4641   -3.3450    0.0000 C   0  0  0  0  0  0  0  0  0  0  0  0
    6.3301   -4.8450    0.0000 C   0  0  0  0  0  0  0  0  0  0  0  0
    7.1962   -3.3450    0.0000 C   0  0  0  0  0  0  0  0  0  0  0  0
    3.9441    1.0724    0.0000 H   0  0  0  0  0  0  0  0  0  0  0  0
    4.3426    1.7627    0.0000 H   0  0  0  0  0  0  0  0  0  0  0  0
    1.3894    1.7627    0.0000 H   0  0  0  0  0  0  0  0  0  0  0  0
    1.7880    1.0724    0.0000 H   0  0  0  0  0  0  0  0  0  0  0  0
    4.3426    2.5473    0.0000 H   0  0  0  0  0  0  0  0  0  0  0  0
    3.9441    3.2376    0.0000 H   0  0  0  0  0  0  0  0  0  0  0  0
    1.7880    3.2376    0.0000 H   0  0  0  0  0  0  0  0  0  0  0  0
    1.3894    2.5473    0.0000 H   0  0  0  0  0  0  0  0  0  0  0  0
    2.2554    0.2627    0.0000 H   0  0  0  0  0  0  0  0  0  0  0  0
    2.6540   -0.4276    0.0000 H   0  0  0  0  0  0  0  0  0  0  0  0
    4.3426   -0.4527    0.0000 H   0  0  0  0  0  0  0  0  0  0  0  0
    3.9441    0.2376    0.0000 H   0  0  0  0  0  0  0  0  0  0  0  0
    3.1215   -1.2373    0.0000 H   0  0  0  0  0  0  0  0  0  0  0  0
    3.5200   -1.9276    0.0000 H   0  0  0  0  0  0  0  0  0  0  0  0
    5.2087   -1.9527    0.0000 H   0  0  0  0  0  0  0  0  0  0  0  0
    4.8101   -1.2624    0.0000 H   0  0  0  0  0  0  0  0  0  0  0  0
    4.2690    4.3450    0.0000 H   0  0  0  0  0  0  0  0  0  0  0  0
    1.4631    4.3450    0.0000 H   0  0  0  0  0  0  0  0  0  0  0  0
    4.0611   -3.1550    0.0000 H   0  0  0  0  0  0  0  0  0  0  0  0
    4.2690    5.9650    0.0000 H   0  0  0  0  0  0  0  0  0  0  0  0
    1.4631    5.9650    0.0000 H   0  0  0  0  0  0  0  0  0  0  0  0
    2.8660    6.7750    0.0000 H   0  0  0  0  0  0  0  0  0  0  0  0
    6.8671   -6.1550    0.0000 H   0  0  0  0  0  0  0  0  0  0  0  0
    5.7932   -6.1550    0.0000 H   0  0  0  0  0  0  0  0  0  0  0  0
    8.5991   -3.1550    0.0000 H   0  0  0  0  0  0  0  0  0  0  0  0
    8.0622   -2.2250    0.0000 H   0  0  0  0  0  0  0  0  0  0  0  0
  1  9  1  0  0  0  0
  1 10  1  0  0  0  0
  1 13  1  0  0  0  0
  2 11  1  0  0  0  0
  2 12  1  0  0  0  0
  2 16  1  0  0  0  0
  3 17  1  0  0  0  0
  3 23  1  0  0  0  0
  3 44  1  0  0  0  0
  4 23  2  0  0  0  0
  4 24  1  0  0  0  0
  5 23  1  0  0  0  0
  5 25  2  0  0  0  0
  6 24  2  0  0  0  0
  6 25  1  0  0  0  0
  7 24  1  0  0  0  0
  7 48  1  0  0  0  0
  7 49  1  0  0  0  0
  8 25  1  0  0  0  0
  8 50  1  0  0  0  0
  8 51  1  0  0  0  0
  9 11  1  0  0  0  0
  9 26  1  0  0  0  0
  9 27  1  0  0  0  0
 10 12  1  0  0  0  0
 10 28  1  0  0  0  0
 10 29  1  0  0  0  0
 11 30  1  0  0  0  0
 11 31  1  0  0  0  0
 12 32  1  0  0  0  0
 12 33  1  0  0  0  0
 13 14  1  0  0  0  0
 13 34  1  0  0  0  0
 13 35  1  0  0  0  0
 14 15  1  0  0  0  0
 14 36  1  0  0  0  0
 14 37  1  0  0  0  0
 15 17  1  0  0  0  0
 15 38  1  0  0  0  0
 15 39  1  0  0  0  0
 16 18  2  0  0  0  0
 16 19  1  0  0  0  0
 17 40  1  0  0  0  0
 17 41  1  0  0  0  0
 18 20  1  0  0  0  0
 18 42  1  0  0  0  0
 19 21  2  0  0  0  0
 19 43  1  0  0  0  0
 20 22  2  0  0  0  0
 20 45  1  0  0  0  0
 21 22  1  0  0  0  0
 21 46  1  0  0  0  0
 22 47  1  0  0  0  0
M  END
> <PUBCHEM_COMPOUND_CID>
168279281

> <PUBCHEM_COMPOUND_CANONICALIZED>
1

> <PUBCHEM_CACTVS_COMPLEXITY>
358

> <PUBCHEM_CACTVS_HBOND_ACCEPTOR>
8

> <PUBCHEM_CACTVS_HBOND_DONOR>
3

> <PUBCHEM_CACTVS_ROTATABLE_BOND>
7

> <PUBCHEM_CACTVS_SUBSKEYS>
AAADceB7wAAAAAAAAAAAAAAAAAAAAAAAAAA8WIAAAAAAAAABwAAAHAAQAAAACAjBEAQx0IfIEACgACRCZACCAAkhAoAJiIAIZIiIaCLAmZGUIAhokALIyAcQAAAAAAAAAAAAAAAAAAAAAAAAAAAAAAAAAA==

> <PUBCHEM_IUPAC_OPENEYE_NAME>
N2-[4-(4-phenylpiperazin-1-yl)butyl]-1,3,5-triazine-2,4,6-triamine

> <PUBCHEM_IUPAC_CAS_NAME>
N2-[4-(4-phenyl-1-piperazinyl)butyl]-1,3,5-triazine-2,4,6-triamine

> <PUBCHEM_IUPAC_NAME_MARKUP>
2-<I>N</I>-[4-(4-phenylpiperazin-1-yl)butyl]-1,3,5-triazine-2,4,6-triamine

> <PUBCHEM_IUPAC_NAME>
2-N-[4-(4-phenylpiperazin-1-yl)butyl]-1,3,5-triazine-2,4,6-triamine

> <PUBCHEM_IUPAC_SYSTEMATIC_NAME>
N2-[4-(4-phenylpiperazin-1-yl)butyl]-1,3,5-triazine-2,4,6-triamine

> <PUBCHEM_IUPAC_TRADITIONAL_NAME>
(4,6-diamino-s-triazin-2-yl)-[4-(4-phenylpiperazino)butyl]amine

> <PUBCHEM_IUPAC_INCHI>
InChI=1S/C17H26N8/c18-15-21-16(19)23-17(22-15)20-8-4-5-9-24-10-12-25(13-11-24)14-6-2-1-3-7-14/h1-3,6-7H,4-5,8-13H2,(H5,18,19,20,21,22,23)

> <PUBCHEM_IUPAC_INCHIKEY>
LKJCFVNDNPLBSN-UHFFFAOYSA-N

> <PUBCHEM_XLOGP3_AA>
1.9

> <PUBCHEM_EXACT_MASS>
342.22804286

> <PUBCHEM_MOLECULAR_FORMULA>
C17H26N8

> <PUBCHEM_MOLECULAR_WEIGHT>
342.4

> <PUBCHEM_OPENEYE_CAN_SMILES>
C1CN(CCN1CCCCNC2=NC(=NC(=N2)N)N)C3=CC=CC=C3

> <PUBCHEM_OPENEYE_ISO_SMILES>
C1CN(CCN1CCCCNC2=NC(=NC(=N2)N)N)C3=CC=CC=C3

> <PUBCHEM_CACTVS_TPSA>
109

> <PUBCHEM_MONOISOTOPIC_WEIGHT>
342.22804286

> <PUBCHEM_TOTAL_CHARGE>
0

> <PUBCHEM_HEAVY_ATOM_COUNT>
25

> <PUBCHEM_ATOM_DEF_STEREO_COUNT>
0

> <PUBCHEM_ATOM_UDEF_STEREO_COUNT>
0

> <PUBCHEM_BOND_DEF_STEREO_COUNT>
0

> <PUBCHEM_BOND_UDEF_STEREO_COUNT>
0

> <PUBCHEM_ISOTOPIC_ATOM_COUNT>
0

> <PUBCHEM_COMPONENT_COUNT>
1

> <PUBCHEM_CACTVS_TAUTO_COUNT>
-1

> <PUBCHEM_COORDINATE_TYPE>
1
5
255

> <PUBCHEM_BONDANNOTATIONS>
16  18  8
16  19  8
18  20  8
19  21  8
20  22  8
21  22  8
4  23  8
4  24  8
5  23  8
5  25  8
6  24  8
6  25  8

$$$$
