44411663
  -OEChem-09292322502D

 61 65  0     0  0  0  0  0  0999 V2000
    7.0000    1.9468    0.0000 S   0  0  0  0  0  0  0  0  0  0  0  0
    5.0000   -3.2494    0.0000 F   0  0  0  0  0  0  0  0  0  0  0  0
    2.0000   -4.9814    0.0000 F   0  0  0  0  0  0  0  0  0  0  0  0
    6.1340    2.4468    0.0000 O   0  0  0  0  0  0  0  0  0  0  0  0
    7.5000    2.8128    0.0000 O   0  0  0  0  0  0  0  0  0  0  0  0
    6.5000    1.0808    0.0000 N   0  0  0  0  0  0  0  0  0  0  0  0
   10.4920    2.9121    0.0000 N   0  0  0  0  0  0  0  0  0  0  0  0
    5.5000   -0.6513    0.0000 C   0  0  0  0  0  0  0  0  0  0  0  0
    6.5000   -0.6513    0.0000 C   0  0  0  0  0  0  0  0  0  0  0  0
    5.0000    0.2147    0.0000 C   0  0  0  0  0  0  0  0  0  0  0  0
    7.0000    0.2147    0.0000 C   0  0  0  0  0  0  0  0  0  0  0  0
    5.5000    1.0808    0.0000 C   0  0  0  0  0  0  0  0  0  0  0  0
    5.0000   -1.5173    0.0000 C   0  0  0  0  0  0  0  0  0  0  0  0
    4.0000   -1.5173    0.0000 C   0  0  0  0  0  0  0  0  0  0  0  0
    7.8660    1.4468    0.0000 C   0  0  0  0  0  0  0  0  0  0  0  0
    3.5000   -2.3834    0.0000 C   0  0  0  0  0  0  0  0  0  0  0  0
    8.7320    1.9468    0.0000 C   0  0  0  0  0  0  0  0  0  0  0  0
    7.8660    0.4468    0.0000 C   0  0  0  0  0  0  0  0  0  0  0  0
    4.0000   -3.2494    0.0000 C   0  0  0  0  0  0  0  0  0  0  0  0
    2.5000   -2.3834    0.0000 C   0  0  0  0  0  0  0  0  0  0  0  0
    8.7320    2.9468    0.0000 C   0  0  0  0  0  0  0  0  0  0  0  0
    9.5981    1.4468    0.0000 C   0  0  0  0  0  0  0  0  0  0  0  0
    8.7320   -0.0532    0.0000 C   0  0  0  0  0  0  0  0  0  0  0  0
    9.5981    0.4468    0.0000 C   0  0  0  0  0  0  0  0  0  0  0  0
    3.5000   -4.1154    0.0000 C   0  0  0  0  0  0  0  0  0  0  0  0
    2.0000   -3.2494    0.0000 C   0  0  0  0  0  0  0  0  0  0  0  0
    9.5981    3.4468    0.0000 C   0  0  0  0  0  0  0  0  0  0  0  0
    7.8660    3.4468    0.0000 C   0  0  0  0  0  0  0  0  0  0  0  0
    2.5000   -4.1154    0.0000 C   0  0  0  0  0  0  0  0  0  0  0  0
    9.5981    4.4468    0.0000 C   0  0  0  0  0  0  0  0  0  0  0  0
    7.8660    4.4468    0.0000 C   0  0  0  0  0  0  0  0  0  0  0  0
    8.7320    4.9468    0.0000 C   0  0  0  0  0  0  0  0  0  0  0  0
   10.4920    4.9814    0.0000 C   0  0  0  0  0  0  0  0  0  0  0  0
   11.3981    3.4260    0.0000 C   0  0  0  0  0  0  0  0  0  0  0  0
   11.3981    4.4676    0.0000 C   0  0  0  0  0  0  0  0  0  0  0  0
    4.8800   -0.6513    0.0000 H   0  0  0  0  0  0  0  0  0  0  0  0
    6.3923   -1.2619    0.0000 H   0  0  0  0  0  0  0  0  0  0  0  0
    7.0826   -0.8634    0.0000 H   0  0  0  0  0  0  0  0  0  0  0  0
    4.5250    0.6132    0.0000 H   0  0  0  0  0  0  0  0  0  0  0  0
    4.5250   -0.1838    0.0000 H   0  0  0  0  0  0  0  0  0  0  0  0
    7.4750   -0.1838    0.0000 H   0  0  0  0  0  0  0  0  0  0  0  0
    7.4750    0.6132    0.0000 H   0  0  0  0  0  0  0  0  0  0  0  0
    5.6077    1.6913    0.0000 H   0  0  0  0  0  0  0  0  0  0  0  0
    4.9174    1.2928    0.0000 H   0  0  0  0  0  0  0  0  0  0  0  0
    4.8923   -2.1279    0.0000 H   0  0  0  0  0  0  0  0  0  0  0  0
    5.5826   -1.7294    0.0000 H   0  0  0  0  0  0  0  0  0  0  0  0
    4.1077   -0.9068    0.0000 H   0  0  0  0  0  0  0  0  0  0  0  0
    3.4174   -1.3053    0.0000 H   0  0  0  0  0  0  0  0  0  0  0  0
    7.3291    0.1368    0.0000 H   0  0  0  0  0  0  0  0  0  0  0  0
    2.1900   -1.8464    0.0000 H   0  0  0  0  0  0  0  0  0  0  0  0
   10.1350    1.7568    0.0000 H   0  0  0  0  0  0  0  0  0  0  0  0
    8.7320   -0.6732    0.0000 H   0  0  0  0  0  0  0  0  0  0  0  0
   10.1350    0.1368    0.0000 H   0  0  0  0  0  0  0  0  0  0  0  0
    3.8100   -4.6523    0.0000 H   0  0  0  0  0  0  0  0  0  0  0  0
    1.3800   -3.2494    0.0000 H   0  0  0  0  0  0  0  0  0  0  0  0
    7.3291    3.1368    0.0000 H   0  0  0  0  0  0  0  0  0  0  0  0
    7.3291    4.7568    0.0000 H   0  0  0  0  0  0  0  0  0  0  0  0
    8.7320    5.5668    0.0000 H   0  0  0  0  0  0  0  0  0  0  0  0
   10.4848    5.6014    0.0000 H   0  0  0  0  0  0  0  0  0  0  0  0
   11.9338    3.1139    0.0000 H   0  0  0  0  0  0  0  0  0  0  0  0
   11.9338    4.7796    0.0000 H   0  0  0  0  0  0  0  0  0  0  0  0
  1  4  2  0  0  0  0
  1  5  2  0  0  0  0
  1  6  1  0  0  0  0
  1 15  1  0  0  0  0
  2 19  1  0  0  0  0
  3 29  1  0  0  0  0
  6 11  1  0  0  0  0
  6 12  1  0  0  0  0
  7 27  1  0  0  0  0
  7 34  2  0  0  0  0
  8  9  1  0  0  0  0
  8 10  1  0  0  0  0
  8 13  1  0  0  0  0
  8 36  1  0  0  0  0
  9 11  1  0  0  0  0
  9 37  1  0  0  0  0
  9 38  1  0  0  0  0
 10 12  1  0  0  0  0
 10 39  1  0  0  0  0
 10 40  1  0  0  0  0
 11 41  1  0  0  0  0
 11 42  1  0  0  0  0
 12 43  1  0  0  0  0
 12 44  1  0  0  0  0
 13 14  1  0  0  0  0
 13 45  1  0  0  0  0
 13 46  1  0  0  0  0
 14 16  1  0  0  0  0
 14 47  1  0  0  0  0
 14 48  1  0  0  0  0
 15 17  1  0  0  0  0
 15 18  2  0  0  0  0
 16 19  2  0  0  0  0
 16 20  1  0  0  0  0
 17 21  1  0  0  0  0
 17 22  2  0  0  0  0
 18 23  1  0  0  0  0
 18 49  1  0  0  0  0
 19 25  1  0  0  0  0
 20 26  2  0  0  0  0
 20 50  1  0  0  0  0
 21 27  1  0  0  0  0
 21 28  2  0  0  0  0
 22 24  1  0  0  0  0
 22 51  1  0  0  0  0
 23 24  2  0  0  0  0
 23 52  1  0  0  0  0
 24 53  1  0  0  0  0
 25 29  2  0  0  0  0
 25 54  1  0  0  0  0
 26 29  1  0  0  0  0
 26 55  1  0  0  0  0
 27 30  2  0  0  0  0
 28 31  1  0  0  0  0
 28 56  1  0  0  0  0
 30 32  1  0  0  0  0
 30 33  1  0  0  0  0
 31 32  2  0  0  0  0
 31 57  1  0  0  0  0
 32 58  1  0  0  0  0
 33 35  2  0  0  0  0
 33 59  1  0  0  0  0
 34 35  1  0  0  0  0
 34 60  1  0  0  0  0
 35 61  1  0  0  0  0
M  END
> <PUBCHEM_COMPOUND_CID>
44411663

> <PUBCHEM_COMPOUND_CANONICALIZED>
1

> <PUBCHEM_CACTVS_COMPLEXITY>
782

> <PUBCHEM_CACTVS_HBOND_ACCEPTOR>
6

> <PUBCHEM_CACTVS_HBOND_DONOR>
0

> <PUBCHEM_CACTVS_ROTATABLE_BOND>
6

> <PUBCHEM_CACTVS_SUBSKEYS>
AAADceB7MYBAAAAAAAAAAAAAAAAAAAAAAAA8eMECAAAAAACx9AAAHQQAQAAADQjBXgw8wfIIEAKgAzRnRHDCgDAxAiAI2Dg4ZJgIIOLAkZGEIAhggADIyAcQgMAOgAACAAAGAAAAAAQAAAwAAAAAAAAAAA==

> <PUBCHEM_IUPAC_OPENEYE_NAME>
8-[2-[[4-[2-(2,4-difluorophenyl)ethyl]-1-piperidyl]sulfonyl]phenyl]quinoline

> <PUBCHEM_IUPAC_CAS_NAME>
8-[2-[[4-[2-(2,4-difluorophenyl)ethyl]-1-piperidinyl]sulfonyl]phenyl]quinoline

> <PUBCHEM_IUPAC_NAME_MARKUP>
8-[2-[4-[2-(2,4-difluorophenyl)ethyl]piperidin-1-yl]sulfonylphenyl]quinoline

> <PUBCHEM_IUPAC_NAME>
8-[2-[4-[2-(2,4-difluorophenyl)ethyl]piperidin-1-yl]sulfonylphenyl]quinoline

> <PUBCHEM_IUPAC_SYSTEMATIC_NAME>
8-[2-[4-[2-[2,4-bis(fluoranyl)phenyl]ethyl]piperidin-1-yl]sulfonylphenyl]quinoline

> <PUBCHEM_IUPAC_TRADITIONAL_NAME>
8-[2-[4-[2-(2,4-difluorophenyl)ethyl]piperidino]sulfonylphenyl]quinoline

> <PUBCHEM_IUPAC_INCHI>
InChI=1S/C28H26F2N2O2S/c29-23-13-12-21(26(30)19-23)11-10-20-14-17-32(18-15-20)35(33,34)27-9-2-1-7-24(27)25-8-3-5-22-6-4-16-31-28(22)25/h1-9,12-13,16,19-20H,10-11,14-15,17-18H2

> <PUBCHEM_IUPAC_INCHIKEY>
JFAGEIIMBOIGHW-UHFFFAOYSA-N

> <PUBCHEM_XLOGP3_AA>
6.4

> <PUBCHEM_EXACT_MASS>
492.16830557

> <PUBCHEM_MOLECULAR_FORMULA>
C28H26F2N2O2S

> <PUBCHEM_MOLECULAR_WEIGHT>
492.6

> <PUBCHEM_OPENEYE_CAN_SMILES>
C1CN(CCC1CCC2=C(C=C(C=C2)F)F)S(=O)(=O)C3=CC=CC=C3C4=CC=CC5=C4N=CC=C5

> <PUBCHEM_OPENEYE_ISO_SMILES>
C1CN(CCC1CCC2=C(C=C(C=C2)F)F)S(=O)(=O)C3=CC=CC=C3C4=CC=CC5=C4N=CC=C5

> <PUBCHEM_CACTVS_TPSA>
58.6

> <PUBCHEM_MONOISOTOPIC_WEIGHT>
492.16830557

> <PUBCHEM_TOTAL_CHARGE>
0

> <PUBCHEM_HEAVY_ATOM_COUNT>
35

> <PUBCHEM_ATOM_DEF_STEREO_COUNT>
0

> <PUBCHEM_ATOM_UDEF_STEREO_COUNT>
0

> <PUBCHEM_BOND_DEF_STEREO_COUNT>
0

> <PUBCHEM_BOND_UDEF_STEREO_COUNT>
0

> <PUBCHEM_ISOTOPIC_ATOM_COUNT>
0

> <PUBCHEM_COMPONENT_COUNT>
1

> <PUBCHEM_CACTVS_TAUTO_COUNT>
-1

> <PUBCHEM_COORDINATE_TYPE>
1
5
255

> <PUBCHEM_BONDANNOTATIONS>
15  17  8
15  18  8
16  19  8
16  20  8
17  22  8
18  23  8
19  25  8
20  26  8
21  27  8
21  28  8
22  24  8
23  24  8
25  29  8
26  29  8
27  30  8
28  31  8
30  32  8
30  33  8
31  32  8
33  35  8
34  35  8
7  27  8
7  34  8

$$$$
