118719807
  -OEChem-09292322362D

 66 69  0     0  0  0  0  0  0999 V2000
    7.4805    4.4807    0.0000 O   0  0  0  0  0  0  0  0  0  0  0  0
    4.3159    3.0717    0.0000 N   0  0  0  0  0  0  0  0  0  0  0  0
    5.4915    4.6897    0.0000 N   0  0  0  0  0  0  0  0  0  0  0  0
    2.8660   -2.7213    0.0000 N   0  0  0  0  0  0  0  0  0  0  0  0
    2.3660   -1.1825    0.0000 N   0  0  0  0  0  0  0  0  0  0  0  0
    2.0570   -2.1335    0.0000 N   0  0  0  0  0  0  0  0  0  0  0  0
    2.8660   -6.7213    0.0000 N   0  0  0  0  0  0  0  0  0  0  0  0
    3.9092    3.9852    0.0000 C   0  0  0  0  0  0  0  0  0  0  0  0
    5.3104    2.9672    0.0000 C   0  0  0  0  0  0  0  0  0  0  0  0
    4.4970    4.7942    0.0000 C   0  0  0  0  0  0  0  0  0  0  0  0
    5.8982    3.7762    0.0000 C   0  0  0  0  0  0  0  0  0  0  0  0
    3.7281    2.2627    0.0000 C   0  0  0  0  0  0  0  0  0  0  0  0
    4.1349    1.3491    0.0000 C   0  0  0  0  0  0  0  0  0  0  0  0
    6.0793    5.4987    0.0000 C   0  0  0  0  0  0  0  0  0  0  0  0
    3.5471    0.5401    0.0000 C   0  0  0  0  0  0  0  0  0  0  0  0
    3.9538   -0.3734    0.0000 C   0  0  0  0  0  0  0  0  0  0  0  0
    7.0738    5.3942    0.0000 C   0  0  0  0  0  0  0  0  0  0  0  0
    5.6725    6.4123    0.0000 C   0  0  0  0  0  0  0  0  0  0  0  0
    3.3660   -1.1825    0.0000 C   0  0  0  0  0  0  0  0  0  0  0  0
    7.6616    6.2032    0.0000 C   0  0  0  0  0  0  0  0  0  0  0  0
    6.2603    7.2213    0.0000 C   0  0  0  0  0  0  0  0  0  0  0  0
    7.2548    7.1168    0.0000 C   0  0  0  0  0  0  0  0  0  0  0  0
    3.6750   -2.1335    0.0000 C   0  0  0  0  0  0  0  0  0  0  0  0
    2.8660   -3.7213    0.0000 C   0  0  0  0  0  0  0  0  0  0  0  0
    8.4750    4.3761    0.0000 C   0  0  0  0  0  0  0  0  0  0  0  0
    2.0000   -4.2213    0.0000 C   0  0  0  0  0  0  0  0  0  0  0  0
    3.7320   -4.2213    0.0000 C   0  0  0  0  0  0  0  0  0  0  0  0
    2.8660   -5.7213    0.0000 C   0  0  0  0  0  0  0  0  0  0  0  0
    2.0000   -5.2213    0.0000 C   0  0  0  0  0  0  0  0  0  0  0  0
    3.7320   -5.2213    0.0000 C   0  0  0  0  0  0  0  0  0  0  0  0
    2.0000   -7.2213    0.0000 C   0  0  0  0  0  0  0  0  0  0  0  0
    3.7320   -7.2213    0.0000 C   0  0  0  0  0  0  0  0  0  0  0  0
    3.4785    4.4312    0.0000 H   0  0  0  0  0  0  0  0  0  0  0  0
    3.3952    3.6385    0.0000 H   0  0  0  0  0  0  0  0  0  0  0  0
    5.1395    2.3712    0.0000 H   0  0  0  0  0  0  0  0  0  0  0  0
    5.8677    2.6954    0.0000 H   0  0  0  0  0  0  0  0  0  0  0  0
    4.6678    5.3902    0.0000 H   0  0  0  0  0  0  0  0  0  0  0  0
    3.9397    5.0660    0.0000 H   0  0  0  0  0  0  0  0  0  0  0  0
    6.3289    3.3302    0.0000 H   0  0  0  0  0  0  0  0  0  0  0  0
    6.4122    4.1229    0.0000 H   0  0  0  0  0  0  0  0  0  0  0  0
    3.2974    2.7087    0.0000 H   0  0  0  0  0  0  0  0  0  0  0  0
    3.2141    1.9160    0.0000 H   0  0  0  0  0  0  0  0  0  0  0  0
    4.5656    0.9031    0.0000 H   0  0  0  0  0  0  0  0  0  0  0  0
    4.6489    1.6958    0.0000 H   0  0  0  0  0  0  0  0  0  0  0  0
    3.1164    0.9861    0.0000 H   0  0  0  0  0  0  0  0  0  0  0  0
    3.0331    0.1934    0.0000 H   0  0  0  0  0  0  0  0  0  0  0  0
    4.3845   -0.8194    0.0000 H   0  0  0  0  0  0  0  0  0  0  0  0
    4.4678   -0.0267    0.0000 H   0  0  0  0  0  0  0  0  0  0  0  0
    5.0559    6.4771    0.0000 H   0  0  0  0  0  0  0  0  0  0  0  0
    8.2782    6.1384    0.0000 H   0  0  0  0  0  0  0  0  0  0  0  0
    6.0081    7.7877    0.0000 H   0  0  0  0  0  0  0  0  0  0  0  0
    7.6193    7.6184    0.0000 H   0  0  0  0  0  0  0  0  0  0  0  0
    4.2647   -2.3251    0.0000 H   0  0  0  0  0  0  0  0  0  0  0  0
    8.4102    3.7595    0.0000 H   0  0  0  0  0  0  0  0  0  0  0  0
    9.0916    4.3113    0.0000 H   0  0  0  0  0  0  0  0  0  0  0  0
    8.5398    4.9927    0.0000 H   0  0  0  0  0  0  0  0  0  0  0  0
    1.4631   -3.9113    0.0000 H   0  0  0  0  0  0  0  0  0  0  0  0
    4.2690   -3.9113    0.0000 H   0  0  0  0  0  0  0  0  0  0  0  0
    1.4631   -5.5313    0.0000 H   0  0  0  0  0  0  0  0  0  0  0  0
    4.2690   -5.5313    0.0000 H   0  0  0  0  0  0  0  0  0  0  0  0
    1.6900   -6.6844    0.0000 H   0  0  0  0  0  0  0  0  0  0  0  0
    1.4631   -7.5313    0.0000 H   0  0  0  0  0  0  0  0  0  0  0  0
    2.3100   -7.7582    0.0000 H   0  0  0  0  0  0  0  0  0  0  0  0
    3.4220   -7.7582    0.0000 H   0  0  0  0  0  0  0  0  0  0  0  0
    4.2690   -7.5313    0.0000 H   0  0  0  0  0  0  0  0  0  0  0  0
    4.0420   -6.6844    0.0000 H   0  0  0  0  0  0  0  0  0  0  0  0
  1 17  1  0  0  0  0
  1 25  1  0  0  0  0
  2  8  1  0  0  0  0
  2  9  1  0  0  0  0
  2 12  1  0  0  0  0
  3 10  1  0  0  0  0
  3 11  1  0  0  0  0
  3 14  1  0  0  0  0
  4  6  1  0  0  0  0
  4 23  1  0  0  0  0
  4 24  1  0  0  0  0
  5  6  2  0  0  0  0
  5 19  1  0  0  0  0
  7 28  1  0  0  0  0
  7 31  1  0  0  0  0
  7 32  1  0  0  0  0
  8 10  1  0  0  0  0
  8 33  1  0  0  0  0
  8 34  1  0  0  0  0
  9 11  1  0  0  0  0
  9 35  1  0  0  0  0
  9 36  1  0  0  0  0
 10 37  1  0  0  0  0
 10 38  1  0  0  0  0
 11 39  1  0  0  0  0
 11 40  1  0  0  0  0
 12 13  1  0  0  0  0
 12 41  1  0  0  0  0
 12 42  1  0  0  0  0
 13 15  1  0  0  0  0
 13 43  1  0  0  0  0
 13 44  1  0  0  0  0
 14 17  1  0  0  0  0
 14 18  2  0  0  0  0
 15 16  1  0  0  0  0
 15 45  1  0  0  0  0
 15 46  1  0  0  0  0
 16 19  1  0  0  0  0
 16 47  1  0  0  0  0
 16 48  1  0  0  0  0
 17 20  2  0  0  0  0
 18 21  1  0  0  0  0
 18 49  1  0  0  0  0
 19 23  2  0  0  0  0
 20 22  1  0  0  0  0
 20 50  1  0  0  0  0
 21 22  2  0  0  0  0
 21 51  1  0  0  0  0
 22 52  1  0  0  0  0
 23 53  1  0  0  0  0
 24 26  2  0  0  0  0
 24 27  1  0  0  0  0
 25 54  1  0  0  0  0
 25 55  1  0  0  0  0
 25 56  1  0  0  0  0
 26 29  1  0  0  0  0
 26 57  1  0  0  0  0
 27 30  2  0  0  0  0
 27 58  1  0  0  0  0
 28 29  2  0  0  0  0
 28 30  1  0  0  0  0
 29 59  1  0  0  0  0
 30 60  1  0  0  0  0
 31 61  1  0  0  0  0
 31 62  1  0  0  0  0
 31 63  1  0  0  0  0
 32 64  1  0  0  0  0
 32 65  1  0  0  0  0
 32 66  1  0  0  0  0
M  END
> <PUBCHEM_COMPOUND_CID>
118719807

> <PUBCHEM_COMPOUND_CANONICALIZED>
1

> <PUBCHEM_CACTVS_COMPLEXITY>
533

> <PUBCHEM_CACTVS_HBOND_ACCEPTOR>
6

> <PUBCHEM_CACTVS_HBOND_DONOR>
0

> <PUBCHEM_CACTVS_ROTATABLE_BOND>
9

> <PUBCHEM_CACTVS_SUBSKEYS>
AAADcfB7oAAAAAAAAAAAAAAAAAAAAWAAAAA8YIAAAAAAAAAB0AAAHgAIAAAACAzBlgY+xpMIBACiATRnRACCDCQxsgAYmAA/fIgOZmLEsZuVMChkwBHY6AeQQAAAAACAAAAAEAAAAQAAAAAgAAAAAAAAAA==

> <PUBCHEM_IUPAC_OPENEYE_NAME>
4-[4-[4-[4-(2-methoxyphenyl)piperazin-1-yl]butyl]triazol-1-yl]-N,N-dimethyl-aniline

> <PUBCHEM_IUPAC_CAS_NAME>
4-[4-[4-[4-(2-methoxyphenyl)-1-piperazinyl]butyl]-1-triazolyl]-N,N-dimethylaniline

> <PUBCHEM_IUPAC_NAME_MARKUP>
4-[4-[4-[4-(2-methoxyphenyl)piperazin-1-yl]butyl]triazol-1-yl]-<I>N</I>,<I>N</I>-dimethylaniline

> <PUBCHEM_IUPAC_NAME>
4-[4-[4-[4-(2-methoxyphenyl)piperazin-1-yl]butyl]triazol-1-yl]-N,N-dimethylaniline

> <PUBCHEM_IUPAC_SYSTEMATIC_NAME>
4-[4-[4-[4-(2-methoxyphenyl)piperazin-1-yl]butyl]-1,2,3-triazol-1-yl]-N,N-dimethyl-aniline

> <PUBCHEM_IUPAC_TRADITIONAL_NAME>
[4-[4-[4-[4-(2-methoxyphenyl)piperazino]butyl]triazol-1-yl]phenyl]-dimethyl-amine

> <PUBCHEM_IUPAC_INCHI>
InChI=1S/C25H34N6O/c1-28(2)22-11-13-23(14-12-22)31-20-21(26-27-31)8-6-7-15-29-16-18-30(19-17-29)24-9-4-5-10-25(24)32-3/h4-5,9-14,20H,6-8,15-19H2,1-3H3

> <PUBCHEM_IUPAC_INCHIKEY>
JGDAHRAXXNLDGS-UHFFFAOYSA-N

> <PUBCHEM_XLOGP3_AA>
4.1

> <PUBCHEM_EXACT_MASS>
434.27940973

> <PUBCHEM_MOLECULAR_FORMULA>
C25H34N6O

> <PUBCHEM_MOLECULAR_WEIGHT>
434.6

> <PUBCHEM_OPENEYE_CAN_SMILES>
CN(C)C1=CC=C(C=C1)N2C=C(N=N2)CCCCN3CCN(CC3)C4=CC=CC=C4OC

> <PUBCHEM_OPENEYE_ISO_SMILES>
CN(C)C1=CC=C(C=C1)N2C=C(N=N2)CCCCN3CCN(CC3)C4=CC=CC=C4OC

> <PUBCHEM_CACTVS_TPSA>
49.7

> <PUBCHEM_MONOISOTOPIC_WEIGHT>
434.27940973

> <PUBCHEM_TOTAL_CHARGE>
0

> <PUBCHEM_HEAVY_ATOM_COUNT>
32

> <PUBCHEM_ATOM_DEF_STEREO_COUNT>
0

> <PUBCHEM_ATOM_UDEF_STEREO_COUNT>
0

> <PUBCHEM_BOND_DEF_STEREO_COUNT>
0

> <PUBCHEM_BOND_UDEF_STEREO_COUNT>
0

> <PUBCHEM_ISOTOPIC_ATOM_COUNT>
0

> <PUBCHEM_COMPONENT_COUNT>
1

> <PUBCHEM_CACTVS_TAUTO_COUNT>
-1

> <PUBCHEM_COORDINATE_TYPE>
1
5
255

> <PUBCHEM_BONDANNOTATIONS>
14  17  8
14  18  8
17  20  8
18  21  8
19  23  8
20  22  8
21  22  8
24  26  8
24  27  8
26  29  8
27  30  8
28  29  8
28  30  8
4  23  8
4  6  8
5  19  8
5  6  8

$$$$
