10456040
  -OEChem-09292322202D

 63 67  0     0  0  0  0  0  0999 V2000
    9.2619    1.4680    0.0000 O   0  0  0  0  0  0  0  0  0  0  0  0
   15.2619   -1.9961    0.0000 O   0  0  0  0  0  0  0  0  0  0  0  0
   12.2619   -0.2640    0.0000 N   0  0  0  0  0  0  0  0  0  0  0  0
   14.2619   -0.2640    0.0000 N   0  0  0  0  0  0  0  0  0  0  0  0
    4.6783    2.2728    0.0000 N   0  0  0  0  0  0  0  0  0  0  0  0
    4.6783    0.6633    0.0000 N   0  0  0  0  0  0  0  0  0  0  0  0
   12.7619    0.6020    0.0000 C   0  0  0  0  0  0  0  0  0  0  0  0
   12.7619   -1.1300    0.0000 C   0  0  0  0  0  0  0  0  0  0  0  0
   13.7619    0.6020    0.0000 C   0  0  0  0  0  0  0  0  0  0  0  0
   13.7619   -1.1300    0.0000 C   0  0  0  0  0  0  0  0  0  0  0  0
   11.2619   -0.2640    0.0000 C   0  0  0  0  0  0  0  0  0  0  0  0
   10.7619    0.6020    0.0000 C   0  0  0  0  0  0  0  0  0  0  0  0
   15.2619   -0.2640    0.0000 C   0  0  0  0  0  0  0  0  0  0  0  0
    9.7619    0.6020    0.0000 C   0  0  0  0  0  0  0  0  0  0  0  0
   15.7619   -1.1300    0.0000 C   0  0  0  0  0  0  0  0  0  0  0  0
   15.7619    0.6020    0.0000 C   0  0  0  0  0  0  0  0  0  0  0  0
   16.7619   -1.1300    0.0000 C   0  0  0  0  0  0  0  0  0  0  0  0
   16.7619    0.6020    0.0000 C   0  0  0  0  0  0  0  0  0  0  0  0
   17.2619   -0.2640    0.0000 C   0  0  0  0  0  0  0  0  0  0  0  0
    8.2619    1.4680    0.0000 C   0  0  0  0  0  0  0  0  0  0  0  0
    7.7619    0.6020    0.0000 C   0  0  0  0  0  0  0  0  0  0  0  0
    7.7619    2.3341    0.0000 C   0  0  0  0  0  0  0  0  0  0  0  0
   15.7619   -2.8621    0.0000 C   0  0  0  0  0  0  0  0  0  0  0  0
    6.2619    1.4680    0.0000 C   0  0  0  0  0  0  0  0  0  0  0  0
    6.7619    0.6020    0.0000 C   0  0  0  0  0  0  0  0  0  0  0  0
    6.7619    2.3341    0.0000 C   0  0  0  0  0  0  0  0  0  0  0  0
    5.2619    1.4680    0.0000 C   0  0  0  0  0  0  0  0  0  0  0  0
    3.7320    1.9680    0.0000 C   0  0  0  0  0  0  0  0  0  0  0  0
    3.7320    0.9680    0.0000 C   0  0  0  0  0  0  0  0  0  0  0  0
    2.8660    2.4680    0.0000 C   0  0  0  0  0  0  0  0  0  0  0  0
    2.8660    0.4680    0.0000 C   0  0  0  0  0  0  0  0  0  0  0  0
    2.0000    1.9680    0.0000 C   0  0  0  0  0  0  0  0  0  0  0  0
    2.0000    0.9680    0.0000 C   0  0  0  0  0  0  0  0  0  0  0  0
   12.8695    1.2126    0.0000 H   0  0  0  0  0  0  0  0  0  0  0  0
   12.1793    0.8141    0.0000 H   0  0  0  0  0  0  0  0  0  0  0  0
   12.1793   -1.3421    0.0000 H   0  0  0  0  0  0  0  0  0  0  0  0
   12.8695   -1.7406    0.0000 H   0  0  0  0  0  0  0  0  0  0  0  0
   14.3445    0.8141    0.0000 H   0  0  0  0  0  0  0  0  0  0  0  0
   13.6542    1.2126    0.0000 H   0  0  0  0  0  0  0  0  0  0  0  0
   13.6542   -1.7406    0.0000 H   0  0  0  0  0  0  0  0  0  0  0  0
   14.3445   -1.3421    0.0000 H   0  0  0  0  0  0  0  0  0  0  0  0
   10.6793   -0.4761    0.0000 H   0  0  0  0  0  0  0  0  0  0  0  0
   11.3695   -0.8746    0.0000 H   0  0  0  0  0  0  0  0  0  0  0  0
   11.3445    0.8141    0.0000 H   0  0  0  0  0  0  0  0  0  0  0  0
   10.6542    1.2126    0.0000 H   0  0  0  0  0  0  0  0  0  0  0  0
    9.1793    0.3900    0.0000 H   0  0  0  0  0  0  0  0  0  0  0  0
    9.8695   -0.0086    0.0000 H   0  0  0  0  0  0  0  0  0  0  0  0
   15.4519    1.1389    0.0000 H   0  0  0  0  0  0  0  0  0  0  0  0
   17.0719   -1.6670    0.0000 H   0  0  0  0  0  0  0  0  0  0  0  0
   17.0719    1.1389    0.0000 H   0  0  0  0  0  0  0  0  0  0  0  0
   17.8819   -0.2640    0.0000 H   0  0  0  0  0  0  0  0  0  0  0  0
    8.0719    0.0651    0.0000 H   0  0  0  0  0  0  0  0  0  0  0  0
    8.0719    2.8710    0.0000 H   0  0  0  0  0  0  0  0  0  0  0  0
   15.2249   -3.1721    0.0000 H   0  0  0  0  0  0  0  0  0  0  0  0
   16.0719   -3.3990    0.0000 H   0  0  0  0  0  0  0  0  0  0  0  0
   16.2988   -2.5521    0.0000 H   0  0  0  0  0  0  0  0  0  0  0  0
    6.4519    0.0651    0.0000 H   0  0  0  0  0  0  0  0  0  0  0  0
    6.4519    2.8710    0.0000 H   0  0  0  0  0  0  0  0  0  0  0  0
    4.8709    2.8621    0.0000 H   0  0  0  0  0  0  0  0  0  0  0  0
    2.8660    3.0880    0.0000 H   0  0  0  0  0  0  0  0  0  0  0  0
    2.8660   -0.1520    0.0000 H   0  0  0  0  0  0  0  0  0  0  0  0
    1.4631    2.2780    0.0000 H   0  0  0  0  0  0  0  0  0  0  0  0
    1.4631    0.6580    0.0000 H   0  0  0  0  0  0  0  0  0  0  0  0
  1 14  1  0  0  0  0
  1 20  1  0  0  0  0
  2 15  1  0  0  0  0
  2 23  1  0  0  0  0
  3  7  1  0  0  0  0
  3  8  1  0  0  0  0
  3 11  1  0  0  0  0
  4  9  1  0  0  0  0
  4 10  1  0  0  0  0
  4 13  1  0  0  0  0
  5 27  1  0  0  0  0
  5 28  1  0  0  0  0
  5 59  1  0  0  0  0
  6 27  2  0  0  0  0
  6 29  1  0  0  0  0
  7  9  1  0  0  0  0
  7 34  1  0  0  0  0
  7 35  1  0  0  0  0
  8 10  1  0  0  0  0
  8 36  1  0  0  0  0
  8 37  1  0  0  0  0
  9 38  1  0  0  0  0
  9 39  1  0  0  0  0
 10 40  1  0  0  0  0
 10 41  1  0  0  0  0
 11 12  1  0  0  0  0
 11 42  1  0  0  0  0
 11 43  1  0  0  0  0
 12 14  1  0  0  0  0
 12 44  1  0  0  0  0
 12 45  1  0  0  0  0
 13 15  1  0  0  0  0
 13 16  2  0  0  0  0
 14 46  1  0  0  0  0
 14 47  1  0  0  0  0
 15 17  2  0  0  0  0
 16 18  1  0  0  0  0
 16 48  1  0  0  0  0
 17 19  1  0  0  0  0
 17 49  1  0  0  0  0
 18 19  2  0  0  0  0
 18 50  1  0  0  0  0
 19 51  1  0  0  0  0
 20 21  2  0  0  0  0
 20 22  1  0  0  0  0
 21 25  1  0  0  0  0
 21 52  1  0  0  0  0
 22 26  2  0  0  0  0
 22 53  1  0  0  0  0
 23 54  1  0  0  0  0
 23 55  1  0  0  0  0
 23 56  1  0  0  0  0
 24 25  2  0  0  0  0
 24 26  1  0  0  0  0
 24 27  1  0  0  0  0
 25 57  1  0  0  0  0
 26 58  1  0  0  0  0
 28 29  1  0  0  0  0
 28 30  2  0  0  0  0
 29 31  2  0  0  0  0
 30 32  1  0  0  0  0
 30 60  1  0  0  0  0
 31 33  1  0  0  0  0
 31 61  1  0  0  0  0
 32 33  2  0  0  0  0
 32 62  1  0  0  0  0
 33 63  1  0  0  0  0
M  END
> <PUBCHEM_COMPOUND_CID>
10456040

> <PUBCHEM_COMPOUND_CANONICALIZED>
1

> <PUBCHEM_CACTVS_COMPLEXITY>
577

> <PUBCHEM_CACTVS_HBOND_ACCEPTOR>
5

> <PUBCHEM_CACTVS_HBOND_DONOR>
1

> <PUBCHEM_CACTVS_ROTATABLE_BOND>
8

> <PUBCHEM_CACTVS_SUBSKEYS>
AAADceB7sAAAAAAAAAAAAAAAAAAAAWAAAAA8YMEAAAAAAFgB9AAAHgAQAAAADAzhnwYz1rfJlACgAyZiZACCiC2hMqAJmSA/fJiObqLEuZuXOCju0BPY6CeQ0AIOIAAAAAAAECBAAAAAAAAgQAAAAAAAAA==

> <PUBCHEM_IUPAC_OPENEYE_NAME>
2-[4-[3-[4-(2-methoxyphenyl)piperazin-1-yl]propoxy]phenyl]-1H-benzimidazole

> <PUBCHEM_IUPAC_CAS_NAME>
2-[4-[3-[4-(2-methoxyphenyl)-1-piperazinyl]propoxy]phenyl]-1H-benzimidazole

> <PUBCHEM_IUPAC_NAME_MARKUP>
2-[4-[3-[4-(2-methoxyphenyl)piperazin-1-yl]propoxy]phenyl]-1<I>H</I>-benzimidazole

> <PUBCHEM_IUPAC_NAME>
2-[4-[3-[4-(2-methoxyphenyl)piperazin-1-yl]propoxy]phenyl]-1H-benzimidazole

> <PUBCHEM_IUPAC_SYSTEMATIC_NAME>
2-[4-[3-[4-(2-methoxyphenyl)piperazin-1-yl]propoxy]phenyl]-1H-benzimidazole

> <PUBCHEM_IUPAC_TRADITIONAL_NAME>
2-[4-[3-[4-(2-methoxyphenyl)piperazino]propoxy]phenyl]-1H-benzimidazole

> <PUBCHEM_IUPAC_INCHI>
InChI=1S/C27H30N4O2/c1-32-26-10-5-4-9-25(26)31-18-16-30(17-19-31)15-6-20-33-22-13-11-21(12-14-22)27-28-23-7-2-3-8-24(23)29-27/h2-5,7-14H,6,15-20H2,1H3,(H,28,29)

> <PUBCHEM_IUPAC_INCHIKEY>
WWABSSMRPUCUEJ-UHFFFAOYSA-N

> <PUBCHEM_XLOGP3_AA>
5.1

> <PUBCHEM_EXACT_MASS>
442.23687621

> <PUBCHEM_MOLECULAR_FORMULA>
C27H30N4O2

> <PUBCHEM_MOLECULAR_WEIGHT>
442.6

> <PUBCHEM_OPENEYE_CAN_SMILES>
COC1=CC=CC=C1N2CCN(CC2)CCCOC3=CC=C(C=C3)C4=NC5=CC=CC=C5N4

> <PUBCHEM_OPENEYE_ISO_SMILES>
COC1=CC=CC=C1N2CCN(CC2)CCCOC3=CC=C(C=C3)C4=NC5=CC=CC=C5N4

> <PUBCHEM_CACTVS_TPSA>
53.6

> <PUBCHEM_MONOISOTOPIC_WEIGHT>
442.23687621

> <PUBCHEM_TOTAL_CHARGE>
0

> <PUBCHEM_HEAVY_ATOM_COUNT>
33

> <PUBCHEM_ATOM_DEF_STEREO_COUNT>
0

> <PUBCHEM_ATOM_UDEF_STEREO_COUNT>
0

> <PUBCHEM_BOND_DEF_STEREO_COUNT>
0

> <PUBCHEM_BOND_UDEF_STEREO_COUNT>
0

> <PUBCHEM_ISOTOPIC_ATOM_COUNT>
0

> <PUBCHEM_COMPONENT_COUNT>
1

> <PUBCHEM_CACTVS_TAUTO_COUNT>
-1

> <PUBCHEM_COORDINATE_TYPE>
1
5
255

> <PUBCHEM_BONDANNOTATIONS>
13  15  8
13  16  8
15  17  8
16  18  8
17  19  8
18  19  8
20  21  8
20  22  8
21  25  8
22  26  8
24  25  8
24  26  8
28  29  8
28  30  8
29  31  8
30  32  8
31  33  8
32  33  8
5  27  8
5  28  8
6  27  8
6  29  8

$$$$
