71658077
  -OEChem-09292322332D

 66 68  0     1  0  0  0  0  0999 V2000
    2.8660   -6.1078    0.0000 O   0  0  0  0  0  0  0  0  0  0  0  0
    3.7126    2.1897    0.0000 O   0  0  0  0  0  0  0  0  0  0  0  0
    6.3159    7.5955    0.0000 O   0  0  0  0  0  0  0  0  0  0  0  0
    5.0981   -2.9172    0.0000 N   0  0  3  0  0  0  0  0  0  0  0  0
    4.5981   -5.1078    0.0000 N   0  0  3  0  0  0  0  0  0  0  0  0
    5.2731    1.4382    0.0000 N   0  0  0  0  0  0  0  0  0  0  0  0
    4.0981   -2.9172    0.0000 C   0  0  0  0  0  0  0  0  0  0  0  0
    5.7216   -3.6990    0.0000 C   0  0  0  0  0  0  0  0  0  0  0  0
    3.4746   -3.6990    0.0000 C   0  0  0  0  0  0  0  0  0  0  0  0
    5.4990   -4.6739    0.0000 C   0  0  0  0  0  0  0  0  0  0  0  0
    3.6971   -4.6739    0.0000 C   0  0  0  0  0  0  0  0  0  0  0  0
    5.5320   -2.0162    0.0000 C   0  0  0  0  0  0  0  0  0  0  0  0
    4.9686   -1.1900    0.0000 C   0  0  0  0  0  0  0  0  0  0  0  0
    4.5981   -6.1078    0.0000 C   0  0  0  0  0  0  0  0  0  0  0  0
    5.4025   -0.2890    0.0000 C   0  0  0  0  0  0  0  0  0  0  0  0
    4.8392    0.5372    0.0000 C   0  0  0  0  0  0  0  0  0  0  0  0
    3.7320   -6.6078    0.0000 C   0  0  0  0  0  0  0  0  0  0  0  0
    5.4641   -6.6078    0.0000 C   0  0  0  0  0  0  0  0  0  0  0  0
    3.7320   -7.6078    0.0000 C   0  0  0  0  0  0  0  0  0  0  0  0
    5.4641   -7.6078    0.0000 C   0  0  0  0  0  0  0  0  0  0  0  0
    4.5981   -8.1078    0.0000 C   0  0  0  0  0  0  0  0  0  0  0  0
    4.7098    2.2645    0.0000 C   0  0  0  0  0  0  0  0  0  0  0  0
    5.1436    3.1654    0.0000 C   0  0  0  0  0  0  0  0  0  0  0  0
    2.0000   -6.6078    0.0000 C   0  0  0  0  0  0  0  0  0  0  0  0
    6.1408    3.2402    0.0000 C   0  0  0  0  0  0  0  0  0  0  0  0
    4.5803    3.9917    0.0000 C   0  0  0  0  0  0  0  0  0  0  0  0
    6.0114    4.9674    0.0000 C   0  0  0  0  0  0  0  0  0  0  0  0
    6.5747    4.1411    0.0000 C   0  0  0  0  0  0  0  0  0  0  0  0
    5.0142    4.8926    0.0000 C   0  0  0  0  0  0  0  0  0  0  0  0
    6.4453    5.8683    0.0000 C   0  0  0  0  0  0  0  0  0  0  0  0
    5.8820    6.6946    0.0000 C   0  0  0  0  0  0  0  0  0  0  0  0
    4.2360   -2.3127    0.0000 H   0  0  0  0  0  0  0  0  0  0  0  0
    3.5395   -2.6482    0.0000 H   0  0  0  0  0  0  0  0  0  0  0  0
    6.2802   -3.9680    0.0000 H   0  0  0  0  0  0  0  0  0  0  0  0
    6.1081   -3.2143    0.0000 H   0  0  0  0  0  0  0  0  0  0  0  0
    3.0880   -3.2143    0.0000 H   0  0  0  0  0  0  0  0  0  0  0  0
    2.9160   -3.9680    0.0000 H   0  0  0  0  0  0  0  0  0  0  0  0
    5.6370   -5.2784    0.0000 H   0  0  0  0  0  0  0  0  0  0  0  0
    6.1190   -4.6739    0.0000 H   0  0  0  0  0  0  0  0  0  0  0  0
    3.0771   -4.6739    0.0000 H   0  0  0  0  0  0  0  0  0  0  0  0
    3.5591   -5.2784    0.0000 H   0  0  0  0  0  0  0  0  0  0  0  0
    6.0354   -2.3781    0.0000 H   0  0  0  0  0  0  0  0  0  0  0  0
    5.9758   -1.5833    0.0000 H   0  0  0  0  0  0  0  0  0  0  0  0
    4.4652   -0.8280    0.0000 H   0  0  0  0  0  0  0  0  0  0  0  0
    4.5248   -1.6229    0.0000 H   0  0  0  0  0  0  0  0  0  0  0  0
    5.9059   -0.6509    0.0000 H   0  0  0  0  0  0  0  0  0  0  0  0
    5.8464    0.1439    0.0000 H   0  0  0  0  0  0  0  0  0  0  0  0
    4.3358    0.8992    0.0000 H   0  0  0  0  0  0  0  0  0  0  0  0
    4.3954    0.1043    0.0000 H   0  0  0  0  0  0  0  0  0  0  0  0
    6.0010   -6.2978    0.0000 H   0  0  0  0  0  0  0  0  0  0  0  0
    3.1951   -7.9178    0.0000 H   0  0  0  0  0  0  0  0  0  0  0  0
    5.8914    1.4846    0.0000 H   0  0  0  0  0  0  0  0  0  0  0  0
    6.0010   -7.9178    0.0000 H   0  0  0  0  0  0  0  0  0  0  0  0
    4.5981   -8.7278    0.0000 H   0  0  0  0  0  0  0  0  0  0  0  0
    1.6900   -6.0709    0.0000 H   0  0  0  0  0  0  0  0  0  0  0  0
    1.4631   -6.9178    0.0000 H   0  0  0  0  0  0  0  0  0  0  0  0
    2.3100   -7.1447    0.0000 H   0  0  0  0  0  0  0  0  0  0  0  0
    6.4901    2.7279    0.0000 H   0  0  0  0  0  0  0  0  0  0  0  0
    3.9621    3.9453    0.0000 H   0  0  0  0  0  0  0  0  0  0  0  0
    7.1930    4.1875    0.0000 H   0  0  0  0  0  0  0  0  0  0  0  0
    4.6650    5.4049    0.0000 H   0  0  0  0  0  0  0  0  0  0  0  0
    6.9487    5.5064    0.0000 H   0  0  0  0  0  0  0  0  0  0  0  0
    6.8891    6.3012    0.0000 H   0  0  0  0  0  0  0  0  0  0  0  0
    5.3786    7.0565    0.0000 H   0  0  0  0  0  0  0  0  0  0  0  0
    5.4381    6.2617    0.0000 H   0  0  0  0  0  0  0  0  0  0  0  0
    5.9666    8.1078    0.0000 H   0  0  0  0  0  0  0  0  0  0  0  0
  1 17  1  0  0  0  0
  1 24  1  0  0  0  0
  2 22  2  0  0  0  0
  3 31  1  0  0  0  0
  3 66  1  0  0  0  0
  4  7  1  0  0  0  0
  4  8  1  0  0  0  0
  4 12  1  0  0  0  0
  5 10  1  0  0  0  0
  5 11  1  0  0  0  0
  5 14  1  0  0  0  0
  6 16  1  0  0  0  0
  6 22  1  0  0  0  0
  6 52  1  0  0  0  0
  7  9  1  0  0  0  0
  7 32  1  0  0  0  0
  7 33  1  0  0  0  0
  8 10  1  0  0  0  0
  8 34  1  0  0  0  0
  8 35  1  0  0  0  0
  9 11  1  0  0  0  0
  9 36  1  0  0  0  0
  9 37  1  0  0  0  0
 10 38  1  0  0  0  0
 10 39  1  0  0  0  0
 11 40  1  0  0  0  0
 11 41  1  0  0  0  0
 12 13  1  0  0  0  0
 12 42  1  0  0  0  0
 12 43  1  0  0  0  0
 13 15  1  0  0  0  0
 13 44  1  0  0  0  0
 13 45  1  0  0  0  0
 14 17  1  0  0  0  0
 14 18  2  0  0  0  0
 15 16  1  0  0  0  0
 15 46  1  0  0  0  0
 15 47  1  0  0  0  0
 16 48  1  0  0  0  0
 16 49  1  0  0  0  0
 17 19  2  0  0  0  0
 18 20  1  0  0  0  0
 18 50  1  0  0  0  0
 19 21  1  0  0  0  0
 19 51  1  0  0  0  0
 20 21  2  0  0  0  0
 20 53  1  0  0  0  0
 21 54  1  0  0  0  0
 22 23  1  0  0  0  0
 23 25  2  0  0  0  0
 23 26  1  0  0  0  0
 24 55  1  0  0  0  0
 24 56  1  0  0  0  0
 24 57  1  0  0  0  0
 25 28  1  0  0  0  0
 25 58  1  0  0  0  0
 26 29  2  0  0  0  0
 26 59  1  0  0  0  0
 27 28  2  0  0  0  0
 27 29  1  0  0  0  0
 27 30  1  0  0  0  0
 28 60  1  0  0  0  0
 29 61  1  0  0  0  0
 30 31  1  0  0  0  0
 30 62  1  0  0  0  0
 30 63  1  0  0  0  0
 31 64  1  0  0  0  0
 31 65  1  0  0  0  0
M  END
> <PUBCHEM_COMPOUND_CID>
71658077

> <PUBCHEM_COMPOUND_CANONICALIZED>
1

> <PUBCHEM_CACTVS_COMPLEXITY>
510

> <PUBCHEM_CACTVS_HBOND_ACCEPTOR>
5

> <PUBCHEM_CACTVS_HBOND_DONOR>
2

> <PUBCHEM_CACTVS_ROTATABLE_BOND>
10

> <PUBCHEM_CACTVS_SUBSKEYS>
AAADcfB7MAAAAAAAAAAAAAAAAAAAAAAAAAAwYAAABYAAAAABQAAAHgAQCAAADAzhmAYyxoPABgCIAiVSUACCCAAlIgAIiIEPbMgOdjLE9ZuVcShk1hHY6YeYyOCOQAAAAAAAEACAAAAAAAAgAAAAAAAAAA==

> <PUBCHEM_IUPAC_OPENEYE_NAME>
4-(2-hydroxyethyl)-N-[4-[4-(2-methoxyphenyl)-1,4-diazepan-1-yl]butyl]benzamide

> <PUBCHEM_IUPAC_CAS_NAME>
4-(2-hydroxyethyl)-N-[4-[4-(2-methoxyphenyl)-1,4-diazepan-1-yl]butyl]benzamide

> <PUBCHEM_IUPAC_NAME_MARKUP>
4-(2-hydroxyethyl)-<I>N</I>-[4-[4-(2-methoxyphenyl)-1,4-diazepan-1-yl]butyl]benzamide

> <PUBCHEM_IUPAC_NAME>
4-(2-hydroxyethyl)-N-[4-[4-(2-methoxyphenyl)-1,4-diazepan-1-yl]butyl]benzamide

> <PUBCHEM_IUPAC_SYSTEMATIC_NAME>
4-(2-hydroxyethyl)-N-[4-[4-(2-methoxyphenyl)-1,4-diazepan-1-yl]butyl]benzamide

> <PUBCHEM_IUPAC_TRADITIONAL_NAME>
4-(2-hydroxyethyl)-N-[4-[4-(2-methoxyphenyl)-1,4-diazepan-1-yl]butyl]benzamide

> <PUBCHEM_IUPAC_INCHI>
InChI=1S/C25H35N3O3/c1-31-24-8-3-2-7-23(24)28-17-6-16-27(18-19-28)15-5-4-14-26-25(30)22-11-9-21(10-12-22)13-20-29/h2-3,7-12,29H,4-6,13-20H2,1H3,(H,26,30)

> <PUBCHEM_IUPAC_INCHIKEY>
PITWYMITJRIVTR-UHFFFAOYSA-N

> <PUBCHEM_XLOGP3_AA>
3.4

> <PUBCHEM_EXACT_MASS>
425.26784199

> <PUBCHEM_MOLECULAR_FORMULA>
C25H35N3O3

> <PUBCHEM_MOLECULAR_WEIGHT>
425.6

> <PUBCHEM_OPENEYE_CAN_SMILES>
COC1=CC=CC=C1N2CCCN(CC2)CCCCNC(=O)C3=CC=C(C=C3)CCO

> <PUBCHEM_OPENEYE_ISO_SMILES>
COC1=CC=CC=C1N2CCCN(CC2)CCCCNC(=O)C3=CC=C(C=C3)CCO

> <PUBCHEM_CACTVS_TPSA>
65

> <PUBCHEM_MONOISOTOPIC_WEIGHT>
425.26784199

> <PUBCHEM_TOTAL_CHARGE>
0

> <PUBCHEM_HEAVY_ATOM_COUNT>
31

> <PUBCHEM_ATOM_DEF_STEREO_COUNT>
0

> <PUBCHEM_ATOM_UDEF_STEREO_COUNT>
0

> <PUBCHEM_BOND_DEF_STEREO_COUNT>
0

> <PUBCHEM_BOND_UDEF_STEREO_COUNT>
0

> <PUBCHEM_ISOTOPIC_ATOM_COUNT>
0

> <PUBCHEM_COMPONENT_COUNT>
1

> <PUBCHEM_CACTVS_TAUTO_COUNT>
-1

> <PUBCHEM_COORDINATE_TYPE>
1
5
255

> <PUBCHEM_BONDANNOTATIONS>
14  17  8
14  18  8
17  19  8
18  20  8
19  21  8
20  21  8
23  25  8
23  26  8
25  28  8
26  29  8
27  28  8
27  29  8

$$$$
