155523770
  -OEChem-09292322412D

 71 73  0     1  0  0  0  0  0999 V2000
    7.4985    0.0000    0.0000 Cl  0  0  0  0  0  0  0  0  0  0  0  0
    1.4030    8.6341    0.0000 F   0  0  0  0  0  0  0  0  0  0  0  0
    1.4030    4.6341    0.0000 O   0  0  0  0  0  0  0  0  0  0  0  0
   11.0632    4.6341    0.0000 O   0  0  0  0  0  0  0  0  0  0  0  0
    5.8671    5.6341    0.0000 N   0  0  3  0  0  0  0  0  0  0  0  0
   10.1972    6.1341    0.0000 N   0  0  0  0  0  0  0  0  0  0  0  0
    4.1350    5.6341    0.0000 C   0  0  3  0  0  0  0  0  0  0  0  0
    3.1350    5.6341    0.0000 C   0  0  3  0  0  0  0  0  0  0  0  0
    3.6350    4.7680    0.0000 C   0  0  0  0  0  0  0  0  0  0  0  0
    5.0010    6.1341    0.0000 C   0  0  0  0  0  0  0  0  0  0  0  0
    2.2690    6.1341    0.0000 C   0  0  0  0  0  0  0  0  0  0  0  0
    1.4030    5.6341    0.0000 C   0  0  0  0  0  0  0  0  0  0  0  0
    6.7331    6.1341    0.0000 C   0  0  0  0  0  0  0  0  0  0  0  0
    2.2690    7.1341    0.0000 C   0  0  0  0  0  0  0  0  0  0  0  0
    5.8671    4.6341    0.0000 C   0  0  0  0  0  0  0  0  0  0  0  0
    7.5991    5.6341    0.0000 C   0  0  0  0  0  0  0  0  0  0  0  0
    6.7331    4.1341    0.0000 C   0  0  0  0  0  0  0  0  0  0  0  0
    0.5369    6.1341    0.0000 C   0  0  0  0  0  0  0  0  0  0  0  0
    1.4030    7.6341    0.0000 C   0  0  0  0  0  0  0  0  0  0  0  0
    0.5369    7.1341    0.0000 C   0  0  0  0  0  0  0  0  0  0  0  0
    8.4651    6.1341    0.0000 C   0  0  0  0  0  0  0  0  0  0  0  0
    6.7331    3.1341    0.0000 C   0  0  0  0  0  0  0  0  0  0  0  0
    9.3312    5.6341    0.0000 C   0  0  0  0  0  0  0  0  0  0  0  0
    0.5369    4.1341    0.0000 C   0  0  0  0  0  0  0  0  0  0  0  0
   11.0632    5.6341    0.0000 C   0  0  0  0  0  0  0  0  0  0  0  0
   11.9292    6.1341    0.0000 C   0  0  0  0  0  0  0  0  0  0  0  0
   12.7953    5.6341    0.0000 C   0  0  0  0  0  0  0  0  0  0  0  0
   11.9292    7.1341    0.0000 C   0  0  0  0  0  0  0  0  0  0  0  0
   13.6613    6.1341    0.0000 C   0  0  0  0  0  0  0  0  0  0  0  0
   13.6613    7.1341    0.0000 C   0  0  0  0  0  0  0  0  0  0  0  0
   12.7953    7.6341    0.0000 C   0  0  0  0  0  0  0  0  0  0  0  0
   14.5552    5.5994    0.0000 C   0  0  0  0  0  0  0  0  0  0  0  0
   14.5552    7.6687    0.0000 C   0  0  0  0  0  0  0  0  0  0  0  0
   15.4613    6.1132    0.0000 C   0  0  0  0  0  0  0  0  0  0  0  0
   15.4613    7.1549    0.0000 C   0  0  0  0  0  0  0  0  0  0  0  0
    3.9745    6.2329    0.0000 H   0  0  0  0  0  0  0  0  0  0  0  0
    3.2955    6.2329    0.0000 H   0  0  0  0  0  0  0  0  0  0  0  0
    3.1601    4.3695    0.0000 H   0  0  0  0  0  0  0  0  0  0  0  0
    4.1100    4.3695    0.0000 H   0  0  0  0  0  0  0  0  0  0  0  0
    5.3996    6.6090    0.0000 H   0  0  0  0  0  0  0  0  0  0  0  0
    4.6025    6.6090    0.0000 H   0  0  0  0  0  0  0  0  0  0  0  0
    7.1316    6.6090    0.0000 H   0  0  0  0  0  0  0  0  0  0  0  0
    6.3346    6.6090    0.0000 H   0  0  0  0  0  0  0  0  0  0  0  0
    2.8059    7.4441    0.0000 H   0  0  0  0  0  0  0  0  0  0  0  0
    5.2565    4.7417    0.0000 H   0  0  0  0  0  0  0  0  0  0  0  0
    5.6550    4.0514    0.0000 H   0  0  0  0  0  0  0  0  0  0  0  0
    7.2006    5.1591    0.0000 H   0  0  0  0  0  0  0  0  0  0  0  0
    7.9976    5.1591    0.0000 H   0  0  0  0  0  0  0  0  0  0  0  0
    7.3437    4.0264    0.0000 H   0  0  0  0  0  0  0  0  0  0  0  0
    6.9451    4.7167    0.0000 H   0  0  0  0  0  0  0  0  0  0  0  0
    0.0000    5.8241    0.0000 H   0  0  0  0  0  0  0  0  0  0  0  0
    0.0000    7.4441    0.0000 H   0  0  0  0  0  0  0  0  0  0  0  0
    8.8637    6.6090    0.0000 H   0  0  0  0  0  0  0  0  0  0  0  0
    8.0666    6.6090    0.0000 H   0  0  0  0  0  0  0  0  0  0  0  0
    6.1131    3.1341    0.0000 H   0  0  0  0  0  0  0  0  0  0  0  0
    6.7331    2.5141    0.0000 H   0  0  0  0  0  0  0  0  0  0  0  0
    7.3531    3.1341    0.0000 H   0  0  0  0  0  0  0  0  0  0  0  0
    8.9326    5.1591    0.0000 H   0  0  0  0  0  0  0  0  0  0  0  0
    9.7297    5.1591    0.0000 H   0  0  0  0  0  0  0  0  0  0  0  0
    0.2269    4.6710    0.0000 H   0  0  0  0  0  0  0  0  0  0  0  0
    0.0000    3.8241    0.0000 H   0  0  0  0  0  0  0  0  0  0  0  0
    0.8469    3.5971    0.0000 H   0  0  0  0  0  0  0  0  0  0  0  0
   10.1972    6.7541    0.0000 H   0  0  0  0  0  0  0  0  0  0  0  0
   12.7953    5.0141    0.0000 H   0  0  0  0  0  0  0  0  0  0  0  0
   11.3923    7.4441    0.0000 H   0  0  0  0  0  0  0  0  0  0  0  0
   12.7953    8.2541    0.0000 H   0  0  0  0  0  0  0  0  0  0  0  0
   14.5481    4.9794    0.0000 H   0  0  0  0  0  0  0  0  0  0  0  0
   14.5481    8.2887    0.0000 H   0  0  0  0  0  0  0  0  0  0  0  0
   15.9970    5.8012    0.0000 H   0  0  0  0  0  0  0  0  0  0  0  0
   15.9970    7.4670    0.0000 H   0  0  0  0  0  0  0  0  0  0  0  0
    8.4985    0.0000    0.0000 H   0  0  0  0  0  0  0  0  0  0  0  0
  1 71  1  0  0  0  0
  2 19  1  0  0  0  0
  3 12  1  0  0  0  0
  3 24  1  0  0  0  0
  4 25  2  0  0  0  0
  5 10  1  0  0  0  0
  5 13  1  0  0  0  0
  5 15  1  0  0  0  0
  6 23  1  0  0  0  0
  6 25  1  0  0  0  0
  6 63  1  0  0  0  0
  7  8  1  0  0  0  0
  7  9  1  0  0  0  0
  7 10  1  0  0  0  0
  7 36  1  0  0  0  0
  8  9  1  0  0  0  0
  8 11  1  0  0  0  0
  8 37  1  0  0  0  0
  9 38  1  0  0  0  0
  9 39  1  0  0  0  0
 10 40  1  0  0  0  0
 10 41  1  0  0  0  0
 11 12  2  0  0  0  0
 11 14  1  0  0  0  0
 12 18  1  0  0  0  0
 13 16  1  0  0  0  0
 13 42  1  0  0  0  0
 13 43  1  0  0  0  0
 14 19  2  0  0  0  0
 14 44  1  0  0  0  0
 15 17  1  0  0  0  0
 15 45  1  0  0  0  0
 15 46  1  0  0  0  0
 16 21  1  0  0  0  0
 16 47  1  0  0  0  0
 16 48  1  0  0  0  0
 17 22  1  0  0  0  0
 17 49  1  0  0  0  0
 17 50  1  0  0  0  0
 18 20  2  0  0  0  0
 18 51  1  0  0  0  0
 19 20  1  0  0  0  0
 20 52  1  0  0  0  0
 21 23  1  0  0  0  0
 21 53  1  0  0  0  0
 21 54  1  0  0  0  0
 22 55  1  0  0  0  0
 22 56  1  0  0  0  0
 22 57  1  0  0  0  0
 23 58  1  0  0  0  0
 23 59  1  0  0  0  0
 24 60  1  0  0  0  0
 24 61  1  0  0  0  0
 24 62  1  0  0  0  0
 25 26  1  0  0  0  0
 26 27  2  0  0  0  0
 26 28  1  0  0  0  0
 27 29  1  0  0  0  0
 27 64  1  0  0  0  0
 28 31  2  0  0  0  0
 28 65  1  0  0  0  0
 29 30  1  0  0  0  0
 29 32  2  0  0  0  0
 30 31  1  0  0  0  0
 30 33  2  0  0  0  0
 31 66  1  0  0  0  0
 32 34  1  0  0  0  0
 32 67  1  0  0  0  0
 33 35  1  0  0  0  0
 33 68  1  0  0  0  0
 34 35  2  0  0  0  0
 34 69  1  0  0  0  0
 35 70  1  0  0  0  0
M  END
> <PUBCHEM_COMPOUND_CID>
155523770

> <PUBCHEM_COMPOUND_CANONICALIZED>
1

> <PUBCHEM_CACTVS_COMPLEXITY>
631

> <PUBCHEM_CACTVS_HBOND_ACCEPTOR>
4

> <PUBCHEM_CACTVS_HBOND_DONOR>
2

> <PUBCHEM_CACTVS_ROTATABLE_BOND>
12

> <PUBCHEM_CACTVS_SUBSKEYS>
AAADcfB7MQAEAAAAAAAAAAAAGAAAAAAAAAAwYMAAAAAAAADBVAAAHwAQAAAADQTBmA4yBsPABACIAiFSEACCCAAkIAAIiIEODMgMJjKEtRuEMShk1hGIqYeY2OKOwAACAAAYAACAAAQAADAAAAAAAAAAAA==

> <PUBCHEM_IUPAC_OPENEYE_NAME>
N-[4-[[2-(5-fluoro-2-methoxy-phenyl)cyclopropyl]methyl-propyl-amino]butyl]naphthalene-2-carboxamide;hydrochloride

> <PUBCHEM_IUPAC_CAS_NAME>
N-[4-[[2-(5-fluoro-2-methoxyphenyl)cyclopropyl]methyl-propylamino]butyl]-2-naphthalenecarboxamide;hydrochloride

> <PUBCHEM_IUPAC_NAME_MARKUP>
<I>N</I>-[4-[[2-(5-fluoro-2-methoxyphenyl)cyclopropyl]methyl-propylamino]butyl]naphthalene-2-carboxamide;hydrochloride

> <PUBCHEM_IUPAC_NAME>
N-[4-[[2-(5-fluoro-2-methoxyphenyl)cyclopropyl]methyl-propylamino]butyl]naphthalene-2-carboxamide;hydrochloride

> <PUBCHEM_IUPAC_SYSTEMATIC_NAME>
N-[4-[[2-(5-fluoranyl-2-methoxy-phenyl)cyclopropyl]methyl-propyl-amino]butyl]naphthalene-2-carboxamide;hydrochloride

> <PUBCHEM_IUPAC_TRADITIONAL_NAME>
N-[4-[[2-(5-fluoro-2-methoxy-phenyl)cyclopropyl]methyl-propyl-amino]butyl]-2-naphthamide;hydrochloride

> <PUBCHEM_IUPAC_INCHI>
InChI=1S/C29H35FN2O2.ClH/c1-3-15-32(20-24-18-26(24)27-19-25(30)12-13-28(27)34-2)16-7-6-14-31-29(33)23-11-10-21-8-4-5-9-22(21)17-23;/h4-5,8-13,17,19,24,26H,3,6-7,14-16,18,20H2,1-2H3,(H,31,33);1H

> <PUBCHEM_IUPAC_INCHIKEY>
BPLXRWXQBOJQFF-UHFFFAOYSA-N

> <PUBCHEM_EXACT_MASS>
498.2449343

> <PUBCHEM_MOLECULAR_FORMULA>
C29H36ClFN2O2

> <PUBCHEM_MOLECULAR_WEIGHT>
499.1

> <PUBCHEM_OPENEYE_CAN_SMILES>
CCCN(CCCCNC(=O)C1=CC2=CC=CC=C2C=C1)CC3CC3C4=C(C=CC(=C4)F)OC.Cl

> <PUBCHEM_OPENEYE_ISO_SMILES>
CCCN(CCCCNC(=O)C1=CC2=CC=CC=C2C=C1)CC3CC3C4=C(C=CC(=C4)F)OC.Cl

> <PUBCHEM_CACTVS_TPSA>
41.6

> <PUBCHEM_MONOISOTOPIC_WEIGHT>
498.2449343

> <PUBCHEM_TOTAL_CHARGE>
0

> <PUBCHEM_HEAVY_ATOM_COUNT>
35

> <PUBCHEM_ATOM_DEF_STEREO_COUNT>
0

> <PUBCHEM_ATOM_UDEF_STEREO_COUNT>
2

> <PUBCHEM_BOND_DEF_STEREO_COUNT>
0

> <PUBCHEM_BOND_UDEF_STEREO_COUNT>
0

> <PUBCHEM_ISOTOPIC_ATOM_COUNT>
0

> <PUBCHEM_COMPONENT_COUNT>
2

> <PUBCHEM_CACTVS_TAUTO_COUNT>
-1

> <PUBCHEM_COORDINATE_TYPE>
1
5
255

> <PUBCHEM_BONDANNOTATIONS>
11  12  8
11  14  8
12  18  8
14  19  8
18  20  8
19  20  8
26  27  8
26  28  8
27  29  8
28  31  8
29  30  8
29  32  8
30  31  8
30  33  8
32  34  8
33  35  8
34  35  8
7  10  3
8  11  3

$$$$
