19380978
  -OEChem-09292321582D

 58 63  0     0  0  0  0  0  0999 V2000
    9.3971   -3.4491    0.0000 O   0  0  0  0  0  0  0  0  0  0  0  0
    5.8616    0.0864    0.0000 N   0  0  0  0  0  0  0  0  0  0  0  0
    7.9829   -2.0349    0.0000 N   0  0  0  0  0  0  0  0  0  0  0  0
    5.4133    1.7594    0.0000 C   0  0  0  0  0  0  0  0  0  0  0  0
    4.9355    3.7080    0.0000 C   0  0  0  0  0  0  0  0  0  0  0  0
    5.6721    2.7254    0.0000 C   0  0  0  0  0  0  0  0  0  0  0  0
    5.1545    0.7935    0.0000 C   0  0  0  0  0  0  0  0  0  0  0  0
    4.0406    1.1674    0.0000 C   0  0  0  0  0  0  0  0  0  0  0  0
    6.8122    1.2506    0.0000 C   0  0  0  0  0  0  0  0  0  0  0  0
    3.6986    2.1071    0.0000 C   0  0  0  0  0  0  0  0  0  0  0  0
    7.0711    2.2165    0.0000 C   0  0  0  0  0  0  0  0  0  0  0  0
    6.8275    0.3452    0.0000 C   0  0  0  0  0  0  0  0  0  0  0  0
    5.6028   -0.8795    0.0000 C   0  0  0  0  0  0  0  0  0  0  0  0
    7.2758   -1.3278    0.0000 C   0  0  0  0  0  0  0  0  0  0  0  0
    7.5346   -0.3619    0.0000 C   0  0  0  0  0  0  0  0  0  0  0  0
    6.3099   -1.5866    0.0000 C   0  0  0  0  0  0  0  0  0  0  0  0
    3.3834    0.3592    0.0000 C   0  0  0  0  0  0  0  0  0  0  0  0
    7.5373    0.5028    0.0000 C   0  0  0  0  0  0  0  0  0  0  0  0
    2.6757    2.3038    0.0000 C   0  0  0  0  0  0  0  0  0  0  0  0
    8.0729    2.5016    0.0000 C   0  0  0  0  0  0  0  0  0  0  0  0
    2.3563    0.5322    0.0000 C   0  0  0  0  0  0  0  0  0  0  0  0
    8.5455    0.7646    0.0000 C   0  0  0  0  0  0  0  0  0  0  0  0
    2.0000    1.5110    0.0000 C   0  0  0  0  0  0  0  0  0  0  0  0
    8.8151    1.7708    0.0000 C   0  0  0  0  0  0  0  0  0  0  0  0
    7.7241   -3.0009    0.0000 C   0  0  0  0  0  0  0  0  0  0  0  0
    8.9488   -1.7761    0.0000 C   0  0  0  0  0  0  0  0  0  0  0  0
    8.4312   -3.7080    0.0000 C   0  0  0  0  0  0  0  0  0  0  0  0
    9.6559   -2.4832    0.0000 C   0  0  0  0  0  0  0  0  0  0  0  0
    5.2533    4.2403    0.0000 H   0  0  0  0  0  0  0  0  0  0  0  0
    4.3224    3.7999    0.0000 H   0  0  0  0  0  0  0  0  0  0  0  0
    6.0415    3.2233    0.0000 H   0  0  0  0  0  0  0  0  0  0  0  0
    4.5926    1.0555    0.0000 H   0  0  0  0  0  0  0  0  0  0  0  0
    4.7989    0.2856    0.0000 H   0  0  0  0  0  0  0  0  0  0  0  0
    7.3354    0.7008    0.0000 H   0  0  0  0  0  0  0  0  0  0  0  0
    6.5655    0.9071    0.0000 H   0  0  0  0  0  0  0  0  0  0  0  0
    5.0409   -0.6175    0.0000 H   0  0  0  0  0  0  0  0  0  0  0  0
    5.2472   -1.3874    0.0000 H   0  0  0  0  0  0  0  0  0  0  0  0
    7.8747   -1.1674    0.0000 H   0  0  0  0  0  0  0  0  0  0  0  0
    8.0965   -0.6239    0.0000 H   0  0  0  0  0  0  0  0  0  0  0  0
    7.8902    0.1460    0.0000 H   0  0  0  0  0  0  0  0  0  0  0  0
    5.8020   -1.9423    0.0000 H   0  0  0  0  0  0  0  0  0  0  0  0
    6.5719   -2.1486    0.0000 H   0  0  0  0  0  0  0  0  0  0  0  0
    3.6022   -0.2209    0.0000 H   0  0  0  0  0  0  0  0  0  0  0  0
    7.3700   -0.0942    0.0000 H   0  0  0  0  0  0  0  0  0  0  0  0
    2.4704    2.8888    0.0000 H   0  0  0  0  0  0  0  0  0  0  0  0
    8.2264    3.1023    0.0000 H   0  0  0  0  0  0  0  0  0  0  0  0
    1.9596    0.0557    0.0000 H   0  0  0  0  0  0  0  0  0  0  0  0
    8.9822    0.3245    0.0000 H   0  0  0  0  0  0  0  0  0  0  0  0
    1.3898    1.6210    0.0000 H   0  0  0  0  0  0  0  0  0  0  0  0
    9.4134    1.9335    0.0000 H   0  0  0  0  0  0  0  0  0  0  0  0
    7.1622   -2.7388    0.0000 H   0  0  0  0  0  0  0  0  0  0  0  0
    7.3685   -3.5087    0.0000 H   0  0  0  0  0  0  0  0  0  0  0  0
    9.4567   -1.4205    0.0000 H   0  0  0  0  0  0  0  0  0  0  0  0
    8.6868   -1.2142    0.0000 H   0  0  0  0  0  0  0  0  0  0  0  0
    7.9233   -4.0636    0.0000 H   0  0  0  0  0  0  0  0  0  0  0  0
    8.6932   -4.2699    0.0000 H   0  0  0  0  0  0  0  0  0  0  0  0
   10.2179   -2.7452    0.0000 H   0  0  0  0  0  0  0  0  0  0  0  0
   10.0116   -1.9753    0.0000 H   0  0  0  0  0  0  0  0  0  0  0  0
  1 27  1  0  0  0  0
  1 28  1  0  0  0  0
  2  7  1  0  0  0  0
  2 12  1  0  0  0  0
  2 13  1  0  0  0  0
  3 14  1  0  0  0  0
  3 25  1  0  0  0  0
  3 26  1  0  0  0  0
  4  5  1  0  0  0  0
  4  7  1  0  0  0  0
  4  8  1  0  0  0  0
  4  9  1  0  0  0  0
  5  6  1  0  0  0  0
  5 29  1  0  0  0  0
  5 30  1  0  0  0  0
  6 10  1  0  0  0  0
  6 11  1  0  0  0  0
  6 31  1  0  0  0  0
  7 32  1  0  0  0  0
  7 33  1  0  0  0  0
  8 10  1  0  0  0  0
  8 17  2  0  0  0  0
  9 11  1  0  0  0  0
  9 18  2  0  0  0  0
 10 19  2  0  0  0  0
 11 20  2  0  0  0  0
 12 15  1  0  0  0  0
 12 34  1  0  0  0  0
 12 35  1  0  0  0  0
 13 16  1  0  0  0  0
 13 36  1  0  0  0  0
 13 37  1  0  0  0  0
 14 15  1  0  0  0  0
 14 16  1  0  0  0  0
 14 38  1  0  0  0  0
 15 39  1  0  0  0  0
 15 40  1  0  0  0  0
 16 41  1  0  0  0  0
 16 42  1  0  0  0  0
 17 21  1  0  0  0  0
 17 43  1  0  0  0  0
 18 22  1  0  0  0  0
 18 44  1  0  0  0  0
 19 23  1  0  0  0  0
 19 45  1  0  0  0  0
 20 24  1  0  0  0  0
 20 46  1  0  0  0  0
 21 23  2  0  0  0  0
 21 47  1  0  0  0  0
 22 24  2  0  0  0  0
 22 48  1  0  0  0  0
 23 49  1  0  0  0  0
 24 50  1  0  0  0  0
 25 27  1  0  0  0  0
 25 51  1  0  0  0  0
 25 52  1  0  0  0  0
 26 28  1  0  0  0  0
 26 53  1  0  0  0  0
 26 54  1  0  0  0  0
 27 55  1  0  0  0  0
 27 56  1  0  0  0  0
 28 57  1  0  0  0  0
 28 58  1  0  0  0  0
M  END
> <PUBCHEM_COMPOUND_CID>
19380978

> <PUBCHEM_COMPOUND_CANONICALIZED>
1

> <PUBCHEM_CACTVS_COMPLEXITY>
527

> <PUBCHEM_CACTVS_HBOND_ACCEPTOR>
3

> <PUBCHEM_CACTVS_HBOND_DONOR>
0

> <PUBCHEM_CACTVS_ROTATABLE_BOND>
3

> <PUBCHEM_CACTVS_SUBSKEYS>
AAADceB7IAAAAAAAAAAAAAAAAAAAAYMAAAA8eMECAAAAAGABQAAAHgAAAAAADyjhmAYwAIMABACAAiBCAAACAAAgAAAIiAAIAIgKICKA0RGHIAAggACYiAcQgMAPgAAAAAAQAACAAAQAACAAAQAACAAAAA==

> <PUBCHEM_IUPAC_OPENEYE_NAME>
4-[1-(1-tetracyclo[6.6.1.02,7.09,14]pentadeca-2,4,6,9,11,13-hexaenylmethyl)-4-piperidyl]morpholine

> <PUBCHEM_IUPAC_CAS_NAME>
4-[1-(1-tetracyclo[6.6.1.02,7.09,14]pentadeca-2,4,6,9,11,13-hexaenylmethyl)-4-piperidinyl]morpholine

> <PUBCHEM_IUPAC_NAME_MARKUP>
4-[1-(1-tetracyclo[6.6.1.0<SUP>2,7</SUP>.0<SUP>9,14</SUP>]pentadeca-2,4,6,9,11,13-hexaenylmethyl)piperidin-4-yl]morpholine

> <PUBCHEM_IUPAC_NAME>
4-[1-(1-tetracyclo[6.6.1.02,7.09,14]pentadeca-2,4,6,9,11,13-hexaenylmethyl)piperidin-4-yl]morpholine

> <PUBCHEM_IUPAC_SYSTEMATIC_NAME>
4-[1-(1-tetracyclo[6.6.1.02,7.09,14]pentadeca-2,4,6,9,11,13-hexaenylmethyl)piperidin-4-yl]morpholine

> <PUBCHEM_IUPAC_TRADITIONAL_NAME>
4-[1-(1-tetracyclo[6.6.1.02,7.09,14]pentadeca-2,4,6,9,11,13-hexaenylmethyl)-4-piperidyl]morpholine

> <PUBCHEM_IUPAC_INCHI>
InChI=1S/C25H30N2O/c1-3-7-23-20(5-1)22-17-25(23,24-8-4-2-6-21(22)24)18-26-11-9-19(10-12-26)27-13-15-28-16-14-27/h1-8,19,22H,9-18H2

> <PUBCHEM_IUPAC_INCHIKEY>
XRQRHICCLPKPHO-UHFFFAOYSA-N

> <PUBCHEM_XLOGP3_AA>
3.8

> <PUBCHEM_EXACT_MASS>
374.235813585

> <PUBCHEM_MOLECULAR_FORMULA>
C25H30N2O

> <PUBCHEM_MOLECULAR_WEIGHT>
374.5

> <PUBCHEM_OPENEYE_CAN_SMILES>
C1CN(CCC1N2CCOCC2)CC34CC(C5=CC=CC=C53)C6=CC=CC=C46

> <PUBCHEM_OPENEYE_ISO_SMILES>
C1CN(CCC1N2CCOCC2)CC34CC(C5=CC=CC=C53)C6=CC=CC=C46

> <PUBCHEM_CACTVS_TPSA>
15.7

> <PUBCHEM_MONOISOTOPIC_WEIGHT>
374.235813585

> <PUBCHEM_TOTAL_CHARGE>
0

> <PUBCHEM_HEAVY_ATOM_COUNT>
28

> <PUBCHEM_ATOM_DEF_STEREO_COUNT>
0

> <PUBCHEM_ATOM_UDEF_STEREO_COUNT>
0

> <PUBCHEM_BOND_DEF_STEREO_COUNT>
0

> <PUBCHEM_BOND_UDEF_STEREO_COUNT>
0

> <PUBCHEM_ISOTOPIC_ATOM_COUNT>
0

> <PUBCHEM_COMPONENT_COUNT>
1

> <PUBCHEM_CACTVS_TAUTO_COUNT>
-1

> <PUBCHEM_COORDINATE_TYPE>
1
5
255

> <PUBCHEM_BONDANNOTATIONS>
10  19  8
11  20  8
17  21  8
18  22  8
19  23  8
20  24  8
21  23  8
22  24  8
8  10  8
8  17  8
9  11  8
9  18  8

$$$$
