44339953
  -OEChem-09292322192D

 53 55  0     1  0  0  0  0  0999 V2000
    6.3301   -4.0950    0.0000 Cl  0  0  0  0  0  0  0  0  0  0  0  0
    3.7320   -0.5950    0.0000 O   0  0  0  0  0  0  0  0  0  0  0  0
    2.8660   -2.0950    0.0000 O   0  0  0  0  0  0  0  0  0  0  0  0
    5.4641    2.4050    0.0000 N   0  0  3  0  0  0  0  0  0  0  0  0
    5.4641   -0.5950    0.0000 N   0  0  0  0  0  0  0  0  0  0  0  0
    4.5981   -5.0950    0.0000 N   0  0  0  0  0  0  0  0  0  0  0  0
    6.3301    0.9050    0.0000 C   0  0  2  0  0  0  0  0  0  0  0  0
    5.4641    0.4050    0.0000 C   0  0  2  0  0  0  0  0  0  0  0  0
    6.3301    1.9050    0.0000 C   0  0  0  0  0  0  0  0  0  0  0  0
    4.5981    0.9050    0.0000 C   0  0  0  0  0  0  0  0  0  0  0  0
    4.5981    1.9050    0.0000 C   0  0  0  0  0  0  0  0  0  0  0  0
    7.1962    0.4050    0.0000 C   0  0  0  0  0  0  0  0  0  0  0  0
    5.4641    3.4050    0.0000 C   0  0  0  0  0  0  0  0  0  0  0  0
    6.3301    3.9050    0.0000 C   0  0  0  0  0  0  0  0  0  0  0  0
    4.5981   -1.0950    0.0000 C   0  0  0  0  0  0  0  0  0  0  0  0
    4.5981   -2.0950    0.0000 C   0  0  0  0  0  0  0  0  0  0  0  0
    6.3301    4.9050    0.0000 C   0  0  0  0  0  0  0  0  0  0  0  0
    7.1962    3.4050    0.0000 C   0  0  0  0  0  0  0  0  0  0  0  0
    3.7320   -2.5950    0.0000 C   0  0  0  0  0  0  0  0  0  0  0  0
    7.1962    5.4050    0.0000 C   0  0  0  0  0  0  0  0  0  0  0  0
    8.0622    3.9050    0.0000 C   0  0  0  0  0  0  0  0  0  0  0  0
    5.4641   -2.5950    0.0000 C   0  0  0  0  0  0  0  0  0  0  0  0
    8.0622    4.9050    0.0000 C   0  0  0  0  0  0  0  0  0  0  0  0
    3.7320   -3.5950    0.0000 C   0  0  0  0  0  0  0  0  0  0  0  0
    5.4641   -3.5950    0.0000 C   0  0  0  0  0  0  0  0  0  0  0  0
    4.5981   -4.0950    0.0000 C   0  0  0  0  0  0  0  0  0  0  0  0
    2.0000   -2.5950    0.0000 C   0  0  0  0  0  0  0  0  0  0  0  0
    6.8671    1.2150    0.0000 H   0  0  0  0  0  0  0  0  0  0  0  0
    6.0010    0.0950    0.0000 H   0  0  0  0  0  0  0  0  0  0  0  0
    6.9407    1.7973    0.0000 H   0  0  0  0  0  0  0  0  0  0  0  0
    6.5422    2.4876    0.0000 H   0  0  0  0  0  0  0  0  0  0  0  0
    3.9875    1.0127    0.0000 H   0  0  0  0  0  0  0  0  0  0  0  0
    4.3860    0.3224    0.0000 H   0  0  0  0  0  0  0  0  0  0  0  0
    4.3860    2.4876    0.0000 H   0  0  0  0  0  0  0  0  0  0  0  0
    3.9875    1.7973    0.0000 H   0  0  0  0  0  0  0  0  0  0  0  0
    6.8862   -0.1319    0.0000 H   0  0  0  0  0  0  0  0  0  0  0  0
    7.7331    0.0950    0.0000 H   0  0  0  0  0  0  0  0  0  0  0  0
    7.5062    0.9419    0.0000 H   0  0  0  0  0  0  0  0  0  0  0  0
    5.2520    3.9876    0.0000 H   0  0  0  0  0  0  0  0  0  0  0  0
    4.8535    3.2973    0.0000 H   0  0  0  0  0  0  0  0  0  0  0  0
    6.0010   -0.9050    0.0000 H   0  0  0  0  0  0  0  0  0  0  0  0
    5.7932    5.2150    0.0000 H   0  0  0  0  0  0  0  0  0  0  0  0
    7.1962    2.7850    0.0000 H   0  0  0  0  0  0  0  0  0  0  0  0
    7.1962    6.0250    0.0000 H   0  0  0  0  0  0  0  0  0  0  0  0
    8.5991    3.5950    0.0000 H   0  0  0  0  0  0  0  0  0  0  0  0
    6.0010   -2.2850    0.0000 H   0  0  0  0  0  0  0  0  0  0  0  0
    8.5991    5.2150    0.0000 H   0  0  0  0  0  0  0  0  0  0  0  0
    3.1951   -3.9050    0.0000 H   0  0  0  0  0  0  0  0  0  0  0  0
    4.0611   -5.4050    0.0000 H   0  0  0  0  0  0  0  0  0  0  0  0
    5.1350   -5.4050    0.0000 H   0  0  0  0  0  0  0  0  0  0  0  0
    1.6900   -2.0581    0.0000 H   0  0  0  0  0  0  0  0  0  0  0  0
    1.4631   -2.9050    0.0000 H   0  0  0  0  0  0  0  0  0  0  0  0
    2.3100   -3.1319    0.0000 H   0  0  0  0  0  0  0  0  0  0  0  0
  1 25  1  0  0  0  0
  2 15  2  0  0  0  0
  3 19  1  0  0  0  0
  3 27  1  0  0  0  0
  4  9  1  0  0  0  0
  4 11  1  0  0  0  0
  4 13  1  0  0  0  0
  8  5  1  1  0  0  0
  5 15  1  0  0  0  0
  5 41  1  0  0  0  0
  6 26  1  0  0  0  0
  6 49  1  0  0  0  0
  6 50  1  0  0  0  0
  7  8  1  0  0  0  0
  7  9  1  0  0  0  0
  7 12  1  6  0  0  0
  7 28  1  0  0  0  0
  8 10  1  0  0  0  0
  8 29  1  0  0  0  0
  9 30  1  0  0  0  0
  9 31  1  0  0  0  0
 10 11  1  0  0  0  0
 10 32  1  0  0  0  0
 10 33  1  0  0  0  0
 11 34  1  0  0  0  0
 11 35  1  0  0  0  0
 12 36  1  0  0  0  0
 12 37  1  0  0  0  0
 12 38  1  0  0  0  0
 13 14  1  0  0  0  0
 13 39  1  0  0  0  0
 13 40  1  0  0  0  0
 14 17  2  0  0  0  0
 14 18  1  0  0  0  0
 15 16  1  0  0  0  0
 16 19  1  0  0  0  0
 16 22  2  0  0  0  0
 17 20  1  0  0  0  0
 17 42  1  0  0  0  0
 18 21  2  0  0  0  0
 18 43  1  0  0  0  0
 19 24  2  0  0  0  0
 20 23  2  0  0  0  0
 20 44  1  0  0  0  0
 21 23  1  0  0  0  0
 21 45  1  0  0  0  0
 22 25  1  0  0  0  0
 22 46  1  0  0  0  0
 23 47  1  0  0  0  0
 24 26  1  0  0  0  0
 24 48  1  0  0  0  0
 25 26  2  0  0  0  0
 27 51  1  0  0  0  0
 27 52  1  0  0  0  0
 27 53  1  0  0  0  0
M  END
> <PUBCHEM_COMPOUND_CID>
44339953

> <PUBCHEM_COMPOUND_CANONICALIZED>
1

> <PUBCHEM_CACTVS_COMPLEXITY>
486

> <PUBCHEM_CACTVS_HBOND_ACCEPTOR>
4

> <PUBCHEM_CACTVS_HBOND_DONOR>
2

> <PUBCHEM_CACTVS_ROTATABLE_BOND>
5

> <PUBCHEM_CACTVS_SUBSKEYS>
AAADceB7MAAEAAAAAAAAAAAAAAAAAAAAAAA8YIAAAAAAAAABQAAAHgIQAAAADS7BmCYyxoPABACIAiVSUACCCAAkJwAIiIEObsgMJjaF95uEMWhm9hmI6YeY2SGeCCAAIgAIABAQQABEABAAIAAAAAAAAA==

> <PUBCHEM_IUPAC_OPENEYE_NAME>
4-amino-N-[(3S,4S)-1-benzyl-3-methyl-4-piperidyl]-5-chloro-2-methoxy-benzamide

> <PUBCHEM_IUPAC_CAS_NAME>
4-amino-5-chloro-2-methoxy-N-[(3S,4S)-3-methyl-1-(phenylmethyl)-4-piperidinyl]benzamide

> <PUBCHEM_IUPAC_NAME_MARKUP>
4-amino-<I>N</I>-[(3<I>S</I>,4<I>S</I>)-1-benzyl-3-methylpiperidin-4-yl]-5-chloro-2-methoxybenzamide

> <PUBCHEM_IUPAC_NAME>
4-amino-N-[(3S,4S)-1-benzyl-3-methylpiperidin-4-yl]-5-chloro-2-methoxybenzamide

> <PUBCHEM_IUPAC_SYSTEMATIC_NAME>
4-azanyl-5-chloranyl-2-methoxy-N-[(3S,4S)-3-methyl-1-(phenylmethyl)piperidin-4-yl]benzamide

> <PUBCHEM_IUPAC_TRADITIONAL_NAME>
4-amino-N-[(3S,4S)-1-benzyl-3-methyl-4-piperidyl]-5-chloro-2-methoxy-benzamide

> <PUBCHEM_IUPAC_INCHI>
InChI=1S/C21H26ClN3O2/c1-14-12-25(13-15-6-4-3-5-7-15)9-8-19(14)24-21(26)16-10-17(22)18(23)11-20(16)27-2/h3-7,10-11,14,19H,8-9,12-13,23H2,1-2H3,(H,24,26)/t14-,19-/m0/s1

> <PUBCHEM_IUPAC_INCHIKEY>
XNUNIHJOMFCFRQ-LIRRHRJNSA-N

> <PUBCHEM_XLOGP3_AA>
3.6

> <PUBCHEM_EXACT_MASS>
387.1713548

> <PUBCHEM_MOLECULAR_FORMULA>
C21H26ClN3O2

> <PUBCHEM_MOLECULAR_WEIGHT>
387.9

> <PUBCHEM_OPENEYE_CAN_SMILES>
CC1CN(CCC1NC(=O)C2=CC(=C(C=C2OC)N)Cl)CC3=CC=CC=C3

> <PUBCHEM_OPENEYE_ISO_SMILES>
C[C@H]1CN(CC[C@@H]1NC(=O)C2=CC(=C(C=C2OC)N)Cl)CC3=CC=CC=C3

> <PUBCHEM_CACTVS_TPSA>
67.6

> <PUBCHEM_MONOISOTOPIC_WEIGHT>
387.1713548

> <PUBCHEM_TOTAL_CHARGE>
0

> <PUBCHEM_HEAVY_ATOM_COUNT>
27

> <PUBCHEM_ATOM_DEF_STEREO_COUNT>
2

> <PUBCHEM_ATOM_UDEF_STEREO_COUNT>
0

> <PUBCHEM_BOND_DEF_STEREO_COUNT>
0

> <PUBCHEM_BOND_UDEF_STEREO_COUNT>
0

> <PUBCHEM_ISOTOPIC_ATOM_COUNT>
0

> <PUBCHEM_COMPONENT_COUNT>
1

> <PUBCHEM_CACTVS_TAUTO_COUNT>
-1

> <PUBCHEM_COORDINATE_TYPE>
1
5
255

> <PUBCHEM_BONDANNOTATIONS>
14  17  8
14  18  8
16  19  8
16  22  8
17  20  8
18  21  8
19  24  8
20  23  8
21  23  8
22  25  8
24  26  8
25  26  8
8  5  5
7  12  6

$$$$
