44297494
  -OEChem-09292322222D

 67 70  0     1  0  0  0  0  0999 V2000
    3.7359    0.7418    0.0000 S   0  0  0  0  0  0  0  0  0  0  0  0
    2.0000    1.7352    0.0000 F   0  0  0  0  0  0  0  0  0  0  0  0
    2.3713    0.3705    0.0000 F   0  0  0  0  0  0  0  0  0  0  0  0
    3.3646    2.1064    0.0000 F   0  0  0  0  0  0  0  0  0  0  0  0
    4.6038    0.2452    0.0000 O   0  0  0  0  0  0  0  0  0  0  0  0
    3.2392   -0.1261    0.0000 O   0  0  0  0  0  0  0  0  0  0  0  0
    4.2326    1.6098    0.0000 O   0  0  0  0  0  0  0  0  0  0  0  0
   14.1962    1.7413    0.0000 O   0  0  0  0  0  0  0  0  0  0  0  0
   21.1904   -1.2828    0.0000 O   0  0  0  0  0  0  0  0  0  0  0  0
    9.0000    0.7413    0.0000 N   0  0  3  0  0  0  0  0  0  0  0  0
   13.3302    0.2413    0.0000 N   0  0  0  0  0  0  0  0  0  0  0  0
   19.4203   -1.2934    0.0000 N   0  0  0  0  0  0  0  0  0  0  0  0
    8.9960    1.7829    0.0000 C   0  0  0  0  0  0  0  0  0  0  0  0
    8.0960    0.2240    0.0000 C   0  0  0  0  0  0  0  0  0  0  0  0
    8.0880    2.2933    0.0000 C   0  0  0  0  0  0  0  0  0  0  0  0
    9.8661    0.2413    0.0000 C   0  0  0  0  0  0  0  0  0  0  0  0
    7.2000    0.7552    0.0000 C   0  0  0  0  0  0  0  0  0  0  0  0
    7.1961    1.7552    0.0000 C   0  0  0  0  0  0  0  0  0  0  0  0
   10.7321    0.7413    0.0000 C   0  0  0  0  0  0  0  0  0  0  0  0
   11.5981    0.2413    0.0000 C   0  0  0  0  0  0  0  0  0  0  0  0
    6.3359    0.2519    0.0000 C   0  0  0  0  0  0  0  0  0  0  0  0
    6.3282    2.2518    0.0000 C   0  0  0  0  0  0  0  0  0  0  0  0
    5.4679    0.7485    0.0000 C   0  0  0  0  0  0  0  0  0  0  0  0
   12.4641    0.7413    0.0000 C   0  0  0  0  0  0  0  0  0  0  0  0
    5.4641    1.7485    0.0000 C   0  0  0  0  0  0  0  0  0  0  0  0
   14.1962    0.7413    0.0000 C   0  0  0  0  0  0  0  0  0  0  0  0
   18.5263   -0.7587    0.0000 C   0  0  0  0  0  0  0  0  0  0  0  0
   15.0622    0.2413    0.0000 C   0  0  0  0  0  0  0  0  0  0  0  0
    2.8680    1.2385    0.0000 C   0  0  0  0  0  0  0  0  0  0  0  0
   18.5263    0.2413    0.0000 C   0  0  0  0  0  0  0  0  0  0  0  0
   16.7943    0.2413    0.0000 C   0  0  0  0  0  0  0  0  0  0  0  0
   17.6603    0.7413    0.0000 C   0  0  0  0  0  0  0  0  0  0  0  0
   15.9282    0.7413    0.0000 C   0  0  0  0  0  0  0  0  0  0  0  0
   17.6603   -1.2587    0.0000 C   0  0  0  0  0  0  0  0  0  0  0  0
   16.7943   -0.7587    0.0000 C   0  0  0  0  0  0  0  0  0  0  0  0
   19.4203    0.7760    0.0000 C   0  0  0  0  0  0  0  0  0  0  0  0
   20.3263   -0.7795    0.0000 C   0  0  0  0  0  0  0  0  0  0  0  0
   20.3263    0.2621    0.0000 C   0  0  0  0  0  0  0  0  0  0  0  0
   19.4087   -2.2933    0.0000 C   0  0  0  0  0  0  0  0  0  0  0  0
    9.6073    1.6792    0.0000 H   0  0  0  0  0  0  0  0  0  0  0  0
    9.2028    2.3674    0.0000 H   0  0  0  0  0  0  0  0  0  0  0  0
    7.6932   -0.2474    0.0000 H   0  0  0  0  0  0  0  0  0  0  0  0
    8.4914   -0.2535    0.0000 H   0  0  0  0  0  0  0  0  0  0  0  0
    8.4798    2.7738    0.0000 H   0  0  0  0  0  0  0  0  0  0  0  0
    7.6816    2.7615    0.0000 H   0  0  0  0  0  0  0  0  0  0  0  0
    9.4675   -0.2336    0.0000 H   0  0  0  0  0  0  0  0  0  0  0  0
   10.2646   -0.2336    0.0000 H   0  0  0  0  0  0  0  0  0  0  0  0
   11.1306    1.2163    0.0000 H   0  0  0  0  0  0  0  0  0  0  0  0
   10.3336    1.2163    0.0000 H   0  0  0  0  0  0  0  0  0  0  0  0
   11.1996   -0.2336    0.0000 H   0  0  0  0  0  0  0  0  0  0  0  0
   11.9966   -0.2336    0.0000 H   0  0  0  0  0  0  0  0  0  0  0  0
    6.3383   -0.3681    0.0000 H   0  0  0  0  0  0  0  0  0  0  0  0
    6.3258    2.8718    0.0000 H   0  0  0  0  0  0  0  0  0  0  0  0
   12.8627    1.2163    0.0000 H   0  0  0  0  0  0  0  0  0  0  0  0
   12.0656    1.2163    0.0000 H   0  0  0  0  0  0  0  0  0  0  0  0
    4.9260    2.0564    0.0000 H   0  0  0  0  0  0  0  0  0  0  0  0
   13.3302   -0.3787    0.0000 H   0  0  0  0  0  0  0  0  0  0  0  0
   15.0622   -0.3787    0.0000 H   0  0  0  0  0  0  0  0  0  0  0  0
   17.6603    1.3613    0.0000 H   0  0  0  0  0  0  0  0  0  0  0  0
   15.9282    1.3613    0.0000 H   0  0  0  0  0  0  0  0  0  0  0  0
   17.6603   -1.8787    0.0000 H   0  0  0  0  0  0  0  0  0  0  0  0
   16.2573   -1.0687    0.0000 H   0  0  0  0  0  0  0  0  0  0  0  0
   19.4131    1.3959    0.0000 H   0  0  0  0  0  0  0  0  0  0  0  0
   20.8621    0.5742    0.0000 H   0  0  0  0  0  0  0  0  0  0  0  0
   18.7887   -2.2861    0.0000 H   0  0  0  0  0  0  0  0  0  0  0  0
   19.4015   -2.9132    0.0000 H   0  0  0  0  0  0  0  0  0  0  0  0
   20.0287   -2.3004    0.0000 H   0  0  0  0  0  0  0  0  0  0  0  0
  1  5  1  0  0  0  0
  1  6  2  0  0  0  0
  1  7  2  0  0  0  0
  1 29  1  0  0  0  0
  2 29  1  0  0  0  0
  3 29  1  0  0  0  0
  4 29  1  0  0  0  0
  5 23  1  0  0  0  0
  8 26  2  0  0  0  0
  9 37  2  0  0  0  0
 10 13  1  0  0  0  0
 10 14  1  0  0  0  0
 10 16  1  0  0  0  0
 11 24  1  0  0  0  0
 11 26  1  0  0  0  0
 11 57  1  0  0  0  0
 12 27  1  0  0  0  0
 12 37  1  0  0  0  0
 12 39  1  0  0  0  0
 13 15  1  0  0  0  0
 13 40  1  0  0  0  0
 13 41  1  0  0  0  0
 14 17  1  0  0  0  0
 14 42  1  0  0  0  0
 14 43  1  0  0  0  0
 15 18  1  0  0  0  0
 15 44  1  0  0  0  0
 15 45  1  0  0  0  0
 16 19  1  0  0  0  0
 16 46  1  0  0  0  0
 16 47  1  0  0  0  0
 17 18  2  0  0  0  0
 17 21  1  0  0  0  0
 18 22  1  0  0  0  0
 19 20  1  0  0  0  0
 19 48  1  0  0  0  0
 19 49  1  0  0  0  0
 20 24  1  0  0  0  0
 20 50  1  0  0  0  0
 20 51  1  0  0  0  0
 21 23  2  0  0  0  0
 21 52  1  0  0  0  0
 22 25  2  0  0  0  0
 22 53  1  0  0  0  0
 23 25  1  0  0  0  0
 24 54  1  0  0  0  0
 24 55  1  0  0  0  0
 25 56  1  0  0  0  0
 26 28  1  0  0  0  0
 27 30  2  0  0  0  0
 27 34  1  0  0  0  0
 28 33  2  0  0  0  0
 28 58  1  0  0  0  0
 30 32  1  0  0  0  0
 30 36  1  0  0  0  0
 31 32  2  0  0  0  0
 31 33  1  0  0  0  0
 31 35  1  0  0  0  0
 32 59  1  0  0  0  0
 33 60  1  0  0  0  0
 34 35  2  0  0  0  0
 34 61  1  0  0  0  0
 35 62  1  0  0  0  0
 36 38  2  0  0  0  0
 36 63  1  0  0  0  0
 37 38  1  0  0  0  0
 38 64  1  0  0  0  0
 39 65  1  0  0  0  0
 39 66  1  0  0  0  0
 39 67  1  0  0  0  0
M  END
> <PUBCHEM_COMPOUND_CID>
44297494

> <PUBCHEM_COMPOUND_CANONICALIZED>
1

> <PUBCHEM_CACTVS_COMPLEXITY>
1040

> <PUBCHEM_CACTVS_HBOND_ACCEPTOR>
9

> <PUBCHEM_CACTVS_HBOND_DONOR>
1

> <PUBCHEM_CACTVS_ROTATABLE_BOND>
9

> <PUBCHEM_CACTVS_SUBSKEYS>
AAADceB7OYBAAAAAAAAAAAAAAAAAAAAAAAA8YIEAAAAAAACxQAAAHwQQAAAADAzBmBQyxoPAAAKIAiVSUHCCAAAhIgAIiIAObMgIJiLAkZOEMAhk1hHIyYewwNAOqAADAAASAABQAAYAACQAAAAAAAAAAA==

> <PUBCHEM_IUPAC_OPENEYE_NAME>
[2-[4-[[(E)-3-(1-methyl-2-oxo-6-quinolyl)prop-2-enoyl]amino]butyl]-3,4-dihydro-1H-isoquinolin-7-yl] trifluoromethanesulfonate

> <PUBCHEM_IUPAC_CAS_NAME>
trifluoromethanesulfonic acid [2-[4-[[(E)-3-(1-methyl-2-oxo-6-quinolinyl)-1-oxoprop-2-enyl]amino]butyl]-3,4-dihydro-1H-isoquinolin-7-yl] ester

> <PUBCHEM_IUPAC_NAME_MARKUP>
[2-[4-[[(<I>E</I>)-3-(1-methyl-2-oxoquinolin-6-yl)prop-2-enoyl]amino]butyl]-3,4-dihydro-1<I>H</I>-isoquinolin-7-yl] trifluoromethanesulfonate

> <PUBCHEM_IUPAC_NAME>
[2-[4-[[(E)-3-(1-methyl-2-oxoquinolin-6-yl)prop-2-enoyl]amino]butyl]-3,4-dihydro-1H-isoquinolin-7-yl] trifluoromethanesulfonate

> <PUBCHEM_IUPAC_SYSTEMATIC_NAME>
[2-[4-[[(E)-3-(1-methyl-2-oxidanylidene-quinolin-6-yl)prop-2-enoyl]amino]butyl]-3,4-dihydro-1H-isoquinolin-7-yl] tris(fluoranyl)methanesulfonate

> <PUBCHEM_IUPAC_TRADITIONAL_NAME>
trifluoromethanesulfonic acid [2-[4-[[(E)-3-(2-keto-1-methyl-6-quinolyl)acryloyl]amino]butyl]-3,4-dihydro-1H-isoquinolin-7-yl] ester

> <PUBCHEM_IUPAC_INCHI>
InChI=1S/C27H28F3N3O5S/c1-32-24-9-4-19(16-21(24)7-11-26(32)35)5-10-25(34)31-13-2-3-14-33-15-12-20-6-8-23(17-22(20)18-33)38-39(36,37)27(28,29)30/h4-11,16-17H,2-3,12-15,18H2,1H3,(H,31,34)/b10-5+

> <PUBCHEM_IUPAC_INCHIKEY>
BNBJYVKSFPTBHW-BJMVGYQFSA-N

> <PUBCHEM_XLOGP3_AA>
4.3

> <PUBCHEM_EXACT_MASS>
563.17017666

> <PUBCHEM_MOLECULAR_FORMULA>
C27H28F3N3O5S

> <PUBCHEM_MOLECULAR_WEIGHT>
563.6

> <PUBCHEM_OPENEYE_CAN_SMILES>
CN1C2=C(C=CC1=O)C=C(C=C2)C=CC(=O)NCCCCN3CCC4=C(C3)C=C(C=C4)OS(=O)(=O)C(F)(F)F

> <PUBCHEM_OPENEYE_ISO_SMILES>
CN1C2=C(C=CC1=O)C=C(C=C2)/C=C/C(=O)NCCCCN3CCC4=C(C3)C=C(C=C4)OS(=O)(=O)C(F)(F)F

> <PUBCHEM_CACTVS_TPSA>
104

> <PUBCHEM_MONOISOTOPIC_WEIGHT>
563.17017666

> <PUBCHEM_TOTAL_CHARGE>
0

> <PUBCHEM_HEAVY_ATOM_COUNT>
39

> <PUBCHEM_ATOM_DEF_STEREO_COUNT>
0

> <PUBCHEM_ATOM_UDEF_STEREO_COUNT>
0

> <PUBCHEM_BOND_DEF_STEREO_COUNT>
1

> <PUBCHEM_BOND_UDEF_STEREO_COUNT>
0

> <PUBCHEM_ISOTOPIC_ATOM_COUNT>
0

> <PUBCHEM_COMPONENT_COUNT>
1

> <PUBCHEM_CACTVS_TAUTO_COUNT>
-1

> <PUBCHEM_COORDINATE_TYPE>
1
5
255

> <PUBCHEM_BONDANNOTATIONS>
12  27  8
12  37  8
17  18  8
17  21  8
18  22  8
21  23  8
22  25  8
23  25  8
27  30  8
27  34  8
30  32  8
30  36  8
31  32  8
31  35  8
34  35  8
36  38  8
37  38  8

$$$$
