53364227
  -OEChem-09292322322D

151158  0     0  0  0  0  0  0999 V2000
    5.6949   17.5880    0.0000 O   0  0  0  0  0  0  0  0  0  0  0  0
    7.1962  -17.5662    0.0000 O   0  0  0  0  0  0  0  0  0  0  0  0
    6.6768    9.7118    0.0000 O   0  0  0  0  0  0  0  0  0  0  0  0
    4.5981  -10.0662    0.0000 O   0  0  0  0  0  0  0  0  0  0  0  0
    8.5789   10.3298    0.0000 O   0  0  0  0  0  0  0  0  0  0  0  0
    2.8660  -11.0662    0.0000 O   0  0  0  0  0  0  0  0  0  0  0  0
    8.1421    2.1719    0.0000 O   0  0  0  0  0  0  0  0  0  0  0  0
    7.5990   -2.9958    0.0000 O   0  0  0  0  0  0  0  0  0  0  0  0
    7.3733   -0.3597    0.0000 O   0  0  0  0  0  0  0  0  0  0  0  0
    6.7653   14.2935    0.0000 N   0  0  0  0  0  0  0  0  0  0  0  0
    5.4641  -14.5662    0.0000 N   0  0  0  0  0  0  0  0  0  0  0  0
    5.2790   15.6317    0.0000 N   0  0  0  0  0  0  0  0  0  0  0  0
    7.1962  -15.5662    0.0000 N   0  0  0  0  0  0  0  0  0  0  0  0
    7.9164    4.8080    0.0000 N   0  0  0  0  0  0  0  0  0  0  0  0
    6.8301   -5.5273    0.0000 N   0  0  0  0  0  0  0  0  0  0  0  0
    6.8337    6.0105    0.0000 N   0  0  0  0  0  0  0  0  0  0  0  0
    5.5211   -6.4784    0.0000 N   0  0  0  0  0  0  0  0  0  0  0  0
    6.9383    5.0159    0.0000 N   0  0  0  0  0  0  0  0  0  0  0  0
    5.8301   -5.5273    0.0000 N   0  0  0  0  0  0  0  0  0  0  0  0
    5.8143   13.9845    0.0000 C   0  0  0  0  0  0  0  0  0  0  0  0
    6.9732   15.2716    0.0000 C   0  0  0  0  0  0  0  0  0  0  0  0
    5.4641  -15.5662    0.0000 C   0  0  0  0  0  0  0  0  0  0  0  0
    6.3301  -14.0662    0.0000 C   0  0  0  0  0  0  0  0  0  0  0  0
    5.0711   14.6536    0.0000 C   0  0  0  0  0  0  0  0  0  0  0  0
    6.2301   15.9408    0.0000 C   0  0  0  0  0  0  0  0  0  0  0  0
    6.3301  -16.0662    0.0000 C   0  0  0  0  0  0  0  0  0  0  0  0
    7.1962  -14.5662    0.0000 C   0  0  0  0  0  0  0  0  0  0  0  0
    7.5085   13.6243    0.0000 C   0  0  0  0  0  0  0  0  0  0  0  0
    4.5981  -14.0662    0.0000 C   0  0  0  0  0  0  0  0  0  0  0  0
    4.5359   16.3009    0.0000 C   0  0  0  0  0  0  0  0  0  0  0  0
    8.0622  -16.0662    0.0000 C   0  0  0  0  0  0  0  0  0  0  0  0
    7.3006   12.6462    0.0000 C   0  0  0  0  0  0  0  0  0  0  0  0
    4.5981  -13.0662    0.0000 C   0  0  0  0  0  0  0  0  0  0  0  0
    4.7438   17.2790    0.0000 C   0  0  0  0  0  0  0  0  0  0  0  0
    8.0622  -17.0662    0.0000 C   0  0  0  0  0  0  0  0  0  0  0  0
    3.5848   15.9919    0.0000 C   0  0  0  0  0  0  0  0  0  0  0  0
    8.9282  -15.5662    0.0000 C   0  0  0  0  0  0  0  0  0  0  0  0
    8.0437   11.9771    0.0000 C   0  0  0  0  0  0  0  0  0  0  0  0
    3.7320  -12.5662    0.0000 C   0  0  0  0  0  0  0  0  0  0  0  0
    6.3495   12.3372    0.0000 C   0  0  0  0  0  0  0  0  0  0  0  0
    5.4641  -12.5662    0.0000 C   0  0  0  0  0  0  0  0  0  0  0  0
    4.0007   17.9482    0.0000 C   0  0  0  0  0  0  0  0  0  0  0  0
    8.9282  -17.5662    0.0000 C   0  0  0  0  0  0  0  0  0  0  0  0
    2.8417   16.6610    0.0000 C   0  0  0  0  0  0  0  0  0  0  0  0
    9.7942  -16.0662    0.0000 C   0  0  0  0  0  0  0  0  0  0  0  0
    7.8358   10.9989    0.0000 C   0  0  0  0  0  0  0  0  0  0  0  0
    3.7320  -11.5662    0.0000 C   0  0  0  0  0  0  0  0  0  0  0  0
    6.1416   11.3590    0.0000 C   0  0  0  0  0  0  0  0  0  0  0  0
    5.4641  -11.5662    0.0000 C   0  0  0  0  0  0  0  0  0  0  0  0
    3.0496   17.6391    0.0000 C   0  0  0  0  0  0  0  0  0  0  0  0
    9.7942  -17.0662    0.0000 C   0  0  0  0  0  0  0  0  0  0  0  0
    6.8847   10.6899    0.0000 C   0  0  0  0  0  0  0  0  0  0  0  0
    4.5981  -11.0662    0.0000 C   0  0  0  0  0  0  0  0  0  0  0  0
    5.9028   18.5662    0.0000 C   0  0  0  0  0  0  0  0  0  0  0  0
    7.1962  -18.5662    0.0000 C   0  0  0  0  0  0  0  0  0  0  0  0
    7.4200    9.0426    0.0000 C   0  0  0  0  0  0  0  0  0  0  0  0
    5.4641   -9.5662    0.0000 C   0  0  0  0  0  0  0  0  0  0  0  0
    7.2120    8.0645    0.0000 C   0  0  0  0  0  0  0  0  0  0  0  0
    5.4641   -8.5662    0.0000 C   0  0  0  0  0  0  0  0  0  0  0  0
    9.5300   10.6388    0.0000 C   0  0  0  0  0  0  0  0  0  0  0  0
    2.0000  -11.5662    0.0000 C   0  0  0  0  0  0  0  0  0  0  0  0
    7.9552    7.3954    0.0000 C   0  0  0  0  0  0  0  0  0  0  0  0
    6.3301   -8.0662    0.0000 C   0  0  0  0  0  0  0  0  0  0  0  0
    7.7473    6.4172    0.0000 C   0  0  0  0  0  0  0  0  0  0  0  0
    6.3301   -7.0662    0.0000 C   0  0  0  0  0  0  0  0  0  0  0  0
    8.4164    5.6741    0.0000 C   0  0  0  0  0  0  0  0  0  0  0  0
    7.1391   -6.4784    0.0000 C   0  0  0  0  0  0  0  0  0  0  0  0
    8.3232    3.8945    0.0000 C   0  0  0  0  0  0  0  0  0  0  0  0
    7.4179   -4.7183    0.0000 C   0  0  0  0  0  0  0  0  0  0  0  0
    7.7354    3.0855    0.0000 C   0  0  0  0  0  0  0  0  0  0  0  0
    7.0112   -3.8048    0.0000 C   0  0  0  0  0  0  0  0  0  0  0  0
    7.5543    1.3629    0.0000 C   0  0  0  0  0  0  0  0  0  0  0  0
    7.1922   -2.0822    0.0000 C   0  0  0  0  0  0  0  0  0  0  0  0
    7.9611    0.4494    0.0000 C   0  0  0  0  0  0  0  0  0  0  0  0
    7.7800   -1.2732    0.0000 C   0  0  0  0  0  0  0  0  0  0  0  0
    5.3257   13.6028    0.0000 H   0  0  0  0  0  0  0  0  0  0  0  0
    6.1053   13.4370    0.0000 H   0  0  0  0  0  0  0  0  0  0  0  0
    7.5481   15.0394    0.0000 H   0  0  0  0  0  0  0  0  0  0  0  0
    7.3018   15.7974    0.0000 H   0  0  0  0  0  0  0  0  0  0  0  0
    4.8535  -15.4585    0.0000 H   0  0  0  0  0  0  0  0  0  0  0  0
    5.2520  -16.1488    0.0000 H   0  0  0  0  0  0  0  0  0  0  0  0
    6.7287  -13.5912    0.0000 H   0  0  0  0  0  0  0  0  0  0  0  0
    5.9316  -13.5912    0.0000 H   0  0  0  0  0  0  0  0  0  0  0  0
    4.4963   14.8858    0.0000 H   0  0  0  0  0  0  0  0  0  0  0  0
    4.7426   14.1278    0.0000 H   0  0  0  0  0  0  0  0  0  0  0  0
    6.7187   16.3225    0.0000 H   0  0  0  0  0  0  0  0  0  0  0  0
    5.9390   16.4882    0.0000 H   0  0  0  0  0  0  0  0  0  0  0  0
    5.9316  -16.5411    0.0000 H   0  0  0  0  0  0  0  0  0  0  0  0
    6.7287  -16.5411    0.0000 H   0  0  0  0  0  0  0  0  0  0  0  0
    7.8067  -14.6738    0.0000 H   0  0  0  0  0  0  0  0  0  0  0  0
    7.4082  -13.9836    0.0000 H   0  0  0  0  0  0  0  0  0  0  0  0
    8.0833   13.3921    0.0000 H   0  0  0  0  0  0  0  0  0  0  0  0
    7.8370   14.1501    0.0000 H   0  0  0  0  0  0  0  0  0  0  0  0
    3.9875  -13.9585    0.0000 H   0  0  0  0  0  0  0  0  0  0  0  0
    4.3860  -14.6488    0.0000 H   0  0  0  0  0  0  0  0  0  0  0  0
    3.4559   15.3854    0.0000 H   0  0  0  0  0  0  0  0  0  0  0  0
    8.9282  -14.9462    0.0000 H   0  0  0  0  0  0  0  0  0  0  0  0
    8.6334   12.1687    0.0000 H   0  0  0  0  0  0  0  0  0  0  0  0
    3.1951  -12.8762    0.0000 H   0  0  0  0  0  0  0  0  0  0  0  0
    5.8888   12.7520    0.0000 H   0  0  0  0  0  0  0  0  0  0  0  0
    6.0010  -12.8762    0.0000 H   0  0  0  0  0  0  0  0  0  0  0  0
    4.1296   18.5546    0.0000 H   0  0  0  0  0  0  0  0  0  0  0  0
    8.9282  -18.1862    0.0000 H   0  0  0  0  0  0  0  0  0  0  0  0
    2.2520   16.4694    0.0000 H   0  0  0  0  0  0  0  0  0  0  0  0
   10.3312  -15.7562    0.0000 H   0  0  0  0  0  0  0  0  0  0  0  0
    5.5519   11.1674    0.0000 H   0  0  0  0  0  0  0  0  0  0  0  0
    6.0010  -11.2562    0.0000 H   0  0  0  0  0  0  0  0  0  0  0  0
    2.5888   18.0540    0.0000 H   0  0  0  0  0  0  0  0  0  0  0  0
   10.3312  -17.3762    0.0000 H   0  0  0  0  0  0  0  0  0  0  0  0
    6.5092   18.4373    0.0000 H   0  0  0  0  0  0  0  0  0  0  0  0
    6.0317   19.1726    0.0000 H   0  0  0  0  0  0  0  0  0  0  0  0
    5.2963   18.6951    0.0000 H   0  0  0  0  0  0  0  0  0  0  0  0
    6.5762  -18.5662    0.0000 H   0  0  0  0  0  0  0  0  0  0  0  0
    7.1962  -19.1862    0.0000 H   0  0  0  0  0  0  0  0  0  0  0  0
    7.8162  -18.5662    0.0000 H   0  0  0  0  0  0  0  0  0  0  0  0
    7.9948    8.8104    0.0000 H   0  0  0  0  0  0  0  0  0  0  0  0
    7.7485    9.5684    0.0000 H   0  0  0  0  0  0  0  0  0  0  0  0
    5.6762  -10.1488    0.0000 H   0  0  0  0  0  0  0  0  0  0  0  0
    6.0747   -9.4585    0.0000 H   0  0  0  0  0  0  0  0  0  0  0  0
    6.6372    8.2967    0.0000 H   0  0  0  0  0  0  0  0  0  0  0  0
    6.8835    7.5387    0.0000 H   0  0  0  0  0  0  0  0  0  0  0  0
    5.2520   -7.9836    0.0000 H   0  0  0  0  0  0  0  0  0  0  0  0
    4.8535   -8.6738    0.0000 H   0  0  0  0  0  0  0  0  0  0  0  0
    9.7216   10.0492    0.0000 H   0  0  0  0  0  0  0  0  0  0  0  0
   10.1196   10.8304    0.0000 H   0  0  0  0  0  0  0  0  0  0  0  0
    9.3384   11.2285    0.0000 H   0  0  0  0  0  0  0  0  0  0  0  0
    1.6900  -11.0292    0.0000 H   0  0  0  0  0  0  0  0  0  0  0  0
    1.4631  -11.8762    0.0000 H   0  0  0  0  0  0  0  0  0  0  0  0
    2.3100  -12.1031    0.0000 H   0  0  0  0  0  0  0  0  0  0  0  0
    8.5300    7.1631    0.0000 H   0  0  0  0  0  0  0  0  0  0  0  0
    8.2838    7.9211    0.0000 H   0  0  0  0  0  0  0  0  0  0  0  0
    6.5422   -8.6488    0.0000 H   0  0  0  0  0  0  0  0  0  0  0  0
    6.9407   -7.9585    0.0000 H   0  0  0  0  0  0  0  0  0  0  0  0
    9.0330    5.7389    0.0000 H   0  0  0  0  0  0  0  0  0  0  0  0
    7.7288   -6.6700    0.0000 H   0  0  0  0  0  0  0  0  0  0  0  0
    8.7538    3.4485    0.0000 H   0  0  0  0  0  0  0  0  0  0  0  0
    8.8372    4.2412    0.0000 H   0  0  0  0  0  0  0  0  0  0  0  0
    7.8486   -5.1643    0.0000 H   0  0  0  0  0  0  0  0  0  0  0  0
    7.9319   -4.3716    0.0000 H   0  0  0  0  0  0  0  0  0  0  0  0
    7.3047    3.5315    0.0000 H   0  0  0  0  0  0  0  0  0  0  0  0
    7.2214    2.7388    0.0000 H   0  0  0  0  0  0  0  0  0  0  0  0
    6.5805   -3.3588    0.0000 H   0  0  0  0  0  0  0  0  0  0  0  0
    6.4972   -4.1515    0.0000 H   0  0  0  0  0  0  0  0  0  0  0  0
    7.1236    1.8089    0.0000 H   0  0  0  0  0  0  0  0  0  0  0  0
    7.0403    1.0162    0.0000 H   0  0  0  0  0  0  0  0  0  0  0  0
    6.7615   -1.6362    0.0000 H   0  0  0  0  0  0  0  0  0  0  0  0
    6.6782   -2.4289    0.0000 H   0  0  0  0  0  0  0  0  0  0  0  0
    8.3918    0.0034    0.0000 H   0  0  0  0  0  0  0  0  0  0  0  0
    8.4751    0.7961    0.0000 H   0  0  0  0  0  0  0  0  0  0  0  0
    8.2107   -1.7192    0.0000 H   0  0  0  0  0  0  0  0  0  0  0  0
    8.2940   -0.9265    0.0000 H   0  0  0  0  0  0  0  0  0  0  0  0
  1 34  1  0  0  0  0
  1 54  1  0  0  0  0
  2 35  1  0  0  0  0
  2 55  1  0  0  0  0
  3 52  1  0  0  0  0
  3 56  1  0  0  0  0
  4 53  1  0  0  0  0
  4 57  1  0  0  0  0
  5 46  1  0  0  0  0
  5 60  1  0  0  0  0
  6 47  1  0  0  0  0
  6 61  1  0  0  0  0
  7 70  1  0  0  0  0
  7 72  1  0  0  0  0
  8 71  1  0  0  0  0
  8 73  1  0  0  0  0
  9 74  1  0  0  0  0
  9 75  1  0  0  0  0
 10 20  1  0  0  0  0
 10 21  1  0  0  0  0
 10 28  1  0  0  0  0
 11 22  1  0  0  0  0
 11 23  1  0  0  0  0
 11 29  1  0  0  0  0
 12 24  1  0  0  0  0
 12 25  1  0  0  0  0
 12 30  1  0  0  0  0
 13 26  1  0  0  0  0
 13 27  1  0  0  0  0
 13 31  1  0  0  0  0
 14 18  1  0  0  0  0
 14 66  1  0  0  0  0
 14 68  1  0  0  0  0
 15 19  1  0  0  0  0
 15 67  1  0  0  0  0
 15 69  1  0  0  0  0
 16 18  2  0  0  0  0
 16 64  1  0  0  0  0
 17 19  2  0  0  0  0
 17 65  1  0  0  0  0
 20 24  1  0  0  0  0
 20 76  1  0  0  0  0
 20 77  1  0  0  0  0
 21 25  1  0  0  0  0
 21 78  1  0  0  0  0
 21 79  1  0  0  0  0
 22 26  1  0  0  0  0
 22 80  1  0  0  0  0
 22 81  1  0  0  0  0
 23 27  1  0  0  0  0
 23 82  1  0  0  0  0
 23 83  1  0  0  0  0
 24 84  1  0  0  0  0
 24 85  1  0  0  0  0
 25 86  1  0  0  0  0
 25 87  1  0  0  0  0
 26 88  1  0  0  0  0
 26 89  1  0  0  0  0
 27 90  1  0  0  0  0
 27 91  1  0  0  0  0
 28 32  1  0  0  0  0
 28 92  1  0  0  0  0
 28 93  1  0  0  0  0
 29 33  1  0  0  0  0
 29 94  1  0  0  0  0
 29 95  1  0  0  0  0
 30 34  1  0  0  0  0
 30 36  2  0  0  0  0
 31 35  1  0  0  0  0
 31 37  2  0  0  0  0
 32 38  2  0  0  0  0
 32 40  1  0  0  0  0
 33 39  2  0  0  0  0
 33 41  1  0  0  0  0
 34 42  2  0  0  0  0
 35 43  2  0  0  0  0
 36 44  1  0  0  0  0
 36 96  1  0  0  0  0
 37 45  1  0  0  0  0
 37 97  1  0  0  0  0
 38 46  1  0  0  0  0
 38 98  1  0  0  0  0
 39 47  1  0  0  0  0
 39 99  1  0  0  0  0
 40 48  2  0  0  0  0
 40100  1  0  0  0  0
 41 49  2  0  0  0  0
 41101  1  0  0  0  0
 42 50  1  0  0  0  0
 42102  1  0  0  0  0
 43 51  1  0  0  0  0
 43103  1  0  0  0  0
 44 50  2  0  0  0  0
 44104  1  0  0  0  0
 45 51  2  0  0  0  0
 45105  1  0  0  0  0
 46 52  2  0  0  0  0
 47 53  2  0  0  0  0
 48 52  1  0  0  0  0
 48106  1  0  0  0  0
 49 53  1  0  0  0  0
 49107  1  0  0  0  0
 50108  1  0  0  0  0
 51109  1  0  0  0  0
 54110  1  0  0  0  0
 54111  1  0  0  0  0
 54112  1  0  0  0  0
 55113  1  0  0  0  0
 55114  1  0  0  0  0
 55115  1  0  0  0  0
 56 58  1  0  0  0  0
 56116  1  0  0  0  0
 56117  1  0  0  0  0
 57 59  1  0  0  0  0
 57118  1  0  0  0  0
 57119  1  0  0  0  0
 58 62  1  0  0  0  0
 58120  1  0  0  0  0
 58121  1  0  0  0  0
 59 63  1  0  0  0  0
 59122  1  0  0  0  0
 59123  1  0  0  0  0
 60124  1  0  0  0  0
 60125  1  0  0  0  0
 60126  1  0  0  0  0
 61127  1  0  0  0  0
 61128  1  0  0  0  0
 61129  1  0  0  0  0
 62 64  1  0  0  0  0
 62130  1  0  0  0  0
 62131  1  0  0  0  0
 63 65  1  0  0  0  0
 63132  1  0  0  0  0
 63133  1  0  0  0  0
 64 66  2  0  0  0  0
 65 67  2  0  0  0  0
 66134  1  0  0  0  0
 67135  1  0  0  0  0
 68 70  1  0  0  0  0
 68136  1  0  0  0  0
 68137  1  0  0  0  0
 69 71  1  0  0  0  0
 69138  1  0  0  0  0
 69139  1  0  0  0  0
 70140  1  0  0  0  0
 70141  1  0  0  0  0
 71142  1  0  0  0  0
 71143  1  0  0  0  0
 72 74  1  0  0  0  0
 72144  1  0  0  0  0
 72145  1  0  0  0  0
 73 75  1  0  0  0  0
 73146  1  0  0  0  0
 73147  1  0  0  0  0
 74148  1  0  0  0  0
 74149  1  0  0  0  0
 75150  1  0  0  0  0
 75151  1  0  0  0  0
M  END
> <PUBCHEM_COMPOUND_CID>
53364227

> <PUBCHEM_COMPOUND_CANONICALIZED>
1

> <PUBCHEM_CACTVS_COMPLEXITY>
1400

> <PUBCHEM_CACTVS_HBOND_ACCEPTOR>
17

> <PUBCHEM_CACTVS_HBOND_DONOR>
0

> <PUBCHEM_CACTVS_ROTATABLE_BOND>
32

> <PUBCHEM_CACTVS_SUBSKEYS>
AAADcfB//AAAAAAAAAAAAAAAAAAAAWLAAAA8eMGCAAAAAAAB9AAAHgAIAAAADAzhngY+xpMIBACiAzRnRACCDAQxsgAY2AA//IgPZiLEsZuXOCrkwBHa6Aew0BIOIAABAAAAUABAAAIAAACgAAAAAAAAAA==

> <PUBCHEM_IUPAC_OPENEYE_NAME>
1-[[3-methoxy-4-[3-[1-[2-[2-[2-[2-[4-[3-[2-methoxy-4-[[4-(2-methoxyphenyl)piperazin-1-yl]methyl]phenoxy]propyl]triazol-1-yl]ethoxy]ethoxy]ethoxy]ethyl]triazol-4-yl]propoxy]phenyl]methyl]-4-(2-methoxyphenyl)piperazine

> <PUBCHEM_IUPAC_CAS_NAME>
1-[[3-methoxy-4-[3-[1-[2-[2-[2-[2-[4-[3-[2-methoxy-4-[[4-(2-methoxyphenyl)-1-piperazinyl]methyl]phenoxy]propyl]-1-triazolyl]ethoxy]ethoxy]ethoxy]ethyl]-4-triazolyl]propoxy]phenyl]methyl]-4-(2-methoxyphenyl)piperazine

> <PUBCHEM_IUPAC_NAME_MARKUP>
1-[[3-methoxy-4-[3-[1-[2-[2-[2-[2-[4-[3-[2-methoxy-4-[[4-(2-methoxyphenyl)piperazin-1-yl]methyl]phenoxy]propyl]triazol-1-yl]ethoxy]ethoxy]ethoxy]ethyl]triazol-4-yl]propoxy]phenyl]methyl]-4-(2-methoxyphenyl)piperazine

> <PUBCHEM_IUPAC_NAME>
1-[[3-methoxy-4-[3-[1-[2-[2-[2-[2-[4-[3-[2-methoxy-4-[[4-(2-methoxyphenyl)piperazin-1-yl]methyl]phenoxy]propyl]triazol-1-yl]ethoxy]ethoxy]ethoxy]ethyl]triazol-4-yl]propoxy]phenyl]methyl]-4-(2-methoxyphenyl)piperazine

> <PUBCHEM_IUPAC_SYSTEMATIC_NAME>
1-[[3-methoxy-4-[3-[1-[2-[2-[2-[2-[4-[3-[2-methoxy-4-[[4-(2-methoxyphenyl)piperazin-1-yl]methyl]phenoxy]propyl]-1,2,3-triazol-1-yl]ethoxy]ethoxy]ethoxy]ethyl]-1,2,3-triazol-4-yl]propoxy]phenyl]methyl]-4-(2-methoxyphenyl)piperazine

> <PUBCHEM_IUPAC_TRADITIONAL_NAME>
1-[3-methoxy-4-[3-[1-[2-[2-[2-[2-[4-[3-[2-methoxy-4-[[4-(2-methoxyphenyl)piperazino]methyl]phenoxy]propyl]triazol-1-yl]ethoxy]ethoxy]ethoxy]ethyl]triazol-4-yl]propoxy]benzyl]-4-(2-methoxyphenyl)piperazine

> <PUBCHEM_IUPAC_INCHI>
InChI=1S/C56H76N10O9/c1-67-51-15-7-5-13-49(51)63-25-21-61(22-26-63)41-45-17-19-53(55(39-45)69-3)74-31-9-11-47-43-65(59-57-47)29-33-71-35-37-73-38-36-72-34-30-66-44-48(58-60-66)12-10-32-75-54-20-18-46(40-56(54)70-4)42-62-23-27-64(28-24-62)50-14-6-8-16-52(50)68-2/h5-8,13-20,39-40,43-44H,9-12,21-38,41-42H2,1-4H3

> <PUBCHEM_IUPAC_INCHIKEY>
XPOOQWFDTCQYTN-UHFFFAOYSA-N

> <PUBCHEM_XLOGP3_AA>
6

> <PUBCHEM_EXACT_MASS>
1032.57967404

> <PUBCHEM_MOLECULAR_FORMULA>
C56H76N10O9

> <PUBCHEM_MOLECULAR_WEIGHT>
1033.3

> <PUBCHEM_OPENEYE_CAN_SMILES>
COC1=CC=CC=C1N2CCN(CC2)CC3=CC(=C(C=C3)OCCCC4=CN(N=N4)CCOCCOCCOCCN5C=C(N=N5)CCCOC6=C(C=C(C=C6)CN7CCN(CC7)C8=CC=CC=C8OC)OC)OC

> <PUBCHEM_OPENEYE_ISO_SMILES>
COC1=CC=CC=C1N2CCN(CC2)CC3=CC(=C(C=C3)OCCCC4=CN(N=N4)CCOCCOCCOCCN5C=C(N=N5)CCCOC6=C(C=C(C=C6)CN7CCN(CC7)C8=CC=CC=C8OC)OC)OC

> <PUBCHEM_CACTVS_TPSA>
157

> <PUBCHEM_MONOISOTOPIC_WEIGHT>
1032.57967404

> <PUBCHEM_TOTAL_CHARGE>
0

> <PUBCHEM_HEAVY_ATOM_COUNT>
75

> <PUBCHEM_ATOM_DEF_STEREO_COUNT>
0

> <PUBCHEM_ATOM_UDEF_STEREO_COUNT>
0

> <PUBCHEM_BOND_DEF_STEREO_COUNT>
0

> <PUBCHEM_BOND_UDEF_STEREO_COUNT>
0

> <PUBCHEM_ISOTOPIC_ATOM_COUNT>
0

> <PUBCHEM_COMPONENT_COUNT>
1

> <PUBCHEM_CACTVS_TAUTO_COUNT>
-1

> <PUBCHEM_COORDINATE_TYPE>
1
5
255

> <PUBCHEM_BONDANNOTATIONS>
14  18  8
14  66  8
15  19  8
15  67  8
16  18  8
16  64  8
17  19  8
17  65  8
30  34  8
30  36  8
31  35  8
31  37  8
32  38  8
32  40  8
33  39  8
33  41  8
34  42  8
35  43  8
36  44  8
37  45  8
38  46  8
39  47  8
40  48  8
41  49  8
42  50  8
43  51  8
44  50  8
45  51  8
46  52  8
47  53  8
48  52  8
49  53  8
64  66  8
65  67  8

$$$$
