21073587
  -OEChem-09292322312D

 59 62  0     0  0  0  0  0  0999 V2000
   13.3378    1.0396    0.0000 Cl  0  0  0  0  0  0  0  0  0  0  0  0
   15.0775    3.0329    0.0000 F   0  0  0  0  0  0  0  0  0  0  0  0
   16.0737    2.0290    0.0000 F   0  0  0  0  0  0  0  0  0  0  0  0
   14.0737    2.0368    0.0000 F   0  0  0  0  0  0  0  0  0  0  0  0
    7.2622   -2.4370    0.0000 O   0  0  0  0  0  0  0  0  0  0  0  0
    2.0000   -2.4129    0.0000 O   0  0  0  0  0  0  0  0  0  0  0  0
   11.5942   -1.9537    0.0000 N   0  0  0  0  0  0  0  0  0  0  0  0
   13.3301   -0.9604    0.0000 N   0  0  0  0  0  0  0  0  0  0  0  0
    3.7320   -2.4129    0.0000 N   0  0  0  0  0  0  0  0  0  0  0  0
    5.4920   -2.4475    0.0000 N   0  0  0  0  0  0  0  0  0  0  0  0
   11.5981   -0.9537    0.0000 C   0  0  0  0  0  0  0  0  0  0  0  0
   12.4583   -2.4571    0.0000 C   0  0  0  0  0  0  0  0  0  0  0  0
   12.4660   -0.4571    0.0000 C   0  0  0  0  0  0  0  0  0  0  0  0
   13.3262   -1.9604    0.0000 C   0  0  0  0  0  0  0  0  0  0  0  0
   10.7263   -2.4504    0.0000 C   0  0  0  0  0  0  0  0  0  0  0  0
    9.8622   -1.9470    0.0000 C   0  0  0  0  0  0  0  0  0  0  0  0
   14.1980   -0.4638    0.0000 C   0  0  0  0  0  0  0  0  0  0  0  0
    8.9942   -2.4437    0.0000 C   0  0  0  0  0  0  0  0  0  0  0  0
   14.2019    0.5362    0.0000 C   0  0  0  0  0  0  0  0  0  0  0  0
    8.1301   -1.9404    0.0000 C   0  0  0  0  0  0  0  0  0  0  0  0
   15.0621   -0.9671    0.0000 C   0  0  0  0  0  0  0  0  0  0  0  0
   15.0698    1.0329    0.0000 C   0  0  0  0  0  0  0  0  0  0  0  0
   15.9301   -0.4704    0.0000 C   0  0  0  0  0  0  0  0  0  0  0  0
   15.9339    0.5296    0.0000 C   0  0  0  0  0  0  0  0  0  0  0  0
    3.7320   -0.4129    0.0000 C   0  0  0  0  0  0  0  0  0  0  0  0
    4.5981   -0.9129    0.0000 C   0  0  0  0  0  0  0  0  0  0  0  0
   15.0737    2.0329    0.0000 C   0  0  0  0  0  0  0  0  0  0  0  0
    6.3981   -1.9337    0.0000 C   0  0  0  0  0  0  0  0  0  0  0  0
    2.8660   -0.9129    0.0000 C   0  0  0  0  0  0  0  0  0  0  0  0
    4.5981   -1.9129    0.0000 C   0  0  0  0  0  0  0  0  0  0  0  0
    5.4920   -0.3782    0.0000 C   0  0  0  0  0  0  0  0  0  0  0  0
    6.3981   -0.8921    0.0000 C   0  0  0  0  0  0  0  0  0  0  0  0
    2.8660   -1.9129    0.0000 C   0  0  0  0  0  0  0  0  0  0  0  0
   11.3882   -0.3703    0.0000 H   0  0  0  0  0  0  0  0  0  0  0  0
   10.9871   -1.0590    0.0000 H   0  0  0  0  0  0  0  0  0  0  0  0
   12.0579   -2.9305    0.0000 H   0  0  0  0  0  0  0  0  0  0  0  0
   12.8550   -2.9335    0.0000 H   0  0  0  0  0  0  0  0  0  0  0  0
   12.8664    0.0163    0.0000 H   0  0  0  0  0  0  0  0  0  0  0  0
   12.0693    0.0194    0.0000 H   0  0  0  0  0  0  0  0  0  0  0  0
   13.5360   -2.5438    0.0000 H   0  0  0  0  0  0  0  0  0  0  0  0
   13.9372   -1.8551    0.0000 H   0  0  0  0  0  0  0  0  0  0  0  0
   10.3259   -2.9238    0.0000 H   0  0  0  0  0  0  0  0  0  0  0  0
   11.1229   -2.9269    0.0000 H   0  0  0  0  0  0  0  0  0  0  0  0
   10.2625   -1.4736    0.0000 H   0  0  0  0  0  0  0  0  0  0  0  0
    9.4655   -1.4706    0.0000 H   0  0  0  0  0  0  0  0  0  0  0  0
    8.5939   -2.9171    0.0000 H   0  0  0  0  0  0  0  0  0  0  0  0
    9.3909   -2.9202    0.0000 H   0  0  0  0  0  0  0  0  0  0  0  0
    8.5305   -1.4670    0.0000 H   0  0  0  0  0  0  0  0  0  0  0  0
    7.7334   -1.4639    0.0000 H   0  0  0  0  0  0  0  0  0  0  0  0
   15.0597   -1.5871    0.0000 H   0  0  0  0  0  0  0  0  0  0  0  0
   16.4658   -0.7825    0.0000 H   0  0  0  0  0  0  0  0  0  0  0  0
   16.4721    0.8375    0.0000 H   0  0  0  0  0  0  0  0  0  0  0  0
    4.1306    0.0621    0.0000 H   0  0  0  0  0  0  0  0  0  0  0  0
    3.3335    0.0621    0.0000 H   0  0  0  0  0  0  0  0  0  0  0  0
    2.6540   -0.3303    0.0000 H   0  0  0  0  0  0  0  0  0  0  0  0
    2.2554   -1.0206    0.0000 H   0  0  0  0  0  0  0  0  0  0  0  0
    5.4848    0.2417    0.0000 H   0  0  0  0  0  0  0  0  0  0  0  0
    6.9338   -0.5800    0.0000 H   0  0  0  0  0  0  0  0  0  0  0  0
    3.7320   -3.0329    0.0000 H   0  0  0  0  0  0  0  0  0  0  0  0
  1 19  1  0  0  0  0
  2 27  1  0  0  0  0
  3 27  1  0  0  0  0
  4 27  1  0  0  0  0
  5 20  1  0  0  0  0
  5 28  1  0  0  0  0
  6 33  2  0  0  0  0
  7 11  1  0  0  0  0
  7 12  1  0  0  0  0
  7 15  1  0  0  0  0
  8 13  1  0  0  0  0
  8 14  1  0  0  0  0
  8 17  1  0  0  0  0
  9 30  1  0  0  0  0
  9 33  1  0  0  0  0
  9 59  1  0  0  0  0
 10 28  2  0  0  0  0
 10 30  1  0  0  0  0
 11 13  1  0  0  0  0
 11 34  1  0  0  0  0
 11 35  1  0  0  0  0
 12 14  1  0  0  0  0
 12 36  1  0  0  0  0
 12 37  1  0  0  0  0
 13 38  1  0  0  0  0
 13 39  1  0  0  0  0
 14 40  1  0  0  0  0
 14 41  1  0  0  0  0
 15 16  1  0  0  0  0
 15 42  1  0  0  0  0
 15 43  1  0  0  0  0
 16 18  1  0  0  0  0
 16 44  1  0  0  0  0
 16 45  1  0  0  0  0
 17 19  1  0  0  0  0
 17 21  2  0  0  0  0
 18 20  1  0  0  0  0
 18 46  1  0  0  0  0
 18 47  1  0  0  0  0
 19 22  2  0  0  0  0
 20 48  1  0  0  0  0
 20 49  1  0  0  0  0
 21 23  1  0  0  0  0
 21 50  1  0  0  0  0
 22 24  1  0  0  0  0
 22 27  1  0  0  0  0
 23 24  2  0  0  0  0
 23 51  1  0  0  0  0
 24 52  1  0  0  0  0
 25 26  1  0  0  0  0
 25 29  1  0  0  0  0
 25 53  1  0  0  0  0
 25 54  1  0  0  0  0
 26 30  2  0  0  0  0
 26 31  1  0  0  0  0
 28 32  1  0  0  0  0
 29 33  1  0  0  0  0
 29 55  1  0  0  0  0
 29 56  1  0  0  0  0
 31 32  2  0  0  0  0
 31 57  1  0  0  0  0
 32 58  1  0  0  0  0
M  END
> <PUBCHEM_COMPOUND_CID>
21073587

> <PUBCHEM_COMPOUND_CANONICALIZED>
1

> <PUBCHEM_CACTVS_COMPLEXITY>
648

> <PUBCHEM_CACTVS_HBOND_ACCEPTOR>
8

> <PUBCHEM_CACTVS_HBOND_DONOR>
1

> <PUBCHEM_CACTVS_ROTATABLE_BOND>
7

> <PUBCHEM_CACTVS_SUBSKEYS>
AAADceB7sYAEAAAAAAAAAAAAAAAAAAAAAAA8WLEAAAAAAACxwAAAHwIQAAAADArhmjYx9JPIFACoAidydACCiCkhJiAJmCE+bpiMZvLFu5veOCjs1RPI6Ce42SKOAAAAQAABABAAAACAAAIAIAAAAAAAAA==

> <PUBCHEM_IUPAC_OPENEYE_NAME>
7-[4-[4-[2-chloro-3-(trifluoromethyl)phenyl]piperazin-1-yl]butoxy]-3,4-dihydro-1H-1,8-naphthyridin-2-one

> <PUBCHEM_IUPAC_CAS_NAME>
7-[4-[4-[2-chloro-3-(trifluoromethyl)phenyl]-1-piperazinyl]butoxy]-3,4-dihydro-1H-1,8-naphthyridin-2-one

> <PUBCHEM_IUPAC_NAME_MARKUP>
7-[4-[4-[2-chloro-3-(trifluoromethyl)phenyl]piperazin-1-yl]butoxy]-3,4-dihydro-1<I>H</I>-1,8-naphthyridin-2-one

> <PUBCHEM_IUPAC_NAME>
7-[4-[4-[2-chloro-3-(trifluoromethyl)phenyl]piperazin-1-yl]butoxy]-3,4-dihydro-1H-1,8-naphthyridin-2-one

> <PUBCHEM_IUPAC_SYSTEMATIC_NAME>
7-[4-[4-[2-chloranyl-3-(trifluoromethyl)phenyl]piperazin-1-yl]butoxy]-3,4-dihydro-1H-1,8-naphthyridin-2-one

> <PUBCHEM_IUPAC_TRADITIONAL_NAME>
7-[4-[4-[2-chloro-3-(trifluoromethyl)phenyl]piperazino]butoxy]-3,4-dihydro-1H-1,8-naphthyridin-2-one

> <PUBCHEM_IUPAC_INCHI>
InChI=1S/C23H26ClF3N4O2/c24-21-17(23(25,26)27)4-3-5-18(21)31-13-11-30(12-14-31)10-1-2-15-33-20-9-7-16-6-8-19(32)28-22(16)29-20/h3-5,7,9H,1-2,6,8,10-15H2,(H,28,29,32)

> <PUBCHEM_IUPAC_INCHIKEY>
JMXCICODDRWOSZ-UHFFFAOYSA-N

> <PUBCHEM_XLOGP3_AA>
4.5

> <PUBCHEM_EXACT_MASS>
482.1696383

> <PUBCHEM_MOLECULAR_FORMULA>
C23H26ClF3N4O2

> <PUBCHEM_MOLECULAR_WEIGHT>
482.9

> <PUBCHEM_OPENEYE_CAN_SMILES>
C1CC(=O)NC2=C1C=CC(=N2)OCCCCN3CCN(CC3)C4=CC=CC(=C4Cl)C(F)(F)F

> <PUBCHEM_OPENEYE_ISO_SMILES>
C1CC(=O)NC2=C1C=CC(=N2)OCCCCN3CCN(CC3)C4=CC=CC(=C4Cl)C(F)(F)F

> <PUBCHEM_CACTVS_TPSA>
57.7

> <PUBCHEM_MONOISOTOPIC_WEIGHT>
482.1696383

> <PUBCHEM_TOTAL_CHARGE>
0

> <PUBCHEM_HEAVY_ATOM_COUNT>
33

> <PUBCHEM_ATOM_DEF_STEREO_COUNT>
0

> <PUBCHEM_ATOM_UDEF_STEREO_COUNT>
0

> <PUBCHEM_BOND_DEF_STEREO_COUNT>
0

> <PUBCHEM_BOND_UDEF_STEREO_COUNT>
0

> <PUBCHEM_ISOTOPIC_ATOM_COUNT>
0

> <PUBCHEM_COMPONENT_COUNT>
1

> <PUBCHEM_CACTVS_TAUTO_COUNT>
-1

> <PUBCHEM_COORDINATE_TYPE>
1
5
255

> <PUBCHEM_BONDANNOTATIONS>
10  28  8
10  30  8
17  19  8
17  21  8
19  22  8
21  23  8
22  24  8
23  24  8
26  30  8
26  31  8
28  32  8
31  32  8

$$$$
