155538429
  -OEChem-09292322402D

 62 65  0     0  0  0  0  0  0999 V2000
    6.6962    7.5194    0.0000 S   0  0  0  0  0  0  0  0  0  0  0  0
    2.0000   -5.0194    0.0000 F   0  0  0  0  0  0  0  0  0  0  0  0
    2.3660   -6.3854    0.0000 F   0  0  0  0  0  0  0  0  0  0  0  0
    3.3660   -4.6534    0.0000 F   0  0  0  0  0  0  0  0  0  0  0  0
    8.0622    1.4806    0.0000 O   0  0  0  0  0  0  0  0  0  0  0  0
    4.5981   -2.5194    0.0000 N   0  0  0  0  0  0  0  0  0  0  0  0
    4.5981   -4.5194    0.0000 N   0  0  0  0  0  0  0  0  0  0  0  0
    6.3301    1.4806    0.0000 N   0  0  0  0  0  0  0  0  0  0  0  0
    3.7320   -3.0194    0.0000 C   0  0  0  0  0  0  0  0  0  0  0  0
    5.4641   -3.0194    0.0000 C   0  0  0  0  0  0  0  0  0  0  0  0
    3.7320   -4.0194    0.0000 C   0  0  0  0  0  0  0  0  0  0  0  0
    5.4641   -4.0194    0.0000 C   0  0  0  0  0  0  0  0  0  0  0  0
    4.5981   -1.5194    0.0000 C   0  0  0  0  0  0  0  0  0  0  0  0
    5.4641   -1.0194    0.0000 C   0  0  0  0  0  0  0  0  0  0  0  0
    4.5981   -5.5194    0.0000 C   0  0  0  0  0  0  0  0  0  0  0  0
    5.4641   -0.0194    0.0000 C   0  0  0  0  0  0  0  0  0  0  0  0
    3.7320   -6.0194    0.0000 C   0  0  0  0  0  0  0  0  0  0  0  0
    6.3301    0.4806    0.0000 C   0  0  0  0  0  0  0  0  0  0  0  0
    5.4641   -6.0194    0.0000 C   0  0  0  0  0  0  0  0  0  0  0  0
    3.7320   -7.0194    0.0000 C   0  0  0  0  0  0  0  0  0  0  0  0
    2.8660   -5.5194    0.0000 C   0  0  0  0  0  0  0  0  0  0  0  0
    5.4641   -7.0194    0.0000 C   0  0  0  0  0  0  0  0  0  0  0  0
    4.5981   -7.5194    0.0000 C   0  0  0  0  0  0  0  0  0  0  0  0
    7.1962    1.9806    0.0000 C   0  0  0  0  0  0  0  0  0  0  0  0
    7.1962    2.9806    0.0000 C   0  0  0  0  0  0  0  0  0  0  0  0
    8.0622    3.4806    0.0000 C   0  0  0  0  0  0  0  0  0  0  0  0
    6.3301    3.4806    0.0000 C   0  0  0  0  0  0  0  0  0  0  0  0
    7.1962    4.9806    0.0000 C   0  0  0  0  0  0  0  0  0  0  0  0
    8.0622    4.4806    0.0000 C   0  0  0  0  0  0  0  0  0  0  0  0
    6.3301    4.4806    0.0000 C   0  0  0  0  0  0  0  0  0  0  0  0
    7.1962    5.9806    0.0000 C   0  0  0  0  0  0  0  0  0  0  0  0
    8.0052    6.5684    0.0000 C   0  0  0  0  0  0  0  0  0  0  0  0
    6.3871    6.5684    0.0000 C   0  0  0  0  0  0  0  0  0  0  0  0
    7.6962    7.5194    0.0000 C   0  0  0  0  0  0  0  0  0  0  0  0
    3.5200   -2.4368    0.0000 H   0  0  0  0  0  0  0  0  0  0  0  0
    3.1215   -3.1271    0.0000 H   0  0  0  0  0  0  0  0  0  0  0  0
    6.0747   -3.1271    0.0000 H   0  0  0  0  0  0  0  0  0  0  0  0
    5.6762   -2.4368    0.0000 H   0  0  0  0  0  0  0  0  0  0  0  0
    3.1215   -3.9118    0.0000 H   0  0  0  0  0  0  0  0  0  0  0  0
    3.5200   -4.6020    0.0000 H   0  0  0  0  0  0  0  0  0  0  0  0
    5.6762   -4.6020    0.0000 H   0  0  0  0  0  0  0  0  0  0  0  0
    6.0747   -3.9118    0.0000 H   0  0  0  0  0  0  0  0  0  0  0  0
    4.3860   -0.9368    0.0000 H   0  0  0  0  0  0  0  0  0  0  0  0
    3.9875   -1.6271    0.0000 H   0  0  0  0  0  0  0  0  0  0  0  0
    5.6762   -1.6020    0.0000 H   0  0  0  0  0  0  0  0  0  0  0  0
    6.0747   -0.9118    0.0000 H   0  0  0  0  0  0  0  0  0  0  0  0
    5.2520    0.5632    0.0000 H   0  0  0  0  0  0  0  0  0  0  0  0
    4.8535   -0.1271    0.0000 H   0  0  0  0  0  0  0  0  0  0  0  0
    6.5422   -0.1020    0.0000 H   0  0  0  0  0  0  0  0  0  0  0  0
    6.9407    0.5882    0.0000 H   0  0  0  0  0  0  0  0  0  0  0  0
    6.0010   -5.7094    0.0000 H   0  0  0  0  0  0  0  0  0  0  0  0
    3.1951   -7.3294    0.0000 H   0  0  0  0  0  0  0  0  0  0  0  0
    6.0010   -7.3294    0.0000 H   0  0  0  0  0  0  0  0  0  0  0  0
    5.7932    1.7906    0.0000 H   0  0  0  0  0  0  0  0  0  0  0  0
    4.5981   -8.1394    0.0000 H   0  0  0  0  0  0  0  0  0  0  0  0
    8.5991    3.1706    0.0000 H   0  0  0  0  0  0  0  0  0  0  0  0
    5.7932    3.1706    0.0000 H   0  0  0  0  0  0  0  0  0  0  0  0
    8.5991    4.7906    0.0000 H   0  0  0  0  0  0  0  0  0  0  0  0
    5.7932    4.7906    0.0000 H   0  0  0  0  0  0  0  0  0  0  0  0
    8.5948    6.3768    0.0000 H   0  0  0  0  0  0  0  0  0  0  0  0
    5.7975    6.3768    0.0000 H   0  0  0  0  0  0  0  0  0  0  0  0
    8.0606    8.0210    0.0000 H   0  0  0  0  0  0  0  0  0  0  0  0
  1 33  1  0  0  0  0
  1 34  1  0  0  0  0
  2 21  1  0  0  0  0
  3 21  1  0  0  0  0
  4 21  1  0  0  0  0
  5 24  2  0  0  0  0
  6  9  1  0  0  0  0
  6 10  1  0  0  0  0
  6 13  1  0  0  0  0
  7 11  1  0  0  0  0
  7 12  1  0  0  0  0
  7 15  1  0  0  0  0
  8 18  1  0  0  0  0
  8 24  1  0  0  0  0
  8 54  1  0  0  0  0
  9 11  1  0  0  0  0
  9 35  1  0  0  0  0
  9 36  1  0  0  0  0
 10 12  1  0  0  0  0
 10 37  1  0  0  0  0
 10 38  1  0  0  0  0
 11 39  1  0  0  0  0
 11 40  1  0  0  0  0
 12 41  1  0  0  0  0
 12 42  1  0  0  0  0
 13 14  1  0  0  0  0
 13 43  1  0  0  0  0
 13 44  1  0  0  0  0
 14 16  1  0  0  0  0
 14 45  1  0  0  0  0
 14 46  1  0  0  0  0
 15 17  1  0  0  0  0
 15 19  2  0  0  0  0
 16 18  1  0  0  0  0
 16 47  1  0  0  0  0
 16 48  1  0  0  0  0
 17 20  2  0  0  0  0
 17 21  1  0  0  0  0
 18 49  1  0  0  0  0
 18 50  1  0  0  0  0
 19 22  1  0  0  0  0
 19 51  1  0  0  0  0
 20 23  1  0  0  0  0
 20 52  1  0  0  0  0
 22 23  2  0  0  0  0
 22 53  1  0  0  0  0
 23 55  1  0  0  0  0
 24 25  1  0  0  0  0
 25 26  2  0  0  0  0
 25 27  1  0  0  0  0
 26 29  1  0  0  0  0
 26 56  1  0  0  0  0
 27 30  2  0  0  0  0
 27 57  1  0  0  0  0
 28 29  2  0  0  0  0
 28 30  1  0  0  0  0
 28 31  1  0  0  0  0
 29 58  1  0  0  0  0
 30 59  1  0  0  0  0
 31 32  1  0  0  0  0
 31 33  2  0  0  0  0
 32 34  2  0  0  0  0
 32 60  1  0  0  0  0
 33 61  1  0  0  0  0
 34 62  1  0  0  0  0
M  END
> <PUBCHEM_COMPOUND_CID>
155538429

> <PUBCHEM_COMPOUND_CANONICALIZED>
1

> <PUBCHEM_CACTVS_COMPLEXITY>
633

> <PUBCHEM_CACTVS_HBOND_ACCEPTOR>
7

> <PUBCHEM_CACTVS_HBOND_DONOR>
1

> <PUBCHEM_CACTVS_ROTATABLE_BOND>
8

> <PUBCHEM_CACTVS_SUBSKEYS>
AAADceB7IYBAAAAAAAAAAAAAAAAAASAAAAA8YIAAAAAAAAAB0AAAHwQQAAAADAjF2BSwwYPAAAiMAiVSUACDAIAlChBIiJkIZMgIYDLglZGUIQhglgDoyYcYiMCOwAAAAAACAACAAAAAAAQAAAAAAAAAAA==

> <PUBCHEM_IUPAC_OPENEYE_NAME>
4-(3-thienyl)-N-[4-[4-[2-(trifluoromethyl)phenyl]piperazin-1-yl]butyl]benzamide

> <PUBCHEM_IUPAC_CAS_NAME>
4-(3-thiophenyl)-N-[4-[4-[2-(trifluoromethyl)phenyl]-1-piperazinyl]butyl]benzamide

> <PUBCHEM_IUPAC_NAME_MARKUP>
4-thiophen-3-yl-<I>N</I>-[4-[4-[2-(trifluoromethyl)phenyl]piperazin-1-yl]butyl]benzamide

> <PUBCHEM_IUPAC_NAME>
4-thiophen-3-yl-N-[4-[4-[2-(trifluoromethyl)phenyl]piperazin-1-yl]butyl]benzamide

> <PUBCHEM_IUPAC_SYSTEMATIC_NAME>
4-thiophen-3-yl-N-[4-[4-[2-(trifluoromethyl)phenyl]piperazin-1-yl]butyl]benzamide

> <PUBCHEM_IUPAC_TRADITIONAL_NAME>
4-(3-thienyl)-N-[4-[4-[2-(trifluoromethyl)phenyl]piperazino]butyl]benzamide

> <PUBCHEM_IUPAC_INCHI>
InChI=1S/C26H28F3N3OS/c27-26(28,29)23-5-1-2-6-24(23)32-16-14-31(15-17-32)13-4-3-12-30-25(33)21-9-7-20(8-10-21)22-11-18-34-19-22/h1-2,5-11,18-19H,3-4,12-17H2,(H,30,33)

> <PUBCHEM_IUPAC_INCHIKEY>
RSQYYIMQKSBFSO-UHFFFAOYSA-N

> <PUBCHEM_XLOGP3_AA>
5.7

> <PUBCHEM_EXACT_MASS>
487.19051818

> <PUBCHEM_MOLECULAR_FORMULA>
C26H28F3N3OS

> <PUBCHEM_MOLECULAR_WEIGHT>
487.6

> <PUBCHEM_OPENEYE_CAN_SMILES>
C1CN(CCN1CCCCNC(=O)C2=CC=C(C=C2)C3=CSC=C3)C4=CC=CC=C4C(F)(F)F

> <PUBCHEM_OPENEYE_ISO_SMILES>
C1CN(CCN1CCCCNC(=O)C2=CC=C(C=C2)C3=CSC=C3)C4=CC=CC=C4C(F)(F)F

> <PUBCHEM_CACTVS_TPSA>
63.8

> <PUBCHEM_MONOISOTOPIC_WEIGHT>
487.19051818

> <PUBCHEM_TOTAL_CHARGE>
0

> <PUBCHEM_HEAVY_ATOM_COUNT>
34

> <PUBCHEM_ATOM_DEF_STEREO_COUNT>
0

> <PUBCHEM_ATOM_UDEF_STEREO_COUNT>
0

> <PUBCHEM_BOND_DEF_STEREO_COUNT>
0

> <PUBCHEM_BOND_UDEF_STEREO_COUNT>
0

> <PUBCHEM_ISOTOPIC_ATOM_COUNT>
0

> <PUBCHEM_COMPONENT_COUNT>
1

> <PUBCHEM_CACTVS_TAUTO_COUNT>
-1

> <PUBCHEM_COORDINATE_TYPE>
1
5
255

> <PUBCHEM_BONDANNOTATIONS>
1  33  8
1  34  8
15  17  8
15  19  8
17  20  8
19  22  8
20  23  8
22  23  8
25  26  8
25  27  8
26  29  8
27  30  8
28  29  8
28  30  8
31  32  8
31  33  8
32  34  8

$$$$
