90645305
  -OEChem-09292322082D

 64 67  0     0  0  0  0  0  0999 V2000
    2.0000    3.3557    0.0000 Cl  0  0  0  0  0  0  0  0  0  0  0  0
    5.5443    1.5510    0.0000 S   0  0  0  0  0  0  0  0  0  0  0  0
   10.6279   -3.7064    0.0000 O   0  0  0  0  0  0  0  0  0  0  0  0
    7.6279    3.2218    0.0000 O   0  0  0  0  0  0  0  0  0  0  0  0
    2.0000    1.3557    0.0000 O   0  0  0  0  0  0  0  0  0  0  0  0
   10.6279   -0.2423    0.0000 N   0  0  0  0  0  0  0  0  0  0  0  0
   11.6279   -1.9744    0.0000 N   0  0  0  0  0  0  0  0  0  0  0  0
    7.6279    1.4897    0.0000 N   0  0  0  0  0  0  0  0  0  0  0  0
    5.8550    4.1110    0.0000 N   0  0  0  0  0  0  0  0  0  0  0  0
    3.7320    1.3557    0.0000 N   0  0  0  0  0  0  0  0  0  0  0  0
   10.1279   -1.1084    0.0000 C   0  0  0  0  0  0  0  0  0  0  0  0
   11.6279   -0.2423    0.0000 C   0  0  0  0  0  0  0  0  0  0  0  0
   10.6279   -1.9744    0.0000 C   0  0  0  0  0  0  0  0  0  0  0  0
   12.1279   -1.1084    0.0000 C   0  0  0  0  0  0  0  0  0  0  0  0
   10.1279    0.6237    0.0000 C   0  0  0  0  0  0  0  0  0  0  0  0
    9.1279    0.6237    0.0000 C   0  0  0  0  0  0  0  0  0  0  0  0
   12.1279   -2.8404    0.0000 C   0  0  0  0  0  0  0  0  0  0  0  0
    8.6279    1.4897    0.0000 C   0  0  0  0  0  0  0  0  0  0  0  0
   11.6279   -3.7064    0.0000 C   0  0  0  0  0  0  0  0  0  0  0  0
   13.1279   -2.8404    0.0000 C   0  0  0  0  0  0  0  0  0  0  0  0
   12.1279   -4.5725    0.0000 C   0  0  0  0  0  0  0  0  0  0  0  0
   13.6279   -3.7064    0.0000 C   0  0  0  0  0  0  0  0  0  0  0  0
   13.1279   -4.5725    0.0000 C   0  0  0  0  0  0  0  0  0  0  0  0
    7.1279    2.3557    0.0000 C   0  0  0  0  0  0  0  0  0  0  0  0
    6.1279    2.3557    0.0000 C   0  0  0  0  0  0  0  0  0  0  0  0
    5.5443    3.1605    0.0000 C   0  0  0  0  0  0  0  0  0  0  0  0
    4.5981    2.8557    0.0000 C   0  0  0  0  0  0  0  0  0  0  0  0
    4.5981    1.8557    0.0000 C   0  0  0  0  0  0  0  0  0  0  0  0
    3.7320    3.3557    0.0000 C   0  0  0  0  0  0  0  0  0  0  0  0
   10.1279   -4.5725    0.0000 C   0  0  0  0  0  0  0  0  0  0  0  0
    2.8660    2.8557    0.0000 C   0  0  0  0  0  0  0  0  0  0  0  0
    3.7320    4.3557    0.0000 C   0  0  0  0  0  0  0  0  0  0  0  0
    2.8660    1.8557    0.0000 C   0  0  0  0  0  0  0  0  0  0  0  0
    2.0000    0.3557    0.0000 C   0  0  0  0  0  0  0  0  0  0  0  0
    9.6530   -0.7098    0.0000 H   0  0  0  0  0  0  0  0  0  0  0  0
    9.6530   -1.5069    0.0000 H   0  0  0  0  0  0  0  0  0  0  0  0
   12.2105   -0.0303    0.0000 H   0  0  0  0  0  0  0  0  0  0  0  0
   11.5202    0.3682    0.0000 H   0  0  0  0  0  0  0  0  0  0  0  0
   10.0453   -2.1864    0.0000 H   0  0  0  0  0  0  0  0  0  0  0  0
   10.7356   -2.5850    0.0000 H   0  0  0  0  0  0  0  0  0  0  0  0
   12.6029   -1.5069    0.0000 H   0  0  0  0  0  0  0  0  0  0  0  0
   12.6029   -0.7098    0.0000 H   0  0  0  0  0  0  0  0  0  0  0  0
   10.7105    0.8357    0.0000 H   0  0  0  0  0  0  0  0  0  0  0  0
   10.0202    1.2343    0.0000 H   0  0  0  0  0  0  0  0  0  0  0  0
    8.5453    0.4116    0.0000 H   0  0  0  0  0  0  0  0  0  0  0  0
    9.2356    0.0131    0.0000 H   0  0  0  0  0  0  0  0  0  0  0  0
    9.2105    1.7018    0.0000 H   0  0  0  0  0  0  0  0  0  0  0  0
    8.5202    2.1003    0.0000 H   0  0  0  0  0  0  0  0  0  0  0  0
   13.4379   -2.3035    0.0000 H   0  0  0  0  0  0  0  0  0  0  0  0
    7.3179    0.9528    0.0000 H   0  0  0  0  0  0  0  0  0  0  0  0
   11.8179   -5.1094    0.0000 H   0  0  0  0  0  0  0  0  0  0  0  0
   14.2479   -3.7064    0.0000 H   0  0  0  0  0  0  0  0  0  0  0  0
   13.4379   -5.1094    0.0000 H   0  0  0  0  0  0  0  0  0  0  0  0
    9.5910   -4.2625    0.0000 H   0  0  0  0  0  0  0  0  0  0  0  0
    9.8179   -5.1094    0.0000 H   0  0  0  0  0  0  0  0  0  0  0  0
   10.6648   -4.8825    0.0000 H   0  0  0  0  0  0  0  0  0  0  0  0
    4.3520    4.3557    0.0000 H   0  0  0  0  0  0  0  0  0  0  0  0
    3.7320    4.9757    0.0000 H   0  0  0  0  0  0  0  0  0  0  0  0
    3.1120    4.3557    0.0000 H   0  0  0  0  0  0  0  0  0  0  0  0
    6.4616    4.2388    0.0000 H   0  0  0  0  0  0  0  0  0  0  0  0
    5.4409    4.5725    0.0000 H   0  0  0  0  0  0  0  0  0  0  0  0
    1.3800    0.3557    0.0000 H   0  0  0  0  0  0  0  0  0  0  0  0
    2.0000   -0.2643    0.0000 H   0  0  0  0  0  0  0  0  0  0  0  0
    2.6200    0.3557    0.0000 H   0  0  0  0  0  0  0  0  0  0  0  0
  1 31  1  0  0  0  0
  2 25  1  0  0  0  0
  2 28  1  0  0  0  0
  3 19  1  0  0  0  0
  3 30  1  0  0  0  0
  4 24  2  0  0  0  0
  5 33  1  0  0  0  0
  5 34  1  0  0  0  0
  6 11  1  0  0  0  0
  6 12  1  0  0  0  0
  6 15  1  0  0  0  0
  7 13  1  0  0  0  0
  7 14  1  0  0  0  0
  7 17  1  0  0  0  0
  8 18  1  0  0  0  0
  8 24  1  0  0  0  0
  8 50  1  0  0  0  0
  9 26  1  0  0  0  0
  9 60  1  0  0  0  0
  9 61  1  0  0  0  0
 10 28  2  0  0  0  0
 10 33  1  0  0  0  0
 11 13  1  0  0  0  0
 11 35  1  0  0  0  0
 11 36  1  0  0  0  0
 12 14  1  0  0  0  0
 12 37  1  0  0  0  0
 12 38  1  0  0  0  0
 13 39  1  0  0  0  0
 13 40  1  0  0  0  0
 14 41  1  0  0  0  0
 14 42  1  0  0  0  0
 15 16  1  0  0  0  0
 15 43  1  0  0  0  0
 15 44  1  0  0  0  0
 16 18  1  0  0  0  0
 16 45  1  0  0  0  0
 16 46  1  0  0  0  0
 17 19  1  0  0  0  0
 17 20  2  0  0  0  0
 18 47  1  0  0  0  0
 18 48  1  0  0  0  0
 19 21  2  0  0  0  0
 20 22  1  0  0  0  0
 20 49  1  0  0  0  0
 21 23  1  0  0  0  0
 21 51  1  0  0  0  0
 22 23  2  0  0  0  0
 22 52  1  0  0  0  0
 23 53  1  0  0  0  0
 24 25  1  0  0  0  0
 25 26  2  0  0  0  0
 26 27  1  0  0  0  0
 27 28  1  0  0  0  0
 27 29  2  0  0  0  0
 29 31  1  0  0  0  0
 29 32  1  0  0  0  0
 30 54  1  0  0  0  0
 30 55  1  0  0  0  0
 30 56  1  0  0  0  0
 31 33  2  0  0  0  0
 32 57  1  0  0  0  0
 32 58  1  0  0  0  0
 32 59  1  0  0  0  0
 34 62  1  0  0  0  0
 34 63  1  0  0  0  0
 34 64  1  0  0  0  0
M  END
> <PUBCHEM_COMPOUND_CID>
90645305

> <PUBCHEM_COMPOUND_CANONICALIZED>
1

> <PUBCHEM_CACTVS_COMPLEXITY>
671

> <PUBCHEM_CACTVS_HBOND_ACCEPTOR>
8

> <PUBCHEM_CACTVS_HBOND_DONOR>
2

> <PUBCHEM_CACTVS_ROTATABLE_BOND>
8

> <PUBCHEM_CACTVS_SUBSKEYS>
AAADceB7sABEAAAAAAAAAAAAAAAAASAAAAA8WIAAAAAAAFgB/AAAHgYQAAAADA7B2iYyx9PIFAisAiVyVACD2KBlLngImLUvb9gOZnvl99vVNaxk1hH46UeY2SGOgAAAAAAAEAAAAAAAAAAgAAAAAAAAAA==

> <PUBCHEM_IUPAC_OPENEYE_NAME>
3-amino-5-chloro-6-methoxy-N-[3-[4-(2-methoxyphenyl)piperazin-1-yl]propyl]-4-methyl-thieno[2,3-b]pyridine-2-carboxamide

> <PUBCHEM_IUPAC_CAS_NAME>
3-amino-5-chloro-6-methoxy-N-[3-[4-(2-methoxyphenyl)-1-piperazinyl]propyl]-4-methyl-2-thieno[2,3-b]pyridinecarboxamide

> <PUBCHEM_IUPAC_NAME_MARKUP>
3-amino-5-chloro-6-methoxy-<I>N</I>-[3-[4-(2-methoxyphenyl)piperazin-1-yl]propyl]-4-methylthieno[2,3-b]pyridine-2-carboxamide

> <PUBCHEM_IUPAC_NAME>
3-amino-5-chloro-6-methoxy-N-[3-[4-(2-methoxyphenyl)piperazin-1-yl]propyl]-4-methylthieno[2,3-b]pyridine-2-carboxamide

> <PUBCHEM_IUPAC_SYSTEMATIC_NAME>
3-azanyl-5-chloranyl-6-methoxy-N-[3-[4-(2-methoxyphenyl)piperazin-1-yl]propyl]-4-methyl-thieno[2,3-b]pyridine-2-carboxamide

> <PUBCHEM_IUPAC_TRADITIONAL_NAME>
3-amino-5-chloro-6-methoxy-N-[3-[4-(2-methoxyphenyl)piperazino]propyl]-4-methyl-thieno[2,3-b]pyridine-2-carboxamide

> <PUBCHEM_IUPAC_INCHI>
InChI=1S/C24H30ClN5O3S/c1-15-18-20(26)21(34-24(18)28-23(33-3)19(15)25)22(31)27-9-6-10-29-11-13-30(14-12-29)16-7-4-5-8-17(16)32-2/h4-5,7-8H,6,9-14,26H2,1-3H3,(H,27,31)

> <PUBCHEM_IUPAC_INCHIKEY>
WRFRTCQJMMIOLF-UHFFFAOYSA-N

> <PUBCHEM_XLOGP3_AA>
4.9

> <PUBCHEM_EXACT_MASS>
503.1757887

> <PUBCHEM_MOLECULAR_FORMULA>
C24H30ClN5O3S

> <PUBCHEM_MOLECULAR_WEIGHT>
504.0

> <PUBCHEM_OPENEYE_CAN_SMILES>
CC1=C2C(=C(SC2=NC(=C1Cl)OC)C(=O)NCCCN3CCN(CC3)C4=CC=CC=C4OC)N

> <PUBCHEM_OPENEYE_ISO_SMILES>
CC1=C2C(=C(SC2=NC(=C1Cl)OC)C(=O)NCCCN3CCN(CC3)C4=CC=CC=C4OC)N

> <PUBCHEM_CACTVS_TPSA>
121

> <PUBCHEM_MONOISOTOPIC_WEIGHT>
503.1757887

> <PUBCHEM_TOTAL_CHARGE>
0

> <PUBCHEM_HEAVY_ATOM_COUNT>
34

> <PUBCHEM_ATOM_DEF_STEREO_COUNT>
0

> <PUBCHEM_ATOM_UDEF_STEREO_COUNT>
0

> <PUBCHEM_BOND_DEF_STEREO_COUNT>
0

> <PUBCHEM_BOND_UDEF_STEREO_COUNT>
0

> <PUBCHEM_ISOTOPIC_ATOM_COUNT>
0

> <PUBCHEM_COMPONENT_COUNT>
1

> <PUBCHEM_CACTVS_TAUTO_COUNT>
-1

> <PUBCHEM_COORDINATE_TYPE>
1
5
255

> <PUBCHEM_BONDANNOTATIONS>
10  28  8
10  33  8
17  19  8
17  20  8
19  21  8
2  25  8
2  28  8
20  22  8
21  23  8
22  23  8
25  26  8
26  27  8
27  28  8
27  29  8
29  31  8
31  33  8

$$$$
