137642921
  -OEChem-09292322392D

 70 71  0     0  0  0  0  0  0999 V2000
   11.4651   18.0841    0.0000 Cl  0  0  0  0  0  0  0  0  0  0  0  0
    6.0010    3.6200    0.0000 S   0  0  0  0  0  0  0  0  0  0  0  0
    6.0010    2.6200    0.0000 S   0  0  0  0  0  0  0  0  0  0  0  0
    8.9651   15.4860    0.0000 O   0  0  0  0  0  0  0  0  0  0  0  0
    6.8671   10.1200    0.0000 O   0  0  0  0  0  0  0  0  0  0  0  0
    7.7331    5.6200    0.0000 O   0  0  0  0  0  0  0  0  0  0  0  0
    4.2690    0.6200    0.0000 O   0  0  0  0  0  0  0  0  0  0  0  0
    1.7320    9.6020    0.0000 O   0  0  0  0  0  0  0  0  0  0  0  0
    0.0000    9.6020    0.0000 O   0  0  0  0  0  0  0  0  0  0  0  0
    9.4651   12.6200    0.0000 N   0  0  0  0  0  0  0  0  0  0  0  0
    9.4651   14.6200    0.0000 C   0  0  0  0  0  0  0  0  0  0  0  0
   10.3312   14.1200    0.0000 C   0  0  0  0  0  0  0  0  0  0  0  0
    8.5991   14.1200    0.0000 C   0  0  0  0  0  0  0  0  0  0  0  0
   10.3312   13.1200    0.0000 C   0  0  0  0  0  0  0  0  0  0  0  0
    8.5991   13.1200    0.0000 C   0  0  0  0  0  0  0  0  0  0  0  0
    9.4651   11.6200    0.0000 C   0  0  0  0  0  0  0  0  0  0  0  0
    9.9651   15.4860    0.0000 C   0  0  0  0  0  0  0  0  0  0  0  0
    8.5991   11.1200    0.0000 C   0  0  0  0  0  0  0  0  0  0  0  0
   10.9651   15.4860    0.0000 C   0  0  0  0  0  0  0  0  0  0  0  0
    9.4651   16.3521    0.0000 C   0  0  0  0  0  0  0  0  0  0  0  0
    8.5991   10.1200    0.0000 C   0  0  0  0  0  0  0  0  0  0  0  0
   11.4651   16.3521    0.0000 C   0  0  0  0  0  0  0  0  0  0  0  0
    9.9651   17.2181    0.0000 C   0  0  0  0  0  0  0  0  0  0  0  0
   10.9651   17.2181    0.0000 C   0  0  0  0  0  0  0  0  0  0  0  0
    7.7331    9.6200    0.0000 C   0  0  0  0  0  0  0  0  0  0  0  0
    7.7331    8.6200    0.0000 C   0  0  0  0  0  0  0  0  0  0  0  0
    8.5991    8.1200    0.0000 C   0  0  0  0  0  0  0  0  0  0  0  0
    6.8671    8.1200    0.0000 C   0  0  0  0  0  0  0  0  0  0  0  0
    8.5991    7.1200    0.0000 C   0  0  0  0  0  0  0  0  0  0  0  0
    6.8671    7.1200    0.0000 C   0  0  0  0  0  0  0  0  0  0  0  0
    7.7331    6.6200    0.0000 C   0  0  0  0  0  0  0  0  0  0  0  0
    6.8671    5.1200    0.0000 C   0  0  0  0  0  0  0  0  0  0  0  0
    6.8671    4.1200    0.0000 C   0  0  0  0  0  0  0  0  0  0  0  0
    5.1350    2.1200    0.0000 C   0  0  0  0  0  0  0  0  0  0  0  0
    5.1350    1.1200    0.0000 C   0  0  0  0  0  0  0  0  0  0  0  0
    0.8660    9.1020    0.0000 C   0  0  0  0  0  0  0  0  0  0  0  0
   10.9417   14.0123    0.0000 H   0  0  0  0  0  0  0  0  0  0  0  0
   10.5432   14.7026    0.0000 H   0  0  0  0  0  0  0  0  0  0  0  0
    8.3871   14.7026    0.0000 H   0  0  0  0  0  0  0  0  0  0  0  0
    7.9885   14.0123    0.0000 H   0  0  0  0  0  0  0  0  0  0  0  0
   10.5432   12.5374    0.0000 H   0  0  0  0  0  0  0  0  0  0  0  0
   10.9417   13.2277    0.0000 H   0  0  0  0  0  0  0  0  0  0  0  0
    7.9885   13.2277    0.0000 H   0  0  0  0  0  0  0  0  0  0  0  0
    8.3871   12.5374    0.0000 H   0  0  0  0  0  0  0  0  0  0  0  0
    9.6772   11.0374    0.0000 H   0  0  0  0  0  0  0  0  0  0  0  0
   10.0757   11.7277    0.0000 H   0  0  0  0  0  0  0  0  0  0  0  0
    8.3871   11.7026    0.0000 H   0  0  0  0  0  0  0  0  0  0  0  0
    7.9885   11.0123    0.0000 H   0  0  0  0  0  0  0  0  0  0  0  0
    8.3451   15.4860    0.0000 H   0  0  0  0  0  0  0  0  0  0  0  0
   11.2751   14.9491    0.0000 H   0  0  0  0  0  0  0  0  0  0  0  0
    8.8451   16.3521    0.0000 H   0  0  0  0  0  0  0  0  0  0  0  0
    8.8112    9.5374    0.0000 H   0  0  0  0  0  0  0  0  0  0  0  0
    9.2097   10.2277    0.0000 H   0  0  0  0  0  0  0  0  0  0  0  0
   12.0851   16.3521    0.0000 H   0  0  0  0  0  0  0  0  0  0  0  0
    9.6551   17.7550    0.0000 H   0  0  0  0  0  0  0  0  0  0  0  0
    9.1360    8.4300    0.0000 H   0  0  0  0  0  0  0  0  0  0  0  0
    6.3301    8.4300    0.0000 H   0  0  0  0  0  0  0  0  0  0  0  0
    9.1360    6.8100    0.0000 H   0  0  0  0  0  0  0  0  0  0  0  0
    6.3301    6.8100    0.0000 H   0  0  0  0  0  0  0  0  0  0  0  0
    6.6550    5.7026    0.0000 H   0  0  0  0  0  0  0  0  0  0  0  0
    6.2565    5.0123    0.0000 H   0  0  0  0  0  0  0  0  0  0  0  0
    7.0791    3.5374    0.0000 H   0  0  0  0  0  0  0  0  0  0  0  0
    7.4776    4.2277    0.0000 H   0  0  0  0  0  0  0  0  0  0  0  0
    4.9230    2.7026    0.0000 H   0  0  0  0  0  0  0  0  0  0  0  0
    4.5244    2.0123    0.0000 H   0  0  0  0  0  0  0  0  0  0  0  0
    5.3471    0.5374    0.0000 H   0  0  0  0  0  0  0  0  0  0  0  0
    5.7456    1.2277    0.0000 H   0  0  0  0  0  0  0  0  0  0  0  0
    4.2690    0.0000    0.0000 H   0  0  0  0  0  0  0  0  0  0  0  0
    0.8660    8.4820    0.0000 H   0  0  0  0  0  0  0  0  0  0  0  0
    2.2690    9.2920    0.0000 H   0  0  0  0  0  0  0  0  0  0  0  0
  1 24  1  0  0  0  0
  2  3  1  0  0  0  0
  2 33  1  0  0  0  0
  3 34  1  0  0  0  0
  4 11  1  0  0  0  0
  4 49  1  0  0  0  0
  5 25  2  0  0  0  0
  6 31  1  0  0  0  0
  6 32  1  0  0  0  0
  7 35  1  0  0  0  0
  7 68  1  0  0  0  0
  8 36  1  0  0  0  0
  8 70  1  0  0  0  0
  9 36  2  0  0  0  0
 10 14  1  0  0  0  0
 10 15  1  0  0  0  0
 10 16  1  0  0  0  0
 11 12  1  0  0  0  0
 11 13  1  0  0  0  0
 11 17  1  0  0  0  0
 12 14  1  0  0  0  0
 12 37  1  0  0  0  0
 12 38  1  0  0  0  0
 13 15  1  0  0  0  0
 13 39  1  0  0  0  0
 13 40  1  0  0  0  0
 14 41  1  0  0  0  0
 14 42  1  0  0  0  0
 15 43  1  0  0  0  0
 15 44  1  0  0  0  0
 16 18  1  0  0  0  0
 16 45  1  0  0  0  0
 16 46  1  0  0  0  0
 17 19  2  0  0  0  0
 17 20  1  0  0  0  0
 18 21  1  0  0  0  0
 18 47  1  0  0  0  0
 18 48  1  0  0  0  0
 19 22  1  0  0  0  0
 19 50  1  0  0  0  0
 20 23  2  0  0  0  0
 20 51  1  0  0  0  0
 21 25  1  0  0  0  0
 21 52  1  0  0  0  0
 21 53  1  0  0  0  0
 22 24  2  0  0  0  0
 22 54  1  0  0  0  0
 23 24  1  0  0  0  0
 23 55  1  0  0  0  0
 25 26  1  0  0  0  0
 26 27  2  0  0  0  0
 26 28  1  0  0  0  0
 27 29  1  0  0  0  0
 27 56  1  0  0  0  0
 28 30  2  0  0  0  0
 28 57  1  0  0  0  0
 29 31  2  0  0  0  0
 29 58  1  0  0  0  0
 30 31  1  0  0  0  0
 30 59  1  0  0  0  0
 32 33  1  0  0  0  0
 32 60  1  0  0  0  0
 32 61  1  0  0  0  0
 33 62  1  0  0  0  0
 33 63  1  0  0  0  0
 34 35  1  0  0  0  0
 34 64  1  0  0  0  0
 34 65  1  0  0  0  0
 35 66  1  0  0  0  0
 35 67  1  0  0  0  0
 36 69  1  0  0  0  0
M  END
> <PUBCHEM_COMPOUND_CID>
137642921

> <PUBCHEM_COMPOUND_CANONICALIZED>
1

> <PUBCHEM_CACTVS_COMPLEXITY>
571

> <PUBCHEM_CACTVS_HBOND_ACCEPTOR>
9

> <PUBCHEM_CACTVS_HBOND_DONOR>
3

> <PUBCHEM_CACTVS_ROTATABLE_BOND>
13

> <PUBCHEM_CACTVS_SUBSKEYS>
AAADcfB6OABkAAAAAAAAAAAAAAAAAAAAAAA8YIAAAAAAAAABQAAAHgYACAAADEbl2CewDoMABgCIAqBSiAACCAAkJQAIiAEOCsgMNjKFtxqGeSCmwBGIuYeczODOpAAAAAAAAABIAAAAAAAAAAAAAAAAAA==

> <PUBCHEM_IUPAC_OPENEYE_NAME>
4-[4-(4-chlorophenyl)-4-hydroxy-1-piperidyl]-1-[4-[2-(2-hydroxyethyldisulfanyl)ethoxy]phenyl]butan-1-one;formic acid

> <PUBCHEM_IUPAC_CAS_NAME>
4-[4-(4-chlorophenyl)-4-hydroxy-1-piperidinyl]-1-[4-[2-(2-hydroxyethyldisulfanyl)ethoxy]phenyl]-1-butanone;formic acid

> <PUBCHEM_IUPAC_NAME_MARKUP>
4-[4-(4-chlorophenyl)-4-hydroxypiperidin-1-yl]-1-[4-[2-(2-hydroxyethyldisulfanyl)ethoxy]phenyl]butan-1-one;formic acid

> <PUBCHEM_IUPAC_NAME>
4-[4-(4-chlorophenyl)-4-hydroxypiperidin-1-yl]-1-[4-[2-(2-hydroxyethyldisulfanyl)ethoxy]phenyl]butan-1-one;formic acid

> <PUBCHEM_IUPAC_SYSTEMATIC_NAME>
4-[4-(4-chlorophenyl)-4-oxidanyl-piperidin-1-yl]-1-[4-[2-(2-hydroxyethyldisulfanyl)ethoxy]phenyl]butan-1-one;methanoic acid

> <PUBCHEM_IUPAC_TRADITIONAL_NAME>
4-[4-(4-chlorophenyl)-4-hydroxy-piperidino]-1-[4-[2-(2-hydroxyethyldisulfanyl)ethoxy]phenyl]butan-1-one;formic acid

> <PUBCHEM_IUPAC_INCHI>
InChI=1S/C25H32ClNO4S2.CH2O2/c26-22-7-5-21(6-8-22)25(30)11-14-27(15-12-25)13-1-2-24(29)20-3-9-23(10-4-20)31-17-19-33-32-18-16-28;2-1-3/h3-10,28,30H,1-2,11-19H2;1H,(H,2,3)

> <PUBCHEM_IUPAC_INCHIKEY>
WPALLNAXHWNGCT-UHFFFAOYSA-N

> <PUBCHEM_EXACT_MASS>
555.1516078

> <PUBCHEM_MOLECULAR_FORMULA>
C26H34ClNO6S2

> <PUBCHEM_MOLECULAR_WEIGHT>
556.1

> <PUBCHEM_OPENEYE_CAN_SMILES>
C1CN(CCC1(C2=CC=C(C=C2)Cl)O)CCCC(=O)C3=CC=C(C=C3)OCCSSCCO.C(=O)O

> <PUBCHEM_OPENEYE_ISO_SMILES>
C1CN(CCC1(C2=CC=C(C=C2)Cl)O)CCCC(=O)C3=CC=C(C=C3)OCCSSCCO.C(=O)O

> <PUBCHEM_CACTVS_TPSA>
158

> <PUBCHEM_MONOISOTOPIC_WEIGHT>
555.1516078

> <PUBCHEM_TOTAL_CHARGE>
0

> <PUBCHEM_HEAVY_ATOM_COUNT>
36

> <PUBCHEM_ATOM_DEF_STEREO_COUNT>
0

> <PUBCHEM_ATOM_UDEF_STEREO_COUNT>
0

> <PUBCHEM_BOND_DEF_STEREO_COUNT>
0

> <PUBCHEM_BOND_UDEF_STEREO_COUNT>
0

> <PUBCHEM_ISOTOPIC_ATOM_COUNT>
0

> <PUBCHEM_COMPONENT_COUNT>
2

> <PUBCHEM_CACTVS_TAUTO_COUNT>
-1

> <PUBCHEM_COORDINATE_TYPE>
1
5
255

> <PUBCHEM_BONDANNOTATIONS>
17  19  8
17  20  8
19  22  8
20  23  8
22  24  8
23  24  8
26  27  8
26  28  8
27  29  8
28  30  8
29  31  8
30  31  8

$$$$
