76329369
  -OEChem-09292321592D

128135  0     1  0  0  0  0  0999 V2000
    6.3637   -1.2254    0.0000 O   0  0  0  0  0  0  0  0  0  0  0  0
   28.1155    1.2254    0.0000 O   0  0  0  0  0  0  0  0  0  0  0  0
    8.1455   -0.2149    0.0000 O   0  0  0  0  0  0  0  0  0  0  0  0
   26.3338    0.2149    0.0000 O   0  0  0  0  0  0  0  0  0  0  0  0
   12.4813    1.2684    0.0000 O   0  0  0  0  0  0  0  0  0  0  0  0
   21.9979   -1.2684    0.0000 O   0  0  0  0  0  0  0  0  0  0  0  0
    2.8911    1.8061    0.0000 N   0  0  3  0  0  0  0  0  0  0  0  0
   31.5882   -1.8061    0.0000 N   0  0  3  0  0  0  0  0  0  0  0  0
   11.6095   -0.2283    0.0000 N   0  0  0  0  0  0  0  0  0  0  0  0
   22.8697    0.2283    0.0000 N   0  0  0  0  0  0  0  0  0  0  0  0
    3.7493    1.3092    0.0000 C   0  0  1  0  0  0  0  0  0  0  0  0
   30.7299   -1.3092    0.0000 C   0  0  1  0  0  0  0  0  0  0  0  0
    3.7493    0.3092    0.0000 C   0  0  0  0  0  0  0  0  0  0  0  0
   30.7299   -0.3092    0.0000 C   0  0  0  0  0  0  0  0  0  0  0  0
    4.6153    1.8092    0.0000 C   0  0  0  0  0  0  0  0  0  0  0  0
   29.8639   -1.8092    0.0000 C   0  0  0  0  0  0  0  0  0  0  0  0
    2.8393   -0.1976    0.0000 C   0  0  0  0  0  0  0  0  0  0  0  0
   31.6399    0.1976    0.0000 C   0  0  0  0  0  0  0  0  0  0  0  0
    2.0256    1.3220    0.0000 C   0  0  0  0  0  0  0  0  0  0  0  0
   32.4536   -1.3220    0.0000 C   0  0  0  0  0  0  0  0  0  0  0  0
    2.0000    0.3306    0.0000 C   0  0  0  0  0  0  0  0  0  0  0  0
   32.4793   -0.3306    0.0000 C   0  0  0  0  0  0  0  0  0  0  0  0
    4.6153   -0.1908    0.0000 C   0  0  0  0  0  0  0  0  0  0  0  0
   29.8639    0.1908    0.0000 C   0  0  0  0  0  0  0  0  0  0  0  0
    5.4814    1.3092    0.0000 C   0  0  0  0  0  0  0  0  0  0  0  0
   28.9979   -1.3092    0.0000 C   0  0  0  0  0  0  0  0  0  0  0  0
    5.4814    0.3092    0.0000 C   0  0  0  0  0  0  0  0  0  0  0  0
   28.9979   -0.3092    0.0000 C   0  0  0  0  0  0  0  0  0  0  0  0
    2.8985    2.8061    0.0000 C   0  0  0  0  0  0  0  0  0  0  0  0
   31.5808   -2.8061    0.0000 C   0  0  0  0  0  0  0  0  0  0  0  0
    2.8313   -1.2392    0.0000 C   0  0  0  0  0  0  0  0  0  0  0  0
   31.6480    1.2392    0.0000 C   0  0  0  0  0  0  0  0  0  0  0  0
    4.6314   -1.2323    0.0000 C   0  0  0  0  0  0  0  0  0  0  0  0
   29.8479    1.2323    0.0000 C   0  0  0  0  0  0  0  0  0  0  0  0
    6.3753   -0.2255    0.0000 C   0  0  0  0  0  0  0  0  0  0  0  0
   28.1040    0.2255    0.0000 C   0  0  0  0  0  0  0  0  0  0  0  0
    6.3753    1.8439    0.0000 C   0  0  0  0  0  0  0  0  0  0  0  0
   28.1040   -1.8439    0.0000 C   0  0  0  0  0  0  0  0  0  0  0  0
    3.7334   -1.7601    0.0000 C   0  0  0  0  0  0  0  0  0  0  0  0
   30.7459    1.7601    0.0000 C   0  0  0  0  0  0  0  0  0  0  0  0
    7.2814    0.2884    0.0000 C   0  0  0  0  0  0  0  0  0  0  0  0
   27.1979   -0.2884    0.0000 C   0  0  0  0  0  0  0  0  0  0  0  0
    7.2814    1.3300    0.0000 C   0  0  0  0  0  0  0  0  0  0  0  0
   27.1979   -1.3300    0.0000 C   0  0  0  0  0  0  0  0  0  0  0  0
    9.0134    0.2817    0.0000 C   0  0  0  0  0  0  0  0  0  0  0  0
   25.4658   -0.2817    0.0000 C   0  0  0  0  0  0  0  0  0  0  0  0
    9.8775   -0.2216    0.0000 C   0  0  0  0  0  0  0  0  0  0  0  0
   24.6018    0.2216    0.0000 C   0  0  0  0  0  0  0  0  0  0  0  0
   10.7455    0.2750    0.0000 C   0  0  0  0  0  0  0  0  0  0  0  0
   23.7338   -0.2750    0.0000 C   0  0  0  0  0  0  0  0  0  0  0  0
   16.8057   -0.2483    0.0000 C   0  0  0  0  0  0  0  0  0  0  0  0
   17.6736    0.2483    0.0000 C   0  0  0  0  0  0  0  0  0  0  0  0
   15.9416    0.2550    0.0000 C   0  0  0  0  0  0  0  0  0  0  0  0
   18.5377   -0.2550    0.0000 C   0  0  0  0  0  0  0  0  0  0  0  0
   15.0736   -0.2417    0.0000 C   0  0  0  0  0  0  0  0  0  0  0  0
   19.4056    0.2417    0.0000 C   0  0  0  0  0  0  0  0  0  0  0  0
   14.2095    0.2617    0.0000 C   0  0  0  0  0  0  0  0  0  0  0  0
   20.2697   -0.2617    0.0000 C   0  0  0  0  0  0  0  0  0  0  0  0
   13.3416   -0.2350    0.0000 C   0  0  0  0  0  0  0  0  0  0  0  0
   21.1377    0.2350    0.0000 C   0  0  0  0  0  0  0  0  0  0  0  0
   12.4775    0.2684    0.0000 C   0  0  0  0  0  0  0  0  0  0  0  0
   22.0018   -0.2684    0.0000 C   0  0  0  0  0  0  0  0  0  0  0  0
    3.7498    2.1592    0.0000 H   0  0  0  0  0  0  0  0  0  0  0  0
   30.7294   -2.1592    0.0000 H   0  0  0  0  0  0  0  0  0  0  0  0
    5.0139    2.2842    0.0000 H   0  0  0  0  0  0  0  0  0  0  0  0
    4.2168    2.2842    0.0000 H   0  0  0  0  0  0  0  0  0  0  0  0
   29.4654   -2.2842    0.0000 H   0  0  0  0  0  0  0  0  0  0  0  0
   30.2624   -2.2842    0.0000 H   0  0  0  0  0  0  0  0  0  0  0  0
    1.8239    1.9082    0.0000 H   0  0  0  0  0  0  0  0  0  0  0  0
    1.4128    1.2276    0.0000 H   0  0  0  0  0  0  0  0  0  0  0  0
   32.6554   -1.9082    0.0000 H   0  0  0  0  0  0  0  0  0  0  0  0
   33.0664   -1.2276    0.0000 H   0  0  0  0  0  0  0  0  0  0  0  0
    1.3929    0.4565    0.0000 H   0  0  0  0  0  0  0  0  0  0  0  0
    1.7682   -0.2445    0.0000 H   0  0  0  0  0  0  0  0  0  0  0  0
   33.0863   -0.4565    0.0000 H   0  0  0  0  0  0  0  0  0  0  0  0
   32.7110    0.2445    0.0000 H   0  0  0  0  0  0  0  0  0  0  0  0
    3.5185    2.8015    0.0000 H   0  0  0  0  0  0  0  0  0  0  0  0
    2.9031    3.4261    0.0000 H   0  0  0  0  0  0  0  0  0  0  0  0
    2.2785    2.8107    0.0000 H   0  0  0  0  0  0  0  0  0  0  0  0
   30.9608   -2.8015    0.0000 H   0  0  0  0  0  0  0  0  0  0  0  0
   31.5762   -3.4261    0.0000 H   0  0  0  0  0  0  0  0  0  0  0  0
   32.2007   -2.8107    0.0000 H   0  0  0  0  0  0  0  0  0  0  0  0
    2.2932   -1.5472    0.0000 H   0  0  0  0  0  0  0  0  0  0  0  0
   32.1861    1.5472    0.0000 H   0  0  0  0  0  0  0  0  0  0  0  0
    5.1719   -1.5361    0.0000 H   0  0  0  0  0  0  0  0  0  0  0  0
   29.3074    1.5361    0.0000 H   0  0  0  0  0  0  0  0  0  0  0  0
    6.3681    2.4638    0.0000 H   0  0  0  0  0  0  0  0  0  0  0  0
   28.1111   -2.4638    0.0000 H   0  0  0  0  0  0  0  0  0  0  0  0
    3.7358   -2.3801    0.0000 H   0  0  0  0  0  0  0  0  0  0  0  0
   30.7435    2.3801    0.0000 H   0  0  0  0  0  0  0  0  0  0  0  0
    7.8171    1.6421    0.0000 H   0  0  0  0  0  0  0  0  0  0  0  0
   26.6621   -1.6421    0.0000 H   0  0  0  0  0  0  0  0  0  0  0  0
    6.8971   -1.5416    0.0000 H   0  0  0  0  0  0  0  0  0  0  0  0
   27.5822    1.5416    0.0000 H   0  0  0  0  0  0  0  0  0  0  0  0
    9.4138    0.7551    0.0000 H   0  0  0  0  0  0  0  0  0  0  0  0
    8.6167    0.7582    0.0000 H   0  0  0  0  0  0  0  0  0  0  0  0
   25.0655   -0.7551    0.0000 H   0  0  0  0  0  0  0  0  0  0  0  0
   25.8625   -0.7582    0.0000 H   0  0  0  0  0  0  0  0  0  0  0  0
    9.4772   -0.6950    0.0000 H   0  0  0  0  0  0  0  0  0  0  0  0
   10.2742   -0.6981    0.0000 H   0  0  0  0  0  0  0  0  0  0  0  0
   25.0021    0.6950    0.0000 H   0  0  0  0  0  0  0  0  0  0  0  0
   24.2051    0.6981    0.0000 H   0  0  0  0  0  0  0  0  0  0  0  0
   11.1458    0.7484    0.0000 H   0  0  0  0  0  0  0  0  0  0  0  0
   10.3488    0.7515    0.0000 H   0  0  0  0  0  0  0  0  0  0  0  0
   23.3335   -0.7484    0.0000 H   0  0  0  0  0  0  0  0  0  0  0  0
   24.1305   -0.7515    0.0000 H   0  0  0  0  0  0  0  0  0  0  0  0
   16.4053   -0.7217    0.0000 H   0  0  0  0  0  0  0  0  0  0  0  0
   17.2024   -0.7248    0.0000 H   0  0  0  0  0  0  0  0  0  0  0  0
   18.0740    0.7217    0.0000 H   0  0  0  0  0  0  0  0  0  0  0  0
   17.2769    0.7248    0.0000 H   0  0  0  0  0  0  0  0  0  0  0  0
   16.3419    0.7284    0.0000 H   0  0  0  0  0  0  0  0  0  0  0  0
   15.5449    0.7315    0.0000 H   0  0  0  0  0  0  0  0  0  0  0  0
   18.1373   -0.7284    0.0000 H   0  0  0  0  0  0  0  0  0  0  0  0
   18.9344   -0.7315    0.0000 H   0  0  0  0  0  0  0  0  0  0  0  0
   14.6733   -0.7151    0.0000 H   0  0  0  0  0  0  0  0  0  0  0  0
   15.4703   -0.7181    0.0000 H   0  0  0  0  0  0  0  0  0  0  0  0
   19.8060    0.7151    0.0000 H   0  0  0  0  0  0  0  0  0  0  0  0
   19.0089    0.7181    0.0000 H   0  0  0  0  0  0  0  0  0  0  0  0
   14.6099    0.7351    0.0000 H   0  0  0  0  0  0  0  0  0  0  0  0
   13.8128    0.7382    0.0000 H   0  0  0  0  0  0  0  0  0  0  0  0
   19.8694   -0.7351    0.0000 H   0  0  0  0  0  0  0  0  0  0  0  0
   20.6664   -0.7382    0.0000 H   0  0  0  0  0  0  0  0  0  0  0  0
   11.6072   -0.8483    0.0000 H   0  0  0  0  0  0  0  0  0  0  0  0
   22.8721    0.8483    0.0000 H   0  0  0  0  0  0  0  0  0  0  0  0
   12.9412   -0.7084    0.0000 H   0  0  0  0  0  0  0  0  0  0  0  0
   13.7383   -0.7115    0.0000 H   0  0  0  0  0  0  0  0  0  0  0  0
   21.5380    0.7084    0.0000 H   0  0  0  0  0  0  0  0  0  0  0  0
   20.7410    0.7115    0.0000 H   0  0  0  0  0  0  0  0  0  0  0  0
  1 35  1  0  0  0  0
  1 93  1  0  0  0  0
  2 36  1  0  0  0  0
  2 94  1  0  0  0  0
  3 41  1  0  0  0  0
  3 45  1  0  0  0  0
  4 42  1  0  0  0  0
  4 46  1  0  0  0  0
  5 61  2  0  0  0  0
  6 62  2  0  0  0  0
  7 11  1  0  0  0  0
  7 19  1  0  0  0  0
  7 29  1  0  0  0  0
  8 12  1  0  0  0  0
  8 20  1  0  0  0  0
  8 30  1  0  0  0  0
  9 49  1  0  0  0  0
  9 61  1  0  0  0  0
  9123  1  0  0  0  0
 10 50  1  0  0  0  0
 10 62  1  0  0  0  0
 10124  1  0  0  0  0
 11 13  1  0  0  0  0
 11 15  1  0  0  0  0
 11 63  1  1  0  0  0
 12 14  1  0  0  0  0
 12 16  1  0  0  0  0
 12 64  1  1  0  0  0
 13 17  2  0  0  0  0
 13 23  1  0  0  0  0
 14 18  2  0  0  0  0
 14 24  1  0  0  0  0
 15 25  1  0  0  0  0
 15 65  1  0  0  0  0
 15 66  1  0  0  0  0
 16 26  1  0  0  0  0
 16 67  1  0  0  0  0
 16 68  1  0  0  0  0
 17 21  1  0  0  0  0
 17 31  1  0  0  0  0
 18 22  1  0  0  0  0
 18 32  1  0  0  0  0
 19 21  1  0  0  0  0
 19 69  1  0  0  0  0
 19 70  1  0  0  0  0
 20 22  1  0  0  0  0
 20 71  1  0  0  0  0
 20 72  1  0  0  0  0
 21 73  1  0  0  0  0
 21 74  1  0  0  0  0
 22 75  1  0  0  0  0
 22 76  1  0  0  0  0
 23 27  1  0  0  0  0
 23 33  2  0  0  0  0
 24 28  1  0  0  0  0
 24 34  2  0  0  0  0
 25 27  2  0  0  0  0
 25 37  1  0  0  0  0
 26 28  2  0  0  0  0
 26 38  1  0  0  0  0
 27 35  1  0  0  0  0
 28 36  1  0  0  0  0
 29 77  1  0  0  0  0
 29 78  1  0  0  0  0
 29 79  1  0  0  0  0
 30 80  1  0  0  0  0
 30 81  1  0  0  0  0
 30 82  1  0  0  0  0
 31 39  2  0  0  0  0
 31 83  1  0  0  0  0
 32 40  2  0  0  0  0
 32 84  1  0  0  0  0
 33 39  1  0  0  0  0
 33 85  1  0  0  0  0
 34 40  1  0  0  0  0
 34 86  1  0  0  0  0
 35 41  2  0  0  0  0
 36 42  2  0  0  0  0
 37 43  2  0  0  0  0
 37 87  1  0  0  0  0
 38 44  2  0  0  0  0
 38 88  1  0  0  0  0
 39 89  1  0  0  0  0
 40 90  1  0  0  0  0
 41 43  1  0  0  0  0
 42 44  1  0  0  0  0
 43 91  1  0  0  0  0
 44 92  1  0  0  0  0
 45 47  1  0  0  0  0
 45 95  1  0  0  0  0
 45 96  1  0  0  0  0
 46 48  1  0  0  0  0
 46 97  1  0  0  0  0
 46 98  1  0  0  0  0
 47 49  1  0  0  0  0
 47 99  1  0  0  0  0
 47100  1  0  0  0  0
 48 50  1  0  0  0  0
 48101  1  0  0  0  0
 48102  1  0  0  0  0
 49103  1  0  0  0  0
 49104  1  0  0  0  0
 50105  1  0  0  0  0
 50106  1  0  0  0  0
 51 52  1  0  0  0  0
 51 53  1  0  0  0  0
 51107  1  0  0  0  0
 51108  1  0  0  0  0
 52 54  1  0  0  0  0
 52109  1  0  0  0  0
 52110  1  0  0  0  0
 53 55  1  0  0  0  0
 53111  1  0  0  0  0
 53112  1  0  0  0  0
 54 56  1  0  0  0  0
 54113  1  0  0  0  0
 54114  1  0  0  0  0
 55 57  1  0  0  0  0
 55115  1  0  0  0  0
 55116  1  0  0  0  0
 56 58  1  0  0  0  0
 56117  1  0  0  0  0
 56118  1  0  0  0  0
 57 59  1  0  0  0  0
 57119  1  0  0  0  0
 57120  1  0  0  0  0
 58 60  1  0  0  0  0
 58121  1  0  0  0  0
 58122  1  0  0  0  0
 59 61  1  0  0  0  0
 59125  1  0  0  0  0
 59126  1  0  0  0  0
 60 62  1  0  0  0  0
 60127  1  0  0  0  0
 60128  1  0  0  0  0
M  END
> <PUBCHEM_COMPOUND_CID>
76329369

> <PUBCHEM_COMPOUND_CANONICALIZED>
1

> <PUBCHEM_CACTVS_COMPLEXITY>
1300

> <PUBCHEM_CACTVS_HBOND_ACCEPTOR>
8

> <PUBCHEM_CACTVS_HBOND_DONOR>
4

> <PUBCHEM_CACTVS_ROTATABLE_BOND>
21

> <PUBCHEM_CACTVS_SUBSKEYS>
AAADcfB/uAAAAAAAAAAAAAAAAAAAAAAAAAA8eMGDAAAAAADxVAAAHgAQCAAADCzhmAYyBoPABgCIAiFSEACCCAAgIAAIiIEOjIgNJjKGsRuGeCvm1hGLuAeY2POOoAADAAAYQADQAAaAADSAAAAAAAAAAA==

> <PUBCHEM_IUPAC_OPENEYE_NAME>
N,N'-bis[3-[[(6aR)-11-hydroxy-6-methyl-5,6,6a,7-tetrahydro-4H-dibenzo[de,g]quinolin-10-yl]oxy]propyl]dodecanediamide

> <PUBCHEM_IUPAC_CAS_NAME>
N,N'-bis[3-[[(6aR)-11-hydroxy-6-methyl-5,6,6a,7-tetrahydro-4H-dibenzo[de,g]quinolin-10-yl]oxy]propyl]dodecanediamide

> <PUBCHEM_IUPAC_NAME_MARKUP>
<I>N</I>,<I>N</I>&apos;-bis[3-[[(6<I>a</I><I>R</I>)-11-hydroxy-6-methyl-5,6,6<I>a</I>,7-tetrahydro-4<I>H</I>-dibenzo[de,g]quinolin-10-yl]oxy]propyl]dodecanediamide

> <PUBCHEM_IUPAC_NAME>
N,N'-bis[3-[[(6aR)-11-hydroxy-6-methyl-5,6,6a,7-tetrahydro-4H-dibenzo[de,g]quinolin-10-yl]oxy]propyl]dodecanediamide

> <PUBCHEM_IUPAC_SYSTEMATIC_NAME>
N,N'-bis[3-[[(6aR)-6-methyl-11-oxidanyl-5,6,6a,7-tetrahydro-4H-dibenzo[de,g]quinolin-10-yl]oxy]propyl]dodecanediamide

> <PUBCHEM_IUPAC_TRADITIONAL_NAME>
N,N'-bis[3-[[(6aR)-11-hydroxy-6-methyl-5,6,6a,7-tetrahydro-4H-dibenzo[de,g]quinolin-10-yl]oxy]propyl]dodecanediamide

> <PUBCHEM_IUPAC_INCHI>
InChI=1S/C52H66N4O6/c1-55-29-25-35-15-11-17-39-47(35)41(55)33-37-21-23-43(51(59)49(37)39)61-31-13-27-53-45(57)19-9-7-5-3-4-6-8-10-20-46(58)54-28-14-32-62-44-24-22-38-34-42-48-36(26-30-56(42)2)16-12-18-40(48)50(38)52(44)60/h11-12,15-18,21-24,41-42,59-60H,3-10,13-14,19-20,25-34H2,1-2H3,(H,53,57)(H,54,58)/t41-,42-/m1/s1

> <PUBCHEM_IUPAC_INCHIKEY>
GQDSHJHRYRHFRN-NCRNUEESSA-N

> <PUBCHEM_XLOGP3_AA>
9.2

> <PUBCHEM_EXACT_MASS>
842.49823584

> <PUBCHEM_MOLECULAR_FORMULA>
C52H66N4O6

> <PUBCHEM_MOLECULAR_WEIGHT>
843.1

> <PUBCHEM_OPENEYE_CAN_SMILES>
CN1CCC2=C3C1CC4=C(C3=CC=C2)C(=C(C=C4)OCCCNC(=O)CCCCCCCCCCC(=O)NCCCOC5=C(C6=C(CC7C8=C(CCN7C)C=CC=C86)C=C5)O)O

> <PUBCHEM_OPENEYE_ISO_SMILES>
CN1CCC2=C3[C@H]1CC4=C(C3=CC=C2)C(=C(C=C4)OCCCNC(=O)CCCCCCCCCCC(=O)NCCCOC5=C(C6=C(C[C@@H]7C8=C(CCN7C)C=CC=C86)C=C5)O)O

> <PUBCHEM_CACTVS_TPSA>
124

> <PUBCHEM_MONOISOTOPIC_WEIGHT>
842.49823584

> <PUBCHEM_TOTAL_CHARGE>
0

> <PUBCHEM_HEAVY_ATOM_COUNT>
62

> <PUBCHEM_ATOM_DEF_STEREO_COUNT>
2

> <PUBCHEM_ATOM_UDEF_STEREO_COUNT>
0

> <PUBCHEM_BOND_DEF_STEREO_COUNT>
0

> <PUBCHEM_BOND_UDEF_STEREO_COUNT>
0

> <PUBCHEM_ISOTOPIC_ATOM_COUNT>
0

> <PUBCHEM_COMPONENT_COUNT>
1

> <PUBCHEM_CACTVS_TAUTO_COUNT>
-1

> <PUBCHEM_COORDINATE_TYPE>
1
5
255

> <PUBCHEM_BONDANNOTATIONS>
11  63  5
12  64  5
13  17  8
13  23  8
14  18  8
14  24  8
17  31  8
18  32  8
23  33  8
24  34  8
25  27  8
25  37  8
26  28  8
26  38  8
27  35  8
28  36  8
31  39  8
32  40  8
33  39  8
34  40  8
35  41  8
36  42  8
37  43  8
38  44  8
41  43  8
42  44  8

$$$$
