122189389
  -OEChem-09292322002D

 59 63  0     0  0  0  0  0  0999 V2000
    4.9836    3.8851    0.0000 Cl  0  0  0  0  0  0  0  0  0  0  0  0
    4.1701    5.7122    0.0000 Cl  0  0  0  0  0  0  0  0  0  0  0  0
   13.7469   -2.7507    0.0000 O   0  0  0  0  0  0  0  0  0  0  0  0
    4.6215    0.4400    0.0000 N   0  0  0  0  0  0  0  0  0  0  0  0
    3.8080    2.2670    0.0000 N   0  0  0  0  0  0  0  0  0  0  0  0
    8.9134   -3.7122    0.0000 N   0  0  0  0  0  0  0  0  0  0  0  0
    7.3307   -3.3758    0.0000 N   0  0  0  0  0  0  0  0  0  0  0  0
    7.9998   -4.1189    0.0000 N   0  0  0  0  0  0  0  0  0  0  0  0
   11.5115   -5.2122    0.0000 N   0  0  0  0  0  0  0  0  0  0  0  0
   12.4577   -5.5169    0.0000 N   0  0  0  0  0  0  0  0  0  0  0  0
    3.6270    0.5445    0.0000 C   0  0  0  0  0  0  0  0  0  0  0  0
    5.2092    1.2490    0.0000 C   0  0  0  0  0  0  0  0  0  0  0  0
    3.2202    1.4580    0.0000 C   0  0  0  0  0  0  0  0  0  0  0  0
    4.8025    2.1625    0.0000 C   0  0  0  0  0  0  0  0  0  0  0  0
    5.0282   -0.4736    0.0000 C   0  0  0  0  0  0  0  0  0  0  0  0
    6.0227   -0.5781    0.0000 C   0  0  0  0  0  0  0  0  0  0  0  0
    6.4295   -1.4917    0.0000 C   0  0  0  0  0  0  0  0  0  0  0  0
    3.4013    3.1806    0.0000 C   0  0  0  0  0  0  0  0  0  0  0  0
    7.4240   -1.5962    0.0000 C   0  0  0  0  0  0  0  0  0  0  0  0
    3.9890    3.9896    0.0000 C   0  0  0  0  0  0  0  0  0  0  0  0
    2.4067    3.2851    0.0000 C   0  0  0  0  0  0  0  0  0  0  0  0
    7.8307   -2.5097    0.0000 C   0  0  0  0  0  0  0  0  0  0  0  0
    3.5823    4.9032    0.0000 C   0  0  0  0  0  0  0  0  0  0  0  0
    2.0000    4.1987    0.0000 C   0  0  0  0  0  0  0  0  0  0  0  0
    8.8089   -2.7176    0.0000 C   0  0  0  0  0  0  0  0  0  0  0  0
    2.5878    5.0077    0.0000 C   0  0  0  0  0  0  0  0  0  0  0  0
    9.7794   -4.2122    0.0000 C   0  0  0  0  0  0  0  0  0  0  0  0
   10.6454   -3.7122    0.0000 C   0  0  0  0  0  0  0  0  0  0  0  0
   11.5115   -4.2122    0.0000 C   0  0  0  0  0  0  0  0  0  0  0  0
    9.7794   -5.2122    0.0000 C   0  0  0  0  0  0  0  0  0  0  0  0
   10.6454   -5.7122    0.0000 C   0  0  0  0  0  0  0  0  0  0  0  0
   12.4577   -3.9074    0.0000 C   0  0  0  0  0  0  0  0  0  0  0  0
   13.0413   -4.7122    0.0000 C   0  0  0  0  0  0  0  0  0  0  0  0
   12.7684   -2.9569    0.0000 C   0  0  0  0  0  0  0  0  0  0  0  0
    3.0254    0.3945    0.0000 H   0  0  0  0  0  0  0  0  0  0  0  0
    3.6702   -0.0740    0.0000 H   0  0  0  0  0  0  0  0  0  0  0  0
    5.6399    0.8030    0.0000 H   0  0  0  0  0  0  0  0  0  0  0  0
    5.7233    1.5957    0.0000 H   0  0  0  0  0  0  0  0  0  0  0  0
    2.7895    1.9040    0.0000 H   0  0  0  0  0  0  0  0  0  0  0  0
    2.7062    1.1113    0.0000 H   0  0  0  0  0  0  0  0  0  0  0  0
    5.4041    2.3125    0.0000 H   0  0  0  0  0  0  0  0  0  0  0  0
    4.7593    2.7810    0.0000 H   0  0  0  0  0  0  0  0  0  0  0  0
    4.4266   -0.6236    0.0000 H   0  0  0  0  0  0  0  0  0  0  0  0
    5.0714   -1.0921    0.0000 H   0  0  0  0  0  0  0  0  0  0  0  0
    6.6243   -0.4281    0.0000 H   0  0  0  0  0  0  0  0  0  0  0  0
    5.9795    0.0404    0.0000 H   0  0  0  0  0  0  0  0  0  0  0  0
    5.8279   -1.6417    0.0000 H   0  0  0  0  0  0  0  0  0  0  0  0
    6.4727   -2.1102    0.0000 H   0  0  0  0  0  0  0  0  0  0  0  0
    8.0256   -1.4462    0.0000 H   0  0  0  0  0  0  0  0  0  0  0  0
    7.3807   -0.9777    0.0000 H   0  0  0  0  0  0  0  0  0  0  0  0
    2.0423    2.7835    0.0000 H   0  0  0  0  0  0  0  0  0  0  0  0
    1.3834    4.2635    0.0000 H   0  0  0  0  0  0  0  0  0  0  0  0
    9.2696   -2.3028    0.0000 H   0  0  0  0  0  0  0  0  0  0  0  0
    2.3356    5.5741    0.0000 H   0  0  0  0  0  0  0  0  0  0  0  0
   10.6454   -3.0922    0.0000 H   0  0  0  0  0  0  0  0  0  0  0  0
    9.2425   -5.5222    0.0000 H   0  0  0  0  0  0  0  0  0  0  0  0
   10.6454   -6.3322    0.0000 H   0  0  0  0  0  0  0  0  0  0  0  0
   13.6613   -4.7122    0.0000 H   0  0  0  0  0  0  0  0  0  0  0  0
   12.3543   -2.4954    0.0000 H   0  0  0  0  0  0  0  0  0  0  0  0
  1 20  1  0  0  0  0
  2 23  1  0  0  0  0
  3 34  2  0  0  0  0
  4 11  1  0  0  0  0
  4 12  1  0  0  0  0
  4 15  1  0  0  0  0
  5 13  1  0  0  0  0
  5 14  1  0  0  0  0
  5 18  1  0  0  0  0
  6  8  1  0  0  0  0
  6 25  1  0  0  0  0
  6 27  1  0  0  0  0
  7  8  2  0  0  0  0
  7 22  1  0  0  0  0
  9 10  1  0  0  0  0
  9 29  1  0  0  0  0
  9 31  1  0  0  0  0
 10 33  2  0  0  0  0
 11 13  1  0  0  0  0
 11 35  1  0  0  0  0
 11 36  1  0  0  0  0
 12 14  1  0  0  0  0
 12 37  1  0  0  0  0
 12 38  1  0  0  0  0
 13 39  1  0  0  0  0
 13 40  1  0  0  0  0
 14 41  1  0  0  0  0
 14 42  1  0  0  0  0
 15 16  1  0  0  0  0
 15 43  1  0  0  0  0
 15 44  1  0  0  0  0
 16 17  1  0  0  0  0
 16 45  1  0  0  0  0
 16 46  1  0  0  0  0
 17 19  1  0  0  0  0
 17 47  1  0  0  0  0
 17 48  1  0  0  0  0
 18 20  2  0  0  0  0
 18 21  1  0  0  0  0
 19 22  1  0  0  0  0
 19 49  1  0  0  0  0
 19 50  1  0  0  0  0
 20 23  1  0  0  0  0
 21 24  2  0  0  0  0
 21 51  1  0  0  0  0
 22 25  2  0  0  0  0
 23 26  2  0  0  0  0
 24 26  1  0  0  0  0
 24 52  1  0  0  0  0
 25 53  1  0  0  0  0
 26 54  1  0  0  0  0
 27 28  2  0  0  0  0
 27 30  1  0  0  0  0
 28 29  1  0  0  0  0
 28 55  1  0  0  0  0
 29 32  2  0  0  0  0
 30 31  2  0  0  0  0
 30 56  1  0  0  0  0
 31 57  1  0  0  0  0
 32 33  1  0  0  0  0
 32 34  1  0  0  0  0
 33 58  1  0  0  0  0
 34 59  1  0  0  0  0
M  END
> <PUBCHEM_COMPOUND_CID>
122189389

> <PUBCHEM_COMPOUND_CANONICALIZED>
1

> <PUBCHEM_CACTVS_COMPLEXITY>
667

> <PUBCHEM_CACTVS_HBOND_ACCEPTOR>
6

> <PUBCHEM_CACTVS_HBOND_DONOR>
0

> <PUBCHEM_CACTVS_ROTATABLE_BOND>
8

> <PUBCHEM_CACTVS_SUBSKEYS>
AAADceB7oAAGAAAAAAAAAAAAAAAAAWLAAAA8WIAAAAAAAFgB/AAAHgIIAAAADArhniY8wLMIEACqAzx3xACShCQ1lyAY2mE4dtgIYPrB19HUpYhgiADIyccYiUCcAAAAAAIAABQAAAAABAAAKAAAAAAAAA==

> <PUBCHEM_IUPAC_OPENEYE_NAME>
5-[4-[4-[4-(2,3-dichlorophenyl)piperazin-1-yl]butyl]triazol-1-yl]pyrazolo[1,5-a]pyridine-3-carbaldehyde

> <PUBCHEM_IUPAC_CAS_NAME>
5-[4-[4-[4-(2,3-dichlorophenyl)-1-piperazinyl]butyl]-1-triazolyl]-3-pyrazolo[1,5-a]pyridinecarboxaldehyde

> <PUBCHEM_IUPAC_NAME_MARKUP>
5-[4-[4-[4-(2,3-dichlorophenyl)piperazin-1-yl]butyl]triazol-1-yl]pyrazolo[1,5-a]pyridine-3-carbaldehyde

> <PUBCHEM_IUPAC_NAME>
5-[4-[4-[4-(2,3-dichlorophenyl)piperazin-1-yl]butyl]triazol-1-yl]pyrazolo[1,5-a]pyridine-3-carbaldehyde

> <PUBCHEM_IUPAC_SYSTEMATIC_NAME>
5-[4-[4-[4-[2,3-bis(chloranyl)phenyl]piperazin-1-yl]butyl]-1,2,3-triazol-1-yl]pyrazolo[1,5-a]pyridine-3-carbaldehyde

> <PUBCHEM_IUPAC_TRADITIONAL_NAME>
5-[4-[4-[4-(2,3-dichlorophenyl)piperazino]butyl]triazol-1-yl]pyrazolo[1,5-a]pyridine-3-carbaldehyde

> <PUBCHEM_IUPAC_INCHI>
InChI=1S/C24H25Cl2N7O/c25-21-5-3-6-22(24(21)26)31-12-10-30(11-13-31)8-2-1-4-19-16-33(29-28-19)20-7-9-32-23(14-20)18(17-34)15-27-32/h3,5-7,9,14-17H,1-2,4,8,10-13H2

> <PUBCHEM_IUPAC_INCHIKEY>
YMUDLHBKUTXRGL-UHFFFAOYSA-N

> <PUBCHEM_XLOGP3_AA>
3.8

> <PUBCHEM_EXACT_MASS>
497.1497638

> <PUBCHEM_MOLECULAR_FORMULA>
C24H25Cl2N7O

> <PUBCHEM_MOLECULAR_WEIGHT>
498.4

> <PUBCHEM_OPENEYE_CAN_SMILES>
C1CN(CCN1CCCCC2=CN(N=N2)C3=CC4=C(C=NN4C=C3)C=O)C5=C(C(=CC=C5)Cl)Cl

> <PUBCHEM_OPENEYE_ISO_SMILES>
C1CN(CCN1CCCCC2=CN(N=N2)C3=CC4=C(C=NN4C=C3)C=O)C5=C(C(=CC=C5)Cl)Cl

> <PUBCHEM_CACTVS_TPSA>
71.6

> <PUBCHEM_MONOISOTOPIC_WEIGHT>
497.1497638

> <PUBCHEM_TOTAL_CHARGE>
0

> <PUBCHEM_HEAVY_ATOM_COUNT>
34

> <PUBCHEM_ATOM_DEF_STEREO_COUNT>
0

> <PUBCHEM_ATOM_UDEF_STEREO_COUNT>
0

> <PUBCHEM_BOND_DEF_STEREO_COUNT>
0

> <PUBCHEM_BOND_UDEF_STEREO_COUNT>
0

> <PUBCHEM_ISOTOPIC_ATOM_COUNT>
0

> <PUBCHEM_COMPONENT_COUNT>
1

> <PUBCHEM_CACTVS_TAUTO_COUNT>
-1

> <PUBCHEM_COORDINATE_TYPE>
1
5
255

> <PUBCHEM_BONDANNOTATIONS>
10  33  8
18  20  8
18  21  8
20  23  8
21  24  8
22  25  8
23  26  8
24  26  8
27  28  8
27  30  8
28  29  8
29  32  8
30  31  8
32  33  8
6  25  8
6  8  8
7  22  8
7  8  8
9  10  8
9  29  8
9  31  8

$$$$
