122178768
  -OEChem-09292322082D

 66 70  0     0  0  0  0  0  0999 V2000
   15.2619   -0.6020    0.0000 Cl  0  0  0  0  0  0  0  0  0  0  0  0
   17.2619   -0.6020    0.0000 Cl  0  0  0  0  0  0  0  0  0  0  0  0
    6.7619   -1.4680    0.0000 O   0  0  0  0  0  0  0  0  0  0  0  0
   12.2619    1.1300    0.0000 N   0  0  0  0  0  0  0  0  0  0  0  0
    6.7619    0.2640    0.0000 N   0  0  0  0  0  0  0  0  0  0  0  0
   14.2619    1.1300    0.0000 N   0  0  0  0  0  0  0  0  0  0  0  0
    4.6783   -1.4067    0.0000 N   0  0  0  0  0  0  0  0  0  0  0  0
    9.7619    0.2640    0.0000 C   0  0  0  0  0  0  0  0  0  0  0  0
    9.2619    1.1300    0.0000 C   0  0  0  0  0  0  0  0  0  0  0  0
    9.2619   -0.6020    0.0000 C   0  0  0  0  0  0  0  0  0  0  0  0
    7.7619    0.2640    0.0000 C   0  0  0  0  0  0  0  0  0  0  0  0
    8.2619    1.1300    0.0000 C   0  0  0  0  0  0  0  0  0  0  0  0
    8.2619   -0.6020    0.0000 C   0  0  0  0  0  0  0  0  0  0  0  0
   10.7619    0.2640    0.0000 C   0  0  0  0  0  0  0  0  0  0  0  0
   11.2619    1.1300    0.0000 C   0  0  0  0  0  0  0  0  0  0  0  0
   12.7619    0.2640    0.0000 C   0  0  0  0  0  0  0  0  0  0  0  0
   12.7619    1.9961    0.0000 C   0  0  0  0  0  0  0  0  0  0  0  0
   13.7619    0.2640    0.0000 C   0  0  0  0  0  0  0  0  0  0  0  0
   13.7619    1.9961    0.0000 C   0  0  0  0  0  0  0  0  0  0  0  0
    6.2619   -0.6020    0.0000 C   0  0  0  0  0  0  0  0  0  0  0  0
   15.2619    1.1300    0.0000 C   0  0  0  0  0  0  0  0  0  0  0  0
    5.2619   -0.6020    0.0000 C   0  0  0  0  0  0  0  0  0  0  0  0
   15.7619    0.2640    0.0000 C   0  0  0  0  0  0  0  0  0  0  0  0
   15.7619    1.9961    0.0000 C   0  0  0  0  0  0  0  0  0  0  0  0
    4.6783    0.2027    0.0000 C   0  0  0  0  0  0  0  0  0  0  0  0
    3.7320   -1.1020    0.0000 C   0  0  0  0  0  0  0  0  0  0  0  0
    3.7320   -0.1020    0.0000 C   0  0  0  0  0  0  0  0  0  0  0  0
   16.7619    0.2640    0.0000 C   0  0  0  0  0  0  0  0  0  0  0  0
   16.7619    1.9961    0.0000 C   0  0  0  0  0  0  0  0  0  0  0  0
   17.2619    1.1300    0.0000 C   0  0  0  0  0  0  0  0  0  0  0  0
    2.8660   -1.6020    0.0000 C   0  0  0  0  0  0  0  0  0  0  0  0
    2.8660    0.3980    0.0000 C   0  0  0  0  0  0  0  0  0  0  0  0
    2.0000   -1.1020    0.0000 C   0  0  0  0  0  0  0  0  0  0  0  0
    2.0000   -0.1020    0.0000 C   0  0  0  0  0  0  0  0  0  0  0  0
   10.0719    0.8010    0.0000 H   0  0  0  0  0  0  0  0  0  0  0  0
    9.8445    1.3421    0.0000 H   0  0  0  0  0  0  0  0  0  0  0  0
    9.1542    1.7406    0.0000 H   0  0  0  0  0  0  0  0  0  0  0  0
    9.1542   -1.2126    0.0000 H   0  0  0  0  0  0  0  0  0  0  0  0
    9.8445   -0.8141    0.0000 H   0  0  0  0  0  0  0  0  0  0  0  0
    7.4519    0.8010    0.0000 H   0  0  0  0  0  0  0  0  0  0  0  0
    8.3695    1.7406    0.0000 H   0  0  0  0  0  0  0  0  0  0  0  0
    7.6793    1.3421    0.0000 H   0  0  0  0  0  0  0  0  0  0  0  0
    7.6793   -0.8141    0.0000 H   0  0  0  0  0  0  0  0  0  0  0  0
    8.3695   -1.2126    0.0000 H   0  0  0  0  0  0  0  0  0  0  0  0
   10.6542   -0.3466    0.0000 H   0  0  0  0  0  0  0  0  0  0  0  0
   11.3445    0.0520    0.0000 H   0  0  0  0  0  0  0  0  0  0  0  0
   11.3695    1.7406    0.0000 H   0  0  0  0  0  0  0  0  0  0  0  0
   10.6793    1.3421    0.0000 H   0  0  0  0  0  0  0  0  0  0  0  0
    6.4519    0.8010    0.0000 H   0  0  0  0  0  0  0  0  0  0  0  0
   12.1793    0.0520    0.0000 H   0  0  0  0  0  0  0  0  0  0  0  0
   12.8695   -0.3466    0.0000 H   0  0  0  0  0  0  0  0  0  0  0  0
   12.8695    2.6066    0.0000 H   0  0  0  0  0  0  0  0  0  0  0  0
   12.1793    2.2081    0.0000 H   0  0  0  0  0  0  0  0  0  0  0  0
   13.6542   -0.3466    0.0000 H   0  0  0  0  0  0  0  0  0  0  0  0
   14.3445    0.0520    0.0000 H   0  0  0  0  0  0  0  0  0  0  0  0
   14.3445    2.2081    0.0000 H   0  0  0  0  0  0  0  0  0  0  0  0
   13.6542    2.6066    0.0000 H   0  0  0  0  0  0  0  0  0  0  0  0
   15.4519    2.5330    0.0000 H   0  0  0  0  0  0  0  0  0  0  0  0
    4.8709   -1.9961    0.0000 H   0  0  0  0  0  0  0  0  0  0  0  0
    4.8709    0.7920    0.0000 H   0  0  0  0  0  0  0  0  0  0  0  0
   17.0719    2.5330    0.0000 H   0  0  0  0  0  0  0  0  0  0  0  0
   17.8819    1.1300    0.0000 H   0  0  0  0  0  0  0  0  0  0  0  0
    2.8660   -2.2220    0.0000 H   0  0  0  0  0  0  0  0  0  0  0  0
    2.8660    1.0180    0.0000 H   0  0  0  0  0  0  0  0  0  0  0  0
    1.4631   -1.4120    0.0000 H   0  0  0  0  0  0  0  0  0  0  0  0
    1.4631    0.2080    0.0000 H   0  0  0  0  0  0  0  0  0  0  0  0
  1 23  1  0  0  0  0
  2 28  1  0  0  0  0
  3 20  2  0  0  0  0
  4 15  1  0  0  0  0
  4 16  1  0  0  0  0
  4 17  1  0  0  0  0
  5 11  1  0  0  0  0
  5 20  1  0  0  0  0
  5 49  1  0  0  0  0
  6 18  1  0  0  0  0
  6 19  1  0  0  0  0
  6 21  1  0  0  0  0
  7 22  1  0  0  0  0
  7 26  1  0  0  0  0
  7 59  1  0  0  0  0
  8  9  1  0  0  0  0
  8 10  1  0  0  0  0
  8 14  1  0  0  0  0
  8 35  1  0  0  0  0
  9 12  1  0  0  0  0
  9 36  1  0  0  0  0
  9 37  1  0  0  0  0
 10 13  1  0  0  0  0
 10 38  1  0  0  0  0
 10 39  1  0  0  0  0
 11 12  1  0  0  0  0
 11 13  1  0  0  0  0
 11 40  1  0  0  0  0
 12 41  1  0  0  0  0
 12 42  1  0  0  0  0
 13 43  1  0  0  0  0
 13 44  1  0  0  0  0
 14 15  1  0  0  0  0
 14 45  1  0  0  0  0
 14 46  1  0  0  0  0
 15 47  1  0  0  0  0
 15 48  1  0  0  0  0
 16 18  1  0  0  0  0
 16 50  1  0  0  0  0
 16 51  1  0  0  0  0
 17 19  1  0  0  0  0
 17 52  1  0  0  0  0
 17 53  1  0  0  0  0
 18 54  1  0  0  0  0
 18 55  1  0  0  0  0
 19 56  1  0  0  0  0
 19 57  1  0  0  0  0
 20 22  1  0  0  0  0
 21 23  2  0  0  0  0
 21 24  1  0  0  0  0
 22 25  2  0  0  0  0
 23 28  1  0  0  0  0
 24 29  2  0  0  0  0
 24 58  1  0  0  0  0
 25 27  1  0  0  0  0
 25 60  1  0  0  0  0
 26 27  1  0  0  0  0
 26 31  2  0  0  0  0
 27 32  2  0  0  0  0
 28 30  2  0  0  0  0
 29 30  1  0  0  0  0
 29 61  1  0  0  0  0
 30 62  1  0  0  0  0
 31 33  1  0  0  0  0
 31 63  1  0  0  0  0
 32 34  1  0  0  0  0
 32 64  1  0  0  0  0
 33 34  2  0  0  0  0
 33 65  1  0  0  0  0
 34 66  1  0  0  0  0
M  END
> <PUBCHEM_COMPOUND_CID>
122178768

> <PUBCHEM_COMPOUND_CANONICALIZED>
1

> <PUBCHEM_CACTVS_COMPLEXITY>
665

> <PUBCHEM_CACTVS_HBOND_ACCEPTOR>
3

> <PUBCHEM_CACTVS_HBOND_DONOR>
2

> <PUBCHEM_CACTVS_ROTATABLE_BOND>
6

> <PUBCHEM_CACTVS_SUBSKEYS>
AAADcfB7oAAGAAAAAAAAAAAAAAAAAWAAAAA8YMEAAAAAAFgB9AAAHgIQAAAADSrBniQwwPPJkACoAyVyVACCgCAnByAIm+G4ZtgIYPLBl7HUIQhglgDIyYcYiYCeAAAAAAICABQQAAAABAQAKAAAAAAAAA==

> <PUBCHEM_IUPAC_OPENEYE_NAME>
N-[4-[2-[4-(2,3-dichlorophenyl)piperazin-1-yl]ethyl]cyclohexyl]-1H-indole-2-carboxamide

> <PUBCHEM_IUPAC_CAS_NAME>
N-[4-[2-[4-(2,3-dichlorophenyl)-1-piperazinyl]ethyl]cyclohexyl]-1H-indole-2-carboxamide

> <PUBCHEM_IUPAC_NAME_MARKUP>
<I>N</I>-[4-[2-[4-(2,3-dichlorophenyl)piperazin-1-yl]ethyl]cyclohexyl]-1<I>H</I>-indole-2-carboxamide

> <PUBCHEM_IUPAC_NAME>
N-[4-[2-[4-(2,3-dichlorophenyl)piperazin-1-yl]ethyl]cyclohexyl]-1H-indole-2-carboxamide

> <PUBCHEM_IUPAC_SYSTEMATIC_NAME>
N-[4-[2-[4-[2,3-bis(chloranyl)phenyl]piperazin-1-yl]ethyl]cyclohexyl]-1H-indole-2-carboxamide

> <PUBCHEM_IUPAC_TRADITIONAL_NAME>
N-[4-[2-[4-(2,3-dichlorophenyl)piperazino]ethyl]cyclohexyl]-1H-indole-2-carboxamide

> <PUBCHEM_IUPAC_INCHI>
InChI=1S/C27H32Cl2N4O/c28-22-5-3-7-25(26(22)29)33-16-14-32(15-17-33)13-12-19-8-10-21(11-9-19)30-27(34)24-18-20-4-1-2-6-23(20)31-24/h1-7,18-19,21,31H,8-17H2,(H,30,34)

> <PUBCHEM_IUPAC_INCHIKEY>
ICMCXVPCQJVKRM-UHFFFAOYSA-N

> <PUBCHEM_XLOGP3_AA>
6.4

> <PUBCHEM_EXACT_MASS>
498.1953170

> <PUBCHEM_MOLECULAR_FORMULA>
C27H32Cl2N4O

> <PUBCHEM_MOLECULAR_WEIGHT>
499.5

> <PUBCHEM_OPENEYE_CAN_SMILES>
C1CC(CCC1CCN2CCN(CC2)C3=C(C(=CC=C3)Cl)Cl)NC(=O)C4=CC5=CC=CC=C5N4

> <PUBCHEM_OPENEYE_ISO_SMILES>
C1CC(CCC1CCN2CCN(CC2)C3=C(C(=CC=C3)Cl)Cl)NC(=O)C4=CC5=CC=CC=C5N4

> <PUBCHEM_CACTVS_TPSA>
51.4

> <PUBCHEM_MONOISOTOPIC_WEIGHT>
498.1953170

> <PUBCHEM_TOTAL_CHARGE>
0

> <PUBCHEM_HEAVY_ATOM_COUNT>
34

> <PUBCHEM_ATOM_DEF_STEREO_COUNT>
0

> <PUBCHEM_ATOM_UDEF_STEREO_COUNT>
0

> <PUBCHEM_BOND_DEF_STEREO_COUNT>
0

> <PUBCHEM_BOND_UDEF_STEREO_COUNT>
0

> <PUBCHEM_ISOTOPIC_ATOM_COUNT>
0

> <PUBCHEM_COMPONENT_COUNT>
1

> <PUBCHEM_CACTVS_TAUTO_COUNT>
-1

> <PUBCHEM_COORDINATE_TYPE>
1
5
255

> <PUBCHEM_BONDANNOTATIONS>
21  23  8
21  24  8
22  25  8
23  28  8
24  29  8
25  27  8
26  27  8
26  31  8
27  32  8
28  30  8
29  30  8
31  33  8
32  34  8
33  34  8
7  22  8
7  26  8

$$$$
