130431290
  -OEChem-09292322422D

 61 63  0     0  0  0  0  0  0999 V2000
    2.0000   -4.3807    0.0000 Cl  0  0  0  0  0  0  0  0  0  0  0  0
    7.1962    2.6193    0.0000 O   0  0  0  0  0  0  0  0  0  0  0  0
    3.7320   -1.3807    0.0000 N   0  0  0  0  0  0  0  0  0  0  0  0
    3.7320   -3.3807    0.0000 N   0  0  0  0  0  0  0  0  0  0  0  0
    5.4641    2.6193    0.0000 N   0  0  0  0  0  0  0  0  0  0  0  0
    5.5211    4.7071    0.0000 N   0  0  0  0  0  0  0  0  0  0  0  0
    7.1391    4.7071    0.0000 N   0  0  0  0  0  0  0  0  0  0  0  0
    4.5981   -1.8807    0.0000 C   0  0  0  0  0  0  0  0  0  0  0  0
    2.8660   -1.8807    0.0000 C   0  0  0  0  0  0  0  0  0  0  0  0
    4.5981   -2.8807    0.0000 C   0  0  0  0  0  0  0  0  0  0  0  0
    2.8660   -2.8807    0.0000 C   0  0  0  0  0  0  0  0  0  0  0  0
    3.7320   -0.3807    0.0000 C   0  0  0  0  0  0  0  0  0  0  0  0
    4.5981    0.1193    0.0000 C   0  0  0  0  0  0  0  0  0  0  0  0
    3.7320   -4.3807    0.0000 C   0  0  0  0  0  0  0  0  0  0  0  0
    4.5981    1.1193    0.0000 C   0  0  0  0  0  0  0  0  0  0  0  0
    2.8660   -4.8807    0.0000 C   0  0  0  0  0  0  0  0  0  0  0  0
    5.4641    1.6193    0.0000 C   0  0  0  0  0  0  0  0  0  0  0  0
    4.5981   -4.8807    0.0000 C   0  0  0  0  0  0  0  0  0  0  0  0
    2.8660   -5.8807    0.0000 C   0  0  0  0  0  0  0  0  0  0  0  0
    4.5981   -5.8807    0.0000 C   0  0  0  0  0  0  0  0  0  0  0  0
    3.7320   -6.3807    0.0000 C   0  0  0  0  0  0  0  0  0  0  0  0
    2.0000   -6.3807    0.0000 C   0  0  0  0  0  0  0  0  0  0  0  0
    6.3301    3.1193    0.0000 C   0  0  0  0  0  0  0  0  0  0  0  0
    2.0000   -7.3807    0.0000 C   0  0  0  0  0  0  0  0  0  0  0  0
    6.3301    4.1193    0.0000 C   0  0  0  0  0  0  0  0  0  0  0  0
    5.8301    5.6581    0.0000 C   0  0  0  0  0  0  0  0  0  0  0  0
    5.2423    6.4672    0.0000 C   0  0  0  0  0  0  0  0  0  0  0  0
    6.8301    5.6581    0.0000 C   0  0  0  0  0  0  0  0  0  0  0  0
    5.6491    7.3807    0.0000 C   0  0  0  0  0  0  0  0  0  0  0  0
    5.2087   -1.9884    0.0000 H   0  0  0  0  0  0  0  0  0  0  0  0
    4.8101   -1.2981    0.0000 H   0  0  0  0  0  0  0  0  0  0  0  0
    2.6540   -1.2981    0.0000 H   0  0  0  0  0  0  0  0  0  0  0  0
    2.2554   -1.9884    0.0000 H   0  0  0  0  0  0  0  0  0  0  0  0
    4.8101   -3.4633    0.0000 H   0  0  0  0  0  0  0  0  0  0  0  0
    5.2087   -2.7730    0.0000 H   0  0  0  0  0  0  0  0  0  0  0  0
    2.2554   -2.7730    0.0000 H   0  0  0  0  0  0  0  0  0  0  0  0
    2.6540   -3.4633    0.0000 H   0  0  0  0  0  0  0  0  0  0  0  0
    3.5200    0.2019    0.0000 H   0  0  0  0  0  0  0  0  0  0  0  0
    3.1215   -0.4884    0.0000 H   0  0  0  0  0  0  0  0  0  0  0  0
    4.8101   -0.4633    0.0000 H   0  0  0  0  0  0  0  0  0  0  0  0
    5.2087    0.2270    0.0000 H   0  0  0  0  0  0  0  0  0  0  0  0
    4.3860    1.7019    0.0000 H   0  0  0  0  0  0  0  0  0  0  0  0
    3.9875    1.0116    0.0000 H   0  0  0  0  0  0  0  0  0  0  0  0
    5.6762    1.0367    0.0000 H   0  0  0  0  0  0  0  0  0  0  0  0
    6.0747    1.7270    0.0000 H   0  0  0  0  0  0  0  0  0  0  0  0
    5.1350   -4.5707    0.0000 H   0  0  0  0  0  0  0  0  0  0  0  0
    5.1350   -6.1907    0.0000 H   0  0  0  0  0  0  0  0  0  0  0  0
    3.7320   -7.0007    0.0000 H   0  0  0  0  0  0  0  0  0  0  0  0
    4.9272    2.9293    0.0000 H   0  0  0  0  0  0  0  0  0  0  0  0
    1.7880   -5.7981    0.0000 H   0  0  0  0  0  0  0  0  0  0  0  0
    1.3894   -6.4884    0.0000 H   0  0  0  0  0  0  0  0  0  0  0  0
    1.3800   -7.3807    0.0000 H   0  0  0  0  0  0  0  0  0  0  0  0
    2.0000   -8.0007    0.0000 H   0  0  0  0  0  0  0  0  0  0  0  0
    2.6200   -7.3807    0.0000 H   0  0  0  0  0  0  0  0  0  0  0  0
    4.9315    4.5155    0.0000 H   0  0  0  0  0  0  0  0  0  0  0  0
    4.7283    6.8139    0.0000 H   0  0  0  0  0  0  0  0  0  0  0  0
    4.8116    6.0212    0.0000 H   0  0  0  0  0  0  0  0  0  0  0  0
    7.1946    6.1597    0.0000 H   0  0  0  0  0  0  0  0  0  0  0  0
    6.2155    7.1285    0.0000 H   0  0  0  0  0  0  0  0  0  0  0  0
    5.9013    7.9471    0.0000 H   0  0  0  0  0  0  0  0  0  0  0  0
    5.0827    7.6329    0.0000 H   0  0  0  0  0  0  0  0  0  0  0  0
  1 16  1  0  0  0  0
  2 23  2  0  0  0  0
  3  8  1  0  0  0  0
  3  9  1  0  0  0  0
  3 12  1  0  0  0  0
  4 10  1  0  0  0  0
  4 11  1  0  0  0  0
  4 14  1  0  0  0  0
  5 17  1  0  0  0  0
  5 23  1  0  0  0  0
  5 49  1  0  0  0  0
  6 25  1  0  0  0  0
  6 26  1  0  0  0  0
  6 55  1  0  0  0  0
  7 25  2  0  0  0  0
  7 28  1  0  0  0  0
  8 10  1  0  0  0  0
  8 30  1  0  0  0  0
  8 31  1  0  0  0  0
  9 11  1  0  0  0  0
  9 32  1  0  0  0  0
  9 33  1  0  0  0  0
 10 34  1  0  0  0  0
 10 35  1  0  0  0  0
 11 36  1  0  0  0  0
 11 37  1  0  0  0  0
 12 13  1  0  0  0  0
 12 38  1  0  0  0  0
 12 39  1  0  0  0  0
 13 15  1  0  0  0  0
 13 40  1  0  0  0  0
 13 41  1  0  0  0  0
 14 16  1  0  0  0  0
 14 18  2  0  0  0  0
 15 17  1  0  0  0  0
 15 42  1  0  0  0  0
 15 43  1  0  0  0  0
 16 19  2  0  0  0  0
 17 44  1  0  0  0  0
 17 45  1  0  0  0  0
 18 20  1  0  0  0  0
 18 46  1  0  0  0  0
 19 21  1  0  0  0  0
 19 22  1  0  0  0  0
 20 21  2  0  0  0  0
 20 47  1  0  0  0  0
 21 48  1  0  0  0  0
 22 24  1  0  0  0  0
 22 50  1  0  0  0  0
 22 51  1  0  0  0  0
 23 25  1  0  0  0  0
 24 52  1  0  0  0  0
 24 53  1  0  0  0  0
 24 54  1  0  0  0  0
 26 27  1  0  0  0  0
 26 28  2  0  0  0  0
 27 29  1  0  0  0  0
 27 56  1  0  0  0  0
 27 57  1  0  0  0  0
 28 58  1  0  0  0  0
 29 59  1  0  0  0  0
 29 60  1  0  0  0  0
 29 61  1  0  0  0  0
M  END
> <PUBCHEM_COMPOUND_CID>
130431290

> <PUBCHEM_COMPOUND_CANONICALIZED>
1

> <PUBCHEM_CACTVS_COMPLEXITY>
500

> <PUBCHEM_CACTVS_HBOND_ACCEPTOR>
4

> <PUBCHEM_CACTVS_HBOND_DONOR>
2

> <PUBCHEM_CACTVS_ROTATABLE_BOND>
9

> <PUBCHEM_CACTVS_SUBSKEYS>
AAADcfB7oAAEAAAAAAAAAAAAAAAAAWAAAAA8QAAAAAAAAAABwAAAHgIQAAAADArBnyQ/0JfJkACoAzd3dACCgC2zFqAJ2YC4doiIaCLBm7HUIAholgLIyCcQgIAOAAAAQAABABAAAACAAAIAIAAAAAAAAA==

> <PUBCHEM_IUPAC_OPENEYE_NAME>
N-[4-[4-(2-chloro-3-ethyl-phenyl)piperazin-1-yl]butyl]-5-ethyl-1H-imidazole-2-carboxamide

> <PUBCHEM_IUPAC_CAS_NAME>
N-[4-[4-(2-chloro-3-ethylphenyl)-1-piperazinyl]butyl]-5-ethyl-1H-imidazole-2-carboxamide

> <PUBCHEM_IUPAC_NAME_MARKUP>
<I>N</I>-[4-[4-(2-chloro-3-ethylphenyl)piperazin-1-yl]butyl]-5-ethyl-1<I>H</I>-imidazole-2-carboxamide

> <PUBCHEM_IUPAC_NAME>
N-[4-[4-(2-chloro-3-ethylphenyl)piperazin-1-yl]butyl]-5-ethyl-1H-imidazole-2-carboxamide

> <PUBCHEM_IUPAC_SYSTEMATIC_NAME>
N-[4-[4-(2-chloranyl-3-ethyl-phenyl)piperazin-1-yl]butyl]-5-ethyl-1H-imidazole-2-carboxamide

> <PUBCHEM_IUPAC_TRADITIONAL_NAME>
N-[4-[4-(2-chloro-3-ethyl-phenyl)piperazino]butyl]-5-ethyl-1H-imidazole-2-carboxamide

> <PUBCHEM_IUPAC_INCHI>
InChI=1S/C22H32ClN5O/c1-3-17-8-7-9-19(20(17)23)28-14-12-27(13-15-28)11-6-5-10-24-22(29)21-25-16-18(4-2)26-21/h7-9,16H,3-6,10-15H2,1-2H3,(H,24,29)(H,25,26)

> <PUBCHEM_IUPAC_INCHIKEY>
JPKJFRLOQQTEPW-UHFFFAOYSA-N

> <PUBCHEM_XLOGP3_AA>
4.3

> <PUBCHEM_EXACT_MASS>
417.2295384

> <PUBCHEM_MOLECULAR_FORMULA>
C22H32ClN5O

> <PUBCHEM_MOLECULAR_WEIGHT>
418.0

> <PUBCHEM_OPENEYE_CAN_SMILES>
CCC1=C(C(=CC=C1)N2CCN(CC2)CCCCNC(=O)C3=NC=C(N3)CC)Cl

> <PUBCHEM_OPENEYE_ISO_SMILES>
CCC1=C(C(=CC=C1)N2CCN(CC2)CCCCNC(=O)C3=NC=C(N3)CC)Cl

> <PUBCHEM_CACTVS_TPSA>
64.3

> <PUBCHEM_MONOISOTOPIC_WEIGHT>
417.2295384

> <PUBCHEM_TOTAL_CHARGE>
0

> <PUBCHEM_HEAVY_ATOM_COUNT>
29

> <PUBCHEM_ATOM_DEF_STEREO_COUNT>
0

> <PUBCHEM_ATOM_UDEF_STEREO_COUNT>
0

> <PUBCHEM_BOND_DEF_STEREO_COUNT>
0

> <PUBCHEM_BOND_UDEF_STEREO_COUNT>
0

> <PUBCHEM_ISOTOPIC_ATOM_COUNT>
0

> <PUBCHEM_COMPONENT_COUNT>
1

> <PUBCHEM_CACTVS_TAUTO_COUNT>
-1

> <PUBCHEM_COORDINATE_TYPE>
1
5
255

> <PUBCHEM_BONDANNOTATIONS>
14  16  8
14  18  8
16  19  8
18  20  8
19  21  8
20  21  8
26  28  8
6  25  8
6  26  8
7  25  8
7  28  8

$$$$
