44578446
  -OEChem-09292322232D

 48 51  0     1  0  0  0  0  0999 V2000
    2.1510   -3.3372    0.0000 Cl  0  0  0  0  0  0  0  0  0  0  0  0
   13.8001    3.3372    0.0000 F   0  0  0  0  0  0  0  0  0  0  0  0
   10.3360    0.3372    0.0000 O   0  0  0  0  0  0  0  0  0  0  0  0
    6.8719    1.3372    0.0000 N   0  0  3  0  0  0  0  0  0  0  0  0
    3.8414    0.2881    0.0000 N   0  0  3  0  0  0  0  0  0  0  0  0
    5.4730    1.8460    0.0000 C   0  0  3  0  0  0  0  0  0  0  0  0
    5.2141    0.8801    0.0000 C   0  0  3  0  0  0  0  0  0  0  0  0
    4.7363    2.8286    0.0000 C   0  0  0  0  0  0  0  0  0  0  0  0
    6.6131    0.3713    0.0000 C   0  0  0  0  0  0  0  0  0  0  0  0
    3.4994    1.2277    0.0000 C   0  0  0  0  0  0  0  0  0  0  0  0
    7.7379    1.8372    0.0000 C   0  0  0  0  0  0  0  0  0  0  0  0
    3.4188   -0.6183    0.0000 C   0  0  0  0  0  0  0  0  0  0  0  0
    8.6039    1.3372    0.0000 C   0  0  0  0  0  0  0  0  0  0  0  0
    2.4226   -0.7054    0.0000 C   0  0  0  0  0  0  0  0  0  0  0  0
    3.9924   -1.4374    0.0000 C   0  0  0  0  0  0  0  0  0  0  0  0
    9.4700    1.8372    0.0000 C   0  0  0  0  0  0  0  0  0  0  0  0
    2.0000   -1.6117    0.0000 C   0  0  0  0  0  0  0  0  0  0  0  0
    3.5698   -2.3437    0.0000 C   0  0  0  0  0  0  0  0  0  0  0  0
   10.3360    1.3372    0.0000 C   0  0  0  0  0  0  0  0  0  0  0  0
    2.5736   -2.4309    0.0000 C   0  0  0  0  0  0  0  0  0  0  0  0
   11.2020    1.8372    0.0000 C   0  0  0  0  0  0  0  0  0  0  0  0
   11.2020    2.8372    0.0000 C   0  0  0  0  0  0  0  0  0  0  0  0
   12.0680    1.3372    0.0000 C   0  0  0  0  0  0  0  0  0  0  0  0
   12.0680    3.3372    0.0000 C   0  0  0  0  0  0  0  0  0  0  0  0
   12.9341    1.8372    0.0000 C   0  0  0  0  0  0  0  0  0  0  0  0
   12.9341    2.8372    0.0000 C   0  0  0  0  0  0  0  0  0  0  0  0
    5.4589    1.2262    0.0000 H   0  0  0  0  0  0  0  0  0  0  0  0
    5.2322    0.2603    0.0000 H   0  0  0  0  0  0  0  0  0  0  0  0
    5.0541    3.3610    0.0000 H   0  0  0  0  0  0  0  0  0  0  0  0
    4.1232    2.9206    0.0000 H   0  0  0  0  0  0  0  0  0  0  0  0
    6.4182   -0.2173    0.0000 H   0  0  0  0  0  0  0  0  0  0  0  0
    7.2070    0.1935    0.0000 H   0  0  0  0  0  0  0  0  0  0  0  0
    3.3051    1.8165    0.0000 H   0  0  0  0  0  0  0  0  0  0  0  0
    2.9136    1.0246    0.0000 H   0  0  0  0  0  0  0  0  0  0  0  0
    8.1364    2.3121    0.0000 H   0  0  0  0  0  0  0  0  0  0  0  0
    7.3394    2.3121    0.0000 H   0  0  0  0  0  0  0  0  0  0  0  0
    8.2054    0.8622    0.0000 H   0  0  0  0  0  0  0  0  0  0  0  0
    9.0025    0.8622    0.0000 H   0  0  0  0  0  0  0  0  0  0  0  0
    2.0670   -0.1975    0.0000 H   0  0  0  0  0  0  0  0  0  0  0  0
    4.6100   -1.3834    0.0000 H   0  0  0  0  0  0  0  0  0  0  0  0
    9.8685    2.3121    0.0000 H   0  0  0  0  0  0  0  0  0  0  0  0
    9.0714    2.3121    0.0000 H   0  0  0  0  0  0  0  0  0  0  0  0
    1.3824   -1.6658    0.0000 H   0  0  0  0  0  0  0  0  0  0  0  0
    3.9254   -2.8516    0.0000 H   0  0  0  0  0  0  0  0  0  0  0  0
   10.6651    3.1472    0.0000 H   0  0  0  0  0  0  0  0  0  0  0  0
   12.0680    0.7172    0.0000 H   0  0  0  0  0  0  0  0  0  0  0  0
   12.0680    3.9572    0.0000 H   0  0  0  0  0  0  0  0  0  0  0  0
   13.4710    1.5272    0.0000 H   0  0  0  0  0  0  0  0  0  0  0  0
  1 20  1  0  0  0  0
  2 26  1  0  0  0  0
  3 19  2  0  0  0  0
  4  6  1  0  0  0  0
  4  9  1  0  0  0  0
  4 11  1  0  0  0  0
  5  7  1  0  0  0  0
  5 10  1  0  0  0  0
  5 12  1  0  0  0  0
  6  8  1  0  0  0  0
  6 10  1  0  0  0  0
  6 27  1  0  0  0  0
  7  8  1  0  0  0  0
  7  9  1  0  0  0  0
  7 28  1  0  0  0  0
  8 29  1  0  0  0  0
  8 30  1  0  0  0  0
  9 31  1  0  0  0  0
  9 32  1  0  0  0  0
 10 33  1  0  0  0  0
 10 34  1  0  0  0  0
 11 13  1  0  0  0  0
 11 35  1  0  0  0  0
 11 36  1  0  0  0  0
 12 14  2  0  0  0  0
 12 15  1  0  0  0  0
 13 16  1  0  0  0  0
 13 37  1  0  0  0  0
 13 38  1  0  0  0  0
 14 17  1  0  0  0  0
 14 39  1  0  0  0  0
 15 18  2  0  0  0  0
 15 40  1  0  0  0  0
 16 19  1  0  0  0  0
 16 41  1  0  0  0  0
 16 42  1  0  0  0  0
 17 20  2  0  0  0  0
 17 43  1  0  0  0  0
 18 20  1  0  0  0  0
 18 44  1  0  0  0  0
 19 21  1  0  0  0  0
 21 22  2  0  0  0  0
 21 23  1  0  0  0  0
 22 24  1  0  0  0  0
 22 45  1  0  0  0  0
 23 25  2  0  0  0  0
 23 46  1  0  0  0  0
 24 26  2  0  0  0  0
 24 47  1  0  0  0  0
 25 26  1  0  0  0  0
 25 48  1  0  0  0  0
M  END
> <PUBCHEM_COMPOUND_CID>
44578446

> <PUBCHEM_COMPOUND_CANONICALIZED>
1

> <PUBCHEM_CACTVS_COMPLEXITY>
488

> <PUBCHEM_CACTVS_HBOND_ACCEPTOR>
4

> <PUBCHEM_CACTVS_HBOND_DONOR>
0

> <PUBCHEM_CACTVS_ROTATABLE_BOND>
6

> <PUBCHEM_CACTVS_SUBSKEYS>
AAADceB7IQAEAAAAAAAAAAAAAAAAAWLAAAA8YIAAAAAAAAABQAAAHwIAAAAADC7BmCwwwIMAAACIAqRSQACCAAAlBwAIiAEIZsgIYDLB15GUIQhggADIyYcciICOAABAAAAAAAAAAIAAAAAAAAAAAAAAAA==

> <PUBCHEM_IUPAC_OPENEYE_NAME>
4-[5-(4-chlorophenyl)-2,5-diazabicyclo[2.2.1]heptan-2-yl]-1-(4-fluorophenyl)butan-1-one

> <PUBCHEM_IUPAC_CAS_NAME>
4-[5-(4-chlorophenyl)-2,5-diazabicyclo[2.2.1]heptan-2-yl]-1-(4-fluorophenyl)-1-butanone

> <PUBCHEM_IUPAC_NAME_MARKUP>
4-[5-(4-chlorophenyl)-2,5-diazabicyclo[2.2.1]heptan-2-yl]-1-(4-fluorophenyl)butan-1-one

> <PUBCHEM_IUPAC_NAME>
4-[5-(4-chlorophenyl)-2,5-diazabicyclo[2.2.1]heptan-2-yl]-1-(4-fluorophenyl)butan-1-one

> <PUBCHEM_IUPAC_SYSTEMATIC_NAME>
4-[5-(4-chlorophenyl)-2,5-diazabicyclo[2.2.1]heptan-2-yl]-1-(4-fluorophenyl)butan-1-one

> <PUBCHEM_IUPAC_TRADITIONAL_NAME>
4-[5-(4-chlorophenyl)-2,5-diazabicyclo[2.2.1]heptan-2-yl]-1-(4-fluorophenyl)butan-1-one

> <PUBCHEM_IUPAC_INCHI>
InChI=1S/C21H22ClFN2O/c22-16-5-9-18(10-6-16)25-14-19-12-20(25)13-24(19)11-1-2-21(26)15-3-7-17(23)8-4-15/h3-10,19-20H,1-2,11-14H2

> <PUBCHEM_IUPAC_INCHIKEY>
ILSADQLMJBGMFK-UHFFFAOYSA-N

> <PUBCHEM_XLOGP3_AA>
4.5

> <PUBCHEM_EXACT_MASS>
372.1404692

> <PUBCHEM_MOLECULAR_FORMULA>
C21H22ClFN2O

> <PUBCHEM_MOLECULAR_WEIGHT>
372.9

> <PUBCHEM_OPENEYE_CAN_SMILES>
C1C2CN(C1CN2C3=CC=C(C=C3)Cl)CCCC(=O)C4=CC=C(C=C4)F

> <PUBCHEM_OPENEYE_ISO_SMILES>
C1C2CN(C1CN2C3=CC=C(C=C3)Cl)CCCC(=O)C4=CC=C(C=C4)F

> <PUBCHEM_CACTVS_TPSA>
23.6

> <PUBCHEM_MONOISOTOPIC_WEIGHT>
372.1404692

> <PUBCHEM_TOTAL_CHARGE>
0

> <PUBCHEM_HEAVY_ATOM_COUNT>
26

> <PUBCHEM_ATOM_DEF_STEREO_COUNT>
0

> <PUBCHEM_ATOM_UDEF_STEREO_COUNT>
2

> <PUBCHEM_BOND_DEF_STEREO_COUNT>
0

> <PUBCHEM_BOND_UDEF_STEREO_COUNT>
0

> <PUBCHEM_ISOTOPIC_ATOM_COUNT>
0

> <PUBCHEM_COMPONENT_COUNT>
1

> <PUBCHEM_CACTVS_TAUTO_COUNT>
-1

> <PUBCHEM_COORDINATE_TYPE>
1
5
255

> <PUBCHEM_BONDANNOTATIONS>
12  14  8
12  15  8
14  17  8
15  18  8
17  20  8
18  20  8
21  22  8
21  23  8
22  24  8
23  25  8
24  26  8
25  26  8
6  8  3
7  8  3

$$$$
