11133533
  -OEChem-09292322112D

 61 64  0     0  0  0  0  0  0999 V2000
    8.1301   -2.2673    0.0000 O   0  0  0  0  0  0  0  0  0  0  0  0
    8.9962   -5.7673    0.0000 O   0  0  0  0  0  0  0  0  0  0  0  0
    4.6660    1.7327    0.0000 N   0  0  0  0  0  0  0  0  0  0  0  0
    4.6660    3.7327    0.0000 N   0  0  0  0  0  0  0  0  0  0  0  0
    5.5321    5.2327    0.0000 N   0  0  0  0  0  0  0  0  0  0  0  0
    6.3981   -2.2673    0.0000 N   0  0  0  0  0  0  0  0  0  0  0  0
    5.5321    2.2327    0.0000 C   0  0  0  0  0  0  0  0  0  0  0  0
    3.8000    2.2327    0.0000 C   0  0  0  0  0  0  0  0  0  0  0  0
    5.5321    3.2327    0.0000 C   0  0  0  0  0  0  0  0  0  0  0  0
    3.8000    3.2327    0.0000 C   0  0  0  0  0  0  0  0  0  0  0  0
    4.6660    0.7327    0.0000 C   0  0  0  0  0  0  0  0  0  0  0  0
    5.5321    0.2327    0.0000 C   0  0  0  0  0  0  0  0  0  0  0  0
    4.6660    4.7327    0.0000 C   0  0  0  0  0  0  0  0  0  0  0  0
    5.5321   -0.7673    0.0000 C   0  0  0  0  0  0  0  0  0  0  0  0
    3.8000    5.2327    0.0000 C   0  0  0  0  0  0  0  0  0  0  0  0
    6.3981   -1.2673    0.0000 C   0  0  0  0  0  0  0  0  0  0  0  0
    3.8000    6.2327    0.0000 C   0  0  0  0  0  0  0  0  0  0  0  0
    2.9061    4.6980    0.0000 C   0  0  0  0  0  0  0  0  0  0  0  0
    4.6660    6.7327    0.0000 C   0  0  0  0  0  0  0  0  0  0  0  0
    5.5321    6.2327    0.0000 C   0  0  0  0  0  0  0  0  0  0  0  0
    2.9061    6.7673    0.0000 C   0  0  0  0  0  0  0  0  0  0  0  0
    2.0000    5.2118    0.0000 C   0  0  0  0  0  0  0  0  0  0  0  0
    2.0000    6.2535    0.0000 C   0  0  0  0  0  0  0  0  0  0  0  0
    7.2641   -2.7673    0.0000 C   0  0  0  0  0  0  0  0  0  0  0  0
    7.2641   -3.7673    0.0000 C   0  0  0  0  0  0  0  0  0  0  0  0
    8.1301   -4.2673    0.0000 C   0  0  0  0  0  0  0  0  0  0  0  0
    6.3981   -4.2673    0.0000 C   0  0  0  0  0  0  0  0  0  0  0  0
    8.1301   -5.2673    0.0000 C   0  0  0  0  0  0  0  0  0  0  0  0
    6.3981   -5.2673    0.0000 C   0  0  0  0  0  0  0  0  0  0  0  0
    7.2641   -5.7673    0.0000 C   0  0  0  0  0  0  0  0  0  0  0  0
    8.9962   -6.7673    0.0000 C   0  0  0  0  0  0  0  0  0  0  0  0
    5.7441    1.6501    0.0000 H   0  0  0  0  0  0  0  0  0  0  0  0
    6.1426    2.3403    0.0000 H   0  0  0  0  0  0  0  0  0  0  0  0
    3.1894    2.3403    0.0000 H   0  0  0  0  0  0  0  0  0  0  0  0
    3.5880    1.6501    0.0000 H   0  0  0  0  0  0  0  0  0  0  0  0
    6.1426    3.1250    0.0000 H   0  0  0  0  0  0  0  0  0  0  0  0
    5.7441    3.8153    0.0000 H   0  0  0  0  0  0  0  0  0  0  0  0
    3.5880    3.8153    0.0000 H   0  0  0  0  0  0  0  0  0  0  0  0
    3.1894    3.1250    0.0000 H   0  0  0  0  0  0  0  0  0  0  0  0
    4.0555    0.8403    0.0000 H   0  0  0  0  0  0  0  0  0  0  0  0
    4.4540    0.1501    0.0000 H   0  0  0  0  0  0  0  0  0  0  0  0
    6.1426    0.1250    0.0000 H   0  0  0  0  0  0  0  0  0  0  0  0
    5.7441    0.8153    0.0000 H   0  0  0  0  0  0  0  0  0  0  0  0
    4.9215   -0.6597    0.0000 H   0  0  0  0  0  0  0  0  0  0  0  0
    5.3200   -1.3499    0.0000 H   0  0  0  0  0  0  0  0  0  0  0  0
    7.0087   -1.3750    0.0000 H   0  0  0  0  0  0  0  0  0  0  0  0
    6.6101   -0.6847    0.0000 H   0  0  0  0  0  0  0  0  0  0  0  0
    2.9132    4.0780    0.0000 H   0  0  0  0  0  0  0  0  0  0  0  0
    4.6660    7.3527    0.0000 H   0  0  0  0  0  0  0  0  0  0  0  0
    5.8612   -2.5773    0.0000 H   0  0  0  0  0  0  0  0  0  0  0  0
    6.0690    6.5427    0.0000 H   0  0  0  0  0  0  0  0  0  0  0  0
    2.9132    7.3873    0.0000 H   0  0  0  0  0  0  0  0  0  0  0  0
    1.4643    4.8998    0.0000 H   0  0  0  0  0  0  0  0  0  0  0  0
    1.4643    6.5656    0.0000 H   0  0  0  0  0  0  0  0  0  0  0  0
    8.6671   -3.9573    0.0000 H   0  0  0  0  0  0  0  0  0  0  0  0
    5.8612   -3.9573    0.0000 H   0  0  0  0  0  0  0  0  0  0  0  0
    5.8612   -5.5773    0.0000 H   0  0  0  0  0  0  0  0  0  0  0  0
    7.2641   -6.3873    0.0000 H   0  0  0  0  0  0  0  0  0  0  0  0
    8.3762   -6.7673    0.0000 H   0  0  0  0  0  0  0  0  0  0  0  0
    8.9962   -7.3873    0.0000 H   0  0  0  0  0  0  0  0  0  0  0  0
    9.6162   -6.7673    0.0000 H   0  0  0  0  0  0  0  0  0  0  0  0
  1 24  2  0  0  0  0
  2 28  1  0  0  0  0
  2 31  1  0  0  0  0
  3  7  1  0  0  0  0
  3  8  1  0  0  0  0
  3 11  1  0  0  0  0
  4  9  1  0  0  0  0
  4 10  1  0  0  0  0
  4 13  1  0  0  0  0
  5 13  2  0  0  0  0
  5 20  1  0  0  0  0
  6 16  1  0  0  0  0
  6 24  1  0  0  0  0
  6 50  1  0  0  0  0
  7  9  1  0  0  0  0
  7 32  1  0  0  0  0
  7 33  1  0  0  0  0
  8 10  1  0  0  0  0
  8 34  1  0  0  0  0
  8 35  1  0  0  0  0
  9 36  1  0  0  0  0
  9 37  1  0  0  0  0
 10 38  1  0  0  0  0
 10 39  1  0  0  0  0
 11 12  1  0  0  0  0
 11 40  1  0  0  0  0
 11 41  1  0  0  0  0
 12 14  1  0  0  0  0
 12 42  1  0  0  0  0
 12 43  1  0  0  0  0
 13 15  1  0  0  0  0
 14 16  1  0  0  0  0
 14 44  1  0  0  0  0
 14 45  1  0  0  0  0
 15 17  1  0  0  0  0
 15 18  2  0  0  0  0
 16 46  1  0  0  0  0
 16 47  1  0  0  0  0
 17 19  1  0  0  0  0
 17 21  2  0  0  0  0
 18 22  1  0  0  0  0
 18 48  1  0  0  0  0
 19 20  2  0  0  0  0
 19 49  1  0  0  0  0
 20 51  1  0  0  0  0
 21 23  1  0  0  0  0
 21 52  1  0  0  0  0
 22 23  2  0  0  0  0
 22 53  1  0  0  0  0
 23 54  1  0  0  0  0
 24 25  1  0  0  0  0
 25 26  2  0  0  0  0
 25 27  1  0  0  0  0
 26 28  1  0  0  0  0
 26 55  1  0  0  0  0
 27 29  2  0  0  0  0
 27 56  1  0  0  0  0
 28 30  2  0  0  0  0
 29 30  1  0  0  0  0
 29 57  1  0  0  0  0
 30 58  1  0  0  0  0
 31 59  1  0  0  0  0
 31 60  1  0  0  0  0
 31 61  1  0  0  0  0
M  END
> <PUBCHEM_COMPOUND_CID>
11133533

> <PUBCHEM_COMPOUND_CANONICALIZED>
1

> <PUBCHEM_CACTVS_COMPLEXITY>
552

> <PUBCHEM_CACTVS_HBOND_ACCEPTOR>
5

> <PUBCHEM_CACTVS_HBOND_DONOR>
1

> <PUBCHEM_CACTVS_ROTATABLE_BOND>
8

> <PUBCHEM_CACTVS_SUBSKEYS>
AAADceB7sAAAAAAAAAAAAAAAAAAAAAAAAAA8eIEAAAAAAACx9AAAHgAQAAAADATBmgY/ttPIFACoAjN3dACCiCk1IiAJ2KE+bNiMZvLEvZuUMShs1hPI6ae6yJCOgAABAAAQAAAAAAIAACAAAAAAAAAAAA==

> <PUBCHEM_IUPAC_OPENEYE_NAME>
N-[4-[4-(1-isoquinolyl)piperazin-1-yl]butyl]-3-methoxy-benzamide

> <PUBCHEM_IUPAC_CAS_NAME>
N-[4-[4-(1-isoquinolinyl)-1-piperazinyl]butyl]-3-methoxybenzamide

> <PUBCHEM_IUPAC_NAME_MARKUP>
<I>N</I>-[4-(4-isoquinolin-1-ylpiperazin-1-yl)butyl]-3-methoxybenzamide

> <PUBCHEM_IUPAC_NAME>
N-[4-(4-isoquinolin-1-ylpiperazin-1-yl)butyl]-3-methoxybenzamide

> <PUBCHEM_IUPAC_SYSTEMATIC_NAME>
N-[4-(4-isoquinolin-1-ylpiperazin-1-yl)butyl]-3-methoxy-benzamide

> <PUBCHEM_IUPAC_TRADITIONAL_NAME>
N-[4-[4-(1-isoquinolyl)piperazino]butyl]-3-methoxy-benzamide

> <PUBCHEM_IUPAC_INCHI>
InChI=1S/C25H30N4O2/c1-31-22-9-6-8-21(19-22)25(30)27-12-4-5-14-28-15-17-29(18-16-28)24-23-10-3-2-7-20(23)11-13-26-24/h2-3,6-11,13,19H,4-5,12,14-18H2,1H3,(H,27,30)

> <PUBCHEM_IUPAC_INCHIKEY>
MGZOXAOAEVISHM-UHFFFAOYSA-N

> <PUBCHEM_XLOGP3_AA>
4

> <PUBCHEM_EXACT_MASS>
418.23687621

> <PUBCHEM_MOLECULAR_FORMULA>
C25H30N4O2

> <PUBCHEM_MOLECULAR_WEIGHT>
418.5

> <PUBCHEM_OPENEYE_CAN_SMILES>
COC1=CC=CC(=C1)C(=O)NCCCCN2CCN(CC2)C3=NC=CC4=CC=CC=C43

> <PUBCHEM_OPENEYE_ISO_SMILES>
COC1=CC=CC(=C1)C(=O)NCCCCN2CCN(CC2)C3=NC=CC4=CC=CC=C43

> <PUBCHEM_CACTVS_TPSA>
57.7

> <PUBCHEM_MONOISOTOPIC_WEIGHT>
418.23687621

> <PUBCHEM_TOTAL_CHARGE>
0

> <PUBCHEM_HEAVY_ATOM_COUNT>
31

> <PUBCHEM_ATOM_DEF_STEREO_COUNT>
0

> <PUBCHEM_ATOM_UDEF_STEREO_COUNT>
0

> <PUBCHEM_BOND_DEF_STEREO_COUNT>
0

> <PUBCHEM_BOND_UDEF_STEREO_COUNT>
0

> <PUBCHEM_ISOTOPIC_ATOM_COUNT>
0

> <PUBCHEM_COMPONENT_COUNT>
1

> <PUBCHEM_CACTVS_TAUTO_COUNT>
-1

> <PUBCHEM_COORDINATE_TYPE>
1
5
255

> <PUBCHEM_BONDANNOTATIONS>
13  15  8
15  17  8
15  18  8
17  19  8
17  21  8
18  22  8
19  20  8
21  23  8
22  23  8
25  26  8
25  27  8
26  28  8
27  29  8
28  30  8
29  30  8
5  13  8
5  20  8

$$$$
