44436769
  -OEChem-09292322252D

 77 81  0     0  0  0  0  0  0999 V2000
    5.4641   -1.7673    0.0000 O   0  0  0  0  0  0  0  0  0  0  0  0
    4.5981    1.7327    0.0000 O   0  0  0  0  0  0  0  0  0  0  0  0
   12.3923    0.2327    0.0000 O   0  0  0  0  0  0  0  0  0  0  0  0
    7.1962    1.2327    0.0000 N   0  0  0  0  0  0  0  0  0  0  0  0
    4.5981   -0.2673    0.0000 N   0  0  0  0  0  0  0  0  0  0  0  0
   11.5263    1.7327    0.0000 N   0  0  0  0  0  0  0  0  0  0  0  0
    5.4641    0.2327    0.0000 C   0  0  0  0  0  0  0  0  0  0  0  0
    5.4641    1.2327    0.0000 C   0  0  0  0  0  0  0  0  0  0  0  0
    6.3301   -0.2673    0.0000 C   0  0  0  0  0  0  0  0  0  0  0  0
    6.3301    1.7327    0.0000 C   0  0  0  0  0  0  0  0  0  0  0  0
    7.1962    0.2327    0.0000 C   0  0  0  0  0  0  0  0  0  0  0  0
    8.0622    1.7327    0.0000 C   0  0  0  0  0  0  0  0  0  0  0  0
    8.9282    1.2327    0.0000 C   0  0  0  0  0  0  0  0  0  0  0  0
    3.7320    0.2327    0.0000 C   0  0  0  0  0  0  0  0  0  0  0  0
    9.7942    1.7327    0.0000 C   0  0  0  0  0  0  0  0  0  0  0  0
    4.5981   -1.2673    0.0000 C   0  0  0  0  0  0  0  0  0  0  0  0
   10.6603    1.2327    0.0000 C   0  0  0  0  0  0  0  0  0  0  0  0
    3.7320    1.2327    0.0000 C   0  0  0  0  0  0  0  0  0  0  0  0
    2.8660   -0.2673    0.0000 C   0  0  0  0  0  0  0  0  0  0  0  0
    3.7320   -1.7673    0.0000 C   0  0  0  0  0  0  0  0  0  0  0  0
    2.8660    1.7327    0.0000 C   0  0  0  0  0  0  0  0  0  0  0  0
    2.0000    0.2327    0.0000 C   0  0  0  0  0  0  0  0  0  0  0  0
    3.7320   -2.7673    0.0000 C   0  0  0  0  0  0  0  0  0  0  0  0
    2.8660   -1.2673    0.0000 C   0  0  0  0  0  0  0  0  0  0  0  0
    2.0000    1.2327    0.0000 C   0  0  0  0  0  0  0  0  0  0  0  0
   12.3923    1.2327    0.0000 C   0  0  0  0  0  0  0  0  0  0  0  0
    2.8660   -3.2673    0.0000 C   0  0  0  0  0  0  0  0  0  0  0  0
    2.0000   -1.7673    0.0000 C   0  0  0  0  0  0  0  0  0  0  0  0
    4.5981    2.7327    0.0000 C   0  0  0  0  0  0  0  0  0  0  0  0
    2.0000   -2.7673    0.0000 C   0  0  0  0  0  0  0  0  0  0  0  0
   13.2583    1.7327    0.0000 C   0  0  0  0  0  0  0  0  0  0  0  0
   14.1244    1.2327    0.0000 C   0  0  0  0  0  0  0  0  0  0  0  0
   13.2583    2.7327    0.0000 C   0  0  0  0  0  0  0  0  0  0  0  0
   14.9904    1.7327    0.0000 C   0  0  0  0  0  0  0  0  0  0  0  0
   14.9904    2.7327    0.0000 C   0  0  0  0  0  0  0  0  0  0  0  0
   14.1244    3.2327    0.0000 C   0  0  0  0  0  0  0  0  0  0  0  0
   15.8843    1.1980    0.0000 C   0  0  0  0  0  0  0  0  0  0  0  0
   15.8843    3.2673    0.0000 C   0  0  0  0  0  0  0  0  0  0  0  0
   16.7904    1.7118    0.0000 C   0  0  0  0  0  0  0  0  0  0  0  0
   16.7904    2.7535    0.0000 C   0  0  0  0  0  0  0  0  0  0  0  0
    5.4641   -0.3873    0.0000 H   0  0  0  0  0  0  0  0  0  0  0  0
    5.2520    1.8153    0.0000 H   0  0  0  0  0  0  0  0  0  0  0  0
    4.8535    1.1250    0.0000 H   0  0  0  0  0  0  0  0  0  0  0  0
    5.9316   -0.7423    0.0000 H   0  0  0  0  0  0  0  0  0  0  0  0
    6.7287   -0.7423    0.0000 H   0  0  0  0  0  0  0  0  0  0  0  0
    6.7287    2.2076    0.0000 H   0  0  0  0  0  0  0  0  0  0  0  0
    5.9316    2.2076    0.0000 H   0  0  0  0  0  0  0  0  0  0  0  0
    7.4082   -0.3499    0.0000 H   0  0  0  0  0  0  0  0  0  0  0  0
    7.8067    0.3403    0.0000 H   0  0  0  0  0  0  0  0  0  0  0  0
    8.4607    2.2076    0.0000 H   0  0  0  0  0  0  0  0  0  0  0  0
    7.6636    2.2076    0.0000 H   0  0  0  0  0  0  0  0  0  0  0  0
    8.5297    0.7577    0.0000 H   0  0  0  0  0  0  0  0  0  0  0  0
    9.3267    0.7577    0.0000 H   0  0  0  0  0  0  0  0  0  0  0  0
   10.1928    2.2076    0.0000 H   0  0  0  0  0  0  0  0  0  0  0  0
    9.3957    2.2076    0.0000 H   0  0  0  0  0  0  0  0  0  0  0  0
   10.2617    0.7577    0.0000 H   0  0  0  0  0  0  0  0  0  0  0  0
   11.0588    0.7577    0.0000 H   0  0  0  0  0  0  0  0  0  0  0  0
    2.8660   -0.8873    0.0000 H   0  0  0  0  0  0  0  0  0  0  0  0
    2.8660    2.3527    0.0000 H   0  0  0  0  0  0  0  0  0  0  0  0
    1.4631   -0.0773    0.0000 H   0  0  0  0  0  0  0  0  0  0  0  0
   11.5263    2.3527    0.0000 H   0  0  0  0  0  0  0  0  0  0  0  0
    4.2690   -3.0773    0.0000 H   0  0  0  0  0  0  0  0  0  0  0  0
    2.8660   -0.6473    0.0000 H   0  0  0  0  0  0  0  0  0  0  0  0
    1.4631    1.5427    0.0000 H   0  0  0  0  0  0  0  0  0  0  0  0
    2.8660   -3.8873    0.0000 H   0  0  0  0  0  0  0  0  0  0  0  0
    1.4631   -1.4573    0.0000 H   0  0  0  0  0  0  0  0  0  0  0  0
    5.2181    2.7327    0.0000 H   0  0  0  0  0  0  0  0  0  0  0  0
    4.5981    3.3527    0.0000 H   0  0  0  0  0  0  0  0  0  0  0  0
    3.9781    2.7327    0.0000 H   0  0  0  0  0  0  0  0  0  0  0  0
    1.4631   -3.0773    0.0000 H   0  0  0  0  0  0  0  0  0  0  0  0
   14.1244    0.6127    0.0000 H   0  0  0  0  0  0  0  0  0  0  0  0
   12.7214    3.0427    0.0000 H   0  0  0  0  0  0  0  0  0  0  0  0
   14.1244    3.8527    0.0000 H   0  0  0  0  0  0  0  0  0  0  0  0
   15.8772    0.5780    0.0000 H   0  0  0  0  0  0  0  0  0  0  0  0
   15.8772    3.8873    0.0000 H   0  0  0  0  0  0  0  0  0  0  0  0
   17.3261    1.3998    0.0000 H   0  0  0  0  0  0  0  0  0  0  0  0
   17.3261    3.0656    0.0000 H   0  0  0  0  0  0  0  0  0  0  0  0
  1 16  2  0  0  0  0
  2 18  1  0  0  0  0
  2 29  1  0  0  0  0
  3 26  2  0  0  0  0
  4 10  1  0  0  0  0
  4 11  1  0  0  0  0
  4 12  1  0  0  0  0
  5  7  1  0  0  0  0
  5 14  1  0  0  0  0
  5 16  1  0  0  0  0
  6 17  1  0  0  0  0
  6 26  1  0  0  0  0
  6 61  1  0  0  0  0
  7  8  1  0  0  0  0
  7  9  1  0  0  0  0
  7 41  1  0  0  0  0
  8 10  1  0  0  0  0
  8 42  1  0  0  0  0
  8 43  1  0  0  0  0
  9 11  1  0  0  0  0
  9 44  1  0  0  0  0
  9 45  1  0  0  0  0
 10 46  1  0  0  0  0
 10 47  1  0  0  0  0
 11 48  1  0  0  0  0
 11 49  1  0  0  0  0
 12 13  1  0  0  0  0
 12 50  1  0  0  0  0
 12 51  1  0  0  0  0
 13 15  1  0  0  0  0
 13 52  1  0  0  0  0
 13 53  1  0  0  0  0
 14 18  1  0  0  0  0
 14 19  2  0  0  0  0
 15 17  1  0  0  0  0
 15 54  1  0  0  0  0
 15 55  1  0  0  0  0
 16 20  1  0  0  0  0
 17 56  1  0  0  0  0
 17 57  1  0  0  0  0
 18 21  2  0  0  0  0
 19 22  1  0  0  0  0
 19 58  1  0  0  0  0
 20 23  2  0  0  0  0
 20 24  1  0  0  0  0
 21 25  1  0  0  0  0
 21 59  1  0  0  0  0
 22 25  2  0  0  0  0
 22 60  1  0  0  0  0
 23 27  1  0  0  0  0
 23 62  1  0  0  0  0
 24 28  2  0  0  0  0
 24 63  1  0  0  0  0
 25 64  1  0  0  0  0
 26 31  1  0  0  0  0
 27 30  2  0  0  0  0
 27 65  1  0  0  0  0
 28 30  1  0  0  0  0
 28 66  1  0  0  0  0
 29 67  1  0  0  0  0
 29 68  1  0  0  0  0
 29 69  1  0  0  0  0
 30 70  1  0  0  0  0
 31 32  2  0  0  0  0
 31 33  1  0  0  0  0
 32 34  1  0  0  0  0
 32 71  1  0  0  0  0
 33 36  2  0  0  0  0
 33 72  1  0  0  0  0
 34 35  1  0  0  0  0
 34 37  2  0  0  0  0
 35 36  1  0  0  0  0
 35 38  2  0  0  0  0
 36 73  1  0  0  0  0
 37 39  1  0  0  0  0
 37 74  1  0  0  0  0
 38 40  1  0  0  0  0
 38 75  1  0  0  0  0
 39 40  2  0  0  0  0
 39 76  1  0  0  0  0
 40 77  1  0  0  0  0
M  END
> <PUBCHEM_COMPOUND_CID>
44436769

> <PUBCHEM_COMPOUND_CANONICALIZED>
1

> <PUBCHEM_CACTVS_COMPLEXITY>
791

> <PUBCHEM_CACTVS_HBOND_ACCEPTOR>
4

> <PUBCHEM_CACTVS_HBOND_DONOR>
1

> <PUBCHEM_CACTVS_ROTATABLE_BOND>
10

> <PUBCHEM_CACTVS_SUBSKEYS>
AAADcfB/MAAAAAAAAAAAAAAAAAAAAAAAAAA8YMGCAAAAAADBVAAAHgAQAAAADCzBmAYyxsPABACIAiVSUACCCAAlIgAIiIEPbMgOJjLE9ZuFMShk1hHY6YeYyMCOwAACAAAQEACAAAQAACAgAAAAAAAAAA==

> <PUBCHEM_IUPAC_OPENEYE_NAME>
N-[4-[4-(N-benzoyl-2-methoxy-anilino)-1-piperidyl]butyl]naphthalene-2-carboxamide

> <PUBCHEM_IUPAC_CAS_NAME>
N-[4-[4-(N-benzoyl-2-methoxyanilino)-1-piperidinyl]butyl]-2-naphthalenecarboxamide

> <PUBCHEM_IUPAC_NAME_MARKUP>
<I>N</I>-[4-[4-(<I>N</I>-benzoyl-2-methoxyanilino)piperidin-1-yl]butyl]naphthalene-2-carboxamide

> <PUBCHEM_IUPAC_NAME>
N-[4-[4-(N-benzoyl-2-methoxyanilino)piperidin-1-yl]butyl]naphthalene-2-carboxamide

> <PUBCHEM_IUPAC_SYSTEMATIC_NAME>
N-[4-[4-[(2-methoxyphenyl)-(phenylcarbonyl)amino]piperidin-1-yl]butyl]naphthalene-2-carboxamide

> <PUBCHEM_IUPAC_TRADITIONAL_NAME>
N-[4-[4-(N-benzoyl-2-methoxy-anilino)piperidino]butyl]-2-naphthamide

> <PUBCHEM_IUPAC_INCHI>
InChI=1S/C34H37N3O3/c1-40-32-16-8-7-15-31(32)37(34(39)27-12-3-2-4-13-27)30-19-23-36(24-20-30)22-10-9-21-35-33(38)29-18-17-26-11-5-6-14-28(26)25-29/h2-8,11-18,25,30H,9-10,19-24H2,1H3,(H,35,38)

> <PUBCHEM_IUPAC_INCHIKEY>
YJRKUTHRZOUCHT-UHFFFAOYSA-N

> <PUBCHEM_XLOGP3_AA>
6.4

> <PUBCHEM_EXACT_MASS>
535.28349205

> <PUBCHEM_MOLECULAR_FORMULA>
C34H37N3O3

> <PUBCHEM_MOLECULAR_WEIGHT>
535.7

> <PUBCHEM_OPENEYE_CAN_SMILES>
COC1=CC=CC=C1N(C2CCN(CC2)CCCCNC(=O)C3=CC4=CC=CC=C4C=C3)C(=O)C5=CC=CC=C5

> <PUBCHEM_OPENEYE_ISO_SMILES>
COC1=CC=CC=C1N(C2CCN(CC2)CCCCNC(=O)C3=CC4=CC=CC=C4C=C3)C(=O)C5=CC=CC=C5

> <PUBCHEM_CACTVS_TPSA>
61.9

> <PUBCHEM_MONOISOTOPIC_WEIGHT>
535.28349205

> <PUBCHEM_TOTAL_CHARGE>
0

> <PUBCHEM_HEAVY_ATOM_COUNT>
40

> <PUBCHEM_ATOM_DEF_STEREO_COUNT>
0

> <PUBCHEM_ATOM_UDEF_STEREO_COUNT>
0

> <PUBCHEM_BOND_DEF_STEREO_COUNT>
0

> <PUBCHEM_BOND_UDEF_STEREO_COUNT>
0

> <PUBCHEM_ISOTOPIC_ATOM_COUNT>
0

> <PUBCHEM_COMPONENT_COUNT>
1

> <PUBCHEM_CACTVS_TAUTO_COUNT>
-1

> <PUBCHEM_COORDINATE_TYPE>
1
5
255

> <PUBCHEM_BONDANNOTATIONS>
14  18  8
14  19  8
18  21  8
19  22  8
20  23  8
20  24  8
21  25  8
22  25  8
23  27  8
24  28  8
27  30  8
28  30  8
31  32  8
31  33  8
32  34  8
33  36  8
34  35  8
34  37  8
35  36  8
35  38  8
37  39  8
38  40  8
39  40  8

$$$$
