44336175
  -OEChem-09292322152D

 54 57  0     0  0  0  0  0  0999 V2000
   11.1241   -4.2752    0.0000 Cl  0  0  0  0  0  0  0  0  0  0  0  0
    4.3211   -0.1863    0.0000 O   0  0  0  0  0  0  0  0  0  0  0  0
    2.8660    4.3133    0.0000 O   0  0  0  0  0  0  0  0  0  0  0  0
    6.2781   -0.5987    0.0000 N   0  0  0  0  0  0  0  0  0  0  0  0
    6.8994   -2.4998    0.0000 N   0  0  0  0  0  0  0  0  0  0  0  0
    4.6783    1.5085    0.0000 N   0  0  0  0  0  0  0  0  0  0  0  0
    7.2566   -0.8050    0.0000 C   0  0  0  0  0  0  0  0  0  0  0  0
    5.6103   -1.3430    0.0000 C   0  0  0  0  0  0  0  0  0  0  0  0
    7.5673   -1.7555    0.0000 C   0  0  0  0  0  0  0  0  0  0  0  0
    5.9209   -2.2936    0.0000 C   0  0  0  0  0  0  0  0  0  0  0  0
    5.9674    0.3518    0.0000 C   0  0  0  0  0  0  0  0  0  0  0  0
    5.2619    2.3133    0.0000 C   0  0  0  0  0  0  0  0  0  0  0  0
    7.2101   -3.4503    0.0000 C   0  0  0  0  0  0  0  0  0  0  0  0
    4.9889    0.5580    0.0000 C   0  0  0  0  0  0  0  0  0  0  0  0
    4.6783    3.1180    0.0000 C   0  0  0  0  0  0  0  0  0  0  0  0
    3.7320    1.8133    0.0000 C   0  0  0  0  0  0  0  0  0  0  0  0
    3.7320    2.8133    0.0000 C   0  0  0  0  0  0  0  0  0  0  0  0
    8.1886   -3.6565    0.0000 C   0  0  0  0  0  0  0  0  0  0  0  0
    2.8660    3.3133    0.0000 C   0  0  0  0  0  0  0  0  0  0  0  0
    2.8660    1.3133    0.0000 C   0  0  0  0  0  0  0  0  0  0  0  0
    2.0000    2.8133    0.0000 C   0  0  0  0  0  0  0  0  0  0  0  0
    2.0000    1.8133    0.0000 C   0  0  0  0  0  0  0  0  0  0  0  0
    8.4993   -4.6070    0.0000 C   0  0  0  0  0  0  0  0  0  0  0  0
    8.8564   -2.9122    0.0000 C   0  0  0  0  0  0  0  0  0  0  0  0
    9.4778   -4.8133    0.0000 C   0  0  0  0  0  0  0  0  0  0  0  0
    9.8349   -3.1184    0.0000 C   0  0  0  0  0  0  0  0  0  0  0  0
   10.1456   -4.0690    0.0000 C   0  0  0  0  0  0  0  0  0  0  0  0
    2.0000    4.8133    0.0000 C   0  0  0  0  0  0  0  0  0  0  0  0
    7.8704   -0.7176    0.0000 H   0  0  0  0  0  0  0  0  0  0  0  0
    7.2772   -0.1853    0.0000 H   0  0  0  0  0  0  0  0  0  0  0  0
    5.2277   -0.8551    0.0000 H   0  0  0  0  0  0  0  0  0  0  0  0
    5.0633   -1.6351    0.0000 H   0  0  0  0  0  0  0  0  0  0  0  0
    7.9498   -2.2434    0.0000 H   0  0  0  0  0  0  0  0  0  0  0  0
    8.1142   -1.4635    0.0000 H   0  0  0  0  0  0  0  0  0  0  0  0
    5.3071   -2.3809    0.0000 H   0  0  0  0  0  0  0  0  0  0  0  0
    5.9004   -2.9132    0.0000 H   0  0  0  0  0  0  0  0  0  0  0  0
    6.5812    0.4391    0.0000 H   0  0  0  0  0  0  0  0  0  0  0  0
    5.9880    0.9714    0.0000 H   0  0  0  0  0  0  0  0  0  0  0  0
    5.7227    1.8985    0.0000 H   0  0  0  0  0  0  0  0  0  0  0  0
    5.7227    2.7280    0.0000 H   0  0  0  0  0  0  0  0  0  0  0  0
    6.5963   -3.5376    0.0000 H   0  0  0  0  0  0  0  0  0  0  0  0
    7.1895   -4.0700    0.0000 H   0  0  0  0  0  0  0  0  0  0  0  0
    5.2156    3.4272    0.0000 H   0  0  0  0  0  0  0  0  0  0  0  0
    4.4272    3.6849    0.0000 H   0  0  0  0  0  0  0  0  0  0  0  0
    2.8660    0.6933    0.0000 H   0  0  0  0  0  0  0  0  0  0  0  0
    1.4631    3.1233    0.0000 H   0  0  0  0  0  0  0  0  0  0  0  0
    1.4631    1.5033    0.0000 H   0  0  0  0  0  0  0  0  0  0  0  0
    8.0852   -5.0685    0.0000 H   0  0  0  0  0  0  0  0  0  0  0  0
    8.6638   -2.3229    0.0000 H   0  0  0  0  0  0  0  0  0  0  0  0
    9.6704   -5.4026    0.0000 H   0  0  0  0  0  0  0  0  0  0  0  0
   10.2490   -2.6570    0.0000 H   0  0  0  0  0  0  0  0  0  0  0  0
    2.3100    5.3502    0.0000 H   0  0  0  0  0  0  0  0  0  0  0  0
    1.4631    5.1233    0.0000 H   0  0  0  0  0  0  0  0  0  0  0  0
    1.6900    4.2763    0.0000 H   0  0  0  0  0  0  0  0  0  0  0  0
  1 27  1  0  0  0  0
  2 14  2  0  0  0  0
  3 19  1  0  0  0  0
  3 28  1  0  0  0  0
  4  7  1  0  0  0  0
  4  8  1  0  0  0  0
  4 11  1  0  0  0  0
  5  9  1  0  0  0  0
  5 10  1  0  0  0  0
  5 13  1  0  0  0  0
  6 12  1  0  0  0  0
  6 14  1  0  0  0  0
  6 16  1  0  0  0  0
  7  9  1  0  0  0  0
  7 29  1  0  0  0  0
  7 30  1  0  0  0  0
  8 10  1  0  0  0  0
  8 31  1  0  0  0  0
  8 32  1  0  0  0  0
  9 33  1  0  0  0  0
  9 34  1  0  0  0  0
 10 35  1  0  0  0  0
 10 36  1  0  0  0  0
 11 14  1  0  0  0  0
 11 37  1  0  0  0  0
 11 38  1  0  0  0  0
 12 15  1  0  0  0  0
 12 39  1  0  0  0  0
 12 40  1  0  0  0  0
 13 18  1  0  0  0  0
 13 41  1  0  0  0  0
 13 42  1  0  0  0  0
 15 17  1  0  0  0  0
 15 43  1  0  0  0  0
 15 44  1  0  0  0  0
 16 17  2  0  0  0  0
 16 20  1  0  0  0  0
 17 19  1  0  0  0  0
 18 23  2  0  0  0  0
 18 24  1  0  0  0  0
 19 21  2  0  0  0  0
 20 22  2  0  0  0  0
 20 45  1  0  0  0  0
 21 22  1  0  0  0  0
 21 46  1  0  0  0  0
 22 47  1  0  0  0  0
 23 25  1  0  0  0  0
 23 48  1  0  0  0  0
 24 26  2  0  0  0  0
 24 49  1  0  0  0  0
 25 27  2  0  0  0  0
 25 50  1  0  0  0  0
 26 27  1  0  0  0  0
 26 51  1  0  0  0  0
 28 52  1  0  0  0  0
 28 53  1  0  0  0  0
 28 54  1  0  0  0  0
M  END
> <PUBCHEM_COMPOUND_CID>
44336175

> <PUBCHEM_COMPOUND_CANONICALIZED>
1

> <PUBCHEM_CACTVS_COMPLEXITY>
518

> <PUBCHEM_CACTVS_HBOND_ACCEPTOR>
4

> <PUBCHEM_CACTVS_HBOND_DONOR>
0

> <PUBCHEM_CACTVS_ROTATABLE_BOND>
5

> <PUBCHEM_CACTVS_SUBSKEYS>
AAADceB7MAAEAAAAAAAAAAAAAAAAAWAAAAA8YIAAAAAAAFgBQAAAHgIAAAAADA7BmCYyxoMABACIAiVSUACCCAAhJwAIiACObogMZiLFs7uUMChmxhnI6Aew0KMOBAAAAgAKAAAIAAAEABQAAAAAAAAAAA==

> <PUBCHEM_IUPAC_OPENEYE_NAME>
2-[4-[(4-chlorophenyl)methyl]piperazin-1-yl]-1-(4-methoxyindolin-1-yl)ethanone

> <PUBCHEM_IUPAC_CAS_NAME>
2-[4-[(4-chlorophenyl)methyl]-1-piperazinyl]-1-(4-methoxy-2,3-dihydroindol-1-yl)ethanone

> <PUBCHEM_IUPAC_NAME_MARKUP>
2-[4-[(4-chlorophenyl)methyl]piperazin-1-yl]-1-(4-methoxy-2,3-dihydroindol-1-yl)ethanone

> <PUBCHEM_IUPAC_NAME>
2-[4-[(4-chlorophenyl)methyl]piperazin-1-yl]-1-(4-methoxy-2,3-dihydroindol-1-yl)ethanone

> <PUBCHEM_IUPAC_SYSTEMATIC_NAME>
2-[4-[(4-chlorophenyl)methyl]piperazin-1-yl]-1-(4-methoxy-2,3-dihydroindol-1-yl)ethanone

> <PUBCHEM_IUPAC_TRADITIONAL_NAME>
2-[4-(4-chlorobenzyl)piperazino]-1-(4-methoxyindolin-1-yl)ethanone

> <PUBCHEM_IUPAC_INCHI>
InChI=1S/C22H26ClN3O2/c1-28-21-4-2-3-20-19(21)9-10-26(20)22(27)16-25-13-11-24(12-14-25)15-17-5-7-18(23)8-6-17/h2-8H,9-16H2,1H3

> <PUBCHEM_IUPAC_INCHIKEY>
GLQGPKHLGDLFOL-UHFFFAOYSA-N

> <PUBCHEM_XLOGP3_AA>
3.3

> <PUBCHEM_EXACT_MASS>
399.1713548

> <PUBCHEM_MOLECULAR_FORMULA>
C22H26ClN3O2

> <PUBCHEM_MOLECULAR_WEIGHT>
399.9

> <PUBCHEM_OPENEYE_CAN_SMILES>
COC1=CC=CC2=C1CCN2C(=O)CN3CCN(CC3)CC4=CC=C(C=C4)Cl

> <PUBCHEM_OPENEYE_ISO_SMILES>
COC1=CC=CC2=C1CCN2C(=O)CN3CCN(CC3)CC4=CC=C(C=C4)Cl

> <PUBCHEM_CACTVS_TPSA>
36

> <PUBCHEM_MONOISOTOPIC_WEIGHT>
399.1713548

> <PUBCHEM_TOTAL_CHARGE>
0

> <PUBCHEM_HEAVY_ATOM_COUNT>
28

> <PUBCHEM_ATOM_DEF_STEREO_COUNT>
0

> <PUBCHEM_ATOM_UDEF_STEREO_COUNT>
0

> <PUBCHEM_BOND_DEF_STEREO_COUNT>
0

> <PUBCHEM_BOND_UDEF_STEREO_COUNT>
0

> <PUBCHEM_ISOTOPIC_ATOM_COUNT>
0

> <PUBCHEM_COMPONENT_COUNT>
1

> <PUBCHEM_CACTVS_TAUTO_COUNT>
-1

> <PUBCHEM_COORDINATE_TYPE>
1
5
255

> <PUBCHEM_BONDANNOTATIONS>
16  17  8
16  20  8
17  19  8
18  23  8
18  24  8
19  21  8
20  22  8
21  22  8
23  25  8
24  26  8
25  27  8
26  27  8

$$$$
