168283609
  -OEChem-09292322442D

 57 60  0     0  0  0  0  0  0999 V2000
   13.0811    2.9779    0.0000 O   0  0  0  0  0  0  0  0  0  0  0  0
    4.6783   -4.8277    0.0000 N   0  0  0  0  0  0  0  0  0  0  0  0
    6.2781   -1.1110    0.0000 N   0  0  0  0  0  0  0  0  0  0  0  0
   11.1241    2.5655    0.0000 N   0  0  0  0  0  0  0  0  0  0  0  0
    8.8564    1.2025    0.0000 N   0  0  0  0  0  0  0  0  0  0  0  0
    7.5673    0.0458    0.0000 N   0  0  0  0  0  0  0  0  0  0  0  0
    7.9244   -1.6491    0.0000 N   0  0  0  0  0  0  0  0  0  0  0  0
    9.2136   -0.4923    0.0000 N   0  0  0  0  0  0  0  0  0  0  0  0
    9.5708   -2.1871    0.0000 N   0  0  0  0  0  0  0  0  0  0  0  0
    4.6783   -3.2182    0.0000 C   0  0  0  0  0  0  0  0  0  0  0  0
    4.9889   -2.2677    0.0000 C   0  0  0  0  0  0  0  0  0  0  0  0
    3.7320   -3.5230    0.0000 C   0  0  0  0  0  0  0  0  0  0  0  0
    3.7320   -4.5230    0.0000 C   0  0  0  0  0  0  0  0  0  0  0  0
    5.9674   -2.0615    0.0000 C   0  0  0  0  0  0  0  0  0  0  0  0
    5.2619   -4.0230    0.0000 C   0  0  0  0  0  0  0  0  0  0  0  0
    2.8660   -3.0230    0.0000 C   0  0  0  0  0  0  0  0  0  0  0  0
    2.8660   -5.0230    0.0000 C   0  0  0  0  0  0  0  0  0  0  0  0
    2.0000   -3.5230    0.0000 C   0  0  0  0  0  0  0  0  0  0  0  0
    2.0000   -4.5230    0.0000 C   0  0  0  0  0  0  0  0  0  0  0  0
   10.1456    2.3592    0.0000 C   0  0  0  0  0  0  0  0  0  0  0  0
    9.8349    1.4087    0.0000 C   0  0  0  0  0  0  0  0  0  0  0  0
    7.2566   -0.9048    0.0000 C   0  0  0  0  0  0  0  0  0  0  0  0
   11.4348    3.5160    0.0000 C   0  0  0  0  0  0  0  0  0  0  0  0
    8.5458    0.2520    0.0000 C   0  0  0  0  0  0  0  0  0  0  0  0
   12.4133    3.7222    0.0000 C   0  0  0  0  0  0  0  0  0  0  0  0
   10.7669    4.2603    0.0000 C   0  0  0  0  0  0  0  0  0  0  0  0
    8.9030   -1.4428    0.0000 C   0  0  0  0  0  0  0  0  0  0  0  0
   12.7239    4.6727    0.0000 C   0  0  0  0  0  0  0  0  0  0  0  0
   11.0776    5.2108    0.0000 C   0  0  0  0  0  0  0  0  0  0  0  0
   12.0561    5.4170    0.0000 C   0  0  0  0  0  0  0  0  0  0  0  0
   14.0596    3.1841    0.0000 C   0  0  0  0  0  0  0  0  0  0  0  0
    4.9684   -1.6481    0.0000 H   0  0  0  0  0  0  0  0  0  0  0  0
    4.3751   -2.1804    0.0000 H   0  0  0  0  0  0  0  0  0  0  0  0
    5.9880   -2.6812    0.0000 H   0  0  0  0  0  0  0  0  0  0  0  0
    6.5812   -2.1488    0.0000 H   0  0  0  0  0  0  0  0  0  0  0  0
    5.8819   -4.0230    0.0000 H   0  0  0  0  0  0  0  0  0  0  0  0
    4.8709   -5.4170    0.0000 H   0  0  0  0  0  0  0  0  0  0  0  0
    2.8660   -2.4030    0.0000 H   0  0  0  0  0  0  0  0  0  0  0  0
    2.8660   -5.6430    0.0000 H   0  0  0  0  0  0  0  0  0  0  0  0
    5.8640   -0.6495    0.0000 H   0  0  0  0  0  0  0  0  0  0  0  0
    1.4631   -3.2130    0.0000 H   0  0  0  0  0  0  0  0  0  0  0  0
    1.4631   -4.8330    0.0000 H   0  0  0  0  0  0  0  0  0  0  0  0
   10.1250    2.9789    0.0000 H   0  0  0  0  0  0  0  0  0  0  0  0
    9.5318    2.4466    0.0000 H   0  0  0  0  0  0  0  0  0  0  0  0
    9.8555    0.7891    0.0000 H   0  0  0  0  0  0  0  0  0  0  0  0
   10.4488    1.3214    0.0000 H   0  0  0  0  0  0  0  0  0  0  0  0
   11.5382    2.1040    0.0000 H   0  0  0  0  0  0  0  0  0  0  0  0
    8.4424    1.6640    0.0000 H   0  0  0  0  0  0  0  0  0  0  0  0
   10.1603    4.1324    0.0000 H   0  0  0  0  0  0  0  0  0  0  0  0
   13.3306    4.8006    0.0000 H   0  0  0  0  0  0  0  0  0  0  0  0
   10.6635    5.6723    0.0000 H   0  0  0  0  0  0  0  0  0  0  0  0
   12.2487    6.0063    0.0000 H   0  0  0  0  0  0  0  0  0  0  0  0
   10.1775   -2.0593    0.0000 H   0  0  0  0  0  0  0  0  0  0  0  0
    9.3782   -2.7765    0.0000 H   0  0  0  0  0  0  0  0  0  0  0  0
   14.1875    2.5774    0.0000 H   0  0  0  0  0  0  0  0  0  0  0  0
   14.6663    3.3120    0.0000 H   0  0  0  0  0  0  0  0  0  0  0  0
   13.9318    3.7908    0.0000 H   0  0  0  0  0  0  0  0  0  0  0  0
  1 25  1  0  0  0  0
  1 31  1  0  0  0  0
  2 13  1  0  0  0  0
  2 15  1  0  0  0  0
  2 37  1  0  0  0  0
  3 14  1  0  0  0  0
  3 22  1  0  0  0  0
  3 40  1  0  0  0  0
  4 20  1  0  0  0  0
  4 23  1  0  0  0  0
  4 47  1  0  0  0  0
  5 21  1  0  0  0  0
  5 24  1  0  0  0  0
  5 48  1  0  0  0  0
  6 22  2  0  0  0  0
  6 24  1  0  0  0  0
  7 22  1  0  0  0  0
  7 27  2  0  0  0  0
  8 24  2  0  0  0  0
  8 27  1  0  0  0  0
  9 27  1  0  0  0  0
  9 53  1  0  0  0  0
  9 54  1  0  0  0  0
 10 11  1  0  0  0  0
 10 12  1  0  0  0  0
 10 15  2  0  0  0  0
 11 14  1  0  0  0  0
 11 32  1  0  0  0  0
 11 33  1  0  0  0  0
 12 13  1  0  0  0  0
 12 16  2  0  0  0  0
 13 17  2  0  0  0  0
 14 34  1  0  0  0  0
 14 35  1  0  0  0  0
 15 36  1  0  0  0  0
 16 18  1  0  0  0  0
 16 38  1  0  0  0  0
 17 19  1  0  0  0  0
 17 39  1  0  0  0  0
 18 19  2  0  0  0  0
 18 41  1  0  0  0  0
 19 42  1  0  0  0  0
 20 21  1  0  0  0  0
 20 43  1  0  0  0  0
 20 44  1  0  0  0  0
 21 45  1  0  0  0  0
 21 46  1  0  0  0  0
 23 25  1  0  0  0  0
 23 26  2  0  0  0  0
 25 28  2  0  0  0  0
 26 29  1  0  0  0  0
 26 49  1  0  0  0  0
 28 30  1  0  0  0  0
 28 50  1  0  0  0  0
 29 30  2  0  0  0  0
 29 51  1  0  0  0  0
 30 52  1  0  0  0  0
 31 55  1  0  0  0  0
 31 56  1  0  0  0  0
 31 57  1  0  0  0  0
M  END
> <PUBCHEM_COMPOUND_CID>
168283609

> <PUBCHEM_COMPOUND_CANONICALIZED>
1

> <PUBCHEM_CACTVS_COMPLEXITY>
526

> <PUBCHEM_CACTVS_HBOND_ACCEPTOR>
8

> <PUBCHEM_CACTVS_HBOND_DONOR>
5

> <PUBCHEM_CACTVS_ROTATABLE_BOND>
10

> <PUBCHEM_CACTVS_SUBSKEYS>
AAADceB74AAAAAAAAAAAAAAAAAAAAWAAAAA8YIAAAAAAAFgB/AAAHgAQAAAADAzBngY/1vbJlACgAzRnZACCiCkxIqAJ2aA/bJiObuLEuZuVMChs0BPY6AeQwMAOgAAAAAACEAAAAAAAAAQgAAAAAAAAAA==

> <PUBCHEM_IUPAC_OPENEYE_NAME>
N4-[2-(1H-indol-3-yl)ethyl]-N2-[2-(2-methoxyanilino)ethyl]-1,3,5-triazine-2,4,6-triamine

> <PUBCHEM_IUPAC_CAS_NAME>
N4-[2-(1H-indol-3-yl)ethyl]-N2-[2-(2-methoxyanilino)ethyl]-1,3,5-triazine-2,4,6-triamine

> <PUBCHEM_IUPAC_NAME_MARKUP>
4-<I>N</I>-[2-(1<I>H</I>-indol-3-yl)ethyl]-2-<I>N</I>-[2-(2-methoxyanilino)ethyl]-1,3,5-triazine-2,4,6-triamine

> <PUBCHEM_IUPAC_NAME>
4-N-[2-(1H-indol-3-yl)ethyl]-2-N-[2-(2-methoxyanilino)ethyl]-1,3,5-triazine-2,4,6-triamine

> <PUBCHEM_IUPAC_SYSTEMATIC_NAME>
N4-[2-(1H-indol-3-yl)ethyl]-N2-[2-[(2-methoxyphenyl)amino]ethyl]-1,3,5-triazine-2,4,6-triamine

> <PUBCHEM_IUPAC_TRADITIONAL_NAME>
[4-amino-6-[2-(1H-indol-3-yl)ethylamino]-s-triazin-2-yl]-[2-(o-anisidino)ethyl]amine

> <PUBCHEM_IUPAC_INCHI>
InChI=1S/C22H26N8O/c1-31-19-9-5-4-8-18(19)24-12-13-26-22-29-20(23)28-21(30-22)25-11-10-15-14-27-17-7-3-2-6-16(15)17/h2-9,14,24,27H,10-13H2,1H3,(H4,23,25,26,28,29,30)

> <PUBCHEM_IUPAC_INCHIKEY>
CSDBSZTUUSMSCP-UHFFFAOYSA-N

> <PUBCHEM_XLOGP3_AA>
4

> <PUBCHEM_EXACT_MASS>
418.22295748

> <PUBCHEM_MOLECULAR_FORMULA>
C22H26N8O

> <PUBCHEM_MOLECULAR_WEIGHT>
418.5

> <PUBCHEM_OPENEYE_CAN_SMILES>
COC1=CC=CC=C1NCCNC2=NC(=NC(=N2)NCCC3=CNC4=CC=CC=C43)N

> <PUBCHEM_OPENEYE_ISO_SMILES>
COC1=CC=CC=C1NCCNC2=NC(=NC(=N2)NCCC3=CNC4=CC=CC=C43)N

> <PUBCHEM_CACTVS_TPSA>
126

> <PUBCHEM_MONOISOTOPIC_WEIGHT>
418.22295748

> <PUBCHEM_TOTAL_CHARGE>
0

> <PUBCHEM_HEAVY_ATOM_COUNT>
31

> <PUBCHEM_ATOM_DEF_STEREO_COUNT>
0

> <PUBCHEM_ATOM_UDEF_STEREO_COUNT>
0

> <PUBCHEM_BOND_DEF_STEREO_COUNT>
0

> <PUBCHEM_BOND_UDEF_STEREO_COUNT>
0

> <PUBCHEM_ISOTOPIC_ATOM_COUNT>
0

> <PUBCHEM_COMPONENT_COUNT>
1

> <PUBCHEM_CACTVS_TAUTO_COUNT>
-1

> <PUBCHEM_COORDINATE_TYPE>
1
5
255

> <PUBCHEM_BONDANNOTATIONS>
10  12  8
10  15  8
12  13  8
12  16  8
13  17  8
16  18  8
17  19  8
18  19  8
2  13  8
2  15  8
23  25  8
23  26  8
25  28  8
26  29  8
28  30  8
29  30  8
6  22  8
6  24  8
7  22  8
7  27  8
8  24  8
8  27  8

$$$$
