137657427
  -OEChem-09292322002D

 67 71  0     1  0  0  0  0  0999 V2000
    4.2693    2.8044    0.0000 O   0  0  0  0  0  0  0  0  0  0  0  0
    3.5943   -7.7416    0.0000 O   0  0  0  0  0  0  0  0  0  0  0  0
    7.1244   -6.7658    0.0000 O   0  0  0  0  0  0  0  0  0  0  0  0
    3.8722    8.0516    0.0000 O   0  0  0  0  0  0  0  0  0  0  0  0
    4.0943   -1.5510    0.0000 N   0  0  3  0  0  0  0  0  0  0  0  0
    3.5943   -3.7416    0.0000 N   0  0  3  0  0  0  0  0  0  0  0  0
    5.3543   -6.7763    0.0000 N   0  0  0  0  0  0  0  0  0  0  0  0
    3.9950    6.3239    0.0000 N   0  0  0  0  0  0  0  0  0  0  0  0
    3.0943   -1.5510    0.0000 C   0  0  0  0  0  0  0  0  0  0  0  0
    4.7178   -2.3328    0.0000 C   0  0  0  0  0  0  0  0  0  0  0  0
    2.4708   -2.3328    0.0000 C   0  0  0  0  0  0  0  0  0  0  0  0
    4.4953   -3.3077    0.0000 C   0  0  0  0  0  0  0  0  0  0  0  0
    2.6933   -3.3077    0.0000 C   0  0  0  0  0  0  0  0  0  0  0  0
    4.5282   -0.6500    0.0000 C   0  0  0  0  0  0  0  0  0  0  0  0
    3.9648    0.1762    0.0000 C   0  0  0  0  0  0  0  0  0  0  0  0
    3.5943   -4.7416    0.0000 C   0  0  0  0  0  0  0  0  0  0  0  0
    4.3987    1.0772    0.0000 C   0  0  0  0  0  0  0  0  0  0  0  0
    4.4603   -5.2416    0.0000 C   0  0  0  0  0  0  0  0  0  0  0  0
    2.7283   -5.2416    0.0000 C   0  0  0  0  0  0  0  0  0  0  0  0
    3.8354    1.9034    0.0000 C   0  0  0  0  0  0  0  0  0  0  0  0
    4.4603   -6.2416    0.0000 C   0  0  0  0  0  0  0  0  0  0  0  0
    2.7283   -6.2416    0.0000 C   0  0  0  0  0  0  0  0  0  0  0  0
    5.3543   -4.7070    0.0000 C   0  0  0  0  0  0  0  0  0  0  0  0
    3.5943   -6.7416    0.0000 C   0  0  0  0  0  0  0  0  0  0  0  0
    6.2603   -5.2208    0.0000 C   0  0  0  0  0  0  0  0  0  0  0  0
    2.5601    5.3538    0.0000 C   0  0  0  0  0  0  0  0  0  0  0  0
    3.7060    3.6306    0.0000 C   0  0  0  0  0  0  0  0  0  0  0  0
    2.0000    6.1822    0.0000 C   0  0  0  0  0  0  0  0  0  0  0  0
    3.5576    5.4246    0.0000 C   0  0  0  0  0  0  0  0  0  0  0  0
    6.2603   -6.2624    0.0000 C   0  0  0  0  0  0  0  0  0  0  0  0
    2.4374    7.0814    0.0000 C   0  0  0  0  0  0  0  0  0  0  0  0
    4.1543    4.5708    0.0000 C   0  0  0  0  0  0  0  0  0  0  0  0
    2.0902    4.4242    0.0000 C   0  0  0  0  0  0  0  0  0  0  0  0
    2.6670    3.5568    0.0000 C   0  0  0  0  0  0  0  0  0  0  0  0
    3.4348    7.1523    0.0000 C   0  0  0  0  0  0  0  0  0  0  0  0
    3.2322   -0.9465    0.0000 H   0  0  0  0  0  0  0  0  0  0  0  0
    2.5357   -1.2820    0.0000 H   0  0  0  0  0  0  0  0  0  0  0  0
    5.2764   -2.6018    0.0000 H   0  0  0  0  0  0  0  0  0  0  0  0
    5.1043   -1.8481    0.0000 H   0  0  0  0  0  0  0  0  0  0  0  0
    2.0842   -1.8481    0.0000 H   0  0  0  0  0  0  0  0  0  0  0  0
    1.9122   -2.6018    0.0000 H   0  0  0  0  0  0  0  0  0  0  0  0
    4.6332   -3.9122    0.0000 H   0  0  0  0  0  0  0  0  0  0  0  0
    5.1152   -3.3077    0.0000 H   0  0  0  0  0  0  0  0  0  0  0  0
    2.0733   -3.3077    0.0000 H   0  0  0  0  0  0  0  0  0  0  0  0
    2.5553   -3.9122    0.0000 H   0  0  0  0  0  0  0  0  0  0  0  0
    5.0316   -1.0119    0.0000 H   0  0  0  0  0  0  0  0  0  0  0  0
    4.9720   -0.2171    0.0000 H   0  0  0  0  0  0  0  0  0  0  0  0
    3.4614    0.5381    0.0000 H   0  0  0  0  0  0  0  0  0  0  0  0
    3.5210   -0.2567    0.0000 H   0  0  0  0  0  0  0  0  0  0  0  0
    4.9021    0.7153    0.0000 H   0  0  0  0  0  0  0  0  0  0  0  0
    4.8426    1.5101    0.0000 H   0  0  0  0  0  0  0  0  0  0  0  0
    2.1913   -4.9316    0.0000 H   0  0  0  0  0  0  0  0  0  0  0  0
    3.3320    2.2654    0.0000 H   0  0  0  0  0  0  0  0  0  0  0  0
    3.3916    1.4705    0.0000 H   0  0  0  0  0  0  0  0  0  0  0  0
    2.1913   -6.5516    0.0000 H   0  0  0  0  0  0  0  0  0  0  0  0
    5.3471   -4.0870    0.0000 H   0  0  0  0  0  0  0  0  0  0  0  0
    5.3471   -7.3962    0.0000 H   0  0  0  0  0  0  0  0  0  0  0  0
    6.7960   -4.9087    0.0000 H   0  0  0  0  0  0  0  0  0  0  0  0
    1.4980    6.5460    0.0000 H   0  0  0  0  0  0  0  0  0  0  0  0
    1.5545    5.7510    0.0000 H   0  0  0  0  0  0  0  0  0  0  0  0
    2.5015    7.6981    0.0000 H   0  0  0  0  0  0  0  0  0  0  0  0
    1.8412    7.2517    0.0000 H   0  0  0  0  0  0  0  0  0  0  0  0
    4.7722    4.6220    0.0000 H   0  0  0  0  0  0  0  0  0  0  0  0
    1.4713    4.3874    0.0000 H   0  0  0  0  0  0  0  0  0  0  0  0
    2.3937    3.0003    0.0000 H   0  0  0  0  0  0  0  0  0  0  0  0
    4.6134    6.3679    0.0000 H   0  0  0  0  0  0  0  0  0  0  0  0
    3.0574   -8.0516    0.0000 H   0  0  0  0  0  0  0  0  0  0  0  0
  1 20  1  0  0  0  0
  1 27  1  0  0  0  0
  2 24  1  0  0  0  0
  2 67  1  0  0  0  0
  3 30  2  0  0  0  0
  4 35  2  0  0  0  0
  5  9  1  0  0  0  0
  5 10  1  0  0  0  0
  5 14  1  0  0  0  0
  6 12  1  0  0  0  0
  6 13  1  0  0  0  0
  6 16  1  0  0  0  0
  7 21  1  0  0  0  0
  7 30  1  0  0  0  0
  7 57  1  0  0  0  0
  8 29  1  0  0  0  0
  8 35  1  0  0  0  0
  8 66  1  0  0  0  0
  9 11  1  0  0  0  0
  9 36  1  0  0  0  0
  9 37  1  0  0  0  0
 10 12  1  0  0  0  0
 10 38  1  0  0  0  0
 10 39  1  0  0  0  0
 11 13  1  0  0  0  0
 11 40  1  0  0  0  0
 11 41  1  0  0  0  0
 12 42  1  0  0  0  0
 12 43  1  0  0  0  0
 13 44  1  0  0  0  0
 13 45  1  0  0  0  0
 14 15  1  0  0  0  0
 14 46  1  0  0  0  0
 14 47  1  0  0  0  0
 15 17  1  0  0  0  0
 15 48  1  0  0  0  0
 15 49  1  0  0  0  0
 16 18  2  0  0  0  0
 16 19  1  0  0  0  0
 17 20  1  0  0  0  0
 17 50  1  0  0  0  0
 17 51  1  0  0  0  0
 18 21  1  0  0  0  0
 18 23  1  0  0  0  0
 19 22  2  0  0  0  0
 19 52  1  0  0  0  0
 20 53  1  0  0  0  0
 20 54  1  0  0  0  0
 21 24  2  0  0  0  0
 22 24  1  0  0  0  0
 22 55  1  0  0  0  0
 23 25  2  0  0  0  0
 23 56  1  0  0  0  0
 25 30  1  0  0  0  0
 25 58  1  0  0  0  0
 26 28  1  0  0  0  0
 26 29  2  0  0  0  0
 26 33  1  0  0  0  0
 27 32  2  0  0  0  0
 27 34  1  0  0  0  0
 28 31  1  0  0  0  0
 28 59  1  0  0  0  0
 28 60  1  0  0  0  0
 29 32  1  0  0  0  0
 31 35  1  0  0  0  0
 31 61  1  0  0  0  0
 31 62  1  0  0  0  0
 32 63  1  0  0  0  0
 33 34  2  0  0  0  0
 33 64  1  0  0  0  0
 34 65  1  0  0  0  0
M  END
> <PUBCHEM_COMPOUND_CID>
137657427

> <PUBCHEM_COMPOUND_CANONICALIZED>
1

> <PUBCHEM_CACTVS_COMPLEXITY>
776

> <PUBCHEM_CACTVS_HBOND_ACCEPTOR>
6

> <PUBCHEM_CACTVS_HBOND_DONOR>
3

> <PUBCHEM_CACTVS_ROTATABLE_BOND>
7

> <PUBCHEM_CACTVS_SUBSKEYS>
AAADcfB7uAAAAAAAAAAAAAAAAAAAAAAAAAA8YIEABYAAAACxQAAAHgAQCAAADAzhmAYwxoPABgCIAiVSUACCCAAhIgAIiAEPbMgOZjLW8duWeCjm1BnY+Ye42bOeIEABAgQCEABAgAIECAQgAAAAAAAAAA==

> <PUBCHEM_IUPAC_OPENEYE_NAME>
8-hydroxy-5-[4-[4-[(2-oxo-3,4-dihydro-1H-quinolin-7-yl)oxy]butyl]-1,4-diazepan-1-yl]-1H-quinolin-2-one

> <PUBCHEM_IUPAC_CAS_NAME>
8-hydroxy-5-[4-[4-[(2-oxo-3,4-dihydro-1H-quinolin-7-yl)oxy]butyl]-1,4-diazepan-1-yl]-1H-quinolin-2-one

> <PUBCHEM_IUPAC_NAME_MARKUP>
8-hydroxy-5-[4-[4-[(2-oxo-3,4-dihydro-1<I>H</I>-quinolin-7-yl)oxy]butyl]-1,4-diazepan-1-yl]-1<I>H</I>-quinolin-2-one

> <PUBCHEM_IUPAC_NAME>
8-hydroxy-5-[4-[4-[(2-oxo-3,4-dihydro-1H-quinolin-7-yl)oxy]butyl]-1,4-diazepan-1-yl]-1H-quinolin-2-one

> <PUBCHEM_IUPAC_SYSTEMATIC_NAME>
8-oxidanyl-5-[4-[4-[(2-oxidanylidene-3,4-dihydro-1H-quinolin-7-yl)oxy]butyl]-1,4-diazepan-1-yl]-1H-quinolin-2-one

> <PUBCHEM_IUPAC_TRADITIONAL_NAME>
8-hydroxy-5-[4-[4-[(2-keto-3,4-dihydro-1H-quinolin-7-yl)oxy]butyl]-1,4-diazepan-1-yl]carbostyril

> <PUBCHEM_IUPAC_INCHI>
InChI=1S/C27H32N4O4/c32-24-9-8-23(21-7-11-26(34)29-27(21)24)31-14-3-13-30(15-16-31)12-1-2-17-35-20-6-4-19-5-10-25(33)28-22(19)18-20/h4,6-9,11,18,32H,1-3,5,10,12-17H2,(H,28,33)(H,29,34)

> <PUBCHEM_IUPAC_INCHIKEY>
RWMHVMBWEZTTSB-UHFFFAOYSA-N

> <PUBCHEM_XLOGP3_AA>
2.8

> <PUBCHEM_EXACT_MASS>
476.24235551

> <PUBCHEM_MOLECULAR_FORMULA>
C27H32N4O4

> <PUBCHEM_MOLECULAR_WEIGHT>
476.6

> <PUBCHEM_OPENEYE_CAN_SMILES>
C1CN(CCN(C1)C2=C3C=CC(=O)NC3=C(C=C2)O)CCCCOC4=CC5=C(CCC(=O)N5)C=C4

> <PUBCHEM_OPENEYE_ISO_SMILES>
C1CN(CCN(C1)C2=C3C=CC(=O)NC3=C(C=C2)O)CCCCOC4=CC5=C(CCC(=O)N5)C=C4

> <PUBCHEM_CACTVS_TPSA>
94.1

> <PUBCHEM_MONOISOTOPIC_WEIGHT>
476.24235551

> <PUBCHEM_TOTAL_CHARGE>
0

> <PUBCHEM_HEAVY_ATOM_COUNT>
35

> <PUBCHEM_ATOM_DEF_STEREO_COUNT>
0

> <PUBCHEM_ATOM_UDEF_STEREO_COUNT>
0

> <PUBCHEM_BOND_DEF_STEREO_COUNT>
0

> <PUBCHEM_BOND_UDEF_STEREO_COUNT>
0

> <PUBCHEM_ISOTOPIC_ATOM_COUNT>
0

> <PUBCHEM_COMPONENT_COUNT>
1

> <PUBCHEM_CACTVS_TAUTO_COUNT>
-1

> <PUBCHEM_COORDINATE_TYPE>
1
5
255

> <PUBCHEM_BONDANNOTATIONS>
16  18  8
16  19  8
18  21  8
18  23  8
19  22  8
21  24  8
22  24  8
23  25  8
25  30  8
26  29  8
26  33  8
27  32  8
27  34  8
29  32  8
33  34  8
7  21  8
7  30  8

$$$$
