11554490
  -OEChem-09292322302D

 58 61  0     0  0  0  0  0  0999 V2000
   13.3263   -2.2673    0.0000 F   0  0  0  0  0  0  0  0  0  0  0  0
   12.9603   -3.6334    0.0000 F   0  0  0  0  0  0  0  0  0  0  0  0
   11.9603   -1.9013    0.0000 F   0  0  0  0  0  0  0  0  0  0  0  0
    7.2641   -1.7673    0.0000 N   0  0  0  0  0  0  0  0  0  0  0  0
    8.9962   -2.7673    0.0000 N   0  0  0  0  0  0  0  0  0  0  0  0
    4.6660    1.7327    0.0000 N   0  0  0  0  0  0  0  0  0  0  0  0
    5.5321    3.2327    0.0000 N   0  0  0  0  0  0  0  0  0  0  0  0
    7.2641   -2.7673    0.0000 C   0  0  0  0  0  0  0  0  0  0  0  0
    8.1301   -1.2673    0.0000 C   0  0  0  0  0  0  0  0  0  0  0  0
    8.1301   -3.2673    0.0000 C   0  0  0  0  0  0  0  0  0  0  0  0
    8.9962   -1.7673    0.0000 C   0  0  0  0  0  0  0  0  0  0  0  0
    6.3981   -1.2673    0.0000 C   0  0  0  0  0  0  0  0  0  0  0  0
    6.3981   -0.2673    0.0000 C   0  0  0  0  0  0  0  0  0  0  0  0
    9.8622   -3.2673    0.0000 C   0  0  0  0  0  0  0  0  0  0  0  0
    5.5321    0.2327    0.0000 C   0  0  0  0  0  0  0  0  0  0  0  0
    5.5321    1.2327    0.0000 C   0  0  0  0  0  0  0  0  0  0  0  0
   10.7282   -2.7673    0.0000 C   0  0  0  0  0  0  0  0  0  0  0  0
    9.8622   -4.2673    0.0000 C   0  0  0  0  0  0  0  0  0  0  0  0
   11.5942   -3.2673    0.0000 C   0  0  0  0  0  0  0  0  0  0  0  0
   10.7282   -4.7673    0.0000 C   0  0  0  0  0  0  0  0  0  0  0  0
   11.5942   -4.2673    0.0000 C   0  0  0  0  0  0  0  0  0  0  0  0
    4.6660    2.7327    0.0000 C   0  0  0  0  0  0  0  0  0  0  0  0
   12.4603   -2.7673    0.0000 C   0  0  0  0  0  0  0  0  0  0  0  0
    3.8000    3.2327    0.0000 C   0  0  0  0  0  0  0  0  0  0  0  0
    3.8000    4.2327    0.0000 C   0  0  0  0  0  0  0  0  0  0  0  0
    2.9061    2.6980    0.0000 C   0  0  0  0  0  0  0  0  0  0  0  0
    4.6660    4.7327    0.0000 C   0  0  0  0  0  0  0  0  0  0  0  0
    5.5321    4.2327    0.0000 C   0  0  0  0  0  0  0  0  0  0  0  0
    2.9061    4.7673    0.0000 C   0  0  0  0  0  0  0  0  0  0  0  0
    2.0000    3.2118    0.0000 C   0  0  0  0  0  0  0  0  0  0  0  0
    2.0000    4.2535    0.0000 C   0  0  0  0  0  0  0  0  0  0  0  0
    6.6535   -2.6597    0.0000 H   0  0  0  0  0  0  0  0  0  0  0  0
    7.0521   -3.3499    0.0000 H   0  0  0  0  0  0  0  0  0  0  0  0
    8.5287   -0.7924    0.0000 H   0  0  0  0  0  0  0  0  0  0  0  0
    7.7316   -0.7924    0.0000 H   0  0  0  0  0  0  0  0  0  0  0  0
    7.7316   -3.7423    0.0000 H   0  0  0  0  0  0  0  0  0  0  0  0
    8.5287   -3.7423    0.0000 H   0  0  0  0  0  0  0  0  0  0  0  0
    9.6067   -1.8750    0.0000 H   0  0  0  0  0  0  0  0  0  0  0  0
    9.2082   -1.1847    0.0000 H   0  0  0  0  0  0  0  0  0  0  0  0
    5.7875   -1.1597    0.0000 H   0  0  0  0  0  0  0  0  0  0  0  0
    6.1860   -1.8499    0.0000 H   0  0  0  0  0  0  0  0  0  0  0  0
    7.0087   -0.3750    0.0000 H   0  0  0  0  0  0  0  0  0  0  0  0
    6.6101    0.3153    0.0000 H   0  0  0  0  0  0  0  0  0  0  0  0
    4.9215    0.3403    0.0000 H   0  0  0  0  0  0  0  0  0  0  0  0
    5.3200   -0.3499    0.0000 H   0  0  0  0  0  0  0  0  0  0  0  0
    6.1426    1.1250    0.0000 H   0  0  0  0  0  0  0  0  0  0  0  0
    5.7441    1.8153    0.0000 H   0  0  0  0  0  0  0  0  0  0  0  0
   10.7282   -2.1473    0.0000 H   0  0  0  0  0  0  0  0  0  0  0  0
    9.3252   -4.5773    0.0000 H   0  0  0  0  0  0  0  0  0  0  0  0
    4.1291    1.4227    0.0000 H   0  0  0  0  0  0  0  0  0  0  0  0
   10.7282   -5.3873    0.0000 H   0  0  0  0  0  0  0  0  0  0  0  0
   12.1312   -4.5773    0.0000 H   0  0  0  0  0  0  0  0  0  0  0  0
    2.9132    2.0780    0.0000 H   0  0  0  0  0  0  0  0  0  0  0  0
    4.6660    5.3527    0.0000 H   0  0  0  0  0  0  0  0  0  0  0  0
    6.0690    4.5427    0.0000 H   0  0  0  0  0  0  0  0  0  0  0  0
    2.9132    5.3873    0.0000 H   0  0  0  0  0  0  0  0  0  0  0  0
    1.4643    2.8998    0.0000 H   0  0  0  0  0  0  0  0  0  0  0  0
    1.4643    4.5656    0.0000 H   0  0  0  0  0  0  0  0  0  0  0  0
  1 23  1  0  0  0  0
  2 23  1  0  0  0  0
  3 23  1  0  0  0  0
  4  8  1  0  0  0  0
  4  9  1  0  0  0  0
  4 12  1  0  0  0  0
  5 10  1  0  0  0  0
  5 11  1  0  0  0  0
  5 14  1  0  0  0  0
  6 16  1  0  0  0  0
  6 22  1  0  0  0  0
  6 50  1  0  0  0  0
  7 22  2  0  0  0  0
  7 28  1  0  0  0  0
  8 10  1  0  0  0  0
  8 32  1  0  0  0  0
  8 33  1  0  0  0  0
  9 11  1  0  0  0  0
  9 34  1  0  0  0  0
  9 35  1  0  0  0  0
 10 36  1  0  0  0  0
 10 37  1  0  0  0  0
 11 38  1  0  0  0  0
 11 39  1  0  0  0  0
 12 13  1  0  0  0  0
 12 40  1  0  0  0  0
 12 41  1  0  0  0  0
 13 15  1  0  0  0  0
 13 42  1  0  0  0  0
 13 43  1  0  0  0  0
 14 17  1  0  0  0  0
 14 18  2  0  0  0  0
 15 16  1  0  0  0  0
 15 44  1  0  0  0  0
 15 45  1  0  0  0  0
 16 46  1  0  0  0  0
 16 47  1  0  0  0  0
 17 19  2  0  0  0  0
 17 48  1  0  0  0  0
 18 20  1  0  0  0  0
 18 49  1  0  0  0  0
 19 21  1  0  0  0  0
 19 23  1  0  0  0  0
 20 21  2  0  0  0  0
 20 51  1  0  0  0  0
 21 52  1  0  0  0  0
 22 24  1  0  0  0  0
 24 25  1  0  0  0  0
 24 26  2  0  0  0  0
 25 27  1  0  0  0  0
 25 29  2  0  0  0  0
 26 30  1  0  0  0  0
 26 53  1  0  0  0  0
 27 28  2  0  0  0  0
 27 54  1  0  0  0  0
 28 55  1  0  0  0  0
 29 31  1  0  0  0  0
 29 56  1  0  0  0  0
 30 31  2  0  0  0  0
 30 57  1  0  0  0  0
 31 58  1  0  0  0  0
M  END
> <PUBCHEM_COMPOUND_CID>
11554490

> <PUBCHEM_COMPOUND_CANONICALIZED>
1

> <PUBCHEM_CACTVS_COMPLEXITY>
535

> <PUBCHEM_CACTVS_HBOND_ACCEPTOR>
7

> <PUBCHEM_CACTVS_HBOND_DONOR>
1

> <PUBCHEM_CACTVS_ROTATABLE_BOND>
7

> <PUBCHEM_CACTVS_SUBSKEYS>
AAADceB7gYAAAAAAAAAAAAAAAAAAAAAAAAA8eIEAAAAAAACx9AAAHQAQAAAADAjBGhQ98NPIEACgAjZnZACCgCkxAiAJ2KA4ZJiIYOLAmZGUIAhokALIyCcQgIAOgAAAQAAQAAAAAACAACAAAAAAAAAAAA==

> <PUBCHEM_IUPAC_OPENEYE_NAME>
N-[4-[4-[3-(trifluoromethyl)phenyl]piperazin-1-yl]butyl]isoquinolin-1-amine

> <PUBCHEM_IUPAC_CAS_NAME>
N-[4-[4-[3-(trifluoromethyl)phenyl]-1-piperazinyl]butyl]-1-isoquinolinamine

> <PUBCHEM_IUPAC_NAME_MARKUP>
<I>N</I>-[4-[4-[3-(trifluoromethyl)phenyl]piperazin-1-yl]butyl]isoquinolin-1-amine

> <PUBCHEM_IUPAC_NAME>
N-[4-[4-[3-(trifluoromethyl)phenyl]piperazin-1-yl]butyl]isoquinolin-1-amine

> <PUBCHEM_IUPAC_SYSTEMATIC_NAME>
N-[4-[4-[3-(trifluoromethyl)phenyl]piperazin-1-yl]butyl]isoquinolin-1-amine

> <PUBCHEM_IUPAC_TRADITIONAL_NAME>
1-isoquinolyl-[4-[4-[3-(trifluoromethyl)phenyl]piperazino]butyl]amine

> <PUBCHEM_IUPAC_INCHI>
InChI=1S/C24H27F3N4/c25-24(26,27)20-7-5-8-21(18-20)31-16-14-30(15-17-31)13-4-3-11-28-23-22-9-2-1-6-19(22)10-12-29-23/h1-2,5-10,12,18H,3-4,11,13-17H2,(H,28,29)

> <PUBCHEM_IUPAC_INCHIKEY>
KFWSEMIBLPIBOC-UHFFFAOYSA-N

> <PUBCHEM_XLOGP3_AA>
5.6

> <PUBCHEM_EXACT_MASS>
428.21878136

> <PUBCHEM_MOLECULAR_FORMULA>
C24H27F3N4

> <PUBCHEM_MOLECULAR_WEIGHT>
428.5

> <PUBCHEM_OPENEYE_CAN_SMILES>
C1CN(CCN1CCCCNC2=NC=CC3=CC=CC=C32)C4=CC=CC(=C4)C(F)(F)F

> <PUBCHEM_OPENEYE_ISO_SMILES>
C1CN(CCN1CCCCNC2=NC=CC3=CC=CC=C32)C4=CC=CC(=C4)C(F)(F)F

> <PUBCHEM_CACTVS_TPSA>
31.4

> <PUBCHEM_MONOISOTOPIC_WEIGHT>
428.21878136

> <PUBCHEM_TOTAL_CHARGE>
0

> <PUBCHEM_HEAVY_ATOM_COUNT>
31

> <PUBCHEM_ATOM_DEF_STEREO_COUNT>
0

> <PUBCHEM_ATOM_UDEF_STEREO_COUNT>
0

> <PUBCHEM_BOND_DEF_STEREO_COUNT>
0

> <PUBCHEM_BOND_UDEF_STEREO_COUNT>
0

> <PUBCHEM_ISOTOPIC_ATOM_COUNT>
0

> <PUBCHEM_COMPONENT_COUNT>
1

> <PUBCHEM_CACTVS_TAUTO_COUNT>
-1

> <PUBCHEM_COORDINATE_TYPE>
1
5
255

> <PUBCHEM_BONDANNOTATIONS>
14  17  8
14  18  8
17  19  8
18  20  8
19  21  8
20  21  8
22  24  8
24  25  8
24  26  8
25  27  8
25  29  8
26  30  8
27  28  8
29  31  8
30  31  8
7  22  8
7  28  8

$$$$
