90645288
  -OEChem-09292321592D

 66 69  0     0  0  0  0  0  0999 V2000
   15.1279   -2.4074    0.0000 Cl  0  0  0  0  0  0  0  0  0  0  0  0
   16.1279   -4.1394    0.0000 Cl  0  0  0  0  0  0  0  0  0  0  0  0
    2.0000    3.7888    0.0000 Cl  0  0  0  0  0  0  0  0  0  0  0  0
    5.5443    1.9840    0.0000 S   0  0  0  0  0  0  0  0  0  0  0  0
    7.6279    3.6548    0.0000 O   0  0  0  0  0  0  0  0  0  0  0  0
    2.0000    1.7888    0.0000 O   0  0  0  0  0  0  0  0  0  0  0  0
   12.1279   -0.6753    0.0000 N   0  0  0  0  0  0  0  0  0  0  0  0
   13.1279   -2.4074    0.0000 N   0  0  0  0  0  0  0  0  0  0  0  0
    7.6279    1.9227    0.0000 N   0  0  0  0  0  0  0  0  0  0  0  0
    5.8550    4.5440    0.0000 N   0  0  0  0  0  0  0  0  0  0  0  0
    3.7320    1.7888    0.0000 N   0  0  0  0  0  0  0  0  0  0  0  0
   13.1279   -0.6753    0.0000 C   0  0  0  0  0  0  0  0  0  0  0  0
   11.6279   -1.5414    0.0000 C   0  0  0  0  0  0  0  0  0  0  0  0
   13.6279   -1.5414    0.0000 C   0  0  0  0  0  0  0  0  0  0  0  0
   12.1279   -2.4074    0.0000 C   0  0  0  0  0  0  0  0  0  0  0  0
   11.6279    0.1907    0.0000 C   0  0  0  0  0  0  0  0  0  0  0  0
   10.6279    0.1907    0.0000 C   0  0  0  0  0  0  0  0  0  0  0  0
   10.1279    1.0567    0.0000 C   0  0  0  0  0  0  0  0  0  0  0  0
   13.6279   -3.2734    0.0000 C   0  0  0  0  0  0  0  0  0  0  0  0
    9.1279    1.0567    0.0000 C   0  0  0  0  0  0  0  0  0  0  0  0
    8.6279    1.9227    0.0000 C   0  0  0  0  0  0  0  0  0  0  0  0
   14.6279   -3.2734    0.0000 C   0  0  0  0  0  0  0  0  0  0  0  0
   13.1279   -4.1394    0.0000 C   0  0  0  0  0  0  0  0  0  0  0  0
   15.1279   -4.1394    0.0000 C   0  0  0  0  0  0  0  0  0  0  0  0
   13.6279   -5.0055    0.0000 C   0  0  0  0  0  0  0  0  0  0  0  0
   14.6279   -5.0055    0.0000 C   0  0  0  0  0  0  0  0  0  0  0  0
    7.1279    2.7888    0.0000 C   0  0  0  0  0  0  0  0  0  0  0  0
    6.1279    2.7888    0.0000 C   0  0  0  0  0  0  0  0  0  0  0  0
    4.5981    3.2888    0.0000 C   0  0  0  0  0  0  0  0  0  0  0  0
    5.5443    3.5935    0.0000 C   0  0  0  0  0  0  0  0  0  0  0  0
    4.5981    2.2888    0.0000 C   0  0  0  0  0  0  0  0  0  0  0  0
    3.7320    3.7888    0.0000 C   0  0  0  0  0  0  0  0  0  0  0  0
    2.8660    3.2888    0.0000 C   0  0  0  0  0  0  0  0  0  0  0  0
    3.7320    4.7888    0.0000 C   0  0  0  0  0  0  0  0  0  0  0  0
    2.8660    2.2888    0.0000 C   0  0  0  0  0  0  0  0  0  0  0  0
    2.0000    0.7888    0.0000 C   0  0  0  0  0  0  0  0  0  0  0  0
   13.7105   -0.4633    0.0000 H   0  0  0  0  0  0  0  0  0  0  0  0
   13.0202   -0.0648    0.0000 H   0  0  0  0  0  0  0  0  0  0  0  0
   11.1530   -1.1428    0.0000 H   0  0  0  0  0  0  0  0  0  0  0  0
   11.1530   -1.9399    0.0000 H   0  0  0  0  0  0  0  0  0  0  0  0
   14.1029   -1.9399    0.0000 H   0  0  0  0  0  0  0  0  0  0  0  0
   14.1029   -1.1428    0.0000 H   0  0  0  0  0  0  0  0  0  0  0  0
   11.5453   -2.6194    0.0000 H   0  0  0  0  0  0  0  0  0  0  0  0
   12.2356   -3.0180    0.0000 H   0  0  0  0  0  0  0  0  0  0  0  0
   12.2105    0.4027    0.0000 H   0  0  0  0  0  0  0  0  0  0  0  0
   11.5202    0.8013    0.0000 H   0  0  0  0  0  0  0  0  0  0  0  0
   10.0453   -0.0214    0.0000 H   0  0  0  0  0  0  0  0  0  0  0  0
   10.7356   -0.4199    0.0000 H   0  0  0  0  0  0  0  0  0  0  0  0
   10.7105    1.2688    0.0000 H   0  0  0  0  0  0  0  0  0  0  0  0
   10.0202    1.6673    0.0000 H   0  0  0  0  0  0  0  0  0  0  0  0
    8.5453    0.8447    0.0000 H   0  0  0  0  0  0  0  0  0  0  0  0
    9.2356    0.4461    0.0000 H   0  0  0  0  0  0  0  0  0  0  0  0
    9.2105    2.1348    0.0000 H   0  0  0  0  0  0  0  0  0  0  0  0
    8.5202    2.5333    0.0000 H   0  0  0  0  0  0  0  0  0  0  0  0
   12.5079   -4.1394    0.0000 H   0  0  0  0  0  0  0  0  0  0  0  0
    7.3179    1.3858    0.0000 H   0  0  0  0  0  0  0  0  0  0  0  0
   13.3179   -5.5424    0.0000 H   0  0  0  0  0  0  0  0  0  0  0  0
   14.9379   -5.5424    0.0000 H   0  0  0  0  0  0  0  0  0  0  0  0
    4.3520    4.7888    0.0000 H   0  0  0  0  0  0  0  0  0  0  0  0
    3.7320    5.4088    0.0000 H   0  0  0  0  0  0  0  0  0  0  0  0
    3.1120    4.7888    0.0000 H   0  0  0  0  0  0  0  0  0  0  0  0
    6.4616    4.6719    0.0000 H   0  0  0  0  0  0  0  0  0  0  0  0
    5.4409    5.0055    0.0000 H   0  0  0  0  0  0  0  0  0  0  0  0
    1.3800    0.7888    0.0000 H   0  0  0  0  0  0  0  0  0  0  0  0
    2.0000    0.1688    0.0000 H   0  0  0  0  0  0  0  0  0  0  0  0
    2.6200    0.7888    0.0000 H   0  0  0  0  0  0  0  0  0  0  0  0
  1 22  1  0  0  0  0
  2 24  1  0  0  0  0
  3 33  1  0  0  0  0
  4 28  1  0  0  0  0
  4 31  1  0  0  0  0
  5 27  2  0  0  0  0
  6 35  1  0  0  0  0
  6 36  1  0  0  0  0
  7 12  1  0  0  0  0
  7 13  1  0  0  0  0
  7 16  1  0  0  0  0
  8 14  1  0  0  0  0
  8 15  1  0  0  0  0
  8 19  1  0  0  0  0
  9 21  1  0  0  0  0
  9 27  1  0  0  0  0
  9 56  1  0  0  0  0
 10 30  1  0  0  0  0
 10 62  1  0  0  0  0
 10 63  1  0  0  0  0
 11 31  2  0  0  0  0
 11 35  1  0  0  0  0
 12 14  1  0  0  0  0
 12 37  1  0  0  0  0
 12 38  1  0  0  0  0
 13 15  1  0  0  0  0
 13 39  1  0  0  0  0
 13 40  1  0  0  0  0
 14 41  1  0  0  0  0
 14 42  1  0  0  0  0
 15 43  1  0  0  0  0
 15 44  1  0  0  0  0
 16 17  1  0  0  0  0
 16 45  1  0  0  0  0
 16 46  1  0  0  0  0
 17 18  1  0  0  0  0
 17 47  1  0  0  0  0
 17 48  1  0  0  0  0
 18 20  1  0  0  0  0
 18 49  1  0  0  0  0
 18 50  1  0  0  0  0
 19 22  2  0  0  0  0
 19 23  1  0  0  0  0
 20 21  1  0  0  0  0
 20 51  1  0  0  0  0
 20 52  1  0  0  0  0
 21 53  1  0  0  0  0
 21 54  1  0  0  0  0
 22 24  1  0  0  0  0
 23 25  2  0  0  0  0
 23 55  1  0  0  0  0
 24 26  2  0  0  0  0
 25 26  1  0  0  0  0
 25 57  1  0  0  0  0
 26 58  1  0  0  0  0
 27 28  1  0  0  0  0
 28 30  2  0  0  0  0
 29 30  1  0  0  0  0
 29 31  1  0  0  0  0
 29 32  2  0  0  0  0
 32 33  1  0  0  0  0
 32 34  1  0  0  0  0
 33 35  2  0  0  0  0
 34 59  1  0  0  0  0
 34 60  1  0  0  0  0
 34 61  1  0  0  0  0
 36 64  1  0  0  0  0
 36 65  1  0  0  0  0
 36 66  1  0  0  0  0
M  END
> <PUBCHEM_COMPOUND_CID>
90645288

> <PUBCHEM_COMPOUND_CANONICALIZED>
1

> <PUBCHEM_CACTVS_COMPLEXITY>
719

> <PUBCHEM_CACTVS_HBOND_ACCEPTOR>
7

> <PUBCHEM_CACTVS_HBOND_DONOR>
2

> <PUBCHEM_CACTVS_ROTATABLE_BOND>
9

> <PUBCHEM_CACTVS_SUBSKEYS>
AAADceB7sABGAAAAAAAAAAAAAAAAASAAAAA8WIAAAAAAAFgB/AAAHgYQAAAADArB2iYyxdPIFAisAiVyVACD2KBlL3gImvUsb9gMZnvl99vUNaxk1hHo6UeY2SGOgAAAAAIAABQAAAAABAAAKAAAAAAAAA==

> <PUBCHEM_IUPAC_OPENEYE_NAME>
3-amino-5-chloro-N-[5-[4-(2,3-dichlorophenyl)piperazin-1-yl]pentyl]-6-methoxy-4-methyl-thieno[2,3-b]pyridine-2-carboxamide

> <PUBCHEM_IUPAC_CAS_NAME>
3-amino-5-chloro-N-[5-[4-(2,3-dichlorophenyl)-1-piperazinyl]pentyl]-6-methoxy-4-methyl-2-thieno[2,3-b]pyridinecarboxamide

> <PUBCHEM_IUPAC_NAME_MARKUP>
3-amino-5-chloro-<I>N</I>-[5-[4-(2,3-dichlorophenyl)piperazin-1-yl]pentyl]-6-methoxy-4-methylthieno[2,3-b]pyridine-2-carboxamide

> <PUBCHEM_IUPAC_NAME>
3-amino-5-chloro-N-[5-[4-(2,3-dichlorophenyl)piperazin-1-yl]pentyl]-6-methoxy-4-methylthieno[2,3-b]pyridine-2-carboxamide

> <PUBCHEM_IUPAC_SYSTEMATIC_NAME>
3-azanyl-N-[5-[4-[2,3-bis(chloranyl)phenyl]piperazin-1-yl]pentyl]-5-chloranyl-6-methoxy-4-methyl-thieno[2,3-b]pyridine-2-carboxamide

> <PUBCHEM_IUPAC_TRADITIONAL_NAME>
3-amino-5-chloro-N-[5-[4-(2,3-dichlorophenyl)piperazino]pentyl]-6-methoxy-4-methyl-thieno[2,3-b]pyridine-2-carboxamide

> <PUBCHEM_IUPAC_INCHI>
InChI=1S/C25H30Cl3N5O2S/c1-15-18-21(29)22(36-25(18)31-24(35-2)19(15)27)23(34)30-9-4-3-5-10-32-11-13-33(14-12-32)17-8-6-7-16(26)20(17)28/h6-8H,3-5,9-14,29H2,1-2H3,(H,30,34)

> <PUBCHEM_IUPAC_INCHIKEY>
YPDIYQUBODHVII-UHFFFAOYSA-N

> <PUBCHEM_XLOGP3_AA>
6.9

> <PUBCHEM_EXACT_MASS>
569.118579

> <PUBCHEM_MOLECULAR_FORMULA>
C25H30Cl3N5O2S

> <PUBCHEM_MOLECULAR_WEIGHT>
571.0

> <PUBCHEM_OPENEYE_CAN_SMILES>
CC1=C2C(=C(SC2=NC(=C1Cl)OC)C(=O)NCCCCCN3CCN(CC3)C4=C(C(=CC=C4)Cl)Cl)N

> <PUBCHEM_OPENEYE_ISO_SMILES>
CC1=C2C(=C(SC2=NC(=C1Cl)OC)C(=O)NCCCCCN3CCN(CC3)C4=C(C(=CC=C4)Cl)Cl)N

> <PUBCHEM_CACTVS_TPSA>
112

> <PUBCHEM_MONOISOTOPIC_WEIGHT>
569.118579

> <PUBCHEM_TOTAL_CHARGE>
0

> <PUBCHEM_HEAVY_ATOM_COUNT>
36

> <PUBCHEM_ATOM_DEF_STEREO_COUNT>
0

> <PUBCHEM_ATOM_UDEF_STEREO_COUNT>
0

> <PUBCHEM_BOND_DEF_STEREO_COUNT>
0

> <PUBCHEM_BOND_UDEF_STEREO_COUNT>
0

> <PUBCHEM_ISOTOPIC_ATOM_COUNT>
0

> <PUBCHEM_COMPONENT_COUNT>
1

> <PUBCHEM_CACTVS_TAUTO_COUNT>
-1

> <PUBCHEM_COORDINATE_TYPE>
1
5
255

> <PUBCHEM_BONDANNOTATIONS>
11  31  8
11  35  8
19  22  8
19  23  8
22  24  8
23  25  8
24  26  8
25  26  8
28  30  8
29  30  8
29  31  8
29  32  8
32  33  8
33  35  8
4  28  8
4  31  8

$$$$
