44415368
  -OEChem-09292322282D

 65 69  0     0  0  0  0  0  0999 V2000
    8.7204    1.1991    0.0000 Cl  0  0  0  0  0  0  0  0  0  0  0  0
    6.6150   -1.1278    0.0000 O   0  0  0  0  0  0  0  0  0  0  0  0
    3.9491    2.9638    0.0000 N   0  0  0  0  0  0  0  0  0  0  0  0
    3.0814    4.7657    0.0000 N   0  0  0  0  0  0  0  0  0  0  0  0
    4.8830   -1.1278    0.0000 N   0  0  0  0  0  0  0  0  0  0  0  0
    4.8830   -0.1278    0.0000 N   0  0  0  0  0  0  0  0  0  0  0  0
    5.3830    2.0628    0.0000 N   0  0  0  0  0  0  0  0  0  0  0  0
    6.6150   -4.1278    0.0000 C   0  0  0  0  0  0  0  0  0  0  0  0
    5.8060   -4.7156    0.0000 C   0  0  0  0  0  0  0  0  0  0  0  0
    7.4240   -4.7156    0.0000 C   0  0  0  0  0  0  0  0  0  0  0  0
    6.1150   -5.6667    0.0000 C   0  0  0  0  0  0  0  0  0  0  0  0
    7.1150   -5.6667    0.0000 C   0  0  0  0  0  0  0  0  0  0  0  0
    6.6150   -3.1278    0.0000 C   0  0  0  0  0  0  0  0  0  0  0  0
    5.7490   -2.6278    0.0000 C   0  0  0  0  0  0  0  0  0  0  0  0
    5.7490   -1.6278    0.0000 C   0  0  0  0  0  0  0  0  0  0  0  0
    2.9519    3.0385    0.0000 C   0  0  0  0  0  0  0  0  0  0  0  0
    4.5125    3.7900    0.0000 C   0  0  0  0  0  0  0  0  0  0  0  0
    2.5180    3.9395    0.0000 C   0  0  0  0  0  0  0  0  0  0  0  0
    4.0786    4.6910    0.0000 C   0  0  0  0  0  0  0  0  0  0  0  0
    4.3830    2.0628    0.0000 C   0  0  0  0  0  0  0  0  0  0  0  0
    3.7595    1.2810    0.0000 C   0  0  0  0  0  0  0  0  0  0  0  0
    3.9820    0.3061    0.0000 C   0  0  0  0  0  0  0  0  0  0  0  0
    2.6475    5.6667    0.0000 C   0  0  0  0  0  0  0  0  0  0  0  0
    5.7840    0.3060    0.0000 C   0  0  0  0  0  0  0  0  0  0  0  0
    6.0065    1.2810    0.0000 C   0  0  0  0  0  0  0  0  0  0  0  0
    2.7690    1.6033    0.0000 C   0  0  0  0  0  0  0  0  0  0  0  0
    3.2295   -0.4141    0.0000 C   0  0  0  0  0  0  0  0  0  0  0  0
    6.5365   -0.4141    0.0000 C   0  0  0  0  0  0  0  0  0  0  0  0
    2.0000    0.9007    0.0000 C   0  0  0  0  0  0  0  0  0  0  0  0
    6.9970    1.6033    0.0000 C   0  0  0  0  0  0  0  0  0  0  0  0
    2.2318   -0.1148    0.0000 C   0  0  0  0  0  0  0  0  0  0  0  0
    7.5342   -0.1148    0.0000 C   0  0  0  0  0  0  0  0  0  0  0  0
    7.7660    0.9007    0.0000 C   0  0  0  0  0  0  0  0  0  0  0  0
    6.0626   -3.8464    0.0000 H   0  0  0  0  0  0  0  0  0  0  0  0
    5.4960   -4.1787    0.0000 H   0  0  0  0  0  0  0  0  0  0  0  0
    5.2396   -4.9678    0.0000 H   0  0  0  0  0  0  0  0  0  0  0  0
    7.9904   -4.9678    0.0000 H   0  0  0  0  0  0  0  0  0  0  0  0
    7.7340   -4.1787    0.0000 H   0  0  0  0  0  0  0  0  0  0  0  0
    5.5085   -5.7956    0.0000 H   0  0  0  0  0  0  0  0  0  0  0  0
    6.1798   -6.2833    0.0000 H   0  0  0  0  0  0  0  0  0  0  0  0
    7.0502   -6.2833    0.0000 H   0  0  0  0  0  0  0  0  0  0  0  0
    7.7214   -5.7956    0.0000 H   0  0  0  0  0  0  0  0  0  0  0  0
    7.2256   -3.2355    0.0000 H   0  0  0  0  0  0  0  0  0  0  0  0
    6.8271   -2.5452    0.0000 H   0  0  0  0  0  0  0  0  0  0  0  0
    5.1384   -2.5202    0.0000 H   0  0  0  0  0  0  0  0  0  0  0  0
    5.5369   -3.2104    0.0000 H   0  0  0  0  0  0  0  0  0  0  0  0
    2.3551    2.8706    0.0000 H   0  0  0  0  0  0  0  0  0  0  0  0
    3.0137    2.4216    0.0000 H   0  0  0  0  0  0  0  0  0  0  0  0
    4.9563    3.3571    0.0000 H   0  0  0  0  0  0  0  0  0  0  0  0
    5.0159    4.1519    0.0000 H   0  0  0  0  0  0  0  0  0  0  0  0
    2.0742    4.3724    0.0000 H   0  0  0  0  0  0  0  0  0  0  0  0
    2.0146    3.5776    0.0000 H   0  0  0  0  0  0  0  0  0  0  0  0
    4.6754    4.8589    0.0000 H   0  0  0  0  0  0  0  0  0  0  0  0
    4.0168    5.3079    0.0000 H   0  0  0  0  0  0  0  0  0  0  0  0
    4.3460   -1.4378    0.0000 H   0  0  0  0  0  0  0  0  0  0  0  0
    3.2061    5.9357    0.0000 H   0  0  0  0  0  0  0  0  0  0  0  0
    2.3785    6.2253    0.0000 H   0  0  0  0  0  0  0  0  0  0  0  0
    2.0889    5.3977    0.0000 H   0  0  0  0  0  0  0  0  0  0  0  0
    2.6380    2.2093    0.0000 H   0  0  0  0  0  0  0  0  0  0  0  0
    3.3744   -1.0169    0.0000 H   0  0  0  0  0  0  0  0  0  0  0  0
    6.3916   -1.0170    0.0000 H   0  0  0  0  0  0  0  0  0  0  0  0
    1.4083    1.0858    0.0000 H   0  0  0  0  0  0  0  0  0  0  0  0
    7.1280    2.2093    0.0000 H   0  0  0  0  0  0  0  0  0  0  0  0
    1.7789   -0.5382    0.0000 H   0  0  0  0  0  0  0  0  0  0  0  0
    7.9871   -0.5383    0.0000 H   0  0  0  0  0  0  0  0  0  0  0  0
  1 33  1  0  0  0  0
  2 15  2  0  0  0  0
  3 16  1  0  0  0  0
  3 17  1  0  0  0  0
  3 20  1  0  0  0  0
  4 18  1  0  0  0  0
  4 19  1  0  0  0  0
  4 23  1  0  0  0  0
  5  6  1  0  0  0  0
  5 15  1  0  0  0  0
  5 55  1  0  0  0  0
  6 22  1  0  0  0  0
  6 24  1  0  0  0  0
  7 20  2  0  0  0  0
  7 25  1  0  0  0  0
  8  9  1  0  0  0  0
  8 10  1  0  0  0  0
  8 13  1  0  0  0  0
  8 34  1  0  0  0  0
  9 11  1  0  0  0  0
  9 35  1  0  0  0  0
  9 36  1  0  0  0  0
 10 12  1  0  0  0  0
 10 37  1  0  0  0  0
 10 38  1  0  0  0  0
 11 12  1  0  0  0  0
 11 39  1  0  0  0  0
 11 40  1  0  0  0  0
 12 41  1  0  0  0  0
 12 42  1  0  0  0  0
 13 14  1  0  0  0  0
 13 43  1  0  0  0  0
 13 44  1  0  0  0  0
 14 15  1  0  0  0  0
 14 45  1  0  0  0  0
 14 46  1  0  0  0  0
 16 18  1  0  0  0  0
 16 47  1  0  0  0  0
 16 48  1  0  0  0  0
 17 19  1  0  0  0  0
 17 49  1  0  0  0  0
 17 50  1  0  0  0  0
 18 51  1  0  0  0  0
 18 52  1  0  0  0  0
 19 53  1  0  0  0  0
 19 54  1  0  0  0  0
 20 21  1  0  0  0  0
 21 22  1  0  0  0  0
 21 26  2  0  0  0  0
 22 27  2  0  0  0  0
 23 56  1  0  0  0  0
 23 57  1  0  0  0  0
 23 58  1  0  0  0  0
 24 25  2  0  0  0  0
 24 28  1  0  0  0  0
 25 30  1  0  0  0  0
 26 29  1  0  0  0  0
 26 59  1  0  0  0  0
 27 31  1  0  0  0  0
 27 60  1  0  0  0  0
 28 32  2  0  0  0  0
 28 61  1  0  0  0  0
 29 31  2  0  0  0  0
 29 62  1  0  0  0  0
 30 33  2  0  0  0  0
 30 63  1  0  0  0  0
 31 64  1  0  0  0  0
 32 33  1  0  0  0  0
 32 65  1  0  0  0  0
M  END
> <PUBCHEM_COMPOUND_CID>
44415368

> <PUBCHEM_COMPOUND_CANONICALIZED>
1

> <PUBCHEM_CACTVS_COMPLEXITY>
703

> <PUBCHEM_CACTVS_HBOND_ACCEPTOR>
4

> <PUBCHEM_CACTVS_HBOND_DONOR>
1

> <PUBCHEM_CACTVS_ROTATABLE_BOND>
5

> <PUBCHEM_CACTVS_SUBSKEYS>
AAADcfB7oAAEAAAAAAAAAAAAAAAAAYAAAAA8YIAABAAAAAABQAAAHgIYAAAADQrBmCQzwINiAACoAidydACCBAEhBwAbqAEodpgIYPLB25GUIAhgkADIyAcYiICOAABAAAICACAAAIAABAQAQAAAAAAAAA==

> <PUBCHEM_IUPAC_OPENEYE_NAME>
N-[3-chloro-6-(4-methylpiperazin-1-yl)benzo[b][1,4]benzodiazepin-11-yl]-3-cyclopentyl-propanamide

> <PUBCHEM_IUPAC_CAS_NAME>
N-[3-chloro-6-(4-methyl-1-piperazinyl)-11-benzo[b][1,4]benzodiazepinyl]-3-cyclopentylpropanamide

> <PUBCHEM_IUPAC_NAME_MARKUP>
<I>N</I>-[3-chloro-6-(4-methylpiperazin-1-yl)benzo[b][1,4]benzodiazepin-11-yl]-3-cyclopentylpropanamide

> <PUBCHEM_IUPAC_NAME>
N-[3-chloro-6-(4-methylpiperazin-1-yl)benzo[b][1,4]benzodiazepin-11-yl]-3-cyclopentylpropanamide

> <PUBCHEM_IUPAC_SYSTEMATIC_NAME>
N-[3-chloranyl-6-(4-methylpiperazin-1-yl)benzo[b][1,4]benzodiazepin-11-yl]-3-cyclopentyl-propanamide

> <PUBCHEM_IUPAC_TRADITIONAL_NAME>
N-[3-chloro-6-(4-methylpiperazino)benzo[b][1,4]benzodiazepin-11-yl]-3-cyclopentyl-propionamide

> <PUBCHEM_IUPAC_INCHI>
InChI=1S/C26H32ClN5O/c1-30-14-16-31(17-15-30)26-21-8-4-5-9-23(21)32(24-12-11-20(27)18-22(24)28-26)29-25(33)13-10-19-6-2-3-7-19/h4-5,8-9,11-12,18-19H,2-3,6-7,10,13-17H2,1H3,(H,29,33)

> <PUBCHEM_IUPAC_INCHIKEY>
HINWGODKQABLIJ-UHFFFAOYSA-N

> <PUBCHEM_XLOGP3_AA>
5.2

> <PUBCHEM_EXACT_MASS>
465.2295384

> <PUBCHEM_MOLECULAR_FORMULA>
C26H32ClN5O

> <PUBCHEM_MOLECULAR_WEIGHT>
466.0

> <PUBCHEM_OPENEYE_CAN_SMILES>
CN1CCN(CC1)C2=NC3=C(C=CC(=C3)Cl)N(C4=CC=CC=C42)NC(=O)CCC5CCCC5

> <PUBCHEM_OPENEYE_ISO_SMILES>
CN1CCN(CC1)C2=NC3=C(C=CC(=C3)Cl)N(C4=CC=CC=C42)NC(=O)CCC5CCCC5

> <PUBCHEM_CACTVS_TPSA>
51.2

> <PUBCHEM_MONOISOTOPIC_WEIGHT>
465.2295384

> <PUBCHEM_TOTAL_CHARGE>
0

> <PUBCHEM_HEAVY_ATOM_COUNT>
33

> <PUBCHEM_ATOM_DEF_STEREO_COUNT>
0

> <PUBCHEM_ATOM_UDEF_STEREO_COUNT>
0

> <PUBCHEM_BOND_DEF_STEREO_COUNT>
0

> <PUBCHEM_BOND_UDEF_STEREO_COUNT>
0

> <PUBCHEM_ISOTOPIC_ATOM_COUNT>
0

> <PUBCHEM_COMPONENT_COUNT>
1

> <PUBCHEM_CACTVS_TAUTO_COUNT>
-1

> <PUBCHEM_COORDINATE_TYPE>
1
5
255

> <PUBCHEM_BONDANNOTATIONS>
21  22  8
21  26  8
22  27  8
24  25  8
24  28  8
25  30  8
26  29  8
27  31  8
28  32  8
29  31  8
30  33  8
32  33  8

$$$$
