11726130
  -OEChem-09292322132D

 50 53  0     1  0  0  0  0  0999 V2000
    2.0000   -0.8202    0.0000 Cl  0  0  0  0  0  0  0  0  0  0  0  0
    4.0358    2.7463    0.0000 N   0  0  3  0  0  0  0  0  0  0  0  0
    4.9036    0.9444    0.0000 C   0  0  0  0  0  0  0  0  0  0  0  0
    3.9064    1.0191    0.0000 C   0  0  0  0  0  0  0  0  0  0  0  0
    3.4725    1.9201    0.0000 C   0  0  0  0  0  0  0  0  0  0  0  0
    5.3374    0.0434    0.0000 C   0  0  0  0  0  0  0  0  0  0  0  0
    5.0330    2.6716    0.0000 C   0  0  0  0  0  0  0  0  0  0  0  0
    4.7139   -0.7384    0.0000 C   0  0  0  0  0  0  0  0  0  0  0  0
    5.4669    1.7706    0.0000 C   0  0  0  0  0  0  0  0  0  0  0  0
    4.9364   -1.7134    0.0000 C   0  0  0  0  0  0  0  0  0  0  0  0
    5.8374   -2.1473    0.0000 C   0  0  0  0  0  0  0  0  0  0  0  0
    6.3374    0.0434    0.0000 C   0  0  0  0  0  0  0  0  0  0  0  0
    6.7384   -1.7134    0.0000 C   0  0  0  0  0  0  0  0  0  0  0  0
    6.9609   -0.7385    0.0000 C   0  0  0  0  0  0  0  0  0  0  0  0
    3.6019    3.6473    0.0000 C   0  0  0  0  0  0  0  0  0  0  0  0
    3.7234   -0.4161    0.0000 C   0  0  0  0  0  0  0  0  0  0  0  0
    5.8374   -3.1473    0.0000 C   0  0  0  0  0  0  0  0  0  0  0  0
    4.1839   -2.4336    0.0000 C   0  0  0  0  0  0  0  0  0  0  0  0
    7.4909   -2.4336    0.0000 C   0  0  0  0  0  0  0  0  0  0  0  0
    7.9514   -0.4161    0.0000 C   0  0  0  0  0  0  0  0  0  0  0  0
    2.9544   -1.1187    0.0000 C   0  0  0  0  0  0  0  0  0  0  0  0
    3.1862   -2.1342    0.0000 C   0  0  0  0  0  0  0  0  0  0  0  0
    8.4886   -2.1342    0.0000 C   0  0  0  0  0  0  0  0  0  0  0  0
    8.7204   -1.1187    0.0000 C   0  0  0  0  0  0  0  0  0  0  0  0
    6.7034   -3.6473    0.0000 C   0  0  0  0  0  0  0  0  0  0  0  0
    4.9714   -3.6473    0.0000 C   0  0  0  0  0  0  0  0  0  0  0  0
    3.3095    0.8512    0.0000 H   0  0  0  0  0  0  0  0  0  0  0  0
    3.9681    0.4022    0.0000 H   0  0  0  0  0  0  0  0  0  0  0  0
    3.0286    2.3530    0.0000 H   0  0  0  0  0  0  0  0  0  0  0  0
    2.9691    1.5582    0.0000 H   0  0  0  0  0  0  0  0  0  0  0  0
    5.6298    2.8395    0.0000 H   0  0  0  0  0  0  0  0  0  0  0  0
    4.9713    3.2885    0.0000 H   0  0  0  0  0  0  0  0  0  0  0  0
    6.0851    1.7242    0.0000 H   0  0  0  0  0  0  0  0  0  0  0  0
    6.6064    0.6020    0.0000 H   0  0  0  0  0  0  0  0  0  0  0  0
    4.1605    3.9163    0.0000 H   0  0  0  0  0  0  0  0  0  0  0  0
    3.3329    4.2059    0.0000 H   0  0  0  0  0  0  0  0  0  0  0  0
    3.0433    3.3783    0.0000 H   0  0  0  0  0  0  0  0  0  0  0  0
    3.5925    0.1899    0.0000 H   0  0  0  0  0  0  0  0  0  0  0  0
    4.3288   -3.0364    0.0000 H   0  0  0  0  0  0  0  0  0  0  0  0
    7.3460   -3.0364    0.0000 H   0  0  0  0  0  0  0  0  0  0  0  0
    8.0824    0.1899    0.0000 H   0  0  0  0  0  0  0  0  0  0  0  0
    2.7333   -2.5577    0.0000 H   0  0  0  0  0  0  0  0  0  0  0  0
    8.9415   -2.5577    0.0000 H   0  0  0  0  0  0  0  0  0  0  0  0
    9.3122   -0.9337    0.0000 H   0  0  0  0  0  0  0  0  0  0  0  0
    6.3934   -4.1842    0.0000 H   0  0  0  0  0  0  0  0  0  0  0  0
    7.2404   -3.9573    0.0000 H   0  0  0  0  0  0  0  0  0  0  0  0
    7.0134   -3.1103    0.0000 H   0  0  0  0  0  0  0  0  0  0  0  0
    4.6614   -3.1103    0.0000 H   0  0  0  0  0  0  0  0  0  0  0  0
    4.4344   -3.9572    0.0000 H   0  0  0  0  0  0  0  0  0  0  0  0
    5.2814   -4.1842    0.0000 H   0  0  0  0  0  0  0  0  0  0  0  0
  1 21  1  0  0  0  0
  2  5  1  0  0  0  0
  2  7  1  0  0  0  0
  2 15  1  0  0  0  0
  3  4  1  0  0  0  0
  3  6  1  0  0  0  0
  3  9  2  0  0  0  0
  4  5  1  0  0  0  0
  4 27  1  0  0  0  0
  4 28  1  0  0  0  0
  5 29  1  0  0  0  0
  5 30  1  0  0  0  0
  6  8  1  0  0  0  0
  6 12  2  0  0  0  0
  7  9  1  0  0  0  0
  7 31  1  0  0  0  0
  7 32  1  0  0  0  0
  8 10  2  0  0  0  0
  8 16  1  0  0  0  0
  9 33  1  0  0  0  0
 10 11  1  0  0  0  0
 10 18  1  0  0  0  0
 11 13  1  0  0  0  0
 11 17  2  0  0  0  0
 12 14  1  0  0  0  0
 12 34  1  0  0  0  0
 13 14  1  0  0  0  0
 13 19  2  0  0  0  0
 14 20  2  0  0  0  0
 15 35  1  0  0  0  0
 15 36  1  0  0  0  0
 15 37  1  0  0  0  0
 16 21  2  0  0  0  0
 16 38  1  0  0  0  0
 17 25  1  0  0  0  0
 17 26  1  0  0  0  0
 18 22  2  0  0  0  0
 18 39  1  0  0  0  0
 19 23  1  0  0  0  0
 19 40  1  0  0  0  0
 20 24  1  0  0  0  0
 20 41  1  0  0  0  0
 21 22  1  0  0  0  0
 22 42  1  0  0  0  0
 23 24  2  0  0  0  0
 23 43  1  0  0  0  0
 24 44  1  0  0  0  0
 25 45  1  0  0  0  0
 25 46  1  0  0  0  0
 25 47  1  0  0  0  0
 26 48  1  0  0  0  0
 26 49  1  0  0  0  0
 26 50  1  0  0  0  0
M  END
> <PUBCHEM_COMPOUND_CID>
11726130

> <PUBCHEM_COMPOUND_CANONICALIZED>
1

> <PUBCHEM_CACTVS_COMPLEXITY>
624

> <PUBCHEM_CACTVS_HBOND_ACCEPTOR>
1

> <PUBCHEM_CACTVS_HBOND_DONOR>
0

> <PUBCHEM_CACTVS_ROTATABLE_BOND>
1

> <PUBCHEM_CACTVS_SUBSKEYS>
AAADceB6AAAEAAAAAAAAAAAAAAAAAAAAAAAwYIAABAAAAAABQAAAHAIAAAAADALBGCQyAIMAAACAAiBCAACCAAAgBQAIiAAIAogIICKBkxCEIAAggACIiAcQgMAOhAAAIAAQAAAIAABAACAAAAAAAAAAAA==

> <PUBCHEM_IUPAC_OPENEYE_NAME>
4-(6-chloro-2-isopropylidene-9-tricyclo[9.4.0.03,8]pentadeca-1(15),3(8),4,6,9,11,13-heptaenyl)-1-methyl-3,6-dihydro-2H-pyridine

> <PUBCHEM_IUPAC_CAS_NAME>
4-(6-chloro-2-propan-2-ylidene-9-tricyclo[9.4.0.03,8]pentadeca-1(15),3(8),4,6,9,11,13-heptaenyl)-1-methyl-3,6-dihydro-2H-pyridine

> <PUBCHEM_IUPAC_NAME_MARKUP>
4-(6-chloro-2-propan-2-ylidene-9-tricyclo[9.4.0.0<SUP>3,8</SUP>]pentadeca-1(15),3(8),4,6,9,11,13-heptaenyl)-1-methyl-3,6-dihydro-2<I>H</I>-pyridine

> <PUBCHEM_IUPAC_NAME>
4-(6-chloro-2-propan-2-ylidene-9-tricyclo[9.4.0.03,8]pentadeca-1(15),3(8),4,6,9,11,13-heptaenyl)-1-methyl-3,6-dihydro-2H-pyridine

> <PUBCHEM_IUPAC_SYSTEMATIC_NAME>
4-(6-chloranyl-2-propan-2-ylidene-9-tricyclo[9.4.0.03,8]pentadeca-1(15),3(8),4,6,9,11,13-heptaenyl)-1-methyl-3,6-dihydro-2H-pyridine

> <PUBCHEM_IUPAC_TRADITIONAL_NAME>
4-(6-chloro-2-isopropylidene-9-tricyclo[9.4.0.03,8]pentadeca-1(15),3(8),4,6,9,11,13-heptaenyl)-1-methyl-3,6-dihydro-2H-pyridine

> <PUBCHEM_IUPAC_INCHI>
InChI=1S/C24H24ClN/c1-16(2)24-20-7-5-4-6-18(20)14-22(17-10-12-26(3)13-11-17)23-15-19(25)8-9-21(23)24/h4-10,14-15H,11-13H2,1-3H3

> <PUBCHEM_IUPAC_INCHIKEY>
IAOUVQRCRUKJNM-UHFFFAOYSA-N

> <PUBCHEM_XLOGP3_AA>
5.7

> <PUBCHEM_EXACT_MASS>
361.1597275

> <PUBCHEM_MOLECULAR_FORMULA>
C24H24ClN

> <PUBCHEM_MOLECULAR_WEIGHT>
361.9

> <PUBCHEM_OPENEYE_CAN_SMILES>
CC(=C1C2=C(C=C(C=C2)Cl)C(=CC3=CC=CC=C31)C4=CCN(CC4)C)C

> <PUBCHEM_OPENEYE_ISO_SMILES>
CC(=C1C2=C(C=C(C=C2)Cl)C(=CC3=CC=CC=C31)C4=CCN(CC4)C)C

> <PUBCHEM_CACTVS_TPSA>
3.2

> <PUBCHEM_MONOISOTOPIC_WEIGHT>
361.1597275

> <PUBCHEM_TOTAL_CHARGE>
0

> <PUBCHEM_HEAVY_ATOM_COUNT>
26

> <PUBCHEM_ATOM_DEF_STEREO_COUNT>
0

> <PUBCHEM_ATOM_UDEF_STEREO_COUNT>
0

> <PUBCHEM_BOND_DEF_STEREO_COUNT>
0

> <PUBCHEM_BOND_UDEF_STEREO_COUNT>
0

> <PUBCHEM_ISOTOPIC_ATOM_COUNT>
0

> <PUBCHEM_COMPONENT_COUNT>
1

> <PUBCHEM_CACTVS_TAUTO_COUNT>
-1

> <PUBCHEM_COORDINATE_TYPE>
1
5
255

> <PUBCHEM_BONDANNOTATIONS>
10  18  8
13  14  8
13  19  8
14  20  8
16  21  8
18  22  8
19  23  8
20  24  8
21  22  8
23  24  8
8  10  8
8  16  8

$$$$
