19592141
  -OEChem-09292322212D

 73 76  0     1  0  0  0  0  0999 V2000
   15.0010   -2.6923    0.0000 O   0  0  0  0  0  0  0  0  0  0  0  0
    7.1962    1.8323    0.0000 O   0  0  0  0  0  0  0  0  0  0  0  0
   12.3923    0.8323    0.0000 N   0  0  3  0  0  0  0  0  0  0  0  0
    8.0622    0.3323    0.0000 N   0  0  0  0  0  0  0  0  0  0  0  0
   16.7329   -2.7123    0.0000 N   0  0  0  0  0  0  0  0  0  0  0  0
   13.2583    0.3323    0.0000 C   0  0  3  0  0  0  0  0  0  0  0  0
   13.2583   -0.6677    0.0000 C   0  0  0  0  0  0  0  0  0  0  0  0
   14.1244    0.8323    0.0000 C   0  0  0  0  0  0  0  0  0  0  0  0
   14.1244   -1.1677    0.0000 C   0  0  0  0  0  0  0  0  0  0  0  0
   14.9904    0.3323    0.0000 C   0  0  0  0  0  0  0  0  0  0  0  0
   14.9904   -0.6677    0.0000 C   0  0  0  0  0  0  0  0  0  0  0  0
   11.5263    0.3323    0.0000 C   0  0  0  0  0  0  0  0  0  0  0  0
   12.3923    1.8323    0.0000 C   0  0  0  0  0  0  0  0  0  0  0  0
   10.6603    0.8323    0.0000 C   0  0  0  0  0  0  0  0  0  0  0  0
   15.8843   -1.2024    0.0000 C   0  0  0  0  0  0  0  0  0  0  0  0
   15.8843    0.8669    0.0000 C   0  0  0  0  0  0  0  0  0  0  0  0
   11.5263    2.3323    0.0000 C   0  0  0  0  0  0  0  0  0  0  0  0
    9.7942    0.3323    0.0000 C   0  0  0  0  0  0  0  0  0  0  0  0
   16.7904   -0.6885    0.0000 C   0  0  0  0  0  0  0  0  0  0  0  0
   16.7904    0.3531    0.0000 C   0  0  0  0  0  0  0  0  0  0  0  0
   11.5263    3.3323    0.0000 C   0  0  0  0  0  0  0  0  0  0  0  0
    8.9282    0.8323    0.0000 C   0  0  0  0  0  0  0  0  0  0  0  0
   15.8728   -2.2023    0.0000 C   0  0  0  0  0  0  0  0  0  0  0  0
    7.1962    0.8323    0.0000 C   0  0  0  0  0  0  0  0  0  0  0  0
    6.3301    0.3323    0.0000 C   0  0  0  0  0  0  0  0  0  0  0  0
    5.4641    0.8323    0.0000 C   0  0  0  0  0  0  0  0  0  0  0  0
    6.3301   -0.6677    0.0000 C   0  0  0  0  0  0  0  0  0  0  0  0
    4.5981   -0.6677    0.0000 C   0  0  0  0  0  0  0  0  0  0  0  0
    4.5981    0.3323    0.0000 C   0  0  0  0  0  0  0  0  0  0  0  0
    5.4641   -1.1677    0.0000 C   0  0  0  0  0  0  0  0  0  0  0  0
    3.7320   -1.1677    0.0000 C   0  0  0  0  0  0  0  0  0  0  0  0
    3.7320   -2.1677    0.0000 C   0  0  0  0  0  0  0  0  0  0  0  0
    2.8660   -0.6677    0.0000 C   0  0  0  0  0  0  0  0  0  0  0  0
    2.8660   -2.6677    0.0000 C   0  0  0  0  0  0  0  0  0  0  0  0
    2.0000   -1.1677    0.0000 C   0  0  0  0  0  0  0  0  0  0  0  0
    2.0000   -2.1677    0.0000 C   0  0  0  0  0  0  0  0  0  0  0  0
   13.2583    0.9523    0.0000 H   0  0  0  0  0  0  0  0  0  0  0  0
   12.6477   -0.5601    0.0000 H   0  0  0  0  0  0  0  0  0  0  0  0
   13.0463   -1.2503    0.0000 H   0  0  0  0  0  0  0  0  0  0  0  0
   14.5229    1.3072    0.0000 H   0  0  0  0  0  0  0  0  0  0  0  0
   13.7258    1.3072    0.0000 H   0  0  0  0  0  0  0  0  0  0  0  0
   13.7258   -1.6427    0.0000 H   0  0  0  0  0  0  0  0  0  0  0  0
   14.5229   -1.6427    0.0000 H   0  0  0  0  0  0  0  0  0  0  0  0
   11.1278   -0.1427    0.0000 H   0  0  0  0  0  0  0  0  0  0  0  0
   11.9248   -0.1427    0.0000 H   0  0  0  0  0  0  0  0  0  0  0  0
   13.0029    1.7246    0.0000 H   0  0  0  0  0  0  0  0  0  0  0  0
   12.6044    2.4149    0.0000 H   0  0  0  0  0  0  0  0  0  0  0  0
   11.0588    1.3072    0.0000 H   0  0  0  0  0  0  0  0  0  0  0  0
   10.2617    1.3072    0.0000 H   0  0  0  0  0  0  0  0  0  0  0  0
   15.8772    1.4869    0.0000 H   0  0  0  0  0  0  0  0  0  0  0  0
   10.9157    2.4399    0.0000 H   0  0  0  0  0  0  0  0  0  0  0  0
   11.3142    1.7497    0.0000 H   0  0  0  0  0  0  0  0  0  0  0  0
    9.3957   -0.1427    0.0000 H   0  0  0  0  0  0  0  0  0  0  0  0
   10.1928   -0.1427    0.0000 H   0  0  0  0  0  0  0  0  0  0  0  0
   17.3261   -1.0006    0.0000 H   0  0  0  0  0  0  0  0  0  0  0  0
   17.3261    0.6652    0.0000 H   0  0  0  0  0  0  0  0  0  0  0  0
   12.1463    3.3323    0.0000 H   0  0  0  0  0  0  0  0  0  0  0  0
   11.5263    3.9523    0.0000 H   0  0  0  0  0  0  0  0  0  0  0  0
   10.9063    3.3323    0.0000 H   0  0  0  0  0  0  0  0  0  0  0  0
    9.3267    1.3072    0.0000 H   0  0  0  0  0  0  0  0  0  0  0  0
    8.5297    1.3072    0.0000 H   0  0  0  0  0  0  0  0  0  0  0  0
    8.0622   -0.2877    0.0000 H   0  0  0  0  0  0  0  0  0  0  0  0
   16.7258   -3.3323    0.0000 H   0  0  0  0  0  0  0  0  0  0  0  0
   17.2734   -2.4085    0.0000 H   0  0  0  0  0  0  0  0  0  0  0  0
    5.4641    1.4523    0.0000 H   0  0  0  0  0  0  0  0  0  0  0  0
    6.8671   -0.9777    0.0000 H   0  0  0  0  0  0  0  0  0  0  0  0
    4.0611    0.6423    0.0000 H   0  0  0  0  0  0  0  0  0  0  0  0
    5.4641   -1.7877    0.0000 H   0  0  0  0  0  0  0  0  0  0  0  0
    4.2690   -2.4777    0.0000 H   0  0  0  0  0  0  0  0  0  0  0  0
    2.8660   -0.0477    0.0000 H   0  0  0  0  0  0  0  0  0  0  0  0
    2.8660   -3.2877    0.0000 H   0  0  0  0  0  0  0  0  0  0  0  0
    1.4631   -0.8577    0.0000 H   0  0  0  0  0  0  0  0  0  0  0  0
    1.4631   -2.4777    0.0000 H   0  0  0  0  0  0  0  0  0  0  0  0
  1 23  2  0  0  0  0
  2 24  2  0  0  0  0
  3  6  1  0  0  0  0
  3 12  1  0  0  0  0
  3 13  1  0  0  0  0
  4 22  1  0  0  0  0
  4 24  1  0  0  0  0
  4 62  1  0  0  0  0
  5 23  1  0  0  0  0
  5 63  1  0  0  0  0
  5 64  1  0  0  0  0
  6  7  1  0  0  0  0
  6  8  1  0  0  0  0
  6 37  1  0  0  0  0
  7  9  1  0  0  0  0
  7 38  1  0  0  0  0
  7 39  1  0  0  0  0
  8 10  1  0  0  0  0
  8 40  1  0  0  0  0
  8 41  1  0  0  0  0
  9 11  1  0  0  0  0
  9 42  1  0  0  0  0
  9 43  1  0  0  0  0
 10 11  2  0  0  0  0
 10 16  1  0  0  0  0
 11 15  1  0  0  0  0
 12 14  1  0  0  0  0
 12 44  1  0  0  0  0
 12 45  1  0  0  0  0
 13 17  1  0  0  0  0
 13 46  1  0  0  0  0
 13 47  1  0  0  0  0
 14 18  1  0  0  0  0
 14 48  1  0  0  0  0
 14 49  1  0  0  0  0
 15 19  2  0  0  0  0
 15 23  1  0  0  0  0
 16 20  2  0  0  0  0
 16 50  1  0  0  0  0
 17 21  1  0  0  0  0
 17 51  1  0  0  0  0
 17 52  1  0  0  0  0
 18 22  1  0  0  0  0
 18 53  1  0  0  0  0
 18 54  1  0  0  0  0
 19 20  1  0  0  0  0
 19 55  1  0  0  0  0
 20 56  1  0  0  0  0
 21 57  1  0  0  0  0
 21 58  1  0  0  0  0
 21 59  1  0  0  0  0
 22 60  1  0  0  0  0
 22 61  1  0  0  0  0
 24 25  1  0  0  0  0
 25 26  2  0  0  0  0
 25 27  1  0  0  0  0
 26 29  1  0  0  0  0
 26 65  1  0  0  0  0
 27 30  2  0  0  0  0
 27 66  1  0  0  0  0
 28 29  2  0  0  0  0
 28 30  1  0  0  0  0
 28 31  1  0  0  0  0
 29 67  1  0  0  0  0
 30 68  1  0  0  0  0
 31 32  2  0  0  0  0
 31 33  1  0  0  0  0
 32 34  1  0  0  0  0
 32 69  1  0  0  0  0
 33 35  2  0  0  0  0
 33 70  1  0  0  0  0
 34 36  2  0  0  0  0
 34 71  1  0  0  0  0
 35 36  1  0  0  0  0
 35 72  1  0  0  0  0
 36 73  1  0  0  0  0
M  END
> <PUBCHEM_COMPOUND_CID>
19592141

> <PUBCHEM_COMPOUND_CANONICALIZED>
1

> <PUBCHEM_CACTVS_COMPLEXITY>
683

> <PUBCHEM_CACTVS_HBOND_ACCEPTOR>
3

> <PUBCHEM_CACTVS_HBOND_DONOR>
2

> <PUBCHEM_CACTVS_ROTATABLE_BOND>
11

> <PUBCHEM_CACTVS_SUBSKEYS>
AAADcfB7MAAAAAAAAAAAAAAAAAAAAAAAAAAwYMGAAAAAAADBUAAAHgAQAAAADCjBmAQyAIPAAACIAiFSEACCAAAkAAAIiIEIBMgIIDKAlRGEIQhglgCIiYcYiMCOwAACAAAQAACQAASAACAAAAAAAAAAAA==

> <PUBCHEM_IUPAC_OPENEYE_NAME>
2-[4-[(4-phenylbenzoyl)amino]butyl-propyl-amino]tetralin-5-carboxamide

> <PUBCHEM_IUPAC_CAS_NAME>
6-[4-[[oxo-(4-phenylphenyl)methyl]amino]butyl-propylamino]-5,6,7,8-tetrahydronaphthalene-1-carboxamide

> <PUBCHEM_IUPAC_NAME_MARKUP>
6-[4-[(4-phenylbenzoyl)amino]butyl-propylamino]-5,6,7,8-tetrahydronaphthalene-1-carboxamide

> <PUBCHEM_IUPAC_NAME>
6-[4-[(4-phenylbenzoyl)amino]butyl-propylamino]-5,6,7,8-tetrahydronaphthalene-1-carboxamide

> <PUBCHEM_IUPAC_SYSTEMATIC_NAME>
6-[4-[(4-phenylphenyl)carbonylamino]butyl-propyl-amino]-5,6,7,8-tetrahydronaphthalene-1-carboxamide

> <PUBCHEM_IUPAC_TRADITIONAL_NAME>
2-[4-[(4-phenylbenzoyl)amino]butyl-propyl-amino]tetralin-5-carboxamide

> <PUBCHEM_IUPAC_INCHI>
InChI=1S/C31H37N3O2/c1-2-20-34(27-17-18-28-26(22-27)11-8-12-29(28)30(32)35)21-7-6-19-33-31(36)25-15-13-24(14-16-25)23-9-4-3-5-10-23/h3-5,8-16,27H,2,6-7,17-22H2,1H3,(H2,32,35)(H,33,36)

> <PUBCHEM_IUPAC_INCHIKEY>
LKZYQJSJNFLIIO-UHFFFAOYSA-N

> <PUBCHEM_XLOGP3_AA>
5.8

> <PUBCHEM_EXACT_MASS>
483.28857743

> <PUBCHEM_MOLECULAR_FORMULA>
C31H37N3O2

> <PUBCHEM_MOLECULAR_WEIGHT>
483.6

> <PUBCHEM_OPENEYE_CAN_SMILES>
CCCN(CCCCNC(=O)C1=CC=C(C=C1)C2=CC=CC=C2)C3CCC4=C(C3)C=CC=C4C(=O)N

> <PUBCHEM_OPENEYE_ISO_SMILES>
CCCN(CCCCNC(=O)C1=CC=C(C=C1)C2=CC=CC=C2)C3CCC4=C(C3)C=CC=C4C(=O)N

> <PUBCHEM_CACTVS_TPSA>
75.4

> <PUBCHEM_MONOISOTOPIC_WEIGHT>
483.28857743

> <PUBCHEM_TOTAL_CHARGE>
0

> <PUBCHEM_HEAVY_ATOM_COUNT>
36

> <PUBCHEM_ATOM_DEF_STEREO_COUNT>
0

> <PUBCHEM_ATOM_UDEF_STEREO_COUNT>
1

> <PUBCHEM_BOND_DEF_STEREO_COUNT>
0

> <PUBCHEM_BOND_UDEF_STEREO_COUNT>
0

> <PUBCHEM_ISOTOPIC_ATOM_COUNT>
0

> <PUBCHEM_COMPONENT_COUNT>
1

> <PUBCHEM_CACTVS_TAUTO_COUNT>
-1

> <PUBCHEM_COORDINATE_TYPE>
1
5
255

> <PUBCHEM_BONDANNOTATIONS>
10  11  8
10  16  8
11  15  8
15  19  8
16  20  8
19  20  8
25  26  8
25  27  8
26  29  8
27  30  8
28  29  8
28  30  8
6  3  3
31  32  8
31  33  8
32  34  8
33  35  8
34  36  8
35  36  8

$$$$
