164615190
  -OEChem-09292322432D

 50 53  0     1  0  0  0  0  0999 V2000
    2.0812   -4.3916    0.0000 S   0  0  0  0  0  0  0  0  0  0  0  0
    5.4176    3.8045    0.0000 O   0  0  0  0  0  0  0  0  0  0  0  0
    8.0436    2.2698    0.0000 O   0  0  0  0  0  0  0  0  0  0  0  0
    2.0000   -2.3046    0.0000 O   0  0  0  0  0  0  0  0  0  0  0  0
    5.4176    1.7351    0.0000 N   0  0  3  0  0  0  0  0  0  0  0  0
    3.7319   -2.2846    0.0000 N   0  0  0  0  0  0  0  0  0  0  0  0
    6.3116    2.2698    0.0000 C   0  0  1  0  0  0  0  0  0  0  0  0
    6.3116    3.2698    0.0000 C   0  0  1  0  0  0  0  0  0  0  0  0
    4.5116    2.2490    0.0000 C   0  0  0  0  0  0  0  0  0  0  0  0
    7.1776    1.7698    0.0000 C   0  0  0  0  0  0  0  0  0  0  0  0
    5.4292    0.7352    0.0000 C   0  0  0  0  0  0  0  0  0  0  0  0
    7.1776    3.7698    0.0000 C   0  0  0  0  0  0  0  0  0  0  0  0
    4.5116    3.2906    0.0000 C   0  0  0  0  0  0  0  0  0  0  0  0
    4.5690    0.2252    0.0000 C   0  0  0  0  0  0  0  0  0  0  0  0
    8.0436    3.2698    0.0000 C   0  0  0  0  0  0  0  0  0  0  0  0
    4.5806   -0.7747    0.0000 C   0  0  0  0  0  0  0  0  0  0  0  0
    7.1615    4.8113    0.0000 C   0  0  0  0  0  0  0  0  0  0  0  0
    8.9536    3.7766    0.0000 C   0  0  0  0  0  0  0  0  0  0  0  0
    3.7204   -1.2847    0.0000 C   0  0  0  0  0  0  0  0  0  0  0  0
    8.0596    5.3391    0.0000 C   0  0  0  0  0  0  0  0  0  0  0  0
    8.9616    4.8182    0.0000 C   0  0  0  0  0  0  0  0  0  0  0  0
    2.8718   -2.7946    0.0000 C   0  0  0  0  0  0  0  0  0  0  0  0
    2.8833   -3.7945    0.0000 C   0  0  0  0  0  0  0  0  0  0  0  0
    3.6991   -4.3729    0.0000 C   0  0  0  0  0  0  0  0  0  0  0  0
    3.4011   -5.3275    0.0000 C   0  0  0  0  0  0  0  0  0  0  0  0
    2.4011   -5.3391    0.0000 C   0  0  0  0  0  0  0  0  0  0  0  0
    6.3181    1.4198    0.0000 H   0  0  0  0  0  0  0  0  0  0  0  0
    6.3181    4.1198    0.0000 H   0  0  0  0  0  0  0  0  0  0  0  0
    3.9007    2.3551    0.0000 H   0  0  0  0  0  0  0  0  0  0  0  0
    4.3025    1.6653    0.0000 H   0  0  0  0  0  0  0  0  0  0  0  0
    6.7791    1.2948    0.0000 H   0  0  0  0  0  0  0  0  0  0  0  0
    7.5761    1.2948    0.0000 H   0  0  0  0  0  0  0  0  0  0  0  0
    5.6480    0.1551    0.0000 H   0  0  0  0  0  0  0  0  0  0  0  0
    6.0385    0.8499    0.0000 H   0  0  0  0  0  0  0  0  0  0  0  0
    4.3025    3.8743    0.0000 H   0  0  0  0  0  0  0  0  0  0  0  0
    3.9007    3.1845    0.0000 H   0  0  0  0  0  0  0  0  0  0  0  0
    4.3502    0.8053    0.0000 H   0  0  0  0  0  0  0  0  0  0  0  0
    3.9597    0.1105    0.0000 H   0  0  0  0  0  0  0  0  0  0  0  0
    4.7993   -1.3548    0.0000 H   0  0  0  0  0  0  0  0  0  0  0  0
    5.1898   -0.6600    0.0000 H   0  0  0  0  0  0  0  0  0  0  0  0
    6.6210    5.1151    0.0000 H   0  0  0  0  0  0  0  0  0  0  0  0
    9.4869    3.4605    0.0000 H   0  0  0  0  0  0  0  0  0  0  0  0
    3.5016   -0.7046    0.0000 H   0  0  0  0  0  0  0  0  0  0  0  0
    3.1111   -1.3994    0.0000 H   0  0  0  0  0  0  0  0  0  0  0  0
    8.0572    5.9591    0.0000 H   0  0  0  0  0  0  0  0  0  0  0  0
    9.4998    5.1262    0.0000 H   0  0  0  0  0  0  0  0  0  0  0  0
    4.2724   -2.5884    0.0000 H   0  0  0  0  0  0  0  0  0  0  0  0
    4.2865   -4.1745    0.0000 H   0  0  0  0  0  0  0  0  0  0  0  0
    3.7713   -5.8248    0.0000 H   0  0  0  0  0  0  0  0  0  0  0  0
    2.0425   -5.8448    0.0000 H   0  0  0  0  0  0  0  0  0  0  0  0
  1 23  1  0  0  0  0
  1 26  1  0  0  0  0
  2  8  1  0  0  0  0
  2 13  1  0  0  0  0
  3 10  1  0  0  0  0
  3 15  1  0  0  0  0
  4 22  2  0  0  0  0
  5  7  1  0  0  0  0
  5  9  1  0  0  0  0
  5 11  1  0  0  0  0
  6 19  1  0  0  0  0
  6 22  1  0  0  0  0
  6 47  1  0  0  0  0
  7  8  1  0  0  0  0
  7 10  1  0  0  0  0
  7 27  1  6  0  0  0
  8 12  1  0  0  0  0
  8 28  1  1  0  0  0
  9 13  1  0  0  0  0
  9 29  1  0  0  0  0
  9 30  1  0  0  0  0
 10 31  1  0  0  0  0
 10 32  1  0  0  0  0
 11 14  1  0  0  0  0
 11 33  1  0  0  0  0
 11 34  1  0  0  0  0
 12 15  1  0  0  0  0
 12 17  2  0  0  0  0
 13 35  1  0  0  0  0
 13 36  1  0  0  0  0
 14 16  1  0  0  0  0
 14 37  1  0  0  0  0
 14 38  1  0  0  0  0
 15 18  2  0  0  0  0
 16 19  1  0  0  0  0
 16 39  1  0  0  0  0
 16 40  1  0  0  0  0
 17 20  1  0  0  0  0
 17 41  1  0  0  0  0
 18 21  1  0  0  0  0
 18 42  1  0  0  0  0
 19 43  1  0  0  0  0
 19 44  1  0  0  0  0
 20 21  2  0  0  0  0
 20 45  1  0  0  0  0
 21 46  1  0  0  0  0
 22 23  1  0  0  0  0
 23 24  2  0  0  0  0
 24 25  1  0  0  0  0
 24 48  1  0  0  0  0
 25 26  2  0  0  0  0
 25 49  1  0  0  0  0
 26 50  1  0  0  0  0
M  END
> <PUBCHEM_COMPOUND_CID>
164615190

> <PUBCHEM_COMPOUND_CANONICALIZED>
1

> <PUBCHEM_CACTVS_COMPLEXITY>
478

> <PUBCHEM_CACTVS_HBOND_ACCEPTOR>
5

> <PUBCHEM_CACTVS_HBOND_DONOR>
1

> <PUBCHEM_CACTVS_ROTATABLE_BOND>
6

> <PUBCHEM_CACTVS_SUBSKEYS>
AAADceB7MABAAAAAAAAAAAAAAAAAASAAAAA8SIAAAAAAAACxwAAAHgQQAAAADDzl2AawB4PABAiMAiFSEACDCIAkKBBIiJkODMgOJzKktRuHOSjl1hG4qYe4wKAOAAAAAAAIAAAAAAAAABAAAAAAAAAAAA==

> <PUBCHEM_IUPAC_OPENEYE_NAME>
N-[4-[(4aR,10bR)-3,4a,5,10b-tetrahydro-2H-chromeno[4,3-b][1,4]oxazin-4-yl]butyl]thiophene-2-carboxamide

> <PUBCHEM_IUPAC_CAS_NAME>
N-[4-[(4aR,10bR)-3,4a,5,10b-tetrahydro-2H-[1]benzopyrano[4,3-b][1,4]oxazin-4-yl]butyl]-2-thiophenecarboxamide

> <PUBCHEM_IUPAC_NAME_MARKUP>
<I>N</I>-[4-[(4<I>a</I><I>R</I>,10<I>b</I><I>R</I>)-3,4<I>a</I>,5,10<I>b</I>-tetrahydro-2<I>H</I>-chromeno[4,3-b][1,4]oxazin-4-yl]butyl]thiophene-2-carboxamide

> <PUBCHEM_IUPAC_NAME>
N-[4-[(4aR,10bR)-3,4a,5,10b-tetrahydro-2H-chromeno[4,3-b][1,4]oxazin-4-yl]butyl]thiophene-2-carboxamide

> <PUBCHEM_IUPAC_SYSTEMATIC_NAME>
N-[4-[(4aR,10bR)-3,4a,5,10b-tetrahydro-2H-chromeno[4,3-b][1,4]oxazin-4-yl]butyl]thiophene-2-carboxamide

> <PUBCHEM_IUPAC_TRADITIONAL_NAME>
N-[4-[(4aR,10bR)-3,4a,5,10b-tetrahydro-2H-chromeno[4,3-b][1,4]oxazin-4-yl]butyl]thiophene-2-carboxamide

> <PUBCHEM_IUPAC_INCHI>
InChI=1S/C20H24N2O3S/c23-20(18-8-5-13-26-18)21-9-3-4-10-22-11-12-24-19-15-6-1-2-7-17(15)25-14-16(19)22/h1-2,5-8,13,16,19H,3-4,9-12,14H2,(H,21,23)/t16-,19-/m1/s1

> <PUBCHEM_IUPAC_INCHIKEY>
SVODCKBJAYKLJL-VQIMIIECSA-N

> <PUBCHEM_XLOGP3>
3.1

> <PUBCHEM_EXACT_MASS>
372.15076381

> <PUBCHEM_MOLECULAR_FORMULA>
C20H24N2O3S

> <PUBCHEM_MOLECULAR_WEIGHT>
372.5

> <PUBCHEM_OPENEYE_CAN_SMILES>
C1COC2C(N1CCCCNC(=O)C3=CC=CS3)COC4=CC=CC=C24

> <PUBCHEM_OPENEYE_ISO_SMILES>
C1CO[C@H]2[C@H](N1CCCCNC(=O)C3=CC=CS3)COC4=CC=CC=C24

> <PUBCHEM_CACTVS_TPSA>
79

> <PUBCHEM_MONOISOTOPIC_WEIGHT>
372.15076381

> <PUBCHEM_TOTAL_CHARGE>
0

> <PUBCHEM_HEAVY_ATOM_COUNT>
26

> <PUBCHEM_ATOM_DEF_STEREO_COUNT>
2

> <PUBCHEM_ATOM_UDEF_STEREO_COUNT>
0

> <PUBCHEM_BOND_DEF_STEREO_COUNT>
0

> <PUBCHEM_BOND_UDEF_STEREO_COUNT>
0

> <PUBCHEM_ISOTOPIC_ATOM_COUNT>
0

> <PUBCHEM_COMPONENT_COUNT>
1

> <PUBCHEM_CACTVS_TAUTO_COUNT>
-1

> <PUBCHEM_COORDINATE_TYPE>
1
5
255

> <PUBCHEM_BONDANNOTATIONS>
1  23  8
1  26  8
12  15  8
12  17  8
15  18  8
17  20  8
18  21  8
20  21  8
23  24  8
24  25  8
25  26  8
7  27  6
8  28  5

$$$$
