44296016
  -OEChem-09292321582D

 51 55  0     0  0  0  0  0  0999 V2000
    5.8616    1.3111    0.0000 N   0  0  0  0  0  0  0  0  0  0  0  0
    6.7582   -2.0349    0.0000 N   0  0  0  0  0  0  0  0  0  0  0  0
    5.5334   -3.2597    0.0000 N   0  0  0  0  0  0  0  0  0  0  0  0
    7.2064   -3.7080    0.0000 N   0  0  0  0  0  0  0  0  0  0  0  0
    5.4133    2.9842    0.0000 C   0  0  0  0  0  0  0  0  0  0  0  0
    5.6721    3.9501    0.0000 C   0  0  0  0  0  0  0  0  0  0  0  0
    4.9355    4.9327    0.0000 C   0  0  0  0  0  0  0  0  0  0  0  0
    6.8122    2.4754    0.0000 C   0  0  0  0  0  0  0  0  0  0  0  0
    4.0406    2.3922    0.0000 C   0  0  0  0  0  0  0  0  0  0  0  0
    7.0711    3.4413    0.0000 C   0  0  0  0  0  0  0  0  0  0  0  0
    3.6986    3.3318    0.0000 C   0  0  0  0  0  0  0  0  0  0  0  0
    5.1545    2.0182    0.0000 C   0  0  0  0  0  0  0  0  0  0  0  0
    7.5373    1.7275    0.0000 C   0  0  0  0  0  0  0  0  0  0  0  0
    3.3834    1.5840    0.0000 C   0  0  0  0  0  0  0  0  0  0  0  0
    8.0729    3.7264    0.0000 C   0  0  0  0  0  0  0  0  0  0  0  0
    2.6757    3.5285    0.0000 C   0  0  0  0  0  0  0  0  0  0  0  0
    8.5455    1.9894    0.0000 C   0  0  0  0  0  0  0  0  0  0  0  0
    2.3563    1.7570    0.0000 C   0  0  0  0  0  0  0  0  0  0  0  0
    8.8151    2.9955    0.0000 C   0  0  0  0  0  0  0  0  0  0  0  0
    2.0000    2.7358    0.0000 C   0  0  0  0  0  0  0  0  0  0  0  0
    5.6028    0.3452    0.0000 C   0  0  0  0  0  0  0  0  0  0  0  0
    6.3099   -0.3619    0.0000 C   0  0  0  0  0  0  0  0  0  0  0  0
    6.0511   -1.3278    0.0000 C   0  0  0  0  0  0  0  0  0  0  0  0
    6.4993   -3.0009    0.0000 C   0  0  0  0  0  0  0  0  0  0  0  0
    5.2746   -4.2256    0.0000 C   0  0  0  0  0  0  0  0  0  0  0  0
    6.9476   -4.6739    0.0000 C   0  0  0  0  0  0  0  0  0  0  0  0
    5.9817   -4.9327    0.0000 C   0  0  0  0  0  0  0  0  0  0  0  0
    6.0415    4.4481    0.0000 H   0  0  0  0  0  0  0  0  0  0  0  0
    5.2533    5.4651    0.0000 H   0  0  0  0  0  0  0  0  0  0  0  0
    4.3224    5.0247    0.0000 H   0  0  0  0  0  0  0  0  0  0  0  0
    4.5926    2.2803    0.0000 H   0  0  0  0  0  0  0  0  0  0  0  0
    4.7989    1.5104    0.0000 H   0  0  0  0  0  0  0  0  0  0  0  0
    7.3700    1.1306    0.0000 H   0  0  0  0  0  0  0  0  0  0  0  0
    3.6022    1.0039    0.0000 H   0  0  0  0  0  0  0  0  0  0  0  0
    8.2264    4.3270    0.0000 H   0  0  0  0  0  0  0  0  0  0  0  0
    2.4704    4.1135    0.0000 H   0  0  0  0  0  0  0  0  0  0  0  0
    6.4605    1.4716    0.0000 H   0  0  0  0  0  0  0  0  0  0  0  0
    8.9822    1.5493    0.0000 H   0  0  0  0  0  0  0  0  0  0  0  0
    1.9596    1.2805    0.0000 H   0  0  0  0  0  0  0  0  0  0  0  0
    9.4134    3.1583    0.0000 H   0  0  0  0  0  0  0  0  0  0  0  0
    1.3898    2.8458    0.0000 H   0  0  0  0  0  0  0  0  0  0  0  0
    5.0409    0.6072    0.0000 H   0  0  0  0  0  0  0  0  0  0  0  0
    5.2472   -0.1627    0.0000 H   0  0  0  0  0  0  0  0  0  0  0  0
    6.8718   -0.6239    0.0000 H   0  0  0  0  0  0  0  0  0  0  0  0
    6.6655    0.1460    0.0000 H   0  0  0  0  0  0  0  0  0  0  0  0
    5.4892   -1.0658    0.0000 H   0  0  0  0  0  0  0  0  0  0  0  0
    5.6954   -1.8357    0.0000 H   0  0  0  0  0  0  0  0  0  0  0  0
    7.3570   -1.8745    0.0000 H   0  0  0  0  0  0  0  0  0  0  0  0
    7.3860   -5.1123    0.0000 H   0  0  0  0  0  0  0  0  0  0  0  0
    4.6757   -4.3861    0.0000 H   0  0  0  0  0  0  0  0  0  0  0  0
    5.8212   -5.5316    0.0000 H   0  0  0  0  0  0  0  0  0  0  0  0
  1 12  1  0  0  0  0
  1 21  1  0  0  0  0
  1 37  1  0  0  0  0
  2 23  1  0  0  0  0
  2 24  1  0  0  0  0
  2 48  1  0  0  0  0
  3 24  2  0  0  0  0
  3 25  1  0  0  0  0
  4 24  1  0  0  0  0
  4 26  2  0  0  0  0
  5  7  1  0  0  0  0
  5  8  1  0  0  0  0
  5  9  1  0  0  0  0
  5 12  1  0  0  0  0
  6  7  1  0  0  0  0
  6 10  1  0  0  0  0
  6 11  1  0  0  0  0
  6 28  1  0  0  0  0
  7 29  1  0  0  0  0
  7 30  1  0  0  0  0
  8 10  1  0  0  0  0
  8 13  2  0  0  0  0
  9 11  1  0  0  0  0
  9 14  2  0  0  0  0
 10 15  2  0  0  0  0
 11 16  2  0  0  0  0
 12 31  1  0  0  0  0
 12 32  1  0  0  0  0
 13 17  1  0  0  0  0
 13 33  1  0  0  0  0
 14 18  1  0  0  0  0
 14 34  1  0  0  0  0
 15 19  1  0  0  0  0
 15 35  1  0  0  0  0
 16 20  1  0  0  0  0
 16 36  1  0  0  0  0
 17 19  2  0  0  0  0
 17 38  1  0  0  0  0
 18 20  2  0  0  0  0
 18 39  1  0  0  0  0
 19 40  1  0  0  0  0
 20 41  1  0  0  0  0
 21 22  1  0  0  0  0
 21 42  1  0  0  0  0
 21 43  1  0  0  0  0
 22 23  1  0  0  0  0
 22 44  1  0  0  0  0
 22 45  1  0  0  0  0
 23 46  1  0  0  0  0
 23 47  1  0  0  0  0
 25 27  2  0  0  0  0
 25 50  1  0  0  0  0
 26 27  1  0  0  0  0
 26 49  1  0  0  0  0
 27 51  1  0  0  0  0
M  END
> <PUBCHEM_COMPOUND_CID>
44296016

> <PUBCHEM_COMPOUND_CANONICALIZED>
1

> <PUBCHEM_CACTVS_COMPLEXITY>
465

> <PUBCHEM_CACTVS_HBOND_ACCEPTOR>
4

> <PUBCHEM_CACTVS_HBOND_DONOR>
2

> <PUBCHEM_CACTVS_ROTATABLE_BOND>
7

> <PUBCHEM_CACTVS_SUBSKEYS>
AAADceB7gAAAAAAAAAAAAAAAAAAAAYMAAAA8YMEAAAAAAGAB0AAAHAAQAAAADwDBGgQ9kJbIEACgAjBnZACCgCkxAqAJ2KA4ZJiIKKLA2VGEJAgokALIiCcQgMAPgAAAAAAQAACAAAQAACAAAQAACAAAAA==

> <PUBCHEM_IUPAC_OPENEYE_NAME>
N'-pyrimidin-2-yl-N-(1-tetracyclo[6.6.1.02,7.09,14]pentadeca-2,4,6,9,11,13-hexaenylmethyl)propane-1,3-diamine

> <PUBCHEM_IUPAC_CAS_NAME>
N'-(2-pyrimidinyl)-N-(1-tetracyclo[6.6.1.02,7.09,14]pentadeca-2,4,6,9,11,13-hexaenylmethyl)propane-1,3-diamine

> <PUBCHEM_IUPAC_NAME_MARKUP>
<I>N</I>&apos;-pyrimidin-2-yl-<I>N</I>-(1-tetracyclo[6.6.1.0<SUP>2,7</SUP>.0<SUP>9,14</SUP>]pentadeca-2,4,6,9,11,13-hexaenylmethyl)propane-1,3-diamine

> <PUBCHEM_IUPAC_NAME>
N'-pyrimidin-2-yl-N-(1-tetracyclo[6.6.1.02,7.09,14]pentadeca-2,4,6,9,11,13-hexaenylmethyl)propane-1,3-diamine

> <PUBCHEM_IUPAC_SYSTEMATIC_NAME>
N'-pyrimidin-2-yl-N-(1-tetracyclo[6.6.1.02,7.09,14]pentadeca-2,4,6,9,11,13-hexaenylmethyl)propane-1,3-diamine

> <PUBCHEM_IUPAC_TRADITIONAL_NAME>
2-pyrimidyl-[3-(1-tetracyclo[6.6.1.02,7.09,14]pentadeca-2,4,6,9,11,13-hexaenylmethylamino)propyl]amine

> <PUBCHEM_IUPAC_INCHI>
InChI=1S/C23H24N4/c1-3-9-20-17(7-1)19-15-23(20,21-10-4-2-8-18(19)21)16-24-11-5-12-25-22-26-13-6-14-27-22/h1-4,6-10,13-14,19,24H,5,11-12,15-16H2,(H,25,26,27)

> <PUBCHEM_IUPAC_INCHIKEY>
UKWCIYZLSOGDMO-UHFFFAOYSA-N

> <PUBCHEM_XLOGP3_AA>
4.3

> <PUBCHEM_EXACT_MASS>
356.20009678

> <PUBCHEM_MOLECULAR_FORMULA>
C23H24N4

> <PUBCHEM_MOLECULAR_WEIGHT>
356.5

> <PUBCHEM_OPENEYE_CAN_SMILES>
C1C2C3=CC=CC=C3C1(C4=CC=CC=C24)CNCCCNC5=NC=CC=N5

> <PUBCHEM_OPENEYE_ISO_SMILES>
C1C2C3=CC=CC=C3C1(C4=CC=CC=C24)CNCCCNC5=NC=CC=N5

> <PUBCHEM_CACTVS_TPSA>
49.8

> <PUBCHEM_MONOISOTOPIC_WEIGHT>
356.20009678

> <PUBCHEM_TOTAL_CHARGE>
0

> <PUBCHEM_HEAVY_ATOM_COUNT>
27

> <PUBCHEM_ATOM_DEF_STEREO_COUNT>
0

> <PUBCHEM_ATOM_UDEF_STEREO_COUNT>
0

> <PUBCHEM_BOND_DEF_STEREO_COUNT>
0

> <PUBCHEM_BOND_UDEF_STEREO_COUNT>
0

> <PUBCHEM_ISOTOPIC_ATOM_COUNT>
0

> <PUBCHEM_COMPONENT_COUNT>
1

> <PUBCHEM_CACTVS_TAUTO_COUNT>
-1

> <PUBCHEM_COORDINATE_TYPE>
1
5
255

> <PUBCHEM_BONDANNOTATIONS>
10  15  8
11  16  8
13  17  8
14  18  8
15  19  8
16  20  8
17  19  8
18  20  8
25  27  8
26  27  8
3  24  8
3  25  8
4  24  8
4  26  8
8  10  8
8  13  8
9  11  8
9  14  8

$$$$
