45486893
  -OEChem-09292322292D

 58 63  0     1  0  0  0  0  0999 V2000
    2.0000   -0.9279    0.0000 F   0  0  0  0  0  0  0  0  0  0  0  0
   11.6592   -0.1114    0.0000 O   0  0  0  0  0  0  0  0  0  0  0  0
   13.8070    0.2047    0.0000 O   0  0  0  0  0  0  0  0  0  0  0  0
   15.5241    0.6597    0.0000 O   0  0  0  0  0  0  0  0  0  0  0  0
    8.7224   -0.7238    0.0000 N   0  0  0  0  0  0  0  0  0  0  0  0
    4.8717    1.9327    0.0000 N   0  0  0  0  0  0  0  0  0  0  0  0
   14.8794   -0.9955    0.0000 N   0  0  0  0  0  0  0  0  0  0  0  0
    7.0772   -0.1822    0.0000 C   0  0  3  0  0  0  0  0  0  0  0  0
    7.7435   -0.9279    0.0000 C   0  0  0  0  0  0  0  0  0  0  0  0
    7.3991    0.8084    0.0000 C   0  0  0  0  0  0  0  0  0  0  0  0
    6.0567   -0.3909    0.0000 C   0  0  0  0  0  0  0  0  0  0  0  0
    6.6962    1.5771    0.0000 C   0  0  0  0  0  0  0  0  0  0  0  0
    5.3717    0.3938    0.0000 C   0  0  0  0  0  0  0  0  0  0  0  0
    9.3887   -1.4695    0.0000 C   0  0  0  0  0  0  0  0  0  0  0  0
    9.0351    0.2261    0.0000 C   0  0  0  0  0  0  0  0  0  0  0  0
    5.6808    1.3449    0.0000 C   0  0  0  0  0  0  0  0  0  0  0  0
   10.6803   -0.3155    0.0000 C   0  0  0  0  0  0  0  0  0  0  0  0
   10.3676   -1.2654    0.0000 C   0  0  0  0  0  0  0  0  0  0  0  0
   10.0140    0.4302    0.0000 C   0  0  0  0  0  0  0  0  0  0  0  0
    4.3717    0.3938    0.0000 C   0  0  0  0  0  0  0  0  0  0  0  0
    4.0627    1.3449    0.0000 C   0  0  0  0  0  0  0  0  0  0  0  0
    3.6868   -0.3909    0.0000 C   0  0  0  0  0  0  0  0  0  0  0  0
    3.0473    1.5771    0.0000 C   0  0  0  0  0  0  0  0  0  0  0  0
   12.3255   -0.8571    0.0000 C   0  0  0  0  0  0  0  0  0  0  0  0
    2.6663   -0.1822    0.0000 C   0  0  0  0  0  0  0  0  0  0  0  0
    2.3444    0.8084    0.0000 C   0  0  0  0  0  0  0  0  0  0  0  0
   13.3044   -0.6529    0.0000 C   0  0  0  0  0  0  0  0  0  0  0  0
   12.0128   -1.8069    0.0000 C   0  0  0  0  0  0  0  0  0  0  0  0
   13.9707   -1.3987    0.0000 C   0  0  0  0  0  0  0  0  0  0  0  0
   12.6791   -2.5527    0.0000 C   0  0  0  0  0  0  0  0  0  0  0  0
   13.6580   -2.3485    0.0000 C   0  0  0  0  0  0  0  0  0  0  0  0
   14.7784   -0.0065    0.0000 C   0  0  0  0  0  0  0  0  0  0  0  0
    6.8822   -0.7707    0.0000 H   0  0  0  0  0  0  0  0  0  0  0  0
    7.2164   -1.2544    0.0000 H   0  0  0  0  0  0  0  0  0  0  0  0
    7.9735   -1.5037    0.0000 H   0  0  0  0  0  0  0  0  0  0  0  0
    7.9473    0.5188    0.0000 H   0  0  0  0  0  0  0  0  0  0  0  0
    7.7783    1.2990    0.0000 H   0  0  0  0  0  0  0  0  0  0  0  0
    5.5267   -0.7127    0.0000 H   0  0  0  0  0  0  0  0  0  0  0  0
    6.2830   -0.9681    0.0000 H   0  0  0  0  0  0  0  0  0  0  0  0
    7.2186    1.9111    0.0000 H   0  0  0  0  0  0  0  0  0  0  0  0
    6.4565    2.1490    0.0000 H   0  0  0  0  0  0  0  0  0  0  0  0
    8.8616   -1.7960    0.0000 H   0  0  0  0  0  0  0  0  0  0  0  0
    9.6187   -2.0452    0.0000 H   0  0  0  0  0  0  0  0  0  0  0  0
    9.0158    0.8458    0.0000 H   0  0  0  0  0  0  0  0  0  0  0  0
    8.4215    0.3147    0.0000 H   0  0  0  0  0  0  0  0  0  0  0  0
   11.0934   -0.7779    0.0000 H   0  0  0  0  0  0  0  0  0  0  0  0
   10.3869   -1.8851    0.0000 H   0  0  0  0  0  0  0  0  0  0  0  0
   10.9813   -1.3540    0.0000 H   0  0  0  0  0  0  0  0  0  0  0  0
   10.5411    0.7567    0.0000 H   0  0  0  0  0  0  0  0  0  0  0  0
    9.7840    1.0060    0.0000 H   0  0  0  0  0  0  0  0  0  0  0  0
    4.8717    2.5527    0.0000 H   0  0  0  0  0  0  0  0  0  0  0  0
    3.8852   -0.9783    0.0000 H   0  0  0  0  0  0  0  0  0  0  0  0
    2.8626    2.1690    0.0000 H   0  0  0  0  0  0  0  0  0  0  0  0
    1.7384    0.9397    0.0000 H   0  0  0  0  0  0  0  0  0  0  0  0
   11.4059   -1.9335    0.0000 H   0  0  0  0  0  0  0  0  0  0  0  0
   12.4852   -3.1416    0.0000 H   0  0  0  0  0  0  0  0  0  0  0  0
   14.0711   -2.8109    0.0000 H   0  0  0  0  0  0  0  0  0  0  0  0
   15.4156   -1.3066    0.0000 H   0  0  0  0  0  0  0  0  0  0  0  0
  1 25  1  0  0  0  0
  2 17  1  0  0  0  0
  2 24  1  0  0  0  0
  3 27  1  0  0  0  0
  3 32  1  0  0  0  0
  4 32  2  0  0  0  0
  5  9  1  0  0  0  0
  5 14  1  0  0  0  0
  5 15  1  0  0  0  0
  6 16  1  0  0  0  0
  6 21  1  0  0  0  0
  6 51  1  0  0  0  0
  7 29  1  0  0  0  0
  7 32  1  0  0  0  0
  7 58  1  0  0  0  0
  8  9  1  0  0  0  0
  8 10  1  0  0  0  0
  8 11  1  0  0  0  0
  8 33  1  0  0  0  0
  9 34  1  0  0  0  0
  9 35  1  0  0  0  0
 10 12  1  0  0  0  0
 10 36  1  0  0  0  0
 10 37  1  0  0  0  0
 11 13  1  0  0  0  0
 11 38  1  0  0  0  0
 11 39  1  0  0  0  0
 12 16  1  0  0  0  0
 12 40  1  0  0  0  0
 12 41  1  0  0  0  0
 13 16  2  0  0  0  0
 13 20  1  0  0  0  0
 14 18  1  0  0  0  0
 14 42  1  0  0  0  0
 14 43  1  0  0  0  0
 15 19  1  0  0  0  0
 15 44  1  0  0  0  0
 15 45  1  0  0  0  0
 17 18  1  0  0  0  0
 17 19  1  0  0  0  0
 17 46  1  0  0  0  0
 18 47  1  0  0  0  0
 18 48  1  0  0  0  0
 19 49  1  0  0  0  0
 19 50  1  0  0  0  0
 20 21  2  0  0  0  0
 20 22  1  0  0  0  0
 21 23  1  0  0  0  0
 22 25  2  0  0  0  0
 22 52  1  0  0  0  0
 23 26  2  0  0  0  0
 23 53  1  0  0  0  0
 24 27  1  0  0  0  0
 24 28  2  0  0  0  0
 25 26  1  0  0  0  0
 26 54  1  0  0  0  0
 27 29  2  0  0  0  0
 28 30  1  0  0  0  0
 28 55  1  0  0  0  0
 29 31  1  0  0  0  0
 30 31  2  0  0  0  0
 30 56  1  0  0  0  0
 31 57  1  0  0  0  0
M  END
> <PUBCHEM_COMPOUND_CID>
45486893

> <PUBCHEM_COMPOUND_CANONICALIZED>
1

> <PUBCHEM_CACTVS_COMPLEXITY>
687

> <PUBCHEM_CACTVS_HBOND_ACCEPTOR>
5

> <PUBCHEM_CACTVS_HBOND_DONOR>
2

> <PUBCHEM_CACTVS_ROTATABLE_BOND>
4

> <PUBCHEM_CACTVS_SUBSKEYS>
AAADceB7MQAAAAAAAAAAAAAAAAAAAWLAAAA8YMEAAAAAAFgB9AAAHwAQAAAADRzhng4wzvPJlACoAyRiXACCiCAhIiAImSA/7JkPJuLEsZuPOirm1Bna6AeQ0MMOgAAAAgACUAAQAAQEAASgAAAAAAAAAA==

> <PUBCHEM_IUPAC_OPENEYE_NAME>
7-[[1-[(6-fluoro-2,3,4,9-tetrahydro-1H-carbazol-3-yl)methyl]-4-piperidyl]oxy]-3H-1,3-benzoxazol-2-one

> <PUBCHEM_IUPAC_CAS_NAME>
7-[[1-[(6-fluoro-2,3,4,9-tetrahydro-1H-carbazol-3-yl)methyl]-4-piperidinyl]oxy]-3H-1,3-benzoxazol-2-one

> <PUBCHEM_IUPAC_NAME_MARKUP>
7-[1-[(6-fluoro-2,3,4,9-tetrahydro-1<I>H</I>-carbazol-3-yl)methyl]piperidin-4-yl]oxy-3<I>H</I>-1,3-benzoxazol-2-one

> <PUBCHEM_IUPAC_NAME>
7-[1-[(6-fluoro-2,3,4,9-tetrahydro-1H-carbazol-3-yl)methyl]piperidin-4-yl]oxy-3H-1,3-benzoxazol-2-one

> <PUBCHEM_IUPAC_SYSTEMATIC_NAME>
7-[1-[(6-fluoranyl-2,3,4,9-tetrahydro-1H-carbazol-3-yl)methyl]piperidin-4-yl]oxy-3H-1,3-benzoxazol-2-one

> <PUBCHEM_IUPAC_TRADITIONAL_NAME>
7-[[1-[(6-fluoro-2,3,4,9-tetrahydro-1H-carbazol-3-yl)methyl]-4-piperidyl]oxy]-3H-1,3-benzoxazol-2-one

> <PUBCHEM_IUPAC_INCHI>
InChI=1S/C25H26FN3O3/c26-16-5-7-21-19(13-16)18-12-15(4-6-20(18)27-21)14-29-10-8-17(9-11-29)31-23-3-1-2-22-24(23)32-25(30)28-22/h1-3,5,7,13,15,17,27H,4,6,8-12,14H2,(H,28,30)

> <PUBCHEM_IUPAC_INCHIKEY>
LFIZODYQZSDNLI-UHFFFAOYSA-N

> <PUBCHEM_XLOGP3_AA>
4.6

> <PUBCHEM_EXACT_MASS>
435.19581986

> <PUBCHEM_MOLECULAR_FORMULA>
C25H26FN3O3

> <PUBCHEM_MOLECULAR_WEIGHT>
435.5

> <PUBCHEM_OPENEYE_CAN_SMILES>
C1CC2=C(CC1CN3CCC(CC3)OC4=CC=CC5=C4OC(=O)N5)C6=C(N2)C=CC(=C6)F

> <PUBCHEM_OPENEYE_ISO_SMILES>
C1CC2=C(CC1CN3CCC(CC3)OC4=CC=CC5=C4OC(=O)N5)C6=C(N2)C=CC(=C6)F

> <PUBCHEM_CACTVS_TPSA>
66.6

> <PUBCHEM_MONOISOTOPIC_WEIGHT>
435.19581986

> <PUBCHEM_TOTAL_CHARGE>
0

> <PUBCHEM_HEAVY_ATOM_COUNT>
32

> <PUBCHEM_ATOM_DEF_STEREO_COUNT>
0

> <PUBCHEM_ATOM_UDEF_STEREO_COUNT>
1

> <PUBCHEM_BOND_DEF_STEREO_COUNT>
0

> <PUBCHEM_BOND_UDEF_STEREO_COUNT>
0

> <PUBCHEM_ISOTOPIC_ATOM_COUNT>
0

> <PUBCHEM_COMPONENT_COUNT>
1

> <PUBCHEM_CACTVS_TAUTO_COUNT>
-1

> <PUBCHEM_COORDINATE_TYPE>
1
5
255

> <PUBCHEM_BONDANNOTATIONS>
13  16  8
13  20  8
20  21  8
20  22  8
21  23  8
22  25  8
23  26  8
24  27  8
24  28  8
25  26  8
27  29  8
28  30  8
29  31  8
3  27  8
3  32  8
30  31  8
6  16  8
6  21  8
7  29  8
7  32  8
8  9  3

$$$$
