44415599
  -OEChem-09292322282D

 58 62  0     0  0  0  0  0  0999 V2000
    8.7204    0.4297    0.0000 Cl  0  0  0  0  0  0  0  0  0  0  0  0
    4.8830   -1.8973    0.0000 S   0  0  0  0  0  0  0  0  0  0  0  0
    5.8830   -1.8973    0.0000 O   0  0  0  0  0  0  0  0  0  0  0  0
    3.8830   -1.8973    0.0000 O   0  0  0  0  0  0  0  0  0  0  0  0
    3.9491    2.1944    0.0000 N   0  0  0  0  0  0  0  0  0  0  0  0
    3.0814    3.9963    0.0000 N   0  0  0  0  0  0  0  0  0  0  0  0
    4.8830   -0.8973    0.0000 N   0  0  0  0  0  0  0  0  0  0  0  0
    5.3830    1.2934    0.0000 N   0  0  0  0  0  0  0  0  0  0  0  0
    2.9519    2.2691    0.0000 C   0  0  0  0  0  0  0  0  0  0  0  0
    4.5125    3.0206    0.0000 C   0  0  0  0  0  0  0  0  0  0  0  0
    2.5180    3.1701    0.0000 C   0  0  0  0  0  0  0  0  0  0  0  0
    4.0786    3.9216    0.0000 C   0  0  0  0  0  0  0  0  0  0  0  0
    4.3830    1.2934    0.0000 C   0  0  0  0  0  0  0  0  0  0  0  0
    3.7595    0.5116    0.0000 C   0  0  0  0  0  0  0  0  0  0  0  0
    3.9820   -0.4634    0.0000 C   0  0  0  0  0  0  0  0  0  0  0  0
    2.6475    4.8973    0.0000 C   0  0  0  0  0  0  0  0  0  0  0  0
    5.7840   -0.4634    0.0000 C   0  0  0  0  0  0  0  0  0  0  0  0
    6.0065    0.5115    0.0000 C   0  0  0  0  0  0  0  0  0  0  0  0
    2.7690    0.8339    0.0000 C   0  0  0  0  0  0  0  0  0  0  0  0
    3.2295   -1.1836    0.0000 C   0  0  0  0  0  0  0  0  0  0  0  0
    4.8830   -2.8973    0.0000 C   0  0  0  0  0  0  0  0  0  0  0  0
    6.5365   -1.1836    0.0000 C   0  0  0  0  0  0  0  0  0  0  0  0
    2.0000    0.1313    0.0000 C   0  0  0  0  0  0  0  0  0  0  0  0
    6.9970    0.8339    0.0000 C   0  0  0  0  0  0  0  0  0  0  0  0
    2.2318   -0.8842    0.0000 C   0  0  0  0  0  0  0  0  0  0  0  0
    4.0169   -3.3973    0.0000 C   0  0  0  0  0  0  0  0  0  0  0  0
    7.5342   -0.8842    0.0000 C   0  0  0  0  0  0  0  0  0  0  0  0
    7.7660    0.1313    0.0000 C   0  0  0  0  0  0  0  0  0  0  0  0
    5.7490   -3.3973    0.0000 C   0  0  0  0  0  0  0  0  0  0  0  0
    4.0169   -4.3973    0.0000 C   0  0  0  0  0  0  0  0  0  0  0  0
    3.1509   -2.8972    0.0000 C   0  0  0  0  0  0  0  0  0  0  0  0
    5.7490   -4.3973    0.0000 C   0  0  0  0  0  0  0  0  0  0  0  0
    4.8830   -4.8973    0.0000 C   0  0  0  0  0  0  0  0  0  0  0  0
    2.3551    2.1012    0.0000 H   0  0  0  0  0  0  0  0  0  0  0  0
    3.0137    1.6522    0.0000 H   0  0  0  0  0  0  0  0  0  0  0  0
    4.9563    2.5877    0.0000 H   0  0  0  0  0  0  0  0  0  0  0  0
    5.0159    3.3825    0.0000 H   0  0  0  0  0  0  0  0  0  0  0  0
    2.0742    3.6030    0.0000 H   0  0  0  0  0  0  0  0  0  0  0  0
    2.0146    2.8081    0.0000 H   0  0  0  0  0  0  0  0  0  0  0  0
    4.6754    4.0895    0.0000 H   0  0  0  0  0  0  0  0  0  0  0  0
    4.0168    4.5385    0.0000 H   0  0  0  0  0  0  0  0  0  0  0  0
    3.2061    5.1663    0.0000 H   0  0  0  0  0  0  0  0  0  0  0  0
    2.3785    5.4559    0.0000 H   0  0  0  0  0  0  0  0  0  0  0  0
    2.0889    4.6283    0.0000 H   0  0  0  0  0  0  0  0  0  0  0  0
    2.6380    1.4399    0.0000 H   0  0  0  0  0  0  0  0  0  0  0  0
    3.3744   -1.7864    0.0000 H   0  0  0  0  0  0  0  0  0  0  0  0
    6.3916   -1.7864    0.0000 H   0  0  0  0  0  0  0  0  0  0  0  0
    1.4083    0.3164    0.0000 H   0  0  0  0  0  0  0  0  0  0  0  0
    7.1280    1.4399    0.0000 H   0  0  0  0  0  0  0  0  0  0  0  0
    1.7789   -1.3076    0.0000 H   0  0  0  0  0  0  0  0  0  0  0  0
    7.9871   -1.3077    0.0000 H   0  0  0  0  0  0  0  0  0  0  0  0
    6.2859   -3.0873    0.0000 H   0  0  0  0  0  0  0  0  0  0  0  0
    3.4800   -4.7073    0.0000 H   0  0  0  0  0  0  0  0  0  0  0  0
    3.4609   -2.3603    0.0000 H   0  0  0  0  0  0  0  0  0  0  0  0
    2.6140   -2.5872    0.0000 H   0  0  0  0  0  0  0  0  0  0  0  0
    2.8409   -3.4342    0.0000 H   0  0  0  0  0  0  0  0  0  0  0  0
    6.2859   -4.7073    0.0000 H   0  0  0  0  0  0  0  0  0  0  0  0
    4.8830   -5.5173    0.0000 H   0  0  0  0  0  0  0  0  0  0  0  0
  1 28  1  0  0  0  0
  2  3  2  0  0  0  0
  2  4  2  0  0  0  0
  2  7  1  0  0  0  0
  2 21  1  0  0  0  0
  5  9  1  0  0  0  0
  5 10  1  0  0  0  0
  5 13  1  0  0  0  0
  6 11  1  0  0  0  0
  6 12  1  0  0  0  0
  6 16  1  0  0  0  0
  7 15  1  0  0  0  0
  7 17  1  0  0  0  0
  8 13  2  0  0  0  0
  8 18  1  0  0  0  0
  9 11  1  0  0  0  0
  9 34  1  0  0  0  0
  9 35  1  0  0  0  0
 10 12  1  0  0  0  0
 10 36  1  0  0  0  0
 10 37  1  0  0  0  0
 11 38  1  0  0  0  0
 11 39  1  0  0  0  0
 12 40  1  0  0  0  0
 12 41  1  0  0  0  0
 13 14  1  0  0  0  0
 14 15  1  0  0  0  0
 14 19  2  0  0  0  0
 15 20  2  0  0  0  0
 16 42  1  0  0  0  0
 16 43  1  0  0  0  0
 16 44  1  0  0  0  0
 17 18  2  0  0  0  0
 17 22  1  0  0  0  0
 18 24  1  0  0  0  0
 19 23  1  0  0  0  0
 19 45  1  0  0  0  0
 20 25  1  0  0  0  0
 20 46  1  0  0  0  0
 21 26  1  0  0  0  0
 21 29  2  0  0  0  0
 22 27  2  0  0  0  0
 22 47  1  0  0  0  0
 23 25  2  0  0  0  0
 23 48  1  0  0  0  0
 24 28  2  0  0  0  0
 24 49  1  0  0  0  0
 25 50  1  0  0  0  0
 26 30  2  0  0  0  0
 26 31  1  0  0  0  0
 27 28  1  0  0  0  0
 27 51  1  0  0  0  0
 29 32  1  0  0  0  0
 29 52  1  0  0  0  0
 30 33  1  0  0  0  0
 30 53  1  0  0  0  0
 31 54  1  0  0  0  0
 31 55  1  0  0  0  0
 31 56  1  0  0  0  0
 32 33  2  0  0  0  0
 32 57  1  0  0  0  0
 33 58  1  0  0  0  0
M  END
> <PUBCHEM_COMPOUND_CID>
44415599

> <PUBCHEM_COMPOUND_CANONICALIZED>
1

> <PUBCHEM_CACTVS_COMPLEXITY>
823

> <PUBCHEM_CACTVS_HBOND_ACCEPTOR>
5

> <PUBCHEM_CACTVS_HBOND_DONOR>
0

> <PUBCHEM_CACTVS_ROTATABLE_BOND>
3

> <PUBCHEM_CACTVS_SUBSKEYS>
AAADceB7sABEAAAAAAAAAAAAAAAAAAAAAAA8YMEABAAAAAABUAAAHAYAQAAADArBWCQzwYMAAAKgAiZiZHDCABEhBwAJiBgodpgIYOLB25GUIAhggADIyAcQgAAOAABAAAIGACAAAIAABAwAQAAAAAAAAA==

> <PUBCHEM_IUPAC_OPENEYE_NAME>
3-chloro-6-(4-methylpiperazin-1-yl)-11-(o-tolylsulfonyl)benzo[b][1,4]benzodiazepine

> <PUBCHEM_IUPAC_CAS_NAME>
3-chloro-11-(2-methylphenyl)sulfonyl-6-(4-methyl-1-piperazinyl)benzo[b][1,4]benzodiazepine

> <PUBCHEM_IUPAC_NAME_MARKUP>
3-chloro-11-(2-methylphenyl)sulfonyl-6-(4-methylpiperazin-1-yl)benzo[b][1,4]benzodiazepine

> <PUBCHEM_IUPAC_NAME>
3-chloro-11-(2-methylphenyl)sulfonyl-6-(4-methylpiperazin-1-yl)benzo[b][1,4]benzodiazepine

> <PUBCHEM_IUPAC_SYSTEMATIC_NAME>
3-chloranyl-11-(2-methylphenyl)sulfonyl-6-(4-methylpiperazin-1-yl)benzo[b][1,4]benzodiazepine

> <PUBCHEM_IUPAC_TRADITIONAL_NAME>
3-chloro-6-(4-methylpiperazino)-11-(o-tolylsulfonyl)benzo[b][1,4]benzodiazepine

> <PUBCHEM_IUPAC_INCHI>
InChI=1S/C25H25ClN4O2S/c1-18-7-3-6-10-24(18)33(31,32)30-22-9-5-4-8-20(22)25(29-15-13-28(2)14-16-29)27-21-17-19(26)11-12-23(21)30/h3-12,17H,13-16H2,1-2H3

> <PUBCHEM_IUPAC_INCHIKEY>
NJGQJPYDIXHGGF-UHFFFAOYSA-N

> <PUBCHEM_XLOGP3_AA>
4.2

> <PUBCHEM_EXACT_MASS>
480.1386749

> <PUBCHEM_MOLECULAR_FORMULA>
C25H25ClN4O2S

> <PUBCHEM_MOLECULAR_WEIGHT>
481.0

> <PUBCHEM_OPENEYE_CAN_SMILES>
CC1=CC=CC=C1S(=O)(=O)N2C3=C(C=C(C=C3)Cl)N=C(C4=CC=CC=C42)N5CCN(CC5)C

> <PUBCHEM_OPENEYE_ISO_SMILES>
CC1=CC=CC=C1S(=O)(=O)N2C3=C(C=C(C=C3)Cl)N=C(C4=CC=CC=C42)N5CCN(CC5)C

> <PUBCHEM_CACTVS_TPSA>
64.6

> <PUBCHEM_MONOISOTOPIC_WEIGHT>
480.1386749

> <PUBCHEM_TOTAL_CHARGE>
0

> <PUBCHEM_HEAVY_ATOM_COUNT>
33

> <PUBCHEM_ATOM_DEF_STEREO_COUNT>
0

> <PUBCHEM_ATOM_UDEF_STEREO_COUNT>
0

> <PUBCHEM_BOND_DEF_STEREO_COUNT>
0

> <PUBCHEM_BOND_UDEF_STEREO_COUNT>
0

> <PUBCHEM_ISOTOPIC_ATOM_COUNT>
0

> <PUBCHEM_COMPONENT_COUNT>
1

> <PUBCHEM_CACTVS_TAUTO_COUNT>
-1

> <PUBCHEM_COORDINATE_TYPE>
1
5
255

> <PUBCHEM_BONDANNOTATIONS>
14  15  8
14  19  8
15  20  8
17  18  8
17  22  8
18  24  8
19  23  8
20  25  8
21  26  8
21  29  8
22  27  8
23  25  8
24  28  8
26  30  8
27  28  8
29  32  8
30  33  8
32  33  8

$$$$
