137635294
  -OEChem-09292322062D

 56 60  0     0  0  0  0  0  0999 V2000
   11.8031   -2.8022    0.0000 S   0  0  0  0  0  0  0  0  0  0  0  0
    2.4161    2.8022    0.0000 F   0  0  0  0  0  0  0  0  0  0  0  0
    3.4160    2.7906    0.0000 F   0  0  0  0  0  0  0  0  0  0  0  0
    4.6660   -1.1042    0.0000 O   0  0  0  0  0  0  0  0  0  0  0  0
    8.1301   -0.1042    0.0000 N   0  0  0  0  0  0  0  0  0  0  0  0
    9.8622   -1.1042    0.0000 N   0  0  0  0  0  0  0  0  0  0  0  0
    3.8000    0.3958    0.0000 N   0  0  0  0  0  0  0  0  0  0  0  0
    4.6660    1.8958    0.0000 N   0  0  0  0  0  0  0  0  0  0  0  0
   10.8313   -2.5930    0.0000 N   0  0  0  0  0  0  0  0  0  0  0  0
    8.1301   -1.1042    0.0000 C   0  0  0  0  0  0  0  0  0  0  0  0
    8.9962    0.3958    0.0000 C   0  0  0  0  0  0  0  0  0  0  0  0
    7.2641    0.3958    0.0000 C   0  0  0  0  0  0  0  0  0  0  0  0
    8.9962   -1.6042    0.0000 C   0  0  0  0  0  0  0  0  0  0  0  0
    9.8622   -0.1042    0.0000 C   0  0  0  0  0  0  0  0  0  0  0  0
    6.3981   -0.1042    0.0000 C   0  0  0  0  0  0  0  0  0  0  0  0
    2.9061   -0.1389    0.0000 C   0  0  0  0  0  0  0  0  0  0  0  0
    5.5321    0.3958    0.0000 C   0  0  0  0  0  0  0  0  0  0  0  0
    2.0000    0.3749    0.0000 C   0  0  0  0  0  0  0  0  0  0  0  0
    2.0000    1.4166    0.0000 C   0  0  0  0  0  0  0  0  0  0  0  0
    2.9061    1.9304    0.0000 C   0  0  0  0  0  0  0  0  0  0  0  0
    3.8000    1.3958    0.0000 C   0  0  0  0  0  0  0  0  0  0  0  0
    4.6660   -0.1042    0.0000 C   0  0  0  0  0  0  0  0  0  0  0  0
   10.7282   -1.6042    0.0000 C   0  0  0  0  0  0  0  0  0  0  0  0
    5.5321    1.3958    0.0000 C   0  0  0  0  0  0  0  0  0  0  0  0
   11.6360   -1.1991    0.0000 C   0  0  0  0  0  0  0  0  0  0  0  0
    6.3981    1.8958    0.0000 C   0  0  0  0  0  0  0  0  0  0  0  0
   12.3038   -1.9434    0.0000 C   0  0  0  0  0  0  0  0  0  0  0  0
   11.9467   -0.2486    0.0000 C   0  0  0  0  0  0  0  0  0  0  0  0
   13.2823   -1.7372    0.0000 C   0  0  0  0  0  0  0  0  0  0  0  0
   12.9252   -0.0424    0.0000 C   0  0  0  0  0  0  0  0  0  0  0  0
   13.5930   -0.7867    0.0000 C   0  0  0  0  0  0  0  0  0  0  0  0
    7.5196   -0.9966    0.0000 H   0  0  0  0  0  0  0  0  0  0  0  0
    7.9181   -1.6868    0.0000 H   0  0  0  0  0  0  0  0  0  0  0  0
    9.3947    0.8707    0.0000 H   0  0  0  0  0  0  0  0  0  0  0  0
    8.5976    0.8707    0.0000 H   0  0  0  0  0  0  0  0  0  0  0  0
    7.6626    0.8707    0.0000 H   0  0  0  0  0  0  0  0  0  0  0  0
    6.8656    0.8707    0.0000 H   0  0  0  0  0  0  0  0  0  0  0  0
    8.5976   -2.0792    0.0000 H   0  0  0  0  0  0  0  0  0  0  0  0
    9.3947   -2.0792    0.0000 H   0  0  0  0  0  0  0  0  0  0  0  0
   10.4728   -0.2119    0.0000 H   0  0  0  0  0  0  0  0  0  0  0  0
   10.0742    0.4784    0.0000 H   0  0  0  0  0  0  0  0  0  0  0  0
    5.9996   -0.5792    0.0000 H   0  0  0  0  0  0  0  0  0  0  0  0
    6.7966   -0.5792    0.0000 H   0  0  0  0  0  0  0  0  0  0  0  0
    2.5124   -0.6179    0.0000 H   0  0  0  0  0  0  0  0  0  0  0  0
    3.3107   -0.6087    0.0000 H   0  0  0  0  0  0  0  0  0  0  0  0
    1.3891    0.4810    0.0000 H   0  0  0  0  0  0  0  0  0  0  0  0
    1.7909   -0.2087    0.0000 H   0  0  0  0  0  0  0  0  0  0  0  0
    1.7909    2.0003    0.0000 H   0  0  0  0  0  0  0  0  0  0  0  0
    1.3891    1.3105    0.0000 H   0  0  0  0  0  0  0  0  0  0  0  0
    6.7081    1.3588    0.0000 H   0  0  0  0  0  0  0  0  0  0  0  0
    6.9350    2.2058    0.0000 H   0  0  0  0  0  0  0  0  0  0  0  0
    6.0881    2.4327    0.0000 H   0  0  0  0  0  0  0  0  0  0  0  0
   11.5326    0.2129    0.0000 H   0  0  0  0  0  0  0  0  0  0  0  0
   13.6964   -2.1987    0.0000 H   0  0  0  0  0  0  0  0  0  0  0  0
   13.1178    0.5469    0.0000 H   0  0  0  0  0  0  0  0  0  0  0  0
   14.1997   -0.6588    0.0000 H   0  0  0  0  0  0  0  0  0  0  0  0
  1  9  1  0  0  0  0
  1 27  1  0  0  0  0
  2 20  1  0  0  0  0
  3 20  1  0  0  0  0
  4 22  2  0  0  0  0
  5 10  1  0  0  0  0
  5 11  1  0  0  0  0
  5 12  1  0  0  0  0
  6 13  1  0  0  0  0
  6 14  1  0  0  0  0
  6 23  1  0  0  0  0
  7 16  1  0  0  0  0
  7 21  1  0  0  0  0
  7 22  1  0  0  0  0
  8 21  2  0  0  0  0
  8 24  1  0  0  0  0
  9 23  2  0  0  0  0
 10 13  1  0  0  0  0
 10 32  1  0  0  0  0
 10 33  1  0  0  0  0
 11 14  1  0  0  0  0
 11 34  1  0  0  0  0
 11 35  1  0  0  0  0
 12 15  1  0  0  0  0
 12 36  1  0  0  0  0
 12 37  1  0  0  0  0
 13 38  1  0  0  0  0
 13 39  1  0  0  0  0
 14 40  1  0  0  0  0
 14 41  1  0  0  0  0
 15 17  1  0  0  0  0
 15 42  1  0  0  0  0
 15 43  1  0  0  0  0
 16 18  1  0  0  0  0
 16 44  1  0  0  0  0
 16 45  1  0  0  0  0
 17 22  1  0  0  0  0
 17 24  2  0  0  0  0
 18 19  1  0  0  0  0
 18 46  1  0  0  0  0
 18 47  1  0  0  0  0
 19 20  1  0  0  0  0
 19 48  1  0  0  0  0
 19 49  1  0  0  0  0
 20 21  1  0  0  0  0
 23 25  1  0  0  0  0
 24 26  1  0  0  0  0
 25 27  1  0  0  0  0
 25 28  2  0  0  0  0
 26 50  1  0  0  0  0
 26 51  1  0  0  0  0
 26 52  1  0  0  0  0
 27 29  2  0  0  0  0
 28 30  1  0  0  0  0
 28 53  1  0  0  0  0
 29 31  1  0  0  0  0
 29 54  1  0  0  0  0
 30 31  2  0  0  0  0
 30 55  1  0  0  0  0
 31 56  1  0  0  0  0
M  END
> <PUBCHEM_COMPOUND_CID>
137635294

> <PUBCHEM_COMPOUND_CANONICALIZED>
1

> <PUBCHEM_CACTVS_COMPLEXITY>
780

> <PUBCHEM_CACTVS_HBOND_ACCEPTOR>
8

> <PUBCHEM_CACTVS_HBOND_DONOR>
0

> <PUBCHEM_CACTVS_ROTATABLE_BOND>
4

> <PUBCHEM_CACTVS_SUBSKEYS>
AAADceB7oYBAAAAAAAAAAAAAAAAAAWAAAAA8WIEAAAAAAFiB8AAAHwQAQAAADAjB2hQzsdMAAACsAidydACDABEhAABJmDkoRNiIYLLAmZGUIAxghgLIyUcUgAAOAAAAAAAEAAAAAAAAAAgAAAAAAAAAAA==

> <PUBCHEM_IUPAC_OPENEYE_NAME>
3-[2-[4-(1,2-benzothiazol-3-yl)piperazin-1-yl]ethyl]-9,9-difluoro-2-methyl-7,8-dihydro-6H-pyrido[1,2-a]pyrimidin-4-one

> <PUBCHEM_IUPAC_CAS_NAME>
3-[2-[4-(1,2-benzothiazol-3-yl)-1-piperazinyl]ethyl]-9,9-difluoro-2-methyl-7,8-dihydro-6H-pyrido[1,2-a]pyrimidin-4-one

> <PUBCHEM_IUPAC_NAME_MARKUP>
3-[2-[4-(1,2-benzothiazol-3-yl)piperazin-1-yl]ethyl]-9,9-difluoro-2-methyl-7,8-dihydro-6<I>H</I>-pyrido[1,2-a]pyrimidin-4-one

> <PUBCHEM_IUPAC_NAME>
3-[2-[4-(1,2-benzothiazol-3-yl)piperazin-1-yl]ethyl]-9,9-difluoro-2-methyl-7,8-dihydro-6H-pyrido[1,2-a]pyrimidin-4-one

> <PUBCHEM_IUPAC_SYSTEMATIC_NAME>
3-[2-[4-(1,2-benzothiazol-3-yl)piperazin-1-yl]ethyl]-9,9-bis(fluoranyl)-2-methyl-7,8-dihydro-6H-pyrido[1,2-a]pyrimidin-4-one

> <PUBCHEM_IUPAC_TRADITIONAL_NAME>
3-[2-[4-(1,2-benzothiazol-3-yl)piperazino]ethyl]-9,9-difluoro-2-methyl-7,8-dihydro-6H-pyrido[1,2-a]pyrimidin-4-one

> <PUBCHEM_IUPAC_INCHI>
InChI=1S/C22H25F2N5OS/c1-15-16(20(30)29-9-4-8-22(23,24)21(29)25-15)7-10-27-11-13-28(14-12-27)19-17-5-2-3-6-18(17)31-26-19/h2-3,5-6H,4,7-14H2,1H3

> <PUBCHEM_IUPAC_INCHIKEY>
XURAMCXXLDOPJF-UHFFFAOYSA-N

> <PUBCHEM_XLOGP3_AA>
3.6

> <PUBCHEM_EXACT_MASS>
445.17478794

> <PUBCHEM_MOLECULAR_FORMULA>
C22H25F2N5OS

> <PUBCHEM_MOLECULAR_WEIGHT>
445.5

> <PUBCHEM_OPENEYE_CAN_SMILES>
CC1=C(C(=O)N2CCCC(C2=N1)(F)F)CCN3CCN(CC3)C4=NSC5=CC=CC=C54

> <PUBCHEM_OPENEYE_ISO_SMILES>
CC1=C(C(=O)N2CCCC(C2=N1)(F)F)CCN3CCN(CC3)C4=NSC5=CC=CC=C54

> <PUBCHEM_CACTVS_TPSA>
80.3

> <PUBCHEM_MONOISOTOPIC_WEIGHT>
445.17478794

> <PUBCHEM_TOTAL_CHARGE>
0

> <PUBCHEM_HEAVY_ATOM_COUNT>
31

> <PUBCHEM_ATOM_DEF_STEREO_COUNT>
0

> <PUBCHEM_ATOM_UDEF_STEREO_COUNT>
0

> <PUBCHEM_BOND_DEF_STEREO_COUNT>
0

> <PUBCHEM_BOND_UDEF_STEREO_COUNT>
0

> <PUBCHEM_ISOTOPIC_ATOM_COUNT>
0

> <PUBCHEM_COMPONENT_COUNT>
1

> <PUBCHEM_CACTVS_TAUTO_COUNT>
-1

> <PUBCHEM_COORDINATE_TYPE>
1
5
255

> <PUBCHEM_BONDANNOTATIONS>
1  27  8
1  9  8
17  22  8
17  24  8
23  25  8
25  27  8
25  28  8
27  29  8
28  30  8
29  31  8
30  31  8
7  21  8
7  22  8
8  21  8
8  24  8
9  23  8

$$$$
