118717221
  -OEChem-09292322472D

 42 44  0     1  0  0  0  0  0999 V2000
    4.2826    0.0000    0.0000 Cl  0  0  0  0  0  0  0  0  0  0  0  0
    5.6230    4.1077    0.0000 O   0  0  0  0  0  0  0  0  0  0  0  0
    2.6219    4.6558    0.0000 O   0  0  0  0  0  0  0  0  0  0  0  0
    2.2553    6.3486    0.0000 N   0  0  0  0  0  0  0  0  0  0  0  0
    0.6060    6.8775    0.0000 N   0  0  0  0  0  0  0  0  0  0  0  0
    0.9726    5.1847    0.0000 N   0  0  0  0  0  0  0  0  0  0  0  0
    6.4320    4.6955    0.0000 C   0  0  3  0  0  0  0  0  0  0  0  0
    7.2410    4.1077    0.0000 C   0  0  0  0  0  0  0  0  0  0  0  0
    5.6230    5.2833    0.0000 C   0  0  0  0  0  0  0  0  0  0  0  0
    7.2410    5.2833    0.0000 C   0  0  0  0  0  0  0  0  0  0  0  0
    6.9320    3.1566    0.0000 C   0  0  0  0  0  0  0  0  0  0  0  0
    5.9320    6.2343    0.0000 C   0  0  0  0  0  0  0  0  0  0  0  0
    5.9320    3.1566    0.0000 C   0  0  0  0  0  0  0  0  0  0  0  0
    6.9320    6.2343    0.0000 C   0  0  0  0  0  0  0  0  0  0  0  0
    4.6075    5.0510    0.0000 C   0  0  0  0  0  0  0  0  0  0  0  0
    8.2564    5.0510    0.0000 C   0  0  0  0  0  0  0  0  0  0  0  0
    5.2470    7.0190    0.0000 C   0  0  0  0  0  0  0  0  0  0  0  0
    7.6169    7.0190    0.0000 C   0  0  0  0  0  0  0  0  0  0  0  0
    3.9046    5.8197    0.0000 C   0  0  0  0  0  0  0  0  0  0  0  0
    4.2265    6.8104    0.0000 C   0  0  0  0  0  0  0  0  0  0  0  0
    8.9593    5.8197    0.0000 C   0  0  0  0  0  0  0  0  0  0  0  0
    8.6374    6.8104    0.0000 C   0  0  0  0  0  0  0  0  0  0  0  0
    2.9273    5.6080    0.0000 C   0  0  0  0  0  0  0  0  0  0  0  0
    1.2779    6.1369    0.0000 C   0  0  0  0  0  0  0  0  0  0  0  0
    7.8074    3.8555    0.0000 H   0  0  0  0  0  0  0  0  0  0  0  0
    7.5510    4.6446    0.0000 H   0  0  0  0  0  0  0  0  0  0  0  0
    6.8672    2.5400    0.0000 H   0  0  0  0  0  0  0  0  0  0  0  0
    7.5384    3.0277    0.0000 H   0  0  0  0  0  0  0  0  0  0  0  0
    5.3255    3.0277    0.0000 H   0  0  0  0  0  0  0  0  0  0  0  0
    5.9968    2.5400    0.0000 H   0  0  0  0  0  0  0  0  0  0  0  0
    4.4228    4.4592    0.0000 H   0  0  0  0  0  0  0  0  0  0  0  0
    8.4412    4.4592    0.0000 H   0  0  0  0  0  0  0  0  0  0  0  0
    5.4454    7.6064    0.0000 H   0  0  0  0  0  0  0  0  0  0  0  0
    7.4185    7.6064    0.0000 H   0  0  0  0  0  0  0  0  0  0  0  0
    3.8134    7.2727    0.0000 H   0  0  0  0  0  0  0  0  0  0  0  0
    9.5653    5.6884    0.0000 H   0  0  0  0  0  0  0  0  0  0  0  0
    9.0505    7.2727    0.0000 H   0  0  0  0  0  0  0  0  0  0  0  0
    0.0000    6.7462    0.0000 H   0  0  0  0  0  0  0  0  0  0  0  0
    0.7953    7.4678    0.0000 H   0  0  0  0  0  0  0  0  0  0  0  0
    0.3666    5.0534    0.0000 H   0  0  0  0  0  0  0  0  0  0  0  0
    1.3892    4.7255    0.0000 H   0  0  0  0  0  0  0  0  0  0  0  0
    5.2826    0.0000    0.0000 H   0  0  0  0  0  0  0  0  0  0  0  0
  1 42  1  0  0  0  0
  2  7  1  0  0  0  0
  2 13  1  0  0  0  0
  3 23  2  0  0  0  0
  4 23  1  0  0  0  0
  4 24  2  0  0  0  0
  5 24  1  0  0  0  0
  5 38  1  0  0  0  0
  5 39  1  0  0  0  0
  6 24  1  0  0  0  0
  6 40  1  0  0  0  0
  6 41  1  0  0  0  0
  7  8  1  0  0  0  0
  7  9  1  0  0  0  0
  7 10  1  0  0  0  0
  8 11  1  0  0  0  0
  8 25  1  0  0  0  0
  8 26  1  0  0  0  0
  9 12  2  0  0  0  0
  9 15  1  0  0  0  0
 10 14  1  0  0  0  0
 10 16  2  0  0  0  0
 11 13  1  0  0  0  0
 11 27  1  0  0  0  0
 11 28  1  0  0  0  0
 12 14  1  0  0  0  0
 12 17  1  0  0  0  0
 13 29  1  0  0  0  0
 13 30  1  0  0  0  0
 14 18  2  0  0  0  0
 15 19  2  0  0  0  0
 15 31  1  0  0  0  0
 16 21  1  0  0  0  0
 16 32  1  0  0  0  0
 17 20  2  0  0  0  0
 17 33  1  0  0  0  0
 18 22  1  0  0  0  0
 18 34  1  0  0  0  0
 19 20  1  0  0  0  0
 19 23  1  0  0  0  0
 20 35  1  0  0  0  0
 21 22  2  0  0  0  0
 21 36  1  0  0  0  0
 22 37  1  0  0  0  0
M  END
> <PUBCHEM_COMPOUND_CID>
118717221

> <PUBCHEM_COMPOUND_CANONICALIZED>
1

> <PUBCHEM_CACTVS_COMPLEXITY>
516

> <PUBCHEM_CACTVS_HBOND_ACCEPTOR>
2

> <PUBCHEM_CACTVS_HBOND_DONOR>
3

> <PUBCHEM_CACTVS_ROTATABLE_BOND>
1

> <PUBCHEM_CACTVS_SUBSKEYS>
AAADceB7MAAEAAAAAAAAAAAAAAAAAaIAAAAwYAAAAAAAAGABQAAAHgAQAAAADEShmAIxAIJABACoAiFSNACCAAEkAAAIiAEADMgIJjKAtRmCMQBkwAEIqYeY3PDOwAACAAAQAACAAAQAACAAAYAADAAAAA==

> <PUBCHEM_IUPAC_OPENEYE_NAME>
N-(diaminomethylene)spiro[fluorene-9,2'-tetrahydrofuran]-2-carboxamide;hydrochloride

> <PUBCHEM_IUPAC_CAS_NAME>
N-(diaminomethylidene)-2-spiro[fluorene-9,2'-oxolane]carboxamide;hydrochloride

> <PUBCHEM_IUPAC_NAME_MARKUP>
<I>N</I>-(diaminomethylidene)spiro[fluorene-9,2&apos;-oxolane]-2-carboxamide;hydrochloride

> <PUBCHEM_IUPAC_NAME>
N-(diaminomethylidene)spiro[fluorene-9,2'-oxolane]-2-carboxamide;hydrochloride

> <PUBCHEM_IUPAC_SYSTEMATIC_NAME>
N-[bis(azanyl)methylidene]spiro[fluorene-9,2'-oxolane]-2-carboxamide;hydrochloride

> <PUBCHEM_IUPAC_TRADITIONAL_NAME>
N-(diaminomethylene)spiro[fluorene-9,2'-tetrahydrofuran]-2-carboxamide;hydrochloride

> <PUBCHEM_IUPAC_INCHI>
InChI=1S/C18H17N3O2.ClH/c19-17(20)21-16(22)11-6-7-13-12-4-1-2-5-14(12)18(15(13)10-11)8-3-9-23-18;/h1-2,4-7,10H,3,8-9H2,(H4,19,20,21,22);1H

> <PUBCHEM_IUPAC_INCHIKEY>
VZIRLMPZNVYXDY-UHFFFAOYSA-N

> <PUBCHEM_EXACT_MASS>
343.1087545

> <PUBCHEM_MOLECULAR_FORMULA>
C18H18ClN3O2

> <PUBCHEM_MOLECULAR_WEIGHT>
343.8

> <PUBCHEM_OPENEYE_CAN_SMILES>
C1CC2(C3=CC=CC=C3C4=C2C=C(C=C4)C(=O)N=C(N)N)OC1.Cl

> <PUBCHEM_OPENEYE_ISO_SMILES>
C1CC2(C3=CC=CC=C3C4=C2C=C(C=C4)C(=O)N=C(N)N)OC1.Cl

> <PUBCHEM_CACTVS_TPSA>
90.7

> <PUBCHEM_MONOISOTOPIC_WEIGHT>
343.1087545

> <PUBCHEM_TOTAL_CHARGE>
0

> <PUBCHEM_HEAVY_ATOM_COUNT>
24

> <PUBCHEM_ATOM_DEF_STEREO_COUNT>
0

> <PUBCHEM_ATOM_UDEF_STEREO_COUNT>
1

> <PUBCHEM_BOND_DEF_STEREO_COUNT>
0

> <PUBCHEM_BOND_UDEF_STEREO_COUNT>
0

> <PUBCHEM_ISOTOPIC_ATOM_COUNT>
0

> <PUBCHEM_COMPONENT_COUNT>
2

> <PUBCHEM_CACTVS_TAUTO_COUNT>
-1

> <PUBCHEM_COORDINATE_TYPE>
1
5
255

> <PUBCHEM_BONDANNOTATIONS>
10  14  8
10  16  8
12  17  8
14  18  8
15  19  8
16  21  8
17  20  8
18  22  8
19  20  8
21  22  8
7  8  3
9  12  8
9  15  8

$$$$
