44533248
  -OEChem-09292322102D

 68 71  0     1  0  0  0  0  0999 V2000
    8.1960    0.0000    0.0000 Cl  0  0  0  0  0  0  0  0  0  0  0  0
   11.3224    5.7773    0.0000 O   0  0  0  0  0  0  0  0  0  0  0  0
    5.2602    6.2773    0.0000 N   0  0  3  0  0  0  0  0  0  0  0  0
   10.4564    4.2773    0.0000 N   0  0  0  0  0  0  0  0  0  0  0  0
   14.9954    3.0794    0.0000 N   0  0  0  0  0  0  0  0  0  0  0  0
    0.0000    5.2498    0.0000 N   0  0  0  0  0  0  0  0  0  0  0  0
    7.8583    5.7773    0.0000 C   0  0  0  0  0  0  0  0  0  0  0  0
    7.8583    4.7773    0.0000 C   0  0  0  0  0  0  0  0  0  0  0  0
    8.7243    6.2773    0.0000 C   0  0  0  0  0  0  0  0  0  0  0  0
    9.5904    4.7773    0.0000 C   0  0  0  0  0  0  0  0  0  0  0  0
    8.7243    4.2773    0.0000 C   0  0  0  0  0  0  0  0  0  0  0  0
    9.5904    5.7773    0.0000 C   0  0  0  0  0  0  0  0  0  0  0  0
    6.9923    6.2773    0.0000 C   0  0  0  0  0  0  0  0  0  0  0  0
    6.1263    5.7773    0.0000 C   0  0  0  0  0  0  0  0  0  0  0  0
    5.2602    7.2773    0.0000 C   0  0  0  0  0  0  0  0  0  0  0  0
    4.3942    5.7773    0.0000 C   0  0  0  0  0  0  0  0  0  0  0  0
    4.3942    7.7773    0.0000 C   0  0  0  0  0  0  0  0  0  0  0  0
    3.5282    6.2773    0.0000 C   0  0  0  0  0  0  0  0  0  0  0  0
    3.5282    7.2773    0.0000 C   0  0  0  0  0  0  0  0  0  0  0  0
   11.3224    4.7773    0.0000 C   0  0  0  0  0  0  0  0  0  0  0  0
    2.6343    5.7427    0.0000 C   0  0  0  0  0  0  0  0  0  0  0  0
    2.6343    7.8120    0.0000 C   0  0  0  0  0  0  0  0  0  0  0  0
   12.1884    4.2773    0.0000 C   0  0  0  0  0  0  0  0  0  0  0  0
    1.7282    6.2565    0.0000 C   0  0  0  0  0  0  0  0  0  0  0  0
    1.7282    7.2982    0.0000 C   0  0  0  0  0  0  0  0  0  0  0  0
   13.0545    4.7773    0.0000 C   0  0  0  0  0  0  0  0  0  0  0  0
   13.9205    4.2773    0.0000 C   0  0  0  0  0  0  0  0  0  0  0  0
    0.8641    5.7532    0.0000 C   0  0  0  0  0  0  0  0  0  0  0  0
   14.8283    4.6824    0.0000 C   0  0  0  0  0  0  0  0  0  0  0  0
   14.0236    3.2886    0.0000 C   0  0  0  0  0  0  0  0  0  0  0  0
   15.4961    3.9381    0.0000 C   0  0  0  0  0  0  0  0  0  0  0  0
   15.1389    5.6330    0.0000 C   0  0  0  0  0  0  0  0  0  0  0  0
   16.4746    4.1444    0.0000 C   0  0  0  0  0  0  0  0  0  0  0  0
   16.1175    5.8392    0.0000 C   0  0  0  0  0  0  0  0  0  0  0  0
   16.7853    5.0949    0.0000 C   0  0  0  0  0  0  0  0  0  0  0  0
    7.3214    5.4673    0.0000 H   0  0  0  0  0  0  0  0  0  0  0  0
    7.2477    4.8850    0.0000 H   0  0  0  0  0  0  0  0  0  0  0  0
    7.6463    4.1947    0.0000 H   0  0  0  0  0  0  0  0  0  0  0  0
    9.1229    6.7523    0.0000 H   0  0  0  0  0  0  0  0  0  0  0  0
    8.3258    6.7523    0.0000 H   0  0  0  0  0  0  0  0  0  0  0  0
   10.1273    5.0873    0.0000 H   0  0  0  0  0  0  0  0  0  0  0  0
    8.3258    3.8024    0.0000 H   0  0  0  0  0  0  0  0  0  0  0  0
    9.1229    3.8024    0.0000 H   0  0  0  0  0  0  0  0  0  0  0  0
   10.2010    5.6697    0.0000 H   0  0  0  0  0  0  0  0  0  0  0  0
    9.8024    6.3599    0.0000 H   0  0  0  0  0  0  0  0  0  0  0  0
    7.3908    6.7523    0.0000 H   0  0  0  0  0  0  0  0  0  0  0  0
    6.5938    6.7523    0.0000 H   0  0  0  0  0  0  0  0  0  0  0  0
    5.7277    5.3024    0.0000 H   0  0  0  0  0  0  0  0  0  0  0  0
    6.5248    5.3024    0.0000 H   0  0  0  0  0  0  0  0  0  0  0  0
   10.4564    3.6573    0.0000 H   0  0  0  0  0  0  0  0  0  0  0  0
    5.8708    7.1697    0.0000 H   0  0  0  0  0  0  0  0  0  0  0  0
    5.4723    7.8599    0.0000 H   0  0  0  0  0  0  0  0  0  0  0  0
    3.9957    5.3024    0.0000 H   0  0  0  0  0  0  0  0  0  0  0  0
    4.7928    5.3024    0.0000 H   0  0  0  0  0  0  0  0  0  0  0  0
    4.7928    8.2523    0.0000 H   0  0  0  0  0  0  0  0  0  0  0  0
    3.9957    8.2523    0.0000 H   0  0  0  0  0  0  0  0  0  0  0  0
    2.6414    5.1227    0.0000 H   0  0  0  0  0  0  0  0  0  0  0  0
    2.6414    8.4320    0.0000 H   0  0  0  0  0  0  0  0  0  0  0  0
   12.1884    3.6573    0.0000 H   0  0  0  0  0  0  0  0  0  0  0  0
    1.1924    7.6102    0.0000 H   0  0  0  0  0  0  0  0  0  0  0  0
   13.0545    5.3973    0.0000 H   0  0  0  0  0  0  0  0  0  0  0  0
   13.5621    2.8746    0.0000 H   0  0  0  0  0  0  0  0  0  0  0  0
   15.2456    2.5121    0.0000 H   0  0  0  0  0  0  0  0  0  0  0  0
   14.7249    6.0944    0.0000 H   0  0  0  0  0  0  0  0  0  0  0  0
   16.8887    3.6829    0.0000 H   0  0  0  0  0  0  0  0  0  0  0  0
   16.3101    6.4285    0.0000 H   0  0  0  0  0  0  0  0  0  0  0  0
   17.3920    5.2227    0.0000 H   0  0  0  0  0  0  0  0  0  0  0  0
    9.1960    0.0000    0.0000 H   0  0  0  0  0  0  0  0  0  0  0  0
  1 68  1  0  0  0  0
  2 20  2  0  0  0  0
  3 14  1  0  0  0  0
  3 15  1  0  0  0  0
  3 16  1  0  0  0  0
  4 10  1  0  0  0  0
  4 20  1  0  0  0  0
  4 50  1  0  0  0  0
  5 30  1  0  0  0  0
  5 31  1  0  0  0  0
  5 63  1  0  0  0  0
  6 28  3  0  0  0  0
  7  8  1  0  0  0  0
  7  9  1  0  0  0  0
  7 13  1  0  0  0  0
  7 36  1  0  0  0  0
  8 11  1  0  0  0  0
  8 37  1  0  0  0  0
  8 38  1  0  0  0  0
  9 12  1  0  0  0  0
  9 39  1  0  0  0  0
  9 40  1  0  0  0  0
 10 11  1  0  0  0  0
 10 12  1  0  0  0  0
 10 41  1  0  0  0  0
 11 42  1  0  0  0  0
 11 43  1  0  0  0  0
 12 44  1  0  0  0  0
 12 45  1  0  0  0  0
 13 14  1  0  0  0  0
 13 46  1  0  0  0  0
 13 47  1  0  0  0  0
 14 48  1  0  0  0  0
 14 49  1  0  0  0  0
 15 17  1  0  0  0  0
 15 51  1  0  0  0  0
 15 52  1  0  0  0  0
 16 18  1  0  0  0  0
 16 53  1  0  0  0  0
 16 54  1  0  0  0  0
 17 19  1  0  0  0  0
 17 55  1  0  0  0  0
 17 56  1  0  0  0  0
 18 19  2  0  0  0  0
 18 21  1  0  0  0  0
 19 22  1  0  0  0  0
 20 23  1  0  0  0  0
 21 24  2  0  0  0  0
 21 57  1  0  0  0  0
 22 25  2  0  0  0  0
 22 58  1  0  0  0  0
 23 26  2  0  0  0  0
 23 59  1  0  0  0  0
 24 25  1  0  0  0  0
 24 28  1  0  0  0  0
 25 60  1  0  0  0  0
 26 27  1  0  0  0  0
 26 61  1  0  0  0  0
 27 29  1  0  0  0  0
 27 30  2  0  0  0  0
 29 31  1  0  0  0  0
 29 32  2  0  0  0  0
 30 62  1  0  0  0  0
 31 33  2  0  0  0  0
 32 34  1  0  0  0  0
 32 64  1  0  0  0  0
 33 35  1  0  0  0  0
 33 65  1  0  0  0  0
 34 35  2  0  0  0  0
 34 66  1  0  0  0  0
 35 67  1  0  0  0  0
M  END
> <PUBCHEM_COMPOUND_CID>
44533248

> <PUBCHEM_COMPOUND_CANONICALIZED>
1

> <PUBCHEM_CACTVS_COMPLEXITY>
763

> <PUBCHEM_CACTVS_HBOND_ACCEPTOR>
3

> <PUBCHEM_CACTVS_HBOND_DONOR>
3

> <PUBCHEM_CACTVS_ROTATABLE_BOND>
6

> <PUBCHEM_CACTVS_SUBSKEYS>
AAADcfB7oAAEAAAAAAAAAAAAAAAAAWAAAAA8YMEAAAAAAFix9AAAHgAQAAAADSjBngQ8wPPJkAC4BzV3VACigCAxAiAI2aA4ZNgIoOLAkZGEIAhglgDIyY8QgMAOwAACAAASAACQAAQAACQAAAAAAAAAAA==

> <PUBCHEM_IUPAC_OPENEYE_NAME>
(E)-N-[4-[2-(7-cyano-3,4-dihydro-1H-isoquinolin-2-yl)ethyl]cyclohexyl]-3-(1H-indol-3-yl)prop-2-enamide;hydrochloride

> <PUBCHEM_IUPAC_CAS_NAME>
(E)-N-[4-[2-(7-cyano-3,4-dihydro-1H-isoquinolin-2-yl)ethyl]cyclohexyl]-3-(1H-indol-3-yl)-2-propenamide;hydrochloride

> <PUBCHEM_IUPAC_NAME_MARKUP>
(<I>E</I>)-<I>N</I>-[4-[2-(7-cyano-3,4-dihydro-1<I>H</I>-isoquinolin-2-yl)ethyl]cyclohexyl]-3-(1<I>H</I>-indol-3-yl)prop-2-enamide;hydrochloride

> <PUBCHEM_IUPAC_NAME>
(E)-N-[4-[2-(7-cyano-3,4-dihydro-1H-isoquinolin-2-yl)ethyl]cyclohexyl]-3-(1H-indol-3-yl)prop-2-enamide;hydrochloride

> <PUBCHEM_IUPAC_SYSTEMATIC_NAME>
(E)-N-[4-[2-(7-cyano-3,4-dihydro-1H-isoquinolin-2-yl)ethyl]cyclohexyl]-3-(1H-indol-3-yl)prop-2-enamide;hydrochloride

> <PUBCHEM_IUPAC_TRADITIONAL_NAME>
(E)-N-[4-[2-(7-cyano-3,4-dihydro-1H-isoquinolin-2-yl)ethyl]cyclohexyl]-3-(1H-indol-3-yl)acrylamide;hydrochloride

> <PUBCHEM_IUPAC_INCHI>
InChI=1S/C29H32N4O.ClH/c30-18-22-5-8-23-14-16-33(20-25(23)17-22)15-13-21-6-10-26(11-7-21)32-29(34)12-9-24-19-31-28-4-2-1-3-27(24)28;/h1-5,8-9,12,17,19,21,26,31H,6-7,10-11,13-16,20H2,(H,32,34);1H/b12-9+;

> <PUBCHEM_IUPAC_INCHIKEY>
MLOJMGRBNVOXNC-NBYYMMLRSA-N

> <PUBCHEM_EXACT_MASS>
488.2342894

> <PUBCHEM_MOLECULAR_FORMULA>
C29H33ClN4O

> <PUBCHEM_MOLECULAR_WEIGHT>
489.0

> <PUBCHEM_OPENEYE_CAN_SMILES>
C1CC(CCC1CCN2CCC3=C(C2)C=C(C=C3)C#N)NC(=O)C=CC4=CNC5=CC=CC=C54.Cl

> <PUBCHEM_OPENEYE_ISO_SMILES>
C1CC(CCC1CCN2CCC3=C(C2)C=C(C=C3)C#N)NC(=O)/C=C/C4=CNC5=CC=CC=C54.Cl

> <PUBCHEM_CACTVS_TPSA>
71.9

> <PUBCHEM_MONOISOTOPIC_WEIGHT>
488.2342894

> <PUBCHEM_TOTAL_CHARGE>
0

> <PUBCHEM_HEAVY_ATOM_COUNT>
35

> <PUBCHEM_ATOM_DEF_STEREO_COUNT>
0

> <PUBCHEM_ATOM_UDEF_STEREO_COUNT>
0

> <PUBCHEM_BOND_DEF_STEREO_COUNT>
1

> <PUBCHEM_BOND_UDEF_STEREO_COUNT>
0

> <PUBCHEM_ISOTOPIC_ATOM_COUNT>
0

> <PUBCHEM_COMPONENT_COUNT>
2

> <PUBCHEM_CACTVS_TAUTO_COUNT>
5

> <PUBCHEM_COORDINATE_TYPE>
1
5
255

> <PUBCHEM_BONDANNOTATIONS>
18  19  8
18  21  8
19  22  8
21  24  8
22  25  8
24  25  8
27  29  8
27  30  8
29  31  8
29  32  8
31  33  8
32  34  8
33  35  8
34  35  8
5  30  8
5  31  8

$$$$
