122191605
  -OEChem-09292322362D

 54 57  0     0  0  0  0  0  0999 V2000
   12.4133    4.3006    0.0000 Br  0  0  0  0  0  0  0  0  0  0  0  0
    6.2781   -0.5326    0.0000 N   0  0  0  0  0  0  0  0  0  0  0  0
    6.8994    1.3684    0.0000 N   0  0  0  0  0  0  0  0  0  0  0  0
    8.4993    3.4757    0.0000 N   0  0  0  0  0  0  0  0  0  0  0  0
    4.6783   -4.2493    0.0000 N   0  0  0  0  0  0  0  0  0  0  0  0
    5.6103    0.2117    0.0000 C   0  0  0  0  0  0  0  0  0  0  0  0
    7.2566   -0.3264    0.0000 C   0  0  0  0  0  0  0  0  0  0  0  0
    5.9209    1.1622    0.0000 C   0  0  0  0  0  0  0  0  0  0  0  0
    7.5673    0.6241    0.0000 C   0  0  0  0  0  0  0  0  0  0  0  0
    5.9674   -1.4831    0.0000 C   0  0  0  0  0  0  0  0  0  0  0  0
    7.2101    2.3190    0.0000 C   0  0  0  0  0  0  0  0  0  0  0  0
    4.9889   -1.6893    0.0000 C   0  0  0  0  0  0  0  0  0  0  0  0
    8.1886    2.5252    0.0000 C   0  0  0  0  0  0  0  0  0  0  0  0
    4.6783   -2.6399    0.0000 C   0  0  0  0  0  0  0  0  0  0  0  0
    3.7320   -2.9446    0.0000 C   0  0  0  0  0  0  0  0  0  0  0  0
    5.2619   -3.4446    0.0000 C   0  0  0  0  0  0  0  0  0  0  0  0
    3.7320   -3.9446    0.0000 C   0  0  0  0  0  0  0  0  0  0  0  0
    2.8660   -2.4446    0.0000 C   0  0  0  0  0  0  0  0  0  0  0  0
    2.8660   -4.4446    0.0000 C   0  0  0  0  0  0  0  0  0  0  0  0
    9.4778    3.6819    0.0000 C   0  0  0  0  0  0  0  0  0  0  0  0
    2.0000   -2.9446    0.0000 C   0  0  0  0  0  0  0  0  0  0  0  0
    2.0000   -3.9446    0.0000 C   0  0  0  0  0  0  0  0  0  0  0  0
   10.1456    2.9376    0.0000 C   0  0  0  0  0  0  0  0  0  0  0  0
    9.7884    4.6324    0.0000 C   0  0  0  0  0  0  0  0  0  0  0  0
   11.1241    3.1438    0.0000 C   0  0  0  0  0  0  0  0  0  0  0  0
   10.7669    4.8386    0.0000 C   0  0  0  0  0  0  0  0  0  0  0  0
   11.4348    4.0944    0.0000 C   0  0  0  0  0  0  0  0  0  0  0  0
    5.0633    0.5037    0.0000 H   0  0  0  0  0  0  0  0  0  0  0  0
    5.2277   -0.2762    0.0000 H   0  0  0  0  0  0  0  0  0  0  0  0
    7.2772   -0.9460    0.0000 H   0  0  0  0  0  0  0  0  0  0  0  0
    7.8704   -0.4137    0.0000 H   0  0  0  0  0  0  0  0  0  0  0  0
    5.9004    1.7819    0.0000 H   0  0  0  0  0  0  0  0  0  0  0  0
    5.3071    1.2496    0.0000 H   0  0  0  0  0  0  0  0  0  0  0  0
    8.1142    0.3321    0.0000 H   0  0  0  0  0  0  0  0  0  0  0  0
    7.9498    1.1120    0.0000 H   0  0  0  0  0  0  0  0  0  0  0  0
    5.9880   -2.1028    0.0000 H   0  0  0  0  0  0  0  0  0  0  0  0
    6.5812   -1.5705    0.0000 H   0  0  0  0  0  0  0  0  0  0  0  0
    7.1895    2.9386    0.0000 H   0  0  0  0  0  0  0  0  0  0  0  0
    6.5963    2.4063    0.0000 H   0  0  0  0  0  0  0  0  0  0  0  0
    4.9684   -1.0697    0.0000 H   0  0  0  0  0  0  0  0  0  0  0  0
    4.3751   -1.6020    0.0000 H   0  0  0  0  0  0  0  0  0  0  0  0
    8.2092    1.9055    0.0000 H   0  0  0  0  0  0  0  0  0  0  0  0
    8.8024    2.4378    0.0000 H   0  0  0  0  0  0  0  0  0  0  0  0
    5.8819   -3.4446    0.0000 H   0  0  0  0  0  0  0  0  0  0  0  0
    8.0852    3.9372    0.0000 H   0  0  0  0  0  0  0  0  0  0  0  0
    4.8709   -4.8386    0.0000 H   0  0  0  0  0  0  0  0  0  0  0  0
    2.8660   -1.8246    0.0000 H   0  0  0  0  0  0  0  0  0  0  0  0
    2.8660   -5.0646    0.0000 H   0  0  0  0  0  0  0  0  0  0  0  0
    1.4631   -2.6346    0.0000 H   0  0  0  0  0  0  0  0  0  0  0  0
    1.4631   -4.2546    0.0000 H   0  0  0  0  0  0  0  0  0  0  0  0
    9.9530    2.3483    0.0000 H   0  0  0  0  0  0  0  0  0  0  0  0
    9.3744    5.0939    0.0000 H   0  0  0  0  0  0  0  0  0  0  0  0
   11.5382    2.6824    0.0000 H   0  0  0  0  0  0  0  0  0  0  0  0
   10.9595    5.4280    0.0000 H   0  0  0  0  0  0  0  0  0  0  0  0
  1 27  1  0  0  0  0
  2  6  1  0  0  0  0
  2  7  1  0  0  0  0
  2 10  1  0  0  0  0
  3  8  1  0  0  0  0
  3  9  1  0  0  0  0
  3 11  1  0  0  0  0
  4 13  1  0  0  0  0
  4 20  1  0  0  0  0
  4 45  1  0  0  0  0
  5 16  1  0  0  0  0
  5 17  1  0  0  0  0
  5 46  1  0  0  0  0
  6  8  1  0  0  0  0
  6 28  1  0  0  0  0
  6 29  1  0  0  0  0
  7  9  1  0  0  0  0
  7 30  1  0  0  0  0
  7 31  1  0  0  0  0
  8 32  1  0  0  0  0
  8 33  1  0  0  0  0
  9 34  1  0  0  0  0
  9 35  1  0  0  0  0
 10 12  1  0  0  0  0
 10 36  1  0  0  0  0
 10 37  1  0  0  0  0
 11 13  1  0  0  0  0
 11 38  1  0  0  0  0
 11 39  1  0  0  0  0
 12 14  1  0  0  0  0
 12 40  1  0  0  0  0
 12 41  1  0  0  0  0
 13 42  1  0  0  0  0
 13 43  1  0  0  0  0
 14 15  1  0  0  0  0
 14 16  2  0  0  0  0
 15 17  1  0  0  0  0
 15 18  2  0  0  0  0
 16 44  1  0  0  0  0
 17 19  2  0  0  0  0
 18 21  1  0  0  0  0
 18 47  1  0  0  0  0
 19 22  1  0  0  0  0
 19 48  1  0  0  0  0
 20 23  2  0  0  0  0
 20 24  1  0  0  0  0
 21 22  2  0  0  0  0
 21 49  1  0  0  0  0
 22 50  1  0  0  0  0
 23 25  1  0  0  0  0
 23 51  1  0  0  0  0
 24 26  2  0  0  0  0
 24 52  1  0  0  0  0
 25 27  2  0  0  0  0
 25 53  1  0  0  0  0
 26 27  1  0  0  0  0
 26 54  1  0  0  0  0
M  END
> <PUBCHEM_COMPOUND_CID>
122191605

> <PUBCHEM_COMPOUND_CANONICALIZED>
1

> <PUBCHEM_CACTVS_COMPLEXITY>
432

> <PUBCHEM_CACTVS_HBOND_ACCEPTOR>
3

> <PUBCHEM_CACTVS_HBOND_DONOR>
2

> <PUBCHEM_CACTVS_ROTATABLE_BOND>
7

> <PUBCHEM_CACTVS_SUBSKEYS>
AAADceB7gAAAEAAAAAAAAAAAAAAAAWAAAAA8YIAAAAAAAFgB9AAAHABQAAABrAjBHgQ8wPPJkACgAzRnRACCgCAxAiQI2aA4ZLgIYOLAkZGUIAhgkADIyhcQgMAOgAAgAAACAAAAAEAAAAQAAAAAAAAAAA==

> <PUBCHEM_IUPAC_OPENEYE_NAME>
4-bromo-N-[2-[4-[2-(1H-indol-3-yl)ethyl]piperazin-1-yl]ethyl]aniline

> <PUBCHEM_IUPAC_CAS_NAME>
4-bromo-N-[2-[4-[2-(1H-indol-3-yl)ethyl]-1-piperazinyl]ethyl]aniline

> <PUBCHEM_IUPAC_NAME_MARKUP>
4-bromo-<I>N</I>-[2-[4-[2-(1<I>H</I>-indol-3-yl)ethyl]piperazin-1-yl]ethyl]aniline

> <PUBCHEM_IUPAC_NAME>
4-bromo-N-[2-[4-[2-(1H-indol-3-yl)ethyl]piperazin-1-yl]ethyl]aniline

> <PUBCHEM_IUPAC_SYSTEMATIC_NAME>
4-bromanyl-N-[2-[4-[2-(1H-indol-3-yl)ethyl]piperazin-1-yl]ethyl]aniline

> <PUBCHEM_IUPAC_TRADITIONAL_NAME>
(4-bromophenyl)-[2-[4-[2-(1H-indol-3-yl)ethyl]piperazino]ethyl]amine

> <PUBCHEM_IUPAC_INCHI>
InChI=1S/C22H27BrN4/c23-19-5-7-20(8-6-19)24-10-12-27-15-13-26(14-16-27)11-9-18-17-25-22-4-2-1-3-21(18)22/h1-8,17,24-25H,9-16H2

> <PUBCHEM_IUPAC_INCHIKEY>
MLPGCAWHLVVATJ-UHFFFAOYSA-N

> <PUBCHEM_XLOGP3>
4.7

> <PUBCHEM_EXACT_MASS>
426.14191

> <PUBCHEM_MOLECULAR_FORMULA>
C22H27BrN4

> <PUBCHEM_MOLECULAR_WEIGHT>
427.4

> <PUBCHEM_OPENEYE_CAN_SMILES>
C1CN(CCN1CCC2=CNC3=CC=CC=C32)CCNC4=CC=C(C=C4)Br

> <PUBCHEM_OPENEYE_ISO_SMILES>
C1CN(CCN1CCC2=CNC3=CC=CC=C32)CCNC4=CC=C(C=C4)Br

> <PUBCHEM_CACTVS_TPSA>
34.3

> <PUBCHEM_MONOISOTOPIC_WEIGHT>
426.14191

> <PUBCHEM_TOTAL_CHARGE>
0

> <PUBCHEM_HEAVY_ATOM_COUNT>
27

> <PUBCHEM_ATOM_DEF_STEREO_COUNT>
0

> <PUBCHEM_ATOM_UDEF_STEREO_COUNT>
0

> <PUBCHEM_BOND_DEF_STEREO_COUNT>
0

> <PUBCHEM_BOND_UDEF_STEREO_COUNT>
0

> <PUBCHEM_ISOTOPIC_ATOM_COUNT>
0

> <PUBCHEM_COMPONENT_COUNT>
1

> <PUBCHEM_CACTVS_TAUTO_COUNT>
-1

> <PUBCHEM_COORDINATE_TYPE>
1
5
255

> <PUBCHEM_BONDANNOTATIONS>
14  15  8
14  16  8
15  17  8
15  18  8
17  19  8
18  21  8
19  22  8
20  23  8
20  24  8
21  22  8
23  25  8
24  26  8
25  27  8
26  27  8
5  16  8
5  17  8

$$$$
