44415786
  -OEChem-09292322482D

 71 75  0     0  0  0  0  0  0999 V2000
    8.7204   -0.5970    0.0000 Cl  0  0  0  0  0  0  0  0  0  0  0  0
    4.0169   -4.4240    0.0000 Cl  0  0  0  0  0  0  0  0  0  0  0  0
    6.6150   -2.9240    0.0000 O   0  0  0  0  0  0  0  0  0  0  0  0
    3.0814    2.9696    0.0000 N   0  0  0  0  0  0  0  0  0  0  0  0
    3.9491    1.1676    0.0000 N   0  0  0  0  0  0  0  0  0  0  0  0
    5.3830    0.2667    0.0000 N   0  0  0  0  0  0  0  0  0  0  0  0
    4.8830   -1.9240    0.0000 N   0  0  0  0  0  0  0  0  0  0  0  0
    4.8830   -2.9240    0.0000 N   0  0  0  0  0  0  0  0  0  0  0  0
    2.6475    3.8706    0.0000 C   0  0  0  0  0  0  0  0  0  0  0  0
    3.2108    4.6968    0.0000 C   0  0  0  0  0  0  0  0  0  0  0  0
    2.5180    2.1433    0.0000 C   0  0  0  0  0  0  0  0  0  0  0  0
    4.0786    2.8948    0.0000 C   0  0  0  0  0  0  0  0  0  0  0  0
    2.9519    1.2424    0.0000 C   0  0  0  0  0  0  0  0  0  0  0  0
    4.5125    1.9939    0.0000 C   0  0  0  0  0  0  0  0  0  0  0  0
    2.7769    5.5978    0.0000 C   0  0  0  0  0  0  0  0  0  0  0  0
    4.2080    4.6220    0.0000 C   0  0  0  0  0  0  0  0  0  0  0  0
    4.3830    0.2667    0.0000 C   0  0  0  0  0  0  0  0  0  0  0  0
    3.3403    6.4240    0.0000 C   0  0  0  0  0  0  0  0  0  0  0  0
    4.7714    5.4483    0.0000 C   0  0  0  0  0  0  0  0  0  0  0  0
    3.7595   -0.5152    0.0000 C   0  0  0  0  0  0  0  0  0  0  0  0
    3.9820   -1.4901    0.0000 C   0  0  0  0  0  0  0  0  0  0  0  0
    6.0065   -0.5152    0.0000 C   0  0  0  0  0  0  0  0  0  0  0  0
    2.7690   -0.1928    0.0000 C   0  0  0  0  0  0  0  0  0  0  0  0
    5.7840   -1.4901    0.0000 C   0  0  0  0  0  0  0  0  0  0  0  0
    3.2295   -2.2103    0.0000 C   0  0  0  0  0  0  0  0  0  0  0  0
    2.0000   -0.8954    0.0000 C   0  0  0  0  0  0  0  0  0  0  0  0
    2.2318   -1.9109    0.0000 C   0  0  0  0  0  0  0  0  0  0  0  0
    6.9970   -0.1929    0.0000 C   0  0  0  0  0  0  0  0  0  0  0  0
    6.5365   -2.2103    0.0000 C   0  0  0  0  0  0  0  0  0  0  0  0
    7.7660   -0.8954    0.0000 C   0  0  0  0  0  0  0  0  0  0  0  0
    7.5342   -1.9110    0.0000 C   0  0  0  0  0  0  0  0  0  0  0  0
    5.7490   -3.4240    0.0000 C   0  0  0  0  0  0  0  0  0  0  0  0
    5.7490   -4.4240    0.0000 C   0  0  0  0  0  0  0  0  0  0  0  0
    4.8830   -4.9240    0.0000 C   0  0  0  0  0  0  0  0  0  0  0  0
    6.6150   -4.9240    0.0000 C   0  0  0  0  0  0  0  0  0  0  0  0
    4.8830   -5.9240    0.0000 C   0  0  0  0  0  0  0  0  0  0  0  0
    6.6150   -5.9240    0.0000 C   0  0  0  0  0  0  0  0  0  0  0  0
    5.7490   -6.4240    0.0000 C   0  0  0  0  0  0  0  0  0  0  0  0
    2.2037    4.3035    0.0000 H   0  0  0  0  0  0  0  0  0  0  0  0
    2.1441    3.5086    0.0000 H   0  0  0  0  0  0  0  0  0  0  0  0
    3.5601    5.2091    0.0000 H   0  0  0  0  0  0  0  0  0  0  0  0
    2.0742    2.5762    0.0000 H   0  0  0  0  0  0  0  0  0  0  0  0
    2.0146    1.7814    0.0000 H   0  0  0  0  0  0  0  0  0  0  0  0
    4.6754    3.0628    0.0000 H   0  0  0  0  0  0  0  0  0  0  0  0
    4.0168    3.5118    0.0000 H   0  0  0  0  0  0  0  0  0  0  0  0
    2.3551    1.0744    0.0000 H   0  0  0  0  0  0  0  0  0  0  0  0
    3.0137    0.6255    0.0000 H   0  0  0  0  0  0  0  0  0  0  0  0
    4.9563    1.5610    0.0000 H   0  0  0  0  0  0  0  0  0  0  0  0
    5.0159    2.3558    0.0000 H   0  0  0  0  0  0  0  0  0  0  0  0
    2.3331    6.0307    0.0000 H   0  0  0  0  0  0  0  0  0  0  0  0
    2.2736    5.2358    0.0000 H   0  0  0  0  0  0  0  0  0  0  0  0
    4.0550    4.0212    0.0000 H   0  0  0  0  0  0  0  0  0  0  0  0
    4.7732    4.3670    0.0000 H   0  0  0  0  0  0  0  0  0  0  0  0
    3.8525    6.0747    0.0000 H   0  0  0  0  0  0  0  0  0  0  0  0
    3.6895    6.9363    0.0000 H   0  0  0  0  0  0  0  0  0  0  0  0
    2.8280    6.7732    0.0000 H   0  0  0  0  0  0  0  0  0  0  0  0
    5.2836    5.0990    0.0000 H   0  0  0  0  0  0  0  0  0  0  0  0
    5.1206    5.9605    0.0000 H   0  0  0  0  0  0  0  0  0  0  0  0
    4.2591    5.7975    0.0000 H   0  0  0  0  0  0  0  0  0  0  0  0
    2.6380    0.4132    0.0000 H   0  0  0  0  0  0  0  0  0  0  0  0
    3.3744   -2.8131    0.0000 H   0  0  0  0  0  0  0  0  0  0  0  0
    1.4083   -0.7104    0.0000 H   0  0  0  0  0  0  0  0  0  0  0  0
    1.7789   -2.3344    0.0000 H   0  0  0  0  0  0  0  0  0  0  0  0
    7.1280    0.4132    0.0000 H   0  0  0  0  0  0  0  0  0  0  0  0
    6.3916   -2.8131    0.0000 H   0  0  0  0  0  0  0  0  0  0  0  0
    4.3460   -3.2340    0.0000 H   0  0  0  0  0  0  0  0  0  0  0  0
    7.9871   -2.3344    0.0000 H   0  0  0  0  0  0  0  0  0  0  0  0
    7.1520   -4.6140    0.0000 H   0  0  0  0  0  0  0  0  0  0  0  0
    4.3460   -6.2340    0.0000 H   0  0  0  0  0  0  0  0  0  0  0  0
    7.1520   -6.2340    0.0000 H   0  0  0  0  0  0  0  0  0  0  0  0
    5.7490   -7.0440    0.0000 H   0  0  0  0  0  0  0  0  0  0  0  0
  1 30  1  0  0  0  0
  2 34  1  0  0  0  0
  3 32  2  0  0  0  0
  4  9  1  0  0  0  0
  4 11  1  0  0  0  0
  4 12  1  0  0  0  0
  5 13  1  0  0  0  0
  5 14  1  0  0  0  0
  5 17  1  0  0  0  0
  6 17  2  0  0  0  0
  6 22  1  0  0  0  0
  7  8  1  0  0  0  0
  7 21  1  0  0  0  0
  7 24  1  0  0  0  0
  8 32  1  0  0  0  0
  8 66  1  0  0  0  0
  9 10  1  0  0  0  0
  9 39  1  0  0  0  0
  9 40  1  0  0  0  0
 10 15  1  0  0  0  0
 10 16  1  0  0  0  0
 10 41  1  0  0  0  0
 11 13  1  0  0  0  0
 11 42  1  0  0  0  0
 11 43  1  0  0  0  0
 12 14  1  0  0  0  0
 12 44  1  0  0  0  0
 12 45  1  0  0  0  0
 13 46  1  0  0  0  0
 13 47  1  0  0  0  0
 14 48  1  0  0  0  0
 14 49  1  0  0  0  0
 15 18  1  0  0  0  0
 15 50  1  0  0  0  0
 15 51  1  0  0  0  0
 16 19  1  0  0  0  0
 16 52  1  0  0  0  0
 16 53  1  0  0  0  0
 17 20  1  0  0  0  0
 18 54  1  0  0  0  0
 18 55  1  0  0  0  0
 18 56  1  0  0  0  0
 19 57  1  0  0  0  0
 19 58  1  0  0  0  0
 19 59  1  0  0  0  0
 20 21  1  0  0  0  0
 20 23  2  0  0  0  0
 21 25  2  0  0  0  0
 22 24  2  0  0  0  0
 22 28  1  0  0  0  0
 23 26  1  0  0  0  0
 23 60  1  0  0  0  0
 24 29  1  0  0  0  0
 25 27  1  0  0  0  0
 25 61  1  0  0  0  0
 26 27  2  0  0  0  0
 26 62  1  0  0  0  0
 27 63  1  0  0  0  0
 28 30  2  0  0  0  0
 28 64  1  0  0  0  0
 29 31  2  0  0  0  0
 29 65  1  0  0  0  0
 30 31  1  0  0  0  0
 31 67  1  0  0  0  0
 32 33  1  0  0  0  0
 33 34  1  0  0  0  0
 33 35  2  0  0  0  0
 34 36  2  0  0  0  0
 35 37  1  0  0  0  0
 35 68  1  0  0  0  0
 36 38  1  0  0  0  0
 36 69  1  0  0  0  0
 37 38  2  0  0  0  0
 37 70  1  0  0  0  0
 38 71  1  0  0  0  0
M  END
> <PUBCHEM_COMPOUND_CID>
44415786

> <PUBCHEM_COMPOUND_CANONICALIZED>
1

> <PUBCHEM_CACTVS_COMPLEXITY>
815

> <PUBCHEM_CACTVS_HBOND_ACCEPTOR>
4

> <PUBCHEM_CACTVS_HBOND_DONOR>
1

> <PUBCHEM_CACTVS_ROTATABLE_BOND>
7

> <PUBCHEM_CACTVS_SUBSKEYS>
AAADcfB7oAAGAAAAAAAAAAAAAAAAAAAAAAA8YMEABAAAAAABUAAAHgIYAAAADQrBmCQzwINiAACoAidydACCBAElBwAbqAEodtgIYPLB35GUIQhggADIzYcYiACOAABAAAIDACAAAIAABAYAQAAAAAAAAA==

> <PUBCHEM_IUPAC_OPENEYE_NAME>
2-chloro-N-[3-chloro-6-[4-(2-ethylbutyl)piperazin-1-yl]benzo[b][1,4]benzodiazepin-11-yl]benzamide

> <PUBCHEM_IUPAC_CAS_NAME>
2-chloro-N-[3-chloro-6-[4-(2-ethylbutyl)-1-piperazinyl]-11-benzo[b][1,4]benzodiazepinyl]benzamide

> <PUBCHEM_IUPAC_NAME_MARKUP>
2-chloro-<I>N</I>-[3-chloro-6-[4-(2-ethylbutyl)piperazin-1-yl]benzo[b][1,4]benzodiazepin-11-yl]benzamide

> <PUBCHEM_IUPAC_NAME>
2-chloro-N-[3-chloro-6-[4-(2-ethylbutyl)piperazin-1-yl]benzo[b][1,4]benzodiazepin-11-yl]benzamide

> <PUBCHEM_IUPAC_SYSTEMATIC_NAME>
2-chloranyl-N-[3-chloranyl-6-[4-(2-ethylbutyl)piperazin-1-yl]benzo[b][1,4]benzodiazepin-11-yl]benzamide

> <PUBCHEM_IUPAC_TRADITIONAL_NAME>
2-chloro-N-[3-chloro-6-[4-(2-ethylbutyl)piperazino]benzo[b][1,4]benzodiazepin-11-yl]benzamide

> <PUBCHEM_IUPAC_INCHI>
InChI=1S/C30H33Cl2N5O/c1-3-21(4-2)20-35-15-17-36(18-16-35)29-24-10-6-8-12-27(24)37(28-14-13-22(31)19-26(28)33-29)34-30(38)23-9-5-7-11-25(23)32/h5-14,19,21H,3-4,15-18,20H2,1-2H3,(H,34,38)

> <PUBCHEM_IUPAC_INCHIKEY>
OXZIYWHPJYKWLZ-UHFFFAOYSA-N

> <PUBCHEM_XLOGP3_AA>
7.1

> <PUBCHEM_EXACT_MASS>
549.2062161

> <PUBCHEM_MOLECULAR_FORMULA>
C30H33Cl2N5O

> <PUBCHEM_MOLECULAR_WEIGHT>
550.5

> <PUBCHEM_OPENEYE_CAN_SMILES>
CCC(CC)CN1CCN(CC1)C2=NC3=C(C=CC(=C3)Cl)N(C4=CC=CC=C42)NC(=O)C5=CC=CC=C5Cl

> <PUBCHEM_OPENEYE_ISO_SMILES>
CCC(CC)CN1CCN(CC1)C2=NC3=C(C=CC(=C3)Cl)N(C4=CC=CC=C42)NC(=O)C5=CC=CC=C5Cl

> <PUBCHEM_CACTVS_TPSA>
51.2

> <PUBCHEM_MONOISOTOPIC_WEIGHT>
549.2062161

> <PUBCHEM_TOTAL_CHARGE>
0

> <PUBCHEM_HEAVY_ATOM_COUNT>
38

> <PUBCHEM_ATOM_DEF_STEREO_COUNT>
0

> <PUBCHEM_ATOM_UDEF_STEREO_COUNT>
0

> <PUBCHEM_BOND_DEF_STEREO_COUNT>
0

> <PUBCHEM_BOND_UDEF_STEREO_COUNT>
0

> <PUBCHEM_ISOTOPIC_ATOM_COUNT>
0

> <PUBCHEM_COMPONENT_COUNT>
1

> <PUBCHEM_CACTVS_TAUTO_COUNT>
-1

> <PUBCHEM_COORDINATE_TYPE>
1
5
255

> <PUBCHEM_BONDANNOTATIONS>
20  21  8
20  23  8
21  25  8
22  24  8
22  28  8
23  26  8
24  29  8
25  27  8
26  27  8
28  30  8
29  31  8
30  31  8
33  34  8
33  35  8
34  36  8
35  37  8
36  38  8
37  38  8

$$$$
