11773414
  -OEChem-09292322262D

 56 59  0     1  0  0  0  0  0999 V2000
    3.6313    0.8843    0.0000 O   0  0  0  0  0  0  0  0  0  0  0  0
   12.9849    1.3376    0.0000 O   0  0  0  0  0  0  0  0  0  0  0  0
   12.9849   -0.6624    0.0000 O   0  0  0  0  0  0  0  0  0  0  0  0
    8.5868   -0.1832    0.0000 N   0  0  0  0  0  0  0  0  0  0  0  0
    6.8547   -0.1899    0.0000 N   0  0  0  0  0  0  0  0  0  0  0  0
    2.4339   -0.3131    0.0000 C   0  0  0  0  0  0  0  0  0  0  0  0
    3.4088   -0.0906    0.0000 C   0  0  3  0  0  0  0  0  0  0  0  0
    2.0000   -1.2141    0.0000 C   0  0  0  0  0  0  0  0  0  0  0  0
    2.4339   -2.1150    0.0000 C   0  0  0  0  0  0  0  0  0  0  0  0
    3.4088   -2.3376    0.0000 C   0  0  0  0  0  0  0  0  0  0  0  0
    4.1906   -0.7141    0.0000 C   0  0  0  0  0  0  0  0  0  0  0  0
    4.1906   -1.7141    0.0000 C   0  0  0  0  0  0  0  0  0  0  0  0
    8.5868    0.8584    0.0000 C   0  0  0  0  0  0  0  0  0  0  0  0
    9.4928    1.3722    0.0000 C   0  0  0  0  0  0  0  0  0  0  0  0
    9.4928   -0.6971    0.0000 C   0  0  0  0  0  0  0  0  0  0  0  0
   10.3868    0.8376    0.0000 C   0  0  0  0  0  0  0  0  0  0  0  0
   10.3868   -0.1624    0.0000 C   0  0  0  0  0  0  0  0  0  0  0  0
    5.0846   -0.1794    0.0000 C   0  0  0  0  0  0  0  0  0  0  0  0
    5.0846   -2.2487    0.0000 C   0  0  0  0  0  0  0  0  0  0  0  0
    5.9906   -0.6933    0.0000 C   0  0  0  0  0  0  0  0  0  0  0  0
    5.9906   -1.7349    0.0000 C   0  0  0  0  0  0  0  0  0  0  0  0
   11.2528    1.3376    0.0000 C   0  0  0  0  0  0  0  0  0  0  0  0
   11.2528   -0.6624    0.0000 C   0  0  0  0  0  0  0  0  0  0  0  0
    7.7227   -0.6866    0.0000 C   0  0  0  0  0  0  0  0  0  0  0  0
   12.1188    0.8376    0.0000 C   0  0  0  0  0  0  0  0  0  0  0  0
   12.1188   -0.1624    0.0000 C   0  0  0  0  0  0  0  0  0  0  0  0
   12.9849    2.3376    0.0000 C   0  0  0  0  0  0  0  0  0  0  0  0
   12.9849   -1.6624    0.0000 C   0  0  0  0  0  0  0  0  0  0  0  0
    2.4339    0.3069    0.0000 H   0  0  0  0  0  0  0  0  0  0  0  0
    1.8294   -0.1751    0.0000 H   0  0  0  0  0  0  0  0  0  0  0  0
    2.9704    0.3478    0.0000 H   0  0  0  0  0  0  0  0  0  0  0  0
    1.5153   -0.8275    0.0000 H   0  0  0  0  0  0  0  0  0  0  0  0
    1.5153   -1.6006    0.0000 H   0  0  0  0  0  0  0  0  0  0  0  0
    1.8294   -2.2530    0.0000 H   0  0  0  0  0  0  0  0  0  0  0  0
    2.4339   -2.7350    0.0000 H   0  0  0  0  0  0  0  0  0  0  0  0
    3.1398   -2.8962    0.0000 H   0  0  0  0  0  0  0  0  0  0  0  0
    3.8936   -2.7241    0.0000 H   0  0  0  0  0  0  0  0  0  0  0  0
    8.3777    1.4421    0.0000 H   0  0  0  0  0  0  0  0  0  0  0  0
    7.9759    0.7523    0.0000 H   0  0  0  0  0  0  0  0  0  0  0  0
    9.8974    1.8420    0.0000 H   0  0  0  0  0  0  0  0  0  0  0  0
    9.0992    1.8512    0.0000 H   0  0  0  0  0  0  0  0  0  0  0  0
    9.0992   -1.1761    0.0000 H   0  0  0  0  0  0  0  0  0  0  0  0
    9.8974   -1.1669    0.0000 H   0  0  0  0  0  0  0  0  0  0  0  0
    5.0774    0.4405    0.0000 H   0  0  0  0  0  0  0  0  0  0  0  0
    5.0774   -2.8687    0.0000 H   0  0  0  0  0  0  0  0  0  0  0  0
    6.5264   -2.0470    0.0000 H   0  0  0  0  0  0  0  0  0  0  0  0
   11.2528    1.9576    0.0000 H   0  0  0  0  0  0  0  0  0  0  0  0
   11.2528   -1.2824    0.0000 H   0  0  0  0  0  0  0  0  0  0  0  0
    7.7251   -1.3066    0.0000 H   0  0  0  0  0  0  0  0  0  0  0  0
    3.1768    1.3060    0.0000 H   0  0  0  0  0  0  0  0  0  0  0  0
   13.6049    2.3376    0.0000 H   0  0  0  0  0  0  0  0  0  0  0  0
   12.9849    2.9576    0.0000 H   0  0  0  0  0  0  0  0  0  0  0  0
   12.3649    2.3376    0.0000 H   0  0  0  0  0  0  0  0  0  0  0  0
   12.3649   -1.6624    0.0000 H   0  0  0  0  0  0  0  0  0  0  0  0
   12.9849   -2.2824    0.0000 H   0  0  0  0  0  0  0  0  0  0  0  0
   13.6049   -1.6624    0.0000 H   0  0  0  0  0  0  0  0  0  0  0  0
  1  7  1  0  0  0  0
  1 50  1  0  0  0  0
  2 25  1  0  0  0  0
  2 27  1  0  0  0  0
  3 26  1  0  0  0  0
  3 28  1  0  0  0  0
  4 13  1  0  0  0  0
  4 15  1  0  0  0  0
  4 24  1  0  0  0  0
  5 20  1  0  0  0  0
  5 24  2  0  0  0  0
  6  7  1  0  0  0  0
  6  8  1  0  0  0  0
  6 29  1  0  0  0  0
  6 30  1  0  0  0  0
  7 11  1  0  0  0  0
  7 31  1  0  0  0  0
  8  9  1  0  0  0  0
  8 32  1  0  0  0  0
  8 33  1  0  0  0  0
  9 10  1  0  0  0  0
  9 34  1  0  0  0  0
  9 35  1  0  0  0  0
 10 12  1  0  0  0  0
 10 36  1  0  0  0  0
 10 37  1  0  0  0  0
 11 12  2  0  0  0  0
 11 18  1  0  0  0  0
 12 19  1  0  0  0  0
 13 14  1  0  0  0  0
 13 38  1  0  0  0  0
 13 39  1  0  0  0  0
 14 16  1  0  0  0  0
 14 40  1  0  0  0  0
 14 41  1  0  0  0  0
 15 17  1  0  0  0  0
 15 42  1  0  0  0  0
 15 43  1  0  0  0  0
 16 17  1  0  0  0  0
 16 22  2  0  0  0  0
 17 23  2  0  0  0  0
 18 20  2  0  0  0  0
 18 44  1  0  0  0  0
 19 21  2  0  0  0  0
 19 45  1  0  0  0  0
 20 21  1  0  0  0  0
 21 46  1  0  0  0  0
 22 25  1  0  0  0  0
 22 47  1  0  0  0  0
 23 26  1  0  0  0  0
 23 48  1  0  0  0  0
 24 49  1  0  0  0  0
 25 26  2  0  0  0  0
 27 51  1  0  0  0  0
 27 52  1  0  0  0  0
 27 53  1  0  0  0  0
 28 54  1  0  0  0  0
 28 55  1  0  0  0  0
 28 56  1  0  0  0  0
M  END
> <PUBCHEM_COMPOUND_CID>
11773414

> <PUBCHEM_COMPOUND_CANONICALIZED>
1

> <PUBCHEM_CACTVS_COMPLEXITY>
528

> <PUBCHEM_CACTVS_HBOND_ACCEPTOR>
4

> <PUBCHEM_CACTVS_HBOND_DONOR>
1

> <PUBCHEM_CACTVS_ROTATABLE_BOND>
4

> <PUBCHEM_CACTVS_SUBSKEYS>
AAADceB7MAAAAAAAAAAAAAAAAAAAAAAAAAA8YIAABgAAAACxQAAAHgAACAAADBzhmAYzxoMABgCgAiRDZACCCAEgIgAJiAAO7IgNNiKEuZuEcCpkwBGK+Aew0PIOqAABQAAQQABQAAKAACCAAAAAAAAAAA==

> <PUBCHEM_IUPAC_OPENEYE_NAME>
3-[(6,7-dimethoxy-3,4-dihydro-1H-isoquinolin-2-yl)methyleneamino]-6,7,8,9-tetrahydro-5H-benzo[7]annulen-5-ol

> <PUBCHEM_IUPAC_CAS_NAME>
3-[(6,7-dimethoxy-3,4-dihydro-1H-isoquinolin-2-yl)methylideneamino]-6,7,8,9-tetrahydro-5H-benzo[7]annulen-5-ol

> <PUBCHEM_IUPAC_NAME_MARKUP>
3-[(6,7-dimethoxy-3,4-dihydro-1<I>H</I>-isoquinolin-2-yl)methylideneamino]-6,7,8,9-tetrahydro-5<I>H</I>-benzo[7]annulen-5-ol

> <PUBCHEM_IUPAC_NAME>
3-[(6,7-dimethoxy-3,4-dihydro-1H-isoquinolin-2-yl)methylideneamino]-6,7,8,9-tetrahydro-5H-benzo[7]annulen-5-ol

> <PUBCHEM_IUPAC_SYSTEMATIC_NAME>
3-[(6,7-dimethoxy-3,4-dihydro-1H-isoquinolin-2-yl)methylideneamino]-6,7,8,9-tetrahydro-5H-benzo[7]annulen-5-ol

> <PUBCHEM_IUPAC_TRADITIONAL_NAME>
3-[(6,7-dimethoxy-3,4-dihydro-1H-isoquinolin-2-yl)methyleneamino]-6,7,8,9-tetrahydro-5H-benzocyclohepten-5-ol

> <PUBCHEM_IUPAC_INCHI>
InChI=1S/C23H28N2O3/c1-27-22-11-17-9-10-25(14-18(17)12-23(22)28-2)15-24-19-8-7-16-5-3-4-6-21(26)20(16)13-19/h7-8,11-13,15,21,26H,3-6,9-10,14H2,1-2H3

> <PUBCHEM_IUPAC_INCHIKEY>
LPLBLTITXDCEAW-UHFFFAOYSA-N

> <PUBCHEM_XLOGP3_AA>
3.5

> <PUBCHEM_EXACT_MASS>
380.20999276

> <PUBCHEM_MOLECULAR_FORMULA>
C23H28N2O3

> <PUBCHEM_MOLECULAR_WEIGHT>
380.5

> <PUBCHEM_OPENEYE_CAN_SMILES>
COC1=C(C=C2CN(CCC2=C1)C=NC3=CC4=C(CCCCC4O)C=C3)OC

> <PUBCHEM_OPENEYE_ISO_SMILES>
COC1=C(C=C2CN(CCC2=C1)C=NC3=CC4=C(CCCCC4O)C=C3)OC

> <PUBCHEM_CACTVS_TPSA>
54.3

> <PUBCHEM_MONOISOTOPIC_WEIGHT>
380.20999276

> <PUBCHEM_TOTAL_CHARGE>
0

> <PUBCHEM_HEAVY_ATOM_COUNT>
28

> <PUBCHEM_ATOM_DEF_STEREO_COUNT>
0

> <PUBCHEM_ATOM_UDEF_STEREO_COUNT>
1

> <PUBCHEM_BOND_DEF_STEREO_COUNT>
0

> <PUBCHEM_BOND_UDEF_STEREO_COUNT>
0

> <PUBCHEM_ISOTOPIC_ATOM_COUNT>
0

> <PUBCHEM_COMPONENT_COUNT>
1

> <PUBCHEM_CACTVS_TAUTO_COUNT>
-1

> <PUBCHEM_COORDINATE_TYPE>
1
5
255

> <PUBCHEM_BONDANNOTATIONS>
7  1  3
11  12  8
11  18  8
12  19  8
16  17  8
16  22  8
17  23  8
18  20  8
19  21  8
20  21  8
22  25  8
23  26  8
25  26  8

$$$$
