164916955
  -OEChem-09292322442D

 70 73  0     0  0  0  0  0  0999 V2000
    2.0000   -4.7990    0.0000 Cl  0  0  0  0  0  0  0  0  0  0  0  0
    2.0000   -6.7990    0.0000 Cl  0  0  0  0  0  0  0  0  0  0  0  0
    3.7320   -1.7990    0.0000 N   0  0  0  0  0  0  0  0  0  0  0  0
    3.7320   -3.7990    0.0000 N   0  0  0  0  0  0  0  0  0  0  0  0
    5.4641    2.2010    0.0000 N   0  0  0  0  0  0  0  0  0  0  0  0
    8.1962    2.4689    0.0000 N   0  0  0  0  0  0  0  0  0  0  0  0
    2.8660   -2.2990    0.0000 C   0  0  0  0  0  0  0  0  0  0  0  0
    4.5981   -2.2990    0.0000 C   0  0  0  0  0  0  0  0  0  0  0  0
    2.8660   -3.2990    0.0000 C   0  0  0  0  0  0  0  0  0  0  0  0
    4.5981   -3.2990    0.0000 C   0  0  0  0  0  0  0  0  0  0  0  0
    3.7320   -0.7990    0.0000 C   0  0  0  0  0  0  0  0  0  0  0  0
    4.5981   -0.2990    0.0000 C   0  0  0  0  0  0  0  0  0  0  0  0
    4.5981    0.7010    0.0000 C   0  0  0  0  0  0  0  0  0  0  0  0
    5.4641    1.2010    0.0000 C   0  0  0  0  0  0  0  0  0  0  0  0
    3.7320   -4.7990    0.0000 C   0  0  0  0  0  0  0  0  0  0  0  0
    7.1962    4.2010    0.0000 C   0  0  0  0  0  0  0  0  0  0  0  0
    6.3301    3.7010    0.0000 C   0  0  0  0  0  0  0  0  0  0  0  0
    6.3301    2.7010    0.0000 C   0  0  0  0  0  0  0  0  0  0  0  0
    8.0622    4.7010    0.0000 C   0  0  0  0  0  0  0  0  0  0  0  0
    6.6962    5.0670    0.0000 C   0  0  0  0  0  0  0  0  0  0  0  0
    2.8660   -5.2990    0.0000 C   0  0  0  0  0  0  0  0  0  0  0  0
    4.5981   -5.2990    0.0000 C   0  0  0  0  0  0  0  0  0  0  0  0
    7.6962    3.3349    0.0000 C   0  0  0  0  0  0  0  0  0  0  0  0
    8.0622    5.7010    0.0000 C   0  0  0  0  0  0  0  0  0  0  0  0
    7.1962    5.9330    0.0000 C   0  0  0  0  0  0  0  0  0  0  0  0
    8.9282    4.2010    0.0000 C   0  0  0  0  0  0  0  0  0  0  0  0
    5.6962    5.0670    0.0000 C   0  0  0  0  0  0  0  0  0  0  0  0
    2.8660   -6.2990    0.0000 C   0  0  0  0  0  0  0  0  0  0  0  0
    4.5981   -6.2990    0.0000 C   0  0  0  0  0  0  0  0  0  0  0  0
    3.7320   -6.7990    0.0000 C   0  0  0  0  0  0  0  0  0  0  0  0
    8.9282    6.2010    0.0000 C   0  0  0  0  0  0  0  0  0  0  0  0
    6.6962    6.7990    0.0000 C   0  0  0  0  0  0  0  0  0  0  0  0
    9.7942    4.7010    0.0000 C   0  0  0  0  0  0  0  0  0  0  0  0
    5.1962    5.9330    0.0000 C   0  0  0  0  0  0  0  0  0  0  0  0
    9.7942    5.7010    0.0000 C   0  0  0  0  0  0  0  0  0  0  0  0
    5.6962    6.7990    0.0000 C   0  0  0  0  0  0  0  0  0  0  0  0
    2.6540   -1.7164    0.0000 H   0  0  0  0  0  0  0  0  0  0  0  0
    2.2554   -2.4067    0.0000 H   0  0  0  0  0  0  0  0  0  0  0  0
    5.2087   -2.4067    0.0000 H   0  0  0  0  0  0  0  0  0  0  0  0
    4.8101   -1.7164    0.0000 H   0  0  0  0  0  0  0  0  0  0  0  0
    2.2554   -3.1914    0.0000 H   0  0  0  0  0  0  0  0  0  0  0  0
    2.6540   -3.8816    0.0000 H   0  0  0  0  0  0  0  0  0  0  0  0
    4.8101   -3.8816    0.0000 H   0  0  0  0  0  0  0  0  0  0  0  0
    5.2087   -3.1914    0.0000 H   0  0  0  0  0  0  0  0  0  0  0  0
    3.5200   -0.2164    0.0000 H   0  0  0  0  0  0  0  0  0  0  0  0
    3.1215   -0.9067    0.0000 H   0  0  0  0  0  0  0  0  0  0  0  0
    4.8101   -0.8816    0.0000 H   0  0  0  0  0  0  0  0  0  0  0  0
    5.2087   -0.1914    0.0000 H   0  0  0  0  0  0  0  0  0  0  0  0
    4.3860    1.2836    0.0000 H   0  0  0  0  0  0  0  0  0  0  0  0
    3.9875    0.5933    0.0000 H   0  0  0  0  0  0  0  0  0  0  0  0
    5.6762    0.6184    0.0000 H   0  0  0  0  0  0  0  0  0  0  0  0
    6.0747    1.3086    0.0000 H   0  0  0  0  0  0  0  0  0  0  0  0
    6.1181    4.2836    0.0000 H   0  0  0  0  0  0  0  0  0  0  0  0
    5.7196    3.5933    0.0000 H   0  0  0  0  0  0  0  0  0  0  0  0
    6.5422    2.1184    0.0000 H   0  0  0  0  0  0  0  0  0  0  0  0
    6.9407    2.8086    0.0000 H   0  0  0  0  0  0  0  0  0  0  0  0
    4.9272    2.5110    0.0000 H   0  0  0  0  0  0  0  0  0  0  0  0
    5.1350   -4.9890    0.0000 H   0  0  0  0  0  0  0  0  0  0  0  0
    7.5252    6.0110    0.0000 H   0  0  0  0  0  0  0  0  0  0  0  0
    7.8162    5.9330    0.0000 H   0  0  0  0  0  0  0  0  0  0  0  0
    8.9282    3.5810    0.0000 H   0  0  0  0  0  0  0  0  0  0  0  0
    5.3862    4.5300    0.0000 H   0  0  0  0  0  0  0  0  0  0  0  0
    5.1350   -6.6090    0.0000 H   0  0  0  0  0  0  0  0  0  0  0  0
    3.7320   -7.4190    0.0000 H   0  0  0  0  0  0  0  0  0  0  0  0
    8.9282    6.8210    0.0000 H   0  0  0  0  0  0  0  0  0  0  0  0
    7.0062    7.3360    0.0000 H   0  0  0  0  0  0  0  0  0  0  0  0
   10.3312    4.3910    0.0000 H   0  0  0  0  0  0  0  0  0  0  0  0
    4.5762    5.9330    0.0000 H   0  0  0  0  0  0  0  0  0  0  0  0
   10.3312    6.0110    0.0000 H   0  0  0  0  0  0  0  0  0  0  0  0
    5.3862    7.3360    0.0000 H   0  0  0  0  0  0  0  0  0  0  0  0
  1 21  1  0  0  0  0
  2 28  1  0  0  0  0
  3  7  1  0  0  0  0
  3  8  1  0  0  0  0
  3 11  1  0  0  0  0
  4  9  1  0  0  0  0
  4 10  1  0  0  0  0
  4 15  1  0  0  0  0
  5 14  1  0  0  0  0
  5 18  1  0  0  0  0
  5 57  1  0  0  0  0
  6 23  3  0  0  0  0
  7  9  1  0  0  0  0
  7 37  1  0  0  0  0
  7 38  1  0  0  0  0
  8 10  1  0  0  0  0
  8 39  1  0  0  0  0
  8 40  1  0  0  0  0
  9 41  1  0  0  0  0
  9 42  1  0  0  0  0
 10 43  1  0  0  0  0
 10 44  1  0  0  0  0
 11 12  1  0  0  0  0
 11 45  1  0  0  0  0
 11 46  1  0  0  0  0
 12 13  1  0  0  0  0
 12 47  1  0  0  0  0
 12 48  1  0  0  0  0
 13 14  1  0  0  0  0
 13 49  1  0  0  0  0
 13 50  1  0  0  0  0
 14 51  1  0  0  0  0
 14 52  1  0  0  0  0
 15 21  2  0  0  0  0
 15 22  1  0  0  0  0
 16 17  1  0  0  0  0
 16 19  1  0  0  0  0
 16 20  1  0  0  0  0
 16 23  1  0  0  0  0
 17 18  1  0  0  0  0
 17 53  1  0  0  0  0
 17 54  1  0  0  0  0
 18 55  1  0  0  0  0
 18 56  1  0  0  0  0
 19 24  2  0  0  0  0
 19 26  1  0  0  0  0
 20 25  2  0  0  0  0
 20 27  1  0  0  0  0
 21 28  1  0  0  0  0
 22 29  2  0  0  0  0
 22 58  1  0  0  0  0
 24 31  1  0  0  0  0
 24 59  1  0  0  0  0
 25 32  1  0  0  0  0
 25 60  1  0  0  0  0
 26 33  2  0  0  0  0
 26 61  1  0  0  0  0
 27 34  2  0  0  0  0
 27 62  1  0  0  0  0
 28 30  2  0  0  0  0
 29 30  1  0  0  0  0
 29 63  1  0  0  0  0
 30 64  1  0  0  0  0
 31 35  2  0  0  0  0
 31 65  1  0  0  0  0
 32 36  2  0  0  0  0
 32 66  1  0  0  0  0
 33 35  1  0  0  0  0
 33 67  1  0  0  0  0
 34 36  1  0  0  0  0
 34 68  1  0  0  0  0
 35 69  1  0  0  0  0
 36 70  1  0  0  0  0
M  END
> <PUBCHEM_COMPOUND_CID>
164916955

> <PUBCHEM_COMPOUND_CANONICALIZED>
1

> <PUBCHEM_CACTVS_COMPLEXITY>
656

> <PUBCHEM_CACTVS_HBOND_ACCEPTOR>
4

> <PUBCHEM_CACTVS_HBOND_DONOR>
1

> <PUBCHEM_CACTVS_ROTATABLE_BOND>
11

> <PUBCHEM_CACTVS_SUBSKEYS>
AAADcfB7gAAGAAAAAAAAAAAAAAAAAAAAAAA8YMEAAAAAAAABUAAAHAIQAAAADgrBGCQwwIPAAACQBiRCQACCAAAhBwAIisAIZogI4CLBk5HUIAhgkADIyA8QgMAPgAAAAAIAABQAAAAABAAAKAAAAAAAAA==

> <PUBCHEM_IUPAC_OPENEYE_NAME>
4-[4-[4-(2,3-dichlorophenyl)piperazin-1-yl]butylamino]-2,2-diphenyl-butanenitrile

> <PUBCHEM_IUPAC_CAS_NAME>
4-[4-[4-(2,3-dichlorophenyl)-1-piperazinyl]butylamino]-2,2-diphenylbutanenitrile

> <PUBCHEM_IUPAC_NAME_MARKUP>
4-[4-[4-(2,3-dichlorophenyl)piperazin-1-yl]butylamino]-2,2-diphenylbutanenitrile

> <PUBCHEM_IUPAC_NAME>
4-[4-[4-(2,3-dichlorophenyl)piperazin-1-yl]butylamino]-2,2-diphenylbutanenitrile

> <PUBCHEM_IUPAC_SYSTEMATIC_NAME>
4-[4-[4-[2,3-bis(chloranyl)phenyl]piperazin-1-yl]butylamino]-2,2-diphenyl-butanenitrile

> <PUBCHEM_IUPAC_TRADITIONAL_NAME>
4-[4-[4-(2,3-dichlorophenyl)piperazino]butylamino]-2,2-diphenyl-butyronitrile

> <PUBCHEM_IUPAC_INCHI>
InChI=1S/C30H34Cl2N4/c31-27-14-9-15-28(29(27)32)36-22-20-35(21-23-36)19-8-7-17-34-18-16-30(24-33,25-10-3-1-4-11-25)26-12-5-2-6-13-26/h1-6,9-15,34H,7-8,16-23H2

> <PUBCHEM_IUPAC_INCHIKEY>
IGIZYVFIPJBSBU-UHFFFAOYSA-N

> <PUBCHEM_XLOGP3_AA>
6.6

> <PUBCHEM_EXACT_MASS>
520.2160525

> <PUBCHEM_MOLECULAR_FORMULA>
C30H34Cl2N4

> <PUBCHEM_MOLECULAR_WEIGHT>
521.5

> <PUBCHEM_OPENEYE_CAN_SMILES>
C1CN(CCN1CCCCNCCC(C#N)(C2=CC=CC=C2)C3=CC=CC=C3)C4=C(C(=CC=C4)Cl)Cl

> <PUBCHEM_OPENEYE_ISO_SMILES>
C1CN(CCN1CCCCNCCC(C#N)(C2=CC=CC=C2)C3=CC=CC=C3)C4=C(C(=CC=C4)Cl)Cl

> <PUBCHEM_CACTVS_TPSA>
42.3

> <PUBCHEM_MONOISOTOPIC_WEIGHT>
520.2160525

> <PUBCHEM_TOTAL_CHARGE>
0

> <PUBCHEM_HEAVY_ATOM_COUNT>
36

> <PUBCHEM_ATOM_DEF_STEREO_COUNT>
0

> <PUBCHEM_ATOM_UDEF_STEREO_COUNT>
0

> <PUBCHEM_BOND_DEF_STEREO_COUNT>
0

> <PUBCHEM_BOND_UDEF_STEREO_COUNT>
0

> <PUBCHEM_ISOTOPIC_ATOM_COUNT>
0

> <PUBCHEM_COMPONENT_COUNT>
1

> <PUBCHEM_CACTVS_TAUTO_COUNT>
-1

> <PUBCHEM_COORDINATE_TYPE>
1
5
255

> <PUBCHEM_BONDANNOTATIONS>
15  21  8
15  22  8
19  24  8
19  26  8
20  25  8
20  27  8
21  28  8
22  29  8
24  31  8
25  32  8
26  33  8
27  34  8
28  30  8
29  30  8
31  35  8
32  36  8
33  35  8
34  36  8

$$$$
