11511026
  -OEChem-09292322302D

 55 58  0     0  0  0  0  0  0999 V2000
   12.4603    1.5600    0.0000 Cl  0  0  0  0  0  0  0  0  0  0  0  0
   14.1923    2.5600    0.0000 Cl  0  0  0  0  0  0  0  0  0  0  0  0
   10.7282   -1.4400    0.0000 N   0  0  0  0  0  0  0  0  0  0  0  0
   12.4603   -0.4400    0.0000 N   0  0  0  0  0  0  0  0  0  0  0  0
    6.3981   -1.9400    0.0000 N   0  0  0  0  0  0  0  0  0  0  0  0
    4.6660   -1.9400    0.0000 N   0  0  0  0  0  0  0  0  0  0  0  0
   10.7282   -0.4400    0.0000 C   0  0  0  0  0  0  0  0  0  0  0  0
   11.5942   -1.9400    0.0000 C   0  0  0  0  0  0  0  0  0  0  0  0
   11.5942    0.0600    0.0000 C   0  0  0  0  0  0  0  0  0  0  0  0
   12.4603   -1.4400    0.0000 C   0  0  0  0  0  0  0  0  0  0  0  0
    9.8622   -1.9400    0.0000 C   0  0  0  0  0  0  0  0  0  0  0  0
    8.9962   -1.4400    0.0000 C   0  0  0  0  0  0  0  0  0  0  0  0
    8.1301   -1.9400    0.0000 C   0  0  0  0  0  0  0  0  0  0  0  0
   13.3263    0.0600    0.0000 C   0  0  0  0  0  0  0  0  0  0  0  0
    7.2641   -1.4400    0.0000 C   0  0  0  0  0  0  0  0  0  0  0  0
   13.3263    1.0600    0.0000 C   0  0  0  0  0  0  0  0  0  0  0  0
   14.1923   -0.4400    0.0000 C   0  0  0  0  0  0  0  0  0  0  0  0
   14.1923    1.5600    0.0000 C   0  0  0  0  0  0  0  0  0  0  0  0
   15.0583    0.0600    0.0000 C   0  0  0  0  0  0  0  0  0  0  0  0
   15.0583    1.0600    0.0000 C   0  0  0  0  0  0  0  0  0  0  0  0
    5.5321   -1.4400    0.0000 C   0  0  0  0  0  0  0  0  0  0  0  0
    5.5321   -0.4400    0.0000 C   0  0  0  0  0  0  0  0  0  0  0  0
    3.8000   -1.4400    0.0000 C   0  0  0  0  0  0  0  0  0  0  0  0
    3.8000   -0.4400    0.0000 C   0  0  0  0  0  0  0  0  0  0  0  0
    4.6660    0.0600    0.0000 C   0  0  0  0  0  0  0  0  0  0  0  0
    2.9061   -1.9747    0.0000 C   0  0  0  0  0  0  0  0  0  0  0  0
    2.9061    0.0947    0.0000 C   0  0  0  0  0  0  0  0  0  0  0  0
    2.0000   -1.4608    0.0000 C   0  0  0  0  0  0  0  0  0  0  0  0
    2.0000   -0.4192    0.0000 C   0  0  0  0  0  0  0  0  0  0  0  0
   10.5162    0.1426    0.0000 H   0  0  0  0  0  0  0  0  0  0  0  0
   10.1176   -0.5477    0.0000 H   0  0  0  0  0  0  0  0  0  0  0  0
   11.1957   -2.4150    0.0000 H   0  0  0  0  0  0  0  0  0  0  0  0
   11.9928   -2.4150    0.0000 H   0  0  0  0  0  0  0  0  0  0  0  0
   11.9928    0.5349    0.0000 H   0  0  0  0  0  0  0  0  0  0  0  0
   11.1957    0.5349    0.0000 H   0  0  0  0  0  0  0  0  0  0  0  0
   12.6723   -2.0226    0.0000 H   0  0  0  0  0  0  0  0  0  0  0  0
   13.0708   -1.3323    0.0000 H   0  0  0  0  0  0  0  0  0  0  0  0
    9.4637   -2.4150    0.0000 H   0  0  0  0  0  0  0  0  0  0  0  0
   10.2607   -2.4150    0.0000 H   0  0  0  0  0  0  0  0  0  0  0  0
    9.3947   -0.9651    0.0000 H   0  0  0  0  0  0  0  0  0  0  0  0
    8.5976   -0.9651    0.0000 H   0  0  0  0  0  0  0  0  0  0  0  0
    7.7316   -2.4150    0.0000 H   0  0  0  0  0  0  0  0  0  0  0  0
    8.5287   -2.4150    0.0000 H   0  0  0  0  0  0  0  0  0  0  0  0
    7.6626   -0.9651    0.0000 H   0  0  0  0  0  0  0  0  0  0  0  0
    6.8656   -0.9651    0.0000 H   0  0  0  0  0  0  0  0  0  0  0  0
   14.1923   -1.0600    0.0000 H   0  0  0  0  0  0  0  0  0  0  0  0
    6.3981   -2.5600    0.0000 H   0  0  0  0  0  0  0  0  0  0  0  0
   15.5953   -0.2500    0.0000 H   0  0  0  0  0  0  0  0  0  0  0  0
   15.5953    1.3700    0.0000 H   0  0  0  0  0  0  0  0  0  0  0  0
    6.0690   -0.1300    0.0000 H   0  0  0  0  0  0  0  0  0  0  0  0
    4.6660    0.6800    0.0000 H   0  0  0  0  0  0  0  0  0  0  0  0
    2.9132   -2.5946    0.0000 H   0  0  0  0  0  0  0  0  0  0  0  0
    2.9132    0.7146    0.0000 H   0  0  0  0  0  0  0  0  0  0  0  0
    1.4643   -1.7729    0.0000 H   0  0  0  0  0  0  0  0  0  0  0  0
    1.4643   -0.1071    0.0000 H   0  0  0  0  0  0  0  0  0  0  0  0
  1 16  1  0  0  0  0
  2 18  1  0  0  0  0
  3  7  1  0  0  0  0
  3  8  1  0  0  0  0
  3 11  1  0  0  0  0
  4  9  1  0  0  0  0
  4 10  1  0  0  0  0
  4 14  1  0  0  0  0
  5 15  1  0  0  0  0
  5 21  1  0  0  0  0
  5 47  1  0  0  0  0
  6 21  2  0  0  0  0
  6 23  1  0  0  0  0
  7  9  1  0  0  0  0
  7 30  1  0  0  0  0
  7 31  1  0  0  0  0
  8 10  1  0  0  0  0
  8 32  1  0  0  0  0
  8 33  1  0  0  0  0
  9 34  1  0  0  0  0
  9 35  1  0  0  0  0
 10 36  1  0  0  0  0
 10 37  1  0  0  0  0
 11 12  1  0  0  0  0
 11 38  1  0  0  0  0
 11 39  1  0  0  0  0
 12 13  1  0  0  0  0
 12 40  1  0  0  0  0
 12 41  1  0  0  0  0
 13 15  1  0  0  0  0
 13 42  1  0  0  0  0
 13 43  1  0  0  0  0
 14 16  2  0  0  0  0
 14 17  1  0  0  0  0
 15 44  1  0  0  0  0
 15 45  1  0  0  0  0
 16 18  1  0  0  0  0
 17 19  2  0  0  0  0
 17 46  1  0  0  0  0
 18 20  2  0  0  0  0
 19 20  1  0  0  0  0
 19 48  1  0  0  0  0
 20 49  1  0  0  0  0
 21 22  1  0  0  0  0
 22 25  2  0  0  0  0
 22 50  1  0  0  0  0
 23 24  1  0  0  0  0
 23 26  2  0  0  0  0
 24 25  1  0  0  0  0
 24 27  2  0  0  0  0
 25 51  1  0  0  0  0
 26 28  1  0  0  0  0
 26 52  1  0  0  0  0
 27 29  1  0  0  0  0
 27 53  1  0  0  0  0
 28 29  2  0  0  0  0
 28 54  1  0  0  0  0
 29 55  1  0  0  0  0
M  END
> <PUBCHEM_COMPOUND_CID>
11511026

> <PUBCHEM_COMPOUND_CANONICALIZED>
1

> <PUBCHEM_CACTVS_COMPLEXITY>
486

> <PUBCHEM_CACTVS_HBOND_ACCEPTOR>
4

> <PUBCHEM_CACTVS_HBOND_DONOR>
1

> <PUBCHEM_CACTVS_ROTATABLE_BOND>
7

> <PUBCHEM_CACTVS_SUBSKEYS>
AAADceB7gAAGAAAAAAAAAAAAAAAAAAAAAAA8eIEAAAAAAACx9AAAHAIQAAAADArBHiQx8PPIEACgAyZiZACCgCkhByAJmuA4ZpiIYOLBm5HUIAhokALIyCcQgIAOAAAAAAICABQAAAAABAQAKAAAAAAAAA==

> <PUBCHEM_IUPAC_OPENEYE_NAME>
N-[4-[4-(2,3-dichlorophenyl)piperazin-1-yl]butyl]quinolin-2-amine

> <PUBCHEM_IUPAC_CAS_NAME>
N-[4-[4-(2,3-dichlorophenyl)-1-piperazinyl]butyl]-2-quinolinamine

> <PUBCHEM_IUPAC_NAME_MARKUP>
<I>N</I>-[4-[4-(2,3-dichlorophenyl)piperazin-1-yl]butyl]quinolin-2-amine

> <PUBCHEM_IUPAC_NAME>
N-[4-[4-(2,3-dichlorophenyl)piperazin-1-yl]butyl]quinolin-2-amine

> <PUBCHEM_IUPAC_SYSTEMATIC_NAME>
N-[4-[4-[2,3-bis(chloranyl)phenyl]piperazin-1-yl]butyl]quinolin-2-amine

> <PUBCHEM_IUPAC_TRADITIONAL_NAME>
4-[4-(2,3-dichlorophenyl)piperazino]butyl-(2-quinolyl)amine

> <PUBCHEM_IUPAC_INCHI>
InChI=1S/C23H26Cl2N4/c24-19-7-5-9-21(23(19)25)29-16-14-28(15-17-29)13-4-3-12-26-22-11-10-18-6-1-2-8-20(18)27-22/h1-2,5-11H,3-4,12-17H2,(H,26,27)

> <PUBCHEM_IUPAC_INCHIKEY>
KFOXMHFDNRTETJ-UHFFFAOYSA-N

> <PUBCHEM_XLOGP3_AA>
6.1

> <PUBCHEM_EXACT_MASS>
428.1534522

> <PUBCHEM_MOLECULAR_FORMULA>
C23H26Cl2N4

> <PUBCHEM_MOLECULAR_WEIGHT>
429.4

> <PUBCHEM_OPENEYE_CAN_SMILES>
C1CN(CCN1CCCCNC2=NC3=CC=CC=C3C=C2)C4=C(C(=CC=C4)Cl)Cl

> <PUBCHEM_OPENEYE_ISO_SMILES>
C1CN(CCN1CCCCNC2=NC3=CC=CC=C3C=C2)C4=C(C(=CC=C4)Cl)Cl

> <PUBCHEM_CACTVS_TPSA>
31.4

> <PUBCHEM_MONOISOTOPIC_WEIGHT>
428.1534522

> <PUBCHEM_TOTAL_CHARGE>
0

> <PUBCHEM_HEAVY_ATOM_COUNT>
29

> <PUBCHEM_ATOM_DEF_STEREO_COUNT>
0

> <PUBCHEM_ATOM_UDEF_STEREO_COUNT>
0

> <PUBCHEM_BOND_DEF_STEREO_COUNT>
0

> <PUBCHEM_BOND_UDEF_STEREO_COUNT>
0

> <PUBCHEM_ISOTOPIC_ATOM_COUNT>
0

> <PUBCHEM_COMPONENT_COUNT>
1

> <PUBCHEM_CACTVS_TAUTO_COUNT>
-1

> <PUBCHEM_COORDINATE_TYPE>
1
5
255

> <PUBCHEM_BONDANNOTATIONS>
14  16  8
14  17  8
16  18  8
17  19  8
18  20  8
19  20  8
21  22  8
22  25  8
23  24  8
23  26  8
24  25  8
24  27  8
26  28  8
27  29  8
28  29  8
6  21  8
6  23  8

$$$$
