134144864
  -OEChem-09292322382D

 92 96  0     0  0  0  0  0  0999 V2000
   14.1244    8.7500    0.0000 O   0  0  0  0  0  0  0  0  0  0  0  0
   10.6603    5.7500    0.0000 O   0  0  0  0  0  0  0  0  0  0  0  0
   10.6603   -0.2500    0.0000 O   0  0  0  0  0  0  0  0  0  0  0  0
    2.8660   -5.7500    0.0000 O   0  0  0  0  0  0  0  0  0  0  0  0
    7.1962   -4.2500    0.0000 N   0  0  0  0  0  0  0  0  0  0  0  0
    7.1962   -6.2500    0.0000 N   0  0  0  0  0  0  0  0  0  0  0  0
   12.3923    7.7500    0.0000 N   0  0  0  0  0  0  0  0  0  0  0  0
    9.7942    1.2500    0.0000 N   0  0  0  0  0  0  0  0  0  0  0  0
    6.3301   -4.7500    0.0000 C   0  0  0  0  0  0  0  0  0  0  0  0
    8.0622   -4.7500    0.0000 C   0  0  0  0  0  0  0  0  0  0  0  0
    6.3301   -5.7500    0.0000 C   0  0  0  0  0  0  0  0  0  0  0  0
    8.0622   -5.7500    0.0000 C   0  0  0  0  0  0  0  0  0  0  0  0
    7.1962   -3.2500    0.0000 C   0  0  0  0  0  0  0  0  0  0  0  0
    8.0622   -2.7500    0.0000 C   0  0  0  0  0  0  0  0  0  0  0  0
    7.1962   -7.2500    0.0000 C   0  0  0  0  0  0  0  0  0  0  0  0
    8.0622   -1.7500    0.0000 C   0  0  0  0  0  0  0  0  0  0  0  0
    8.9282   -1.2500    0.0000 C   0  0  0  0  0  0  0  0  0  0  0  0
    6.3301   -7.7500    0.0000 C   0  0  0  0  0  0  0  0  0  0  0  0
    8.0622   -7.7500    0.0000 C   0  0  0  0  0  0  0  0  0  0  0  0
    8.9282   -0.2500    0.0000 C   0  0  0  0  0  0  0  0  0  0  0  0
    5.4641   -7.2500    0.0000 C   0  0  0  0  0  0  0  0  0  0  0  0
    6.3301   -8.7500    0.0000 C   0  0  0  0  0  0  0  0  0  0  0  0
    8.0622   -8.7500    0.0000 C   0  0  0  0  0  0  0  0  0  0  0  0
    7.1962   -9.2500    0.0000 C   0  0  0  0  0  0  0  0  0  0  0  0
   12.3923    8.7500    0.0000 C   0  0  0  0  0  0  0  0  0  0  0  0
   13.2583    7.2500    0.0000 C   0  0  0  0  0  0  0  0  0  0  0  0
    9.7942    0.2500    0.0000 C   0  0  0  0  0  0  0  0  0  0  0  0
   11.5263    7.2500    0.0000 C   0  0  0  0  0  0  0  0  0  0  0  0
   13.2583    9.2500    0.0000 C   0  0  0  0  0  0  0  0  0  0  0  0
   14.1244    7.7500    0.0000 C   0  0  0  0  0  0  0  0  0  0  0  0
    5.4641   -6.2500    0.0000 C   0  0  0  0  0  0  0  0  0  0  0  0
    4.5981   -7.7500    0.0000 C   0  0  0  0  0  0  0  0  0  0  0  0
   11.5263    6.2500    0.0000 C   0  0  0  0  0  0  0  0  0  0  0  0
    4.5981   -5.7500    0.0000 C   0  0  0  0  0  0  0  0  0  0  0  0
    3.7320   -7.2500    0.0000 C   0  0  0  0  0  0  0  0  0  0  0  0
   10.6603    1.7500    0.0000 C   0  0  0  0  0  0  0  0  0  0  0  0
    3.7320   -6.2500    0.0000 C   0  0  0  0  0  0  0  0  0  0  0  0
   10.6603    2.7500    0.0000 C   0  0  0  0  0  0  0  0  0  0  0  0
   10.6603    4.7500    0.0000 C   0  0  0  0  0  0  0  0  0  0  0  0
   11.5263    3.2500    0.0000 C   0  0  0  0  0  0  0  0  0  0  0  0
    9.7942    3.2500    0.0000 C   0  0  0  0  0  0  0  0  0  0  0  0
   11.5263    4.2500    0.0000 C   0  0  0  0  0  0  0  0  0  0  0  0
    9.7942    4.2500    0.0000 C   0  0  0  0  0  0  0  0  0  0  0  0
    2.0000   -6.2500    0.0000 C   0  0  0  0  0  0  0  0  0  0  0  0
    6.1181   -4.1674    0.0000 H   0  0  0  0  0  0  0  0  0  0  0  0
    5.7196   -4.8577    0.0000 H   0  0  0  0  0  0  0  0  0  0  0  0
    8.6728   -4.8577    0.0000 H   0  0  0  0  0  0  0  0  0  0  0  0
    8.2742   -4.1674    0.0000 H   0  0  0  0  0  0  0  0  0  0  0  0
    5.7196   -5.6423    0.0000 H   0  0  0  0  0  0  0  0  0  0  0  0
    6.1181   -6.3326    0.0000 H   0  0  0  0  0  0  0  0  0  0  0  0
    8.2742   -6.3326    0.0000 H   0  0  0  0  0  0  0  0  0  0  0  0
    8.6728   -5.6423    0.0000 H   0  0  0  0  0  0  0  0  0  0  0  0
    6.9841   -2.6674    0.0000 H   0  0  0  0  0  0  0  0  0  0  0  0
    6.5856   -3.3577    0.0000 H   0  0  0  0  0  0  0  0  0  0  0  0
    8.2742   -3.3326    0.0000 H   0  0  0  0  0  0  0  0  0  0  0  0
    8.6728   -2.6423    0.0000 H   0  0  0  0  0  0  0  0  0  0  0  0
    7.8501   -1.1674    0.0000 H   0  0  0  0  0  0  0  0  0  0  0  0
    7.4516   -1.8577    0.0000 H   0  0  0  0  0  0  0  0  0  0  0  0
    9.1403   -1.8326    0.0000 H   0  0  0  0  0  0  0  0  0  0  0  0
    9.5388   -1.1423    0.0000 H   0  0  0  0  0  0  0  0  0  0  0  0
    8.5991   -7.4400    0.0000 H   0  0  0  0  0  0  0  0  0  0  0  0
    8.7162    0.3326    0.0000 H   0  0  0  0  0  0  0  0  0  0  0  0
    8.3176   -0.3577    0.0000 H   0  0  0  0  0  0  0  0  0  0  0  0
    5.7932   -9.0600    0.0000 H   0  0  0  0  0  0  0  0  0  0  0  0
    8.5991   -9.0600    0.0000 H   0  0  0  0  0  0  0  0  0  0  0  0
    7.1962   -9.8700    0.0000 H   0  0  0  0  0  0  0  0  0  0  0  0
   12.1803    9.3326    0.0000 H   0  0  0  0  0  0  0  0  0  0  0  0
   11.7817    8.6423    0.0000 H   0  0  0  0  0  0  0  0  0  0  0  0
   12.8598    6.7750    0.0000 H   0  0  0  0  0  0  0  0  0  0  0  0
   13.6569    6.7750    0.0000 H   0  0  0  0  0  0  0  0  0  0  0  0
   11.3142    7.8326    0.0000 H   0  0  0  0  0  0  0  0  0  0  0  0
   10.9157    7.1423    0.0000 H   0  0  0  0  0  0  0  0  0  0  0  0
   13.6569    9.7250    0.0000 H   0  0  0  0  0  0  0  0  0  0  0  0
   12.8598    9.7250    0.0000 H   0  0  0  0  0  0  0  0  0  0  0  0
   14.3364    7.1674    0.0000 H   0  0  0  0  0  0  0  0  0  0  0  0
   14.7349    7.8577    0.0000 H   0  0  0  0  0  0  0  0  0  0  0  0
    6.0010   -5.9400    0.0000 H   0  0  0  0  0  0  0  0  0  0  0  0
    4.5981   -8.3700    0.0000 H   0  0  0  0  0  0  0  0  0  0  0  0
   11.7383    5.6674    0.0000 H   0  0  0  0  0  0  0  0  0  0  0  0
   12.1369    6.3577    0.0000 H   0  0  0  0  0  0  0  0  0  0  0  0
    9.2573    1.5600    0.0000 H   0  0  0  0  0  0  0  0  0  0  0  0
    4.5981   -5.1300    0.0000 H   0  0  0  0  0  0  0  0  0  0  0  0
    3.1951   -7.5600    0.0000 H   0  0  0  0  0  0  0  0  0  0  0  0
   10.8723    1.1674    0.0000 H   0  0  0  0  0  0  0  0  0  0  0  0
   11.2708    1.8577    0.0000 H   0  0  0  0  0  0  0  0  0  0  0  0
   12.0632    2.9400    0.0000 H   0  0  0  0  0  0  0  0  0  0  0  0
    9.2573    2.9400    0.0000 H   0  0  0  0  0  0  0  0  0  0  0  0
   12.0632    4.5600    0.0000 H   0  0  0  0  0  0  0  0  0  0  0  0
    9.2573    4.5600    0.0000 H   0  0  0  0  0  0  0  0  0  0  0  0
    1.6900   -5.7131    0.0000 H   0  0  0  0  0  0  0  0  0  0  0  0
    1.4631   -6.5600    0.0000 H   0  0  0  0  0  0  0  0  0  0  0  0
    2.3100   -6.7869    0.0000 H   0  0  0  0  0  0  0  0  0  0  0  0
  1 29  1  0  0  0  0
  1 30  1  0  0  0  0
  2 33  1  0  0  0  0
  2 39  1  0  0  0  0
  3 27  2  0  0  0  0
  4 37  1  0  0  0  0
  4 44  1  0  0  0  0
  5  9  1  0  0  0  0
  5 10  1  0  0  0  0
  5 13  1  0  0  0  0
  6 11  1  0  0  0  0
  6 12  1  0  0  0  0
  6 15  1  0  0  0  0
  7 25  1  0  0  0  0
  7 26  1  0  0  0  0
  7 28  1  0  0  0  0
  8 27  1  0  0  0  0
  8 36  1  0  0  0  0
  8 81  1  0  0  0  0
  9 11  1  0  0  0  0
  9 45  1  0  0  0  0
  9 46  1  0  0  0  0
 10 12  1  0  0  0  0
 10 47  1  0  0  0  0
 10 48  1  0  0  0  0
 11 49  1  0  0  0  0
 11 50  1  0  0  0  0
 12 51  1  0  0  0  0
 12 52  1  0  0  0  0
 13 14  1  0  0  0  0
 13 53  1  0  0  0  0
 13 54  1  0  0  0  0
 14 16  1  0  0  0  0
 14 55  1  0  0  0  0
 14 56  1  0  0  0  0
 15 18  1  0  0  0  0
 15 19  2  0  0  0  0
 16 17  1  0  0  0  0
 16 57  1  0  0  0  0
 16 58  1  0  0  0  0
 17 20  1  0  0  0  0
 17 59  1  0  0  0  0
 17 60  1  0  0  0  0
 18 21  1  0  0  0  0
 18 22  2  0  0  0  0
 19 23  1  0  0  0  0
 19 61  1  0  0  0  0
 20 27  1  0  0  0  0
 20 62  1  0  0  0  0
 20 63  1  0  0  0  0
 21 31  2  0  0  0  0
 21 32  1  0  0  0  0
 22 24  1  0  0  0  0
 22 64  1  0  0  0  0
 23 24  2  0  0  0  0
 23 65  1  0  0  0  0
 24 66  1  0  0  0  0
 25 29  1  0  0  0  0
 25 67  1  0  0  0  0
 25 68  1  0  0  0  0
 26 30  1  0  0  0  0
 26 69  1  0  0  0  0
 26 70  1  0  0  0  0
 28 33  1  0  0  0  0
 28 71  1  0  0  0  0
 28 72  1  0  0  0  0
 29 73  1  0  0  0  0
 29 74  1  0  0  0  0
 30 75  1  0  0  0  0
 30 76  1  0  0  0  0
 31 34  1  0  0  0  0
 31 77  1  0  0  0  0
 32 35  2  0  0  0  0
 32 78  1  0  0  0  0
 33 79  1  0  0  0  0
 33 80  1  0  0  0  0
 34 37  2  0  0  0  0
 34 82  1  0  0  0  0
 35 37  1  0  0  0  0
 35 83  1  0  0  0  0
 36 38  1  0  0  0  0
 36 84  1  0  0  0  0
 36 85  1  0  0  0  0
 38 40  2  0  0  0  0
 38 41  1  0  0  0  0
 39 42  2  0  0  0  0
 39 43  1  0  0  0  0
 40 42  1  0  0  0  0
 40 86  1  0  0  0  0
 41 43  2  0  0  0  0
 41 87  1  0  0  0  0
 42 88  1  0  0  0  0
 43 89  1  0  0  0  0
 44 90  1  0  0  0  0
 44 91  1  0  0  0  0
 44 92  1  0  0  0  0
M  END
> <PUBCHEM_COMPOUND_CID>
134144864

> <PUBCHEM_COMPOUND_CANONICALIZED>
1

> <PUBCHEM_CACTVS_COMPLEXITY>
787

> <PUBCHEM_CACTVS_HBOND_ACCEPTOR>
7

> <PUBCHEM_CACTVS_HBOND_DONOR>
1

> <PUBCHEM_CACTVS_ROTATABLE_BOND>
15

> <PUBCHEM_CACTVS_SUBSKEYS>
AAADcfB/uAAAAAAAAAAAAAAAAAAAAAAAAAA8eMECAAAAAAABUAAAHgAQAAAADAzhmAYyxoPABACIAiVSUACCCAAhIgAIiIEObIgOZjLEsZuXOCjk1hHY6AeY2PIOoAAAAAACAABAAAAAAAQAAAAAAAAAAA==

> <PUBCHEM_IUPAC_OPENEYE_NAME>
6-[4-[2-(4-methoxyphenyl)phenyl]piperazin-1-yl]-N-[[4-(2-morpholinoethoxy)phenyl]methyl]hexanamide

> <PUBCHEM_IUPAC_CAS_NAME>
6-[4-[2-(4-methoxyphenyl)phenyl]-1-piperazinyl]-N-[[4-[2-(4-morpholinyl)ethoxy]phenyl]methyl]hexanamide

> <PUBCHEM_IUPAC_NAME_MARKUP>
6-[4-[2-(4-methoxyphenyl)phenyl]piperazin-1-yl]-<I>N</I>-[[4-(2-morpholin-4-ylethoxy)phenyl]methyl]hexanamide

> <PUBCHEM_IUPAC_NAME>
6-[4-[2-(4-methoxyphenyl)phenyl]piperazin-1-yl]-N-[[4-(2-morpholin-4-ylethoxy)phenyl]methyl]hexanamide

> <PUBCHEM_IUPAC_SYSTEMATIC_NAME>
6-[4-[2-(4-methoxyphenyl)phenyl]piperazin-1-yl]-N-[[4-(2-morpholin-4-ylethoxy)phenyl]methyl]hexanamide

> <PUBCHEM_IUPAC_TRADITIONAL_NAME>
6-[4-[2-(4-methoxyphenyl)phenyl]piperazino]-N-[4-(2-morpholinoethoxy)benzyl]hexanamide

> <PUBCHEM_IUPAC_INCHI>
InChI=1S/C36H48N4O4/c1-42-32-16-12-31(13-17-32)34-7-4-5-8-35(34)40-21-19-38(20-22-40)18-6-2-3-9-36(41)37-29-30-10-14-33(15-11-30)44-28-25-39-23-26-43-27-24-39/h4-5,7-8,10-17H,2-3,6,9,18-29H2,1H3,(H,37,41)

> <PUBCHEM_IUPAC_INCHIKEY>
YXYPYIRCJYRBDV-UHFFFAOYSA-N

> <PUBCHEM_XLOGP3_AA>
4.9

> <PUBCHEM_EXACT_MASS>
600.36755603

> <PUBCHEM_MOLECULAR_FORMULA>
C36H48N4O4

> <PUBCHEM_MOLECULAR_WEIGHT>
600.8

> <PUBCHEM_OPENEYE_CAN_SMILES>
COC1=CC=C(C=C1)C2=CC=CC=C2N3CCN(CC3)CCCCCC(=O)NCC4=CC=C(C=C4)OCCN5CCOCC5

> <PUBCHEM_OPENEYE_ISO_SMILES>
COC1=CC=C(C=C1)C2=CC=CC=C2N3CCN(CC3)CCCCCC(=O)NCC4=CC=C(C=C4)OCCN5CCOCC5

> <PUBCHEM_CACTVS_TPSA>
66.5

> <PUBCHEM_MONOISOTOPIC_WEIGHT>
600.36755603

> <PUBCHEM_TOTAL_CHARGE>
0

> <PUBCHEM_HEAVY_ATOM_COUNT>
44

> <PUBCHEM_ATOM_DEF_STEREO_COUNT>
0

> <PUBCHEM_ATOM_UDEF_STEREO_COUNT>
0

> <PUBCHEM_BOND_DEF_STEREO_COUNT>
0

> <PUBCHEM_BOND_UDEF_STEREO_COUNT>
0

> <PUBCHEM_ISOTOPIC_ATOM_COUNT>
0

> <PUBCHEM_COMPONENT_COUNT>
1

> <PUBCHEM_CACTVS_TAUTO_COUNT>
-1

> <PUBCHEM_COORDINATE_TYPE>
1
5
255

> <PUBCHEM_BONDANNOTATIONS>
15  18  8
15  19  8
18  22  8
19  23  8
21  31  8
21  32  8
22  24  8
23  24  8
31  34  8
32  35  8
34  37  8
35  37  8
38  40  8
38  41  8
39  42  8
39  43  8
40  42  8
41  43  8

$$$$
