91273
  -OEChem-09292322152D

 57 61  0     1  0  0  0  0  0999 V2000
   11.9064   -1.8063    0.0000 O   0  0  0  0  0  0  0  0  0  0  0  0
   10.7058    1.4925    0.0000 O   0  0  0  0  0  0  0  0  0  0  0  0
   11.0496   -0.2503    0.0000 N   0  0  0  0  0  0  0  0  0  0  0  0
    6.6985    0.0092    0.0000 N   0  0  0  0  0  0  0  0  0  0  0  0
    4.8191   -0.6748    0.0000 N   0  0  0  0  0  0  0  0  0  0  0  0
    3.1133   -0.3740    0.0000 N   0  0  0  0  0  0  0  0  0  0  0  0
    3.7057   -2.0016    0.0000 N   0  0  0  0  0  0  0  0  0  0  0  0
   14.0309    0.3951    0.0000 C   0  0  2  0  0  0  0  0  0  0  0  0
   14.2897    1.3611    0.0000 C   0  0  1  0  0  0  0  0  0  0  0  0
   12.6582   -0.1969    0.0000 C   0  0  2  0  0  0  0  0  0  0  0  0
   12.3162    0.7428    0.0000 C   0  0  1  0  0  0  0  0  0  0  0  0
   13.5531    2.3437    0.0000 C   0  0  0  0  0  0  0  0  0  0  0  0
   15.4299   -0.1137    0.0000 C   0  0  0  0  0  0  0  0  0  0  0  0
   15.6887    0.8522    0.0000 C   0  0  0  0  0  0  0  0  0  0  0  0
   11.8733   -0.8069    0.0000 C   0  0  0  0  0  0  0  0  0  0  0  0
   11.3228    0.7055    0.0000 C   0  0  0  0  0  0  0  0  0  0  0  0
   10.1099   -0.5923    0.0000 C   0  0  0  0  0  0  0  0  0  0  0  0
    9.3439    0.0505    0.0000 C   0  0  0  0  0  0  0  0  0  0  0  0
    8.4042   -0.2915    0.0000 C   0  0  0  0  0  0  0  0  0  0  0  0
    7.6382    0.3512    0.0000 C   0  0  0  0  0  0  0  0  0  0  0  0
    5.9324    0.6520    0.0000 C   0  0  0  0  0  0  0  0  0  0  0  0
    6.5248   -0.9756    0.0000 C   0  0  0  0  0  0  0  0  0  0  0  0
    4.9927    0.3100    0.0000 C   0  0  0  0  0  0  0  0  0  0  0  0
    5.5851   -1.3176    0.0000 C   0  0  0  0  0  0  0  0  0  0  0  0
    3.8794   -1.0168    0.0000 C   0  0  0  0  0  0  0  0  0  0  0  0
    2.1736   -0.7161    0.0000 C   0  0  0  0  0  0  0  0  0  0  0  0
    2.7660   -2.3437    0.0000 C   0  0  0  0  0  0  0  0  0  0  0  0
    2.0000   -1.7009    0.0000 C   0  0  0  0  0  0  0  0  0  0  0  0
   13.8109   -0.4259    0.0000 H   0  0  0  0  0  0  0  0  0  0  0  0
   14.5097    2.1821    0.0000 H   0  0  0  0  0  0  0  0  0  0  0  0
   12.9489   -0.9956    0.0000 H   0  0  0  0  0  0  0  0  0  0  0  0
   12.0255    1.5415    0.0000 H   0  0  0  0  0  0  0  0  0  0  0  0
   13.8709    2.8760    0.0000 H   0  0  0  0  0  0  0  0  0  0  0  0
   12.9400    2.4356    0.0000 H   0  0  0  0  0  0  0  0  0  0  0  0
   15.2349   -0.7023    0.0000 H   0  0  0  0  0  0  0  0  0  0  0  0
   16.0238   -0.2915    0.0000 H   0  0  0  0  0  0  0  0  0  0  0  0
   16.2826    0.6745    0.0000 H   0  0  0  0  0  0  0  0  0  0  0  0
   15.8836    1.4408    0.0000 H   0  0  0  0  0  0  0  0  0  0  0  0
    9.6350   -0.9908    0.0000 H   0  0  0  0  0  0  0  0  0  0  0  0
   10.4199   -1.1292    0.0000 H   0  0  0  0  0  0  0  0  0  0  0  0
    9.8188    0.4490    0.0000 H   0  0  0  0  0  0  0  0  0  0  0  0
    9.0339    0.5874    0.0000 H   0  0  0  0  0  0  0  0  0  0  0  0
    7.9292   -0.6901    0.0000 H   0  0  0  0  0  0  0  0  0  0  0  0
    8.7142   -0.8285    0.0000 H   0  0  0  0  0  0  0  0  0  0  0  0
    8.1131    0.7498    0.0000 H   0  0  0  0  0  0  0  0  0  0  0  0
    7.3282    0.8882    0.0000 H   0  0  0  0  0  0  0  0  0  0  0  0
    6.4074    1.0505    0.0000 H   0  0  0  0  0  0  0  0  0  0  0  0
    5.6224    1.1890    0.0000 H   0  0  0  0  0  0  0  0  0  0  0  0
    6.6325   -1.5862    0.0000 H   0  0  0  0  0  0  0  0  0  0  0  0
    7.1448   -0.9756    0.0000 H   0  0  0  0  0  0  0  0  0  0  0  0
    4.8851    0.9206    0.0000 H   0  0  0  0  0  0  0  0  0  0  0  0
    4.3727    0.3100    0.0000 H   0  0  0  0  0  0  0  0  0  0  0  0
    5.1102   -1.7161    0.0000 H   0  0  0  0  0  0  0  0  0  0  0  0
    5.8951   -1.8545    0.0000 H   0  0  0  0  0  0  0  0  0  0  0  0
    1.6987   -0.3175    0.0000 H   0  0  0  0  0  0  0  0  0  0  0  0
    2.6584   -2.9542    0.0000 H   0  0  0  0  0  0  0  0  0  0  0  0
    1.4174   -1.9129    0.0000 H   0  0  0  0  0  0  0  0  0  0  0  0
  1 15  2  0  0  0  0
  2 16  2  0  0  0  0
  3 15  1  0  0  0  0
  3 16  1  0  0  0  0
  3 17  1  0  0  0  0
  4 20  1  0  0  0  0
  4 21  1  0  0  0  0
  4 22  1  0  0  0  0
  5 23  1  0  0  0  0
  5 24  1  0  0  0  0
  5 25  1  0  0  0  0
  6 25  2  0  0  0  0
  6 26  1  0  0  0  0
  7 25  1  0  0  0  0
  7 27  2  0  0  0  0
  8 10  1  0  0  0  0
  8 12  1  0  0  0  0
  8 13  1  0  0  0  0
  8 29  1  1  0  0  0
  9 11  1  0  0  0  0
  9 12  1  0  0  0  0
  9 14  1  0  0  0  0
  9 30  1  6  0  0  0
 10 11  1  0  0  0  0
 10 15  1  0  0  0  0
 10 31  1  6  0  0  0
 11 16  1  0  0  0  0
 11 32  1  6  0  0  0
 12 33  1  0  0  0  0
 12 34  1  0  0  0  0
 13 14  1  0  0  0  0
 13 35  1  0  0  0  0
 13 36  1  0  0  0  0
 14 37  1  0  0  0  0
 14 38  1  0  0  0  0
 17 18  1  0  0  0  0
 17 39  1  0  0  0  0
 17 40  1  0  0  0  0
 18 19  1  0  0  0  0
 18 41  1  0  0  0  0
 18 42  1  0  0  0  0
 19 20  1  0  0  0  0
 19 43  1  0  0  0  0
 19 44  1  0  0  0  0
 20 45  1  0  0  0  0
 20 46  1  0  0  0  0
 21 23  1  0  0  0  0
 21 47  1  0  0  0  0
 21 48  1  0  0  0  0
 22 24  1  0  0  0  0
 22 49  1  0  0  0  0
 22 50  1  0  0  0  0
 23 51  1  0  0  0  0
 23 52  1  0  0  0  0
 24 53  1  0  0  0  0
 24 54  1  0  0  0  0
 26 28  2  0  0  0  0
 26 55  1  0  0  0  0
 27 28  1  0  0  0  0
 27 56  1  0  0  0  0
 28 57  1  0  0  0  0
M  END
> <PUBCHEM_COMPOUND_CID>
91273

> <PUBCHEM_COMPOUND_CANONICALIZED>
1

> <PUBCHEM_CACTVS_COMPLEXITY>
572

> <PUBCHEM_CACTVS_HBOND_ACCEPTOR>
6

> <PUBCHEM_CACTVS_HBOND_DONOR>
0

> <PUBCHEM_CACTVS_ROTATABLE_BOND>
6

> <PUBCHEM_CACTVS_SUBSKEYS>
AAADceB7sAAAAAAAAAAAAAAAAAAAAeMEAAA8WIAAAAAWAAABgAAAHgAAAAAADQDBkgQ9kJcIEACoADF3dACAgCkRAqAJUCE4ZBCASJJAyUAUBAgIBiLAACEdiMCOgAAAAAAAAAAAAAQAACAAAQAACAAAAA==

> <PUBCHEM_IUPAC_OPENEYE_NAME>
(1S,2R,6S,7R)-4-[4-(4-pyrimidin-2-ylpiperazin-1-yl)butyl]-4-azatricyclo[5.2.1.02,6]decane-3,5-dione

> <PUBCHEM_IUPAC_CAS_NAME>
(1S,2R,6S,7R)-4-[4-[4-(2-pyrimidinyl)-1-piperazinyl]butyl]-4-azatricyclo[5.2.1.02,6]decane-3,5-dione

> <PUBCHEM_IUPAC_NAME_MARKUP>
(1<I>S</I>,2<I>R</I>,6<I>S</I>,7<I>R</I>)-4-[4-(4-pyrimidin-2-ylpiperazin-1-yl)butyl]-4-azatricyclo[5.2.1.0<SUP>2,6</SUP>]decane-3,5-dione

> <PUBCHEM_IUPAC_NAME>
(1S,2R,6S,7R)-4-[4-(4-pyrimidin-2-ylpiperazin-1-yl)butyl]-4-azatricyclo[5.2.1.02,6]decane-3,5-dione

> <PUBCHEM_IUPAC_SYSTEMATIC_NAME>
(1S,2R,6S,7R)-4-[4-(4-pyrimidin-2-ylpiperazin-1-yl)butyl]-4-azatricyclo[5.2.1.02,6]decane-3,5-dione

> <PUBCHEM_IUPAC_TRADITIONAL_NAME>
(1S,2R,6S,7R)-4-[4-[4-(2-pyrimidyl)piperazino]butyl]-4-azatricyclo[5.2.1.02,6]decane-3,5-quinone

> <PUBCHEM_IUPAC_INCHI>
InChI=1S/C21H29N5O2/c27-19-17-15-4-5-16(14-15)18(17)20(28)26(19)9-2-1-8-24-10-12-25(13-11-24)21-22-6-3-7-23-21/h3,6-7,15-18H,1-2,4-5,8-14H2/t15-,16+,17+,18-

> <PUBCHEM_IUPAC_INCHIKEY>
CEIJFEGBUDEYSX-FZDBZEDMSA-N

> <PUBCHEM_XLOGP3_AA>
1.9

> <PUBCHEM_EXACT_MASS>
383.23212518

> <PUBCHEM_MOLECULAR_FORMULA>
C21H29N5O2

> <PUBCHEM_MOLECULAR_WEIGHT>
383.5

> <PUBCHEM_OPENEYE_CAN_SMILES>
C1CC2CC1C3C2C(=O)N(C3=O)CCCCN4CCN(CC4)C5=NC=CC=N5

> <PUBCHEM_OPENEYE_ISO_SMILES>
C1C[C@H]2C[C@@H]1[C@H]3[C@@H]2C(=O)N(C3=O)CCCCN4CCN(CC4)C5=NC=CC=N5

> <PUBCHEM_CACTVS_TPSA>
69.6

> <PUBCHEM_MONOISOTOPIC_WEIGHT>
383.23212518

> <PUBCHEM_TOTAL_CHARGE>
0

> <PUBCHEM_HEAVY_ATOM_COUNT>
28

> <PUBCHEM_ATOM_DEF_STEREO_COUNT>
4

> <PUBCHEM_ATOM_UDEF_STEREO_COUNT>
0

> <PUBCHEM_BOND_DEF_STEREO_COUNT>
0

> <PUBCHEM_BOND_UDEF_STEREO_COUNT>
0

> <PUBCHEM_ISOTOPIC_ATOM_COUNT>
0

> <PUBCHEM_COMPONENT_COUNT>
1

> <PUBCHEM_CACTVS_TAUTO_COUNT>
-1

> <PUBCHEM_COORDINATE_TYPE>
1
5
255

> <PUBCHEM_BONDANNOTATIONS>
10  31  6
11  32  6
26  28  8
27  28  8
6  25  8
6  26  8
7  25  8
7  27  8
8  29  5
9  30  6

$$$$
