155556311
  -OEChem-09292322092D

 46 49  0     1  0  0  0  0  0999 V2000
    9.2136    1.2428    0.0000 O   0  0  0  0  0  0  0  0  0  0  0  0
    5.6103    1.3684    0.0000 N   0  0  3  0  0  0  0  0  0  0  0  0
    4.6783   -3.0926    0.0000 N   0  0  0  0  0  0  0  0  0  0  0  0
    4.6318    1.1622    0.0000 C   0  0  0  0  0  0  0  0  0  0  0  0
    4.3211    0.2117    0.0000 C   0  0  0  0  0  0  0  0  0  0  0  0
    4.9889   -0.5326    0.0000 C   0  0  0  0  0  0  0  0  0  0  0  0
    6.2781    0.6241    0.0000 C   0  0  0  0  0  0  0  0  0  0  0  0
    5.9674   -0.3264    0.0000 C   0  0  0  0  0  0  0  0  0  0  0  0
    5.9209    2.3190    0.0000 C   0  0  0  0  0  0  0  0  0  0  0  0
    4.6783   -1.4831    0.0000 C   0  0  0  0  0  0  0  0  0  0  0  0
    3.7320   -1.7879    0.0000 C   0  0  0  0  0  0  0  0  0  0  0  0
    6.8994    2.5252    0.0000 C   0  0  0  0  0  0  0  0  0  0  0  0
    5.2619   -2.2879    0.0000 C   0  0  0  0  0  0  0  0  0  0  0  0
    3.7320   -2.7879    0.0000 C   0  0  0  0  0  0  0  0  0  0  0  0
    2.8660   -1.2879    0.0000 C   0  0  0  0  0  0  0  0  0  0  0  0
    7.5673    1.7809    0.0000 C   0  0  0  0  0  0  0  0  0  0  0  0
    2.8660   -3.2879    0.0000 C   0  0  0  0  0  0  0  0  0  0  0  0
    7.2101    3.4757    0.0000 C   0  0  0  0  0  0  0  0  0  0  0  0
    2.0000   -1.7879    0.0000 C   0  0  0  0  0  0  0  0  0  0  0  0
    2.0000   -2.7879    0.0000 C   0  0  0  0  0  0  0  0  0  0  0  0
    8.5458    1.9871    0.0000 C   0  0  0  0  0  0  0  0  0  0  0  0
    8.1886    3.6819    0.0000 C   0  0  0  0  0  0  0  0  0  0  0  0
    8.8564    2.9376    0.0000 C   0  0  0  0  0  0  0  0  0  0  0  0
   10.1921    1.4490    0.0000 C   0  0  0  0  0  0  0  0  0  0  0  0
    4.6112    1.7819    0.0000 H   0  0  0  0  0  0  0  0  0  0  0  0
    4.0179    1.2496    0.0000 H   0  0  0  0  0  0  0  0  0  0  0  0
    3.7742    0.5037    0.0000 H   0  0  0  0  0  0  0  0  0  0  0  0
    3.9385   -0.2762    0.0000 H   0  0  0  0  0  0  0  0  0  0  0  0
    6.8250    0.3321    0.0000 H   0  0  0  0  0  0  0  0  0  0  0  0
    6.6607    1.1120    0.0000 H   0  0  0  0  0  0  0  0  0  0  0  0
    6.3815   -0.7879    0.0000 H   0  0  0  0  0  0  0  0  0  0  0  0
    5.9004    2.9386    0.0000 H   0  0  0  0  0  0  0  0  0  0  0  0
    5.3071    2.4063    0.0000 H   0  0  0  0  0  0  0  0  0  0  0  0
    5.8819   -2.2879    0.0000 H   0  0  0  0  0  0  0  0  0  0  0  0
    4.8709   -3.6819    0.0000 H   0  0  0  0  0  0  0  0  0  0  0  0
    2.8660   -0.6679    0.0000 H   0  0  0  0  0  0  0  0  0  0  0  0
    7.3747    1.1916    0.0000 H   0  0  0  0  0  0  0  0  0  0  0  0
    2.8660   -3.9079    0.0000 H   0  0  0  0  0  0  0  0  0  0  0  0
    6.7960    3.9372    0.0000 H   0  0  0  0  0  0  0  0  0  0  0  0
    1.4631   -1.4779    0.0000 H   0  0  0  0  0  0  0  0  0  0  0  0
    1.4631   -3.0979    0.0000 H   0  0  0  0  0  0  0  0  0  0  0  0
    8.3812    4.2712    0.0000 H   0  0  0  0  0  0  0  0  0  0  0  0
    9.4631    3.0655    0.0000 H   0  0  0  0  0  0  0  0  0  0  0  0
   10.3200    0.8423    0.0000 H   0  0  0  0  0  0  0  0  0  0  0  0
   10.7988    1.5769    0.0000 H   0  0  0  0  0  0  0  0  0  0  0  0
   10.0643    2.0557    0.0000 H   0  0  0  0  0  0  0  0  0  0  0  0
  1 21  1  0  0  0  0
  1 24  1  0  0  0  0
  2  4  1  0  0  0  0
  2  7  1  0  0  0  0
  2  9  1  0  0  0  0
  3 13  1  0  0  0  0
  3 14  1  0  0  0  0
  3 35  1  0  0  0  0
  4  5  1  0  0  0  0
  4 25  1  0  0  0  0
  4 26  1  0  0  0  0
  5  6  1  0  0  0  0
  5 27  1  0  0  0  0
  5 28  1  0  0  0  0
  6  8  2  0  0  0  0
  6 10  1  0  0  0  0
  7  8  1  0  0  0  0
  7 29  1  0  0  0  0
  7 30  1  0  0  0  0
  8 31  1  0  0  0  0
  9 12  1  0  0  0  0
  9 32  1  0  0  0  0
  9 33  1  0  0  0  0
 10 11  1  0  0  0  0
 10 13  2  0  0  0  0
 11 14  1  0  0  0  0
 11 15  2  0  0  0  0
 12 16  2  0  0  0  0
 12 18  1  0  0  0  0
 13 34  1  0  0  0  0
 14 17  2  0  0  0  0
 15 19  1  0  0  0  0
 15 36  1  0  0  0  0
 16 21  1  0  0  0  0
 16 37  1  0  0  0  0
 17 20  1  0  0  0  0
 17 38  1  0  0  0  0
 18 22  2  0  0  0  0
 18 39  1  0  0  0  0
 19 20  2  0  0  0  0
 19 40  1  0  0  0  0
 20 41  1  0  0  0  0
 21 23  2  0  0  0  0
 22 23  1  0  0  0  0
 22 42  1  0  0  0  0
 23 43  1  0  0  0  0
 24 44  1  0  0  0  0
 24 45  1  0  0  0  0
 24 46  1  0  0  0  0
M  END
> <PUBCHEM_COMPOUND_CID>
155556311

> <PUBCHEM_COMPOUND_CANONICALIZED>
1

> <PUBCHEM_CACTVS_COMPLEXITY>
449

> <PUBCHEM_CACTVS_HBOND_ACCEPTOR>
2

> <PUBCHEM_CACTVS_HBOND_DONOR>
1

> <PUBCHEM_CACTVS_ROTATABLE_BOND>
4

> <PUBCHEM_CACTVS_SUBSKEYS>
AAADceB7IAAAAAAAAAAAAAAAAAAAAWAAAAAwYIAAAAAAAFgB9AAAHgAQAAAADAzBngY+xvPJlACgAzRnRACCiCAxIiAI2aA+bJgMJuLEsZuEMChk0BHI6AewwNAOgAABAAACAAAAAAIAAAQAAAAAAAAAAA==

> <PUBCHEM_IUPAC_OPENEYE_NAME>
3-[1-[(3-methoxyphenyl)methyl]-3,6-dihydro-2H-pyridin-4-yl]-1H-indole

> <PUBCHEM_IUPAC_CAS_NAME>
3-[1-[(3-methoxyphenyl)methyl]-3,6-dihydro-2H-pyridin-4-yl]-1H-indole

> <PUBCHEM_IUPAC_NAME_MARKUP>
3-[1-[(3-methoxyphenyl)methyl]-3,6-dihydro-2<I>H</I>-pyridin-4-yl]-1<I>H</I>-indole

> <PUBCHEM_IUPAC_NAME>
3-[1-[(3-methoxyphenyl)methyl]-3,6-dihydro-2H-pyridin-4-yl]-1H-indole

> <PUBCHEM_IUPAC_SYSTEMATIC_NAME>
3-[1-[(3-methoxyphenyl)methyl]-3,6-dihydro-2H-pyridin-4-yl]-1H-indole

> <PUBCHEM_IUPAC_TRADITIONAL_NAME>
3-(1-m-anisyl-3,6-dihydro-2H-pyridin-4-yl)-1H-indole

> <PUBCHEM_IUPAC_INCHI>
InChI=1S/C21H22N2O/c1-24-18-6-4-5-16(13-18)15-23-11-9-17(10-12-23)20-14-22-21-8-3-2-7-19(20)21/h2-9,13-14,22H,10-12,15H2,1H3

> <PUBCHEM_IUPAC_INCHIKEY>
ALKXNIXXISSQFE-UHFFFAOYSA-N

> <PUBCHEM_XLOGP3_AA>
3.7

> <PUBCHEM_EXACT_MASS>
318.173213330

> <PUBCHEM_MOLECULAR_FORMULA>
C21H22N2O

> <PUBCHEM_MOLECULAR_WEIGHT>
318.4

> <PUBCHEM_OPENEYE_CAN_SMILES>
COC1=CC=CC(=C1)CN2CCC(=CC2)C3=CNC4=CC=CC=C43

> <PUBCHEM_OPENEYE_ISO_SMILES>
COC1=CC=CC(=C1)CN2CCC(=CC2)C3=CNC4=CC=CC=C43

> <PUBCHEM_CACTVS_TPSA>
28.3

> <PUBCHEM_MONOISOTOPIC_WEIGHT>
318.173213330

> <PUBCHEM_TOTAL_CHARGE>
0

> <PUBCHEM_HEAVY_ATOM_COUNT>
24

> <PUBCHEM_ATOM_DEF_STEREO_COUNT>
0

> <PUBCHEM_ATOM_UDEF_STEREO_COUNT>
0

> <PUBCHEM_BOND_DEF_STEREO_COUNT>
0

> <PUBCHEM_BOND_UDEF_STEREO_COUNT>
0

> <PUBCHEM_ISOTOPIC_ATOM_COUNT>
0

> <PUBCHEM_COMPONENT_COUNT>
1

> <PUBCHEM_CACTVS_TAUTO_COUNT>
-1

> <PUBCHEM_COORDINATE_TYPE>
1
5
255

> <PUBCHEM_BONDANNOTATIONS>
10  11  8
10  13  8
11  14  8
11  15  8
12  16  8
12  18  8
14  17  8
15  19  8
16  21  8
17  20  8
18  22  8
19  20  8
21  23  8
22  23  8
3  13  8
3  14  8

$$$$
