25131483
  -OEChem-09292322502D

 54 57  0     1  0  0  0  0  0999 V2000
    2.0000   -1.9560    0.0000 F   0  0  0  0  0  0  0  0  0  0  0  0
   12.4725   -1.7607    0.0000 O   0  0  0  0  0  0  0  0  0  0  0  0
   10.6603    1.0440    0.0000 O   0  0  0  0  0  0  0  0  0  0  0  0
    5.4641    1.0440    0.0000 O   0  0  0  0  0  0  0  0  0  0  0  0
   13.7617    1.0055    0.0000 O   0  0  0  0  0  0  0  0  0  0  0  0
   12.1153    1.5436    0.0000 O   0  0  0  0  0  0  0  0  0  0  0  0
    8.0622   -1.4560    0.0000 N   0  0  0  0  0  0  0  0  0  0  0  0
    9.7942   -1.4560    0.0000 C   0  0  3  0  0  0  0  0  0  0  0  0
    8.9282   -1.9560    0.0000 C   0  0  0  0  0  0  0  0  0  0  0  0
    6.3301   -0.4560    0.0000 C   0  0  0  0  0  0  0  0  0  0  0  0
    7.1962   -1.9560    0.0000 C   0  0  0  0  0  0  0  0  0  0  0  0
    8.0622   -0.4560    0.0000 C   0  0  0  0  0  0  0  0  0  0  0  0
    6.3301   -1.4560    0.0000 C   0  0  0  0  0  0  0  0  0  0  0  0
    7.1962    0.0440    0.0000 C   0  0  0  0  0  0  0  0  0  0  0  0
   10.6603   -1.9560    0.0000 C   0  0  0  0  0  0  0  0  0  0  0  0
    9.7942   -0.4560    0.0000 C   0  0  0  0  0  0  0  0  0  0  0  0
   11.5263   -1.4560    0.0000 C   0  0  0  0  0  0  0  0  0  0  0  0
   10.6603    0.0440    0.0000 C   0  0  0  0  0  0  0  0  0  0  0  0
    5.4641    0.0440    0.0000 C   0  0  0  0  0  0  0  0  0  0  0  0
   11.5263   -0.4560    0.0000 C   0  0  0  0  0  0  0  0  0  0  0  0
   12.4725   -0.1513    0.0000 C   0  0  0  0  0  0  0  0  0  0  0  0
    4.5981   -0.4560    0.0000 C   0  0  0  0  0  0  0  0  0  0  0  0
   13.0561   -0.9560    0.0000 C   0  0  0  0  0  0  0  0  0  0  0  0
   12.7832    0.7993    0.0000 C   0  0  0  0  0  0  0  0  0  0  0  0
    4.5981   -1.4560    0.0000 C   0  0  0  0  0  0  0  0  0  0  0  0
    3.7320    0.0440    0.0000 C   0  0  0  0  0  0  0  0  0  0  0  0
    3.7320   -1.9560    0.0000 C   0  0  0  0  0  0  0  0  0  0  0  0
    2.8660   -0.4560    0.0000 C   0  0  0  0  0  0  0  0  0  0  0  0
    2.8660   -1.4560    0.0000 C   0  0  0  0  0  0  0  0  0  0  0  0
   14.0723    1.9560    0.0000 C   0  0  0  0  0  0  0  0  0  0  0  0
    9.2573   -1.1460    0.0000 H   0  0  0  0  0  0  0  0  0  0  0  0
    8.5297   -2.4309    0.0000 H   0  0  0  0  0  0  0  0  0  0  0  0
    9.3267   -2.4309    0.0000 H   0  0  0  0  0  0  0  0  0  0  0  0
    5.7932   -0.7660    0.0000 H   0  0  0  0  0  0  0  0  0  0  0  0
    6.7976   -2.4309    0.0000 H   0  0  0  0  0  0  0  0  0  0  0  0
    7.5947   -2.4309    0.0000 H   0  0  0  0  0  0  0  0  0  0  0  0
    8.6728   -0.5637    0.0000 H   0  0  0  0  0  0  0  0  0  0  0  0
    8.2742    0.1266    0.0000 H   0  0  0  0  0  0  0  0  0  0  0  0
    5.7196   -1.3483    0.0000 H   0  0  0  0  0  0  0  0  0  0  0  0
    6.1181   -2.0386    0.0000 H   0  0  0  0  0  0  0  0  0  0  0  0
    7.5947    0.5190    0.0000 H   0  0  0  0  0  0  0  0  0  0  0  0
    6.7976    0.5190    0.0000 H   0  0  0  0  0  0  0  0  0  0  0  0
   10.2617   -2.4309    0.0000 H   0  0  0  0  0  0  0  0  0  0  0  0
   11.0588   -2.4309    0.0000 H   0  0  0  0  0  0  0  0  0  0  0  0
    9.5822    0.1266    0.0000 H   0  0  0  0  0  0  0  0  0  0  0  0
    9.1836   -0.5637    0.0000 H   0  0  0  0  0  0  0  0  0  0  0  0
   13.6761   -0.9560    0.0000 H   0  0  0  0  0  0  0  0  0  0  0  0
    5.1350   -1.7660    0.0000 H   0  0  0  0  0  0  0  0  0  0  0  0
    3.7320    0.6640    0.0000 H   0  0  0  0  0  0  0  0  0  0  0  0
    3.7320   -2.5760    0.0000 H   0  0  0  0  0  0  0  0  0  0  0  0
    2.3291   -0.1460    0.0000 H   0  0  0  0  0  0  0  0  0  0  0  0
   14.6617    1.7634    0.0000 H   0  0  0  0  0  0  0  0  0  0  0  0
   14.2649    2.5453    0.0000 H   0  0  0  0  0  0  0  0  0  0  0  0
   13.4830    2.1486    0.0000 H   0  0  0  0  0  0  0  0  0  0  0  0
  1 29  1  0  0  0  0
  2 17  1  0  0  0  0
  2 23  1  0  0  0  0
  3 18  2  0  0  0  0
  4 19  2  0  0  0  0
  5 24  1  0  0  0  0
  5 30  1  0  0  0  0
  6 24  2  0  0  0  0
  7  9  1  0  0  0  0
  7 11  1  0  0  0  0
  7 12  1  0  0  0  0
  8  9  1  0  0  0  0
  8 15  1  0  0  0  0
  8 16  1  0  0  0  0
  8 31  1  0  0  0  0
  9 32  1  0  0  0  0
  9 33  1  0  0  0  0
 10 13  1  0  0  0  0
 10 14  1  0  0  0  0
 10 19  1  0  0  0  0
 10 34  1  0  0  0  0
 11 13  1  0  0  0  0
 11 35  1  0  0  0  0
 11 36  1  0  0  0  0
 12 14  1  0  0  0  0
 12 37  1  0  0  0  0
 12 38  1  0  0  0  0
 13 39  1  0  0  0  0
 13 40  1  0  0  0  0
 14 41  1  0  0  0  0
 14 42  1  0  0  0  0
 15 17  1  0  0  0  0
 15 43  1  0  0  0  0
 15 44  1  0  0  0  0
 16 18  1  0  0  0  0
 16 45  1  0  0  0  0
 16 46  1  0  0  0  0
 17 20  2  0  0  0  0
 18 20  1  0  0  0  0
 19 22  1  0  0  0  0
 20 21  1  0  0  0  0
 21 23  2  0  0  0  0
 21 24  1  0  0  0  0
 22 25  2  0  0  0  0
 22 26  1  0  0  0  0
 23 47  1  0  0  0  0
 25 27  1  0  0  0  0
 25 48  1  0  0  0  0
 26 28  2  0  0  0  0
 26 49  1  0  0  0  0
 27 29  2  0  0  0  0
 27 50  1  0  0  0  0
 28 29  1  0  0  0  0
 28 51  1  0  0  0  0
 30 52  1  0  0  0  0
 30 53  1  0  0  0  0
 30 54  1  0  0  0  0
M  END
> <PUBCHEM_COMPOUND_CID>
25131483

> <PUBCHEM_COMPOUND_CANONICALIZED>
1

> <PUBCHEM_CACTVS_COMPLEXITY>
654

> <PUBCHEM_CACTVS_HBOND_ACCEPTOR>
7

> <PUBCHEM_CACTVS_HBOND_DONOR>
0

> <PUBCHEM_CACTVS_ROTATABLE_BOND>
6

> <PUBCHEM_CACTVS_SUBSKEYS>
AAADceB6OQAAAAAAAAAAAAAAAAAAASAAAAA8YIAAAAAAAEgBwAAAHwAAAAAADQThmA4yDIMABECIAqjSiAACCAAkIAAIiAEMCMgMJzaMtRqGOWCl4BGIqYf/zvDugAAAAAAAAACAAAIAABAAAAAAAAAAAA==

> <PUBCHEM_IUPAC_OPENEYE_NAME>
methyl 6-[[4-(4-fluorobenzoyl)-1-piperidyl]methyl]-4-oxo-6,7-dihydro-5H-benzofuran-3-carboxylate

> <PUBCHEM_IUPAC_CAS_NAME>
6-[[4-[(4-fluorophenyl)-oxomethyl]-1-piperidinyl]methyl]-4-oxo-6,7-dihydro-5H-benzofuran-3-carboxylic acid methyl ester

> <PUBCHEM_IUPAC_NAME_MARKUP>
methyl 6-[[4-(4-fluorobenzoyl)piperidin-1-yl]methyl]-4-oxo-6,7-dihydro-5<I>H</I>-1-benzofuran-3-carboxylate

> <PUBCHEM_IUPAC_NAME>
methyl 6-[[4-(4-fluorobenzoyl)piperidin-1-yl]methyl]-4-oxo-6,7-dihydro-5H-1-benzofuran-3-carboxylate

> <PUBCHEM_IUPAC_SYSTEMATIC_NAME>
methyl 6-[[4-(4-fluorophenyl)carbonylpiperidin-1-yl]methyl]-4-oxidanylidene-6,7-dihydro-5H-1-benzofuran-3-carboxylate

> <PUBCHEM_IUPAC_TRADITIONAL_NAME>
6-[[4-(4-fluorobenzoyl)piperidino]methyl]-4-keto-6,7-dihydro-5H-benzofuran-3-carboxylic acid methyl ester

> <PUBCHEM_IUPAC_INCHI>
InChI=1S/C23H24FNO5/c1-29-23(28)18-13-30-20-11-14(10-19(26)21(18)20)12-25-8-6-16(7-9-25)22(27)15-2-4-17(24)5-3-15/h2-5,13-14,16H,6-12H2,1H3

> <PUBCHEM_IUPAC_INCHIKEY>
NKKPANFCGMJOFW-UHFFFAOYSA-N

> <PUBCHEM_XLOGP3_AA>
2.9

> <PUBCHEM_EXACT_MASS>
413.16385103

> <PUBCHEM_MOLECULAR_FORMULA>
C23H24FNO5

> <PUBCHEM_MOLECULAR_WEIGHT>
413.4

> <PUBCHEM_OPENEYE_CAN_SMILES>
COC(=O)C1=COC2=C1C(=O)CC(C2)CN3CCC(CC3)C(=O)C4=CC=C(C=C4)F

> <PUBCHEM_OPENEYE_ISO_SMILES>
COC(=O)C1=COC2=C1C(=O)CC(C2)CN3CCC(CC3)C(=O)C4=CC=C(C=C4)F

> <PUBCHEM_CACTVS_TPSA>
76.8

> <PUBCHEM_MONOISOTOPIC_WEIGHT>
413.16385103

> <PUBCHEM_TOTAL_CHARGE>
0

> <PUBCHEM_HEAVY_ATOM_COUNT>
30

> <PUBCHEM_ATOM_DEF_STEREO_COUNT>
0

> <PUBCHEM_ATOM_UDEF_STEREO_COUNT>
1

> <PUBCHEM_BOND_DEF_STEREO_COUNT>
0

> <PUBCHEM_BOND_UDEF_STEREO_COUNT>
0

> <PUBCHEM_ISOTOPIC_ATOM_COUNT>
0

> <PUBCHEM_COMPONENT_COUNT>
1

> <PUBCHEM_CACTVS_TAUTO_COUNT>
-1

> <PUBCHEM_COORDINATE_TYPE>
1
5
255

> <PUBCHEM_BONDANNOTATIONS>
17  20  8
2  17  8
2  23  8
20  21  8
21  23  8
22  25  8
22  26  8
25  27  8
26  28  8
27  29  8
28  29  8
8  9  3

$$$$
