44325908
  -OEChem-09292322122D

 41 43  0     1  0  0  0  0  0999 V2000
    4.9641   -4.0194    0.0000 S   0  0  0  0  0  0  0  0  0  0  0  0
    5.4641   -1.4806    0.0000 N   0  0  3  0  0  0  0  0  0  0  0  0
    2.8660    4.0194    0.0000 N   0  0  0  0  0  0  0  0  0  0  0  0
    4.5981    0.0194    0.0000 C   0  0  2  0  0  0  0  0  0  0  0  0
    5.4641    0.5194    0.0000 C   0  0  0  0  0  0  0  0  0  0  0  0
    4.5981   -0.9806    0.0000 C   0  0  0  0  0  0  0  0  0  0  0  0
    6.3301    0.0194    0.0000 C   0  0  0  0  0  0  0  0  0  0  0  0
    6.3301   -0.9806    0.0000 C   0  0  0  0  0  0  0  0  0  0  0  0
    3.7320    0.5194    0.0000 C   0  0  0  0  0  0  0  0  0  0  0  0
    5.4641   -2.4806    0.0000 C   0  0  0  0  0  0  0  0  0  0  0  0
    4.6551   -3.0684    0.0000 C   0  0  0  0  0  0  0  0  0  0  0  0
    3.7320    1.5194    0.0000 C   0  0  0  0  0  0  0  0  0  0  0  0
    2.8660    0.0194    0.0000 C   0  0  0  0  0  0  0  0  0  0  0  0
    6.2731   -3.0684    0.0000 C   0  0  0  0  0  0  0  0  0  0  0  0
    3.7040   -2.7594    0.0000 C   0  0  0  0  0  0  0  0  0  0  0  0
    2.8660    2.0194    0.0000 C   0  0  0  0  0  0  0  0  0  0  0  0
    5.9641   -4.0194    0.0000 C   0  0  0  0  0  0  0  0  0  0  0  0
    2.0000    0.5194    0.0000 C   0  0  0  0  0  0  0  0  0  0  0  0
    2.0000    1.5194    0.0000 C   0  0  0  0  0  0  0  0  0  0  0  0
    2.9609   -3.4285    0.0000 C   0  0  0  0  0  0  0  0  0  0  0  0
    2.8660    3.0194    0.0000 C   0  0  0  0  0  0  0  0  0  0  0  0
    4.5981    0.6394    0.0000 H   0  0  0  0  0  0  0  0  0  0  0  0
    5.8626    0.9944    0.0000 H   0  0  0  0  0  0  0  0  0  0  0  0
    5.0656    0.9944    0.0000 H   0  0  0  0  0  0  0  0  0  0  0  0
    3.9875   -0.8729    0.0000 H   0  0  0  0  0  0  0  0  0  0  0  0
    4.3860   -1.5632    0.0000 H   0  0  0  0  0  0  0  0  0  0  0  0
    6.9407   -0.0882    0.0000 H   0  0  0  0  0  0  0  0  0  0  0  0
    6.5422    0.6020    0.0000 H   0  0  0  0  0  0  0  0  0  0  0  0
    6.5422   -1.5632    0.0000 H   0  0  0  0  0  0  0  0  0  0  0  0
    6.9407   -0.8729    0.0000 H   0  0  0  0  0  0  0  0  0  0  0  0
    4.2690    1.8294    0.0000 H   0  0  0  0  0  0  0  0  0  0  0  0
    2.8660   -0.6006    0.0000 H   0  0  0  0  0  0  0  0  0  0  0  0
    6.8628   -2.8768    0.0000 H   0  0  0  0  0  0  0  0  0  0  0  0
    3.9951   -2.2119    0.0000 H   0  0  0  0  0  0  0  0  0  0  0  0
    3.2155   -2.3776    0.0000 H   0  0  0  0  0  0  0  0  0  0  0  0
    6.3285   -4.5210    0.0000 H   0  0  0  0  0  0  0  0  0  0  0  0
    1.4631    0.2094    0.0000 H   0  0  0  0  0  0  0  0  0  0  0  0
    1.4631    1.8294    0.0000 H   0  0  0  0  0  0  0  0  0  0  0  0
    2.5460   -2.9677    0.0000 H   0  0  0  0  0  0  0  0  0  0  0  0
    2.5001   -3.8433    0.0000 H   0  0  0  0  0  0  0  0  0  0  0  0
    3.3757   -3.8892    0.0000 H   0  0  0  0  0  0  0  0  0  0  0  0
  1 11  1  0  0  0  0
  1 17  1  0  0  0  0
  2  6  1  0  0  0  0
  2  8  1  0  0  0  0
  2 10  1  0  0  0  0
  3 21  3  0  0  0  0
  4  5  1  0  0  0  0
  4  6  1  0  0  0  0
  4  9  1  6  0  0  0
  4 22  1  0  0  0  0
  5  7  1  0  0  0  0
  5 23  1  0  0  0  0
  5 24  1  0  0  0  0
  6 25  1  0  0  0  0
  6 26  1  0  0  0  0
  7  8  1  0  0  0  0
  7 27  1  0  0  0  0
  7 28  1  0  0  0  0
  8 29  1  0  0  0  0
  8 30  1  0  0  0  0
  9 12  1  0  0  0  0
  9 13  2  0  0  0  0
 10 11  2  0  0  0  0
 10 14  1  0  0  0  0
 11 15  1  0  0  0  0
 12 16  2  0  0  0  0
 12 31  1  0  0  0  0
 13 18  1  0  0  0  0
 13 32  1  0  0  0  0
 14 17  2  0  0  0  0
 14 33  1  0  0  0  0
 15 20  1  0  0  0  0
 15 34  1  0  0  0  0
 15 35  1  0  0  0  0
 16 19  1  0  0  0  0
 16 21  1  0  0  0  0
 17 36  1  0  0  0  0
 18 19  2  0  0  0  0
 18 37  1  0  0  0  0
 19 38  1  0  0  0  0
 20 39  1  0  0  0  0
 20 40  1  0  0  0  0
 20 41  1  0  0  0  0
M  END
> <PUBCHEM_COMPOUND_CID>
44325908

> <PUBCHEM_COMPOUND_CANONICALIZED>
1

> <PUBCHEM_CACTVS_COMPLEXITY>
388

> <PUBCHEM_CACTVS_HBOND_ACCEPTOR>
3

> <PUBCHEM_CACTVS_HBOND_DONOR>
0

> <PUBCHEM_CACTVS_ROTATABLE_BOND>
3

> <PUBCHEM_CACTVS_SUBSKEYS>
AAADceB7AABAAAAAAAAAAAAAAAAAASAAAAA8QAAAAAAAAAABwAAAHAQAAAAADQjFWASywYMAAAiUBiRCQACjAIAhChBIiBwIZIgIoCLgkRGEIAwggADoyA8QgMAOgAACAAAAAAAAAAQAAAAAAAAAAAAAAA==

> <PUBCHEM_IUPAC_OPENEYE_NAME>
3-[(3S)-1-(2-ethyl-3-thienyl)-3-piperidyl]benzonitrile

> <PUBCHEM_IUPAC_CAS_NAME>
3-[(3S)-1-(2-ethyl-3-thiophenyl)-3-piperidinyl]benzonitrile

> <PUBCHEM_IUPAC_NAME_MARKUP>
3-[(3<I>S</I>)-1-(2-ethylthiophen-3-yl)piperidin-3-yl]benzonitrile

> <PUBCHEM_IUPAC_NAME>
3-[(3S)-1-(2-ethylthiophen-3-yl)piperidin-3-yl]benzonitrile

> <PUBCHEM_IUPAC_SYSTEMATIC_NAME>
3-[(3S)-1-(2-ethylthiophen-3-yl)piperidin-3-yl]benzenecarbonitrile

> <PUBCHEM_IUPAC_TRADITIONAL_NAME>
3-[(3S)-1-(2-ethyl-3-thienyl)-3-piperidyl]benzonitrile

> <PUBCHEM_IUPAC_INCHI>
InChI=1S/C18H20N2S/c1-2-18-17(8-10-21-18)20-9-4-7-16(13-20)15-6-3-5-14(11-15)12-19/h3,5-6,8,10-11,16H,2,4,7,9,13H2,1H3/t16-/m1/s1

> <PUBCHEM_IUPAC_INCHIKEY>
FLHNFXPLCFJIDJ-MRXNPFEDSA-N

> <PUBCHEM_XLOGP3_AA>
4.5

> <PUBCHEM_EXACT_MASS>
296.13471982

> <PUBCHEM_MOLECULAR_FORMULA>
C18H20N2S

> <PUBCHEM_MOLECULAR_WEIGHT>
296.4

> <PUBCHEM_OPENEYE_CAN_SMILES>
CCC1=C(C=CS1)N2CCCC(C2)C3=CC=CC(=C3)C#N

> <PUBCHEM_OPENEYE_ISO_SMILES>
CCC1=C(C=CS1)N2CCC[C@H](C2)C3=CC=CC(=C3)C#N

> <PUBCHEM_CACTVS_TPSA>
55.3

> <PUBCHEM_MONOISOTOPIC_WEIGHT>
296.13471982

> <PUBCHEM_TOTAL_CHARGE>
0

> <PUBCHEM_HEAVY_ATOM_COUNT>
21

> <PUBCHEM_ATOM_DEF_STEREO_COUNT>
1

> <PUBCHEM_ATOM_UDEF_STEREO_COUNT>
0

> <PUBCHEM_BOND_DEF_STEREO_COUNT>
0

> <PUBCHEM_BOND_UDEF_STEREO_COUNT>
0

> <PUBCHEM_ISOTOPIC_ATOM_COUNT>
0

> <PUBCHEM_COMPONENT_COUNT>
1

> <PUBCHEM_CACTVS_TAUTO_COUNT>
-1

> <PUBCHEM_COORDINATE_TYPE>
1
5
255

> <PUBCHEM_BONDANNOTATIONS>
1  11  8
1  17  8
10  11  8
10  14  8
12  16  8
13  18  8
14  17  8
16  19  8
18  19  8
4  9  6
9  12  8
9  13  8

$$$$
