25155850
  -OEChem-09292322502D

 66 69  0     0  0  0  0  0  0999 V2000
    5.4641   -5.5000    0.0000 Cl  0  0  0  0  0  0  0  0  0  0  0  0
    8.9282    2.5000    0.0000 O   0  0  0  0  0  0  0  0  0  0  0  0
    2.8660    4.0000    0.0000 O   0  0  0  0  0  0  0  0  0  0  0  0
    7.1962   -0.5000    0.0000 N   0  0  0  0  0  0  0  0  0  0  0  0
    7.1962   -2.5000    0.0000 N   0  0  0  0  0  0  0  0  0  0  0  0
    8.0622   -1.0000    0.0000 C   0  0  0  0  0  0  0  0  0  0  0  0
    6.3301   -1.0000    0.0000 C   0  0  0  0  0  0  0  0  0  0  0  0
    8.0622   -2.0000    0.0000 C   0  0  0  0  0  0  0  0  0  0  0  0
    6.3301   -2.0000    0.0000 C   0  0  0  0  0  0  0  0  0  0  0  0
    7.1962    0.5000    0.0000 C   0  0  0  0  0  0  0  0  0  0  0  0
    8.0622    1.0000    0.0000 C   0  0  0  0  0  0  0  0  0  0  0  0
    7.1962   -3.5000    0.0000 C   0  0  0  0  0  0  0  0  0  0  0  0
    8.0622    2.0000    0.0000 C   0  0  0  0  0  0  0  0  0  0  0  0
    6.3301   -4.0000    0.0000 C   0  0  0  0  0  0  0  0  0  0  0  0
    8.0622   -4.0000    0.0000 C   0  0  0  0  0  0  0  0  0  0  0  0
    6.3301   -5.0000    0.0000 C   0  0  0  0  0  0  0  0  0  0  0  0
    8.0622   -5.0000    0.0000 C   0  0  0  0  0  0  0  0  0  0  0  0
    8.9282    3.5000    0.0000 C   0  0  0  0  0  0  0  0  0  0  0  0
    8.0622    4.0000    0.0000 C   0  0  0  0  0  0  0  0  0  0  0  0
    7.1962    3.5000    0.0000 C   0  0  0  0  0  0  0  0  0  0  0  0
    7.1962   -5.5000    0.0000 C   0  0  0  0  0  0  0  0  0  0  0  0
    6.3301    4.0000    0.0000 C   0  0  0  0  0  0  0  0  0  0  0  0
    9.7942    4.0000    0.0000 C   0  0  0  0  0  0  0  0  0  0  0  0
    8.0622    5.0000    0.0000 C   0  0  0  0  0  0  0  0  0  0  0  0
    5.4641    3.5000    0.0000 C   0  0  0  0  0  0  0  0  0  0  0  0
    9.7942    5.0000    0.0000 C   0  0  0  0  0  0  0  0  0  0  0  0
    8.9282    5.5000    0.0000 C   0  0  0  0  0  0  0  0  0  0  0  0
    4.5981    4.0000    0.0000 C   0  0  0  0  0  0  0  0  0  0  0  0
    5.4641    2.5000    0.0000 C   0  0  0  0  0  0  0  0  0  0  0  0
    3.7320    3.5000    0.0000 C   0  0  0  0  0  0  0  0  0  0  0  0
    4.5981    2.0000    0.0000 C   0  0  0  0  0  0  0  0  0  0  0  0
    3.7320    2.5000    0.0000 C   0  0  0  0  0  0  0  0  0  0  0  0
    2.0000    3.5000    0.0000 C   0  0  0  0  0  0  0  0  0  0  0  0
    8.6728   -1.1077    0.0000 H   0  0  0  0  0  0  0  0  0  0  0  0
    8.2742   -0.4174    0.0000 H   0  0  0  0  0  0  0  0  0  0  0  0
    6.1181   -0.4174    0.0000 H   0  0  0  0  0  0  0  0  0  0  0  0
    5.7196   -1.1077    0.0000 H   0  0  0  0  0  0  0  0  0  0  0  0
    8.2742   -2.5826    0.0000 H   0  0  0  0  0  0  0  0  0  0  0  0
    8.6728   -1.8923    0.0000 H   0  0  0  0  0  0  0  0  0  0  0  0
    5.7196   -1.8923    0.0000 H   0  0  0  0  0  0  0  0  0  0  0  0
    6.1181   -2.5826    0.0000 H   0  0  0  0  0  0  0  0  0  0  0  0
    6.9841    1.0826    0.0000 H   0  0  0  0  0  0  0  0  0  0  0  0
    6.5856    0.3923    0.0000 H   0  0  0  0  0  0  0  0  0  0  0  0
    8.2742    0.4174    0.0000 H   0  0  0  0  0  0  0  0  0  0  0  0
    8.6728    1.1077    0.0000 H   0  0  0  0  0  0  0  0  0  0  0  0
    7.8501    2.5826    0.0000 H   0  0  0  0  0  0  0  0  0  0  0  0
    7.4516    1.8923    0.0000 H   0  0  0  0  0  0  0  0  0  0  0  0
    5.7932   -3.6900    0.0000 H   0  0  0  0  0  0  0  0  0  0  0  0
    8.5991   -3.6900    0.0000 H   0  0  0  0  0  0  0  0  0  0  0  0
    8.5991   -5.3100    0.0000 H   0  0  0  0  0  0  0  0  0  0  0  0
    6.7976    3.0250    0.0000 H   0  0  0  0  0  0  0  0  0  0  0  0
    7.5947    3.0250    0.0000 H   0  0  0  0  0  0  0  0  0  0  0  0
    7.1962   -6.1200    0.0000 H   0  0  0  0  0  0  0  0  0  0  0  0
    6.7287    4.4750    0.0000 H   0  0  0  0  0  0  0  0  0  0  0  0
    5.9316    4.4750    0.0000 H   0  0  0  0  0  0  0  0  0  0  0  0
   10.3312    3.6900    0.0000 H   0  0  0  0  0  0  0  0  0  0  0  0
    7.5252    5.3100    0.0000 H   0  0  0  0  0  0  0  0  0  0  0  0
   10.3312    5.3100    0.0000 H   0  0  0  0  0  0  0  0  0  0  0  0
    8.9282    6.1200    0.0000 H   0  0  0  0  0  0  0  0  0  0  0  0
    4.5981    4.6200    0.0000 H   0  0  0  0  0  0  0  0  0  0  0  0
    6.0010    2.1900    0.0000 H   0  0  0  0  0  0  0  0  0  0  0  0
    4.5981    1.3800    0.0000 H   0  0  0  0  0  0  0  0  0  0  0  0
    3.1951    2.1900    0.0000 H   0  0  0  0  0  0  0  0  0  0  0  0
    1.6900    4.0369    0.0000 H   0  0  0  0  0  0  0  0  0  0  0  0
    1.4631    3.1900    0.0000 H   0  0  0  0  0  0  0  0  0  0  0  0
    2.3100    2.9631    0.0000 H   0  0  0  0  0  0  0  0  0  0  0  0
  1 16  1  0  0  0  0
  2 13  1  0  0  0  0
  2 18  1  0  0  0  0
  3 30  1  0  0  0  0
  3 33  1  0  0  0  0
  4  6  1  0  0  0  0
  4  7  1  0  0  0  0
  4 10  1  0  0  0  0
  5  8  1  0  0  0  0
  5  9  1  0  0  0  0
  5 12  1  0  0  0  0
  6  8  1  0  0  0  0
  6 34  1  0  0  0  0
  6 35  1  0  0  0  0
  7  9  1  0  0  0  0
  7 36  1  0  0  0  0
  7 37  1  0  0  0  0
  8 38  1  0  0  0  0
  8 39  1  0  0  0  0
  9 40  1  0  0  0  0
  9 41  1  0  0  0  0
 10 11  1  0  0  0  0
 10 42  1  0  0  0  0
 10 43  1  0  0  0  0
 11 13  1  0  0  0  0
 11 44  1  0  0  0  0
 11 45  1  0  0  0  0
 12 14  2  0  0  0  0
 12 15  1  0  0  0  0
 13 46  1  0  0  0  0
 13 47  1  0  0  0  0
 14 16  1  0  0  0  0
 14 48  1  0  0  0  0
 15 17  2  0  0  0  0
 15 49  1  0  0  0  0
 16 21  2  0  0  0  0
 17 21  1  0  0  0  0
 17 50  1  0  0  0  0
 18 19  1  0  0  0  0
 18 23  2  0  0  0  0
 19 20  1  0  0  0  0
 19 24  2  0  0  0  0
 20 22  1  0  0  0  0
 20 51  1  0  0  0  0
 20 52  1  0  0  0  0
 21 53  1  0  0  0  0
 22 25  1  0  0  0  0
 22 54  1  0  0  0  0
 22 55  1  0  0  0  0
 23 26  1  0  0  0  0
 23 56  1  0  0  0  0
 24 27  1  0  0  0  0
 24 57  1  0  0  0  0
 25 28  2  0  0  0  0
 25 29  1  0  0  0  0
 26 27  2  0  0  0  0
 26 58  1  0  0  0  0
 27 59  1  0  0  0  0
 28 30  1  0  0  0  0
 28 60  1  0  0  0  0
 29 31  2  0  0  0  0
 29 61  1  0  0  0  0
 30 32  2  0  0  0  0
 31 32  1  0  0  0  0
 31 62  1  0  0  0  0
 32 63  1  0  0  0  0
 33 64  1  0  0  0  0
 33 65  1  0  0  0  0
 33 66  1  0  0  0  0
M  END
> <PUBCHEM_COMPOUND_CID>
25155850

> <PUBCHEM_COMPOUND_CANONICALIZED>
1

> <PUBCHEM_CACTVS_COMPLEXITY>
542

> <PUBCHEM_CACTVS_HBOND_ACCEPTOR>
4

> <PUBCHEM_CACTVS_HBOND_DONOR>
0

> <PUBCHEM_CACTVS_ROTATABLE_BOND>
10

> <PUBCHEM_CACTVS_SUBSKEYS>
AAADcfB7MAAEAAAAAAAAAAAAAAAAAAAAAAA8YMEAAAAAAAABUAAAHgIAAAAADA7hmCYyxoMABACAAiRCQACCCAAhJwAIiAAObogMZiLFs5uWOCjmwBHI6AeQwPAOAAABAAIIAAAAAAIABBAAAAAAAAAAAA==

> <PUBCHEM_IUPAC_OPENEYE_NAME>
1-(3-chlorophenyl)-4-[3-[2-[2-(3-methoxyphenyl)ethyl]phenoxy]propyl]piperazine

> <PUBCHEM_IUPAC_CAS_NAME>
1-(3-chlorophenyl)-4-[3-[2-[2-(3-methoxyphenyl)ethyl]phenoxy]propyl]piperazine

> <PUBCHEM_IUPAC_NAME_MARKUP>
1-(3-chlorophenyl)-4-[3-[2-[2-(3-methoxyphenyl)ethyl]phenoxy]propyl]piperazine

> <PUBCHEM_IUPAC_NAME>
1-(3-chlorophenyl)-4-[3-[2-[2-(3-methoxyphenyl)ethyl]phenoxy]propyl]piperazine

> <PUBCHEM_IUPAC_SYSTEMATIC_NAME>
1-(3-chlorophenyl)-4-[3-[2-[2-(3-methoxyphenyl)ethyl]phenoxy]propyl]piperazine

> <PUBCHEM_IUPAC_TRADITIONAL_NAME>
1-(3-chlorophenyl)-4-[3-[2-[2-(3-methoxyphenyl)ethyl]phenoxy]propyl]piperazine

> <PUBCHEM_IUPAC_INCHI>
InChI=1S/C28H33ClN2O2/c1-32-27-11-4-7-23(21-27)13-14-24-8-2-3-12-28(24)33-20-6-15-30-16-18-31(19-17-30)26-10-5-9-25(29)22-26/h2-5,7-12,21-22H,6,13-20H2,1H3

> <PUBCHEM_IUPAC_INCHIKEY>
PDJGHIHQAXZDDF-UHFFFAOYSA-N

> <PUBCHEM_XLOGP3_AA>
6.7

> <PUBCHEM_EXACT_MASS>
464.2230560

> <PUBCHEM_MOLECULAR_FORMULA>
C28H33ClN2O2

> <PUBCHEM_MOLECULAR_WEIGHT>
465.0

> <PUBCHEM_OPENEYE_CAN_SMILES>
COC1=CC=CC(=C1)CCC2=CC=CC=C2OCCCN3CCN(CC3)C4=CC(=CC=C4)Cl

> <PUBCHEM_OPENEYE_ISO_SMILES>
COC1=CC=CC(=C1)CCC2=CC=CC=C2OCCCN3CCN(CC3)C4=CC(=CC=C4)Cl

> <PUBCHEM_CACTVS_TPSA>
24.9

> <PUBCHEM_MONOISOTOPIC_WEIGHT>
464.2230560

> <PUBCHEM_TOTAL_CHARGE>
0

> <PUBCHEM_HEAVY_ATOM_COUNT>
33

> <PUBCHEM_ATOM_DEF_STEREO_COUNT>
0

> <PUBCHEM_ATOM_UDEF_STEREO_COUNT>
0

> <PUBCHEM_BOND_DEF_STEREO_COUNT>
0

> <PUBCHEM_BOND_UDEF_STEREO_COUNT>
0

> <PUBCHEM_ISOTOPIC_ATOM_COUNT>
0

> <PUBCHEM_COMPONENT_COUNT>
1

> <PUBCHEM_CACTVS_TAUTO_COUNT>
-1

> <PUBCHEM_COORDINATE_TYPE>
1
5
255

> <PUBCHEM_BONDANNOTATIONS>
12  14  8
12  15  8
14  16  8
15  17  8
16  21  8
17  21  8
18  19  8
18  23  8
19  24  8
23  26  8
24  27  8
25  28  8
25  29  8
26  27  8
28  30  8
29  31  8
30  32  8
31  32  8

$$$$
