164040127
  -OEChem-09292322022D

 62 65  0     1  0  0  0  0  0999 V2000
    2.8757   -1.2963    0.0000 O   0  0  0  0  0  0  0  0  0  0  0  0
   12.5320   -0.2591    0.0000 O   0  0  0  0  0  0  0  0  0  0  0  0
   17.7942   -0.2350    0.0000 O   0  0  0  0  0  0  0  0  0  0  0  0
    7.3359   -0.2792    0.0000 N   0  0  0  0  0  0  0  0  0  0  0  0
   16.0621   -0.2350    0.0000 N   0  0  0  0  0  0  0  0  0  0  0  0
    5.6038   -0.2858    0.0000 C   0  0  3  0  0  0  0  0  0  0  0  0
    4.6038   -0.2897    0.0000 C   0  0  3  0  0  0  0  0  0  0  0  0
    5.1072   -1.1538    0.0000 C   0  0  0  0  0  0  0  0  0  0  0  0
    6.4679    0.2175    0.0000 C   0  0  0  0  0  0  0  0  0  0  0  0
    3.7359    0.2070    0.0000 C   0  0  0  0  0  0  0  0  0  0  0  0
    2.8718   -0.2964    0.0000 C   0  0  0  0  0  0  0  0  0  0  0  0
    3.7320    1.2070    0.0000 C   0  0  0  0  0  0  0  0  0  0  0  0
    8.2000    0.2242    0.0000 C   0  0  0  0  0  0  0  0  0  0  0  0
    2.0038    0.2003    0.0000 C   0  0  0  0  0  0  0  0  0  0  0  0
    2.8641    1.7036    0.0000 C   0  0  0  0  0  0  0  0  0  0  0  0
    9.0679   -0.2725    0.0000 C   0  0  0  0  0  0  0  0  0  0  0  0
    2.0000    1.2003    0.0000 C   0  0  0  0  0  0  0  0  0  0  0  0
    9.9320    0.2309    0.0000 C   0  0  0  0  0  0  0  0  0  0  0  0
   10.7999   -0.2658    0.0000 C   0  0  0  0  0  0  0  0  0  0  0  0
    2.0116   -1.7997    0.0000 C   0  0  0  0  0  0  0  0  0  0  0  0
   11.6640    0.2375    0.0000 C   0  0  0  0  0  0  0  0  0  0  0  0
   15.1961    1.2650    0.0000 C   0  0  0  0  0  0  0  0  0  0  0  0
   16.0621    1.7650    0.0000 C   0  0  0  0  0  0  0  0  0  0  0  0
   13.3961    0.2442    0.0000 C   0  0  0  0  0  0  0  0  0  0  0  0
   15.1961    0.2650    0.0000 C   0  0  0  0  0  0  0  0  0  0  0  0
   16.9281    1.2650    0.0000 C   0  0  0  0  0  0  0  0  0  0  0  0
   14.3021   -0.2696    0.0000 C   0  0  0  0  0  0  0  0  0  0  0  0
   14.3021    1.7997    0.0000 C   0  0  0  0  0  0  0  0  0  0  0  0
   13.3961    1.2858    0.0000 C   0  0  0  0  0  0  0  0  0  0  0  0
   16.9281    0.2650    0.0000 C   0  0  0  0  0  0  0  0  0  0  0  0
    6.0439   -0.7225    0.0000 H   0  0  0  0  0  0  0  0  0  0  0  0
    4.1671   -0.7298    0.0000 H   0  0  0  0  0  0  0  0  0  0  0  0
    4.6338   -1.5541    0.0000 H   0  0  0  0  0  0  0  0  0  0  0  0
    5.5836   -1.5505    0.0000 H   0  0  0  0  0  0  0  0  0  0  0  0
    6.8646    0.6940    0.0000 H   0  0  0  0  0  0  0  0  0  0  0  0
    6.0676    0.6909    0.0000 H   0  0  0  0  0  0  0  0  0  0  0  0
    7.3383   -0.8991    0.0000 H   0  0  0  0  0  0  0  0  0  0  0  0
    4.2678    1.5190    0.0000 H   0  0  0  0  0  0  0  0  0  0  0  0
    8.5966    0.7007    0.0000 H   0  0  0  0  0  0  0  0  0  0  0  0
    7.7996    0.6976    0.0000 H   0  0  0  0  0  0  0  0  0  0  0  0
    1.4681   -0.1118    0.0000 H   0  0  0  0  0  0  0  0  0  0  0  0
    2.8617    2.3236    0.0000 H   0  0  0  0  0  0  0  0  0  0  0  0
    8.6712   -0.7490    0.0000 H   0  0  0  0  0  0  0  0  0  0  0  0
    9.4683   -0.7459    0.0000 H   0  0  0  0  0  0  0  0  0  0  0  0
    1.4619    1.5082    0.0000 H   0  0  0  0  0  0  0  0  0  0  0  0
   10.3287    0.7073    0.0000 H   0  0  0  0  0  0  0  0  0  0  0  0
    9.5316    0.7043    0.0000 H   0  0  0  0  0  0  0  0  0  0  0  0
   10.4032   -0.7423    0.0000 H   0  0  0  0  0  0  0  0  0  0  0  0
   11.2003   -0.7392    0.0000 H   0  0  0  0  0  0  0  0  0  0  0  0
    1.6995   -1.2639    0.0000 H   0  0  0  0  0  0  0  0  0  0  0  0
    1.4758   -2.1117    0.0000 H   0  0  0  0  0  0  0  0  0  0  0  0
    2.3236   -2.3354    0.0000 H   0  0  0  0  0  0  0  0  0  0  0  0
   12.0607    0.7140    0.0000 H   0  0  0  0  0  0  0  0  0  0  0  0
   11.2637    0.7109    0.0000 H   0  0  0  0  0  0  0  0  0  0  0  0
   16.4606    2.2400    0.0000 H   0  0  0  0  0  0  0  0  0  0  0  0
   15.6636    2.2400    0.0000 H   0  0  0  0  0  0  0  0  0  0  0  0
   17.5387    1.1574    0.0000 H   0  0  0  0  0  0  0  0  0  0  0  0
   17.1402    1.8476    0.0000 H   0  0  0  0  0  0  0  0  0  0  0  0
   14.3093   -0.8896    0.0000 H   0  0  0  0  0  0  0  0  0  0  0  0
   14.3093    2.4196    0.0000 H   0  0  0  0  0  0  0  0  0  0  0  0
   12.8603    1.5979    0.0000 H   0  0  0  0  0  0  0  0  0  0  0  0
   16.0621   -0.8550    0.0000 H   0  0  0  0  0  0  0  0  0  0  0  0
  1 11  1  0  0  0  0
  1 20  1  0  0  0  0
  2 21  1  0  0  0  0
  2 24  1  0  0  0  0
  3 30  2  0  0  0  0
  4  9  1  0  0  0  0
  4 13  1  0  0  0  0
  4 37  1  0  0  0  0
  5 25  1  0  0  0  0
  5 30  1  0  0  0  0
  5 62  1  0  0  0  0
  6  7  1  0  0  0  0
  6  8  1  0  0  0  0
  6  9  1  0  0  0  0
  6 31  1  0  0  0  0
  7  8  1  0  0  0  0
  7 10  1  0  0  0  0
  7 32  1  0  0  0  0
  8 33  1  0  0  0  0
  8 34  1  0  0  0  0
  9 35  1  0  0  0  0
  9 36  1  0  0  0  0
 10 11  1  0  0  0  0
 10 12  2  0  0  0  0
 11 14  2  0  0  0  0
 12 15  1  0  0  0  0
 12 38  1  0  0  0  0
 13 16  1  0  0  0  0
 13 39  1  0  0  0  0
 13 40  1  0  0  0  0
 14 17  1  0  0  0  0
 14 41  1  0  0  0  0
 15 17  2  0  0  0  0
 15 42  1  0  0  0  0
 16 18  1  0  0  0  0
 16 43  1  0  0  0  0
 16 44  1  0  0  0  0
 17 45  1  0  0  0  0
 18 19  1  0  0  0  0
 18 46  1  0  0  0  0
 18 47  1  0  0  0  0
 19 21  1  0  0  0  0
 19 48  1  0  0  0  0
 19 49  1  0  0  0  0
 20 50  1  0  0  0  0
 20 51  1  0  0  0  0
 20 52  1  0  0  0  0
 21 53  1  0  0  0  0
 21 54  1  0  0  0  0
 22 23  1  0  0  0  0
 22 25  2  0  0  0  0
 22 28  1  0  0  0  0
 23 26  1  0  0  0  0
 23 55  1  0  0  0  0
 23 56  1  0  0  0  0
 24 27  2  0  0  0  0
 24 29  1  0  0  0  0
 25 27  1  0  0  0  0
 26 30  1  0  0  0  0
 26 57  1  0  0  0  0
 26 58  1  0  0  0  0
 27 59  1  0  0  0  0
 28 29  2  0  0  0  0
 28 60  1  0  0  0  0
 29 61  1  0  0  0  0
M  END
> <PUBCHEM_COMPOUND_CID>
164040127

> <PUBCHEM_COMPOUND_CANONICALIZED>
1

> <PUBCHEM_CACTVS_COMPLEXITY>
543

> <PUBCHEM_CACTVS_HBOND_ACCEPTOR>
4

> <PUBCHEM_CACTVS_HBOND_DONOR>
2

> <PUBCHEM_CACTVS_ROTATABLE_BOND>
11

> <PUBCHEM_CACTVS_SUBSKEYS>
AAADcfB7MAAAAAAAAAAAAAAAGAAAAAAAAAA8YIAAAAAAAACxQAAAHgAQAAAADQzhmAYyxoLABACIAiVSUACCCAAhIgAIiIEObIgMJjLEsZuGOCjm1BnI6AeY2eOeoAAAAgAKAABAAAAEABQAAAAAAAAAAA==

> <PUBCHEM_IUPAC_OPENEYE_NAME>
7-[5-[[2-(2-methoxyphenyl)cyclopropyl]methylamino]pentoxy]-3,4-dihydro-1H-quinolin-2-one

> <PUBCHEM_IUPAC_CAS_NAME>
7-[5-[[2-(2-methoxyphenyl)cyclopropyl]methylamino]pentoxy]-3,4-dihydro-1H-quinolin-2-one

> <PUBCHEM_IUPAC_NAME_MARKUP>
7-[5-[[2-(2-methoxyphenyl)cyclopropyl]methylamino]pentoxy]-3,4-dihydro-1<I>H</I>-quinolin-2-one

> <PUBCHEM_IUPAC_NAME>
7-[5-[[2-(2-methoxyphenyl)cyclopropyl]methylamino]pentoxy]-3,4-dihydro-1H-quinolin-2-one

> <PUBCHEM_IUPAC_SYSTEMATIC_NAME>
7-[5-[[2-(2-methoxyphenyl)cyclopropyl]methylamino]pentoxy]-3,4-dihydro-1H-quinolin-2-one

> <PUBCHEM_IUPAC_TRADITIONAL_NAME>
7-[5-[[2-(2-methoxyphenyl)cyclopropyl]methylamino]pentoxy]-3,4-dihydrocarbostyril

> <PUBCHEM_IUPAC_INCHI>
InChI=1S/C25H32N2O3/c1-29-24-8-4-3-7-21(24)22-15-19(22)17-26-13-5-2-6-14-30-20-11-9-18-10-12-25(28)27-23(18)16-20/h3-4,7-9,11,16,19,22,26H,2,5-6,10,12-15,17H2,1H3,(H,27,28)

> <PUBCHEM_IUPAC_INCHIKEY>
VPLIPKULMVANPA-UHFFFAOYSA-N

> <PUBCHEM_XLOGP3_AA>
3.8

> <PUBCHEM_EXACT_MASS>
408.24129289

> <PUBCHEM_MOLECULAR_FORMULA>
C25H32N2O3

> <PUBCHEM_MOLECULAR_WEIGHT>
408.5

> <PUBCHEM_OPENEYE_CAN_SMILES>
COC1=CC=CC=C1C2CC2CNCCCCCOC3=CC4=C(CCC(=O)N4)C=C3

> <PUBCHEM_OPENEYE_ISO_SMILES>
COC1=CC=CC=C1C2CC2CNCCCCCOC3=CC4=C(CCC(=O)N4)C=C3

> <PUBCHEM_CACTVS_TPSA>
59.6

> <PUBCHEM_MONOISOTOPIC_WEIGHT>
408.24129289

> <PUBCHEM_TOTAL_CHARGE>
0

> <PUBCHEM_HEAVY_ATOM_COUNT>
30

> <PUBCHEM_ATOM_DEF_STEREO_COUNT>
0

> <PUBCHEM_ATOM_UDEF_STEREO_COUNT>
2

> <PUBCHEM_BOND_DEF_STEREO_COUNT>
0

> <PUBCHEM_BOND_UDEF_STEREO_COUNT>
0

> <PUBCHEM_ISOTOPIC_ATOM_COUNT>
0

> <PUBCHEM_COMPONENT_COUNT>
1

> <PUBCHEM_CACTVS_TAUTO_COUNT>
-1

> <PUBCHEM_COORDINATE_TYPE>
1
5
255

> <PUBCHEM_BONDANNOTATIONS>
10  11  8
10  12  8
11  14  8
12  15  8
14  17  8
15  17  8
22  25  8
22  28  8
24  27  8
24  29  8
25  27  8
28  29  8
6  9  3
7  10  3

$$$$
