145980458
  -OEChem-09292322392D

 64 68  0     1  0  0  0  0  0999 V2000
    2.0000   -5.6186    0.0000 F   0  0  0  0  0  0  0  0  0  0  0  0
    6.5468   -0.4161    0.0000 O   0  0  0  0  0  0  0  0  0  0  0  0
    7.1854   -4.0798    0.0000 O   0  0  0  0  0  0  0  0  0  0  0  0
    5.4253   -1.0312    0.0000 O   0  0  0  0  0  0  0  0  0  0  0  0
    8.2788    0.5839    0.0000 N   0  0  0  0  0  0  0  0  0  0  0  0
    8.2788    2.5839    0.0000 N   0  0  0  0  0  0  0  0  0  0  0  0
    6.5468   -2.4161    0.0000 N   0  0  0  0  0  0  0  0  0  0  0  0
    4.9641   -2.7525    0.0000 N   0  0  0  0  0  0  0  0  0  0  0  0
    9.1448    1.0839    0.0000 C   0  0  0  0  0  0  0  0  0  0  0  0
    7.4128    1.0839    0.0000 C   0  0  0  0  0  0  0  0  0  0  0  0
    8.2788   -0.4161    0.0000 C   0  0  0  0  0  0  0  0  0  0  0  0
    9.1448    2.0839    0.0000 C   0  0  0  0  0  0  0  0  0  0  0  0
    7.4128    2.0839    0.0000 C   0  0  0  0  0  0  0  0  0  0  0  0
    7.4128   -0.9161    0.0000 C   0  0  3  0  0  0  0  0  0  0  0  0
    5.4641   -3.6186    0.0000 C   0  0  3  0  0  0  0  0  0  0  0  0
    7.4128   -1.9161    0.0000 C   0  0  0  0  0  0  0  0  0  0  0  0
    6.4422   -3.4106    0.0000 C   0  0  0  0  0  0  0  0  0  0  0  0
    8.2788    3.5839    0.0000 C   0  0  0  0  0  0  0  0  0  0  0  0
    5.6332   -2.0094    0.0000 C   0  0  0  0  0  0  0  0  0  0  0  0
    4.5981   -4.1186    0.0000 C   0  0  0  0  0  0  0  0  0  0  0  0
    5.6720   -4.5967    0.0000 C   0  0  0  0  0  0  0  0  0  0  0  0
    9.1448    4.0839    0.0000 C   0  0  0  0  0  0  0  0  0  0  0  0
    7.4128    4.0839    0.0000 C   0  0  0  0  0  0  0  0  0  0  0  0
    9.1448    5.0839    0.0000 C   0  0  0  0  0  0  0  0  0  0  0  0
    4.5981   -5.1186    0.0000 C   0  0  0  0  0  0  0  0  0  0  0  0
    3.7320   -3.6186    0.0000 C   0  0  0  0  0  0  0  0  0  0  0  0
    7.4128    5.0839    0.0000 C   0  0  0  0  0  0  0  0  0  0  0  0
   10.0388    3.5492    0.0000 C   0  0  0  0  0  0  0  0  0  0  0  0
    8.2788    5.5839    0.0000 C   0  0  0  0  0  0  0  0  0  0  0  0
    3.7320   -5.6186    0.0000 C   0  0  0  0  0  0  0  0  0  0  0  0
    2.8660   -4.1186    0.0000 C   0  0  0  0  0  0  0  0  0  0  0  0
   10.0388    5.6186    0.0000 C   0  0  0  0  0  0  0  0  0  0  0  0
   10.9449    4.0631    0.0000 C   0  0  0  0  0  0  0  0  0  0  0  0
    2.8660   -5.1186    0.0000 C   0  0  0  0  0  0  0  0  0  0  0  0
   10.9449    5.1047    0.0000 C   0  0  0  0  0  0  0  0  0  0  0  0
    9.3569    0.5013    0.0000 H   0  0  0  0  0  0  0  0  0  0  0  0
    9.7554    1.1916    0.0000 H   0  0  0  0  0  0  0  0  0  0  0  0
    6.8022    1.1916    0.0000 H   0  0  0  0  0  0  0  0  0  0  0  0
    7.2008    0.5013    0.0000 H   0  0  0  0  0  0  0  0  0  0  0  0
    8.4909   -0.9987    0.0000 H   0  0  0  0  0  0  0  0  0  0  0  0
    8.8894   -0.3085    0.0000 H   0  0  0  0  0  0  0  0  0  0  0  0
    9.7554    1.9762    0.0000 H   0  0  0  0  0  0  0  0  0  0  0  0
    9.3569    2.6665    0.0000 H   0  0  0  0  0  0  0  0  0  0  0  0
    7.2008    2.6665    0.0000 H   0  0  0  0  0  0  0  0  0  0  0  0
    6.8022    1.9762    0.0000 H   0  0  0  0  0  0  0  0  0  0  0  0
    7.4128   -0.2961    0.0000 H   0  0  0  0  0  0  0  0  0  0  0  0
    7.6249   -2.4987    0.0000 H   0  0  0  0  0  0  0  0  0  0  0  0
    8.0234   -1.8084    0.0000 H   0  0  0  0  0  0  0  0  0  0  0  0
    4.3475   -2.6877    0.0000 H   0  0  0  0  0  0  0  0  0  0  0  0
    5.0656   -4.7256    0.0000 H   0  0  0  0  0  0  0  0  0  0  0  0
    5.8009   -5.2032    0.0000 H   0  0  0  0  0  0  0  0  0  0  0  0
    6.2785   -4.4678    0.0000 H   0  0  0  0  0  0  0  0  0  0  0  0
    6.0098   -0.7261    0.0000 H   0  0  0  0  0  0  0  0  0  0  0  0
    6.8759    3.7739    0.0000 H   0  0  0  0  0  0  0  0  0  0  0  0
    5.1350   -5.4286    0.0000 H   0  0  0  0  0  0  0  0  0  0  0  0
    3.7320   -2.9986    0.0000 H   0  0  0  0  0  0  0  0  0  0  0  0
    6.8759    5.3939    0.0000 H   0  0  0  0  0  0  0  0  0  0  0  0
   10.0316    2.9293    0.0000 H   0  0  0  0  0  0  0  0  0  0  0  0
    8.2788    6.2039    0.0000 H   0  0  0  0  0  0  0  0  0  0  0  0
    3.7320   -6.2386    0.0000 H   0  0  0  0  0  0  0  0  0  0  0  0
    2.3291   -3.8086    0.0000 H   0  0  0  0  0  0  0  0  0  0  0  0
   10.0316    6.2385    0.0000 H   0  0  0  0  0  0  0  0  0  0  0  0
   11.4806    3.7510    0.0000 H   0  0  0  0  0  0  0  0  0  0  0  0
   11.4806    5.4168    0.0000 H   0  0  0  0  0  0  0  0  0  0  0  0
  1 34  1  0  0  0  0
  2 14  1  0  0  0  0
  2 53  1  0  0  0  0
  3 17  2  0  0  0  0
  4 19  2  0  0  0  0
  5  9  1  0  0  0  0
  5 10  1  0  0  0  0
  5 11  1  0  0  0  0
  6 12  1  0  0  0  0
  6 13  1  0  0  0  0
  6 18  1  0  0  0  0
  7 16  1  0  0  0  0
  7 17  1  0  0  0  0
  7 19  1  0  0  0  0
  8 15  1  0  0  0  0
  8 19  1  0  0  0  0
  8 49  1  0  0  0  0
  9 12  1  0  0  0  0
  9 36  1  0  0  0  0
  9 37  1  0  0  0  0
 10 13  1  0  0  0  0
 10 38  1  0  0  0  0
 10 39  1  0  0  0  0
 11 14  1  0  0  0  0
 11 40  1  0  0  0  0
 11 41  1  0  0  0  0
 12 42  1  0  0  0  0
 12 43  1  0  0  0  0
 13 44  1  0  0  0  0
 13 45  1  0  0  0  0
 14 16  1  0  0  0  0
 14 46  1  0  0  0  0
 15 17  1  0  0  0  0
 15 20  1  0  0  0  0
 15 21  1  0  0  0  0
 16 47  1  0  0  0  0
 16 48  1  0  0  0  0
 18 22  1  0  0  0  0
 18 23  2  0  0  0  0
 20 25  2  0  0  0  0
 20 26  1  0  0  0  0
 21 50  1  0  0  0  0
 21 51  1  0  0  0  0
 21 52  1  0  0  0  0
 22 24  1  0  0  0  0
 22 28  2  0  0  0  0
 23 27  1  0  0  0  0
 23 54  1  0  0  0  0
 24 29  1  0  0  0  0
 24 32  2  0  0  0  0
 25 30  1  0  0  0  0
 25 55  1  0  0  0  0
 26 31  2  0  0  0  0
 26 56  1  0  0  0  0
 27 29  2  0  0  0  0
 27 57  1  0  0  0  0
 28 33  1  0  0  0  0
 28 58  1  0  0  0  0
 29 59  1  0  0  0  0
 30 34  2  0  0  0  0
 30 60  1  0  0  0  0
 31 34  1  0  0  0  0
 31 61  1  0  0  0  0
 32 35  1  0  0  0  0
 32 62  1  0  0  0  0
 33 35  2  0  0  0  0
 33 63  1  0  0  0  0
 35 64  1  0  0  0  0
M  END
> <PUBCHEM_COMPOUND_CID>
145980458

> <PUBCHEM_COMPOUND_CANONICALIZED>
1

> <PUBCHEM_CACTVS_COMPLEXITY>
768

> <PUBCHEM_CACTVS_HBOND_ACCEPTOR>
6

> <PUBCHEM_CACTVS_HBOND_DONOR>
2

> <PUBCHEM_CACTVS_ROTATABLE_BOND>
6

> <PUBCHEM_CACTVS_SUBSKEYS>
AAADceB7sQAAAAAAAAAAAAAAAAAAAWAAAAA8YMEAAAAAAADBVAAAHwAQCAAADJzhmA4zwMPAAgCIAiVSUACCAAAhAgAIiAGIZIiKcDLA1bGUIAholyLYyAcYiMCOgAAAQAASAAAAAACAACQAAAAAAAAAAA==

> <PUBCHEM_IUPAC_OPENEYE_NAME>
5-(4-fluorophenyl)-3-[2-hydroxy-3-[4-(1-naphthyl)piperazin-1-yl]propyl]-5-methyl-imidazolidine-2,4-dione

> <PUBCHEM_IUPAC_CAS_NAME>
5-(4-fluorophenyl)-3-[2-hydroxy-3-[4-(1-naphthalenyl)-1-piperazinyl]propyl]-5-methylimidazolidine-2,4-dione

> <PUBCHEM_IUPAC_NAME_MARKUP>
5-(4-fluorophenyl)-3-[2-hydroxy-3-(4-naphthalen-1-ylpiperazin-1-yl)propyl]-5-methylimidazolidine-2,4-dione

> <PUBCHEM_IUPAC_NAME>
5-(4-fluorophenyl)-3-[2-hydroxy-3-(4-naphthalen-1-ylpiperazin-1-yl)propyl]-5-methylimidazolidine-2,4-dione

> <PUBCHEM_IUPAC_SYSTEMATIC_NAME>
5-(4-fluorophenyl)-5-methyl-3-[3-(4-naphthalen-1-ylpiperazin-1-yl)-2-oxidanyl-propyl]imidazolidine-2,4-dione

> <PUBCHEM_IUPAC_TRADITIONAL_NAME>
5-(4-fluorophenyl)-3-[2-hydroxy-3-[4-(1-naphthyl)piperazino]propyl]-5-methyl-hydantoin

> <PUBCHEM_IUPAC_INCHI>
InChI=1S/C27H29FN4O3/c1-27(20-9-11-21(28)12-10-20)25(34)32(26(35)29-27)18-22(33)17-30-13-15-31(16-14-30)24-8-4-6-19-5-2-3-7-23(19)24/h2-12,22,33H,13-18H2,1H3,(H,29,35)

> <PUBCHEM_IUPAC_INCHIKEY>
ZBOIINMMAKPIPZ-UHFFFAOYSA-N

> <PUBCHEM_XLOGP3_AA>
3.4

> <PUBCHEM_EXACT_MASS>
476.22236896

> <PUBCHEM_MOLECULAR_FORMULA>
C27H29FN4O3

> <PUBCHEM_MOLECULAR_WEIGHT>
476.5

> <PUBCHEM_OPENEYE_CAN_SMILES>
CC1(C(=O)N(C(=O)N1)CC(CN2CCN(CC2)C3=CC=CC4=CC=CC=C43)O)C5=CC=C(C=C5)F

> <PUBCHEM_OPENEYE_ISO_SMILES>
CC1(C(=O)N(C(=O)N1)CC(CN2CCN(CC2)C3=CC=CC4=CC=CC=C43)O)C5=CC=C(C=C5)F

> <PUBCHEM_CACTVS_TPSA>
76.1

> <PUBCHEM_MONOISOTOPIC_WEIGHT>
476.22236896

> <PUBCHEM_TOTAL_CHARGE>
0

> <PUBCHEM_HEAVY_ATOM_COUNT>
35

> <PUBCHEM_ATOM_DEF_STEREO_COUNT>
0

> <PUBCHEM_ATOM_UDEF_STEREO_COUNT>
2

> <PUBCHEM_BOND_DEF_STEREO_COUNT>
0

> <PUBCHEM_BOND_UDEF_STEREO_COUNT>
0

> <PUBCHEM_ISOTOPIC_ATOM_COUNT>
0

> <PUBCHEM_COMPONENT_COUNT>
1

> <PUBCHEM_CACTVS_TAUTO_COUNT>
-1

> <PUBCHEM_COORDINATE_TYPE>
1
5
255

> <PUBCHEM_BONDANNOTATIONS>
15  21  3
18  22  8
18  23  8
14  2  3
20  25  8
20  26  8
22  24  8
22  28  8
23  27  8
24  29  8
24  32  8
25  30  8
26  31  8
27  29  8
28  33  8
30  34  8
31  34  8
32  35  8
33  35  8

$$$$
