118736397
  -OEChem-09292322352D

 66 70  0     0  0  0  0  0  0999 V2000
   17.0042    3.6179    0.0000 Cl  0  0  0  0  0  0  0  0  0  0  0  0
    9.0094   -1.7756    0.0000 O   0  0  0  0  0  0  0  0  0  0  0  0
    4.6397   -4.1341    0.0000 O   0  0  0  0  0  0  0  0  0  0  0  0
    2.0000   -1.7756    0.0000 O   0  0  0  0  0  0  0  0  0  0  0  0
   11.1502    2.3027    0.0000 N   0  0  0  0  0  0  0  0  0  0  0  0
   13.1015    2.7411    0.0000 N   0  0  0  0  0  0  0  0  0  0  0  0
    7.3291   -1.2186    0.0000 N   0  0  0  0  0  0  0  0  0  0  0  0
    6.0047   -2.4019    0.0000 N   0  0  0  0  0  0  0  0  0  0  0  0
    5.5047   -0.8631    0.0000 N   0  0  0  0  0  0  0  0  0  0  0  0
    3.6803   -1.2186    0.0000 N   0  0  0  0  0  0  0  0  0  0  0  0
    3.2992   -2.9780    0.0000 N   0  0  0  0  0  0  0  0  0  0  0  0
   11.4482    3.2573    0.0000 C   0  0  0  0  0  0  0  0  0  0  0  0
   11.8278    1.5673    0.0000 C   0  0  0  0  0  0  0  0  0  0  0  0
   10.1745    2.0835    0.0000 C   0  0  0  0  0  0  0  0  0  0  0  0
   12.4238    3.4765    0.0000 C   0  0  0  0  0  0  0  0  0  0  0  0
   12.8035    1.7865    0.0000 C   0  0  0  0  0  0  0  0  0  0  0  0
    9.8765    1.1289    0.0000 C   0  0  0  0  0  0  0  0  0  0  0  0
    8.9008    0.9097    0.0000 C   0  0  0  0  0  0  0  0  0  0  0  0
    8.6028   -0.0449    0.0000 C   0  0  0  0  0  0  0  0  0  0  0  0
    7.6271   -0.2641    0.0000 C   0  0  0  0  0  0  0  0  0  0  0  0
   14.0772    2.9603    0.0000 C   0  0  0  0  0  0  0  0  0  0  0  0
    6.3137   -1.4509    0.0000 C   0  0  0  0  0  0  0  0  0  0  0  0
    5.0047   -2.4019    0.0000 C   0  0  0  0  0  0  0  0  0  0  0  0
    4.6957   -1.4509    0.0000 C   0  0  0  0  0  0  0  0  0  0  0  0
   14.3752    3.9149    0.0000 C   0  0  0  0  0  0  0  0  0  0  0  0
   14.7549    2.2250    0.0000 C   0  0  0  0  0  0  0  0  0  0  0  0
    8.0321   -1.9873    0.0000 C   0  0  0  0  0  0  0  0  0  0  0  0
    6.6897   -3.1867    0.0000 C   0  0  0  0  0  0  0  0  0  0  0  0
    7.7102   -2.9780    0.0000 C   0  0  0  0  0  0  0  0  0  0  0  0
    4.3197   -3.1867    0.0000 C   0  0  0  0  0  0  0  0  0  0  0  0
    2.9773   -1.9873    0.0000 C   0  0  0  0  0  0  0  0  0  0  0  0
   15.3509    4.1341    0.0000 C   0  0  0  0  0  0  0  0  0  0  0  0
   15.7305    2.4442    0.0000 C   0  0  0  0  0  0  0  0  0  0  0  0
   16.0285    3.3987    0.0000 C   0  0  0  0  0  0  0  0  0  0  0  0
    3.3823   -0.2641    0.0000 C   0  0  0  0  0  0  0  0  0  0  0  0
    2.6330   -3.7237    0.0000 C   0  0  0  0  0  0  0  0  0  0  0  0
   11.4194    3.8766    0.0000 H   0  0  0  0  0  0  0  0  0  0  0  0
   10.8332    3.3364    0.0000 H   0  0  0  0  0  0  0  0  0  0  0  0
   11.3059    1.2327    0.0000 H   0  0  0  0  0  0  0  0  0  0  0  0
   12.0667    0.9952    0.0000 H   0  0  0  0  0  0  0  0  0  0  0  0
   10.1457    2.7028    0.0000 H   0  0  0  0  0  0  0  0  0  0  0  0
    9.5596    2.1627    0.0000 H   0  0  0  0  0  0  0  0  0  0  0  0
   12.9458    3.8111    0.0000 H   0  0  0  0  0  0  0  0  0  0  0  0
   12.1849    4.0486    0.0000 H   0  0  0  0  0  0  0  0  0  0  0  0
   12.8323    1.1672    0.0000 H   0  0  0  0  0  0  0  0  0  0  0  0
   13.4184    1.7074    0.0000 H   0  0  0  0  0  0  0  0  0  0  0  0
    9.9053    0.5096    0.0000 H   0  0  0  0  0  0  0  0  0  0  0  0
   10.4914    1.0497    0.0000 H   0  0  0  0  0  0  0  0  0  0  0  0
    8.8720    1.5290    0.0000 H   0  0  0  0  0  0  0  0  0  0  0  0
    8.2859    0.9889    0.0000 H   0  0  0  0  0  0  0  0  0  0  0  0
    8.6316   -0.6642    0.0000 H   0  0  0  0  0  0  0  0  0  0  0  0
    9.2177   -0.1240    0.0000 H   0  0  0  0  0  0  0  0  0  0  0  0
    7.5983    0.3553    0.0000 H   0  0  0  0  0  0  0  0  0  0  0  0
    7.0122   -0.1849    0.0000 H   0  0  0  0  0  0  0  0  0  0  0  0
   13.9550    4.3708    0.0000 H   0  0  0  0  0  0  0  0  0  0  0  0
   14.5701    1.6331    0.0000 H   0  0  0  0  0  0  0  0  0  0  0  0
    6.4913   -3.7741    0.0000 H   0  0  0  0  0  0  0  0  0  0  0  0
    8.1233   -3.4403    0.0000 H   0  0  0  0  0  0  0  0  0  0  0  0
   15.5356    4.7259    0.0000 H   0  0  0  0  0  0  0  0  0  0  0  0
   16.1507    1.9882    0.0000 H   0  0  0  0  0  0  0  0  0  0  0  0
    3.9741   -0.0793    0.0000 H   0  0  0  0  0  0  0  0  0  0  0  0
    3.1975    0.3278    0.0000 H   0  0  0  0  0  0  0  0  0  0  0  0
    2.7904   -0.4488    0.0000 H   0  0  0  0  0  0  0  0  0  0  0  0
    2.1706   -3.3106    0.0000 H   0  0  0  0  0  0  0  0  0  0  0  0
    2.2199   -4.1860    0.0000 H   0  0  0  0  0  0  0  0  0  0  0  0
    3.0953   -4.1368    0.0000 H   0  0  0  0  0  0  0  0  0  0  0  0
  1 34  1  0  0  0  0
  2 27  2  0  0  0  0
  3 30  2  0  0  0  0
  4 31  2  0  0  0  0
  5 12  1  0  0  0  0
  5 13  1  0  0  0  0
  5 14  1  0  0  0  0
  6 15  1  0  0  0  0
  6 16  1  0  0  0  0
  6 21  1  0  0  0  0
  7 20  1  0  0  0  0
  7 22  1  0  0  0  0
  7 27  1  0  0  0  0
  8 22  1  0  0  0  0
  8 23  1  0  0  0  0
  8 28  1  0  0  0  0
  9 22  2  0  0  0  0
  9 24  1  0  0  0  0
 10 24  1  0  0  0  0
 10 31  1  0  0  0  0
 10 35  1  0  0  0  0
 11 30  1  0  0  0  0
 11 31  1  0  0  0  0
 11 36  1  0  0  0  0
 12 15  1  0  0  0  0
 12 37  1  0  0  0  0
 12 38  1  0  0  0  0
 13 16  1  0  0  0  0
 13 39  1  0  0  0  0
 13 40  1  0  0  0  0
 14 17  1  0  0  0  0
 14 41  1  0  0  0  0
 14 42  1  0  0  0  0
 15 43  1  0  0  0  0
 15 44  1  0  0  0  0
 16 45  1  0  0  0  0
 16 46  1  0  0  0  0
 17 18  1  0  0  0  0
 17 47  1  0  0  0  0
 17 48  1  0  0  0  0
 18 19  1  0  0  0  0
 18 49  1  0  0  0  0
 18 50  1  0  0  0  0
 19 20  1  0  0  0  0
 19 51  1  0  0  0  0
 19 52  1  0  0  0  0
 20 53  1  0  0  0  0
 20 54  1  0  0  0  0
 21 25  2  0  0  0  0
 21 26  1  0  0  0  0
 23 24  2  0  0  0  0
 23 30  1  0  0  0  0
 25 32  1  0  0  0  0
 25 55  1  0  0  0  0
 26 33  2  0  0  0  0
 26 56  1  0  0  0  0
 27 29  1  0  0  0  0
 28 29  2  0  0  0  0
 28 57  1  0  0  0  0
 29 58  1  0  0  0  0
 32 34  2  0  0  0  0
 32 59  1  0  0  0  0
 33 34  1  0  0  0  0
 33 60  1  0  0  0  0
 35 61  1  0  0  0  0
 35 62  1  0  0  0  0
 35 63  1  0  0  0  0
 36 64  1  0  0  0  0
 36 65  1  0  0  0  0
 36 66  1  0  0  0  0
M  END
> <PUBCHEM_COMPOUND_CID>
118736397

> <PUBCHEM_COMPOUND_CANONICALIZED>
1

> <PUBCHEM_CACTVS_COMPLEXITY>
872

> <PUBCHEM_CACTVS_HBOND_ACCEPTOR>
6

> <PUBCHEM_CACTVS_HBOND_DONOR>
0

> <PUBCHEM_CACTVS_ROTATABLE_BOND>
7

> <PUBCHEM_CACTVS_SUBSKEYS>
AAADceB7sAAEAAAAAAAAAAAAAAAAAWAAAAA8WIEAAAAAAFgBwAAAHgIAAAAACArBliQz8JcMEACoASd2dACCgC0nF6AJ2AGodsiIaCrB27GUIIhohyLIyOcQAAAAAABAAAAAAAAAAIAAAAAAAAAAAAAAAA==

> <PUBCHEM_IUPAC_OPENEYE_NAME>
9-[5-[4-(4-chlorophenyl)piperazin-1-yl]pentyl]-1,3-dimethyl-purino[7,8-a]pyrimidine-2,4,8-trione

> <PUBCHEM_IUPAC_CAS_NAME>
9-[5-[4-(4-chlorophenyl)-1-piperazinyl]pentyl]-1,3-dimethylpurino[7,8-a]pyrimidine-2,4,8-trione

> <PUBCHEM_IUPAC_NAME_MARKUP>
9-[5-[4-(4-chlorophenyl)piperazin-1-yl]pentyl]-1,3-dimethylpurino[7,8-a]pyrimidine-2,4,8-trione

> <PUBCHEM_IUPAC_NAME>
9-[5-[4-(4-chlorophenyl)piperazin-1-yl]pentyl]-1,3-dimethylpurino[7,8-a]pyrimidine-2,4,8-trione

> <PUBCHEM_IUPAC_SYSTEMATIC_NAME>
9-[5-[4-(4-chlorophenyl)piperazin-1-yl]pentyl]-1,3-dimethyl-purino[7,8-a]pyrimidine-2,4,8-trione

> <PUBCHEM_IUPAC_TRADITIONAL_NAME>
9-[5-[4-(4-chlorophenyl)piperazino]pentyl]-1,3-dimethyl-purino[7,8-a]pyrimidine-2,4,8-trione

> <PUBCHEM_IUPAC_INCHI>
InChI=1S/C25H30ClN7O3/c1-28-22-21(23(35)29(2)25(28)36)33-13-10-20(34)32(24(33)27-22)12-5-3-4-11-30-14-16-31(17-15-30)19-8-6-18(26)7-9-19/h6-10,13H,3-5,11-12,14-17H2,1-2H3

> <PUBCHEM_IUPAC_INCHIKEY>
NEAHQLBIHZAIKP-UHFFFAOYSA-N

> <PUBCHEM_XLOGP3_AA>
2.6

> <PUBCHEM_EXACT_MASS>
511.2098655

> <PUBCHEM_MOLECULAR_FORMULA>
C25H30ClN7O3

> <PUBCHEM_MOLECULAR_WEIGHT>
512.0

> <PUBCHEM_OPENEYE_CAN_SMILES>
CN1C2=C(C(=O)N(C1=O)C)N3C=CC(=O)N(C3=N2)CCCCCN4CCN(CC4)C5=CC=C(C=C5)Cl

> <PUBCHEM_OPENEYE_ISO_SMILES>
CN1C2=C(C(=O)N(C1=O)C)N3C=CC(=O)N(C3=N2)CCCCCN4CCN(CC4)C5=CC=C(C=C5)Cl

> <PUBCHEM_CACTVS_TPSA>
85.2

> <PUBCHEM_MONOISOTOPIC_WEIGHT>
511.2098655

> <PUBCHEM_TOTAL_CHARGE>
0

> <PUBCHEM_HEAVY_ATOM_COUNT>
36

> <PUBCHEM_ATOM_DEF_STEREO_COUNT>
0

> <PUBCHEM_ATOM_UDEF_STEREO_COUNT>
0

> <PUBCHEM_BOND_DEF_STEREO_COUNT>
0

> <PUBCHEM_BOND_UDEF_STEREO_COUNT>
0

> <PUBCHEM_ISOTOPIC_ATOM_COUNT>
0

> <PUBCHEM_COMPONENT_COUNT>
1

> <PUBCHEM_CACTVS_TAUTO_COUNT>
-1

> <PUBCHEM_COORDINATE_TYPE>
1
5
255

> <PUBCHEM_BONDANNOTATIONS>
10  24  8
10  31  8
11  30  8
11  31  8
21  25  8
21  26  8
23  24  8
23  30  8
25  32  8
26  33  8
27  29  8
28  29  8
32  34  8
33  34  8
7  22  8
7  27  8
8  22  8
8  23  8
8  28  8
9  22  8
9  24  8

$$$$
