44324978
  -OEChem-09292322222D

 63 66  0     1  0  0  0  0  0999 V2000
    7.1962   -2.2500    0.0000 O   0  0  0  0  0  0  0  0  0  0  0  0
   12.3923   -1.2500    0.0000 N   0  0  3  0  0  0  0  0  0  0  0  0
   15.8843    0.7847    0.0000 N   0  0  0  0  0  0  0  0  0  0  0  0
   16.7904   -0.7708    0.0000 N   0  0  0  0  0  0  0  0  0  0  0  0
    8.0622   -0.7500    0.0000 N   0  0  0  0  0  0  0  0  0  0  0  0
   17.6545    0.7742    0.0000 N   0  0  0  0  0  0  0  0  0  0  0  0
   13.2583   -0.7500    0.0000 C   0  0  3  0  0  0  0  0  0  0  0  0
   13.2583    0.2500    0.0000 C   0  0  0  0  0  0  0  0  0  0  0  0
   14.1244   -1.2500    0.0000 C   0  0  0  0  0  0  0  0  0  0  0  0
   14.1244    0.7500    0.0000 C   0  0  0  0  0  0  0  0  0  0  0  0
   14.9904   -0.7500    0.0000 C   0  0  0  0  0  0  0  0  0  0  0  0
   11.5263   -0.7500    0.0000 C   0  0  0  0  0  0  0  0  0  0  0  0
   14.9904    0.2500    0.0000 C   0  0  0  0  0  0  0  0  0  0  0  0
   10.6603   -1.2500    0.0000 C   0  0  0  0  0  0  0  0  0  0  0  0
   12.3923   -2.2500    0.0000 C   0  0  0  0  0  0  0  0  0  0  0  0
    9.7942   -0.7500    0.0000 C   0  0  0  0  0  0  0  0  0  0  0  0
   15.8843   -1.2847    0.0000 C   0  0  0  0  0  0  0  0  0  0  0  0
    8.9282   -1.2500    0.0000 C   0  0  0  0  0  0  0  0  0  0  0  0
   16.7904    0.2708    0.0000 C   0  0  0  0  0  0  0  0  0  0  0  0
    7.1962   -1.2500    0.0000 C   0  0  0  0  0  0  0  0  0  0  0  0
    6.3301   -0.7500    0.0000 C   0  0  0  0  0  0  0  0  0  0  0  0
    5.4641   -1.2500    0.0000 C   0  0  0  0  0  0  0  0  0  0  0  0
    6.3301    0.2500    0.0000 C   0  0  0  0  0  0  0  0  0  0  0  0
    4.5981    0.2500    0.0000 C   0  0  0  0  0  0  0  0  0  0  0  0
    4.5981   -0.7500    0.0000 C   0  0  0  0  0  0  0  0  0  0  0  0
    5.4641    0.7500    0.0000 C   0  0  0  0  0  0  0  0  0  0  0  0
    3.7320    0.7500    0.0000 C   0  0  0  0  0  0  0  0  0  0  0  0
    2.8660    0.2500    0.0000 C   0  0  0  0  0  0  0  0  0  0  0  0
    3.7320    1.7500    0.0000 C   0  0  0  0  0  0  0  0  0  0  0  0
    2.0000    0.7500    0.0000 C   0  0  0  0  0  0  0  0  0  0  0  0
    2.8660    2.2500    0.0000 C   0  0  0  0  0  0  0  0  0  0  0  0
    2.0000    1.7500    0.0000 C   0  0  0  0  0  0  0  0  0  0  0  0
   13.2583   -1.3700    0.0000 H   0  0  0  0  0  0  0  0  0  0  0  0
   13.0463    0.8326    0.0000 H   0  0  0  0  0  0  0  0  0  0  0  0
   12.6477    0.1423    0.0000 H   0  0  0  0  0  0  0  0  0  0  0  0
   13.7258   -1.7250    0.0000 H   0  0  0  0  0  0  0  0  0  0  0  0
   14.5229   -1.7250    0.0000 H   0  0  0  0  0  0  0  0  0  0  0  0
   14.5229    1.2250    0.0000 H   0  0  0  0  0  0  0  0  0  0  0  0
   13.7258    1.2250    0.0000 H   0  0  0  0  0  0  0  0  0  0  0  0
   11.9248   -0.2751    0.0000 H   0  0  0  0  0  0  0  0  0  0  0  0
   11.1278   -0.2751    0.0000 H   0  0  0  0  0  0  0  0  0  0  0  0
   10.2617   -1.7250    0.0000 H   0  0  0  0  0  0  0  0  0  0  0  0
   11.0588   -1.7250    0.0000 H   0  0  0  0  0  0  0  0  0  0  0  0
   11.7723   -2.2500    0.0000 H   0  0  0  0  0  0  0  0  0  0  0  0
   12.3923   -2.8700    0.0000 H   0  0  0  0  0  0  0  0  0  0  0  0
   13.0123   -2.2500    0.0000 H   0  0  0  0  0  0  0  0  0  0  0  0
   10.1928   -0.2751    0.0000 H   0  0  0  0  0  0  0  0  0  0  0  0
    9.3957   -0.2751    0.0000 H   0  0  0  0  0  0  0  0  0  0  0  0
   15.8772   -1.9046    0.0000 H   0  0  0  0  0  0  0  0  0  0  0  0
    8.5297   -1.7250    0.0000 H   0  0  0  0  0  0  0  0  0  0  0  0
    9.3267   -1.7250    0.0000 H   0  0  0  0  0  0  0  0  0  0  0  0
    8.0622   -0.1300    0.0000 H   0  0  0  0  0  0  0  0  0  0  0  0
   18.1926    0.4662    0.0000 H   0  0  0  0  0  0  0  0  0  0  0  0
   17.6521    1.3942    0.0000 H   0  0  0  0  0  0  0  0  0  0  0  0
    5.4641   -1.8700    0.0000 H   0  0  0  0  0  0  0  0  0  0  0  0
    6.8671    0.5600    0.0000 H   0  0  0  0  0  0  0  0  0  0  0  0
    4.0611   -1.0600    0.0000 H   0  0  0  0  0  0  0  0  0  0  0  0
    5.4641    1.3700    0.0000 H   0  0  0  0  0  0  0  0  0  0  0  0
    2.8660   -0.3700    0.0000 H   0  0  0  0  0  0  0  0  0  0  0  0
    4.2690    2.0600    0.0000 H   0  0  0  0  0  0  0  0  0  0  0  0
    1.4631    0.4400    0.0000 H   0  0  0  0  0  0  0  0  0  0  0  0
    2.8660    2.8700    0.0000 H   0  0  0  0  0  0  0  0  0  0  0  0
    1.4631    2.0600    0.0000 H   0  0  0  0  0  0  0  0  0  0  0  0
  1 20  2  0  0  0  0
  2  7  1  0  0  0  0
  2 12  1  0  0  0  0
  2 15  1  0  0  0  0
  3 13  2  0  0  0  0
  3 19  1  0  0  0  0
  4 17  1  0  0  0  0
  4 19  2  0  0  0  0
  5 18  1  0  0  0  0
  5 20  1  0  0  0  0
  5 52  1  0  0  0  0
  6 19  1  0  0  0  0
  6 53  1  0  0  0  0
  6 54  1  0  0  0  0
  7  8  1  0  0  0  0
  7  9  1  0  0  0  0
  7 33  1  0  0  0  0
  8 10  1  0  0  0  0
  8 34  1  0  0  0  0
  8 35  1  0  0  0  0
  9 11  1  0  0  0  0
  9 36  1  0  0  0  0
  9 37  1  0  0  0  0
 10 13  1  0  0  0  0
 10 38  1  0  0  0  0
 10 39  1  0  0  0  0
 11 13  1  0  0  0  0
 11 17  2  0  0  0  0
 12 14  1  0  0  0  0
 12 40  1  0  0  0  0
 12 41  1  0  0  0  0
 14 16  1  0  0  0  0
 14 42  1  0  0  0  0
 14 43  1  0  0  0  0
 15 44  1  0  0  0  0
 15 45  1  0  0  0  0
 15 46  1  0  0  0  0
 16 18  1  0  0  0  0
 16 47  1  0  0  0  0
 16 48  1  0  0  0  0
 17 49  1  0  0  0  0
 18 50  1  0  0  0  0
 18 51  1  0  0  0  0
 20 21  1  0  0  0  0
 21 22  2  0  0  0  0
 21 23  1  0  0  0  0
 22 25  1  0  0  0  0
 22 55  1  0  0  0  0
 23 26  2  0  0  0  0
 23 56  1  0  0  0  0
 24 25  2  0  0  0  0
 24 26  1  0  0  0  0
 24 27  1  0  0  0  0
 25 57  1  0  0  0  0
 26 58  1  0  0  0  0
 27 28  2  0  0  0  0
 27 29  1  0  0  0  0
 28 30  1  0  0  0  0
 28 59  1  0  0  0  0
 29 31  2  0  0  0  0
 29 60  1  0  0  0  0
 30 32  2  0  0  0  0
 30 61  1  0  0  0  0
 31 32  1  0  0  0  0
 31 62  1  0  0  0  0
 32 63  1  0  0  0  0
M  END
> <PUBCHEM_COMPOUND_CID>
44324978

> <PUBCHEM_COMPOUND_CANONICALIZED>
1

> <PUBCHEM_CACTVS_COMPLEXITY>
573

> <PUBCHEM_CACTVS_HBOND_ACCEPTOR>
5

> <PUBCHEM_CACTVS_HBOND_DONOR>
2

> <PUBCHEM_CACTVS_ROTATABLE_BOND>
8

> <PUBCHEM_CACTVS_SUBSKEYS>
AAADceB7oAAAAAAAAAAAAAAAAAAAAAAAAAA8YMEAAAAAAACx0AAAHgAQAAAADCjBngQ/kJfIEACoAzV3dACCgCk1AKAJ2KE4RNiIKLLA3dGEJQholgLIyacYiMCOwAAAAAAAAACAAQCAAAQAAAAAAAAAAA==

> <PUBCHEM_IUPAC_OPENEYE_NAME>
N-[4-[(2-amino-5,6,7,8-tetrahydroquinazolin-6-yl)-methyl-amino]butyl]-4-phenyl-benzamide

> <PUBCHEM_IUPAC_CAS_NAME>
N-[4-[(2-amino-5,6,7,8-tetrahydroquinazolin-6-yl)-methylamino]butyl]-4-phenylbenzamide

> <PUBCHEM_IUPAC_NAME_MARKUP>
<I>N</I>-[4-[(2-amino-5,6,7,8-tetrahydroquinazolin-6-yl)-methylamino]butyl]-4-phenylbenzamide

> <PUBCHEM_IUPAC_NAME>
N-[4-[(2-amino-5,6,7,8-tetrahydroquinazolin-6-yl)-methylamino]butyl]-4-phenylbenzamide

> <PUBCHEM_IUPAC_SYSTEMATIC_NAME>
N-[4-[(2-azanyl-5,6,7,8-tetrahydroquinazolin-6-yl)-methyl-amino]butyl]-4-phenyl-benzamide

> <PUBCHEM_IUPAC_TRADITIONAL_NAME>
N-[4-[(2-amino-5,6,7,8-tetrahydroquinazolin-6-yl)-methyl-amino]butyl]-4-phenyl-benzamide

> <PUBCHEM_IUPAC_INCHI>
InChI=1S/C26H31N5O/c1-31(23-13-14-24-22(17-23)18-29-26(27)30-24)16-6-5-15-28-25(32)21-11-9-20(10-12-21)19-7-3-2-4-8-19/h2-4,7-12,18,23H,5-6,13-17H2,1H3,(H,28,32)(H2,27,29,30)

> <PUBCHEM_IUPAC_INCHIKEY>
MXDNCXSBIMPXLA-UHFFFAOYSA-N

> <PUBCHEM_XLOGP3_AA>
4

> <PUBCHEM_EXACT_MASS>
429.25286063

> <PUBCHEM_MOLECULAR_FORMULA>
C26H31N5O

> <PUBCHEM_MOLECULAR_WEIGHT>
429.6

> <PUBCHEM_OPENEYE_CAN_SMILES>
CN(CCCCNC(=O)C1=CC=C(C=C1)C2=CC=CC=C2)C3CCC4=NC(=NC=C4C3)N

> <PUBCHEM_OPENEYE_ISO_SMILES>
CN(CCCCNC(=O)C1=CC=C(C=C1)C2=CC=CC=C2)C3CCC4=NC(=NC=C4C3)N

> <PUBCHEM_CACTVS_TPSA>
84.1

> <PUBCHEM_MONOISOTOPIC_WEIGHT>
429.25286063

> <PUBCHEM_TOTAL_CHARGE>
0

> <PUBCHEM_HEAVY_ATOM_COUNT>
32

> <PUBCHEM_ATOM_DEF_STEREO_COUNT>
0

> <PUBCHEM_ATOM_UDEF_STEREO_COUNT>
1

> <PUBCHEM_BOND_DEF_STEREO_COUNT>
0

> <PUBCHEM_BOND_UDEF_STEREO_COUNT>
0

> <PUBCHEM_ISOTOPIC_ATOM_COUNT>
0

> <PUBCHEM_COMPONENT_COUNT>
1

> <PUBCHEM_CACTVS_TAUTO_COUNT>
-1

> <PUBCHEM_COORDINATE_TYPE>
1
5
255

> <PUBCHEM_BONDANNOTATIONS>
11  13  8
11  17  8
7  2  3
21  22  8
21  23  8
22  25  8
23  26  8
24  25  8
24  26  8
27  28  8
27  29  8
28  30  8
29  31  8
3  13  8
3  19  8
30  32  8
31  32  8
4  17  8
4  19  8

$$$$
