145988006
  -OEChem-09292322062D

 74 79  0     1  0  0  0  0  0999 V2000
   18.5245   -0.1854    0.0000 S   0  0  0  0  0  0  0  0  0  0  0  0
    4.1583   -1.2340    0.0000 O   0  0  0  0  0  0  0  0  0  0  0  0
    3.5334    1.0979    0.0000 O   0  0  0  0  0  0  0  0  0  0  0  0
    8.1817   -2.0606    0.0000 O   0  0  0  0  0  0  0  0  0  0  0  0
    9.3823    1.2382    0.0000 O   0  0  0  0  0  0  0  0  0  0  0  0
    2.6583   -0.3680    0.0000 O   0  0  0  0  0  0  0  0  0  0  0  0
    4.3994    2.5979    0.0000 O   0  0  0  0  0  0  0  0  0  0  0  0
    9.0385   -0.5046    0.0000 N   0  0  0  0  0  0  0  0  0  0  0  0
   13.3897   -0.2451    0.0000 N   0  0  0  0  0  0  0  0  0  0  0  0
   15.2690   -0.9291    0.0000 N   0  0  0  0  0  0  0  0  0  0  0  0
    6.0572    0.1408    0.0000 C   0  0  1  0  0  0  0  0  0  0  0  0
    5.7984    1.1068    0.0000 C   0  0  2  0  0  0  0  0  0  0  0  0
    7.4299   -0.4512    0.0000 C   0  0  1  0  0  0  0  0  0  0  0  0
    7.7719    0.4885    0.0000 C   0  0  2  0  0  0  0  0  0  0  0  0
    6.5350    2.0894    0.0000 C   0  0  0  0  0  0  0  0  0  0  0  0
    4.6583   -0.3680    0.0000 C   0  0  2  0  0  0  0  0  0  0  0  0
    4.3994    0.5979    0.0000 C   0  0  1  0  0  0  0  0  0  0  0  0
    8.2148   -1.0612    0.0000 C   0  0  0  0  0  0  0  0  0  0  0  0
    8.7653    0.4512    0.0000 C   0  0  0  0  0  0  0  0  0  0  0  0
    9.9782   -0.8466    0.0000 C   0  0  0  0  0  0  0  0  0  0  0  0
   10.7442   -0.2038    0.0000 C   0  0  0  0  0  0  0  0  0  0  0  0
    3.1583   -1.2340    0.0000 C   0  0  0  0  0  0  0  0  0  0  0  0
    3.5334    2.0979    0.0000 C   0  0  0  0  0  0  0  0  0  0  0  0
   11.6839   -0.5458    0.0000 C   0  0  0  0  0  0  0  0  0  0  0  0
    2.6583   -2.1000    0.0000 C   0  0  0  0  0  0  0  0  0  0  0  0
    2.6674    2.5979    0.0000 C   0  0  0  0  0  0  0  0  0  0  0  0
   12.4500    0.0970    0.0000 C   0  0  0  0  0  0  0  0  0  0  0  0
   14.1557    0.3977    0.0000 C   0  0  0  0  0  0  0  0  0  0  0  0
   13.5633   -1.2299    0.0000 C   0  0  0  0  0  0  0  0  0  0  0  0
   15.0954    0.0557    0.0000 C   0  0  0  0  0  0  0  0  0  0  0  0
   14.5030   -1.5719    0.0000 C   0  0  0  0  0  0  0  0  0  0  0  0
   16.2087   -1.2711    0.0000 C   0  0  0  0  0  0  0  0  0  0  0  0
   16.9748   -0.6283    0.0000 C   0  0  0  0  0  0  0  0  0  0  0  0
   16.3824   -2.2559    0.0000 C   0  0  0  0  0  0  0  0  0  0  0  0
   17.9145   -0.9703    0.0000 C   0  0  0  0  0  0  0  0  0  0  0  0
   17.0120    0.3651    0.0000 C   0  0  0  0  0  0  0  0  0  0  0  0
   17.3221   -2.5979    0.0000 C   0  0  0  0  0  0  0  0  0  0  0  0
   18.0881   -1.9552    0.0000 C   0  0  0  0  0  0  0  0  0  0  0  0
   17.9679    0.6382    0.0000 C   0  0  0  0  0  0  0  0  0  0  0  0
    6.2772   -0.6802    0.0000 H   0  0  0  0  0  0  0  0  0  0  0  0
    5.5784    1.9278    0.0000 H   0  0  0  0  0  0  0  0  0  0  0  0
    7.1392   -1.2499    0.0000 H   0  0  0  0  0  0  0  0  0  0  0  0
    8.0626    1.2872    0.0000 H   0  0  0  0  0  0  0  0  0  0  0  0
    6.2172    2.6217    0.0000 H   0  0  0  0  0  0  0  0  0  0  0  0
    7.1481    2.1813    0.0000 H   0  0  0  0  0  0  0  0  0  0  0  0
    5.0567   -0.8430    0.0000 H   0  0  0  0  0  0  0  0  0  0  0  0
    3.9076    0.2205    0.0000 H   0  0  0  0  0  0  0  0  0  0  0  0
   10.4531   -1.2451    0.0000 H   0  0  0  0  0  0  0  0  0  0  0  0
    9.6682   -1.3835    0.0000 H   0  0  0  0  0  0  0  0  0  0  0  0
   10.2693    0.1947    0.0000 H   0  0  0  0  0  0  0  0  0  0  0  0
   11.0542    0.3331    0.0000 H   0  0  0  0  0  0  0  0  0  0  0  0
   12.1589   -0.9444    0.0000 H   0  0  0  0  0  0  0  0  0  0  0  0
   11.3739   -1.0828    0.0000 H   0  0  0  0  0  0  0  0  0  0  0  0
    3.1952   -2.4100    0.0000 H   0  0  0  0  0  0  0  0  0  0  0  0
    2.3483   -2.6370    0.0000 H   0  0  0  0  0  0  0  0  0  0  0  0
    2.1213   -1.7900    0.0000 H   0  0  0  0  0  0  0  0  0  0  0  0
    2.3574    2.0610    0.0000 H   0  0  0  0  0  0  0  0  0  0  0  0
    2.1305    2.9079    0.0000 H   0  0  0  0  0  0  0  0  0  0  0  0
    2.9774    3.1349    0.0000 H   0  0  0  0  0  0  0  0  0  0  0  0
   11.9750    0.4955    0.0000 H   0  0  0  0  0  0  0  0  0  0  0  0
   12.7600    0.6339    0.0000 H   0  0  0  0  0  0  0  0  0  0  0  0
   13.6808    0.7963    0.0000 H   0  0  0  0  0  0  0  0  0  0  0  0
   14.4657    0.9347    0.0000 H   0  0  0  0  0  0  0  0  0  0  0  0
   13.4556   -1.8404    0.0000 H   0  0  0  0  0  0  0  0  0  0  0  0
   12.9433   -1.2299    0.0000 H   0  0  0  0  0  0  0  0  0  0  0  0
   15.2031    0.6663    0.0000 H   0  0  0  0  0  0  0  0  0  0  0  0
   15.7154    0.0557    0.0000 H   0  0  0  0  0  0  0  0  0  0  0  0
   14.9779   -1.9704    0.0000 H   0  0  0  0  0  0  0  0  0  0  0  0
   14.1930   -2.1088    0.0000 H   0  0  0  0  0  0  0  0  0  0  0  0
   15.9074   -2.6545    0.0000 H   0  0  0  0  0  0  0  0  0  0  0  0
   16.5241    0.7476    0.0000 H   0  0  0  0  0  0  0  0  0  0  0  0
   17.4297   -3.2085    0.0000 H   0  0  0  0  0  0  0  0  0  0  0  0
   18.6707   -2.1672    0.0000 H   0  0  0  0  0  0  0  0  0  0  0  0
   18.1799    1.2208    0.0000 H   0  0  0  0  0  0  0  0  0  0  0  0
  1 35  1  0  0  0  0
  1 39  1  0  0  0  0
 16  2  1  1  0  0  0
  2 22  1  0  0  0  0
 17  3  1  1  0  0  0
  3 23  1  0  0  0  0
  4 18  2  0  0  0  0
  5 19  2  0  0  0  0
  6 22  2  0  0  0  0
  7 23  2  0  0  0  0
  8 18  1  0  0  0  0
  8 19  1  0  0  0  0
  8 20  1  0  0  0  0
  9 27  1  0  0  0  0
  9 28  1  0  0  0  0
  9 29  1  0  0  0  0
 10 30  1  0  0  0  0
 10 31  1  0  0  0  0
 10 32  1  0  0  0  0
 11 13  1  0  0  0  0
 11 15  1  0  0  0  0
 11 16  1  0  0  0  0
 11 40  1  1  0  0  0
 12 14  1  0  0  0  0
 12 15  1  0  0  0  0
 12 17  1  0  0  0  0
 12 41  1  6  0  0  0
 13 14  1  0  0  0  0
 13 18  1  0  0  0  0
 13 42  1  6  0  0  0
 14 19  1  0  0  0  0
 14 43  1  6  0  0  0
 15 44  1  0  0  0  0
 15 45  1  0  0  0  0
 16 17  1  0  0  0  0
 16 46  1  0  0  0  0
 17 47  1  0  0  0  0
 20 21  1  0  0  0  0
 20 48  1  0  0  0  0
 20 49  1  0  0  0  0
 21 24  1  0  0  0  0
 21 50  1  0  0  0  0
 21 51  1  0  0  0  0
 22 25  1  0  0  0  0
 23 26  1  0  0  0  0
 24 27  1  0  0  0  0
 24 52  1  0  0  0  0
 24 53  1  0  0  0  0
 25 54  1  0  0  0  0
 25 55  1  0  0  0  0
 25 56  1  0  0  0  0
 26 57  1  0  0  0  0
 26 58  1  0  0  0  0
 26 59  1  0  0  0  0
 27 60  1  0  0  0  0
 27 61  1  0  0  0  0
 28 30  1  0  0  0  0
 28 62  1  0  0  0  0
 28 63  1  0  0  0  0
 29 31  1  0  0  0  0
 29 64  1  0  0  0  0
 29 65  1  0  0  0  0
 30 66  1  0  0  0  0
 30 67  1  0  0  0  0
 31 68  1  0  0  0  0
 31 69  1  0  0  0  0
 32 33  2  0  0  0  0
 32 34  1  0  0  0  0
 33 35  1  0  0  0  0
 33 36  1  0  0  0  0
 34 37  2  0  0  0  0
 34 70  1  0  0  0  0
 35 38  2  0  0  0  0
 36 39  2  0  0  0  0
 36 71  1  0  0  0  0
 37 38  1  0  0  0  0
 37 72  1  0  0  0  0
 38 73  1  0  0  0  0
 39 74  1  0  0  0  0
M  END
> <PUBCHEM_COMPOUND_CID>
145988006

> <PUBCHEM_COMPOUND_CANONICALIZED>
1

> <PUBCHEM_CACTVS_COMPLEXITY>
940

> <PUBCHEM_CACTVS_HBOND_ACCEPTOR>
9

> <PUBCHEM_CACTVS_HBOND_DONOR>
0

> <PUBCHEM_CACTVS_ROTATABLE_BOND>
10

> <PUBCHEM_CACTVS_SUBSKEYS>
AAADcfB7OABAAAAAAAAAAAAAAAAAAeNECAA8YIAAAAAWAEgB8AAAHgQAAAAADRzl2AayycMABAiMAiXSWACDAIAhChBIiBkIZIgJYDLgkZGWIAxkhiDqyAe//PrOgAAAACAGAABAAAYAQDyAAYAADCAAAA==

> <PUBCHEM_IUPAC_OPENEYE_NAME>
[(1S,2R,6S,7R,8R,9S)-9-acetoxy-4-[4-[4-(benzothiophen-4-yl)piperazin-1-yl]butyl]-3,5-dioxo-4-azatricyclo[5.2.1.02,6]decan-8-yl] acetate

> <PUBCHEM_IUPAC_CAS_NAME>
acetic acid [(1S,2R,6S,7R,8R,9S)-9-acetyloxy-4-[4-[4-(1-benzothiophen-4-yl)-1-piperazinyl]butyl]-3,5-dioxo-4-azatricyclo[5.2.1.02,6]decan-8-yl] ester

> <PUBCHEM_IUPAC_NAME_MARKUP>
[(1<I>S</I>,2<I>R</I>,6<I>S</I>,7<I>R</I>,8<I>R</I>,9<I>S</I>)-9-acetyloxy-4-[4-[4-(1-benzothiophen-4-yl)piperazin-1-yl]butyl]-3,5-dioxo-4-azatricyclo[5.2.1.0<SUP>2,6</SUP>]decan-8-yl] acetate

> <PUBCHEM_IUPAC_NAME>
[(1S,2R,6S,7R,8R,9S)-9-acetyloxy-4-[4-[4-(1-benzothiophen-4-yl)piperazin-1-yl]butyl]-3,5-dioxo-4-azatricyclo[5.2.1.02,6]decan-8-yl] acetate

> <PUBCHEM_IUPAC_SYSTEMATIC_NAME>
[(1S,2R,6S,7R,8R,9S)-9-acetyloxy-4-[4-[4-(1-benzothiophen-4-yl)piperazin-1-yl]butyl]-3,5-bis(oxidanylidene)-4-azatricyclo[5.2.1.02,6]decan-8-yl] ethanoate

> <PUBCHEM_IUPAC_TRADITIONAL_NAME>
acetic acid [(1S,2R,6S,7R,8R,9S)-9-acetoxy-4-[4-[4-(benzothiophen-4-yl)piperazino]butyl]-3,5-diketo-4-azatricyclo[5.2.1.02,6]decan-8-yl] ester

> <PUBCHEM_IUPAC_INCHI>
InChI=1S/C29H35N3O6S/c1-17(33)37-26-20-16-21(27(26)38-18(2)34)25-24(20)28(35)32(29(25)36)10-4-3-9-30-11-13-31(14-12-30)22-6-5-7-23-19(22)8-15-39-23/h5-8,15,20-21,24-27H,3-4,9-14,16H2,1-2H3/t20-,21+,24+,25-,26-,27+

> <PUBCHEM_IUPAC_INCHIKEY>
FKVUODCCSPECOT-OUMHMPNFSA-N

> <PUBCHEM_XLOGP3_AA>
2.9

> <PUBCHEM_EXACT_MASS>
553.22465702

> <PUBCHEM_MOLECULAR_FORMULA>
C29H35N3O6S

> <PUBCHEM_MOLECULAR_WEIGHT>
553.7

> <PUBCHEM_OPENEYE_CAN_SMILES>
CC(=O)OC1C2CC(C1OC(=O)C)C3C2C(=O)N(C3=O)CCCCN4CCN(CC4)C5=C6C=CSC6=CC=C5

> <PUBCHEM_OPENEYE_ISO_SMILES>
CC(=O)O[C@@H]1[C@@H]2C[C@H]([C@@H]1OC(=O)C)[C@@H]3[C@H]2C(=O)N(C3=O)CCCCN4CCN(CC4)C5=C6C=CSC6=CC=C5

> <PUBCHEM_CACTVS_TPSA>
125

> <PUBCHEM_MONOISOTOPIC_WEIGHT>
553.22465702

> <PUBCHEM_TOTAL_CHARGE>
0

> <PUBCHEM_HEAVY_ATOM_COUNT>
39

> <PUBCHEM_ATOM_DEF_STEREO_COUNT>
6

> <PUBCHEM_ATOM_UDEF_STEREO_COUNT>
0

> <PUBCHEM_BOND_DEF_STEREO_COUNT>
0

> <PUBCHEM_BOND_UDEF_STEREO_COUNT>
0

> <PUBCHEM_ISOTOPIC_ATOM_COUNT>
0

> <PUBCHEM_COMPONENT_COUNT>
1

> <PUBCHEM_CACTVS_TAUTO_COUNT>
-1

> <PUBCHEM_COORDINATE_TYPE>
1
5
255

> <PUBCHEM_BONDANNOTATIONS>
1  35  8
1  39  8
11  40  5
12  41  6
13  42  6
14  43  6
16  2  5
17  3  5
32  33  8
32  34  8
33  35  8
33  36  8
34  37  8
35  38  8
36  39  8
37  38  8

$$$$
