46888985
  -OEChem-09292322292D

 60 65  0     1  0  0  0  0  0999 V2000
    8.0633    1.6900    0.0000 O   0  0  0  0  0  0  0  0  0  0  0  0
    7.1719   -3.8482    0.0000 O   0  0  0  0  0  0  0  0  0  0  0  0
    5.3798   -2.8136    0.0000 O   0  0  0  0  0  0  0  0  0  0  0  0
    2.0000   -4.8551    0.0000 O   0  0  0  0  0  0  0  0  0  0  0  0
   10.6910    6.2491    0.0000 O   0  0  0  0  0  0  0  0  0  0  0  0
    8.0517   -1.3100    0.0000 N   0  0  0  0  0  0  0  0  0  0  0  0
    3.5836   -5.6598    0.0000 N   0  0  0  0  0  0  0  0  0  0  0  0
    9.7910    4.7249    0.0000 N   0  0  0  0  0  0  0  0  0  0  0  0
    8.0594    0.6900    0.0000 C   0  0  0  0  0  0  0  0  0  0  0  0
    7.1876   -0.8067    0.0000 C   0  0  0  0  0  0  0  0  0  0  0  0
    8.9197   -0.8133    0.0000 C   0  0  0  0  0  0  0  0  0  0  0  0
    7.1915    0.1933    0.0000 C   0  0  0  0  0  0  0  0  0  0  0  0
    8.9235    0.1867    0.0000 C   0  0  0  0  0  0  0  0  0  0  0  0
    8.0479   -2.3100    0.0000 C   0  0  0  0  0  0  0  0  0  0  0  0
    7.1799   -2.8066    0.0000 C   0  0  2  0  0  0  0  0  0  0  0  0
    6.2778   -2.2858    0.0000 C   0  0  0  0  0  0  0  0  0  0  0  0
    5.3958   -3.8551    0.0000 C   0  0  0  0  0  0  0  0  0  0  0  0
    6.2619   -4.3551    0.0000 C   0  0  0  0  0  0  0  0  0  0  0  0
    4.5298   -4.3551    0.0000 C   0  0  0  0  0  0  0  0  0  0  0  0
    8.9312    2.1866    0.0000 C   0  0  0  0  0  0  0  0  0  0  0  0
    4.5298   -5.3551    0.0000 C   0  0  0  0  0  0  0  0  0  0  0  0
    3.5836   -4.0504    0.0000 C   0  0  0  0  0  0  0  0  0  0  0  0
    6.2619   -5.3551    0.0000 C   0  0  0  0  0  0  0  0  0  0  0  0
    8.9351    3.1866    0.0000 C   0  0  0  0  0  0  0  0  0  0  0  0
    5.3958   -5.8551    0.0000 C   0  0  0  0  0  0  0  0  0  0  0  0
    9.8030    3.6833    0.0000 C   0  0  0  0  0  0  0  0  0  0  0  0
   10.6671    3.1800    0.0000 C   0  0  0  0  0  0  0  0  0  0  0  0
    9.7953    1.6833    0.0000 C   0  0  0  0  0  0  0  0  0  0  0  0
    3.0000   -4.8551    0.0000 C   0  0  0  0  0  0  0  0  0  0  0  0
   11.5791    3.6833    0.0000 C   0  0  0  0  0  0  0  0  0  0  0  0
   10.6633    2.1800    0.0000 C   0  0  0  0  0  0  0  0  0  0  0  0
   11.5911    4.7249    0.0000 C   0  0  0  0  0  0  0  0  0  0  0  0
   10.6910    5.2491    0.0000 C   0  0  0  0  0  0  0  0  0  0  0  0
    7.5237    1.0021    0.0000 H   0  0  0  0  0  0  0  0  0  0  0  0
    6.5775   -0.6966    0.0000 H   0  0  0  0  0  0  0  0  0  0  0  0
    6.9733   -1.3884    0.0000 H   0  0  0  0  0  0  0  0  0  0  0  0
    9.1295   -1.3968    0.0000 H   0  0  0  0  0  0  0  0  0  0  0  0
    9.5306   -0.7080    0.0000 H   0  0  0  0  0  0  0  0  0  0  0  0
    6.9817    0.7768    0.0000 H   0  0  0  0  0  0  0  0  0  0  0  0
    6.5805    0.0880    0.0000 H   0  0  0  0  0  0  0  0  0  0  0  0
    9.5337    0.0766    0.0000 H   0  0  0  0  0  0  0  0  0  0  0  0
    9.1378    0.7684    0.0000 H   0  0  0  0  0  0  0  0  0  0  0  0
    8.2577   -2.8934    0.0000 H   0  0  0  0  0  0  0  0  0  0  0  0
    8.6588   -2.2047    0.0000 H   0  0  0  0  0  0  0  0  0  0  0  0
    7.7150   -3.1197    0.0000 H   0  0  0  0  0  0  0  0  0  0  0  0
    6.6751   -1.8099    0.0000 H   0  0  0  0  0  0  0  0  0  0  0  0
    5.8769   -1.8129    0.0000 H   0  0  0  0  0  0  0  0  0  0  0  0
    3.8346   -3.4834    0.0000 H   0  0  0  0  0  0  0  0  0  0  0  0
    3.0462   -3.7411    0.0000 H   0  0  0  0  0  0  0  0  0  0  0  0
    6.7988   -5.6651    0.0000 H   0  0  0  0  0  0  0  0  0  0  0  0
    8.3993    3.4987    0.0000 H   0  0  0  0  0  0  0  0  0  0  0  0
    5.3958   -6.4751    0.0000 H   0  0  0  0  0  0  0  0  0  0  0  0
    9.7929    1.0633    0.0000 H   0  0  0  0  0  0  0  0  0  0  0  0
    3.3910   -6.2491    0.0000 H   0  0  0  0  0  0  0  0  0  0  0  0
   11.7814    3.0972    0.0000 H   0  0  0  0  0  0  0  0  0  0  0  0
   12.1911    3.7823    0.0000 H   0  0  0  0  0  0  0  0  0  0  0  0
   11.1990    1.8679    0.0000 H   0  0  0  0  0  0  0  0  0  0  0  0
   12.2007    4.6117    0.0000 H   0  0  0  0  0  0  0  0  0  0  0  0
   11.8069    5.3061    0.0000 H   0  0  0  0  0  0  0  0  0  0  0  0
    9.2517    5.0307    0.0000 H   0  0  0  0  0  0  0  0  0  0  0  0
  1  9  1  0  0  0  0
  1 20  1  0  0  0  0
  2 15  1  0  0  0  0
  2 18  1  0  0  0  0
  3 16  1  0  0  0  0
  3 17  1  0  0  0  0
  4 29  2  0  0  0  0
  5 33  2  0  0  0  0
  6 10  1  0  0  0  0
  6 11  1  0  0  0  0
  6 14  1  0  0  0  0
  7 21  1  0  0  0  0
  7 29  1  0  0  0  0
  7 54  1  0  0  0  0
  8 26  1  0  0  0  0
  8 33  1  0  0  0  0
  8 60  1  0  0  0  0
  9 12  1  0  0  0  0
  9 13  1  0  0  0  0
  9 34  1  0  0  0  0
 10 12  1  0  0  0  0
 10 35  1  0  0  0  0
 10 36  1  0  0  0  0
 11 13  1  0  0  0  0
 11 37  1  0  0  0  0
 11 38  1  0  0  0  0
 12 39  1  0  0  0  0
 12 40  1  0  0  0  0
 13 41  1  0  0  0  0
 13 42  1  0  0  0  0
 15 14  1  1  0  0  0
 14 43  1  0  0  0  0
 14 44  1  0  0  0  0
 15 16  1  0  0  0  0
 15 45  1  0  0  0  0
 16 46  1  0  0  0  0
 16 47  1  0  0  0  0
 17 18  2  0  0  0  0
 17 19  1  0  0  0  0
 18 23  1  0  0  0  0
 19 21  2  0  0  0  0
 19 22  1  0  0  0  0
 20 24  2  0  0  0  0
 20 28  1  0  0  0  0
 21 25  1  0  0  0  0
 22 29  1  0  0  0  0
 22 48  1  0  0  0  0
 22 49  1  0  0  0  0
 23 25  2  0  0  0  0
 23 50  1  0  0  0  0
 24 26  1  0  0  0  0
 24 51  1  0  0  0  0
 25 52  1  0  0  0  0
 26 27  2  0  0  0  0
 27 30  1  0  0  0  0
 27 31  1  0  0  0  0
 28 31  2  0  0  0  0
 28 53  1  0  0  0  0
 30 32  1  0  0  0  0
 30 55  1  0  0  0  0
 30 56  1  0  0  0  0
 31 57  1  0  0  0  0
 32 33  1  0  0  0  0
 32 58  1  0  0  0  0
 32 59  1  0  0  0  0
M  END
> <PUBCHEM_COMPOUND_CID>
46888985

> <PUBCHEM_COMPOUND_CANONICALIZED>
1

> <PUBCHEM_CACTVS_COMPLEXITY>
742

> <PUBCHEM_CACTVS_HBOND_ACCEPTOR>
6

> <PUBCHEM_CACTVS_HBOND_DONOR>
2

> <PUBCHEM_CACTVS_ROTATABLE_BOND>
4

> <PUBCHEM_CACTVS_SUBSKEYS>
AAADceB7OAAAAAAAAAAAAAAAAAAAAWAAAAA8eJECAAAAAFixQAAAHgAQAAAADBzhmAYwxoPABACIAiVSUACCCAAhIgAIiAEO7IgPJjLEtZuHOCrm1Bna6Ae+3bPeIEABAgAKQABAgAIEABSAAAAAAAAAAA==

> <PUBCHEM_IUPAC_OPENEYE_NAME>
(3R)-3-[[4-[(2-oxo-3,4-dihydro-1H-quinolin-7-yl)oxy]-1-piperidyl]methyl]-2,3,7,9-tetrahydro-[1,4]dioxino[2,3-e]indol-8-one

> <PUBCHEM_IUPAC_CAS_NAME>
(3R)-3-[[4-[(2-oxo-3,4-dihydro-1H-quinolin-7-yl)oxy]-1-piperidinyl]methyl]-2,3,7,9-tetrahydro-[1,4]dioxino[2,3-e]indol-8-one

> <PUBCHEM_IUPAC_NAME_MARKUP>
(3<I>R</I>)-3-[[4-[(2-oxo-3,4-dihydro-1<I>H</I>-quinolin-7-yl)oxy]piperidin-1-yl]methyl]-2,3,7,9-tetrahydro-[1,4]dioxino[2,3-e]indol-8-one

> <PUBCHEM_IUPAC_NAME>
(3R)-3-[[4-[(2-oxo-3,4-dihydro-1H-quinolin-7-yl)oxy]piperidin-1-yl]methyl]-2,3,7,9-tetrahydro-[1,4]dioxino[2,3-e]indol-8-one

> <PUBCHEM_IUPAC_SYSTEMATIC_NAME>
(3R)-3-[[4-[(2-oxidanylidene-3,4-dihydro-1H-quinolin-7-yl)oxy]piperidin-1-yl]methyl]-2,3,7,9-tetrahydro-[1,4]dioxino[2,3-e]indol-8-one

> <PUBCHEM_IUPAC_TRADITIONAL_NAME>
(3R)-3-[[4-[(2-keto-3,4-dihydro-1H-quinolin-7-yl)oxy]piperidino]methyl]-2,3,7,9-tetrahydro-[1,4]dioxin[2,3-e]indol-8-one

> <PUBCHEM_IUPAC_INCHI>
InChI=1S/C25H27N3O5/c29-23-6-2-15-1-3-17(11-21(15)27-23)32-16-7-9-28(10-8-16)13-18-14-31-25-19-12-24(30)26-20(19)4-5-22(25)33-18/h1,3-5,11,16,18H,2,6-10,12-14H2,(H,26,30)(H,27,29)/t18-/m1/s1

> <PUBCHEM_IUPAC_INCHIKEY>
AYQVGSWWMXHYHH-GOSISDBHSA-N

> <PUBCHEM_XLOGP3_AA>
2

> <PUBCHEM_EXACT_MASS>
449.19507097

> <PUBCHEM_MOLECULAR_FORMULA>
C25H27N3O5

> <PUBCHEM_MOLECULAR_WEIGHT>
449.5

> <PUBCHEM_OPENEYE_CAN_SMILES>
C1CN(CCC1OC2=CC3=C(CCC(=O)N3)C=C2)CC4COC5=C(O4)C=CC6=C5CC(=O)N6

> <PUBCHEM_OPENEYE_ISO_SMILES>
C1CN(CCC1OC2=CC3=C(CCC(=O)N3)C=C2)C[C@@H]4COC5=C(O4)C=CC6=C5CC(=O)N6

> <PUBCHEM_CACTVS_TPSA>
89.1

> <PUBCHEM_MONOISOTOPIC_WEIGHT>
449.19507097

> <PUBCHEM_TOTAL_CHARGE>
0

> <PUBCHEM_HEAVY_ATOM_COUNT>
33

> <PUBCHEM_ATOM_DEF_STEREO_COUNT>
1

> <PUBCHEM_ATOM_UDEF_STEREO_COUNT>
0

> <PUBCHEM_BOND_DEF_STEREO_COUNT>
0

> <PUBCHEM_BOND_UDEF_STEREO_COUNT>
0

> <PUBCHEM_ISOTOPIC_ATOM_COUNT>
0

> <PUBCHEM_COMPONENT_COUNT>
1

> <PUBCHEM_CACTVS_TAUTO_COUNT>
-1

> <PUBCHEM_COORDINATE_TYPE>
1
5
255

> <PUBCHEM_BONDANNOTATIONS>
15  14  5
17  18  8
17  19  8
18  23  8
19  21  8
20  24  8
20  28  8
21  25  8
23  25  8
24  26  8
26  27  8
27  31  8
28  31  8

$$$$
