127047996
  -OEChem-09292322002D

 43 44  0     0  0  0  0  0  0999 V2000
    7.7331   -2.6550    0.0000 O   0  0  0  0  0  0  0  0  0  0  0  0
    4.2690    4.3450    0.0000 O   0  0  0  0  0  0  0  0  0  0  0  0
    2.5369    3.3450    0.0000 O   0  0  0  0  0  0  0  0  0  0  0  0
    9.4651   -1.6550    0.0000 O   0  0  0  0  0  0  0  0  0  0  0  0
    6.8671   -0.1550    0.0000 N   0  0  0  0  0  0  0  0  0  0  0  0
    6.0010    1.3450    0.0000 C   0  0  0  0  0  0  0  0  0  0  0  0
    6.0010    0.3450    0.0000 C   0  0  0  0  0  0  0  0  0  0  0  0
    6.8671   -1.1550    0.0000 C   0  0  0  0  0  0  0  0  0  0  0  0
    5.1350    1.8450    0.0000 C   0  0  0  0  0  0  0  0  0  0  0  0
    7.7331   -1.6550    0.0000 C   0  0  0  0  0  0  0  0  0  0  0  0
    5.1350    2.8450    0.0000 C   0  0  0  0  0  0  0  0  0  0  0  0
    4.2690    1.3450    0.0000 C   0  0  0  0  0  0  0  0  0  0  0  0
    4.2690    3.3450    0.0000 C   0  0  0  0  0  0  0  0  0  0  0  0
    3.4030    1.8450    0.0000 C   0  0  0  0  0  0  0  0  0  0  0  0
    3.4030    2.8450    0.0000 C   0  0  0  0  0  0  0  0  0  0  0  0
    8.5991   -3.1550    0.0000 C   0  0  0  0  0  0  0  0  0  0  0  0
    9.4651   -2.6550    0.0000 C   0  0  0  0  0  0  0  0  0  0  0  0
    8.5991   -4.1550    0.0000 C   0  0  0  0  0  0  0  0  0  0  0  0
   10.3312   -3.1550    0.0000 C   0  0  0  0  0  0  0  0  0  0  0  0
    9.4651   -4.6550    0.0000 C   0  0  0  0  0  0  0  0  0  0  0  0
   10.3312   -4.1550    0.0000 C   0  0  0  0  0  0  0  0  0  0  0  0
   10.3312   -1.1550    0.0000 C   0  0  0  0  0  0  0  0  0  0  0  0
    6.6116    1.2373    0.0000 H   0  0  0  0  0  0  0  0  0  0  0  0
    6.2131    1.9276    0.0000 H   0  0  0  0  0  0  0  0  0  0  0  0
    5.3905    0.4527    0.0000 H   0  0  0  0  0  0  0  0  0  0  0  0
    5.7890   -0.2376    0.0000 H   0  0  0  0  0  0  0  0  0  0  0  0
    6.2565   -1.0473    0.0000 H   0  0  0  0  0  0  0  0  0  0  0  0
    6.6550   -1.7376    0.0000 H   0  0  0  0  0  0  0  0  0  0  0  0
    7.4040    0.1550    0.0000 H   0  0  0  0  0  0  0  0  0  0  0  0
    8.3437   -1.7627    0.0000 H   0  0  0  0  0  0  0  0  0  0  0  0
    7.9451   -1.0724    0.0000 H   0  0  0  0  0  0  0  0  0  0  0  0
    5.6720    3.1550    0.0000 H   0  0  0  0  0  0  0  0  0  0  0  0
    4.2690    0.7250    0.0000 H   0  0  0  0  0  0  0  0  0  0  0  0
    2.8660    1.5350    0.0000 H   0  0  0  0  0  0  0  0  0  0  0  0
    8.0622   -4.4650    0.0000 H   0  0  0  0  0  0  0  0  0  0  0  0
   10.8681   -2.8450    0.0000 H   0  0  0  0  0  0  0  0  0  0  0  0
    9.4651   -5.2750    0.0000 H   0  0  0  0  0  0  0  0  0  0  0  0
   10.8681   -4.4650    0.0000 H   0  0  0  0  0  0  0  0  0  0  0  0
    4.8059    4.6550    0.0000 H   0  0  0  0  0  0  0  0  0  0  0  0
    2.0000    3.0350    0.0000 H   0  0  0  0  0  0  0  0  0  0  0  0
   10.6412   -1.6919    0.0000 H   0  0  0  0  0  0  0  0  0  0  0  0
   10.8681   -0.8450    0.0000 H   0  0  0  0  0  0  0  0  0  0  0  0
   10.0212   -0.6181    0.0000 H   0  0  0  0  0  0  0  0  0  0  0  0
  1 10  1  0  0  0  0
  1 16  1  0  0  0  0
  2 13  1  0  0  0  0
  2 39  1  0  0  0  0
  3 15  1  0  0  0  0
  3 40  1  0  0  0  0
  4 17  1  0  0  0  0
  4 22  1  0  0  0  0
  5  7  1  0  0  0  0
  5  8  1  0  0  0  0
  5 29  1  0  0  0  0
  6  7  1  0  0  0  0
  6  9  1  0  0  0  0
  6 23  1  0  0  0  0
  6 24  1  0  0  0  0
  7 25  1  0  0  0  0
  7 26  1  0  0  0  0
  8 10  1  0  0  0  0
  8 27  1  0  0  0  0
  8 28  1  0  0  0  0
  9 11  2  0  0  0  0
  9 12  1  0  0  0  0
 10 30  1  0  0  0  0
 10 31  1  0  0  0  0
 11 13  1  0  0  0  0
 11 32  1  0  0  0  0
 12 14  2  0  0  0  0
 12 33  1  0  0  0  0
 13 15  2  0  0  0  0
 14 15  1  0  0  0  0
 14 34  1  0  0  0  0
 16 17  1  0  0  0  0
 16 18  2  0  0  0  0
 17 19  2  0  0  0  0
 18 20  1  0  0  0  0
 18 35  1  0  0  0  0
 19 21  1  0  0  0  0
 19 36  1  0  0  0  0
 20 21  2  0  0  0  0
 20 37  1  0  0  0  0
 21 38  1  0  0  0  0
 22 41  1  0  0  0  0
 22 42  1  0  0  0  0
 22 43  1  0  0  0  0
M  END
> <PUBCHEM_COMPOUND_CID>
127047996

> <PUBCHEM_COMPOUND_CANONICALIZED>
1

> <PUBCHEM_CACTVS_COMPLEXITY>
302

> <PUBCHEM_CACTVS_HBOND_ACCEPTOR>
5

> <PUBCHEM_CACTVS_HBOND_DONOR>
3

> <PUBCHEM_CACTVS_ROTATABLE_BOND>
8

> <PUBCHEM_CACTVS_SUBSKEYS>
AAADceB6OAAAAAAAAAAAAAAAAAAAAAAAAAAwYAAAAAAAAAABQAAAHgAQCAAADAThmAYyBoLABgCAAiBCAAACCAAgIAAIiIAOiIgPJiKGsRuHeCOk0BGbuAeQ0LIOIAABAAAAQABAAAIAAACAAAAAAAAAAA==

> <PUBCHEM_IUPAC_OPENEYE_NAME>
4-[2-[2-(2-methoxyphenoxy)ethylamino]ethyl]benzene-1,2-diol

> <PUBCHEM_IUPAC_CAS_NAME>
4-[2-[2-(2-methoxyphenoxy)ethylamino]ethyl]benzene-1,2-diol

> <PUBCHEM_IUPAC_NAME_MARKUP>
4-[2-[2-(2-methoxyphenoxy)ethylamino]ethyl]benzene-1,2-diol

> <PUBCHEM_IUPAC_NAME>
4-[2-[2-(2-methoxyphenoxy)ethylamino]ethyl]benzene-1,2-diol

> <PUBCHEM_IUPAC_SYSTEMATIC_NAME>
4-[2-[2-(2-methoxyphenoxy)ethylamino]ethyl]benzene-1,2-diol

> <PUBCHEM_IUPAC_TRADITIONAL_NAME>
4-[2-[2-(2-methoxyphenoxy)ethylamino]ethyl]pyrocatechol

> <PUBCHEM_IUPAC_INCHI>
InChI=1S/C17H21NO4/c1-21-16-4-2-3-5-17(16)22-11-10-18-9-8-13-6-7-14(19)15(20)12-13/h2-7,12,18-20H,8-11H2,1H3

> <PUBCHEM_IUPAC_INCHIKEY>
RNAXJKKVCJEZIO-UHFFFAOYSA-N

> <PUBCHEM_XLOGP3_AA>
2.7

> <PUBCHEM_EXACT_MASS>
303.14705815

> <PUBCHEM_MOLECULAR_FORMULA>
C17H21NO4

> <PUBCHEM_MOLECULAR_WEIGHT>
303.35

> <PUBCHEM_OPENEYE_CAN_SMILES>
COC1=CC=CC=C1OCCNCCC2=CC(=C(C=C2)O)O

> <PUBCHEM_OPENEYE_ISO_SMILES>
COC1=CC=CC=C1OCCNCCC2=CC(=C(C=C2)O)O

> <PUBCHEM_CACTVS_TPSA>
71

> <PUBCHEM_MONOISOTOPIC_WEIGHT>
303.14705815

> <PUBCHEM_TOTAL_CHARGE>
0

> <PUBCHEM_HEAVY_ATOM_COUNT>
22

> <PUBCHEM_ATOM_DEF_STEREO_COUNT>
0

> <PUBCHEM_ATOM_UDEF_STEREO_COUNT>
0

> <PUBCHEM_BOND_DEF_STEREO_COUNT>
0

> <PUBCHEM_BOND_UDEF_STEREO_COUNT>
0

> <PUBCHEM_ISOTOPIC_ATOM_COUNT>
0

> <PUBCHEM_COMPONENT_COUNT>
1

> <PUBCHEM_CACTVS_TAUTO_COUNT>
-1

> <PUBCHEM_COORDINATE_TYPE>
1
5
255

> <PUBCHEM_BONDANNOTATIONS>
11  13  8
12  14  8
13  15  8
14  15  8
16  17  8
16  18  8
17  19  8
18  20  8
19  21  8
20  21  8
9  11  8
9  12  8

$$$$
