90656849
  -OEChem-09292322352D

299305  0     1  0  0  0  0  0999 V2000
   35.6894   21.0441    0.0000 S   0  0  0  0  0  0  0  0  0  0  0  0
    8.1892  -16.7971    0.0000 O   0  0  0  0  0  0  0  0  0  0  0  0
    8.9128  -19.6517    0.0000 O   0  0  0  0  0  0  0  0  0  0  0  0
   41.3957   19.1900    0.0000 O   0  0  0  0  0  0  0  0  0  0  0  0
    7.4460  -16.1280    0.0000 O   0  0  0  0  0  0  0  0  0  0  0  0
   41.9310   20.8373    0.0000 O   0  0  0  0  0  0  0  0  0  0  0  0
    6.3147  -17.1517    0.0000 O   0  0  0  0  0  0  0  0  0  0  0  0
   41.5152   22.7936    0.0000 O   0  0  0  0  0  0  0  0  0  0  0  0
    5.4245  -13.1424    0.0000 O   0  0  0  0  0  0  0  0  0  0  0  0
   11.1308  -11.2883    0.0000 O   0  0  0  0  0  0  0  0  0  0  0  0
    2.7166  -18.1517    0.0000 O   0  0  0  0  0  0  0  0  0  0  0  0
    3.5827  -19.6517    0.0000 O   0  0  0  0  0  0  0  0  0  0  0  0
    6.9993   -9.8989    0.0000 O   0  0  0  0  0  0  0  0  0  0  0  0
   33.9293   19.7653    0.0000 O   0  0  0  0  0  0  0  0  0  0  0  0
   32.8415   23.1132    0.0000 O   0  0  0  0  0  0  0  0  0  0  0  0
    7.2072   -8.9208    0.0000 O   0  0  0  0  0  0  0  0  0  0  0  0
    7.8309   -5.9864    0.0000 O   0  0  0  0  0  0  0  0  0  0  0  0
   30.3866   16.8225    0.0000 O   0  0  0  0  0  0  0  0  0  0  0  0
   27.3255   14.9173    0.0000 O   0  0  0  0  0  0  0  0  0  0  0  0
    9.9410   -4.3902    0.0000 O   0  0  0  0  0  0  0  0  0  0  0  0
   25.2154   13.3211    0.0000 O   0  0  0  0  0  0  0  0  0  0  0  0
   11.3078   -2.1249    0.0000 O   0  0  0  0  0  0  0  0  0  0  0  0
   23.8486   11.0558    0.0000 O   0  0  0  0  0  0  0  0  0  0  0  0
   13.4179   -0.5287    0.0000 O   0  0  0  0  0  0  0  0  0  0  0  0
   21.7385    9.4596    0.0000 O   0  0  0  0  0  0  0  0  0  0  0  0
   14.7847    1.7366    0.0000 O   0  0  0  0  0  0  0  0  0  0  0  0
   20.3717    7.1943    0.0000 O   0  0  0  0  0  0  0  0  0  0  0  0
   16.8948    3.3328    0.0000 O   0  0  0  0  0  0  0  0  0  0  0  0
   18.2616    5.5981    0.0000 O   0  0  0  0  0  0  0  0  0  0  0  0
   39.2708   16.1881    0.0000 N   0  0  3  0  0  0  0  0  0  0  0  0
    9.8834  -17.1572    0.0000 N   0  0  0  0  0  0  0  0  0  0  0  0
   39.7015   18.8299    0.0000 N   0  0  0  0  0  0  0  0  0  0  0  0
    8.0468  -18.1517    0.0000 N   0  0  0  0  0  0  0  0  0  0  0  0
    8.6050  -14.8408    0.0000 N   0  0  0  0  0  0  0  0  0  0  0  0
    7.1187  -13.5025    0.0000 N   0  0  0  0  0  0  0  0  0  0  0  0
    5.3147  -18.6517    0.0000 N   0  0  0  0  0  0  0  0  0  0  0  0
    5.4487  -21.6517    0.0000 N   0  0  0  0  0  0  0  0  0  0  0  0
    5.8403  -11.1861    0.0000 N   0  0  0  0  0  0  0  0  0  0  0  0
    3.4782  -15.6572    0.0000 N   0  0  0  0  0  0  0  0  0  0  0  0
   33.1203   21.3531    0.0000 N   0  0  0  0  0  0  0  0  0  0  0  0
    2.0000  -16.3153    0.0000 N   0  0  0  0  0  0  0  0  0  0  0  0
    4.5827  -23.1517    0.0000 N   0  0  0  0  0  0  0  0  0  0  0  0
    6.3147  -23.1517    0.0000 N   0  0  0  0  0  0  0  0  0  0  0  0
    5.5130   -8.5607    0.0000 N   0  0  0  0  0  0  0  0  0  0  0  0
    2.6327   -9.3866    0.0000 N   0  0  0  0  0  0  0  0  0  0  0  0
    2.8019   -7.7775    0.0000 N   0  0  0  0  0  0  0  0  0  0  0  0
   28.6924   17.1826    0.0000 N   0  0  0  0  0  0  0  0  0  0  0  0
   39.1663   17.1826    0.0000 C   0  0  1  0  0  0  0  0  0  0  0  0
   38.1882   17.3905    0.0000 C   0  0  0  0  0  0  0  0  0  0  0  0
   37.6882   16.5245    0.0000 C   0  0  0  0  0  0  0  0  0  0  0  0
   38.3573   15.7813    0.0000 C   0  0  0  0  0  0  0  0  0  0  0  0
   39.9095   17.8517    0.0000 C   0  0  0  0  0  0  0  0  0  0  0  0
   40.1369   15.6881    0.0000 C   0  0  0  0  0  0  0  0  0  0  0  0
    9.7788  -18.1517    0.0000 C   0  0  1  0  0  0  0  0  0  0  0  0
   10.6924  -18.5585    0.0000 C   0  0  0  0  0  0  0  0  0  0  0  0
   11.3615  -17.8153    0.0000 C   0  0  0  0  0  0  0  0  0  0  0  0
   10.8615  -16.9493    0.0000 C   0  0  0  0  0  0  0  0  0  0  0  0
   40.1369   14.6881    0.0000 C   0  0  0  0  0  0  0  0  0  0  0  0
    9.1402  -16.4881    0.0000 C   0  0  0  0  0  0  0  0  0  0  0  0
    8.9128  -18.6517    0.0000 C   0  0  0  0  0  0  0  0  0  0  0  0
    9.3481  -15.5099    0.0000 C   0  0  2  0  0  0  0  0  0  0  0  0
   40.4447   19.4990    0.0000 C   0  0  0  0  0  0  0  0  0  0  0  0
   10.2992  -15.2009    0.0000 C   0  0  0  0  0  0  0  0  0  0  0  0
    7.1808  -18.6517    0.0000 C   0  0  1  0  0  0  0  0  0  0  0  0
   41.0029   14.1881    0.0000 C   0  0  0  0  0  0  0  0  0  0  0  0
   40.2368   20.4772    0.0000 C   0  0  0  0  0  0  0  0  0  0  0  0
    7.1808  -19.6517    0.0000 C   0  0  0  0  0  0  0  0  0  0  0  0
    6.9108  -14.4807    0.0000 C   0  0  2  0  0  0  0  0  0  0  0  0
    7.6539  -15.1498    0.0000 C   0  0  0  0  0  0  0  0  0  0  0  0
    5.9597  -14.7897    0.0000 C   0  0  2  0  0  0  0  0  0  0  0  0
   10.5071  -14.2228    0.0000 C   0  0  0  0  0  0  0  0  0  0  0  0
    6.3147  -18.1517    0.0000 C   0  0  0  0  0  0  0  0  0  0  0  0
    6.3147  -20.1517    0.0000 C   0  0  0  0  0  0  0  0  0  0  0  0
   39.2857   20.7862    0.0000 C   0  0  0  0  0  0  0  0  0  0  0  0
   40.9799   21.1463    0.0000 C   0  0  0  0  0  0  0  0  0  0  0  0
    5.2166  -14.1206    0.0000 C   0  0  0  0  0  0  0  0  0  0  0  0
    5.7518  -15.7678    0.0000 C   0  0  0  0  0  0  0  0  0  0  0  0
   39.0778   21.7643    0.0000 C   0  0  0  0  0  0  0  0  0  0  0  0
    9.7640  -13.5536    0.0000 C   0  0  0  0  0  0  0  0  0  0  0  0
   11.4581  -13.9137    0.0000 C   0  0  0  0  0  0  0  0  0  0  0  0
    6.3147  -21.1517    0.0000 C   0  0  0  0  0  0  0  0  0  0  0  0
   40.7720   22.1244    0.0000 C   0  0  0  0  0  0  0  0  0  0  0  0
    4.4487  -18.1517    0.0000 C   0  0  1  0  0  0  0  0  0  0  0  0
   39.8210   22.4335    0.0000 C   0  0  0  0  0  0  0  0  0  0  0  0
   38.1268   22.0733    0.0000 C   0  0  0  0  0  0  0  0  0  0  0  0
    4.2655  -14.4296    0.0000 C   0  0  0  0  0  0  0  0  0  0  0  0
    6.3755  -12.8334    0.0000 C   0  0  0  0  0  0  0  0  0  0  0  0
    9.9719  -12.5755    0.0000 C   0  0  0  0  0  0  0  0  0  0  0  0
   11.6661  -12.9356    0.0000 C   0  0  0  0  0  0  0  0  0  0  0  0
    6.5835  -11.8552    0.0000 C   0  0  2  0  0  0  0  0  0  0  0  0
   37.3836   21.4042    0.0000 C   0  0  0  0  0  0  0  0  0  0  0  0
    4.4487  -17.1517    0.0000 C   0  0  0  0  0  0  0  0  0  0  0  0
   10.9229  -12.2665    0.0000 C   0  0  0  0  0  0  0  0  0  0  0  0
    3.5827  -18.6517    0.0000 C   0  0  0  0  0  0  0  0  0  0  0  0
   36.4325   21.7132    0.0000 C   0  0  0  0  0  0  0  0  0  0  0  0
    3.5827  -16.6517    0.0000 C   0  0  0  0  0  0  0  0  0  0  0  0
   42.6741   21.5064    0.0000 C   0  0  0  0  0  0  0  0  0  0  0  0
    7.5345  -11.5462    0.0000 C   0  0  0  0  0  0  0  0  0  0  0  0
   34.7383   21.3531    0.0000 C   0  0  3  0  0  0  0  0  0  0  0  0
   41.3072   23.7717    0.0000 C   0  0  0  0  0  0  0  0  0  0  0  0
    5.4487  -22.6517    0.0000 C   0  0  0  0  0  0  0  0  0  0  0  0
    6.0482  -10.2080    0.0000 C   0  0  0  0  0  0  0  0  0  0  0  0
   34.4293   22.3042    0.0000 C   0  0  0  0  0  0  0  0  0  0  0  0
    2.6691  -17.0585    0.0000 C   0  0  0  0  0  0  0  0  0  0  0  0
    5.3051   -9.5388    0.0000 C   0  0  2  0  0  0  0  0  0  0  0  0
   33.9293   20.7653    0.0000 C   0  0  0  0  0  0  0  0  0  0  0  0
   33.4293   22.3042    0.0000 C   0  0  0  0  0  0  0  0  0  0  0  0
   32.1693   21.0441    0.0000 C   0  0  0  0  0  0  0  0  0  0  0  0
    4.3540   -9.8478    0.0000 C   0  0  0  0  0  0  0  0  0  0  0  0
    2.5000  -15.4493    0.0000 C   0  0  0  0  0  0  0  0  0  0  0  0
   31.9613   20.0659    0.0000 C   0  0  0  0  0  0  0  0  0  0  0  0
   31.0103   19.7569    0.0000 C   0  0  0  0  0  0  0  0  0  0  0  0
    3.6109   -9.1787    0.0000 C   0  0  0  0  0  0  0  0  0  0  0  0
   30.8024   18.7788    0.0000 C   0  0  0  0  0  0  0  0  0  0  0  0
    6.4640   -8.2517    0.0000 C   0  0  0  0  0  0  0  0  0  0  0  0
    3.7154   -8.1842    0.0000 C   0  0  0  0  0  0  0  0  0  0  0  0
    6.6720   -7.2735    0.0000 C   0  0  0  0  0  0  0  0  0  0  0  0
   29.8513   18.4698    0.0000 C   0  0  0  0  0  0  0  0  0  0  0  0
    2.1327   -8.5206    0.0000 C   0  0  0  0  0  0  0  0  0  0  0  0
    7.6230   -6.9645    0.0000 C   0  0  0  0  0  0  0  0  0  0  0  0
   29.6434   17.4916    0.0000 C   0  0  0  0  0  0  0  0  0  0  0  0
   28.4844   16.2045    0.0000 C   0  0  0  0  0  0  0  0  0  0  0  0
    8.7820   -5.6773    0.0000 C   0  0  0  0  0  0  0  0  0  0  0  0
   27.5334   15.8954    0.0000 C   0  0  0  0  0  0  0  0  0  0  0  0
    8.9899   -4.6992    0.0000 C   0  0  0  0  0  0  0  0  0  0  0  0
   26.3744   14.6083    0.0000 C   0  0  0  0  0  0  0  0  0  0  0  0
   10.1489   -3.4120    0.0000 C   0  0  0  0  0  0  0  0  0  0  0  0
   26.1665   13.6301    0.0000 C   0  0  0  0  0  0  0  0  0  0  0  0
   11.0999   -3.1030    0.0000 C   0  0  0  0  0  0  0  0  0  0  0  0
   25.0075   12.3430    0.0000 C   0  0  0  0  0  0  0  0  0  0  0  0
   12.2589   -1.8158    0.0000 C   0  0  0  0  0  0  0  0  0  0  0  0
   24.0565   12.0339    0.0000 C   0  0  0  0  0  0  0  0  0  0  0  0
   12.4668   -0.8377    0.0000 C   0  0  0  0  0  0  0  0  0  0  0  0
   22.8975   10.7468    0.0000 C   0  0  0  0  0  0  0  0  0  0  0  0
   13.6258    0.4495    0.0000 C   0  0  0  0  0  0  0  0  0  0  0  0
   22.6896    9.7686    0.0000 C   0  0  0  0  0  0  0  0  0  0  0  0
   14.5768    0.7585    0.0000 C   0  0  0  0  0  0  0  0  0  0  0  0
   21.5306    8.4815    0.0000 C   0  0  0  0  0  0  0  0  0  0  0  0
   20.5796    8.1724    0.0000 C   0  0  0  0  0  0  0  0  0  0  0  0
   15.7358    2.0456    0.0000 C   0  0  0  0  0  0  0  0  0  0  0  0
   15.9437    3.0238    0.0000 C   0  0  0  0  0  0  0  0  0  0  0  0
   19.4206    6.8853    0.0000 C   0  0  0  0  0  0  0  0  0  0  0  0
   19.2127    5.9071    0.0000 C   0  0  0  0  0  0  0  0  0  0  0  0
   17.1027    4.3110    0.0000 C   0  0  0  0  0  0  0  0  0  0  0  0
   18.0537    4.6200    0.0000 C   0  0  0  0  0  0  0  0  0  0  0  0
   39.7451   16.9604    0.0000 H   0  0  0  0  0  0  0  0  0  0  0  0
   38.3797   17.9802    0.0000 H   0  0  0  0  0  0  0  0  0  0  0  0
   37.6218   17.6427    0.0000 H   0  0  0  0  0  0  0  0  0  0  0  0
   37.1866   16.8889    0.0000 H   0  0  0  0  0  0  0  0  0  0  0  0
   37.2733   16.0637    0.0000 H   0  0  0  0  0  0  0  0  0  0  0  0
   37.8557   15.4169    0.0000 H   0  0  0  0  0  0  0  0  0  0  0  0
   38.6673   15.2444    0.0000 H   0  0  0  0  0  0  0  0  0  0  0  0
   40.2380   17.3259    0.0000 H   0  0  0  0  0  0  0  0  0  0  0  0
   40.4843   18.0840    0.0000 H   0  0  0  0  0  0  0  0  0  0  0  0
   40.7474   15.5804    0.0000 H   0  0  0  0  0  0  0  0  0  0  0  0
   40.3489   16.2707    0.0000 H   0  0  0  0  0  0  0  0  0  0  0  0
    9.2588  -17.8140    0.0000 H   0  0  0  0  0  0  0  0  0  0  0  0
   10.3824  -19.0954    0.0000 H   0  0  0  0  0  0  0  0  0  0  0  0
   11.1940  -18.9229    0.0000 H   0  0  0  0  0  0  0  0  0  0  0  0
   11.7764  -18.2761    0.0000 H   0  0  0  0  0  0  0  0  0  0  0  0
   11.8631  -17.4509    0.0000 H   0  0  0  0  0  0  0  0  0  0  0  0
   11.4279  -16.6971    0.0000 H   0  0  0  0  0  0  0  0  0  0  0  0
   10.6699  -16.3596    0.0000 H   0  0  0  0  0  0  0  0  0  0  0  0
   39.1119   19.0215    0.0000 H   0  0  0  0  0  0  0  0  0  0  0  0
   39.5999   14.3781    0.0000 H   0  0  0  0  0  0  0  0  0  0  0  0
    8.7585  -15.7015    0.0000 H   0  0  0  0  0  0  0  0  0  0  0  0
    8.0468  -17.5317    0.0000 H   0  0  0  0  0  0  0  0  0  0  0  0
   10.3855  -15.8149    0.0000 H   0  0  0  0  0  0  0  0  0  0  0  0
   10.9188  -15.2225    0.0000 H   0  0  0  0  0  0  0  0  0  0  0  0
    7.7177  -18.9617    0.0000 H   0  0  0  0  0  0  0  0  0  0  0  0
    8.7339  -14.2343    0.0000 H   0  0  0  0  0  0  0  0  0  0  0  0
   41.0029   13.5681    0.0000 H   0  0  0  0  0  0  0  0  0  0  0  0
   41.5398   14.4981    0.0000 H   0  0  0  0  0  0  0  0  0  0  0  0
    7.3928  -20.2343    0.0000 H   0  0  0  0  0  0  0  0  0  0  0  0
    7.7913  -19.5441    0.0000 H   0  0  0  0  0  0  0  0  0  0  0  0
    6.4500  -14.0658    0.0000 H   0  0  0  0  0  0  0  0  0  0  0  0
    5.3701  -14.9813    0.0000 H   0  0  0  0  0  0  0  0  0  0  0  0
    6.1027  -19.5691    0.0000 H   0  0  0  0  0  0  0  0  0  0  0  0
    5.7042  -20.2594    0.0000 H   0  0  0  0  0  0  0  0  0  0  0  0
   38.8250   20.3713    0.0000 H   0  0  0  0  0  0  0  0  0  0  0  0
    5.7051  -13.7388    0.0000 H   0  0  0  0  0  0  0  0  0  0  0  0
    4.9255  -13.5731    0.0000 H   0  0  0  0  0  0  0  0  0  0  0  0
    7.7083  -13.3109    0.0000 H   0  0  0  0  0  0  0  0  0  0  0  0
    5.1454  -15.6389    0.0000 H   0  0  0  0  0  0  0  0  0  0  0  0
    5.6229  -16.3743    0.0000 H   0  0  0  0  0  0  0  0  0  0  0  0
    6.3583  -15.8967    0.0000 H   0  0  0  0  0  0  0  0  0  0  0  0
    9.1743  -13.7452    0.0000 H   0  0  0  0  0  0  0  0  0  0  0  0
   11.9189  -14.3286    0.0000 H   0  0  0  0  0  0  0  0  0  0  0  0
    5.8517  -18.9617    0.0000 H   0  0  0  0  0  0  0  0  0  0  0  0
    6.5268  -21.7343    0.0000 H   0  0  0  0  0  0  0  0  0  0  0  0
    6.9253  -21.0441    0.0000 H   0  0  0  0  0  0  0  0  0  0  0  0
    4.4487  -18.7717    0.0000 H   0  0  0  0  0  0  0  0  0  0  0  0
   39.6920   23.0399    0.0000 H   0  0  0  0  0  0  0  0  0  0  0  0
   38.4178   22.6208    0.0000 H   0  0  0  0  0  0  0  0  0  0  0  0
   37.6382   22.4551    0.0000 H   0  0  0  0  0  0  0  0  0  0  0  0
    4.0739  -13.8399    0.0000 H   0  0  0  0  0  0  0  0  0  0  0  0
    3.6759  -14.6212    0.0000 H   0  0  0  0  0  0  0  0  0  0  0  0
    4.4571  -15.0192    0.0000 H   0  0  0  0  0  0  0  0  0  0  0  0
    9.5111  -12.1606    0.0000 H   0  0  0  0  0  0  0  0  0  0  0  0
   12.2557  -12.7440    0.0000 H   0  0  0  0  0  0  0  0  0  0  0  0
    6.7124  -11.2488    0.0000 H   0  0  0  0  0  0  0  0  0  0  0  0
   37.0925   20.8568    0.0000 H   0  0  0  0  0  0  0  0  0  0  0  0
   37.8722   21.0225    0.0000 H   0  0  0  0  0  0  0  0  0  0  0  0
    5.0593  -17.2594    0.0000 H   0  0  0  0  0  0  0  0  0  0  0  0
    4.6608  -16.5691    0.0000 H   0  0  0  0  0  0  0  0  0  0  0  0
   36.7236   22.2607    0.0000 H   0  0  0  0  0  0  0  0  0  0  0  0
   35.9440   22.0949    0.0000 H   0  0  0  0  0  0  0  0  0  0  0  0
   43.0890   21.0457    0.0000 H   0  0  0  0  0  0  0  0  0  0  0  0
   43.1349   21.9213    0.0000 H   0  0  0  0  0  0  0  0  0  0  0  0
   42.2593   21.9672    0.0000 H   0  0  0  0  0  0  0  0  0  0  0  0
    7.7261  -12.1359    0.0000 H   0  0  0  0  0  0  0  0  0  0  0  0
    8.1242  -11.3546    0.0000 H   0  0  0  0  0  0  0  0  0  0  0  0
    7.3429  -10.9566    0.0000 H   0  0  0  0  0  0  0  0  0  0  0  0
    5.2507  -11.3777    0.0000 H   0  0  0  0  0  0  0  0  0  0  0  0
   35.1768   21.7915    0.0000 H   0  0  0  0  0  0  0  0  0  0  0  0
   41.9137   23.9006    0.0000 H   0  0  0  0  0  0  0  0  0  0  0  0
   41.1783   24.3782    0.0000 H   0  0  0  0  0  0  0  0  0  0  0  0
   40.7008   23.6428    0.0000 H   0  0  0  0  0  0  0  0  0  0  0  0
   11.7205  -11.0967    0.0000 H   0  0  0  0  0  0  0  0  0  0  0  0
    3.9389  -15.2423    0.0000 H   0  0  0  0  0  0  0  0  0  0  0  0
   35.0358   22.4331    0.0000 H   0  0  0  0  0  0  0  0  0  0  0  0
   34.3645   22.9208    0.0000 H   0  0  0  0  0  0  0  0  0  0  0  0
    2.5402  -17.6649    0.0000 H   0  0  0  0  0  0  0  0  0  0  0  0
    4.8443   -9.1240    0.0000 H   0  0  0  0  0  0  0  0  0  0  0  0
    2.1797  -18.4617    0.0000 H   0  0  0  0  0  0  0  0  0  0  0  0
   32.0830   21.6581    0.0000 H   0  0  0  0  0  0  0  0  0  0  0  0
   31.5496   21.0657    0.0000 H   0  0  0  0  0  0  0  0  0  0  0  0
    3.8654  -10.2296    0.0000 H   0  0  0  0  0  0  0  0  0  0  0  0
    4.6451  -10.3953    0.0000 H   0  0  0  0  0  0  0  0  0  0  0  0
    2.2478  -14.8829    0.0000 H   0  0  0  0  0  0  0  0  0  0  0  0
    4.5827  -23.7717    0.0000 H   0  0  0  0  0  0  0  0  0  0  0  0
    4.0457  -22.8417    0.0000 H   0  0  0  0  0  0  0  0  0  0  0  0
    6.3147  -23.7717    0.0000 H   0  0  0  0  0  0  0  0  0  0  0  0
    6.8517  -22.8417    0.0000 H   0  0  0  0  0  0  0  0  0  0  0  0
   32.0476   19.4520    0.0000 H   0  0  0  0  0  0  0  0  0  0  0  0
   32.5810   20.0443    0.0000 H   0  0  0  0  0  0  0  0  0  0  0  0
    5.0522   -8.1458    0.0000 H   0  0  0  0  0  0  0  0  0  0  0  0
   30.9240   20.3709    0.0000 H   0  0  0  0  0  0  0  0  0  0  0  0
   30.3907   19.7786    0.0000 H   0  0  0  0  0  0  0  0  0  0  0  0
   30.8887   18.1648    0.0000 H   0  0  0  0  0  0  0  0  0  0  0  0
   31.4220   18.7571    0.0000 H   0  0  0  0  0  0  0  0  0  0  0  0
    2.3806   -9.9530    0.0000 H   0  0  0  0  0  0  0  0  0  0  0  0
    4.2523   -7.8742    0.0000 H   0  0  0  0  0  0  0  0  0  0  0  0
    6.5857   -6.6596    0.0000 H   0  0  0  0  0  0  0  0  0  0  0  0
    6.0523   -7.2519    0.0000 H   0  0  0  0  0  0  0  0  0  0  0  0
   29.7650   19.0837    0.0000 H   0  0  0  0  0  0  0  0  0  0  0  0
   29.2317   18.4914    0.0000 H   0  0  0  0  0  0  0  0  0  0  0  0
    1.5161   -8.4558    0.0000 H   0  0  0  0  0  0  0  0  0  0  0  0
    7.7093   -7.5785    0.0000 H   0  0  0  0  0  0  0  0  0  0  0  0
    8.2426   -6.9862    0.0000 H   0  0  0  0  0  0  0  0  0  0  0  0
   28.2316   17.5975    0.0000 H   0  0  0  0  0  0  0  0  0  0  0  0
   28.5707   15.5905    0.0000 H   0  0  0  0  0  0  0  0  0  0  0  0
   29.1041   16.1828    0.0000 H   0  0  0  0  0  0  0  0  0  0  0  0
    8.8683   -6.2913    0.0000 H   0  0  0  0  0  0  0  0  0  0  0  0
    9.4016   -5.6990    0.0000 H   0  0  0  0  0  0  0  0  0  0  0  0
   27.4471   16.5094    0.0000 H   0  0  0  0  0  0  0  0  0  0  0  0
   26.9138   15.9171    0.0000 H   0  0  0  0  0  0  0  0  0  0  0  0
    8.9036   -4.0852    0.0000 H   0  0  0  0  0  0  0  0  0  0  0  0
    8.3703   -4.6776    0.0000 H   0  0  0  0  0  0  0  0  0  0  0  0
   26.2881   15.2222    0.0000 H   0  0  0  0  0  0  0  0  0  0  0  0
   25.7548   14.6299    0.0000 H   0  0  0  0  0  0  0  0  0  0  0  0
   10.0626   -2.7981    0.0000 H   0  0  0  0  0  0  0  0  0  0  0  0
    9.5292   -3.3904    0.0000 H   0  0  0  0  0  0  0  0  0  0  0  0
   26.2528   13.0162    0.0000 H   0  0  0  0  0  0  0  0  0  0  0  0
   26.7861   13.6085    0.0000 H   0  0  0  0  0  0  0  0  0  0  0  0
   11.1862   -3.7170    0.0000 H   0  0  0  0  0  0  0  0  0  0  0  0
   11.7195   -3.1246    0.0000 H   0  0  0  0  0  0  0  0  0  0  0  0
   25.0938   11.7290    0.0000 H   0  0  0  0  0  0  0  0  0  0  0  0
   25.6272   12.3213    0.0000 H   0  0  0  0  0  0  0  0  0  0  0  0
   12.3452   -2.4298    0.0000 H   0  0  0  0  0  0  0  0  0  0  0  0
   12.8785   -1.8375    0.0000 H   0  0  0  0  0  0  0  0  0  0  0  0
   23.9702   12.6479    0.0000 H   0  0  0  0  0  0  0  0  0  0  0  0
   23.4369   12.0556    0.0000 H   0  0  0  0  0  0  0  0  0  0  0  0
   12.3805   -0.2237    0.0000 H   0  0  0  0  0  0  0  0  0  0  0  0
   11.8472   -0.8161    0.0000 H   0  0  0  0  0  0  0  0  0  0  0  0
   22.8112   11.3607    0.0000 H   0  0  0  0  0  0  0  0  0  0  0  0
   22.2779   10.7684    0.0000 H   0  0  0  0  0  0  0  0  0  0  0  0
   13.5395    1.0634    0.0000 H   0  0  0  0  0  0  0  0  0  0  0  0
   13.0061    0.4711    0.0000 H   0  0  0  0  0  0  0  0  0  0  0  0
   22.7759    9.1547    0.0000 H   0  0  0  0  0  0  0  0  0  0  0  0
   23.3092    9.7470    0.0000 H   0  0  0  0  0  0  0  0  0  0  0  0
   14.6631    0.1445    0.0000 H   0  0  0  0  0  0  0  0  0  0  0  0
   15.1964    0.7368    0.0000 H   0  0  0  0  0  0  0  0  0  0  0  0
   21.6169    7.8675    0.0000 H   0  0  0  0  0  0  0  0  0  0  0  0
   22.1503    8.4598    0.0000 H   0  0  0  0  0  0  0  0  0  0  0  0
   20.4933    8.7864    0.0000 H   0  0  0  0  0  0  0  0  0  0  0  0
   19.9600    8.1941    0.0000 H   0  0  0  0  0  0  0  0  0  0  0  0
   15.8221    1.4317    0.0000 H   0  0  0  0  0  0  0  0  0  0  0  0
   16.3554    2.0240    0.0000 H   0  0  0  0  0  0  0  0  0  0  0  0
   15.8574    3.6378    0.0000 H   0  0  0  0  0  0  0  0  0  0  0  0
   15.3241    3.0454    0.0000 H   0  0  0  0  0  0  0  0  0  0  0  0
   19.3343    7.4992    0.0000 H   0  0  0  0  0  0  0  0  0  0  0  0
   18.8010    6.9069    0.0000 H   0  0  0  0  0  0  0  0  0  0  0  0
   19.2990    5.2932    0.0000 H   0  0  0  0  0  0  0  0  0  0  0  0
   19.8323    5.8855    0.0000 H   0  0  0  0  0  0  0  0  0  0  0  0
   17.0164    4.9249    0.0000 H   0  0  0  0  0  0  0  0  0  0  0  0
   16.4830    4.3326    0.0000 H   0  0  0  0  0  0  0  0  0  0  0  0
   18.1400    4.0060    0.0000 H   0  0  0  0  0  0  0  0  0  0  0  0
   18.6734    4.5983    0.0000 H   0  0  0  0  0  0  0  0  0  0  0  0
  1 95  1  0  0  0  0
  1 99  1  0  0  0  0
  2 59  2  0  0  0  0
  3 60  2  0  0  0  0
  4 62  2  0  0  0  0
  5 69  2  0  0  0  0
  6 75  1  0  0  0  0
  6 97  1  0  0  0  0
  7 72  2  0  0  0  0
  8 82  1  0  0  0  0
  8100  1  0  0  0  0
  9 87  2  0  0  0  0
 10 93  1  0  0  0  0
 10219  1  0  0  0  0
 11 94  1  0  0  0  0
 11225  1  0  0  0  0
 12 94  2  0  0  0  0
 13102  2  0  0  0  0
 14106  2  0  0  0  0
 15107  2  0  0  0  0
 16115  2  0  0  0  0
 17120  1  0  0  0  0
 17123  1  0  0  0  0
 18121  2  0  0  0  0
 19124  1  0  0  0  0
 19126  1  0  0  0  0
 20125  1  0  0  0  0
 20127  1  0  0  0  0
 21128  1  0  0  0  0
 21130  1  0  0  0  0
 22129  1  0  0  0  0
 22131  1  0  0  0  0
 23132  1  0  0  0  0
 23134  1  0  0  0  0
 24133  1  0  0  0  0
 24135  1  0  0  0  0
 25136  1  0  0  0  0
 25138  1  0  0  0  0
 26137  1  0  0  0  0
 26140  1  0  0  0  0
 27139  1  0  0  0  0
 27142  1  0  0  0  0
 28141  1  0  0  0  0
 28144  1  0  0  0  0
 29143  1  0  0  0  0
 29145  1  0  0  0  0
 30 48  1  0  0  0  0
 30 51  1  0  0  0  0
 30 53  1  0  0  0  0
 31 54  1  0  0  0  0
 31 57  1  0  0  0  0
 31 59  1  0  0  0  0
 32 52  1  0  0  0  0
 32 62  1  0  0  0  0
 32164  1  0  0  0  0
 33 60  1  0  0  0  0
 64 33  1  1  0  0  0
 33167  1  0  0  0  0
 61 34  1  1  0  0  0
 34 69  1  0  0  0  0
 34171  1  0  0  0  0
 68 35  1  6  0  0  0
 35 87  1  0  0  0  0
 35183  1  0  0  0  0
 36 72  1  0  0  0  0
 83 36  1  6  0  0  0
 36189  1  0  0  0  0
 37 81  1  0  0  0  0
 37101  2  0  0  0  0
 90 38  1  1  0  0  0
 38102  1  0  0  0  0
 38214  1  0  0  0  0
 39 96  1  0  0  0  0
 39110  1  0  0  0  0
 39220  1  0  0  0  0
 40106  1  0  0  0  0
 40107  1  0  0  0  0
 40108  1  0  0  0  0
 41104  1  0  0  0  0
 41110  2  0  0  0  0
 42101  1  0  0  0  0
 42231  1  0  0  0  0
 42232  1  0  0  0  0
 43101  1  0  0  0  0
 43233  1  0  0  0  0
 43234  1  0  0  0  0
105 44  1  6  0  0  0
 44115  1  0  0  0  0
 44237  1  0  0  0  0
 45113  1  0  0  0  0
 45119  1  0  0  0  0
 45242  1  0  0  0  0
 46116  1  0  0  0  0
 46119  2  0  0  0  0
 47121  1  0  0  0  0
 47122  1  0  0  0  0
 47251  1  0  0  0  0
 48 49  1  0  0  0  0
 48 52  1  1  0  0  0
 48146  1  0  0  0  0
 49 50  1  0  0  0  0
 49147  1  0  0  0  0
 49148  1  0  0  0  0
 50 51  1  0  0  0  0
 50149  1  0  0  0  0
 50150  1  0  0  0  0
 51151  1  0  0  0  0
 51152  1  0  0  0  0
 52153  1  0  0  0  0
 52154  1  0  0  0  0
 53 58  1  0  0  0  0
 53155  1  0  0  0  0
 53156  1  0  0  0  0
 54 55  1  0  0  0  0
 54 60  1  1  0  0  0
 54157  1  0  0  0  0
 55 56  1  0  0  0  0
 55158  1  0  0  0  0
 55159  1  0  0  0  0
 56 57  1  0  0  0  0
 56160  1  0  0  0  0
 56161  1  0  0  0  0
 57162  1  0  0  0  0
 57163  1  0  0  0  0
 58 65  2  0  0  0  0
 58165  1  0  0  0  0
 59 61  1  0  0  0  0
 61 63  1  0  0  0  0
 61166  1  0  0  0  0
 62 66  1  0  0  0  0
 63 71  1  0  0  0  0
 63168  1  0  0  0  0
 63169  1  0  0  0  0
 64 67  1  0  0  0  0
 64 72  1  0  0  0  0
 64170  1  0  0  0  0
 65172  1  0  0  0  0
 65173  1  0  0  0  0
 66 74  1  0  0  0  0
 66 75  2  0  0  0  0
 67 73  1  0  0  0  0
 67174  1  0  0  0  0
 67175  1  0  0  0  0
 68 69  1  0  0  0  0
 68 70  1  0  0  0  0
 68176  1  0  0  0  0
 70 76  1  0  0  0  0
 70 77  1  1  0  0  0
 70177  1  0  0  0  0
 71 79  2  0  0  0  0
 71 80  1  0  0  0  0
 73 81  1  0  0  0  0
 73178  1  0  0  0  0
 73179  1  0  0  0  0
 74 78  2  0  0  0  0
 74180  1  0  0  0  0
 75 82  1  0  0  0  0
 76 86  1  0  0  0  0
 76181  1  0  0  0  0
 76182  1  0  0  0  0
 77184  1  0  0  0  0
 77185  1  0  0  0  0
 77186  1  0  0  0  0
 78 84  1  0  0  0  0
 78 85  1  0  0  0  0
 79 88  1  0  0  0  0
 79187  1  0  0  0  0
 80 89  2  0  0  0  0
 80188  1  0  0  0  0
 81190  1  0  0  0  0
 81191  1  0  0  0  0
 82 84  2  0  0  0  0
 83 92  1  0  0  0  0
 83 94  1  0  0  0  0
 83192  1  0  0  0  0
 84193  1  0  0  0  0
 85 91  1  0  0  0  0
 85194  1  0  0  0  0
 85195  1  0  0  0  0
 86196  1  0  0  0  0
 86197  1  0  0  0  0
 86198  1  0  0  0  0
 87 90  1  0  0  0  0
 88 93  2  0  0  0  0
 88199  1  0  0  0  0
 89 93  1  0  0  0  0
 89200  1  0  0  0  0
 90 98  1  0  0  0  0
 90201  1  0  0  0  0
 91 95  1  0  0  0  0
 91202  1  0  0  0  0
 91203  1  0  0  0  0
 92 96  1  0  0  0  0
 92204  1  0  0  0  0
 92205  1  0  0  0  0
 95206  1  0  0  0  0
 95207  1  0  0  0  0
 96104  2  0  0  0  0
 97208  1  0  0  0  0
 97209  1  0  0  0  0
 97210  1  0  0  0  0
 98211  1  0  0  0  0
 98212  1  0  0  0  0
 98213  1  0  0  0  0
 99103  1  0  0  0  0
 99106  1  0  0  0  0
 99215  1  0  0  0  0
100216  1  0  0  0  0
100217  1  0  0  0  0
100218  1  0  0  0  0
102105  1  0  0  0  0
103107  1  0  0  0  0
103221  1  0  0  0  0
103222  1  0  0  0  0
104223  1  0  0  0  0
105109  1  0  0  0  0
105224  1  0  0  0  0
108111  1  0  0  0  0
108226  1  0  0  0  0
108227  1  0  0  0  0
109113  1  0  0  0  0
109228  1  0  0  0  0
109229  1  0  0  0  0
110230  1  0  0  0  0
111112  1  0  0  0  0
111235  1  0  0  0  0
111236  1  0  0  0  0
112114  1  0  0  0  0
112238  1  0  0  0  0
112239  1  0  0  0  0
113116  2  0  0  0  0
114118  1  0  0  0  0
114240  1  0  0  0  0
114241  1  0  0  0  0
115117  1  0  0  0  0
116243  1  0  0  0  0
117120  1  0  0  0  0
117244  1  0  0  0  0
117245  1  0  0  0  0
118121  1  0  0  0  0
118246  1  0  0  0  0
118247  1  0  0  0  0
119248  1  0  0  0  0
120249  1  0  0  0  0
120250  1  0  0  0  0
122124  1  0  0  0  0
122252  1  0  0  0  0
122253  1  0  0  0  0
123125  1  0  0  0  0
123254  1  0  0  0  0
123255  1  0  0  0  0
124256  1  0  0  0  0
124257  1  0  0  0  0
125258  1  0  0  0  0
125259  1  0  0  0  0
126128  1  0  0  0  0
126260  1  0  0  0  0
126261  1  0  0  0  0
127129  1  0  0  0  0
127262  1  0  0  0  0
127263  1  0  0  0  0
128264  1  0  0  0  0
128265  1  0  0  0  0
129266  1  0  0  0  0
129267  1  0  0  0  0
130132  1  0  0  0  0
130268  1  0  0  0  0
130269  1  0  0  0  0
131133  1  0  0  0  0
131270  1  0  0  0  0
131271  1  0  0  0  0
132272  1  0  0  0  0
132273  1  0  0  0  0
133274  1  0  0  0  0
133275  1  0  0  0  0
134136  1  0  0  0  0
134276  1  0  0  0  0
134277  1  0  0  0  0
135137  1  0  0  0  0
135278  1  0  0  0  0
135279  1  0  0  0  0
136280  1  0  0  0  0
136281  1  0  0  0  0
137282  1  0  0  0  0
137283  1  0  0  0  0
138139  1  0  0  0  0
138284  1  0  0  0  0
138285  1  0  0  0  0
139286  1  0  0  0  0
139287  1  0  0  0  0
140141  1  0  0  0  0
140288  1  0  0  0  0
140289  1  0  0  0  0
141290  1  0  0  0  0
141291  1  0  0  0  0
142143  1  0  0  0  0
142292  1  0  0  0  0
142293  1  0  0  0  0
143294  1  0  0  0  0
143295  1  0  0  0  0
144145  1  0  0  0  0
144296  1  0  0  0  0
144297  1  0  0  0  0
145298  1  0  0  0  0
145299  1  0  0  0  0
M  END
> <PUBCHEM_COMPOUND_CID>
90656849

> <PUBCHEM_COMPOUND_CANONICALIZED>
1

> <PUBCHEM_CACTVS_COMPLEXITY>
3780

> <PUBCHEM_CACTVS_HBOND_ACCEPTOR>
33

> <PUBCHEM_CACTVS_HBOND_DONOR>
14

> <PUBCHEM_CACTVS_ROTATABLE_BOND>
82

> <PUBCHEM_CACTVS_SUBSKEYS>
AAADcfB//gBAAAAAAAAAAAAAAAAAAWLFixYwYAAAAAAAAAAB9AAAHgQQCAAADSzl3ga/npfJlgioAzX3fACCiC21MrAJ2YG+/MiPbjbm/TuXcWpu9jP6+ae/2fKOIAADAAAIQABAAAYAABCAAAAAAAAAAA==

> <PUBCHEM_IUPAC_OPENEYE_NAME>
(2S)-2-[[(2S)-2-[[(2S)-1-[(2S)-2-[[(2S,3S)-2-[[(2S)-2-[[(2S)-2-[3-[2-[2-[2-[2-[2-[2-[2-[2-[2-[2-[2-[2-[6-[3-[3-[3-[[(2S)-1-allylpyrrolidin-2-yl]methylcarbamoyl]-4,5-dimethoxy-phenyl]propylsulfanyl]-2,5-dioxo-pyrrolidin-1-yl]hexanoylamino]ethoxy]ethoxy]ethoxy]ethoxy]ethoxy]ethoxy]ethoxy]ethoxy]ethoxy]ethoxy]ethoxy]ethoxy]propanoylamino]-3-(1H-imidazol-5-yl)propanoyl]amino]propanoyl]amino]-3-methyl-pentanoyl]amino]-3-(4-hydroxyphenyl)propanoyl]pyrrolidine-2-carbonyl]amino]-5-guanidino-pentanoyl]amino]-3-(1H-imidazol-5-yl)propanoic acid

> <PUBCHEM_IUPAC_CAS_NAME>
(2S)-2-[[(2S)-5-(diaminomethylideneamino)-2-[[[(2S)-1-[(2S)-2-[[(2S,3S)-2-[[(2S)-2-[[(2S)-2-[[3-[2-[2-[2-[2-[2-[2-[2-[2-[2-[2-[2-[2-[[6-[3-[3-[3,4-dimethoxy-5-[oxo-[[(2S)-1-prop-2-enyl-2-pyrrolidinyl]methylamino]methyl]phenyl]propylthio]-2,5-dioxo-1-pyrrolidinyl]-1-oxohexyl]amino]ethoxy]ethoxy]ethoxy]ethoxy]ethoxy]ethoxy]ethoxy]ethoxy]ethoxy]ethoxy]ethoxy]ethoxy]-1-oxopropyl]amino]-3-(1H-imidazol-5-yl)-1-oxopropyl]amino]-1-oxopropyl]amino]-3-methyl-1-oxopentyl]amino]-3-(4-hydroxyphenyl)-1-oxopropyl]-2-pyrrolidinyl]-oxomethyl]amino]-1-oxopentyl]amino]-3-(1H-imidazol-5-yl)propanoic acid

> <PUBCHEM_IUPAC_NAME_MARKUP>
(2<I>S</I>)-2-[[(2<I>S</I>)-5-(diaminomethylideneamino)-2-[[(2<I>S</I>)-1-[(2<I>S</I>)-2-[[(2<I>S</I>,3<I>S</I>)-2-[[(2<I>S</I>)-2-[[(2<I>S</I>)-2-[3-[2-[2-[2-[2-[2-[2-[2-[2-[2-[2-[2-[2-[6-[3-[3-[3,4-dimethoxy-5-[[(2<I>S</I>)-1-prop-2-enylpyrrolidin-2-yl]methylcarbamoyl]phenyl]propylsulfanyl]-2,5-dioxopyrrolidin-1-yl]hexanoylamino]ethoxy]ethoxy]ethoxy]ethoxy]ethoxy]ethoxy]ethoxy]ethoxy]ethoxy]ethoxy]ethoxy]ethoxy]propanoylamino]-3-(1<I>H</I>-imidazol-5-yl)propanoyl]amino]propanoyl]amino]-3-methylpentanoyl]amino]-3-(4-hydroxyphenyl)propanoyl]pyrrolidine-2-carbonyl]amino]pentanoyl]amino]-3-(1<I>H</I>-imidazol-5-yl)propanoic acid

> <PUBCHEM_IUPAC_NAME>
(2S)-2-[[(2S)-5-(diaminomethylideneamino)-2-[[(2S)-1-[(2S)-2-[[(2S,3S)-2-[[(2S)-2-[[(2S)-2-[3-[2-[2-[2-[2-[2-[2-[2-[2-[2-[2-[2-[2-[6-[3-[3-[3,4-dimethoxy-5-[[(2S)-1-prop-2-enylpyrrolidin-2-yl]methylcarbamoyl]phenyl]propylsulfanyl]-2,5-dioxopyrrolidin-1-yl]hexanoylamino]ethoxy]ethoxy]ethoxy]ethoxy]ethoxy]ethoxy]ethoxy]ethoxy]ethoxy]ethoxy]ethoxy]ethoxy]propanoylamino]-3-(1H-imidazol-5-yl)propanoyl]amino]propanoyl]amino]-3-methylpentanoyl]amino]-3-(4-hydroxyphenyl)propanoyl]pyrrolidine-2-carbonyl]amino]pentanoyl]amino]-3-(1H-imidazol-5-yl)propanoic acid

> <PUBCHEM_IUPAC_SYSTEMATIC_NAME>
(2S)-2-[[(2S)-5-[bis(azanyl)methylideneamino]-2-[[(2S)-1-[(2S)-2-[[(2S,3S)-2-[[(2S)-2-[[(2S)-2-[3-[2-[2-[2-[2-[2-[2-[2-[2-[2-[2-[2-[2-[6-[3-[3-[3,4-dimethoxy-5-[[(2S)-1-prop-2-enylpyrrolidin-2-yl]methylcarbamoyl]phenyl]propylsulfanyl]-2,5-bis(oxidanylidene)pyrrolidin-1-yl]hexanoylamino]ethoxy]ethoxy]ethoxy]ethoxy]ethoxy]ethoxy]ethoxy]ethoxy]ethoxy]ethoxy]ethoxy]ethoxy]propanoylamino]-3-(1H-imidazol-5-yl)propanoyl]amino]propanoyl]amino]-3-methyl-pentanoyl]amino]-3-(4-hydroxyphenyl)propanoyl]pyrrolidin-2-yl]carbonylamino]pentanoyl]amino]-3-(1H-imidazol-5-yl)propanoic acid

> <PUBCHEM_IUPAC_TRADITIONAL_NAME>
(2S)-2-[[(2S)-2-[[(2S)-1-[(2S)-2-[[(2S,3S)-2-[[(2S)-2-[[(2S)-2-[3-[2-[2-[2-[2-[2-[2-[2-[2-[2-[2-[2-[2-[6-[3-[3-[3-[[(2S)-1-allylpyrrolidin-2-yl]methylcarbamoyl]-4,5-dimethoxy-phenyl]propylthio]-2,5-diketo-pyrrolidino]hexanoylamino]ethoxy]ethoxy]ethoxy]ethoxy]ethoxy]ethoxy]ethoxy]ethoxy]ethoxy]ethoxy]ethoxy]ethoxy]propanoylamino]-3-(1H-imidazol-5-yl)propanoyl]amino]propanoyl]amino]-3-methyl-pentanoyl]amino]-3-(4-hydroxyphenyl)propanoyl]prolyl]amino]-5-guanidino-pentanoyl]amino]-3-(1H-imidazol-5-yl)propionic acid

> <PUBCHEM_IUPAC_INCHI>
InChI=1S/C98H154N18O28S/c1-7-28-114-29-13-17-74(114)65-105-90(122)76-57-71(59-82(131-5)88(76)132-6)16-15-56-145-83-62-86(120)116(96(83)128)30-11-9-10-20-84(118)103-27-33-134-35-37-136-39-41-138-43-45-140-47-49-142-51-53-144-55-54-143-52-50-141-48-46-139-44-42-137-40-38-135-36-34-133-32-25-85(119)109-78(60-72-63-101-66-106-72)92(124)108-69(4)89(121)113-87(68(3)8-2)94(126)111-79(58-70-21-23-75(117)24-22-70)95(127)115-31-14-19-81(115)93(125)110-77(18-12-26-104-98(99)100)91(123)112-80(97(129)130)61-73-64-102-67-107-73/h7,21-24,57,59,63-64,66-69,74,77-81,83,87,117H,1,8-20,25-56,58,60-62,65H2,2-6H3,(H,101,106)(H,102,107)(H,103,118)(H,105,122)(H,108,124)(H,109,119)(H,110,125)(H,111,126)(H,112,123)(H,113,121)(H,129,130)(H4,99,100,104)/t68-,69-,74-,77-,78-,79-,80-,81-,83?,87-/m0/s1

> <PUBCHEM_IUPAC_INCHIKEY>
RQXZLQIADGREAL-YSEBVQFVSA-N

> <PUBCHEM_XLOGP3_AA>
-2.1

> <PUBCHEM_EXACT_MASS>
2064.0934223

> <PUBCHEM_MOLECULAR_FORMULA>
C98H154N18O28S

> <PUBCHEM_MOLECULAR_WEIGHT>
2064.4

> <PUBCHEM_OPENEYE_CAN_SMILES>
CCC(C)C(C(=O)NC(CC1=CC=C(C=C1)O)C(=O)N2CCCC2C(=O)NC(CCCN=C(N)N)C(=O)NC(CC3=CN=CN3)C(=O)O)NC(=O)C(C)NC(=O)C(CC4=CN=CN4)NC(=O)CCOCCOCCOCCOCCOCCOCCOCCOCCOCCOCCOCCOCCNC(=O)CCCCCN5C(=O)CC(C5=O)SCCCC6=CC(=C(C(=C6)OC)OC)C(=O)NCC7CCCN7CC=C

> <PUBCHEM_OPENEYE_ISO_SMILES>
CC[C@H](C)[C@@H](C(=O)N[C@@H](CC1=CC=C(C=C1)O)C(=O)N2CCC[C@H]2C(=O)N[C@@H](CCCN=C(N)N)C(=O)N[C@@H](CC3=CN=CN3)C(=O)O)NC(=O)[C@H](C)NC(=O)[C@H](CC4=CN=CN4)NC(=O)CCOCCOCCOCCOCCOCCOCCOCCOCCOCCOCCOCCOCCNC(=O)CCCCCN5C(=O)CC(C5=O)SCCCC6=CC(=C(C(=C6)OC)OC)C(=O)NC[C@@H]7CCCN7CC=C

> <PUBCHEM_CACTVS_TPSA>
628

> <PUBCHEM_MONOISOTOPIC_WEIGHT>
2063.0900675

> <PUBCHEM_TOTAL_CHARGE>
0

> <PUBCHEM_HEAVY_ATOM_COUNT>
145

> <PUBCHEM_ATOM_DEF_STEREO_COUNT>
9

> <PUBCHEM_ATOM_UDEF_STEREO_COUNT>
1

> <PUBCHEM_BOND_DEF_STEREO_COUNT>
0

> <PUBCHEM_BOND_UDEF_STEREO_COUNT>
0

> <PUBCHEM_ISOTOPIC_ATOM_COUNT>
0

> <PUBCHEM_COMPONENT_COUNT>
1

> <PUBCHEM_CACTVS_TAUTO_COUNT>
-1

> <PUBCHEM_COORDINATE_TYPE>
1
5
255

> <PUBCHEM_BONDANNOTATIONS>
99  1  3
113  116  8
64  33  5
61  34  5
68  35  6
83  36  6
90  38  5
39  110  8
39  96  8
41  104  8
41  110  8
105  44  6
45  113  8
45  119  8
46  116  8
46  119  8
48  52  5
54  60  5
66  74  8
66  75  8
70  77  5
71  79  8
71  80  8
74  78  8
75  82  8
78  84  8
79  88  8
80  89  8
82  84  8
88  93  8
89  93  8
96  104  8

$$$$
