45268455
  -OEChem-09292322452D

 50 53  0     1  0  0  0  0  0999 V2000
    8.3780   -2.1562    0.0000 S   0  0  0  0  0  0  0  0  0  0  0  0
   12.2938   -1.3397    0.0000 F   0  0  0  0  0  0  0  0  0  0  0  0
    8.5822   -3.1352    0.0000 O   0  0  0  0  0  0  0  0  0  0  0  0
    8.1739   -1.1773    0.0000 O   0  0  0  0  0  0  0  0  0  0  0  0
    3.6613    3.0002    0.0000 O   0  0  0  0  0  0  0  0  0  0  0  0
    2.7953    1.5002    0.0000 O   0  0  0  0  0  0  0  0  0  0  0  0
    5.0274   -1.0386    0.0000 N   0  0  0  0  0  0  0  0  0  0  0  0
    7.3991   -2.3604    0.0000 N   0  0  3  0  0  0  0  0  0  0  0  0
    6.7328   -1.6146    0.0000 C   0  0  1  0  0  0  0  0  0  0  0  0
    5.7123   -1.8234    0.0000 C   0  0  0  0  0  0  0  0  0  0  0  0
    7.0547   -0.6240    0.0000 C   0  0  0  0  0  0  0  0  0  0  0  0
    5.3364   -0.0876    0.0000 C   0  0  0  0  0  0  0  0  0  0  0  0
    6.3518    0.1447    0.0000 C   0  0  0  0  0  0  0  0  0  0  0  0
    4.5274    0.5002    0.0000 C   0  0  0  0  0  0  0  0  0  0  0  0
    4.0274   -1.0386    0.0000 C   0  0  0  0  0  0  0  0  0  0  0  0
    3.7183   -0.0876    0.0000 C   0  0  0  0  0  0  0  0  0  0  0  0
    4.5274    1.5002    0.0000 C   0  0  0  0  0  0  0  0  0  0  0  0
    7.0864   -3.3102    0.0000 C   0  0  0  0  0  0  0  0  0  0  0  0
    3.3424   -1.8234    0.0000 C   0  0  0  0  0  0  0  0  0  0  0  0
    2.7029    0.1447    0.0000 C   0  0  0  0  0  0  0  0  0  0  0  0
    9.3570   -1.9521    0.0000 C   0  0  0  0  0  0  0  0  0  0  0  0
    2.3219   -1.6146    0.0000 C   0  0  0  0  0  0  0  0  0  0  0  0
    2.0000   -0.6240    0.0000 C   0  0  0  0  0  0  0  0  0  0  0  0
    3.6613    2.0002    0.0000 C   0  0  0  0  0  0  0  0  0  0  0  0
   10.0232   -2.6978    0.0000 C   0  0  0  0  0  0  0  0  0  0  0  0
    9.6697   -1.0022    0.0000 C   0  0  0  0  0  0  0  0  0  0  0  0
   11.0022   -2.4937    0.0000 C   0  0  0  0  0  0  0  0  0  0  0  0
   10.6486   -0.7981    0.0000 C   0  0  0  0  0  0  0  0  0  0  0  0
   11.3149   -1.5438    0.0000 C   0  0  0  0  0  0  0  0  0  0  0  0
    6.5378   -2.2032    0.0000 H   0  0  0  0  0  0  0  0  0  0  0  0
    5.1824   -2.1451    0.0000 H   0  0  0  0  0  0  0  0  0  0  0  0
    5.9387   -2.4006    0.0000 H   0  0  0  0  0  0  0  0  0  0  0  0
    7.6029   -0.9137    0.0000 H   0  0  0  0  0  0  0  0  0  0  0  0
    7.4339   -0.1335    0.0000 H   0  0  0  0  0  0  0  0  0  0  0  0
    6.8742    0.4786    0.0000 H   0  0  0  0  0  0  0  0  0  0  0  0
    6.1122    0.7165    0.0000 H   0  0  0  0  0  0  0  0  0  0  0  0
    5.1379    1.3926    0.0000 H   0  0  0  0  0  0  0  0  0  0  0  0
    4.7394    2.0828    0.0000 H   0  0  0  0  0  0  0  0  0  0  0  0
    6.4975   -3.1164    0.0000 H   0  0  0  0  0  0  0  0  0  0  0  0
    6.8926   -3.8991    0.0000 H   0  0  0  0  0  0  0  0  0  0  0  0
    7.6753   -3.5041    0.0000 H   0  0  0  0  0  0  0  0  0  0  0  0
    3.5408   -2.4108    0.0000 H   0  0  0  0  0  0  0  0  0  0  0  0
    2.5182    0.7365    0.0000 H   0  0  0  0  0  0  0  0  0  0  0  0
    1.9088   -2.0770    0.0000 H   0  0  0  0  0  0  0  0  0  0  0  0
    1.3940   -0.4928    0.0000 H   0  0  0  0  0  0  0  0  0  0  0  0
    9.8294   -3.2867    0.0000 H   0  0  0  0  0  0  0  0  0  0  0  0
    9.2566   -0.5399    0.0000 H   0  0  0  0  0  0  0  0  0  0  0  0
   11.4153   -2.9560    0.0000 H   0  0  0  0  0  0  0  0  0  0  0  0
   10.8425   -0.2092    0.0000 H   0  0  0  0  0  0  0  0  0  0  0  0
    3.1244    3.3102    0.0000 H   0  0  0  0  0  0  0  0  0  0  0  0
  1  3  2  0  0  0  0
  1  4  2  0  0  0  0
  1  8  1  0  0  0  0
  1 21  1  0  0  0  0
  2 29  1  0  0  0  0
  5 24  1  0  0  0  0
  5 50  1  0  0  0  0
  6 24  2  0  0  0  0
  7 10  1  0  0  0  0
  7 12  1  0  0  0  0
  7 15  1  0  0  0  0
  9  8  1  1  0  0  0
  8 18  1  0  0  0  0
  9 10  1  0  0  0  0
  9 11  1  0  0  0  0
  9 30  1  0  0  0  0
 10 31  1  0  0  0  0
 10 32  1  0  0  0  0
 11 13  1  0  0  0  0
 11 33  1  0  0  0  0
 11 34  1  0  0  0  0
 12 13  1  0  0  0  0
 12 14  2  0  0  0  0
 13 35  1  0  0  0  0
 13 36  1  0  0  0  0
 14 16  1  0  0  0  0
 14 17  1  0  0  0  0
 15 16  1  0  0  0  0
 15 19  2  0  0  0  0
 16 20  2  0  0  0  0
 17 24  1  0  0  0  0
 17 37  1  0  0  0  0
 17 38  1  0  0  0  0
 18 39  1  0  0  0  0
 18 40  1  0  0  0  0
 18 41  1  0  0  0  0
 19 22  1  0  0  0  0
 19 42  1  0  0  0  0
 20 23  1  0  0  0  0
 20 43  1  0  0  0  0
 21 25  2  0  0  0  0
 21 26  1  0  0  0  0
 22 23  2  0  0  0  0
 22 44  1  0  0  0  0
 23 45  1  0  0  0  0
 25 27  1  0  0  0  0
 25 46  1  0  0  0  0
 26 28  2  0  0  0  0
 26 47  1  0  0  0  0
 27 29  2  0  0  0  0
 27 48  1  0  0  0  0
 28 29  1  0  0  0  0
 28 49  1  0  0  0  0
M  END
> <PUBCHEM_COMPOUND_CID>
45268455

> <PUBCHEM_COMPOUND_CANONICALIZED>
1

> <PUBCHEM_CACTVS_COMPLEXITY>
704

> <PUBCHEM_CACTVS_HBOND_ACCEPTOR>
6

> <PUBCHEM_CACTVS_HBOND_DONOR>
1

> <PUBCHEM_CACTVS_ROTATABLE_BOND>
5

> <PUBCHEM_CACTVS_SUBSKEYS>
AAADceB7OQBAAAAAAAAAAAAAAAAAAWAAAAA8YIAAAAAAAFgB9AAAHwQASAAADCjB3gwyyfMMEgKoAyTyTHDCgDAhAiAI2Dk4ZJgIYPLAlZGUYAhkwAHIyAe82eOegAAAAAACAAAAAAAAAAQAAAAAAAAAAA==

> <PUBCHEM_IUPAC_OPENEYE_NAME>
2-[(7R)-7-[(4-fluorophenyl)sulfonyl-methyl-amino]-6,7,8,9-tetrahydropyrido[1,2-a]indol-10-yl]acetic acid

> <PUBCHEM_IUPAC_CAS_NAME>
2-[(7R)-7-[(4-fluorophenyl)sulfonyl-methylamino]-6,7,8,9-tetrahydropyrido[1,2-a]indol-10-yl]acetic acid

> <PUBCHEM_IUPAC_NAME_MARKUP>
2-[(7<I>R</I>)-7-[(4-fluorophenyl)sulfonyl-methylamino]-6,7,8,9-tetrahydropyrido[1,2-a]indol-10-yl]acetic acid

> <PUBCHEM_IUPAC_NAME>
2-[(7R)-7-[(4-fluorophenyl)sulfonyl-methylamino]-6,7,8,9-tetrahydropyrido[1,2-a]indol-10-yl]acetic acid

> <PUBCHEM_IUPAC_SYSTEMATIC_NAME>
2-[(7R)-7-[(4-fluorophenyl)sulfonyl-methyl-amino]-6,7,8,9-tetrahydropyrido[1,2-a]indol-10-yl]ethanoic acid

> <PUBCHEM_IUPAC_TRADITIONAL_NAME>
2-[(7R)-7-[(4-fluorophenyl)sulfonyl-methyl-amino]-6,7,8,9-tetrahydropyrid[1,2-a]indol-10-yl]acetic acid

> <PUBCHEM_IUPAC_INCHI>
InChI=1S/C21H21FN2O4S/c1-23(29(27,28)16-9-6-14(22)7-10-16)15-8-11-20-18(12-21(25)26)17-4-2-3-5-19(17)24(20)13-15/h2-7,9-10,15H,8,11-13H2,1H3,(H,25,26)/t15-/m1/s1

> <PUBCHEM_IUPAC_INCHIKEY>
JTCAGRAKUAAYDY-OAHLLOKOSA-N

> <PUBCHEM_XLOGP3_AA>
2.8

> <PUBCHEM_EXACT_MASS>
416.12060649

> <PUBCHEM_MOLECULAR_FORMULA>
C21H21FN2O4S

> <PUBCHEM_MOLECULAR_WEIGHT>
416.5

> <PUBCHEM_OPENEYE_CAN_SMILES>
CN(C1CCC2=C(C3=CC=CC=C3N2C1)CC(=O)O)S(=O)(=O)C4=CC=C(C=C4)F

> <PUBCHEM_OPENEYE_ISO_SMILES>
CN([C@@H]1CCC2=C(C3=CC=CC=C3N2C1)CC(=O)O)S(=O)(=O)C4=CC=C(C=C4)F

> <PUBCHEM_CACTVS_TPSA>
88

> <PUBCHEM_MONOISOTOPIC_WEIGHT>
416.12060649

> <PUBCHEM_TOTAL_CHARGE>
0

> <PUBCHEM_HEAVY_ATOM_COUNT>
29

> <PUBCHEM_ATOM_DEF_STEREO_COUNT>
1

> <PUBCHEM_ATOM_UDEF_STEREO_COUNT>
0

> <PUBCHEM_BOND_DEF_STEREO_COUNT>
0

> <PUBCHEM_BOND_UDEF_STEREO_COUNT>
0

> <PUBCHEM_ISOTOPIC_ATOM_COUNT>
0

> <PUBCHEM_COMPONENT_COUNT>
1

> <PUBCHEM_CACTVS_TAUTO_COUNT>
1

> <PUBCHEM_COORDINATE_TYPE>
1
5
255

> <PUBCHEM_BONDANNOTATIONS>
12  14  8
14  16  8
15  16  8
15  19  8
16  20  8
19  22  8
20  23  8
21  25  8
21  26  8
22  23  8
25  27  8
26  28  8
27  29  8
28  29  8
7  12  8
7  15  8
9  8  5

$$$$
