71508711
  -OEChem-09292322332D

 51 55  0     0  0  0  0  0  0999 V2000
    8.2083    3.1810    0.0000 N   0  0  0  0  0  0  0  0  0  0  0  0
    7.2764   -1.2800    0.0000 N   0  0  0  0  0  0  0  0  0  0  0  0
    8.2083   -4.1316    0.0000 N   0  0  0  0  0  0  0  0  0  0  0  0
    2.0000    0.5247    0.0000 N   0  0  0  0  0  0  0  0  0  0  0  0
    2.8660    2.0247    0.0000 N   0  0  0  0  0  0  0  0  0  0  0  0
    7.5870    1.2800    0.0000 C   0  0  0  0  0  0  0  0  0  0  0  0
    6.9192    2.0243    0.0000 C   0  0  0  0  0  0  0  0  0  0  0  0
    8.5655    1.4862    0.0000 C   0  0  0  0  0  0  0  0  0  0  0  0
    7.2764    0.3295    0.0000 C   0  0  0  0  0  0  0  0  0  0  0  0
    7.2298    2.9748    0.0000 C   0  0  0  0  0  0  0  0  0  0  0  0
    8.8762    2.4367    0.0000 C   0  0  0  0  0  0  0  0  0  0  0  0
    6.3301    0.0247    0.0000 C   0  0  0  0  0  0  0  0  0  0  0  0
    7.8600   -0.4753    0.0000 C   0  0  0  0  0  0  0  0  0  0  0  0
    6.3301   -0.9753    0.0000 C   0  0  0  0  0  0  0  0  0  0  0  0
    8.5190    4.1316    0.0000 C   0  0  0  0  0  0  0  0  0  0  0  0
    5.4641    0.5247    0.0000 C   0  0  0  0  0  0  0  0  0  0  0  0
    5.4641   -1.4753    0.0000 C   0  0  0  0  0  0  0  0  0  0  0  0
    7.5870   -2.2305    0.0000 C   0  0  0  0  0  0  0  0  0  0  0  0
    4.5981    0.0247    0.0000 C   0  0  0  0  0  0  0  0  0  0  0  0
    4.5981   -0.9753    0.0000 C   0  0  0  0  0  0  0  0  0  0  0  0
    3.7320    0.5247    0.0000 C   0  0  0  0  0  0  0  0  0  0  0  0
    8.5655   -2.4367    0.0000 C   0  0  0  0  0  0  0  0  0  0  0  0
    6.9192   -2.9748    0.0000 C   0  0  0  0  0  0  0  0  0  0  0  0
    8.8762   -3.3872    0.0000 C   0  0  0  0  0  0  0  0  0  0  0  0
    7.2298   -3.9253    0.0000 C   0  0  0  0  0  0  0  0  0  0  0  0
    2.8660    0.0247    0.0000 C   0  0  0  0  0  0  0  0  0  0  0  0
    3.7320    1.5247    0.0000 C   0  0  0  0  0  0  0  0  0  0  0  0
    2.0000    1.5247    0.0000 C   0  0  0  0  0  0  0  0  0  0  0  0
    6.9803    1.1521    0.0000 H   0  0  0  0  0  0  0  0  0  0  0  0
    6.3722    2.3163    0.0000 H   0  0  0  0  0  0  0  0  0  0  0  0
    6.5366    1.5364    0.0000 H   0  0  0  0  0  0  0  0  0  0  0  0
    8.5861    0.8666    0.0000 H   0  0  0  0  0  0  0  0  0  0  0  0
    9.1793    1.3989    0.0000 H   0  0  0  0  0  0  0  0  0  0  0  0
    7.2093    3.5945    0.0000 H   0  0  0  0  0  0  0  0  0  0  0  0
    6.6160    3.0622    0.0000 H   0  0  0  0  0  0  0  0  0  0  0  0
    9.4231    2.1447    0.0000 H   0  0  0  0  0  0  0  0  0  0  0  0
    9.2587    2.9246    0.0000 H   0  0  0  0  0  0  0  0  0  0  0  0
    8.4800   -0.4753    0.0000 H   0  0  0  0  0  0  0  0  0  0  0  0
    9.1083    3.9389    0.0000 H   0  0  0  0  0  0  0  0  0  0  0  0
    8.7116    4.7209    0.0000 H   0  0  0  0  0  0  0  0  0  0  0  0
    7.9297    4.3242    0.0000 H   0  0  0  0  0  0  0  0  0  0  0  0
    5.4641    1.1447    0.0000 H   0  0  0  0  0  0  0  0  0  0  0  0
    5.4641   -2.0953    0.0000 H   0  0  0  0  0  0  0  0  0  0  0  0
    4.0611   -1.2853    0.0000 H   0  0  0  0  0  0  0  0  0  0  0  0
    8.9796   -1.9753    0.0000 H   0  0  0  0  0  0  0  0  0  0  0  0
    6.3125   -2.8470    0.0000 H   0  0  0  0  0  0  0  0  0  0  0  0
    9.4828   -3.5151    0.0000 H   0  0  0  0  0  0  0  0  0  0  0  0
    6.8158   -4.3868    0.0000 H   0  0  0  0  0  0  0  0  0  0  0  0
    2.8660   -0.5953    0.0000 H   0  0  0  0  0  0  0  0  0  0  0  0
    4.2690    1.8347    0.0000 H   0  0  0  0  0  0  0  0  0  0  0  0
    1.4631    1.8347    0.0000 H   0  0  0  0  0  0  0  0  0  0  0  0
  1 10  1  0  0  0  0
  1 11  1  0  0  0  0
  1 15  1  0  0  0  0
  2 13  1  0  0  0  0
  2 14  1  0  0  0  0
  2 18  1  0  0  0  0
  3 24  2  0  0  0  0
  3 25  1  0  0  0  0
  4 26  2  0  0  0  0
  4 28  1  0  0  0  0
  5 27  1  0  0  0  0
  5 28  2  0  0  0  0
  6  7  1  0  0  0  0
  6  8  1  0  0  0  0
  6  9  1  0  0  0  0
  6 29  1  0  0  0  0
  7 10  1  0  0  0  0
  7 30  1  0  0  0  0
  7 31  1  0  0  0  0
  8 11  1  0  0  0  0
  8 32  1  0  0  0  0
  8 33  1  0  0  0  0
  9 12  1  0  0  0  0
  9 13  2  0  0  0  0
 10 34  1  0  0  0  0
 10 35  1  0  0  0  0
 11 36  1  0  0  0  0
 11 37  1  0  0  0  0
 12 14  2  0  0  0  0
 12 16  1  0  0  0  0
 13 38  1  0  0  0  0
 14 17  1  0  0  0  0
 15 39  1  0  0  0  0
 15 40  1  0  0  0  0
 15 41  1  0  0  0  0
 16 19  2  0  0  0  0
 16 42  1  0  0  0  0
 17 20  2  0  0  0  0
 17 43  1  0  0  0  0
 18 22  2  0  0  0  0
 18 23  1  0  0  0  0
 19 20  1  0  0  0  0
 19 21  1  0  0  0  0
 20 44  1  0  0  0  0
 21 26  1  0  0  0  0
 21 27  2  0  0  0  0
 22 24  1  0  0  0  0
 22 45  1  0  0  0  0
 23 25  2  0  0  0  0
 23 46  1  0  0  0  0
 24 47  1  0  0  0  0
 25 48  1  0  0  0  0
 26 49  1  0  0  0  0
 27 50  1  0  0  0  0
 28 51  1  0  0  0  0
M  END
> <PUBCHEM_COMPOUND_CID>
71508711

> <PUBCHEM_COMPOUND_CANONICALIZED>
1

> <PUBCHEM_CACTVS_COMPLEXITY>
493

> <PUBCHEM_CACTVS_HBOND_ACCEPTOR>
4

> <PUBCHEM_CACTVS_HBOND_DONOR>
0

> <PUBCHEM_CACTVS_ROTATABLE_BOND>
3

> <PUBCHEM_CACTVS_SUBSKEYS>
AAADceB7gAAAAAAAAAAAAAAAAAAAAWAAAAA8WLEAAAAAAFgB/gAAHAAAAAAADQjBHgQ/0PcMEACgAzRnZACCgCkxAqAJ2CA4ZJiIKOLA2dGEJAhogALIyCcQgMAOiAACAAACAAAQAAQAAAQAAAAAAAAAAA==

> <PUBCHEM_IUPAC_OPENEYE_NAME>
3-(1-methyl-4-piperidyl)-1-(4-pyridyl)-5-pyrimidin-5-yl-indole

> <PUBCHEM_IUPAC_CAS_NAME>
3-(1-methyl-4-piperidinyl)-1-pyridin-4-yl-5-(5-pyrimidinyl)indole

> <PUBCHEM_IUPAC_NAME_MARKUP>
3-(1-methylpiperidin-4-yl)-1-pyridin-4-yl-5-pyrimidin-5-ylindole

> <PUBCHEM_IUPAC_NAME>
3-(1-methylpiperidin-4-yl)-1-pyridin-4-yl-5-pyrimidin-5-ylindole

> <PUBCHEM_IUPAC_SYSTEMATIC_NAME>
3-(1-methylpiperidin-4-yl)-1-pyridin-4-yl-5-pyrimidin-5-yl-indole

> <PUBCHEM_IUPAC_TRADITIONAL_NAME>
3-(1-methyl-4-piperidyl)-1-(4-pyridyl)-5-(5-pyrimidyl)indole

> <PUBCHEM_IUPAC_INCHI>
InChI=1S/C23H23N5/c1-27-10-6-17(7-11-27)22-15-28(20-4-8-24-9-5-20)23-3-2-18(12-21(22)23)19-13-25-16-26-14-19/h2-5,8-9,12-17H,6-7,10-11H2,1H3

> <PUBCHEM_IUPAC_INCHIKEY>
OMRFHGXPJWNBFO-UHFFFAOYSA-N

> <PUBCHEM_XLOGP3_AA>
3.1

> <PUBCHEM_EXACT_MASS>
369.19534575

> <PUBCHEM_MOLECULAR_FORMULA>
C23H23N5

> <PUBCHEM_MOLECULAR_WEIGHT>
369.5

> <PUBCHEM_OPENEYE_CAN_SMILES>
CN1CCC(CC1)C2=CN(C3=C2C=C(C=C3)C4=CN=CN=C4)C5=CC=NC=C5

> <PUBCHEM_OPENEYE_ISO_SMILES>
CN1CCC(CC1)C2=CN(C3=C2C=C(C=C3)C4=CN=CN=C4)C5=CC=NC=C5

> <PUBCHEM_CACTVS_TPSA>
46.8

> <PUBCHEM_MONOISOTOPIC_WEIGHT>
369.19534575

> <PUBCHEM_TOTAL_CHARGE>
0

> <PUBCHEM_HEAVY_ATOM_COUNT>
28

> <PUBCHEM_ATOM_DEF_STEREO_COUNT>
0

> <PUBCHEM_ATOM_UDEF_STEREO_COUNT>
0

> <PUBCHEM_BOND_DEF_STEREO_COUNT>
0

> <PUBCHEM_BOND_UDEF_STEREO_COUNT>
0

> <PUBCHEM_ISOTOPIC_ATOM_COUNT>
0

> <PUBCHEM_COMPONENT_COUNT>
1

> <PUBCHEM_CACTVS_TAUTO_COUNT>
-1

> <PUBCHEM_COORDINATE_TYPE>
1
5
255

> <PUBCHEM_BONDANNOTATIONS>
12  14  8
12  16  8
14  17  8
16  19  8
17  20  8
18  22  8
18  23  8
19  20  8
2  13  8
2  14  8
21  26  8
21  27  8
22  24  8
23  25  8
3  24  8
3  25  8
4  26  8
4  28  8
5  27  8
5  28  8
9  12  8
9  13  8

$$$$
