168291906
  -OEChem-09292322452D

 65 69  0     0  0  0  0  0  0999 V2000
    9.5802    5.5024    0.0000 Cl  0  0  0  0  0  0  0  0  0  0  0  0
    2.7696   -2.7524    0.0000 O   0  0  0  0  0  0  0  0  0  0  0  0
    2.9061   -4.5047    0.0000 N   0  0  0  0  0  0  0  0  0  0  0  0
    5.3051    2.3842    0.0000 N   0  0  0  0  0  0  0  0  0  0  0  0
    4.3009   -3.6151    0.0000 N   0  0  0  0  0  0  0  0  0  0  0  0
    6.4461    4.0268    0.0000 N   0  0  0  0  0  0  0  0  0  0  0  0
    3.8000   -5.0394    0.0000 C   0  0  0  0  0  0  0  0  0  0  0  0
    4.6660   -4.5394    0.0000 C   0  0  0  0  0  0  0  0  0  0  0  0
    2.0000   -5.0186    0.0000 C   0  0  0  0  0  0  0  0  0  0  0  0
    4.7345    1.5629    0.0000 C   0  0  0  0  0  0  0  0  0  0  0  0
    6.3016    2.3008    0.0000 C   0  0  0  0  0  0  0  0  0  0  0  0
    4.8791    3.2890    0.0000 C   0  0  0  0  0  0  0  0  0  0  0  0
    3.8000   -6.0394    0.0000 C   0  0  0  0  0  0  0  0  0  0  0  0
    2.0000   -6.0602    0.0000 C   0  0  0  0  0  0  0  0  0  0  0  0
    4.8714   -2.7938    0.0000 C   0  0  0  0  0  0  0  0  0  0  0  0
    2.9061   -6.5741    0.0000 C   0  0  0  0  0  0  0  0  0  0  0  0
    5.1605    0.6582    0.0000 C   0  0  0  0  0  0  0  0  0  0  0  0
    6.8721    3.1221    0.0000 C   0  0  0  0  0  0  0  0  0  0  0  0
    5.4496    4.1102    0.0000 C   0  0  0  0  0  0  0  0  0  0  0  0
    4.4455   -1.8891    0.0000 C   0  0  0  0  0  0  0  0  0  0  0  0
    4.5900   -0.1631    0.0000 C   0  0  0  0  0  0  0  0  0  0  0  0
    5.0160   -1.0678    0.0000 C   0  0  0  0  0  0  0  0  0  0  0  0
    3.3073   -3.5955    0.0000 C   0  0  0  0  0  0  0  0  0  0  0  0
    5.5321   -5.0394    0.0000 C   0  0  0  0  0  0  0  0  0  0  0  0
    4.6660   -6.5394    0.0000 C   0  0  0  0  0  0  0  0  0  0  0  0
    7.0166    4.8481    0.0000 C   0  0  0  0  0  0  0  0  0  0  0  0
    5.5321   -6.0394    0.0000 C   0  0  0  0  0  0  0  0  0  0  0  0
    8.0131    4.7646    0.0000 C   0  0  0  0  0  0  0  0  0  0  0  0
    6.5906    5.7528    0.0000 C   0  0  0  0  0  0  0  0  0  0  0  0
    8.5837    5.5859    0.0000 C   0  0  0  0  0  0  0  0  0  0  0  0
    7.1612    6.5741    0.0000 C   0  0  0  0  0  0  0  0  0  0  0  0
    8.1577    6.4906    0.0000 C   0  0  0  0  0  0  0  0  0  0  0  0
    1.7909   -4.4349    0.0000 H   0  0  0  0  0  0  0  0  0  0  0  0
    1.3891   -5.1247    0.0000 H   0  0  0  0  0  0  0  0  0  0  0  0
    4.2945    1.9997    0.0000 H   0  0  0  0  0  0  0  0  0  0  0  0
    4.2280    1.2054    0.0000 H   0  0  0  0  0  0  0  0  0  0  0  0
    6.1433    1.7013    0.0000 H   0  0  0  0  0  0  0  0  0  0  0  0
    6.8644    2.0408    0.0000 H   0  0  0  0  0  0  0  0  0  0  0  0
    4.4390    3.7257    0.0000 H   0  0  0  0  0  0  0  0  0  0  0  0
    4.3725    2.9314    0.0000 H   0  0  0  0  0  0  0  0  0  0  0  0
    1.3891   -5.9541    0.0000 H   0  0  0  0  0  0  0  0  0  0  0  0
    1.7909   -6.6439    0.0000 H   0  0  0  0  0  0  0  0  0  0  0  0
    5.3115   -3.2306    0.0000 H   0  0  0  0  0  0  0  0  0  0  0  0
    5.3780   -2.4363    0.0000 H   0  0  0  0  0  0  0  0  0  0  0  0
    2.5124   -7.0531    0.0000 H   0  0  0  0  0  0  0  0  0  0  0  0
    3.3107   -7.0439    0.0000 H   0  0  0  0  0  0  0  0  0  0  0  0
    5.6006    0.2214    0.0000 H   0  0  0  0  0  0  0  0  0  0  0  0
    5.6671    1.0157    0.0000 H   0  0  0  0  0  0  0  0  0  0  0  0
    7.3121    2.6853    0.0000 H   0  0  0  0  0  0  0  0  0  0  0  0
    7.3786    3.4796    0.0000 H   0  0  0  0  0  0  0  0  0  0  0  0
    5.6078    4.7097    0.0000 H   0  0  0  0  0  0  0  0  0  0  0  0
    4.8867    4.3702    0.0000 H   0  0  0  0  0  0  0  0  0  0  0  0
    4.0054   -1.4523    0.0000 H   0  0  0  0  0  0  0  0  0  0  0  0
    3.9389   -2.2466    0.0000 H   0  0  0  0  0  0  0  0  0  0  0  0
    4.1500    0.2737    0.0000 H   0  0  0  0  0  0  0  0  0  0  0  0
    4.0834   -0.5206    0.0000 H   0  0  0  0  0  0  0  0  0  0  0  0
    5.4560   -1.5046    0.0000 H   0  0  0  0  0  0  0  0  0  0  0  0
    5.5225   -0.7103    0.0000 H   0  0  0  0  0  0  0  0  0  0  0  0
    6.0690   -4.7294    0.0000 H   0  0  0  0  0  0  0  0  0  0  0  0
    4.6660   -7.1594    0.0000 H   0  0  0  0  0  0  0  0  0  0  0  0
    6.0690   -6.3494    0.0000 H   0  0  0  0  0  0  0  0  0  0  0  0
    8.2773    4.2037    0.0000 H   0  0  0  0  0  0  0  0  0  0  0  0
    5.9728    5.8045    0.0000 H   0  0  0  0  0  0  0  0  0  0  0  0
    6.8971    7.1350    0.0000 H   0  0  0  0  0  0  0  0  0  0  0  0
    8.5114    6.9998    0.0000 H   0  0  0  0  0  0  0  0  0  0  0  0
  1 30  1  0  0  0  0
  2 23  2  0  0  0  0
  3  7  1  0  0  0  0
  3  9  1  0  0  0  0
  3 23  1  0  0  0  0
  4 10  1  0  0  0  0
  4 11  1  0  0  0  0
  4 12  1  0  0  0  0
  5  8  1  0  0  0  0
  5 15  1  0  0  0  0
  5 23  1  0  0  0  0
  6 18  1  0  0  0  0
  6 19  1  0  0  0  0
  6 26  1  0  0  0  0
  7  8  1  0  0  0  0
  7 13  2  0  0  0  0
  8 24  2  0  0  0  0
  9 14  1  0  0  0  0
  9 33  1  0  0  0  0
  9 34  1  0  0  0  0
 10 17  1  0  0  0  0
 10 35  1  0  0  0  0
 10 36  1  0  0  0  0
 11 18  1  0  0  0  0
 11 37  1  0  0  0  0
 11 38  1  0  0  0  0
 12 19  1  0  0  0  0
 12 39  1  0  0  0  0
 12 40  1  0  0  0  0
 13 16  1  0  0  0  0
 13 25  1  0  0  0  0
 14 16  1  0  0  0  0
 14 41  1  0  0  0  0
 14 42  1  0  0  0  0
 15 20  1  0  0  0  0
 15 43  1  0  0  0  0
 15 44  1  0  0  0  0
 16 45  1  0  0  0  0
 16 46  1  0  0  0  0
 17 21  1  0  0  0  0
 17 47  1  0  0  0  0
 17 48  1  0  0  0  0
 18 49  1  0  0  0  0
 18 50  1  0  0  0  0
 19 51  1  0  0  0  0
 19 52  1  0  0  0  0
 20 22  1  0  0  0  0
 20 53  1  0  0  0  0
 20 54  1  0  0  0  0
 21 22  1  0  0  0  0
 21 55  1  0  0  0  0
 21 56  1  0  0  0  0
 22 57  1  0  0  0  0
 22 58  1  0  0  0  0
 24 27  1  0  0  0  0
 24 59  1  0  0  0  0
 25 27  2  0  0  0  0
 25 60  1  0  0  0  0
 26 28  2  0  0  0  0
 26 29  1  0  0  0  0
 27 61  1  0  0  0  0
 28 30  1  0  0  0  0
 28 62  1  0  0  0  0
 29 31  2  0  0  0  0
 29 63  1  0  0  0  0
 30 32  2  0  0  0  0
 31 32  1  0  0  0  0
 31 64  1  0  0  0  0
 32 65  1  0  0  0  0
M  END
> <PUBCHEM_COMPOUND_CID>
168291906

> <PUBCHEM_COMPOUND_CANONICALIZED>
1

> <PUBCHEM_CACTVS_COMPLEXITY>
625

> <PUBCHEM_CACTVS_HBOND_ACCEPTOR>
3

> <PUBCHEM_CACTVS_HBOND_DONOR>
0

> <PUBCHEM_CACTVS_ROTATABLE_BOND>
8

> <PUBCHEM_CACTVS_SUBSKEYS>
AAADcfB7oAAEAAAAAAAAAAAAAAAAAWAAAAA8eIEAAAAAAFixQAAAHgIAAAAADArBGCQxwIMAAACIAiRCUACCAAAhBwAIiAAIdoiIYCLBk5GUIAhohgLIyCcQgIAOAAAAQAICACAAAACABAQAQAAAAAAAAA==

> <PUBCHEM_IUPAC_OPENEYE_NAME>
3-[6-[4-(3-chlorophenyl)piperazin-1-yl]hexyl]-1,3-diazatricyclo[6.3.1.04,12]dodeca-4,6,8(12)-trien-2-one

> <PUBCHEM_IUPAC_CAS_NAME>
3-[6-[4-(3-chlorophenyl)-1-piperazinyl]hexyl]-1,3-diazatricyclo[6.3.1.04,12]dodeca-4,6,8(12)-trien-2-one

> <PUBCHEM_IUPAC_NAME_MARKUP>
3-[6-[4-(3-chlorophenyl)piperazin-1-yl]hexyl]-1,3-diazatricyclo[6.3.1.0<SUP>4,12</SUP>]dodeca-4,6,8(12)-trien-2-one

> <PUBCHEM_IUPAC_NAME>
3-[6-[4-(3-chlorophenyl)piperazin-1-yl]hexyl]-1,3-diazatricyclo[6.3.1.04,12]dodeca-4,6,8(12)-trien-2-one

> <PUBCHEM_IUPAC_SYSTEMATIC_NAME>
3-[6-[4-(3-chlorophenyl)piperazin-1-yl]hexyl]-1,3-diazatricyclo[6.3.1.04,12]dodeca-4,6,8(12)-trien-2-one

> <PUBCHEM_IUPAC_TRADITIONAL_NAME>
3-[6-[4-(3-chlorophenyl)piperazino]hexyl]-1,3-diazatricyclo[6.3.1.04,12]dodeca-4,6,8(12)-trien-2-one

> <PUBCHEM_IUPAC_INCHI>
InChI=1S/C26H33ClN4O/c27-22-10-6-11-23(20-22)29-18-16-28(17-19-29)13-3-1-2-4-14-30-24-12-5-8-21-9-7-15-31(25(21)24)26(30)32/h5-6,8,10-12,20H,1-4,7,9,13-19H2

> <PUBCHEM_IUPAC_INCHIKEY>
GHLSRSRUPDWWMF-UHFFFAOYSA-N

> <PUBCHEM_XLOGP3_AA>
5

> <PUBCHEM_EXACT_MASS>
452.2342894

> <PUBCHEM_MOLECULAR_FORMULA>
C26H33ClN4O

> <PUBCHEM_MOLECULAR_WEIGHT>
453.0

> <PUBCHEM_OPENEYE_CAN_SMILES>
C1CC2=C3C(=CC=C2)N(C(=O)N3C1)CCCCCCN4CCN(CC4)C5=CC(=CC=C5)Cl

> <PUBCHEM_OPENEYE_ISO_SMILES>
C1CC2=C3C(=CC=C2)N(C(=O)N3C1)CCCCCCN4CCN(CC4)C5=CC(=CC=C5)Cl

> <PUBCHEM_CACTVS_TPSA>
30

> <PUBCHEM_MONOISOTOPIC_WEIGHT>
452.2342894

> <PUBCHEM_TOTAL_CHARGE>
0

> <PUBCHEM_HEAVY_ATOM_COUNT>
32

> <PUBCHEM_ATOM_DEF_STEREO_COUNT>
0

> <PUBCHEM_ATOM_UDEF_STEREO_COUNT>
0

> <PUBCHEM_BOND_DEF_STEREO_COUNT>
0

> <PUBCHEM_BOND_UDEF_STEREO_COUNT>
0

> <PUBCHEM_ISOTOPIC_ATOM_COUNT>
0

> <PUBCHEM_COMPONENT_COUNT>
1

> <PUBCHEM_CACTVS_TAUTO_COUNT>
-1

> <PUBCHEM_COORDINATE_TYPE>
1
5
255

> <PUBCHEM_BONDANNOTATIONS>
13  25  8
24  27  8
25  27  8
26  28  8
26  29  8
28  30  8
29  31  8
3  23  8
3  7  8
30  32  8
31  32  8
5  23  8
5  8  8
7  13  8
7  8  8
8  24  8

$$$$
