156022132
  -OEChem-09292322422D

 49 52  0     1  0  0  0  0  0999 V2000
    5.1804    1.0193    0.0000 O   0  0  0  0  0  0  0  0  0  0  0  0
    6.9464    2.0571    0.0000 O   0  0  0  0  0  0  0  0  0  0  0  0
    7.7925   -2.5091    0.0000 N   0  0  3  0  0  0  0  0  0  0  0  0
    2.5381   -0.4880    0.0000 N   0  0  0  0  0  0  0  0  0  0  0  0
    6.9343   -2.0122    0.0000 C   0  0  3  0  0  0  0  0  0  0  0  0
    6.9343   -1.0122    0.0000 C   0  0  0  0  0  0  0  0  0  0  0  0
    6.0682   -2.5122    0.0000 C   0  0  0  0  0  0  0  0  0  0  0  0
    7.8443   -0.5053    0.0000 C   0  0  0  0  0  0  0  0  0  0  0  0
    8.6580   -2.0249    0.0000 C   0  0  0  0  0  0  0  0  0  0  0  0
    6.0682   -0.5122    0.0000 C   0  0  0  0  0  0  0  0  0  0  0  0
    8.6836   -1.0336    0.0000 C   0  0  0  0  0  0  0  0  0  0  0  0
    5.2022   -2.0122    0.0000 C   0  0  0  0  0  0  0  0  0  0  0  0
    5.2022   -1.0122    0.0000 C   0  0  0  0  0  0  0  0  0  0  0  0
    6.0522    0.5293    0.0000 C   0  0  0  0  0  0  0  0  0  0  0  0
    7.8523    0.5363    0.0000 C   0  0  0  0  0  0  0  0  0  0  0  0
    7.7851   -3.5091    0.0000 C   0  0  0  0  0  0  0  0  0  0  0  0
    6.9502    1.0571    0.0000 C   0  0  0  0  0  0  0  0  0  0  0  0
    4.3083   -2.5468    0.0000 C   0  0  0  0  0  0  0  0  0  0  0  0
    4.3083   -0.4775    0.0000 C   0  0  0  0  0  0  0  0  0  0  0  0
    3.4022   -0.9914    0.0000 C   0  0  0  0  0  0  0  0  0  0  0  0
    3.4022   -2.0330    0.0000 C   0  0  0  0  0  0  0  0  0  0  0  0
    5.1689    2.0192    0.0000 C   0  0  0  0  0  0  0  0  0  0  0  0
    7.8105    2.5604    0.0000 C   0  0  0  0  0  0  0  0  0  0  0  0
    4.2971    2.5092    0.0000 C   0  0  0  0  0  0  0  0  0  0  0  0
    4.2856    3.5091    0.0000 C   0  0  0  0  0  0  0  0  0  0  0  0
    6.9339   -2.6322    0.0000 H   0  0  0  0  0  0  0  0  0  0  0  0
    5.6697   -2.9871    0.0000 H   0  0  0  0  0  0  0  0  0  0  0  0
    6.4668   -2.9871    0.0000 H   0  0  0  0  0  0  0  0  0  0  0  0
    8.8597   -2.6112    0.0000 H   0  0  0  0  0  0  0  0  0  0  0  0
    9.2708   -1.9306    0.0000 H   0  0  0  0  0  0  0  0  0  0  0  0
    9.2907   -1.1595    0.0000 H   0  0  0  0  0  0  0  0  0  0  0  0
    8.9154   -0.4585    0.0000 H   0  0  0  0  0  0  0  0  0  0  0  0
    8.3904    0.8442    0.0000 H   0  0  0  0  0  0  0  0  0  0  0  0
    7.1651   -3.5045    0.0000 H   0  0  0  0  0  0  0  0  0  0  0  0
    7.7805   -4.1291    0.0000 H   0  0  0  0  0  0  0  0  0  0  0  0
    8.4051   -3.5137    0.0000 H   0  0  0  0  0  0  0  0  0  0  0  0
    4.3154   -3.1668    0.0000 H   0  0  0  0  0  0  0  0  0  0  0  0
    4.3154    0.1424    0.0000 H   0  0  0  0  0  0  0  0  0  0  0  0
    2.8665   -2.3451    0.0000 H   0  0  0  0  0  0  0  0  0  0  0  0
    5.7807    1.9186    0.0000 H   0  0  0  0  0  0  0  0  0  0  0  0
    5.3742    2.6042    0.0000 H   0  0  0  0  0  0  0  0  0  0  0  0
    2.0000   -0.7960    0.0000 H   0  0  0  0  0  0  0  0  0  0  0  0
    2.5405    0.1320    0.0000 H   0  0  0  0  0  0  0  0  0  0  0  0
    8.1225    2.0247    0.0000 H   0  0  0  0  0  0  0  0  0  0  0  0
    8.3462    2.8725    0.0000 H   0  0  0  0  0  0  0  0  0  0  0  0
    7.4984    3.0961    0.0000 H   0  0  0  0  0  0  0  0  0  0  0  0
    3.7638    2.1930    0.0000 H   0  0  0  0  0  0  0  0  0  0  0  0
    4.8189    3.8253    0.0000 H   0  0  0  0  0  0  0  0  0  0  0  0
    3.7451    3.8129    0.0000 H   0  0  0  0  0  0  0  0  0  0  0  0
  1 14  1  0  0  0  0
  1 22  1  0  0  0  0
  2 17  1  0  0  0  0
  2 23  1  0  0  0  0
  3  5  1  0  0  0  0
  3  9  1  0  0  0  0
  3 16  1  0  0  0  0
  4 20  1  0  0  0  0
  4 42  1  0  0  0  0
  4 43  1  0  0  0  0
  5  6  1  0  0  0  0
  5  7  1  0  0  0  0
  5 26  1  0  0  0  0
  6  8  1  0  0  0  0
  6 10  2  0  0  0  0
  7 12  1  0  0  0  0
  7 27  1  0  0  0  0
  7 28  1  0  0  0  0
  8 11  1  0  0  0  0
  8 15  2  0  0  0  0
  9 11  1  0  0  0  0
  9 29  1  0  0  0  0
  9 30  1  0  0  0  0
 10 13  1  0  0  0  0
 10 14  1  0  0  0  0
 11 31  1  0  0  0  0
 11 32  1  0  0  0  0
 12 13  2  0  0  0  0
 12 18  1  0  0  0  0
 13 19  1  0  0  0  0
 14 17  2  0  0  0  0
 15 17  1  0  0  0  0
 15 33  1  0  0  0  0
 16 34  1  0  0  0  0
 16 35  1  0  0  0  0
 16 36  1  0  0  0  0
 18 21  2  0  0  0  0
 18 37  1  0  0  0  0
 19 20  2  0  0  0  0
 19 38  1  0  0  0  0
 20 21  1  0  0  0  0
 21 39  1  0  0  0  0
 22 24  1  0  0  0  0
 22 40  1  0  0  0  0
 22 41  1  0  0  0  0
 23 44  1  0  0  0  0
 23 45  1  0  0  0  0
 23 46  1  0  0  0  0
 24 25  2  0  0  0  0
 24 47  1  0  0  0  0
 25 48  1  0  0  0  0
 25 49  1  0  0  0  0
M  END
> <PUBCHEM_COMPOUND_CID>
156022132

> <PUBCHEM_COMPOUND_CANONICALIZED>
1

> <PUBCHEM_CACTVS_COMPLEXITY>
485

> <PUBCHEM_CACTVS_HBOND_ACCEPTOR>
4

> <PUBCHEM_CACTVS_HBOND_DONOR>
1

> <PUBCHEM_CACTVS_ROTATABLE_BOND>
4

> <PUBCHEM_CACTVS_SUBSKEYS>
AAADceB7MAAAAAAAAAAAAAAAAAAAAAAAAAA8YMEAAAAAAADxQAAAHgAQAAAADCzhmAYyxoNABACAAiRCQACCCAAgIgAIiAAO7IgNJiKEsZuGOCrk0BGK6Aew0PMOqAADQAAYQADQAAaAADSAAAAAAAAAAA==

> <PUBCHEM_IUPAC_OPENEYE_NAME>
1-allyloxy-2-methoxy-6-methyl-5,6,6a,7-tetrahydro-4H-dibenzo[de,g]quinolin-10-amine

> <PUBCHEM_IUPAC_CAS_NAME>
2-methoxy-6-methyl-1-prop-2-enoxy-5,6,6a,7-tetrahydro-4H-dibenzo[de,g]quinolin-10-amine

> <PUBCHEM_IUPAC_NAME_MARKUP>
2-methoxy-6-methyl-1-prop-2-enoxy-5,6,6<I>a</I>,7-tetrahydro-4<I>H</I>-dibenzo[de,g]quinolin-10-amine

> <PUBCHEM_IUPAC_NAME>
2-methoxy-6-methyl-1-prop-2-enoxy-5,6,6a,7-tetrahydro-4H-dibenzo[de,g]quinolin-10-amine

> <PUBCHEM_IUPAC_SYSTEMATIC_NAME>
2-methoxy-6-methyl-1-prop-2-enoxy-5,6,6a,7-tetrahydro-4H-dibenzo[de,g]quinolin-10-amine

> <PUBCHEM_IUPAC_TRADITIONAL_NAME>
(1-allyloxy-2-methoxy-6-methyl-5,6,6a,7-tetrahydro-4H-dibenzo[de,g]quinolin-10-yl)amine

> <PUBCHEM_IUPAC_INCHI>
InChI=1S/C21H24N2O2/c1-4-9-25-21-18(24-3)11-14-7-8-23(2)17-10-13-5-6-15(22)12-16(13)20(21)19(14)17/h4-6,11-12,17H,1,7-10,22H2,2-3H3

> <PUBCHEM_IUPAC_INCHIKEY>
WVHMHWPHKVTXSC-UHFFFAOYSA-N

> <PUBCHEM_XLOGP3_AA>
3.4

> <PUBCHEM_EXACT_MASS>
336.183778013

> <PUBCHEM_MOLECULAR_FORMULA>
C21H24N2O2

> <PUBCHEM_MOLECULAR_WEIGHT>
336.4

> <PUBCHEM_OPENEYE_CAN_SMILES>
CN1CCC2=CC(=C(C3=C2C1CC4=C3C=C(C=C4)N)OCC=C)OC

> <PUBCHEM_OPENEYE_ISO_SMILES>
CN1CCC2=CC(=C(C3=C2C1CC4=C3C=C(C=C4)N)OCC=C)OC

> <PUBCHEM_CACTVS_TPSA>
47.7

> <PUBCHEM_MONOISOTOPIC_WEIGHT>
336.183778013

> <PUBCHEM_TOTAL_CHARGE>
0

> <PUBCHEM_HEAVY_ATOM_COUNT>
25

> <PUBCHEM_ATOM_DEF_STEREO_COUNT>
0

> <PUBCHEM_ATOM_UDEF_STEREO_COUNT>
1

> <PUBCHEM_BOND_DEF_STEREO_COUNT>
0

> <PUBCHEM_BOND_UDEF_STEREO_COUNT>
0

> <PUBCHEM_ISOTOPIC_ATOM_COUNT>
0

> <PUBCHEM_COMPONENT_COUNT>
1

> <PUBCHEM_CACTVS_TAUTO_COUNT>
-1

> <PUBCHEM_COORDINATE_TYPE>
1
5
255

> <PUBCHEM_BONDANNOTATIONS>
10  14  8
12  13  8
12  18  8
13  19  8
14  17  8
15  17  8
18  21  8
19  20  8
20  21  8
5  7  3
6  10  8
6  8  8
8  15  8

$$$$
