134151980
  -OEChem-09292322382D

 88 92  0     0  0  0  0  0  0999 V2000
   12.3923    8.7500    0.0000 O   0  0  0  0  0  0  0  0  0  0  0  0
    8.9282    5.7500    0.0000 O   0  0  0  0  0  0  0  0  0  0  0  0
    8.9282   -0.2500    0.0000 O   0  0  0  0  0  0  0  0  0  0  0  0
    5.4641   -4.2500    0.0000 N   0  0  0  0  0  0  0  0  0  0  0  0
    5.4641   -6.2500    0.0000 N   0  0  0  0  0  0  0  0  0  0  0  0
   10.6603    7.7500    0.0000 N   0  0  0  0  0  0  0  0  0  0  0  0
    8.0622    1.2500    0.0000 N   0  0  0  0  0  0  0  0  0  0  0  0
    4.5981   -4.7500    0.0000 C   0  0  0  0  0  0  0  0  0  0  0  0
    6.3301   -4.7500    0.0000 C   0  0  0  0  0  0  0  0  0  0  0  0
    4.5981   -5.7500    0.0000 C   0  0  0  0  0  0  0  0  0  0  0  0
    6.3301   -5.7500    0.0000 C   0  0  0  0  0  0  0  0  0  0  0  0
    5.4641   -3.2500    0.0000 C   0  0  0  0  0  0  0  0  0  0  0  0
    6.3301   -2.7500    0.0000 C   0  0  0  0  0  0  0  0  0  0  0  0
    5.4641   -7.2500    0.0000 C   0  0  0  0  0  0  0  0  0  0  0  0
    6.3301   -1.7500    0.0000 C   0  0  0  0  0  0  0  0  0  0  0  0
    7.1962   -1.2500    0.0000 C   0  0  0  0  0  0  0  0  0  0  0  0
    4.5981   -7.7500    0.0000 C   0  0  0  0  0  0  0  0  0  0  0  0
    6.3301   -7.7500    0.0000 C   0  0  0  0  0  0  0  0  0  0  0  0
    7.1962   -0.2500    0.0000 C   0  0  0  0  0  0  0  0  0  0  0  0
    4.5981   -8.7500    0.0000 C   0  0  0  0  0  0  0  0  0  0  0  0
    3.7320   -7.2500    0.0000 C   0  0  0  0  0  0  0  0  0  0  0  0
    6.3301   -8.7500    0.0000 C   0  0  0  0  0  0  0  0  0  0  0  0
    5.4641   -9.2500    0.0000 C   0  0  0  0  0  0  0  0  0  0  0  0
   10.6603    8.7500    0.0000 C   0  0  0  0  0  0  0  0  0  0  0  0
   11.5263    7.2500    0.0000 C   0  0  0  0  0  0  0  0  0  0  0  0
    9.7942    7.2500    0.0000 C   0  0  0  0  0  0  0  0  0  0  0  0
    8.0622    0.2500    0.0000 C   0  0  0  0  0  0  0  0  0  0  0  0
   11.5263    9.2500    0.0000 C   0  0  0  0  0  0  0  0  0  0  0  0
   12.3923    7.7500    0.0000 C   0  0  0  0  0  0  0  0  0  0  0  0
    2.8660   -7.7500    0.0000 C   0  0  0  0  0  0  0  0  0  0  0  0
    3.7320   -6.2500    0.0000 C   0  0  0  0  0  0  0  0  0  0  0  0
    9.7942    6.2500    0.0000 C   0  0  0  0  0  0  0  0  0  0  0  0
    8.9282    1.7500    0.0000 C   0  0  0  0  0  0  0  0  0  0  0  0
    2.0000   -7.2500    0.0000 C   0  0  0  0  0  0  0  0  0  0  0  0
    2.8660   -5.7500    0.0000 C   0  0  0  0  0  0  0  0  0  0  0  0
    2.0000   -6.2500    0.0000 C   0  0  0  0  0  0  0  0  0  0  0  0
    8.9282    2.7500    0.0000 C   0  0  0  0  0  0  0  0  0  0  0  0
    8.9282    4.7500    0.0000 C   0  0  0  0  0  0  0  0  0  0  0  0
    9.7942    3.2500    0.0000 C   0  0  0  0  0  0  0  0  0  0  0  0
    8.0622    3.2500    0.0000 C   0  0  0  0  0  0  0  0  0  0  0  0
    9.7942    4.2500    0.0000 C   0  0  0  0  0  0  0  0  0  0  0  0
    8.0622    4.2500    0.0000 C   0  0  0  0  0  0  0  0  0  0  0  0
    4.3860   -4.1674    0.0000 H   0  0  0  0  0  0  0  0  0  0  0  0
    3.9875   -4.8577    0.0000 H   0  0  0  0  0  0  0  0  0  0  0  0
    6.9407   -4.8577    0.0000 H   0  0  0  0  0  0  0  0  0  0  0  0
    6.5422   -4.1674    0.0000 H   0  0  0  0  0  0  0  0  0  0  0  0
    3.9875   -5.6423    0.0000 H   0  0  0  0  0  0  0  0  0  0  0  0
    4.3860   -6.3326    0.0000 H   0  0  0  0  0  0  0  0  0  0  0  0
    6.5422   -6.3326    0.0000 H   0  0  0  0  0  0  0  0  0  0  0  0
    6.9407   -5.6423    0.0000 H   0  0  0  0  0  0  0  0  0  0  0  0
    5.2520   -2.6674    0.0000 H   0  0  0  0  0  0  0  0  0  0  0  0
    4.8535   -3.3577    0.0000 H   0  0  0  0  0  0  0  0  0  0  0  0
    6.5422   -3.3326    0.0000 H   0  0  0  0  0  0  0  0  0  0  0  0
    6.9407   -2.6423    0.0000 H   0  0  0  0  0  0  0  0  0  0  0  0
    6.1181   -1.1674    0.0000 H   0  0  0  0  0  0  0  0  0  0  0  0
    5.7196   -1.8577    0.0000 H   0  0  0  0  0  0  0  0  0  0  0  0
    7.4082   -1.8326    0.0000 H   0  0  0  0  0  0  0  0  0  0  0  0
    7.8067   -1.1423    0.0000 H   0  0  0  0  0  0  0  0  0  0  0  0
    6.8671   -7.4400    0.0000 H   0  0  0  0  0  0  0  0  0  0  0  0
    6.9841    0.3326    0.0000 H   0  0  0  0  0  0  0  0  0  0  0  0
    6.5856   -0.3577    0.0000 H   0  0  0  0  0  0  0  0  0  0  0  0
    4.0611   -9.0600    0.0000 H   0  0  0  0  0  0  0  0  0  0  0  0
    6.8671   -9.0600    0.0000 H   0  0  0  0  0  0  0  0  0  0  0  0
    5.4641   -9.8700    0.0000 H   0  0  0  0  0  0  0  0  0  0  0  0
   10.4482    9.3326    0.0000 H   0  0  0  0  0  0  0  0  0  0  0  0
   10.0497    8.6423    0.0000 H   0  0  0  0  0  0  0  0  0  0  0  0
   11.1278    6.7750    0.0000 H   0  0  0  0  0  0  0  0  0  0  0  0
   11.9248    6.7750    0.0000 H   0  0  0  0  0  0  0  0  0  0  0  0
    9.5822    7.8326    0.0000 H   0  0  0  0  0  0  0  0  0  0  0  0
    9.1836    7.1423    0.0000 H   0  0  0  0  0  0  0  0  0  0  0  0
   11.9248    9.7250    0.0000 H   0  0  0  0  0  0  0  0  0  0  0  0
   11.1278    9.7250    0.0000 H   0  0  0  0  0  0  0  0  0  0  0  0
   12.6044    7.1674    0.0000 H   0  0  0  0  0  0  0  0  0  0  0  0
   13.0029    7.8577    0.0000 H   0  0  0  0  0  0  0  0  0  0  0  0
    2.8660   -8.3700    0.0000 H   0  0  0  0  0  0  0  0  0  0  0  0
    4.2690   -5.9400    0.0000 H   0  0  0  0  0  0  0  0  0  0  0  0
   10.0063    5.6674    0.0000 H   0  0  0  0  0  0  0  0  0  0  0  0
   10.4048    6.3577    0.0000 H   0  0  0  0  0  0  0  0  0  0  0  0
    7.5252    1.5600    0.0000 H   0  0  0  0  0  0  0  0  0  0  0  0
    9.1403    1.1674    0.0000 H   0  0  0  0  0  0  0  0  0  0  0  0
    9.5388    1.8577    0.0000 H   0  0  0  0  0  0  0  0  0  0  0  0
    1.4631   -7.5600    0.0000 H   0  0  0  0  0  0  0  0  0  0  0  0
    2.8660   -5.1300    0.0000 H   0  0  0  0  0  0  0  0  0  0  0  0
    1.4631   -5.9400    0.0000 H   0  0  0  0  0  0  0  0  0  0  0  0
   10.3312    2.9400    0.0000 H   0  0  0  0  0  0  0  0  0  0  0  0
    7.5252    2.9400    0.0000 H   0  0  0  0  0  0  0  0  0  0  0  0
   10.3312    4.5600    0.0000 H   0  0  0  0  0  0  0  0  0  0  0  0
    7.5252    4.5600    0.0000 H   0  0  0  0  0  0  0  0  0  0  0  0
  1 28  1  0  0  0  0
  1 29  1  0  0  0  0
  2 32  1  0  0  0  0
  2 38  1  0  0  0  0
  3 27  2  0  0  0  0
  4  8  1  0  0  0  0
  4  9  1  0  0  0  0
  4 12  1  0  0  0  0
  5 10  1  0  0  0  0
  5 11  1  0  0  0  0
  5 14  1  0  0  0  0
  6 24  1  0  0  0  0
  6 25  1  0  0  0  0
  6 26  1  0  0  0  0
  7 27  1  0  0  0  0
  7 33  1  0  0  0  0
  7 79  1  0  0  0  0
  8 10  1  0  0  0  0
  8 43  1  0  0  0  0
  8 44  1  0  0  0  0
  9 11  1  0  0  0  0
  9 45  1  0  0  0  0
  9 46  1  0  0  0  0
 10 47  1  0  0  0  0
 10 48  1  0  0  0  0
 11 49  1  0  0  0  0
 11 50  1  0  0  0  0
 12 13  1  0  0  0  0
 12 51  1  0  0  0  0
 12 52  1  0  0  0  0
 13 15  1  0  0  0  0
 13 53  1  0  0  0  0
 13 54  1  0  0  0  0
 14 17  1  0  0  0  0
 14 18  2  0  0  0  0
 15 16  1  0  0  0  0
 15 55  1  0  0  0  0
 15 56  1  0  0  0  0
 16 19  1  0  0  0  0
 16 57  1  0  0  0  0
 16 58  1  0  0  0  0
 17 20  2  0  0  0  0
 17 21  1  0  0  0  0
 18 22  1  0  0  0  0
 18 59  1  0  0  0  0
 19 27  1  0  0  0  0
 19 60  1  0  0  0  0
 19 61  1  0  0  0  0
 20 23  1  0  0  0  0
 20 62  1  0  0  0  0
 21 30  2  0  0  0  0
 21 31  1  0  0  0  0
 22 23  2  0  0  0  0
 22 63  1  0  0  0  0
 23 64  1  0  0  0  0
 24 28  1  0  0  0  0
 24 65  1  0  0  0  0
 24 66  1  0  0  0  0
 25 29  1  0  0  0  0
 25 67  1  0  0  0  0
 25 68  1  0  0  0  0
 26 32  1  0  0  0  0
 26 69  1  0  0  0  0
 26 70  1  0  0  0  0
 28 71  1  0  0  0  0
 28 72  1  0  0  0  0
 29 73  1  0  0  0  0
 29 74  1  0  0  0  0
 30 34  1  0  0  0  0
 30 75  1  0  0  0  0
 31 35  2  0  0  0  0
 31 76  1  0  0  0  0
 32 77  1  0  0  0  0
 32 78  1  0  0  0  0
 33 37  1  0  0  0  0
 33 80  1  0  0  0  0
 33 81  1  0  0  0  0
 34 36  2  0  0  0  0
 34 82  1  0  0  0  0
 35 36  1  0  0  0  0
 35 83  1  0  0  0  0
 36 84  1  0  0  0  0
 37 39  2  0  0  0  0
 37 40  1  0  0  0  0
 38 41  2  0  0  0  0
 38 42  1  0  0  0  0
 39 41  1  0  0  0  0
 39 85  1  0  0  0  0
 40 42  2  0  0  0  0
 40 86  1  0  0  0  0
 41 87  1  0  0  0  0
 42 88  1  0  0  0  0
M  END
> <PUBCHEM_COMPOUND_CID>
134151980

> <PUBCHEM_COMPOUND_CANONICALIZED>
1

> <PUBCHEM_CACTVS_COMPLEXITY>
741

> <PUBCHEM_CACTVS_HBOND_ACCEPTOR>
6

> <PUBCHEM_CACTVS_HBOND_DONOR>
1

> <PUBCHEM_CACTVS_ROTATABLE_BOND>
14

> <PUBCHEM_CACTVS_SUBSKEYS>
AAADcfB/sAAAAAAAAAAAAAAAAAAAAAAAAAA8eMECAAAAAAABUAAAHgAQAAAADAzhmAYwxoPABACIAiVSUACCCAAhIgAIiIEObIgOZjLEsZuXOCjk1hHY6AeY2MIOoAAAAAACAABAAAAAAAQAAAAAAAAAAA==

> <PUBCHEM_IUPAC_OPENEYE_NAME>
N-[[4-(2-morpholinoethoxy)phenyl]methyl]-6-[4-(2-phenylphenyl)piperazin-1-yl]hexanamide

> <PUBCHEM_IUPAC_CAS_NAME>
N-[[4-[2-(4-morpholinyl)ethoxy]phenyl]methyl]-6-[4-(2-phenylphenyl)-1-piperazinyl]hexanamide

> <PUBCHEM_IUPAC_NAME_MARKUP>
<I>N</I>-[[4-(2-morpholin-4-ylethoxy)phenyl]methyl]-6-[4-(2-phenylphenyl)piperazin-1-yl]hexanamide

> <PUBCHEM_IUPAC_NAME>
N-[[4-(2-morpholin-4-ylethoxy)phenyl]methyl]-6-[4-(2-phenylphenyl)piperazin-1-yl]hexanamide

> <PUBCHEM_IUPAC_SYSTEMATIC_NAME>
N-[[4-(2-morpholin-4-ylethoxy)phenyl]methyl]-6-[4-(2-phenylphenyl)piperazin-1-yl]hexanamide

> <PUBCHEM_IUPAC_TRADITIONAL_NAME>
N-[4-(2-morpholinoethoxy)benzyl]-6-[4-(2-phenylphenyl)piperazino]hexanamide

> <PUBCHEM_IUPAC_INCHI>
InChI=1S/C35H46N4O3/c40-35(36-29-30-14-16-32(17-15-30)42-28-25-38-23-26-41-27-24-38)13-5-2-8-18-37-19-21-39(22-20-37)34-12-7-6-11-33(34)31-9-3-1-4-10-31/h1,3-4,6-7,9-12,14-17H,2,5,8,13,18-29H2,(H,36,40)

> <PUBCHEM_IUPAC_INCHIKEY>
NKJBABKLZJYEME-UHFFFAOYSA-N

> <PUBCHEM_XLOGP3_AA>
4.9

> <PUBCHEM_EXACT_MASS>
570.35699134

> <PUBCHEM_MOLECULAR_FORMULA>
C35H46N4O3

> <PUBCHEM_MOLECULAR_WEIGHT>
570.8

> <PUBCHEM_OPENEYE_CAN_SMILES>
C1CN(CCN1CCCCCC(=O)NCC2=CC=C(C=C2)OCCN3CCOCC3)C4=CC=CC=C4C5=CC=CC=C5

> <PUBCHEM_OPENEYE_ISO_SMILES>
C1CN(CCN1CCCCCC(=O)NCC2=CC=C(C=C2)OCCN3CCOCC3)C4=CC=CC=C4C5=CC=CC=C5

> <PUBCHEM_CACTVS_TPSA>
57.3

> <PUBCHEM_MONOISOTOPIC_WEIGHT>
570.35699134

> <PUBCHEM_TOTAL_CHARGE>
0

> <PUBCHEM_HEAVY_ATOM_COUNT>
42

> <PUBCHEM_ATOM_DEF_STEREO_COUNT>
0

> <PUBCHEM_ATOM_UDEF_STEREO_COUNT>
0

> <PUBCHEM_BOND_DEF_STEREO_COUNT>
0

> <PUBCHEM_BOND_UDEF_STEREO_COUNT>
0

> <PUBCHEM_ISOTOPIC_ATOM_COUNT>
0

> <PUBCHEM_COMPONENT_COUNT>
1

> <PUBCHEM_CACTVS_TAUTO_COUNT>
-1

> <PUBCHEM_COORDINATE_TYPE>
1
5
255

> <PUBCHEM_BONDANNOTATIONS>
14  17  8
14  18  8
17  20  8
18  22  8
20  23  8
21  30  8
21  31  8
22  23  8
30  34  8
31  35  8
34  36  8
35  36  8
37  39  8
37  40  8
38  41  8
38  42  8
39  41  8
40  42  8

$$$$
