146863439
  -OEChem-09292322432D

 57 60  0     1  0  0  0  0  0999 V2000
    2.9180   -6.8184    0.0000 Br  0  0  0  0  0  0  0  0  0  0  0  0
    5.4176    3.7804    0.0000 O   0  0  0  0  0  0  0  0  0  0  0  0
    8.0436    2.2458    0.0000 O   0  0  0  0  0  0  0  0  0  0  0  0
    8.0557    6.3150    0.0000 O   0  0  0  0  0  0  0  0  0  0  0  0
    2.0000   -2.3287    0.0000 O   0  0  0  0  0  0  0  0  0  0  0  0
    5.4176    1.7111    0.0000 N   0  0  3  0  0  0  0  0  0  0  0  0
    3.7319   -2.3086    0.0000 N   0  0  0  0  0  0  0  0  0  0  0  0
    6.3116    2.2458    0.0000 C   0  0  1  0  0  0  0  0  0  0  0  0
    6.3116    3.2458    0.0000 C   0  0  1  0  0  0  0  0  0  0  0  0
    4.5116    2.2250    0.0000 C   0  0  0  0  0  0  0  0  0  0  0  0
    7.1776    1.7458    0.0000 C   0  0  0  0  0  0  0  0  0  0  0  0
    5.4292    0.7112    0.0000 C   0  0  0  0  0  0  0  0  0  0  0  0
    7.1776    3.7458    0.0000 C   0  0  0  0  0  0  0  0  0  0  0  0
    4.5116    3.2666    0.0000 C   0  0  0  0  0  0  0  0  0  0  0  0
    4.5690    0.2012    0.0000 C   0  0  0  0  0  0  0  0  0  0  0  0
    8.0436    3.2458    0.0000 C   0  0  0  0  0  0  0  0  0  0  0  0
    7.1615    4.7873    0.0000 C   0  0  0  0  0  0  0  0  0  0  0  0
    4.5806   -0.7987    0.0000 C   0  0  0  0  0  0  0  0  0  0  0  0
    8.9536    3.7526    0.0000 C   0  0  0  0  0  0  0  0  0  0  0  0
    8.0596    5.3150    0.0000 C   0  0  0  0  0  0  0  0  0  0  0  0
    3.7204   -1.3087    0.0000 C   0  0  0  0  0  0  0  0  0  0  0  0
    8.9616    4.7942    0.0000 C   0  0  0  0  0  0  0  0  0  0  0  0
    2.8718   -2.8186    0.0000 C   0  0  0  0  0  0  0  0  0  0  0  0
    8.9198    6.8184    0.0000 C   0  0  0  0  0  0  0  0  0  0  0  0
    2.8833   -3.8186    0.0000 C   0  0  0  0  0  0  0  0  0  0  0  0
    3.7551   -4.3085    0.0000 C   0  0  0  0  0  0  0  0  0  0  0  0
    2.0231   -4.3285    0.0000 C   0  0  0  0  0  0  0  0  0  0  0  0
    3.7666   -5.3084    0.0000 C   0  0  0  0  0  0  0  0  0  0  0  0
    2.0347   -5.3285    0.0000 C   0  0  0  0  0  0  0  0  0  0  0  0
    2.9064   -5.8184    0.0000 C   0  0  0  0  0  0  0  0  0  0  0  0
    6.3181    1.3958    0.0000 H   0  0  0  0  0  0  0  0  0  0  0  0
    6.3181    4.0958    0.0000 H   0  0  0  0  0  0  0  0  0  0  0  0
    3.9007    2.3310    0.0000 H   0  0  0  0  0  0  0  0  0  0  0  0
    4.3025    1.6413    0.0000 H   0  0  0  0  0  0  0  0  0  0  0  0
    6.7791    1.2708    0.0000 H   0  0  0  0  0  0  0  0  0  0  0  0
    7.5761    1.2708    0.0000 H   0  0  0  0  0  0  0  0  0  0  0  0
    5.6480    0.1311    0.0000 H   0  0  0  0  0  0  0  0  0  0  0  0
    6.0385    0.8259    0.0000 H   0  0  0  0  0  0  0  0  0  0  0  0
    4.3025    3.8503    0.0000 H   0  0  0  0  0  0  0  0  0  0  0  0
    3.9007    3.1605    0.0000 H   0  0  0  0  0  0  0  0  0  0  0  0
    4.3502    0.7813    0.0000 H   0  0  0  0  0  0  0  0  0  0  0  0
    3.9597    0.0865    0.0000 H   0  0  0  0  0  0  0  0  0  0  0  0
    6.6210    5.0910    0.0000 H   0  0  0  0  0  0  0  0  0  0  0  0
    4.7993   -1.3788    0.0000 H   0  0  0  0  0  0  0  0  0  0  0  0
    5.1898   -0.6840    0.0000 H   0  0  0  0  0  0  0  0  0  0  0  0
    9.4869    3.4364    0.0000 H   0  0  0  0  0  0  0  0  0  0  0  0
    3.5016   -0.7286    0.0000 H   0  0  0  0  0  0  0  0  0  0  0  0
    3.1111   -1.4234    0.0000 H   0  0  0  0  0  0  0  0  0  0  0  0
    9.4998    5.1022    0.0000 H   0  0  0  0  0  0  0  0  0  0  0  0
    4.2724   -2.6124    0.0000 H   0  0  0  0  0  0  0  0  0  0  0  0
    9.2319    6.2826    0.0000 H   0  0  0  0  0  0  0  0  0  0  0  0
    9.4555    7.1304    0.0000 H   0  0  0  0  0  0  0  0  0  0  0  0
    8.6077    7.3541    0.0000 H   0  0  0  0  0  0  0  0  0  0  0  0
    4.2884   -3.9923    0.0000 H   0  0  0  0  0  0  0  0  0  0  0  0
    1.4826   -4.0248    0.0000 H   0  0  0  0  0  0  0  0  0  0  0  0
    4.3071   -5.6122    0.0000 H   0  0  0  0  0  0  0  0  0  0  0  0
    1.5014   -5.6447    0.0000 H   0  0  0  0  0  0  0  0  0  0  0  0
  1 30  1  0  0  0  0
  2  9  1  0  0  0  0
  2 14  1  0  0  0  0
  3 11  1  0  0  0  0
  3 16  1  0  0  0  0
  4 20  1  0  0  0  0
  4 24  1  0  0  0  0
  5 23  2  0  0  0  0
  6  8  1  0  0  0  0
  6 10  1  0  0  0  0
  6 12  1  0  0  0  0
  7 21  1  0  0  0  0
  7 23  1  0  0  0  0
  7 50  1  0  0  0  0
  8  9  1  0  0  0  0
  8 11  1  0  0  0  0
  8 31  1  6  0  0  0
  9 13  1  0  0  0  0
  9 32  1  1  0  0  0
 10 14  1  0  0  0  0
 10 33  1  0  0  0  0
 10 34  1  0  0  0  0
 11 35  1  0  0  0  0
 11 36  1  0  0  0  0
 12 15  1  0  0  0  0
 12 37  1  0  0  0  0
 12 38  1  0  0  0  0
 13 16  2  0  0  0  0
 13 17  1  0  0  0  0
 14 39  1  0  0  0  0
 14 40  1  0  0  0  0
 15 18  1  0  0  0  0
 15 41  1  0  0  0  0
 15 42  1  0  0  0  0
 16 19  1  0  0  0  0
 17 20  2  0  0  0  0
 17 43  1  0  0  0  0
 18 21  1  0  0  0  0
 18 44  1  0  0  0  0
 18 45  1  0  0  0  0
 19 22  2  0  0  0  0
 19 46  1  0  0  0  0
 20 22  1  0  0  0  0
 21 47  1  0  0  0  0
 21 48  1  0  0  0  0
 22 49  1  0  0  0  0
 23 25  1  0  0  0  0
 24 51  1  0  0  0  0
 24 52  1  0  0  0  0
 24 53  1  0  0  0  0
 25 26  2  0  0  0  0
 25 27  1  0  0  0  0
 26 28  1  0  0  0  0
 26 54  1  0  0  0  0
 27 29  2  0  0  0  0
 27 55  1  0  0  0  0
 28 30  2  0  0  0  0
 28 56  1  0  0  0  0
 29 30  1  0  0  0  0
 29 57  1  0  0  0  0
M  END
> <PUBCHEM_COMPOUND_CID>
146863439

> <PUBCHEM_COMPOUND_CANONICALIZED>
1

> <PUBCHEM_CACTVS_COMPLEXITY>
557

> <PUBCHEM_CACTVS_HBOND_ACCEPTOR>
5

> <PUBCHEM_CACTVS_HBOND_DONOR>
1

> <PUBCHEM_CACTVS_ROTATABLE_BOND>
7

> <PUBCHEM_CACTVS_SUBSKEYS>
AAADceB7OAAAEAAAAAAAAAAAAAAAAAAAAAA8aIEAAAAAAACxQAAAHgBQAAABrDzhmAYyBoPABACIAiFSEACCCAAkIAQIiIEODOgOJzKEtRuHOSjl1hGYq5f42LOOAwABAAAIAAAGAAIAABAAAAAAAAAAAA==

> <PUBCHEM_IUPAC_OPENEYE_NAME>
N-[4-[(4aR,10bR)-9-methoxy-3,4a,5,10b-tetrahydro-2H-chromeno[4,3-b][1,4]oxazin-4-yl]butyl]-4-bromo-benzamide

> <PUBCHEM_IUPAC_CAS_NAME>
N-[4-[(4aR,10bR)-9-methoxy-3,4a,5,10b-tetrahydro-2H-[1]benzopyrano[4,3-b][1,4]oxazin-4-yl]butyl]-4-bromobenzamide

> <PUBCHEM_IUPAC_NAME_MARKUP>
<I>N</I>-[4-[(4<I>a</I><I>R</I>,10<I>b</I><I>R</I>)-9-methoxy-3,4<I>a</I>,5,10<I>b</I>-tetrahydro-2<I>H</I>-chromeno[4,3-b][1,4]oxazin-4-yl]butyl]-4-bromobenzamide

> <PUBCHEM_IUPAC_NAME>
N-[4-[(4aR,10bR)-9-methoxy-3,4a,5,10b-tetrahydro-2H-chromeno[4,3-b][1,4]oxazin-4-yl]butyl]-4-bromobenzamide

> <PUBCHEM_IUPAC_SYSTEMATIC_NAME>
N-[4-[(4aR,10bR)-9-methoxy-3,4a,5,10b-tetrahydro-2H-chromeno[4,3-b][1,4]oxazin-4-yl]butyl]-4-bromanyl-benzamide

> <PUBCHEM_IUPAC_TRADITIONAL_NAME>
N-[4-[(4aR,10bR)-9-methoxy-3,4a,5,10b-tetrahydro-2H-chromeno[4,3-b][1,4]oxazin-4-yl]butyl]-4-bromo-benzamide

> <PUBCHEM_IUPAC_INCHI>
InChI=1S/C23H27BrN2O4/c1-28-18-8-9-21-19(14-18)22-20(15-30-21)26(12-13-29-22)11-3-2-10-25-23(27)16-4-6-17(24)7-5-16/h4-9,14,20,22H,2-3,10-13,15H2,1H3,(H,25,27)/t20-,22-/m1/s1

> <PUBCHEM_IUPAC_INCHIKEY>
SLHJBGQZNOFTDB-IFMALSPDSA-N

> <PUBCHEM_XLOGP3>
3.8

> <PUBCHEM_EXACT_MASS>
474.11542

> <PUBCHEM_MOLECULAR_FORMULA>
C23H27BrN2O4

> <PUBCHEM_MOLECULAR_WEIGHT>
475.4

> <PUBCHEM_OPENEYE_CAN_SMILES>
COC1=CC2=C(C=C1)OCC3C2OCCN3CCCCNC(=O)C4=CC=C(C=C4)Br

> <PUBCHEM_OPENEYE_ISO_SMILES>
COC1=CC2=C(C=C1)OC[C@@H]3[C@@H]2OCCN3CCCCNC(=O)C4=CC=C(C=C4)Br

> <PUBCHEM_CACTVS_TPSA>
60

> <PUBCHEM_MONOISOTOPIC_WEIGHT>
474.11542

> <PUBCHEM_TOTAL_CHARGE>
0

> <PUBCHEM_HEAVY_ATOM_COUNT>
30

> <PUBCHEM_ATOM_DEF_STEREO_COUNT>
2

> <PUBCHEM_ATOM_UDEF_STEREO_COUNT>
0

> <PUBCHEM_BOND_DEF_STEREO_COUNT>
0

> <PUBCHEM_BOND_UDEF_STEREO_COUNT>
0

> <PUBCHEM_ISOTOPIC_ATOM_COUNT>
0

> <PUBCHEM_COMPONENT_COUNT>
1

> <PUBCHEM_CACTVS_TAUTO_COUNT>
-1

> <PUBCHEM_COORDINATE_TYPE>
1
5
255

> <PUBCHEM_BONDANNOTATIONS>
13  16  8
13  17  8
16  19  8
17  20  8
19  22  8
20  22  8
25  26  8
25  27  8
26  28  8
27  29  8
28  30  8
29  30  8
8  31  6
9  32  5

$$$$
