45270702
  -OEChem-09292322482D

 46 48  0     0  0  0  0  0  0999 V2000
    2.0000   -5.1532    0.0000 Cl  0  0  0  0  0  0  0  0  0  0  0  0
    7.3520    5.1532    0.0000 F   0  0  0  0  0  0  0  0  0  0  0  0
    5.9552    4.9320    0.0000 F   0  0  0  0  0  0  0  0  0  0  0  0
    7.5733    3.7564    0.0000 F   0  0  0  0  0  0  0  0  0  0  0  0
    2.0000   -3.1532    0.0000 F   0  0  0  0  0  0  0  0  0  0  0  0
    5.4921   -1.8745    0.0000 O   0  0  0  0  0  0  0  0  0  0  0  0
    5.0009    1.9172    0.0000 N   0  0  0  0  0  0  0  0  0  0  0  0
    4.2320   -0.6144    0.0000 N   0  0  0  0  0  0  0  0  0  0  0  0
    3.7320   -2.1532    0.0000 N   0  0  0  0  0  0  0  0  0  0  0  0
    6.1765    3.5352    0.0000 C   0  0  0  0  0  0  0  0  0  0  0  0
    6.5832    2.6217    0.0000 C   0  0  0  0  0  0  0  0  0  0  0  0
    5.1819    3.6397    0.0000 C   0  0  0  0  0  0  0  0  0  0  0  0
    5.9954    1.8126    0.0000 C   0  0  0  0  0  0  0  0  0  0  0  0
    4.5942    2.8307    0.0000 C   0  0  0  0  0  0  0  0  0  0  0  0
    4.4131    1.1082    0.0000 C   0  0  0  0  0  0  0  0  0  0  0  0
    4.8198    0.1946    0.0000 C   0  0  0  0  0  0  0  0  0  0  0  0
    6.7642    4.3442    0.0000 C   0  0  0  0  0  0  0  0  0  0  0  0
    3.2320   -0.6144    0.0000 C   0  0  0  0  0  0  0  0  0  0  0  0
    2.9230   -1.5655    0.0000 C   0  0  0  0  0  0  0  0  0  0  0  0
    4.5411   -1.5655    0.0000 C   0  0  0  0  0  0  0  0  0  0  0  0
    3.7320   -3.1532    0.0000 C   0  0  0  0  0  0  0  0  0  0  0  0
    2.8660   -3.6532    0.0000 C   0  0  0  0  0  0  0  0  0  0  0  0
    4.5981   -3.6532    0.0000 C   0  0  0  0  0  0  0  0  0  0  0  0
    2.8660   -4.6532    0.0000 C   0  0  0  0  0  0  0  0  0  0  0  0
    4.5981   -4.6532    0.0000 C   0  0  0  0  0  0  0  0  0  0  0  0
    3.7320   -5.1532    0.0000 C   0  0  0  0  0  0  0  0  0  0  0  0
    6.7931    3.4704    0.0000 H   0  0  0  0  0  0  0  0  0  0  0  0
    7.0139    2.1757    0.0000 H   0  0  0  0  0  0  0  0  0  0  0  0
    7.0972    2.9684    0.0000 H   0  0  0  0  0  0  0  0  0  0  0  0
    5.3528    4.2357    0.0000 H   0  0  0  0  0  0  0  0  0  0  0  0
    4.6247    3.9115    0.0000 H   0  0  0  0  0  0  0  0  0  0  0  0
    5.8245    1.2167    0.0000 H   0  0  0  0  0  0  0  0  0  0  0  0
    6.5527    1.5409    0.0000 H   0  0  0  0  0  0  0  0  0  0  0  0
    4.1635    3.2767    0.0000 H   0  0  0  0  0  0  0  0  0  0  0  0
    4.0801    2.4840    0.0000 H   0  0  0  0  0  0  0  0  0  0  0  0
    3.9824    1.5542    0.0000 H   0  0  0  0  0  0  0  0  0  0  0  0
    3.8991    0.7615    0.0000 H   0  0  0  0  0  0  0  0  0  0  0  0
    5.2505   -0.2514    0.0000 H   0  0  0  0  0  0  0  0  0  0  0  0
    5.3338    0.5413    0.0000 H   0  0  0  0  0  0  0  0  0  0  0  0
    3.2969    0.0022    0.0000 H   0  0  0  0  0  0  0  0  0  0  0  0
    2.6256   -0.4855    0.0000 H   0  0  0  0  0  0  0  0  0  0  0  0
    2.3566   -1.3133    0.0000 H   0  0  0  0  0  0  0  0  0  0  0  0
    2.6130   -2.1024    0.0000 H   0  0  0  0  0  0  0  0  0  0  0  0
    5.1350   -3.3432    0.0000 H   0  0  0  0  0  0  0  0  0  0  0  0
    5.1350   -4.9632    0.0000 H   0  0  0  0  0  0  0  0  0  0  0  0
    3.7320   -5.7732    0.0000 H   0  0  0  0  0  0  0  0  0  0  0  0
  1 24  1  0  0  0  0
  2 17  1  0  0  0  0
  3 17  1  0  0  0  0
  4 17  1  0  0  0  0
  5 22  1  0  0  0  0
  6 20  2  0  0  0  0
  7 13  1  0  0  0  0
  7 14  1  0  0  0  0
  7 15  1  0  0  0  0
  8 16  1  0  0  0  0
  8 18  1  0  0  0  0
  8 20  1  0  0  0  0
  9 19  1  0  0  0  0
  9 20  1  0  0  0  0
  9 21  1  0  0  0  0
 10 11  1  0  0  0  0
 10 12  1  0  0  0  0
 10 17  1  0  0  0  0
 10 27  1  0  0  0  0
 11 13  1  0  0  0  0
 11 28  1  0  0  0  0
 11 29  1  0  0  0  0
 12 14  1  0  0  0  0
 12 30  1  0  0  0  0
 12 31  1  0  0  0  0
 13 32  1  0  0  0  0
 13 33  1  0  0  0  0
 14 34  1  0  0  0  0
 14 35  1  0  0  0  0
 15 16  1  0  0  0  0
 15 36  1  0  0  0  0
 15 37  1  0  0  0  0
 16 38  1  0  0  0  0
 16 39  1  0  0  0  0
 18 19  1  0  0  0  0
 18 40  1  0  0  0  0
 18 41  1  0  0  0  0
 19 42  1  0  0  0  0
 19 43  1  0  0  0  0
 21 22  2  0  0  0  0
 21 23  1  0  0  0  0
 22 24  1  0  0  0  0
 23 25  2  0  0  0  0
 23 44  1  0  0  0  0
 24 26  2  0  0  0  0
 25 26  1  0  0  0  0
 25 45  1  0  0  0  0
 26 46  1  0  0  0  0
M  END
> <PUBCHEM_COMPOUND_CID>
45270702

> <PUBCHEM_COMPOUND_CANONICALIZED>
1

> <PUBCHEM_CACTVS_COMPLEXITY>
499

> <PUBCHEM_CACTVS_HBOND_ACCEPTOR>
6

> <PUBCHEM_CACTVS_HBOND_DONOR>
0

> <PUBCHEM_CACTVS_ROTATABLE_BOND>
4

> <PUBCHEM_CACTVS_SUBSKEYS>
AAADceB7IcAEAAAAAAAAAAAAAAAAAWAAAAA8QAAAAAAAAAABAAAAHwIAAAAADQrBEDwxwIMAAACIACRCUACCAAAhBwAIiAAIZoiIYCLBk5GUIAhohgLIyCcQAAAKAAAAAAIAAAAAAAAABAAAAAAAAAAAAA==

> <PUBCHEM_IUPAC_OPENEYE_NAME>
1-(3-chloro-2-fluoro-phenyl)-3-[2-[4-(trifluoromethyl)-1-piperidyl]ethyl]imidazolidin-2-one

> <PUBCHEM_IUPAC_CAS_NAME>
1-(3-chloro-2-fluorophenyl)-3-[2-[4-(trifluoromethyl)-1-piperidinyl]ethyl]-2-imidazolidinone

> <PUBCHEM_IUPAC_NAME_MARKUP>
1-(3-chloro-2-fluorophenyl)-3-[2-[4-(trifluoromethyl)piperidin-1-yl]ethyl]imidazolidin-2-one

> <PUBCHEM_IUPAC_NAME>
1-(3-chloro-2-fluorophenyl)-3-[2-[4-(trifluoromethyl)piperidin-1-yl]ethyl]imidazolidin-2-one

> <PUBCHEM_IUPAC_SYSTEMATIC_NAME>
1-(3-chloranyl-2-fluoranyl-phenyl)-3-[2-[4-(trifluoromethyl)piperidin-1-yl]ethyl]imidazolidin-2-one

> <PUBCHEM_IUPAC_TRADITIONAL_NAME>
1-(3-chloro-2-fluoro-phenyl)-3-[2-[4-(trifluoromethyl)piperidino]ethyl]-2-imidazolidinone

> <PUBCHEM_IUPAC_INCHI>
InChI=1S/C17H20ClF4N3O/c18-13-2-1-3-14(15(13)19)25-11-10-24(16(25)26)9-8-23-6-4-12(5-7-23)17(20,21)22/h1-3,12H,4-11H2

> <PUBCHEM_IUPAC_INCHIKEY>
QFLHFFBCSDMNNW-UHFFFAOYSA-N

> <PUBCHEM_XLOGP3_AA>
3.7

> <PUBCHEM_EXACT_MASS>
393.1231026

> <PUBCHEM_MOLECULAR_FORMULA>
C17H20ClF4N3O

> <PUBCHEM_MOLECULAR_WEIGHT>
393.8

> <PUBCHEM_OPENEYE_CAN_SMILES>
C1CN(CCC1C(F)(F)F)CCN2CCN(C2=O)C3=C(C(=CC=C3)Cl)F

> <PUBCHEM_OPENEYE_ISO_SMILES>
C1CN(CCC1C(F)(F)F)CCN2CCN(C2=O)C3=C(C(=CC=C3)Cl)F

> <PUBCHEM_CACTVS_TPSA>
26.8

> <PUBCHEM_MONOISOTOPIC_WEIGHT>
393.1231026

> <PUBCHEM_TOTAL_CHARGE>
0

> <PUBCHEM_HEAVY_ATOM_COUNT>
26

> <PUBCHEM_ATOM_DEF_STEREO_COUNT>
0

> <PUBCHEM_ATOM_UDEF_STEREO_COUNT>
0

> <PUBCHEM_BOND_DEF_STEREO_COUNT>
0

> <PUBCHEM_BOND_UDEF_STEREO_COUNT>
0

> <PUBCHEM_ISOTOPIC_ATOM_COUNT>
0

> <PUBCHEM_COMPONENT_COUNT>
1

> <PUBCHEM_CACTVS_TAUTO_COUNT>
-1

> <PUBCHEM_COORDINATE_TYPE>
1
5
255

> <PUBCHEM_BONDANNOTATIONS>
21  22  8
21  23  8
22  24  8
23  25  8
24  26  8
25  26  8

$$$$
