44626738
  -OEChem-09292322292D

 66 71  0     1  0  0  0  0  0999 V2000
    3.7759   -1.4736    0.0000 S   0  0  0  0  0  0  0  0  0  0  0  0
    6.1499    5.8616    0.0000 O   0  0  0  0  0  0  0  0  0  0  0  0
    3.4138    1.9716    0.0000 N   0  0  3  0  0  0  0  0  0  0  0  0
    4.0547   -3.2336    0.0000 N   0  0  0  0  0  0  0  0  0  0  0  0
    5.3637   -2.2826    0.0000 N   0  0  0  0  0  0  0  0  0  0  0  0
    5.6728   -3.2336    0.0000 N   0  0  0  0  0  0  0  0  0  0  0  0
    6.6237   -6.8561    0.0000 N   0  0  0  0  0  0  0  0  0  0  0  0
    2.9138    3.5104    0.0000 C   0  0  3  0  0  0  0  0  0  0  0  0
    2.1048    2.9226    0.0000 C   0  0  3  0  0  0  0  0  0  0  0  0
    2.0000    3.9176    0.0000 C   0  0  0  0  0  0  0  0  0  0  0  0
    3.7229    2.9226    0.0000 C   0  0  0  0  0  0  0  0  0  0  0  0
    2.4138    1.9716    0.0000 C   0  0  0  0  0  0  0  0  0  0  0  0
    3.7229    4.0982    0.0000 C   0  0  0  0  0  0  0  0  0  0  0  0
    4.0016    1.1626    0.0000 C   0  0  0  0  0  0  0  0  0  0  0  0
    4.6364    3.6915    0.0000 C   0  0  0  0  0  0  0  0  0  0  0  0
    3.6183    5.0927    0.0000 C   0  0  0  0  0  0  0  0  0  0  0  0
    3.5949    0.2490    0.0000 C   0  0  0  0  0  0  0  0  0  0  0  0
    5.4454    4.2792    0.0000 C   0  0  0  0  0  0  0  0  0  0  0  0
    4.4274    5.6805    0.0000 C   0  0  0  0  0  0  0  0  0  0  0  0
    5.3409    5.2738    0.0000 C   0  0  0  0  0  0  0  0  0  0  0  0
    4.1827   -0.5600    0.0000 C   0  0  0  0  0  0  0  0  0  0  0  0
    6.0454    6.8561    0.0000 C   0  0  0  0  0  0  0  0  0  0  0  0
    4.3637   -2.2826    0.0000 C   0  0  0  0  0  0  0  0  0  0  0  0
    4.8637   -3.8214    0.0000 C   0  0  0  0  0  0  0  0  0  0  0  0
    3.1037   -3.5426    0.0000 C   0  0  0  0  0  0  0  0  0  0  0  0
    4.8637   -4.8214    0.0000 C   0  0  0  0  0  0  0  0  0  0  0  0
    5.7298   -5.3214    0.0000 C   0  0  0  0  0  0  0  0  0  0  0  0
    3.9977   -5.3214    0.0000 C   0  0  0  0  0  0  0  0  0  0  0  0
    5.7298   -6.3214    0.0000 C   0  0  0  0  0  0  0  0  0  0  0  0
    6.6237   -4.7867    0.0000 C   0  0  0  0  0  0  0  0  0  0  0  0
    3.9977   -6.3214    0.0000 C   0  0  0  0  0  0  0  0  0  0  0  0
    4.8637   -6.8214    0.0000 C   0  0  0  0  0  0  0  0  0  0  0  0
    7.5298   -5.3006    0.0000 C   0  0  0  0  0  0  0  0  0  0  0  0
    7.5298   -6.3422    0.0000 C   0  0  0  0  0  0  0  0  0  0  0  0
    8.3939   -6.8456    0.0000 C   0  0  0  0  0  0  0  0  0  0  0  0
    1.4984    2.7936    0.0000 H   0  0  0  0  0  0  0  0  0  0  0  0
    2.1500    4.5191    0.0000 H   0  0  0  0  0  0  0  0  0  0  0  0
    1.3815    3.9608    0.0000 H   0  0  0  0  0  0  0  0  0  0  0  0
    4.2893    2.6705    0.0000 H   0  0  0  0  0  0  0  0  0  0  0  0
    4.0329    3.4596    0.0000 H   0  0  0  0  0  0  0  0  0  0  0  0
    1.8074    1.8427    0.0000 H   0  0  0  0  0  0  0  0  0  0  0  0
    2.4786    1.3550    0.0000 H   0  0  0  0  0  0  0  0  0  0  0  0
    4.5156    0.8159    0.0000 H   0  0  0  0  0  0  0  0  0  0  0  0
    4.4323    1.6085    0.0000 H   0  0  0  0  0  0  0  0  0  0  0  0
    4.7012    3.0749    0.0000 H   0  0  0  0  0  0  0  0  0  0  0  0
    3.0519    5.3449    0.0000 H   0  0  0  0  0  0  0  0  0  0  0  0
    3.0809    0.5957    0.0000 H   0  0  0  0  0  0  0  0  0  0  0  0
    3.1642   -0.1970    0.0000 H   0  0  0  0  0  0  0  0  0  0  0  0
    6.0118    4.0271    0.0000 H   0  0  0  0  0  0  0  0  0  0  0  0
    4.3625    6.2971    0.0000 H   0  0  0  0  0  0  0  0  0  0  0  0
    4.6967   -0.9067    0.0000 H   0  0  0  0  0  0  0  0  0  0  0  0
    4.6134   -0.1140    0.0000 H   0  0  0  0  0  0  0  0  0  0  0  0
    6.6620    6.9209    0.0000 H   0  0  0  0  0  0  0  0  0  0  0  0
    5.9806    7.4727    0.0000 H   0  0  0  0  0  0  0  0  0  0  0  0
    5.4288    6.7913    0.0000 H   0  0  0  0  0  0  0  0  0  0  0  0
    2.9121   -2.9530    0.0000 H   0  0  0  0  0  0  0  0  0  0  0  0
    2.5140   -3.7342    0.0000 H   0  0  0  0  0  0  0  0  0  0  0  0
    3.2952   -4.1323    0.0000 H   0  0  0  0  0  0  0  0  0  0  0  0
    3.4608   -5.0114    0.0000 H   0  0  0  0  0  0  0  0  0  0  0  0
    6.6165   -4.1668    0.0000 H   0  0  0  0  0  0  0  0  0  0  0  0
    3.4608   -6.6314    0.0000 H   0  0  0  0  0  0  0  0  0  0  0  0
    4.8637   -7.4414    0.0000 H   0  0  0  0  0  0  0  0  0  0  0  0
    8.0655   -4.9885    0.0000 H   0  0  0  0  0  0  0  0  0  0  0  0
    8.0818   -7.3813    0.0000 H   0  0  0  0  0  0  0  0  0  0  0  0
    8.9296   -7.1576    0.0000 H   0  0  0  0  0  0  0  0  0  0  0  0
    8.7059   -6.3098    0.0000 H   0  0  0  0  0  0  0  0  0  0  0  0
  1 21  1  0  0  0  0
  1 23  1  0  0  0  0
  2 20  1  0  0  0  0
  2 22  1  0  0  0  0
  3 11  1  0  0  0  0
  3 12  1  0  0  0  0
  3 14  1  0  0  0  0
  4 23  1  0  0  0  0
  4 24  1  0  0  0  0
  4 25  1  0  0  0  0
  5  6  1  0  0  0  0
  5 23  2  0  0  0  0
  6 24  2  0  0  0  0
  7 29  1  0  0  0  0
  7 34  2  0  0  0  0
  8  9  1  0  0  0  0
  8 10  1  0  0  0  0
  8 11  1  0  0  0  0
  8 13  1  0  0  0  0
  9 10  1  0  0  0  0
  9 12  1  0  0  0  0
  9 36  1  0  0  0  0
 10 37  1  0  0  0  0
 10 38  1  0  0  0  0
 11 39  1  0  0  0  0
 11 40  1  0  0  0  0
 12 41  1  0  0  0  0
 12 42  1  0  0  0  0
 13 15  2  0  0  0  0
 13 16  1  0  0  0  0
 14 17  1  0  0  0  0
 14 43  1  0  0  0  0
 14 44  1  0  0  0  0
 15 18  1  0  0  0  0
 15 45  1  0  0  0  0
 16 19  2  0  0  0  0
 16 46  1  0  0  0  0
 17 21  1  0  0  0  0
 17 47  1  0  0  0  0
 17 48  1  0  0  0  0
 18 20  2  0  0  0  0
 18 49  1  0  0  0  0
 19 20  1  0  0  0  0
 19 50  1  0  0  0  0
 21 51  1  0  0  0  0
 21 52  1  0  0  0  0
 22 53  1  0  0  0  0
 22 54  1  0  0  0  0
 22 55  1  0  0  0  0
 24 26  1  0  0  0  0
 25 56  1  0  0  0  0
 25 57  1  0  0  0  0
 25 58  1  0  0  0  0
 26 27  2  0  0  0  0
 26 28  1  0  0  0  0
 27 29  1  0  0  0  0
 27 30  1  0  0  0  0
 28 31  2  0  0  0  0
 28 59  1  0  0  0  0
 29 32  2  0  0  0  0
 30 33  2  0  0  0  0
 30 60  1  0  0  0  0
 31 32  1  0  0  0  0
 31 61  1  0  0  0  0
 32 62  1  0  0  0  0
 33 34  1  0  0  0  0
 33 63  1  0  0  0  0
 34 35  1  0  0  0  0
 35 64  1  0  0  0  0
 35 65  1  0  0  0  0
 35 66  1  0  0  0  0
M  END
> <PUBCHEM_COMPOUND_CID>
44626738

> <PUBCHEM_COMPOUND_CANONICALIZED>
1

> <PUBCHEM_CACTVS_COMPLEXITY>
720

> <PUBCHEM_CACTVS_HBOND_ACCEPTOR>
6

> <PUBCHEM_CACTVS_HBOND_DONOR>
0

> <PUBCHEM_CACTVS_ROTATABLE_BOND>
8

> <PUBCHEM_CACTVS_SUBSKEYS>
AAADceB7oABAAAAAAAAAAAAAGAAAAWLAAAA8eIEAAAAAAACx/AAAHgQIAAAADwzF3waz1vcMFAiiAyZiZACS2CthIrAd2CA+bJiMLuLkuZuEMChkyBPI6AeQwPAPoAAAQAASAABAAACAACQAAAAAAAAAAA==

> <PUBCHEM_IUPAC_OPENEYE_NAME>
5-[5-[3-[1-(4-methoxyphenyl)-3-azabicyclo[3.1.0]hexan-3-yl]propylsulfanyl]-4-methyl-1,2,4-triazol-3-yl]-2-methyl-quinoline

> <PUBCHEM_IUPAC_CAS_NAME>
5-[5-[3-[1-(4-methoxyphenyl)-3-azabicyclo[3.1.0]hexan-3-yl]propylthio]-4-methyl-1,2,4-triazol-3-yl]-2-methylquinoline

> <PUBCHEM_IUPAC_NAME_MARKUP>
5-[5-[3-[1-(4-methoxyphenyl)-3-azabicyclo[3.1.0]hexan-3-yl]propylsulfanyl]-4-methyl-1,2,4-triazol-3-yl]-2-methylquinoline

> <PUBCHEM_IUPAC_NAME>
5-[5-[3-[1-(4-methoxyphenyl)-3-azabicyclo[3.1.0]hexan-3-yl]propylsulfanyl]-4-methyl-1,2,4-triazol-3-yl]-2-methylquinoline

> <PUBCHEM_IUPAC_SYSTEMATIC_NAME>
5-[5-[3-[1-(4-methoxyphenyl)-3-azabicyclo[3.1.0]hexan-3-yl]propylsulfanyl]-4-methyl-1,2,4-triazol-3-yl]-2-methyl-quinoline

> <PUBCHEM_IUPAC_TRADITIONAL_NAME>
5-[5-[3-[1-(4-methoxyphenyl)-3-azabicyclo[3.1.0]hexan-3-yl]propylthio]-4-methyl-1,2,4-triazol-3-yl]-2-methyl-quinoline

> <PUBCHEM_IUPAC_INCHI>
InChI=1S/C28H31N5OS/c1-19-8-13-23-24(6-4-7-25(23)29-19)26-30-31-27(32(26)2)35-15-5-14-33-17-21-16-28(21,18-33)20-9-11-22(34-3)12-10-20/h4,6-13,21H,5,14-18H2,1-3H3

> <PUBCHEM_IUPAC_INCHIKEY>
NKIUMOVWDJZMRB-UHFFFAOYSA-N

> <PUBCHEM_XLOGP3_AA>
4.9

> <PUBCHEM_EXACT_MASS>
485.22493180

> <PUBCHEM_MOLECULAR_FORMULA>
C28H31N5OS

> <PUBCHEM_MOLECULAR_WEIGHT>
485.6

> <PUBCHEM_OPENEYE_CAN_SMILES>
CC1=NC2=CC=CC(=C2C=C1)C3=NN=C(N3C)SCCCN4CC5CC5(C4)C6=CC=C(C=C6)OC

> <PUBCHEM_OPENEYE_ISO_SMILES>
CC1=NC2=CC=CC(=C2C=C1)C3=NN=C(N3C)SCCCN4CC5CC5(C4)C6=CC=C(C=C6)OC

> <PUBCHEM_CACTVS_TPSA>
81.4

> <PUBCHEM_MONOISOTOPIC_WEIGHT>
485.22493180

> <PUBCHEM_TOTAL_CHARGE>
0

> <PUBCHEM_HEAVY_ATOM_COUNT>
35

> <PUBCHEM_ATOM_DEF_STEREO_COUNT>
0

> <PUBCHEM_ATOM_UDEF_STEREO_COUNT>
2

> <PUBCHEM_BOND_DEF_STEREO_COUNT>
0

> <PUBCHEM_BOND_UDEF_STEREO_COUNT>
0

> <PUBCHEM_ISOTOPIC_ATOM_COUNT>
0

> <PUBCHEM_COMPONENT_COUNT>
1

> <PUBCHEM_CACTVS_TAUTO_COUNT>
-1

> <PUBCHEM_COORDINATE_TYPE>
1
5
255

> <PUBCHEM_BONDANNOTATIONS>
13  15  8
13  16  8
15  18  8
16  19  8
18  20  8
19  20  8
26  27  8
26  28  8
27  29  8
27  30  8
28  31  8
29  32  8
30  33  8
31  32  8
33  34  8
4  23  8
4  24  8
5  23  8
5  6  8
6  24  8
7  29  8
7  34  8
8  13  3
9  10  3

$$$$
