145966311
  -OEChem-09292322382D

 45 47  0     0  0  0  0  0  0999 V2000
    2.0000   -5.0000    0.0000 Cl  0  0  0  0  0  0  0  0  0  0  0  0
    3.7320   -6.0000    0.0000 Cl  0  0  0  0  0  0  0  0  0  0  0  0
    6.3301    2.5000    0.0000 O   0  0  0  0  0  0  0  0  0  0  0  0
    3.7320    0.0000    0.0000 N   0  0  0  0  0  0  0  0  0  0  0  0
    3.7320   -2.0000    0.0000 N   0  0  0  0  0  0  0  0  0  0  0  0
    4.5981    2.5000    0.0000 N   0  0  0  0  0  0  0  0  0  0  0  0
    4.5981    4.5000    0.0000 N   0  0  0  0  0  0  0  0  0  0  0  0
    2.8660   -0.5000    0.0000 C   0  0  0  0  0  0  0  0  0  0  0  0
    4.5981   -0.5000    0.0000 C   0  0  0  0  0  0  0  0  0  0  0  0
    2.8660   -1.5000    0.0000 C   0  0  0  0  0  0  0  0  0  0  0  0
    4.5981   -1.5000    0.0000 C   0  0  0  0  0  0  0  0  0  0  0  0
    3.7320    1.0000    0.0000 C   0  0  0  0  0  0  0  0  0  0  0  0
    3.7320   -3.0000    0.0000 C   0  0  0  0  0  0  0  0  0  0  0  0
    4.5981    1.5000    0.0000 C   0  0  0  0  0  0  0  0  0  0  0  0
    2.8660   -3.5000    0.0000 C   0  0  0  0  0  0  0  0  0  0  0  0
    4.5981   -3.5000    0.0000 C   0  0  0  0  0  0  0  0  0  0  0  0
    2.8660   -4.5000    0.0000 C   0  0  0  0  0  0  0  0  0  0  0  0
    4.5981   -4.5000    0.0000 C   0  0  0  0  0  0  0  0  0  0  0  0
    3.7320   -5.0000    0.0000 C   0  0  0  0  0  0  0  0  0  0  0  0
    5.4641    3.0000    0.0000 C   0  0  0  0  0  0  0  0  0  0  0  0
    5.4641    4.0000    0.0000 C   0  0  0  0  0  0  0  0  0  0  0  0
    6.3301    4.5000    0.0000 C   0  0  0  0  0  0  0  0  0  0  0  0
    6.3301    5.5000    0.0000 C   0  0  0  0  0  0  0  0  0  0  0  0
    4.5981    5.5000    0.0000 C   0  0  0  0  0  0  0  0  0  0  0  0
    5.4641    6.0000    0.0000 C   0  0  0  0  0  0  0  0  0  0  0  0
    2.6540    0.0826    0.0000 H   0  0  0  0  0  0  0  0  0  0  0  0
    2.2554   -0.6077    0.0000 H   0  0  0  0  0  0  0  0  0  0  0  0
    5.2087   -0.6077    0.0000 H   0  0  0  0  0  0  0  0  0  0  0  0
    4.8101    0.0826    0.0000 H   0  0  0  0  0  0  0  0  0  0  0  0
    2.2554   -1.3923    0.0000 H   0  0  0  0  0  0  0  0  0  0  0  0
    2.6540   -2.0826    0.0000 H   0  0  0  0  0  0  0  0  0  0  0  0
    4.8101   -2.0826    0.0000 H   0  0  0  0  0  0  0  0  0  0  0  0
    5.2087   -1.3923    0.0000 H   0  0  0  0  0  0  0  0  0  0  0  0
    3.5200    1.5826    0.0000 H   0  0  0  0  0  0  0  0  0  0  0  0
    3.1215    0.8923    0.0000 H   0  0  0  0  0  0  0  0  0  0  0  0
    4.8101    0.9174    0.0000 H   0  0  0  0  0  0  0  0  0  0  0  0
    5.2087    1.6077    0.0000 H   0  0  0  0  0  0  0  0  0  0  0  0
    2.3291   -3.1900    0.0000 H   0  0  0  0  0  0  0  0  0  0  0  0
    5.1350   -3.1900    0.0000 H   0  0  0  0  0  0  0  0  0  0  0  0
    4.0611    2.8100    0.0000 H   0  0  0  0  0  0  0  0  0  0  0  0
    5.1350   -4.8100    0.0000 H   0  0  0  0  0  0  0  0  0  0  0  0
    6.8671    4.1900    0.0000 H   0  0  0  0  0  0  0  0  0  0  0  0
    6.8671    5.8100    0.0000 H   0  0  0  0  0  0  0  0  0  0  0  0
    4.0611    5.8100    0.0000 H   0  0  0  0  0  0  0  0  0  0  0  0
    5.4641    6.6200    0.0000 H   0  0  0  0  0  0  0  0  0  0  0  0
  1 17  1  0  0  0  0
  2 19  1  0  0  0  0
  3 20  2  0  0  0  0
  4  8  1  0  0  0  0
  4  9  1  0  0  0  0
  4 12  1  0  0  0  0
  5 10  1  0  0  0  0
  5 11  1  0  0  0  0
  5 13  1  0  0  0  0
  6 14  1  0  0  0  0
  6 20  1  0  0  0  0
  6 40  1  0  0  0  0
  7 21  1  0  0  0  0
  7 24  2  0  0  0  0
  8 10  1  0  0  0  0
  8 26  1  0  0  0  0
  8 27  1  0  0  0  0
  9 11  1  0  0  0  0
  9 28  1  0  0  0  0
  9 29  1  0  0  0  0
 10 30  1  0  0  0  0
 10 31  1  0  0  0  0
 11 32  1  0  0  0  0
 11 33  1  0  0  0  0
 12 14  1  0  0  0  0
 12 34  1  0  0  0  0
 12 35  1  0  0  0  0
 13 15  2  0  0  0  0
 13 16  1  0  0  0  0
 14 36  1  0  0  0  0
 14 37  1  0  0  0  0
 15 17  1  0  0  0  0
 15 38  1  0  0  0  0
 16 18  2  0  0  0  0
 16 39  1  0  0  0  0
 17 19  2  0  0  0  0
 18 19  1  0  0  0  0
 18 41  1  0  0  0  0
 20 21  1  0  0  0  0
 21 22  2  0  0  0  0
 22 23  1  0  0  0  0
 22 42  1  0  0  0  0
 23 25  2  0  0  0  0
 23 43  1  0  0  0  0
 24 25  1  0  0  0  0
 24 44  1  0  0  0  0
 25 45  1  0  0  0  0
M  END
> <PUBCHEM_COMPOUND_CID>
145966311

> <PUBCHEM_COMPOUND_CANONICALIZED>
1

> <PUBCHEM_CACTVS_COMPLEXITY>
431

> <PUBCHEM_CACTVS_HBOND_ACCEPTOR>
4

> <PUBCHEM_CACTVS_HBOND_DONOR>
1

> <PUBCHEM_CACTVS_ROTATABLE_BOND>
5

> <PUBCHEM_CACTVS_SUBSKEYS>
AAADceB7oAAGAAAAAAAAAAAAAAAAAAAAAAA8WIAAAAAAAAABwAAAHgIQAAAACArBliQ8wJPIEACoATV3VACCgCA3ByAI2uG4ZtgIYPLBl7GUIQhglgDIyYcYCAAAAABAAAIAAAQAAIAABAAACAAAAAAAAA==

> <PUBCHEM_IUPAC_OPENEYE_NAME>
N-[2-[4-(3,4-dichlorophenyl)piperazin-1-yl]ethyl]pyridine-2-carboxamide

> <PUBCHEM_IUPAC_CAS_NAME>
N-[2-[4-(3,4-dichlorophenyl)-1-piperazinyl]ethyl]-2-pyridinecarboxamide

> <PUBCHEM_IUPAC_NAME_MARKUP>
<I>N</I>-[2-[4-(3,4-dichlorophenyl)piperazin-1-yl]ethyl]pyridine-2-carboxamide

> <PUBCHEM_IUPAC_NAME>
N-[2-[4-(3,4-dichlorophenyl)piperazin-1-yl]ethyl]pyridine-2-carboxamide

> <PUBCHEM_IUPAC_SYSTEMATIC_NAME>
N-[2-[4-(3,4-dichlorophenyl)piperazin-1-yl]ethyl]pyridine-2-carboxamide

> <PUBCHEM_IUPAC_TRADITIONAL_NAME>
N-[2-[4-(3,4-dichlorophenyl)piperazino]ethyl]picolinamide

> <PUBCHEM_IUPAC_INCHI>
InChI=1S/C18H20Cl2N4O/c19-15-5-4-14(13-16(15)20)24-11-9-23(10-12-24)8-7-22-18(25)17-3-1-2-6-21-17/h1-6,13H,7-12H2,(H,22,25)

> <PUBCHEM_IUPAC_INCHIKEY>
WJTVOECAMUQNOG-UHFFFAOYSA-N

> <PUBCHEM_XLOGP3_AA>
3.3

> <PUBCHEM_EXACT_MASS>
378.1014167

> <PUBCHEM_MOLECULAR_FORMULA>
C18H20Cl2N4O

> <PUBCHEM_MOLECULAR_WEIGHT>
379.3

> <PUBCHEM_OPENEYE_CAN_SMILES>
C1CN(CCN1CCNC(=O)C2=CC=CC=N2)C3=CC(=C(C=C3)Cl)Cl

> <PUBCHEM_OPENEYE_ISO_SMILES>
C1CN(CCN1CCNC(=O)C2=CC=CC=N2)C3=CC(=C(C=C3)Cl)Cl

> <PUBCHEM_CACTVS_TPSA>
48.5

> <PUBCHEM_MONOISOTOPIC_WEIGHT>
378.1014167

> <PUBCHEM_TOTAL_CHARGE>
0

> <PUBCHEM_HEAVY_ATOM_COUNT>
25

> <PUBCHEM_ATOM_DEF_STEREO_COUNT>
0

> <PUBCHEM_ATOM_UDEF_STEREO_COUNT>
0

> <PUBCHEM_BOND_DEF_STEREO_COUNT>
0

> <PUBCHEM_BOND_UDEF_STEREO_COUNT>
0

> <PUBCHEM_ISOTOPIC_ATOM_COUNT>
0

> <PUBCHEM_COMPONENT_COUNT>
1

> <PUBCHEM_CACTVS_TAUTO_COUNT>
-1

> <PUBCHEM_COORDINATE_TYPE>
1
5
255

> <PUBCHEM_BONDANNOTATIONS>
13  15  8
13  16  8
15  17  8
16  18  8
17  19  8
18  19  8
21  22  8
22  23  8
23  25  8
24  25  8
7  21  8
7  24  8

$$$$
