145993117
  -OEChem-09292322052D

 63 66  0     0  0  0  0  0  0999 V2000
    7.2764   -5.7377    0.0000 S   0  0  0  0  0  0  0  0  0  0  0  0
    5.4641    3.0670    0.0000 O   0  0  0  0  0  0  0  0  0  0  0  0
    2.0000    3.0670    0.0000 O   0  0  0  0  0  0  0  0  0  0  0  0
    3.7320    3.0670    0.0000 N   0  0  0  0  0  0  0  0  0  0  0  0
    5.4641   -0.9330    0.0000 N   0  0  0  0  0  0  0  0  0  0  0  0
    5.4641   -2.9330    0.0000 N   0  0  0  0  0  0  0  0  0  0  0  0
    3.7320    5.0670    0.0000 C   0  0  0  0  0  0  0  0  0  0  0  0
    4.5981    4.5670    0.0000 C   0  0  0  0  0  0  0  0  0  0  0  0
    2.8660    4.5670    0.0000 C   0  0  0  0  0  0  0  0  0  0  0  0
    3.2320    5.9330    0.0000 C   0  0  0  0  0  0  0  0  0  0  0  0
    4.2320    5.9330    0.0000 C   0  0  0  0  0  0  0  0  0  0  0  0
    4.5981    3.5670    0.0000 C   0  0  0  0  0  0  0  0  0  0  0  0
    2.8660    3.5670    0.0000 C   0  0  0  0  0  0  0  0  0  0  0  0
    3.7320    2.0670    0.0000 C   0  0  0  0  0  0  0  0  0  0  0  0
    5.4641    0.0670    0.0000 C   0  0  0  0  0  0  0  0  0  0  0  0
    4.5981   -1.4330    0.0000 C   0  0  0  0  0  0  0  0  0  0  0  0
    6.3301   -1.4330    0.0000 C   0  0  0  0  0  0  0  0  0  0  0  0
    4.5981    1.5670    0.0000 C   0  0  0  0  0  0  0  0  0  0  0  0
    4.5981    0.5670    0.0000 C   0  0  0  0  0  0  0  0  0  0  0  0
    4.5981   -2.4330    0.0000 C   0  0  0  0  0  0  0  0  0  0  0  0
    6.3301   -2.4330    0.0000 C   0  0  0  0  0  0  0  0  0  0  0  0
    2.2320    5.9330    0.0000 C   0  0  0  0  0  0  0  0  0  0  0  0
    5.4641   -3.9330    0.0000 C   0  0  0  0  0  0  0  0  0  0  0  0
    6.3301   -4.4330    0.0000 C   0  0  0  0  0  0  0  0  0  0  0  0
    4.5981   -4.4330    0.0000 C   0  0  0  0  0  0  0  0  0  0  0  0
    6.3301   -5.4330    0.0000 C   0  0  0  0  0  0  0  0  0  0  0  0
    7.2764   -4.1283    0.0000 C   0  0  0  0  0  0  0  0  0  0  0  0
    4.5981   -5.4330    0.0000 C   0  0  0  0  0  0  0  0  0  0  0  0
    5.4641   -5.9330    0.0000 C   0  0  0  0  0  0  0  0  0  0  0  0
    7.8600   -4.9330    0.0000 C   0  0  0  0  0  0  0  0  0  0  0  0
    5.2087    4.4593    0.0000 H   0  0  0  0  0  0  0  0  0  0  0  0
    4.8101    5.1496    0.0000 H   0  0  0  0  0  0  0  0  0  0  0  0
    2.6540    5.1496    0.0000 H   0  0  0  0  0  0  0  0  0  0  0  0
    2.2554    4.4593    0.0000 H   0  0  0  0  0  0  0  0  0  0  0  0
    3.8147    6.1451    0.0000 H   0  0  0  0  0  0  0  0  0  0  0  0
    3.1244    6.5436    0.0000 H   0  0  0  0  0  0  0  0  0  0  0  0
    4.7690    5.6230    0.0000 H   0  0  0  0  0  0  0  0  0  0  0  0
    4.5420    6.4700    0.0000 H   0  0  0  0  0  0  0  0  0  0  0  0
    3.6951    6.2430    0.0000 H   0  0  0  0  0  0  0  0  0  0  0  0
    3.1215    2.1747    0.0000 H   0  0  0  0  0  0  0  0  0  0  0  0
    3.5200    1.4844    0.0000 H   0  0  0  0  0  0  0  0  0  0  0  0
    6.0747   -0.0407    0.0000 H   0  0  0  0  0  0  0  0  0  0  0  0
    5.6762    0.6496    0.0000 H   0  0  0  0  0  0  0  0  0  0  0  0
    4.3860   -0.8504    0.0000 H   0  0  0  0  0  0  0  0  0  0  0  0
    3.9875   -1.5407    0.0000 H   0  0  0  0  0  0  0  0  0  0  0  0
    6.9407   -1.5407    0.0000 H   0  0  0  0  0  0  0  0  0  0  0  0
    6.5422   -0.8504    0.0000 H   0  0  0  0  0  0  0  0  0  0  0  0
    5.2087    1.4593    0.0000 H   0  0  0  0  0  0  0  0  0  0  0  0
    4.8101    2.1496    0.0000 H   0  0  0  0  0  0  0  0  0  0  0  0
    3.9875    0.6746    0.0000 H   0  0  0  0  0  0  0  0  0  0  0  0
    4.3860   -0.0156    0.0000 H   0  0  0  0  0  0  0  0  0  0  0  0
    3.9875   -2.3253    0.0000 H   0  0  0  0  0  0  0  0  0  0  0  0
    4.3860   -3.0156    0.0000 H   0  0  0  0  0  0  0  0  0  0  0  0
    6.5422   -3.0156    0.0000 H   0  0  0  0  0  0  0  0  0  0  0  0
    6.9407   -2.3253    0.0000 H   0  0  0  0  0  0  0  0  0  0  0  0
    2.2320    6.5530    0.0000 H   0  0  0  0  0  0  0  0  0  0  0  0
    1.6120    5.9330    0.0000 H   0  0  0  0  0  0  0  0  0  0  0  0
    2.2320    5.3130    0.0000 H   0  0  0  0  0  0  0  0  0  0  0  0
    4.0611   -4.1230    0.0000 H   0  0  0  0  0  0  0  0  0  0  0  0
    7.4690   -3.5390    0.0000 H   0  0  0  0  0  0  0  0  0  0  0  0
    4.0611   -5.7430    0.0000 H   0  0  0  0  0  0  0  0  0  0  0  0
    5.4641   -6.5530    0.0000 H   0  0  0  0  0  0  0  0  0  0  0  0
    8.4800   -4.9330    0.0000 H   0  0  0  0  0  0  0  0  0  0  0  0
  1 26  1  0  0  0  0
  1 30  1  0  0  0  0
  2 12  2  0  0  0  0
  3 13  2  0  0  0  0
  4 12  1  0  0  0  0
  4 13  1  0  0  0  0
  4 14  1  0  0  0  0
  5 15  1  0  0  0  0
  5 16  1  0  0  0  0
  5 17  1  0  0  0  0
  6 20  1  0  0  0  0
  6 21  1  0  0  0  0
  6 23  1  0  0  0  0
  7  8  1  0  0  0  0
  7  9  1  0  0  0  0
  7 10  1  0  0  0  0
  7 11  1  0  0  0  0
  8 12  1  0  0  0  0
  8 31  1  0  0  0  0
  8 32  1  0  0  0  0
  9 13  1  0  0  0  0
  9 33  1  0  0  0  0
  9 34  1  0  0  0  0
 10 22  1  0  0  0  0
 10 35  1  0  0  0  0
 10 36  1  0  0  0  0
 11 37  1  0  0  0  0
 11 38  1  0  0  0  0
 11 39  1  0  0  0  0
 14 18  1  0  0  0  0
 14 40  1  0  0  0  0
 14 41  1  0  0  0  0
 15 19  1  0  0  0  0
 15 42  1  0  0  0  0
 15 43  1  0  0  0  0
 16 20  1  0  0  0  0
 16 44  1  0  0  0  0
 16 45  1  0  0  0  0
 17 21  1  0  0  0  0
 17 46  1  0  0  0  0
 17 47  1  0  0  0  0
 18 19  1  0  0  0  0
 18 48  1  0  0  0  0
 18 49  1  0  0  0  0
 19 50  1  0  0  0  0
 19 51  1  0  0  0  0
 20 52  1  0  0  0  0
 20 53  1  0  0  0  0
 21 54  1  0  0  0  0
 21 55  1  0  0  0  0
 22 56  1  0  0  0  0
 22 57  1  0  0  0  0
 22 58  1  0  0  0  0
 23 24  2  0  0  0  0
 23 25  1  0  0  0  0
 24 26  1  0  0  0  0
 24 27  1  0  0  0  0
 25 28  2  0  0  0  0
 25 59  1  0  0  0  0
 26 29  2  0  0  0  0
 27 30  2  0  0  0  0
 27 60  1  0  0  0  0
 28 29  1  0  0  0  0
 28 61  1  0  0  0  0
 29 62  1  0  0  0  0
 30 63  1  0  0  0  0
M  END
> <PUBCHEM_COMPOUND_CID>
145993117

> <PUBCHEM_COMPOUND_CANONICALIZED>
1

> <PUBCHEM_CACTVS_COMPLEXITY>
602

> <PUBCHEM_CACTVS_HBOND_ACCEPTOR>
5

> <PUBCHEM_CACTVS_HBOND_DONOR>
0

> <PUBCHEM_CACTVS_ROTATABLE_BOND>
7

> <PUBCHEM_CACTVS_SUBSKEYS>
AAADcfB7MABAAAAAAAAAAAAAAAAAASAAAAA8WIAAAAAAAEgB8AAAHgQAAAAADgjF2ASywcMAAAiMAiVSUACDAIAhChBIiBkIZIgIYDLgkZGUIAxghiDoyAcYg4APAAAAACAGAAAAAAAAQAwAAAAAAAAAAA==

> <PUBCHEM_IUPAC_OPENEYE_NAME>
1-[4-[4-(benzothiophen-4-yl)piperazin-1-yl]butyl]-4-ethyl-4-methyl-piperidine-2,6-dione

> <PUBCHEM_IUPAC_CAS_NAME>
1-[4-[4-(1-benzothiophen-4-yl)-1-piperazinyl]butyl]-4-ethyl-4-methylpiperidine-2,6-dione

> <PUBCHEM_IUPAC_NAME_MARKUP>
1-[4-[4-(1-benzothiophen-4-yl)piperazin-1-yl]butyl]-4-ethyl-4-methylpiperidine-2,6-dione

> <PUBCHEM_IUPAC_NAME>
1-[4-[4-(1-benzothiophen-4-yl)piperazin-1-yl]butyl]-4-ethyl-4-methylpiperidine-2,6-dione

> <PUBCHEM_IUPAC_SYSTEMATIC_NAME>
1-[4-[4-(1-benzothiophen-4-yl)piperazin-1-yl]butyl]-4-ethyl-4-methyl-piperidine-2,6-dione

> <PUBCHEM_IUPAC_TRADITIONAL_NAME>
1-[4-[4-(benzothiophen-4-yl)piperazino]butyl]-4-ethyl-4-methyl-piperidine-2,6-quinone

> <PUBCHEM_IUPAC_INCHI>
InChI=1S/C24H33N3O2S/c1-3-24(2)17-22(28)27(23(29)18-24)11-5-4-10-25-12-14-26(15-13-25)20-7-6-8-21-19(20)9-16-30-21/h6-9,16H,3-5,10-15,17-18H2,1-2H3

> <PUBCHEM_IUPAC_INCHIKEY>
MCWADYMQWQHSRA-UHFFFAOYSA-N

> <PUBCHEM_XLOGP3_AA>
4.2

> <PUBCHEM_EXACT_MASS>
427.22934848

> <PUBCHEM_MOLECULAR_FORMULA>
C24H33N3O2S

> <PUBCHEM_MOLECULAR_WEIGHT>
427.6

> <PUBCHEM_OPENEYE_CAN_SMILES>
CCC1(CC(=O)N(C(=O)C1)CCCCN2CCN(CC2)C3=C4C=CSC4=CC=C3)C

> <PUBCHEM_OPENEYE_ISO_SMILES>
CCC1(CC(=O)N(C(=O)C1)CCCCN2CCN(CC2)C3=C4C=CSC4=CC=C3)C

> <PUBCHEM_CACTVS_TPSA>
72.1

> <PUBCHEM_MONOISOTOPIC_WEIGHT>
427.22934848

> <PUBCHEM_TOTAL_CHARGE>
0

> <PUBCHEM_HEAVY_ATOM_COUNT>
30

> <PUBCHEM_ATOM_DEF_STEREO_COUNT>
0

> <PUBCHEM_ATOM_UDEF_STEREO_COUNT>
0

> <PUBCHEM_BOND_DEF_STEREO_COUNT>
0

> <PUBCHEM_BOND_UDEF_STEREO_COUNT>
0

> <PUBCHEM_ISOTOPIC_ATOM_COUNT>
0

> <PUBCHEM_COMPONENT_COUNT>
1

> <PUBCHEM_CACTVS_TAUTO_COUNT>
-1

> <PUBCHEM_COORDINATE_TYPE>
1
5
255

> <PUBCHEM_BONDANNOTATIONS>
1  26  8
1  30  8
23  24  8
23  25  8
24  26  8
24  27  8
25  28  8
26  29  8
27  30  8
28  29  8

$$$$
