44274739
  -OEChem-09292322122D

 36 38  0     1  0  0  0  0  0999 V2000
    2.9176   -2.3152    0.0000 O   0  0  0  0  0  0  0  0  0  0  0  0
    6.4783    0.5241    0.0000 N   0  0  3  0  0  0  0  0  0  0  0  0
    5.5321   -0.7806    0.0000 C   0  0  1  0  0  0  0  0  0  0  0  0
    5.5321    0.2194    0.0000 C   0  0  1  0  0  0  0  0  0  0  0  0
    6.4783   -1.0853    0.0000 C   0  0  0  0  0  0  0  0  0  0  0  0
    7.0619   -0.2806    0.0000 C   0  0  0  0  0  0  0  0  0  0  0  0
    4.6660   -1.2806    0.0000 C   0  0  0  0  0  0  0  0  0  0  0  0
    4.6660    0.7194    0.0000 C   0  0  0  0  0  0  0  0  0  0  0  0
    3.8000   -0.7806    0.0000 C   0  0  0  0  0  0  0  0  0  0  0  0
    3.8000    0.2194    0.0000 C   0  0  0  0  0  0  0  0  0  0  0  0
    6.7889    1.4746    0.0000 C   0  0  0  0  0  0  0  0  0  0  0  0
    2.9061   -1.3153    0.0000 C   0  0  0  0  0  0  0  0  0  0  0  0
    2.9061    0.7541    0.0000 C   0  0  0  0  0  0  0  0  0  0  0  0
    7.7674    1.6809    0.0000 C   0  0  0  0  0  0  0  0  0  0  0  0
    2.0000   -0.8014    0.0000 C   0  0  0  0  0  0  0  0  0  0  0  0
    2.0000    0.2402    0.0000 C   0  0  0  0  0  0  0  0  0  0  0  0
    8.0781    2.6314    0.0000 C   0  0  0  0  0  0  0  0  0  0  0  0
    5.6220   -1.6258    0.0000 H   0  0  0  0  0  0  0  0  0  0  0  0
    5.6220    1.0646    0.0000 H   0  0  0  0  0  0  0  0  0  0  0  0
    6.2272   -1.6522    0.0000 H   0  0  0  0  0  0  0  0  0  0  0  0
    7.0157   -1.3946    0.0000 H   0  0  0  0  0  0  0  0  0  0  0  0
    7.5228   -0.6953    0.0000 H   0  0  0  0  0  0  0  0  0  0  0  0
    7.5228    0.1341    0.0000 H   0  0  0  0  0  0  0  0  0  0  0  0
    4.2675   -1.7556    0.0000 H   0  0  0  0  0  0  0  0  0  0  0  0
    5.0646   -1.7556    0.0000 H   0  0  0  0  0  0  0  0  0  0  0  0
    5.0646    1.1943    0.0000 H   0  0  0  0  0  0  0  0  0  0  0  0
    4.2675    1.1943    0.0000 H   0  0  0  0  0  0  0  0  0  0  0  0
    6.7684    2.0943    0.0000 H   0  0  0  0  0  0  0  0  0  0  0  0
    6.1751    1.5620    0.0000 H   0  0  0  0  0  0  0  0  0  0  0  0
    2.9132    1.3740    0.0000 H   0  0  0  0  0  0  0  0  0  0  0  0
    8.1815    1.2194    0.0000 H   0  0  0  0  0  0  0  0  0  0  0  0
    1.4643   -1.1135    0.0000 H   0  0  0  0  0  0  0  0  0  0  0  0
    1.4643    0.5523    0.0000 H   0  0  0  0  0  0  0  0  0  0  0  0
    2.3843   -2.6314    0.0000 H   0  0  0  0  0  0  0  0  0  0  0  0
    8.6848    2.7592    0.0000 H   0  0  0  0  0  0  0  0  0  0  0  0
    7.6640    3.0928    0.0000 H   0  0  0  0  0  0  0  0  0  0  0  0
  1 12  1  0  0  0  0
  1 34  1  0  0  0  0
  2  4  1  0  0  0  0
  2  6  1  0  0  0  0
  2 11  1  0  0  0  0
  3  4  1  0  0  0  0
  3  5  1  0  0  0  0
  3  7  1  0  0  0  0
  3 18  1  6  0  0  0
  4  8  1  0  0  0  0
  4 19  1  6  0  0  0
  5  6  1  0  0  0  0
  5 20  1  0  0  0  0
  5 21  1  0  0  0  0
  6 22  1  0  0  0  0
  6 23  1  0  0  0  0
  7  9  1  0  0  0  0
  7 24  1  0  0  0  0
  7 25  1  0  0  0  0
  8 10  1  0  0  0  0
  8 26  1  0  0  0  0
  8 27  1  0  0  0  0
  9 10  2  0  0  0  0
  9 12  1  0  0  0  0
 10 13  1  0  0  0  0
 11 14  1  0  0  0  0
 11 28  1  0  0  0  0
 11 29  1  0  0  0  0
 12 15  2  0  0  0  0
 13 16  2  0  0  0  0
 13 30  1  0  0  0  0
 14 17  2  0  0  0  0
 14 31  1  0  0  0  0
 15 16  1  0  0  0  0
 15 32  1  0  0  0  0
 16 33  1  0  0  0  0
 17 35  1  0  0  0  0
 17 36  1  0  0  0  0
M  END
> <PUBCHEM_COMPOUND_CID>
44274739

> <PUBCHEM_COMPOUND_CANONICALIZED>
1

> <PUBCHEM_CACTVS_COMPLEXITY>
291

> <PUBCHEM_CACTVS_HBOND_ACCEPTOR>
2

> <PUBCHEM_CACTVS_HBOND_DONOR>
1

> <PUBCHEM_CACTVS_ROTATABLE_BOND>
2

> <PUBCHEM_CACTVS_SUBSKEYS>
AAADceByIAAAAAAAAAAAAAAAAAAAAWAAAAAwYAAAAAAAAFjBAAAAHgAACAAADSzBmAQwBoMAAgCAAiBCAACCAAAgIAAIiAAOCIgIJiKCkROEcAAkwBGImAeQ0PMOgAABAAAYAACQAAaAADQAAAAAAAAAAA==

> <PUBCHEM_IUPAC_OPENEYE_NAME>
(3aR,9aR)-1-allyl-2,3,3a,4,9,9a-hexahydrobenzo[f]indol-5-ol

> <PUBCHEM_IUPAC_CAS_NAME>
(3aR,9aR)-1-prop-2-enyl-2,3,3a,4,9,9a-hexahydrobenzo[f]indol-5-ol

> <PUBCHEM_IUPAC_NAME_MARKUP>
(3<I>a</I><I>R</I>,9<I>a</I><I>R</I>)-1-prop-2-enyl-2,3,3<I>a</I>,4,9,9<I>a</I>-hexahydrobenzo[f]indol-5-ol

> <PUBCHEM_IUPAC_NAME>
(3aR,9aR)-1-prop-2-enyl-2,3,3a,4,9,9a-hexahydrobenzo[f]indol-5-ol

> <PUBCHEM_IUPAC_SYSTEMATIC_NAME>
(3aR,9aR)-1-prop-2-enyl-2,3,3a,4,9,9a-hexahydrobenzo[f]indol-5-ol

> <PUBCHEM_IUPAC_TRADITIONAL_NAME>
(3aR,9aR)-1-allyl-2,3,3a,4,9,9a-hexahydrobenz[f]indol-5-ol

> <PUBCHEM_IUPAC_INCHI>
InChI=1S/C15H19NO/c1-2-7-16-8-6-12-9-13-11(10-14(12)16)4-3-5-15(13)17/h2-5,12,14,17H,1,6-10H2/t12-,14+/m0/s1

> <PUBCHEM_IUPAC_INCHIKEY>
GNOHLPXINNYCLR-GXTWGEPZSA-N

> <PUBCHEM_XLOGP3_AA>
3

> <PUBCHEM_EXACT_MASS>
229.146664230

> <PUBCHEM_MOLECULAR_FORMULA>
C15H19NO

> <PUBCHEM_MOLECULAR_WEIGHT>
229.32

> <PUBCHEM_OPENEYE_CAN_SMILES>
C=CCN1CCC2C1CC3=C(C2)C(=CC=C3)O

> <PUBCHEM_OPENEYE_ISO_SMILES>
C=CCN1CC[C@@H]2[C@H]1CC3=C(C2)C(=CC=C3)O

> <PUBCHEM_CACTVS_TPSA>
23.5

> <PUBCHEM_MONOISOTOPIC_WEIGHT>
229.146664230

> <PUBCHEM_TOTAL_CHARGE>
0

> <PUBCHEM_HEAVY_ATOM_COUNT>
17

> <PUBCHEM_ATOM_DEF_STEREO_COUNT>
2

> <PUBCHEM_ATOM_UDEF_STEREO_COUNT>
0

> <PUBCHEM_BOND_DEF_STEREO_COUNT>
0

> <PUBCHEM_BOND_UDEF_STEREO_COUNT>
0

> <PUBCHEM_ISOTOPIC_ATOM_COUNT>
0

> <PUBCHEM_COMPONENT_COUNT>
1

> <PUBCHEM_CACTVS_TAUTO_COUNT>
-1

> <PUBCHEM_COORDINATE_TYPE>
1
5
255

> <PUBCHEM_BONDANNOTATIONS>
10  13  8
12  15  8
13  16  8
15  16  8
3  18  6
4  19  6
9  10  8
9  12  8

$$$$
