53391632
  -OEChem-09292322322D

 58 61  0     1  0  0  0  0  0999 V2000
    2.0000   -5.5000    0.0000 F   0  0  0  0  0  0  0  0  0  0  0  0
    2.0000    5.5000    0.0000 F   0  0  0  0  0  0  0  0  0  0  0  0
    7.1962   -0.5000    0.0000 O   0  0  0  0  0  0  0  0  0  0  0  0
    6.3301    4.0000    0.0000 O   0  0  0  0  0  0  0  0  0  0  0  0
    5.4641    0.5000    0.0000 N   0  0  0  0  0  0  0  0  0  0  0  0
    5.4641   -2.5000    0.0000 N   0  0  3  0  0  0  0  0  0  0  0  0
    5.4641   -0.5000    0.0000 C   0  0  2  0  0  0  0  0  0  0  0  0
    6.3301   -1.0000    0.0000 C   0  0  2  0  0  0  0  0  0  0  0  0
    4.5981   -1.0000    0.0000 C   0  0  0  0  0  0  0  0  0  0  0  0
    6.3301    1.0000    0.0000 C   0  0  0  0  0  0  0  0  0  0  0  0
    4.5981    1.0000    0.0000 C   0  0  0  0  0  0  0  0  0  0  0  0
    5.4641    2.5000    0.0000 C   0  0  0  0  0  0  0  0  0  0  0  0
    6.3301   -2.0000    0.0000 C   0  0  0  0  0  0  0  0  0  0  0  0
    6.3301    2.0000    0.0000 C   0  0  0  0  0  0  0  0  0  0  0  0
    4.5981    2.0000    0.0000 C   0  0  0  0  0  0  0  0  0  0  0  0
    4.5981   -2.0000    0.0000 C   0  0  0  0  0  0  0  0  0  0  0  0
    5.4641   -3.5000    0.0000 C   0  0  0  0  0  0  0  0  0  0  0  0
    5.4641    3.5000    0.0000 C   0  0  0  0  0  0  0  0  0  0  0  0
    4.5981   -4.0000    0.0000 C   0  0  0  0  0  0  0  0  0  0  0  0
    4.5981    4.0000    0.0000 C   0  0  0  0  0  0  0  0  0  0  0  0
    3.7320   -3.5000    0.0000 C   0  0  0  0  0  0  0  0  0  0  0  0
    4.5981   -5.0000    0.0000 C   0  0  0  0  0  0  0  0  0  0  0  0
    3.7320    3.5000    0.0000 C   0  0  0  0  0  0  0  0  0  0  0  0
    4.5981    5.0000    0.0000 C   0  0  0  0  0  0  0  0  0  0  0  0
    2.8660   -4.0000    0.0000 C   0  0  0  0  0  0  0  0  0  0  0  0
    3.7320   -5.5000    0.0000 C   0  0  0  0  0  0  0  0  0  0  0  0
    2.8660    4.0000    0.0000 C   0  0  0  0  0  0  0  0  0  0  0  0
    3.7320    5.5000    0.0000 C   0  0  0  0  0  0  0  0  0  0  0  0
    2.8660   -5.0000    0.0000 C   0  0  0  0  0  0  0  0  0  0  0  0
    2.8660    5.0000    0.0000 C   0  0  0  0  0  0  0  0  0  0  0  0
    6.0010   -0.1900    0.0000 H   0  0  0  0  0  0  0  0  0  0  0  0
    6.8671   -1.3100    0.0000 H   0  0  0  0  0  0  0  0  0  0  0  0
    4.3860   -0.4174    0.0000 H   0  0  0  0  0  0  0  0  0  0  0  0
    3.9875   -1.1077    0.0000 H   0  0  0  0  0  0  0  0  0  0  0  0
    6.5422    0.4174    0.0000 H   0  0  0  0  0  0  0  0  0  0  0  0
    6.9407    1.1077    0.0000 H   0  0  0  0  0  0  0  0  0  0  0  0
    3.9875    1.1077    0.0000 H   0  0  0  0  0  0  0  0  0  0  0  0
    4.3860    0.4174    0.0000 H   0  0  0  0  0  0  0  0  0  0  0  0
    6.0010    2.8100    0.0000 H   0  0  0  0  0  0  0  0  0  0  0  0
    6.5422   -2.5826    0.0000 H   0  0  0  0  0  0  0  0  0  0  0  0
    6.9407   -1.8923    0.0000 H   0  0  0  0  0  0  0  0  0  0  0  0
    6.9407    1.8923    0.0000 H   0  0  0  0  0  0  0  0  0  0  0  0
    6.5422    2.5826    0.0000 H   0  0  0  0  0  0  0  0  0  0  0  0
    4.3860    2.5826    0.0000 H   0  0  0  0  0  0  0  0  0  0  0  0
    3.9875    1.8923    0.0000 H   0  0  0  0  0  0  0  0  0  0  0  0
    3.9875   -1.8923    0.0000 H   0  0  0  0  0  0  0  0  0  0  0  0
    4.3860   -2.5826    0.0000 H   0  0  0  0  0  0  0  0  0  0  0  0
    5.6762   -4.0826    0.0000 H   0  0  0  0  0  0  0  0  0  0  0  0
    6.0747   -3.3923    0.0000 H   0  0  0  0  0  0  0  0  0  0  0  0
    7.7331   -0.8100    0.0000 H   0  0  0  0  0  0  0  0  0  0  0  0
    3.7320   -2.8800    0.0000 H   0  0  0  0  0  0  0  0  0  0  0  0
    5.1350   -5.3100    0.0000 H   0  0  0  0  0  0  0  0  0  0  0  0
    3.7320    2.8800    0.0000 H   0  0  0  0  0  0  0  0  0  0  0  0
    5.1350    5.3100    0.0000 H   0  0  0  0  0  0  0  0  0  0  0  0
    2.3291   -3.6900    0.0000 H   0  0  0  0  0  0  0  0  0  0  0  0
    3.7320   -6.1200    0.0000 H   0  0  0  0  0  0  0  0  0  0  0  0
    2.3291    3.6900    0.0000 H   0  0  0  0  0  0  0  0  0  0  0  0
    3.7320    6.1200    0.0000 H   0  0  0  0  0  0  0  0  0  0  0  0
  1 29  1  0  0  0  0
  2 30  1  0  0  0  0
  8  3  1  1  0  0  0
  3 50  1  0  0  0  0
  4 18  2  0  0  0  0
  7  5  1  6  0  0  0
  5 10  1  0  0  0  0
  5 11  1  0  0  0  0
  6 13  1  0  0  0  0
  6 16  1  0  0  0  0
  6 17  1  0  0  0  0
  7  8  1  0  0  0  0
  7  9  1  0  0  0  0
  7 31  1  0  0  0  0
  8 13  1  0  0  0  0
  8 32  1  0  0  0  0
  9 16  1  0  0  0  0
  9 33  1  0  0  0  0
  9 34  1  0  0  0  0
 10 14  1  0  0  0  0
 10 35  1  0  0  0  0
 10 36  1  0  0  0  0
 11 15  1  0  0  0  0
 11 37  1  0  0  0  0
 11 38  1  0  0  0  0
 12 14  1  0  0  0  0
 12 15  1  0  0  0  0
 12 18  1  0  0  0  0
 12 39  1  0  0  0  0
 13 40  1  0  0  0  0
 13 41  1  0  0  0  0
 14 42  1  0  0  0  0
 14 43  1  0  0  0  0
 15 44  1  0  0  0  0
 15 45  1  0  0  0  0
 16 46  1  0  0  0  0
 16 47  1  0  0  0  0
 17 19  1  0  0  0  0
 17 48  1  0  0  0  0
 17 49  1  0  0  0  0
 18 20  1  0  0  0  0
 19 21  2  0  0  0  0
 19 22  1  0  0  0  0
 20 23  2  0  0  0  0
 20 24  1  0  0  0  0
 21 25  1  0  0  0  0
 21 51  1  0  0  0  0
 22 26  2  0  0  0  0
 22 52  1  0  0  0  0
 23 27  1  0  0  0  0
 23 53  1  0  0  0  0
 24 28  2  0  0  0  0
 24 54  1  0  0  0  0
 25 29  2  0  0  0  0
 25 55  1  0  0  0  0
 26 29  1  0  0  0  0
 26 56  1  0  0  0  0
 27 30  2  0  0  0  0
 27 57  1  0  0  0  0
 28 30  1  0  0  0  0
 28 58  1  0  0  0  0
M  END
> <PUBCHEM_COMPOUND_CID>
53391632

> <PUBCHEM_COMPOUND_CANONICALIZED>
1

> <PUBCHEM_CACTVS_COMPLEXITY>
553

> <PUBCHEM_CACTVS_HBOND_ACCEPTOR>
6

> <PUBCHEM_CACTVS_HBOND_DONOR>
1

> <PUBCHEM_CACTVS_ROTATABLE_BOND>
5

> <PUBCHEM_CACTVS_SUBSKEYS>
AAADceB7MYAAAAAAAAAAAAAAAAAAAAAAAAA8eIEAAAAAAAABQAAAHwAACAAADTzhmA4wAIMAAgCIAqBSAACCAAAkAAAIiAEIBMgKMDKA1RGEYQhkgACYiYc8iMCOAAAAAAAAAAAAAAAAAAAAAAAAAAAAAA==

> <PUBCHEM_IUPAC_OPENEYE_NAME>
(4-fluorophenyl)-[1-[(3S,4S)-1-[(4-fluorophenyl)methyl]-3-hydroxy-4-piperidyl]-4-piperidyl]methanone

> <PUBCHEM_IUPAC_CAS_NAME>
(4-fluorophenyl)-[1-[(3S,4S)-1-[(4-fluorophenyl)methyl]-3-hydroxy-4-piperidinyl]-4-piperidinyl]methanone

> <PUBCHEM_IUPAC_NAME_MARKUP>
(4-fluorophenyl)-[1-[(3<I>S</I>,4<I>S</I>)-1-[(4-fluorophenyl)methyl]-3-hydroxypiperidin-4-yl]piperidin-4-yl]methanone

> <PUBCHEM_IUPAC_NAME>
(4-fluorophenyl)-[1-[(3S,4S)-1-[(4-fluorophenyl)methyl]-3-hydroxypiperidin-4-yl]piperidin-4-yl]methanone

> <PUBCHEM_IUPAC_SYSTEMATIC_NAME>
(4-fluorophenyl)-[1-[(3S,4S)-1-[(4-fluorophenyl)methyl]-3-oxidanyl-piperidin-4-yl]piperidin-4-yl]methanone

> <PUBCHEM_IUPAC_TRADITIONAL_NAME>
[1-[(3S,4S)-1-(4-fluorobenzyl)-3-hydroxy-4-piperidyl]-4-piperidyl]-(4-fluorophenyl)methanone

> <PUBCHEM_IUPAC_INCHI>
InChI=1S/C24H28F2N2O2/c25-20-5-1-17(2-6-20)15-27-12-11-22(23(29)16-27)28-13-9-19(10-14-28)24(30)18-3-7-21(26)8-4-18/h1-8,19,22-23,29H,9-16H2/t22-,23-/m0/s1

> <PUBCHEM_IUPAC_INCHIKEY>
MIOMZHKUIQMOIR-GOTSBHOMSA-N

> <PUBCHEM_XLOGP3_AA>
3.4

> <PUBCHEM_EXACT_MASS>
414.21188446

> <PUBCHEM_MOLECULAR_FORMULA>
C24H28F2N2O2

> <PUBCHEM_MOLECULAR_WEIGHT>
414.5

> <PUBCHEM_OPENEYE_CAN_SMILES>
C1CN(CCC1C(=O)C2=CC=C(C=C2)F)C3CCN(CC3O)CC4=CC=C(C=C4)F

> <PUBCHEM_OPENEYE_ISO_SMILES>
C1CN(C[C@@H]([C@H]1N2CCC(CC2)C(=O)C3=CC=C(C=C3)F)O)CC4=CC=C(C=C4)F

> <PUBCHEM_CACTVS_TPSA>
43.8

> <PUBCHEM_MONOISOTOPIC_WEIGHT>
414.21188446

> <PUBCHEM_TOTAL_CHARGE>
0

> <PUBCHEM_HEAVY_ATOM_COUNT>
30

> <PUBCHEM_ATOM_DEF_STEREO_COUNT>
2

> <PUBCHEM_ATOM_UDEF_STEREO_COUNT>
0

> <PUBCHEM_BOND_DEF_STEREO_COUNT>
0

> <PUBCHEM_BOND_UDEF_STEREO_COUNT>
0

> <PUBCHEM_ISOTOPIC_ATOM_COUNT>
0

> <PUBCHEM_COMPONENT_COUNT>
1

> <PUBCHEM_CACTVS_TAUTO_COUNT>
-1

> <PUBCHEM_COORDINATE_TYPE>
1
5
255

> <PUBCHEM_BONDANNOTATIONS>
19  21  8
19  22  8
20  23  8
20  24  8
21  25  8
22  26  8
23  27  8
24  28  8
25  29  8
26  29  8
27  30  8
28  30  8
8  3  5
7  5  6

$$$$
