145986138
  -OEChem-09292322392D

 62 67  0     1  0  0  0  0  0999 V2000
    4.6660   -0.9672    0.0000 S   0  0  0  0  0  0  0  0  0  0  0  0
   12.6779    3.4182    0.0000 S   0  0  0  0  0  0  0  0  0  0  0  0
    5.6660   -0.9672    0.0000 O   0  0  0  0  0  0  0  0  0  0  0  0
    3.6660   -0.9672    0.0000 O   0  0  0  0  0  0  0  0  0  0  0  0
    4.6660    0.0328    0.0000 N   0  0  3  0  0  0  0  0  0  0  0  0
    7.8731    1.6060    0.0000 N   0  0  0  0  0  0  0  0  0  0  0  0
    9.8731    1.6060    0.0000 N   0  0  0  0  0  0  0  0  0  0  0  0
    5.5321   -3.4672    0.0000 N   0  0  0  0  0  0  0  0  0  0  0  0
    5.3731    0.7399    0.0000 C   0  0  2  0  0  0  0  0  0  0  0  0
    4.6660    1.4470    0.0000 C   0  0  0  0  0  0  0  0  0  0  0  0
    3.9589    0.7399    0.0000 C   0  0  0  0  0  0  0  0  0  0  0  0
    6.3731    0.7399    0.0000 C   0  0  0  0  0  0  0  0  0  0  0  0
    6.8731    1.6060    0.0000 C   0  0  0  0  0  0  0  0  0  0  0  0
    8.3731    0.7399    0.0000 C   0  0  0  0  0  0  0  0  0  0  0  0
    8.3731    2.4720    0.0000 C   0  0  0  0  0  0  0  0  0  0  0  0
    9.3731    0.7399    0.0000 C   0  0  0  0  0  0  0  0  0  0  0  0
    9.3731    2.4720    0.0000 C   0  0  0  0  0  0  0  0  0  0  0  0
    4.6660   -1.9672    0.0000 C   0  0  0  0  0  0  0  0  0  0  0  0
   10.8731    1.6060    0.0000 C   0  0  0  0  0  0  0  0  0  0  0  0
    3.8000   -2.4672    0.0000 C   0  0  0  0  0  0  0  0  0  0  0  0
    5.5321   -2.4672    0.0000 C   0  0  0  0  0  0  0  0  0  0  0  0
   11.3731    2.4720    0.0000 C   0  0  0  0  0  0  0  0  0  0  0  0
    3.8000   -3.4672    0.0000 C   0  0  0  0  0  0  0  0  0  0  0  0
   11.3731    0.7399    0.0000 C   0  0  0  0  0  0  0  0  0  0  0  0
    2.9061   -1.9325    0.0000 C   0  0  0  0  0  0  0  0  0  0  0  0
   12.3731    2.4720    0.0000 C   0  0  0  0  0  0  0  0  0  0  0  0
    4.6660   -3.9672    0.0000 C   0  0  0  0  0  0  0  0  0  0  0  0
   11.0684    3.4182    0.0000 C   0  0  0  0  0  0  0  0  0  0  0  0
   12.3731    0.7399    0.0000 C   0  0  0  0  0  0  0  0  0  0  0  0
    2.9061   -4.0018    0.0000 C   0  0  0  0  0  0  0  0  0  0  0  0
   12.8731    1.6060    0.0000 C   0  0  0  0  0  0  0  0  0  0  0  0
    2.0000   -2.4463    0.0000 C   0  0  0  0  0  0  0  0  0  0  0  0
    2.0000   -3.4880    0.0000 C   0  0  0  0  0  0  0  0  0  0  0  0
   11.8731    4.0018    0.0000 C   0  0  0  0  0  0  0  0  0  0  0  0
    5.6104    0.1671    0.0000 H   0  0  0  0  0  0  0  0  0  0  0  0
    5.1044    1.8855    0.0000 H   0  0  0  0  0  0  0  0  0  0  0  0
    4.2276    1.8855    0.0000 H   0  0  0  0  0  0  0  0  0  0  0  0
    3.5205    1.1784    0.0000 H   0  0  0  0  0  0  0  0  0  0  0  0
    3.5205    0.3015    0.0000 H   0  0  0  0  0  0  0  0  0  0  0  0
    6.2655    0.1294    0.0000 H   0  0  0  0  0  0  0  0  0  0  0  0
    6.9558    0.5279    0.0000 H   0  0  0  0  0  0  0  0  0  0  0  0
    6.9808    2.2165    0.0000 H   0  0  0  0  0  0  0  0  0  0  0  0
    6.2905    1.8180    0.0000 H   0  0  0  0  0  0  0  0  0  0  0  0
    7.7905    0.5279    0.0000 H   0  0  0  0  0  0  0  0  0  0  0  0
    8.4808    0.1294    0.0000 H   0  0  0  0  0  0  0  0  0  0  0  0
    8.4808    3.0826    0.0000 H   0  0  0  0  0  0  0  0  0  0  0  0
    7.7905    2.6840    0.0000 H   0  0  0  0  0  0  0  0  0  0  0  0
    9.2655    0.1294    0.0000 H   0  0  0  0  0  0  0  0  0  0  0  0
    9.9558    0.5279    0.0000 H   0  0  0  0  0  0  0  0  0  0  0  0
    9.9558    2.6840    0.0000 H   0  0  0  0  0  0  0  0  0  0  0  0
    9.2655    3.0826    0.0000 H   0  0  0  0  0  0  0  0  0  0  0  0
    6.0690   -2.1572    0.0000 H   0  0  0  0  0  0  0  0  0  0  0  0
   11.0631    0.2030    0.0000 H   0  0  0  0  0  0  0  0  0  0  0  0
    2.9132   -1.3125    0.0000 H   0  0  0  0  0  0  0  0  0  0  0  0
    4.6660   -4.5872    0.0000 H   0  0  0  0  0  0  0  0  0  0  0  0
   10.4791    3.6108    0.0000 H   0  0  0  0  0  0  0  0  0  0  0  0
   12.6831    0.2030    0.0000 H   0  0  0  0  0  0  0  0  0  0  0  0
    2.9132   -4.6218    0.0000 H   0  0  0  0  0  0  0  0  0  0  0  0
   13.4931    1.6060    0.0000 H   0  0  0  0  0  0  0  0  0  0  0  0
    1.4643   -2.1343    0.0000 H   0  0  0  0  0  0  0  0  0  0  0  0
    1.4643   -3.8000    0.0000 H   0  0  0  0  0  0  0  0  0  0  0  0
   11.8731    4.6218    0.0000 H   0  0  0  0  0  0  0  0  0  0  0  0
  1  3  2  0  0  0  0
  1  4  2  0  0  0  0
  1  5  1  0  0  0  0
  1 18  1  0  0  0  0
  2 26  1  0  0  0  0
  2 34  1  0  0  0  0
  5  9  1  0  0  0  0
  5 11  1  0  0  0  0
  6 13  1  0  0  0  0
  6 14  1  0  0  0  0
  6 15  1  0  0  0  0
  7 16  1  0  0  0  0
  7 17  1  0  0  0  0
  7 19  1  0  0  0  0
  8 21  1  0  0  0  0
  8 27  2  0  0  0  0
  9 10  1  0  0  0  0
  9 12  1  6  0  0  0
  9 35  1  0  0  0  0
 10 11  1  0  0  0  0
 10 36  1  0  0  0  0
 10 37  1  0  0  0  0
 11 38  1  0  0  0  0
 11 39  1  0  0  0  0
 12 13  1  0  0  0  0
 12 40  1  0  0  0  0
 12 41  1  0  0  0  0
 13 42  1  0  0  0  0
 13 43  1  0  0  0  0
 14 16  1  0  0  0  0
 14 44  1  0  0  0  0
 14 45  1  0  0  0  0
 15 17  1  0  0  0  0
 15 46  1  0  0  0  0
 15 47  1  0  0  0  0
 16 48  1  0  0  0  0
 16 49  1  0  0  0  0
 17 50  1  0  0  0  0
 17 51  1  0  0  0  0
 18 20  1  0  0  0  0
 18 21  2  0  0  0  0
 19 22  2  0  0  0  0
 19 24  1  0  0  0  0
 20 23  1  0  0  0  0
 20 25  2  0  0  0  0
 21 52  1  0  0  0  0
 22 26  1  0  0  0  0
 22 28  1  0  0  0  0
 23 27  1  0  0  0  0
 23 30  2  0  0  0  0
 24 29  2  0  0  0  0
 24 53  1  0  0  0  0
 25 32  1  0  0  0  0
 25 54  1  0  0  0  0
 26 31  2  0  0  0  0
 27 55  1  0  0  0  0
 28 34  2  0  0  0  0
 28 56  1  0  0  0  0
 29 31  1  0  0  0  0
 29 57  1  0  0  0  0
 30 33  1  0  0  0  0
 30 58  1  0  0  0  0
 31 59  1  0  0  0  0
 32 33  2  0  0  0  0
 32 60  1  0  0  0  0
 33 61  1  0  0  0  0
 34 62  1  0  0  0  0
M  END
> <PUBCHEM_COMPOUND_CID>
145986138

> <PUBCHEM_COMPOUND_CANONICALIZED>
1

> <PUBCHEM_CACTVS_COMPLEXITY>
797

> <PUBCHEM_CACTVS_HBOND_ACCEPTOR>
7

> <PUBCHEM_CACTVS_HBOND_DONOR>
0

> <PUBCHEM_CACTVS_ROTATABLE_BOND>
6

> <PUBCHEM_CACTVS_SUBSKEYS>
AAADceB7sABgAAAAAAAAAAAAAABYASAAAAA8eIEAAAAAAEix/gAAHAQAQAAADCjFWgS8wdMIEAqkAjRnRHDDgLAxCjBI2DwoZJgIYOLg0ZGUIAxggADoyAcQgIAOgAAAACAWAAAAAAAAQCwAAAAAAAAAAA==

> <PUBCHEM_IUPAC_OPENEYE_NAME>
4-[(2S)-2-[2-[4-(benzothiophen-4-yl)piperazin-1-yl]ethyl]azetidin-1-yl]sulfonylisoquinoline

> <PUBCHEM_IUPAC_CAS_NAME>
4-[[(2S)-2-[2-[4-(1-benzothiophen-4-yl)-1-piperazinyl]ethyl]-1-azetidinyl]sulfonyl]isoquinoline

> <PUBCHEM_IUPAC_NAME_MARKUP>
4-[(2<I>S</I>)-2-[2-[4-(1-benzothiophen-4-yl)piperazin-1-yl]ethyl]azetidin-1-yl]sulfonylisoquinoline

> <PUBCHEM_IUPAC_NAME>
4-[(2S)-2-[2-[4-(1-benzothiophen-4-yl)piperazin-1-yl]ethyl]azetidin-1-yl]sulfonylisoquinoline

> <PUBCHEM_IUPAC_SYSTEMATIC_NAME>
4-[(2S)-2-[2-[4-(1-benzothiophen-4-yl)piperazin-1-yl]ethyl]azetidin-1-yl]sulfonylisoquinoline

> <PUBCHEM_IUPAC_TRADITIONAL_NAME>
4-[(2S)-2-[2-[4-(benzothiophen-4-yl)piperazino]ethyl]azetidin-1-yl]sulfonylisoquinoline

> <PUBCHEM_IUPAC_INCHI>
InChI=1S/C26H28N4O2S2/c31-34(32,26-19-27-18-20-4-1-2-5-22(20)26)30-12-9-21(30)8-11-28-13-15-29(16-14-28)24-6-3-7-25-23(24)10-17-33-25/h1-7,10,17-19,21H,8-9,11-16H2/t21-/m0/s1

> <PUBCHEM_IUPAC_INCHIKEY>
APLABOCEGYBQFY-NRFANRHFSA-N

> <PUBCHEM_XLOGP3_AA>
4.5

> <PUBCHEM_EXACT_MASS>
492.16536850

> <PUBCHEM_MOLECULAR_FORMULA>
C26H28N4O2S2

> <PUBCHEM_MOLECULAR_WEIGHT>
492.7

> <PUBCHEM_OPENEYE_CAN_SMILES>
C1CN(C1CCN2CCN(CC2)C3=C4C=CSC4=CC=C3)S(=O)(=O)C5=CN=CC6=CC=CC=C65

> <PUBCHEM_OPENEYE_ISO_SMILES>
C1CN([C@H]1CCN2CCN(CC2)C3=C4C=CSC4=CC=C3)S(=O)(=O)C5=CN=CC6=CC=CC=C65

> <PUBCHEM_CACTVS_TPSA>
93.4

> <PUBCHEM_MONOISOTOPIC_WEIGHT>
492.16536850

> <PUBCHEM_TOTAL_CHARGE>
0

> <PUBCHEM_HEAVY_ATOM_COUNT>
34

> <PUBCHEM_ATOM_DEF_STEREO_COUNT>
1

> <PUBCHEM_ATOM_UDEF_STEREO_COUNT>
0

> <PUBCHEM_BOND_DEF_STEREO_COUNT>
0

> <PUBCHEM_BOND_UDEF_STEREO_COUNT>
0

> <PUBCHEM_ISOTOPIC_ATOM_COUNT>
0

> <PUBCHEM_COMPONENT_COUNT>
1

> <PUBCHEM_CACTVS_TAUTO_COUNT>
-1

> <PUBCHEM_COORDINATE_TYPE>
1
5
255

> <PUBCHEM_BONDANNOTATIONS>
18  20  8
18  21  8
19  22  8
19  24  8
2  26  8
2  34  8
20  23  8
20  25  8
22  26  8
22  28  8
23  27  8
23  30  8
24  29  8
25  32  8
26  31  8
28  34  8
29  31  8
30  33  8
32  33  8
8  21  8
8  27  8
9  12  6

$$$$
