44415645
  -OEChem-09292322482D

 72 78  0     0  0  0  0  0  0999 V2000
    8.7204   -1.4953    0.0000 Cl  0  0  0  0  0  0  0  0  0  0  0  0
    4.0169   -5.3222    0.0000 Cl  0  0  0  0  0  0  0  0  0  0  0  0
    2.8739    6.4571    0.0000 O   0  0  0  0  0  0  0  0  0  0  0  0
    4.9375    6.3025    0.0000 O   0  0  0  0  0  0  0  0  0  0  0  0
    6.6150   -3.8223    0.0000 O   0  0  0  0  0  0  0  0  0  0  0  0
    3.0814    2.0713    0.0000 N   0  0  0  0  0  0  0  0  0  0  0  0
    3.9491    0.2694    0.0000 N   0  0  0  0  0  0  0  0  0  0  0  0
    5.3830   -0.6316    0.0000 N   0  0  0  0  0  0  0  0  0  0  0  0
    4.8830   -2.8222    0.0000 N   0  0  0  0  0  0  0  0  0  0  0  0
    4.8830   -3.8222    0.0000 N   0  0  0  0  0  0  0  0  0  0  0  0
    4.0786    1.9966    0.0000 C   0  0  0  0  0  0  0  0  0  0  0  0
    2.5180    1.2451    0.0000 C   0  0  0  0  0  0  0  0  0  0  0  0
    4.5125    1.0956    0.0000 C   0  0  0  0  0  0  0  0  0  0  0  0
    2.9519    0.3441    0.0000 C   0  0  0  0  0  0  0  0  0  0  0  0
    2.6475    2.9723    0.0000 C   0  0  0  0  0  0  0  0  0  0  0  0
    4.3830   -0.6316    0.0000 C   0  0  0  0  0  0  0  0  0  0  0  0
    3.2108    3.7985    0.0000 C   0  0  0  0  0  0  0  0  0  0  0  0
    3.7595   -1.4134    0.0000 C   0  0  0  0  0  0  0  0  0  0  0  0
    3.9820   -2.3884    0.0000 C   0  0  0  0  0  0  0  0  0  0  0  0
    2.7769    4.6995    0.0000 C   0  0  0  0  0  0  0  0  0  0  0  0
    6.0065   -1.4135    0.0000 C   0  0  0  0  0  0  0  0  0  0  0  0
    4.2080    3.7238    0.0000 C   0  0  0  0  0  0  0  0  0  0  0  0
    5.7840   -2.3884    0.0000 C   0  0  0  0  0  0  0  0  0  0  0  0
    2.7690   -1.0911    0.0000 C   0  0  0  0  0  0  0  0  0  0  0  0
    3.3403    5.5257    0.0000 C   0  0  0  0  0  0  0  0  0  0  0  0
    3.2295   -3.1085    0.0000 C   0  0  0  0  0  0  0  0  0  0  0  0
    4.3375    5.4510    0.0000 C   0  0  0  0  0  0  0  0  0  0  0  0
    4.7714    4.5500    0.0000 C   0  0  0  0  0  0  0  0  0  0  0  0
    2.0000   -1.7937    0.0000 C   0  0  0  0  0  0  0  0  0  0  0  0
    2.2318   -2.8092    0.0000 C   0  0  0  0  0  0  0  0  0  0  0  0
    6.9970   -1.0911    0.0000 C   0  0  0  0  0  0  0  0  0  0  0  0
    6.5365   -3.1086    0.0000 C   0  0  0  0  0  0  0  0  0  0  0  0
    3.4540    7.3223    0.0000 C   0  0  0  0  0  0  0  0  0  0  0  0
    4.4928    7.2444    0.0000 C   0  0  0  0  0  0  0  0  0  0  0  0
    7.7660   -1.7937    0.0000 C   0  0  0  0  0  0  0  0  0  0  0  0
    7.5342   -2.8092    0.0000 C   0  0  0  0  0  0  0  0  0  0  0  0
    5.7490   -4.3223    0.0000 C   0  0  0  0  0  0  0  0  0  0  0  0
    5.7490   -5.3223    0.0000 C   0  0  0  0  0  0  0  0  0  0  0  0
    4.8830   -5.8223    0.0000 C   0  0  0  0  0  0  0  0  0  0  0  0
    6.6150   -5.8223    0.0000 C   0  0  0  0  0  0  0  0  0  0  0  0
    4.8830   -6.8222    0.0000 C   0  0  0  0  0  0  0  0  0  0  0  0
    6.6150   -6.8223    0.0000 C   0  0  0  0  0  0  0  0  0  0  0  0
    5.7490   -7.3223    0.0000 C   0  0  0  0  0  0  0  0  0  0  0  0
    4.6754    2.1645    0.0000 H   0  0  0  0  0  0  0  0  0  0  0  0
    4.0168    2.6135    0.0000 H   0  0  0  0  0  0  0  0  0  0  0  0
    2.0742    1.6780    0.0000 H   0  0  0  0  0  0  0  0  0  0  0  0
    2.0146    0.8832    0.0000 H   0  0  0  0  0  0  0  0  0  0  0  0
    4.9563    0.6627    0.0000 H   0  0  0  0  0  0  0  0  0  0  0  0
    5.0159    1.4575    0.0000 H   0  0  0  0  0  0  0  0  0  0  0  0
    2.3551    0.1762    0.0000 H   0  0  0  0  0  0  0  0  0  0  0  0
    3.0137   -0.2728    0.0000 H   0  0  0  0  0  0  0  0  0  0  0  0
    2.2037    3.4052    0.0000 H   0  0  0  0  0  0  0  0  0  0  0  0
    2.1441    2.6104    0.0000 H   0  0  0  0  0  0  0  0  0  0  0  0
    2.1587    4.7458    0.0000 H   0  0  0  0  0  0  0  0  0  0  0  0
    4.4770    3.1652    0.0000 H   0  0  0  0  0  0  0  0  0  0  0  0
    2.6380   -0.4851    0.0000 H   0  0  0  0  0  0  0  0  0  0  0  0
    3.3744   -3.7114    0.0000 H   0  0  0  0  0  0  0  0  0  0  0  0
    5.3896    4.5037    0.0000 H   0  0  0  0  0  0  0  0  0  0  0  0
    1.4083   -1.6086    0.0000 H   0  0  0  0  0  0  0  0  0  0  0  0
    1.7789   -3.2326    0.0000 H   0  0  0  0  0  0  0  0  0  0  0  0
    7.1280   -0.4851    0.0000 H   0  0  0  0  0  0  0  0  0  0  0  0
    6.3916   -3.7114    0.0000 H   0  0  0  0  0  0  0  0  0  0  0  0
    4.3460   -4.1322    0.0000 H   0  0  0  0  0  0  0  0  0  0  0  0
    3.6055    7.9235    0.0000 H   0  0  0  0  0  0  0  0  0  0  0  0
    2.8876    7.5744    0.0000 H   0  0  0  0  0  0  0  0  0  0  0  0
    5.0904    7.4093    0.0000 H   0  0  0  0  0  0  0  0  0  0  0  0
    4.4326    7.8615    0.0000 H   0  0  0  0  0  0  0  0  0  0  0  0
    7.9871   -3.2327    0.0000 H   0  0  0  0  0  0  0  0  0  0  0  0
    7.1520   -5.5123    0.0000 H   0  0  0  0  0  0  0  0  0  0  0  0
    4.3460   -7.1322    0.0000 H   0  0  0  0  0  0  0  0  0  0  0  0
    7.1520   -7.1323    0.0000 H   0  0  0  0  0  0  0  0  0  0  0  0
    5.7490   -7.9423    0.0000 H   0  0  0  0  0  0  0  0  0  0  0  0
  1 35  1  0  0  0  0
  2 39  1  0  0  0  0
  3 25  1  0  0  0  0
  3 33  1  0  0  0  0
  4 27  1  0  0  0  0
  4 34  1  0  0  0  0
  5 37  2  0  0  0  0
  6 11  1  0  0  0  0
  6 12  1  0  0  0  0
  6 15  1  0  0  0  0
  7 13  1  0  0  0  0
  7 14  1  0  0  0  0
  7 16  1  0  0  0  0
  8 16  2  0  0  0  0
  8 21  1  0  0  0  0
  9 10  1  0  0  0  0
  9 19  1  0  0  0  0
  9 23  1  0  0  0  0
 10 37  1  0  0  0  0
 10 63  1  0  0  0  0
 11 13  1  0  0  0  0
 11 44  1  0  0  0  0
 11 45  1  0  0  0  0
 12 14  1  0  0  0  0
 12 46  1  0  0  0  0
 12 47  1  0  0  0  0
 13 48  1  0  0  0  0
 13 49  1  0  0  0  0
 14 50  1  0  0  0  0
 14 51  1  0  0  0  0
 15 17  1  0  0  0  0
 15 52  1  0  0  0  0
 15 53  1  0  0  0  0
 16 18  1  0  0  0  0
 17 20  2  0  0  0  0
 17 22  1  0  0  0  0
 18 19  1  0  0  0  0
 18 24  2  0  0  0  0
 19 26  2  0  0  0  0
 20 25  1  0  0  0  0
 20 54  1  0  0  0  0
 21 23  2  0  0  0  0
 21 31  1  0  0  0  0
 22 28  2  0  0  0  0
 22 55  1  0  0  0  0
 23 32  1  0  0  0  0
 24 29  1  0  0  0  0
 24 56  1  0  0  0  0
 25 27  2  0  0  0  0
 26 30  1  0  0  0  0
 26 57  1  0  0  0  0
 27 28  1  0  0  0  0
 28 58  1  0  0  0  0
 29 30  2  0  0  0  0
 29 59  1  0  0  0  0
 30 60  1  0  0  0  0
 31 35  2  0  0  0  0
 31 61  1  0  0  0  0
 32 36  2  0  0  0  0
 32 62  1  0  0  0  0
 33 34  1  0  0  0  0
 33 64  1  0  0  0  0
 33 65  1  0  0  0  0
 34 66  1  0  0  0  0
 34 67  1  0  0  0  0
 35 36  1  0  0  0  0
 36 68  1  0  0  0  0
 37 38  1  0  0  0  0
 38 39  1  0  0  0  0
 38 40  2  0  0  0  0
 39 41  2  0  0  0  0
 40 42  1  0  0  0  0
 40 69  1  0  0  0  0
 41 43  1  0  0  0  0
 41 70  1  0  0  0  0
 42 43  2  0  0  0  0
 42 71  1  0  0  0  0
 43 72  1  0  0  0  0
M  END
> <PUBCHEM_COMPOUND_CID>
44415645

> <PUBCHEM_COMPOUND_CANONICALIZED>
1

> <PUBCHEM_CACTVS_COMPLEXITY>
996

> <PUBCHEM_CACTVS_HBOND_ACCEPTOR>
6

> <PUBCHEM_CACTVS_HBOND_DONOR>
1

> <PUBCHEM_CACTVS_ROTATABLE_BOND>
5

> <PUBCHEM_CACTVS_SUBSKEYS>
AAADceB/sAAGAAAAAAAAAAAAAAAAAAAAAAA8aMGCBAAAAACRVAAAHgIYAAAADA7hmCYxxoNiBACoAidydACCDAElJwAbqAEu/tgNZvLF/5uWOSrkwBHK7Ye42BKOIABBAAIDQCBAAIIABAaAQAAAAAAAAA==

> <PUBCHEM_IUPAC_OPENEYE_NAME>
2-chloro-N-[3-chloro-6-[4-(2,3-dihydro-1,4-benzodioxin-6-ylmethyl)piperazin-1-yl]benzo[b][1,4]benzodiazepin-11-yl]benzamide

> <PUBCHEM_IUPAC_CAS_NAME>
2-chloro-N-[3-chloro-6-[4-(2,3-dihydro-1,4-benzodioxin-6-ylmethyl)-1-piperazinyl]-11-benzo[b][1,4]benzodiazepinyl]benzamide

> <PUBCHEM_IUPAC_NAME_MARKUP>
2-chloro-<I>N</I>-[3-chloro-6-[4-(2,3-dihydro-1,4-benzodioxin-6-ylmethyl)piperazin-1-yl]benzo[b][1,4]benzodiazepin-11-yl]benzamide

> <PUBCHEM_IUPAC_NAME>
2-chloro-N-[3-chloro-6-[4-(2,3-dihydro-1,4-benzodioxin-6-ylmethyl)piperazin-1-yl]benzo[b][1,4]benzodiazepin-11-yl]benzamide

> <PUBCHEM_IUPAC_SYSTEMATIC_NAME>
2-chloranyl-N-[3-chloranyl-6-[4-(2,3-dihydro-1,4-benzodioxin-6-ylmethyl)piperazin-1-yl]benzo[b][1,4]benzodiazepin-11-yl]benzamide

> <PUBCHEM_IUPAC_TRADITIONAL_NAME>
2-chloro-N-[3-chloro-6-[4-(2,3-dihydro-1,4-benzodioxin-6-ylmethyl)piperazino]benzo[b][1,4]benzodiazepin-11-yl]benzamide

> <PUBCHEM_IUPAC_INCHI>
InChI=1S/C33H29Cl2N5O3/c34-23-10-11-29-27(20-23)36-32(25-6-2-4-8-28(25)40(29)37-33(41)24-5-1-3-7-26(24)35)39-15-13-38(14-16-39)21-22-9-12-30-31(19-22)43-18-17-42-30/h1-12,19-20H,13-18,21H2,(H,37,41)

> <PUBCHEM_IUPAC_INCHIKEY>
AAIIXWICIBRNOC-UHFFFAOYSA-N

> <PUBCHEM_XLOGP3_AA>
6.2

> <PUBCHEM_EXACT_MASS>
613.1647452

> <PUBCHEM_MOLECULAR_FORMULA>
C33H29Cl2N5O3

> <PUBCHEM_MOLECULAR_WEIGHT>
614.5

> <PUBCHEM_OPENEYE_CAN_SMILES>
C1CN(CCN1CC2=CC3=C(C=C2)OCCO3)C4=NC5=C(C=CC(=C5)Cl)N(C6=CC=CC=C64)NC(=O)C7=CC=CC=C7Cl

> <PUBCHEM_OPENEYE_ISO_SMILES>
C1CN(CCN1CC2=CC3=C(C=C2)OCCO3)C4=NC5=C(C=CC(=C5)Cl)N(C6=CC=CC=C64)NC(=O)C7=CC=CC=C7Cl

> <PUBCHEM_CACTVS_TPSA>
69.6

> <PUBCHEM_MONOISOTOPIC_WEIGHT>
613.1647452

> <PUBCHEM_TOTAL_CHARGE>
0

> <PUBCHEM_HEAVY_ATOM_COUNT>
43

> <PUBCHEM_ATOM_DEF_STEREO_COUNT>
0

> <PUBCHEM_ATOM_UDEF_STEREO_COUNT>
0

> <PUBCHEM_BOND_DEF_STEREO_COUNT>
0

> <PUBCHEM_BOND_UDEF_STEREO_COUNT>
0

> <PUBCHEM_ISOTOPIC_ATOM_COUNT>
0

> <PUBCHEM_COMPONENT_COUNT>
1

> <PUBCHEM_CACTVS_TAUTO_COUNT>
-1

> <PUBCHEM_COORDINATE_TYPE>
1
5
255

> <PUBCHEM_BONDANNOTATIONS>
17  20  8
17  22  8
18  19  8
18  24  8
19  26  8
20  25  8
21  23  8
21  31  8
22  28  8
23  32  8
24  29  8
25  27  8
26  30  8
27  28  8
29  30  8
31  35  8
32  36  8
35  36  8
38  39  8
38  40  8
39  41  8
40  42  8
41  43  8
42  43  8

$$$$
