44415759
  -OEChem-09292322482D

 68 72  0     0  0  0  0  0  0999 V2000
    8.7204   -0.1465    0.0000 Cl  0  0  0  0  0  0  0  0  0  0  0  0
    4.0169   -3.9735    0.0000 Cl  0  0  0  0  0  0  0  0  0  0  0  0
    6.6150   -2.4735    0.0000 O   0  0  0  0  0  0  0  0  0  0  0  0
    3.0814    3.4201    0.0000 N   0  0  0  0  0  0  0  0  0  0  0  0
    3.9491    1.6181    0.0000 N   0  0  0  0  0  0  0  0  0  0  0  0
    5.3830    0.7171    0.0000 N   0  0  0  0  0  0  0  0  0  0  0  0
    4.8830   -1.4735    0.0000 N   0  0  0  0  0  0  0  0  0  0  0  0
    4.8830   -2.4735    0.0000 N   0  0  0  0  0  0  0  0  0  0  0  0
    3.2108    5.1473    0.0000 C   0  0  0  0  0  0  0  0  0  0  0  0
    2.6475    4.3210    0.0000 C   0  0  0  0  0  0  0  0  0  0  0  0
    4.0786    3.3453    0.0000 C   0  0  0  0  0  0  0  0  0  0  0  0
    2.5180    2.5938    0.0000 C   0  0  0  0  0  0  0  0  0  0  0  0
    4.5125    2.4444    0.0000 C   0  0  0  0  0  0  0  0  0  0  0  0
    2.9519    1.6929    0.0000 C   0  0  0  0  0  0  0  0  0  0  0  0
    3.7742    5.9735    0.0000 C   0  0  0  0  0  0  0  0  0  0  0  0
    2.3846    5.7106    0.0000 C   0  0  0  0  0  0  0  0  0  0  0  0
    4.0371    4.5839    0.0000 C   0  0  0  0  0  0  0  0  0  0  0  0
    4.3830    0.7171    0.0000 C   0  0  0  0  0  0  0  0  0  0  0  0
    3.7595   -0.0647    0.0000 C   0  0  0  0  0  0  0  0  0  0  0  0
    3.9820   -1.0396    0.0000 C   0  0  0  0  0  0  0  0  0  0  0  0
    6.0065   -0.0647    0.0000 C   0  0  0  0  0  0  0  0  0  0  0  0
    2.7690    0.2577    0.0000 C   0  0  0  0  0  0  0  0  0  0  0  0
    5.7840   -1.0396    0.0000 C   0  0  0  0  0  0  0  0  0  0  0  0
    3.2295   -1.7598    0.0000 C   0  0  0  0  0  0  0  0  0  0  0  0
    2.0000   -0.4449    0.0000 C   0  0  0  0  0  0  0  0  0  0  0  0
    2.2318   -1.4604    0.0000 C   0  0  0  0  0  0  0  0  0  0  0  0
    6.9970    0.2576    0.0000 C   0  0  0  0  0  0  0  0  0  0  0  0
    6.5365   -1.7598    0.0000 C   0  0  0  0  0  0  0  0  0  0  0  0
    7.7660   -0.4450    0.0000 C   0  0  0  0  0  0  0  0  0  0  0  0
    7.5342   -1.4605    0.0000 C   0  0  0  0  0  0  0  0  0  0  0  0
    5.7490   -2.9735    0.0000 C   0  0  0  0  0  0  0  0  0  0  0  0
    5.7490   -3.9735    0.0000 C   0  0  0  0  0  0  0  0  0  0  0  0
    4.8830   -4.4735    0.0000 C   0  0  0  0  0  0  0  0  0  0  0  0
    6.6150   -4.4735    0.0000 C   0  0  0  0  0  0  0  0  0  0  0  0
    4.8830   -5.4735    0.0000 C   0  0  0  0  0  0  0  0  0  0  0  0
    6.6150   -5.4735    0.0000 C   0  0  0  0  0  0  0  0  0  0  0  0
    5.7490   -5.9735    0.0000 C   0  0  0  0  0  0  0  0  0  0  0  0
    2.2037    4.7540    0.0000 H   0  0  0  0  0  0  0  0  0  0  0  0
    2.1441    3.9591    0.0000 H   0  0  0  0  0  0  0  0  0  0  0  0
    4.6754    3.5132    0.0000 H   0  0  0  0  0  0  0  0  0  0  0  0
    4.0168    3.9622    0.0000 H   0  0  0  0  0  0  0  0  0  0  0  0
    2.0742    3.0267    0.0000 H   0  0  0  0  0  0  0  0  0  0  0  0
    2.0146    2.2319    0.0000 H   0  0  0  0  0  0  0  0  0  0  0  0
    4.9563    2.0114    0.0000 H   0  0  0  0  0  0  0  0  0  0  0  0
    5.0159    2.8063    0.0000 H   0  0  0  0  0  0  0  0  0  0  0  0
    2.3551    1.5249    0.0000 H   0  0  0  0  0  0  0  0  0  0  0  0
    3.0137    1.0759    0.0000 H   0  0  0  0  0  0  0  0  0  0  0  0
    4.2864    5.6242    0.0000 H   0  0  0  0  0  0  0  0  0  0  0  0
    4.1234    6.4858    0.0000 H   0  0  0  0  0  0  0  0  0  0  0  0
    3.2619    6.3228    0.0000 H   0  0  0  0  0  0  0  0  0  0  0  0
    2.7339    6.2229    0.0000 H   0  0  0  0  0  0  0  0  0  0  0  0
    1.8723    6.0599    0.0000 H   0  0  0  0  0  0  0  0  0  0  0  0
    2.0353    5.1983    0.0000 H   0  0  0  0  0  0  0  0  0  0  0  0
    3.6878    4.0717    0.0000 H   0  0  0  0  0  0  0  0  0  0  0  0
    4.5493    4.2347    0.0000 H   0  0  0  0  0  0  0  0  0  0  0  0
    4.3863    5.0962    0.0000 H   0  0  0  0  0  0  0  0  0  0  0  0
    2.6380    0.8637    0.0000 H   0  0  0  0  0  0  0  0  0  0  0  0
    3.3744   -2.3626    0.0000 H   0  0  0  0  0  0  0  0  0  0  0  0
    1.4083   -0.2599    0.0000 H   0  0  0  0  0  0  0  0  0  0  0  0
    7.1280    0.8636    0.0000 H   0  0  0  0  0  0  0  0  0  0  0  0
    1.7789   -1.8839    0.0000 H   0  0  0  0  0  0  0  0  0  0  0  0
    6.3916   -2.3626    0.0000 H   0  0  0  0  0  0  0  0  0  0  0  0
    4.3460   -2.7835    0.0000 H   0  0  0  0  0  0  0  0  0  0  0  0
    7.9871   -1.8839    0.0000 H   0  0  0  0  0  0  0  0  0  0  0  0
    7.1520   -4.1635    0.0000 H   0  0  0  0  0  0  0  0  0  0  0  0
    4.3460   -5.7835    0.0000 H   0  0  0  0  0  0  0  0  0  0  0  0
    7.1520   -5.7835    0.0000 H   0  0  0  0  0  0  0  0  0  0  0  0
    5.7490   -6.5935    0.0000 H   0  0  0  0  0  0  0  0  0  0  0  0
  1 29  1  0  0  0  0
  2 33  1  0  0  0  0
  3 31  2  0  0  0  0
  4 10  1  0  0  0  0
  4 11  1  0  0  0  0
  4 12  1  0  0  0  0
  5 13  1  0  0  0  0
  5 14  1  0  0  0  0
  5 18  1  0  0  0  0
  6 18  2  0  0  0  0
  6 21  1  0  0  0  0
  7  8  1  0  0  0  0
  7 20  1  0  0  0  0
  7 23  1  0  0  0  0
  8 31  1  0  0  0  0
  8 63  1  0  0  0  0
  9 10  1  0  0  0  0
  9 15  1  0  0  0  0
  9 16  1  0  0  0  0
  9 17  1  0  0  0  0
 10 38  1  0  0  0  0
 10 39  1  0  0  0  0
 11 13  1  0  0  0  0
 11 40  1  0  0  0  0
 11 41  1  0  0  0  0
 12 14  1  0  0  0  0
 12 42  1  0  0  0  0
 12 43  1  0  0  0  0
 13 44  1  0  0  0  0
 13 45  1  0  0  0  0
 14 46  1  0  0  0  0
 14 47  1  0  0  0  0
 15 48  1  0  0  0  0
 15 49  1  0  0  0  0
 15 50  1  0  0  0  0
 16 51  1  0  0  0  0
 16 52  1  0  0  0  0
 16 53  1  0  0  0  0
 17 54  1  0  0  0  0
 17 55  1  0  0  0  0
 17 56  1  0  0  0  0
 18 19  1  0  0  0  0
 19 20  1  0  0  0  0
 19 22  2  0  0  0  0
 20 24  2  0  0  0  0
 21 23  2  0  0  0  0
 21 27  1  0  0  0  0
 22 25  1  0  0  0  0
 22 57  1  0  0  0  0
 23 28  1  0  0  0  0
 24 26  1  0  0  0  0
 24 58  1  0  0  0  0
 25 26  2  0  0  0  0
 25 59  1  0  0  0  0
 26 61  1  0  0  0  0
 27 29  2  0  0  0  0
 27 60  1  0  0  0  0
 28 30  2  0  0  0  0
 28 62  1  0  0  0  0
 29 30  1  0  0  0  0
 30 64  1  0  0  0  0
 31 32  1  0  0  0  0
 32 33  1  0  0  0  0
 32 34  2  0  0  0  0
 33 35  2  0  0  0  0
 34 36  1  0  0  0  0
 34 65  1  0  0  0  0
 35 37  1  0  0  0  0
 35 66  1  0  0  0  0
 36 37  2  0  0  0  0
 36 67  1  0  0  0  0
 37 68  1  0  0  0  0
M  END
> <PUBCHEM_COMPOUND_CID>
44415759

> <PUBCHEM_COMPOUND_CANONICALIZED>
1

> <PUBCHEM_CACTVS_COMPLEXITY>
824

> <PUBCHEM_CACTVS_HBOND_ACCEPTOR>
4

> <PUBCHEM_CACTVS_HBOND_DONOR>
1

> <PUBCHEM_CACTVS_ROTATABLE_BOND>
5

> <PUBCHEM_CACTVS_SUBSKEYS>
AAADceB7oAAGAAAAAAAAAAAAAAAAAAAAAAA8YMEABAAAAAABUAAAHgIYAAAADgrBmCQzwINiAACoAidydACCBAElBwAbqAEodtgIYPLB35GUIQhggADIzYcYiACOAABAAAIDACAAAIAABAYAQAAAAAAAAA==

> <PUBCHEM_IUPAC_OPENEYE_NAME>
2-chloro-N-[3-chloro-6-[4-(2,2-dimethylpropyl)piperazin-1-yl]benzo[b][1,4]benzodiazepin-11-yl]benzamide

> <PUBCHEM_IUPAC_CAS_NAME>
2-chloro-N-[3-chloro-6-[4-(2,2-dimethylpropyl)-1-piperazinyl]-11-benzo[b][1,4]benzodiazepinyl]benzamide

> <PUBCHEM_IUPAC_NAME_MARKUP>
2-chloro-<I>N</I>-[3-chloro-6-[4-(2,2-dimethylpropyl)piperazin-1-yl]benzo[b][1,4]benzodiazepin-11-yl]benzamide

> <PUBCHEM_IUPAC_NAME>
2-chloro-N-[3-chloro-6-[4-(2,2-dimethylpropyl)piperazin-1-yl]benzo[b][1,4]benzodiazepin-11-yl]benzamide

> <PUBCHEM_IUPAC_SYSTEMATIC_NAME>
2-chloranyl-N-[3-chloranyl-6-[4-(2,2-dimethylpropyl)piperazin-1-yl]benzo[b][1,4]benzodiazepin-11-yl]benzamide

> <PUBCHEM_IUPAC_TRADITIONAL_NAME>
2-chloro-N-[3-chloro-6-(4-neopentylpiperazino)benzo[b][1,4]benzodiazepin-11-yl]benzamide

> <PUBCHEM_IUPAC_INCHI>
InChI=1S/C29H31Cl2N5O/c1-29(2,3)19-34-14-16-35(17-15-34)27-22-9-5-7-11-25(22)36(26-13-12-20(30)18-24(26)32-27)33-28(37)21-8-4-6-10-23(21)31/h4-13,18H,14-17,19H2,1-3H3,(H,33,37)

> <PUBCHEM_IUPAC_INCHIKEY>
BCJCHJGSBADBFH-UHFFFAOYSA-N

> <PUBCHEM_XLOGP3_AA>
6.7

> <PUBCHEM_EXACT_MASS>
535.1905660

> <PUBCHEM_MOLECULAR_FORMULA>
C29H31Cl2N5O

> <PUBCHEM_MOLECULAR_WEIGHT>
536.5

> <PUBCHEM_OPENEYE_CAN_SMILES>
CC(C)(C)CN1CCN(CC1)C2=NC3=C(C=CC(=C3)Cl)N(C4=CC=CC=C42)NC(=O)C5=CC=CC=C5Cl

> <PUBCHEM_OPENEYE_ISO_SMILES>
CC(C)(C)CN1CCN(CC1)C2=NC3=C(C=CC(=C3)Cl)N(C4=CC=CC=C42)NC(=O)C5=CC=CC=C5Cl

> <PUBCHEM_CACTVS_TPSA>
51.2

> <PUBCHEM_MONOISOTOPIC_WEIGHT>
535.1905660

> <PUBCHEM_TOTAL_CHARGE>
0

> <PUBCHEM_HEAVY_ATOM_COUNT>
37

> <PUBCHEM_ATOM_DEF_STEREO_COUNT>
0

> <PUBCHEM_ATOM_UDEF_STEREO_COUNT>
0

> <PUBCHEM_BOND_DEF_STEREO_COUNT>
0

> <PUBCHEM_BOND_UDEF_STEREO_COUNT>
0

> <PUBCHEM_ISOTOPIC_ATOM_COUNT>
0

> <PUBCHEM_COMPONENT_COUNT>
1

> <PUBCHEM_CACTVS_TAUTO_COUNT>
-1

> <PUBCHEM_COORDINATE_TYPE>
1
5
255

> <PUBCHEM_BONDANNOTATIONS>
19  20  8
19  22  8
20  24  8
21  23  8
21  27  8
22  25  8
23  28  8
24  26  8
25  26  8
27  29  8
28  30  8
29  30  8
32  33  8
32  34  8
33  35  8
34  36  8
35  37  8
36  37  8

$$$$
