25139479
  -OEChem-09292322232D

 67 70  0     1  0  0  0  0  0999 V2000
    4.5768    3.3294    0.0000 N   0  0  3  0  0  0  0  0  0  0  0  0
    5.5267   -0.9247    0.0000 N   0  0  0  0  0  0  0  0  0  0  0  0
    6.5267   -0.9247    0.0000 N   0  0  0  0  0  0  0  0  0  0  0  0
    6.8357   -1.8758    0.0000 N   0  0  0  0  0  0  0  0  0  0  0  0
    4.9836    4.2430    0.0000 C   0  0  3  0  0  0  0  0  0  0  0  0
    5.9781    4.3475    0.0000 C   0  0  0  0  0  0  0  0  0  0  0  0
    4.3958    5.0520    0.0000 C   0  0  0  0  0  0  0  0  0  0  0  0
    5.1646    2.5204    0.0000 C   0  0  0  0  0  0  0  0  0  0  0  0
    6.3848    5.2610    0.0000 C   0  0  0  0  0  0  0  0  0  0  0  0
    3.5823    3.2249    0.0000 C   0  0  0  0  0  0  0  0  0  0  0  0
    4.7579    1.6069    0.0000 C   0  0  0  0  0  0  0  0  0  0  0  0
    4.8025    5.9655    0.0000 C   0  0  0  0  0  0  0  0  0  0  0  0
    5.7970    6.0701    0.0000 C   0  0  0  0  0  0  0  0  0  0  0  0
    2.9945    4.0339    0.0000 C   0  0  0  0  0  0  0  0  0  0  0  0
    5.3457    0.7978    0.0000 C   0  0  0  0  0  0  0  0  0  0  0  0
    4.9389   -0.1157    0.0000 C   0  0  0  0  0  0  0  0  0  0  0  0
    2.0000    3.9294    0.0000 C   0  0  0  0  0  0  0  0  0  0  0  0
    6.2038    6.9836    0.0000 C   0  0  0  0  0  0  0  0  0  0  0  0
    5.2177   -1.8758    0.0000 C   0  0  0  0  0  0  0  0  0  0  0  0
    6.0267   -2.4636    0.0000 C   0  0  0  0  0  0  0  0  0  0  0  0
    6.6105    7.8972    0.0000 C   0  0  0  0  0  0  0  0  0  0  0  0
    6.0267   -3.4636    0.0000 C   0  0  0  0  0  0  0  0  0  0  0  0
    6.8927   -3.9636    0.0000 C   0  0  0  0  0  0  0  0  0  0  0  0
    5.1607   -3.9636    0.0000 C   0  0  0  0  0  0  0  0  0  0  0  0
    6.0267   -5.4636    0.0000 C   0  0  0  0  0  0  0  0  0  0  0  0
    6.8927   -4.9636    0.0000 C   0  0  0  0  0  0  0  0  0  0  0  0
    5.1607   -4.9636    0.0000 C   0  0  0  0  0  0  0  0  0  0  0  0
    6.0267   -6.4636    0.0000 C   0  0  0  0  0  0  0  0  0  0  0  0
    5.1607   -6.9636    0.0000 C   0  0  0  0  0  0  0  0  0  0  0  0
    6.8927   -6.9636    0.0000 C   0  0  0  0  0  0  0  0  0  0  0  0
    5.1607   -7.9636    0.0000 C   0  0  0  0  0  0  0  0  0  0  0  0
    6.8927   -7.9636    0.0000 C   0  0  0  0  0  0  0  0  0  0  0  0
    6.0267   -8.4636    0.0000 C   0  0  0  0  0  0  0  0  0  0  0  0
    5.3480    3.7414    0.0000 H   0  0  0  0  0  0  0  0  0  0  0  0
    5.9348    3.7290    0.0000 H   0  0  0  0  0  0  0  0  0  0  0  0
    6.5797    4.1975    0.0000 H   0  0  0  0  0  0  0  0  0  0  0  0
    3.8818    5.3987    0.0000 H   0  0  0  0  0  0  0  0  0  0  0  0
    3.9651    4.6060    0.0000 H   0  0  0  0  0  0  0  0  0  0  0  0
    5.6786    2.1737    0.0000 H   0  0  0  0  0  0  0  0  0  0  0  0
    5.5953    2.9664    0.0000 H   0  0  0  0  0  0  0  0  0  0  0  0
    6.8988    4.9144    0.0000 H   0  0  0  0  0  0  0  0  0  0  0  0
    6.8155    5.7070    0.0000 H   0  0  0  0  0  0  0  0  0  0  0  0
    3.0250    2.9531    0.0000 H   0  0  0  0  0  0  0  0  0  0  0  0
    3.7532    2.6289    0.0000 H   0  0  0  0  0  0  0  0  0  0  0  0
    4.2439    1.9536    0.0000 H   0  0  0  0  0  0  0  0  0  0  0  0
    4.3272    1.1609    0.0000 H   0  0  0  0  0  0  0  0  0  0  0  0
    4.4381    6.4671    0.0000 H   0  0  0  0  0  0  0  0  0  0  0  0
    3.5518    4.3057    0.0000 H   0  0  0  0  0  0  0  0  0  0  0  0
    2.8236    4.6299    0.0000 H   0  0  0  0  0  0  0  0  0  0  0  0
    5.8597    0.4512    0.0000 H   0  0  0  0  0  0  0  0  0  0  0  0
    5.7764    1.2438    0.0000 H   0  0  0  0  0  0  0  0  0  0  0  0
    4.4249    0.2310    0.0000 H   0  0  0  0  0  0  0  0  0  0  0  0
    4.5082   -0.5617    0.0000 H   0  0  0  0  0  0  0  0  0  0  0  0
    1.9352    4.5460    0.0000 H   0  0  0  0  0  0  0  0  0  0  0  0
    1.3834    3.8646    0.0000 H   0  0  0  0  0  0  0  0  0  0  0  0
    2.0648    3.3128    0.0000 H   0  0  0  0  0  0  0  0  0  0  0  0
    4.6280   -2.0674    0.0000 H   0  0  0  0  0  0  0  0  0  0  0  0
    6.8627    8.4636    0.0000 H   0  0  0  0  0  0  0  0  0  0  0  0
    7.4297   -3.6536    0.0000 H   0  0  0  0  0  0  0  0  0  0  0  0
    4.6238   -3.6536    0.0000 H   0  0  0  0  0  0  0  0  0  0  0  0
    7.4297   -5.2736    0.0000 H   0  0  0  0  0  0  0  0  0  0  0  0
    4.6238   -5.2736    0.0000 H   0  0  0  0  0  0  0  0  0  0  0  0
    4.6238   -6.6536    0.0000 H   0  0  0  0  0  0  0  0  0  0  0  0
    7.4297   -6.6536    0.0000 H   0  0  0  0  0  0  0  0  0  0  0  0
    4.6238   -8.2736    0.0000 H   0  0  0  0  0  0  0  0  0  0  0  0
    7.4297   -8.2736    0.0000 H   0  0  0  0  0  0  0  0  0  0  0  0
    6.0267   -9.0836    0.0000 H   0  0  0  0  0  0  0  0  0  0  0  0
  1  5  1  0  0  0  0
  1  8  1  0  0  0  0
  1 10  1  0  0  0  0
  2  3  1  0  0  0  0
  2 16  1  0  0  0  0
  2 19  1  0  0  0  0
  3  4  2  0  0  0  0
  4 20  1  0  0  0  0
  5  6  1  0  0  0  0
  5  7  1  0  0  0  0
  5 34  1  0  0  0  0
  6  9  1  0  0  0  0
  6 35  1  0  0  0  0
  6 36  1  0  0  0  0
  7 12  1  0  0  0  0
  7 37  1  0  0  0  0
  7 38  1  0  0  0  0
  8 11  1  0  0  0  0
  8 39  1  0  0  0  0
  8 40  1  0  0  0  0
  9 13  1  0  0  0  0
  9 41  1  0  0  0  0
  9 42  1  0  0  0  0
 10 14  1  0  0  0  0
 10 43  1  0  0  0  0
 10 44  1  0  0  0  0
 11 15  1  0  0  0  0
 11 45  1  0  0  0  0
 11 46  1  0  0  0  0
 12 13  2  0  0  0  0
 12 47  1  0  0  0  0
 13 18  1  0  0  0  0
 14 17  1  0  0  0  0
 14 48  1  0  0  0  0
 14 49  1  0  0  0  0
 15 16  1  0  0  0  0
 15 50  1  0  0  0  0
 15 51  1  0  0  0  0
 16 52  1  0  0  0  0
 16 53  1  0  0  0  0
 17 54  1  0  0  0  0
 17 55  1  0  0  0  0
 17 56  1  0  0  0  0
 18 21  3  0  0  0  0
 19 20  2  0  0  0  0
 19 57  1  0  0  0  0
 20 22  1  0  0  0  0
 21 58  1  0  0  0  0
 22 23  2  0  0  0  0
 22 24  1  0  0  0  0
 23 26  1  0  0  0  0
 23 59  1  0  0  0  0
 24 27  2  0  0  0  0
 24 60  1  0  0  0  0
 25 26  2  0  0  0  0
 25 27  1  0  0  0  0
 25 28  1  0  0  0  0
 26 61  1  0  0  0  0
 27 62  1  0  0  0  0
 28 29  2  0  0  0  0
 28 30  1  0  0  0  0
 29 31  1  0  0  0  0
 29 63  1  0  0  0  0
 30 32  2  0  0  0  0
 30 64  1  0  0  0  0
 31 33  2  0  0  0  0
 31 65  1  0  0  0  0
 32 33  1  0  0  0  0
 32 66  1  0  0  0  0
 33 67  1  0  0  0  0
M  END
> <PUBCHEM_COMPOUND_CID>
25139479

> <PUBCHEM_COMPOUND_CANONICALIZED>
1

> <PUBCHEM_CACTVS_COMPLEXITY>
650

> <PUBCHEM_CACTVS_HBOND_ACCEPTOR>
3

> <PUBCHEM_CACTVS_HBOND_DONOR>
0

> <PUBCHEM_CACTVS_ROTATABLE_BOND>
11

> <PUBCHEM_CACTVS_SUBSKEYS>
AAADcfB7gAAAAAAAAAAAAAAAAAAAAWAAAAAwYIAAAAAAAAAB0AAAHAAIAAAADCjBHgQ+gJMIAADiGzRnRAiCBAQxkgAY2CA4dJgIYKLAkRGUIABggADIyAcQgMAOwAAAAAAAAACAAAAAAAAAAAAAAAAAAA==

> <PUBCHEM_IUPAC_OPENEYE_NAME>
4-ethynyl-N-[4-[4-(4-phenylphenyl)triazol-1-yl]butyl]-N-propyl-cyclohex-3-en-1-amine

> <PUBCHEM_IUPAC_CAS_NAME>
4-ethynyl-N-[4-[4-(4-phenylphenyl)-1-triazolyl]butyl]-N-propyl-1-cyclohex-3-enamine

> <PUBCHEM_IUPAC_NAME_MARKUP>
4-ethynyl-<I>N</I>-[4-[4-(4-phenylphenyl)triazol-1-yl]butyl]-<I>N</I>-propylcyclohex-3-en-1-amine

> <PUBCHEM_IUPAC_NAME>
4-ethynyl-N-[4-[4-(4-phenylphenyl)triazol-1-yl]butyl]-N-propylcyclohex-3-en-1-amine

> <PUBCHEM_IUPAC_SYSTEMATIC_NAME>
4-ethynyl-N-[4-[4-(4-phenylphenyl)-1,2,3-triazol-1-yl]butyl]-N-propyl-cyclohex-3-en-1-amine

> <PUBCHEM_IUPAC_TRADITIONAL_NAME>
(4-ethynylcyclohex-3-en-1-yl)-[4-[4-(4-phenylphenyl)triazol-1-yl]butyl]-propyl-amine

> <PUBCHEM_IUPAC_INCHI>
InChI=1S/C29H34N4/c1-3-20-32(28-18-12-24(4-2)13-19-28)21-8-9-22-33-23-29(30-31-33)27-16-14-26(15-17-27)25-10-6-5-7-11-25/h2,5-7,10-12,14-17,23,28H,3,8-9,13,18-22H2,1H3

> <PUBCHEM_IUPAC_INCHIKEY>
GOPCNWYYZCPBLJ-UHFFFAOYSA-N

> <PUBCHEM_XLOGP3_AA>
5.9

> <PUBCHEM_EXACT_MASS>
438.27834710

> <PUBCHEM_MOLECULAR_FORMULA>
C29H34N4

> <PUBCHEM_MOLECULAR_WEIGHT>
438.6

> <PUBCHEM_OPENEYE_CAN_SMILES>
CCCN(CCCCN1C=C(N=N1)C2=CC=C(C=C2)C3=CC=CC=C3)C4CCC(=CC4)C#C

> <PUBCHEM_OPENEYE_ISO_SMILES>
CCCN(CCCCN1C=C(N=N1)C2=CC=C(C=C2)C3=CC=CC=C3)C4CCC(=CC4)C#C

> <PUBCHEM_CACTVS_TPSA>
34

> <PUBCHEM_MONOISOTOPIC_WEIGHT>
438.27834710

> <PUBCHEM_TOTAL_CHARGE>
0

> <PUBCHEM_HEAVY_ATOM_COUNT>
33

> <PUBCHEM_ATOM_DEF_STEREO_COUNT>
0

> <PUBCHEM_ATOM_UDEF_STEREO_COUNT>
1

> <PUBCHEM_BOND_DEF_STEREO_COUNT>
0

> <PUBCHEM_BOND_UDEF_STEREO_COUNT>
0

> <PUBCHEM_ISOTOPIC_ATOM_COUNT>
0

> <PUBCHEM_COMPONENT_COUNT>
1

> <PUBCHEM_CACTVS_TAUTO_COUNT>
-1

> <PUBCHEM_COORDINATE_TYPE>
1
5
255

> <PUBCHEM_BONDANNOTATIONS>
5  1  3
19  20  8
2  19  8
2  3  8
22  23  8
22  24  8
23  26  8
24  27  8
25  26  8
25  27  8
28  29  8
28  30  8
29  31  8
3  4  8
30  32  8
31  33  8
32  33  8
4  20  8

$$$$
