134155460
  -OEChem-09292322382D

 47 48  0     1  0  0  0  0  0999 V2000
    5.1134    0.0000    0.0000 Cl  0  0  0  0  0  0  0  0  0  0  0  0
    5.1134    2.5184    0.0000 Cl  0  0  0  0  0  0  0  0  0  0  0  0
    4.0678    6.1915    0.0000 N   0  0  3  0  0  0  0  0  0  0  0  0
    8.4397    5.7864    0.0000 N   0  0  0  0  0  0  0  0  0  0  0  0
    7.6350    7.1802    0.0000 N   0  0  0  0  0  0  0  0  0  0  0  0
    4.0678    7.1915    0.0000 C   0  0  0  0  0  0  0  0  0  0  0  0
    3.2018    5.6915    0.0000 C   0  0  0  0  0  0  0  0  0  0  0  0
    4.9338    5.6915    0.0000 C   0  0  0  0  0  0  0  0  0  0  0  0
    3.2018    7.6915    0.0000 C   0  0  0  0  0  0  0  0  0  0  0  0
    2.3358    6.1915    0.0000 C   0  0  0  0  0  0  0  0  0  0  0  0
    2.3358    7.1915    0.0000 C   0  0  0  0  0  0  0  0  0  0  0  0
    5.7998    6.1915    0.0000 C   0  0  0  0  0  0  0  0  0  0  0  0
    6.6659    5.6915    0.0000 C   0  0  0  0  0  0  0  0  0  0  0  0
    1.4418    5.6569    0.0000 C   0  0  0  0  0  0  0  0  0  0  0  0
    1.4418    7.7262    0.0000 C   0  0  0  0  0  0  0  0  0  0  0  0
    7.5319    6.1915    0.0000 C   0  0  0  0  0  0  0  0  0  0  0  0
    0.5357    6.1707    0.0000 C   0  0  0  0  0  0  0  0  0  0  0  0
    0.5357    7.2123    0.0000 C   0  0  0  0  0  0  0  0  0  0  0  0
    9.1068    6.5234    0.0000 C   0  0  0  0  0  0  0  0  0  0  0  0
    8.6068    7.3894    0.0000 C   0  0  0  0  0  0  0  0  0  0  0  0
   10.1068    6.5234    0.0000 C   0  0  0  0  0  0  0  0  0  0  0  0
    9.1068    8.2555    0.0000 C   0  0  0  0  0  0  0  0  0  0  0  0
   10.6068    7.3894    0.0000 C   0  0  0  0  0  0  0  0  0  0  0  0
   10.1068    8.2555    0.0000 C   0  0  0  0  0  0  0  0  0  0  0  0
    4.6784    7.0838    0.0000 H   0  0  0  0  0  0  0  0  0  0  0  0
    4.2798    7.7741    0.0000 H   0  0  0  0  0  0  0  0  0  0  0  0
    2.8032    5.2166    0.0000 H   0  0  0  0  0  0  0  0  0  0  0  0
    3.6003    5.2166    0.0000 H   0  0  0  0  0  0  0  0  0  0  0  0
    4.5353    5.2166    0.0000 H   0  0  0  0  0  0  0  0  0  0  0  0
    5.3324    5.2166    0.0000 H   0  0  0  0  0  0  0  0  0  0  0  0
    3.6003    8.1665    0.0000 H   0  0  0  0  0  0  0  0  0  0  0  0
    2.8032    8.1665    0.0000 H   0  0  0  0  0  0  0  0  0  0  0  0
    6.1984    6.6665    0.0000 H   0  0  0  0  0  0  0  0  0  0  0  0
    5.4013    6.6665    0.0000 H   0  0  0  0  0  0  0  0  0  0  0  0
    6.2673    5.2166    0.0000 H   0  0  0  0  0  0  0  0  0  0  0  0
    7.0644    5.2166    0.0000 H   0  0  0  0  0  0  0  0  0  0  0  0
    1.4490    5.0369    0.0000 H   0  0  0  0  0  0  0  0  0  0  0  0
    1.4490    8.3461    0.0000 H   0  0  0  0  0  0  0  0  0  0  0  0
    0.0000    5.8586    0.0000 H   0  0  0  0  0  0  0  0  0  0  0  0
    0.0000    7.5244    0.0000 H   0  0  0  0  0  0  0  0  0  0  0  0
    8.5675    5.1797    0.0000 H   0  0  0  0  0  0  0  0  0  0  0  0
   10.4168    5.9865    0.0000 H   0  0  0  0  0  0  0  0  0  0  0  0
    8.7968    8.7924    0.0000 H   0  0  0  0  0  0  0  0  0  0  0  0
   11.2268    7.3894    0.0000 H   0  0  0  0  0  0  0  0  0  0  0  0
   10.4168    8.7924    0.0000 H   0  0  0  0  0  0  0  0  0  0  0  0
    6.1134    0.0000    0.0000 H   0  0  0  0  0  0  0  0  0  0  0  0
    6.1134    2.5184    0.0000 H   0  0  0  0  0  0  0  0  0  0  0  0
  1 46  1  0  0  0  0
  2 47  1  0  0  0  0
  3  6  1  0  0  0  0
  3  7  1  0  0  0  0
  3  8  1  0  0  0  0
  4 16  1  0  0  0  0
  4 19  1  0  0  0  0
  4 41  1  0  0  0  0
  5 16  2  0  0  0  0
  5 20  1  0  0  0  0
  6  9  1  0  0  0  0
  6 25  1  0  0  0  0
  6 26  1  0  0  0  0
  7 10  1  0  0  0  0
  7 27  1  0  0  0  0
  7 28  1  0  0  0  0
  8 12  1  0  0  0  0
  8 29  1  0  0  0  0
  8 30  1  0  0  0  0
  9 11  1  0  0  0  0
  9 31  1  0  0  0  0
  9 32  1  0  0  0  0
 10 11  1  0  0  0  0
 10 14  2  0  0  0  0
 11 15  2  0  0  0  0
 12 13  1  0  0  0  0
 12 33  1  0  0  0  0
 12 34  1  0  0  0  0
 13 16  1  0  0  0  0
 13 35  1  0  0  0  0
 13 36  1  0  0  0  0
 14 17  1  0  0  0  0
 14 37  1  0  0  0  0
 15 18  1  0  0  0  0
 15 38  1  0  0  0  0
 17 18  2  0  0  0  0
 17 39  1  0  0  0  0
 18 40  1  0  0  0  0
 19 20  1  0  0  0  0
 19 21  2  0  0  0  0
 20 22  2  0  0  0  0
 21 23  1  0  0  0  0
 21 42  1  0  0  0  0
 22 24  1  0  0  0  0
 22 43  1  0  0  0  0
 23 24  2  0  0  0  0
 23 44  1  0  0  0  0
 24 45  1  0  0  0  0
M  END
> <PUBCHEM_COMPOUND_CID>
134155460

> <PUBCHEM_COMPOUND_CANONICALIZED>
1

> <PUBCHEM_CACTVS_COMPLEXITY>
359

> <PUBCHEM_CACTVS_HBOND_ACCEPTOR>
2

> <PUBCHEM_CACTVS_HBOND_DONOR>
3

> <PUBCHEM_CACTVS_ROTATABLE_BOND>
4

> <PUBCHEM_CACTVS_SUBSKEYS>
AAADceB7AAAGAAAAAAAAAAAAAAAAAWAAAAA8YIAAAAAAAFix9AAAHAAQAAAADAjBHwQx0LfJkACgAyZiZACCgC2hEqAJmSA4dJiIaKLAmZGUIAhokALIyCcQgIAOgAAAAAAQACAAAAAAACAAQAAAAAAAAA==

> <PUBCHEM_IUPAC_OPENEYE_NAME>
2-[3-(1H-benzimidazol-2-yl)propyl]-3,4-dihydro-1H-isoquinoline;dihydrochloride

> <PUBCHEM_IUPAC_CAS_NAME>
2-[3-(1H-benzimidazol-2-yl)propyl]-3,4-dihydro-1H-isoquinoline;dihydrochloride

> <PUBCHEM_IUPAC_NAME_MARKUP>
2-[3-(1<I>H</I>-benzimidazol-2-yl)propyl]-3,4-dihydro-1<I>H</I>-isoquinoline;dihydrochloride

> <PUBCHEM_IUPAC_NAME>
2-[3-(1H-benzimidazol-2-yl)propyl]-3,4-dihydro-1H-isoquinoline;dihydrochloride

> <PUBCHEM_IUPAC_SYSTEMATIC_NAME>
2-[3-(1H-benzimidazol-2-yl)propyl]-3,4-dihydro-1H-isoquinoline;dihydrochloride

> <PUBCHEM_IUPAC_TRADITIONAL_NAME>
2-[3-(1H-benzimidazol-2-yl)propyl]-3,4-dihydro-1H-isoquinoline;dihydrochloride

> <PUBCHEM_IUPAC_INCHI>
InChI=1S/C19H21N3.2ClH/c1-2-7-16-14-22(13-11-15(16)6-1)12-5-10-19-20-17-8-3-4-9-18(17)21-19;;/h1-4,6-9H,5,10-14H2,(H,20,21);2*1H

> <PUBCHEM_IUPAC_INCHIKEY>
VKHTZIMQLQAZHP-UHFFFAOYSA-N

> <PUBCHEM_EXACT_MASS>
363.1269031

> <PUBCHEM_MOLECULAR_FORMULA>
C19H23Cl2N3

> <PUBCHEM_MOLECULAR_WEIGHT>
364.3

> <PUBCHEM_OPENEYE_CAN_SMILES>
C1CN(CC2=CC=CC=C21)CCCC3=NC4=CC=CC=C4N3.Cl.Cl

> <PUBCHEM_OPENEYE_ISO_SMILES>
C1CN(CC2=CC=CC=C21)CCCC3=NC4=CC=CC=C4N3.Cl.Cl

> <PUBCHEM_CACTVS_TPSA>
31.9

> <PUBCHEM_MONOISOTOPIC_WEIGHT>
363.1269031

> <PUBCHEM_TOTAL_CHARGE>
0

> <PUBCHEM_HEAVY_ATOM_COUNT>
24

> <PUBCHEM_ATOM_DEF_STEREO_COUNT>
0

> <PUBCHEM_ATOM_UDEF_STEREO_COUNT>
0

> <PUBCHEM_BOND_DEF_STEREO_COUNT>
0

> <PUBCHEM_BOND_UDEF_STEREO_COUNT>
0

> <PUBCHEM_ISOTOPIC_ATOM_COUNT>
0

> <PUBCHEM_COMPONENT_COUNT>
3

> <PUBCHEM_CACTVS_TAUTO_COUNT>
-1

> <PUBCHEM_COORDINATE_TYPE>
1
5
255

> <PUBCHEM_BONDANNOTATIONS>
10  11  8
10  14  8
11  15  8
14  17  8
15  18  8
17  18  8
19  20  8
19  21  8
20  22  8
21  23  8
22  24  8
23  24  8
4  16  8
4  19  8
5  16  8
5  20  8

$$$$
