57393628
  -OEChem-09292322322D

145152  0     0  0  0  0  0  0999 V2000
    4.9355    4.1261    0.0000 O   0  0  0  0  0  0  0  0  0  0  0  0
   32.6367    3.0499    0.0000 O   0  0  0  0  0  0  0  0  0  0  0  0
    8.7565   -1.9895    0.0000 O   0  0  0  0  0  0  0  0  0  0  0  0
   25.5230   -1.9895    0.0000 O   0  0  0  0  0  0  0  0  0  0  0  0
   11.9436   -3.4890    0.0000 O   0  0  0  0  0  0  0  0  0  0  0  0
   22.3359   -3.4890    0.0000 O   0  0  0  0  0  0  0  0  0  0  0  0
   14.5417   -3.9890    0.0000 O   0  0  0  0  0  0  0  0  0  0  0  0
   19.7378   -3.9890    0.0000 O   0  0  0  0  0  0  0  0  0  0  0  0
   17.1398   -3.4890    0.0000 O   0  0  0  0  0  0  0  0  0  0  0  0
    4.2212    0.7364    0.0000 N   0  0  0  0  0  0  0  0  0  0  0  0
   30.0584    0.7364    0.0000 N   0  0  0  0  0  0  0  0  0  0  0  0
    3.5998    2.6375    0.0000 N   0  0  0  0  0  0  0  0  0  0  0  0
   30.6797    2.6375    0.0000 N   0  0  0  0  0  0  0  0  0  0  0  0
    7.1102   -2.5276    0.0000 N   0  0  0  0  0  0  0  0  0  0  0  0
   27.1694   -2.5276    0.0000 N   0  0  0  0  0  0  0  0  0  0  0  0
    9.3455   -4.9890    0.0000 N   0  0  0  0  0  0  0  0  0  0  0  0
   24.9340   -4.9890    0.0000 N   0  0  0  0  0  0  0  0  0  0  0  0
    8.3993   -5.2938    0.0000 N   0  0  0  0  0  0  0  0  0  0  0  0
   25.8802   -5.2938    0.0000 N   0  0  0  0  0  0  0  0  0  0  0  0
    4.8890    1.4807    0.0000 C   0  0  0  0  0  0  0  0  0  0  0  0
    3.2426    0.9427    0.0000 C   0  0  0  0  0  0  0  0  0  0  0  0
   31.0369    0.9427    0.0000 C   0  0  0  0  0  0  0  0  0  0  0  0
   29.3905    1.4807    0.0000 C   0  0  0  0  0  0  0  0  0  0  0  0
    4.5783    2.4313    0.0000 C   0  0  0  0  0  0  0  0  0  0  0  0
    2.9320    1.8932    0.0000 C   0  0  0  0  0  0  0  0  0  0  0  0
   31.3476    1.8932    0.0000 C   0  0  0  0  0  0  0  0  0  0  0  0
   29.7012    2.4313    0.0000 C   0  0  0  0  0  0  0  0  0  0  0  0
    4.5318   -0.2141    0.0000 C   0  0  0  0  0  0  0  0  0  0  0  0
   29.7477   -0.2141    0.0000 C   0  0  0  0  0  0  0  0  0  0  0  0
    5.5103   -0.4203    0.0000 C   0  0  0  0  0  0  0  0  0  0  0  0
   28.7692   -0.4203    0.0000 C   0  0  0  0  0  0  0  0  0  0  0  0
    3.2892    3.5880    0.0000 C   0  0  0  0  0  0  0  0  0  0  0  0
   30.9904    3.5880    0.0000 C   0  0  0  0  0  0  0  0  0  0  0  0
    5.8210   -1.3708    0.0000 C   0  0  0  0  0  0  0  0  0  0  0  0
   28.4586   -1.3708    0.0000 C   0  0  0  0  0  0  0  0  0  0  0  0
    6.7995   -1.5770    0.0000 C   0  0  0  0  0  0  0  0  0  0  0  0
   27.4800   -1.5770    0.0000 C   0  0  0  0  0  0  0  0  0  0  0  0
    3.9570    4.3323    0.0000 C   0  0  0  0  0  0  0  0  0  0  0  0
   31.9689    3.7942    0.0000 C   0  0  0  0  0  0  0  0  0  0  0  0
    2.3107    3.7942    0.0000 C   0  0  0  0  0  0  0  0  0  0  0  0
   30.3225    4.3323    0.0000 C   0  0  0  0  0  0  0  0  0  0  0  0
    3.6464    5.2828    0.0000 C   0  0  0  0  0  0  0  0  0  0  0  0
   32.2795    4.7447    0.0000 C   0  0  0  0  0  0  0  0  0  0  0  0
    2.0000    4.7447    0.0000 C   0  0  0  0  0  0  0  0  0  0  0  0
   30.6332    5.2828    0.0000 C   0  0  0  0  0  0  0  0  0  0  0  0
    2.6678    5.4890    0.0000 C   0  0  0  0  0  0  0  0  0  0  0  0
   31.6117    5.4890    0.0000 C   0  0  0  0  0  0  0  0  0  0  0  0
    8.0887   -2.7338    0.0000 C   0  0  0  0  0  0  0  0  0  0  0  0
   26.1909   -2.7338    0.0000 C   0  0  0  0  0  0  0  0  0  0  0  0
    5.6034    4.8704    0.0000 C   0  0  0  0  0  0  0  0  0  0  0  0
   33.6152    3.2561    0.0000 C   0  0  0  0  0  0  0  0  0  0  0  0
    8.3993   -3.6843    0.0000 C   0  0  0  0  0  0  0  0  0  0  0  0
   25.8802   -3.6843    0.0000 C   0  0  0  0  0  0  0  0  0  0  0  0
    9.3455   -3.9890    0.0000 C   0  0  0  0  0  0  0  0  0  0  0  0
   24.9340   -3.9890    0.0000 C   0  0  0  0  0  0  0  0  0  0  0  0
    7.8157   -4.4890    0.0000 C   0  0  0  0  0  0  0  0  0  0  0  0
   26.4638   -4.4890    0.0000 C   0  0  0  0  0  0  0  0  0  0  0  0
   10.2116   -3.4890    0.0000 C   0  0  0  0  0  0  0  0  0  0  0  0
   24.0680   -3.4890    0.0000 C   0  0  0  0  0  0  0  0  0  0  0  0
   10.2116   -5.4890    0.0000 C   0  0  0  0  0  0  0  0  0  0  0  0
   24.0680   -5.4890    0.0000 C   0  0  0  0  0  0  0  0  0  0  0  0
   11.0776   -3.9890    0.0000 C   0  0  0  0  0  0  0  0  0  0  0  0
   23.2019   -3.9890    0.0000 C   0  0  0  0  0  0  0  0  0  0  0  0
   11.0776   -4.9890    0.0000 C   0  0  0  0  0  0  0  0  0  0  0  0
   23.2019   -4.9890    0.0000 C   0  0  0  0  0  0  0  0  0  0  0  0
   12.8096   -3.9890    0.0000 C   0  0  0  0  0  0  0  0  0  0  0  0
   21.4699   -3.9890    0.0000 C   0  0  0  0  0  0  0  0  0  0  0  0
   13.6757   -3.4890    0.0000 C   0  0  0  0  0  0  0  0  0  0  0  0
   20.6039   -3.4890    0.0000 C   0  0  0  0  0  0  0  0  0  0  0  0
   15.4077   -3.4890    0.0000 C   0  0  0  0  0  0  0  0  0  0  0  0
   18.8718   -3.4890    0.0000 C   0  0  0  0  0  0  0  0  0  0  0  0
   16.2737   -3.9890    0.0000 C   0  0  0  0  0  0  0  0  0  0  0  0
   18.0058   -3.9890    0.0000 C   0  0  0  0  0  0  0  0  0  0  0  0
    5.2716    0.9928    0.0000 H   0  0  0  0  0  0  0  0  0  0  0  0
    5.4359    1.7728    0.0000 H   0  0  0  0  0  0  0  0  0  0  0  0
    2.6288    0.8553    0.0000 H   0  0  0  0  0  0  0  0  0  0  0  0
    3.2221    0.3230    0.0000 H   0  0  0  0  0  0  0  0  0  0  0  0
   31.0575    0.3230    0.0000 H   0  0  0  0  0  0  0  0  0  0  0  0
   31.6507    0.8553    0.0000 H   0  0  0  0  0  0  0  0  0  0  0  0
   28.8436    1.7728    0.0000 H   0  0  0  0  0  0  0  0  0  0  0  0
   29.0080    0.9928    0.0000 H   0  0  0  0  0  0  0  0  0  0  0  0
    5.1922    2.5186    0.0000 H   0  0  0  0  0  0  0  0  0  0  0  0
    4.5989    3.0509    0.0000 H   0  0  0  0  0  0  0  0  0  0  0  0
    2.5494    2.3811    0.0000 H   0  0  0  0  0  0  0  0  0  0  0  0
    2.3851    1.6012    0.0000 H   0  0  0  0  0  0  0  0  0  0  0  0
   31.8945    1.6012    0.0000 H   0  0  0  0  0  0  0  0  0  0  0  0
   31.7301    2.3811    0.0000 H   0  0  0  0  0  0  0  0  0  0  0  0
   29.6806    3.0509    0.0000 H   0  0  0  0  0  0  0  0  0  0  0  0
   29.0874    2.5186    0.0000 H   0  0  0  0  0  0  0  0  0  0  0  0
    3.9180   -0.3014    0.0000 H   0  0  0  0  0  0  0  0  0  0  0  0
    4.5113   -0.8337    0.0000 H   0  0  0  0  0  0  0  0  0  0  0  0
   29.7683   -0.8337    0.0000 H   0  0  0  0  0  0  0  0  0  0  0  0
   30.3615   -0.3014    0.0000 H   0  0  0  0  0  0  0  0  0  0  0  0
    6.1241   -0.3330    0.0000 H   0  0  0  0  0  0  0  0  0  0  0  0
    5.5309    0.1994    0.0000 H   0  0  0  0  0  0  0  0  0  0  0  0
   28.7487    0.1994    0.0000 H   0  0  0  0  0  0  0  0  0  0  0  0
   28.1554   -0.3330    0.0000 H   0  0  0  0  0  0  0  0  0  0  0  0
    5.2072   -1.4582    0.0000 H   0  0  0  0  0  0  0  0  0  0  0  0
    5.8004   -1.9905    0.0000 H   0  0  0  0  0  0  0  0  0  0  0  0
   28.4791   -1.9905    0.0000 H   0  0  0  0  0  0  0  0  0  0  0  0
   29.0724   -1.4582    0.0000 H   0  0  0  0  0  0  0  0  0  0  0  0
    7.4133   -1.4897    0.0000 H   0  0  0  0  0  0  0  0  0  0  0  0
    6.8201   -0.9574    0.0000 H   0  0  0  0  0  0  0  0  0  0  0  0
   27.4595   -0.9574    0.0000 H   0  0  0  0  0  0  0  0  0  0  0  0
   26.8662   -1.4897    0.0000 H   0  0  0  0  0  0  0  0  0  0  0  0
    1.8966    3.3328    0.0000 H   0  0  0  0  0  0  0  0  0  0  0  0
   29.7159    4.2044    0.0000 H   0  0  0  0  0  0  0  0  0  0  0  0
    4.0604    5.7443    0.0000 H   0  0  0  0  0  0  0  0  0  0  0  0
   32.8862    4.8726    0.0000 H   0  0  0  0  0  0  0  0  0  0  0  0
    1.3933    4.8726    0.0000 H   0  0  0  0  0  0  0  0  0  0  0  0
   30.2191    5.7443    0.0000 H   0  0  0  0  0  0  0  0  0  0  0  0
    6.6961   -2.9890    0.0000 H   0  0  0  0  0  0  0  0  0  0  0  0
   27.5835   -2.9890    0.0000 H   0  0  0  0  0  0  0  0  0  0  0  0
    2.4752    6.0784    0.0000 H   0  0  0  0  0  0  0  0  0  0  0  0
   31.8043    6.0784    0.0000 H   0  0  0  0  0  0  0  0  0  0  0  0
    6.0648    4.4563    0.0000 H   0  0  0  0  0  0  0  0  0  0  0  0
    6.0174    5.3318    0.0000 H   0  0  0  0  0  0  0  0  0  0  0  0
    5.1419    5.2844    0.0000 H   0  0  0  0  0  0  0  0  0  0  0  0
   33.7431    2.6495    0.0000 H   0  0  0  0  0  0  0  0  0  0  0  0
   34.2219    3.3840    0.0000 H   0  0  0  0  0  0  0  0  0  0  0  0
   33.4874    3.8628    0.0000 H   0  0  0  0  0  0  0  0  0  0  0  0
    7.1957   -4.4890    0.0000 H   0  0  0  0  0  0  0  0  0  0  0  0
   27.0838   -4.4890    0.0000 H   0  0  0  0  0  0  0  0  0  0  0  0
   10.2116   -2.8690    0.0000 H   0  0  0  0  0  0  0  0  0  0  0  0
   24.0680   -2.8690    0.0000 H   0  0  0  0  0  0  0  0  0  0  0  0
   10.2116   -6.1090    0.0000 H   0  0  0  0  0  0  0  0  0  0  0  0
   24.0680   -6.1090    0.0000 H   0  0  0  0  0  0  0  0  0  0  0  0
   11.6145   -5.2990    0.0000 H   0  0  0  0  0  0  0  0  0  0  0  0
   22.6650   -5.2990    0.0000 H   0  0  0  0  0  0  0  0  0  0  0  0
   12.4111   -4.4640    0.0000 H   0  0  0  0  0  0  0  0  0  0  0  0
   13.2082   -4.4640    0.0000 H   0  0  0  0  0  0  0  0  0  0  0  0
   21.0714   -4.4640    0.0000 H   0  0  0  0  0  0  0  0  0  0  0  0
   21.8684   -4.4640    0.0000 H   0  0  0  0  0  0  0  0  0  0  0  0
   14.0742   -3.0141    0.0000 H   0  0  0  0  0  0  0  0  0  0  0  0
   13.2771   -3.0141    0.0000 H   0  0  0  0  0  0  0  0  0  0  0  0
   21.0024   -3.0141    0.0000 H   0  0  0  0  0  0  0  0  0  0  0  0
   20.2053   -3.0141    0.0000 H   0  0  0  0  0  0  0  0  0  0  0  0
   15.8062   -3.0141    0.0000 H   0  0  0  0  0  0  0  0  0  0  0  0
   15.0092   -3.0141    0.0000 H   0  0  0  0  0  0  0  0  0  0  0  0
   19.2704   -3.0141    0.0000 H   0  0  0  0  0  0  0  0  0  0  0  0
   18.4733   -3.0141    0.0000 H   0  0  0  0  0  0  0  0  0  0  0  0
   15.8752   -4.4640    0.0000 H   0  0  0  0  0  0  0  0  0  0  0  0
   16.6723   -4.4640    0.0000 H   0  0  0  0  0  0  0  0  0  0  0  0
   17.6073   -4.4640    0.0000 H   0  0  0  0  0  0  0  0  0  0  0  0
   18.4043   -4.4640    0.0000 H   0  0  0  0  0  0  0  0  0  0  0  0
  1 38  1  0  0  0  0
  1 50  1  0  0  0  0
  2 39  1  0  0  0  0
  2 51  1  0  0  0  0
  3 48  2  0  0  0  0
  4 49  2  0  0  0  0
  5 62  1  0  0  0  0
  5 66  1  0  0  0  0
  6 63  1  0  0  0  0
  6 67  1  0  0  0  0
  7 68  1  0  0  0  0
  7 70  1  0  0  0  0
  8 69  1  0  0  0  0
  8 71  1  0  0  0  0
  9 72  1  0  0  0  0
  9 73  1  0  0  0  0
 10 20  1  0  0  0  0
 10 21  1  0  0  0  0
 10 28  1  0  0  0  0
 11 22  1  0  0  0  0
 11 23  1  0  0  0  0
 11 29  1  0  0  0  0
 12 24  1  0  0  0  0
 12 25  1  0  0  0  0
 12 32  1  0  0  0  0
 13 26  1  0  0  0  0
 13 27  1  0  0  0  0
 13 33  1  0  0  0  0
 14 36  1  0  0  0  0
 14 48  1  0  0  0  0
 14112  1  0  0  0  0
 15 37  1  0  0  0  0
 15 49  1  0  0  0  0
 15113  1  0  0  0  0
 16 18  1  0  0  0  0
 16 54  1  0  0  0  0
 16 60  1  0  0  0  0
 17 19  1  0  0  0  0
 17 55  1  0  0  0  0
 17 61  1  0  0  0  0
 18 56  2  0  0  0  0
 19 57  2  0  0  0  0
 20 24  1  0  0  0  0
 20 74  1  0  0  0  0
 20 75  1  0  0  0  0
 21 25  1  0  0  0  0
 21 76  1  0  0  0  0
 21 77  1  0  0  0  0
 22 26  1  0  0  0  0
 22 78  1  0  0  0  0
 22 79  1  0  0  0  0
 23 27  1  0  0  0  0
 23 80  1  0  0  0  0
 23 81  1  0  0  0  0
 24 82  1  0  0  0  0
 24 83  1  0  0  0  0
 25 84  1  0  0  0  0
 25 85  1  0  0  0  0
 26 86  1  0  0  0  0
 26 87  1  0  0  0  0
 27 88  1  0  0  0  0
 27 89  1  0  0  0  0
 28 30  1  0  0  0  0
 28 90  1  0  0  0  0
 28 91  1  0  0  0  0
 29 31  1  0  0  0  0
 29 92  1  0  0  0  0
 29 93  1  0  0  0  0
 30 34  1  0  0  0  0
 30 94  1  0  0  0  0
 30 95  1  0  0  0  0
 31 35  1  0  0  0  0
 31 96  1  0  0  0  0
 31 97  1  0  0  0  0
 32 38  1  0  0  0  0
 32 40  2  0  0  0  0
 33 39  1  0  0  0  0
 33 41  2  0  0  0  0
 34 36  1  0  0  0  0
 34 98  1  0  0  0  0
 34 99  1  0  0  0  0
 35 37  1  0  0  0  0
 35100  1  0  0  0  0
 35101  1  0  0  0  0
 36102  1  0  0  0  0
 36103  1  0  0  0  0
 37104  1  0  0  0  0
 37105  1  0  0  0  0
 38 42  2  0  0  0  0
 39 43  2  0  0  0  0
 40 44  1  0  0  0  0
 40106  1  0  0  0  0
 41 45  1  0  0  0  0
 41107  1  0  0  0  0
 42 46  1  0  0  0  0
 42108  1  0  0  0  0
 43 47  1  0  0  0  0
 43109  1  0  0  0  0
 44 46  2  0  0  0  0
 44110  1  0  0  0  0
 45 47  2  0  0  0  0
 45111  1  0  0  0  0
 46114  1  0  0  0  0
 47115  1  0  0  0  0
 48 52  1  0  0  0  0
 49 53  1  0  0  0  0
 50116  1  0  0  0  0
 50117  1  0  0  0  0
 50118  1  0  0  0  0
 51119  1  0  0  0  0
 51120  1  0  0  0  0
 51121  1  0  0  0  0
 52 54  2  0  0  0  0
 52 56  1  0  0  0  0
 53 55  2  0  0  0  0
 53 57  1  0  0  0  0
 54 58  1  0  0  0  0
 55 59  1  0  0  0  0
 56122  1  0  0  0  0
 57123  1  0  0  0  0
 58 62  2  0  0  0  0
 58124  1  0  0  0  0
 59 63  2  0  0  0  0
 59125  1  0  0  0  0
 60 64  2  0  0  0  0
 60126  1  0  0  0  0
 61 65  2  0  0  0  0
 61127  1  0  0  0  0
 62 64  1  0  0  0  0
 63 65  1  0  0  0  0
 64128  1  0  0  0  0
 65129  1  0  0  0  0
 66 68  1  0  0  0  0
 66130  1  0  0  0  0
 66131  1  0  0  0  0
 67 69  1  0  0  0  0
 67132  1  0  0  0  0
 67133  1  0  0  0  0
 68134  1  0  0  0  0
 68135  1  0  0  0  0
 69136  1  0  0  0  0
 69137  1  0  0  0  0
 70 72  1  0  0  0  0
 70138  1  0  0  0  0
 70139  1  0  0  0  0
 71 73  1  0  0  0  0
 71140  1  0  0  0  0
 71141  1  0  0  0  0
 72142  1  0  0  0  0
 72143  1  0  0  0  0
 73144  1  0  0  0  0
 73145  1  0  0  0  0
M  END
> <PUBCHEM_COMPOUND_CID>
57393628

> <PUBCHEM_COMPOUND_CANONICALIZED>
1

> <PUBCHEM_CACTVS_COMPLEXITY>
1450

> <PUBCHEM_CACTVS_HBOND_ACCEPTOR>
15

> <PUBCHEM_CACTVS_HBOND_DONOR>
2

> <PUBCHEM_CACTVS_ROTATABLE_BOND>
30

> <PUBCHEM_CACTVS_SUBSKEYS>
AAADcfB//AAAAAAAAAAAAAAAAAAAAWLAAAA8eLFiAAAAAFgB/gAAHgAYAAAADAzhngY+xrPIFACqAzV3VACSjCA1oiAY2KE/bNgPZvrE9duXvajm3hna6ceY3ELMAAAAAAAAEAAAAAAAAAAgAAAAAAAAAA==

> <PUBCHEM_IUPAC_OPENEYE_NAME>
N-[4-[4-(2-methoxyphenyl)piperazin-1-yl]butyl]-5-[2-[2-[2-[2-[3-[4-[4-(2-methoxyphenyl)piperazin-1-yl]butylcarbamoyl]pyrazolo[1,5-a]pyridin-5-yl]oxyethoxy]ethoxy]ethoxy]ethoxy]pyrazolo[1,5-a]pyridine-3-carboxamide

> <PUBCHEM_IUPAC_CAS_NAME>
N-[4-[4-(2-methoxyphenyl)-1-piperazinyl]butyl]-5-[2-[2-[2-[2-[[3-[[4-[4-(2-methoxyphenyl)-1-piperazinyl]butylamino]-oxomethyl]-5-pyrazolo[1,5-a]pyridinyl]oxy]ethoxy]ethoxy]ethoxy]ethoxy]-3-pyrazolo[1,5-a]pyridinecarboxamide

> <PUBCHEM_IUPAC_NAME_MARKUP>
<I>N</I>-[4-[4-(2-methoxyphenyl)piperazin-1-yl]butyl]-5-[2-[2-[2-[2-[3-[4-[4-(2-methoxyphenyl)piperazin-1-yl]butylcarbamoyl]pyrazolo[1,5-a]pyridin-5-yl]oxyethoxy]ethoxy]ethoxy]ethoxy]pyrazolo[1,5-a]pyridine-3-carboxamide

> <PUBCHEM_IUPAC_NAME>
N-[4-[4-(2-methoxyphenyl)piperazin-1-yl]butyl]-5-[2-[2-[2-[2-[3-[4-[4-(2-methoxyphenyl)piperazin-1-yl]butylcarbamoyl]pyrazolo[1,5-a]pyridin-5-yl]oxyethoxy]ethoxy]ethoxy]ethoxy]pyrazolo[1,5-a]pyridine-3-carboxamide

> <PUBCHEM_IUPAC_SYSTEMATIC_NAME>
N-[4-[4-(2-methoxyphenyl)piperazin-1-yl]butyl]-5-[2-[2-[2-[2-[3-[4-[4-(2-methoxyphenyl)piperazin-1-yl]butylcarbamoyl]pyrazolo[1,5-a]pyridin-5-yl]oxyethoxy]ethoxy]ethoxy]ethoxy]pyrazolo[1,5-a]pyridine-3-carboxamide

> <PUBCHEM_IUPAC_TRADITIONAL_NAME>
N-[4-[4-(2-methoxyphenyl)piperazino]butyl]-5-[2-[2-[2-[2-[3-[4-[4-(2-methoxyphenyl)piperazino]butylcarbamoyl]pyrazolo[1,5-a]pyridin-5-yl]oxyethoxy]ethoxy]ethoxy]ethoxy]pyrazolo[1,5-a]pyridine-3-carboxamide

> <PUBCHEM_IUPAC_INCHI>
InChI=1S/C54H72N10O9/c1-67-51-13-5-3-11-47(51)61-27-23-59(24-28-61)19-9-7-17-55-53(65)45-41-57-63-21-15-43(39-49(45)63)72-37-35-70-33-31-69-32-34-71-36-38-73-44-16-22-64-50(40-44)46(42-58-64)54(66)56-18-8-10-20-60-25-29-62(30-26-60)48-12-4-6-14-52(48)68-2/h3-6,11-16,21-22,39-42H,7-10,17-20,23-38H2,1-2H3,(H,55,65)(H,56,66)

> <PUBCHEM_IUPAC_INCHIKEY>
OSAOKFNDHSEFAK-UHFFFAOYSA-N

> <PUBCHEM_XLOGP3_AA>
4.6

> <PUBCHEM_EXACT_MASS>
1004.54837391

> <PUBCHEM_MOLECULAR_FORMULA>
C54H72N10O9

> <PUBCHEM_MOLECULAR_WEIGHT>
1005.2

> <PUBCHEM_OPENEYE_CAN_SMILES>
COC1=CC=CC=C1N2CCN(CC2)CCCCNC(=O)C3=C4C=C(C=CN4N=C3)OCCOCCOCCOCCOC5=CC6=C(C=NN6C=C5)C(=O)NCCCCN7CCN(CC7)C8=CC=CC=C8OC

> <PUBCHEM_OPENEYE_ISO_SMILES>
COC1=CC=CC=C1N2CCN(CC2)CCCCNC(=O)C3=C4C=C(C=CN4N=C3)OCCOCCOCCOCCOC5=CC6=C(C=NN6C=C5)C(=O)NCCCCN7CCN(CC7)C8=CC=CC=C8OC

> <PUBCHEM_CACTVS_TPSA>
170

> <PUBCHEM_MONOISOTOPIC_WEIGHT>
1004.54837391

> <PUBCHEM_TOTAL_CHARGE>
0

> <PUBCHEM_HEAVY_ATOM_COUNT>
73

> <PUBCHEM_ATOM_DEF_STEREO_COUNT>
0

> <PUBCHEM_ATOM_UDEF_STEREO_COUNT>
0

> <PUBCHEM_BOND_DEF_STEREO_COUNT>
0

> <PUBCHEM_BOND_UDEF_STEREO_COUNT>
0

> <PUBCHEM_ISOTOPIC_ATOM_COUNT>
0

> <PUBCHEM_COMPONENT_COUNT>
1

> <PUBCHEM_CACTVS_TAUTO_COUNT>
-1

> <PUBCHEM_COORDINATE_TYPE>
1
5
255

> <PUBCHEM_BONDANNOTATIONS>
16  18  8
16  54  8
16  60  8
17  19  8
17  55  8
17  61  8
18  56  8
19  57  8
32  38  8
32  40  8
33  39  8
33  41  8
38  42  8
39  43  8
40  44  8
41  45  8
42  46  8
43  47  8
44  46  8
45  47  8
52  54  8
52  56  8
53  55  8
53  57  8
54  58  8
55  59  8
58  62  8
59  63  8
60  64  8
61  65  8
62  64  8
63  65  8

$$$$
