90645307
  -OEChem-09292321592D

 70 73  0     0  0  0  0  0  0999 V2000
    2.0000    3.7888    0.0000 Cl  0  0  0  0  0  0  0  0  0  0  0  0
    5.5443    1.9840    0.0000 S   0  0  0  0  0  0  0  0  0  0  0  0
   12.1279   -4.1394    0.0000 O   0  0  0  0  0  0  0  0  0  0  0  0
    7.6279    3.6548    0.0000 O   0  0  0  0  0  0  0  0  0  0  0  0
    2.0000    1.7888    0.0000 O   0  0  0  0  0  0  0  0  0  0  0  0
   12.1279   -0.6753    0.0000 N   0  0  0  0  0  0  0  0  0  0  0  0
   13.1279   -2.4074    0.0000 N   0  0  0  0  0  0  0  0  0  0  0  0
    7.6279    1.9227    0.0000 N   0  0  0  0  0  0  0  0  0  0  0  0
    5.8550    4.5440    0.0000 N   0  0  0  0  0  0  0  0  0  0  0  0
    3.7320    1.7888    0.0000 N   0  0  0  0  0  0  0  0  0  0  0  0
   11.6279   -1.5414    0.0000 C   0  0  0  0  0  0  0  0  0  0  0  0
   13.1279   -0.6753    0.0000 C   0  0  0  0  0  0  0  0  0  0  0  0
   12.1279   -2.4074    0.0000 C   0  0  0  0  0  0  0  0  0  0  0  0
   13.6279   -1.5414    0.0000 C   0  0  0  0  0  0  0  0  0  0  0  0
   11.6279    0.1907    0.0000 C   0  0  0  0  0  0  0  0  0  0  0  0
   10.6279    0.1907    0.0000 C   0  0  0  0  0  0  0  0  0  0  0  0
   10.1279    1.0567    0.0000 C   0  0  0  0  0  0  0  0  0  0  0  0
   13.6279   -3.2734    0.0000 C   0  0  0  0  0  0  0  0  0  0  0  0
    9.1279    1.0567    0.0000 C   0  0  0  0  0  0  0  0  0  0  0  0
   13.1279   -4.1394    0.0000 C   0  0  0  0  0  0  0  0  0  0  0  0
    8.6279    1.9227    0.0000 C   0  0  0  0  0  0  0  0  0  0  0  0
   14.6279   -3.2734    0.0000 C   0  0  0  0  0  0  0  0  0  0  0  0
   13.6279   -5.0055    0.0000 C   0  0  0  0  0  0  0  0  0  0  0  0
   15.1279   -4.1394    0.0000 C   0  0  0  0  0  0  0  0  0  0  0  0
   14.6279   -5.0055    0.0000 C   0  0  0  0  0  0  0  0  0  0  0  0
    7.1279    2.7888    0.0000 C   0  0  0  0  0  0  0  0  0  0  0  0
    6.1279    2.7888    0.0000 C   0  0  0  0  0  0  0  0  0  0  0  0
    5.5443    3.5935    0.0000 C   0  0  0  0  0  0  0  0  0  0  0  0
    4.5981    3.2888    0.0000 C   0  0  0  0  0  0  0  0  0  0  0  0
   11.6279   -5.0055    0.0000 C   0  0  0  0  0  0  0  0  0  0  0  0
    4.5981    2.2888    0.0000 C   0  0  0  0  0  0  0  0  0  0  0  0
    3.7320    3.7888    0.0000 C   0  0  0  0  0  0  0  0  0  0  0  0
    2.8660    3.2888    0.0000 C   0  0  0  0  0  0  0  0  0  0  0  0
    3.7320    4.7888    0.0000 C   0  0  0  0  0  0  0  0  0  0  0  0
    2.8660    2.2888    0.0000 C   0  0  0  0  0  0  0  0  0  0  0  0
    2.0000    0.7888    0.0000 C   0  0  0  0  0  0  0  0  0  0  0  0
   11.1530   -1.1428    0.0000 H   0  0  0  0  0  0  0  0  0  0  0  0
   11.1530   -1.9399    0.0000 H   0  0  0  0  0  0  0  0  0  0  0  0
   13.7105   -0.4633    0.0000 H   0  0  0  0  0  0  0  0  0  0  0  0
   13.0202   -0.0648    0.0000 H   0  0  0  0  0  0  0  0  0  0  0  0
   11.5453   -2.6194    0.0000 H   0  0  0  0  0  0  0  0  0  0  0  0
   12.2356   -3.0180    0.0000 H   0  0  0  0  0  0  0  0  0  0  0  0
   14.1029   -1.9399    0.0000 H   0  0  0  0  0  0  0  0  0  0  0  0
   14.1029   -1.1428    0.0000 H   0  0  0  0  0  0  0  0  0  0  0  0
   12.2105    0.4027    0.0000 H   0  0  0  0  0  0  0  0  0  0  0  0
   11.5202    0.8013    0.0000 H   0  0  0  0  0  0  0  0  0  0  0  0
   10.0453   -0.0214    0.0000 H   0  0  0  0  0  0  0  0  0  0  0  0
   10.7356   -0.4199    0.0000 H   0  0  0  0  0  0  0  0  0  0  0  0
   10.7105    1.2688    0.0000 H   0  0  0  0  0  0  0  0  0  0  0  0
   10.0202    1.6673    0.0000 H   0  0  0  0  0  0  0  0  0  0  0  0
    8.5453    0.8447    0.0000 H   0  0  0  0  0  0  0  0  0  0  0  0
    9.2356    0.4461    0.0000 H   0  0  0  0  0  0  0  0  0  0  0  0
    9.2105    2.1348    0.0000 H   0  0  0  0  0  0  0  0  0  0  0  0
    8.5202    2.5333    0.0000 H   0  0  0  0  0  0  0  0  0  0  0  0
   14.9379   -2.7365    0.0000 H   0  0  0  0  0  0  0  0  0  0  0  0
   13.3179   -5.5424    0.0000 H   0  0  0  0  0  0  0  0  0  0  0  0
   15.7479   -4.1394    0.0000 H   0  0  0  0  0  0  0  0  0  0  0  0
    7.3179    1.3858    0.0000 H   0  0  0  0  0  0  0  0  0  0  0  0
   14.9379   -5.5424    0.0000 H   0  0  0  0  0  0  0  0  0  0  0  0
   11.0910   -4.6955    0.0000 H   0  0  0  0  0  0  0  0  0  0  0  0
   11.3179   -5.5424    0.0000 H   0  0  0  0  0  0  0  0  0  0  0  0
   12.1648   -5.3155    0.0000 H   0  0  0  0  0  0  0  0  0  0  0  0
    4.3520    4.7888    0.0000 H   0  0  0  0  0  0  0  0  0  0  0  0
    3.7320    5.4088    0.0000 H   0  0  0  0  0  0  0  0  0  0  0  0
    3.1120    4.7888    0.0000 H   0  0  0  0  0  0  0  0  0  0  0  0
    6.4616    4.6719    0.0000 H   0  0  0  0  0  0  0  0  0  0  0  0
    5.4409    5.0055    0.0000 H   0  0  0  0  0  0  0  0  0  0  0  0
    1.3800    0.7888    0.0000 H   0  0  0  0  0  0  0  0  0  0  0  0
    2.0000    0.1688    0.0000 H   0  0  0  0  0  0  0  0  0  0  0  0
    2.6200    0.7888    0.0000 H   0  0  0  0  0  0  0  0  0  0  0  0
  1 33  1  0  0  0  0
  2 27  1  0  0  0  0
  2 31  1  0  0  0  0
  3 20  1  0  0  0  0
  3 30  1  0  0  0  0
  4 26  2  0  0  0  0
  5 35  1  0  0  0  0
  5 36  1  0  0  0  0
  6 11  1  0  0  0  0
  6 12  1  0  0  0  0
  6 15  1  0  0  0  0
  7 13  1  0  0  0  0
  7 14  1  0  0  0  0
  7 18  1  0  0  0  0
  8 21  1  0  0  0  0
  8 26  1  0  0  0  0
  8 58  1  0  0  0  0
  9 28  1  0  0  0  0
  9 66  1  0  0  0  0
  9 67  1  0  0  0  0
 10 31  2  0  0  0  0
 10 35  1  0  0  0  0
 11 13  1  0  0  0  0
 11 37  1  0  0  0  0
 11 38  1  0  0  0  0
 12 14  1  0  0  0  0
 12 39  1  0  0  0  0
 12 40  1  0  0  0  0
 13 41  1  0  0  0  0
 13 42  1  0  0  0  0
 14 43  1  0  0  0  0
 14 44  1  0  0  0  0
 15 16  1  0  0  0  0
 15 45  1  0  0  0  0
 15 46  1  0  0  0  0
 16 17  1  0  0  0  0
 16 47  1  0  0  0  0
 16 48  1  0  0  0  0
 17 19  1  0  0  0  0
 17 49  1  0  0  0  0
 17 50  1  0  0  0  0
 18 20  1  0  0  0  0
 18 22  2  0  0  0  0
 19 21  1  0  0  0  0
 19 51  1  0  0  0  0
 19 52  1  0  0  0  0
 20 23  2  0  0  0  0
 21 53  1  0  0  0  0
 21 54  1  0  0  0  0
 22 24  1  0  0  0  0
 22 55  1  0  0  0  0
 23 25  1  0  0  0  0
 23 56  1  0  0  0  0
 24 25  2  0  0  0  0
 24 57  1  0  0  0  0
 25 59  1  0  0  0  0
 26 27  1  0  0  0  0
 27 28  2  0  0  0  0
 28 29  1  0  0  0  0
 29 31  1  0  0  0  0
 29 32  2  0  0  0  0
 30 60  1  0  0  0  0
 30 61  1  0  0  0  0
 30 62  1  0  0  0  0
 32 33  1  0  0  0  0
 32 34  1  0  0  0  0
 33 35  2  0  0  0  0
 34 63  1  0  0  0  0
 34 64  1  0  0  0  0
 34 65  1  0  0  0  0
 36 68  1  0  0  0  0
 36 69  1  0  0  0  0
 36 70  1  0  0  0  0
M  END
> <PUBCHEM_COMPOUND_CID>
90645307

> <PUBCHEM_COMPOUND_CANONICALIZED>
1

> <PUBCHEM_CACTVS_COMPLEXITY>
701

> <PUBCHEM_CACTVS_HBOND_ACCEPTOR>
8

> <PUBCHEM_CACTVS_HBOND_DONOR>
2

> <PUBCHEM_CACTVS_ROTATABLE_BOND>
10

> <PUBCHEM_CACTVS_SUBSKEYS>
AAADcfB7sABEAAAAAAAAAAAAAAAAASAAAAA8WIAAAAAAAFgB/AAAHgYQAAAADA7B2iYyx9PIFAisAiVyVACD2KBlLngImLUvb9gOZnvl99vVNaxk1hH46UeY2SGOgAAAAAAAEAAAAAAAAAAgAAAAAAAAAA==

> <PUBCHEM_IUPAC_OPENEYE_NAME>
3-amino-5-chloro-6-methoxy-N-[5-[4-(2-methoxyphenyl)piperazin-1-yl]pentyl]-4-methyl-thieno[2,3-b]pyridine-2-carboxamide

> <PUBCHEM_IUPAC_CAS_NAME>
3-amino-5-chloro-6-methoxy-N-[5-[4-(2-methoxyphenyl)-1-piperazinyl]pentyl]-4-methyl-2-thieno[2,3-b]pyridinecarboxamide

> <PUBCHEM_IUPAC_NAME_MARKUP>
3-amino-5-chloro-6-methoxy-<I>N</I>-[5-[4-(2-methoxyphenyl)piperazin-1-yl]pentyl]-4-methylthieno[2,3-b]pyridine-2-carboxamide

> <PUBCHEM_IUPAC_NAME>
3-amino-5-chloro-6-methoxy-N-[5-[4-(2-methoxyphenyl)piperazin-1-yl]pentyl]-4-methylthieno[2,3-b]pyridine-2-carboxamide

> <PUBCHEM_IUPAC_SYSTEMATIC_NAME>
3-azanyl-5-chloranyl-6-methoxy-N-[5-[4-(2-methoxyphenyl)piperazin-1-yl]pentyl]-4-methyl-thieno[2,3-b]pyridine-2-carboxamide

> <PUBCHEM_IUPAC_TRADITIONAL_NAME>
3-amino-5-chloro-6-methoxy-N-[5-[4-(2-methoxyphenyl)piperazino]pentyl]-4-methyl-thieno[2,3-b]pyridine-2-carboxamide

> <PUBCHEM_IUPAC_INCHI>
InChI=1S/C26H34ClN5O3S/c1-17-20-22(28)23(36-26(20)30-25(35-3)21(17)27)24(33)29-11-7-4-8-12-31-13-15-32(16-14-31)18-9-5-6-10-19(18)34-2/h5-6,9-10H,4,7-8,11-16,28H2,1-3H3,(H,29,33)

> <PUBCHEM_IUPAC_INCHIKEY>
HNFWRWQITYFMNA-UHFFFAOYSA-N

> <PUBCHEM_XLOGP3_AA>
5.7

> <PUBCHEM_EXACT_MASS>
531.2070888

> <PUBCHEM_MOLECULAR_FORMULA>
C26H34ClN5O3S

> <PUBCHEM_MOLECULAR_WEIGHT>
532.1

> <PUBCHEM_OPENEYE_CAN_SMILES>
CC1=C2C(=C(SC2=NC(=C1Cl)OC)C(=O)NCCCCCN3CCN(CC3)C4=CC=CC=C4OC)N

> <PUBCHEM_OPENEYE_ISO_SMILES>
CC1=C2C(=C(SC2=NC(=C1Cl)OC)C(=O)NCCCCCN3CCN(CC3)C4=CC=CC=C4OC)N

> <PUBCHEM_CACTVS_TPSA>
121

> <PUBCHEM_MONOISOTOPIC_WEIGHT>
531.2070888

> <PUBCHEM_TOTAL_CHARGE>
0

> <PUBCHEM_HEAVY_ATOM_COUNT>
36

> <PUBCHEM_ATOM_DEF_STEREO_COUNT>
0

> <PUBCHEM_ATOM_UDEF_STEREO_COUNT>
0

> <PUBCHEM_BOND_DEF_STEREO_COUNT>
0

> <PUBCHEM_BOND_UDEF_STEREO_COUNT>
0

> <PUBCHEM_ISOTOPIC_ATOM_COUNT>
0

> <PUBCHEM_COMPONENT_COUNT>
1

> <PUBCHEM_CACTVS_TAUTO_COUNT>
-1

> <PUBCHEM_COORDINATE_TYPE>
1
5
255

> <PUBCHEM_BONDANNOTATIONS>
10  31  8
10  35  8
18  20  8
18  22  8
2  27  8
2  31  8
20  23  8
22  24  8
23  25  8
24  25  8
27  28  8
28  29  8
29  31  8
29  32  8
32  33  8
33  35  8

$$$$
