10763496
  -OEChem-09292322102D

 58 61  0     1  0  0  0  0  0999 V2000
    2.0000   -4.0173    0.0000 Cl  0  0  0  0  0  0  0  0  0  0  0  0
   12.4583    1.9585    0.0000 O   0  0  0  0  0  0  0  0  0  0  0  0
    7.1962   -1.0173    0.0000 N   0  0  0  0  0  0  0  0  0  0  0  0
    8.9282    0.9827    0.0000 N   0  0  0  0  0  0  0  0  0  0  0  0
    5.4641   -2.0173    0.0000 N   0  0  0  0  0  0  0  0  0  0  0  0
    8.9282    1.9827    0.0000 C   0  0  3  0  0  0  0  0  0  0  0  0
    8.0622    2.4827    0.0000 C   0  0  0  0  0  0  0  0  0  0  0  0
    8.0622    3.4827    0.0000 C   0  0  0  0  0  0  0  0  0  0  0  0
    9.7942    2.4827    0.0000 C   0  0  0  0  0  0  0  0  0  0  0  0
    8.0622   -0.5173    0.0000 C   0  0  0  0  0  0  0  0  0  0  0  0
    7.1962   -2.0173    0.0000 C   0  0  0  0  0  0  0  0  0  0  0  0
    6.3301   -0.5173    0.0000 C   0  0  0  0  0  0  0  0  0  0  0  0
    8.9282    3.9827    0.0000 C   0  0  0  0  0  0  0  0  0  0  0  0
    8.0622    0.4827    0.0000 C   0  0  0  0  0  0  0  0  0  0  0  0
    9.7942    3.4827    0.0000 C   0  0  0  0  0  0  0  0  0  0  0  0
    6.3301   -2.5173    0.0000 C   0  0  0  0  0  0  0  0  0  0  0  0
    5.4641   -1.0173    0.0000 C   0  0  0  0  0  0  0  0  0  0  0  0
   10.6882    1.9480    0.0000 C   0  0  0  0  0  0  0  0  0  0  0  0
   10.6882    4.0173    0.0000 C   0  0  0  0  0  0  0  0  0  0  0  0
    4.5981   -2.5173    0.0000 C   0  0  0  0  0  0  0  0  0  0  0  0
   11.5942    2.4618    0.0000 C   0  0  0  0  0  0  0  0  0  0  0  0
   11.5942    3.5035    0.0000 C   0  0  0  0  0  0  0  0  0  0  0  0
    4.5981   -3.5173    0.0000 C   0  0  0  0  0  0  0  0  0  0  0  0
    3.7320   -2.0173    0.0000 C   0  0  0  0  0  0  0  0  0  0  0  0
    3.7320   -4.0173    0.0000 C   0  0  0  0  0  0  0  0  0  0  0  0
    2.8660   -2.5173    0.0000 C   0  0  0  0  0  0  0  0  0  0  0  0
    2.8660   -3.5173    0.0000 C   0  0  0  0  0  0  0  0  0  0  0  0
   13.3263    2.4552    0.0000 C   0  0  0  0  0  0  0  0  0  0  0  0
    9.4651    1.6727    0.0000 H   0  0  0  0  0  0  0  0  0  0  0  0
    7.4516    2.5903    0.0000 H   0  0  0  0  0  0  0  0  0  0  0  0
    7.8501    1.9001    0.0000 H   0  0  0  0  0  0  0  0  0  0  0  0
    7.8501    4.0653    0.0000 H   0  0  0  0  0  0  0  0  0  0  0  0
    7.4516    3.3750    0.0000 H   0  0  0  0  0  0  0  0  0  0  0  0
    8.2742   -1.0999    0.0000 H   0  0  0  0  0  0  0  0  0  0  0  0
    8.6728   -0.4097    0.0000 H   0  0  0  0  0  0  0  0  0  0  0  0
    7.4082   -2.5999    0.0000 H   0  0  0  0  0  0  0  0  0  0  0  0
    7.8067   -1.9097    0.0000 H   0  0  0  0  0  0  0  0  0  0  0  0
    6.7287   -0.0424    0.0000 H   0  0  0  0  0  0  0  0  0  0  0  0
    5.9316   -0.0424    0.0000 H   0  0  0  0  0  0  0  0  0  0  0  0
    9.3267    4.4576    0.0000 H   0  0  0  0  0  0  0  0  0  0  0  0
    8.5297    4.4576    0.0000 H   0  0  0  0  0  0  0  0  0  0  0  0
    7.8501    1.0653    0.0000 H   0  0  0  0  0  0  0  0  0  0  0  0
    7.4516    0.3750    0.0000 H   0  0  0  0  0  0  0  0  0  0  0  0
    9.4651    0.6727    0.0000 H   0  0  0  0  0  0  0  0  0  0  0  0
    5.9316   -2.9923    0.0000 H   0  0  0  0  0  0  0  0  0  0  0  0
    6.7287   -2.9923    0.0000 H   0  0  0  0  0  0  0  0  0  0  0  0
    5.2520   -0.4347    0.0000 H   0  0  0  0  0  0  0  0  0  0  0  0
    4.8535   -1.1250    0.0000 H   0  0  0  0  0  0  0  0  0  0  0  0
   10.6810    1.3280    0.0000 H   0  0  0  0  0  0  0  0  0  0  0  0
   10.6810    4.6373    0.0000 H   0  0  0  0  0  0  0  0  0  0  0  0
   12.1300    3.8156    0.0000 H   0  0  0  0  0  0  0  0  0  0  0  0
    5.1350   -3.8273    0.0000 H   0  0  0  0  0  0  0  0  0  0  0  0
    3.7320   -1.3973    0.0000 H   0  0  0  0  0  0  0  0  0  0  0  0
    3.7320   -4.6373    0.0000 H   0  0  0  0  0  0  0  0  0  0  0  0
    2.3291   -2.2073    0.0000 H   0  0  0  0  0  0  0  0  0  0  0  0
   13.6342    1.9170    0.0000 H   0  0  0  0  0  0  0  0  0  0  0  0
   13.8644    2.7631    0.0000 H   0  0  0  0  0  0  0  0  0  0  0  0
   13.0183    2.9933    0.0000 H   0  0  0  0  0  0  0  0  0  0  0  0
  1 27  1  0  0  0  0
  2 21  1  0  0  0  0
  2 28  1  0  0  0  0
  3 10  1  0  0  0  0
  3 11  1  0  0  0  0
  3 12  1  0  0  0  0
  4  6  1  0  0  0  0
  4 14  1  0  0  0  0
  4 44  1  0  0  0  0
  5 16  1  0  0  0  0
  5 17  1  0  0  0  0
  5 20  1  0  0  0  0
  6  7  1  0  0  0  0
  6  9  1  0  0  0  0
  6 29  1  0  0  0  0
  7  8  1  0  0  0  0
  7 30  1  0  0  0  0
  7 31  1  0  0  0  0
  8 13  1  0  0  0  0
  8 32  1  0  0  0  0
  8 33  1  0  0  0  0
  9 15  2  0  0  0  0
  9 18  1  0  0  0  0
 10 14  1  0  0  0  0
 10 34  1  0  0  0  0
 10 35  1  0  0  0  0
 11 16  1  0  0  0  0
 11 36  1  0  0  0  0
 11 37  1  0  0  0  0
 12 17  1  0  0  0  0
 12 38  1  0  0  0  0
 12 39  1  0  0  0  0
 13 15  1  0  0  0  0
 13 40  1  0  0  0  0
 13 41  1  0  0  0  0
 14 42  1  0  0  0  0
 14 43  1  0  0  0  0
 15 19  1  0  0  0  0
 16 45  1  0  0  0  0
 16 46  1  0  0  0  0
 17 47  1  0  0  0  0
 17 48  1  0  0  0  0
 18 21  2  0  0  0  0
 18 49  1  0  0  0  0
 19 22  2  0  0  0  0
 19 50  1  0  0  0  0
 20 23  2  0  0  0  0
 20 24  1  0  0  0  0
 21 22  1  0  0  0  0
 22 51  1  0  0  0  0
 23 25  1  0  0  0  0
 23 52  1  0  0  0  0
 24 26  2  0  0  0  0
 24 53  1  0  0  0  0
 25 27  2  0  0  0  0
 25 54  1  0  0  0  0
 26 27  1  0  0  0  0
 26 55  1  0  0  0  0
 28 56  1  0  0  0  0
 28 57  1  0  0  0  0
 28 58  1  0  0  0  0
M  END
> <PUBCHEM_COMPOUND_CID>
10763496

> <PUBCHEM_COMPOUND_CANONICALIZED>
1

> <PUBCHEM_CACTVS_COMPLEXITY>
463

> <PUBCHEM_CACTVS_HBOND_ACCEPTOR>
4

> <PUBCHEM_CACTVS_HBOND_DONOR>
1

> <PUBCHEM_CACTVS_ROTATABLE_BOND>
6

> <PUBCHEM_CACTVS_SUBSKEYS>
AAADceB7IAAEAAAAAAAAAAAAAAAAAAAAAAA8YMEAAAAAAADBQAAAHgIQAAAADC7BmCYyxoPABACAAiRCQACCCAAhJwAIiIAObogMZiLFs5uUMChk0BHI6AewwLAOoABBAAAQAABAAIKAACQAAAAAAAAAAA==

> <PUBCHEM_IUPAC_OPENEYE_NAME>
N-[2-[4-(4-chlorophenyl)piperazin-1-yl]ethyl]-7-methoxy-tetralin-1-amine

> <PUBCHEM_IUPAC_CAS_NAME>
N-[2-[4-(4-chlorophenyl)-1-piperazinyl]ethyl]-7-methoxy-1,2,3,4-tetrahydronaphthalen-1-amine

> <PUBCHEM_IUPAC_NAME_MARKUP>
<I>N</I>-[2-[4-(4-chlorophenyl)piperazin-1-yl]ethyl]-7-methoxy-1,2,3,4-tetrahydronaphthalen-1-amine

> <PUBCHEM_IUPAC_NAME>
N-[2-[4-(4-chlorophenyl)piperazin-1-yl]ethyl]-7-methoxy-1,2,3,4-tetrahydronaphthalen-1-amine

> <PUBCHEM_IUPAC_SYSTEMATIC_NAME>
N-[2-[4-(4-chlorophenyl)piperazin-1-yl]ethyl]-7-methoxy-1,2,3,4-tetrahydronaphthalen-1-amine

> <PUBCHEM_IUPAC_TRADITIONAL_NAME>
2-[4-(4-chlorophenyl)piperazino]ethyl-(7-methoxytetralin-1-yl)amine

> <PUBCHEM_IUPAC_INCHI>
InChI=1S/C23H30ClN3O/c1-28-21-10-5-18-3-2-4-23(22(18)17-21)25-11-12-26-13-15-27(16-14-26)20-8-6-19(24)7-9-20/h5-10,17,23,25H,2-4,11-16H2,1H3

> <PUBCHEM_IUPAC_INCHIKEY>
MFLTUPXICJHQFA-UHFFFAOYSA-N

> <PUBCHEM_XLOGP3_AA>
4.3

> <PUBCHEM_EXACT_MASS>
399.2077403

> <PUBCHEM_MOLECULAR_FORMULA>
C23H30ClN3O

> <PUBCHEM_MOLECULAR_WEIGHT>
400.0

> <PUBCHEM_OPENEYE_CAN_SMILES>
COC1=CC2=C(CCCC2NCCN3CCN(CC3)C4=CC=C(C=C4)Cl)C=C1

> <PUBCHEM_OPENEYE_ISO_SMILES>
COC1=CC2=C(CCCC2NCCN3CCN(CC3)C4=CC=C(C=C4)Cl)C=C1

> <PUBCHEM_CACTVS_TPSA>
27.7

> <PUBCHEM_MONOISOTOPIC_WEIGHT>
399.2077403

> <PUBCHEM_TOTAL_CHARGE>
0

> <PUBCHEM_HEAVY_ATOM_COUNT>
28

> <PUBCHEM_ATOM_DEF_STEREO_COUNT>
0

> <PUBCHEM_ATOM_UDEF_STEREO_COUNT>
1

> <PUBCHEM_BOND_DEF_STEREO_COUNT>
0

> <PUBCHEM_BOND_UDEF_STEREO_COUNT>
0

> <PUBCHEM_ISOTOPIC_ATOM_COUNT>
0

> <PUBCHEM_COMPONENT_COUNT>
1

> <PUBCHEM_CACTVS_TAUTO_COUNT>
-1

> <PUBCHEM_COORDINATE_TYPE>
1
5
255

> <PUBCHEM_BONDANNOTATIONS>
15  19  8
18  21  8
19  22  8
20  23  8
20  24  8
21  22  8
23  25  8
24  26  8
25  27  8
26  27  8
6  4  3
9  15  8
9  18  8

$$$$
