11338096
  -OEChem-09292322322D

 56 58  0     1  0  0  0  0  0999 V2000
    2.0000   -0.2329    0.0000 O   0  0  0  0  0  0  0  0  0  0  0  0
    2.0000    1.7671    0.0000 O   0  0  0  0  0  0  0  0  0  0  0  0
    9.8660    1.2329    0.0000 O   0  0  0  0  0  0  0  0  0  0  0  0
    9.8544   -1.7671    0.0000 O   0  0  0  0  0  0  0  0  0  0  0  0
    6.3981    0.2463    0.0000 N   0  0  3  0  0  0  0  0  0  0  0  0
    8.9942   -0.2638    0.0000 N   0  0  0  0  0  0  0  0  0  0  0  0
    6.3981    1.2879    0.0000 C   0  0  0  0  0  0  0  0  0  0  0  0
    5.4920   -0.2676    0.0000 C   0  0  0  0  0  0  0  0  0  0  0  0
    5.4920    1.8017    0.0000 C   0  0  0  0  0  0  0  0  0  0  0  0
    4.5981    0.2671    0.0000 C   0  0  0  0  0  0  0  0  0  0  0  0
    4.5981    1.2671    0.0000 C   0  0  0  0  0  0  0  0  0  0  0  0
    7.2622   -0.2571    0.0000 C   0  0  0  0  0  0  0  0  0  0  0  0
    8.1301    0.2396    0.0000 C   0  0  0  0  0  0  0  0  0  0  0  0
    3.7320   -0.2329    0.0000 C   0  0  0  0  0  0  0  0  0  0  0  0
    3.7320    1.7671    0.0000 C   0  0  0  0  0  0  0  0  0  0  0  0
    2.8660    0.2671    0.0000 C   0  0  0  0  0  0  0  0  0  0  0  0
    2.8660    1.2671    0.0000 C   0  0  0  0  0  0  0  0  0  0  0  0
    9.8622    0.2329    0.0000 C   0  0  0  0  0  0  0  0  0  0  0  0
   10.7263   -0.2704    0.0000 C   0  0  0  0  0  0  0  0  0  0  0  0
    2.0000   -1.2329    0.0000 C   0  0  0  0  0  0  0  0  0  0  0  0
    2.0000    2.7671    0.0000 C   0  0  0  0  0  0  0  0  0  0  0  0
   10.7224   -1.2704    0.0000 C   0  0  0  0  0  0  0  0  0  0  0  0
   11.5942    0.2262    0.0000 C   0  0  0  0  0  0  0  0  0  0  0  0
   12.4583   -0.2771    0.0000 C   0  0  0  0  0  0  0  0  0  0  0  0
   11.5865   -1.7738    0.0000 C   0  0  0  0  0  0  0  0  0  0  0  0
   12.4544   -1.2771    0.0000 C   0  0  0  0  0  0  0  0  0  0  0  0
   13.3262    0.2196    0.0000 C   0  0  0  0  0  0  0  0  0  0  0  0
    9.8506   -2.7671    0.0000 C   0  0  0  0  0  0  0  0  0  0  0  0
    7.0089    1.1818    0.0000 H   0  0  0  0  0  0  0  0  0  0  0  0
    6.6071    1.8716    0.0000 H   0  0  0  0  0  0  0  0  0  0  0  0
    5.0874   -0.7374    0.0000 H   0  0  0  0  0  0  0  0  0  0  0  0
    5.8856   -0.7466    0.0000 H   0  0  0  0  0  0  0  0  0  0  0  0
    5.8856    2.2808    0.0000 H   0  0  0  0  0  0  0  0  0  0  0  0
    5.0874    2.2715    0.0000 H   0  0  0  0  0  0  0  0  0  0  0  0
    6.8618   -0.7305    0.0000 H   0  0  0  0  0  0  0  0  0  0  0  0
    7.6589   -0.7336    0.0000 H   0  0  0  0  0  0  0  0  0  0  0  0
    8.5305    0.7130    0.0000 H   0  0  0  0  0  0  0  0  0  0  0  0
    7.7334    0.7161    0.0000 H   0  0  0  0  0  0  0  0  0  0  0  0
    3.7320   -0.8529    0.0000 H   0  0  0  0  0  0  0  0  0  0  0  0
    3.7320    2.3871    0.0000 H   0  0  0  0  0  0  0  0  0  0  0  0
    8.9918   -0.8837    0.0000 H   0  0  0  0  0  0  0  0  0  0  0  0
    1.3800   -1.2329    0.0000 H   0  0  0  0  0  0  0  0  0  0  0  0
    2.0000   -1.8529    0.0000 H   0  0  0  0  0  0  0  0  0  0  0  0
    2.6200   -1.2329    0.0000 H   0  0  0  0  0  0  0  0  0  0  0  0
    2.6200    2.7671    0.0000 H   0  0  0  0  0  0  0  0  0  0  0  0
    2.0000    3.3871    0.0000 H   0  0  0  0  0  0  0  0  0  0  0  0
    1.3800    2.7671    0.0000 H   0  0  0  0  0  0  0  0  0  0  0  0
   11.5966    0.8462    0.0000 H   0  0  0  0  0  0  0  0  0  0  0  0
   11.5841   -2.3938    0.0000 H   0  0  0  0  0  0  0  0  0  0  0  0
   12.9902   -1.5892    0.0000 H   0  0  0  0  0  0  0  0  0  0  0  0
   13.6342   -0.3186    0.0000 H   0  0  0  0  0  0  0  0  0  0  0  0
   13.8644    0.5275    0.0000 H   0  0  0  0  0  0  0  0  0  0  0  0
   13.0183    0.7577    0.0000 H   0  0  0  0  0  0  0  0  0  0  0  0
    9.2306   -2.7647    0.0000 H   0  0  0  0  0  0  0  0  0  0  0  0
    9.8482   -3.3871    0.0000 H   0  0  0  0  0  0  0  0  0  0  0  0
   10.4706   -2.7695    0.0000 H   0  0  0  0  0  0  0  0  0  0  0  0
  1 16  1  0  0  0  0
  1 20  1  0  0  0  0
  2 17  1  0  0  0  0
  2 21  1  0  0  0  0
  3 18  2  0  0  0  0
  4 22  1  0  0  0  0
  4 28  1  0  0  0  0
  5  7  1  0  0  0  0
  5  8  1  0  0  0  0
  5 12  1  0  0  0  0
  6 13  1  0  0  0  0
  6 18  1  0  0  0  0
  6 41  1  0  0  0  0
  7  9  1  0  0  0  0
  7 29  1  0  0  0  0
  7 30  1  0  0  0  0
  8 10  1  0  0  0  0
  8 31  1  0  0  0  0
  8 32  1  0  0  0  0
  9 11  1  0  0  0  0
  9 33  1  0  0  0  0
  9 34  1  0  0  0  0
 10 11  1  0  0  0  0
 10 14  2  0  0  0  0
 11 15  2  0  0  0  0
 12 13  1  0  0  0  0
 12 35  1  0  0  0  0
 12 36  1  0  0  0  0
 13 37  1  0  0  0  0
 13 38  1  0  0  0  0
 14 16  1  0  0  0  0
 14 39  1  0  0  0  0
 15 17  1  0  0  0  0
 15 40  1  0  0  0  0
 16 17  2  0  0  0  0
 18 19  1  0  0  0  0
 19 22  2  0  0  0  0
 19 23  1  0  0  0  0
 20 42  1  0  0  0  0
 20 43  1  0  0  0  0
 20 44  1  0  0  0  0
 21 45  1  0  0  0  0
 21 46  1  0  0  0  0
 21 47  1  0  0  0  0
 22 25  1  0  0  0  0
 23 24  2  0  0  0  0
 23 48  1  0  0  0  0
 24 26  1  0  0  0  0
 24 27  1  0  0  0  0
 25 26  2  0  0  0  0
 25 49  1  0  0  0  0
 26 50  1  0  0  0  0
 27 51  1  0  0  0  0
 27 52  1  0  0  0  0
 27 53  1  0  0  0  0
 28 54  1  0  0  0  0
 28 55  1  0  0  0  0
 28 56  1  0  0  0  0
M  END
> <PUBCHEM_COMPOUND_CID>
11338096

> <PUBCHEM_COMPOUND_CANONICALIZED>
1

> <PUBCHEM_CACTVS_COMPLEXITY>
503

> <PUBCHEM_CACTVS_HBOND_ACCEPTOR>
5

> <PUBCHEM_CACTVS_HBOND_DONOR>
1

> <PUBCHEM_CACTVS_ROTATABLE_BOND>
7

> <PUBCHEM_CACTVS_SUBSKEYS>
AAADceB7OAAAAAAAAAAAAAAAAAAAAAAAAAA8YIAAAAAAAACxQAAAHgAQAAAADATBmAYyBoPABACIAiFSEACCCAAkIAAIiIEOjMgNZjaEtRuUMWpm9hGKqYe42PKOoAADAAAYQABAAAYAADCAAAAAAAAAAA==

> <PUBCHEM_IUPAC_OPENEYE_NAME>
N-[2-(6,7-dimethoxy-3,4-dihydro-1H-isoquinolin-2-yl)ethyl]-2-methoxy-5-methyl-benzamide

> <PUBCHEM_IUPAC_CAS_NAME>
N-[2-(6,7-dimethoxy-3,4-dihydro-1H-isoquinolin-2-yl)ethyl]-2-methoxy-5-methylbenzamide

> <PUBCHEM_IUPAC_NAME_MARKUP>
<I>N</I>-[2-(6,7-dimethoxy-3,4-dihydro-1<I>H</I>-isoquinolin-2-yl)ethyl]-2-methoxy-5-methylbenzamide

> <PUBCHEM_IUPAC_NAME>
N-[2-(6,7-dimethoxy-3,4-dihydro-1H-isoquinolin-2-yl)ethyl]-2-methoxy-5-methylbenzamide

> <PUBCHEM_IUPAC_SYSTEMATIC_NAME>
N-[2-(6,7-dimethoxy-3,4-dihydro-1H-isoquinolin-2-yl)ethyl]-2-methoxy-5-methyl-benzamide

> <PUBCHEM_IUPAC_TRADITIONAL_NAME>
N-[2-(6,7-dimethoxy-3,4-dihydro-1H-isoquinolin-2-yl)ethyl]-2-methoxy-5-methyl-benzamide

> <PUBCHEM_IUPAC_INCHI>
InChI=1S/C22H28N2O4/c1-15-5-6-19(26-2)18(11-15)22(25)23-8-10-24-9-7-16-12-20(27-3)21(28-4)13-17(16)14-24/h5-6,11-13H,7-10,14H2,1-4H3,(H,23,25)

> <PUBCHEM_IUPAC_INCHIKEY>
CKJPETQDQGIHJS-UHFFFAOYSA-N

> <PUBCHEM_XLOGP3_AA>
3

> <PUBCHEM_EXACT_MASS>
384.20490738

> <PUBCHEM_MOLECULAR_FORMULA>
C22H28N2O4

> <PUBCHEM_MOLECULAR_WEIGHT>
384.5

> <PUBCHEM_OPENEYE_CAN_SMILES>
CC1=CC(=C(C=C1)OC)C(=O)NCCN2CCC3=CC(=C(C=C3C2)OC)OC

> <PUBCHEM_OPENEYE_ISO_SMILES>
CC1=CC(=C(C=C1)OC)C(=O)NCCN2CCC3=CC(=C(C=C3C2)OC)OC

> <PUBCHEM_CACTVS_TPSA>
60

> <PUBCHEM_MONOISOTOPIC_WEIGHT>
384.20490738

> <PUBCHEM_TOTAL_CHARGE>
0

> <PUBCHEM_HEAVY_ATOM_COUNT>
28

> <PUBCHEM_ATOM_DEF_STEREO_COUNT>
0

> <PUBCHEM_ATOM_UDEF_STEREO_COUNT>
0

> <PUBCHEM_BOND_DEF_STEREO_COUNT>
0

> <PUBCHEM_BOND_UDEF_STEREO_COUNT>
0

> <PUBCHEM_ISOTOPIC_ATOM_COUNT>
0

> <PUBCHEM_COMPONENT_COUNT>
1

> <PUBCHEM_CACTVS_TAUTO_COUNT>
-1

> <PUBCHEM_COORDINATE_TYPE>
1
5
255

> <PUBCHEM_BONDANNOTATIONS>
10  11  8
10  14  8
11  15  8
14  16  8
15  17  8
16  17  8
19  22  8
19  23  8
22  25  8
23  24  8
24  26  8
25  26  8

$$$$
