56599146
  -OEChem-09292321592D

 67 71  0     0  0  0  0  0  0999 V2000
    3.7359   -1.3011    0.0000 Cl  0  0  0  0  0  0  0  0  0  0  0  0
    2.0000   -0.3078    0.0000 Cl  0  0  0  0  0  0  0  0  0  0  0  0
   12.3922   -0.2677    0.0000 O   0  0  0  0  0  0  0  0  0  0  0  0
   17.6544   -0.2436    0.0000 O   0  0  0  0  0  0  0  0  0  0  0  0
    7.2000   -1.2878    0.0000 N   0  0  0  0  0  0  0  0  0  0  0  0
    5.4641   -0.2944    0.0000 N   0  0  0  0  0  0  0  0  0  0  0  0
   15.9224   -0.2436    0.0000 N   0  0  0  0  0  0  0  0  0  0  0  0
    8.9320   -1.2811    0.0000 C   0  0  0  0  0  0  0  0  0  0  0  0
   10.6602   -0.2744    0.0000 C   0  0  0  0  0  0  0  0  0  0  0  0
    8.9282   -0.2811    0.0000 C   0  0  0  0  0  0  0  0  0  0  0  0
    9.8000   -1.7777    0.0000 C   0  0  0  0  0  0  0  0  0  0  0  0
    9.7922    0.2223    0.0000 C   0  0  0  0  0  0  0  0  0  0  0  0
   10.6640   -1.2744    0.0000 C   0  0  0  0  0  0  0  0  0  0  0  0
    8.0679   -1.7844    0.0000 C   0  0  0  0  0  0  0  0  0  0  0  0
   11.5243    0.2289    0.0000 C   0  0  0  0  0  0  0  0  0  0  0  0
    6.3359   -1.7911    0.0000 C   0  0  0  0  0  0  0  0  0  0  0  0
    7.1961   -0.2878    0.0000 C   0  0  0  0  0  0  0  0  0  0  0  0
    5.4679   -1.2944    0.0000 C   0  0  0  0  0  0  0  0  0  0  0  0
    6.3282    0.2089    0.0000 C   0  0  0  0  0  0  0  0  0  0  0  0
    4.5961    0.2022    0.0000 C   0  0  0  0  0  0  0  0  0  0  0  0
   13.2563    0.2356    0.0000 C   0  0  0  0  0  0  0  0  0  0  0  0
    3.7320   -0.3011    0.0000 C   0  0  0  0  0  0  0  0  0  0  0  0
    4.5923    1.2022    0.0000 C   0  0  0  0  0  0  0  0  0  0  0  0
   14.1624   -0.2782    0.0000 C   0  0  0  0  0  0  0  0  0  0  0  0
   13.2563    1.2772    0.0000 C   0  0  0  0  0  0  0  0  0  0  0  0
   15.0563    0.2564    0.0000 C   0  0  0  0  0  0  0  0  0  0  0  0
   15.0563    1.2564    0.0000 C   0  0  0  0  0  0  0  0  0  0  0  0
    2.8641    0.1955    0.0000 C   0  0  0  0  0  0  0  0  0  0  0  0
    3.7243    1.6989    0.0000 C   0  0  0  0  0  0  0  0  0  0  0  0
   14.1624    1.7911    0.0000 C   0  0  0  0  0  0  0  0  0  0  0  0
   15.9224    1.7564    0.0000 C   0  0  0  0  0  0  0  0  0  0  0  0
    2.8602    1.1955    0.0000 C   0  0  0  0  0  0  0  0  0  0  0  0
   16.7884    1.2564    0.0000 C   0  0  0  0  0  0  0  0  0  0  0  0
   16.7884    0.2564    0.0000 C   0  0  0  0  0  0  0  0  0  0  0  0
    8.3939   -0.9731    0.0000 H   0  0  0  0  0  0  0  0  0  0  0  0
   10.6578    0.3456    0.0000 H   0  0  0  0  0  0  0  0  0  0  0  0
    8.7139    0.3007    0.0000 H   0  0  0  0  0  0  0  0  0  0  0  0
    8.3180   -0.3911    0.0000 H   0  0  0  0  0  0  0  0  0  0  0  0
    9.4033   -2.2542    0.0000 H   0  0  0  0  0  0  0  0  0  0  0  0
   10.2003   -2.2511    0.0000 H   0  0  0  0  0  0  0  0  0  0  0  0
   10.1889    0.6987    0.0000 H   0  0  0  0  0  0  0  0  0  0  0  0
    9.3919    0.6957    0.0000 H   0  0  0  0  0  0  0  0  0  0  0  0
   10.8783   -1.8562    0.0000 H   0  0  0  0  0  0  0  0  0  0  0  0
   11.2742   -1.1644    0.0000 H   0  0  0  0  0  0  0  0  0  0  0  0
    7.6712   -2.2609    0.0000 H   0  0  0  0  0  0  0  0  0  0  0  0
    8.4683   -2.2578    0.0000 H   0  0  0  0  0  0  0  0  0  0  0  0
   11.9210    0.7054    0.0000 H   0  0  0  0  0  0  0  0  0  0  0  0
   11.1239    0.7023    0.0000 H   0  0  0  0  0  0  0  0  0  0  0  0
    5.9392   -2.2676    0.0000 H   0  0  0  0  0  0  0  0  0  0  0  0
    6.7362   -2.2645    0.0000 H   0  0  0  0  0  0  0  0  0  0  0  0
    7.8071   -0.3931    0.0000 H   0  0  0  0  0  0  0  0  0  0  0  0
    7.4059    0.2957    0.0000 H   0  0  0  0  0  0  0  0  0  0  0  0
    4.8569   -1.1891    0.0000 H   0  0  0  0  0  0  0  0  0  0  0  0
    5.2581   -1.8778    0.0000 H   0  0  0  0  0  0  0  0  0  0  0  0
    6.7249    0.6854    0.0000 H   0  0  0  0  0  0  0  0  0  0  0  0
    5.9278    0.6823    0.0000 H   0  0  0  0  0  0  0  0  0  0  0  0
    5.1280    1.5143    0.0000 H   0  0  0  0  0  0  0  0  0  0  0  0
   14.1696   -0.8982    0.0000 H   0  0  0  0  0  0  0  0  0  0  0  0
   12.7206    1.5893    0.0000 H   0  0  0  0  0  0  0  0  0  0  0  0
   14.1696    2.4110    0.0000 H   0  0  0  0  0  0  0  0  0  0  0  0
    3.7219    2.3189    0.0000 H   0  0  0  0  0  0  0  0  0  0  0  0
   16.3209    2.2314    0.0000 H   0  0  0  0  0  0  0  0  0  0  0  0
   15.5238    2.2314    0.0000 H   0  0  0  0  0  0  0  0  0  0  0  0
    2.3221    1.5035    0.0000 H   0  0  0  0  0  0  0  0  0  0  0  0
   17.3990    1.1488    0.0000 H   0  0  0  0  0  0  0  0  0  0  0  0
   17.0004    1.8390    0.0000 H   0  0  0  0  0  0  0  0  0  0  0  0
   15.9224   -0.8636    0.0000 H   0  0  0  0  0  0  0  0  0  0  0  0
  1 22  1  0  0  0  0
  2 28  1  0  0  0  0
  3 15  1  0  0  0  0
  3 21  1  0  0  0  0
  4 34  2  0  0  0  0
  5 14  1  0  0  0  0
  5 16  1  0  0  0  0
  5 17  1  0  0  0  0
  6 18  1  0  0  0  0
  6 19  1  0  0  0  0
  6 20  1  0  0  0  0
  7 26  1  0  0  0  0
  7 34  1  0  0  0  0
  7 67  1  0  0  0  0
  8 10  1  0  0  0  0
  8 11  1  0  0  0  0
  8 14  1  0  0  0  0
  8 35  1  0  0  0  0
  9 12  1  0  0  0  0
  9 13  1  0  0  0  0
  9 15  1  0  0  0  0
  9 36  1  0  0  0  0
 10 12  1  0  0  0  0
 10 37  1  0  0  0  0
 10 38  1  0  0  0  0
 11 13  1  0  0  0  0
 11 39  1  0  0  0  0
 11 40  1  0  0  0  0
 12 41  1  0  0  0  0
 12 42  1  0  0  0  0
 13 43  1  0  0  0  0
 13 44  1  0  0  0  0
 14 45  1  0  0  0  0
 14 46  1  0  0  0  0
 15 47  1  0  0  0  0
 15 48  1  0  0  0  0
 16 18  1  0  0  0  0
 16 49  1  0  0  0  0
 16 50  1  0  0  0  0
 17 19  1  0  0  0  0
 17 51  1  0  0  0  0
 17 52  1  0  0  0  0
 18 53  1  0  0  0  0
 18 54  1  0  0  0  0
 19 55  1  0  0  0  0
 19 56  1  0  0  0  0
 20 22  2  0  0  0  0
 20 23  1  0  0  0  0
 21 24  2  0  0  0  0
 21 25  1  0  0  0  0
 22 28  1  0  0  0  0
 23 29  2  0  0  0  0
 23 57  1  0  0  0  0
 24 26  1  0  0  0  0
 24 58  1  0  0  0  0
 25 30  2  0  0  0  0
 25 59  1  0  0  0  0
 26 27  2  0  0  0  0
 27 30  1  0  0  0  0
 27 31  1  0  0  0  0
 28 32  2  0  0  0  0
 29 32  1  0  0  0  0
 29 61  1  0  0  0  0
 30 60  1  0  0  0  0
 31 33  1  0  0  0  0
 31 62  1  0  0  0  0
 31 63  1  0  0  0  0
 32 64  1  0  0  0  0
 33 34  1  0  0  0  0
 33 65  1  0  0  0  0
 33 66  1  0  0  0  0
M  END
> <PUBCHEM_COMPOUND_CID>
56599146

> <PUBCHEM_COMPOUND_CANONICALIZED>
1

> <PUBCHEM_CACTVS_COMPLEXITY>
666

> <PUBCHEM_CACTVS_HBOND_ACCEPTOR>
4

> <PUBCHEM_CACTVS_HBOND_DONOR>
1

> <PUBCHEM_CACTVS_ROTATABLE_BOND>
6

> <PUBCHEM_CACTVS_SUBSKEYS>
AAADcfB7MAAGAAAAAAAAAAAAAAAAAAAAAAA8eMECAAAAAACxQAAAHgIQAAAADQ7hmCYwxoPABACIAiVSUACCCAAhJwAIikEObogMZjLFs5vWOCjm1BnI6AeY2bOeIAAAAgICABTAAAAEBAQAKAAAAAAAAA==

> <PUBCHEM_IUPAC_OPENEYE_NAME>
7-[[4-[[4-(2,3-dichlorophenyl)piperazin-1-yl]methyl]cyclohexyl]methoxy]-3,4-dihydro-1H-quinolin-2-one

> <PUBCHEM_IUPAC_CAS_NAME>
7-[[4-[[4-(2,3-dichlorophenyl)-1-piperazinyl]methyl]cyclohexyl]methoxy]-3,4-dihydro-1H-quinolin-2-one

> <PUBCHEM_IUPAC_NAME_MARKUP>
7-[[4-[[4-(2,3-dichlorophenyl)piperazin-1-yl]methyl]cyclohexyl]methoxy]-3,4-dihydro-1<I>H</I>-quinolin-2-one

> <PUBCHEM_IUPAC_NAME>
7-[[4-[[4-(2,3-dichlorophenyl)piperazin-1-yl]methyl]cyclohexyl]methoxy]-3,4-dihydro-1H-quinolin-2-one

> <PUBCHEM_IUPAC_SYSTEMATIC_NAME>
7-[[4-[[4-[2,3-bis(chloranyl)phenyl]piperazin-1-yl]methyl]cyclohexyl]methoxy]-3,4-dihydro-1H-quinolin-2-one

> <PUBCHEM_IUPAC_TRADITIONAL_NAME>
7-[[4-[[4-(2,3-dichlorophenyl)piperazino]methyl]cyclohexyl]methoxy]-3,4-dihydrocarbostyril

> <PUBCHEM_IUPAC_INCHI>
InChI=1S/C27H33Cl2N3O2/c28-23-2-1-3-25(27(23)29)32-14-12-31(13-15-32)17-19-4-6-20(7-5-19)18-34-22-10-8-21-9-11-26(33)30-24(21)16-22/h1-3,8,10,16,19-20H,4-7,9,11-15,17-18H2,(H,30,33)

> <PUBCHEM_IUPAC_INCHIKEY>
CRARFJICFRVCGK-UHFFFAOYSA-N

> <PUBCHEM_XLOGP3_AA>
5.6

> <PUBCHEM_EXACT_MASS>
501.1949827

> <PUBCHEM_MOLECULAR_FORMULA>
C27H33Cl2N3O2

> <PUBCHEM_MOLECULAR_WEIGHT>
502.5

> <PUBCHEM_OPENEYE_CAN_SMILES>
C1CC(CCC1CN2CCN(CC2)C3=C(C(=CC=C3)Cl)Cl)COC4=CC5=C(CCC(=O)N5)C=C4

> <PUBCHEM_OPENEYE_ISO_SMILES>
C1CC(CCC1CN2CCN(CC2)C3=C(C(=CC=C3)Cl)Cl)COC4=CC5=C(CCC(=O)N5)C=C4

> <PUBCHEM_CACTVS_TPSA>
44.8

> <PUBCHEM_MONOISOTOPIC_WEIGHT>
501.1949827

> <PUBCHEM_TOTAL_CHARGE>
0

> <PUBCHEM_HEAVY_ATOM_COUNT>
34

> <PUBCHEM_ATOM_DEF_STEREO_COUNT>
0

> <PUBCHEM_ATOM_UDEF_STEREO_COUNT>
0

> <PUBCHEM_BOND_DEF_STEREO_COUNT>
0

> <PUBCHEM_BOND_UDEF_STEREO_COUNT>
0

> <PUBCHEM_ISOTOPIC_ATOM_COUNT>
0

> <PUBCHEM_COMPONENT_COUNT>
1

> <PUBCHEM_CACTVS_TAUTO_COUNT>
-1

> <PUBCHEM_COORDINATE_TYPE>
1
5
255

> <PUBCHEM_BONDANNOTATIONS>
20  22  8
20  23  8
21  24  8
21  25  8
22  28  8
23  29  8
24  26  8
25  30  8
26  27  8
27  30  8
28  32  8
29  32  8

$$$$
