25071691
  -OEChem-09292321592D

 56 59  0     0  0  0  0  0  0999 V2000
    4.5981   -2.2699    0.0000 Cl  0  0  0  0  0  0  0  0  0  0  0  0
    2.8660   -3.2699    0.0000 Cl  0  0  0  0  0  0  0  0  0  0  0  0
   10.6603    1.2301    0.0000 O   0  0  0  0  0  0  0  0  0  0  0  0
   15.8044    3.1421    0.0000 O   0  0  0  0  0  0  0  0  0  0  0  0
    6.3301    0.7301    0.0000 N   0  0  0  0  0  0  0  0  0  0  0  0
    4.5981   -0.2699    0.0000 N   0  0  0  0  0  0  0  0  0  0  0  0
   13.2583   -0.2699    0.0000 N   0  0  0  0  0  0  0  0  0  0  0  0
   14.2045   -0.5747    0.0000 N   0  0  0  0  0  0  0  0  0  0  0  0
   15.4937    2.1916    0.0000 N   0  0  0  0  0  0  0  0  0  0  0  0
    5.4641    1.2301    0.0000 C   0  0  0  0  0  0  0  0  0  0  0  0
    6.3301   -0.2699    0.0000 C   0  0  0  0  0  0  0  0  0  0  0  0
    4.5981    0.7301    0.0000 C   0  0  0  0  0  0  0  0  0  0  0  0
    5.4641   -0.7699    0.0000 C   0  0  0  0  0  0  0  0  0  0  0  0
    7.1962    1.2301    0.0000 C   0  0  0  0  0  0  0  0  0  0  0  0
    8.0622    0.7301    0.0000 C   0  0  0  0  0  0  0  0  0  0  0  0
    3.7320   -0.7699    0.0000 C   0  0  0  0  0  0  0  0  0  0  0  0
    8.9282    1.2301    0.0000 C   0  0  0  0  0  0  0  0  0  0  0  0
    9.7942    0.7301    0.0000 C   0  0  0  0  0  0  0  0  0  0  0  0
    3.7320   -1.7699    0.0000 C   0  0  0  0  0  0  0  0  0  0  0  0
    2.8660   -0.2699    0.0000 C   0  0  0  0  0  0  0  0  0  0  0  0
    2.8660   -2.2699    0.0000 C   0  0  0  0  0  0  0  0  0  0  0  0
    2.0000   -0.7699    0.0000 C   0  0  0  0  0  0  0  0  0  0  0  0
    2.0000   -1.7699    0.0000 C   0  0  0  0  0  0  0  0  0  0  0  0
   11.5263    0.7301    0.0000 C   0  0  0  0  0  0  0  0  0  0  0  0
   12.3923    1.2301    0.0000 C   0  0  0  0  0  0  0  0  0  0  0  0
   13.2583    0.7301    0.0000 C   0  0  0  0  0  0  0  0  0  0  0  0
   11.5263   -0.2699    0.0000 C   0  0  0  0  0  0  0  0  0  0  0  0
   12.3923   -0.7699    0.0000 C   0  0  0  0  0  0  0  0  0  0  0  0
   14.2045    1.0348    0.0000 C   0  0  0  0  0  0  0  0  0  0  0  0
   14.7882    0.2301    0.0000 C   0  0  0  0  0  0  0  0  0  0  0  0
   14.5152    1.9853    0.0000 C   0  0  0  0  0  0  0  0  0  0  0  0
    5.8626    1.7050    0.0000 H   0  0  0  0  0  0  0  0  0  0  0  0
    5.0656    1.7050    0.0000 H   0  0  0  0  0  0  0  0  0  0  0  0
    6.5422   -0.8525    0.0000 H   0  0  0  0  0  0  0  0  0  0  0  0
    6.9407   -0.1623    0.0000 H   0  0  0  0  0  0  0  0  0  0  0  0
    4.3860    1.3127    0.0000 H   0  0  0  0  0  0  0  0  0  0  0  0
    3.9875    0.6224    0.0000 H   0  0  0  0  0  0  0  0  0  0  0  0
    5.0656   -1.2449    0.0000 H   0  0  0  0  0  0  0  0  0  0  0  0
    5.8626   -1.2449    0.0000 H   0  0  0  0  0  0  0  0  0  0  0  0
    7.5947    1.7050    0.0000 H   0  0  0  0  0  0  0  0  0  0  0  0
    6.7976    1.7050    0.0000 H   0  0  0  0  0  0  0  0  0  0  0  0
    7.6636    0.2551    0.0000 H   0  0  0  0  0  0  0  0  0  0  0  0
    8.4607    0.2551    0.0000 H   0  0  0  0  0  0  0  0  0  0  0  0
    9.3267    1.7050    0.0000 H   0  0  0  0  0  0  0  0  0  0  0  0
    8.5297    1.7050    0.0000 H   0  0  0  0  0  0  0  0  0  0  0  0
    9.3957    0.2551    0.0000 H   0  0  0  0  0  0  0  0  0  0  0  0
   10.1928    0.2551    0.0000 H   0  0  0  0  0  0  0  0  0  0  0  0
    2.8660    0.3501    0.0000 H   0  0  0  0  0  0  0  0  0  0  0  0
    1.4631   -0.4599    0.0000 H   0  0  0  0  0  0  0  0  0  0  0  0
    1.4631   -2.0799    0.0000 H   0  0  0  0  0  0  0  0  0  0  0  0
   12.3923    1.8501    0.0000 H   0  0  0  0  0  0  0  0  0  0  0  0
   10.9893   -0.5799    0.0000 H   0  0  0  0  0  0  0  0  0  0  0  0
   12.3923   -1.3899    0.0000 H   0  0  0  0  0  0  0  0  0  0  0  0
   15.4082    0.2301    0.0000 H   0  0  0  0  0  0  0  0  0  0  0  0
   14.1011    2.4468    0.0000 H   0  0  0  0  0  0  0  0  0  0  0  0
   16.4111    3.2699    0.0000 H   0  0  0  0  0  0  0  0  0  0  0  0
  1 19  1  0  0  0  0
  2 21  1  0  0  0  0
  3 18  1  0  0  0  0
  3 24  1  0  0  0  0
  4  9  1  0  0  0  0
  4 56  1  0  0  0  0
  5 10  1  0  0  0  0
  5 11  1  0  0  0  0
  5 14  1  0  0  0  0
  6 12  1  0  0  0  0
  6 13  1  0  0  0  0
  6 16  1  0  0  0  0
  7  8  1  0  0  0  0
  7 26  1  0  0  0  0
  7 28  1  0  0  0  0
  8 30  2  0  0  0  0
  9 31  2  0  0  0  0
 10 12  1  0  0  0  0
 10 32  1  0  0  0  0
 10 33  1  0  0  0  0
 11 13  1  0  0  0  0
 11 34  1  0  0  0  0
 11 35  1  0  0  0  0
 12 36  1  0  0  0  0
 12 37  1  0  0  0  0
 13 38  1  0  0  0  0
 13 39  1  0  0  0  0
 14 15  1  0  0  0  0
 14 40  1  0  0  0  0
 14 41  1  0  0  0  0
 15 17  1  0  0  0  0
 15 42  1  0  0  0  0
 15 43  1  0  0  0  0
 16 19  2  0  0  0  0
 16 20  1  0  0  0  0
 17 18  1  0  0  0  0
 17 44  1  0  0  0  0
 17 45  1  0  0  0  0
 18 46  1  0  0  0  0
 18 47  1  0  0  0  0
 19 21  1  0  0  0  0
 20 22  2  0  0  0  0
 20 48  1  0  0  0  0
 21 23  2  0  0  0  0
 22 23  1  0  0  0  0
 22 49  1  0  0  0  0
 23 50  1  0  0  0  0
 24 25  2  0  0  0  0
 24 27  1  0  0  0  0
 25 26  1  0  0  0  0
 25 51  1  0  0  0  0
 26 29  2  0  0  0  0
 27 28  2  0  0  0  0
 27 52  1  0  0  0  0
 28 53  1  0  0  0  0
 29 30  1  0  0  0  0
 29 31  1  0  0  0  0
 30 54  1  0  0  0  0
 31 55  1  0  0  0  0
M  END
> <PUBCHEM_COMPOUND_CID>
25071691

> <PUBCHEM_COMPOUND_CANONICALIZED>
1

> <PUBCHEM_CACTVS_COMPLEXITY>
578

> <PUBCHEM_CACTVS_HBOND_ACCEPTOR>
6

> <PUBCHEM_CACTVS_HBOND_DONOR>
1

> <PUBCHEM_CACTVS_ROTATABLE_BOND>
8

> <PUBCHEM_CACTVS_SUBSKEYS>
AAADceB7sAAGAAAAAAAAAAAAAAAAAWAAAAA8WIAAAAAAAFgB8AAAHgIMCAAADA7hniY8xrMYFACiAzRnRACSjCAxpyAY2mA+bpgMZuLF89vWvCjmyBnI6AewkEAMAAAAAAIAABQAAAAABAAAKAAAAAAAAA==

> <PUBCHEM_IUPAC_OPENEYE_NAME>
(3E)-5-[4-[4-(2,3-dichlorophenyl)piperazin-1-yl]butoxy]pyrazolo[1,5-a]pyridine-3-carbaldehyde oxime

> <PUBCHEM_IUPAC_CAS_NAME>
(3E)-5-[4-[4-(2,3-dichlorophenyl)-1-piperazinyl]butoxy]-3-pyrazolo[1,5-a]pyridinecarboxaldehyde oxime

> <PUBCHEM_IUPAC_NAME_MARKUP>
(<I>N</I><I>E</I>)-<I>N</I>-[[5-[4-[4-(2,3-dichlorophenyl)piperazin-1-yl]butoxy]pyrazolo[1,5-a]pyridin-3-yl]methylidene]hydroxylamine

> <PUBCHEM_IUPAC_NAME>
(NE)-N-[[5-[4-[4-(2,3-dichlorophenyl)piperazin-1-yl]butoxy]pyrazolo[1,5-a]pyridin-3-yl]methylidene]hydroxylamine

> <PUBCHEM_IUPAC_SYSTEMATIC_NAME>
(NE)-N-[[5-[4-[4-[2,3-bis(chloranyl)phenyl]piperazin-1-yl]butoxy]pyrazolo[1,5-a]pyridin-3-yl]methylidene]hydroxylamine

> <PUBCHEM_IUPAC_TRADITIONAL_NAME>
(3E)-5-[4-[4-(2,3-dichlorophenyl)piperazino]butoxy]pyrazolo[1,5-a]pyridine-3-carbaldehyde oxime

> <PUBCHEM_IUPAC_INCHI>
InChI=1S/C22H25Cl2N5O2/c23-19-4-3-5-20(22(19)24)28-11-9-27(10-12-28)7-1-2-13-31-18-6-8-29-21(14-18)17(15-25-29)16-26-30/h3-6,8,14-16,30H,1-2,7,9-13H2/b26-16+

> <PUBCHEM_IUPAC_INCHIKEY>
DWMNREQVNSYYID-WGOQTCKBSA-N

> <PUBCHEM_XLOGP3_AA>
4.4

> <PUBCHEM_EXACT_MASS>
461.1385304

> <PUBCHEM_MOLECULAR_FORMULA>
C22H25Cl2N5O2

> <PUBCHEM_MOLECULAR_WEIGHT>
462.4

> <PUBCHEM_OPENEYE_CAN_SMILES>
C1CN(CCN1CCCCOC2=CC3=C(C=NN3C=C2)C=NO)C4=C(C(=CC=C4)Cl)Cl

> <PUBCHEM_OPENEYE_ISO_SMILES>
C1CN(CCN1CCCCOC2=CC3=C(C=NN3C=C2)/C=N/O)C4=C(C(=CC=C4)Cl)Cl

> <PUBCHEM_CACTVS_TPSA>
65.6

> <PUBCHEM_MONOISOTOPIC_WEIGHT>
461.1385304

> <PUBCHEM_TOTAL_CHARGE>
0

> <PUBCHEM_HEAVY_ATOM_COUNT>
31

> <PUBCHEM_ATOM_DEF_STEREO_COUNT>
0

> <PUBCHEM_ATOM_UDEF_STEREO_COUNT>
0

> <PUBCHEM_BOND_DEF_STEREO_COUNT>
1

> <PUBCHEM_BOND_UDEF_STEREO_COUNT>
0

> <PUBCHEM_ISOTOPIC_ATOM_COUNT>
0

> <PUBCHEM_COMPONENT_COUNT>
1

> <PUBCHEM_CACTVS_TAUTO_COUNT>
-1

> <PUBCHEM_COORDINATE_TYPE>
1
5
255

> <PUBCHEM_BONDANNOTATIONS>
16  19  8
16  20  8
19  21  8
20  22  8
21  23  8
22  23  8
24  25  8
24  27  8
25  26  8
26  29  8
27  28  8
29  30  8
7  26  8
7  28  8
7  8  8
8  30  8

$$$$
