9848518
  -OEChem-09292322082D

 57 62  0     0  0  0  0  0  0999 V2000
   11.1720    4.8131    0.0000 S   0  0  0  0  0  0  0  0  0  0  0  0
   15.0123    3.7781    0.0000 F   0  0  0  0  0  0  0  0  0  0  0  0
    5.9209    0.2289    0.0000 O   0  0  0  0  0  0  0  0  0  0  0  0
    4.6783   -3.5732    0.0000 N   0  0  0  0  0  0  0  0  0  0  0  0
    4.6783   -5.1826    0.0000 N   0  0  0  0  0  0  0  0  0  0  0  0
    2.0000   -4.8779    0.0000 N   0  0  0  0  0  0  0  0  0  0  0  0
   11.5039    3.2382    0.0000 N   0  0  0  0  0  0  0  0  0  0  0  0
    3.7320   -3.8779    0.0000 C   0  0  0  0  0  0  0  0  0  0  0  0
    4.9889   -2.6227    0.0000 C   0  0  0  0  0  0  0  0  0  0  0  0
    5.2619   -4.3779    0.0000 C   0  0  0  0  0  0  0  0  0  0  0  0
    3.7320   -4.8779    0.0000 C   0  0  0  0  0  0  0  0  0  0  0  0
    4.3211   -1.8784    0.0000 C   0  0  0  0  0  0  0  0  0  0  0  0
    5.9674   -2.4164    0.0000 C   0  0  0  0  0  0  0  0  0  0  0  0
    2.8660   -3.3779    0.0000 C   0  0  0  0  0  0  0  0  0  0  0  0
    6.2619   -4.3779    0.0000 C   0  0  0  0  0  0  0  0  0  0  0  0
    5.6103   -0.7216    0.0000 C   0  0  0  0  0  0  0  0  0  0  0  0
    4.6318   -0.9278    0.0000 C   0  0  0  0  0  0  0  0  0  0  0  0
    6.2781   -1.4659    0.0000 C   0  0  0  0  0  0  0  0  0  0  0  0
    2.8660   -5.3779    0.0000 C   0  0  0  0  0  0  0  0  0  0  0  0
    6.8994    0.4351    0.0000 C   0  0  0  0  0  0  0  0  0  0  0  0
    7.2101    1.3856    0.0000 C   0  0  0  0  0  0  0  0  0  0  0  0
    2.0000   -3.8779    0.0000 C   0  0  0  0  0  0  0  0  0  0  0  0
    8.1886    1.5919    0.0000 C   0  0  0  0  0  0  0  0  0  0  0  0
    8.4993    2.5424    0.0000 C   0  0  0  0  0  0  0  0  0  0  0  0
    6.5422    2.1299    0.0000 C   0  0  0  0  0  0  0  0  0  0  0  0
    7.8314    3.2867    0.0000 C   0  0  0  0  0  0  0  0  0  0  0  0
    6.8529    3.0805    0.0000 C   0  0  0  0  0  0  0  0  0  0  0  0
    9.4778    2.7486    0.0000 C   0  0  0  0  0  0  0  0  0  0  0  0
   12.3670    3.7316    0.0000 C   0  0  0  0  0  0  0  0  0  0  0  0
   12.1608    4.7101    0.0000 C   0  0  0  0  0  0  0  0  0  0  0  0
   10.7669    3.9053    0.0000 C   0  0  0  0  0  0  0  0  0  0  0  0
    9.7884    3.6991    0.0000 C   0  0  0  0  0  0  0  0  0  0  0  0
   13.3175    3.4209    0.0000 C   0  0  0  0  0  0  0  0  0  0  0  0
   12.9051    5.3779    0.0000 C   0  0  0  0  0  0  0  0  0  0  0  0
   14.0618    4.0887    0.0000 C   0  0  0  0  0  0  0  0  0  0  0  0
   13.8556    5.0672    0.0000 C   0  0  0  0  0  0  0  0  0  0  0  0
    3.7144   -2.0062    0.0000 H   0  0  0  0  0  0  0  0  0  0  0  0
    6.3815   -2.8779    0.0000 H   0  0  0  0  0  0  0  0  0  0  0  0
    2.8660   -2.7579    0.0000 H   0  0  0  0  0  0  0  0  0  0  0  0
    6.2619   -4.9979    0.0000 H   0  0  0  0  0  0  0  0  0  0  0  0
    6.8819   -4.3779    0.0000 H   0  0  0  0  0  0  0  0  0  0  0  0
    6.2619   -3.7579    0.0000 H   0  0  0  0  0  0  0  0  0  0  0  0
    4.2177   -0.4664    0.0000 H   0  0  0  0  0  0  0  0  0  0  0  0
    6.8848   -1.3381    0.0000 H   0  0  0  0  0  0  0  0  0  0  0  0
    2.8660   -5.9979    0.0000 H   0  0  0  0  0  0  0  0  0  0  0  0
    6.9200   -0.1845    0.0000 H   0  0  0  0  0  0  0  0  0  0  0  0
    7.5132    0.3478    0.0000 H   0  0  0  0  0  0  0  0  0  0  0  0
    1.4631   -3.5679    0.0000 H   0  0  0  0  0  0  0  0  0  0  0  0
    8.6027    1.1304    0.0000 H   0  0  0  0  0  0  0  0  0  0  0  0
    5.9356    2.0021    0.0000 H   0  0  0  0  0  0  0  0  0  0  0  0
    8.0240    3.8760    0.0000 H   0  0  0  0  0  0  0  0  0  0  0  0
    6.4388    3.5419    0.0000 H   0  0  0  0  0  0  0  0  0  0  0  0
    9.8918    2.2871    0.0000 H   0  0  0  0  0  0  0  0  0  0  0  0
    9.3744    4.1606    0.0000 H   0  0  0  0  0  0  0  0  0  0  0  0
   13.4454    2.8142    0.0000 H   0  0  0  0  0  0  0  0  0  0  0  0
   12.7772    5.9846    0.0000 H   0  0  0  0  0  0  0  0  0  0  0  0
   14.3171    5.4813    0.0000 H   0  0  0  0  0  0  0  0  0  0  0  0
  1 30  1  0  0  0  0
  1 31  1  0  0  0  0
  2 35  1  0  0  0  0
  3 16  1  0  0  0  0
  3 20  1  0  0  0  0
  4  8  1  0  0  0  0
  4  9  1  0  0  0  0
  4 10  1  0  0  0  0
  5 10  2  0  0  0  0
  5 11  1  0  0  0  0
  6 19  2  0  0  0  0
  6 22  1  0  0  0  0
  7 29  1  0  0  0  0
  7 31  2  0  0  0  0
  8 11  2  0  0  0  0
  8 14  1  0  0  0  0
  9 12  2  0  0  0  0
  9 13  1  0  0  0  0
 10 15  1  0  0  0  0
 11 19  1  0  0  0  0
 12 17  1  0  0  0  0
 12 37  1  0  0  0  0
 13 18  2  0  0  0  0
 13 38  1  0  0  0  0
 14 22  2  0  0  0  0
 14 39  1  0  0  0  0
 15 40  1  0  0  0  0
 15 41  1  0  0  0  0
 15 42  1  0  0  0  0
 16 17  2  0  0  0  0
 16 18  1  0  0  0  0
 17 43  1  0  0  0  0
 18 44  1  0  0  0  0
 19 45  1  0  0  0  0
 20 21  1  0  0  0  0
 20 46  1  0  0  0  0
 20 47  1  0  0  0  0
 21 23  2  0  0  0  0
 21 25  1  0  0  0  0
 22 48  1  0  0  0  0
 23 24  1  0  0  0  0
 23 49  1  0  0  0  0
 24 26  2  0  0  0  0
 24 28  1  0  0  0  0
 25 27  2  0  0  0  0
 25 50  1  0  0  0  0
 26 27  1  0  0  0  0
 26 51  1  0  0  0  0
 27 52  1  0  0  0  0
 28 32  2  0  0  0  0
 28 53  1  0  0  0  0
 29 30  2  0  0  0  0
 29 33  1  0  0  0  0
 30 34  1  0  0  0  0
 31 32  1  0  0  0  0
 32 54  1  0  0  0  0
 33 35  2  0  0  0  0
 33 55  1  0  0  0  0
 34 36  2  0  0  0  0
 34 56  1  0  0  0  0
 35 36  1  0  0  0  0
 36 57  1  0  0  0  0
M  END
> <PUBCHEM_COMPOUND_CID>
9848518

> <PUBCHEM_COMPOUND_CANONICALIZED>
1

> <PUBCHEM_CACTVS_COMPLEXITY>
749

> <PUBCHEM_CACTVS_HBOND_ACCEPTOR>
6

> <PUBCHEM_CACTVS_HBOND_DONOR>
0

> <PUBCHEM_CACTVS_ROTATABLE_BOND>
6

> <PUBCHEM_CACTVS_SUBSKEYS>
AAADceB7oQBAAAAAAAAAAAAAAAAAAWLAAAA8YMEAAAAAAFgB/gAAHwQAAAAADAzh3w4/17cMFAikAzZnZACD+K1xOrhJ2Dw+fJiMbuLk+duWPCjswBPo6CewwGAOAEACAAAAAQAAgAQAAAACAAAAAAAAAA==

> <PUBCHEM_IUPAC_OPENEYE_NAME>
5-fluoro-2-[(E)-2-[3-[[4-(2-methylimidazo[4,5-c]pyridin-1-yl)phenoxy]methyl]phenyl]vinyl]-1,3-benzothiazole

> <PUBCHEM_IUPAC_CAS_NAME>
5-fluoro-2-[(E)-2-[3-[[4-(2-methyl-1-imidazo[4,5-c]pyridinyl)phenoxy]methyl]phenyl]ethenyl]-1,3-benzothiazole

> <PUBCHEM_IUPAC_NAME_MARKUP>
5-fluoro-2-[(<I>E</I>)-2-[3-[[4-(2-methylimidazo[4,5-c]pyridin-1-yl)phenoxy]methyl]phenyl]ethenyl]-1,3-benzothiazole

> <PUBCHEM_IUPAC_NAME>
5-fluoro-2-[(E)-2-[3-[[4-(2-methylimidazo[4,5-c]pyridin-1-yl)phenoxy]methyl]phenyl]ethenyl]-1,3-benzothiazole

> <PUBCHEM_IUPAC_SYSTEMATIC_NAME>
5-fluoranyl-2-[(E)-2-[3-[[4-(2-methylimidazo[4,5-c]pyridin-1-yl)phenoxy]methyl]phenyl]ethenyl]-1,3-benzothiazole

> <PUBCHEM_IUPAC_TRADITIONAL_NAME>
5-fluoro-2-[(E)-2-[3-[[4-(2-methylimidazo[4,5-c]pyridin-1-yl)phenoxy]methyl]phenyl]vinyl]-1,3-benzothiazole

> <PUBCHEM_IUPAC_INCHI>
InChI=1S/C29H21FN4OS/c1-19-32-26-17-31-14-13-27(26)34(19)23-7-9-24(10-8-23)35-18-21-4-2-3-20(15-21)5-12-29-33-25-16-22(30)6-11-28(25)36-29/h2-17H,18H2,1H3/b12-5+

> <PUBCHEM_IUPAC_INCHIKEY>
DXTYGLAQRALLEG-LFYBBSHMSA-N

> <PUBCHEM_XLOGP3_AA>
6.8

> <PUBCHEM_EXACT_MASS>
492.14201064

> <PUBCHEM_MOLECULAR_FORMULA>
C29H21FN4OS

> <PUBCHEM_MOLECULAR_WEIGHT>
492.6

> <PUBCHEM_OPENEYE_CAN_SMILES>
CC1=NC2=C(N1C3=CC=C(C=C3)OCC4=CC(=CC=C4)C=CC5=NC6=C(S5)C=CC(=C6)F)C=CN=C2

> <PUBCHEM_OPENEYE_ISO_SMILES>
CC1=NC2=C(N1C3=CC=C(C=C3)OCC4=CC(=CC=C4)/C=C/C5=NC6=C(S5)C=CC(=C6)F)C=CN=C2

> <PUBCHEM_CACTVS_TPSA>
81.1

> <PUBCHEM_MONOISOTOPIC_WEIGHT>
492.14201064

> <PUBCHEM_TOTAL_CHARGE>
0

> <PUBCHEM_HEAVY_ATOM_COUNT>
36

> <PUBCHEM_ATOM_DEF_STEREO_COUNT>
0

> <PUBCHEM_ATOM_UDEF_STEREO_COUNT>
0

> <PUBCHEM_BOND_DEF_STEREO_COUNT>
1

> <PUBCHEM_BOND_UDEF_STEREO_COUNT>
0

> <PUBCHEM_ISOTOPIC_ATOM_COUNT>
0

> <PUBCHEM_COMPONENT_COUNT>
1

> <PUBCHEM_CACTVS_TAUTO_COUNT>
-1

> <PUBCHEM_COORDINATE_TYPE>
1
5
255

> <PUBCHEM_BONDANNOTATIONS>
1  30  8
1  31  8
11  19  8
12  17  8
13  18  8
14  22  8
16  17  8
16  18  8
21  23  8
21  25  8
23  24  8
24  26  8
25  27  8
26  27  8
29  30  8
29  33  8
30  34  8
33  35  8
34  36  8
35  36  8
4  10  8
4  8  8
5  10  8
5  11  8
6  19  8
6  22  8
7  29  8
7  31  8
8  11  8
8  14  8
9  12  8
9  13  8

$$$$
