13014681
  -OEChem-09292322122D

 45 48  0     0  0  0  0  0  0999 V2000
    8.7204   -1.4271    0.0000 Cl  0  0  0  0  0  0  0  0  0  0  0  0
    3.0814    2.1394    0.0000 N   0  0  0  0  0  0  0  0  0  0  0  0
    3.9491    0.3375    0.0000 C   0  0  0  0  0  0  0  0  0  0  0  0
    2.9519    0.4122    0.0000 C   0  0  0  0  0  0  0  0  0  0  0  0
    4.5125    1.1637    0.0000 C   0  0  0  0  0  0  0  0  0  0  0  0
    2.5180    1.3132    0.0000 C   0  0  0  0  0  0  0  0  0  0  0  0
    4.0786    2.0647    0.0000 C   0  0  0  0  0  0  0  0  0  0  0  0
    4.3830   -0.5635    0.0000 C   0  0  0  0  0  0  0  0  0  0  0  0
    3.7595   -1.3453    0.0000 C   0  0  0  0  0  0  0  0  0  0  0  0
    5.3830   -0.5635    0.0000 C   0  0  0  0  0  0  0  0  0  0  0  0
    3.9820   -2.3202    0.0000 C   0  0  0  0  0  0  0  0  0  0  0  0
    2.6475    3.0404    0.0000 C   0  0  0  0  0  0  0  0  0  0  0  0
    4.8830   -2.7541    0.0000 C   0  0  0  0  0  0  0  0  0  0  0  0
    6.0065   -1.3453    0.0000 C   0  0  0  0  0  0  0  0  0  0  0  0
    5.7840   -2.3202    0.0000 C   0  0  0  0  0  0  0  0  0  0  0  0
    2.7690   -1.0230    0.0000 C   0  0  0  0  0  0  0  0  0  0  0  0
    3.2295   -3.0404    0.0000 C   0  0  0  0  0  0  0  0  0  0  0  0
    6.9970   -1.0230    0.0000 C   0  0  0  0  0  0  0  0  0  0  0  0
    6.5365   -3.0404    0.0000 C   0  0  0  0  0  0  0  0  0  0  0  0
    2.0000   -1.7255    0.0000 C   0  0  0  0  0  0  0  0  0  0  0  0
    2.2318   -2.7410    0.0000 C   0  0  0  0  0  0  0  0  0  0  0  0
    7.7660   -1.7256    0.0000 C   0  0  0  0  0  0  0  0  0  0  0  0
    7.5342   -2.7411    0.0000 C   0  0  0  0  0  0  0  0  0  0  0  0
    3.5999   -0.1748    0.0000 H   0  0  0  0  0  0  0  0  0  0  0  0
    2.3551    0.2443    0.0000 H   0  0  0  0  0  0  0  0  0  0  0  0
    3.0137   -0.2047    0.0000 H   0  0  0  0  0  0  0  0  0  0  0  0
    4.9563    0.7308    0.0000 H   0  0  0  0  0  0  0  0  0  0  0  0
    5.0159    1.5257    0.0000 H   0  0  0  0  0  0  0  0  0  0  0  0
    2.0742    1.7461    0.0000 H   0  0  0  0  0  0  0  0  0  0  0  0
    2.0146    0.9513    0.0000 H   0  0  0  0  0  0  0  0  0  0  0  0
    4.6754    2.2326    0.0000 H   0  0  0  0  0  0  0  0  0  0  0  0
    4.0168    2.6816    0.0000 H   0  0  0  0  0  0  0  0  0  0  0  0
    5.6520   -0.0049    0.0000 H   0  0  0  0  0  0  0  0  0  0  0  0
    3.2061    3.3094    0.0000 H   0  0  0  0  0  0  0  0  0  0  0  0
    2.3785    3.5990    0.0000 H   0  0  0  0  0  0  0  0  0  0  0  0
    2.0889    2.7714    0.0000 H   0  0  0  0  0  0  0  0  0  0  0  0
    4.4964   -3.2388    0.0000 H   0  0  0  0  0  0  0  0  0  0  0  0
    5.2696   -3.2388    0.0000 H   0  0  0  0  0  0  0  0  0  0  0  0
    2.6380   -0.4169    0.0000 H   0  0  0  0  0  0  0  0  0  0  0  0
    3.3744   -3.6432    0.0000 H   0  0  0  0  0  0  0  0  0  0  0  0
    7.1280   -0.4170    0.0000 H   0  0  0  0  0  0  0  0  0  0  0  0
    6.3916   -3.6432    0.0000 H   0  0  0  0  0  0  0  0  0  0  0  0
    1.4083   -1.5405    0.0000 H   0  0  0  0  0  0  0  0  0  0  0  0
    1.7789   -3.1645    0.0000 H   0  0  0  0  0  0  0  0  0  0  0  0
    7.9871   -3.1645    0.0000 H   0  0  0  0  0  0  0  0  0  0  0  0
  1 22  1  0  0  0  0
  2  6  1  0  0  0  0
  2  7  1  0  0  0  0
  2 12  1  0  0  0  0
  3  4  1  0  0  0  0
  3  5  1  0  0  0  0
  3  8  1  0  0  0  0
  3 24  1  0  0  0  0
  4  6  1  0  0  0  0
  4 25  1  0  0  0  0
  4 26  1  0  0  0  0
  5  7  1  0  0  0  0
  5 27  1  0  0  0  0
  5 28  1  0  0  0  0
  6 29  1  0  0  0  0
  6 30  1  0  0  0  0
  7 31  1  0  0  0  0
  7 32  1  0  0  0  0
  8  9  1  0  0  0  0
  8 10  2  0  0  0  0
  9 11  1  0  0  0  0
  9 16  2  0  0  0  0
 10 14  1  0  0  0  0
 10 33  1  0  0  0  0
 11 13  1  0  0  0  0
 11 17  2  0  0  0  0
 12 34  1  0  0  0  0
 12 35  1  0  0  0  0
 12 36  1  0  0  0  0
 13 15  1  0  0  0  0
 13 37  1  0  0  0  0
 13 38  1  0  0  0  0
 14 15  2  0  0  0  0
 14 18  1  0  0  0  0
 15 19  1  0  0  0  0
 16 20  1  0  0  0  0
 16 39  1  0  0  0  0
 17 21  1  0  0  0  0
 17 40  1  0  0  0  0
 18 22  2  0  0  0  0
 18 41  1  0  0  0  0
 19 23  2  0  0  0  0
 19 42  1  0  0  0  0
 20 21  2  0  0  0  0
 20 43  1  0  0  0  0
 21 44  1  0  0  0  0
 22 23  1  0  0  0  0
 23 45  1  0  0  0  0
M  END
> <PUBCHEM_COMPOUND_CID>
13014681

> <PUBCHEM_COMPOUND_CANONICALIZED>
1

> <PUBCHEM_CACTVS_COMPLEXITY>
437

> <PUBCHEM_CACTVS_HBOND_ACCEPTOR>
1

> <PUBCHEM_CACTVS_HBOND_DONOR>
0

> <PUBCHEM_CACTVS_ROTATABLE_BOND>
1

> <PUBCHEM_CACTVS_SUBSKEYS>
AAADceB6AAAEAAAAAAAAAAAAAAAAAAAAAAA8YIAABAAAAAABQAAAHAIAAAAADQLBGCQyAIMAAACAAiBCAAACAAAgBQAIiAAIAogIICKBkxCEIAAggACIiAcQgMAOhAAAIAAQAAAIAABAACAAAAAAAAAAAA==

> <PUBCHEM_IUPAC_OPENEYE_NAME>
4-(13-chloro-9-tricyclo[9.4.0.03,8]pentadeca-1(11),3,5,7,9,12,14-heptaenyl)-1-methyl-piperidine

> <PUBCHEM_IUPAC_CAS_NAME>
4-(13-chloro-9-tricyclo[9.4.0.03,8]pentadeca-1(11),3,5,7,9,12,14-heptaenyl)-1-methylpiperidine

> <PUBCHEM_IUPAC_NAME_MARKUP>
4-(13-chloro-9-tricyclo[9.4.0.0<SUP>3,8</SUP>]pentadeca-1(11),3,5,7,9,12,14-heptaenyl)-1-methylpiperidine

> <PUBCHEM_IUPAC_NAME>
4-(13-chloro-9-tricyclo[9.4.0.03,8]pentadeca-1(11),3,5,7,9,12,14-heptaenyl)-1-methylpiperidine

> <PUBCHEM_IUPAC_SYSTEMATIC_NAME>
4-(13-chloranyl-9-tricyclo[9.4.0.03,8]pentadeca-1(11),3,5,7,9,12,14-heptaenyl)-1-methyl-piperidine

> <PUBCHEM_IUPAC_TRADITIONAL_NAME>
4-(13-chloro-9-tricyclo[9.4.0.03,8]pentadeca-1(11),3,5,7,9,12,14-heptaenyl)-1-methyl-piperidine

> <PUBCHEM_IUPAC_INCHI>
InChI=1S/C21H22ClN/c1-23-10-8-15(9-11-23)21-14-18-13-19(22)7-6-16(18)12-17-4-2-3-5-20(17)21/h2-7,13-15H,8-12H2,1H3

> <PUBCHEM_IUPAC_INCHIKEY>
ZABVPBHKTKEJLW-UHFFFAOYSA-N

> <PUBCHEM_XLOGP3_AA>
5.1

> <PUBCHEM_EXACT_MASS>
323.1440774

> <PUBCHEM_MOLECULAR_FORMULA>
C21H22ClN

> <PUBCHEM_MOLECULAR_WEIGHT>
323.9

> <PUBCHEM_OPENEYE_CAN_SMILES>
CN1CCC(CC1)C2=CC3=C(CC4=CC=CC=C42)C=CC(=C3)Cl

> <PUBCHEM_OPENEYE_ISO_SMILES>
CN1CCC(CC1)C2=CC3=C(CC4=CC=CC=C42)C=CC(=C3)Cl

> <PUBCHEM_CACTVS_TPSA>
3.2

> <PUBCHEM_MONOISOTOPIC_WEIGHT>
323.1440774

> <PUBCHEM_TOTAL_CHARGE>
0

> <PUBCHEM_HEAVY_ATOM_COUNT>
23

> <PUBCHEM_ATOM_DEF_STEREO_COUNT>
0

> <PUBCHEM_ATOM_UDEF_STEREO_COUNT>
0

> <PUBCHEM_BOND_DEF_STEREO_COUNT>
0

> <PUBCHEM_BOND_UDEF_STEREO_COUNT>
0

> <PUBCHEM_ISOTOPIC_ATOM_COUNT>
0

> <PUBCHEM_COMPONENT_COUNT>
1

> <PUBCHEM_CACTVS_TAUTO_COUNT>
-1

> <PUBCHEM_COORDINATE_TYPE>
1
5
255

> <PUBCHEM_BONDANNOTATIONS>
11  17  8
14  15  8
14  18  8
15  19  8
16  20  8
17  21  8
18  22  8
19  23  8
20  21  8
22  23  8
9  11  8
9  16  8

$$$$
