166630739
  -OEChem-09292322442D

 86 89  0     1  0  0  0  0  0999 V2000
    2.0000   -4.2990    0.0000 Cl  0  0  0  0  0  0  0  0  0  0  0  0
    5.4641   -0.2990    0.0000 O   0  0  0  0  0  0  0  0  0  0  0  0
    7.1962    2.9689    0.0000 O   0  0  0  0  0  0  0  0  0  0  0  0
    3.7320   -1.2990    0.0000 N   0  0  0  0  0  0  0  0  0  0  0  0
    3.7320   -3.2990    0.0000 N   0  0  0  0  0  0  0  0  0  0  0  0
    5.4641    2.7010    0.0000 N   0  0  0  0  0  0  0  0  0  0  0  0
    8.4622    3.1922    0.0000 N   0  0  0  0  0  0  0  0  0  0  0  0
    4.5981   -1.7990    0.0000 C   0  0  0  0  0  0  0  0  0  0  0  0
    2.8660   -1.7990    0.0000 C   0  0  0  0  0  0  0  0  0  0  0  0
    3.7320   -0.2990    0.0000 C   0  0  0  0  0  0  0  0  0  0  0  0
    4.5981   -2.7990    0.0000 C   0  0  0  0  0  0  0  0  0  0  0  0
    2.8660   -2.7990    0.0000 C   0  0  0  0  0  0  0  0  0  0  0  0
    4.5981    0.2010    0.0000 C   0  0  3  0  0  0  0  0  0  0  0  0
    7.1962    4.7010    0.0000 C   0  0  0  0  0  0  0  0  0  0  0  0
    4.5981    1.2010    0.0000 C   0  0  0  0  0  0  0  0  0  0  0  0
    6.3301    4.2010    0.0000 C   0  0  0  0  0  0  0  0  0  0  0  0
    5.4641    1.7010    0.0000 C   0  0  0  0  0  0  0  0  0  0  0  0
    6.3301    3.2010    0.0000 C   0  0  0  0  0  0  0  0  0  0  0  0
    3.7320   -4.2990    0.0000 C   0  0  0  0  0  0  0  0  0  0  0  0
    8.0622    5.2010    0.0000 C   0  0  0  0  0  0  0  0  0  0  0  0
    6.6962    5.5670    0.0000 C   0  0  0  0  0  0  0  0  0  0  0  0
    7.6962    3.8349    0.0000 C   0  0  0  0  0  0  0  0  0  0  0  0
    2.8660   -4.7990    0.0000 C   0  0  0  0  0  0  0  0  0  0  0  0
    4.5981   -4.7990    0.0000 C   0  0  0  0  0  0  0  0  0  0  0  0
    8.9282    4.7010    0.0000 C   0  0  0  0  0  0  0  0  0  0  0  0
    5.6962    5.5670    0.0000 C   0  0  0  0  0  0  0  0  0  0  0  0
    8.0622    6.2010    0.0000 C   0  0  0  0  0  0  0  0  0  0  0  0
    7.1962    6.4330    0.0000 C   0  0  0  0  0  0  0  0  0  0  0  0
    2.8660   -5.7990    0.0000 C   0  0  0  0  0  0  0  0  0  0  0  0
    4.5981   -5.7990    0.0000 C   0  0  0  0  0  0  0  0  0  0  0  0
    3.7320   -6.2990    0.0000 C   0  0  0  0  0  0  0  0  0  0  0  0
    9.7942    5.2010    0.0000 C   0  0  0  0  0  0  0  0  0  0  0  0
    5.1962    6.4330    0.0000 C   0  0  0  0  0  0  0  0  0  0  0  0
    8.9282    6.7010    0.0000 C   0  0  0  0  0  0  0  0  0  0  0  0
    6.6962    7.2990    0.0000 C   0  0  0  0  0  0  0  0  0  0  0  0
    2.0000   -6.2990    0.0000 C   0  0  0  0  0  0  0  0  0  0  0  0
    8.2886    2.2073    0.0000 C   0  0  0  0  0  0  0  0  0  0  0  0
    9.4019    3.5342    0.0000 C   0  0  0  0  0  0  0  0  0  0  0  0
    9.7942    6.2010    0.0000 C   0  0  0  0  0  0  0  0  0  0  0  0
    5.6962    7.2990    0.0000 C   0  0  0  0  0  0  0  0  0  0  0  0
    2.0000   -7.2990    0.0000 C   0  0  0  0  0  0  0  0  0  0  0  0
    5.2087   -1.9067    0.0000 H   0  0  0  0  0  0  0  0  0  0  0  0
    4.8101   -1.2164    0.0000 H   0  0  0  0  0  0  0  0  0  0  0  0
    2.6540   -1.2164    0.0000 H   0  0  0  0  0  0  0  0  0  0  0  0
    2.2554   -1.9067    0.0000 H   0  0  0  0  0  0  0  0  0  0  0  0
    3.5200    0.2836    0.0000 H   0  0  0  0  0  0  0  0  0  0  0  0
    3.1215   -0.4067    0.0000 H   0  0  0  0  0  0  0  0  0  0  0  0
    4.8101   -3.3816    0.0000 H   0  0  0  0  0  0  0  0  0  0  0  0
    5.2087   -2.6914    0.0000 H   0  0  0  0  0  0  0  0  0  0  0  0
    2.2554   -2.6914    0.0000 H   0  0  0  0  0  0  0  0  0  0  0  0
    2.6540   -3.3816    0.0000 H   0  0  0  0  0  0  0  0  0  0  0  0
    4.5981   -0.4190    0.0000 H   0  0  0  0  0  0  0  0  0  0  0  0
    4.3860    1.7836    0.0000 H   0  0  0  0  0  0  0  0  0  0  0  0
    3.9875    1.0933    0.0000 H   0  0  0  0  0  0  0  0  0  0  0  0
    6.1181    4.7836    0.0000 H   0  0  0  0  0  0  0  0  0  0  0  0
    5.7196    4.0933    0.0000 H   0  0  0  0  0  0  0  0  0  0  0  0
    5.6762    1.1184    0.0000 H   0  0  0  0  0  0  0  0  0  0  0  0
    6.0747    1.8086    0.0000 H   0  0  0  0  0  0  0  0  0  0  0  0
    6.5422    2.6184    0.0000 H   0  0  0  0  0  0  0  0  0  0  0  0
    6.9407    3.3086    0.0000 H   0  0  0  0  0  0  0  0  0  0  0  0
    4.9272    3.0110    0.0000 H   0  0  0  0  0  0  0  0  0  0  0  0
    6.0010    0.0110    0.0000 H   0  0  0  0  0  0  0  0  0  0  0  0
    5.1350   -4.4890    0.0000 H   0  0  0  0  0  0  0  0  0  0  0  0
    8.9282    4.0810    0.0000 H   0  0  0  0  0  0  0  0  0  0  0  0
    5.3862    5.0300    0.0000 H   0  0  0  0  0  0  0  0  0  0  0  0
    7.5252    6.5110    0.0000 H   0  0  0  0  0  0  0  0  0  0  0  0
    7.8162    6.4330    0.0000 H   0  0  0  0  0  0  0  0  0  0  0  0
    5.1350   -6.1090    0.0000 H   0  0  0  0  0  0  0  0  0  0  0  0
    3.7320   -6.9190    0.0000 H   0  0  0  0  0  0  0  0  0  0  0  0
   10.3312    4.8910    0.0000 H   0  0  0  0  0  0  0  0  0  0  0  0
    4.5762    6.4330    0.0000 H   0  0  0  0  0  0  0  0  0  0  0  0
    8.9282    7.3210    0.0000 H   0  0  0  0  0  0  0  0  0  0  0  0
    7.0062    7.8360    0.0000 H   0  0  0  0  0  0  0  0  0  0  0  0
    1.7880   -5.7164    0.0000 H   0  0  0  0  0  0  0  0  0  0  0  0
    1.3894   -6.4067    0.0000 H   0  0  0  0  0  0  0  0  0  0  0  0
    7.6780    2.3150    0.0000 H   0  0  0  0  0  0  0  0  0  0  0  0
    8.1809    1.5968    0.0000 H   0  0  0  0  0  0  0  0  0  0  0  0
    8.8991    2.0997    0.0000 H   0  0  0  0  0  0  0  0  0  0  0  0
    9.6139    2.9516    0.0000 H   0  0  0  0  0  0  0  0  0  0  0  0
    9.9845    3.7462    0.0000 H   0  0  0  0  0  0  0  0  0  0  0  0
    9.1898    4.1168    0.0000 H   0  0  0  0  0  0  0  0  0  0  0  0
   10.3312    6.5110    0.0000 H   0  0  0  0  0  0  0  0  0  0  0  0
    5.3862    7.8360    0.0000 H   0  0  0  0  0  0  0  0  0  0  0  0
    1.3800   -7.2990    0.0000 H   0  0  0  0  0  0  0  0  0  0  0  0
    2.0000   -7.9190    0.0000 H   0  0  0  0  0  0  0  0  0  0  0  0
    2.6200   -7.2990    0.0000 H   0  0  0  0  0  0  0  0  0  0  0  0
  1 23  1  0  0  0  0
  2 13  1  0  0  0  0
  2 62  1  0  0  0  0
  3 22  2  0  0  0  0
  4  8  1  0  0  0  0
  4  9  1  0  0  0  0
  4 10  1  0  0  0  0
  5 11  1  0  0  0  0
  5 12  1  0  0  0  0
  5 19  1  0  0  0  0
  6 17  1  0  0  0  0
  6 18  1  0  0  0  0
  6 61  1  0  0  0  0
  7 22  1  0  0  0  0
  7 37  1  0  0  0  0
  7 38  1  0  0  0  0
  8 11  1  0  0  0  0
  8 42  1  0  0  0  0
  8 43  1  0  0  0  0
  9 12  1  0  0  0  0
  9 44  1  0  0  0  0
  9 45  1  0  0  0  0
 10 13  1  0  0  0  0
 10 46  1  0  0  0  0
 10 47  1  0  0  0  0
 11 48  1  0  0  0  0
 11 49  1  0  0  0  0
 12 50  1  0  0  0  0
 12 51  1  0  0  0  0
 13 15  1  0  0  0  0
 13 52  1  0  0  0  0
 14 16  1  0  0  0  0
 14 20  1  0  0  0  0
 14 21  1  0  0  0  0
 14 22  1  0  0  0  0
 15 17  1  0  0  0  0
 15 53  1  0  0  0  0
 15 54  1  0  0  0  0
 16 18  1  0  0  0  0
 16 55  1  0  0  0  0
 16 56  1  0  0  0  0
 17 57  1  0  0  0  0
 17 58  1  0  0  0  0
 18 59  1  0  0  0  0
 18 60  1  0  0  0  0
 19 23  1  0  0  0  0
 19 24  2  0  0  0  0
 20 25  2  0  0  0  0
 20 27  1  0  0  0  0
 21 26  2  0  0  0  0
 21 28  1  0  0  0  0
 23 29  2  0  0  0  0
 24 30  1  0  0  0  0
 24 63  1  0  0  0  0
 25 32  1  0  0  0  0
 25 64  1  0  0  0  0
 26 33  1  0  0  0  0
 26 65  1  0  0  0  0
 27 34  2  0  0  0  0
 27 66  1  0  0  0  0
 28 35  2  0  0  0  0
 28 67  1  0  0  0  0
 29 31  1  0  0  0  0
 29 36  1  0  0  0  0
 30 31  2  0  0  0  0
 30 68  1  0  0  0  0
 31 69  1  0  0  0  0
 32 39  2  0  0  0  0
 32 70  1  0  0  0  0
 33 40  2  0  0  0  0
 33 71  1  0  0  0  0
 34 39  1  0  0  0  0
 34 72  1  0  0  0  0
 35 40  1  0  0  0  0
 35 73  1  0  0  0  0
 36 41  1  0  0  0  0
 36 74  1  0  0  0  0
 36 75  1  0  0  0  0
 37 76  1  0  0  0  0
 37 77  1  0  0  0  0
 37 78  1  0  0  0  0
 38 79  1  0  0  0  0
 38 80  1  0  0  0  0
 38 81  1  0  0  0  0
 39 82  1  0  0  0  0
 40 83  1  0  0  0  0
 41 84  1  0  0  0  0
 41 85  1  0  0  0  0
 41 86  1  0  0  0  0
M  END
> <PUBCHEM_COMPOUND_CID>
166630739

> <PUBCHEM_COMPOUND_CANONICALIZED>
1

> <PUBCHEM_CACTVS_COMPLEXITY>
744

> <PUBCHEM_CACTVS_HBOND_ACCEPTOR>
5

> <PUBCHEM_CACTVS_HBOND_DONOR>
2

> <PUBCHEM_CACTVS_ROTATABLE_BOND>
13

> <PUBCHEM_CACTVS_SUBSKEYS>
AAADcfB/sAAEAAAAAAAAAAAAAAAAAAAAAAA8YMEAAAAAAAABUAAAHgIQCAAADh7hmCYywIPAAgCIAiVSUACCAAAhBgAIiIEIZogKcDLBl5HUYAhikgDYyAcciMCPgAAAQAABABAAAACAAAIAIAAAAAAAAA==

> <PUBCHEM_IUPAC_OPENEYE_NAME>
4-[[4-[4-(2-chloro-3-ethyl-phenyl)piperazin-1-yl]-3-hydroxy-butyl]amino]-N,N-dimethyl-2,2-diphenyl-butanamide

> <PUBCHEM_IUPAC_CAS_NAME>
4-[[4-[4-(2-chloro-3-ethylphenyl)-1-piperazinyl]-3-hydroxybutyl]amino]-N,N-dimethyl-2,2-diphenylbutanamide

> <PUBCHEM_IUPAC_NAME_MARKUP>
4-[[4-[4-(2-chloro-3-ethylphenyl)piperazin-1-yl]-3-hydroxybutyl]amino]-<I>N</I>,<I>N</I>-dimethyl-2,2-diphenylbutanamide

> <PUBCHEM_IUPAC_NAME>
4-[[4-[4-(2-chloro-3-ethylphenyl)piperazin-1-yl]-3-hydroxybutyl]amino]-N,N-dimethyl-2,2-diphenylbutanamide

> <PUBCHEM_IUPAC_SYSTEMATIC_NAME>
4-[[4-[4-(2-chloranyl-3-ethyl-phenyl)piperazin-1-yl]-3-oxidanyl-butyl]amino]-N,N-dimethyl-2,2-diphenyl-butanamide

> <PUBCHEM_IUPAC_TRADITIONAL_NAME>
4-[[4-[4-(2-chloro-3-ethyl-phenyl)piperazino]-3-hydroxy-butyl]amino]-N,N-dimethyl-2,2-diphenyl-butyramide

> <PUBCHEM_IUPAC_INCHI>
InChI=1S/C34H45ClN4O2/c1-4-27-12-11-17-31(32(27)35)39-24-22-38(23-25-39)26-30(40)18-20-36-21-19-34(33(41)37(2)3,28-13-7-5-8-14-28)29-15-9-6-10-16-29/h5-17,30,36,40H,4,18-26H2,1-3H3

> <PUBCHEM_IUPAC_INCHIKEY>
ZXLUAMSMIJONAJ-UHFFFAOYSA-N

> <PUBCHEM_XLOGP3_AA>
5.6

> <PUBCHEM_EXACT_MASS>
576.3231044

> <PUBCHEM_MOLECULAR_FORMULA>
C34H45ClN4O2

> <PUBCHEM_MOLECULAR_WEIGHT>
577.2

> <PUBCHEM_OPENEYE_CAN_SMILES>
CCC1=C(C(=CC=C1)N2CCN(CC2)CC(CCNCCC(C3=CC=CC=C3)(C4=CC=CC=C4)C(=O)N(C)C)O)Cl

> <PUBCHEM_OPENEYE_ISO_SMILES>
CCC1=C(C(=CC=C1)N2CCN(CC2)CC(CCNCCC(C3=CC=CC=C3)(C4=CC=CC=C4)C(=O)N(C)C)O)Cl

> <PUBCHEM_CACTVS_TPSA>
59

> <PUBCHEM_MONOISOTOPIC_WEIGHT>
576.3231044

> <PUBCHEM_TOTAL_CHARGE>
0

> <PUBCHEM_HEAVY_ATOM_COUNT>
41

> <PUBCHEM_ATOM_DEF_STEREO_COUNT>
0

> <PUBCHEM_ATOM_UDEF_STEREO_COUNT>
1

> <PUBCHEM_BOND_DEF_STEREO_COUNT>
0

> <PUBCHEM_BOND_UDEF_STEREO_COUNT>
0

> <PUBCHEM_ISOTOPIC_ATOM_COUNT>
0

> <PUBCHEM_COMPONENT_COUNT>
1

> <PUBCHEM_CACTVS_TAUTO_COUNT>
-1

> <PUBCHEM_COORDINATE_TYPE>
1
5
255

> <PUBCHEM_BONDANNOTATIONS>
19  23  8
19  24  8
13  2  3
20  25  8
20  27  8
21  26  8
21  28  8
23  29  8
24  30  8
25  32  8
26  33  8
27  34  8
28  35  8
29  31  8
30  31  8
32  39  8
33  40  8
34  39  8
35  40  8

$$$$
