44415804
  -OEChem-09292322482D

 55 59  0     0  0  0  0  0  0999 V2000
    8.7204    0.6797    0.0000 Cl  0  0  0  0  0  0  0  0  0  0  0  0
    6.6150   -1.6473    0.0000 O   0  0  0  0  0  0  0  0  0  0  0  0
    3.9491    2.4444    0.0000 N   0  0  0  0  0  0  0  0  0  0  0  0
    3.0814    4.2463    0.0000 N   0  0  0  0  0  0  0  0  0  0  0  0
    4.8830   -0.6473    0.0000 N   0  0  0  0  0  0  0  0  0  0  0  0
    5.3830    1.5434    0.0000 N   0  0  0  0  0  0  0  0  0  0  0  0
    4.8830   -1.6473    0.0000 N   0  0  0  0  0  0  0  0  0  0  0  0
    4.8830   -4.6473    0.0000 N   0  0  0  0  0  0  0  0  0  0  0  0
    2.9519    2.5191    0.0000 C   0  0  0  0  0  0  0  0  0  0  0  0
    4.5125    3.2706    0.0000 C   0  0  0  0  0  0  0  0  0  0  0  0
    2.5180    3.4201    0.0000 C   0  0  0  0  0  0  0  0  0  0  0  0
    4.0786    4.1716    0.0000 C   0  0  0  0  0  0  0  0  0  0  0  0
    4.3830    1.5434    0.0000 C   0  0  0  0  0  0  0  0  0  0  0  0
    3.7595    0.7616    0.0000 C   0  0  0  0  0  0  0  0  0  0  0  0
    2.6475    5.1473    0.0000 C   0  0  0  0  0  0  0  0  0  0  0  0
    3.9820   -0.2134    0.0000 C   0  0  0  0  0  0  0  0  0  0  0  0
    5.7840   -0.2134    0.0000 C   0  0  0  0  0  0  0  0  0  0  0  0
    6.0065    0.7615    0.0000 C   0  0  0  0  0  0  0  0  0  0  0  0
    2.7690    1.0839    0.0000 C   0  0  0  0  0  0  0  0  0  0  0  0
    3.2295   -0.9335    0.0000 C   0  0  0  0  0  0  0  0  0  0  0  0
    2.0000    0.3813    0.0000 C   0  0  0  0  0  0  0  0  0  0  0  0
    6.5365   -0.9336    0.0000 C   0  0  0  0  0  0  0  0  0  0  0  0
    6.9970    1.0839    0.0000 C   0  0  0  0  0  0  0  0  0  0  0  0
    2.2318   -0.6342    0.0000 C   0  0  0  0  0  0  0  0  0  0  0  0
    7.5342   -0.6342    0.0000 C   0  0  0  0  0  0  0  0  0  0  0  0
    7.7660    0.3813    0.0000 C   0  0  0  0  0  0  0  0  0  0  0  0
    5.7490   -2.1473    0.0000 C   0  0  0  0  0  0  0  0  0  0  0  0
    5.7490   -3.1473    0.0000 C   0  0  0  0  0  0  0  0  0  0  0  0
    6.6150   -3.6473    0.0000 C   0  0  0  0  0  0  0  0  0  0  0  0
    4.8830   -3.6473    0.0000 C   0  0  0  0  0  0  0  0  0  0  0  0
    6.6150   -4.6473    0.0000 C   0  0  0  0  0  0  0  0  0  0  0  0
    5.7490   -5.1473    0.0000 C   0  0  0  0  0  0  0  0  0  0  0  0
    2.3551    2.3512    0.0000 H   0  0  0  0  0  0  0  0  0  0  0  0
    3.0137    1.9022    0.0000 H   0  0  0  0  0  0  0  0  0  0  0  0
    4.9563    2.8377    0.0000 H   0  0  0  0  0  0  0  0  0  0  0  0
    5.0159    3.6325    0.0000 H   0  0  0  0  0  0  0  0  0  0  0  0
    2.0742    3.8530    0.0000 H   0  0  0  0  0  0  0  0  0  0  0  0
    2.0146    3.0582    0.0000 H   0  0  0  0  0  0  0  0  0  0  0  0
    4.6754    4.3395    0.0000 H   0  0  0  0  0  0  0  0  0  0  0  0
    4.0168    4.7885    0.0000 H   0  0  0  0  0  0  0  0  0  0  0  0
    3.2061    5.4163    0.0000 H   0  0  0  0  0  0  0  0  0  0  0  0
    2.3785    5.7059    0.0000 H   0  0  0  0  0  0  0  0  0  0  0  0
    2.0889    4.8783    0.0000 H   0  0  0  0  0  0  0  0  0  0  0  0
    2.6380    1.6899    0.0000 H   0  0  0  0  0  0  0  0  0  0  0  0
    3.3744   -1.5364    0.0000 H   0  0  0  0  0  0  0  0  0  0  0  0
    1.4083    0.5664    0.0000 H   0  0  0  0  0  0  0  0  0  0  0  0
    6.3916   -1.5364    0.0000 H   0  0  0  0  0  0  0  0  0  0  0  0
    7.1280    1.6899    0.0000 H   0  0  0  0  0  0  0  0  0  0  0  0
    1.7789   -1.0576    0.0000 H   0  0  0  0  0  0  0  0  0  0  0  0
    4.3460   -1.9573    0.0000 H   0  0  0  0  0  0  0  0  0  0  0  0
    7.9871   -1.0577    0.0000 H   0  0  0  0  0  0  0  0  0  0  0  0
    7.1520   -3.3373    0.0000 H   0  0  0  0  0  0  0  0  0  0  0  0
    4.3460   -3.3373    0.0000 H   0  0  0  0  0  0  0  0  0  0  0  0
    7.1520   -4.9573    0.0000 H   0  0  0  0  0  0  0  0  0  0  0  0
    5.7490   -5.7673    0.0000 H   0  0  0  0  0  0  0  0  0  0  0  0
  1 26  1  0  0  0  0
  2 27  2  0  0  0  0
  3  9  1  0  0  0  0
  3 10  1  0  0  0  0
  3 13  1  0  0  0  0
  4 11  1  0  0  0  0
  4 12  1  0  0  0  0
  4 15  1  0  0  0  0
  5  7  1  0  0  0  0
  5 16  1  0  0  0  0
  5 17  1  0  0  0  0
  6 13  2  0  0  0  0
  6 18  1  0  0  0  0
  7 27  1  0  0  0  0
  7 50  1  0  0  0  0
  8 30  1  0  0  0  0
  8 32  2  0  0  0  0
  9 11  1  0  0  0  0
  9 33  1  0  0  0  0
  9 34  1  0  0  0  0
 10 12  1  0  0  0  0
 10 35  1  0  0  0  0
 10 36  1  0  0  0  0
 11 37  1  0  0  0  0
 11 38  1  0  0  0  0
 12 39  1  0  0  0  0
 12 40  1  0  0  0  0
 13 14  1  0  0  0  0
 14 16  1  0  0  0  0
 14 19  2  0  0  0  0
 15 41  1  0  0  0  0
 15 42  1  0  0  0  0
 15 43  1  0  0  0  0
 16 20  2  0  0  0  0
 17 18  2  0  0  0  0
 17 22  1  0  0  0  0
 18 23  1  0  0  0  0
 19 21  1  0  0  0  0
 19 44  1  0  0  0  0
 20 24  1  0  0  0  0
 20 45  1  0  0  0  0
 21 24  2  0  0  0  0
 21 46  1  0  0  0  0
 22 25  2  0  0  0  0
 22 47  1  0  0  0  0
 23 26  2  0  0  0  0
 23 48  1  0  0  0  0
 24 49  1  0  0  0  0
 25 26  1  0  0  0  0
 25 51  1  0  0  0  0
 27 28  1  0  0  0  0
 28 29  1  0  0  0  0
 28 30  2  0  0  0  0
 29 31  2  0  0  0  0
 29 52  1  0  0  0  0
 30 53  1  0  0  0  0
 31 32  1  0  0  0  0
 31 54  1  0  0  0  0
 32 55  1  0  0  0  0
M  END
> <PUBCHEM_COMPOUND_CID>
44415804

> <PUBCHEM_COMPOUND_CANONICALIZED>
1

> <PUBCHEM_CACTVS_COMPLEXITY>
696

> <PUBCHEM_CACTVS_HBOND_ACCEPTOR>
5

> <PUBCHEM_CACTVS_HBOND_DONOR>
1

> <PUBCHEM_CACTVS_ROTATABLE_BOND>
3

> <PUBCHEM_CACTVS_SUBSKEYS>
AAADceB7oAAEAAAAAAAAAAAAAAAAAAAAAAA8eIEABAAAAAAB0AAAHgIYAAAADArBmiQ/wJNqEACoAjd3dACChCE1ByAb+CE4dtgIYPrB35GUIYhggADIyccYgQAOAABAAAICACAAAIAABAQAQAAAAAAAAA==

> <PUBCHEM_IUPAC_OPENEYE_NAME>
N-[3-chloro-6-(4-methylpiperazin-1-yl)benzo[b][1,4]benzodiazepin-11-yl]pyridine-3-carboxamide

> <PUBCHEM_IUPAC_CAS_NAME>
N-[3-chloro-6-(4-methyl-1-piperazinyl)-11-benzo[b][1,4]benzodiazepinyl]-3-pyridinecarboxamide

> <PUBCHEM_IUPAC_NAME_MARKUP>
<I>N</I>-[3-chloro-6-(4-methylpiperazin-1-yl)benzo[b][1,4]benzodiazepin-11-yl]pyridine-3-carboxamide

> <PUBCHEM_IUPAC_NAME>
N-[3-chloro-6-(4-methylpiperazin-1-yl)benzo[b][1,4]benzodiazepin-11-yl]pyridine-3-carboxamide

> <PUBCHEM_IUPAC_SYSTEMATIC_NAME>
N-[3-chloranyl-6-(4-methylpiperazin-1-yl)benzo[b][1,4]benzodiazepin-11-yl]pyridine-3-carboxamide

> <PUBCHEM_IUPAC_TRADITIONAL_NAME>
N-[3-chloro-6-(4-methylpiperazino)benzo[b][1,4]benzodiazepin-11-yl]nicotinamide

> <PUBCHEM_IUPAC_INCHI>
InChI=1S/C24H23ClN6O/c1-29-11-13-30(14-12-29)23-19-6-2-3-7-21(19)31(22-9-8-18(25)15-20(22)27-23)28-24(32)17-5-4-10-26-16-17/h2-10,15-16H,11-14H2,1H3,(H,28,32)

> <PUBCHEM_IUPAC_INCHIKEY>
ZIMDNWHAJYFSOW-UHFFFAOYSA-N

> <PUBCHEM_XLOGP3_AA>
3.3

> <PUBCHEM_EXACT_MASS>
446.1621871

> <PUBCHEM_MOLECULAR_FORMULA>
C24H23ClN6O

> <PUBCHEM_MOLECULAR_WEIGHT>
446.9

> <PUBCHEM_OPENEYE_CAN_SMILES>
CN1CCN(CC1)C2=NC3=C(C=CC(=C3)Cl)N(C4=CC=CC=C42)NC(=O)C5=CN=CC=C5

> <PUBCHEM_OPENEYE_ISO_SMILES>
CN1CCN(CC1)C2=NC3=C(C=CC(=C3)Cl)N(C4=CC=CC=C42)NC(=O)C5=CN=CC=C5

> <PUBCHEM_CACTVS_TPSA>
64.1

> <PUBCHEM_MONOISOTOPIC_WEIGHT>
446.1621871

> <PUBCHEM_TOTAL_CHARGE>
0

> <PUBCHEM_HEAVY_ATOM_COUNT>
32

> <PUBCHEM_ATOM_DEF_STEREO_COUNT>
0

> <PUBCHEM_ATOM_UDEF_STEREO_COUNT>
0

> <PUBCHEM_BOND_DEF_STEREO_COUNT>
0

> <PUBCHEM_BOND_UDEF_STEREO_COUNT>
0

> <PUBCHEM_ISOTOPIC_ATOM_COUNT>
0

> <PUBCHEM_COMPONENT_COUNT>
1

> <PUBCHEM_CACTVS_TAUTO_COUNT>
-1

> <PUBCHEM_COORDINATE_TYPE>
1
5
255

> <PUBCHEM_BONDANNOTATIONS>
14  16  8
14  19  8
16  20  8
17  18  8
17  22  8
18  23  8
19  21  8
20  24  8
21  24  8
22  25  8
23  26  8
25  26  8
28  29  8
28  30  8
29  31  8
31  32  8
8  30  8
8  32  8

$$$$
