11227406
  -OEChem-09292322042D

 70 73  0     1  0  0  0  0  0999 V2000
    2.0000   -3.2500    0.0000 F   0  0  0  0  0  0  0  0  0  0  0  0
   12.3923   -0.2500    0.0000 O   0  0  0  0  0  0  0  0  0  0  0  0
   14.9904    0.2500    0.0000 O   0  0  0  0  0  0  0  0  0  0  0  0
    8.0622   -1.7500    0.0000 N   0  0  3  0  0  0  0  0  0  0  0  0
   10.6603   -0.2500    0.0000 N   0  0  0  0  0  0  0  0  0  0  0  0
   11.5263    1.2500    0.0000 N   0  0  0  0  0  0  0  0  0  0  0  0
    9.7942   -1.7500    0.0000 C   0  0  2  0  0  0  0  0  0  0  0  0
   10.6603   -1.2500    0.0000 C   0  0  1  0  0  0  0  0  0  0  0  0
    8.9282   -1.2500    0.0000 C   0  0  0  0  0  0  0  0  0  0  0  0
    9.7942   -2.7500    0.0000 C   0  0  0  0  0  0  0  0  0  0  0  0
   11.5263   -1.7500    0.0000 C   0  0  0  0  0  0  0  0  0  0  0  0
    6.3301   -1.7500    0.0000 C   0  0  1  0  0  0  0  0  0  0  0  0
    7.1962   -1.2500    0.0000 C   0  0  0  0  0  0  0  0  0  0  0  0
   10.6603   -3.2500    0.0000 C   0  0  0  0  0  0  0  0  0  0  0  0
   11.5263   -2.7500    0.0000 C   0  0  0  0  0  0  0  0  0  0  0  0
    8.0622   -2.7500    0.0000 C   0  0  0  0  0  0  0  0  0  0  0  0
    6.3301   -2.7500    0.0000 C   0  0  0  0  0  0  0  0  0  0  0  0
    7.1962   -3.2500    0.0000 C   0  0  0  0  0  0  0  0  0  0  0  0
    5.4641   -1.2500    0.0000 C   0  0  0  0  0  0  0  0  0  0  0  0
    4.5981   -1.7500    0.0000 C   0  0  0  0  0  0  0  0  0  0  0  0
   11.5263    0.2500    0.0000 C   0  0  0  0  0  0  0  0  0  0  0  0
    4.5981   -2.7500    0.0000 C   0  0  0  0  0  0  0  0  0  0  0  0
    3.7320   -1.2500    0.0000 C   0  0  0  0  0  0  0  0  0  0  0  0
    3.7320   -3.2500    0.0000 C   0  0  0  0  0  0  0  0  0  0  0  0
    2.8660   -1.7500    0.0000 C   0  0  0  0  0  0  0  0  0  0  0  0
   12.3923    1.7500    0.0000 C   0  0  0  0  0  0  0  0  0  0  0  0
    2.8660   -2.7500    0.0000 C   0  0  0  0  0  0  0  0  0  0  0  0
   13.2583    1.2500    0.0000 C   0  0  0  0  0  0  0  0  0  0  0  0
   12.3923    2.7500    0.0000 C   0  0  0  0  0  0  0  0  0  0  0  0
   14.1244    1.7500    0.0000 C   0  0  0  0  0  0  0  0  0  0  0  0
   13.2583    3.2500    0.0000 C   0  0  0  0  0  0  0  0  0  0  0  0
   14.1244    2.7500    0.0000 C   0  0  0  0  0  0  0  0  0  0  0  0
   14.9904    1.2500    0.0000 C   0  0  0  0  0  0  0  0  0  0  0  0
   15.8564    1.7500    0.0000 C   0  0  0  0  0  0  0  0  0  0  0  0
    9.2573   -2.0600    0.0000 H   0  0  0  0  0  0  0  0  0  0  0  0
   11.1972   -0.9400    0.0000 H   0  0  0  0  0  0  0  0  0  0  0  0
    9.3267   -0.7751    0.0000 H   0  0  0  0  0  0  0  0  0  0  0  0
    8.5297   -0.7751    0.0000 H   0  0  0  0  0  0  0  0  0  0  0  0
    9.1836   -2.6423    0.0000 H   0  0  0  0  0  0  0  0  0  0  0  0
    9.5822   -3.3326    0.0000 H   0  0  0  0  0  0  0  0  0  0  0  0
   12.1369   -1.8577    0.0000 H   0  0  0  0  0  0  0  0  0  0  0  0
   11.7383   -1.1674    0.0000 H   0  0  0  0  0  0  0  0  0  0  0  0
    5.7932   -2.0600    0.0000 H   0  0  0  0  0  0  0  0  0  0  0  0
    7.5947   -0.7751    0.0000 H   0  0  0  0  0  0  0  0  0  0  0  0
    6.7976   -0.7751    0.0000 H   0  0  0  0  0  0  0  0  0  0  0  0
   10.2617   -3.7250    0.0000 H   0  0  0  0  0  0  0  0  0  0  0  0
   11.0588   -3.7250    0.0000 H   0  0  0  0  0  0  0  0  0  0  0  0
   11.7383   -3.3326    0.0000 H   0  0  0  0  0  0  0  0  0  0  0  0
   12.1369   -2.6423    0.0000 H   0  0  0  0  0  0  0  0  0  0  0  0
    8.2742   -3.3326    0.0000 H   0  0  0  0  0  0  0  0  0  0  0  0
    8.6728   -2.6423    0.0000 H   0  0  0  0  0  0  0  0  0  0  0  0
    5.7196   -2.6423    0.0000 H   0  0  0  0  0  0  0  0  0  0  0  0
    6.1181   -3.3326    0.0000 H   0  0  0  0  0  0  0  0  0  0  0  0
    6.7976   -3.7250    0.0000 H   0  0  0  0  0  0  0  0  0  0  0  0
    7.5947   -3.7250    0.0000 H   0  0  0  0  0  0  0  0  0  0  0  0
    5.8626   -0.7751    0.0000 H   0  0  0  0  0  0  0  0  0  0  0  0
    5.0656   -0.7751    0.0000 H   0  0  0  0  0  0  0  0  0  0  0  0
   10.1233    0.0600    0.0000 H   0  0  0  0  0  0  0  0  0  0  0  0
    5.1350   -3.0600    0.0000 H   0  0  0  0  0  0  0  0  0  0  0  0
    3.7320   -0.6300    0.0000 H   0  0  0  0  0  0  0  0  0  0  0  0
   10.9893    1.5600    0.0000 H   0  0  0  0  0  0  0  0  0  0  0  0
    3.7320   -3.8700    0.0000 H   0  0  0  0  0  0  0  0  0  0  0  0
    2.3291   -1.4400    0.0000 H   0  0  0  0  0  0  0  0  0  0  0  0
   13.2583    0.6300    0.0000 H   0  0  0  0  0  0  0  0  0  0  0  0
   11.8554    3.0600    0.0000 H   0  0  0  0  0  0  0  0  0  0  0  0
   13.2583    3.8700    0.0000 H   0  0  0  0  0  0  0  0  0  0  0  0
   14.6613    3.0600    0.0000 H   0  0  0  0  0  0  0  0  0  0  0  0
   16.1664    1.2131    0.0000 H   0  0  0  0  0  0  0  0  0  0  0  0
   16.3933    2.0600    0.0000 H   0  0  0  0  0  0  0  0  0  0  0  0
   15.5464    2.2869    0.0000 H   0  0  0  0  0  0  0  0  0  0  0  0
  1 27  1  0  0  0  0
  2 21  2  0  0  0  0
  3 33  2  0  0  0  0
  4  9  1  0  0  0  0
  4 13  1  0  0  0  0
  4 16  1  0  0  0  0
  8  5  1  6  0  0  0
  5 21  1  0  0  0  0
  5 58  1  0  0  0  0
  6 21  1  0  0  0  0
  6 26  1  0  0  0  0
  6 61  1  0  0  0  0
  7  8  1  0  0  0  0
  7  9  1  1  0  0  0
  7 10  1  0  0  0  0
  7 35  1  0  0  0  0
  8 11  1  0  0  0  0
  8 36  1  0  0  0  0
  9 37  1  0  0  0  0
  9 38  1  0  0  0  0
 10 14  1  0  0  0  0
 10 39  1  0  0  0  0
 10 40  1  0  0  0  0
 11 15  1  0  0  0  0
 11 41  1  0  0  0  0
 11 42  1  0  0  0  0
 12 13  1  0  0  0  0
 12 17  1  0  0  0  0
 12 19  1  1  0  0  0
 12 43  1  0  0  0  0
 13 44  1  0  0  0  0
 13 45  1  0  0  0  0
 14 15  1  0  0  0  0
 14 46  1  0  0  0  0
 14 47  1  0  0  0  0
 15 48  1  0  0  0  0
 15 49  1  0  0  0  0
 16 18  1  0  0  0  0
 16 50  1  0  0  0  0
 16 51  1  0  0  0  0
 17 18  1  0  0  0  0
 17 52  1  0  0  0  0
 17 53  1  0  0  0  0
 18 54  1  0  0  0  0
 18 55  1  0  0  0  0
 19 20  1  0  0  0  0
 19 56  1  0  0  0  0
 19 57  1  0  0  0  0
 20 22  2  0  0  0  0
 20 23  1  0  0  0  0
 22 24  1  0  0  0  0
 22 59  1  0  0  0  0
 23 25  2  0  0  0  0
 23 60  1  0  0  0  0
 24 27  2  0  0  0  0
 24 62  1  0  0  0  0
 25 27  1  0  0  0  0
 25 63  1  0  0  0  0
 26 28  1  0  0  0  0
 26 29  2  0  0  0  0
 28 30  2  0  0  0  0
 28 64  1  0  0  0  0
 29 31  1  0  0  0  0
 29 65  1  0  0  0  0
 30 32  1  0  0  0  0
 30 33  1  0  0  0  0
 31 32  2  0  0  0  0
 31 66  1  0  0  0  0
 32 67  1  0  0  0  0
 33 34  1  0  0  0  0
 34 68  1  0  0  0  0
 34 69  1  0  0  0  0
 34 70  1  0  0  0  0
M  END
> <PUBCHEM_COMPOUND_CID>
11227406

> <PUBCHEM_COMPOUND_CANONICALIZED>
1

> <PUBCHEM_CACTVS_COMPLEXITY>
666

> <PUBCHEM_CACTVS_HBOND_ACCEPTOR>
4

> <PUBCHEM_CACTVS_HBOND_DONOR>
2

> <PUBCHEM_CACTVS_ROTATABLE_BOND>
7

> <PUBCHEM_CACTVS_SUBSKEYS>
AAADcfB7MQAAAAAAAAAAAAAAAAAAAAAAAAA8YMEAAAAAAAABQAAAHwAQAAAADSzBmAwzwIPAAACIAqRSUACCAAAlAgAIiIEIZMiIIDLA1ZGEIQholgLIyacciMCOAAAAQAAAAAAAAACAAAQAAAAAAAAAAA==

> <PUBCHEM_IUPAC_OPENEYE_NAME>
1-(3-acetylphenyl)-3-[(1R,2S)-2-[[(3S)-3-[(4-fluorophenyl)methyl]-1-piperidyl]methyl]cyclohexyl]urea

> <PUBCHEM_IUPAC_CAS_NAME>
1-(3-acetylphenyl)-3-[(1R,2S)-2-[[(3S)-3-[(4-fluorophenyl)methyl]-1-piperidinyl]methyl]cyclohexyl]urea

> <PUBCHEM_IUPAC_NAME_MARKUP>
1-(3-acetylphenyl)-3-[(1<I>R</I>,2<I>S</I>)-2-[[(3<I>S</I>)-3-[(4-fluorophenyl)methyl]piperidin-1-yl]methyl]cyclohexyl]urea

> <PUBCHEM_IUPAC_NAME>
1-(3-acetylphenyl)-3-[(1R,2S)-2-[[(3S)-3-[(4-fluorophenyl)methyl]piperidin-1-yl]methyl]cyclohexyl]urea

> <PUBCHEM_IUPAC_SYSTEMATIC_NAME>
1-(3-ethanoylphenyl)-3-[(1R,2S)-2-[[(3S)-3-[(4-fluorophenyl)methyl]piperidin-1-yl]methyl]cyclohexyl]urea

> <PUBCHEM_IUPAC_TRADITIONAL_NAME>
1-(3-acetylphenyl)-3-[(1R,2S)-2-[[(3S)-3-(4-fluorobenzyl)piperidino]methyl]cyclohexyl]urea

> <PUBCHEM_IUPAC_INCHI>
InChI=1S/C28H36FN3O2/c1-20(33)23-8-4-9-26(17-23)30-28(34)31-27-10-3-2-7-24(27)19-32-15-5-6-22(18-32)16-21-11-13-25(29)14-12-21/h4,8-9,11-14,17,22,24,27H,2-3,5-7,10,15-16,18-19H2,1H3,(H2,30,31,34)/t22-,24-,27+/m0/s1

> <PUBCHEM_IUPAC_INCHIKEY>
ASRDPULQBHFPGU-WFIHMLKPSA-N

> <PUBCHEM_XLOGP3_AA>
5.2

> <PUBCHEM_EXACT_MASS>
465.27915556

> <PUBCHEM_MOLECULAR_FORMULA>
C28H36FN3O2

> <PUBCHEM_MOLECULAR_WEIGHT>
465.6

> <PUBCHEM_OPENEYE_CAN_SMILES>
CC(=O)C1=CC(=CC=C1)NC(=O)NC2CCCCC2CN3CCCC(C3)CC4=CC=C(C=C4)F

> <PUBCHEM_OPENEYE_ISO_SMILES>
CC(=O)C1=CC(=CC=C1)NC(=O)N[C@@H]2CCCC[C@H]2CN3CCC[C@H](C3)CC4=CC=C(C=C4)F

> <PUBCHEM_CACTVS_TPSA>
61.4

> <PUBCHEM_MONOISOTOPIC_WEIGHT>
465.27915556

> <PUBCHEM_TOTAL_CHARGE>
0

> <PUBCHEM_HEAVY_ATOM_COUNT>
34

> <PUBCHEM_ATOM_DEF_STEREO_COUNT>
3

> <PUBCHEM_ATOM_UDEF_STEREO_COUNT>
0

> <PUBCHEM_BOND_DEF_STEREO_COUNT>
0

> <PUBCHEM_BOND_UDEF_STEREO_COUNT>
0

> <PUBCHEM_ISOTOPIC_ATOM_COUNT>
0

> <PUBCHEM_COMPONENT_COUNT>
1

> <PUBCHEM_CACTVS_TAUTO_COUNT>
-1

> <PUBCHEM_COORDINATE_TYPE>
1
5
255

> <PUBCHEM_BONDANNOTATIONS>
12  19  5
20  22  8
20  23  8
22  24  8
23  25  8
24  27  8
25  27  8
26  28  8
26  29  8
28  30  8
29  31  8
30  32  8
31  32  8
8  5  6
7  9  5

$$$$
