138671100
  -OEChem-09292322452D

 58 62  0     1  0  0  0  0  0999 V2000
    2.0000    6.4878    0.0000 Br  0  0  0  0  0  0  0  0  0  0  0  0
    3.4887    5.5187    0.0000 S   0  0  0  0  0  0  0  0  0  0  0  0
    6.2960   -2.9531    0.0000 O   0  0  0  0  0  0  0  0  0  0  0  0
    3.6979    2.5469    0.0000 N   0  0  3  0  0  0  0  0  0  0  0  0
    4.5640   -2.9531    0.0000 N   0  0  0  0  0  0  0  0  0  0  0  0
    2.0949    4.7140    0.0000 N   0  0  0  0  0  0  0  0  0  0  0  0
    7.1900   -6.4878    0.0000 N   0  0  0  0  0  0  0  0  0  0  0  0
    4.5640    0.0469    0.0000 C   0  0  0  0  0  0  0  0  0  0  0  0
    3.6979   -0.4531    0.0000 C   0  0  0  0  0  0  0  0  0  0  0  0
    5.4300   -0.4531    0.0000 C   0  0  0  0  0  0  0  0  0  0  0  0
    4.5640   -1.9531    0.0000 C   0  0  0  0  0  0  0  0  0  0  0  0
    3.6979   -1.4531    0.0000 C   0  0  0  0  0  0  0  0  0  0  0  0
    5.4300   -1.4531    0.0000 C   0  0  0  0  0  0  0  0  0  0  0  0
    4.5640    1.0469    0.0000 C   0  0  0  0  0  0  0  0  0  0  0  0
    3.6979    1.5469    0.0000 C   0  0  0  0  0  0  0  0  0  0  0  0
    4.5640    3.0469    0.0000 C   0  0  0  0  0  0  0  0  0  0  0  0
    2.8319    3.0469    0.0000 C   0  0  0  0  0  0  0  0  0  0  0  0
    4.5640    4.0469    0.0000 C   0  0  0  0  0  0  0  0  0  0  0  0
    2.8319    4.0469    0.0000 C   0  0  0  0  0  0  0  0  0  0  0  0
    3.6979    4.5469    0.0000 C   0  0  0  0  0  0  0  0  0  0  0  0
    5.4300   -3.4531    0.0000 C   0  0  0  0  0  0  0  0  0  0  0  0
    5.4300   -4.4531    0.0000 C   0  0  0  0  0  0  0  0  0  0  0  0
    2.5000    5.6217    0.0000 C   0  0  0  0  0  0  0  0  0  0  0  0
    6.2960   -4.9531    0.0000 C   0  0  0  0  0  0  0  0  0  0  0  0
    4.5640   -4.9531    0.0000 C   0  0  0  0  0  0  0  0  0  0  0  0
    6.2960   -5.9531    0.0000 C   0  0  0  0  0  0  0  0  0  0  0  0
    4.5640   -5.9531    0.0000 C   0  0  0  0  0  0  0  0  0  0  0  0
    7.1900   -4.4185    0.0000 C   0  0  0  0  0  0  0  0  0  0  0  0
    5.4300   -6.4531    0.0000 C   0  0  0  0  0  0  0  0  0  0  0  0
    8.0960   -4.9323    0.0000 C   0  0  0  0  0  0  0  0  0  0  0  0
    8.0960   -5.9739    0.0000 C   0  0  0  0  0  0  0  0  0  0  0  0
    4.0270    0.3569    0.0000 H   0  0  0  0  0  0  0  0  0  0  0  0
    3.4859    0.1295    0.0000 H   0  0  0  0  0  0  0  0  0  0  0  0
    3.0873   -0.5608    0.0000 H   0  0  0  0  0  0  0  0  0  0  0  0
    6.0406   -0.5608    0.0000 H   0  0  0  0  0  0  0  0  0  0  0  0
    5.6420    0.1295    0.0000 H   0  0  0  0  0  0  0  0  0  0  0  0
    4.0270   -2.2631    0.0000 H   0  0  0  0  0  0  0  0  0  0  0  0
    3.0873   -1.3455    0.0000 H   0  0  0  0  0  0  0  0  0  0  0  0
    3.4859   -2.0357    0.0000 H   0  0  0  0  0  0  0  0  0  0  0  0
    5.6420   -2.0357    0.0000 H   0  0  0  0  0  0  0  0  0  0  0  0
    6.0406   -1.3455    0.0000 H   0  0  0  0  0  0  0  0  0  0  0  0
    5.1745    0.9392    0.0000 H   0  0  0  0  0  0  0  0  0  0  0  0
    4.7760    1.6295    0.0000 H   0  0  0  0  0  0  0  0  0  0  0  0
    3.0873    1.6545    0.0000 H   0  0  0  0  0  0  0  0  0  0  0  0
    3.4859    0.9643    0.0000 H   0  0  0  0  0  0  0  0  0  0  0  0
    4.0270   -3.2631    0.0000 H   0  0  0  0  0  0  0  0  0  0  0  0
    4.7760    2.4643    0.0000 H   0  0  0  0  0  0  0  0  0  0  0  0
    5.1745    3.1545    0.0000 H   0  0  0  0  0  0  0  0  0  0  0  0
    2.2213    3.1545    0.0000 H   0  0  0  0  0  0  0  0  0  0  0  0
    2.6198    2.4643    0.0000 H   0  0  0  0  0  0  0  0  0  0  0  0
    5.1745    3.9392    0.0000 H   0  0  0  0  0  0  0  0  0  0  0  0
    4.7760    4.6295    0.0000 H   0  0  0  0  0  0  0  0  0  0  0  0
    4.0270   -4.6431    0.0000 H   0  0  0  0  0  0  0  0  0  0  0  0
    4.0270   -6.2631    0.0000 H   0  0  0  0  0  0  0  0  0  0  0  0
    7.1828   -3.7985    0.0000 H   0  0  0  0  0  0  0  0  0  0  0  0
    5.4300   -7.0731    0.0000 H   0  0  0  0  0  0  0  0  0  0  0  0
    8.6318   -4.6202    0.0000 H   0  0  0  0  0  0  0  0  0  0  0  0
    8.6318   -6.2860    0.0000 H   0  0  0  0  0  0  0  0  0  0  0  0
  1 23  1  0  0  0  0
  2 20  1  0  0  0  0
  2 23  1  0  0  0  0
  3 21  2  0  0  0  0
  4 15  1  0  0  0  0
  4 16  1  0  0  0  0
  4 17  1  0  0  0  0
  5 11  1  0  0  0  0
  5 21  1  0  0  0  0
  5 46  1  0  0  0  0
  6 19  1  0  0  0  0
  6 23  2  0  0  0  0
  7 26  1  0  0  0  0
  7 31  2  0  0  0  0
  8  9  1  0  0  0  0
  8 10  1  0  0  0  0
  8 14  1  0  0  0  0
  8 32  1  0  0  0  0
  9 12  1  0  0  0  0
  9 33  1  0  0  0  0
  9 34  1  0  0  0  0
 10 13  1  0  0  0  0
 10 35  1  0  0  0  0
 10 36  1  0  0  0  0
 11 12  1  0  0  0  0
 11 13  1  0  0  0  0
 11 37  1  0  0  0  0
 12 38  1  0  0  0  0
 12 39  1  0  0  0  0
 13 40  1  0  0  0  0
 13 41  1  0  0  0  0
 14 15  1  0  0  0  0
 14 42  1  0  0  0  0
 14 43  1  0  0  0  0
 15 44  1  0  0  0  0
 15 45  1  0  0  0  0
 16 18  1  0  0  0  0
 16 47  1  0  0  0  0
 16 48  1  0  0  0  0
 17 19  1  0  0  0  0
 17 49  1  0  0  0  0
 17 50  1  0  0  0  0
 18 20  1  0  0  0  0
 18 51  1  0  0  0  0
 18 52  1  0  0  0  0
 19 20  2  0  0  0  0
 21 22  1  0  0  0  0
 22 24  2  0  0  0  0
 22 25  1  0  0  0  0
 24 26  1  0  0  0  0
 24 28  1  0  0  0  0
 25 27  2  0  0  0  0
 25 53  1  0  0  0  0
 26 29  2  0  0  0  0
 27 29  1  0  0  0  0
 27 54  1  0  0  0  0
 28 30  2  0  0  0  0
 28 55  1  0  0  0  0
 29 56  1  0  0  0  0
 30 31  1  0  0  0  0
 30 57  1  0  0  0  0
 31 58  1  0  0  0  0
M  END
> <PUBCHEM_COMPOUND_CID>
138671100

> <PUBCHEM_COMPOUND_CANONICALIZED>
1

> <PUBCHEM_CACTVS_COMPLEXITY>
616

> <PUBCHEM_CACTVS_HBOND_ACCEPTOR>
5

> <PUBCHEM_CACTVS_HBOND_DONOR>
1

> <PUBCHEM_CACTVS_ROTATABLE_BOND>
5

> <PUBCHEM_CACTVS_SUBSKEYS>
AAADceB7oABAEAAAAAAAAAAAAAAAAWAAAAA8eIEAAAAAAFix/AAAHgRQAAAAHSjB3gQ8wfPIEAisAzV3VACC8KB1CjgI2LU4ZNgIYPLglZGUIQhglgDIyYcciICOgAAAQAASAAAQAACAACQAAAAAAAAAAA==

> <PUBCHEM_IUPAC_OPENEYE_NAME>
N-[4-[2-(2-bromo-6,7-dihydro-4H-thiazolo[4,5-c]pyridin-5-yl)ethyl]cyclohexyl]quinoline-5-carboxamide

> <PUBCHEM_IUPAC_CAS_NAME>
N-[4-[2-(2-bromo-6,7-dihydro-4H-thiazolo[4,5-c]pyridin-5-yl)ethyl]cyclohexyl]-5-quinolinecarboxamide

> <PUBCHEM_IUPAC_NAME_MARKUP>
<I>N</I>-[4-[2-(2-bromo-6,7-dihydro-4<I>H</I>-[1,3]thiazolo[4,5-c]pyridin-5-yl)ethyl]cyclohexyl]quinoline-5-carboxamide

> <PUBCHEM_IUPAC_NAME>
N-[4-[2-(2-bromo-6,7-dihydro-4H-[1,3]thiazolo[4,5-c]pyridin-5-yl)ethyl]cyclohexyl]quinoline-5-carboxamide

> <PUBCHEM_IUPAC_SYSTEMATIC_NAME>
N-[4-[2-(2-bromanyl-6,7-dihydro-4H-[1,3]thiazolo[4,5-c]pyridin-5-yl)ethyl]cyclohexyl]quinoline-5-carboxamide

> <PUBCHEM_IUPAC_TRADITIONAL_NAME>
N-[4-[2-(2-bromo-6,7-dihydro-4H-thiazolo[4,5-c]pyridin-5-yl)ethyl]cyclohexyl]quinoline-5-carboxamide

> <PUBCHEM_IUPAC_INCHI>
InChI=1S/C24H27BrN4OS/c25-24-28-21-15-29(14-11-22(21)31-24)13-10-16-6-8-17(9-7-16)27-23(30)19-3-1-5-20-18(19)4-2-12-26-20/h1-5,12,16-17H,6-11,13-15H2,(H,27,30)

> <PUBCHEM_IUPAC_INCHIKEY>
YCLMRMCMFMEFIH-UHFFFAOYSA-N

> <PUBCHEM_XLOGP3_AA>
5

> <PUBCHEM_EXACT_MASS>
498.10890

> <PUBCHEM_MOLECULAR_FORMULA>
C24H27BrN4OS

> <PUBCHEM_MOLECULAR_WEIGHT>
499.5

> <PUBCHEM_OPENEYE_CAN_SMILES>
C1CC(CCC1CCN2CCC3=C(C2)N=C(S3)Br)NC(=O)C4=C5C=CC=NC5=CC=C4

> <PUBCHEM_OPENEYE_ISO_SMILES>
C1CC(CCC1CCN2CCC3=C(C2)N=C(S3)Br)NC(=O)C4=C5C=CC=NC5=CC=C4

> <PUBCHEM_CACTVS_TPSA>
86.4

> <PUBCHEM_MONOISOTOPIC_WEIGHT>
498.10890

> <PUBCHEM_TOTAL_CHARGE>
0

> <PUBCHEM_HEAVY_ATOM_COUNT>
31

> <PUBCHEM_ATOM_DEF_STEREO_COUNT>
0

> <PUBCHEM_ATOM_UDEF_STEREO_COUNT>
0

> <PUBCHEM_BOND_DEF_STEREO_COUNT>
0

> <PUBCHEM_BOND_UDEF_STEREO_COUNT>
0

> <PUBCHEM_ISOTOPIC_ATOM_COUNT>
0

> <PUBCHEM_COMPONENT_COUNT>
1

> <PUBCHEM_CACTVS_TAUTO_COUNT>
-1

> <PUBCHEM_COORDINATE_TYPE>
1
5
255

> <PUBCHEM_BONDANNOTATIONS>
19  20  8
2  20  8
2  23  8
22  24  8
22  25  8
24  26  8
24  28  8
25  27  8
26  29  8
27  29  8
28  30  8
30  31  8
6  19  8
6  23  8
7  26  8
7  31  8

$$$$
