44336172
  -OEChem-09292322152D

 61 64  0     0  0  0  0  0  0999 V2000
   13.7222   -4.2752    0.0000 Cl  0  0  0  0  0  0  0  0  0  0  0  0
    3.7320    3.3133    0.0000 S   0  0  0  0  0  0  0  0  0  0  0  0
    6.9192   -0.1863    0.0000 O   0  0  0  0  0  0  0  0  0  0  0  0
    3.2320    2.4472    0.0000 O   0  0  0  0  0  0  0  0  0  0  0  0
    4.2320    4.1793    0.0000 O   0  0  0  0  0  0  0  0  0  0  0  0
    8.8762   -0.5987    0.0000 N   0  0  0  0  0  0  0  0  0  0  0  0
    9.4975   -2.4998    0.0000 N   0  0  0  0  0  0  0  0  0  0  0  0
    7.2764    1.5085    0.0000 N   0  0  0  0  0  0  0  0  0  0  0  0
    2.8660    3.8133    0.0000 N   0  0  0  0  0  0  0  0  0  0  0  0
    8.2083   -1.3430    0.0000 C   0  0  0  0  0  0  0  0  0  0  0  0
    9.8547   -0.8050    0.0000 C   0  0  0  0  0  0  0  0  0  0  0  0
    8.5190   -2.2936    0.0000 C   0  0  0  0  0  0  0  0  0  0  0  0
   10.1653   -1.7555    0.0000 C   0  0  0  0  0  0  0  0  0  0  0  0
    8.5655    0.3518    0.0000 C   0  0  0  0  0  0  0  0  0  0  0  0
    7.8600    2.3133    0.0000 C   0  0  0  0  0  0  0  0  0  0  0  0
    7.2764    3.1180    0.0000 C   0  0  0  0  0  0  0  0  0  0  0  0
    6.3301    1.8133    0.0000 C   0  0  0  0  0  0  0  0  0  0  0  0
    6.3301    2.8133    0.0000 C   0  0  0  0  0  0  0  0  0  0  0  0
    7.5870    0.5580    0.0000 C   0  0  0  0  0  0  0  0  0  0  0  0
    9.8082   -3.4503    0.0000 C   0  0  0  0  0  0  0  0  0  0  0  0
    5.4641    3.3133    0.0000 C   0  0  0  0  0  0  0  0  0  0  0  0
    5.4641    1.3133    0.0000 C   0  0  0  0  0  0  0  0  0  0  0  0
    4.5981    2.8133    0.0000 C   0  0  0  0  0  0  0  0  0  0  0  0
   10.7867   -3.6565    0.0000 C   0  0  0  0  0  0  0  0  0  0  0  0
    4.5981    1.8133    0.0000 C   0  0  0  0  0  0  0  0  0  0  0  0
   11.0973   -4.6070    0.0000 C   0  0  0  0  0  0  0  0  0  0  0  0
   11.4545   -2.9122    0.0000 C   0  0  0  0  0  0  0  0  0  0  0  0
   12.0758   -4.8133    0.0000 C   0  0  0  0  0  0  0  0  0  0  0  0
   12.4330   -3.1184    0.0000 C   0  0  0  0  0  0  0  0  0  0  0  0
    2.0000    3.3133    0.0000 C   0  0  0  0  0  0  0  0  0  0  0  0
    2.8660    4.8133    0.0000 C   0  0  0  0  0  0  0  0  0  0  0  0
   12.7437   -4.0690    0.0000 C   0  0  0  0  0  0  0  0  0  0  0  0
    7.8258   -0.8551    0.0000 H   0  0  0  0  0  0  0  0  0  0  0  0
    7.6614   -1.6351    0.0000 H   0  0  0  0  0  0  0  0  0  0  0  0
   10.4685   -0.7176    0.0000 H   0  0  0  0  0  0  0  0  0  0  0  0
    9.8752   -0.1853    0.0000 H   0  0  0  0  0  0  0  0  0  0  0  0
    7.9052   -2.3809    0.0000 H   0  0  0  0  0  0  0  0  0  0  0  0
    8.4984   -2.9132    0.0000 H   0  0  0  0  0  0  0  0  0  0  0  0
   10.5479   -2.2434    0.0000 H   0  0  0  0  0  0  0  0  0  0  0  0
   10.7123   -1.4635    0.0000 H   0  0  0  0  0  0  0  0  0  0  0  0
    9.1793    0.4391    0.0000 H   0  0  0  0  0  0  0  0  0  0  0  0
    8.5861    0.9714    0.0000 H   0  0  0  0  0  0  0  0  0  0  0  0
    8.3208    1.8985    0.0000 H   0  0  0  0  0  0  0  0  0  0  0  0
    8.3208    2.7280    0.0000 H   0  0  0  0  0  0  0  0  0  0  0  0
    7.8137    3.4272    0.0000 H   0  0  0  0  0  0  0  0  0  0  0  0
    7.0253    3.6849    0.0000 H   0  0  0  0  0  0  0  0  0  0  0  0
    9.1944   -3.5376    0.0000 H   0  0  0  0  0  0  0  0  0  0  0  0
    9.7876   -4.0700    0.0000 H   0  0  0  0  0  0  0  0  0  0  0  0
    5.4641    3.9333    0.0000 H   0  0  0  0  0  0  0  0  0  0  0  0
    5.4641    0.6933    0.0000 H   0  0  0  0  0  0  0  0  0  0  0  0
    4.0611    1.5033    0.0000 H   0  0  0  0  0  0  0  0  0  0  0  0
   10.6833   -5.0685    0.0000 H   0  0  0  0  0  0  0  0  0  0  0  0
   11.2619   -2.3229    0.0000 H   0  0  0  0  0  0  0  0  0  0  0  0
   12.2684   -5.4026    0.0000 H   0  0  0  0  0  0  0  0  0  0  0  0
   12.8471   -2.6570    0.0000 H   0  0  0  0  0  0  0  0  0  0  0  0
    1.6900    3.8502    0.0000 H   0  0  0  0  0  0  0  0  0  0  0  0
    1.4631    3.0033    0.0000 H   0  0  0  0  0  0  0  0  0  0  0  0
    2.3100    2.7763    0.0000 H   0  0  0  0  0  0  0  0  0  0  0  0
    3.4860    4.8133    0.0000 H   0  0  0  0  0  0  0  0  0  0  0  0
    2.8660    5.4333    0.0000 H   0  0  0  0  0  0  0  0  0  0  0  0
    2.2460    4.8133    0.0000 H   0  0  0  0  0  0  0  0  0  0  0  0
  1 32  1  0  0  0  0
  2  4  2  0  0  0  0
  2  5  2  0  0  0  0
  2  9  1  0  0  0  0
  2 23  1  0  0  0  0
  3 19  2  0  0  0  0
  6 10  1  0  0  0  0
  6 11  1  0  0  0  0
  6 14  1  0  0  0  0
  7 12  1  0  0  0  0
  7 13  1  0  0  0  0
  7 20  1  0  0  0  0
  8 15  1  0  0  0  0
  8 17  1  0  0  0  0
  8 19  1  0  0  0  0
  9 30  1  0  0  0  0
  9 31  1  0  0  0  0
 10 12  1  0  0  0  0
 10 33  1  0  0  0  0
 10 34  1  0  0  0  0
 11 13  1  0  0  0  0
 11 35  1  0  0  0  0
 11 36  1  0  0  0  0
 12 37  1  0  0  0  0
 12 38  1  0  0  0  0
 13 39  1  0  0  0  0
 13 40  1  0  0  0  0
 14 19  1  0  0  0  0
 14 41  1  0  0  0  0
 14 42  1  0  0  0  0
 15 16  1  0  0  0  0
 15 43  1  0  0  0  0
 15 44  1  0  0  0  0
 16 18  1  0  0  0  0
 16 45  1  0  0  0  0
 16 46  1  0  0  0  0
 17 18  2  0  0  0  0
 17 22  1  0  0  0  0
 18 21  1  0  0  0  0
 20 24  1  0  0  0  0
 20 47  1  0  0  0  0
 20 48  1  0  0  0  0
 21 23  2  0  0  0  0
 21 49  1  0  0  0  0
 22 25  2  0  0  0  0
 22 50  1  0  0  0  0
 23 25  1  0  0  0  0
 24 26  2  0  0  0  0
 24 27  1  0  0  0  0
 25 51  1  0  0  0  0
 26 28  1  0  0  0  0
 26 52  1  0  0  0  0
 27 29  2  0  0  0  0
 27 53  1  0  0  0  0
 28 32  2  0  0  0  0
 28 54  1  0  0  0  0
 29 32  1  0  0  0  0
 29 55  1  0  0  0  0
 30 56  1  0  0  0  0
 30 57  1  0  0  0  0
 30 58  1  0  0  0  0
 31 59  1  0  0  0  0
 31 60  1  0  0  0  0
 31 61  1  0  0  0  0
M  END
> <PUBCHEM_COMPOUND_CID>
44336172

> <PUBCHEM_COMPOUND_CANONICALIZED>
1

> <PUBCHEM_CACTVS_COMPLEXITY>
743

> <PUBCHEM_CACTVS_HBOND_ACCEPTOR>
6

> <PUBCHEM_CACTVS_HBOND_DONOR>
0

> <PUBCHEM_CACTVS_ROTATABLE_BOND>
6

> <PUBCHEM_CACTVS_SUBSKEYS>
AAADceB7sABEAAAAAAAAAAAAAAAAAWAAAAA8YIAAAAAAAFgBQAAAHgYAQAAADArB2CQywYMAAAKIAiVSUHDCABAhBwAIiBiIZogIYCLBk7GUIAhghgDIyAcQgIAOBAQAgAACAAAICAEAAAQAAAAAAAAAAA==

> <PUBCHEM_IUPAC_OPENEYE_NAME>
1-[2-[4-[(4-chlorophenyl)methyl]piperazin-1-yl]acetyl]-N,N-dimethyl-indoline-5-sulfonamide

> <PUBCHEM_IUPAC_CAS_NAME>
1-[2-[4-[(4-chlorophenyl)methyl]-1-piperazinyl]-1-oxoethyl]-N,N-dimethyl-2,3-dihydroindole-5-sulfonamide

> <PUBCHEM_IUPAC_NAME_MARKUP>
1-[2-[4-[(4-chlorophenyl)methyl]piperazin-1-yl]acetyl]-<I>N</I>,<I>N</I>-dimethyl-2,3-dihydroindole-5-sulfonamide

> <PUBCHEM_IUPAC_NAME>
1-[2-[4-[(4-chlorophenyl)methyl]piperazin-1-yl]acetyl]-N,N-dimethyl-2,3-dihydroindole-5-sulfonamide

> <PUBCHEM_IUPAC_SYSTEMATIC_NAME>
1-[2-[4-[(4-chlorophenyl)methyl]piperazin-1-yl]ethanoyl]-N,N-dimethyl-2,3-dihydroindole-5-sulfonamide

> <PUBCHEM_IUPAC_TRADITIONAL_NAME>
1-[2-[4-(4-chlorobenzyl)piperazino]acetyl]-N,N-dimethyl-indoline-5-sulfonamide

> <PUBCHEM_IUPAC_INCHI>
InChI=1S/C23H29ClN4O3S/c1-25(2)32(30,31)21-7-8-22-19(15-21)9-10-28(22)23(29)17-27-13-11-26(12-14-27)16-18-3-5-20(24)6-4-18/h3-8,15H,9-14,16-17H2,1-2H3

> <PUBCHEM_IUPAC_INCHIKEY>
HBHUBMJSJZYOOE-UHFFFAOYSA-N

> <PUBCHEM_XLOGP3_AA>
2.5

> <PUBCHEM_EXACT_MASS>
476.1648897

> <PUBCHEM_MOLECULAR_FORMULA>
C23H29ClN4O3S

> <PUBCHEM_MOLECULAR_WEIGHT>
477.0

> <PUBCHEM_OPENEYE_CAN_SMILES>
CN(C)S(=O)(=O)C1=CC2=C(C=C1)N(CC2)C(=O)CN3CCN(CC3)CC4=CC=C(C=C4)Cl

> <PUBCHEM_OPENEYE_ISO_SMILES>
CN(C)S(=O)(=O)C1=CC2=C(C=C1)N(CC2)C(=O)CN3CCN(CC3)CC4=CC=C(C=C4)Cl

> <PUBCHEM_CACTVS_TPSA>
72.6

> <PUBCHEM_MONOISOTOPIC_WEIGHT>
476.1648897

> <PUBCHEM_TOTAL_CHARGE>
0

> <PUBCHEM_HEAVY_ATOM_COUNT>
32

> <PUBCHEM_ATOM_DEF_STEREO_COUNT>
0

> <PUBCHEM_ATOM_UDEF_STEREO_COUNT>
0

> <PUBCHEM_BOND_DEF_STEREO_COUNT>
0

> <PUBCHEM_BOND_UDEF_STEREO_COUNT>
0

> <PUBCHEM_ISOTOPIC_ATOM_COUNT>
0

> <PUBCHEM_COMPONENT_COUNT>
1

> <PUBCHEM_CACTVS_TAUTO_COUNT>
-1

> <PUBCHEM_COORDINATE_TYPE>
1
5
255

> <PUBCHEM_BONDANNOTATIONS>
17  18  8
17  22  8
18  21  8
21  23  8
22  25  8
23  25  8
24  26  8
24  27  8
26  28  8
27  29  8
28  32  8
29  32  8

$$$$
