10287730
  -OEChem-09292322102D

 59 63  0     0  0  0  0  0  0999 V2000
    8.9962   -1.7500    0.0000 O   0  0  0  0  0  0  0  0  0  0  0  0
    5.5321    1.2500    0.0000 N   0  0  0  0  0  0  0  0  0  0  0  0
    7.2641    0.2500    0.0000 N   0  0  0  0  0  0  0  0  0  0  0  0
    2.9061    2.7153    0.0000 N   0  0  0  0  0  0  0  0  0  0  0  0
   10.7561   -4.7847    0.0000 N   0  0  0  0  0  0  0  0  0  0  0  0
    6.3981    1.7500    0.0000 C   0  0  0  0  0  0  0  0  0  0  0  0
    5.5321    0.2500    0.0000 C   0  0  0  0  0  0  0  0  0  0  0  0
    7.2641    1.2500    0.0000 C   0  0  0  0  0  0  0  0  0  0  0  0
    6.3981   -0.2500    0.0000 C   0  0  0  0  0  0  0  0  0  0  0  0
    4.6660    1.7500    0.0000 C   0  0  0  0  0  0  0  0  0  0  0  0
    8.1301   -0.2500    0.0000 C   0  0  0  0  0  0  0  0  0  0  0  0
    4.6660    2.7500    0.0000 C   0  0  0  0  0  0  0  0  0  0  0  0
    8.1301   -1.2500    0.0000 C   0  0  0  0  0  0  0  0  0  0  0  0
    3.8000    3.2500    0.0000 C   0  0  0  0  0  0  0  0  0  0  0  0
    5.5321    3.2500    0.0000 C   0  0  0  0  0  0  0  0  0  0  0  0
    3.8000    4.2500    0.0000 C   0  0  0  0  0  0  0  0  0  0  0  0
    5.5321    4.2500    0.0000 C   0  0  0  0  0  0  0  0  0  0  0  0
    4.6660    4.7500    0.0000 C   0  0  0  0  0  0  0  0  0  0  0  0
    8.9962   -2.7500    0.0000 C   0  0  0  0  0  0  0  0  0  0  0  0
    2.9061    4.7847    0.0000 C   0  0  0  0  0  0  0  0  0  0  0  0
    9.8622   -3.2500    0.0000 C   0  0  0  0  0  0  0  0  0  0  0  0
    2.0000    3.2292    0.0000 C   0  0  0  0  0  0  0  0  0  0  0  0
    8.1301   -3.2500    0.0000 C   0  0  0  0  0  0  0  0  0  0  0  0
    2.0000    4.2708    0.0000 C   0  0  0  0  0  0  0  0  0  0  0  0
    9.8622   -4.2500    0.0000 C   0  0  0  0  0  0  0  0  0  0  0  0
   10.7561   -2.7153    0.0000 C   0  0  0  0  0  0  0  0  0  0  0  0
    8.1301   -4.2500    0.0000 C   0  0  0  0  0  0  0  0  0  0  0  0
    8.9962   -4.7500    0.0000 C   0  0  0  0  0  0  0  0  0  0  0  0
   11.6622   -3.2292    0.0000 C   0  0  0  0  0  0  0  0  0  0  0  0
   11.6622   -4.2708    0.0000 C   0  0  0  0  0  0  0  0  0  0  0  0
   12.5263   -4.7742    0.0000 C   0  0  0  0  0  0  0  0  0  0  0  0
    6.7966    2.2250    0.0000 H   0  0  0  0  0  0  0  0  0  0  0  0
    5.9996    2.2250    0.0000 H   0  0  0  0  0  0  0  0  0  0  0  0
    4.9215    0.3577    0.0000 H   0  0  0  0  0  0  0  0  0  0  0  0
    5.3200   -0.3326    0.0000 H   0  0  0  0  0  0  0  0  0  0  0  0
    7.8747    1.1423    0.0000 H   0  0  0  0  0  0  0  0  0  0  0  0
    7.4762    1.8326    0.0000 H   0  0  0  0  0  0  0  0  0  0  0  0
    5.9996   -0.7249    0.0000 H   0  0  0  0  0  0  0  0  0  0  0  0
    6.7966   -0.7249    0.0000 H   0  0  0  0  0  0  0  0  0  0  0  0
    4.0555    1.8577    0.0000 H   0  0  0  0  0  0  0  0  0  0  0  0
    4.4540    1.1674    0.0000 H   0  0  0  0  0  0  0  0  0  0  0  0
    8.7407   -0.3577    0.0000 H   0  0  0  0  0  0  0  0  0  0  0  0
    8.3422    0.3326    0.0000 H   0  0  0  0  0  0  0  0  0  0  0  0
    7.5196   -1.1423    0.0000 H   0  0  0  0  0  0  0  0  0  0  0  0
    7.9181   -1.8326    0.0000 H   0  0  0  0  0  0  0  0  0  0  0  0
    6.0690    2.9400    0.0000 H   0  0  0  0  0  0  0  0  0  0  0  0
    6.0690    4.5600    0.0000 H   0  0  0  0  0  0  0  0  0  0  0  0
    4.6660    5.3700    0.0000 H   0  0  0  0  0  0  0  0  0  0  0  0
    2.9132    5.4046    0.0000 H   0  0  0  0  0  0  0  0  0  0  0  0
    7.5932   -2.9400    0.0000 H   0  0  0  0  0  0  0  0  0  0  0  0
    1.4643    2.9171    0.0000 H   0  0  0  0  0  0  0  0  0  0  0  0
    1.4643    4.5829    0.0000 H   0  0  0  0  0  0  0  0  0  0  0  0
   10.7490   -2.0954    0.0000 H   0  0  0  0  0  0  0  0  0  0  0  0
    7.5932   -4.5600    0.0000 H   0  0  0  0  0  0  0  0  0  0  0  0
    8.9962   -5.3700    0.0000 H   0  0  0  0  0  0  0  0  0  0  0  0
   12.1979   -2.9171    0.0000 H   0  0  0  0  0  0  0  0  0  0  0  0
   12.2142   -5.3099    0.0000 H   0  0  0  0  0  0  0  0  0  0  0  0
   13.0620   -5.0862    0.0000 H   0  0  0  0  0  0  0  0  0  0  0  0
   12.8384   -4.2384    0.0000 H   0  0  0  0  0  0  0  0  0  0  0  0
  1 13  1  0  0  0  0
  1 19  1  0  0  0  0
  2  6  1  0  0  0  0
  2  7  1  0  0  0  0
  2 10  1  0  0  0  0
  3  8  1  0  0  0  0
  3  9  1  0  0  0  0
  3 11  1  0  0  0  0
  4 14  1  0  0  0  0
  4 22  2  0  0  0  0
  5 25  1  0  0  0  0
  5 30  2  0  0  0  0
  6  8  1  0  0  0  0
  6 32  1  0  0  0  0
  6 33  1  0  0  0  0
  7  9  1  0  0  0  0
  7 34  1  0  0  0  0
  7 35  1  0  0  0  0
  8 36  1  0  0  0  0
  8 37  1  0  0  0  0
  9 38  1  0  0  0  0
  9 39  1  0  0  0  0
 10 12  1  0  0  0  0
 10 40  1  0  0  0  0
 10 41  1  0  0  0  0
 11 13  1  0  0  0  0
 11 42  1  0  0  0  0
 11 43  1  0  0  0  0
 12 14  1  0  0  0  0
 12 15  2  0  0  0  0
 13 44  1  0  0  0  0
 13 45  1  0  0  0  0
 14 16  2  0  0  0  0
 15 17  1  0  0  0  0
 15 46  1  0  0  0  0
 16 18  1  0  0  0  0
 16 20  1  0  0  0  0
 17 18  2  0  0  0  0
 17 47  1  0  0  0  0
 18 48  1  0  0  0  0
 19 21  1  0  0  0  0
 19 23  2  0  0  0  0
 20 24  2  0  0  0  0
 20 49  1  0  0  0  0
 21 25  2  0  0  0  0
 21 26  1  0  0  0  0
 22 24  1  0  0  0  0
 22 51  1  0  0  0  0
 23 27  1  0  0  0  0
 23 50  1  0  0  0  0
 24 52  1  0  0  0  0
 25 28  1  0  0  0  0
 26 29  2  0  0  0  0
 26 53  1  0  0  0  0
 27 28  2  0  0  0  0
 27 54  1  0  0  0  0
 28 55  1  0  0  0  0
 29 30  1  0  0  0  0
 29 56  1  0  0  0  0
 30 31  1  0  0  0  0
 31 57  1  0  0  0  0
 31 58  1  0  0  0  0
 31 59  1  0  0  0  0
M  END
> <PUBCHEM_COMPOUND_CID>
10287730

> <PUBCHEM_COMPOUND_CANONICALIZED>
1

> <PUBCHEM_CACTVS_COMPLEXITY>
552

> <PUBCHEM_CACTVS_HBOND_ACCEPTOR>
5

> <PUBCHEM_CACTVS_HBOND_DONOR>
0

> <PUBCHEM_CACTVS_ROTATABLE_BOND>
6

> <PUBCHEM_CACTVS_SUBSKEYS>
AAADceB7oAAAAAAAAAAAAAAAAAAAAAAAAAA8eLECAAAAAACx/gAAHgAAAAAADAzhngY+xvMIFACgAzRnRACCiCAxIiAI2CA+bJgOZuLE8ZuXOCjmwBnY6AeQ0OMOAAACAgAKAAAAAAQEABQAAAAAAAAAAA==

> <PUBCHEM_IUPAC_OPENEYE_NAME>
2-methyl-5-[2-[4-(8-quinolylmethyl)piperazin-1-yl]ethoxy]quinoline

> <PUBCHEM_IUPAC_CAS_NAME>
2-methyl-5-[2-[4-(8-quinolinylmethyl)-1-piperazinyl]ethoxy]quinoline

> <PUBCHEM_IUPAC_NAME_MARKUP>
2-methyl-5-[2-[4-(quinolin-8-ylmethyl)piperazin-1-yl]ethoxy]quinoline

> <PUBCHEM_IUPAC_NAME>
2-methyl-5-[2-[4-(quinolin-8-ylmethyl)piperazin-1-yl]ethoxy]quinoline

> <PUBCHEM_IUPAC_SYSTEMATIC_NAME>
2-methyl-5-[2-[4-(quinolin-8-ylmethyl)piperazin-1-yl]ethoxy]quinoline

> <PUBCHEM_IUPAC_TRADITIONAL_NAME>
2-methyl-5-[2-[4-(8-quinolylmethyl)piperazino]ethoxy]quinoline

> <PUBCHEM_IUPAC_INCHI>
InChI=1S/C26H28N4O/c1-20-10-11-23-24(28-20)8-3-9-25(23)31-18-17-29-13-15-30(16-14-29)19-22-6-2-5-21-7-4-12-27-26(21)22/h2-12H,13-19H2,1H3

> <PUBCHEM_IUPAC_INCHIKEY>
RMCSKUADBRROSI-UHFFFAOYSA-N

> <PUBCHEM_XLOGP3_AA>
4.2

> <PUBCHEM_EXACT_MASS>
412.22631153

> <PUBCHEM_MOLECULAR_FORMULA>
C26H28N4O

> <PUBCHEM_MOLECULAR_WEIGHT>
412.5

> <PUBCHEM_OPENEYE_CAN_SMILES>
CC1=NC2=C(C=C1)C(=CC=C2)OCCN3CCN(CC3)CC4=CC=CC5=C4N=CC=C5

> <PUBCHEM_OPENEYE_ISO_SMILES>
CC1=NC2=C(C=C1)C(=CC=C2)OCCN3CCN(CC3)CC4=CC=CC5=C4N=CC=C5

> <PUBCHEM_CACTVS_TPSA>
41.5

> <PUBCHEM_MONOISOTOPIC_WEIGHT>
412.22631153

> <PUBCHEM_TOTAL_CHARGE>
0

> <PUBCHEM_HEAVY_ATOM_COUNT>
31

> <PUBCHEM_ATOM_DEF_STEREO_COUNT>
0

> <PUBCHEM_ATOM_UDEF_STEREO_COUNT>
0

> <PUBCHEM_BOND_DEF_STEREO_COUNT>
0

> <PUBCHEM_BOND_UDEF_STEREO_COUNT>
0

> <PUBCHEM_ISOTOPIC_ATOM_COUNT>
0

> <PUBCHEM_COMPONENT_COUNT>
1

> <PUBCHEM_CACTVS_TAUTO_COUNT>
1

> <PUBCHEM_COORDINATE_TYPE>
1
5
255

> <PUBCHEM_BONDANNOTATIONS>
12  14  8
12  15  8
14  16  8
15  17  8
16  18  8
16  20  8
17  18  8
19  21  8
19  23  8
20  24  8
21  25  8
21  26  8
22  24  8
23  27  8
25  28  8
26  29  8
27  28  8
29  30  8
4  14  8
4  22  8
5  25  8
5  30  8

$$$$
