44374753
  -OEChem-09292322082D

 41 44  0     1  0  0  0  0  0999 V2000
    4.3211   -0.3220    0.0000 O   0  0  0  0  0  0  0  0  0  0  0  0
    8.4797    1.7366    0.0000 N   0  0  0  0  0  0  0  0  0  0  0  0
    5.9674   -0.8601    0.0000 N   0  0  0  0  0  0  0  0  0  0  0  0
    3.7320   -3.3216    0.0000 N   0  0  0  0  0  0  0  0  0  0  0  0
    4.6783   -3.6263    0.0000 N   0  0  0  0  0  0  0  0  0  0  0  0
    7.4732    2.4403    0.0000 C   0  0  3  0  0  0  0  0  0  0  0  0
    6.5164    2.1495    0.0000 C   0  0  3  0  0  0  0  0  0  0  0  0
    6.9183    3.8216    0.0000 C   0  0  0  0  0  0  0  0  0  0  0  0
    5.9615    3.5308    0.0000 C   0  0  0  0  0  0  0  0  0  0  0  0
    7.2297    0.3978    0.0000 C   0  0  0  0  0  0  0  0  0  0  0  0
    5.6917    0.9005    0.0000 C   0  0  0  0  0  0  0  0  0  0  0  0
    6.2781    0.0904    0.0000 C   0  0  0  0  0  0  0  0  0  0  0  0
    9.3618    1.2656    0.0000 C   0  0  0  0  0  0  0  0  0  0  0  0
    4.9889   -1.0663    0.0000 C   0  0  0  0  0  0  0  0  0  0  0  0
    4.6783   -2.0168    0.0000 C   0  0  0  0  0  0  0  0  0  0  0  0
    3.7320   -2.3215    0.0000 C   0  0  0  0  0  0  0  0  0  0  0  0
    5.2619   -2.8215    0.0000 C   0  0  0  0  0  0  0  0  0  0  0  0
    2.8660   -1.8216    0.0000 C   0  0  0  0  0  0  0  0  0  0  0  0
    2.8660   -3.8216    0.0000 C   0  0  0  0  0  0  0  0  0  0  0  0
    2.0000   -2.3215    0.0000 C   0  0  0  0  0  0  0  0  0  0  0  0
    2.0000   -3.3216    0.0000 C   0  0  0  0  0  0  0  0  0  0  0  0
    7.9587    2.8259    0.0000 H   0  0  0  0  0  0  0  0  0  0  0  0
    5.8995    2.2119    0.0000 H   0  0  0  0  0  0  0  0  0  0  0  0
    7.5000    4.0359    0.0000 H   0  0  0  0  0  0  0  0  0  0  0  0
    6.7209    4.4093    0.0000 H   0  0  0  0  0  0  0  0  0  0  0  0
    5.7641    4.1186    0.0000 H   0  0  0  0  0  0  0  0  0  0  0  0
    5.3797    3.3165    0.0000 H   0  0  0  0  0  0  0  0  0  0  0  0
    7.3338   -0.2134    0.0000 H   0  0  0  0  0  0  0  0  0  0  0  0
    7.8495    0.4133    0.0000 H   0  0  0  0  0  0  0  0  0  0  0  0
    5.2190    1.3017    0.0000 H   0  0  0  0  0  0  0  0  0  0  0  0
    5.2367    0.4793    0.0000 H   0  0  0  0  0  0  0  0  0  0  0  0
    5.6656   -0.0055    0.0000 H   0  0  0  0  0  0  0  0  0  0  0  0
    9.0698    0.7187    0.0000 H   0  0  0  0  0  0  0  0  0  0  0  0
    9.9088    0.9736    0.0000 H   0  0  0  0  0  0  0  0  0  0  0  0
    9.6539    1.8126    0.0000 H   0  0  0  0  0  0  0  0  0  0  0  0
    6.3815   -1.3215    0.0000 H   0  0  0  0  0  0  0  0  0  0  0  0
    5.8819   -2.8215    0.0000 H   0  0  0  0  0  0  0  0  0  0  0  0
    2.8660   -1.2015    0.0000 H   0  0  0  0  0  0  0  0  0  0  0  0
    2.8660   -4.4416    0.0000 H   0  0  0  0  0  0  0  0  0  0  0  0
    1.4631   -2.0116    0.0000 H   0  0  0  0  0  0  0  0  0  0  0  0
    1.4631   -3.6316    0.0000 H   0  0  0  0  0  0  0  0  0  0  0  0
  1 14  2  0  0  0  0
  2  6  1  0  0  0  0
  2  7  1  0  0  0  0
  2 13  1  0  0  0  0
  3 12  1  0  0  0  0
  3 14  1  0  0  0  0
  3 36  1  0  0  0  0
  4  5  1  0  0  0  0
  4 16  1  0  0  0  0
  4 19  1  0  0  0  0
  5 17  2  0  0  0  0
  6  8  1  0  0  0  0
  6 10  1  0  0  0  0
  6 22  1  0  0  0  0
  7  9  1  0  0  0  0
  7 11  1  0  0  0  0
  7 23  1  0  0  0  0
  8  9  1  0  0  0  0
  8 24  1  0  0  0  0
  8 25  1  0  0  0  0
  9 26  1  0  0  0  0
  9 27  1  0  0  0  0
 10 12  1  0  0  0  0
 10 28  1  0  0  0  0
 10 29  1  0  0  0  0
 11 12  1  0  0  0  0
 11 30  1  0  0  0  0
 11 31  1  0  0  0  0
 12 32  1  0  0  0  0
 13 33  1  0  0  0  0
 13 34  1  0  0  0  0
 13 35  1  0  0  0  0
 14 15  1  0  0  0  0
 15 16  2  0  0  0  0
 15 17  1  0  0  0  0
 16 18  1  0  0  0  0
 17 37  1  0  0  0  0
 18 20  2  0  0  0  0
 18 38  1  0  0  0  0
 19 21  2  0  0  0  0
 19 39  1  0  0  0  0
 20 21  1  0  0  0  0
 20 40  1  0  0  0  0
 21 41  1  0  0  0  0
M  END
> <PUBCHEM_COMPOUND_CID>
44374753

> <PUBCHEM_COMPOUND_CANONICALIZED>
1

> <PUBCHEM_CACTVS_COMPLEXITY>
401

> <PUBCHEM_CACTVS_HBOND_ACCEPTOR>
3

> <PUBCHEM_CACTVS_HBOND_DONOR>
1

> <PUBCHEM_CACTVS_ROTATABLE_BOND>
2

> <PUBCHEM_CACTVS_SUBSKEYS>
AAADceB7oAAAAAAAAAAAAAAAAAAAAWLAAAAsWAAABgAAAFgB4AAAHgAYAAAADCjBngQ+wLPIEACqAzV3VACShCA1giAY2KE4ZNgIIPrA1dGEpYhgngDIyccYiECMAAAAAAAAAAAAAAAAAAAAAAAAAAAAAA==

> <PUBCHEM_IUPAC_OPENEYE_NAME>
N-(8-methyl-8-azabicyclo[3.2.1]octan-3-yl)pyrazolo[1,5-a]pyridine-3-carboxamide

> <PUBCHEM_IUPAC_CAS_NAME>
N-(8-methyl-8-azabicyclo[3.2.1]octan-3-yl)-3-pyrazolo[1,5-a]pyridinecarboxamide

> <PUBCHEM_IUPAC_NAME_MARKUP>
<I>N</I>-(8-methyl-8-azabicyclo[3.2.1]octan-3-yl)pyrazolo[1,5-a]pyridine-3-carboxamide

> <PUBCHEM_IUPAC_NAME>
N-(8-methyl-8-azabicyclo[3.2.1]octan-3-yl)pyrazolo[1,5-a]pyridine-3-carboxamide

> <PUBCHEM_IUPAC_SYSTEMATIC_NAME>
N-(8-methyl-8-azabicyclo[3.2.1]octan-3-yl)pyrazolo[1,5-a]pyridine-3-carboxamide

> <PUBCHEM_IUPAC_TRADITIONAL_NAME>
N-(8-methyl-8-azabicyclo[3.2.1]octan-3-yl)pyrazolo[1,5-a]pyridine-3-carboxamide

> <PUBCHEM_IUPAC_INCHI>
InChI=1S/C16H20N4O/c1-19-12-5-6-13(19)9-11(8-12)18-16(21)14-10-17-20-7-3-2-4-15(14)20/h2-4,7,10-13H,5-6,8-9H2,1H3,(H,18,21)

> <PUBCHEM_IUPAC_INCHIKEY>
NYZBMEKUSBPHTM-UHFFFAOYSA-N

> <PUBCHEM_XLOGP3_AA>
1.6

> <PUBCHEM_EXACT_MASS>
284.16371127

> <PUBCHEM_MOLECULAR_FORMULA>
C16H20N4O

> <PUBCHEM_MOLECULAR_WEIGHT>
284.36

> <PUBCHEM_OPENEYE_CAN_SMILES>
CN1C2CCC1CC(C2)NC(=O)C3=C4C=CC=CN4N=C3

> <PUBCHEM_OPENEYE_ISO_SMILES>
CN1C2CCC1CC(C2)NC(=O)C3=C4C=CC=CN4N=C3

> <PUBCHEM_CACTVS_TPSA>
49.6

> <PUBCHEM_MONOISOTOPIC_WEIGHT>
284.16371127

> <PUBCHEM_TOTAL_CHARGE>
0

> <PUBCHEM_HEAVY_ATOM_COUNT>
21

> <PUBCHEM_ATOM_DEF_STEREO_COUNT>
0

> <PUBCHEM_ATOM_UDEF_STEREO_COUNT>
2

> <PUBCHEM_BOND_DEF_STEREO_COUNT>
0

> <PUBCHEM_BOND_UDEF_STEREO_COUNT>
0

> <PUBCHEM_ISOTOPIC_ATOM_COUNT>
0

> <PUBCHEM_COMPONENT_COUNT>
1

> <PUBCHEM_CACTVS_TAUTO_COUNT>
-1

> <PUBCHEM_COORDINATE_TYPE>
1
5
255

> <PUBCHEM_BONDANNOTATIONS>
15  16  8
15  17  8
16  18  8
18  20  8
19  21  8
20  21  8
4  16  8
4  19  8
4  5  8
5  17  8
6  8  3
7  9  3

$$$$
