162662361
  -OEChem-09292322422D

 60 64  0     1  0  0  0  0  0999 V2000
    9.7617   -2.3367    0.0000 S   0  0  0  0  0  0  0  0  0  0  0  0
    9.2617   -1.4707    0.0000 O   0  0  0  0  0  0  0  0  0  0  0  0
   10.2617   -3.2028    0.0000 O   0  0  0  0  0  0  0  0  0  0  0  0
    2.5708    0.5645    0.0000 O   0  0  0  0  0  0  0  0  0  0  0  0
   15.0239   -0.3126    0.0000 O   0  0  0  0  0  0  0  0  0  0  0  0
    6.9470   -1.1343    0.0000 N   0  0  3  0  0  0  0  0  0  0  0  0
    8.8957   -2.8367    0.0000 N   0  0  0  0  0  0  0  0  0  0  0  0
    3.4800    0.1625    0.0000 N   0  0  0  0  0  0  0  0  0  0  0  0
    8.0297   -2.3367    0.0000 C   0  0  2  0  0  0  0  0  0  0  0  0
    7.9252   -1.3422    0.0000 C   0  0  0  0  0  0  0  0  0  0  0  0
    7.1161   -2.7435    0.0000 C   0  0  0  0  0  0  0  0  0  0  0  0
    6.4470   -2.0003    0.0000 C   0  0  0  0  0  0  0  0  0  0  0  0
    6.5403   -0.2208    0.0000 C   0  0  0  0  0  0  0  0  0  0  0  0
    5.5458   -0.1162    0.0000 C   0  0  0  0  0  0  0  0  0  0  0  0
    5.1390    0.7973    0.0000 C   0  0  0  0  0  0  0  0  0  0  0  0
   10.6278   -1.8367    0.0000 C   0  0  0  0  0  0  0  0  0  0  0  0
    4.1445    0.9018    0.0000 C   0  0  0  0  0  0  0  0  0  0  0  0
   11.4938   -2.3367    0.0000 C   0  0  0  0  0  0  0  0  0  0  0  0
   10.6278   -0.8367    0.0000 C   0  0  0  0  0  0  0  0  0  0  0  0
    3.6482    1.7632    0.0000 C   0  0  0  0  0  0  0  0  0  0  0  0
   12.3598   -1.8367    0.0000 C   0  0  0  0  0  0  0  0  0  0  0  0
   12.3598   -0.8367    0.0000 C   0  0  0  0  0  0  0  0  0  0  0  0
   11.4938   -0.3367    0.0000 C   0  0  0  0  0  0  0  0  0  0  0  0
    2.6704    1.5536    0.0000 C   0  0  0  0  0  0  0  0  0  0  0  0
    3.9556    2.7148    0.0000 C   0  0  0  0  0  0  0  0  0  0  0  0
   13.2538   -2.3714    0.0000 C   0  0  0  0  0  0  0  0  0  0  0  0
   13.2538   -0.3021    0.0000 C   0  0  0  0  0  0  0  0  0  0  0  0
    2.0000    2.2956    0.0000 C   0  0  0  0  0  0  0  0  0  0  0  0
   14.1598   -0.8159    0.0000 C   0  0  0  0  0  0  0  0  0  0  0  0
   14.1598   -1.8576    0.0000 C   0  0  0  0  0  0  0  0  0  0  0  0
    3.2852    3.4567    0.0000 C   0  0  0  0  0  0  0  0  0  0  0  0
    2.3074    3.2471    0.0000 C   0  0  0  0  0  0  0  0  0  0  0  0
   15.8919   -0.8093    0.0000 C   0  0  0  0  0  0  0  0  0  0  0  0
    8.5497   -1.9991    0.0000 H   0  0  0  0  0  0  0  0  0  0  0  0
    8.5452   -1.3422    0.0000 H   0  0  0  0  0  0  0  0  0  0  0  0
    7.9900   -0.7256    0.0000 H   0  0  0  0  0  0  0  0  0  0  0  0
    6.6146   -3.1079    0.0000 H   0  0  0  0  0  0  0  0  0  0  0  0
    7.4261   -3.2804    0.0000 H   0  0  0  0  0  0  0  0  0  0  0  0
    5.9454   -1.6359    0.0000 H   0  0  0  0  0  0  0  0  0  0  0  0
    6.0322   -2.4611    0.0000 H   0  0  0  0  0  0  0  0  0  0  0  0
    7.1419   -0.0708    0.0000 H   0  0  0  0  0  0  0  0  0  0  0  0
    6.4970    0.3977    0.0000 H   0  0  0  0  0  0  0  0  0  0  0  0
    8.8957   -3.4567    0.0000 H   0  0  0  0  0  0  0  0  0  0  0  0
    4.9442   -0.2662    0.0000 H   0  0  0  0  0  0  0  0  0  0  0  0
    5.5890   -0.7347    0.0000 H   0  0  0  0  0  0  0  0  0  0  0  0
    5.7406    0.9473    0.0000 H   0  0  0  0  0  0  0  0  0  0  0  0
    5.0958    1.4158    0.0000 H   0  0  0  0  0  0  0  0  0  0  0  0
   11.4938   -2.9567    0.0000 H   0  0  0  0  0  0  0  0  0  0  0  0
   10.0908   -0.5267    0.0000 H   0  0  0  0  0  0  0  0  0  0  0  0
   11.4938    0.2833    0.0000 H   0  0  0  0  0  0  0  0  0  0  0  0
    4.5618    2.8447    0.0000 H   0  0  0  0  0  0  0  0  0  0  0  0
   13.2466   -2.9914    0.0000 H   0  0  0  0  0  0  0  0  0  0  0  0
   13.2466    0.3179    0.0000 H   0  0  0  0  0  0  0  0  0  0  0  0
    1.3938    2.1656    0.0000 H   0  0  0  0  0  0  0  0  0  0  0  0
   14.6956   -2.1696    0.0000 H   0  0  0  0  0  0  0  0  0  0  0  0
    3.4757    4.0467    0.0000 H   0  0  0  0  0  0  0  0  0  0  0  0
    1.8917    3.7072    0.0000 H   0  0  0  0  0  0  0  0  0  0  0  0
   15.5839   -1.3474    0.0000 H   0  0  0  0  0  0  0  0  0  0  0  0
   16.4300   -1.1172    0.0000 H   0  0  0  0  0  0  0  0  0  0  0  0
   16.1998   -0.2711    0.0000 H   0  0  0  0  0  0  0  0  0  0  0  0
  1  2  2  0  0  0  0
  1  3  2  0  0  0  0
  1  7  1  0  0  0  0
  1 16  1  0  0  0  0
  4  8  1  0  0  0  0
  4 24  1  0  0  0  0
  5 29  1  0  0  0  0
  5 33  1  0  0  0  0
  6 10  1  0  0  0  0
  6 12  1  0  0  0  0
  6 13  1  0  0  0  0
  9  7  1  1  0  0  0
  7 43  1  0  0  0  0
  8 17  2  0  0  0  0
  9 10  1  0  0  0  0
  9 11  1  0  0  0  0
  9 34  1  0  0  0  0
 10 35  1  0  0  0  0
 10 36  1  0  0  0  0
 11 12  1  0  0  0  0
 11 37  1  0  0  0  0
 11 38  1  0  0  0  0
 12 39  1  0  0  0  0
 12 40  1  0  0  0  0
 13 14  1  0  0  0  0
 13 41  1  0  0  0  0
 13 42  1  0  0  0  0
 14 15  1  0  0  0  0
 14 44  1  0  0  0  0
 14 45  1  0  0  0  0
 15 17  1  0  0  0  0
 15 46  1  0  0  0  0
 15 47  1  0  0  0  0
 16 18  2  0  0  0  0
 16 19  1  0  0  0  0
 17 20  1  0  0  0  0
 18 21  1  0  0  0  0
 18 48  1  0  0  0  0
 19 23  2  0  0  0  0
 19 49  1  0  0  0  0
 20 24  1  0  0  0  0
 20 25  2  0  0  0  0
 21 22  2  0  0  0  0
 21 26  1  0  0  0  0
 22 23  1  0  0  0  0
 22 27  1  0  0  0  0
 23 50  1  0  0  0  0
 24 28  2  0  0  0  0
 25 31  1  0  0  0  0
 25 51  1  0  0  0  0
 26 30  2  0  0  0  0
 26 52  1  0  0  0  0
 27 29  2  0  0  0  0
 27 53  1  0  0  0  0
 28 32  1  0  0  0  0
 28 54  1  0  0  0  0
 29 30  1  0  0  0  0
 30 55  1  0  0  0  0
 31 32  2  0  0  0  0
 31 56  1  0  0  0  0
 32 57  1  0  0  0  0
 33 58  1  0  0  0  0
 33 59  1  0  0  0  0
 33 60  1  0  0  0  0
M  END
> <PUBCHEM_COMPOUND_CID>
162662361

> <PUBCHEM_COMPOUND_CANONICALIZED>
1

> <PUBCHEM_CACTVS_COMPLEXITY>
744

> <PUBCHEM_CACTVS_HBOND_ACCEPTOR>
7

> <PUBCHEM_CACTVS_HBOND_DONOR>
1

> <PUBCHEM_CACTVS_ROTATABLE_BOND>
8

> <PUBCHEM_CACTVS_SUBSKEYS>
AAADceB7OABAAAAAAAAAAAAAAAAAAWLAAAAwYMAAAAAAAFjB9AAAHgQUQAAADCzB3gYyh9NQBAKpA6RyQnDCCBAkIAAomLk+TNoMZrqE9ZuUMaBm0BmI6ceYyLCOsAABgAAYAABgAAMAADAAAAAAAAAAAA==

> <PUBCHEM_IUPAC_OPENEYE_NAME>
N-[(3S)-1-[3-(1,2-benzoxazol-3-yl)propyl]pyrrolidin-3-yl]-6-methoxy-naphthalene-2-sulfonamide

> <PUBCHEM_IUPAC_CAS_NAME>
N-[(3S)-1-[3-(1,2-benzoxazol-3-yl)propyl]-3-pyrrolidinyl]-6-methoxy-2-naphthalenesulfonamide

> <PUBCHEM_IUPAC_NAME_MARKUP>
<I>N</I>-[(3<I>S</I>)-1-[3-(1,2-benzoxazol-3-yl)propyl]pyrrolidin-3-yl]-6-methoxynaphthalene-2-sulfonamide

> <PUBCHEM_IUPAC_NAME>
N-[(3S)-1-[3-(1,2-benzoxazol-3-yl)propyl]pyrrolidin-3-yl]-6-methoxynaphthalene-2-sulfonamide

> <PUBCHEM_IUPAC_SYSTEMATIC_NAME>
N-[(3S)-1-[3-(1,2-benzoxazol-3-yl)propyl]pyrrolidin-3-yl]-6-methoxy-naphthalene-2-sulfonamide

> <PUBCHEM_IUPAC_TRADITIONAL_NAME>
N-[(3S)-1-(3-indoxazen-3-ylpropyl)pyrrolidin-3-yl]-6-methoxy-naphthalene-2-sulfonamide

> <PUBCHEM_IUPAC_INCHI>
InChI=1S/C25H27N3O4S/c1-31-21-10-8-19-16-22(11-9-18(19)15-21)33(29,30)27-20-12-14-28(17-20)13-4-6-24-23-5-2-3-7-25(23)32-26-24/h2-3,5,7-11,15-16,20,27H,4,6,12-14,17H2,1H3/t20-/m0/s1

> <PUBCHEM_IUPAC_INCHIKEY>
QVZCCZRTVHTBPK-FQEVSTJZSA-N

> <PUBCHEM_XLOGP3_AA>
4.5

> <PUBCHEM_EXACT_MASS>
465.17222752

> <PUBCHEM_MOLECULAR_FORMULA>
C25H27N3O4S

> <PUBCHEM_MOLECULAR_WEIGHT>
465.6

> <PUBCHEM_OPENEYE_CAN_SMILES>
COC1=CC2=C(C=C1)C=C(C=C2)S(=O)(=O)NC3CCN(C3)CCCC4=NOC5=CC=CC=C54

> <PUBCHEM_OPENEYE_ISO_SMILES>
COC1=CC2=C(C=C1)C=C(C=C2)S(=O)(=O)N[C@H]3CCN(C3)CCCC4=NOC5=CC=CC=C54

> <PUBCHEM_CACTVS_TPSA>
93

> <PUBCHEM_MONOISOTOPIC_WEIGHT>
465.17222752

> <PUBCHEM_TOTAL_CHARGE>
0

> <PUBCHEM_HEAVY_ATOM_COUNT>
33

> <PUBCHEM_ATOM_DEF_STEREO_COUNT>
1

> <PUBCHEM_ATOM_UDEF_STEREO_COUNT>
0

> <PUBCHEM_BOND_DEF_STEREO_COUNT>
0

> <PUBCHEM_BOND_UDEF_STEREO_COUNT>
0

> <PUBCHEM_ISOTOPIC_ATOM_COUNT>
0

> <PUBCHEM_COMPONENT_COUNT>
1

> <PUBCHEM_CACTVS_TAUTO_COUNT>
-1

> <PUBCHEM_COORDINATE_TYPE>
1
5
255

> <PUBCHEM_BONDANNOTATIONS>
16  18  8
16  19  8
17  20  8
18  21  8
19  23  8
20  24  8
20  25  8
21  22  8
21  26  8
22  23  8
22  27  8
24  28  8
25  31  8
26  30  8
27  29  8
28  32  8
29  30  8
31  32  8
4  24  8
4  8  8
9  7  5
8  17  8

$$$$
