25107718
  -OEChem-09292322232D

 75 78  0     0  0  0  0  0  0999 V2000
    9.7942    7.3170    0.0000 S   0  0  0  0  0  0  0  0  0  0  0  0
    8.9282    0.8170    0.0000 O   0  0  0  0  0  0  0  0  0  0  0  0
    8.9282    6.8170    0.0000 O   0  0  0  0  0  0  0  0  0  0  0  0
    9.2942    8.1830    0.0000 O   0  0  0  0  0  0  0  0  0  0  0  0
   10.2942    6.4510    0.0000 O   0  0  0  0  0  0  0  0  0  0  0  0
    5.4641   -3.1830    0.0000 N   0  0  0  0  0  0  0  0  0  0  0  0
    5.4641   -5.1830    0.0000 N   0  0  0  0  0  0  0  0  0  0  0  0
    8.0622    2.3170    0.0000 N   0  0  0  0  0  0  0  0  0  0  0  0
    4.5981   -3.6830    0.0000 C   0  0  0  0  0  0  0  0  0  0  0  0
    6.3301   -3.6830    0.0000 C   0  0  0  0  0  0  0  0  0  0  0  0
    4.5981   -4.6830    0.0000 C   0  0  0  0  0  0  0  0  0  0  0  0
    6.3301   -4.6830    0.0000 C   0  0  0  0  0  0  0  0  0  0  0  0
    5.4641   -2.1830    0.0000 C   0  0  0  0  0  0  0  0  0  0  0  0
    6.3301   -1.6830    0.0000 C   0  0  0  0  0  0  0  0  0  0  0  0
    5.4641   -6.1830    0.0000 C   0  0  0  0  0  0  0  0  0  0  0  0
    6.3301   -0.6830    0.0000 C   0  0  0  0  0  0  0  0  0  0  0  0
    7.1962   -0.1830    0.0000 C   0  0  0  0  0  0  0  0  0  0  0  0
    4.5981   -6.6830    0.0000 C   0  0  0  0  0  0  0  0  0  0  0  0
    6.3301   -6.6830    0.0000 C   0  0  0  0  0  0  0  0  0  0  0  0
    7.1962    0.8170    0.0000 C   0  0  0  0  0  0  0  0  0  0  0  0
    4.5981   -7.6830    0.0000 C   0  0  0  0  0  0  0  0  0  0  0  0
    3.7320   -6.1830    0.0000 C   0  0  0  0  0  0  0  0  0  0  0  0
    6.3301   -7.6830    0.0000 C   0  0  0  0  0  0  0  0  0  0  0  0
    5.4641   -8.1830    0.0000 C   0  0  0  0  0  0  0  0  0  0  0  0
    8.0622    1.3170    0.0000 C   0  0  0  0  0  0  0  0  0  0  0  0
    3.7320   -5.1830    0.0000 C   0  0  0  0  0  0  0  0  0  0  0  0
    2.8660   -6.6830    0.0000 C   0  0  0  0  0  0  0  0  0  0  0  0
    2.8660   -4.6830    0.0000 C   0  0  0  0  0  0  0  0  0  0  0  0
    2.0000   -6.1830    0.0000 C   0  0  0  0  0  0  0  0  0  0  0  0
    8.9282    2.8170    0.0000 C   0  0  0  0  0  0  0  0  0  0  0  0
    2.0000   -5.1830    0.0000 C   0  0  0  0  0  0  0  0  0  0  0  0
    8.9282    3.8170    0.0000 C   0  0  0  0  0  0  0  0  0  0  0  0
    9.7942    4.3170    0.0000 C   0  0  0  0  0  0  0  0  0  0  0  0
    8.0622    4.3170    0.0000 C   0  0  0  0  0  0  0  0  0  0  0  0
    9.7942    5.3170    0.0000 C   0  0  0  0  0  0  0  0  0  0  0  0
    8.0622    5.3170    0.0000 C   0  0  0  0  0  0  0  0  0  0  0  0
    8.9282    5.8170    0.0000 C   0  0  0  0  0  0  0  0  0  0  0  0
   10.6603    7.8170    0.0000 C   0  0  0  0  0  0  0  0  0  0  0  0
    4.3860   -3.1004    0.0000 H   0  0  0  0  0  0  0  0  0  0  0  0
    3.9875   -3.7907    0.0000 H   0  0  0  0  0  0  0  0  0  0  0  0
    6.9407   -3.7907    0.0000 H   0  0  0  0  0  0  0  0  0  0  0  0
    6.5422   -3.1004    0.0000 H   0  0  0  0  0  0  0  0  0  0  0  0
    3.9875   -4.5754    0.0000 H   0  0  0  0  0  0  0  0  0  0  0  0
    4.3860   -5.2656    0.0000 H   0  0  0  0  0  0  0  0  0  0  0  0
    6.5422   -5.2656    0.0000 H   0  0  0  0  0  0  0  0  0  0  0  0
    6.9407   -4.5754    0.0000 H   0  0  0  0  0  0  0  0  0  0  0  0
    5.2520   -1.6004    0.0000 H   0  0  0  0  0  0  0  0  0  0  0  0
    4.8535   -2.2907    0.0000 H   0  0  0  0  0  0  0  0  0  0  0  0
    6.5422   -2.2656    0.0000 H   0  0  0  0  0  0  0  0  0  0  0  0
    6.9407   -1.5754    0.0000 H   0  0  0  0  0  0  0  0  0  0  0  0
    6.1181   -0.1004    0.0000 H   0  0  0  0  0  0  0  0  0  0  0  0
    5.7196   -0.7907    0.0000 H   0  0  0  0  0  0  0  0  0  0  0  0
    7.4082   -0.7656    0.0000 H   0  0  0  0  0  0  0  0  0  0  0  0
    7.8067   -0.0754    0.0000 H   0  0  0  0  0  0  0  0  0  0  0  0
    6.8671   -6.3730    0.0000 H   0  0  0  0  0  0  0  0  0  0  0  0
    6.9841    1.3996    0.0000 H   0  0  0  0  0  0  0  0  0  0  0  0
    6.5856    0.7093    0.0000 H   0  0  0  0  0  0  0  0  0  0  0  0
    4.0611   -7.9930    0.0000 H   0  0  0  0  0  0  0  0  0  0  0  0
    6.8671   -7.9930    0.0000 H   0  0  0  0  0  0  0  0  0  0  0  0
    5.4641   -8.8030    0.0000 H   0  0  0  0  0  0  0  0  0  0  0  0
    4.2690   -4.8730    0.0000 H   0  0  0  0  0  0  0  0  0  0  0  0
    2.8660   -7.3030    0.0000 H   0  0  0  0  0  0  0  0  0  0  0  0
    7.5252    2.6270    0.0000 H   0  0  0  0  0  0  0  0  0  0  0  0
    2.8660   -4.0630    0.0000 H   0  0  0  0  0  0  0  0  0  0  0  0
    1.4631   -6.4930    0.0000 H   0  0  0  0  0  0  0  0  0  0  0  0
    9.1403    2.2344    0.0000 H   0  0  0  0  0  0  0  0  0  0  0  0
    9.5388    2.9247    0.0000 H   0  0  0  0  0  0  0  0  0  0  0  0
    1.4631   -4.8730    0.0000 H   0  0  0  0  0  0  0  0  0  0  0  0
   10.3312    4.0070    0.0000 H   0  0  0  0  0  0  0  0  0  0  0  0
    7.5252    4.0070    0.0000 H   0  0  0  0  0  0  0  0  0  0  0  0
   10.3312    5.6270    0.0000 H   0  0  0  0  0  0  0  0  0  0  0  0
    7.5252    5.6270    0.0000 H   0  0  0  0  0  0  0  0  0  0  0  0
   10.9703    7.2800    0.0000 H   0  0  0  0  0  0  0  0  0  0  0  0
   11.1972    8.1270    0.0000 H   0  0  0  0  0  0  0  0  0  0  0  0
   10.3503    8.3539    0.0000 H   0  0  0  0  0  0  0  0  0  0  0  0
  1  3  1  0  0  0  0
  1  4  2  0  0  0  0
  1  5  2  0  0  0  0
  1 38  1  0  0  0  0
  2 25  2  0  0  0  0
  3 37  1  0  0  0  0
  6  9  1  0  0  0  0
  6 10  1  0  0  0  0
  6 13  1  0  0  0  0
  7 11  1  0  0  0  0
  7 12  1  0  0  0  0
  7 15  1  0  0  0  0
  8 25  1  0  0  0  0
  8 30  1  0  0  0  0
  8 63  1  0  0  0  0
  9 11  1  0  0  0  0
  9 39  1  0  0  0  0
  9 40  1  0  0  0  0
 10 12  1  0  0  0  0
 10 41  1  0  0  0  0
 10 42  1  0  0  0  0
 11 43  1  0  0  0  0
 11 44  1  0  0  0  0
 12 45  1  0  0  0  0
 12 46  1  0  0  0  0
 13 14  1  0  0  0  0
 13 47  1  0  0  0  0
 13 48  1  0  0  0  0
 14 16  1  0  0  0  0
 14 49  1  0  0  0  0
 14 50  1  0  0  0  0
 15 18  1  0  0  0  0
 15 19  2  0  0  0  0
 16 17  1  0  0  0  0
 16 51  1  0  0  0  0
 16 52  1  0  0  0  0
 17 20  1  0  0  0  0
 17 53  1  0  0  0  0
 17 54  1  0  0  0  0
 18 21  2  0  0  0  0
 18 22  1  0  0  0  0
 19 23  1  0  0  0  0
 19 55  1  0  0  0  0
 20 25  1  0  0  0  0
 20 56  1  0  0  0  0
 20 57  1  0  0  0  0
 21 24  1  0  0  0  0
 21 58  1  0  0  0  0
 22 26  2  0  0  0  0
 22 27  1  0  0  0  0
 23 24  2  0  0  0  0
 23 59  1  0  0  0  0
 24 60  1  0  0  0  0
 26 28  1  0  0  0  0
 26 61  1  0  0  0  0
 27 29  2  0  0  0  0
 27 62  1  0  0  0  0
 28 31  2  0  0  0  0
 28 64  1  0  0  0  0
 29 31  1  0  0  0  0
 29 65  1  0  0  0  0
 30 32  1  0  0  0  0
 30 66  1  0  0  0  0
 30 67  1  0  0  0  0
 31 68  1  0  0  0  0
 32 33  2  0  0  0  0
 32 34  1  0  0  0  0
 33 35  1  0  0  0  0
 33 69  1  0  0  0  0
 34 36  2  0  0  0  0
 34 70  1  0  0  0  0
 35 37  2  0  0  0  0
 35 71  1  0  0  0  0
 36 37  1  0  0  0  0
 36 72  1  0  0  0  0
 38 73  1  0  0  0  0
 38 74  1  0  0  0  0
 38 75  1  0  0  0  0
M  END
> <PUBCHEM_COMPOUND_CID>
25107718

> <PUBCHEM_COMPOUND_CANONICALIZED>
1

> <PUBCHEM_CACTVS_COMPLEXITY>
795

> <PUBCHEM_CACTVS_HBOND_ACCEPTOR>
6

> <PUBCHEM_CACTVS_HBOND_DONOR>
1

> <PUBCHEM_CACTVS_ROTATABLE_BOND>
12

> <PUBCHEM_CACTVS_SUBSKEYS>
AAADcfB7OABAAAAAAAAAAAAAAAAAAAAAAAA8YMEAAAAAAAABUAAAHgQQAAAADAzBmASyxoPAAAKIAiVSUHCCAAAhIgAIiIEObIgIZjLAkZOUMAhk1hHIyAeY2MIOoAAAAAACAABAAAAAAAQAAAAAAAAAAA==

> <PUBCHEM_IUPAC_OPENEYE_NAME>
[4-[[6-[4-(2-phenylphenyl)piperazin-1-yl]hexanoylamino]methyl]phenyl] methanesulfonate

> <PUBCHEM_IUPAC_CAS_NAME>
methanesulfonic acid [4-[[[1-oxo-6-[4-(2-phenylphenyl)-1-piperazinyl]hexyl]amino]methyl]phenyl] ester

> <PUBCHEM_IUPAC_NAME_MARKUP>
[4-[[6-[4-(2-phenylphenyl)piperazin-1-yl]hexanoylamino]methyl]phenyl] methanesulfonate

> <PUBCHEM_IUPAC_NAME>
[4-[[6-[4-(2-phenylphenyl)piperazin-1-yl]hexanoylamino]methyl]phenyl] methanesulfonate

> <PUBCHEM_IUPAC_SYSTEMATIC_NAME>
[4-[[6-[4-(2-phenylphenyl)piperazin-1-yl]hexanoylamino]methyl]phenyl] methanesulfonate

> <PUBCHEM_IUPAC_TRADITIONAL_NAME>
methanesulfonic acid [4-[[6-[4-(2-phenylphenyl)piperazino]hexanoylamino]methyl]phenyl] ester

> <PUBCHEM_IUPAC_INCHI>
InChI=1S/C30H37N3O4S/c1-38(35,36)37-27-17-15-25(16-18-27)24-31-30(34)14-6-3-9-19-32-20-22-33(23-21-32)29-13-8-7-12-28(29)26-10-4-2-5-11-26/h2,4-5,7-8,10-13,15-18H,3,6,9,14,19-24H2,1H3,(H,31,34)

> <PUBCHEM_IUPAC_INCHIKEY>
SAUWQAUYYQRKAV-UHFFFAOYSA-N

> <PUBCHEM_XLOGP3_AA>
4.8

> <PUBCHEM_EXACT_MASS>
535.25047784

> <PUBCHEM_MOLECULAR_FORMULA>
C30H37N3O4S

> <PUBCHEM_MOLECULAR_WEIGHT>
535.7

> <PUBCHEM_OPENEYE_CAN_SMILES>
CS(=O)(=O)OC1=CC=C(C=C1)CNC(=O)CCCCCN2CCN(CC2)C3=CC=CC=C3C4=CC=CC=C4

> <PUBCHEM_OPENEYE_ISO_SMILES>
CS(=O)(=O)OC1=CC=C(C=C1)CNC(=O)CCCCCN2CCN(CC2)C3=CC=CC=C3C4=CC=CC=C4

> <PUBCHEM_CACTVS_TPSA>
87.3

> <PUBCHEM_MONOISOTOPIC_WEIGHT>
535.25047784

> <PUBCHEM_TOTAL_CHARGE>
0

> <PUBCHEM_HEAVY_ATOM_COUNT>
38

> <PUBCHEM_ATOM_DEF_STEREO_COUNT>
0

> <PUBCHEM_ATOM_UDEF_STEREO_COUNT>
0

> <PUBCHEM_BOND_DEF_STEREO_COUNT>
0

> <PUBCHEM_BOND_UDEF_STEREO_COUNT>
0

> <PUBCHEM_ISOTOPIC_ATOM_COUNT>
0

> <PUBCHEM_COMPONENT_COUNT>
1

> <PUBCHEM_CACTVS_TAUTO_COUNT>
-1

> <PUBCHEM_COORDINATE_TYPE>
1
5
255

> <PUBCHEM_BONDANNOTATIONS>
15  18  8
15  19  8
18  21  8
19  23  8
21  24  8
22  26  8
22  27  8
23  24  8
26  28  8
27  29  8
28  31  8
29  31  8
32  33  8
32  34  8
33  35  8
34  36  8
35  37  8
36  37  8

$$$$
