44401042
  -OEChem-09292322102D

 43 46  0     1  0  0  0  0  0999 V2000
    8.4903   -0.8155    0.0000 Cl  0  0  0  0  0  0  0  0  0  0  0  0
    4.9727   -1.1303    0.0000 O   0  0  0  0  0  0  0  0  0  0  0  0
    5.6087    2.0451    0.0000 O   0  0  0  0  0  0  0  0  0  0  0  0
    2.5633   -2.2827    0.0000 N   0  0  0  0  0  0  0  0  0  0  0  0
    4.2077    0.2883    0.0000 C   0  0  3  0  0  0  0  0  0  0  0  0
    5.1087   -0.1456    0.0000 C   0  0  1  0  0  0  0  0  0  0  0  0
    3.5226   -0.4320    0.0000 C   0  0  0  0  0  0  0  0  0  0  0  0
    3.9944   -1.3070    0.0000 C   0  0  1  0  0  0  0  0  0  0  0  0
    3.9852    1.2632    0.0000 C   0  0  0  0  0  0  0  0  0  0  0  0
    3.5605   -2.2079    0.0000 C   0  0  0  0  0  0  0  0  0  0  0  0
    6.0096    0.2883    0.0000 C   0  0  0  0  0  0  0  0  0  0  0  0
    4.6087    2.0451    0.0000 C   0  0  0  0  0  0  0  0  0  0  0  0
    6.2322    1.2632    0.0000 C   0  0  0  0  0  0  0  0  0  0  0  0
    2.9529    1.4026    0.0000 C   0  0  0  0  0  0  0  0  0  0  0  0
    6.7622   -0.4319    0.0000 C   0  0  0  0  0  0  0  0  0  0  0  0
    4.2431    3.0204    0.0000 C   0  0  0  0  0  0  0  0  0  0  0  0
    7.2226    1.5856    0.0000 C   0  0  0  0  0  0  0  0  0  0  0  0
    2.5649    2.3692    0.0000 C   0  0  0  0  0  0  0  0  0  0  0  0
    2.1294   -3.1836    0.0000 C   0  0  0  0  0  0  0  0  0  0  0  0
    2.0000   -1.4564    0.0000 C   0  0  0  0  0  0  0  0  0  0  0  0
    7.7599   -0.1325    0.0000 C   0  0  0  0  0  0  0  0  0  0  0  0
    3.2143    3.1836    0.0000 C   0  0  0  0  0  0  0  0  0  0  0  0
    7.9917    0.8830    0.0000 C   0  0  0  0  0  0  0  0  0  0  0  0
    3.6098    0.4525    0.0000 H   0  0  0  0  0  0  0  0  0  0  0  0
    5.7957   -0.6461    0.0000 H   0  0  0  0  0  0  0  0  0  0  0  0
    3.1207    0.0402    0.0000 H   0  0  0  0  0  0  0  0  0  0  0  0
    3.0108   -0.7820    0.0000 H   0  0  0  0  0  0  0  0  0  0  0  0
    4.3698   -1.8004    0.0000 H   0  0  0  0  0  0  0  0  0  0  0  0
    3.4988   -2.8248    0.0000 H   0  0  0  0  0  0  0  0  0  0  0  0
    4.1574   -2.3758    0.0000 H   0  0  0  0  0  0  0  0  0  0  0  0
    2.5720    0.9134    0.0000 H   0  0  0  0  0  0  0  0  0  0  0  0
    6.6172   -1.0347    0.0000 H   0  0  0  0  0  0  0  0  0  0  0  0
    4.6352    3.5007    0.0000 H   0  0  0  0  0  0  0  0  0  0  0  0
    7.3536    2.1916    0.0000 H   0  0  0  0  0  0  0  0  0  0  0  0
    1.9515    2.4593    0.0000 H   0  0  0  0  0  0  0  0  0  0  0  0
    1.5708   -2.9146    0.0000 H   0  0  0  0  0  0  0  0  0  0  0  0
    1.8604   -3.7422    0.0000 H   0  0  0  0  0  0  0  0  0  0  0  0
    2.6880   -3.4526    0.0000 H   0  0  0  0  0  0  0  0  0  0  0  0
    2.5123   -1.1072    0.0000 H   0  0  0  0  0  0  0  0  0  0  0  0
    1.6507   -0.9442    0.0000 H   0  0  0  0  0  0  0  0  0  0  0  0
    1.4877   -1.8057    0.0000 H   0  0  0  0  0  0  0  0  0  0  0  0
    2.9900    3.7616    0.0000 H   0  0  0  0  0  0  0  0  0  0  0  0
    8.5834    1.0680    0.0000 H   0  0  0  0  0  0  0  0  0  0  0  0
  1 21  1  0  0  0  0
  2  6  1  0  0  0  0
  2  8  1  0  0  0  0
  3 12  1  0  0  0  0
  3 13  1  0  0  0  0
  4 10  1  0  0  0  0
  4 19  1  0  0  0  0
  4 20  1  0  0  0  0
  5  6  1  0  0  0  0
  5  7  1  0  0  0  0
  5  9  1  0  0  0  0
  5 24  1  0  0  0  0
  6 11  1  0  0  0  0
  6 25  1  6  0  0  0
  7  8  1  0  0  0  0
  7 26  1  0  0  0  0
  7 27  1  0  0  0  0
  8 10  1  6  0  0  0
  8 28  1  0  0  0  0
  9 12  1  0  0  0  0
  9 14  2  0  0  0  0
 10 29  1  0  0  0  0
 10 30  1  0  0  0  0
 11 13  2  0  0  0  0
 11 15  1  0  0  0  0
 12 16  2  0  0  0  0
 13 17  1  0  0  0  0
 14 18  1  0  0  0  0
 14 31  1  0  0  0  0
 15 21  2  0  0  0  0
 15 32  1  0  0  0  0
 16 22  1  0  0  0  0
 16 33  1  0  0  0  0
 17 23  2  0  0  0  0
 17 34  1  0  0  0  0
 18 22  2  0  0  0  0
 18 35  1  0  0  0  0
 19 36  1  0  0  0  0
 19 37  1  0  0  0  0
 19 38  1  0  0  0  0
 20 39  1  0  0  0  0
 20 40  1  0  0  0  0
 20 41  1  0  0  0  0
 21 23  1  0  0  0  0
 22 42  1  0  0  0  0
 23 43  1  0  0  0  0
M  END
> <PUBCHEM_COMPOUND_CID>
44401042

> <PUBCHEM_COMPOUND_CANONICALIZED>
1

> <PUBCHEM_CACTVS_COMPLEXITY>
418

> <PUBCHEM_CACTVS_HBOND_ACCEPTOR>
3

> <PUBCHEM_CACTVS_HBOND_DONOR>
0

> <PUBCHEM_CACTVS_ROTATABLE_BOND>
2

> <PUBCHEM_CACTVS_SUBSKEYS>
AAADceB6MAAEAAAAAAAAAAAAAAAAASAAAAAwYAAABIAAAACRQAAAHgIAAAAADRbhmCYyBoMABACAAiBCAAACCAAgJQAIiAAOCogOJyKFsxqHOCClwBEYqAfQ8P4OgCAAIAAIAAAAQABAABAAAAAAAAAAAA==

> <PUBCHEM_IUPAC_OPENEYE_NAME>
1-[(2S,4S)-17-chloro-3,13-dioxatetracyclo[12.4.0.02,6.07,12]octadeca-1(14),7,9,11,15,17-hexaen-4-yl]-N,N-dimethyl-methanamine

> <PUBCHEM_IUPAC_CAS_NAME>
1-[(2S,4S)-17-chloro-3,13-dioxatetracyclo[12.4.0.02,6.07,12]octadeca-1(14),7,9,11,15,17-hexaen-4-yl]-N,N-dimethylmethanamine

> <PUBCHEM_IUPAC_NAME_MARKUP>
1-[(2<I>S</I>,4<I>S</I>)-17-chloro-3,13-dioxatetracyclo[12.4.0.0<SUP>2,6</SUP>.0<SUP>7,12</SUP>]octadeca-1(14),7,9,11,15,17-hexaen-4-yl]-<I>N</I>,<I>N</I>-dimethylmethanamine

> <PUBCHEM_IUPAC_NAME>
1-[(2S,4S)-17-chloro-3,13-dioxatetracyclo[12.4.0.02,6.07,12]octadeca-1(14),7,9,11,15,17-hexaen-4-yl]-N,N-dimethylmethanamine

> <PUBCHEM_IUPAC_SYSTEMATIC_NAME>
1-[(2S,4S)-17-chloranyl-3,13-dioxatetracyclo[12.4.0.02,6.07,12]octadeca-1(14),7,9,11,15,17-hexaen-4-yl]-N,N-dimethyl-methanamine

> <PUBCHEM_IUPAC_TRADITIONAL_NAME>
[(2S,4S)-17-chloro-3,13-dioxatetracyclo[12.4.0.02,6.07,12]octadeca-1(14),7,9,11,15,17-hexaen-4-yl]methyl-dimethyl-amine

> <PUBCHEM_IUPAC_INCHI>
InChI=1S/C19H20ClNO2/c1-21(2)11-13-10-15-14-5-3-4-6-17(14)23-18-8-7-12(20)9-16(18)19(15)22-13/h3-9,13,15,19H,10-11H2,1-2H3/t13-,15?,19-/m0/s1

> <PUBCHEM_IUPAC_INCHIKEY>
RHPCETHLGGFAQB-SHZHJNINSA-N

> <PUBCHEM_XLOGP3_AA>
3.8

> <PUBCHEM_EXACT_MASS>
329.1182566

> <PUBCHEM_MOLECULAR_FORMULA>
C19H20ClNO2

> <PUBCHEM_MOLECULAR_WEIGHT>
329.8

> <PUBCHEM_OPENEYE_CAN_SMILES>
CN(C)CC1CC2C(O1)C3=C(C=CC(=C3)Cl)OC4=CC=CC=C24

> <PUBCHEM_OPENEYE_ISO_SMILES>
CN(C)C[C@@H]1CC2[C@H](O1)C3=C(C=CC(=C3)Cl)OC4=CC=CC=C24

> <PUBCHEM_CACTVS_TPSA>
21.7

> <PUBCHEM_MONOISOTOPIC_WEIGHT>
329.1182566

> <PUBCHEM_TOTAL_CHARGE>
0

> <PUBCHEM_HEAVY_ATOM_COUNT>
23

> <PUBCHEM_ATOM_DEF_STEREO_COUNT>
2

> <PUBCHEM_ATOM_UDEF_STEREO_COUNT>
1

> <PUBCHEM_BOND_DEF_STEREO_COUNT>
0

> <PUBCHEM_BOND_UDEF_STEREO_COUNT>
0

> <PUBCHEM_ISOTOPIC_ATOM_COUNT>
0

> <PUBCHEM_COMPONENT_COUNT>
1

> <PUBCHEM_CACTVS_TAUTO_COUNT>
-1

> <PUBCHEM_COORDINATE_TYPE>
1
5
255

> <PUBCHEM_BONDANNOTATIONS>
11  13  8
11  15  8
12  16  8
13  17  8
14  18  8
15  21  8
16  22  8
17  23  8
18  22  8
21  23  8
5  7  3
6  25  6
8  10  6
9  12  8
9  14  8

$$$$
