56597938
  -OEChem-09292321592D

 60 63  0     1  0  0  0  0  0999 V2000
    4.1178    1.6950    0.0000 Cl  0  0  0  0  0  0  0  0  0  0  0  0
    2.1228    1.8368    0.0000 Cl  0  0  0  0  0  0  0  0  0  0  0  0
   11.4742   -1.2409    0.0000 O   0  0  0  0  0  0  0  0  0  0  0  0
   16.7363   -1.2168    0.0000 O   0  0  0  0  0  0  0  0  0  0  0  0
    7.1421   -0.7576    0.0000 N   0  0  3  0  0  0  0  0  0  0  0  0
    4.9924   -0.1036    0.0000 N   0  0  3  0  0  0  0  0  0  0  0  0
   15.0043   -1.2168    0.0000 N   0  0  0  0  0  0  0  0  0  0  0  0
    7.2130    0.2399    0.0000 C   0  0  0  0  0  0  0  0  0  0  0  0
    6.3181   -1.3241    0.0000 C   0  0  0  0  0  0  0  0  0  0  0  0
    6.4774    0.9172    0.0000 C   0  0  0  0  0  0  0  0  0  0  0  0
    5.3614   -1.0330    0.0000 C   0  0  0  0  0  0  0  0  0  0  0  0
    5.4891    0.7644    0.0000 C   0  0  0  0  0  0  0  0  0  0  0  0
    8.0101   -1.2543    0.0000 C   0  0  0  0  0  0  0  0  0  0  0  0
    8.8742   -0.7509    0.0000 C   0  0  0  0  0  0  0  0  0  0  0  0
    9.7421   -1.2476    0.0000 C   0  0  0  0  0  0  0  0  0  0  0  0
    3.9950   -0.0327    0.0000 C   0  0  0  0  0  0  0  0  0  0  0  0
   10.6062   -0.7443    0.0000 C   0  0  0  0  0  0  0  0  0  0  0  0
    3.5576    0.8666    0.0000 C   0  0  0  0  0  0  0  0  0  0  0  0
    3.4348   -0.8611    0.0000 C   0  0  0  0  0  0  0  0  0  0  0  0
   14.1383    0.2832    0.0000 C   0  0  0  0  0  0  0  0  0  0  0  0
   15.0043    0.7832    0.0000 C   0  0  0  0  0  0  0  0  0  0  0  0
   14.1383   -0.7168    0.0000 C   0  0  0  0  0  0  0  0  0  0  0  0
   12.3383   -0.7376    0.0000 C   0  0  0  0  0  0  0  0  0  0  0  0
    2.5601    0.9375    0.0000 C   0  0  0  0  0  0  0  0  0  0  0  0
    2.4374   -0.7902    0.0000 C   0  0  0  0  0  0  0  0  0  0  0  0
   15.8703    0.2832    0.0000 C   0  0  0  0  0  0  0  0  0  0  0  0
   13.2443   -1.2514    0.0000 C   0  0  0  0  0  0  0  0  0  0  0  0
    2.0000    0.1091    0.0000 C   0  0  0  0  0  0  0  0  0  0  0  0
   13.2443    0.8179    0.0000 C   0  0  0  0  0  0  0  0  0  0  0  0
   12.3383    0.3040    0.0000 C   0  0  0  0  0  0  0  0  0  0  0  0
   15.8703   -0.7168    0.0000 C   0  0  0  0  0  0  0  0  0  0  0  0
    7.8062    0.0594    0.0000 H   0  0  0  0  0  0  0  0  0  0  0  0
    7.5210    0.7780    0.0000 H   0  0  0  0  0  0  0  0  0  0  0  0
    6.0102   -1.8622    0.0000 H   0  0  0  0  0  0  0  0  0  0  0  0
    6.7742   -1.7441    0.0000 H   0  0  0  0  0  0  0  0  0  0  0  0
    6.9883    1.2684    0.0000 H   0  0  0  0  0  0  0  0  0  0  0  0
    6.2486    1.4935    0.0000 H   0  0  0  0  0  0  0  0  0  0  0  0
    4.7487   -1.1278    0.0000 H   0  0  0  0  0  0  0  0  0  0  0  0
    5.3174   -1.6515    0.0000 H   0  0  0  0  0  0  0  0  0  0  0  0
    5.5331    1.3828    0.0000 H   0  0  0  0  0  0  0  0  0  0  0  0
    4.8960    0.9448    0.0000 H   0  0  0  0  0  0  0  0  0  0  0  0
    7.6134   -1.7308    0.0000 H   0  0  0  0  0  0  0  0  0  0  0  0
    8.4105   -1.7277    0.0000 H   0  0  0  0  0  0  0  0  0  0  0  0
    9.2709   -0.2745    0.0000 H   0  0  0  0  0  0  0  0  0  0  0  0
    8.4738   -0.2775    0.0000 H   0  0  0  0  0  0  0  0  0  0  0  0
    9.3454   -1.7241    0.0000 H   0  0  0  0  0  0  0  0  0  0  0  0
   10.1425   -1.7210    0.0000 H   0  0  0  0  0  0  0  0  0  0  0  0
   11.0029   -0.2678    0.0000 H   0  0  0  0  0  0  0  0  0  0  0  0
   10.2059   -0.2709    0.0000 H   0  0  0  0  0  0  0  0  0  0  0  0
    3.7060   -1.4187    0.0000 H   0  0  0  0  0  0  0  0  0  0  0  0
   15.4028    1.2582    0.0000 H   0  0  0  0  0  0  0  0  0  0  0  0
   14.6058    1.2582    0.0000 H   0  0  0  0  0  0  0  0  0  0  0  0
    2.0901   -1.3038    0.0000 H   0  0  0  0  0  0  0  0  0  0  0  0
   16.4809    0.1756    0.0000 H   0  0  0  0  0  0  0  0  0  0  0  0
   16.0824    0.8658    0.0000 H   0  0  0  0  0  0  0  0  0  0  0  0
   13.2515   -1.8714    0.0000 H   0  0  0  0  0  0  0  0  0  0  0  0
    1.3816    0.1530    0.0000 H   0  0  0  0  0  0  0  0  0  0  0  0
   13.2515    1.4378    0.0000 H   0  0  0  0  0  0  0  0  0  0  0  0
   11.8025    0.6161    0.0000 H   0  0  0  0  0  0  0  0  0  0  0  0
   15.0043   -1.8368    0.0000 H   0  0  0  0  0  0  0  0  0  0  0  0
  1 18  1  0  0  0  0
  2 24  1  0  0  0  0
  3 17  1  0  0  0  0
  3 23  1  0  0  0  0
  4 31  2  0  0  0  0
  5  8  1  0  0  0  0
  5  9  1  0  0  0  0
  5 13  1  0  0  0  0
  6 11  1  0  0  0  0
  6 12  1  0  0  0  0
  6 16  1  0  0  0  0
  7 22  1  0  0  0  0
  7 31  1  0  0  0  0
  7 60  1  0  0  0  0
  8 10  1  0  0  0  0
  8 32  1  0  0  0  0
  8 33  1  0  0  0  0
  9 11  1  0  0  0  0
  9 34  1  0  0  0  0
  9 35  1  0  0  0  0
 10 12  1  0  0  0  0
 10 36  1  0  0  0  0
 10 37  1  0  0  0  0
 11 38  1  0  0  0  0
 11 39  1  0  0  0  0
 12 40  1  0  0  0  0
 12 41  1  0  0  0  0
 13 14  1  0  0  0  0
 13 42  1  0  0  0  0
 13 43  1  0  0  0  0
 14 15  1  0  0  0  0
 14 44  1  0  0  0  0
 14 45  1  0  0  0  0
 15 17  1  0  0  0  0
 15 46  1  0  0  0  0
 15 47  1  0  0  0  0
 16 18  2  0  0  0  0
 16 19  1  0  0  0  0
 17 48  1  0  0  0  0
 17 49  1  0  0  0  0
 18 24  1  0  0  0  0
 19 25  2  0  0  0  0
 19 50  1  0  0  0  0
 20 21  1  0  0  0  0
 20 22  2  0  0  0  0
 20 29  1  0  0  0  0
 21 26  1  0  0  0  0
 21 51  1  0  0  0  0
 21 52  1  0  0  0  0
 22 27  1  0  0  0  0
 23 27  2  0  0  0  0
 23 30  1  0  0  0  0
 24 28  2  0  0  0  0
 25 28  1  0  0  0  0
 25 53  1  0  0  0  0
 26 31  1  0  0  0  0
 26 54  1  0  0  0  0
 26 55  1  0  0  0  0
 27 56  1  0  0  0  0
 28 57  1  0  0  0  0
 29 30  2  0  0  0  0
 29 58  1  0  0  0  0
 30 59  1  0  0  0  0
M  END
> <PUBCHEM_COMPOUND_CID>
56597938

> <PUBCHEM_COMPOUND_CANONICALIZED>
1

> <PUBCHEM_CACTVS_COMPLEXITY>
581

> <PUBCHEM_CACTVS_HBOND_ACCEPTOR>
4

> <PUBCHEM_CACTVS_HBOND_DONOR>
1

> <PUBCHEM_CACTVS_ROTATABLE_BOND>
7

> <PUBCHEM_CACTVS_SUBSKEYS>
AAADceB7MAAGAAAAAAAAAAAAAAAAAAAAAAA8YIAABYAAAACxQAAAHgIQAAAADA7hmCYwxoPABACIAiVSUACCCAAhJwAIikEObogMZjLF85vWOCjm1BnI6Ae42aOeIAAAAgICABRAAAAEBAQAKAAAAAAAAA==

> <PUBCHEM_IUPAC_OPENEYE_NAME>
7-[4-[4-(2,3-dichlorophenyl)-1,4-diazepan-1-yl]butoxy]-3,4-dihydro-1H-quinolin-2-one

> <PUBCHEM_IUPAC_CAS_NAME>
7-[4-[4-(2,3-dichlorophenyl)-1,4-diazepan-1-yl]butoxy]-3,4-dihydro-1H-quinolin-2-one

> <PUBCHEM_IUPAC_NAME_MARKUP>
7-[4-[4-(2,3-dichlorophenyl)-1,4-diazepan-1-yl]butoxy]-3,4-dihydro-1<I>H</I>-quinolin-2-one

> <PUBCHEM_IUPAC_NAME>
7-[4-[4-(2,3-dichlorophenyl)-1,4-diazepan-1-yl]butoxy]-3,4-dihydro-1H-quinolin-2-one

> <PUBCHEM_IUPAC_SYSTEMATIC_NAME>
7-[4-[4-[2,3-bis(chloranyl)phenyl]-1,4-diazepan-1-yl]butoxy]-3,4-dihydro-1H-quinolin-2-one

> <PUBCHEM_IUPAC_TRADITIONAL_NAME>
7-[4-[4-(2,3-dichlorophenyl)-1,4-diazepan-1-yl]butoxy]-3,4-dihydrocarbostyril

> <PUBCHEM_IUPAC_INCHI>
InChI=1S/C24H29Cl2N3O2/c25-20-5-3-6-22(24(20)26)29-13-4-12-28(14-15-29)11-1-2-16-31-19-9-7-18-8-10-23(30)27-21(18)17-19/h3,5-7,9,17H,1-2,4,8,10-16H2,(H,27,30)

> <PUBCHEM_IUPAC_INCHIKEY>
NGCKUAWDNUFNBB-UHFFFAOYSA-N

> <PUBCHEM_XLOGP3_AA>
5

> <PUBCHEM_EXACT_MASS>
461.1636826

> <PUBCHEM_MOLECULAR_FORMULA>
C24H29Cl2N3O2

> <PUBCHEM_MOLECULAR_WEIGHT>
462.4

> <PUBCHEM_OPENEYE_CAN_SMILES>
C1CN(CCN(C1)C2=C(C(=CC=C2)Cl)Cl)CCCCOC3=CC4=C(CCC(=O)N4)C=C3

> <PUBCHEM_OPENEYE_ISO_SMILES>
C1CN(CCN(C1)C2=C(C(=CC=C2)Cl)Cl)CCCCOC3=CC4=C(CCC(=O)N4)C=C3

> <PUBCHEM_CACTVS_TPSA>
44.8

> <PUBCHEM_MONOISOTOPIC_WEIGHT>
461.1636826

> <PUBCHEM_TOTAL_CHARGE>
0

> <PUBCHEM_HEAVY_ATOM_COUNT>
31

> <PUBCHEM_ATOM_DEF_STEREO_COUNT>
0

> <PUBCHEM_ATOM_UDEF_STEREO_COUNT>
0

> <PUBCHEM_BOND_DEF_STEREO_COUNT>
0

> <PUBCHEM_BOND_UDEF_STEREO_COUNT>
0

> <PUBCHEM_ISOTOPIC_ATOM_COUNT>
0

> <PUBCHEM_COMPONENT_COUNT>
1

> <PUBCHEM_CACTVS_TAUTO_COUNT>
-1

> <PUBCHEM_COORDINATE_TYPE>
1
5
255

> <PUBCHEM_BONDANNOTATIONS>
16  18  8
16  19  8
18  24  8
19  25  8
20  22  8
20  29  8
22  27  8
23  27  8
23  30  8
24  28  8
25  28  8
29  30  8

$$$$
