44350875
  -OEChem-09292322122D

 73 75  0     0  0  0  0  0  0999 V2000
    3.1350    4.1546    0.0000 O   0  0  0  0  0  0  0  0  0  0  0  0
   10.0632    2.1546    0.0000 O   0  0  0  0  0  0  0  0  0  0  0  0
    6.6325    9.2850    0.0000 O   0  0  0  0  0  0  0  0  0  0  0  0
    9.2306    8.7850    0.0000 O   0  0  0  0  0  0  0  0  0  0  0  0
    7.4985    7.7850    0.0000 O   0  0  0  0  0  0  0  0  0  0  0  0
    8.3645   10.2850    0.0000 O   0  0  0  0  0  0  0  0  0  0  0  0
    4.8671    1.1546    0.0000 N   0  0  0  0  0  0  0  0  0  0  0  0
    3.1350    2.1546    0.0000 N   0  0  0  0  0  0  0  0  0  0  0  0
    9.1972    0.6546    0.0000 N   0  0  0  0  0  0  0  0  0  0  0  0
    4.0010    0.6546    0.0000 C   0  0  0  0  0  0  0  0  0  0  0  0
    4.8671    2.1546    0.0000 C   0  0  0  0  0  0  0  0  0  0  0  0
    3.1350    1.1546    0.0000 C   0  0  0  0  0  0  0  0  0  0  0  0
    4.0010    2.6546    0.0000 C   0  0  0  0  0  0  0  0  0  0  0  0
    5.7331    0.6546    0.0000 C   0  0  0  0  0  0  0  0  0  0  0  0
    6.5991    1.1546    0.0000 C   0  0  0  0  0  0  0  0  0  0  0  0
    2.2690    2.6546    0.0000 C   0  0  0  0  0  0  0  0  0  0  0  0
    7.4651    0.6546    0.0000 C   0  0  0  0  0  0  0  0  0  0  0  0
    8.3312    1.1546    0.0000 C   0  0  0  0  0  0  0  0  0  0  0  0
    2.2690    3.6546    0.0000 C   0  0  0  0  0  0  0  0  0  0  0  0
    1.4030    2.1546    0.0000 C   0  0  0  0  0  0  0  0  0  0  0  0
    1.4030    4.1546    0.0000 C   0  0  0  0  0  0  0  0  0  0  0  0
    0.5369    2.6546    0.0000 C   0  0  0  0  0  0  0  0  0  0  0  0
    0.5369    3.6546    0.0000 C   0  0  0  0  0  0  0  0  0  0  0  0
   10.0632    1.1546    0.0000 C   0  0  0  0  0  0  0  0  0  0  0  0
   10.9292    0.6546    0.0000 C   0  0  0  0  0  0  0  0  0  0  0  0
   11.7953    1.1546    0.0000 C   0  0  0  0  0  0  0  0  0  0  0  0
    3.1350    5.1546    0.0000 C   0  0  0  0  0  0  0  0  0  0  0  0
   12.6613    0.6546    0.0000 C   0  0  0  0  0  0  0  0  0  0  0  0
   13.5273    1.1546    0.0000 C   0  0  0  0  0  0  0  0  0  0  0  0
   11.7953    2.1546    0.0000 C   0  0  0  0  0  0  0  0  0  0  0  0
   13.5273    2.1546    0.0000 C   0  0  0  0  0  0  0  0  0  0  0  0
   12.6613    2.6546    0.0000 C   0  0  0  0  0  0  0  0  0  0  0  0
   14.4213    0.6200    0.0000 C   0  0  0  0  0  0  0  0  0  0  0  0
   14.4213    2.6893    0.0000 C   0  0  0  0  0  0  0  0  0  0  0  0
   15.3273    1.1338    0.0000 C   0  0  0  0  0  0  0  0  0  0  0  0
   15.3273    2.1754    0.0000 C   0  0  0  0  0  0  0  0  0  0  0  0
    7.4985    8.7850    0.0000 C   0  0  0  0  0  0  0  0  0  0  0  0
    8.3645    9.2850    0.0000 C   0  0  0  0  0  0  0  0  0  0  0  0
    3.6025    0.1797    0.0000 H   0  0  0  0  0  0  0  0  0  0  0  0
    4.3996    0.1797    0.0000 H   0  0  0  0  0  0  0  0  0  0  0  0
    5.4776    2.0470    0.0000 H   0  0  0  0  0  0  0  0  0  0  0  0
    5.0791    2.7372    0.0000 H   0  0  0  0  0  0  0  0  0  0  0  0
    2.5244    1.2623    0.0000 H   0  0  0  0  0  0  0  0  0  0  0  0
    2.9230    0.5720    0.0000 H   0  0  0  0  0  0  0  0  0  0  0  0
    4.3996    3.1296    0.0000 H   0  0  0  0  0  0  0  0  0  0  0  0
    3.6025    3.1296    0.0000 H   0  0  0  0  0  0  0  0  0  0  0  0
    5.3346    0.1797    0.0000 H   0  0  0  0  0  0  0  0  0  0  0  0
    6.1316    0.1797    0.0000 H   0  0  0  0  0  0  0  0  0  0  0  0
    6.9976    1.6296    0.0000 H   0  0  0  0  0  0  0  0  0  0  0  0
    6.2006    1.6296    0.0000 H   0  0  0  0  0  0  0  0  0  0  0  0
    7.0666    0.1797    0.0000 H   0  0  0  0  0  0  0  0  0  0  0  0
    7.8637    0.1797    0.0000 H   0  0  0  0  0  0  0  0  0  0  0  0
    8.7297    1.6296    0.0000 H   0  0  0  0  0  0  0  0  0  0  0  0
    7.9326    1.6296    0.0000 H   0  0  0  0  0  0  0  0  0  0  0  0
    1.4030    1.5346    0.0000 H   0  0  0  0  0  0  0  0  0  0  0  0
    9.1972    0.0346    0.0000 H   0  0  0  0  0  0  0  0  0  0  0  0
    1.4030    4.7746    0.0000 H   0  0  0  0  0  0  0  0  0  0  0  0
    0.0000    2.3446    0.0000 H   0  0  0  0  0  0  0  0  0  0  0  0
    0.0000    3.9646    0.0000 H   0  0  0  0  0  0  0  0  0  0  0  0
   10.5307    0.1797    0.0000 H   0  0  0  0  0  0  0  0  0  0  0  0
   11.3278    0.1797    0.0000 H   0  0  0  0  0  0  0  0  0  0  0  0
    3.7550    5.1546    0.0000 H   0  0  0  0  0  0  0  0  0  0  0  0
    3.1350    5.7746    0.0000 H   0  0  0  0  0  0  0  0  0  0  0  0
    2.5150    5.1546    0.0000 H   0  0  0  0  0  0  0  0  0  0  0  0
   12.6613    0.0346    0.0000 H   0  0  0  0  0  0  0  0  0  0  0  0
   11.2583    2.4646    0.0000 H   0  0  0  0  0  0  0  0  0  0  0  0
   12.6613    3.2746    0.0000 H   0  0  0  0  0  0  0  0  0  0  0  0
   14.4141    0.0000    0.0000 H   0  0  0  0  0  0  0  0  0  0  0  0
   14.4141    3.3092    0.0000 H   0  0  0  0  0  0  0  0  0  0  0  0
   15.8631    0.8217    0.0000 H   0  0  0  0  0  0  0  0  0  0  0  0
   15.8631    2.4875    0.0000 H   0  0  0  0  0  0  0  0  0  0  0  0
    6.0956    8.9750    0.0000 H   0  0  0  0  0  0  0  0  0  0  0  0
    9.7675    9.0950    0.0000 H   0  0  0  0  0  0  0  0  0  0  0  0
  1 19  1  0  0  0  0
  1 27  1  0  0  0  0
  2 24  2  0  0  0  0
  3 37  1  0  0  0  0
  3 72  1  0  0  0  0
  4 38  1  0  0  0  0
  4 73  1  0  0  0  0
  5 37  2  0  0  0  0
  6 38  2  0  0  0  0
  7 10  1  0  0  0  0
  7 11  1  0  0  0  0
  7 14  1  0  0  0  0
  8 12  1  0  0  0  0
  8 13  1  0  0  0  0
  8 16  1  0  0  0  0
  9 18  1  0  0  0  0
  9 24  1  0  0  0  0
  9 56  1  0  0  0  0
 10 12  1  0  0  0  0
 10 39  1  0  0  0  0
 10 40  1  0  0  0  0
 11 13  1  0  0  0  0
 11 41  1  0  0  0  0
 11 42  1  0  0  0  0
 12 43  1  0  0  0  0
 12 44  1  0  0  0  0
 13 45  1  0  0  0  0
 13 46  1  0  0  0  0
 14 15  1  0  0  0  0
 14 47  1  0  0  0  0
 14 48  1  0  0  0  0
 15 17  1  0  0  0  0
 15 49  1  0  0  0  0
 15 50  1  0  0  0  0
 16 19  1  0  0  0  0
 16 20  2  0  0  0  0
 17 18  1  0  0  0  0
 17 51  1  0  0  0  0
 17 52  1  0  0  0  0
 18 53  1  0  0  0  0
 18 54  1  0  0  0  0
 19 21  2  0  0  0  0
 20 22  1  0  0  0  0
 20 55  1  0  0  0  0
 21 23  1  0  0  0  0
 21 57  1  0  0  0  0
 22 23  2  0  0  0  0
 22 58  1  0  0  0  0
 23 59  1  0  0  0  0
 24 25  1  0  0  0  0
 25 26  1  0  0  0  0
 25 60  1  0  0  0  0
 25 61  1  0  0  0  0
 26 28  2  0  0  0  0
 26 30  1  0  0  0  0
 27 62  1  0  0  0  0
 27 63  1  0  0  0  0
 27 64  1  0  0  0  0
 28 29  1  0  0  0  0
 28 65  1  0  0  0  0
 29 31  1  0  0  0  0
 29 33  2  0  0  0  0
 30 32  2  0  0  0  0
 30 66  1  0  0  0  0
 31 32  1  0  0  0  0
 31 34  2  0  0  0  0
 32 67  1  0  0  0  0
 33 35  1  0  0  0  0
 33 68  1  0  0  0  0
 34 36  1  0  0  0  0
 34 69  1  0  0  0  0
 35 36  2  0  0  0  0
 35 70  1  0  0  0  0
 36 71  1  0  0  0  0
 37 38  1  0  0  0  0
M  END
> <PUBCHEM_COMPOUND_CID>
44350875

> <PUBCHEM_COMPOUND_CANONICALIZED>
1

> <PUBCHEM_CACTVS_COMPLEXITY>
635

> <PUBCHEM_CACTVS_HBOND_ACCEPTOR>
8

> <PUBCHEM_CACTVS_HBOND_DONOR>
3

> <PUBCHEM_CACTVS_ROTATABLE_BOND>
10

> <PUBCHEM_CACTVS_SUBSKEYS>
AAADcfB7OAAAAAAAAAAAAAAAAAAAAAAAAAA8YMEAAAAAAADBVAAAHgAQCAAADAzBmAYyzsPABgCIAiXSWAKCCAAhIgAIiIFPbIgPZjLEtZuVMChk1hHZ6AeYyMCOwAACAAAQEACAAAQAACAgAAAAAAAAAA==

> <PUBCHEM_IUPAC_OPENEYE_NAME>
N-[4-[4-(2-methoxyphenyl)piperazin-1-yl]butyl]-2-(2-naphthyl)acetamide;oxalic acid

> <PUBCHEM_IUPAC_CAS_NAME>
N-[4-[4-(2-methoxyphenyl)-1-piperazinyl]butyl]-2-(2-naphthalenyl)acetamide;oxalic acid

> <PUBCHEM_IUPAC_NAME_MARKUP>
<I>N</I>-[4-[4-(2-methoxyphenyl)piperazin-1-yl]butyl]-2-naphthalen-2-ylacetamide;oxalic acid

> <PUBCHEM_IUPAC_NAME>
N-[4-[4-(2-methoxyphenyl)piperazin-1-yl]butyl]-2-naphthalen-2-ylacetamide;oxalic acid

> <PUBCHEM_IUPAC_SYSTEMATIC_NAME>
ethanedioic acid;N-[4-[4-(2-methoxyphenyl)piperazin-1-yl]butyl]-2-naphthalen-2-yl-ethanamide

> <PUBCHEM_IUPAC_TRADITIONAL_NAME>
N-[4-[4-(2-methoxyphenyl)piperazino]butyl]-2-(2-naphthyl)acetamide;oxalic acid

> <PUBCHEM_IUPAC_INCHI>
InChI=1S/C27H33N3O2.C2H2O4/c1-32-26-11-5-4-10-25(26)30-18-16-29(17-19-30)15-7-6-14-28-27(31)21-22-12-13-23-8-2-3-9-24(23)20-22;3-1(4)2(5)6/h2-5,8-13,20H,6-7,14-19,21H2,1H3,(H,28,31);(H,3,4)(H,5,6)

> <PUBCHEM_IUPAC_INCHIKEY>
WIGWGCWARGBQCH-UHFFFAOYSA-N

> <PUBCHEM_EXACT_MASS>
521.25258584

> <PUBCHEM_MOLECULAR_FORMULA>
C29H35N3O6

> <PUBCHEM_MOLECULAR_WEIGHT>
521.6

> <PUBCHEM_OPENEYE_CAN_SMILES>
COC1=CC=CC=C1N2CCN(CC2)CCCCNC(=O)CC3=CC4=CC=CC=C4C=C3.C(=O)(C(=O)O)O

> <PUBCHEM_OPENEYE_ISO_SMILES>
COC1=CC=CC=C1N2CCN(CC2)CCCCNC(=O)CC3=CC4=CC=CC=C4C=C3.C(=O)(C(=O)O)O

> <PUBCHEM_CACTVS_TPSA>
119

> <PUBCHEM_MONOISOTOPIC_WEIGHT>
521.25258584

> <PUBCHEM_TOTAL_CHARGE>
0

> <PUBCHEM_HEAVY_ATOM_COUNT>
38

> <PUBCHEM_ATOM_DEF_STEREO_COUNT>
0

> <PUBCHEM_ATOM_UDEF_STEREO_COUNT>
0

> <PUBCHEM_BOND_DEF_STEREO_COUNT>
0

> <PUBCHEM_BOND_UDEF_STEREO_COUNT>
0

> <PUBCHEM_ISOTOPIC_ATOM_COUNT>
0

> <PUBCHEM_COMPONENT_COUNT>
2

> <PUBCHEM_CACTVS_TAUTO_COUNT>
-1

> <PUBCHEM_COORDINATE_TYPE>
1
5
255

> <PUBCHEM_BONDANNOTATIONS>
16  19  8
16  20  8
19  21  8
20  22  8
21  23  8
22  23  8
26  28  8
26  30  8
28  29  8
29  31  8
29  33  8
30  32  8
31  32  8
31  34  8
33  35  8
34  36  8
35  36  8

$$$$
