45265244
  -OEChem-09292322122D

 76 79  0     1  0  0  0  0  0999 V2000
    7.6273    0.0000    0.0000 Cl  0  0  0  0  0  0  0  0  0  0  0  0
   14.8547    9.3468    0.0000 S   0  0  0  0  0  0  0  0  0  0  0  0
    0.0000    6.5906    0.0000 F   0  0  0  0  0  0  0  0  0  0  0  0
    4.5000    5.7246    0.0000 O   0  0  0  0  0  0  0  0  0  0  0  0
   15.3581    8.4828    0.0000 O   0  0  0  0  0  0  0  0  0  0  0  0
   14.3514   10.2109    0.0000 O   0  0  0  0  0  0  0  0  0  0  0  0
   10.0000    8.3227    0.0000 N   0  0  3  0  0  0  0  0  0  0  0  0
    4.5000    7.4567    0.0000 N   0  0  0  0  0  0  0  0  0  0  0  0
    0.9653    4.8307    0.0000 N   0  0  0  0  0  0  0  0  0  0  0  0
    7.5000    7.4567    0.0000 C   0  0  0  0  0  0  0  0  0  0  0  0
    7.0000    6.5906    0.0000 C   0  0  0  0  0  0  0  0  0  0  0  0
    7.0000    8.3227    0.0000 C   0  0  0  0  0  0  0  0  0  0  0  0
    5.5000    7.4567    0.0000 C   0  0  0  0  0  0  0  0  0  0  0  0
    6.0000    6.5906    0.0000 C   0  0  0  0  0  0  0  0  0  0  0  0
    6.0000    8.3227    0.0000 C   0  0  0  0  0  0  0  0  0  0  0  0
    8.5000    7.4567    0.0000 C   0  0  0  0  0  0  0  0  0  0  0  0
    9.0000    8.3227    0.0000 C   0  0  0  0  0  0  0  0  0  0  0  0
   10.4339    9.2237    0.0000 C   0  0  0  0  0  0  0  0  0  0  0  0
   10.4339    7.4217    0.0000 C   0  0  0  0  0  0  0  0  0  0  0  0
   11.4088    9.4462    0.0000 C   0  0  0  0  0  0  0  0  0  0  0  0
   11.4088    7.1992    0.0000 C   0  0  0  0  0  0  0  0  0  0  0  0
   12.1906    8.8227    0.0000 C   0  0  0  0  0  0  0  0  0  0  0  0
   12.1906    7.8227    0.0000 C   0  0  0  0  0  0  0  0  0  0  0  0
    4.0000    6.5906    0.0000 C   0  0  0  0  0  0  0  0  0  0  0  0
   13.0846    9.3574    0.0000 C   0  0  0  0  0  0  0  0  0  0  0  0
   13.0846    7.2880    0.0000 C   0  0  0  0  0  0  0  0  0  0  0  0
    3.0000    6.5906    0.0000 C   0  0  0  0  0  0  0  0  0  0  0  0
   13.9907    8.8435    0.0000 C   0  0  0  0  0  0  0  0  0  0  0  0
   13.9907    7.8019    0.0000 C   0  0  0  0  0  0  0  0  0  0  0  0
    2.5000    5.7246    0.0000 C   0  0  0  0  0  0  0  0  0  0  0  0
    2.5000    7.4567    0.0000 C   0  0  0  0  0  0  0  0  0  0  0  0
    1.5000    5.7246    0.0000 C   0  0  0  0  0  0  0  0  0  0  0  0
   15.7188    9.8502    0.0000 C   0  0  0  0  0  0  0  0  0  0  0  0
    1.5000    7.4567    0.0000 C   0  0  0  0  0  0  0  0  0  0  0  0
    3.0347    4.8307    0.0000 C   0  0  0  0  0  0  0  0  0  0  0  0
    1.0000    6.5906    0.0000 C   0  0  0  0  0  0  0  0  0  0  0  0
    2.5208    3.9246    0.0000 C   0  0  0  0  0  0  0  0  0  0  0  0
    1.4792    3.9246    0.0000 C   0  0  0  0  0  0  0  0  0  0  0  0
    0.9758    3.0605    0.0000 C   0  0  0  0  0  0  0  0  0  0  0  0
    7.8100    7.9936    0.0000 H   0  0  0  0  0  0  0  0  0  0  0  0
    6.8923    5.9801    0.0000 H   0  0  0  0  0  0  0  0  0  0  0  0
    7.5826    6.3786    0.0000 H   0  0  0  0  0  0  0  0  0  0  0  0
    7.5826    8.5348    0.0000 H   0  0  0  0  0  0  0  0  0  0  0  0
    6.8923    8.9333    0.0000 H   0  0  0  0  0  0  0  0  0  0  0  0
    5.1900    7.9936    0.0000 H   0  0  0  0  0  0  0  0  0  0  0  0
    5.4174    6.3786    0.0000 H   0  0  0  0  0  0  0  0  0  0  0  0
    6.1077    5.9801    0.0000 H   0  0  0  0  0  0  0  0  0  0  0  0
    6.1077    8.9333    0.0000 H   0  0  0  0  0  0  0  0  0  0  0  0
    5.4174    8.5348    0.0000 H   0  0  0  0  0  0  0  0  0  0  0  0
    8.3923    6.8461    0.0000 H   0  0  0  0  0  0  0  0  0  0  0  0
    9.0826    7.2446    0.0000 H   0  0  0  0  0  0  0  0  0  0  0  0
    9.1077    8.9333    0.0000 H   0  0  0  0  0  0  0  0  0  0  0  0
    8.4174    8.5348    0.0000 H   0  0  0  0  0  0  0  0  0  0  0  0
    4.1900    7.9936    0.0000 H   0  0  0  0  0  0  0  0  0  0  0  0
   10.4339    9.8437    0.0000 H   0  0  0  0  0  0  0  0  0  0  0  0
    9.8294    9.3616    0.0000 H   0  0  0  0  0  0  0  0  0  0  0  0
    9.8294    7.2838    0.0000 H   0  0  0  0  0  0  0  0  0  0  0  0
   10.4339    6.8017    0.0000 H   0  0  0  0  0  0  0  0  0  0  0  0
   11.8935    9.8328    0.0000 H   0  0  0  0  0  0  0  0  0  0  0  0
   11.1398   10.0048    0.0000 H   0  0  0  0  0  0  0  0  0  0  0  0
   11.1398    6.6406    0.0000 H   0  0  0  0  0  0  0  0  0  0  0  0
   11.8935    6.8126    0.0000 H   0  0  0  0  0  0  0  0  0  0  0  0
   13.0774    9.9773    0.0000 H   0  0  0  0  0  0  0  0  0  0  0  0
   13.0774    6.6681    0.0000 H   0  0  0  0  0  0  0  0  0  0  0  0
   14.5264    7.4898    0.0000 H   0  0  0  0  0  0  0  0  0  0  0  0
    2.8100    7.9936    0.0000 H   0  0  0  0  0  0  0  0  0  0  0  0
   16.0309    9.3144    0.0000 H   0  0  0  0  0  0  0  0  0  0  0  0
   16.2546   10.1622    0.0000 H   0  0  0  0  0  0  0  0  0  0  0  0
   15.4068   10.3859    0.0000 H   0  0  0  0  0  0  0  0  0  0  0  0
    1.1900    7.9936    0.0000 H   0  0  0  0  0  0  0  0  0  0  0  0
    3.6546    4.8379    0.0000 H   0  0  0  0  0  0  0  0  0  0  0  0
    2.8329    3.3889    0.0000 H   0  0  0  0  0  0  0  0  0  0  0  0
    0.4401    3.3726    0.0000 H   0  0  0  0  0  0  0  0  0  0  0  0
    0.6638    2.5248    0.0000 H   0  0  0  0  0  0  0  0  0  0  0  0
    1.5116    2.7484    0.0000 H   0  0  0  0  0  0  0  0  0  0  0  0
    8.6273    0.0000    0.0000 H   0  0  0  0  0  0  0  0  0  0  0  0
  1 76  1  0  0  0  0
  2  5  2  0  0  0  0
  2  6  2  0  0  0  0
  2 28  1  0  0  0  0
  2 33  1  0  0  0  0
  3 36  1  0  0  0  0
  4 24  2  0  0  0  0
  7 17  1  0  0  0  0
  7 18  1  0  0  0  0
  7 19  1  0  0  0  0
  8 13  1  0  0  0  0
  8 24  1  0  0  0  0
  8 54  1  0  0  0  0
  9 32  1  0  0  0  0
  9 38  2  0  0  0  0
 10 11  1  0  0  0  0
 10 12  1  0  0  0  0
 10 16  1  0  0  0  0
 10 40  1  0  0  0  0
 11 14  1  0  0  0  0
 11 41  1  0  0  0  0
 11 42  1  0  0  0  0
 12 15  1  0  0  0  0
 12 43  1  0  0  0  0
 12 44  1  0  0  0  0
 13 14  1  0  0  0  0
 13 15  1  0  0  0  0
 13 45  1  0  0  0  0
 14 46  1  0  0  0  0
 14 47  1  0  0  0  0
 15 48  1  0  0  0  0
 15 49  1  0  0  0  0
 16 17  1  0  0  0  0
 16 50  1  0  0  0  0
 16 51  1  0  0  0  0
 17 52  1  0  0  0  0
 17 53  1  0  0  0  0
 18 20  1  0  0  0  0
 18 55  1  0  0  0  0
 18 56  1  0  0  0  0
 19 21  1  0  0  0  0
 19 57  1  0  0  0  0
 19 58  1  0  0  0  0
 20 22  1  0  0  0  0
 20 59  1  0  0  0  0
 20 60  1  0  0  0  0
 21 23  1  0  0  0  0
 21 61  1  0  0  0  0
 21 62  1  0  0  0  0
 22 23  2  0  0  0  0
 22 25  1  0  0  0  0
 23 26  1  0  0  0  0
 24 27  1  0  0  0  0
 25 28  2  0  0  0  0
 25 63  1  0  0  0  0
 26 29  2  0  0  0  0
 26 64  1  0  0  0  0
 27 30  2  0  0  0  0
 27 31  1  0  0  0  0
 28 29  1  0  0  0  0
 29 65  1  0  0  0  0
 30 32  1  0  0  0  0
 30 35  1  0  0  0  0
 31 34  2  0  0  0  0
 31 66  1  0  0  0  0
 32 36  2  0  0  0  0
 33 67  1  0  0  0  0
 33 68  1  0  0  0  0
 33 69  1  0  0  0  0
 34 36  1  0  0  0  0
 34 70  1  0  0  0  0
 35 37  2  0  0  0  0
 35 71  1  0  0  0  0
 37 38  1  0  0  0  0
 37 72  1  0  0  0  0
 38 39  1  0  0  0  0
 39 73  1  0  0  0  0
 39 74  1  0  0  0  0
 39 75  1  0  0  0  0
M  END
> <PUBCHEM_COMPOUND_CID>
45265244

> <PUBCHEM_COMPOUND_CANONICALIZED>
1

> <PUBCHEM_CACTVS_COMPLEXITY>
903

> <PUBCHEM_CACTVS_HBOND_ACCEPTOR>
6

> <PUBCHEM_CACTVS_HBOND_DONOR>
2

> <PUBCHEM_CACTVS_ROTATABLE_BOND>
6

> <PUBCHEM_CACTVS_SUBSKEYS>
AAADcfB7MQBEAAAAAAAAAAAAAAAAAAAAAAA8YMEABYAAAACx9AAAHwQQAAAADSjB3gyywfPIEAqoAyVyVHDCgCAlCjAImLk4ZNgIIPLglZGEIQhglgDIyYcciMCOkAAAwAASAAAwAAGAACQAAAAAAAAAAA==

> <PUBCHEM_IUPAC_OPENEYE_NAME>
8-fluoro-2-methyl-N-[4-[2-(7-methylsulfonyl-1,2,4,5-tetrahydro-3-benzazepin-3-yl)ethyl]cyclohexyl]quinoline-5-carboxamide;hydrochloride

> <PUBCHEM_IUPAC_CAS_NAME>
8-fluoro-2-methyl-N-[4-[2-(7-methylsulfonyl-1,2,4,5-tetrahydro-3-benzazepin-3-yl)ethyl]cyclohexyl]-5-quinolinecarboxamide;hydrochloride

> <PUBCHEM_IUPAC_NAME_MARKUP>
8-fluoro-2-methyl-<I>N</I>-[4-[2-(7-methylsulfonyl-1,2,4,5-tetrahydro-3-benzazepin-3-yl)ethyl]cyclohexyl]quinoline-5-carboxamide;hydrochloride

> <PUBCHEM_IUPAC_NAME>
8-fluoro-2-methyl-N-[4-[2-(7-methylsulfonyl-1,2,4,5-tetrahydro-3-benzazepin-3-yl)ethyl]cyclohexyl]quinoline-5-carboxamide;hydrochloride

> <PUBCHEM_IUPAC_SYSTEMATIC_NAME>
8-fluoranyl-2-methyl-N-[4-[2-(7-methylsulfonyl-1,2,4,5-tetrahydro-3-benzazepin-3-yl)ethyl]cyclohexyl]quinoline-5-carboxamide;hydrochloride

> <PUBCHEM_IUPAC_TRADITIONAL_NAME>
8-fluoro-N-[4-[2-(7-mesyl-1,2,4,5-tetrahydro-3-benzazepin-3-yl)ethyl]cyclohexyl]-2-methyl-quinoline-5-carboxamide;hydrochloride

> <PUBCHEM_IUPAC_INCHI>
InChI=1S/C30H36FN3O3S.ClH/c1-20-3-10-26-27(11-12-28(31)29(26)32-20)30(35)33-24-7-4-21(5-8-24)13-16-34-17-14-22-6-9-25(38(2,36)37)19-23(22)15-18-34;/h3,6,9-12,19,21,24H,4-5,7-8,13-18H2,1-2H3,(H,33,35);1H

> <PUBCHEM_IUPAC_INCHIKEY>
PUBSQJWAOGDYQL-UHFFFAOYSA-N

> <PUBCHEM_EXACT_MASS>
573.2228191

> <PUBCHEM_MOLECULAR_FORMULA>
C30H37ClFN3O3S

> <PUBCHEM_MOLECULAR_WEIGHT>
574.1

> <PUBCHEM_OPENEYE_CAN_SMILES>
CC1=NC2=C(C=CC(=C2C=C1)C(=O)NC3CCC(CC3)CCN4CCC5=C(CC4)C=C(C=C5)S(=O)(=O)C)F.Cl

> <PUBCHEM_OPENEYE_ISO_SMILES>
CC1=NC2=C(C=CC(=C2C=C1)C(=O)NC3CCC(CC3)CCN4CCC5=C(CC4)C=C(C=C5)S(=O)(=O)C)F.Cl

> <PUBCHEM_CACTVS_TPSA>
87.8

> <PUBCHEM_MONOISOTOPIC_WEIGHT>
573.2228191

> <PUBCHEM_TOTAL_CHARGE>
0

> <PUBCHEM_HEAVY_ATOM_COUNT>
39

> <PUBCHEM_ATOM_DEF_STEREO_COUNT>
0

> <PUBCHEM_ATOM_UDEF_STEREO_COUNT>
0

> <PUBCHEM_BOND_DEF_STEREO_COUNT>
0

> <PUBCHEM_BOND_UDEF_STEREO_COUNT>
0

> <PUBCHEM_ISOTOPIC_ATOM_COUNT>
0

> <PUBCHEM_COMPONENT_COUNT>
2

> <PUBCHEM_CACTVS_TAUTO_COUNT>
-1

> <PUBCHEM_COORDINATE_TYPE>
1
5
255

> <PUBCHEM_BONDANNOTATIONS>
22  23  8
22  25  8
23  26  8
25  28  8
26  29  8
27  30  8
27  31  8
28  29  8
30  32  8
30  35  8
31  34  8
32  36  8
34  36  8
35  37  8
37  38  8
9  32  8
9  38  8

$$$$
