49860793
  -OEChem-09292322032D

 46 48  0     1  0  0  0  0  0999 V2000
    6.2456    5.5530    0.0000 Cl  0  0  0  0  0  0  0  0  0  0  0  0
    1.4766    5.6200    0.0000 N   0  0  0  0  0  0  0  0  0  0  0  0
    1.4766    3.6200    0.0000 N   0  0  0  0  0  0  0  0  0  0  0  0
    0.6106    2.1200    0.0000 N   0  0  0  0  0  0  0  0  0  0  0  0
    2.3426    2.1200    0.0000 N   0  0  0  0  0  0  0  0  0  0  0  0
    2.3426    7.1200    0.0000 C   0  0  2  0  0  0  0  0  0  0  0  0
    2.8426    7.9860    0.0000 C   0  0  2  0  0  0  0  0  0  0  0  0
    3.3426    7.1200    0.0000 C   0  0  0  0  0  0  0  0  0  0  0  0
    1.4766    6.6200    0.0000 C   0  0  0  0  0  0  0  0  0  0  0  0
    2.8426    8.9860    0.0000 C   0  0  0  0  0  0  0  0  0  0  0  0
    2.3426    5.1200    0.0000 C   0  0  0  0  0  0  0  0  0  0  0  0
    0.6106    5.1200    0.0000 C   0  0  0  0  0  0  0  0  0  0  0  0
    2.3426    4.1200    0.0000 C   0  0  0  0  0  0  0  0  0  0  0  0
    0.6106    4.1200    0.0000 C   0  0  0  0  0  0  0  0  0  0  0  0
    1.9766    9.4860    0.0000 C   0  0  0  0  0  0  0  0  0  0  0  0
    3.7087    9.4860    0.0000 C   0  0  0  0  0  0  0  0  0  0  0  0
    1.9766   10.4860    0.0000 C   0  0  0  0  0  0  0  0  0  0  0  0
    3.7087   10.4860    0.0000 C   0  0  0  0  0  0  0  0  0  0  0  0
    1.4766    2.6200    0.0000 C   0  0  0  0  0  0  0  0  0  0  0  0
    2.8426   10.9860    0.0000 C   0  0  0  0  0  0  0  0  0  0  0  0
    2.3426    1.1200    0.0000 C   0  0  0  0  0  0  0  0  0  0  0  0
    0.6106    1.1200    0.0000 C   0  0  0  0  0  0  0  0  0  0  0  0
    1.4766    0.6200    0.0000 C   0  0  0  0  0  0  0  0  0  0  0  0
    2.5031    6.5211    0.0000 H   0  0  0  0  0  0  0  0  0  0  0  0
    3.4415    8.1465    0.0000 H   0  0  0  0  0  0  0  0  0  0  0  0
    3.4503    6.5094    0.0000 H   0  0  0  0  0  0  0  0  0  0  0  0
    3.9252    7.3320    0.0000 H   0  0  0  0  0  0  0  0  0  0  0  0
    1.2646    7.2026    0.0000 H   0  0  0  0  0  0  0  0  0  0  0  0
    0.8660    6.5123    0.0000 H   0  0  0  0  0  0  0  0  0  0  0  0
    2.9532    5.0123    0.0000 H   0  0  0  0  0  0  0  0  0  0  0  0
    2.5547    5.7026    0.0000 H   0  0  0  0  0  0  0  0  0  0  0  0
    0.3985    5.7026    0.0000 H   0  0  0  0  0  0  0  0  0  0  0  0
    0.0000    5.0123    0.0000 H   0  0  0  0  0  0  0  0  0  0  0  0
    2.5547    3.5374    0.0000 H   0  0  0  0  0  0  0  0  0  0  0  0
    2.9532    4.2277    0.0000 H   0  0  0  0  0  0  0  0  0  0  0  0
    0.0000    4.2277    0.0000 H   0  0  0  0  0  0  0  0  0  0  0  0
    0.3985    3.5374    0.0000 H   0  0  0  0  0  0  0  0  0  0  0  0
    1.4397    9.1760    0.0000 H   0  0  0  0  0  0  0  0  0  0  0  0
    4.2456    9.1760    0.0000 H   0  0  0  0  0  0  0  0  0  0  0  0
    1.4397   10.7960    0.0000 H   0  0  0  0  0  0  0  0  0  0  0  0
    4.2456   10.7960    0.0000 H   0  0  0  0  0  0  0  0  0  0  0  0
    2.8426   11.6060    0.0000 H   0  0  0  0  0  0  0  0  0  0  0  0
    2.8796    0.8100    0.0000 H   0  0  0  0  0  0  0  0  0  0  0  0
    0.0736    0.8100    0.0000 H   0  0  0  0  0  0  0  0  0  0  0  0
    1.4766    0.0000    0.0000 H   0  0  0  0  0  0  0  0  0  0  0  0
    7.2456    5.5530    0.0000 H   0  0  0  0  0  0  0  0  0  0  0  0
  1 46  1  0  0  0  0
  2  9  1  0  0  0  0
  2 11  1  0  0  0  0
  2 12  1  0  0  0  0
  3 13  1  0  0  0  0
  3 14  1  0  0  0  0
  3 19  1  0  0  0  0
  4 19  2  0  0  0  0
  4 22  1  0  0  0  0
  5 19  1  0  0  0  0
  5 21  2  0  0  0  0
  6  7  1  0  0  0  0
  6  8  1  0  0  0  0
  6  9  1  6  0  0  0
  6 24  1  0  0  0  0
  7  8  1  0  0  0  0
  7 10  1  1  0  0  0
  7 25  1  0  0  0  0
  8 26  1  0  0  0  0
  8 27  1  0  0  0  0
  9 28  1  0  0  0  0
  9 29  1  0  0  0  0
 10 15  2  0  0  0  0
 10 16  1  0  0  0  0
 11 13  1  0  0  0  0
 11 30  1  0  0  0  0
 11 31  1  0  0  0  0
 12 14  1  0  0  0  0
 12 32  1  0  0  0  0
 12 33  1  0  0  0  0
 13 34  1  0  0  0  0
 13 35  1  0  0  0  0
 14 36  1  0  0  0  0
 14 37  1  0  0  0  0
 15 17  1  0  0  0  0
 15 38  1  0  0  0  0
 16 18  2  0  0  0  0
 16 39  1  0  0  0  0
 17 20  2  0  0  0  0
 17 40  1  0  0  0  0
 18 20  1  0  0  0  0
 18 41  1  0  0  0  0
 20 42  1  0  0  0  0
 21 23  1  0  0  0  0
 21 43  1  0  0  0  0
 22 23  2  0  0  0  0
 22 44  1  0  0  0  0
 23 45  1  0  0  0  0
M  END
> <PUBCHEM_COMPOUND_CID>
49860793

> <PUBCHEM_COMPOUND_CANONICALIZED>
1

> <PUBCHEM_CACTVS_COMPLEXITY>
341

> <PUBCHEM_CACTVS_HBOND_ACCEPTOR>
4

> <PUBCHEM_CACTVS_HBOND_DONOR>
1

> <PUBCHEM_CACTVS_ROTATABLE_BOND>
4

> <PUBCHEM_CACTVS_SUBSKEYS>
AAADceB7gAAEAAAAAAAAAAAAGAAAAAAAAAA8WIAAAAAAAAABwAAAHAAAAAAADQDBGgQ9kJcIEACgAjBnZACCgCkxAqAJ2CA4ZJiIaKLA2VCUJAgogALIiCcQgMAOgAAAAAAAAAAAAAAAAAAAAAAAAAAAAA==

> <PUBCHEM_IUPAC_OPENEYE_NAME>
2-[4-[[(1S,2S)-2-phenylcyclopropyl]methyl]piperazin-1-yl]pyrimidine;hydrochloride

> <PUBCHEM_IUPAC_CAS_NAME>
2-[4-[[(1S,2S)-2-phenylcyclopropyl]methyl]-1-piperazinyl]pyrimidine;hydrochloride

> <PUBCHEM_IUPAC_NAME_MARKUP>
2-[4-[[(1<I>S</I>,2<I>S</I>)-2-phenylcyclopropyl]methyl]piperazin-1-yl]pyrimidine;hydrochloride

> <PUBCHEM_IUPAC_NAME>
2-[4-[[(1S,2S)-2-phenylcyclopropyl]methyl]piperazin-1-yl]pyrimidine;hydrochloride

> <PUBCHEM_IUPAC_SYSTEMATIC_NAME>
2-[4-[[(1S,2S)-2-phenylcyclopropyl]methyl]piperazin-1-yl]pyrimidine;hydrochloride

> <PUBCHEM_IUPAC_TRADITIONAL_NAME>
2-[4-[[(1S,2S)-2-phenylcyclopropyl]methyl]piperazino]pyrimidine;hydrochloride

> <PUBCHEM_IUPAC_INCHI>
InChI=1S/C18H22N4.ClH/c1-2-5-15(6-3-1)17-13-16(17)14-21-9-11-22(12-10-21)18-19-7-4-8-20-18;/h1-8,16-17H,9-14H2;1H/t16-,17-;/m1./s1

> <PUBCHEM_IUPAC_INCHIKEY>
YVTLZZCENFIJKX-GBNZRNLASA-N

> <PUBCHEM_EXACT_MASS>
330.1611244

> <PUBCHEM_MOLECULAR_FORMULA>
C18H23ClN4

> <PUBCHEM_MOLECULAR_WEIGHT>
330.9

> <PUBCHEM_OPENEYE_CAN_SMILES>
C1CN(CCN1CC2CC2C3=CC=CC=C3)C4=NC=CC=N4.Cl

> <PUBCHEM_OPENEYE_ISO_SMILES>
C1CN(CCN1C[C@H]2C[C@@H]2C3=CC=CC=C3)C4=NC=CC=N4.Cl

> <PUBCHEM_CACTVS_TPSA>
32.3

> <PUBCHEM_MONOISOTOPIC_WEIGHT>
330.1611244

> <PUBCHEM_TOTAL_CHARGE>
0

> <PUBCHEM_HEAVY_ATOM_COUNT>
23

> <PUBCHEM_ATOM_DEF_STEREO_COUNT>
2

> <PUBCHEM_ATOM_UDEF_STEREO_COUNT>
0

> <PUBCHEM_BOND_DEF_STEREO_COUNT>
0

> <PUBCHEM_BOND_UDEF_STEREO_COUNT>
0

> <PUBCHEM_ISOTOPIC_ATOM_COUNT>
0

> <PUBCHEM_COMPONENT_COUNT>
2

> <PUBCHEM_CACTVS_TAUTO_COUNT>
-1

> <PUBCHEM_COORDINATE_TYPE>
1
5
255

> <PUBCHEM_BONDANNOTATIONS>
10  15  8
10  16  8
15  17  8
16  18  8
17  20  8
18  20  8
21  23  8
22  23  8
4  19  8
4  22  8
5  19  8
5  21  8
6  9  6
7  10  5

$$$$
