162649235
  -OEChem-09292322422D

 56 60  0     1  0  0  0  0  0999 V2000
    7.1279    2.5702    0.0000 S   0  0  0  0  0  0  0  0  0  0  0  0
    5.5443    1.7655    0.0000 S   0  0  0  0  0  0  0  0  0  0  0  0
    2.0000    3.5702    0.0000 F   0  0  0  0  0  0  0  0  0  0  0  0
    7.1279    1.5702    0.0000 O   0  0  0  0  0  0  0  0  0  0  0  0
    7.1279    3.5702    0.0000 O   0  0  0  0  0  0  0  0  0  0  0  0
   11.5291   -3.7547    0.0000 O   0  0  0  0  0  0  0  0  0  0  0  0
    9.8303    0.6215    0.0000 N   0  0  3  0  0  0  0  0  0  0  0  0
    8.1279    2.5702    0.0000 N   0  0  0  0  0  0  0  0  0  0  0  0
   11.1272   -2.8455    0.0000 N   0  0  0  0  0  0  0  0  0  0  0  0
    8.6279    1.7042    0.0000 C   0  0  1  0  0  0  0  0  0  0  0  0
    9.6224    1.5997    0.0000 C   0  0  0  0  0  0  0  0  0  0  0  0
    8.2212    0.7907    0.0000 C   0  0  0  0  0  0  0  0  0  0  0  0
    8.9643    0.1215    0.0000 C   0  0  0  0  0  0  0  0  0  0  0  0
   10.7439    0.2148    0.0000 C   0  0  0  0  0  0  0  0  0  0  0  0
   10.8484   -0.7797    0.0000 C   0  0  0  0  0  0  0  0  0  0  0  0
   11.7620   -1.1865    0.0000 C   0  0  0  0  0  0  0  0  0  0  0  0
    6.1279    2.5702    0.0000 C   0  0  0  0  0  0  0  0  0  0  0  0
    5.5443    3.3750    0.0000 C   0  0  0  0  0  0  0  0  0  0  0  0
   11.8665   -2.1810    0.0000 C   0  0  0  0  0  0  0  0  0  0  0  0
    4.5981    3.0702    0.0000 C   0  0  0  0  0  0  0  0  0  0  0  0
    4.5981    2.0702    0.0000 C   0  0  0  0  0  0  0  0  0  0  0  0
   12.7278   -2.6773    0.0000 C   0  0  0  0  0  0  0  0  0  0  0  0
    5.8550    4.3255    0.0000 C   0  0  0  0  0  0  0  0  0  0  0  0
   12.5182   -3.6551    0.0000 C   0  0  0  0  0  0  0  0  0  0  0  0
    3.7320    3.5702    0.0000 C   0  0  0  0  0  0  0  0  0  0  0  0
    3.7320    1.5702    0.0000 C   0  0  0  0  0  0  0  0  0  0  0  0
   13.6794   -2.3699    0.0000 C   0  0  0  0  0  0  0  0  0  0  0  0
    2.8660    3.0702    0.0000 C   0  0  0  0  0  0  0  0  0  0  0  0
    2.8660    2.0702    0.0000 C   0  0  0  0  0  0  0  0  0  0  0  0
   13.2602   -4.3255    0.0000 C   0  0  0  0  0  0  0  0  0  0  0  0
   14.4214   -3.0403    0.0000 C   0  0  0  0  0  0  0  0  0  0  0  0
   14.2118   -4.0181    0.0000 C   0  0  0  0  0  0  0  0  0  0  0  0
    8.0087    1.6718    0.0000 H   0  0  0  0  0  0  0  0  0  0  0  0
   10.2390    1.6645    0.0000 H   0  0  0  0  0  0  0  0  0  0  0  0
    9.6224    2.2197    0.0000 H   0  0  0  0  0  0  0  0  0  0  0  0
    7.6842    1.1007    0.0000 H   0  0  0  0  0  0  0  0  0  0  0  0
    7.8567    0.2891    0.0000 H   0  0  0  0  0  0  0  0  0  0  0  0
    8.5036   -0.2933    0.0000 H   0  0  0  0  0  0  0  0  0  0  0  0
    9.3287   -0.3801    0.0000 H   0  0  0  0  0  0  0  0  0  0  0  0
   11.3624    0.1715    0.0000 H   0  0  0  0  0  0  0  0  0  0  0  0
   10.8939    0.8164    0.0000 H   0  0  0  0  0  0  0  0  0  0  0  0
    8.4379    3.1072    0.0000 H   0  0  0  0  0  0  0  0  0  0  0  0
   10.2299   -0.7365    0.0000 H   0  0  0  0  0  0  0  0  0  0  0  0
   10.6984   -1.3813    0.0000 H   0  0  0  0  0  0  0  0  0  0  0  0
   12.3804   -1.2297    0.0000 H   0  0  0  0  0  0  0  0  0  0  0  0
   11.9120   -0.5849    0.0000 H   0  0  0  0  0  0  0  0  0  0  0  0
    6.4443    4.1329    0.0000 H   0  0  0  0  0  0  0  0  0  0  0  0
    6.0476    4.9148    0.0000 H   0  0  0  0  0  0  0  0  0  0  0  0
    5.2656    4.5181    0.0000 H   0  0  0  0  0  0  0  0  0  0  0  0
    3.7320    4.1902    0.0000 H   0  0  0  0  0  0  0  0  0  0  0  0
    3.7320    0.9502    0.0000 H   0  0  0  0  0  0  0  0  0  0  0  0
   13.8094   -1.7637    0.0000 H   0  0  0  0  0  0  0  0  0  0  0  0
    2.3291    1.7602    0.0000 H   0  0  0  0  0  0  0  0  0  0  0  0
   13.1302   -4.9317    0.0000 H   0  0  0  0  0  0  0  0  0  0  0  0
   15.0114   -2.8498    0.0000 H   0  0  0  0  0  0  0  0  0  0  0  0
   14.6718   -4.4338    0.0000 H   0  0  0  0  0  0  0  0  0  0  0  0
  1  4  2  0  0  0  0
  1  5  2  0  0  0  0
  1  8  1  0  0  0  0
  1 17  1  0  0  0  0
  2 17  1  0  0  0  0
  2 21  1  0  0  0  0
  3 28  1  0  0  0  0
  6  9  1  0  0  0  0
  6 24  1  0  0  0  0
  7 11  1  0  0  0  0
  7 13  1  0  0  0  0
  7 14  1  0  0  0  0
 10  8  1  1  0  0  0
  8 42  1  0  0  0  0
  9 19  2  0  0  0  0
 10 11  1  0  0  0  0
 10 12  1  0  0  0  0
 10 33  1  0  0  0  0
 11 34  1  0  0  0  0
 11 35  1  0  0  0  0
 12 13  1  0  0  0  0
 12 36  1  0  0  0  0
 12 37  1  0  0  0  0
 13 38  1  0  0  0  0
 13 39  1  0  0  0  0
 14 15  1  0  0  0  0
 14 40  1  0  0  0  0
 14 41  1  0  0  0  0
 15 16  1  0  0  0  0
 15 43  1  0  0  0  0
 15 44  1  0  0  0  0
 16 19  1  0  0  0  0
 16 45  1  0  0  0  0
 16 46  1  0  0  0  0
 17 18  2  0  0  0  0
 18 20  1  0  0  0  0
 18 23  1  0  0  0  0
 19 22  1  0  0  0  0
 20 21  2  0  0  0  0
 20 25  1  0  0  0  0
 21 26  1  0  0  0  0
 22 24  1  0  0  0  0
 22 27  2  0  0  0  0
 23 47  1  0  0  0  0
 23 48  1  0  0  0  0
 23 49  1  0  0  0  0
 24 30  2  0  0  0  0
 25 28  2  0  0  0  0
 25 50  1  0  0  0  0
 26 29  2  0  0  0  0
 26 51  1  0  0  0  0
 27 31  1  0  0  0  0
 27 52  1  0  0  0  0
 28 29  1  0  0  0  0
 29 53  1  0  0  0  0
 30 32  1  0  0  0  0
 30 54  1  0  0  0  0
 31 32  2  0  0  0  0
 31 55  1  0  0  0  0
 32 56  1  0  0  0  0
M  END
> <PUBCHEM_COMPOUND_CID>
162649235

> <PUBCHEM_COMPOUND_CANONICALIZED>
1

> <PUBCHEM_CACTVS_COMPLEXITY>
751

> <PUBCHEM_CACTVS_HBOND_ACCEPTOR>
8

> <PUBCHEM_CACTVS_HBOND_DONOR>
1

> <PUBCHEM_CACTVS_ROTATABLE_BOND>
7

> <PUBCHEM_CACTVS_SUBSKEYS>
AAADceB7MQBgAAAAAAAAAAAAAAAAAWLEgAAwYAAAAAAAAFgB/gAAHwQUQAAADCzB3gwyh9NQAAqtA6RyQnDDAZAkKBBomLk+TNoIZrqg1ZOUMYBm0BmoyceYyOCOgAAAAAAMAAAAAAAAABgAAAAAAAAAAA==

> <PUBCHEM_IUPAC_OPENEYE_NAME>
N-[(3R)-1-[3-(1,2-benzoxazol-3-yl)propyl]pyrrolidin-3-yl]-5-fluoro-3-methyl-benzothiophene-2-sulfonamide

> <PUBCHEM_IUPAC_CAS_NAME>
N-[(3R)-1-[3-(1,2-benzoxazol-3-yl)propyl]-3-pyrrolidinyl]-5-fluoro-3-methyl-1-benzothiophene-2-sulfonamide

> <PUBCHEM_IUPAC_NAME_MARKUP>
<I>N</I>-[(3<I>R</I>)-1-[3-(1,2-benzoxazol-3-yl)propyl]pyrrolidin-3-yl]-5-fluoro-3-methyl-1-benzothiophene-2-sulfonamide

> <PUBCHEM_IUPAC_NAME>
N-[(3R)-1-[3-(1,2-benzoxazol-3-yl)propyl]pyrrolidin-3-yl]-5-fluoro-3-methyl-1-benzothiophene-2-sulfonamide

> <PUBCHEM_IUPAC_SYSTEMATIC_NAME>
N-[(3R)-1-[3-(1,2-benzoxazol-3-yl)propyl]pyrrolidin-3-yl]-5-fluoranyl-3-methyl-1-benzothiophene-2-sulfonamide

> <PUBCHEM_IUPAC_TRADITIONAL_NAME>
5-fluoro-N-[(3R)-1-(3-indoxazen-3-ylpropyl)pyrrolidin-3-yl]-3-methyl-benzothiophene-2-sulfonamide

> <PUBCHEM_IUPAC_INCHI>
InChI=1S/C23H24FN3O3S2/c1-15-19-13-16(24)8-9-22(19)31-23(15)32(28,29)26-17-10-12-27(14-17)11-4-6-20-18-5-2-3-7-21(18)30-25-20/h2-3,5,7-9,13,17,26H,4,6,10-12,14H2,1H3/t17-/m1/s1

> <PUBCHEM_IUPAC_INCHIKEY>
ITUXAHIEYLTLOX-QGZVFWFLSA-N

> <PUBCHEM_XLOGP3_AA>
5.1

> <PUBCHEM_EXACT_MASS>
473.12431215

> <PUBCHEM_MOLECULAR_FORMULA>
C23H24FN3O3S2

> <PUBCHEM_MOLECULAR_WEIGHT>
473.6

> <PUBCHEM_OPENEYE_CAN_SMILES>
CC1=C(SC2=C1C=C(C=C2)F)S(=O)(=O)NC3CCN(C3)CCCC4=NOC5=CC=CC=C54

> <PUBCHEM_OPENEYE_ISO_SMILES>
CC1=C(SC2=C1C=C(C=C2)F)S(=O)(=O)N[C@@H]3CCN(C3)CCCC4=NOC5=CC=CC=C54

> <PUBCHEM_CACTVS_TPSA>
112

> <PUBCHEM_MONOISOTOPIC_WEIGHT>
473.12431215

> <PUBCHEM_TOTAL_CHARGE>
0

> <PUBCHEM_HEAVY_ATOM_COUNT>
32

> <PUBCHEM_ATOM_DEF_STEREO_COUNT>
1

> <PUBCHEM_ATOM_UDEF_STEREO_COUNT>
0

> <PUBCHEM_BOND_DEF_STEREO_COUNT>
0

> <PUBCHEM_BOND_UDEF_STEREO_COUNT>
0

> <PUBCHEM_ISOTOPIC_ATOM_COUNT>
0

> <PUBCHEM_COMPONENT_COUNT>
1

> <PUBCHEM_CACTVS_TAUTO_COUNT>
-1

> <PUBCHEM_COORDINATE_TYPE>
1
5
255

> <PUBCHEM_BONDANNOTATIONS>
17  18  8
18  20  8
19  22  8
2  17  8
2  21  8
20  21  8
20  25  8
21  26  8
22  24  8
22  27  8
24  30  8
25  28  8
26  29  8
27  31  8
28  29  8
30  32  8
31  32  8
6  24  8
6  9  8
10  8  5
9  19  8

$$$$
