101885476
  -OEChem-09292322002D

146149  0     1  0  0  0  0  0999 V2000
   15.7882   -7.7500    0.0000 O   0  0  0  0  0  0  0  0  0  0  0  0
    9.7260    7.7500    0.0000 O   0  0  0  0  0  0  0  0  0  0  0  0
   23.5141  -14.2500    0.0000 O   0  0  0  0  0  0  0  0  0  0  0  0
    2.0000   14.2500    0.0000 O   0  0  0  0  0  0  0  0  0  0  0  0
   19.2523  -10.7500    0.0000 N   0  0  3  0  0  0  0  0  0  0  0  0
    6.2619   10.7500    0.0000 N   0  0  3  0  0  0  0  0  0  0  0  0
   17.5202   -7.7500    0.0000 N   0  0  0  0  0  0  0  0  0  0  0  0
    7.9939    7.7500    0.0000 N   0  0  0  0  0  0  0  0  0  0  0  0
   21.9305  -15.0547    0.0000 N   0  0  0  0  0  0  0  0  0  0  0  0
    3.5836   15.0547    0.0000 N   0  0  0  0  0  0  0  0  0  0  0  0
   13.1901   -0.2500    0.0000 C   0  0  0  0  0  0  0  0  0  0  0  0
   12.3241    0.2500    0.0000 C   0  0  0  0  0  0  0  0  0  0  0  0
   13.1901   -1.2500    0.0000 C   0  0  0  0  0  0  0  0  0  0  0  0
   12.3241    1.2500    0.0000 C   0  0  0  0  0  0  0  0  0  0  0  0
   14.0561   -1.7500    0.0000 C   0  0  0  0  0  0  0  0  0  0  0  0
   11.4580    1.7500    0.0000 C   0  0  0  0  0  0  0  0  0  0  0  0
   14.0561   -2.7500    0.0000 C   0  0  0  0  0  0  0  0  0  0  0  0
   11.4580    2.7500    0.0000 C   0  0  0  0  0  0  0  0  0  0  0  0
   14.9221   -3.2500    0.0000 C   0  0  0  0  0  0  0  0  0  0  0  0
   10.5920    3.2500    0.0000 C   0  0  0  0  0  0  0  0  0  0  0  0
   14.9221   -4.2500    0.0000 C   0  0  0  0  0  0  0  0  0  0  0  0
   10.5920    4.2500    0.0000 C   0  0  0  0  0  0  0  0  0  0  0  0
   15.7882   -4.7500    0.0000 C   0  0  0  0  0  0  0  0  0  0  0  0
    9.7260    4.7500    0.0000 C   0  0  0  0  0  0  0  0  0  0  0  0
   15.7882   -5.7500    0.0000 C   0  0  0  0  0  0  0  0  0  0  0  0
    9.7260    5.7500    0.0000 C   0  0  0  0  0  0  0  0  0  0  0  0
   19.2523  -11.7500    0.0000 C   0  0  0  0  0  0  0  0  0  0  0  0
    6.2619   11.7500    0.0000 C   0  0  0  0  0  0  0  0  0  0  0  0
   18.3862  -10.2500    0.0000 C   0  0  0  0  0  0  0  0  0  0  0  0
    7.1279   10.2500    0.0000 C   0  0  0  0  0  0  0  0  0  0  0  0
   20.1183  -12.2500    0.0000 C   0  0  0  0  0  0  0  0  0  0  0  0
    5.3958   12.2500    0.0000 C   0  0  0  0  0  0  0  0  0  0  0  0
   20.1183  -10.2500    0.0000 C   0  0  0  0  0  0  0  0  0  0  0  0
    5.3958   10.2500    0.0000 C   0  0  0  0  0  0  0  0  0  0  0  0
   18.3862   -9.2500    0.0000 C   0  0  0  0  0  0  0  0  0  0  0  0
    7.1279    9.2500    0.0000 C   0  0  0  0  0  0  0  0  0  0  0  0
   20.1183  -13.2500    0.0000 C   0  0  0  0  0  0  0  0  0  0  0  0
    5.3958   13.2500    0.0000 C   0  0  0  0  0  0  0  0  0  0  0  0
   16.6542   -6.2500    0.0000 C   0  0  0  0  0  0  0  0  0  0  0  0
    8.8600    6.2500    0.0000 C   0  0  0  0  0  0  0  0  0  0  0  0
   20.9843  -13.7500    0.0000 C   0  0  0  0  0  0  0  0  0  0  0  0
    4.5298   13.7500    0.0000 C   0  0  0  0  0  0  0  0  0  0  0  0
   17.5202   -8.7500    0.0000 C   0  0  0  0  0  0  0  0  0  0  0  0
    7.9939    8.7500    0.0000 C   0  0  0  0  0  0  0  0  0  0  0  0
   20.1183   -9.2500    0.0000 C   0  0  0  0  0  0  0  0  0  0  0  0
    4.5298   10.7500    0.0000 C   0  0  0  0  0  0  0  0  0  0  0  0
   21.9305  -13.4453    0.0000 C   0  0  0  0  0  0  0  0  0  0  0  0
    3.5836   13.4453    0.0000 C   0  0  0  0  0  0  0  0  0  0  0  0
   20.9843  -14.7500    0.0000 C   0  0  0  0  0  0  0  0  0  0  0  0
    4.5298   14.7500    0.0000 C   0  0  0  0  0  0  0  0  0  0  0  0
   16.6542   -7.2500    0.0000 C   0  0  0  0  0  0  0  0  0  0  0  0
    8.8600    7.2500    0.0000 C   0  0  0  0  0  0  0  0  0  0  0  0
   19.2523  -13.7500    0.0000 C   0  0  0  0  0  0  0  0  0  0  0  0
    6.2619   13.7500    0.0000 C   0  0  0  0  0  0  0  0  0  0  0  0
   22.5141  -14.2500    0.0000 C   0  0  0  0  0  0  0  0  0  0  0  0
    3.0000   14.2500    0.0000 C   0  0  0  0  0  0  0  0  0  0  0  0
   20.1183  -15.2500    0.0000 C   0  0  0  0  0  0  0  0  0  0  0  0
    5.3958   15.2500    0.0000 C   0  0  0  0  0  0  0  0  0  0  0  0
   19.2523  -14.7500    0.0000 C   0  0  0  0  0  0  0  0  0  0  0  0
    6.2619   14.7500    0.0000 C   0  0  0  0  0  0  0  0  0  0  0  0
   20.9843   -8.7500    0.0000 C   0  0  0  0  0  0  0  0  0  0  0  0
    3.6638   10.2500    0.0000 C   0  0  0  0  0  0  0  0  0  0  0  0
   13.8007   -0.3577    0.0000 H   0  0  0  0  0  0  0  0  0  0  0  0
   13.4021    0.3326    0.0000 H   0  0  0  0  0  0  0  0  0  0  0  0
   11.7135    0.3577    0.0000 H   0  0  0  0  0  0  0  0  0  0  0  0
   12.1120   -0.3326    0.0000 H   0  0  0  0  0  0  0  0  0  0  0  0
   12.5795   -1.1423    0.0000 H   0  0  0  0  0  0  0  0  0  0  0  0
   12.9780   -1.8326    0.0000 H   0  0  0  0  0  0  0  0  0  0  0  0
   12.9346    1.1423    0.0000 H   0  0  0  0  0  0  0  0  0  0  0  0
   12.5361    1.8326    0.0000 H   0  0  0  0  0  0  0  0  0  0  0  0
   14.6667   -1.8577    0.0000 H   0  0  0  0  0  0  0  0  0  0  0  0
   14.2682   -1.1674    0.0000 H   0  0  0  0  0  0  0  0  0  0  0  0
   10.8475    1.8577    0.0000 H   0  0  0  0  0  0  0  0  0  0  0  0
   11.2460    1.1674    0.0000 H   0  0  0  0  0  0  0  0  0  0  0  0
   13.4455   -2.6423    0.0000 H   0  0  0  0  0  0  0  0  0  0  0  0
   13.8441   -3.3326    0.0000 H   0  0  0  0  0  0  0  0  0  0  0  0
   12.0686    2.6423    0.0000 H   0  0  0  0  0  0  0  0  0  0  0  0
   11.6701    3.3326    0.0000 H   0  0  0  0  0  0  0  0  0  0  0  0
   15.5327   -3.3577    0.0000 H   0  0  0  0  0  0  0  0  0  0  0  0
   15.1342   -2.6674    0.0000 H   0  0  0  0  0  0  0  0  0  0  0  0
    9.9814    3.3577    0.0000 H   0  0  0  0  0  0  0  0  0  0  0  0
   10.3800    2.6674    0.0000 H   0  0  0  0  0  0  0  0  0  0  0  0
   14.3116   -4.1423    0.0000 H   0  0  0  0  0  0  0  0  0  0  0  0
   14.7101   -4.8326    0.0000 H   0  0  0  0  0  0  0  0  0  0  0  0
   11.2026    4.1423    0.0000 H   0  0  0  0  0  0  0  0  0  0  0  0
   10.8041    4.8326    0.0000 H   0  0  0  0  0  0  0  0  0  0  0  0
   16.3987   -4.8577    0.0000 H   0  0  0  0  0  0  0  0  0  0  0  0
   16.0002   -4.1674    0.0000 H   0  0  0  0  0  0  0  0  0  0  0  0
    9.1154    4.8577    0.0000 H   0  0  0  0  0  0  0  0  0  0  0  0
    9.5139    4.1674    0.0000 H   0  0  0  0  0  0  0  0  0  0  0  0
   15.1776   -5.6423    0.0000 H   0  0  0  0  0  0  0  0  0  0  0  0
   15.5761   -6.3326    0.0000 H   0  0  0  0  0  0  0  0  0  0  0  0
   10.3366    5.6423    0.0000 H   0  0  0  0  0  0  0  0  0  0  0  0
    9.9380    6.3326    0.0000 H   0  0  0  0  0  0  0  0  0  0  0  0
   18.6417  -11.6423    0.0000 H   0  0  0  0  0  0  0  0  0  0  0  0
   19.0402  -12.3326    0.0000 H   0  0  0  0  0  0  0  0  0  0  0  0
    6.8725   11.6423    0.0000 H   0  0  0  0  0  0  0  0  0  0  0  0
    6.4739   12.3326    0.0000 H   0  0  0  0  0  0  0  0  0  0  0  0
   17.7757  -10.1423    0.0000 H   0  0  0  0  0  0  0  0  0  0  0  0
   18.1742  -10.8326    0.0000 H   0  0  0  0  0  0  0  0  0  0  0  0
    7.7385   10.1423    0.0000 H   0  0  0  0  0  0  0  0  0  0  0  0
    7.3400   10.8326    0.0000 H   0  0  0  0  0  0  0  0  0  0  0  0
   20.7289  -12.3577    0.0000 H   0  0  0  0  0  0  0  0  0  0  0  0
   20.3303  -11.6674    0.0000 H   0  0  0  0  0  0  0  0  0  0  0  0
    4.7853   12.3577    0.0000 H   0  0  0  0  0  0  0  0  0  0  0  0
    5.1838   11.6674    0.0000 H   0  0  0  0  0  0  0  0  0  0  0  0
   20.3303  -10.8326    0.0000 H   0  0  0  0  0  0  0  0  0  0  0  0
   20.7289  -10.1423    0.0000 H   0  0  0  0  0  0  0  0  0  0  0  0
    4.9973    9.7750    0.0000 H   0  0  0  0  0  0  0  0  0  0  0  0
    5.7944    9.7750    0.0000 H   0  0  0  0  0  0  0  0  0  0  0  0
   18.9968   -9.3577    0.0000 H   0  0  0  0  0  0  0  0  0  0  0  0
   18.5983   -8.6674    0.0000 H   0  0  0  0  0  0  0  0  0  0  0  0
    6.5173    9.3577    0.0000 H   0  0  0  0  0  0  0  0  0  0  0  0
    6.9158    8.6674    0.0000 H   0  0  0  0  0  0  0  0  0  0  0  0
   17.2648   -6.3577    0.0000 H   0  0  0  0  0  0  0  0  0  0  0  0
   16.8662   -5.6674    0.0000 H   0  0  0  0  0  0  0  0  0  0  0  0
    8.2494    6.3577    0.0000 H   0  0  0  0  0  0  0  0  0  0  0  0
    8.6479    5.6674    0.0000 H   0  0  0  0  0  0  0  0  0  0  0  0
   16.9096   -8.6423    0.0000 H   0  0  0  0  0  0  0  0  0  0  0  0
   17.3082   -9.3326    0.0000 H   0  0  0  0  0  0  0  0  0  0  0  0
    8.6045    8.6423    0.0000 H   0  0  0  0  0  0  0  0  0  0  0  0
    8.2060    9.3326    0.0000 H   0  0  0  0  0  0  0  0  0  0  0  0
   19.9062   -8.6674    0.0000 H   0  0  0  0  0  0  0  0  0  0  0  0
   19.5077   -9.3577    0.0000 H   0  0  0  0  0  0  0  0  0  0  0  0
    4.9284   11.2249    0.0000 H   0  0  0  0  0  0  0  0  0  0  0  0
    4.1313   11.2249    0.0000 H   0  0  0  0  0  0  0  0  0  0  0  0
   22.4679  -13.1360    0.0000 H   0  0  0  0  0  0  0  0  0  0  0  0
   21.6795  -12.8784    0.0000 H   0  0  0  0  0  0  0  0  0  0  0  0
    3.0462   13.1360    0.0000 H   0  0  0  0  0  0  0  0  0  0  0  0
    3.8346   12.8784    0.0000 H   0  0  0  0  0  0  0  0  0  0  0  0
   18.0571   -7.4400    0.0000 H   0  0  0  0  0  0  0  0  0  0  0  0
    7.4570    7.4400    0.0000 H   0  0  0  0  0  0  0  0  0  0  0  0
   18.7153  -13.4400    0.0000 H   0  0  0  0  0  0  0  0  0  0  0  0
    6.7988   13.4400    0.0000 H   0  0  0  0  0  0  0  0  0  0  0  0
   22.1231  -15.6441    0.0000 H   0  0  0  0  0  0  0  0  0  0  0  0
    3.3910   15.6441    0.0000 H   0  0  0  0  0  0  0  0  0  0  0  0
   20.1183  -15.8700    0.0000 H   0  0  0  0  0  0  0  0  0  0  0  0
    5.3958   15.8700    0.0000 H   0  0  0  0  0  0  0  0  0  0  0  0
   18.7153  -15.0600    0.0000 H   0  0  0  0  0  0  0  0  0  0  0  0
    6.7988   15.0600    0.0000 H   0  0  0  0  0  0  0  0  0  0  0  0
   21.2943   -9.2869    0.0000 H   0  0  0  0  0  0  0  0  0  0  0  0
   21.5212   -8.4400    0.0000 H   0  0  0  0  0  0  0  0  0  0  0  0
   20.6743   -8.2131    0.0000 H   0  0  0  0  0  0  0  0  0  0  0  0
    3.3538   10.7869    0.0000 H   0  0  0  0  0  0  0  0  0  0  0  0
    3.1269    9.9400    0.0000 H   0  0  0  0  0  0  0  0  0  0  0  0
    3.9738    9.7131    0.0000 H   0  0  0  0  0  0  0  0  0  0  0  0
  1 51  2  0  0  0  0
  2 52  2  0  0  0  0
  3 55  2  0  0  0  0
  4 56  2  0  0  0  0
  5 27  1  0  0  0  0
  5 29  1  0  0  0  0
  5 33  1  0  0  0  0
  6 28  1  0  0  0  0
  6 30  1  0  0  0  0
  6 34  1  0  0  0  0
  7 43  1  0  0  0  0
  7 51  1  0  0  0  0
  7131  1  0  0  0  0
  8 44  1  0  0  0  0
  8 52  1  0  0  0  0
  8132  1  0  0  0  0
  9 49  1  0  0  0  0
  9 55  1  0  0  0  0
  9135  1  0  0  0  0
 10 50  1  0  0  0  0
 10 56  1  0  0  0  0
 10136  1  0  0  0  0
 11 12  1  0  0  0  0
 11 13  1  0  0  0  0
 11 63  1  0  0  0  0
 11 64  1  0  0  0  0
 12 14  1  0  0  0  0
 12 65  1  0  0  0  0
 12 66  1  0  0  0  0
 13 15  1  0  0  0  0
 13 67  1  0  0  0  0
 13 68  1  0  0  0  0
 14 16  1  0  0  0  0
 14 69  1  0  0  0  0
 14 70  1  0  0  0  0
 15 17  1  0  0  0  0
 15 71  1  0  0  0  0
 15 72  1  0  0  0  0
 16 18  1  0  0  0  0
 16 73  1  0  0  0  0
 16 74  1  0  0  0  0
 17 19  1  0  0  0  0
 17 75  1  0  0  0  0
 17 76  1  0  0  0  0
 18 20  1  0  0  0  0
 18 77  1  0  0  0  0
 18 78  1  0  0  0  0
 19 21  1  0  0  0  0
 19 79  1  0  0  0  0
 19 80  1  0  0  0  0
 20 22  1  0  0  0  0
 20 81  1  0  0  0  0
 20 82  1  0  0  0  0
 21 23  1  0  0  0  0
 21 83  1  0  0  0  0
 21 84  1  0  0  0  0
 22 24  1  0  0  0  0
 22 85  1  0  0  0  0
 22 86  1  0  0  0  0
 23 25  1  0  0  0  0
 23 87  1  0  0  0  0
 23 88  1  0  0  0  0
 24 26  1  0  0  0  0
 24 89  1  0  0  0  0
 24 90  1  0  0  0  0
 25 39  1  0  0  0  0
 25 91  1  0  0  0  0
 25 92  1  0  0  0  0
 26 40  1  0  0  0  0
 26 93  1  0  0  0  0
 26 94  1  0  0  0  0
 27 31  1  0  0  0  0
 27 95  1  0  0  0  0
 27 96  1  0  0  0  0
 28 32  1  0  0  0  0
 28 97  1  0  0  0  0
 28 98  1  0  0  0  0
 29 35  1  0  0  0  0
 29 99  1  0  0  0  0
 29100  1  0  0  0  0
 30 36  1  0  0  0  0
 30101  1  0  0  0  0
 30102  1  0  0  0  0
 31 37  1  0  0  0  0
 31103  1  0  0  0  0
 31104  1  0  0  0  0
 32 38  1  0  0  0  0
 32105  1  0  0  0  0
 32106  1  0  0  0  0
 33 45  1  0  0  0  0
 33107  1  0  0  0  0
 33108  1  0  0  0  0
 34 46  1  0  0  0  0
 34109  1  0  0  0  0
 34110  1  0  0  0  0
 35 43  1  0  0  0  0
 35111  1  0  0  0  0
 35112  1  0  0  0  0
 36 44  1  0  0  0  0
 36113  1  0  0  0  0
 36114  1  0  0  0  0
 37 41  2  0  0  0  0
 37 53  1  0  0  0  0
 38 42  2  0  0  0  0
 38 54  1  0  0  0  0
 39 51  1  0  0  0  0
 39115  1  0  0  0  0
 39116  1  0  0  0  0
 40 52  1  0  0  0  0
 40117  1  0  0  0  0
 40118  1  0  0  0  0
 41 47  1  0  0  0  0
 41 49  1  0  0  0  0
 42 48  1  0  0  0  0
 42 50  1  0  0  0  0
 43119  1  0  0  0  0
 43120  1  0  0  0  0
 44121  1  0  0  0  0
 44122  1  0  0  0  0
 45 61  1  0  0  0  0
 45123  1  0  0  0  0
 45124  1  0  0  0  0
 46 62  1  0  0  0  0
 46125  1  0  0  0  0
 46126  1  0  0  0  0
 47 55  1  0  0  0  0
 47127  1  0  0  0  0
 47128  1  0  0  0  0
 48 56  1  0  0  0  0
 48129  1  0  0  0  0
 48130  1  0  0  0  0
 49 57  2  0  0  0  0
 50 58  2  0  0  0  0
 53 59  2  0  0  0  0
 53133  1  0  0  0  0
 54 60  2  0  0  0  0
 54134  1  0  0  0  0
 57 59  1  0  0  0  0
 57137  1  0  0  0  0
 58 60  1  0  0  0  0
 58138  1  0  0  0  0
 59139  1  0  0  0  0
 60140  1  0  0  0  0
 61141  1  0  0  0  0
 61142  1  0  0  0  0
 61143  1  0  0  0  0
 62144  1  0  0  0  0
 62145  1  0  0  0  0
 62146  1  0  0  0  0
M  END
> <PUBCHEM_COMPOUND_CID>
101885476

> <PUBCHEM_COMPOUND_CANONICALIZED>
1

> <PUBCHEM_CACTVS_COMPLEXITY>
1140

> <PUBCHEM_CACTVS_HBOND_ACCEPTOR>
6

> <PUBCHEM_CACTVS_HBOND_DONOR>
4

> <PUBCHEM_CACTVS_ROTATABLE_BOND>
37

> <PUBCHEM_CACTVS_SUBSKEYS>
AAADcfB/uAAAAAAAAAAAAAAAAAAAAWLAAAAwYAAAAAAAAFgBQAAAHgAQAAAADAjBmAQywIPAAACIAiVSUACCAAAhAgAIiIEIZIgIIDLA1ZGEIAhglgDIyAcciICOgAAAQAASAAAAAACAACQAAAAAAAAAAA==

> <PUBCHEM_IUPAC_OPENEYE_NAME>
N,N'-bis[3-[2-(2-oxoindolin-4-yl)ethyl-propyl-amino]propyl]icosanediamide

> <PUBCHEM_IUPAC_CAS_NAME>
N,N'-bis[3-[2-(2-oxo-1,3-dihydroindol-4-yl)ethyl-propylamino]propyl]eicosanediamide

> <PUBCHEM_IUPAC_NAME_MARKUP>
<I>N</I>,<I>N</I>&apos;-bis[3-[2-(2-oxo-1,3-dihydroindol-4-yl)ethyl-propylamino]propyl]icosanediamide

> <PUBCHEM_IUPAC_NAME>
N,N'-bis[3-[2-(2-oxo-1,3-dihydroindol-4-yl)ethyl-propylamino]propyl]icosanediamide

> <PUBCHEM_IUPAC_SYSTEMATIC_NAME>
N,N'-bis[3-[2-(2-oxidanylidene-1,3-dihydroindol-4-yl)ethyl-propyl-amino]propyl]icosanediamide

> <PUBCHEM_IUPAC_TRADITIONAL_NAME>
N,N'-bis[3-[2-(2-ketoindolin-4-yl)ethyl-propyl-amino]propyl]eicosanediamide

> <PUBCHEM_IUPAC_INCHI>
InChI=1S/C52H84N6O4/c1-3-35-57(39-31-43-25-21-27-47-45(43)41-51(61)55-47)37-23-33-53-49(59)29-19-17-15-13-11-9-7-5-6-8-10-12-14-16-18-20-30-50(60)54-34-24-38-58(36-4-2)40-32-44-26-22-28-48-46(44)42-52(62)56-48/h21-22,25-28H,3-20,23-24,29-42H2,1-2H3,(H,53,59)(H,54,60)(H,55,61)(H,56,62)

> <PUBCHEM_IUPAC_INCHIKEY>
PZEAVQCQOCBSRA-UHFFFAOYSA-N

> <PUBCHEM_XLOGP3_AA>
11.2

> <PUBCHEM_EXACT_MASS>
856.65540518

> <PUBCHEM_MOLECULAR_FORMULA>
C52H84N6O4

> <PUBCHEM_MOLECULAR_WEIGHT>
857.3

> <PUBCHEM_OPENEYE_CAN_SMILES>
CCCN(CCCNC(=O)CCCCCCCCCCCCCCCCCCC(=O)NCCCN(CCC)CCC1=C2CC(=O)NC2=CC=C1)CCC3=C4CC(=O)NC4=CC=C3

> <PUBCHEM_OPENEYE_ISO_SMILES>
CCCN(CCCNC(=O)CCCCCCCCCCCCCCCCCCC(=O)NCCCN(CCC)CCC1=C2CC(=O)NC2=CC=C1)CCC3=C4CC(=O)NC4=CC=C3

> <PUBCHEM_CACTVS_TPSA>
123

> <PUBCHEM_MONOISOTOPIC_WEIGHT>
856.65540518

> <PUBCHEM_TOTAL_CHARGE>
0

> <PUBCHEM_HEAVY_ATOM_COUNT>
62

> <PUBCHEM_ATOM_DEF_STEREO_COUNT>
0

> <PUBCHEM_ATOM_UDEF_STEREO_COUNT>
0

> <PUBCHEM_BOND_DEF_STEREO_COUNT>
0

> <PUBCHEM_BOND_UDEF_STEREO_COUNT>
0

> <PUBCHEM_ISOTOPIC_ATOM_COUNT>
0

> <PUBCHEM_COMPONENT_COUNT>
1

> <PUBCHEM_CACTVS_TAUTO_COUNT>
-1

> <PUBCHEM_COORDINATE_TYPE>
1
5
255

> <PUBCHEM_BONDANNOTATIONS>
37  41  8
37  53  8
38  42  8
38  54  8
41  49  8
42  50  8
49  57  8
50  58  8
53  59  8
54  60  8
57  59  8
58  60  8

$$$$
