90645299
  -OEChem-09292322352D

 58 61  0     0  0  0  0  0  0999 V2000
   15.5920   -2.9744    0.0000 Cl  0  0  0  0  0  0  0  0  0  0  0  0
    5.5443   -0.0471    0.0000 S   0  0  0  0  0  0  0  0  0  0  0  0
   12.9939   -0.4744    0.0000 O   0  0  0  0  0  0  0  0  0  0  0  0
    7.6279    1.6237    0.0000 O   0  0  0  0  0  0  0  0  0  0  0  0
   10.1279   -0.9744    0.0000 N   0  0  0  0  0  0  0  0  0  0  0  0
    7.6279   -0.1084    0.0000 N   0  0  0  0  0  0  0  0  0  0  0  0
    3.7320   -0.2423    0.0000 N   0  0  0  0  0  0  0  0  0  0  0  0
    5.8550    2.5129    0.0000 N   0  0  0  0  0  0  0  0  0  0  0  0
   12.1279   -0.9744    0.0000 C   0  0  0  0  0  0  0  0  0  0  0  0
   11.6279   -0.1084    0.0000 C   0  0  0  0  0  0  0  0  0  0  0  0
   11.6279   -1.8404    0.0000 C   0  0  0  0  0  0  0  0  0  0  0  0
   10.6279   -0.1084    0.0000 C   0  0  0  0  0  0  0  0  0  0  0  0
   10.6279   -1.8404    0.0000 C   0  0  0  0  0  0  0  0  0  0  0  0
   12.9939   -1.4744    0.0000 C   0  0  0  0  0  0  0  0  0  0  0  0
    9.1279   -0.9744    0.0000 C   0  0  0  0  0  0  0  0  0  0  0  0
    8.6279   -0.1084    0.0000 C   0  0  0  0  0  0  0  0  0  0  0  0
   12.9939   -2.4744    0.0000 C   0  0  0  0  0  0  0  0  0  0  0  0
   13.8600   -0.9744    0.0000 C   0  0  0  0  0  0  0  0  0  0  0  0
   13.8600   -2.9744    0.0000 C   0  0  0  0  0  0  0  0  0  0  0  0
   14.7260   -1.4744    0.0000 C   0  0  0  0  0  0  0  0  0  0  0  0
   14.7260   -2.4744    0.0000 C   0  0  0  0  0  0  0  0  0  0  0  0
    7.1279    0.7577    0.0000 C   0  0  0  0  0  0  0  0  0  0  0  0
    6.1279    0.7577    0.0000 C   0  0  0  0  0  0  0  0  0  0  0  0
    5.5443    1.5624    0.0000 C   0  0  0  0  0  0  0  0  0  0  0  0
    4.5981    1.2577    0.0000 C   0  0  0  0  0  0  0  0  0  0  0  0
    4.5981    0.2577    0.0000 C   0  0  0  0  0  0  0  0  0  0  0  0
    3.7320    1.7577    0.0000 C   0  0  0  0  0  0  0  0  0  0  0  0
    2.8660    1.2577    0.0000 C   0  0  0  0  0  0  0  0  0  0  0  0
    2.8660    0.2577    0.0000 C   0  0  0  0  0  0  0  0  0  0  0  0
    3.7320    2.7577    0.0000 C   0  0  0  0  0  0  0  0  0  0  0  0
    2.0000   -0.2423    0.0000 C   0  0  0  0  0  0  0  0  0  0  0  0
   12.2105    0.1037    0.0000 H   0  0  0  0  0  0  0  0  0  0  0  0
   11.5202    0.5022    0.0000 H   0  0  0  0  0  0  0  0  0  0  0  0
   11.5202   -2.4510    0.0000 H   0  0  0  0  0  0  0  0  0  0  0  0
   12.2105   -2.0525    0.0000 H   0  0  0  0  0  0  0  0  0  0  0  0
   10.7356    0.5022    0.0000 H   0  0  0  0  0  0  0  0  0  0  0  0
   10.0453    0.1037    0.0000 H   0  0  0  0  0  0  0  0  0  0  0  0
   10.0453   -2.0525    0.0000 H   0  0  0  0  0  0  0  0  0  0  0  0
   10.7356   -2.4510    0.0000 H   0  0  0  0  0  0  0  0  0  0  0  0
    8.5453   -1.1864    0.0000 H   0  0  0  0  0  0  0  0  0  0  0  0
    9.2356   -1.5850    0.0000 H   0  0  0  0  0  0  0  0  0  0  0  0
   12.9939    0.1456    0.0000 H   0  0  0  0  0  0  0  0  0  0  0  0
    9.2105    0.1037    0.0000 H   0  0  0  0  0  0  0  0  0  0  0  0
    8.5202    0.5022    0.0000 H   0  0  0  0  0  0  0  0  0  0  0  0
   12.4570   -2.7844    0.0000 H   0  0  0  0  0  0  0  0  0  0  0  0
   13.8600   -0.3544    0.0000 H   0  0  0  0  0  0  0  0  0  0  0  0
    7.3179   -0.6453    0.0000 H   0  0  0  0  0  0  0  0  0  0  0  0
   13.8600   -3.5944    0.0000 H   0  0  0  0  0  0  0  0  0  0  0  0
   15.2629   -1.1644    0.0000 H   0  0  0  0  0  0  0  0  0  0  0  0
    2.3291    1.5677    0.0000 H   0  0  0  0  0  0  0  0  0  0  0  0
    6.4616    2.6408    0.0000 H   0  0  0  0  0  0  0  0  0  0  0  0
    5.4409    2.9744    0.0000 H   0  0  0  0  0  0  0  0  0  0  0  0
    4.3520    2.7577    0.0000 H   0  0  0  0  0  0  0  0  0  0  0  0
    3.7320    3.3777    0.0000 H   0  0  0  0  0  0  0  0  0  0  0  0
    3.1120    2.7577    0.0000 H   0  0  0  0  0  0  0  0  0  0  0  0
    1.6900    0.2946    0.0000 H   0  0  0  0  0  0  0  0  0  0  0  0
    1.4631   -0.5523    0.0000 H   0  0  0  0  0  0  0  0  0  0  0  0
    2.3100   -0.7793    0.0000 H   0  0  0  0  0  0  0  0  0  0  0  0
  1 21  1  0  0  0  0
  2 23  1  0  0  0  0
  2 26  1  0  0  0  0
  3  9  1  0  0  0  0
  3 42  1  0  0  0  0
  4 22  2  0  0  0  0
  5 12  1  0  0  0  0
  5 13  1  0  0  0  0
  5 15  1  0  0  0  0
  6 16  1  0  0  0  0
  6 22  1  0  0  0  0
  6 47  1  0  0  0  0
  7 26  1  0  0  0  0
  7 29  2  0  0  0  0
  8 24  1  0  0  0  0
  8 51  1  0  0  0  0
  8 52  1  0  0  0  0
  9 10  1  0  0  0  0
  9 11  1  0  0  0  0
  9 14  1  0  0  0  0
 10 12  1  0  0  0  0
 10 32  1  0  0  0  0
 10 33  1  0  0  0  0
 11 13  1  0  0  0  0
 11 34  1  0  0  0  0
 11 35  1  0  0  0  0
 12 36  1  0  0  0  0
 12 37  1  0  0  0  0
 13 38  1  0  0  0  0
 13 39  1  0  0  0  0
 14 17  2  0  0  0  0
 14 18  1  0  0  0  0
 15 16  1  0  0  0  0
 15 40  1  0  0  0  0
 15 41  1  0  0  0  0
 16 43  1  0  0  0  0
 16 44  1  0  0  0  0
 17 19  1  0  0  0  0
 17 45  1  0  0  0  0
 18 20  2  0  0  0  0
 18 46  1  0  0  0  0
 19 21  2  0  0  0  0
 19 48  1  0  0  0  0
 20 21  1  0  0  0  0
 20 49  1  0  0  0  0
 22 23  1  0  0  0  0
 23 24  2  0  0  0  0
 24 25  1  0  0  0  0
 25 26  2  0  0  0  0
 25 27  1  0  0  0  0
 27 28  2  0  0  0  0
 27 30  1  0  0  0  0
 28 29  1  0  0  0  0
 28 50  1  0  0  0  0
 29 31  1  0  0  0  0
 30 53  1  0  0  0  0
 30 54  1  0  0  0  0
 30 55  1  0  0  0  0
 31 56  1  0  0  0  0
 31 57  1  0  0  0  0
 31 58  1  0  0  0  0
M  END
> <PUBCHEM_COMPOUND_CID>
90645299

> <PUBCHEM_COMPOUND_CANONICALIZED>
1

> <PUBCHEM_CACTVS_COMPLEXITY>
625

> <PUBCHEM_CACTVS_HBOND_ACCEPTOR>
6

> <PUBCHEM_CACTVS_HBOND_DONOR>
3

> <PUBCHEM_CACTVS_ROTATABLE_BOND>
5

> <PUBCHEM_CACTVS_SUBSKEYS>
AAADceB7sABEAAAAAAAAAAAAAAAAASAAAAA8WIAAAAAAAFgB/AAAHgYQCAAADE7B3iQywdPIEgisAyVyVACD0KBlDzgImLU4btgIZnrh19GUdYxm1gHo2UeYyeCOhAAAAAAAAAAIAAAAAAAAAAAAAAAAAA==

> <PUBCHEM_IUPAC_OPENEYE_NAME>
3-amino-N-[2-[4-(4-chlorophenyl)-4-hydroxy-1-piperidyl]ethyl]-4,6-dimethyl-thieno[2,3-b]pyridine-2-carboxamide

> <PUBCHEM_IUPAC_CAS_NAME>
3-amino-N-[2-[4-(4-chlorophenyl)-4-hydroxy-1-piperidinyl]ethyl]-4,6-dimethyl-2-thieno[2,3-b]pyridinecarboxamide

> <PUBCHEM_IUPAC_NAME_MARKUP>
3-amino-<I>N</I>-[2-[4-(4-chlorophenyl)-4-hydroxypiperidin-1-yl]ethyl]-4,6-dimethylthieno[2,3-b]pyridine-2-carboxamide

> <PUBCHEM_IUPAC_NAME>
3-amino-N-[2-[4-(4-chlorophenyl)-4-hydroxypiperidin-1-yl]ethyl]-4,6-dimethylthieno[2,3-b]pyridine-2-carboxamide

> <PUBCHEM_IUPAC_SYSTEMATIC_NAME>
3-azanyl-N-[2-[4-(4-chlorophenyl)-4-oxidanyl-piperidin-1-yl]ethyl]-4,6-dimethyl-thieno[2,3-b]pyridine-2-carboxamide

> <PUBCHEM_IUPAC_TRADITIONAL_NAME>
3-amino-N-[2-[4-(4-chlorophenyl)-4-hydroxy-piperidino]ethyl]-4,6-dimethyl-thieno[2,3-b]pyridine-2-carboxamide

> <PUBCHEM_IUPAC_INCHI>
InChI=1S/C23H27ClN4O2S/c1-14-13-15(2)27-22-18(14)19(25)20(31-22)21(29)26-9-12-28-10-7-23(30,8-11-28)16-3-5-17(24)6-4-16/h3-6,13,30H,7-12,25H2,1-2H3,(H,26,29)

> <PUBCHEM_IUPAC_INCHIKEY>
KGFRNHHUAVUXQB-UHFFFAOYSA-N

> <PUBCHEM_XLOGP3_AA>
4.3

> <PUBCHEM_EXACT_MASS>
458.1543250

> <PUBCHEM_MOLECULAR_FORMULA>
C23H27ClN4O2S

> <PUBCHEM_MOLECULAR_WEIGHT>
459.0

> <PUBCHEM_OPENEYE_CAN_SMILES>
CC1=CC(=NC2=C1C(=C(S2)C(=O)NCCN3CCC(CC3)(C4=CC=C(C=C4)Cl)O)N)C

> <PUBCHEM_OPENEYE_ISO_SMILES>
CC1=CC(=NC2=C1C(=C(S2)C(=O)NCCN3CCC(CC3)(C4=CC=C(C=C4)Cl)O)N)C

> <PUBCHEM_CACTVS_TPSA>
120

> <PUBCHEM_MONOISOTOPIC_WEIGHT>
458.1543250

> <PUBCHEM_TOTAL_CHARGE>
0

> <PUBCHEM_HEAVY_ATOM_COUNT>
31

> <PUBCHEM_ATOM_DEF_STEREO_COUNT>
0

> <PUBCHEM_ATOM_UDEF_STEREO_COUNT>
0

> <PUBCHEM_BOND_DEF_STEREO_COUNT>
0

> <PUBCHEM_BOND_UDEF_STEREO_COUNT>
0

> <PUBCHEM_ISOTOPIC_ATOM_COUNT>
0

> <PUBCHEM_COMPONENT_COUNT>
1

> <PUBCHEM_CACTVS_TAUTO_COUNT>
-1

> <PUBCHEM_COORDINATE_TYPE>
1
5
255

> <PUBCHEM_BONDANNOTATIONS>
14  17  8
14  18  8
17  19  8
18  20  8
19  21  8
2  23  8
2  26  8
20  21  8
23  24  8
24  25  8
25  26  8
25  27  8
27  28  8
28  29  8
7  26  8
7  29  8

$$$$
