118719798
  -OEChem-09292322362D

 65 69  0     0  0  0  0  0  0999 V2000
    3.3660   -7.7407    0.0000 S   0  0  0  0  0  0  0  0  0  0  0  0
    7.4805    5.0001    0.0000 O   0  0  0  0  0  0  0  0  0  0  0  0
    4.3159    3.5911    0.0000 N   0  0  0  0  0  0  0  0  0  0  0  0
    5.4915    5.2091    0.0000 N   0  0  0  0  0  0  0  0  0  0  0  0
    2.8660   -2.2019    0.0000 N   0  0  0  0  0  0  0  0  0  0  0  0
    2.3660   -0.6630    0.0000 N   0  0  0  0  0  0  0  0  0  0  0  0
    2.0570   -1.6141    0.0000 N   0  0  0  0  0  0  0  0  0  0  0  0
    5.3104    3.4866    0.0000 C   0  0  0  0  0  0  0  0  0  0  0  0
    3.9092    4.5046    0.0000 C   0  0  0  0  0  0  0  0  0  0  0  0
    5.8982    4.2956    0.0000 C   0  0  0  0  0  0  0  0  0  0  0  0
    4.4970    5.3137    0.0000 C   0  0  0  0  0  0  0  0  0  0  0  0
    3.7281    2.7821    0.0000 C   0  0  0  0  0  0  0  0  0  0  0  0
    4.1349    1.8685    0.0000 C   0  0  0  0  0  0  0  0  0  0  0  0
    6.0793    6.0182    0.0000 C   0  0  0  0  0  0  0  0  0  0  0  0
    3.5471    1.0595    0.0000 C   0  0  0  0  0  0  0  0  0  0  0  0
    3.9538    0.1460    0.0000 C   0  0  0  0  0  0  0  0  0  0  0  0
    7.0738    5.9136    0.0000 C   0  0  0  0  0  0  0  0  0  0  0  0
    5.6725    6.9317    0.0000 C   0  0  0  0  0  0  0  0  0  0  0  0
    3.3660   -0.6630    0.0000 C   0  0  0  0  0  0  0  0  0  0  0  0
    7.6616    6.7226    0.0000 C   0  0  0  0  0  0  0  0  0  0  0  0
    6.2603    7.7407    0.0000 C   0  0  0  0  0  0  0  0  0  0  0  0
    7.2548    7.6362    0.0000 C   0  0  0  0  0  0  0  0  0  0  0  0
    3.6750   -1.6141    0.0000 C   0  0  0  0  0  0  0  0  0  0  0  0
    2.8660   -3.2019    0.0000 C   0  0  0  0  0  0  0  0  0  0  0  0
    8.4750    4.8956    0.0000 C   0  0  0  0  0  0  0  0  0  0  0  0
    3.7320   -3.7019    0.0000 C   0  0  0  0  0  0  0  0  0  0  0  0
    2.0000   -3.7019    0.0000 C   0  0  0  0  0  0  0  0  0  0  0  0
    2.8660   -5.2019    0.0000 C   0  0  0  0  0  0  0  0  0  0  0  0
    3.7320   -4.7019    0.0000 C   0  0  0  0  0  0  0  0  0  0  0  0
    2.0000   -4.7019    0.0000 C   0  0  0  0  0  0  0  0  0  0  0  0
    2.8660   -6.2019    0.0000 C   0  0  0  0  0  0  0  0  0  0  0  0
    2.0570   -6.7897    0.0000 C   0  0  0  0  0  0  0  0  0  0  0  0
    3.6750   -6.7897    0.0000 C   0  0  0  0  0  0  0  0  0  0  0  0
    2.3660   -7.7407    0.0000 C   0  0  0  0  0  0  0  0  0  0  0  0
    5.1395    2.8906    0.0000 H   0  0  0  0  0  0  0  0  0  0  0  0
    5.8677    3.2148    0.0000 H   0  0  0  0  0  0  0  0  0  0  0  0
    3.4785    4.9506    0.0000 H   0  0  0  0  0  0  0  0  0  0  0  0
    3.3952    4.1579    0.0000 H   0  0  0  0  0  0  0  0  0  0  0  0
    6.3289    3.8496    0.0000 H   0  0  0  0  0  0  0  0  0  0  0  0
    6.4122    4.6423    0.0000 H   0  0  0  0  0  0  0  0  0  0  0  0
    4.6678    5.9096    0.0000 H   0  0  0  0  0  0  0  0  0  0  0  0
    3.9397    5.5855    0.0000 H   0  0  0  0  0  0  0  0  0  0  0  0
    3.2974    3.2281    0.0000 H   0  0  0  0  0  0  0  0  0  0  0  0
    3.2141    2.4354    0.0000 H   0  0  0  0  0  0  0  0  0  0  0  0
    4.5656    1.4226    0.0000 H   0  0  0  0  0  0  0  0  0  0  0  0
    4.6489    2.2152    0.0000 H   0  0  0  0  0  0  0  0  0  0  0  0
    3.1164    1.5055    0.0000 H   0  0  0  0  0  0  0  0  0  0  0  0
    3.0331    0.7128    0.0000 H   0  0  0  0  0  0  0  0  0  0  0  0
    4.3845   -0.3000    0.0000 H   0  0  0  0  0  0  0  0  0  0  0  0
    4.4678    0.4927    0.0000 H   0  0  0  0  0  0  0  0  0  0  0  0
    5.0559    6.9965    0.0000 H   0  0  0  0  0  0  0  0  0  0  0  0
    8.2782    6.6578    0.0000 H   0  0  0  0  0  0  0  0  0  0  0  0
    6.0081    8.3071    0.0000 H   0  0  0  0  0  0  0  0  0  0  0  0
    7.6193    8.1378    0.0000 H   0  0  0  0  0  0  0  0  0  0  0  0
    4.2647   -1.8057    0.0000 H   0  0  0  0  0  0  0  0  0  0  0  0
    8.4102    4.2790    0.0000 H   0  0  0  0  0  0  0  0  0  0  0  0
    9.0916    4.8308    0.0000 H   0  0  0  0  0  0  0  0  0  0  0  0
    8.5398    5.5122    0.0000 H   0  0  0  0  0  0  0  0  0  0  0  0
    4.2690   -3.3919    0.0000 H   0  0  0  0  0  0  0  0  0  0  0  0
    1.4631   -3.3919    0.0000 H   0  0  0  0  0  0  0  0  0  0  0  0
    4.2690   -5.0119    0.0000 H   0  0  0  0  0  0  0  0  0  0  0  0
    1.4631   -5.0119    0.0000 H   0  0  0  0  0  0  0  0  0  0  0  0
    1.4674   -6.5981    0.0000 H   0  0  0  0  0  0  0  0  0  0  0  0
    4.2647   -6.5981    0.0000 H   0  0  0  0  0  0  0  0  0  0  0  0
    2.0016   -8.2423    0.0000 H   0  0  0  0  0  0  0  0  0  0  0  0
  1 33  1  0  0  0  0
  1 34  1  0  0  0  0
  2 17  1  0  0  0  0
  2 25  1  0  0  0  0
  3  8  1  0  0  0  0
  3  9  1  0  0  0  0
  3 12  1  0  0  0  0
  4 10  1  0  0  0  0
  4 11  1  0  0  0  0
  4 14  1  0  0  0  0
  5  7  1  0  0  0  0
  5 23  1  0  0  0  0
  5 24  1  0  0  0  0
  6  7  2  0  0  0  0
  6 19  1  0  0  0  0
  8 10  1  0  0  0  0
  8 35  1  0  0  0  0
  8 36  1  0  0  0  0
  9 11  1  0  0  0  0
  9 37  1  0  0  0  0
  9 38  1  0  0  0  0
 10 39  1  0  0  0  0
 10 40  1  0  0  0  0
 11 41  1  0  0  0  0
 11 42  1  0  0  0  0
 12 13  1  0  0  0  0
 12 43  1  0  0  0  0
 12 44  1  0  0  0  0
 13 15  1  0  0  0  0
 13 45  1  0  0  0  0
 13 46  1  0  0  0  0
 14 17  1  0  0  0  0
 14 18  2  0  0  0  0
 15 16  1  0  0  0  0
 15 47  1  0  0  0  0
 15 48  1  0  0  0  0
 16 19  1  0  0  0  0
 16 49  1  0  0  0  0
 16 50  1  0  0  0  0
 17 20  2  0  0  0  0
 18 21  1  0  0  0  0
 18 51  1  0  0  0  0
 19 23  2  0  0  0  0
 20 22  1  0  0  0  0
 20 52  1  0  0  0  0
 21 22  2  0  0  0  0
 21 53  1  0  0  0  0
 22 54  1  0  0  0  0
 23 55  1  0  0  0  0
 24 26  2  0  0  0  0
 24 27  1  0  0  0  0
 25 56  1  0  0  0  0
 25 57  1  0  0  0  0
 25 58  1  0  0  0  0
 26 29  1  0  0  0  0
 26 59  1  0  0  0  0
 27 30  2  0  0  0  0
 27 60  1  0  0  0  0
 28 29  2  0  0  0  0
 28 30  1  0  0  0  0
 28 31  1  0  0  0  0
 29 61  1  0  0  0  0
 30 62  1  0  0  0  0
 31 32  1  0  0  0  0
 31 33  2  0  0  0  0
 32 34  2  0  0  0  0
 32 63  1  0  0  0  0
 33 64  1  0  0  0  0
 34 65  1  0  0  0  0
M  END
> <PUBCHEM_COMPOUND_CID>
118719798

> <PUBCHEM_COMPOUND_CANONICALIZED>
1

> <PUBCHEM_CACTVS_COMPLEXITY>
596

> <PUBCHEM_CACTVS_HBOND_ACCEPTOR>
6

> <PUBCHEM_CACTVS_HBOND_DONOR>
0

> <PUBCHEM_CACTVS_ROTATABLE_BOND>
9

> <PUBCHEM_CACTVS_SUBSKEYS>
AAADceB7oABAAAAAAAAAAAAAAAAAAWJAAAA8YIAAAAAAAAAB9AAAHgQIAAAADAzF3ga+x5MIBAimAzRnRACDDKQxuhBYmBg/fIgOZmLksZuVMChkwBH46AeQwMAOiAAAAAAAEAAQAAAAAAAgAAAAAAAAAA==

> <PUBCHEM_IUPAC_OPENEYE_NAME>
1-(2-methoxyphenyl)-4-[4-[1-[4-(3-thienyl)phenyl]triazol-4-yl]butyl]piperazine

> <PUBCHEM_IUPAC_CAS_NAME>
1-(2-methoxyphenyl)-4-[4-[1-[4-(3-thiophenyl)phenyl]-4-triazolyl]butyl]piperazine

> <PUBCHEM_IUPAC_NAME_MARKUP>
1-(2-methoxyphenyl)-4-[4-[1-(4-thiophen-3-ylphenyl)triazol-4-yl]butyl]piperazine

> <PUBCHEM_IUPAC_NAME>
1-(2-methoxyphenyl)-4-[4-[1-(4-thiophen-3-ylphenyl)triazol-4-yl]butyl]piperazine

> <PUBCHEM_IUPAC_SYSTEMATIC_NAME>
1-(2-methoxyphenyl)-4-[4-[1-(4-thiophen-3-ylphenyl)-1,2,3-triazol-4-yl]butyl]piperazine

> <PUBCHEM_IUPAC_TRADITIONAL_NAME>
1-(2-methoxyphenyl)-4-[4-[1-[4-(3-thienyl)phenyl]triazol-4-yl]butyl]piperazine

> <PUBCHEM_IUPAC_INCHI>
InChI=1S/C27H31N5OS/c1-33-27-8-3-2-7-26(27)31-17-15-30(16-18-31)14-5-4-6-24-20-32(29-28-24)25-11-9-22(10-12-25)23-13-19-34-21-23/h2-3,7-13,19-21H,4-6,14-18H2,1H3

> <PUBCHEM_IUPAC_INCHIKEY>
XDFFHOCWALNYAJ-UHFFFAOYSA-N

> <PUBCHEM_XLOGP3_AA>
5.3

> <PUBCHEM_EXACT_MASS>
473.22493180

> <PUBCHEM_MOLECULAR_FORMULA>
C27H31N5OS

> <PUBCHEM_MOLECULAR_WEIGHT>
473.6

> <PUBCHEM_OPENEYE_CAN_SMILES>
COC1=CC=CC=C1N2CCN(CC2)CCCCC3=CN(N=N3)C4=CC=C(C=C4)C5=CSC=C5

> <PUBCHEM_OPENEYE_ISO_SMILES>
COC1=CC=CC=C1N2CCN(CC2)CCCCC3=CN(N=N3)C4=CC=C(C=C4)C5=CSC=C5

> <PUBCHEM_CACTVS_TPSA>
74.7

> <PUBCHEM_MONOISOTOPIC_WEIGHT>
473.22493180

> <PUBCHEM_TOTAL_CHARGE>
0

> <PUBCHEM_HEAVY_ATOM_COUNT>
34

> <PUBCHEM_ATOM_DEF_STEREO_COUNT>
0

> <PUBCHEM_ATOM_UDEF_STEREO_COUNT>
0

> <PUBCHEM_BOND_DEF_STEREO_COUNT>
0

> <PUBCHEM_BOND_UDEF_STEREO_COUNT>
0

> <PUBCHEM_ISOTOPIC_ATOM_COUNT>
0

> <PUBCHEM_COMPONENT_COUNT>
1

> <PUBCHEM_CACTVS_TAUTO_COUNT>
-1

> <PUBCHEM_COORDINATE_TYPE>
1
5
255

> <PUBCHEM_BONDANNOTATIONS>
1  33  8
1  34  8
14  17  8
14  18  8
17  20  8
18  21  8
19  23  8
20  22  8
21  22  8
24  26  8
24  27  8
26  29  8
27  30  8
28  29  8
28  30  8
31  32  8
31  33  8
32  34  8
5  23  8
5  7  8
6  19  8
6  7  8

$$$$
