44350826
  -OEChem-09292322122D

 61 62  0     0  0  0  0  0  0999 V2000
   12.2711   12.6200    0.0000 I   0  0  0  0  0  0  0  0  0  0  0  0
    7.0749    2.6200    0.0000 O   0  0  0  0  0  0  0  0  0  0  0  0
    9.6730   10.1200    0.0000 O   0  0  0  0  0  0  0  0  0  0  0  0
    3.1350    6.0600    0.0000 O   0  0  0  0  0  0  0  0  0  0  0  0
    0.5369    6.5600    0.0000 O   0  0  0  0  0  0  0  0  0  0  0  0
    2.2690    7.5600    0.0000 O   0  0  0  0  0  0  0  0  0  0  0  0
    1.4030    5.0600    0.0000 O   0  0  0  0  0  0  0  0  0  0  0  0
    8.8070    5.6200    0.0000 N   0  0  0  0  0  0  0  0  0  0  0  0
    8.8070    3.6200    0.0000 N   0  0  0  0  0  0  0  0  0  0  0  0
   10.5390    8.6200    0.0000 N   0  0  0  0  0  0  0  0  0  0  0  0
    9.6730    5.1200    0.0000 C   0  0  0  0  0  0  0  0  0  0  0  0
    7.9409    5.1200    0.0000 C   0  0  0  0  0  0  0  0  0  0  0  0
    9.6730    4.1200    0.0000 C   0  0  0  0  0  0  0  0  0  0  0  0
    7.9409    4.1200    0.0000 C   0  0  0  0  0  0  0  0  0  0  0  0
    8.8070    6.6200    0.0000 C   0  0  0  0  0  0  0  0  0  0  0  0
    9.6730    7.1200    0.0000 C   0  0  0  0  0  0  0  0  0  0  0  0
    8.8070    2.6200    0.0000 C   0  0  0  0  0  0  0  0  0  0  0  0
    9.6730    8.1200    0.0000 C   0  0  0  0  0  0  0  0  0  0  0  0
    7.9409    2.1200    0.0000 C   0  0  0  0  0  0  0  0  0  0  0  0
    9.6730    2.1200    0.0000 C   0  0  0  0  0  0  0  0  0  0  0  0
    7.9409    1.1200    0.0000 C   0  0  0  0  0  0  0  0  0  0  0  0
    9.6730    1.1200    0.0000 C   0  0  0  0  0  0  0  0  0  0  0  0
    8.8070    0.6200    0.0000 C   0  0  0  0  0  0  0  0  0  0  0  0
   10.5390    9.6200    0.0000 C   0  0  0  0  0  0  0  0  0  0  0  0
    6.2089    2.1200    0.0000 C   0  0  0  0  0  0  0  0  0  0  0  0
   11.4050   10.1200    0.0000 C   0  0  0  0  0  0  0  0  0  0  0  0
   11.4050   11.1200    0.0000 C   0  0  0  0  0  0  0  0  0  0  0  0
   12.2711    9.6200    0.0000 C   0  0  0  0  0  0  0  0  0  0  0  0
   12.2711   11.6200    0.0000 C   0  0  0  0  0  0  0  0  0  0  0  0
   13.1371   10.1200    0.0000 C   0  0  0  0  0  0  0  0  0  0  0  0
   13.1371   11.1200    0.0000 C   0  0  0  0  0  0  0  0  0  0  0  0
    2.2690    6.5600    0.0000 C   0  0  0  0  0  0  0  0  0  0  0  0
    1.4030    6.0600    0.0000 C   0  0  0  0  0  0  0  0  0  0  0  0
   10.2836    5.0123    0.0000 H   0  0  0  0  0  0  0  0  0  0  0  0
    9.8850    5.7026    0.0000 H   0  0  0  0  0  0  0  0  0  0  0  0
    7.7289    5.7026    0.0000 H   0  0  0  0  0  0  0  0  0  0  0  0
    7.3304    5.0123    0.0000 H   0  0  0  0  0  0  0  0  0  0  0  0
    9.8850    3.5374    0.0000 H   0  0  0  0  0  0  0  0  0  0  0  0
   10.2836    4.2277    0.0000 H   0  0  0  0  0  0  0  0  0  0  0  0
    7.3304    4.2277    0.0000 H   0  0  0  0  0  0  0  0  0  0  0  0
    7.7289    3.5374    0.0000 H   0  0  0  0  0  0  0  0  0  0  0  0
    8.5949    7.2026    0.0000 H   0  0  0  0  0  0  0  0  0  0  0  0
    8.1964    6.5123    0.0000 H   0  0  0  0  0  0  0  0  0  0  0  0
    9.8850    6.5374    0.0000 H   0  0  0  0  0  0  0  0  0  0  0  0
   10.2836    7.2277    0.0000 H   0  0  0  0  0  0  0  0  0  0  0  0
    9.4609    8.7026    0.0000 H   0  0  0  0  0  0  0  0  0  0  0  0
    9.0624    8.0123    0.0000 H   0  0  0  0  0  0  0  0  0  0  0  0
   10.2099    2.4300    0.0000 H   0  0  0  0  0  0  0  0  0  0  0  0
   11.0759    8.3100    0.0000 H   0  0  0  0  0  0  0  0  0  0  0  0
    7.4040    0.8100    0.0000 H   0  0  0  0  0  0  0  0  0  0  0  0
   10.2099    0.8100    0.0000 H   0  0  0  0  0  0  0  0  0  0  0  0
    8.8070    0.0000    0.0000 H   0  0  0  0  0  0  0  0  0  0  0  0
    5.8989    2.6569    0.0000 H   0  0  0  0  0  0  0  0  0  0  0  0
    5.6720    1.8100    0.0000 H   0  0  0  0  0  0  0  0  0  0  0  0
    6.5189    1.5831    0.0000 H   0  0  0  0  0  0  0  0  0  0  0  0
   10.8681   11.4300    0.0000 H   0  0  0  0  0  0  0  0  0  0  0  0
   12.2711    9.0000    0.0000 H   0  0  0  0  0  0  0  0  0  0  0  0
   13.6740    9.8100    0.0000 H   0  0  0  0  0  0  0  0  0  0  0  0
   13.6740   11.4300    0.0000 H   0  0  0  0  0  0  0  0  0  0  0  0
    3.6720    6.3700    0.0000 H   0  0  0  0  0  0  0  0  0  0  0  0
    0.0000    6.2500    0.0000 H   0  0  0  0  0  0  0  0  0  0  0  0
  1 29  1  0  0  0  0
  2 19  1  0  0  0  0
  2 25  1  0  0  0  0
  3 24  2  0  0  0  0
  4 32  1  0  0  0  0
  4 60  1  0  0  0  0
  5 33  1  0  0  0  0
  5 61  1  0  0  0  0
  6 32  2  0  0  0  0
  7 33  2  0  0  0  0
  8 11  1  0  0  0  0
  8 12  1  0  0  0  0
  8 15  1  0  0  0  0
  9 13  1  0  0  0  0
  9 14  1  0  0  0  0
  9 17  1  0  0  0  0
 10 18  1  0  0  0  0
 10 24  1  0  0  0  0
 10 49  1  0  0  0  0
 11 13  1  0  0  0  0
 11 34  1  0  0  0  0
 11 35  1  0  0  0  0
 12 14  1  0  0  0  0
 12 36  1  0  0  0  0
 12 37  1  0  0  0  0
 13 38  1  0  0  0  0
 13 39  1  0  0  0  0
 14 40  1  0  0  0  0
 14 41  1  0  0  0  0
 15 16  1  0  0  0  0
 15 42  1  0  0  0  0
 15 43  1  0  0  0  0
 16 18  1  0  0  0  0
 16 44  1  0  0  0  0
 16 45  1  0  0  0  0
 17 19  1  0  0  0  0
 17 20  2  0  0  0  0
 18 46  1  0  0  0  0
 18 47  1  0  0  0  0
 19 21  2  0  0  0  0
 20 22  1  0  0  0  0
 20 48  1  0  0  0  0
 21 23  1  0  0  0  0
 21 50  1  0  0  0  0
 22 23  2  0  0  0  0
 22 51  1  0  0  0  0
 23 52  1  0  0  0  0
 24 26  1  0  0  0  0
 25 53  1  0  0  0  0
 25 54  1  0  0  0  0
 25 55  1  0  0  0  0
 26 27  2  0  0  0  0
 26 28  1  0  0  0  0
 27 29  1  0  0  0  0
 27 56  1  0  0  0  0
 28 30  2  0  0  0  0
 28 57  1  0  0  0  0
 29 31  2  0  0  0  0
 30 31  1  0  0  0  0
 30 58  1  0  0  0  0
 31 59  1  0  0  0  0
 32 33  1  0  0  0  0
M  END
> <PUBCHEM_COMPOUND_CID>
44350826

> <PUBCHEM_COMPOUND_CANONICALIZED>
1

> <PUBCHEM_CACTVS_COMPLEXITY>
528

> <PUBCHEM_CACTVS_HBOND_ACCEPTOR>
8

> <PUBCHEM_CACTVS_HBOND_DONOR>
3

> <PUBCHEM_CACTVS_ROTATABLE_BOND>
8

> <PUBCHEM_CACTVS_SUBSKEYS>
AAADceB7OAAAAgAAAAAAAAAAAAAAAAAAAAA8YIAAAAAAAAABQAAAHgAwCAAADAzDmAYyzoPABgCIAiXSWAKCCAAlIgAIiIFPbMgPZjLE9ZuVMShk1hHZ6YeYyACOAAAAAAAAEAAAAAAAAAAgAAAAAAAAAA==

> <PUBCHEM_IUPAC_OPENEYE_NAME>
3-iodo-N-[3-[4-(2-methoxyphenyl)piperazin-1-yl]propyl]benzamide;oxalic acid

> <PUBCHEM_IUPAC_CAS_NAME>
3-iodo-N-[3-[4-(2-methoxyphenyl)-1-piperazinyl]propyl]benzamide;oxalic acid

> <PUBCHEM_IUPAC_NAME_MARKUP>
3-iodo-<I>N</I>-[3-[4-(2-methoxyphenyl)piperazin-1-yl]propyl]benzamide;oxalic acid

> <PUBCHEM_IUPAC_NAME>
3-iodo-N-[3-[4-(2-methoxyphenyl)piperazin-1-yl]propyl]benzamide;oxalic acid

> <PUBCHEM_IUPAC_SYSTEMATIC_NAME>
ethanedioic acid;3-iodanyl-N-[3-[4-(2-methoxyphenyl)piperazin-1-yl]propyl]benzamide

> <PUBCHEM_IUPAC_TRADITIONAL_NAME>
3-iodo-N-[3-[4-(2-methoxyphenyl)piperazino]propyl]benzamide;oxalic acid

> <PUBCHEM_IUPAC_INCHI>
InChI=1S/C21H26IN3O2.C2H2O4/c1-27-20-9-3-2-8-19(20)25-14-12-24(13-15-25)11-5-10-23-21(26)17-6-4-7-18(22)16-17;3-1(4)2(5)6/h2-4,6-9,16H,5,10-15H2,1H3,(H,23,26);(H,3,4)(H,5,6)

> <PUBCHEM_IUPAC_INCHIKEY>
FQFAEOHBSDKUHF-UHFFFAOYSA-N

> <PUBCHEM_EXACT_MASS>
569.10228

> <PUBCHEM_MOLECULAR_FORMULA>
C23H28IN3O6

> <PUBCHEM_MOLECULAR_WEIGHT>
569.4

> <PUBCHEM_OPENEYE_CAN_SMILES>
COC1=CC=CC=C1N2CCN(CC2)CCCNC(=O)C3=CC(=CC=C3)I.C(=O)(C(=O)O)O

> <PUBCHEM_OPENEYE_ISO_SMILES>
COC1=CC=CC=C1N2CCN(CC2)CCCNC(=O)C3=CC(=CC=C3)I.C(=O)(C(=O)O)O

> <PUBCHEM_CACTVS_TPSA>
119

> <PUBCHEM_MONOISOTOPIC_WEIGHT>
569.10228

> <PUBCHEM_TOTAL_CHARGE>
0

> <PUBCHEM_HEAVY_ATOM_COUNT>
33

> <PUBCHEM_ATOM_DEF_STEREO_COUNT>
0

> <PUBCHEM_ATOM_UDEF_STEREO_COUNT>
0

> <PUBCHEM_BOND_DEF_STEREO_COUNT>
0

> <PUBCHEM_BOND_UDEF_STEREO_COUNT>
0

> <PUBCHEM_ISOTOPIC_ATOM_COUNT>
0

> <PUBCHEM_COMPONENT_COUNT>
2

> <PUBCHEM_CACTVS_TAUTO_COUNT>
-1

> <PUBCHEM_COORDINATE_TYPE>
1
5
255

> <PUBCHEM_BONDANNOTATIONS>
17  19  8
17  20  8
19  21  8
20  22  8
21  23  8
22  23  8
26  27  8
26  28  8
27  29  8
28  30  8
29  31  8
30  31  8

$$$$
