164615296
  -OEChem-09292322432D

 70 74  0     0  0  0  0  0  0999 V2000
    2.0000   -6.9148    0.0000 F   0  0  0  0  0  0  0  0  0  0  0  0
    5.5443   -6.7196    0.0000 O   0  0  0  0  0  0  0  0  0  0  0  0
    9.0546    0.0550    0.0000 O   0  0  0  0  0  0  0  0  0  0  0  0
    6.4763   -2.2585    0.0000 N   0  0  0  0  0  0  0  0  0  0  0  0
   11.5864    5.0138    0.0000 N   0  0  0  0  0  0  0  0  0  0  0  0
    6.1279   -5.9148    0.0000 N   0  0  0  0  0  0  0  0  0  0  0  0
    5.8550   -4.1596    0.0000 C   0  0  0  0  0  0  0  0  0  0  0  0
    6.8335   -3.9533    0.0000 C   0  0  0  0  0  0  0  0  0  0  0  0
    5.1871   -3.4153    0.0000 C   0  0  0  0  0  0  0  0  0  0  0  0
    7.1441   -3.0028    0.0000 C   0  0  0  0  0  0  0  0  0  0  0  0
    5.4978   -2.4647    0.0000 C   0  0  0  0  0  0  0  0  0  0  0  0
    6.7870   -1.3080    0.0000 C   0  0  0  0  0  0  0  0  0  0  0  0
    5.5443   -5.1101    0.0000 C   0  0  0  0  0  0  0  0  0  0  0  0
    7.7654   -1.1018    0.0000 C   0  0  0  0  0  0  0  0  0  0  0  0
   10.9186    5.7581    0.0000 C   0  0  0  0  0  0  0  0  0  0  0  0
   12.5649    5.2200    0.0000 C   0  0  0  0  0  0  0  0  0  0  0  0
   11.2293    6.7086    0.0000 C   0  0  0  0  0  0  0  0  0  0  0  0
   12.8756    6.1705    0.0000 C   0  0  0  0  0  0  0  0  0  0  0  0
   12.2078    6.9148    0.0000 C   0  0  0  0  0  0  0  0  0  0  0  0
    4.5981   -5.4148    0.0000 C   0  0  0  0  0  0  0  0  0  0  0  0
   11.2758    4.0633    0.0000 C   0  0  0  0  0  0  0  0  0  0  0  0
    8.0761   -0.1513    0.0000 C   0  0  0  0  0  0  0  0  0  0  0  0
    4.5981   -6.4148    0.0000 C   0  0  0  0  0  0  0  0  0  0  0  0
   10.2973    3.8570    0.0000 C   0  0  0  0  0  0  0  0  0  0  0  0
    3.7320   -4.9148    0.0000 C   0  0  0  0  0  0  0  0  0  0  0  0
    9.9866    2.9065    0.0000 C   0  0  0  0  0  0  0  0  0  0  0  0
    3.7320   -6.9148    0.0000 C   0  0  0  0  0  0  0  0  0  0  0  0
    2.8660   -5.4148    0.0000 C   0  0  0  0  0  0  0  0  0  0  0  0
    9.3653    1.0055    0.0000 C   0  0  0  0  0  0  0  0  0  0  0  0
    2.8660   -6.4148    0.0000 C   0  0  0  0  0  0  0  0  0  0  0  0
   10.6545    2.1622    0.0000 C   0  0  0  0  0  0  0  0  0  0  0  0
    9.0081    2.7003    0.0000 C   0  0  0  0  0  0  0  0  0  0  0  0
   10.3438    1.2117    0.0000 C   0  0  0  0  0  0  0  0  0  0  0  0
    8.6974    1.7498    0.0000 C   0  0  0  0  0  0  0  0  0  0  0  0
    6.2690   -4.6210    0.0000 H   0  0  0  0  0  0  0  0  0  0  0  0
    6.8540   -4.5730    0.0000 H   0  0  0  0  0  0  0  0  0  0  0  0
    7.4473   -4.0407    0.0000 H   0  0  0  0  0  0  0  0  0  0  0  0
    4.6402   -3.1232    0.0000 H   0  0  0  0  0  0  0  0  0  0  0  0
    4.8046   -3.9032    0.0000 H   0  0  0  0  0  0  0  0  0  0  0  0
    7.6910   -3.2948    0.0000 H   0  0  0  0  0  0  0  0  0  0  0  0
    7.5267   -2.5149    0.0000 H   0  0  0  0  0  0  0  0  0  0  0  0
    5.4772   -1.8451    0.0000 H   0  0  0  0  0  0  0  0  0  0  0  0
    4.8840   -2.3774    0.0000 H   0  0  0  0  0  0  0  0  0  0  0  0
    6.7664   -0.6883    0.0000 H   0  0  0  0  0  0  0  0  0  0  0  0
    6.1731   -1.2206    0.0000 H   0  0  0  0  0  0  0  0  0  0  0  0
    7.7860   -1.7214    0.0000 H   0  0  0  0  0  0  0  0  0  0  0  0
    8.3793   -1.1891    0.0000 H   0  0  0  0  0  0  0  0  0  0  0  0
   10.3717    6.0501    0.0000 H   0  0  0  0  0  0  0  0  0  0  0  0
   10.5360    5.2702    0.0000 H   0  0  0  0  0  0  0  0  0  0  0  0
   12.5855    4.6003    0.0000 H   0  0  0  0  0  0  0  0  0  0  0  0
   13.1788    5.1326    0.0000 H   0  0  0  0  0  0  0  0  0  0  0  0
   11.2087    7.3283    0.0000 H   0  0  0  0  0  0  0  0  0  0  0  0
   10.6154    6.7960    0.0000 H   0  0  0  0  0  0  0  0  0  0  0  0
   13.4225    5.8785    0.0000 H   0  0  0  0  0  0  0  0  0  0  0  0
   13.2582    6.6584    0.0000 H   0  0  0  0  0  0  0  0  0  0  0  0
   12.7341    7.2425    0.0000 H   0  0  0  0  0  0  0  0  0  0  0  0
   11.9765    7.4901    0.0000 H   0  0  0  0  0  0  0  0  0  0  0  0
   11.2963    3.4436    0.0000 H   0  0  0  0  0  0  0  0  0  0  0  0
   11.8896    3.9759    0.0000 H   0  0  0  0  0  0  0  0  0  0  0  0
    8.0556    0.4684    0.0000 H   0  0  0  0  0  0  0  0  0  0  0  0
    7.4623   -0.0639    0.0000 H   0  0  0  0  0  0  0  0  0  0  0  0
   10.2767    4.4767    0.0000 H   0  0  0  0  0  0  0  0  0  0  0  0
    9.6834    3.9444    0.0000 H   0  0  0  0  0  0  0  0  0  0  0  0
    3.7320   -4.2948    0.0000 H   0  0  0  0  0  0  0  0  0  0  0  0
    3.7320   -7.5348    0.0000 H   0  0  0  0  0  0  0  0  0  0  0  0
    2.3291   -5.1048    0.0000 H   0  0  0  0  0  0  0  0  0  0  0  0
   11.2611    2.2901    0.0000 H   0  0  0  0  0  0  0  0  0  0  0  0
    8.5940    3.1618    0.0000 H   0  0  0  0  0  0  0  0  0  0  0  0
   10.7578    0.7502    0.0000 H   0  0  0  0  0  0  0  0  0  0  0  0
    8.0908    1.6219    0.0000 H   0  0  0  0  0  0  0  0  0  0  0  0
  1 30  1  0  0  0  0
  2  6  1  0  0  0  0
  2 23  1  0  0  0  0
  3 22  1  0  0  0  0
  3 29  1  0  0  0  0
  4 10  1  0  0  0  0
  4 11  1  0  0  0  0
  4 12  1  0  0  0  0
  5 15  1  0  0  0  0
  5 16  1  0  0  0  0
  5 21  1  0  0  0  0
  6 13  2  0  0  0  0
  7  8  1  0  0  0  0
  7  9  1  0  0  0  0
  7 13  1  0  0  0  0
  7 35  1  0  0  0  0
  8 10  1  0  0  0  0
  8 36  1  0  0  0  0
  8 37  1  0  0  0  0
  9 11  1  0  0  0  0
  9 38  1  0  0  0  0
  9 39  1  0  0  0  0
 10 40  1  0  0  0  0
 10 41  1  0  0  0  0
 11 42  1  0  0  0  0
 11 43  1  0  0  0  0
 12 14  1  0  0  0  0
 12 44  1  0  0  0  0
 12 45  1  0  0  0  0
 13 20  1  0  0  0  0
 14 22  1  0  0  0  0
 14 46  1  0  0  0  0
 14 47  1  0  0  0  0
 15 17  1  0  0  0  0
 15 48  1  0  0  0  0
 15 49  1  0  0  0  0
 16 18  1  0  0  0  0
 16 50  1  0  0  0  0
 16 51  1  0  0  0  0
 17 19  1  0  0  0  0
 17 52  1  0  0  0  0
 17 53  1  0  0  0  0
 18 19  1  0  0  0  0
 18 54  1  0  0  0  0
 18 55  1  0  0  0  0
 19 56  1  0  0  0  0
 19 57  1  0  0  0  0
 20 23  2  0  0  0  0
 20 25  1  0  0  0  0
 21 24  1  0  0  0  0
 21 58  1  0  0  0  0
 21 59  1  0  0  0  0
 22 60  1  0  0  0  0
 22 61  1  0  0  0  0
 23 27  1  0  0  0  0
 24 26  1  0  0  0  0
 24 62  1  0  0  0  0
 24 63  1  0  0  0  0
 25 28  2  0  0  0  0
 25 64  1  0  0  0  0
 26 31  2  0  0  0  0
 26 32  1  0  0  0  0
 27 30  2  0  0  0  0
 27 65  1  0  0  0  0
 28 30  1  0  0  0  0
 28 66  1  0  0  0  0
 29 33  2  0  0  0  0
 29 34  1  0  0  0  0
 31 33  1  0  0  0  0
 31 67  1  0  0  0  0
 32 34  2  0  0  0  0
 32 68  1  0  0  0  0
 33 69  1  0  0  0  0
 34 70  1  0  0  0  0
M  END
> <PUBCHEM_COMPOUND_CID>
164615296

> <PUBCHEM_COMPOUND_CANONICALIZED>
1

> <PUBCHEM_CACTVS_COMPLEXITY>
588

> <PUBCHEM_CACTVS_HBOND_ACCEPTOR>
6

> <PUBCHEM_CACTVS_HBOND_DONOR>
0

> <PUBCHEM_CACTVS_ROTATABLE_BOND>
9

> <PUBCHEM_CACTVS_SUBSKEYS>
AAADcfB7MQAAAAAAAAAAAAAAAAAAAWAAAAA8eIEAAAAAAFgB9AAAHwAEAAAADQzhng4whtMQBACpA6RyQgCCCAAkIAAomCE+TNoMJrqEtZuGOaDmwBmI6ceYyOCOIAAAAAAIAABAAAAAABAAAAAAAAAAAA==

> <PUBCHEM_IUPAC_OPENEYE_NAME>
6-fluoro-3-[1-[3-[4-[2-(1-piperidyl)ethyl]phenoxy]propyl]-4-piperidyl]-1,2-benzoxazole

> <PUBCHEM_IUPAC_CAS_NAME>
6-fluoro-3-[1-[3-[4-[2-(1-piperidinyl)ethyl]phenoxy]propyl]-4-piperidinyl]-1,2-benzoxazole

> <PUBCHEM_IUPAC_NAME_MARKUP>
6-fluoro-3-[1-[3-[4-(2-piperidin-1-ylethyl)phenoxy]propyl]piperidin-4-yl]-1,2-benzoxazole

> <PUBCHEM_IUPAC_NAME>
6-fluoro-3-[1-[3-[4-(2-piperidin-1-ylethyl)phenoxy]propyl]piperidin-4-yl]-1,2-benzoxazole

> <PUBCHEM_IUPAC_SYSTEMATIC_NAME>
6-fluoranyl-3-[1-[3-[4-(2-piperidin-1-ylethyl)phenoxy]propyl]piperidin-4-yl]-1,2-benzoxazole

> <PUBCHEM_IUPAC_TRADITIONAL_NAME>
6-fluoro-3-[1-[3-[4-(2-piperidinoethyl)phenoxy]propyl]-4-piperidyl]indoxazene

> <PUBCHEM_IUPAC_INCHI>
InChI=1S/C28H36FN3O2/c29-24-7-10-26-27(21-24)34-30-28(26)23-12-18-32(19-13-23)16-4-20-33-25-8-5-22(6-9-25)11-17-31-14-2-1-3-15-31/h5-10,21,23H,1-4,11-20H2

> <PUBCHEM_IUPAC_INCHIKEY>
WAIZFEIVFOBJJX-UHFFFAOYSA-N

> <PUBCHEM_XLOGP3_AA>
5.6

> <PUBCHEM_EXACT_MASS>
465.27915556

> <PUBCHEM_MOLECULAR_FORMULA>
C28H36FN3O2

> <PUBCHEM_MOLECULAR_WEIGHT>
465.6

> <PUBCHEM_OPENEYE_CAN_SMILES>
C1CCN(CC1)CCC2=CC=C(C=C2)OCCCN3CCC(CC3)C4=NOC5=C4C=CC(=C5)F

> <PUBCHEM_OPENEYE_ISO_SMILES>
C1CCN(CC1)CCC2=CC=C(C=C2)OCCCN3CCC(CC3)C4=NOC5=C4C=CC(=C5)F

> <PUBCHEM_CACTVS_TPSA>
41.7

> <PUBCHEM_MONOISOTOPIC_WEIGHT>
465.27915556

> <PUBCHEM_TOTAL_CHARGE>
0

> <PUBCHEM_HEAVY_ATOM_COUNT>
34

> <PUBCHEM_ATOM_DEF_STEREO_COUNT>
0

> <PUBCHEM_ATOM_UDEF_STEREO_COUNT>
0

> <PUBCHEM_BOND_DEF_STEREO_COUNT>
0

> <PUBCHEM_BOND_UDEF_STEREO_COUNT>
0

> <PUBCHEM_ISOTOPIC_ATOM_COUNT>
0

> <PUBCHEM_COMPONENT_COUNT>
1

> <PUBCHEM_CACTVS_TAUTO_COUNT>
-1

> <PUBCHEM_COORDINATE_TYPE>
1
5
255

> <PUBCHEM_BONDANNOTATIONS>
13  20  8
2  23  8
2  6  8
20  23  8
20  25  8
23  27  8
25  28  8
26  31  8
26  32  8
27  30  8
28  30  8
29  33  8
29  34  8
31  33  8
32  34  8
6  13  8

$$$$
