44436746
  -OEChem-09292322252D

 67 71  0     1  0  0  0  0  0999 V2000
    6.2129   -3.1901    0.0000 O   0  0  0  0  0  0  0  0  0  0  0  0
    9.2869    3.0989    0.0000 N   0  0  3  0  0  0  0  0  0  0  0  0
    7.5862    1.9201    0.0000 N   0  0  3  0  0  0  0  0  0  0  0  0
    5.2427   -1.7553    0.0000 N   0  0  0  0  0  0  0  0  0  0  0  0
    8.3859    3.5328    0.0000 C   0  0  3  0  0  0  0  0  0  0  0  0
    7.5163    2.9594    0.0000 C   0  0  0  0  0  0  0  0  0  0  0  0
    9.3807    2.0615    0.0000 C   0  0  0  0  0  0  0  0  0  0  0  0
    8.5246    1.4681    0.0000 C   0  0  0  0  0  0  0  0  0  0  0  0
    8.1634    4.5077    0.0000 C   0  0  0  0  0  0  0  0  0  0  0  0
   10.1879    3.5328    0.0000 C   0  0  0  0  0  0  0  0  0  0  0  0
    6.7578    1.3600    0.0000 C   0  0  0  0  0  0  0  0  0  0  0  0
    8.7869    5.2896    0.0000 C   0  0  0  0  0  0  0  0  0  0  0  0
   10.4104    4.5077    0.0000 C   0  0  0  0  0  0  0  0  0  0  0  0
    9.7869    5.2896    0.0000 C   0  0  0  0  0  0  0  0  0  0  0  0
    6.8286    0.3625    0.0000 C   0  0  0  0  0  0  0  0  0  0  0  0
    7.1311    4.6471    0.0000 C   0  0  0  0  0  0  0  0  0  0  0  0
   10.9404    2.8126    0.0000 C   0  0  0  0  0  0  0  0  0  0  0  0
    8.4213    6.2649    0.0000 C   0  0  0  0  0  0  0  0  0  0  0  0
    6.0002   -0.1977    0.0000 C   0  0  0  0  0  0  0  0  0  0  0  0
   11.4009    4.8301    0.0000 C   0  0  0  0  0  0  0  0  0  0  0  0
    6.7431    5.6137    0.0000 C   0  0  0  0  0  0  0  0  0  0  0  0
    7.3926    6.4281    0.0000 C   0  0  0  0  0  0  0  0  0  0  0  0
   11.9381    3.1120    0.0000 C   0  0  0  0  0  0  0  0  0  0  0  0
   12.1699    4.1275    0.0000 C   0  0  0  0  0  0  0  0  0  0  0  0
    6.0711   -1.1952    0.0000 C   0  0  0  0  0  0  0  0  0  0  0  0
    5.3136   -2.7528    0.0000 C   0  0  0  0  0  0  0  0  0  0  0  0
    4.4852   -3.3129    0.0000 C   0  0  0  0  0  0  0  0  0  0  0  0
    4.5561   -4.3104    0.0000 C   0  0  0  0  0  0  0  0  0  0  0  0
    3.7277   -4.8705    0.0000 C   0  0  0  0  0  0  0  0  0  0  0  0
    2.8284   -4.4332    0.0000 C   0  0  0  0  0  0  0  0  0  0  0  0
    3.7986   -5.8680    0.0000 C   0  0  0  0  0  0  0  0  0  0  0  0
    2.0000   -4.9933    0.0000 C   0  0  0  0  0  0  0  0  0  0  0  0
    2.9702   -6.4281    0.0000 C   0  0  0  0  0  0  0  0  0  0  0  0
    2.0709   -5.9908    0.0000 C   0  0  0  0  0  0  0  0  0  0  0  0
    7.8105    3.7638    0.0000 H   0  0  0  0  0  0  0  0  0  0  0  0
    7.2686    3.5277    0.0000 H   0  0  0  0  0  0  0  0  0  0  0  0
    6.9140    2.8126    0.0000 H   0  0  0  0  0  0  0  0  0  0  0  0
    9.6415    1.4990    0.0000 H   0  0  0  0  0  0  0  0  0  0  0  0
    9.9796    2.2222    0.0000 H   0  0  0  0  0  0  0  0  0  0  0  0
    8.1640    0.9638    0.0000 H   0  0  0  0  0  0  0  0  0  0  0  0
    8.9598    1.0265    0.0000 H   0  0  0  0  0  0  0  0  0  0  0  0
    6.5050    1.9261    0.0000 H   0  0  0  0  0  0  0  0  0  0  0  0
    6.1564    1.2093    0.0000 H   0  0  0  0  0  0  0  0  0  0  0  0
   10.3455    5.5586    0.0000 H   0  0  0  0  0  0  0  0  0  0  0  0
    9.6489    5.8940    0.0000 H   0  0  0  0  0  0  0  0  0  0  0  0
    7.0815   -0.2036    0.0000 H   0  0  0  0  0  0  0  0  0  0  0  0
    7.4301    0.5131    0.0000 H   0  0  0  0  0  0  0  0  0  0  0  0
    6.7502    4.1579    0.0000 H   0  0  0  0  0  0  0  0  0  0  0  0
   10.7955    2.2098    0.0000 H   0  0  0  0  0  0  0  0  0  0  0  0
    8.8135    6.7452    0.0000 H   0  0  0  0  0  0  0  0  0  0  0  0
    5.7474    0.3684    0.0000 H   0  0  0  0  0  0  0  0  0  0  0  0
    5.3988   -0.3483    0.0000 H   0  0  0  0  0  0  0  0  0  0  0  0
   11.5318    5.4361    0.0000 H   0  0  0  0  0  0  0  0  0  0  0  0
    6.1297    5.7038    0.0000 H   0  0  0  0  0  0  0  0  0  0  0  0
    7.1683    7.0061    0.0000 H   0  0  0  0  0  0  0  0  0  0  0  0
   12.3910    2.6885    0.0000 H   0  0  0  0  0  0  0  0  0  0  0  0
   12.7616    4.3125    0.0000 H   0  0  0  0  0  0  0  0  0  0  0  0
    6.3240   -1.7613    0.0000 H   0  0  0  0  0  0  0  0  0  0  0  0
    6.6726   -1.0445    0.0000 H   0  0  0  0  0  0  0  0  0  0  0  0
    4.6852   -1.4841    0.0000 H   0  0  0  0  0  0  0  0  0  0  0  0
    3.9276   -3.0417    0.0000 H   0  0  0  0  0  0  0  0  0  0  0  0
    5.1137   -4.5815    0.0000 H   0  0  0  0  0  0  0  0  0  0  0  0
    2.7844   -3.8147    0.0000 H   0  0  0  0  0  0  0  0  0  0  0  0
    4.3561   -6.1392    0.0000 H   0  0  0  0  0  0  0  0  0  0  0  0
    1.4424   -4.7221    0.0000 H   0  0  0  0  0  0  0  0  0  0  0  0
    3.0141   -7.0466    0.0000 H   0  0  0  0  0  0  0  0  0  0  0  0
    1.5573   -6.3380    0.0000 H   0  0  0  0  0  0  0  0  0  0  0  0
  1 26  2  0  0  0  0
  2  5  1  0  0  0  0
  2  7  1  0  0  0  0
  2 10  1  0  0  0  0
  3  6  1  0  0  0  0
  3  8  1  0  0  0  0
  3 11  1  0  0  0  0
  4 25  1  0  0  0  0
  4 26  1  0  0  0  0
  4 60  1  0  0  0  0
  5  6  1  0  0  0  0
  5  9  1  0  0  0  0
  5 35  1  0  0  0  0
  6 36  1  0  0  0  0
  6 37  1  0  0  0  0
  7  8  1  0  0  0  0
  7 38  1  0  0  0  0
  7 39  1  0  0  0  0
  8 40  1  0  0  0  0
  8 41  1  0  0  0  0
  9 12  1  0  0  0  0
  9 16  2  0  0  0  0
 10 13  1  0  0  0  0
 10 17  2  0  0  0  0
 11 15  1  0  0  0  0
 11 42  1  0  0  0  0
 11 43  1  0  0  0  0
 12 14  1  0  0  0  0
 12 18  2  0  0  0  0
 13 14  1  0  0  0  0
 13 20  2  0  0  0  0
 14 44  1  0  0  0  0
 14 45  1  0  0  0  0
 15 19  1  0  0  0  0
 15 46  1  0  0  0  0
 15 47  1  0  0  0  0
 16 21  1  0  0  0  0
 16 48  1  0  0  0  0
 17 23  1  0  0  0  0
 17 49  1  0  0  0  0
 18 22  1  0  0  0  0
 18 50  1  0  0  0  0
 19 25  1  0  0  0  0
 19 51  1  0  0  0  0
 19 52  1  0  0  0  0
 20 24  1  0  0  0  0
 20 53  1  0  0  0  0
 21 22  2  0  0  0  0
 21 54  1  0  0  0  0
 22 55  1  0  0  0  0
 23 24  2  0  0  0  0
 23 56  1  0  0  0  0
 24 57  1  0  0  0  0
 25 58  1  0  0  0  0
 25 59  1  0  0  0  0
 26 27  1  0  0  0  0
 27 28  2  0  0  0  0
 27 61  1  0  0  0  0
 28 29  1  0  0  0  0
 28 62  1  0  0  0  0
 29 30  2  0  0  0  0
 29 31  1  0  0  0  0
 30 32  1  0  0  0  0
 30 63  1  0  0  0  0
 31 33  2  0  0  0  0
 31 64  1  0  0  0  0
 32 34  2  0  0  0  0
 32 65  1  0  0  0  0
 33 34  1  0  0  0  0
 33 66  1  0  0  0  0
 34 67  1  0  0  0  0
M  END
> <PUBCHEM_COMPOUND_CID>
44436746

> <PUBCHEM_COMPOUND_CANONICALIZED>
1

> <PUBCHEM_CACTVS_COMPLEXITY>
672

> <PUBCHEM_CACTVS_HBOND_ACCEPTOR>
3

> <PUBCHEM_CACTVS_HBOND_DONOR>
1

> <PUBCHEM_CACTVS_ROTATABLE_BOND>
7

> <PUBCHEM_CACTVS_SUBSKEYS>
AAADcfB7IAAAAAAAAAAAAAAAAAAAAAAAAAA8YMEABYAAAAABUAAAHgAQAAAADCjBmAQwwIPAAACIAiVSUACCAAAhAgAIiIAIZMgIYCLAkZGUIAhglgDIyYcQgMAOgAAAAAASAAAAAAAAACQAAAAAAAAAAA==

> <PUBCHEM_IUPAC_OPENEYE_NAME>
(E)-N-[4-(2,5-diazatetracyclo[13.4.0.02,7.08,13]nonadeca-1(19),8,10,12,15,17-hexaen-5-yl)butyl]-3-phenyl-prop-2-enamide

> <PUBCHEM_IUPAC_CAS_NAME>
(E)-N-[4-(2,5-diazatetracyclo[13.4.0.02,7.08,13]nonadeca-1(19),8,10,12,15,17-hexaen-5-yl)butyl]-3-phenyl-2-propenamide

> <PUBCHEM_IUPAC_NAME_MARKUP>
(<I>E</I>)-<I>N</I>-[4-(2,5-diazatetracyclo[13.4.0.0<SUP>2,7</SUP>.0<SUP>8,13</SUP>]nonadeca-1(19),8,10,12,15,17-hexaen-5-yl)butyl]-3-phenylprop-2-enamide

> <PUBCHEM_IUPAC_NAME>
(E)-N-[4-(2,5-diazatetracyclo[13.4.0.02,7.08,13]nonadeca-1(19),8,10,12,15,17-hexaen-5-yl)butyl]-3-phenylprop-2-enamide

> <PUBCHEM_IUPAC_SYSTEMATIC_NAME>
(E)-N-[4-(2,5-diazatetracyclo[13.4.0.02,7.08,13]nonadeca-1(19),8,10,12,15,17-hexaen-5-yl)butyl]-3-phenyl-prop-2-enamide

> <PUBCHEM_IUPAC_TRADITIONAL_NAME>
(E)-N-[4-(2,5-diazatetracyclo[13.4.0.02,7.08,13]nonadeca-1(19),8,10,12,15,17-hexaen-5-yl)butyl]-3-phenyl-acrylamide

> <PUBCHEM_IUPAC_INCHI>
InChI=1S/C30H33N3O/c34-30(17-16-24-10-2-1-3-11-24)31-18-8-9-19-32-20-21-33-28-15-7-5-13-26(28)22-25-12-4-6-14-27(25)29(33)23-32/h1-7,10-17,29H,8-9,18-23H2,(H,31,34)/b17-16+

> <PUBCHEM_IUPAC_INCHIKEY>
NQOBWBPQVJMZSQ-WUKNDPDISA-N

> <PUBCHEM_XLOGP3_AA>
5.5

> <PUBCHEM_EXACT_MASS>
451.262362685

> <PUBCHEM_MOLECULAR_FORMULA>
C30H33N3O

> <PUBCHEM_MOLECULAR_WEIGHT>
451.6

> <PUBCHEM_OPENEYE_CAN_SMILES>
C1CN2C(CN1CCCCNC(=O)C=CC3=CC=CC=C3)C4=CC=CC=C4CC5=CC=CC=C52

> <PUBCHEM_OPENEYE_ISO_SMILES>
C1CN2C(CN1CCCCNC(=O)/C=C/C3=CC=CC=C3)C4=CC=CC=C4CC5=CC=CC=C52

> <PUBCHEM_CACTVS_TPSA>
35.6

> <PUBCHEM_MONOISOTOPIC_WEIGHT>
451.262362685

> <PUBCHEM_TOTAL_CHARGE>
0

> <PUBCHEM_HEAVY_ATOM_COUNT>
34

> <PUBCHEM_ATOM_DEF_STEREO_COUNT>
0

> <PUBCHEM_ATOM_UDEF_STEREO_COUNT>
1

> <PUBCHEM_BOND_DEF_STEREO_COUNT>
1

> <PUBCHEM_BOND_UDEF_STEREO_COUNT>
0

> <PUBCHEM_ISOTOPIC_ATOM_COUNT>
0

> <PUBCHEM_COMPONENT_COUNT>
1

> <PUBCHEM_CACTVS_TAUTO_COUNT>
-1

> <PUBCHEM_COORDINATE_TYPE>
1
5
255

> <PUBCHEM_BONDANNOTATIONS>
10  13  8
10  17  8
12  18  8
13  20  8
16  21  8
17  23  8
18  22  8
20  24  8
21  22  8
23  24  8
29  30  8
29  31  8
30  32  8
31  33  8
32  34  8
33  34  8
5  6  3
9  12  8
9  16  8

$$$$
