12049908
  -OEChem-09292322152D

 67 71  0     1  0  0  0  0  0999 V2000
    5.5347   -1.1628    0.0000 O   0  0  0  0  0  0  0  0  0  0  0  0
   11.0347    1.4353    0.0000 N   0  0  3  0  0  0  0  0  0  0  0  0
    5.5347    0.5693    0.0000 N   0  0  0  0  0  0  0  0  0  0  0  0
   16.7535    2.9628    0.0000 N   0  0  0  0  0  0  0  0  0  0  0  0
    8.5347    0.5693    0.0000 C   0  0  0  0  0  0  0  0  0  0  0  0
    8.0347   -0.2968    0.0000 C   0  0  0  0  0  0  0  0  0  0  0  0
    8.0347    1.4353    0.0000 C   0  0  0  0  0  0  0  0  0  0  0  0
    6.5347    0.5693    0.0000 C   0  0  0  0  0  0  0  0  0  0  0  0
    7.0347   -0.2968    0.0000 C   0  0  0  0  0  0  0  0  0  0  0  0
    7.0347    1.4353    0.0000 C   0  0  0  0  0  0  0  0  0  0  0  0
    9.5347    0.5693    0.0000 C   0  0  0  0  0  0  0  0  0  0  0  0
   10.0347    1.4353    0.0000 C   0  0  0  0  0  0  0  0  0  0  0  0
   11.4685    2.3363    0.0000 C   0  0  0  0  0  0  0  0  0  0  0  0
   11.4685    0.5343    0.0000 C   0  0  0  0  0  0  0  0  0  0  0  0
   12.4435    2.5588    0.0000 C   0  0  0  0  0  0  0  0  0  0  0  0
   12.4435    0.3118    0.0000 C   0  0  0  0  0  0  0  0  0  0  0  0
   13.2253    1.9353    0.0000 C   0  0  0  0  0  0  0  0  0  0  0  0
   13.2253    0.9353    0.0000 C   0  0  0  0  0  0  0  0  0  0  0  0
    5.0347   -0.2968    0.0000 C   0  0  0  0  0  0  0  0  0  0  0  0
    4.0347   -0.2968    0.0000 C   0  0  0  0  0  0  0  0  0  0  0  0
   14.1192    2.4700    0.0000 C   0  0  0  0  0  0  0  0  0  0  0  0
   14.1192    0.4006    0.0000 C   0  0  0  0  0  0  0  0  0  0  0  0
   15.0253    1.9561    0.0000 C   0  0  0  0  0  0  0  0  0  0  0  0
   15.0253    0.9145    0.0000 C   0  0  0  0  0  0  0  0  0  0  0  0
    3.5347   -1.1628    0.0000 C   0  0  0  0  0  0  0  0  0  0  0  0
    3.5347    0.5693    0.0000 C   0  0  0  0  0  0  0  0  0  0  0  0
    2.5347   -1.1628    0.0000 C   0  0  0  0  0  0  0  0  0  0  0  0
    2.5347    0.5693    0.0000 C   0  0  0  0  0  0  0  0  0  0  0  0
    4.0693   -2.0567    0.0000 C   0  0  0  0  0  0  0  0  0  0  0  0
    2.0347   -0.2968    0.0000 C   0  0  0  0  0  0  0  0  0  0  0  0
   15.8894    2.4594    0.0000 C   0  0  0  0  0  0  0  0  0  0  0  0
    2.0000   -2.0567    0.0000 C   0  0  0  0  0  0  0  0  0  0  0  0
    3.5555   -2.9628    0.0000 C   0  0  0  0  0  0  0  0  0  0  0  0
    2.5138   -2.9628    0.0000 C   0  0  0  0  0  0  0  0  0  0  0  0
    8.8447    1.1062    0.0000 H   0  0  0  0  0  0  0  0  0  0  0  0
    7.9270   -0.9073    0.0000 H   0  0  0  0  0  0  0  0  0  0  0  0
    8.6173   -0.5088    0.0000 H   0  0  0  0  0  0  0  0  0  0  0  0
    8.6173    1.6474    0.0000 H   0  0  0  0  0  0  0  0  0  0  0  0
    7.9270    2.0459    0.0000 H   0  0  0  0  0  0  0  0  0  0  0  0
    6.2247    1.1062    0.0000 H   0  0  0  0  0  0  0  0  0  0  0  0
    6.4520   -0.5088    0.0000 H   0  0  0  0  0  0  0  0  0  0  0  0
    7.1423   -0.9073    0.0000 H   0  0  0  0  0  0  0  0  0  0  0  0
    7.1423    2.0459    0.0000 H   0  0  0  0  0  0  0  0  0  0  0  0
    6.4520    1.6474    0.0000 H   0  0  0  0  0  0  0  0  0  0  0  0
    9.4270   -0.0413    0.0000 H   0  0  0  0  0  0  0  0  0  0  0  0
   10.1173    0.3572    0.0000 H   0  0  0  0  0  0  0  0  0  0  0  0
   10.1423    2.0459    0.0000 H   0  0  0  0  0  0  0  0  0  0  0  0
    9.4520    1.6474    0.0000 H   0  0  0  0  0  0  0  0  0  0  0  0
    5.2247    1.1062    0.0000 H   0  0  0  0  0  0  0  0  0  0  0  0
   11.4685    2.9563    0.0000 H   0  0  0  0  0  0  0  0  0  0  0  0
   10.8641    2.4742    0.0000 H   0  0  0  0  0  0  0  0  0  0  0  0
   10.8641    0.3964    0.0000 H   0  0  0  0  0  0  0  0  0  0  0  0
   11.4685   -0.0857    0.0000 H   0  0  0  0  0  0  0  0  0  0  0  0
   12.9282    2.9454    0.0000 H   0  0  0  0  0  0  0  0  0  0  0  0
   12.1745    3.1174    0.0000 H   0  0  0  0  0  0  0  0  0  0  0  0
   12.1745   -0.2468    0.0000 H   0  0  0  0  0  0  0  0  0  0  0  0
   12.9282   -0.0748    0.0000 H   0  0  0  0  0  0  0  0  0  0  0  0
   14.1121    3.0899    0.0000 H   0  0  0  0  0  0  0  0  0  0  0  0
   14.1121   -0.2193    0.0000 H   0  0  0  0  0  0  0  0  0  0  0  0
   15.5611    0.6024    0.0000 H   0  0  0  0  0  0  0  0  0  0  0  0
    3.8447    1.1062    0.0000 H   0  0  0  0  0  0  0  0  0  0  0  0
    2.2247    1.1062    0.0000 H   0  0  0  0  0  0  0  0  0  0  0  0
    4.6893   -2.0496    0.0000 H   0  0  0  0  0  0  0  0  0  0  0  0
    1.4147   -0.2968    0.0000 H   0  0  0  0  0  0  0  0  0  0  0  0
    1.3800   -2.0496    0.0000 H   0  0  0  0  0  0  0  0  0  0  0  0
    3.8675   -3.4985    0.0000 H   0  0  0  0  0  0  0  0  0  0  0  0
    2.2018   -3.4985    0.0000 H   0  0  0  0  0  0  0  0  0  0  0  0
  1 19  2  0  0  0  0
  2 12  1  0  0  0  0
  2 13  1  0  0  0  0
  2 14  1  0  0  0  0
  3  8  1  0  0  0  0
  3 19  1  0  0  0  0
  3 49  1  0  0  0  0
  4 31  3  0  0  0  0
  5  6  1  0  0  0  0
  5  7  1  0  0  0  0
  5 11  1  0  0  0  0
  5 35  1  0  0  0  0
  6  9  1  0  0  0  0
  6 36  1  0  0  0  0
  6 37  1  0  0  0  0
  7 10  1  0  0  0  0
  7 38  1  0  0  0  0
  7 39  1  0  0  0  0
  8  9  1  0  0  0  0
  8 10  1  0  0  0  0
  8 40  1  0  0  0  0
  9 41  1  0  0  0  0
  9 42  1  0  0  0  0
 10 43  1  0  0  0  0
 10 44  1  0  0  0  0
 11 12  1  0  0  0  0
 11 45  1  0  0  0  0
 11 46  1  0  0  0  0
 12 47  1  0  0  0  0
 12 48  1  0  0  0  0
 13 15  1  0  0  0  0
 13 50  1  0  0  0  0
 13 51  1  0  0  0  0
 14 16  1  0  0  0  0
 14 52  1  0  0  0  0
 14 53  1  0  0  0  0
 15 17  1  0  0  0  0
 15 54  1  0  0  0  0
 15 55  1  0  0  0  0
 16 18  1  0  0  0  0
 16 56  1  0  0  0  0
 16 57  1  0  0  0  0
 17 18  2  0  0  0  0
 17 21  1  0  0  0  0
 18 22  1  0  0  0  0
 19 20  1  0  0  0  0
 20 25  1  0  0  0  0
 20 26  2  0  0  0  0
 21 23  2  0  0  0  0
 21 58  1  0  0  0  0
 22 24  2  0  0  0  0
 22 59  1  0  0  0  0
 23 24  1  0  0  0  0
 23 31  1  0  0  0  0
 24 60  1  0  0  0  0
 25 27  1  0  0  0  0
 25 29  2  0  0  0  0
 26 28  1  0  0  0  0
 26 61  1  0  0  0  0
 27 30  1  0  0  0  0
 27 32  2  0  0  0  0
 28 30  2  0  0  0  0
 28 62  1  0  0  0  0
 29 33  1  0  0  0  0
 29 63  1  0  0  0  0
 30 64  1  0  0  0  0
 32 34  1  0  0  0  0
 32 65  1  0  0  0  0
 33 34  2  0  0  0  0
 33 66  1  0  0  0  0
 34 67  1  0  0  0  0
M  END
> <PUBCHEM_COMPOUND_CID>
12049908

> <PUBCHEM_COMPOUND_CANONICALIZED>
1

> <PUBCHEM_CACTVS_COMPLEXITY>
720

> <PUBCHEM_CACTVS_HBOND_ACCEPTOR>
3

> <PUBCHEM_CACTVS_HBOND_DONOR>
1

> <PUBCHEM_CACTVS_ROTATABLE_BOND>
5

> <PUBCHEM_CACTVS_SUBSKEYS>
AAADcfB7IAAAAAAAAAAAAAAAAAAAAAAAAAAwYMGABYAAAADBVAAAHgAQAAAADSjBmAQwAMPAAACYBiFSEACiAAAkAAAIiIEIBMgIoDKAlRGEIQhglgCIiY8YiMCOwAACAAAQAACQAAQAACAAAAAAAAAAAA==

> <PUBCHEM_IUPAC_OPENEYE_NAME>
N-[4-[2-(7-cyano-1,2,4,5-tetrahydro-3-benzazepin-3-yl)ethyl]cyclohexyl]naphthalene-1-carboxamide

> <PUBCHEM_IUPAC_CAS_NAME>
N-[4-[2-(7-cyano-1,2,4,5-tetrahydro-3-benzazepin-3-yl)ethyl]cyclohexyl]-1-naphthalenecarboxamide

> <PUBCHEM_IUPAC_NAME_MARKUP>
<I>N</I>-[4-[2-(7-cyano-1,2,4,5-tetrahydro-3-benzazepin-3-yl)ethyl]cyclohexyl]naphthalene-1-carboxamide

> <PUBCHEM_IUPAC_NAME>
N-[4-[2-(7-cyano-1,2,4,5-tetrahydro-3-benzazepin-3-yl)ethyl]cyclohexyl]naphthalene-1-carboxamide

> <PUBCHEM_IUPAC_SYSTEMATIC_NAME>
N-[4-[2-(7-cyano-1,2,4,5-tetrahydro-3-benzazepin-3-yl)ethyl]cyclohexyl]naphthalene-1-carboxamide

> <PUBCHEM_IUPAC_TRADITIONAL_NAME>
N-[4-[2-(7-cyano-1,2,4,5-tetrahydro-3-benzazepin-3-yl)ethyl]cyclohexyl]-1-naphthamide

> <PUBCHEM_IUPAC_INCHI>
InChI=1S/C30H33N3O/c31-21-23-8-11-24-15-18-33(19-16-26(24)20-23)17-14-22-9-12-27(13-10-22)32-30(34)29-7-3-5-25-4-1-2-6-28(25)29/h1-8,11,20,22,27H,9-10,12-19H2,(H,32,34)

> <PUBCHEM_IUPAC_INCHIKEY>
WNRHLKXILALELE-UHFFFAOYSA-N

> <PUBCHEM_XLOGP3_AA>
6.1

> <PUBCHEM_EXACT_MASS>
451.262362685

> <PUBCHEM_MOLECULAR_FORMULA>
C30H33N3O

> <PUBCHEM_MOLECULAR_WEIGHT>
451.6

> <PUBCHEM_OPENEYE_CAN_SMILES>
C1CC(CCC1CCN2CCC3=C(CC2)C=C(C=C3)C#N)NC(=O)C4=CC=CC5=CC=CC=C54

> <PUBCHEM_OPENEYE_ISO_SMILES>
C1CC(CCC1CCN2CCC3=C(CC2)C=C(C=C3)C#N)NC(=O)C4=CC=CC5=CC=CC=C54

> <PUBCHEM_CACTVS_TPSA>
56.1

> <PUBCHEM_MONOISOTOPIC_WEIGHT>
451.262362685

> <PUBCHEM_TOTAL_CHARGE>
0

> <PUBCHEM_HEAVY_ATOM_COUNT>
34

> <PUBCHEM_ATOM_DEF_STEREO_COUNT>
0

> <PUBCHEM_ATOM_UDEF_STEREO_COUNT>
0

> <PUBCHEM_BOND_DEF_STEREO_COUNT>
0

> <PUBCHEM_BOND_UDEF_STEREO_COUNT>
0

> <PUBCHEM_ISOTOPIC_ATOM_COUNT>
0

> <PUBCHEM_COMPONENT_COUNT>
1

> <PUBCHEM_CACTVS_TAUTO_COUNT>
-1

> <PUBCHEM_COORDINATE_TYPE>
1
5
255

> <PUBCHEM_BONDANNOTATIONS>
17  18  8
17  21  8
18  22  8
20  25  8
20  26  8
21  23  8
22  24  8
23  24  8
25  27  8
25  29  8
26  28  8
27  30  8
27  32  8
28  30  8
29  33  8
32  34  8
33  34  8

$$$$
