118710467
  -OEChem-09292322052D

 68 71  0     0  0  0  0  0  0999 V2000
   16.2619    1.9010    0.0000 F   0  0  0  0  0  0  0  0  0  0  0  0
   16.6279    0.5350    0.0000 F   0  0  0  0  0  0  0  0  0  0  0  0
   14.8959    1.5350    0.0000 F   0  0  0  0  0  0  0  0  0  0  0  0
    6.7619    2.7671    0.0000 O   0  0  0  0  0  0  0  0  0  0  0  0
   10.7619   -0.6970    0.0000 N   0  0  0  0  0  0  0  0  0  0  0  0
   12.7619   -0.6970    0.0000 N   0  0  0  0  0  0  0  0  0  0  0  0
   14.2619   -1.5630    0.0000 N   0  0  0  0  0  0  0  0  0  0  0  0
   15.7619   -0.6970    0.0000 N   0  0  0  0  0  0  0  0  0  0  0  0
    6.7619    1.0350    0.0000 N   0  0  0  0  0  0  0  0  0  0  0  0
    4.6783    2.7058    0.0000 N   0  0  0  0  0  0  0  0  0  0  0  0
    4.6783    1.0963    0.0000 N   0  0  0  0  0  0  0  0  0  0  0  0
   11.2619   -1.5630    0.0000 C   0  0  0  0  0  0  0  0  0  0  0  0
   11.2619    0.1690    0.0000 C   0  0  0  0  0  0  0  0  0  0  0  0
   12.2619   -1.5630    0.0000 C   0  0  0  0  0  0  0  0  0  0  0  0
   12.2619    0.1690    0.0000 C   0  0  0  0  0  0  0  0  0  0  0  0
    9.7619   -0.6970    0.0000 C   0  0  0  0  0  0  0  0  0  0  0  0
    9.2619    0.1690    0.0000 C   0  0  0  0  0  0  0  0  0  0  0  0
   13.7619   -0.6970    0.0000 C   0  0  0  0  0  0  0  0  0  0  0  0
    8.2619    0.1690    0.0000 C   0  0  0  0  0  0  0  0  0  0  0  0
   15.7619   -2.4291    0.0000 C   0  0  0  0  0  0  0  0  0  0  0  0
   15.2619   -1.5630    0.0000 C   0  0  0  0  0  0  0  0  0  0  0  0
   14.2619    0.1690    0.0000 C   0  0  0  0  0  0  0  0  0  0  0  0
    7.7619    1.0350    0.0000 C   0  0  0  0  0  0  0  0  0  0  0  0
   15.2619    0.1690    0.0000 C   0  0  0  0  0  0  0  0  0  0  0  0
   16.2619   -3.2951    0.0000 C   0  0  0  0  0  0  0  0  0  0  0  0
   16.6279   -1.9291    0.0000 C   0  0  0  0  0  0  0  0  0  0  0  0
   14.8959   -2.9291    0.0000 C   0  0  0  0  0  0  0  0  0  0  0  0
   15.7619    1.0350    0.0000 C   0  0  0  0  0  0  0  0  0  0  0  0
    6.2619    1.9010    0.0000 C   0  0  0  0  0  0  0  0  0  0  0  0
    5.2619    1.9010    0.0000 C   0  0  0  0  0  0  0  0  0  0  0  0
    3.7320    2.4010    0.0000 C   0  0  0  0  0  0  0  0  0  0  0  0
    3.7320    1.4010    0.0000 C   0  0  0  0  0  0  0  0  0  0  0  0
    2.8660    2.9010    0.0000 C   0  0  0  0  0  0  0  0  0  0  0  0
    2.8660    0.9010    0.0000 C   0  0  0  0  0  0  0  0  0  0  0  0
    2.0000    2.4010    0.0000 C   0  0  0  0  0  0  0  0  0  0  0  0
    2.0000    1.4010    0.0000 C   0  0  0  0  0  0  0  0  0  0  0  0
   10.6793   -1.7751    0.0000 H   0  0  0  0  0  0  0  0  0  0  0  0
   11.3695   -2.1736    0.0000 H   0  0  0  0  0  0  0  0  0  0  0  0
   11.3695    0.7796    0.0000 H   0  0  0  0  0  0  0  0  0  0  0  0
   10.6793    0.3810    0.0000 H   0  0  0  0  0  0  0  0  0  0  0  0
   12.1542   -2.1736    0.0000 H   0  0  0  0  0  0  0  0  0  0  0  0
   12.8445   -1.7751    0.0000 H   0  0  0  0  0  0  0  0  0  0  0  0
   12.8445    0.3810    0.0000 H   0  0  0  0  0  0  0  0  0  0  0  0
   12.1542    0.7796    0.0000 H   0  0  0  0  0  0  0  0  0  0  0  0
    9.1793   -0.9091    0.0000 H   0  0  0  0  0  0  0  0  0  0  0  0
    9.8695   -1.3076    0.0000 H   0  0  0  0  0  0  0  0  0  0  0  0
    9.8445    0.3810    0.0000 H   0  0  0  0  0  0  0  0  0  0  0  0
    9.1542    0.7796    0.0000 H   0  0  0  0  0  0  0  0  0  0  0  0
    7.6793   -0.0431    0.0000 H   0  0  0  0  0  0  0  0  0  0  0  0
    8.3695   -0.4416    0.0000 H   0  0  0  0  0  0  0  0  0  0  0  0
   13.9519    0.7059    0.0000 H   0  0  0  0  0  0  0  0  0  0  0  0
    8.3445    1.2471    0.0000 H   0  0  0  0  0  0  0  0  0  0  0  0
    7.6542    1.6456    0.0000 H   0  0  0  0  0  0  0  0  0  0  0  0
   15.7249   -3.6051    0.0000 H   0  0  0  0  0  0  0  0  0  0  0  0
   16.5719   -3.8320    0.0000 H   0  0  0  0  0  0  0  0  0  0  0  0
   16.7988   -2.9851    0.0000 H   0  0  0  0  0  0  0  0  0  0  0  0
   16.9379   -2.4660    0.0000 H   0  0  0  0  0  0  0  0  0  0  0  0
   17.1648   -1.6191    0.0000 H   0  0  0  0  0  0  0  0  0  0  0  0
   16.3179   -1.3921    0.0000 H   0  0  0  0  0  0  0  0  0  0  0  0
   14.5859   -2.3921    0.0000 H   0  0  0  0  0  0  0  0  0  0  0  0
   14.3589   -3.2391    0.0000 H   0  0  0  0  0  0  0  0  0  0  0  0
   15.2059   -3.4660    0.0000 H   0  0  0  0  0  0  0  0  0  0  0  0
    6.4519    0.4981    0.0000 H   0  0  0  0  0  0  0  0  0  0  0  0
    4.8709    3.2951    0.0000 H   0  0  0  0  0  0  0  0  0  0  0  0
    2.8660    3.5210    0.0000 H   0  0  0  0  0  0  0  0  0  0  0  0
    2.8660    0.2810    0.0000 H   0  0  0  0  0  0  0  0  0  0  0  0
    1.4631    2.7110    0.0000 H   0  0  0  0  0  0  0  0  0  0  0  0
    1.4631    1.0910    0.0000 H   0  0  0  0  0  0  0  0  0  0  0  0
  1 28  1  0  0  0  0
  2 28  1  0  0  0  0
  3 28  1  0  0  0  0
  4 29  2  0  0  0  0
  5 12  1  0  0  0  0
  5 13  1  0  0  0  0
  5 16  1  0  0  0  0
  6 14  1  0  0  0  0
  6 15  1  0  0  0  0
  6 18  1  0  0  0  0
  7 18  2  0  0  0  0
  7 21  1  0  0  0  0
  8 21  2  0  0  0  0
  8 24  1  0  0  0  0
  9 23  1  0  0  0  0
  9 29  1  0  0  0  0
  9 63  1  0  0  0  0
 10 30  1  0  0  0  0
 10 31  1  0  0  0  0
 10 64  1  0  0  0  0
 11 30  2  0  0  0  0
 11 32  1  0  0  0  0
 12 14  1  0  0  0  0
 12 37  1  0  0  0  0
 12 38  1  0  0  0  0
 13 15  1  0  0  0  0
 13 39  1  0  0  0  0
 13 40  1  0  0  0  0
 14 41  1  0  0  0  0
 14 42  1  0  0  0  0
 15 43  1  0  0  0  0
 15 44  1  0  0  0  0
 16 17  1  0  0  0  0
 16 45  1  0  0  0  0
 16 46  1  0  0  0  0
 17 19  1  0  0  0  0
 17 47  1  0  0  0  0
 17 48  1  0  0  0  0
 18 22  1  0  0  0  0
 19 23  1  0  0  0  0
 19 49  1  0  0  0  0
 19 50  1  0  0  0  0
 20 21  1  0  0  0  0
 20 25  1  0  0  0  0
 20 26  1  0  0  0  0
 20 27  1  0  0  0  0
 22 24  2  0  0  0  0
 22 51  1  0  0  0  0
 23 52  1  0  0  0  0
 23 53  1  0  0  0  0
 24 28  1  0  0  0  0
 25 54  1  0  0  0  0
 25 55  1  0  0  0  0
 25 56  1  0  0  0  0
 26 57  1  0  0  0  0
 26 58  1  0  0  0  0
 26 59  1  0  0  0  0
 27 60  1  0  0  0  0
 27 61  1  0  0  0  0
 27 62  1  0  0  0  0
 29 30  1  0  0  0  0
 31 32  1  0  0  0  0
 31 33  2  0  0  0  0
 32 34  2  0  0  0  0
 33 35  1  0  0  0  0
 33 65  1  0  0  0  0
 34 36  1  0  0  0  0
 34 66  1  0  0  0  0
 35 36  2  0  0  0  0
 35 67  1  0  0  0  0
 36 68  1  0  0  0  0
M  END
> <PUBCHEM_COMPOUND_CID>
118710467

> <PUBCHEM_COMPOUND_CANONICALIZED>
1

> <PUBCHEM_CACTVS_COMPLEXITY>
723

> <PUBCHEM_CACTVS_HBOND_ACCEPTOR>
9

> <PUBCHEM_CACTVS_HBOND_DONOR>
2

> <PUBCHEM_CACTVS_ROTATABLE_BOND>
8

> <PUBCHEM_CACTVS_SUBSKEYS>
AAADcfB7oYAAAAAAAAAAAAAAAAAAAWAAAAA8WIAAAAAAAFgB/AAAHwAQAAAADgjBlxQz8LfJkACoASdydACCgC2jEqAJmaC4dJiIaKLA2fGUJAholgLIyCcQAAAAAAAAAAAAACAAAAAAAAAAQAAAAAAAAA==

> <PUBCHEM_IUPAC_OPENEYE_NAME>
N-[4-[4-[2-tert-butyl-6-(trifluoromethyl)pyrimidin-4-yl]piperazin-1-yl]butyl]-1H-benzimidazole-2-carboxamide

> <PUBCHEM_IUPAC_CAS_NAME>
N-[4-[4-[2-tert-butyl-6-(trifluoromethyl)-4-pyrimidinyl]-1-piperazinyl]butyl]-1H-benzimidazole-2-carboxamide

> <PUBCHEM_IUPAC_NAME_MARKUP>
<I>N</I>-[4-[4-[2-<I>tert</I>-butyl-6-(trifluoromethyl)pyrimidin-4-yl]piperazin-1-yl]butyl]-1<I>H</I>-benzimidazole-2-carboxamide

> <PUBCHEM_IUPAC_NAME>
N-[4-[4-[2-tert-butyl-6-(trifluoromethyl)pyrimidin-4-yl]piperazin-1-yl]butyl]-1H-benzimidazole-2-carboxamide

> <PUBCHEM_IUPAC_SYSTEMATIC_NAME>
N-[4-[4-[2-tert-butyl-6-(trifluoromethyl)pyrimidin-4-yl]piperazin-1-yl]butyl]-1H-benzimidazole-2-carboxamide

> <PUBCHEM_IUPAC_TRADITIONAL_NAME>
N-[4-[4-[2-tert-butyl-6-(trifluoromethyl)pyrimidin-4-yl]piperazino]butyl]-1H-benzimidazole-2-carboxamide

> <PUBCHEM_IUPAC_INCHI>
InChI=1S/C25H32F3N7O/c1-24(2,3)23-32-19(25(26,27)28)16-20(33-23)35-14-12-34(13-15-35)11-7-6-10-29-22(36)21-30-17-8-4-5-9-18(17)31-21/h4-5,8-9,16H,6-7,10-15H2,1-3H3,(H,29,36)(H,30,31)

> <PUBCHEM_IUPAC_INCHIKEY>
GZSHNIANTLMMJR-UHFFFAOYSA-N

> <PUBCHEM_XLOGP3_AA>
4.7

> <PUBCHEM_EXACT_MASS>
503.26204316

> <PUBCHEM_MOLECULAR_FORMULA>
C25H32F3N7O

> <PUBCHEM_MOLECULAR_WEIGHT>
503.6

> <PUBCHEM_OPENEYE_CAN_SMILES>
CC(C)(C)C1=NC(=CC(=N1)N2CCN(CC2)CCCCNC(=O)C3=NC4=CC=CC=C4N3)C(F)(F)F

> <PUBCHEM_OPENEYE_ISO_SMILES>
CC(C)(C)C1=NC(=CC(=N1)N2CCN(CC2)CCCCNC(=O)C3=NC4=CC=CC=C4N3)C(F)(F)F

> <PUBCHEM_CACTVS_TPSA>
90

> <PUBCHEM_MONOISOTOPIC_WEIGHT>
503.26204316

> <PUBCHEM_TOTAL_CHARGE>
0

> <PUBCHEM_HEAVY_ATOM_COUNT>
36

> <PUBCHEM_ATOM_DEF_STEREO_COUNT>
0

> <PUBCHEM_ATOM_UDEF_STEREO_COUNT>
0

> <PUBCHEM_BOND_DEF_STEREO_COUNT>
0

> <PUBCHEM_BOND_UDEF_STEREO_COUNT>
0

> <PUBCHEM_ISOTOPIC_ATOM_COUNT>
0

> <PUBCHEM_COMPONENT_COUNT>
1

> <PUBCHEM_CACTVS_TAUTO_COUNT>
-1

> <PUBCHEM_COORDINATE_TYPE>
1
5
255

> <PUBCHEM_BONDANNOTATIONS>
10  30  8
10  31  8
11  30  8
11  32  8
18  22  8
22  24  8
31  32  8
31  33  8
32  34  8
33  35  8
34  36  8
35  36  8
7  18  8
7  21  8
8  21  8
8  24  8

$$$$
