44356132
  -OEChem-09292322142D

 47 48  0     1  0  0  0  0  0999 V2000
    0.0000    2.6575    0.0000 Cl  0  0  0  0  0  0  0  0  0  0  0  0
    3.4920    0.6228    0.0000 O   0  0  0  0  0  0  0  0  0  0  0  0
    0.0000    0.6575    0.0000 O   0  0  0  0  0  0  0  0  0  0  0  0
    6.3671    6.2924    0.0000 O   0  0  0  0  0  0  0  0  0  0  0  0
    3.7690    6.7924    0.0000 O   0  0  0  0  0  0  0  0  0  0  0  0
    5.5011    7.7924    0.0000 O   0  0  0  0  0  0  0  0  0  0  0  0
    4.6351    5.2924    0.0000 O   0  0  0  0  0  0  0  0  0  0  0  0
    6.1301    1.1300    0.0000 N   0  0  0  0  0  0  0  0  0  0  0  0
    4.3981    1.1367    0.0000 C   0  0  1  0  0  0  0  0  0  0  0  0
    4.3981    2.1783    0.0000 C   0  0  0  0  0  0  0  0  0  0  0  0
    3.4920    2.6922    0.0000 C   0  0  0  0  0  0  0  0  0  0  0  0
    5.2622    0.6333    0.0000 C   0  0  0  0  0  0  0  0  0  0  0  0
    2.5981    2.1575    0.0000 C   0  0  0  0  0  0  0  0  0  0  0  0
    2.5981    1.1575    0.0000 C   0  0  0  0  0  0  0  0  0  0  0  0
    1.7320    2.6575    0.0000 C   0  0  0  0  0  0  0  0  0  0  0  0
    1.7320    0.6575    0.0000 C   0  0  0  0  0  0  0  0  0  0  0  0
    6.9942    0.6267    0.0000 C   0  0  0  0  0  0  0  0  0  0  0  0
    0.8660    2.1575    0.0000 C   0  0  0  0  0  0  0  0  0  0  0  0
    0.8660    1.1575    0.0000 C   0  0  0  0  0  0  0  0  0  0  0  0
    7.8622    1.1233    0.0000 C   0  0  0  0  0  0  0  0  0  0  0  0
    7.8660    2.1233    0.0000 C   0  0  0  0  0  0  0  0  0  0  0  0
    8.7262    0.6200    0.0000 C   0  0  0  0  0  0  0  0  0  0  0  0
    8.7340    2.6200    0.0000 C   0  0  0  0  0  0  0  0  0  0  0  0
    9.5942    1.1166    0.0000 C   0  0  0  0  0  0  0  0  0  0  0  0
    9.5980    2.1166    0.0000 C   0  0  0  0  0  0  0  0  0  0  0  0
    5.5011    6.7924    0.0000 C   0  0  0  0  0  0  0  0  0  0  0  0
    4.6351    6.2924    0.0000 C   0  0  0  0  0  0  0  0  0  0  0  0
    4.3945    0.5167    0.0000 H   0  0  0  0  0  0  0  0  0  0  0  0
    5.0089    2.0722    0.0000 H   0  0  0  0  0  0  0  0  0  0  0  0
    4.6071    2.7620    0.0000 H   0  0  0  0  0  0  0  0  0  0  0  0
    3.8856    3.1712    0.0000 H   0  0  0  0  0  0  0  0  0  0  0  0
    3.0874    3.1620    0.0000 H   0  0  0  0  0  0  0  0  0  0  0  0
    4.8618    0.1599    0.0000 H   0  0  0  0  0  0  0  0  0  0  0  0
    5.6589    0.1569    0.0000 H   0  0  0  0  0  0  0  0  0  0  0  0
    6.1325    1.7500    0.0000 H   0  0  0  0  0  0  0  0  0  0  0  0
    1.7320    3.2775    0.0000 H   0  0  0  0  0  0  0  0  0  0  0  0
    1.7320    0.0375    0.0000 H   0  0  0  0  0  0  0  0  0  0  0  0
    6.5939    0.1533    0.0000 H   0  0  0  0  0  0  0  0  0  0  0  0
    7.3909    0.1502    0.0000 H   0  0  0  0  0  0  0  0  0  0  0  0
    7.3303    2.4354    0.0000 H   0  0  0  0  0  0  0  0  0  0  0  0
    8.7239    0.0000    0.0000 H   0  0  0  0  0  0  0  0  0  0  0  0
    0.0000    0.0375    0.0000 H   0  0  0  0  0  0  0  0  0  0  0  0
    8.7364    3.2400    0.0000 H   0  0  0  0  0  0  0  0  0  0  0  0
   10.1299    0.8046    0.0000 H   0  0  0  0  0  0  0  0  0  0  0  0
   10.1362    2.4246    0.0000 H   0  0  0  0  0  0  0  0  0  0  0  0
    6.9041    6.6024    0.0000 H   0  0  0  0  0  0  0  0  0  0  0  0
    3.2321    6.4824    0.0000 H   0  0  0  0  0  0  0  0  0  0  0  0
  1 18  1  0  0  0  0
  2  9  1  0  0  0  0
  2 14  1  0  0  0  0
  3 19  1  0  0  0  0
  3 42  1  0  0  0  0
  4 26  1  0  0  0  0
  4 46  1  0  0  0  0
  5 27  1  0  0  0  0
  5 47  1  0  0  0  0
  6 26  2  0  0  0  0
  7 27  2  0  0  0  0
  8 12  1  0  0  0  0
  8 17  1  0  0  0  0
  8 35  1  0  0  0  0
  9 10  1  0  0  0  0
  9 12  1  1  0  0  0
  9 28  1  0  0  0  0
 10 11  1  0  0  0  0
 10 29  1  0  0  0  0
 10 30  1  0  0  0  0
 11 13  1  0  0  0  0
 11 31  1  0  0  0  0
 11 32  1  0  0  0  0
 12 33  1  0  0  0  0
 12 34  1  0  0  0  0
 13 14  1  0  0  0  0
 13 15  2  0  0  0  0
 14 16  2  0  0  0  0
 15 18  1  0  0  0  0
 15 36  1  0  0  0  0
 16 19  1  0  0  0  0
 16 37  1  0  0  0  0
 17 20  1  0  0  0  0
 17 38  1  0  0  0  0
 17 39  1  0  0  0  0
 18 19  2  0  0  0  0
 20 21  2  0  0  0  0
 20 22  1  0  0  0  0
 21 23  1  0  0  0  0
 21 40  1  0  0  0  0
 22 24  2  0  0  0  0
 22 41  1  0  0  0  0
 23 25  2  0  0  0  0
 23 43  1  0  0  0  0
 24 25  1  0  0  0  0
 24 44  1  0  0  0  0
 25 45  1  0  0  0  0
 26 27  1  0  0  0  0
M  END
> <PUBCHEM_COMPOUND_CID>
44356132

> <PUBCHEM_COMPOUND_CANONICALIZED>
1

> <PUBCHEM_CACTVS_COMPLEXITY>
394

> <PUBCHEM_CACTVS_HBOND_ACCEPTOR>
7

> <PUBCHEM_CACTVS_HBOND_DONOR>
4

> <PUBCHEM_CACTVS_ROTATABLE_BOND>
5

> <PUBCHEM_CACTVS_SUBSKEYS>
AAADceB6OAAEAAAAAAAAAAAAAAAAAAAAAAA0YIAAAAAAAACRQAAAHgIQCAAADBbhmCYwDoLABgCIAiDSCAKCCAAgJUAIiIBOD4gPJyKHsxuHeCjl0BWZuAeQ4KwOICAAKAAICABAQABQABAQAAAAAAAAAA==

> <PUBCHEM_IUPAC_OPENEYE_NAME>
(2S)-2-[(benzylamino)methyl]-6-chloro-chroman-7-ol;oxalic acid

> <PUBCHEM_IUPAC_CAS_NAME>
(2S)-6-chloro-2-[[(phenylmethyl)amino]methyl]-3,4-dihydro-2H-1-benzopyran-7-ol;oxalic acid

> <PUBCHEM_IUPAC_NAME_MARKUP>
(2<I>S</I>)-2-[(benzylamino)methyl]-6-chloro-3,4-dihydro-2<I>H</I>-chromen-7-ol;oxalic acid

> <PUBCHEM_IUPAC_NAME>
(2S)-2-[(benzylamino)methyl]-6-chloro-3,4-dihydro-2H-chromen-7-ol;oxalic acid

> <PUBCHEM_IUPAC_SYSTEMATIC_NAME>
(2S)-6-chloranyl-2-[[(phenylmethyl)amino]methyl]-3,4-dihydro-2H-chromen-7-ol;ethanedioic acid

> <PUBCHEM_IUPAC_TRADITIONAL_NAME>
(2S)-2-[(benzylamino)methyl]-6-chloro-chroman-7-ol;oxalic acid

> <PUBCHEM_IUPAC_INCHI>
InChI=1S/C17H18ClNO2.C2H2O4/c18-15-8-13-6-7-14(21-17(13)9-16(15)20)11-19-10-12-4-2-1-3-5-12;3-1(4)2(5)6/h1-5,8-9,14,19-20H,6-7,10-11H2;(H,3,4)(H,5,6)/t14-;/m0./s1

> <PUBCHEM_IUPAC_INCHIKEY>
GOHZILRCASNQHS-UQKRIMTDSA-N

> <PUBCHEM_EXACT_MASS>
393.0979151

> <PUBCHEM_MOLECULAR_FORMULA>
C19H20ClNO6

> <PUBCHEM_MOLECULAR_WEIGHT>
393.8

> <PUBCHEM_OPENEYE_CAN_SMILES>
C1CC2=CC(=C(C=C2OC1CNCC3=CC=CC=C3)O)Cl.C(=O)(C(=O)O)O

> <PUBCHEM_OPENEYE_ISO_SMILES>
C1CC2=CC(=C(C=C2O[C@@H]1CNCC3=CC=CC=C3)O)Cl.C(=O)(C(=O)O)O

> <PUBCHEM_CACTVS_TPSA>
116

> <PUBCHEM_MONOISOTOPIC_WEIGHT>
393.0979151

> <PUBCHEM_TOTAL_CHARGE>
0

> <PUBCHEM_HEAVY_ATOM_COUNT>
27

> <PUBCHEM_ATOM_DEF_STEREO_COUNT>
1

> <PUBCHEM_ATOM_UDEF_STEREO_COUNT>
0

> <PUBCHEM_BOND_DEF_STEREO_COUNT>
0

> <PUBCHEM_BOND_UDEF_STEREO_COUNT>
0

> <PUBCHEM_ISOTOPIC_ATOM_COUNT>
0

> <PUBCHEM_COMPONENT_COUNT>
2

> <PUBCHEM_CACTVS_TAUTO_COUNT>
-1

> <PUBCHEM_COORDINATE_TYPE>
1
5
255

> <PUBCHEM_BONDANNOTATIONS>
13  14  8
13  15  8
14  16  8
15  18  8
16  19  8
18  19  8
20  21  8
20  22  8
21  23  8
22  24  8
23  25  8
24  25  8
9  12  5

$$$$
