134157171
  -OEChem-09292322382D

 80 83  0     0  0  0  0  0  0999 V2000
   10.6603    0.5000    0.0000 O   0  0  0  0  0  0  0  0  0  0  0  0
    2.8660   -5.0000    0.0000 O   0  0  0  0  0  0  0  0  0  0  0  0
   10.6603    6.5000    0.0000 O   0  0  0  0  0  0  0  0  0  0  0  0
   11.5263    8.0000    0.0000 O   0  0  0  0  0  0  0  0  0  0  0  0
    7.1962   -3.5000    0.0000 N   0  0  0  0  0  0  0  0  0  0  0  0
    7.1962   -5.5000    0.0000 N   0  0  0  0  0  0  0  0  0  0  0  0
    9.7942    2.0000    0.0000 N   0  0  0  0  0  0  0  0  0  0  0  0
    6.3301   -4.0000    0.0000 C   0  0  0  0  0  0  0  0  0  0  0  0
    8.0622   -4.0000    0.0000 C   0  0  0  0  0  0  0  0  0  0  0  0
    6.3301   -5.0000    0.0000 C   0  0  0  0  0  0  0  0  0  0  0  0
    8.0622   -5.0000    0.0000 C   0  0  0  0  0  0  0  0  0  0  0  0
    7.1962   -2.5000    0.0000 C   0  0  0  0  0  0  0  0  0  0  0  0
    8.0622   -2.0000    0.0000 C   0  0  0  0  0  0  0  0  0  0  0  0
    7.1962   -6.5000    0.0000 C   0  0  0  0  0  0  0  0  0  0  0  0
    8.0622   -1.0000    0.0000 C   0  0  0  0  0  0  0  0  0  0  0  0
    8.9282   -0.5000    0.0000 C   0  0  0  0  0  0  0  0  0  0  0  0
    6.3301   -7.0000    0.0000 C   0  0  0  0  0  0  0  0  0  0  0  0
    8.0622   -7.0000    0.0000 C   0  0  0  0  0  0  0  0  0  0  0  0
    8.9282    0.5000    0.0000 C   0  0  0  0  0  0  0  0  0  0  0  0
    5.4641   -6.5000    0.0000 C   0  0  0  0  0  0  0  0  0  0  0  0
    6.3301   -8.0000    0.0000 C   0  0  0  0  0  0  0  0  0  0  0  0
    8.0622   -8.0000    0.0000 C   0  0  0  0  0  0  0  0  0  0  0  0
    7.1962   -8.5000    0.0000 C   0  0  0  0  0  0  0  0  0  0  0  0
    9.7942    1.0000    0.0000 C   0  0  0  0  0  0  0  0  0  0  0  0
    4.5981   -7.0000    0.0000 C   0  0  0  0  0  0  0  0  0  0  0  0
    5.4641   -5.5000    0.0000 C   0  0  0  0  0  0  0  0  0  0  0  0
    3.7320   -6.5000    0.0000 C   0  0  0  0  0  0  0  0  0  0  0  0
    4.5981   -5.0000    0.0000 C   0  0  0  0  0  0  0  0  0  0  0  0
    3.7320   -5.5000    0.0000 C   0  0  0  0  0  0  0  0  0  0  0  0
   10.6603    2.5000    0.0000 C   0  0  0  0  0  0  0  0  0  0  0  0
   10.6603    3.5000    0.0000 C   0  0  0  0  0  0  0  0  0  0  0  0
    9.7942    4.0000    0.0000 C   0  0  0  0  0  0  0  0  0  0  0  0
   11.5263    4.0000    0.0000 C   0  0  0  0  0  0  0  0  0  0  0  0
    9.7942    5.0000    0.0000 C   0  0  0  0  0  0  0  0  0  0  0  0
   11.5263    5.0000    0.0000 C   0  0  0  0  0  0  0  0  0  0  0  0
    2.0000   -5.5000    0.0000 C   0  0  0  0  0  0  0  0  0  0  0  0
   10.6603    5.5000    0.0000 C   0  0  0  0  0  0  0  0  0  0  0  0
   11.5263    7.0000    0.0000 C   0  0  0  0  0  0  0  0  0  0  0  0
   12.3923    8.5000    0.0000 C   0  0  0  0  0  0  0  0  0  0  0  0
    6.1181   -3.4174    0.0000 H   0  0  0  0  0  0  0  0  0  0  0  0
    5.7196   -4.1077    0.0000 H   0  0  0  0  0  0  0  0  0  0  0  0
    8.6728   -4.1077    0.0000 H   0  0  0  0  0  0  0  0  0  0  0  0
    8.2742   -3.4174    0.0000 H   0  0  0  0  0  0  0  0  0  0  0  0
    5.7196   -4.8923    0.0000 H   0  0  0  0  0  0  0  0  0  0  0  0
    6.1181   -5.5826    0.0000 H   0  0  0  0  0  0  0  0  0  0  0  0
    8.2742   -5.5826    0.0000 H   0  0  0  0  0  0  0  0  0  0  0  0
    8.6728   -4.8923    0.0000 H   0  0  0  0  0  0  0  0  0  0  0  0
    6.9841   -1.9174    0.0000 H   0  0  0  0  0  0  0  0  0  0  0  0
    6.5856   -2.6077    0.0000 H   0  0  0  0  0  0  0  0  0  0  0  0
    8.2742   -2.5826    0.0000 H   0  0  0  0  0  0  0  0  0  0  0  0
    8.6728   -1.8923    0.0000 H   0  0  0  0  0  0  0  0  0  0  0  0
    7.8501   -0.4174    0.0000 H   0  0  0  0  0  0  0  0  0  0  0  0
    7.4516   -1.1077    0.0000 H   0  0  0  0  0  0  0  0  0  0  0  0
    9.1403   -1.0826    0.0000 H   0  0  0  0  0  0  0  0  0  0  0  0
    9.5388   -0.3923    0.0000 H   0  0  0  0  0  0  0  0  0  0  0  0
    8.5991   -6.6900    0.0000 H   0  0  0  0  0  0  0  0  0  0  0  0
    8.7162    1.0826    0.0000 H   0  0  0  0  0  0  0  0  0  0  0  0
    8.3176    0.3923    0.0000 H   0  0  0  0  0  0  0  0  0  0  0  0
    5.7932   -8.3100    0.0000 H   0  0  0  0  0  0  0  0  0  0  0  0
    8.5991   -8.3100    0.0000 H   0  0  0  0  0  0  0  0  0  0  0  0
    7.1962   -9.1200    0.0000 H   0  0  0  0  0  0  0  0  0  0  0  0
    4.5981   -7.6200    0.0000 H   0  0  0  0  0  0  0  0  0  0  0  0
    6.0010   -5.1900    0.0000 H   0  0  0  0  0  0  0  0  0  0  0  0
    9.2573    2.3100    0.0000 H   0  0  0  0  0  0  0  0  0  0  0  0
    3.1951   -6.8100    0.0000 H   0  0  0  0  0  0  0  0  0  0  0  0
    4.5981   -4.3800    0.0000 H   0  0  0  0  0  0  0  0  0  0  0  0
   10.8723    1.9174    0.0000 H   0  0  0  0  0  0  0  0  0  0  0  0
   11.2708    2.6077    0.0000 H   0  0  0  0  0  0  0  0  0  0  0  0
    9.2573    3.6900    0.0000 H   0  0  0  0  0  0  0  0  0  0  0  0
   12.0632    3.6900    0.0000 H   0  0  0  0  0  0  0  0  0  0  0  0
    9.2573    5.3100    0.0000 H   0  0  0  0  0  0  0  0  0  0  0  0
   12.0632    5.3100    0.0000 H   0  0  0  0  0  0  0  0  0  0  0  0
    1.6900   -4.9631    0.0000 H   0  0  0  0  0  0  0  0  0  0  0  0
    1.4631   -5.8100    0.0000 H   0  0  0  0  0  0  0  0  0  0  0  0
    2.3100   -6.0369    0.0000 H   0  0  0  0  0  0  0  0  0  0  0  0
   11.7383    6.4174    0.0000 H   0  0  0  0  0  0  0  0  0  0  0  0
   12.1369    7.1077    0.0000 H   0  0  0  0  0  0  0  0  0  0  0  0
   12.7023    7.9631    0.0000 H   0  0  0  0  0  0  0  0  0  0  0  0
   12.9292    8.8100    0.0000 H   0  0  0  0  0  0  0  0  0  0  0  0
   12.0823    9.0369    0.0000 H   0  0  0  0  0  0  0  0  0  0  0  0
  1 24  2  0  0  0  0
  2 29  1  0  0  0  0
  2 36  1  0  0  0  0
  3 37  1  0  0  0  0
  3 38  1  0  0  0  0
  4 38  1  0  0  0  0
  4 39  1  0  0  0  0
  5  8  1  0  0  0  0
  5  9  1  0  0  0  0
  5 12  1  0  0  0  0
  6 10  1  0  0  0  0
  6 11  1  0  0  0  0
  6 14  1  0  0  0  0
  7 24  1  0  0  0  0
  7 30  1  0  0  0  0
  7 64  1  0  0  0  0
  8 10  1  0  0  0  0
  8 40  1  0  0  0  0
  8 41  1  0  0  0  0
  9 11  1  0  0  0  0
  9 42  1  0  0  0  0
  9 43  1  0  0  0  0
 10 44  1  0  0  0  0
 10 45  1  0  0  0  0
 11 46  1  0  0  0  0
 11 47  1  0  0  0  0
 12 13  1  0  0  0  0
 12 48  1  0  0  0  0
 12 49  1  0  0  0  0
 13 15  1  0  0  0  0
 13 50  1  0  0  0  0
 13 51  1  0  0  0  0
 14 17  1  0  0  0  0
 14 18  2  0  0  0  0
 15 16  1  0  0  0  0
 15 52  1  0  0  0  0
 15 53  1  0  0  0  0
 16 19  1  0  0  0  0
 16 54  1  0  0  0  0
 16 55  1  0  0  0  0
 17 20  1  0  0  0  0
 17 21  2  0  0  0  0
 18 22  1  0  0  0  0
 18 56  1  0  0  0  0
 19 24  1  0  0  0  0
 19 57  1  0  0  0  0
 19 58  1  0  0  0  0
 20 25  2  0  0  0  0
 20 26  1  0  0  0  0
 21 23  1  0  0  0  0
 21 59  1  0  0  0  0
 22 23  2  0  0  0  0
 22 60  1  0  0  0  0
 23 61  1  0  0  0  0
 25 27  1  0  0  0  0
 25 62  1  0  0  0  0
 26 28  2  0  0  0  0
 26 63  1  0  0  0  0
 27 29  2  0  0  0  0
 27 65  1  0  0  0  0
 28 29  1  0  0  0  0
 28 66  1  0  0  0  0
 30 31  1  0  0  0  0
 30 67  1  0  0  0  0
 30 68  1  0  0  0  0
 31 32  2  0  0  0  0
 31 33  1  0  0  0  0
 32 34  1  0  0  0  0
 32 69  1  0  0  0  0
 33 35  2  0  0  0  0
 33 70  1  0  0  0  0
 34 37  2  0  0  0  0
 34 71  1  0  0  0  0
 35 37  1  0  0  0  0
 35 72  1  0  0  0  0
 36 73  1  0  0  0  0
 36 74  1  0  0  0  0
 36 75  1  0  0  0  0
 38 76  1  0  0  0  0
 38 77  1  0  0  0  0
 39 78  1  0  0  0  0
 39 79  1  0  0  0  0
 39 80  1  0  0  0  0
M  END
> <PUBCHEM_COMPOUND_CID>
134157171

> <PUBCHEM_COMPOUND_CANONICALIZED>
1

> <PUBCHEM_CACTVS_COMPLEXITY>
670

> <PUBCHEM_CACTVS_HBOND_ACCEPTOR>
6

> <PUBCHEM_CACTVS_HBOND_DONOR>
1

> <PUBCHEM_CACTVS_ROTATABLE_BOND>
14

> <PUBCHEM_CACTVS_SUBSKEYS>
AAADcfB/OAAAAAAAAAAAAAAAAAAAAAAAAAA8YMEAAAAAAAABUAAAHgAQAAAADAzBmAcyzoPABACIAiVSUACCCAAhIgAIiIEObIgcZjLEsZu0MChk1hHM6AeY2PIOoAAAAAACAABAAAAAAAQAAAAAAAAAAA==

> <PUBCHEM_IUPAC_OPENEYE_NAME>
N-[[4-(methoxymethoxy)phenyl]methyl]-6-[4-[2-(4-methoxyphenyl)phenyl]piperazin-1-yl]hexanamide

> <PUBCHEM_IUPAC_CAS_NAME>
N-[[4-(methoxymethoxy)phenyl]methyl]-6-[4-[2-(4-methoxyphenyl)phenyl]-1-piperazinyl]hexanamide

> <PUBCHEM_IUPAC_NAME_MARKUP>
<I>N</I>-[[4-(methoxymethoxy)phenyl]methyl]-6-[4-[2-(4-methoxyphenyl)phenyl]piperazin-1-yl]hexanamide

> <PUBCHEM_IUPAC_NAME>
N-[[4-(methoxymethoxy)phenyl]methyl]-6-[4-[2-(4-methoxyphenyl)phenyl]piperazin-1-yl]hexanamide

> <PUBCHEM_IUPAC_SYSTEMATIC_NAME>
N-[[4-(methoxymethoxy)phenyl]methyl]-6-[4-[2-(4-methoxyphenyl)phenyl]piperazin-1-yl]hexanamide

> <PUBCHEM_IUPAC_TRADITIONAL_NAME>
N-[4-(methoxymethoxy)benzyl]-6-[4-[2-(4-methoxyphenyl)phenyl]piperazino]hexanamide

> <PUBCHEM_IUPAC_INCHI>
InChI=1S/C32H41N3O4/c1-37-25-39-29-15-11-26(12-16-29)24-33-32(36)10-4-3-7-19-34-20-22-35(23-21-34)31-9-6-5-8-30(31)27-13-17-28(38-2)18-14-27/h5-6,8-9,11-18H,3-4,7,10,19-25H2,1-2H3,(H,33,36)

> <PUBCHEM_IUPAC_INCHIKEY>
AKRZFAUTJFZOAO-UHFFFAOYSA-N

> <PUBCHEM_XLOGP3_AA>
5.2

> <PUBCHEM_EXACT_MASS>
531.30970680

> <PUBCHEM_MOLECULAR_FORMULA>
C32H41N3O4

> <PUBCHEM_MOLECULAR_WEIGHT>
531.7

> <PUBCHEM_OPENEYE_CAN_SMILES>
COCOC1=CC=C(C=C1)CNC(=O)CCCCCN2CCN(CC2)C3=CC=CC=C3C4=CC=C(C=C4)OC

> <PUBCHEM_OPENEYE_ISO_SMILES>
COCOC1=CC=C(C=C1)CNC(=O)CCCCCN2CCN(CC2)C3=CC=CC=C3C4=CC=C(C=C4)OC

> <PUBCHEM_CACTVS_TPSA>
63.3

> <PUBCHEM_MONOISOTOPIC_WEIGHT>
531.30970680

> <PUBCHEM_TOTAL_CHARGE>
0

> <PUBCHEM_HEAVY_ATOM_COUNT>
39

> <PUBCHEM_ATOM_DEF_STEREO_COUNT>
0

> <PUBCHEM_ATOM_UDEF_STEREO_COUNT>
0

> <PUBCHEM_BOND_DEF_STEREO_COUNT>
0

> <PUBCHEM_BOND_UDEF_STEREO_COUNT>
0

> <PUBCHEM_ISOTOPIC_ATOM_COUNT>
0

> <PUBCHEM_COMPONENT_COUNT>
1

> <PUBCHEM_CACTVS_TAUTO_COUNT>
-1

> <PUBCHEM_COORDINATE_TYPE>
1
5
255

> <PUBCHEM_BONDANNOTATIONS>
14  17  8
14  18  8
17  21  8
18  22  8
20  25  8
20  26  8
21  23  8
22  23  8
25  27  8
26  28  8
27  29  8
28  29  8
31  32  8
31  33  8
32  34  8
33  35  8
34  37  8
35  37  8

$$$$
