12730772
  -OEChem-09292322092D

 39 40  0     0  0  0  0  0  0999 V2000
    2.0000   -4.5000    0.0000 Cl  0  0  0  0  0  0  0  0  0  0  0  0
    3.7320   -1.5000    0.0000 O   0  0  0  0  0  0  0  0  0  0  0  0
    5.4641    1.5000    0.0000 N   0  0  0  0  0  0  0  0  0  0  0  0
    5.4641    3.5000    0.0000 N   0  0  0  0  0  0  0  0  0  0  0  0
    6.3301    2.0000    0.0000 C   0  0  0  0  0  0  0  0  0  0  0  0
    4.5981    2.0000    0.0000 C   0  0  0  0  0  0  0  0  0  0  0  0
    6.3301    3.0000    0.0000 C   0  0  0  0  0  0  0  0  0  0  0  0
    4.5981    3.0000    0.0000 C   0  0  0  0  0  0  0  0  0  0  0  0
    5.4641    0.5000    0.0000 C   0  0  0  0  0  0  0  0  0  0  0  0
    4.5981    0.0000    0.0000 C   0  0  0  0  0  0  0  0  0  0  0  0
    5.4641    4.5000    0.0000 C   0  0  0  0  0  0  0  0  0  0  0  0
    4.5981   -1.0000    0.0000 C   0  0  0  0  0  0  0  0  0  0  0  0
    3.7320   -2.5000    0.0000 C   0  0  0  0  0  0  0  0  0  0  0  0
    2.8660   -3.0000    0.0000 C   0  0  0  0  0  0  0  0  0  0  0  0
    4.5981   -3.0000    0.0000 C   0  0  0  0  0  0  0  0  0  0  0  0
    2.8660   -4.0000    0.0000 C   0  0  0  0  0  0  0  0  0  0  0  0
    4.5981   -4.0000    0.0000 C   0  0  0  0  0  0  0  0  0  0  0  0
    3.7320   -4.5000    0.0000 C   0  0  0  0  0  0  0  0  0  0  0  0
    6.5422    1.4174    0.0000 H   0  0  0  0  0  0  0  0  0  0  0  0
    6.9407    2.1077    0.0000 H   0  0  0  0  0  0  0  0  0  0  0  0
    3.9875    2.1077    0.0000 H   0  0  0  0  0  0  0  0  0  0  0  0
    4.3860    1.4174    0.0000 H   0  0  0  0  0  0  0  0  0  0  0  0
    6.9407    2.8923    0.0000 H   0  0  0  0  0  0  0  0  0  0  0  0
    6.5422    3.5826    0.0000 H   0  0  0  0  0  0  0  0  0  0  0  0
    4.3860    3.5826    0.0000 H   0  0  0  0  0  0  0  0  0  0  0  0
    3.9875    2.8923    0.0000 H   0  0  0  0  0  0  0  0  0  0  0  0
    5.6762   -0.0826    0.0000 H   0  0  0  0  0  0  0  0  0  0  0  0
    6.0747    0.6077    0.0000 H   0  0  0  0  0  0  0  0  0  0  0  0
    4.3860    0.5826    0.0000 H   0  0  0  0  0  0  0  0  0  0  0  0
    3.9875   -0.1077    0.0000 H   0  0  0  0  0  0  0  0  0  0  0  0
    6.0841    4.5000    0.0000 H   0  0  0  0  0  0  0  0  0  0  0  0
    5.4641    5.1200    0.0000 H   0  0  0  0  0  0  0  0  0  0  0  0
    4.8441    4.5000    0.0000 H   0  0  0  0  0  0  0  0  0  0  0  0
    4.8101   -1.5826    0.0000 H   0  0  0  0  0  0  0  0  0  0  0  0
    5.2087   -0.8923    0.0000 H   0  0  0  0  0  0  0  0  0  0  0  0
    2.3291   -2.6900    0.0000 H   0  0  0  0  0  0  0  0  0  0  0  0
    5.1350   -2.6900    0.0000 H   0  0  0  0  0  0  0  0  0  0  0  0
    5.1350   -4.3100    0.0000 H   0  0  0  0  0  0  0  0  0  0  0  0
    3.7320   -5.1200    0.0000 H   0  0  0  0  0  0  0  0  0  0  0  0
  1 16  1  0  0  0  0
  2 12  1  0  0  0  0
  2 13  1  0  0  0  0
  3  5  1  0  0  0  0
  3  6  1  0  0  0  0
  3  9  1  0  0  0  0
  4  7  1  0  0  0  0
  4  8  1  0  0  0  0
  4 11  1  0  0  0  0
  5  7  1  0  0  0  0
  5 19  1  0  0  0  0
  5 20  1  0  0  0  0
  6  8  1  0  0  0  0
  6 21  1  0  0  0  0
  6 22  1  0  0  0  0
  7 23  1  0  0  0  0
  7 24  1  0  0  0  0
  8 25  1  0  0  0  0
  8 26  1  0  0  0  0
  9 10  1  0  0  0  0
  9 27  1  0  0  0  0
  9 28  1  0  0  0  0
 10 12  1  0  0  0  0
 10 29  1  0  0  0  0
 10 30  1  0  0  0  0
 11 31  1  0  0  0  0
 11 32  1  0  0  0  0
 11 33  1  0  0  0  0
 12 34  1  0  0  0  0
 12 35  1  0  0  0  0
 13 14  2  0  0  0  0
 13 15  1  0  0  0  0
 14 16  1  0  0  0  0
 14 36  1  0  0  0  0
 15 17  2  0  0  0  0
 15 37  1  0  0  0  0
 16 18  2  0  0  0  0
 17 18  1  0  0  0  0
 17 38  1  0  0  0  0
 18 39  1  0  0  0  0
M  END
> <PUBCHEM_COMPOUND_CID>
12730772

> <PUBCHEM_COMPOUND_CANONICALIZED>
1

> <PUBCHEM_CACTVS_COMPLEXITY>
232

> <PUBCHEM_CACTVS_HBOND_ACCEPTOR>
3

> <PUBCHEM_CACTVS_HBOND_DONOR>
0

> <PUBCHEM_CACTVS_ROTATABLE_BOND>
5

> <PUBCHEM_CACTVS_SUBSKEYS>
AAADceBzIAAEAAAAAAAAAAAAAAAAAAAAAAA8QAAAAAAAAAABAAAAHgIAAAAACAbhkCYyBoMABACAACBCAAACCAAgJQAIiAAOCogMZiKFMxqWOCCmwBGIqAeAQAAAAAAAAQAAAAAAAAACAAAAAAAAAAAAAA==

> <PUBCHEM_IUPAC_OPENEYE_NAME>
1-[3-(3-chlorophenoxy)propyl]-4-methyl-piperazine

> <PUBCHEM_IUPAC_CAS_NAME>
1-[3-(3-chlorophenoxy)propyl]-4-methylpiperazine

> <PUBCHEM_IUPAC_NAME_MARKUP>
1-[3-(3-chlorophenoxy)propyl]-4-methylpiperazine

> <PUBCHEM_IUPAC_NAME>
1-[3-(3-chlorophenoxy)propyl]-4-methylpiperazine

> <PUBCHEM_IUPAC_SYSTEMATIC_NAME>
1-[3-(3-chloranylphenoxy)propyl]-4-methyl-piperazine

> <PUBCHEM_IUPAC_TRADITIONAL_NAME>
1-[3-(3-chlorophenoxy)propyl]-4-methyl-piperazine

> <PUBCHEM_IUPAC_INCHI>
InChI=1S/C14H21ClN2O/c1-16-7-9-17(10-8-16)6-3-11-18-14-5-2-4-13(15)12-14/h2,4-5,12H,3,6-11H2,1H3

> <PUBCHEM_IUPAC_INCHIKEY>
WJJUZLTUFLIIQW-UHFFFAOYSA-N

> <PUBCHEM_XLOGP3_AA>
2.7

> <PUBCHEM_EXACT_MASS>
268.1342410

> <PUBCHEM_MOLECULAR_FORMULA>
C14H21ClN2O

> <PUBCHEM_MOLECULAR_WEIGHT>
268.78

> <PUBCHEM_OPENEYE_CAN_SMILES>
CN1CCN(CC1)CCCOC2=CC(=CC=C2)Cl

> <PUBCHEM_OPENEYE_ISO_SMILES>
CN1CCN(CC1)CCCOC2=CC(=CC=C2)Cl

> <PUBCHEM_CACTVS_TPSA>
15.7

> <PUBCHEM_MONOISOTOPIC_WEIGHT>
268.1342410

> <PUBCHEM_TOTAL_CHARGE>
0

> <PUBCHEM_HEAVY_ATOM_COUNT>
18

> <PUBCHEM_ATOM_DEF_STEREO_COUNT>
0

> <PUBCHEM_ATOM_UDEF_STEREO_COUNT>
0

> <PUBCHEM_BOND_DEF_STEREO_COUNT>
0

> <PUBCHEM_BOND_UDEF_STEREO_COUNT>
0

> <PUBCHEM_ISOTOPIC_ATOM_COUNT>
0

> <PUBCHEM_COMPONENT_COUNT>
1

> <PUBCHEM_CACTVS_TAUTO_COUNT>
-1

> <PUBCHEM_COORDINATE_TYPE>
1
5
255

> <PUBCHEM_BONDANNOTATIONS>
13  14  8
13  15  8
14  16  8
15  17  8
16  18  8
17  18  8

$$$$
