118725996
  -OEChem-09292322002D

 97 98  0     1  0  0  0  0  0999 V2000
    8.1962   -2.5530    0.0000 O   0  0  0  0  0  0  0  0  0  0  0  0
   15.9221   -9.0530    0.0000 O   0  0  0  0  0  0  0  0  0  0  0  0
    3.0000    8.4470    0.0000 O   0  0  0  0  0  0  0  0  0  0  0  0
    4.7320    8.4470    0.0000 O   0  0  0  0  0  0  0  0  0  0  0  0
   11.6603   -5.5530    0.0000 N   0  0  3  0  0  0  0  0  0  0  0  0
    9.9282   -2.5530    0.0000 N   0  0  0  0  0  0  0  0  0  0  0  0
   14.3385   -9.8577    0.0000 N   0  0  0  0  0  0  0  0  0  0  0  0
    3.8660    6.9470    0.0000 N   0  0  0  0  0  0  0  0  0  0  0  0
   11.6603   -6.5530    0.0000 C   0  0  0  0  0  0  0  0  0  0  0  0
    6.4641    2.4470    0.0000 C   0  0  0  0  0  0  0  0  0  0  0  0
    7.3301    1.9470    0.0000 C   0  0  0  0  0  0  0  0  0  0  0  0
    6.4641    3.4470    0.0000 C   0  0  0  0  0  0  0  0  0  0  0  0
    7.3301    0.9470    0.0000 C   0  0  0  0  0  0  0  0  0  0  0  0
   10.7942   -5.0530    0.0000 C   0  0  0  0  0  0  0  0  0  0  0  0
   12.5263   -7.0530    0.0000 C   0  0  0  0  0  0  0  0  0  0  0  0
    5.5981    3.9470    0.0000 C   0  0  0  0  0  0  0  0  0  0  0  0
    8.1962    0.4470    0.0000 C   0  0  0  0  0  0  0  0  0  0  0  0
   12.5263   -5.0530    0.0000 C   0  0  0  0  0  0  0  0  0  0  0  0
   10.7942   -4.0530    0.0000 C   0  0  0  0  0  0  0  0  0  0  0  0
   12.5263   -8.0530    0.0000 C   0  0  0  0  0  0  0  0  0  0  0  0
    8.1962   -0.5530    0.0000 C   0  0  0  0  0  0  0  0  0  0  0  0
    5.5981    4.9470    0.0000 C   0  0  0  0  0  0  0  0  0  0  0  0
   13.3923   -8.5530    0.0000 C   0  0  0  0  0  0  0  0  0  0  0  0
    9.9282   -3.5530    0.0000 C   0  0  0  0  0  0  0  0  0  0  0  0
    9.0622   -1.0530    0.0000 C   0  0  0  0  0  0  0  0  0  0  0  0
    4.7320    5.4470    0.0000 C   0  0  0  0  0  0  0  0  0  0  0  0
   12.5263   -4.0530    0.0000 C   0  0  0  0  0  0  0  0  0  0  0  0
   14.3385   -8.2482    0.0000 C   0  0  0  0  0  0  0  0  0  0  0  0
   13.3923   -9.5530    0.0000 C   0  0  0  0  0  0  0  0  0  0  0  0
   11.6603   -8.5530    0.0000 C   0  0  0  0  0  0  0  0  0  0  0  0
    9.0622   -2.0530    0.0000 C   0  0  0  0  0  0  0  0  0  0  0  0
    4.7320    6.4470    0.0000 C   0  0  0  0  0  0  0  0  0  0  0  0
   14.9221   -9.0530    0.0000 C   0  0  0  0  0  0  0  0  0  0  0  0
   12.5263  -10.0530    0.0000 C   0  0  0  0  0  0  0  0  0  0  0  0
   11.6603   -9.5530    0.0000 C   0  0  0  0  0  0  0  0  0  0  0  0
   13.3923   -3.5530    0.0000 C   0  0  0  0  0  0  0  0  0  0  0  0
    3.0000    9.4470    0.0000 C   0  0  0  0  0  0  0  0  0  0  0  0
    3.8660    7.9470    0.0000 C   0  0  0  0  0  0  0  0  0  0  0  0
    3.0000   10.4470    0.0000 C   0  0  0  0  0  0  0  0  0  0  0  0
    2.0000    9.4470    0.0000 C   0  0  0  0  0  0  0  0  0  0  0  0
    4.0000    9.4470    0.0000 C   0  0  0  0  0  0  0  0  0  0  0  0
    5.8535    2.5547    0.0000 H   0  0  0  0  0  0  0  0  0  0  0  0
    6.2520    1.8644    0.0000 H   0  0  0  0  0  0  0  0  0  0  0  0
   11.0497   -6.4453    0.0000 H   0  0  0  0  0  0  0  0  0  0  0  0
   11.4482   -7.1356    0.0000 H   0  0  0  0  0  0  0  0  0  0  0  0
    7.9407    1.8394    0.0000 H   0  0  0  0  0  0  0  0  0  0  0  0
    7.5422    2.5296    0.0000 H   0  0  0  0  0  0  0  0  0  0  0  0
    7.0747    3.3394    0.0000 H   0  0  0  0  0  0  0  0  0  0  0  0
    6.6762    4.0296    0.0000 H   0  0  0  0  0  0  0  0  0  0  0  0
    6.7196    1.0547    0.0000 H   0  0  0  0  0  0  0  0  0  0  0  0
    7.1181    0.3644    0.0000 H   0  0  0  0  0  0  0  0  0  0  0  0
   10.1836   -4.9453    0.0000 H   0  0  0  0  0  0  0  0  0  0  0  0
   10.5822   -5.6356    0.0000 H   0  0  0  0  0  0  0  0  0  0  0  0
   13.1369   -7.1606    0.0000 H   0  0  0  0  0  0  0  0  0  0  0  0
   12.7383   -6.4704    0.0000 H   0  0  0  0  0  0  0  0  0  0  0  0
    4.9875    4.0547    0.0000 H   0  0  0  0  0  0  0  0  0  0  0  0
    5.3860    3.3644    0.0000 H   0  0  0  0  0  0  0  0  0  0  0  0
    8.8067    0.3394    0.0000 H   0  0  0  0  0  0  0  0  0  0  0  0
    8.4082    1.0296    0.0000 H   0  0  0  0  0  0  0  0  0  0  0  0
   12.7383   -5.6356    0.0000 H   0  0  0  0  0  0  0  0  0  0  0  0
   13.1369   -4.9453    0.0000 H   0  0  0  0  0  0  0  0  0  0  0  0
   11.4048   -4.1606    0.0000 H   0  0  0  0  0  0  0  0  0  0  0  0
   11.0063   -3.4704    0.0000 H   0  0  0  0  0  0  0  0  0  0  0  0
    7.5856   -0.4453    0.0000 H   0  0  0  0  0  0  0  0  0  0  0  0
    7.9841   -1.1356    0.0000 H   0  0  0  0  0  0  0  0  0  0  0  0
    6.2087    4.8394    0.0000 H   0  0  0  0  0  0  0  0  0  0  0  0
    5.8101    5.5296    0.0000 H   0  0  0  0  0  0  0  0  0  0  0  0
    9.3176   -3.4453    0.0000 H   0  0  0  0  0  0  0  0  0  0  0  0
    9.7162   -4.1356    0.0000 H   0  0  0  0  0  0  0  0  0  0  0  0
    9.6728   -1.1606    0.0000 H   0  0  0  0  0  0  0  0  0  0  0  0
    9.2742   -0.4704    0.0000 H   0  0  0  0  0  0  0  0  0  0  0  0
    4.1215    5.5547    0.0000 H   0  0  0  0  0  0  0  0  0  0  0  0
    4.5200    4.8644    0.0000 H   0  0  0  0  0  0  0  0  0  0  0  0
   12.3142   -3.4704    0.0000 H   0  0  0  0  0  0  0  0  0  0  0  0
   11.9157   -4.1606    0.0000 H   0  0  0  0  0  0  0  0  0  0  0  0
   14.8759   -7.9390    0.0000 H   0  0  0  0  0  0  0  0  0  0  0  0
   14.0875   -7.6813    0.0000 H   0  0  0  0  0  0  0  0  0  0  0  0
   11.1233   -8.2430    0.0000 H   0  0  0  0  0  0  0  0  0  0  0  0
   10.4651   -2.2430    0.0000 H   0  0  0  0  0  0  0  0  0  0  0  0
    5.3426    6.3394    0.0000 H   0  0  0  0  0  0  0  0  0  0  0  0
    4.9441    7.0296    0.0000 H   0  0  0  0  0  0  0  0  0  0  0  0
   14.5311  -10.4470    0.0000 H   0  0  0  0  0  0  0  0  0  0  0  0
   12.5263  -10.6730    0.0000 H   0  0  0  0  0  0  0  0  0  0  0  0
   11.1233   -9.8630    0.0000 H   0  0  0  0  0  0  0  0  0  0  0  0
   13.7023   -4.0899    0.0000 H   0  0  0  0  0  0  0  0  0  0  0  0
   13.9292   -3.2430    0.0000 H   0  0  0  0  0  0  0  0  0  0  0  0
   13.0823   -3.0160    0.0000 H   0  0  0  0  0  0  0  0  0  0  0  0
    3.3291    6.6370    0.0000 H   0  0  0  0  0  0  0  0  0  0  0  0
    3.6200   10.4470    0.0000 H   0  0  0  0  0  0  0  0  0  0  0  0
    3.0000   11.0670    0.0000 H   0  0  0  0  0  0  0  0  0  0  0  0
    2.3800   10.4470    0.0000 H   0  0  0  0  0  0  0  0  0  0  0  0
    2.0000   10.0670    0.0000 H   0  0  0  0  0  0  0  0  0  0  0  0
    1.3800    9.4470    0.0000 H   0  0  0  0  0  0  0  0  0  0  0  0
    2.0000    8.8270    0.0000 H   0  0  0  0  0  0  0  0  0  0  0  0
    4.0000    8.8270    0.0000 H   0  0  0  0  0  0  0  0  0  0  0  0
    4.6200    9.4470    0.0000 H   0  0  0  0  0  0  0  0  0  0  0  0
    4.0000   10.0670    0.0000 H   0  0  0  0  0  0  0  0  0  0  0  0
  1 31  2  0  0  0  0
  2 33  2  0  0  0  0
  3 37  1  0  0  0  0
  3 38  1  0  0  0  0
  4 38  2  0  0  0  0
  5  9  1  0  0  0  0
  5 14  1  0  0  0  0
  5 18  1  0  0  0  0
  6 24  1  0  0  0  0
  6 31  1  0  0  0  0
  6 79  1  0  0  0  0
  7 29  1  0  0  0  0
  7 33  1  0  0  0  0
  7 82  1  0  0  0  0
  8 32  1  0  0  0  0
  8 38  1  0  0  0  0
  8 88  1  0  0  0  0
  9 15  1  0  0  0  0
  9 44  1  0  0  0  0
  9 45  1  0  0  0  0
 10 11  1  0  0  0  0
 10 12  1  0  0  0  0
 10 42  1  0  0  0  0
 10 43  1  0  0  0  0
 11 13  1  0  0  0  0
 11 46  1  0  0  0  0
 11 47  1  0  0  0  0
 12 16  1  0  0  0  0
 12 48  1  0  0  0  0
 12 49  1  0  0  0  0
 13 17  1  0  0  0  0
 13 50  1  0  0  0  0
 13 51  1  0  0  0  0
 14 19  1  0  0  0  0
 14 52  1  0  0  0  0
 14 53  1  0  0  0  0
 15 20  1  0  0  0  0
 15 54  1  0  0  0  0
 15 55  1  0  0  0  0
 16 22  1  0  0  0  0
 16 56  1  0  0  0  0
 16 57  1  0  0  0  0
 17 21  1  0  0  0  0
 17 58  1  0  0  0  0
 17 59  1  0  0  0  0
 18 27  1  0  0  0  0
 18 60  1  0  0  0  0
 18 61  1  0  0  0  0
 19 24  1  0  0  0  0
 19 62  1  0  0  0  0
 19 63  1  0  0  0  0
 20 23  2  0  0  0  0
 20 30  1  0  0  0  0
 21 25  1  0  0  0  0
 21 64  1  0  0  0  0
 21 65  1  0  0  0  0
 22 26  1  0  0  0  0
 22 66  1  0  0  0  0
 22 67  1  0  0  0  0
 23 28  1  0  0  0  0
 23 29  1  0  0  0  0
 24 68  1  0  0  0  0
 24 69  1  0  0  0  0
 25 31  1  0  0  0  0
 25 70  1  0  0  0  0
 25 71  1  0  0  0  0
 26 32  1  0  0  0  0
 26 72  1  0  0  0  0
 26 73  1  0  0  0  0
 27 36  1  0  0  0  0
 27 74  1  0  0  0  0
 27 75  1  0  0  0  0
 28 33  1  0  0  0  0
 28 76  1  0  0  0  0
 28 77  1  0  0  0  0
 29 34  2  0  0  0  0
 30 35  2  0  0  0  0
 30 78  1  0  0  0  0
 32 80  1  0  0  0  0
 32 81  1  0  0  0  0
 34 35  1  0  0  0  0
 34 83  1  0  0  0  0
 35 84  1  0  0  0  0
 36 85  1  0  0  0  0
 36 86  1  0  0  0  0
 36 87  1  0  0  0  0
 37 39  1  0  0  0  0
 37 40  1  0  0  0  0
 37 41  1  0  0  0  0
 39 89  1  0  0  0  0
 39 90  1  0  0  0  0
 39 91  1  0  0  0  0
 40 92  1  0  0  0  0
 40 93  1  0  0  0  0
 40 94  1  0  0  0  0
 41 95  1  0  0  0  0
 41 96  1  0  0  0  0
 41 97  1  0  0  0  0
M  END
> <PUBCHEM_COMPOUND_CID>
118725996

> <PUBCHEM_COMPOUND_CANONICALIZED>
1

> <PUBCHEM_CACTVS_COMPLEXITY>
754

> <PUBCHEM_CACTVS_HBOND_ACCEPTOR>
5

> <PUBCHEM_CACTVS_HBOND_DONOR>
3

> <PUBCHEM_CACTVS_ROTATABLE_BOND>
23

> <PUBCHEM_CACTVS_SUBSKEYS>
AAADcfB/uAAAAAAAAAAAAAAAAAAAAWAAAAAwAAAAAAAAAFgBAAAAHgAQAAAADEzBmAQyyIPABACIAiVSWACCAAAhAgAIiIEIZIkIIDLA1ZGMIAhglgDIyAcciICOgAAAQAASAAAAAACAACQAAAAAAAAAAA==

> <PUBCHEM_IUPAC_OPENEYE_NAME>
tert-butyl N-[12-oxo-12-[3-[2-(2-oxoindolin-4-yl)ethyl-propyl-amino]propylamino]dodecyl]carbamate

> <PUBCHEM_IUPAC_CAS_NAME>
N-[12-oxo-12-[3-[2-(2-oxo-1,3-dihydroindol-4-yl)ethyl-propylamino]propylamino]dodecyl]carbamic acid tert-butyl ester

> <PUBCHEM_IUPAC_NAME_MARKUP>
<I>tert</I>-butyl <I>N</I>-[12-oxo-12-[3-[2-(2-oxo-1,3-dihydroindol-4-yl)ethyl-propylamino]propylamino]dodecyl]carbamate

> <PUBCHEM_IUPAC_NAME>
tert-butyl N-[12-oxo-12-[3-[2-(2-oxo-1,3-dihydroindol-4-yl)ethyl-propylamino]propylamino]dodecyl]carbamate

> <PUBCHEM_IUPAC_SYSTEMATIC_NAME>
tert-butyl N-[12-oxidanylidene-12-[3-[2-(2-oxidanylidene-1,3-dihydroindol-4-yl)ethyl-propyl-amino]propylamino]dodecyl]carbamate

> <PUBCHEM_IUPAC_TRADITIONAL_NAME>
N-[12-keto-12-[3-[2-(2-ketoindolin-4-yl)ethyl-propyl-amino]propylamino]dodecyl]carbamic acid tert-butyl ester

> <PUBCHEM_IUPAC_INCHI>
InChI=1S/C33H56N4O4/c1-5-23-37(25-20-27-17-15-18-29-28(27)26-31(39)36-29)24-16-22-34-30(38)19-13-11-9-7-6-8-10-12-14-21-35-32(40)41-33(2,3)4/h15,17-18H,5-14,16,19-26H2,1-4H3,(H,34,38)(H,35,40)(H,36,39)

> <PUBCHEM_IUPAC_INCHIKEY>
WCZVRYOCPPENFW-UHFFFAOYSA-N

> <PUBCHEM_XLOGP3>
6.4

> <PUBCHEM_EXACT_MASS>
572.43015628

> <PUBCHEM_MOLECULAR_FORMULA>
C33H56N4O4

> <PUBCHEM_MOLECULAR_WEIGHT>
572.8

> <PUBCHEM_OPENEYE_CAN_SMILES>
CCCN(CCCNC(=O)CCCCCCCCCCCNC(=O)OC(C)(C)C)CCC1=C2CC(=O)NC2=CC=C1

> <PUBCHEM_OPENEYE_ISO_SMILES>
CCCN(CCCNC(=O)CCCCCCCCCCCNC(=O)OC(C)(C)C)CCC1=C2CC(=O)NC2=CC=C1

> <PUBCHEM_CACTVS_TPSA>
99.8

> <PUBCHEM_MONOISOTOPIC_WEIGHT>
572.43015628

> <PUBCHEM_TOTAL_CHARGE>
0

> <PUBCHEM_HEAVY_ATOM_COUNT>
41

> <PUBCHEM_ATOM_DEF_STEREO_COUNT>
0

> <PUBCHEM_ATOM_UDEF_STEREO_COUNT>
0

> <PUBCHEM_BOND_DEF_STEREO_COUNT>
0

> <PUBCHEM_BOND_UDEF_STEREO_COUNT>
0

> <PUBCHEM_ISOTOPIC_ATOM_COUNT>
0

> <PUBCHEM_COMPONENT_COUNT>
1

> <PUBCHEM_CACTVS_TAUTO_COUNT>
-1

> <PUBCHEM_COORDINATE_TYPE>
1
5
255

> <PUBCHEM_BONDANNOTATIONS>
20  23  8
20  30  8
23  29  8
29  34  8
30  35  8
34  35  8

$$$$
