155195433
  -OEChem-09292322462D

 68 72  0     1  0  0  0  0  0999 V2000
    2.9061   -3.0173    0.0000 O   0  0  0  0  0  0  0  0  0  0  0  0
    5.5321   -4.5520    0.0000 O   0  0  0  0  0  0  0  0  0  0  0  0
    5.5442   -0.4827    0.0000 O   0  0  0  0  0  0  0  0  0  0  0  0
    8.1287    3.0272    0.0000 O   0  0  0  0  0  0  0  0  0  0  0  0
   10.7389    7.5965    0.0000 O   0  0  0  0  0  0  0  0  0  0  0  0
    2.9061   -5.0867    0.0000 N   0  0  3  0  0  0  0  0  0  0  0  0
    9.8729    6.0965    0.0000 N   0  0  0  0  0  0  0  0  0  0  0  0
    3.8000   -4.5520    0.0000 C   0  0  1  0  0  0  0  0  0  0  0  0
    3.8000   -3.5520    0.0000 C   0  0  1  0  0  0  0  0  0  0  0  0
    4.6660   -5.0520    0.0000 C   0  0  0  0  0  0  0  0  0  0  0  0
    2.0000   -4.5728    0.0000 C   0  0  0  0  0  0  0  0  0  0  0  0
    4.6660   -3.0520    0.0000 C   0  0  0  0  0  0  0  0  0  0  0  0
    2.9176   -6.0866    0.0000 C   0  0  0  0  0  0  0  0  0  0  0  0
    2.0000   -3.5312    0.0000 C   0  0  0  0  0  0  0  0  0  0  0  0
    5.5321   -3.5520    0.0000 C   0  0  0  0  0  0  0  0  0  0  0  0
    2.0574   -6.5966    0.0000 C   0  0  0  0  0  0  0  0  0  0  0  0
    4.6500   -2.0105    0.0000 C   0  0  0  0  0  0  0  0  0  0  0  0
    6.4421   -3.0452    0.0000 C   0  0  0  0  0  0  0  0  0  0  0  0
    5.5480   -1.4827    0.0000 C   0  0  0  0  0  0  0  0  0  0  0  0
    2.0690   -7.5965    0.0000 C   0  0  0  0  0  0  0  0  0  0  0  0
    6.4501   -2.0036    0.0000 C   0  0  0  0  0  0  0  0  0  0  0  0
    6.4082    0.0206    0.0000 C   0  0  0  0  0  0  0  0  0  0  0  0
    6.4044    1.0206    0.0000 C   0  0  0  0  0  0  0  0  0  0  0  0
    7.2685    1.5239    0.0000 C   0  0  0  0  0  0  0  0  0  0  0  0
    8.1408    7.0965    0.0000 C   0  0  0  0  0  0  0  0  0  0  0  0
    8.1408    6.0965    0.0000 C   0  0  0  0  0  0  0  0  0  0  0  0
    7.2646    2.5239    0.0000 C   0  0  0  0  0  0  0  0  0  0  0  0
    9.0068    5.5965    0.0000 C   0  0  0  0  0  0  0  0  0  0  0  0
    9.0068    7.5965    0.0000 C   0  0  0  0  0  0  0  0  0  0  0  0
    8.1249    4.0272    0.0000 C   0  0  0  0  0  0  0  0  0  0  0  0
    9.0229    4.5550    0.0000 C   0  0  0  0  0  0  0  0  0  0  0  0
    7.2308    5.5897    0.0000 C   0  0  0  0  0  0  0  0  0  0  0  0
    9.8729    7.0965    0.0000 C   0  0  0  0  0  0  0  0  0  0  0  0
    7.2228    4.5481    0.0000 C   0  0  0  0  0  0  0  0  0  0  0  0
    3.8066   -5.4020    0.0000 H   0  0  0  0  0  0  0  0  0  0  0  0
    3.8066   -2.7020    0.0000 H   0  0  0  0  0  0  0  0  0  0  0  0
    4.2675   -5.5269    0.0000 H   0  0  0  0  0  0  0  0  0  0  0  0
    5.0646   -5.5269    0.0000 H   0  0  0  0  0  0  0  0  0  0  0  0
    1.3891   -4.4667    0.0000 H   0  0  0  0  0  0  0  0  0  0  0  0
    1.7909   -5.1565    0.0000 H   0  0  0  0  0  0  0  0  0  0  0  0
    3.1364   -6.6667    0.0000 H   0  0  0  0  0  0  0  0  0  0  0  0
    3.5269   -5.9719    0.0000 H   0  0  0  0  0  0  0  0  0  0  0  0
    1.7909   -2.9475    0.0000 H   0  0  0  0  0  0  0  0  0  0  0  0
    1.3891   -3.6373    0.0000 H   0  0  0  0  0  0  0  0  0  0  0  0
    1.8387   -6.0164    0.0000 H   0  0  0  0  0  0  0  0  0  0  0  0
    1.4482   -6.7113    0.0000 H   0  0  0  0  0  0  0  0  0  0  0  0
    4.1095   -1.7067    0.0000 H   0  0  0  0  0  0  0  0  0  0  0  0
    6.9754   -3.3613    0.0000 H   0  0  0  0  0  0  0  0  0  0  0  0
    1.4490   -7.6037    0.0000 H   0  0  0  0  0  0  0  0  0  0  0  0
    2.0762   -8.2165    0.0000 H   0  0  0  0  0  0  0  0  0  0  0  0
    2.6890   -7.5893    0.0000 H   0  0  0  0  0  0  0  0  0  0  0  0
    6.9882   -1.6956    0.0000 H   0  0  0  0  0  0  0  0  0  0  0  0
    6.6226   -0.5612    0.0000 H   0  0  0  0  0  0  0  0  0  0  0  0
    7.0184    0.1306    0.0000 H   0  0  0  0  0  0  0  0  0  0  0  0
    6.1901    1.6024    0.0000 H   0  0  0  0  0  0  0  0  0  0  0  0
    5.7942    0.9106    0.0000 H   0  0  0  0  0  0  0  0  0  0  0  0
    7.4828    0.9421    0.0000 H   0  0  0  0  0  0  0  0  0  0  0  0
    7.8786    1.6339    0.0000 H   0  0  0  0  0  0  0  0  0  0  0  0
    7.9288    7.6791    0.0000 H   0  0  0  0  0  0  0  0  0  0  0  0
    7.5302    6.9888    0.0000 H   0  0  0  0  0  0  0  0  0  0  0  0
    7.0503    3.1057    0.0000 H   0  0  0  0  0  0  0  0  0  0  0  0
    6.6545    2.4139    0.0000 H   0  0  0  0  0  0  0  0  0  0  0  0
    9.4054    8.0714    0.0000 H   0  0  0  0  0  0  0  0  0  0  0  0
    8.6083    8.0714    0.0000 H   0  0  0  0  0  0  0  0  0  0  0  0
    9.5634    4.2512    0.0000 H   0  0  0  0  0  0  0  0  0  0  0  0
    6.6975    5.9058    0.0000 H   0  0  0  0  0  0  0  0  0  0  0  0
   10.4098    5.7865    0.0000 H   0  0  0  0  0  0  0  0  0  0  0  0
    6.6847    4.2401    0.0000 H   0  0  0  0  0  0  0  0  0  0  0  0
  1  9  1  0  0  0  0
  1 14  1  0  0  0  0
  2 10  1  0  0  0  0
  2 15  1  0  0  0  0
  3 19  1  0  0  0  0
  3 22  1  0  0  0  0
  4 27  1  0  0  0  0
  4 30  1  0  0  0  0
  5 33  2  0  0  0  0
  6  8  1  0  0  0  0
  6 11  1  0  0  0  0
  6 13  1  0  0  0  0
  7 28  1  0  0  0  0
  7 33  1  0  0  0  0
  7 67  1  0  0  0  0
  8  9  1  0  0  0  0
  8 10  1  0  0  0  0
  8 35  1  6  0  0  0
  9 12  1  0  0  0  0
  9 36  1  1  0  0  0
 10 37  1  0  0  0  0
 10 38  1  0  0  0  0
 11 14  1  0  0  0  0
 11 39  1  0  0  0  0
 11 40  1  0  0  0  0
 12 15  2  0  0  0  0
 12 17  1  0  0  0  0
 13 16  1  0  0  0  0
 13 41  1  0  0  0  0
 13 42  1  0  0  0  0
 14 43  1  0  0  0  0
 14 44  1  0  0  0  0
 15 18  1  0  0  0  0
 16 20  1  0  0  0  0
 16 45  1  0  0  0  0
 16 46  1  0  0  0  0
 17 19  2  0  0  0  0
 17 47  1  0  0  0  0
 18 21  2  0  0  0  0
 18 48  1  0  0  0  0
 19 21  1  0  0  0  0
 20 49  1  0  0  0  0
 20 50  1  0  0  0  0
 20 51  1  0  0  0  0
 21 52  1  0  0  0  0
 22 23  1  0  0  0  0
 22 53  1  0  0  0  0
 22 54  1  0  0  0  0
 23 24  1  0  0  0  0
 23 55  1  0  0  0  0
 23 56  1  0  0  0  0
 24 27  1  0  0  0  0
 24 57  1  0  0  0  0
 24 58  1  0  0  0  0
 25 26  1  0  0  0  0
 25 29  1  0  0  0  0
 25 59  1  0  0  0  0
 25 60  1  0  0  0  0
 26 28  2  0  0  0  0
 26 32  1  0  0  0  0
 27 61  1  0  0  0  0
 27 62  1  0  0  0  0
 28 31  1  0  0  0  0
 29 33  1  0  0  0  0
 29 63  1  0  0  0  0
 29 64  1  0  0  0  0
 30 31  2  0  0  0  0
 30 34  1  0  0  0  0
 31 65  1  0  0  0  0
 32 34  2  0  0  0  0
 32 66  1  0  0  0  0
 34 68  1  0  0  0  0
M  END
> <PUBCHEM_COMPOUND_CID>
155195433

> <PUBCHEM_COMPOUND_CANONICALIZED>
1

> <PUBCHEM_CACTVS_COMPLEXITY>
663

> <PUBCHEM_CACTVS_HBOND_ACCEPTOR>
6

> <PUBCHEM_CACTVS_HBOND_DONOR>
1

> <PUBCHEM_CACTVS_ROTATABLE_BOND>
9

> <PUBCHEM_CACTVS_SUBSKEYS>
AAADcfB7OAAAAAAAAAAAAAAAAAAAAAAAAAA8eJECAAAAAACxQAAAHgAQAAAADDzhmAYyxoPABACIAiVSUACCCAAhIgAIiAEObIgOJzLEsZuHOCjn1BnY6Af42bOeIQABAgAKAABCAAIEABQAAAAAAAAAAA==

> <PUBCHEM_IUPAC_OPENEYE_NAME>
7-[4-[[(4aR,10bR)-4-propyl-3,4a,5,10b-tetrahydro-2H-chromeno[4,3-b][1,4]oxazin-9-yl]oxy]butoxy]-3,4-dihydro-1H-quinolin-2-one

> <PUBCHEM_IUPAC_CAS_NAME>
7-[4-[[(4aR,10bR)-4-propyl-3,4a,5,10b-tetrahydro-2H-[1]benzopyrano[4,3-b][1,4]oxazin-9-yl]oxy]butoxy]-3,4-dihydro-1H-quinolin-2-one

> <PUBCHEM_IUPAC_NAME_MARKUP>
7-[4-[[(4<I>a</I><I>R</I>,10<I>b</I><I>R</I>)-4-propyl-3,4<I>a</I>,5,10<I>b</I>-tetrahydro-2<I>H</I>-chromeno[4,3-b][1,4]oxazin-9-yl]oxy]butoxy]-3,4-dihydro-1<I>H</I>-quinolin-2-one

> <PUBCHEM_IUPAC_NAME>
7-[4-[[(4aR,10bR)-4-propyl-3,4a,5,10b-tetrahydro-2H-chromeno[4,3-b][1,4]oxazin-9-yl]oxy]butoxy]-3,4-dihydro-1H-quinolin-2-one

> <PUBCHEM_IUPAC_SYSTEMATIC_NAME>
7-[4-[[(4aR,10bR)-4-propyl-3,4a,5,10b-tetrahydro-2H-chromeno[4,3-b][1,4]oxazin-9-yl]oxy]butoxy]-3,4-dihydro-1H-quinolin-2-one

> <PUBCHEM_IUPAC_TRADITIONAL_NAME>
7-[4-[[(4aR,10bR)-4-propyl-3,4a,5,10b-tetrahydro-2H-chromeno[4,3-b][1,4]oxazin-9-yl]oxy]butoxy]-3,4-dihydrocarbostyril

> <PUBCHEM_IUPAC_INCHI>
InChI=1S/C27H34N2O5/c1-2-11-29-12-15-33-27-22-16-20(8-9-25(22)34-18-24(27)29)31-13-3-4-14-32-21-7-5-19-6-10-26(30)28-23(19)17-21/h5,7-9,16-17,24,27H,2-4,6,10-15,18H2,1H3,(H,28,30)/t24-,27-/m1/s1

> <PUBCHEM_IUPAC_INCHIKEY>
CCLFPDYNKMPZJO-SHQCIBLASA-N

> <PUBCHEM_XLOGP3>
3.8

> <PUBCHEM_EXACT_MASS>
466.24677219

> <PUBCHEM_MOLECULAR_FORMULA>
C27H34N2O5

> <PUBCHEM_MOLECULAR_WEIGHT>
466.6

> <PUBCHEM_OPENEYE_CAN_SMILES>
CCCN1CCOC2C1COC3=C2C=C(C=C3)OCCCCOC4=CC5=C(CCC(=O)N5)C=C4

> <PUBCHEM_OPENEYE_ISO_SMILES>
CCCN1CCO[C@H]2[C@H]1COC3=C2C=C(C=C3)OCCCCOC4=CC5=C(CCC(=O)N5)C=C4

> <PUBCHEM_CACTVS_TPSA>
69.3

> <PUBCHEM_MONOISOTOPIC_WEIGHT>
466.24677219

> <PUBCHEM_TOTAL_CHARGE>
0

> <PUBCHEM_HEAVY_ATOM_COUNT>
34

> <PUBCHEM_ATOM_DEF_STEREO_COUNT>
2

> <PUBCHEM_ATOM_UDEF_STEREO_COUNT>
0

> <PUBCHEM_BOND_DEF_STEREO_COUNT>
0

> <PUBCHEM_BOND_UDEF_STEREO_COUNT>
0

> <PUBCHEM_ISOTOPIC_ATOM_COUNT>
0

> <PUBCHEM_COMPONENT_COUNT>
1

> <PUBCHEM_CACTVS_TAUTO_COUNT>
-1

> <PUBCHEM_COORDINATE_TYPE>
1
5
255

> <PUBCHEM_BONDANNOTATIONS>
12  15  8
12  17  8
15  18  8
17  19  8
18  21  8
19  21  8
26  28  8
26  32  8
28  31  8
30  31  8
30  34  8
32  34  8
8  35  6
9  36  5

$$$$
