122178760
  -OEChem-09292322082D

 61 65  0     1  0  0  0  0  0999 V2000
   11.5942    0.7646    0.0000 O   0  0  0  0  0  0  0  0  0  0  0  0
    5.5321    1.2646    0.0000 N   0  0  3  0  0  0  0  0  0  0  0  0
   10.7282   -0.7354    0.0000 N   0  0  0  0  0  0  0  0  0  0  0  0
   13.3680   -0.3302    0.0000 N   0  0  0  0  0  0  0  0  0  0  0  0
    8.1301    0.7646    0.0000 C   0  0  0  0  0  0  0  0  0  0  0  0
    8.9962    1.2646    0.0000 C   0  0  0  0  0  0  0  0  0  0  0  0
    8.1301   -0.2354    0.0000 C   0  0  0  0  0  0  0  0  0  0  0  0
    9.8622   -0.2354    0.0000 C   0  0  0  0  0  0  0  0  0  0  0  0
    9.8622    0.7646    0.0000 C   0  0  0  0  0  0  0  0  0  0  0  0
    8.9962   -0.7354    0.0000 C   0  0  0  0  0  0  0  0  0  0  0  0
    7.2641    1.2646    0.0000 C   0  0  0  0  0  0  0  0  0  0  0  0
    6.3981    0.7646    0.0000 C   0  0  0  0  0  0  0  0  0  0  0  0
    5.5321    2.2646    0.0000 C   0  0  0  0  0  0  0  0  0  0  0  0
    4.6660    0.7646    0.0000 C   0  0  0  0  0  0  0  0  0  0  0  0
    4.6660    2.7646    0.0000 C   0  0  0  0  0  0  0  0  0  0  0  0
    3.8000    1.2646    0.0000 C   0  0  0  0  0  0  0  0  0  0  0  0
    3.8000    2.2646    0.0000 C   0  0  0  0  0  0  0  0  0  0  0  0
   11.5942   -0.2354    0.0000 C   0  0  0  0  0  0  0  0  0  0  0  0
    2.9061    0.7300    0.0000 C   0  0  0  0  0  0  0  0  0  0  0  0
    2.9061    2.7993    0.0000 C   0  0  0  0  0  0  0  0  0  0  0  0
   12.4603   -0.7354    0.0000 C   0  0  0  0  0  0  0  0  0  0  0  0
    2.0000    1.2438    0.0000 C   0  0  0  0  0  0  0  0  0  0  0  0
    2.0000    2.2855    0.0000 C   0  0  0  0  0  0  0  0  0  0  0  0
   12.5633   -1.7241    0.0000 C   0  0  0  0  0  0  0  0  0  0  0  0
   14.0351   -1.0673    0.0000 C   0  0  0  0  0  0  0  0  0  0  0  0
   13.5351   -1.9333    0.0000 C   0  0  0  0  0  0  0  0  0  0  0  0
   15.0351   -1.0673    0.0000 C   0  0  0  0  0  0  0  0  0  0  0  0
   14.0351   -2.7993    0.0000 C   0  0  0  0  0  0  0  0  0  0  0  0
   15.5351   -1.9333    0.0000 C   0  0  0  0  0  0  0  0  0  0  0  0
   15.0351   -2.7993    0.0000 C   0  0  0  0  0  0  0  0  0  0  0  0
    7.5932    0.4546    0.0000 H   0  0  0  0  0  0  0  0  0  0  0  0
    9.3947    1.7396    0.0000 H   0  0  0  0  0  0  0  0  0  0  0  0
    8.5976    1.7396    0.0000 H   0  0  0  0  0  0  0  0  0  0  0  0
    7.5196   -0.1277    0.0000 H   0  0  0  0  0  0  0  0  0  0  0  0
    7.9181   -0.8180    0.0000 H   0  0  0  0  0  0  0  0  0  0  0  0
    9.8622   -0.8554    0.0000 H   0  0  0  0  0  0  0  0  0  0  0  0
   10.4728    0.6570    0.0000 H   0  0  0  0  0  0  0  0  0  0  0  0
   10.0742    1.3472    0.0000 H   0  0  0  0  0  0  0  0  0  0  0  0
    8.5976   -1.2103    0.0000 H   0  0  0  0  0  0  0  0  0  0  0  0
    9.3947   -1.2103    0.0000 H   0  0  0  0  0  0  0  0  0  0  0  0
    7.6626    1.7396    0.0000 H   0  0  0  0  0  0  0  0  0  0  0  0
    6.8656    1.7396    0.0000 H   0  0  0  0  0  0  0  0  0  0  0  0
    5.9996    0.2897    0.0000 H   0  0  0  0  0  0  0  0  0  0  0  0
    6.7966    0.2897    0.0000 H   0  0  0  0  0  0  0  0  0  0  0  0
   10.7282   -1.3554    0.0000 H   0  0  0  0  0  0  0  0  0  0  0  0
    6.1426    2.1570    0.0000 H   0  0  0  0  0  0  0  0  0  0  0  0
    5.7441    2.8472    0.0000 H   0  0  0  0  0  0  0  0  0  0  0  0
    4.2675    0.2897    0.0000 H   0  0  0  0  0  0  0  0  0  0  0  0
    5.0646    0.2897    0.0000 H   0  0  0  0  0  0  0  0  0  0  0  0
    5.0646    3.2396    0.0000 H   0  0  0  0  0  0  0  0  0  0  0  0
    4.2675    3.2396    0.0000 H   0  0  0  0  0  0  0  0  0  0  0  0
    2.9132    0.1100    0.0000 H   0  0  0  0  0  0  0  0  0  0  0  0
    2.9132    3.4193    0.0000 H   0  0  0  0  0  0  0  0  0  0  0  0
    1.4643    0.9318    0.0000 H   0  0  0  0  0  0  0  0  0  0  0  0
    1.4643    2.5975    0.0000 H   0  0  0  0  0  0  0  0  0  0  0  0
   13.4959    0.2764    0.0000 H   0  0  0  0  0  0  0  0  0  0  0  0
   12.1019   -2.1381    0.0000 H   0  0  0  0  0  0  0  0  0  0  0  0
   15.3451   -0.5303    0.0000 H   0  0  0  0  0  0  0  0  0  0  0  0
   13.7251   -3.3362    0.0000 H   0  0  0  0  0  0  0  0  0  0  0  0
   16.1551   -1.9333    0.0000 H   0  0  0  0  0  0  0  0  0  0  0  0
   15.3451   -3.3362    0.0000 H   0  0  0  0  0  0  0  0  0  0  0  0
  1 18  2  0  0  0  0
  2 12  1  0  0  0  0
  2 13  1  0  0  0  0
  2 14  1  0  0  0  0
  3  8  1  0  0  0  0
  3 18  1  0  0  0  0
  3 45  1  0  0  0  0
  4 21  1  0  0  0  0
  4 25  1  0  0  0  0
  4 56  1  0  0  0  0
  5  6  1  0  0  0  0
  5  7  1  0  0  0  0
  5 11  1  0  0  0  0
  5 31  1  0  0  0  0
  6  9  1  0  0  0  0
  6 32  1  0  0  0  0
  6 33  1  0  0  0  0
  7 10  1  0  0  0  0
  7 34  1  0  0  0  0
  7 35  1  0  0  0  0
  8  9  1  0  0  0  0
  8 10  1  0  0  0  0
  8 36  1  0  0  0  0
  9 37  1  0  0  0  0
  9 38  1  0  0  0  0
 10 39  1  0  0  0  0
 10 40  1  0  0  0  0
 11 12  1  0  0  0  0
 11 41  1  0  0  0  0
 11 42  1  0  0  0  0
 12 43  1  0  0  0  0
 12 44  1  0  0  0  0
 13 15  1  0  0  0  0
 13 46  1  0  0  0  0
 13 47  1  0  0  0  0
 14 16  1  0  0  0  0
 14 48  1  0  0  0  0
 14 49  1  0  0  0  0
 15 17  1  0  0  0  0
 15 50  1  0  0  0  0
 15 51  1  0  0  0  0
 16 17  1  0  0  0  0
 16 19  2  0  0  0  0
 17 20  2  0  0  0  0
 18 21  1  0  0  0  0
 19 22  1  0  0  0  0
 19 52  1  0  0  0  0
 20 23  1  0  0  0  0
 20 53  1  0  0  0  0
 21 24  2  0  0  0  0
 22 23  2  0  0  0  0
 22 54  1  0  0  0  0
 23 55  1  0  0  0  0
 24 26  1  0  0  0  0
 24 57  1  0  0  0  0
 25 26  1  0  0  0  0
 25 27  2  0  0  0  0
 26 28  2  0  0  0  0
 27 29  1  0  0  0  0
 27 58  1  0  0  0  0
 28 30  1  0  0  0  0
 28 59  1  0  0  0  0
 29 30  2  0  0  0  0
 29 60  1  0  0  0  0
 30 61  1  0  0  0  0
M  END
> <PUBCHEM_COMPOUND_CID>
122178760

> <PUBCHEM_COMPOUND_CANONICALIZED>
1

> <PUBCHEM_CACTVS_COMPLEXITY>
573

> <PUBCHEM_CACTVS_HBOND_ACCEPTOR>
2

> <PUBCHEM_CACTVS_HBOND_DONOR>
2

> <PUBCHEM_CACTVS_ROTATABLE_BOND>
5

> <PUBCHEM_CACTVS_SUBSKEYS>
AAADceB7IAAAAAAAAAAAAAAAAAAAAWAAAAA8YMEAAAAAAFix9AAAHgAQAAAADSjBngQwwPPJkACoAyVyVACCgCAnAiAImaG4ZNgIYPLAlbGUIQhglgDIyYcYiYCegAAAAAASAAAQAAAAACQAAAAAAAAAAA==

> <PUBCHEM_IUPAC_OPENEYE_NAME>
N-[4-[2-(3,4-dihydro-1H-isoquinolin-2-yl)ethyl]cyclohexyl]-1H-indole-2-carboxamide

> <PUBCHEM_IUPAC_CAS_NAME>
N-[4-[2-(3,4-dihydro-1H-isoquinolin-2-yl)ethyl]cyclohexyl]-1H-indole-2-carboxamide

> <PUBCHEM_IUPAC_NAME_MARKUP>
<I>N</I>-[4-[2-(3,4-dihydro-1<I>H</I>-isoquinolin-2-yl)ethyl]cyclohexyl]-1<I>H</I>-indole-2-carboxamide

> <PUBCHEM_IUPAC_NAME>
N-[4-[2-(3,4-dihydro-1H-isoquinolin-2-yl)ethyl]cyclohexyl]-1H-indole-2-carboxamide

> <PUBCHEM_IUPAC_SYSTEMATIC_NAME>
N-[4-[2-(3,4-dihydro-1H-isoquinolin-2-yl)ethyl]cyclohexyl]-1H-indole-2-carboxamide

> <PUBCHEM_IUPAC_TRADITIONAL_NAME>
N-[4-[2-(3,4-dihydro-1H-isoquinolin-2-yl)ethyl]cyclohexyl]-1H-indole-2-carboxamide

> <PUBCHEM_IUPAC_INCHI>
InChI=1S/C26H31N3O/c30-26(25-17-21-6-3-4-8-24(21)28-25)27-23-11-9-19(10-12-23)13-15-29-16-14-20-5-1-2-7-22(20)18-29/h1-8,17,19,23,28H,9-16,18H2,(H,27,30)

> <PUBCHEM_IUPAC_INCHIKEY>
HSYSOOBEPVDATD-UHFFFAOYSA-N

> <PUBCHEM_XLOGP3_AA>
5.1

> <PUBCHEM_EXACT_MASS>
401.246712621

> <PUBCHEM_MOLECULAR_FORMULA>
C26H31N3O

> <PUBCHEM_MOLECULAR_WEIGHT>
401.5

> <PUBCHEM_OPENEYE_CAN_SMILES>
C1CC(CCC1CCN2CCC3=CC=CC=C3C2)NC(=O)C4=CC5=CC=CC=C5N4

> <PUBCHEM_OPENEYE_ISO_SMILES>
C1CC(CCC1CCN2CCC3=CC=CC=C3C2)NC(=O)C4=CC5=CC=CC=C5N4

> <PUBCHEM_CACTVS_TPSA>
48.1

> <PUBCHEM_MONOISOTOPIC_WEIGHT>
401.246712621

> <PUBCHEM_TOTAL_CHARGE>
0

> <PUBCHEM_HEAVY_ATOM_COUNT>
30

> <PUBCHEM_ATOM_DEF_STEREO_COUNT>
0

> <PUBCHEM_ATOM_UDEF_STEREO_COUNT>
0

> <PUBCHEM_BOND_DEF_STEREO_COUNT>
0

> <PUBCHEM_BOND_UDEF_STEREO_COUNT>
0

> <PUBCHEM_ISOTOPIC_ATOM_COUNT>
0

> <PUBCHEM_COMPONENT_COUNT>
1

> <PUBCHEM_CACTVS_TAUTO_COUNT>
-1

> <PUBCHEM_COORDINATE_TYPE>
1
5
255

> <PUBCHEM_BONDANNOTATIONS>
16  17  8
16  19  8
17  20  8
19  22  8
20  23  8
21  24  8
22  23  8
24  26  8
25  26  8
25  27  8
26  28  8
27  29  8
28  30  8
29  30  8
4  21  8
4  25  8

$$$$
