142573449
  -OEChem-09292322412D

 69 73  0     0  0  0  0  0  0999 V2000
    7.4323   -3.8988    0.0000 S   0  0  0  0  0  0  0  0  0  0  0  0
   10.0303    3.6012    0.0000 O   0  0  0  0  0  0  0  0  0  0  0  0
    8.2983   -1.3988    0.0000 N   0  0  0  0  0  0  0  0  0  0  0  0
    8.2983    2.6012    0.0000 N   0  0  0  0  0  0  0  0  0  0  0  0
    5.6527   -3.9920    0.0000 N   0  0  0  0  0  0  0  0  0  0  0  0
    6.4617   -5.3933    0.0000 N   0  0  0  0  0  0  0  0  0  0  0  0
    5.4836   -5.6012    0.0000 N   0  0  0  0  0  0  0  0  0  0  0  0
    8.2983    0.6012    0.0000 C   0  0  0  0  0  0  0  0  0  0  0  0
    7.4323    0.1012    0.0000 C   0  0  0  0  0  0  0  0  0  0  0  0
    9.1643    0.1012    0.0000 C   0  0  0  0  0  0  0  0  0  0  0  0
    9.1643    1.1012    0.0000 C   0  0  0  0  0  0  0  0  0  0  0  0
    7.4323    1.1012    0.0000 C   0  0  0  0  0  0  0  0  0  0  0  0
    7.4323   -0.8988    0.0000 C   0  0  0  0  0  0  0  0  0  0  0  0
    9.1643   -0.8988    0.0000 C   0  0  0  0  0  0  0  0  0  0  0  0
    9.1643    2.1012    0.0000 C   0  0  0  0  0  0  0  0  0  0  0  0
    7.4323    2.1012    0.0000 C   0  0  0  0  0  0  0  0  0  0  0  0
    8.2983   -2.3988    0.0000 C   0  0  0  0  0  0  0  0  0  0  0  0
    8.2983    3.6012    0.0000 C   0  0  0  0  0  0  0  0  0  0  0  0
    7.4323   -2.8988    0.0000 C   0  0  0  0  0  0  0  0  0  0  0  0
    9.1643    4.1012    0.0000 C   0  0  0  0  0  0  0  0  0  0  0  0
    7.4323    4.1012    0.0000 C   0  0  0  0  0  0  0  0  0  0  0  0
    9.1643    5.1012    0.0000 C   0  0  0  0  0  0  0  0  0  0  0  0
    7.4323    5.1012    0.0000 C   0  0  0  0  0  0  0  0  0  0  0  0
    8.2983    5.6012    0.0000 C   0  0  0  0  0  0  0  0  0  0  0  0
    6.5662   -4.3988    0.0000 C   0  0  0  0  0  0  0  0  0  0  0  0
   10.8964    4.1012    0.0000 C   0  0  0  0  0  0  0  0  0  0  0  0
    4.9836   -4.7352    0.0000 C   0  0  0  0  0  0  0  0  0  0  0  0
    5.4448   -3.0139    0.0000 C   0  0  0  0  0  0  0  0  0  0  0  0
    3.9890   -4.6307    0.0000 C   0  0  0  0  0  0  0  0  0  0  0  0
    3.5823   -3.7171    0.0000 C   0  0  0  0  0  0  0  0  0  0  0  0
    3.4013   -5.4397    0.0000 C   0  0  0  0  0  0  0  0  0  0  0  0
    2.5878   -3.6126    0.0000 C   0  0  0  0  0  0  0  0  0  0  0  0
    2.4067   -5.3351    0.0000 C   0  0  0  0  0  0  0  0  0  0  0  0
    2.0000   -4.4216    0.0000 C   0  0  0  0  0  0  0  0  0  0  0  0
    7.2202    0.6838    0.0000 H   0  0  0  0  0  0  0  0  0  0  0  0
    6.8217   -0.0064    0.0000 H   0  0  0  0  0  0  0  0  0  0  0  0
    9.7749   -0.0064    0.0000 H   0  0  0  0  0  0  0  0  0  0  0  0
    9.3764    0.6838    0.0000 H   0  0  0  0  0  0  0  0  0  0  0  0
    9.3764    0.5186    0.0000 H   0  0  0  0  0  0  0  0  0  0  0  0
    9.7749    1.2089    0.0000 H   0  0  0  0  0  0  0  0  0  0  0  0
    6.8217    1.2089    0.0000 H   0  0  0  0  0  0  0  0  0  0  0  0
    7.2202    0.5186    0.0000 H   0  0  0  0  0  0  0  0  0  0  0  0
    6.8217   -0.7911    0.0000 H   0  0  0  0  0  0  0  0  0  0  0  0
    7.2202   -1.4814    0.0000 H   0  0  0  0  0  0  0  0  0  0  0  0
    9.3764   -1.4814    0.0000 H   0  0  0  0  0  0  0  0  0  0  0  0
    9.7749   -0.7911    0.0000 H   0  0  0  0  0  0  0  0  0  0  0  0
    9.7749    1.9936    0.0000 H   0  0  0  0  0  0  0  0  0  0  0  0
    9.3764    2.6838    0.0000 H   0  0  0  0  0  0  0  0  0  0  0  0
    7.2202    2.6838    0.0000 H   0  0  0  0  0  0  0  0  0  0  0  0
    6.8217    1.9936    0.0000 H   0  0  0  0  0  0  0  0  0  0  0  0
    8.5103   -2.9814    0.0000 H   0  0  0  0  0  0  0  0  0  0  0  0
    8.9089   -2.2911    0.0000 H   0  0  0  0  0  0  0  0  0  0  0  0
    7.2202   -2.3162    0.0000 H   0  0  0  0  0  0  0  0  0  0  0  0
    6.8217   -3.0064    0.0000 H   0  0  0  0  0  0  0  0  0  0  0  0
    6.8953    3.7912    0.0000 H   0  0  0  0  0  0  0  0  0  0  0  0
    9.7012    5.4112    0.0000 H   0  0  0  0  0  0  0  0  0  0  0  0
    6.8953    5.4112    0.0000 H   0  0  0  0  0  0  0  0  0  0  0  0
    8.2983    6.2212    0.0000 H   0  0  0  0  0  0  0  0  0  0  0  0
   11.2064    3.5643    0.0000 H   0  0  0  0  0  0  0  0  0  0  0  0
   11.4333    4.4112    0.0000 H   0  0  0  0  0  0  0  0  0  0  0  0
   10.5864    4.6382    0.0000 H   0  0  0  0  0  0  0  0  0  0  0  0
    6.0512   -2.8850    0.0000 H   0  0  0  0  0  0  0  0  0  0  0  0
    5.3159   -2.4074    0.0000 H   0  0  0  0  0  0  0  0  0  0  0  0
    4.8383   -3.1428    0.0000 H   0  0  0  0  0  0  0  0  0  0  0  0
    3.9467   -3.2155    0.0000 H   0  0  0  0  0  0  0  0  0  0  0  0
    3.6534   -6.0061    0.0000 H   0  0  0  0  0  0  0  0  0  0  0  0
    2.3356   -3.0462    0.0000 H   0  0  0  0  0  0  0  0  0  0  0  0
    2.0423   -5.8367    0.0000 H   0  0  0  0  0  0  0  0  0  0  0  0
    1.3834   -4.3568    0.0000 H   0  0  0  0  0  0  0  0  0  0  0  0
  1 19  1  0  0  0  0
  1 25  1  0  0  0  0
  2 20  1  0  0  0  0
  2 26  1  0  0  0  0
  3 13  1  0  0  0  0
  3 14  1  0  0  0  0
  3 17  1  0  0  0  0
  4 15  1  0  0  0  0
  4 16  1  0  0  0  0
  4 18  1  0  0  0  0
  5 25  1  0  0  0  0
  5 27  1  0  0  0  0
  5 28  1  0  0  0  0
  6  7  1  0  0  0  0
  6 25  2  0  0  0  0
  7 27  2  0  0  0  0
  8  9  1  0  0  0  0
  8 10  1  0  0  0  0
  8 11  1  0  0  0  0
  8 12  1  0  0  0  0
  9 13  1  0  0  0  0
  9 35  1  0  0  0  0
  9 36  1  0  0  0  0
 10 14  1  0  0  0  0
 10 37  1  0  0  0  0
 10 38  1  0  0  0  0
 11 15  1  0  0  0  0
 11 39  1  0  0  0  0
 11 40  1  0  0  0  0
 12 16  1  0  0  0  0
 12 41  1  0  0  0  0
 12 42  1  0  0  0  0
 13 43  1  0  0  0  0
 13 44  1  0  0  0  0
 14 45  1  0  0  0  0
 14 46  1  0  0  0  0
 15 47  1  0  0  0  0
 15 48  1  0  0  0  0
 16 49  1  0  0  0  0
 16 50  1  0  0  0  0
 17 19  1  0  0  0  0
 17 51  1  0  0  0  0
 17 52  1  0  0  0  0
 18 20  1  0  0  0  0
 18 21  2  0  0  0  0
 19 53  1  0  0  0  0
 19 54  1  0  0  0  0
 20 22  2  0  0  0  0
 21 23  1  0  0  0  0
 21 55  1  0  0  0  0
 22 24  1  0  0  0  0
 22 56  1  0  0  0  0
 23 24  2  0  0  0  0
 23 57  1  0  0  0  0
 24 58  1  0  0  0  0
 26 59  1  0  0  0  0
 26 60  1  0  0  0  0
 26 61  1  0  0  0  0
 27 29  1  0  0  0  0
 28 62  1  0  0  0  0
 28 63  1  0  0  0  0
 28 64  1  0  0  0  0
 29 30  2  0  0  0  0
 29 31  1  0  0  0  0
 30 32  1  0  0  0  0
 30 65  1  0  0  0  0
 31 33  2  0  0  0  0
 31 66  1  0  0  0  0
 32 34  2  0  0  0  0
 32 67  1  0  0  0  0
 33 34  1  0  0  0  0
 33 68  1  0  0  0  0
 34 69  1  0  0  0  0
M  END
> <PUBCHEM_COMPOUND_CID>
142573449

> <PUBCHEM_COMPOUND_CANONICALIZED>
1

> <PUBCHEM_CACTVS_COMPLEXITY>
614

> <PUBCHEM_CACTVS_HBOND_ACCEPTOR>
6

> <PUBCHEM_CACTVS_HBOND_DONOR>
0

> <PUBCHEM_CACTVS_ROTATABLE_BOND>
7

> <PUBCHEM_CACTVS_SUBSKEYS>
AAADcfB7oABAAAAAAAAAAAAAAAAAAWAAAAA8eIEAAAAAAAAB0AAAHgQIAAAADgzF2waz1ocMFAiiAiZiZACS2AthIrAdyCAvbJiOLqLEuZuFMChkyBPY6AeQwAAPAAAAAAAAEAAAAAAAAAAgAAAAAAAAAA==

> <PUBCHEM_IUPAC_OPENEYE_NAME>
3-(2-methoxyphenyl)-9-[2-[(4-methyl-5-phenyl-1,2,4-triazol-3-yl)sulfanyl]ethyl]-3,9-diazaspiro[5.5]undecane

> <PUBCHEM_IUPAC_CAS_NAME>
3-(2-methoxyphenyl)-9-[2-[(4-methyl-5-phenyl-1,2,4-triazol-3-yl)thio]ethyl]-3,9-diazaspiro[5.5]undecane

> <PUBCHEM_IUPAC_NAME_MARKUP>
3-(2-methoxyphenyl)-9-[2-[(4-methyl-5-phenyl-1,2,4-triazol-3-yl)sulfanyl]ethyl]-3,9-diazaspiro[5.5]undecane

> <PUBCHEM_IUPAC_NAME>
3-(2-methoxyphenyl)-9-[2-[(4-methyl-5-phenyl-1,2,4-triazol-3-yl)sulfanyl]ethyl]-3,9-diazaspiro[5.5]undecane

> <PUBCHEM_IUPAC_SYSTEMATIC_NAME>
3-(2-methoxyphenyl)-9-[2-[(4-methyl-5-phenyl-1,2,4-triazol-3-yl)sulfanyl]ethyl]-3,9-diazaspiro[5.5]undecane

> <PUBCHEM_IUPAC_TRADITIONAL_NAME>
3-(2-methoxyphenyl)-9-[2-[(4-methyl-5-phenyl-1,2,4-triazol-3-yl)thio]ethyl]-3,9-diazaspiro[5.5]undecane

> <PUBCHEM_IUPAC_INCHI>
InChI=1S/C27H35N5OS/c1-30-25(22-8-4-3-5-9-22)28-29-26(30)34-21-20-31-16-12-27(13-17-31)14-18-32(19-15-27)23-10-6-7-11-24(23)33-2/h3-11H,12-21H2,1-2H3

> <PUBCHEM_IUPAC_INCHIKEY>
NCWGEGAYIHJRDE-UHFFFAOYSA-N

> <PUBCHEM_XLOGP3_AA>
4.9

> <PUBCHEM_EXACT_MASS>
477.25623193

> <PUBCHEM_MOLECULAR_FORMULA>
C27H35N5OS

> <PUBCHEM_MOLECULAR_WEIGHT>
477.7

> <PUBCHEM_OPENEYE_CAN_SMILES>
CN1C(=NN=C1SCCN2CCC3(CC2)CCN(CC3)C4=CC=CC=C4OC)C5=CC=CC=C5

> <PUBCHEM_OPENEYE_ISO_SMILES>
CN1C(=NN=C1SCCN2CCC3(CC2)CCN(CC3)C4=CC=CC=C4OC)C5=CC=CC=C5

> <PUBCHEM_CACTVS_TPSA>
71.7

> <PUBCHEM_MONOISOTOPIC_WEIGHT>
477.25623193

> <PUBCHEM_TOTAL_CHARGE>
0

> <PUBCHEM_HEAVY_ATOM_COUNT>
34

> <PUBCHEM_ATOM_DEF_STEREO_COUNT>
0

> <PUBCHEM_ATOM_UDEF_STEREO_COUNT>
0

> <PUBCHEM_BOND_DEF_STEREO_COUNT>
0

> <PUBCHEM_BOND_UDEF_STEREO_COUNT>
0

> <PUBCHEM_ISOTOPIC_ATOM_COUNT>
0

> <PUBCHEM_COMPONENT_COUNT>
1

> <PUBCHEM_CACTVS_TAUTO_COUNT>
-1

> <PUBCHEM_COORDINATE_TYPE>
1
5
255

> <PUBCHEM_BONDANNOTATIONS>
18  20  8
18  21  8
20  22  8
21  23  8
22  24  8
23  24  8
29  30  8
29  31  8
30  32  8
31  33  8
32  34  8
33  34  8
5  25  8
5  27  8
6  25  8
6  7  8
7  27  8

$$$$
