44438238
  -OEChem-09292322492D

 45 48  0     0  0  0  0  0  0999 V2000
   11.2260    2.9961    0.0000 Cl  0  0  0  0  0  0  0  0  0  0  0  0
    7.7619    1.9961    0.0000 O   0  0  0  0  0  0  0  0  0  0  0  0
    6.7619   -0.7360    0.0000 N   0  0  0  0  0  0  0  0  0  0  0  0
    4.6783   -2.4067    0.0000 N   0  0  0  0  0  0  0  0  0  0  0  0
    7.7619    0.9961    0.0000 C   0  0  0  0  0  0  0  0  0  0  0  0
    8.2619    0.1300    0.0000 C   0  0  0  0  0  0  0  0  0  0  0  0
    6.7619    0.9961    0.0000 C   0  0  0  0  0  0  0  0  0  0  0  0
    7.7619   -0.7360    0.0000 C   0  0  0  0  0  0  0  0  0  0  0  0
    6.2619    0.1300    0.0000 C   0  0  0  0  0  0  0  0  0  0  0  0
    8.6279    1.4961    0.0000 C   0  0  0  0  0  0  0  0  0  0  0  0
    6.2619   -1.6020    0.0000 C   0  0  0  0  0  0  0  0  0  0  0  0
    5.2619   -1.6020    0.0000 C   0  0  0  0  0  0  0  0  0  0  0  0
    9.4939    0.9961    0.0000 C   0  0  0  0  0  0  0  0  0  0  0  0
    8.6279    2.4961    0.0000 C   0  0  0  0  0  0  0  0  0  0  0  0
    4.6783   -0.7973    0.0000 C   0  0  0  0  0  0  0  0  0  0  0  0
    3.7320   -2.1020    0.0000 C   0  0  0  0  0  0  0  0  0  0  0  0
    3.7320   -1.1020    0.0000 C   0  0  0  0  0  0  0  0  0  0  0  0
   10.3600    1.4961    0.0000 C   0  0  0  0  0  0  0  0  0  0  0  0
    9.4939    2.9961    0.0000 C   0  0  0  0  0  0  0  0  0  0  0  0
   10.3600    2.4961    0.0000 C   0  0  0  0  0  0  0  0  0  0  0  0
    2.8660   -2.6020    0.0000 C   0  0  0  0  0  0  0  0  0  0  0  0
    2.8660   -0.6020    0.0000 C   0  0  0  0  0  0  0  0  0  0  0  0
    2.0000   -2.1020    0.0000 C   0  0  0  0  0  0  0  0  0  0  0  0
    2.0000   -1.1020    0.0000 C   0  0  0  0  0  0  0  0  0  0  0  0
    8.7368   -0.2685    0.0000 H   0  0  0  0  0  0  0  0  0  0  0  0
    8.7368    0.5286    0.0000 H   0  0  0  0  0  0  0  0  0  0  0  0
    6.8695    1.6066    0.0000 H   0  0  0  0  0  0  0  0  0  0  0  0
    6.1793    1.2081    0.0000 H   0  0  0  0  0  0  0  0  0  0  0  0
    7.6542   -1.3466    0.0000 H   0  0  0  0  0  0  0  0  0  0  0  0
    8.3445   -0.9480    0.0000 H   0  0  0  0  0  0  0  0  0  0  0  0
    5.7869    0.5286    0.0000 H   0  0  0  0  0  0  0  0  0  0  0  0
    5.7869   -0.2685    0.0000 H   0  0  0  0  0  0  0  0  0  0  0  0
    6.1542   -2.2126    0.0000 H   0  0  0  0  0  0  0  0  0  0  0  0
    6.8445   -1.8141    0.0000 H   0  0  0  0  0  0  0  0  0  0  0  0
    7.2249    2.3061    0.0000 H   0  0  0  0  0  0  0  0  0  0  0  0
    9.4939    0.3761    0.0000 H   0  0  0  0  0  0  0  0  0  0  0  0
    8.0910    2.8061    0.0000 H   0  0  0  0  0  0  0  0  0  0  0  0
    4.8709   -2.9961    0.0000 H   0  0  0  0  0  0  0  0  0  0  0  0
    4.8709   -0.2080    0.0000 H   0  0  0  0  0  0  0  0  0  0  0  0
   10.8969    1.1861    0.0000 H   0  0  0  0  0  0  0  0  0  0  0  0
    9.4939    3.6161    0.0000 H   0  0  0  0  0  0  0  0  0  0  0  0
    2.8660   -3.2220    0.0000 H   0  0  0  0  0  0  0  0  0  0  0  0
    2.8660    0.0180    0.0000 H   0  0  0  0  0  0  0  0  0  0  0  0
    1.4631   -2.4120    0.0000 H   0  0  0  0  0  0  0  0  0  0  0  0
    1.4631   -0.7920    0.0000 H   0  0  0  0  0  0  0  0  0  0  0  0
  1 20  1  0  0  0  0
  2  5  1  0  0  0  0
  2 35  1  0  0  0  0
  3  8  1  0  0  0  0
  3  9  1  0  0  0  0
  3 11  1  0  0  0  0
  4 12  1  0  0  0  0
  4 16  1  0  0  0  0
  4 38  1  0  0  0  0
  5  6  1  0  0  0  0
  5  7  1  0  0  0  0
  5 10  1  0  0  0  0
  6  8  1  0  0  0  0
  6 25  1  0  0  0  0
  6 26  1  0  0  0  0
  7  9  1  0  0  0  0
  7 27  1  0  0  0  0
  7 28  1  0  0  0  0
  8 29  1  0  0  0  0
  8 30  1  0  0  0  0
  9 31  1  0  0  0  0
  9 32  1  0  0  0  0
 10 13  2  0  0  0  0
 10 14  1  0  0  0  0
 11 12  1  0  0  0  0
 11 33  1  0  0  0  0
 11 34  1  0  0  0  0
 12 15  2  0  0  0  0
 13 18  1  0  0  0  0
 13 36  1  0  0  0  0
 14 19  2  0  0  0  0
 14 37  1  0  0  0  0
 15 17  1  0  0  0  0
 15 39  1  0  0  0  0
 16 17  1  0  0  0  0
 16 21  2  0  0  0  0
 17 22  2  0  0  0  0
 18 20  2  0  0  0  0
 18 40  1  0  0  0  0
 19 20  1  0  0  0  0
 19 41  1  0  0  0  0
 21 23  1  0  0  0  0
 21 42  1  0  0  0  0
 22 24  1  0  0  0  0
 22 43  1  0  0  0  0
 23 24  2  0  0  0  0
 23 44  1  0  0  0  0
 24 45  1  0  0  0  0
M  END
> <PUBCHEM_COMPOUND_CID>
44438238

> <PUBCHEM_COMPOUND_CANONICALIZED>
1

> <PUBCHEM_CACTVS_COMPLEXITY>
416

> <PUBCHEM_CACTVS_HBOND_ACCEPTOR>
2

> <PUBCHEM_CACTVS_HBOND_DONOR>
2

> <PUBCHEM_CACTVS_ROTATABLE_BOND>
3

> <PUBCHEM_CACTVS_SUBSKEYS>
AAADceB7IAAEAAAAAAAAAAAAAAAAAWAAAAA8YIAAAAAAAFgB9AAAHgIQCAAADE7BniQwwPPJkgCgAyRiRACCgCAhByAImSA4bpgIZuLBk5GUcAhm0AHI2AeQwOAOhAAAAAACAAAIAAAAAAQAAAAAAAAAAA==

> <PUBCHEM_IUPAC_OPENEYE_NAME>
4-(4-chlorophenyl)-1-(1H-indol-2-ylmethyl)piperidin-4-ol

> <PUBCHEM_IUPAC_CAS_NAME>
4-(4-chlorophenyl)-1-(1H-indol-2-ylmethyl)-4-piperidinol

> <PUBCHEM_IUPAC_NAME_MARKUP>
4-(4-chlorophenyl)-1-(1<I>H</I>-indol-2-ylmethyl)piperidin-4-ol

> <PUBCHEM_IUPAC_NAME>
4-(4-chlorophenyl)-1-(1H-indol-2-ylmethyl)piperidin-4-ol

> <PUBCHEM_IUPAC_SYSTEMATIC_NAME>
4-(4-chlorophenyl)-1-(1H-indol-2-ylmethyl)piperidin-4-ol

> <PUBCHEM_IUPAC_TRADITIONAL_NAME>
4-(4-chlorophenyl)-1-(1H-indol-2-ylmethyl)piperidin-4-ol

> <PUBCHEM_IUPAC_INCHI>
InChI=1S/C20H21ClN2O/c21-17-7-5-16(6-8-17)20(24)9-11-23(12-10-20)14-18-13-15-3-1-2-4-19(15)22-18/h1-8,13,22,24H,9-12,14H2

> <PUBCHEM_IUPAC_INCHIKEY>
DUMMVZVWGFDXEM-UHFFFAOYSA-N

> <PUBCHEM_XLOGP3_AA>
3.7

> <PUBCHEM_EXACT_MASS>
340.1342410

> <PUBCHEM_MOLECULAR_FORMULA>
C20H21ClN2O

> <PUBCHEM_MOLECULAR_WEIGHT>
340.8

> <PUBCHEM_OPENEYE_CAN_SMILES>
C1CN(CCC1(C2=CC=C(C=C2)Cl)O)CC3=CC4=CC=CC=C4N3

> <PUBCHEM_OPENEYE_ISO_SMILES>
C1CN(CCC1(C2=CC=C(C=C2)Cl)O)CC3=CC4=CC=CC=C4N3

> <PUBCHEM_CACTVS_TPSA>
39.3

> <PUBCHEM_MONOISOTOPIC_WEIGHT>
340.1342410

> <PUBCHEM_TOTAL_CHARGE>
0

> <PUBCHEM_HEAVY_ATOM_COUNT>
24

> <PUBCHEM_ATOM_DEF_STEREO_COUNT>
0

> <PUBCHEM_ATOM_UDEF_STEREO_COUNT>
0

> <PUBCHEM_BOND_DEF_STEREO_COUNT>
0

> <PUBCHEM_BOND_UDEF_STEREO_COUNT>
0

> <PUBCHEM_ISOTOPIC_ATOM_COUNT>
0

> <PUBCHEM_COMPONENT_COUNT>
1

> <PUBCHEM_CACTVS_TAUTO_COUNT>
-1

> <PUBCHEM_COORDINATE_TYPE>
1
5
255

> <PUBCHEM_BONDANNOTATIONS>
10  13  8
10  14  8
12  15  8
13  18  8
14  19  8
15  17  8
16  17  8
16  21  8
17  22  8
18  20  8
19  20  8
21  23  8
22  24  8
23  24  8
4  12  8
4  16  8

$$$$
