17755868
  -OEChem-09292322252D

 47 49  0     1  0  0  0  0  0999 V2000
    8.5873    2.8481    0.0000 O   0  0  0  0  0  0  0  0  0  0  0  0
    5.5176   -2.6021    0.0000 N   0  0  3  0  0  0  0  0  0  0  0  0
    6.0176   -1.7360    0.0000 C   0  0  0  0  0  0  0  0  0  0  0  0
    6.8836   -1.2361    0.0000 C   0  0  0  0  0  0  0  0  0  0  0  0
    4.5176   -2.6021    0.0000 C   0  0  0  0  0  0  0  0  0  0  0  0
    3.8104   -1.8950    0.0000 C   0  0  0  0  0  0  0  0  0  0  0  0
    6.8013   -0.1970    0.0000 C   0  0  0  0  0  0  0  0  0  0  0  0
    4.0693   -0.9290    0.0000 C   0  0  0  0  0  0  0  0  0  0  0  0
    6.8013    0.8030    0.0000 C   0  0  0  0  0  0  0  0  0  0  0  0
    3.5693   -0.0630    0.0000 C   0  0  0  0  0  0  0  0  0  0  0  0
    5.0693    0.8030    0.0000 C   0  0  0  0  0  0  0  0  0  0  0  0
    5.9353    1.3030    0.0000 C   0  0  0  0  0  0  0  0  0  0  0  0
    4.0693    0.8030    0.0000 C   0  0  0  0  0  0  0  0  0  0  0  0
    6.0176   -3.4681    0.0000 C   0  0  0  0  0  0  0  0  0  0  0  0
    7.7113    1.3098    0.0000 C   0  0  0  0  0  0  0  0  0  0  0  0
    2.5278   -0.0791    0.0000 C   0  0  0  0  0  0  0  0  0  0  0  0
    5.9192    2.3445    0.0000 C   0  0  0  0  0  0  0  0  0  0  0  0
    3.5624    1.7130    0.0000 C   0  0  0  0  0  0  0  0  0  0  0  0
    7.7193    2.3514    0.0000 C   0  0  0  0  0  0  0  0  0  0  0  0
    6.8173    2.8723    0.0000 C   0  0  0  0  0  0  0  0  0  0  0  0
    2.0000    0.8190    0.0000 C   0  0  0  0  0  0  0  0  0  0  0  0
    2.5208    1.7210    0.0000 C   0  0  0  0  0  0  0  0  0  0  0  0
    5.9099   -1.1255    0.0000 H   0  0  0  0  0  0  0  0  0  0  0  0
    6.4560   -2.1745    0.0000 H   0  0  0  0  0  0  0  0  0  0  0  0
    7.1109   -1.8129    0.0000 H   0  0  0  0  0  0  0  0  0  0  0  0
    7.4876   -1.0964    0.0000 H   0  0  0  0  0  0  0  0  0  0  0  0
    3.9806   -2.9121    0.0000 H   0  0  0  0  0  0  0  0  0  0  0  0
    4.6780   -3.2010    0.0000 H   0  0  0  0  0  0  0  0  0  0  0  0
    3.2485   -1.6329    0.0000 H   0  0  0  0  0  0  0  0  0  0  0  0
    3.4548   -2.4028    0.0000 H   0  0  0  0  0  0  0  0  0  0  0  0
    6.2564    0.0988    0.0000 H   0  0  0  0  0  0  0  0  0  0  0  0
    7.4208   -0.1725    0.0000 H   0  0  0  0  0  0  0  0  0  0  0  0
    4.6062   -1.2390    0.0000 H   0  0  0  0  0  0  0  0  0  0  0  0
    4.5077   -0.4906    0.0000 H   0  0  0  0  0  0  0  0  0  0  0  0
    4.8572    0.2204    0.0000 H   0  0  0  0  0  0  0  0  0  0  0  0
    4.9088    1.4019    0.0000 H   0  0  0  0  0  0  0  0  0  0  0  0
    5.4806   -3.7781    0.0000 H   0  0  0  0  0  0  0  0  0  0  0  0
    6.3275   -4.0050    0.0000 H   0  0  0  0  0  0  0  0  0  0  0  0
    6.5545   -3.1581    0.0000 H   0  0  0  0  0  0  0  0  0  0  0  0
    8.2446    0.9937    0.0000 H   0  0  0  0  0  0  0  0  0  0  0  0
    2.2240   -0.6196    0.0000 H   0  0  0  0  0  0  0  0  0  0  0  0
    5.3787    2.6483    0.0000 H   0  0  0  0  0  0  0  0  0  0  0  0
    3.8786    2.2463    0.0000 H   0  0  0  0  0  0  0  0  0  0  0  0
    6.8149    3.4923    0.0000 H   0  0  0  0  0  0  0  0  0  0  0  0
    1.3800    0.8166    0.0000 H   0  0  0  0  0  0  0  0  0  0  0  0
    2.2129    2.2592    0.0000 H   0  0  0  0  0  0  0  0  0  0  0  0
    8.5897    3.4681    0.0000 H   0  0  0  0  0  0  0  0  0  0  0  0
  1 19  1  0  0  0  0
  1 47  1  0  0  0  0
  2  3  1  0  0  0  0
  2  5  1  0  0  0  0
  2 14  1  0  0  0  0
  3  4  1  0  0  0  0
  3 23  1  0  0  0  0
  3 24  1  0  0  0  0
  4  7  1  0  0  0  0
  4 25  1  0  0  0  0
  4 26  1  0  0  0  0
  5  6  1  0  0  0  0
  5 27  1  0  0  0  0
  5 28  1  0  0  0  0
  6  8  1  0  0  0  0
  6 29  1  0  0  0  0
  6 30  1  0  0  0  0
  7  9  1  0  0  0  0
  7 31  1  0  0  0  0
  7 32  1  0  0  0  0
  8 10  1  0  0  0  0
  8 33  1  0  0  0  0
  8 34  1  0  0  0  0
  9 12  2  0  0  0  0
  9 15  1  0  0  0  0
 10 13  1  0  0  0  0
 10 16  2  0  0  0  0
 11 12  1  0  0  0  0
 11 13  1  0  0  0  0
 11 35  1  0  0  0  0
 11 36  1  0  0  0  0
 12 17  1  0  0  0  0
 13 18  2  0  0  0  0
 14 37  1  0  0  0  0
 14 38  1  0  0  0  0
 14 39  1  0  0  0  0
 15 19  2  0  0  0  0
 15 40  1  0  0  0  0
 16 21  1  0  0  0  0
 16 41  1  0  0  0  0
 17 20  2  0  0  0  0
 17 42  1  0  0  0  0
 18 22  1  0  0  0  0
 18 43  1  0  0  0  0
 19 20  1  0  0  0  0
 20 44  1  0  0  0  0
 21 22  2  0  0  0  0
 21 45  1  0  0  0  0
 22 46  1  0  0  0  0
M  END
> <PUBCHEM_COMPOUND_CID>
17755868

> <PUBCHEM_COMPOUND_CANONICALIZED>
1

> <PUBCHEM_CACTVS_COMPLEXITY>
332

> <PUBCHEM_CACTVS_HBOND_ACCEPTOR>
2

> <PUBCHEM_CACTVS_HBOND_DONOR>
1

> <PUBCHEM_CACTVS_ROTATABLE_BOND>
0

> <PUBCHEM_CACTVS_SUBSKEYS>
AAADceB6IAAAAAAAAAAAAAAAAAAAAAAAAAAwYAAAAAAAAAABQAAAHgAACAAADATBmAQyBoMAAgCAAiBCAAACAAAgIAAIiAAOCIgIJiKCkRKEcAAkwBGImAeQwPAOoAABAAAQAABAAAIAACAAAAAAAAAAAA==

> <PUBCHEM_IUPAC_OPENEYE_NAME>
12-methyl-12-azatricyclo[14.4.0.03,8]icosa-1(20),3(8),4,6,16,18-hexaen-6-ol

> <PUBCHEM_IUPAC_CAS_NAME>
12-methyl-12-azatricyclo[14.4.0.03,8]eicosa-1(20),3(8),4,6,16,18-hexaen-6-ol

> <PUBCHEM_IUPAC_NAME_MARKUP>
12-methyl-12-azatricyclo[14.4.0.0<SUP>3,8</SUP>]icosa-1(20),3(8),4,6,16,18-hexaen-6-ol

> <PUBCHEM_IUPAC_NAME>
12-methyl-12-azatricyclo[14.4.0.03,8]icosa-1(20),3(8),4,6,16,18-hexaen-6-ol

> <PUBCHEM_IUPAC_SYSTEMATIC_NAME>
12-methyl-12-azatricyclo[14.4.0.03,8]icosa-1(20),3(8),4,6,16,18-hexaen-6-ol

> <PUBCHEM_IUPAC_TRADITIONAL_NAME>
12-methyl-12-azatricyclo[14.4.0.03,8]eicosa-1(20),3(8),4,6,16,18-hexaen-6-ol

> <PUBCHEM_IUPAC_INCHI>
InChI=1S/C20H25NO/c1-21-12-4-8-16-6-2-3-7-17(16)14-19-10-11-20(22)15-18(19)9-5-13-21/h2-3,6-7,10-11,15,22H,4-5,8-9,12-14H2,1H3

> <PUBCHEM_IUPAC_INCHIKEY>
BHUNVFVEHNURLZ-UHFFFAOYSA-N

> <PUBCHEM_XLOGP3_AA>
4.5

> <PUBCHEM_EXACT_MASS>
295.193614421

> <PUBCHEM_MOLECULAR_FORMULA>
C20H25NO

> <PUBCHEM_MOLECULAR_WEIGHT>
295.4

> <PUBCHEM_OPENEYE_CAN_SMILES>
CN1CCCC2=CC=CC=C2CC3=C(CCC1)C=C(C=C3)O

> <PUBCHEM_OPENEYE_ISO_SMILES>
CN1CCCC2=CC=CC=C2CC3=C(CCC1)C=C(C=C3)O

> <PUBCHEM_CACTVS_TPSA>
23.5

> <PUBCHEM_MONOISOTOPIC_WEIGHT>
295.193614421

> <PUBCHEM_TOTAL_CHARGE>
0

> <PUBCHEM_HEAVY_ATOM_COUNT>
22

> <PUBCHEM_ATOM_DEF_STEREO_COUNT>
0

> <PUBCHEM_ATOM_UDEF_STEREO_COUNT>
0

> <PUBCHEM_BOND_DEF_STEREO_COUNT>
0

> <PUBCHEM_BOND_UDEF_STEREO_COUNT>
0

> <PUBCHEM_ISOTOPIC_ATOM_COUNT>
0

> <PUBCHEM_COMPONENT_COUNT>
1

> <PUBCHEM_CACTVS_TAUTO_COUNT>
-1

> <PUBCHEM_COORDINATE_TYPE>
1
5
255

> <PUBCHEM_BONDANNOTATIONS>
10  13  8
10  16  8
12  17  8
13  18  8
15  19  8
16  21  8
17  20  8
18  22  8
19  20  8
21  22  8
9  12  8
9  15  8

$$$$
