44380715
  -OEChem-09292322222D

 53 55  0     1  0  0  0  0  0999 V2000
    6.3301   -3.3693    0.0000 Cl  0  0  0  0  0  0  0  0  0  0  0  0
    3.7320    0.1307    0.0000 O   0  0  0  0  0  0  0  0  0  0  0  0
    2.8660   -1.3693    0.0000 O   0  0  0  0  0  0  0  0  0  0  0  0
    7.4128    2.8331    0.0000 N   0  0  3  0  0  0  0  0  0  0  0  0
    5.4641    0.1307    0.0000 N   0  0  0  0  0  0  0  0  0  0  0  0
    4.5981   -4.3693    0.0000 N   0  0  0  0  0  0  0  0  0  0  0  0
    6.3301    1.6307    0.0000 C   0  0  2  0  0  0  0  0  0  0  0  0
    7.2437    1.2240    0.0000 C   0  0  0  0  0  0  0  0  0  0  0  0
    6.4347    2.6252    0.0000 C   0  0  0  0  0  0  0  0  0  0  0  0
    7.9128    1.9671    0.0000 C   0  0  0  0  0  0  0  0  0  0  0  0
    5.4641    1.1307    0.0000 C   0  0  0  0  0  0  0  0  0  0  0  0
    7.8195    3.7467    0.0000 C   0  0  0  0  0  0  0  0  0  0  0  0
    8.8141    3.8512    0.0000 C   0  0  0  0  0  0  0  0  0  0  0  0
    4.5981   -0.3693    0.0000 C   0  0  0  0  0  0  0  0  0  0  0  0
    9.2208    4.7648    0.0000 C   0  0  0  0  0  0  0  0  0  0  0  0
    9.4018    3.0422    0.0000 C   0  0  0  0  0  0  0  0  0  0  0  0
    4.5981   -1.3693    0.0000 C   0  0  0  0  0  0  0  0  0  0  0  0
   10.2153    4.8693    0.0000 C   0  0  0  0  0  0  0  0  0  0  0  0
   10.3964    3.1467    0.0000 C   0  0  0  0  0  0  0  0  0  0  0  0
   10.8031    4.0603    0.0000 C   0  0  0  0  0  0  0  0  0  0  0  0
    3.7320   -1.8693    0.0000 C   0  0  0  0  0  0  0  0  0  0  0  0
    5.4641   -1.8693    0.0000 C   0  0  0  0  0  0  0  0  0  0  0  0
    3.7320   -2.8693    0.0000 C   0  0  0  0  0  0  0  0  0  0  0  0
    5.4641   -2.8693    0.0000 C   0  0  0  0  0  0  0  0  0  0  0  0
    4.5981   -3.3693    0.0000 C   0  0  0  0  0  0  0  0  0  0  0  0
    2.0000   -1.8693    0.0000 C   0  0  0  0  0  0  0  0  0  0  0  0
    3.7320   -4.8693    0.0000 C   0  0  0  0  0  0  0  0  0  0  0  0
    5.8102    1.9684    0.0000 H   0  0  0  0  0  0  0  0  0  0  0  0
    6.9337    0.6870    0.0000 H   0  0  0  0  0  0  0  0  0  0  0  0
    7.7453    0.8595    0.0000 H   0  0  0  0  0  0  0  0  0  0  0  0
    6.3698    3.2418    0.0000 H   0  0  0  0  0  0  0  0  0  0  0  0
    5.8147    2.6252    0.0000 H   0  0  0  0  0  0  0  0  0  0  0  0
    8.3277    1.5064    0.0000 H   0  0  0  0  0  0  0  0  0  0  0  0
    8.4144    2.3315    0.0000 H   0  0  0  0  0  0  0  0  0  0  0  0
    5.2520    1.7133    0.0000 H   0  0  0  0  0  0  0  0  0  0  0  0
    4.8535    1.0230    0.0000 H   0  0  0  0  0  0  0  0  0  0  0  0
    7.8628    4.3652    0.0000 H   0  0  0  0  0  0  0  0  0  0  0  0
    7.2180    3.8967    0.0000 H   0  0  0  0  0  0  0  0  0  0  0  0
    6.0010   -0.1793    0.0000 H   0  0  0  0  0  0  0  0  0  0  0  0
    8.8564    5.2664    0.0000 H   0  0  0  0  0  0  0  0  0  0  0  0
    9.1497    2.4758    0.0000 H   0  0  0  0  0  0  0  0  0  0  0  0
   10.4675    5.4357    0.0000 H   0  0  0  0  0  0  0  0  0  0  0  0
   10.7608    2.6451    0.0000 H   0  0  0  0  0  0  0  0  0  0  0  0
   11.4197    4.1251    0.0000 H   0  0  0  0  0  0  0  0  0  0  0  0
    6.0010   -1.5593    0.0000 H   0  0  0  0  0  0  0  0  0  0  0  0
    3.1951   -3.1793    0.0000 H   0  0  0  0  0  0  0  0  0  0  0  0
    5.1350   -4.6793    0.0000 H   0  0  0  0  0  0  0  0  0  0  0  0
    1.6900   -1.3324    0.0000 H   0  0  0  0  0  0  0  0  0  0  0  0
    1.4631   -2.1793    0.0000 H   0  0  0  0  0  0  0  0  0  0  0  0
    2.3100   -2.4062    0.0000 H   0  0  0  0  0  0  0  0  0  0  0  0
    3.4220   -4.3324    0.0000 H   0  0  0  0  0  0  0  0  0  0  0  0
    3.1951   -5.1793    0.0000 H   0  0  0  0  0  0  0  0  0  0  0  0
    4.0420   -5.4062    0.0000 H   0  0  0  0  0  0  0  0  0  0  0  0
  1 24  1  0  0  0  0
  2 14  2  0  0  0  0
  3 21  1  0  0  0  0
  3 26  1  0  0  0  0
  4  9  1  0  0  0  0
  4 10  1  0  0  0  0
  4 12  1  0  0  0  0
  5 11  1  0  0  0  0
  5 14  1  0  0  0  0
  5 39  1  0  0  0  0
  6 25  1  0  0  0  0
  6 27  1  0  0  0  0
  6 47  1  0  0  0  0
  7  8  1  0  0  0  0
  7  9  1  0  0  0  0
  7 11  1  1  0  0  0
  7 28  1  0  0  0  0
  8 10  1  0  0  0  0
  8 29  1  0  0  0  0
  8 30  1  0  0  0  0
  9 31  1  0  0  0  0
  9 32  1  0  0  0  0
 10 33  1  0  0  0  0
 10 34  1  0  0  0  0
 11 35  1  0  0  0  0
 11 36  1  0  0  0  0
 12 13  1  0  0  0  0
 12 37  1  0  0  0  0
 12 38  1  0  0  0  0
 13 15  2  0  0  0  0
 13 16  1  0  0  0  0
 14 17  1  0  0  0  0
 15 18  1  0  0  0  0
 15 40  1  0  0  0  0
 16 19  2  0  0  0  0
 16 41  1  0  0  0  0
 17 21  1  0  0  0  0
 17 22  2  0  0  0  0
 18 20  2  0  0  0  0
 18 42  1  0  0  0  0
 19 20  1  0  0  0  0
 19 43  1  0  0  0  0
 20 44  1  0  0  0  0
 21 23  2  0  0  0  0
 22 24  1  0  0  0  0
 22 45  1  0  0  0  0
 23 25  1  0  0  0  0
 23 46  1  0  0  0  0
 24 25  2  0  0  0  0
 26 48  1  0  0  0  0
 26 49  1  0  0  0  0
 26 50  1  0  0  0  0
 27 51  1  0  0  0  0
 27 52  1  0  0  0  0
 27 53  1  0  0  0  0
M  END
> <PUBCHEM_COMPOUND_CID>
44380715

> <PUBCHEM_COMPOUND_CANONICALIZED>
1

> <PUBCHEM_CACTVS_COMPLEXITY>
472

> <PUBCHEM_CACTVS_HBOND_ACCEPTOR>
4

> <PUBCHEM_CACTVS_HBOND_DONOR>
2

> <PUBCHEM_CACTVS_ROTATABLE_BOND>
7

> <PUBCHEM_CACTVS_SUBSKEYS>
AAADceB7MAAEAAAAAAAAAAAAAAAAAWAAAAAwYAAAAAAAAAABQAAAHgIQAAAADQ7BmCYyxoPABACIAiVSUACCCAAlJwAIiIEObsgMJjbF95vEMWhm9hnI6YeY2SOeCCAAIgAIABAQQABEABAAIAAAAAAAAA==

> <PUBCHEM_IUPAC_OPENEYE_NAME>
N-[[(3S)-1-benzylpyrrolidin-3-yl]methyl]-5-chloro-2-methoxy-4-(methylamino)benzamide

> <PUBCHEM_IUPAC_CAS_NAME>
5-chloro-2-methoxy-4-(methylamino)-N-[[(3S)-1-(phenylmethyl)-3-pyrrolidinyl]methyl]benzamide

> <PUBCHEM_IUPAC_NAME_MARKUP>
<I>N</I>-[[(3<I>S</I>)-1-benzylpyrrolidin-3-yl]methyl]-5-chloro-2-methoxy-4-(methylamino)benzamide

> <PUBCHEM_IUPAC_NAME>
N-[[(3S)-1-benzylpyrrolidin-3-yl]methyl]-5-chloro-2-methoxy-4-(methylamino)benzamide

> <PUBCHEM_IUPAC_SYSTEMATIC_NAME>
5-chloranyl-2-methoxy-4-(methylamino)-N-[[(3S)-1-(phenylmethyl)pyrrolidin-3-yl]methyl]benzamide

> <PUBCHEM_IUPAC_TRADITIONAL_NAME>
N-[[(3S)-1-benzylpyrrolidin-3-yl]methyl]-5-chloro-2-methoxy-4-(methylamino)benzamide

> <PUBCHEM_IUPAC_INCHI>
InChI=1S/C21H26ClN3O2/c1-23-19-11-20(27-2)17(10-18(19)22)21(26)24-12-16-8-9-25(14-16)13-15-6-4-3-5-7-15/h3-7,10-11,16,23H,8-9,12-14H2,1-2H3,(H,24,26)/t16-/m0/s1

> <PUBCHEM_IUPAC_INCHIKEY>
QBCMSAVCLXLVLP-INIZCTEOSA-N

> <PUBCHEM_XLOGP3_AA>
3.7

> <PUBCHEM_EXACT_MASS>
387.1713548

> <PUBCHEM_MOLECULAR_FORMULA>
C21H26ClN3O2

> <PUBCHEM_MOLECULAR_WEIGHT>
387.9

> <PUBCHEM_OPENEYE_CAN_SMILES>
CNC1=C(C=C(C(=C1)OC)C(=O)NCC2CCN(C2)CC3=CC=CC=C3)Cl

> <PUBCHEM_OPENEYE_ISO_SMILES>
CNC1=C(C=C(C(=C1)OC)C(=O)NC[C@@H]2CCN(C2)CC3=CC=CC=C3)Cl

> <PUBCHEM_CACTVS_TPSA>
53.6

> <PUBCHEM_MONOISOTOPIC_WEIGHT>
387.1713548

> <PUBCHEM_TOTAL_CHARGE>
0

> <PUBCHEM_HEAVY_ATOM_COUNT>
27

> <PUBCHEM_ATOM_DEF_STEREO_COUNT>
1

> <PUBCHEM_ATOM_UDEF_STEREO_COUNT>
0

> <PUBCHEM_BOND_DEF_STEREO_COUNT>
0

> <PUBCHEM_BOND_UDEF_STEREO_COUNT>
0

> <PUBCHEM_ISOTOPIC_ATOM_COUNT>
0

> <PUBCHEM_COMPONENT_COUNT>
1

> <PUBCHEM_CACTVS_TAUTO_COUNT>
-1

> <PUBCHEM_COORDINATE_TYPE>
1
5
255

> <PUBCHEM_BONDANNOTATIONS>
13  15  8
13  16  8
15  18  8
16  19  8
17  21  8
17  22  8
18  20  8
19  20  8
21  23  8
22  24  8
23  25  8
24  25  8
7  11  5

$$$$
