168293565
  -OEChem-09292322442D

 61 63  0     0  0  0  0  0  0999 V2000
    8.3979    0.0000    0.0000 Cl  0  0  0  0  0  0  0  0  0  0  0  0
    4.9338    7.0000    0.0000 O   0  0  0  0  0  0  0  0  0  0  0  0
    6.1995   12.6665    0.0000 O   0  0  0  0  0  0  0  0  0  0  0  0
    3.6014   13.1665    0.0000 O   0  0  0  0  0  0  0  0  0  0  0  0
    5.3335   14.1665    0.0000 O   0  0  0  0  0  0  0  0  0  0  0  0
    4.4674   11.6665    0.0000 O   0  0  0  0  0  0  0  0  0  0  0  0
    4.9338    4.0000    0.0000 N   0  0  0  0  0  0  0  0  0  0  0  0
    6.6659    3.0000    0.0000 N   0  0  0  0  0  0  0  0  0  0  0  0
    3.2018    7.0000    0.0000 N   0  0  0  0  0  0  0  0  0  0  0  0
    5.7998    4.5000    0.0000 C   0  0  0  0  0  0  0  0  0  0  0  0
    4.9338    3.0000    0.0000 C   0  0  0  0  0  0  0  0  0  0  0  0
    4.0678    4.5000    0.0000 C   0  0  0  0  0  0  0  0  0  0  0  0
    6.6659    4.0000    0.0000 C   0  0  0  0  0  0  0  0  0  0  0  0
    5.7998    2.5000    0.0000 C   0  0  0  0  0  0  0  0  0  0  0  0
    4.0678    5.5000    0.0000 C   0  0  0  0  0  0  0  0  0  0  0  0
    3.2018    6.0000    0.0000 C   0  0  0  0  0  0  0  0  0  0  0  0
    7.5319    2.5000    0.0000 C   0  0  0  0  0  0  0  0  0  0  0  0
    2.3358    7.5000    0.0000 C   0  0  0  0  0  0  0  0  0  0  0  0
    3.2018    9.0000    0.0000 C   0  0  0  0  0  0  0  0  0  0  0  0
    2.3358    8.5000    0.0000 C   0  0  0  0  0  0  0  0  0  0  0  0
    4.0678    8.5000    0.0000 C   0  0  0  0  0  0  0  0  0  0  0  0
    4.0678    7.5000    0.0000 C   0  0  0  0  0  0  0  0  0  0  0  0
    7.5319    1.5000    0.0000 C   0  0  0  0  0  0  0  0  0  0  0  0
    8.3979    3.0000    0.0000 C   0  0  0  0  0  0  0  0  0  0  0  0
    1.4418    6.9653    0.0000 C   0  0  0  0  0  0  0  0  0  0  0  0
    1.4418    9.0347    0.0000 C   0  0  0  0  0  0  0  0  0  0  0  0
    0.5357    7.4792    0.0000 C   0  0  0  0  0  0  0  0  0  0  0  0
    0.5357    8.5208    0.0000 C   0  0  0  0  0  0  0  0  0  0  0  0
    8.3979    1.0000    0.0000 C   0  0  0  0  0  0  0  0  0  0  0  0
    9.2640    2.5000    0.0000 C   0  0  0  0  0  0  0  0  0  0  0  0
    9.2640    1.5000    0.0000 C   0  0  0  0  0  0  0  0  0  0  0  0
    5.3335   13.1665    0.0000 C   0  0  0  0  0  0  0  0  0  0  0  0
    4.4674   12.6665    0.0000 C   0  0  0  0  0  0  0  0  0  0  0  0
    6.1984    4.9750    0.0000 H   0  0  0  0  0  0  0  0  0  0  0  0
    5.4013    4.9750    0.0000 H   0  0  0  0  0  0  0  0  0  0  0  0
    4.3232    3.1077    0.0000 H   0  0  0  0  0  0  0  0  0  0  0  0
    4.7218    2.4174    0.0000 H   0  0  0  0  0  0  0  0  0  0  0  0
    3.4572    4.6077    0.0000 H   0  0  0  0  0  0  0  0  0  0  0  0
    3.8557    3.9174    0.0000 H   0  0  0  0  0  0  0  0  0  0  0  0
    7.2764    3.8923    0.0000 H   0  0  0  0  0  0  0  0  0  0  0  0
    6.8779    4.5826    0.0000 H   0  0  0  0  0  0  0  0  0  0  0  0
    5.4013    2.0250    0.0000 H   0  0  0  0  0  0  0  0  0  0  0  0
    6.1984    2.0250    0.0000 H   0  0  0  0  0  0  0  0  0  0  0  0
    4.6784    5.3923    0.0000 H   0  0  0  0  0  0  0  0  0  0  0  0
    4.2798    6.0826    0.0000 H   0  0  0  0  0  0  0  0  0  0  0  0
    2.5912    6.1077    0.0000 H   0  0  0  0  0  0  0  0  0  0  0  0
    2.9897    5.4174    0.0000 H   0  0  0  0  0  0  0  0  0  0  0  0
    3.6003    9.4750    0.0000 H   0  0  0  0  0  0  0  0  0  0  0  0
    2.8032    9.4750    0.0000 H   0  0  0  0  0  0  0  0  0  0  0  0
    4.6784    8.3923    0.0000 H   0  0  0  0  0  0  0  0  0  0  0  0
    4.2798    9.0826    0.0000 H   0  0  0  0  0  0  0  0  0  0  0  0
    6.9950    1.1900    0.0000 H   0  0  0  0  0  0  0  0  0  0  0  0
    8.3979    3.6200    0.0000 H   0  0  0  0  0  0  0  0  0  0  0  0
    1.4490    6.3454    0.0000 H   0  0  0  0  0  0  0  0  0  0  0  0
    1.4490    9.6546    0.0000 H   0  0  0  0  0  0  0  0  0  0  0  0
    0.0000    7.1671    0.0000 H   0  0  0  0  0  0  0  0  0  0  0  0
    0.0000    8.8329    0.0000 H   0  0  0  0  0  0  0  0  0  0  0  0
    9.8009    2.8100    0.0000 H   0  0  0  0  0  0  0  0  0  0  0  0
    9.8009    1.1900    0.0000 H   0  0  0  0  0  0  0  0  0  0  0  0
    6.7364   12.9765    0.0000 H   0  0  0  0  0  0  0  0  0  0  0  0
    3.0645   12.8565    0.0000 H   0  0  0  0  0  0  0  0  0  0  0  0
  1 29  1  0  0  0  0
  2 22  2  0  0  0  0
  3 32  1  0  0  0  0
  3 60  1  0  0  0  0
  4 33  1  0  0  0  0
  4 61  1  0  0  0  0
  5 32  2  0  0  0  0
  6 33  2  0  0  0  0
  7 10  1  0  0  0  0
  7 11  1  0  0  0  0
  7 12  1  0  0  0  0
  8 13  1  0  0  0  0
  8 14  1  0  0  0  0
  8 17  1  0  0  0  0
  9 16  1  0  0  0  0
  9 18  1  0  0  0  0
  9 22  1  0  0  0  0
 10 13  1  0  0  0  0
 10 34  1  0  0  0  0
 10 35  1  0  0  0  0
 11 14  1  0  0  0  0
 11 36  1  0  0  0  0
 11 37  1  0  0  0  0
 12 15  1  0  0  0  0
 12 38  1  0  0  0  0
 12 39  1  0  0  0  0
 13 40  1  0  0  0  0
 13 41  1  0  0  0  0
 14 42  1  0  0  0  0
 14 43  1  0  0  0  0
 15 16  1  0  0  0  0
 15 44  1  0  0  0  0
 15 45  1  0  0  0  0
 16 46  1  0  0  0  0
 16 47  1  0  0  0  0
 17 23  2  0  0  0  0
 17 24  1  0  0  0  0
 18 20  1  0  0  0  0
 18 25  2  0  0  0  0
 19 20  1  0  0  0  0
 19 21  1  0  0  0  0
 19 48  1  0  0  0  0
 19 49  1  0  0  0  0
 20 26  2  0  0  0  0
 21 22  1  0  0  0  0
 21 50  1  0  0  0  0
 21 51  1  0  0  0  0
 23 29  1  0  0  0  0
 23 52  1  0  0  0  0
 24 30  2  0  0  0  0
 24 53  1  0  0  0  0
 25 27  1  0  0  0  0
 25 54  1  0  0  0  0
 26 28  1  0  0  0  0
 26 55  1  0  0  0  0
 27 28  2  0  0  0  0
 27 56  1  0  0  0  0
 28 57  1  0  0  0  0
 29 31  2  0  0  0  0
 30 31  1  0  0  0  0
 30 58  1  0  0  0  0
 31 59  1  0  0  0  0
 32 33  1  0  0  0  0
M  END
> <PUBCHEM_COMPOUND_CID>
168293565

> <PUBCHEM_COMPOUND_CANONICALIZED>
1

> <PUBCHEM_CACTVS_COMPLEXITY>
566

> <PUBCHEM_CACTVS_HBOND_ACCEPTOR>
7

> <PUBCHEM_CACTVS_HBOND_DONOR>
2

> <PUBCHEM_CACTVS_ROTATABLE_BOND>
6

> <PUBCHEM_CACTVS_SUBSKEYS>
AAADceB7OAAEAAAAAAAAAAAAAAAAAAAAAAA8eIEAAAAAAACxQAAAHgIACAAADArBmCQwyIMAAgCIAiXSWAKCAAAhBwAIiAFIZogJYDLB05GUIAhghgDJyAcYiYCeAAAAAAICAAAAAAAABAQAAAAAAAAAAA==

> <PUBCHEM_IUPAC_OPENEYE_NAME>
1-[3-[4-(3-chlorophenyl)piperazin-1-yl]propyl]-3,4-dihydroquinolin-2-one;oxalic acid

> <PUBCHEM_IUPAC_CAS_NAME>
1-[3-[4-(3-chlorophenyl)-1-piperazinyl]propyl]-3,4-dihydroquinolin-2-one;oxalic acid

> <PUBCHEM_IUPAC_NAME_MARKUP>
1-[3-[4-(3-chlorophenyl)piperazin-1-yl]propyl]-3,4-dihydroquinolin-2-one;oxalic acid

> <PUBCHEM_IUPAC_NAME>
1-[3-[4-(3-chlorophenyl)piperazin-1-yl]propyl]-3,4-dihydroquinolin-2-one;oxalic acid

> <PUBCHEM_IUPAC_SYSTEMATIC_NAME>
1-[3-[4-(3-chlorophenyl)piperazin-1-yl]propyl]-3,4-dihydroquinolin-2-one;ethanedioic acid

> <PUBCHEM_IUPAC_TRADITIONAL_NAME>
1-[3-[4-(3-chlorophenyl)piperazino]propyl]-3,4-dihydrocarbostyril;oxalic acid

> <PUBCHEM_IUPAC_INCHI>
InChI=1S/C22H26ClN3O.C2H2O4/c23-19-6-3-7-20(17-19)25-15-13-24(14-16-25)11-4-12-26-21-8-2-1-5-18(21)9-10-22(26)27;3-1(4)2(5)6/h1-3,5-8,17H,4,9-16H2;(H,3,4)(H,5,6)

> <PUBCHEM_IUPAC_INCHIKEY>
SKYWZJSPKJHTND-UHFFFAOYSA-N

> <PUBCHEM_EXACT_MASS>
473.1717487

> <PUBCHEM_MOLECULAR_FORMULA>
C24H28ClN3O5

> <PUBCHEM_MOLECULAR_WEIGHT>
473.9

> <PUBCHEM_OPENEYE_CAN_SMILES>
C1CC(=O)N(C2=CC=CC=C21)CCCN3CCN(CC3)C4=CC(=CC=C4)Cl.C(=O)(C(=O)O)O

> <PUBCHEM_OPENEYE_ISO_SMILES>
C1CC(=O)N(C2=CC=CC=C21)CCCN3CCN(CC3)C4=CC(=CC=C4)Cl.C(=O)(C(=O)O)O

> <PUBCHEM_CACTVS_TPSA>
101

> <PUBCHEM_MONOISOTOPIC_WEIGHT>
473.1717487

> <PUBCHEM_TOTAL_CHARGE>
0

> <PUBCHEM_HEAVY_ATOM_COUNT>
33

> <PUBCHEM_ATOM_DEF_STEREO_COUNT>
0

> <PUBCHEM_ATOM_UDEF_STEREO_COUNT>
0

> <PUBCHEM_BOND_DEF_STEREO_COUNT>
0

> <PUBCHEM_BOND_UDEF_STEREO_COUNT>
0

> <PUBCHEM_ISOTOPIC_ATOM_COUNT>
0

> <PUBCHEM_COMPONENT_COUNT>
2

> <PUBCHEM_CACTVS_TAUTO_COUNT>
-1

> <PUBCHEM_COORDINATE_TYPE>
1
5
255

> <PUBCHEM_BONDANNOTATIONS>
17  23  8
17  24  8
18  20  8
18  25  8
20  26  8
23  29  8
24  30  8
25  27  8
26  28  8
27  28  8
29  31  8
30  31  8

$$$$
