44329050
  -OEChem-09292322212D

 67 71  0     1  0  0  0  0  0999 V2000
    2.0000   -0.5771    0.0000 O   0  0  0  0  0  0  0  0  0  0  0  0
    5.4176    3.4627    0.0000 N   0  0  3  0  0  0  0  0  0  0  0  0
    3.7319   -0.5571    0.0000 N   0  0  0  0  0  0  0  0  0  0  0  0
    6.3116    3.9974    0.0000 C   0  0  2  0  0  0  0  0  0  0  0  0
    6.3116    4.9974    0.0000 C   0  0  2  0  0  0  0  0  0  0  0  0
    5.4176    5.5320    0.0000 C   0  0  0  0  0  0  0  0  0  0  0  0
    7.1776    3.4974    0.0000 C   0  0  0  0  0  0  0  0  0  0  0  0
    4.5116    3.9766    0.0000 C   0  0  0  0  0  0  0  0  0  0  0  0
    4.5116    5.0182    0.0000 C   0  0  0  0  0  0  0  0  0  0  0  0
    7.1776    5.4974    0.0000 C   0  0  0  0  0  0  0  0  0  0  0  0
    8.0436    3.9974    0.0000 C   0  0  0  0  0  0  0  0  0  0  0  0
    8.0436    4.9974    0.0000 C   0  0  0  0  0  0  0  0  0  0  0  0
    5.4292    2.4628    0.0000 C   0  0  0  0  0  0  0  0  0  0  0  0
    7.1615    6.5389    0.0000 C   0  0  0  0  0  0  0  0  0  0  0  0
    4.5690    1.9528    0.0000 C   0  0  0  0  0  0  0  0  0  0  0  0
    8.9536    5.5042    0.0000 C   0  0  0  0  0  0  0  0  0  0  0  0
    4.5806    0.9529    0.0000 C   0  0  0  0  0  0  0  0  0  0  0  0
    8.0596    7.0666    0.0000 C   0  0  0  0  0  0  0  0  0  0  0  0
    8.9616    6.5458    0.0000 C   0  0  0  0  0  0  0  0  0  0  0  0
    3.7204    0.4429    0.0000 C   0  0  0  0  0  0  0  0  0  0  0  0
    2.8718   -1.0670    0.0000 C   0  0  0  0  0  0  0  0  0  0  0  0
    2.8833   -2.0670    0.0000 C   0  0  0  0  0  0  0  0  0  0  0  0
    3.7551   -2.5569    0.0000 C   0  0  0  0  0  0  0  0  0  0  0  0
    2.0231   -2.5770    0.0000 C   0  0  0  0  0  0  0  0  0  0  0  0
    3.7666   -3.5568    0.0000 C   0  0  0  0  0  0  0  0  0  0  0  0
    2.0347   -3.5769    0.0000 C   0  0  0  0  0  0  0  0  0  0  0  0
    2.9064   -4.0668    0.0000 C   0  0  0  0  0  0  0  0  0  0  0  0
    2.9180   -5.0668    0.0000 C   0  0  0  0  0  0  0  0  0  0  0  0
    3.7898   -5.5567    0.0000 C   0  0  0  0  0  0  0  0  0  0  0  0
    2.0578   -5.5768    0.0000 C   0  0  0  0  0  0  0  0  0  0  0  0
    3.8013   -6.5566    0.0000 C   0  0  0  0  0  0  0  0  0  0  0  0
    2.0694   -6.5767    0.0000 C   0  0  0  0  0  0  0  0  0  0  0  0
    2.9411   -7.0666    0.0000 C   0  0  0  0  0  0  0  0  0  0  0  0
    6.3181    3.1474    0.0000 H   0  0  0  0  0  0  0  0  0  0  0  0
    6.3181    5.8473    0.0000 H   0  0  0  0  0  0  0  0  0  0  0  0
    5.8222    6.0018    0.0000 H   0  0  0  0  0  0  0  0  0  0  0  0
    5.0240    6.0110    0.0000 H   0  0  0  0  0  0  0  0  0  0  0  0
    6.7791    3.0224    0.0000 H   0  0  0  0  0  0  0  0  0  0  0  0
    7.5761    3.0224    0.0000 H   0  0  0  0  0  0  0  0  0  0  0  0
    3.9007    4.0826    0.0000 H   0  0  0  0  0  0  0  0  0  0  0  0
    4.3025    3.3929    0.0000 H   0  0  0  0  0  0  0  0  0  0  0  0
    4.3025    5.6019    0.0000 H   0  0  0  0  0  0  0  0  0  0  0  0
    3.9007    4.9121    0.0000 H   0  0  0  0  0  0  0  0  0  0  0  0
    8.2557    3.4148    0.0000 H   0  0  0  0  0  0  0  0  0  0  0  0
    8.6542    4.1050    0.0000 H   0  0  0  0  0  0  0  0  0  0  0  0
    5.6480    1.8827    0.0000 H   0  0  0  0  0  0  0  0  0  0  0  0
    6.0385    2.5775    0.0000 H   0  0  0  0  0  0  0  0  0  0  0  0
    6.6210    6.8426    0.0000 H   0  0  0  0  0  0  0  0  0  0  0  0
    4.3502    2.5329    0.0000 H   0  0  0  0  0  0  0  0  0  0  0  0
    3.9597    1.8381    0.0000 H   0  0  0  0  0  0  0  0  0  0  0  0
    9.4869    5.1880    0.0000 H   0  0  0  0  0  0  0  0  0  0  0  0
    4.7993    0.3727    0.0000 H   0  0  0  0  0  0  0  0  0  0  0  0
    5.1898    1.0676    0.0000 H   0  0  0  0  0  0  0  0  0  0  0  0
    8.0572    7.6866    0.0000 H   0  0  0  0  0  0  0  0  0  0  0  0
    9.4998    6.8537    0.0000 H   0  0  0  0  0  0  0  0  0  0  0  0
    3.5016    1.0230    0.0000 H   0  0  0  0  0  0  0  0  0  0  0  0
    3.1111    0.3282    0.0000 H   0  0  0  0  0  0  0  0  0  0  0  0
    4.2724   -0.8608    0.0000 H   0  0  0  0  0  0  0  0  0  0  0  0
    4.2884   -2.2407    0.0000 H   0  0  0  0  0  0  0  0  0  0  0  0
    1.4826   -2.2732    0.0000 H   0  0  0  0  0  0  0  0  0  0  0  0
    4.3071   -3.8606    0.0000 H   0  0  0  0  0  0  0  0  0  0  0  0
    1.5014   -3.8931    0.0000 H   0  0  0  0  0  0  0  0  0  0  0  0
    4.3231   -5.2405    0.0000 H   0  0  0  0  0  0  0  0  0  0  0  0
    1.5173   -5.2730    0.0000 H   0  0  0  0  0  0  0  0  0  0  0  0
    4.3418   -6.8604    0.0000 H   0  0  0  0  0  0  0  0  0  0  0  0
    1.5361   -6.8929    0.0000 H   0  0  0  0  0  0  0  0  0  0  0  0
    2.9483   -7.6866    0.0000 H   0  0  0  0  0  0  0  0  0  0  0  0
  1 21  2  0  0  0  0
  2  4  1  0  0  0  0
  2  8  1  0  0  0  0
  2 13  1  0  0  0  0
  3 20  1  0  0  0  0
  3 21  1  0  0  0  0
  3 58  1  0  0  0  0
  4  5  1  0  0  0  0
  4  7  1  0  0  0  0
  4 34  1  1  0  0  0
  5  6  1  0  0  0  0
  5 10  1  0  0  0  0
  5 35  1  1  0  0  0
  6  9  1  0  0  0  0
  6 36  1  0  0  0  0
  6 37  1  0  0  0  0
  7 11  1  0  0  0  0
  7 38  1  0  0  0  0
  7 39  1  0  0  0  0
  8  9  1  0  0  0  0
  8 40  1  0  0  0  0
  8 41  1  0  0  0  0
  9 42  1  0  0  0  0
  9 43  1  0  0  0  0
 10 12  1  0  0  0  0
 10 14  2  0  0  0  0
 11 12  1  0  0  0  0
 11 44  1  0  0  0  0
 11 45  1  0  0  0  0
 12 16  2  0  0  0  0
 13 15  1  0  0  0  0
 13 46  1  0  0  0  0
 13 47  1  0  0  0  0
 14 18  1  0  0  0  0
 14 48  1  0  0  0  0
 15 17  1  0  0  0  0
 15 49  1  0  0  0  0
 15 50  1  0  0  0  0
 16 19  1  0  0  0  0
 16 51  1  0  0  0  0
 17 20  1  0  0  0  0
 17 52  1  0  0  0  0
 17 53  1  0  0  0  0
 18 19  2  0  0  0  0
 18 54  1  0  0  0  0
 19 55  1  0  0  0  0
 20 56  1  0  0  0  0
 20 57  1  0  0  0  0
 21 22  1  0  0  0  0
 22 23  2  0  0  0  0
 22 24  1  0  0  0  0
 23 25  1  0  0  0  0
 23 59  1  0  0  0  0
 24 26  2  0  0  0  0
 24 60  1  0  0  0  0
 25 27  2  0  0  0  0
 25 61  1  0  0  0  0
 26 27  1  0  0  0  0
 26 62  1  0  0  0  0
 27 28  1  0  0  0  0
 28 29  2  0  0  0  0
 28 30  1  0  0  0  0
 29 31  1  0  0  0  0
 29 63  1  0  0  0  0
 30 32  2  0  0  0  0
 30 64  1  0  0  0  0
 31 33  2  0  0  0  0
 31 65  1  0  0  0  0
 32 33  1  0  0  0  0
 32 66  1  0  0  0  0
 33 67  1  0  0  0  0
M  END
> <PUBCHEM_COMPOUND_CID>
44329050

> <PUBCHEM_COMPOUND_CANONICALIZED>
1

> <PUBCHEM_CACTVS_COMPLEXITY>
606

> <PUBCHEM_CACTVS_HBOND_ACCEPTOR>
2

> <PUBCHEM_CACTVS_HBOND_DONOR>
1

> <PUBCHEM_CACTVS_ROTATABLE_BOND>
7

> <PUBCHEM_CACTVS_SUBSKEYS>
AAADcfB7IAAAAAAAAAAAAAAAAAAAAAAAAAA8YMGCAAAAAADxUAAAHgAQAAAADSjBmAQwAIPAAACIAiFSEACCAAAkAAAIiIEIBMgIIDKAlRGEIQhglgCIiYcYiMCOwAAAAAAQAACQAASAACQAAAAAAAAAAA==

> <PUBCHEM_IUPAC_OPENEYE_NAME>
N-[4-[(4aS,10bR)-2,3,4a,5,6,10b-hexahydro-1H-benzo[f]quinolin-4-yl]butyl]-4-phenyl-benzamide

> <PUBCHEM_IUPAC_CAS_NAME>
N-[4-[(4aS,10bR)-2,3,4a,5,6,10b-hexahydro-1H-benzo[f]quinolin-4-yl]butyl]-4-phenylbenzamide

> <PUBCHEM_IUPAC_NAME_MARKUP>
<I>N</I>-[4-[(4<I>a</I><I>S</I>,10<I>b</I><I>R</I>)-2,3,4<I>a</I>,5,6,10<I>b</I>-hexahydro-1<I>H</I>-benzo[f]quinolin-4-yl]butyl]-4-phenylbenzamide

> <PUBCHEM_IUPAC_NAME>
N-[4-[(4aS,10bR)-2,3,4a,5,6,10b-hexahydro-1H-benzo[f]quinolin-4-yl]butyl]-4-phenylbenzamide

> <PUBCHEM_IUPAC_SYSTEMATIC_NAME>
N-[4-[(4aS,10bR)-2,3,4a,5,6,10b-hexahydro-1H-benzo[f]quinolin-4-yl]butyl]-4-phenyl-benzamide

> <PUBCHEM_IUPAC_TRADITIONAL_NAME>
N-[4-[(4aS,10bR)-2,3,4a,5,6,10b-hexahydro-1H-benzo[f]quinolin-4-yl]butyl]-4-phenyl-benzamide

> <PUBCHEM_IUPAC_INCHI>
InChI=1S/C30H34N2O/c33-30(26-16-14-24(15-17-26)23-9-2-1-3-10-23)31-20-6-7-21-32-22-8-13-28-27-12-5-4-11-25(27)18-19-29(28)32/h1-5,9-12,14-17,28-29H,6-8,13,18-22H2,(H,31,33)/t28-,29+/m1/s1

> <PUBCHEM_IUPAC_INCHIKEY>
OPJTVMKUVYOWNC-WDYNHAJCSA-N

> <PUBCHEM_XLOGP3_AA>
6.3

> <PUBCHEM_EXACT_MASS>
438.267113712

> <PUBCHEM_MOLECULAR_FORMULA>
C30H34N2O

> <PUBCHEM_MOLECULAR_WEIGHT>
438.6

> <PUBCHEM_OPENEYE_CAN_SMILES>
C1CC2C(CCC3=CC=CC=C23)N(C1)CCCCNC(=O)C4=CC=C(C=C4)C5=CC=CC=C5

> <PUBCHEM_OPENEYE_ISO_SMILES>
C1C[C@H]2[C@H](CCC3=CC=CC=C23)N(C1)CCCCNC(=O)C4=CC=C(C=C4)C5=CC=CC=C5

> <PUBCHEM_CACTVS_TPSA>
32.3

> <PUBCHEM_MONOISOTOPIC_WEIGHT>
438.267113712

> <PUBCHEM_TOTAL_CHARGE>
0

> <PUBCHEM_HEAVY_ATOM_COUNT>
33

> <PUBCHEM_ATOM_DEF_STEREO_COUNT>
2

> <PUBCHEM_ATOM_UDEF_STEREO_COUNT>
0

> <PUBCHEM_BOND_DEF_STEREO_COUNT>
0

> <PUBCHEM_BOND_UDEF_STEREO_COUNT>
0

> <PUBCHEM_ISOTOPIC_ATOM_COUNT>
0

> <PUBCHEM_COMPONENT_COUNT>
1

> <PUBCHEM_CACTVS_TAUTO_COUNT>
-1

> <PUBCHEM_COORDINATE_TYPE>
1
5
255

> <PUBCHEM_BONDANNOTATIONS>
10  12  8
10  14  8
12  16  8
14  18  8
16  19  8
18  19  8
22  23  8
22  24  8
23  25  8
24  26  8
25  27  8
26  27  8
28  29  8
28  30  8
29  31  8
30  32  8
31  33  8
32  33  8
4  34  5
5  35  5

$$$$
