15665505
  -OEChem-09292322142D

 55 58  0     1  0  0  0  0  0999 V2000
    6.8798   -1.3044    0.0000 O   0  0  0  0  0  0  0  0  0  0  0  0
    8.6719   -2.3391    0.0000 O   0  0  0  0  0  0  0  0  0  0  0  0
   11.2265    3.2367    0.0000 O   0  0  0  0  0  0  0  0  0  0  0  0
   12.0983    1.7400    0.0000 O   0  0  0  0  0  0  0  0  0  0  0  0
    3.0000   -2.4799    0.0000 O   0  0  0  0  0  0  0  0  0  0  0  0
    3.0000   -4.2120    0.0000 O   0  0  0  0  0  0  0  0  0  0  0  0
    8.6381    0.7267    0.0000 N   0  0  0  0  0  0  0  0  0  0  0  0
    5.0836   -4.1507    0.0000 N   0  0  0  0  0  0  0  0  0  0  0  0
   10.3663    1.7333    0.0000 C   0  0  0  0  0  0  0  0  0  0  0  0
   10.3701    0.7333    0.0000 C   0  0  0  0  0  0  0  0  0  0  0  0
    9.4983    2.2300    0.0000 C   0  0  0  0  0  0  0  0  0  0  0  0
    9.5060    0.2300    0.0000 C   0  0  0  0  0  0  0  0  0  0  0  0
    8.6342    1.7266    0.0000 C   0  0  0  0  0  0  0  0  0  0  0  0
    7.7740    0.2233    0.0000 C   0  0  0  0  0  0  0  0  0  0  0  0
    7.7778   -0.7767    0.0000 C   0  0  3  0  0  0  0  0  0  0  0  0
   11.2303    2.2367    0.0000 C   0  0  0  0  0  0  0  0  0  0  0  0
    8.6799   -1.2975    0.0000 C   0  0  0  0  0  0  0  0  0  0  0  0
    6.8958   -2.3459    0.0000 C   0  0  0  0  0  0  0  0  0  0  0  0
    7.7619   -2.8459    0.0000 C   0  0  0  0  0  0  0  0  0  0  0  0
    6.0298   -2.8459    0.0000 C   0  0  0  0  0  0  0  0  0  0  0  0
    6.0298   -3.8459    0.0000 C   0  0  0  0  0  0  0  0  0  0  0  0
    7.7619   -3.8459    0.0000 C   0  0  0  0  0  0  0  0  0  0  0  0
    5.0836   -2.5412    0.0000 C   0  0  0  0  0  0  0  0  0  0  0  0
    6.8958   -4.3459    0.0000 C   0  0  0  0  0  0  0  0  0  0  0  0
    4.5000   -3.3459    0.0000 C   0  0  0  0  0  0  0  0  0  0  0  0
   12.0906    3.7400    0.0000 C   0  0  0  0  0  0  0  0  0  0  0  0
   12.0867    4.7400    0.0000 C   0  0  0  0  0  0  0  0  0  0  0  0
    3.5000   -3.3459    0.0000 C   0  0  0  0  0  0  0  0  0  0  0  0
    2.0000   -2.4799    0.0000 C   0  0  0  0  0  0  0  0  0  0  0  0
   10.9044    1.4254    0.0000 H   0  0  0  0  0  0  0  0  0  0  0  0
   10.5844    0.1515    0.0000 H   0  0  0  0  0  0  0  0  0  0  0  0
   10.9803    0.8434    0.0000 H   0  0  0  0  0  0  0  0  0  0  0  0
    9.8950    2.7065    0.0000 H   0  0  0  0  0  0  0  0  0  0  0  0
    9.0980    2.7034    0.0000 H   0  0  0  0  0  0  0  0  0  0  0  0
    9.1093   -0.2465    0.0000 H   0  0  0  0  0  0  0  0  0  0  0  0
    9.9064   -0.2434    0.0000 H   0  0  0  0  0  0  0  0  0  0  0  0
    8.4199    2.3084    0.0000 H   0  0  0  0  0  0  0  0  0  0  0  0
    8.0241    1.6166    0.0000 H   0  0  0  0  0  0  0  0  0  0  0  0
    7.5597    0.8051    0.0000 H   0  0  0  0  0  0  0  0  0  0  0  0
    7.1638    0.1133    0.0000 H   0  0  0  0  0  0  0  0  0  0  0  0
    7.2391   -0.4698    0.0000 H   0  0  0  0  0  0  0  0  0  0  0  0
    9.2899   -1.4083    0.0000 H   0  0  0  0  0  0  0  0  0  0  0  0
    8.8935   -0.7154    0.0000 H   0  0  0  0  0  0  0  0  0  0  0  0
    8.2988   -4.1559    0.0000 H   0  0  0  0  0  0  0  0  0  0  0  0
    4.8910   -1.9519    0.0000 H   0  0  0  0  0  0  0  0  0  0  0  0
    6.8958   -4.9659    0.0000 H   0  0  0  0  0  0  0  0  0  0  0  0
    4.8910   -4.7400    0.0000 H   0  0  0  0  0  0  0  0  0  0  0  0
   12.3049    3.1582    0.0000 H   0  0  0  0  0  0  0  0  0  0  0  0
   12.7007    3.8500    0.0000 H   0  0  0  0  0  0  0  0  0  0  0  0
   12.7067    4.7424    0.0000 H   0  0  0  0  0  0  0  0  0  0  0  0
   12.0843    5.3600    0.0000 H   0  0  0  0  0  0  0  0  0  0  0  0
   11.4667    4.7376    0.0000 H   0  0  0  0  0  0  0  0  0  0  0  0
    2.0000   -1.8599    0.0000 H   0  0  0  0  0  0  0  0  0  0  0  0
    1.3800   -2.4799    0.0000 H   0  0  0  0  0  0  0  0  0  0  0  0
    2.0000   -3.0999    0.0000 H   0  0  0  0  0  0  0  0  0  0  0  0
  1 15  1  0  0  0  0
  1 18  1  0  0  0  0
  2 17  1  0  0  0  0
  2 19  1  0  0  0  0
  3 16  1  0  0  0  0
  3 26  1  0  0  0  0
  4 16  2  0  0  0  0
  5 28  1  0  0  0  0
  5 29  1  0  0  0  0
  6 28  2  0  0  0  0
  7 12  1  0  0  0  0
  7 13  1  0  0  0  0
  7 14  1  0  0  0  0
  8 21  1  0  0  0  0
  8 25  1  0  0  0  0
  8 47  1  0  0  0  0
  9 10  1  0  0  0  0
  9 11  1  0  0  0  0
  9 16  1  0  0  0  0
  9 30  1  0  0  0  0
 10 12  1  0  0  0  0
 10 31  1  0  0  0  0
 10 32  1  0  0  0  0
 11 13  1  0  0  0  0
 11 33  1  0  0  0  0
 11 34  1  0  0  0  0
 12 35  1  0  0  0  0
 12 36  1  0  0  0  0
 13 37  1  0  0  0  0
 13 38  1  0  0  0  0
 14 15  1  0  0  0  0
 14 39  1  0  0  0  0
 14 40  1  0  0  0  0
 15 17  1  0  0  0  0
 15 41  1  0  0  0  0
 17 42  1  0  0  0  0
 17 43  1  0  0  0  0
 18 19  2  0  0  0  0
 18 20  1  0  0  0  0
 19 22  1  0  0  0  0
 20 21  2  0  0  0  0
 20 23  1  0  0  0  0
 21 24  1  0  0  0  0
 22 24  2  0  0  0  0
 22 44  1  0  0  0  0
 23 25  2  0  0  0  0
 23 45  1  0  0  0  0
 24 46  1  0  0  0  0
 25 28  1  0  0  0  0
 26 27  1  0  0  0  0
 26 48  1  0  0  0  0
 26 49  1  0  0  0  0
 27 50  1  0  0  0  0
 27 51  1  0  0  0  0
 27 52  1  0  0  0  0
 29 53  1  0  0  0  0
 29 54  1  0  0  0  0
 29 55  1  0  0  0  0
M  END
> <PUBCHEM_COMPOUND_CID>
15665505

> <PUBCHEM_COMPOUND_CANONICALIZED>
1

> <PUBCHEM_CACTVS_COMPLEXITY>
594

> <PUBCHEM_CACTVS_HBOND_ACCEPTOR>
7

> <PUBCHEM_CACTVS_HBOND_DONOR>
1

> <PUBCHEM_CACTVS_ROTATABLE_BOND>
7

> <PUBCHEM_CACTVS_SUBSKEYS>
AAADceB7OAAAAAAAAAAAAAAAAAAAAWAAAAA8SIAAAAAAAFiR8AAAHgAQAAAADRzhngYyzvPJlACoAyTyTASCiCAnIiAImSG+7NgPJvLEtLuHOSrm0Bna6Ye8/b/eAEABAgAKQAAAgAIEABSAAAAAAAAAAA==

> <PUBCHEM_IUPAC_OPENEYE_NAME>
methyl 2-[(4-ethoxycarbonyl-1-piperidyl)methyl]-3,7-dihydro-2H-[1,4]dioxino[2,3-e]indole-8-carboxylate

> <PUBCHEM_IUPAC_CAS_NAME>
2-[(4-ethoxycarbonyl-1-piperidinyl)methyl]-3,7-dihydro-2H-[1,4]dioxino[2,3-e]indole-8-carboxylic acid methyl ester

> <PUBCHEM_IUPAC_NAME_MARKUP>
methyl 2-[(4-ethoxycarbonylpiperidin-1-yl)methyl]-3,7-dihydro-2<I>H</I>-[1,4]dioxino[2,3-e]indole-8-carboxylate

> <PUBCHEM_IUPAC_NAME>
methyl 2-[(4-ethoxycarbonylpiperidin-1-yl)methyl]-3,7-dihydro-2H-[1,4]dioxino[2,3-e]indole-8-carboxylate

> <PUBCHEM_IUPAC_SYSTEMATIC_NAME>
methyl 2-[(4-ethoxycarbonylpiperidin-1-yl)methyl]-3,7-dihydro-2H-[1,4]dioxino[2,3-e]indole-8-carboxylate

> <PUBCHEM_IUPAC_TRADITIONAL_NAME>
2-[(4-carbethoxypiperidino)methyl]-3,7-dihydro-2H-[1,4]dioxin[2,3-e]indole-8-carboxylic acid methyl ester

> <PUBCHEM_IUPAC_INCHI>
InChI=1S/C21H26N2O6/c1-3-27-20(24)13-6-8-23(9-7-13)11-14-12-28-18-5-4-16-15(19(18)29-14)10-17(22-16)21(25)26-2/h4-5,10,13-14,22H,3,6-9,11-12H2,1-2H3

> <PUBCHEM_IUPAC_INCHIKEY>
LWBZBWXDCWJUBA-UHFFFAOYSA-N

> <PUBCHEM_XLOGP3_AA>
2.8

> <PUBCHEM_EXACT_MASS>
402.17908655

> <PUBCHEM_MOLECULAR_FORMULA>
C21H26N2O6

> <PUBCHEM_MOLECULAR_WEIGHT>
402.4

> <PUBCHEM_OPENEYE_CAN_SMILES>
CCOC(=O)C1CCN(CC1)CC2COC3=C(O2)C4=C(C=C3)NC(=C4)C(=O)OC

> <PUBCHEM_OPENEYE_ISO_SMILES>
CCOC(=O)C1CCN(CC1)CC2COC3=C(O2)C4=C(C=C3)NC(=C4)C(=O)OC

> <PUBCHEM_CACTVS_TPSA>
90.1

> <PUBCHEM_MONOISOTOPIC_WEIGHT>
402.17908655

> <PUBCHEM_TOTAL_CHARGE>
0

> <PUBCHEM_HEAVY_ATOM_COUNT>
29

> <PUBCHEM_ATOM_DEF_STEREO_COUNT>
0

> <PUBCHEM_ATOM_UDEF_STEREO_COUNT>
1

> <PUBCHEM_BOND_DEF_STEREO_COUNT>
0

> <PUBCHEM_BOND_UDEF_STEREO_COUNT>
0

> <PUBCHEM_ISOTOPIC_ATOM_COUNT>
0

> <PUBCHEM_COMPONENT_COUNT>
1

> <PUBCHEM_CACTVS_TAUTO_COUNT>
-1

> <PUBCHEM_COORDINATE_TYPE>
1
5
255

> <PUBCHEM_BONDANNOTATIONS>
15  14  3
18  19  8
18  20  8
19  22  8
20  21  8
20  23  8
21  24  8
22  24  8
23  25  8
8  21  8
8  25  8

$$$$
