10363821
  -OEChem-09292322112D

 51 55  0     0  0  0  0  0  0999 V2000
    2.0000   -2.5370    0.0000 Cl  0  0  0  0  0  0  0  0  0  0  0  0
    4.0358    1.0296    0.0000 N   0  0  0  0  0  0  0  0  0  0  0  0
    4.9036   -0.7724    0.0000 N   0  0  0  0  0  0  0  0  0  0  0  0
    6.3374   -1.6734    0.0000 N   0  0  0  0  0  0  0  0  0  0  0  0
    5.8374   -3.8640    0.0000 N   0  0  0  0  0  0  0  0  0  0  0  0
    7.4909   -4.1503    0.0000 N   0  0  0  0  0  0  0  0  0  0  0  0
    3.4725    0.2033    0.0000 C   0  0  0  0  0  0  0  0  0  0  0  0
    5.0330    0.9548    0.0000 C   0  0  0  0  0  0  0  0  0  0  0  0
    3.9064   -0.6976    0.0000 C   0  0  0  0  0  0  0  0  0  0  0  0
    5.4669    0.0539    0.0000 C   0  0  0  0  0  0  0  0  0  0  0  0
    3.6019    1.9306    0.0000 C   0  0  0  0  0  0  0  0  0  0  0  0
    5.3374   -1.6733    0.0000 C   0  0  0  0  0  0  0  0  0  0  0  0
    4.7139   -2.4552    0.0000 C   0  0  0  0  0  0  0  0  0  0  0  0
    4.1652    2.7568    0.0000 C   0  0  0  0  0  0  0  0  0  0  0  0
    4.9364   -3.4301    0.0000 C   0  0  0  0  0  0  0  0  0  0  0  0
    3.7234   -2.1328    0.0000 C   0  0  0  0  0  0  0  0  0  0  0  0
    6.9609   -2.4552    0.0000 C   0  0  0  0  0  0  0  0  0  0  0  0
    3.7314    3.6578    0.0000 C   0  0  0  0  0  0  0  0  0  0  0  0
    5.1625    2.6820    0.0000 C   0  0  0  0  0  0  0  0  0  0  0  0
    6.7384   -3.4301    0.0000 C   0  0  0  0  0  0  0  0  0  0  0  0
    4.1839   -4.1503    0.0000 C   0  0  0  0  0  0  0  0  0  0  0  0
    2.9544   -2.8354    0.0000 C   0  0  0  0  0  0  0  0  0  0  0  0
    3.1862   -3.8509    0.0000 C   0  0  0  0  0  0  0  0  0  0  0  0
    4.2947    4.4840    0.0000 C   0  0  0  0  0  0  0  0  0  0  0  0
    5.7258    3.5083    0.0000 C   0  0  0  0  0  0  0  0  0  0  0  0
    7.9514   -2.1329    0.0000 C   0  0  0  0  0  0  0  0  0  0  0  0
    5.2919    4.4092    0.0000 C   0  0  0  0  0  0  0  0  0  0  0  0
    8.7204   -2.8354    0.0000 C   0  0  0  0  0  0  0  0  0  0  0  0
    8.4886   -3.8510    0.0000 C   0  0  0  0  0  0  0  0  0  0  0  0
    3.0286    0.6363    0.0000 H   0  0  0  0  0  0  0  0  0  0  0  0
    2.9691   -0.1586    0.0000 H   0  0  0  0  0  0  0  0  0  0  0  0
    5.6298    1.1228    0.0000 H   0  0  0  0  0  0  0  0  0  0  0  0
    4.9713    1.5718    0.0000 H   0  0  0  0  0  0  0  0  0  0  0  0
    3.3095   -0.8655    0.0000 H   0  0  0  0  0  0  0  0  0  0  0  0
    3.9681   -1.3146    0.0000 H   0  0  0  0  0  0  0  0  0  0  0  0
    5.9107   -0.3790    0.0000 H   0  0  0  0  0  0  0  0  0  0  0  0
    5.9703    0.4158    0.0000 H   0  0  0  0  0  0  0  0  0  0  0  0
    3.1581    2.3635    0.0000 H   0  0  0  0  0  0  0  0  0  0  0  0
    3.0985    1.5686    0.0000 H   0  0  0  0  0  0  0  0  0  0  0  0
    3.5925   -1.5268    0.0000 H   0  0  0  0  0  0  0  0  0  0  0  0
    3.1131    3.7041    0.0000 H   0  0  0  0  0  0  0  0  0  0  0  0
    5.4315    2.1234    0.0000 H   0  0  0  0  0  0  0  0  0  0  0  0
    5.8374   -4.4840    0.0000 H   0  0  0  0  0  0  0  0  0  0  0  0
    4.3288   -4.7531    0.0000 H   0  0  0  0  0  0  0  0  0  0  0  0
    2.7333   -4.2744    0.0000 H   0  0  0  0  0  0  0  0  0  0  0  0
    4.0257    5.0426    0.0000 H   0  0  0  0  0  0  0  0  0  0  0  0
    6.3440    3.4619    0.0000 H   0  0  0  0  0  0  0  0  0  0  0  0
    8.0824   -1.5268    0.0000 H   0  0  0  0  0  0  0  0  0  0  0  0
    5.6412    4.9215    0.0000 H   0  0  0  0  0  0  0  0  0  0  0  0
    9.3122   -2.6504    0.0000 H   0  0  0  0  0  0  0  0  0  0  0  0
    8.9415   -4.2744    0.0000 H   0  0  0  0  0  0  0  0  0  0  0  0
  1 22  1  0  0  0  0
  2  7  1  0  0  0  0
  2  8  1  0  0  0  0
  2 11  1  0  0  0  0
  3  9  1  0  0  0  0
  3 10  1  0  0  0  0
  3 12  1  0  0  0  0
  4 12  2  0  0  0  0
  4 17  1  0  0  0  0
  5 15  1  0  0  0  0
  5 20  1  0  0  0  0
  5 43  1  0  0  0  0
  6 20  1  0  0  0  0
  6 29  2  0  0  0  0
  7  9  1  0  0  0  0
  7 30  1  0  0  0  0
  7 31  1  0  0  0  0
  8 10  1  0  0  0  0
  8 32  1  0  0  0  0
  8 33  1  0  0  0  0
  9 34  1  0  0  0  0
  9 35  1  0  0  0  0
 10 36  1  0  0  0  0
 10 37  1  0  0  0  0
 11 14  1  0  0  0  0
 11 38  1  0  0  0  0
 11 39  1  0  0  0  0
 12 13  1  0  0  0  0
 13 15  2  0  0  0  0
 13 16  1  0  0  0  0
 14 18  2  0  0  0  0
 14 19  1  0  0  0  0
 15 21  1  0  0  0  0
 16 22  2  0  0  0  0
 16 40  1  0  0  0  0
 17 20  2  0  0  0  0
 17 26  1  0  0  0  0
 18 24  1  0  0  0  0
 18 41  1  0  0  0  0
 19 25  2  0  0  0  0
 19 42  1  0  0  0  0
 21 23  2  0  0  0  0
 21 44  1  0  0  0  0
 22 23  1  0  0  0  0
 23 45  1  0  0  0  0
 24 27  2  0  0  0  0
 24 46  1  0  0  0  0
 25 27  1  0  0  0  0
 25 47  1  0  0  0  0
 26 28  2  0  0  0  0
 26 48  1  0  0  0  0
 27 49  1  0  0  0  0
 28 29  1  0  0  0  0
 28 50  1  0  0  0  0
 29 51  1  0  0  0  0
M  END
> <PUBCHEM_COMPOUND_CID>
10363821

> <PUBCHEM_COMPOUND_CANONICALIZED>
1

> <PUBCHEM_CACTVS_COMPLEXITY>
570

> <PUBCHEM_CACTVS_HBOND_ACCEPTOR>
4

> <PUBCHEM_CACTVS_HBOND_DONOR>
1

> <PUBCHEM_CACTVS_ROTATABLE_BOND>
3

> <PUBCHEM_CACTVS_SUBSKEYS>
AAADceB7gAAEAAAAAAAAAAAAAAAAAAAAAAA8eIEABAAAAAAB0AAAHAIQAAAADArBGiQ98JPIEACgAjZnZACCgCkxFyAJ2CA4dpiIYOLB25GUIAhokALIyCcQgAAOAABAIAACAAAAAIBAAAQAAAAAAAAAAA==

> <PUBCHEM_IUPAC_OPENEYE_NAME>
6-(4-benzylpiperazin-1-yl)-8-chloro-11H-pyrido[2,3-b][1,4]benzodiazepine

> <PUBCHEM_IUPAC_CAS_NAME>
8-chloro-6-[4-(phenylmethyl)-1-piperazinyl]-11H-pyrido[2,3-b][1,4]benzodiazepine

> <PUBCHEM_IUPAC_NAME_MARKUP>
6-(4-benzylpiperazin-1-yl)-8-chloro-11<I>H</I>-pyrido[2,3-b][1,4]benzodiazepine

> <PUBCHEM_IUPAC_NAME>
6-(4-benzylpiperazin-1-yl)-8-chloro-11H-pyrido[2,3-b][1,4]benzodiazepine

> <PUBCHEM_IUPAC_SYSTEMATIC_NAME>
8-chloranyl-6-[4-(phenylmethyl)piperazin-1-yl]-11H-pyrido[2,3-b][1,4]benzodiazepine

> <PUBCHEM_IUPAC_TRADITIONAL_NAME>
6-(4-benzylpiperazino)-8-chloro-11H-pyrido[2,3-b][1,4]benzodiazepine

> <PUBCHEM_IUPAC_INCHI>
InChI=1S/C23H22ClN5/c24-18-8-9-20-19(15-18)23(27-21-7-4-10-25-22(21)26-20)29-13-11-28(12-14-29)16-17-5-2-1-3-6-17/h1-10,15H,11-14,16H2,(H,25,26)

> <PUBCHEM_IUPAC_INCHIKEY>
MVUVSHXUPTVDBC-UHFFFAOYSA-N

> <PUBCHEM_XLOGP3_AA>
3.8

> <PUBCHEM_EXACT_MASS>
403.1563734

> <PUBCHEM_MOLECULAR_FORMULA>
C23H22ClN5

> <PUBCHEM_MOLECULAR_WEIGHT>
403.9

> <PUBCHEM_OPENEYE_CAN_SMILES>
C1CN(CCN1CC2=CC=CC=C2)C3=NC4=C(NC5=C3C=C(C=C5)Cl)N=CC=C4

> <PUBCHEM_OPENEYE_ISO_SMILES>
C1CN(CCN1CC2=CC=CC=C2)C3=NC4=C(NC5=C3C=C(C=C5)Cl)N=CC=C4

> <PUBCHEM_CACTVS_TPSA>
43.8

> <PUBCHEM_MONOISOTOPIC_WEIGHT>
403.1563734

> <PUBCHEM_TOTAL_CHARGE>
0

> <PUBCHEM_HEAVY_ATOM_COUNT>
29

> <PUBCHEM_ATOM_DEF_STEREO_COUNT>
0

> <PUBCHEM_ATOM_UDEF_STEREO_COUNT>
0

> <PUBCHEM_BOND_DEF_STEREO_COUNT>
0

> <PUBCHEM_BOND_UDEF_STEREO_COUNT>
0

> <PUBCHEM_ISOTOPIC_ATOM_COUNT>
0

> <PUBCHEM_COMPONENT_COUNT>
1

> <PUBCHEM_CACTVS_TAUTO_COUNT>
-1

> <PUBCHEM_COORDINATE_TYPE>
1
5
255

> <PUBCHEM_BONDANNOTATIONS>
13  15  8
13  16  8
14  18  8
14  19  8
15  21  8
16  22  8
17  20  8
17  26  8
18  24  8
19  25  8
21  23  8
22  23  8
24  27  8
25  27  8
26  28  8
28  29  8
6  20  8
6  29  8

$$$$
