155565438
  -OEChem-09292322402D

 60 63  0     0  0  0  0  0  0999 V2000
    5.8301    7.8294    0.0000 S   0  0  0  0  0  0  0  0  0  0  0  0
    2.0000   -7.2094    0.0000 O   0  0  0  0  0  0  0  0  0  0  0  0
    7.1962    1.7906    0.0000 O   0  0  0  0  0  0  0  0  0  0  0  0
    3.7320   -2.2094    0.0000 N   0  0  0  0  0  0  0  0  0  0  0  0
    3.7320   -4.2094    0.0000 N   0  0  0  0  0  0  0  0  0  0  0  0
    5.4641    1.7906    0.0000 N   0  0  0  0  0  0  0  0  0  0  0  0
    4.5981   -2.7094    0.0000 C   0  0  0  0  0  0  0  0  0  0  0  0
    2.8660   -2.7094    0.0000 C   0  0  0  0  0  0  0  0  0  0  0  0
    4.5981   -3.7094    0.0000 C   0  0  0  0  0  0  0  0  0  0  0  0
    2.8660   -3.7094    0.0000 C   0  0  0  0  0  0  0  0  0  0  0  0
    3.7320   -1.2094    0.0000 C   0  0  0  0  0  0  0  0  0  0  0  0
    4.5981   -0.7094    0.0000 C   0  0  0  0  0  0  0  0  0  0  0  0
    3.7320   -5.2094    0.0000 C   0  0  0  0  0  0  0  0  0  0  0  0
    4.5981    0.2906    0.0000 C   0  0  0  0  0  0  0  0  0  0  0  0
    5.4641    0.7906    0.0000 C   0  0  0  0  0  0  0  0  0  0  0  0
    2.8660   -5.7094    0.0000 C   0  0  0  0  0  0  0  0  0  0  0  0
    4.5981   -5.7094    0.0000 C   0  0  0  0  0  0  0  0  0  0  0  0
    2.8660   -6.7094    0.0000 C   0  0  0  0  0  0  0  0  0  0  0  0
    4.5981   -6.7094    0.0000 C   0  0  0  0  0  0  0  0  0  0  0  0
    3.7320   -7.2094    0.0000 C   0  0  0  0  0  0  0  0  0  0  0  0
    6.3301    2.2906    0.0000 C   0  0  0  0  0  0  0  0  0  0  0  0
    6.3301    3.2906    0.0000 C   0  0  0  0  0  0  0  0  0  0  0  0
    7.1962    3.7906    0.0000 C   0  0  0  0  0  0  0  0  0  0  0  0
    5.4641    3.7906    0.0000 C   0  0  0  0  0  0  0  0  0  0  0  0
    6.3301    5.2906    0.0000 C   0  0  0  0  0  0  0  0  0  0  0  0
    7.1962    4.7906    0.0000 C   0  0  0  0  0  0  0  0  0  0  0  0
    5.4641    4.7906    0.0000 C   0  0  0  0  0  0  0  0  0  0  0  0
    6.3301    6.2906    0.0000 C   0  0  0  0  0  0  0  0  0  0  0  0
    7.1391    6.8784    0.0000 C   0  0  0  0  0  0  0  0  0  0  0  0
    5.5211    6.8784    0.0000 C   0  0  0  0  0  0  0  0  0  0  0  0
    6.8301    7.8294    0.0000 C   0  0  0  0  0  0  0  0  0  0  0  0
    5.2087   -2.8171    0.0000 H   0  0  0  0  0  0  0  0  0  0  0  0
    4.8101   -2.1268    0.0000 H   0  0  0  0  0  0  0  0  0  0  0  0
    2.6540   -2.1268    0.0000 H   0  0  0  0  0  0  0  0  0  0  0  0
    2.2554   -2.8171    0.0000 H   0  0  0  0  0  0  0  0  0  0  0  0
    4.8101   -4.2920    0.0000 H   0  0  0  0  0  0  0  0  0  0  0  0
    5.2087   -3.6018    0.0000 H   0  0  0  0  0  0  0  0  0  0  0  0
    2.2554   -3.6018    0.0000 H   0  0  0  0  0  0  0  0  0  0  0  0
    2.6540   -4.2920    0.0000 H   0  0  0  0  0  0  0  0  0  0  0  0
    3.5200   -0.6268    0.0000 H   0  0  0  0  0  0  0  0  0  0  0  0
    3.1215   -1.3171    0.0000 H   0  0  0  0  0  0  0  0  0  0  0  0
    4.8101   -1.2920    0.0000 H   0  0  0  0  0  0  0  0  0  0  0  0
    5.2087   -0.6018    0.0000 H   0  0  0  0  0  0  0  0  0  0  0  0
    4.3860    0.8732    0.0000 H   0  0  0  0  0  0  0  0  0  0  0  0
    3.9875    0.1829    0.0000 H   0  0  0  0  0  0  0  0  0  0  0  0
    5.6762    0.2080    0.0000 H   0  0  0  0  0  0  0  0  0  0  0  0
    6.0747    0.8982    0.0000 H   0  0  0  0  0  0  0  0  0  0  0  0
    2.3291   -5.3994    0.0000 H   0  0  0  0  0  0  0  0  0  0  0  0
    5.1350   -5.3994    0.0000 H   0  0  0  0  0  0  0  0  0  0  0  0
    4.9272    2.1006    0.0000 H   0  0  0  0  0  0  0  0  0  0  0  0
    5.1350   -7.0194    0.0000 H   0  0  0  0  0  0  0  0  0  0  0  0
    3.7320   -7.8294    0.0000 H   0  0  0  0  0  0  0  0  0  0  0  0
    2.0000   -7.8294    0.0000 H   0  0  0  0  0  0  0  0  0  0  0  0
    7.7331    3.4806    0.0000 H   0  0  0  0  0  0  0  0  0  0  0  0
    4.9272    3.4806    0.0000 H   0  0  0  0  0  0  0  0  0  0  0  0
    7.7331    5.1006    0.0000 H   0  0  0  0  0  0  0  0  0  0  0  0
    4.9272    5.1006    0.0000 H   0  0  0  0  0  0  0  0  0  0  0  0
    7.7288    6.6868    0.0000 H   0  0  0  0  0  0  0  0  0  0  0  0
    4.9315    6.6868    0.0000 H   0  0  0  0  0  0  0  0  0  0  0  0
    7.1946    8.3310    0.0000 H   0  0  0  0  0  0  0  0  0  0  0  0
  1 30  1  0  0  0  0
  1 31  1  0  0  0  0
  2 18  1  0  0  0  0
  2 53  1  0  0  0  0
  3 21  2  0  0  0  0
  4  7  1  0  0  0  0
  4  8  1  0  0  0  0
  4 11  1  0  0  0  0
  5  9  1  0  0  0  0
  5 10  1  0  0  0  0
  5 13  1  0  0  0  0
  6 15  1  0  0  0  0
  6 21  1  0  0  0  0
  6 50  1  0  0  0  0
  7  9  1  0  0  0  0
  7 32  1  0  0  0  0
  7 33  1  0  0  0  0
  8 10  1  0  0  0  0
  8 34  1  0  0  0  0
  8 35  1  0  0  0  0
  9 36  1  0  0  0  0
  9 37  1  0  0  0  0
 10 38  1  0  0  0  0
 10 39  1  0  0  0  0
 11 12  1  0  0  0  0
 11 40  1  0  0  0  0
 11 41  1  0  0  0  0
 12 14  1  0  0  0  0
 12 42  1  0  0  0  0
 12 43  1  0  0  0  0
 13 16  2  0  0  0  0
 13 17  1  0  0  0  0
 14 15  1  0  0  0  0
 14 44  1  0  0  0  0
 14 45  1  0  0  0  0
 15 46  1  0  0  0  0
 15 47  1  0  0  0  0
 16 18  1  0  0  0  0
 16 48  1  0  0  0  0
 17 19  2  0  0  0  0
 17 49  1  0  0  0  0
 18 20  2  0  0  0  0
 19 20  1  0  0  0  0
 19 51  1  0  0  0  0
 20 52  1  0  0  0  0
 21 22  1  0  0  0  0
 22 23  2  0  0  0  0
 22 24  1  0  0  0  0
 23 26  1  0  0  0  0
 23 54  1  0  0  0  0
 24 27  2  0  0  0  0
 24 55  1  0  0  0  0
 25 26  2  0  0  0  0
 25 27  1  0  0  0  0
 25 28  1  0  0  0  0
 26 56  1  0  0  0  0
 27 57  1  0  0  0  0
 28 29  1  0  0  0  0
 28 30  2  0  0  0  0
 29 31  2  0  0  0  0
 29 58  1  0  0  0  0
 30 59  1  0  0  0  0
 31 60  1  0  0  0  0
M  END
> <PUBCHEM_COMPOUND_CID>
155565438

> <PUBCHEM_COMPOUND_CANONICALIZED>
1

> <PUBCHEM_CACTVS_COMPLEXITY>
547

> <PUBCHEM_CACTVS_HBOND_ACCEPTOR>
5

> <PUBCHEM_CACTVS_HBOND_DONOR>
2

> <PUBCHEM_CACTVS_ROTATABLE_BOND>
8

> <PUBCHEM_CACTVS_SUBSKEYS>
AAADceB7MABAAAAAAAAAAAAAAAAAASAAAAA8YIAAAAAAAAAB0AAAHgQQCAAADAzF2ASwx4PAAgiMAiVSUACDAIAlKhBIiJkObMgIZjLilZOUcQhm1hno2YeY2MOOwAAAAgAAAACAAAAEAAAAAAAAAAAAAA==

> <PUBCHEM_IUPAC_OPENEYE_NAME>
N-[4-[4-(3-hydroxyphenyl)piperazin-1-yl]butyl]-4-(3-thienyl)benzamide

> <PUBCHEM_IUPAC_CAS_NAME>
N-[4-[4-(3-hydroxyphenyl)-1-piperazinyl]butyl]-4-(3-thiophenyl)benzamide

> <PUBCHEM_IUPAC_NAME_MARKUP>
<I>N</I>-[4-[4-(3-hydroxyphenyl)piperazin-1-yl]butyl]-4-thiophen-3-ylbenzamide

> <PUBCHEM_IUPAC_NAME>
N-[4-[4-(3-hydroxyphenyl)piperazin-1-yl]butyl]-4-thiophen-3-ylbenzamide

> <PUBCHEM_IUPAC_SYSTEMATIC_NAME>
N-[4-[4-(3-hydroxyphenyl)piperazin-1-yl]butyl]-4-thiophen-3-yl-benzamide

> <PUBCHEM_IUPAC_TRADITIONAL_NAME>
N-[4-[4-(3-hydroxyphenyl)piperazino]butyl]-4-(3-thienyl)benzamide

> <PUBCHEM_IUPAC_INCHI>
InChI=1S/C25H29N3O2S/c29-24-5-3-4-23(18-24)28-15-13-27(14-16-28)12-2-1-11-26-25(30)21-8-6-20(7-9-21)22-10-17-31-19-22/h3-10,17-19,29H,1-2,11-16H2,(H,26,30)

> <PUBCHEM_IUPAC_INCHIKEY>
SMNHGHQEQJKZTP-UHFFFAOYSA-N

> <PUBCHEM_XLOGP3_AA>
4.5

> <PUBCHEM_EXACT_MASS>
435.19804835

> <PUBCHEM_MOLECULAR_FORMULA>
C25H29N3O2S

> <PUBCHEM_MOLECULAR_WEIGHT>
435.6

> <PUBCHEM_OPENEYE_CAN_SMILES>
C1CN(CCN1CCCCNC(=O)C2=CC=C(C=C2)C3=CSC=C3)C4=CC(=CC=C4)O

> <PUBCHEM_OPENEYE_ISO_SMILES>
C1CN(CCN1CCCCNC(=O)C2=CC=C(C=C2)C3=CSC=C3)C4=CC(=CC=C4)O

> <PUBCHEM_CACTVS_TPSA>
84

> <PUBCHEM_MONOISOTOPIC_WEIGHT>
435.19804835

> <PUBCHEM_TOTAL_CHARGE>
0

> <PUBCHEM_HEAVY_ATOM_COUNT>
31

> <PUBCHEM_ATOM_DEF_STEREO_COUNT>
0

> <PUBCHEM_ATOM_UDEF_STEREO_COUNT>
0

> <PUBCHEM_BOND_DEF_STEREO_COUNT>
0

> <PUBCHEM_BOND_UDEF_STEREO_COUNT>
0

> <PUBCHEM_ISOTOPIC_ATOM_COUNT>
0

> <PUBCHEM_COMPONENT_COUNT>
1

> <PUBCHEM_CACTVS_TAUTO_COUNT>
-1

> <PUBCHEM_COORDINATE_TYPE>
1
5
255

> <PUBCHEM_BONDANNOTATIONS>
1  30  8
1  31  8
13  16  8
13  17  8
16  18  8
17  19  8
18  20  8
19  20  8
22  23  8
22  24  8
23  26  8
24  27  8
25  26  8
25  27  8
28  29  8
28  30  8
29  31  8

$$$$
