21555004
  -OEChem-09292322482D

 47 50  0     1  0  0  0  0  0999 V2000
    7.6602    2.2714    0.0000 N   0  0  3  0  0  0  0  0  0  0  0  0
    4.8444   -0.3644    0.0000 N   0  0  0  0  0  0  0  0  0  0  0  0
    4.9544    1.2866    0.0000 C   0  0  3  0  0  0  0  0  0  0  0  0
    5.4544    0.4206    0.0000 C   0  0  0  0  0  0  0  0  0  0  0  0
    5.1281    2.2714    0.0000 C   0  0  0  0  0  0  0  0  0  0  0  0
    6.3941    0.0785    0.0000 C   0  0  0  0  0  0  0  0  0  0  0  0
    5.8941    2.9142    0.0000 C   0  0  0  0  0  0  0  0  0  0  0  0
    7.3338    0.4206    0.0000 C   0  0  0  0  0  0  0  0  0  0  0  0
    6.8941    2.9142    0.0000 C   0  0  0  0  0  0  0  0  0  0  0  0
    7.8338    1.2866    0.0000 C   0  0  0  0  0  0  0  0  0  0  0  0
    6.3568   -0.9148    0.0000 C   0  0  0  0  0  0  0  0  0  0  0  0
    3.9696    1.1129    0.0000 C   0  0  0  0  0  0  0  0  0  0  0  0
    5.4010   -1.1880    0.0000 C   0  0  0  0  0  0  0  0  0  0  0  0
    7.1121   -1.6232    0.0000 C   0  0  0  0  0  0  0  0  0  0  0  0
    8.5262    2.7714    0.0000 C   0  0  0  0  0  0  0  0  0  0  0  0
    5.1342   -2.1885    0.0000 C   0  0  0  0  0  0  0  0  0  0  0  0
    3.6276    0.1732    0.0000 C   0  0  0  0  0  0  0  0  0  0  0  0
    3.3268    1.8790    0.0000 C   0  0  0  0  0  0  0  0  0  0  0  0
    6.8685   -2.6296    0.0000 C   0  0  0  0  0  0  0  0  0  0  0  0
    5.8729   -2.9142    0.0000 C   0  0  0  0  0  0  0  0  0  0  0  0
    2.6428   -0.0004    0.0000 C   0  0  0  0  0  0  0  0  0  0  0  0
    2.3420    1.7053    0.0000 C   0  0  0  0  0  0  0  0  0  0  0  0
    2.0000    0.7656    0.0000 C   0  0  0  0  0  0  0  0  0  0  0  0
    4.5160    1.7250    0.0000 H   0  0  0  0  0  0  0  0  0  0  0  0
    4.8825    2.8407    0.0000 H   0  0  0  0  0  0  0  0  0  0  0  0
    4.5123    2.1994    0.0000 H   0  0  0  0  0  0  0  0  0  0  0  0
    6.0719    3.5081    0.0000 H   0  0  0  0  0  0  0  0  0  0  0  0
    5.3761    3.2549    0.0000 H   0  0  0  0  0  0  0  0  0  0  0  0
    7.3699   -0.1984    0.0000 H   0  0  0  0  0  0  0  0  0  0  0  0
    7.9371    0.2776    0.0000 H   0  0  0  0  0  0  0  0  0  0  0  0
    7.4121    3.2549    0.0000 H   0  0  0  0  0  0  0  0  0  0  0  0
    6.7163    3.5081    0.0000 H   0  0  0  0  0  0  0  0  0  0  0  0
    8.2593    0.8356    0.0000 H   0  0  0  0  0  0  0  0  0  0  0  0
    8.3879    1.5648    0.0000 H   0  0  0  0  0  0  0  0  0  0  0  0
    4.2248   -0.3438    0.0000 H   0  0  0  0  0  0  0  0  0  0  0  0
    7.7062   -1.4460    0.0000 H   0  0  0  0  0  0  0  0  0  0  0  0
    8.8362    2.2344    0.0000 H   0  0  0  0  0  0  0  0  0  0  0  0
    9.0631    3.0814    0.0000 H   0  0  0  0  0  0  0  0  0  0  0  0
    8.2162    3.3083    0.0000 H   0  0  0  0  0  0  0  0  0  0  0  0
    4.5362   -2.3520    0.0000 H   0  0  0  0  0  0  0  0  0  0  0  0
    4.0261   -0.3017    0.0000 H   0  0  0  0  0  0  0  0  0  0  0  0
    3.5389    2.4616    0.0000 H   0  0  0  0  0  0  0  0  0  0  0  0
    7.3157   -3.0590    0.0000 H   0  0  0  0  0  0  0  0  0  0  0  0
    5.7200   -3.5150    0.0000 H   0  0  0  0  0  0  0  0  0  0  0  0
    2.4307   -0.5830    0.0000 H   0  0  0  0  0  0  0  0  0  0  0  0
    1.9435    2.1803    0.0000 H   0  0  0  0  0  0  0  0  0  0  0  0
    1.3894    0.6580    0.0000 H   0  0  0  0  0  0  0  0  0  0  0  0
  1  9  1  0  0  0  0
  1 10  1  0  0  0  0
  1 15  1  0  0  0  0
  2  4  1  0  0  0  0
  2 13  1  0  0  0  0
  2 35  1  0  0  0  0
  3  4  1  0  0  0  0
  3  5  1  0  0  0  0
  3 12  1  0  0  0  0
  3 24  1  0  0  0  0
  4  6  2  0  0  0  0
  5  7  1  0  0  0  0
  5 25  1  0  0  0  0
  5 26  1  0  0  0  0
  6  8  1  0  0  0  0
  6 11  1  0  0  0  0
  7  9  1  0  0  0  0
  7 27  1  0  0  0  0
  7 28  1  0  0  0  0
  8 10  1  0  0  0  0
  8 29  1  0  0  0  0
  8 30  1  0  0  0  0
  9 31  1  0  0  0  0
  9 32  1  0  0  0  0
 10 33  1  0  0  0  0
 10 34  1  0  0  0  0
 11 13  1  0  0  0  0
 11 14  2  0  0  0  0
 12 17  2  0  0  0  0
 12 18  1  0  0  0  0
 13 16  2  0  0  0  0
 14 19  1  0  0  0  0
 14 36  1  0  0  0  0
 15 37  1  0  0  0  0
 15 38  1  0  0  0  0
 15 39  1  0  0  0  0
 16 20  1  0  0  0  0
 16 40  1  0  0  0  0
 17 21  1  0  0  0  0
 17 41  1  0  0  0  0
 18 22  2  0  0  0  0
 18 42  1  0  0  0  0
 19 20  2  0  0  0  0
 19 43  1  0  0  0  0
 20 44  1  0  0  0  0
 21 23  2  0  0  0  0
 21 45  1  0  0  0  0
 22 23  1  0  0  0  0
 22 46  1  0  0  0  0
 23 47  1  0  0  0  0
M  END
> <PUBCHEM_COMPOUND_CID>
21555004

> <PUBCHEM_COMPOUND_CANONICALIZED>
1

> <PUBCHEM_CACTVS_COMPLEXITY>
376

> <PUBCHEM_CACTVS_HBOND_ACCEPTOR>
1

> <PUBCHEM_CACTVS_HBOND_DONOR>
1

> <PUBCHEM_CACTVS_ROTATABLE_BOND>
1

> <PUBCHEM_CACTVS_SUBSKEYS>
AAADceB7AAAAAAAAAAAAAAAAAAAAAWAAAAAwYAAAAAAAAFgB9AAAHAAQAAAADQjBHgQywPPJkACgAyRiRACCgCAhAiAImSA4ZJgIIOLAkZGEIAhgkADIyAcQgMAOgAAAAAACAAAAAAAAAAQAAAAAAAAAAA==

> <PUBCHEM_IUPAC_OPENEYE_NAME>
3-methyl-7-phenyl-2,4,5,6,7,8-hexahydro-1H-azonino[5,4-b]indole

> <PUBCHEM_IUPAC_CAS_NAME>
3-methyl-7-phenyl-2,4,5,6,7,8-hexahydro-1H-azonino[5,4-b]indole

> <PUBCHEM_IUPAC_NAME_MARKUP>
3-methyl-7-phenyl-2,4,5,6,7,8-hexahydro-1<I>H</I>-azonino[5,4-b]indole

> <PUBCHEM_IUPAC_NAME>
3-methyl-7-phenyl-2,4,5,6,7,8-hexahydro-1H-azonino[5,4-b]indole

> <PUBCHEM_IUPAC_SYSTEMATIC_NAME>
3-methyl-7-phenyl-2,4,5,6,7,8-hexahydro-1H-azonino[5,4-b]indole

> <PUBCHEM_IUPAC_TRADITIONAL_NAME>
3-methyl-7-phenyl-2,4,5,6,7,8-hexahydro-1H-azonin[5,4-b]indole

> <PUBCHEM_IUPAC_INCHI>
InChI=1S/C21H24N2/c1-23-14-7-11-17(16-8-3-2-4-9-16)21-19(13-15-23)18-10-5-6-12-20(18)22-21/h2-6,8-10,12,17,22H,7,11,13-15H2,1H3

> <PUBCHEM_IUPAC_INCHIKEY>
AEHACZVHKAVVDK-UHFFFAOYSA-N

> <PUBCHEM_XLOGP3_AA>
4.6

> <PUBCHEM_EXACT_MASS>
304.193948774

> <PUBCHEM_MOLECULAR_FORMULA>
C21H24N2

> <PUBCHEM_MOLECULAR_WEIGHT>
304.4

> <PUBCHEM_OPENEYE_CAN_SMILES>
CN1CCCC(C2=C(CC1)C3=CC=CC=C3N2)C4=CC=CC=C4

> <PUBCHEM_OPENEYE_ISO_SMILES>
CN1CCCC(C2=C(CC1)C3=CC=CC=C3N2)C4=CC=CC=C4

> <PUBCHEM_CACTVS_TPSA>
19

> <PUBCHEM_MONOISOTOPIC_WEIGHT>
304.193948774

> <PUBCHEM_TOTAL_CHARGE>
0

> <PUBCHEM_HEAVY_ATOM_COUNT>
23

> <PUBCHEM_ATOM_DEF_STEREO_COUNT>
0

> <PUBCHEM_ATOM_UDEF_STEREO_COUNT>
1

> <PUBCHEM_BOND_DEF_STEREO_COUNT>
0

> <PUBCHEM_BOND_UDEF_STEREO_COUNT>
0

> <PUBCHEM_ISOTOPIC_ATOM_COUNT>
0

> <PUBCHEM_COMPONENT_COUNT>
1

> <PUBCHEM_CACTVS_TAUTO_COUNT>
-1

> <PUBCHEM_COORDINATE_TYPE>
1
5
255

> <PUBCHEM_BONDANNOTATIONS>
11  13  8
11  14  8
12  17  8
12  18  8
13  16  8
14  19  8
16  20  8
17  21  8
18  22  8
19  20  8
2  13  8
2  4  8
21  23  8
22  23  8
3  12  3
4  6  8
6  11  8

$$$$
