44370032
  -OEChem-09292322222D

 48 51  0     1  0  0  0  0  0999 V2000
    7.7619    0.2640    0.0000 N   0  0  3  0  0  0  0  0  0  0  0  0
    4.6783   -1.4067    0.0000 N   0  0  0  0  0  0  0  0  0  0  0  0
    2.8660   -1.6020    0.0000 N   0  0  0  0  0  0  0  0  0  0  0  0
    8.2619   -0.6020    0.0000 C   0  0  0  0  0  0  0  0  0  0  0  0
    6.7619    0.2640    0.0000 C   0  0  0  0  0  0  0  0  0  0  0  0
    8.2619    1.1300    0.0000 C   0  0  0  0  0  0  0  0  0  0  0  0
    9.2619   -0.6020    0.0000 C   0  0  0  0  0  0  0  0  0  0  0  0
    6.2619   -0.6020    0.0000 C   0  0  0  0  0  0  0  0  0  0  0  0
    9.7619    0.2640    0.0000 C   0  0  0  0  0  0  0  0  0  0  0  0
    9.2619    1.1300    0.0000 C   0  0  0  0  0  0  0  0  0  0  0  0
    5.2619   -0.6020    0.0000 C   0  0  0  0  0  0  0  0  0  0  0  0
    4.6783    0.2027    0.0000 C   0  0  0  0  0  0  0  0  0  0  0  0
   10.7619    0.2640    0.0000 C   0  0  0  0  0  0  0  0  0  0  0  0
    3.7320   -0.1020    0.0000 C   0  0  0  0  0  0  0  0  0  0  0  0
    3.7320   -1.1020    0.0000 C   0  0  0  0  0  0  0  0  0  0  0  0
   11.2619    1.1300    0.0000 C   0  0  0  0  0  0  0  0  0  0  0  0
    2.8660    0.3980    0.0000 C   0  0  0  0  0  0  0  0  0  0  0  0
   12.2619    1.1300    0.0000 C   0  0  0  0  0  0  0  0  0  0  0  0
    2.0000   -0.1020    0.0000 C   0  0  0  0  0  0  0  0  0  0  0  0
    2.0000   -1.1020    0.0000 C   0  0  0  0  0  0  0  0  0  0  0  0
   12.7619    0.2640    0.0000 C   0  0  0  0  0  0  0  0  0  0  0  0
   12.7619    1.9961    0.0000 C   0  0  0  0  0  0  0  0  0  0  0  0
   13.7619    0.2640    0.0000 C   0  0  0  0  0  0  0  0  0  0  0  0
   13.7619    1.9961    0.0000 C   0  0  0  0  0  0  0  0  0  0  0  0
   14.2619    1.1300    0.0000 C   0  0  0  0  0  0  0  0  0  0  0  0
    7.6793   -0.8141    0.0000 H   0  0  0  0  0  0  0  0  0  0  0  0
    8.3695   -1.2126    0.0000 H   0  0  0  0  0  0  0  0  0  0  0  0
    6.8695    0.8746    0.0000 H   0  0  0  0  0  0  0  0  0  0  0  0
    6.1793    0.4761    0.0000 H   0  0  0  0  0  0  0  0  0  0  0  0
    8.3695    1.7406    0.0000 H   0  0  0  0  0  0  0  0  0  0  0  0
    7.6793    1.3421    0.0000 H   0  0  0  0  0  0  0  0  0  0  0  0
    9.1542   -1.2126    0.0000 H   0  0  0  0  0  0  0  0  0  0  0  0
    9.8445   -0.8141    0.0000 H   0  0  0  0  0  0  0  0  0  0  0  0
    6.1542   -1.2126    0.0000 H   0  0  0  0  0  0  0  0  0  0  0  0
    6.8445   -0.8141    0.0000 H   0  0  0  0  0  0  0  0  0  0  0  0
    9.5719    1.6670    0.0000 H   0  0  0  0  0  0  0  0  0  0  0  0
    4.8709    0.7920    0.0000 H   0  0  0  0  0  0  0  0  0  0  0  0
    4.8709   -1.9961    0.0000 H   0  0  0  0  0  0  0  0  0  0  0  0
   11.0719   -0.2729    0.0000 H   0  0  0  0  0  0  0  0  0  0  0  0
   10.9519    1.6670    0.0000 H   0  0  0  0  0  0  0  0  0  0  0  0
    2.8660    1.0180    0.0000 H   0  0  0  0  0  0  0  0  0  0  0  0
    1.4631    0.2080    0.0000 H   0  0  0  0  0  0  0  0  0  0  0  0
    1.4631   -1.4120    0.0000 H   0  0  0  0  0  0  0  0  0  0  0  0
   12.4519   -0.2729    0.0000 H   0  0  0  0  0  0  0  0  0  0  0  0
   12.4519    2.5330    0.0000 H   0  0  0  0  0  0  0  0  0  0  0  0
   14.0719   -0.2729    0.0000 H   0  0  0  0  0  0  0  0  0  0  0  0
   14.0719    2.5330    0.0000 H   0  0  0  0  0  0  0  0  0  0  0  0
   14.8819    1.1300    0.0000 H   0  0  0  0  0  0  0  0  0  0  0  0
  1  4  1  0  0  0  0
  1  5  1  0  0  0  0
  1  6  1  0  0  0  0
  2 11  1  0  0  0  0
  2 15  1  0  0  0  0
  2 38  1  0  0  0  0
  3 15  1  0  0  0  0
  3 20  2  0  0  0  0
  4  7  1  0  0  0  0
  4 26  1  0  0  0  0
  4 27  1  0  0  0  0
  5  8  1  0  0  0  0
  5 28  1  0  0  0  0
  5 29  1  0  0  0  0
  6 10  1  0  0  0  0
  6 30  1  0  0  0  0
  6 31  1  0  0  0  0
  7  9  1  0  0  0  0
  7 32  1  0  0  0  0
  7 33  1  0  0  0  0
  8 11  1  0  0  0  0
  8 34  1  0  0  0  0
  8 35  1  0  0  0  0
  9 10  2  0  0  0  0
  9 13  1  0  0  0  0
 10 36  1  0  0  0  0
 11 12  2  0  0  0  0
 12 14  1  0  0  0  0
 12 37  1  0  0  0  0
 13 16  2  0  0  0  0
 13 39  1  0  0  0  0
 14 15  2  0  0  0  0
 14 17  1  0  0  0  0
 16 18  1  0  0  0  0
 16 40  1  0  0  0  0
 17 19  2  0  0  0  0
 17 41  1  0  0  0  0
 18 21  2  0  0  0  0
 18 22  1  0  0  0  0
 19 20  1  0  0  0  0
 19 42  1  0  0  0  0
 20 43  1  0  0  0  0
 21 23  1  0  0  0  0
 21 44  1  0  0  0  0
 22 24  2  0  0  0  0
 22 45  1  0  0  0  0
 23 25  2  0  0  0  0
 23 46  1  0  0  0  0
 24 25  1  0  0  0  0
 24 47  1  0  0  0  0
 25 48  1  0  0  0  0
M  END
> <PUBCHEM_COMPOUND_CID>
44370032

> <PUBCHEM_COMPOUND_CANONICALIZED>
1

> <PUBCHEM_CACTVS_COMPLEXITY>
478

> <PUBCHEM_CACTVS_HBOND_ACCEPTOR>
2

> <PUBCHEM_CACTVS_HBOND_DONOR>
1

> <PUBCHEM_CACTVS_ROTATABLE_BOND>
5

> <PUBCHEM_CACTVS_SUBSKEYS>
AAADceB7AAAAAAAAAAAAAAAAAAAAAWAAAAA8QIAAAAAAAFgB/AAAHAAQAAAADAjBHwQ9sN/JkACgAzZnZACCgCmxAqAJ2SA4ZJiIKOLA2ZGEIAhokALIyCcQgIAOAAAAAAAAAAAAAAAAAAAAAAAAAAAAAA==

> <PUBCHEM_IUPAC_OPENEYE_NAME>
2-[2-[4-[(E)-styryl]-3,6-dihydro-2H-pyridin-1-yl]ethyl]-1H-pyrrolo[2,3-b]pyridine

> <PUBCHEM_IUPAC_CAS_NAME>
2-[2-[4-[(E)-2-phenylethenyl]-3,6-dihydro-2H-pyridin-1-yl]ethyl]-1H-pyrrolo[2,3-b]pyridine

> <PUBCHEM_IUPAC_NAME_MARKUP>
2-[2-[4-[(<I>E</I>)-2-phenylethenyl]-3,6-dihydro-2<I>H</I>-pyridin-1-yl]ethyl]-1<I>H</I>-pyrrolo[2,3-b]pyridine

> <PUBCHEM_IUPAC_NAME>
2-[2-[4-[(E)-2-phenylethenyl]-3,6-dihydro-2H-pyridin-1-yl]ethyl]-1H-pyrrolo[2,3-b]pyridine

> <PUBCHEM_IUPAC_SYSTEMATIC_NAME>
2-[2-[4-[(E)-2-phenylethenyl]-3,6-dihydro-2H-pyridin-1-yl]ethyl]-1H-pyrrolo[2,3-b]pyridine

> <PUBCHEM_IUPAC_TRADITIONAL_NAME>
2-[2-[4-[(E)-styryl]-3,6-dihydro-2H-pyridin-1-yl]ethyl]-1H-pyrrolo[2,3-b]pyridine

> <PUBCHEM_IUPAC_INCHI>
InChI=1S/C22H23N3/c1-2-5-18(6-3-1)8-9-19-10-14-25(15-11-19)16-12-21-17-20-7-4-13-23-22(20)24-21/h1-10,13,17H,11-12,14-16H2,(H,23,24)/b9-8+

> <PUBCHEM_IUPAC_INCHIKEY>
ZCOIFCGQTTYDFL-CMDGGOBGSA-N

> <PUBCHEM_XLOGP3_AA>
4.2

> <PUBCHEM_EXACT_MASS>
329.189197746

> <PUBCHEM_MOLECULAR_FORMULA>
C22H23N3

> <PUBCHEM_MOLECULAR_WEIGHT>
329.4

> <PUBCHEM_OPENEYE_CAN_SMILES>
C1CN(CC=C1C=CC2=CC=CC=C2)CCC3=CC4=C(N3)N=CC=C4

> <PUBCHEM_OPENEYE_ISO_SMILES>
C1CN(CC=C1/C=C/C2=CC=CC=C2)CCC3=CC4=C(N3)N=CC=C4

> <PUBCHEM_CACTVS_TPSA>
31.9

> <PUBCHEM_MONOISOTOPIC_WEIGHT>
329.189197746

> <PUBCHEM_TOTAL_CHARGE>
0

> <PUBCHEM_HEAVY_ATOM_COUNT>
25

> <PUBCHEM_ATOM_DEF_STEREO_COUNT>
0

> <PUBCHEM_ATOM_UDEF_STEREO_COUNT>
0

> <PUBCHEM_BOND_DEF_STEREO_COUNT>
1

> <PUBCHEM_BOND_UDEF_STEREO_COUNT>
0

> <PUBCHEM_ISOTOPIC_ATOM_COUNT>
0

> <PUBCHEM_COMPONENT_COUNT>
1

> <PUBCHEM_CACTVS_TAUTO_COUNT>
-1

> <PUBCHEM_COORDINATE_TYPE>
1
5
255

> <PUBCHEM_BONDANNOTATIONS>
11  12  8
12  14  8
14  15  8
14  17  8
17  19  8
18  21  8
18  22  8
19  20  8
2  11  8
2  15  8
21  23  8
22  24  8
23  25  8
24  25  8
3  15  8
3  20  8

$$$$
