155553370
  -OEChem-09292322462D

 51 53  0     1  0  0  0  0  0999 V2000
    7.1962   -1.9759    0.0000 O   0  0  0  0  0  0  0  0  0  0  0  0
    3.7320   -1.9759    0.0000 N   0  0  0  0  0  0  0  0  0  0  0  0
   11.0511    0.7793    0.0000 N   0  0  0  0  0  0  0  0  0  0  0  0
   10.7404   -0.1712    0.0000 C   0  0  3  0  0  0  0  0  0  0  0  0
   11.3241   -0.9759    0.0000 C   0  0  0  0  0  0  0  0  0  0  0  0
    2.8660   -1.4759    0.0000 C   0  0  0  0  0  0  0  0  0  0  0  0
    3.7320   -2.9759    0.0000 C   0  0  0  0  0  0  0  0  0  0  0  0
    2.0000   -1.9759    0.0000 C   0  0  0  0  0  0  0  0  0  0  0  0
    2.8660   -3.4759    0.0000 C   0  0  0  0  0  0  0  0  0  0  0  0
    2.0000   -2.9759    0.0000 C   0  0  0  0  0  0  0  0  0  0  0  0
   10.7404   -1.7806    0.0000 C   0  0  0  0  0  0  0  0  0  0  0  0
    9.7942   -0.4759    0.0000 C   0  0  0  0  0  0  0  0  0  0  0  0
    9.7942   -1.4759    0.0000 C   0  0  0  0  0  0  0  0  0  0  0  0
    4.5981   -1.4759    0.0000 C   0  0  0  0  0  0  0  0  0  0  0  0
    5.4641   -1.9759    0.0000 C   0  0  0  0  0  0  0  0  0  0  0  0
    8.9282   -1.9759    0.0000 C   0  0  0  0  0  0  0  0  0  0  0  0
    8.9282    0.0241    0.0000 C   0  0  0  0  0  0  0  0  0  0  0  0
    6.3301   -1.4759    0.0000 C   0  0  0  0  0  0  0  0  0  0  0  0
    8.0622   -1.4759    0.0000 C   0  0  0  0  0  0  0  0  0  0  0  0
    8.0622   -0.4759    0.0000 C   0  0  0  0  0  0  0  0  0  0  0  0
   12.0296    0.9856    0.0000 C   0  0  0  0  0  0  0  0  0  0  0  0
   12.3403    1.9361    0.0000 C   0  0  0  0  0  0  0  0  0  0  0  0
   12.6509    2.8866    0.0000 C   0  0  0  0  0  0  0  0  0  0  0  0
   10.3030    0.2682    0.0000 H   0  0  0  0  0  0  0  0  0  0  0  0
   11.7849   -1.3906    0.0000 H   0  0  0  0  0  0  0  0  0  0  0  0
   11.7849   -0.5612    0.0000 H   0  0  0  0  0  0  0  0  0  0  0  0
    3.2646   -1.0010    0.0000 H   0  0  0  0  0  0  0  0  0  0  0  0
    2.4675   -1.0010    0.0000 H   0  0  0  0  0  0  0  0  0  0  0  0
    3.9441   -3.5585    0.0000 H   0  0  0  0  0  0  0  0  0  0  0  0
    4.3426   -2.8683    0.0000 H   0  0  0  0  0  0  0  0  0  0  0  0
    1.7880   -1.3933    0.0000 H   0  0  0  0  0  0  0  0  0  0  0  0
    1.3894   -2.0836    0.0000 H   0  0  0  0  0  0  0  0  0  0  0  0
    2.4675   -3.9509    0.0000 H   0  0  0  0  0  0  0  0  0  0  0  0
    3.2646   -3.9509    0.0000 H   0  0  0  0  0  0  0  0  0  0  0  0
    1.3894   -2.8683    0.0000 H   0  0  0  0  0  0  0  0  0  0  0  0
    1.7880   -3.5585    0.0000 H   0  0  0  0  0  0  0  0  0  0  0  0
   10.4894   -2.3476    0.0000 H   0  0  0  0  0  0  0  0  0  0  0  0
   11.2778   -2.0899    0.0000 H   0  0  0  0  0  0  0  0  0  0  0  0
    4.9966   -1.0010    0.0000 H   0  0  0  0  0  0  0  0  0  0  0  0
    4.1996   -1.0010    0.0000 H   0  0  0  0  0  0  0  0  0  0  0  0
    5.0656   -2.4509    0.0000 H   0  0  0  0  0  0  0  0  0  0  0  0
    5.8626   -2.4509    0.0000 H   0  0  0  0  0  0  0  0  0  0  0  0
   10.6370    1.2408    0.0000 H   0  0  0  0  0  0  0  0  0  0  0  0
    8.9282   -2.5959    0.0000 H   0  0  0  0  0  0  0  0  0  0  0  0
    8.9282    0.6441    0.0000 H   0  0  0  0  0  0  0  0  0  0  0  0
    6.7287   -1.0010    0.0000 H   0  0  0  0  0  0  0  0  0  0  0  0
    5.9316   -1.0010    0.0000 H   0  0  0  0  0  0  0  0  0  0  0  0
    7.5252   -0.1659    0.0000 H   0  0  0  0  0  0  0  0  0  0  0  0
   12.0502    0.3659    0.0000 H   0  0  0  0  0  0  0  0  0  0  0  0
   12.6434    0.8982    0.0000 H   0  0  0  0  0  0  0  0  0  0  0  0
   12.8436    3.4759    0.0000 H   0  0  0  0  0  0  0  0  0  0  0  0
  1 18  1  0  0  0  0
  1 19  1  0  0  0  0
  2  6  1  0  0  0  0
  2  7  1  0  0  0  0
  2 14  1  0  0  0  0
  3  4  1  0  0  0  0
  3 21  1  0  0  0  0
  3 43  1  0  0  0  0
  4  5  1  0  0  0  0
  4 12  1  0  0  0  0
  4 24  1  0  0  0  0
  5 11  1  0  0  0  0
  5 25  1  0  0  0  0
  5 26  1  0  0  0  0
  6  8  1  0  0  0  0
  6 27  1  0  0  0  0
  6 28  1  0  0  0  0
  7  9  1  0  0  0  0
  7 29  1  0  0  0  0
  7 30  1  0  0  0  0
  8 10  1  0  0  0  0
  8 31  1  0  0  0  0
  8 32  1  0  0  0  0
  9 10  1  0  0  0  0
  9 33  1  0  0  0  0
  9 34  1  0  0  0  0
 10 35  1  0  0  0  0
 10 36  1  0  0  0  0
 11 13  1  0  0  0  0
 11 37  1  0  0  0  0
 11 38  1  0  0  0  0
 12 13  2  0  0  0  0
 12 17  1  0  0  0  0
 13 16  1  0  0  0  0
 14 15  1  0  0  0  0
 14 39  1  0  0  0  0
 14 40  1  0  0  0  0
 15 18  1  0  0  0  0
 15 41  1  0  0  0  0
 15 42  1  0  0  0  0
 16 19  2  0  0  0  0
 16 44  1  0  0  0  0
 17 20  2  0  0  0  0
 17 45  1  0  0  0  0
 18 46  1  0  0  0  0
 18 47  1  0  0  0  0
 19 20  1  0  0  0  0
 20 48  1  0  0  0  0
 21 22  1  0  0  0  0
 21 49  1  0  0  0  0
 21 50  1  0  0  0  0
 22 23  3  0  0  0  0
 23 51  1  0  0  0  0
M  END
> <PUBCHEM_COMPOUND_CID>
155553370

> <PUBCHEM_COMPOUND_CANONICALIZED>
1

> <PUBCHEM_CACTVS_COMPLEXITY>
396

> <PUBCHEM_CACTVS_HBOND_ACCEPTOR>
3

> <PUBCHEM_CACTVS_HBOND_DONOR>
1

> <PUBCHEM_CACTVS_ROTATABLE_BOND>
7

> <PUBCHEM_CACTVS_SUBSKEYS>
AAADceB7IAAAAAAAAAAAAAAAAAAAAYAAAAA8QAAAAAAAAGABAAAAHgAQAAAADCzhmAYwBoPABADAGiBCAACCCAAgIAAIiIAODIgMJiKEsRuGOCjm0BGIqAeQ0LMOoAABAAAQAABAAAIAACAAACAACQAAAA==

> <PUBCHEM_IUPAC_OPENEYE_NAME>
5-[3-(1-piperidyl)propoxy]-N-prop-2-ynyl-indan-1-amine

> <PUBCHEM_IUPAC_CAS_NAME>
5-[3-(1-piperidinyl)propoxy]-N-prop-2-ynyl-2,3-dihydro-1H-inden-1-amine

> <PUBCHEM_IUPAC_NAME_MARKUP>
5-(3-piperidin-1-ylpropoxy)-<I>N</I>-prop-2-ynyl-2,3-dihydro-1<I>H</I>-inden-1-amine

> <PUBCHEM_IUPAC_NAME>
5-(3-piperidin-1-ylpropoxy)-N-prop-2-ynyl-2,3-dihydro-1H-inden-1-amine

> <PUBCHEM_IUPAC_SYSTEMATIC_NAME>
5-(3-piperidin-1-ylpropoxy)-N-prop-2-ynyl-2,3-dihydro-1H-inden-1-amine

> <PUBCHEM_IUPAC_TRADITIONAL_NAME>
[5-(3-piperidinopropoxy)indan-1-yl]-propargyl-amine

> <PUBCHEM_IUPAC_INCHI>
InChI=1S/C20H28N2O/c1-2-11-21-20-10-7-17-16-18(8-9-19(17)20)23-15-6-14-22-12-4-3-5-13-22/h1,8-9,16,20-21H,3-7,10-15H2

> <PUBCHEM_IUPAC_INCHIKEY>
RXNWZWWEYCPZCV-UHFFFAOYSA-N

> <PUBCHEM_XLOGP3_AA>
3

> <PUBCHEM_EXACT_MASS>
312.220163521

> <PUBCHEM_MOLECULAR_FORMULA>
C20H28N2O

> <PUBCHEM_MOLECULAR_WEIGHT>
312.4

> <PUBCHEM_OPENEYE_CAN_SMILES>
C#CCNC1CCC2=C1C=CC(=C2)OCCCN3CCCCC3

> <PUBCHEM_OPENEYE_ISO_SMILES>
C#CCNC1CCC2=C1C=CC(=C2)OCCCN3CCCCC3

> <PUBCHEM_CACTVS_TPSA>
24.5

> <PUBCHEM_MONOISOTOPIC_WEIGHT>
312.220163521

> <PUBCHEM_TOTAL_CHARGE>
0

> <PUBCHEM_HEAVY_ATOM_COUNT>
23

> <PUBCHEM_ATOM_DEF_STEREO_COUNT>
0

> <PUBCHEM_ATOM_UDEF_STEREO_COUNT>
1

> <PUBCHEM_BOND_DEF_STEREO_COUNT>
0

> <PUBCHEM_BOND_UDEF_STEREO_COUNT>
0

> <PUBCHEM_ISOTOPIC_ATOM_COUNT>
0

> <PUBCHEM_COMPONENT_COUNT>
1

> <PUBCHEM_CACTVS_TAUTO_COUNT>
-1

> <PUBCHEM_COORDINATE_TYPE>
1
5
255

> <PUBCHEM_BONDANNOTATIONS>
12  13  8
12  17  8
13  16  8
16  19  8
17  20  8
19  20  8
4  3  3

$$$$
