49781677
  -OEChem-09292322312D

 57 61  0     1  0  0  0  0  0999 V2000
    7.7463   -2.7541    0.0000 S   0  0  0  0  0  0  0  0  0  0  0  0
    6.8124    0.3375    0.0000 N   0  0  0  0  0  0  0  0  0  0  0  0
    5.9447    2.1394    0.0000 N   0  0  0  0  0  0  0  0  0  0  0  0
    7.2463   -0.5635    0.0000 C   0  0  3  0  0  0  0  0  0  0  0  0
    5.8152    0.4122    0.0000 C   0  0  0  0  0  0  0  0  0  0  0  0
    7.3757    1.1637    0.0000 C   0  0  0  0  0  0  0  0  0  0  0  0
    5.3813    1.3132    0.0000 C   0  0  0  0  0  0  0  0  0  0  0  0
    6.9419    2.0647    0.0000 C   0  0  0  0  0  0  0  0  0  0  0  0
    8.2463   -0.5635    0.0000 C   0  0  0  0  0  0  0  0  0  0  0  0
    6.6228   -1.3453    0.0000 C   0  0  0  0  0  0  0  0  0  0  0  0
    8.8698   -1.3453    0.0000 C   0  0  0  0  0  0  0  0  0  0  0  0
    6.8453   -2.3202    0.0000 C   0  0  0  0  0  0  0  0  0  0  0  0
    5.6323   -1.0230    0.0000 C   0  0  0  0  0  0  0  0  0  0  0  0
    5.5108    3.0404    0.0000 C   0  0  0  0  0  0  0  0  0  0  0  0
    8.6472   -2.3202    0.0000 C   0  0  0  0  0  0  0  0  0  0  0  0
    4.8633   -1.7255    0.0000 C   0  0  0  0  0  0  0  0  0  0  0  0
    6.0928   -3.0404    0.0000 C   0  0  0  0  0  0  0  0  0  0  0  0
    9.8603   -1.0230    0.0000 C   0  0  0  0  0  0  0  0  0  0  0  0
    5.0951   -2.7410    0.0000 C   0  0  0  0  0  0  0  0  0  0  0  0
    9.3998   -3.0404    0.0000 C   0  0  0  0  0  0  0  0  0  0  0  0
    3.9088   -1.4271    0.0000 C   0  0  0  0  0  0  0  0  0  0  0  0
   10.6293   -1.7256    0.0000 C   0  0  0  0  0  0  0  0  0  0  0  0
   10.3975   -2.7411    0.0000 C   0  0  0  0  0  0  0  0  0  0  0  0
    3.6901   -0.4513    0.0000 C   0  0  0  0  0  0  0  0  0  0  0  0
    3.1732   -2.1044    0.0000 C   0  0  0  0  0  0  0  0  0  0  0  0
    2.7357   -0.1529    0.0000 C   0  0  0  0  0  0  0  0  0  0  0  0
    2.2188   -1.8060    0.0000 C   0  0  0  0  0  0  0  0  0  0  0  0
    2.0000   -0.8302    0.0000 C   0  0  0  0  0  0  0  0  0  0  0  0
    2.5169    0.8229    0.0000 C   0  0  0  0  0  0  0  0  0  0  0  0
    7.5762   -0.0385    0.0000 H   0  0  0  0  0  0  0  0  0  0  0  0
    5.2184    0.2443    0.0000 H   0  0  0  0  0  0  0  0  0  0  0  0
    5.8769   -0.2047    0.0000 H   0  0  0  0  0  0  0  0  0  0  0  0
    7.8196    0.7308    0.0000 H   0  0  0  0  0  0  0  0  0  0  0  0
    7.8791    1.5257    0.0000 H   0  0  0  0  0  0  0  0  0  0  0  0
    4.9375    1.7461    0.0000 H   0  0  0  0  0  0  0  0  0  0  0  0
    4.8779    0.9513    0.0000 H   0  0  0  0  0  0  0  0  0  0  0  0
    7.5387    2.2326    0.0000 H   0  0  0  0  0  0  0  0  0  0  0  0
    6.8801    2.6816    0.0000 H   0  0  0  0  0  0  0  0  0  0  0  0
    8.8049   -0.2945    0.0000 H   0  0  0  0  0  0  0  0  0  0  0  0
    8.1083    0.0410    0.0000 H   0  0  0  0  0  0  0  0  0  0  0  0
    5.5013   -0.4169    0.0000 H   0  0  0  0  0  0  0  0  0  0  0  0
    6.0694    3.3094    0.0000 H   0  0  0  0  0  0  0  0  0  0  0  0
    5.2418    3.5990    0.0000 H   0  0  0  0  0  0  0  0  0  0  0  0
    4.9522    2.7714    0.0000 H   0  0  0  0  0  0  0  0  0  0  0  0
    6.2377   -3.6432    0.0000 H   0  0  0  0  0  0  0  0  0  0  0  0
    9.9913   -0.4170    0.0000 H   0  0  0  0  0  0  0  0  0  0  0  0
    4.6422   -3.1645    0.0000 H   0  0  0  0  0  0  0  0  0  0  0  0
    9.2548   -3.6432    0.0000 H   0  0  0  0  0  0  0  0  0  0  0  0
   11.2210   -1.5405    0.0000 H   0  0  0  0  0  0  0  0  0  0  0  0
   10.8504   -3.1645    0.0000 H   0  0  0  0  0  0  0  0  0  0  0  0
    4.1462   -0.0314    0.0000 H   0  0  0  0  0  0  0  0  0  0  0  0
    3.3088   -2.7094    0.0000 H   0  0  0  0  0  0  0  0  0  0  0  0
    1.7626   -2.2259    0.0000 H   0  0  0  0  0  0  0  0  0  0  0  0
    1.4083   -0.6452    0.0000 H   0  0  0  0  0  0  0  0  0  0  0  0
    3.1219    0.9585    0.0000 H   0  0  0  0  0  0  0  0  0  0  0  0
    2.3813    1.4279    0.0000 H   0  0  0  0  0  0  0  0  0  0  0  0
    1.9119    0.6873    0.0000 H   0  0  0  0  0  0  0  0  0  0  0  0
  1 12  1  0  0  0  0
  1 15  1  0  0  0  0
  2  4  1  0  0  0  0
  2  5  1  0  0  0  0
  2  6  1  0  0  0  0
  3  7  1  0  0  0  0
  3  8  1  0  0  0  0
  3 14  1  0  0  0  0
  4  9  1  0  0  0  0
  4 10  1  0  0  0  0
  4 30  1  0  0  0  0
  5  7  1  0  0  0  0
  5 31  1  0  0  0  0
  5 32  1  0  0  0  0
  6  8  1  0  0  0  0
  6 33  1  0  0  0  0
  6 34  1  0  0  0  0
  7 35  1  0  0  0  0
  7 36  1  0  0  0  0
  8 37  1  0  0  0  0
  8 38  1  0  0  0  0
  9 11  1  0  0  0  0
  9 39  1  0  0  0  0
  9 40  1  0  0  0  0
 10 12  2  0  0  0  0
 10 13  1  0  0  0  0
 11 15  1  0  0  0  0
 11 18  2  0  0  0  0
 12 17  1  0  0  0  0
 13 16  2  0  0  0  0
 13 41  1  0  0  0  0
 14 42  1  0  0  0  0
 14 43  1  0  0  0  0
 14 44  1  0  0  0  0
 15 20  2  0  0  0  0
 16 19  1  0  0  0  0
 16 21  1  0  0  0  0
 17 19  2  0  0  0  0
 17 45  1  0  0  0  0
 18 22  1  0  0  0  0
 18 46  1  0  0  0  0
 19 47  1  0  0  0  0
 20 23  1  0  0  0  0
 20 48  1  0  0  0  0
 21 24  1  0  0  0  0
 21 25  2  0  0  0  0
 22 23  2  0  0  0  0
 22 49  1  0  0  0  0
 23 50  1  0  0  0  0
 24 26  2  0  0  0  0
 24 51  1  0  0  0  0
 25 27  1  0  0  0  0
 25 52  1  0  0  0  0
 26 28  1  0  0  0  0
 26 29  1  0  0  0  0
 27 28  2  0  0  0  0
 27 53  1  0  0  0  0
 28 54  1  0  0  0  0
 29 55  1  0  0  0  0
 29 56  1  0  0  0  0
 29 57  1  0  0  0  0
M  END
> <PUBCHEM_COMPOUND_CID>
49781677

> <PUBCHEM_COMPOUND_CANONICALIZED>
1

> <PUBCHEM_CACTVS_COMPLEXITY>
531

> <PUBCHEM_CACTVS_HBOND_ACCEPTOR>
3

> <PUBCHEM_CACTVS_HBOND_DONOR>
0

> <PUBCHEM_CACTVS_ROTATABLE_BOND>
2

> <PUBCHEM_CACTVS_SUBSKEYS>
AAADceB7AABAAAAAAAAAAAAAAAAAAAAAAAA8YMEABIAAAAABUAAAHAQAAAAADCjBWAQyAYMAAAiAAiBCAACCAAAgCBAIiBgIBIgIYCKgkRGUIAhggACoiAcQgMAOkAACAAAEAAAgAAQAAAgAAAAAAAAAAA==

> <PUBCHEM_IUPAC_OPENEYE_NAME>
1-methyl-4-[3-(m-tolyl)-5,6-dihydrobenzo[b][1]benzothiepin-5-yl]piperazine

> <PUBCHEM_IUPAC_CAS_NAME>
1-methyl-4-[3-(3-methylphenyl)-5,6-dihydrobenzo[b][1]benzothiepin-5-yl]piperazine

> <PUBCHEM_IUPAC_NAME_MARKUP>
1-methyl-4-[3-(3-methylphenyl)-5,6-dihydrobenzo[b][1]benzothiepin-5-yl]piperazine

> <PUBCHEM_IUPAC_NAME>
1-methyl-4-[3-(3-methylphenyl)-5,6-dihydrobenzo[b][1]benzothiepin-5-yl]piperazine

> <PUBCHEM_IUPAC_SYSTEMATIC_NAME>
1-methyl-4-[3-(3-methylphenyl)-5,6-dihydrobenzo[b][1]benzothiepin-5-yl]piperazine

> <PUBCHEM_IUPAC_TRADITIONAL_NAME>
1-methyl-4-[3-(m-tolyl)-5,6-dihydrobenzo[b][1]benzothiepin-5-yl]piperazine

> <PUBCHEM_IUPAC_INCHI>
InChI=1S/C26H28N2S/c1-19-6-5-8-20(16-19)21-10-11-26-23(17-21)24(28-14-12-27(2)13-15-28)18-22-7-3-4-9-25(22)29-26/h3-11,16-17,24H,12-15,18H2,1-2H3

> <PUBCHEM_IUPAC_INCHIKEY>
JXSJIGMUFKVXOT-UHFFFAOYSA-N

> <PUBCHEM_XLOGP3_AA>
5.7

> <PUBCHEM_EXACT_MASS>
400.19732008

> <PUBCHEM_MOLECULAR_FORMULA>
C26H28N2S

> <PUBCHEM_MOLECULAR_WEIGHT>
400.6

> <PUBCHEM_OPENEYE_CAN_SMILES>
CC1=CC(=CC=C1)C2=CC3=C(C=C2)SC4=CC=CC=C4CC3N5CCN(CC5)C

> <PUBCHEM_OPENEYE_ISO_SMILES>
CC1=CC(=CC=C1)C2=CC3=C(C=C2)SC4=CC=CC=C4CC3N5CCN(CC5)C

> <PUBCHEM_CACTVS_TPSA>
31.8

> <PUBCHEM_MONOISOTOPIC_WEIGHT>
400.19732008

> <PUBCHEM_TOTAL_CHARGE>
0

> <PUBCHEM_HEAVY_ATOM_COUNT>
29

> <PUBCHEM_ATOM_DEF_STEREO_COUNT>
0

> <PUBCHEM_ATOM_UDEF_STEREO_COUNT>
1

> <PUBCHEM_BOND_DEF_STEREO_COUNT>
0

> <PUBCHEM_BOND_UDEF_STEREO_COUNT>
0

> <PUBCHEM_ISOTOPIC_ATOM_COUNT>
0

> <PUBCHEM_COMPONENT_COUNT>
1

> <PUBCHEM_CACTVS_TAUTO_COUNT>
-1

> <PUBCHEM_COORDINATE_TYPE>
1
5
255

> <PUBCHEM_BONDANNOTATIONS>
10  12  8
10  13  8
11  15  8
11  18  8
12  17  8
13  16  8
15  20  8
16  19  8
17  19  8
18  22  8
4  2  3
20  23  8
21  24  8
21  25  8
22  23  8
24  26  8
25  27  8
26  28  8
27  28  8

$$$$
