56597091
  -OEChem-09292321592D

 52 55  0     0  0  0  0  0  0999 V2000
    4.5981    1.4470    0.0000 Cl  0  0  0  0  0  0  0  0  0  0  0  0
    2.8660    2.4470    0.0000 Cl  0  0  0  0  0  0  0  0  0  0  0  0
   10.6603   -2.0530    0.0000 O   0  0  0  0  0  0  0  0  0  0  0  0
    6.3301   -1.5530    0.0000 N   0  0  0  0  0  0  0  0  0  0  0  0
    4.5981   -0.5530    0.0000 N   0  0  0  0  0  0  0  0  0  0  0  0
   14.2045   -1.8577    0.0000 N   0  0  0  0  0  0  0  0  0  0  0  0
   14.7882   -1.0530    0.0000 N   0  0  0  0  0  0  0  0  0  0  0  0
    5.4641   -2.0530    0.0000 C   0  0  0  0  0  0  0  0  0  0  0  0
    6.3301   -0.5530    0.0000 C   0  0  0  0  0  0  0  0  0  0  0  0
    4.5981   -1.5530    0.0000 C   0  0  0  0  0  0  0  0  0  0  0  0
    5.4641   -0.0530    0.0000 C   0  0  0  0  0  0  0  0  0  0  0  0
    7.1962   -2.0530    0.0000 C   0  0  0  0  0  0  0  0  0  0  0  0
    8.0622   -1.5530    0.0000 C   0  0  0  0  0  0  0  0  0  0  0  0
    3.7320   -0.0530    0.0000 C   0  0  0  0  0  0  0  0  0  0  0  0
    8.9282   -2.0530    0.0000 C   0  0  0  0  0  0  0  0  0  0  0  0
    9.7942   -1.5530    0.0000 C   0  0  0  0  0  0  0  0  0  0  0  0
    3.7320    0.9470    0.0000 C   0  0  0  0  0  0  0  0  0  0  0  0
    2.8660   -0.5530    0.0000 C   0  0  0  0  0  0  0  0  0  0  0  0
    2.8660    1.4470    0.0000 C   0  0  0  0  0  0  0  0  0  0  0  0
    2.0000   -0.0530    0.0000 C   0  0  0  0  0  0  0  0  0  0  0  0
    2.0000    0.9470    0.0000 C   0  0  0  0  0  0  0  0  0  0  0  0
   11.5263   -1.5530    0.0000 C   0  0  0  0  0  0  0  0  0  0  0  0
   12.3923   -2.0530    0.0000 C   0  0  0  0  0  0  0  0  0  0  0  0
   13.2583   -1.5530    0.0000 C   0  0  0  0  0  0  0  0  0  0  0  0
   11.5263   -0.5530    0.0000 C   0  0  0  0  0  0  0  0  0  0  0  0
   13.2583   -0.5530    0.0000 C   0  0  0  0  0  0  0  0  0  0  0  0
   12.3923   -0.0530    0.0000 C   0  0  0  0  0  0  0  0  0  0  0  0
   14.2045   -0.2482    0.0000 C   0  0  0  0  0  0  0  0  0  0  0  0
    5.0656   -2.5279    0.0000 H   0  0  0  0  0  0  0  0  0  0  0  0
    5.8626   -2.5279    0.0000 H   0  0  0  0  0  0  0  0  0  0  0  0
    6.9407   -0.6606    0.0000 H   0  0  0  0  0  0  0  0  0  0  0  0
    6.5422    0.0296    0.0000 H   0  0  0  0  0  0  0  0  0  0  0  0
    3.9875   -1.4453    0.0000 H   0  0  0  0  0  0  0  0  0  0  0  0
    4.3860   -2.1356    0.0000 H   0  0  0  0  0  0  0  0  0  0  0  0
    5.8626    0.4220    0.0000 H   0  0  0  0  0  0  0  0  0  0  0  0
    5.0656    0.4220    0.0000 H   0  0  0  0  0  0  0  0  0  0  0  0
    6.7976   -2.5279    0.0000 H   0  0  0  0  0  0  0  0  0  0  0  0
    7.5947   -2.5279    0.0000 H   0  0  0  0  0  0  0  0  0  0  0  0
    8.4607   -1.0780    0.0000 H   0  0  0  0  0  0  0  0  0  0  0  0
    7.6636   -1.0780    0.0000 H   0  0  0  0  0  0  0  0  0  0  0  0
    8.5297   -2.5279    0.0000 H   0  0  0  0  0  0  0  0  0  0  0  0
    9.3267   -2.5279    0.0000 H   0  0  0  0  0  0  0  0  0  0  0  0
   10.1928   -1.0780    0.0000 H   0  0  0  0  0  0  0  0  0  0  0  0
    9.3957   -1.0780    0.0000 H   0  0  0  0  0  0  0  0  0  0  0  0
    2.8660   -1.1730    0.0000 H   0  0  0  0  0  0  0  0  0  0  0  0
    1.4631   -0.3630    0.0000 H   0  0  0  0  0  0  0  0  0  0  0  0
    1.4631    1.2570    0.0000 H   0  0  0  0  0  0  0  0  0  0  0  0
   12.3923   -2.6730    0.0000 H   0  0  0  0  0  0  0  0  0  0  0  0
   10.9893   -0.2430    0.0000 H   0  0  0  0  0  0  0  0  0  0  0  0
   12.3923    0.5670    0.0000 H   0  0  0  0  0  0  0  0  0  0  0  0
   14.3972   -2.4470    0.0000 H   0  0  0  0  0  0  0  0  0  0  0  0
   14.3972    0.3411    0.0000 H   0  0  0  0  0  0  0  0  0  0  0  0
  1 17  1  0  0  0  0
  2 19  1  0  0  0  0
  3 16  1  0  0  0  0
  3 22  1  0  0  0  0
  4  8  1  0  0  0  0
  4  9  1  0  0  0  0
  4 12  1  0  0  0  0
  5 10  1  0  0  0  0
  5 11  1  0  0  0  0
  5 14  1  0  0  0  0
  6  7  1  0  0  0  0
  6 24  1  0  0  0  0
  6 51  1  0  0  0  0
  7 28  2  0  0  0  0
  8 10  1  0  0  0  0
  8 29  1  0  0  0  0
  8 30  1  0  0  0  0
  9 11  1  0  0  0  0
  9 31  1  0  0  0  0
  9 32  1  0  0  0  0
 10 33  1  0  0  0  0
 10 34  1  0  0  0  0
 11 35  1  0  0  0  0
 11 36  1  0  0  0  0
 12 13  1  0  0  0  0
 12 37  1  0  0  0  0
 12 38  1  0  0  0  0
 13 15  1  0  0  0  0
 13 39  1  0  0  0  0
 13 40  1  0  0  0  0
 14 17  2  0  0  0  0
 14 18  1  0  0  0  0
 15 16  1  0  0  0  0
 15 41  1  0  0  0  0
 15 42  1  0  0  0  0
 16 43  1  0  0  0  0
 16 44  1  0  0  0  0
 17 19  1  0  0  0  0
 18 20  2  0  0  0  0
 18 45  1  0  0  0  0
 19 21  2  0  0  0  0
 20 21  1  0  0  0  0
 20 46  1  0  0  0  0
 21 47  1  0  0  0  0
 22 23  2  0  0  0  0
 22 25  1  0  0  0  0
 23 24  1  0  0  0  0
 23 48  1  0  0  0  0
 24 26  2  0  0  0  0
 25 27  2  0  0  0  0
 25 49  1  0  0  0  0
 26 27  1  0  0  0  0
 26 28  1  0  0  0  0
 27 50  1  0  0  0  0
 28 52  1  0  0  0  0
M  END
> <PUBCHEM_COMPOUND_CID>
56597091

> <PUBCHEM_COMPOUND_CANONICALIZED>
1

> <PUBCHEM_CACTVS_COMPLEXITY>
477

> <PUBCHEM_CACTVS_HBOND_ACCEPTOR>
4

> <PUBCHEM_CACTVS_HBOND_DONOR>
1

> <PUBCHEM_CACTVS_ROTATABLE_BOND>
7

> <PUBCHEM_CACTVS_SUBSKEYS>
AAADceB7oAAGAAAAAAAAAAAAAAAAAWAAAAA8YIAAAAAAAFgB9AAAHgIYAAAADA7hniY8xvNjBACiAzRnQACSDAAhpwAYu2A+bpgMZqLF89vWvCjm2BnI6Aew0AEOIAAAAgICABRAAAAEBAQAKAAAAAAAAA==

> <PUBCHEM_IUPAC_OPENEYE_NAME>
6-[4-[4-(2,3-dichlorophenyl)piperazin-1-yl]butoxy]-1H-indazole

> <PUBCHEM_IUPAC_CAS_NAME>
6-[4-[4-(2,3-dichlorophenyl)-1-piperazinyl]butoxy]-1H-indazole

> <PUBCHEM_IUPAC_NAME_MARKUP>
6-[4-[4-(2,3-dichlorophenyl)piperazin-1-yl]butoxy]-1<I>H</I>-indazole

> <PUBCHEM_IUPAC_NAME>
6-[4-[4-(2,3-dichlorophenyl)piperazin-1-yl]butoxy]-1H-indazole

> <PUBCHEM_IUPAC_SYSTEMATIC_NAME>
6-[4-[4-[2,3-bis(chloranyl)phenyl]piperazin-1-yl]butoxy]-1H-indazole

> <PUBCHEM_IUPAC_TRADITIONAL_NAME>
6-[4-[4-(2,3-dichlorophenyl)piperazino]butoxy]-1H-indazole

> <PUBCHEM_IUPAC_INCHI>
InChI=1S/C21H24Cl2N4O/c22-18-4-3-5-20(21(18)23)27-11-9-26(10-12-27)8-1-2-13-28-17-7-6-16-15-24-25-19(16)14-17/h3-7,14-15H,1-2,8-13H2,(H,24,25)

> <PUBCHEM_IUPAC_INCHIKEY>
IKOXHMZXTCWMQE-UHFFFAOYSA-N

> <PUBCHEM_XLOGP3_AA>
5.1

> <PUBCHEM_EXACT_MASS>
418.1327168

> <PUBCHEM_MOLECULAR_FORMULA>
C21H24Cl2N4O

> <PUBCHEM_MOLECULAR_WEIGHT>
419.3

> <PUBCHEM_OPENEYE_CAN_SMILES>
C1CN(CCN1CCCCOC2=CC3=C(C=C2)C=NN3)C4=C(C(=CC=C4)Cl)Cl

> <PUBCHEM_OPENEYE_ISO_SMILES>
C1CN(CCN1CCCCOC2=CC3=C(C=C2)C=NN3)C4=C(C(=CC=C4)Cl)Cl

> <PUBCHEM_CACTVS_TPSA>
44.4

> <PUBCHEM_MONOISOTOPIC_WEIGHT>
418.1327168

> <PUBCHEM_TOTAL_CHARGE>
0

> <PUBCHEM_HEAVY_ATOM_COUNT>
28

> <PUBCHEM_ATOM_DEF_STEREO_COUNT>
0

> <PUBCHEM_ATOM_UDEF_STEREO_COUNT>
0

> <PUBCHEM_BOND_DEF_STEREO_COUNT>
0

> <PUBCHEM_BOND_UDEF_STEREO_COUNT>
0

> <PUBCHEM_ISOTOPIC_ATOM_COUNT>
0

> <PUBCHEM_COMPONENT_COUNT>
1

> <PUBCHEM_CACTVS_TAUTO_COUNT>
-1

> <PUBCHEM_COORDINATE_TYPE>
1
5
255

> <PUBCHEM_BONDANNOTATIONS>
14  17  8
14  18  8
17  19  8
18  20  8
19  21  8
20  21  8
22  23  8
22  25  8
23  24  8
24  26  8
25  27  8
26  27  8
26  28  8
6  24  8
6  7  8
7  28  8

$$$$
