122178764
  -OEChem-09292322082D

 64 68  0     1  0  0  0  0  0999 V2000
    2.0000    0.2934    0.0000 F   0  0  0  0  0  0  0  0  0  0  0  0
    2.3660    1.6594    0.0000 F   0  0  0  0  0  0  0  0  0  0  0  0
    3.3660   -0.0727    0.0000 F   0  0  0  0  0  0  0  0  0  0  0  0
   13.3243    0.7492    0.0000 O   0  0  0  0  0  0  0  0  0  0  0  0
    7.2641    1.2725    0.0000 N   0  0  3  0  0  0  0  0  0  0  0  0
   12.4525   -0.7475    0.0000 N   0  0  0  0  0  0  0  0  0  0  0  0
   14.2838   -1.7433    0.0000 N   0  0  0  0  0  0  0  0  0  0  0  0
    9.8602    0.7625    0.0000 C   0  0  0  0  0  0  0  0  0  0  0  0
   10.7282    1.2592    0.0000 C   0  0  0  0  0  0  0  0  0  0  0  0
    9.8564   -0.2375    0.0000 C   0  0  0  0  0  0  0  0  0  0  0  0
   11.5884   -0.2441    0.0000 C   0  0  0  0  0  0  0  0  0  0  0  0
   11.5923    0.7559    0.0000 C   0  0  0  0  0  0  0  0  0  0  0  0
   10.7205   -0.7408    0.0000 C   0  0  0  0  0  0  0  0  0  0  0  0
    8.9962    1.2659    0.0000 C   0  0  0  0  0  0  0  0  0  0  0  0
    8.1282    0.7692    0.0000 C   0  0  0  0  0  0  0  0  0  0  0  0
    7.2641    2.3142    0.0000 C   0  0  0  0  0  0  0  0  0  0  0  0
    6.3580    0.7587    0.0000 C   0  0  0  0  0  0  0  0  0  0  0  0
    6.3580    2.8280    0.0000 C   0  0  0  0  0  0  0  0  0  0  0  0
    5.4641    1.2934    0.0000 C   0  0  0  0  0  0  0  0  0  0  0  0
    5.4641    2.2934    0.0000 C   0  0  0  0  0  0  0  0  0  0  0  0
   13.3205   -0.2508    0.0000 C   0  0  0  0  0  0  0  0  0  0  0  0
    4.5981    0.7934    0.0000 C   0  0  0  0  0  0  0  0  0  0  0  0
    4.5981    2.7934    0.0000 C   0  0  0  0  0  0  0  0  0  0  0  0
   14.1846   -0.7542    0.0000 C   0  0  0  0  0  0  0  0  0  0  0  0
    3.7320    1.2934    0.0000 C   0  0  0  0  0  0  0  0  0  0  0  0
    3.7320    2.2934    0.0000 C   0  0  0  0  0  0  0  0  0  0  0  0
   15.0939   -0.3525    0.0000 C   0  0  0  0  0  0  0  0  0  0  0  0
    2.8660    0.7934    0.0000 C   0  0  0  0  0  0  0  0  0  0  0  0
   15.2548   -1.9562    0.0000 C   0  0  0  0  0  0  0  0  0  0  0  0
   15.7581   -1.0921    0.0000 C   0  0  0  0  0  0  0  0  0  0  0  0
   15.7515   -2.8242    0.0000 C   0  0  0  0  0  0  0  0  0  0  0  0
   16.7581   -1.0960    0.0000 C   0  0  0  0  0  0  0  0  0  0  0  0
   16.7514   -2.8280    0.0000 C   0  0  0  0  0  0  0  0  0  0  0  0
   17.2548   -1.9639    0.0000 C   0  0  0  0  0  0  0  0  0  0  0  0
    9.8626    1.3825    0.0000 H   0  0  0  0  0  0  0  0  0  0  0  0
   11.1285    1.7326    0.0000 H   0  0  0  0  0  0  0  0  0  0  0  0
   10.3315    1.7357    0.0000 H   0  0  0  0  0  0  0  0  0  0  0  0
    9.2462   -0.1275    0.0000 H   0  0  0  0  0  0  0  0  0  0  0  0
    9.6421   -0.8193    0.0000 H   0  0  0  0  0  0  0  0  0  0  0  0
   11.5860   -0.8641    0.0000 H   0  0  0  0  0  0  0  0  0  0  0  0
   12.2024    0.6458    0.0000 H   0  0  0  0  0  0  0  0  0  0  0  0
   11.8066    1.3376    0.0000 H   0  0  0  0  0  0  0  0  0  0  0  0
   10.3201   -1.2142    0.0000 H   0  0  0  0  0  0  0  0  0  0  0  0
   11.1172   -1.2173    0.0000 H   0  0  0  0  0  0  0  0  0  0  0  0
    9.3965    1.7393    0.0000 H   0  0  0  0  0  0  0  0  0  0  0  0
    8.5994    1.7423    0.0000 H   0  0  0  0  0  0  0  0  0  0  0  0
    7.7278    0.2958    0.0000 H   0  0  0  0  0  0  0  0  0  0  0  0
    8.5249    0.2927    0.0000 H   0  0  0  0  0  0  0  0  0  0  0  0
   12.4501   -1.3675    0.0000 H   0  0  0  0  0  0  0  0  0  0  0  0
    7.8750    2.2081    0.0000 H   0  0  0  0  0  0  0  0  0  0  0  0
    7.4732    2.8979    0.0000 H   0  0  0  0  0  0  0  0  0  0  0  0
    5.9534    0.2889    0.0000 H   0  0  0  0  0  0  0  0  0  0  0  0
    6.7517    0.2797    0.0000 H   0  0  0  0  0  0  0  0  0  0  0  0
    6.7517    3.3070    0.0000 H   0  0  0  0  0  0  0  0  0  0  0  0
    5.9534    3.2978    0.0000 H   0  0  0  0  0  0  0  0  0  0  0  0
    4.5981    0.1734    0.0000 H   0  0  0  0  0  0  0  0  0  0  0  0
    4.5981    3.4134    0.0000 H   0  0  0  0  0  0  0  0  0  0  0  0
    3.1951    2.6034    0.0000 H   0  0  0  0  0  0  0  0  0  0  0  0
   13.8207   -2.1556    0.0000 H   0  0  0  0  0  0  0  0  0  0  0  0
   15.2241    0.2536    0.0000 H   0  0  0  0  0  0  0  0  0  0  0  0
   15.4394   -3.3599    0.0000 H   0  0  0  0  0  0  0  0  0  0  0  0
   17.0702   -0.5602    0.0000 H   0  0  0  0  0  0  0  0  0  0  0  0
   17.0594   -3.3661    0.0000 H   0  0  0  0  0  0  0  0  0  0  0  0
   17.8748   -1.9663    0.0000 H   0  0  0  0  0  0  0  0  0  0  0  0
  1 28  1  0  0  0  0
  2 28  1  0  0  0  0
  3 28  1  0  0  0  0
  4 21  2  0  0  0  0
  5 15  1  0  0  0  0
  5 16  1  0  0  0  0
  5 17  1  0  0  0  0
  6 11  1  0  0  0  0
  6 21  1  0  0  0  0
  6 49  1  0  0  0  0
  7 24  1  0  0  0  0
  7 29  1  0  0  0  0
  7 59  1  0  0  0  0
  8  9  1  0  0  0  0
  8 10  1  0  0  0  0
  8 14  1  0  0  0  0
  8 35  1  0  0  0  0
  9 12  1  0  0  0  0
  9 36  1  0  0  0  0
  9 37  1  0  0  0  0
 10 13  1  0  0  0  0
 10 38  1  0  0  0  0
 10 39  1  0  0  0  0
 11 12  1  0  0  0  0
 11 13  1  0  0  0  0
 11 40  1  0  0  0  0
 12 41  1  0  0  0  0
 12 42  1  0  0  0  0
 13 43  1  0  0  0  0
 13 44  1  0  0  0  0
 14 15  1  0  0  0  0
 14 45  1  0  0  0  0
 14 46  1  0  0  0  0
 15 47  1  0  0  0  0
 15 48  1  0  0  0  0
 16 18  1  0  0  0  0
 16 50  1  0  0  0  0
 16 51  1  0  0  0  0
 17 19  1  0  0  0  0
 17 52  1  0  0  0  0
 17 53  1  0  0  0  0
 18 20  1  0  0  0  0
 18 54  1  0  0  0  0
 18 55  1  0  0  0  0
 19 20  2  0  0  0  0
 19 22  1  0  0  0  0
 20 23  1  0  0  0  0
 21 24  1  0  0  0  0
 22 25  2  0  0  0  0
 22 56  1  0  0  0  0
 23 26  2  0  0  0  0
 23 57  1  0  0  0  0
 24 27  2  0  0  0  0
 25 26  1  0  0  0  0
 25 28  1  0  0  0  0
 26 58  1  0  0  0  0
 27 30  1  0  0  0  0
 27 60  1  0  0  0  0
 29 30  1  0  0  0  0
 29 31  2  0  0  0  0
 30 32  2  0  0  0  0
 31 33  1  0  0  0  0
 31 61  1  0  0  0  0
 32 34  1  0  0  0  0
 32 62  1  0  0  0  0
 33 34  2  0  0  0  0
 33 63  1  0  0  0  0
 34 64  1  0  0  0  0
M  END
> <PUBCHEM_COMPOUND_CID>
122178764

> <PUBCHEM_COMPOUND_CANONICALIZED>
1

> <PUBCHEM_CACTVS_COMPLEXITY>
693

> <PUBCHEM_CACTVS_HBOND_ACCEPTOR>
5

> <PUBCHEM_CACTVS_HBOND_DONOR>
2

> <PUBCHEM_CACTVS_ROTATABLE_BOND>
5

> <PUBCHEM_CACTVS_SUBSKEYS>
AAADceB7IYAAAAAAAAAAAAAAAAAAAWAAAAA8YMEAAAAAAFix9AAAHwAQAAAADSjBnhQwwPPJkACoAyVyVACCgCAnAiAImaG4ZNgIYPLAlbGUIQhglgDIyYcYicCewAACAAASAACQAAQAACQAAAAAAAAAAA==

> <PUBCHEM_IUPAC_OPENEYE_NAME>
N-[4-[2-[7-(trifluoromethyl)-3,4-dihydro-1H-isoquinolin-2-yl]ethyl]cyclohexyl]-1H-indole-2-carboxamide

> <PUBCHEM_IUPAC_CAS_NAME>
N-[4-[2-[7-(trifluoromethyl)-3,4-dihydro-1H-isoquinolin-2-yl]ethyl]cyclohexyl]-1H-indole-2-carboxamide

> <PUBCHEM_IUPAC_NAME_MARKUP>
<I>N</I>-[4-[2-[7-(trifluoromethyl)-3,4-dihydro-1<I>H</I>-isoquinolin-2-yl]ethyl]cyclohexyl]-1<I>H</I>-indole-2-carboxamide

> <PUBCHEM_IUPAC_NAME>
N-[4-[2-[7-(trifluoromethyl)-3,4-dihydro-1H-isoquinolin-2-yl]ethyl]cyclohexyl]-1H-indole-2-carboxamide

> <PUBCHEM_IUPAC_SYSTEMATIC_NAME>
N-[4-[2-[7-(trifluoromethyl)-3,4-dihydro-1H-isoquinolin-2-yl]ethyl]cyclohexyl]-1H-indole-2-carboxamide

> <PUBCHEM_IUPAC_TRADITIONAL_NAME>
N-[4-[2-[7-(trifluoromethyl)-3,4-dihydro-1H-isoquinolin-2-yl]ethyl]cyclohexyl]-1H-indole-2-carboxamide

> <PUBCHEM_IUPAC_INCHI>
InChI=1S/C27H30F3N3O/c28-27(29,30)22-8-7-19-12-14-33(17-21(19)15-22)13-11-18-5-9-23(10-6-18)31-26(34)25-16-20-3-1-2-4-24(20)32-25/h1-4,7-8,15-16,18,23,32H,5-6,9-14,17H2,(H,31,34)

> <PUBCHEM_IUPAC_INCHIKEY>
CEEMLEILFIZLRX-UHFFFAOYSA-N

> <PUBCHEM_XLOGP3_AA>
6

> <PUBCHEM_EXACT_MASS>
469.23409708

> <PUBCHEM_MOLECULAR_FORMULA>
C27H30F3N3O

> <PUBCHEM_MOLECULAR_WEIGHT>
469.5

> <PUBCHEM_OPENEYE_CAN_SMILES>
C1CC(CCC1CCN2CCC3=C(C2)C=C(C=C3)C(F)(F)F)NC(=O)C4=CC5=CC=CC=C5N4

> <PUBCHEM_OPENEYE_ISO_SMILES>
C1CC(CCC1CCN2CCC3=C(C2)C=C(C=C3)C(F)(F)F)NC(=O)C4=CC5=CC=CC=C5N4

> <PUBCHEM_CACTVS_TPSA>
48.1

> <PUBCHEM_MONOISOTOPIC_WEIGHT>
469.23409708

> <PUBCHEM_TOTAL_CHARGE>
0

> <PUBCHEM_HEAVY_ATOM_COUNT>
34

> <PUBCHEM_ATOM_DEF_STEREO_COUNT>
0

> <PUBCHEM_ATOM_UDEF_STEREO_COUNT>
0

> <PUBCHEM_BOND_DEF_STEREO_COUNT>
0

> <PUBCHEM_BOND_UDEF_STEREO_COUNT>
0

> <PUBCHEM_ISOTOPIC_ATOM_COUNT>
0

> <PUBCHEM_COMPONENT_COUNT>
1

> <PUBCHEM_CACTVS_TAUTO_COUNT>
-1

> <PUBCHEM_COORDINATE_TYPE>
1
5
255

> <PUBCHEM_BONDANNOTATIONS>
19  20  8
19  22  8
20  23  8
22  25  8
23  26  8
24  27  8
25  26  8
27  30  8
29  30  8
29  31  8
30  32  8
31  33  8
32  34  8
33  34  8
7  24  8
7  29  8

$$$$
