10379532
  -OEChem-09292322102D

 43 47  0     1  0  0  0  0  0999 V2000
    2.6456   -1.7970    0.0000 O   0  0  0  0  0  0  0  0  0  0  0  0
    6.2686    1.7952    0.0000 N   0  0  3  0  0  0  0  0  0  0  0  0
    5.4104    1.2983    0.0000 C   0  0  1  0  0  0  0  0  0  0  0  0
    5.4104    0.2983    0.0000 C   0  0  0  0  0  0  0  0  0  0  0  0
    4.5444   -0.2017    0.0000 C   0  0  0  0  0  0  0  0  0  0  0  0
    3.5403   -1.3504    0.0000 C   0  0  2  0  0  0  0  0  0  0  0  0
    3.6784    0.2983    0.0000 C   0  0  0  0  0  0  0  0  0  0  0  0
    4.5284   -1.2432    0.0000 C   0  0  0  0  0  0  0  0  0  0  0  0
    4.5444    1.7983    0.0000 C   0  0  0  0  0  0  0  0  0  0  0  0
    3.0605   -0.4801    0.0000 C   0  0  0  0  0  0  0  0  0  0  0  0
    3.6784    1.2983    0.0000 C   0  0  0  0  0  0  0  0  0  0  0  0
    6.3204   -0.2086    0.0000 C   0  0  0  0  0  0  0  0  0  0  0  0
    7.1598    0.3197    0.0000 C   0  0  0  0  0  0  0  0  0  0  0  0
    7.1341    1.3110    0.0000 C   0  0  0  0  0  0  0  0  0  0  0  0
    5.4264   -1.7710    0.0000 C   0  0  0  0  0  0  0  0  0  0  0  0
    6.3285   -1.2502    0.0000 C   0  0  0  0  0  0  0  0  0  0  0  0
    3.6887   -2.3393    0.0000 C   0  0  0  0  0  0  0  0  0  0  0  0
    2.1596   -0.0855    0.0000 C   0  0  0  0  0  0  0  0  0  0  0  0
    2.7270    1.5473    0.0000 C   0  0  0  0  0  0  0  0  0  0  0  0
    6.2613    2.7952    0.0000 C   0  0  0  0  0  0  0  0  0  0  0  0
    2.0000    0.8849    0.0000 C   0  0  0  0  0  0  0  0  0  0  0  0
    2.5851   -2.7952    0.0000 C   0  0  0  0  0  0  0  0  0  0  0  0
    5.4099    2.1483    0.0000 H   0  0  0  0  0  0  0  0  0  0  0  0
    4.9429    2.2732    0.0000 H   0  0  0  0  0  0  0  0  0  0  0  0
    4.1459    2.2732    0.0000 H   0  0  0  0  0  0  0  0  0  0  0  0
    7.3915   -0.2554    0.0000 H   0  0  0  0  0  0  0  0  0  0  0  0
    7.7668    0.4456    0.0000 H   0  0  0  0  0  0  0  0  0  0  0  0
    7.7469    1.2167    0.0000 H   0  0  0  0  0  0  0  0  0  0  0  0
    7.3359    1.8973    0.0000 H   0  0  0  0  0  0  0  0  0  0  0  0
    5.4240   -2.3910    0.0000 H   0  0  0  0  0  0  0  0  0  0  0  0
    6.8666   -1.5581    0.0000 H   0  0  0  0  0  0  0  0  0  0  0  0
    3.0755   -2.4313    0.0000 H   0  0  0  0  0  0  0  0  0  0  0  0
    3.7806   -2.9524    0.0000 H   0  0  0  0  0  0  0  0  0  0  0  0
    4.3018   -2.2473    0.0000 H   0  0  0  0  0  0  0  0  0  0  0  0
    1.6700   -0.4658    0.0000 H   0  0  0  0  0  0  0  0  0  0  0  0
    2.5787    2.1493    0.0000 H   0  0  0  0  0  0  0  0  0  0  0  0
    6.8812    2.7998    0.0000 H   0  0  0  0  0  0  0  0  0  0  0  0
    6.2567    3.4152    0.0000 H   0  0  0  0  0  0  0  0  0  0  0  0
    5.6413    2.7906    0.0000 H   0  0  0  0  0  0  0  0  0  0  0  0
    1.4144    1.0884    0.0000 H   0  0  0  0  0  0  0  0  0  0  0  0
    1.9662   -2.7577    0.0000 H   0  0  0  0  0  0  0  0  0  0  0  0
    2.5476   -3.4141    0.0000 H   0  0  0  0  0  0  0  0  0  0  0  0
    3.2040   -2.8327    0.0000 H   0  0  0  0  0  0  0  0  0  0  0  0
  6  1  1  1  0  0  0
  1 22  1  0  0  0  0
  2  3  1  0  0  0  0
  2 14  1  0  0  0  0
  2 20  1  0  0  0  0
  3  4  1  0  0  0  0
  3  9  1  0  0  0  0
  3 23  1  6  0  0  0
  4  5  1  0  0  0  0
  4 12  2  0  0  0  0
  5  7  1  0  0  0  0
  5  8  2  0  0  0  0
  6  8  1  0  0  0  0
  6 10  1  0  0  0  0
  6 17  1  0  0  0  0
  7 10  1  0  0  0  0
  7 11  2  0  0  0  0
  8 15  1  0  0  0  0
  9 11  1  0  0  0  0
  9 24  1  0  0  0  0
  9 25  1  0  0  0  0
 10 18  2  0  0  0  0
 11 19  1  0  0  0  0
 12 13  1  0  0  0  0
 12 16  1  0  0  0  0
 13 14  1  0  0  0  0
 13 26  1  0  0  0  0
 13 27  1  0  0  0  0
 14 28  1  0  0  0  0
 14 29  1  0  0  0  0
 15 16  2  0  0  0  0
 15 30  1  0  0  0  0
 16 31  1  0  0  0  0
 17 32  1  0  0  0  0
 17 33  1  0  0  0  0
 17 34  1  0  0  0  0
 18 21  1  0  0  0  0
 18 35  1  0  0  0  0
 19 21  2  0  0  0  0
 19 36  1  0  0  0  0
 20 37  1  0  0  0  0
 20 38  1  0  0  0  0
 20 39  1  0  0  0  0
 21 40  1  0  0  0  0
 22 41  1  0  0  0  0
 22 42  1  0  0  0  0
 22 43  1  0  0  0  0
M  END
> <PUBCHEM_COMPOUND_CID>
10379532

> <PUBCHEM_COMPOUND_CANONICALIZED>
1

> <PUBCHEM_CACTVS_COMPLEXITY>
465

> <PUBCHEM_CACTVS_HBOND_ACCEPTOR>
2

> <PUBCHEM_CACTVS_HBOND_DONOR>
0

> <PUBCHEM_CACTVS_ROTATABLE_BOND>
1

> <PUBCHEM_CACTVS_SUBSKEYS>
AAADceB6IAAAAAAAAAAAAAAAAAAAAYAAAAA8YMEAAAAAAGDxQAAAHgAAAAAADGzBmAYyAIMABACAAiBCAACCAAAgAAAIiAAIDIgIJiKAsRmEMAhkwAGIqAeQ0PMOwAACAAAQAACQAASAACQAAYAADAAAAA==

> <PUBCHEM_IUPAC_OPENEYE_NAME>
(6S,14R)-6-methoxy-6,13-dimethyl-13-azapentacyclo[12.3.1.05,17.07,16.010,15]octadeca-1(17),2,4,7(16),8,10(15)-hexaene

> <PUBCHEM_IUPAC_CAS_NAME>
(6S,14R)-6-methoxy-6,13-dimethyl-13-azapentacyclo[12.3.1.05,17.07,16.010,15]octadeca-1(17),2,4,7(16),8,10(15)-hexaene

> <PUBCHEM_IUPAC_NAME_MARKUP>
(6<I>S</I>,14<I>R</I>)-6-methoxy-6,13-dimethyl-13-azapentacyclo[12.3.1.0<SUP>5,17</SUP>.0<SUP>7,16</SUP>.0<SUP>10,15</SUP>]octadeca-1(17),2,4,7(16),8,10(15)-hexaene

> <PUBCHEM_IUPAC_NAME>
(6S,14R)-6-methoxy-6,13-dimethyl-13-azapentacyclo[12.3.1.05,17.07,16.010,15]octadeca-1(17),2,4,7(16),8,10(15)-hexaene

> <PUBCHEM_IUPAC_SYSTEMATIC_NAME>
(6S,14R)-6-methoxy-6,13-dimethyl-13-azapentacyclo[12.3.1.05,17.07,16.010,15]octadeca-1(17),2,4,7(16),8,10(15)-hexaene

> <PUBCHEM_IUPAC_TRADITIONAL_NAME>
(6S,14R)-6-methoxy-6,13-dimethyl-13-azapentacyclo[12.3.1.05,17.07,16.010,15]octadeca-1(17),2,4,7(16),8,10(15)-hexaene

> <PUBCHEM_IUPAC_INCHI>
InChI=1S/C20H21NO/c1-20(22-3)14-6-4-5-13-11-16-18-12(9-10-21(16)2)7-8-15(20)19(18)17(13)14/h4-8,16H,9-11H2,1-3H3/t16-,20+/m1/s1

> <PUBCHEM_IUPAC_INCHIKEY>
JVZCJQBRRXZMQR-UZLBHIALSA-N

> <PUBCHEM_XLOGP3_AA>
3.1

> <PUBCHEM_EXACT_MASS>
291.162314293

> <PUBCHEM_MOLECULAR_FORMULA>
C20H21NO

> <PUBCHEM_MOLECULAR_WEIGHT>
291.4

> <PUBCHEM_OPENEYE_CAN_SMILES>
CC1(C2=C3C4=C(CCN(C4CC5=C3C1=CC=C5)C)C=C2)OC

> <PUBCHEM_OPENEYE_ISO_SMILES>
C[C@]1(C2=C3C4=C(CCN([C@@H]4CC5=C3C1=CC=C5)C)C=C2)OC

> <PUBCHEM_CACTVS_TPSA>
12.5

> <PUBCHEM_MONOISOTOPIC_WEIGHT>
291.162314293

> <PUBCHEM_TOTAL_CHARGE>
0

> <PUBCHEM_HEAVY_ATOM_COUNT>
22

> <PUBCHEM_ATOM_DEF_STEREO_COUNT>
2

> <PUBCHEM_ATOM_UDEF_STEREO_COUNT>
0

> <PUBCHEM_BOND_DEF_STEREO_COUNT>
0

> <PUBCHEM_BOND_UDEF_STEREO_COUNT>
0

> <PUBCHEM_ISOTOPIC_ATOM_COUNT>
0

> <PUBCHEM_COMPONENT_COUNT>
1

> <PUBCHEM_CACTVS_TAUTO_COUNT>
-1

> <PUBCHEM_COORDINATE_TYPE>
1
5
255

> <PUBCHEM_BONDANNOTATIONS>
6  1  5
10  18  8
11  19  8
12  16  8
15  16  8
18  21  8
19  21  8
3  23  6
4  12  8
4  5  8
5  8  8
7  10  8
7  11  8
8  15  8

$$$$
