11849684
  -OEChem-09292322022D

 52 54  0     0  0  0  0  0  0999 V2000
    4.5981    2.7500    0.0000 O   0  0  0  0  0  0  0  0  0  0  0  0
    5.4641    0.2500    0.0000 N   0  0  0  0  0  0  0  0  0  0  0  0
    5.4641   -1.7500    0.0000 N   0  0  0  0  0  0  0  0  0  0  0  0
    6.3301   -3.2500    0.0000 N   0  0  0  0  0  0  0  0  0  0  0  0
    5.4641    3.2500    0.0000 N   0  0  0  0  0  0  0  0  0  0  0  0
    6.3301   -0.2500    0.0000 C   0  0  0  0  0  0  0  0  0  0  0  0
    4.5981   -0.2500    0.0000 C   0  0  0  0  0  0  0  0  0  0  0  0
    6.3301   -1.2500    0.0000 C   0  0  0  0  0  0  0  0  0  0  0  0
    4.5981   -1.2500    0.0000 C   0  0  0  0  0  0  0  0  0  0  0  0
    5.4641    1.2500    0.0000 C   0  0  0  0  0  0  0  0  0  0  0  0
    6.3301    1.7500    0.0000 C   0  0  0  0  0  0  0  0  0  0  0  0
    5.4641   -2.7500    0.0000 C   0  0  0  0  0  0  0  0  0  0  0  0
    6.3301    2.7500    0.0000 C   0  0  0  0  0  0  0  0  0  0  0  0
    4.5981   -3.2500    0.0000 C   0  0  0  0  0  0  0  0  0  0  0  0
    7.1962    3.2500    0.0000 C   0  0  0  0  0  0  0  0  0  0  0  0
    4.5981   -4.2500    0.0000 C   0  0  0  0  0  0  0  0  0  0  0  0
    6.3301   -4.2500    0.0000 C   0  0  0  0  0  0  0  0  0  0  0  0
    5.4641   -4.7500    0.0000 C   0  0  0  0  0  0  0  0  0  0  0  0
    7.1962    4.2500    0.0000 C   0  0  0  0  0  0  0  0  0  0  0  0
    8.0622    2.7500    0.0000 C   0  0  0  0  0  0  0  0  0  0  0  0
    8.0622    4.7500    0.0000 C   0  0  0  0  0  0  0  0  0  0  0  0
    8.9282    3.2500    0.0000 C   0  0  0  0  0  0  0  0  0  0  0  0
    8.9282    4.2500    0.0000 C   0  0  0  0  0  0  0  0  0  0  0  0
    3.7320    3.2500    0.0000 C   0  0  0  0  0  0  0  0  0  0  0  0
    2.8660    2.7500    0.0000 C   0  0  0  0  0  0  0  0  0  0  0  0
    2.0000    3.2500    0.0000 C   0  0  0  0  0  0  0  0  0  0  0  0
    6.9407   -0.3577    0.0000 H   0  0  0  0  0  0  0  0  0  0  0  0
    6.5422    0.3326    0.0000 H   0  0  0  0  0  0  0  0  0  0  0  0
    4.3860    0.3326    0.0000 H   0  0  0  0  0  0  0  0  0  0  0  0
    3.9875   -0.3577    0.0000 H   0  0  0  0  0  0  0  0  0  0  0  0
    6.5422   -1.8326    0.0000 H   0  0  0  0  0  0  0  0  0  0  0  0
    6.9407   -1.1423    0.0000 H   0  0  0  0  0  0  0  0  0  0  0  0
    3.9875   -1.1423    0.0000 H   0  0  0  0  0  0  0  0  0  0  0  0
    4.3860   -1.8326    0.0000 H   0  0  0  0  0  0  0  0  0  0  0  0
    5.2520    1.8326    0.0000 H   0  0  0  0  0  0  0  0  0  0  0  0
    4.8535    1.1423    0.0000 H   0  0  0  0  0  0  0  0  0  0  0  0
    6.5422    1.1674    0.0000 H   0  0  0  0  0  0  0  0  0  0  0  0
    6.9407    1.8577    0.0000 H   0  0  0  0  0  0  0  0  0  0  0  0
    4.0611   -2.9400    0.0000 H   0  0  0  0  0  0  0  0  0  0  0  0
    4.0611   -4.5600    0.0000 H   0  0  0  0  0  0  0  0  0  0  0  0
    6.8671   -4.5600    0.0000 H   0  0  0  0  0  0  0  0  0  0  0  0
    5.4641   -5.3700    0.0000 H   0  0  0  0  0  0  0  0  0  0  0  0
    6.6592    4.5600    0.0000 H   0  0  0  0  0  0  0  0  0  0  0  0
    8.0622    2.1300    0.0000 H   0  0  0  0  0  0  0  0  0  0  0  0
    8.0622    5.3700    0.0000 H   0  0  0  0  0  0  0  0  0  0  0  0
    9.4651    2.9400    0.0000 H   0  0  0  0  0  0  0  0  0  0  0  0
    9.4651    4.5600    0.0000 H   0  0  0  0  0  0  0  0  0  0  0  0
    4.1306    3.7250    0.0000 H   0  0  0  0  0  0  0  0  0  0  0  0
    3.3335    3.7250    0.0000 H   0  0  0  0  0  0  0  0  0  0  0  0
    2.8660    2.1300    0.0000 H   0  0  0  0  0  0  0  0  0  0  0  0
    2.0000    3.8700    0.0000 H   0  0  0  0  0  0  0  0  0  0  0  0
    1.4631    2.9400    0.0000 H   0  0  0  0  0  0  0  0  0  0  0  0
  1  5  1  0  0  0  0
  1 24  1  0  0  0  0
  2  6  1  0  0  0  0
  2  7  1  0  0  0  0
  2 10  1  0  0  0  0
  3  8  1  0  0  0  0
  3  9  1  0  0  0  0
  3 12  1  0  0  0  0
  4 12  1  0  0  0  0
  4 17  2  0  0  0  0
  5 13  2  0  0  0  0
  6  8  1  0  0  0  0
  6 27  1  0  0  0  0
  6 28  1  0  0  0  0
  7  9  1  0  0  0  0
  7 29  1  0  0  0  0
  7 30  1  0  0  0  0
  8 31  1  0  0  0  0
  8 32  1  0  0  0  0
  9 33  1  0  0  0  0
  9 34  1  0  0  0  0
 10 11  1  0  0  0  0
 10 35  1  0  0  0  0
 10 36  1  0  0  0  0
 11 13  1  0  0  0  0
 11 37  1  0  0  0  0
 11 38  1  0  0  0  0
 12 14  2  0  0  0  0
 13 15  1  0  0  0  0
 14 16  1  0  0  0  0
 14 39  1  0  0  0  0
 15 19  2  0  0  0  0
 15 20  1  0  0  0  0
 16 18  2  0  0  0  0
 16 40  1  0  0  0  0
 17 18  1  0  0  0  0
 17 41  1  0  0  0  0
 18 42  1  0  0  0  0
 19 21  1  0  0  0  0
 19 43  1  0  0  0  0
 20 22  2  0  0  0  0
 20 44  1  0  0  0  0
 21 23  2  0  0  0  0
 21 45  1  0  0  0  0
 22 23  1  0  0  0  0
 22 46  1  0  0  0  0
 23 47  1  0  0  0  0
 24 25  1  0  0  0  0
 24 48  1  0  0  0  0
 24 49  1  0  0  0  0
 25 26  2  0  0  0  0
 25 50  1  0  0  0  0
 26 51  1  0  0  0  0
 26 52  1  0  0  0  0
M  END
> <PUBCHEM_COMPOUND_CID>
11849684

> <PUBCHEM_COMPOUND_CANONICALIZED>
1

> <PUBCHEM_CACTVS_COMPLEXITY>
439

> <PUBCHEM_CACTVS_HBOND_ACCEPTOR>
5

> <PUBCHEM_CACTVS_HBOND_DONOR>
0

> <PUBCHEM_CACTVS_ROTATABLE_BOND>
8

> <PUBCHEM_CACTVS_SUBSKEYS>
AAADceB7oAAAAAAAAAAAAAAAAAAAAAAAAAA8WIAAAAAAAAABwAAAHgAEAAAADAjhmgY9sJMYEACgAzJnZACCgCkxAiAJ2CA4ZJiIZOLAmZGUIAhogALIyCcQgIAOAAAAAAAAAAAAAAAAAAAAAAAAAAAAAA==

> <PUBCHEM_IUPAC_OPENEYE_NAME>
(E)-N-allyloxy-1-phenyl-3-[4-(2-pyridyl)piperazin-1-yl]propan-1-imine

> <PUBCHEM_IUPAC_CAS_NAME>
(E)-1-phenyl-N-prop-2-enoxy-3-[4-(2-pyridinyl)-1-piperazinyl]-1-propanimine

> <PUBCHEM_IUPAC_NAME_MARKUP>
(<I>E</I>)-1-phenyl-<I>N</I>-prop-2-enoxy-3-(4-pyridin-2-ylpiperazin-1-yl)propan-1-imine

> <PUBCHEM_IUPAC_NAME>
(E)-1-phenyl-N-prop-2-enoxy-3-(4-pyridin-2-ylpiperazin-1-yl)propan-1-imine

> <PUBCHEM_IUPAC_SYSTEMATIC_NAME>
(E)-1-phenyl-N-prop-2-enoxy-3-(4-pyridin-2-ylpiperazin-1-yl)propan-1-imine

> <PUBCHEM_IUPAC_TRADITIONAL_NAME>
(E)-allyloxy-[1-phenyl-3-[4-(2-pyridyl)piperazino]propylidene]amine

> <PUBCHEM_IUPAC_INCHI>
InChI=1S/C21H26N4O/c1-2-18-26-23-20(19-8-4-3-5-9-19)11-13-24-14-16-25(17-15-24)21-10-6-7-12-22-21/h2-10,12H,1,11,13-18H2/b23-20+

> <PUBCHEM_IUPAC_INCHIKEY>
DAYZTFAZYTUMGD-BSYVCWPDSA-N

> <PUBCHEM_XLOGP3_AA>
3.7

> <PUBCHEM_EXACT_MASS>
350.21066147

> <PUBCHEM_MOLECULAR_FORMULA>
C21H26N4O

> <PUBCHEM_MOLECULAR_WEIGHT>
350.5

> <PUBCHEM_OPENEYE_CAN_SMILES>
C=CCON=C(CCN1CCN(CC1)C2=CC=CC=N2)C3=CC=CC=C3

> <PUBCHEM_OPENEYE_ISO_SMILES>
C=CCO/N=C(\CCN1CCN(CC1)C2=CC=CC=N2)/C3=CC=CC=C3

> <PUBCHEM_CACTVS_TPSA>
41

> <PUBCHEM_MONOISOTOPIC_WEIGHT>
350.21066147

> <PUBCHEM_TOTAL_CHARGE>
0

> <PUBCHEM_HEAVY_ATOM_COUNT>
26

> <PUBCHEM_ATOM_DEF_STEREO_COUNT>
0

> <PUBCHEM_ATOM_UDEF_STEREO_COUNT>
0

> <PUBCHEM_BOND_DEF_STEREO_COUNT>
1

> <PUBCHEM_BOND_UDEF_STEREO_COUNT>
0

> <PUBCHEM_ISOTOPIC_ATOM_COUNT>
0

> <PUBCHEM_COMPONENT_COUNT>
1

> <PUBCHEM_CACTVS_TAUTO_COUNT>
-1

> <PUBCHEM_COORDINATE_TYPE>
1
5
255

> <PUBCHEM_BONDANNOTATIONS>
12  14  8
14  16  8
15  19  8
15  20  8
16  18  8
17  18  8
19  21  8
20  22  8
21  23  8
22  23  8
4  12  8
4  17  8

$$$$
