44319612
  -OEChem-09292322202D

108114  0     0  0  0  0  0  0999 V2000
    8.4487    0.4966    0.0000 O   0  0  0  0  0  0  0  0  0  0  0  0
    9.2619   -2.5907    0.0000 O   0  0  0  0  0  0  0  0  0  0  0  0
    4.2746    2.5542    0.0000 N   0  0  0  0  0  0  0  0  0  0  0  0
    5.2251    3.8530    0.0000 N   0  0  0  0  0  0  0  0  0  0  0  0
    4.6783   -1.7860    0.0000 N   0  0  0  0  0  0  0  0  0  0  0  0
   12.2619   -4.3228    0.0000 N   0  0  0  0  0  0  0  0  0  0  0  0
    4.6783   -3.3955    0.0000 N   0  0  0  0  0  0  0  0  0  0  0  0
   11.8926    0.1226    0.0000 C   0  0  0  0  0  0  0  0  0  0  0  0
   11.7846   -0.8716    0.0000 C   0  0  0  0  0  0  0  0  0  0  0  0
   12.8075    0.5261    0.0000 C   0  0  0  0  0  0  0  0  0  0  0  0
   12.5916   -1.4622    0.0000 C   0  0  0  0  0  0  0  0  0  0  0  0
   13.6145   -0.0644    0.0000 C   0  0  0  0  0  0  0  0  0  0  0  0
   13.5065   -1.0586    0.0000 C   0  0  0  0  0  0  0  0  0  0  0  0
   11.0856    0.7131    0.0000 C   0  0  0  0  0  0  0  0  0  0  0  0
   10.1706    0.3096    0.0000 C   0  0  0  0  0  0  0  0  0  0  0  0
    9.3636    0.9002    0.0000 C   0  0  0  0  0  0  0  0  0  0  0  0
    7.6417    1.0872    0.0000 C   0  0  0  0  0  0  0  0  0  0  0  0
    7.7497    2.0813    0.0000 C   0  0  0  0  0  0  0  0  0  0  0  0
    6.7268    0.6836    0.0000 C   0  0  0  0  0  0  0  0  0  0  0  0
    6.0278    2.2683    0.0000 C   0  0  0  0  0  0  0  0  0  0  0  0
    6.9427    2.6719    0.0000 C   0  0  0  0  0  0  0  0  0  0  0  0
    5.9198    1.2742    0.0000 C   0  0  0  0  0  0  0  0  0  0  0  0
    5.2208    2.8589    0.0000 C   0  0  0  0  0  0  0  0  0  0  0  0
    3.6910    3.3589    0.0000 C   0  0  0  0  0  0  0  0  0  0  0  0
    3.9639    1.6036    0.0000 C   0  0  0  0  0  0  0  0  0  0  0  0
    4.2815    4.1659    0.0000 C   0  0  0  0  0  0  0  0  0  0  0  0
    4.9889   -0.8355    0.0000 C   0  0  0  0  0  0  0  0  0  0  0  0
   11.2619   -4.3228    0.0000 C   0  0  0  0  0  0  0  0  0  0  0  0
    4.6318    0.8594    0.0000 C   0  0  0  0  0  0  0  0  0  0  0  0
    3.7320   -2.0907    0.0000 C   0  0  0  0  0  0  0  0  0  0  0  0
    5.2619   -2.5907    0.0000 C   0  0  0  0  0  0  0  0  0  0  0  0
   10.7619   -3.4568    0.0000 C   0  0  0  0  0  0  0  0  0  0  0  0
    2.6968    3.4669    0.0000 C   0  0  0  0  0  0  0  0  0  0  0  0
    4.3211   -0.0912    0.0000 C   0  0  0  0  0  0  0  0  0  0  0  0
    3.7320   -3.0907    0.0000 C   0  0  0  0  0  0  0  0  0  0  0  0
    3.8780    5.0808    0.0000 C   0  0  0  0  0  0  0  0  0  0  0  0
   12.7619   -5.1888    0.0000 C   0  0  0  0  0  0  0  0  0  0  0  0
   12.7619   -3.4568    0.0000 C   0  0  0  0  0  0  0  0  0  0  0  0
    6.2619   -2.5907    0.0000 C   0  0  0  0  0  0  0  0  0  0  0  0
    9.7619   -3.4568    0.0000 C   0  0  0  0  0  0  0  0  0  0  0  0
    2.2932    4.3818    0.0000 C   0  0  0  0  0  0  0  0  0  0  0  0
    2.8660   -1.5907    0.0000 C   0  0  0  0  0  0  0  0  0  0  0  0
    2.8838    5.1888    0.0000 C   0  0  0  0  0  0  0  0  0  0  0  0
    2.8660   -3.5907    0.0000 C   0  0  0  0  0  0  0  0  0  0  0  0
    6.7619   -1.7247    0.0000 C   0  0  0  0  0  0  0  0  0  0  0  0
    6.7619   -3.4568    0.0000 C   0  0  0  0  0  0  0  0  0  0  0  0
    8.2619   -2.5907    0.0000 C   0  0  0  0  0  0  0  0  0  0  0  0
   13.7619   -5.1888    0.0000 C   0  0  0  0  0  0  0  0  0  0  0  0
   13.7619   -3.4568    0.0000 C   0  0  0  0  0  0  0  0  0  0  0  0
    7.7619   -1.7247    0.0000 C   0  0  0  0  0  0  0  0  0  0  0  0
    7.7619   -3.4568    0.0000 C   0  0  0  0  0  0  0  0  0  0  0  0
    2.0000   -2.0907    0.0000 C   0  0  0  0  0  0  0  0  0  0  0  0
    2.0000   -3.0907    0.0000 C   0  0  0  0  0  0  0  0  0  0  0  0
   11.3253   -0.1277    0.0000 H   0  0  0  0  0  0  0  0  0  0  0  0
   11.1892   -0.6986    0.0000 H   0  0  0  0  0  0  0  0  0  0  0  0
   11.5109   -1.4279    0.0000 H   0  0  0  0  0  0  0  0  0  0  0  0
   13.2550    0.9553    0.0000 H   0  0  0  0  0  0  0  0  0  0  0  0
   12.4626    1.0413    0.0000 H   0  0  0  0  0  0  0  0  0  0  0  0
   12.1441   -1.8913    0.0000 H   0  0  0  0  0  0  0  0  0  0  0  0
   12.9365   -1.9774    0.0000 H   0  0  0  0  0  0  0  0  0  0  0  0
   14.2099   -0.2374    0.0000 H   0  0  0  0  0  0  0  0  0  0  0  0
   13.8882    0.4919    0.0000 H   0  0  0  0  0  0  0  0  0  0  0  0
   13.6544   -1.6607    0.0000 H   0  0  0  0  0  0  0  0  0  0  0  0
   14.1251   -1.0175    0.0000 H   0  0  0  0  0  0  0  0  0  0  0  0
   11.5331    1.1423    0.0000 H   0  0  0  0  0  0  0  0  0  0  0  0
   10.7407    1.2283    0.0000 H   0  0  0  0  0  0  0  0  0  0  0  0
    9.7232   -0.1196    0.0000 H   0  0  0  0  0  0  0  0  0  0  0  0
   10.5155   -0.2056    0.0000 H   0  0  0  0  0  0  0  0  0  0  0  0
    9.8111    1.3293    0.0000 H   0  0  0  0  0  0  0  0  0  0  0  0
    9.0187    1.4154    0.0000 H   0  0  0  0  0  0  0  0  0  0  0  0
    8.3170    2.3315    0.0000 H   0  0  0  0  0  0  0  0  0  0  0  0
    6.6598    0.0672    0.0000 H   0  0  0  0  0  0  0  0  0  0  0  0
    7.0097    3.2883    0.0000 H   0  0  0  0  0  0  0  0  0  0  0  0
    5.3525    1.0240    0.0000 H   0  0  0  0  0  0  0  0  0  0  0  0
    3.4170    1.8957    0.0000 H   0  0  0  0  0  0  0  0  0  0  0  0
    3.5814    1.1158    0.0000 H   0  0  0  0  0  0  0  0  0  0  0  0
    5.5359   -1.1275    0.0000 H   0  0  0  0  0  0  0  0  0  0  0  0
    5.3715   -0.3476    0.0000 H   0  0  0  0  0  0  0  0  0  0  0  0
   10.6793   -4.5348    0.0000 H   0  0  0  0  0  0  0  0  0  0  0  0
   11.3695   -4.9334    0.0000 H   0  0  0  0  0  0  0  0  0  0  0  0
    5.2384    0.9872    0.0000 H   0  0  0  0  0  0  0  0  0  0  0  0
   11.3445   -3.2447    0.0000 H   0  0  0  0  0  0  0  0  0  0  0  0
   10.6542   -2.8462    0.0000 H   0  0  0  0  0  0  0  0  0  0  0  0
    2.3306    2.9665    0.0000 H   0  0  0  0  0  0  0  0  0  0  0  0
    3.7144   -0.2190    0.0000 H   0  0  0  0  0  0  0  0  0  0  0  0
    4.2441    5.5812    0.0000 H   0  0  0  0  0  0  0  0  0  0  0  0
   12.1793   -5.4008    0.0000 H   0  0  0  0  0  0  0  0  0  0  0  0
   12.8695   -5.7994    0.0000 H   0  0  0  0  0  0  0  0  0  0  0  0
   12.8695   -2.8462    0.0000 H   0  0  0  0  0  0  0  0  0  0  0  0
   12.1793   -3.2447    0.0000 H   0  0  0  0  0  0  0  0  0  0  0  0
    9.1793   -3.6688    0.0000 H   0  0  0  0  0  0  0  0  0  0  0  0
    9.8695   -4.0673    0.0000 H   0  0  0  0  0  0  0  0  0  0  0  0
    1.6769    4.4488    0.0000 H   0  0  0  0  0  0  0  0  0  0  0  0
    2.8660   -0.9707    0.0000 H   0  0  0  0  0  0  0  0  0  0  0  0
    2.6336    5.7561    0.0000 H   0  0  0  0  0  0  0  0  0  0  0  0
    2.8660   -4.2107    0.0000 H   0  0  0  0  0  0  0  0  0  0  0  0
    6.4519   -1.1878    0.0000 H   0  0  0  0  0  0  0  0  0  0  0  0
    6.4519   -3.9937    0.0000 H   0  0  0  0  0  0  0  0  0  0  0  0
   13.7619   -5.8088    0.0000 H   0  0  0  0  0  0  0  0  0  0  0  0
   14.3819   -5.1888    0.0000 H   0  0  0  0  0  0  0  0  0  0  0  0
   13.7619   -4.5688    0.0000 H   0  0  0  0  0  0  0  0  0  0  0  0
   13.7619   -4.0768    0.0000 H   0  0  0  0  0  0  0  0  0  0  0  0
   14.3819   -3.4568    0.0000 H   0  0  0  0  0  0  0  0  0  0  0  0
   13.7619   -2.8368    0.0000 H   0  0  0  0  0  0  0  0  0  0  0  0
    8.0719   -1.1878    0.0000 H   0  0  0  0  0  0  0  0  0  0  0  0
    8.0719   -3.9937    0.0000 H   0  0  0  0  0  0  0  0  0  0  0  0
    1.4631   -1.7807    0.0000 H   0  0  0  0  0  0  0  0  0  0  0  0
    1.4631   -3.4007    0.0000 H   0  0  0  0  0  0  0  0  0  0  0  0
  1 16  1  0  0  0  0
  1 17  1  0  0  0  0
  2 40  1  0  0  0  0
  2 47  1  0  0  0  0
  3 23  1  0  0  0  0
  3 24  1  0  0  0  0
  3 25  1  0  0  0  0
  4 23  2  0  0  0  0
  4 26  1  0  0  0  0
  5 27  1  0  0  0  0
  5 30  1  0  0  0  0
  5 31  1  0  0  0  0
  6 28  1  0  0  0  0
  6 37  1  0  0  0  0
  6 38  1  0  0  0  0
  7 31  2  0  0  0  0
  7 35  1  0  0  0  0
  8  9  1  0  0  0  0
  8 10  1  0  0  0  0
  8 14  1  0  0  0  0
  8 54  1  0  0  0  0
  9 11  1  0  0  0  0
  9 55  1  0  0  0  0
  9 56  1  0  0  0  0
 10 12  1  0  0  0  0
 10 57  1  0  0  0  0
 10 58  1  0  0  0  0
 11 13  1  0  0  0  0
 11 59  1  0  0  0  0
 11 60  1  0  0  0  0
 12 13  1  0  0  0  0
 12 61  1  0  0  0  0
 12 62  1  0  0  0  0
 13 63  1  0  0  0  0
 13 64  1  0  0  0  0
 14 15  1  0  0  0  0
 14 65  1  0  0  0  0
 14 66  1  0  0  0  0
 15 16  1  0  0  0  0
 15 67  1  0  0  0  0
 15 68  1  0  0  0  0
 16 69  1  0  0  0  0
 16 70  1  0  0  0  0
 17 18  2  0  0  0  0
 17 19  1  0  0  0  0
 18 21  1  0  0  0  0
 18 71  1  0  0  0  0
 19 22  2  0  0  0  0
 19 72  1  0  0  0  0
 20 21  2  0  0  0  0
 20 22  1  0  0  0  0
 20 23  1  0  0  0  0
 21 73  1  0  0  0  0
 22 74  1  0  0  0  0
 24 26  1  0  0  0  0
 24 33  2  0  0  0  0
 25 29  1  0  0  0  0
 25 75  1  0  0  0  0
 25 76  1  0  0  0  0
 26 36  2  0  0  0  0
 27 34  1  0  0  0  0
 27 77  1  0  0  0  0
 27 78  1  0  0  0  0
 28 32  1  0  0  0  0
 28 79  1  0  0  0  0
 28 80  1  0  0  0  0
 29 34  2  0  0  0  0
 29 81  1  0  0  0  0
 30 35  1  0  0  0  0
 30 42  2  0  0  0  0
 31 39  1  0  0  0  0
 32 40  1  0  0  0  0
 32 82  1  0  0  0  0
 32 83  1  0  0  0  0
 33 41  1  0  0  0  0
 33 84  1  0  0  0  0
 34 85  1  0  0  0  0
 35 44  2  0  0  0  0
 36 43  1  0  0  0  0
 36 86  1  0  0  0  0
 37 48  1  0  0  0  0
 37 87  1  0  0  0  0
 37 88  1  0  0  0  0
 38 49  1  0  0  0  0
 38 89  1  0  0  0  0
 38 90  1  0  0  0  0
 39 45  2  0  0  0  0
 39 46  1  0  0  0  0
 40 91  1  0  0  0  0
 40 92  1  0  0  0  0
 41 43  2  0  0  0  0
 41 93  1  0  0  0  0
 42 52  1  0  0  0  0
 42 94  1  0  0  0  0
 43 95  1  0  0  0  0
 44 53  1  0  0  0  0
 44 96  1  0  0  0  0
 45 50  1  0  0  0  0
 45 97  1  0  0  0  0
 46 51  2  0  0  0  0
 46 98  1  0  0  0  0
 47 50  2  0  0  0  0
 47 51  1  0  0  0  0
 48 99  1  0  0  0  0
 48100  1  0  0  0  0
 48101  1  0  0  0  0
 49102  1  0  0  0  0
 49103  1  0  0  0  0
 49104  1  0  0  0  0
 50105  1  0  0  0  0
 51106  1  0  0  0  0
 52 53  2  0  0  0  0
 52107  1  0  0  0  0
 53108  1  0  0  0  0
M  END
> <PUBCHEM_COMPOUND_CID>
44319612

> <PUBCHEM_COMPOUND_CANONICALIZED>
1

> <PUBCHEM_CACTVS_COMPLEXITY>
1050

> <PUBCHEM_CACTVS_HBOND_ACCEPTOR>
5

> <PUBCHEM_CACTVS_HBOND_DONOR>
0

> <PUBCHEM_CACTVS_ROTATABLE_BOND>
18

> <PUBCHEM_CACTVS_SUBSKEYS>
AAADcfB/sAAAAAAAAAAAAAAAAAAAAWLAAAAwYMGDAAAAAFgB/gAAHgAAAAAADQzhnwYz1rcMFACgAyZiZACCiC0hMqAJ2CA+fJiMbqLEuZuWOCjuwBPI6CeQ0KIOIAAAAAAAACBAAAAAAAAAQAAAAAAAAA==

> <PUBCHEM_IUPAC_OPENEYE_NAME>
3-[4-[1-[(E)-4-[2-[4-(3-cyclohexylpropoxy)phenyl]benzimidazol-1-yl]but-2-enyl]benzimidazol-2-yl]phenoxy]-N,N-diethyl-propan-1-amine

> <PUBCHEM_IUPAC_CAS_NAME>
3-[4-[1-[(E)-4-[2-[4-(3-cyclohexylpropoxy)phenyl]-1-benzimidazolyl]but-2-enyl]-2-benzimidazolyl]phenoxy]-N,N-diethyl-1-propanamine

> <PUBCHEM_IUPAC_NAME_MARKUP>
3-[4-[1-[(<I>E</I>)-4-[2-[4-(3-cyclohexylpropoxy)phenyl]benzimidazol-1-yl]but-2-enyl]benzimidazol-2-yl]phenoxy]-<I>N</I>,<I>N</I>-diethylpropan-1-amine

> <PUBCHEM_IUPAC_NAME>
3-[4-[1-[(E)-4-[2-[4-(3-cyclohexylpropoxy)phenyl]benzimidazol-1-yl]but-2-enyl]benzimidazol-2-yl]phenoxy]-N,N-diethylpropan-1-amine

> <PUBCHEM_IUPAC_SYSTEMATIC_NAME>
3-[4-[1-[(E)-4-[2-[4-(3-cyclohexylpropoxy)phenyl]benzimidazol-1-yl]but-2-enyl]benzimidazol-2-yl]phenoxy]-N,N-diethyl-propan-1-amine

> <PUBCHEM_IUPAC_TRADITIONAL_NAME>
3-[4-[1-[(E)-4-[2-[4-(3-cyclohexylpropoxy)phenyl]benzimidazol-1-yl]but-2-enyl]benzimidazol-2-yl]phenoxy]propyl-diethyl-amine

> <PUBCHEM_IUPAC_INCHI>
InChI=1S/C46H55N5O2/c1-3-49(4-2)31-15-35-53-40-29-25-38(26-30-40)46-48-42-20-9-11-22-44(42)51(46)33-13-12-32-50-43-21-10-8-19-41(43)47-45(50)37-23-27-39(28-24-37)52-34-14-18-36-16-6-5-7-17-36/h8-13,19-30,36H,3-7,14-18,31-35H2,1-2H3/b13-12+

> <PUBCHEM_IUPAC_INCHIKEY>
INHFSVLNFMQBGJ-OUKQBFOZSA-N

> <PUBCHEM_XLOGP3_AA>
11

> <PUBCHEM_EXACT_MASS>
709.43557601

> <PUBCHEM_MOLECULAR_FORMULA>
C46H55N5O2

> <PUBCHEM_MOLECULAR_WEIGHT>
710.0

> <PUBCHEM_OPENEYE_CAN_SMILES>
CCN(CC)CCCOC1=CC=C(C=C1)C2=NC3=CC=CC=C3N2CC=CCN4C5=CC=CC=C5N=C4C6=CC=C(C=C6)OCCCC7CCCCC7

> <PUBCHEM_OPENEYE_ISO_SMILES>
CCN(CC)CCCOC1=CC=C(C=C1)C2=NC3=CC=CC=C3N2C/C=C/CN4C5=CC=CC=C5N=C4C6=CC=C(C=C6)OCCCC7CCCCC7

> <PUBCHEM_CACTVS_TPSA>
57.3

> <PUBCHEM_MONOISOTOPIC_WEIGHT>
709.43557601

> <PUBCHEM_TOTAL_CHARGE>
0

> <PUBCHEM_HEAVY_ATOM_COUNT>
53

> <PUBCHEM_ATOM_DEF_STEREO_COUNT>
0

> <PUBCHEM_ATOM_UDEF_STEREO_COUNT>
0

> <PUBCHEM_BOND_DEF_STEREO_COUNT>
1

> <PUBCHEM_BOND_UDEF_STEREO_COUNT>
0

> <PUBCHEM_ISOTOPIC_ATOM_COUNT>
0

> <PUBCHEM_COMPONENT_COUNT>
1

> <PUBCHEM_CACTVS_TAUTO_COUNT>
-1

> <PUBCHEM_COORDINATE_TYPE>
1
5
255

> <PUBCHEM_BONDANNOTATIONS>
17  18  8
17  19  8
18  21  8
19  22  8
20  21  8
20  22  8
24  26  8
24  33  8
26  36  8
3  23  8
3  24  8
30  35  8
30  42  8
33  41  8
35  44  8
36  43  8
39  45  8
39  46  8
4  23  8
4  26  8
41  43  8
42  52  8
44  53  8
45  50  8
46  51  8
47  50  8
47  51  8
5  30  8
5  31  8
52  53  8
7  31  8
7  35  8

$$$$
