73354844
  -OEChem-09292322082D

 62 61  0     0  0  0  0  0  0999 V2000
    7.5726    2.5000    0.0000 Cl  0  0  0  0  0  0  0  0  0  0  0  0
    7.5726    0.0000    0.0000 Cl  0  0  0  0  0  0  0  0  0  0  0  0
    0.0369    5.4444    0.0000 Cl  0  0  0  0  0  0  0  0  0  0  0  0
    7.1794   13.1145    0.0000 S   0  0  0  0  0  0  0  0  0  0  0  0
    4.4768    7.6200    0.0000 O   0  0  0  0  0  0  0  0  0  0  0  0
   11.4601   10.4203    0.0000 O   0  0  0  0  0  0  0  0  0  0  0  0
    0.5369    7.9444    0.0000 O   0  0  0  0  0  0  0  0  0  0  0  0
    6.2089   10.6200    0.0000 N   0  0  0  0  0  0  0  0  0  0  0  0
    6.2089    8.6200    0.0000 N   0  0  0  0  0  0  0  0  0  0  0  0
    7.9884   11.7133    0.0000 N   0  0  0  0  0  0  0  0  0  0  0  0
    7.0749   10.1200    0.0000 C   0  0  0  0  0  0  0  0  0  0  0  0
    5.3429   10.1200    0.0000 C   0  0  0  0  0  0  0  0  0  0  0  0
    7.0749    9.1200    0.0000 C   0  0  0  0  0  0  0  0  0  0  0  0
    5.3429    9.1200    0.0000 C   0  0  0  0  0  0  0  0  0  0  0  0
    6.2089   11.6200    0.0000 C   0  0  0  0  0  0  0  0  0  0  0  0
    6.2089    7.6200    0.0000 C   0  0  0  0  0  0  0  0  0  0  0  0
    7.0749   12.1200    0.0000 C   0  0  0  0  0  0  0  0  0  0  0  0
    5.3429    7.1200    0.0000 C   0  0  0  0  0  0  0  0  0  0  0  0
    7.0749    7.1200    0.0000 C   0  0  0  0  0  0  0  0  0  0  0  0
    5.3429    6.1200    0.0000 C   0  0  0  0  0  0  0  0  0  0  0  0
    7.0749    6.1200    0.0000 C   0  0  0  0  0  0  0  0  0  0  0  0
    6.2089    5.6200    0.0000 C   0  0  0  0  0  0  0  0  0  0  0  0
    8.6576   12.4564    0.0000 C   0  0  0  0  0  0  0  0  0  0  0  0
    8.1576   13.3224    0.0000 C   0  0  0  0  0  0  0  0  0  0  0  0
    9.6521   12.3519    0.0000 C   0  0  0  0  0  0  0  0  0  0  0  0
    3.6108    7.1200    0.0000 C   0  0  0  0  0  0  0  0  0  0  0  0
   10.0588   11.4383    0.0000 C   0  0  0  0  0  0  0  0  0  0  0  0
   10.2399   13.1609    0.0000 C   0  0  0  0  0  0  0  0  0  0  0  0
   11.0534   11.3338    0.0000 C   0  0  0  0  0  0  0  0  0  0  0  0
   11.2344   13.0564    0.0000 C   0  0  0  0  0  0  0  0  0  0  0  0
   11.6412   12.1428    0.0000 C   0  0  0  0  0  0  0  0  0  0  0  0
   12.4546   10.3157    0.0000 C   0  0  0  0  0  0  0  0  0  0  0  0
    7.6855   10.0123    0.0000 H   0  0  0  0  0  0  0  0  0  0  0  0
    7.2870   10.7026    0.0000 H   0  0  0  0  0  0  0  0  0  0  0  0
    5.1308   10.7026    0.0000 H   0  0  0  0  0  0  0  0  0  0  0  0
    4.7323   10.0123    0.0000 H   0  0  0  0  0  0  0  0  0  0  0  0
    7.2870    8.5374    0.0000 H   0  0  0  0  0  0  0  0  0  0  0  0
    7.6855    9.2277    0.0000 H   0  0  0  0  0  0  0  0  0  0  0  0
    4.7323    9.2277    0.0000 H   0  0  0  0  0  0  0  0  0  0  0  0
    5.1308    8.5374    0.0000 H   0  0  0  0  0  0  0  0  0  0  0  0
    5.9968   12.2026    0.0000 H   0  0  0  0  0  0  0  0  0  0  0  0
    5.5983   11.5123    0.0000 H   0  0  0  0  0  0  0  0  0  0  0  0
    7.6118    7.4300    0.0000 H   0  0  0  0  0  0  0  0  0  0  0  0
    4.8059    5.8100    0.0000 H   0  0  0  0  0  0  0  0  0  0  0  0
    7.6118    5.8100    0.0000 H   0  0  0  0  0  0  0  0  0  0  0  0
    6.2089    5.0000    0.0000 H   0  0  0  0  0  0  0  0  0  0  0  0
    8.4098   13.8888    0.0000 H   0  0  0  0  0  0  0  0  0  0  0  0
    3.3008    7.6569    0.0000 H   0  0  0  0  0  0  0  0  0  0  0  0
    3.0739    6.8100    0.0000 H   0  0  0  0  0  0  0  0  0  0  0  0
    3.9208    6.5831    0.0000 H   0  0  0  0  0  0  0  0  0  0  0  0
    9.6944   10.9367    0.0000 H   0  0  0  0  0  0  0  0  0  0  0  0
    9.9877   13.7273    0.0000 H   0  0  0  0  0  0  0  0  0  0  0  0
   11.5988   13.5580    0.0000 H   0  0  0  0  0  0  0  0  0  0  0  0
   12.2578   12.0780    0.0000 H   0  0  0  0  0  0  0  0  0  0  0  0
   12.3898    9.6991    0.0000 H   0  0  0  0  0  0  0  0  0  0  0  0
   13.0712   10.2509    0.0000 H   0  0  0  0  0  0  0  0  0  0  0  0
   12.5194   10.9323    0.0000 H   0  0  0  0  0  0  0  0  0  0  0  0
    1.0739    8.2544    0.0000 H   0  0  0  0  0  0  0  0  0  0  0  0
    0.0000    8.2544    0.0000 H   0  0  0  0  0  0  0  0  0  0  0  0
    8.5726    2.5000    0.0000 H   0  0  0  0  0  0  0  0  0  0  0  0
    8.5726    0.0000    0.0000 H   0  0  0  0  0  0  0  0  0  0  0  0
    1.0369    5.4444    0.0000 H   0  0  0  0  0  0  0  0  0  0  0  0
  1 60  1  0  0  0  0
  2 61  1  0  0  0  0
  3 62  1  0  0  0  0
  4 17  1  0  0  0  0
  4 24  1  0  0  0  0
  5 18  1  0  0  0  0
  5 26  1  0  0  0  0
  6 29  1  0  0  0  0
  6 32  1  0  0  0  0
  7 58  1  0  0  0  0
  7 59  1  0  0  0  0
  8 11  1  0  0  0  0
  8 12  1  0  0  0  0
  8 15  1  0  0  0  0
  9 13  1  0  0  0  0
  9 14  1  0  0  0  0
  9 16  1  0  0  0  0
 10 17  2  0  0  0  0
 10 23  1  0  0  0  0
 11 13  1  0  0  0  0
 11 33  1  0  0  0  0
 11 34  1  0  0  0  0
 12 14  1  0  0  0  0
 12 35  1  0  0  0  0
 12 36  1  0  0  0  0
 13 37  1  0  0  0  0
 13 38  1  0  0  0  0
 14 39  1  0  0  0  0
 14 40  1  0  0  0  0
 15 17  1  0  0  0  0
 15 41  1  0  0  0  0
 15 42  1  0  0  0  0
 16 18  1  0  0  0  0
 16 19  2  0  0  0  0
 18 20  2  0  0  0  0
 19 21  1  0  0  0  0
 19 43  1  0  0  0  0
 20 22  1  0  0  0  0
 20 44  1  0  0  0  0
 21 22  2  0  0  0  0
 21 45  1  0  0  0  0
 22 46  1  0  0  0  0
 23 24  2  0  0  0  0
 23 25  1  0  0  0  0
 24 47  1  0  0  0  0
 25 27  2  0  0  0  0
 25 28  1  0  0  0  0
 26 48  1  0  0  0  0
 26 49  1  0  0  0  0
 26 50  1  0  0  0  0
 27 29  1  0  0  0  0
 27 51  1  0  0  0  0
 28 30  2  0  0  0  0
 28 52  1  0  0  0  0
 29 31  2  0  0  0  0
 30 31  1  0  0  0  0
 30 53  1  0  0  0  0
 31 54  1  0  0  0  0
 32 55  1  0  0  0  0
 32 56  1  0  0  0  0
 32 57  1  0  0  0  0
M  END
> <PUBCHEM_COMPOUND_CID>
73354844

> <PUBCHEM_COMPOUND_CANONICALIZED>
1

> <PUBCHEM_CACTVS_COMPLEXITY>
475

> <PUBCHEM_CACTVS_HBOND_ACCEPTOR>
7

> <PUBCHEM_CACTVS_HBOND_DONOR>
4

> <PUBCHEM_CACTVS_ROTATABLE_BOND>
6

> <PUBCHEM_CACTVS_SUBSKEYS>
AAADceB7MABGAAAAAAAAAAAAAAAAAWAAAAA8YIAAAAAAAAAB0AAAHgQACAAADAzF3gayx5MIFAikAyRiRACC+KBhKjgIiDQ/bJgOZqLksZuVMChkwBH46AewwLAOAAABAAAAEAAAAAIAAAAgAAAAAAAAAA==

> <PUBCHEM_IUPAC_OPENEYE_NAME>
4-(3-methoxyphenyl)-2-[[4-(2-methoxyphenyl)piperazin-1-yl]methyl]thiazole;hydrate;trihydrochloride

> <PUBCHEM_IUPAC_CAS_NAME>
4-(3-methoxyphenyl)-2-[[4-(2-methoxyphenyl)-1-piperazinyl]methyl]thiazole;hydrate;trihydrochloride

> <PUBCHEM_IUPAC_NAME_MARKUP>
4-(3-methoxyphenyl)-2-[[4-(2-methoxyphenyl)piperazin-1-yl]methyl]-1,3-thiazole;hydrate;trihydrochloride

> <PUBCHEM_IUPAC_NAME>
4-(3-methoxyphenyl)-2-[[4-(2-methoxyphenyl)piperazin-1-yl]methyl]-1,3-thiazole;hydrate;trihydrochloride

> <PUBCHEM_IUPAC_SYSTEMATIC_NAME>
4-(3-methoxyphenyl)-2-[[4-(2-methoxyphenyl)piperazin-1-yl]methyl]-1,3-thiazole;hydrate;trihydrochloride

> <PUBCHEM_IUPAC_TRADITIONAL_NAME>
4-(3-methoxyphenyl)-2-[[4-(2-methoxyphenyl)piperazino]methyl]thiazole;hydrate;trihydrochloride

> <PUBCHEM_IUPAC_INCHI>
InChI=1S/C22H25N3O2S.3ClH.H2O/c1-26-18-7-5-6-17(14-18)19-16-28-22(23-19)15-24-10-12-25(13-11-24)20-8-3-4-9-21(20)27-2;;;;/h3-9,14,16H,10-13,15H2,1-2H3;3*1H;1H2

> <PUBCHEM_IUPAC_INCHIKEY>
XWFKCVKPDWYFKY-UHFFFAOYSA-N

> <PUBCHEM_EXACT_MASS>
521.107346

> <PUBCHEM_MOLECULAR_FORMULA>
C22H30Cl3N3O3S

> <PUBCHEM_MOLECULAR_WEIGHT>
522.9

> <PUBCHEM_OPENEYE_CAN_SMILES>
COC1=CC=CC(=C1)C2=CSC(=N2)CN3CCN(CC3)C4=CC=CC=C4OC.O.Cl.Cl.Cl

> <PUBCHEM_OPENEYE_ISO_SMILES>
COC1=CC=CC(=C1)C2=CSC(=N2)CN3CCN(CC3)C4=CC=CC=C4OC.O.Cl.Cl.Cl

> <PUBCHEM_CACTVS_TPSA>
67.1

> <PUBCHEM_MONOISOTOPIC_WEIGHT>
521.107346

> <PUBCHEM_TOTAL_CHARGE>
0

> <PUBCHEM_HEAVY_ATOM_COUNT>
32

> <PUBCHEM_ATOM_DEF_STEREO_COUNT>
0

> <PUBCHEM_ATOM_UDEF_STEREO_COUNT>
0

> <PUBCHEM_BOND_DEF_STEREO_COUNT>
0

> <PUBCHEM_BOND_UDEF_STEREO_COUNT>
0

> <PUBCHEM_ISOTOPIC_ATOM_COUNT>
0

> <PUBCHEM_COMPONENT_COUNT>
5

> <PUBCHEM_CACTVS_TAUTO_COUNT>
-1

> <PUBCHEM_COORDINATE_TYPE>
1
5
255

> <PUBCHEM_BONDANNOTATIONS>
10  17  8
10  23  8
16  18  8
16  19  8
18  20  8
19  21  8
20  22  8
21  22  8
23  24  8
25  27  8
25  28  8
27  29  8
28  30  8
29  31  8
30  31  8
4  17  8
4  24  8

$$$$
