155565292
  -OEChem-09292322422D

 54 57  0     1  0  0  0  0  0999 V2000
    4.9889   -2.7018    0.0000 S   0  0  0  0  0  0  0  0  0  0  0  0
    5.9394   -2.3912    0.0000 O   0  0  0  0  0  0  0  0  0  0  0  0
    4.0384   -3.0125    0.0000 O   0  0  0  0  0  0  0  0  0  0  0  0
    2.8660    1.0534    0.0000 N   0  0  0  0  0  0  0  0  0  0  0  0
    2.8660    3.0534    0.0000 N   0  0  0  0  0  0  0  0  0  0  0  0
    4.6783   -1.7513    0.0000 N   0  0  3  0  0  0  0  0  0  0  0  0
    3.7320   -0.4466    0.0000 C   0  0  0  0  0  0  0  0  0  0  0  0
    2.0000    1.5534    0.0000 C   0  0  0  0  0  0  0  0  0  0  0  0
    3.7320    1.5534    0.0000 C   0  0  0  0  0  0  0  0  0  0  0  0
    2.8660    0.0534    0.0000 C   0  0  0  0  0  0  0  0  0  0  0  0
    2.0000    2.5534    0.0000 C   0  0  0  0  0  0  0  0  0  0  0  0
    3.7320    2.5534    0.0000 C   0  0  0  0  0  0  0  0  0  0  0  0
    4.6783   -0.1419    0.0000 C   0  0  0  0  0  0  0  0  0  0  0  0
    3.7320   -1.4466    0.0000 C   0  0  0  0  0  0  0  0  0  0  0  0
    5.2619   -0.9466    0.0000 C   0  0  0  0  0  0  0  0  0  0  0  0
    2.8660    4.0534    0.0000 C   0  0  0  0  0  0  0  0  0  0  0  0
    2.0000   -0.4466    0.0000 C   0  0  0  0  0  0  0  0  0  0  0  0
    2.8660   -1.9466    0.0000 C   0  0  0  0  0  0  0  0  0  0  0  0
    2.0000   -1.4466    0.0000 C   0  0  0  0  0  0  0  0  0  0  0  0
    2.0000    4.5534    0.0000 C   0  0  0  0  0  0  0  0  0  0  0  0
    5.2996   -3.6524    0.0000 C   0  0  0  0  0  0  0  0  0  0  0  0
    2.0000    5.5534    0.0000 C   0  0  0  0  0  0  0  0  0  0  0  0
    4.6318   -4.3967    0.0000 C   0  0  0  0  0  0  0  0  0  0  0  0
    6.2781   -3.8586    0.0000 C   0  0  0  0  0  0  0  0  0  0  0  0
    4.9424   -5.3472    0.0000 C   0  0  0  0  0  0  0  0  0  0  0  0
    6.5888   -4.8091    0.0000 C   0  0  0  0  0  0  0  0  0  0  0  0
    5.9209   -5.5534    0.0000 C   0  0  0  0  0  0  0  0  0  0  0  0
    1.3894    1.6611    0.0000 H   0  0  0  0  0  0  0  0  0  0  0  0
    1.7880    0.9708    0.0000 H   0  0  0  0  0  0  0  0  0  0  0  0
    3.9441    0.9708    0.0000 H   0  0  0  0  0  0  0  0  0  0  0  0
    4.3426    1.6611    0.0000 H   0  0  0  0  0  0  0  0  0  0  0  0
    1.7880    3.1360    0.0000 H   0  0  0  0  0  0  0  0  0  0  0  0
    1.3894    2.4457    0.0000 H   0  0  0  0  0  0  0  0  0  0  0  0
    4.3426    2.4457    0.0000 H   0  0  0  0  0  0  0  0  0  0  0  0
    3.9441    3.1360    0.0000 H   0  0  0  0  0  0  0  0  0  0  0  0
    5.2156    0.1674    0.0000 H   0  0  0  0  0  0  0  0  0  0  0  0
    4.4272    0.4250    0.0000 H   0  0  0  0  0  0  0  0  0  0  0  0
    5.7227   -1.3613    0.0000 H   0  0  0  0  0  0  0  0  0  0  0  0
    5.7227   -0.5319    0.0000 H   0  0  0  0  0  0  0  0  0  0  0  0
    3.4766    3.9457    0.0000 H   0  0  0  0  0  0  0  0  0  0  0  0
    3.0781    4.6360    0.0000 H   0  0  0  0  0  0  0  0  0  0  0  0
    1.4631   -0.1366    0.0000 H   0  0  0  0  0  0  0  0  0  0  0  0
    2.8660   -2.5666    0.0000 H   0  0  0  0  0  0  0  0  0  0  0  0
    1.4631   -1.7566    0.0000 H   0  0  0  0  0  0  0  0  0  0  0  0
    1.3894    4.6611    0.0000 H   0  0  0  0  0  0  0  0  0  0  0  0
    1.7880    3.9708    0.0000 H   0  0  0  0  0  0  0  0  0  0  0  0
    2.6200    5.5534    0.0000 H   0  0  0  0  0  0  0  0  0  0  0  0
    2.0000    6.1734    0.0000 H   0  0  0  0  0  0  0  0  0  0  0  0
    1.3800    5.5534    0.0000 H   0  0  0  0  0  0  0  0  0  0  0  0
    4.0251   -4.2688    0.0000 H   0  0  0  0  0  0  0  0  0  0  0  0
    6.6922   -3.3971    0.0000 H   0  0  0  0  0  0  0  0  0  0  0  0
    4.5284   -5.8086    0.0000 H   0  0  0  0  0  0  0  0  0  0  0  0
    7.1954   -4.9370    0.0000 H   0  0  0  0  0  0  0  0  0  0  0  0
    6.1135   -6.1427    0.0000 H   0  0  0  0  0  0  0  0  0  0  0  0
  1  2  2  0  0  0  0
  1  3  2  0  0  0  0
  1  6  1  0  0  0  0
  1 21  1  0  0  0  0
  4  8  1  0  0  0  0
  4  9  1  0  0  0  0
  4 10  1  0  0  0  0
  5 11  1  0  0  0  0
  5 12  1  0  0  0  0
  5 16  1  0  0  0  0
  6 14  1  0  0  0  0
  6 15  1  0  0  0  0
  7 10  2  0  0  0  0
  7 13  1  0  0  0  0
  7 14  1  0  0  0  0
  8 11  1  0  0  0  0
  8 28  1  0  0  0  0
  8 29  1  0  0  0  0
  9 12  1  0  0  0  0
  9 30  1  0  0  0  0
  9 31  1  0  0  0  0
 10 17  1  0  0  0  0
 11 32  1  0  0  0  0
 11 33  1  0  0  0  0
 12 34  1  0  0  0  0
 12 35  1  0  0  0  0
 13 15  1  0  0  0  0
 13 36  1  0  0  0  0
 13 37  1  0  0  0  0
 14 18  2  0  0  0  0
 15 38  1  0  0  0  0
 15 39  1  0  0  0  0
 16 20  1  0  0  0  0
 16 40  1  0  0  0  0
 16 41  1  0  0  0  0
 17 19  2  0  0  0  0
 17 42  1  0  0  0  0
 18 19  1  0  0  0  0
 18 43  1  0  0  0  0
 19 44  1  0  0  0  0
 20 22  1  0  0  0  0
 20 45  1  0  0  0  0
 20 46  1  0  0  0  0
 21 23  2  0  0  0  0
 21 24  1  0  0  0  0
 22 47  1  0  0  0  0
 22 48  1  0  0  0  0
 22 49  1  0  0  0  0
 23 25  1  0  0  0  0
 23 50  1  0  0  0  0
 24 26  2  0  0  0  0
 24 51  1  0  0  0  0
 25 27  2  0  0  0  0
 25 52  1  0  0  0  0
 26 27  1  0  0  0  0
 26 53  1  0  0  0  0
 27 54  1  0  0  0  0
M  END
> <PUBCHEM_COMPOUND_CID>
155565292

> <PUBCHEM_COMPOUND_CANONICALIZED>
1

> <PUBCHEM_CACTVS_COMPLEXITY>
577

> <PUBCHEM_CACTVS_HBOND_ACCEPTOR>
5

> <PUBCHEM_CACTVS_HBOND_DONOR>
0

> <PUBCHEM_CACTVS_ROTATABLE_BOND>
5

> <PUBCHEM_CACTVS_SUBSKEYS>
AAADceB7MABAAAAAAAAAAAAAAAAAAWAAAAA8YIAAAAAAAFgBQAAAHAQAQAAADAjBWAQywYMAAAKAAiRCQHDCABAhAgAIiBgIZIgIYCLA0dGUIAhggADIyAcQgIAOAAAAAAQCAAAAAAAACAQAAAAAAAAAAA==

> <PUBCHEM_IUPAC_OPENEYE_NAME>
1-(benzenesulfonyl)-4-(4-propylpiperazin-1-yl)indoline

> <PUBCHEM_IUPAC_CAS_NAME>
1-(benzenesulfonyl)-4-(4-propyl-1-piperazinyl)-2,3-dihydroindole

> <PUBCHEM_IUPAC_NAME_MARKUP>
1-(benzenesulfonyl)-4-(4-propylpiperazin-1-yl)-2,3-dihydroindole

> <PUBCHEM_IUPAC_NAME>
1-(benzenesulfonyl)-4-(4-propylpiperazin-1-yl)-2,3-dihydroindole

> <PUBCHEM_IUPAC_SYSTEMATIC_NAME>
1-(phenylsulfonyl)-4-(4-propylpiperazin-1-yl)-2,3-dihydroindole

> <PUBCHEM_IUPAC_TRADITIONAL_NAME>
1-besyl-4-(4-propylpiperazino)indoline

> <PUBCHEM_IUPAC_INCHI>
InChI=1S/C21H27N3O2S/c1-2-12-22-14-16-23(17-15-22)20-9-6-10-21-19(20)11-13-24(21)27(25,26)18-7-4-3-5-8-18/h3-10H,2,11-17H2,1H3

> <PUBCHEM_IUPAC_INCHIKEY>
VEMOQUROGJYIHS-UHFFFAOYSA-N

> <PUBCHEM_XLOGP3_AA>
3.5

> <PUBCHEM_EXACT_MASS>
385.18239829

> <PUBCHEM_MOLECULAR_FORMULA>
C21H27N3O2S

> <PUBCHEM_MOLECULAR_WEIGHT>
385.5

> <PUBCHEM_OPENEYE_CAN_SMILES>
CCCN1CCN(CC1)C2=C3CCN(C3=CC=C2)S(=O)(=O)C4=CC=CC=C4

> <PUBCHEM_OPENEYE_ISO_SMILES>
CCCN1CCN(CC1)C2=C3CCN(C3=CC=C2)S(=O)(=O)C4=CC=CC=C4

> <PUBCHEM_CACTVS_TPSA>
52.2

> <PUBCHEM_MONOISOTOPIC_WEIGHT>
385.18239829

> <PUBCHEM_TOTAL_CHARGE>
0

> <PUBCHEM_HEAVY_ATOM_COUNT>
27

> <PUBCHEM_ATOM_DEF_STEREO_COUNT>
0

> <PUBCHEM_ATOM_UDEF_STEREO_COUNT>
0

> <PUBCHEM_BOND_DEF_STEREO_COUNT>
0

> <PUBCHEM_BOND_UDEF_STEREO_COUNT>
0

> <PUBCHEM_ISOTOPIC_ATOM_COUNT>
0

> <PUBCHEM_COMPONENT_COUNT>
1

> <PUBCHEM_CACTVS_TAUTO_COUNT>
-1

> <PUBCHEM_COORDINATE_TYPE>
1
5
255

> <PUBCHEM_BONDANNOTATIONS>
10  17  8
14  18  8
17  19  8
18  19  8
21  23  8
21  24  8
23  25  8
24  26  8
25  27  8
26  27  8
7  10  8
7  14  8

$$$$
