44457651
  -OEChem-09292322152D

 57 60  0     1  0  0  0  0  0999 V2000
    3.5827    4.4618    0.0000 Cl  0  0  0  0  0  0  0  0  0  0  0  0
    7.0747    2.4272    0.0000 O   0  0  0  0  0  0  0  0  0  0  0  0
    6.1808    0.9618    0.0000 O   0  0  0  0  0  0  0  0  0  0  0  0
    3.4782   -1.5327    0.0000 N   0  0  3  0  0  0  0  0  0  0  0  0
    4.4487    0.9618    0.0000 N   0  0  0  0  0  0  0  0  0  0  0  0
    7.0747    4.4965    0.0000 N   0  0  3  0  0  0  0  0  0  0  0  0
    3.5827   -0.5382    0.0000 C   0  0  2  0  0  0  0  0  0  0  0  0
    2.6691   -0.1315    0.0000 C   0  0  0  0  0  0  0  0  0  0  0  0
    2.5000   -1.7406    0.0000 C   0  0  0  0  0  0  0  0  0  0  0  0
    2.0000   -0.8746    0.0000 C   0  0  0  0  0  0  0  0  0  0  0  0
    4.4487   -0.0382    0.0000 C   0  0  0  0  0  0  0  0  0  0  0  0
    4.2213   -2.2018    0.0000 C   0  0  0  0  0  0  0  0  0  0  0  0
    4.0134   -3.1800    0.0000 C   0  0  0  0  0  0  0  0  0  0  0  0
    4.7565   -3.8491    0.0000 C   0  0  0  0  0  0  0  0  0  0  0  0
    5.3147    1.4618    0.0000 C   0  0  0  0  0  0  0  0  0  0  0  0
    5.3147    2.4618    0.0000 C   0  0  0  0  0  0  0  0  0  0  0  0
    6.1808    2.9618    0.0000 C   0  0  0  0  0  0  0  0  0  0  0  0
    5.7076   -3.5401    0.0000 C   0  0  0  0  0  0  0  0  0  0  0  0
    4.5486   -4.8273    0.0000 C   0  0  0  0  0  0  0  0  0  0  0  0
    6.1808    3.9618    0.0000 C   0  0  0  0  0  0  0  0  0  0  0  0
    7.9808    3.9826    0.0000 C   0  0  0  0  0  0  0  0  0  0  0  0
    4.4487    2.9618    0.0000 C   0  0  0  0  0  0  0  0  0  0  0  0
    7.9808    2.9410    0.0000 C   0  0  0  0  0  0  0  0  0  0  0  0
    5.3147    4.4618    0.0000 C   0  0  0  0  0  0  0  0  0  0  0  0
    4.4487    3.9618    0.0000 C   0  0  0  0  0  0  0  0  0  0  0  0
    6.4507   -4.2092    0.0000 C   0  0  0  0  0  0  0  0  0  0  0  0
    5.2918   -5.4964    0.0000 C   0  0  0  0  0  0  0  0  0  0  0  0
    7.0631    5.4964    0.0000 C   0  0  0  0  0  0  0  0  0  0  0  0
    6.2428   -5.1874    0.0000 C   0  0  0  0  0  0  0  0  0  0  0  0
    4.1026   -0.8759    0.0000 H   0  0  0  0  0  0  0  0  0  0  0  0
    2.9791    0.4055    0.0000 H   0  0  0  0  0  0  0  0  0  0  0  0
    2.1675    0.2330    0.0000 H   0  0  0  0  0  0  0  0  0  0  0  0
    1.9336   -1.9928    0.0000 H   0  0  0  0  0  0  0  0  0  0  0  0
    2.6916   -2.3303    0.0000 H   0  0  0  0  0  0  0  0  0  0  0  0
    1.5851   -0.4139    0.0000 H   0  0  0  0  0  0  0  0  0  0  0  0
    1.4984   -1.2390    0.0000 H   0  0  0  0  0  0  0  0  0  0  0  0
    4.6608   -0.6208    0.0000 H   0  0  0  0  0  0  0  0  0  0  0  0
    5.0593    0.0695    0.0000 H   0  0  0  0  0  0  0  0  0  0  0  0
    4.7962   -2.4341    0.0000 H   0  0  0  0  0  0  0  0  0  0  0  0
    4.5498   -1.6761    0.0000 H   0  0  0  0  0  0  0  0  0  0  0  0
    3.4385   -2.9477    0.0000 H   0  0  0  0  0  0  0  0  0  0  0  0
    3.6848   -3.7058    0.0000 H   0  0  0  0  0  0  0  0  0  0  0  0
    3.9118    1.2718    0.0000 H   0  0  0  0  0  0  0  0  0  0  0  0
    5.8365   -2.9337    0.0000 H   0  0  0  0  0  0  0  0  0  0  0  0
    3.9590   -5.0189    0.0000 H   0  0  0  0  0  0  0  0  0  0  0  0
    8.5916    3.8765    0.0000 H   0  0  0  0  0  0  0  0  0  0  0  0
    8.1898    4.5663    0.0000 H   0  0  0  0  0  0  0  0  0  0  0  0
    8.1898    2.3573    0.0000 H   0  0  0  0  0  0  0  0  0  0  0  0
    8.5916    3.0471    0.0000 H   0  0  0  0  0  0  0  0  0  0  0  0
    3.9118    2.6518    0.0000 H   0  0  0  0  0  0  0  0  0  0  0  0
    5.3147    5.0818    0.0000 H   0  0  0  0  0  0  0  0  0  0  0  0
    7.0404   -4.0176    0.0000 H   0  0  0  0  0  0  0  0  0  0  0  0
    5.1628   -6.1028    0.0000 H   0  0  0  0  0  0  0  0  0  0  0  0
    7.6831    5.5036    0.0000 H   0  0  0  0  0  0  0  0  0  0  0  0
    7.0560    6.1164    0.0000 H   0  0  0  0  0  0  0  0  0  0  0  0
    6.4432    5.4892    0.0000 H   0  0  0  0  0  0  0  0  0  0  0  0
    6.7036   -5.6022    0.0000 H   0  0  0  0  0  0  0  0  0  0  0  0
  1 25  1  0  0  0  0
  2 17  1  0  0  0  0
  2 23  1  0  0  0  0
  3 15  2  0  0  0  0
  4  7  1  0  0  0  0
  4  9  1  0  0  0  0
  4 12  1  0  0  0  0
  5 11  1  0  0  0  0
  5 15  1  0  0  0  0
  5 43  1  0  0  0  0
  6 20  1  0  0  0  0
  6 21  1  0  0  0  0
  6 28  1  0  0  0  0
  7  8  1  0  0  0  0
  7 11  1  6  0  0  0
  7 30  1  0  0  0  0
  8 10  1  0  0  0  0
  8 31  1  0  0  0  0
  8 32  1  0  0  0  0
  9 10  1  0  0  0  0
  9 33  1  0  0  0  0
  9 34  1  0  0  0  0
 10 35  1  0  0  0  0
 10 36  1  0  0  0  0
 11 37  1  0  0  0  0
 11 38  1  0  0  0  0
 12 13  1  0  0  0  0
 12 39  1  0  0  0  0
 12 40  1  0  0  0  0
 13 14  1  0  0  0  0
 13 41  1  0  0  0  0
 13 42  1  0  0  0  0
 14 18  2  0  0  0  0
 14 19  1  0  0  0  0
 15 16  1  0  0  0  0
 16 17  2  0  0  0  0
 16 22  1  0  0  0  0
 17 20  1  0  0  0  0
 18 26  1  0  0  0  0
 18 44  1  0  0  0  0
 19 27  2  0  0  0  0
 19 45  1  0  0  0  0
 20 24  2  0  0  0  0
 21 23  1  0  0  0  0
 21 46  1  0  0  0  0
 21 47  1  0  0  0  0
 22 25  2  0  0  0  0
 22 50  1  0  0  0  0
 23 48  1  0  0  0  0
 23 49  1  0  0  0  0
 24 25  1  0  0  0  0
 24 51  1  0  0  0  0
 26 29  2  0  0  0  0
 26 52  1  0  0  0  0
 27 29  1  0  0  0  0
 27 53  1  0  0  0  0
 28 54  1  0  0  0  0
 28 55  1  0  0  0  0
 28 56  1  0  0  0  0
 29 57  1  0  0  0  0
M  END
> <PUBCHEM_COMPOUND_CID>
44457651

> <PUBCHEM_COMPOUND_CANONICALIZED>
1

> <PUBCHEM_CACTVS_COMPLEXITY>
542

> <PUBCHEM_CACTVS_HBOND_ACCEPTOR>
4

> <PUBCHEM_CACTVS_HBOND_DONOR>
1

> <PUBCHEM_CACTVS_ROTATABLE_BOND>
6

> <PUBCHEM_CACTVS_SUBSKEYS>
AAADceB7MAAEAAAAAAAAAAAAAAAAAWAAAAA8YIAAAAAAAACxQAAAHgIQAAAADC7hmCYyxoPABACIAiVSUACCCAAlJwAIiIENbsgOZjbFt5uXOWjm9hHY6YecyKCOACAAYAIIEAAAQADABBAgAAAAAAAAAA==

> <PUBCHEM_IUPAC_OPENEYE_NAME>
6-chloro-4-methyl-N-[[(2R)-1-(2-phenylethyl)pyrrolidin-2-yl]methyl]-2,3-dihydro-1,4-benzoxazine-8-carboxamide

> <PUBCHEM_IUPAC_CAS_NAME>
6-chloro-4-methyl-N-[[(2R)-1-(2-phenylethyl)-2-pyrrolidinyl]methyl]-2,3-dihydro-1,4-benzoxazine-8-carboxamide

> <PUBCHEM_IUPAC_NAME_MARKUP>
6-chloro-4-methyl-<I>N</I>-[[(2<I>R</I>)-1-(2-phenylethyl)pyrrolidin-2-yl]methyl]-2,3-dihydro-1,4-benzoxazine-8-carboxamide

> <PUBCHEM_IUPAC_NAME>
6-chloro-4-methyl-N-[[(2R)-1-(2-phenylethyl)pyrrolidin-2-yl]methyl]-2,3-dihydro-1,4-benzoxazine-8-carboxamide

> <PUBCHEM_IUPAC_SYSTEMATIC_NAME>
6-chloranyl-4-methyl-N-[[(2R)-1-(2-phenylethyl)pyrrolidin-2-yl]methyl]-2,3-dihydro-1,4-benzoxazine-8-carboxamide

> <PUBCHEM_IUPAC_TRADITIONAL_NAME>
6-chloro-4-methyl-N-[[(2R)-1-phenethylpyrrolidin-2-yl]methyl]-2,3-dihydro-1,4-benzoxazine-8-carboxamide

> <PUBCHEM_IUPAC_INCHI>
InChI=1S/C23H28ClN3O2/c1-26-12-13-29-22-20(14-18(24)15-21(22)26)23(28)25-16-19-8-5-10-27(19)11-9-17-6-3-2-4-7-17/h2-4,6-7,14-15,19H,5,8-13,16H2,1H3,(H,25,28)/t19-/m1/s1

> <PUBCHEM_IUPAC_INCHIKEY>
ZIGNSANQGXWXBU-LJQANCHMSA-N

> <PUBCHEM_XLOGP3_AA>
4.2

> <PUBCHEM_EXACT_MASS>
413.1870048

> <PUBCHEM_MOLECULAR_FORMULA>
C23H28ClN3O2

> <PUBCHEM_MOLECULAR_WEIGHT>
413.9

> <PUBCHEM_OPENEYE_CAN_SMILES>
CN1CCOC2=C(C=C(C=C21)Cl)C(=O)NCC3CCCN3CCC4=CC=CC=C4

> <PUBCHEM_OPENEYE_ISO_SMILES>
CN1CCOC2=C(C=C(C=C21)Cl)C(=O)NC[C@H]3CCCN3CCC4=CC=CC=C4

> <PUBCHEM_CACTVS_TPSA>
44.8

> <PUBCHEM_MONOISOTOPIC_WEIGHT>
413.1870048

> <PUBCHEM_TOTAL_CHARGE>
0

> <PUBCHEM_HEAVY_ATOM_COUNT>
29

> <PUBCHEM_ATOM_DEF_STEREO_COUNT>
1

> <PUBCHEM_ATOM_UDEF_STEREO_COUNT>
0

> <PUBCHEM_BOND_DEF_STEREO_COUNT>
0

> <PUBCHEM_BOND_UDEF_STEREO_COUNT>
0

> <PUBCHEM_ISOTOPIC_ATOM_COUNT>
0

> <PUBCHEM_COMPONENT_COUNT>
1

> <PUBCHEM_CACTVS_TAUTO_COUNT>
-1

> <PUBCHEM_COORDINATE_TYPE>
1
5
255

> <PUBCHEM_BONDANNOTATIONS>
14  18  8
14  19  8
16  17  8
16  22  8
17  20  8
18  26  8
19  27  8
20  24  8
22  25  8
24  25  8
26  29  8
27  29  8
7  11  6

$$$$
