45264529
  -OEChem-09292322202D

 55 57  0     0  0  0  0  0  0999 V2000
    6.3184    0.0000    0.0000 Cl  0  0  0  0  0  0  0  0  0  0  0  0
    0.0000    3.9030    0.0000 F   0  0  0  0  0  0  0  0  0  0  0  0
    9.5878    4.8260    0.0000 O   0  0  0  0  0  0  0  0  0  0  0  0
    9.2788    7.3951    0.0000 O   0  0  0  0  0  0  0  0  0  0  0  0
    4.5000    3.0369    0.0000 O   0  0  0  0  0  0  0  0  0  0  0  0
    7.0000    5.6350    0.0000 N   0  0  0  0  0  0  0  0  0  0  0  0
    9.0000    5.6350    0.0000 C   0  0  0  0  0  0  0  0  0  0  0  0
    8.5000    6.5010    0.0000 C   0  0  0  0  0  0  0  0  0  0  0  0
    8.5000    4.7690    0.0000 C   0  0  0  0  0  0  0  0  0  0  0  0
    7.5000    6.5010    0.0000 C   0  0  0  0  0  0  0  0  0  0  0  0
    7.5000    4.7690    0.0000 C   0  0  0  0  0  0  0  0  0  0  0  0
    9.5878    6.4440    0.0000 C   0  0  0  0  0  0  0  0  0  0  0  0
    6.0000    5.6350    0.0000 C   0  0  0  0  0  0  0  0  0  0  0  0
   10.5388    6.1350    0.0000 C   0  0  0  0  0  0  0  0  0  0  0  0
    5.5000    4.7690    0.0000 C   0  0  0  0  0  0  0  0  0  0  0  0
   10.5388    5.1350    0.0000 C   0  0  0  0  0  0  0  0  0  0  0  0
   11.3479    6.7228    0.0000 C   0  0  0  0  0  0  0  0  0  0  0  0
    4.5000    4.7690    0.0000 C   0  0  0  0  0  0  0  0  0  0  0  0
   11.2433    7.7173    0.0000 C   0  0  0  0  0  0  0  0  0  0  0  0
   12.2614    6.3161    0.0000 C   0  0  0  0  0  0  0  0  0  0  0  0
    4.0000    3.9030    0.0000 C   0  0  0  0  0  0  0  0  0  0  0  0
   12.0523    8.3051    0.0000 C   0  0  0  0  0  0  0  0  0  0  0  0
   13.0704    6.9038    0.0000 C   0  0  0  0  0  0  0  0  0  0  0  0
    3.0000    3.9030    0.0000 C   0  0  0  0  0  0  0  0  0  0  0  0
   12.9659    7.8984    0.0000 C   0  0  0  0  0  0  0  0  0  0  0  0
    2.5000    3.0369    0.0000 C   0  0  0  0  0  0  0  0  0  0  0  0
    2.5000    4.7690    0.0000 C   0  0  0  0  0  0  0  0  0  0  0  0
    1.5000    3.0369    0.0000 C   0  0  0  0  0  0  0  0  0  0  0  0
    1.5000    4.7690    0.0000 C   0  0  0  0  0  0  0  0  0  0  0  0
    1.0000    3.9030    0.0000 C   0  0  0  0  0  0  0  0  0  0  0  0
    9.0826    6.7131    0.0000 H   0  0  0  0  0  0  0  0  0  0  0  0
    8.3923    7.1116    0.0000 H   0  0  0  0  0  0  0  0  0  0  0  0
    8.3923    4.1584    0.0000 H   0  0  0  0  0  0  0  0  0  0  0  0
    9.0826    4.5569    0.0000 H   0  0  0  0  0  0  0  0  0  0  0  0
    7.6077    7.1116    0.0000 H   0  0  0  0  0  0  0  0  0  0  0  0
    6.9174    6.7131    0.0000 H   0  0  0  0  0  0  0  0  0  0  0  0
    6.9174    4.5569    0.0000 H   0  0  0  0  0  0  0  0  0  0  0  0
    7.6077    4.1584    0.0000 H   0  0  0  0  0  0  0  0  0  0  0  0
    6.1077    6.2456    0.0000 H   0  0  0  0  0  0  0  0  0  0  0  0
    5.4174    5.8471    0.0000 H   0  0  0  0  0  0  0  0  0  0  0  0
    5.3923    4.1584    0.0000 H   0  0  0  0  0  0  0  0  0  0  0  0
    6.0826    4.5569    0.0000 H   0  0  0  0  0  0  0  0  0  0  0  0
   11.0404    4.7706    0.0000 H   0  0  0  0  0  0  0  0  0  0  0  0
    4.6077    5.3796    0.0000 H   0  0  0  0  0  0  0  0  0  0  0  0
    3.9174    4.9810    0.0000 H   0  0  0  0  0  0  0  0  0  0  0  0
   10.6769    7.9695    0.0000 H   0  0  0  0  0  0  0  0  0  0  0  0
   12.3262    5.6995    0.0000 H   0  0  0  0  0  0  0  0  0  0  0  0
   11.9875    8.9217    0.0000 H   0  0  0  0  0  0  0  0  0  0  0  0
   13.6368    6.6517    0.0000 H   0  0  0  0  0  0  0  0  0  0  0  0
   13.4675    8.2628    0.0000 H   0  0  0  0  0  0  0  0  0  0  0  0
    2.8100    2.5000    0.0000 H   0  0  0  0  0  0  0  0  0  0  0  0
    2.8100    5.3059    0.0000 H   0  0  0  0  0  0  0  0  0  0  0  0
    1.1900    2.5000    0.0000 H   0  0  0  0  0  0  0  0  0  0  0  0
    1.1900    5.3059    0.0000 H   0  0  0  0  0  0  0  0  0  0  0  0
    7.3184    0.0000    0.0000 H   0  0  0  0  0  0  0  0  0  0  0  0
  1 55  1  0  0  0  0
  2 30  1  0  0  0  0
  3  7  1  0  0  0  0
  3 16  1  0  0  0  0
  4 12  2  0  0  0  0
  5 21  2  0  0  0  0
  6 10  1  0  0  0  0
  6 11  1  0  0  0  0
  6 13  1  0  0  0  0
  7  8  1  0  0  0  0
  7  9  1  0  0  0  0
  7 12  1  0  0  0  0
  8 10  1  0  0  0  0
  8 31  1  0  0  0  0
  8 32  1  0  0  0  0
  9 11  1  0  0  0  0
  9 33  1  0  0  0  0
  9 34  1  0  0  0  0
 10 35  1  0  0  0  0
 10 36  1  0  0  0  0
 11 37  1  0  0  0  0
 11 38  1  0  0  0  0
 12 14  1  0  0  0  0
 13 15  1  0  0  0  0
 13 39  1  0  0  0  0
 13 40  1  0  0  0  0
 14 16  2  0  0  0  0
 14 17  1  0  0  0  0
 15 18  1  0  0  0  0
 15 41  1  0  0  0  0
 15 42  1  0  0  0  0
 16 43  1  0  0  0  0
 17 19  2  0  0  0  0
 17 20  1  0  0  0  0
 18 21  1  0  0  0  0
 18 44  1  0  0  0  0
 18 45  1  0  0  0  0
 19 22  1  0  0  0  0
 19 46  1  0  0  0  0
 20 23  2  0  0  0  0
 20 47  1  0  0  0  0
 21 24  1  0  0  0  0
 22 25  2  0  0  0  0
 22 48  1  0  0  0  0
 23 25  1  0  0  0  0
 23 49  1  0  0  0  0
 24 26  2  0  0  0  0
 24 27  1  0  0  0  0
 25 50  1  0  0  0  0
 26 28  1  0  0  0  0
 26 51  1  0  0  0  0
 27 29  2  0  0  0  0
 27 52  1  0  0  0  0
 28 30  2  0  0  0  0
 28 53  1  0  0  0  0
 29 30  1  0  0  0  0
 29 54  1  0  0  0  0
M  END
> <PUBCHEM_COMPOUND_CID>
45264529

> <PUBCHEM_COMPOUND_CANONICALIZED>
1

> <PUBCHEM_CACTVS_COMPLEXITY>
624

> <PUBCHEM_CACTVS_HBOND_ACCEPTOR>
5

> <PUBCHEM_CACTVS_HBOND_DONOR>
1

> <PUBCHEM_CACTVS_ROTATABLE_BOND>
6

> <PUBCHEM_CACTVS_SUBSKEYS>
AAADceB6MQAEAAAAAAAAAAAAAAAAAQAAAAA8YIAAAAAAAAABQAAAHwAAAAAADEThmA4wAIMABACIAqBSAAICCAAkIAAIiAFIAMgIIDKAlRSEIQAmwACIiYecyOCOAAAAAAAAAAAAAAAAAAAAAAAAAAAAAA==

> <PUBCHEM_IUPAC_OPENEYE_NAME>
8-[4-(4-fluorophenyl)-4-oxo-butyl]-3-phenyl-1-oxa-8-azaspiro[4.5]dec-2-en-4-one;hydrochloride

> <PUBCHEM_IUPAC_CAS_NAME>
8-[4-(4-fluorophenyl)-4-oxobutyl]-3-phenyl-1-oxa-8-azaspiro[4.5]dec-2-en-4-one;hydrochloride

> <PUBCHEM_IUPAC_NAME_MARKUP>
8-[4-(4-fluorophenyl)-4-oxobutyl]-3-phenyl-1-oxa-8-azaspiro[4.5]dec-2-en-4-one;hydrochloride

> <PUBCHEM_IUPAC_NAME>
8-[4-(4-fluorophenyl)-4-oxobutyl]-3-phenyl-1-oxa-8-azaspiro[4.5]dec-2-en-4-one;hydrochloride

> <PUBCHEM_IUPAC_SYSTEMATIC_NAME>
8-[4-(4-fluorophenyl)-4-oxidanylidene-butyl]-3-phenyl-1-oxa-8-azaspiro[4.5]dec-2-en-4-one;hydrochloride

> <PUBCHEM_IUPAC_TRADITIONAL_NAME>
8-[4-(4-fluorophenyl)-4-keto-butyl]-3-phenyl-1-oxa-8-azaspiro[4.5]dec-2-en-4-one;hydrochloride

> <PUBCHEM_IUPAC_INCHI>
InChI=1S/C24H24FNO3.ClH/c25-20-10-8-19(9-11-20)22(27)7-4-14-26-15-12-24(13-16-26)23(28)21(17-29-24)18-5-2-1-3-6-18;/h1-3,5-6,8-11,17H,4,7,12-16H2;1H

> <PUBCHEM_IUPAC_INCHIKEY>
ADPZFQAIMASREL-UHFFFAOYSA-N

> <PUBCHEM_EXACT_MASS>
429.1506995

> <PUBCHEM_MOLECULAR_FORMULA>
C24H25ClFNO3

> <PUBCHEM_MOLECULAR_WEIGHT>
429.9

> <PUBCHEM_OPENEYE_CAN_SMILES>
C1CN(CCC12C(=O)C(=CO2)C3=CC=CC=C3)CCCC(=O)C4=CC=C(C=C4)F.Cl

> <PUBCHEM_OPENEYE_ISO_SMILES>
C1CN(CCC12C(=O)C(=CO2)C3=CC=CC=C3)CCCC(=O)C4=CC=C(C=C4)F.Cl

> <PUBCHEM_CACTVS_TPSA>
46.6

> <PUBCHEM_MONOISOTOPIC_WEIGHT>
429.1506995

> <PUBCHEM_TOTAL_CHARGE>
0

> <PUBCHEM_HEAVY_ATOM_COUNT>
30

> <PUBCHEM_ATOM_DEF_STEREO_COUNT>
0

> <PUBCHEM_ATOM_UDEF_STEREO_COUNT>
0

> <PUBCHEM_BOND_DEF_STEREO_COUNT>
0

> <PUBCHEM_BOND_UDEF_STEREO_COUNT>
0

> <PUBCHEM_ISOTOPIC_ATOM_COUNT>
0

> <PUBCHEM_COMPONENT_COUNT>
2

> <PUBCHEM_CACTVS_TAUTO_COUNT>
-1

> <PUBCHEM_COORDINATE_TYPE>
1
5
255

> <PUBCHEM_BONDANNOTATIONS>
17  19  8
17  20  8
19  22  8
20  23  8
22  25  8
23  25  8
24  26  8
24  27  8
26  28  8
27  29  8
28  30  8
29  30  8

$$$$
