149411903
  -OEChem-09292322432D

 59 63  0     1  0  0  0  0  0999 V2000
    7.1946    4.0596    0.0000 O   0  0  0  0  0  0  0  0  0  0  0  0
    9.8206    2.5250    0.0000 O   0  0  0  0  0  0  0  0  0  0  0  0
    3.7770   -2.0495    0.0000 O   0  0  0  0  0  0  0  0  0  0  0  0
    7.1946    1.9903    0.0000 N   0  0  3  0  0  0  0  0  0  0  0  0
    5.5089   -2.0295    0.0000 N   0  0  0  0  0  0  0  0  0  0  0  0
    8.0886    2.5250    0.0000 C   0  0  1  0  0  0  0  0  0  0  0  0
    8.0886    3.5250    0.0000 C   0  0  1  0  0  0  0  0  0  0  0  0
    6.2886    2.5042    0.0000 C   0  0  0  0  0  0  0  0  0  0  0  0
    8.9546    2.0250    0.0000 C   0  0  0  0  0  0  0  0  0  0  0  0
    7.2062    0.9904    0.0000 C   0  0  0  0  0  0  0  0  0  0  0  0
    8.9546    4.0250    0.0000 C   0  0  0  0  0  0  0  0  0  0  0  0
    6.2886    3.5458    0.0000 C   0  0  0  0  0  0  0  0  0  0  0  0
    6.3460    0.4804    0.0000 C   0  0  0  0  0  0  0  0  0  0  0  0
    9.8206    3.5250    0.0000 C   0  0  0  0  0  0  0  0  0  0  0  0
    6.3576   -0.5195    0.0000 C   0  0  0  0  0  0  0  0  0  0  0  0
    8.9385    5.0665    0.0000 C   0  0  0  0  0  0  0  0  0  0  0  0
   10.7306    4.0318    0.0000 C   0  0  0  0  0  0  0  0  0  0  0  0
    5.4974   -1.0295    0.0000 C   0  0  0  0  0  0  0  0  0  0  0  0
    9.8366    5.5942    0.0000 C   0  0  0  0  0  0  0  0  0  0  0  0
   10.7386    5.0734    0.0000 C   0  0  0  0  0  0  0  0  0  0  0  0
    4.6488   -2.5394    0.0000 C   0  0  0  0  0  0  0  0  0  0  0  0
    4.6603   -3.5394    0.0000 C   0  0  0  0  0  0  0  0  0  0  0  0
    3.8001   -4.0493    0.0000 C   0  0  0  0  0  0  0  0  0  0  0  0
    3.8117   -5.0493    0.0000 C   0  0  0  0  0  0  0  0  0  0  0  0
    5.5321   -4.0293    0.0000 C   0  0  0  0  0  0  0  0  0  0  0  0
    2.9001   -3.5250    0.0000 C   0  0  0  0  0  0  0  0  0  0  0  0
    4.6834   -5.5392    0.0000 C   0  0  0  0  0  0  0  0  0  0  0  0
    5.5436   -5.0292    0.0000 C   0  0  0  0  0  0  0  0  0  0  0  0
    2.9240   -5.5942    0.0000 C   0  0  0  0  0  0  0  0  0  0  0  0
    2.0000   -4.0493    0.0000 C   0  0  0  0  0  0  0  0  0  0  0  0
    2.0120   -5.0909    0.0000 C   0  0  0  0  0  0  0  0  0  0  0  0
    8.0951    1.6750    0.0000 H   0  0  0  0  0  0  0  0  0  0  0  0
    8.0951    4.3750    0.0000 H   0  0  0  0  0  0  0  0  0  0  0  0
    5.6777    2.6102    0.0000 H   0  0  0  0  0  0  0  0  0  0  0  0
    6.0795    1.9205    0.0000 H   0  0  0  0  0  0  0  0  0  0  0  0
    8.5561    1.5500    0.0000 H   0  0  0  0  0  0  0  0  0  0  0  0
    9.3531    1.5500    0.0000 H   0  0  0  0  0  0  0  0  0  0  0  0
    7.4250    0.4103    0.0000 H   0  0  0  0  0  0  0  0  0  0  0  0
    7.8155    1.1051    0.0000 H   0  0  0  0  0  0  0  0  0  0  0  0
    6.0795    4.1295    0.0000 H   0  0  0  0  0  0  0  0  0  0  0  0
    5.6777    3.4397    0.0000 H   0  0  0  0  0  0  0  0  0  0  0  0
    6.1272    1.0605    0.0000 H   0  0  0  0  0  0  0  0  0  0  0  0
    5.7367    0.3657    0.0000 H   0  0  0  0  0  0  0  0  0  0  0  0
    6.5763   -1.0996    0.0000 H   0  0  0  0  0  0  0  0  0  0  0  0
    6.9669   -0.4048    0.0000 H   0  0  0  0  0  0  0  0  0  0  0  0
    8.3980    5.3703    0.0000 H   0  0  0  0  0  0  0  0  0  0  0  0
   11.2639    3.7156    0.0000 H   0  0  0  0  0  0  0  0  0  0  0  0
    5.2786   -0.4494    0.0000 H   0  0  0  0  0  0  0  0  0  0  0  0
    4.8881   -1.1442    0.0000 H   0  0  0  0  0  0  0  0  0  0  0  0
    9.8342    6.2142    0.0000 H   0  0  0  0  0  0  0  0  0  0  0  0
   11.2768    5.3814    0.0000 H   0  0  0  0  0  0  0  0  0  0  0  0
    6.0494   -2.3332    0.0000 H   0  0  0  0  0  0  0  0  0  0  0  0
    6.0654   -3.7131    0.0000 H   0  0  0  0  0  0  0  0  0  0  0  0
    2.9001   -2.9050    0.0000 H   0  0  0  0  0  0  0  0  0  0  0  0
    4.6906   -6.1592    0.0000 H   0  0  0  0  0  0  0  0  0  0  0  0
    6.0841   -5.3330    0.0000 H   0  0  0  0  0  0  0  0  0  0  0  0
    2.9383   -6.2141    0.0000 H   0  0  0  0  0  0  0  0  0  0  0  0
    1.4607   -3.7435    0.0000 H   0  0  0  0  0  0  0  0  0  0  0  0
    1.4800   -5.4091    0.0000 H   0  0  0  0  0  0  0  0  0  0  0  0
  1  7  1  0  0  0  0
  1 12  1  0  0  0  0
  2  9  1  0  0  0  0
  2 14  1  0  0  0  0
  3 21  2  0  0  0  0
  4  6  1  0  0  0  0
  4  8  1  0  0  0  0
  4 10  1  0  0  0  0
  5 18  1  0  0  0  0
  5 21  1  0  0  0  0
  5 52  1  0  0  0  0
  6  7  1  0  0  0  0
  6  9  1  0  0  0  0
  6 32  1  6  0  0  0
  7 11  1  0  0  0  0
  7 33  1  1  0  0  0
  8 12  1  0  0  0  0
  8 34  1  0  0  0  0
  8 35  1  0  0  0  0
  9 36  1  0  0  0  0
  9 37  1  0  0  0  0
 10 13  1  0  0  0  0
 10 38  1  0  0  0  0
 10 39  1  0  0  0  0
 11 14  1  0  0  0  0
 11 16  2  0  0  0  0
 12 40  1  0  0  0  0
 12 41  1  0  0  0  0
 13 15  1  0  0  0  0
 13 42  1  0  0  0  0
 13 43  1  0  0  0  0
 14 17  2  0  0  0  0
 15 18  1  0  0  0  0
 15 44  1  0  0  0  0
 15 45  1  0  0  0  0
 16 19  1  0  0  0  0
 16 46  1  0  0  0  0
 17 20  1  0  0  0  0
 17 47  1  0  0  0  0
 18 48  1  0  0  0  0
 18 49  1  0  0  0  0
 19 20  2  0  0  0  0
 19 50  1  0  0  0  0
 20 51  1  0  0  0  0
 21 22  1  0  0  0  0
 22 23  1  0  0  0  0
 22 25  2  0  0  0  0
 23 24  1  0  0  0  0
 23 26  2  0  0  0  0
 24 27  1  0  0  0  0
 24 29  2  0  0  0  0
 25 28  1  0  0  0  0
 25 53  1  0  0  0  0
 26 30  1  0  0  0  0
 26 54  1  0  0  0  0
 27 28  2  0  0  0  0
 27 55  1  0  0  0  0
 28 56  1  0  0  0  0
 29 31  1  0  0  0  0
 29 57  1  0  0  0  0
 30 31  2  0  0  0  0
 30 58  1  0  0  0  0
 31 59  1  0  0  0  0
M  END
> <PUBCHEM_COMPOUND_CID>
149411903

> <PUBCHEM_COMPOUND_CANONICALIZED>
1

> <PUBCHEM_CACTVS_COMPLEXITY>
599

> <PUBCHEM_CACTVS_HBOND_ACCEPTOR>
4

> <PUBCHEM_CACTVS_HBOND_DONOR>
1

> <PUBCHEM_CACTVS_ROTATABLE_BOND>
6

> <PUBCHEM_CACTVS_SUBSKEYS>
AAADceB7MAAAAAAAAAAAAAAAAAAAAAAAAAA8aMECAAAAAADxVAAAHgAQAAAADDzhmAYwBsPABACIAiFSEACCCAAkIAAIiIEODMgOJzKEtRuHOSjl1hGYqYe4yOCOgAACAAAYAAAAAAQAADAAAAAAAAAAAA==

> <PUBCHEM_IUPAC_OPENEYE_NAME>
N-[4-[(4aR,10bR)-3,4a,5,10b-tetrahydro-2H-chromeno[4,3-b][1,4]oxazin-4-yl]butyl]naphthalene-1-carboxamide

> <PUBCHEM_IUPAC_CAS_NAME>
N-[4-[(4aR,10bR)-3,4a,5,10b-tetrahydro-2H-[1]benzopyrano[4,3-b][1,4]oxazin-4-yl]butyl]-1-naphthalenecarboxamide

> <PUBCHEM_IUPAC_NAME_MARKUP>
<I>N</I>-[4-[(4<I>a</I><I>R</I>,10<I>b</I><I>R</I>)-3,4<I>a</I>,5,10<I>b</I>-tetrahydro-2<I>H</I>-chromeno[4,3-b][1,4]oxazin-4-yl]butyl]naphthalene-1-carboxamide

> <PUBCHEM_IUPAC_NAME>
N-[4-[(4aR,10bR)-3,4a,5,10b-tetrahydro-2H-chromeno[4,3-b][1,4]oxazin-4-yl]butyl]naphthalene-1-carboxamide

> <PUBCHEM_IUPAC_SYSTEMATIC_NAME>
N-[4-[(4aR,10bR)-3,4a,5,10b-tetrahydro-2H-chromeno[4,3-b][1,4]oxazin-4-yl]butyl]naphthalene-1-carboxamide

> <PUBCHEM_IUPAC_TRADITIONAL_NAME>
N-[4-[(4aR,10bR)-3,4a,5,10b-tetrahydro-2H-chromeno[4,3-b][1,4]oxazin-4-yl]butyl]-1-naphthamide

> <PUBCHEM_IUPAC_INCHI>
InChI=1S/C26H28N2O3/c29-26(21-12-7-9-19-8-1-2-10-20(19)21)27-14-5-6-15-28-16-17-30-25-22-11-3-4-13-24(22)31-18-23(25)28/h1-4,7-13,23,25H,5-6,14-18H2,(H,27,29)/t23-,25-/m1/s1

> <PUBCHEM_IUPAC_INCHIKEY>
YRKOVTCEVBZCGK-ILBGXUMGSA-N

> <PUBCHEM_XLOGP3_AA>
4.2

> <PUBCHEM_EXACT_MASS>
416.20999276

> <PUBCHEM_MOLECULAR_FORMULA>
C26H28N2O3

> <PUBCHEM_MOLECULAR_WEIGHT>
416.5

> <PUBCHEM_OPENEYE_CAN_SMILES>
C1COC2C(N1CCCCNC(=O)C3=CC=CC4=CC=CC=C43)COC5=CC=CC=C25

> <PUBCHEM_OPENEYE_ISO_SMILES>
C1CO[C@H]2[C@H](N1CCCCNC(=O)C3=CC=CC4=CC=CC=C43)COC5=CC=CC=C25

> <PUBCHEM_CACTVS_TPSA>
50.8

> <PUBCHEM_MONOISOTOPIC_WEIGHT>
416.20999276

> <PUBCHEM_TOTAL_CHARGE>
0

> <PUBCHEM_HEAVY_ATOM_COUNT>
31

> <PUBCHEM_ATOM_DEF_STEREO_COUNT>
2

> <PUBCHEM_ATOM_UDEF_STEREO_COUNT>
0

> <PUBCHEM_BOND_DEF_STEREO_COUNT>
0

> <PUBCHEM_BOND_UDEF_STEREO_COUNT>
0

> <PUBCHEM_ISOTOPIC_ATOM_COUNT>
0

> <PUBCHEM_COMPONENT_COUNT>
1

> <PUBCHEM_CACTVS_TAUTO_COUNT>
-1

> <PUBCHEM_COORDINATE_TYPE>
1
5
255

> <PUBCHEM_BONDANNOTATIONS>
11  14  8
11  16  8
14  17  8
16  19  8
17  20  8
19  20  8
22  23  8
22  25  8
23  24  8
23  26  8
24  27  8
24  29  8
25  28  8
26  30  8
27  28  8
29  31  8
30  31  8
6  32  6
7  33  5

$$$$
