145983468
  -OEChem-09292322392D

 61 66  0     1  0  0  0  0  0999 V2000
    3.0000   -0.9948    0.0000 S   0  0  0  0  0  0  0  0  0  0  0  0
   10.7369    1.0784    0.0000 S   0  0  0  0  0  0  0  0  0  0  0  0
    2.0000   -0.9948    0.0000 O   0  0  0  0  0  0  0  0  0  0  0  0
    4.0000   -0.9948    0.0000 O   0  0  0  0  0  0  0  0  0  0  0  0
    3.0000    0.0052    0.0000 N   0  0  3  0  0  0  0  0  0  0  0  0
    6.2071    1.5784    0.0000 N   0  0  0  0  0  0  0  0  0  0  0  0
    8.2071    1.5784    0.0000 N   0  0  0  0  0  0  0  0  0  0  0  0
    9.7907    0.7736    0.0000 N   0  0  0  0  0  0  0  0  0  0  0  0
    4.7600   -4.0294    0.0000 N   0  0  0  0  0  0  0  0  0  0  0  0
    3.7071    0.7123    0.0000 C   0  0  2  0  0  0  0  0  0  0  0  0
    3.0000    1.4194    0.0000 C   0  0  0  0  0  0  0  0  0  0  0  0
    2.2929    0.7123    0.0000 C   0  0  0  0  0  0  0  0  0  0  0  0
    4.7071    0.7123    0.0000 C   0  0  0  0  0  0  0  0  0  0  0  0
    5.2071    1.5784    0.0000 C   0  0  0  0  0  0  0  0  0  0  0  0
    6.7071    0.7123    0.0000 C   0  0  0  0  0  0  0  0  0  0  0  0
    6.7071    2.4444    0.0000 C   0  0  0  0  0  0  0  0  0  0  0  0
    7.7071    0.7123    0.0000 C   0  0  0  0  0  0  0  0  0  0  0  0
    7.7071    2.4444    0.0000 C   0  0  0  0  0  0  0  0  0  0  0  0
    3.0000   -1.9948    0.0000 C   0  0  0  0  0  0  0  0  0  0  0  0
    3.8660   -2.4948    0.0000 C   0  0  0  0  0  0  0  0  0  0  0  0
    9.2071    1.5784    0.0000 C   0  0  0  0  0  0  0  0  0  0  0  0
    2.1340   -2.4948    0.0000 C   0  0  0  0  0  0  0  0  0  0  0  0
    3.8660   -3.4948    0.0000 C   0  0  0  0  0  0  0  0  0  0  0  0
    9.7907    2.3831    0.0000 C   0  0  0  0  0  0  0  0  0  0  0  0
    2.1340   -3.4948    0.0000 C   0  0  0  0  0  0  0  0  0  0  0  0
    4.7600   -1.9601    0.0000 C   0  0  0  0  0  0  0  0  0  0  0  0
    3.0000   -3.9948    0.0000 C   0  0  0  0  0  0  0  0  0  0  0  0
   10.7412    2.0724    0.0000 C   0  0  0  0  0  0  0  0  0  0  0  0
    9.5845    3.3616    0.0000 C   0  0  0  0  0  0  0  0  0  0  0  0
    5.6660   -2.4740    0.0000 C   0  0  0  0  0  0  0  0  0  0  0  0
    5.6660   -3.5156    0.0000 C   0  0  0  0  0  0  0  0  0  0  0  0
   11.4855    2.7403    0.0000 C   0  0  0  0  0  0  0  0  0  0  0  0
   10.3288    4.0294    0.0000 C   0  0  0  0  0  0  0  0  0  0  0  0
   11.2793    3.7188    0.0000 C   0  0  0  0  0  0  0  0  0  0  0  0
    3.9444    0.1395    0.0000 H   0  0  0  0  0  0  0  0  0  0  0  0
    3.4384    1.8578    0.0000 H   0  0  0  0  0  0  0  0  0  0  0  0
    2.5616    1.8578    0.0000 H   0  0  0  0  0  0  0  0  0  0  0  0
    1.8545    1.1507    0.0000 H   0  0  0  0  0  0  0  0  0  0  0  0
    1.8545    0.2739    0.0000 H   0  0  0  0  0  0  0  0  0  0  0  0
    4.5994    0.1017    0.0000 H   0  0  0  0  0  0  0  0  0  0  0  0
    5.2897    0.5003    0.0000 H   0  0  0  0  0  0  0  0  0  0  0  0
    5.3148    2.1889    0.0000 H   0  0  0  0  0  0  0  0  0  0  0  0
    4.6245    1.7904    0.0000 H   0  0  0  0  0  0  0  0  0  0  0  0
    6.1245    0.5003    0.0000 H   0  0  0  0  0  0  0  0  0  0  0  0
    6.8148    0.1017    0.0000 H   0  0  0  0  0  0  0  0  0  0  0  0
    6.8148    3.0550    0.0000 H   0  0  0  0  0  0  0  0  0  0  0  0
    6.1245    2.6564    0.0000 H   0  0  0  0  0  0  0  0  0  0  0  0
    7.5994    0.1017    0.0000 H   0  0  0  0  0  0  0  0  0  0  0  0
    8.2897    0.5003    0.0000 H   0  0  0  0  0  0  0  0  0  0  0  0
    8.2897    2.6564    0.0000 H   0  0  0  0  0  0  0  0  0  0  0  0
    7.5994    3.0550    0.0000 H   0  0  0  0  0  0  0  0  0  0  0  0
    1.5970   -2.1848    0.0000 H   0  0  0  0  0  0  0  0  0  0  0  0
    1.5970   -3.8048    0.0000 H   0  0  0  0  0  0  0  0  0  0  0  0
    4.7528   -1.3402    0.0000 H   0  0  0  0  0  0  0  0  0  0  0  0
    3.0000   -4.6148    0.0000 H   0  0  0  0  0  0  0  0  0  0  0  0
    8.9952    3.5542    0.0000 H   0  0  0  0  0  0  0  0  0  0  0  0
    6.2018   -2.1619    0.0000 H   0  0  0  0  0  0  0  0  0  0  0  0
   12.0749    2.5477    0.0000 H   0  0  0  0  0  0  0  0  0  0  0  0
    6.2018   -3.8277    0.0000 H   0  0  0  0  0  0  0  0  0  0  0  0
   10.2009    4.6361    0.0000 H   0  0  0  0  0  0  0  0  0  0  0  0
   11.7408    4.1328    0.0000 H   0  0  0  0  0  0  0  0  0  0  0  0
  1  3  2  0  0  0  0
  1  4  2  0  0  0  0
  1  5  1  0  0  0  0
  1 19  1  0  0  0  0
  2  8  1  0  0  0  0
  2 28  1  0  0  0  0
  5 10  1  0  0  0  0
  5 12  1  0  0  0  0
  6 14  1  0  0  0  0
  6 15  1  0  0  0  0
  6 16  1  0  0  0  0
  7 17  1  0  0  0  0
  7 18  1  0  0  0  0
  7 21  1  0  0  0  0
  8 21  2  0  0  0  0
  9 23  1  0  0  0  0
  9 31  2  0  0  0  0
 10 11  1  0  0  0  0
 10 13  1  6  0  0  0
 10 35  1  0  0  0  0
 11 12  1  0  0  0  0
 11 36  1  0  0  0  0
 11 37  1  0  0  0  0
 12 38  1  0  0  0  0
 12 39  1  0  0  0  0
 13 14  1  0  0  0  0
 13 40  1  0  0  0  0
 13 41  1  0  0  0  0
 14 42  1  0  0  0  0
 14 43  1  0  0  0  0
 15 17  1  0  0  0  0
 15 44  1  0  0  0  0
 15 45  1  0  0  0  0
 16 18  1  0  0  0  0
 16 46  1  0  0  0  0
 16 47  1  0  0  0  0
 17 48  1  0  0  0  0
 17 49  1  0  0  0  0
 18 50  1  0  0  0  0
 18 51  1  0  0  0  0
 19 20  1  0  0  0  0
 19 22  2  0  0  0  0
 20 23  2  0  0  0  0
 20 26  1  0  0  0  0
 21 24  1  0  0  0  0
 22 25  1  0  0  0  0
 22 52  1  0  0  0  0
 23 27  1  0  0  0  0
 24 28  1  0  0  0  0
 24 29  2  0  0  0  0
 25 27  2  0  0  0  0
 25 53  1  0  0  0  0
 26 30  2  0  0  0  0
 26 54  1  0  0  0  0
 27 55  1  0  0  0  0
 28 32  2  0  0  0  0
 29 33  1  0  0  0  0
 29 56  1  0  0  0  0
 30 31  1  0  0  0  0
 30 57  1  0  0  0  0
 31 59  1  0  0  0  0
 32 34  1  0  0  0  0
 32 58  1  0  0  0  0
 33 34  2  0  0  0  0
 33 60  1  0  0  0  0
 34 61  1  0  0  0  0
M  END
> <PUBCHEM_COMPOUND_CID>
145983468

> <PUBCHEM_COMPOUND_CANONICALIZED>
1

> <PUBCHEM_CACTVS_COMPLEXITY>
800

> <PUBCHEM_CACTVS_HBOND_ACCEPTOR>
8

> <PUBCHEM_CACTVS_HBOND_DONOR>
0

> <PUBCHEM_CACTVS_ROTATABLE_BOND>
6

> <PUBCHEM_CACTVS_SUBSKEYS>
AAADceB7sABgAAAAAAAAAAAAAABYAWAAAAA8eIEAAAAAAFix/gAAHAQAQAAADCjBXgQ98fMIEAKkAzZnZHDDgDAxAiBJ2Dg4ZJiIYOLA2ZGUIAxggALIyAcQgIAOAAAAACAGAAAAAAAAQAwAAAAAAAAAAA==

> <PUBCHEM_IUPAC_OPENEYE_NAME>
3-[4-[2-[(2S)-1-(5-quinolylsulfonyl)azetidin-2-yl]ethyl]piperazin-1-yl]-1,2-benzothiazole

> <PUBCHEM_IUPAC_CAS_NAME>
3-[4-[2-[(2S)-1-(5-quinolinylsulfonyl)-2-azetidinyl]ethyl]-1-piperazinyl]-1,2-benzothiazole

> <PUBCHEM_IUPAC_NAME_MARKUP>
3-[4-[2-[(2<I>S</I>)-1-quinolin-5-ylsulfonylazetidin-2-yl]ethyl]piperazin-1-yl]-1,2-benzothiazole

> <PUBCHEM_IUPAC_NAME>
3-[4-[2-[(2S)-1-quinolin-5-ylsulfonylazetidin-2-yl]ethyl]piperazin-1-yl]-1,2-benzothiazole

> <PUBCHEM_IUPAC_SYSTEMATIC_NAME>
3-[4-[2-[(2S)-1-quinolin-5-ylsulfonylazetidin-2-yl]ethyl]piperazin-1-yl]-1,2-benzothiazole

> <PUBCHEM_IUPAC_TRADITIONAL_NAME>
3-[4-[2-[(2S)-1-(5-quinolylsulfonyl)azetidin-2-yl]ethyl]piperazino]-1,2-benzothiazole

> <PUBCHEM_IUPAC_INCHI>
InChI=1S/C25H27N5O2S2/c31-34(32,24-9-3-7-22-20(24)6-4-12-26-22)30-14-11-19(30)10-13-28-15-17-29(18-16-28)25-21-5-1-2-8-23(21)33-27-25/h1-9,12,19H,10-11,13-18H2/t19-/m0/s1

> <PUBCHEM_IUPAC_INCHIKEY>
ZEFQTKZNPBPUSX-IBGZPJMESA-N

> <PUBCHEM_XLOGP3_AA>
4.3

> <PUBCHEM_EXACT_MASS>
493.16061747

> <PUBCHEM_MOLECULAR_FORMULA>
C25H27N5O2S2

> <PUBCHEM_MOLECULAR_WEIGHT>
493.6

> <PUBCHEM_OPENEYE_CAN_SMILES>
C1CN(C1CCN2CCN(CC2)C3=NSC4=CC=CC=C43)S(=O)(=O)C5=CC=CC6=C5C=CC=N6

> <PUBCHEM_OPENEYE_ISO_SMILES>
C1CN([C@H]1CCN2CCN(CC2)C3=NSC4=CC=CC=C43)S(=O)(=O)C5=CC=CC6=C5C=CC=N6

> <PUBCHEM_CACTVS_TPSA>
106

> <PUBCHEM_MONOISOTOPIC_WEIGHT>
493.16061747

> <PUBCHEM_TOTAL_CHARGE>
0

> <PUBCHEM_HEAVY_ATOM_COUNT>
34

> <PUBCHEM_ATOM_DEF_STEREO_COUNT>
1

> <PUBCHEM_ATOM_UDEF_STEREO_COUNT>
0

> <PUBCHEM_BOND_DEF_STEREO_COUNT>
0

> <PUBCHEM_BOND_UDEF_STEREO_COUNT>
0

> <PUBCHEM_ISOTOPIC_ATOM_COUNT>
0

> <PUBCHEM_COMPONENT_COUNT>
1

> <PUBCHEM_CACTVS_TAUTO_COUNT>
-1

> <PUBCHEM_COORDINATE_TYPE>
1
5
255

> <PUBCHEM_BONDANNOTATIONS>
10  13  6
19  20  8
19  22  8
2  28  8
2  8  8
20  23  8
20  26  8
21  24  8
22  25  8
23  27  8
24  28  8
24  29  8
25  27  8
26  30  8
28  32  8
29  33  8
30  31  8
32  34  8
33  34  8
8  21  8
9  23  8
9  31  8

$$$$
