122178766
  -OEChem-09292322082D

 58 62  0     1  0  0  0  0  0999 V2000
   15.2337    0.9707    0.0000 S   0  0  0  0  0  0  0  0  0  0  0  0
    6.7619   -1.8365    0.0000 O   0  0  0  0  0  0  0  0  0  0  0  0
   12.2619    0.7615    0.0000 N   0  0  3  0  0  0  0  0  0  0  0  0
    6.7619   -0.1045    0.0000 N   0  0  0  0  0  0  0  0  0  0  0  0
    4.6783   -1.7752    0.0000 N   0  0  0  0  0  0  0  0  0  0  0  0
    9.7619   -0.1045    0.0000 C   0  0  0  0  0  0  0  0  0  0  0  0
    9.2619   -0.9705    0.0000 C   0  0  0  0  0  0  0  0  0  0  0  0
    9.2619    0.7615    0.0000 C   0  0  0  0  0  0  0  0  0  0  0  0
    7.7619   -0.1045    0.0000 C   0  0  0  0  0  0  0  0  0  0  0  0
    8.2619   -0.9705    0.0000 C   0  0  0  0  0  0  0  0  0  0  0  0
    8.2619    0.7615    0.0000 C   0  0  0  0  0  0  0  0  0  0  0  0
   10.7619   -0.1045    0.0000 C   0  0  0  0  0  0  0  0  0  0  0  0
   11.2619    0.7615    0.0000 C   0  0  0  0  0  0  0  0  0  0  0  0
   12.7619   -0.1045    0.0000 C   0  0  0  0  0  0  0  0  0  0  0  0
   12.7619    1.6276    0.0000 C   0  0  0  0  0  0  0  0  0  0  0  0
   13.7619   -0.1045    0.0000 C   0  0  0  0  0  0  0  0  0  0  0  0
   13.7619    1.6276    0.0000 C   0  0  0  0  0  0  0  0  0  0  0  0
   14.2619    0.7615    0.0000 C   0  0  0  0  0  0  0  0  0  0  0  0
    6.2619   -0.9705    0.0000 C   0  0  0  0  0  0  0  0  0  0  0  0
   14.4290    2.3646    0.0000 C   0  0  0  0  0  0  0  0  0  0  0  0
    5.2619   -0.9705    0.0000 C   0  0  0  0  0  0  0  0  0  0  0  0
   15.3368    1.9595    0.0000 C   0  0  0  0  0  0  0  0  0  0  0  0
    4.6783   -0.1658    0.0000 C   0  0  0  0  0  0  0  0  0  0  0  0
    3.7320   -1.4705    0.0000 C   0  0  0  0  0  0  0  0  0  0  0  0
    3.7320   -0.4705    0.0000 C   0  0  0  0  0  0  0  0  0  0  0  0
    2.8660   -1.9705    0.0000 C   0  0  0  0  0  0  0  0  0  0  0  0
    2.8660    0.0295    0.0000 C   0  0  0  0  0  0  0  0  0  0  0  0
    2.0000   -1.4705    0.0000 C   0  0  0  0  0  0  0  0  0  0  0  0
    2.0000   -0.4705    0.0000 C   0  0  0  0  0  0  0  0  0  0  0  0
   10.0719   -0.6414    0.0000 H   0  0  0  0  0  0  0  0  0  0  0  0
    9.1542   -1.5811    0.0000 H   0  0  0  0  0  0  0  0  0  0  0  0
    9.8445   -1.1826    0.0000 H   0  0  0  0  0  0  0  0  0  0  0  0
    9.8445    0.9736    0.0000 H   0  0  0  0  0  0  0  0  0  0  0  0
    9.1542    1.3721    0.0000 H   0  0  0  0  0  0  0  0  0  0  0  0
    7.4519    0.4324    0.0000 H   0  0  0  0  0  0  0  0  0  0  0  0
    7.6793   -1.1826    0.0000 H   0  0  0  0  0  0  0  0  0  0  0  0
    8.3695   -1.5811    0.0000 H   0  0  0  0  0  0  0  0  0  0  0  0
    8.3695    1.3721    0.0000 H   0  0  0  0  0  0  0  0  0  0  0  0
    7.6793    0.9736    0.0000 H   0  0  0  0  0  0  0  0  0  0  0  0
   10.6542   -0.7151    0.0000 H   0  0  0  0  0  0  0  0  0  0  0  0
   11.3445   -0.3165    0.0000 H   0  0  0  0  0  0  0  0  0  0  0  0
   11.3695    1.3721    0.0000 H   0  0  0  0  0  0  0  0  0  0  0  0
   10.6793    0.9736    0.0000 H   0  0  0  0  0  0  0  0  0  0  0  0
    6.4519    0.4324    0.0000 H   0  0  0  0  0  0  0  0  0  0  0  0
   12.1793   -0.3165    0.0000 H   0  0  0  0  0  0  0  0  0  0  0  0
   12.8695   -0.7151    0.0000 H   0  0  0  0  0  0  0  0  0  0  0  0
   12.8695    2.2381    0.0000 H   0  0  0  0  0  0  0  0  0  0  0  0
   12.1793    1.8396    0.0000 H   0  0  0  0  0  0  0  0  0  0  0  0
   13.6542   -0.7151    0.0000 H   0  0  0  0  0  0  0  0  0  0  0  0
   14.3445   -0.3165    0.0000 H   0  0  0  0  0  0  0  0  0  0  0  0
   14.3011    2.9712    0.0000 H   0  0  0  0  0  0  0  0  0  0  0  0
   15.8737    2.2695    0.0000 H   0  0  0  0  0  0  0  0  0  0  0  0
    4.8709   -2.3646    0.0000 H   0  0  0  0  0  0  0  0  0  0  0  0
    4.8709    0.4235    0.0000 H   0  0  0  0  0  0  0  0  0  0  0  0
    2.8660   -2.5905    0.0000 H   0  0  0  0  0  0  0  0  0  0  0  0
    2.8660    0.6495    0.0000 H   0  0  0  0  0  0  0  0  0  0  0  0
    1.4631   -1.7805    0.0000 H   0  0  0  0  0  0  0  0  0  0  0  0
    1.4631   -0.1605    0.0000 H   0  0  0  0  0  0  0  0  0  0  0  0
  1 18  1  0  0  0  0
  1 22  1  0  0  0  0
  2 19  2  0  0  0  0
  3 13  1  0  0  0  0
  3 14  1  0  0  0  0
  3 15  1  0  0  0  0
  4  9  1  0  0  0  0
  4 19  1  0  0  0  0
  4 44  1  0  0  0  0
  5 21  1  0  0  0  0
  5 24  1  0  0  0  0
  5 53  1  0  0  0  0
  6  7  1  0  0  0  0
  6  8  1  0  0  0  0
  6 12  1  0  0  0  0
  6 30  1  0  0  0  0
  7 10  1  0  0  0  0
  7 31  1  0  0  0  0
  7 32  1  0  0  0  0
  8 11  1  0  0  0  0
  8 33  1  0  0  0  0
  8 34  1  0  0  0  0
  9 10  1  0  0  0  0
  9 11  1  0  0  0  0
  9 35  1  0  0  0  0
 10 36  1  0  0  0  0
 10 37  1  0  0  0  0
 11 38  1  0  0  0  0
 11 39  1  0  0  0  0
 12 13  1  0  0  0  0
 12 40  1  0  0  0  0
 12 41  1  0  0  0  0
 13 42  1  0  0  0  0
 13 43  1  0  0  0  0
 14 16  1  0  0  0  0
 14 45  1  0  0  0  0
 14 46  1  0  0  0  0
 15 17  1  0  0  0  0
 15 47  1  0  0  0  0
 15 48  1  0  0  0  0
 16 18  1  0  0  0  0
 16 49  1  0  0  0  0
 16 50  1  0  0  0  0
 17 18  2  0  0  0  0
 17 20  1  0  0  0  0
 19 21  1  0  0  0  0
 20 22  2  0  0  0  0
 20 51  1  0  0  0  0
 21 23  2  0  0  0  0
 22 52  1  0  0  0  0
 23 25  1  0  0  0  0
 23 54  1  0  0  0  0
 24 25  1  0  0  0  0
 24 26  2  0  0  0  0
 25 27  2  0  0  0  0
 26 28  1  0  0  0  0
 26 55  1  0  0  0  0
 27 29  1  0  0  0  0
 27 56  1  0  0  0  0
 28 29  2  0  0  0  0
 28 57  1  0  0  0  0
 29 58  1  0  0  0  0
M  END
> <PUBCHEM_COMPOUND_CID>
122178766

> <PUBCHEM_COMPOUND_CANONICALIZED>
1

> <PUBCHEM_CACTVS_COMPLEXITY>
564

> <PUBCHEM_CACTVS_HBOND_ACCEPTOR>
3

> <PUBCHEM_CACTVS_HBOND_DONOR>
2

> <PUBCHEM_CACTVS_ROTATABLE_BOND>
5

> <PUBCHEM_CACTVS_SUBSKEYS>
AAADceB7IABAAAAAAAAAAAAAAAAAAWJAAAA8YIAAAAAAAFgB/AAAHgQQAAAADSjF3gSwwfPJkAisAyVyVACDgKAnCjBImbm4ZNgIYPLglbGUIQhglgDoyYcYiYCeAAAAAAACAAAQAAAAAAQAAAAAAAAAAA==

> <PUBCHEM_IUPAC_OPENEYE_NAME>
N-[4-[2-(6,7-dihydro-4H-thieno[3,2-c]pyridin-5-yl)ethyl]cyclohexyl]-1H-indole-2-carboxamide

> <PUBCHEM_IUPAC_CAS_NAME>
N-[4-[2-(6,7-dihydro-4H-thieno[3,2-c]pyridin-5-yl)ethyl]cyclohexyl]-1H-indole-2-carboxamide

> <PUBCHEM_IUPAC_NAME_MARKUP>
<I>N</I>-[4-[2-(6,7-dihydro-4<I>H</I>-thieno[3,2-c]pyridin-5-yl)ethyl]cyclohexyl]-1<I>H</I>-indole-2-carboxamide

> <PUBCHEM_IUPAC_NAME>
N-[4-[2-(6,7-dihydro-4H-thieno[3,2-c]pyridin-5-yl)ethyl]cyclohexyl]-1H-indole-2-carboxamide

> <PUBCHEM_IUPAC_SYSTEMATIC_NAME>
N-[4-[2-(6,7-dihydro-4H-thieno[3,2-c]pyridin-5-yl)ethyl]cyclohexyl]-1H-indole-2-carboxamide

> <PUBCHEM_IUPAC_TRADITIONAL_NAME>
N-[4-[2-(6,7-dihydro-4H-thieno[3,2-c]pyridin-5-yl)ethyl]cyclohexyl]-1H-indole-2-carboxamide

> <PUBCHEM_IUPAC_INCHI>
InChI=1S/C24H29N3OS/c28-24(22-15-18-3-1-2-4-21(18)26-22)25-20-7-5-17(6-8-20)9-12-27-13-10-23-19(16-27)11-14-29-23/h1-4,11,14-15,17,20,26H,5-10,12-13,16H2,(H,25,28)

> <PUBCHEM_IUPAC_INCHIKEY>
CCNIXDLQIKAMFP-UHFFFAOYSA-N

> <PUBCHEM_XLOGP3_AA>
4.8

> <PUBCHEM_EXACT_MASS>
407.20313373

> <PUBCHEM_MOLECULAR_FORMULA>
C24H29N3OS

> <PUBCHEM_MOLECULAR_WEIGHT>
407.6

> <PUBCHEM_OPENEYE_CAN_SMILES>
C1CC(CCC1CCN2CCC3=C(C2)C=CS3)NC(=O)C4=CC5=CC=CC=C5N4

> <PUBCHEM_OPENEYE_ISO_SMILES>
C1CC(CCC1CCN2CCC3=C(C2)C=CS3)NC(=O)C4=CC5=CC=CC=C5N4

> <PUBCHEM_CACTVS_TPSA>
76.4

> <PUBCHEM_MONOISOTOPIC_WEIGHT>
407.20313373

> <PUBCHEM_TOTAL_CHARGE>
0

> <PUBCHEM_HEAVY_ATOM_COUNT>
29

> <PUBCHEM_ATOM_DEF_STEREO_COUNT>
0

> <PUBCHEM_ATOM_UDEF_STEREO_COUNT>
0

> <PUBCHEM_BOND_DEF_STEREO_COUNT>
0

> <PUBCHEM_BOND_UDEF_STEREO_COUNT>
0

> <PUBCHEM_ISOTOPIC_ATOM_COUNT>
0

> <PUBCHEM_COMPONENT_COUNT>
1

> <PUBCHEM_CACTVS_TAUTO_COUNT>
-1

> <PUBCHEM_COORDINATE_TYPE>
1
5
255

> <PUBCHEM_BONDANNOTATIONS>
1  18  8
1  22  8
17  18  8
17  20  8
20  22  8
21  23  8
23  25  8
24  25  8
24  26  8
25  27  8
26  28  8
27  29  8
28  29  8
5  21  8
5  24  8

$$$$
