132606872
  -OEChem-09292322082D

 53 57  0     1  0  0  0  0  0999 V2000
   12.5904   -1.7820    0.0000 O   0  0  0  0  0  0  0  0  0  0  0  0
    7.2602   -0.2820    0.0000 N   0  0  3  0  0  0  0  0  0  0  0  0
   11.7243   -0.2820    0.0000 N   0  0  0  0  0  0  0  0  0  0  0  0
   13.5594    0.7067    0.0000 N   0  0  0  0  0  0  0  0  0  0  0  0
    2.0000   -1.3095    0.0000 N   0  0  0  0  0  0  0  0  0  0  0  0
    8.9923   -0.2820    0.0000 C   0  0  1  0  0  0  0  0  0  0  0  0
    9.9923   -0.2820    0.0000 C   0  0  1  0  0  0  0  0  0  0  0  0
    9.4923    0.5840    0.0000 C   0  0  0  0  0  0  0  0  0  0  0  0
    8.1263   -0.7820    0.0000 C   0  0  0  0  0  0  0  0  0  0  0  0
   10.8583   -0.7820    0.0000 C   0  0  0  0  0  0  0  0  0  0  0  0
    7.2602    0.7180    0.0000 C   0  0  0  0  0  0  0  0  0  0  0  0
    6.3942   -0.7820    0.0000 C   0  0  0  0  0  0  0  0  0  0  0  0
    6.3942    1.2180    0.0000 C   0  0  0  0  0  0  0  0  0  0  0  0
    5.5282   -0.2820    0.0000 C   0  0  0  0  0  0  0  0  0  0  0  0
    5.5282    0.7180    0.0000 C   0  0  0  0  0  0  0  0  0  0  0  0
   12.5904   -0.7820    0.0000 C   0  0  0  0  0  0  0  0  0  0  0  0
    4.6342   -0.8166    0.0000 C   0  0  0  0  0  0  0  0  0  0  0  0
    4.6342    1.2527    0.0000 C   0  0  0  0  0  0  0  0  0  0  0  0
   13.4564   -0.2820    0.0000 C   0  0  0  0  0  0  0  0  0  0  0  0
    3.7282   -0.3028    0.0000 C   0  0  0  0  0  0  0  0  0  0  0  0
    3.7282    0.7388    0.0000 C   0  0  0  0  0  0  0  0  0  0  0  0
   14.3642   -0.6871    0.0000 C   0  0  0  0  0  0  0  0  0  0  0  0
   14.5313    0.9160    0.0000 C   0  0  0  0  0  0  0  0  0  0  0  0
   15.0313    0.0499    0.0000 C   0  0  0  0  0  0  0  0  0  0  0  0
    2.8641   -0.8061    0.0000 C   0  0  0  0  0  0  0  0  0  0  0  0
   15.0313    1.7820    0.0000 C   0  0  0  0  0  0  0  0  0  0  0  0
   16.0313    0.0499    0.0000 C   0  0  0  0  0  0  0  0  0  0  0  0
   16.0313    1.7820    0.0000 C   0  0  0  0  0  0  0  0  0  0  0  0
   16.5313    0.9160    0.0000 C   0  0  0  0  0  0  0  0  0  0  0  0
    9.1528   -0.8808    0.0000 H   0  0  0  0  0  0  0  0  0  0  0  0
   10.4307    0.1564    0.0000 H   0  0  0  0  0  0  0  0  0  0  0  0
    9.9672    0.9826    0.0000 H   0  0  0  0  0  0  0  0  0  0  0  0
    9.0174    0.9826    0.0000 H   0  0  0  0  0  0  0  0  0  0  0  0
    7.7277   -1.2569    0.0000 H   0  0  0  0  0  0  0  0  0  0  0  0
    8.5248   -1.2569    0.0000 H   0  0  0  0  0  0  0  0  0  0  0  0
   10.4598   -1.2569    0.0000 H   0  0  0  0  0  0  0  0  0  0  0  0
   11.2568   -1.2569    0.0000 H   0  0  0  0  0  0  0  0  0  0  0  0
    7.8708    0.6104    0.0000 H   0  0  0  0  0  0  0  0  0  0  0  0
    7.4723    1.3006    0.0000 H   0  0  0  0  0  0  0  0  0  0  0  0
    5.9957   -1.2569    0.0000 H   0  0  0  0  0  0  0  0  0  0  0  0
    6.7928   -1.2569    0.0000 H   0  0  0  0  0  0  0  0  0  0  0  0
   11.7243    0.3380    0.0000 H   0  0  0  0  0  0  0  0  0  0  0  0
    6.7928    1.6930    0.0000 H   0  0  0  0  0  0  0  0  0  0  0  0
    5.9957    1.6930    0.0000 H   0  0  0  0  0  0  0  0  0  0  0  0
    4.6414   -1.4366    0.0000 H   0  0  0  0  0  0  0  0  0  0  0  0
    4.6414    1.8726    0.0000 H   0  0  0  0  0  0  0  0  0  0  0  0
    3.1924    1.0509    0.0000 H   0  0  0  0  0  0  0  0  0  0  0  0
   13.0980    1.1208    0.0000 H   0  0  0  0  0  0  0  0  0  0  0  0
   14.4920   -1.2938    0.0000 H   0  0  0  0  0  0  0  0  0  0  0  0
   14.7213    2.3189    0.0000 H   0  0  0  0  0  0  0  0  0  0  0  0
   16.3413   -0.4870    0.0000 H   0  0  0  0  0  0  0  0  0  0  0  0
   16.3413    2.3189    0.0000 H   0  0  0  0  0  0  0  0  0  0  0  0
   17.1513    0.9160    0.0000 H   0  0  0  0  0  0  0  0  0  0  0  0
  1 16  2  0  0  0  0
  2  9  1  0  0  0  0
  2 11  1  0  0  0  0
  2 12  1  0  0  0  0
  3 10  1  0  0  0  0
  3 16  1  0  0  0  0
  3 42  1  0  0  0  0
  4 19  1  0  0  0  0
  4 23  1  0  0  0  0
  4 48  1  0  0  0  0
  5 25  3  0  0  0  0
  6  7  1  0  0  0  0
  6  8  1  0  0  0  0
  6  9  1  6  0  0  0
  6 30  1  0  0  0  0
  7  8  1  0  0  0  0
  7 10  1  1  0  0  0
  7 31  1  0  0  0  0
  8 32  1  0  0  0  0
  8 33  1  0  0  0  0
  9 34  1  0  0  0  0
  9 35  1  0  0  0  0
 10 36  1  0  0  0  0
 10 37  1  0  0  0  0
 11 13  1  0  0  0  0
 11 38  1  0  0  0  0
 11 39  1  0  0  0  0
 12 14  1  0  0  0  0
 12 40  1  0  0  0  0
 12 41  1  0  0  0  0
 13 15  1  0  0  0  0
 13 43  1  0  0  0  0
 13 44  1  0  0  0  0
 14 15  2  0  0  0  0
 14 17  1  0  0  0  0
 15 18  1  0  0  0  0
 16 19  1  0  0  0  0
 17 20  2  0  0  0  0
 17 45  1  0  0  0  0
 18 21  2  0  0  0  0
 18 46  1  0  0  0  0
 19 22  2  0  0  0  0
 20 21  1  0  0  0  0
 20 25  1  0  0  0  0
 21 47  1  0  0  0  0
 22 24  1  0  0  0  0
 22 49  1  0  0  0  0
 23 24  1  0  0  0  0
 23 26  2  0  0  0  0
 24 27  2  0  0  0  0
 26 28  1  0  0  0  0
 26 50  1  0  0  0  0
 27 29  1  0  0  0  0
 27 51  1  0  0  0  0
 28 29  2  0  0  0  0
 28 52  1  0  0  0  0
 29 53  1  0  0  0  0
M  END
> <PUBCHEM_COMPOUND_CID>
132606872

> <PUBCHEM_COMPOUND_CANONICALIZED>
1

> <PUBCHEM_CACTVS_COMPLEXITY>
657

> <PUBCHEM_CACTVS_HBOND_ACCEPTOR>
3

> <PUBCHEM_CACTVS_HBOND_DONOR>
2

> <PUBCHEM_CACTVS_ROTATABLE_BOND>
5

> <PUBCHEM_CACTVS_SUBSKEYS>
AAADceB7oAAAAAAAAAAAAAAAGAAAAWAAAAA8YIAAAAAAAFix9AAAHgAQAAAADQjBngQwwPPJkAC4ByVyVACigCAnAiAImaG4ZNgI4PLAlbGUIQhglgDIyY8YicCewAACAAASAACAAAQAACQAAAAAAAAAAA==

> <PUBCHEM_IUPAC_OPENEYE_NAME>
N-[[(1R,2R)-2-[(7-cyano-3,4-dihydro-1H-isoquinolin-2-yl)methyl]cyclopropyl]methyl]-1H-indole-2-carboxamide

> <PUBCHEM_IUPAC_CAS_NAME>
N-[[(1R,2R)-2-[(7-cyano-3,4-dihydro-1H-isoquinolin-2-yl)methyl]cyclopropyl]methyl]-1H-indole-2-carboxamide

> <PUBCHEM_IUPAC_NAME_MARKUP>
<I>N</I>-[[(1<I>R</I>,2<I>R</I>)-2-[(7-cyano-3,4-dihydro-1<I>H</I>-isoquinolin-2-yl)methyl]cyclopropyl]methyl]-1<I>H</I>-indole-2-carboxamide

> <PUBCHEM_IUPAC_NAME>
N-[[(1R,2R)-2-[(7-cyano-3,4-dihydro-1H-isoquinolin-2-yl)methyl]cyclopropyl]methyl]-1H-indole-2-carboxamide

> <PUBCHEM_IUPAC_SYSTEMATIC_NAME>
N-[[(1R,2R)-2-[(7-cyano-3,4-dihydro-1H-isoquinolin-2-yl)methyl]cyclopropyl]methyl]-1H-indole-2-carboxamide

> <PUBCHEM_IUPAC_TRADITIONAL_NAME>
N-[[(1R,2R)-2-[(7-cyano-3,4-dihydro-1H-isoquinolin-2-yl)methyl]cyclopropyl]methyl]-1H-indole-2-carboxamide

> <PUBCHEM_IUPAC_INCHI>
InChI=1S/C24H24N4O/c25-12-16-5-6-17-7-8-28(14-20(17)9-16)15-21-10-19(21)13-26-24(29)23-11-18-3-1-2-4-22(18)27-23/h1-6,9,11,19,21,27H,7-8,10,13-15H2,(H,26,29)/t19-,21-/m0/s1

> <PUBCHEM_IUPAC_INCHIKEY>
ZCBXYIZYCUOYFO-FPOVZHCZSA-N

> <PUBCHEM_XLOGP3_AA>
3.6

> <PUBCHEM_EXACT_MASS>
384.19501140

> <PUBCHEM_MOLECULAR_FORMULA>
C24H24N4O

> <PUBCHEM_MOLECULAR_WEIGHT>
384.5

> <PUBCHEM_OPENEYE_CAN_SMILES>
C1CN(CC2=C1C=CC(=C2)C#N)CC3CC3CNC(=O)C4=CC5=CC=CC=C5N4

> <PUBCHEM_OPENEYE_ISO_SMILES>
C1CN(CC2=C1C=CC(=C2)C#N)C[C@@H]3C[C@H]3CNC(=O)C4=CC5=CC=CC=C5N4

> <PUBCHEM_CACTVS_TPSA>
71.9

> <PUBCHEM_MONOISOTOPIC_WEIGHT>
384.19501140

> <PUBCHEM_TOTAL_CHARGE>
0

> <PUBCHEM_HEAVY_ATOM_COUNT>
29

> <PUBCHEM_ATOM_DEF_STEREO_COUNT>
2

> <PUBCHEM_ATOM_UDEF_STEREO_COUNT>
0

> <PUBCHEM_BOND_DEF_STEREO_COUNT>
0

> <PUBCHEM_BOND_UDEF_STEREO_COUNT>
0

> <PUBCHEM_ISOTOPIC_ATOM_COUNT>
0

> <PUBCHEM_COMPONENT_COUNT>
1

> <PUBCHEM_CACTVS_TAUTO_COUNT>
-1

> <PUBCHEM_COORDINATE_TYPE>
1
5
255

> <PUBCHEM_BONDANNOTATIONS>
14  15  8
14  17  8
15  18  8
17  20  8
18  21  8
19  22  8
20  21  8
22  24  8
23  24  8
23  26  8
24  27  8
26  28  8
27  29  8
28  29  8
4  19  8
4  23  8
6  9  6
7  10  5

$$$$
