136020062
  -OEChem-09292322052D

132139  0     0  0  0  0  0  0999 V2000
    2.0000   12.6531    0.0000 Cl  0  0  0  0  0  0  0  0  0  0  0  0
   12.4175  -12.6531    0.0000 Cl  0  0  0  0  0  0  0  0  0  0  0  0
    8.8112    4.6564    0.0000 O   0  0  0  0  0  0  0  0  0  0  0  0
    5.6063   -4.6564    0.0000 O   0  0  0  0  0  0  0  0  0  0  0  0
    7.6390    9.0865    0.0000 N   0  0  0  0  0  0  0  0  0  0  0  0
    6.7784   -9.0865    0.0000 N   0  0  0  0  0  0  0  0  0  0  0  0
    6.7713   10.8885    0.0000 N   0  0  0  0  0  0  0  0  0  0  0  0
    7.6462  -10.8885    0.0000 N   0  0  0  0  0  0  0  0  0  0  0  0
    5.3374   11.7894    0.0000 N   0  0  0  0  0  0  0  0  0  0  0  0
    9.0801  -11.7894    0.0000 N   0  0  0  0  0  0  0  0  0  0  0  0
    7.3802    5.6321    0.0000 N   0  0  0  0  0  0  0  0  0  0  0  0
    7.0373   -5.6321    0.0000 N   0  0  0  0  0  0  0  0  0  0  0  0
    5.8374   13.9801    0.0000 N   0  0  0  0  0  0  0  0  0  0  0  0
    8.5800  -13.9801    0.0000 N   0  0  0  0  0  0  0  0  0  0  0  0
    8.2024    9.9128    0.0000 C   0  0  0  0  0  0  0  0  0  0  0  0
    6.6418    9.1613    0.0000 C   0  0  0  0  0  0  0  0  0  0  0  0
    6.2151   -9.9128    0.0000 C   0  0  0  0  0  0  0  0  0  0  0  0
    7.7756   -9.1613    0.0000 C   0  0  0  0  0  0  0  0  0  0  0  0
    7.7685   10.8137    0.0000 C   0  0  0  0  0  0  0  0  0  0  0  0
    6.2080   10.0622    0.0000 C   0  0  0  0  0  0  0  0  0  0  0  0
    6.6490  -10.8137    0.0000 C   0  0  0  0  0  0  0  0  0  0  0  0
    8.2095  -10.0622    0.0000 C   0  0  0  0  0  0  0  0  0  0  0  0
    8.0729    8.1855    0.0000 C   0  0  0  0  0  0  0  0  0  0  0  0
    6.3446   -8.1855    0.0000 C   0  0  0  0  0  0  0  0  0  0  0  0
    7.5096    7.3593    0.0000 C   0  0  0  0  0  0  0  0  0  0  0  0
    6.9079   -7.3593    0.0000 C   0  0  0  0  0  0  0  0  0  0  0  0
    6.3374   11.7894    0.0000 C   0  0  0  0  0  0  0  0  0  0  0  0
    8.0801  -11.7894    0.0000 C   0  0  0  0  0  0  0  0  0  0  0  0
    7.9435    6.4583    0.0000 C   0  0  0  0  0  0  0  0  0  0  0  0
    6.4740   -6.4583    0.0000 C   0  0  0  0  0  0  0  0  0  0  0  0
    6.9609   12.5713    0.0000 C   0  0  0  0  0  0  0  0  0  0  0  0
    7.4566  -12.5713    0.0000 C   0  0  0  0  0  0  0  0  0  0  0  0
    6.9918    0.4505    0.0000 C   0  0  0  0  0  0  0  0  0  0  0  0
    7.4257   -0.4505    0.0000 C   0  0  0  0  0  0  0  0  0  0  0  0
    7.5551    1.2767    0.0000 C   0  0  0  0  0  0  0  0  0  0  0  0
    6.8624   -1.2767    0.0000 C   0  0  0  0  0  0  0  0  0  0  0  0
    6.7384   13.5462    0.0000 C   0  0  0  0  0  0  0  0  0  0  0  0
    7.6791  -13.5462    0.0000 C   0  0  0  0  0  0  0  0  0  0  0  0
    7.1213    2.1777    0.0000 C   0  0  0  0  0  0  0  0  0  0  0  0
    7.2962   -2.1777    0.0000 C   0  0  0  0  0  0  0  0  0  0  0  0
    7.6846    3.0039    0.0000 C   0  0  0  0  0  0  0  0  0  0  0  0
    6.7329   -3.0039    0.0000 C   0  0  0  0  0  0  0  0  0  0  0  0
    7.2507    3.9049    0.0000 C   0  0  0  0  0  0  0  0  0  0  0  0
    7.1668   -3.9049    0.0000 C   0  0  0  0  0  0  0  0  0  0  0  0
    4.7139   12.5713    0.0000 C   0  0  0  0  0  0  0  0  0  0  0  0
    9.7036  -12.5713    0.0000 C   0  0  0  0  0  0  0  0  0  0  0  0
    7.9514   12.2489    0.0000 C   0  0  0  0  0  0  0  0  0  0  0  0
    6.4661  -12.2489    0.0000 C   0  0  0  0  0  0  0  0  0  0  0  0
    7.8140    4.7311    0.0000 C   0  0  0  0  0  0  0  0  0  0  0  0
    6.6035   -4.7311    0.0000 C   0  0  0  0  0  0  0  0  0  0  0  0
    4.9365   13.5462    0.0000 C   0  0  0  0  0  0  0  0  0  0  0  0
    9.4810  -13.5462    0.0000 C   0  0  0  0  0  0  0  0  0  0  0  0
    7.4910   14.2664    0.0000 C   0  0  0  0  0  0  0  0  0  0  0  0
    6.9265  -14.2664    0.0000 C   0  0  0  0  0  0  0  0  0  0  0  0
    8.7204   12.9515    0.0000 C   0  0  0  0  0  0  0  0  0  0  0  0
    5.6971  -12.9515    0.0000 C   0  0  0  0  0  0  0  0  0  0  0  0
    8.4887   13.9670    0.0000 C   0  0  0  0  0  0  0  0  0  0  0  0
    5.9288  -13.9670    0.0000 C   0  0  0  0  0  0  0  0  0  0  0  0
    3.7234   12.2490    0.0000 C   0  0  0  0  0  0  0  0  0  0  0  0
   10.6941  -12.2490    0.0000 C   0  0  0  0  0  0  0  0  0  0  0  0
    4.1839   14.2664    0.0000 C   0  0  0  0  0  0  0  0  0  0  0  0
   10.2336  -14.2664    0.0000 C   0  0  0  0  0  0  0  0  0  0  0  0
    2.9544   12.9515    0.0000 C   0  0  0  0  0  0  0  0  0  0  0  0
   11.4631  -12.9515    0.0000 C   0  0  0  0  0  0  0  0  0  0  0  0
    3.1862   13.9671    0.0000 C   0  0  0  0  0  0  0  0  0  0  0  0
   11.2313  -13.9671    0.0000 C   0  0  0  0  0  0  0  0  0  0  0  0
    8.6462    9.4798    0.0000 H   0  0  0  0  0  0  0  0  0  0  0  0
    8.7058   10.2747    0.0000 H   0  0  0  0  0  0  0  0  0  0  0  0
    6.0450    8.9933    0.0000 H   0  0  0  0  0  0  0  0  0  0  0  0
    6.7036    8.5443    0.0000 H   0  0  0  0  0  0  0  0  0  0  0  0
    5.7713   -9.4798    0.0000 H   0  0  0  0  0  0  0  0  0  0  0  0
    5.7117  -10.2747    0.0000 H   0  0  0  0  0  0  0  0  0  0  0  0
    8.3725   -8.9933    0.0000 H   0  0  0  0  0  0  0  0  0  0  0  0
    7.7139   -8.5443    0.0000 H   0  0  0  0  0  0  0  0  0  0  0  0
    8.3653   10.9816    0.0000 H   0  0  0  0  0  0  0  0  0  0  0  0
    7.7068   11.4306    0.0000 H   0  0  0  0  0  0  0  0  0  0  0  0
    5.7641   10.4951    0.0000 H   0  0  0  0  0  0  0  0  0  0  0  0
    5.7046    9.7003    0.0000 H   0  0  0  0  0  0  0  0  0  0  0  0
    6.0522  -10.9816    0.0000 H   0  0  0  0  0  0  0  0  0  0  0  0
    6.7107  -11.4306    0.0000 H   0  0  0  0  0  0  0  0  0  0  0  0
    8.6534  -10.4951    0.0000 H   0  0  0  0  0  0  0  0  0  0  0  0
    8.7129   -9.7003    0.0000 H   0  0  0  0  0  0  0  0  0  0  0  0
    8.5168    7.7526    0.0000 H   0  0  0  0  0  0  0  0  0  0  0  0
    8.5763    8.5475    0.0000 H   0  0  0  0  0  0  0  0  0  0  0  0
    5.9007   -7.7526    0.0000 H   0  0  0  0  0  0  0  0  0  0  0  0
    5.8412   -8.5475    0.0000 H   0  0  0  0  0  0  0  0  0  0  0  0
    7.0658    7.7922    0.0000 H   0  0  0  0  0  0  0  0  0  0  0  0
    7.0062    6.9974    0.0000 H   0  0  0  0  0  0  0  0  0  0  0  0
    7.3517   -7.7922    0.0000 H   0  0  0  0  0  0  0  0  0  0  0  0
    7.4113   -6.9974    0.0000 H   0  0  0  0  0  0  0  0  0  0  0  0
    8.3873    6.0254    0.0000 H   0  0  0  0  0  0  0  0  0  0  0  0
    8.4469    6.8203    0.0000 H   0  0  0  0  0  0  0  0  0  0  0  0
    6.0302   -6.0254    0.0000 H   0  0  0  0  0  0  0  0  0  0  0  0
    5.9706   -6.8203    0.0000 H   0  0  0  0  0  0  0  0  0  0  0  0
    6.5480    0.8834    0.0000 H   0  0  0  0  0  0  0  0  0  0  0  0
    6.4884    0.0886    0.0000 H   0  0  0  0  0  0  0  0  0  0  0  0
    7.8695   -0.8834    0.0000 H   0  0  0  0  0  0  0  0  0  0  0  0
    7.9291   -0.0886    0.0000 H   0  0  0  0  0  0  0  0  0  0  0  0
    7.9990    0.8438    0.0000 H   0  0  0  0  0  0  0  0  0  0  0  0
    8.0585    1.6386    0.0000 H   0  0  0  0  0  0  0  0  0  0  0  0
    6.4185   -0.8438    0.0000 H   0  0  0  0  0  0  0  0  0  0  0  0
    6.3590   -1.6386    0.0000 H   0  0  0  0  0  0  0  0  0  0  0  0
    6.7619    5.6784    0.0000 H   0  0  0  0  0  0  0  0  0  0  0  0
    7.6556   -5.6784    0.0000 H   0  0  0  0  0  0  0  0  0  0  0  0
    6.6774    2.6106    0.0000 H   0  0  0  0  0  0  0  0  0  0  0  0
    6.6178    1.8158    0.0000 H   0  0  0  0  0  0  0  0  0  0  0  0
    7.7401   -2.6106    0.0000 H   0  0  0  0  0  0  0  0  0  0  0  0
    7.7996   -1.8158    0.0000 H   0  0  0  0  0  0  0  0  0  0  0  0
    8.1284    2.5710    0.0000 H   0  0  0  0  0  0  0  0  0  0  0  0
    8.1880    3.3658    0.0000 H   0  0  0  0  0  0  0  0  0  0  0  0
    6.2891   -2.5710    0.0000 H   0  0  0  0  0  0  0  0  0  0  0  0
    6.2295   -3.3658    0.0000 H   0  0  0  0  0  0  0  0  0  0  0  0
    6.8069    4.3378    0.0000 H   0  0  0  0  0  0  0  0  0  0  0  0
    6.7473    3.5430    0.0000 H   0  0  0  0  0  0  0  0  0  0  0  0
    7.6106   -4.3378    0.0000 H   0  0  0  0  0  0  0  0  0  0  0  0
    7.6702   -3.5430    0.0000 H   0  0  0  0  0  0  0  0  0  0  0  0
    8.0824   11.6429    0.0000 H   0  0  0  0  0  0  0  0  0  0  0  0
    6.3351  -11.6429    0.0000 H   0  0  0  0  0  0  0  0  0  0  0  0
    5.8374   14.6001    0.0000 H   0  0  0  0  0  0  0  0  0  0  0  0
    8.5800  -14.6001    0.0000 H   0  0  0  0  0  0  0  0  0  0  0  0
    7.3460   14.8692    0.0000 H   0  0  0  0  0  0  0  0  0  0  0  0
    7.0715  -14.8692    0.0000 H   0  0  0  0  0  0  0  0  0  0  0  0
    9.3122   12.7665    0.0000 H   0  0  0  0  0  0  0  0  0  0  0  0
    5.1053  -12.7665    0.0000 H   0  0  0  0  0  0  0  0  0  0  0  0
    8.9415   14.3905    0.0000 H   0  0  0  0  0  0  0  0  0  0  0  0
    5.4760  -14.3905    0.0000 H   0  0  0  0  0  0  0  0  0  0  0  0
    3.5925   11.6429    0.0000 H   0  0  0  0  0  0  0  0  0  0  0  0
   10.8250  -11.6429    0.0000 H   0  0  0  0  0  0  0  0  0  0  0  0
    4.3289   14.8692    0.0000 H   0  0  0  0  0  0  0  0  0  0  0  0
   10.0886  -14.8692    0.0000 H   0  0  0  0  0  0  0  0  0  0  0  0
    2.7334   14.3905    0.0000 H   0  0  0  0  0  0  0  0  0  0  0  0
   11.6841  -14.3905    0.0000 H   0  0  0  0  0  0  0  0  0  0  0  0
  1 63  1  0  0  0  0
  2 64  1  0  0  0  0
  3 49  2  0  0  0  0
  4 50  2  0  0  0  0
  5 15  1  0  0  0  0
  5 16  1  0  0  0  0
  5 23  1  0  0  0  0
  6 17  1  0  0  0  0
  6 18  1  0  0  0  0
  6 24  1  0  0  0  0
  7 19  1  0  0  0  0
  7 20  1  0  0  0  0
  7 27  1  0  0  0  0
  8 21  1  0  0  0  0
  8 22  1  0  0  0  0
  8 28  1  0  0  0  0
  9 27  2  0  0  0  0
  9 45  1  0  0  0  0
 10 28  2  0  0  0  0
 10 46  1  0  0  0  0
 11 29  1  0  0  0  0
 11 49  1  0  0  0  0
 11103  1  0  0  0  0
 12 30  1  0  0  0  0
 12 50  1  0  0  0  0
 12104  1  0  0  0  0
 13 37  1  0  0  0  0
 13 51  1  0  0  0  0
 13119  1  0  0  0  0
 14 38  1  0  0  0  0
 14 52  1  0  0  0  0
 14120  1  0  0  0  0
 15 19  1  0  0  0  0
 15 67  1  0  0  0  0
 15 68  1  0  0  0  0
 16 20  1  0  0  0  0
 16 69  1  0  0  0  0
 16 70  1  0  0  0  0
 17 21  1  0  0  0  0
 17 71  1  0  0  0  0
 17 72  1  0  0  0  0
 18 22  1  0  0  0  0
 18 73  1  0  0  0  0
 18 74  1  0  0  0  0
 19 75  1  0  0  0  0
 19 76  1  0  0  0  0
 20 77  1  0  0  0  0
 20 78  1  0  0  0  0
 21 79  1  0  0  0  0
 21 80  1  0  0  0  0
 22 81  1  0  0  0  0
 22 82  1  0  0  0  0
 23 25  1  0  0  0  0
 23 83  1  0  0  0  0
 23 84  1  0  0  0  0
 24 26  1  0  0  0  0
 24 85  1  0  0  0  0
 24 86  1  0  0  0  0
 25 29  1  0  0  0  0
 25 87  1  0  0  0  0
 25 88  1  0  0  0  0
 26 30  1  0  0  0  0
 26 89  1  0  0  0  0
 26 90  1  0  0  0  0
 27 31  1  0  0  0  0
 28 32  1  0  0  0  0
 29 91  1  0  0  0  0
 29 92  1  0  0  0  0
 30 93  1  0  0  0  0
 30 94  1  0  0  0  0
 31 37  1  0  0  0  0
 31 47  2  0  0  0  0
 32 38  1  0  0  0  0
 32 48  2  0  0  0  0
 33 34  1  0  0  0  0
 33 35  1  0  0  0  0
 33 95  1  0  0  0  0
 33 96  1  0  0  0  0
 34 36  1  0  0  0  0
 34 97  1  0  0  0  0
 34 98  1  0  0  0  0
 35 39  1  0  0  0  0
 35 99  1  0  0  0  0
 35100  1  0  0  0  0
 36 40  1  0  0  0  0
 36101  1  0  0  0  0
 36102  1  0  0  0  0
 37 53  2  0  0  0  0
 38 54  2  0  0  0  0
 39 41  1  0  0  0  0
 39105  1  0  0  0  0
 39106  1  0  0  0  0
 40 42  1  0  0  0  0
 40107  1  0  0  0  0
 40108  1  0  0  0  0
 41 43  1  0  0  0  0
 41109  1  0  0  0  0
 41110  1  0  0  0  0
 42 44  1  0  0  0  0
 42111  1  0  0  0  0
 42112  1  0  0  0  0
 43 49  1  0  0  0  0
 43113  1  0  0  0  0
 43114  1  0  0  0  0
 44 50  1  0  0  0  0
 44115  1  0  0  0  0
 44116  1  0  0  0  0
 45 51  2  0  0  0  0
 45 59  1  0  0  0  0
 46 52  2  0  0  0  0
 46 60  1  0  0  0  0
 47 55  1  0  0  0  0
 47117  1  0  0  0  0
 48 56  1  0  0  0  0
 48118  1  0  0  0  0
 51 61  1  0  0  0  0
 52 62  1  0  0  0  0
 53 57  1  0  0  0  0
 53121  1  0  0  0  0
 54 58  1  0  0  0  0
 54122  1  0  0  0  0
 55 57  2  0  0  0  0
 55123  1  0  0  0  0
 56 58  2  0  0  0  0
 56124  1  0  0  0  0
 57125  1  0  0  0  0
 58126  1  0  0  0  0
 59 63  2  0  0  0  0
 59127  1  0  0  0  0
 60 64  2  0  0  0  0
 60128  1  0  0  0  0
 61 65  2  0  0  0  0
 61129  1  0  0  0  0
 62 66  2  0  0  0  0
 62130  1  0  0  0  0
 63 65  1  0  0  0  0
 64 66  1  0  0  0  0
 65131  1  0  0  0  0
 66132  1  0  0  0  0
M  END
> <PUBCHEM_COMPOUND_CID>
136020062

> <PUBCHEM_COMPOUND_CANONICALIZED>
1

> <PUBCHEM_CACTVS_COMPLEXITY>
1440

> <PUBCHEM_CACTVS_HBOND_ACCEPTOR>
8

> <PUBCHEM_CACTVS_HBOND_DONOR>
4

> <PUBCHEM_CACTVS_ROTATABLE_BOND>
21

> <PUBCHEM_CACTVS_SUBSKEYS>
AAADcfB/8AAGAAAAAAAAAAAAAAAAAAAAAAA8eMGCBAgAAAABVAAAHgIQAAAADArBmCQxwIPAAACoAidydACCAAEhBwAJiIEodpgIYPLB25GUIAhglgDIyAcYiICOAABAAAICACAAAIAABAQAQAAAAAAAAA==

> <PUBCHEM_IUPAC_OPENEYE_NAME>
N,N'-bis[3-[4-(3-chloro-11H-benzo[b][1,4]benzodiazepin-6-yl)piperazin-1-yl]propyl]dodecanediamide

> <PUBCHEM_IUPAC_CAS_NAME>
N,N'-bis[3-[4-(3-chloro-11H-benzo[b][1,4]benzodiazepin-6-yl)-1-piperazinyl]propyl]dodecanediamide

> <PUBCHEM_IUPAC_NAME_MARKUP>
<I>N</I>,<I>N</I>&apos;-bis[3-[4-(3-chloro-11<I>H</I>-benzo[b][1,4]benzodiazepin-6-yl)piperazin-1-yl]propyl]dodecanediamide

> <PUBCHEM_IUPAC_NAME>
N,N'-bis[3-[4-(3-chloro-11H-benzo[b][1,4]benzodiazepin-6-yl)piperazin-1-yl]propyl]dodecanediamide

> <PUBCHEM_IUPAC_SYSTEMATIC_NAME>
N,N'-bis[3-[4-(3-chloranyl-11H-benzo[b][1,4]benzodiazepin-6-yl)piperazin-1-yl]propyl]dodecanediamide

> <PUBCHEM_IUPAC_TRADITIONAL_NAME>
N,N'-bis[3-[4-(3-chloro-11H-benzo[b][1,4]benzodiazepin-6-yl)piperazino]propyl]dodecanediamide

> <PUBCHEM_IUPAC_INCHI>
InChI=1S/C52H66Cl2N10O2/c53-39-21-23-45-47(37-39)59-51(41-15-9-11-17-43(41)57-45)63-33-29-61(30-34-63)27-13-25-55-49(65)19-7-5-3-1-2-4-6-8-20-50(66)56-26-14-28-62-31-35-64(36-32-62)52-42-16-10-12-18-44(42)58-46-24-22-40(54)38-48(46)60-52/h9-12,15-18,21-24,37-38,57-58H,1-8,13-14,19-20,25-36H2,(H,55,65)(H,56,66)

> <PUBCHEM_IUPAC_INCHIKEY>
YNYUMHQXDBPDJN-UHFFFAOYSA-N

> <PUBCHEM_XLOGP3_AA>
9.1

> <PUBCHEM_EXACT_MASS>
932.4747268

> <PUBCHEM_MOLECULAR_FORMULA>
C52H66Cl2N10O2

> <PUBCHEM_MOLECULAR_WEIGHT>
934.0

> <PUBCHEM_OPENEYE_CAN_SMILES>
C1CN(CCN1CCCNC(=O)CCCCCCCCCCC(=O)NCCCN2CCN(CC2)C3=NC4=C(C=CC(=C4)Cl)NC5=CC=CC=C53)C6=NC7=C(C=CC(=C7)Cl)NC8=CC=CC=C86

> <PUBCHEM_OPENEYE_ISO_SMILES>
C1CN(CCN1CCCNC(=O)CCCCCCCCCCC(=O)NCCCN2CCN(CC2)C3=NC4=C(C=CC(=C4)Cl)NC5=CC=CC=C53)C6=NC7=C(C=CC(=C7)Cl)NC8=CC=CC=C86

> <PUBCHEM_CACTVS_TPSA>
120

> <PUBCHEM_MONOISOTOPIC_WEIGHT>
932.4747268

> <PUBCHEM_TOTAL_CHARGE>
0

> <PUBCHEM_HEAVY_ATOM_COUNT>
66

> <PUBCHEM_ATOM_DEF_STEREO_COUNT>
0

> <PUBCHEM_ATOM_UDEF_STEREO_COUNT>
0

> <PUBCHEM_BOND_DEF_STEREO_COUNT>
0

> <PUBCHEM_BOND_UDEF_STEREO_COUNT>
0

> <PUBCHEM_ISOTOPIC_ATOM_COUNT>
0

> <PUBCHEM_COMPONENT_COUNT>
1

> <PUBCHEM_CACTVS_TAUTO_COUNT>
-1

> <PUBCHEM_COORDINATE_TYPE>
1
5
255

> <PUBCHEM_BONDANNOTATIONS>
31  37  8
31  47  8
32  38  8
32  48  8
37  53  8
38  54  8
45  51  8
45  59  8
46  52  8
46  60  8
47  55  8
48  56  8
51  61  8
52  62  8
53  57  8
54  58  8
55  57  8
56  58  8
59  63  8
60  64  8
61  65  8
62  66  8
63  65  8
64  66  8

$$$$
