155541844
  -OEChem-09292322092D

 53 55  0     0  0  0  0  0  0999 V2000
    9.1962    5.7320    0.0000 Cl  0  0  0  0  0  0  0  0  0  0  0  0
    2.0000   -5.7320    0.0000 F   0  0  0  0  0  0  0  0  0  0  0  0
    6.6962    3.1340    0.0000 O   0  0  0  0  0  0  0  0  0  0  0  0
    7.1962    0.2679    0.0000 N   0  0  0  0  0  0  0  0  0  0  0  0
    7.1962    2.2680    0.0000 C   0  0  0  0  0  0  0  0  0  0  0  0
    8.0622    1.7680    0.0000 C   0  0  0  0  0  0  0  0  0  0  0  0
    6.3301    1.7680    0.0000 C   0  0  0  0  0  0  0  0  0  0  0  0
    8.0622    0.7679    0.0000 C   0  0  0  0  0  0  0  0  0  0  0  0
    6.3301    0.7679    0.0000 C   0  0  0  0  0  0  0  0  0  0  0  0
    7.1962   -0.7321    0.0000 C   0  0  0  0  0  0  0  0  0  0  0  0
    7.6962    3.1340    0.0000 C   0  0  0  0  0  0  0  0  0  0  0  0
    6.3301   -1.2320    0.0000 C   0  0  0  0  0  0  0  0  0  0  0  0
    6.3301   -2.2320    0.0000 C   0  0  0  0  0  0  0  0  0  0  0  0
    7.1962    4.0000    0.0000 C   0  0  0  0  0  0  0  0  0  0  0  0
    8.6962    3.1340    0.0000 C   0  0  0  0  0  0  0  0  0  0  0  0
    5.4641   -2.7320    0.0000 C   0  0  0  0  0  0  0  0  0  0  0  0
    5.4641   -3.7320    0.0000 C   0  0  0  0  0  0  0  0  0  0  0  0
    7.6962    4.8660    0.0000 C   0  0  0  0  0  0  0  0  0  0  0  0
    9.1962    4.0000    0.0000 C   0  0  0  0  0  0  0  0  0  0  0  0
    8.6962    4.8660    0.0000 C   0  0  0  0  0  0  0  0  0  0  0  0
    4.5981   -4.2320    0.0000 C   0  0  0  0  0  0  0  0  0  0  0  0
    4.5981   -5.2320    0.0000 C   0  0  0  0  0  0  0  0  0  0  0  0
    3.7320   -3.7320    0.0000 C   0  0  0  0  0  0  0  0  0  0  0  0
    3.7320   -5.7320    0.0000 C   0  0  0  0  0  0  0  0  0  0  0  0
    2.8660   -4.2320    0.0000 C   0  0  0  0  0  0  0  0  0  0  0  0
    2.8660   -5.2320    0.0000 C   0  0  0  0  0  0  0  0  0  0  0  0
    8.6728    1.6603    0.0000 H   0  0  0  0  0  0  0  0  0  0  0  0
    8.2742    2.3506    0.0000 H   0  0  0  0  0  0  0  0  0  0  0  0
    6.1181    2.3506    0.0000 H   0  0  0  0  0  0  0  0  0  0  0  0
    5.7196    1.6603    0.0000 H   0  0  0  0  0  0  0  0  0  0  0  0
    8.2742    0.1853    0.0000 H   0  0  0  0  0  0  0  0  0  0  0  0
    8.6728    0.8756    0.0000 H   0  0  0  0  0  0  0  0  0  0  0  0
    5.7196    0.8756    0.0000 H   0  0  0  0  0  0  0  0  0  0  0  0
    6.1181    0.1853    0.0000 H   0  0  0  0  0  0  0  0  0  0  0  0
    7.4082   -1.3147    0.0000 H   0  0  0  0  0  0  0  0  0  0  0  0
    7.8067   -0.6244    0.0000 H   0  0  0  0  0  0  0  0  0  0  0  0
    6.1181   -0.6494    0.0000 H   0  0  0  0  0  0  0  0  0  0  0  0
    5.7196   -1.3397    0.0000 H   0  0  0  0  0  0  0  0  0  0  0  0
    6.0762    3.1340    0.0000 H   0  0  0  0  0  0  0  0  0  0  0  0
    6.5422   -2.8147    0.0000 H   0  0  0  0  0  0  0  0  0  0  0  0
    6.9407   -2.1244    0.0000 H   0  0  0  0  0  0  0  0  0  0  0  0
    6.5762    4.0000    0.0000 H   0  0  0  0  0  0  0  0  0  0  0  0
    9.0062    2.5970    0.0000 H   0  0  0  0  0  0  0  0  0  0  0  0
    5.2520   -2.1494    0.0000 H   0  0  0  0  0  0  0  0  0  0  0  0
    4.8535   -2.8397    0.0000 H   0  0  0  0  0  0  0  0  0  0  0  0
    5.6762   -4.3147    0.0000 H   0  0  0  0  0  0  0  0  0  0  0  0
    6.0747   -3.6244    0.0000 H   0  0  0  0  0  0  0  0  0  0  0  0
    7.3862    5.4030    0.0000 H   0  0  0  0  0  0  0  0  0  0  0  0
    9.8162    4.0000    0.0000 H   0  0  0  0  0  0  0  0  0  0  0  0
    5.1350   -5.5420    0.0000 H   0  0  0  0  0  0  0  0  0  0  0  0
    3.7320   -3.1120    0.0000 H   0  0  0  0  0  0  0  0  0  0  0  0
    3.7320   -6.3520    0.0000 H   0  0  0  0  0  0  0  0  0  0  0  0
    2.3291   -3.9220    0.0000 H   0  0  0  0  0  0  0  0  0  0  0  0
  1 20  1  0  0  0  0
  2 26  1  0  0  0  0
  3  5  1  0  0  0  0
  3 39  1  0  0  0  0
  4  8  1  0  0  0  0
  4  9  1  0  0  0  0
  4 10  1  0  0  0  0
  5  6  1  0  0  0  0
  5  7  1  0  0  0  0
  5 11  1  0  0  0  0
  6  8  1  0  0  0  0
  6 27  1  0  0  0  0
  6 28  1  0  0  0  0
  7  9  1  0  0  0  0
  7 29  1  0  0  0  0
  7 30  1  0  0  0  0
  8 31  1  0  0  0  0
  8 32  1  0  0  0  0
  9 33  1  0  0  0  0
  9 34  1  0  0  0  0
 10 12  1  0  0  0  0
 10 35  1  0  0  0  0
 10 36  1  0  0  0  0
 11 14  2  0  0  0  0
 11 15  1  0  0  0  0
 12 13  1  0  0  0  0
 12 37  1  0  0  0  0
 12 38  1  0  0  0  0
 13 16  1  0  0  0  0
 13 40  1  0  0  0  0
 13 41  1  0  0  0  0
 14 18  1  0  0  0  0
 14 42  1  0  0  0  0
 15 19  2  0  0  0  0
 15 43  1  0  0  0  0
 16 17  1  0  0  0  0
 16 44  1  0  0  0  0
 16 45  1  0  0  0  0
 17 21  1  0  0  0  0
 17 46  1  0  0  0  0
 17 47  1  0  0  0  0
 18 20  2  0  0  0  0
 18 48  1  0  0  0  0
 19 20  1  0  0  0  0
 19 49  1  0  0  0  0
 21 22  2  0  0  0  0
 21 23  1  0  0  0  0
 22 24  1  0  0  0  0
 22 50  1  0  0  0  0
 23 25  2  0  0  0  0
 23 51  1  0  0  0  0
 24 26  2  0  0  0  0
 24 52  1  0  0  0  0
 25 26  1  0  0  0  0
 25 53  1  0  0  0  0
M  END
> <PUBCHEM_COMPOUND_CID>
155541844

> <PUBCHEM_COMPOUND_CANONICALIZED>
1

> <PUBCHEM_CACTVS_COMPLEXITY>
397

> <PUBCHEM_CACTVS_HBOND_ACCEPTOR>
3

> <PUBCHEM_CACTVS_HBOND_DONOR>
1

> <PUBCHEM_CACTVS_ROTATABLE_BOND>
7

> <PUBCHEM_CACTVS_SUBSKEYS>
AAADceB6IQAEAAAAAAAAAAAAAAAAAAAAAAA8YIAAAAAAAAABQAAAHwIACAAADEbBmCwwAIMAAgCAAiBCAAACAAAgBQAIiAAICogIJiKBkxCEcAAmwAGImAeQwOAOhAAAAAAAAAAIAAAAAAAAAAAAAAAAAA==

> <PUBCHEM_IUPAC_OPENEYE_NAME>
4-(4-chlorophenyl)-1-[5-(4-fluorophenyl)pentyl]piperidin-4-ol

> <PUBCHEM_IUPAC_CAS_NAME>
4-(4-chlorophenyl)-1-[5-(4-fluorophenyl)pentyl]-4-piperidinol

> <PUBCHEM_IUPAC_NAME_MARKUP>
4-(4-chlorophenyl)-1-[5-(4-fluorophenyl)pentyl]piperidin-4-ol

> <PUBCHEM_IUPAC_NAME>
4-(4-chlorophenyl)-1-[5-(4-fluorophenyl)pentyl]piperidin-4-ol

> <PUBCHEM_IUPAC_SYSTEMATIC_NAME>
4-(4-chlorophenyl)-1-[5-(4-fluorophenyl)pentyl]piperidin-4-ol

> <PUBCHEM_IUPAC_TRADITIONAL_NAME>
4-(4-chlorophenyl)-1-[5-(4-fluorophenyl)pentyl]piperidin-4-ol

> <PUBCHEM_IUPAC_INCHI>
InChI=1S/C22H27ClFNO/c23-20-9-7-19(8-10-20)22(26)13-16-25(17-14-22)15-3-1-2-4-18-5-11-21(24)12-6-18/h5-12,26H,1-4,13-17H2

> <PUBCHEM_IUPAC_INCHIKEY>
MQMHUVUFIHZNDA-UHFFFAOYSA-N

> <PUBCHEM_XLOGP3>
5.4

> <PUBCHEM_EXACT_MASS>
375.1765203

> <PUBCHEM_MOLECULAR_FORMULA>
C22H27ClFNO

> <PUBCHEM_MOLECULAR_WEIGHT>
375.9

> <PUBCHEM_OPENEYE_CAN_SMILES>
C1CN(CCC1(C2=CC=C(C=C2)Cl)O)CCCCCC3=CC=C(C=C3)F

> <PUBCHEM_OPENEYE_ISO_SMILES>
C1CN(CCC1(C2=CC=C(C=C2)Cl)O)CCCCCC3=CC=C(C=C3)F

> <PUBCHEM_CACTVS_TPSA>
23.5

> <PUBCHEM_MONOISOTOPIC_WEIGHT>
375.1765203

> <PUBCHEM_TOTAL_CHARGE>
0

> <PUBCHEM_HEAVY_ATOM_COUNT>
26

> <PUBCHEM_ATOM_DEF_STEREO_COUNT>
0

> <PUBCHEM_ATOM_UDEF_STEREO_COUNT>
0

> <PUBCHEM_BOND_DEF_STEREO_COUNT>
0

> <PUBCHEM_BOND_UDEF_STEREO_COUNT>
0

> <PUBCHEM_ISOTOPIC_ATOM_COUNT>
0

> <PUBCHEM_COMPONENT_COUNT>
1

> <PUBCHEM_CACTVS_TAUTO_COUNT>
-1

> <PUBCHEM_COORDINATE_TYPE>
1
5
255

> <PUBCHEM_BONDANNOTATIONS>
11  14  8
11  15  8
14  18  8
15  19  8
18  20  8
19  20  8
21  22  8
21  23  8
22  24  8
23  25  8
24  26  8
25  26  8

$$$$
