44329106
  -OEChem-09292322212D

 74 78  0     1  0  0  0  0  0999 V2000
    2.8602   -2.1268    0.0000 S   0  0  0  0  0  0  0  0  0  0  0  0
    3.7204   -1.6168    0.0000 O   0  0  0  0  0  0  0  0  0  0  0  0
    3.3702   -2.9870    0.0000 O   0  0  0  0  0  0  0  0  0  0  0  0
    2.3502   -1.2666    0.0000 O   0  0  0  0  0  0  0  0  0  0  0  0
   12.4522    2.3644    0.0000 O   0  0  0  0  0  0  0  0  0  0  0  0
    7.2448    1.4246    0.0000 N   0  0  3  0  0  0  0  0  0  0  0  0
   11.5689    0.8746    0.0000 N   0  0  0  0  0  0  0  0  0  0  0  0
    6.3348    0.9178    0.0000 C   0  0  2  0  0  0  0  0  0  0  0  0
    5.4688    1.4178    0.0000 C   0  0  1  0  0  0  0  0  0  0  0  0
    5.4527    2.4593    0.0000 C   0  0  0  0  0  0  0  0  0  0  0  0
    6.3348   -0.0823    0.0000 C   0  0  0  0  0  0  0  0  0  0  0  0
    7.2528    2.4662    0.0000 C   0  0  0  0  0  0  0  0  0  0  0  0
    6.3508    2.9870    0.0000 C   0  0  0  0  0  0  0  0  0  0  0  0
    4.6028    0.9178    0.0000 C   0  0  0  0  0  0  0  0  0  0  0  0
    5.4688   -0.5822    0.0000 C   0  0  0  0  0  0  0  0  0  0  0  0
    4.6028   -0.0823    0.0000 C   0  0  0  0  0  0  0  0  0  0  0  0
    8.1050    0.9146    0.0000 C   0  0  0  0  0  0  0  0  0  0  0  0
    3.7088    1.4524    0.0000 C   0  0  0  0  0  0  0  0  0  0  0  0
    8.9767    1.4046    0.0000 C   0  0  0  0  0  0  0  0  0  0  0  0
    3.7088   -0.6169    0.0000 C   0  0  0  0  0  0  0  0  0  0  0  0
    2.8027    0.9386    0.0000 C   0  0  0  0  0  0  0  0  0  0  0  0
    9.8369    0.8946    0.0000 C   0  0  0  0  0  0  0  0  0  0  0  0
    2.8027   -0.1031    0.0000 C   0  0  0  0  0  0  0  0  0  0  0  0
   10.7087    1.3845    0.0000 C   0  0  0  0  0  0  0  0  0  0  0  0
    2.0000   -2.6368    0.0000 C   0  0  0  0  0  0  0  0  0  0  0  0
   12.4406    1.3645    0.0000 C   0  0  0  0  0  0  0  0  0  0  0  0
   13.3008    0.8545    0.0000 C   0  0  0  0  0  0  0  0  0  0  0  0
   14.1725    1.3445    0.0000 C   0  0  0  0  0  0  0  0  0  0  0  0
   13.2892   -0.1454    0.0000 C   0  0  0  0  0  0  0  0  0  0  0  0
   15.0327    0.8345    0.0000 C   0  0  0  0  0  0  0  0  0  0  0  0
   14.1494   -0.6554    0.0000 C   0  0  0  0  0  0  0  0  0  0  0  0
   15.0212   -0.1654    0.0000 C   0  0  0  0  0  0  0  0  0  0  0  0
   15.8814   -0.6754    0.0000 C   0  0  0  0  0  0  0  0  0  0  0  0
   16.7531   -0.1855    0.0000 C   0  0  0  0  0  0  0  0  0  0  0  0
   15.8698   -1.6753    0.0000 C   0  0  0  0  0  0  0  0  0  0  0  0
   17.6133   -0.6954    0.0000 C   0  0  0  0  0  0  0  0  0  0  0  0
   16.7300   -2.1853    0.0000 C   0  0  0  0  0  0  0  0  0  0  0  0
   17.6017   -1.6954    0.0000 C   0  0  0  0  0  0  0  0  0  0  0  0
    7.0676    0.4871    0.0000 H   0  0  0  0  0  0  0  0  0  0  0  0
    6.2016    1.8484    0.0000 H   0  0  0  0  0  0  0  0  0  0  0  0
    5.2347    3.0397    0.0000 H   0  0  0  0  0  0  0  0  0  0  0  0
    4.8436    2.3438    0.0000 H   0  0  0  0  0  0  0  0  0  0  0  0
    6.5468   -0.6649    0.0000 H   0  0  0  0  0  0  0  0  0  0  0  0
    6.9454    0.0254    0.0000 H   0  0  0  0  0  0  0  0  0  0  0  0
    7.8628    2.3554    0.0000 H   0  0  0  0  0  0  0  0  0  0  0  0
    7.4664    3.0483    0.0000 H   0  0  0  0  0  0  0  0  0  0  0  0
    6.7481    3.4630    0.0000 H   0  0  0  0  0  0  0  0  0  0  0  0
    5.9498    3.4599    0.0000 H   0  0  0  0  0  0  0  0  0  0  0  0
    5.0702   -1.0572    0.0000 H   0  0  0  0  0  0  0  0  0  0  0  0
    5.8673   -1.0572    0.0000 H   0  0  0  0  0  0  0  0  0  0  0  0
    7.7010    0.4443    0.0000 H   0  0  0  0  0  0  0  0  0  0  0  0
    8.4980    0.4351    0.0000 H   0  0  0  0  0  0  0  0  0  0  0  0
    3.7160    2.0724    0.0000 H   0  0  0  0  0  0  0  0  0  0  0  0
    9.3807    1.8749    0.0000 H   0  0  0  0  0  0  0  0  0  0  0  0
    8.5837    1.8841    0.0000 H   0  0  0  0  0  0  0  0  0  0  0  0
    2.2670    1.2506    0.0000 H   0  0  0  0  0  0  0  0  0  0  0  0
    9.4329    0.4243    0.0000 H   0  0  0  0  0  0  0  0  0  0  0  0
   10.2299    0.4151    0.0000 H   0  0  0  0  0  0  0  0  0  0  0  0
    2.2670   -0.4151    0.0000 H   0  0  0  0  0  0  0  0  0  0  0  0
   11.1127    1.8548    0.0000 H   0  0  0  0  0  0  0  0  0  0  0  0
   10.3157    1.8641    0.0000 H   0  0  0  0  0  0  0  0  0  0  0  0
   11.5617    0.2546    0.0000 H   0  0  0  0  0  0  0  0  0  0  0  0
    1.6838   -2.1035    0.0000 H   0  0  0  0  0  0  0  0  0  0  0  0
    1.4667   -2.9530    0.0000 H   0  0  0  0  0  0  0  0  0  0  0  0
    2.3162   -3.1701    0.0000 H   0  0  0  0  0  0  0  0  0  0  0  0
   14.1797    1.9644    0.0000 H   0  0  0  0  0  0  0  0  0  0  0  0
   12.7487   -0.4492    0.0000 H   0  0  0  0  0  0  0  0  0  0  0  0
   15.5732    1.1383    0.0000 H   0  0  0  0  0  0  0  0  0  0  0  0
   14.1422   -1.2753    0.0000 H   0  0  0  0  0  0  0  0  0  0  0  0
   16.7603    0.4345    0.0000 H   0  0  0  0  0  0  0  0  0  0  0  0
   15.3293   -1.9791    0.0000 H   0  0  0  0  0  0  0  0  0  0  0  0
   18.1538   -0.3917    0.0000 H   0  0  0  0  0  0  0  0  0  0  0  0
   16.7228   -2.8053    0.0000 H   0  0  0  0  0  0  0  0  0  0  0  0
   18.1350   -2.0116    0.0000 H   0  0  0  0  0  0  0  0  0  0  0  0
  1  2  1  0  0  0  0
  1  3  2  0  0  0  0
  1  4  2  0  0  0  0
  1 25  1  0  0  0  0
  2 20  1  0  0  0  0
  5 26  2  0  0  0  0
  6  8  1  0  0  0  0
  6 12  1  0  0  0  0
  6 17  1  0  0  0  0
  7 24  1  0  0  0  0
  7 26  1  0  0  0  0
  7 62  1  0  0  0  0
  8  9  1  0  0  0  0
  8 11  1  0  0  0  0
  8 39  1  6  0  0  0
  9 10  1  0  0  0  0
  9 14  1  0  0  0  0
  9 40  1  1  0  0  0
 10 13  1  0  0  0  0
 10 41  1  0  0  0  0
 10 42  1  0  0  0  0
 11 15  1  0  0  0  0
 11 43  1  0  0  0  0
 11 44  1  0  0  0  0
 12 13  1  0  0  0  0
 12 45  1  0  0  0  0
 12 46  1  0  0  0  0
 13 47  1  0  0  0  0
 13 48  1  0  0  0  0
 14 16  2  0  0  0  0
 14 18  1  0  0  0  0
 15 16  1  0  0  0  0
 15 49  1  0  0  0  0
 15 50  1  0  0  0  0
 16 20  1  0  0  0  0
 17 19  1  0  0  0  0
 17 51  1  0  0  0  0
 17 52  1  0  0  0  0
 18 21  2  0  0  0  0
 18 53  1  0  0  0  0
 19 22  1  0  0  0  0
 19 54  1  0  0  0  0
 19 55  1  0  0  0  0
 20 23  2  0  0  0  0
 21 23  1  0  0  0  0
 21 56  1  0  0  0  0
 22 24  1  0  0  0  0
 22 57  1  0  0  0  0
 22 58  1  0  0  0  0
 23 59  1  0  0  0  0
 24 60  1  0  0  0  0
 24 61  1  0  0  0  0
 25 63  1  0  0  0  0
 25 64  1  0  0  0  0
 25 65  1  0  0  0  0
 26 27  1  0  0  0  0
 27 28  2  0  0  0  0
 27 29  1  0  0  0  0
 28 30  1  0  0  0  0
 28 66  1  0  0  0  0
 29 31  2  0  0  0  0
 29 67  1  0  0  0  0
 30 32  2  0  0  0  0
 30 68  1  0  0  0  0
 31 32  1  0  0  0  0
 31 69  1  0  0  0  0
 32 33  1  0  0  0  0
 33 34  2  0  0  0  0
 33 35  1  0  0  0  0
 34 36  1  0  0  0  0
 34 70  1  0  0  0  0
 35 37  2  0  0  0  0
 35 71  1  0  0  0  0
 36 38  2  0  0  0  0
 36 72  1  0  0  0  0
 37 38  1  0  0  0  0
 37 73  1  0  0  0  0
 38 74  1  0  0  0  0
M  END
> <PUBCHEM_COMPOUND_CID>
44329106

> <PUBCHEM_COMPOUND_CANONICALIZED>
1

> <PUBCHEM_CACTVS_COMPLEXITY>
860

> <PUBCHEM_CACTVS_HBOND_ACCEPTOR>
5

> <PUBCHEM_CACTVS_HBOND_DONOR>
1

> <PUBCHEM_CACTVS_ROTATABLE_BOND>
9

> <PUBCHEM_CACTVS_SUBSKEYS>
AAADcfB7OABAAAAAAAAAAAAAAAAAAAAAAAA8YMGCAAAAAADxUAAAHgQQAAAADSzBmASyBoPAAAKIAiFSEHCCAAAkIAAIiIEODMgIJjKAlROEMQhk1hGIiYeY2POOwAABAAAYAACQAAaAADQAAAAAAAAAAA==

> <PUBCHEM_IUPAC_OPENEYE_NAME>
[(4aS,10bS)-4-[4-[(4-phenylbenzoyl)amino]butyl]-2,3,4a,5,6,10b-hexahydro-1H-benzo[f]quinolin-7-yl] methanesulfonate

> <PUBCHEM_IUPAC_CAS_NAME>
methanesulfonic acid [(4aS,10bS)-4-[4-[[oxo-(4-phenylphenyl)methyl]amino]butyl]-2,3,4a,5,6,10b-hexahydro-1H-benzo[f]quinolin-7-yl] ester

> <PUBCHEM_IUPAC_NAME_MARKUP>
[(4<I>a</I><I>S</I>,10<I>b</I><I>S</I>)-4-[4-[(4-phenylbenzoyl)amino]butyl]-2,3,4<I>a</I>,5,6,10<I>b</I>-hexahydro-1<I>H</I>-benzo[f]quinolin-7-yl] methanesulfonate

> <PUBCHEM_IUPAC_NAME>
[(4aS,10bS)-4-[4-[(4-phenylbenzoyl)amino]butyl]-2,3,4a,5,6,10b-hexahydro-1H-benzo[f]quinolin-7-yl] methanesulfonate

> <PUBCHEM_IUPAC_SYSTEMATIC_NAME>
[(4aS,10bS)-4-[4-[(4-phenylphenyl)carbonylamino]butyl]-2,3,4a,5,6,10b-hexahydro-1H-benzo[f]quinolin-7-yl] methanesulfonate

> <PUBCHEM_IUPAC_TRADITIONAL_NAME>
methanesulfonic acid [(4aS,10bS)-4-[4-[(4-phenylbenzoyl)amino]butyl]-2,3,4a,5,6,10b-hexahydro-1H-benzo[f]quinolin-7-yl] ester

> <PUBCHEM_IUPAC_INCHI>
InChI=1S/C31H36N2O4S/c1-38(35,36)37-30-13-7-11-26-27-12-8-22-33(29(27)19-18-28(26)30)21-6-5-20-32-31(34)25-16-14-24(15-17-25)23-9-3-2-4-10-23/h2-4,7,9-11,13-17,27,29H,5-6,8,12,18-22H2,1H3,(H,32,34)/t27-,29-/m0/s1

> <PUBCHEM_IUPAC_INCHIKEY>
PRDRZXROMYANHC-YTMVLYRLSA-N

> <PUBCHEM_XLOGP3_AA>
5.8

> <PUBCHEM_EXACT_MASS>
532.23957881

> <PUBCHEM_MOLECULAR_FORMULA>
C31H36N2O4S

> <PUBCHEM_MOLECULAR_WEIGHT>
532.7

> <PUBCHEM_OPENEYE_CAN_SMILES>
CS(=O)(=O)OC1=CC=CC2=C1CCC3C2CCCN3CCCCNC(=O)C4=CC=C(C=C4)C5=CC=CC=C5

> <PUBCHEM_OPENEYE_ISO_SMILES>
CS(=O)(=O)OC1=CC=CC2=C1CC[C@H]3[C@H]2CCCN3CCCCNC(=O)C4=CC=C(C=C4)C5=CC=CC=C5

> <PUBCHEM_CACTVS_TPSA>
84.1

> <PUBCHEM_MONOISOTOPIC_WEIGHT>
532.23957881

> <PUBCHEM_TOTAL_CHARGE>
0

> <PUBCHEM_HEAVY_ATOM_COUNT>
38

> <PUBCHEM_ATOM_DEF_STEREO_COUNT>
2

> <PUBCHEM_ATOM_UDEF_STEREO_COUNT>
0

> <PUBCHEM_BOND_DEF_STEREO_COUNT>
0

> <PUBCHEM_BOND_UDEF_STEREO_COUNT>
0

> <PUBCHEM_ISOTOPIC_ATOM_COUNT>
0

> <PUBCHEM_COMPONENT_COUNT>
1

> <PUBCHEM_CACTVS_TAUTO_COUNT>
-1

> <PUBCHEM_COORDINATE_TYPE>
1
5
255

> <PUBCHEM_BONDANNOTATIONS>
14  16  8
14  18  8
16  20  8
18  21  8
20  23  8
21  23  8
27  28  8
27  29  8
28  30  8
29  31  8
30  32  8
31  32  8
33  34  8
33  35  8
34  36  8
35  37  8
36  38  8
37  38  8
8  39  6
9  40  5

$$$$
