45483190
  -OEChem-09292322292D

 59 64  0     1  0  0  0  0  0999 V2000
    2.0000    0.1410    0.0000 F   0  0  0  0  0  0  0  0  0  0  0  0
    4.7684    2.3627    0.0000 O   0  0  0  0  0  0  0  0  0  0  0  0
   11.0395    2.1648    0.0000 O   0  0  0  0  0  0  0  0  0  0  0  0
    8.4414   -0.3352    0.0000 N   0  0  0  0  0  0  0  0  0  0  0  0
    5.7402    2.1535    0.0000 N   0  0  0  0  0  0  0  0  0  0  0  0
   12.7994   -0.8699    0.0000 N   0  0  0  0  0  0  0  0  0  0  0  0
   13.7055    0.6856    0.0000 N   0  0  0  0  0  0  0  0  0  0  0  0
    6.7093    0.6648    0.0000 C   0  0  0  0  0  0  0  0  0  0  0  0
   10.1734   -0.3352    0.0000 C   0  0  3  0  0  0  0  0  0  0  0  0
    7.5754    1.1648    0.0000 C   0  0  0  0  0  0  0  0  0  0  0  0
    6.7093   -0.3352    0.0000 C   0  0  0  0  0  0  0  0  0  0  0  0
    9.3074   -0.8352    0.0000 C   0  0  0  0  0  0  0  0  0  0  0  0
    8.4414    0.6648    0.0000 C   0  0  0  0  0  0  0  0  0  0  0  0
    7.5754   -0.8352    0.0000 C   0  0  0  0  0  0  0  0  0  0  0  0
   11.0395   -0.8352    0.0000 C   0  0  0  0  0  0  0  0  0  0  0  0
   10.1734    0.6648    0.0000 C   0  0  0  0  0  0  0  0  0  0  0  0
    5.8433    1.1648    0.0000 C   0  0  0  0  0  0  0  0  0  0  0  0
   11.9055   -0.3352    0.0000 C   0  0  0  0  0  0  0  0  0  0  0  0
   11.0395    1.1648    0.0000 C   0  0  0  0  0  0  0  0  0  0  0  0
   11.9055    0.6648    0.0000 C   0  0  0  0  0  0  0  0  0  0  0  0
    4.9355    0.7597    0.0000 C   0  0  0  0  0  0  0  0  0  0  0  0
    4.2677    1.5040    0.0000 C   0  0  0  0  0  0  0  0  0  0  0  0
   12.7994    1.1994    0.0000 C   0  0  0  0  0  0  0  0  0  0  0  0
    4.6249   -0.1909    0.0000 C   0  0  0  0  0  0  0  0  0  0  0  0
   13.7055   -0.3560    0.0000 C   0  0  0  0  0  0  0  0  0  0  0  0
    3.2892    1.2977    0.0000 C   0  0  0  0  0  0  0  0  0  0  0  0
    3.6464   -0.3971    0.0000 C   0  0  0  0  0  0  0  0  0  0  0  0
    2.9785    0.3472    0.0000 C   0  0  0  0  0  0  0  0  0  0  0  0
   14.5696   -0.8594    0.0000 C   0  0  0  0  0  0  0  0  0  0  0  0
   15.4375   -0.3627    0.0000 C   0  0  0  0  0  0  0  0  0  0  0  0
   14.5657   -1.8594    0.0000 C   0  0  0  0  0  0  0  0  0  0  0  0
   16.3016   -0.8661    0.0000 C   0  0  0  0  0  0  0  0  0  0  0  0
   15.4298   -2.3627    0.0000 C   0  0  0  0  0  0  0  0  0  0  0  0
   16.2978   -1.8660    0.0000 C   0  0  0  0  0  0  0  0  0  0  0  0
    6.7093    1.2848    0.0000 H   0  0  0  0  0  0  0  0  0  0  0  0
   10.1734   -0.9552    0.0000 H   0  0  0  0  0  0  0  0  0  0  0  0
    7.9739    1.6397    0.0000 H   0  0  0  0  0  0  0  0  0  0  0  0
    7.1768    1.6397    0.0000 H   0  0  0  0  0  0  0  0  0  0  0  0
    6.0988   -0.2276    0.0000 H   0  0  0  0  0  0  0  0  0  0  0  0
    6.4973   -0.9178    0.0000 H   0  0  0  0  0  0  0  0  0  0  0  0
    8.9089   -1.3102    0.0000 H   0  0  0  0  0  0  0  0  0  0  0  0
    9.7059   -1.3102    0.0000 H   0  0  0  0  0  0  0  0  0  0  0  0
    9.0520    0.5571    0.0000 H   0  0  0  0  0  0  0  0  0  0  0  0
    8.6534    1.2474    0.0000 H   0  0  0  0  0  0  0  0  0  0  0  0
    7.1768   -1.3102    0.0000 H   0  0  0  0  0  0  0  0  0  0  0  0
    7.9739   -1.3102    0.0000 H   0  0  0  0  0  0  0  0  0  0  0  0
   10.6409   -1.3102    0.0000 H   0  0  0  0  0  0  0  0  0  0  0  0
   11.4380   -1.3102    0.0000 H   0  0  0  0  0  0  0  0  0  0  0  0
    9.9614    1.2474    0.0000 H   0  0  0  0  0  0  0  0  0  0  0  0
    9.5628    0.5571    0.0000 H   0  0  0  0  0  0  0  0  0  0  0  0
   12.7923    1.8194    0.0000 H   0  0  0  0  0  0  0  0  0  0  0  0
    5.0389   -0.6523    0.0000 H   0  0  0  0  0  0  0  0  0  0  0  0
    2.8751    1.7592    0.0000 H   0  0  0  0  0  0  0  0  0  0  0  0
    3.4537   -0.9864    0.0000 H   0  0  0  0  0  0  0  0  0  0  0  0
   15.4399    0.2573    0.0000 H   0  0  0  0  0  0  0  0  0  0  0  0
   14.0276   -2.1673    0.0000 H   0  0  0  0  0  0  0  0  0  0  0  0
   16.8397   -0.5581    0.0000 H   0  0  0  0  0  0  0  0  0  0  0  0
   15.4274   -2.9827    0.0000 H   0  0  0  0  0  0  0  0  0  0  0  0
   16.8335   -2.1781    0.0000 H   0  0  0  0  0  0  0  0  0  0  0  0
  1 28  1  0  0  0  0
  2  5  1  0  0  0  0
  2 22  1  0  0  0  0
  3 19  2  0  0  0  0
  4 12  1  0  0  0  0
  4 13  1  0  0  0  0
  4 14  1  0  0  0  0
  5 17  2  0  0  0  0
  6 18  2  0  0  0  0
  6 25  1  0  0  0  0
  7 23  1  0  0  0  0
  7 25  2  0  0  0  0
  8 10  1  0  0  0  0
  8 11  1  0  0  0  0
  8 17  1  0  0  0  0
  8 35  1  0  0  0  0
  9 12  1  0  0  0  0
  9 15  1  0  0  0  0
  9 16  1  0  0  0  0
  9 36  1  0  0  0  0
 10 13  1  0  0  0  0
 10 37  1  0  0  0  0
 10 38  1  0  0  0  0
 11 14  1  0  0  0  0
 11 39  1  0  0  0  0
 11 40  1  0  0  0  0
 12 41  1  0  0  0  0
 12 42  1  0  0  0  0
 13 43  1  0  0  0  0
 13 44  1  0  0  0  0
 14 45  1  0  0  0  0
 14 46  1  0  0  0  0
 15 18  1  0  0  0  0
 15 47  1  0  0  0  0
 15 48  1  0  0  0  0
 16 19  1  0  0  0  0
 16 49  1  0  0  0  0
 16 50  1  0  0  0  0
 17 21  1  0  0  0  0
 18 20  1  0  0  0  0
 19 20  1  0  0  0  0
 20 23  2  0  0  0  0
 21 22  2  0  0  0  0
 21 24  1  0  0  0  0
 22 26  1  0  0  0  0
 23 51  1  0  0  0  0
 24 27  2  0  0  0  0
 24 52  1  0  0  0  0
 25 29  1  0  0  0  0
 26 28  2  0  0  0  0
 26 53  1  0  0  0  0
 27 28  1  0  0  0  0
 27 54  1  0  0  0  0
 29 30  2  0  0  0  0
 29 31  1  0  0  0  0
 30 32  1  0  0  0  0
 30 55  1  0  0  0  0
 31 33  2  0  0  0  0
 31 56  1  0  0  0  0
 32 34  2  0  0  0  0
 32 57  1  0  0  0  0
 33 34  1  0  0  0  0
 33 58  1  0  0  0  0
 34 59  1  0  0  0  0
M  END
> <PUBCHEM_COMPOUND_CID>
45483190

> <PUBCHEM_COMPOUND_CANONICALIZED>
1

> <PUBCHEM_CACTVS_COMPLEXITY>
711

> <PUBCHEM_CACTVS_HBOND_ACCEPTOR>
7

> <PUBCHEM_CACTVS_HBOND_DONOR>
0

> <PUBCHEM_CACTVS_ROTATABLE_BOND>
4

> <PUBCHEM_CACTVS_SUBSKEYS>
AAADceB7sQAAAAAAAAAAAAAAAAAAAWAAAAA8eMECAAAAAFix/AAAHwAEAAAADQzBnww9ltcYEACpA7Z3ZgCCgCk1IKAp2CE+TNqILrrA3dOENYhuwBvIyeecyeCeAAAAAAAIAACAAACAABQAAAAAAAAAAA==

> <PUBCHEM_IUPAC_OPENEYE_NAME>
7-[[4-(6-fluoro-1,2-benzoxazol-3-yl)-1-piperidyl]methyl]-2-phenyl-7,8-dihydro-6H-quinazolin-5-one

> <PUBCHEM_IUPAC_CAS_NAME>
7-[[4-(6-fluoro-1,2-benzoxazol-3-yl)-1-piperidinyl]methyl]-2-phenyl-7,8-dihydro-6H-quinazolin-5-one

> <PUBCHEM_IUPAC_NAME_MARKUP>
7-[[4-(6-fluoro-1,2-benzoxazol-3-yl)piperidin-1-yl]methyl]-2-phenyl-7,8-dihydro-6<I>H</I>-quinazolin-5-one

> <PUBCHEM_IUPAC_NAME>
7-[[4-(6-fluoro-1,2-benzoxazol-3-yl)piperidin-1-yl]methyl]-2-phenyl-7,8-dihydro-6H-quinazolin-5-one

> <PUBCHEM_IUPAC_SYSTEMATIC_NAME>
7-[[4-(6-fluoranyl-1,2-benzoxazol-3-yl)piperidin-1-yl]methyl]-2-phenyl-7,8-dihydro-6H-quinazolin-5-one

> <PUBCHEM_IUPAC_TRADITIONAL_NAME>
7-[[4-(6-fluoroindoxazen-3-yl)piperidino]methyl]-2-phenyl-7,8-dihydro-6H-quinazolin-5-one

> <PUBCHEM_IUPAC_INCHI>
InChI=1S/C27H25FN4O2/c28-20-6-7-21-25(14-20)34-31-26(21)18-8-10-32(11-9-18)16-17-12-23-22(24(33)13-17)15-29-27(30-23)19-4-2-1-3-5-19/h1-7,14-15,17-18H,8-13,16H2

> <PUBCHEM_IUPAC_INCHIKEY>
LSEUGCSNKVUOIA-UHFFFAOYSA-N

> <PUBCHEM_XLOGP3_AA>
4.1

> <PUBCHEM_EXACT_MASS>
456.19615422

> <PUBCHEM_MOLECULAR_FORMULA>
C27H25FN4O2

> <PUBCHEM_MOLECULAR_WEIGHT>
456.5

> <PUBCHEM_OPENEYE_CAN_SMILES>
C1CN(CCC1C2=NOC3=C2C=CC(=C3)F)CC4CC5=NC(=NC=C5C(=O)C4)C6=CC=CC=C6

> <PUBCHEM_OPENEYE_ISO_SMILES>
C1CN(CCC1C2=NOC3=C2C=CC(=C3)F)CC4CC5=NC(=NC=C5C(=O)C4)C6=CC=CC=C6

> <PUBCHEM_CACTVS_TPSA>
72.1

> <PUBCHEM_MONOISOTOPIC_WEIGHT>
456.19615422

> <PUBCHEM_TOTAL_CHARGE>
0

> <PUBCHEM_HEAVY_ATOM_COUNT>
34

> <PUBCHEM_ATOM_DEF_STEREO_COUNT>
0

> <PUBCHEM_ATOM_UDEF_STEREO_COUNT>
1

> <PUBCHEM_BOND_DEF_STEREO_COUNT>
0

> <PUBCHEM_BOND_UDEF_STEREO_COUNT>
0

> <PUBCHEM_ISOTOPIC_ATOM_COUNT>
0

> <PUBCHEM_COMPONENT_COUNT>
1

> <PUBCHEM_CACTVS_TAUTO_COUNT>
-1

> <PUBCHEM_COORDINATE_TYPE>
1
5
255

> <PUBCHEM_BONDANNOTATIONS>
17  21  8
18  20  8
2  22  8
2  5  8
20  23  8
21  22  8
21  24  8
22  26  8
24  27  8
26  28  8
27  28  8
29  30  8
29  31  8
30  32  8
31  33  8
32  34  8
33  34  8
5  17  8
6  18  8
6  25  8
7  23  8
7  25  8
9  12  3

$$$$
