164610352
  -OEChem-09292322432D

 72 76  0     0  0  0  0  0  0999 V2000
    2.0000   -7.3901    0.0000 F   0  0  0  0  0  0  0  0  0  0  0  0
    5.5443   -7.1948    0.0000 O   0  0  0  0  0  0  0  0  0  0  0  0
    9.0546   -0.4203    0.0000 O   0  0  0  0  0  0  0  0  0  0  0  0
    6.4763   -2.7338    0.0000 N   0  0  0  0  0  0  0  0  0  0  0  0
   11.5864    4.5385    0.0000 N   0  0  0  0  0  0  0  0  0  0  0  0
   12.2078    6.4396    0.0000 N   0  0  0  0  0  0  0  0  0  0  0  0
    6.1279   -6.3901    0.0000 N   0  0  0  0  0  0  0  0  0  0  0  0
    5.8550   -4.6348    0.0000 C   0  0  0  0  0  0  0  0  0  0  0  0
    6.8335   -4.4286    0.0000 C   0  0  0  0  0  0  0  0  0  0  0  0
    5.1871   -3.8905    0.0000 C   0  0  0  0  0  0  0  0  0  0  0  0
    7.1441   -3.4781    0.0000 C   0  0  0  0  0  0  0  0  0  0  0  0
    5.4978   -2.9400    0.0000 C   0  0  0  0  0  0  0  0  0  0  0  0
    6.7870   -1.7833    0.0000 C   0  0  0  0  0  0  0  0  0  0  0  0
    5.5443   -5.5853    0.0000 C   0  0  0  0  0  0  0  0  0  0  0  0
    7.7654   -1.5770    0.0000 C   0  0  0  0  0  0  0  0  0  0  0  0
    4.5981   -5.8901    0.0000 C   0  0  0  0  0  0  0  0  0  0  0  0
   10.9186    5.2828    0.0000 C   0  0  0  0  0  0  0  0  0  0  0  0
   12.5649    4.7447    0.0000 C   0  0  0  0  0  0  0  0  0  0  0  0
   11.2293    6.2333    0.0000 C   0  0  0  0  0  0  0  0  0  0  0  0
   12.8756    5.6952    0.0000 C   0  0  0  0  0  0  0  0  0  0  0  0
   11.2758    3.5880    0.0000 C   0  0  0  0  0  0  0  0  0  0  0  0
    8.0761   -0.6265    0.0000 C   0  0  0  0  0  0  0  0  0  0  0  0
    4.5981   -6.8901    0.0000 C   0  0  0  0  0  0  0  0  0  0  0  0
   10.2973    3.3818    0.0000 C   0  0  0  0  0  0  0  0  0  0  0  0
    3.7320   -5.3901    0.0000 C   0  0  0  0  0  0  0  0  0  0  0  0
   12.5184    7.3901    0.0000 C   0  0  0  0  0  0  0  0  0  0  0  0
    9.9866    2.4313    0.0000 C   0  0  0  0  0  0  0  0  0  0  0  0
    3.7320   -7.3901    0.0000 C   0  0  0  0  0  0  0  0  0  0  0  0
    2.8660   -5.8901    0.0000 C   0  0  0  0  0  0  0  0  0  0  0  0
    9.3653    0.5302    0.0000 C   0  0  0  0  0  0  0  0  0  0  0  0
    2.8660   -6.8901    0.0000 C   0  0  0  0  0  0  0  0  0  0  0  0
   10.6545    1.6870    0.0000 C   0  0  0  0  0  0  0  0  0  0  0  0
    9.0081    2.2250    0.0000 C   0  0  0  0  0  0  0  0  0  0  0  0
   10.3438    0.7364    0.0000 C   0  0  0  0  0  0  0  0  0  0  0  0
    8.6974    1.2745    0.0000 C   0  0  0  0  0  0  0  0  0  0  0  0
    6.2690   -5.0963    0.0000 H   0  0  0  0  0  0  0  0  0  0  0  0
    6.8540   -5.0483    0.0000 H   0  0  0  0  0  0  0  0  0  0  0  0
    7.4473   -4.5160    0.0000 H   0  0  0  0  0  0  0  0  0  0  0  0
    4.6402   -3.5985    0.0000 H   0  0  0  0  0  0  0  0  0  0  0  0
    4.8046   -4.3784    0.0000 H   0  0  0  0  0  0  0  0  0  0  0  0
    7.6910   -3.7701    0.0000 H   0  0  0  0  0  0  0  0  0  0  0  0
    7.5267   -2.9902    0.0000 H   0  0  0  0  0  0  0  0  0  0  0  0
    5.4772   -2.3203    0.0000 H   0  0  0  0  0  0  0  0  0  0  0  0
    4.8840   -2.8526    0.0000 H   0  0  0  0  0  0  0  0  0  0  0  0
    6.7664   -1.1636    0.0000 H   0  0  0  0  0  0  0  0  0  0  0  0
    6.1731   -1.6959    0.0000 H   0  0  0  0  0  0  0  0  0  0  0  0
    7.7860   -2.1967    0.0000 H   0  0  0  0  0  0  0  0  0  0  0  0
    8.3793   -1.6644    0.0000 H   0  0  0  0  0  0  0  0  0  0  0  0
   10.3717    5.5748    0.0000 H   0  0  0  0  0  0  0  0  0  0  0  0
   10.5360    4.7949    0.0000 H   0  0  0  0  0  0  0  0  0  0  0  0
   12.5855    4.1251    0.0000 H   0  0  0  0  0  0  0  0  0  0  0  0
   13.1788    4.6574    0.0000 H   0  0  0  0  0  0  0  0  0  0  0  0
   11.2087    6.8530    0.0000 H   0  0  0  0  0  0  0  0  0  0  0  0
   10.6154    6.3207    0.0000 H   0  0  0  0  0  0  0  0  0  0  0  0
   13.4225    5.4032    0.0000 H   0  0  0  0  0  0  0  0  0  0  0  0
   13.2582    6.1832    0.0000 H   0  0  0  0  0  0  0  0  0  0  0  0
   11.2963    2.9683    0.0000 H   0  0  0  0  0  0  0  0  0  0  0  0
   11.8896    3.5006    0.0000 H   0  0  0  0  0  0  0  0  0  0  0  0
    8.0556   -0.0069    0.0000 H   0  0  0  0  0  0  0  0  0  0  0  0
    7.4623   -0.5392    0.0000 H   0  0  0  0  0  0  0  0  0  0  0  0
   10.2767    4.0014    0.0000 H   0  0  0  0  0  0  0  0  0  0  0  0
    9.6834    3.4691    0.0000 H   0  0  0  0  0  0  0  0  0  0  0  0
    3.7320   -4.7701    0.0000 H   0  0  0  0  0  0  0  0  0  0  0  0
   13.1077    7.1975    0.0000 H   0  0  0  0  0  0  0  0  0  0  0  0
   12.7110    7.9794    0.0000 H   0  0  0  0  0  0  0  0  0  0  0  0
   11.9291    7.5827    0.0000 H   0  0  0  0  0  0  0  0  0  0  0  0
    3.7320   -8.0101    0.0000 H   0  0  0  0  0  0  0  0  0  0  0  0
    2.3291   -5.5801    0.0000 H   0  0  0  0  0  0  0  0  0  0  0  0
   11.2611    1.8148    0.0000 H   0  0  0  0  0  0  0  0  0  0  0  0
    8.5940    2.6865    0.0000 H   0  0  0  0  0  0  0  0  0  0  0  0
   10.7578    0.2750    0.0000 H   0  0  0  0  0  0  0  0  0  0  0  0
    8.0908    1.1467    0.0000 H   0  0  0  0  0  0  0  0  0  0  0  0
  1 31  1  0  0  0  0
  2  7  1  0  0  0  0
  2 23  1  0  0  0  0
  3 22  1  0  0  0  0
  3 30  1  0  0  0  0
  4 11  1  0  0  0  0
  4 12  1  0  0  0  0
  4 13  1  0  0  0  0
  5 17  1  0  0  0  0
  5 18  1  0  0  0  0
  5 21  1  0  0  0  0
  6 19  1  0  0  0  0
  6 20  1  0  0  0  0
  6 26  1  0  0  0  0
  7 14  2  0  0  0  0
  8  9  1  0  0  0  0
  8 10  1  0  0  0  0
  8 14  1  0  0  0  0
  8 36  1  0  0  0  0
  9 11  1  0  0  0  0
  9 37  1  0  0  0  0
  9 38  1  0  0  0  0
 10 12  1  0  0  0  0
 10 39  1  0  0  0  0
 10 40  1  0  0  0  0
 11 41  1  0  0  0  0
 11 42  1  0  0  0  0
 12 43  1  0  0  0  0
 12 44  1  0  0  0  0
 13 15  1  0  0  0  0
 13 45  1  0  0  0  0
 13 46  1  0  0  0  0
 14 16  1  0  0  0  0
 15 22  1  0  0  0  0
 15 47  1  0  0  0  0
 15 48  1  0  0  0  0
 16 23  2  0  0  0  0
 16 25  1  0  0  0  0
 17 19  1  0  0  0  0
 17 49  1  0  0  0  0
 17 50  1  0  0  0  0
 18 20  1  0  0  0  0
 18 51  1  0  0  0  0
 18 52  1  0  0  0  0
 19 53  1  0  0  0  0
 19 54  1  0  0  0  0
 20 55  1  0  0  0  0
 20 56  1  0  0  0  0
 21 24  1  0  0  0  0
 21 57  1  0  0  0  0
 21 58  1  0  0  0  0
 22 59  1  0  0  0  0
 22 60  1  0  0  0  0
 23 28  1  0  0  0  0
 24 27  1  0  0  0  0
 24 61  1  0  0  0  0
 24 62  1  0  0  0  0
 25 29  2  0  0  0  0
 25 63  1  0  0  0  0
 26 64  1  0  0  0  0
 26 65  1  0  0  0  0
 26 66  1  0  0  0  0
 27 32  2  0  0  0  0
 27 33  1  0  0  0  0
 28 31  2  0  0  0  0
 28 67  1  0  0  0  0
 29 31  1  0  0  0  0
 29 68  1  0  0  0  0
 30 34  2  0  0  0  0
 30 35  1  0  0  0  0
 32 34  1  0  0  0  0
 32 69  1  0  0  0  0
 33 35  2  0  0  0  0
 33 70  1  0  0  0  0
 34 71  1  0  0  0  0
 35 72  1  0  0  0  0
M  END
> <PUBCHEM_COMPOUND_CID>
164610352

> <PUBCHEM_COMPOUND_CANONICALIZED>
1

> <PUBCHEM_CACTVS_COMPLEXITY>
618

> <PUBCHEM_CACTVS_HBOND_ACCEPTOR>
7

> <PUBCHEM_CACTVS_HBOND_DONOR>
0

> <PUBCHEM_CACTVS_ROTATABLE_BOND>
9

> <PUBCHEM_CACTVS_SUBSKEYS>
AAADcfB7sQAAAAAAAAAAAAAAAAAAAWAAAAA8eIEAAAAAAFgB9AAAHwAEAAAADQzhng4yhtMQBACpA6RyQgCCCAAkIAAomCE+TNoMZrqEtZuWOaDmwBmI6ceYyOCOIAAAAAAIAABAAAAAABAAAAAAAAAAAA==

> <PUBCHEM_IUPAC_OPENEYE_NAME>
6-fluoro-3-[1-[3-[4-[2-(4-methylpiperazin-1-yl)ethyl]phenoxy]propyl]-4-piperidyl]-1,2-benzoxazole

> <PUBCHEM_IUPAC_CAS_NAME>
6-fluoro-3-[1-[3-[4-[2-(4-methyl-1-piperazinyl)ethyl]phenoxy]propyl]-4-piperidinyl]-1,2-benzoxazole

> <PUBCHEM_IUPAC_NAME_MARKUP>
6-fluoro-3-[1-[3-[4-[2-(4-methylpiperazin-1-yl)ethyl]phenoxy]propyl]piperidin-4-yl]-1,2-benzoxazole

> <PUBCHEM_IUPAC_NAME>
6-fluoro-3-[1-[3-[4-[2-(4-methylpiperazin-1-yl)ethyl]phenoxy]propyl]piperidin-4-yl]-1,2-benzoxazole

> <PUBCHEM_IUPAC_SYSTEMATIC_NAME>
6-fluoranyl-3-[1-[3-[4-[2-(4-methylpiperazin-1-yl)ethyl]phenoxy]propyl]piperidin-4-yl]-1,2-benzoxazole

> <PUBCHEM_IUPAC_TRADITIONAL_NAME>
6-fluoro-3-[1-[3-[4-[2-(4-methylpiperazino)ethyl]phenoxy]propyl]-4-piperidyl]indoxazene

> <PUBCHEM_IUPAC_INCHI>
InChI=1S/C28H37FN4O2/c1-31-16-18-33(19-17-31)13-9-22-3-6-25(7-4-22)34-20-2-12-32-14-10-23(11-15-32)28-26-8-5-24(29)21-27(26)35-30-28/h3-8,21,23H,2,9-20H2,1H3

> <PUBCHEM_IUPAC_INCHIKEY>
QQICDAPFTVTGQB-UHFFFAOYSA-N

> <PUBCHEM_XLOGP3_AA>
4.6

> <PUBCHEM_EXACT_MASS>
480.29005460

> <PUBCHEM_MOLECULAR_FORMULA>
C28H37FN4O2

> <PUBCHEM_MOLECULAR_WEIGHT>
480.6

> <PUBCHEM_OPENEYE_CAN_SMILES>
CN1CCN(CC1)CCC2=CC=C(C=C2)OCCCN3CCC(CC3)C4=NOC5=C4C=CC(=C5)F

> <PUBCHEM_OPENEYE_ISO_SMILES>
CN1CCN(CC1)CCC2=CC=C(C=C2)OCCCN3CCC(CC3)C4=NOC5=C4C=CC(=C5)F

> <PUBCHEM_CACTVS_TPSA>
45

> <PUBCHEM_MONOISOTOPIC_WEIGHT>
480.29005460

> <PUBCHEM_TOTAL_CHARGE>
0

> <PUBCHEM_HEAVY_ATOM_COUNT>
35

> <PUBCHEM_ATOM_DEF_STEREO_COUNT>
0

> <PUBCHEM_ATOM_UDEF_STEREO_COUNT>
0

> <PUBCHEM_BOND_DEF_STEREO_COUNT>
0

> <PUBCHEM_BOND_UDEF_STEREO_COUNT>
0

> <PUBCHEM_ISOTOPIC_ATOM_COUNT>
0

> <PUBCHEM_COMPONENT_COUNT>
1

> <PUBCHEM_CACTVS_TAUTO_COUNT>
-1

> <PUBCHEM_COORDINATE_TYPE>
1
5
255

> <PUBCHEM_BONDANNOTATIONS>
14  16  8
16  23  8
16  25  8
2  23  8
2  7  8
23  28  8
25  29  8
27  32  8
27  33  8
28  31  8
29  31  8
30  34  8
30  35  8
32  34  8
33  35  8
7  14  8

$$$$
