166626051
  -OEChem-09292322442D

 53 56  0     1  0  0  0  0  0999 V2000
   14.9001    1.3346    0.0000 Cl  0  0  0  0  0  0  0  0  0  0  0  0
   11.4544    0.9784    0.0000 S   0  0  0  0  0  0  0  0  0  0  0  0
    2.0000   -3.1459    0.0000 F   0  0  0  0  0  0  0  0  0  0  0  0
   12.0408    0.1684    0.0000 O   0  0  0  0  0  0  0  0  0  0  0  0
   10.8680    1.7885    0.0000 O   0  0  0  0  0  0  0  0  0  0  0  0
    5.5443   -2.9506    0.0000 O   0  0  0  0  0  0  0  0  0  0  0  0
    8.1226    0.9723    0.0000 N   0  0  3  0  0  0  0  0  0  0  0  0
   10.6443    0.3921    0.0000 N   0  0  0  0  0  0  0  0  0  0  0  0
    6.1279   -2.1459    0.0000 N   0  0  0  0  0  0  0  0  0  0  0  0
    8.5310    1.8851    0.0000 C   0  0  2  0  0  0  0  0  0  0  0  0
    9.7315    0.8004    0.0000 C   0  0  1  0  0  0  0  0  0  0  0  0
    9.5253    1.7789    0.0000 C   0  0  0  0  0  0  0  0  0  0  0  0
    8.8646    0.3019    0.0000 C   0  0  0  0  0  0  0  0  0  0  0  0
    7.1441    0.7661    0.0000 C   0  0  0  0  0  0  0  0  0  0  0  0
    8.0325    2.7520    0.0000 C   0  0  0  0  0  0  0  0  0  0  0  0
    6.8335   -0.1844    0.0000 C   0  0  0  0  0  0  0  0  0  0  0  0
    5.8550   -0.3907    0.0000 C   0  0  0  0  0  0  0  0  0  0  0  0
   12.2644    1.5648    0.0000 C   0  0  0  0  0  0  0  0  0  0  0  0
    5.5443   -1.3412    0.0000 C   0  0  0  0  0  0  0  0  0  0  0  0
    4.5981   -1.6459    0.0000 C   0  0  0  0  0  0  0  0  0  0  0  0
   13.1773    1.1565    0.0000 C   0  0  0  0  0  0  0  0  0  0  0  0
   12.1616    2.5595    0.0000 C   0  0  0  0  0  0  0  0  0  0  0  0
    4.5981   -2.6459    0.0000 C   0  0  0  0  0  0  0  0  0  0  0  0
    3.7320   -1.1459    0.0000 C   0  0  0  0  0  0  0  0  0  0  0  0
   13.9873    1.7429    0.0000 C   0  0  0  0  0  0  0  0  0  0  0  0
   12.9716    3.1459    0.0000 C   0  0  0  0  0  0  0  0  0  0  0  0
   13.8845    2.7376    0.0000 C   0  0  0  0  0  0  0  0  0  0  0  0
    3.7320   -3.1459    0.0000 C   0  0  0  0  0  0  0  0  0  0  0  0
    2.8660   -1.6459    0.0000 C   0  0  0  0  0  0  0  0  0  0  0  0
    2.8660   -2.6459    0.0000 C   0  0  0  0  0  0  0  0  0  0  0  0
    7.9117    1.8538    0.0000 H   0  0  0  0  0  0  0  0  0  0  0  0
    9.7629    0.1812    0.0000 H   0  0  0  0  0  0  0  0  0  0  0  0
   10.1420    1.8426    0.0000 H   0  0  0  0  0  0  0  0  0  0  0  0
    9.5264    2.3989    0.0000 H   0  0  0  0  0  0  0  0  0  0  0  0
    8.4032   -0.1122    0.0000 H   0  0  0  0  0  0  0  0  0  0  0  0
    9.2282   -0.2003    0.0000 H   0  0  0  0  0  0  0  0  0  0  0  0
    7.1236    1.3857    0.0000 H   0  0  0  0  0  0  0  0  0  0  0  0
    6.5303    0.8534    0.0000 H   0  0  0  0  0  0  0  0  0  0  0  0
    8.5699    3.0611    0.0000 H   0  0  0  0  0  0  0  0  0  0  0  0
    7.7234    3.2895    0.0000 H   0  0  0  0  0  0  0  0  0  0  0  0
    7.4950    2.4430    0.0000 H   0  0  0  0  0  0  0  0  0  0  0  0
   10.7081   -0.2247    0.0000 H   0  0  0  0  0  0  0  0  0  0  0  0
    6.8540   -0.8041    0.0000 H   0  0  0  0  0  0  0  0  0  0  0  0
    7.4473   -0.2718    0.0000 H   0  0  0  0  0  0  0  0  0  0  0  0
    5.8344    0.2290    0.0000 H   0  0  0  0  0  0  0  0  0  0  0  0
    5.2411   -0.3033    0.0000 H   0  0  0  0  0  0  0  0  0  0  0  0
   13.2410    0.5398    0.0000 H   0  0  0  0  0  0  0  0  0  0  0  0
   11.5956    2.8127    0.0000 H   0  0  0  0  0  0  0  0  0  0  0  0
    3.7320   -0.5259    0.0000 H   0  0  0  0  0  0  0  0  0  0  0  0
   12.9079    3.7626    0.0000 H   0  0  0  0  0  0  0  0  0  0  0  0
   14.3867    3.1012    0.0000 H   0  0  0  0  0  0  0  0  0  0  0  0
    3.7320   -3.7659    0.0000 H   0  0  0  0  0  0  0  0  0  0  0  0
    2.3291   -1.3359    0.0000 H   0  0  0  0  0  0  0  0  0  0  0  0
  1 25  1  0  0  0  0
  2  4  2  0  0  0  0
  2  5  2  0  0  0  0
  2  8  1  0  0  0  0
  2 18  1  0  0  0  0
  3 30  1  0  0  0  0
  6  9  1  0  0  0  0
  6 23  1  0  0  0  0
  7 10  1  0  0  0  0
  7 13  1  0  0  0  0
  7 14  1  0  0  0  0
 11  8  1  6  0  0  0
  8 42  1  0  0  0  0
  9 19  2  0  0  0  0
 10 12  1  0  0  0  0
 10 15  1  1  0  0  0
 10 31  1  0  0  0  0
 11 12  1  0  0  0  0
 11 13  1  0  0  0  0
 11 32  1  0  0  0  0
 12 33  1  0  0  0  0
 12 34  1  0  0  0  0
 13 35  1  0  0  0  0
 13 36  1  0  0  0  0
 14 16  1  0  0  0  0
 14 37  1  0  0  0  0
 14 38  1  0  0  0  0
 15 39  1  0  0  0  0
 15 40  1  0  0  0  0
 15 41  1  0  0  0  0
 16 17  1  0  0  0  0
 16 43  1  0  0  0  0
 16 44  1  0  0  0  0
 17 19  1  0  0  0  0
 17 45  1  0  0  0  0
 17 46  1  0  0  0  0
 18 21  2  0  0  0  0
 18 22  1  0  0  0  0
 19 20  1  0  0  0  0
 20 23  2  0  0  0  0
 20 24  1  0  0  0  0
 21 25  1  0  0  0  0
 21 47  1  0  0  0  0
 22 26  2  0  0  0  0
 22 48  1  0  0  0  0
 23 28  1  0  0  0  0
 24 29  2  0  0  0  0
 24 49  1  0  0  0  0
 25 27  2  0  0  0  0
 26 27  1  0  0  0  0
 26 50  1  0  0  0  0
 27 51  1  0  0  0  0
 28 30  2  0  0  0  0
 28 52  1  0  0  0  0
 29 30  1  0  0  0  0
 29 53  1  0  0  0  0
M  END
> <PUBCHEM_COMPOUND_CID>
166626051

> <PUBCHEM_COMPOUND_CANONICALIZED>
1

> <PUBCHEM_CACTVS_COMPLEXITY>
679

> <PUBCHEM_CACTVS_HBOND_ACCEPTOR>
7

> <PUBCHEM_CACTVS_HBOND_DONOR>
1

> <PUBCHEM_CACTVS_ROTATABLE_BOND>
7

> <PUBCHEM_CACTVS_SUBSKEYS>
AAADceB7MQBEAAAAAAAAAAAAAAAAAWLAAAAwYAAAAAAAAFgB9AAAHwYUQAAADC7B3iwyh9NQAAKpA6RyQnDCABAkJQAomLk+TtoIZrqB15OUMYBm0BmIyceYyKCOAAAAABAIAAAAAAAAIBAAAAAAAAAAAA==

> <PUBCHEM_IUPAC_OPENEYE_NAME>
3-chloro-N-[(3S,5S)-1-[3-(6-fluoro-1,2-benzoxazol-3-yl)propyl]-5-methyl-pyrrolidin-3-yl]benzenesulfonamide

> <PUBCHEM_IUPAC_CAS_NAME>
3-chloro-N-[(3S,5S)-1-[3-(6-fluoro-1,2-benzoxazol-3-yl)propyl]-5-methyl-3-pyrrolidinyl]benzenesulfonamide

> <PUBCHEM_IUPAC_NAME_MARKUP>
3-chloro-<I>N</I>-[(3<I>S</I>,5<I>S</I>)-1-[3-(6-fluoro-1,2-benzoxazol-3-yl)propyl]-5-methylpyrrolidin-3-yl]benzenesulfonamide

> <PUBCHEM_IUPAC_NAME>
3-chloro-N-[(3S,5S)-1-[3-(6-fluoro-1,2-benzoxazol-3-yl)propyl]-5-methylpyrrolidin-3-yl]benzenesulfonamide

> <PUBCHEM_IUPAC_SYSTEMATIC_NAME>
3-chloranyl-N-[(3S,5S)-1-[3-(6-fluoranyl-1,2-benzoxazol-3-yl)propyl]-5-methyl-pyrrolidin-3-yl]benzenesulfonamide

> <PUBCHEM_IUPAC_TRADITIONAL_NAME>
3-chloro-N-[(3S,5S)-1-[3-(6-fluoroindoxazen-3-yl)propyl]-5-methyl-pyrrolidin-3-yl]benzenesulfonamide

> <PUBCHEM_IUPAC_INCHI>
InChI=1S/C21H23ClFN3O3S/c1-14-10-17(25-30(27,28)18-5-2-4-15(22)11-18)13-26(14)9-3-6-20-19-8-7-16(23)12-21(19)29-24-20/h2,4-5,7-8,11-12,14,17,25H,3,6,9-10,13H2,1H3/t14-,17-/m0/s1

> <PUBCHEM_IUPAC_INCHIKEY>
OXHUEWKMPMINSU-YOEHRIQHSA-N

> <PUBCHEM_XLOGP3_AA>
4.4

> <PUBCHEM_EXACT_MASS>
451.1132686

> <PUBCHEM_MOLECULAR_FORMULA>
C21H23ClFN3O3S

> <PUBCHEM_MOLECULAR_WEIGHT>
451.9

> <PUBCHEM_OPENEYE_CAN_SMILES>
CC1CC(CN1CCCC2=NOC3=C2C=CC(=C3)F)NS(=O)(=O)C4=CC(=CC=C4)Cl

> <PUBCHEM_OPENEYE_ISO_SMILES>
C[C@H]1C[C@@H](CN1CCCC2=NOC3=C2C=CC(=C3)F)NS(=O)(=O)C4=CC(=CC=C4)Cl

> <PUBCHEM_CACTVS_TPSA>
83.8

> <PUBCHEM_MONOISOTOPIC_WEIGHT>
451.1132686

> <PUBCHEM_TOTAL_CHARGE>
0

> <PUBCHEM_HEAVY_ATOM_COUNT>
30

> <PUBCHEM_ATOM_DEF_STEREO_COUNT>
2

> <PUBCHEM_ATOM_UDEF_STEREO_COUNT>
0

> <PUBCHEM_BOND_DEF_STEREO_COUNT>
0

> <PUBCHEM_BOND_UDEF_STEREO_COUNT>
0

> <PUBCHEM_ISOTOPIC_ATOM_COUNT>
0

> <PUBCHEM_COMPONENT_COUNT>
1

> <PUBCHEM_CACTVS_TAUTO_COUNT>
-1

> <PUBCHEM_COORDINATE_TYPE>
1
5
255

> <PUBCHEM_BONDANNOTATIONS>
10  15  5
18  21  8
18  22  8
19  20  8
20  23  8
20  24  8
21  25  8
22  26  8
23  28  8
24  29  8
25  27  8
26  27  8
28  30  8
29  30  8
6  23  8
6  9  8
11  8  6
9  19  8

$$$$
