9863611
  -OEChem-09292322242D

 51 53  0     0  0  0  0  0  0999 V2000
    8.3427    0.4383    0.0000 S   0  0  0  0  0  0  0  0  0  0  0  0
    8.8394    1.3063    0.0000 O   0  0  0  0  0  0  0  0  0  0  0  0
    7.8460   -0.4296    0.0000 O   0  0  0  0  0  0  0  0  0  0  0  0
    2.6200   -0.0892    0.0000 N   0  0  0  0  0  0  0  0  0  0  0  0
    7.4747    0.9350    0.0000 N   0  0  0  0  0  0  0  0  0  0  0  0
    4.8106    0.4108    0.0000 C   0  0  0  0  0  0  0  0  0  0  0  0
    4.8106   -0.5892    0.0000 C   0  0  0  0  0  0  0  0  0  0  0  0
    4.0288    1.0343    0.0000 C   0  0  0  0  0  0  0  0  0  0  0  0
    4.0288   -1.2126    0.0000 C   0  0  0  0  0  0  0  0  0  0  0  0
    3.0539    0.8118    0.0000 C   0  0  0  0  0  0  0  0  0  0  0  0
    3.0539   -0.9901    0.0000 C   0  0  0  0  0  0  0  0  0  0  0  0
    5.7046    0.9455    0.0000 C   0  0  0  0  0  0  0  0  0  0  0  0
    6.6106    0.4317    0.0000 C   0  0  0  0  0  0  0  0  0  0  0  0
    5.7046   -1.1238    0.0000 C   0  0  0  0  0  0  0  0  0  0  0  0
    6.6106   -0.6100    0.0000 C   0  0  0  0  0  0  0  0  0  0  0  0
   11.8145   -1.5483    0.0000 C   0  0  0  0  0  0  0  0  0  0  0  0
    9.2106   -0.0583    0.0000 C   0  0  0  0  0  0  0  0  0  0  0  0
   12.6786   -1.0450    0.0000 C   0  0  0  0  0  0  0  0  0  0  0  0
   10.9465   -1.0516    0.0000 C   0  0  0  0  0  0  0  0  0  0  0  0
   13.5465   -1.5416    0.0000 C   0  0  0  0  0  0  0  0  0  0  0  0
   10.0747    0.4450    0.0000 C   0  0  0  0  0  0  0  0  0  0  0  0
    9.2145   -1.0583    0.0000 C   0  0  0  0  0  0  0  0  0  0  0  0
   10.9427   -0.0517    0.0000 C   0  0  0  0  0  0  0  0  0  0  0  0
   10.0824   -1.5550    0.0000 C   0  0  0  0  0  0  0  0  0  0  0  0
   14.4106   -1.0383    0.0000 C   0  0  0  0  0  0  0  0  0  0  0  0
    4.5136    1.4209    0.0000 H   0  0  0  0  0  0  0  0  0  0  0  0
    3.7598    1.5929    0.0000 H   0  0  0  0  0  0  0  0  0  0  0  0
    3.7598   -1.7712    0.0000 H   0  0  0  0  0  0  0  0  0  0  0  0
    4.5136   -1.5992    0.0000 H   0  0  0  0  0  0  0  0  0  0  0  0
    3.0539    1.4318    0.0000 H   0  0  0  0  0  0  0  0  0  0  0  0
    2.4494    0.9498    0.0000 H   0  0  0  0  0  0  0  0  0  0  0  0
    2.4494   -1.1281    0.0000 H   0  0  0  0  0  0  0  0  0  0  0  0
    3.0539   -1.6101    0.0000 H   0  0  0  0  0  0  0  0  0  0  0  0
    2.0000   -0.0892    0.0000 H   0  0  0  0  0  0  0  0  0  0  0  0
    5.6974    1.5655    0.0000 H   0  0  0  0  0  0  0  0  0  0  0  0
    5.6974   -1.7438    0.0000 H   0  0  0  0  0  0  0  0  0  0  0  0
    7.1464   -0.9220    0.0000 H   0  0  0  0  0  0  0  0  0  0  0  0
    7.4724    1.5550    0.0000 H   0  0  0  0  0  0  0  0  0  0  0  0
   11.4178   -2.0248    0.0000 H   0  0  0  0  0  0  0  0  0  0  0  0
   12.2148   -2.0217    0.0000 H   0  0  0  0  0  0  0  0  0  0  0  0
   13.0753   -0.5685    0.0000 H   0  0  0  0  0  0  0  0  0  0  0  0
   12.2782   -0.5716    0.0000 H   0  0  0  0  0  0  0  0  0  0  0  0
   13.1498   -2.0181    0.0000 H   0  0  0  0  0  0  0  0  0  0  0  0
   13.9469   -2.0150    0.0000 H   0  0  0  0  0  0  0  0  0  0  0  0
   10.0723    1.0650    0.0000 H   0  0  0  0  0  0  0  0  0  0  0  0
    8.6788   -1.3704    0.0000 H   0  0  0  0  0  0  0  0  0  0  0  0
   11.4784    0.2604    0.0000 H   0  0  0  0  0  0  0  0  0  0  0  0
   10.0848   -2.1750    0.0000 H   0  0  0  0  0  0  0  0  0  0  0  0
   14.7227   -1.5740    0.0000 H   0  0  0  0  0  0  0  0  0  0  0  0
   14.9463   -0.7262    0.0000 H   0  0  0  0  0  0  0  0  0  0  0  0
   14.0985   -0.5026    0.0000 H   0  0  0  0  0  0  0  0  0  0  0  0
  1  2  2  0  0  0  0
  1  3  2  0  0  0  0
  1  5  1  0  0  0  0
  1 17  1  0  0  0  0
  4 10  1  0  0  0  0
  4 11  1  0  0  0  0
  4 34  1  0  0  0  0
  5 13  1  0  0  0  0
  5 38  1  0  0  0  0
  6  7  2  0  0  0  0
  6  8  1  0  0  0  0
  6 12  1  0  0  0  0
  7  9  1  0  0  0  0
  7 14  1  0  0  0  0
  8 10  1  0  0  0  0
  8 26  1  0  0  0  0
  8 27  1  0  0  0  0
  9 11  1  0  0  0  0
  9 28  1  0  0  0  0
  9 29  1  0  0  0  0
 10 30  1  0  0  0  0
 10 31  1  0  0  0  0
 11 32  1  0  0  0  0
 11 33  1  0  0  0  0
 12 13  2  0  0  0  0
 12 35  1  0  0  0  0
 13 15  1  0  0  0  0
 14 15  2  0  0  0  0
 14 36  1  0  0  0  0
 15 37  1  0  0  0  0
 16 18  1  0  0  0  0
 16 19  1  0  0  0  0
 16 39  1  0  0  0  0
 16 40  1  0  0  0  0
 17 21  2  0  0  0  0
 17 22  1  0  0  0  0
 18 20  1  0  0  0  0
 18 41  1  0  0  0  0
 18 42  1  0  0  0  0
 19 23  2  0  0  0  0
 19 24  1  0  0  0  0
 20 25  1  0  0  0  0
 20 43  1  0  0  0  0
 20 44  1  0  0  0  0
 21 23  1  0  0  0  0
 21 45  1  0  0  0  0
 22 24  2  0  0  0  0
 22 46  1  0  0  0  0
 23 47  1  0  0  0  0
 24 48  1  0  0  0  0
 25 49  1  0  0  0  0
 25 50  1  0  0  0  0
 25 51  1  0  0  0  0
M  END
> <PUBCHEM_COMPOUND_CID>
9863611

> <PUBCHEM_COMPOUND_CANONICALIZED>
1

> <PUBCHEM_CACTVS_COMPLEXITY>
494

> <PUBCHEM_CACTVS_HBOND_ACCEPTOR>
4

> <PUBCHEM_CACTVS_HBOND_DONOR>
2

> <PUBCHEM_CACTVS_ROTATABLE_BOND>
6

> <PUBCHEM_CACTVS_SUBSKEYS>
AAADceB7MABAAAAAAAAAAAAAAAAAAAAAAAAwYAAABYAAAAABQAAAHAQQQAAADAjBWAQywYLAAAKAAiRCQHDCABAgAgAIiJgIZIgIICKAkZGEIABgkACIyAcQgIAOmAAAQAAQAAAwAACAACAAAAAAAAAAAA==

> <PUBCHEM_IUPAC_OPENEYE_NAME>
4-butyl-N-(2,3,4,5-tetrahydro-1H-3-benzazepin-7-yl)benzenesulfonamide

> <PUBCHEM_IUPAC_CAS_NAME>
4-butyl-N-(2,3,4,5-tetrahydro-1H-3-benzazepin-7-yl)benzenesulfonamide

> <PUBCHEM_IUPAC_NAME_MARKUP>
4-butyl-<I>N</I>-(2,3,4,5-tetrahydro-1<I>H</I>-3-benzazepin-7-yl)benzenesulfonamide

> <PUBCHEM_IUPAC_NAME>
4-butyl-N-(2,3,4,5-tetrahydro-1H-3-benzazepin-7-yl)benzenesulfonamide

> <PUBCHEM_IUPAC_SYSTEMATIC_NAME>
4-butyl-N-(2,3,4,5-tetrahydro-1H-3-benzazepin-7-yl)benzenesulfonamide

> <PUBCHEM_IUPAC_TRADITIONAL_NAME>
4-butyl-N-(2,3,4,5-tetrahydro-1H-3-benzazepin-7-yl)benzenesulfonamide

> <PUBCHEM_IUPAC_INCHI>
InChI=1S/C20H26N2O2S/c1-2-3-4-16-5-9-20(10-6-16)25(23,24)22-19-8-7-17-11-13-21-14-12-18(17)15-19/h5-10,15,21-22H,2-4,11-14H2,1H3

> <PUBCHEM_IUPAC_INCHIKEY>
DFONPZSBELPUSI-UHFFFAOYSA-N

> <PUBCHEM_XLOGP3_AA>
4.2

> <PUBCHEM_EXACT_MASS>
358.17149925

> <PUBCHEM_MOLECULAR_FORMULA>
C20H26N2O2S

> <PUBCHEM_MOLECULAR_WEIGHT>
358.5

> <PUBCHEM_OPENEYE_CAN_SMILES>
CCCCC1=CC=C(C=C1)S(=O)(=O)NC2=CC3=C(CCNCC3)C=C2

> <PUBCHEM_OPENEYE_ISO_SMILES>
CCCCC1=CC=C(C=C1)S(=O)(=O)NC2=CC3=C(CCNCC3)C=C2

> <PUBCHEM_CACTVS_TPSA>
66.6

> <PUBCHEM_MONOISOTOPIC_WEIGHT>
358.17149925

> <PUBCHEM_TOTAL_CHARGE>
0

> <PUBCHEM_HEAVY_ATOM_COUNT>
25

> <PUBCHEM_ATOM_DEF_STEREO_COUNT>
0

> <PUBCHEM_ATOM_UDEF_STEREO_COUNT>
0

> <PUBCHEM_BOND_DEF_STEREO_COUNT>
0

> <PUBCHEM_BOND_UDEF_STEREO_COUNT>
0

> <PUBCHEM_ISOTOPIC_ATOM_COUNT>
0

> <PUBCHEM_COMPONENT_COUNT>
1

> <PUBCHEM_CACTVS_TAUTO_COUNT>
-1

> <PUBCHEM_COORDINATE_TYPE>
1
5
255

> <PUBCHEM_BONDANNOTATIONS>
12  13  8
13  15  8
14  15  8
17  21  8
17  22  8
19  23  8
19  24  8
21  23  8
22  24  8
6  12  8
6  7  8
7  14  8

$$$$
