11762743
  -OEChem-09292322102D

 59 63  0     0  0  0  0  0  0999 V2000
   10.0158   -3.3423    0.0000 Cl  0  0  0  0  0  0  0  0  0  0  0  0
   11.3368   -4.8440    0.0000 Cl  0  0  0  0  0  0  0  0  0  0  0  0
    4.4118    1.7170    0.0000 O   0  0  0  0  0  0  0  0  0  0  0  0
    4.5274    6.1845    0.0000 O   0  0  0  0  0  0  0  0  0  0  0  0
    6.7338   -2.2338    0.0000 N   0  0  0  0  0  0  0  0  0  0  0  0
    8.0548   -3.7355    0.0000 N   0  0  0  0  0  0  0  0  0  0  0  0
    6.0528    1.1627    0.0000 N   0  0  0  0  0  0  0  0  0  0  0  0
    7.7143   -2.0372    0.0000 C   0  0  0  0  0  0  0  0  0  0  0  0
    6.4138   -3.1812    0.0000 C   0  0  0  0  0  0  0  0  0  0  0  0
    8.3748   -2.7880    0.0000 C   0  0  0  0  0  0  0  0  0  0  0  0
    7.0743   -3.9320    0.0000 C   0  0  0  0  0  0  0  0  0  0  0  0
    6.0733   -1.4830    0.0000 C   0  0  0  0  0  0  0  0  0  0  0  0
    6.3933   -0.5355    0.0000 C   0  0  0  0  0  0  0  0  0  0  0  0
    8.7153   -4.4863    0.0000 C   0  0  0  0  0  0  0  0  0  0  0  0
    5.7328    0.2153    0.0000 C   0  0  0  0  0  0  0  0  0  0  0  0
    9.6958   -4.2897    0.0000 C   0  0  0  0  0  0  0  0  0  0  0  0
    8.3953   -5.4337    0.0000 C   0  0  0  0  0  0  0  0  0  0  0  0
    5.0274    3.6457    0.0000 C   0  0  0  0  0  0  0  0  0  0  0  0
    5.7123    2.8610    0.0000 C   0  0  0  0  0  0  0  0  0  0  0  0
    4.0274    3.6457    0.0000 C   0  0  0  0  0  0  0  0  0  0  0  0
    5.3364    4.5968    0.0000 C   0  0  0  0  0  0  0  0  0  0  0  0
    5.3923    1.9135    0.0000 C   0  0  0  0  0  0  0  0  0  0  0  0
    3.7183    4.5968    0.0000 C   0  0  0  0  0  0  0  0  0  0  0  0
   10.3563   -5.0405    0.0000 C   0  0  0  0  0  0  0  0  0  0  0  0
    9.0558   -6.1845    0.0000 C   0  0  0  0  0  0  0  0  0  0  0  0
    4.5274    5.1845    0.0000 C   0  0  0  0  0  0  0  0  0  0  0  0
    6.7328    3.0697    0.0000 C   0  0  0  0  0  0  0  0  0  0  0  0
   10.0363   -5.9880    0.0000 C   0  0  0  0  0  0  0  0  0  0  0  0
    6.3518    4.8290    0.0000 C   0  0  0  0  0  0  0  0  0  0  0  0
    3.3424    2.8610    0.0000 C   0  0  0  0  0  0  0  0  0  0  0  0
    7.0547    4.0603    0.0000 C   0  0  0  0  0  0  0  0  0  0  0  0
    2.7029    4.8290    0.0000 C   0  0  0  0  0  0  0  0  0  0  0  0
    2.3219    3.0697    0.0000 C   0  0  0  0  0  0  0  0  0  0  0  0
    2.0000    4.0603    0.0000 C   0  0  0  0  0  0  0  0  0  0  0  0
    8.2439   -1.7148    0.0000 H   0  0  0  0  0  0  0  0  0  0  0  0
    7.4887   -1.4597    0.0000 H   0  0  0  0  0  0  0  0  0  0  0  0
    5.8698   -2.8838    0.0000 H   0  0  0  0  0  0  0  0  0  0  0  0
    6.0265   -3.6653    0.0000 H   0  0  0  0  0  0  0  0  0  0  0  0
    8.9188   -3.0854    0.0000 H   0  0  0  0  0  0  0  0  0  0  0  0
    8.7621   -2.3039    0.0000 H   0  0  0  0  0  0  0  0  0  0  0  0
    6.5448   -4.2545    0.0000 H   0  0  0  0  0  0  0  0  0  0  0  0
    7.2999   -4.5096    0.0000 H   0  0  0  0  0  0  0  0  0  0  0  0
    5.5293   -1.1856    0.0000 H   0  0  0  0  0  0  0  0  0  0  0  0
    5.6860   -1.9671    0.0000 H   0  0  0  0  0  0  0  0  0  0  0  0
    6.9374   -0.8329    0.0000 H   0  0  0  0  0  0  0  0  0  0  0  0
    6.7807   -0.0514    0.0000 H   0  0  0  0  0  0  0  0  0  0  0  0
    5.1888    0.5127    0.0000 H   0  0  0  0  0  0  0  0  0  0  0  0
    5.3455   -0.2688    0.0000 H   0  0  0  0  0  0  0  0  0  0  0  0
    7.7874   -5.5556    0.0000 H   0  0  0  0  0  0  0  0  0  0  0  0
    6.6607    1.2846    0.0000 H   0  0  0  0  0  0  0  0  0  0  0  0
    8.8574   -6.7719    0.0000 H   0  0  0  0  0  0  0  0  0  0  0  0
    7.1459    2.6073    0.0000 H   0  0  0  0  0  0  0  0  0  0  0  0
    6.5365    5.4208    0.0000 H   0  0  0  0  0  0  0  0  0  0  0  0
   10.4458   -6.4535    0.0000 H   0  0  0  0  0  0  0  0  0  0  0  0
    3.5408    2.2736    0.0000 H   0  0  0  0  0  0  0  0  0  0  0  0
    7.6607    4.1916    0.0000 H   0  0  0  0  0  0  0  0  0  0  0  0
    2.5182    5.4208    0.0000 H   0  0  0  0  0  0  0  0  0  0  0  0
    1.9088    2.6073    0.0000 H   0  0  0  0  0  0  0  0  0  0  0  0
    1.3940    4.1916    0.0000 H   0  0  0  0  0  0  0  0  0  0  0  0
  1 16  1  0  0  0  0
  2 24  1  0  0  0  0
  3 22  2  0  0  0  0
  4 26  2  0  0  0  0
  5  8  1  0  0  0  0
  5  9  1  0  0  0  0
  5 12  1  0  0  0  0
  6 10  1  0  0  0  0
  6 11  1  0  0  0  0
  6 14  1  0  0  0  0
  7 15  1  0  0  0  0
  7 22  1  0  0  0  0
  7 50  1  0  0  0  0
  8 10  1  0  0  0  0
  8 35  1  0  0  0  0
  8 36  1  0  0  0  0
  9 11  1  0  0  0  0
  9 37  1  0  0  0  0
  9 38  1  0  0  0  0
 10 39  1  0  0  0  0
 10 40  1  0  0  0  0
 11 41  1  0  0  0  0
 11 42  1  0  0  0  0
 12 13  1  0  0  0  0
 12 43  1  0  0  0  0
 12 44  1  0  0  0  0
 13 15  1  0  0  0  0
 13 45  1  0  0  0  0
 13 46  1  0  0  0  0
 14 16  2  0  0  0  0
 14 17  1  0  0  0  0
 15 47  1  0  0  0  0
 15 48  1  0  0  0  0
 16 24  1  0  0  0  0
 17 25  2  0  0  0  0
 17 49  1  0  0  0  0
 18 19  1  0  0  0  0
 18 20  1  0  0  0  0
 18 21  2  0  0  0  0
 19 22  1  0  0  0  0
 19 27  2  0  0  0  0
 20 23  1  0  0  0  0
 20 30  2  0  0  0  0
 21 26  1  0  0  0  0
 21 29  1  0  0  0  0
 23 26  1  0  0  0  0
 23 32  2  0  0  0  0
 24 28  2  0  0  0  0
 25 28  1  0  0  0  0
 25 51  1  0  0  0  0
 27 31  1  0  0  0  0
 27 52  1  0  0  0  0
 28 54  1  0  0  0  0
 29 31  2  0  0  0  0
 29 53  1  0  0  0  0
 30 33  1  0  0  0  0
 30 55  1  0  0  0  0
 31 56  1  0  0  0  0
 32 34  1  0  0  0  0
 32 57  1  0  0  0  0
 33 34  2  0  0  0  0
 33 58  1  0  0  0  0
 34 59  1  0  0  0  0
M  END
> <PUBCHEM_COMPOUND_CID>
11762743

> <PUBCHEM_COMPOUND_CANONICALIZED>
1

> <PUBCHEM_CACTVS_COMPLEXITY>
729

> <PUBCHEM_CACTVS_HBOND_ACCEPTOR>
4

> <PUBCHEM_CACTVS_HBOND_DONOR>
1

> <PUBCHEM_CACTVS_ROTATABLE_BOND>
6

> <PUBCHEM_CACTVS_SUBSKEYS>
AAADceB7MAAGAAAAAAAAAAAAAAAAAYAAAAA8YMEAAAAAAGABUAAAHgIQAAAADA7BmCQwwIPAAACIAqVSUACCAAAlBwAIisEIZsgIYDLB15HUIQhglgDIyYcYi8CugAACAAIQABQAAAQABCAAKQAACAAAAA==

> <PUBCHEM_IUPAC_OPENEYE_NAME>
N-[3-[4-(2,3-dichlorophenyl)piperazin-1-yl]propyl]-9-oxo-fluorene-4-carboxamide

> <PUBCHEM_IUPAC_CAS_NAME>
N-[3-[4-(2,3-dichlorophenyl)-1-piperazinyl]propyl]-9-oxo-4-fluorenecarboxamide

> <PUBCHEM_IUPAC_NAME_MARKUP>
<I>N</I>-[3-[4-(2,3-dichlorophenyl)piperazin-1-yl]propyl]-9-oxofluorene-4-carboxamide

> <PUBCHEM_IUPAC_NAME>
N-[3-[4-(2,3-dichlorophenyl)piperazin-1-yl]propyl]-9-oxofluorene-4-carboxamide

> <PUBCHEM_IUPAC_SYSTEMATIC_NAME>
N-[3-[4-[2,3-bis(chloranyl)phenyl]piperazin-1-yl]propyl]-9-oxidanylidene-fluorene-4-carboxamide

> <PUBCHEM_IUPAC_TRADITIONAL_NAME>
N-[3-[4-(2,3-dichlorophenyl)piperazino]propyl]-9-keto-fluorene-4-carboxamide

> <PUBCHEM_IUPAC_INCHI>
InChI=1S/C27H25Cl2N3O2/c28-22-10-4-11-23(25(22)29)32-16-14-31(15-17-32)13-5-12-30-27(34)21-9-3-8-20-24(21)18-6-1-2-7-19(18)26(20)33/h1-4,6-11H,5,12-17H2,(H,30,34)

> <PUBCHEM_IUPAC_INCHIKEY>
CVJYJKRPDVXLEY-UHFFFAOYSA-N

> <PUBCHEM_XLOGP3_AA>
5.6

> <PUBCHEM_EXACT_MASS>
493.1323824

> <PUBCHEM_MOLECULAR_FORMULA>
C27H25Cl2N3O2

> <PUBCHEM_MOLECULAR_WEIGHT>
494.4

> <PUBCHEM_OPENEYE_CAN_SMILES>
C1CN(CCN1CCCNC(=O)C2=CC=CC3=C2C4=CC=CC=C4C3=O)C5=C(C(=CC=C5)Cl)Cl

> <PUBCHEM_OPENEYE_ISO_SMILES>
C1CN(CCN1CCCNC(=O)C2=CC=CC3=C2C4=CC=CC=C4C3=O)C5=C(C(=CC=C5)Cl)Cl

> <PUBCHEM_CACTVS_TPSA>
52.6

> <PUBCHEM_MONOISOTOPIC_WEIGHT>
493.1323824

> <PUBCHEM_TOTAL_CHARGE>
0

> <PUBCHEM_HEAVY_ATOM_COUNT>
34

> <PUBCHEM_ATOM_DEF_STEREO_COUNT>
0

> <PUBCHEM_ATOM_UDEF_STEREO_COUNT>
0

> <PUBCHEM_BOND_DEF_STEREO_COUNT>
0

> <PUBCHEM_BOND_UDEF_STEREO_COUNT>
0

> <PUBCHEM_ISOTOPIC_ATOM_COUNT>
0

> <PUBCHEM_COMPONENT_COUNT>
1

> <PUBCHEM_CACTVS_TAUTO_COUNT>
-1

> <PUBCHEM_COORDINATE_TYPE>
1
5
255

> <PUBCHEM_BONDANNOTATIONS>
14  16  8
14  17  8
16  24  8
17  25  8
18  19  8
18  21  8
19  27  8
20  23  8
20  30  8
21  29  8
23  32  8
24  28  8
25  28  8
27  31  8
29  31  8
30  33  8
32  34  8
33  34  8

$$$$
