44340278
  -OEChem-09292322212D

 58 61  0     1  0  0  0  0  0999 V2000
    9.3912   -2.6934    0.0000 S   0  0  0  0  0  0  0  0  0  0  0  0
    5.9271   -0.6934    0.0000 O   0  0  0  0  0  0  0  0  0  0  0  0
    8.8912   -3.5594    0.0000 O   0  0  0  0  0  0  0  0  0  0  0  0
    9.8912   -1.8273    0.0000 O   0  0  0  0  0  0  0  0  0  0  0  0
    5.5714    2.6545    0.0000 N   0  0  3  0  0  0  0  0  0  0  0  0
    6.8501    0.8944    0.0000 N   0  0  0  0  0  0  0  0  0  0  0  0
    6.5714    2.6545    0.0000 C   0  0  3  0  0  0  0  0  0  0  0  0
    6.8804    3.6056    0.0000 C   0  0  0  0  0  0  0  0  0  0  0  0
    6.0714    4.1934    0.0000 C   0  0  0  0  0  0  0  0  0  0  0  0
    5.2623    3.6056    0.0000 C   0  0  0  0  0  0  0  0  0  0  0  0
    7.1591    1.8455    0.0000 C   0  0  0  0  0  0  0  0  0  0  0  0
    4.9836    1.8455    0.0000 C   0  0  0  0  0  0  0  0  0  0  0  0
    8.1591    1.8455    0.0000 C   0  0  0  0  0  0  0  0  0  0  0  0
    3.9890    1.9500    0.0000 C   0  0  0  0  0  0  0  0  0  0  0  0
    7.6591    0.3066    0.0000 C   0  0  0  0  0  0  0  0  0  0  0  0
    8.4682    0.8944    0.0000 C   0  0  0  0  0  0  0  0  0  0  0  0
    7.6591   -0.6934    0.0000 C   0  0  0  0  0  0  0  0  0  0  0  0
    3.4013    1.1410    0.0000 C   0  0  0  0  0  0  0  0  0  0  0  0
    3.5823    2.8636    0.0000 C   0  0  0  0  0  0  0  0  0  0  0  0
    8.5252   -1.1934    0.0000 C   0  0  0  0  0  0  0  0  0  0  0  0
    6.7931   -1.1934    0.0000 C   0  0  0  0  0  0  0  0  0  0  0  0
    8.5252   -2.1934    0.0000 C   0  0  0  0  0  0  0  0  0  0  0  0
    2.4067    1.2455    0.0000 C   0  0  0  0  0  0  0  0  0  0  0  0
    2.5878    2.9681    0.0000 C   0  0  0  0  0  0  0  0  0  0  0  0
    6.7931   -2.1934    0.0000 C   0  0  0  0  0  0  0  0  0  0  0  0
    7.6591   -2.6934    0.0000 C   0  0  0  0  0  0  0  0  0  0  0  0
    2.0000    2.1591    0.0000 C   0  0  0  0  0  0  0  0  0  0  0  0
   10.2572   -3.1934    0.0000 C   0  0  0  0  0  0  0  0  0  0  0  0
   10.2572   -4.1934    0.0000 C   0  0  0  0  0  0  0  0  0  0  0  0
    5.0611   -1.1934    0.0000 C   0  0  0  0  0  0  0  0  0  0  0  0
    7.1837    2.7515    0.0000 H   0  0  0  0  0  0  0  0  0  0  0  0
    7.4468    3.3534    0.0000 H   0  0  0  0  0  0  0  0  0  0  0  0
    7.1904    4.1425    0.0000 H   0  0  0  0  0  0  0  0  0  0  0  0
    6.4862    4.6541    0.0000 H   0  0  0  0  0  0  0  0  0  0  0  0
    5.6565    4.6541    0.0000 H   0  0  0  0  0  0  0  0  0  0  0  0
    4.9523    4.1425    0.0000 H   0  0  0  0  0  0  0  0  0  0  0  0
    4.6959    3.3534    0.0000 H   0  0  0  0  0  0  0  0  0  0  0  0
    4.8127    1.2495    0.0000 H   0  0  0  0  0  0  0  0  0  0  0  0
    5.5408    1.5737    0.0000 H   0  0  0  0  0  0  0  0  0  0  0  0
    6.2605    0.7028    0.0000 H   0  0  0  0  0  0  0  0  0  0  0  0
    8.5236    2.3471    0.0000 H   0  0  0  0  0  0  0  0  0  0  0  0
    9.0578    0.7028    0.0000 H   0  0  0  0  0  0  0  0  0  0  0  0
    3.6534    0.5746    0.0000 H   0  0  0  0  0  0  0  0  0  0  0  0
    3.9467    3.3652    0.0000 H   0  0  0  0  0  0  0  0  0  0  0  0
    9.0621   -0.8834    0.0000 H   0  0  0  0  0  0  0  0  0  0  0  0
    2.0423    0.7439    0.0000 H   0  0  0  0  0  0  0  0  0  0  0  0
    2.3356    3.5345    0.0000 H   0  0  0  0  0  0  0  0  0  0  0  0
    6.2562   -2.5034    0.0000 H   0  0  0  0  0  0  0  0  0  0  0  0
    7.6591   -3.3134    0.0000 H   0  0  0  0  0  0  0  0  0  0  0  0
    1.3834    2.2239    0.0000 H   0  0  0  0  0  0  0  0  0  0  0  0
   10.8678   -3.3010    0.0000 H   0  0  0  0  0  0  0  0  0  0  0  0
   10.4693   -2.6107    0.0000 H   0  0  0  0  0  0  0  0  0  0  0  0
    9.6372   -4.1934    0.0000 H   0  0  0  0  0  0  0  0  0  0  0  0
   10.2572   -4.8134    0.0000 H   0  0  0  0  0  0  0  0  0  0  0  0
   10.8772   -4.1934    0.0000 H   0  0  0  0  0  0  0  0  0  0  0  0
    4.7511   -0.6564    0.0000 H   0  0  0  0  0  0  0  0  0  0  0  0
    4.5241   -1.5034    0.0000 H   0  0  0  0  0  0  0  0  0  0  0  0
    5.3711   -1.7303    0.0000 H   0  0  0  0  0  0  0  0  0  0  0  0
  1  3  2  0  0  0  0
  1  4  2  0  0  0  0
  1 22  1  0  0  0  0
  1 28  1  0  0  0  0
  2 21  1  0  0  0  0
  2 30  1  0  0  0  0
  5  7  1  0  0  0  0
  5 10  1  0  0  0  0
  5 12  1  0  0  0  0
  6 11  1  0  0  0  0
  6 15  1  0  0  0  0
  6 40  1  0  0  0  0
  7  8  1  0  0  0  0
  7 11  1  0  0  0  0
  7 31  1  0  0  0  0
  8  9  1  0  0  0  0
  8 32  1  0  0  0  0
  8 33  1  0  0  0  0
  9 10  1  0  0  0  0
  9 34  1  0  0  0  0
  9 35  1  0  0  0  0
 10 36  1  0  0  0  0
 10 37  1  0  0  0  0
 11 13  2  0  0  0  0
 12 14  1  0  0  0  0
 12 38  1  0  0  0  0
 12 39  1  0  0  0  0
 13 16  1  0  0  0  0
 13 41  1  0  0  0  0
 14 18  2  0  0  0  0
 14 19  1  0  0  0  0
 15 16  2  0  0  0  0
 15 17  1  0  0  0  0
 16 42  1  0  0  0  0
 17 20  1  0  0  0  0
 17 21  2  0  0  0  0
 18 23  1  0  0  0  0
 18 43  1  0  0  0  0
 19 24  2  0  0  0  0
 19 44  1  0  0  0  0
 20 22  2  0  0  0  0
 20 45  1  0  0  0  0
 21 25  1  0  0  0  0
 22 26  1  0  0  0  0
 23 27  2  0  0  0  0
 23 46  1  0  0  0  0
 24 27  1  0  0  0  0
 24 47  1  0  0  0  0
 25 26  2  0  0  0  0
 25 48  1  0  0  0  0
 26 49  1  0  0  0  0
 27 50  1  0  0  0  0
 28 29  1  0  0  0  0
 28 51  1  0  0  0  0
 28 52  1  0  0  0  0
 29 53  1  0  0  0  0
 29 54  1  0  0  0  0
 29 55  1  0  0  0  0
 30 56  1  0  0  0  0
 30 57  1  0  0  0  0
 30 58  1  0  0  0  0
M  END
> <PUBCHEM_COMPOUND_CID>
44340278

> <PUBCHEM_COMPOUND_CANONICALIZED>
1

> <PUBCHEM_CACTVS_COMPLEXITY>
643

> <PUBCHEM_CACTVS_HBOND_ACCEPTOR>
4

> <PUBCHEM_CACTVS_HBOND_DONOR>
1

> <PUBCHEM_CACTVS_ROTATABLE_BOND>
7

> <PUBCHEM_CACTVS_SUBSKEYS>
AAADceB7MABAAAAAAAAAAAAAAAAAAWLAAAAwYAAAAAAAAAAB0AAAHgQQAAAADCzF3gayh5PJlAqgAyRiRHDCiCAhKjAImTg+bJgMZuLksZuUMChm0BHo6AeQwOAOAIAAgAAIAAABAAEAABAAAAAAAAAAAA==

> <PUBCHEM_IUPAC_OPENEYE_NAME>
2-(1-benzylpyrrolidin-2-yl)-5-(5-ethylsulfonyl-2-methoxy-phenyl)-1H-pyrrole

> <PUBCHEM_IUPAC_CAS_NAME>
2-(5-ethylsulfonyl-2-methoxyphenyl)-5-[1-(phenylmethyl)-2-pyrrolidinyl]-1H-pyrrole

> <PUBCHEM_IUPAC_NAME_MARKUP>
2-(1-benzylpyrrolidin-2-yl)-5-(5-ethylsulfonyl-2-methoxyphenyl)-1<I>H</I>-pyrrole

> <PUBCHEM_IUPAC_NAME>
2-(1-benzylpyrrolidin-2-yl)-5-(5-ethylsulfonyl-2-methoxyphenyl)-1H-pyrrole

> <PUBCHEM_IUPAC_SYSTEMATIC_NAME>
2-(5-ethylsulfonyl-2-methoxy-phenyl)-5-[1-(phenylmethyl)pyrrolidin-2-yl]-1H-pyrrole

> <PUBCHEM_IUPAC_TRADITIONAL_NAME>
2-(1-benzylpyrrolidin-2-yl)-5-(5-esyl-2-methoxy-phenyl)-1H-pyrrole

> <PUBCHEM_IUPAC_INCHI>
InChI=1S/C24H28N2O3S/c1-3-30(27,28)19-11-14-24(29-2)20(16-19)21-12-13-22(25-21)23-10-7-15-26(23)17-18-8-5-4-6-9-18/h4-6,8-9,11-14,16,23,25H,3,7,10,15,17H2,1-2H3

> <PUBCHEM_IUPAC_INCHIKEY>
WCXOZRBCTFWPKS-UHFFFAOYSA-N

> <PUBCHEM_XLOGP3_AA>
3.8

> <PUBCHEM_EXACT_MASS>
424.18206393

> <PUBCHEM_MOLECULAR_FORMULA>
C24H28N2O3S

> <PUBCHEM_MOLECULAR_WEIGHT>
424.6

> <PUBCHEM_OPENEYE_CAN_SMILES>
CCS(=O)(=O)C1=CC(=C(C=C1)OC)C2=CC=C(N2)C3CCCN3CC4=CC=CC=C4

> <PUBCHEM_OPENEYE_ISO_SMILES>
CCS(=O)(=O)C1=CC(=C(C=C1)OC)C2=CC=C(N2)C3CCCN3CC4=CC=CC=C4

> <PUBCHEM_CACTVS_TPSA>
70.8

> <PUBCHEM_MONOISOTOPIC_WEIGHT>
424.18206393

> <PUBCHEM_TOTAL_CHARGE>
0

> <PUBCHEM_HEAVY_ATOM_COUNT>
30

> <PUBCHEM_ATOM_DEF_STEREO_COUNT>
0

> <PUBCHEM_ATOM_UDEF_STEREO_COUNT>
1

> <PUBCHEM_BOND_DEF_STEREO_COUNT>
0

> <PUBCHEM_BOND_UDEF_STEREO_COUNT>
0

> <PUBCHEM_ISOTOPIC_ATOM_COUNT>
0

> <PUBCHEM_COMPONENT_COUNT>
1

> <PUBCHEM_CACTVS_TAUTO_COUNT>
-1

> <PUBCHEM_COORDINATE_TYPE>
1
5
255

> <PUBCHEM_BONDANNOTATIONS>
11  13  8
13  16  8
14  18  8
14  19  8
15  16  8
17  20  8
17  21  8
18  23  8
19  24  8
20  22  8
21  25  8
22  26  8
23  27  8
24  27  8
25  26  8
6  11  8
6  15  8
7  11  3

$$$$
