44371566
  -OEChem-09292322182D

 84 88  0     1  0  0  0  0  0999 V2000
   15.0564    2.7085    0.0000 O   0  0  0  0  0  0  0  0  0  0  0  0
    6.3301   -1.2673    0.0000 O   0  0  0  0  0  0  0  0  0  0  0  0
    9.7942    2.7327    0.0000 N   0  0  3  0  0  0  0  0  0  0  0  0
    6.3301    2.7327    0.0000 N   0  0  0  0  0  0  0  0  0  0  0  0
    4.5981    1.7327    0.0000 N   0  0  0  0  0  0  0  0  0  0  0  0
    8.0622   -1.2673    0.0000 N   0  0  0  0  0  0  0  0  0  0  0  0
   10.6603    3.2327    0.0000 C   0  0  3  0  0  0  0  0  0  0  0  0
   10.6603    4.2327    0.0000 C   0  0  0  0  0  0  0  0  0  0  0  0
   11.5263    2.7327    0.0000 C   0  0  0  0  0  0  0  0  0  0  0  0
    8.9282    3.2327    0.0000 C   0  0  0  0  0  0  0  0  0  0  0  0
   11.5263    4.7327    0.0000 C   0  0  0  0  0  0  0  0  0  0  0  0
    9.7942    1.7327    0.0000 C   0  0  0  0  0  0  0  0  0  0  0  0
   12.3923    3.2327    0.0000 C   0  0  0  0  0  0  0  0  0  0  0  0
    8.0622    2.7327    0.0000 C   0  0  0  0  0  0  0  0  0  0  0  0
   12.3923    4.2327    0.0000 C   0  0  0  0  0  0  0  0  0  0  0  0
    7.1962    3.2327    0.0000 C   0  0  0  0  0  0  0  0  0  0  0  0
    8.9282    1.2327    0.0000 C   0  0  0  0  0  0  0  0  0  0  0  0
    5.4641    3.2327    0.0000 C   0  0  0  0  0  0  0  0  0  0  0  0
    6.3301    1.7327    0.0000 C   0  0  0  0  0  0  0  0  0  0  0  0
    4.5981    2.7327    0.0000 C   0  0  0  0  0  0  0  0  0  0  0  0
    5.4641    1.2327    0.0000 C   0  0  0  0  0  0  0  0  0  0  0  0
   13.2862    2.6980    0.0000 C   0  0  0  0  0  0  0  0  0  0  0  0
   13.2862    4.7673    0.0000 C   0  0  0  0  0  0  0  0  0  0  0  0
    8.9282    0.2327    0.0000 C   0  0  0  0  0  0  0  0  0  0  0  0
   14.1923    3.2118    0.0000 C   0  0  0  0  0  0  0  0  0  0  0  0
   14.1923    4.2535    0.0000 C   0  0  0  0  0  0  0  0  0  0  0  0
    3.7320    1.2327    0.0000 C   0  0  0  0  0  0  0  0  0  0  0  0
    8.0622   -0.2673    0.0000 C   0  0  0  0  0  0  0  0  0  0  0  0
    3.7320    0.2327    0.0000 C   0  0  0  0  0  0  0  0  0  0  0  0
    2.8660    1.7327    0.0000 C   0  0  0  0  0  0  0  0  0  0  0  0
    2.8660   -0.2673    0.0000 C   0  0  0  0  0  0  0  0  0  0  0  0
    2.0000    1.2327    0.0000 C   0  0  0  0  0  0  0  0  0  0  0  0
    2.0000    0.2327    0.0000 C   0  0  0  0  0  0  0  0  0  0  0  0
    7.1962   -1.7673    0.0000 C   0  0  0  0  0  0  0  0  0  0  0  0
    7.1962   -2.7673    0.0000 C   0  0  0  0  0  0  0  0  0  0  0  0
    8.0622   -3.2673    0.0000 C   0  0  0  0  0  0  0  0  0  0  0  0
    6.3301   -3.2673    0.0000 C   0  0  0  0  0  0  0  0  0  0  0  0
    8.0622   -4.2673    0.0000 C   0  0  0  0  0  0  0  0  0  0  0  0
    6.3301   -4.2673    0.0000 C   0  0  0  0  0  0  0  0  0  0  0  0
    7.1962   -4.7673    0.0000 C   0  0  0  0  0  0  0  0  0  0  0  0
   10.6603    2.6127    0.0000 H   0  0  0  0  0  0  0  0  0  0  0  0
   10.4482    4.8153    0.0000 H   0  0  0  0  0  0  0  0  0  0  0  0
   10.0497    4.1250    0.0000 H   0  0  0  0  0  0  0  0  0  0  0  0
   11.1278    2.2577    0.0000 H   0  0  0  0  0  0  0  0  0  0  0  0
   11.9248    2.2577    0.0000 H   0  0  0  0  0  0  0  0  0  0  0  0
    9.3267    3.7076    0.0000 H   0  0  0  0  0  0  0  0  0  0  0  0
    8.5297    3.7076    0.0000 H   0  0  0  0  0  0  0  0  0  0  0  0
   11.9248    5.2076    0.0000 H   0  0  0  0  0  0  0  0  0  0  0  0
   11.1278    5.2076    0.0000 H   0  0  0  0  0  0  0  0  0  0  0  0
   10.0063    1.1501    0.0000 H   0  0  0  0  0  0  0  0  0  0  0  0
   10.4048    1.8403    0.0000 H   0  0  0  0  0  0  0  0  0  0  0  0
    7.6636    2.2577    0.0000 H   0  0  0  0  0  0  0  0  0  0  0  0
    8.4607    2.2577    0.0000 H   0  0  0  0  0  0  0  0  0  0  0  0
    7.5947    3.7076    0.0000 H   0  0  0  0  0  0  0  0  0  0  0  0
    6.7976    3.7076    0.0000 H   0  0  0  0  0  0  0  0  0  0  0  0
    8.7162    1.8153    0.0000 H   0  0  0  0  0  0  0  0  0  0  0  0
    8.3176    1.1250    0.0000 H   0  0  0  0  0  0  0  0  0  0  0  0
    5.8626    3.7076    0.0000 H   0  0  0  0  0  0  0  0  0  0  0  0
    5.0656    3.7076    0.0000 H   0  0  0  0  0  0  0  0  0  0  0  0
    6.5422    1.1501    0.0000 H   0  0  0  0  0  0  0  0  0  0  0  0
    6.9407    1.8403    0.0000 H   0  0  0  0  0  0  0  0  0  0  0  0
    4.3860    3.3153    0.0000 H   0  0  0  0  0  0  0  0  0  0  0  0
    3.9875    2.6250    0.0000 H   0  0  0  0  0  0  0  0  0  0  0  0
    5.0656    0.7577    0.0000 H   0  0  0  0  0  0  0  0  0  0  0  0
    5.8626    0.7577    0.0000 H   0  0  0  0  0  0  0  0  0  0  0  0
   13.2791    2.0780    0.0000 H   0  0  0  0  0  0  0  0  0  0  0  0
   13.2791    5.3873    0.0000 H   0  0  0  0  0  0  0  0  0  0  0  0
    9.1403   -0.3499    0.0000 H   0  0  0  0  0  0  0  0  0  0  0  0
    9.5388    0.3403    0.0000 H   0  0  0  0  0  0  0  0  0  0  0  0
   14.7281    4.5656    0.0000 H   0  0  0  0  0  0  0  0  0  0  0  0
    7.8501    0.3153    0.0000 H   0  0  0  0  0  0  0  0  0  0  0  0
    7.4516   -0.3750    0.0000 H   0  0  0  0  0  0  0  0  0  0  0  0
    4.2690   -0.0773    0.0000 H   0  0  0  0  0  0  0  0  0  0  0  0
    2.8660    2.3527    0.0000 H   0  0  0  0  0  0  0  0  0  0  0  0
    8.5991   -1.5773    0.0000 H   0  0  0  0  0  0  0  0  0  0  0  0
   15.5945    3.0164    0.0000 H   0  0  0  0  0  0  0  0  0  0  0  0
    2.8660   -0.8873    0.0000 H   0  0  0  0  0  0  0  0  0  0  0  0
    1.4631    1.5427    0.0000 H   0  0  0  0  0  0  0  0  0  0  0  0
    1.4631   -0.0773    0.0000 H   0  0  0  0  0  0  0  0  0  0  0  0
    8.5991   -2.9573    0.0000 H   0  0  0  0  0  0  0  0  0  0  0  0
    5.7932   -2.9573    0.0000 H   0  0  0  0  0  0  0  0  0  0  0  0
    8.5991   -4.5773    0.0000 H   0  0  0  0  0  0  0  0  0  0  0  0
    5.7932   -4.5773    0.0000 H   0  0  0  0  0  0  0  0  0  0  0  0
    7.1962   -5.3873    0.0000 H   0  0  0  0  0  0  0  0  0  0  0  0
  1 25  1  0  0  0  0
  1 76  1  0  0  0  0
  2 34  2  0  0  0  0
  3  7  1  0  0  0  0
  3 10  1  0  0  0  0
  3 12  1  0  0  0  0
  4 16  1  0  0  0  0
  4 18  1  0  0  0  0
  4 19  1  0  0  0  0
  5 20  1  0  0  0  0
  5 21  1  0  0  0  0
  5 27  1  0  0  0  0
  6 28  1  0  0  0  0
  6 34  1  0  0  0  0
  6 75  1  0  0  0  0
  7  8  1  0  0  0  0
  7  9  1  0  0  0  0
  7 41  1  0  0  0  0
  8 11  1  0  0  0  0
  8 42  1  0  0  0  0
  8 43  1  0  0  0  0
  9 13  1  0  0  0  0
  9 44  1  0  0  0  0
  9 45  1  0  0  0  0
 10 14  1  0  0  0  0
 10 46  1  0  0  0  0
 10 47  1  0  0  0  0
 11 15  1  0  0  0  0
 11 48  1  0  0  0  0
 11 49  1  0  0  0  0
 12 17  1  0  0  0  0
 12 50  1  0  0  0  0
 12 51  1  0  0  0  0
 13 15  2  0  0  0  0
 13 22  1  0  0  0  0
 14 16  1  0  0  0  0
 14 52  1  0  0  0  0
 14 53  1  0  0  0  0
 15 23  1  0  0  0  0
 16 54  1  0  0  0  0
 16 55  1  0  0  0  0
 17 24  1  0  0  0  0
 17 56  1  0  0  0  0
 17 57  1  0  0  0  0
 18 20  1  0  0  0  0
 18 58  1  0  0  0  0
 18 59  1  0  0  0  0
 19 21  1  0  0  0  0
 19 60  1  0  0  0  0
 19 61  1  0  0  0  0
 20 62  1  0  0  0  0
 20 63  1  0  0  0  0
 21 64  1  0  0  0  0
 21 65  1  0  0  0  0
 22 25  2  0  0  0  0
 22 66  1  0  0  0  0
 23 26  2  0  0  0  0
 23 67  1  0  0  0  0
 24 28  1  0  0  0  0
 24 68  1  0  0  0  0
 24 69  1  0  0  0  0
 25 26  1  0  0  0  0
 26 70  1  0  0  0  0
 27 29  2  0  0  0  0
 27 30  1  0  0  0  0
 28 71  1  0  0  0  0
 28 72  1  0  0  0  0
 29 31  1  0  0  0  0
 29 73  1  0  0  0  0
 30 32  2  0  0  0  0
 30 74  1  0  0  0  0
 31 33  2  0  0  0  0
 31 77  1  0  0  0  0
 32 33  1  0  0  0  0
 32 78  1  0  0  0  0
 33 79  1  0  0  0  0
 34 35  1  0  0  0  0
 35 36  2  0  0  0  0
 35 37  1  0  0  0  0
 36 38  1  0  0  0  0
 36 80  1  0  0  0  0
 37 39  2  0  0  0  0
 37 81  1  0  0  0  0
 38 40  2  0  0  0  0
 38 82  1  0  0  0  0
 39 40  1  0  0  0  0
 39 83  1  0  0  0  0
 40 84  1  0  0  0  0
M  END
> <PUBCHEM_COMPOUND_CID>
44371566

> <PUBCHEM_COMPOUND_CANONICALIZED>
1

> <PUBCHEM_CACTVS_COMPLEXITY>
730

> <PUBCHEM_CACTVS_HBOND_ACCEPTOR>
5

> <PUBCHEM_CACTVS_HBOND_DONOR>
2

> <PUBCHEM_CACTVS_ROTATABLE_BOND>
12

> <PUBCHEM_CACTVS_SUBSKEYS>
AAADcfB/sAAAAAAAAAAAAAAAAAAAAAAAAAA8YMGCAAAAAADBUAAAHgAQCAAADCzBmAQwxoPAAgCIAiVSUACCAAAlIgAIiIEObMgIZjLC1ZOUcQhk1hHI2YeY2LOOoAABAAAQAABQAAKAACAAAAAAAAAAAA==

> <PUBCHEM_IUPAC_OPENEYE_NAME>
N-[4-[(7-hydroxytetralin-2-yl)-[3-(4-phenylpiperazin-1-yl)propyl]amino]butyl]benzamide

> <PUBCHEM_IUPAC_CAS_NAME>
N-[4-[(7-hydroxy-1,2,3,4-tetrahydronaphthalen-2-yl)-[3-(4-phenyl-1-piperazinyl)propyl]amino]butyl]benzamide

> <PUBCHEM_IUPAC_NAME_MARKUP>
<I>N</I>-[4-[(7-hydroxy-1,2,3,4-tetrahydronaphthalen-2-yl)-[3-(4-phenylpiperazin-1-yl)propyl]amino]butyl]benzamide

> <PUBCHEM_IUPAC_NAME>
N-[4-[(7-hydroxy-1,2,3,4-tetrahydronaphthalen-2-yl)-[3-(4-phenylpiperazin-1-yl)propyl]amino]butyl]benzamide

> <PUBCHEM_IUPAC_SYSTEMATIC_NAME>
N-[4-[(7-oxidanyl-1,2,3,4-tetrahydronaphthalen-2-yl)-[3-(4-phenylpiperazin-1-yl)propyl]amino]butyl]benzamide

> <PUBCHEM_IUPAC_TRADITIONAL_NAME>
N-[4-[(7-hydroxytetralin-2-yl)-[3-(4-phenylpiperazino)propyl]amino]butyl]benzamide

> <PUBCHEM_IUPAC_INCHI>
InChI=1S/C34H44N4O2/c39-33-17-15-28-14-16-32(26-30(28)27-33)37(20-8-7-18-35-34(40)29-10-3-1-4-11-29)21-9-19-36-22-24-38(25-23-36)31-12-5-2-6-13-31/h1-6,10-13,15,17,27,32,39H,7-9,14,16,18-26H2,(H,35,40)

> <PUBCHEM_IUPAC_INCHIKEY>
HYAIONDADCANQM-UHFFFAOYSA-N

> <PUBCHEM_XLOGP3_AA>
6

> <PUBCHEM_EXACT_MASS>
540.34642666

> <PUBCHEM_MOLECULAR_FORMULA>
C34H44N4O2

> <PUBCHEM_MOLECULAR_WEIGHT>
540.7

> <PUBCHEM_OPENEYE_CAN_SMILES>
C1CC2=C(CC1N(CCCCNC(=O)C3=CC=CC=C3)CCCN4CCN(CC4)C5=CC=CC=C5)C=C(C=C2)O

> <PUBCHEM_OPENEYE_ISO_SMILES>
C1CC2=C(CC1N(CCCCNC(=O)C3=CC=CC=C3)CCCN4CCN(CC4)C5=CC=CC=C5)C=C(C=C2)O

> <PUBCHEM_CACTVS_TPSA>
59

> <PUBCHEM_MONOISOTOPIC_WEIGHT>
540.34642666

> <PUBCHEM_TOTAL_CHARGE>
0

> <PUBCHEM_HEAVY_ATOM_COUNT>
40

> <PUBCHEM_ATOM_DEF_STEREO_COUNT>
0

> <PUBCHEM_ATOM_UDEF_STEREO_COUNT>
1

> <PUBCHEM_BOND_DEF_STEREO_COUNT>
0

> <PUBCHEM_BOND_UDEF_STEREO_COUNT>
0

> <PUBCHEM_ISOTOPIC_ATOM_COUNT>
0

> <PUBCHEM_COMPONENT_COUNT>
1

> <PUBCHEM_CACTVS_TAUTO_COUNT>
-1

> <PUBCHEM_COORDINATE_TYPE>
1
5
255

> <PUBCHEM_BONDANNOTATIONS>
13  15  8
13  22  8
15  23  8
22  25  8
23  26  8
25  26  8
27  29  8
27  30  8
29  31  8
7  3  3
30  32  8
31  33  8
32  33  8
35  36  8
35  37  8
36  38  8
37  39  8
38  40  8
39  40  8

$$$$
