24879058
  -OEChem-09292322492D

 51 52  0     1  0  0  0  0  0999 V2000
    7.6962    3.4510    0.0000 F   0  0  0  0  0  0  0  0  0  0  0  0
    8.0622    4.8170    0.0000 F   0  0  0  0  0  0  0  0  0  0  0  0
    6.6962    5.1830    0.0000 F   0  0  0  0  0  0  0  0  0  0  0  0
    6.3301    3.8170    0.0000 O   0  0  0  0  0  0  0  0  0  0  0  0
    2.8660   -3.1830    0.0000 N   0  0  0  0  0  0  0  0  0  0  0  0
    3.7320   -0.6830    0.0000 N   0  0  3  0  0  0  0  0  0  0  0  0
    2.0000   -3.6830    0.0000 C   0  0  0  0  0  0  0  0  0  0  0  0
    3.7320   -3.6830    0.0000 C   0  0  0  0  0  0  0  0  0  0  0  0
    2.0000   -4.6830    0.0000 C   0  0  0  0  0  0  0  0  0  0  0  0
    3.7320   -4.6830    0.0000 C   0  0  0  0  0  0  0  0  0  0  0  0
    2.8660   -5.1830    0.0000 C   0  0  0  0  0  0  0  0  0  0  0  0
    2.8660   -2.1830    0.0000 C   0  0  0  0  0  0  0  0  0  0  0  0
    3.7320   -1.6830    0.0000 C   0  0  0  0  0  0  0  0  0  0  0  0
    4.5981   -0.1830    0.0000 C   0  0  0  0  0  0  0  0  0  0  0  0
    2.8660   -0.1830    0.0000 C   0  0  0  0  0  0  0  0  0  0  0  0
    4.5981    0.8170    0.0000 C   0  0  0  0  0  0  0  0  0  0  0  0
    2.0000   -0.6830    0.0000 C   0  0  0  0  0  0  0  0  0  0  0  0
    5.4641    1.3170    0.0000 C   0  0  0  0  0  0  0  0  0  0  0  0
    5.4641    2.3170    0.0000 C   0  0  0  0  0  0  0  0  0  0  0  0
    6.3301    0.8170    0.0000 C   0  0  0  0  0  0  0  0  0  0  0  0
    6.3301    2.8170    0.0000 C   0  0  0  0  0  0  0  0  0  0  0  0
    7.1962    1.3170    0.0000 C   0  0  0  0  0  0  0  0  0  0  0  0
    7.1962    2.3170    0.0000 C   0  0  0  0  0  0  0  0  0  0  0  0
    7.1962    4.3170    0.0000 C   0  0  0  0  0  0  0  0  0  0  0  0
    1.7880   -3.1004    0.0000 H   0  0  0  0  0  0  0  0  0  0  0  0
    1.3894   -3.7907    0.0000 H   0  0  0  0  0  0  0  0  0  0  0  0
    4.3426   -3.7907    0.0000 H   0  0  0  0  0  0  0  0  0  0  0  0
    3.9441   -3.1004    0.0000 H   0  0  0  0  0  0  0  0  0  0  0  0
    1.3894   -4.5754    0.0000 H   0  0  0  0  0  0  0  0  0  0  0  0
    1.7880   -5.2656    0.0000 H   0  0  0  0  0  0  0  0  0  0  0  0
    3.9441   -5.2656    0.0000 H   0  0  0  0  0  0  0  0  0  0  0  0
    4.3426   -4.5754    0.0000 H   0  0  0  0  0  0  0  0  0  0  0  0
    2.4675   -5.6580    0.0000 H   0  0  0  0  0  0  0  0  0  0  0  0
    3.2646   -5.6580    0.0000 H   0  0  0  0  0  0  0  0  0  0  0  0
    2.6540   -1.6004    0.0000 H   0  0  0  0  0  0  0  0  0  0  0  0
    2.2554   -2.2907    0.0000 H   0  0  0  0  0  0  0  0  0  0  0  0
    3.9441   -2.2656    0.0000 H   0  0  0  0  0  0  0  0  0  0  0  0
    4.3426   -1.5754    0.0000 H   0  0  0  0  0  0  0  0  0  0  0  0
    4.8101   -0.7656    0.0000 H   0  0  0  0  0  0  0  0  0  0  0  0
    5.2087   -0.0754    0.0000 H   0  0  0  0  0  0  0  0  0  0  0  0
    3.2646    0.2919    0.0000 H   0  0  0  0  0  0  0  0  0  0  0  0
    2.4675    0.2919    0.0000 H   0  0  0  0  0  0  0  0  0  0  0  0
    4.3860    1.3996    0.0000 H   0  0  0  0  0  0  0  0  0  0  0  0
    3.9875    0.7093    0.0000 H   0  0  0  0  0  0  0  0  0  0  0  0
    1.6900   -0.1461    0.0000 H   0  0  0  0  0  0  0  0  0  0  0  0
    1.4631   -0.9930    0.0000 H   0  0  0  0  0  0  0  0  0  0  0  0
    2.3100   -1.2200    0.0000 H   0  0  0  0  0  0  0  0  0  0  0  0
    4.9272    2.6270    0.0000 H   0  0  0  0  0  0  0  0  0  0  0  0
    6.3301    0.1970    0.0000 H   0  0  0  0  0  0  0  0  0  0  0  0
    7.7331    1.0070    0.0000 H   0  0  0  0  0  0  0  0  0  0  0  0
    7.7331    2.6270    0.0000 H   0  0  0  0  0  0  0  0  0  0  0  0
  1 24  1  0  0  0  0
  2 24  1  0  0  0  0
  3 24  1  0  0  0  0
  4 21  1  0  0  0  0
  4 24  1  0  0  0  0
  5  7  1  0  0  0  0
  5  8  1  0  0  0  0
  5 12  1  0  0  0  0
  6 13  1  0  0  0  0
  6 14  1  0  0  0  0
  6 15  1  0  0  0  0
  7  9  1  0  0  0  0
  7 25  1  0  0  0  0
  7 26  1  0  0  0  0
  8 10  1  0  0  0  0
  8 27  1  0  0  0  0
  8 28  1  0  0  0  0
  9 11  1  0  0  0  0
  9 29  1  0  0  0  0
  9 30  1  0  0  0  0
 10 11  1  0  0  0  0
 10 31  1  0  0  0  0
 10 32  1  0  0  0  0
 11 33  1  0  0  0  0
 11 34  1  0  0  0  0
 12 13  1  0  0  0  0
 12 35  1  0  0  0  0
 12 36  1  0  0  0  0
 13 37  1  0  0  0  0
 13 38  1  0  0  0  0
 14 16  1  0  0  0  0
 14 39  1  0  0  0  0
 14 40  1  0  0  0  0
 15 17  1  0  0  0  0
 15 41  1  0  0  0  0
 15 42  1  0  0  0  0
 16 18  1  0  0  0  0
 16 43  1  0  0  0  0
 16 44  1  0  0  0  0
 17 45  1  0  0  0  0
 17 46  1  0  0  0  0
 17 47  1  0  0  0  0
 18 19  2  0  0  0  0
 18 20  1  0  0  0  0
 19 21  1  0  0  0  0
 19 48  1  0  0  0  0
 20 22  2  0  0  0  0
 20 49  1  0  0  0  0
 21 23  2  0  0  0  0
 22 23  1  0  0  0  0
 22 50  1  0  0  0  0
 23 51  1  0  0  0  0
M  END
> <PUBCHEM_COMPOUND_CID>
24879058

> <PUBCHEM_COMPOUND_CANONICALIZED>
1

> <PUBCHEM_CACTVS_COMPLEXITY>
346

> <PUBCHEM_CACTVS_HBOND_ACCEPTOR>
6

> <PUBCHEM_CACTVS_HBOND_DONOR>
0

> <PUBCHEM_CACTVS_ROTATABLE_BOND>
8

> <PUBCHEM_CACTVS_SUBSKEYS>
AAADceB7IYAAAAAAAAAAAAAAAAAAAAAAAAA8QAAAAAAAAAABAAAAHwAAAAAADATBmBQyBoMABACAAiBCAAACCAAgIAAIiAAOCIgMZiKEsRuUMCAkwBGIqAeQ0LIOAAABAAAAAAAAAAIAAAAAAAAAAAAAAA==

> <PUBCHEM_IUPAC_OPENEYE_NAME>
N-ethyl-N-[2-(1-piperidyl)ethyl]-2-[3-(trifluoromethoxy)phenyl]ethanamine

> <PUBCHEM_IUPAC_CAS_NAME>
N-ethyl-N-[2-(1-piperidinyl)ethyl]-2-[3-(trifluoromethoxy)phenyl]ethanamine

> <PUBCHEM_IUPAC_NAME_MARKUP>
<I>N</I>-ethyl-<I>N</I>-(2-piperidin-1-ylethyl)-2-[3-(trifluoromethoxy)phenyl]ethanamine

> <PUBCHEM_IUPAC_NAME>
N-ethyl-N-(2-piperidin-1-ylethyl)-2-[3-(trifluoromethoxy)phenyl]ethanamine

> <PUBCHEM_IUPAC_SYSTEMATIC_NAME>
N-ethyl-N-(2-piperidin-1-ylethyl)-2-[3-(trifluoromethyloxy)phenyl]ethanamine

> <PUBCHEM_IUPAC_TRADITIONAL_NAME>
ethyl-(2-piperidinoethyl)-[2-[3-(trifluoromethoxy)phenyl]ethyl]amine

> <PUBCHEM_IUPAC_INCHI>
InChI=1S/C18H27F3N2O/c1-2-22(13-14-23-10-4-3-5-11-23)12-9-16-7-6-8-17(15-16)24-18(19,20)21/h6-8,15H,2-5,9-14H2,1H3

> <PUBCHEM_IUPAC_INCHIKEY>
VWPPLGQILGHEGL-UHFFFAOYSA-N

> <PUBCHEM_XLOGP3_AA>
4.7

> <PUBCHEM_EXACT_MASS>
344.20754798

> <PUBCHEM_MOLECULAR_FORMULA>
C18H27F3N2O

> <PUBCHEM_MOLECULAR_WEIGHT>
344.4

> <PUBCHEM_OPENEYE_CAN_SMILES>
CCN(CCC1=CC(=CC=C1)OC(F)(F)F)CCN2CCCCC2

> <PUBCHEM_OPENEYE_ISO_SMILES>
CCN(CCC1=CC(=CC=C1)OC(F)(F)F)CCN2CCCCC2

> <PUBCHEM_CACTVS_TPSA>
15.7

> <PUBCHEM_MONOISOTOPIC_WEIGHT>
344.20754798

> <PUBCHEM_TOTAL_CHARGE>
0

> <PUBCHEM_HEAVY_ATOM_COUNT>
24

> <PUBCHEM_ATOM_DEF_STEREO_COUNT>
0

> <PUBCHEM_ATOM_UDEF_STEREO_COUNT>
0

> <PUBCHEM_BOND_DEF_STEREO_COUNT>
0

> <PUBCHEM_BOND_UDEF_STEREO_COUNT>
0

> <PUBCHEM_ISOTOPIC_ATOM_COUNT>
0

> <PUBCHEM_COMPONENT_COUNT>
1

> <PUBCHEM_CACTVS_TAUTO_COUNT>
-1

> <PUBCHEM_COORDINATE_TYPE>
1
5
255

> <PUBCHEM_BONDANNOTATIONS>
18  19  8
18  20  8
19  21  8
20  22  8
21  23  8
22  23  8

$$$$
