162653322
  -OEChem-09292322062D

 62 66  0     0  0  0  0  0  0999 V2000
    2.0000   -4.6416    0.0000 F   0  0  0  0  0  0  0  0  0  0  0  0
    5.5443   -4.4464    0.0000 O   0  0  0  0  0  0  0  0  0  0  0  0
    8.6974    4.0230    0.0000 O   0  0  0  0  0  0  0  0  0  0  0  0
    9.0546    2.3282    0.0000 N   0  0  0  0  0  0  0  0  0  0  0  0
    6.4763    0.0147    0.0000 N   0  0  0  0  0  0  0  0  0  0  0  0
    6.1279   -3.6416    0.0000 N   0  0  0  0  0  0  0  0  0  0  0  0
    9.4118    0.6333    0.0000 C   0  0  0  0  0  0  0  0  0  0  0  0
    8.6675   -0.0345    0.0000 C   0  0  0  0  0  0  0  0  0  0  0  0
    9.6180   -0.3452    0.0000 C   0  0  0  0  0  0  0  0  0  0  0  0
    9.7225    1.5838    0.0000 C   0  0  0  0  0  0  0  0  0  0  0  0
    5.8550   -1.8864    0.0000 C   0  0  0  0  0  0  0  0  0  0  0  0
    6.8335   -1.6802    0.0000 C   0  0  0  0  0  0  0  0  0  0  0  0
    5.1871   -1.1421    0.0000 C   0  0  0  0  0  0  0  0  0  0  0  0
    7.1441   -0.7296    0.0000 C   0  0  0  0  0  0  0  0  0  0  0  0
    5.4978   -0.1916    0.0000 C   0  0  0  0  0  0  0  0  0  0  0  0
    8.0761    2.1219    0.0000 C   0  0  0  0  0  0  0  0  0  0  0  0
    6.7870    0.9652    0.0000 C   0  0  0  0  0  0  0  0  0  0  0  0
    7.7654    1.1714    0.0000 C   0  0  0  0  0  0  0  0  0  0  0  0
    5.5443   -2.8369    0.0000 C   0  0  0  0  0  0  0  0  0  0  0  0
    9.3653    3.2787    0.0000 C   0  0  0  0  0  0  0  0  0  0  0  0
    4.5981   -3.1416    0.0000 C   0  0  0  0  0  0  0  0  0  0  0  0
   10.3438    3.4849    0.0000 C   0  0  0  0  0  0  0  0  0  0  0  0
    4.5981   -4.1416    0.0000 C   0  0  0  0  0  0  0  0  0  0  0  0
    3.7320   -2.6416    0.0000 C   0  0  0  0  0  0  0  0  0  0  0  0
   11.0116    2.7406    0.0000 C   0  0  0  0  0  0  0  0  0  0  0  0
   10.6545    4.4354    0.0000 C   0  0  0  0  0  0  0  0  0  0  0  0
    3.7320   -4.6416    0.0000 C   0  0  0  0  0  0  0  0  0  0  0  0
    2.8660   -3.1416    0.0000 C   0  0  0  0  0  0  0  0  0  0  0  0
    2.8660   -4.1416    0.0000 C   0  0  0  0  0  0  0  0  0  0  0  0
   11.9901    2.9468    0.0000 C   0  0  0  0  0  0  0  0  0  0  0  0
   11.6330    4.6416    0.0000 C   0  0  0  0  0  0  0  0  0  0  0  0
   12.3008    3.8973    0.0000 C   0  0  0  0  0  0  0  0  0  0  0  0
    8.8924    0.9719    0.0000 H   0  0  0  0  0  0  0  0  0  0  0  0
    8.1796    0.3480    0.0000 H   0  0  0  0  0  0  0  0  0  0  0  0
    8.3755   -0.5814    0.0000 H   0  0  0  0  0  0  0  0  0  0  0  0
    9.5307   -0.9590    0.0000 H   0  0  0  0  0  0  0  0  0  0  0  0
   10.2377   -0.3246    0.0000 H   0  0  0  0  0  0  0  0  0  0  0  0
   10.2694    1.2918    0.0000 H   0  0  0  0  0  0  0  0  0  0  0  0
   10.1050    2.0718    0.0000 H   0  0  0  0  0  0  0  0  0  0  0  0
    6.2690   -2.3478    0.0000 H   0  0  0  0  0  0  0  0  0  0  0  0
    6.8540   -2.2998    0.0000 H   0  0  0  0  0  0  0  0  0  0  0  0
    7.4473   -1.7675    0.0000 H   0  0  0  0  0  0  0  0  0  0  0  0
    4.6402   -0.8501    0.0000 H   0  0  0  0  0  0  0  0  0  0  0  0
    4.8046   -1.6300    0.0000 H   0  0  0  0  0  0  0  0  0  0  0  0
    7.6910   -1.0216    0.0000 H   0  0  0  0  0  0  0  0  0  0  0  0
    7.5267   -0.2417    0.0000 H   0  0  0  0  0  0  0  0  0  0  0  0
    5.4772    0.4281    0.0000 H   0  0  0  0  0  0  0  0  0  0  0  0
    4.8840   -0.1042    0.0000 H   0  0  0  0  0  0  0  0  0  0  0  0
    8.0556    2.7416    0.0000 H   0  0  0  0  0  0  0  0  0  0  0  0
    7.4623    2.2093    0.0000 H   0  0  0  0  0  0  0  0  0  0  0  0
    6.7664    1.5849    0.0000 H   0  0  0  0  0  0  0  0  0  0  0  0
    6.1731    1.0525    0.0000 H   0  0  0  0  0  0  0  0  0  0  0  0
    7.7860    0.5517    0.0000 H   0  0  0  0  0  0  0  0  0  0  0  0
    8.3793    1.0841    0.0000 H   0  0  0  0  0  0  0  0  0  0  0  0
    3.7320   -2.0216    0.0000 H   0  0  0  0  0  0  0  0  0  0  0  0
   10.8190    2.1513    0.0000 H   0  0  0  0  0  0  0  0  0  0  0  0
   10.2404    4.8969    0.0000 H   0  0  0  0  0  0  0  0  0  0  0  0
    3.7320   -5.2616    0.0000 H   0  0  0  0  0  0  0  0  0  0  0  0
    2.3291   -2.8316    0.0000 H   0  0  0  0  0  0  0  0  0  0  0  0
   12.4042    2.4853    0.0000 H   0  0  0  0  0  0  0  0  0  0  0  0
   11.8256    5.2310    0.0000 H   0  0  0  0  0  0  0  0  0  0  0  0
   12.9075    4.0252    0.0000 H   0  0  0  0  0  0  0  0  0  0  0  0
  1 29  1  0  0  0  0
  2  6  1  0  0  0  0
  2 23  1  0  0  0  0
  3 20  2  0  0  0  0
  4 10  1  0  0  0  0
  4 16  1  0  0  0  0
  4 20  1  0  0  0  0
  5 14  1  0  0  0  0
  5 15  1  0  0  0  0
  5 17  1  0  0  0  0
  6 19  2  0  0  0  0
  7  8  1  0  0  0  0
  7  9  1  0  0  0  0
  7 10  1  0  0  0  0
  7 33  1  0  0  0  0
  8  9  1  0  0  0  0
  8 34  1  0  0  0  0
  8 35  1  0  0  0  0
  9 36  1  0  0  0  0
  9 37  1  0  0  0  0
 10 38  1  0  0  0  0
 10 39  1  0  0  0  0
 11 12  1  0  0  0  0
 11 13  1  0  0  0  0
 11 19  1  0  0  0  0
 11 40  1  0  0  0  0
 12 14  1  0  0  0  0
 12 41  1  0  0  0  0
 12 42  1  0  0  0  0
 13 15  1  0  0  0  0
 13 43  1  0  0  0  0
 13 44  1  0  0  0  0
 14 45  1  0  0  0  0
 14 46  1  0  0  0  0
 15 47  1  0  0  0  0
 15 48  1  0  0  0  0
 16 18  1  0  0  0  0
 16 49  1  0  0  0  0
 16 50  1  0  0  0  0
 17 18  1  0  0  0  0
 17 51  1  0  0  0  0
 17 52  1  0  0  0  0
 18 53  1  0  0  0  0
 18 54  1  0  0  0  0
 19 21  1  0  0  0  0
 20 22  1  0  0  0  0
 21 23  2  0  0  0  0
 21 24  1  0  0  0  0
 22 25  2  0  0  0  0
 22 26  1  0  0  0  0
 23 27  1  0  0  0  0
 24 28  2  0  0  0  0
 24 55  1  0  0  0  0
 25 30  1  0  0  0  0
 25 56  1  0  0  0  0
 26 31  2  0  0  0  0
 26 57  1  0  0  0  0
 27 29  2  0  0  0  0
 27 58  1  0  0  0  0
 28 29  1  0  0  0  0
 28 59  1  0  0  0  0
 30 32  2  0  0  0  0
 30 60  1  0  0  0  0
 31 32  1  0  0  0  0
 31 61  1  0  0  0  0
 32 62  1  0  0  0  0
M  END
> <PUBCHEM_COMPOUND_CID>
162653322

> <PUBCHEM_COMPOUND_CANONICALIZED>
1

> <PUBCHEM_CACTVS_COMPLEXITY>
616

> <PUBCHEM_CACTVS_HBOND_ACCEPTOR>
5

> <PUBCHEM_CACTVS_HBOND_DONOR>
0

> <PUBCHEM_CACTVS_ROTATABLE_BOND>
8

> <PUBCHEM_CACTVS_SUBSKEYS>
AAADceB7MQAAAAAAAAAAAAAAGAAAAWAAAAA8YIAAAAAAAFgB9AAAHwAEAAAADQzBngwwhtMQAACpA6VyUgCCAAAkIAAomCE+TNoIJrqA1ZOEMYhmxhmIyceYyOCOAAAAAAAIAAAAAAAAABAAAAAAAAAAAA==

> <PUBCHEM_IUPAC_OPENEYE_NAME>
N-(cyclopropylmethyl)-N-[3-[4-(6-fluoro-1,2-benzoxazol-3-yl)-1-piperidyl]propyl]benzamide

> <PUBCHEM_IUPAC_CAS_NAME>
N-(cyclopropylmethyl)-N-[3-[4-(6-fluoro-1,2-benzoxazol-3-yl)-1-piperidinyl]propyl]benzamide

> <PUBCHEM_IUPAC_NAME_MARKUP>
<I>N</I>-(cyclopropylmethyl)-<I>N</I>-[3-[4-(6-fluoro-1,2-benzoxazol-3-yl)piperidin-1-yl]propyl]benzamide

> <PUBCHEM_IUPAC_NAME>
N-(cyclopropylmethyl)-N-[3-[4-(6-fluoro-1,2-benzoxazol-3-yl)piperidin-1-yl]propyl]benzamide

> <PUBCHEM_IUPAC_SYSTEMATIC_NAME>
N-(cyclopropylmethyl)-N-[3-[4-(6-fluoranyl-1,2-benzoxazol-3-yl)piperidin-1-yl]propyl]benzamide

> <PUBCHEM_IUPAC_TRADITIONAL_NAME>
N-(cyclopropylmethyl)-N-[3-[4-(6-fluoroindoxazen-3-yl)piperidino]propyl]benzamide

> <PUBCHEM_IUPAC_INCHI>
InChI=1S/C26H30FN3O2/c27-22-9-10-23-24(17-22)32-28-25(23)20-11-15-29(16-12-20)13-4-14-30(18-19-7-8-19)26(31)21-5-2-1-3-6-21/h1-3,5-6,9-10,17,19-20H,4,7-8,11-16,18H2

> <PUBCHEM_IUPAC_INCHIKEY>
QUQIRGIEPRATEC-UHFFFAOYSA-N

> <PUBCHEM_XLOGP3_AA>
4.7

> <PUBCHEM_EXACT_MASS>
435.23220537

> <PUBCHEM_MOLECULAR_FORMULA>
C26H30FN3O2

> <PUBCHEM_MOLECULAR_WEIGHT>
435.5

> <PUBCHEM_OPENEYE_CAN_SMILES>
C1CC1CN(CCCN2CCC(CC2)C3=NOC4=C3C=CC(=C4)F)C(=O)C5=CC=CC=C5

> <PUBCHEM_OPENEYE_ISO_SMILES>
C1CC1CN(CCCN2CCC(CC2)C3=NOC4=C3C=CC(=C4)F)C(=O)C5=CC=CC=C5

> <PUBCHEM_CACTVS_TPSA>
49.6

> <PUBCHEM_MONOISOTOPIC_WEIGHT>
435.23220537

> <PUBCHEM_TOTAL_CHARGE>
0

> <PUBCHEM_HEAVY_ATOM_COUNT>
32

> <PUBCHEM_ATOM_DEF_STEREO_COUNT>
0

> <PUBCHEM_ATOM_UDEF_STEREO_COUNT>
0

> <PUBCHEM_BOND_DEF_STEREO_COUNT>
0

> <PUBCHEM_BOND_UDEF_STEREO_COUNT>
0

> <PUBCHEM_ISOTOPIC_ATOM_COUNT>
0

> <PUBCHEM_COMPONENT_COUNT>
1

> <PUBCHEM_CACTVS_TAUTO_COUNT>
-1

> <PUBCHEM_COORDINATE_TYPE>
1
5
255

> <PUBCHEM_BONDANNOTATIONS>
19  21  8
2  23  8
2  6  8
21  23  8
21  24  8
22  25  8
22  26  8
23  27  8
24  28  8
25  30  8
26  31  8
27  29  8
28  29  8
30  32  8
31  32  8
6  19  8

$$$$
