11486571
  -OEChem-09292322342D

 50 53  0     0  0  0  0  0  0999 V2000
    3.0000   -2.9470    0.0000 F   0  0  0  0  0  0  0  0  0  0  0  0
    2.0000   -1.9470    0.0000 F   0  0  0  0  0  0  0  0  0  0  0  0
    4.0000   -1.9470    0.0000 F   0  0  0  0  0  0  0  0  0  0  0  0
    9.0622    2.5530    0.0000 O   0  0  0  0  0  0  0  0  0  0  0  0
   14.1901    1.5530    0.0000 O   0  0  0  0  0  0  0  0  0  0  0  0
    6.4641    2.0530    0.0000 N   0  0  0  0  0  0  0  0  0  0  0  0
    4.7320    1.0530    0.0000 N   0  0  0  0  0  0  0  0  0  0  0  0
   12.6065    2.3577    0.0000 N   0  0  0  0  0  0  0  0  0  0  0  0
   12.6065    0.7482    0.0000 N   0  0  0  0  0  0  0  0  0  0  0  0
    6.4641    1.0530    0.0000 C   0  0  0  0  0  0  0  0  0  0  0  0
    5.5981    2.5530    0.0000 C   0  0  0  0  0  0  0  0  0  0  0  0
    5.5981    0.5530    0.0000 C   0  0  0  0  0  0  0  0  0  0  0  0
    4.7320    2.0530    0.0000 C   0  0  0  0  0  0  0  0  0  0  0  0
    7.3301    2.5530    0.0000 C   0  0  0  0  0  0  0  0  0  0  0  0
    3.8660    0.5530    0.0000 C   0  0  0  0  0  0  0  0  0  0  0  0
    8.1962    2.0530    0.0000 C   0  0  0  0  0  0  0  0  0  0  0  0
    3.8660   -0.4470    0.0000 C   0  0  0  0  0  0  0  0  0  0  0  0
    3.0000    1.0530    0.0000 C   0  0  0  0  0  0  0  0  0  0  0  0
    3.0000   -0.9470    0.0000 C   0  0  0  0  0  0  0  0  0  0  0  0
    2.1340    0.5530    0.0000 C   0  0  0  0  0  0  0  0  0  0  0  0
    2.1340   -0.4470    0.0000 C   0  0  0  0  0  0  0  0  0  0  0  0
    9.9282    2.0530    0.0000 C   0  0  0  0  0  0  0  0  0  0  0  0
    3.0000   -1.9470    0.0000 C   0  0  0  0  0  0  0  0  0  0  0  0
   11.6603    2.0530    0.0000 C   0  0  0  0  0  0  0  0  0  0  0  0
   10.7942    2.5530    0.0000 C   0  0  0  0  0  0  0  0  0  0  0  0
   11.6603    1.0530    0.0000 C   0  0  0  0  0  0  0  0  0  0  0  0
    9.9282    1.0530    0.0000 C   0  0  0  0  0  0  0  0  0  0  0  0
   10.7942    0.5530    0.0000 C   0  0  0  0  0  0  0  0  0  0  0  0
   13.1901    1.5530    0.0000 C   0  0  0  0  0  0  0  0  0  0  0  0
    6.6762    0.4704    0.0000 H   0  0  0  0  0  0  0  0  0  0  0  0
    7.0747    1.1606    0.0000 H   0  0  0  0  0  0  0  0  0  0  0  0
    5.9966    3.0279    0.0000 H   0  0  0  0  0  0  0  0  0  0  0  0
    5.1996    3.0279    0.0000 H   0  0  0  0  0  0  0  0  0  0  0  0
    5.1996    0.0780    0.0000 H   0  0  0  0  0  0  0  0  0  0  0  0
    5.9966    0.0780    0.0000 H   0  0  0  0  0  0  0  0  0  0  0  0
    4.5200    2.6356    0.0000 H   0  0  0  0  0  0  0  0  0  0  0  0
    4.1215    1.9453    0.0000 H   0  0  0  0  0  0  0  0  0  0  0  0
    7.7287    3.0279    0.0000 H   0  0  0  0  0  0  0  0  0  0  0  0
    6.9316    3.0279    0.0000 H   0  0  0  0  0  0  0  0  0  0  0  0
    7.7976    1.5780    0.0000 H   0  0  0  0  0  0  0  0  0  0  0  0
    8.5947    1.5780    0.0000 H   0  0  0  0  0  0  0  0  0  0  0  0
    4.4030   -0.7570    0.0000 H   0  0  0  0  0  0  0  0  0  0  0  0
    3.0000    1.6730    0.0000 H   0  0  0  0  0  0  0  0  0  0  0  0
    1.5970    0.8630    0.0000 H   0  0  0  0  0  0  0  0  0  0  0  0
    1.5970   -0.7570    0.0000 H   0  0  0  0  0  0  0  0  0  0  0  0
   10.7942    3.1730    0.0000 H   0  0  0  0  0  0  0  0  0  0  0  0
    9.3913    0.7430    0.0000 H   0  0  0  0  0  0  0  0  0  0  0  0
   10.7942   -0.0670    0.0000 H   0  0  0  0  0  0  0  0  0  0  0  0
   12.7991    2.9470    0.0000 H   0  0  0  0  0  0  0  0  0  0  0  0
   12.7991    0.1589    0.0000 H   0  0  0  0  0  0  0  0  0  0  0  0
  1 23  1  0  0  0  0
  2 23  1  0  0  0  0
  3 23  1  0  0  0  0
  4 16  1  0  0  0  0
  4 22  1  0  0  0  0
  5 29  2  0  0  0  0
  6 10  1  0  0  0  0
  6 11  1  0  0  0  0
  6 14  1  0  0  0  0
  7 12  1  0  0  0  0
  7 13  1  0  0  0  0
  7 15  1  0  0  0  0
  8 24  1  0  0  0  0
  8 29  1  0  0  0  0
  8 49  1  0  0  0  0
  9 26  1  0  0  0  0
  9 29  1  0  0  0  0
  9 50  1  0  0  0  0
 10 12  1  0  0  0  0
 10 30  1  0  0  0  0
 10 31  1  0  0  0  0
 11 13  1  0  0  0  0
 11 32  1  0  0  0  0
 11 33  1  0  0  0  0
 12 34  1  0  0  0  0
 12 35  1  0  0  0  0
 13 36  1  0  0  0  0
 13 37  1  0  0  0  0
 14 16  1  0  0  0  0
 14 38  1  0  0  0  0
 14 39  1  0  0  0  0
 15 17  1  0  0  0  0
 15 18  2  0  0  0  0
 16 40  1  0  0  0  0
 16 41  1  0  0  0  0
 17 19  2  0  0  0  0
 17 42  1  0  0  0  0
 18 20  1  0  0  0  0
 18 43  1  0  0  0  0
 19 21  1  0  0  0  0
 19 23  1  0  0  0  0
 20 21  2  0  0  0  0
 20 44  1  0  0  0  0
 21 45  1  0  0  0  0
 22 25  2  0  0  0  0
 22 27  1  0  0  0  0
 24 25  1  0  0  0  0
 24 26  2  0  0  0  0
 25 46  1  0  0  0  0
 26 28  1  0  0  0  0
 27 28  2  0  0  0  0
 27 47  1  0  0  0  0
 28 48  1  0  0  0  0
M  END
> <PUBCHEM_COMPOUND_CID>
11486571

> <PUBCHEM_COMPOUND_CANONICALIZED>
1

> <PUBCHEM_CACTVS_COMPLEXITY>
568

> <PUBCHEM_CACTVS_HBOND_ACCEPTOR>
7

> <PUBCHEM_CACTVS_HBOND_DONOR>
2

> <PUBCHEM_CACTVS_ROTATABLE_BOND>
5

> <PUBCHEM_CACTVS_SUBSKEYS>
AAADceB7sYAAAAAAAAAAAAAAAAAAAWAAAAA8YIAAAAAAAFgBQAAAHwAQAAAADAzhmBYxxoPABACIAiRCUACCCAAhIgAIiAAOfIiOZiLEsZuXOCju1BvY6Cew0AMOAEAAQgAAACAAgACEAAAAQAAAAAAAAA==

> <PUBCHEM_IUPAC_OPENEYE_NAME>
5-[2-[4-[3-(trifluoromethyl)phenyl]piperazin-1-yl]ethoxy]-1,3-dihydrobenzimidazol-2-one

> <PUBCHEM_IUPAC_CAS_NAME>
5-[2-[4-[3-(trifluoromethyl)phenyl]-1-piperazinyl]ethoxy]-1,3-dihydrobenzimidazol-2-one

> <PUBCHEM_IUPAC_NAME_MARKUP>
5-[2-[4-[3-(trifluoromethyl)phenyl]piperazin-1-yl]ethoxy]-1,3-dihydrobenzimidazol-2-one

> <PUBCHEM_IUPAC_NAME>
5-[2-[4-[3-(trifluoromethyl)phenyl]piperazin-1-yl]ethoxy]-1,3-dihydrobenzimidazol-2-one

> <PUBCHEM_IUPAC_SYSTEMATIC_NAME>
5-[2-[4-[3-(trifluoromethyl)phenyl]piperazin-1-yl]ethoxy]-1,3-dihydrobenzimidazol-2-one

> <PUBCHEM_IUPAC_TRADITIONAL_NAME>
5-[2-[4-[3-(trifluoromethyl)phenyl]piperazino]ethoxy]-1,3-dihydrobenzimidazol-2-one

> <PUBCHEM_IUPAC_INCHI>
InChI=1S/C20H21F3N4O2/c21-20(22,23)14-2-1-3-15(12-14)27-8-6-26(7-9-27)10-11-29-16-4-5-17-18(13-16)25-19(28)24-17/h1-5,12-13H,6-11H2,(H2,24,25,28)

> <PUBCHEM_IUPAC_INCHIKEY>
KPEURFNDOXZGIZ-UHFFFAOYSA-N

> <PUBCHEM_XLOGP3_AA>
3

> <PUBCHEM_EXACT_MASS>
406.16166041

> <PUBCHEM_MOLECULAR_FORMULA>
C20H21F3N4O2

> <PUBCHEM_MOLECULAR_WEIGHT>
406.4

> <PUBCHEM_OPENEYE_CAN_SMILES>
C1CN(CCN1CCOC2=CC3=C(C=C2)NC(=O)N3)C4=CC=CC(=C4)C(F)(F)F

> <PUBCHEM_OPENEYE_ISO_SMILES>
C1CN(CCN1CCOC2=CC3=C(C=C2)NC(=O)N3)C4=CC=CC(=C4)C(F)(F)F

> <PUBCHEM_CACTVS_TPSA>
56.8

> <PUBCHEM_MONOISOTOPIC_WEIGHT>
406.16166041

> <PUBCHEM_TOTAL_CHARGE>
0

> <PUBCHEM_HEAVY_ATOM_COUNT>
29

> <PUBCHEM_ATOM_DEF_STEREO_COUNT>
0

> <PUBCHEM_ATOM_UDEF_STEREO_COUNT>
0

> <PUBCHEM_BOND_DEF_STEREO_COUNT>
0

> <PUBCHEM_BOND_UDEF_STEREO_COUNT>
0

> <PUBCHEM_ISOTOPIC_ATOM_COUNT>
0

> <PUBCHEM_COMPONENT_COUNT>
1

> <PUBCHEM_CACTVS_TAUTO_COUNT>
-1

> <PUBCHEM_COORDINATE_TYPE>
1
5
255

> <PUBCHEM_BONDANNOTATIONS>
15  17  8
15  18  8
17  19  8
18  20  8
19  21  8
20  21  8
22  25  8
22  27  8
24  25  8
24  26  8
26  28  8
27  28  8
8  24  8
8  29  8
9  26  8
9  29  8

$$$$
