44335908
  -OEChem-09292322182D

 62 65  0     1  0  0  0  0  0999 V2000
   10.5028   -0.8798    0.0000 Cl  0  0  0  0  0  0  0  0  0  0  0  0
    4.3211    1.3080    0.0000 O   0  0  0  0  0  0  0  0  0  0  0  0
    6.2781    0.8956    0.0000 N   0  0  0  0  0  0  0  0  0  0  0  0
    6.8994   -1.0055    0.0000 N   0  0  0  0  0  0  0  0  0  0  0  0
    4.6783    3.0028    0.0000 N   0  0  0  0  0  0  0  0  0  0  0  0
    5.6103    0.1513    0.0000 C   0  0  0  0  0  0  0  0  0  0  0  0
    7.2566    0.6893    0.0000 C   0  0  0  0  0  0  0  0  0  0  0  0
    5.9209   -0.7993    0.0000 C   0  0  0  0  0  0  0  0  0  0  0  0
    7.5673   -0.2612    0.0000 C   0  0  0  0  0  0  0  0  0  0  0  0
    5.2619    3.8076    0.0000 C   0  0  1  0  0  0  0  0  0  0  0  0
    5.9674    1.8461    0.0000 C   0  0  0  0  0  0  0  0  0  0  0  0
    4.6783    4.6123    0.0000 C   0  0  0  0  0  0  0  0  0  0  0  0
    7.2101   -1.9560    0.0000 C   0  0  0  0  0  0  0  0  0  0  0  0
    3.7320    3.3076    0.0000 C   0  0  0  0  0  0  0  0  0  0  0  0
    3.7320    4.3076    0.0000 C   0  0  0  0  0  0  0  0  0  0  0  0
    4.9889    2.0523    0.0000 C   0  0  0  0  0  0  0  0  0  0  0  0
    6.2619    3.8076    0.0000 C   0  0  0  0  0  0  0  0  0  0  0  0
    8.1886   -2.1622    0.0000 C   0  0  0  0  0  0  0  0  0  0  0  0
    2.8660    2.8076    0.0000 C   0  0  0  0  0  0  0  0  0  0  0  0
    8.4993   -3.1127    0.0000 C   0  0  0  0  0  0  0  0  0  0  0  0
    2.8660    4.8076    0.0000 C   0  0  0  0  0  0  0  0  0  0  0  0
    7.8314   -3.8570    0.0000 C   0  0  0  0  0  0  0  0  0  0  0  0
    8.8564   -1.4179    0.0000 C   0  0  0  0  0  0  0  0  0  0  0  0
    2.0000    3.3076    0.0000 C   0  0  0  0  0  0  0  0  0  0  0  0
    2.0000    4.3076    0.0000 C   0  0  0  0  0  0  0  0  0  0  0  0
    9.4778   -3.3190    0.0000 C   0  0  0  0  0  0  0  0  0  0  0  0
    8.1421   -4.8076    0.0000 C   0  0  0  0  0  0  0  0  0  0  0  0
    6.8529   -3.6508    0.0000 C   0  0  0  0  0  0  0  0  0  0  0  0
    9.8349   -1.6241    0.0000 C   0  0  0  0  0  0  0  0  0  0  0  0
   10.1456   -2.5746    0.0000 C   0  0  0  0  0  0  0  0  0  0  0  0
    5.2277    0.6392    0.0000 H   0  0  0  0  0  0  0  0  0  0  0  0
    5.0633   -0.1408    0.0000 H   0  0  0  0  0  0  0  0  0  0  0  0
    7.8704    0.7767    0.0000 H   0  0  0  0  0  0  0  0  0  0  0  0
    7.2772    1.3090    0.0000 H   0  0  0  0  0  0  0  0  0  0  0  0
    5.3071   -0.8866    0.0000 H   0  0  0  0  0  0  0  0  0  0  0  0
    5.9004   -1.4189    0.0000 H   0  0  0  0  0  0  0  0  0  0  0  0
    7.9498   -0.7491    0.0000 H   0  0  0  0  0  0  0  0  0  0  0  0
    8.1142    0.0308    0.0000 H   0  0  0  0  0  0  0  0  0  0  0  0
    5.5436    3.2553    0.0000 H   0  0  0  0  0  0  0  0  0  0  0  0
    6.5812    1.9334    0.0000 H   0  0  0  0  0  0  0  0  0  0  0  0
    5.9880    2.4657    0.0000 H   0  0  0  0  0  0  0  0  0  0  0  0
    5.2156    4.9215    0.0000 H   0  0  0  0  0  0  0  0  0  0  0  0
    4.4272    5.1792    0.0000 H   0  0  0  0  0  0  0  0  0  0  0  0
    6.5963   -2.0434    0.0000 H   0  0  0  0  0  0  0  0  0  0  0  0
    7.1895   -2.5756    0.0000 H   0  0  0  0  0  0  0  0  0  0  0  0
    6.2619    3.1876    0.0000 H   0  0  0  0  0  0  0  0  0  0  0  0
    6.8819    3.8076    0.0000 H   0  0  0  0  0  0  0  0  0  0  0  0
    6.2619    4.4276    0.0000 H   0  0  0  0  0  0  0  0  0  0  0  0
    2.8660    2.1876    0.0000 H   0  0  0  0  0  0  0  0  0  0  0  0
    2.8660    5.4276    0.0000 H   0  0  0  0  0  0  0  0  0  0  0  0
    8.4381   -3.9849    0.0000 H   0  0  0  0  0  0  0  0  0  0  0  0
    8.6638   -0.8286    0.0000 H   0  0  0  0  0  0  0  0  0  0  0  0
    1.4631    2.9976    0.0000 H   0  0  0  0  0  0  0  0  0  0  0  0
    1.4631    4.6176    0.0000 H   0  0  0  0  0  0  0  0  0  0  0  0
    9.6704   -3.9083    0.0000 H   0  0  0  0  0  0  0  0  0  0  0  0
    7.5528   -5.0002    0.0000 H   0  0  0  0  0  0  0  0  0  0  0  0
    8.3347   -5.3969    0.0000 H   0  0  0  0  0  0  0  0  0  0  0  0
    8.7314   -4.6150    0.0000 H   0  0  0  0  0  0  0  0  0  0  0  0
    6.9808   -3.0441    0.0000 H   0  0  0  0  0  0  0  0  0  0  0  0
    6.2462   -3.5230    0.0000 H   0  0  0  0  0  0  0  0  0  0  0  0
    6.7250   -4.2575    0.0000 H   0  0  0  0  0  0  0  0  0  0  0  0
   10.7523   -2.7025    0.0000 H   0  0  0  0  0  0  0  0  0  0  0  0
  1 29  1  0  0  0  0
  2 16  2  0  0  0  0
  3  6  1  0  0  0  0
  3  7  1  0  0  0  0
  3 11  1  0  0  0  0
  4  8  1  0  0  0  0
  4  9  1  0  0  0  0
  4 13  1  0  0  0  0
  5 10  1  0  0  0  0
  5 14  1  0  0  0  0
  5 16  1  0  0  0  0
  6  8  1  0  0  0  0
  6 31  1  0  0  0  0
  6 32  1  0  0  0  0
  7  9  1  0  0  0  0
  7 33  1  0  0  0  0
  7 34  1  0  0  0  0
  8 35  1  0  0  0  0
  8 36  1  0  0  0  0
  9 37  1  0  0  0  0
  9 38  1  0  0  0  0
 10 12  1  0  0  0  0
 10 17  1  1  0  0  0
 10 39  1  0  0  0  0
 11 16  1  0  0  0  0
 11 40  1  0  0  0  0
 11 41  1  0  0  0  0
 12 15  1  0  0  0  0
 12 42  1  0  0  0  0
 12 43  1  0  0  0  0
 13 18  1  0  0  0  0
 13 44  1  0  0  0  0
 13 45  1  0  0  0  0
 14 15  1  0  0  0  0
 14 19  2  0  0  0  0
 15 21  2  0  0  0  0
 17 46  1  0  0  0  0
 17 47  1  0  0  0  0
 17 48  1  0  0  0  0
 18 20  2  0  0  0  0
 18 23  1  0  0  0  0
 19 24  1  0  0  0  0
 19 49  1  0  0  0  0
 20 22  1  0  0  0  0
 20 26  1  0  0  0  0
 21 25  1  0  0  0  0
 21 50  1  0  0  0  0
 22 27  1  0  0  0  0
 22 28  1  0  0  0  0
 22 51  1  0  0  0  0
 23 29  2  0  0  0  0
 23 52  1  0  0  0  0
 24 25  2  0  0  0  0
 24 53  1  0  0  0  0
 25 54  1  0  0  0  0
 26 30  2  0  0  0  0
 26 55  1  0  0  0  0
 27 56  1  0  0  0  0
 27 57  1  0  0  0  0
 27 58  1  0  0  0  0
 28 59  1  0  0  0  0
 28 60  1  0  0  0  0
 28 61  1  0  0  0  0
 29 30  1  0  0  0  0
 30 62  1  0  0  0  0
M  END
> <PUBCHEM_COMPOUND_CID>
44335908

> <PUBCHEM_COMPOUND_CANONICALIZED>
1

> <PUBCHEM_CACTVS_COMPLEXITY>
577

> <PUBCHEM_CACTVS_HBOND_ACCEPTOR>
3

> <PUBCHEM_CACTVS_HBOND_DONOR>
0

> <PUBCHEM_CACTVS_ROTATABLE_BOND>
5

> <PUBCHEM_CACTVS_SUBSKEYS>
AAADcfB7IAAEAAAAAAAAAAAAAAAAAWAAAAA8YIAAAAAAAFgBQAAAHgIAAAAADSrBmCQywIMAAACIAiVSUACCAAAhBwAIiACIZogIYCLBk7GUIAhghgDIyAcQgMAOhAAAIAASAAAIAABAACQAAAAAAAAAAA==

> <PUBCHEM_IUPAC_OPENEYE_NAME>
2-[4-[(5-chloro-2-isopropyl-phenyl)methyl]piperazin-1-yl]-1-[(2R)-2-methylindolin-1-yl]ethanone

> <PUBCHEM_IUPAC_CAS_NAME>
2-[4-[(5-chloro-2-propan-2-ylphenyl)methyl]-1-piperazinyl]-1-[(2R)-2-methyl-2,3-dihydroindol-1-yl]ethanone

> <PUBCHEM_IUPAC_NAME_MARKUP>
2-[4-[(5-chloro-2-propan-2-ylphenyl)methyl]piperazin-1-yl]-1-[(2<I>R</I>)-2-methyl-2,3-dihydroindol-1-yl]ethanone

> <PUBCHEM_IUPAC_NAME>
2-[4-[(5-chloro-2-propan-2-ylphenyl)methyl]piperazin-1-yl]-1-[(2R)-2-methyl-2,3-dihydroindol-1-yl]ethanone

> <PUBCHEM_IUPAC_SYSTEMATIC_NAME>
2-[4-[(5-chloranyl-2-propan-2-yl-phenyl)methyl]piperazin-1-yl]-1-[(2R)-2-methyl-2,3-dihydroindol-1-yl]ethanone

> <PUBCHEM_IUPAC_TRADITIONAL_NAME>
2-[4-(5-chloro-2-isopropyl-benzyl)piperazino]-1-[(2R)-2-methylindolin-1-yl]ethanone

> <PUBCHEM_IUPAC_INCHI>
InChI=1S/C25H32ClN3O/c1-18(2)23-9-8-22(26)15-21(23)16-27-10-12-28(13-11-27)17-25(30)29-19(3)14-20-6-4-5-7-24(20)29/h4-9,15,18-19H,10-14,16-17H2,1-3H3/t19-/m1/s1

> <PUBCHEM_IUPAC_INCHIKEY>
RLNVMGFHVCHHTP-LJQANCHMSA-N

> <PUBCHEM_XLOGP3_AA>
4.9

> <PUBCHEM_EXACT_MASS>
425.2233903

> <PUBCHEM_MOLECULAR_FORMULA>
C25H32ClN3O

> <PUBCHEM_MOLECULAR_WEIGHT>
426.0

> <PUBCHEM_OPENEYE_CAN_SMILES>
CC1CC2=CC=CC=C2N1C(=O)CN3CCN(CC3)CC4=C(C=CC(=C4)Cl)C(C)C

> <PUBCHEM_OPENEYE_ISO_SMILES>
C[C@@H]1CC2=CC=CC=C2N1C(=O)CN3CCN(CC3)CC4=C(C=CC(=C4)Cl)C(C)C

> <PUBCHEM_CACTVS_TPSA>
26.8

> <PUBCHEM_MONOISOTOPIC_WEIGHT>
425.2233903

> <PUBCHEM_TOTAL_CHARGE>
0

> <PUBCHEM_HEAVY_ATOM_COUNT>
30

> <PUBCHEM_ATOM_DEF_STEREO_COUNT>
1

> <PUBCHEM_ATOM_UDEF_STEREO_COUNT>
0

> <PUBCHEM_BOND_DEF_STEREO_COUNT>
0

> <PUBCHEM_BOND_UDEF_STEREO_COUNT>
0

> <PUBCHEM_ISOTOPIC_ATOM_COUNT>
0

> <PUBCHEM_COMPONENT_COUNT>
1

> <PUBCHEM_CACTVS_TAUTO_COUNT>
-1

> <PUBCHEM_COORDINATE_TYPE>
1
5
255

> <PUBCHEM_BONDANNOTATIONS>
10  17  5
14  15  8
14  19  8
15  21  8
18  20  8
18  23  8
19  24  8
20  26  8
21  25  8
23  29  8
24  25  8
26  30  8
29  30  8

$$$$
