44307285
  -OEChem-09292322512D

 59 62  0     1  0  0  0  0  0999 V2000
    6.2619   -2.3148    0.0000 O   0  0  0  0  0  0  0  0  0  0  0  0
    5.4883   -0.9236    0.0000 N   0  0  0  0  0  0  0  0  0  0  0  0
    4.6783   -3.1195    0.0000 N   0  0  0  0  0  0  0  0  0  0  0  0
    7.1084    0.2491    0.0000 N   0  0  0  0  0  0  0  0  0  0  0  0
    4.6783   -1.5100    0.0000 C   0  0  3  0  0  0  0  0  0  0  0  0
    3.7320   -1.8148    0.0000 C   0  0  0  0  0  0  0  0  0  0  0  0
    5.3855    0.0711    0.0000 C   0  0  0  0  0  0  0  0  0  0  0  0
    6.4011   -1.3320    0.0000 C   0  0  0  0  0  0  0  0  0  0  0  0
    4.3709   -0.5584    0.0000 C   0  0  0  0  0  0  0  0  0  0  0  0
    5.2619   -2.3148    0.0000 C   0  0  0  0  0  0  0  0  0  0  0  0
    6.1955    0.6574    0.0000 C   0  0  0  0  0  0  0  0  0  0  0  0
    7.2112   -0.7456    0.0000 C   0  0  0  0  0  0  0  0  0  0  0  0
    3.7320   -2.8148    0.0000 C   0  0  0  0  0  0  0  0  0  0  0  0
    2.8660   -1.3148    0.0000 C   0  0  0  0  0  0  0  0  0  0  0  0
    3.3931   -0.3488    0.0000 C   0  0  0  0  0  0  0  0  0  0  0  0
    7.9184    0.8355    0.0000 C   0  0  0  0  0  0  0  0  0  0  0  0
    4.9889   -4.0700    0.0000 C   0  0  0  0  0  0  0  0  0  0  0  0
    2.8660   -3.3148    0.0000 C   0  0  0  0  0  0  0  0  0  0  0  0
    2.0000   -1.8148    0.0000 C   0  0  0  0  0  0  0  0  0  0  0  0
    2.0000   -2.8148    0.0000 C   0  0  0  0  0  0  0  0  0  0  0  0
    7.8156    1.8302    0.0000 C   0  0  0  0  0  0  0  0  0  0  0  0
    4.3211   -4.8143    0.0000 C   0  0  0  0  0  0  0  0  0  0  0  0
    6.9028    2.2385    0.0000 C   0  0  0  0  0  0  0  0  0  0  0  0
    8.6256    2.4166    0.0000 C   0  0  0  0  0  0  0  0  0  0  0  0
    6.8000    3.2332    0.0000 C   0  0  0  0  0  0  0  0  0  0  0  0
    8.5228    3.4113    0.0000 C   0  0  0  0  0  0  0  0  0  0  0  0
    7.6100    3.8196    0.0000 C   0  0  0  0  0  0  0  0  0  0  0  0
    7.5072    4.8143    0.0000 C   0  0  0  0  0  0  0  0  0  0  0  0
    5.1147    0.6288    0.0000 H   0  0  0  0  0  0  0  0  0  0  0  0
    4.7892   -0.0988    0.0000 H   0  0  0  0  0  0  0  0  0  0  0  0
    6.0536   -1.8454    0.0000 H   0  0  0  0  0  0  0  0  0  0  0  0
    6.8464   -1.7634    0.0000 H   0  0  0  0  0  0  0  0  0  0  0  0
    4.9850   -0.4732    0.0000 H   0  0  0  0  0  0  0  0  0  0  0  0
    4.3936    0.0611    0.0000 H   0  0  0  0  0  0  0  0  0  0  0  0
    6.5431    1.1708    0.0000 H   0  0  0  0  0  0  0  0  0  0  0  0
    5.7503    1.0889    0.0000 H   0  0  0  0  0  0  0  0  0  0  0  0
    7.4820   -1.3033    0.0000 H   0  0  0  0  0  0  0  0  0  0  0  0
    7.8074   -0.5757    0.0000 H   0  0  0  0  0  0  0  0  0  0  0  0
    2.8660   -0.6948    0.0000 H   0  0  0  0  0  0  0  0  0  0  0  0
    3.5231    0.2574    0.0000 H   0  0  0  0  0  0  0  0  0  0  0  0
    2.7869   -0.2189    0.0000 H   0  0  0  0  0  0  0  0  0  0  0  0
    3.2632   -0.9551    0.0000 H   0  0  0  0  0  0  0  0  0  0  0  0
    8.1892    0.2778    0.0000 H   0  0  0  0  0  0  0  0  0  0  0  0
    8.5147    1.0054    0.0000 H   0  0  0  0  0  0  0  0  0  0  0  0
    5.3715   -4.5579    0.0000 H   0  0  0  0  0  0  0  0  0  0  0  0
    5.5359   -3.7780    0.0000 H   0  0  0  0  0  0  0  0  0  0  0  0
    2.8660   -3.9348    0.0000 H   0  0  0  0  0  0  0  0  0  0  0  0
    1.4631   -1.5048    0.0000 H   0  0  0  0  0  0  0  0  0  0  0  0
    1.4631   -3.1248    0.0000 H   0  0  0  0  0  0  0  0  0  0  0  0
    3.8596   -4.4002    0.0000 H   0  0  0  0  0  0  0  0  0  0  0  0
    3.9070   -5.2758    0.0000 H   0  0  0  0  0  0  0  0  0  0  0  0
    4.7826   -5.2284    0.0000 H   0  0  0  0  0  0  0  0  0  0  0  0
    6.4005    1.8750    0.0000 H   0  0  0  0  0  0  0  0  0  0  0  0
    9.1916    2.1634    0.0000 H   0  0  0  0  0  0  0  0  0  0  0  0
    6.2340    3.4864    0.0000 H   0  0  0  0  0  0  0  0  0  0  0  0
    9.0250    3.7748    0.0000 H   0  0  0  0  0  0  0  0  0  0  0  0
    8.1239    4.8781    0.0000 H   0  0  0  0  0  0  0  0  0  0  0  0
    7.4434    5.4310    0.0000 H   0  0  0  0  0  0  0  0  0  0  0  0
    6.8905    4.7506    0.0000 H   0  0  0  0  0  0  0  0  0  0  0  0
  1 10  2  0  0  0  0
  2  5  1  0  0  0  0
  2  7  1  0  0  0  0
  2  8  1  0  0  0  0
  3 10  1  0  0  0  0
  3 13  1  0  0  0  0
  3 17  1  0  0  0  0
  4 11  1  0  0  0  0
  4 12  1  0  0  0  0
  4 16  1  0  0  0  0
  5  6  1  0  0  0  0
  5  9  1  0  0  0  0
  5 10  1  0  0  0  0
  6 13  1  0  0  0  0
  6 14  2  0  0  0  0
  7 11  1  0  0  0  0
  7 29  1  0  0  0  0
  7 30  1  0  0  0  0
  8 12  1  0  0  0  0
  8 31  1  0  0  0  0
  8 32  1  0  0  0  0
  9 15  1  0  0  0  0
  9 33  1  0  0  0  0
  9 34  1  0  0  0  0
 11 35  1  0  0  0  0
 11 36  1  0  0  0  0
 12 37  1  0  0  0  0
 12 38  1  0  0  0  0
 13 18  2  0  0  0  0
 14 19  1  0  0  0  0
 14 39  1  0  0  0  0
 15 40  1  0  0  0  0
 15 41  1  0  0  0  0
 15 42  1  0  0  0  0
 16 21  1  0  0  0  0
 16 43  1  0  0  0  0
 16 44  1  0  0  0  0
 17 22  1  0  0  0  0
 17 45  1  0  0  0  0
 17 46  1  0  0  0  0
 18 20  1  0  0  0  0
 18 47  1  0  0  0  0
 19 20  2  0  0  0  0
 19 48  1  0  0  0  0
 20 49  1  0  0  0  0
 21 23  2  0  0  0  0
 21 24  1  0  0  0  0
 22 50  1  0  0  0  0
 22 51  1  0  0  0  0
 22 52  1  0  0  0  0
 23 25  1  0  0  0  0
 23 53  1  0  0  0  0
 24 26  2  0  0  0  0
 24 54  1  0  0  0  0
 25 27  2  0  0  0  0
 25 55  1  0  0  0  0
 26 27  1  0  0  0  0
 26 56  1  0  0  0  0
 27 28  1  0  0  0  0
 28 57  1  0  0  0  0
 28 58  1  0  0  0  0
 28 59  1  0  0  0  0
M  END
> <PUBCHEM_COMPOUND_CID>
44307285

> <PUBCHEM_COMPOUND_CANONICALIZED>
1

> <PUBCHEM_CACTVS_COMPLEXITY>
536

> <PUBCHEM_CACTVS_HBOND_ACCEPTOR>
3

> <PUBCHEM_CACTVS_HBOND_DONOR>
0

> <PUBCHEM_CACTVS_ROTATABLE_BOND>
5

> <PUBCHEM_CACTVS_SUBSKEYS>
AAADceB7IAAAAAAAAAAAAAAAAAAAAWAAAAA8YIAAAAAAAFgBQAAAHgAAAAAADIjBmAQywIMAAACIAiVSUACCAAAhAgAIiAGIZIgIYDLA1bGUIAhghgDIyAcciMCOwAAAAAACAACAAAAAAAQAAAAAAAAAAA==

> <PUBCHEM_IUPAC_OPENEYE_NAME>
1,3-diethyl-3-[4-(p-tolylmethyl)piperazin-1-yl]indolin-2-one

> <PUBCHEM_IUPAC_CAS_NAME>
1,3-diethyl-3-[4-[(4-methylphenyl)methyl]-1-piperazinyl]-2-indolone

> <PUBCHEM_IUPAC_NAME_MARKUP>
1,3-diethyl-3-[4-[(4-methylphenyl)methyl]piperazin-1-yl]indol-2-one

> <PUBCHEM_IUPAC_NAME>
1,3-diethyl-3-[4-[(4-methylphenyl)methyl]piperazin-1-yl]indol-2-one

> <PUBCHEM_IUPAC_SYSTEMATIC_NAME>
1,3-diethyl-3-[4-[(4-methylphenyl)methyl]piperazin-1-yl]indol-2-one

> <PUBCHEM_IUPAC_TRADITIONAL_NAME>
1,3-diethyl-3-[4-(4-methylbenzyl)piperazino]oxindole

> <PUBCHEM_IUPAC_INCHI>
InChI=1S/C24H31N3O/c1-4-24(21-8-6-7-9-22(21)27(5-2)23(24)28)26-16-14-25(15-17-26)18-20-12-10-19(3)11-13-20/h6-13H,4-5,14-18H2,1-3H3

> <PUBCHEM_IUPAC_INCHIKEY>
SRKXPLYPSITHJR-UHFFFAOYSA-N

> <PUBCHEM_XLOGP3_AA>
3.9

> <PUBCHEM_EXACT_MASS>
377.246712621

> <PUBCHEM_MOLECULAR_FORMULA>
C24H31N3O

> <PUBCHEM_MOLECULAR_WEIGHT>
377.5

> <PUBCHEM_OPENEYE_CAN_SMILES>
CCC1(C2=CC=CC=C2N(C1=O)CC)N3CCN(CC3)CC4=CC=C(C=C4)C

> <PUBCHEM_OPENEYE_ISO_SMILES>
CCC1(C2=CC=CC=C2N(C1=O)CC)N3CCN(CC3)CC4=CC=C(C=C4)C

> <PUBCHEM_CACTVS_TPSA>
26.8

> <PUBCHEM_MONOISOTOPIC_WEIGHT>
377.246712621

> <PUBCHEM_TOTAL_CHARGE>
0

> <PUBCHEM_HEAVY_ATOM_COUNT>
28

> <PUBCHEM_ATOM_DEF_STEREO_COUNT>
0

> <PUBCHEM_ATOM_UDEF_STEREO_COUNT>
1

> <PUBCHEM_BOND_DEF_STEREO_COUNT>
0

> <PUBCHEM_BOND_UDEF_STEREO_COUNT>
0

> <PUBCHEM_ISOTOPIC_ATOM_COUNT>
0

> <PUBCHEM_COMPONENT_COUNT>
1

> <PUBCHEM_CACTVS_TAUTO_COUNT>
-1

> <PUBCHEM_COORDINATE_TYPE>
1
5
255

> <PUBCHEM_BONDANNOTATIONS>
13  18  8
14  19  8
18  20  8
19  20  8
21  23  8
21  24  8
23  25  8
24  26  8
25  27  8
26  27  8
5  9  3
6  13  8
6  14  8

$$$$
