56943600
  -OEChem-09292322082D

 62 66  0     0  0  0  0  0  0999 V2000
   18.8997    1.2352    0.0000 Cl  0  0  0  0  0  0  0  0  0  0  0  0
   13.6375   -0.7890    0.0000 S   0  0  0  0  0  0  0  0  0  0  0  0
    2.0000   -0.3127    0.0000 F   0  0  0  0  0  0  0  0  0  0  0  0
    4.7684    1.9090    0.0000 O   0  0  0  0  0  0  0  0  0  0  0  0
   13.1375    0.0771    0.0000 O   0  0  0  0  0  0  0  0  0  0  0  0
   14.1375   -1.6550    0.0000 O   0  0  0  0  0  0  0  0  0  0  0  0
    8.4414   -0.7890    0.0000 N   0  0  0  0  0  0  0  0  0  0  0  0
    5.7402    1.6998    0.0000 N   0  0  0  0  0  0  0  0  0  0  0  0
   12.7715   -1.2890    0.0000 N   0  0  0  0  0  0  0  0  0  0  0  0
    6.7093    0.2110    0.0000 C   0  0  0  0  0  0  0  0  0  0  0  0
    7.5754    0.7110    0.0000 C   0  0  0  0  0  0  0  0  0  0  0  0
    6.7093   -0.7890    0.0000 C   0  0  0  0  0  0  0  0  0  0  0  0
    8.4414    0.2110    0.0000 C   0  0  0  0  0  0  0  0  0  0  0  0
    7.5754   -1.2890    0.0000 C   0  0  0  0  0  0  0  0  0  0  0  0
    9.3074   -1.2890    0.0000 C   0  0  0  0  0  0  0  0  0  0  0  0
    5.8433    0.7110    0.0000 C   0  0  0  0  0  0  0  0  0  0  0  0
   10.1734   -0.7890    0.0000 C   0  0  0  0  0  0  0  0  0  0  0  0
    4.9355    0.3059    0.0000 C   0  0  0  0  0  0  0  0  0  0  0  0
   11.0395   -1.2890    0.0000 C   0  0  0  0  0  0  0  0  0  0  0  0
    4.2677    1.0502    0.0000 C   0  0  0  0  0  0  0  0  0  0  0  0
   11.9055   -0.7890    0.0000 C   0  0  0  0  0  0  0  0  0  0  0  0
    4.6249   -0.6446    0.0000 C   0  0  0  0  0  0  0  0  0  0  0  0
    3.2892    0.8440    0.0000 C   0  0  0  0  0  0  0  0  0  0  0  0
    3.6464   -0.8508    0.0000 C   0  0  0  0  0  0  0  0  0  0  0  0
    2.9785   -0.1065    0.0000 C   0  0  0  0  0  0  0  0  0  0  0  0
   14.5036   -0.2890    0.0000 C   0  0  0  0  0  0  0  0  0  0  0  0
   15.3696   -0.7890    0.0000 C   0  0  0  0  0  0  0  0  0  0  0  0
   14.5036    0.7110    0.0000 C   0  0  0  0  0  0  0  0  0  0  0  0
   16.2356   -0.2890    0.0000 C   0  0  0  0  0  0  0  0  0  0  0  0
   16.2356    0.7110    0.0000 C   0  0  0  0  0  0  0  0  0  0  0  0
   15.3696    1.2110    0.0000 C   0  0  0  0  0  0  0  0  0  0  0  0
   17.1296   -0.8236    0.0000 C   0  0  0  0  0  0  0  0  0  0  0  0
   17.1296    1.2457    0.0000 C   0  0  0  0  0  0  0  0  0  0  0  0
   18.0356   -0.3098    0.0000 C   0  0  0  0  0  0  0  0  0  0  0  0
   18.0356    0.7319    0.0000 C   0  0  0  0  0  0  0  0  0  0  0  0
    6.7093    0.8310    0.0000 H   0  0  0  0  0  0  0  0  0  0  0  0
    7.9739    1.1860    0.0000 H   0  0  0  0  0  0  0  0  0  0  0  0
    7.1768    1.1860    0.0000 H   0  0  0  0  0  0  0  0  0  0  0  0
    6.0988   -0.6813    0.0000 H   0  0  0  0  0  0  0  0  0  0  0  0
    6.4973   -1.3716    0.0000 H   0  0  0  0  0  0  0  0  0  0  0  0
    9.0520    0.1034    0.0000 H   0  0  0  0  0  0  0  0  0  0  0  0
    8.6534    0.7936    0.0000 H   0  0  0  0  0  0  0  0  0  0  0  0
    7.1768   -1.7639    0.0000 H   0  0  0  0  0  0  0  0  0  0  0  0
    7.9739   -1.7639    0.0000 H   0  0  0  0  0  0  0  0  0  0  0  0
    8.9089   -1.7639    0.0000 H   0  0  0  0  0  0  0  0  0  0  0  0
    9.7059   -1.7639    0.0000 H   0  0  0  0  0  0  0  0  0  0  0  0
   10.5720   -0.3140    0.0000 H   0  0  0  0  0  0  0  0  0  0  0  0
    9.7749   -0.3140    0.0000 H   0  0  0  0  0  0  0  0  0  0  0  0
   10.6409   -1.7639    0.0000 H   0  0  0  0  0  0  0  0  0  0  0  0
   11.4380   -1.7639    0.0000 H   0  0  0  0  0  0  0  0  0  0  0  0
   12.3040   -0.3140    0.0000 H   0  0  0  0  0  0  0  0  0  0  0  0
   11.5070   -0.3140    0.0000 H   0  0  0  0  0  0  0  0  0  0  0  0
    5.0389   -1.1061    0.0000 H   0  0  0  0  0  0  0  0  0  0  0  0
   12.7715   -1.9090    0.0000 H   0  0  0  0  0  0  0  0  0  0  0  0
    2.8751    1.3055    0.0000 H   0  0  0  0  0  0  0  0  0  0  0  0
    3.4537   -1.4401    0.0000 H   0  0  0  0  0  0  0  0  0  0  0  0
   15.3696   -1.4090    0.0000 H   0  0  0  0  0  0  0  0  0  0  0  0
   13.9666    1.0210    0.0000 H   0  0  0  0  0  0  0  0  0  0  0  0
   15.3696    1.8310    0.0000 H   0  0  0  0  0  0  0  0  0  0  0  0
   17.1224   -1.4436    0.0000 H   0  0  0  0  0  0  0  0  0  0  0  0
   17.1224    1.8657    0.0000 H   0  0  0  0  0  0  0  0  0  0  0  0
   18.5714   -0.6218    0.0000 H   0  0  0  0  0  0  0  0  0  0  0  0
  1 35  1  0  0  0  0
  2  5  2  0  0  0  0
  2  6  2  0  0  0  0
  2  9  1  0  0  0  0
  2 26  1  0  0  0  0
  3 25  1  0  0  0  0
  4  8  1  0  0  0  0
  4 20  1  0  0  0  0
  7 13  1  0  0  0  0
  7 14  1  0  0  0  0
  7 15  1  0  0  0  0
  8 16  2  0  0  0  0
  9 21  1  0  0  0  0
  9 54  1  0  0  0  0
 10 11  1  0  0  0  0
 10 12  1  0  0  0  0
 10 16  1  0  0  0  0
 10 36  1  0  0  0  0
 11 13  1  0  0  0  0
 11 37  1  0  0  0  0
 11 38  1  0  0  0  0
 12 14  1  0  0  0  0
 12 39  1  0  0  0  0
 12 40  1  0  0  0  0
 13 41  1  0  0  0  0
 13 42  1  0  0  0  0
 14 43  1  0  0  0  0
 14 44  1  0  0  0  0
 15 17  1  0  0  0  0
 15 45  1  0  0  0  0
 15 46  1  0  0  0  0
 16 18  1  0  0  0  0
 17 19  1  0  0  0  0
 17 47  1  0  0  0  0
 17 48  1  0  0  0  0
 18 20  2  0  0  0  0
 18 22  1  0  0  0  0
 19 21  1  0  0  0  0
 19 49  1  0  0  0  0
 19 50  1  0  0  0  0
 20 23  1  0  0  0  0
 21 51  1  0  0  0  0
 21 52  1  0  0  0  0
 22 24  2  0  0  0  0
 22 53  1  0  0  0  0
 23 25  2  0  0  0  0
 23 55  1  0  0  0  0
 24 25  1  0  0  0  0
 24 56  1  0  0  0  0
 26 27  2  0  0  0  0
 26 28  1  0  0  0  0
 27 29  1  0  0  0  0
 27 57  1  0  0  0  0
 28 31  2  0  0  0  0
 28 58  1  0  0  0  0
 29 30  2  0  0  0  0
 29 32  1  0  0  0  0
 30 31  1  0  0  0  0
 30 33  1  0  0  0  0
 31 59  1  0  0  0  0
 32 34  2  0  0  0  0
 32 60  1  0  0  0  0
 33 35  2  0  0  0  0
 33 61  1  0  0  0  0
 34 35  1  0  0  0  0
 34 62  1  0  0  0  0
M  END
> <PUBCHEM_COMPOUND_CID>
56943600

> <PUBCHEM_COMPOUND_CANONICALIZED>
1

> <PUBCHEM_CACTVS_COMPLEXITY>
791

> <PUBCHEM_CACTVS_HBOND_ACCEPTOR>
7

> <PUBCHEM_CACTVS_HBOND_DONOR>
1

> <PUBCHEM_CACTVS_ROTATABLE_BOND>
8

> <PUBCHEM_CACTVS_SUBSKEYS>
AAADceB7MQBEAAAAAAAAAAAAAAAAAWAAAAA8YMEAAAAAAFjB9AAAHwYUQAAADQ7B3iwwh9NQAAKpA6RyQnDCABAkJQAomLk+TtoIJrqBl5OEMYBm0BmIyceYyOCOlAAAoAAYAAAoAAFAADAAAAAAAAAAAA==

> <PUBCHEM_IUPAC_OPENEYE_NAME>
6-chloro-N-[4-[4-(6-fluoro-1,2-benzoxazol-3-yl)-1-piperidyl]butyl]naphthalene-2-sulfonamide

> <PUBCHEM_IUPAC_CAS_NAME>
6-chloro-N-[4-[4-(6-fluoro-1,2-benzoxazol-3-yl)-1-piperidinyl]butyl]-2-naphthalenesulfonamide

> <PUBCHEM_IUPAC_NAME_MARKUP>
6-chloro-<I>N</I>-[4-[4-(6-fluoro-1,2-benzoxazol-3-yl)piperidin-1-yl]butyl]naphthalene-2-sulfonamide

> <PUBCHEM_IUPAC_NAME>
6-chloro-N-[4-[4-(6-fluoro-1,2-benzoxazol-3-yl)piperidin-1-yl]butyl]naphthalene-2-sulfonamide

> <PUBCHEM_IUPAC_SYSTEMATIC_NAME>
6-chloranyl-N-[4-[4-(6-fluoranyl-1,2-benzoxazol-3-yl)piperidin-1-yl]butyl]naphthalene-2-sulfonamide

> <PUBCHEM_IUPAC_TRADITIONAL_NAME>
6-chloro-N-[4-[4-(6-fluoroindoxazen-3-yl)piperidino]butyl]naphthalene-2-sulfonamide

> <PUBCHEM_IUPAC_INCHI>
InChI=1S/C26H27ClFN3O3S/c27-21-5-3-20-16-23(7-4-19(20)15-21)35(32,33)29-11-1-2-12-31-13-9-18(10-14-31)26-24-8-6-22(28)17-25(24)34-30-26/h3-8,15-18,29H,1-2,9-14H2

> <PUBCHEM_IUPAC_INCHIKEY>
LMPJCXOOACXKHV-UHFFFAOYSA-N

> <PUBCHEM_XLOGP3_AA>
5.7

> <PUBCHEM_EXACT_MASS>
515.1445688

> <PUBCHEM_MOLECULAR_FORMULA>
C26H27ClFN3O3S

> <PUBCHEM_MOLECULAR_WEIGHT>
516.0

> <PUBCHEM_OPENEYE_CAN_SMILES>
C1CN(CCC1C2=NOC3=C2C=CC(=C3)F)CCCCNS(=O)(=O)C4=CC5=C(C=C4)C=C(C=C5)Cl

> <PUBCHEM_OPENEYE_ISO_SMILES>
C1CN(CCC1C2=NOC3=C2C=CC(=C3)F)CCCCNS(=O)(=O)C4=CC5=C(C=C4)C=C(C=C5)Cl

> <PUBCHEM_CACTVS_TPSA>
83.8

> <PUBCHEM_MONOISOTOPIC_WEIGHT>
515.1445688

> <PUBCHEM_TOTAL_CHARGE>
0

> <PUBCHEM_HEAVY_ATOM_COUNT>
35

> <PUBCHEM_ATOM_DEF_STEREO_COUNT>
0

> <PUBCHEM_ATOM_UDEF_STEREO_COUNT>
0

> <PUBCHEM_BOND_DEF_STEREO_COUNT>
0

> <PUBCHEM_BOND_UDEF_STEREO_COUNT>
0

> <PUBCHEM_ISOTOPIC_ATOM_COUNT>
0

> <PUBCHEM_COMPONENT_COUNT>
1

> <PUBCHEM_CACTVS_TAUTO_COUNT>
-1

> <PUBCHEM_COORDINATE_TYPE>
1
5
255

> <PUBCHEM_BONDANNOTATIONS>
16  18  8
18  20  8
18  22  8
20  23  8
22  24  8
23  25  8
24  25  8
26  27  8
26  28  8
27  29  8
28  31  8
29  30  8
29  32  8
30  31  8
30  33  8
32  34  8
33  35  8
34  35  8
4  20  8
4  8  8
8  16  8

$$$$
