44425698
  -OEChem-09292322242D

 45 47  0     0  0  0  0  0  0999 V2000
    8.0622    0.4400    0.0000 S   0  0  0  0  0  0  0  0  0  0  0  0
    7.5622    1.3060    0.0000 O   0  0  0  0  0  0  0  0  0  0  0  0
    8.5622   -0.4260    0.0000 O   0  0  0  0  0  0  0  0  0  0  0  0
   13.0561   -0.0600    0.0000 N   0  0  0  0  0  0  0  0  0  0  0  0
    8.9282    0.9400    0.0000 N   0  0  0  0  0  0  0  0  0  0  0  0
   11.5263    0.4400    0.0000 C   0  0  0  0  0  0  0  0  0  0  0  0
   11.5263   -0.5600    0.0000 C   0  0  0  0  0  0  0  0  0  0  0  0
   12.4725    0.7447    0.0000 C   0  0  0  0  0  0  0  0  0  0  0  0
   12.4725   -0.8647    0.0000 C   0  0  0  0  0  0  0  0  0  0  0  0
   10.6603    0.9400    0.0000 C   0  0  0  0  0  0  0  0  0  0  0  0
    9.7942    0.4400    0.0000 C   0  0  0  0  0  0  0  0  0  0  0  0
   10.6603   -1.0600    0.0000 C   0  0  0  0  0  0  0  0  0  0  0  0
    4.5981   -1.5600    0.0000 C   0  0  0  0  0  0  0  0  0  0  0  0
    9.7942   -0.5600    0.0000 C   0  0  0  0  0  0  0  0  0  0  0  0
    3.7320   -1.0600    0.0000 C   0  0  0  0  0  0  0  0  0  0  0  0
    5.4641   -1.0600    0.0000 C   0  0  0  0  0  0  0  0  0  0  0  0
    7.1962   -0.0600    0.0000 C   0  0  0  0  0  0  0  0  0  0  0  0
    2.8660   -1.5600    0.0000 C   0  0  0  0  0  0  0  0  0  0  0  0
    6.3301   -1.5600    0.0000 C   0  0  0  0  0  0  0  0  0  0  0  0
    5.4641   -0.0600    0.0000 C   0  0  0  0  0  0  0  0  0  0  0  0
    7.1962   -1.0600    0.0000 C   0  0  0  0  0  0  0  0  0  0  0  0
    6.3301    0.4400    0.0000 C   0  0  0  0  0  0  0  0  0  0  0  0
    2.0000   -1.0600    0.0000 C   0  0  0  0  0  0  0  0  0  0  0  0
   13.0099    1.0540    0.0000 H   0  0  0  0  0  0  0  0  0  0  0  0
   12.2215    1.3116    0.0000 H   0  0  0  0  0  0  0  0  0  0  0  0
   12.2215   -1.4316    0.0000 H   0  0  0  0  0  0  0  0  0  0  0  0
   13.0099   -1.1740    0.0000 H   0  0  0  0  0  0  0  0  0  0  0  0
   13.6761   -0.0600    0.0000 H   0  0  0  0  0  0  0  0  0  0  0  0
   10.6603    1.5600    0.0000 H   0  0  0  0  0  0  0  0  0  0  0  0
   10.6603   -1.6800    0.0000 H   0  0  0  0  0  0  0  0  0  0  0  0
    4.1996   -2.0349    0.0000 H   0  0  0  0  0  0  0  0  0  0  0  0
    4.9966   -2.0349    0.0000 H   0  0  0  0  0  0  0  0  0  0  0  0
    9.2573   -0.8700    0.0000 H   0  0  0  0  0  0  0  0  0  0  0  0
    4.1306   -0.5851    0.0000 H   0  0  0  0  0  0  0  0  0  0  0  0
    3.3335   -0.5851    0.0000 H   0  0  0  0  0  0  0  0  0  0  0  0
    8.9282    1.5600    0.0000 H   0  0  0  0  0  0  0  0  0  0  0  0
    2.4675   -2.0349    0.0000 H   0  0  0  0  0  0  0  0  0  0  0  0
    3.2646   -2.0349    0.0000 H   0  0  0  0  0  0  0  0  0  0  0  0
    6.3301   -2.1800    0.0000 H   0  0  0  0  0  0  0  0  0  0  0  0
    4.9272    0.2500    0.0000 H   0  0  0  0  0  0  0  0  0  0  0  0
    7.7331   -1.3700    0.0000 H   0  0  0  0  0  0  0  0  0  0  0  0
    6.3301    1.0600    0.0000 H   0  0  0  0  0  0  0  0  0  0  0  0
    2.3100   -0.5231    0.0000 H   0  0  0  0  0  0  0  0  0  0  0  0
    1.4631   -0.7500    0.0000 H   0  0  0  0  0  0  0  0  0  0  0  0
    1.6900   -1.5969    0.0000 H   0  0  0  0  0  0  0  0  0  0  0  0
  1  2  2  0  0  0  0
  1  3  2  0  0  0  0
  1  5  1  0  0  0  0
  1 17  1  0  0  0  0
  4  8  1  0  0  0  0
  4  9  1  0  0  0  0
  4 28  1  0  0  0  0
  5 11  1  0  0  0  0
  5 36  1  0  0  0  0
  6  7  2  0  0  0  0
  6  8  1  0  0  0  0
  6 10  1  0  0  0  0
  7  9  1  0  0  0  0
  7 12  1  0  0  0  0
  8 24  1  0  0  0  0
  8 25  1  0  0  0  0
  9 26  1  0  0  0  0
  9 27  1  0  0  0  0
 10 11  2  0  0  0  0
 10 29  1  0  0  0  0
 11 14  1  0  0  0  0
 12 14  2  0  0  0  0
 12 30  1  0  0  0  0
 13 15  1  0  0  0  0
 13 16  1  0  0  0  0
 13 31  1  0  0  0  0
 13 32  1  0  0  0  0
 14 33  1  0  0  0  0
 15 18  1  0  0  0  0
 15 34  1  0  0  0  0
 15 35  1  0  0  0  0
 16 19  2  0  0  0  0
 16 20  1  0  0  0  0
 17 21  2  0  0  0  0
 17 22  1  0  0  0  0
 18 23  1  0  0  0  0
 18 37  1  0  0  0  0
 18 38  1  0  0  0  0
 19 21  1  0  0  0  0
 19 39  1  0  0  0  0
 20 22  2  0  0  0  0
 20 40  1  0  0  0  0
 21 41  1  0  0  0  0
 22 42  1  0  0  0  0
 23 43  1  0  0  0  0
 23 44  1  0  0  0  0
 23 45  1  0  0  0  0
M  END
> <PUBCHEM_COMPOUND_CID>
44425698

> <PUBCHEM_COMPOUND_CANONICALIZED>
1

> <PUBCHEM_CACTVS_COMPLEXITY>
466

> <PUBCHEM_CACTVS_HBOND_ACCEPTOR>
4

> <PUBCHEM_CACTVS_HBOND_DONOR>
2

> <PUBCHEM_CACTVS_ROTATABLE_BOND>
6

> <PUBCHEM_CACTVS_SUBSKEYS>
AAADceB7MABAAAAAAAAAAAAAAAAAAWAAAAAwYAAAAAAAAFgBQAAAHAQQQAAADAjBWAQywYLAAAKAAiRCQHDCABAgAgAIiJgIZIgIICKAkZGEIAhgkACIyAcQgIAOmAAAQAAQAAAwAACAACAAAAAAAAAAAA==

> <PUBCHEM_IUPAC_OPENEYE_NAME>
4-butyl-N-isoindolin-5-yl-benzenesulfonamide

> <PUBCHEM_IUPAC_CAS_NAME>
4-butyl-N-(2,3-dihydro-1H-isoindol-5-yl)benzenesulfonamide

> <PUBCHEM_IUPAC_NAME_MARKUP>
4-butyl-<I>N</I>-(2,3-dihydro-1<I>H</I>-isoindol-5-yl)benzenesulfonamide

> <PUBCHEM_IUPAC_NAME>
4-butyl-N-(2,3-dihydro-1H-isoindol-5-yl)benzenesulfonamide

> <PUBCHEM_IUPAC_SYSTEMATIC_NAME>
4-butyl-N-(2,3-dihydro-1H-isoindol-5-yl)benzenesulfonamide

> <PUBCHEM_IUPAC_TRADITIONAL_NAME>
4-butyl-N-isoindolin-5-yl-benzenesulfonamide

> <PUBCHEM_IUPAC_INCHI>
InChI=1S/C18H22N2O2S/c1-2-3-4-14-5-9-18(10-6-14)23(21,22)20-17-8-7-15-12-19-13-16(15)11-17/h5-11,19-20H,2-4,12-13H2,1H3

> <PUBCHEM_IUPAC_INCHIKEY>
XYRLMCYNIVWAAM-UHFFFAOYSA-N

> <PUBCHEM_XLOGP3_AA>
3.3

> <PUBCHEM_EXACT_MASS>
330.14019912

> <PUBCHEM_MOLECULAR_FORMULA>
C18H22N2O2S

> <PUBCHEM_MOLECULAR_WEIGHT>
330.4

> <PUBCHEM_OPENEYE_CAN_SMILES>
CCCCC1=CC=C(C=C1)S(=O)(=O)NC2=CC3=C(CNC3)C=C2

> <PUBCHEM_OPENEYE_ISO_SMILES>
CCCCC1=CC=C(C=C1)S(=O)(=O)NC2=CC3=C(CNC3)C=C2

> <PUBCHEM_CACTVS_TPSA>
66.6

> <PUBCHEM_MONOISOTOPIC_WEIGHT>
330.14019912

> <PUBCHEM_TOTAL_CHARGE>
0

> <PUBCHEM_HEAVY_ATOM_COUNT>
23

> <PUBCHEM_ATOM_DEF_STEREO_COUNT>
0

> <PUBCHEM_ATOM_UDEF_STEREO_COUNT>
0

> <PUBCHEM_BOND_DEF_STEREO_COUNT>
0

> <PUBCHEM_BOND_UDEF_STEREO_COUNT>
0

> <PUBCHEM_ISOTOPIC_ATOM_COUNT>
0

> <PUBCHEM_COMPONENT_COUNT>
1

> <PUBCHEM_CACTVS_TAUTO_COUNT>
-1

> <PUBCHEM_COORDINATE_TYPE>
1
5
255

> <PUBCHEM_BONDANNOTATIONS>
10  11  8
11  14  8
12  14  8
16  19  8
16  20  8
17  21  8
17  22  8
19  21  8
20  22  8
6  10  8
6  7  8
7  12  8

$$$$
