45260669
  -OEChem-09292322502D

 46 48  0     0  0  0  0  0  0999 V2000
    4.9096    0.0000    0.0000 Cl  0  0  0  0  0  0  0  0  0  0  0  0
    6.7702    4.6128    0.0000 O   0  0  0  0  0  0  0  0  0  0  0  0
    6.4612    7.1819    0.0000 O   0  0  0  0  0  0  0  0  0  0  0  0
    3.0891    3.6423    0.0000 O   0  0  0  0  0  0  0  0  0  0  0  0
    4.1824    5.4218    0.0000 N   0  0  0  0  0  0  0  0  0  0  0  0
    2.3460    2.9731    0.0000 N   0  0  0  0  0  0  0  0  0  0  0  0
    6.1824    5.4218    0.0000 C   0  0  0  0  0  0  0  0  0  0  0  0
    5.6824    6.2879    0.0000 C   0  0  0  0  0  0  0  0  0  0  0  0
    5.6824    4.5558    0.0000 C   0  0  0  0  0  0  0  0  0  0  0  0
    4.6824    6.2879    0.0000 C   0  0  0  0  0  0  0  0  0  0  0  0
    4.6824    4.5558    0.0000 C   0  0  0  0  0  0  0  0  0  0  0  0
    6.7702    6.2308    0.0000 C   0  0  0  0  0  0  0  0  0  0  0  0
    3.1824    5.4218    0.0000 C   0  0  0  0  0  0  0  0  0  0  0  0
    7.7212    5.9218    0.0000 C   0  0  0  0  0  0  0  0  0  0  0  0
    7.7212    4.9218    0.0000 C   0  0  0  0  0  0  0  0  0  0  0  0
    2.6824    4.5558    0.0000 C   0  0  0  0  0  0  0  0  0  0  0  0
    8.5302    6.5096    0.0000 C   0  0  0  0  0  0  0  0  0  0  0  0
    1.6879    4.4513    0.0000 C   0  0  0  0  0  0  0  0  0  0  0  0
    8.4257    7.5041    0.0000 C   0  0  0  0  0  0  0  0  0  0  0  0
    9.4438    6.1029    0.0000 C   0  0  0  0  0  0  0  0  0  0  0  0
    1.4799    3.4731    0.0000 C   0  0  0  0  0  0  0  0  0  0  0  0
    9.2347    8.0919    0.0000 C   0  0  0  0  0  0  0  0  0  0  0  0
   10.2528    6.6907    0.0000 C   0  0  0  0  0  0  0  0  0  0  0  0
   10.1483    7.6852    0.0000 C   0  0  0  0  0  0  0  0  0  0  0  0
    0.5664    3.0664    0.0000 C   0  0  0  0  0  0  0  0  0  0  0  0
    6.2650    6.4999    0.0000 H   0  0  0  0  0  0  0  0  0  0  0  0
    5.5747    6.8984    0.0000 H   0  0  0  0  0  0  0  0  0  0  0  0
    5.5747    3.9452    0.0000 H   0  0  0  0  0  0  0  0  0  0  0  0
    6.2650    4.3438    0.0000 H   0  0  0  0  0  0  0  0  0  0  0  0
    4.7900    6.8984    0.0000 H   0  0  0  0  0  0  0  0  0  0  0  0
    4.0998    6.4999    0.0000 H   0  0  0  0  0  0  0  0  0  0  0  0
    4.0998    4.3438    0.0000 H   0  0  0  0  0  0  0  0  0  0  0  0
    4.7900    3.9452    0.0000 H   0  0  0  0  0  0  0  0  0  0  0  0
    3.2900    6.0324    0.0000 H   0  0  0  0  0  0  0  0  0  0  0  0
    2.5998    5.6339    0.0000 H   0  0  0  0  0  0  0  0  0  0  0  0
    8.2228    4.5574    0.0000 H   0  0  0  0  0  0  0  0  0  0  0  0
    1.2730    4.9120    0.0000 H   0  0  0  0  0  0  0  0  0  0  0  0
    7.8593    7.7563    0.0000 H   0  0  0  0  0  0  0  0  0  0  0  0
    9.5086    5.4863    0.0000 H   0  0  0  0  0  0  0  0  0  0  0  0
    9.1699    8.7085    0.0000 H   0  0  0  0  0  0  0  0  0  0  0  0
   10.8192    6.4385    0.0000 H   0  0  0  0  0  0  0  0  0  0  0  0
   10.6499    8.0496    0.0000 H   0  0  0  0  0  0  0  0  0  0  0  0
    0.3142    3.6328    0.0000 H   0  0  0  0  0  0  0  0  0  0  0  0
    0.0000    2.8142    0.0000 H   0  0  0  0  0  0  0  0  0  0  0  0
    0.8186    2.5000    0.0000 H   0  0  0  0  0  0  0  0  0  0  0  0
    5.9096    0.0000    0.0000 H   0  0  0  0  0  0  0  0  0  0  0  0
  1 46  1  0  0  0  0
  2  7  1  0  0  0  0
  2 15  1  0  0  0  0
  3 12  2  0  0  0  0
  4  6  1  0  0  0  0
  4 16  1  0  0  0  0
  5 10  1  0  0  0  0
  5 11  1  0  0  0  0
  5 13  1  0  0  0  0
  6 21  2  0  0  0  0
  7  8  1  0  0  0  0
  7  9  1  0  0  0  0
  7 12  1  0  0  0  0
  8 10  1  0  0  0  0
  8 26  1  0  0  0  0
  8 27  1  0  0  0  0
  9 11  1  0  0  0  0
  9 28  1  0  0  0  0
  9 29  1  0  0  0  0
 10 30  1  0  0  0  0
 10 31  1  0  0  0  0
 11 32  1  0  0  0  0
 11 33  1  0  0  0  0
 12 14  1  0  0  0  0
 13 16  1  0  0  0  0
 13 34  1  0  0  0  0
 13 35  1  0  0  0  0
 14 15  2  0  0  0  0
 14 17  1  0  0  0  0
 15 36  1  0  0  0  0
 16 18  2  0  0  0  0
 17 19  2  0  0  0  0
 17 20  1  0  0  0  0
 18 21  1  0  0  0  0
 18 37  1  0  0  0  0
 19 22  1  0  0  0  0
 19 38  1  0  0  0  0
 20 23  2  0  0  0  0
 20 39  1  0  0  0  0
 21 25  1  0  0  0  0
 22 24  2  0  0  0  0
 22 40  1  0  0  0  0
 23 24  1  0  0  0  0
 23 41  1  0  0  0  0
 24 42  1  0  0  0  0
 25 43  1  0  0  0  0
 25 44  1  0  0  0  0
 25 45  1  0  0  0  0
M  END
> <PUBCHEM_COMPOUND_CID>
45260669

> <PUBCHEM_COMPOUND_CANONICALIZED>
1

> <PUBCHEM_CACTVS_COMPLEXITY>
505

> <PUBCHEM_CACTVS_HBOND_ACCEPTOR>
5

> <PUBCHEM_CACTVS_HBOND_DONOR>
1

> <PUBCHEM_CACTVS_ROTATABLE_BOND>
3

> <PUBCHEM_CACTVS_SUBSKEYS>
AAADceB7MAAEAAAAAAAAAAAAAAAAAWIAAAA8QAAAAAAAAAABwAAAHgAEAAAADEzhngYyhJMQBACpA6RyQgKCCAAkIgAomCH+bNoKJjqAlbeEMYhmwBiYycecyOCOAAAAAAAAAAAAAAAAAAAAAAAAAAAAAA==

> <PUBCHEM_IUPAC_OPENEYE_NAME>
8-[(3-methylisoxazol-5-yl)methyl]-3-phenyl-1-oxa-8-azaspiro[4.5]dec-2-en-4-one;hydrochloride

> <PUBCHEM_IUPAC_CAS_NAME>
8-[(3-methyl-5-isoxazolyl)methyl]-3-phenyl-1-oxa-8-azaspiro[4.5]dec-2-en-4-one;hydrochloride

> <PUBCHEM_IUPAC_NAME_MARKUP>
8-[(3-methyl-1,2-oxazol-5-yl)methyl]-3-phenyl-1-oxa-8-azaspiro[4.5]dec-2-en-4-one;hydrochloride

> <PUBCHEM_IUPAC_NAME>
8-[(3-methyl-1,2-oxazol-5-yl)methyl]-3-phenyl-1-oxa-8-azaspiro[4.5]dec-2-en-4-one;hydrochloride

> <PUBCHEM_IUPAC_SYSTEMATIC_NAME>
8-[(3-methyl-1,2-oxazol-5-yl)methyl]-3-phenyl-1-oxa-8-azaspiro[4.5]dec-2-en-4-one;hydrochloride

> <PUBCHEM_IUPAC_TRADITIONAL_NAME>
8-[(3-methylisoxazol-5-yl)methyl]-3-phenyl-1-oxa-8-azaspiro[4.5]dec-2-en-4-one;hydrochloride

> <PUBCHEM_IUPAC_INCHI>
InChI=1S/C19H20N2O3.ClH/c1-14-11-16(24-20-14)12-21-9-7-19(8-10-21)18(22)17(13-23-19)15-5-3-2-4-6-15;/h2-6,11,13H,7-10,12H2,1H3;1H

> <PUBCHEM_IUPAC_INCHIKEY>
KPDDUBUXGKEKOK-UHFFFAOYSA-N

> <PUBCHEM_EXACT_MASS>
360.1240702

> <PUBCHEM_MOLECULAR_FORMULA>
C19H21ClN2O3

> <PUBCHEM_MOLECULAR_WEIGHT>
360.8

> <PUBCHEM_OPENEYE_CAN_SMILES>
CC1=NOC(=C1)CN2CCC3(CC2)C(=O)C(=CO3)C4=CC=CC=C4.Cl

> <PUBCHEM_OPENEYE_ISO_SMILES>
CC1=NOC(=C1)CN2CCC3(CC2)C(=O)C(=CO3)C4=CC=CC=C4.Cl

> <PUBCHEM_CACTVS_TPSA>
55.6

> <PUBCHEM_MONOISOTOPIC_WEIGHT>
360.1240702

> <PUBCHEM_TOTAL_CHARGE>
0

> <PUBCHEM_HEAVY_ATOM_COUNT>
25

> <PUBCHEM_ATOM_DEF_STEREO_COUNT>
0

> <PUBCHEM_ATOM_UDEF_STEREO_COUNT>
0

> <PUBCHEM_BOND_DEF_STEREO_COUNT>
0

> <PUBCHEM_BOND_UDEF_STEREO_COUNT>
0

> <PUBCHEM_ISOTOPIC_ATOM_COUNT>
0

> <PUBCHEM_COMPONENT_COUNT>
2

> <PUBCHEM_CACTVS_TAUTO_COUNT>
-1

> <PUBCHEM_COORDINATE_TYPE>
1
5
255

> <PUBCHEM_BONDANNOTATIONS>
16  18  8
17  19  8
17  20  8
18  21  8
19  22  8
20  23  8
22  24  8
23  24  8
4  16  8
4  6  8
6  21  8

$$$$
