44325025
  -OEChem-09292322222D

 69 72  0     1  0  0  0  0  0999 V2000
    7.1962   -1.5000    0.0000 O   0  0  0  0  0  0  0  0  0  0  0  0
   12.3923   -0.5000    0.0000 N   0  0  3  0  0  0  0  0  0  0  0  0
   15.8843    1.5347    0.0000 N   0  0  0  0  0  0  0  0  0  0  0  0
   16.7904   -0.0208    0.0000 N   0  0  0  0  0  0  0  0  0  0  0  0
    8.0622   -0.0000    0.0000 N   0  0  0  0  0  0  0  0  0  0  0  0
   17.6545    1.5241    0.0000 N   0  0  0  0  0  0  0  0  0  0  0  0
   13.2583   -0.0000    0.0000 C   0  0  3  0  0  0  0  0  0  0  0  0
   13.2583    1.0000    0.0000 C   0  0  0  0  0  0  0  0  0  0  0  0
   14.1244   -0.5000    0.0000 C   0  0  0  0  0  0  0  0  0  0  0  0
   14.1244    1.5000    0.0000 C   0  0  0  0  0  0  0  0  0  0  0  0
   11.5263   -0.0000    0.0000 C   0  0  0  0  0  0  0  0  0  0  0  0
   14.9904   -0.0000    0.0000 C   0  0  0  0  0  0  0  0  0  0  0  0
   12.3923   -1.5000    0.0000 C   0  0  0  0  0  0  0  0  0  0  0  0
   14.9904    1.0000    0.0000 C   0  0  0  0  0  0  0  0  0  0  0  0
   10.6603   -0.5000    0.0000 C   0  0  0  0  0  0  0  0  0  0  0  0
   11.5263   -2.0000    0.0000 C   0  0  0  0  0  0  0  0  0  0  0  0
    9.7942   -0.0000    0.0000 C   0  0  0  0  0  0  0  0  0  0  0  0
   15.8843   -0.5347    0.0000 C   0  0  0  0  0  0  0  0  0  0  0  0
   11.5263   -3.0000    0.0000 C   0  0  0  0  0  0  0  0  0  0  0  0
    8.9282   -0.5000    0.0000 C   0  0  0  0  0  0  0  0  0  0  0  0
   16.7904    1.0208    0.0000 C   0  0  0  0  0  0  0  0  0  0  0  0
    7.1962   -0.5000    0.0000 C   0  0  0  0  0  0  0  0  0  0  0  0
    6.3301    0.0000    0.0000 C   0  0  0  0  0  0  0  0  0  0  0  0
    5.4641   -0.5000    0.0000 C   0  0  0  0  0  0  0  0  0  0  0  0
    6.3301    1.0000    0.0000 C   0  0  0  0  0  0  0  0  0  0  0  0
    4.5981    1.0000    0.0000 C   0  0  0  0  0  0  0  0  0  0  0  0
    4.5981    0.0000    0.0000 C   0  0  0  0  0  0  0  0  0  0  0  0
    5.4641    1.5000    0.0000 C   0  0  0  0  0  0  0  0  0  0  0  0
    3.7320    1.5000    0.0000 C   0  0  0  0  0  0  0  0  0  0  0  0
    2.8660    1.0000    0.0000 C   0  0  0  0  0  0  0  0  0  0  0  0
    3.7320    2.5000    0.0000 C   0  0  0  0  0  0  0  0  0  0  0  0
    2.0000    1.5000    0.0000 C   0  0  0  0  0  0  0  0  0  0  0  0
    2.8660    3.0000    0.0000 C   0  0  0  0  0  0  0  0  0  0  0  0
    2.0000    2.5000    0.0000 C   0  0  0  0  0  0  0  0  0  0  0  0
   13.2583   -0.6200    0.0000 H   0  0  0  0  0  0  0  0  0  0  0  0
   13.0463    1.5826    0.0000 H   0  0  0  0  0  0  0  0  0  0  0  0
   12.6477    0.8923    0.0000 H   0  0  0  0  0  0  0  0  0  0  0  0
   13.7258   -0.9749    0.0000 H   0  0  0  0  0  0  0  0  0  0  0  0
   14.5229   -0.9749    0.0000 H   0  0  0  0  0  0  0  0  0  0  0  0
   14.5229    1.9750    0.0000 H   0  0  0  0  0  0  0  0  0  0  0  0
   13.7258    1.9750    0.0000 H   0  0  0  0  0  0  0  0  0  0  0  0
   11.9248    0.4749    0.0000 H   0  0  0  0  0  0  0  0  0  0  0  0
   11.1278    0.4749    0.0000 H   0  0  0  0  0  0  0  0  0  0  0  0
   12.6044   -2.0826    0.0000 H   0  0  0  0  0  0  0  0  0  0  0  0
   13.0029   -1.3923    0.0000 H   0  0  0  0  0  0  0  0  0  0  0  0
   10.2617   -0.9749    0.0000 H   0  0  0  0  0  0  0  0  0  0  0  0
   11.0588   -0.9749    0.0000 H   0  0  0  0  0  0  0  0  0  0  0  0
   11.3142   -1.4174    0.0000 H   0  0  0  0  0  0  0  0  0  0  0  0
   10.9157   -2.1077    0.0000 H   0  0  0  0  0  0  0  0  0  0  0  0
   10.1928    0.4749    0.0000 H   0  0  0  0  0  0  0  0  0  0  0  0
    9.3957    0.4749    0.0000 H   0  0  0  0  0  0  0  0  0  0  0  0
   15.8772   -1.1546    0.0000 H   0  0  0  0  0  0  0  0  0  0  0  0
   10.9063   -3.0000    0.0000 H   0  0  0  0  0  0  0  0  0  0  0  0
   11.5263   -3.6200    0.0000 H   0  0  0  0  0  0  0  0  0  0  0  0
   12.1463   -3.0000    0.0000 H   0  0  0  0  0  0  0  0  0  0  0  0
    8.5297   -0.9749    0.0000 H   0  0  0  0  0  0  0  0  0  0  0  0
    9.3267   -0.9749    0.0000 H   0  0  0  0  0  0  0  0  0  0  0  0
    8.0622    0.6200    0.0000 H   0  0  0  0  0  0  0  0  0  0  0  0
   18.1926    1.2162    0.0000 H   0  0  0  0  0  0  0  0  0  0  0  0
   17.6521    2.1441    0.0000 H   0  0  0  0  0  0  0  0  0  0  0  0
    5.4641   -1.1200    0.0000 H   0  0  0  0  0  0  0  0  0  0  0  0
    6.8671    1.3100    0.0000 H   0  0  0  0  0  0  0  0  0  0  0  0
    4.0611   -0.3100    0.0000 H   0  0  0  0  0  0  0  0  0  0  0  0
    5.4641    2.1200    0.0000 H   0  0  0  0  0  0  0  0  0  0  0  0
    2.8660    0.3800    0.0000 H   0  0  0  0  0  0  0  0  0  0  0  0
    4.2690    2.8100    0.0000 H   0  0  0  0  0  0  0  0  0  0  0  0
    1.4631    1.1900    0.0000 H   0  0  0  0  0  0  0  0  0  0  0  0
    2.8660    3.6200    0.0000 H   0  0  0  0  0  0  0  0  0  0  0  0
    1.4631    2.8100    0.0000 H   0  0  0  0  0  0  0  0  0  0  0  0
  1 22  2  0  0  0  0
  2  7  1  0  0  0  0
  2 11  1  0  0  0  0
  2 13  1  0  0  0  0
  3 14  2  0  0  0  0
  3 21  1  0  0  0  0
  4 18  1  0  0  0  0
  4 21  2  0  0  0  0
  5 20  1  0  0  0  0
  5 22  1  0  0  0  0
  5 58  1  0  0  0  0
  6 21  1  0  0  0  0
  6 59  1  0  0  0  0
  6 60  1  0  0  0  0
  7  8  1  0  0  0  0
  7  9  1  0  0  0  0
  7 35  1  0  0  0  0
  8 10  1  0  0  0  0
  8 36  1  0  0  0  0
  8 37  1  0  0  0  0
  9 12  1  0  0  0  0
  9 38  1  0  0  0  0
  9 39  1  0  0  0  0
 10 14  1  0  0  0  0
 10 40  1  0  0  0  0
 10 41  1  0  0  0  0
 11 15  1  0  0  0  0
 11 42  1  0  0  0  0
 11 43  1  0  0  0  0
 12 14  1  0  0  0  0
 12 18  2  0  0  0  0
 13 16  1  0  0  0  0
 13 44  1  0  0  0  0
 13 45  1  0  0  0  0
 15 17  1  0  0  0  0
 15 46  1  0  0  0  0
 15 47  1  0  0  0  0
 16 19  1  0  0  0  0
 16 48  1  0  0  0  0
 16 49  1  0  0  0  0
 17 20  1  0  0  0  0
 17 50  1  0  0  0  0
 17 51  1  0  0  0  0
 18 52  1  0  0  0  0
 19 53  1  0  0  0  0
 19 54  1  0  0  0  0
 19 55  1  0  0  0  0
 20 56  1  0  0  0  0
 20 57  1  0  0  0  0
 22 23  1  0  0  0  0
 23 24  2  0  0  0  0
 23 25  1  0  0  0  0
 24 27  1  0  0  0  0
 24 61  1  0  0  0  0
 25 28  2  0  0  0  0
 25 62  1  0  0  0  0
 26 27  2  0  0  0  0
 26 28  1  0  0  0  0
 26 29  1  0  0  0  0
 27 63  1  0  0  0  0
 28 64  1  0  0  0  0
 29 30  2  0  0  0  0
 29 31  1  0  0  0  0
 30 32  1  0  0  0  0
 30 65  1  0  0  0  0
 31 33  2  0  0  0  0
 31 66  1  0  0  0  0
 32 34  2  0  0  0  0
 32 67  1  0  0  0  0
 33 34  1  0  0  0  0
 33 68  1  0  0  0  0
 34 69  1  0  0  0  0
M  END
> <PUBCHEM_COMPOUND_CID>
44325025

> <PUBCHEM_COMPOUND_CANONICALIZED>
1

> <PUBCHEM_CACTVS_COMPLEXITY>
602

> <PUBCHEM_CACTVS_HBOND_ACCEPTOR>
5

> <PUBCHEM_CACTVS_HBOND_DONOR>
2

> <PUBCHEM_CACTVS_ROTATABLE_BOND>
10

> <PUBCHEM_CACTVS_SUBSKEYS>
AAADcfB7oAAAAAAAAAAAAAAAAAAAAAAAAAA8YMEAAAAAAACx0AAAHgAQAAAADCjBngQ/kJfIEACoAzV3dACCgCk1AKAJ2KE4RNiIKLLA3dGEJQholgLIyacYiMCOwAAAAAAAAACAAQCAAAQAAAAAAAAAAA==

> <PUBCHEM_IUPAC_OPENEYE_NAME>
N-[4-[(2-amino-5,6,7,8-tetrahydroquinazolin-6-yl)-propyl-amino]butyl]-4-phenyl-benzamide

> <PUBCHEM_IUPAC_CAS_NAME>
N-[4-[(2-amino-5,6,7,8-tetrahydroquinazolin-6-yl)-propylamino]butyl]-4-phenylbenzamide

> <PUBCHEM_IUPAC_NAME_MARKUP>
<I>N</I>-[4-[(2-amino-5,6,7,8-tetrahydroquinazolin-6-yl)-propylamino]butyl]-4-phenylbenzamide

> <PUBCHEM_IUPAC_NAME>
N-[4-[(2-amino-5,6,7,8-tetrahydroquinazolin-6-yl)-propylamino]butyl]-4-phenylbenzamide

> <PUBCHEM_IUPAC_SYSTEMATIC_NAME>
N-[4-[(2-azanyl-5,6,7,8-tetrahydroquinazolin-6-yl)-propyl-amino]butyl]-4-phenyl-benzamide

> <PUBCHEM_IUPAC_TRADITIONAL_NAME>
N-[4-[(2-amino-5,6,7,8-tetrahydroquinazolin-6-yl)-propyl-amino]butyl]-4-phenyl-benzamide

> <PUBCHEM_IUPAC_INCHI>
InChI=1S/C28H35N5O/c1-2-17-33(25-14-15-26-24(19-25)20-31-28(29)32-26)18-7-6-16-30-27(34)23-12-10-22(11-13-23)21-8-4-3-5-9-21/h3-5,8-13,20,25H,2,6-7,14-19H2,1H3,(H,30,34)(H2,29,31,32)

> <PUBCHEM_IUPAC_INCHIKEY>
KGMVEMHKBMNSJG-UHFFFAOYSA-N

> <PUBCHEM_XLOGP3_AA>
4.9

> <PUBCHEM_EXACT_MASS>
457.28416076

> <PUBCHEM_MOLECULAR_FORMULA>
C28H35N5O

> <PUBCHEM_MOLECULAR_WEIGHT>
457.6

> <PUBCHEM_OPENEYE_CAN_SMILES>
CCCN(CCCCNC(=O)C1=CC=C(C=C1)C2=CC=CC=C2)C3CCC4=NC(=NC=C4C3)N

> <PUBCHEM_OPENEYE_ISO_SMILES>
CCCN(CCCCNC(=O)C1=CC=C(C=C1)C2=CC=CC=C2)C3CCC4=NC(=NC=C4C3)N

> <PUBCHEM_CACTVS_TPSA>
84.1

> <PUBCHEM_MONOISOTOPIC_WEIGHT>
457.28416076

> <PUBCHEM_TOTAL_CHARGE>
0

> <PUBCHEM_HEAVY_ATOM_COUNT>
34

> <PUBCHEM_ATOM_DEF_STEREO_COUNT>
0

> <PUBCHEM_ATOM_UDEF_STEREO_COUNT>
1

> <PUBCHEM_BOND_DEF_STEREO_COUNT>
0

> <PUBCHEM_BOND_UDEF_STEREO_COUNT>
0

> <PUBCHEM_ISOTOPIC_ATOM_COUNT>
0

> <PUBCHEM_COMPONENT_COUNT>
1

> <PUBCHEM_CACTVS_TAUTO_COUNT>
-1

> <PUBCHEM_COORDINATE_TYPE>
1
5
255

> <PUBCHEM_BONDANNOTATIONS>
12  14  8
12  18  8
7  2  3
23  24  8
23  25  8
24  27  8
25  28  8
26  27  8
26  28  8
29  30  8
29  31  8
3  14  8
3  21  8
30  32  8
31  33  8
32  34  8
33  34  8
4  18  8
4  21  8

$$$$
