10317514
  -OEChem-09292322212D

 54 57  0     0  0  0  0  0  0999 V2000
    9.7884    0.0013    0.0000 O   0  0  0  0  0  0  0  0  0  0  0  0
   13.3185    0.0254    0.0000 O   0  0  0  0  0  0  0  0  0  0  0  0
   15.0506    0.0254    0.0000 O   0  0  0  0  0  0  0  0  0  0  0  0
    6.3243   -0.0121    0.0000 N   0  0  0  0  0  0  0  0  0  0  0  0
    4.5961   -1.0188    0.0000 N   0  0  0  0  0  0  0  0  0  0  0  0
    6.3282   -1.0121    0.0000 C   0  0  0  0  0  0  0  0  0  0  0  0
    5.4564    0.4846    0.0000 C   0  0  0  0  0  0  0  0  0  0  0  0
    5.4641   -1.5154    0.0000 C   0  0  0  0  0  0  0  0  0  0  0  0
    4.5923   -0.0188    0.0000 C   0  0  0  0  0  0  0  0  0  0  0  0
    7.1884    0.4912    0.0000 C   0  0  0  0  0  0  0  0  0  0  0  0
    8.0564   -0.0054    0.0000 C   0  0  0  0  0  0  0  0  0  0  0  0
    3.7320   -1.5221    0.0000 C   0  0  0  0  0  0  0  0  0  0  0  0
    8.9204    0.4979    0.0000 C   0  0  0  0  0  0  0  0  0  0  0  0
    2.8641   -1.0254    0.0000 C   0  0  0  0  0  0  0  0  0  0  0  0
    3.7359   -2.5221    0.0000 C   0  0  0  0  0  0  0  0  0  0  0  0
    2.0000   -1.5288    0.0000 C   0  0  0  0  0  0  0  0  0  0  0  0
    2.8718   -3.0254    0.0000 C   0  0  0  0  0  0  0  0  0  0  0  0
   10.6525    0.5046    0.0000 C   0  0  0  0  0  0  0  0  0  0  0  0
    2.0038   -2.5288    0.0000 C   0  0  0  0  0  0  0  0  0  0  0  0
   11.5585   -0.0092    0.0000 C   0  0  0  0  0  0  0  0  0  0  0  0
   12.4525    1.5254    0.0000 C   0  0  0  0  0  0  0  0  0  0  0  0
   12.4525    0.5254    0.0000 C   0  0  0  0  0  0  0  0  0  0  0  0
   10.6525    1.5462    0.0000 C   0  0  0  0  0  0  0  0  0  0  0  0
   11.5585    2.0601    0.0000 C   0  0  0  0  0  0  0  0  0  0  0  0
   13.3185    2.0254    0.0000 C   0  0  0  0  0  0  0  0  0  0  0  0
   14.1845    1.5254    0.0000 C   0  0  0  0  0  0  0  0  0  0  0  0
   13.3185    3.0254    0.0000 C   0  0  0  0  0  0  0  0  0  0  0  0
   14.1845    0.5254    0.0000 C   0  0  0  0  0  0  0  0  0  0  0  0
    6.5425   -1.5939    0.0000 H   0  0  0  0  0  0  0  0  0  0  0  0
    6.9383   -0.9021    0.0000 H   0  0  0  0  0  0  0  0  0  0  0  0
    5.8531    0.9611    0.0000 H   0  0  0  0  0  0  0  0  0  0  0  0
    5.0560    0.9580    0.0000 H   0  0  0  0  0  0  0  0  0  0  0  0
    5.0674   -1.9919    0.0000 H   0  0  0  0  0  0  0  0  0  0  0  0
    5.8644   -1.9888    0.0000 H   0  0  0  0  0  0  0  0  0  0  0  0
    4.3780    0.5630    0.0000 H   0  0  0  0  0  0  0  0  0  0  0  0
    3.9821   -0.1288    0.0000 H   0  0  0  0  0  0  0  0  0  0  0  0
    7.5851    0.9677    0.0000 H   0  0  0  0  0  0  0  0  0  0  0  0
    6.7880    0.9647    0.0000 H   0  0  0  0  0  0  0  0  0  0  0  0
    7.6597   -0.4819    0.0000 H   0  0  0  0  0  0  0  0  0  0  0  0
    8.4567   -0.4788    0.0000 H   0  0  0  0  0  0  0  0  0  0  0  0
    9.3171    0.9744    0.0000 H   0  0  0  0  0  0  0  0  0  0  0  0
    8.5201    0.9713    0.0000 H   0  0  0  0  0  0  0  0  0  0  0  0
    2.8617   -0.4054    0.0000 H   0  0  0  0  0  0  0  0  0  0  0  0
    4.2740   -2.8300    0.0000 H   0  0  0  0  0  0  0  0  0  0  0  0
    1.4619   -1.2208    0.0000 H   0  0  0  0  0  0  0  0  0  0  0  0
    2.8742   -3.6454    0.0000 H   0  0  0  0  0  0  0  0  0  0  0  0
    1.4681   -2.8408    0.0000 H   0  0  0  0  0  0  0  0  0  0  0  0
   11.5657   -0.6292    0.0000 H   0  0  0  0  0  0  0  0  0  0  0  0
   10.1167    1.8583    0.0000 H   0  0  0  0  0  0  0  0  0  0  0  0
   11.5657    2.6800    0.0000 H   0  0  0  0  0  0  0  0  0  0  0  0
   14.7215    1.8354    0.0000 H   0  0  0  0  0  0  0  0  0  0  0  0
   13.9385    3.0254    0.0000 H   0  0  0  0  0  0  0  0  0  0  0  0
   13.3185    3.6454    0.0000 H   0  0  0  0  0  0  0  0  0  0  0  0
   12.6985    3.0254    0.0000 H   0  0  0  0  0  0  0  0  0  0  0  0
  1 13  1  0  0  0  0
  1 18  1  0  0  0  0
  2 22  1  0  0  0  0
  2 28  1  0  0  0  0
  3 28  2  0  0  0  0
  4  6  1  0  0  0  0
  4  7  1  0  0  0  0
  4 10  1  0  0  0  0
  5  8  1  0  0  0  0
  5  9  1  0  0  0  0
  5 12  1  0  0  0  0
  6  8  1  0  0  0  0
  6 29  1  0  0  0  0
  6 30  1  0  0  0  0
  7  9  1  0  0  0  0
  7 31  1  0  0  0  0
  7 32  1  0  0  0  0
  8 33  1  0  0  0  0
  8 34  1  0  0  0  0
  9 35  1  0  0  0  0
  9 36  1  0  0  0  0
 10 11  1  0  0  0  0
 10 37  1  0  0  0  0
 10 38  1  0  0  0  0
 11 13  1  0  0  0  0
 11 39  1  0  0  0  0
 11 40  1  0  0  0  0
 12 14  2  0  0  0  0
 12 15  1  0  0  0  0
 13 41  1  0  0  0  0
 13 42  1  0  0  0  0
 14 16  1  0  0  0  0
 14 43  1  0  0  0  0
 15 17  2  0  0  0  0
 15 44  1  0  0  0  0
 16 19  2  0  0  0  0
 16 45  1  0  0  0  0
 17 19  1  0  0  0  0
 17 46  1  0  0  0  0
 18 20  2  0  0  0  0
 18 23  1  0  0  0  0
 19 47  1  0  0  0  0
 20 22  1  0  0  0  0
 20 48  1  0  0  0  0
 21 22  2  0  0  0  0
 21 24  1  0  0  0  0
 21 25  1  0  0  0  0
 23 24  2  0  0  0  0
 23 49  1  0  0  0  0
 24 50  1  0  0  0  0
 25 26  2  0  0  0  0
 25 27  1  0  0  0  0
 26 28  1  0  0  0  0
 26 51  1  0  0  0  0
 27 52  1  0  0  0  0
 27 53  1  0  0  0  0
 27 54  1  0  0  0  0
M  END
> <PUBCHEM_COMPOUND_CID>
10317514

> <PUBCHEM_COMPOUND_CANONICALIZED>
1

> <PUBCHEM_CACTVS_COMPLEXITY>
550

> <PUBCHEM_CACTVS_HBOND_ACCEPTOR>
5

> <PUBCHEM_CACTVS_HBOND_DONOR>
0

> <PUBCHEM_CACTVS_ROTATABLE_BOND>
6

> <PUBCHEM_CACTVS_SUBSKEYS>
AAADceB7MAAAAAAAAAAAAAAAAAAAAAAAAAA8YIEAAAAAAACBQAAAHgAAAAAADAzhmAYyzoMABACIAiTSSACCCAAhIgAIiAAObMgMZyLEsZuWOijnwBXI6QeQ4KwOIAAACAAIAABAAAAQABAAAAAAAAAAAA==

> <PUBCHEM_IUPAC_OPENEYE_NAME>
4-methyl-7-[3-(4-phenylpiperazin-1-yl)propoxy]chromen-2-one

> <PUBCHEM_IUPAC_CAS_NAME>
4-methyl-7-[3-(4-phenyl-1-piperazinyl)propoxy]-1-benzopyran-2-one

> <PUBCHEM_IUPAC_NAME_MARKUP>
4-methyl-7-[3-(4-phenylpiperazin-1-yl)propoxy]chromen-2-one

> <PUBCHEM_IUPAC_NAME>
4-methyl-7-[3-(4-phenylpiperazin-1-yl)propoxy]chromen-2-one

> <PUBCHEM_IUPAC_SYSTEMATIC_NAME>
4-methyl-7-[3-(4-phenylpiperazin-1-yl)propoxy]chromen-2-one

> <PUBCHEM_IUPAC_TRADITIONAL_NAME>
4-methyl-7-[3-(4-phenylpiperazino)propoxy]coumarin

> <PUBCHEM_IUPAC_INCHI>
InChI=1S/C23H26N2O3/c1-18-16-23(26)28-22-17-20(8-9-21(18)22)27-15-5-10-24-11-13-25(14-12-24)19-6-3-2-4-7-19/h2-4,6-9,16-17H,5,10-15H2,1H3

> <PUBCHEM_IUPAC_INCHIKEY>
ZYBLSQVXWVJACW-UHFFFAOYSA-N

> <PUBCHEM_XLOGP3>
4.2

> <PUBCHEM_EXACT_MASS>
378.19434270

> <PUBCHEM_MOLECULAR_FORMULA>
C23H26N2O3

> <PUBCHEM_MOLECULAR_WEIGHT>
378.5

> <PUBCHEM_OPENEYE_CAN_SMILES>
CC1=CC(=O)OC2=C1C=CC(=C2)OCCCN3CCN(CC3)C4=CC=CC=C4

> <PUBCHEM_OPENEYE_ISO_SMILES>
CC1=CC(=O)OC2=C1C=CC(=C2)OCCCN3CCN(CC3)C4=CC=CC=C4

> <PUBCHEM_CACTVS_TPSA>
42

> <PUBCHEM_MONOISOTOPIC_WEIGHT>
378.19434270

> <PUBCHEM_TOTAL_CHARGE>
0

> <PUBCHEM_HEAVY_ATOM_COUNT>
28

> <PUBCHEM_ATOM_DEF_STEREO_COUNT>
0

> <PUBCHEM_ATOM_UDEF_STEREO_COUNT>
0

> <PUBCHEM_BOND_DEF_STEREO_COUNT>
0

> <PUBCHEM_BOND_UDEF_STEREO_COUNT>
0

> <PUBCHEM_ISOTOPIC_ATOM_COUNT>
0

> <PUBCHEM_COMPONENT_COUNT>
1

> <PUBCHEM_CACTVS_TAUTO_COUNT>
-1

> <PUBCHEM_COORDINATE_TYPE>
1
5
255

> <PUBCHEM_BONDANNOTATIONS>
12  14  8
12  15  8
14  16  8
15  17  8
16  19  8
17  19  8
18  20  8
18  23  8
2  22  8
2  28  8
20  22  8
21  22  8
21  24  8
21  25  8
23  24  8
25  26  8
26  28  8

$$$$
