44438206
  -OEChem-09292322262D

 46 49  0     0  0  0  0  0  0999 V2000
    8.8750   -0.0657    0.0000 O   0  0  0  0  0  0  0  0  0  0  0  0
   10.9017    2.9163    0.0000 O   0  0  0  0  0  0  0  0  0  0  0  0
    5.9674   -0.1675    0.0000 N   0  0  0  0  0  0  0  0  0  0  0  0
    4.6783   -2.9337    0.0000 N   0  0  0  0  0  0  0  0  0  0  0  0
    7.9244    0.2450    0.0000 C   0  0  0  0  0  0  0  0  0  0  0  0
    7.6138   -0.7056    0.0000 C   0  0  0  0  0  0  0  0  0  0  0  0
    7.2566    0.9893    0.0000 C   0  0  0  0  0  0  0  0  0  0  0  0
    6.6353   -0.9118    0.0000 C   0  0  0  0  0  0  0  0  0  0  0  0
    6.2781    0.7830    0.0000 C   0  0  0  0  0  0  0  0  0  0  0  0
    8.6688    0.9128    0.0000 C   0  0  0  0  0  0  0  0  0  0  0  0
    4.9889   -0.3737    0.0000 C   0  0  0  0  0  0  0  0  0  0  0  0
    4.6783   -1.3242    0.0000 C   0  0  0  0  0  0  0  0  0  0  0  0
    8.4625    1.8913    0.0000 C   0  0  0  0  0  0  0  0  0  0  0  0
    9.6193    0.6021    0.0000 C   0  0  0  0  0  0  0  0  0  0  0  0
    3.7320   -1.6289    0.0000 C   0  0  0  0  0  0  0  0  0  0  0  0
    5.2619   -2.1290    0.0000 C   0  0  0  0  0  0  0  0  0  0  0  0
    3.7320   -2.6290    0.0000 C   0  0  0  0  0  0  0  0  0  0  0  0
    9.2068    2.5591    0.0000 C   0  0  0  0  0  0  0  0  0  0  0  0
   10.3636    1.2700    0.0000 C   0  0  0  0  0  0  0  0  0  0  0  0
    2.8660   -1.1289    0.0000 C   0  0  0  0  0  0  0  0  0  0  0  0
   10.1574    2.2485    0.0000 C   0  0  0  0  0  0  0  0  0  0  0  0
    2.8660   -3.1290    0.0000 C   0  0  0  0  0  0  0  0  0  0  0  0
    2.0000   -1.6289    0.0000 C   0  0  0  0  0  0  0  0  0  0  0  0
    2.0000   -2.6290    0.0000 C   0  0  0  0  0  0  0  0  0  0  0  0
    7.6344   -1.3252    0.0000 H   0  0  0  0  0  0  0  0  0  0  0  0
    8.2276   -0.7929    0.0000 H   0  0  0  0  0  0  0  0  0  0  0  0
    7.7830    1.3169    0.0000 H   0  0  0  0  0  0  0  0  0  0  0  0
    7.0254    1.5645    0.0000 H   0  0  0  0  0  0  0  0  0  0  0  0
    6.1089   -1.2394    0.0000 H   0  0  0  0  0  0  0  0  0  0  0  0
    6.8665   -1.4870    0.0000 H   0  0  0  0  0  0  0  0  0  0  0  0
    6.2575    1.4027    0.0000 H   0  0  0  0  0  0  0  0  0  0  0  0
    5.6643    0.8704    0.0000 H   0  0  0  0  0  0  0  0  0  0  0  0
    4.9684    0.2460    0.0000 H   0  0  0  0  0  0  0  0  0  0  0  0
    4.3751   -0.2863    0.0000 H   0  0  0  0  0  0  0  0  0  0  0  0
    9.0028   -0.6724    0.0000 H   0  0  0  0  0  0  0  0  0  0  0  0
    7.8732    2.0839    0.0000 H   0  0  0  0  0  0  0  0  0  0  0  0
    9.7471   -0.0045    0.0000 H   0  0  0  0  0  0  0  0  0  0  0  0
    5.8819   -2.1290    0.0000 H   0  0  0  0  0  0  0  0  0  0  0  0
    4.8709   -3.5230    0.0000 H   0  0  0  0  0  0  0  0  0  0  0  0
    9.0790    3.1658    0.0000 H   0  0  0  0  0  0  0  0  0  0  0  0
   10.9529    1.0774    0.0000 H   0  0  0  0  0  0  0  0  0  0  0  0
    2.8660   -0.5090    0.0000 H   0  0  0  0  0  0  0  0  0  0  0  0
    2.8660   -3.7490    0.0000 H   0  0  0  0  0  0  0  0  0  0  0  0
    1.4631   -1.3190    0.0000 H   0  0  0  0  0  0  0  0  0  0  0  0
    1.4631   -2.9390    0.0000 H   0  0  0  0  0  0  0  0  0  0  0  0
   10.7738    3.5230    0.0000 H   0  0  0  0  0  0  0  0  0  0  0  0
  1  5  1  0  0  0  0
  1 35  1  0  0  0  0
  2 21  1  0  0  0  0
  2 46  1  0  0  0  0
  3  8  1  0  0  0  0
  3  9  1  0  0  0  0
  3 11  1  0  0  0  0
  4 16  1  0  0  0  0
  4 17  1  0  0  0  0
  4 39  1  0  0  0  0
  5  6  1  0  0  0  0
  5  7  1  0  0  0  0
  5 10  1  0  0  0  0
  6  8  1  0  0  0  0
  6 25  1  0  0  0  0
  6 26  1  0  0  0  0
  7  9  1  0  0  0  0
  7 27  1  0  0  0  0
  7 28  1  0  0  0  0
  8 29  1  0  0  0  0
  8 30  1  0  0  0  0
  9 31  1  0  0  0  0
  9 32  1  0  0  0  0
 10 13  2  0  0  0  0
 10 14  1  0  0  0  0
 11 12  1  0  0  0  0
 11 33  1  0  0  0  0
 11 34  1  0  0  0  0
 12 15  1  0  0  0  0
 12 16  2  0  0  0  0
 13 18  1  0  0  0  0
 13 36  1  0  0  0  0
 14 19  2  0  0  0  0
 14 37  1  0  0  0  0
 15 17  1  0  0  0  0
 15 20  2  0  0  0  0
 16 38  1  0  0  0  0
 17 22  2  0  0  0  0
 18 21  2  0  0  0  0
 18 40  1  0  0  0  0
 19 21  1  0  0  0  0
 19 41  1  0  0  0  0
 20 23  1  0  0  0  0
 20 42  1  0  0  0  0
 22 24  1  0  0  0  0
 22 43  1  0  0  0  0
 23 24  2  0  0  0  0
 23 44  1  0  0  0  0
 24 45  1  0  0  0  0
M  END
> <PUBCHEM_COMPOUND_CID>
44438206

> <PUBCHEM_COMPOUND_CANONICALIZED>
1

> <PUBCHEM_CACTVS_COMPLEXITY>
414

> <PUBCHEM_CACTVS_HBOND_ACCEPTOR>
3

> <PUBCHEM_CACTVS_HBOND_DONOR>
3

> <PUBCHEM_CACTVS_ROTATABLE_BOND>
3

> <PUBCHEM_CACTVS_SUBSKEYS>
AAADceB7MAAAAAAAAAAAAAAAAAAAAWAAAAA8YIAAAAAAAFgB9AAAHgAQCAAADEzBngQ8xvPJkgCgAzRnRACCgCAxIiAI2aA+bJgIJuLC0ZOEcAhm0BHI2AeQ4PQOoAAAAAACAABAAAAAAAQAAAAAAAAAAA==

> <PUBCHEM_IUPAC_OPENEYE_NAME>
4-(4-hydroxyphenyl)-1-(1H-indol-3-ylmethyl)piperidin-4-ol

> <PUBCHEM_IUPAC_CAS_NAME>
4-(4-hydroxyphenyl)-1-(1H-indol-3-ylmethyl)-4-piperidinol

> <PUBCHEM_IUPAC_NAME_MARKUP>
4-(4-hydroxyphenyl)-1-(1<I>H</I>-indol-3-ylmethyl)piperidin-4-ol

> <PUBCHEM_IUPAC_NAME>
4-(4-hydroxyphenyl)-1-(1H-indol-3-ylmethyl)piperidin-4-ol

> <PUBCHEM_IUPAC_SYSTEMATIC_NAME>
4-(4-hydroxyphenyl)-1-(1H-indol-3-ylmethyl)piperidin-4-ol

> <PUBCHEM_IUPAC_TRADITIONAL_NAME>
4-(4-hydroxyphenyl)-1-(1H-indol-3-ylmethyl)piperidin-4-ol

> <PUBCHEM_IUPAC_INCHI>
InChI=1S/C20H22N2O2/c23-17-7-5-16(6-8-17)20(24)9-11-22(12-10-20)14-15-13-21-19-4-2-1-3-18(15)19/h1-8,13,21,23-24H,9-12,14H2

> <PUBCHEM_IUPAC_INCHIKEY>
RLEVEXRYULMVDM-UHFFFAOYSA-N

> <PUBCHEM_XLOGP3_AA>
2.7

> <PUBCHEM_EXACT_MASS>
322.168127949

> <PUBCHEM_MOLECULAR_FORMULA>
C20H22N2O2

> <PUBCHEM_MOLECULAR_WEIGHT>
322.4

> <PUBCHEM_OPENEYE_CAN_SMILES>
C1CN(CCC1(C2=CC=C(C=C2)O)O)CC3=CNC4=CC=CC=C43

> <PUBCHEM_OPENEYE_ISO_SMILES>
C1CN(CCC1(C2=CC=C(C=C2)O)O)CC3=CNC4=CC=CC=C43

> <PUBCHEM_CACTVS_TPSA>
59.5

> <PUBCHEM_MONOISOTOPIC_WEIGHT>
322.168127949

> <PUBCHEM_TOTAL_CHARGE>
0

> <PUBCHEM_HEAVY_ATOM_COUNT>
24

> <PUBCHEM_ATOM_DEF_STEREO_COUNT>
0

> <PUBCHEM_ATOM_UDEF_STEREO_COUNT>
0

> <PUBCHEM_BOND_DEF_STEREO_COUNT>
0

> <PUBCHEM_BOND_UDEF_STEREO_COUNT>
0

> <PUBCHEM_ISOTOPIC_ATOM_COUNT>
0

> <PUBCHEM_COMPONENT_COUNT>
1

> <PUBCHEM_CACTVS_TAUTO_COUNT>
-1

> <PUBCHEM_COORDINATE_TYPE>
1
5
255

> <PUBCHEM_BONDANNOTATIONS>
10  13  8
10  14  8
12  15  8
12  16  8
13  18  8
14  19  8
15  17  8
15  20  8
17  22  8
18  21  8
19  21  8
20  23  8
22  24  8
23  24  8
4  16  8
4  17  8

$$$$
