53248395
  -OEChem-09292322312D

 67 71  0     1  0  0  0  0  0999 V2000
   15.5454    1.3225    0.0000 Cl  0  0  0  0  0  0  0  0  0  0  0  0
   17.5001    1.7459    0.0000 Cl  0  0  0  0  0  0  0  0  0  0  0  0
   11.6361    0.4758    0.0000 F   0  0  0  0  0  0  0  0  0  0  0  0
   12.9800   -1.0053    0.0000 N   0  0  0  0  0  0  0  0  0  0  0  0
   14.9347   -0.5820    0.0000 N   0  0  0  0  0  0  0  0  0  0  0  0
    8.7040   -0.1592    0.0000 N   0  0  3  0  0  0  0  0  0  0  0  0
   13.2854   -0.0531    0.0000 C   0  0  0  0  0  0  0  0  0  0  0  0
   13.6520   -1.7459    0.0000 C   0  0  0  0  0  0  0  0  0  0  0  0
   12.0027   -1.2170    0.0000 C   0  0  0  0  0  0  0  0  0  0  0  0
   14.2627    0.1586    0.0000 C   0  0  0  0  0  0  0  0  0  0  0  0
   14.6294   -1.5342    0.0000 C   0  0  0  0  0  0  0  0  0  0  0  0
   11.3307   -0.4764    0.0000 C   0  0  3  0  0  0  0  0  0  0  0  0
   10.3534   -0.6881    0.0000 C   0  0  0  0  0  0  0  0  0  0  0  0
    9.6814    0.0524    0.0000 C   0  0  0  0  0  0  0  0  0  0  0  0
   15.9121   -0.3703    0.0000 C   0  0  0  0  0  0  0  0  0  0  0  0
    8.0321    0.5813    0.0000 C   0  0  0  0  0  0  0  0  0  0  0  0
    5.3364    0.9061    0.0000 C   0  0  0  0  0  0  0  0  0  0  0  0
    7.0547    0.3696    0.0000 C   0  0  0  0  0  0  0  0  0  0  0  0
    5.0274   -0.0450    0.0000 C   0  0  0  0  0  0  0  0  0  0  0  0
    4.5274    1.4939    0.0000 C   0  0  0  0  0  0  0  0  0  0  0  0
    4.0274   -0.0450    0.0000 C   0  0  0  0  0  0  0  0  0  0  0  0
    3.7183    0.9061    0.0000 C   0  0  0  0  0  0  0  0  0  0  0  0
    6.3518    1.1383    0.0000 C   0  0  0  0  0  0  0  0  0  0  0  0
   16.2174    0.5820    0.0000 C   0  0  0  0  0  0  0  0  0  0  0  0
   16.5841   -1.1108    0.0000 C   0  0  0  0  0  0  0  0  0  0  0  0
    8.3987   -1.1115    0.0000 C   0  0  0  0  0  0  0  0  0  0  0  0
    6.7328   -0.6210    0.0000 C   0  0  0  0  0  0  0  0  0  0  0  0
    5.7123   -0.8297    0.0000 C   0  0  0  0  0  0  0  0  0  0  0  0
    3.3424   -0.8297    0.0000 C   0  0  0  0  0  0  0  0  0  0  0  0
    2.7029    1.1383    0.0000 C   0  0  0  0  0  0  0  0  0  0  0  0
   17.1947    0.7936    0.0000 C   0  0  0  0  0  0  0  0  0  0  0  0
   17.5614   -0.8992    0.0000 C   0  0  0  0  0  0  0  0  0  0  0  0
    2.3219   -0.6210    0.0000 C   0  0  0  0  0  0  0  0  0  0  0  0
    2.0000    0.3696    0.0000 C   0  0  0  0  0  0  0  0  0  0  0  0
   17.8667    0.0531    0.0000 C   0  0  0  0  0  0  0  0  0  0  0  0
   13.2614    0.5665    0.0000 H   0  0  0  0  0  0  0  0  0  0  0  0
   12.6711    0.0308    0.0000 H   0  0  0  0  0  0  0  0  0  0  0  0
   13.1275   -2.0765    0.0000 H   0  0  0  0  0  0  0  0  0  0  0  0
   13.8865   -2.3198    0.0000 H   0  0  0  0  0  0  0  0  0  0  0  0
   11.4782   -1.5476    0.0000 H   0  0  0  0  0  0  0  0  0  0  0  0
   12.2372   -1.7910    0.0000 H   0  0  0  0  0  0  0  0  0  0  0  0
   14.7873    0.4892    0.0000 H   0  0  0  0  0  0  0  0  0  0  0  0
   14.0283    0.7326    0.0000 H   0  0  0  0  0  0  0  0  0  0  0  0
   14.6534   -2.1537    0.0000 H   0  0  0  0  0  0  0  0  0  0  0  0
   15.2437   -1.6181    0.0000 H   0  0  0  0  0  0  0  0  0  0  0  0
   11.9367   -0.3452    0.0000 H   0  0  0  0  0  0  0  0  0  0  0  0
    9.8289   -1.0187    0.0000 H   0  0  0  0  0  0  0  0  0  0  0  0
   10.5878   -1.2621    0.0000 H   0  0  0  0  0  0  0  0  0  0  0  0
   10.2059    0.3830    0.0000 H   0  0  0  0  0  0  0  0  0  0  0  0
    9.4469    0.6264    0.0000 H   0  0  0  0  0  0  0  0  0  0  0  0
    8.5566    0.9119    0.0000 H   0  0  0  0  0  0  0  0  0  0  0  0
    7.7976    1.1553    0.0000 H   0  0  0  0  0  0  0  0  0  0  0  0
    4.9422    1.9546    0.0000 H   0  0  0  0  0  0  0  0  0  0  0  0
    4.1125    1.9546    0.0000 H   0  0  0  0  0  0  0  0  0  0  0  0
    6.5365    1.7302    0.0000 H   0  0  0  0  0  0  0  0  0  0  0  0
   16.3947   -1.7012    0.0000 H   0  0  0  0  0  0  0  0  0  0  0  0
    7.8083   -0.9222    0.0000 H   0  0  0  0  0  0  0  0  0  0  0  0
    8.2094   -1.7019    0.0000 H   0  0  0  0  0  0  0  0  0  0  0  0
    8.9891   -1.3008    0.0000 H   0  0  0  0  0  0  0  0  0  0  0  0
    7.1459   -1.0834    0.0000 H   0  0  0  0  0  0  0  0  0  0  0  0
    5.5139   -1.4171    0.0000 H   0  0  0  0  0  0  0  0  0  0  0  0
    3.5408   -1.4171    0.0000 H   0  0  0  0  0  0  0  0  0  0  0  0
    2.5182    1.7302    0.0000 H   0  0  0  0  0  0  0  0  0  0  0  0
   17.9780   -1.3583    0.0000 H   0  0  0  0  0  0  0  0  0  0  0  0
    1.9088   -1.0834    0.0000 H   0  0  0  0  0  0  0  0  0  0  0  0
    1.3940    0.5009    0.0000 H   0  0  0  0  0  0  0  0  0  0  0  0
   18.4727    0.1843    0.0000 H   0  0  0  0  0  0  0  0  0  0  0  0
  1 24  1  0  0  0  0
  2 31  1  0  0  0  0
  3 12  1  0  0  0  0
  4  7  1  0  0  0  0
  4  8  1  0  0  0  0
  4  9  1  0  0  0  0
  5 10  1  0  0  0  0
  5 11  1  0  0  0  0
  5 15  1  0  0  0  0
  6 14  1  0  0  0  0
  6 16  1  0  0  0  0
  6 26  1  0  0  0  0
  7 10  1  0  0  0  0
  7 36  1  0  0  0  0
  7 37  1  0  0  0  0
  8 11  1  0  0  0  0
  8 38  1  0  0  0  0
  8 39  1  0  0  0  0
  9 12  1  0  0  0  0
  9 40  1  0  0  0  0
  9 41  1  0  0  0  0
 10 42  1  0  0  0  0
 10 43  1  0  0  0  0
 11 44  1  0  0  0  0
 11 45  1  0  0  0  0
 12 13  1  0  0  0  0
 12 46  1  0  0  0  0
 13 14  1  0  0  0  0
 13 47  1  0  0  0  0
 13 48  1  0  0  0  0
 14 49  1  0  0  0  0
 14 50  1  0  0  0  0
 15 24  2  0  0  0  0
 15 25  1  0  0  0  0
 16 18  1  0  0  0  0
 16 51  1  0  0  0  0
 16 52  1  0  0  0  0
 17 19  2  0  0  0  0
 17 20  1  0  0  0  0
 17 23  1  0  0  0  0
 18 23  2  0  0  0  0
 18 27  1  0  0  0  0
 19 21  1  0  0  0  0
 19 28  1  0  0  0  0
 20 22  1  0  0  0  0
 20 53  1  0  0  0  0
 20 54  1  0  0  0  0
 21 22  1  0  0  0  0
 21 29  2  0  0  0  0
 22 30  2  0  0  0  0
 23 55  1  0  0  0  0
 24 31  1  0  0  0  0
 25 32  2  0  0  0  0
 25 56  1  0  0  0  0
 26 57  1  0  0  0  0
 26 58  1  0  0  0  0
 26 59  1  0  0  0  0
 27 28  2  0  0  0  0
 27 60  1  0  0  0  0
 28 61  1  0  0  0  0
 29 33  1  0  0  0  0
 29 62  1  0  0  0  0
 30 34  1  0  0  0  0
 30 63  1  0  0  0  0
 31 35  2  0  0  0  0
 32 35  1  0  0  0  0
 32 64  1  0  0  0  0
 33 34  2  0  0  0  0
 33 65  1  0  0  0  0
 34 66  1  0  0  0  0
 35 67  1  0  0  0  0
M  END
> <PUBCHEM_COMPOUND_CID>
53248395

> <PUBCHEM_COMPOUND_CANONICALIZED>
1

> <PUBCHEM_CACTVS_COMPLEXITY>
660

> <PUBCHEM_CACTVS_HBOND_ACCEPTOR>
4

> <PUBCHEM_CACTVS_HBOND_DONOR>
0

> <PUBCHEM_CACTVS_ROTATABLE_BOND>
8

> <PUBCHEM_CACTVS_SUBSKEYS>
AAADcfB7AQAGAAAAAAAAAAAAAAAAAYAAAAA8YMEAAAAAAGABUAAAHQIAAAAADArBGCQywIMAAACAAiRCQACCAAAhBwAIikAIZogIYCLBk5HUIAhggADIyAcQgMAOwAACAAIQABSAAAQABCAAKQAACAAAAA==

> <PUBCHEM_IUPAC_OPENEYE_NAME>
4-[4-(2,3-dichlorophenyl)piperazin-1-yl]-N-(9H-fluoren-2-ylmethyl)-3-fluoro-N-methyl-butan-1-amine

> <PUBCHEM_IUPAC_CAS_NAME>
4-[4-(2,3-dichlorophenyl)-1-piperazinyl]-N-(9H-fluoren-2-ylmethyl)-3-fluoro-N-methyl-1-butanamine

> <PUBCHEM_IUPAC_NAME_MARKUP>
4-[4-(2,3-dichlorophenyl)piperazin-1-yl]-<I>N</I>-(9<I>H</I>-fluoren-2-ylmethyl)-3-fluoro-<I>N</I>-methylbutan-1-amine

> <PUBCHEM_IUPAC_NAME>
4-[4-(2,3-dichlorophenyl)piperazin-1-yl]-N-(9H-fluoren-2-ylmethyl)-3-fluoro-N-methylbutan-1-amine

> <PUBCHEM_IUPAC_SYSTEMATIC_NAME>
4-[4-[2,3-bis(chloranyl)phenyl]piperazin-1-yl]-3-fluoranyl-N-(9H-fluoren-2-ylmethyl)-N-methyl-butan-1-amine

> <PUBCHEM_IUPAC_TRADITIONAL_NAME>
[4-[4-(2,3-dichlorophenyl)piperazino]-3-fluoro-butyl]-(9H-fluoren-2-ylmethyl)-methyl-amine

> <PUBCHEM_IUPAC_INCHI>
InChI=1S/C29H32Cl2FN3/c1-33(19-21-9-10-26-23(17-21)18-22-5-2-3-6-25(22)26)12-11-24(32)20-34-13-15-35(16-14-34)28-8-4-7-27(30)29(28)31/h2-10,17,24H,11-16,18-20H2,1H3

> <PUBCHEM_IUPAC_INCHIKEY>
KROSHEKWTTXFGB-UHFFFAOYSA-N

> <PUBCHEM_XLOGP3_AA>
7

> <PUBCHEM_EXACT_MASS>
511.1957316

> <PUBCHEM_MOLECULAR_FORMULA>
C29H32Cl2FN3

> <PUBCHEM_MOLECULAR_WEIGHT>
512.5

> <PUBCHEM_OPENEYE_CAN_SMILES>
CN(CCC(CN1CCN(CC1)C2=C(C(=CC=C2)Cl)Cl)F)CC3=CC4=C(C=C3)C5=CC=CC=C5C4

> <PUBCHEM_OPENEYE_ISO_SMILES>
CN(CCC(CN1CCN(CC1)C2=C(C(=CC=C2)Cl)Cl)F)CC3=CC4=C(C=C3)C5=CC=CC=C5C4

> <PUBCHEM_CACTVS_TPSA>
9.7

> <PUBCHEM_MONOISOTOPIC_WEIGHT>
511.1957316

> <PUBCHEM_TOTAL_CHARGE>
0

> <PUBCHEM_HEAVY_ATOM_COUNT>
35

> <PUBCHEM_ATOM_DEF_STEREO_COUNT>
0

> <PUBCHEM_ATOM_UDEF_STEREO_COUNT>
1

> <PUBCHEM_BOND_DEF_STEREO_COUNT>
0

> <PUBCHEM_BOND_UDEF_STEREO_COUNT>
0

> <PUBCHEM_ISOTOPIC_ATOM_COUNT>
0

> <PUBCHEM_COMPONENT_COUNT>
1

> <PUBCHEM_CACTVS_TAUTO_COUNT>
-1

> <PUBCHEM_COORDINATE_TYPE>
1
5
255

> <PUBCHEM_BONDANNOTATIONS>
15  24  8
15  25  8
17  19  8
17  23  8
18  23  8
18  27  8
19  28  8
21  22  8
21  29  8
22  30  8
24  31  8
25  32  8
27  28  8
29  33  8
12  3  3
30  34  8
31  35  8
32  35  8
33  34  8

$$$$
