24754983
  -OEChem-09292322262D

 65 68  0     1  0  0  0  0  0999 V2000
    2.0000   -0.4625    0.0000 O   0  0  0  0  0  0  0  0  0  0  0  0
    2.0000    1.5375    0.0000 O   0  0  0  0  0  0  0  0  0  0  0  0
    7.2622   -0.4866    0.0000 N   0  0  3  0  0  0  0  0  0  0  0  0
    9.8622    0.0033    0.0000 N   0  0  0  0  0  0  0  0  0  0  0  0
   11.5981    0.9967    0.0000 N   0  0  0  0  0  0  0  0  0  0  0  0
    6.3981    0.0167    0.0000 C   0  0  3  0  0  0  0  0  0  0  0  0
    6.3981    1.0583    0.0000 C   0  0  0  0  0  0  0  0  0  0  0  0
    5.4920   -0.4972    0.0000 C   0  0  0  0  0  0  0  0  0  0  0  0
    8.1301    0.0100    0.0000 C   0  0  0  0  0  0  0  0  0  0  0  0
    5.4920    1.5722    0.0000 C   0  0  0  0  0  0  0  0  0  0  0  0
    8.9942   -0.4933    0.0000 C   0  0  0  0  0  0  0  0  0  0  0  0
    4.5981    0.0375    0.0000 C   0  0  0  0  0  0  0  0  0  0  0  0
    7.2583   -1.4866    0.0000 C   0  0  0  0  0  0  0  0  0  0  0  0
    4.5981    1.0375    0.0000 C   0  0  0  0  0  0  0  0  0  0  0  0
   10.7263   -0.5000    0.0000 C   0  0  0  0  0  0  0  0  0  0  0  0
    9.8660    1.0033    0.0000 C   0  0  0  0  0  0  0  0  0  0  0  0
   11.5942   -0.0033    0.0000 C   0  0  0  0  0  0  0  0  0  0  0  0
   10.7340    1.5000    0.0000 C   0  0  0  0  0  0  0  0  0  0  0  0
    8.1224   -1.9900    0.0000 C   0  0  0  0  0  0  0  0  0  0  0  0
    3.7320   -0.4625    0.0000 C   0  0  0  0  0  0  0  0  0  0  0  0
    3.7320    1.5375    0.0000 C   0  0  0  0  0  0  0  0  0  0  0  0
   12.4660    1.4933    0.0000 C   0  0  0  0  0  0  0  0  0  0  0  0
    2.8660    0.0375    0.0000 C   0  0  0  0  0  0  0  0  0  0  0  0
    2.8660    1.0375    0.0000 C   0  0  0  0  0  0  0  0  0  0  0  0
    8.1186   -2.9900    0.0000 C   0  0  0  0  0  0  0  0  0  0  0  0
   12.4699    2.4933    0.0000 C   0  0  0  0  0  0  0  0  0  0  0  0
   13.3301    0.9900    0.0000 C   0  0  0  0  0  0  0  0  0  0  0  0
   13.3378    2.9900    0.0000 C   0  0  0  0  0  0  0  0  0  0  0  0
   14.1980    1.4866    0.0000 C   0  0  0  0  0  0  0  0  0  0  0  0
   14.2019    2.4866    0.0000 C   0  0  0  0  0  0  0  0  0  0  0  0
    6.9356    0.3257    0.0000 H   0  0  0  0  0  0  0  0  0  0  0  0
    7.0089    0.9522    0.0000 H   0  0  0  0  0  0  0  0  0  0  0  0
    6.6071    1.6420    0.0000 H   0  0  0  0  0  0  0  0  0  0  0  0
    5.0874   -0.9669    0.0000 H   0  0  0  0  0  0  0  0  0  0  0  0
    5.8856   -0.9762    0.0000 H   0  0  0  0  0  0  0  0  0  0  0  0
    8.5305    0.4834    0.0000 H   0  0  0  0  0  0  0  0  0  0  0  0
    7.7334    0.4865    0.0000 H   0  0  0  0  0  0  0  0  0  0  0  0
    5.8856    2.0512    0.0000 H   0  0  0  0  0  0  0  0  0  0  0  0
    5.0874    2.0420    0.0000 H   0  0  0  0  0  0  0  0  0  0  0  0
    8.5939   -0.9667    0.0000 H   0  0  0  0  0  0  0  0  0  0  0  0
    9.3909   -0.9698    0.0000 H   0  0  0  0  0  0  0  0  0  0  0  0
    6.6482   -1.3766    0.0000 H   0  0  0  0  0  0  0  0  0  0  0  0
    7.0440   -2.0684    0.0000 H   0  0  0  0  0  0  0  0  0  0  0  0
   10.3259   -0.9734    0.0000 H   0  0  0  0  0  0  0  0  0  0  0  0
   11.1229   -0.9765    0.0000 H   0  0  0  0  0  0  0  0  0  0  0  0
    9.6562    1.5868    0.0000 H   0  0  0  0  0  0  0  0  0  0  0  0
    9.2550    0.8980    0.0000 H   0  0  0  0  0  0  0  0  0  0  0  0
   11.8040   -0.5868    0.0000 H   0  0  0  0  0  0  0  0  0  0  0  0
   12.2052    0.1020    0.0000 H   0  0  0  0  0  0  0  0  0  0  0  0
   11.1343    1.9734    0.0000 H   0  0  0  0  0  0  0  0  0  0  0  0
   10.3373    1.9765    0.0000 H   0  0  0  0  0  0  0  0  0  0  0  0
    8.7326   -2.1000    0.0000 H   0  0  0  0  0  0  0  0  0  0  0  0
    8.3367   -1.4082    0.0000 H   0  0  0  0  0  0  0  0  0  0  0  0
    3.7320   -1.0825    0.0000 H   0  0  0  0  0  0  0  0  0  0  0  0
    3.7320    2.1575    0.0000 H   0  0  0  0  0  0  0  0  0  0  0  0
    7.4986   -2.9876    0.0000 H   0  0  0  0  0  0  0  0  0  0  0  0
    8.1162   -3.6100    0.0000 H   0  0  0  0  0  0  0  0  0  0  0  0
    8.7386   -2.9924    0.0000 H   0  0  0  0  0  0  0  0  0  0  0  0
   11.9341    2.8054    0.0000 H   0  0  0  0  0  0  0  0  0  0  0  0
   13.3277    0.3700    0.0000 H   0  0  0  0  0  0  0  0  0  0  0  0
    2.0000   -1.0825    0.0000 H   0  0  0  0  0  0  0  0  0  0  0  0
    2.0000    2.1575    0.0000 H   0  0  0  0  0  0  0  0  0  0  0  0
   13.3402    3.6100    0.0000 H   0  0  0  0  0  0  0  0  0  0  0  0
   14.7338    1.1746    0.0000 H   0  0  0  0  0  0  0  0  0  0  0  0
   14.7400    2.7946    0.0000 H   0  0  0  0  0  0  0  0  0  0  0  0
  1 23  1  0  0  0  0
  1 61  1  0  0  0  0
  2 24  1  0  0  0  0
  2 62  1  0  0  0  0
  3  6  1  0  0  0  0
  3  9  1  0  0  0  0
  3 13  1  0  0  0  0
  4 11  1  0  0  0  0
  4 15  1  0  0  0  0
  4 16  1  0  0  0  0
  5 17  1  0  0  0  0
  5 18  1  0  0  0  0
  5 22  1  0  0  0  0
  6  7  1  0  0  0  0
  6  8  1  0  0  0  0
  6 31  1  0  0  0  0
  7 10  1  0  0  0  0
  7 32  1  0  0  0  0
  7 33  1  0  0  0  0
  8 12  1  0  0  0  0
  8 34  1  0  0  0  0
  8 35  1  0  0  0  0
  9 11  1  0  0  0  0
  9 36  1  0  0  0  0
  9 37  1  0  0  0  0
 10 14  1  0  0  0  0
 10 38  1  0  0  0  0
 10 39  1  0  0  0  0
 11 40  1  0  0  0  0
 11 41  1  0  0  0  0
 12 14  1  0  0  0  0
 12 20  2  0  0  0  0
 13 19  1  0  0  0  0
 13 42  1  0  0  0  0
 13 43  1  0  0  0  0
 14 21  2  0  0  0  0
 15 17  1  0  0  0  0
 15 44  1  0  0  0  0
 15 45  1  0  0  0  0
 16 18  1  0  0  0  0
 16 46  1  0  0  0  0
 16 47  1  0  0  0  0
 17 48  1  0  0  0  0
 17 49  1  0  0  0  0
 18 50  1  0  0  0  0
 18 51  1  0  0  0  0
 19 25  1  0  0  0  0
 19 52  1  0  0  0  0
 19 53  1  0  0  0  0
 20 23  1  0  0  0  0
 20 54  1  0  0  0  0
 21 24  1  0  0  0  0
 21 55  1  0  0  0  0
 22 26  2  0  0  0  0
 22 27  1  0  0  0  0
 23 24  2  0  0  0  0
 25 56  1  0  0  0  0
 25 57  1  0  0  0  0
 25 58  1  0  0  0  0
 26 28  1  0  0  0  0
 26 59  1  0  0  0  0
 27 29  2  0  0  0  0
 27 60  1  0  0  0  0
 28 30  2  0  0  0  0
 28 63  1  0  0  0  0
 29 30  1  0  0  0  0
 29 64  1  0  0  0  0
 30 65  1  0  0  0  0
M  END
> <PUBCHEM_COMPOUND_CID>
24754983

> <PUBCHEM_COMPOUND_CANONICALIZED>
1

> <PUBCHEM_CACTVS_COMPLEXITY>
505

> <PUBCHEM_CACTVS_HBOND_ACCEPTOR>
5

> <PUBCHEM_CACTVS_HBOND_DONOR>
2

> <PUBCHEM_CACTVS_ROTATABLE_BOND>
7

> <PUBCHEM_CACTVS_SUBSKEYS>
AAADcfB7MAAAAAAAAAAAAAAAAAAAAAAAAAA8YMEAAAAAAADBQAAAHgAACAAADCzBmAQyxoMAAgCAAiRCQACCAAAhIgAIiAAO7IgJZiLCkZOUcAlkwBHJ2AeQ0LMOoAABAAAQQABQAAKAACCAAAAAAAAAAA==

> <PUBCHEM_IUPAC_OPENEYE_NAME>
2-[2-(4-phenylpiperazin-1-yl)ethyl-propyl-amino]tetralin-6,7-diol

> <PUBCHEM_IUPAC_CAS_NAME>
6-[2-(4-phenyl-1-piperazinyl)ethyl-propylamino]-5,6,7,8-tetrahydronaphthalene-2,3-diol

> <PUBCHEM_IUPAC_NAME_MARKUP>
6-[2-(4-phenylpiperazin-1-yl)ethyl-propylamino]-5,6,7,8-tetrahydronaphthalene-2,3-diol

> <PUBCHEM_IUPAC_NAME>
6-[2-(4-phenylpiperazin-1-yl)ethyl-propylamino]-5,6,7,8-tetrahydronaphthalene-2,3-diol

> <PUBCHEM_IUPAC_SYSTEMATIC_NAME>
6-[2-(4-phenylpiperazin-1-yl)ethyl-propyl-amino]-5,6,7,8-tetrahydronaphthalene-2,3-diol

> <PUBCHEM_IUPAC_TRADITIONAL_NAME>
2-[2-(4-phenylpiperazino)ethyl-propyl-amino]tetralin-6,7-diol

> <PUBCHEM_IUPAC_INCHI>
InChI=1S/C25H35N3O2/c1-2-10-27(23-9-8-20-18-24(29)25(30)19-21(20)17-23)14-11-26-12-15-28(16-13-26)22-6-4-3-5-7-22/h3-7,18-19,23,29-30H,2,8-17H2,1H3

> <PUBCHEM_IUPAC_INCHIKEY>
GNMGTHXPOHHXCC-UHFFFAOYSA-N

> <PUBCHEM_XLOGP3_AA>
4.5

> <PUBCHEM_EXACT_MASS>
409.27292737

> <PUBCHEM_MOLECULAR_FORMULA>
C25H35N3O2

> <PUBCHEM_MOLECULAR_WEIGHT>
409.6

> <PUBCHEM_OPENEYE_CAN_SMILES>
CCCN(CCN1CCN(CC1)C2=CC=CC=C2)C3CCC4=CC(=C(C=C4C3)O)O

> <PUBCHEM_OPENEYE_ISO_SMILES>
CCCN(CCN1CCN(CC1)C2=CC=CC=C2)C3CCC4=CC(=C(C=C4C3)O)O

> <PUBCHEM_CACTVS_TPSA>
50.2

> <PUBCHEM_MONOISOTOPIC_WEIGHT>
409.27292737

> <PUBCHEM_TOTAL_CHARGE>
0

> <PUBCHEM_HEAVY_ATOM_COUNT>
30

> <PUBCHEM_ATOM_DEF_STEREO_COUNT>
0

> <PUBCHEM_ATOM_UDEF_STEREO_COUNT>
1

> <PUBCHEM_BOND_DEF_STEREO_COUNT>
0

> <PUBCHEM_BOND_UDEF_STEREO_COUNT>
0

> <PUBCHEM_ISOTOPIC_ATOM_COUNT>
0

> <PUBCHEM_COMPONENT_COUNT>
1

> <PUBCHEM_CACTVS_TAUTO_COUNT>
-1

> <PUBCHEM_COORDINATE_TYPE>
1
5
255

> <PUBCHEM_BONDANNOTATIONS>
12  14  8
12  20  8
14  21  8
20  23  8
21  24  8
22  26  8
22  27  8
23  24  8
26  28  8
27  29  8
28  30  8
29  30  8
6  3  3

$$$$
