146025765
  -OEChem-09292322012D

 53 54  0     0  0  0  0  0  0999 V2000
    2.0000   -4.0000    0.0000 Cl  0  0  0  0  0  0  0  0  0  0  0  0
    2.0000   -6.0000    0.0000 Cl  0  0  0  0  0  0  0  0  0  0  0  0
    5.4641    5.0000    0.0000 O   0  0  0  0  0  0  0  0  0  0  0  0
    3.7320   -1.0000    0.0000 N   0  0  0  0  0  0  0  0  0  0  0  0
    3.7320   -3.0000    0.0000 N   0  0  0  0  0  0  0  0  0  0  0  0
    6.3301    3.5000    0.0000 N   0  0  0  0  0  0  0  0  0  0  0  0
    7.1962    5.0000    0.0000 N   0  0  0  0  0  0  0  0  0  0  0  0
    4.5981   -1.5000    0.0000 C   0  0  0  0  0  0  0  0  0  0  0  0
    2.8660   -1.5000    0.0000 C   0  0  0  0  0  0  0  0  0  0  0  0
    4.5981   -2.5000    0.0000 C   0  0  0  0  0  0  0  0  0  0  0  0
    2.8660   -2.5000    0.0000 C   0  0  0  0  0  0  0  0  0  0  0  0
    3.7320    0.0000    0.0000 C   0  0  0  0  0  0  0  0  0  0  0  0
    4.5981    0.5000    0.0000 C   0  0  0  0  0  0  0  0  0  0  0  0
    4.5981    1.5000    0.0000 C   0  0  0  0  0  0  0  0  0  0  0  0
    3.7320   -4.0000    0.0000 C   0  0  0  0  0  0  0  0  0  0  0  0
    5.4641    2.0000    0.0000 C   0  0  0  0  0  0  0  0  0  0  0  0
    5.4641    3.0000    0.0000 C   0  0  0  0  0  0  0  0  0  0  0  0
    2.8660   -4.5000    0.0000 C   0  0  0  0  0  0  0  0  0  0  0  0
    4.5981   -4.5000    0.0000 C   0  0  0  0  0  0  0  0  0  0  0  0
    2.8660   -5.5000    0.0000 C   0  0  0  0  0  0  0  0  0  0  0  0
    4.5981   -5.5000    0.0000 C   0  0  0  0  0  0  0  0  0  0  0  0
    3.7320   -6.0000    0.0000 C   0  0  0  0  0  0  0  0  0  0  0  0
    6.3301    4.5000    0.0000 C   0  0  0  0  0  0  0  0  0  0  0  0
    7.1962    6.0000    0.0000 C   0  0  0  0  0  0  0  0  0  0  0  0
    8.0622    4.5000    0.0000 C   0  0  0  0  0  0  0  0  0  0  0  0
    5.2087   -1.6077    0.0000 H   0  0  0  0  0  0  0  0  0  0  0  0
    4.8101   -0.9174    0.0000 H   0  0  0  0  0  0  0  0  0  0  0  0
    2.6540   -0.9174    0.0000 H   0  0  0  0  0  0  0  0  0  0  0  0
    2.2554   -1.6077    0.0000 H   0  0  0  0  0  0  0  0  0  0  0  0
    4.8101   -3.0826    0.0000 H   0  0  0  0  0  0  0  0  0  0  0  0
    5.2087   -2.3923    0.0000 H   0  0  0  0  0  0  0  0  0  0  0  0
    2.2554   -2.3923    0.0000 H   0  0  0  0  0  0  0  0  0  0  0  0
    2.6540   -3.0826    0.0000 H   0  0  0  0  0  0  0  0  0  0  0  0
    3.5200    0.5826    0.0000 H   0  0  0  0  0  0  0  0  0  0  0  0
    3.1215   -0.1077    0.0000 H   0  0  0  0  0  0  0  0  0  0  0  0
    4.8101   -0.0826    0.0000 H   0  0  0  0  0  0  0  0  0  0  0  0
    5.2087    0.6077    0.0000 H   0  0  0  0  0  0  0  0  0  0  0  0
    4.3860    2.0826    0.0000 H   0  0  0  0  0  0  0  0  0  0  0  0
    3.9875    1.3923    0.0000 H   0  0  0  0  0  0  0  0  0  0  0  0
    5.6762    1.4174    0.0000 H   0  0  0  0  0  0  0  0  0  0  0  0
    6.0747    2.1077    0.0000 H   0  0  0  0  0  0  0  0  0  0  0  0
    5.2520    3.5826    0.0000 H   0  0  0  0  0  0  0  0  0  0  0  0
    4.8535    2.8923    0.0000 H   0  0  0  0  0  0  0  0  0  0  0  0
    5.1350   -4.1900    0.0000 H   0  0  0  0  0  0  0  0  0  0  0  0
    5.1350   -5.8100    0.0000 H   0  0  0  0  0  0  0  0  0  0  0  0
    6.8671    3.1900    0.0000 H   0  0  0  0  0  0  0  0  0  0  0  0
    3.7320   -6.6200    0.0000 H   0  0  0  0  0  0  0  0  0  0  0  0
    7.8162    6.0000    0.0000 H   0  0  0  0  0  0  0  0  0  0  0  0
    7.1962    6.6200    0.0000 H   0  0  0  0  0  0  0  0  0  0  0  0
    6.5762    6.0000    0.0000 H   0  0  0  0  0  0  0  0  0  0  0  0
    7.7522    3.9631    0.0000 H   0  0  0  0  0  0  0  0  0  0  0  0
    8.5991    4.1900    0.0000 H   0  0  0  0  0  0  0  0  0  0  0  0
    8.3722    5.0369    0.0000 H   0  0  0  0  0  0  0  0  0  0  0  0
  1 18  1  0  0  0  0
  2 20  1  0  0  0  0
  3 23  2  0  0  0  0
  4  8  1  0  0  0  0
  4  9  1  0  0  0  0
  4 12  1  0  0  0  0
  5 10  1  0  0  0  0
  5 11  1  0  0  0  0
  5 15  1  0  0  0  0
  6 17  1  0  0  0  0
  6 23  1  0  0  0  0
  6 46  1  0  0  0  0
  7 23  1  0  0  0  0
  7 24  1  0  0  0  0
  7 25  1  0  0  0  0
  8 10  1  0  0  0  0
  8 26  1  0  0  0  0
  8 27  1  0  0  0  0
  9 11  1  0  0  0  0
  9 28  1  0  0  0  0
  9 29  1  0  0  0  0
 10 30  1  0  0  0  0
 10 31  1  0  0  0  0
 11 32  1  0  0  0  0
 11 33  1  0  0  0  0
 12 13  1  0  0  0  0
 12 34  1  0  0  0  0
 12 35  1  0  0  0  0
 13 14  1  0  0  0  0
 13 36  1  0  0  0  0
 13 37  1  0  0  0  0
 14 16  1  0  0  0  0
 14 38  1  0  0  0  0
 14 39  1  0  0  0  0
 15 18  2  0  0  0  0
 15 19  1  0  0  0  0
 16 17  1  0  0  0  0
 16 40  1  0  0  0  0
 16 41  1  0  0  0  0
 17 42  1  0  0  0  0
 17 43  1  0  0  0  0
 18 20  1  0  0  0  0
 19 21  2  0  0  0  0
 19 44  1  0  0  0  0
 20 22  2  0  0  0  0
 21 22  1  0  0  0  0
 21 45  1  0  0  0  0
 22 47  1  0  0  0  0
 24 48  1  0  0  0  0
 24 49  1  0  0  0  0
 24 50  1  0  0  0  0
 25 51  1  0  0  0  0
 25 52  1  0  0  0  0
 25 53  1  0  0  0  0
M  END
> <PUBCHEM_COMPOUND_CID>
146025765

> <PUBCHEM_COMPOUND_CANONICALIZED>
1

> <PUBCHEM_CACTVS_COMPLEXITY>
403

> <PUBCHEM_CACTVS_HBOND_ACCEPTOR>
3

> <PUBCHEM_CACTVS_HBOND_DONOR>
1

> <PUBCHEM_CACTVS_ROTATABLE_BOND>
7

> <PUBCHEM_CACTVS_SUBSKEYS>
AAADceB7oAAGAAAAAAAAAAAAAAAAAAAAAAA8QAAAAAAAAAABAAAAHgIQAAAACArBECQzwIPAAACIACRCUACCAAAhBwAIisAIZoiIYCLBk5HUIAholgLIyAcQAAAAAAAAAAIAABQAAAAABAAAKAAAAAAAAA==

> <PUBCHEM_IUPAC_OPENEYE_NAME>
3-[5-[4-(2,3-dichlorophenyl)piperazin-1-yl]pentyl]-1,1-dimethyl-urea

> <PUBCHEM_IUPAC_CAS_NAME>
3-[5-[4-(2,3-dichlorophenyl)-1-piperazinyl]pentyl]-1,1-dimethylurea

> <PUBCHEM_IUPAC_NAME_MARKUP>
3-[5-[4-(2,3-dichlorophenyl)piperazin-1-yl]pentyl]-1,1-dimethylurea

> <PUBCHEM_IUPAC_NAME>
3-[5-[4-(2,3-dichlorophenyl)piperazin-1-yl]pentyl]-1,1-dimethylurea

> <PUBCHEM_IUPAC_SYSTEMATIC_NAME>
3-[5-[4-[2,3-bis(chloranyl)phenyl]piperazin-1-yl]pentyl]-1,1-dimethyl-urea

> <PUBCHEM_IUPAC_TRADITIONAL_NAME>
3-[5-[4-(2,3-dichlorophenyl)piperazino]pentyl]-1,1-dimethyl-urea

> <PUBCHEM_IUPAC_INCHI>
InChI=1S/C18H28Cl2N4O/c1-22(2)18(25)21-9-4-3-5-10-23-11-13-24(14-12-23)16-8-6-7-15(19)17(16)20/h6-8H,3-5,9-14H2,1-2H3,(H,21,25)

> <PUBCHEM_IUPAC_INCHIKEY>
DTZMACLKKFGKBX-UHFFFAOYSA-N

> <PUBCHEM_XLOGP3_AA>
3.5

> <PUBCHEM_EXACT_MASS>
386.1640169

> <PUBCHEM_MOLECULAR_FORMULA>
C18H28Cl2N4O

> <PUBCHEM_MOLECULAR_WEIGHT>
387.3

> <PUBCHEM_OPENEYE_CAN_SMILES>
CN(C)C(=O)NCCCCCN1CCN(CC1)C2=C(C(=CC=C2)Cl)Cl

> <PUBCHEM_OPENEYE_ISO_SMILES>
CN(C)C(=O)NCCCCCN1CCN(CC1)C2=C(C(=CC=C2)Cl)Cl

> <PUBCHEM_CACTVS_TPSA>
38.8

> <PUBCHEM_MONOISOTOPIC_WEIGHT>
386.1640169

> <PUBCHEM_TOTAL_CHARGE>
0

> <PUBCHEM_HEAVY_ATOM_COUNT>
25

> <PUBCHEM_ATOM_DEF_STEREO_COUNT>
0

> <PUBCHEM_ATOM_UDEF_STEREO_COUNT>
0

> <PUBCHEM_BOND_DEF_STEREO_COUNT>
0

> <PUBCHEM_BOND_UDEF_STEREO_COUNT>
0

> <PUBCHEM_ISOTOPIC_ATOM_COUNT>
0

> <PUBCHEM_COMPONENT_COUNT>
1

> <PUBCHEM_CACTVS_TAUTO_COUNT>
-1

> <PUBCHEM_COORDINATE_TYPE>
1
5
255

> <PUBCHEM_BONDANNOTATIONS>
15  18  8
15  19  8
18  20  8
19  21  8
20  22  8
21  22  8

$$$$
