118719799
  -OEChem-09292322362D

 68 72  0     0  0  0  0  0  0999 V2000
    4.0783   -8.4066    0.0000 S   0  0  0  0  0  0  0  0  0  0  0  0
    4.9836    7.2840    0.0000 O   0  0  0  0  0  0  0  0  0  0  0  0
    4.6215    3.8388    0.0000 N   0  0  0  0  0  0  0  0  0  0  0  0
    3.8080    5.6659    0.0000 N   0  0  0  0  0  0  0  0  0  0  0  0
    3.5783   -2.8677    0.0000 N   0  0  0  0  0  0  0  0  0  0  0  0
    3.0783   -1.3289    0.0000 N   0  0  0  0  0  0  0  0  0  0  0  0
    2.7693   -2.2799    0.0000 N   0  0  0  0  0  0  0  0  0  0  0  0
    3.6270    3.9434    0.0000 C   0  0  0  0  0  0  0  0  0  0  0  0
    5.2092    4.6478    0.0000 C   0  0  0  0  0  0  0  0  0  0  0  0
    3.2202    4.8569    0.0000 C   0  0  0  0  0  0  0  0  0  0  0  0
    4.8025    5.5614    0.0000 C   0  0  0  0  0  0  0  0  0  0  0  0
    5.0282    2.9253    0.0000 C   0  0  0  0  0  0  0  0  0  0  0  0
    4.4404    2.1163    0.0000 C   0  0  0  0  0  0  0  0  0  0  0  0
    4.8472    1.2027    0.0000 C   0  0  0  0  0  0  0  0  0  0  0  0
    3.4013    6.5795    0.0000 C   0  0  0  0  0  0  0  0  0  0  0  0
    4.2594    0.3937    0.0000 C   0  0  0  0  0  0  0  0  0  0  0  0
    4.6661   -0.5198    0.0000 C   0  0  0  0  0  0  0  0  0  0  0  0
    3.9890    7.3885    0.0000 C   0  0  0  0  0  0  0  0  0  0  0  0
    2.4067    6.6840    0.0000 C   0  0  0  0  0  0  0  0  0  0  0  0
    4.0783   -1.3289    0.0000 C   0  0  0  0  0  0  0  0  0  0  0  0
    3.5823    8.3020    0.0000 C   0  0  0  0  0  0  0  0  0  0  0  0
    2.0000    7.5975    0.0000 C   0  0  0  0  0  0  0  0  0  0  0  0
    2.5878    8.4066    0.0000 C   0  0  0  0  0  0  0  0  0  0  0  0
    4.3873   -2.2799    0.0000 C   0  0  0  0  0  0  0  0  0  0  0  0
    5.5714    8.0930    0.0000 C   0  0  0  0  0  0  0  0  0  0  0  0
    3.5783   -3.8677    0.0000 C   0  0  0  0  0  0  0  0  0  0  0  0
    4.4444   -4.3677    0.0000 C   0  0  0  0  0  0  0  0  0  0  0  0
    2.7123   -4.3677    0.0000 C   0  0  0  0  0  0  0  0  0  0  0  0
    3.5783   -5.8677    0.0000 C   0  0  0  0  0  0  0  0  0  0  0  0
    4.4444   -5.3677    0.0000 C   0  0  0  0  0  0  0  0  0  0  0  0
    2.7123   -5.3677    0.0000 C   0  0  0  0  0  0  0  0  0  0  0  0
    3.5783   -6.8677    0.0000 C   0  0  0  0  0  0  0  0  0  0  0  0
    2.7693   -7.4555    0.0000 C   0  0  0  0  0  0  0  0  0  0  0  0
    4.3873   -7.4555    0.0000 C   0  0  0  0  0  0  0  0  0  0  0  0
    3.0783   -8.4066    0.0000 C   0  0  0  0  0  0  0  0  0  0  0  0
    3.0254    3.7934    0.0000 H   0  0  0  0  0  0  0  0  0  0  0  0
    3.6702    3.3249    0.0000 H   0  0  0  0  0  0  0  0  0  0  0  0
    5.6399    4.2018    0.0000 H   0  0  0  0  0  0  0  0  0  0  0  0
    5.7233    4.9945    0.0000 H   0  0  0  0  0  0  0  0  0  0  0  0
    2.7895    5.3029    0.0000 H   0  0  0  0  0  0  0  0  0  0  0  0
    2.7062    4.5102    0.0000 H   0  0  0  0  0  0  0  0  0  0  0  0
    5.4041    5.7114    0.0000 H   0  0  0  0  0  0  0  0  0  0  0  0
    4.7593    6.1799    0.0000 H   0  0  0  0  0  0  0  0  0  0  0  0
    5.4589    2.4793    0.0000 H   0  0  0  0  0  0  0  0  0  0  0  0
    5.5422    3.2720    0.0000 H   0  0  0  0  0  0  0  0  0  0  0  0
    4.0097    2.5622    0.0000 H   0  0  0  0  0  0  0  0  0  0  0  0
    3.9264    1.7696    0.0000 H   0  0  0  0  0  0  0  0  0  0  0  0
    5.2778    0.7567    0.0000 H   0  0  0  0  0  0  0  0  0  0  0  0
    5.3612    1.5494    0.0000 H   0  0  0  0  0  0  0  0  0  0  0  0
    3.8287    0.8397    0.0000 H   0  0  0  0  0  0  0  0  0  0  0  0
    3.7454    0.0470    0.0000 H   0  0  0  0  0  0  0  0  0  0  0  0
    5.0968   -0.9658    0.0000 H   0  0  0  0  0  0  0  0  0  0  0  0
    5.1801   -0.1731    0.0000 H   0  0  0  0  0  0  0  0  0  0  0  0
    2.0423    6.1824    0.0000 H   0  0  0  0  0  0  0  0  0  0  0  0
    3.9467    8.8036    0.0000 H   0  0  0  0  0  0  0  0  0  0  0  0
    1.3834    7.6623    0.0000 H   0  0  0  0  0  0  0  0  0  0  0  0
    2.3356    8.9730    0.0000 H   0  0  0  0  0  0  0  0  0  0  0  0
    4.9770   -2.4715    0.0000 H   0  0  0  0  0  0  0  0  0  0  0  0
    6.0729    7.7285    0.0000 H   0  0  0  0  0  0  0  0  0  0  0  0
    5.9358    8.5946    0.0000 H   0  0  0  0  0  0  0  0  0  0  0  0
    5.0698    8.4574    0.0000 H   0  0  0  0  0  0  0  0  0  0  0  0
    4.9813   -4.0577    0.0000 H   0  0  0  0  0  0  0  0  0  0  0  0
    2.1754   -4.0577    0.0000 H   0  0  0  0  0  0  0  0  0  0  0  0
    4.9813   -5.6777    0.0000 H   0  0  0  0  0  0  0  0  0  0  0  0
    2.1754   -5.6777    0.0000 H   0  0  0  0  0  0  0  0  0  0  0  0
    2.1796   -7.2639    0.0000 H   0  0  0  0  0  0  0  0  0  0  0  0
    4.9770   -7.2639    0.0000 H   0  0  0  0  0  0  0  0  0  0  0  0
    2.7139   -8.9081    0.0000 H   0  0  0  0  0  0  0  0  0  0  0  0
  1 34  1  0  0  0  0
  1 35  1  0  0  0  0
  2 18  1  0  0  0  0
  2 25  1  0  0  0  0
  3  8  1  0  0  0  0
  3  9  1  0  0  0  0
  3 12  1  0  0  0  0
  4 10  1  0  0  0  0
  4 11  1  0  0  0  0
  4 15  1  0  0  0  0
  5  7  1  0  0  0  0
  5 24  1  0  0  0  0
  5 26  1  0  0  0  0
  6  7  2  0  0  0  0
  6 20  1  0  0  0  0
  8 10  1  0  0  0  0
  8 36  1  0  0  0  0
  8 37  1  0  0  0  0
  9 11  1  0  0  0  0
  9 38  1  0  0  0  0
  9 39  1  0  0  0  0
 10 40  1  0  0  0  0
 10 41  1  0  0  0  0
 11 42  1  0  0  0  0
 11 43  1  0  0  0  0
 12 13  1  0  0  0  0
 12 44  1  0  0  0  0
 12 45  1  0  0  0  0
 13 14  1  0  0  0  0
 13 46  1  0  0  0  0
 13 47  1  0  0  0  0
 14 16  1  0  0  0  0
 14 48  1  0  0  0  0
 14 49  1  0  0  0  0
 15 18  1  0  0  0  0
 15 19  2  0  0  0  0
 16 17  1  0  0  0  0
 16 50  1  0  0  0  0
 16 51  1  0  0  0  0
 17 20  1  0  0  0  0
 17 52  1  0  0  0  0
 17 53  1  0  0  0  0
 18 21  2  0  0  0  0
 19 22  1  0  0  0  0
 19 54  1  0  0  0  0
 20 24  2  0  0  0  0
 21 23  1  0  0  0  0
 21 55  1  0  0  0  0
 22 23  2  0  0  0  0
 22 56  1  0  0  0  0
 23 57  1  0  0  0  0
 24 58  1  0  0  0  0
 25 59  1  0  0  0  0
 25 60  1  0  0  0  0
 25 61  1  0  0  0  0
 26 27  2  0  0  0  0
 26 28  1  0  0  0  0
 27 30  1  0  0  0  0
 27 62  1  0  0  0  0
 28 31  2  0  0  0  0
 28 63  1  0  0  0  0
 29 30  2  0  0  0  0
 29 31  1  0  0  0  0
 29 32  1  0  0  0  0
 30 64  1  0  0  0  0
 31 65  1  0  0  0  0
 32 33  1  0  0  0  0
 32 34  2  0  0  0  0
 33 35  2  0  0  0  0
 33 66  1  0  0  0  0
 34 67  1  0  0  0  0
 35 68  1  0  0  0  0
M  END
> <PUBCHEM_COMPOUND_CID>
118719799

> <PUBCHEM_COMPOUND_CANONICALIZED>
1

> <PUBCHEM_CACTVS_COMPLEXITY>
610

> <PUBCHEM_CACTVS_HBOND_ACCEPTOR>
6

> <PUBCHEM_CACTVS_HBOND_DONOR>
0

> <PUBCHEM_CACTVS_ROTATABLE_BOND>
10

> <PUBCHEM_CACTVS_SUBSKEYS>
AAADcfB7oABAAAAAAAAAAAAAAAAAAWJAAAA8YIAAAAAAAAAB9AAAHgQIAAAADAzF3ga+x5MIBAimAzRnRACDDKQxuhBYmBg/fIgOZmLksZuVMChkwBH46AeQwMAOiAAAAAAAEAAQAAAAAAAgAAAAAAAAAA==

> <PUBCHEM_IUPAC_OPENEYE_NAME>
1-(2-methoxyphenyl)-4-[5-[1-[4-(3-thienyl)phenyl]triazol-4-yl]pentyl]piperazine

> <PUBCHEM_IUPAC_CAS_NAME>
1-(2-methoxyphenyl)-4-[5-[1-[4-(3-thiophenyl)phenyl]-4-triazolyl]pentyl]piperazine

> <PUBCHEM_IUPAC_NAME_MARKUP>
1-(2-methoxyphenyl)-4-[5-[1-(4-thiophen-3-ylphenyl)triazol-4-yl]pentyl]piperazine

> <PUBCHEM_IUPAC_NAME>
1-(2-methoxyphenyl)-4-[5-[1-(4-thiophen-3-ylphenyl)triazol-4-yl]pentyl]piperazine

> <PUBCHEM_IUPAC_SYSTEMATIC_NAME>
1-(2-methoxyphenyl)-4-[5-[1-(4-thiophen-3-ylphenyl)-1,2,3-triazol-4-yl]pentyl]piperazine

> <PUBCHEM_IUPAC_TRADITIONAL_NAME>
1-(2-methoxyphenyl)-4-[5-[1-[4-(3-thienyl)phenyl]triazol-4-yl]pentyl]piperazine

> <PUBCHEM_IUPAC_INCHI>
InChI=1S/C28H33N5OS/c1-34-28-9-5-4-8-27(28)32-18-16-31(17-19-32)15-6-2-3-7-25-21-33(30-29-25)26-12-10-23(11-13-26)24-14-20-35-22-24/h4-5,8-14,20-22H,2-3,6-7,15-19H2,1H3

> <PUBCHEM_IUPAC_INCHIKEY>
QRCFVXJHTKTGJU-UHFFFAOYSA-N

> <PUBCHEM_XLOGP3_AA>
5.6

> <PUBCHEM_EXACT_MASS>
487.24058187

> <PUBCHEM_MOLECULAR_FORMULA>
C28H33N5OS

> <PUBCHEM_MOLECULAR_WEIGHT>
487.7

> <PUBCHEM_OPENEYE_CAN_SMILES>
COC1=CC=CC=C1N2CCN(CC2)CCCCCC3=CN(N=N3)C4=CC=C(C=C4)C5=CSC=C5

> <PUBCHEM_OPENEYE_ISO_SMILES>
COC1=CC=CC=C1N2CCN(CC2)CCCCCC3=CN(N=N3)C4=CC=C(C=C4)C5=CSC=C5

> <PUBCHEM_CACTVS_TPSA>
74.7

> <PUBCHEM_MONOISOTOPIC_WEIGHT>
487.24058187

> <PUBCHEM_TOTAL_CHARGE>
0

> <PUBCHEM_HEAVY_ATOM_COUNT>
35

> <PUBCHEM_ATOM_DEF_STEREO_COUNT>
0

> <PUBCHEM_ATOM_UDEF_STEREO_COUNT>
0

> <PUBCHEM_BOND_DEF_STEREO_COUNT>
0

> <PUBCHEM_BOND_UDEF_STEREO_COUNT>
0

> <PUBCHEM_ISOTOPIC_ATOM_COUNT>
0

> <PUBCHEM_COMPONENT_COUNT>
1

> <PUBCHEM_CACTVS_TAUTO_COUNT>
-1

> <PUBCHEM_COORDINATE_TYPE>
1
5
255

> <PUBCHEM_BONDANNOTATIONS>
1  34  8
1  35  8
15  18  8
15  19  8
18  21  8
19  22  8
20  24  8
21  23  8
22  23  8
26  27  8
26  28  8
27  30  8
28  31  8
29  30  8
29  31  8
32  33  8
32  34  8
33  35  8
5  24  8
5  7  8
6  20  8
6  7  8

$$$$
