155202852
  -OEChem-09292322432D

 69 73  0     1  0  0  0  0  0999 V2000
   14.2619    1.5675    0.0000 O   0  0  0  0  0  0  0  0  0  0  0  0
    6.7619   -1.0306    0.0000 O   0  0  0  0  0  0  0  0  0  0  0  0
   12.2619    1.5675    0.0000 N   0  0  3  0  0  0  0  0  0  0  0  0
    6.7619    0.7015    0.0000 N   0  0  0  0  0  0  0  0  0  0  0  0
    4.6783   -0.9693    0.0000 N   0  0  0  0  0  0  0  0  0  0  0  0
   14.2619   -1.8966    0.0000 N   0  0  0  0  0  0  0  0  0  0  0  0
   15.7619   -2.7626    0.0000 N   0  0  0  0  0  0  0  0  0  0  0  0
    9.7619    0.7015    0.0000 C   0  0  0  0  0  0  0  0  0  0  0  0
    9.2619   -0.1645    0.0000 C   0  0  0  0  0  0  0  0  0  0  0  0
    9.2619    1.5675    0.0000 C   0  0  0  0  0  0  0  0  0  0  0  0
    7.7619    0.7015    0.0000 C   0  0  0  0  0  0  0  0  0  0  0  0
   10.7619    0.7015    0.0000 C   0  0  0  0  0  0  0  0  0  0  0  0
    8.2619   -0.1645    0.0000 C   0  0  0  0  0  0  0  0  0  0  0  0
    8.2619    1.5675    0.0000 C   0  0  0  0  0  0  0  0  0  0  0  0
   11.2619    1.5675    0.0000 C   0  0  0  0  0  0  0  0  0  0  0  0
   12.7619    2.4335    0.0000 C   0  0  2  0  0  0  0  0  0  0  0  0
   12.7619    0.7015    0.0000 C   0  0  0  0  0  0  0  0  0  0  0  0
   13.7619    0.7015    0.0000 C   0  0  2  0  0  0  0  0  0  0  0  0
   13.7619    2.4335    0.0000 C   0  0  0  0  0  0  0  0  0  0  0  0
   12.2619    3.2996    0.0000 C   0  0  0  0  0  0  0  0  0  0  0  0
   14.2619   -0.1645    0.0000 C   0  0  0  0  0  0  0  0  0  0  0  0
    6.2619   -0.1645    0.0000 C   0  0  0  0  0  0  0  0  0  0  0  0
    5.2619   -0.1645    0.0000 C   0  0  0  0  0  0  0  0  0  0  0  0
   15.2619   -0.1645    0.0000 C   0  0  0  0  0  0  0  0  0  0  0  0
   13.7619   -1.0306    0.0000 C   0  0  0  0  0  0  0  0  0  0  0  0
    4.6783    0.6402    0.0000 C   0  0  0  0  0  0  0  0  0  0  0  0
   15.7619   -1.0306    0.0000 C   0  0  0  0  0  0  0  0  0  0  0  0
    3.7320   -0.6645    0.0000 C   0  0  0  0  0  0  0  0  0  0  0  0
    3.7320    0.3355    0.0000 C   0  0  0  0  0  0  0  0  0  0  0  0
   15.2619   -1.8966    0.0000 C   0  0  0  0  0  0  0  0  0  0  0  0
    2.8660   -1.1645    0.0000 C   0  0  0  0  0  0  0  0  0  0  0  0
    2.8660    0.8355    0.0000 C   0  0  0  0  0  0  0  0  0  0  0  0
    2.0000   -0.6645    0.0000 C   0  0  0  0  0  0  0  0  0  0  0  0
    2.0000    0.3355    0.0000 C   0  0  0  0  0  0  0  0  0  0  0  0
   10.0719    0.1645    0.0000 H   0  0  0  0  0  0  0  0  0  0  0  0
    9.1542   -0.7751    0.0000 H   0  0  0  0  0  0  0  0  0  0  0  0
    9.8445   -0.3766    0.0000 H   0  0  0  0  0  0  0  0  0  0  0  0
    9.8445    1.7796    0.0000 H   0  0  0  0  0  0  0  0  0  0  0  0
    9.1542    2.1781    0.0000 H   0  0  0  0  0  0  0  0  0  0  0  0
    7.4519    1.2384    0.0000 H   0  0  0  0  0  0  0  0  0  0  0  0
   10.6542    0.0909    0.0000 H   0  0  0  0  0  0  0  0  0  0  0  0
   11.3445    0.4894    0.0000 H   0  0  0  0  0  0  0  0  0  0  0  0
    7.6793   -0.3766    0.0000 H   0  0  0  0  0  0  0  0  0  0  0  0
    8.3695   -0.7751    0.0000 H   0  0  0  0  0  0  0  0  0  0  0  0
    8.3695    2.1781    0.0000 H   0  0  0  0  0  0  0  0  0  0  0  0
    7.6793    1.7796    0.0000 H   0  0  0  0  0  0  0  0  0  0  0  0
   11.3695    2.1781    0.0000 H   0  0  0  0  0  0  0  0  0  0  0  0
   10.6793    1.7796    0.0000 H   0  0  0  0  0  0  0  0  0  0  0  0
   12.1419    2.4335    0.0000 H   0  0  0  0  0  0  0  0  0  0  0  0
   12.1793    0.4894    0.0000 H   0  0  0  0  0  0  0  0  0  0  0  0
   12.8695    0.0909    0.0000 H   0  0  0  0  0  0  0  0  0  0  0  0
    6.4519    1.2384    0.0000 H   0  0  0  0  0  0  0  0  0  0  0  0
   13.4519    0.1645    0.0000 H   0  0  0  0  0  0  0  0  0  0  0  0
   14.3445    2.6456    0.0000 H   0  0  0  0  0  0  0  0  0  0  0  0
   13.6542    3.0441    0.0000 H   0  0  0  0  0  0  0  0  0  0  0  0
   12.7988    3.6096    0.0000 H   0  0  0  0  0  0  0  0  0  0  0  0
   11.9519    3.8365    0.0000 H   0  0  0  0  0  0  0  0  0  0  0  0
   11.7249    2.9896    0.0000 H   0  0  0  0  0  0  0  0  0  0  0  0
   15.5719    0.3724    0.0000 H   0  0  0  0  0  0  0  0  0  0  0  0
   13.1419   -1.0306    0.0000 H   0  0  0  0  0  0  0  0  0  0  0  0
    4.8709   -1.5586    0.0000 H   0  0  0  0  0  0  0  0  0  0  0  0
    4.8709    1.2295    0.0000 H   0  0  0  0  0  0  0  0  0  0  0  0
   16.3819   -1.0306    0.0000 H   0  0  0  0  0  0  0  0  0  0  0  0
    2.8660   -1.7845    0.0000 H   0  0  0  0  0  0  0  0  0  0  0  0
    2.8660    1.4555    0.0000 H   0  0  0  0  0  0  0  0  0  0  0  0
   16.3819   -2.7626    0.0000 H   0  0  0  0  0  0  0  0  0  0  0  0
   15.4519   -3.2996    0.0000 H   0  0  0  0  0  0  0  0  0  0  0  0
    1.4631   -0.9745    0.0000 H   0  0  0  0  0  0  0  0  0  0  0  0
    1.4631    0.6455    0.0000 H   0  0  0  0  0  0  0  0  0  0  0  0
  1 18  1  0  0  0  0
  1 19  1  0  0  0  0
  2 22  2  0  0  0  0
  3 15  1  0  0  0  0
  3 16  1  0  0  0  0
  3 17  1  0  0  0  0
  4 11  1  0  0  0  0
  4 22  1  0  0  0  0
  4 52  1  0  0  0  0
  5 23  1  0  0  0  0
  5 28  1  0  0  0  0
  5 61  1  0  0  0  0
  6 25  1  0  0  0  0
  6 30  2  0  0  0  0
  7 30  1  0  0  0  0
  7 66  1  0  0  0  0
  7 67  1  0  0  0  0
  8  9  1  0  0  0  0
  8 10  1  0  0  0  0
  8 12  1  0  0  0  0
  8 35  1  0  0  0  0
  9 13  1  0  0  0  0
  9 36  1  0  0  0  0
  9 37  1  0  0  0  0
 10 14  1  0  0  0  0
 10 38  1  0  0  0  0
 10 39  1  0  0  0  0
 11 13  1  0  0  0  0
 11 14  1  0  0  0  0
 11 40  1  0  0  0  0
 12 15  1  0  0  0  0
 12 41  1  0  0  0  0
 12 42  1  0  0  0  0
 13 43  1  0  0  0  0
 13 44  1  0  0  0  0
 14 45  1  0  0  0  0
 14 46  1  0  0  0  0
 15 47  1  0  0  0  0
 15 48  1  0  0  0  0
 16 19  1  0  0  0  0
 16 20  1  1  0  0  0
 16 49  1  0  0  0  0
 17 18  1  0  0  0  0
 17 50  1  0  0  0  0
 17 51  1  0  0  0  0
 18 21  1  1  0  0  0
 18 53  1  0  0  0  0
 19 54  1  0  0  0  0
 19 55  1  0  0  0  0
 20 56  1  0  0  0  0
 20 57  1  0  0  0  0
 20 58  1  0  0  0  0
 21 24  1  0  0  0  0
 21 25  2  0  0  0  0
 22 23  1  0  0  0  0
 23 26  2  0  0  0  0
 24 27  2  0  0  0  0
 24 59  1  0  0  0  0
 25 60  1  0  0  0  0
 26 29  1  0  0  0  0
 26 62  1  0  0  0  0
 27 30  1  0  0  0  0
 27 63  1  0  0  0  0
 28 29  1  0  0  0  0
 28 31  2  0  0  0  0
 29 32  2  0  0  0  0
 31 33  1  0  0  0  0
 31 64  1  0  0  0  0
 32 34  1  0  0  0  0
 32 65  1  0  0  0  0
 33 34  2  0  0  0  0
 33 68  1  0  0  0  0
 34 69  1  0  0  0  0
M  END
> <PUBCHEM_COMPOUND_CID>
155202852

> <PUBCHEM_COMPOUND_CANONICALIZED>
1

> <PUBCHEM_CACTVS_COMPLEXITY>
669

> <PUBCHEM_CACTVS_HBOND_ACCEPTOR>
5

> <PUBCHEM_CACTVS_HBOND_DONOR>
3

> <PUBCHEM_CACTVS_ROTATABLE_BOND>
6

> <PUBCHEM_CACTVS_SUBSKEYS>
AAADcfB7sAAAAAAAAAAAAAAAAAAAAWAAAAA8eIEAAAAAAFgB/AAAHgAQAAAADTzhngY/8PPJlACoAzd3dACCgCk3AiAI2aG4bNiKZvLAtbmXMQhm1gPY6aeYmYKeAAAAAAACAAAQAAAAAAQAAAAAAAAAAA==

> <PUBCHEM_IUPAC_OPENEYE_NAME>
N-[4-[2-[(2S,5S)-2-(6-amino-3-pyridyl)-5-methyl-morpholin-4-yl]ethyl]cyclohexyl]-1H-indole-2-carboxamide

> <PUBCHEM_IUPAC_CAS_NAME>
N-[4-[2-[(2S,5S)-2-(6-amino-3-pyridinyl)-5-methyl-4-morpholinyl]ethyl]cyclohexyl]-1H-indole-2-carboxamide

> <PUBCHEM_IUPAC_NAME_MARKUP>
<I>N</I>-[4-[2-[(2<I>S</I>,5<I>S</I>)-2-(6-aminopyridin-3-yl)-5-methylmorpholin-4-yl]ethyl]cyclohexyl]-1<I>H</I>-indole-2-carboxamide

> <PUBCHEM_IUPAC_NAME>
N-[4-[2-[(2S,5S)-2-(6-aminopyridin-3-yl)-5-methylmorpholin-4-yl]ethyl]cyclohexyl]-1H-indole-2-carboxamide

> <PUBCHEM_IUPAC_SYSTEMATIC_NAME>
N-[4-[2-[(2S,5S)-2-(6-azanylpyridin-3-yl)-5-methyl-morpholin-4-yl]ethyl]cyclohexyl]-1H-indole-2-carboxamide

> <PUBCHEM_IUPAC_TRADITIONAL_NAME>
N-[4-[2-[(2S,5S)-2-(6-amino-3-pyridyl)-5-methyl-morpholino]ethyl]cyclohexyl]-1H-indole-2-carboxamide

> <PUBCHEM_IUPAC_INCHI>
InChI=1S/C27H35N5O2/c1-18-17-34-25(21-8-11-26(28)29-15-21)16-32(18)13-12-19-6-9-22(10-7-19)30-27(33)24-14-20-4-2-3-5-23(20)31-24/h2-5,8,11,14-15,18-19,22,25,31H,6-7,9-10,12-13,16-17H2,1H3,(H2,28,29)(H,30,33)/t18-,19?,22?,25+/m0/s1

> <PUBCHEM_IUPAC_INCHIKEY>
ADDKZOUNFAZVBP-PJBCDTOXSA-N

> <PUBCHEM_XLOGP3_AA>
3.8

> <PUBCHEM_EXACT_MASS>
461.27907538

> <PUBCHEM_MOLECULAR_FORMULA>
C27H35N5O2

> <PUBCHEM_MOLECULAR_WEIGHT>
461.6

> <PUBCHEM_OPENEYE_CAN_SMILES>
CC1COC(CN1CCC2CCC(CC2)NC(=O)C3=CC4=CC=CC=C4N3)C5=CN=C(C=C5)N

> <PUBCHEM_OPENEYE_ISO_SMILES>
C[C@H]1CO[C@H](CN1CCC2CCC(CC2)NC(=O)C3=CC4=CC=CC=C4N3)C5=CN=C(C=C5)N

> <PUBCHEM_CACTVS_TPSA>
96.3

> <PUBCHEM_MONOISOTOPIC_WEIGHT>
461.27907538

> <PUBCHEM_TOTAL_CHARGE>
0

> <PUBCHEM_HEAVY_ATOM_COUNT>
34

> <PUBCHEM_ATOM_DEF_STEREO_COUNT>
2

> <PUBCHEM_ATOM_UDEF_STEREO_COUNT>
0

> <PUBCHEM_BOND_DEF_STEREO_COUNT>
0

> <PUBCHEM_BOND_UDEF_STEREO_COUNT>
0

> <PUBCHEM_ISOTOPIC_ATOM_COUNT>
0

> <PUBCHEM_COMPONENT_COUNT>
1

> <PUBCHEM_CACTVS_TAUTO_COUNT>
-1

> <PUBCHEM_COORDINATE_TYPE>
1
5
255

> <PUBCHEM_BONDANNOTATIONS>
16  20  5
18  21  5
21  24  8
21  25  8
23  26  8
24  27  8
26  29  8
27  30  8
28  29  8
28  31  8
29  32  8
31  33  8
32  34  8
33  34  8
5  23  8
5  28  8
6  25  8
6  30  8

$$$$
