57393627
  -OEChem-09292322322D

167172  0     0  0  0  0  0  0999 V2000
   27.1147   17.5000    0.0000 O   0  0  0  0  0  0  0  0  0  0  0  0
    2.8660  -18.5000    0.0000 O   0  0  0  0  0  0  0  0  0  0  0  0
   20.1865   14.5000    0.0000 O   0  0  0  0  0  0  0  0  0  0  0  0
    5.4641  -11.0000    0.0000 O   0  0  0  0  0  0  0  0  0  0  0  0
   20.1865    9.5000    0.0000 O   0  0  0  0  0  0  0  0  0  0  0  0
    9.7942   -8.5000    0.0000 O   0  0  0  0  0  0  0  0  0  0  0  0
   19.3205    7.0000    0.0000 O   0  0  0  0  0  0  0  0  0  0  0  0
   11.5263   -6.5000    0.0000 O   0  0  0  0  0  0  0  0  0  0  0  0
   17.5885    5.0000    0.0000 O   0  0  0  0  0  0  0  0  0  0  0  0
   12.3923   -4.0000    0.0000 O   0  0  0  0  0  0  0  0  0  0  0  0
   16.7224    2.5000    0.0000 O   0  0  0  0  0  0  0  0  0  0  0  0
   14.1244   -2.0000    0.0000 O   0  0  0  0  0  0  0  0  0  0  0  0
   14.9904    0.5000    0.0000 O   0  0  0  0  0  0  0  0  0  0  0  0
   23.6506   17.5000    0.0000 N   0  0  0  0  0  0  0  0  0  0  0  0
    4.5981  -15.5000    0.0000 N   0  0  0  0  0  0  0  0  0  0  0  0
   25.3827   18.5000    0.0000 N   0  0  0  0  0  0  0  0  0  0  0  0
    4.5981  -17.5000    0.0000 N   0  0  0  0  0  0  0  0  0  0  0  0
   21.9186   14.5000    0.0000 N   0  0  0  0  0  0  0  0  0  0  0  0
    6.3301  -12.5000    0.0000 N   0  0  0  0  0  0  0  0  0  0  0  0
   23.6506   18.5000    0.0000 C   0  0  0  0  0  0  0  0  0  0  0  0
   24.5167   17.0000    0.0000 C   0  0  0  0  0  0  0  0  0  0  0  0
    5.4641  -16.0000    0.0000 C   0  0  0  0  0  0  0  0  0  0  0  0
    3.7320  -16.0000    0.0000 C   0  0  0  0  0  0  0  0  0  0  0  0
   24.5167   19.0000    0.0000 C   0  0  0  0  0  0  0  0  0  0  0  0
   25.3827   17.5000    0.0000 C   0  0  0  0  0  0  0  0  0  0  0  0
    5.4641  -17.0000    0.0000 C   0  0  0  0  0  0  0  0  0  0  0  0
    3.7320  -17.0000    0.0000 C   0  0  0  0  0  0  0  0  0  0  0  0
   22.7846   17.0000    0.0000 C   0  0  0  0  0  0  0  0  0  0  0  0
    4.5981  -14.5000    0.0000 C   0  0  0  0  0  0  0  0  0  0  0  0
   22.7846   16.0000    0.0000 C   0  0  0  0  0  0  0  0  0  0  0  0
    5.4641  -14.0000    0.0000 C   0  0  0  0  0  0  0  0  0  0  0  0
   26.2487   19.0000    0.0000 C   0  0  0  0  0  0  0  0  0  0  0  0
    4.5981  -18.5000    0.0000 C   0  0  0  0  0  0  0  0  0  0  0  0
   21.9186   15.5000    0.0000 C   0  0  0  0  0  0  0  0  0  0  0  0
    5.4641  -13.0000    0.0000 C   0  0  0  0  0  0  0  0  0  0  0  0
   27.1147   18.5000    0.0000 C   0  0  0  0  0  0  0  0  0  0  0  0
    3.7320  -19.0000    0.0000 C   0  0  0  0  0  0  0  0  0  0  0  0
   26.2487   20.0000    0.0000 C   0  0  0  0  0  0  0  0  0  0  0  0
    5.4641  -19.0000    0.0000 C   0  0  0  0  0  0  0  0  0  0  0  0
   27.9808   19.0000    0.0000 C   0  0  0  0  0  0  0  0  0  0  0  0
    3.7320  -20.0000    0.0000 C   0  0  0  0  0  0  0  0  0  0  0  0
   27.1147   20.5000    0.0000 C   0  0  0  0  0  0  0  0  0  0  0  0
    5.4641  -20.0000    0.0000 C   0  0  0  0  0  0  0  0  0  0  0  0
   27.9808   20.0000    0.0000 C   0  0  0  0  0  0  0  0  0  0  0  0
    4.5981  -20.5000    0.0000 C   0  0  0  0  0  0  0  0  0  0  0  0
   21.0526   14.0000    0.0000 C   0  0  0  0  0  0  0  0  0  0  0  0
    6.3301  -11.5000    0.0000 C   0  0  0  0  0  0  0  0  0  0  0  0
   27.9808   17.0000    0.0000 C   0  0  0  0  0  0  0  0  0  0  0  0
    2.0000  -19.0000    0.0000 C   0  0  0  0  0  0  0  0  0  0  0  0
   21.0526   13.0000    0.0000 C   0  0  0  0  0  0  0  0  0  0  0  0
    7.1962  -11.0000    0.0000 C   0  0  0  0  0  0  0  0  0  0  0  0
   20.1865   12.5000    0.0000 C   0  0  0  0  0  0  0  0  0  0  0  0
    7.1962  -10.0000    0.0000 C   0  0  0  0  0  0  0  0  0  0  0  0
   21.9186   12.5000    0.0000 C   0  0  0  0  0  0  0  0  0  0  0  0
    8.0622  -11.5000    0.0000 C   0  0  0  0  0  0  0  0  0  0  0  0
   20.1865   11.5000    0.0000 C   0  0  0  0  0  0  0  0  0  0  0  0
    8.0622   -9.5000    0.0000 C   0  0  0  0  0  0  0  0  0  0  0  0
   21.9186   11.5000    0.0000 C   0  0  0  0  0  0  0  0  0  0  0  0
    8.9282  -11.0000    0.0000 C   0  0  0  0  0  0  0  0  0  0  0  0
   21.0526   11.0000    0.0000 C   0  0  0  0  0  0  0  0  0  0  0  0
    8.9282  -10.0000    0.0000 C   0  0  0  0  0  0  0  0  0  0  0  0
   21.0526   10.0000    0.0000 C   0  0  0  0  0  0  0  0  0  0  0  0
    9.7942   -9.5000    0.0000 C   0  0  0  0  0  0  0  0  0  0  0  0
   20.1865    8.5000    0.0000 C   0  0  0  0  0  0  0  0  0  0  0  0
   10.6603   -8.0000    0.0000 C   0  0  0  0  0  0  0  0  0  0  0  0
   19.3205    8.0000    0.0000 C   0  0  0  0  0  0  0  0  0  0  0  0
   10.6603   -7.0000    0.0000 C   0  0  0  0  0  0  0  0  0  0  0  0
   18.4545    6.5000    0.0000 C   0  0  0  0  0  0  0  0  0  0  0  0
   11.5263   -5.5000    0.0000 C   0  0  0  0  0  0  0  0  0  0  0  0
   18.4545    5.5000    0.0000 C   0  0  0  0  0  0  0  0  0  0  0  0
   12.3923   -5.0000    0.0000 C   0  0  0  0  0  0  0  0  0  0  0  0
   17.5885    4.0000    0.0000 C   0  0  0  0  0  0  0  0  0  0  0  0
   13.2583   -3.5000    0.0000 C   0  0  0  0  0  0  0  0  0  0  0  0
   16.7224    3.5000    0.0000 C   0  0  0  0  0  0  0  0  0  0  0  0
   13.2583   -2.5000    0.0000 C   0  0  0  0  0  0  0  0  0  0  0  0
   15.8564    2.0000    0.0000 C   0  0  0  0  0  0  0  0  0  0  0  0
   14.1244   -1.0000    0.0000 C   0  0  0  0  0  0  0  0  0  0  0  0
   15.8564    1.0000    0.0000 C   0  0  0  0  0  0  0  0  0  0  0  0
   14.9904   -0.5000    0.0000 C   0  0  0  0  0  0  0  0  0  0  0  0
   23.4386   19.0826    0.0000 H   0  0  0  0  0  0  0  0  0  0  0  0
   23.0401   18.3923    0.0000 H   0  0  0  0  0  0  0  0  0  0  0  0
   24.1181   16.5251    0.0000 H   0  0  0  0  0  0  0  0  0  0  0  0
   24.9152   16.5251    0.0000 H   0  0  0  0  0  0  0  0  0  0  0  0
    6.0747  -16.1077    0.0000 H   0  0  0  0  0  0  0  0  0  0  0  0
    5.6762  -15.4174    0.0000 H   0  0  0  0  0  0  0  0  0  0  0  0
    3.5200  -15.4174    0.0000 H   0  0  0  0  0  0  0  0  0  0  0  0
    3.1215  -16.1077    0.0000 H   0  0  0  0  0  0  0  0  0  0  0  0
   24.9152   19.4749    0.0000 H   0  0  0  0  0  0  0  0  0  0  0  0
   24.1181   19.4749    0.0000 H   0  0  0  0  0  0  0  0  0  0  0  0
   25.5947   16.9174    0.0000 H   0  0  0  0  0  0  0  0  0  0  0  0
   25.9933   17.6077    0.0000 H   0  0  0  0  0  0  0  0  0  0  0  0
    5.6762  -17.5826    0.0000 H   0  0  0  0  0  0  0  0  0  0  0  0
    6.0747  -16.8923    0.0000 H   0  0  0  0  0  0  0  0  0  0  0  0
    3.1215  -16.8923    0.0000 H   0  0  0  0  0  0  0  0  0  0  0  0
    3.5200  -17.5826    0.0000 H   0  0  0  0  0  0  0  0  0  0  0  0
   22.5726   17.5826    0.0000 H   0  0  0  0  0  0  0  0  0  0  0  0
   22.1740   16.8923    0.0000 H   0  0  0  0  0  0  0  0  0  0  0  0
    4.3860  -13.9174    0.0000 H   0  0  0  0  0  0  0  0  0  0  0  0
    3.9875  -14.6077    0.0000 H   0  0  0  0  0  0  0  0  0  0  0  0
   22.9967   15.4174    0.0000 H   0  0  0  0  0  0  0  0  0  0  0  0
   23.3952   16.1077    0.0000 H   0  0  0  0  0  0  0  0  0  0  0  0
    5.6762  -14.5826    0.0000 H   0  0  0  0  0  0  0  0  0  0  0  0
    6.0747  -13.8923    0.0000 H   0  0  0  0  0  0  0  0  0  0  0  0
   21.7065   16.0826    0.0000 H   0  0  0  0  0  0  0  0  0  0  0  0
   21.3080   15.3923    0.0000 H   0  0  0  0  0  0  0  0  0  0  0  0
    5.2520  -12.4174    0.0000 H   0  0  0  0  0  0  0  0  0  0  0  0
    4.8535  -13.1077    0.0000 H   0  0  0  0  0  0  0  0  0  0  0  0
   25.7118   20.3100    0.0000 H   0  0  0  0  0  0  0  0  0  0  0  0
    6.0010  -18.6900    0.0000 H   0  0  0  0  0  0  0  0  0  0  0  0
   22.4555   14.1900    0.0000 H   0  0  0  0  0  0  0  0  0  0  0  0
    6.8671  -12.8100    0.0000 H   0  0  0  0  0  0  0  0  0  0  0  0
   28.5177   18.6900    0.0000 H   0  0  0  0  0  0  0  0  0  0  0  0
    3.1951  -20.3100    0.0000 H   0  0  0  0  0  0  0  0  0  0  0  0
   27.1147   21.1200    0.0000 H   0  0  0  0  0  0  0  0  0  0  0  0
    6.0010  -20.3100    0.0000 H   0  0  0  0  0  0  0  0  0  0  0  0
   28.5177   20.3100    0.0000 H   0  0  0  0  0  0  0  0  0  0  0  0
    4.5981  -21.1200    0.0000 H   0  0  0  0  0  0  0  0  0  0  0  0
   27.6708   16.4631    0.0000 H   0  0  0  0  0  0  0  0  0  0  0  0
   28.5177   16.6900    0.0000 H   0  0  0  0  0  0  0  0  0  0  0  0
   28.2908   17.5369    0.0000 H   0  0  0  0  0  0  0  0  0  0  0  0
    1.6900  -18.4631    0.0000 H   0  0  0  0  0  0  0  0  0  0  0  0
    1.4631  -19.3100    0.0000 H   0  0  0  0  0  0  0  0  0  0  0  0
    2.3100  -19.5369    0.0000 H   0  0  0  0  0  0  0  0  0  0  0  0
   19.6496   12.8100    0.0000 H   0  0  0  0  0  0  0  0  0  0  0  0
    6.6592   -9.6900    0.0000 H   0  0  0  0  0  0  0  0  0  0  0  0
   22.4555   12.8100    0.0000 H   0  0  0  0  0  0  0  0  0  0  0  0
    8.0622  -12.1200    0.0000 H   0  0  0  0  0  0  0  0  0  0  0  0
   19.6496   11.1900    0.0000 H   0  0  0  0  0  0  0  0  0  0  0  0
    8.0622   -8.8800    0.0000 H   0  0  0  0  0  0  0  0  0  0  0  0
   22.4555   11.1900    0.0000 H   0  0  0  0  0  0  0  0  0  0  0  0
    9.4651  -11.3100    0.0000 H   0  0  0  0  0  0  0  0  0  0  0  0
   21.2646    9.4174    0.0000 H   0  0  0  0  0  0  0  0  0  0  0  0
   21.6631   10.1077    0.0000 H   0  0  0  0  0  0  0  0  0  0  0  0
   10.0063  -10.0826    0.0000 H   0  0  0  0  0  0  0  0  0  0  0  0
   10.4048   -9.3923    0.0000 H   0  0  0  0  0  0  0  0  0  0  0  0
   20.3986    7.9174    0.0000 H   0  0  0  0  0  0  0  0  0  0  0  0
   20.7971    8.6077    0.0000 H   0  0  0  0  0  0  0  0  0  0  0  0
   10.8723   -8.5826    0.0000 H   0  0  0  0  0  0  0  0  0  0  0  0
   11.2708   -7.8923    0.0000 H   0  0  0  0  0  0  0  0  0  0  0  0
   19.1085    8.5826    0.0000 H   0  0  0  0  0  0  0  0  0  0  0  0
   18.7099    7.8923    0.0000 H   0  0  0  0  0  0  0  0  0  0  0  0
   10.4482   -6.4174    0.0000 H   0  0  0  0  0  0  0  0  0  0  0  0
   10.0497   -7.1077    0.0000 H   0  0  0  0  0  0  0  0  0  0  0  0
   18.2424    7.0826    0.0000 H   0  0  0  0  0  0  0  0  0  0  0  0
   17.8439    6.3923    0.0000 H   0  0  0  0  0  0  0  0  0  0  0  0
   11.3142   -4.9174    0.0000 H   0  0  0  0  0  0  0  0  0  0  0  0
   10.9157   -5.6077    0.0000 H   0  0  0  0  0  0  0  0  0  0  0  0
   18.6665    4.9174    0.0000 H   0  0  0  0  0  0  0  0  0  0  0  0
   19.0651    5.6077    0.0000 H   0  0  0  0  0  0  0  0  0  0  0  0
   12.6044   -5.5826    0.0000 H   0  0  0  0  0  0  0  0  0  0  0  0
   13.0029   -4.8923    0.0000 H   0  0  0  0  0  0  0  0  0  0  0  0
   17.8005    3.4174    0.0000 H   0  0  0  0  0  0  0  0  0  0  0  0
   18.1990    4.1077    0.0000 H   0  0  0  0  0  0  0  0  0  0  0  0
   13.4704   -4.0826    0.0000 H   0  0  0  0  0  0  0  0  0  0  0  0
   13.8689   -3.3923    0.0000 H   0  0  0  0  0  0  0  0  0  0  0  0
   16.5104    4.0826    0.0000 H   0  0  0  0  0  0  0  0  0  0  0  0
   16.1119    3.3923    0.0000 H   0  0  0  0  0  0  0  0  0  0  0  0
   13.0463   -1.9174    0.0000 H   0  0  0  0  0  0  0  0  0  0  0  0
   12.6477   -2.6077    0.0000 H   0  0  0  0  0  0  0  0  0  0  0  0
   15.6444    2.5826    0.0000 H   0  0  0  0  0  0  0  0  0  0  0  0
   15.2458    1.8923    0.0000 H   0  0  0  0  0  0  0  0  0  0  0  0
   13.9123   -0.4174    0.0000 H   0  0  0  0  0  0  0  0  0  0  0  0
   13.5138   -1.1077    0.0000 H   0  0  0  0  0  0  0  0  0  0  0  0
   16.0685    0.4174    0.0000 H   0  0  0  0  0  0  0  0  0  0  0  0
   16.4670    1.1077    0.0000 H   0  0  0  0  0  0  0  0  0  0  0  0
   15.2024   -1.0826    0.0000 H   0  0  0  0  0  0  0  0  0  0  0  0
   15.6010   -0.3923    0.0000 H   0  0  0  0  0  0  0  0  0  0  0  0
  1 36  1  0  0  0  0
  1 48  1  0  0  0  0
  2 37  1  0  0  0  0
  2 49  1  0  0  0  0
  3 46  2  0  0  0  0
  4 47  2  0  0  0  0
  5 62  1  0  0  0  0
  5 64  1  0  0  0  0
  6 63  1  0  0  0  0
  6 65  1  0  0  0  0
  7 66  1  0  0  0  0
  7 68  1  0  0  0  0
  8 67  1  0  0  0  0
  8 69  1  0  0  0  0
  9 70  1  0  0  0  0
  9 72  1  0  0  0  0
 10 71  1  0  0  0  0
 10 73  1  0  0  0  0
 11 74  1  0  0  0  0
 11 76  1  0  0  0  0
 12 75  1  0  0  0  0
 12 77  1  0  0  0  0
 13 78  1  0  0  0  0
 13 79  1  0  0  0  0
 14 20  1  0  0  0  0
 14 21  1  0  0  0  0
 14 28  1  0  0  0  0
 15 22  1  0  0  0  0
 15 23  1  0  0  0  0
 15 29  1  0  0  0  0
 16 24  1  0  0  0  0
 16 25  1  0  0  0  0
 16 32  1  0  0  0  0
 17 26  1  0  0  0  0
 17 27  1  0  0  0  0
 17 33  1  0  0  0  0
 18 34  1  0  0  0  0
 18 46  1  0  0  0  0
 18110  1  0  0  0  0
 19 35  1  0  0  0  0
 19 47  1  0  0  0  0
 19111  1  0  0  0  0
 20 24  1  0  0  0  0
 20 80  1  0  0  0  0
 20 81  1  0  0  0  0
 21 25  1  0  0  0  0
 21 82  1  0  0  0  0
 21 83  1  0  0  0  0
 22 26  1  0  0  0  0
 22 84  1  0  0  0  0
 22 85  1  0  0  0  0
 23 27  1  0  0  0  0
 23 86  1  0  0  0  0
 23 87  1  0  0  0  0
 24 88  1  0  0  0  0
 24 89  1  0  0  0  0
 25 90  1  0  0  0  0
 25 91  1  0  0  0  0
 26 92  1  0  0  0  0
 26 93  1  0  0  0  0
 27 94  1  0  0  0  0
 27 95  1  0  0  0  0
 28 30  1  0  0  0  0
 28 96  1  0  0  0  0
 28 97  1  0  0  0  0
 29 31  1  0  0  0  0
 29 98  1  0  0  0  0
 29 99  1  0  0  0  0
 30 34  1  0  0  0  0
 30100  1  0  0  0  0
 30101  1  0  0  0  0
 31 35  1  0  0  0  0
 31102  1  0  0  0  0
 31103  1  0  0  0  0
 32 36  1  0  0  0  0
 32 38  2  0  0  0  0
 33 37  1  0  0  0  0
 33 39  2  0  0  0  0
 34104  1  0  0  0  0
 34105  1  0  0  0  0
 35106  1  0  0  0  0
 35107  1  0  0  0  0
 36 40  2  0  0  0  0
 37 41  2  0  0  0  0
 38 42  1  0  0  0  0
 38108  1  0  0  0  0
 39 43  1  0  0  0  0
 39109  1  0  0  0  0
 40 44  1  0  0  0  0
 40112  1  0  0  0  0
 41 45  1  0  0  0  0
 41113  1  0  0  0  0
 42 44  2  0  0  0  0
 42114  1  0  0  0  0
 43 45  2  0  0  0  0
 43115  1  0  0  0  0
 44116  1  0  0  0  0
 45117  1  0  0  0  0
 46 50  1  0  0  0  0
 47 51  1  0  0  0  0
 48118  1  0  0  0  0
 48119  1  0  0  0  0
 48120  1  0  0  0  0
 49121  1  0  0  0  0
 49122  1  0  0  0  0
 49123  1  0  0  0  0
 50 52  2  0  0  0  0
 50 54  1  0  0  0  0
 51 53  2  0  0  0  0
 51 55  1  0  0  0  0
 52 56  1  0  0  0  0
 52124  1  0  0  0  0
 53 57  1  0  0  0  0
 53125  1  0  0  0  0
 54 58  2  0  0  0  0
 54126  1  0  0  0  0
 55 59  2  0  0  0  0
 55127  1  0  0  0  0
 56 60  2  0  0  0  0
 56128  1  0  0  0  0
 57 61  2  0  0  0  0
 57129  1  0  0  0  0
 58 60  1  0  0  0  0
 58130  1  0  0  0  0
 59 61  1  0  0  0  0
 59131  1  0  0  0  0
 60 62  1  0  0  0  0
 61 63  1  0  0  0  0
 62132  1  0  0  0  0
 62133  1  0  0  0  0
 63134  1  0  0  0  0
 63135  1  0  0  0  0
 64 66  1  0  0  0  0
 64136  1  0  0  0  0
 64137  1  0  0  0  0
 65 67  1  0  0  0  0
 65138  1  0  0  0  0
 65139  1  0  0  0  0
 66140  1  0  0  0  0
 66141  1  0  0  0  0
 67142  1  0  0  0  0
 67143  1  0  0  0  0
 68 70  1  0  0  0  0
 68144  1  0  0  0  0
 68145  1  0  0  0  0
 69 71  1  0  0  0  0
 69146  1  0  0  0  0
 69147  1  0  0  0  0
 70148  1  0  0  0  0
 70149  1  0  0  0  0
 71150  1  0  0  0  0
 71151  1  0  0  0  0
 72 74  1  0  0  0  0
 72152  1  0  0  0  0
 72153  1  0  0  0  0
 73 75  1  0  0  0  0
 73154  1  0  0  0  0
 73155  1  0  0  0  0
 74156  1  0  0  0  0
 74157  1  0  0  0  0
 75158  1  0  0  0  0
 75159  1  0  0  0  0
 76 78  1  0  0  0  0
 76160  1  0  0  0  0
 76161  1  0  0  0  0
 77 79  1  0  0  0  0
 77162  1  0  0  0  0
 77163  1  0  0  0  0
 78164  1  0  0  0  0
 78165  1  0  0  0  0
 79166  1  0  0  0  0
 79167  1  0  0  0  0
M  END
> <PUBCHEM_COMPOUND_CID>
57393627

> <PUBCHEM_COMPOUND_CANONICALIZED>
1

> <PUBCHEM_CACTVS_COMPLEXITY>
1410

> <PUBCHEM_CACTVS_HBOND_ACCEPTOR>
17

> <PUBCHEM_CACTVS_HBOND_DONOR>
2

> <PUBCHEM_CACTVS_ROTATABLE_BOND>
42

> <PUBCHEM_CACTVS_SUBSKEYS>
AAADcfB/vAAAAAAAAAAAAAAAAAAAAAAAAAA8eMGCAAAAAAABVAAAHgAQAAAADAzhmAYyxoPABACIAiVSUACCCAAlIgAIiIEPbMgPZjLE9ZuXMShk1hHa6YeYyDCOQAAAAAAAEACAAAAAAAAgAAAAAAAAAA==

> <PUBCHEM_IUPAC_OPENEYE_NAME>
N-[3-[4-(2-methoxyphenyl)piperazin-1-yl]propyl]-4-[2-[2-[2-[2-[2-[2-[2-[2-[[4-[3-[4-(2-methoxyphenyl)piperazin-1-yl]propylcarbamoyl]phenyl]methoxy]ethoxy]ethoxy]ethoxy]ethoxy]ethoxy]ethoxy]ethoxy]ethoxymethyl]benzamide

> <PUBCHEM_IUPAC_CAS_NAME>
N-[3-[4-(2-methoxyphenyl)-1-piperazinyl]propyl]-4-[2-[2-[2-[2-[2-[2-[2-[2-[[4-[[3-[4-(2-methoxyphenyl)-1-piperazinyl]propylamino]-oxomethyl]phenyl]methoxy]ethoxy]ethoxy]ethoxy]ethoxy]ethoxy]ethoxy]ethoxy]ethoxymethyl]benzamide

> <PUBCHEM_IUPAC_NAME_MARKUP>
<I>N</I>-[3-[4-(2-methoxyphenyl)piperazin-1-yl]propyl]-4-[2-[2-[2-[2-[2-[2-[2-[2-[[4-[3-[4-(2-methoxyphenyl)piperazin-1-yl]propylcarbamoyl]phenyl]methoxy]ethoxy]ethoxy]ethoxy]ethoxy]ethoxy]ethoxy]ethoxy]ethoxymethyl]benzamide

> <PUBCHEM_IUPAC_NAME>
N-[3-[4-(2-methoxyphenyl)piperazin-1-yl]propyl]-4-[2-[2-[2-[2-[2-[2-[2-[2-[[4-[3-[4-(2-methoxyphenyl)piperazin-1-yl]propylcarbamoyl]phenyl]methoxy]ethoxy]ethoxy]ethoxy]ethoxy]ethoxy]ethoxy]ethoxy]ethoxymethyl]benzamide

> <PUBCHEM_IUPAC_SYSTEMATIC_NAME>
N-[3-[4-(2-methoxyphenyl)piperazin-1-yl]propyl]-4-[2-[2-[2-[2-[2-[2-[2-[2-[[4-[3-[4-(2-methoxyphenyl)piperazin-1-yl]propylcarbamoyl]phenyl]methoxy]ethoxy]ethoxy]ethoxy]ethoxy]ethoxy]ethoxy]ethoxy]ethoxymethyl]benzamide

> <PUBCHEM_IUPAC_TRADITIONAL_NAME>
N-[3-[4-(2-methoxyphenyl)piperazino]propyl]-4-[2-[2-[2-[2-[2-[2-[2-[2-[4-[3-[4-(2-methoxyphenyl)piperazino]propylcarbamoyl]benzyl]oxyethoxy]ethoxy]ethoxy]ethoxy]ethoxy]ethoxy]ethoxy]ethoxymethyl]benzamide

> <PUBCHEM_IUPAC_INCHI>
InChI=1S/C60H88N6O13/c1-69-57-11-5-3-9-55(57)65-29-25-63(26-30-65)23-7-21-61-59(67)53-17-13-51(14-18-53)49-78-47-45-76-43-41-74-39-37-72-35-33-71-34-36-73-38-40-75-42-44-77-46-48-79-50-52-15-19-54(20-16-52)60(68)62-22-8-24-64-27-31-66(32-28-64)56-10-4-6-12-58(56)70-2/h3-6,9-20H,7-8,21-50H2,1-2H3,(H,61,67)(H,62,68)

> <PUBCHEM_IUPAC_INCHIKEY>
FKPUMTSFODZMAY-UHFFFAOYSA-N

> <PUBCHEM_XLOGP3_AA>
4.4

> <PUBCHEM_EXACT_MASS>
1100.64093688

> <PUBCHEM_MOLECULAR_FORMULA>
C60H88N6O13

> <PUBCHEM_MOLECULAR_WEIGHT>
1101.4

> <PUBCHEM_OPENEYE_CAN_SMILES>
COC1=CC=CC=C1N2CCN(CC2)CCCNC(=O)C3=CC=C(C=C3)COCCOCCOCCOCCOCCOCCOCCOCCOCC4=CC=C(C=C4)C(=O)NCCCN5CCN(CC5)C6=CC=CC=C6OC

> <PUBCHEM_OPENEYE_ISO_SMILES>
COC1=CC=CC=C1N2CCN(CC2)CCCNC(=O)C3=CC=C(C=C3)COCCOCCOCCOCCOCCOCCOCCOCCOCC4=CC=C(C=C4)C(=O)NCCCN5CCN(CC5)C6=CC=CC=C6OC

> <PUBCHEM_CACTVS_TPSA>
173

> <PUBCHEM_MONOISOTOPIC_WEIGHT>
1100.64093688

> <PUBCHEM_TOTAL_CHARGE>
0

> <PUBCHEM_HEAVY_ATOM_COUNT>
79

> <PUBCHEM_ATOM_DEF_STEREO_COUNT>
0

> <PUBCHEM_ATOM_UDEF_STEREO_COUNT>
0

> <PUBCHEM_BOND_DEF_STEREO_COUNT>
0

> <PUBCHEM_BOND_UDEF_STEREO_COUNT>
0

> <PUBCHEM_ISOTOPIC_ATOM_COUNT>
0

> <PUBCHEM_COMPONENT_COUNT>
1

> <PUBCHEM_CACTVS_TAUTO_COUNT>
-1

> <PUBCHEM_COORDINATE_TYPE>
1
5
255

> <PUBCHEM_BONDANNOTATIONS>
32  36  8
32  38  8
33  37  8
33  39  8
36  40  8
37  41  8
38  42  8
39  43  8
40  44  8
41  45  8
42  44  8
43  45  8
50  52  8
50  54  8
51  53  8
51  55  8
52  56  8
53  57  8
54  58  8
55  59  8
56  60  8
57  61  8
58  60  8
59  61  8

$$$$
