44352684
  -OEChem-09292322032D

 80 83  0     0  0  0  0  0  0999 V2000
    2.2690    9.1190    0.0000 O   0  0  0  0  0  0  0  0  0  0  0  0
    0.5369    6.1190    0.0000 O   0  0  0  0  0  0  0  0  0  0  0  0
    8.4230    1.0000    0.0000 O   0  0  0  0  0  0  0  0  0  0  0  0
    4.0929    1.5000    0.0000 O   0  0  0  0  0  0  0  0  0  0  0  0
    7.5570    2.5000    0.0000 O   0  0  0  0  0  0  0  0  0  0  0  0
    4.9589    0.0000    0.0000 O   0  0  0  0  0  0  0  0  0  0  0  0
    6.6596   10.2372    0.0000 N   0  0  0  0  0  0  0  0  0  0  0  0
    4.0812    7.9237    0.0000 N   0  0  0  0  0  0  0  0  0  0  0  0
    4.0812    6.3142    0.0000 N   0  0  0  0  0  0  0  0  0  0  0  0
    2.2690    6.1190    0.0000 N   0  0  0  0  0  0  0  0  0  0  0  0
    1.4030    7.6190    0.0000 N   0  0  0  0  0  0  0  0  0  0  0  0
    8.6166   10.6496    0.0000 C   0  0  0  0  0  0  0  0  0  0  0  0
    7.9487   11.3939    0.0000 C   0  0  0  0  0  0  0  0  0  0  0  0
    8.3059    9.6991    0.0000 C   0  0  0  0  0  0  0  0  0  0  0  0
    9.5951   10.8558    0.0000 C   0  0  0  0  0  0  0  0  0  0  0  0
    6.9702   11.1877    0.0000 C   0  0  0  0  0  0  0  0  0  0  0  0
    7.3274    9.4929    0.0000 C   0  0  0  0  0  0  0  0  0  0  0  0
    5.6811   10.0310    0.0000 C   0  0  0  0  0  0  0  0  0  0  0  0
    9.9058   11.8064    0.0000 C   0  0  0  0  0  0  0  0  0  0  0  0
   10.2629   10.1115    0.0000 C   0  0  0  0  0  0  0  0  0  0  0  0
    5.3704    9.0804    0.0000 C   0  0  0  0  0  0  0  0  0  0  0  0
    4.3919    8.8742    0.0000 C   0  0  0  0  0  0  0  0  0  0  0  0
   10.8843   12.0126    0.0000 C   0  0  0  0  0  0  0  0  0  0  0  0
   11.2414   10.3178    0.0000 C   0  0  0  0  0  0  0  0  0  0  0  0
    9.2379   12.5507    0.0000 C   0  0  0  0  0  0  0  0  0  0  0  0
    9.9523    9.1610    0.0000 C   0  0  0  0  0  0  0  0  0  0  0  0
   11.1949   12.9631    0.0000 C   0  0  0  0  0  0  0  0  0  0  0  0
   11.9093    9.5734    0.0000 C   0  0  0  0  0  0  0  0  0  0  0  0
    9.5486   13.5012    0.0000 C   0  0  0  0  0  0  0  0  0  0  0  0
   10.6201    8.4167    0.0000 C   0  0  0  0  0  0  0  0  0  0  0  0
    3.1350    7.6190    0.0000 C   0  0  0  0  0  0  0  0  0  0  0  0
   10.5271   13.7074    0.0000 C   0  0  0  0  0  0  0  0  0  0  0  0
   11.5986    8.6229    0.0000 C   0  0  0  0  0  0  0  0  0  0  0  0
    4.6648    7.1190    0.0000 C   0  0  0  0  0  0  0  0  0  0  0  0
    3.1350    6.6190    0.0000 C   0  0  0  0  0  0  0  0  0  0  0  0
    2.2690    8.1190    0.0000 C   0  0  0  0  0  0  0  0  0  0  0  0
    1.4030    6.6190    0.0000 C   0  0  0  0  0  0  0  0  0  0  0  0
    2.2690    5.1190    0.0000 C   0  0  0  0  0  0  0  0  0  0  0  0
    0.5369    8.1190    0.0000 C   0  0  0  0  0  0  0  0  0  0  0  0
    6.6910    1.0000    0.0000 C   0  0  0  0  0  0  0  0  0  0  0  0
    5.8250    1.5000    0.0000 C   0  0  0  0  0  0  0  0  0  0  0  0
    7.5570    1.5000    0.0000 C   0  0  0  0  0  0  0  0  0  0  0  0
    4.9589    1.0000    0.0000 C   0  0  0  0  0  0  0  0  0  0  0  0
    9.0306   10.1882    0.0000 H   0  0  0  0  0  0  0  0  0  0  0  0
    8.4751   11.7216    0.0000 H   0  0  0  0  0  0  0  0  0  0  0  0
    7.7175   11.9692    0.0000 H   0  0  0  0  0  0  0  0  0  0  0  0
    8.3265    9.0794    0.0000 H   0  0  0  0  0  0  0  0  0  0  0  0
    8.9197    9.6118    0.0000 H   0  0  0  0  0  0  0  0  0  0  0  0
    9.1810   11.3173    0.0000 H   0  0  0  0  0  0  0  0  0  0  0  0
    6.9497   11.8074    0.0000 H   0  0  0  0  0  0  0  0  0  0  0  0
    6.3564   11.2751    0.0000 H   0  0  0  0  0  0  0  0  0  0  0  0
    6.8010    9.1652    0.0000 H   0  0  0  0  0  0  0  0  0  0  0  0
    7.5587    8.9176    0.0000 H   0  0  0  0  0  0  0  0  0  0  0  0
    5.6605   10.6506    0.0000 H   0  0  0  0  0  0  0  0  0  0  0  0
    5.0672   10.1183    0.0000 H   0  0  0  0  0  0  0  0  0  0  0  0
    5.3910    8.4608    0.0000 H   0  0  0  0  0  0  0  0  0  0  0  0
    5.9842    8.9931    0.0000 H   0  0  0  0  0  0  0  0  0  0  0  0
    4.3713    9.4939    0.0000 H   0  0  0  0  0  0  0  0  0  0  0  0
    3.7781    8.9616    0.0000 H   0  0  0  0  0  0  0  0  0  0  0  0
   11.2983   11.5511    0.0000 H   0  0  0  0  0  0  0  0  0  0  0  0
   11.4340   10.9071    0.0000 H   0  0  0  0  0  0  0  0  0  0  0  0
    8.6312   12.4228    0.0000 H   0  0  0  0  0  0  0  0  0  0  0  0
    9.3456    9.0332    0.0000 H   0  0  0  0  0  0  0  0  0  0  0  0
   11.8016   13.0910    0.0000 H   0  0  0  0  0  0  0  0  0  0  0  0
   12.5160    9.7013    0.0000 H   0  0  0  0  0  0  0  0  0  0  0  0
    9.1345   13.9626    0.0000 H   0  0  0  0  0  0  0  0  0  0  0  0
   10.4275    7.8274    0.0000 H   0  0  0  0  0  0  0  0  0  0  0  0
   10.7197   14.2967    0.0000 H   0  0  0  0  0  0  0  0  0  0  0  0
   12.0127    8.1615    0.0000 H   0  0  0  0  0  0  0  0  0  0  0  0
    5.2848    7.1190    0.0000 H   0  0  0  0  0  0  0  0  0  0  0  0
    1.6490    5.1190    0.0000 H   0  0  0  0  0  0  0  0  0  0  0  0
    2.2690    4.4990    0.0000 H   0  0  0  0  0  0  0  0  0  0  0  0
    2.8890    5.1190    0.0000 H   0  0  0  0  0  0  0  0  0  0  0  0
    0.8469    8.6559    0.0000 H   0  0  0  0  0  0  0  0  0  0  0  0
    0.0000    8.4290    0.0000 H   0  0  0  0  0  0  0  0  0  0  0  0
    0.2269    7.5820    0.0000 H   0  0  0  0  0  0  0  0  0  0  0  0
    6.6910    0.3800    0.0000 H   0  0  0  0  0  0  0  0  0  0  0  0
    5.8250    2.1200    0.0000 H   0  0  0  0  0  0  0  0  0  0  0  0
    8.9600    1.3100    0.0000 H   0  0  0  0  0  0  0  0  0  0  0  0
    3.5560    1.1900    0.0000 H   0  0  0  0  0  0  0  0  0  0  0  0
  1 36  2  0  0  0  0
  2 37  2  0  0  0  0
  3 42  1  0  0  0  0
  3 79  1  0  0  0  0
  4 43  1  0  0  0  0
  4 80  1  0  0  0  0
  5 42  2  0  0  0  0
  6 43  2  0  0  0  0
  7 16  1  0  0  0  0
  7 17  1  0  0  0  0
  7 18  1  0  0  0  0
  8 22  1  0  0  0  0
  8 31  1  0  0  0  0
  8 34  1  0  0  0  0
  9 34  2  0  0  0  0
  9 35  1  0  0  0  0
 10 35  1  0  0  0  0
 10 37  1  0  0  0  0
 10 38  1  0  0  0  0
 11 36  1  0  0  0  0
 11 37  1  0  0  0  0
 11 39  1  0  0  0  0
 12 13  1  0  0  0  0
 12 14  1  0  0  0  0
 12 15  1  0  0  0  0
 12 44  1  0  0  0  0
 13 16  1  0  0  0  0
 13 45  1  0  0  0  0
 13 46  1  0  0  0  0
 14 17  1  0  0  0  0
 14 47  1  0  0  0  0
 14 48  1  0  0  0  0
 15 19  1  0  0  0  0
 15 20  1  0  0  0  0
 15 49  1  0  0  0  0
 16 50  1  0  0  0  0
 16 51  1  0  0  0  0
 17 52  1  0  0  0  0
 17 53  1  0  0  0  0
 18 21  1  0  0  0  0
 18 54  1  0  0  0  0
 18 55  1  0  0  0  0
 19 23  2  0  0  0  0
 19 25  1  0  0  0  0
 20 24  2  0  0  0  0
 20 26  1  0  0  0  0
 21 22  1  0  0  0  0
 21 56  1  0  0  0  0
 21 57  1  0  0  0  0
 22 58  1  0  0  0  0
 22 59  1  0  0  0  0
 23 27  1  0  0  0  0
 23 60  1  0  0  0  0
 24 28  1  0  0  0  0
 24 61  1  0  0  0  0
 25 29  2  0  0  0  0
 25 62  1  0  0  0  0
 26 30  2  0  0  0  0
 26 63  1  0  0  0  0
 27 32  2  0  0  0  0
 27 64  1  0  0  0  0
 28 33  2  0  0  0  0
 28 65  1  0  0  0  0
 29 32  1  0  0  0  0
 29 66  1  0  0  0  0
 30 33  1  0  0  0  0
 30 67  1  0  0  0  0
 31 35  2  0  0  0  0
 31 36  1  0  0  0  0
 32 68  1  0  0  0  0
 33 69  1  0  0  0  0
 34 70  1  0  0  0  0
 38 71  1  0  0  0  0
 38 72  1  0  0  0  0
 38 73  1  0  0  0  0
 39 74  1  0  0  0  0
 39 75  1  0  0  0  0
 39 76  1  0  0  0  0
 40 41  2  0  0  0  0
 40 42  1  0  0  0  0
 40 77  1  0  0  0  0
 41 43  1  0  0  0  0
 41 78  1  0  0  0  0
M  END
> <PUBCHEM_COMPOUND_CID>
44352684

> <PUBCHEM_COMPOUND_CANONICALIZED>
1

> <PUBCHEM_CACTVS_COMPLEXITY>
828

> <PUBCHEM_CACTVS_HBOND_ACCEPTOR>
8

> <PUBCHEM_CACTVS_HBOND_DONOR>
2

> <PUBCHEM_CACTVS_ROTATABLE_BOND>
9

> <PUBCHEM_CACTVS_SUBSKEYS>
AAADcfB/uAAAAAAAAAAAAAAAAAAAAWAAAAA8eIEAAAAAAFgB0AAAHgAACAAADQjBngQ3uJcMEgCoAyfzfACCgC03EKAJ2AGoVMiIbCrA2TCUMIgohyLImecQgMAOgAAAAAAAAAAAAAAAAAAAAAAAAAAAAA==

> <PUBCHEM_IUPAC_OPENEYE_NAME>
7-[3-(4-benzhydryl-1-piperidyl)propyl]-1,3-dimethyl-purine-2,6-dione;fumaric acid

> <PUBCHEM_IUPAC_CAS_NAME>
(E)-2-butenedioic acid;7-[3-[4-(diphenylmethyl)-1-piperidinyl]propyl]-1,3-dimethylpurine-2,6-dione

> <PUBCHEM_IUPAC_NAME_MARKUP>
7-[3-(4-benzhydrylpiperidin-1-yl)propyl]-1,3-dimethylpurine-2,6-dione;(<I>E</I>)-but-2-enedioic acid

> <PUBCHEM_IUPAC_NAME>
7-[3-(4-benzhydrylpiperidin-1-yl)propyl]-1,3-dimethylpurine-2,6-dione;(E)-but-2-enedioic acid

> <PUBCHEM_IUPAC_SYSTEMATIC_NAME>
(E)-but-2-enedioic acid;7-[3-[4-(diphenylmethyl)piperidin-1-yl]propyl]-1,3-dimethyl-purine-2,6-dione

> <PUBCHEM_IUPAC_TRADITIONAL_NAME>
7-[3-(4-benzhydrylpiperidino)propyl]-1,3-dimethyl-xanthine;fumaric acid

> <PUBCHEM_IUPAC_INCHI>
InChI=1S/C28H33N5O2.C4H4O4/c1-30-26-25(27(34)31(2)28(30)35)33(20-29-26)17-9-16-32-18-14-23(15-19-32)24(21-10-5-3-6-11-21)22-12-7-4-8-13-22;5-3(6)1-2-4(7)8/h3-8,10-13,20,23-24H,9,14-19H2,1-2H3;1-2H,(H,5,6)(H,7,8)/b;2-1+

> <PUBCHEM_IUPAC_INCHIKEY>
WKFCYPFWSNYPKN-WLHGVMLRSA-N

> <PUBCHEM_EXACT_MASS>
587.27438392

> <PUBCHEM_MOLECULAR_FORMULA>
C32H37N5O6

> <PUBCHEM_MOLECULAR_WEIGHT>
587.7

> <PUBCHEM_OPENEYE_CAN_SMILES>
CN1C2=C(C(=O)N(C1=O)C)N(C=N2)CCCN3CCC(CC3)C(C4=CC=CC=C4)C5=CC=CC=C5.C(=CC(=O)O)C(=O)O

> <PUBCHEM_OPENEYE_ISO_SMILES>
CN1C2=C(C(=O)N(C1=O)C)N(C=N2)CCCN3CCC(CC3)C(C4=CC=CC=C4)C5=CC=CC=C5.C(=C/C(=O)O)\C(=O)O

> <PUBCHEM_CACTVS_TPSA>
136

> <PUBCHEM_MONOISOTOPIC_WEIGHT>
587.27438392

> <PUBCHEM_TOTAL_CHARGE>
0

> <PUBCHEM_HEAVY_ATOM_COUNT>
43

> <PUBCHEM_ATOM_DEF_STEREO_COUNT>
0

> <PUBCHEM_ATOM_UDEF_STEREO_COUNT>
0

> <PUBCHEM_BOND_DEF_STEREO_COUNT>
1

> <PUBCHEM_BOND_UDEF_STEREO_COUNT>
0

> <PUBCHEM_ISOTOPIC_ATOM_COUNT>
0

> <PUBCHEM_COMPONENT_COUNT>
2

> <PUBCHEM_CACTVS_TAUTO_COUNT>
-1

> <PUBCHEM_COORDINATE_TYPE>
1
5
255

> <PUBCHEM_BONDANNOTATIONS>
10  35  8
10  37  8
11  36  8
11  37  8
19  23  8
19  25  8
20  24  8
20  26  8
23  27  8
24  28  8
25  29  8
26  30  8
27  32  8
28  33  8
29  32  8
30  33  8
31  35  8
31  36  8
8  31  8
8  34  8
9  34  8
9  35  8

$$$$
