45272616
  -OEChem-09292322282D

 56 59  0     1  0  0  0  0  0999 V2000
    2.0000   -3.1974    0.0000 Cl  0  0  0  0  0  0  0  0  0  0  0  0
    6.7286   -2.4320    0.0000 O   0  0  0  0  0  0  0  0  0  0  0  0
    8.4416    0.9862    0.0000 N   0  0  3  0  0  0  0  0  0  0  0  0
    6.3885   -0.6827    0.0000 N   0  0  0  0  0  0  0  0  0  0  0  0
    5.1135   -1.6788    0.0000 N   0  0  0  0  0  0  0  0  0  0  0  0
   10.4916    1.2926    0.0000 C   0  0  2  0  0  0  0  0  0  0  0  0
   10.0138    3.2412    0.0000 C   0  0  0  0  0  0  0  0  0  0  0  0
   10.7505    2.2586    0.0000 C   0  0  1  0  0  0  0  0  0  0  0  0
   11.8906    0.7838    0.0000 C   0  0  0  0  0  0  0  0  0  0  0  0
   12.1494    1.7498    0.0000 C   0  0  0  0  0  0  0  0  0  0  0  0
    9.2706    0.4270    0.0000 C   0  0  0  0  0  0  0  0  0  0  0  0
    8.7172    1.9474    0.0000 C   0  0  0  0  0  0  0  0  0  0  0  0
   10.2328    0.3267    0.0000 C   0  0  0  0  0  0  0  0  0  0  0  0
   10.1184    4.2357    0.0000 C   0  0  0  0  0  0  0  0  0  0  0  0
    9.1003    3.6479    0.0000 C   0  0  0  0  0  0  0  0  0  0  0  0
    7.5019    0.6442    0.0000 C   0  0  0  0  0  0  0  0  0  0  0  0
    7.3282   -0.3407    0.0000 C   0  0  0  0  0  0  0  0  0  0  0  0
    5.5595   -0.1235    0.0000 C   0  0  0  0  0  0  0  0  0  0  0  0
    6.1129   -1.6439    0.0000 C   0  0  0  0  0  0  0  0  0  0  0  0
    4.7715   -0.7391    0.0000 C   0  0  0  0  0  0  0  0  0  0  0  0
    4.5543   -2.5079    0.0000 C   0  0  0  0  0  0  0  0  0  0  0  0
    3.5568   -2.4381    0.0000 C   0  0  0  0  0  0  0  0  0  0  0  0
    4.9927   -3.4067    0.0000 C   0  0  0  0  0  0  0  0  0  0  0  0
    2.9976   -3.2672    0.0000 C   0  0  0  0  0  0  0  0  0  0  0  0
    4.4335   -4.2357    0.0000 C   0  0  0  0  0  0  0  0  0  0  0  0
    3.4359   -4.1659    0.0000 C   0  0  0  0  0  0  0  0  0  0  0  0
   10.9705    3.0796    0.0000 H   0  0  0  0  0  0  0  0  0  0  0  0
   11.6956    0.1953    0.0000 H   0  0  0  0  0  0  0  0  0  0  0  0
   12.4845    0.6060    0.0000 H   0  0  0  0  0  0  0  0  0  0  0  0
   12.7434    1.5720    0.0000 H   0  0  0  0  0  0  0  0  0  0  0  0
   12.3443    2.3383    0.0000 H   0  0  0  0  0  0  0  0  0  0  0  0
    8.8648   -0.0417    0.0000 H   0  0  0  0  0  0  0  0  0  0  0  0
    9.6873   -0.0321    0.0000 H   0  0  0  0  0  0  0  0  0  0  0  0
    8.7122    2.5674    0.0000 H   0  0  0  0  0  0  0  0  0  0  0  0
    8.1029    2.0312    0.0000 H   0  0  0  0  0  0  0  0  0  0  0  0
    9.6339    0.4872    0.0000 H   0  0  0  0  0  0  0  0  0  0  0  0
   10.0724   -0.2722    0.0000 H   0  0  0  0  0  0  0  0  0  0  0  0
   10.8317    0.1662    0.0000 H   0  0  0  0  0  0  0  0  0  0  0  0
   10.7350    4.1709    0.0000 H   0  0  0  0  0  0  0  0  0  0  0  0
   10.1832    4.8523    0.0000 H   0  0  0  0  0  0  0  0  0  0  0  0
    9.5018    4.3005    0.0000 H   0  0  0  0  0  0  0  0  0  0  0  0
    9.3525    4.2143    0.0000 H   0  0  0  0  0  0  0  0  0  0  0  0
    8.5339    3.9001    0.0000 H   0  0  0  0  0  0  0  0  0  0  0  0
    8.8481    3.0815    0.0000 H   0  0  0  0  0  0  0  0  0  0  0  0
    7.3942    1.2547    0.0000 H   0  0  0  0  0  0  0  0  0  0  0  0
    6.8819    0.6442    0.0000 H   0  0  0  0  0  0  0  0  0  0  0  0
    7.4359   -0.9512    0.0000 H   0  0  0  0  0  0  0  0  0  0  0  0
    7.9482   -0.3407    0.0000 H   0  0  0  0  0  0  0  0  0  0  0  0
    5.9580    0.3515    0.0000 H   0  0  0  0  0  0  0  0  0  0  0  0
    5.1288    0.3225    0.0000 H   0  0  0  0  0  0  0  0  0  0  0  0
    4.4429   -0.2134    0.0000 H   0  0  0  0  0  0  0  0  0  0  0  0
    4.2142   -1.0109    0.0000 H   0  0  0  0  0  0  0  0  0  0  0  0
    3.2850   -1.8809    0.0000 H   0  0  0  0  0  0  0  0  0  0  0  0
    5.6112   -3.4499    0.0000 H   0  0  0  0  0  0  0  0  0  0  0  0
    4.7053   -4.7930    0.0000 H   0  0  0  0  0  0  0  0  0  0  0  0
    3.0892   -4.6800    0.0000 H   0  0  0  0  0  0  0  0  0  0  0  0
  1 24  1  0  0  0  0
  2 19  2  0  0  0  0
  3 11  1  0  0  0  0
  3 12  1  0  0  0  0
  3 16  1  0  0  0  0
  4 17  1  0  0  0  0
  4 18  1  0  0  0  0
  4 19  1  0  0  0  0
  5 19  1  0  0  0  0
  5 20  1  0  0  0  0
  5 21  1  0  0  0  0
  6  7  1  0  0  0  0
  6  9  1  0  0  0  0
  6 11  1  0  0  0  0
  6 13  1  1  0  0  0
  7  8  1  0  0  0  0
  7 14  1  0  0  0  0
  7 15  1  0  0  0  0
  8 10  1  0  0  0  0
  8 12  1  0  0  0  0
  8 27  1  6  0  0  0
  9 10  1  0  0  0  0
  9 28  1  0  0  0  0
  9 29  1  0  0  0  0
 10 30  1  0  0  0  0
 10 31  1  0  0  0  0
 11 32  1  0  0  0  0
 11 33  1  0  0  0  0
 12 34  1  0  0  0  0
 12 35  1  0  0  0  0
 13 36  1  0  0  0  0
 13 37  1  0  0  0  0
 13 38  1  0  0  0  0
 14 39  1  0  0  0  0
 14 40  1  0  0  0  0
 14 41  1  0  0  0  0
 15 42  1  0  0  0  0
 15 43  1  0  0  0  0
 15 44  1  0  0  0  0
 16 17  1  0  0  0  0
 16 45  1  0  0  0  0
 16 46  1  0  0  0  0
 17 47  1  0  0  0  0
 17 48  1  0  0  0  0
 18 20  1  0  0  0  0
 18 49  1  0  0  0  0
 18 50  1  0  0  0  0
 20 51  1  0  0  0  0
 20 52  1  0  0  0  0
 21 22  2  0  0  0  0
 21 23  1  0  0  0  0
 22 24  1  0  0  0  0
 22 53  1  0  0  0  0
 23 25  2  0  0  0  0
 23 54  1  0  0  0  0
 24 26  2  0  0  0  0
 25 26  1  0  0  0  0
 25 55  1  0  0  0  0
 26 56  1  0  0  0  0
M  END
> <PUBCHEM_COMPOUND_CID>
45272616

> <PUBCHEM_COMPOUND_CANONICALIZED>
1

> <PUBCHEM_CACTVS_COMPLEXITY>
553

> <PUBCHEM_CACTVS_HBOND_ACCEPTOR>
2

> <PUBCHEM_CACTVS_HBOND_DONOR>
0

> <PUBCHEM_CACTVS_ROTATABLE_BOND>
4

> <PUBCHEM_CACTVS_SUBSKEYS>
AAADceB7IAAEAAAAAAAAAAAAAAAAAeIAAAA8QAAABYAAAAABAAAAHgIAAAAADwrBECQzwIMAAACIACRCUACCAAAhBwAIiAAIZoiIYCLBk5GUIAhohgLIyCcQgEAPgAAAAAIAAAAAAAAABAAAAQAACAAAAA==

> <PUBCHEM_IUPAC_OPENEYE_NAME>
1-(3-chlorophenyl)-3-[2-[(1S,5R)-1,8,8-trimethyl-3-azabicyclo[3.2.1]octan-3-yl]ethyl]imidazolidin-2-one

> <PUBCHEM_IUPAC_CAS_NAME>
1-(3-chlorophenyl)-3-[2-[(1S,5R)-1,8,8-trimethyl-3-azabicyclo[3.2.1]octan-3-yl]ethyl]-2-imidazolidinone

> <PUBCHEM_IUPAC_NAME_MARKUP>
1-(3-chlorophenyl)-3-[2-[(1<I>S</I>,5<I>R</I>)-1,8,8-trimethyl-3-azabicyclo[3.2.1]octan-3-yl]ethyl]imidazolidin-2-one

> <PUBCHEM_IUPAC_NAME>
1-(3-chlorophenyl)-3-[2-[(1S,5R)-1,8,8-trimethyl-3-azabicyclo[3.2.1]octan-3-yl]ethyl]imidazolidin-2-one

> <PUBCHEM_IUPAC_SYSTEMATIC_NAME>
1-(3-chlorophenyl)-3-[2-[(1S,5R)-1,8,8-trimethyl-3-azabicyclo[3.2.1]octan-3-yl]ethyl]imidazolidin-2-one

> <PUBCHEM_IUPAC_TRADITIONAL_NAME>
1-(3-chlorophenyl)-3-[2-[(1S,5R)-1,8,8-trimethyl-3-azabicyclo[3.2.1]octan-3-yl]ethyl]-2-imidazolidinone

> <PUBCHEM_IUPAC_INCHI>
InChI=1S/C21H30ClN3O/c1-20(2)16-7-8-21(20,3)15-23(14-16)9-10-24-11-12-25(19(24)26)18-6-4-5-17(22)13-18/h4-6,13,16H,7-12,14-15H2,1-3H3/t16-,21+/m0/s1

> <PUBCHEM_IUPAC_INCHIKEY>
HWLQRSMZQWZHLO-HRAATJIYSA-N

> <PUBCHEM_XLOGP3_AA>
4.1

> <PUBCHEM_EXACT_MASS>
375.2077403

> <PUBCHEM_MOLECULAR_FORMULA>
C21H30ClN3O

> <PUBCHEM_MOLECULAR_WEIGHT>
375.9

> <PUBCHEM_OPENEYE_CAN_SMILES>
CC1(C2CCC1(CN(C2)CCN3CCN(C3=O)C4=CC(=CC=C4)Cl)C)C

> <PUBCHEM_OPENEYE_ISO_SMILES>
C[C@]12CC[C@H](C1(C)C)CN(C2)CCN3CCN(C3=O)C4=CC(=CC=C4)Cl

> <PUBCHEM_CACTVS_TPSA>
26.8

> <PUBCHEM_MONOISOTOPIC_WEIGHT>
375.2077403

> <PUBCHEM_TOTAL_CHARGE>
0

> <PUBCHEM_HEAVY_ATOM_COUNT>
26

> <PUBCHEM_ATOM_DEF_STEREO_COUNT>
2

> <PUBCHEM_ATOM_UDEF_STEREO_COUNT>
0

> <PUBCHEM_BOND_DEF_STEREO_COUNT>
0

> <PUBCHEM_BOND_UDEF_STEREO_COUNT>
0

> <PUBCHEM_ISOTOPIC_ATOM_COUNT>
0

> <PUBCHEM_COMPONENT_COUNT>
1

> <PUBCHEM_CACTVS_TAUTO_COUNT>
-1

> <PUBCHEM_COORDINATE_TYPE>
1
5
255

> <PUBCHEM_BONDANNOTATIONS>
21  22  8
21  23  8
22  24  8
23  25  8
24  26  8
25  26  8
6  13  5
8  27  6

$$$$
