15431693
  -OEChem-09292322332D

 62 66  0     0  0  0  0  0  0999 V2000
   15.5454    0.9485    0.0000 Cl  0  0  0  0  0  0  0  0  0  0  0  0
   17.5001    1.3719    0.0000 Cl  0  0  0  0  0  0  0  0  0  0  0  0
    8.3374    1.1596    0.0000 O   0  0  0  0  0  0  0  0  0  0  0  0
    4.5274    2.1199    0.0000 O   0  0  0  0  0  0  0  0  0  0  0  0
   12.9800   -1.3793    0.0000 N   0  0  0  0  0  0  0  0  0  0  0  0
   14.9347   -0.9559    0.0000 N   0  0  0  0  0  0  0  0  0  0  0  0
    8.7040   -0.5332    0.0000 N   0  0  0  0  0  0  0  0  0  0  0  0
   13.6520   -2.1199    0.0000 C   0  0  0  0  0  0  0  0  0  0  0  0
   13.2854   -0.4271    0.0000 C   0  0  0  0  0  0  0  0  0  0  0  0
   14.6294   -1.9082    0.0000 C   0  0  0  0  0  0  0  0  0  0  0  0
   14.2627   -0.2154    0.0000 C   0  0  0  0  0  0  0  0  0  0  0  0
   12.0027   -1.5910    0.0000 C   0  0  0  0  0  0  0  0  0  0  0  0
   11.3307   -0.8504    0.0000 C   0  0  0  0  0  0  0  0  0  0  0  0
   10.3534   -1.0621    0.0000 C   0  0  0  0  0  0  0  0  0  0  0  0
   15.9121   -0.7443    0.0000 C   0  0  0  0  0  0  0  0  0  0  0  0
    9.6814   -0.3216    0.0000 C   0  0  0  0  0  0  0  0  0  0  0  0
   16.2174    0.2080    0.0000 C   0  0  0  0  0  0  0  0  0  0  0  0
   16.5841   -1.4848    0.0000 C   0  0  0  0  0  0  0  0  0  0  0  0
   17.1947    0.4197    0.0000 C   0  0  0  0  0  0  0  0  0  0  0  0
   17.5614   -1.2732    0.0000 C   0  0  0  0  0  0  0  0  0  0  0  0
    5.0274   -0.4190    0.0000 C   0  0  0  0  0  0  0  0  0  0  0  0
    5.3364    0.5321    0.0000 C   0  0  0  0  0  0  0  0  0  0  0  0
    4.0274   -0.4190    0.0000 C   0  0  0  0  0  0  0  0  0  0  0  0
    8.0321    0.2073    0.0000 C   0  0  0  0  0  0  0  0  0  0  0  0
    7.0547   -0.0044    0.0000 C   0  0  0  0  0  0  0  0  0  0  0  0
    3.7183    0.5321    0.0000 C   0  0  0  0  0  0  0  0  0  0  0  0
   17.8667   -0.3209    0.0000 C   0  0  0  0  0  0  0  0  0  0  0  0
    6.3518    0.7643    0.0000 C   0  0  0  0  0  0  0  0  0  0  0  0
    4.5274    1.1199    0.0000 C   0  0  0  0  0  0  0  0  0  0  0  0
    5.7123   -1.2037    0.0000 C   0  0  0  0  0  0  0  0  0  0  0  0
    6.7328   -0.9950    0.0000 C   0  0  0  0  0  0  0  0  0  0  0  0
    3.3424   -1.2037    0.0000 C   0  0  0  0  0  0  0  0  0  0  0  0
    2.7029    0.7643    0.0000 C   0  0  0  0  0  0  0  0  0  0  0  0
    2.3219   -0.9950    0.0000 C   0  0  0  0  0  0  0  0  0  0  0  0
    2.0000   -0.0044    0.0000 C   0  0  0  0  0  0  0  0  0  0  0  0
   13.1275   -2.4504    0.0000 H   0  0  0  0  0  0  0  0  0  0  0  0
   13.8865   -2.6938    0.0000 H   0  0  0  0  0  0  0  0  0  0  0  0
   13.2614    0.1925    0.0000 H   0  0  0  0  0  0  0  0  0  0  0  0
   12.6711   -0.3432    0.0000 H   0  0  0  0  0  0  0  0  0  0  0  0
   14.6534   -2.5277    0.0000 H   0  0  0  0  0  0  0  0  0  0  0  0
   15.2437   -1.9921    0.0000 H   0  0  0  0  0  0  0  0  0  0  0  0
   14.7873    0.1152    0.0000 H   0  0  0  0  0  0  0  0  0  0  0  0
   14.0283    0.3586    0.0000 H   0  0  0  0  0  0  0  0  0  0  0  0
   11.4782   -1.9216    0.0000 H   0  0  0  0  0  0  0  0  0  0  0  0
   12.2372   -2.1650    0.0000 H   0  0  0  0  0  0  0  0  0  0  0  0
   11.8552   -0.5199    0.0000 H   0  0  0  0  0  0  0  0  0  0  0  0
   11.0962   -0.2765    0.0000 H   0  0  0  0  0  0  0  0  0  0  0  0
    9.8289   -1.3927    0.0000 H   0  0  0  0  0  0  0  0  0  0  0  0
   10.5878   -1.6361    0.0000 H   0  0  0  0  0  0  0  0  0  0  0  0
   10.2059    0.0090    0.0000 H   0  0  0  0  0  0  0  0  0  0  0  0
    9.4469    0.2524    0.0000 H   0  0  0  0  0  0  0  0  0  0  0  0
   16.3947   -2.0752    0.0000 H   0  0  0  0  0  0  0  0  0  0  0  0
    8.5147   -1.1236    0.0000 H   0  0  0  0  0  0  0  0  0  0  0  0
   17.9780   -1.7323    0.0000 H   0  0  0  0  0  0  0  0  0  0  0  0
   18.4727   -0.1897    0.0000 H   0  0  0  0  0  0  0  0  0  0  0  0
    6.5365    1.3562    0.0000 H   0  0  0  0  0  0  0  0  0  0  0  0
    5.5139   -1.7911    0.0000 H   0  0  0  0  0  0  0  0  0  0  0  0
    7.1459   -1.4574    0.0000 H   0  0  0  0  0  0  0  0  0  0  0  0
    3.5408   -1.7911    0.0000 H   0  0  0  0  0  0  0  0  0  0  0  0
    2.5182    1.3562    0.0000 H   0  0  0  0  0  0  0  0  0  0  0  0
    1.9088   -1.4574    0.0000 H   0  0  0  0  0  0  0  0  0  0  0  0
    1.3940    0.1269    0.0000 H   0  0  0  0  0  0  0  0  0  0  0  0
  1 17  1  0  0  0  0
  2 19  1  0  0  0  0
  3 24  2  0  0  0  0
  4 29  2  0  0  0  0
  5  8  1  0  0  0  0
  5  9  1  0  0  0  0
  5 12  1  0  0  0  0
  6 10  1  0  0  0  0
  6 11  1  0  0  0  0
  6 15  1  0  0  0  0
  7 16  1  0  0  0  0
  7 24  1  0  0  0  0
  7 53  1  0  0  0  0
  8 10  1  0  0  0  0
  8 36  1  0  0  0  0
  8 37  1  0  0  0  0
  9 11  1  0  0  0  0
  9 38  1  0  0  0  0
  9 39  1  0  0  0  0
 10 40  1  0  0  0  0
 10 41  1  0  0  0  0
 11 42  1  0  0  0  0
 11 43  1  0  0  0  0
 12 13  1  0  0  0  0
 12 44  1  0  0  0  0
 12 45  1  0  0  0  0
 13 14  1  0  0  0  0
 13 46  1  0  0  0  0
 13 47  1  0  0  0  0
 14 16  1  0  0  0  0
 14 48  1  0  0  0  0
 14 49  1  0  0  0  0
 15 17  2  0  0  0  0
 15 18  1  0  0  0  0
 16 50  1  0  0  0  0
 16 51  1  0  0  0  0
 17 19  1  0  0  0  0
 18 20  2  0  0  0  0
 18 52  1  0  0  0  0
 19 27  2  0  0  0  0
 20 27  1  0  0  0  0
 20 54  1  0  0  0  0
 21 22  2  0  0  0  0
 21 23  1  0  0  0  0
 21 30  1  0  0  0  0
 22 28  1  0  0  0  0
 22 29  1  0  0  0  0
 23 26  1  0  0  0  0
 23 32  2  0  0  0  0
 24 25  1  0  0  0  0
 25 28  2  0  0  0  0
 25 31  1  0  0  0  0
 26 29  1  0  0  0  0
 26 33  2  0  0  0  0
 27 55  1  0  0  0  0
 28 56  1  0  0  0  0
 30 31  2  0  0  0  0
 30 57  1  0  0  0  0
 31 58  1  0  0  0  0
 32 34  1  0  0  0  0
 32 59  1  0  0  0  0
 33 35  1  0  0  0  0
 33 60  1  0  0  0  0
 34 35  2  0  0  0  0
 34 61  1  0  0  0  0
 35 62  1  0  0  0  0
M  END
> <PUBCHEM_COMPOUND_CID>
15431693

> <PUBCHEM_COMPOUND_CANONICALIZED>
1

> <PUBCHEM_CACTVS_COMPLEXITY>
744

> <PUBCHEM_CACTVS_HBOND_ACCEPTOR>
4

> <PUBCHEM_CACTVS_HBOND_DONOR>
1

> <PUBCHEM_CACTVS_ROTATABLE_BOND>
7

> <PUBCHEM_CACTVS_SUBSKEYS>
AAADceB7MAAGAAAAAAAAAAAAAAAAAYAAAAA8YMEAAAAAAGABUAAAHgIQAAAADA7BmCQwwIPAAACIAqVSUACCAAAlBwAIisEIZsgIYDLBl5HUIQhglgDIyYcYi8CuwAACAAIQABSAAAQABCAAKQAACAAAAA==

> <PUBCHEM_IUPAC_OPENEYE_NAME>
N-[4-[4-(2,3-dichlorophenyl)piperazin-1-yl]butyl]-9-oxo-fluorene-2-carboxamide

> <PUBCHEM_IUPAC_CAS_NAME>
N-[4-[4-(2,3-dichlorophenyl)-1-piperazinyl]butyl]-9-oxo-2-fluorenecarboxamide

> <PUBCHEM_IUPAC_NAME_MARKUP>
<I>N</I>-[4-[4-(2,3-dichlorophenyl)piperazin-1-yl]butyl]-9-oxofluorene-2-carboxamide

> <PUBCHEM_IUPAC_NAME>
N-[4-[4-(2,3-dichlorophenyl)piperazin-1-yl]butyl]-9-oxofluorene-2-carboxamide

> <PUBCHEM_IUPAC_SYSTEMATIC_NAME>
N-[4-[4-[2,3-bis(chloranyl)phenyl]piperazin-1-yl]butyl]-9-oxidanylidene-fluorene-2-carboxamide

> <PUBCHEM_IUPAC_TRADITIONAL_NAME>
N-[4-[4-(2,3-dichlorophenyl)piperazino]butyl]-9-keto-fluorene-2-carboxamide

> <PUBCHEM_IUPAC_INCHI>
InChI=1S/C28H27Cl2N3O2/c29-24-8-5-9-25(26(24)30)33-16-14-32(15-17-33)13-4-3-12-31-28(35)19-10-11-21-20-6-1-2-7-22(20)27(34)23(21)18-19/h1-2,5-11,18H,3-4,12-17H2,(H,31,35)

> <PUBCHEM_IUPAC_INCHIKEY>
KYXXZGFCBQFNOQ-UHFFFAOYSA-N

> <PUBCHEM_XLOGP3_AA>
5.9

> <PUBCHEM_EXACT_MASS>
507.1480325

> <PUBCHEM_MOLECULAR_FORMULA>
C28H27Cl2N3O2

> <PUBCHEM_MOLECULAR_WEIGHT>
508.4

> <PUBCHEM_OPENEYE_CAN_SMILES>
C1CN(CCN1CCCCNC(=O)C2=CC3=C(C=C2)C4=CC=CC=C4C3=O)C5=C(C(=CC=C5)Cl)Cl

> <PUBCHEM_OPENEYE_ISO_SMILES>
C1CN(CCN1CCCCNC(=O)C2=CC3=C(C=C2)C4=CC=CC=C4C3=O)C5=C(C(=CC=C5)Cl)Cl

> <PUBCHEM_CACTVS_TPSA>
52.6

> <PUBCHEM_MONOISOTOPIC_WEIGHT>
507.1480325

> <PUBCHEM_TOTAL_CHARGE>
0

> <PUBCHEM_HEAVY_ATOM_COUNT>
35

> <PUBCHEM_ATOM_DEF_STEREO_COUNT>
0

> <PUBCHEM_ATOM_UDEF_STEREO_COUNT>
0

> <PUBCHEM_BOND_DEF_STEREO_COUNT>
0

> <PUBCHEM_BOND_UDEF_STEREO_COUNT>
0

> <PUBCHEM_ISOTOPIC_ATOM_COUNT>
0

> <PUBCHEM_COMPONENT_COUNT>
1

> <PUBCHEM_CACTVS_TAUTO_COUNT>
-1

> <PUBCHEM_COORDINATE_TYPE>
1
5
255

> <PUBCHEM_BONDANNOTATIONS>
15  17  8
15  18  8
17  19  8
18  20  8
19  27  8
20  27  8
21  22  8
21  30  8
22  28  8
23  26  8
23  32  8
25  28  8
25  31  8
26  33  8
30  31  8
32  34  8
33  35  8
34  35  8

$$$$
