10972865
  -OEChem-09292322112D

 60 64  0     0  0  0  0  0  0999 V2000
   15.3014   -0.4758    0.0000 Cl  0  0  0  0  0  0  0  0  0  0  0  0
   16.6453   -1.9569    0.0000 Cl  0  0  0  0  0  0  0  0  0  0  0  0
    8.3374    3.3325    0.0000 O   0  0  0  0  0  0  0  0  0  0  0  0
   12.0027    0.5820    0.0000 N   0  0  0  0  0  0  0  0  0  0  0  0
   13.3467   -0.8992    0.0000 N   0  0  0  0  0  0  0  0  0  0  0  0
    8.7040    1.6397    0.0000 N   0  0  0  0  0  0  0  0  0  0  0  0
   12.9800    0.7936    0.0000 C   0  0  0  0  0  0  0  0  0  0  0  0
   11.6974   -0.3703    0.0000 C   0  0  0  0  0  0  0  0  0  0  0  0
   13.6520    0.0531    0.0000 C   0  0  0  0  0  0  0  0  0  0  0  0
   12.3693   -1.1108    0.0000 C   0  0  0  0  0  0  0  0  0  0  0  0
   11.3307    1.3225    0.0000 C   0  0  0  0  0  0  0  0  0  0  0  0
   10.3534    1.1108    0.0000 C   0  0  0  0  0  0  0  0  0  0  0  0
   14.0187   -1.6397    0.0000 C   0  0  0  0  0  0  0  0  0  0  0  0
    9.6814    1.8514    0.0000 C   0  0  0  0  0  0  0  0  0  0  0  0
    5.3364    2.7050    0.0000 C   0  0  0  0  0  0  0  0  0  0  0  0
    4.5274    3.2928    0.0000 C   0  0  0  0  0  0  0  0  0  0  0  0
    5.0274    1.7540    0.0000 C   0  0  0  0  0  0  0  0  0  0  0  0
    3.7183    2.7050    0.0000 C   0  0  0  0  0  0  0  0  0  0  0  0
    4.0274    1.7540    0.0000 C   0  0  0  0  0  0  0  0  0  0  0  0
   14.9960   -1.4280    0.0000 C   0  0  0  0  0  0  0  0  0  0  0  0
   13.7133   -2.5920    0.0000 C   0  0  0  0  0  0  0  0  0  0  0  0
    7.0547    2.1686    0.0000 C   0  0  0  0  0  0  0  0  0  0  0  0
    6.3518    2.9373    0.0000 C   0  0  0  0  0  0  0  0  0  0  0  0
    5.7123    0.9692    0.0000 C   0  0  0  0  0  0  0  0  0  0  0  0
    8.0321    2.3803    0.0000 C   0  0  0  0  0  0  0  0  0  0  0  0
    6.7328    1.1780    0.0000 C   0  0  0  0  0  0  0  0  0  0  0  0
    2.7029    2.9373    0.0000 C   0  0  0  0  0  0  0  0  0  0  0  0
    3.3424    0.9692    0.0000 C   0  0  0  0  0  0  0  0  0  0  0  0
   15.6680   -2.1686    0.0000 C   0  0  0  0  0  0  0  0  0  0  0  0
   14.3853   -3.3325    0.0000 C   0  0  0  0  0  0  0  0  0  0  0  0
   15.3627   -3.1208    0.0000 C   0  0  0  0  0  0  0  0  0  0  0  0
    2.0000    2.1686    0.0000 C   0  0  0  0  0  0  0  0  0  0  0  0
    2.3219    1.1780    0.0000 C   0  0  0  0  0  0  0  0  0  0  0  0
   13.5046    1.1242    0.0000 H   0  0  0  0  0  0  0  0  0  0  0  0
   12.7456    1.3676    0.0000 H   0  0  0  0  0  0  0  0  0  0  0  0
   11.1488   -0.0813    0.0000 H   0  0  0  0  0  0  0  0  0  0  0  0
   11.3175   -0.8603    0.0000 H   0  0  0  0  0  0  0  0  0  0  0  0
   14.2006   -0.2359    0.0000 H   0  0  0  0  0  0  0  0  0  0  0  0
   14.0319    0.5431    0.0000 H   0  0  0  0  0  0  0  0  0  0  0  0
   11.8448   -1.4414    0.0000 H   0  0  0  0  0  0  0  0  0  0  0  0
   12.6038   -1.6848    0.0000 H   0  0  0  0  0  0  0  0  0  0  0  0
   11.8552    1.6531    0.0000 H   0  0  0  0  0  0  0  0  0  0  0  0
   11.0962    1.8965    0.0000 H   0  0  0  0  0  0  0  0  0  0  0  0
    9.8289    0.7803    0.0000 H   0  0  0  0  0  0  0  0  0  0  0  0
   10.5878    0.5369    0.0000 H   0  0  0  0  0  0  0  0  0  0  0  0
   10.2059    2.1820    0.0000 H   0  0  0  0  0  0  0  0  0  0  0  0
    9.4469    2.4254    0.0000 H   0  0  0  0  0  0  0  0  0  0  0  0
    4.9422    3.7536    0.0000 H   0  0  0  0  0  0  0  0  0  0  0  0
    4.1125    3.7536    0.0000 H   0  0  0  0  0  0  0  0  0  0  0  0
   13.1074   -2.7232    0.0000 H   0  0  0  0  0  0  0  0  0  0  0  0
    8.5147    1.0493    0.0000 H   0  0  0  0  0  0  0  0  0  0  0  0
    6.5365    3.5291    0.0000 H   0  0  0  0  0  0  0  0  0  0  0  0
    5.5139    0.3818    0.0000 H   0  0  0  0  0  0  0  0  0  0  0  0
    7.1459    0.7156    0.0000 H   0  0  0  0  0  0  0  0  0  0  0  0
    2.5182    3.5291    0.0000 H   0  0  0  0  0  0  0  0  0  0  0  0
    3.5408    0.3818    0.0000 H   0  0  0  0  0  0  0  0  0  0  0  0
   14.1960   -3.9229    0.0000 H   0  0  0  0  0  0  0  0  0  0  0  0
   15.7793   -3.5800    0.0000 H   0  0  0  0  0  0  0  0  0  0  0  0
    1.3940    2.2998    0.0000 H   0  0  0  0  0  0  0  0  0  0  0  0
    1.9088    0.7156    0.0000 H   0  0  0  0  0  0  0  0  0  0  0  0
  1 20  1  0  0  0  0
  2 29  1  0  0  0  0
  3 25  2  0  0  0  0
  4  7  1  0  0  0  0
  4  8  1  0  0  0  0
  4 11  1  0  0  0  0
  5  9  1  0  0  0  0
  5 10  1  0  0  0  0
  5 13  1  0  0  0  0
  6 14  1  0  0  0  0
  6 25  1  0  0  0  0
  6 51  1  0  0  0  0
  7  9  1  0  0  0  0
  7 34  1  0  0  0  0
  7 35  1  0  0  0  0
  8 10  1  0  0  0  0
  8 36  1  0  0  0  0
  8 37  1  0  0  0  0
  9 38  1  0  0  0  0
  9 39  1  0  0  0  0
 10 40  1  0  0  0  0
 10 41  1  0  0  0  0
 11 12  1  0  0  0  0
 11 42  1  0  0  0  0
 11 43  1  0  0  0  0
 12 14  1  0  0  0  0
 12 44  1  0  0  0  0
 12 45  1  0  0  0  0
 13 20  2  0  0  0  0
 13 21  1  0  0  0  0
 14 46  1  0  0  0  0
 14 47  1  0  0  0  0
 15 16  1  0  0  0  0
 15 17  2  0  0  0  0
 15 23  1  0  0  0  0
 16 18  1  0  0  0  0
 16 48  1  0  0  0  0
 16 49  1  0  0  0  0
 17 19  1  0  0  0  0
 17 24  1  0  0  0  0
 18 19  1  0  0  0  0
 18 27  2  0  0  0  0
 19 28  2  0  0  0  0
 20 29  1  0  0  0  0
 21 30  2  0  0  0  0
 21 50  1  0  0  0  0
 22 23  2  0  0  0  0
 22 25  1  0  0  0  0
 22 26  1  0  0  0  0
 23 52  1  0  0  0  0
 24 26  2  0  0  0  0
 24 53  1  0  0  0  0
 26 54  1  0  0  0  0
 27 32  1  0  0  0  0
 27 55  1  0  0  0  0
 28 33  1  0  0  0  0
 28 56  1  0  0  0  0
 29 31  2  0  0  0  0
 30 31  1  0  0  0  0
 30 57  1  0  0  0  0
 31 58  1  0  0  0  0
 32 33  2  0  0  0  0
 32 59  1  0  0  0  0
 33 60  1  0  0  0  0
M  END
> <PUBCHEM_COMPOUND_CID>
10972865

> <PUBCHEM_COMPOUND_CANONICALIZED>
1

> <PUBCHEM_CACTVS_COMPLEXITY>
655

> <PUBCHEM_CACTVS_HBOND_ACCEPTOR>
3

> <PUBCHEM_CACTVS_HBOND_DONOR>
1

> <PUBCHEM_CACTVS_ROTATABLE_BOND>
6

> <PUBCHEM_CACTVS_SUBSKEYS>
AAADceB7IAAGAAAAAAAAAAAAAAAAAYAAAAA8YMEAAAAAAGABUAAAHgIQAAAADArBmCQwwIPAAACIAiVSUACCAAAlBwAIisEIZsgIYDLB15HUIQhglgDIyYcYiMCOwAACAAIQABSAAAQABCAAKQAACAAAAA==

> <PUBCHEM_IUPAC_OPENEYE_NAME>
N-[3-[4-(2,3-dichlorophenyl)piperazin-1-yl]propyl]-9H-fluorene-2-carboxamide

> <PUBCHEM_IUPAC_CAS_NAME>
N-[3-[4-(2,3-dichlorophenyl)-1-piperazinyl]propyl]-9H-fluorene-2-carboxamide

> <PUBCHEM_IUPAC_NAME_MARKUP>
<I>N</I>-[3-[4-(2,3-dichlorophenyl)piperazin-1-yl]propyl]-9<I>H</I>-fluorene-2-carboxamide

> <PUBCHEM_IUPAC_NAME>
N-[3-[4-(2,3-dichlorophenyl)piperazin-1-yl]propyl]-9H-fluorene-2-carboxamide

> <PUBCHEM_IUPAC_SYSTEMATIC_NAME>
N-[3-[4-[2,3-bis(chloranyl)phenyl]piperazin-1-yl]propyl]-9H-fluorene-2-carboxamide

> <PUBCHEM_IUPAC_TRADITIONAL_NAME>
N-[3-[4-(2,3-dichlorophenyl)piperazino]propyl]-9H-fluorene-2-carboxamide

> <PUBCHEM_IUPAC_INCHI>
InChI=1S/C27H27Cl2N3O/c28-24-7-3-8-25(26(24)29)32-15-13-31(14-16-32)12-4-11-30-27(33)20-9-10-23-21(18-20)17-19-5-1-2-6-22(19)23/h1-3,5-10,18H,4,11-17H2,(H,30,33)

> <PUBCHEM_IUPAC_INCHIKEY>
WPLCSVMMEFEPPZ-UHFFFAOYSA-N

> <PUBCHEM_XLOGP3_AA>
6.1

> <PUBCHEM_EXACT_MASS>
479.1531179

> <PUBCHEM_MOLECULAR_FORMULA>
C27H27Cl2N3O

> <PUBCHEM_MOLECULAR_WEIGHT>
480.4

> <PUBCHEM_OPENEYE_CAN_SMILES>
C1CN(CCN1CCCNC(=O)C2=CC3=C(C=C2)C4=CC=CC=C4C3)C5=C(C(=CC=C5)Cl)Cl

> <PUBCHEM_OPENEYE_ISO_SMILES>
C1CN(CCN1CCCNC(=O)C2=CC3=C(C=C2)C4=CC=CC=C4C3)C5=C(C(=CC=C5)Cl)Cl

> <PUBCHEM_CACTVS_TPSA>
35.6

> <PUBCHEM_MONOISOTOPIC_WEIGHT>
479.1531179

> <PUBCHEM_TOTAL_CHARGE>
0

> <PUBCHEM_HEAVY_ATOM_COUNT>
33

> <PUBCHEM_ATOM_DEF_STEREO_COUNT>
0

> <PUBCHEM_ATOM_UDEF_STEREO_COUNT>
0

> <PUBCHEM_BOND_DEF_STEREO_COUNT>
0

> <PUBCHEM_BOND_UDEF_STEREO_COUNT>
0

> <PUBCHEM_ISOTOPIC_ATOM_COUNT>
0

> <PUBCHEM_COMPONENT_COUNT>
1

> <PUBCHEM_CACTVS_TAUTO_COUNT>
-1

> <PUBCHEM_COORDINATE_TYPE>
1
5
255

> <PUBCHEM_BONDANNOTATIONS>
13  20  8
13  21  8
15  17  8
15  23  8
17  24  8
18  19  8
18  27  8
19  28  8
20  29  8
21  30  8
22  23  8
22  26  8
24  26  8
27  32  8
28  33  8
29  31  8
30  31  8
32  33  8

$$$$
