155555589
  -OEChem-09292322412D

 62 65  0     0  0  0  0  0  0999 V2000
    8.9282    0.3685    0.0000 O   0  0  0  0  0  0  0  0  0  0  0  0
    9.7942   -1.1315    0.0000 O   0  0  0  0  0  0  0  0  0  0  0  0
    8.5780    5.6118    0.0000 O   0  0  0  0  0  0  0  0  0  0  0  0
    6.3301   -4.1315    0.0000 N   0  0  0  0  0  0  0  0  0  0  0  0
    4.5981   -5.1315    0.0000 N   0  0  0  0  0  0  0  0  0  0  0  0
    8.0622   -1.1315    0.0000 N   0  0  0  0  0  0  0  0  0  0  0  0
   10.6603    3.3685    0.0000 N   0  0  0  0  0  0  0  0  0  0  0  0
    9.9792    6.6299    0.0000 N   0  0  0  0  0  0  0  0  0  0  0  0
    5.4641   -3.6315    0.0000 C   0  0  0  0  0  0  0  0  0  0  0  0
    6.3301   -5.1315    0.0000 C   0  0  0  0  0  0  0  0  0  0  0  0
    4.5981   -4.1315    0.0000 C   0  0  0  0  0  0  0  0  0  0  0  0
    5.4641   -5.6315    0.0000 C   0  0  0  0  0  0  0  0  0  0  0  0
    7.1962   -3.6315    0.0000 C   0  0  0  0  0  0  0  0  0  0  0  0
    7.1962   -2.6315    0.0000 C   0  0  0  0  0  0  0  0  0  0  0  0
    3.7320   -5.6315    0.0000 C   0  0  0  0  0  0  0  0  0  0  0  0
    8.0622   -2.1315    0.0000 C   0  0  0  0  0  0  0  0  0  0  0  0
    2.8660   -5.1315    0.0000 C   0  0  0  0  0  0  0  0  0  0  0  0
    3.7320   -6.6315    0.0000 C   0  0  0  0  0  0  0  0  0  0  0  0
    2.0000   -5.6315    0.0000 C   0  0  0  0  0  0  0  0  0  0  0  0
    2.8660   -7.1315    0.0000 C   0  0  0  0  0  0  0  0  0  0  0  0
    2.0000   -6.6315    0.0000 C   0  0  0  0  0  0  0  0  0  0  0  0
    8.9282   -0.6315    0.0000 C   0  0  0  0  0  0  0  0  0  0  0  0
    9.7942    0.8685    0.0000 C   0  0  0  0  0  0  0  0  0  0  0  0
   10.6603    2.3685    0.0000 C   0  0  0  0  0  0  0  0  0  0  0  0
    9.7942    1.8685    0.0000 C   0  0  0  0  0  0  0  0  0  0  0  0
   10.6603    0.3685    0.0000 C   0  0  0  0  0  0  0  0  0  0  0  0
    9.8512    3.9563    0.0000 C   0  0  0  0  0  0  0  0  0  0  0  0
   11.5263    1.8685    0.0000 C   0  0  0  0  0  0  0  0  0  0  0  0
   11.4693    3.9563    0.0000 C   0  0  0  0  0  0  0  0  0  0  0  0
   10.1603    4.9073    0.0000 C   0  0  0  0  0  0  0  0  0  0  0  0
   11.5263    0.8685    0.0000 C   0  0  0  0  0  0  0  0  0  0  0  0
   11.1603    4.9073    0.0000 C   0  0  0  0  0  0  0  0  0  0  0  0
    9.5725    5.7164    0.0000 C   0  0  0  0  0  0  0  0  0  0  0  0
    5.8626   -3.1566    0.0000 H   0  0  0  0  0  0  0  0  0  0  0  0
    5.0656   -3.1566    0.0000 H   0  0  0  0  0  0  0  0  0  0  0  0
    6.5422   -5.7141    0.0000 H   0  0  0  0  0  0  0  0  0  0  0  0
    6.9407   -5.0238    0.0000 H   0  0  0  0  0  0  0  0  0  0  0  0
    4.3860   -3.5489    0.0000 H   0  0  0  0  0  0  0  0  0  0  0  0
    3.9875   -4.2392    0.0000 H   0  0  0  0  0  0  0  0  0  0  0  0
    5.0656   -6.1064    0.0000 H   0  0  0  0  0  0  0  0  0  0  0  0
    5.8626   -6.1064    0.0000 H   0  0  0  0  0  0  0  0  0  0  0  0
    7.4082   -4.2141    0.0000 H   0  0  0  0  0  0  0  0  0  0  0  0
    7.8067   -3.5238    0.0000 H   0  0  0  0  0  0  0  0  0  0  0  0
    6.9841   -2.0489    0.0000 H   0  0  0  0  0  0  0  0  0  0  0  0
    6.5856   -2.7392    0.0000 H   0  0  0  0  0  0  0  0  0  0  0  0
    8.2742   -2.7141    0.0000 H   0  0  0  0  0  0  0  0  0  0  0  0
    8.6728   -2.0238    0.0000 H   0  0  0  0  0  0  0  0  0  0  0  0
    2.8660   -4.5115    0.0000 H   0  0  0  0  0  0  0  0  0  0  0  0
    4.2690   -6.9415    0.0000 H   0  0  0  0  0  0  0  0  0  0  0  0
    7.5252   -0.8215    0.0000 H   0  0  0  0  0  0  0  0  0  0  0  0
    1.4631   -5.3215    0.0000 H   0  0  0  0  0  0  0  0  0  0  0  0
    2.8660   -7.7515    0.0000 H   0  0  0  0  0  0  0  0  0  0  0  0
    1.4631   -6.9415    0.0000 H   0  0  0  0  0  0  0  0  0  0  0  0
    9.2573    2.1785    0.0000 H   0  0  0  0  0  0  0  0  0  0  0  0
    9.2616    3.7647    0.0000 H   0  0  0  0  0  0  0  0  0  0  0  0
   10.6603   -0.2515    0.0000 H   0  0  0  0  0  0  0  0  0  0  0  0
   12.0632    2.1785    0.0000 H   0  0  0  0  0  0  0  0  0  0  0  0
   12.0589    3.7647    0.0000 H   0  0  0  0  0  0  0  0  0  0  0  0
   12.0632    0.5585    0.0000 H   0  0  0  0  0  0  0  0  0  0  0  0
   11.5247    5.4089    0.0000 H   0  0  0  0  0  0  0  0  0  0  0  0
    9.6148    7.1315    0.0000 H   0  0  0  0  0  0  0  0  0  0  0  0
   10.5958    6.6947    0.0000 H   0  0  0  0  0  0  0  0  0  0  0  0
  1 22  1  0  0  0  0
  1 23  1  0  0  0  0
  2 22  2  0  0  0  0
  3 33  2  0  0  0  0
  4  9  1  0  0  0  0
  4 10  1  0  0  0  0
  4 13  1  0  0  0  0
  5 11  1  0  0  0  0
  5 12  1  0  0  0  0
  5 15  1  0  0  0  0
  6 16  1  0  0  0  0
  6 22  1  0  0  0  0
  6 50  1  0  0  0  0
  7 24  1  0  0  0  0
  7 27  1  0  0  0  0
  7 29  1  0  0  0  0
  8 33  1  0  0  0  0
  8 61  1  0  0  0  0
  8 62  1  0  0  0  0
  9 11  1  0  0  0  0
  9 34  1  0  0  0  0
  9 35  1  0  0  0  0
 10 12  1  0  0  0  0
 10 36  1  0  0  0  0
 10 37  1  0  0  0  0
 11 38  1  0  0  0  0
 11 39  1  0  0  0  0
 12 40  1  0  0  0  0
 12 41  1  0  0  0  0
 13 14  1  0  0  0  0
 13 42  1  0  0  0  0
 13 43  1  0  0  0  0
 14 16  1  0  0  0  0
 14 44  1  0  0  0  0
 14 45  1  0  0  0  0
 15 17  2  0  0  0  0
 15 18  1  0  0  0  0
 16 46  1  0  0  0  0
 16 47  1  0  0  0  0
 17 19  1  0  0  0  0
 17 48  1  0  0  0  0
 18 20  2  0  0  0  0
 18 49  1  0  0  0  0
 19 21  2  0  0  0  0
 19 51  1  0  0  0  0
 20 21  1  0  0  0  0
 20 52  1  0  0  0  0
 21 53  1  0  0  0  0
 23 25  1  0  0  0  0
 23 26  2  0  0  0  0
 24 25  2  0  0  0  0
 24 28  1  0  0  0  0
 25 54  1  0  0  0  0
 26 31  1  0  0  0  0
 26 56  1  0  0  0  0
 27 30  2  0  0  0  0
 27 55  1  0  0  0  0
 28 31  2  0  0  0  0
 28 57  1  0  0  0  0
 29 32  2  0  0  0  0
 29 58  1  0  0  0  0
 30 32  1  0  0  0  0
 30 33  1  0  0  0  0
 31 59  1  0  0  0  0
 32 60  1  0  0  0  0
M  END
> <PUBCHEM_COMPOUND_CID>
155555589

> <PUBCHEM_COMPOUND_CANONICALIZED>
1

> <PUBCHEM_CACTVS_COMPLEXITY>
634

> <PUBCHEM_CACTVS_HBOND_ACCEPTOR>
5

> <PUBCHEM_CACTVS_HBOND_DONOR>
2

> <PUBCHEM_CACTVS_ROTATABLE_BOND>
9

> <PUBCHEM_CACTVS_SUBSKEYS>
AAADceB7sAAAAAAAAAAAAAAAAAAAAWAAAAA8YIAAAAAAAAAB0AAAHgAQAAAADAzBmgQ8zpPMFACoAjV3XACCiCA1IiAI2KE+bNkMZvrE9ZucM6hm1hnI6ceUUAMIAAAAAgAAAAAAAAAEAAAAAAAAAAAAAA==

> <PUBCHEM_IUPAC_OPENEYE_NAME>
[3-(3-carbamoylpyrrol-1-yl)phenyl] N-[3-(4-phenylpiperazin-1-yl)propyl]carbamate

> <PUBCHEM_IUPAC_CAS_NAME>
N-[3-(4-phenyl-1-piperazinyl)propyl]carbamic acid [3-(3-carbamoyl-1-pyrrolyl)phenyl] ester

> <PUBCHEM_IUPAC_NAME_MARKUP>
[3-(3-carbamoylpyrrol-1-yl)phenyl] <I>N</I>-[3-(4-phenylpiperazin-1-yl)propyl]carbamate

> <PUBCHEM_IUPAC_NAME>
[3-(3-carbamoylpyrrol-1-yl)phenyl] N-[3-(4-phenylpiperazin-1-yl)propyl]carbamate

> <PUBCHEM_IUPAC_SYSTEMATIC_NAME>
[3-(3-aminocarbonylpyrrol-1-yl)phenyl] N-[3-(4-phenylpiperazin-1-yl)propyl]carbamate

> <PUBCHEM_IUPAC_TRADITIONAL_NAME>
N-[3-(4-phenylpiperazino)propyl]carbamic acid [3-(3-carbamoylpyrrol-1-yl)phenyl] ester

> <PUBCHEM_IUPAC_INCHI>
InChI=1S/C25H29N5O3/c26-24(31)20-10-13-30(19-20)22-8-4-9-23(18-22)33-25(32)27-11-5-12-28-14-16-29(17-15-28)21-6-2-1-3-7-21/h1-4,6-10,13,18-19H,5,11-12,14-17H2,(H2,26,31)(H,27,32)

> <PUBCHEM_IUPAC_INCHIKEY>
WHJLICHULFVCIM-UHFFFAOYSA-N

> <PUBCHEM_XLOGP3_AA>
2.8

> <PUBCHEM_EXACT_MASS>
447.22703980

> <PUBCHEM_MOLECULAR_FORMULA>
C25H29N5O3

> <PUBCHEM_MOLECULAR_WEIGHT>
447.5

> <PUBCHEM_OPENEYE_CAN_SMILES>
C1CN(CCN1CCCNC(=O)OC2=CC=CC(=C2)N3C=CC(=C3)C(=O)N)C4=CC=CC=C4

> <PUBCHEM_OPENEYE_ISO_SMILES>
C1CN(CCN1CCCNC(=O)OC2=CC=CC(=C2)N3C=CC(=C3)C(=O)N)C4=CC=CC=C4

> <PUBCHEM_CACTVS_TPSA>
92.8

> <PUBCHEM_MONOISOTOPIC_WEIGHT>
447.22703980

> <PUBCHEM_TOTAL_CHARGE>
0

> <PUBCHEM_HEAVY_ATOM_COUNT>
33

> <PUBCHEM_ATOM_DEF_STEREO_COUNT>
0

> <PUBCHEM_ATOM_UDEF_STEREO_COUNT>
0

> <PUBCHEM_BOND_DEF_STEREO_COUNT>
0

> <PUBCHEM_BOND_UDEF_STEREO_COUNT>
0

> <PUBCHEM_ISOTOPIC_ATOM_COUNT>
0

> <PUBCHEM_COMPONENT_COUNT>
1

> <PUBCHEM_CACTVS_TAUTO_COUNT>
-1

> <PUBCHEM_COORDINATE_TYPE>
1
5
255

> <PUBCHEM_BONDANNOTATIONS>
15  17  8
15  18  8
17  19  8
18  20  8
19  21  8
20  21  8
23  25  8
23  26  8
24  25  8
24  28  8
26  31  8
27  30  8
28  31  8
29  32  8
30  32  8
7  27  8
7  29  8

$$$$
