10048222
  -OEChem-09292322082D

 60 64  0     0  0  0  0  0  0999 V2000
    5.9418   -0.7672    0.0000 O   0  0  0  0  0  0  0  0  0  0  0  0
    7.6738    0.2328    0.0000 O   0  0  0  0  0  0  0  0  0  0  0  0
    6.8078    3.7328    0.0000 N   0  0  0  0  0  0  0  0  0  0  0  0
    6.8078    1.7328    0.0000 N   0  0  0  0  0  0  0  0  0  0  0  0
    2.6067   -2.9343    0.0000 N   0  0  0  0  0  0  0  0  0  0  0  0
    5.0255   -6.1781    0.0000 N   0  0  0  0  0  0  0  0  0  0  0  0
    7.6738    3.2328    0.0000 C   0  0  0  0  0  0  0  0  0  0  0  0
    5.9418    3.2328    0.0000 C   0  0  0  0  0  0  0  0  0  0  0  0
    7.6738    2.2328    0.0000 C   0  0  0  0  0  0  0  0  0  0  0  0
    5.9418    2.2328    0.0000 C   0  0  0  0  0  0  0  0  0  0  0  0
    6.8078    4.7328    0.0000 C   0  0  0  0  0  0  0  0  0  0  0  0
    6.8078    0.7328    0.0000 C   0  0  0  0  0  0  0  0  0  0  0  0
    7.6738    5.2328    0.0000 C   0  0  0  0  0  0  0  0  0  0  0  0
    5.9418    5.2328    0.0000 C   0  0  0  0  0  0  0  0  0  0  0  0
    7.6738    6.2328    0.0000 C   0  0  0  0  0  0  0  0  0  0  0  0
    5.9418    0.2328    0.0000 C   0  0  0  0  0  0  0  0  0  0  0  0
    8.5678    4.6981    0.0000 C   0  0  0  0  0  0  0  0  0  0  0  0
    5.9418    6.2328    0.0000 C   0  0  0  0  0  0  0  0  0  0  0  0
    6.8078    6.7328    0.0000 C   0  0  0  0  0  0  0  0  0  0  0  0
    4.2097   -2.7672    0.0000 C   0  0  0  0  0  0  0  0  0  0  0  0
    4.0005   -3.7390    0.0000 C   0  0  0  0  0  0  0  0  0  0  0  0
    3.3437   -2.2672    0.0000 C   0  0  0  0  0  0  0  0  0  0  0  0
    8.5678    6.7675    0.0000 C   0  0  0  0  0  0  0  0  0  0  0  0
    5.0757   -1.2672    0.0000 C   0  0  0  0  0  0  0  0  0  0  0  0
    4.6684   -4.4833    0.0000 C   0  0  0  0  0  0  0  0  0  0  0  0
    5.0757   -2.2672    0.0000 C   0  0  0  0  0  0  0  0  0  0  0  0
    9.4738    5.2120    0.0000 C   0  0  0  0  0  0  0  0  0  0  0  0
    3.0118   -3.8421    0.0000 C   0  0  0  0  0  0  0  0  0  0  0  0
    9.4738    6.2536    0.0000 C   0  0  0  0  0  0  0  0  0  0  0  0
    3.3437   -1.2672    0.0000 C   0  0  0  0  0  0  0  0  0  0  0  0
    4.2097   -0.7672    0.0000 C   0  0  0  0  0  0  0  0  0  0  0  0
    4.3577   -5.4338    0.0000 C   0  0  0  0  0  0  0  0  0  0  0  0
    8.2844    3.1251    0.0000 H   0  0  0  0  0  0  0  0  0  0  0  0
    7.8859    3.8154    0.0000 H   0  0  0  0  0  0  0  0  0  0  0  0
    5.7297    3.8154    0.0000 H   0  0  0  0  0  0  0  0  0  0  0  0
    5.3312    3.1251    0.0000 H   0  0  0  0  0  0  0  0  0  0  0  0
    7.8859    1.6502    0.0000 H   0  0  0  0  0  0  0  0  0  0  0  0
    8.2844    2.3405    0.0000 H   0  0  0  0  0  0  0  0  0  0  0  0
    5.3312    2.3405    0.0000 H   0  0  0  0  0  0  0  0  0  0  0  0
    5.7297    1.6502    0.0000 H   0  0  0  0  0  0  0  0  0  0  0  0
    5.4048    4.9228    0.0000 H   0  0  0  0  0  0  0  0  0  0  0  0
    5.7297    0.8154    0.0000 H   0  0  0  0  0  0  0  0  0  0  0  0
    5.3312    0.1251    0.0000 H   0  0  0  0  0  0  0  0  0  0  0  0
    8.5606    4.0782    0.0000 H   0  0  0  0  0  0  0  0  0  0  0  0
    5.4048    6.5428    0.0000 H   0  0  0  0  0  0  0  0  0  0  0  0
    6.8078    7.3528    0.0000 H   0  0  0  0  0  0  0  0  0  0  0  0
    8.5606    7.3874    0.0000 H   0  0  0  0  0  0  0  0  0  0  0  0
    5.2153   -4.7753    0.0000 H   0  0  0  0  0  0  0  0  0  0  0  0
    5.0509   -3.9954    0.0000 H   0  0  0  0  0  0  0  0  0  0  0  0
    5.6127   -2.5772    0.0000 H   0  0  0  0  0  0  0  0  0  0  0  0
   10.0096    4.8999    0.0000 H   0  0  0  0  0  0  0  0  0  0  0  0
    2.7018   -4.3790    0.0000 H   0  0  0  0  0  0  0  0  0  0  0  0
    2.0000   -2.8064    0.0000 H   0  0  0  0  0  0  0  0  0  0  0  0
    2.8068   -0.9572    0.0000 H   0  0  0  0  0  0  0  0  0  0  0  0
   10.0096    6.5657    0.0000 H   0  0  0  0  0  0  0  0  0  0  0  0
    4.2097   -0.1472    0.0000 H   0  0  0  0  0  0  0  0  0  0  0  0
    3.8108   -5.1418    0.0000 H   0  0  0  0  0  0  0  0  0  0  0  0
    3.9751   -5.9217    0.0000 H   0  0  0  0  0  0  0  0  0  0  0  0
    4.8329   -6.7675    0.0000 H   0  0  0  0  0  0  0  0  0  0  0  0
    5.6322   -6.0503    0.0000 H   0  0  0  0  0  0  0  0  0  0  0  0
  1 16  1  0  0  0  0
  1 24  1  0  0  0  0
  2 12  2  0  0  0  0
  3  7  1  0  0  0  0
  3  8  1  0  0  0  0
  3 11  1  0  0  0  0
  4  9  1  0  0  0  0
  4 10  1  0  0  0  0
  4 12  1  0  0  0  0
  5 22  1  0  0  0  0
  5 28  1  0  0  0  0
  5 53  1  0  0  0  0
  6 32  1  0  0  0  0
  6 59  1  0  0  0  0
  6 60  1  0  0  0  0
  7  9  1  0  0  0  0
  7 33  1  0  0  0  0
  7 34  1  0  0  0  0
  8 10  1  0  0  0  0
  8 35  1  0  0  0  0
  8 36  1  0  0  0  0
  9 37  1  0  0  0  0
  9 38  1  0  0  0  0
 10 39  1  0  0  0  0
 10 40  1  0  0  0  0
 11 13  1  0  0  0  0
 11 14  2  0  0  0  0
 12 16  1  0  0  0  0
 13 15  1  0  0  0  0
 13 17  2  0  0  0  0
 14 18  1  0  0  0  0
 14 41  1  0  0  0  0
 15 19  1  0  0  0  0
 15 23  2  0  0  0  0
 16 42  1  0  0  0  0
 16 43  1  0  0  0  0
 17 27  1  0  0  0  0
 17 44  1  0  0  0  0
 18 19  2  0  0  0  0
 18 45  1  0  0  0  0
 19 46  1  0  0  0  0
 20 21  1  0  0  0  0
 20 22  2  0  0  0  0
 20 26  1  0  0  0  0
 21 25  1  0  0  0  0
 21 28  2  0  0  0  0
 22 30  1  0  0  0  0
 23 29  1  0  0  0  0
 23 47  1  0  0  0  0
 24 26  2  0  0  0  0
 24 31  1  0  0  0  0
 25 32  1  0  0  0  0
 25 48  1  0  0  0  0
 25 49  1  0  0  0  0
 26 50  1  0  0  0  0
 27 29  2  0  0  0  0
 27 51  1  0  0  0  0
 28 52  1  0  0  0  0
 29 55  1  0  0  0  0
 30 31  2  0  0  0  0
 30 54  1  0  0  0  0
 31 56  1  0  0  0  0
 32 57  1  0  0  0  0
 32 58  1  0  0  0  0
M  END
> <PUBCHEM_COMPOUND_CID>
10048222

> <PUBCHEM_COMPOUND_CANONICALIZED>
1

> <PUBCHEM_CACTVS_COMPLEXITY>
623

> <PUBCHEM_CACTVS_HBOND_ACCEPTOR>
4

> <PUBCHEM_CACTVS_HBOND_DONOR>
2

> <PUBCHEM_CACTVS_ROTATABLE_BOND>
6

> <PUBCHEM_CACTVS_SUBSKEYS>
AAADceB7sAAAAAAAAAAAAAAAAAAAAWAAAAA8YMEAAAAAAFjB9AAAHgAQAAAADAzhngY8xvPJlACoAzV3VAKCiCAxIiAI2aB+bJgOZuLEsZ+XOCjk1hHY6Aew0PIOgEABQAASAAAAgAKAACQAAAAAAAAAAA==

> <PUBCHEM_IUPAC_OPENEYE_NAME>
2-[[3-(2-aminoethyl)-1H-indol-5-yl]oxy]-1-[4-(1-naphthyl)piperazin-1-yl]ethanone

> <PUBCHEM_IUPAC_CAS_NAME>
2-[[3-(2-aminoethyl)-1H-indol-5-yl]oxy]-1-[4-(1-naphthalenyl)-1-piperazinyl]ethanone

> <PUBCHEM_IUPAC_NAME_MARKUP>
2-[[3-(2-aminoethyl)-1<I>H</I>-indol-5-yl]oxy]-1-(4-naphthalen-1-ylpiperazin-1-yl)ethanone

> <PUBCHEM_IUPAC_NAME>
2-[[3-(2-aminoethyl)-1H-indol-5-yl]oxy]-1-(4-naphthalen-1-ylpiperazin-1-yl)ethanone

> <PUBCHEM_IUPAC_SYSTEMATIC_NAME>
2-[[3-(2-azanylethyl)-1H-indol-5-yl]oxy]-1-(4-naphthalen-1-ylpiperazin-1-yl)ethanone

> <PUBCHEM_IUPAC_TRADITIONAL_NAME>
2-[[3-(2-aminoethyl)-1H-indol-5-yl]oxy]-1-[4-(1-naphthyl)piperazino]ethanone

> <PUBCHEM_IUPAC_INCHI>
InChI=1S/C26H28N4O2/c27-11-10-20-17-28-24-9-8-21(16-23(20)24)32-18-26(31)30-14-12-29(13-15-30)25-7-3-5-19-4-1-2-6-22(19)25/h1-9,16-17,28H,10-15,18,27H2

> <PUBCHEM_IUPAC_INCHIKEY>
FYCXANKHKYEXTR-UHFFFAOYSA-N

> <PUBCHEM_XLOGP3_AA>
3.7

> <PUBCHEM_EXACT_MASS>
428.22122615

> <PUBCHEM_MOLECULAR_FORMULA>
C26H28N4O2

> <PUBCHEM_MOLECULAR_WEIGHT>
428.5

> <PUBCHEM_OPENEYE_CAN_SMILES>
C1CN(CCN1C2=CC=CC3=CC=CC=C32)C(=O)COC4=CC5=C(C=C4)NC=C5CCN

> <PUBCHEM_OPENEYE_ISO_SMILES>
C1CN(CCN1C2=CC=CC3=CC=CC=C32)C(=O)COC4=CC5=C(C=C4)NC=C5CCN

> <PUBCHEM_CACTVS_TPSA>
74.6

> <PUBCHEM_MONOISOTOPIC_WEIGHT>
428.22122615

> <PUBCHEM_TOTAL_CHARGE>
0

> <PUBCHEM_HEAVY_ATOM_COUNT>
32

> <PUBCHEM_ATOM_DEF_STEREO_COUNT>
0

> <PUBCHEM_ATOM_UDEF_STEREO_COUNT>
0

> <PUBCHEM_BOND_DEF_STEREO_COUNT>
0

> <PUBCHEM_BOND_UDEF_STEREO_COUNT>
0

> <PUBCHEM_ISOTOPIC_ATOM_COUNT>
0

> <PUBCHEM_COMPONENT_COUNT>
1

> <PUBCHEM_CACTVS_TAUTO_COUNT>
-1

> <PUBCHEM_COORDINATE_TYPE>
1
5
255

> <PUBCHEM_BONDANNOTATIONS>
11  13  8
11  14  8
13  15  8
13  17  8
14  18  8
15  19  8
15  23  8
17  27  8
18  19  8
20  21  8
20  22  8
20  26  8
21  28  8
22  30  8
23  29  8
24  26  8
24  31  8
27  29  8
30  31  8
5  22  8
5  28  8

$$$$
