10069973
  -OEChem-09292322122D

 59 62  0     0  0  0  0  0  0999 V2000
    4.6783   -5.2938    0.0000 O   0  0  0  0  0  0  0  0  0  0  0  0
   10.1456    1.8932    0.0000 O   0  0  0  0  0  0  0  0  0  0  0  0
   11.4348    3.0499    0.0000 O   0  0  0  0  0  0  0  0  0  0  0  0
    5.6103   -0.8327    0.0000 N   0  0  0  0  0  0  0  0  0  0  0  0
    4.9889   -2.7338    0.0000 N   0  0  0  0  0  0  0  0  0  0  0  0
    5.2619   -4.4890    0.0000 N   0  0  0  0  0  0  0  0  0  0  0  0
    4.6318   -1.0390    0.0000 C   0  0  0  0  0  0  0  0  0  0  0  0
    6.2781   -1.5770    0.0000 C   0  0  0  0  0  0  0  0  0  0  0  0
    4.3211   -1.9895    0.0000 C   0  0  0  0  0  0  0  0  0  0  0  0
    5.9674   -2.5276    0.0000 C   0  0  0  0  0  0  0  0  0  0  0  0
    5.9209    0.1178    0.0000 C   0  0  0  0  0  0  0  0  0  0  0  0
    6.8994    0.3240    0.0000 C   0  0  0  0  0  0  0  0  0  0  0  0
    7.2101    1.2745    0.0000 C   0  0  0  0  0  0  0  0  0  0  0  0
    4.6783   -3.6843    0.0000 C   0  0  0  0  0  0  0  0  0  0  0  0
    8.1886    1.4807    0.0000 C   0  0  0  0  0  0  0  0  0  0  0  0
    3.7320   -3.9890    0.0000 C   0  0  0  0  0  0  0  0  0  0  0  0
    8.4993    2.4313    0.0000 C   0  0  0  0  0  0  0  0  0  0  0  0
    3.7320   -4.9890    0.0000 C   0  0  0  0  0  0  0  0  0  0  0  0
    2.8660   -3.4890    0.0000 C   0  0  0  0  0  0  0  0  0  0  0  0
    9.4778    2.6375    0.0000 C   0  0  0  0  0  0  0  0  0  0  0  0
    2.8660   -5.4890    0.0000 C   0  0  0  0  0  0  0  0  0  0  0  0
    2.0000   -3.9890    0.0000 C   0  0  0  0  0  0  0  0  0  0  0  0
    9.7884    3.5880    0.0000 C   0  0  0  0  0  0  0  0  0  0  0  0
    2.0000   -4.9890    0.0000 C   0  0  0  0  0  0  0  0  0  0  0  0
   10.7669    3.7942    0.0000 C   0  0  0  0  0  0  0  0  0  0  0  0
    9.1206    4.3323    0.0000 C   0  0  0  0  0  0  0  0  0  0  0  0
   11.0776    4.7447    0.0000 C   0  0  0  0  0  0  0  0  0  0  0  0
    9.4312    5.2828    0.0000 C   0  0  0  0  0  0  0  0  0  0  0  0
   10.4097    5.4890    0.0000 C   0  0  0  0  0  0  0  0  0  0  0  0
   12.4133    3.2561    0.0000 C   0  0  0  0  0  0  0  0  0  0  0  0
    4.6112   -0.4193    0.0000 H   0  0  0  0  0  0  0  0  0  0  0  0
    4.0179   -0.9516    0.0000 H   0  0  0  0  0  0  0  0  0  0  0  0
    6.8250   -1.8691    0.0000 H   0  0  0  0  0  0  0  0  0  0  0  0
    6.6607   -1.0891    0.0000 H   0  0  0  0  0  0  0  0  0  0  0  0
    3.7742   -1.6975    0.0000 H   0  0  0  0  0  0  0  0  0  0  0  0
    3.9385   -2.4774    0.0000 H   0  0  0  0  0  0  0  0  0  0  0  0
    5.9880   -3.1472    0.0000 H   0  0  0  0  0  0  0  0  0  0  0  0
    6.5812   -2.6149    0.0000 H   0  0  0  0  0  0  0  0  0  0  0  0
    5.9004    0.7374    0.0000 H   0  0  0  0  0  0  0  0  0  0  0  0
    5.3071    0.2051    0.0000 H   0  0  0  0  0  0  0  0  0  0  0  0
    6.9200   -0.2957    0.0000 H   0  0  0  0  0  0  0  0  0  0  0  0
    7.5132    0.2366    0.0000 H   0  0  0  0  0  0  0  0  0  0  0  0
    7.1895    1.8942    0.0000 H   0  0  0  0  0  0  0  0  0  0  0  0
    6.5963    1.3619    0.0000 H   0  0  0  0  0  0  0  0  0  0  0  0
    8.2092    0.8611    0.0000 H   0  0  0  0  0  0  0  0  0  0  0  0
    8.8024    1.3934    0.0000 H   0  0  0  0  0  0  0  0  0  0  0  0
    8.4787    3.0509    0.0000 H   0  0  0  0  0  0  0  0  0  0  0  0
    7.8854    2.5186    0.0000 H   0  0  0  0  0  0  0  0  0  0  0  0
    2.8660   -2.8690    0.0000 H   0  0  0  0  0  0  0  0  0  0  0  0
    2.8660   -6.1090    0.0000 H   0  0  0  0  0  0  0  0  0  0  0  0
    1.4631   -3.6790    0.0000 H   0  0  0  0  0  0  0  0  0  0  0  0
    1.4631   -5.2990    0.0000 H   0  0  0  0  0  0  0  0  0  0  0  0
    8.5139    4.2044    0.0000 H   0  0  0  0  0  0  0  0  0  0  0  0
   11.6843    4.8726    0.0000 H   0  0  0  0  0  0  0  0  0  0  0  0
    9.0172    5.7443    0.0000 H   0  0  0  0  0  0  0  0  0  0  0  0
   10.6024    6.0784    0.0000 H   0  0  0  0  0  0  0  0  0  0  0  0
   12.5411    2.6495    0.0000 H   0  0  0  0  0  0  0  0  0  0  0  0
   13.0200    3.3840    0.0000 H   0  0  0  0  0  0  0  0  0  0  0  0
   12.2854    3.8628    0.0000 H   0  0  0  0  0  0  0  0  0  0  0  0
  1  6  1  0  0  0  0
  1 18  1  0  0  0  0
  2 20  2  0  0  0  0
  3 25  1  0  0  0  0
  3 30  1  0  0  0  0
  4  7  1  0  0  0  0
  4  8  1  0  0  0  0
  4 11  1  0  0  0  0
  5  9  1  0  0  0  0
  5 10  1  0  0  0  0
  5 14  1  0  0  0  0
  6 14  2  0  0  0  0
  7  9  1  0  0  0  0
  7 31  1  0  0  0  0
  7 32  1  0  0  0  0
  8 10  1  0  0  0  0
  8 33  1  0  0  0  0
  8 34  1  0  0  0  0
  9 35  1  0  0  0  0
  9 36  1  0  0  0  0
 10 37  1  0  0  0  0
 10 38  1  0  0  0  0
 11 12  1  0  0  0  0
 11 39  1  0  0  0  0
 11 40  1  0  0  0  0
 12 13  1  0  0  0  0
 12 41  1  0  0  0  0
 12 42  1  0  0  0  0
 13 15  1  0  0  0  0
 13 43  1  0  0  0  0
 13 44  1  0  0  0  0
 14 16  1  0  0  0  0
 15 17  1  0  0  0  0
 15 45  1  0  0  0  0
 15 46  1  0  0  0  0
 16 18  1  0  0  0  0
 16 19  2  0  0  0  0
 17 20  1  0  0  0  0
 17 47  1  0  0  0  0
 17 48  1  0  0  0  0
 18 21  2  0  0  0  0
 19 22  1  0  0  0  0
 19 49  1  0  0  0  0
 20 23  1  0  0  0  0
 21 24  1  0  0  0  0
 21 50  1  0  0  0  0
 22 24  2  0  0  0  0
 22 51  1  0  0  0  0
 23 25  1  0  0  0  0
 23 26  2  0  0  0  0
 24 52  1  0  0  0  0
 25 27  2  0  0  0  0
 26 28  1  0  0  0  0
 26 53  1  0  0  0  0
 27 29  1  0  0  0  0
 27 54  1  0  0  0  0
 28 29  2  0  0  0  0
 28 55  1  0  0  0  0
 29 56  1  0  0  0  0
 30 57  1  0  0  0  0
 30 58  1  0  0  0  0
 30 59  1  0  0  0  0
M  END
> <PUBCHEM_COMPOUND_CID>
10069973

> <PUBCHEM_COMPOUND_CANONICALIZED>
1

> <PUBCHEM_CACTVS_COMPLEXITY>
538

> <PUBCHEM_CACTVS_HBOND_ACCEPTOR>
6

> <PUBCHEM_CACTVS_HBOND_DONOR>
0

> <PUBCHEM_CACTVS_ROTATABLE_BOND>
9

> <PUBCHEM_CACTVS_SUBSKEYS>
AAADceB7MAAAAAAAAAAAAAAAAAAAAWAAAAA8YIAAAAAAAFgB9AAAHgAEAAAADATBmgYzttMQBACpAqJyYgCCCAAlIAApmCEuTNqMZr7EvZuUMehm4BvI6ceYyOCOAAAAAAAIAAAAAAAAABAAAAAAAAAAAA==

> <PUBCHEM_IUPAC_OPENEYE_NAME>
6-[4-(1,2-benzoxazol-3-yl)piperazin-1-yl]-1-(2-methoxyphenyl)hexan-1-one

> <PUBCHEM_IUPAC_CAS_NAME>
6-[4-(1,2-benzoxazol-3-yl)-1-piperazinyl]-1-(2-methoxyphenyl)-1-hexanone

> <PUBCHEM_IUPAC_NAME_MARKUP>
6-[4-(1,2-benzoxazol-3-yl)piperazin-1-yl]-1-(2-methoxyphenyl)hexan-1-one

> <PUBCHEM_IUPAC_NAME>
6-[4-(1,2-benzoxazol-3-yl)piperazin-1-yl]-1-(2-methoxyphenyl)hexan-1-one

> <PUBCHEM_IUPAC_SYSTEMATIC_NAME>
6-[4-(1,2-benzoxazol-3-yl)piperazin-1-yl]-1-(2-methoxyphenyl)hexan-1-one

> <PUBCHEM_IUPAC_TRADITIONAL_NAME>
6-(4-indoxazen-3-ylpiperazino)-1-(2-methoxyphenyl)hexan-1-one

> <PUBCHEM_IUPAC_INCHI>
InChI=1S/C24H29N3O3/c1-29-22-12-6-4-9-19(22)21(28)11-3-2-8-14-26-15-17-27(18-16-26)24-20-10-5-7-13-23(20)30-25-24/h4-7,9-10,12-13H,2-3,8,11,14-18H2,1H3

> <PUBCHEM_IUPAC_INCHIKEY>
VRSNKCQWIMHWFX-UHFFFAOYSA-N

> <PUBCHEM_XLOGP3_AA>
4.3

> <PUBCHEM_EXACT_MASS>
407.22089180

> <PUBCHEM_MOLECULAR_FORMULA>
C24H29N3O3

> <PUBCHEM_MOLECULAR_WEIGHT>
407.5

> <PUBCHEM_OPENEYE_CAN_SMILES>
COC1=CC=CC=C1C(=O)CCCCCN2CCN(CC2)C3=NOC4=CC=CC=C43

> <PUBCHEM_OPENEYE_ISO_SMILES>
COC1=CC=CC=C1C(=O)CCCCCN2CCN(CC2)C3=NOC4=CC=CC=C43

> <PUBCHEM_CACTVS_TPSA>
58.8

> <PUBCHEM_MONOISOTOPIC_WEIGHT>
407.22089180

> <PUBCHEM_TOTAL_CHARGE>
0

> <PUBCHEM_HEAVY_ATOM_COUNT>
30

> <PUBCHEM_ATOM_DEF_STEREO_COUNT>
0

> <PUBCHEM_ATOM_UDEF_STEREO_COUNT>
0

> <PUBCHEM_BOND_DEF_STEREO_COUNT>
0

> <PUBCHEM_BOND_UDEF_STEREO_COUNT>
0

> <PUBCHEM_ISOTOPIC_ATOM_COUNT>
0

> <PUBCHEM_COMPONENT_COUNT>
1

> <PUBCHEM_CACTVS_TAUTO_COUNT>
-1

> <PUBCHEM_COORDINATE_TYPE>
1
5
255

> <PUBCHEM_BONDANNOTATIONS>
1  18  8
1  6  8
14  16  8
16  18  8
16  19  8
18  21  8
19  22  8
21  24  8
22  24  8
23  25  8
23  26  8
25  27  8
26  28  8
27  29  8
28  29  8
6  14  8

$$$$
