67005480
  -OEChem-09292321592D

 38 39  0     1  0  0  0  0  0999 V2000
    2.7393    0.0000    0.0000 Cl  0  0  0  0  0  0  0  0  0  0  0  0
    4.9617    3.8709    0.0000 O   0  0  0  0  0  0  0  0  0  0  0  0
    1.4534    2.8710    0.0000 O   0  0  0  0  0  0  0  0  0  0  0  0
    4.9617    5.9402    0.0000 N   0  0  3  0  0  0  0  0  0  0  0  0
    4.0678    5.4056    0.0000 C   0  0  1  0  0  0  0  0  0  0  0  0
    4.0678    4.4056    0.0000 C   0  0  1  0  0  0  0  0  0  0  0  0
    3.2018    5.9056    0.0000 C   0  0  0  0  0  0  0  0  0  0  0  0
    3.2018    3.9056    0.0000 C   0  0  0  0  0  0  0  0  0  0  0  0
    5.8678    5.4264    0.0000 C   0  0  0  0  0  0  0  0  0  0  0  0
    2.3358    5.4056    0.0000 C   0  0  0  0  0  0  0  0  0  0  0  0
    2.3358    4.4056    0.0000 C   0  0  0  0  0  0  0  0  0  0  0  0
    5.8678    4.3847    0.0000 C   0  0  0  0  0  0  0  0  0  0  0  0
    4.9502    6.9402    0.0000 C   0  0  0  0  0  0  0  0  0  0  0  0
    1.4418    3.8709    0.0000 C   0  0  0  0  0  0  0  0  0  0  0  0
    1.4418    5.9402    0.0000 C   0  0  0  0  0  0  0  0  0  0  0  0
    5.8104    7.4501    0.0000 C   0  0  0  0  0  0  0  0  0  0  0  0
    0.5357    4.3847    0.0000 C   0  0  0  0  0  0  0  0  0  0  0  0
    0.5357    5.4264    0.0000 C   0  0  0  0  0  0  0  0  0  0  0  0
    4.0612    6.2555    0.0000 H   0  0  0  0  0  0  0  0  0  0  0  0
    4.0612    3.5556    0.0000 H   0  0  0  0  0  0  0  0  0  0  0  0
    3.6003    6.3805    0.0000 H   0  0  0  0  0  0  0  0  0  0  0  0
    2.8032    6.3805    0.0000 H   0  0  0  0  0  0  0  0  0  0  0  0
    2.8032    3.4306    0.0000 H   0  0  0  0  0  0  0  0  0  0  0  0
    3.6003    3.4306    0.0000 H   0  0  0  0  0  0  0  0  0  0  0  0
    6.4787    5.3203    0.0000 H   0  0  0  0  0  0  0  0  0  0  0  0
    6.0769    6.0101    0.0000 H   0  0  0  0  0  0  0  0  0  0  0  0
    6.0769    3.8010    0.0000 H   0  0  0  0  0  0  0  0  0  0  0  0
    6.4787    4.4908    0.0000 H   0  0  0  0  0  0  0  0  0  0  0  0
    4.7314    7.5203    0.0000 H   0  0  0  0  0  0  0  0  0  0  0  0
    4.3409    6.8254    0.0000 H   0  0  0  0  0  0  0  0  0  0  0  0
    1.4490    6.5602    0.0000 H   0  0  0  0  0  0  0  0  0  0  0  0
    6.1266    6.9168    0.0000 H   0  0  0  0  0  0  0  0  0  0  0  0
    6.3437    7.7663    0.0000 H   0  0  0  0  0  0  0  0  0  0  0  0
    5.4942    7.9834    0.0000 H   0  0  0  0  0  0  0  0  0  0  0  0
    0.0000    4.0727    0.0000 H   0  0  0  0  0  0  0  0  0  0  0  0
    0.0000    5.7384    0.0000 H   0  0  0  0  0  0  0  0  0  0  0  0
    0.9201    2.5548    0.0000 H   0  0  0  0  0  0  0  0  0  0  0  0
    3.7393    0.0000    0.0000 H   0  0  0  0  0  0  0  0  0  0  0  0
  1 38  1  0  0  0  0
  2  6  1  0  0  0  0
  2 12  1  0  0  0  0
  3 14  1  0  0  0  0
  3 37  1  0  0  0  0
  4  5  1  0  0  0  0
  4  9  1  0  0  0  0
  4 13  1  0  0  0  0
  5  6  1  0  0  0  0
  5  7  1  0  0  0  0
  5 19  1  6  0  0  0
  6  8  1  0  0  0  0
  6 20  1  1  0  0  0
  7 10  1  0  0  0  0
  7 21  1  0  0  0  0
  7 22  1  0  0  0  0
  8 11  1  0  0  0  0
  8 23  1  0  0  0  0
  8 24  1  0  0  0  0
  9 12  1  0  0  0  0
  9 25  1  0  0  0  0
  9 26  1  0  0  0  0
 10 11  2  0  0  0  0
 10 15  1  0  0  0  0
 11 14  1  0  0  0  0
 12 27  1  0  0  0  0
 12 28  1  0  0  0  0
 13 16  1  0  0  0  0
 13 29  1  0  0  0  0
 13 30  1  0  0  0  0
 14 17  2  0  0  0  0
 15 18  2  0  0  0  0
 15 31  1  0  0  0  0
 16 32  1  0  0  0  0
 16 33  1  0  0  0  0
 16 34  1  0  0  0  0
 17 18  1  0  0  0  0
 17 35  1  0  0  0  0
 18 36  1  0  0  0  0
M  END
> <PUBCHEM_COMPOUND_CID>
67005480

> <PUBCHEM_COMPOUND_CANONICALIZED>
1

> <PUBCHEM_CACTVS_COMPLEXITY>
271

> <PUBCHEM_CACTVS_HBOND_ACCEPTOR>
3

> <PUBCHEM_CACTVS_HBOND_DONOR>
2

> <PUBCHEM_CACTVS_ROTATABLE_BOND>
1

> <PUBCHEM_CACTVS_SUBSKEYS>
AAADceByMAAEAAAAAAAAAAAAAAAAAAAAAAA8YIAAAAAAAADxAAAAHgAACAAADDzhmAYyBoMABgCAAiBCAAACAAAgIAAIiAAOCIgKJiKCkROHcAAkwBGYmAfQ0LMOgAABAAAYAABQAAKAADAgAAAAAAAAAA==

> <PUBCHEM_IUPAC_OPENEYE_NAME>
(4aR,10aR)-4-ethyl-2,3,4a,5,10,10a-hexahydrobenzo[g][1,4]benzoxazin-9-ol;hydrochloride

> <PUBCHEM_IUPAC_CAS_NAME>
(4aR,10aR)-4-ethyl-2,3,4a,5,10,10a-hexahydrobenzo[g][1,4]benzoxazin-9-ol;hydrochloride

> <PUBCHEM_IUPAC_NAME_MARKUP>
(4<I>a</I><I>R</I>,10<I>a</I><I>R</I>)-4-ethyl-2,3,4<I>a</I>,5,10,10<I>a</I>-hexahydrobenzo[g][1,4]benzoxazin-9-ol;hydrochloride

> <PUBCHEM_IUPAC_NAME>
(4aR,10aR)-4-ethyl-2,3,4a,5,10,10a-hexahydrobenzo[g][1,4]benzoxazin-9-ol;hydrochloride

> <PUBCHEM_IUPAC_SYSTEMATIC_NAME>
(4aR,10aR)-4-ethyl-2,3,4a,5,10,10a-hexahydrobenzo[g][1,4]benzoxazin-9-ol;hydrochloride

> <PUBCHEM_IUPAC_TRADITIONAL_NAME>
(4aR,10aR)-4-ethyl-2,3,4a,5,10,10a-hexahydrobenzo[g][1,4]benzoxazin-9-ol;hydrochloride

> <PUBCHEM_IUPAC_INCHI>
InChI=1S/C14H19NO2.ClH/c1-2-15-6-7-17-14-9-11-10(8-12(14)15)4-3-5-13(11)16;/h3-5,12,14,16H,2,6-9H2,1H3;1H/t12-,14-;/m1./s1

> <PUBCHEM_IUPAC_INCHIKEY>
KCKWHKILLFYIKF-QMDUSEKHSA-N

> <PUBCHEM_EXACT_MASS>
269.1182566

> <PUBCHEM_MOLECULAR_FORMULA>
C14H20ClNO2

> <PUBCHEM_MOLECULAR_WEIGHT>
269.77

> <PUBCHEM_OPENEYE_CAN_SMILES>
CCN1CCOC2C1CC3=C(C2)C(=CC=C3)O.Cl

> <PUBCHEM_OPENEYE_ISO_SMILES>
CCN1CCO[C@H]2[C@H]1CC3=C(C2)C(=CC=C3)O.Cl

> <PUBCHEM_CACTVS_TPSA>
32.7

> <PUBCHEM_MONOISOTOPIC_WEIGHT>
269.1182566

> <PUBCHEM_TOTAL_CHARGE>
0

> <PUBCHEM_HEAVY_ATOM_COUNT>
18

> <PUBCHEM_ATOM_DEF_STEREO_COUNT>
2

> <PUBCHEM_ATOM_UDEF_STEREO_COUNT>
0

> <PUBCHEM_BOND_DEF_STEREO_COUNT>
0

> <PUBCHEM_BOND_UDEF_STEREO_COUNT>
0

> <PUBCHEM_ISOTOPIC_ATOM_COUNT>
0

> <PUBCHEM_COMPONENT_COUNT>
2

> <PUBCHEM_CACTVS_TAUTO_COUNT>
-1

> <PUBCHEM_COORDINATE_TYPE>
1
5
255

> <PUBCHEM_BONDANNOTATIONS>
10  11  8
10  15  8
11  14  8
14  17  8
15  18  8
17  18  8
5  19  6
6  20  5

$$$$
