76329370
  -OEChem-09292321592D

146153  0     1  0  0  0  0  0999 V2000
    6.3637   -1.2154    0.0000 O   0  0  0  0  0  0  0  0  0  0  0  0
   33.3116    1.2154    0.0000 O   0  0  0  0  0  0  0  0  0  0  0  0
    8.1455   -0.2049    0.0000 O   0  0  0  0  0  0  0  0  0  0  0  0
   31.5299    0.2049    0.0000 O   0  0  0  0  0  0  0  0  0  0  0  0
   12.4813    1.2784    0.0000 O   0  0  0  0  0  0  0  0  0  0  0  0
   27.1940   -1.2784    0.0000 O   0  0  0  0  0  0  0  0  0  0  0  0
    2.8911    1.8162    0.0000 N   0  0  3  0  0  0  0  0  0  0  0  0
   36.7843   -1.8162    0.0000 N   0  0  3  0  0  0  0  0  0  0  0  0
   11.6095   -0.2183    0.0000 N   0  0  0  0  0  0  0  0  0  0  0  0
   28.0658    0.2183    0.0000 N   0  0  0  0  0  0  0  0  0  0  0  0
    3.7493    1.3192    0.0000 C   0  0  1  0  0  0  0  0  0  0  0  0
   35.9261   -1.3192    0.0000 C   0  0  1  0  0  0  0  0  0  0  0  0
    3.7493    0.3192    0.0000 C   0  0  0  0  0  0  0  0  0  0  0  0
   35.9261   -0.3192    0.0000 C   0  0  0  0  0  0  0  0  0  0  0  0
    4.6153    1.8192    0.0000 C   0  0  0  0  0  0  0  0  0  0  0  0
   35.0600   -1.8192    0.0000 C   0  0  0  0  0  0  0  0  0  0  0  0
    2.8393   -0.1876    0.0000 C   0  0  0  0  0  0  0  0  0  0  0  0
   36.8361    0.1876    0.0000 C   0  0  0  0  0  0  0  0  0  0  0  0
    2.0256    1.3320    0.0000 C   0  0  0  0  0  0  0  0  0  0  0  0
   37.6498   -1.3320    0.0000 C   0  0  0  0  0  0  0  0  0  0  0  0
    2.0000    0.3406    0.0000 C   0  0  0  0  0  0  0  0  0  0  0  0
   37.6754   -0.3406    0.0000 C   0  0  0  0  0  0  0  0  0  0  0  0
    4.6153   -0.1808    0.0000 C   0  0  0  0  0  0  0  0  0  0  0  0
   35.0600    0.1808    0.0000 C   0  0  0  0  0  0  0  0  0  0  0  0
    5.4814    1.3192    0.0000 C   0  0  0  0  0  0  0  0  0  0  0  0
   34.1940   -1.3192    0.0000 C   0  0  0  0  0  0  0  0  0  0  0  0
    5.4814    0.3192    0.0000 C   0  0  0  0  0  0  0  0  0  0  0  0
   34.1940   -0.3192    0.0000 C   0  0  0  0  0  0  0  0  0  0  0  0
    2.8985    2.8161    0.0000 C   0  0  0  0  0  0  0  0  0  0  0  0
   36.7769   -2.8161    0.0000 C   0  0  0  0  0  0  0  0  0  0  0  0
    2.8313   -1.2292    0.0000 C   0  0  0  0  0  0  0  0  0  0  0  0
   36.8441    1.2292    0.0000 C   0  0  0  0  0  0  0  0  0  0  0  0
    4.6314   -1.2223    0.0000 C   0  0  0  0  0  0  0  0  0  0  0  0
   35.0440    1.2223    0.0000 C   0  0  0  0  0  0  0  0  0  0  0  0
    6.3753   -0.2154    0.0000 C   0  0  0  0  0  0  0  0  0  0  0  0
   33.3001    0.2154    0.0000 C   0  0  0  0  0  0  0  0  0  0  0  0
    6.3753    1.8539    0.0000 C   0  0  0  0  0  0  0  0  0  0  0  0
   33.3001   -1.8539    0.0000 C   0  0  0  0  0  0  0  0  0  0  0  0
    3.7334   -1.7500    0.0000 C   0  0  0  0  0  0  0  0  0  0  0  0
   35.9420    1.7500    0.0000 C   0  0  0  0  0  0  0  0  0  0  0  0
    7.2814    0.2984    0.0000 C   0  0  0  0  0  0  0  0  0  0  0  0
   32.3940   -0.2984    0.0000 C   0  0  0  0  0  0  0  0  0  0  0  0
    7.2814    1.3400    0.0000 C   0  0  0  0  0  0  0  0  0  0  0  0
   32.3940   -1.3400    0.0000 C   0  0  0  0  0  0  0  0  0  0  0  0
    9.0134    0.2917    0.0000 C   0  0  0  0  0  0  0  0  0  0  0  0
   30.6620   -0.2917    0.0000 C   0  0  0  0  0  0  0  0  0  0  0  0
    9.8775   -0.2116    0.0000 C   0  0  0  0  0  0  0  0  0  0  0  0
   29.7979    0.2116    0.0000 C   0  0  0  0  0  0  0  0  0  0  0  0
   19.4056    0.2517    0.0000 C   0  0  0  0  0  0  0  0  0  0  0  0
   20.2697   -0.2517    0.0000 C   0  0  0  0  0  0  0  0  0  0  0  0
   18.5377   -0.2450    0.0000 C   0  0  0  0  0  0  0  0  0  0  0  0
   21.1377    0.2450    0.0000 C   0  0  0  0  0  0  0  0  0  0  0  0
   17.6736    0.2583    0.0000 C   0  0  0  0  0  0  0  0  0  0  0  0
   22.0018   -0.2583    0.0000 C   0  0  0  0  0  0  0  0  0  0  0  0
   10.7455    0.2850    0.0000 C   0  0  0  0  0  0  0  0  0  0  0  0
   28.9299   -0.2850    0.0000 C   0  0  0  0  0  0  0  0  0  0  0  0
   16.8057   -0.2383    0.0000 C   0  0  0  0  0  0  0  0  0  0  0  0
   22.8697    0.2383    0.0000 C   0  0  0  0  0  0  0  0  0  0  0  0
   15.9416    0.2650    0.0000 C   0  0  0  0  0  0  0  0  0  0  0  0
   23.7338   -0.2650    0.0000 C   0  0  0  0  0  0  0  0  0  0  0  0
   15.0736   -0.2316    0.0000 C   0  0  0  0  0  0  0  0  0  0  0  0
   24.6018    0.2316    0.0000 C   0  0  0  0  0  0  0  0  0  0  0  0
   14.2095    0.2717    0.0000 C   0  0  0  0  0  0  0  0  0  0  0  0
   25.4658   -0.2717    0.0000 C   0  0  0  0  0  0  0  0  0  0  0  0
   13.3416   -0.2250    0.0000 C   0  0  0  0  0  0  0  0  0  0  0  0
   26.3338    0.2250    0.0000 C   0  0  0  0  0  0  0  0  0  0  0  0
   12.4775    0.2784    0.0000 C   0  0  0  0  0  0  0  0  0  0  0  0
   27.1979   -0.2784    0.0000 C   0  0  0  0  0  0  0  0  0  0  0  0
    3.7498    2.1692    0.0000 H   0  0  0  0  0  0  0  0  0  0  0  0
   35.9255   -2.1692    0.0000 H   0  0  0  0  0  0  0  0  0  0  0  0
    5.0139    2.2942    0.0000 H   0  0  0  0  0  0  0  0  0  0  0  0
    4.2168    2.2942    0.0000 H   0  0  0  0  0  0  0  0  0  0  0  0
   34.6615   -2.2942    0.0000 H   0  0  0  0  0  0  0  0  0  0  0  0
   35.4586   -2.2942    0.0000 H   0  0  0  0  0  0  0  0  0  0  0  0
    1.8239    1.9182    0.0000 H   0  0  0  0  0  0  0  0  0  0  0  0
    1.4128    1.2376    0.0000 H   0  0  0  0  0  0  0  0  0  0  0  0
   37.8515   -1.9182    0.0000 H   0  0  0  0  0  0  0  0  0  0  0  0
   38.2625   -1.2376    0.0000 H   0  0  0  0  0  0  0  0  0  0  0  0
    1.3929    0.4665    0.0000 H   0  0  0  0  0  0  0  0  0  0  0  0
    1.7682   -0.2345    0.0000 H   0  0  0  0  0  0  0  0  0  0  0  0
   38.2825   -0.4665    0.0000 H   0  0  0  0  0  0  0  0  0  0  0  0
   37.9071    0.2345    0.0000 H   0  0  0  0  0  0  0  0  0  0  0  0
    3.5185    2.8115    0.0000 H   0  0  0  0  0  0  0  0  0  0  0  0
    2.9031    3.4361    0.0000 H   0  0  0  0  0  0  0  0  0  0  0  0
    2.2785    2.8207    0.0000 H   0  0  0  0  0  0  0  0  0  0  0  0
   36.1569   -2.8115    0.0000 H   0  0  0  0  0  0  0  0  0  0  0  0
   36.7723   -3.4361    0.0000 H   0  0  0  0  0  0  0  0  0  0  0  0
   37.3969   -2.8207    0.0000 H   0  0  0  0  0  0  0  0  0  0  0  0
    2.2932   -1.5372    0.0000 H   0  0  0  0  0  0  0  0  0  0  0  0
   37.3822    1.5372    0.0000 H   0  0  0  0  0  0  0  0  0  0  0  0
    5.1719   -1.5261    0.0000 H   0  0  0  0  0  0  0  0  0  0  0  0
   34.5035    1.5261    0.0000 H   0  0  0  0  0  0  0  0  0  0  0  0
    6.3681    2.4738    0.0000 H   0  0  0  0  0  0  0  0  0  0  0  0
   33.3072   -2.4738    0.0000 H   0  0  0  0  0  0  0  0  0  0  0  0
    3.7358   -2.3700    0.0000 H   0  0  0  0  0  0  0  0  0  0  0  0
   35.9396    2.3700    0.0000 H   0  0  0  0  0  0  0  0  0  0  0  0
    7.8171    1.6521    0.0000 H   0  0  0  0  0  0  0  0  0  0  0  0
   31.8583   -1.6521    0.0000 H   0  0  0  0  0  0  0  0  0  0  0  0
    6.8971   -1.5316    0.0000 H   0  0  0  0  0  0  0  0  0  0  0  0
   32.7783    1.5316    0.0000 H   0  0  0  0  0  0  0  0  0  0  0  0
    9.4138    0.7651    0.0000 H   0  0  0  0  0  0  0  0  0  0  0  0
    8.6167    0.7682    0.0000 H   0  0  0  0  0  0  0  0  0  0  0  0
   30.2616   -0.7651    0.0000 H   0  0  0  0  0  0  0  0  0  0  0  0
   31.0587   -0.7682    0.0000 H   0  0  0  0  0  0  0  0  0  0  0  0
    9.4772   -0.6850    0.0000 H   0  0  0  0  0  0  0  0  0  0  0  0
   10.2742   -0.6881    0.0000 H   0  0  0  0  0  0  0  0  0  0  0  0
   30.1982    0.6850    0.0000 H   0  0  0  0  0  0  0  0  0  0  0  0
   29.4012    0.6881    0.0000 H   0  0  0  0  0  0  0  0  0  0  0  0
   19.8060    0.7251    0.0000 H   0  0  0  0  0  0  0  0  0  0  0  0
   19.0089    0.7281    0.0000 H   0  0  0  0  0  0  0  0  0  0  0  0
   19.8694   -0.7251    0.0000 H   0  0  0  0  0  0  0  0  0  0  0  0
   20.6664   -0.7281    0.0000 H   0  0  0  0  0  0  0  0  0  0  0  0
   18.1373   -0.7184    0.0000 H   0  0  0  0  0  0  0  0  0  0  0  0
   18.9344   -0.7215    0.0000 H   0  0  0  0  0  0  0  0  0  0  0  0
   21.5380    0.7184    0.0000 H   0  0  0  0  0  0  0  0  0  0  0  0
   20.7410    0.7215    0.0000 H   0  0  0  0  0  0  0  0  0  0  0  0
   18.0740    0.7318    0.0000 H   0  0  0  0  0  0  0  0  0  0  0  0
   17.2769    0.7348    0.0000 H   0  0  0  0  0  0  0  0  0  0  0  0
   21.6014   -0.7318    0.0000 H   0  0  0  0  0  0  0  0  0  0  0  0
   22.3985   -0.7348    0.0000 H   0  0  0  0  0  0  0  0  0  0  0  0
   16.4053   -0.7117    0.0000 H   0  0  0  0  0  0  0  0  0  0  0  0
   17.2024   -0.7148    0.0000 H   0  0  0  0  0  0  0  0  0  0  0  0
   23.2701    0.7117    0.0000 H   0  0  0  0  0  0  0  0  0  0  0  0
   22.4730    0.7148    0.0000 H   0  0  0  0  0  0  0  0  0  0  0  0
   11.1458    0.7585    0.0000 H   0  0  0  0  0  0  0  0  0  0  0  0
   10.3488    0.7615    0.0000 H   0  0  0  0  0  0  0  0  0  0  0  0
   28.5296   -0.7585    0.0000 H   0  0  0  0  0  0  0  0  0  0  0  0
   29.3266   -0.7615    0.0000 H   0  0  0  0  0  0  0  0  0  0  0  0
   16.3419    0.7384    0.0000 H   0  0  0  0  0  0  0  0  0  0  0  0
   15.5449    0.7415    0.0000 H   0  0  0  0  0  0  0  0  0  0  0  0
   23.3335   -0.7384    0.0000 H   0  0  0  0  0  0  0  0  0  0  0  0
   24.1305   -0.7415    0.0000 H   0  0  0  0  0  0  0  0  0  0  0  0
   14.6733   -0.7050    0.0000 H   0  0  0  0  0  0  0  0  0  0  0  0
   15.4703   -0.7081    0.0000 H   0  0  0  0  0  0  0  0  0  0  0  0
   25.0021    0.7050    0.0000 H   0  0  0  0  0  0  0  0  0  0  0  0
   24.2051    0.7081    0.0000 H   0  0  0  0  0  0  0  0  0  0  0  0
   14.6099    0.7451    0.0000 H   0  0  0  0  0  0  0  0  0  0  0  0
   13.8128    0.7482    0.0000 H   0  0  0  0  0  0  0  0  0  0  0  0
   25.0655   -0.7451    0.0000 H   0  0  0  0  0  0  0  0  0  0  0  0
   25.8625   -0.7482    0.0000 H   0  0  0  0  0  0  0  0  0  0  0  0
   11.6072   -0.8383    0.0000 H   0  0  0  0  0  0  0  0  0  0  0  0
   28.0682    0.8383    0.0000 H   0  0  0  0  0  0  0  0  0  0  0  0
   12.9412   -0.6984    0.0000 H   0  0  0  0  0  0  0  0  0  0  0  0
   13.7383   -0.7014    0.0000 H   0  0  0  0  0  0  0  0  0  0  0  0
   26.7341    0.6984    0.0000 H   0  0  0  0  0  0  0  0  0  0  0  0
   25.9371    0.7014    0.0000 H   0  0  0  0  0  0  0  0  0  0  0  0
  1 35  1  0  0  0  0
  1 99  1  0  0  0  0
  2 36  1  0  0  0  0
  2100  1  0  0  0  0
  3 41  1  0  0  0  0
  3 45  1  0  0  0  0
  4 42  1  0  0  0  0
  4 46  1  0  0  0  0
  5 67  2  0  0  0  0
  6 68  2  0  0  0  0
  7 11  1  0  0  0  0
  7 19  1  0  0  0  0
  7 29  1  0  0  0  0
  8 12  1  0  0  0  0
  8 20  1  0  0  0  0
  8 30  1  0  0  0  0
  9 55  1  0  0  0  0
  9 67  1  0  0  0  0
  9141  1  0  0  0  0
 10 56  1  0  0  0  0
 10 68  1  0  0  0  0
 10142  1  0  0  0  0
 11 13  1  0  0  0  0
 11 15  1  0  0  0  0
 11 69  1  1  0  0  0
 12 14  1  0  0  0  0
 12 16  1  0  0  0  0
 12 70  1  1  0  0  0
 13 17  2  0  0  0  0
 13 23  1  0  0  0  0
 14 18  2  0  0  0  0
 14 24  1  0  0  0  0
 15 25  1  0  0  0  0
 15 71  1  0  0  0  0
 15 72  1  0  0  0  0
 16 26  1  0  0  0  0
 16 73  1  0  0  0  0
 16 74  1  0  0  0  0
 17 21  1  0  0  0  0
 17 31  1  0  0  0  0
 18 22  1  0  0  0  0
 18 32  1  0  0  0  0
 19 21  1  0  0  0  0
 19 75  1  0  0  0  0
 19 76  1  0  0  0  0
 20 22  1  0  0  0  0
 20 77  1  0  0  0  0
 20 78  1  0  0  0  0
 21 79  1  0  0  0  0
 21 80  1  0  0  0  0
 22 81  1  0  0  0  0
 22 82  1  0  0  0  0
 23 27  1  0  0  0  0
 23 33  2  0  0  0  0
 24 28  1  0  0  0  0
 24 34  2  0  0  0  0
 25 27  2  0  0  0  0
 25 37  1  0  0  0  0
 26 28  2  0  0  0  0
 26 38  1  0  0  0  0
 27 35  1  0  0  0  0
 28 36  1  0  0  0  0
 29 83  1  0  0  0  0
 29 84  1  0  0  0  0
 29 85  1  0  0  0  0
 30 86  1  0  0  0  0
 30 87  1  0  0  0  0
 30 88  1  0  0  0  0
 31 39  2  0  0  0  0
 31 89  1  0  0  0  0
 32 40  2  0  0  0  0
 32 90  1  0  0  0  0
 33 39  1  0  0  0  0
 33 91  1  0  0  0  0
 34 40  1  0  0  0  0
 34 92  1  0  0  0  0
 35 41  2  0  0  0  0
 36 42  2  0  0  0  0
 37 43  2  0  0  0  0
 37 93  1  0  0  0  0
 38 44  2  0  0  0  0
 38 94  1  0  0  0  0
 39 95  1  0  0  0  0
 40 96  1  0  0  0  0
 41 43  1  0  0  0  0
 42 44  1  0  0  0  0
 43 97  1  0  0  0  0
 44 98  1  0  0  0  0
 45 47  1  0  0  0  0
 45101  1  0  0  0  0
 45102  1  0  0  0  0
 46 48  1  0  0  0  0
 46103  1  0  0  0  0
 46104  1  0  0  0  0
 47 55  1  0  0  0  0
 47105  1  0  0  0  0
 47106  1  0  0  0  0
 48 56  1  0  0  0  0
 48107  1  0  0  0  0
 48108  1  0  0  0  0
 49 50  1  0  0  0  0
 49 51  1  0  0  0  0
 49109  1  0  0  0  0
 49110  1  0  0  0  0
 50 52  1  0  0  0  0
 50111  1  0  0  0  0
 50112  1  0  0  0  0
 51 53  1  0  0  0  0
 51113  1  0  0  0  0
 51114  1  0  0  0  0
 52 54  1  0  0  0  0
 52115  1  0  0  0  0
 52116  1  0  0  0  0
 53 57  1  0  0  0  0
 53117  1  0  0  0  0
 53118  1  0  0  0  0
 54 58  1  0  0  0  0
 54119  1  0  0  0  0
 54120  1  0  0  0  0
 55125  1  0  0  0  0
 55126  1  0  0  0  0
 56127  1  0  0  0  0
 56128  1  0  0  0  0
 57 59  1  0  0  0  0
 57121  1  0  0  0  0
 57122  1  0  0  0  0
 58 60  1  0  0  0  0
 58123  1  0  0  0  0
 58124  1  0  0  0  0
 59 61  1  0  0  0  0
 59129  1  0  0  0  0
 59130  1  0  0  0  0
 60 62  1  0  0  0  0
 60131  1  0  0  0  0
 60132  1  0  0  0  0
 61 63  1  0  0  0  0
 61133  1  0  0  0  0
 61134  1  0  0  0  0
 62 64  1  0  0  0  0
 62135  1  0  0  0  0
 62136  1  0  0  0  0
 63 65  1  0  0  0  0
 63137  1  0  0  0  0
 63138  1  0  0  0  0
 64 66  1  0  0  0  0
 64139  1  0  0  0  0
 64140  1  0  0  0  0
 65 67  1  0  0  0  0
 65143  1  0  0  0  0
 65144  1  0  0  0  0
 66 68  1  0  0  0  0
 66145  1  0  0  0  0
 66146  1  0  0  0  0
M  END
> <PUBCHEM_COMPOUND_CID>
76329370

> <PUBCHEM_COMPOUND_CANONICALIZED>
1

> <PUBCHEM_CACTVS_COMPLEXITY>
1390

> <PUBCHEM_CACTVS_HBOND_ACCEPTOR>
8

> <PUBCHEM_CACTVS_HBOND_DONOR>
4

> <PUBCHEM_CACTVS_ROTATABLE_BOND>
27

> <PUBCHEM_CACTVS_SUBSKEYS>
AAADcfB/uAAAAAAAAAAAAAAAAAAAAAAAAAA8eMGDAAAAAADxVAAAHgAQCAAADCzhmAYyBoPABgCIAiFSEACCCAAgIAAIiIEOjIgNJjKGsRuGeCvm1hGLuAeY2POOoAADAAAYQADQAAaAADSAAAAAAAAAAA==

> <PUBCHEM_IUPAC_OPENEYE_NAME>
N,N'-bis[3-[[(6aR)-11-hydroxy-6-methyl-5,6,6a,7-tetrahydro-4H-dibenzo[de,g]quinolin-10-yl]oxy]propyl]octadecanediamide

> <PUBCHEM_IUPAC_CAS_NAME>
N,N'-bis[3-[[(6aR)-11-hydroxy-6-methyl-5,6,6a,7-tetrahydro-4H-dibenzo[de,g]quinolin-10-yl]oxy]propyl]octadecanediamide

> <PUBCHEM_IUPAC_NAME_MARKUP>
<I>N</I>,<I>N</I>&apos;-bis[3-[[(6<I>a</I><I>R</I>)-11-hydroxy-6-methyl-5,6,6<I>a</I>,7-tetrahydro-4<I>H</I>-dibenzo[de,g]quinolin-10-yl]oxy]propyl]octadecanediamide

> <PUBCHEM_IUPAC_NAME>
N,N'-bis[3-[[(6aR)-11-hydroxy-6-methyl-5,6,6a,7-tetrahydro-4H-dibenzo[de,g]quinolin-10-yl]oxy]propyl]octadecanediamide

> <PUBCHEM_IUPAC_SYSTEMATIC_NAME>
N,N'-bis[3-[[(6aR)-6-methyl-11-oxidanyl-5,6,6a,7-tetrahydro-4H-dibenzo[de,g]quinolin-10-yl]oxy]propyl]octadecanediamide

> <PUBCHEM_IUPAC_TRADITIONAL_NAME>
N,N'-bis[3-[[(6aR)-11-hydroxy-6-methyl-5,6,6a,7-tetrahydro-4H-dibenzo[de,g]quinolin-10-yl]oxy]propyl]octadecanediamide

> <PUBCHEM_IUPAC_INCHI>
InChI=1S/C58H78N4O6/c1-61-35-31-41-21-17-23-45-53(41)47(61)39-43-27-29-49(57(65)55(43)45)67-37-19-33-59-51(63)25-15-13-11-9-7-5-3-4-6-8-10-12-14-16-26-52(64)60-34-20-38-68-50-30-28-44-40-48-54-42(32-36-62(48)2)22-18-24-46(54)56(44)58(50)66/h17-18,21-24,27-30,47-48,65-66H,3-16,19-20,25-26,31-40H2,1-2H3,(H,59,63)(H,60,64)/t47-,48-/m1/s1

> <PUBCHEM_IUPAC_INCHIKEY>
MBCXFUUKTICCLI-URZIEALYSA-N

> <PUBCHEM_XLOGP3_AA>
12.4

> <PUBCHEM_EXACT_MASS>
926.59213622

> <PUBCHEM_MOLECULAR_FORMULA>
C58H78N4O6

> <PUBCHEM_MOLECULAR_WEIGHT>
927.3

> <PUBCHEM_OPENEYE_CAN_SMILES>
CN1CCC2=C3C1CC4=C(C3=CC=C2)C(=C(C=C4)OCCCNC(=O)CCCCCCCCCCCCCCCCC(=O)NCCCOC5=C(C6=C(CC7C8=C(CCN7C)C=CC=C86)C=C5)O)O

> <PUBCHEM_OPENEYE_ISO_SMILES>
CN1CCC2=C3[C@H]1CC4=C(C3=CC=C2)C(=C(C=C4)OCCCNC(=O)CCCCCCCCCCCCCCCCC(=O)NCCCOC5=C(C6=C(C[C@@H]7C8=C(CCN7C)C=CC=C86)C=C5)O)O

> <PUBCHEM_CACTVS_TPSA>
124

> <PUBCHEM_MONOISOTOPIC_WEIGHT>
926.59213622

> <PUBCHEM_TOTAL_CHARGE>
0

> <PUBCHEM_HEAVY_ATOM_COUNT>
68

> <PUBCHEM_ATOM_DEF_STEREO_COUNT>
2

> <PUBCHEM_ATOM_UDEF_STEREO_COUNT>
0

> <PUBCHEM_BOND_DEF_STEREO_COUNT>
0

> <PUBCHEM_BOND_UDEF_STEREO_COUNT>
0

> <PUBCHEM_ISOTOPIC_ATOM_COUNT>
0

> <PUBCHEM_COMPONENT_COUNT>
1

> <PUBCHEM_CACTVS_TAUTO_COUNT>
-1

> <PUBCHEM_COORDINATE_TYPE>
1
5
255

> <PUBCHEM_BONDANNOTATIONS>
11  69  5
12  70  5
13  17  8
13  23  8
14  18  8
14  24  8
17  31  8
18  32  8
23  33  8
24  34  8
25  27  8
25  37  8
26  28  8
26  38  8
27  35  8
28  36  8
31  39  8
32  40  8
33  39  8
34  40  8
35  41  8
36  42  8
37  43  8
38  44  8
41  43  8
42  44  8

$$$$
