44436750
  -OEChem-09292322252D

 69 73  0     1  0  0  0  0  0999 V2000
    5.4554   -3.9689    0.0000 O   0  0  0  0  0  0  0  0  0  0  0  0
    8.5294    2.3201    0.0000 N   0  0  3  0  0  0  0  0  0  0  0  0
    6.8286    1.1413    0.0000 N   0  0  3  0  0  0  0  0  0  0  0  0
    4.4852   -2.5341    0.0000 N   0  0  0  0  0  0  0  0  0  0  0  0
    7.6284    2.7540    0.0000 C   0  0  3  0  0  0  0  0  0  0  0  0
    6.7588    2.1806    0.0000 C   0  0  0  0  0  0  0  0  0  0  0  0
    8.6232    1.2827    0.0000 C   0  0  0  0  0  0  0  0  0  0  0  0
    7.7671    0.6893    0.0000 C   0  0  0  0  0  0  0  0  0  0  0  0
    7.4059    3.7289    0.0000 C   0  0  0  0  0  0  0  0  0  0  0  0
    6.0002    0.5811    0.0000 C   0  0  0  0  0  0  0  0  0  0  0  0
    9.4303    2.7540    0.0000 C   0  0  0  0  0  0  0  0  0  0  0  0
    3.7277   -4.0917    0.0000 C   0  0  0  0  0  0  0  0  0  0  0  0
    8.0294    4.5108    0.0000 C   0  0  0  0  0  0  0  0  0  0  0  0
    2.8284   -3.6544    0.0000 C   0  0  0  0  0  0  0  0  0  0  0  0
    3.7986   -5.0892    0.0000 C   0  0  0  0  0  0  0  0  0  0  0  0
    9.6529    3.7289    0.0000 C   0  0  0  0  0  0  0  0  0  0  0  0
    9.0294    4.5108    0.0000 C   0  0  0  0  0  0  0  0  0  0  0  0
    6.0711   -0.4163    0.0000 C   0  0  0  0  0  0  0  0  0  0  0  0
    2.0000   -4.2145    0.0000 C   0  0  0  0  0  0  0  0  0  0  0  0
    2.9702   -5.6493    0.0000 C   0  0  0  0  0  0  0  0  0  0  0  0
    2.0709   -5.2120    0.0000 C   0  0  0  0  0  0  0  0  0  0  0  0
    5.2427   -0.9765    0.0000 C   0  0  0  0  0  0  0  0  0  0  0  0
    6.3736    3.8683    0.0000 C   0  0  0  0  0  0  0  0  0  0  0  0
    4.5561   -3.5316    0.0000 C   0  0  0  0  0  0  0  0  0  0  0  0
   10.1829    2.0338    0.0000 C   0  0  0  0  0  0  0  0  0  0  0  0
    5.3136   -1.9740    0.0000 C   0  0  0  0  0  0  0  0  0  0  0  0
    7.6638    5.4861    0.0000 C   0  0  0  0  0  0  0  0  0  0  0  0
   10.6434    4.0513    0.0000 C   0  0  0  0  0  0  0  0  0  0  0  0
    5.9856    4.8349    0.0000 C   0  0  0  0  0  0  0  0  0  0  0  0
    6.6350    5.6493    0.0000 C   0  0  0  0  0  0  0  0  0  0  0  0
   11.1806    2.3332    0.0000 C   0  0  0  0  0  0  0  0  0  0  0  0
   11.4124    3.3487    0.0000 C   0  0  0  0  0  0  0  0  0  0  0  0
    7.0530    2.9850    0.0000 H   0  0  0  0  0  0  0  0  0  0  0  0
    6.5111    2.7489    0.0000 H   0  0  0  0  0  0  0  0  0  0  0  0
    6.1565    2.0338    0.0000 H   0  0  0  0  0  0  0  0  0  0  0  0
    8.8840    0.7202    0.0000 H   0  0  0  0  0  0  0  0  0  0  0  0
    9.2220    1.4434    0.0000 H   0  0  0  0  0  0  0  0  0  0  0  0
    7.4065    0.1850    0.0000 H   0  0  0  0  0  0  0  0  0  0  0  0
    8.2023    0.2477    0.0000 H   0  0  0  0  0  0  0  0  0  0  0  0
    5.7474    1.1473    0.0000 H   0  0  0  0  0  0  0  0  0  0  0  0
    5.3988    0.4305    0.0000 H   0  0  0  0  0  0  0  0  0  0  0  0
    3.6837   -3.4733    0.0000 H   0  0  0  0  0  0  0  0  0  0  0  0
    3.1923   -3.1524    0.0000 H   0  0  0  0  0  0  0  0  0  0  0  0
    2.3972   -3.2088    0.0000 H   0  0  0  0  0  0  0  0  0  0  0  0
    4.0514   -5.6553    0.0000 H   0  0  0  0  0  0  0  0  0  0  0  0
    4.4000   -4.9385    0.0000 H   0  0  0  0  0  0  0  0  0  0  0  0
    6.3240   -0.9825    0.0000 H   0  0  0  0  0  0  0  0  0  0  0  0
    6.6726   -0.2657    0.0000 H   0  0  0  0  0  0  0  0  0  0  0  0
    9.5880    4.7798    0.0000 H   0  0  0  0  0  0  0  0  0  0  0  0
    8.8914    5.1152    0.0000 H   0  0  0  0  0  0  0  0  0  0  0  0
    1.7472   -3.6484    0.0000 H   0  0  0  0  0  0  0  0  0  0  0  0
    1.3986   -4.3652    0.0000 H   0  0  0  0  0  0  0  0  0  0  0  0
    2.6063   -6.1513    0.0000 H   0  0  0  0  0  0  0  0  0  0  0  0
    3.4014   -6.0948    0.0000 H   0  0  0  0  0  0  0  0  0  0  0  0
    1.4542   -5.1478    0.0000 H   0  0  0  0  0  0  0  0  0  0  0  0
    1.9007   -5.8081    0.0000 H   0  0  0  0  0  0  0  0  0  0  0  0
    4.9899   -0.4104    0.0000 H   0  0  0  0  0  0  0  0  0  0  0  0
    4.6413   -1.1271    0.0000 H   0  0  0  0  0  0  0  0  0  0  0  0
    5.9927    3.3791    0.0000 H   0  0  0  0  0  0  0  0  0  0  0  0
   10.0380    1.4310    0.0000 H   0  0  0  0  0  0  0  0  0  0  0  0
    5.5664   -2.5401    0.0000 H   0  0  0  0  0  0  0  0  0  0  0  0
    5.9150   -1.8233    0.0000 H   0  0  0  0  0  0  0  0  0  0  0  0
    8.0560    5.9664    0.0000 H   0  0  0  0  0  0  0  0  0  0  0  0
   10.7743    4.6573    0.0000 H   0  0  0  0  0  0  0  0  0  0  0  0
    3.9276   -2.2629    0.0000 H   0  0  0  0  0  0  0  0  0  0  0  0
    5.3722    4.9250    0.0000 H   0  0  0  0  0  0  0  0  0  0  0  0
    6.4108    6.2273    0.0000 H   0  0  0  0  0  0  0  0  0  0  0  0
   11.6334    1.9097    0.0000 H   0  0  0  0  0  0  0  0  0  0  0  0
   12.0041    3.5337    0.0000 H   0  0  0  0  0  0  0  0  0  0  0  0
  1 24  2  0  0  0  0
  2  5  1  0  0  0  0
  2  7  1  0  0  0  0
  2 11  1  0  0  0  0
  3  6  1  0  0  0  0
  3  8  1  0  0  0  0
  3 10  1  0  0  0  0
  4 24  1  0  0  0  0
  4 26  1  0  0  0  0
  4 65  1  0  0  0  0
  5  6  1  0  0  0  0
  5  9  1  0  0  0  0
  5 33  1  0  0  0  0
  6 34  1  0  0  0  0
  6 35  1  0  0  0  0
  7  8  1  0  0  0  0
  7 36  1  0  0  0  0
  7 37  1  0  0  0  0
  8 38  1  0  0  0  0
  8 39  1  0  0  0  0
  9 13  1  0  0  0  0
  9 23  2  0  0  0  0
 10 18  1  0  0  0  0
 10 40  1  0  0  0  0
 10 41  1  0  0  0  0
 11 16  1  0  0  0  0
 11 25  2  0  0  0  0
 12 14  1  0  0  0  0
 12 15  1  0  0  0  0
 12 24  1  0  0  0  0
 12 42  1  0  0  0  0
 13 17  1  0  0  0  0
 13 27  2  0  0  0  0
 14 19  1  0  0  0  0
 14 43  1  0  0  0  0
 14 44  1  0  0  0  0
 15 20  1  0  0  0  0
 15 45  1  0  0  0  0
 15 46  1  0  0  0  0
 16 17  1  0  0  0  0
 16 28  2  0  0  0  0
 17 49  1  0  0  0  0
 17 50  1  0  0  0  0
 18 22  1  0  0  0  0
 18 47  1  0  0  0  0
 18 48  1  0  0  0  0
 19 21  1  0  0  0  0
 19 51  1  0  0  0  0
 19 52  1  0  0  0  0
 20 21  1  0  0  0  0
 20 53  1  0  0  0  0
 20 54  1  0  0  0  0
 21 55  1  0  0  0  0
 21 56  1  0  0  0  0
 22 26  1  0  0  0  0
 22 57  1  0  0  0  0
 22 58  1  0  0  0  0
 23 29  1  0  0  0  0
 23 59  1  0  0  0  0
 25 31  1  0  0  0  0
 25 60  1  0  0  0  0
 26 61  1  0  0  0  0
 26 62  1  0  0  0  0
 27 30  1  0  0  0  0
 27 63  1  0  0  0  0
 28 32  1  0  0  0  0
 28 64  1  0  0  0  0
 29 30  2  0  0  0  0
 29 66  1  0  0  0  0
 30 67  1  0  0  0  0
 31 32  2  0  0  0  0
 31 68  1  0  0  0  0
 32 69  1  0  0  0  0
M  END
> <PUBCHEM_COMPOUND_CID>
44436750

> <PUBCHEM_COMPOUND_CANONICALIZED>
1

> <PUBCHEM_CACTVS_COMPLEXITY>
604

> <PUBCHEM_CACTVS_HBOND_ACCEPTOR>
3

> <PUBCHEM_CACTVS_HBOND_DONOR>
1

> <PUBCHEM_CACTVS_ROTATABLE_BOND>
6

> <PUBCHEM_CACTVS_SUBSKEYS>
AAADcfB7IAAAAAAAAAAAAAAAAAAAAAAAAAA8YMEABYAAAAABQAAAHgAQAAAADSjBmAQwwIPAAACIAiVSUACCAAAhAgAIiIEIZIgIYDLAkZGUIAhglgDIyAcYiMCOgAAAAAASAAAAAAAAACQAAAAAAAAAAA==

> <PUBCHEM_IUPAC_OPENEYE_NAME>
N-[4-(2,5-diazatetracyclo[13.4.0.02,7.08,13]nonadeca-1(19),8,10,12,15,17-hexaen-5-yl)butyl]cyclohexanecarboxamide

> <PUBCHEM_IUPAC_CAS_NAME>
N-[4-(2,5-diazatetracyclo[13.4.0.02,7.08,13]nonadeca-1(19),8,10,12,15,17-hexaen-5-yl)butyl]cyclohexanecarboxamide

> <PUBCHEM_IUPAC_NAME_MARKUP>
<I>N</I>-[4-(2,5-diazatetracyclo[13.4.0.0<SUP>2,7</SUP>.0<SUP>8,13</SUP>]nonadeca-1(19),8,10,12,15,17-hexaen-5-yl)butyl]cyclohexanecarboxamide

> <PUBCHEM_IUPAC_NAME>
N-[4-(2,5-diazatetracyclo[13.4.0.02,7.08,13]nonadeca-1(19),8,10,12,15,17-hexaen-5-yl)butyl]cyclohexanecarboxamide

> <PUBCHEM_IUPAC_SYSTEMATIC_NAME>
N-[4-(2,5-diazatetracyclo[13.4.0.02,7.08,13]nonadeca-1(19),8,10,12,15,17-hexaen-5-yl)butyl]cyclohexanecarboxamide

> <PUBCHEM_IUPAC_TRADITIONAL_NAME>
N-[4-(2,5-diazatetracyclo[13.4.0.02,7.08,13]nonadeca-1(19),8,10,12,15,17-hexaen-5-yl)butyl]cyclohexanecarboxamide

> <PUBCHEM_IUPAC_INCHI>
InChI=1S/C28H37N3O/c32-28(22-10-2-1-3-11-22)29-16-8-9-17-30-18-19-31-26-15-7-5-13-24(26)20-23-12-4-6-14-25(23)27(31)21-30/h4-7,12-15,22,27H,1-3,8-11,16-21H2,(H,29,32)

> <PUBCHEM_IUPAC_INCHIKEY>
ICQQTHRTTLKFKA-UHFFFAOYSA-N

> <PUBCHEM_XLOGP3_AA>
5.5

> <PUBCHEM_EXACT_MASS>
431.293662812

> <PUBCHEM_MOLECULAR_FORMULA>
C28H37N3O

> <PUBCHEM_MOLECULAR_WEIGHT>
431.6

> <PUBCHEM_OPENEYE_CAN_SMILES>
C1CCC(CC1)C(=O)NCCCCN2CCN3C(C2)C4=CC=CC=C4CC5=CC=CC=C53

> <PUBCHEM_OPENEYE_ISO_SMILES>
C1CCC(CC1)C(=O)NCCCCN2CCN3C(C2)C4=CC=CC=C4CC5=CC=CC=C53

> <PUBCHEM_CACTVS_TPSA>
35.6

> <PUBCHEM_MONOISOTOPIC_WEIGHT>
431.293662812

> <PUBCHEM_TOTAL_CHARGE>
0

> <PUBCHEM_HEAVY_ATOM_COUNT>
32

> <PUBCHEM_ATOM_DEF_STEREO_COUNT>
0

> <PUBCHEM_ATOM_UDEF_STEREO_COUNT>
1

> <PUBCHEM_BOND_DEF_STEREO_COUNT>
0

> <PUBCHEM_BOND_UDEF_STEREO_COUNT>
0

> <PUBCHEM_ISOTOPIC_ATOM_COUNT>
0

> <PUBCHEM_COMPONENT_COUNT>
1

> <PUBCHEM_CACTVS_TAUTO_COUNT>
-1

> <PUBCHEM_COORDINATE_TYPE>
1
5
255

> <PUBCHEM_BONDANNOTATIONS>
11  16  8
11  25  8
13  27  8
16  28  8
23  29  8
25  31  8
27  30  8
28  32  8
29  30  8
31  32  8
5  6  3
9  13  8
9  23  8

$$$$
