49781681
  -OEChem-09292322312D

 63 67  0     1  0  0  0  0  0999 V2000
    8.7007   -2.7342    0.0000 S   0  0  0  0  0  0  0  0  0  0  0  0
    7.7668    0.3574    0.0000 N   0  0  0  0  0  0  0  0  0  0  0  0
    6.8991    2.1593    0.0000 N   0  0  0  0  0  0  0  0  0  0  0  0
    8.2007   -0.5436    0.0000 C   0  0  3  0  0  0  0  0  0  0  0  0
    6.7696    0.4321    0.0000 C   0  0  0  0  0  0  0  0  0  0  0  0
    8.3302    1.1836    0.0000 C   0  0  0  0  0  0  0  0  0  0  0  0
    9.2007   -0.5436    0.0000 C   0  0  0  0  0  0  0  0  0  0  0  0
    6.3358    1.3331    0.0000 C   0  0  0  0  0  0  0  0  0  0  0  0
    7.8963    2.0846    0.0000 C   0  0  0  0  0  0  0  0  0  0  0  0
    7.5772   -1.3254    0.0000 C   0  0  0  0  0  0  0  0  0  0  0  0
    9.8242   -1.3254    0.0000 C   0  0  0  0  0  0  0  0  0  0  0  0
    7.7997   -2.3003    0.0000 C   0  0  0  0  0  0  0  0  0  0  0  0
    6.5867   -1.0031    0.0000 C   0  0  0  0  0  0  0  0  0  0  0  0
    6.4652    3.0603    0.0000 C   0  0  0  0  0  0  0  0  0  0  0  0
    9.6017   -2.3004    0.0000 C   0  0  0  0  0  0  0  0  0  0  0  0
    5.8177   -1.7056    0.0000 C   0  0  0  0  0  0  0  0  0  0  0  0
    7.0472   -3.0205    0.0000 C   0  0  0  0  0  0  0  0  0  0  0  0
   10.8147   -1.0031    0.0000 C   0  0  0  0  0  0  0  0  0  0  0  0
    6.0495   -2.7212    0.0000 C   0  0  0  0  0  0  0  0  0  0  0  0
    4.8633   -1.4072    0.0000 C   0  0  0  0  0  0  0  0  0  0  0  0
   10.3542   -3.0205    0.0000 C   0  0  0  0  0  0  0  0  0  0  0  0
   11.5837   -1.7057    0.0000 C   0  0  0  0  0  0  0  0  0  0  0  0
    4.6445   -0.4314    0.0000 C   0  0  0  0  0  0  0  0  0  0  0  0
    4.1276   -2.0845    0.0000 C   0  0  0  0  0  0  0  0  0  0  0  0
   11.3519   -2.7212    0.0000 C   0  0  0  0  0  0  0  0  0  0  0  0
    3.6901   -0.1330    0.0000 C   0  0  0  0  0  0  0  0  0  0  0  0
    3.1732   -1.7861    0.0000 C   0  0  0  0  0  0  0  0  0  0  0  0
    2.9544   -0.8103    0.0000 C   0  0  0  0  0  0  0  0  0  0  0  0
    5.3802    0.2459    0.0000 C   0  0  0  0  0  0  0  0  0  0  0  0
    4.3464   -3.0603    0.0000 C   0  0  0  0  0  0  0  0  0  0  0  0
    2.0000   -0.5119    0.0000 C   0  0  0  0  0  0  0  0  0  0  0  0
    8.5306   -0.0186    0.0000 H   0  0  0  0  0  0  0  0  0  0  0  0
    6.1728    0.2642    0.0000 H   0  0  0  0  0  0  0  0  0  0  0  0
    6.8314   -0.1848    0.0000 H   0  0  0  0  0  0  0  0  0  0  0  0
    8.7740    0.7507    0.0000 H   0  0  0  0  0  0  0  0  0  0  0  0
    8.8336    1.5456    0.0000 H   0  0  0  0  0  0  0  0  0  0  0  0
    9.7593   -0.2746    0.0000 H   0  0  0  0  0  0  0  0  0  0  0  0
    9.0628    0.0609    0.0000 H   0  0  0  0  0  0  0  0  0  0  0  0
    5.8919    1.7660    0.0000 H   0  0  0  0  0  0  0  0  0  0  0  0
    5.8324    0.9712    0.0000 H   0  0  0  0  0  0  0  0  0  0  0  0
    8.4931    2.2525    0.0000 H   0  0  0  0  0  0  0  0  0  0  0  0
    7.8346    2.7015    0.0000 H   0  0  0  0  0  0  0  0  0  0  0  0
    6.4558   -0.3970    0.0000 H   0  0  0  0  0  0  0  0  0  0  0  0
    7.0238    3.3293    0.0000 H   0  0  0  0  0  0  0  0  0  0  0  0
    6.1962    3.6189    0.0000 H   0  0  0  0  0  0  0  0  0  0  0  0
    5.9066    2.7913    0.0000 H   0  0  0  0  0  0  0  0  0  0  0  0
    7.1921   -3.6233    0.0000 H   0  0  0  0  0  0  0  0  0  0  0  0
   10.9457   -0.3971    0.0000 H   0  0  0  0  0  0  0  0  0  0  0  0
    5.5966   -3.1446    0.0000 H   0  0  0  0  0  0  0  0  0  0  0  0
   10.2093   -3.6234    0.0000 H   0  0  0  0  0  0  0  0  0  0  0  0
   12.1755   -1.5206    0.0000 H   0  0  0  0  0  0  0  0  0  0  0  0
   11.8048   -3.1446    0.0000 H   0  0  0  0  0  0  0  0  0  0  0  0
    3.5545    0.4720    0.0000 H   0  0  0  0  0  0  0  0  0  0  0  0
    2.7171   -2.2060    0.0000 H   0  0  0  0  0  0  0  0  0  0  0  0
    5.8002   -0.2102    0.0000 H   0  0  0  0  0  0  0  0  0  0  0  0
    5.8363    0.6659    0.0000 H   0  0  0  0  0  0  0  0  0  0  0  0
    4.9602    0.7020    0.0000 H   0  0  0  0  0  0  0  0  0  0  0  0
    3.7414   -3.1959    0.0000 H   0  0  0  0  0  0  0  0  0  0  0  0
    4.4820   -3.6653    0.0000 H   0  0  0  0  0  0  0  0  0  0  0  0
    4.9514   -2.9247    0.0000 H   0  0  0  0  0  0  0  0  0  0  0  0
    2.1850    0.0799    0.0000 H   0  0  0  0  0  0  0  0  0  0  0  0
    1.4083   -0.3268    0.0000 H   0  0  0  0  0  0  0  0  0  0  0  0
    1.8150   -1.1036    0.0000 H   0  0  0  0  0  0  0  0  0  0  0  0
  1 12  1  0  0  0  0
  1 15  1  0  0  0  0
  2  4  1  0  0  0  0
  2  5  1  0  0  0  0
  2  6  1  0  0  0  0
  3  8  1  0  0  0  0
  3  9  1  0  0  0  0
  3 14  1  0  0  0  0
  4  7  1  0  0  0  0
  4 10  1  0  0  0  0
  4 32  1  0  0  0  0
  5  8  1  0  0  0  0
  5 33  1  0  0  0  0
  5 34  1  0  0  0  0
  6  9  1  0  0  0  0
  6 35  1  0  0  0  0
  6 36  1  0  0  0  0
  7 11  1  0  0  0  0
  7 37  1  0  0  0  0
  7 38  1  0  0  0  0
  8 39  1  0  0  0  0
  8 40  1  0  0  0  0
  9 41  1  0  0  0  0
  9 42  1  0  0  0  0
 10 12  2  0  0  0  0
 10 13  1  0  0  0  0
 11 15  1  0  0  0  0
 11 18  2  0  0  0  0
 12 17  1  0  0  0  0
 13 16  2  0  0  0  0
 13 43  1  0  0  0  0
 14 44  1  0  0  0  0
 14 45  1  0  0  0  0
 14 46  1  0  0  0  0
 15 21  2  0  0  0  0
 16 19  1  0  0  0  0
 16 20  1  0  0  0  0
 17 19  2  0  0  0  0
 17 47  1  0  0  0  0
 18 22  1  0  0  0  0
 18 48  1  0  0  0  0
 19 49  1  0  0  0  0
 20 23  2  0  0  0  0
 20 24  1  0  0  0  0
 21 25  1  0  0  0  0
 21 50  1  0  0  0  0
 22 25  2  0  0  0  0
 22 51  1  0  0  0  0
 23 26  1  0  0  0  0
 23 29  1  0  0  0  0
 24 27  2  0  0  0  0
 24 30  1  0  0  0  0
 25 52  1  0  0  0  0
 26 28  2  0  0  0  0
 26 53  1  0  0  0  0
 27 28  1  0  0  0  0
 27 54  1  0  0  0  0
 28 31  1  0  0  0  0
 29 55  1  0  0  0  0
 29 56  1  0  0  0  0
 29 57  1  0  0  0  0
 30 58  1  0  0  0  0
 30 59  1  0  0  0  0
 30 60  1  0  0  0  0
 31 61  1  0  0  0  0
 31 62  1  0  0  0  0
 31 63  1  0  0  0  0
M  END
> <PUBCHEM_COMPOUND_CID>
49781681

> <PUBCHEM_COMPOUND_CANONICALIZED>
1

> <PUBCHEM_CACTVS_COMPLEXITY>
576

> <PUBCHEM_CACTVS_HBOND_ACCEPTOR>
3

> <PUBCHEM_CACTVS_HBOND_DONOR>
0

> <PUBCHEM_CACTVS_ROTATABLE_BOND>
2

> <PUBCHEM_CACTVS_SUBSKEYS>
AAADcfB7AABAAAAAAAAAAAAAAAAAAAAAAAA8YMEABIAAAAABUAAAHAQAAAAADCjBWAQyAYMAAAiAAiBCAACCAAAgCBAIiBgIBIgIYCKgkRGUIAhggACoiAcQgMAO0AACAAAUAACgAAQAACgAAAAAAAAAAA==

> <PUBCHEM_IUPAC_OPENEYE_NAME>
1-methyl-4-[3-(2,4,6-trimethylphenyl)-5,6-dihydrobenzo[b][1]benzothiepin-5-yl]piperazine

> <PUBCHEM_IUPAC_CAS_NAME>
1-methyl-4-[3-(2,4,6-trimethylphenyl)-5,6-dihydrobenzo[b][1]benzothiepin-5-yl]piperazine

> <PUBCHEM_IUPAC_NAME_MARKUP>
1-methyl-4-[3-(2,4,6-trimethylphenyl)-5,6-dihydrobenzo[b][1]benzothiepin-5-yl]piperazine

> <PUBCHEM_IUPAC_NAME>
1-methyl-4-[3-(2,4,6-trimethylphenyl)-5,6-dihydrobenzo[b][1]benzothiepin-5-yl]piperazine

> <PUBCHEM_IUPAC_SYSTEMATIC_NAME>
1-methyl-4-[3-(2,4,6-trimethylphenyl)-5,6-dihydrobenzo[b][1]benzothiepin-5-yl]piperazine

> <PUBCHEM_IUPAC_TRADITIONAL_NAME>
1-(3-mesityl-5,6-dihydrobenzo[b][1]benzothiepin-5-yl)-4-methyl-piperazine

> <PUBCHEM_IUPAC_INCHI>
InChI=1S/C28H32N2S/c1-19-15-20(2)28(21(3)16-19)23-9-10-27-24(17-23)25(30-13-11-29(4)12-14-30)18-22-7-5-6-8-26(22)31-27/h5-10,15-17,25H,11-14,18H2,1-4H3

> <PUBCHEM_IUPAC_INCHIKEY>
XNFVTFMFMPGVGG-UHFFFAOYSA-N

> <PUBCHEM_XLOGP3_AA>
6.4

> <PUBCHEM_EXACT_MASS>
428.22862020

> <PUBCHEM_MOLECULAR_FORMULA>
C28H32N2S

> <PUBCHEM_MOLECULAR_WEIGHT>
428.6

> <PUBCHEM_OPENEYE_CAN_SMILES>
CC1=CC(=C(C(=C1)C)C2=CC3=C(C=C2)SC4=CC=CC=C4CC3N5CCN(CC5)C)C

> <PUBCHEM_OPENEYE_ISO_SMILES>
CC1=CC(=C(C(=C1)C)C2=CC3=C(C=C2)SC4=CC=CC=C4CC3N5CCN(CC5)C)C

> <PUBCHEM_CACTVS_TPSA>
31.8

> <PUBCHEM_MONOISOTOPIC_WEIGHT>
428.22862020

> <PUBCHEM_TOTAL_CHARGE>
0

> <PUBCHEM_HEAVY_ATOM_COUNT>
31

> <PUBCHEM_ATOM_DEF_STEREO_COUNT>
0

> <PUBCHEM_ATOM_UDEF_STEREO_COUNT>
1

> <PUBCHEM_BOND_DEF_STEREO_COUNT>
0

> <PUBCHEM_BOND_UDEF_STEREO_COUNT>
0

> <PUBCHEM_ISOTOPIC_ATOM_COUNT>
0

> <PUBCHEM_COMPONENT_COUNT>
1

> <PUBCHEM_CACTVS_TAUTO_COUNT>
-1

> <PUBCHEM_COORDINATE_TYPE>
1
5
255

> <PUBCHEM_BONDANNOTATIONS>
10  12  8
10  13  8
11  15  8
11  18  8
12  17  8
13  16  8
15  21  8
16  19  8
17  19  8
18  22  8
4  2  3
20  23  8
20  24  8
21  25  8
22  25  8
23  26  8
24  27  8
26  28  8
27  28  8

$$$$
