126534086
  -OEChem-09292322372D

 57 61  0     1  0  0  0  0  0999 V2000
   10.0552    2.2926    0.0000 S   0  0  0  0  0  0  0  0  0  0  0  0
    2.0000   -2.5664    0.0000 F   0  0  0  0  0  0  0  0  0  0  0  0
    4.5743   -0.2485    0.0000 N   0  0  3  0  0  0  0  0  0  0  0  0
    7.0552    0.5606    0.0000 N   0  0  3  0  0  0  0  0  0  0  0  0
   11.6430    1.4836    0.0000 N   0  0  0  0  0  0  0  0  0  0  0  0
   11.6430    3.1016    0.0000 N   0  0  0  0  0  0  0  0  0  0  0  0
   12.5941    2.7926    0.0000 N   0  0  0  0  0  0  0  0  0  0  0  0
   14.3166    1.6116    0.0000 N   0  0  0  0  0  0  0  0  0  0  0  0
   14.1076   -0.3775    0.0000 N   0  0  0  0  0  0  0  0  0  0  0  0
    5.5254    1.0606    0.0000 C   0  0  3  0  0  0  0  0  0  0  0  0
    5.5254    0.0606    0.0000 C   0  0  3  0  0  0  0  0  0  0  0  0
    6.4716    1.3653    0.0000 C   0  0  0  0  0  0  0  0  0  0  0  0
    4.5743    1.3696    0.0000 C   0  0  0  0  0  0  0  0  0  0  0  0
    6.4716   -0.2442    0.0000 C   0  0  0  0  0  0  0  0  0  0  0  0
    3.9865    0.5606    0.0000 C   0  0  0  0  0  0  0  0  0  0  0  0
    8.0552    0.5606    0.0000 C   0  0  0  0  0  0  0  0  0  0  0  0
    4.2653   -1.1995    0.0000 C   0  0  0  0  0  0  0  0  0  0  0  0
    8.5552    1.4266    0.0000 C   0  0  0  0  0  0  0  0  0  0  0  0
    3.2872   -1.4074    0.0000 C   0  0  0  0  0  0  0  0  0  0  0  0
    4.9344   -1.9427    0.0000 C   0  0  0  0  0  0  0  0  0  0  0  0
    9.5552    1.4266    0.0000 C   0  0  0  0  0  0  0  0  0  0  0  0
    2.9782   -2.3585    0.0000 C   0  0  0  0  0  0  0  0  0  0  0  0
    4.6254   -2.8937    0.0000 C   0  0  0  0  0  0  0  0  0  0  0  0
    3.6473   -3.1016    0.0000 C   0  0  0  0  0  0  0  0  0  0  0  0
   11.0552    2.2926    0.0000 C   0  0  0  0  0  0  0  0  0  0  0  0
   12.5941    1.7926    0.0000 C   0  0  0  0  0  0  0  0  0  0  0  0
   11.3340    0.5325    0.0000 C   0  0  0  0  0  0  0  0  0  0  0  0
   13.4031    1.2048    0.0000 C   0  0  0  0  0  0  0  0  0  0  0  0
   13.2985    0.2103    0.0000 C   0  0  0  0  0  0  0  0  0  0  0  0
   15.1256    1.0238    0.0000 C   0  0  0  0  0  0  0  0  0  0  0  0
   15.0211    0.0293    0.0000 C   0  0  0  0  0  0  0  0  0  0  0  0
    5.5262    1.6806    0.0000 H   0  0  0  0  0  0  0  0  0  0  0  0
    5.5262   -0.5594    0.0000 H   0  0  0  0  0  0  0  0  0  0  0  0
    7.0090    1.6745    0.0000 H   0  0  0  0  0  0  0  0  0  0  0  0
    6.2206    1.9322    0.0000 H   0  0  0  0  0  0  0  0  0  0  0  0
    4.8265    1.9360    0.0000 H   0  0  0  0  0  0  0  0  0  0  0  0
    4.0374    1.6796    0.0000 H   0  0  0  0  0  0  0  0  0  0  0  0
    6.2206   -0.8111    0.0000 H   0  0  0  0  0  0  0  0  0  0  0  0
    7.0090   -0.5534    0.0000 H   0  0  0  0  0  0  0  0  0  0  0  0
    3.5258    0.9754    0.0000 H   0  0  0  0  0  0  0  0  0  0  0  0
    3.5258    0.1457    0.0000 H   0  0  0  0  0  0  0  0  0  0  0  0
    7.9476   -0.0500    0.0000 H   0  0  0  0  0  0  0  0  0  0  0  0
    8.6378    0.3485    0.0000 H   0  0  0  0  0  0  0  0  0  0  0  0
    8.6629    2.0372    0.0000 H   0  0  0  0  0  0  0  0  0  0  0  0
    7.9726    1.6386    0.0000 H   0  0  0  0  0  0  0  0  0  0  0  0
    2.8723   -0.9467    0.0000 H   0  0  0  0  0  0  0  0  0  0  0  0
    5.5409   -1.8138    0.0000 H   0  0  0  0  0  0  0  0  0  0  0  0
    9.4476    0.8160    0.0000 H   0  0  0  0  0  0  0  0  0  0  0  0
   10.1378    1.2145    0.0000 H   0  0  0  0  0  0  0  0  0  0  0  0
    5.0403   -3.3545    0.0000 H   0  0  0  0  0  0  0  0  0  0  0  0
    3.4557   -3.6913    0.0000 H   0  0  0  0  0  0  0  0  0  0  0  0
   10.7443    0.7241    0.0000 H   0  0  0  0  0  0  0  0  0  0  0  0
   11.1424   -0.0571    0.0000 H   0  0  0  0  0  0  0  0  0  0  0  0
   11.9236    0.3409    0.0000 H   0  0  0  0  0  0  0  0  0  0  0  0
   12.7321   -0.0419    0.0000 H   0  0  0  0  0  0  0  0  0  0  0  0
   15.6920    1.2760    0.0000 H   0  0  0  0  0  0  0  0  0  0  0  0
   15.5227   -0.3352    0.0000 H   0  0  0  0  0  0  0  0  0  0  0  0
  1 21  1  0  0  0  0
  1 25  1  0  0  0  0
  2 22  1  0  0  0  0
  3 11  1  0  0  0  0
  3 15  1  0  0  0  0
  3 17  1  0  0  0  0
  4 12  1  0  0  0  0
  4 14  1  0  0  0  0
  4 16  1  0  0  0  0
  5 25  1  0  0  0  0
  5 26  1  0  0  0  0
  5 27  1  0  0  0  0
  6  7  1  0  0  0  0
  6 25  2  0  0  0  0
  7 26  2  0  0  0  0
  8 28  2  0  0  0  0
  8 30  1  0  0  0  0
  9 29  2  0  0  0  0
  9 31  1  0  0  0  0
 10 11  1  0  0  0  0
 10 12  1  0  0  0  0
 10 13  1  0  0  0  0
 10 32  1  0  0  0  0
 11 14  1  0  0  0  0
 11 33  1  0  0  0  0
 12 34  1  0  0  0  0
 12 35  1  0  0  0  0
 13 15  1  0  0  0  0
 13 36  1  0  0  0  0
 13 37  1  0  0  0  0
 14 38  1  0  0  0  0
 14 39  1  0  0  0  0
 15 40  1  0  0  0  0
 15 41  1  0  0  0  0
 16 18  1  0  0  0  0
 16 42  1  0  0  0  0
 16 43  1  0  0  0  0
 17 19  2  0  0  0  0
 17 20  1  0  0  0  0
 18 21  1  0  0  0  0
 18 44  1  0  0  0  0
 18 45  1  0  0  0  0
 19 22  1  0  0  0  0
 19 46  1  0  0  0  0
 20 23  2  0  0  0  0
 20 47  1  0  0  0  0
 21 48  1  0  0  0  0
 21 49  1  0  0  0  0
 22 24  2  0  0  0  0
 23 24  1  0  0  0  0
 23 50  1  0  0  0  0
 24 51  1  0  0  0  0
 26 28  1  0  0  0  0
 27 52  1  0  0  0  0
 27 53  1  0  0  0  0
 27 54  1  0  0  0  0
 28 29  1  0  0  0  0
 29 55  1  0  0  0  0
 30 31  2  0  0  0  0
 30 56  1  0  0  0  0
 31 57  1  0  0  0  0
M  END
> <PUBCHEM_COMPOUND_CID>
126534086

> <PUBCHEM_COMPOUND_CANONICALIZED>
1

> <PUBCHEM_CACTVS_COMPLEXITY>
586

> <PUBCHEM_CACTVS_HBOND_ACCEPTOR>
8

> <PUBCHEM_CACTVS_HBOND_DONOR>
0

> <PUBCHEM_CACTVS_ROTATABLE_BOND>
7

> <PUBCHEM_CACTVS_SUBSKEYS>
AAADceB7gQBAAAAAAAAAAAAAAAAAAWLFgAA8QAAAAAAWAAAB8AAAHQQIAAAADSjFVwy/0JcMEAiiATZnZACS0C9xErAd2CA4dJiIaOLg2ZGUIAhgiALIyAcQAAAKAAAAAAAAAAAAAAAAAAAAAAAAAAAAAA==

> <PUBCHEM_IUPAC_OPENEYE_NAME>
1-(3-fluorophenyl)-5-[3-[(4-methyl-5-pyrazin-2-yl-1,2,4-triazol-3-yl)sulfanyl]propyl]-2,3,3a,4,6,6a-hexahydropyrrolo[2,3-c]pyrrole

> <PUBCHEM_IUPAC_CAS_NAME>
1-(3-fluorophenyl)-5-[3-[[4-methyl-5-(2-pyrazinyl)-1,2,4-triazol-3-yl]thio]propyl]-2,3,3a,4,6,6a-hexahydropyrrolo[2,3-c]pyrrole

> <PUBCHEM_IUPAC_NAME_MARKUP>
1-(3-fluorophenyl)-5-[3-[(4-methyl-5-pyrazin-2-yl-1,2,4-triazol-3-yl)sulfanyl]propyl]-2,3,3<I>a</I>,4,6,6<I>a</I>-hexahydropyrrolo[2,3-c]pyrrole

> <PUBCHEM_IUPAC_NAME>
1-(3-fluorophenyl)-5-[3-[(4-methyl-5-pyrazin-2-yl-1,2,4-triazol-3-yl)sulfanyl]propyl]-2,3,3a,4,6,6a-hexahydropyrrolo[2,3-c]pyrrole

> <PUBCHEM_IUPAC_SYSTEMATIC_NAME>
1-(3-fluorophenyl)-5-[3-[(4-methyl-5-pyrazin-2-yl-1,2,4-triazol-3-yl)sulfanyl]propyl]-2,3,3a,4,6,6a-hexahydropyrrolo[2,3-c]pyrrole

> <PUBCHEM_IUPAC_TRADITIONAL_NAME>
1-(3-fluorophenyl)-5-[3-[(4-methyl-5-pyrazin-2-yl-1,2,4-triazol-3-yl)thio]propyl]-2,3,3a,4,6,6a-hexahydropyrrolo[2,3-c]pyrrole

> <PUBCHEM_IUPAC_INCHI>
InChI=1S/C22H26FN7S/c1-28-21(19-13-24-7-8-25-19)26-27-22(28)31-11-3-9-29-14-16-6-10-30(20(16)15-29)18-5-2-4-17(23)12-18/h2,4-5,7-8,12-13,16,20H,3,6,9-11,14-15H2,1H3

> <PUBCHEM_IUPAC_INCHIKEY>
UDUUCGMSUBUXNS-UHFFFAOYSA-N

> <PUBCHEM_XLOGP3_AA>
2.4

> <PUBCHEM_EXACT_MASS>
439.19544319

> <PUBCHEM_MOLECULAR_FORMULA>
C22H26FN7S

> <PUBCHEM_MOLECULAR_WEIGHT>
439.6

> <PUBCHEM_OPENEYE_CAN_SMILES>
CN1C(=NN=C1SCCCN2CC3CCN(C3C2)C4=CC(=CC=C4)F)C5=NC=CN=C5

> <PUBCHEM_OPENEYE_ISO_SMILES>
CN1C(=NN=C1SCCCN2CC3CCN(C3C2)C4=CC(=CC=C4)F)C5=NC=CN=C5

> <PUBCHEM_CACTVS_TPSA>
88.3

> <PUBCHEM_MONOISOTOPIC_WEIGHT>
439.19544319

> <PUBCHEM_TOTAL_CHARGE>
0

> <PUBCHEM_HEAVY_ATOM_COUNT>
31

> <PUBCHEM_ATOM_DEF_STEREO_COUNT>
0

> <PUBCHEM_ATOM_UDEF_STEREO_COUNT>
2

> <PUBCHEM_BOND_DEF_STEREO_COUNT>
0

> <PUBCHEM_BOND_UDEF_STEREO_COUNT>
0

> <PUBCHEM_ISOTOPIC_ATOM_COUNT>
0

> <PUBCHEM_COMPONENT_COUNT>
1

> <PUBCHEM_CACTVS_TAUTO_COUNT>
-1

> <PUBCHEM_COORDINATE_TYPE>
1
5
255

> <PUBCHEM_BONDANNOTATIONS>
10  13  3
11  14  3
17  19  8
17  20  8
19  22  8
20  23  8
22  24  8
23  24  8
28  29  8
30  31  8
5  25  8
5  26  8
6  25  8
6  7  8
7  26  8
8  28  8
8  30  8
9  29  8
9  31  8

$$$$
