17755992
  -OEChem-09292322492D

 44 46  0     1  0  0  0  0  0999 V2000
    2.0000   -0.5651    0.0000 Cl  0  0  0  0  0  0  0  0  0  0  0  0
    2.7307   -2.4268    0.0000 O   0  0  0  0  0  0  0  0  0  0  0  0
    6.8370    1.3333    0.0000 N   0  0  3  0  0  0  0  0  0  0  0  0
    6.4031    2.2342    0.0000 C   0  0  0  0  0  0  0  0  0  0  0  0
    6.8370    3.1352    0.0000 C   0  0  0  0  0  0  0  0  0  0  0  0
    7.8119    1.1107    0.0000 C   0  0  0  0  0  0  0  0  0  0  0  0
    7.8119    3.3577    0.0000 C   0  0  0  0  0  0  0  0  0  0  0  0
    6.2135    0.5514    0.0000 C   0  0  0  0  0  0  0  0  0  0  0  0
    8.5937    1.7342    0.0000 C   0  0  0  0  0  0  0  0  0  0  0  0
    8.5937    2.7342    0.0000 C   0  0  0  0  0  0  0  0  0  0  0  0
    5.2246    0.7005    0.0000 C   0  0  0  0  0  0  0  0  0  0  0  0
    9.4877    1.1996    0.0000 C   0  0  0  0  0  0  0  0  0  0  0  0
    9.4877    3.2689    0.0000 C   0  0  0  0  0  0  0  0  0  0  0  0
    4.6011   -0.0814    0.0000 C   0  0  0  0  0  0  0  0  0  0  0  0
   10.3937    1.7134    0.0000 C   0  0  0  0  0  0  0  0  0  0  0  0
   10.3937    2.7551    0.0000 C   0  0  0  0  0  0  0  0  0  0  0  0
    3.6123    0.0677    0.0000 C   0  0  0  0  0  0  0  0  0  0  0  0
    4.9665   -1.0122    0.0000 C   0  0  0  0  0  0  0  0  0  0  0  0
    2.9888   -0.7141    0.0000 C   0  0  0  0  0  0  0  0  0  0  0  0
    4.3430   -1.7941    0.0000 C   0  0  0  0  0  0  0  0  0  0  0  0
    3.3542   -1.6450    0.0000 C   0  0  0  0  0  0  0  0  0  0  0  0
    3.0960   -3.3577    0.0000 C   0  0  0  0  0  0  0  0  0  0  0  0
    5.9183    2.6208    0.0000 H   0  0  0  0  0  0  0  0  0  0  0  0
    5.9183    1.8477    0.0000 H   0  0  0  0  0  0  0  0  0  0  0  0
    6.8370    3.7552    0.0000 H   0  0  0  0  0  0  0  0  0  0  0  0
    6.2325    3.2732    0.0000 H   0  0  0  0  0  0  0  0  0  0  0  0
    7.5429    0.5521    0.0000 H   0  0  0  0  0  0  0  0  0  0  0  0
    8.2966    0.7242    0.0000 H   0  0  0  0  0  0  0  0  0  0  0  0
    8.2966    3.7443    0.0000 H   0  0  0  0  0  0  0  0  0  0  0  0
    7.5429    3.9163    0.0000 H   0  0  0  0  0  0  0  0  0  0  0  0
    6.0160   -0.0363    0.0000 H   0  0  0  0  0  0  0  0  0  0  0  0
    6.7580    0.2549    0.0000 H   0  0  0  0  0  0  0  0  0  0  0  0
    5.4221    1.2882    0.0000 H   0  0  0  0  0  0  0  0  0  0  0  0
    4.6801    0.9970    0.0000 H   0  0  0  0  0  0  0  0  0  0  0  0
    9.4805    0.5796    0.0000 H   0  0  0  0  0  0  0  0  0  0  0  0
    9.4805    3.8888    0.0000 H   0  0  0  0  0  0  0  0  0  0  0  0
   10.9295    1.4014    0.0000 H   0  0  0  0  0  0  0  0  0  0  0  0
   10.9295    3.0671    0.0000 H   0  0  0  0  0  0  0  0  0  0  0  0
    3.3858    0.6448    0.0000 H   0  0  0  0  0  0  0  0  0  0  0  0
    5.5796   -1.1046    0.0000 H   0  0  0  0  0  0  0  0  0  0  0  0
    4.5695   -2.3712    0.0000 H   0  0  0  0  0  0  0  0  0  0  0  0
    2.5189   -3.5842    0.0000 H   0  0  0  0  0  0  0  0  0  0  0  0
    3.3225   -3.9349    0.0000 H   0  0  0  0  0  0  0  0  0  0  0  0
    3.6732   -3.1312    0.0000 H   0  0  0  0  0  0  0  0  0  0  0  0
  1 19  1  0  0  0  0
  2 21  1  0  0  0  0
  2 22  1  0  0  0  0
  3  4  1  0  0  0  0
  3  6  1  0  0  0  0
  3  8  1  0  0  0  0
  4  5  1  0  0  0  0
  4 23  1  0  0  0  0
  4 24  1  0  0  0  0
  5  7  1  0  0  0  0
  5 25  1  0  0  0  0
  5 26  1  0  0  0  0
  6  9  1  0  0  0  0
  6 27  1  0  0  0  0
  6 28  1  0  0  0  0
  7 10  1  0  0  0  0
  7 29  1  0  0  0  0
  7 30  1  0  0  0  0
  8 11  1  0  0  0  0
  8 31  1  0  0  0  0
  8 32  1  0  0  0  0
  9 10  1  0  0  0  0
  9 12  2  0  0  0  0
 10 13  2  0  0  0  0
 11 14  1  0  0  0  0
 11 33  1  0  0  0  0
 11 34  1  0  0  0  0
 12 15  1  0  0  0  0
 12 35  1  0  0  0  0
 13 16  1  0  0  0  0
 13 36  1  0  0  0  0
 14 17  2  0  0  0  0
 14 18  1  0  0  0  0
 15 16  2  0  0  0  0
 15 37  1  0  0  0  0
 16 38  1  0  0  0  0
 17 19  1  0  0  0  0
 17 39  1  0  0  0  0
 18 20  2  0  0  0  0
 18 40  1  0  0  0  0
 19 21  2  0  0  0  0
 20 21  1  0  0  0  0
 20 41  1  0  0  0  0
 22 42  1  0  0  0  0
 22 43  1  0  0  0  0
 22 44  1  0  0  0  0
M  END
> <PUBCHEM_COMPOUND_CID>
17755992

> <PUBCHEM_COMPOUND_CANONICALIZED>
1

> <PUBCHEM_CACTVS_COMPLEXITY>
337

> <PUBCHEM_CACTVS_HBOND_ACCEPTOR>
2

> <PUBCHEM_CACTVS_HBOND_DONOR>
0

> <PUBCHEM_CACTVS_ROTATABLE_BOND>
4

> <PUBCHEM_CACTVS_SUBSKEYS>
AAADceB6IAAEAAAAAAAAAAAAAAAAAAAAAAAwYAAABYAAAAABQAAAHgIAAAAADAbBmCYyBoMABACAAiBCAACCCAAgJUAIiAAOD4gMJiOFsxuEMChkwBGIqAeQwIAOoAAAIAAQCABAAABAACAQAAAAAAAAAA==

> <PUBCHEM_IUPAC_OPENEYE_NAME>
2-[2-(3-chloro-4-methoxy-phenyl)ethyl]-1,3,4,5-tetrahydro-2-benzazepine

> <PUBCHEM_IUPAC_CAS_NAME>
2-[2-(3-chloro-4-methoxyphenyl)ethyl]-1,3,4,5-tetrahydro-2-benzazepine

> <PUBCHEM_IUPAC_NAME_MARKUP>
2-[2-(3-chloro-4-methoxyphenyl)ethyl]-1,3,4,5-tetrahydro-2-benzazepine

> <PUBCHEM_IUPAC_NAME>
2-[2-(3-chloro-4-methoxyphenyl)ethyl]-1,3,4,5-tetrahydro-2-benzazepine

> <PUBCHEM_IUPAC_SYSTEMATIC_NAME>
2-[2-(3-chloranyl-4-methoxy-phenyl)ethyl]-1,3,4,5-tetrahydro-2-benzazepine

> <PUBCHEM_IUPAC_TRADITIONAL_NAME>
2-[2-(3-chloro-4-methoxy-phenyl)ethyl]-1,3,4,5-tetrahydro-2-benzazepine

> <PUBCHEM_IUPAC_INCHI>
InChI=1S/C19H22ClNO/c1-22-19-9-8-15(13-18(19)20)10-12-21-11-4-7-16-5-2-3-6-17(16)14-21/h2-3,5-6,8-9,13H,4,7,10-12,14H2,1H3

> <PUBCHEM_IUPAC_INCHIKEY>
XJDSIWDPPZVMAG-UHFFFAOYSA-N

> <PUBCHEM_XLOGP3_AA>
4.7

> <PUBCHEM_EXACT_MASS>
315.1389920

> <PUBCHEM_MOLECULAR_FORMULA>
C19H22ClNO

> <PUBCHEM_MOLECULAR_WEIGHT>
315.8

> <PUBCHEM_OPENEYE_CAN_SMILES>
COC1=C(C=C(C=C1)CCN2CCCC3=CC=CC=C3C2)Cl

> <PUBCHEM_OPENEYE_ISO_SMILES>
COC1=C(C=C(C=C1)CCN2CCCC3=CC=CC=C3C2)Cl

> <PUBCHEM_CACTVS_TPSA>
12.5

> <PUBCHEM_MONOISOTOPIC_WEIGHT>
315.1389920

> <PUBCHEM_TOTAL_CHARGE>
0

> <PUBCHEM_HEAVY_ATOM_COUNT>
22

> <PUBCHEM_ATOM_DEF_STEREO_COUNT>
0

> <PUBCHEM_ATOM_UDEF_STEREO_COUNT>
0

> <PUBCHEM_BOND_DEF_STEREO_COUNT>
0

> <PUBCHEM_BOND_UDEF_STEREO_COUNT>
0

> <PUBCHEM_ISOTOPIC_ATOM_COUNT>
0

> <PUBCHEM_COMPONENT_COUNT>
1

> <PUBCHEM_CACTVS_TAUTO_COUNT>
-1

> <PUBCHEM_COORDINATE_TYPE>
1
5
255

> <PUBCHEM_BONDANNOTATIONS>
10  13  8
12  15  8
13  16  8
14  17  8
14  18  8
15  16  8
17  19  8
18  20  8
19  21  8
20  21  8
9  10  8
9  12  8

$$$$
