49798832
  -OEChem-09292322302D

 52 54  0     0  0  0  0  0  0999 V2000
    3.2152    4.4133    0.0000 S   0  0  0  0  0  0  0  0  0  0  0  0
    6.2988    1.6200    0.0000 O   0  0  0  0  0  0  0  0  0  0  0  0
    6.0160    9.8366    0.0000 O   0  0  0  0  0  0  0  0  0  0  0  0
    3.4179   10.3365    0.0000 O   0  0  0  0  0  0  0  0  0  0  0  0
    5.1499   11.3365    0.0000 O   0  0  0  0  0  0  0  0  0  0  0  0
    4.2839    8.8366    0.0000 O   0  0  0  0  0  0  0  0  0  0  0  0
    5.2988    4.3520    0.0000 N   0  0  0  0  0  0  0  0  0  0  0  0
    6.2988    2.6200    0.0000 C   0  0  0  0  0  0  0  0  0  0  0  0
    5.2988    2.6200    0.0000 C   0  0  0  0  0  0  0  0  0  0  0  0
    6.7988    3.4860    0.0000 C   0  0  0  0  0  0  0  0  0  0  0  0
    4.7988    3.4860    0.0000 C   0  0  0  0  0  0  0  0  0  0  0  0
    6.2988    4.3520    0.0000 C   0  0  0  0  0  0  0  0  0  0  0  0
    7.1648    2.1200    0.0000 C   0  0  0  0  0  0  0  0  0  0  0  0
    4.7988    5.2181    0.0000 C   0  0  0  0  0  0  0  0  0  0  0  0
    3.7988    5.2181    0.0000 C   0  0  0  0  0  0  0  0  0  0  0  0
    7.1648    1.1200    0.0000 C   0  0  0  0  0  0  0  0  0  0  0  0
    8.0309    2.6200    0.0000 C   0  0  0  0  0  0  0  0  0  0  0  0
    3.2152    6.0228    0.0000 C   0  0  0  0  0  0  0  0  0  0  0  0
    8.0309    0.6200    0.0000 C   0  0  0  0  0  0  0  0  0  0  0  0
    8.8969    2.1200    0.0000 C   0  0  0  0  0  0  0  0  0  0  0  0
    2.2690    5.7181    0.0000 C   0  0  0  0  0  0  0  0  0  0  0  0
    8.8969    1.1200    0.0000 C   0  0  0  0  0  0  0  0  0  0  0  0
    2.2690    4.7181    0.0000 C   0  0  0  0  0  0  0  0  0  0  0  0
    1.4030    6.2181    0.0000 C   0  0  0  0  0  0  0  0  0  0  0  0
    1.4030    4.2181    0.0000 C   0  0  0  0  0  0  0  0  0  0  0  0
    0.5369    5.7181    0.0000 C   0  0  0  0  0  0  0  0  0  0  0  0
    0.5369    4.7181    0.0000 C   0  0  0  0  0  0  0  0  0  0  0  0
    5.1499   10.3365    0.0000 C   0  0  0  0  0  0  0  0  0  0  0  0
    4.2839    9.8366    0.0000 C   0  0  0  0  0  0  0  0  0  0  0  0
    4.7162    2.4080    0.0000 H   0  0  0  0  0  0  0  0  0  0  0  0
    5.4065    2.0094    0.0000 H   0  0  0  0  0  0  0  0  0  0  0  0
    7.2738    3.0875    0.0000 H   0  0  0  0  0  0  0  0  0  0  0  0
    7.2738    3.8846    0.0000 H   0  0  0  0  0  0  0  0  0  0  0  0
    4.3239    3.8846    0.0000 H   0  0  0  0  0  0  0  0  0  0  0  0
    4.3239    3.0875    0.0000 H   0  0  0  0  0  0  0  0  0  0  0  0
    6.8814    4.5641    0.0000 H   0  0  0  0  0  0  0  0  0  0  0  0
    6.1912    4.9626    0.0000 H   0  0  0  0  0  0  0  0  0  0  0  0
    5.3814    5.4301    0.0000 H   0  0  0  0  0  0  0  0  0  0  0  0
    4.6912    5.8287    0.0000 H   0  0  0  0  0  0  0  0  0  0  0  0
    5.7619    1.3100    0.0000 H   0  0  0  0  0  0  0  0  0  0  0  0
    6.6279    0.8100    0.0000 H   0  0  0  0  0  0  0  0  0  0  0  0
    8.0309    3.2400    0.0000 H   0  0  0  0  0  0  0  0  0  0  0  0
    3.4078    6.6121    0.0000 H   0  0  0  0  0  0  0  0  0  0  0  0
    8.0309    0.0000    0.0000 H   0  0  0  0  0  0  0  0  0  0  0  0
    9.4338    2.4300    0.0000 H   0  0  0  0  0  0  0  0  0  0  0  0
    9.4338    0.8100    0.0000 H   0  0  0  0  0  0  0  0  0  0  0  0
    1.4030    6.8381    0.0000 H   0  0  0  0  0  0  0  0  0  0  0  0
    1.4030    3.5981    0.0000 H   0  0  0  0  0  0  0  0  0  0  0  0
    0.0000    6.0281    0.0000 H   0  0  0  0  0  0  0  0  0  0  0  0
    0.0000    4.4081    0.0000 H   0  0  0  0  0  0  0  0  0  0  0  0
    6.5529   10.1465    0.0000 H   0  0  0  0  0  0  0  0  0  0  0  0
    2.8809   10.0265    0.0000 H   0  0  0  0  0  0  0  0  0  0  0  0
  1 15  1  0  0  0  0
  1 23  1  0  0  0  0
  2  8  1  0  0  0  0
  2 40  1  0  0  0  0
  3 28  1  0  0  0  0
  3 51  1  0  0  0  0
  4 29  1  0  0  0  0
  4 52  1  0  0  0  0
  5 28  2  0  0  0  0
  6 29  2  0  0  0  0
  7 11  1  0  0  0  0
  7 12  1  0  0  0  0
  7 14  1  0  0  0  0
  8  9  1  0  0  0  0
  8 10  1  0  0  0  0
  8 13  1  0  0  0  0
  9 11  1  0  0  0  0
  9 30  1  0  0  0  0
  9 31  1  0  0  0  0
 10 12  1  0  0  0  0
 10 32  1  0  0  0  0
 10 33  1  0  0  0  0
 11 34  1  0  0  0  0
 11 35  1  0  0  0  0
 12 36  1  0  0  0  0
 12 37  1  0  0  0  0
 13 16  2  0  0  0  0
 13 17  1  0  0  0  0
 14 15  1  0  0  0  0
 14 38  1  0  0  0  0
 14 39  1  0  0  0  0
 15 18  2  0  0  0  0
 16 19  1  0  0  0  0
 16 41  1  0  0  0  0
 17 20  2  0  0  0  0
 17 42  1  0  0  0  0
 18 21  1  0  0  0  0
 18 43  1  0  0  0  0
 19 22  2  0  0  0  0
 19 44  1  0  0  0  0
 20 22  1  0  0  0  0
 20 45  1  0  0  0  0
 21 23  1  0  0  0  0
 21 24  2  0  0  0  0
 22 46  1  0  0  0  0
 23 25  2  0  0  0  0
 24 26  1  0  0  0  0
 24 47  1  0  0  0  0
 25 27  1  0  0  0  0
 25 48  1  0  0  0  0
 26 27  2  0  0  0  0
 26 49  1  0  0  0  0
 27 50  1  0  0  0  0
 28 29  1  0  0  0  0
M  END
> <PUBCHEM_COMPOUND_CID>
49798832

> <PUBCHEM_COMPOUND_CANONICALIZED>
1

> <PUBCHEM_CACTVS_COMPLEXITY>
459

> <PUBCHEM_CACTVS_HBOND_ACCEPTOR>
7

> <PUBCHEM_CACTVS_HBOND_DONOR>
3

> <PUBCHEM_CACTVS_ROTATABLE_BOND>
4

> <PUBCHEM_CACTVS_SUBSKEYS>
AAADceB6OABAAAAAAAAAAAAAAAAAASAAAAA8YIAAAAAAAEgB9AAAHgQACAAADETB2AQwCcMAAgiMAiDSCAKDAIAgCBBIiBhIDIgJJiKgkRGEcAhmwAGpmAeQwOAOgAAAAAAEAAAAAAAAAAgAAAAAAAAAAA==

> <PUBCHEM_IUPAC_OPENEYE_NAME>
1-(benzothiophen-2-ylmethyl)-4-phenyl-piperidin-4-ol;oxalic acid

> <PUBCHEM_IUPAC_CAS_NAME>
1-(1-benzothiophen-2-ylmethyl)-4-phenyl-4-piperidinol;oxalic acid

> <PUBCHEM_IUPAC_NAME_MARKUP>
1-(1-benzothiophen-2-ylmethyl)-4-phenylpiperidin-4-ol;oxalic acid

> <PUBCHEM_IUPAC_NAME>
1-(1-benzothiophen-2-ylmethyl)-4-phenylpiperidin-4-ol;oxalic acid

> <PUBCHEM_IUPAC_SYSTEMATIC_NAME>
1-(1-benzothiophen-2-ylmethyl)-4-phenyl-piperidin-4-ol;ethanedioic acid

> <PUBCHEM_IUPAC_TRADITIONAL_NAME>
1-(benzothiophen-2-ylmethyl)-4-phenyl-piperidin-4-ol;oxalic acid

> <PUBCHEM_IUPAC_INCHI>
InChI=1S/C20H21NOS.C2H2O4/c22-20(17-7-2-1-3-8-17)10-12-21(13-11-20)15-18-14-16-6-4-5-9-19(16)23-18;3-1(4)2(5)6/h1-9,14,22H,10-13,15H2;(H,3,4)(H,5,6)

> <PUBCHEM_IUPAC_INCHIKEY>
KNOQKEHHWJZPJL-UHFFFAOYSA-N

> <PUBCHEM_EXACT_MASS>
413.12969401

> <PUBCHEM_MOLECULAR_FORMULA>
C22H23NO5S

> <PUBCHEM_MOLECULAR_WEIGHT>
413.5

> <PUBCHEM_OPENEYE_CAN_SMILES>
C1CN(CCC1(C2=CC=CC=C2)O)CC3=CC4=CC=CC=C4S3.C(=O)(C(=O)O)O

> <PUBCHEM_OPENEYE_ISO_SMILES>
C1CN(CCC1(C2=CC=CC=C2)O)CC3=CC4=CC=CC=C4S3.C(=O)(C(=O)O)O

> <PUBCHEM_CACTVS_TPSA>
126

> <PUBCHEM_MONOISOTOPIC_WEIGHT>
413.12969401

> <PUBCHEM_TOTAL_CHARGE>
0

> <PUBCHEM_HEAVY_ATOM_COUNT>
29

> <PUBCHEM_ATOM_DEF_STEREO_COUNT>
0

> <PUBCHEM_ATOM_UDEF_STEREO_COUNT>
0

> <PUBCHEM_BOND_DEF_STEREO_COUNT>
0

> <PUBCHEM_BOND_UDEF_STEREO_COUNT>
0

> <PUBCHEM_ISOTOPIC_ATOM_COUNT>
0

> <PUBCHEM_COMPONENT_COUNT>
2

> <PUBCHEM_CACTVS_TAUTO_COUNT>
-1

> <PUBCHEM_COORDINATE_TYPE>
1
5
255

> <PUBCHEM_BONDANNOTATIONS>
1  15  8
1  23  8
13  16  8
13  17  8
15  18  8
16  19  8
17  20  8
18  21  8
19  22  8
20  22  8
21  23  8
21  24  8
23  25  8
24  26  8
25  27  8
26  27  8

$$$$
