9906777
  -OEChem-09292322072D

 42 45  0     1  0  0  0  0  0999 V2000
    9.5034    1.6984    0.0000 Cl  0  0  0  0  0  0  0  0  0  0  0  0
    5.9070    1.9563    0.0000 O   0  0  0  0  0  0  0  0  0  0  0  0
    6.5308   -0.9781    0.0000 O   0  0  0  0  0  0  0  0  0  0  0  0
    2.3080   -0.9135    0.0000 N   0  0  3  0  0  0  0  0  0  0  0  0
    5.3718    0.3090    0.0000 N   0  0  0  0  0  0  0  0  0  0  0  0
    9.9192   -0.2579    0.0000 N   0  0  0  0  0  0  0  0  0  0  0  0
    3.6117    0.0302    0.0000 C   0  0  3  0  0  0  0  0  0  0  0  0
    2.8027    0.6180    0.0000 C   0  0  3  0  0  0  0  0  0  0  0  0
    4.1117    1.5691    0.0000 C   0  0  3  0  0  0  0  0  0  0  0  0
    4.4207    0.6180    0.0000 C   0  0  1  0  0  0  0  0  0  0  0  0
    3.1117    1.5691    0.0000 C   0  0  0  0  0  0  0  0  0  0  0  0
    3.3021   -0.9144    0.0000 C   0  0  0  0  0  0  0  0  0  0  0  0
    2.0000    0.0316    0.0000 C   0  0  0  0  0  0  0  0  0  0  0  0
    2.4932    0.8485    0.0000 C   0  0  0  0  0  0  0  0  0  0  0  0
    6.1149    0.9781    0.0000 C   0  0  0  0  0  0  0  0  0  0  0  0
    7.0660    0.6691    0.0000 C   0  0  0  0  0  0  0  0  0  0  0  0
    7.2739   -0.3090    0.0000 C   0  0  0  0  0  0  0  0  0  0  0  0
    7.8091    1.3383    0.0000 C   0  0  0  0  0  0  0  0  0  0  0  0
    8.2250   -0.6180    0.0000 C   0  0  0  0  0  0  0  0  0  0  0  0
    8.7602    1.0292    0.0000 C   0  0  0  0  0  0  0  0  0  0  0  0
    8.9681    0.0511    0.0000 C   0  0  0  0  0  0  0  0  0  0  0  0
    6.7387   -1.9563    0.0000 C   0  0  0  0  0  0  0  0  0  0  0  0
    4.1128   -0.3348    0.0000 H   0  0  0  0  0  0  0  0  0  0  0  0
    2.3006    0.9818    0.0000 H   0  0  0  0  0  0  0  0  0  0  0  0
    4.4761    2.0707    0.0000 H   0  0  0  0  0  0  0  0  0  0  0  0
    4.5177    0.0057    0.0000 H   0  0  0  0  0  0  0  0  0  0  0  0
    3.1765    2.1857    0.0000 H   0  0  0  0  0  0  0  0  0  0  0  0
    2.5053    1.6980    0.0000 H   0  0  0  0  0  0  0  0  0  0  0  0
    3.2364   -1.5309    0.0000 H   0  0  0  0  0  0  0  0  0  0  0  0
    3.9083   -1.0445    0.0000 H   0  0  0  0  0  0  0  0  0  0  0  0
    1.6889    0.5680    0.0000 H   0  0  0  0  0  0  0  0  0  0  0  0
    1.4340   -0.2214    0.0000 H   0  0  0  0  0  0  0  0  0  0  0  0
    2.3432    1.4501    0.0000 H   0  0  0  0  0  0  0  0  0  0  0  0
    1.8747    0.8052    0.0000 H   0  0  0  0  0  0  0  0  0  0  0  0
    5.5007   -0.2974    0.0000 H   0  0  0  0  0  0  0  0  0  0  0  0
    7.6802    1.9447    0.0000 H   0  0  0  0  0  0  0  0  0  0  0  0
    8.3539   -1.2245    0.0000 H   0  0  0  0  0  0  0  0  0  0  0  0
    6.1322   -2.0852    0.0000 H   0  0  0  0  0  0  0  0  0  0  0  0
    6.8676   -2.5628    0.0000 H   0  0  0  0  0  0  0  0  0  0  0  0
    7.3451   -1.8274    0.0000 H   0  0  0  0  0  0  0  0  0  0  0  0
   10.0481   -0.8644    0.0000 H   0  0  0  0  0  0  0  0  0  0  0  0
   10.3799    0.1569    0.0000 H   0  0  0  0  0  0  0  0  0  0  0  0
  1 20  1  0  0  0  0
  2 15  2  0  0  0  0
  3 17  1  0  0  0  0
  3 22  1  0  0  0  0
  4 12  1  0  0  0  0
  4 13  1  0  0  0  0
  4 14  1  0  0  0  0
 10  5  1  1  0  0  0
  5 15  1  0  0  0  0
  5 35  1  0  0  0  0
  6 21  1  0  0  0  0
  6 41  1  0  0  0  0
  6 42  1  0  0  0  0
  7  8  1  0  0  0  0
  7 10  1  0  0  0  0
  7 12  1  0  0  0  0
  7 23  1  0  0  0  0
  8 11  1  0  0  0  0
  8 13  1  0  0  0  0
  8 24  1  0  0  0  0
  9 10  1  0  0  0  0
  9 11  1  0  0  0  0
  9 14  1  0  0  0  0
  9 25  1  0  0  0  0
 10 26  1  0  0  0  0
 11 27  1  0  0  0  0
 11 28  1  0  0  0  0
 12 29  1  0  0  0  0
 12 30  1  0  0  0  0
 13 31  1  0  0  0  0
 13 32  1  0  0  0  0
 14 33  1  0  0  0  0
 14 34  1  0  0  0  0
 15 16  1  0  0  0  0
 16 17  1  0  0  0  0
 16 18  2  0  0  0  0
 17 19  2  0  0  0  0
 18 20  1  0  0  0  0
 18 36  1  0  0  0  0
 19 21  1  0  0  0  0
 19 37  1  0  0  0  0
 20 21  2  0  0  0  0
 22 38  1  0  0  0  0
 22 39  1  0  0  0  0
 22 40  1  0  0  0  0
M  END
> <PUBCHEM_COMPOUND_CID>
9906777

> <PUBCHEM_COMPOUND_CANONICALIZED>
1

> <PUBCHEM_CACTVS_COMPLEXITY>
463

> <PUBCHEM_CACTVS_HBOND_ACCEPTOR>
4

> <PUBCHEM_CACTVS_HBOND_DONOR>
2

> <PUBCHEM_CACTVS_ROTATABLE_BOND>
3

> <PUBCHEM_CACTVS_SUBSKEYS>
AAADceB7MAAEAAAAAAAAAAAAAAAAAeIAAAA8WIAAAAAAAAABAAAAHgIQAAAADS7BmCYyxoPABACIAiVSUACCCAAkJwAAiIEObsgMJjaF9puEMWhm9hmI6YeY2SGeiCAAIgAIABAQQABEABAAISAACQAAAA==

> <PUBCHEM_IUPAC_OPENEYE_NAME>
4-amino-N-[(4R)-1-azatricyclo[3.3.1.03,7]nonan-4-yl]-5-chloro-2-methoxy-benzamide

> <PUBCHEM_IUPAC_CAS_NAME>
4-amino-N-[(4R)-1-azatricyclo[3.3.1.03,7]nonan-4-yl]-5-chloro-2-methoxybenzamide

> <PUBCHEM_IUPAC_NAME_MARKUP>
4-amino-<I>N</I>-[(4<I>R</I>)-1-azatricyclo[3.3.1.0<SUP>3,7</SUP>]nonan-4-yl]-5-chloro-2-methoxybenzamide

> <PUBCHEM_IUPAC_NAME>
4-amino-N-[(4R)-1-azatricyclo[3.3.1.03,7]nonan-4-yl]-5-chloro-2-methoxybenzamide

> <PUBCHEM_IUPAC_SYSTEMATIC_NAME>
4-azanyl-N-[(4R)-1-azatricyclo[3.3.1.03,7]nonan-4-yl]-5-chloranyl-2-methoxy-benzamide

> <PUBCHEM_IUPAC_TRADITIONAL_NAME>
4-amino-N-[(4R)-1-azatricyclo[3.3.1.03,7]nonan-4-yl]-5-chloro-2-methoxy-benzamide

> <PUBCHEM_IUPAC_INCHI>
InChI=1S/C16H20ClN3O2/c1-22-14-4-13(18)12(17)3-10(14)16(21)19-15-9-2-8-5-20(6-9)7-11(8)15/h3-4,8-9,11,15H,2,5-7,18H2,1H3,(H,19,21)/t8?,9?,11?,15-/m1/s1

> <PUBCHEM_IUPAC_INCHIKEY>
MRKYTIJPEALHEE-YFCKSMKJSA-N

> <PUBCHEM_XLOGP3_AA>
1.7

> <PUBCHEM_EXACT_MASS>
321.1244046

> <PUBCHEM_MOLECULAR_FORMULA>
C16H20ClN3O2

> <PUBCHEM_MOLECULAR_WEIGHT>
321.80

> <PUBCHEM_OPENEYE_CAN_SMILES>
COC1=CC(=C(C=C1C(=O)NC2C3CC4C2CN(C4)C3)Cl)N

> <PUBCHEM_OPENEYE_ISO_SMILES>
COC1=CC(=C(C=C1C(=O)N[C@@H]2C3CC4C2CN(C3)C4)Cl)N

> <PUBCHEM_CACTVS_TPSA>
67.6

> <PUBCHEM_MONOISOTOPIC_WEIGHT>
321.1244046

> <PUBCHEM_TOTAL_CHARGE>
0

> <PUBCHEM_HEAVY_ATOM_COUNT>
22

> <PUBCHEM_ATOM_DEF_STEREO_COUNT>
1

> <PUBCHEM_ATOM_UDEF_STEREO_COUNT>
3

> <PUBCHEM_BOND_DEF_STEREO_COUNT>
0

> <PUBCHEM_BOND_UDEF_STEREO_COUNT>
0

> <PUBCHEM_ISOTOPIC_ATOM_COUNT>
0

> <PUBCHEM_COMPONENT_COUNT>
1

> <PUBCHEM_CACTVS_TAUTO_COUNT>
-1

> <PUBCHEM_COORDINATE_TYPE>
1
5
255

> <PUBCHEM_BONDANNOTATIONS>
16  17  8
16  18  8
17  19  8
18  20  8
19  21  8
20  21  8
10  5  5
7  12  3
8  11  3
9  11  3

$$$$
