118709170
  -OEChem-09292322352D

154159  0     0  0  0  0  0  0999 V2000
    2.5981    1.7320    0.0000 Cl  0  0  0  0  0  0  0  0  0  0  0  0
   23.5981   -1.7320    0.0000 Cl  0  0  0  0  0  0  0  0  0  0  0  0
    2.8660   14.1962    0.0000 F   0  0  0  0  0  0  0  0  0  0  0  0
   19.8660  -14.1962    0.0000 F   0  0  0  0  0  0  0  0  0  0  0  0
    5.0981    4.3301    0.0000 O   0  0  0  0  0  0  0  0  0  0  0  0
   21.0981   -4.3301    0.0000 O   0  0  0  0  0  0  0  0  0  0  0  0
    6.5981    5.1962    0.0000 O   0  0  0  0  0  0  0  0  0  0  0  0
   19.5981   -5.1962    0.0000 O   0  0  0  0  0  0  0  0  0  0  0  0
    2.0000    9.6962    0.0000 O   0  0  0  0  0  0  0  0  0  0  0  0
   19.0000   -9.6962    0.0000 O   0  0  0  0  0  0  0  0  0  0  0  0
    4.5981    7.1962    0.0000 N   0  0  0  0  0  0  0  0  0  0  0  0
   21.5981   -7.1962    0.0000 N   0  0  0  0  0  0  0  0  0  0  0  0
    4.5981    5.1962    0.0000 C   0  0  0  0  0  0  0  0  0  0  0  0
   21.5981   -5.1962    0.0000 C   0  0  0  0  0  0  0  0  0  0  0  0
    3.7320    5.6962    0.0000 C   0  0  0  0  0  0  0  0  0  0  0  0
    5.4641    5.6962    0.0000 C   0  0  0  0  0  0  0  0  0  0  0  0
   20.7320   -5.6962    0.0000 C   0  0  0  0  0  0  0  0  0  0  0  0
   22.4641   -5.6962    0.0000 C   0  0  0  0  0  0  0  0  0  0  0  0
    3.7320    6.6962    0.0000 C   0  0  0  0  0  0  0  0  0  0  0  0
    5.4641    6.6962    0.0000 C   0  0  0  0  0  0  0  0  0  0  0  0
   20.7320   -6.6962    0.0000 C   0  0  0  0  0  0  0  0  0  0  0  0
   22.4641   -6.6962    0.0000 C   0  0  0  0  0  0  0  0  0  0  0  0
    4.0981    4.3301    0.0000 C   0  0  0  0  0  0  0  0  0  0  0  0
   22.0981   -4.3301    0.0000 C   0  0  0  0  0  0  0  0  0  0  0  0
    4.5981    8.1962    0.0000 C   0  0  0  0  0  0  0  0  0  0  0  0
   21.5981   -8.1962    0.0000 C   0  0  0  0  0  0  0  0  0  0  0  0
    3.7320    8.6962    0.0000 C   0  0  0  0  0  0  0  0  0  0  0  0
   20.7320   -8.6962    0.0000 C   0  0  0  0  0  0  0  0  0  0  0  0
    3.0981    4.3301    0.0000 C   0  0  0  0  0  0  0  0  0  0  0  0
   23.0981   -4.3301    0.0000 C   0  0  0  0  0  0  0  0  0  0  0  0
    4.5981    3.4641    0.0000 C   0  0  0  0  0  0  0  0  0  0  0  0
   21.5981   -3.4641    0.0000 C   0  0  0  0  0  0  0  0  0  0  0  0
    6.0981    4.3301    0.0000 C   0  0  0  0  0  0  0  0  0  0  0  0
   20.0981   -4.3301    0.0000 C   0  0  0  0  0  0  0  0  0  0  0  0
    3.7320    9.6962    0.0000 C   0  0  0  0  0  0  0  0  0  0  0  0
   20.7320   -9.6962    0.0000 C   0  0  0  0  0  0  0  0  0  0  0  0
    6.5981    3.4641    0.0000 C   0  0  0  0  0  0  0  0  0  0  0  0
   19.5981   -3.4641    0.0000 C   0  0  0  0  0  0  0  0  0  0  0  0
    2.5981    3.4641    0.0000 C   0  0  0  0  0  0  0  0  0  0  0  0
   23.5981   -3.4641    0.0000 C   0  0  0  0  0  0  0  0  0  0  0  0
    4.0981    2.5981    0.0000 C   0  0  0  0  0  0  0  0  0  0  0  0
   22.0981   -2.5981    0.0000 C   0  0  0  0  0  0  0  0  0  0  0  0
    7.5981    3.4641    0.0000 C   0  0  0  0  0  0  0  0  0  0  0  0
   18.5981   -3.4641    0.0000 C   0  0  0  0  0  0  0  0  0  0  0  0
    3.0981    2.5981    0.0000 C   0  0  0  0  0  0  0  0  0  0  0  0
   23.0981   -2.5981    0.0000 C   0  0  0  0  0  0  0  0  0  0  0  0
    8.0981    2.5981    0.0000 C   0  0  0  0  0  0  0  0  0  0  0  0
   18.0981   -2.5981    0.0000 C   0  0  0  0  0  0  0  0  0  0  0  0
    2.8660   10.1962    0.0000 C   0  0  0  0  0  0  0  0  0  0  0  0
   19.8660  -10.1962    0.0000 C   0  0  0  0  0  0  0  0  0  0  0  0
    9.0981    2.5981    0.0000 C   0  0  0  0  0  0  0  0  0  0  0  0
   17.0981   -2.5981    0.0000 C   0  0  0  0  0  0  0  0  0  0  0  0
    9.5981    1.7320    0.0000 C   0  0  0  0  0  0  0  0  0  0  0  0
   16.5981   -1.7320    0.0000 C   0  0  0  0  0  0  0  0  0  0  0  0
   10.5981    1.7320    0.0000 C   0  0  0  0  0  0  0  0  0  0  0  0
   15.5981   -1.7320    0.0000 C   0  0  0  0  0  0  0  0  0  0  0  0
   11.0981    0.8660    0.0000 C   0  0  0  0  0  0  0  0  0  0  0  0
   15.0981   -0.8660    0.0000 C   0  0  0  0  0  0  0  0  0  0  0  0
    2.8660   11.1962    0.0000 C   0  0  0  0  0  0  0  0  0  0  0  0
   19.8660  -11.1962    0.0000 C   0  0  0  0  0  0  0  0  0  0  0  0
   12.0981    0.8660    0.0000 C   0  0  0  0  0  0  0  0  0  0  0  0
   14.0981   -0.8660    0.0000 C   0  0  0  0  0  0  0  0  0  0  0  0
   12.5981   -0.0000    0.0000 C   0  0  0  0  0  0  0  0  0  0  0  0
   13.5981   -0.0000    0.0000 C   0  0  0  0  0  0  0  0  0  0  0  0
    2.0000   11.6962    0.0000 C   0  0  0  0  0  0  0  0  0  0  0  0
   20.7320  -11.6962    0.0000 C   0  0  0  0  0  0  0  0  0  0  0  0
    3.7320   11.6962    0.0000 C   0  0  0  0  0  0  0  0  0  0  0  0
   19.0000  -11.6962    0.0000 C   0  0  0  0  0  0  0  0  0  0  0  0
    2.0000   12.6962    0.0000 C   0  0  0  0  0  0  0  0  0  0  0  0
   20.7320  -12.6962    0.0000 C   0  0  0  0  0  0  0  0  0  0  0  0
    3.7320   12.6962    0.0000 C   0  0  0  0  0  0  0  0  0  0  0  0
   19.0000  -12.6962    0.0000 C   0  0  0  0  0  0  0  0  0  0  0  0
    2.8660   13.1962    0.0000 C   0  0  0  0  0  0  0  0  0  0  0  0
   19.8660  -13.1962    0.0000 C   0  0  0  0  0  0  0  0  0  0  0  0
    3.1215    5.8038    0.0000 H   0  0  0  0  0  0  0  0  0  0  0  0
    3.5200    5.1135    0.0000 H   0  0  0  0  0  0  0  0  0  0  0  0
    5.6762    5.1135    0.0000 H   0  0  0  0  0  0  0  0  0  0  0  0
    6.0747    5.8038    0.0000 H   0  0  0  0  0  0  0  0  0  0  0  0
   20.5200   -5.1135    0.0000 H   0  0  0  0  0  0  0  0  0  0  0  0
   20.1215   -5.8038    0.0000 H   0  0  0  0  0  0  0  0  0  0  0  0
   23.0747   -5.8038    0.0000 H   0  0  0  0  0  0  0  0  0  0  0  0
   22.6762   -5.1135    0.0000 H   0  0  0  0  0  0  0  0  0  0  0  0
    3.5200    7.2788    0.0000 H   0  0  0  0  0  0  0  0  0  0  0  0
    3.1215    6.5885    0.0000 H   0  0  0  0  0  0  0  0  0  0  0  0
    6.0747    6.5885    0.0000 H   0  0  0  0  0  0  0  0  0  0  0  0
    5.6762    7.2788    0.0000 H   0  0  0  0  0  0  0  0  0  0  0  0
   20.1215   -6.5885    0.0000 H   0  0  0  0  0  0  0  0  0  0  0  0
   20.5200   -7.2788    0.0000 H   0  0  0  0  0  0  0  0  0  0  0  0
   22.6762   -7.2788    0.0000 H   0  0  0  0  0  0  0  0  0  0  0  0
   23.0747   -6.5885    0.0000 H   0  0  0  0  0  0  0  0  0  0  0  0
    5.2087    8.0885    0.0000 H   0  0  0  0  0  0  0  0  0  0  0  0
    4.8101    8.7788    0.0000 H   0  0  0  0  0  0  0  0  0  0  0  0
   21.8101   -8.7788    0.0000 H   0  0  0  0  0  0  0  0  0  0  0  0
   22.2087   -8.0885    0.0000 H   0  0  0  0  0  0  0  0  0  0  0  0
    3.1215    8.8038    0.0000 H   0  0  0  0  0  0  0  0  0  0  0  0
    3.5200    8.1135    0.0000 H   0  0  0  0  0  0  0  0  0  0  0  0
   20.5200   -8.1135    0.0000 H   0  0  0  0  0  0  0  0  0  0  0  0
   20.1215   -8.8038    0.0000 H   0  0  0  0  0  0  0  0  0  0  0  0
    2.7881    4.8671    0.0000 H   0  0  0  0  0  0  0  0  0  0  0  0
   23.4081   -4.8671    0.0000 H   0  0  0  0  0  0  0  0  0  0  0  0
    5.2181    3.4641    0.0000 H   0  0  0  0  0  0  0  0  0  0  0  0
   20.9781   -3.4641    0.0000 H   0  0  0  0  0  0  0  0  0  0  0  0
    4.3426    9.5885    0.0000 H   0  0  0  0  0  0  0  0  0  0  0  0
    3.9441   10.2788    0.0000 H   0  0  0  0  0  0  0  0  0  0  0  0
   20.9441  -10.2788    0.0000 H   0  0  0  0  0  0  0  0  0  0  0  0
   21.3426   -9.5885    0.0000 H   0  0  0  0  0  0  0  0  0  0  0  0
    6.0155    3.2520    0.0000 H   0  0  0  0  0  0  0  0  0  0  0  0
    6.7057    2.8535    0.0000 H   0  0  0  0  0  0  0  0  0  0  0  0
   20.1807   -3.2520    0.0000 H   0  0  0  0  0  0  0  0  0  0  0  0
   19.4904   -2.8535    0.0000 H   0  0  0  0  0  0  0  0  0  0  0  0
    1.9781    3.4641    0.0000 H   0  0  0  0  0  0  0  0  0  0  0  0
   24.2181   -3.4641    0.0000 H   0  0  0  0  0  0  0  0  0  0  0  0
    4.4081    2.0611    0.0000 H   0  0  0  0  0  0  0  0  0  0  0  0
   21.7881   -2.0611    0.0000 H   0  0  0  0  0  0  0  0  0  0  0  0
    8.1807    3.6762    0.0000 H   0  0  0  0  0  0  0  0  0  0  0  0
    7.4904    4.0747    0.0000 H   0  0  0  0  0  0  0  0  0  0  0  0
   18.0155   -3.6762    0.0000 H   0  0  0  0  0  0  0  0  0  0  0  0
   18.7057   -4.0747    0.0000 H   0  0  0  0  0  0  0  0  0  0  0  0
    7.5155    2.3860    0.0000 H   0  0  0  0  0  0  0  0  0  0  0  0
    8.2057    1.9875    0.0000 H   0  0  0  0  0  0  0  0  0  0  0  0
   18.6807   -2.3860    0.0000 H   0  0  0  0  0  0  0  0  0  0  0  0
   17.9904   -1.9875    0.0000 H   0  0  0  0  0  0  0  0  0  0  0  0
    9.6807    2.8101    0.0000 H   0  0  0  0  0  0  0  0  0  0  0  0
    8.9904    3.2087    0.0000 H   0  0  0  0  0  0  0  0  0  0  0  0
   16.5155   -2.8101    0.0000 H   0  0  0  0  0  0  0  0  0  0  0  0
   17.2057   -3.2087    0.0000 H   0  0  0  0  0  0  0  0  0  0  0  0
    9.0155    1.5200    0.0000 H   0  0  0  0  0  0  0  0  0  0  0  0
    9.7057    1.1215    0.0000 H   0  0  0  0  0  0  0  0  0  0  0  0
   17.1807   -1.5200    0.0000 H   0  0  0  0  0  0  0  0  0  0  0  0
   16.4904   -1.1215    0.0000 H   0  0  0  0  0  0  0  0  0  0  0  0
   11.1807    1.9441    0.0000 H   0  0  0  0  0  0  0  0  0  0  0  0
   10.4904    2.3426    0.0000 H   0  0  0  0  0  0  0  0  0  0  0  0
   15.0155   -1.9441    0.0000 H   0  0  0  0  0  0  0  0  0  0  0  0
   15.7057   -2.3426    0.0000 H   0  0  0  0  0  0  0  0  0  0  0  0
   10.5155    0.6540    0.0000 H   0  0  0  0  0  0  0  0  0  0  0  0
   11.2057    0.2554    0.0000 H   0  0  0  0  0  0  0  0  0  0  0  0
   15.6807   -0.6540    0.0000 H   0  0  0  0  0  0  0  0  0  0  0  0
   14.9904   -0.2554    0.0000 H   0  0  0  0  0  0  0  0  0  0  0  0
   12.6807    1.0781    0.0000 H   0  0  0  0  0  0  0  0  0  0  0  0
   11.9904    1.4766    0.0000 H   0  0  0  0  0  0  0  0  0  0  0  0
   13.5155   -1.0781    0.0000 H   0  0  0  0  0  0  0  0  0  0  0  0
   14.2057   -1.4766    0.0000 H   0  0  0  0  0  0  0  0  0  0  0  0
   12.0155   -0.2121    0.0000 H   0  0  0  0  0  0  0  0  0  0  0  0
   12.7057   -0.6106    0.0000 H   0  0  0  0  0  0  0  0  0  0  0  0
   14.1807    0.2121    0.0000 H   0  0  0  0  0  0  0  0  0  0  0  0
   13.4904    0.6106    0.0000 H   0  0  0  0  0  0  0  0  0  0  0  0
    1.4631   11.3862    0.0000 H   0  0  0  0  0  0  0  0  0  0  0  0
   21.2690  -11.3862    0.0000 H   0  0  0  0  0  0  0  0  0  0  0  0
    4.2690   11.3862    0.0000 H   0  0  0  0  0  0  0  0  0  0  0  0
   18.4631  -11.3862    0.0000 H   0  0  0  0  0  0  0  0  0  0  0  0
    1.4631   13.0062    0.0000 H   0  0  0  0  0  0  0  0  0  0  0  0
   21.2690  -13.0062    0.0000 H   0  0  0  0  0  0  0  0  0  0  0  0
    4.2690   13.0062    0.0000 H   0  0  0  0  0  0  0  0  0  0  0  0
   18.4631  -13.0062    0.0000 H   0  0  0  0  0  0  0  0  0  0  0  0
  1 45  1  0  0  0  0
  2 46  1  0  0  0  0
  3 73  1  0  0  0  0
  4 74  1  0  0  0  0
  5 13  1  0  0  0  0
  5 33  1  0  0  0  0
  6 14  1  0  0  0  0
  6 34  1  0  0  0  0
  7 33  2  0  0  0  0
  8 34  2  0  0  0  0
  9 49  2  0  0  0  0
 10 50  2  0  0  0  0
 11 19  1  0  0  0  0
 11 20  1  0  0  0  0
 11 25  1  0  0  0  0
 12 21  1  0  0  0  0
 12 22  1  0  0  0  0
 12 26  1  0  0  0  0
 13 15  1  0  0  0  0
 13 16  1  0  0  0  0
 13 23  1  0  0  0  0
 14 17  1  0  0  0  0
 14 18  1  0  0  0  0
 14 24  1  0  0  0  0
 15 19  1  0  0  0  0
 15 75  1  0  0  0  0
 15 76  1  0  0  0  0
 16 20  1  0  0  0  0
 16 77  1  0  0  0  0
 16 78  1  0  0  0  0
 17 21  1  0  0  0  0
 17 79  1  0  0  0  0
 17 80  1  0  0  0  0
 18 22  1  0  0  0  0
 18 81  1  0  0  0  0
 18 82  1  0  0  0  0
 19 83  1  0  0  0  0
 19 84  1  0  0  0  0
 20 85  1  0  0  0  0
 20 86  1  0  0  0  0
 21 87  1  0  0  0  0
 21 88  1  0  0  0  0
 22 89  1  0  0  0  0
 22 90  1  0  0  0  0
 23 29  2  0  0  0  0
 23 31  1  0  0  0  0
 24 30  2  0  0  0  0
 24 32  1  0  0  0  0
 25 27  1  0  0  0  0
 25 91  1  0  0  0  0
 25 92  1  0  0  0  0
 26 28  1  0  0  0  0
 26 93  1  0  0  0  0
 26 94  1  0  0  0  0
 27 35  1  0  0  0  0
 27 95  1  0  0  0  0
 27 96  1  0  0  0  0
 28 36  1  0  0  0  0
 28 97  1  0  0  0  0
 28 98  1  0  0  0  0
 29 39  1  0  0  0  0
 29 99  1  0  0  0  0
 30 40  1  0  0  0  0
 30100  1  0  0  0  0
 31 41  2  0  0  0  0
 31101  1  0  0  0  0
 32 42  2  0  0  0  0
 32102  1  0  0  0  0
 33 37  1  0  0  0  0
 34 38  1  0  0  0  0
 35 49  1  0  0  0  0
 35103  1  0  0  0  0
 35104  1  0  0  0  0
 36 50  1  0  0  0  0
 36105  1  0  0  0  0
 36106  1  0  0  0  0
 37 43  1  0  0  0  0
 37107  1  0  0  0  0
 37108  1  0  0  0  0
 38 44  1  0  0  0  0
 38109  1  0  0  0  0
 38110  1  0  0  0  0
 39 45  2  0  0  0  0
 39111  1  0  0  0  0
 40 46  2  0  0  0  0
 40112  1  0  0  0  0
 41 45  1  0  0  0  0
 41113  1  0  0  0  0
 42 46  1  0  0  0  0
 42114  1  0  0  0  0
 43 47  1  0  0  0  0
 43115  1  0  0  0  0
 43116  1  0  0  0  0
 44 48  1  0  0  0  0
 44117  1  0  0  0  0
 44118  1  0  0  0  0
 47 51  1  0  0  0  0
 47119  1  0  0  0  0
 47120  1  0  0  0  0
 48 52  1  0  0  0  0
 48121  1  0  0  0  0
 48122  1  0  0  0  0
 49 59  1  0  0  0  0
 50 60  1  0  0  0  0
 51 53  1  0  0  0  0
 51123  1  0  0  0  0
 51124  1  0  0  0  0
 52 54  1  0  0  0  0
 52125  1  0  0  0  0
 52126  1  0  0  0  0
 53 55  1  0  0  0  0
 53127  1  0  0  0  0
 53128  1  0  0  0  0
 54 56  1  0  0  0  0
 54129  1  0  0  0  0
 54130  1  0  0  0  0
 55 57  1  0  0  0  0
 55131  1  0  0  0  0
 55132  1  0  0  0  0
 56 58  1  0  0  0  0
 56133  1  0  0  0  0
 56134  1  0  0  0  0
 57 61  1  0  0  0  0
 57135  1  0  0  0  0
 57136  1  0  0  0  0
 58 62  1  0  0  0  0
 58137  1  0  0  0  0
 58138  1  0  0  0  0
 59 65  2  0  0  0  0
 59 67  1  0  0  0  0
 60 66  2  0  0  0  0
 60 68  1  0  0  0  0
 61 63  1  0  0  0  0
 61139  1  0  0  0  0
 61140  1  0  0  0  0
 62 64  1  0  0  0  0
 62141  1  0  0  0  0
 62142  1  0  0  0  0
 63 64  1  0  0  0  0
 63143  1  0  0  0  0
 63144  1  0  0  0  0
 64145  1  0  0  0  0
 64146  1  0  0  0  0
 65 69  1  0  0  0  0
 65147  1  0  0  0  0
 66 70  1  0  0  0  0
 66148  1  0  0  0  0
 67 71  2  0  0  0  0
 67149  1  0  0  0  0
 68 72  2  0  0  0  0
 68150  1  0  0  0  0
 69 73  2  0  0  0  0
 69151  1  0  0  0  0
 70 74  2  0  0  0  0
 70152  1  0  0  0  0
 71 73  1  0  0  0  0
 71153  1  0  0  0  0
 72 74  1  0  0  0  0
 72154  1  0  0  0  0
M  END
> <PUBCHEM_COMPOUND_CID>
118709170

> <PUBCHEM_COMPOUND_CANONICALIZED>
1

> <PUBCHEM_CACTVS_COMPLEXITY>
1480

> <PUBCHEM_CACTVS_HBOND_ACCEPTOR>
10

> <PUBCHEM_CACTVS_HBOND_DONOR>
0

> <PUBCHEM_CACTVS_ROTATABLE_BOND>
35

> <PUBCHEM_CACTVS_SUBSKEYS>
AAADcfB/OYAGAAAAAAAAAAAAAAAAAAAAAAA8eMGCAAAAAAABVAAAHwIAAAAADEbBmCwwCIMABACIAqDSCAACAAAkBQAIiAEICsgIJjKBtxiGMQAmwAGIqYecyOCOhAAAAAAAAAAIAAAAAAAAAAAAAAAAAA==

> <PUBCHEM_IUPAC_OPENEYE_NAME>
bis[4-(4-chlorophenyl)-1-[4-(4-fluorophenyl)-4-oxo-butyl]-4-piperidyl] icosanedioate

> <PUBCHEM_IUPAC_CAS_NAME>
eicosanedioic acid bis[4-(4-chlorophenyl)-1-[4-(4-fluorophenyl)-4-oxobutyl]-4-piperidinyl] ester

> <PUBCHEM_IUPAC_NAME_MARKUP>
bis[4-(4-chlorophenyl)-1-[4-(4-fluorophenyl)-4-oxobutyl]piperidin-4-yl] icosanedioate

> <PUBCHEM_IUPAC_NAME>
bis[4-(4-chlorophenyl)-1-[4-(4-fluorophenyl)-4-oxobutyl]piperidin-4-yl] icosanedioate

> <PUBCHEM_IUPAC_SYSTEMATIC_NAME>
bis[4-(4-chlorophenyl)-1-[4-(4-fluorophenyl)-4-oxidanylidene-butyl]piperidin-4-yl] icosanedioate

> <PUBCHEM_IUPAC_TRADITIONAL_NAME>
eicosanedioic acid bis[4-(4-chlorophenyl)-1-[4-(4-fluorophenyl)-4-keto-butyl]-4-piperidyl] ester

> <PUBCHEM_IUPAC_INCHI>
InChI=1S/C62H80Cl2F2N2O6/c63-53-31-27-51(28-32-53)61(39-45-67(46-40-61)43-17-19-57(69)49-23-35-55(65)36-24-49)73-59(71)21-15-13-11-9-7-5-3-1-2-4-6-8-10-12-14-16-22-60(72)74-62(52-29-33-54(64)34-30-52)41-47-68(48-42-62)44-18-20-58(70)50-25-37-56(66)38-26-50/h23-38H,1-22,39-48H2

> <PUBCHEM_IUPAC_INCHIKEY>
ZUOIZLRETXHGDT-UHFFFAOYSA-N

> <PUBCHEM_XLOGP3_AA>
16.7

> <PUBCHEM_EXACT_MASS>
1056.5361500

> <PUBCHEM_MOLECULAR_FORMULA>
C62H80Cl2F2N2O6

> <PUBCHEM_MOLECULAR_WEIGHT>
1058.2

> <PUBCHEM_OPENEYE_CAN_SMILES>
C1CN(CCC1(C2=CC=C(C=C2)Cl)OC(=O)CCCCCCCCCCCCCCCCCCC(=O)OC3(CCN(CC3)CCCC(=O)C4=CC=C(C=C4)F)C5=CC=C(C=C5)Cl)CCCC(=O)C6=CC=C(C=C6)F

> <PUBCHEM_OPENEYE_ISO_SMILES>
C1CN(CCC1(C2=CC=C(C=C2)Cl)OC(=O)CCCCCCCCCCCCCCCCCCC(=O)OC3(CCN(CC3)CCCC(=O)C4=CC=C(C=C4)F)C5=CC=C(C=C5)Cl)CCCC(=O)C6=CC=C(C=C6)F

> <PUBCHEM_CACTVS_TPSA>
93.2

> <PUBCHEM_MONOISOTOPIC_WEIGHT>
1056.5361500

> <PUBCHEM_TOTAL_CHARGE>
0

> <PUBCHEM_HEAVY_ATOM_COUNT>
74

> <PUBCHEM_ATOM_DEF_STEREO_COUNT>
0

> <PUBCHEM_ATOM_UDEF_STEREO_COUNT>
0

> <PUBCHEM_BOND_DEF_STEREO_COUNT>
0

> <PUBCHEM_BOND_UDEF_STEREO_COUNT>
0

> <PUBCHEM_ISOTOPIC_ATOM_COUNT>
0

> <PUBCHEM_COMPONENT_COUNT>
1

> <PUBCHEM_CACTVS_TAUTO_COUNT>
-1

> <PUBCHEM_COORDINATE_TYPE>
1
5
255

> <PUBCHEM_BONDANNOTATIONS>
23  29  8
23  31  8
24  30  8
24  32  8
29  39  8
30  40  8
31  41  8
32  42  8
39  45  8
40  46  8
41  45  8
42  46  8
59  65  8
59  67  8
60  66  8
60  68  8
65  69  8
66  70  8
67  71  8
68  72  8
69  73  8
70  74  8
71  73  8
72  74  8

$$$$
