44336100
  -OEChem-09292322152D

 60 64  0     1  0  0  0  0  0999 V2000
    8.8575    4.9118    0.0000 Cl  0  0  0  0  0  0  0  0  0  0  0  0
    3.6613   -1.0882    0.0000 O   0  0  0  0  0  0  0  0  0  0  0  0
    4.5274   -2.5882    0.0000 N   0  0  0  0  0  0  0  0  0  0  0  0
    5.3934   -0.0882    0.0000 N   0  0  0  0  0  0  0  0  0  0  0  0
    5.3934    1.9118    0.0000 N   0  0  0  0  0  0  0  0  0  0  0  0
    5.3364   -3.1760    0.0000 C   0  0  1  0  0  0  0  0  0  0  0  0
    5.0274   -4.1270    0.0000 C   0  0  2  0  0  0  0  0  0  0  0  0
    6.3518   -2.9438    0.0000 C   0  0  0  0  0  0  0  0  0  0  0  0
    5.7123   -4.9118    0.0000 C   0  0  0  0  0  0  0  0  0  0  0  0
    4.0274   -4.1270    0.0000 C   0  0  0  0  0  0  0  0  0  0  0  0
    7.0547   -3.7124    0.0000 C   0  0  0  0  0  0  0  0  0  0  0  0
    6.7328   -4.7031    0.0000 C   0  0  0  0  0  0  0  0  0  0  0  0
    3.7183   -3.1760    0.0000 C   0  0  0  0  0  0  0  0  0  0  0  0
    4.5274   -1.5882    0.0000 C   0  0  0  0  0  0  0  0  0  0  0  0
    3.3424   -4.9118    0.0000 C   0  0  0  0  0  0  0  0  0  0  0  0
    5.3934   -1.0882    0.0000 C   0  0  0  0  0  0  0  0  0  0  0  0
    2.7029   -2.9438    0.0000 C   0  0  0  0  0  0  0  0  0  0  0  0
    6.2594    0.4118    0.0000 C   0  0  0  0  0  0  0  0  0  0  0  0
    4.5274    0.4118    0.0000 C   0  0  0  0  0  0  0  0  0  0  0  0
    2.3219   -4.7031    0.0000 C   0  0  0  0  0  0  0  0  0  0  0  0
    2.0000   -3.7124    0.0000 C   0  0  0  0  0  0  0  0  0  0  0  0
    6.2594    1.4118    0.0000 C   0  0  0  0  0  0  0  0  0  0  0  0
    4.5274    1.4118    0.0000 C   0  0  0  0  0  0  0  0  0  0  0  0
    5.3934    2.9118    0.0000 C   0  0  0  0  0  0  0  0  0  0  0  0
    6.2594    3.4118    0.0000 C   0  0  0  0  0  0  0  0  0  0  0  0
    7.1254    2.9118    0.0000 C   0  0  0  0  0  0  0  0  0  0  0  0
    6.2594    4.4118    0.0000 C   0  0  0  0  0  0  0  0  0  0  0  0
    7.9915    3.4118    0.0000 C   0  0  0  0  0  0  0  0  0  0  0  0
    7.1254    4.9118    0.0000 C   0  0  0  0  0  0  0  0  0  0  0  0
    7.9915    4.4118    0.0000 C   0  0  0  0  0  0  0  0  0  0  0  0
    5.5067   -2.3432    0.0000 H   0  0  0  0  0  0  0  0  0  0  0  0
    4.6757   -4.9009    0.0000 H   0  0  0  0  0  0  0  0  0  0  0  0
    6.8742   -2.6098    0.0000 H   0  0  0  0  0  0  0  0  0  0  0  0
    6.1122   -2.3719    0.0000 H   0  0  0  0  0  0  0  0  0  0  0  0
    5.1824   -5.2336    0.0000 H   0  0  0  0  0  0  0  0  0  0  0  0
    5.9387   -5.4890    0.0000 H   0  0  0  0  0  0  0  0  0  0  0  0
    7.6029   -4.0021    0.0000 H   0  0  0  0  0  0  0  0  0  0  0  0
    7.4339   -3.2219    0.0000 H   0  0  0  0  0  0  0  0  0  0  0  0
    6.7513   -5.3228    0.0000 H   0  0  0  0  0  0  0  0  0  0  0  0
    7.3466   -4.7909    0.0000 H   0  0  0  0  0  0  0  0  0  0  0  0
    3.5408   -5.4992    0.0000 H   0  0  0  0  0  0  0  0  0  0  0  0
    5.6054   -1.6708    0.0000 H   0  0  0  0  0  0  0  0  0  0  0  0
    6.0040   -0.9805    0.0000 H   0  0  0  0  0  0  0  0  0  0  0  0
    2.5182   -2.3519    0.0000 H   0  0  0  0  0  0  0  0  0  0  0  0
    6.4715   -0.1708    0.0000 H   0  0  0  0  0  0  0  0  0  0  0  0
    6.8700    0.5195    0.0000 H   0  0  0  0  0  0  0  0  0  0  0  0
    3.9168    0.5195    0.0000 H   0  0  0  0  0  0  0  0  0  0  0  0
    4.3153   -0.1708    0.0000 H   0  0  0  0  0  0  0  0  0  0  0  0
    1.9088   -5.1654    0.0000 H   0  0  0  0  0  0  0  0  0  0  0  0
    1.3940   -3.5812    0.0000 H   0  0  0  0  0  0  0  0  0  0  0  0
    6.8700    1.3041    0.0000 H   0  0  0  0  0  0  0  0  0  0  0  0
    6.4715    1.9944    0.0000 H   0  0  0  0  0  0  0  0  0  0  0  0
    4.3153    1.9944    0.0000 H   0  0  0  0  0  0  0  0  0  0  0  0
    3.9168    1.3041    0.0000 H   0  0  0  0  0  0  0  0  0  0  0  0
    5.1813    3.4944    0.0000 H   0  0  0  0  0  0  0  0  0  0  0  0
    4.7828    2.8041    0.0000 H   0  0  0  0  0  0  0  0  0  0  0  0
    7.1254    2.2918    0.0000 H   0  0  0  0  0  0  0  0  0  0  0  0
    5.7225    4.7218    0.0000 H   0  0  0  0  0  0  0  0  0  0  0  0
    8.5284    3.1018    0.0000 H   0  0  0  0  0  0  0  0  0  0  0  0
    7.1254    5.5318    0.0000 H   0  0  0  0  0  0  0  0  0  0  0  0
  1 30  1  0  0  0  0
  2 14  2  0  0  0  0
  3  6  1  0  0  0  0
  3 13  1  0  0  0  0
  3 14  1  0  0  0  0
  4 16  1  0  0  0  0
  4 18  1  0  0  0  0
  4 19  1  0  0  0  0
  5 22  1  0  0  0  0
  5 23  1  0  0  0  0
  5 24  1  0  0  0  0
  6  7  1  0  0  0  0
  6  8  1  0  0  0  0
  6 31  1  1  0  0  0
  7  9  1  0  0  0  0
  7 10  1  0  0  0  0
  7 32  1  1  0  0  0
  8 11  1  0  0  0  0
  8 33  1  0  0  0  0
  8 34  1  0  0  0  0
  9 12  1  0  0  0  0
  9 35  1  0  0  0  0
  9 36  1  0  0  0  0
 10 13  1  0  0  0  0
 10 15  2  0  0  0  0
 11 12  1  0  0  0  0
 11 37  1  0  0  0  0
 11 38  1  0  0  0  0
 12 39  1  0  0  0  0
 12 40  1  0  0  0  0
 13 17  2  0  0  0  0
 14 16  1  0  0  0  0
 15 20  1  0  0  0  0
 15 41  1  0  0  0  0
 16 42  1  0  0  0  0
 16 43  1  0  0  0  0
 17 21  1  0  0  0  0
 17 44  1  0  0  0  0
 18 22  1  0  0  0  0
 18 45  1  0  0  0  0
 18 46  1  0  0  0  0
 19 23  1  0  0  0  0
 19 47  1  0  0  0  0
 19 48  1  0  0  0  0
 20 21  2  0  0  0  0
 20 49  1  0  0  0  0
 21 50  1  0  0  0  0
 22 51  1  0  0  0  0
 22 52  1  0  0  0  0
 23 53  1  0  0  0  0
 23 54  1  0  0  0  0
 24 25  1  0  0  0  0
 24 55  1  0  0  0  0
 24 56  1  0  0  0  0
 25 26  2  0  0  0  0
 25 27  1  0  0  0  0
 26 28  1  0  0  0  0
 26 57  1  0  0  0  0
 27 29  2  0  0  0  0
 27 58  1  0  0  0  0
 28 30  2  0  0  0  0
 28 59  1  0  0  0  0
 29 30  1  0  0  0  0
 29 60  1  0  0  0  0
M  END
> <PUBCHEM_COMPOUND_CID>
44336100

> <PUBCHEM_COMPOUND_CANONICALIZED>
1

> <PUBCHEM_CACTVS_COMPLEXITY>
585

> <PUBCHEM_CACTVS_HBOND_ACCEPTOR>
3

> <PUBCHEM_CACTVS_HBOND_DONOR>
0

> <PUBCHEM_CACTVS_ROTATABLE_BOND>
4

> <PUBCHEM_CACTVS_SUBSKEYS>
AAADceB7IAAEAAAAAAAAAAAAAAAAAWAAAAA8YMEAAAAAAFgBQAAAHgIAAAAADSrBmCQwwIMAAACIAiVSUACCAAAhBwAIiACIZogIYCLBk7GUIAhghgDIyAcQgMAOhAAAAAACAAAIAAAAAAQAAAAAAAAAAA==

> <PUBCHEM_IUPAC_OPENEYE_NAME>
1-[(4aR,9aR)-1,2,3,4,4a,9a-hexahydrocarbazol-9-yl]-2-[4-[(4-chlorophenyl)methyl]piperazin-1-yl]ethanone

> <PUBCHEM_IUPAC_CAS_NAME>
1-[(4aR,9aR)-1,2,3,4,4a,9a-hexahydrocarbazol-9-yl]-2-[4-[(4-chlorophenyl)methyl]-1-piperazinyl]ethanone

> <PUBCHEM_IUPAC_NAME_MARKUP>
1-[(4<I>a</I><I>R</I>,9<I>a</I><I>R</I>)-1,2,3,4,4<I>a</I>,9<I>a</I>-hexahydrocarbazol-9-yl]-2-[4-[(4-chlorophenyl)methyl]piperazin-1-yl]ethanone

> <PUBCHEM_IUPAC_NAME>
1-[(4aR,9aR)-1,2,3,4,4a,9a-hexahydrocarbazol-9-yl]-2-[4-[(4-chlorophenyl)methyl]piperazin-1-yl]ethanone

> <PUBCHEM_IUPAC_SYSTEMATIC_NAME>
1-[(4aR,9aR)-1,2,3,4,4a,9a-hexahydrocarbazol-9-yl]-2-[4-[(4-chlorophenyl)methyl]piperazin-1-yl]ethanone

> <PUBCHEM_IUPAC_TRADITIONAL_NAME>
1-[(4aR,9aR)-1,2,3,4,4a,9a-hexahydrocarbazol-9-yl]-2-[4-(4-chlorobenzyl)piperazino]ethanone

> <PUBCHEM_IUPAC_INCHI>
InChI=1S/C25H30ClN3O/c26-20-11-9-19(10-12-20)17-27-13-15-28(16-14-27)18-25(30)29-23-7-3-1-5-21(23)22-6-2-4-8-24(22)29/h1,3,5,7,9-12,22,24H,2,4,6,8,13-18H2/t22-,24-/m1/s1

> <PUBCHEM_IUPAC_INCHIKEY>
FNYJYFAJIFQJRG-ISKFKSNPSA-N

> <PUBCHEM_XLOGP3_AA>
4.6

> <PUBCHEM_EXACT_MASS>
423.2077403

> <PUBCHEM_MOLECULAR_FORMULA>
C25H30ClN3O

> <PUBCHEM_MOLECULAR_WEIGHT>
424.0

> <PUBCHEM_OPENEYE_CAN_SMILES>
C1CCC2C(C1)C3=CC=CC=C3N2C(=O)CN4CCN(CC4)CC5=CC=C(C=C5)Cl

> <PUBCHEM_OPENEYE_ISO_SMILES>
C1CC[C@@H]2[C@H](C1)C3=CC=CC=C3N2C(=O)CN4CCN(CC4)CC5=CC=C(C=C5)Cl

> <PUBCHEM_CACTVS_TPSA>
26.8

> <PUBCHEM_MONOISOTOPIC_WEIGHT>
423.2077403

> <PUBCHEM_TOTAL_CHARGE>
0

> <PUBCHEM_HEAVY_ATOM_COUNT>
30

> <PUBCHEM_ATOM_DEF_STEREO_COUNT>
2

> <PUBCHEM_ATOM_UDEF_STEREO_COUNT>
0

> <PUBCHEM_BOND_DEF_STEREO_COUNT>
0

> <PUBCHEM_BOND_UDEF_STEREO_COUNT>
0

> <PUBCHEM_ISOTOPIC_ATOM_COUNT>
0

> <PUBCHEM_COMPONENT_COUNT>
1

> <PUBCHEM_CACTVS_TAUTO_COUNT>
-1

> <PUBCHEM_COORDINATE_TYPE>
1
5
255

> <PUBCHEM_BONDANNOTATIONS>
10  13  8
10  15  8
13  17  8
15  20  8
17  21  8
20  21  8
25  26  8
25  27  8
26  28  8
27  29  8
28  30  8
29  30  8
6  31  5
7  32  5

$$$$
