137659990
  -OEChem-09292322002D

 64 67  0     1  0  0  0  0  0999 V2000
   15.9186   -2.6092    0.0000 O   0  0  0  0  0  0  0  0  0  0  0  0
    8.1080   -0.0746    0.0000 O   0  0  0  0  0  0  0  0  0  0  0  0
    2.6067   -0.2918    0.0000 O   0  0  0  0  0  0  0  0  0  0  0  0
   12.4381    0.4254    0.0000 N   0  0  3  0  0  0  0  0  0  0  0  0
    5.5099    1.4254    0.0000 N   0  0  0  0  0  0  0  0  0  0  0  0
    4.5637    1.7301    0.0000 N   0  0  0  0  0  0  0  0  0  0  0  0
    3.2745   -1.0361    0.0000 N   0  0  0  0  0  0  0  0  0  0  0  0
   13.3041   -0.0746    0.0000 C   0  0  1  0  0  0  0  0  0  0  0  0
   13.3041   -1.0746    0.0000 C   0  0  0  0  0  0  0  0  0  0  0  0
   14.1702    0.4254    0.0000 C   0  0  0  0  0  0  0  0  0  0  0  0
   14.1702   -1.5746    0.0000 C   0  0  0  0  0  0  0  0  0  0  0  0
   15.0362   -0.0746    0.0000 C   0  0  0  0  0  0  0  0  0  0  0  0
   15.0362   -1.0746    0.0000 C   0  0  0  0  0  0  0  0  0  0  0  0
   11.5721   -0.0746    0.0000 C   0  0  0  0  0  0  0  0  0  0  0  0
   12.4381    1.4254    0.0000 C   0  0  0  0  0  0  0  0  0  0  0  0
   10.7061    0.4254    0.0000 C   0  0  0  0  0  0  0  0  0  0  0  0
   11.5721    1.9254    0.0000 C   0  0  0  0  0  0  0  0  0  0  0  0
   15.9301    0.4601    0.0000 C   0  0  0  0  0  0  0  0  0  0  0  0
   15.9301   -1.6093    0.0000 C   0  0  0  0  0  0  0  0  0  0  0  0
    9.8400   -0.0746    0.0000 C   0  0  0  0  0  0  0  0  0  0  0  0
   16.8362   -0.0538    0.0000 C   0  0  0  0  0  0  0  0  0  0  0  0
   16.8362   -1.0954    0.0000 C   0  0  0  0  0  0  0  0  0  0  0  0
   11.5721    2.9254    0.0000 C   0  0  0  0  0  0  0  0  0  0  0  0
    8.9740    0.4254    0.0000 C   0  0  0  0  0  0  0  0  0  0  0  0
    7.2420    0.4254    0.0000 C   0  0  0  0  0  0  0  0  0  0  0  0
    6.3759   -0.0746    0.0000 C   0  0  0  0  0  0  0  0  0  0  0  0
    7.2420    1.4254    0.0000 C   0  0  0  0  0  0  0  0  0  0  0  0
    5.5099    0.4254    0.0000 C   0  0  0  0  0  0  0  0  0  0  0  0
    6.3759    1.9254    0.0000 C   0  0  0  0  0  0  0  0  0  0  0  0
    4.5637    0.1207    0.0000 C   0  0  0  0  0  0  0  0  0  0  0  0
    3.9801    0.9254    0.0000 C   0  0  0  0  0  0  0  0  0  0  0  0
    4.2530   -0.8299    0.0000 C   0  0  0  0  0  0  0  0  0  0  0  0
   13.3041    0.5454    0.0000 H   0  0  0  0  0  0  0  0  0  0  0  0
   12.6936   -0.9669    0.0000 H   0  0  0  0  0  0  0  0  0  0  0  0
   13.0921   -1.6572    0.0000 H   0  0  0  0  0  0  0  0  0  0  0  0
   14.5687    0.9003    0.0000 H   0  0  0  0  0  0  0  0  0  0  0  0
   13.7716    0.9003    0.0000 H   0  0  0  0  0  0  0  0  0  0  0  0
   13.7716   -2.0496    0.0000 H   0  0  0  0  0  0  0  0  0  0  0  0
   14.5687   -2.0496    0.0000 H   0  0  0  0  0  0  0  0  0  0  0  0
   11.1736   -0.5496    0.0000 H   0  0  0  0  0  0  0  0  0  0  0  0
   11.9706   -0.5496    0.0000 H   0  0  0  0  0  0  0  0  0  0  0  0
   13.0487    1.3177    0.0000 H   0  0  0  0  0  0  0  0  0  0  0  0
   12.6502    2.0080    0.0000 H   0  0  0  0  0  0  0  0  0  0  0  0
   11.1046    0.9003    0.0000 H   0  0  0  0  0  0  0  0  0  0  0  0
   10.3075    0.9003    0.0000 H   0  0  0  0  0  0  0  0  0  0  0  0
   10.9615    2.0330    0.0000 H   0  0  0  0  0  0  0  0  0  0  0  0
   11.3600    1.3428    0.0000 H   0  0  0  0  0  0  0  0  0  0  0  0
   15.9230    1.0800    0.0000 H   0  0  0  0  0  0  0  0  0  0  0  0
    9.4415   -0.5496    0.0000 H   0  0  0  0  0  0  0  0  0  0  0  0
   10.2386   -0.5496    0.0000 H   0  0  0  0  0  0  0  0  0  0  0  0
   17.3719    0.2583    0.0000 H   0  0  0  0  0  0  0  0  0  0  0  0
   17.3719   -1.4075    0.0000 H   0  0  0  0  0  0  0  0  0  0  0  0
   12.1921    2.9254    0.0000 H   0  0  0  0  0  0  0  0  0  0  0  0
   11.5721    3.5454    0.0000 H   0  0  0  0  0  0  0  0  0  0  0  0
   10.9521    2.9254    0.0000 H   0  0  0  0  0  0  0  0  0  0  0  0
    9.3725    0.9003    0.0000 H   0  0  0  0  0  0  0  0  0  0  0  0
    8.5755    0.9003    0.0000 H   0  0  0  0  0  0  0  0  0  0  0  0
   16.4519   -2.9254    0.0000 H   0  0  0  0  0  0  0  0  0  0  0  0
    6.3759   -0.6946    0.0000 H   0  0  0  0  0  0  0  0  0  0  0  0
    7.7789    1.7354    0.0000 H   0  0  0  0  0  0  0  0  0  0  0  0
    6.3759    2.5454    0.0000 H   0  0  0  0  0  0  0  0  0  0  0  0
    3.3601    0.9254    0.0000 H   0  0  0  0  0  0  0  0  0  0  0  0
    4.6671   -1.2913    0.0000 H   0  0  0  0  0  0  0  0  0  0  0  0
    2.0000   -0.4196    0.0000 H   0  0  0  0  0  0  0  0  0  0  0  0
  1 19  1  0  0  0  0
  1 58  1  0  0  0  0
  2 24  1  0  0  0  0
  2 25  1  0  0  0  0
  3  7  1  0  0  0  0
  3 64  1  0  0  0  0
  8  4  1  6  0  0  0
  4 14  1  0  0  0  0
  4 15  1  0  0  0  0
  5  6  1  0  0  0  0
  5 28  1  0  0  0  0
  5 29  1  0  0  0  0
  6 31  2  0  0  0  0
  7 32  2  0  0  0  0
  8  9  1  0  0  0  0
  8 10  1  0  0  0  0
  8 33  1  0  0  0  0
  9 11  1  0  0  0  0
  9 34  1  0  0  0  0
  9 35  1  0  0  0  0
 10 12  1  0  0  0  0
 10 36  1  0  0  0  0
 10 37  1  0  0  0  0
 11 13  1  0  0  0  0
 11 38  1  0  0  0  0
 11 39  1  0  0  0  0
 12 13  2  0  0  0  0
 12 18  1  0  0  0  0
 13 19  1  0  0  0  0
 14 16  1  0  0  0  0
 14 40  1  0  0  0  0
 14 41  1  0  0  0  0
 15 17  1  0  0  0  0
 15 42  1  0  0  0  0
 15 43  1  0  0  0  0
 16 20  1  0  0  0  0
 16 44  1  0  0  0  0
 16 45  1  0  0  0  0
 17 23  1  0  0  0  0
 17 46  1  0  0  0  0
 17 47  1  0  0  0  0
 18 21  2  0  0  0  0
 18 48  1  0  0  0  0
 19 22  2  0  0  0  0
 20 24  1  0  0  0  0
 20 49  1  0  0  0  0
 20 50  1  0  0  0  0
 21 22  1  0  0  0  0
 21 51  1  0  0  0  0
 22 52  1  0  0  0  0
 23 53  1  0  0  0  0
 23 54  1  0  0  0  0
 23 55  1  0  0  0  0
 24 56  1  0  0  0  0
 24 57  1  0  0  0  0
 25 26  2  0  0  0  0
 25 27  1  0  0  0  0
 26 28  1  0  0  0  0
 26 59  1  0  0  0  0
 27 29  2  0  0  0  0
 27 60  1  0  0  0  0
 28 30  2  0  0  0  0
 29 61  1  0  0  0  0
 30 31  1  0  0  0  0
 30 32  1  0  0  0  0
 31 62  1  0  0  0  0
 32 63  1  0  0  0  0
M  END
> <PUBCHEM_COMPOUND_CID>
137659990

> <PUBCHEM_COMPOUND_CANONICALIZED>
1

> <PUBCHEM_CACTVS_COMPLEXITY>
592

> <PUBCHEM_CACTVS_HBOND_ACCEPTOR>
6

> <PUBCHEM_CACTVS_HBOND_DONOR>
2

> <PUBCHEM_CACTVS_ROTATABLE_BOND>
10

> <PUBCHEM_CACTVS_SUBSKEYS>
AAADcfB7sAAAAAAAAAAAAAAAAAAAAWAAAAA8YIAAAAAAAFjB8AAAHgAMCAAADCzhngY+xrMYFgCiAzRnRACSjCAxoiAY2CA+bJgMJuLG8duG/CjmyBnI+Aew0PMOgAABAAAYAAAQAAKAADAAAAAAAAAAAA==

> <PUBCHEM_IUPAC_OPENEYE_NAME>
(3Z)-5-[4-[[(2S)-5-hydroxytetralin-2-yl]-propyl-amino]butoxy]pyrazolo[1,5-a]pyridine-3-carbaldehyde oxime

> <PUBCHEM_IUPAC_CAS_NAME>
(3Z)-5-[4-[[(2S)-5-hydroxy-1,2,3,4-tetrahydronaphthalen-2-yl]-propylamino]butoxy]-3-pyrazolo[1,5-a]pyridinecarboxaldehyde oxime

> <PUBCHEM_IUPAC_NAME_MARKUP>
(6<I>S</I>)-6-[4-[3-[(<I>Z</I>)-hydroxyiminomethyl]pyrazolo[1,5-a]pyridin-5-yl]oxybutyl-propylamino]-5,6,7,8-tetrahydronaphthalen-1-ol

> <PUBCHEM_IUPAC_NAME>
(6S)-6-[4-[3-[(Z)-hydroxyiminomethyl]pyrazolo[1,5-a]pyridin-5-yl]oxybutyl-propylamino]-5,6,7,8-tetrahydronaphthalen-1-ol

> <PUBCHEM_IUPAC_SYSTEMATIC_NAME>
(6S)-6-[4-[3-[(Z)-hydroxyiminomethyl]pyrazolo[1,5-a]pyridin-5-yl]oxybutyl-propyl-amino]-5,6,7,8-tetrahydronaphthalen-1-ol

> <PUBCHEM_IUPAC_TRADITIONAL_NAME>
(3Z)-5-[4-[[(2S)-5-hydroxytetralin-2-yl]-propyl-amino]butoxy]pyrazolo[1,5-a]pyridine-3-carbaldehyde oxime

> <PUBCHEM_IUPAC_INCHI>
InChI=1S/C25H32N4O3/c1-2-11-28(21-8-9-23-19(15-21)6-5-7-25(23)30)12-3-4-14-32-22-10-13-29-24(16-22)20(17-26-29)18-27-31/h5-7,10,13,16-18,21,30-31H,2-4,8-9,11-12,14-15H2,1H3/b27-18-/t21-/m0/s1

> <PUBCHEM_IUPAC_INCHIKEY>
MWAPGIGSNBMUAD-CCPXZDFDSA-N

> <PUBCHEM_XLOGP3_AA>
4.5

> <PUBCHEM_EXACT_MASS>
436.24744090

> <PUBCHEM_MOLECULAR_FORMULA>
C25H32N4O3

> <PUBCHEM_MOLECULAR_WEIGHT>
436.5

> <PUBCHEM_OPENEYE_CAN_SMILES>
CCCN(CCCCOC1=CC2=C(C=NN2C=C1)C=NO)C3CCC4=C(C3)C=CC=C4O

> <PUBCHEM_OPENEYE_ISO_SMILES>
CCCN(CCCCOC1=CC2=C(C=NN2C=C1)/C=N\O)[C@H]3CCC4=C(C3)C=CC=C4O

> <PUBCHEM_CACTVS_TPSA>
82.6

> <PUBCHEM_MONOISOTOPIC_WEIGHT>
436.24744090

> <PUBCHEM_TOTAL_CHARGE>
0

> <PUBCHEM_HEAVY_ATOM_COUNT>
32

> <PUBCHEM_ATOM_DEF_STEREO_COUNT>
1

> <PUBCHEM_ATOM_UDEF_STEREO_COUNT>
0

> <PUBCHEM_BOND_DEF_STEREO_COUNT>
1

> <PUBCHEM_BOND_UDEF_STEREO_COUNT>
0

> <PUBCHEM_ISOTOPIC_ATOM_COUNT>
0

> <PUBCHEM_COMPONENT_COUNT>
1

> <PUBCHEM_CACTVS_TAUTO_COUNT>
-1

> <PUBCHEM_COORDINATE_TYPE>
1
5
255

> <PUBCHEM_BONDANNOTATIONS>
12  13  8
12  18  8
13  19  8
18  21  8
19  22  8
21  22  8
25  26  8
25  27  8
26  28  8
27  29  8
28  30  8
30  31  8
8  4  6
5  28  8
5  29  8
5  6  8
6  31  8

$$$$
