125328
  -OEChem-09292322132D

 47 50  0     0  0  0  0  0  0999 V2000
    4.6660   -0.5173    0.0000 N   0  0  0  0  0  0  0  0  0  0  0  0
    4.6660    1.4827    0.0000 C   0  0  0  0  0  0  0  0  0  0  0  0
    3.8000    0.9827    0.0000 C   0  0  0  0  0  0  0  0  0  0  0  0
    5.5321    0.9827    0.0000 C   0  0  0  0  0  0  0  0  0  0  0  0
    5.5321    1.9827    0.0000 C   0  0  0  0  0  0  0  0  0  0  0  0
    3.8000    1.9827    0.0000 C   0  0  0  0  0  0  0  0  0  0  0  0
    3.8000   -0.0173    0.0000 C   0  0  0  0  0  0  0  0  0  0  0  0
    5.5321   -0.0173    0.0000 C   0  0  0  0  0  0  0  0  0  0  0  0
    5.5321    2.9827    0.0000 C   0  0  0  0  0  0  0  0  0  0  0  0
    3.8000    2.9827    0.0000 C   0  0  0  0  0  0  0  0  0  0  0  0
    4.6660    3.4827    0.0000 C   0  0  0  0  0  0  0  0  0  0  0  0
    2.9061    1.4480    0.0000 C   0  0  0  0  0  0  0  0  0  0  0  0
    4.6660   -1.5173    0.0000 C   0  0  0  0  0  0  0  0  0  0  0  0
    2.9061    3.5173    0.0000 C   0  0  0  0  0  0  0  0  0  0  0  0
    2.0000    1.9618    0.0000 C   0  0  0  0  0  0  0  0  0  0  0  0
    2.0000    3.0035    0.0000 C   0  0  0  0  0  0  0  0  0  0  0  0
    5.5321   -2.0173    0.0000 C   0  0  0  0  0  0  0  0  0  0  0  0
    6.3981   -1.5173    0.0000 C   0  0  0  0  0  0  0  0  0  0  0  0
    5.5321   -3.0173    0.0000 C   0  0  0  0  0  0  0  0  0  0  0  0
    7.2641   -2.0173    0.0000 C   0  0  0  0  0  0  0  0  0  0  0  0
    6.3981   -3.5173    0.0000 C   0  0  0  0  0  0  0  0  0  0  0  0
    7.2641   -3.0173    0.0000 C   0  0  0  0  0  0  0  0  0  0  0  0
    3.5880    1.5653    0.0000 H   0  0  0  0  0  0  0  0  0  0  0  0
    3.1894    0.8750    0.0000 H   0  0  0  0  0  0  0  0  0  0  0  0
    6.1426    0.8750    0.0000 H   0  0  0  0  0  0  0  0  0  0  0  0
    5.7441    1.5653    0.0000 H   0  0  0  0  0  0  0  0  0  0  0  0
    5.7441    1.4001    0.0000 H   0  0  0  0  0  0  0  0  0  0  0  0
    6.1426    2.0903    0.0000 H   0  0  0  0  0  0  0  0  0  0  0  0
    3.1894    0.0903    0.0000 H   0  0  0  0  0  0  0  0  0  0  0  0
    3.5880   -0.5999    0.0000 H   0  0  0  0  0  0  0  0  0  0  0  0
    5.7441   -0.5999    0.0000 H   0  0  0  0  0  0  0  0  0  0  0  0
    6.1426    0.0903    0.0000 H   0  0  0  0  0  0  0  0  0  0  0  0
    6.1426    2.8750    0.0000 H   0  0  0  0  0  0  0  0  0  0  0  0
    5.7441    3.5653    0.0000 H   0  0  0  0  0  0  0  0  0  0  0  0
    5.0646    3.9576    0.0000 H   0  0  0  0  0  0  0  0  0  0  0  0
    4.2675    3.9576    0.0000 H   0  0  0  0  0  0  0  0  0  0  0  0
    2.9132    0.8280    0.0000 H   0  0  0  0  0  0  0  0  0  0  0  0
    4.0555   -1.4097    0.0000 H   0  0  0  0  0  0  0  0  0  0  0  0
    4.4540   -2.0999    0.0000 H   0  0  0  0  0  0  0  0  0  0  0  0
    2.9132    4.1373    0.0000 H   0  0  0  0  0  0  0  0  0  0  0  0
    1.4643    1.6498    0.0000 H   0  0  0  0  0  0  0  0  0  0  0  0
    1.4643    3.3156    0.0000 H   0  0  0  0  0  0  0  0  0  0  0  0
    6.3981   -0.8973    0.0000 H   0  0  0  0  0  0  0  0  0  0  0  0
    4.9951   -3.3273    0.0000 H   0  0  0  0  0  0  0  0  0  0  0  0
    7.8010   -1.7073    0.0000 H   0  0  0  0  0  0  0  0  0  0  0  0
    6.3981   -4.1373    0.0000 H   0  0  0  0  0  0  0  0  0  0  0  0
    7.8010   -3.3273    0.0000 H   0  0  0  0  0  0  0  0  0  0  0  0
  1  7  1  0  0  0  0
  1  8  1  0  0  0  0
  1 13  1  0  0  0  0
  2  3  1  0  0  0  0
  2  4  1  0  0  0  0
  2  5  1  0  0  0  0
  2  6  1  0  0  0  0
  3  7  1  0  0  0  0
  3 23  1  0  0  0  0
  3 24  1  0  0  0  0
  4  8  1  0  0  0  0
  4 25  1  0  0  0  0
  4 26  1  0  0  0  0
  5  9  1  0  0  0  0
  5 27  1  0  0  0  0
  5 28  1  0  0  0  0
  6 10  1  0  0  0  0
  6 12  2  0  0  0  0
  7 29  1  0  0  0  0
  7 30  1  0  0  0  0
  8 31  1  0  0  0  0
  8 32  1  0  0  0  0
  9 11  1  0  0  0  0
  9 33  1  0  0  0  0
  9 34  1  0  0  0  0
 10 11  1  0  0  0  0
 10 14  2  0  0  0  0
 11 35  1  0  0  0  0
 11 36  1  0  0  0  0
 12 15  1  0  0  0  0
 12 37  1  0  0  0  0
 13 17  1  0  0  0  0
 13 38  1  0  0  0  0
 13 39  1  0  0  0  0
 14 16  1  0  0  0  0
 14 40  1  0  0  0  0
 15 16  2  0  0  0  0
 15 41  1  0  0  0  0
 16 42  1  0  0  0  0
 17 18  2  0  0  0  0
 17 19  1  0  0  0  0
 18 20  1  0  0  0  0
 18 43  1  0  0  0  0
 19 21  2  0  0  0  0
 19 44  1  0  0  0  0
 20 22  2  0  0  0  0
 20 45  1  0  0  0  0
 21 22  1  0  0  0  0
 21 46  1  0  0  0  0
 22 47  1  0  0  0  0
M  END
> <PUBCHEM_COMPOUND_CID>
125328

> <PUBCHEM_COMPOUND_CANONICALIZED>
1

> <PUBCHEM_CACTVS_COMPLEXITY>
349

> <PUBCHEM_CACTVS_HBOND_ACCEPTOR>
1

> <PUBCHEM_CACTVS_HBOND_DONOR>
0

> <PUBCHEM_CACTVS_ROTATABLE_BOND>
2

> <PUBCHEM_CACTVS_SUBSKEYS>
AAADceB6AAAAAAAAAAAAAAAAAAAAAAAAAAA8YMEAAAAAAADBQAAAHAAAAAAADgDBGAQwAIMAAACAAiBCAACCAAAgAAAIiAAIBIgIICKAkRGEIAhggACIiAcQgMAPgAAAAAAQAAAAAAQAACAAAAAAAAAAAA==

> <PUBCHEM_IUPAC_OPENEYE_NAME>
1-benzylspiro[piperidine-4,1'-tetralin]

> <PUBCHEM_IUPAC_CAS_NAME>
1'-(phenylmethyl)spiro[2,3-dihydro-1H-naphthalene-4,4'-piperidine]

> <PUBCHEM_IUPAC_NAME_MARKUP>
1&apos;-benzylspiro[2,3-dihydro-1<I>H</I>-naphthalene-4,4&apos;-piperidine]

> <PUBCHEM_IUPAC_NAME>
1'-benzylspiro[2,3-dihydro-1H-naphthalene-4,4'-piperidine]

> <PUBCHEM_IUPAC_SYSTEMATIC_NAME>
1'-(phenylmethyl)spiro[2,3-dihydro-1H-naphthalene-4,4'-piperidine]

> <PUBCHEM_IUPAC_TRADITIONAL_NAME>
1-benzylspiro[piperidine-4,1'-tetralin]

> <PUBCHEM_IUPAC_INCHI>
InChI=1S/C21H25N/c1-2-7-18(8-3-1)17-22-15-13-21(14-16-22)12-6-10-19-9-4-5-11-20(19)21/h1-5,7-9,11H,6,10,12-17H2

> <PUBCHEM_IUPAC_INCHIKEY>
MLDCBJPLHBPJET-UHFFFAOYSA-N

> <PUBCHEM_XLOGP3_AA>
5.1

> <PUBCHEM_EXACT_MASS>
291.198699802

> <PUBCHEM_MOLECULAR_FORMULA>
C21H25N

> <PUBCHEM_MOLECULAR_WEIGHT>
291.4

> <PUBCHEM_OPENEYE_CAN_SMILES>
C1CC2=CC=CC=C2C3(C1)CCN(CC3)CC4=CC=CC=C4

> <PUBCHEM_OPENEYE_ISO_SMILES>
C1CC2=CC=CC=C2C3(C1)CCN(CC3)CC4=CC=CC=C4

> <PUBCHEM_CACTVS_TPSA>
3.2

> <PUBCHEM_MONOISOTOPIC_WEIGHT>
291.198699802

> <PUBCHEM_TOTAL_CHARGE>
0

> <PUBCHEM_HEAVY_ATOM_COUNT>
22

> <PUBCHEM_ATOM_DEF_STEREO_COUNT>
0

> <PUBCHEM_ATOM_UDEF_STEREO_COUNT>
0

> <PUBCHEM_BOND_DEF_STEREO_COUNT>
0

> <PUBCHEM_BOND_UDEF_STEREO_COUNT>
0

> <PUBCHEM_ISOTOPIC_ATOM_COUNT>
0

> <PUBCHEM_COMPONENT_COUNT>
1

> <PUBCHEM_CACTVS_TAUTO_COUNT>
-1

> <PUBCHEM_COORDINATE_TYPE>
1
5
255

> <PUBCHEM_BONDANNOTATIONS>
10  14  8
12  15  8
14  16  8
15  16  8
17  18  8
17  19  8
18  20  8
19  21  8
20  22  8
21  22  8
6  10  8
6  12  8

$$$$
