24839550
  -OEChem-09292322362D

 38 39  0     0  0  0  0  0  0999 V2000
    6.2781    0.9335    0.0000 N   0  0  0  0  0  0  0  0  0  0  0  0
    4.6783   -2.7833    0.0000 N   0  0  0  0  0  0  0  0  0  0  0  0
    4.9889   -0.2233    0.0000 C   0  0  0  0  0  0  0  0  0  0  0  0
    5.9674   -0.0171    0.0000 C   0  0  0  0  0  0  0  0  0  0  0  0
    4.6783   -1.1738    0.0000 C   0  0  0  0  0  0  0  0  0  0  0  0
    3.7320   -1.4785    0.0000 C   0  0  0  0  0  0  0  0  0  0  0  0
    3.7320   -2.4785    0.0000 C   0  0  0  0  0  0  0  0  0  0  0  0
    5.2619   -1.9785    0.0000 C   0  0  0  0  0  0  0  0  0  0  0  0
    7.2566    1.1397    0.0000 C   0  0  0  0  0  0  0  0  0  0  0  0
    5.6103    1.6778    0.0000 C   0  0  0  0  0  0  0  0  0  0  0  0
    2.8660   -0.9785    0.0000 C   0  0  0  0  0  0  0  0  0  0  0  0
    2.8660   -2.9785    0.0000 C   0  0  0  0  0  0  0  0  0  0  0  0
    2.0000   -1.4785    0.0000 C   0  0  0  0  0  0  0  0  0  0  0  0
    2.0000   -2.4785    0.0000 C   0  0  0  0  0  0  0  0  0  0  0  0
    7.5673    2.0902    0.0000 C   0  0  0  0  0  0  0  0  0  0  0  0
    5.9209    2.6283    0.0000 C   0  0  0  0  0  0  0  0  0  0  0  0
    8.5458    2.2964    0.0000 C   0  0  0  0  0  0  0  0  0  0  0  0
    5.2531    3.3726    0.0000 C   0  0  0  0  0  0  0  0  0  0  0  0
    4.9684    0.3964    0.0000 H   0  0  0  0  0  0  0  0  0  0  0  0
    4.3751   -0.1359    0.0000 H   0  0  0  0  0  0  0  0  0  0  0  0
    5.9880   -0.6367    0.0000 H   0  0  0  0  0  0  0  0  0  0  0  0
    6.5812   -0.1044    0.0000 H   0  0  0  0  0  0  0  0  0  0  0  0
    5.8819   -1.9785    0.0000 H   0  0  0  0  0  0  0  0  0  0  0  0
    7.2772    0.5200    0.0000 H   0  0  0  0  0  0  0  0  0  0  0  0
    7.8704    1.0523    0.0000 H   0  0  0  0  0  0  0  0  0  0  0  0
    5.0633    1.9698    0.0000 H   0  0  0  0  0  0  0  0  0  0  0  0
    5.2277    1.1899    0.0000 H   0  0  0  0  0  0  0  0  0  0  0  0
    4.8709   -3.3726    0.0000 H   0  0  0  0  0  0  0  0  0  0  0  0
    2.8660   -0.3585    0.0000 H   0  0  0  0  0  0  0  0  0  0  0  0
    2.8660   -3.5985    0.0000 H   0  0  0  0  0  0  0  0  0  0  0  0
    1.4631   -1.1685    0.0000 H   0  0  0  0  0  0  0  0  0  0  0  0
    1.4631   -2.7885    0.0000 H   0  0  0  0  0  0  0  0  0  0  0  0
    7.1532    2.5517    0.0000 H   0  0  0  0  0  0  0  0  0  0  0  0
    6.5276    2.7561    0.0000 H   0  0  0  0  0  0  0  0  0  0  0  0
    8.9598    1.8350    0.0000 H   0  0  0  0  0  0  0  0  0  0  0  0
    8.7384    2.8857    0.0000 H   0  0  0  0  0  0  0  0  0  0  0  0
    5.4457    3.9619    0.0000 H   0  0  0  0  0  0  0  0  0  0  0  0
    4.6464    3.2447    0.0000 H   0  0  0  0  0  0  0  0  0  0  0  0
  1  4  1  0  0  0  0
  1  9  1  0  0  0  0
  1 10  1  0  0  0  0
  2  7  1  0  0  0  0
  2  8  1  0  0  0  0
  2 28  1  0  0  0  0
  3  4  1  0  0  0  0
  3  5  1  0  0  0  0
  3 19  1  0  0  0  0
  3 20  1  0  0  0  0
  4 21  1  0  0  0  0
  4 22  1  0  0  0  0
  5  6  1  0  0  0  0
  5  8  2  0  0  0  0
  6  7  1  0  0  0  0
  6 11  2  0  0  0  0
  7 12  2  0  0  0  0
  8 23  1  0  0  0  0
  9 15  1  0  0  0  0
  9 24  1  0  0  0  0
  9 25  1  0  0  0  0
 10 16  1  0  0  0  0
 10 26  1  0  0  0  0
 10 27  1  0  0  0  0
 11 13  1  0  0  0  0
 11 29  1  0  0  0  0
 12 14  1  0  0  0  0
 12 30  1  0  0  0  0
 13 14  2  0  0  0  0
 13 31  1  0  0  0  0
 14 32  1  0  0  0  0
 15 17  2  0  0  0  0
 15 33  1  0  0  0  0
 16 18  2  0  0  0  0
 16 34  1  0  0  0  0
 17 35  1  0  0  0  0
 17 36  1  0  0  0  0
 18 37  1  0  0  0  0
 18 38  1  0  0  0  0
M  END
> <PUBCHEM_COMPOUND_CID>
24839550

> <PUBCHEM_COMPOUND_CANONICALIZED>
1

> <PUBCHEM_CACTVS_COMPLEXITY>
264

> <PUBCHEM_CACTVS_HBOND_ACCEPTOR>
1

> <PUBCHEM_CACTVS_HBOND_DONOR>
1

> <PUBCHEM_CACTVS_ROTATABLE_BOND>
7

> <PUBCHEM_CACTVS_SUBSKEYS>
AAADceB7AAAAAAAAAAAAAAAAAAAAAWAAAAAwAAAAAAAAAFgB8AAAHAAQAAAADAjBHgQ8wPPJkACgAzRnRACCgCAxAiAI2aA4ZJgIIOLAkZGEIAhgkADIyAcQgMAOgAAAAAACAAAAAAAAAAQAAAAAAAAAAA==

> <PUBCHEM_IUPAC_OPENEYE_NAME>
N-allyl-N-[2-(1H-indol-3-yl)ethyl]prop-2-en-1-amine

> <PUBCHEM_IUPAC_CAS_NAME>
N-[2-(1H-indol-3-yl)ethyl]-N-prop-2-enyl-2-propen-1-amine

> <PUBCHEM_IUPAC_NAME_MARKUP>
<I>N</I>-[2-(1<I>H</I>-indol-3-yl)ethyl]-<I>N</I>-prop-2-enylprop-2-en-1-amine

> <PUBCHEM_IUPAC_NAME>
N-[2-(1H-indol-3-yl)ethyl]-N-prop-2-enylprop-2-en-1-amine

> <PUBCHEM_IUPAC_SYSTEMATIC_NAME>
N-[2-(1H-indol-3-yl)ethyl]-N-prop-2-enyl-prop-2-en-1-amine

> <PUBCHEM_IUPAC_TRADITIONAL_NAME>
diallyl-[2-(1H-indol-3-yl)ethyl]amine

> <PUBCHEM_IUPAC_INCHI>
InChI=1S/C16H20N2/c1-3-10-18(11-4-2)12-9-14-13-17-16-8-6-5-7-15(14)16/h3-8,13,17H,1-2,9-12H2

> <PUBCHEM_IUPAC_INCHIKEY>
LQEATNFJCMVKAC-UHFFFAOYSA-N

> <PUBCHEM_XLOGP3>
3.8

> <PUBCHEM_EXACT_MASS>
240.162648646

> <PUBCHEM_MOLECULAR_FORMULA>
C16H20N2

> <PUBCHEM_MOLECULAR_WEIGHT>
240.34

> <PUBCHEM_OPENEYE_CAN_SMILES>
C=CCN(CCC1=CNC2=CC=CC=C21)CC=C

> <PUBCHEM_OPENEYE_ISO_SMILES>
C=CCN(CCC1=CNC2=CC=CC=C21)CC=C

> <PUBCHEM_CACTVS_TPSA>
19

> <PUBCHEM_MONOISOTOPIC_WEIGHT>
240.162648646

> <PUBCHEM_TOTAL_CHARGE>
0

> <PUBCHEM_HEAVY_ATOM_COUNT>
18

> <PUBCHEM_ATOM_DEF_STEREO_COUNT>
0

> <PUBCHEM_ATOM_UDEF_STEREO_COUNT>
0

> <PUBCHEM_BOND_DEF_STEREO_COUNT>
0

> <PUBCHEM_BOND_UDEF_STEREO_COUNT>
0

> <PUBCHEM_ISOTOPIC_ATOM_COUNT>
0

> <PUBCHEM_COMPONENT_COUNT>
1

> <PUBCHEM_CACTVS_TAUTO_COUNT>
1

> <PUBCHEM_COORDINATE_TYPE>
1
5
255

> <PUBCHEM_BONDANNOTATIONS>
11  13  8
12  14  8
13  14  8
2  7  8
2  8  8
5  6  8
5  8  8
6  11  8
6  7  8
7  12  8

$$$$
