44353343
  -OEChem-09292322192D

 58 61  0     0  0  0  0  0  0999 V2000
   10.7204    6.1613    0.0000 F   0  0  0  0  0  0  0  0  0  0  0  0
   10.1456    1.6149    0.0000 O   0  0  0  0  0  0  0  0  0  0  0  0
    6.8994    0.0458    0.0000 N   0  0  0  0  0  0  0  0  0  0  0  0
    4.6783   -5.5720    0.0000 N   0  0  0  0  0  0  0  0  0  0  0  0
    6.2781   -1.8553    0.0000 C   0  0  0  0  0  0  0  0  0  0  0  0
    5.6103   -1.1110    0.0000 C   0  0  0  0  0  0  0  0  0  0  0  0
    7.2566   -1.6491    0.0000 C   0  0  0  0  0  0  0  0  0  0  0  0
    5.9209   -0.1605    0.0000 C   0  0  0  0  0  0  0  0  0  0  0  0
    7.5673   -0.6985    0.0000 C   0  0  0  0  0  0  0  0  0  0  0  0
    5.9674   -2.8058    0.0000 C   0  0  0  0  0  0  0  0  0  0  0  0
    7.2101    0.9963    0.0000 C   0  0  0  0  0  0  0  0  0  0  0  0
    4.9889   -3.0120    0.0000 C   0  0  0  0  0  0  0  0  0  0  0  0
    8.1886    1.2025    0.0000 C   0  0  0  0  0  0  0  0  0  0  0  0
    4.6783   -3.9625    0.0000 C   0  0  0  0  0  0  0  0  0  0  0  0
    8.4993    2.1530    0.0000 C   0  0  0  0  0  0  0  0  0  0  0  0
    3.7320   -4.2673    0.0000 C   0  0  0  0  0  0  0  0  0  0  0  0
    5.2619   -4.7673    0.0000 C   0  0  0  0  0  0  0  0  0  0  0  0
    3.7320   -5.2673    0.0000 C   0  0  0  0  0  0  0  0  0  0  0  0
    9.4778    2.3592    0.0000 C   0  0  0  0  0  0  0  0  0  0  0  0
    2.8660   -3.7673    0.0000 C   0  0  0  0  0  0  0  0  0  0  0  0
    2.8660   -5.7673    0.0000 C   0  0  0  0  0  0  0  0  0  0  0  0
    2.0000   -4.2673    0.0000 C   0  0  0  0  0  0  0  0  0  0  0  0
    9.7884    3.3098    0.0000 C   0  0  0  0  0  0  0  0  0  0  0  0
    2.0000   -5.2673    0.0000 C   0  0  0  0  0  0  0  0  0  0  0  0
   10.7669    3.5160    0.0000 C   0  0  0  0  0  0  0  0  0  0  0  0
    9.1206    4.0541    0.0000 C   0  0  0  0  0  0  0  0  0  0  0  0
   11.0776    4.4665    0.0000 C   0  0  0  0  0  0  0  0  0  0  0  0
    9.4312    5.0046    0.0000 C   0  0  0  0  0  0  0  0  0  0  0  0
   10.4097    5.2108    0.0000 C   0  0  0  0  0  0  0  0  0  0  0  0
    5.6714   -1.9831    0.0000 H   0  0  0  0  0  0  0  0  0  0  0  0
    5.0633   -0.8190    0.0000 H   0  0  0  0  0  0  0  0  0  0  0  0
    5.2277   -1.5989    0.0000 H   0  0  0  0  0  0  0  0  0  0  0  0
    7.2772   -2.2687    0.0000 H   0  0  0  0  0  0  0  0  0  0  0  0
    7.8704   -1.7364    0.0000 H   0  0  0  0  0  0  0  0  0  0  0  0
    5.9004    0.4592    0.0000 H   0  0  0  0  0  0  0  0  0  0  0  0
    5.3071   -0.0731    0.0000 H   0  0  0  0  0  0  0  0  0  0  0  0
    8.1142   -0.9906    0.0000 H   0  0  0  0  0  0  0  0  0  0  0  0
    7.9498   -0.2106    0.0000 H   0  0  0  0  0  0  0  0  0  0  0  0
    5.9880   -3.4255    0.0000 H   0  0  0  0  0  0  0  0  0  0  0  0
    6.5812   -2.8932    0.0000 H   0  0  0  0  0  0  0  0  0  0  0  0
    7.1895    1.6159    0.0000 H   0  0  0  0  0  0  0  0  0  0  0  0
    6.5963    1.0836    0.0000 H   0  0  0  0  0  0  0  0  0  0  0  0
    4.9684   -2.3924    0.0000 H   0  0  0  0  0  0  0  0  0  0  0  0
    4.3751   -2.9247    0.0000 H   0  0  0  0  0  0  0  0  0  0  0  0
    8.2092    0.5828    0.0000 H   0  0  0  0  0  0  0  0  0  0  0  0
    8.8024    1.1152    0.0000 H   0  0  0  0  0  0  0  0  0  0  0  0
    8.4787    2.7727    0.0000 H   0  0  0  0  0  0  0  0  0  0  0  0
    7.8854    2.2404    0.0000 H   0  0  0  0  0  0  0  0  0  0  0  0
    5.8819   -4.7673    0.0000 H   0  0  0  0  0  0  0  0  0  0  0  0
    4.8709   -6.1613    0.0000 H   0  0  0  0  0  0  0  0  0  0  0  0
    2.8660   -3.1473    0.0000 H   0  0  0  0  0  0  0  0  0  0  0  0
    2.8660   -6.3873    0.0000 H   0  0  0  0  0  0  0  0  0  0  0  0
    1.4631   -3.9573    0.0000 H   0  0  0  0  0  0  0  0  0  0  0  0
    1.4631   -5.5773    0.0000 H   0  0  0  0  0  0  0  0  0  0  0  0
   11.1810    3.0545    0.0000 H   0  0  0  0  0  0  0  0  0  0  0  0
    8.5139    3.9262    0.0000 H   0  0  0  0  0  0  0  0  0  0  0  0
   11.6843    4.5944    0.0000 H   0  0  0  0  0  0  0  0  0  0  0  0
    9.0172    5.4660    0.0000 H   0  0  0  0  0  0  0  0  0  0  0  0
  1 29  1  0  0  0  0
  2 19  2  0  0  0  0
  3  8  1  0  0  0  0
  3  9  1  0  0  0  0
  3 11  1  0  0  0  0
  4 17  1  0  0  0  0
  4 18  1  0  0  0  0
  4 50  1  0  0  0  0
  5  6  1  0  0  0  0
  5  7  1  0  0  0  0
  5 10  1  0  0  0  0
  5 30  1  0  0  0  0
  6  8  1  0  0  0  0
  6 31  1  0  0  0  0
  6 32  1  0  0  0  0
  7  9  1  0  0  0  0
  7 33  1  0  0  0  0
  7 34  1  0  0  0  0
  8 35  1  0  0  0  0
  8 36  1  0  0  0  0
  9 37  1  0  0  0  0
  9 38  1  0  0  0  0
 10 12  1  0  0  0  0
 10 39  1  0  0  0  0
 10 40  1  0  0  0  0
 11 13  1  0  0  0  0
 11 41  1  0  0  0  0
 11 42  1  0  0  0  0
 12 14  1  0  0  0  0
 12 43  1  0  0  0  0
 12 44  1  0  0  0  0
 13 15  1  0  0  0  0
 13 45  1  0  0  0  0
 13 46  1  0  0  0  0
 14 16  1  0  0  0  0
 14 17  2  0  0  0  0
 15 19  1  0  0  0  0
 15 47  1  0  0  0  0
 15 48  1  0  0  0  0
 16 18  1  0  0  0  0
 16 20  2  0  0  0  0
 17 49  1  0  0  0  0
 18 21  2  0  0  0  0
 19 23  1  0  0  0  0
 20 22  1  0  0  0  0
 20 51  1  0  0  0  0
 21 24  1  0  0  0  0
 21 52  1  0  0  0  0
 22 24  2  0  0  0  0
 22 53  1  0  0  0  0
 23 25  2  0  0  0  0
 23 26  1  0  0  0  0
 24 54  1  0  0  0  0
 25 27  1  0  0  0  0
 25 55  1  0  0  0  0
 26 28  2  0  0  0  0
 26 56  1  0  0  0  0
 27 29  2  0  0  0  0
 27 57  1  0  0  0  0
 28 29  1  0  0  0  0
 28 58  1  0  0  0  0
M  END
> <PUBCHEM_COMPOUND_CID>
44353343

> <PUBCHEM_COMPOUND_CANONICALIZED>
1

> <PUBCHEM_CACTVS_COMPLEXITY>
511

> <PUBCHEM_CACTVS_HBOND_ACCEPTOR>
3

> <PUBCHEM_CACTVS_HBOND_DONOR>
1

> <PUBCHEM_CACTVS_ROTATABLE_BOND>
8

> <PUBCHEM_CACTVS_SUBSKEYS>
AAADceB7IQAAAAAAAAAAAAAAAAAAAWAAAAA8YIAAAAAAAFgB9AAAHwAQAAAADQzBngw8wPPJkACoA7R3RACCgCA1AiAI2aE4ZNgIIPLAlZGEIQhgkADIyYcciMCOgAAAAAACAAAAAAAAAAQAAAAAAAAAAA==

> <PUBCHEM_IUPAC_OPENEYE_NAME>
1-(4-fluorophenyl)-4-[4-[2-(1H-indol-3-yl)ethyl]-1-piperidyl]butan-1-one

> <PUBCHEM_IUPAC_CAS_NAME>
1-(4-fluorophenyl)-4-[4-[2-(1H-indol-3-yl)ethyl]-1-piperidinyl]-1-butanone

> <PUBCHEM_IUPAC_NAME_MARKUP>
1-(4-fluorophenyl)-4-[4-[2-(1<I>H</I>-indol-3-yl)ethyl]piperidin-1-yl]butan-1-one

> <PUBCHEM_IUPAC_NAME>
1-(4-fluorophenyl)-4-[4-[2-(1H-indol-3-yl)ethyl]piperidin-1-yl]butan-1-one

> <PUBCHEM_IUPAC_SYSTEMATIC_NAME>
1-(4-fluorophenyl)-4-[4-[2-(1H-indol-3-yl)ethyl]piperidin-1-yl]butan-1-one

> <PUBCHEM_IUPAC_TRADITIONAL_NAME>
1-(4-fluorophenyl)-4-[4-[2-(1H-indol-3-yl)ethyl]piperidino]butan-1-one

> <PUBCHEM_IUPAC_INCHI>
InChI=1S/C25H29FN2O/c26-22-11-9-20(10-12-22)25(29)6-3-15-28-16-13-19(14-17-28)7-8-21-18-27-24-5-2-1-4-23(21)24/h1-2,4-5,9-12,18-19,27H,3,6-8,13-17H2

> <PUBCHEM_IUPAC_INCHIKEY>
DLNHKFQPIHQHPC-UHFFFAOYSA-N

> <PUBCHEM_XLOGP3_AA>
5.4

> <PUBCHEM_EXACT_MASS>
392.22639171

> <PUBCHEM_MOLECULAR_FORMULA>
C25H29FN2O

> <PUBCHEM_MOLECULAR_WEIGHT>
392.5

> <PUBCHEM_OPENEYE_CAN_SMILES>
C1CN(CCC1CCC2=CNC3=CC=CC=C32)CCCC(=O)C4=CC=C(C=C4)F

> <PUBCHEM_OPENEYE_ISO_SMILES>
C1CN(CCC1CCC2=CNC3=CC=CC=C32)CCCC(=O)C4=CC=C(C=C4)F

> <PUBCHEM_CACTVS_TPSA>
36.1

> <PUBCHEM_MONOISOTOPIC_WEIGHT>
392.22639171

> <PUBCHEM_TOTAL_CHARGE>
0

> <PUBCHEM_HEAVY_ATOM_COUNT>
29

> <PUBCHEM_ATOM_DEF_STEREO_COUNT>
0

> <PUBCHEM_ATOM_UDEF_STEREO_COUNT>
0

> <PUBCHEM_BOND_DEF_STEREO_COUNT>
0

> <PUBCHEM_BOND_UDEF_STEREO_COUNT>
0

> <PUBCHEM_ISOTOPIC_ATOM_COUNT>
0

> <PUBCHEM_COMPONENT_COUNT>
1

> <PUBCHEM_CACTVS_TAUTO_COUNT>
-1

> <PUBCHEM_COORDINATE_TYPE>
1
5
255

> <PUBCHEM_BONDANNOTATIONS>
14  16  8
14  17  8
16  18  8
16  20  8
18  21  8
20  22  8
21  24  8
22  24  8
23  25  8
23  26  8
25  27  8
26  28  8
27  29  8
28  29  8
4  17  8
4  18  8

$$$$
