138671363
  -OEChem-09292322452D

 68 72  0     1  0  0  0  0  0999 V2000
    4.4887    4.2197    0.0000 S   0  0  0  0  0  0  0  0  0  0  0  0
    3.5000    7.7868    0.0000 F   0  0  0  0  0  0  0  0  0  0  0  0
    2.0000    6.9208    0.0000 F   0  0  0  0  0  0  0  0  0  0  0  0
    7.2960   -4.2522    0.0000 O   0  0  0  0  0  0  0  0  0  0  0  0
    3.0000    5.1887    0.0000 O   0  0  0  0  0  0  0  0  0  0  0  0
    4.6979    1.2478    0.0000 N   0  0  3  0  0  0  0  0  0  0  0  0
    5.5640   -4.2522    0.0000 N   0  0  0  0  0  0  0  0  0  0  0  0
    3.0949    3.4149    0.0000 N   0  0  0  0  0  0  0  0  0  0  0  0
    8.1900   -7.7868    0.0000 N   0  0  0  0  0  0  0  0  0  0  0  0
    5.5640   -1.2522    0.0000 C   0  0  0  0  0  0  0  0  0  0  0  0
    6.4300   -1.7522    0.0000 C   0  0  0  0  0  0  0  0  0  0  0  0
    4.6979   -1.7522    0.0000 C   0  0  0  0  0  0  0  0  0  0  0  0
    5.5640   -3.2522    0.0000 C   0  0  0  0  0  0  0  0  0  0  0  0
    6.4300   -2.7522    0.0000 C   0  0  0  0  0  0  0  0  0  0  0  0
    4.6979   -2.7522    0.0000 C   0  0  0  0  0  0  0  0  0  0  0  0
    5.5640   -0.2522    0.0000 C   0  0  0  0  0  0  0  0  0  0  0  0
    4.6979    0.2478    0.0000 C   0  0  0  0  0  0  0  0  0  0  0  0
    3.8319    1.7478    0.0000 C   0  0  3  0  0  0  0  0  0  0  0  0
    5.5640    1.7478    0.0000 C   0  0  0  0  0  0  0  0  0  0  0  0
    5.5640    2.7478    0.0000 C   0  0  0  0  0  0  0  0  0  0  0  0
    3.8319    2.7478    0.0000 C   0  0  0  0  0  0  0  0  0  0  0  0
    4.6979    3.2478    0.0000 C   0  0  0  0  0  0  0  0  0  0  0  0
    2.9659    1.2478    0.0000 C   0  0  0  0  0  0  0  0  0  0  0  0
    6.4300   -4.7522    0.0000 C   0  0  0  0  0  0  0  0  0  0  0  0
    3.5000    4.3227    0.0000 C   0  0  0  0  0  0  0  0  0  0  0  0
    6.4300   -5.7522    0.0000 C   0  0  0  0  0  0  0  0  0  0  0  0
    7.2960   -6.2522    0.0000 C   0  0  0  0  0  0  0  0  0  0  0  0
    5.5640   -6.2522    0.0000 C   0  0  0  0  0  0  0  0  0  0  0  0
    7.2960   -7.2522    0.0000 C   0  0  0  0  0  0  0  0  0  0  0  0
    5.5640   -7.2522    0.0000 C   0  0  0  0  0  0  0  0  0  0  0  0
    8.1900   -5.7175    0.0000 C   0  0  0  0  0  0  0  0  0  0  0  0
    3.5000    6.0548    0.0000 C   0  0  0  0  0  0  0  0  0  0  0  0
    6.4300   -7.7522    0.0000 C   0  0  0  0  0  0  0  0  0  0  0  0
    9.0960   -6.2313    0.0000 C   0  0  0  0  0  0  0  0  0  0  0  0
    3.0000    6.9208    0.0000 C   0  0  0  0  0  0  0  0  0  0  0  0
    9.0960   -7.2730    0.0000 C   0  0  0  0  0  0  0  0  0  0  0  0
    6.1009   -0.9422    0.0000 H   0  0  0  0  0  0  0  0  0  0  0  0
    7.0406   -1.8598    0.0000 H   0  0  0  0  0  0  0  0  0  0  0  0
    6.6420   -1.1696    0.0000 H   0  0  0  0  0  0  0  0  0  0  0  0
    4.4859   -1.1696    0.0000 H   0  0  0  0  0  0  0  0  0  0  0  0
    4.0874   -1.8598    0.0000 H   0  0  0  0  0  0  0  0  0  0  0  0
    6.1009   -3.5622    0.0000 H   0  0  0  0  0  0  0  0  0  0  0  0
    6.6420   -3.3348    0.0000 H   0  0  0  0  0  0  0  0  0  0  0  0
    7.0406   -2.6445    0.0000 H   0  0  0  0  0  0  0  0  0  0  0  0
    4.0874   -2.6445    0.0000 H   0  0  0  0  0  0  0  0  0  0  0  0
    4.4859   -3.3348    0.0000 H   0  0  0  0  0  0  0  0  0  0  0  0
    6.1745   -0.3598    0.0000 H   0  0  0  0  0  0  0  0  0  0  0  0
    5.7760    0.3305    0.0000 H   0  0  0  0  0  0  0  0  0  0  0  0
    4.0874    0.3555    0.0000 H   0  0  0  0  0  0  0  0  0  0  0  0
    4.4859   -0.3348    0.0000 H   0  0  0  0  0  0  0  0  0  0  0  0
    3.8319    1.1278    0.0000 H   0  0  0  0  0  0  0  0  0  0  0  0
    5.7760    1.1652    0.0000 H   0  0  0  0  0  0  0  0  0  0  0  0
    6.1745    1.8555    0.0000 H   0  0  0  0  0  0  0  0  0  0  0  0
    5.0270   -4.5622    0.0000 H   0  0  0  0  0  0  0  0  0  0  0  0
    6.1745    2.6402    0.0000 H   0  0  0  0  0  0  0  0  0  0  0  0
    5.7760    3.3304    0.0000 H   0  0  0  0  0  0  0  0  0  0  0  0
    2.6559    1.7848    0.0000 H   0  0  0  0  0  0  0  0  0  0  0  0
    2.4289    0.9378    0.0000 H   0  0  0  0  0  0  0  0  0  0  0  0
    3.2759    0.7109    0.0000 H   0  0  0  0  0  0  0  0  0  0  0  0
    5.0270   -5.9422    0.0000 H   0  0  0  0  0  0  0  0  0  0  0  0
    5.0270   -7.5622    0.0000 H   0  0  0  0  0  0  0  0  0  0  0  0
    8.1828   -5.0975    0.0000 H   0  0  0  0  0  0  0  0  0  0  0  0
    3.9750    5.6562    0.0000 H   0  0  0  0  0  0  0  0  0  0  0  0
    3.9750    6.4533    0.0000 H   0  0  0  0  0  0  0  0  0  0  0  0
    6.4300   -8.3722    0.0000 H   0  0  0  0  0  0  0  0  0  0  0  0
    9.6318   -5.9193    0.0000 H   0  0  0  0  0  0  0  0  0  0  0  0
    2.6900    6.3839    0.0000 H   0  0  0  0  0  0  0  0  0  0  0  0
    9.6318   -7.5850    0.0000 H   0  0  0  0  0  0  0  0  0  0  0  0
  1 22  1  0  0  0  0
  1 25  1  0  0  0  0
  2 35  1  0  0  0  0
  3 35  1  0  0  0  0
  4 24  2  0  0  0  0
  5 25  1  0  0  0  0
  5 32  1  0  0  0  0
  6 17  1  0  0  0  0
  6 18  1  0  0  0  0
  6 19  1  0  0  0  0
  7 13  1  0  0  0  0
  7 24  1  0  0  0  0
  7 54  1  0  0  0  0
  8 21  1  0  0  0  0
  8 25  2  0  0  0  0
  9 29  1  0  0  0  0
  9 36  2  0  0  0  0
 10 11  1  0  0  0  0
 10 12  1  0  0  0  0
 10 16  1  0  0  0  0
 10 37  1  0  0  0  0
 11 14  1  0  0  0  0
 11 38  1  0  0  0  0
 11 39  1  0  0  0  0
 12 15  1  0  0  0  0
 12 40  1  0  0  0  0
 12 41  1  0  0  0  0
 13 14  1  0  0  0  0
 13 15  1  0  0  0  0
 13 42  1  0  0  0  0
 14 43  1  0  0  0  0
 14 44  1  0  0  0  0
 15 45  1  0  0  0  0
 15 46  1  0  0  0  0
 16 17  1  0  0  0  0
 16 47  1  0  0  0  0
 16 48  1  0  0  0  0
 17 49  1  0  0  0  0
 17 50  1  0  0  0  0
 18 21  1  0  0  0  0
 18 23  1  0  0  0  0
 18 51  1  0  0  0  0
 19 20  1  0  0  0  0
 19 52  1  0  0  0  0
 19 53  1  0  0  0  0
 20 22  1  0  0  0  0
 20 55  1  0  0  0  0
 20 56  1  0  0  0  0
 21 22  2  0  0  0  0
 23 57  1  0  0  0  0
 23 58  1  0  0  0  0
 23 59  1  0  0  0  0
 24 26  1  0  0  0  0
 26 27  2  0  0  0  0
 26 28  1  0  0  0  0
 27 29  1  0  0  0  0
 27 31  1  0  0  0  0
 28 30  2  0  0  0  0
 28 60  1  0  0  0  0
 29 33  2  0  0  0  0
 30 33  1  0  0  0  0
 30 61  1  0  0  0  0
 31 34  2  0  0  0  0
 31 62  1  0  0  0  0
 32 35  1  0  0  0  0
 32 63  1  0  0  0  0
 32 64  1  0  0  0  0
 33 65  1  0  0  0  0
 34 36  1  0  0  0  0
 34 66  1  0  0  0  0
 35 67  1  0  0  0  0
 36 68  1  0  0  0  0
M  END
> <PUBCHEM_COMPOUND_CID>
138671363

> <PUBCHEM_COMPOUND_CANONICALIZED>
1

> <PUBCHEM_CACTVS_COMPLEXITY>
726

> <PUBCHEM_CACTVS_HBOND_ACCEPTOR>
8

> <PUBCHEM_CACTVS_HBOND_DONOR>
1

> <PUBCHEM_CACTVS_ROTATABLE_BOND>
8

> <PUBCHEM_CACTVS_SUBSKEYS>
AAADcfB7sYBAAAAAAAAAAAAAAAAAAWAAAAA8eIEAAAAAAFix/AAAHwQQAAAADSjh3hY+wfPIFAisAzV3VACC8KB1CjgI2LU4ZNgIYPLglZGcIQhglgDIyYcciICOgAAAQAASAAAQAACAACQAAAAAAAAAAA==

> <PUBCHEM_IUPAC_OPENEYE_NAME>
N-[4-[2-[2-(2,2-difluoroethoxy)-4-methyl-6,7-dihydro-4H-thiazolo[4,5-c]pyridin-5-yl]ethyl]cyclohexyl]quinoline-5-carboxamide

> <PUBCHEM_IUPAC_CAS_NAME>
N-[4-[2-[2-(2,2-difluoroethoxy)-4-methyl-6,7-dihydro-4H-thiazolo[4,5-c]pyridin-5-yl]ethyl]cyclohexyl]-5-quinolinecarboxamide

> <PUBCHEM_IUPAC_NAME_MARKUP>
<I>N</I>-[4-[2-[2-(2,2-difluoroethoxy)-4-methyl-6,7-dihydro-4<I>H</I>-[1,3]thiazolo[4,5-c]pyridin-5-yl]ethyl]cyclohexyl]quinoline-5-carboxamide

> <PUBCHEM_IUPAC_NAME>
N-[4-[2-[2-(2,2-difluoroethoxy)-4-methyl-6,7-dihydro-4H-[1,3]thiazolo[4,5-c]pyridin-5-yl]ethyl]cyclohexyl]quinoline-5-carboxamide

> <PUBCHEM_IUPAC_SYSTEMATIC_NAME>
N-[4-[2-[2-[2,2-bis(fluoranyl)ethoxy]-4-methyl-6,7-dihydro-4H-[1,3]thiazolo[4,5-c]pyridin-5-yl]ethyl]cyclohexyl]quinoline-5-carboxamide

> <PUBCHEM_IUPAC_TRADITIONAL_NAME>
N-[4-[2-[2-(2,2-difluoroethoxy)-4-methyl-6,7-dihydro-4H-thiazolo[4,5-c]pyridin-5-yl]ethyl]cyclohexyl]quinoline-5-carboxamide

> <PUBCHEM_IUPAC_INCHI>
InChI=1S/C27H32F2N4O2S/c1-17-25-23(36-27(32-25)35-16-24(28)29)12-15-33(17)14-11-18-7-9-19(10-8-18)31-26(34)21-4-2-6-22-20(21)5-3-13-30-22/h2-6,13,17-19,24H,7-12,14-16H2,1H3,(H,31,34)

> <PUBCHEM_IUPAC_INCHIKEY>
UBIFUIUXVKAWJM-UHFFFAOYSA-N

> <PUBCHEM_XLOGP3_AA>
5.6

> <PUBCHEM_EXACT_MASS>
514.22140377

> <PUBCHEM_MOLECULAR_FORMULA>
C27H32F2N4O2S

> <PUBCHEM_MOLECULAR_WEIGHT>
514.6

> <PUBCHEM_OPENEYE_CAN_SMILES>
CC1C2=C(CCN1CCC3CCC(CC3)NC(=O)C4=C5C=CC=NC5=CC=C4)SC(=N2)OCC(F)F

> <PUBCHEM_OPENEYE_ISO_SMILES>
CC1C2=C(CCN1CCC3CCC(CC3)NC(=O)C4=C5C=CC=NC5=CC=C4)SC(=N2)OCC(F)F

> <PUBCHEM_CACTVS_TPSA>
95.6

> <PUBCHEM_MONOISOTOPIC_WEIGHT>
514.22140377

> <PUBCHEM_TOTAL_CHARGE>
0

> <PUBCHEM_HEAVY_ATOM_COUNT>
36

> <PUBCHEM_ATOM_DEF_STEREO_COUNT>
0

> <PUBCHEM_ATOM_UDEF_STEREO_COUNT>
1

> <PUBCHEM_BOND_DEF_STEREO_COUNT>
0

> <PUBCHEM_BOND_UDEF_STEREO_COUNT>
0

> <PUBCHEM_ISOTOPIC_ATOM_COUNT>
0

> <PUBCHEM_COMPONENT_COUNT>
1

> <PUBCHEM_CACTVS_TAUTO_COUNT>
-1

> <PUBCHEM_COORDINATE_TYPE>
1
5
255

> <PUBCHEM_BONDANNOTATIONS>
1  22  8
1  25  8
18  23  3
21  22  8
26  27  8
26  28  8
27  29  8
27  31  8
28  30  8
29  33  8
30  33  8
31  34  8
34  36  8
8  21  8
8  25  8
9  29  8
9  36  8

$$$$
