57456630
  -OEChem-09292322472D

 61 64  0     1  0  0  0  0  0999 V2000
    6.3981   -0.5173    0.0000 O   0  0  0  0  0  0  0  0  0  0  0  0
   11.5942    0.4827    0.0000 N   0  0  0  0  0  0  0  0  0  0  0  0
   13.3263   -0.5173    0.0000 N   0  0  0  0  0  0  0  0  0  0  0  0
    4.6660    0.4827    0.0000 N   0  0  0  0  0  0  0  0  0  0  0  0
    7.2641    0.9827    0.0000 N   0  0  0  0  0  0  0  0  0  0  0  0
   11.5942   -0.5173    0.0000 C   0  0  0  0  0  0  0  0  0  0  0  0
   12.4603    0.9827    0.0000 C   0  0  0  0  0  0  0  0  0  0  0  0
   12.4603   -1.0173    0.0000 C   0  0  0  0  0  0  0  0  0  0  0  0
   13.3263    0.4827    0.0000 C   0  0  0  0  0  0  0  0  0  0  0  0
   10.7282    0.9827    0.0000 C   0  0  0  0  0  0  0  0  0  0  0  0
    9.8622    0.4827    0.0000 C   0  0  0  0  0  0  0  0  0  0  0  0
    8.9962    0.9827    0.0000 C   0  0  0  0  0  0  0  0  0  0  0  0
    5.5321    0.9827    0.0000 C   0  0  1  0  0  0  0  0  0  0  0  0
    5.5321    1.9827    0.0000 C   0  0  0  0  0  0  0  0  0  0  0  0
    4.6660    2.4827    0.0000 C   0  0  0  0  0  0  0  0  0  0  0  0
   14.1923   -1.0173    0.0000 C   0  0  0  0  0  0  0  0  0  0  0  0
    8.1301    0.4827    0.0000 C   0  0  0  0  0  0  0  0  0  0  0  0
    3.8000    1.9827    0.0000 C   0  0  0  0  0  0  0  0  0  0  0  0
    6.3981    0.4827    0.0000 C   0  0  0  0  0  0  0  0  0  0  0  0
    3.8000    0.9827    0.0000 C   0  0  0  0  0  0  0  0  0  0  0  0
   15.0583   -0.5173    0.0000 C   0  0  0  0  0  0  0  0  0  0  0  0
   14.1923   -2.0173    0.0000 C   0  0  0  0  0  0  0  0  0  0  0  0
    2.9061    2.5173    0.0000 C   0  0  0  0  0  0  0  0  0  0  0  0
    2.9061    0.4480    0.0000 C   0  0  0  0  0  0  0  0  0  0  0  0
    2.0000    2.0035    0.0000 C   0  0  0  0  0  0  0  0  0  0  0  0
    2.0000    0.9619    0.0000 C   0  0  0  0  0  0  0  0  0  0  0  0
   15.9244   -1.0173    0.0000 C   0  0  0  0  0  0  0  0  0  0  0  0
   15.0583   -2.5173    0.0000 C   0  0  0  0  0  0  0  0  0  0  0  0
   15.9244   -2.0173    0.0000 C   0  0  0  0  0  0  0  0  0  0  0  0
   10.9837   -0.4097    0.0000 H   0  0  0  0  0  0  0  0  0  0  0  0
   11.3822   -1.0999    0.0000 H   0  0  0  0  0  0  0  0  0  0  0  0
   12.8588    1.4576    0.0000 H   0  0  0  0  0  0  0  0  0  0  0  0
   12.0617    1.4576    0.0000 H   0  0  0  0  0  0  0  0  0  0  0  0
   12.0617   -1.4923    0.0000 H   0  0  0  0  0  0  0  0  0  0  0  0
   12.8588   -1.4923    0.0000 H   0  0  0  0  0  0  0  0  0  0  0  0
   13.9369    0.3750    0.0000 H   0  0  0  0  0  0  0  0  0  0  0  0
   13.5383    1.0653    0.0000 H   0  0  0  0  0  0  0  0  0  0  0  0
   11.1267    1.4576    0.0000 H   0  0  0  0  0  0  0  0  0  0  0  0
   10.3297    1.4576    0.0000 H   0  0  0  0  0  0  0  0  0  0  0  0
    9.4637    0.0077    0.0000 H   0  0  0  0  0  0  0  0  0  0  0  0
   10.2607    0.0077    0.0000 H   0  0  0  0  0  0  0  0  0  0  0  0
    5.5321    0.3627    0.0000 H   0  0  0  0  0  0  0  0  0  0  0  0
    9.3947    1.4576    0.0000 H   0  0  0  0  0  0  0  0  0  0  0  0
    8.5976    1.4576    0.0000 H   0  0  0  0  0  0  0  0  0  0  0  0
    6.1426    1.8750    0.0000 H   0  0  0  0  0  0  0  0  0  0  0  0
    5.7441    2.5653    0.0000 H   0  0  0  0  0  0  0  0  0  0  0  0
    5.0646    2.9576    0.0000 H   0  0  0  0  0  0  0  0  0  0  0  0
    4.2675    2.9576    0.0000 H   0  0  0  0  0  0  0  0  0  0  0  0
    7.7316    0.0077    0.0000 H   0  0  0  0  0  0  0  0  0  0  0  0
    8.5287    0.0077    0.0000 H   0  0  0  0  0  0  0  0  0  0  0  0
    4.6660   -0.1373    0.0000 H   0  0  0  0  0  0  0  0  0  0  0  0
    7.2641    1.6027    0.0000 H   0  0  0  0  0  0  0  0  0  0  0  0
   15.0583    0.1027    0.0000 H   0  0  0  0  0  0  0  0  0  0  0  0
   13.6554   -2.3273    0.0000 H   0  0  0  0  0  0  0  0  0  0  0  0
    2.9132    3.1373    0.0000 H   0  0  0  0  0  0  0  0  0  0  0  0
    2.9132   -0.1720    0.0000 H   0  0  0  0  0  0  0  0  0  0  0  0
    1.4643    2.3156    0.0000 H   0  0  0  0  0  0  0  0  0  0  0  0
    1.4643    0.6498    0.0000 H   0  0  0  0  0  0  0  0  0  0  0  0
   16.4613   -0.7073    0.0000 H   0  0  0  0  0  0  0  0  0  0  0  0
   15.0583   -3.1373    0.0000 H   0  0  0  0  0  0  0  0  0  0  0  0
   16.4613   -2.3273    0.0000 H   0  0  0  0  0  0  0  0  0  0  0  0
  1 19  2  0  0  0  0
  2  6  1  0  0  0  0
  2  7  1  0  0  0  0
  2 10  1  0  0  0  0
  3  8  1  0  0  0  0
  3  9  1  0  0  0  0
  3 16  1  0  0  0  0
  4 13  1  0  0  0  0
  4 20  1  0  0  0  0
  4 51  1  0  0  0  0
  5 17  1  0  0  0  0
  5 19  1  0  0  0  0
  5 52  1  0  0  0  0
  6  8  1  0  0  0  0
  6 30  1  0  0  0  0
  6 31  1  0  0  0  0
  7  9  1  0  0  0  0
  7 32  1  0  0  0  0
  7 33  1  0  0  0  0
  8 34  1  0  0  0  0
  8 35  1  0  0  0  0
  9 36  1  0  0  0  0
  9 37  1  0  0  0  0
 10 11  1  0  0  0  0
 10 38  1  0  0  0  0
 10 39  1  0  0  0  0
 11 12  1  0  0  0  0
 11 40  1  0  0  0  0
 11 41  1  0  0  0  0
 12 17  1  0  0  0  0
 12 43  1  0  0  0  0
 12 44  1  0  0  0  0
 13 14  1  0  0  0  0
 13 19  1  1  0  0  0
 13 42  1  0  0  0  0
 14 15  1  0  0  0  0
 14 45  1  0  0  0  0
 14 46  1  0  0  0  0
 15 18  1  0  0  0  0
 15 47  1  0  0  0  0
 15 48  1  0  0  0  0
 16 21  2  0  0  0  0
 16 22  1  0  0  0  0
 17 49  1  0  0  0  0
 17 50  1  0  0  0  0
 18 20  1  0  0  0  0
 18 23  2  0  0  0  0
 20 24  2  0  0  0  0
 21 27  1  0  0  0  0
 21 53  1  0  0  0  0
 22 28  2  0  0  0  0
 22 54  1  0  0  0  0
 23 25  1  0  0  0  0
 23 55  1  0  0  0  0
 24 26  1  0  0  0  0
 24 56  1  0  0  0  0
 25 26  2  0  0  0  0
 25 57  1  0  0  0  0
 26 58  1  0  0  0  0
 27 29  2  0  0  0  0
 27 59  1  0  0  0  0
 28 29  1  0  0  0  0
 28 60  1  0  0  0  0
 29 61  1  0  0  0  0
M  END
> <PUBCHEM_COMPOUND_CID>
57456630

> <PUBCHEM_COMPOUND_CANONICALIZED>
1

> <PUBCHEM_CACTVS_COMPLEXITY>
499

> <PUBCHEM_CACTVS_HBOND_ACCEPTOR>
4

> <PUBCHEM_CACTVS_HBOND_DONOR>
2

> <PUBCHEM_CACTVS_ROTATABLE_BOND>
7

> <PUBCHEM_CACTVS_SUBSKEYS>
AAADcfB7oAAAAAAAAAAAAAAAAAAAAAAAAAA8eIEAAAAAAACxQAAAHgAQAAAADCjBmAQwwIPAAACIAiVSUACCAAAhAgAIiIGIZIgIYDLAkbGUIAhglgDIyAcYiICOAAAAAAACAAAAAAAAAAQAAAAAAAAAAA==

> <PUBCHEM_IUPAC_OPENEYE_NAME>
(2S)-N-[4-(4-phenylpiperazin-1-yl)butyl]-1,2,3,4-tetrahydroquinoline-2-carboxamide

> <PUBCHEM_IUPAC_CAS_NAME>
(2S)-N-[4-(4-phenyl-1-piperazinyl)butyl]-1,2,3,4-tetrahydroquinoline-2-carboxamide

> <PUBCHEM_IUPAC_NAME_MARKUP>
(2<I>S</I>)-<I>N</I>-[4-(4-phenylpiperazin-1-yl)butyl]-1,2,3,4-tetrahydroquinoline-2-carboxamide

> <PUBCHEM_IUPAC_NAME>
(2S)-N-[4-(4-phenylpiperazin-1-yl)butyl]-1,2,3,4-tetrahydroquinoline-2-carboxamide

> <PUBCHEM_IUPAC_SYSTEMATIC_NAME>
(2S)-N-[4-(4-phenylpiperazin-1-yl)butyl]-1,2,3,4-tetrahydroquinoline-2-carboxamide

> <PUBCHEM_IUPAC_TRADITIONAL_NAME>
(2S)-N-[4-(4-phenylpiperazino)butyl]-1,2,3,4-tetrahydroquinoline-2-carboxamide

> <PUBCHEM_IUPAC_INCHI>
InChI=1S/C24H32N4O/c29-24(23-13-12-20-8-4-5-11-22(20)26-23)25-14-6-7-15-27-16-18-28(19-17-27)21-9-2-1-3-10-21/h1-5,8-11,23,26H,6-7,12-19H2,(H,25,29)/t23-/m0/s1

> <PUBCHEM_IUPAC_INCHIKEY>
CLTAQMJYOUARDB-QHCPKHFHSA-N

> <PUBCHEM_XLOGP3_AA>
4

> <PUBCHEM_EXACT_MASS>
392.25761166

> <PUBCHEM_MOLECULAR_FORMULA>
C24H32N4O

> <PUBCHEM_MOLECULAR_WEIGHT>
392.5

> <PUBCHEM_OPENEYE_CAN_SMILES>
C1CC2=CC=CC=C2NC1C(=O)NCCCCN3CCN(CC3)C4=CC=CC=C4

> <PUBCHEM_OPENEYE_ISO_SMILES>
C1CC2=CC=CC=C2N[C@@H]1C(=O)NCCCCN3CCN(CC3)C4=CC=CC=C4

> <PUBCHEM_CACTVS_TPSA>
47.6

> <PUBCHEM_MONOISOTOPIC_WEIGHT>
392.25761166

> <PUBCHEM_TOTAL_CHARGE>
0

> <PUBCHEM_HEAVY_ATOM_COUNT>
29

> <PUBCHEM_ATOM_DEF_STEREO_COUNT>
1

> <PUBCHEM_ATOM_UDEF_STEREO_COUNT>
0

> <PUBCHEM_BOND_DEF_STEREO_COUNT>
0

> <PUBCHEM_BOND_UDEF_STEREO_COUNT>
0

> <PUBCHEM_ISOTOPIC_ATOM_COUNT>
0

> <PUBCHEM_COMPONENT_COUNT>
1

> <PUBCHEM_CACTVS_TAUTO_COUNT>
-1

> <PUBCHEM_COORDINATE_TYPE>
1
5
255

> <PUBCHEM_BONDANNOTATIONS>
13  19  5
16  21  8
16  22  8
18  20  8
18  23  8
20  24  8
21  27  8
22  28  8
23  25  8
24  26  8
25  26  8
27  29  8
28  29  8

$$$$
