44315382
  -OEChem-09292322152D

 55 59  0     0  0  0  0  0  0999 V2000
    6.3058    3.2170    0.0000 O   0  0  0  0  0  0  0  0  0  0  0  0
    8.0379    5.2170    0.0000 O   0  0  0  0  0  0  0  0  0  0  0  0
    4.5806    0.1826    0.0000 N   0  0  0  0  0  0  0  0  0  0  0  0
    4.5574    2.1824    0.0000 N   0  0  0  0  0  0  0  0  0  0  0  0
    6.3058    5.2170    0.0000 N   0  0  0  0  0  0  0  0  0  0  0  0
    5.4407    0.6926    0.0000 C   0  0  0  0  0  0  0  0  0  0  0  0
    3.7088    0.6725    0.0000 C   0  0  0  0  0  0  0  0  0  0  0  0
    5.4292    1.6925    0.0000 C   0  0  0  0  0  0  0  0  0  0  0  0
    3.6972    1.6725    0.0000 C   0  0  0  0  0  0  0  0  0  0  0  0
    4.5921   -0.8174    0.0000 C   0  0  0  0  0  0  0  0  0  0  0  0
    4.5459    3.1824    0.0000 C   0  0  0  0  0  0  0  0  0  0  0  0
    3.7319   -1.3273    0.0000 C   0  0  0  0  0  0  0  0  0  0  0  0
    5.4398    3.7170    0.0000 C   0  0  0  0  0  0  0  0  0  0  0  0
    3.6398    3.6962    0.0000 C   0  0  0  0  0  0  0  0  0  0  0  0
    5.4398    4.7170    0.0000 C   0  0  0  0  0  0  0  0  0  0  0  0
    3.7435   -2.3273    0.0000 C   0  0  0  0  0  0  0  0  0  0  0  0
    2.8602   -0.8374    0.0000 C   0  0  0  0  0  0  0  0  0  0  0  0
    3.6398    4.7379    0.0000 C   0  0  0  0  0  0  0  0  0  0  0  0
    4.5459    5.2517    0.0000 C   0  0  0  0  0  0  0  0  0  0  0  0
    2.8833   -2.8372    0.0000 C   0  0  0  0  0  0  0  0  0  0  0  0
    7.1719    3.7170    0.0000 C   0  0  0  0  0  0  0  0  0  0  0  0
    2.0000   -1.3474    0.0000 C   0  0  0  0  0  0  0  0  0  0  0  0
    7.1719    4.7170    0.0000 C   0  0  0  0  0  0  0  0  0  0  0  0
    2.0116   -2.3473    0.0000 C   0  0  0  0  0  0  0  0  0  0  0  0
    2.8949   -3.8372    0.0000 C   0  0  0  0  0  0  0  0  0  0  0  0
    2.0347   -4.3472    0.0000 C   0  0  0  0  0  0  0  0  0  0  0  0
    3.7666   -4.3271    0.0000 C   0  0  0  0  0  0  0  0  0  0  0  0
    2.0462   -5.3471    0.0000 C   0  0  0  0  0  0  0  0  0  0  0  0
    3.7782   -5.3271    0.0000 C   0  0  0  0  0  0  0  0  0  0  0  0
    2.9180   -5.8370    0.0000 C   0  0  0  0  0  0  0  0  0  0  0  0
    5.6595    0.1124    0.0000 H   0  0  0  0  0  0  0  0  0  0  0  0
    6.0500    0.8073    0.0000 H   0  0  0  0  0  0  0  0  0  0  0  0
    3.0970    0.7731    0.0000 H   0  0  0  0  0  0  0  0  0  0  0  0
    3.5035    0.0875    0.0000 H   0  0  0  0  0  0  0  0  0  0  0  0
    6.0410    1.5919    0.0000 H   0  0  0  0  0  0  0  0  0  0  0  0
    5.6345    2.2775    0.0000 H   0  0  0  0  0  0  0  0  0  0  0  0
    3.4785    2.2526    0.0000 H   0  0  0  0  0  0  0  0  0  0  0  0
    3.0880    1.5578    0.0000 H   0  0  0  0  0  0  0  0  0  0  0  0
    4.8109   -1.3975    0.0000 H   0  0  0  0  0  0  0  0  0  0  0  0
    5.2014   -0.7026    0.0000 H   0  0  0  0  0  0  0  0  0  0  0  0
    3.1041    3.3842    0.0000 H   0  0  0  0  0  0  0  0  0  0  0  0
    4.2840   -2.6310    0.0000 H   0  0  0  0  0  0  0  0  0  0  0  0
    2.8530   -0.2174    0.0000 H   0  0  0  0  0  0  0  0  0  0  0  0
    3.1041    5.0499    0.0000 H   0  0  0  0  0  0  0  0  0  0  0  0
    4.5530    5.8717    0.0000 H   0  0  0  0  0  0  0  0  0  0  0  0
    6.3058    5.8370    0.0000 H   0  0  0  0  0  0  0  0  0  0  0  0
    7.3839    3.1344    0.0000 H   0  0  0  0  0  0  0  0  0  0  0  0
    7.7824    3.8247    0.0000 H   0  0  0  0  0  0  0  0  0  0  0  0
    1.4595   -1.0436    0.0000 H   0  0  0  0  0  0  0  0  0  0  0  0
    1.4782   -2.6635    0.0000 H   0  0  0  0  0  0  0  0  0  0  0  0
    1.4942   -4.0434    0.0000 H   0  0  0  0  0  0  0  0  0  0  0  0
    4.2999   -4.0109    0.0000 H   0  0  0  0  0  0  0  0  0  0  0  0
    1.5129   -5.6633    0.0000 H   0  0  0  0  0  0  0  0  0  0  0  0
    4.3187   -5.6308    0.0000 H   0  0  0  0  0  0  0  0  0  0  0  0
    2.9252   -6.4570    0.0000 H   0  0  0  0  0  0  0  0  0  0  0  0
  1 13  1  0  0  0  0
  1 21  1  0  0  0  0
  2 23  2  0  0  0  0
  3  6  1  0  0  0  0
  3  7  1  0  0  0  0
  3 10  1  0  0  0  0
  4  8  1  0  0  0  0
  4  9  1  0  0  0  0
  4 11  1  0  0  0  0
  5 15  1  0  0  0  0
  5 23  1  0  0  0  0
  5 46  1  0  0  0  0
  6  8  1  0  0  0  0
  6 31  1  0  0  0  0
  6 32  1  0  0  0  0
  7  9  1  0  0  0  0
  7 33  1  0  0  0  0
  7 34  1  0  0  0  0
  8 35  1  0  0  0  0
  8 36  1  0  0  0  0
  9 37  1  0  0  0  0
  9 38  1  0  0  0  0
 10 12  1  0  0  0  0
 10 39  1  0  0  0  0
 10 40  1  0  0  0  0
 11 13  1  0  0  0  0
 11 14  2  0  0  0  0
 12 16  2  0  0  0  0
 12 17  1  0  0  0  0
 13 15  2  0  0  0  0
 14 18  1  0  0  0  0
 14 41  1  0  0  0  0
 15 19  1  0  0  0  0
 16 20  1  0  0  0  0
 16 42  1  0  0  0  0
 17 22  2  0  0  0  0
 17 43  1  0  0  0  0
 18 19  2  0  0  0  0
 18 44  1  0  0  0  0
 19 45  1  0  0  0  0
 20 24  2  0  0  0  0
 20 25  1  0  0  0  0
 21 23  1  0  0  0  0
 21 47  1  0  0  0  0
 21 48  1  0  0  0  0
 22 24  1  0  0  0  0
 22 49  1  0  0  0  0
 24 50  1  0  0  0  0
 25 26  2  0  0  0  0
 25 27  1  0  0  0  0
 26 28  1  0  0  0  0
 26 51  1  0  0  0  0
 27 29  2  0  0  0  0
 27 52  1  0  0  0  0
 28 30  2  0  0  0  0
 28 53  1  0  0  0  0
 29 30  1  0  0  0  0
 29 54  1  0  0  0  0
 30 55  1  0  0  0  0
M  END
> <PUBCHEM_COMPOUND_CID>
44315382

> <PUBCHEM_COMPOUND_CANONICALIZED>
1

> <PUBCHEM_CACTVS_COMPLEXITY>
571

> <PUBCHEM_CACTVS_HBOND_ACCEPTOR>
4

> <PUBCHEM_CACTVS_HBOND_DONOR>
1

> <PUBCHEM_CACTVS_ROTATABLE_BOND>
4

> <PUBCHEM_CACTVS_SUBSKEYS>
AAADceB7MAAAAAAAAAAAAAAAAAAAAAAAAAA8eMECAAAAAACxUAAAHgAQAAAADAzhmAYwxoPABACIAiVSUAKCCAAhIgAIiABNbIgOZiLE8d+XOCjk1BHY6AeQwMAOgAACAAQAEAAAAAQACAAgAAAAAAAAAA==

> <PUBCHEM_IUPAC_OPENEYE_NAME>
8-[4-[(3-phenylphenyl)methyl]piperazin-1-yl]-4H-1,4-benzoxazin-3-one

> <PUBCHEM_IUPAC_CAS_NAME>
8-[4-[(3-phenylphenyl)methyl]-1-piperazinyl]-4H-1,4-benzoxazin-3-one

> <PUBCHEM_IUPAC_NAME_MARKUP>
8-[4-[(3-phenylphenyl)methyl]piperazin-1-yl]-4<I>H</I>-1,4-benzoxazin-3-one

> <PUBCHEM_IUPAC_NAME>
8-[4-[(3-phenylphenyl)methyl]piperazin-1-yl]-4H-1,4-benzoxazin-3-one

> <PUBCHEM_IUPAC_SYSTEMATIC_NAME>
8-[4-[(3-phenylphenyl)methyl]piperazin-1-yl]-4H-1,4-benzoxazin-3-one

> <PUBCHEM_IUPAC_TRADITIONAL_NAME>
8-[4-(3-phenylbenzyl)piperazino]-4H-1,4-benzoxazin-3-one

> <PUBCHEM_IUPAC_INCHI>
InChI=1S/C25H25N3O2/c29-24-18-30-25-22(26-24)10-5-11-23(25)28-14-12-27(13-15-28)17-19-6-4-9-21(16-19)20-7-2-1-3-8-20/h1-11,16H,12-15,17-18H2,(H,26,29)

> <PUBCHEM_IUPAC_INCHIKEY>
FMEYZGBIOSKJJC-UHFFFAOYSA-N

> <PUBCHEM_XLOGP3_AA>
3.9

> <PUBCHEM_EXACT_MASS>
399.19467705

> <PUBCHEM_MOLECULAR_FORMULA>
C25H25N3O2

> <PUBCHEM_MOLECULAR_WEIGHT>
399.5

> <PUBCHEM_OPENEYE_CAN_SMILES>
C1CN(CCN1CC2=CC(=CC=C2)C3=CC=CC=C3)C4=CC=CC5=C4OCC(=O)N5

> <PUBCHEM_OPENEYE_ISO_SMILES>
C1CN(CCN1CC2=CC(=CC=C2)C3=CC=CC=C3)C4=CC=CC5=C4OCC(=O)N5

> <PUBCHEM_CACTVS_TPSA>
44.8

> <PUBCHEM_MONOISOTOPIC_WEIGHT>
399.19467705

> <PUBCHEM_TOTAL_CHARGE>
0

> <PUBCHEM_HEAVY_ATOM_COUNT>
30

> <PUBCHEM_ATOM_DEF_STEREO_COUNT>
0

> <PUBCHEM_ATOM_UDEF_STEREO_COUNT>
0

> <PUBCHEM_BOND_DEF_STEREO_COUNT>
0

> <PUBCHEM_BOND_UDEF_STEREO_COUNT>
0

> <PUBCHEM_ISOTOPIC_ATOM_COUNT>
0

> <PUBCHEM_COMPONENT_COUNT>
1

> <PUBCHEM_CACTVS_TAUTO_COUNT>
-1

> <PUBCHEM_COORDINATE_TYPE>
1
5
255

> <PUBCHEM_BONDANNOTATIONS>
11  13  8
11  14  8
12  16  8
12  17  8
13  15  8
14  18  8
15  19  8
16  20  8
17  22  8
18  19  8
20  24  8
22  24  8
25  26  8
25  27  8
26  28  8
27  29  8
28  30  8
29  30  8

$$$$
