44317088
  -OEChem-09292322212D

 59 62  0     0  0  0  0  0  0999 V2000
    2.8660   -7.2694    0.0000 Cl  0  0  0  0  0  0  0  0  0  0  0  0
    5.4071    6.3184    0.0000 S   0  0  0  0  0  0  0  0  0  0  0  0
    5.4641    4.2306    0.0000 O   0  0  0  0  0  0  0  0  0  0  0  0
    2.8660   -1.2694    0.0000 N   0  0  0  0  0  0  0  0  0  0  0  0
    3.7320    4.2306    0.0000 N   0  0  0  0  0  0  0  0  0  0  0  0
    2.8660   -3.2694    0.0000 N   0  0  0  0  0  0  0  0  0  0  0  0
    3.7320    1.2306    0.0000 C   0  0  0  0  0  0  0  0  0  0  0  0
    2.8660    1.7306    0.0000 C   0  0  0  0  0  0  0  0  0  0  0  0
    4.5981    1.7306    0.0000 C   0  0  0  0  0  0  0  0  0  0  0  0
    3.7320    3.2306    0.0000 C   0  0  0  0  0  0  0  0  0  0  0  0
    2.8660    2.7306    0.0000 C   0  0  0  0  0  0  0  0  0  0  0  0
    4.5981    2.7306    0.0000 C   0  0  0  0  0  0  0  0  0  0  0  0
    3.7320    0.2306    0.0000 C   0  0  0  0  0  0  0  0  0  0  0  0
    2.8660   -0.2694    0.0000 C   0  0  0  0  0  0  0  0  0  0  0  0
    3.7320   -1.7694    0.0000 C   0  0  0  0  0  0  0  0  0  0  0  0
    2.0000   -1.7694    0.0000 C   0  0  0  0  0  0  0  0  0  0  0  0
    3.7320   -2.7694    0.0000 C   0  0  0  0  0  0  0  0  0  0  0  0
    2.0000   -2.7694    0.0000 C   0  0  0  0  0  0  0  0  0  0  0  0
    4.5981    4.7306    0.0000 C   0  0  0  0  0  0  0  0  0  0  0  0
    2.8660   -4.2694    0.0000 C   0  0  0  0  0  0  0  0  0  0  0  0
    4.5981    5.7306    0.0000 C   0  0  0  0  0  0  0  0  0  0  0  0
    2.0000   -4.7694    0.0000 C   0  0  0  0  0  0  0  0  0  0  0  0
    3.7320   -4.7694    0.0000 C   0  0  0  0  0  0  0  0  0  0  0  0
    2.0000   -5.7694    0.0000 C   0  0  0  0  0  0  0  0  0  0  0  0
    3.7320   -5.7694    0.0000 C   0  0  0  0  0  0  0  0  0  0  0  0
    3.7891    6.3184    0.0000 C   0  0  0  0  0  0  0  0  0  0  0  0
    2.8660   -6.2694    0.0000 C   0  0  0  0  0  0  0  0  0  0  0  0
    4.0981    7.2694    0.0000 C   0  0  0  0  0  0  0  0  0  0  0  0
    5.0981    7.2694    0.0000 C   0  0  0  0  0  0  0  0  0  0  0  0
    4.2690    0.9206    0.0000 H   0  0  0  0  0  0  0  0  0  0  0  0
    2.2554    1.8382    0.0000 H   0  0  0  0  0  0  0  0  0  0  0  0
    2.6540    1.1480    0.0000 H   0  0  0  0  0  0  0  0  0  0  0  0
    4.8101    1.1480    0.0000 H   0  0  0  0  0  0  0  0  0  0  0  0
    5.2087    1.8382    0.0000 H   0  0  0  0  0  0  0  0  0  0  0  0
    4.2690    3.5406    0.0000 H   0  0  0  0  0  0  0  0  0  0  0  0
    2.6540    3.3132    0.0000 H   0  0  0  0  0  0  0  0  0  0  0  0
    2.2554    2.6229    0.0000 H   0  0  0  0  0  0  0  0  0  0  0  0
    5.2087    2.6229    0.0000 H   0  0  0  0  0  0  0  0  0  0  0  0
    4.8101    3.3132    0.0000 H   0  0  0  0  0  0  0  0  0  0  0  0
    3.9441   -0.3520    0.0000 H   0  0  0  0  0  0  0  0  0  0  0  0
    4.3426    0.3382    0.0000 H   0  0  0  0  0  0  0  0  0  0  0  0
    2.6540    0.3132    0.0000 H   0  0  0  0  0  0  0  0  0  0  0  0
    2.2554   -0.3771    0.0000 H   0  0  0  0  0  0  0  0  0  0  0  0
    4.3426   -1.8771    0.0000 H   0  0  0  0  0  0  0  0  0  0  0  0
    3.9441   -1.1868    0.0000 H   0  0  0  0  0  0  0  0  0  0  0  0
    1.7880   -1.1868    0.0000 H   0  0  0  0  0  0  0  0  0  0  0  0
    1.3894   -1.8771    0.0000 H   0  0  0  0  0  0  0  0  0  0  0  0
    3.1951    4.5406    0.0000 H   0  0  0  0  0  0  0  0  0  0  0  0
    3.9441   -3.3520    0.0000 H   0  0  0  0  0  0  0  0  0  0  0  0
    4.3426   -2.6618    0.0000 H   0  0  0  0  0  0  0  0  0  0  0  0
    1.3894   -2.6618    0.0000 H   0  0  0  0  0  0  0  0  0  0  0  0
    1.7880   -3.3520    0.0000 H   0  0  0  0  0  0  0  0  0  0  0  0
    1.4631   -4.4594    0.0000 H   0  0  0  0  0  0  0  0  0  0  0  0
    4.2690   -4.4594    0.0000 H   0  0  0  0  0  0  0  0  0  0  0  0
    1.4631   -6.0794    0.0000 H   0  0  0  0  0  0  0  0  0  0  0  0
    4.2690   -6.0794    0.0000 H   0  0  0  0  0  0  0  0  0  0  0  0
    3.1994    6.1268    0.0000 H   0  0  0  0  0  0  0  0  0  0  0  0
    3.7336    7.7710    0.0000 H   0  0  0  0  0  0  0  0  0  0  0  0
    5.4625    7.7710    0.0000 H   0  0  0  0  0  0  0  0  0  0  0  0
  1 27  1  0  0  0  0
  2 21  1  0  0  0  0
  2 29  1  0  0  0  0
  3 19  2  0  0  0  0
  4 14  1  0  0  0  0
  4 15  1  0  0  0  0
  4 16  1  0  0  0  0
  5 10  1  0  0  0  0
  5 19  1  0  0  0  0
  5 48  1  0  0  0  0
  6 17  1  0  0  0  0
  6 18  1  0  0  0  0
  6 20  1  0  0  0  0
  7  8  1  0  0  0  0
  7  9  1  0  0  0  0
  7 13  1  0  0  0  0
  7 30  1  0  0  0  0
  8 11  1  0  0  0  0
  8 31  1  0  0  0  0
  8 32  1  0  0  0  0
  9 12  1  0  0  0  0
  9 33  1  0  0  0  0
  9 34  1  0  0  0  0
 10 11  1  0  0  0  0
 10 12  1  0  0  0  0
 10 35  1  0  0  0  0
 11 36  1  0  0  0  0
 11 37  1  0  0  0  0
 12 38  1  0  0  0  0
 12 39  1  0  0  0  0
 13 14  1  0  0  0  0
 13 40  1  0  0  0  0
 13 41  1  0  0  0  0
 14 42  1  0  0  0  0
 14 43  1  0  0  0  0
 15 17  1  0  0  0  0
 15 44  1  0  0  0  0
 15 45  1  0  0  0  0
 16 18  1  0  0  0  0
 16 46  1  0  0  0  0
 16 47  1  0  0  0  0
 17 49  1  0  0  0  0
 17 50  1  0  0  0  0
 18 51  1  0  0  0  0
 18 52  1  0  0  0  0
 19 21  1  0  0  0  0
 20 22  2  0  0  0  0
 20 23  1  0  0  0  0
 21 26  2  0  0  0  0
 22 24  1  0  0  0  0
 22 53  1  0  0  0  0
 23 25  2  0  0  0  0
 23 54  1  0  0  0  0
 24 27  2  0  0  0  0
 24 55  1  0  0  0  0
 25 27  1  0  0  0  0
 25 56  1  0  0  0  0
 26 28  1  0  0  0  0
 26 57  1  0  0  0  0
 28 29  2  0  0  0  0
 28 58  1  0  0  0  0
 29 59  1  0  0  0  0
M  END
> <PUBCHEM_COMPOUND_CID>
44317088

> <PUBCHEM_COMPOUND_CANONICALIZED>
1

> <PUBCHEM_CACTVS_COMPLEXITY>
512

> <PUBCHEM_CACTVS_HBOND_ACCEPTOR>
4

> <PUBCHEM_CACTVS_HBOND_DONOR>
1

> <PUBCHEM_CACTVS_ROTATABLE_BOND>
6

> <PUBCHEM_CACTVS_SUBSKEYS>
AAADceB7IABEAAAAAAAAAAAAAAAAASAAAAA8YIAAAAAAAAABwAAAHgYQAAAADSrF0CSwwYPAAAiMACVSUACDAIAlDxBIiJkIZsgIYDLhl5GUIQhglgDoyYcYgIAOAABAAAAAAAAQAIAAAAAAAAAAAAAAAA==

> <PUBCHEM_IUPAC_OPENEYE_NAME>
N-[4-[2-[4-(4-chlorophenyl)piperazin-1-yl]ethyl]cyclohexyl]thiophene-2-carboxamide

> <PUBCHEM_IUPAC_CAS_NAME>
N-[4-[2-[4-(4-chlorophenyl)-1-piperazinyl]ethyl]cyclohexyl]-2-thiophenecarboxamide

> <PUBCHEM_IUPAC_NAME_MARKUP>
<I>N</I>-[4-[2-[4-(4-chlorophenyl)piperazin-1-yl]ethyl]cyclohexyl]thiophene-2-carboxamide

> <PUBCHEM_IUPAC_NAME>
N-[4-[2-[4-(4-chlorophenyl)piperazin-1-yl]ethyl]cyclohexyl]thiophene-2-carboxamide

> <PUBCHEM_IUPAC_SYSTEMATIC_NAME>
N-[4-[2-[4-(4-chlorophenyl)piperazin-1-yl]ethyl]cyclohexyl]thiophene-2-carboxamide

> <PUBCHEM_IUPAC_TRADITIONAL_NAME>
N-[4-[2-[4-(4-chlorophenyl)piperazino]ethyl]cyclohexyl]thiophene-2-carboxamide

> <PUBCHEM_IUPAC_INCHI>
InChI=1S/C23H30ClN3OS/c24-19-5-9-21(10-6-19)27-15-13-26(14-16-27)12-11-18-3-7-20(8-4-18)25-23(28)22-2-1-17-29-22/h1-2,5-6,9-10,17-18,20H,3-4,7-8,11-16H2,(H,25,28)

> <PUBCHEM_IUPAC_INCHIKEY>
BMOMPPTVRLYMKB-UHFFFAOYSA-N

> <PUBCHEM_XLOGP3_AA>
5.4

> <PUBCHEM_EXACT_MASS>
431.1798115

> <PUBCHEM_MOLECULAR_FORMULA>
C23H30ClN3OS

> <PUBCHEM_MOLECULAR_WEIGHT>
432.0

> <PUBCHEM_OPENEYE_CAN_SMILES>
C1CC(CCC1CCN2CCN(CC2)C3=CC=C(C=C3)Cl)NC(=O)C4=CC=CS4

> <PUBCHEM_OPENEYE_ISO_SMILES>
C1CC(CCC1CCN2CCN(CC2)C3=CC=C(C=C3)Cl)NC(=O)C4=CC=CS4

> <PUBCHEM_CACTVS_TPSA>
63.8

> <PUBCHEM_MONOISOTOPIC_WEIGHT>
431.1798115

> <PUBCHEM_TOTAL_CHARGE>
0

> <PUBCHEM_HEAVY_ATOM_COUNT>
29

> <PUBCHEM_ATOM_DEF_STEREO_COUNT>
0

> <PUBCHEM_ATOM_UDEF_STEREO_COUNT>
0

> <PUBCHEM_BOND_DEF_STEREO_COUNT>
0

> <PUBCHEM_BOND_UDEF_STEREO_COUNT>
0

> <PUBCHEM_ISOTOPIC_ATOM_COUNT>
0

> <PUBCHEM_COMPONENT_COUNT>
1

> <PUBCHEM_CACTVS_TAUTO_COUNT>
-1

> <PUBCHEM_COORDINATE_TYPE>
1
5
255

> <PUBCHEM_BONDANNOTATIONS>
2  21  8
2  29  8
20  22  8
20  23  8
21  26  8
22  24  8
23  25  8
24  27  8
25  27  8
26  28  8
28  29  8

$$$$
