44433348
  -OEChem-09292322262D

 81 84  0     1  0  0  0  0  0999 V2000
    4.5981   -0.7500    0.0000 S   0  0  0  0  0  0  0  0  0  0  0  0
    5.5981   -0.7500    0.0000 O   0  0  0  0  0  0  0  0  0  0  0  0
    3.5981   -0.7500    0.0000 O   0  0  0  0  0  0  0  0  0  0  0  0
   11.5263    2.2500    0.0000 O   0  0  0  0  0  0  0  0  0  0  0  0
    2.8660   -3.7500    0.0000 O   0  0  0  0  0  0  0  0  0  0  0  0
    4.5981   -4.7500    0.0000 O   0  0  0  0  0  0  0  0  0  0  0  0
    8.0622    2.2500    0.0000 N   0  0  0  0  0  0  0  0  0  0  0  0
    4.5981    0.2500    0.0000 N   0  0  3  0  0  0  0  0  0  0  0  0
    9.7942    3.2500    0.0000 N   0  0  0  0  0  0  0  0  0  0  0  0
    7.1962    1.7500    0.0000 C   0  0  0  0  0  0  0  0  0  0  0  0
    5.4641    0.7500    0.0000 C   0  0  0  0  0  0  0  0  0  0  0  0
    7.1962    0.7500    0.0000 C   0  0  0  0  0  0  0  0  0  0  0  0
    6.3301    2.2500    0.0000 C   0  0  0  0  0  0  0  0  0  0  0  0
    6.3301    0.2500    0.0000 C   0  0  0  0  0  0  0  0  0  0  0  0
    5.4641    1.7500    0.0000 C   0  0  0  0  0  0  0  0  0  0  0  0
    8.0622    3.2500    0.0000 C   0  0  0  0  0  0  0  0  0  0  0  0
    8.9282    1.7500    0.0000 C   0  0  0  0  0  0  0  0  0  0  0  0
    8.9282    3.7500    0.0000 C   0  0  0  0  0  0  0  0  0  0  0  0
    9.7942    2.2500    0.0000 C   0  0  0  0  0  0  0  0  0  0  0  0
    3.7320    0.7500    0.0000 C   0  0  0  0  0  0  0  0  0  0  0  0
   10.6603    3.7500    0.0000 C   0  0  0  0  0  0  0  0  0  0  0  0
    4.5981   -1.7500    0.0000 C   0  0  0  0  0  0  0  0  0  0  0  0
    3.7320    1.7500    0.0000 C   0  0  0  0  0  0  0  0  0  0  0  0
   11.5263    3.2500    0.0000 C   0  0  0  0  0  0  0  0  0  0  0  0
   10.6603    4.7500    0.0000 C   0  0  0  0  0  0  0  0  0  0  0  0
    3.7320   -2.2500    0.0000 C   0  0  0  0  0  0  0  0  0  0  0  0
    5.4641   -2.2500    0.0000 C   0  0  0  0  0  0  0  0  0  0  0  0
   12.3923    3.7500    0.0000 C   0  0  0  0  0  0  0  0  0  0  0  0
   11.5263    5.2500    0.0000 C   0  0  0  0  0  0  0  0  0  0  0  0
    3.7320   -3.2500    0.0000 C   0  0  0  0  0  0  0  0  0  0  0  0
    5.4641   -3.2500    0.0000 C   0  0  0  0  0  0  0  0  0  0  0  0
   12.3923    4.7500    0.0000 C   0  0  0  0  0  0  0  0  0  0  0  0
    4.5981   -3.7500    0.0000 C   0  0  0  0  0  0  0  0  0  0  0  0
   12.3923    1.7500    0.0000 C   0  0  0  0  0  0  0  0  0  0  0  0
   12.3923    0.7500    0.0000 C   0  0  0  0  0  0  0  0  0  0  0  0
   13.2583    2.2500    0.0000 C   0  0  0  0  0  0  0  0  0  0  0  0
    2.0000   -3.2500    0.0000 C   0  0  0  0  0  0  0  0  0  0  0  0
    5.4641   -5.2500    0.0000 C   0  0  0  0  0  0  0  0  0  0  0  0
    7.7331    1.4400    0.0000 H   0  0  0  0  0  0  0  0  0  0  0  0
    5.4641    0.1300    0.0000 H   0  0  0  0  0  0  0  0  0  0  0  0
    7.4082    0.1674    0.0000 H   0  0  0  0  0  0  0  0  0  0  0  0
    7.8067    0.8577    0.0000 H   0  0  0  0  0  0  0  0  0  0  0  0
    6.7287    2.7250    0.0000 H   0  0  0  0  0  0  0  0  0  0  0  0
    5.9316    2.7250    0.0000 H   0  0  0  0  0  0  0  0  0  0  0  0
    5.9316   -0.2249    0.0000 H   0  0  0  0  0  0  0  0  0  0  0  0
    6.7287   -0.2249    0.0000 H   0  0  0  0  0  0  0  0  0  0  0  0
    5.2520    2.3326    0.0000 H   0  0  0  0  0  0  0  0  0  0  0  0
    4.8535    1.6423    0.0000 H   0  0  0  0  0  0  0  0  0  0  0  0
    7.8501    3.8326    0.0000 H   0  0  0  0  0  0  0  0  0  0  0  0
    7.4516    3.1423    0.0000 H   0  0  0  0  0  0  0  0  0  0  0  0
    8.5297    1.2750    0.0000 H   0  0  0  0  0  0  0  0  0  0  0  0
    9.3267    1.2750    0.0000 H   0  0  0  0  0  0  0  0  0  0  0  0
    9.3267    4.2250    0.0000 H   0  0  0  0  0  0  0  0  0  0  0  0
    8.5297    4.2250    0.0000 H   0  0  0  0  0  0  0  0  0  0  0  0
   10.0063    1.6674    0.0000 H   0  0  0  0  0  0  0  0  0  0  0  0
   10.4048    2.3577    0.0000 H   0  0  0  0  0  0  0  0  0  0  0  0
    3.1215    0.8577    0.0000 H   0  0  0  0  0  0  0  0  0  0  0  0
    3.5200    0.1674    0.0000 H   0  0  0  0  0  0  0  0  0  0  0  0
    4.3520    1.7500    0.0000 H   0  0  0  0  0  0  0  0  0  0  0  0
    3.7320    2.3700    0.0000 H   0  0  0  0  0  0  0  0  0  0  0  0
    3.1120    1.7500    0.0000 H   0  0  0  0  0  0  0  0  0  0  0  0
   10.1233    5.0600    0.0000 H   0  0  0  0  0  0  0  0  0  0  0  0
    3.1951   -1.9400    0.0000 H   0  0  0  0  0  0  0  0  0  0  0  0
    6.0010   -1.9400    0.0000 H   0  0  0  0  0  0  0  0  0  0  0  0
   12.9292    3.4400    0.0000 H   0  0  0  0  0  0  0  0  0  0  0  0
   11.5263    5.8700    0.0000 H   0  0  0  0  0  0  0  0  0  0  0  0
    6.0010   -3.5600    0.0000 H   0  0  0  0  0  0  0  0  0  0  0  0
   12.9292    5.0600    0.0000 H   0  0  0  0  0  0  0  0  0  0  0  0
   11.8554    1.4400    0.0000 H   0  0  0  0  0  0  0  0  0  0  0  0
   11.7723    0.7500    0.0000 H   0  0  0  0  0  0  0  0  0  0  0  0
   12.3923    0.1300    0.0000 H   0  0  0  0  0  0  0  0  0  0  0  0
   13.0123    0.7500    0.0000 H   0  0  0  0  0  0  0  0  0  0  0  0
   13.5683    1.7131    0.0000 H   0  0  0  0  0  0  0  0  0  0  0  0
   13.7953    2.5600    0.0000 H   0  0  0  0  0  0  0  0  0  0  0  0
   12.9483    2.7869    0.0000 H   0  0  0  0  0  0  0  0  0  0  0  0
    2.3100   -2.7131    0.0000 H   0  0  0  0  0  0  0  0  0  0  0  0
    1.4631   -2.9400    0.0000 H   0  0  0  0  0  0  0  0  0  0  0  0
    1.6900   -3.7869    0.0000 H   0  0  0  0  0  0  0  0  0  0  0  0
    5.1541   -5.7869    0.0000 H   0  0  0  0  0  0  0  0  0  0  0  0
    6.0010   -5.5600    0.0000 H   0  0  0  0  0  0  0  0  0  0  0  0
    5.7741   -4.7131    0.0000 H   0  0  0  0  0  0  0  0  0  0  0  0
  1  2  2  0  0  0  0
  1  3  2  0  0  0  0
  1  8  1  0  0  0  0
  1 22  1  0  0  0  0
  4 24  1  0  0  0  0
  4 34  1  0  0  0  0
  5 30  1  0  0  0  0
  5 37  1  0  0  0  0
  6 33  1  0  0  0  0
  6 38  1  0  0  0  0
  7 10  1  0  0  0  0
  7 16  1  0  0  0  0
  7 17  1  0  0  0  0
  8 11  1  0  0  0  0
  8 20  1  0  0  0  0
  9 18  1  0  0  0  0
  9 19  1  0  0  0  0
  9 21  1  0  0  0  0
 10 12  1  0  0  0  0
 10 13  1  0  0  0  0
 10 39  1  0  0  0  0
 11 14  1  0  0  0  0
 11 15  1  0  0  0  0
 11 40  1  0  0  0  0
 12 14  1  0  0  0  0
 12 41  1  0  0  0  0
 12 42  1  0  0  0  0
 13 15  1  0  0  0  0
 13 43  1  0  0  0  0
 13 44  1  0  0  0  0
 14 45  1  0  0  0  0
 14 46  1  0  0  0  0
 15 47  1  0  0  0  0
 15 48  1  0  0  0  0
 16 18  1  0  0  0  0
 16 49  1  0  0  0  0
 16 50  1  0  0  0  0
 17 19  1  0  0  0  0
 17 51  1  0  0  0  0
 17 52  1  0  0  0  0
 18 53  1  0  0  0  0
 18 54  1  0  0  0  0
 19 55  1  0  0  0  0
 19 56  1  0  0  0  0
 20 23  1  0  0  0  0
 20 57  1  0  0  0  0
 20 58  1  0  0  0  0
 21 24  1  0  0  0  0
 21 25  2  0  0  0  0
 22 26  2  0  0  0  0
 22 27  1  0  0  0  0
 23 59  1  0  0  0  0
 23 60  1  0  0  0  0
 23 61  1  0  0  0  0
 24 28  2  0  0  0  0
 25 29  1  0  0  0  0
 25 62  1  0  0  0  0
 26 30  1  0  0  0  0
 26 63  1  0  0  0  0
 27 31  2  0  0  0  0
 27 64  1  0  0  0  0
 28 32  1  0  0  0  0
 28 65  1  0  0  0  0
 29 32  2  0  0  0  0
 29 66  1  0  0  0  0
 30 33  2  0  0  0  0
 31 33  1  0  0  0  0
 31 67  1  0  0  0  0
 32 68  1  0  0  0  0
 34 35  1  0  0  0  0
 34 36  1  0  0  0  0
 34 69  1  0  0  0  0
 35 70  1  0  0  0  0
 35 71  1  0  0  0  0
 35 72  1  0  0  0  0
 36 73  1  0  0  0  0
 36 74  1  0  0  0  0
 36 75  1  0  0  0  0
 37 76  1  0  0  0  0
 37 77  1  0  0  0  0
 37 78  1  0  0  0  0
 38 79  1  0  0  0  0
 38 80  1  0  0  0  0
 38 81  1  0  0  0  0
M  END
> <PUBCHEM_COMPOUND_CID>
44433348

> <PUBCHEM_COMPOUND_CANONICALIZED>
1

> <PUBCHEM_CACTVS_COMPLEXITY>
806

> <PUBCHEM_CACTVS_HBOND_ACCEPTOR>
8

> <PUBCHEM_CACTVS_HBOND_DONOR>
0

> <PUBCHEM_CACTVS_ROTATABLE_BOND>
10

> <PUBCHEM_CACTVS_SUBSKEYS>
AAADcfB7OABAAAAAAAAAAAAAAAAAAAAAAAA8YMEAAAAAAAABQAAAHgQAQAAACDzh0AYyx4MABAKAACRCQHDCCBAhIgAIiBgP7IgPZiLEsZuXOCrkwBHa6AeQQAAAAIAABAAAUAABAQAIAACgAAAAAAAAAA==

> <PUBCHEM_IUPAC_OPENEYE_NAME>
N-ethyl-N-[4-[4-(2-isopropoxyphenyl)piperazin-1-yl]cyclohexyl]-3,4-dimethoxy-benzenesulfonamide

> <PUBCHEM_IUPAC_CAS_NAME>
N-ethyl-3,4-dimethoxy-N-[4-[4-(2-propan-2-yloxyphenyl)-1-piperazinyl]cyclohexyl]benzenesulfonamide

> <PUBCHEM_IUPAC_NAME_MARKUP>
<I>N</I>-ethyl-3,4-dimethoxy-<I>N</I>-[4-[4-(2-propan-2-yloxyphenyl)piperazin-1-yl]cyclohexyl]benzenesulfonamide

> <PUBCHEM_IUPAC_NAME>
N-ethyl-3,4-dimethoxy-N-[4-[4-(2-propan-2-yloxyphenyl)piperazin-1-yl]cyclohexyl]benzenesulfonamide

> <PUBCHEM_IUPAC_SYSTEMATIC_NAME>
N-ethyl-3,4-dimethoxy-N-[4-[4-(2-propan-2-yloxyphenyl)piperazin-1-yl]cyclohexyl]benzenesulfonamide

> <PUBCHEM_IUPAC_TRADITIONAL_NAME>
N-ethyl-N-[4-[4-(2-isopropoxyphenyl)piperazino]cyclohexyl]-3,4-dimethoxy-benzenesulfonamide

> <PUBCHEM_IUPAC_INCHI>
InChI=1S/C29H43N3O5S/c1-6-32(38(33,34)25-15-16-28(35-4)29(21-25)36-5)24-13-11-23(12-14-24)30-17-19-31(20-18-30)26-9-7-8-10-27(26)37-22(2)3/h7-10,15-16,21-24H,6,11-14,17-20H2,1-5H3

> <PUBCHEM_IUPAC_INCHIKEY>
LVRHAAKFXRNPFH-UHFFFAOYSA-N

> <PUBCHEM_XLOGP3_AA>
5.1

> <PUBCHEM_EXACT_MASS>
545.29234265

> <PUBCHEM_MOLECULAR_FORMULA>
C29H43N3O5S

> <PUBCHEM_MOLECULAR_WEIGHT>
545.7

> <PUBCHEM_OPENEYE_CAN_SMILES>
CCN(C1CCC(CC1)N2CCN(CC2)C3=CC=CC=C3OC(C)C)S(=O)(=O)C4=CC(=C(C=C4)OC)OC

> <PUBCHEM_OPENEYE_ISO_SMILES>
CCN(C1CCC(CC1)N2CCN(CC2)C3=CC=CC=C3OC(C)C)S(=O)(=O)C4=CC(=C(C=C4)OC)OC

> <PUBCHEM_CACTVS_TPSA>
79.9

> <PUBCHEM_MONOISOTOPIC_WEIGHT>
545.29234265

> <PUBCHEM_TOTAL_CHARGE>
0

> <PUBCHEM_HEAVY_ATOM_COUNT>
38

> <PUBCHEM_ATOM_DEF_STEREO_COUNT>
0

> <PUBCHEM_ATOM_UDEF_STEREO_COUNT>
0

> <PUBCHEM_BOND_DEF_STEREO_COUNT>
0

> <PUBCHEM_BOND_UDEF_STEREO_COUNT>
0

> <PUBCHEM_ISOTOPIC_ATOM_COUNT>
0

> <PUBCHEM_COMPONENT_COUNT>
1

> <PUBCHEM_CACTVS_TAUTO_COUNT>
-1

> <PUBCHEM_COORDINATE_TYPE>
1
5
255

> <PUBCHEM_BONDANNOTATIONS>
21  24  8
21  25  8
22  26  8
22  27  8
24  28  8
25  29  8
26  30  8
27  31  8
28  32  8
29  32  8
30  33  8
31  33  8

$$$$
