155535866
  -OEChem-09292322412D

 65 67  0     1  0  0  0  0  0999 V2000
   13.6648    9.0482    0.0000 Cl  0  0  0  0  0  0  0  0  0  0  0  0
    6.6424   11.0468    0.0000 Cl  0  0  0  0  0  0  0  0  0  0  0  0
    5.2988    0.7540    0.0000 O   0  0  0  0  0  0  0  0  0  0  0  0
    9.2988    4.2181    0.0000 N   0  0  3  0  0  0  0  0  0  0  0  0
    5.2988    2.4860    0.0000 N   0  0  0  0  0  0  0  0  0  0  0  0
    3.2152    0.8153    0.0000 N   0  0  0  0  0  0  0  0  0  0  0  0
   10.7988    5.0841    0.0000 C   0  0  3  0  0  0  0  0  0  0  0  0
   11.6648    5.5841    0.0000 C   0  0  3  0  0  0  0  0  0  0  0  0
   11.6648    4.5841    0.0000 C   0  0  0  0  0  0  0  0  0  0  0  0
    9.7988    5.0841    0.0000 C   0  0  0  0  0  0  0  0  0  0  0  0
   12.1648    6.4501    0.0000 C   0  0  0  0  0  0  0  0  0  0  0  0
    8.2988    4.2181    0.0000 C   0  0  0  0  0  0  0  0  0  0  0  0
    9.7988    3.3520    0.0000 C   0  0  0  0  0  0  0  0  0  0  0  0
   13.1648    6.4501    0.0000 C   0  0  0  0  0  0  0  0  0  0  0  0
   11.6648    7.3162    0.0000 C   0  0  0  0  0  0  0  0  0  0  0  0
    7.7988    3.3520    0.0000 C   0  0  0  0  0  0  0  0  0  0  0  0
    9.2988    2.4860    0.0000 C   0  0  0  0  0  0  0  0  0  0  0  0
   13.6648    7.3162    0.0000 C   0  0  0  0  0  0  0  0  0  0  0  0
   12.1648    8.1822    0.0000 C   0  0  0  0  0  0  0  0  0  0  0  0
    6.7988    3.3520    0.0000 C   0  0  0  0  0  0  0  0  0  0  0  0
   13.1648    8.1822    0.0000 C   0  0  0  0  0  0  0  0  0  0  0  0
    9.7988    1.6200    0.0000 C   0  0  0  0  0  0  0  0  0  0  0  0
    6.2988    2.4860    0.0000 C   0  0  0  0  0  0  0  0  0  0  0  0
    4.7988    1.6200    0.0000 C   0  0  0  0  0  0  0  0  0  0  0  0
    3.7988    1.6200    0.0000 C   0  0  0  0  0  0  0  0  0  0  0  0
    3.2152    2.4247    0.0000 C   0  0  0  0  0  0  0  0  0  0  0  0
    2.2690    1.1200    0.0000 C   0  0  0  0  0  0  0  0  0  0  0  0
    2.2690    2.1200    0.0000 C   0  0  0  0  0  0  0  0  0  0  0  0
    1.4030    0.6200    0.0000 C   0  0  0  0  0  0  0  0  0  0  0  0
    1.4030    2.6200    0.0000 C   0  0  0  0  0  0  0  0  0  0  0  0
    0.5369    1.1200    0.0000 C   0  0  0  0  0  0  0  0  0  0  0  0
    0.5369    2.1200    0.0000 C   0  0  0  0  0  0  0  0  0  0  0  0
   10.6383    5.6830    0.0000 H   0  0  0  0  0  0  0  0  0  0  0  0
   11.2264    6.0225    0.0000 H   0  0  0  0  0  0  0  0  0  0  0  0
   11.4528    4.0015    0.0000 H   0  0  0  0  0  0  0  0  0  0  0  0
   12.2754    4.4764    0.0000 H   0  0  0  0  0  0  0  0  0  0  0  0
    9.9065    5.6947    0.0000 H   0  0  0  0  0  0  0  0  0  0  0  0
    9.2162    5.2962    0.0000 H   0  0  0  0  0  0  0  0  0  0  0  0
    8.4065    4.8287    0.0000 H   0  0  0  0  0  0  0  0  0  0  0  0
    7.7162    4.4301    0.0000 H   0  0  0  0  0  0  0  0  0  0  0  0
   10.2738    2.9535    0.0000 H   0  0  0  0  0  0  0  0  0  0  0  0
   10.2738    3.7506    0.0000 H   0  0  0  0  0  0  0  0  0  0  0  0
   13.4748    5.9132    0.0000 H   0  0  0  0  0  0  0  0  0  0  0  0
   11.0448    7.3162    0.0000 H   0  0  0  0  0  0  0  0  0  0  0  0
    7.6912    2.7415    0.0000 H   0  0  0  0  0  0  0  0  0  0  0  0
    8.3814    3.1400    0.0000 H   0  0  0  0  0  0  0  0  0  0  0  0
    8.8239    2.8846    0.0000 H   0  0  0  0  0  0  0  0  0  0  0  0
    8.8239    2.0875    0.0000 H   0  0  0  0  0  0  0  0  0  0  0  0
   14.2848    7.3162    0.0000 H   0  0  0  0  0  0  0  0  0  0  0  0
   11.8548    8.7191    0.0000 H   0  0  0  0  0  0  0  0  0  0  0  0
    6.9065    3.9626    0.0000 H   0  0  0  0  0  0  0  0  0  0  0  0
    6.2162    3.5641    0.0000 H   0  0  0  0  0  0  0  0  0  0  0  0
    9.2619    1.3100    0.0000 H   0  0  0  0  0  0  0  0  0  0  0  0
   10.1088    1.0831    0.0000 H   0  0  0  0  0  0  0  0  0  0  0  0
   10.3358    1.9300    0.0000 H   0  0  0  0  0  0  0  0  0  0  0  0
    6.1912    1.8754    0.0000 H   0  0  0  0  0  0  0  0  0  0  0  0
    6.8814    2.2740    0.0000 H   0  0  0  0  0  0  0  0  0  0  0  0
    4.9888    3.0230    0.0000 H   0  0  0  0  0  0  0  0  0  0  0  0
    3.4078    0.2259    0.0000 H   0  0  0  0  0  0  0  0  0  0  0  0
    3.4078    3.0140    0.0000 H   0  0  0  0  0  0  0  0  0  0  0  0
    1.4030    0.0000    0.0000 H   0  0  0  0  0  0  0  0  0  0  0  0
    1.4030    3.2400    0.0000 H   0  0  0  0  0  0  0  0  0  0  0  0
    0.0000    0.8100    0.0000 H   0  0  0  0  0  0  0  0  0  0  0  0
    0.0000    2.4300    0.0000 H   0  0  0  0  0  0  0  0  0  0  0  0
    7.6424   11.0468    0.0000 H   0  0  0  0  0  0  0  0  0  0  0  0
  1 21  1  0  0  0  0
  2 65  1  0  0  0  0
  3 24  2  0  0  0  0
  4 10  1  0  0  0  0
  4 12  1  0  0  0  0
  4 13  1  0  0  0  0
  5 23  1  0  0  0  0
  5 24  1  0  0  0  0
  5 58  1  0  0  0  0
  6 25  1  0  0  0  0
  6 27  1  0  0  0  0
  6 59  1  0  0  0  0
  7  8  1  0  0  0  0
  7  9  1  0  0  0  0
  7 10  1  0  0  0  0
  7 33  1  0  0  0  0
  8  9  1  0  0  0  0
  8 11  1  0  0  0  0
  8 34  1  0  0  0  0
  9 35  1  0  0  0  0
  9 36  1  0  0  0  0
 10 37  1  0  0  0  0
 10 38  1  0  0  0  0
 11 14  2  0  0  0  0
 11 15  1  0  0  0  0
 12 16  1  0  0  0  0
 12 39  1  0  0  0  0
 12 40  1  0  0  0  0
 13 17  1  0  0  0  0
 13 41  1  0  0  0  0
 13 42  1  0  0  0  0
 14 18  1  0  0  0  0
 14 43  1  0  0  0  0
 15 19  2  0  0  0  0
 15 44  1  0  0  0  0
 16 20  1  0  0  0  0
 16 45  1  0  0  0  0
 16 46  1  0  0  0  0
 17 22  1  0  0  0  0
 17 47  1  0  0  0  0
 17 48  1  0  0  0  0
 18 21  2  0  0  0  0
 18 49  1  0  0  0  0
 19 21  1  0  0  0  0
 19 50  1  0  0  0  0
 20 23  1  0  0  0  0
 20 51  1  0  0  0  0
 20 52  1  0  0  0  0
 22 53  1  0  0  0  0
 22 54  1  0  0  0  0
 22 55  1  0  0  0  0
 23 56  1  0  0  0  0
 23 57  1  0  0  0  0
 24 25  1  0  0  0  0
 25 26  2  0  0  0  0
 26 28  1  0  0  0  0
 26 60  1  0  0  0  0
 27 28  1  0  0  0  0
 27 29  2  0  0  0  0
 28 30  2  0  0  0  0
 29 31  1  0  0  0  0
 29 61  1  0  0  0  0
 30 32  1  0  0  0  0
 30 62  1  0  0  0  0
 31 32  2  0  0  0  0
 31 63  1  0  0  0  0
 32 64  1  0  0  0  0
M  END
> <PUBCHEM_COMPOUND_CID>
155535866

> <PUBCHEM_COMPOUND_CANONICALIZED>
1

> <PUBCHEM_CACTVS_COMPLEXITY>
565

> <PUBCHEM_CACTVS_HBOND_ACCEPTOR>
2

> <PUBCHEM_CACTVS_HBOND_DONOR>
3

> <PUBCHEM_CACTVS_ROTATABLE_BOND>
11

> <PUBCHEM_CACTVS_SUBSKEYS>
AAADcfB7IAAGAAAAAAAAAAAAGAAAAWAAAAAwYAAAAAAAAFgB9AAAHgIQAAAADQrBniQywPPJkACoAyVyVACCgCAnByAImaG4ZtgIYPLBl7GUIQhglgDIyYcYicCehAAAAAACAAAIAAAAAAQAAAAAAAAAAA==

> <PUBCHEM_IUPAC_OPENEYE_NAME>
N-[4-[[2-(4-chlorophenyl)cyclopropyl]methyl-propyl-amino]butyl]-1H-indole-2-carboxamide;hydrochloride

> <PUBCHEM_IUPAC_CAS_NAME>
N-[4-[[2-(4-chlorophenyl)cyclopropyl]methyl-propylamino]butyl]-1H-indole-2-carboxamide;hydrochloride

> <PUBCHEM_IUPAC_NAME_MARKUP>
<I>N</I>-[4-[[2-(4-chlorophenyl)cyclopropyl]methyl-propylamino]butyl]-1<I>H</I>-indole-2-carboxamide;hydrochloride

> <PUBCHEM_IUPAC_NAME>
N-[4-[[2-(4-chlorophenyl)cyclopropyl]methyl-propylamino]butyl]-1H-indole-2-carboxamide;hydrochloride

> <PUBCHEM_IUPAC_SYSTEMATIC_NAME>
N-[4-[[2-(4-chlorophenyl)cyclopropyl]methyl-propyl-amino]butyl]-1H-indole-2-carboxamide;hydrochloride

> <PUBCHEM_IUPAC_TRADITIONAL_NAME>
N-[4-[[2-(4-chlorophenyl)cyclopropyl]methyl-propyl-amino]butyl]-1H-indole-2-carboxamide;hydrochloride

> <PUBCHEM_IUPAC_INCHI>
InChI=1S/C26H32ClN3O.ClH/c1-2-14-30(18-21-16-23(21)19-9-11-22(27)12-10-19)15-6-5-13-28-26(31)25-17-20-7-3-4-8-24(20)29-25;/h3-4,7-12,17,21,23,29H,2,5-6,13-16,18H2,1H3,(H,28,31);1H

> <PUBCHEM_IUPAC_INCHIKEY>
OYWQSCWALWFQRR-UHFFFAOYSA-N

> <PUBCHEM_EXACT_MASS>
473.2000681

> <PUBCHEM_MOLECULAR_FORMULA>
C26H33Cl2N3O

> <PUBCHEM_MOLECULAR_WEIGHT>
474.5

> <PUBCHEM_OPENEYE_CAN_SMILES>
CCCN(CCCCNC(=O)C1=CC2=CC=CC=C2N1)CC3CC3C4=CC=C(C=C4)Cl.Cl

> <PUBCHEM_OPENEYE_ISO_SMILES>
CCCN(CCCCNC(=O)C1=CC2=CC=CC=C2N1)CC3CC3C4=CC=C(C=C4)Cl.Cl

> <PUBCHEM_CACTVS_TPSA>
48.1

> <PUBCHEM_MONOISOTOPIC_WEIGHT>
473.2000681

> <PUBCHEM_TOTAL_CHARGE>
0

> <PUBCHEM_HEAVY_ATOM_COUNT>
32

> <PUBCHEM_ATOM_DEF_STEREO_COUNT>
0

> <PUBCHEM_ATOM_UDEF_STEREO_COUNT>
2

> <PUBCHEM_BOND_DEF_STEREO_COUNT>
0

> <PUBCHEM_BOND_UDEF_STEREO_COUNT>
0

> <PUBCHEM_ISOTOPIC_ATOM_COUNT>
0

> <PUBCHEM_COMPONENT_COUNT>
2

> <PUBCHEM_CACTVS_TAUTO_COUNT>
-1

> <PUBCHEM_COORDINATE_TYPE>
1
5
255

> <PUBCHEM_BONDANNOTATIONS>
11  14  8
11  15  8
14  18  8
15  19  8
18  21  8
19  21  8
25  26  8
26  28  8
27  28  8
27  29  8
28  30  8
29  31  8
30  32  8
31  32  8
6  25  8
6  27  8
7  10  3
8  11  3

$$$$
