44441219
  -OEChem-09292322262D

 51 55  0     1  0  0  0  0  0999 V2000
    2.0000   -0.2451    0.0000 F   0  0  0  0  0  0  0  0  0  0  0  0
    4.7684    1.9766    0.0000 O   0  0  0  0  0  0  0  0  0  0  0  0
   11.0395    1.7787    0.0000 O   0  0  0  0  0  0  0  0  0  0  0  0
    8.4414   -0.7213    0.0000 N   0  0  0  0  0  0  0  0  0  0  0  0
   12.8517   -1.0261    0.0000 N   0  0  0  0  0  0  0  0  0  0  0  0
    5.7402    1.7674    0.0000 N   0  0  0  0  0  0  0  0  0  0  0  0
   13.4353   -0.2213    0.0000 N   0  0  0  0  0  0  0  0  0  0  0  0
   10.1734   -0.7213    0.0000 C   0  0  3  0  0  0  0  0  0  0  0  0
    6.7093    0.2787    0.0000 C   0  0  0  0  0  0  0  0  0  0  0  0
    9.3074   -1.2213    0.0000 C   0  0  0  0  0  0  0  0  0  0  0  0
    7.5754   -1.2213    0.0000 C   0  0  0  0  0  0  0  0  0  0  0  0
    8.4414    0.2787    0.0000 C   0  0  0  0  0  0  0  0  0  0  0  0
    6.7093   -0.7213    0.0000 C   0  0  0  0  0  0  0  0  0  0  0  0
    7.5754    0.7787    0.0000 C   0  0  0  0  0  0  0  0  0  0  0  0
   11.0395   -1.2213    0.0000 C   0  0  0  0  0  0  0  0  0  0  0  0
   10.1734    0.2787    0.0000 C   0  0  0  0  0  0  0  0  0  0  0  0
   11.9055   -0.7213    0.0000 C   0  0  0  0  0  0  0  0  0  0  0  0
    5.8433    0.7787    0.0000 C   0  0  0  0  0  0  0  0  0  0  0  0
   11.0395    0.7787    0.0000 C   0  0  0  0  0  0  0  0  0  0  0  0
   11.9055    0.2787    0.0000 C   0  0  0  0  0  0  0  0  0  0  0  0
    4.9355    0.3735    0.0000 C   0  0  0  0  0  0  0  0  0  0  0  0
   12.8517    0.5834    0.0000 C   0  0  0  0  0  0  0  0  0  0  0  0
    4.2677    1.1178    0.0000 C   0  0  0  0  0  0  0  0  0  0  0  0
   13.1624   -1.9766    0.0000 C   0  0  0  0  0  0  0  0  0  0  0  0
    4.6249   -0.5770    0.0000 C   0  0  0  0  0  0  0  0  0  0  0  0
    3.2892    0.9116    0.0000 C   0  0  0  0  0  0  0  0  0  0  0  0
    3.6464   -0.7832    0.0000 C   0  0  0  0  0  0  0  0  0  0  0  0
    2.9785   -0.0389    0.0000 C   0  0  0  0  0  0  0  0  0  0  0  0
   10.1734   -1.3413    0.0000 H   0  0  0  0  0  0  0  0  0  0  0  0
    6.7093    0.8987    0.0000 H   0  0  0  0  0  0  0  0  0  0  0  0
    8.9089   -1.6963    0.0000 H   0  0  0  0  0  0  0  0  0  0  0  0
    9.7059   -1.6963    0.0000 H   0  0  0  0  0  0  0  0  0  0  0  0
    7.1768   -1.6963    0.0000 H   0  0  0  0  0  0  0  0  0  0  0  0
    7.9739   -1.6963    0.0000 H   0  0  0  0  0  0  0  0  0  0  0  0
    9.0520    0.1710    0.0000 H   0  0  0  0  0  0  0  0  0  0  0  0
    8.6534    0.8613    0.0000 H   0  0  0  0  0  0  0  0  0  0  0  0
    6.0988   -0.6137    0.0000 H   0  0  0  0  0  0  0  0  0  0  0  0
    6.4973   -1.3040    0.0000 H   0  0  0  0  0  0  0  0  0  0  0  0
    7.9739    1.2536    0.0000 H   0  0  0  0  0  0  0  0  0  0  0  0
    7.1768    1.2536    0.0000 H   0  0  0  0  0  0  0  0  0  0  0  0
   10.6409   -1.6963    0.0000 H   0  0  0  0  0  0  0  0  0  0  0  0
   11.4380   -1.6963    0.0000 H   0  0  0  0  0  0  0  0  0  0  0  0
    9.9614    0.8613    0.0000 H   0  0  0  0  0  0  0  0  0  0  0  0
    9.5628    0.1710    0.0000 H   0  0  0  0  0  0  0  0  0  0  0  0
   13.0443    1.1727    0.0000 H   0  0  0  0  0  0  0  0  0  0  0  0
   12.5730   -2.1692    0.0000 H   0  0  0  0  0  0  0  0  0  0  0  0
   13.3550   -2.5659    0.0000 H   0  0  0  0  0  0  0  0  0  0  0  0
   13.7517   -1.7840    0.0000 H   0  0  0  0  0  0  0  0  0  0  0  0
    5.0389   -1.0384    0.0000 H   0  0  0  0  0  0  0  0  0  0  0  0
    2.8751    1.3731    0.0000 H   0  0  0  0  0  0  0  0  0  0  0  0
    3.4537   -1.3725    0.0000 H   0  0  0  0  0  0  0  0  0  0  0  0
  1 28  1  0  0  0  0
  2  6  1  0  0  0  0
  2 23  1  0  0  0  0
  3 19  2  0  0  0  0
  4 10  1  0  0  0  0
  4 11  1  0  0  0  0
  4 12  1  0  0  0  0
  5  7  1  0  0  0  0
  5 17  1  0  0  0  0
  5 24  1  0  0  0  0
  6 18  2  0  0  0  0
  7 22  2  0  0  0  0
  8 10  1  0  0  0  0
  8 15  1  0  0  0  0
  8 16  1  0  0  0  0
  8 29  1  0  0  0  0
  9 13  1  0  0  0  0
  9 14  1  0  0  0  0
  9 18  1  0  0  0  0
  9 30  1  0  0  0  0
 10 31  1  0  0  0  0
 10 32  1  0  0  0  0
 11 13  1  0  0  0  0
 11 33  1  0  0  0  0
 11 34  1  0  0  0  0
 12 14  1  0  0  0  0
 12 35  1  0  0  0  0
 12 36  1  0  0  0  0
 13 37  1  0  0  0  0
 13 38  1  0  0  0  0
 14 39  1  0  0  0  0
 14 40  1  0  0  0  0
 15 17  1  0  0  0  0
 15 41  1  0  0  0  0
 15 42  1  0  0  0  0
 16 19  1  0  0  0  0
 16 43  1  0  0  0  0
 16 44  1  0  0  0  0
 17 20  2  0  0  0  0
 18 21  1  0  0  0  0
 19 20  1  0  0  0  0
 20 22  1  0  0  0  0
 21 23  2  0  0  0  0
 21 25  1  0  0  0  0
 22 45  1  0  0  0  0
 23 26  1  0  0  0  0
 24 46  1  0  0  0  0
 24 47  1  0  0  0  0
 24 48  1  0  0  0  0
 25 27  2  0  0  0  0
 25 49  1  0  0  0  0
 26 28  2  0  0  0  0
 26 50  1  0  0  0  0
 27 28  1  0  0  0  0
 27 51  1  0  0  0  0
M  END
> <PUBCHEM_COMPOUND_CID>
44441219

> <PUBCHEM_COMPOUND_CANONICALIZED>
1

> <PUBCHEM_CACTVS_COMPLEXITY>
585

> <PUBCHEM_CACTVS_HBOND_ACCEPTOR>
6

> <PUBCHEM_CACTVS_HBOND_DONOR>
0

> <PUBCHEM_CACTVS_ROTATABLE_BOND>
3

> <PUBCHEM_CACTVS_SUBSKEYS>
AAADceB7sQAAAAAAAAAAAAAAAAAAAWLAAAA8YIAAAAAAAFgB/AAAHwAMAAAADQzBngw+htMYAACrA7R3RgCSBAAloAA42CE+TNoIJrrA1dOEtYhmyBnIycecyeCeAAAAAAAIAACAAACAABQAAAAAAAAAAA==

> <PUBCHEM_IUPAC_OPENEYE_NAME>
6-[[4-(6-fluoro-1,2-benzoxazol-3-yl)-1-piperidyl]methyl]-1-methyl-6,7-dihydro-5H-indazol-4-one

> <PUBCHEM_IUPAC_CAS_NAME>
6-[[4-(6-fluoro-1,2-benzoxazol-3-yl)-1-piperidinyl]methyl]-1-methyl-6,7-dihydro-5H-indazol-4-one

> <PUBCHEM_IUPAC_NAME_MARKUP>
6-[[4-(6-fluoro-1,2-benzoxazol-3-yl)piperidin-1-yl]methyl]-1-methyl-6,7-dihydro-5<I>H</I>-indazol-4-one

> <PUBCHEM_IUPAC_NAME>
6-[[4-(6-fluoro-1,2-benzoxazol-3-yl)piperidin-1-yl]methyl]-1-methyl-6,7-dihydro-5H-indazol-4-one

> <PUBCHEM_IUPAC_SYSTEMATIC_NAME>
6-[[4-(6-fluoranyl-1,2-benzoxazol-3-yl)piperidin-1-yl]methyl]-1-methyl-6,7-dihydro-5H-indazol-4-one

> <PUBCHEM_IUPAC_TRADITIONAL_NAME>
6-[[4-(6-fluoroindoxazen-3-yl)piperidino]methyl]-1-methyl-6,7-dihydro-5H-indazol-4-one

> <PUBCHEM_IUPAC_INCHI>
InChI=1S/C21H23FN4O2/c1-25-18-8-13(9-19(27)17(18)11-23-25)12-26-6-4-14(5-7-26)21-16-3-2-15(22)10-20(16)28-24-21/h2-3,10-11,13-14H,4-9,12H2,1H3

> <PUBCHEM_IUPAC_INCHIKEY>
PFRKPUIPKBLDOK-UHFFFAOYSA-N

> <PUBCHEM_XLOGP3_AA>
2.5

> <PUBCHEM_EXACT_MASS>
382.18050415

> <PUBCHEM_MOLECULAR_FORMULA>
C21H23FN4O2

> <PUBCHEM_MOLECULAR_WEIGHT>
382.4

> <PUBCHEM_OPENEYE_CAN_SMILES>
CN1C2=C(C=N1)C(=O)CC(C2)CN3CCC(CC3)C4=NOC5=C4C=CC(=C5)F

> <PUBCHEM_OPENEYE_ISO_SMILES>
CN1C2=C(C=N1)C(=O)CC(C2)CN3CCC(CC3)C4=NOC5=C4C=CC(=C5)F

> <PUBCHEM_CACTVS_TPSA>
64.2

> <PUBCHEM_MONOISOTOPIC_WEIGHT>
382.18050415

> <PUBCHEM_TOTAL_CHARGE>
0

> <PUBCHEM_HEAVY_ATOM_COUNT>
28

> <PUBCHEM_ATOM_DEF_STEREO_COUNT>
0

> <PUBCHEM_ATOM_UDEF_STEREO_COUNT>
1

> <PUBCHEM_BOND_DEF_STEREO_COUNT>
0

> <PUBCHEM_BOND_UDEF_STEREO_COUNT>
0

> <PUBCHEM_ISOTOPIC_ATOM_COUNT>
0

> <PUBCHEM_COMPONENT_COUNT>
1

> <PUBCHEM_CACTVS_TAUTO_COUNT>
-1

> <PUBCHEM_COORDINATE_TYPE>
1
5
255

> <PUBCHEM_BONDANNOTATIONS>
17  20  8
18  21  8
2  23  8
2  6  8
20  22  8
21  23  8
21  25  8
23  26  8
25  27  8
26  28  8
27  28  8
5  17  8
5  7  8
6  18  8
7  22  8
8  10  3

$$$$
