138670497
  -OEChem-09292322452D

 65 69  0     1  0  0  0  0  0999 V2000
   14.9564    1.8647    0.0000 S   0  0  0  0  0  0  0  0  0  0  0  0
   18.6614    1.7671    0.0000 F   0  0  0  0  0  0  0  0  0  0  0  0
   18.6614    0.3529    0.0000 F   0  0  0  0  0  0  0  0  0  0  0  0
    6.2160    0.0600    0.0000 O   0  0  0  0  0  0  0  0  0  0  0  0
    3.5704   -1.3467    0.0000 O   0  0  0  0  0  0  0  0  0  0  0  0
    2.9945    1.1760    0.0000 O   0  0  0  0  0  0  0  0  0  0  0  0
   12.2782    0.5600    0.0000 N   0  0  3  0  0  0  0  0  0  0  0  0
    7.0820   -1.4400    0.0000 N   0  0  0  0  0  0  0  0  0  0  0  0
   16.5400    1.0600    0.0000 N   0  0  0  0  0  0  0  0  0  0  0  0
   14.9564    0.2553    0.0000 N   0  0  0  0  0  0  0  0  0  0  0  0
    2.9013   -0.6036    0.0000 N   0  0  0  0  0  0  0  0  0  0  0  0
    9.6801    0.0600    0.0000 C   0  0  0  0  0  0  0  0  0  0  0  0
    8.8141    0.5600    0.0000 C   0  0  0  0  0  0  0  0  0  0  0  0
    9.6801   -0.9400    0.0000 C   0  0  0  0  0  0  0  0  0  0  0  0
    7.9480   -0.9400    0.0000 C   0  0  0  0  0  0  0  0  0  0  0  0
    7.9480    0.0600    0.0000 C   0  0  0  0  0  0  0  0  0  0  0  0
    8.8141   -1.4400    0.0000 C   0  0  0  0  0  0  0  0  0  0  0  0
   10.5461    0.5600    0.0000 C   0  0  0  0  0  0  0  0  0  0  0  0
   11.4121    0.0600    0.0000 C   0  0  0  0  0  0  0  0  0  0  0  0
   12.2782    1.5600    0.0000 C   0  0  0  0  0  0  0  0  0  0  0  0
   13.1442    0.0600    0.0000 C   0  0  0  0  0  0  0  0  0  0  0  0
   13.1442    2.0600    0.0000 C   0  0  0  0  0  0  0  0  0  0  0  0
   14.0102    0.5600    0.0000 C   0  0  0  0  0  0  0  0  0  0  0  0
   14.0102    1.5600    0.0000 C   0  0  0  0  0  0  0  0  0  0  0  0
   17.2472    0.3529    0.0000 C   0  0  0  0  0  0  0  0  0  0  0  0
   17.2472    1.7671    0.0000 C   0  0  0  0  0  0  0  0  0  0  0  0
   17.9543    1.0600    0.0000 C   0  0  0  0  0  0  0  0  0  0  0  0
   15.5400    1.0600    0.0000 C   0  0  0  0  0  0  0  0  0  0  0  0
    6.2160   -0.9400    0.0000 C   0  0  0  0  0  0  0  0  0  0  0  0
    5.3500   -1.4400    0.0000 C   0  0  0  0  0  0  0  0  0  0  0  0
    4.4839   -0.9400    0.0000 C   0  0  0  0  0  0  0  0  0  0  0  0
    4.3794    0.0545    0.0000 C   0  0  0  0  0  0  0  0  0  0  0  0
    3.4013    0.2624    0.0000 C   0  0  0  0  0  0  0  0  0  0  0  0
    2.0000    1.2805    0.0000 C   0  0  0  0  0  0  0  0  0  0  0  0
   10.2170   -0.2500    0.0000 H   0  0  0  0  0  0  0  0  0  0  0  0
    9.2126    1.0350    0.0000 H   0  0  0  0  0  0  0  0  0  0  0  0
    8.4155    1.0350    0.0000 H   0  0  0  0  0  0  0  0  0  0  0  0
    9.8921   -1.5226    0.0000 H   0  0  0  0  0  0  0  0  0  0  0  0
   10.2907   -0.8323    0.0000 H   0  0  0  0  0  0  0  0  0  0  0  0
    7.4111   -0.6300    0.0000 H   0  0  0  0  0  0  0  0  0  0  0  0
    7.7360    0.6426    0.0000 H   0  0  0  0  0  0  0  0  0  0  0  0
    7.3375   -0.0477    0.0000 H   0  0  0  0  0  0  0  0  0  0  0  0
    8.4155   -1.9150    0.0000 H   0  0  0  0  0  0  0  0  0  0  0  0
    9.2126   -1.9150    0.0000 H   0  0  0  0  0  0  0  0  0  0  0  0
   10.9446    1.0350    0.0000 H   0  0  0  0  0  0  0  0  0  0  0  0
   10.1476    1.0350    0.0000 H   0  0  0  0  0  0  0  0  0  0  0  0
   11.0136   -0.4149    0.0000 H   0  0  0  0  0  0  0  0  0  0  0  0
   11.8107   -0.4149    0.0000 H   0  0  0  0  0  0  0  0  0  0  0  0
    7.0820   -2.0600    0.0000 H   0  0  0  0  0  0  0  0  0  0  0  0
   12.0661    2.1426    0.0000 H   0  0  0  0  0  0  0  0  0  0  0  0
   11.6676    1.4523    0.0000 H   0  0  0  0  0  0  0  0  0  0  0  0
   12.7457   -0.4149    0.0000 H   0  0  0  0  0  0  0  0  0  0  0  0
   13.5427   -0.4149    0.0000 H   0  0  0  0  0  0  0  0  0  0  0  0
   13.5427    2.5349    0.0000 H   0  0  0  0  0  0  0  0  0  0  0  0
   12.7457    2.5349    0.0000 H   0  0  0  0  0  0  0  0  0  0  0  0
   16.8087   -0.0855    0.0000 H   0  0  0  0  0  0  0  0  0  0  0  0
   17.6856   -0.0855    0.0000 H   0  0  0  0  0  0  0  0  0  0  0  0
   17.6856    2.2055    0.0000 H   0  0  0  0  0  0  0  0  0  0  0  0
   16.8087    2.2055    0.0000 H   0  0  0  0  0  0  0  0  0  0  0  0
    4.9514   -1.9150    0.0000 H   0  0  0  0  0  0  0  0  0  0  0  0
    5.7485   -1.9150    0.0000 H   0  0  0  0  0  0  0  0  0  0  0  0
    4.8402    0.4694    0.0000 H   0  0  0  0  0  0  0  0  0  0  0  0
    2.0648    1.8971    0.0000 H   0  0  0  0  0  0  0  0  0  0  0  0
    1.3834    1.3453    0.0000 H   0  0  0  0  0  0  0  0  0  0  0  0
    1.9352    0.6639    0.0000 H   0  0  0  0  0  0  0  0  0  0  0  0
  1 24  1  0  0  0  0
  1 28  1  0  0  0  0
  2 27  1  0  0  0  0
  3 27  1  0  0  0  0
  4 29  2  0  0  0  0
  5 11  1  0  0  0  0
  5 31  1  0  0  0  0
  6 33  1  0  0  0  0
  6 34  1  0  0  0  0
  7 19  1  0  0  0  0
  7 20  1  0  0  0  0
  7 21  1  0  0  0  0
  8 15  1  0  0  0  0
  8 29  1  0  0  0  0
  8 49  1  0  0  0  0
  9 25  1  0  0  0  0
  9 26  1  0  0  0  0
  9 28  1  0  0  0  0
 10 23  1  0  0  0  0
 10 28  2  0  0  0  0
 11 33  2  0  0  0  0
 12 13  1  0  0  0  0
 12 14  1  0  0  0  0
 12 18  1  0  0  0  0
 12 35  1  0  0  0  0
 13 16  1  0  0  0  0
 13 36  1  0  0  0  0
 13 37  1  0  0  0  0
 14 17  1  0  0  0  0
 14 38  1  0  0  0  0
 14 39  1  0  0  0  0
 15 16  1  0  0  0  0
 15 17  1  0  0  0  0
 15 40  1  0  0  0  0
 16 41  1  0  0  0  0
 16 42  1  0  0  0  0
 17 43  1  0  0  0  0
 17 44  1  0  0  0  0
 18 19  1  0  0  0  0
 18 45  1  0  0  0  0
 18 46  1  0  0  0  0
 19 47  1  0  0  0  0
 19 48  1  0  0  0  0
 20 22  1  0  0  0  0
 20 50  1  0  0  0  0
 20 51  1  0  0  0  0
 21 23  1  0  0  0  0
 21 52  1  0  0  0  0
 21 53  1  0  0  0  0
 22 24  1  0  0  0  0
 22 54  1  0  0  0  0
 22 55  1  0  0  0  0
 23 24  2  0  0  0  0
 25 27  1  0  0  0  0
 25 56  1  0  0  0  0
 25 57  1  0  0  0  0
 26 27  1  0  0  0  0
 26 58  1  0  0  0  0
 26 59  1  0  0  0  0
 29 30  1  0  0  0  0
 30 31  1  0  0  0  0
 30 60  1  0  0  0  0
 30 61  1  0  0  0  0
 31 32  2  0  0  0  0
 32 33  1  0  0  0  0
 32 62  1  0  0  0  0
 34 63  1  0  0  0  0
 34 64  1  0  0  0  0
 34 65  1  0  0  0  0
M  END
> <PUBCHEM_COMPOUND_CID>
138670497

> <PUBCHEM_COMPOUND_CANONICALIZED>
1

> <PUBCHEM_CACTVS_COMPLEXITY>
706

> <PUBCHEM_CACTVS_HBOND_ACCEPTOR>
10

> <PUBCHEM_CACTVS_HBOND_DONOR>
1

> <PUBCHEM_CACTVS_ROTATABLE_BOND>
8

> <PUBCHEM_CACTVS_SUBSKEYS>
AAADceB7sYBAAAAAAAAAAAAAAABYAWLAAAA8QAAAAAAAAFgB4AAAHwQUAAAADSzB1hYzlZPYFAitAaVydgCA+KllKjghGLU+bFqEZx5svYuUEOhvth7IaGOYlYIOAAAAAAAAAAAQAAAAAAAAAAAAAAAAAA==

> <PUBCHEM_IUPAC_OPENEYE_NAME>
N-[4-[2-[2-(3,3-difluoroazetidin-1-yl)-6,7-dihydro-4H-thiazolo[4,5-c]pyridin-5-yl]ethyl]cyclohexyl]-2-(3-methoxyisoxazol-5-yl)acetamide

> <PUBCHEM_IUPAC_CAS_NAME>
N-[4-[2-[2-(3,3-difluoro-1-azetidinyl)-6,7-dihydro-4H-thiazolo[4,5-c]pyridin-5-yl]ethyl]cyclohexyl]-2-(3-methoxy-5-isoxazolyl)acetamide

> <PUBCHEM_IUPAC_NAME_MARKUP>
<I>N</I>-[4-[2-[2-(3,3-difluoroazetidin-1-yl)-6,7-dihydro-4<I>H</I>-[1,3]thiazolo[4,5-c]pyridin-5-yl]ethyl]cyclohexyl]-2-(3-methoxy-1,2-oxazol-5-yl)acetamide

> <PUBCHEM_IUPAC_NAME>
N-[4-[2-[2-(3,3-difluoroazetidin-1-yl)-6,7-dihydro-4H-[1,3]thiazolo[4,5-c]pyridin-5-yl]ethyl]cyclohexyl]-2-(3-methoxy-1,2-oxazol-5-yl)acetamide

> <PUBCHEM_IUPAC_SYSTEMATIC_NAME>
N-[4-[2-[2-[3,3-bis(fluoranyl)azetidin-1-yl]-6,7-dihydro-4H-[1,3]thiazolo[4,5-c]pyridin-5-yl]ethyl]cyclohexyl]-2-(3-methoxy-1,2-oxazol-5-yl)ethanamide

> <PUBCHEM_IUPAC_TRADITIONAL_NAME>
N-[4-[2-[2-(3,3-difluoroazetidin-1-yl)-6,7-dihydro-4H-thiazolo[4,5-c]pyridin-5-yl]ethyl]cyclohexyl]-2-(3-methoxyisoxazol-5-yl)acetamide

> <PUBCHEM_IUPAC_INCHI>
InChI=1S/C23H31F2N5O3S/c1-32-21-11-17(33-28-21)10-20(31)26-16-4-2-15(3-5-16)6-8-29-9-7-19-18(12-29)27-22(34-19)30-13-23(24,25)14-30/h11,15-16H,2-10,12-14H2,1H3,(H,26,31)

> <PUBCHEM_IUPAC_INCHIKEY>
OJUNMSDCPOWMOQ-UHFFFAOYSA-N

> <PUBCHEM_XLOGP3_AA>
3.4

> <PUBCHEM_EXACT_MASS>
495.21156737

> <PUBCHEM_MOLECULAR_FORMULA>
C23H31F2N5O3S

> <PUBCHEM_MOLECULAR_WEIGHT>
495.6

> <PUBCHEM_OPENEYE_CAN_SMILES>
COC1=NOC(=C1)CC(=O)NC2CCC(CC2)CCN3CCC4=C(C3)N=C(S4)N5CC(C5)(F)F

> <PUBCHEM_OPENEYE_ISO_SMILES>
COC1=NOC(=C1)CC(=O)NC2CCC(CC2)CCN3CCC4=C(C3)N=C(S4)N5CC(C5)(F)F

> <PUBCHEM_CACTVS_TPSA>
112

> <PUBCHEM_MONOISOTOPIC_WEIGHT>
495.21156737

> <PUBCHEM_TOTAL_CHARGE>
0

> <PUBCHEM_HEAVY_ATOM_COUNT>
34

> <PUBCHEM_ATOM_DEF_STEREO_COUNT>
0

> <PUBCHEM_ATOM_UDEF_STEREO_COUNT>
0

> <PUBCHEM_BOND_DEF_STEREO_COUNT>
0

> <PUBCHEM_BOND_UDEF_STEREO_COUNT>
0

> <PUBCHEM_ISOTOPIC_ATOM_COUNT>
0

> <PUBCHEM_COMPONENT_COUNT>
1

> <PUBCHEM_CACTVS_TAUTO_COUNT>
-1

> <PUBCHEM_COORDINATE_TYPE>
1
5
255

> <PUBCHEM_BONDANNOTATIONS>
1  24  8
1  28  8
10  23  8
10  28  8
11  33  8
23  24  8
31  32  8
32  33  8
5  11  8
5  31  8

$$$$
