44591012
  -OEChem-09292322232D

 81 85  0     0  0  0  0  0  0999 V2000
    4.5981   -2.8453    0.0000 O   0  0  0  0  0  0  0  0  0  0  0  0
    6.3302    1.1547    0.0000 O   0  0  0  0  0  0  0  0  0  0  0  0
    2.8660   -5.8453    0.0000 N   0  0  0  0  0  0  0  0  0  0  0  0
    5.4642    2.6547    0.0000 N   0  0  0  0  0  0  0  0  0  0  0  0
    2.0000   -6.3453    0.0000 C   0  0  0  0  0  0  0  0  0  0  0  0
    3.7321   -6.3453    0.0000 C   0  0  0  0  0  0  0  0  0  0  0  0
    2.0000   -7.3453    0.0000 C   0  0  0  0  0  0  0  0  0  0  0  0
    3.7320   -7.3453    0.0000 C   0  0  0  0  0  0  0  0  0  0  0  0
    2.8660   -7.8453    0.0000 C   0  0  0  0  0  0  0  0  0  0  0  0
    2.8660   -4.8453    0.0000 C   0  0  0  0  0  0  0  0  0  0  0  0
    3.7321   -4.3453    0.0000 C   0  0  0  0  0  0  0  0  0  0  0  0
    3.7321   -3.3453    0.0000 C   0  0  0  0  0  0  0  0  0  0  0  0
    6.6963    7.8453    0.0000 C   0  0  0  0  0  0  0  0  0  0  0  0
    7.6963    7.8453    0.0000 C   0  0  0  0  0  0  0  0  0  0  0  0
    7.1962    5.6547    0.0000 C   0  0  0  0  0  0  0  0  0  0  0  0
    6.0728    7.0635    0.0000 C   0  0  0  0  0  0  0  0  0  0  0  0
    8.3198    7.0635    0.0000 C   0  0  0  0  0  0  0  0  0  0  0  0
    6.2953    6.0886    0.0000 C   0  0  0  0  0  0  0  0  0  0  0  0
    8.0972    6.0885    0.0000 C   0  0  0  0  0  0  0  0  0  0  0  0
    7.1962    4.6547    0.0000 C   0  0  0  0  0  0  0  0  0  0  0  0
    6.3302    4.1547    0.0000 C   0  0  0  0  0  0  0  0  0  0  0  0
    5.0823    7.3858    0.0000 C   0  0  0  0  0  0  0  0  0  0  0  0
    9.3103    7.3858    0.0000 C   0  0  0  0  0  0  0  0  0  0  0  0
    5.5427    5.3684    0.0000 C   0  0  0  0  0  0  0  0  0  0  0  0
    8.8498    5.3684    0.0000 C   0  0  0  0  0  0  0  0  0  0  0  0
    6.3302    3.1547    0.0000 C   0  0  0  0  0  0  0  0  0  0  0  0
    4.5981   -1.8453    0.0000 C   0  0  0  0  0  0  0  0  0  0  0  0
    4.3133    6.6832    0.0000 C   0  0  0  0  0  0  0  0  0  0  0  0
   10.0793    6.6832    0.0000 C   0  0  0  0  0  0  0  0  0  0  0  0
    4.5450    5.6677    0.0000 C   0  0  0  0  0  0  0  0  0  0  0  0
    9.8475    5.6677    0.0000 C   0  0  0  0  0  0  0  0  0  0  0  0
    4.5981    1.1547    0.0000 C   0  0  0  0  0  0  0  0  0  0  0  0
    4.5981    0.1547    0.0000 C   0  0  0  0  0  0  0  0  0  0  0  0
    5.4642    1.6547    0.0000 C   0  0  0  0  0  0  0  0  0  0  0  0
    5.4642   -1.3453    0.0000 C   0  0  0  0  0  0  0  0  0  0  0  0
    3.7321   -1.3453    0.0000 C   0  0  0  0  0  0  0  0  0  0  0  0
    5.4642   -0.3453    0.0000 C   0  0  0  0  0  0  0  0  0  0  0  0
    3.7321   -0.3453    0.0000 C   0  0  0  0  0  0  0  0  0  0  0  0
    4.5982    3.1547    0.0000 C   0  0  0  0  0  0  0  0  0  0  0  0
    1.7880   -5.7627    0.0000 H   0  0  0  0  0  0  0  0  0  0  0  0
    1.3894   -6.4530    0.0000 H   0  0  0  0  0  0  0  0  0  0  0  0
    4.3426   -6.4530    0.0000 H   0  0  0  0  0  0  0  0  0  0  0  0
    3.9441   -5.7627    0.0000 H   0  0  0  0  0  0  0  0  0  0  0  0
    1.3894   -7.2376    0.0000 H   0  0  0  0  0  0  0  0  0  0  0  0
    1.7879   -7.9279    0.0000 H   0  0  0  0  0  0  0  0  0  0  0  0
    3.9441   -7.9279    0.0000 H   0  0  0  0  0  0  0  0  0  0  0  0
    4.3426   -7.2377    0.0000 H   0  0  0  0  0  0  0  0  0  0  0  0
    2.4675   -8.3202    0.0000 H   0  0  0  0  0  0  0  0  0  0  0  0
    3.2646   -8.3203    0.0000 H   0  0  0  0  0  0  0  0  0  0  0  0
    2.6540   -4.2627    0.0000 H   0  0  0  0  0  0  0  0  0  0  0  0
    2.2555   -4.9530    0.0000 H   0  0  0  0  0  0  0  0  0  0  0  0
    3.9441   -4.9279    0.0000 H   0  0  0  0  0  0  0  0  0  0  0  0
    4.3426   -4.2377    0.0000 H   0  0  0  0  0  0  0  0  0  0  0  0
    3.5200   -2.7627    0.0000 H   0  0  0  0  0  0  0  0  0  0  0  0
    3.1215   -3.4530    0.0000 H   0  0  0  0  0  0  0  0  0  0  0  0
    6.8342    8.4498    0.0000 H   0  0  0  0  0  0  0  0  0  0  0  0
    6.1377    8.1143    0.0000 H   0  0  0  0  0  0  0  0  0  0  0  0
    8.2549    8.1143    0.0000 H   0  0  0  0  0  0  0  0  0  0  0  0
    7.5583    8.4498    0.0000 H   0  0  0  0  0  0  0  0  0  0  0  0
    7.7332    4.3447    0.0000 H   0  0  0  0  0  0  0  0  0  0  0  0
    6.1182    4.7373    0.0000 H   0  0  0  0  0  0  0  0  0  0  0  0
    5.7196    4.0470    0.0000 H   0  0  0  0  0  0  0  0  0  0  0  0
    4.9513    7.9918    0.0000 H   0  0  0  0  0  0  0  0  0  0  0  0
    9.4412    7.9918    0.0000 H   0  0  0  0  0  0  0  0  0  0  0  0
    5.6877    4.7656    0.0000 H   0  0  0  0  0  0  0  0  0  0  0  0
    8.7048    4.7655    0.0000 H   0  0  0  0  0  0  0  0  0  0  0  0
    6.5422    2.5721    0.0000 H   0  0  0  0  0  0  0  0  0  0  0  0
    6.9408    3.2623    0.0000 H   0  0  0  0  0  0  0  0  0  0  0  0
    3.7215    6.8683    0.0000 H   0  0  0  0  0  0  0  0  0  0  0  0
   10.6710    6.8682    0.0000 H   0  0  0  0  0  0  0  0  0  0  0  0
    4.0922    5.2443    0.0000 H   0  0  0  0  0  0  0  0  0  0  0  0
   10.3003    5.2442    0.0000 H   0  0  0  0  0  0  0  0  0  0  0  0
    4.3861    1.7373    0.0000 H   0  0  0  0  0  0  0  0  0  0  0  0
    3.9876    1.0470    0.0000 H   0  0  0  0  0  0  0  0  0  0  0  0
    6.0011   -1.6553    0.0000 H   0  0  0  0  0  0  0  0  0  0  0  0
    3.1952   -1.6553    0.0000 H   0  0  0  0  0  0  0  0  0  0  0  0
    6.0011   -0.0353    0.0000 H   0  0  0  0  0  0  0  0  0  0  0  0
    3.1952   -0.0353    0.0000 H   0  0  0  0  0  0  0  0  0  0  0  0
    4.9082    3.6916    0.0000 H   0  0  0  0  0  0  0  0  0  0  0  0
    4.0612    3.4647    0.0000 H   0  0  0  0  0  0  0  0  0  0  0  0
    4.2882    2.6178    0.0000 H   0  0  0  0  0  0  0  0  0  0  0  0
  1 12  1  0  0  0  0
  1 27  1  0  0  0  0
  2 34  2  0  0  0  0
  3  5  1  0  0  0  0
  3  6  1  0  0  0  0
  3 10  1  0  0  0  0
  4 26  1  0  0  0  0
  4 34  1  0  0  0  0
  4 39  1  0  0  0  0
  5  7  1  0  0  0  0
  5 40  1  0  0  0  0
  5 41  1  0  0  0  0
  6  8  1  0  0  0  0
  6 42  1  0  0  0  0
  6 43  1  0  0  0  0
  7  9  1  0  0  0  0
  7 44  1  0  0  0  0
  7 45  1  0  0  0  0
  8  9  1  0  0  0  0
  8 46  1  0  0  0  0
  8 47  1  0  0  0  0
  9 48  1  0  0  0  0
  9 49  1  0  0  0  0
 10 11  1  0  0  0  0
 10 50  1  0  0  0  0
 10 51  1  0  0  0  0
 11 12  1  0  0  0  0
 11 52  1  0  0  0  0
 11 53  1  0  0  0  0
 12 54  1  0  0  0  0
 12 55  1  0  0  0  0
 13 14  1  0  0  0  0
 13 16  1  0  0  0  0
 13 56  1  0  0  0  0
 13 57  1  0  0  0  0
 14 17  1  0  0  0  0
 14 58  1  0  0  0  0
 14 59  1  0  0  0  0
 15 18  1  0  0  0  0
 15 19  1  0  0  0  0
 15 20  2  0  0  0  0
 16 18  1  0  0  0  0
 16 22  2  0  0  0  0
 17 19  1  0  0  0  0
 17 23  2  0  0  0  0
 18 24  2  0  0  0  0
 19 25  2  0  0  0  0
 20 21  1  0  0  0  0
 20 60  1  0  0  0  0
 21 26  1  0  0  0  0
 21 61  1  0  0  0  0
 21 62  1  0  0  0  0
 22 28  1  0  0  0  0
 22 63  1  0  0  0  0
 23 29  1  0  0  0  0
 23 64  1  0  0  0  0
 24 30  1  0  0  0  0
 24 65  1  0  0  0  0
 25 31  1  0  0  0  0
 25 66  1  0  0  0  0
 26 67  1  0  0  0  0
 26 68  1  0  0  0  0
 27 35  2  0  0  0  0
 27 36  1  0  0  0  0
 28 30  2  0  0  0  0
 28 69  1  0  0  0  0
 29 31  2  0  0  0  0
 29 70  1  0  0  0  0
 30 71  1  0  0  0  0
 31 72  1  0  0  0  0
 32 33  1  0  0  0  0
 32 34  1  0  0  0  0
 32 73  1  0  0  0  0
 32 74  1  0  0  0  0
 33 37  2  0  0  0  0
 33 38  1  0  0  0  0
 35 37  1  0  0  0  0
 35 75  1  0  0  0  0
 36 38  2  0  0  0  0
 36 76  1  0  0  0  0
 37 77  1  0  0  0  0
 38 78  1  0  0  0  0
 39 79  1  0  0  0  0
 39 80  1  0  0  0  0
 39 81  1  0  0  0  0
M  END
> <PUBCHEM_COMPOUND_CID>
44591012

> <PUBCHEM_COMPOUND_CANONICALIZED>
1

> <PUBCHEM_CACTVS_COMPLEXITY>
741

> <PUBCHEM_CACTVS_HBOND_ACCEPTOR>
3

> <PUBCHEM_CACTVS_HBOND_DONOR>
0

> <PUBCHEM_CACTVS_ROTATABLE_BOND>
10

> <PUBCHEM_CACTVS_SUBSKEYS>
AAADcfB/MAAAAAAAAAAAAAAAAAAAAAAAAAA8YMEABgAAAAABUAAAHgAAAAAADAThmAYyBoMABACIAiFSEAACCAAgIAAIiAEOCIgMJjKEtRuGOCCmxhGIqAeYyMCOoAAAAAAQAABAAAAAACAAAAAAAAAAAA==

> <PUBCHEM_IUPAC_OPENEYE_NAME>
N-methyl-2-[4-[3-(1-piperidyl)propoxy]phenyl]-N-[3-(2-tricyclo[9.4.0.03,8]pentadeca-1(15),3,5,7,11,13-hexaenylidene)propyl]acetamide

> <PUBCHEM_IUPAC_CAS_NAME>
N-methyl-2-[4-[3-(1-piperidinyl)propoxy]phenyl]-N-[3-(2-tricyclo[9.4.0.03,8]pentadeca-1(15),3,5,7,11,13-hexaenylidene)propyl]acetamide

> <PUBCHEM_IUPAC_NAME_MARKUP>
<I>N</I>-methyl-2-[4-(3-piperidin-1-ylpropoxy)phenyl]-<I>N</I>-[3-(2-tricyclo[9.4.0.0<SUP>3,8</SUP>]pentadeca-1(15),3,5,7,11,13-hexaenylidene)propyl]acetamide

> <PUBCHEM_IUPAC_NAME>
N-methyl-2-[4-(3-piperidin-1-ylpropoxy)phenyl]-N-[3-(2-tricyclo[9.4.0.03,8]pentadeca-1(15),3,5,7,11,13-hexaenylidene)propyl]acetamide

> <PUBCHEM_IUPAC_SYSTEMATIC_NAME>
N-methyl-2-[4-(3-piperidin-1-ylpropoxy)phenyl]-N-[3-(2-tricyclo[9.4.0.03,8]pentadeca-1(15),3,5,7,11,13-hexaenylidene)propyl]ethanamide

> <PUBCHEM_IUPAC_TRADITIONAL_NAME>
N-methyl-2-[4-(3-piperidinopropoxy)phenyl]-N-[3-(2-tricyclo[9.4.0.03,8]pentadeca-1(15),3,5,7,11,13-hexaenylidene)propyl]acetamide

> <PUBCHEM_IUPAC_INCHI>
InChI=1S/C35H42N2O2/c1-36(22-9-15-34-32-13-5-3-11-29(32)18-19-30-12-4-6-14-33(30)34)35(38)27-28-16-20-31(21-17-28)39-26-10-25-37-23-7-2-8-24-37/h3-6,11-17,20-21H,2,7-10,18-19,22-27H2,1H3

> <PUBCHEM_IUPAC_INCHIKEY>
FBGLPECKCFZJFU-UHFFFAOYSA-N

> <PUBCHEM_XLOGP3_AA>
6.7

> <PUBCHEM_EXACT_MASS>
522.324628587

> <PUBCHEM_MOLECULAR_FORMULA>
C35H42N2O2

> <PUBCHEM_MOLECULAR_WEIGHT>
522.7

> <PUBCHEM_OPENEYE_CAN_SMILES>
CN(CCC=C1C2=CC=CC=C2CCC3=CC=CC=C31)C(=O)CC4=CC=C(C=C4)OCCCN5CCCCC5

> <PUBCHEM_OPENEYE_ISO_SMILES>
CN(CCC=C1C2=CC=CC=C2CCC3=CC=CC=C31)C(=O)CC4=CC=C(C=C4)OCCCN5CCCCC5

> <PUBCHEM_CACTVS_TPSA>
32.8

> <PUBCHEM_MONOISOTOPIC_WEIGHT>
522.324628587

> <PUBCHEM_TOTAL_CHARGE>
0

> <PUBCHEM_HEAVY_ATOM_COUNT>
39

> <PUBCHEM_ATOM_DEF_STEREO_COUNT>
0

> <PUBCHEM_ATOM_UDEF_STEREO_COUNT>
0

> <PUBCHEM_BOND_DEF_STEREO_COUNT>
0

> <PUBCHEM_BOND_UDEF_STEREO_COUNT>
0

> <PUBCHEM_ISOTOPIC_ATOM_COUNT>
0

> <PUBCHEM_COMPONENT_COUNT>
1

> <PUBCHEM_CACTVS_TAUTO_COUNT>
-1

> <PUBCHEM_COORDINATE_TYPE>
1
5
255

> <PUBCHEM_BONDANNOTATIONS>
16  18  8
16  22  8
17  19  8
17  23  8
18  24  8
19  25  8
22  28  8
23  29  8
24  30  8
25  31  8
27  35  8
27  36  8
28  30  8
29  31  8
33  37  8
33  38  8
35  37  8
36  38  8

$$$$
