72736202
  -OEChem-09292322342D

 58 61  0     1  0  0  0  0  0999 V2000
   12.4603   -1.4573    0.0000 O   0  0  0  0  0  0  0  0  0  0  0  0
   11.5942    0.0427    0.0000 O   0  0  0  0  0  0  0  0  0  0  0  0
    5.5321    0.5427    0.0000 N   0  0  3  0  0  0  0  0  0  0  0  0
   10.7282   -1.4573    0.0000 N   0  0  0  0  0  0  0  0  0  0  0  0
    8.1301    0.0427    0.0000 C   0  0  0  0  0  0  0  0  0  0  0  0
    8.9962    0.5427    0.0000 C   0  0  0  0  0  0  0  0  0  0  0  0
    8.1301   -0.9573    0.0000 C   0  0  0  0  0  0  0  0  0  0  0  0
    9.8622   -0.9573    0.0000 C   0  0  0  0  0  0  0  0  0  0  0  0
    9.8622    0.0427    0.0000 C   0  0  0  0  0  0  0  0  0  0  0  0
    8.9962   -1.4573    0.0000 C   0  0  0  0  0  0  0  0  0  0  0  0
    7.2641    0.5427    0.0000 C   0  0  0  0  0  0  0  0  0  0  0  0
    6.3981    0.0427    0.0000 C   0  0  0  0  0  0  0  0  0  0  0  0
    5.5321    1.5427    0.0000 C   0  0  0  0  0  0  0  0  0  0  0  0
    4.6660    0.0427    0.0000 C   0  0  0  0  0  0  0  0  0  0  0  0
    4.6660    2.0427    0.0000 C   0  0  0  0  0  0  0  0  0  0  0  0
    3.8000    0.5427    0.0000 C   0  0  0  0  0  0  0  0  0  0  0  0
    3.8000    1.5427    0.0000 C   0  0  0  0  0  0  0  0  0  0  0  0
   11.5942   -0.9573    0.0000 C   0  0  0  0  0  0  0  0  0  0  0  0
    2.9061    0.0080    0.0000 C   0  0  0  0  0  0  0  0  0  0  0  0
    2.9061    2.0773    0.0000 C   0  0  0  0  0  0  0  0  0  0  0  0
    2.0000    0.5219    0.0000 C   0  0  0  0  0  0  0  0  0  0  0  0
    2.0000    1.5635    0.0000 C   0  0  0  0  0  0  0  0  0  0  0  0
   13.3263   -0.9573    0.0000 C   0  0  0  0  0  0  0  0  0  0  0  0
   13.3263    0.0427    0.0000 C   0  0  0  0  0  0  0  0  0  0  0  0
   14.1923   -1.4573    0.0000 C   0  0  0  0  0  0  0  0  0  0  0  0
   14.1923    0.5427    0.0000 C   0  0  0  0  0  0  0  0  0  0  0  0
   15.0583   -0.9573    0.0000 C   0  0  0  0  0  0  0  0  0  0  0  0
   15.0583    0.0427    0.0000 C   0  0  0  0  0  0  0  0  0  0  0  0
    7.5932   -0.2673    0.0000 H   0  0  0  0  0  0  0  0  0  0  0  0
    9.3947    1.0176    0.0000 H   0  0  0  0  0  0  0  0  0  0  0  0
    8.5976    1.0176    0.0000 H   0  0  0  0  0  0  0  0  0  0  0  0
    7.5196   -0.8497    0.0000 H   0  0  0  0  0  0  0  0  0  0  0  0
    7.9181   -1.5399    0.0000 H   0  0  0  0  0  0  0  0  0  0  0  0
    9.8622   -1.5773    0.0000 H   0  0  0  0  0  0  0  0  0  0  0  0
   10.4728   -0.0650    0.0000 H   0  0  0  0  0  0  0  0  0  0  0  0
   10.0742    0.6253    0.0000 H   0  0  0  0  0  0  0  0  0  0  0  0
    8.5976   -1.9323    0.0000 H   0  0  0  0  0  0  0  0  0  0  0  0
    9.3947   -1.9323    0.0000 H   0  0  0  0  0  0  0  0  0  0  0  0
    7.6626    1.0176    0.0000 H   0  0  0  0  0  0  0  0  0  0  0  0
    6.8656    1.0176    0.0000 H   0  0  0  0  0  0  0  0  0  0  0  0
    5.9996   -0.4323    0.0000 H   0  0  0  0  0  0  0  0  0  0  0  0
    6.7966   -0.4323    0.0000 H   0  0  0  0  0  0  0  0  0  0  0  0
   10.7282   -2.0773    0.0000 H   0  0  0  0  0  0  0  0  0  0  0  0
    6.1426    1.4350    0.0000 H   0  0  0  0  0  0  0  0  0  0  0  0
    5.7441    2.1253    0.0000 H   0  0  0  0  0  0  0  0  0  0  0  0
    4.2675   -0.4323    0.0000 H   0  0  0  0  0  0  0  0  0  0  0  0
    5.0646   -0.4323    0.0000 H   0  0  0  0  0  0  0  0  0  0  0  0
    5.0646    2.5176    0.0000 H   0  0  0  0  0  0  0  0  0  0  0  0
    4.2675    2.5176    0.0000 H   0  0  0  0  0  0  0  0  0  0  0  0
    2.9132   -0.6120    0.0000 H   0  0  0  0  0  0  0  0  0  0  0  0
    2.9132    2.6973    0.0000 H   0  0  0  0  0  0  0  0  0  0  0  0
    1.4643    0.2098    0.0000 H   0  0  0  0  0  0  0  0  0  0  0  0
    1.4643    1.8756    0.0000 H   0  0  0  0  0  0  0  0  0  0  0  0
   12.7894    0.3527    0.0000 H   0  0  0  0  0  0  0  0  0  0  0  0
   14.1923   -2.0773    0.0000 H   0  0  0  0  0  0  0  0  0  0  0  0
   14.1923    1.1627    0.0000 H   0  0  0  0  0  0  0  0  0  0  0  0
   15.5953   -1.2673    0.0000 H   0  0  0  0  0  0  0  0  0  0  0  0
   15.5953    0.3527    0.0000 H   0  0  0  0  0  0  0  0  0  0  0  0
  1 18  1  0  0  0  0
  1 23  1  0  0  0  0
  2 18  2  0  0  0  0
  3 12  1  0  0  0  0
  3 13  1  0  0  0  0
  3 14  1  0  0  0  0
  4  8  1  0  0  0  0
  4 18  1  0  0  0  0
  4 43  1  0  0  0  0
  5  6  1  0  0  0  0
  5  7  1  0  0  0  0
  5 11  1  0  0  0  0
  5 29  1  0  0  0  0
  6  9  1  0  0  0  0
  6 30  1  0  0  0  0
  6 31  1  0  0  0  0
  7 10  1  0  0  0  0
  7 32  1  0  0  0  0
  7 33  1  0  0  0  0
  8  9  1  0  0  0  0
  8 10  1  0  0  0  0
  8 34  1  0  0  0  0
  9 35  1  0  0  0  0
  9 36  1  0  0  0  0
 10 37  1  0  0  0  0
 10 38  1  0  0  0  0
 11 12  1  0  0  0  0
 11 39  1  0  0  0  0
 11 40  1  0  0  0  0
 12 41  1  0  0  0  0
 12 42  1  0  0  0  0
 13 15  1  0  0  0  0
 13 44  1  0  0  0  0
 13 45  1  0  0  0  0
 14 16  1  0  0  0  0
 14 46  1  0  0  0  0
 14 47  1  0  0  0  0
 15 17  1  0  0  0  0
 15 48  1  0  0  0  0
 15 49  1  0  0  0  0
 16 17  1  0  0  0  0
 16 19  2  0  0  0  0
 17 20  2  0  0  0  0
 19 21  1  0  0  0  0
 19 50  1  0  0  0  0
 20 22  1  0  0  0  0
 20 51  1  0  0  0  0
 21 22  2  0  0  0  0
 21 52  1  0  0  0  0
 22 53  1  0  0  0  0
 23 24  2  0  0  0  0
 23 25  1  0  0  0  0
 24 26  1  0  0  0  0
 24 54  1  0  0  0  0
 25 27  2  0  0  0  0
 25 55  1  0  0  0  0
 26 28  2  0  0  0  0
 26 56  1  0  0  0  0
 27 28  1  0  0  0  0
 27 57  1  0  0  0  0
 28 58  1  0  0  0  0
M  END
> <PUBCHEM_COMPOUND_CID>
72736202

> <PUBCHEM_COMPOUND_CANONICALIZED>
1

> <PUBCHEM_CACTVS_COMPLEXITY>
483

> <PUBCHEM_CACTVS_HBOND_ACCEPTOR>
3

> <PUBCHEM_CACTVS_HBOND_DONOR>
1

> <PUBCHEM_CACTVS_ROTATABLE_BOND>
6

> <PUBCHEM_CACTVS_SUBSKEYS>
AAADceB7MAAAAAAAAAAAAAAAAAAAAAAAAAA8YMEAAAAAAACxQAAAHgAQAAAADSzBmAQwDoPABACIAiBCGACCCAAgIAAIiIAODIkMJiKEsRuMMihk1hGIqAeQwIAOgAAAAAAQAAAQAAAAACAAAAAAAAAAAA==

> <PUBCHEM_IUPAC_OPENEYE_NAME>
phenyl N-[4-[2-(3,4-dihydro-1H-isoquinolin-2-yl)ethyl]cyclohexyl]carbamate

> <PUBCHEM_IUPAC_CAS_NAME>
N-[4-[2-(3,4-dihydro-1H-isoquinolin-2-yl)ethyl]cyclohexyl]carbamic acid phenyl ester

> <PUBCHEM_IUPAC_NAME_MARKUP>
phenyl <I>N</I>-[4-[2-(3,4-dihydro-1<I>H</I>-isoquinolin-2-yl)ethyl]cyclohexyl]carbamate

> <PUBCHEM_IUPAC_NAME>
phenyl N-[4-[2-(3,4-dihydro-1H-isoquinolin-2-yl)ethyl]cyclohexyl]carbamate

> <PUBCHEM_IUPAC_SYSTEMATIC_NAME>
phenyl N-[4-[2-(3,4-dihydro-1H-isoquinolin-2-yl)ethyl]cyclohexyl]carbamate

> <PUBCHEM_IUPAC_TRADITIONAL_NAME>
N-[4-[2-(3,4-dihydro-1H-isoquinolin-2-yl)ethyl]cyclohexyl]carbamic acid phenyl ester

> <PUBCHEM_IUPAC_INCHI>
InChI=1S/C24H30N2O2/c27-24(28-23-8-2-1-3-9-23)25-22-12-10-19(11-13-22)14-16-26-17-15-20-6-4-5-7-21(20)18-26/h1-9,19,22H,10-18H2,(H,25,27)

> <PUBCHEM_IUPAC_INCHIKEY>
GUALSDMCGOLFSS-UHFFFAOYSA-N

> <PUBCHEM_XLOGP3_AA>
5

> <PUBCHEM_EXACT_MASS>
378.230728204

> <PUBCHEM_MOLECULAR_FORMULA>
C24H30N2O2

> <PUBCHEM_MOLECULAR_WEIGHT>
378.5

> <PUBCHEM_OPENEYE_CAN_SMILES>
C1CC(CCC1CCN2CCC3=CC=CC=C3C2)NC(=O)OC4=CC=CC=C4

> <PUBCHEM_OPENEYE_ISO_SMILES>
C1CC(CCC1CCN2CCC3=CC=CC=C3C2)NC(=O)OC4=CC=CC=C4

> <PUBCHEM_CACTVS_TPSA>
41.6

> <PUBCHEM_MONOISOTOPIC_WEIGHT>
378.230728204

> <PUBCHEM_TOTAL_CHARGE>
0

> <PUBCHEM_HEAVY_ATOM_COUNT>
28

> <PUBCHEM_ATOM_DEF_STEREO_COUNT>
0

> <PUBCHEM_ATOM_UDEF_STEREO_COUNT>
0

> <PUBCHEM_BOND_DEF_STEREO_COUNT>
0

> <PUBCHEM_BOND_UDEF_STEREO_COUNT>
0

> <PUBCHEM_ISOTOPIC_ATOM_COUNT>
0

> <PUBCHEM_COMPONENT_COUNT>
1

> <PUBCHEM_CACTVS_TAUTO_COUNT>
-1

> <PUBCHEM_COORDINATE_TYPE>
1
5
255

> <PUBCHEM_BONDANNOTATIONS>
16  17  8
16  19  8
17  20  8
19  21  8
20  22  8
21  22  8
23  24  8
23  25  8
24  26  8
25  27  8
26  28  8
27  28  8

$$$$
