66561968
  -OEChem-09292322482D

 39 41  0     0  0  0  0  0  0999 V2000
    5.7369    1.2703    0.0000 O   0  0  0  0  0  0  0  0  0  0  0  0
    4.7369    3.0023    0.0000 O   0  0  0  0  0  0  0  0  0  0  0  0
    3.2369   -1.3278    0.0000 N   0  0  0  0  0  0  0  0  0  0  0  0
    3.9735   -2.3104    0.0000 C   0  0  0  0  0  0  0  0  0  0  0  0
    3.7147   -3.2763    0.0000 C   0  0  0  0  0  0  0  0  0  0  0  0
    5.1137   -3.7852    0.0000 C   0  0  0  0  0  0  0  0  0  0  0  0
    5.3725   -2.8192    0.0000 C   0  0  0  0  0  0  0  0  0  0  0  0
    2.3420   -3.8684    0.0000 C   0  0  0  0  0  0  0  0  0  0  0  0
    2.0000   -2.9287    0.0000 C   0  0  0  0  0  0  0  0  0  0  0  0
    2.7369   -0.4618    0.0000 C   0  0  0  0  0  0  0  0  0  0  0  0
    3.2369    0.4043    0.0000 C   0  0  0  0  0  0  0  0  0  0  0  0
    4.2369    0.4043    0.0000 C   0  0  0  0  0  0  0  0  0  0  0  0
    2.7369    1.2703    0.0000 C   0  0  0  0  0  0  0  0  0  0  0  0
    4.7369    1.2703    0.0000 C   0  0  0  0  0  0  0  0  0  0  0  0
    3.2369    2.1363    0.0000 C   0  0  0  0  0  0  0  0  0  0  0  0
    4.2369    2.1363    0.0000 C   0  0  0  0  0  0  0  0  0  0  0  0
    6.2369    2.1363    0.0000 C   0  0  0  0  0  0  0  0  0  0  0  0
    4.2369    3.8684    0.0000 C   0  0  0  0  0  0  0  0  0  0  0  0
    3.9595   -2.9302    0.0000 H   0  0  0  0  0  0  0  0  0  0  0  0
    3.7328   -3.8961    0.0000 H   0  0  0  0  0  0  0  0  0  0  0  0
    5.7076   -3.9629    0.0000 H   0  0  0  0  0  0  0  0  0  0  0  0
    4.9187   -4.3737    0.0000 H   0  0  0  0  0  0  0  0  0  0  0  0
    2.5765   -4.4423    0.0000 H   0  0  0  0  0  0  0  0  0  0  0  0
    1.7636   -4.0916    0.0000 H   0  0  0  0  0  0  0  0  0  0  0  0
    5.9664   -2.9970    0.0000 H   0  0  0  0  0  0  0  0  0  0  0  0
    5.5674   -2.2307    0.0000 H   0  0  0  0  0  0  0  0  0  0  0  0
    1.8057   -2.3399    0.0000 H   0  0  0  0  0  0  0  0  0  0  0  0
    1.4142   -3.1319    0.0000 H   0  0  0  0  0  0  0  0  0  0  0  0
    2.2620   -0.0632    0.0000 H   0  0  0  0  0  0  0  0  0  0  0  0
    2.2620   -0.8603    0.0000 H   0  0  0  0  0  0  0  0  0  0  0  0
    4.5469   -0.1327    0.0000 H   0  0  0  0  0  0  0  0  0  0  0  0
    2.1169    1.2703    0.0000 H   0  0  0  0  0  0  0  0  0  0  0  0
    2.9269    2.6732    0.0000 H   0  0  0  0  0  0  0  0  0  0  0  0
    6.7739    1.8263    0.0000 H   0  0  0  0  0  0  0  0  0  0  0  0
    6.5469    2.6732    0.0000 H   0  0  0  0  0  0  0  0  0  0  0  0
    5.7000    2.4463    0.0000 H   0  0  0  0  0  0  0  0  0  0  0  0
    4.7739    4.1784    0.0000 H   0  0  0  0  0  0  0  0  0  0  0  0
    3.9269    4.4053    0.0000 H   0  0  0  0  0  0  0  0  0  0  0  0
    3.7000    3.5584    0.0000 H   0  0  0  0  0  0  0  0  0  0  0  0
  1 14  1  0  0  0  0
  1 17  1  0  0  0  0
  2 16  1  0  0  0  0
  2 18  1  0  0  0  0
  3  4  1  0  0  0  0
  3  5  1  0  0  0  0
  3 10  1  0  0  0  0
  4  7  1  0  0  0  0
  4  9  1  0  0  0  0
  4 19  1  0  0  0  0
  5  6  1  0  0  0  0
  5  8  1  0  0  0  0
  5 20  1  0  0  0  0
  6  7  1  0  0  0  0
  6 21  1  0  0  0  0
  6 22  1  0  0  0  0
  7 25  1  0  0  0  0
  7 26  1  0  0  0  0
  8  9  1  0  0  0  0
  8 23  1  0  0  0  0
  8 24  1  0  0  0  0
  9 27  1  0  0  0  0
  9 28  1  0  0  0  0
 10 11  1  0  0  0  0
 10 29  1  0  0  0  0
 10 30  1  0  0  0  0
 11 12  2  0  0  0  0
 11 13  1  0  0  0  0
 12 14  1  0  0  0  0
 12 31  1  0  0  0  0
 13 15  2  0  0  0  0
 13 32  1  0  0  0  0
 14 16  2  0  0  0  0
 15 16  1  0  0  0  0
 15 33  1  0  0  0  0
 17 34  1  0  0  0  0
 17 35  1  0  0  0  0
 17 36  1  0  0  0  0
 18 37  1  0  0  0  0
 18 38  1  0  0  0  0
 18 39  1  0  0  0  0
M  END
> <PUBCHEM_COMPOUND_CID>
66561968

> <PUBCHEM_COMPOUND_CANONICALIZED>
1

> <PUBCHEM_CACTVS_COMPLEXITY>
264

> <PUBCHEM_CACTVS_HBOND_ACCEPTOR>
3

> <PUBCHEM_CACTVS_HBOND_DONOR>
0

> <PUBCHEM_CACTVS_ROTATABLE_BOND>
4

> <PUBCHEM_CACTVS_SUBSKEYS>
AAADceByMAAAAAAAAAAAAAAAAAAAAWLAAAAwYAAAAAAAAAABAAAAHgAAAAAADCzBmAYyBoMABACAAiBCAACCCAAgIAAIiAAOjIgNJiKEsRuEMCpkwBGKqAew0BIOIAABAAAAQABAAAIAAACAAAAAAAAAAA==

> <PUBCHEM_IUPAC_OPENEYE_NAME>
7-[(3,4-dimethoxyphenyl)methyl]-7-azabicyclo[2.2.1]heptane

> <PUBCHEM_IUPAC_CAS_NAME>
7-[(3,4-dimethoxyphenyl)methyl]-7-azabicyclo[2.2.1]heptane

> <PUBCHEM_IUPAC_NAME_MARKUP>
7-[(3,4-dimethoxyphenyl)methyl]-7-azabicyclo[2.2.1]heptane

> <PUBCHEM_IUPAC_NAME>
7-[(3,4-dimethoxyphenyl)methyl]-7-azabicyclo[2.2.1]heptane

> <PUBCHEM_IUPAC_SYSTEMATIC_NAME>
7-[(3,4-dimethoxyphenyl)methyl]-7-azabicyclo[2.2.1]heptane

> <PUBCHEM_IUPAC_TRADITIONAL_NAME>
7-veratryl-7-azabicyclo[2.2.1]heptane

> <PUBCHEM_IUPAC_INCHI>
InChI=1S/C15H21NO2/c1-17-14-8-3-11(9-15(14)18-2)10-16-12-4-5-13(16)7-6-12/h3,8-9,12-13H,4-7,10H2,1-2H3

> <PUBCHEM_IUPAC_INCHIKEY>
MFKYGKXYJBKSQN-UHFFFAOYSA-N

> <PUBCHEM_XLOGP3>
2.4

> <PUBCHEM_EXACT_MASS>
247.157228913

> <PUBCHEM_MOLECULAR_FORMULA>
C15H21NO2

> <PUBCHEM_MOLECULAR_WEIGHT>
247.33

> <PUBCHEM_OPENEYE_CAN_SMILES>
COC1=C(C=C(C=C1)CN2C3CCC2CC3)OC

> <PUBCHEM_OPENEYE_ISO_SMILES>
COC1=C(C=C(C=C1)CN2C3CCC2CC3)OC

> <PUBCHEM_CACTVS_TPSA>
21.7

> <PUBCHEM_MONOISOTOPIC_WEIGHT>
247.157228913

> <PUBCHEM_TOTAL_CHARGE>
0

> <PUBCHEM_HEAVY_ATOM_COUNT>
18

> <PUBCHEM_ATOM_DEF_STEREO_COUNT>
0

> <PUBCHEM_ATOM_UDEF_STEREO_COUNT>
0

> <PUBCHEM_BOND_DEF_STEREO_COUNT>
0

> <PUBCHEM_BOND_UDEF_STEREO_COUNT>
0

> <PUBCHEM_ISOTOPIC_ATOM_COUNT>
0

> <PUBCHEM_COMPONENT_COUNT>
1

> <PUBCHEM_CACTVS_TAUTO_COUNT>
-1

> <PUBCHEM_COORDINATE_TYPE>
1
5
255

> <PUBCHEM_BONDANNOTATIONS>
11  12  8
11  13  8
12  14  8
13  15  8
14  16  8
15  16  8

$$$$
