24894134
  -OEChem-09292322032D

 47 51  0     0  0  0  0  0  0999 V2000
    2.0000   -0.3097    0.0000 Cl  0  0  0  0  0  0  0  0  0  0  0  0
   12.2564   -0.3246    0.0000 Cl  0  0  0  0  0  0  0  0  0  0  0  0
   15.4210    1.0844    0.0000 F   0  0  0  0  0  0  0  0  0  0  0  0
    9.9648    2.1606    0.0000 O   0  0  0  0  0  0  0  0  0  0  0  0
    7.2622   -0.3339    0.0000 N   0  0  0  0  0  0  0  0  0  0  0  0
   10.7738    0.7594    0.0000 N   0  0  0  0  0  0  0  0  0  0  0  0
   10.9429    2.3686    0.0000 N   0  0  0  0  0  0  0  0  0  0  0  0
    5.5301   -2.3339    0.0000 N   0  0  0  0  0  0  0  0  0  0  0  0
    8.9942    0.6661    0.0000 C   0  0  0  0  0  0  0  0  0  0  0  0
    8.9942   -0.3339    0.0000 C   0  0  0  0  0  0  0  0  0  0  0  0
    8.1282    1.1661    0.0000 C   0  0  0  0  0  0  0  0  0  0  0  0
    8.1282   -0.8339    0.0000 C   0  0  0  0  0  0  0  0  0  0  0  0
    7.2622    0.6661    0.0000 C   0  0  0  0  0  0  0  0  0  0  0  0
    9.8602    1.1661    0.0000 C   0  0  0  0  0  0  0  0  0  0  0  0
    6.3961   -0.8339    0.0000 C   0  0  0  0  0  0  0  0  0  0  0  0
    5.5301   -0.3339    0.0000 C   0  0  0  0  0  0  0  0  0  0  0  0
    6.3961   -1.8339    0.0000 C   0  0  0  0  0  0  0  0  0  0  0  0
    4.6641   -0.8339    0.0000 C   0  0  0  0  0  0  0  0  0  0  0  0
   11.4429    1.5025    0.0000 C   0  0  0  0  0  0  0  0  0  0  0  0
    4.6641   -1.8339    0.0000 C   0  0  0  0  0  0  0  0  0  0  0  0
   12.4375    1.3980    0.0000 C   0  0  0  0  0  0  0  0  0  0  0  0
    3.7702   -0.2992    0.0000 C   0  0  0  0  0  0  0  0  0  0  0  0
    3.7702   -2.3686    0.0000 C   0  0  0  0  0  0  0  0  0  0  0  0
    2.8641   -0.8131    0.0000 C   0  0  0  0  0  0  0  0  0  0  0  0
    2.8641   -1.8547    0.0000 C   0  0  0  0  0  0  0  0  0  0  0  0
   12.8442    0.4844    0.0000 C   0  0  0  0  0  0  0  0  0  0  0  0
   13.0252    2.2070    0.0000 C   0  0  0  0  0  0  0  0  0  0  0  0
   13.8387    0.3799    0.0000 C   0  0  0  0  0  0  0  0  0  0  0  0
   14.0198    2.1025    0.0000 C   0  0  0  0  0  0  0  0  0  0  0  0
   14.4265    1.1889    0.0000 C   0  0  0  0  0  0  0  0  0  0  0  0
    8.9942    1.2861    0.0000 H   0  0  0  0  0  0  0  0  0  0  0  0
    9.2063   -0.9165    0.0000 H   0  0  0  0  0  0  0  0  0  0  0  0
    9.6048   -0.2262    0.0000 H   0  0  0  0  0  0  0  0  0  0  0  0
    8.5267    1.6411    0.0000 H   0  0  0  0  0  0  0  0  0  0  0  0
    7.7297    1.6411    0.0000 H   0  0  0  0  0  0  0  0  0  0  0  0
    7.7297   -1.3088    0.0000 H   0  0  0  0  0  0  0  0  0  0  0  0
    8.5267   -1.3088    0.0000 H   0  0  0  0  0  0  0  0  0  0  0  0
    7.0501    1.2487    0.0000 H   0  0  0  0  0  0  0  0  0  0  0  0
    6.6516    0.5585    0.0000 H   0  0  0  0  0  0  0  0  0  0  0  0
    5.5301    0.2861    0.0000 H   0  0  0  0  0  0  0  0  0  0  0  0
    6.9331   -2.1439    0.0000 H   0  0  0  0  0  0  0  0  0  0  0  0
    3.7773    0.3207    0.0000 H   0  0  0  0  0  0  0  0  0  0  0  0
    3.7773   -2.9885    0.0000 H   0  0  0  0  0  0  0  0  0  0  0  0
    2.3284   -2.1668    0.0000 H   0  0  0  0  0  0  0  0  0  0  0  0
   12.7731    2.7734    0.0000 H   0  0  0  0  0  0  0  0  0  0  0  0
   14.0909   -0.1865    0.0000 H   0  0  0  0  0  0  0  0  0  0  0  0
   14.3842    2.6041    0.0000 H   0  0  0  0  0  0  0  0  0  0  0  0
  1 24  1  0  0  0  0
  2 26  1  0  0  0  0
  3 30  1  0  0  0  0
  4  7  1  0  0  0  0
  4 14  1  0  0  0  0
  5 12  1  0  0  0  0
  5 13  1  0  0  0  0
  5 15  1  0  0  0  0
  6 14  2  0  0  0  0
  6 19  1  0  0  0  0
  7 19  2  0  0  0  0
  8 17  1  0  0  0  0
  8 20  2  0  0  0  0
  9 10  1  0  0  0  0
  9 11  1  0  0  0  0
  9 14  1  0  0  0  0
  9 31  1  0  0  0  0
 10 12  1  0  0  0  0
 10 32  1  0  0  0  0
 10 33  1  0  0  0  0
 11 13  1  0  0  0  0
 11 34  1  0  0  0  0
 11 35  1  0  0  0  0
 12 36  1  0  0  0  0
 12 37  1  0  0  0  0
 13 38  1  0  0  0  0
 13 39  1  0  0  0  0
 15 16  1  0  0  0  0
 15 17  2  0  0  0  0
 16 18  2  0  0  0  0
 16 40  1  0  0  0  0
 17 41  1  0  0  0  0
 18 20  1  0  0  0  0
 18 22  1  0  0  0  0
 19 21  1  0  0  0  0
 20 23  1  0  0  0  0
 21 26  2  0  0  0  0
 21 27  1  0  0  0  0
 22 24  2  0  0  0  0
 22 42  1  0  0  0  0
 23 25  2  0  0  0  0
 23 43  1  0  0  0  0
 24 25  1  0  0  0  0
 25 44  1  0  0  0  0
 26 28  1  0  0  0  0
 27 29  2  0  0  0  0
 27 45  1  0  0  0  0
 28 30  2  0  0  0  0
 28 46  1  0  0  0  0
 29 30  1  0  0  0  0
 29 47  1  0  0  0  0
M  END
> <PUBCHEM_COMPOUND_CID>
24894134

> <PUBCHEM_COMPOUND_CANONICALIZED>
1

> <PUBCHEM_CACTVS_COMPLEXITY>
581

> <PUBCHEM_CACTVS_HBOND_ACCEPTOR>
6

> <PUBCHEM_CACTVS_HBOND_DONOR>
0

> <PUBCHEM_CACTVS_ROTATABLE_BOND>
3

> <PUBCHEM_CACTVS_SUBSKEYS>
AAADceB7oQAGAAAAAAAAAAAAAAAAAWAAAAA8eIEAAAAAAACx/AAAHwIEAAAADQrBnyw90PcYEACpAzd3dgCCgCkxF6Ap2CE4dpiIaPLBm5GUIAhkhQLIyAc0gIAOAABAIAADAAAAAIBAAAYAAAAAAAAAAA==

> <PUBCHEM_IUPAC_OPENEYE_NAME>
3-(2-chloro-4-fluoro-phenyl)-5-[1-(6-chloro-3-quinolyl)-4-piperidyl]-1,2,4-oxadiazole

> <PUBCHEM_IUPAC_CAS_NAME>
3-(2-chloro-4-fluorophenyl)-5-[1-(6-chloro-3-quinolinyl)-4-piperidinyl]-1,2,4-oxadiazole

> <PUBCHEM_IUPAC_NAME_MARKUP>
3-(2-chloro-4-fluorophenyl)-5-[1-(6-chloroquinolin-3-yl)piperidin-4-yl]-1,2,4-oxadiazole

> <PUBCHEM_IUPAC_NAME>
3-(2-chloro-4-fluorophenyl)-5-[1-(6-chloroquinolin-3-yl)piperidin-4-yl]-1,2,4-oxadiazole

> <PUBCHEM_IUPAC_SYSTEMATIC_NAME>
3-(2-chloranyl-4-fluoranyl-phenyl)-5-[1-(6-chloranylquinolin-3-yl)piperidin-4-yl]-1,2,4-oxadiazole

> <PUBCHEM_IUPAC_TRADITIONAL_NAME>
3-(2-chloro-4-fluoro-phenyl)-5-[1-(6-chloro-3-quinolyl)-4-piperidyl]-1,2,4-oxadiazole

> <PUBCHEM_IUPAC_INCHI>
InChI=1S/C22H17Cl2FN4O/c23-15-1-4-20-14(9-15)10-17(12-26-20)29-7-5-13(6-8-29)22-27-21(28-30-22)18-3-2-16(25)11-19(18)24/h1-4,9-13H,5-8H2

> <PUBCHEM_IUPAC_INCHIKEY>
KZPYBMNBUZPMKP-UHFFFAOYSA-N

> <PUBCHEM_XLOGP3_AA>
5.8

> <PUBCHEM_EXACT_MASS>
442.0763447

> <PUBCHEM_MOLECULAR_FORMULA>
C22H17Cl2FN4O

> <PUBCHEM_MOLECULAR_WEIGHT>
443.3

> <PUBCHEM_OPENEYE_CAN_SMILES>
C1CN(CCC1C2=NC(=NO2)C3=C(C=C(C=C3)F)Cl)C4=CN=C5C=CC(=CC5=C4)Cl

> <PUBCHEM_OPENEYE_ISO_SMILES>
C1CN(CCC1C2=NC(=NO2)C3=C(C=C(C=C3)F)Cl)C4=CN=C5C=CC(=CC5=C4)Cl

> <PUBCHEM_CACTVS_TPSA>
55

> <PUBCHEM_MONOISOTOPIC_WEIGHT>
442.0763447

> <PUBCHEM_TOTAL_CHARGE>
0

> <PUBCHEM_HEAVY_ATOM_COUNT>
30

> <PUBCHEM_ATOM_DEF_STEREO_COUNT>
0

> <PUBCHEM_ATOM_UDEF_STEREO_COUNT>
0

> <PUBCHEM_BOND_DEF_STEREO_COUNT>
0

> <PUBCHEM_BOND_UDEF_STEREO_COUNT>
0

> <PUBCHEM_ISOTOPIC_ATOM_COUNT>
0

> <PUBCHEM_COMPONENT_COUNT>
1

> <PUBCHEM_CACTVS_TAUTO_COUNT>
-1

> <PUBCHEM_COORDINATE_TYPE>
1
5
255

> <PUBCHEM_BONDANNOTATIONS>
15  16  8
15  17  8
16  18  8
18  20  8
18  22  8
20  23  8
21  26  8
21  27  8
22  24  8
23  25  8
24  25  8
26  28  8
27  29  8
28  30  8
29  30  8
4  14  8
4  7  8
6  14  8
6  19  8
7  19  8
8  17  8
8  20  8

$$$$
