44338224
  -OEChem-09292322192D

 47 50  0     0  0  0  0  0  0999 V2000
    8.9030    1.9540    0.0000 Cl  0  0  0  0  0  0  0  0  0  0  0  0
    6.2619   -0.6261    0.0000 S   0  0  0  0  0  0  0  0  0  0  0  0
   10.7619   -1.4921    0.0000 S   0  0  0  0  0  0  0  0  0  0  0  0
   10.7619   -2.4921    0.0000 O   0  0  0  0  0  0  0  0  0  0  0  0
   10.7619   -0.4921    0.0000 O   0  0  0  0  0  0  0  0  0  0  0  0
    4.6783    0.1786    0.0000 N   0  0  0  0  0  0  0  0  0  0  0  0
    4.6783   -1.4308    0.0000 N   0  0  0  0  0  0  0  0  0  0  0  0
   11.7619   -1.4921    0.0000 N   0  0  0  0  0  0  0  0  0  0  0  0
    3.7320   -0.1261    0.0000 C   0  0  0  0  0  0  0  0  0  0  0  0
    4.9889    1.1292    0.0000 C   0  0  0  0  0  0  0  0  0  0  0  0
    5.2619   -0.6261    0.0000 C   0  0  0  0  0  0  0  0  0  0  0  0
    3.7320   -1.1261    0.0000 C   0  0  0  0  0  0  0  0  0  0  0  0
    5.9674    1.3354    0.0000 C   0  0  0  0  0  0  0  0  0  0  0  0
    2.8660    0.3739    0.0000 C   0  0  0  0  0  0  0  0  0  0  0  0
    6.7619   -1.4921    0.0000 C   0  0  0  0  0  0  0  0  0  0  0  0
    2.8660   -1.6261    0.0000 C   0  0  0  0  0  0  0  0  0  0  0  0
    7.7619   -1.4921    0.0000 C   0  0  0  0  0  0  0  0  0  0  0  0
    2.0000   -0.1261    0.0000 C   0  0  0  0  0  0  0  0  0  0  0  0
    6.2781    2.2859    0.0000 C   0  0  0  0  0  0  0  0  0  0  0  0
    6.6353    0.5911    0.0000 C   0  0  0  0  0  0  0  0  0  0  0  0
    2.0000   -1.1261    0.0000 C   0  0  0  0  0  0  0  0  0  0  0  0
    9.7619   -1.4921    0.0000 C   0  0  0  0  0  0  0  0  0  0  0  0
    8.2619   -0.6261    0.0000 C   0  0  0  0  0  0  0  0  0  0  0  0
    8.2619   -2.3581    0.0000 C   0  0  0  0  0  0  0  0  0  0  0  0
    9.2619   -0.6261    0.0000 C   0  0  0  0  0  0  0  0  0  0  0  0
    9.2619   -2.3581    0.0000 C   0  0  0  0  0  0  0  0  0  0  0  0
    7.2566    2.4921    0.0000 C   0  0  0  0  0  0  0  0  0  0  0  0
    7.6138    0.7973    0.0000 C   0  0  0  0  0  0  0  0  0  0  0  0
    7.9244    1.7478    0.0000 C   0  0  0  0  0  0  0  0  0  0  0  0
    4.9684    1.7488    0.0000 H   0  0  0  0  0  0  0  0  0  0  0  0
    4.3751    1.2165    0.0000 H   0  0  0  0  0  0  0  0  0  0  0  0
    2.8660    0.9939    0.0000 H   0  0  0  0  0  0  0  0  0  0  0  0
    6.1793   -1.7042    0.0000 H   0  0  0  0  0  0  0  0  0  0  0  0
    6.8695   -2.1027    0.0000 H   0  0  0  0  0  0  0  0  0  0  0  0
    2.8660   -2.2461    0.0000 H   0  0  0  0  0  0  0  0  0  0  0  0
    1.4631    0.1839    0.0000 H   0  0  0  0  0  0  0  0  0  0  0  0
    5.8640    2.7474    0.0000 H   0  0  0  0  0  0  0  0  0  0  0  0
    6.4427    0.0018    0.0000 H   0  0  0  0  0  0  0  0  0  0  0  0
    1.4631   -1.4361    0.0000 H   0  0  0  0  0  0  0  0  0  0  0  0
    7.9519   -0.0892    0.0000 H   0  0  0  0  0  0  0  0  0  0  0  0
    7.9519   -2.8951    0.0000 H   0  0  0  0  0  0  0  0  0  0  0  0
    9.5719   -0.0892    0.0000 H   0  0  0  0  0  0  0  0  0  0  0  0
    9.5719   -2.8951    0.0000 H   0  0  0  0  0  0  0  0  0  0  0  0
    7.4492    3.0814    0.0000 H   0  0  0  0  0  0  0  0  0  0  0  0
    8.0279    0.3358    0.0000 H   0  0  0  0  0  0  0  0  0  0  0  0
   12.0719   -2.0290    0.0000 H   0  0  0  0  0  0  0  0  0  0  0  0
   12.0719   -0.9552    0.0000 H   0  0  0  0  0  0  0  0  0  0  0  0
  1 29  1  0  0  0  0
  2 11  1  0  0  0  0
  2 15  1  0  0  0  0
  3  4  2  0  0  0  0
  3  5  2  0  0  0  0
  3  8  1  0  0  0  0
  3 22  1  0  0  0  0
  6  9  1  0  0  0  0
  6 10  1  0  0  0  0
  6 11  1  0  0  0  0
  7 11  2  0  0  0  0
  7 12  1  0  0  0  0
  8 46  1  0  0  0  0
  8 47  1  0  0  0  0
  9 12  1  0  0  0  0
  9 14  2  0  0  0  0
 10 13  1  0  0  0  0
 10 30  1  0  0  0  0
 10 31  1  0  0  0  0
 12 16  2  0  0  0  0
 13 19  2  0  0  0  0
 13 20  1  0  0  0  0
 14 18  1  0  0  0  0
 14 32  1  0  0  0  0
 15 17  1  0  0  0  0
 15 33  1  0  0  0  0
 15 34  1  0  0  0  0
 16 21  1  0  0  0  0
 16 35  1  0  0  0  0
 17 23  2  0  0  0  0
 17 24  1  0  0  0  0
 18 21  2  0  0  0  0
 18 36  1  0  0  0  0
 19 27  1  0  0  0  0
 19 37  1  0  0  0  0
 20 28  2  0  0  0  0
 20 38  1  0  0  0  0
 21 39  1  0  0  0  0
 22 25  2  0  0  0  0
 22 26  1  0  0  0  0
 23 25  1  0  0  0  0
 23 40  1  0  0  0  0
 24 26  2  0  0  0  0
 24 41  1  0  0  0  0
 25 42  1  0  0  0  0
 26 43  1  0  0  0  0
 27 29  2  0  0  0  0
 27 44  1  0  0  0  0
 28 29  1  0  0  0  0
 28 45  1  0  0  0  0
M  END
> <PUBCHEM_COMPOUND_CID>
44338224

> <PUBCHEM_COMPOUND_CANONICALIZED>
1

> <PUBCHEM_CACTVS_COMPLEXITY>
628

> <PUBCHEM_CACTVS_HBOND_ACCEPTOR>
5

> <PUBCHEM_CACTVS_HBOND_DONOR>
1

> <PUBCHEM_CACTVS_ROTATABLE_BOND>
6

> <PUBCHEM_CACTVS_SUBSKEYS>
AAADceB7MABkAAAAAAAAAAAAAAAAAWAAAAAwYMAAAAAAAFgB9AAAHAYQQAAADArFXiSx0bcMEAqgAyRiZHDC0D1hF7AJ2Dg4dpiIaKLhm5GUIAhogALIyCcQgAAOFAAAAAAAACAoAAAAAAAAQAAAAAAAAA==

> <PUBCHEM_IUPAC_OPENEYE_NAME>
4-[[1-[(4-chlorophenyl)methyl]benzimidazol-2-yl]sulfanylmethyl]benzenesulfonamide

> <PUBCHEM_IUPAC_CAS_NAME>
4-[[[1-[(4-chlorophenyl)methyl]-2-benzimidazolyl]thio]methyl]benzenesulfonamide

> <PUBCHEM_IUPAC_NAME_MARKUP>
4-[[1-[(4-chlorophenyl)methyl]benzimidazol-2-yl]sulfanylmethyl]benzenesulfonamide

> <PUBCHEM_IUPAC_NAME>
4-[[1-[(4-chlorophenyl)methyl]benzimidazol-2-yl]sulfanylmethyl]benzenesulfonamide

> <PUBCHEM_IUPAC_SYSTEMATIC_NAME>
4-[[1-[(4-chlorophenyl)methyl]benzimidazol-2-yl]sulfanylmethyl]benzenesulfonamide

> <PUBCHEM_IUPAC_TRADITIONAL_NAME>
4-[[[1-(4-chlorobenzyl)benzimidazol-2-yl]thio]methyl]benzenesulfonamide

> <PUBCHEM_IUPAC_INCHI>
InChI=1S/C21H18ClN3O2S2/c22-17-9-5-15(6-10-17)13-25-20-4-2-1-3-19(20)24-21(25)28-14-16-7-11-18(12-8-16)29(23,26)27/h1-12H,13-14H2,(H2,23,26,27)

> <PUBCHEM_IUPAC_INCHIKEY>
UXACRXVBPVXVBZ-UHFFFAOYSA-N

> <PUBCHEM_XLOGP3_AA>
4.6

> <PUBCHEM_EXACT_MASS>
443.0528969

> <PUBCHEM_MOLECULAR_FORMULA>
C21H18ClN3O2S2

> <PUBCHEM_MOLECULAR_WEIGHT>
444.0

> <PUBCHEM_OPENEYE_CAN_SMILES>
C1=CC=C2C(=C1)N=C(N2CC3=CC=C(C=C3)Cl)SCC4=CC=C(C=C4)S(=O)(=O)N

> <PUBCHEM_OPENEYE_ISO_SMILES>
C1=CC=C2C(=C1)N=C(N2CC3=CC=C(C=C3)Cl)SCC4=CC=C(C=C4)S(=O)(=O)N

> <PUBCHEM_CACTVS_TPSA>
112

> <PUBCHEM_MONOISOTOPIC_WEIGHT>
443.0528969

> <PUBCHEM_TOTAL_CHARGE>
0

> <PUBCHEM_HEAVY_ATOM_COUNT>
29

> <PUBCHEM_ATOM_DEF_STEREO_COUNT>
0

> <PUBCHEM_ATOM_UDEF_STEREO_COUNT>
0

> <PUBCHEM_BOND_DEF_STEREO_COUNT>
0

> <PUBCHEM_BOND_UDEF_STEREO_COUNT>
0

> <PUBCHEM_ISOTOPIC_ATOM_COUNT>
0

> <PUBCHEM_COMPONENT_COUNT>
1

> <PUBCHEM_CACTVS_TAUTO_COUNT>
-1

> <PUBCHEM_COORDINATE_TYPE>
1
5
255

> <PUBCHEM_BONDANNOTATIONS>
12  16  8
13  19  8
13  20  8
14  18  8
16  21  8
17  23  8
17  24  8
18  21  8
19  27  8
20  28  8
22  25  8
22  26  8
23  25  8
24  26  8
27  29  8
28  29  8
6  11  8
6  9  8
7  11  8
7  12  8
9  12  8
9  14  8

$$$$
