46830336
  -OEChem-09292322072D

 70 73  0     1  0  0  0  0  0999 V2000
    3.8522   -5.7352    0.0000 F   0  0  0  0  0  0  0  0  0  0  0  0
    6.2033   -8.9713    0.0000 F   0  0  0  0  0  0  0  0  0  0  0  0
    6.2731    8.9713    0.0000 F   0  0  0  0  0  0  0  0  0  0  0  0
    7.2731    7.9713    0.0000 F   0  0  0  0  0  0  0  0  0  0  0  0
    5.2731    7.9713    0.0000 F   0  0  0  0  0  0  0  0  0  0  0  0
    4.5411    1.9713    0.0000 O   0  0  0  0  0  0  0  0  0  0  0  0
    6.8357   -5.4216    0.0000 O   0  0  0  0  0  0  0  0  0  0  0  0
    3.6750    5.4713    0.0000 O   0  0  0  0  0  0  0  0  0  0  0  0
    3.3090   -0.5675    0.0000 N   0  0  3  0  0  0  0  0  0  0  0  0
    4.0778   -3.0991    0.0000 N   0  0  0  0  0  0  0  0  0  0  0  0
    2.8090    1.9713    0.0000 N   0  0  0  0  0  0  0  0  0  0  0  0
    5.2534   -4.7172    0.0000 N   0  0  0  0  0  0  0  0  0  0  0  0
    4.5411    3.9713    0.0000 N   0  0  0  0  0  0  0  0  0  0  0  0
    2.8090    0.9713    0.0000 C   0  0  1  0  0  0  0  0  0  0  0  0
    3.6180    0.3835    0.0000 C   0  0  0  0  0  0  0  0  0  0  0  0
    2.0000    0.3835    0.0000 C   0  0  0  0  0  0  0  0  0  0  0  0
    2.3090   -0.5675    0.0000 C   0  0  0  0  0  0  0  0  0  0  0  0
    3.8968   -1.3766    0.0000 C   0  0  0  0  0  0  0  0  0  0  0  0
    3.4901   -2.2901    0.0000 C   0  0  0  0  0  0  0  0  0  0  0  0
    5.0724   -2.9946    0.0000 C   0  0  0  0  0  0  0  0  0  0  0  0
    3.6711   -4.0127    0.0000 C   0  0  0  0  0  0  0  0  0  0  0  0
    5.6602   -3.8036    0.0000 C   0  0  0  0  0  0  0  0  0  0  0  0
    4.2589   -4.8217    0.0000 C   0  0  0  0  0  0  0  0  0  0  0  0
    3.6750    2.4713    0.0000 C   0  0  0  0  0  0  0  0  0  0  0  0
    5.8412   -5.5262    0.0000 C   0  0  0  0  0  0  0  0  0  0  0  0
    3.6750    3.4713    0.0000 C   0  0  0  0  0  0  0  0  0  0  0  0
    5.4345   -6.4397    0.0000 C   0  0  0  0  0  0  0  0  0  0  0  0
    4.4399   -6.5442    0.0000 C   0  0  0  0  0  0  0  0  0  0  0  0
    6.0223   -7.2487    0.0000 C   0  0  0  0  0  0  0  0  0  0  0  0
    4.5411    4.9713    0.0000 C   0  0  0  0  0  0  0  0  0  0  0  0
    5.6155   -8.1623    0.0000 C   0  0  0  0  0  0  0  0  0  0  0  0
    4.0332   -7.4578    0.0000 C   0  0  0  0  0  0  0  0  0  0  0  0
    4.6210   -8.2668    0.0000 C   0  0  0  0  0  0  0  0  0  0  0  0
    5.4071    5.4713    0.0000 C   0  0  0  0  0  0  0  0  0  0  0  0
    5.4071    6.4713    0.0000 C   0  0  0  0  0  0  0  0  0  0  0  0
    6.2731    4.9713    0.0000 C   0  0  0  0  0  0  0  0  0  0  0  0
    6.2731    6.9713    0.0000 C   0  0  0  0  0  0  0  0  0  0  0  0
    7.1391    5.4713    0.0000 C   0  0  0  0  0  0  0  0  0  0  0  0
    7.1391    6.4713    0.0000 C   0  0  0  0  0  0  0  0  0  0  0  0
    6.2731    7.9713    0.0000 C   0  0  0  0  0  0  0  0  0  0  0  0
    3.3614    1.2528    0.0000 H   0  0  0  0  0  0  0  0  0  0  0  0
    4.1844    0.1313    0.0000 H   0  0  0  0  0  0  0  0  0  0  0  0
    3.9280    0.9204    0.0000 H   0  0  0  0  0  0  0  0  0  0  0  0
    1.6900    0.9204    0.0000 H   0  0  0  0  0  0  0  0  0  0  0  0
    1.4336    0.1313    0.0000 H   0  0  0  0  0  0  0  0  0  0  0  0
    1.7026   -0.6964    0.0000 H   0  0  0  0  0  0  0  0  0  0  0  0
    2.3738   -1.1842    0.0000 H   0  0  0  0  0  0  0  0  0  0  0  0
    4.4108   -1.7233    0.0000 H   0  0  0  0  0  0  0  0  0  0  0  0
    4.3275   -0.9306    0.0000 H   0  0  0  0  0  0  0  0  0  0  0  0
    2.9761   -1.9434    0.0000 H   0  0  0  0  0  0  0  0  0  0  0  0
    3.0594   -2.7361    0.0000 H   0  0  0  0  0  0  0  0  0  0  0  0
    5.6296   -2.7228    0.0000 H   0  0  0  0  0  0  0  0  0  0  0  0
    4.9015   -2.3986    0.0000 H   0  0  0  0  0  0  0  0  0  0  0  0
    3.1571   -3.6660    0.0000 H   0  0  0  0  0  0  0  0  0  0  0  0
    3.2404   -4.4587    0.0000 H   0  0  0  0  0  0  0  0  0  0  0  0
    2.2721    2.2813    0.0000 H   0  0  0  0  0  0  0  0  0  0  0  0
    6.1742   -4.1503    0.0000 H   0  0  0  0  0  0  0  0  0  0  0  0
    6.0908   -3.3576    0.0000 H   0  0  0  0  0  0  0  0  0  0  0  0
    3.7016   -5.0935    0.0000 H   0  0  0  0  0  0  0  0  0  0  0  0
    4.4298   -5.4177    0.0000 H   0  0  0  0  0  0  0  0  0  0  0  0
    3.4630    4.0539    0.0000 H   0  0  0  0  0  0  0  0  0  0  0  0
    3.0645    3.3636    0.0000 H   0  0  0  0  0  0  0  0  0  0  0  0
    5.0780    3.6613    0.0000 H   0  0  0  0  0  0  0  0  0  0  0  0
    6.6389   -7.1839    0.0000 H   0  0  0  0  0  0  0  0  0  0  0  0
    3.4166   -7.5226    0.0000 H   0  0  0  0  0  0  0  0  0  0  0  0
    4.3688   -8.8332    0.0000 H   0  0  0  0  0  0  0  0  0  0  0  0
    4.8702    6.7813    0.0000 H   0  0  0  0  0  0  0  0  0  0  0  0
    6.2731    4.3513    0.0000 H   0  0  0  0  0  0  0  0  0  0  0  0
    7.6761    5.1613    0.0000 H   0  0  0  0  0  0  0  0  0  0  0  0
    7.6761    6.7813    0.0000 H   0  0  0  0  0  0  0  0  0  0  0  0
  1 28  1  0  0  0  0
  2 31  1  0  0  0  0
  3 40  1  0  0  0  0
  4 40  1  0  0  0  0
  5 40  1  0  0  0  0
  6 24  2  0  0  0  0
  7 25  2  0  0  0  0
  8 30  2  0  0  0  0
  9 15  1  0  0  0  0
  9 17  1  0  0  0  0
  9 18  1  0  0  0  0
 10 19  1  0  0  0  0
 10 20  1  0  0  0  0
 10 21  1  0  0  0  0
 14 11  1  1  0  0  0
 11 24  1  0  0  0  0
 11 56  1  0  0  0  0
 12 22  1  0  0  0  0
 12 23  1  0  0  0  0
 12 25  1  0  0  0  0
 13 26  1  0  0  0  0
 13 30  1  0  0  0  0
 13 63  1  0  0  0  0
 14 15  1  0  0  0  0
 14 16  1  0  0  0  0
 14 41  1  0  0  0  0
 15 42  1  0  0  0  0
 15 43  1  0  0  0  0
 16 17  1  0  0  0  0
 16 44  1  0  0  0  0
 16 45  1  0  0  0  0
 17 46  1  0  0  0  0
 17 47  1  0  0  0  0
 18 19  1  0  0  0  0
 18 48  1  0  0  0  0
 18 49  1  0  0  0  0
 19 50  1  0  0  0  0
 19 51  1  0  0  0  0
 20 22  1  0  0  0  0
 20 52  1  0  0  0  0
 20 53  1  0  0  0  0
 21 23  1  0  0  0  0
 21 54  1  0  0  0  0
 21 55  1  0  0  0  0
 22 57  1  0  0  0  0
 22 58  1  0  0  0  0
 23 59  1  0  0  0  0
 23 60  1  0  0  0  0
 24 26  1  0  0  0  0
 25 27  1  0  0  0  0
 26 61  1  0  0  0  0
 26 62  1  0  0  0  0
 27 28  2  0  0  0  0
 27 29  1  0  0  0  0
 28 32  1  0  0  0  0
 29 31  2  0  0  0  0
 29 64  1  0  0  0  0
 30 34  1  0  0  0  0
 31 33  1  0  0  0  0
 32 33  2  0  0  0  0
 32 65  1  0  0  0  0
 33 66  1  0  0  0  0
 34 35  2  0  0  0  0
 34 36  1  0  0  0  0
 35 37  1  0  0  0  0
 35 67  1  0  0  0  0
 36 38  2  0  0  0  0
 36 68  1  0  0  0  0
 37 39  2  0  0  0  0
 37 40  1  0  0  0  0
 38 39  1  0  0  0  0
 38 69  1  0  0  0  0
 39 70  1  0  0  0  0
M  END
> <PUBCHEM_COMPOUND_CID>
46830336

> <PUBCHEM_COMPOUND_CANONICALIZED>
1

> <PUBCHEM_CACTVS_COMPLEXITY>
885

> <PUBCHEM_CACTVS_HBOND_ACCEPTOR>
10

> <PUBCHEM_CACTVS_HBOND_DONOR>
2

> <PUBCHEM_CACTVS_ROTATABLE_BOND>
8

> <PUBCHEM_CACTVS_SUBSKEYS>
AAADceB7scAAAAAAAAAAAAAAAAAAAWAAAAA8YIAAAAAAAAABQAAAHwAQAAAADCjBmBwwAIPAAACIAiFSEACCAAAkAAAIiIGIBMgIYDKA1TGUIQhglgCIiYcYiECOAAACAAAAAAAAAAQAAAAAAAAAAAAAAA==

> <PUBCHEM_IUPAC_OPENEYE_NAME>
N-[2-[[(3R)-1-[2-[4-(2,5-difluorobenzoyl)piperazin-1-yl]ethyl]pyrrolidin-3-yl]amino]-2-oxo-ethyl]-3-(trifluoromethyl)benzamide

> <PUBCHEM_IUPAC_CAS_NAME>
N-[2-[[(3R)-1-[2-[4-[(2,5-difluorophenyl)-oxomethyl]-1-piperazinyl]ethyl]-3-pyrrolidinyl]amino]-2-oxoethyl]-3-(trifluoromethyl)benzamide

> <PUBCHEM_IUPAC_NAME_MARKUP>
<I>N</I>-[2-[[(3<I>R</I>)-1-[2-[4-(2,5-difluorobenzoyl)piperazin-1-yl]ethyl]pyrrolidin-3-yl]amino]-2-oxoethyl]-3-(trifluoromethyl)benzamide

> <PUBCHEM_IUPAC_NAME>
N-[2-[[(3R)-1-[2-[4-(2,5-difluorobenzoyl)piperazin-1-yl]ethyl]pyrrolidin-3-yl]amino]-2-oxoethyl]-3-(trifluoromethyl)benzamide

> <PUBCHEM_IUPAC_SYSTEMATIC_NAME>
N-[2-[[(3R)-1-[2-[4-[2,5-bis(fluoranyl)phenyl]carbonylpiperazin-1-yl]ethyl]pyrrolidin-3-yl]amino]-2-oxidanylidene-ethyl]-3-(trifluoromethyl)benzamide

> <PUBCHEM_IUPAC_TRADITIONAL_NAME>
N-[2-[[(3R)-1-[2-[4-(2,5-difluorobenzoyl)piperazino]ethyl]pyrrolidin-3-yl]amino]-2-keto-ethyl]-3-(trifluoromethyl)benzamide

> <PUBCHEM_IUPAC_INCHI>
InChI=1S/C27H30F5N5O3/c28-20-4-5-23(29)22(15-20)26(40)37-12-10-35(11-13-37)8-9-36-7-6-21(17-36)34-24(38)16-33-25(39)18-2-1-3-19(14-18)27(30,31)32/h1-5,14-15,21H,6-13,16-17H2,(H,33,39)(H,34,38)/t21-/m1/s1

> <PUBCHEM_IUPAC_INCHIKEY>
QIBDSCJTWMYQTC-OAQYLSRUSA-N

> <PUBCHEM_XLOGP3_AA>
2.8

> <PUBCHEM_EXACT_MASS>
567.22688065

> <PUBCHEM_MOLECULAR_FORMULA>
C27H30F5N5O3

> <PUBCHEM_MOLECULAR_WEIGHT>
567.5

> <PUBCHEM_OPENEYE_CAN_SMILES>
C1CN(CC1NC(=O)CNC(=O)C2=CC(=CC=C2)C(F)(F)F)CCN3CCN(CC3)C(=O)C4=C(C=CC(=C4)F)F

> <PUBCHEM_OPENEYE_ISO_SMILES>
C1CN(C[C@@H]1NC(=O)CNC(=O)C2=CC(=CC=C2)C(F)(F)F)CCN3CCN(CC3)C(=O)C4=C(C=CC(=C4)F)F

> <PUBCHEM_CACTVS_TPSA>
85

> <PUBCHEM_MONOISOTOPIC_WEIGHT>
567.22688065

> <PUBCHEM_TOTAL_CHARGE>
0

> <PUBCHEM_HEAVY_ATOM_COUNT>
40

> <PUBCHEM_ATOM_DEF_STEREO_COUNT>
1

> <PUBCHEM_ATOM_UDEF_STEREO_COUNT>
0

> <PUBCHEM_BOND_DEF_STEREO_COUNT>
0

> <PUBCHEM_BOND_UDEF_STEREO_COUNT>
0

> <PUBCHEM_ISOTOPIC_ATOM_COUNT>
0

> <PUBCHEM_COMPONENT_COUNT>
1

> <PUBCHEM_CACTVS_TAUTO_COUNT>
-1

> <PUBCHEM_COORDINATE_TYPE>
1
5
255

> <PUBCHEM_BONDANNOTATIONS>
14  11  5
27  28  8
27  29  8
28  32  8
29  31  8
31  33  8
32  33  8
34  35  8
34  36  8
35  37  8
36  38  8
37  39  8
38  39  8

$$$$
