70684339
  -OEChem-09292322482D

 50 53  0     1  0  0  0  0  0999 V2000
    3.7010    2.1973    0.0000 O   0  0  0  0  0  0  0  0  0  0  0  0
    6.6929    0.0192    0.0000 N   0  0  3  0  0  0  0  0  0  0  0  0
    3.4402   -1.1935    0.0000 N   0  0  0  0  0  0  0  0  0  0  0  0
    5.1541   -0.4808    0.0000 C   0  0  1  0  0  0  0  0  0  0  0  0
    5.1541    0.5192    0.0000 C   0  0  2  0  0  0  0  0  0  0  0  0
    4.1458   -0.4849    0.0000 C   0  0  2  0  0  0  0  0  0  0  0  0
    4.1458    0.5234    0.0000 C   0  0  2  0  0  0  0  0  0  0  0  0
    6.1052   -0.7898    0.0000 C   0  0  2  0  0  0  0  0  0  0  0  0
    6.1052    0.8283    0.0000 C   0  0  0  0  0  0  0  0  0  0  0  0
    3.4402    1.2320    0.0000 C   0  0  0  0  0  0  0  0  0  0  0  0
    6.4142   -1.7408    0.0000 C   0  0  0  0  0  0  0  0  0  0  0  0
    2.4522   -1.0390    0.0000 C   0  0  0  0  0  0  0  0  0  0  0  0
    3.5986   -2.1808    0.0000 C   0  0  0  0  0  0  0  0  0  0  0  0
    7.6929    0.0192    0.0000 C   0  0  0  0  0  0  0  0  0  0  0  0
    2.0000   -1.9310    0.0000 C   0  0  0  0  0  0  0  0  0  0  0  0
    2.7086   -2.6366    0.0000 C   0  0  0  0  0  0  0  0  0  0  0  0
    8.1929    0.8853    0.0000 C   0  0  0  0  0  0  0  0  0  0  0  0
    9.1929    0.8853    0.0000 C   0  0  0  0  0  0  0  0  0  0  0  0
    7.6929    1.7513    0.0000 C   0  0  0  0  0  0  0  0  0  0  0  0
    9.6929    1.7513    0.0000 C   0  0  0  0  0  0  0  0  0  0  0  0
    8.1929    2.6173    0.0000 C   0  0  0  0  0  0  0  0  0  0  0  0
    9.1929    2.6173    0.0000 C   0  0  0  0  0  0  0  0  0  0  0  0
    5.0228   -1.3206    0.0000 H   0  0  0  0  0  0  0  0  0  0  0  0
    5.0228    1.3591    0.0000 H   0  0  0  0  0  0  0  0  0  0  0  0
    3.5728   -0.2482    0.0000 H   0  0  0  0  0  0  0  0  0  0  0  0
    3.5728    0.2867    0.0000 H   0  0  0  0  0  0  0  0  0  0  0  0
    6.7175   -0.8868    0.0000 H   0  0  0  0  0  0  0  0  0  0  0  0
    6.6421    1.1383    0.0000 H   0  0  0  0  0  0  0  0  0  0  0  0
    5.8530    1.3947    0.0000 H   0  0  0  0  0  0  0  0  0  0  0  0
    2.8788    1.4951    0.0000 H   0  0  0  0  0  0  0  0  0  0  0  0
    3.0835    0.7248    0.0000 H   0  0  0  0  0  0  0  0  0  0  0  0
    5.8245   -1.9324    0.0000 H   0  0  0  0  0  0  0  0  0  0  0  0
    6.6058   -2.3305    0.0000 H   0  0  0  0  0  0  0  0  0  0  0  0
    7.0038   -1.5492    0.0000 H   0  0  0  0  0  0  0  0  0  0  0  0
    2.6114   -0.4399    0.0000 H   0  0  0  0  0  0  0  0  0  0  0  0
    1.8729   -0.8181    0.0000 H   0  0  0  0  0  0  0  0  0  0  0  0
    3.8220   -2.7592    0.0000 H   0  0  0  0  0  0  0  0  0  0  0  0
    4.1972   -2.0191    0.0000 H   0  0  0  0  0  0  0  0  0  0  0  0
    7.5853   -0.5913    0.0000 H   0  0  0  0  0  0  0  0  0  0  0  0
    8.2756   -0.1928    0.0000 H   0  0  0  0  0  0  0  0  0  0  0  0
    1.4793   -1.5944    0.0000 H   0  0  0  0  0  0  0  0  0  0  0  0
    1.6108   -2.4136    0.0000 H   0  0  0  0  0  0  0  0  0  0  0  0
    2.2275   -3.0278    0.0000 H   0  0  0  0  0  0  0  0  0  0  0  0
    3.0473   -3.1559    0.0000 H   0  0  0  0  0  0  0  0  0  0  0  0
    3.2635    2.6366    0.0000 H   0  0  0  0  0  0  0  0  0  0  0  0
    9.5029    0.3483    0.0000 H   0  0  0  0  0  0  0  0  0  0  0  0
    7.0729    1.7513    0.0000 H   0  0  0  0  0  0  0  0  0  0  0  0
   10.3129    1.7513    0.0000 H   0  0  0  0  0  0  0  0  0  0  0  0
    7.8829    3.1543    0.0000 H   0  0  0  0  0  0  0  0  0  0  0  0
    9.5029    3.1543    0.0000 H   0  0  0  0  0  0  0  0  0  0  0  0
  1 10  1  0  0  0  0
  1 45  1  0  0  0  0
  2  8  1  0  0  0  0
  2  9  1  0  0  0  0
  2 14  1  0  0  0  0
  6  3  1  1  0  0  0
  3 12  1  0  0  0  0
  3 13  1  0  0  0  0
  4  5  1  0  0  0  0
  4  6  1  0  0  0  0
  4  8  1  0  0  0  0
  4 23  1  1  0  0  0
  5  7  1  0  0  0  0
  5  9  1  0  0  0  0
  5 24  1  1  0  0  0
  6  7  1  0  0  0  0
  6 25  1  0  0  0  0
  7 10  1  6  0  0  0
  7 26  1  0  0  0  0
  8 11  1  1  0  0  0
  8 27  1  0  0  0  0
  9 28  1  0  0  0  0
  9 29  1  0  0  0  0
 10 30  1  0  0  0  0
 10 31  1  0  0  0  0
 11 32  1  0  0  0  0
 11 33  1  0  0  0  0
 11 34  1  0  0  0  0
 12 15  1  0  0  0  0
 12 35  1  0  0  0  0
 12 36  1  0  0  0  0
 13 16  1  0  0  0  0
 13 37  1  0  0  0  0
 13 38  1  0  0  0  0
 14 17  1  0  0  0  0
 14 39  1  0  0  0  0
 14 40  1  0  0  0  0
 15 16  1  0  0  0  0
 15 41  1  0  0  0  0
 15 42  1  0  0  0  0
 16 43  1  0  0  0  0
 16 44  1  0  0  0  0
 17 18  2  0  0  0  0
 17 19  1  0  0  0  0
 18 20  1  0  0  0  0
 18 46  1  0  0  0  0
 19 21  2  0  0  0  0
 19 47  1  0  0  0  0
 20 22  2  0  0  0  0
 20 48  1  0  0  0  0
 21 22  1  0  0  0  0
 21 49  1  0  0  0  0
 22 50  1  0  0  0  0
M  END
> <PUBCHEM_COMPOUND_CID>
70684339

> <PUBCHEM_COMPOUND_CANONICALIZED>
1

> <PUBCHEM_CACTVS_COMPLEXITY>
376

> <PUBCHEM_CACTVS_HBOND_ACCEPTOR>
3

> <PUBCHEM_CACTVS_HBOND_DONOR>
1

> <PUBCHEM_CACTVS_ROTATABLE_BOND>
4

> <PUBCHEM_CACTVS_SUBSKEYS>
AAADceB7IAAAAAAAAAAAAAAAAABgAWLAAAAwAAAABYAAAAABAAAAHgAACAAADSjhmAYyAIMAAgCAAiBCAACCAAAgAAAIiAAIBIgIMCKA0RGEYAhmgACIiAew0AMOgAAAAAAAAAAAAAAAAAAAAAAAAAAAAA==

> <PUBCHEM_IUPAC_OPENEYE_NAME>
[(1R,2S,5R,6R,7R)-3-benzyl-2-methyl-7-pyrrolidin-1-yl-3-azabicyclo[3.2.0]heptan-6-yl]methanol

> <PUBCHEM_IUPAC_CAS_NAME>
[(1R,2S,5R,6R,7R)-2-methyl-3-(phenylmethyl)-7-(1-pyrrolidinyl)-3-azabicyclo[3.2.0]heptan-6-yl]methanol

> <PUBCHEM_IUPAC_NAME_MARKUP>
[(1<I>R</I>,2<I>S</I>,5<I>R</I>,6<I>R</I>,7<I>R</I>)-3-benzyl-2-methyl-7-pyrrolidin-1-yl-3-azabicyclo[3.2.0]heptan-6-yl]methanol

> <PUBCHEM_IUPAC_NAME>
[(1R,2S,5R,6R,7R)-3-benzyl-2-methyl-7-pyrrolidin-1-yl-3-azabicyclo[3.2.0]heptan-6-yl]methanol

> <PUBCHEM_IUPAC_SYSTEMATIC_NAME>
[(1R,2S,5R,6R,7R)-2-methyl-3-(phenylmethyl)-7-pyrrolidin-1-yl-3-azabicyclo[3.2.0]heptan-6-yl]methanol

> <PUBCHEM_IUPAC_TRADITIONAL_NAME>
[(1R,2S,5R,6R,7R)-3-benzyl-2-methyl-7-pyrrolidino-3-azabicyclo[3.2.0]heptan-6-yl]methanol

> <PUBCHEM_IUPAC_INCHI>
InChI=1S/C19H28N2O/c1-14-18-16(12-21(14)11-15-7-3-2-4-8-15)17(13-22)19(18)20-9-5-6-10-20/h2-4,7-8,14,16-19,22H,5-6,9-13H2,1H3/t14-,16-,17+,18-,19-/m0/s1

> <PUBCHEM_IUPAC_INCHIKEY>
YKCXNSAIVWHWKR-UJCHZGTJSA-N

> <PUBCHEM_XLOGP3_AA>
2.4

> <PUBCHEM_EXACT_MASS>
300.220163521

> <PUBCHEM_MOLECULAR_FORMULA>
C19H28N2O

> <PUBCHEM_MOLECULAR_WEIGHT>
300.4

> <PUBCHEM_OPENEYE_CAN_SMILES>
CC1C2C(CN1CC3=CC=CC=C3)C(C2N4CCCC4)CO

> <PUBCHEM_OPENEYE_ISO_SMILES>
C[C@H]1[C@H]2[C@@H](CN1CC3=CC=CC=C3)[C@H]([C@@H]2N4CCCC4)CO

> <PUBCHEM_CACTVS_TPSA>
26.7

> <PUBCHEM_MONOISOTOPIC_WEIGHT>
300.220163521

> <PUBCHEM_TOTAL_CHARGE>
0

> <PUBCHEM_HEAVY_ATOM_COUNT>
22

> <PUBCHEM_ATOM_DEF_STEREO_COUNT>
5

> <PUBCHEM_ATOM_UDEF_STEREO_COUNT>
0

> <PUBCHEM_BOND_DEF_STEREO_COUNT>
0

> <PUBCHEM_BOND_UDEF_STEREO_COUNT>
0

> <PUBCHEM_ISOTOPIC_ATOM_COUNT>
0

> <PUBCHEM_COMPONENT_COUNT>
1

> <PUBCHEM_CACTVS_TAUTO_COUNT>
-1

> <PUBCHEM_COORDINATE_TYPE>
1
5
255

> <PUBCHEM_BONDANNOTATIONS>
17  18  8
17  19  8
18  20  8
19  21  8
20  22  8
21  22  8
6  3  5
4  23  5
5  24  5
7  10  6
8  11  5

$$$$
