17461770
  -OEChem-09292322132D

 51 54  0     1  0  0  0  0  0999 V2000
    6.4730    1.3693    0.0000 O   0  0  0  0  0  0  0  0  0  0  0  0
    7.3390    2.8693    0.0000 O   0  0  0  0  0  0  0  0  0  0  0  0
    5.3903   -1.8331    0.0000 N   0  0  3  0  0  0  0  0  0  0  0  0
    7.3390   -0.1307    0.0000 N   0  0  0  0  0  0  0  0  0  0  0  0
    6.4730   -0.6307    0.0000 C   0  0  3  0  0  0  0  0  0  0  0  0
    5.5594   -0.2240    0.0000 C   0  0  0  0  0  0  0  0  0  0  0  0
    6.3684   -1.6252    0.0000 C   0  0  0  0  0  0  0  0  0  0  0  0
    4.8903   -0.9671    0.0000 C   0  0  0  0  0  0  0  0  0  0  0  0
    4.9836   -2.7467    0.0000 C   0  0  0  0  0  0  0  0  0  0  0  0
    3.9890   -2.8512    0.0000 C   0  0  0  0  0  0  0  0  0  0  0  0
    7.3390    0.8693    0.0000 C   0  0  0  0  0  0  0  0  0  0  0  0
    8.2050    1.3693    0.0000 C   0  0  0  0  0  0  0  0  0  0  0  0
    3.5823   -3.7648    0.0000 C   0  0  0  0  0  0  0  0  0  0  0  0
    3.4013   -2.0422    0.0000 C   0  0  0  0  0  0  0  0  0  0  0  0
    8.2050    2.3693    0.0000 C   0  0  0  0  0  0  0  0  0  0  0  0
    9.0710    0.8693    0.0000 C   0  0  0  0  0  0  0  0  0  0  0  0
    9.9371    1.3693    0.0000 C   0  0  0  0  0  0  0  0  0  0  0  0
    2.5878   -3.8693    0.0000 C   0  0  0  0  0  0  0  0  0  0  0  0
    2.4067   -2.1467    0.0000 C   0  0  0  0  0  0  0  0  0  0  0  0
    9.9371    2.3693    0.0000 C   0  0  0  0  0  0  0  0  0  0  0  0
    9.0710    2.8693    0.0000 C   0  0  0  0  0  0  0  0  0  0  0  0
    2.0000   -3.0603    0.0000 C   0  0  0  0  0  0  0  0  0  0  0  0
   10.8310    0.8346    0.0000 C   0  0  0  0  0  0  0  0  0  0  0  0
   10.8310    2.9040    0.0000 C   0  0  0  0  0  0  0  0  0  0  0  0
   11.7371    1.3485    0.0000 C   0  0  0  0  0  0  0  0  0  0  0  0
   11.7371    2.3901    0.0000 C   0  0  0  0  0  0  0  0  0  0  0  0
    7.3390    3.8693    0.0000 C   0  0  0  0  0  0  0  0  0  0  0  0
    6.9930   -0.9684    0.0000 H   0  0  0  0  0  0  0  0  0  0  0  0
    5.8694    0.3130    0.0000 H   0  0  0  0  0  0  0  0  0  0  0  0
    5.0578    0.1405    0.0000 H   0  0  0  0  0  0  0  0  0  0  0  0
    6.4333   -2.2418    0.0000 H   0  0  0  0  0  0  0  0  0  0  0  0
    6.9884   -1.6252    0.0000 H   0  0  0  0  0  0  0  0  0  0  0  0
    4.4754   -0.5064    0.0000 H   0  0  0  0  0  0  0  0  0  0  0  0
    4.3887   -1.3315    0.0000 H   0  0  0  0  0  0  0  0  0  0  0  0
    4.9403   -3.3652    0.0000 H   0  0  0  0  0  0  0  0  0  0  0  0
    5.5851   -2.8967    0.0000 H   0  0  0  0  0  0  0  0  0  0  0  0
    7.8759   -0.4407    0.0000 H   0  0  0  0  0  0  0  0  0  0  0  0
    3.9467   -4.2664    0.0000 H   0  0  0  0  0  0  0  0  0  0  0  0
    3.6534   -1.4758    0.0000 H   0  0  0  0  0  0  0  0  0  0  0  0
    9.0710    0.2493    0.0000 H   0  0  0  0  0  0  0  0  0  0  0  0
    2.3356   -4.4357    0.0000 H   0  0  0  0  0  0  0  0  0  0  0  0
    2.0423   -1.6451    0.0000 H   0  0  0  0  0  0  0  0  0  0  0  0
    9.0710    3.4893    0.0000 H   0  0  0  0  0  0  0  0  0  0  0  0
    1.3834   -3.1251    0.0000 H   0  0  0  0  0  0  0  0  0  0  0  0
   10.8239    0.2147    0.0000 H   0  0  0  0  0  0  0  0  0  0  0  0
   10.8239    3.5239    0.0000 H   0  0  0  0  0  0  0  0  0  0  0  0
   12.2728    1.0364    0.0000 H   0  0  0  0  0  0  0  0  0  0  0  0
   12.2728    2.7022    0.0000 H   0  0  0  0  0  0  0  0  0  0  0  0
    7.9590    3.8693    0.0000 H   0  0  0  0  0  0  0  0  0  0  0  0
    7.3390    4.4893    0.0000 H   0  0  0  0  0  0  0  0  0  0  0  0
    6.7190    3.8693    0.0000 H   0  0  0  0  0  0  0  0  0  0  0  0
  1 11  2  0  0  0  0
  2 15  1  0  0  0  0
  2 27  1  0  0  0  0
  3  7  1  0  0  0  0
  3  8  1  0  0  0  0
  3  9  1  0  0  0  0
  4  5  1  0  0  0  0
  4 11  1  0  0  0  0
  4 37  1  0  0  0  0
  5  6  1  0  0  0  0
  5  7  1  0  0  0  0
  5 28  1  0  0  0  0
  6  8  1  0  0  0  0
  6 29  1  0  0  0  0
  6 30  1  0  0  0  0
  7 31  1  0  0  0  0
  7 32  1  0  0  0  0
  8 33  1  0  0  0  0
  8 34  1  0  0  0  0
  9 10  1  0  0  0  0
  9 35  1  0  0  0  0
  9 36  1  0  0  0  0
 10 13  2  0  0  0  0
 10 14  1  0  0  0  0
 11 12  1  0  0  0  0
 12 15  1  0  0  0  0
 12 16  2  0  0  0  0
 13 18  1  0  0  0  0
 13 38  1  0  0  0  0
 14 19  2  0  0  0  0
 14 39  1  0  0  0  0
 15 21  2  0  0  0  0
 16 17  1  0  0  0  0
 16 40  1  0  0  0  0
 17 20  1  0  0  0  0
 17 23  2  0  0  0  0
 18 22  2  0  0  0  0
 18 41  1  0  0  0  0
 19 22  1  0  0  0  0
 19 42  1  0  0  0  0
 20 21  1  0  0  0  0
 20 24  2  0  0  0  0
 21 43  1  0  0  0  0
 22 44  1  0  0  0  0
 23 25  1  0  0  0  0
 23 45  1  0  0  0  0
 24 26  1  0  0  0  0
 24 46  1  0  0  0  0
 25 26  2  0  0  0  0
 25 47  1  0  0  0  0
 26 48  1  0  0  0  0
 27 49  1  0  0  0  0
 27 50  1  0  0  0  0
 27 51  1  0  0  0  0
M  END
> <PUBCHEM_COMPOUND_CID>
17461770

> <PUBCHEM_COMPOUND_CANONICALIZED>
1

> <PUBCHEM_CACTVS_COMPLEXITY>
491

> <PUBCHEM_CACTVS_HBOND_ACCEPTOR>
3

> <PUBCHEM_CACTVS_HBOND_DONOR>
1

> <PUBCHEM_CACTVS_ROTATABLE_BOND>
5

> <PUBCHEM_CACTVS_SUBSKEYS>
AAADceB7MAAAAAAAAAAAAAAAAAAAAWAAAAAwYMAAAAAAAADBVAAAHgAQAAAADCzBmAYyBsPABACIAiFSEACCCAAkIAAIiIEODMgMZjaE9RuUMWhm9hGIqYeYyPCO4AADAAAYAADAAAYAADAAAAAAAAAAAA==

> <PUBCHEM_IUPAC_OPENEYE_NAME>
N-(1-benzylpyrrolidin-3-yl)-3-methoxy-naphthalene-2-carboxamide

> <PUBCHEM_IUPAC_CAS_NAME>
3-methoxy-N-[1-(phenylmethyl)-3-pyrrolidinyl]-2-naphthalenecarboxamide

> <PUBCHEM_IUPAC_NAME_MARKUP>
<I>N</I>-(1-benzylpyrrolidin-3-yl)-3-methoxynaphthalene-2-carboxamide

> <PUBCHEM_IUPAC_NAME>
N-(1-benzylpyrrolidin-3-yl)-3-methoxynaphthalene-2-carboxamide

> <PUBCHEM_IUPAC_SYSTEMATIC_NAME>
3-methoxy-N-[1-(phenylmethyl)pyrrolidin-3-yl]naphthalene-2-carboxamide

> <PUBCHEM_IUPAC_TRADITIONAL_NAME>
N-(1-benzylpyrrolidin-3-yl)-3-methoxy-2-naphthamide

> <PUBCHEM_IUPAC_INCHI>
InChI=1S/C23H24N2O2/c1-27-22-14-19-10-6-5-9-18(19)13-21(22)23(26)24-20-11-12-25(16-20)15-17-7-3-2-4-8-17/h2-10,13-14,20H,11-12,15-16H2,1H3,(H,24,26)

> <PUBCHEM_IUPAC_INCHIKEY>
MHBUXFIHOVRGPW-UHFFFAOYSA-N

> <PUBCHEM_XLOGP3_AA>
4.1

> <PUBCHEM_EXACT_MASS>
360.183778013

> <PUBCHEM_MOLECULAR_FORMULA>
C23H24N2O2

> <PUBCHEM_MOLECULAR_WEIGHT>
360.4

> <PUBCHEM_OPENEYE_CAN_SMILES>
COC1=CC2=CC=CC=C2C=C1C(=O)NC3CCN(C3)CC4=CC=CC=C4

> <PUBCHEM_OPENEYE_ISO_SMILES>
COC1=CC2=CC=CC=C2C=C1C(=O)NC3CCN(C3)CC4=CC=CC=C4

> <PUBCHEM_CACTVS_TPSA>
41.6

> <PUBCHEM_MONOISOTOPIC_WEIGHT>
360.183778013

> <PUBCHEM_TOTAL_CHARGE>
0

> <PUBCHEM_HEAVY_ATOM_COUNT>
27

> <PUBCHEM_ATOM_DEF_STEREO_COUNT>
0

> <PUBCHEM_ATOM_UDEF_STEREO_COUNT>
1

> <PUBCHEM_BOND_DEF_STEREO_COUNT>
0

> <PUBCHEM_BOND_UDEF_STEREO_COUNT>
0

> <PUBCHEM_ISOTOPIC_ATOM_COUNT>
0

> <PUBCHEM_COMPONENT_COUNT>
1

> <PUBCHEM_CACTVS_TAUTO_COUNT>
-1

> <PUBCHEM_COORDINATE_TYPE>
1
5
255

> <PUBCHEM_BONDANNOTATIONS>
10  13  8
10  14  8
12  15  8
12  16  8
13  18  8
14  19  8
15  21  8
16  17  8
17  20  8
17  23  8
18  22  8
19  22  8
20  21  8
20  24  8
23  25  8
24  26  8
25  26  8
5  4  3

$$$$
