166630274
  -OEChem-09292322442D

 63 66  0     0  0  0  0  0  0999 V2000
    3.4030   -2.2500    0.0000 Cl  0  0  0  0  0  0  0  0  0  0  0  0
    9.4651    3.2500    0.0000 O   0  0  0  0  0  0  0  0  0  0  0  0
    2.5369    3.2500    0.0000 O   0  0  0  0  0  0  0  0  0  0  0  0
    5.1350    0.7500    0.0000 N   0  0  0  0  0  0  0  0  0  0  0  0
    5.1350   -1.2500    0.0000 N   0  0  0  0  0  0  0  0  0  0  0  0
    4.2690    0.2500    0.0000 C   0  0  0  0  0  0  0  0  0  0  0  0
    6.0010    0.2500    0.0000 C   0  0  0  0  0  0  0  0  0  0  0  0
    5.1350    1.7500    0.0000 C   0  0  0  0  0  0  0  0  0  0  0  0
    4.2690   -0.7500    0.0000 C   0  0  0  0  0  0  0  0  0  0  0  0
    6.0010   -0.7500    0.0000 C   0  0  0  0  0  0  0  0  0  0  0  0
    6.0010    2.2500    0.0000 C   0  0  0  0  0  0  0  0  0  0  0  0
    6.0010    3.2500    0.0000 C   0  0  0  0  0  0  0  0  0  0  0  0
    5.1350   -2.2500    0.0000 C   0  0  0  0  0  0  0  0  0  0  0  0
    6.8671    3.7500    0.0000 C   0  0  0  0  0  0  0  0  0  0  0  0
    5.1350    3.7500    0.0000 C   0  0  0  0  0  0  0  0  0  0  0  0
    4.2690   -2.7500    0.0000 C   0  0  0  0  0  0  0  0  0  0  0  0
    6.0010   -2.7500    0.0000 C   0  0  0  0  0  0  0  0  0  0  0  0
    7.7331    3.2500    0.0000 C   0  0  0  0  0  0  0  0  0  0  0  0
    4.2690    3.2500    0.0000 C   0  0  0  0  0  0  0  0  0  0  0  0
    4.2690   -3.7500    0.0000 C   0  0  0  0  0  0  0  0  0  0  0  0
    6.8671    4.7500    0.0000 C   0  0  0  0  0  0  0  0  0  0  0  0
    5.1350    4.7500    0.0000 C   0  0  0  0  0  0  0  0  0  0  0  0
    6.0010   -3.7500    0.0000 C   0  0  0  0  0  0  0  0  0  0  0  0
    5.1350   -4.2500    0.0000 C   0  0  0  0  0  0  0  0  0  0  0  0
    3.4030   -4.2500    0.0000 C   0  0  0  0  0  0  0  0  0  0  0  0
    8.5991    3.7500    0.0000 C   0  0  0  0  0  0  0  0  0  0  0  0
    3.4030    3.7500    0.0000 C   0  0  0  0  0  0  0  0  0  0  0  0
    7.7331    5.2500    0.0000 C   0  0  0  0  0  0  0  0  0  0  0  0
    4.2690    5.2500    0.0000 C   0  0  0  0  0  0  0  0  0  0  0  0
    8.5991    4.7500    0.0000 C   0  0  0  0  0  0  0  0  0  0  0  0
    3.4030    4.7500    0.0000 C   0  0  0  0  0  0  0  0  0  0  0  0
    3.4030   -5.2500    0.0000 C   0  0  0  0  0  0  0  0  0  0  0  0
    4.0569    0.8326    0.0000 H   0  0  0  0  0  0  0  0  0  0  0  0
    3.6584    0.1423    0.0000 H   0  0  0  0  0  0  0  0  0  0  0  0
    6.6116    0.1423    0.0000 H   0  0  0  0  0  0  0  0  0  0  0  0
    6.2131    0.8326    0.0000 H   0  0  0  0  0  0  0  0  0  0  0  0
    4.9230    2.3326    0.0000 H   0  0  0  0  0  0  0  0  0  0  0  0
    4.5244    1.6423    0.0000 H   0  0  0  0  0  0  0  0  0  0  0  0
    3.6584   -0.6423    0.0000 H   0  0  0  0  0  0  0  0  0  0  0  0
    4.0569   -1.3326    0.0000 H   0  0  0  0  0  0  0  0  0  0  0  0
    6.2131   -1.3326    0.0000 H   0  0  0  0  0  0  0  0  0  0  0  0
    6.6116   -0.6423    0.0000 H   0  0  0  0  0  0  0  0  0  0  0  0
    6.2131    1.6674    0.0000 H   0  0  0  0  0  0  0  0  0  0  0  0
    6.6116    2.3577    0.0000 H   0  0  0  0  0  0  0  0  0  0  0  0
    6.5380    2.9400    0.0000 H   0  0  0  0  0  0  0  0  0  0  0  0
    6.5380   -2.4400    0.0000 H   0  0  0  0  0  0  0  0  0  0  0  0
    7.7331    2.6300    0.0000 H   0  0  0  0  0  0  0  0  0  0  0  0
    4.2690    2.6300    0.0000 H   0  0  0  0  0  0  0  0  0  0  0  0
    6.3301    5.0600    0.0000 H   0  0  0  0  0  0  0  0  0  0  0  0
    5.6720    5.0600    0.0000 H   0  0  0  0  0  0  0  0  0  0  0  0
    6.5380   -4.0600    0.0000 H   0  0  0  0  0  0  0  0  0  0  0  0
    5.1350   -4.8700    0.0000 H   0  0  0  0  0  0  0  0  0  0  0  0
    3.1909   -3.6674    0.0000 H   0  0  0  0  0  0  0  0  0  0  0  0
    2.7924   -4.3577    0.0000 H   0  0  0  0  0  0  0  0  0  0  0  0
    7.7331    5.8700    0.0000 H   0  0  0  0  0  0  0  0  0  0  0  0
    4.2690    5.8700    0.0000 H   0  0  0  0  0  0  0  0  0  0  0  0
    9.1360    5.0600    0.0000 H   0  0  0  0  0  0  0  0  0  0  0  0
    2.8660    5.0600    0.0000 H   0  0  0  0  0  0  0  0  0  0  0  0
    2.7830   -5.2500    0.0000 H   0  0  0  0  0  0  0  0  0  0  0  0
    3.4030   -5.8700    0.0000 H   0  0  0  0  0  0  0  0  0  0  0  0
    4.0230   -5.2500    0.0000 H   0  0  0  0  0  0  0  0  0  0  0  0
   10.0021    3.5600    0.0000 H   0  0  0  0  0  0  0  0  0  0  0  0
    2.0000    3.5600    0.0000 H   0  0  0  0  0  0  0  0  0  0  0  0
  1 16  1  0  0  0  0
  2 26  1  0  0  0  0
  2 62  1  0  0  0  0
  3 27  1  0  0  0  0
  3 63  1  0  0  0  0
  4  6  1  0  0  0  0
  4  7  1  0  0  0  0
  4  8  1  0  0  0  0
  5  9  1  0  0  0  0
  5 10  1  0  0  0  0
  5 13  1  0  0  0  0
  6  9  1  0  0  0  0
  6 33  1  0  0  0  0
  6 34  1  0  0  0  0
  7 10  1  0  0  0  0
  7 35  1  0  0  0  0
  7 36  1  0  0  0  0
  8 11  1  0  0  0  0
  8 37  1  0  0  0  0
  8 38  1  0  0  0  0
  9 39  1  0  0  0  0
  9 40  1  0  0  0  0
 10 41  1  0  0  0  0
 10 42  1  0  0  0  0
 11 12  1  0  0  0  0
 11 43  1  0  0  0  0
 11 44  1  0  0  0  0
 12 14  1  0  0  0  0
 12 15  1  0  0  0  0
 12 45  1  0  0  0  0
 13 16  1  0  0  0  0
 13 17  2  0  0  0  0
 14 18  2  0  0  0  0
 14 21  1  0  0  0  0
 15 19  2  0  0  0  0
 15 22  1  0  0  0  0
 16 20  2  0  0  0  0
 17 23  1  0  0  0  0
 17 46  1  0  0  0  0
 18 26  1  0  0  0  0
 18 47  1  0  0  0  0
 19 27  1  0  0  0  0
 19 48  1  0  0  0  0
 20 24  1  0  0  0  0
 20 25  1  0  0  0  0
 21 28  2  0  0  0  0
 21 49  1  0  0  0  0
 22 29  2  0  0  0  0
 22 50  1  0  0  0  0
 23 24  2  0  0  0  0
 23 51  1  0  0  0  0
 24 52  1  0  0  0  0
 25 32  1  0  0  0  0
 25 53  1  0  0  0  0
 25 54  1  0  0  0  0
 26 30  2  0  0  0  0
 27 31  2  0  0  0  0
 28 30  1  0  0  0  0
 28 55  1  0  0  0  0
 29 31  1  0  0  0  0
 29 56  1  0  0  0  0
 30 57  1  0  0  0  0
 31 58  1  0  0  0  0
 32 59  1  0  0  0  0
 32 60  1  0  0  0  0
 32 61  1  0  0  0  0
M  END
> <PUBCHEM_COMPOUND_CID>
166630274

> <PUBCHEM_COMPOUND_CANONICALIZED>
1

> <PUBCHEM_CACTVS_COMPLEXITY>
534

> <PUBCHEM_CACTVS_HBOND_ACCEPTOR>
4

> <PUBCHEM_CACTVS_HBOND_DONOR>
2

> <PUBCHEM_CACTVS_ROTATABLE_BOND>
7

> <PUBCHEM_CACTVS_SUBSKEYS>
AAADceB7MAAEAAAAAAAAAAAAAAAAAAAAAAA8YMEAAAAAAAABUAAAHgIACAAADQ7BmCQyxoMAAgCAAiRCQACCAAAhJgAIiAAObogIZiLDk5PUcAhkwBHI2AeQwPAOgAABQAABABAAAAKAAAIAIAAAAAAAAA==

> <PUBCHEM_IUPAC_OPENEYE_NAME>
3-[3-[4-(2-chloro-3-ethyl-phenyl)piperazin-1-yl]-1-(3-hydroxyphenyl)propyl]phenol

> <PUBCHEM_IUPAC_CAS_NAME>
3-[3-[4-(2-chloro-3-ethylphenyl)-1-piperazinyl]-1-(3-hydroxyphenyl)propyl]phenol

> <PUBCHEM_IUPAC_NAME_MARKUP>
3-[3-[4-(2-chloro-3-ethylphenyl)piperazin-1-yl]-1-(3-hydroxyphenyl)propyl]phenol

> <PUBCHEM_IUPAC_NAME>
3-[3-[4-(2-chloro-3-ethylphenyl)piperazin-1-yl]-1-(3-hydroxyphenyl)propyl]phenol

> <PUBCHEM_IUPAC_SYSTEMATIC_NAME>
3-[3-[4-(2-chloranyl-3-ethyl-phenyl)piperazin-1-yl]-1-(3-hydroxyphenyl)propyl]phenol

> <PUBCHEM_IUPAC_TRADITIONAL_NAME>
3-[3-[4-(2-chloro-3-ethyl-phenyl)piperazino]-1-(3-hydroxyphenyl)propyl]phenol

> <PUBCHEM_IUPAC_INCHI>
InChI=1S/C27H31ClN2O2/c1-2-20-6-5-11-26(27(20)28)30-16-14-29(15-17-30)13-12-25(21-7-3-9-23(31)18-21)22-8-4-10-24(32)19-22/h3-11,18-19,25,31-32H,2,12-17H2,1H3

> <PUBCHEM_IUPAC_INCHIKEY>
GZVVQJFPHWQITG-UHFFFAOYSA-N

> <PUBCHEM_XLOGP3_AA>
6.3

> <PUBCHEM_EXACT_MASS>
450.2074059

> <PUBCHEM_MOLECULAR_FORMULA>
C27H31ClN2O2

> <PUBCHEM_MOLECULAR_WEIGHT>
451.0

> <PUBCHEM_OPENEYE_CAN_SMILES>
CCC1=C(C(=CC=C1)N2CCN(CC2)CCC(C3=CC(=CC=C3)O)C4=CC(=CC=C4)O)Cl

> <PUBCHEM_OPENEYE_ISO_SMILES>
CCC1=C(C(=CC=C1)N2CCN(CC2)CCC(C3=CC(=CC=C3)O)C4=CC(=CC=C4)O)Cl

> <PUBCHEM_CACTVS_TPSA>
46.9

> <PUBCHEM_MONOISOTOPIC_WEIGHT>
450.2074059

> <PUBCHEM_TOTAL_CHARGE>
0

> <PUBCHEM_HEAVY_ATOM_COUNT>
32

> <PUBCHEM_ATOM_DEF_STEREO_COUNT>
0

> <PUBCHEM_ATOM_UDEF_STEREO_COUNT>
0

> <PUBCHEM_BOND_DEF_STEREO_COUNT>
0

> <PUBCHEM_BOND_UDEF_STEREO_COUNT>
0

> <PUBCHEM_ISOTOPIC_ATOM_COUNT>
0

> <PUBCHEM_COMPONENT_COUNT>
1

> <PUBCHEM_CACTVS_TAUTO_COUNT>
-1

> <PUBCHEM_COORDINATE_TYPE>
1
5
255

> <PUBCHEM_BONDANNOTATIONS>
13  16  8
13  17  8
14  18  8
14  21  8
15  19  8
15  22  8
16  20  8
17  23  8
18  26  8
19  27  8
20  24  8
21  28  8
22  29  8
23  24  8
26  30  8
27  31  8
28  30  8
29  31  8

$$$$
