44436771
  -OEChem-09292322252D

 65 68  0     0  0  0  0  0  0999 V2000
    4.5981    0.5427    0.0000 O   0  0  0  0  0  0  0  0  0  0  0  0
   12.3923   -0.9573    0.0000 O   0  0  0  0  0  0  0  0  0  0  0  0
    7.1962    0.0427    0.0000 N   0  0  0  0  0  0  0  0  0  0  0  0
    4.5981   -1.4573    0.0000 N   0  0  0  0  0  0  0  0  0  0  0  0
   11.5263    0.5427    0.0000 N   0  0  0  0  0  0  0  0  0  0  0  0
    5.4641   -0.9573    0.0000 C   0  0  0  0  0  0  0  0  0  0  0  0
    5.4641    0.0427    0.0000 C   0  0  0  0  0  0  0  0  0  0  0  0
    6.3301   -1.4573    0.0000 C   0  0  0  0  0  0  0  0  0  0  0  0
    6.3301    0.5427    0.0000 C   0  0  0  0  0  0  0  0  0  0  0  0
    7.1962   -0.9573    0.0000 C   0  0  0  0  0  0  0  0  0  0  0  0
    8.0622    0.5427    0.0000 C   0  0  0  0  0  0  0  0  0  0  0  0
    8.9282    0.0427    0.0000 C   0  0  0  0  0  0  0  0  0  0  0  0
    9.7942    0.5427    0.0000 C   0  0  0  0  0  0  0  0  0  0  0  0
    3.7320   -0.9573    0.0000 C   0  0  0  0  0  0  0  0  0  0  0  0
   10.6603    0.0427    0.0000 C   0  0  0  0  0  0  0  0  0  0  0  0
    3.7320    0.0427    0.0000 C   0  0  0  0  0  0  0  0  0  0  0  0
    2.8660   -1.4573    0.0000 C   0  0  0  0  0  0  0  0  0  0  0  0
    2.8660    0.5427    0.0000 C   0  0  0  0  0  0  0  0  0  0  0  0
    2.0000   -0.9573    0.0000 C   0  0  0  0  0  0  0  0  0  0  0  0
    2.0000    0.0427    0.0000 C   0  0  0  0  0  0  0  0  0  0  0  0
   12.3923    0.0427    0.0000 C   0  0  0  0  0  0  0  0  0  0  0  0
   13.2583    0.5427    0.0000 C   0  0  0  0  0  0  0  0  0  0  0  0
    4.5981    1.5427    0.0000 C   0  0  0  0  0  0  0  0  0  0  0  0
   14.1244    0.0427    0.0000 C   0  0  0  0  0  0  0  0  0  0  0  0
   13.2583    1.5427    0.0000 C   0  0  0  0  0  0  0  0  0  0  0  0
   14.9904    0.5427    0.0000 C   0  0  0  0  0  0  0  0  0  0  0  0
   14.9904    1.5427    0.0000 C   0  0  0  0  0  0  0  0  0  0  0  0
   14.1244    2.0427    0.0000 C   0  0  0  0  0  0  0  0  0  0  0  0
   15.8843    0.0080    0.0000 C   0  0  0  0  0  0  0  0  0  0  0  0
   15.8843    2.0773    0.0000 C   0  0  0  0  0  0  0  0  0  0  0  0
   16.7904    0.5219    0.0000 C   0  0  0  0  0  0  0  0  0  0  0  0
   16.7904    1.5635    0.0000 C   0  0  0  0  0  0  0  0  0  0  0  0
    5.4641   -1.5773    0.0000 H   0  0  0  0  0  0  0  0  0  0  0  0
    5.2520    0.6253    0.0000 H   0  0  0  0  0  0  0  0  0  0  0  0
    4.8535   -0.0650    0.0000 H   0  0  0  0  0  0  0  0  0  0  0  0
    5.9316   -1.9323    0.0000 H   0  0  0  0  0  0  0  0  0  0  0  0
    6.7287   -1.9323    0.0000 H   0  0  0  0  0  0  0  0  0  0  0  0
    6.7287    1.0176    0.0000 H   0  0  0  0  0  0  0  0  0  0  0  0
    5.9316    1.0176    0.0000 H   0  0  0  0  0  0  0  0  0  0  0  0
    7.4082   -1.5399    0.0000 H   0  0  0  0  0  0  0  0  0  0  0  0
    7.8067   -0.8497    0.0000 H   0  0  0  0  0  0  0  0  0  0  0  0
    8.4607    1.0176    0.0000 H   0  0  0  0  0  0  0  0  0  0  0  0
    7.6636    1.0176    0.0000 H   0  0  0  0  0  0  0  0  0  0  0  0
    4.5981   -2.0773    0.0000 H   0  0  0  0  0  0  0  0  0  0  0  0
    8.5297   -0.4323    0.0000 H   0  0  0  0  0  0  0  0  0  0  0  0
    9.3267   -0.4323    0.0000 H   0  0  0  0  0  0  0  0  0  0  0  0
   10.1928    1.0176    0.0000 H   0  0  0  0  0  0  0  0  0  0  0  0
    9.3957    1.0176    0.0000 H   0  0  0  0  0  0  0  0  0  0  0  0
   10.2617   -0.4323    0.0000 H   0  0  0  0  0  0  0  0  0  0  0  0
   11.0588   -0.4323    0.0000 H   0  0  0  0  0  0  0  0  0  0  0  0
    2.8660   -2.0773    0.0000 H   0  0  0  0  0  0  0  0  0  0  0  0
   11.5263    1.1627    0.0000 H   0  0  0  0  0  0  0  0  0  0  0  0
    2.8660    1.1627    0.0000 H   0  0  0  0  0  0  0  0  0  0  0  0
    1.4631   -1.2673    0.0000 H   0  0  0  0  0  0  0  0  0  0  0  0
    1.4631    0.3527    0.0000 H   0  0  0  0  0  0  0  0  0  0  0  0
    5.2181    1.5427    0.0000 H   0  0  0  0  0  0  0  0  0  0  0  0
    4.5981    2.1627    0.0000 H   0  0  0  0  0  0  0  0  0  0  0  0
    3.9781    1.5427    0.0000 H   0  0  0  0  0  0  0  0  0  0  0  0
   14.1244   -0.5773    0.0000 H   0  0  0  0  0  0  0  0  0  0  0  0
   12.7214    1.8527    0.0000 H   0  0  0  0  0  0  0  0  0  0  0  0
   14.1244    2.6627    0.0000 H   0  0  0  0  0  0  0  0  0  0  0  0
   15.8772   -0.6120    0.0000 H   0  0  0  0  0  0  0  0  0  0  0  0
   15.8772    2.6973    0.0000 H   0  0  0  0  0  0  0  0  0  0  0  0
   17.3261    0.2098    0.0000 H   0  0  0  0  0  0  0  0  0  0  0  0
   17.3261    1.8756    0.0000 H   0  0  0  0  0  0  0  0  0  0  0  0
  1 16  1  0  0  0  0
  1 23  1  0  0  0  0
  2 21  2  0  0  0  0
  3  9  1  0  0  0  0
  3 10  1  0  0  0  0
  3 11  1  0  0  0  0
  4  6  1  0  0  0  0
  4 14  1  0  0  0  0
  4 44  1  0  0  0  0
  5 15  1  0  0  0  0
  5 21  1  0  0  0  0
  5 52  1  0  0  0  0
  6  7  1  0  0  0  0
  6  8  1  0  0  0  0
  6 33  1  0  0  0  0
  7  9  1  0  0  0  0
  7 34  1  0  0  0  0
  7 35  1  0  0  0  0
  8 10  1  0  0  0  0
  8 36  1  0  0  0  0
  8 37  1  0  0  0  0
  9 38  1  0  0  0  0
  9 39  1  0  0  0  0
 10 40  1  0  0  0  0
 10 41  1  0  0  0  0
 11 12  1  0  0  0  0
 11 42  1  0  0  0  0
 11 43  1  0  0  0  0
 12 13  1  0  0  0  0
 12 45  1  0  0  0  0
 12 46  1  0  0  0  0
 13 15  1  0  0  0  0
 13 47  1  0  0  0  0
 13 48  1  0  0  0  0
 14 16  1  0  0  0  0
 14 17  2  0  0  0  0
 15 49  1  0  0  0  0
 15 50  1  0  0  0  0
 16 18  2  0  0  0  0
 17 19  1  0  0  0  0
 17 51  1  0  0  0  0
 18 20  1  0  0  0  0
 18 53  1  0  0  0  0
 19 20  2  0  0  0  0
 19 54  1  0  0  0  0
 20 55  1  0  0  0  0
 21 22  1  0  0  0  0
 22 24  2  0  0  0  0
 22 25  1  0  0  0  0
 23 56  1  0  0  0  0
 23 57  1  0  0  0  0
 23 58  1  0  0  0  0
 24 26  1  0  0  0  0
 24 59  1  0  0  0  0
 25 28  2  0  0  0  0
 25 60  1  0  0  0  0
 26 27  1  0  0  0  0
 26 29  2  0  0  0  0
 27 28  1  0  0  0  0
 27 30  2  0  0  0  0
 28 61  1  0  0  0  0
 29 31  1  0  0  0  0
 29 62  1  0  0  0  0
 30 32  1  0  0  0  0
 30 63  1  0  0  0  0
 31 32  2  0  0  0  0
 31 64  1  0  0  0  0
 32 65  1  0  0  0  0
M  END
> <PUBCHEM_COMPOUND_CID>
44436771

> <PUBCHEM_COMPOUND_CANONICALIZED>
1

> <PUBCHEM_CACTVS_COMPLEXITY>
563

> <PUBCHEM_CACTVS_HBOND_ACCEPTOR>
4

> <PUBCHEM_CACTVS_HBOND_DONOR>
2

> <PUBCHEM_CACTVS_ROTATABLE_BOND>
9

> <PUBCHEM_CACTVS_SUBSKEYS>
AAADcfB7MAAAAAAAAAAAAAAAAAAAAAAAAAA8YMEAAAAAAADBVAAAHgAQAAAADCzBmAYyxsPABACIAiVSUACCCAAlIgAIiIEPbMgOJjLE9ZuFMShk1hHY6YeYyMCOwAACAAAQEACAAAQAACAgAAAAAAAAAA==

> <PUBCHEM_IUPAC_OPENEYE_NAME>
N-[4-[4-(2-methoxyanilino)-1-piperidyl]butyl]naphthalene-2-carboxamide

> <PUBCHEM_IUPAC_CAS_NAME>
N-[4-[4-(2-methoxyanilino)-1-piperidinyl]butyl]-2-naphthalenecarboxamide

> <PUBCHEM_IUPAC_NAME_MARKUP>
<I>N</I>-[4-[4-(2-methoxyanilino)piperidin-1-yl]butyl]naphthalene-2-carboxamide

> <PUBCHEM_IUPAC_NAME>
N-[4-[4-(2-methoxyanilino)piperidin-1-yl]butyl]naphthalene-2-carboxamide

> <PUBCHEM_IUPAC_SYSTEMATIC_NAME>
N-[4-[4-[(2-methoxyphenyl)amino]piperidin-1-yl]butyl]naphthalene-2-carboxamide

> <PUBCHEM_IUPAC_TRADITIONAL_NAME>
N-[4-[4-(o-anisidino)piperidino]butyl]-2-naphthamide

> <PUBCHEM_IUPAC_INCHI>
InChI=1S/C27H33N3O2/c1-32-26-11-5-4-10-25(26)29-24-14-18-30(19-15-24)17-7-6-16-28-27(31)23-13-12-21-8-2-3-9-22(21)20-23/h2-5,8-13,20,24,29H,6-7,14-19H2,1H3,(H,28,31)

> <PUBCHEM_IUPAC_INCHIKEY>
JKUARXXFZBUSAL-UHFFFAOYSA-N

> <PUBCHEM_XLOGP3_AA>
5.4

> <PUBCHEM_EXACT_MASS>
431.25727730

> <PUBCHEM_MOLECULAR_FORMULA>
C27H33N3O2

> <PUBCHEM_MOLECULAR_WEIGHT>
431.6

> <PUBCHEM_OPENEYE_CAN_SMILES>
COC1=CC=CC=C1NC2CCN(CC2)CCCCNC(=O)C3=CC4=CC=CC=C4C=C3

> <PUBCHEM_OPENEYE_ISO_SMILES>
COC1=CC=CC=C1NC2CCN(CC2)CCCCNC(=O)C3=CC4=CC=CC=C4C=C3

> <PUBCHEM_CACTVS_TPSA>
53.6

> <PUBCHEM_MONOISOTOPIC_WEIGHT>
431.25727730

> <PUBCHEM_TOTAL_CHARGE>
0

> <PUBCHEM_HEAVY_ATOM_COUNT>
32

> <PUBCHEM_ATOM_DEF_STEREO_COUNT>
0

> <PUBCHEM_ATOM_UDEF_STEREO_COUNT>
0

> <PUBCHEM_BOND_DEF_STEREO_COUNT>
0

> <PUBCHEM_BOND_UDEF_STEREO_COUNT>
0

> <PUBCHEM_ISOTOPIC_ATOM_COUNT>
0

> <PUBCHEM_COMPONENT_COUNT>
1

> <PUBCHEM_CACTVS_TAUTO_COUNT>
-1

> <PUBCHEM_COORDINATE_TYPE>
1
5
255

> <PUBCHEM_BONDANNOTATIONS>
14  16  8
14  17  8
16  18  8
17  19  8
18  20  8
19  20  8
22  24  8
22  25  8
24  26  8
25  28  8
26  27  8
26  29  8
27  28  8
27  30  8
29  31  8
30  32  8
31  32  8

$$$$
