72699717
  -OEChem-09292322362D

 52 55  0     1  0  0  0  0  0999 V2000
    5.3871    0.8146    0.0000 S   0  0  0  0  0  0  0  0  0  0  0  0
    3.8372   -5.5492    0.0000 O   0  0  0  0  0  0  0  0  0  0  0  0
    5.6405   -4.4894    0.0000 O   0  0  0  0  0  0  0  0  0  0  0  0
    2.9180   -0.8525    0.0000 N   0  0  3  0  0  0  0  0  0  0  0  0
    3.7841   -1.3525    0.0000 C   0  0  1  0  0  0  0  0  0  0  0  0
    4.6501   -0.8525    0.0000 C   0  0  0  0  0  0  0  0  0  0  0  0
    2.0080   -1.3593    0.0000 C   0  0  0  0  0  0  0  0  0  0  0  0
    2.9180    0.1475    0.0000 C   0  0  0  0  0  0  0  0  0  0  0  0
    3.8001   -2.3940    0.0000 C   0  0  0  0  0  0  0  0  0  0  0  0
    2.0000   -2.4009    0.0000 C   0  0  0  0  0  0  0  0  0  0  0  0
    3.7841    0.6475    0.0000 C   0  0  0  0  0  0  0  0  0  0  0  0
    4.6501    0.1475    0.0000 C   0  0  0  0  0  0  0  0  0  0  0  0
    2.9021   -2.9217    0.0000 C   0  0  0  0  0  0  0  0  0  0  0  0
    3.9933    1.6193    0.0000 C   0  0  0  0  0  0  0  0  0  0  0  0
    4.7520   -2.9146    0.0000 C   0  0  0  0  0  0  0  0  0  0  0  0
    4.9820    1.7224    0.0000 C   0  0  0  0  0  0  0  0  0  0  0  0
    2.8937   -4.0067    0.0000 C   0  0  0  0  0  0  0  0  0  0  0  0
    5.4820    2.5884    0.0000 C   0  0  0  0  0  0  0  0  0  0  0  0
    4.7688   -3.9995    0.0000 C   0  0  0  0  0  0  0  0  0  0  0  0
    3.8334   -4.5492    0.0000 C   0  0  0  0  0  0  0  0  0  0  0  0
    4.9820    3.4544    0.0000 C   0  0  0  0  0  0  0  0  0  0  0  0
    5.4820    4.3205    0.0000 C   0  0  0  0  0  0  0  0  0  0  0  0
    4.9820    5.1865    0.0000 C   0  0  0  0  0  0  0  0  0  0  0  0
    5.4820    6.0525    0.0000 C   0  0  0  0  0  0  0  0  0  0  0  0
    2.9731   -6.0525    0.0000 C   0  0  0  0  0  0  0  0  0  0  0  0
    4.5234   -1.7718    0.0000 H   0  0  0  0  0  0  0  0  0  0  0  0
    4.8621   -1.4351    0.0000 H   0  0  0  0  0  0  0  0  0  0  0  0
    5.2607   -0.7448    0.0000 H   0  0  0  0  0  0  0  0  0  0  0  0
    2.7060    0.7301    0.0000 H   0  0  0  0  0  0  0  0  0  0  0  0
    2.3074    0.0399    0.0000 H   0  0  0  0  0  0  0  0  0  0  0  0
    1.8035   -0.7740    0.0000 H   0  0  0  0  0  0  0  0  0  0  0  0
    1.3964   -1.4607    0.0000 H   0  0  0  0  0  0  0  0  0  0  0  0
    1.3900   -2.2901    0.0000 H   0  0  0  0  0  0  0  0  0  0  0  0
    1.7864   -2.9830    0.0000 H   0  0  0  0  0  0  0  0  0  0  0  0
    3.5792    2.0808    0.0000 H   0  0  0  0  0  0  0  0  0  0  0  0
    5.2829   -2.5943    0.0000 H   0  0  0  0  0  0  0  0  0  0  0  0
    2.3556   -4.3146    0.0000 H   0  0  0  0  0  0  0  0  0  0  0  0
    5.9569    2.1899    0.0000 H   0  0  0  0  0  0  0  0  0  0  0  0
    5.9569    2.9870    0.0000 H   0  0  0  0  0  0  0  0  0  0  0  0
    4.5070    3.8530    0.0000 H   0  0  0  0  0  0  0  0  0  0  0  0
    4.5070    3.0559    0.0000 H   0  0  0  0  0  0  0  0  0  0  0  0
    5.9569    3.9219    0.0000 H   0  0  0  0  0  0  0  0  0  0  0  0
    5.9569    4.7190    0.0000 H   0  0  0  0  0  0  0  0  0  0  0  0
    4.5070    5.5850    0.0000 H   0  0  0  0  0  0  0  0  0  0  0  0
    4.5070    4.7880    0.0000 H   0  0  0  0  0  0  0  0  0  0  0  0
    6.1738   -4.1732    0.0000 H   0  0  0  0  0  0  0  0  0  0  0  0
    6.0189    5.7425    0.0000 H   0  0  0  0  0  0  0  0  0  0  0  0
    5.7920    6.5895    0.0000 H   0  0  0  0  0  0  0  0  0  0  0  0
    4.9450    6.3625    0.0000 H   0  0  0  0  0  0  0  0  0  0  0  0
    2.6610   -5.5168    0.0000 H   0  0  0  0  0  0  0  0  0  0  0  0
    2.4374   -6.3646    0.0000 H   0  0  0  0  0  0  0  0  0  0  0  0
    3.2852   -6.5883    0.0000 H   0  0  0  0  0  0  0  0  0  0  0  0
  1 12  1  0  0  0  0
  1 16  1  0  0  0  0
  2 20  1  0  0  0  0
  2 25  1  0  0  0  0
  3 19  1  0  0  0  0
  3 46  1  0  0  0  0
  4  5  1  0  0  0  0
  4  7  1  0  0  0  0
  4  8  1  0  0  0  0
  5  6  1  0  0  0  0
  5  9  1  0  0  0  0
  5 26  1  6  0  0  0
  6 12  1  0  0  0  0
  6 27  1  0  0  0  0
  6 28  1  0  0  0  0
  7 10  1  0  0  0  0
  7 31  1  0  0  0  0
  7 32  1  0  0  0  0
  8 11  1  0  0  0  0
  8 29  1  0  0  0  0
  8 30  1  0  0  0  0
  9 13  1  0  0  0  0
  9 15  2  0  0  0  0
 10 13  1  0  0  0  0
 10 33  1  0  0  0  0
 10 34  1  0  0  0  0
 11 12  2  0  0  0  0
 11 14  1  0  0  0  0
 13 17  2  0  0  0  0
 14 16  2  0  0  0  0
 14 35  1  0  0  0  0
 15 19  1  0  0  0  0
 15 36  1  0  0  0  0
 16 18  1  0  0  0  0
 17 20  1  0  0  0  0
 17 37  1  0  0  0  0
 18 21  1  0  0  0  0
 18 38  1  0  0  0  0
 18 39  1  0  0  0  0
 19 20  2  0  0  0  0
 21 22  1  0  0  0  0
 21 40  1  0  0  0  0
 21 41  1  0  0  0  0
 22 23  1  0  0  0  0
 22 42  1  0  0  0  0
 22 43  1  0  0  0  0
 23 24  1  0  0  0  0
 23 44  1  0  0  0  0
 23 45  1  0  0  0  0
 24 47  1  0  0  0  0
 24 48  1  0  0  0  0
 24 49  1  0  0  0  0
 25 50  1  0  0  0  0
 25 51  1  0  0  0  0
 25 52  1  0  0  0  0
M  END
> <PUBCHEM_COMPOUND_CID>
72699717

> <PUBCHEM_COMPOUND_CANONICALIZED>
1

> <PUBCHEM_CACTVS_COMPLEXITY>
448

> <PUBCHEM_CACTVS_HBOND_ACCEPTOR>
4

> <PUBCHEM_CACTVS_HBOND_DONOR>
1

> <PUBCHEM_CACTVS_ROTATABLE_BOND>
5

> <PUBCHEM_CACTVS_SUBSKEYS>
AAADceB6MABAAAAAAAAAAAAAAAAAASAAAAA8WIAAAAAAAFixwAAAHgQACAAADCzB2AYyB4MABgiEAiBCAACDCIAgKBBAiBgOjIgNJiKmsRuEcCtkwBGruAew0PMOoAABAAAQQABAAAIAACCAAAAAAAAAAA==

> <PUBCHEM_IUPAC_OPENEYE_NAME>
(1S)-5-methoxy-14-pentyl-15-thia-10-azatetracyclo[8.7.0.02,7.012,16]heptadeca-2,4,6,12(16),13-pentaen-4-ol

> <PUBCHEM_IUPAC_CAS_NAME>
(1S)-5-methoxy-14-pentyl-15-thia-10-azatetracyclo[8.7.0.02,7.012,16]heptadeca-2,4,6,12(16),13-pentaen-4-ol

> <PUBCHEM_IUPAC_NAME_MARKUP>
(1<I>S</I>)-5-methoxy-14-pentyl-15-thia-10-azatetracyclo[8.7.0.0<SUP>2,7</SUP>.0<SUP>12,16</SUP>]heptadeca-2,4,6,12(16),13-pentaen-4-ol

> <PUBCHEM_IUPAC_NAME>
(1S)-5-methoxy-14-pentyl-15-thia-10-azatetracyclo[8.7.0.02,7.012,16]heptadeca-2,4,6,12(16),13-pentaen-4-ol

> <PUBCHEM_IUPAC_SYSTEMATIC_NAME>
(1S)-5-methoxy-14-pentyl-15-thia-10-azatetracyclo[8.7.0.02,7.012,16]heptadeca-2,4,6,12(16),13-pentaen-4-ol

> <PUBCHEM_IUPAC_TRADITIONAL_NAME>
(1S)-14-amyl-5-methoxy-15-thia-10-azatetracyclo[8.7.0.02,7.012,16]heptadeca-2,4,6,12(16),13-pentaen-4-ol

> <PUBCHEM_IUPAC_INCHI>
InChI=1S/C21H27NO2S/c1-3-4-5-6-16-9-15-13-22-8-7-14-10-20(24-2)19(23)11-17(14)18(22)12-21(15)25-16/h9-11,18,23H,3-8,12-13H2,1-2H3/t18-/m0/s1

> <PUBCHEM_IUPAC_INCHIKEY>
PLCWEVBEXIVMCL-SFHVURJKSA-N

> <PUBCHEM_XLOGP3_AA>
5

> <PUBCHEM_EXACT_MASS>
357.17625028

> <PUBCHEM_MOLECULAR_FORMULA>
C21H27NO2S

> <PUBCHEM_MOLECULAR_WEIGHT>
357.5

> <PUBCHEM_OPENEYE_CAN_SMILES>
CCCCCC1=CC2=C(S1)CC3C4=CC(=C(C=C4CCN3C2)OC)O

> <PUBCHEM_OPENEYE_ISO_SMILES>
CCCCCC1=CC2=C(S1)C[C@H]3C4=CC(=C(C=C4CCN3C2)OC)O

> <PUBCHEM_CACTVS_TPSA>
60.9

> <PUBCHEM_MONOISOTOPIC_WEIGHT>
357.17625028

> <PUBCHEM_TOTAL_CHARGE>
0

> <PUBCHEM_HEAVY_ATOM_COUNT>
25

> <PUBCHEM_ATOM_DEF_STEREO_COUNT>
1

> <PUBCHEM_ATOM_UDEF_STEREO_COUNT>
0

> <PUBCHEM_BOND_DEF_STEREO_COUNT>
0

> <PUBCHEM_BOND_UDEF_STEREO_COUNT>
0

> <PUBCHEM_ISOTOPIC_ATOM_COUNT>
0

> <PUBCHEM_COMPONENT_COUNT>
1

> <PUBCHEM_CACTVS_TAUTO_COUNT>
-1

> <PUBCHEM_COORDINATE_TYPE>
1
5
255

> <PUBCHEM_BONDANNOTATIONS>
1  12  8
1  16  8
11  12  8
11  14  8
13  17  8
14  16  8
15  19  8
17  20  8
19  20  8
5  26  6
9  13  8
9  15  8

$$$$
