73213196
  -OEChem-09292322472D

 42 46  0     1  0  0  0  0  0999 V2000
    4.3001    0.2103    0.0000 N   0  0  0  0  0  0  0  0  0  0  0  0
    2.5217   -2.2525    0.0000 N   0  0  3  0  0  0  0  0  0  0  0  0
    3.6150   -0.5100    0.0000 C   0  0  0  0  0  0  0  0  0  0  0  0
    4.0868   -1.3850    0.0000 C   0  0  0  0  0  0  0  0  0  0  0  0
    5.2011   -0.2236    0.0000 C   0  0  0  0  0  0  0  0  0  0  0  0
    5.0651   -1.2083    0.0000 C   0  0  0  0  0  0  0  0  0  0  0  0
    2.5805   -0.4640    0.0000 C   0  0  0  0  0  0  0  0  0  0  0  0
    3.5569   -2.2746    0.0000 C   0  0  0  0  0  0  0  0  0  0  0  0
    4.0776    1.1852    0.0000 C   0  0  0  0  0  0  0  0  0  0  0  0
    2.0302   -1.3411    0.0000 C   0  0  0  0  0  0  0  0  0  0  0  0
    6.1020    0.2103    0.0000 C   0  0  0  0  0  0  0  0  0  0  0  0
    4.7011    1.9671    0.0000 C   0  0  0  0  0  0  0  0  0  0  0  0
    6.3245    1.1852    0.0000 C   0  0  0  0  0  0  0  0  0  0  0  0
    5.7011    1.9671    0.0000 C   0  0  0  0  0  0  0  0  0  0  0  0
    5.8749   -1.7777    0.0000 C   0  0  0  0  0  0  0  0  0  0  0  0
    6.8903   -0.3885    0.0000 C   0  0  0  0  0  0  0  0  0  0  0  0
    2.0000   -3.1056    0.0000 C   0  0  0  0  0  0  0  0  0  0  0  0
    6.7780   -1.3721    0.0000 C   0  0  0  0  0  0  0  0  0  0  0  0
    7.3568    1.3246    0.0000 C   0  0  0  0  0  0  0  0  0  0  0  0
    6.0666    2.9424    0.0000 C   0  0  0  0  0  0  0  0  0  0  0  0
    7.7448    2.2912    0.0000 C   0  0  0  0  0  0  0  0  0  0  0  0
    7.0954    3.1056    0.0000 C   0  0  0  0  0  0  0  0  0  0  0  0
    2.7137    0.1416    0.0000 H   0  0  0  0  0  0  0  0  0  0  0  0
    2.0067   -0.2292    0.0000 H   0  0  0  0  0  0  0  0  0  0  0  0
    3.4378   -2.8830    0.0000 H   0  0  0  0  0  0  0  0  0  0  0  0
    4.1360   -2.4960    0.0000 H   0  0  0  0  0  0  0  0  0  0  0  0
    3.6910    1.6700    0.0000 H   0  0  0  0  0  0  0  0  0  0  0  0
    3.5190    0.9162    0.0000 H   0  0  0  0  0  0  0  0  0  0  0  0
    1.5692   -0.9265    0.0000 H   0  0  0  0  0  0  0  0  0  0  0  0
    1.5429   -1.7244    0.0000 H   0  0  0  0  0  0  0  0  0  0  0  0
    4.8390    2.5715    0.0000 H   0  0  0  0  0  0  0  0  0  0  0  0
    4.1424    2.2361    0.0000 H   0  0  0  0  0  0  0  0  0  0  0  0
    5.8159   -2.3949    0.0000 H   0  0  0  0  0  0  0  0  0  0  0  0
    7.4605   -0.1450    0.0000 H   0  0  0  0  0  0  0  0  0  0  0  0
    1.4710   -2.7822    0.0000 H   0  0  0  0  0  0  0  0  0  0  0  0
    1.6766   -3.6346    0.0000 H   0  0  0  0  0  0  0  0  0  0  0  0
    2.5290   -3.4290    0.0000 H   0  0  0  0  0  0  0  0  0  0  0  0
    7.2785   -1.7380    0.0000 H   0  0  0  0  0  0  0  0  0  0  0  0
    7.7378    0.8354    0.0000 H   0  0  0  0  0  0  0  0  0  0  0  0
    5.6745    3.4227    0.0000 H   0  0  0  0  0  0  0  0  0  0  0  0
    8.3582    2.3813    0.0000 H   0  0  0  0  0  0  0  0  0  0  0  0
    7.3197    3.6836    0.0000 H   0  0  0  0  0  0  0  0  0  0  0  0
  1  3  1  0  0  0  0
  1  5  1  0  0  0  0
  1  9  1  0  0  0  0
  2  8  1  0  0  0  0
  2 10  1  0  0  0  0
  2 17  1  0  0  0  0
  3  4  2  0  0  0  0
  3  7  1  0  0  0  0
  4  6  1  0  0  0  0
  4  8  1  0  0  0  0
  5  6  2  0  0  0  0
  5 11  1  0  0  0  0
  6 15  1  0  0  0  0
  7 10  1  0  0  0  0
  7 23  1  0  0  0  0
  7 24  1  0  0  0  0
  8 25  1  0  0  0  0
  8 26  1  0  0  0  0
  9 12  1  0  0  0  0
  9 27  1  0  0  0  0
  9 28  1  0  0  0  0
 10 29  1  0  0  0  0
 10 30  1  0  0  0  0
 11 13  1  0  0  0  0
 11 16  2  0  0  0  0
 12 14  1  0  0  0  0
 12 31  1  0  0  0  0
 12 32  1  0  0  0  0
 13 14  1  0  0  0  0
 13 19  2  0  0  0  0
 14 20  2  0  0  0  0
 15 18  2  0  0  0  0
 15 33  1  0  0  0  0
 16 18  1  0  0  0  0
 16 34  1  0  0  0  0
 17 35  1  0  0  0  0
 17 36  1  0  0  0  0
 17 37  1  0  0  0  0
 18 38  1  0  0  0  0
 19 21  1  0  0  0  0
 19 39  1  0  0  0  0
 20 22  1  0  0  0  0
 20 40  1  0  0  0  0
 21 22  2  0  0  0  0
 21 41  1  0  0  0  0
 22 42  1  0  0  0  0
M  END
> <PUBCHEM_COMPOUND_CID>
73213196

> <PUBCHEM_COMPOUND_CANONICALIZED>
1

> <PUBCHEM_CACTVS_COMPLEXITY>
422

> <PUBCHEM_CACTVS_HBOND_ACCEPTOR>
1

> <PUBCHEM_CACTVS_HBOND_DONOR>
0

> <PUBCHEM_CACTVS_ROTATABLE_BOND>
0

> <PUBCHEM_CACTVS_SUBSKEYS>
AAADceB7AAAAAAAAAAAAAAAAAAAAAWAAAAA8YIAABYAAAFix9AAAHAAAAAAADAjBHgQywPMMEACgAyRiRACCgCAhACAI2CA4RJgIIOLA0ZGEIAhggADIyAcQgMAOgAACAAASAAAAAAQAACQAAAAAAAAAAA==

> <PUBCHEM_IUPAC_OPENEYE_NAME>
5-methyl-1,5-diazapentacyclo[10.8.1.02,7.08,21.013,18]henicosa-2(7),8(21),9,11,13,15,17-heptaene

> <PUBCHEM_IUPAC_CAS_NAME>
5-methyl-1,5-diazapentacyclo[10.8.1.02,7.08,21.013,18]heneicosa-2(7),8(21),9,11,13,15,17-heptaene

> <PUBCHEM_IUPAC_NAME_MARKUP>
5-methyl-1,5-diazapentacyclo[10.8.1.0<SUP>2,7</SUP>.0<SUP>8,21</SUP>.0<SUP>13,18</SUP>]henicosa-2(7),8(21),9,11,13,15,17-heptaene

> <PUBCHEM_IUPAC_NAME>
5-methyl-1,5-diazapentacyclo[10.8.1.02,7.08,21.013,18]henicosa-2(7),8(21),9,11,13,15,17-heptaene

> <PUBCHEM_IUPAC_SYSTEMATIC_NAME>
5-methyl-1,5-diazapentacyclo[10.8.1.02,7.08,21.013,18]henicosa-2(7),8(21),9,11,13,15,17-heptaene

> <PUBCHEM_IUPAC_TRADITIONAL_NAME>
5-methyl-1,5-diazapentacyclo[10.8.1.02,7.08,21.013,18]heneicosa-2(7),8(21),9,11,13,15,17-heptaene

> <PUBCHEM_IUPAC_INCHI>
InChI=1S/C20H20N2/c1-21-11-10-19-18(13-21)17-8-4-7-16-15-6-3-2-5-14(15)9-12-22(19)20(16)17/h2-8H,9-13H2,1H3

> <PUBCHEM_IUPAC_INCHIKEY>
XKGPHJMKJBEURD-UHFFFAOYSA-N

> <PUBCHEM_XLOGP3_AA>
3.5

> <PUBCHEM_EXACT_MASS>
288.162648646

> <PUBCHEM_MOLECULAR_FORMULA>
C20H20N2

> <PUBCHEM_MOLECULAR_WEIGHT>
288.4

> <PUBCHEM_OPENEYE_CAN_SMILES>
CN1CCC2=C(C1)C3=C4N2CCC5=CC=CC=C5C4=CC=C3

> <PUBCHEM_OPENEYE_ISO_SMILES>
CN1CCC2=C(C1)C3=C4N2CCC5=CC=CC=C5C4=CC=C3

> <PUBCHEM_CACTVS_TPSA>
8.2

> <PUBCHEM_MONOISOTOPIC_WEIGHT>
288.162648646

> <PUBCHEM_TOTAL_CHARGE>
0

> <PUBCHEM_HEAVY_ATOM_COUNT>
22

> <PUBCHEM_ATOM_DEF_STEREO_COUNT>
0

> <PUBCHEM_ATOM_UDEF_STEREO_COUNT>
0

> <PUBCHEM_BOND_DEF_STEREO_COUNT>
0

> <PUBCHEM_BOND_UDEF_STEREO_COUNT>
0

> <PUBCHEM_ISOTOPIC_ATOM_COUNT>
0

> <PUBCHEM_COMPONENT_COUNT>
1

> <PUBCHEM_CACTVS_TAUTO_COUNT>
-1

> <PUBCHEM_COORDINATE_TYPE>
1
5
255

> <PUBCHEM_BONDANNOTATIONS>
1  3  8
1  5  8
11  16  8
13  14  8
13  19  8
14  20  8
15  18  8
16  18  8
19  21  8
20  22  8
21  22  8
3  4  8
4  6  8
5  11  8
5  6  8
6  15  8

$$$$
