10316297
  -OEChem-09292322092D

 50 54  0     0  0  0  0  0  0999 V2000
    4.4691    0.5386    0.0000 N   0  0  0  0  0  0  0  0  0  0  0  0
    4.4691    2.5386    0.0000 N   0  0  0  0  0  0  0  0  0  0  0  0
    2.0000   -4.1285    0.0000 N   0  0  0  0  0  0  0  0  0  0  0  0
    3.3938   -4.9332    0.0000 N   0  0  0  0  0  0  0  0  0  0  0  0
    2.4051   -5.0363    0.0000 N   0  0  0  0  0  0  0  0  0  0  0  0
    5.3351    1.0386    0.0000 C   0  0  0  0  0  0  0  0  0  0  0  0
    3.6030    1.0386    0.0000 C   0  0  0  0  0  0  0  0  0  0  0  0
    5.3351    2.0386    0.0000 C   0  0  0  0  0  0  0  0  0  0  0  0
    3.6030    2.0386    0.0000 C   0  0  0  0  0  0  0  0  0  0  0  0
    4.4691   -0.4614    0.0000 C   0  0  0  0  0  0  0  0  0  0  0  0
    4.4691    3.5386    0.0000 C   0  0  0  0  0  0  0  0  0  0  0  0
    3.6030   -0.9614    0.0000 C   0  0  0  0  0  0  0  0  0  0  0  0
    5.3351    4.0386    0.0000 C   0  0  0  0  0  0  0  0  0  0  0  0
    3.6030   -1.9614    0.0000 C   0  0  0  0  0  0  0  0  0  0  0  0
    3.6030    4.0386    0.0000 C   0  0  0  0  0  0  0  0  0  0  0  0
    5.3351    5.0386    0.0000 C   0  0  0  0  0  0  0  0  0  0  0  0
    6.2290    3.5039    0.0000 C   0  0  0  0  0  0  0  0  0  0  0  0
    3.6030    5.0386    0.0000 C   0  0  0  0  0  0  0  0  0  0  0  0
    4.4691    5.5386    0.0000 C   0  0  0  0  0  0  0  0  0  0  0  0
    2.7370   -2.4614    0.0000 C   0  0  0  0  0  0  0  0  0  0  0  0
    4.4691   -2.4614    0.0000 C   0  0  0  0  0  0  0  0  0  0  0  0
    6.2290    5.5732    0.0000 C   0  0  0  0  0  0  0  0  0  0  0  0
    2.7370   -3.4614    0.0000 C   0  0  0  0  0  0  0  0  0  0  0  0
    7.1351    4.0178    0.0000 C   0  0  0  0  0  0  0  0  0  0  0  0
    4.4691   -3.4614    0.0000 C   0  0  0  0  0  0  0  0  0  0  0  0
    3.6030   -3.9614    0.0000 C   0  0  0  0  0  0  0  0  0  0  0  0
    7.1351    5.0594    0.0000 C   0  0  0  0  0  0  0  0  0  0  0  0
    5.5471    0.4560    0.0000 H   0  0  0  0  0  0  0  0  0  0  0  0
    5.9457    1.1462    0.0000 H   0  0  0  0  0  0  0  0  0  0  0  0
    2.9925    1.1462    0.0000 H   0  0  0  0  0  0  0  0  0  0  0  0
    3.3910    0.4560    0.0000 H   0  0  0  0  0  0  0  0  0  0  0  0
    5.9457    1.9309    0.0000 H   0  0  0  0  0  0  0  0  0  0  0  0
    5.5471    2.6212    0.0000 H   0  0  0  0  0  0  0  0  0  0  0  0
    3.3910    2.6212    0.0000 H   0  0  0  0  0  0  0  0  0  0  0  0
    2.9925    1.9309    0.0000 H   0  0  0  0  0  0  0  0  0  0  0  0
    4.6811   -1.0440    0.0000 H   0  0  0  0  0  0  0  0  0  0  0  0
    5.0796   -0.3538    0.0000 H   0  0  0  0  0  0  0  0  0  0  0  0
    3.3910   -0.3788    0.0000 H   0  0  0  0  0  0  0  0  0  0  0  0
    2.9925   -1.0691    0.0000 H   0  0  0  0  0  0  0  0  0  0  0  0
    3.0661    3.7286    0.0000 H   0  0  0  0  0  0  0  0  0  0  0  0
    6.2219    2.8840    0.0000 H   0  0  0  0  0  0  0  0  0  0  0  0
    3.0661    5.3486    0.0000 H   0  0  0  0  0  0  0  0  0  0  0  0
    4.4691    6.1586    0.0000 H   0  0  0  0  0  0  0  0  0  0  0  0
    2.2001   -2.1514    0.0000 H   0  0  0  0  0  0  0  0  0  0  0  0
    5.0060   -2.1514    0.0000 H   0  0  0  0  0  0  0  0  0  0  0  0
    6.2219    6.1932    0.0000 H   0  0  0  0  0  0  0  0  0  0  0  0
    7.6708    3.7057    0.0000 H   0  0  0  0  0  0  0  0  0  0  0  0
    5.0060   -3.7714    0.0000 H   0  0  0  0  0  0  0  0  0  0  0  0
    7.6708    5.3715    0.0000 H   0  0  0  0  0  0  0  0  0  0  0  0
    2.0951   -5.5732    0.0000 H   0  0  0  0  0  0  0  0  0  0  0  0
  1  6  1  0  0  0  0
  1  7  1  0  0  0  0
  1 10  1  0  0  0  0
  2  8  1  0  0  0  0
  2  9  1  0  0  0  0
  2 11  1  0  0  0  0
  3  5  1  0  0  0  0
  3 23  2  0  0  0  0
  4  5  1  0  0  0  0
  4 26  2  0  0  0  0
  5 50  1  0  0  0  0
  6  8  1  0  0  0  0
  6 28  1  0  0  0  0
  6 29  1  0  0  0  0
  7  9  1  0  0  0  0
  7 30  1  0  0  0  0
  7 31  1  0  0  0  0
  8 32  1  0  0  0  0
  8 33  1  0  0  0  0
  9 34  1  0  0  0  0
  9 35  1  0  0  0  0
 10 12  1  0  0  0  0
 10 36  1  0  0  0  0
 10 37  1  0  0  0  0
 11 13  1  0  0  0  0
 11 15  2  0  0  0  0
 12 14  1  0  0  0  0
 12 38  1  0  0  0  0
 12 39  1  0  0  0  0
 13 16  1  0  0  0  0
 13 17  2  0  0  0  0
 14 20  2  0  0  0  0
 14 21  1  0  0  0  0
 15 18  1  0  0  0  0
 15 40  1  0  0  0  0
 16 19  1  0  0  0  0
 16 22  2  0  0  0  0
 17 24  1  0  0  0  0
 17 41  1  0  0  0  0
 18 19  2  0  0  0  0
 18 42  1  0  0  0  0
 19 43  1  0  0  0  0
 20 23  1  0  0  0  0
 20 44  1  0  0  0  0
 21 25  2  0  0  0  0
 21 45  1  0  0  0  0
 22 27  1  0  0  0  0
 22 46  1  0  0  0  0
 23 26  1  0  0  0  0
 24 27  2  0  0  0  0
 24 47  1  0  0  0  0
 25 26  1  0  0  0  0
 25 48  1  0  0  0  0
 27 49  1  0  0  0  0
M  END
> <PUBCHEM_COMPOUND_CID>
10316297

> <PUBCHEM_COMPOUND_CANONICALIZED>
1

> <PUBCHEM_CACTVS_COMPLEXITY>
477

> <PUBCHEM_CACTVS_HBOND_ACCEPTOR>
4

> <PUBCHEM_CACTVS_HBOND_DONOR>
1

> <PUBCHEM_CACTVS_ROTATABLE_BOND>
4

> <PUBCHEM_CACTVS_SUBSKEYS>
AAADceB7gAAAAAAAAAAAAAAAAAAAAWAAAAA8YMEAAAAAAFjB9AAAHAAYAAAADAjBHgQwwPMCAACiAyRiQACCBAQhEgAYuCA4dJgIYKLAkZGUIAhggADIyAcQgIAOiAAAQAASACAQAACAACQAQAAAAAAAAA==

> <PUBCHEM_IUPAC_OPENEYE_NAME>
5-[2-[4-(1-naphthyl)piperazin-1-yl]ethyl]-2H-benzotriazole

> <PUBCHEM_IUPAC_CAS_NAME>
5-[2-[4-(1-naphthalenyl)-1-piperazinyl]ethyl]-2H-benzotriazole

> <PUBCHEM_IUPAC_NAME_MARKUP>
5-[2-(4-naphthalen-1-ylpiperazin-1-yl)ethyl]-2<I>H</I>-benzotriazole

> <PUBCHEM_IUPAC_NAME>
5-[2-(4-naphthalen-1-ylpiperazin-1-yl)ethyl]-2H-benzotriazole

> <PUBCHEM_IUPAC_SYSTEMATIC_NAME>
5-[2-(4-naphthalen-1-ylpiperazin-1-yl)ethyl]-2H-benzotriazole

> <PUBCHEM_IUPAC_TRADITIONAL_NAME>
5-[2-[4-(1-naphthyl)piperazino]ethyl]-2H-benzotriazole

> <PUBCHEM_IUPAC_INCHI>
InChI=1S/C22H23N5/c1-2-6-19-18(4-1)5-3-7-22(19)27-14-12-26(13-15-27)11-10-17-8-9-20-21(16-17)24-25-23-20/h1-9,16H,10-15H2,(H,23,24,25)

> <PUBCHEM_IUPAC_INCHIKEY>
YQSXXLHEQOZMOT-UHFFFAOYSA-N

> <PUBCHEM_XLOGP3_AA>
4.2

> <PUBCHEM_EXACT_MASS>
357.19534575

> <PUBCHEM_MOLECULAR_FORMULA>
C22H23N5

> <PUBCHEM_MOLECULAR_WEIGHT>
357.5

> <PUBCHEM_OPENEYE_CAN_SMILES>
C1CN(CCN1CCC2=CC3=NNN=C3C=C2)C4=CC=CC5=CC=CC=C54

> <PUBCHEM_OPENEYE_ISO_SMILES>
C1CN(CCN1CCC2=CC3=NNN=C3C=C2)C4=CC=CC5=CC=CC=C54

> <PUBCHEM_CACTVS_TPSA>
48

> <PUBCHEM_MONOISOTOPIC_WEIGHT>
357.19534575

> <PUBCHEM_TOTAL_CHARGE>
0

> <PUBCHEM_HEAVY_ATOM_COUNT>
27

> <PUBCHEM_ATOM_DEF_STEREO_COUNT>
0

> <PUBCHEM_ATOM_UDEF_STEREO_COUNT>
0

> <PUBCHEM_BOND_DEF_STEREO_COUNT>
0

> <PUBCHEM_BOND_UDEF_STEREO_COUNT>
0

> <PUBCHEM_ISOTOPIC_ATOM_COUNT>
0

> <PUBCHEM_COMPONENT_COUNT>
1

> <PUBCHEM_CACTVS_TAUTO_COUNT>
-1

> <PUBCHEM_COORDINATE_TYPE>
1
5
255

> <PUBCHEM_BONDANNOTATIONS>
11  13  8
11  15  8
13  16  8
13  17  8
14  20  8
14  21  8
15  18  8
16  19  8
16  22  8
17  24  8
18  19  8
20  23  8
21  25  8
22  27  8
23  26  8
24  27  8
25  26  8
3  23  8
3  5  8
4  26  8
4  5  8

$$$$
