70692656
  -OEChem-09292322052D

 46 49  0     1  0  0  0  0  0999 V2000
    3.8372   -3.6313    0.0000 O   0  0  0  0  0  0  0  0  0  0  0  0
    5.6405   -2.5716    0.0000 O   0  0  0  0  0  0  0  0  0  0  0  0
    2.9180    1.0654    0.0000 N   0  0  3  0  0  0  0  0  0  0  0  0
    3.7841    0.5654    0.0000 C   0  0  1  0  0  0  0  0  0  0  0  0
    4.6501    1.0654    0.0000 C   0  0  0  0  0  0  0  0  0  0  0  0
    2.9180    2.0654    0.0000 C   0  0  0  0  0  0  0  0  0  0  0  0
    2.0080    0.5585    0.0000 C   0  0  0  0  0  0  0  0  0  0  0  0
    3.8001   -0.4761    0.0000 C   0  0  0  0  0  0  0  0  0  0  0  0
    4.6501    2.0654    0.0000 C   0  0  0  0  0  0  0  0  0  0  0  0
    3.7841    2.5654    0.0000 C   0  0  0  0  0  0  0  0  0  0  0  0
    2.0000   -0.4831    0.0000 C   0  0  0  0  0  0  0  0  0  0  0  0
    2.9021   -1.0039    0.0000 C   0  0  0  0  0  0  0  0  0  0  0  0
    3.7680    3.6069    0.0000 C   0  0  0  0  0  0  0  0  0  0  0  0
    4.7520   -0.9967    0.0000 C   0  0  0  0  0  0  0  0  0  0  0  0
    5.5601    2.5722    0.0000 C   0  0  0  0  0  0  0  0  0  0  0  0
    2.8937   -2.0888    0.0000 C   0  0  0  0  0  0  0  0  0  0  0  0
    5.5681    3.6138    0.0000 C   0  0  0  0  0  0  0  0  0  0  0  0
    4.6660    4.1346    0.0000 C   0  0  0  0  0  0  0  0  0  0  0  0
    4.7688   -2.0816    0.0000 C   0  0  0  0  0  0  0  0  0  0  0  0
    3.8334   -2.6313    0.0000 C   0  0  0  0  0  0  0  0  0  0  0  0
    2.8963    4.0968    0.0000 C   0  0  0  0  0  0  0  0  0  0  0  0
    6.4361    4.1105    0.0000 C   0  0  0  0  0  0  0  0  0  0  0  0
    2.9731   -4.1346    0.0000 C   0  0  0  0  0  0  0  0  0  0  0  0
    4.5234    0.1461    0.0000 H   0  0  0  0  0  0  0  0  0  0  0  0
    4.8621    0.4828    0.0000 H   0  0  0  0  0  0  0  0  0  0  0  0
    5.2607    1.1731    0.0000 H   0  0  0  0  0  0  0  0  0  0  0  0
    2.7060    2.6480    0.0000 H   0  0  0  0  0  0  0  0  0  0  0  0
    2.3074    1.9577    0.0000 H   0  0  0  0  0  0  0  0  0  0  0  0
    1.8035    1.1438    0.0000 H   0  0  0  0  0  0  0  0  0  0  0  0
    1.3964    0.4572    0.0000 H   0  0  0  0  0  0  0  0  0  0  0  0
    1.3900   -0.3723    0.0000 H   0  0  0  0  0  0  0  0  0  0  0  0
    1.7864   -1.0651    0.0000 H   0  0  0  0  0  0  0  0  0  0  0  0
    5.2829   -0.6764    0.0000 H   0  0  0  0  0  0  0  0  0  0  0  0
    6.0934    2.2560    0.0000 H   0  0  0  0  0  0  0  0  0  0  0  0
    2.3556   -2.3968    0.0000 H   0  0  0  0  0  0  0  0  0  0  0  0
    4.6636    4.7546    0.0000 H   0  0  0  0  0  0  0  0  0  0  0  0
    3.2000    4.6373    0.0000 H   0  0  0  0  0  0  0  0  0  0  0  0
    2.3558    4.4006    0.0000 H   0  0  0  0  0  0  0  0  0  0  0  0
    2.5925    3.5564    0.0000 H   0  0  0  0  0  0  0  0  0  0  0  0
    6.7440    3.5724    0.0000 H   0  0  0  0  0  0  0  0  0  0  0  0
    6.9742    4.4184    0.0000 H   0  0  0  0  0  0  0  0  0  0  0  0
    6.1281    4.6486    0.0000 H   0  0  0  0  0  0  0  0  0  0  0  0
    5.6477   -3.1915    0.0000 H   0  0  0  0  0  0  0  0  0  0  0  0
    2.6610   -3.5989    0.0000 H   0  0  0  0  0  0  0  0  0  0  0  0
    2.4374   -4.4467    0.0000 H   0  0  0  0  0  0  0  0  0  0  0  0
    3.2852   -4.6704    0.0000 H   0  0  0  0  0  0  0  0  0  0  0  0
  1 20  1  0  0  0  0
  1 23  1  0  0  0  0
  2 19  1  0  0  0  0
  2 43  1  0  0  0  0
  3  4  1  0  0  0  0
  3  6  1  0  0  0  0
  3  7  1  0  0  0  0
  4  5  1  0  0  0  0
  4  8  1  0  0  0  0
  4 24  1  6  0  0  0
  5  9  1  0  0  0  0
  5 25  1  0  0  0  0
  5 26  1  0  0  0  0
  6 10  1  0  0  0  0
  6 27  1  0  0  0  0
  6 28  1  0  0  0  0
  7 11  1  0  0  0  0
  7 29  1  0  0  0  0
  7 30  1  0  0  0  0
  8 12  1  0  0  0  0
  8 14  2  0  0  0  0
  9 10  1  0  0  0  0
  9 15  2  0  0  0  0
 10 13  2  0  0  0  0
 11 12  1  0  0  0  0
 11 31  1  0  0  0  0
 11 32  1  0  0  0  0
 12 16  2  0  0  0  0
 13 18  1  0  0  0  0
 13 21  1  0  0  0  0
 14 19  1  0  0  0  0
 14 33  1  0  0  0  0
 15 17  1  0  0  0  0
 15 34  1  0  0  0  0
 16 20  1  0  0  0  0
 16 35  1  0  0  0  0
 17 18  2  0  0  0  0
 17 22  1  0  0  0  0
 18 36  1  0  0  0  0
 19 20  2  0  0  0  0
 21 37  1  0  0  0  0
 21 38  1  0  0  0  0
 21 39  1  0  0  0  0
 22 40  1  0  0  0  0
 22 41  1  0  0  0  0
 22 42  1  0  0  0  0
 23 44  1  0  0  0  0
 23 45  1  0  0  0  0
 23 46  1  0  0  0  0
M  END
> <PUBCHEM_COMPOUND_CID>
70692656

> <PUBCHEM_COMPOUND_CANONICALIZED>
1

> <PUBCHEM_CACTVS_COMPLEXITY>
428

> <PUBCHEM_CACTVS_HBOND_ACCEPTOR>
3

> <PUBCHEM_CACTVS_HBOND_DONOR>
1

> <PUBCHEM_CACTVS_ROTATABLE_BOND>
1

> <PUBCHEM_CACTVS_SUBSKEYS>
AAADceB6MAAAAAAAAAAAAAAAAAAAAAAAAAA8eIEAAAAAAACxQAAAHgAACAAADCzBmAYyBoMABgCAAiBCAACCCAAgIAAAiAAOjIgNJiKGsRuEcCtkwBGLuAew0PMO4AADAAAQQADAAAYAACCAAAAAAAAAAA==

> <PUBCHEM_IUPAC_OPENEYE_NAME>
(13aS)-3-methoxy-9,11-dimethyl-6,8,13,13a-tetrahydro-5H-isoquinolino[2,1-b]isoquinolin-2-ol

> <PUBCHEM_IUPAC_CAS_NAME>
(13aS)-3-methoxy-9,11-dimethyl-6,8,13,13a-tetrahydro-5H-isoquinolino[2,1-b]isoquinolin-2-ol

> <PUBCHEM_IUPAC_NAME_MARKUP>
(13<I>a</I><I>S</I>)-3-methoxy-9,11-dimethyl-6,8,13,13<I>a</I>-tetrahydro-5<I>H</I>-isoquinolino[2,1-b]isoquinolin-2-ol

> <PUBCHEM_IUPAC_NAME>
(13aS)-3-methoxy-9,11-dimethyl-6,8,13,13a-tetrahydro-5H-isoquinolino[2,1-b]isoquinolin-2-ol

> <PUBCHEM_IUPAC_SYSTEMATIC_NAME>
(13aS)-3-methoxy-9,11-dimethyl-6,8,13,13a-tetrahydro-5H-isoquinolino[2,1-b]isoquinolin-2-ol

> <PUBCHEM_IUPAC_TRADITIONAL_NAME>
(13aS)-3-methoxy-9,11-dimethyl-6,8,13,13a-tetrahydro-5H-isoquinolin[2,1-b]isoquinolin-2-ol

> <PUBCHEM_IUPAC_INCHI>
InChI=1S/C20H23NO2/c1-12-6-13(2)17-11-21-5-4-14-9-20(23-3)19(22)10-16(14)18(21)8-15(17)7-12/h6-7,9-10,18,22H,4-5,8,11H2,1-3H3/t18-/m0/s1

> <PUBCHEM_IUPAC_INCHIKEY>
OGNNKKYFJYJQEU-SFHVURJKSA-N

> <PUBCHEM_XLOGP3_AA>
3.7

> <PUBCHEM_EXACT_MASS>
309.172878976

> <PUBCHEM_MOLECULAR_FORMULA>
C20H23NO2

> <PUBCHEM_MOLECULAR_WEIGHT>
309.4

> <PUBCHEM_OPENEYE_CAN_SMILES>
CC1=CC(=C2CN3CCC4=CC(=C(C=C4C3CC2=C1)O)OC)C

> <PUBCHEM_OPENEYE_ISO_SMILES>
CC1=CC(=C2CN3CCC4=CC(=C(C=C4[C@@H]3CC2=C1)O)OC)C

> <PUBCHEM_CACTVS_TPSA>
32.7

> <PUBCHEM_MONOISOTOPIC_WEIGHT>
309.172878976

> <PUBCHEM_TOTAL_CHARGE>
0

> <PUBCHEM_HEAVY_ATOM_COUNT>
23

> <PUBCHEM_ATOM_DEF_STEREO_COUNT>
1

> <PUBCHEM_ATOM_UDEF_STEREO_COUNT>
0

> <PUBCHEM_BOND_DEF_STEREO_COUNT>
0

> <PUBCHEM_BOND_UDEF_STEREO_COUNT>
0

> <PUBCHEM_ISOTOPIC_ATOM_COUNT>
0

> <PUBCHEM_COMPONENT_COUNT>
1

> <PUBCHEM_CACTVS_TAUTO_COUNT>
-1

> <PUBCHEM_COORDINATE_TYPE>
1
5
255

> <PUBCHEM_BONDANNOTATIONS>
10  13  8
12  16  8
13  18  8
14  19  8
15  17  8
16  20  8
17  18  8
19  20  8
4  24  6
8  12  8
8  14  8
9  10  8
9  15  8

$$$$
