166635694
  -OEChem-09292322442D

 95 98  0     1  0  0  0  0  0999 V2000
    6.9708   -7.2590    0.0000 Cl  0  0  0  0  0  0  0  0  0  0  0  0
    4.3728   -3.7590    0.0000 O   0  0  0  0  0  0  0  0  0  0  0  0
    6.2216    4.1656    0.0000 O   0  0  0  0  0  0  0  0  0  0  0  0
    6.9708   -5.2590    0.0000 O   0  0  0  0  0  0  0  0  0  0  0  0
    3.5068   -5.2590    0.0000 O   0  0  0  0  0  0  0  0  0  0  0  0
    7.0754   -1.2645    0.0000 N   0  0  3  0  0  0  0  0  0  0  0  0
    6.1048   -3.7590    0.0000 N   0  0  0  0  0  0  0  0  0  0  0  0
    5.2618    2.6992    0.0000 N   0  0  0  0  0  0  0  0  0  0  0  0
    6.9029    5.2559    0.0000 N   0  0  0  0  0  0  0  0  0  0  0  0
    6.9708   -2.2590    0.0000 C   0  0  1  0  0  0  0  0  0  0  0  0
    7.8844   -2.6658    0.0000 C   0  0  0  0  0  0  0  0  0  0  0  0
    8.0535   -1.0566    0.0000 C   0  0  0  0  0  0  0  0  0  0  0  0
    8.5535   -1.9226    0.0000 C   0  0  0  0  0  0  0  0  0  0  0  0
    6.3322   -0.5954    0.0000 C   0  0  0  0  0  0  0  0  0  0  0  0
    6.1048   -2.7590    0.0000 C   0  0  0  0  0  0  0  0  0  0  0  0
    6.5401    0.3828    0.0000 C   0  0  0  0  0  0  0  0  0  0  0  0
    5.7970    1.0519    0.0000 C   0  0  0  0  0  0  0  0  0  0  0  0
    6.0049    2.0300    0.0000 C   0  0  0  0  0  0  0  0  0  0  0  0
    4.9344    5.3246    0.0000 C   0  0  0  0  0  0  0  0  0  0  0  0
    4.7265    4.3464    0.0000 C   0  0  0  0  0  0  0  0  0  0  0  0
    5.4697    3.6773    0.0000 C   0  0  0  0  0  0  0  0  0  0  0  0
    5.2388   -4.2590    0.0000 C   0  0  0  0  0  0  0  0  0  0  0  0
    5.1424    6.3027    0.0000 C   0  0  0  0  0  0  0  0  0  0  0  0
    3.9563    5.5325    0.0000 C   0  0  0  0  0  0  0  0  0  0  0  0
    5.9126    5.1167    0.0000 C   0  0  0  0  0  0  0  0  0  0  0  0
    5.2388   -5.2590    0.0000 C   0  0  0  0  0  0  0  0  0  0  0  0
    6.0934    6.6118    0.0000 C   0  0  0  0  0  0  0  0  0  0  0  0
    3.2872    4.7894    0.0000 C   0  0  0  0  0  0  0  0  0  0  0  0
    4.3992    6.9719    0.0000 C   0  0  0  0  0  0  0  0  0  0  0  0
    3.6473    6.4836    0.0000 C   0  0  0  0  0  0  0  0  0  0  0  0
    4.3728   -5.7590    0.0000 C   0  0  0  0  0  0  0  0  0  0  0  0
    6.1048   -5.7590    0.0000 C   0  0  0  0  0  0  0  0  0  0  0  0
    6.3013    7.5899    0.0000 C   0  0  0  0  0  0  0  0  0  0  0  0
    2.3090    4.9973    0.0000 C   0  0  0  0  0  0  0  0  0  0  0  0
    4.6071    7.9500    0.0000 C   0  0  0  0  0  0  0  0  0  0  0  0
    2.6691    6.6915    0.0000 C   0  0  0  0  0  0  0  0  0  0  0  0
    7.5185    4.4678    0.0000 C   0  0  0  0  0  0  0  0  0  0  0  0
    7.2775    6.1830    0.0000 C   0  0  0  0  0  0  0  0  0  0  0  0
    4.3728   -6.7590    0.0000 C   0  0  0  0  0  0  0  0  0  0  0  0
    5.5582    8.2590    0.0000 C   0  0  0  0  0  0  0  0  0  0  0  0
    2.0000    5.9483    0.0000 C   0  0  0  0  0  0  0  0  0  0  0  0
    6.1048   -6.7590    0.0000 C   0  0  0  0  0  0  0  0  0  0  0  0
    5.2388   -7.2590    0.0000 C   0  0  0  0  0  0  0  0  0  0  0  0
    3.5068   -7.2590    0.0000 C   0  0  0  0  0  0  0  0  0  0  0  0
    3.5068   -8.2590    0.0000 C   0  0  0  0  0  0  0  0  0  0  0  0
    7.8369   -5.7590    0.0000 C   0  0  0  0  0  0  0  0  0  0  0  0
    6.4509   -1.9214    0.0000 H   0  0  0  0  0  0  0  0  0  0  0  0
    7.5744   -3.2027    0.0000 H   0  0  0  0  0  0  0  0  0  0  0  0
    8.3860   -3.0302    0.0000 H   0  0  0  0  0  0  0  0  0  0  0  0
    8.6199   -0.8044    0.0000 H   0  0  0  0  0  0  0  0  0  0  0  0
    7.8619   -0.4670    0.0000 H   0  0  0  0  0  0  0  0  0  0  0  0
    8.9684   -2.3834    0.0000 H   0  0  0  0  0  0  0  0  0  0  0  0
    9.0551   -1.5582    0.0000 H   0  0  0  0  0  0  0  0  0  0  0  0
    5.7574   -0.3631    0.0000 H   0  0  0  0  0  0  0  0  0  0  0  0
    6.0037   -1.1212    0.0000 H   0  0  0  0  0  0  0  0  0  0  0  0
    5.8928   -2.1764    0.0000 H   0  0  0  0  0  0  0  0  0  0  0  0
    5.4942   -2.8667    0.0000 H   0  0  0  0  0  0  0  0  0  0  0  0
    7.1150    0.1505    0.0000 H   0  0  0  0  0  0  0  0  0  0  0  0
    6.8687    0.9086    0.0000 H   0  0  0  0  0  0  0  0  0  0  0  0
    5.2221    1.2841    0.0000 H   0  0  0  0  0  0  0  0  0  0  0  0
    5.4684    0.5261    0.0000 H   0  0  0  0  0  0  0  0  0  0  0  0
    6.6418   -4.0690    0.0000 H   0  0  0  0  0  0  0  0  0  0  0  0
    6.5798    1.7978    0.0000 H   0  0  0  0  0  0  0  0  0  0  0  0
    6.3335    2.5558    0.0000 H   0  0  0  0  0  0  0  0  0  0  0  0
    4.1517    4.5787    0.0000 H   0  0  0  0  0  0  0  0  0  0  0  0
    4.3980    3.8207    0.0000 H   0  0  0  0  0  0  0  0  0  0  0  0
    6.0445    3.4451    0.0000 H   0  0  0  0  0  0  0  0  0  0  0  0
    5.7982    4.2031    0.0000 H   0  0  0  0  0  0  0  0  0  0  0  0
    4.6721    2.5076    0.0000 H   0  0  0  0  0  0  0  0  0  0  0  0
    6.5542    6.1969    0.0000 H   0  0  0  0  0  0  0  0  0  0  0  0
    3.4788    4.1997    0.0000 H   0  0  0  0  0  0  0  0  0  0  0  0
    3.8096    6.7803    0.0000 H   0  0  0  0  0  0  0  0  0  0  0  0
    4.0621    6.9443    0.0000 H   0  0  0  0  0  0  0  0  0  0  0  0
    6.8910    7.7815    0.0000 H   0  0  0  0  0  0  0  0  0  0  0  0
    1.8942    4.5365    0.0000 H   0  0  0  0  0  0  0  0  0  0  0  0
    4.1464    8.3649    0.0000 H   0  0  0  0  0  0  0  0  0  0  0  0
    2.4775    7.2811    0.0000 H   0  0  0  0  0  0  0  0  0  0  0  0
    7.0300    4.0861    0.0000 H   0  0  0  0  0  0  0  0  0  0  0  0
    7.9002    3.9793    0.0000 H   0  0  0  0  0  0  0  0  0  0  0  0
    8.0071    4.8496    0.0000 H   0  0  0  0  0  0  0  0  0  0  0  0
    7.8523    5.9508    0.0000 H   0  0  0  0  0  0  0  0  0  0  0  0
    7.5097    6.7579    0.0000 H   0  0  0  0  0  0  0  0  0  0  0  0
    6.7026    6.4153    0.0000 H   0  0  0  0  0  0  0  0  0  0  0  0
    5.6871    8.8655    0.0000 H   0  0  0  0  0  0  0  0  0  0  0  0
    1.3936    6.0772    0.0000 H   0  0  0  0  0  0  0  0  0  0  0  0
    5.2388   -7.8790    0.0000 H   0  0  0  0  0  0  0  0  0  0  0  0
    3.2947   -6.6764    0.0000 H   0  0  0  0  0  0  0  0  0  0  0  0
    2.8962   -7.3667    0.0000 H   0  0  0  0  0  0  0  0  0  0  0  0
    2.9698   -5.5690    0.0000 H   0  0  0  0  0  0  0  0  0  0  0  0
    2.8868   -8.2590    0.0000 H   0  0  0  0  0  0  0  0  0  0  0  0
    3.5068   -8.8790    0.0000 H   0  0  0  0  0  0  0  0  0  0  0  0
    4.1268   -8.2590    0.0000 H   0  0  0  0  0  0  0  0  0  0  0  0
    7.5269   -6.2960    0.0000 H   0  0  0  0  0  0  0  0  0  0  0  0
    8.3738   -6.0690    0.0000 H   0  0  0  0  0  0  0  0  0  0  0  0
    8.1469   -5.2221    0.0000 H   0  0  0  0  0  0  0  0  0  0  0  0
  1 42  1  0  0  0  0
  2 22  2  0  0  0  0
  3 25  2  0  0  0  0
  4 32  1  0  0  0  0
  4 46  1  0  0  0  0
  5 31  1  0  0  0  0
  5 89  1  0  0  0  0
  6 10  1  0  0  0  0
  6 12  1  0  0  0  0
  6 14  1  0  0  0  0
  7 15  1  0  0  0  0
  7 22  1  0  0  0  0
  7 62  1  0  0  0  0
  8 18  1  0  0  0  0
  8 21  1  0  0  0  0
  8 69  1  0  0  0  0
  9 25  1  0  0  0  0
  9 37  1  0  0  0  0
  9 38  1  0  0  0  0
 10 11  1  0  0  0  0
 10 15  1  1  0  0  0
 10 47  1  0  0  0  0
 11 13  1  0  0  0  0
 11 48  1  0  0  0  0
 11 49  1  0  0  0  0
 12 13  1  0  0  0  0
 12 50  1  0  0  0  0
 12 51  1  0  0  0  0
 13 52  1  0  0  0  0
 13 53  1  0  0  0  0
 14 16  1  0  0  0  0
 14 54  1  0  0  0  0
 14 55  1  0  0  0  0
 15 56  1  0  0  0  0
 15 57  1  0  0  0  0
 16 17  1  0  0  0  0
 16 58  1  0  0  0  0
 16 59  1  0  0  0  0
 17 18  1  0  0  0  0
 17 60  1  0  0  0  0
 17 61  1  0  0  0  0
 18 63  1  0  0  0  0
 18 64  1  0  0  0  0
 19 20  1  0  0  0  0
 19 23  1  0  0  0  0
 19 24  1  0  0  0  0
 19 25  1  0  0  0  0
 20 21  1  0  0  0  0
 20 65  1  0  0  0  0
 20 66  1  0  0  0  0
 21 67  1  0  0  0  0
 21 68  1  0  0  0  0
 22 26  1  0  0  0  0
 23 27  2  0  0  0  0
 23 29  1  0  0  0  0
 24 28  2  0  0  0  0
 24 30  1  0  0  0  0
 26 31  2  0  0  0  0
 26 32  1  0  0  0  0
 27 33  1  0  0  0  0
 27 70  1  0  0  0  0
 28 34  1  0  0  0  0
 28 71  1  0  0  0  0
 29 35  2  0  0  0  0
 29 72  1  0  0  0  0
 30 36  2  0  0  0  0
 30 73  1  0  0  0  0
 31 39  1  0  0  0  0
 32 42  2  0  0  0  0
 33 40  2  0  0  0  0
 33 74  1  0  0  0  0
 34 41  2  0  0  0  0
 34 75  1  0  0  0  0
 35 40  1  0  0  0  0
 35 76  1  0  0  0  0
 36 41  1  0  0  0  0
 36 77  1  0  0  0  0
 37 78  1  0  0  0  0
 37 79  1  0  0  0  0
 37 80  1  0  0  0  0
 38 81  1  0  0  0  0
 38 82  1  0  0  0  0
 38 83  1  0  0  0  0
 39 43  2  0  0  0  0
 39 44  1  0  0  0  0
 40 84  1  0  0  0  0
 41 85  1  0  0  0  0
 42 43  1  0  0  0  0
 43 86  1  0  0  0  0
 44 45  1  0  0  0  0
 44 87  1  0  0  0  0
 44 88  1  0  0  0  0
 45 90  1  0  0  0  0
 45 91  1  0  0  0  0
 45 92  1  0  0  0  0
 46 93  1  0  0  0  0
 46 94  1  0  0  0  0
 46 95  1  0  0  0  0
M  END
> <PUBCHEM_COMPOUND_CID>
166635694

> <PUBCHEM_COMPOUND_CANONICALIZED>
1

> <PUBCHEM_CACTVS_COMPLEXITY>
907

> <PUBCHEM_CACTVS_HBOND_ACCEPTOR>
6

> <PUBCHEM_CACTVS_HBOND_DONOR>
3

> <PUBCHEM_CACTVS_ROTATABLE_BOND>
16

> <PUBCHEM_CACTVS_SUBSKEYS>
AAADcfB/uAAEAAAAAAAAAAAAAAAAAWAAAAAwYMAAAAAAAAABUAAAHgIQCAAADi7BmCYyBoPABgCIAiFSEACCCAAkJUAIiIEMD8gMZzeHtxuUcWhn9hWIuQec6OyPoCACKAAICABAQARQABAQAAAAAAAAAA==

> <PUBCHEM_IUPAC_OPENEYE_NAME>
5-chloro-N-[[(2S)-1-[4-[[4-(dimethylamino)-4-oxo-3,3-diphenyl-butyl]amino]butyl]pyrrolidin-2-yl]methyl]-3-ethyl-2-hydroxy-6-methoxy-benzamide

> <PUBCHEM_IUPAC_CAS_NAME>
5-chloro-N-[[(2S)-1-[4-[[4-(dimethylamino)-4-oxo-3,3-diphenylbutyl]amino]butyl]-2-pyrrolidinyl]methyl]-3-ethyl-2-hydroxy-6-methoxybenzamide

> <PUBCHEM_IUPAC_NAME_MARKUP>
5-chloro-<I>N</I>-[[(2<I>S</I>)-1-[4-[[4-(dimethylamino)-4-oxo-3,3-diphenylbutyl]amino]butyl]pyrrolidin-2-yl]methyl]-3-ethyl-2-hydroxy-6-methoxybenzamide

> <PUBCHEM_IUPAC_NAME>
5-chloro-N-[[(2S)-1-[4-[[4-(dimethylamino)-4-oxo-3,3-diphenylbutyl]amino]butyl]pyrrolidin-2-yl]methyl]-3-ethyl-2-hydroxy-6-methoxybenzamide

> <PUBCHEM_IUPAC_SYSTEMATIC_NAME>
3-chloranyl-N-[[(2S)-1-[4-[[4-(dimethylamino)-4-oxidanylidene-3,3-diphenyl-butyl]amino]butyl]pyrrolidin-2-yl]methyl]-5-ethyl-2-methoxy-6-oxidanyl-benzamide

> <PUBCHEM_IUPAC_TRADITIONAL_NAME>
5-chloro-N-[[(2S)-1-[4-[[4-(dimethylamino)-4-keto-3,3-diphenyl-butyl]amino]butyl]pyrrolidin-2-yl]methyl]-3-ethyl-2-hydroxy-6-methoxy-benzamide

> <PUBCHEM_IUPAC_INCHI>
InChI=1S/C37H49ClN4O4/c1-5-27-25-31(38)34(46-4)32(33(27)43)35(44)40-26-30-19-14-24-42(30)23-13-12-21-39-22-20-37(36(45)41(2)3,28-15-8-6-9-16-28)29-17-10-7-11-18-29/h6-11,15-18,25,30,39,43H,5,12-14,19-24,26H2,1-4H3,(H,40,44)/t30-/m0/s1

> <PUBCHEM_IUPAC_INCHIKEY>
ASFIQZWALJTDCY-PMERELPUSA-N

> <PUBCHEM_XLOGP3_AA>
6.6

> <PUBCHEM_EXACT_MASS>
648.3442338

> <PUBCHEM_MOLECULAR_FORMULA>
C37H49ClN4O4

> <PUBCHEM_MOLECULAR_WEIGHT>
649.3

> <PUBCHEM_OPENEYE_CAN_SMILES>
CCC1=CC(=C(C(=C1O)C(=O)NCC2CCCN2CCCCNCCC(C3=CC=CC=C3)(C4=CC=CC=C4)C(=O)N(C)C)OC)Cl

> <PUBCHEM_OPENEYE_ISO_SMILES>
CCC1=CC(=C(C(=C1O)C(=O)NC[C@@H]2CCCN2CCCCNCCC(C3=CC=CC=C3)(C4=CC=CC=C4)C(=O)N(C)C)OC)Cl

> <PUBCHEM_CACTVS_TPSA>
94.1

> <PUBCHEM_MONOISOTOPIC_WEIGHT>
648.3442338

> <PUBCHEM_TOTAL_CHARGE>
0

> <PUBCHEM_HEAVY_ATOM_COUNT>
46

> <PUBCHEM_ATOM_DEF_STEREO_COUNT>
1

> <PUBCHEM_ATOM_UDEF_STEREO_COUNT>
0

> <PUBCHEM_BOND_DEF_STEREO_COUNT>
0

> <PUBCHEM_BOND_UDEF_STEREO_COUNT>
0

> <PUBCHEM_ISOTOPIC_ATOM_COUNT>
0

> <PUBCHEM_COMPONENT_COUNT>
1

> <PUBCHEM_CACTVS_TAUTO_COUNT>
-1

> <PUBCHEM_COORDINATE_TYPE>
1
5
255

> <PUBCHEM_BONDANNOTATIONS>
10  15  5
23  27  8
23  29  8
24  28  8
24  30  8
26  31  8
26  32  8
27  33  8
28  34  8
29  35  8
30  36  8
31  39  8
32  42  8
33  40  8
34  41  8
35  40  8
36  41  8
39  43  8
42  43  8

$$$$
