16007818
  -OEChem-09292321582D

 53 56  0     1  0  0  0  0  0999 V2000
    9.9533   -0.9693    0.0000 S   0  0  3  0  0  0  0  0  0  0  0  0
   10.8872    2.1223    0.0000 O   0  0  0  0  0  0  0  0  0  0  0  0
    9.9533   -1.9693    0.0000 O   0  0  0  0  0  0  0  0  0  0  0  0
    5.8971    1.3335    0.0000 O   0  0  0  0  0  0  0  0  0  0  0  0
    4.8633   -1.9728    0.0000 O   0  0  0  0  0  0  0  0  0  0  0  0
    9.4533    1.2213    0.0000 N   0  0  0  0  0  0  0  0  0  0  0  0
    5.3802   -0.3196    0.0000 N   0  0  0  0  0  0  0  0  0  0  0  0
    8.8298    0.4395    0.0000 C   0  0  0  0  0  0  0  0  0  0  0  0
    9.0523   -0.5354    0.0000 C   0  0  0  0  0  0  0  0  0  0  0  0
   11.0768    0.4395    0.0000 C   0  0  0  0  0  0  0  0  0  0  0  0
    9.0194    2.1223    0.0000 C   0  0  0  0  0  0  0  0  0  0  0  0
   10.8543   -0.5354    0.0000 C   0  0  0  0  0  0  0  0  0  0  0  0
   10.4533    1.2213    0.0000 C   0  0  0  0  0  0  0  0  0  0  0  0
    7.8393    0.7618    0.0000 C   0  0  0  0  0  0  0  0  0  0  0  0
    7.0703    0.0593    0.0000 C   0  0  0  0  0  0  0  0  0  0  0  0
    8.2998   -1.2556    0.0000 C   0  0  0  0  0  0  0  0  0  0  0  0
    7.3021   -0.9563    0.0000 C   0  0  0  0  0  0  0  0  0  0  0  0
   12.0673    0.7618    0.0000 C   0  0  0  0  0  0  0  0  0  0  0  0
   11.6068   -1.2556    0.0000 C   0  0  0  0  0  0  0  0  0  0  0  0
    9.5828    2.9485    0.0000 C   0  0  0  0  0  0  0  0  0  0  0  0
    6.1159    0.3577    0.0000 C   0  0  0  0  0  0  0  0  0  0  0  0
   12.8363    0.0592    0.0000 C   0  0  0  0  0  0  0  0  0  0  0  0
   12.6045   -0.9563    0.0000 C   0  0  0  0  0  0  0  0  0  0  0  0
    4.4258   -0.0212    0.0000 C   0  0  0  0  0  0  0  0  0  0  0  0
    3.6901   -0.6985    0.0000 C   0  0  0  0  0  0  0  0  0  0  0  0
    3.9088   -1.6743    0.0000 C   0  0  0  0  0  0  0  0  0  0  0  0
    2.7357   -0.4001    0.0000 C   0  0  0  0  0  0  0  0  0  0  0  0
    3.1732   -2.3516    0.0000 C   0  0  0  0  0  0  0  0  0  0  0  0
    2.0000   -1.0774    0.0000 C   0  0  0  0  0  0  0  0  0  0  0  0
    2.2188   -2.0532    0.0000 C   0  0  0  0  0  0  0  0  0  0  0  0
    5.0820   -2.9485    0.0000 C   0  0  0  0  0  0  0  0  0  0  0  0
    8.5756    2.5552    0.0000 H   0  0  0  0  0  0  0  0  0  0  0  0
    8.5160    1.7604    0.0000 H   0  0  0  0  0  0  0  0  0  0  0  0
    7.7084    1.3678    0.0000 H   0  0  0  0  0  0  0  0  0  0  0  0
    8.4447   -1.8584    0.0000 H   0  0  0  0  0  0  0  0  0  0  0  0
    6.8492   -1.3797    0.0000 H   0  0  0  0  0  0  0  0  0  0  0  0
   12.1983    1.3678    0.0000 H   0  0  0  0  0  0  0  0  0  0  0  0
   11.4619   -1.8584    0.0000 H   0  0  0  0  0  0  0  0  0  0  0  0
   10.0950    2.5993    0.0000 H   0  0  0  0  0  0  0  0  0  0  0  0
    9.9320    3.4608    0.0000 H   0  0  0  0  0  0  0  0  0  0  0  0
    9.0705    3.2978    0.0000 H   0  0  0  0  0  0  0  0  0  0  0  0
    4.7108    0.5294    0.0000 H   0  0  0  0  0  0  0  0  0  0  0  0
    3.9330    0.3551    0.0000 H   0  0  0  0  0  0  0  0  0  0  0  0
   13.4281    0.2442    0.0000 H   0  0  0  0  0  0  0  0  0  0  0  0
   13.0574   -1.3798    0.0000 H   0  0  0  0  0  0  0  0  0  0  0  0
    5.5158   -0.9246    0.0000 H   0  0  0  0  0  0  0  0  0  0  0  0
    2.6000    0.2049    0.0000 H   0  0  0  0  0  0  0  0  0  0  0  0
    3.3088   -2.9566    0.0000 H   0  0  0  0  0  0  0  0  0  0  0  0
    1.4083   -0.8924    0.0000 H   0  0  0  0  0  0  0  0  0  0  0  0
    1.7626   -2.4732    0.0000 H   0  0  0  0  0  0  0  0  0  0  0  0
    4.4770   -3.0842    0.0000 H   0  0  0  0  0  0  0  0  0  0  0  0
    5.2177   -3.5535    0.0000 H   0  0  0  0  0  0  0  0  0  0  0  0
    5.6870   -2.8129    0.0000 H   0  0  0  0  0  0  0  0  0  0  0  0
  1  3  2  0  0  0  0
  1  9  1  0  0  0  0
  1 12  1  0  0  0  0
  2 13  2  0  0  0  0
  4 21  2  0  0  0  0
  5 26  1  0  0  0  0
  5 31  1  0  0  0  0
  6  8  1  0  0  0  0
  6 11  1  0  0  0  0
  6 13  1  0  0  0  0
  7 21  1  0  0  0  0
  7 24  1  0  0  0  0
  7 46  1  0  0  0  0
  8  9  2  0  0  0  0
  8 14  1  0  0  0  0
  9 16  1  0  0  0  0
 10 12  1  0  0  0  0
 10 13  1  0  0  0  0
 10 18  2  0  0  0  0
 11 20  1  0  0  0  0
 11 32  1  0  0  0  0
 11 33  1  0  0  0  0
 12 19  2  0  0  0  0
 14 15  2  0  0  0  0
 14 34  1  0  0  0  0
 15 17  1  0  0  0  0
 15 21  1  0  0  0  0
 16 17  2  0  0  0  0
 16 35  1  0  0  0  0
 17 36  1  0  0  0  0
 18 22  1  0  0  0  0
 18 37  1  0  0  0  0
 19 23  1  0  0  0  0
 19 38  1  0  0  0  0
 20 39  1  0  0  0  0
 20 40  1  0  0  0  0
 20 41  1  0  0  0  0
 22 23  2  0  0  0  0
 22 44  1  0  0  0  0
 23 45  1  0  0  0  0
 24 25  1  0  0  0  0
 24 42  1  0  0  0  0
 24 43  1  0  0  0  0
 25 26  1  0  0  0  0
 25 27  2  0  0  0  0
 26 28  2  0  0  0  0
 27 29  1  0  0  0  0
 27 47  1  0  0  0  0
 28 30  1  0  0  0  0
 28 48  1  0  0  0  0
 29 30  2  0  0  0  0
 29 49  1  0  0  0  0
 30 50  1  0  0  0  0
 31 51  1  0  0  0  0
 31 52  1  0  0  0  0
 31 53  1  0  0  0  0
M  END
> <PUBCHEM_COMPOUND_CID>
16007818

> <PUBCHEM_COMPOUND_CANONICALIZED>
1

> <PUBCHEM_CACTVS_COMPLEXITY>
687

> <PUBCHEM_CACTVS_HBOND_ACCEPTOR>
5

> <PUBCHEM_CACTVS_HBOND_DONOR>
1

> <PUBCHEM_CACTVS_ROTATABLE_BOND>
5

> <PUBCHEM_CACTVS_SUBSKEYS>
AAADceB7OABAAAAAAAAAAAAAAAAAAAAAAAAwYMAABYAAAAABUAAAHgQQAAAADAzB2AYyx4PABAqIAiVSUEDCCAAlKhAIiJ0ObMgMJjLktZuEMShmxhHo6YecyCCOEAAAQAAMAQAgAACAABgCAAAAAAAAAA==

> <PUBCHEM_IUPAC_OPENEYE_NAME>
5-ethyl-N-[(2-methoxyphenyl)methyl]-6,11-dioxo-benzo[b][1,4]benzothiazepine-3-carboxamide

> <PUBCHEM_IUPAC_CAS_NAME>
5-ethyl-N-[(2-methoxyphenyl)methyl]-6,11-dioxo-3-benzo[b][1,4]benzothiazepinecarboxamide

> <PUBCHEM_IUPAC_NAME_MARKUP>
5-ethyl-<I>N</I>-[(2-methoxyphenyl)methyl]-6,11-dioxobenzo[b][1,4]benzothiazepine-3-carboxamide

> <PUBCHEM_IUPAC_NAME>
5-ethyl-N-[(2-methoxyphenyl)methyl]-6,11-dioxobenzo[b][1,4]benzothiazepine-3-carboxamide

> <PUBCHEM_IUPAC_SYSTEMATIC_NAME>
5-ethyl-N-[(2-methoxyphenyl)methyl]-6,11-bis(oxidanylidene)benzo[b][1,4]benzothiazepine-3-carboxamide

> <PUBCHEM_IUPAC_TRADITIONAL_NAME>
5-ethyl-6,11-diketo-N-o-anisyl-benzo[b][1,4]benzothiazepine-3-carboxamide

> <PUBCHEM_IUPAC_INCHI>
InChI=1S/C24H22N2O4S/c1-3-26-19-14-16(23(27)25-15-17-8-4-6-10-20(17)30-2)12-13-22(19)31(29)21-11-7-5-9-18(21)24(26)28/h4-14H,3,15H2,1-2H3,(H,25,27)

> <PUBCHEM_IUPAC_INCHIKEY>
JBQOQPITCJDIJI-UHFFFAOYSA-N

> <PUBCHEM_XLOGP3_AA>
2.9

> <PUBCHEM_EXACT_MASS>
434.13002836

> <PUBCHEM_MOLECULAR_FORMULA>
C24H22N2O4S

> <PUBCHEM_MOLECULAR_WEIGHT>
434.5

> <PUBCHEM_OPENEYE_CAN_SMILES>
CCN1C2=C(C=CC(=C2)C(=O)NCC3=CC=CC=C3OC)S(=O)C4=CC=CC=C4C1=O

> <PUBCHEM_OPENEYE_ISO_SMILES>
CCN1C2=C(C=CC(=C2)C(=O)NCC3=CC=CC=C3OC)S(=O)C4=CC=CC=C4C1=O

> <PUBCHEM_CACTVS_TPSA>
94.9

> <PUBCHEM_MONOISOTOPIC_WEIGHT>
434.13002836

> <PUBCHEM_TOTAL_CHARGE>
0

> <PUBCHEM_HEAVY_ATOM_COUNT>
31

> <PUBCHEM_ATOM_DEF_STEREO_COUNT>
0

> <PUBCHEM_ATOM_UDEF_STEREO_COUNT>
1

> <PUBCHEM_BOND_DEF_STEREO_COUNT>
0

> <PUBCHEM_BOND_UDEF_STEREO_COUNT>
0

> <PUBCHEM_ISOTOPIC_ATOM_COUNT>
0

> <PUBCHEM_COMPONENT_COUNT>
1

> <PUBCHEM_CACTVS_TAUTO_COUNT>
-1

> <PUBCHEM_COORDINATE_TYPE>
1
5
255

> <PUBCHEM_BONDANNOTATIONS>
1  12  3
10  12  8
10  18  8
12  19  8
14  15  8
15  17  8
16  17  8
18  22  8
19  23  8
22  23  8
25  26  8
25  27  8
26  28  8
27  29  8
28  30  8
29  30  8
8  14  8
8  9  8
9  16  8

$$$$
