45268333
  -OEChem-09292322282D

 54 57  0     1  0  0  0  0  0999 V2000
    2.0000   -3.9992    0.0000 Cl  0  0  0  0  0  0  0  0  0  0  0  0
   10.0138    4.1715    0.0000 O   0  0  0  0  0  0  0  0  0  0  0  0
    6.7286   -3.2337    0.0000 O   0  0  0  0  0  0  0  0  0  0  0  0
    8.4416    0.1844    0.0000 N   0  0  0  0  0  0  0  0  0  0  0  0
    6.3885   -1.4844    0.0000 N   0  0  0  0  0  0  0  0  0  0  0  0
    5.1135   -2.4806    0.0000 N   0  0  0  0  0  0  0  0  0  0  0  0
   10.4916    0.4909    0.0000 C   0  0  2  0  0  0  0  0  0  0  0  0
   10.7505    1.4568    0.0000 C   0  0  1  0  0  0  0  0  0  0  0  0
   10.0138    2.4394    0.0000 C   0  0  0  0  0  0  0  0  0  0  0  0
   11.8906   -0.0180    0.0000 C   0  0  0  0  0  0  0  0  0  0  0  0
   12.1494    0.9480    0.0000 C   0  0  0  0  0  0  0  0  0  0  0  0
    9.2706   -0.3748    0.0000 C   0  0  0  0  0  0  0  0  0  0  0  0
    8.7172    1.1457    0.0000 C   0  0  0  0  0  0  0  0  0  0  0  0
    9.5138    3.3054    0.0000 C   0  0  0  0  0  0  0  0  0  0  0  0
    7.5019   -0.1576    0.0000 C   0  0  0  0  0  0  0  0  0  0  0  0
    7.3282   -1.1424    0.0000 C   0  0  0  0  0  0  0  0  0  0  0  0
    5.5595   -0.9253    0.0000 C   0  0  0  0  0  0  0  0  0  0  0  0
    9.5138    5.0375    0.0000 C   0  0  0  0  0  0  0  0  0  0  0  0
    6.1129   -2.4457    0.0000 C   0  0  0  0  0  0  0  0  0  0  0  0
    4.7715   -1.5409    0.0000 C   0  0  0  0  0  0  0  0  0  0  0  0
    4.5543   -3.3096    0.0000 C   0  0  0  0  0  0  0  0  0  0  0  0
    3.5568   -3.2399    0.0000 C   0  0  0  0  0  0  0  0  0  0  0  0
    4.9927   -4.2084    0.0000 C   0  0  0  0  0  0  0  0  0  0  0  0
    2.9976   -4.0689    0.0000 C   0  0  0  0  0  0  0  0  0  0  0  0
    4.4335   -5.0375    0.0000 C   0  0  0  0  0  0  0  0  0  0  0  0
    3.4359   -4.9677    0.0000 C   0  0  0  0  0  0  0  0  0  0  0  0
   10.2716   -0.3302    0.0000 H   0  0  0  0  0  0  0  0  0  0  0  0
   10.9705    2.2778    0.0000 H   0  0  0  0  0  0  0  0  0  0  0  0
   10.5313    2.7810    0.0000 H   0  0  0  0  0  0  0  0  0  0  0  0
   11.6956   -0.6065    0.0000 H   0  0  0  0  0  0  0  0  0  0  0  0
   12.4845   -0.1957    0.0000 H   0  0  0  0  0  0  0  0  0  0  0  0
   12.7434    0.7702    0.0000 H   0  0  0  0  0  0  0  0  0  0  0  0
   12.3443    1.5365    0.0000 H   0  0  0  0  0  0  0  0  0  0  0  0
    8.8648   -0.8435    0.0000 H   0  0  0  0  0  0  0  0  0  0  0  0
    9.6873   -0.8339    0.0000 H   0  0  0  0  0  0  0  0  0  0  0  0
    8.7122    1.7656    0.0000 H   0  0  0  0  0  0  0  0  0  0  0  0
    8.1029    1.2294    0.0000 H   0  0  0  0  0  0  0  0  0  0  0  0
    9.0389    3.7040    0.0000 H   0  0  0  0  0  0  0  0  0  0  0  0
    9.0389    2.9069    0.0000 H   0  0  0  0  0  0  0  0  0  0  0  0
    7.3942    0.4530    0.0000 H   0  0  0  0  0  0  0  0  0  0  0  0
    6.8819   -0.1576    0.0000 H   0  0  0  0  0  0  0  0  0  0  0  0
    7.4359   -1.7530    0.0000 H   0  0  0  0  0  0  0  0  0  0  0  0
    7.9482   -1.1424    0.0000 H   0  0  0  0  0  0  0  0  0  0  0  0
    5.9580   -0.4503    0.0000 H   0  0  0  0  0  0  0  0  0  0  0  0
    5.1288   -0.4793    0.0000 H   0  0  0  0  0  0  0  0  0  0  0  0
   10.0508    5.3475    0.0000 H   0  0  0  0  0  0  0  0  0  0  0  0
    9.2038    5.5744    0.0000 H   0  0  0  0  0  0  0  0  0  0  0  0
    8.9769    4.7275    0.0000 H   0  0  0  0  0  0  0  0  0  0  0  0
    4.4429   -1.0151    0.0000 H   0  0  0  0  0  0  0  0  0  0  0  0
    4.2142   -1.8127    0.0000 H   0  0  0  0  0  0  0  0  0  0  0  0
    3.2850   -2.6826    0.0000 H   0  0  0  0  0  0  0  0  0  0  0  0
    5.6112   -4.2517    0.0000 H   0  0  0  0  0  0  0  0  0  0  0  0
    4.7053   -5.5947    0.0000 H   0  0  0  0  0  0  0  0  0  0  0  0
    3.0892   -5.4817    0.0000 H   0  0  0  0  0  0  0  0  0  0  0  0
  1 24  1  0  0  0  0
  2 14  1  0  0  0  0
  2 18  1  0  0  0  0
  3 19  2  0  0  0  0
  4 12  1  0  0  0  0
  4 13  1  0  0  0  0
  4 15  1  0  0  0  0
  5 16  1  0  0  0  0
  5 17  1  0  0  0  0
  5 19  1  0  0  0  0
  6 19  1  0  0  0  0
  6 20  1  0  0  0  0
  6 21  1  0  0  0  0
  7  9  1  0  0  0  0
  7 10  1  0  0  0  0
  7 12  1  0  0  0  0
  7 27  1  1  0  0  0
  8  9  1  0  0  0  0
  8 11  1  0  0  0  0
  8 13  1  0  0  0  0
  8 28  1  6  0  0  0
  9 14  1  0  0  0  0
  9 29  1  0  0  0  0
 10 11  1  0  0  0  0
 10 30  1  0  0  0  0
 10 31  1  0  0  0  0
 11 32  1  0  0  0  0
 11 33  1  0  0  0  0
 12 34  1  0  0  0  0
 12 35  1  0  0  0  0
 13 36  1  0  0  0  0
 13 37  1  0  0  0  0
 14 38  1  0  0  0  0
 14 39  1  0  0  0  0
 15 16  1  0  0  0  0
 15 40  1  0  0  0  0
 15 41  1  0  0  0  0
 16 42  1  0  0  0  0
 16 43  1  0  0  0  0
 17 20  1  0  0  0  0
 17 44  1  0  0  0  0
 17 45  1  0  0  0  0
 18 46  1  0  0  0  0
 18 47  1  0  0  0  0
 18 48  1  0  0  0  0
 20 49  1  0  0  0  0
 20 50  1  0  0  0  0
 21 22  2  0  0  0  0
 21 23  1  0  0  0  0
 22 24  1  0  0  0  0
 22 51  1  0  0  0  0
 23 25  2  0  0  0  0
 23 52  1  0  0  0  0
 24 26  2  0  0  0  0
 25 26  1  0  0  0  0
 25 53  1  0  0  0  0
 26 54  1  0  0  0  0
M  END
> <PUBCHEM_COMPOUND_CID>
45268333

> <PUBCHEM_COMPOUND_CANONICALIZED>
1

> <PUBCHEM_CACTVS_COMPLEXITY>
491

> <PUBCHEM_CACTVS_HBOND_ACCEPTOR>
3

> <PUBCHEM_CACTVS_HBOND_DONOR>
0

> <PUBCHEM_CACTVS_ROTATABLE_BOND>
6

> <PUBCHEM_CACTVS_SUBSKEYS>
AAADceB7MAAEAAAAAAAAAAAAAAAAAeIAAAA8QAAABYAAAAABAAAAHgIAAAAADQrhkCYzwIMABACIACRCUACCAAAhBwAIiAAIZoiIYCLBk5GUIAhshgLIyCewwCAOgAAAAAIAAAAAAAAABAAAAQAACAAAAA==

> <PUBCHEM_IUPAC_OPENEYE_NAME>
1-(3-chlorophenyl)-3-[2-[(1S,5R)-8-(methoxymethyl)-3-azabicyclo[3.2.1]octan-3-yl]ethyl]imidazolidin-2-one

> <PUBCHEM_IUPAC_CAS_NAME>
1-(3-chlorophenyl)-3-[2-[(1S,5R)-8-(methoxymethyl)-3-azabicyclo[3.2.1]octan-3-yl]ethyl]-2-imidazolidinone

> <PUBCHEM_IUPAC_NAME_MARKUP>
1-(3-chlorophenyl)-3-[2-[(1<I>S</I>,5<I>R</I>)-8-(methoxymethyl)-3-azabicyclo[3.2.1]octan-3-yl]ethyl]imidazolidin-2-one

> <PUBCHEM_IUPAC_NAME>
1-(3-chlorophenyl)-3-[2-[(1S,5R)-8-(methoxymethyl)-3-azabicyclo[3.2.1]octan-3-yl]ethyl]imidazolidin-2-one

> <PUBCHEM_IUPAC_SYSTEMATIC_NAME>
1-(3-chlorophenyl)-3-[2-[(1S,5R)-8-(methoxymethyl)-3-azabicyclo[3.2.1]octan-3-yl]ethyl]imidazolidin-2-one

> <PUBCHEM_IUPAC_TRADITIONAL_NAME>
1-(3-chlorophenyl)-3-[2-[(1S,5R)-8-(methoxymethyl)-3-azabicyclo[3.2.1]octan-3-yl]ethyl]-2-imidazolidinone

> <PUBCHEM_IUPAC_INCHI>
InChI=1S/C20H28ClN3O2/c1-26-14-19-15-5-6-16(19)13-22(12-15)7-8-23-9-10-24(20(23)25)18-4-2-3-17(21)11-18/h2-4,11,15-16,19H,5-10,12-14H2,1H3/t15-,16+,19?

> <PUBCHEM_IUPAC_INCHIKEY>
JATQVZAOCJUHTI-MCPYQZEQSA-N

> <PUBCHEM_XLOGP3_AA>
2.6

> <PUBCHEM_EXACT_MASS>
377.1870048

> <PUBCHEM_MOLECULAR_FORMULA>
C20H28ClN3O2

> <PUBCHEM_MOLECULAR_WEIGHT>
377.9

> <PUBCHEM_OPENEYE_CAN_SMILES>
COCC1C2CCC1CN(C2)CCN3CCN(C3=O)C4=CC(=CC=C4)Cl

> <PUBCHEM_OPENEYE_ISO_SMILES>
COCC1[C@@H]2CC[C@H]1CN(C2)CCN3CCN(C3=O)C4=CC(=CC=C4)Cl

> <PUBCHEM_CACTVS_TPSA>
36

> <PUBCHEM_MONOISOTOPIC_WEIGHT>
377.1870048

> <PUBCHEM_TOTAL_CHARGE>
0

> <PUBCHEM_HEAVY_ATOM_COUNT>
26

> <PUBCHEM_ATOM_DEF_STEREO_COUNT>
2

> <PUBCHEM_ATOM_UDEF_STEREO_COUNT>
0

> <PUBCHEM_BOND_DEF_STEREO_COUNT>
0

> <PUBCHEM_BOND_UDEF_STEREO_COUNT>
0

> <PUBCHEM_ISOTOPIC_ATOM_COUNT>
0

> <PUBCHEM_COMPONENT_COUNT>
1

> <PUBCHEM_CACTVS_TAUTO_COUNT>
-1

> <PUBCHEM_COORDINATE_TYPE>
1
5
255

> <PUBCHEM_BONDANNOTATIONS>
21  22  8
21  23  8
22  24  8
23  25  8
24  26  8
25  26  8
7  27  5
8  28  6

$$$$
