11709500
  -OEChem-09292322492D

 46 49  0     1  0  0  0  0  0999 V2000
    7.9244    0.3551    0.0000 O   0  0  0  0  0  0  0  0  0  0  0  0
    6.2781    0.8932    0.0000 N   0  0  0  0  0  0  0  0  0  0  0  0
    4.6783   -2.8236    0.0000 N   0  0  0  0  0  0  0  0  0  0  0  0
    7.5673    2.0499    0.0000 C   0  0  3  0  0  0  0  0  0  0  0  0
    6.8994    2.7942    0.0000 C   0  0  0  0  0  0  0  0  0  0  0  0
    5.9209    2.5880    0.0000 C   0  0  0  0  0  0  0  0  0  0  0  0
    5.6103    1.6375    0.0000 C   0  0  0  0  0  0  0  0  0  0  0  0
    7.2566    1.0994    0.0000 C   0  0  0  0  0  0  0  0  0  0  0  0
    5.9674   -0.0573    0.0000 C   0  0  0  0  0  0  0  0  0  0  0  0
    8.5458    2.2561    0.0000 C   0  0  0  0  0  0  0  0  0  0  0  0
    4.9889   -0.2636    0.0000 C   0  0  0  0  0  0  0  0  0  0  0  0
    4.6783   -1.2141    0.0000 C   0  0  0  0  0  0  0  0  0  0  0  0
    3.7320   -1.5188    0.0000 C   0  0  0  0  0  0  0  0  0  0  0  0
    8.8564    3.2066    0.0000 C   0  0  0  0  0  0  0  0  0  0  0  0
    9.2136    1.5118    0.0000 C   0  0  0  0  0  0  0  0  0  0  0  0
    5.2619   -2.0188    0.0000 C   0  0  0  0  0  0  0  0  0  0  0  0
    3.7320   -2.5188    0.0000 C   0  0  0  0  0  0  0  0  0  0  0  0
    2.8660   -1.0188    0.0000 C   0  0  0  0  0  0  0  0  0  0  0  0
    9.8349    3.4129    0.0000 C   0  0  0  0  0  0  0  0  0  0  0  0
   10.1921    1.7180    0.0000 C   0  0  0  0  0  0  0  0  0  0  0  0
    2.8660   -3.0188    0.0000 C   0  0  0  0  0  0  0  0  0  0  0  0
   10.5028    2.6686    0.0000 C   0  0  0  0  0  0  0  0  0  0  0  0
    2.0000   -1.5188    0.0000 C   0  0  0  0  0  0  0  0  0  0  0  0
    2.0000   -2.5188    0.0000 C   0  0  0  0  0  0  0  0  0  0  0  0
    7.9813    1.5884    0.0000 H   0  0  0  0  0  0  0  0  0  0  0  0
    7.4258    3.1219    0.0000 H   0  0  0  0  0  0  0  0  0  0  0  0
    6.6682    3.3695    0.0000 H   0  0  0  0  0  0  0  0  0  0  0  0
    5.9004    3.2077    0.0000 H   0  0  0  0  0  0  0  0  0  0  0  0
    5.3071    2.6754    0.0000 H   0  0  0  0  0  0  0  0  0  0  0  0
    5.0633    1.9295    0.0000 H   0  0  0  0  0  0  0  0  0  0  0  0
    5.2277    1.1496    0.0000 H   0  0  0  0  0  0  0  0  0  0  0  0
    5.9880   -0.6770    0.0000 H   0  0  0  0  0  0  0  0  0  0  0  0
    6.5812   -0.1447    0.0000 H   0  0  0  0  0  0  0  0  0  0  0  0
    4.9684    0.3561    0.0000 H   0  0  0  0  0  0  0  0  0  0  0  0
    4.3751   -0.1762    0.0000 H   0  0  0  0  0  0  0  0  0  0  0  0
    8.4424    3.6681    0.0000 H   0  0  0  0  0  0  0  0  0  0  0  0
    9.0210    0.9225    0.0000 H   0  0  0  0  0  0  0  0  0  0  0  0
    5.8819   -2.0188    0.0000 H   0  0  0  0  0  0  0  0  0  0  0  0
    4.8709   -3.4129    0.0000 H   0  0  0  0  0  0  0  0  0  0  0  0
    2.8660   -0.3988    0.0000 H   0  0  0  0  0  0  0  0  0  0  0  0
   10.0276    4.0022    0.0000 H   0  0  0  0  0  0  0  0  0  0  0  0
   10.6062    1.2566    0.0000 H   0  0  0  0  0  0  0  0  0  0  0  0
    2.8660   -3.6388    0.0000 H   0  0  0  0  0  0  0  0  0  0  0  0
   11.1095    2.7964    0.0000 H   0  0  0  0  0  0  0  0  0  0  0  0
    1.4631   -1.2088    0.0000 H   0  0  0  0  0  0  0  0  0  0  0  0
    1.4631   -2.8288    0.0000 H   0  0  0  0  0  0  0  0  0  0  0  0
  1  8  2  0  0  0  0
  2  7  1  0  0  0  0
  2  8  1  0  0  0  0
  2  9  1  0  0  0  0
  3 16  1  0  0  0  0
  3 17  1  0  0  0  0
  3 39  1  0  0  0  0
  4  5  1  0  0  0  0
  4  8  1  0  0  0  0
  4 10  1  0  0  0  0
  4 25  1  0  0  0  0
  5  6  1  0  0  0  0
  5 26  1  0  0  0  0
  5 27  1  0  0  0  0
  6  7  1  0  0  0  0
  6 28  1  0  0  0  0
  6 29  1  0  0  0  0
  7 30  1  0  0  0  0
  7 31  1  0  0  0  0
  9 11  1  0  0  0  0
  9 32  1  0  0  0  0
  9 33  1  0  0  0  0
 10 14  2  0  0  0  0
 10 15  1  0  0  0  0
 11 12  1  0  0  0  0
 11 34  1  0  0  0  0
 11 35  1  0  0  0  0
 12 13  1  0  0  0  0
 12 16  2  0  0  0  0
 13 17  1  0  0  0  0
 13 18  2  0  0  0  0
 14 19  1  0  0  0  0
 14 36  1  0  0  0  0
 15 20  2  0  0  0  0
 15 37  1  0  0  0  0
 16 38  1  0  0  0  0
 17 21  2  0  0  0  0
 18 23  1  0  0  0  0
 18 40  1  0  0  0  0
 19 22  2  0  0  0  0
 19 41  1  0  0  0  0
 20 22  1  0  0  0  0
 20 42  1  0  0  0  0
 21 24  1  0  0  0  0
 21 43  1  0  0  0  0
 22 44  1  0  0  0  0
 23 24  2  0  0  0  0
 23 45  1  0  0  0  0
 24 46  1  0  0  0  0
M  END
> <PUBCHEM_COMPOUND_CID>
11709500

> <PUBCHEM_COMPOUND_CANONICALIZED>
1

> <PUBCHEM_CACTVS_COMPLEXITY>
432

> <PUBCHEM_CACTVS_HBOND_ACCEPTOR>
1

> <PUBCHEM_CACTVS_HBOND_DONOR>
1

> <PUBCHEM_CACTVS_ROTATABLE_BOND>
4

> <PUBCHEM_CACTVS_SUBSKEYS>
AAADceB7IAAAAAAAAAAAAAAAAAAAAWAAAAA8YIAAAAAAAFgB9AAAHgAQAAAADQjBngQ8wPPJkACoAzV3VACCgCAxAiAI2aE4ZJgIIPLAlZGEIAhglgDIyAcYicCOgAAAAAACAAAAAAAAAAQAAAAAAAAAAA==

> <PUBCHEM_IUPAC_OPENEYE_NAME>
1-[2-(1H-indol-3-yl)ethyl]-3-phenyl-piperidin-2-one

> <PUBCHEM_IUPAC_CAS_NAME>
1-[2-(1H-indol-3-yl)ethyl]-3-phenyl-2-piperidinone

> <PUBCHEM_IUPAC_NAME_MARKUP>
1-[2-(1<I>H</I>-indol-3-yl)ethyl]-3-phenylpiperidin-2-one

> <PUBCHEM_IUPAC_NAME>
1-[2-(1H-indol-3-yl)ethyl]-3-phenylpiperidin-2-one

> <PUBCHEM_IUPAC_SYSTEMATIC_NAME>
1-[2-(1H-indol-3-yl)ethyl]-3-phenyl-piperidin-2-one

> <PUBCHEM_IUPAC_TRADITIONAL_NAME>
1-[2-(1H-indol-3-yl)ethyl]-3-phenyl-2-piperidone

> <PUBCHEM_IUPAC_INCHI>
InChI=1S/C21H22N2O/c24-21-19(16-7-2-1-3-8-16)10-6-13-23(21)14-12-17-15-22-20-11-5-4-9-18(17)20/h1-5,7-9,11,15,19,22H,6,10,12-14H2

> <PUBCHEM_IUPAC_INCHIKEY>
BHZIBLVRNQOXJN-UHFFFAOYSA-N

> <PUBCHEM_XLOGP3_AA>
3.9

> <PUBCHEM_EXACT_MASS>
318.173213330

> <PUBCHEM_MOLECULAR_FORMULA>
C21H22N2O

> <PUBCHEM_MOLECULAR_WEIGHT>
318.4

> <PUBCHEM_OPENEYE_CAN_SMILES>
C1CC(C(=O)N(C1)CCC2=CNC3=CC=CC=C32)C4=CC=CC=C4

> <PUBCHEM_OPENEYE_ISO_SMILES>
C1CC(C(=O)N(C1)CCC2=CNC3=CC=CC=C32)C4=CC=CC=C4

> <PUBCHEM_CACTVS_TPSA>
36.1

> <PUBCHEM_MONOISOTOPIC_WEIGHT>
318.173213330

> <PUBCHEM_TOTAL_CHARGE>
0

> <PUBCHEM_HEAVY_ATOM_COUNT>
24

> <PUBCHEM_ATOM_DEF_STEREO_COUNT>
0

> <PUBCHEM_ATOM_UDEF_STEREO_COUNT>
1

> <PUBCHEM_BOND_DEF_STEREO_COUNT>
0

> <PUBCHEM_BOND_UDEF_STEREO_COUNT>
0

> <PUBCHEM_ISOTOPIC_ATOM_COUNT>
0

> <PUBCHEM_COMPONENT_COUNT>
1

> <PUBCHEM_CACTVS_TAUTO_COUNT>
-1

> <PUBCHEM_COORDINATE_TYPE>
1
5
255

> <PUBCHEM_BONDANNOTATIONS>
10  14  8
10  15  8
12  13  8
12  16  8
13  17  8
13  18  8
14  19  8
15  20  8
17  21  8
18  23  8
19  22  8
20  22  8
21  24  8
23  24  8
3  16  8
3  17  8
4  10  3

$$$$
