44344506
  -OEChem-09292322512D

 46 50  0     1  0  0  0  0  0999 V2000
    5.5138    1.7484    0.0000 O   0  0  0  0  0  0  0  0  0  0  0  0
    8.9864   -1.2831    0.0000 N   0  0  3  0  0  0  0  0  0  0  0  0
    8.1282   -0.7862    0.0000 C   0  0  1  0  0  0  0  0  0  0  0  0
    8.1282    0.2138    0.0000 C   0  0  0  0  0  0  0  0  0  0  0  0
    7.2622   -1.2862    0.0000 C   0  0  0  0  0  0  0  0  0  0  0  0
    9.0382    0.7207    0.0000 C   0  0  0  0  0  0  0  0  0  0  0  0
    9.8519   -0.7989    0.0000 C   0  0  0  0  0  0  0  0  0  0  0  0
    7.2622    0.7138    0.0000 C   0  0  0  0  0  0  0  0  0  0  0  0
    9.8775    0.1924    0.0000 C   0  0  0  0  0  0  0  0  0  0  0  0
    6.3961   -0.7862    0.0000 C   0  0  0  0  0  0  0  0  0  0  0  0
    6.3961    0.2138    0.0000 C   0  0  0  0  0  0  0  0  0  0  0  0
    8.9790   -2.2831    0.0000 C   0  0  0  0  0  0  0  0  0  0  0  0
    9.0462    1.7623    0.0000 C   0  0  0  0  0  0  0  0  0  0  0  0
    7.2461    1.7553    0.0000 C   0  0  0  0  0  0  0  0  0  0  0  0
    5.5022    0.7485    0.0000 C   0  0  0  0  0  0  0  0  0  0  0  0
    5.5022   -1.3208    0.0000 C   0  0  0  0  0  0  0  0  0  0  0  0
    8.1441    2.2831    0.0000 C   0  0  0  0  0  0  0  0  0  0  0  0
    4.5961    0.2346    0.0000 C   0  0  0  0  0  0  0  0  0  0  0  0
    4.5961   -0.8070    0.0000 C   0  0  0  0  0  0  0  0  0  0  0  0
    3.7320    0.7380    0.0000 C   0  0  0  0  0  0  0  0  0  0  0  0
    2.8641    0.2413    0.0000 C   0  0  0  0  0  0  0  0  0  0  0  0
    3.7359    1.7380    0.0000 C   0  0  0  0  0  0  0  0  0  0  0  0
    2.0000    0.7446    0.0000 C   0  0  0  0  0  0  0  0  0  0  0  0
    2.8718    2.2413    0.0000 C   0  0  0  0  0  0  0  0  0  0  0  0
    2.0038    1.7446    0.0000 C   0  0  0  0  0  0  0  0  0  0  0  0
    8.1277   -1.6362    0.0000 H   0  0  0  0  0  0  0  0  0  0  0  0
    6.8636   -1.7611    0.0000 H   0  0  0  0  0  0  0  0  0  0  0  0
    7.6607   -1.7611    0.0000 H   0  0  0  0  0  0  0  0  0  0  0  0
   10.0536   -1.3852    0.0000 H   0  0  0  0  0  0  0  0  0  0  0  0
   10.4647   -0.7046    0.0000 H   0  0  0  0  0  0  0  0  0  0  0  0
   10.4846    0.0665    0.0000 H   0  0  0  0  0  0  0  0  0  0  0  0
   10.1093    0.7675    0.0000 H   0  0  0  0  0  0  0  0  0  0  0  0
    8.3590   -2.2785    0.0000 H   0  0  0  0  0  0  0  0  0  0  0  0
    8.9744   -2.9031    0.0000 H   0  0  0  0  0  0  0  0  0  0  0  0
    9.5990   -2.2877    0.0000 H   0  0  0  0  0  0  0  0  0  0  0  0
    9.5844    2.0702    0.0000 H   0  0  0  0  0  0  0  0  0  0  0  0
    6.7056    2.0591    0.0000 H   0  0  0  0  0  0  0  0  0  0  0  0
    5.5094   -1.9408    0.0000 H   0  0  0  0  0  0  0  0  0  0  0  0
    8.1418    2.9031    0.0000 H   0  0  0  0  0  0  0  0  0  0  0  0
    4.0604   -1.1191    0.0000 H   0  0  0  0  0  0  0  0  0  0  0  0
    4.9804    2.0646    0.0000 H   0  0  0  0  0  0  0  0  0  0  0  0
    2.8617   -0.3787    0.0000 H   0  0  0  0  0  0  0  0  0  0  0  0
    4.2740    2.0459    0.0000 H   0  0  0  0  0  0  0  0  0  0  0  0
    1.4619    0.4367    0.0000 H   0  0  0  0  0  0  0  0  0  0  0  0
    2.8742    2.8613    0.0000 H   0  0  0  0  0  0  0  0  0  0  0  0
    1.4681    2.0567    0.0000 H   0  0  0  0  0  0  0  0  0  0  0  0
  1 15  1  0  0  0  0
  1 41  1  0  0  0  0
  2  3  1  0  0  0  0
  2  7  1  0  0  0  0
  2 12  1  0  0  0  0
  3  4  1  0  0  0  0
  3  5  1  0  0  0  0
  3 26  1  1  0  0  0
  4  6  2  0  0  0  0
  4  8  1  0  0  0  0
  5 10  1  0  0  0  0
  5 27  1  0  0  0  0
  5 28  1  0  0  0  0
  6  9  1  0  0  0  0
  6 13  1  0  0  0  0
  7  9  1  0  0  0  0
  7 29  1  0  0  0  0
  7 30  1  0  0  0  0
  8 11  1  0  0  0  0
  8 14  2  0  0  0  0
  9 31  1  0  0  0  0
  9 32  1  0  0  0  0
 10 11  2  0  0  0  0
 10 16  1  0  0  0  0
 11 15  1  0  0  0  0
 12 33  1  0  0  0  0
 12 34  1  0  0  0  0
 12 35  1  0  0  0  0
 13 17  2  0  0  0  0
 13 36  1  0  0  0  0
 14 17  1  0  0  0  0
 14 37  1  0  0  0  0
 15 18  2  0  0  0  0
 16 19  2  0  0  0  0
 16 38  1  0  0  0  0
 17 39  1  0  0  0  0
 18 19  1  0  0  0  0
 18 20  1  0  0  0  0
 19 40  1  0  0  0  0
 20 21  2  0  0  0  0
 20 22  1  0  0  0  0
 21 23  1  0  0  0  0
 21 42  1  0  0  0  0
 22 24  2  0  0  0  0
 22 43  1  0  0  0  0
 23 25  2  0  0  0  0
 23 44  1  0  0  0  0
 24 25  1  0  0  0  0
 24 45  1  0  0  0  0
 25 46  1  0  0  0  0
M  END
> <PUBCHEM_COMPOUND_CID>
44344506

> <PUBCHEM_COMPOUND_CANONICALIZED>
1

> <PUBCHEM_CACTVS_COMPLEXITY>
473

> <PUBCHEM_CACTVS_HBOND_ACCEPTOR>
2

> <PUBCHEM_CACTVS_HBOND_DONOR>
1

> <PUBCHEM_CACTVS_ROTATABLE_BOND>
1

> <PUBCHEM_CACTVS_SUBSKEYS>
AAADceB6IAAAAAAAAAAAAAAAAAAAAAAAAAA8YMGCAAAAAADxUAAAHgAACAAADCzBmAQyBoMAAgCAAiBCAACCAAAgIAAIiAAMDIgIJiKCkROEcAhkwBGImAeQ0PMOwAADAAAYAACQAAaAADQAAAAAAAAAAA==

> <PUBCHEM_IUPAC_OPENEYE_NAME>
(6aR)-6-methyl-10-phenyl-5,6,6a,7-tetrahydro-4H-dibenzo[de,g]quinolin-11-ol

> <PUBCHEM_IUPAC_CAS_NAME>
(6aR)-6-methyl-10-phenyl-5,6,6a,7-tetrahydro-4H-dibenzo[de,g]quinolin-11-ol

> <PUBCHEM_IUPAC_NAME_MARKUP>
(6<I>a</I><I>R</I>)-6-methyl-10-phenyl-5,6,6<I>a</I>,7-tetrahydro-4<I>H</I>-dibenzo[de,g]quinolin-11-ol

> <PUBCHEM_IUPAC_NAME>
(6aR)-6-methyl-10-phenyl-5,6,6a,7-tetrahydro-4H-dibenzo[de,g]quinolin-11-ol

> <PUBCHEM_IUPAC_SYSTEMATIC_NAME>
(6aR)-6-methyl-10-phenyl-5,6,6a,7-tetrahydro-4H-dibenzo[de,g]quinolin-11-ol

> <PUBCHEM_IUPAC_TRADITIONAL_NAME>
(6aR)-6-methyl-10-phenyl-5,6,6a,7-tetrahydro-4H-dibenzo[de,g]quinolin-11-ol

> <PUBCHEM_IUPAC_INCHI>
InChI=1S/C23H21NO/c1-24-13-12-16-8-5-9-19-21(16)20(24)14-17-10-11-18(23(25)22(17)19)15-6-3-2-4-7-15/h2-11,20,25H,12-14H2,1H3/t20-/m1/s1

> <PUBCHEM_IUPAC_INCHIKEY>
VEPWAMNFYDUZFF-HXUWFJFHSA-N

> <PUBCHEM_XLOGP3>
4.3

> <PUBCHEM_EXACT_MASS>
327.162314293

> <PUBCHEM_MOLECULAR_FORMULA>
C23H21NO

> <PUBCHEM_MOLECULAR_WEIGHT>
327.4

> <PUBCHEM_OPENEYE_CAN_SMILES>
CN1CCC2=C3C1CC4=C(C3=CC=C2)C(=C(C=C4)C5=CC=CC=C5)O

> <PUBCHEM_OPENEYE_ISO_SMILES>
CN1CCC2=C3[C@H]1CC4=C(C3=CC=C2)C(=C(C=C4)C5=CC=CC=C5)O

> <PUBCHEM_CACTVS_TPSA>
23.5

> <PUBCHEM_MONOISOTOPIC_WEIGHT>
327.162314293

> <PUBCHEM_TOTAL_CHARGE>
0

> <PUBCHEM_HEAVY_ATOM_COUNT>
25

> <PUBCHEM_ATOM_DEF_STEREO_COUNT>
1

> <PUBCHEM_ATOM_UDEF_STEREO_COUNT>
0

> <PUBCHEM_BOND_DEF_STEREO_COUNT>
0

> <PUBCHEM_BOND_UDEF_STEREO_COUNT>
0

> <PUBCHEM_ISOTOPIC_ATOM_COUNT>
0

> <PUBCHEM_COMPONENT_COUNT>
1

> <PUBCHEM_CACTVS_TAUTO_COUNT>
-1

> <PUBCHEM_COORDINATE_TYPE>
1
5
255

> <PUBCHEM_BONDANNOTATIONS>
10  11  8
10  16  8
11  15  8
13  17  8
14  17  8
15  18  8
16  19  8
18  19  8
20  21  8
20  22  8
21  23  8
22  24  8
23  25  8
24  25  8
3  26  5
4  6  8
4  8  8
6  13  8
8  14  8

$$$$
