9928417
  -OEChem-09292322032D

 45 47  0     1  0  0  0  0  0999 V2000
    3.4550    0.0000    0.0000 Cl  0  0  0  0  0  0  0  0  0  0  0  0
    3.7036    8.8745    0.0000 S   0  0  0  0  0  0  0  0  0  0  0  0
    3.6594    3.9328    0.0000 O   0  0  0  0  0  0  0  0  0  0  0  0
    5.4627    2.8730    0.0000 O   0  0  0  0  0  0  0  0  0  0  0  0
    6.3819    8.5697    0.0000 N   0  0  0  0  0  0  0  0  0  0  0  0
    5.5158    7.0697    0.0000 C   0  0  1  0  0  0  0  0  0  0  0  0
    6.3819    7.5697    0.0000 C   0  0  2  0  0  0  0  0  0  0  0  0
    7.2919    7.0629    0.0000 C   0  0  0  0  0  0  0  0  0  0  0  0
    4.6498    7.5697    0.0000 C   0  0  0  0  0  0  0  0  0  0  0  0
    5.4998    6.0282    0.0000 C   0  0  0  0  0  0  0  0  0  0  0  0
    7.2999    6.0213    0.0000 C   0  0  0  0  0  0  0  0  0  0  0  0
    6.3978    5.5005    0.0000 C   0  0  0  0  0  0  0  0  0  0  0  0
    4.6498    8.5697    0.0000 C   0  0  0  0  0  0  0  0  0  0  0  0
    5.5158    9.0697    0.0000 C   0  0  0  0  0  0  0  0  0  0  0  0
    3.7036    7.2650    0.0000 C   0  0  0  0  0  0  0  0  0  0  0  0
    4.5479    5.5076    0.0000 C   0  0  0  0  0  0  0  0  0  0  0  0
    3.1200    8.0697    0.0000 C   0  0  0  0  0  0  0  0  0  0  0  0
    6.4062    4.4155    0.0000 C   0  0  0  0  0  0  0  0  0  0  0  0
    4.5311    4.4227    0.0000 C   0  0  0  0  0  0  0  0  0  0  0  0
    2.1200    8.0697    0.0000 C   0  0  0  0  0  0  0  0  0  0  0  0
    5.4666    3.8730    0.0000 C   0  0  0  0  0  0  0  0  0  0  0  0
    1.6200    8.9358    0.0000 C   0  0  0  0  0  0  0  0  0  0  0  0
    0.6200    8.9358    0.0000 C   0  0  0  0  0  0  0  0  0  0  0  0
    4.7765    6.6504    0.0000 H   0  0  0  0  0  0  0  0  0  0  0  0
    7.1147    8.0004    0.0000 H   0  0  0  0  0  0  0  0  0  0  0  0
    7.9035    6.9615    0.0000 H   0  0  0  0  0  0  0  0  0  0  0  0
    7.4964    7.6482    0.0000 H   0  0  0  0  0  0  0  0  0  0  0  0
    7.5135    5.4392    0.0000 H   0  0  0  0  0  0  0  0  0  0  0  0
    7.9099    6.1321    0.0000 H   0  0  0  0  0  0  0  0  0  0  0  0
    6.9188    8.8797    0.0000 H   0  0  0  0  0  0  0  0  0  0  0  0
    5.9144    9.5447    0.0000 H   0  0  0  0  0  0  0  0  0  0  0  0
    5.1173    9.5447    0.0000 H   0  0  0  0  0  0  0  0  0  0  0  0
    3.5110    6.6757    0.0000 H   0  0  0  0  0  0  0  0  0  0  0  0
    4.0170    5.8279    0.0000 H   0  0  0  0  0  0  0  0  0  0  0  0
    6.9443    4.1076    0.0000 H   0  0  0  0  0  0  0  0  0  0  0  0
    1.5374    7.8577    0.0000 H   0  0  0  0  0  0  0  0  0  0  0  0
    2.2277    7.4592    0.0000 H   0  0  0  0  0  0  0  0  0  0  0  0
    2.2026    9.1478    0.0000 H   0  0  0  0  0  0  0  0  0  0  0  0
    1.5123    9.5463    0.0000 H   0  0  0  0  0  0  0  0  0  0  0  0
    3.6522    3.3128    0.0000 H   0  0  0  0  0  0  0  0  0  0  0  0
    5.9984    2.5609    0.0000 H   0  0  0  0  0  0  0  0  0  0  0  0
    0.6200    9.5558    0.0000 H   0  0  0  0  0  0  0  0  0  0  0  0
    0.0000    8.9358    0.0000 H   0  0  0  0  0  0  0  0  0  0  0  0
    0.6200    8.3158    0.0000 H   0  0  0  0  0  0  0  0  0  0  0  0
    4.4550    0.0000    0.0000 H   0  0  0  0  0  0  0  0  0  0  0  0
  1 45  1  0  0  0  0
  2 13  1  0  0  0  0
  2 17  1  0  0  0  0
  3 19  1  0  0  0  0
  3 40  1  0  0  0  0
  4 21  1  0  0  0  0
  4 41  1  0  0  0  0
  5  7  1  0  0  0  0
  5 14  1  0  0  0  0
  5 30  1  0  0  0  0
  6  7  1  0  0  0  0
  6  9  1  0  0  0  0
  6 10  1  0  0  0  0
  6 24  1  1  0  0  0
  7  8  1  0  0  0  0
  7 25  1  6  0  0  0
  8 11  1  0  0  0  0
  8 26  1  0  0  0  0
  8 27  1  0  0  0  0
  9 13  2  0  0  0  0
  9 15  1  0  0  0  0
 10 12  1  0  0  0  0
 10 16  2  0  0  0  0
 11 12  1  0  0  0  0
 11 28  1  0  0  0  0
 11 29  1  0  0  0  0
 12 18  2  0  0  0  0
 13 14  1  0  0  0  0
 14 31  1  0  0  0  0
 14 32  1  0  0  0  0
 15 17  2  0  0  0  0
 15 33  1  0  0  0  0
 16 19  1  0  0  0  0
 16 34  1  0  0  0  0
 17 20  1  0  0  0  0
 18 21  1  0  0  0  0
 18 35  1  0  0  0  0
 19 21  2  0  0  0  0
 20 22  1  0  0  0  0
 20 36  1  0  0  0  0
 20 37  1  0  0  0  0
 22 23  1  0  0  0  0
 22 38  1  0  0  0  0
 22 39  1  0  0  0  0
 23 42  1  0  0  0  0
 23 43  1  0  0  0  0
 23 44  1  0  0  0  0
M  END
> <PUBCHEM_COMPOUND_CID>
9928417

> <PUBCHEM_COMPOUND_CANONICALIZED>
1

> <PUBCHEM_CACTVS_COMPLEXITY>
407

> <PUBCHEM_CACTVS_HBOND_ACCEPTOR>
4

> <PUBCHEM_CACTVS_HBOND_DONOR>
4

> <PUBCHEM_CACTVS_ROTATABLE_BOND>
2

> <PUBCHEM_CACTVS_SUBSKEYS>
AAADceB6MABEAAAAAAAAAAAAAAAAASAAAAA8YIAAAAAAAFjxwAAAHgQQCAAADSzB2AQyB4LAAgiEAiBCAACDAIAgKBBAiJgOjIgJJiKikROEcAlk0BGpmAeQ0PMOoAABAAAQQABQAAaAACSAAAAAAAAAAA==

> <PUBCHEM_IUPAC_OPENEYE_NAME>
(1R,10S)-15-propyl-14-thia-11-azatetracyclo[8.7.0.02,7.013,17]heptadeca-2,4,6,13(17),15-pentaene-4,5-diol;hydrochloride

> <PUBCHEM_IUPAC_CAS_NAME>
(1R,10S)-15-propyl-14-thia-11-azatetracyclo[8.7.0.02,7.013,17]heptadeca-2,4,6,13(17),15-pentaene-4,5-diol;hydrochloride

> <PUBCHEM_IUPAC_NAME_MARKUP>
(1<I>R</I>,10<I>S</I>)-15-propyl-14-thia-11-azatetracyclo[8.7.0.0<SUP>2,7</SUP>.0<SUP>13,17</SUP>]heptadeca-2,4,6,13(17),15-pentaene-4,5-diol;hydrochloride

> <PUBCHEM_IUPAC_NAME>
(1R,10S)-15-propyl-14-thia-11-azatetracyclo[8.7.0.02,7.013,17]heptadeca-2,4,6,13(17),15-pentaene-4,5-diol;hydrochloride

> <PUBCHEM_IUPAC_SYSTEMATIC_NAME>
(1R,10S)-15-propyl-14-thia-11-azatetracyclo[8.7.0.02,7.013,17]heptadeca-2,4,6,13(17),15-pentaene-4,5-diol;hydrochloride

> <PUBCHEM_IUPAC_TRADITIONAL_NAME>
(1R,10S)-15-propyl-14-thia-11-azatetracyclo[8.7.0.02,7.013,17]heptadeca-2,4,6,13(17),15-pentaene-4,5-diol;hydrochloride

> <PUBCHEM_IUPAC_INCHI>
InChI=1S/C18H21NO2S.ClH/c1-2-3-11-7-13-17(22-11)9-19-14-5-4-10-6-15(20)16(21)8-12(10)18(13)14;/h6-8,14,18-21H,2-5,9H2,1H3;1H/t14-,18+;/m0./s1

> <PUBCHEM_IUPAC_INCHIKEY>
NQQIUPCHXZFDIL-QLOBERJESA-N

> <PUBCHEM_EXACT_MASS>
351.1059778

> <PUBCHEM_MOLECULAR_FORMULA>
C18H22ClNO2S

> <PUBCHEM_MOLECULAR_WEIGHT>
351.9

> <PUBCHEM_OPENEYE_CAN_SMILES>
CCCC1=CC2=C(S1)CNC3C2C4=CC(=C(C=C4CC3)O)O.Cl

> <PUBCHEM_OPENEYE_ISO_SMILES>
CCCC1=CC2=C(S1)CN[C@@H]3[C@@H]2C4=CC(=C(C=C4CC3)O)O.Cl

> <PUBCHEM_CACTVS_TPSA>
80.7

> <PUBCHEM_MONOISOTOPIC_WEIGHT>
351.1059778

> <PUBCHEM_TOTAL_CHARGE>
0

> <PUBCHEM_HEAVY_ATOM_COUNT>
23

> <PUBCHEM_ATOM_DEF_STEREO_COUNT>
2

> <PUBCHEM_ATOM_UDEF_STEREO_COUNT>
0

> <PUBCHEM_BOND_DEF_STEREO_COUNT>
0

> <PUBCHEM_BOND_UDEF_STEREO_COUNT>
0

> <PUBCHEM_ISOTOPIC_ATOM_COUNT>
0

> <PUBCHEM_COMPONENT_COUNT>
2

> <PUBCHEM_CACTVS_TAUTO_COUNT>
-1

> <PUBCHEM_COORDINATE_TYPE>
1
5
255

> <PUBCHEM_BONDANNOTATIONS>
10  12  8
10  16  8
12  18  8
15  17  8
16  19  8
18  21  8
19  21  8
2  13  8
2  17  8
6  24  5
7  25  6
9  13  8
9  15  8

$$$$
