45102707
  -OEChem-09292322482D

 55 59  0     1  0  0  0  0  0999 V2000
   10.4251    0.9298    0.0000 S   0  0  0  0  0  0  0  0  0  0  0  0
   12.2050    0.8434    0.0000 S   0  0  0  0  0  0  0  0  0  0  0  0
   10.9218    1.7977    0.0000 O   0  0  0  0  0  0  0  0  0  0  0  0
    9.9285    0.0618    0.0000 O   0  0  0  0  0  0  0  0  0  0  0  0
    4.7024    0.4023    0.0000 N   0  0  3  0  0  0  0  0  0  0  0  0
    9.5572    1.4264    0.0000 N   0  0  0  0  0  0  0  0  0  0  0  0
    3.6092   -1.3773    0.0000 N   0  0  0  0  0  0  0  0  0  0  0  0
    2.8660   -2.0464    0.0000 N   0  0  0  0  0  0  0  0  0  0  0  0
   14.2744    1.1263    0.0000 N   0  0  0  0  0  0  0  0  0  0  0  0
    5.1363    1.3032    0.0000 C   0  0  0  0  0  0  0  0  0  0  0  0
    5.1363   -0.4987    0.0000 C   0  0  0  0  0  0  0  0  0  0  0  0
    6.1112    1.5258    0.0000 C   0  0  0  0  0  0  0  0  0  0  0  0
    6.1112   -0.7212    0.0000 C   0  0  0  0  0  0  0  0  0  0  0  0
    6.8931    0.9023    0.0000 C   0  0  0  0  0  0  0  0  0  0  0  0
    6.8931   -0.0977    0.0000 C   0  0  0  0  0  0  0  0  0  0  0  0
    3.7024    0.4023    0.0000 C   0  0  0  0  0  0  0  0  0  0  0  0
    7.7870    1.4369    0.0000 C   0  0  0  0  0  0  0  0  0  0  0  0
    7.7870   -0.6324    0.0000 C   0  0  0  0  0  0  0  0  0  0  0  0
    8.6931    0.9231    0.0000 C   0  0  0  0  0  0  0  0  0  0  0  0
    3.2024   -0.4637    0.0000 C   0  0  0  0  0  0  0  0  0  0  0  0
    8.6931   -0.1185    0.0000 C   0  0  0  0  0  0  0  0  0  0  0  0
    2.2079   -0.5683    0.0000 C   0  0  0  0  0  0  0  0  0  0  0  0
   11.2931    0.4331    0.0000 C   0  0  0  0  0  0  0  0  0  0  0  0
    2.0000   -1.5464    0.0000 C   0  0  0  0  0  0  0  0  0  0  0  0
   11.4014   -0.5610    0.0000 C   0  0  0  0  0  0  0  0  0  0  0  0
   12.8770    0.1028    0.0000 C   0  0  0  0  0  0  0  0  0  0  0  0
   12.3804   -0.7651    0.0000 C   0  0  0  0  0  0  0  0  0  0  0  0
   13.8711    0.2112    0.0000 C   0  0  0  0  0  0  0  0  0  0  0  0
   14.4620   -0.5956    0.0000 C   0  0  0  0  0  0  0  0  0  0  0  0
   15.4562   -0.4872    0.0000 C   0  0  0  0  0  0  0  0  0  0  0  0
   15.2685    1.2346    0.0000 C   0  0  0  0  0  0  0  0  0  0  0  0
   15.8594    0.4279    0.0000 C   0  0  0  0  0  0  0  0  0  0  0  0
    5.1363    1.9232    0.0000 H   0  0  0  0  0  0  0  0  0  0  0  0
    4.5319    1.4412    0.0000 H   0  0  0  0  0  0  0  0  0  0  0  0
    4.5319   -0.6367    0.0000 H   0  0  0  0  0  0  0  0  0  0  0  0
    5.1363   -1.1187    0.0000 H   0  0  0  0  0  0  0  0  0  0  0  0
    6.5960    1.9123    0.0000 H   0  0  0  0  0  0  0  0  0  0  0  0
    5.8422    2.0844    0.0000 H   0  0  0  0  0  0  0  0  0  0  0  0
    5.8422   -1.2798    0.0000 H   0  0  0  0  0  0  0  0  0  0  0  0
    6.5960   -1.1078    0.0000 H   0  0  0  0  0  0  0  0  0  0  0  0
    3.8101    1.0129    0.0000 H   0  0  0  0  0  0  0  0  0  0  0  0
    3.1198    0.6143    0.0000 H   0  0  0  0  0  0  0  0  0  0  0  0
    7.7798    2.0569    0.0000 H   0  0  0  0  0  0  0  0  0  0  0  0
    7.7798   -1.2523    0.0000 H   0  0  0  0  0  0  0  0  0  0  0  0
    9.2288   -0.4306    0.0000 H   0  0  0  0  0  0  0  0  0  0  0  0
    9.5548    2.0464    0.0000 H   0  0  0  0  0  0  0  0  0  0  0  0
    1.7930   -0.1075    0.0000 H   0  0  0  0  0  0  0  0  0  0  0  0
    4.2156   -1.5062    0.0000 H   0  0  0  0  0  0  0  0  0  0  0  0
    1.4336   -1.7986    0.0000 H   0  0  0  0  0  0  0  0  0  0  0  0
   10.9423   -0.9776    0.0000 H   0  0  0  0  0  0  0  0  0  0  0  0
   12.6347   -1.3306    0.0000 H   0  0  0  0  0  0  0  0  0  0  0  0
   14.2121   -1.1629    0.0000 H   0  0  0  0  0  0  0  0  0  0  0  0
   15.8225   -0.9874    0.0000 H   0  0  0  0  0  0  0  0  0  0  0  0
   15.5185    1.8020    0.0000 H   0  0  0  0  0  0  0  0  0  0  0  0
   16.4757    0.4951    0.0000 H   0  0  0  0  0  0  0  0  0  0  0  0
  1  3  2  0  0  0  0
  1  4  2  0  0  0  0
  1  6  1  0  0  0  0
  1 23  1  0  0  0  0
  2 23  1  0  0  0  0
  2 26  1  0  0  0  0
  5 10  1  0  0  0  0
  5 11  1  0  0  0  0
  5 16  1  0  0  0  0
  6 19  1  0  0  0  0
  6 46  1  0  0  0  0
  7  8  1  0  0  0  0
  7 20  1  0  0  0  0
  7 48  1  0  0  0  0
  8 24  2  0  0  0  0
  9 28  1  0  0  0  0
  9 31  2  0  0  0  0
 10 12  1  0  0  0  0
 10 33  1  0  0  0  0
 10 34  1  0  0  0  0
 11 13  1  0  0  0  0
 11 35  1  0  0  0  0
 11 36  1  0  0  0  0
 12 14  1  0  0  0  0
 12 37  1  0  0  0  0
 12 38  1  0  0  0  0
 13 15  1  0  0  0  0
 13 39  1  0  0  0  0
 13 40  1  0  0  0  0
 14 15  2  0  0  0  0
 14 17  1  0  0  0  0
 15 18  1  0  0  0  0
 16 20  1  0  0  0  0
 16 41  1  0  0  0  0
 16 42  1  0  0  0  0
 17 19  2  0  0  0  0
 17 43  1  0  0  0  0
 18 21  2  0  0  0  0
 18 44  1  0  0  0  0
 19 21  1  0  0  0  0
 20 22  2  0  0  0  0
 21 45  1  0  0  0  0
 22 24  1  0  0  0  0
 22 47  1  0  0  0  0
 23 25  2  0  0  0  0
 24 49  1  0  0  0  0
 25 27  1  0  0  0  0
 25 50  1  0  0  0  0
 26 27  2  0  0  0  0
 26 28  1  0  0  0  0
 27 51  1  0  0  0  0
 28 29  2  0  0  0  0
 29 30  1  0  0  0  0
 29 52  1  0  0  0  0
 30 32  2  0  0  0  0
 30 53  1  0  0  0  0
 31 32  1  0  0  0  0
 31 54  1  0  0  0  0
 32 55  1  0  0  0  0
M  END
> <PUBCHEM_COMPOUND_CID>
45102707

> <PUBCHEM_COMPOUND_CANONICALIZED>
1

> <PUBCHEM_CACTVS_COMPLEXITY>
718

> <PUBCHEM_CACTVS_HBOND_ACCEPTOR>
7

> <PUBCHEM_CACTVS_HBOND_DONOR>
2

> <PUBCHEM_CACTVS_ROTATABLE_BOND>
6

> <PUBCHEM_CACTVS_SUBSKEYS>
AAADceB7sABgAAAAAAAAAAAAAAAAAWJAAAA8QAAABYAAAAAB/AAAHAQYQAAADAjBXgQ8wZNrEAqmAzRnRHDThbAxijBY+Tg4ZJgIYOLg0dGUpAhgmADoyAcQgIAOiAAAQAAQAAAQAACAACAAAAAAAAAAAA==

> <PUBCHEM_IUPAC_OPENEYE_NAME>
N-[3-(1H-pyrazol-5-ylmethyl)-1,2,4,5-tetrahydro-3-benzazepin-7-yl]-5-(2-pyridyl)thiophene-2-sulfonamide

> <PUBCHEM_IUPAC_CAS_NAME>
N-[3-(1H-pyrazol-5-ylmethyl)-1,2,4,5-tetrahydro-3-benzazepin-7-yl]-5-(2-pyridinyl)-2-thiophenesulfonamide

> <PUBCHEM_IUPAC_NAME_MARKUP>
<I>N</I>-[3-(1<I>H</I>-pyrazol-5-ylmethyl)-1,2,4,5-tetrahydro-3-benzazepin-7-yl]-5-pyridin-2-ylthiophene-2-sulfonamide

> <PUBCHEM_IUPAC_NAME>
N-[3-(1H-pyrazol-5-ylmethyl)-1,2,4,5-tetrahydro-3-benzazepin-7-yl]-5-pyridin-2-ylthiophene-2-sulfonamide

> <PUBCHEM_IUPAC_SYSTEMATIC_NAME>
N-[3-(1H-pyrazol-5-ylmethyl)-1,2,4,5-tetrahydro-3-benzazepin-7-yl]-5-pyridin-2-yl-thiophene-2-sulfonamide

> <PUBCHEM_IUPAC_TRADITIONAL_NAME>
N-[3-(1H-pyrazol-5-ylmethyl)-1,2,4,5-tetrahydro-3-benzazepin-7-yl]-5-(2-pyridyl)thiophene-2-sulfonamide

> <PUBCHEM_IUPAC_INCHI>
InChI=1S/C23H23N5O2S2/c29-32(30,23-7-6-22(31-23)21-3-1-2-11-24-21)27-19-5-4-17-9-13-28(14-10-18(17)15-19)16-20-8-12-25-26-20/h1-8,11-12,15,27H,9-10,13-14,16H2,(H,25,26)

> <PUBCHEM_IUPAC_INCHIKEY>
OSRBIQHRPHNLEN-UHFFFAOYSA-N

> <PUBCHEM_XLOGP3_AA>
3.2

> <PUBCHEM_EXACT_MASS>
465.12931734

> <PUBCHEM_MOLECULAR_FORMULA>
C23H23N5O2S2

> <PUBCHEM_MOLECULAR_WEIGHT>
465.6

> <PUBCHEM_OPENEYE_CAN_SMILES>
C1CN(CCC2=C1C=CC(=C2)NS(=O)(=O)C3=CC=C(S3)C4=CC=CC=N4)CC5=CC=NN5

> <PUBCHEM_OPENEYE_ISO_SMILES>
C1CN(CCC2=C1C=CC(=C2)NS(=O)(=O)C3=CC=C(S3)C4=CC=CC=N4)CC5=CC=NN5

> <PUBCHEM_CACTVS_TPSA>
128

> <PUBCHEM_MONOISOTOPIC_WEIGHT>
465.12931734

> <PUBCHEM_TOTAL_CHARGE>
0

> <PUBCHEM_HEAVY_ATOM_COUNT>
32

> <PUBCHEM_ATOM_DEF_STEREO_COUNT>
0

> <PUBCHEM_ATOM_UDEF_STEREO_COUNT>
0

> <PUBCHEM_BOND_DEF_STEREO_COUNT>
0

> <PUBCHEM_BOND_UDEF_STEREO_COUNT>
0

> <PUBCHEM_ISOTOPIC_ATOM_COUNT>
0

> <PUBCHEM_COMPONENT_COUNT>
1

> <PUBCHEM_CACTVS_TAUTO_COUNT>
-1

> <PUBCHEM_COORDINATE_TYPE>
1
5
255

> <PUBCHEM_BONDANNOTATIONS>
14  15  8
14  17  8
15  18  8
17  19  8
18  21  8
19  21  8
2  23  8
2  26  8
20  22  8
22  24  8
23  25  8
25  27  8
26  27  8
28  29  8
29  30  8
30  32  8
31  32  8
7  20  8
7  8  8
8  24  8
9  28  8
9  31  8

$$$$
