46885027
  -OEChem-09292322072D

 70 73  0     1  0  0  0  0  0999 V2000
    7.2731    7.6190    0.0000 F   0  0  0  0  0  0  0  0  0  0  0  0
    6.2731    8.6190    0.0000 F   0  0  0  0  0  0  0  0  0  0  0  0
    5.2731    7.6190    0.0000 F   0  0  0  0  0  0  0  0  0  0  0  0
    4.5411    1.6191    0.0000 O   0  0  0  0  0  0  0  0  0  0  0  0
    6.8357   -5.7739    0.0000 O   0  0  0  0  0  0  0  0  0  0  0  0
    3.6750    5.1190    0.0000 O   0  0  0  0  0  0  0  0  0  0  0  0
    3.3090   -0.9198    0.0000 N   0  0  3  0  0  0  0  0  0  0  0  0
    4.0778   -3.4514    0.0000 N   0  0  0  0  0  0  0  0  0  0  0  0
    2.8090    1.6191    0.0000 N   0  0  0  0  0  0  0  0  0  0  0  0
    5.2534   -5.0694    0.0000 N   0  0  0  0  0  0  0  0  0  0  0  0
    4.5411    3.6190    0.0000 N   0  0  0  0  0  0  0  0  0  0  0  0
    2.8090    0.6191    0.0000 C   0  0  1  0  0  0  0  0  0  0  0  0
    3.6180    0.0313    0.0000 C   0  0  0  0  0  0  0  0  0  0  0  0
    2.0000    0.0313    0.0000 C   0  0  0  0  0  0  0  0  0  0  0  0
    2.3090   -0.9198    0.0000 C   0  0  0  0  0  0  0  0  0  0  0  0
    3.8968   -1.7288    0.0000 C   0  0  0  0  0  0  0  0  0  0  0  0
    3.4901   -2.6424    0.0000 C   0  0  0  0  0  0  0  0  0  0  0  0
    3.6711   -4.3649    0.0000 C   0  0  0  0  0  0  0  0  0  0  0  0
    5.0724   -3.3468    0.0000 C   0  0  0  0  0  0  0  0  0  0  0  0
    4.2589   -5.1739    0.0000 C   0  0  0  0  0  0  0  0  0  0  0  0
    5.6602   -4.1559    0.0000 C   0  0  0  0  0  0  0  0  0  0  0  0
    3.6750    2.1190    0.0000 C   0  0  0  0  0  0  0  0  0  0  0  0
    5.8412   -5.8784    0.0000 C   0  0  0  0  0  0  0  0  0  0  0  0
    3.6750    3.1190    0.0000 C   0  0  0  0  0  0  0  0  0  0  0  0
    5.4345   -6.7920    0.0000 C   0  0  0  0  0  0  0  0  0  0  0  0
    4.4399   -6.8965    0.0000 C   0  0  0  0  0  0  0  0  0  0  0  0
    6.0223   -7.6010    0.0000 C   0  0  0  0  0  0  0  0  0  0  0  0
    4.5411    4.6190    0.0000 C   0  0  0  0  0  0  0  0  0  0  0  0
    4.0332   -7.8100    0.0000 C   0  0  0  0  0  0  0  0  0  0  0  0
    5.6155   -8.5145    0.0000 C   0  0  0  0  0  0  0  0  0  0  0  0
    4.6210   -8.6190    0.0000 C   0  0  0  0  0  0  0  0  0  0  0  0
    5.4071    5.1190    0.0000 C   0  0  0  0  0  0  0  0  0  0  0  0
    5.4071    6.1190    0.0000 C   0  0  0  0  0  0  0  0  0  0  0  0
    6.2731    4.6190    0.0000 C   0  0  0  0  0  0  0  0  0  0  0  0
    6.2731    6.6190    0.0000 C   0  0  0  0  0  0  0  0  0  0  0  0
    7.1391    5.1190    0.0000 C   0  0  0  0  0  0  0  0  0  0  0  0
    7.1391    6.1190    0.0000 C   0  0  0  0  0  0  0  0  0  0  0  0
    6.2731    7.6190    0.0000 C   0  0  0  0  0  0  0  0  0  0  0  0
    3.3614    0.9005    0.0000 H   0  0  0  0  0  0  0  0  0  0  0  0
    4.1844   -0.2209    0.0000 H   0  0  0  0  0  0  0  0  0  0  0  0
    3.9280    0.5682    0.0000 H   0  0  0  0  0  0  0  0  0  0  0  0
    1.6900    0.5682    0.0000 H   0  0  0  0  0  0  0  0  0  0  0  0
    1.4336   -0.2209    0.0000 H   0  0  0  0  0  0  0  0  0  0  0  0
    1.7026   -1.0487    0.0000 H   0  0  0  0  0  0  0  0  0  0  0  0
    2.3738   -1.5364    0.0000 H   0  0  0  0  0  0  0  0  0  0  0  0
    4.4108   -2.0755    0.0000 H   0  0  0  0  0  0  0  0  0  0  0  0
    4.3275   -1.2828    0.0000 H   0  0  0  0  0  0  0  0  0  0  0  0
    2.9761   -2.2957    0.0000 H   0  0  0  0  0  0  0  0  0  0  0  0
    3.0594   -3.0883    0.0000 H   0  0  0  0  0  0  0  0  0  0  0  0
    3.1571   -4.0182    0.0000 H   0  0  0  0  0  0  0  0  0  0  0  0
    3.2404   -4.8109    0.0000 H   0  0  0  0  0  0  0  0  0  0  0  0
    5.6296   -3.0750    0.0000 H   0  0  0  0  0  0  0  0  0  0  0  0
    4.9015   -2.7509    0.0000 H   0  0  0  0  0  0  0  0  0  0  0  0
    2.2721    1.9290    0.0000 H   0  0  0  0  0  0  0  0  0  0  0  0
    3.7016   -5.4457    0.0000 H   0  0  0  0  0  0  0  0  0  0  0  0
    4.4298   -5.7699    0.0000 H   0  0  0  0  0  0  0  0  0  0  0  0
    6.1742   -4.5026    0.0000 H   0  0  0  0  0  0  0  0  0  0  0  0
    6.0908   -3.7099    0.0000 H   0  0  0  0  0  0  0  0  0  0  0  0
    3.4630    3.7017    0.0000 H   0  0  0  0  0  0  0  0  0  0  0  0
    3.0645    3.0114    0.0000 H   0  0  0  0  0  0  0  0  0  0  0  0
    5.0780    3.3090    0.0000 H   0  0  0  0  0  0  0  0  0  0  0  0
    4.0755   -6.3949    0.0000 H   0  0  0  0  0  0  0  0  0  0  0  0
    6.6389   -7.5362    0.0000 H   0  0  0  0  0  0  0  0  0  0  0  0
    3.4166   -7.8748    0.0000 H   0  0  0  0  0  0  0  0  0  0  0  0
    5.9800   -9.0161    0.0000 H   0  0  0  0  0  0  0  0  0  0  0  0
    4.3688   -9.1854    0.0000 H   0  0  0  0  0  0  0  0  0  0  0  0
    4.8702    6.4290    0.0000 H   0  0  0  0  0  0  0  0  0  0  0  0
    6.2731    3.9990    0.0000 H   0  0  0  0  0  0  0  0  0  0  0  0
    7.6761    4.8090    0.0000 H   0  0  0  0  0  0  0  0  0  0  0  0
    7.6761    6.4290    0.0000 H   0  0  0  0  0  0  0  0  0  0  0  0
  1 38  1  0  0  0  0
  2 38  1  0  0  0  0
  3 38  1  0  0  0  0
  4 22  2  0  0  0  0
  5 23  2  0  0  0  0
  6 28  2  0  0  0  0
  7 13  1  0  0  0  0
  7 15  1  0  0  0  0
  7 16  1  0  0  0  0
  8 17  1  0  0  0  0
  8 18  1  0  0  0  0
  8 19  1  0  0  0  0
 12  9  1  1  0  0  0
  9 22  1  0  0  0  0
  9 54  1  0  0  0  0
 10 20  1  0  0  0  0
 10 21  1  0  0  0  0
 10 23  1  0  0  0  0
 11 24  1  0  0  0  0
 11 28  1  0  0  0  0
 11 61  1  0  0  0  0
 12 13  1  0  0  0  0
 12 14  1  0  0  0  0
 12 39  1  0  0  0  0
 13 40  1  0  0  0  0
 13 41  1  0  0  0  0
 14 15  1  0  0  0  0
 14 42  1  0  0  0  0
 14 43  1  0  0  0  0
 15 44  1  0  0  0  0
 15 45  1  0  0  0  0
 16 17  1  0  0  0  0
 16 46  1  0  0  0  0
 16 47  1  0  0  0  0
 17 48  1  0  0  0  0
 17 49  1  0  0  0  0
 18 20  1  0  0  0  0
 18 50  1  0  0  0  0
 18 51  1  0  0  0  0
 19 21  1  0  0  0  0
 19 52  1  0  0  0  0
 19 53  1  0  0  0  0
 20 55  1  0  0  0  0
 20 56  1  0  0  0  0
 21 57  1  0  0  0  0
 21 58  1  0  0  0  0
 22 24  1  0  0  0  0
 23 25  1  0  0  0  0
 24 59  1  0  0  0  0
 24 60  1  0  0  0  0
 25 26  2  0  0  0  0
 25 27  1  0  0  0  0
 26 29  1  0  0  0  0
 26 62  1  0  0  0  0
 27 30  2  0  0  0  0
 27 63  1  0  0  0  0
 28 32  1  0  0  0  0
 29 31  2  0  0  0  0
 29 64  1  0  0  0  0
 30 31  1  0  0  0  0
 30 65  1  0  0  0  0
 31 66  1  0  0  0  0
 32 33  2  0  0  0  0
 32 34  1  0  0  0  0
 33 35  1  0  0  0  0
 33 67  1  0  0  0  0
 34 36  2  0  0  0  0
 34 68  1  0  0  0  0
 35 37  2  0  0  0  0
 35 38  1  0  0  0  0
 36 37  1  0  0  0  0
 36 69  1  0  0  0  0
 37 70  1  0  0  0  0
M  END
> <PUBCHEM_COMPOUND_CID>
46885027

> <PUBCHEM_COMPOUND_CANONICALIZED>
1

> <PUBCHEM_CACTVS_COMPLEXITY>
812

> <PUBCHEM_CACTVS_HBOND_ACCEPTOR>
8

> <PUBCHEM_CACTVS_HBOND_DONOR>
2

> <PUBCHEM_CACTVS_ROTATABLE_BOND>
8

> <PUBCHEM_CACTVS_SUBSKEYS>
AAADcfB7sYAAAAAAAAAAAAAAAAAAAWAAAAA8YIAAAAAAAAABQAAAHwAQAAAADCjBmBQwAIPAAACIAiFSEACCAAAkAAAIiIGIBMgIYDKA1TGUIQhglgCIiYcYiECOAAACAAAAAAAAAAQAAAAAAAAAAAAAAA==

> <PUBCHEM_IUPAC_OPENEYE_NAME>
N-[2-[[(3R)-1-[2-(4-benzoylpiperazin-1-yl)ethyl]pyrrolidin-3-yl]amino]-2-oxo-ethyl]-3-(trifluoromethyl)benzamide

> <PUBCHEM_IUPAC_CAS_NAME>
N-[2-[[(3R)-1-[2-(4-benzoyl-1-piperazinyl)ethyl]-3-pyrrolidinyl]amino]-2-oxoethyl]-3-(trifluoromethyl)benzamide

> <PUBCHEM_IUPAC_NAME_MARKUP>
<I>N</I>-[2-[[(3<I>R</I>)-1-[2-(4-benzoylpiperazin-1-yl)ethyl]pyrrolidin-3-yl]amino]-2-oxoethyl]-3-(trifluoromethyl)benzamide

> <PUBCHEM_IUPAC_NAME>
N-[2-[[(3R)-1-[2-(4-benzoylpiperazin-1-yl)ethyl]pyrrolidin-3-yl]amino]-2-oxoethyl]-3-(trifluoromethyl)benzamide

> <PUBCHEM_IUPAC_SYSTEMATIC_NAME>
N-[2-oxidanylidene-2-[[(3R)-1-[2-[4-(phenylcarbonyl)piperazin-1-yl]ethyl]pyrrolidin-3-yl]amino]ethyl]-3-(trifluoromethyl)benzamide

> <PUBCHEM_IUPAC_TRADITIONAL_NAME>
N-[2-[[(3R)-1-[2-(4-benzoylpiperazino)ethyl]pyrrolidin-3-yl]amino]-2-keto-ethyl]-3-(trifluoromethyl)benzamide

> <PUBCHEM_IUPAC_INCHI>
InChI=1S/C27H32F3N5O3/c28-27(29,30)22-8-4-7-21(17-22)25(37)31-18-24(36)32-23-9-10-34(19-23)12-11-33-13-15-35(16-14-33)26(38)20-5-2-1-3-6-20/h1-8,17,23H,9-16,18-19H2,(H,31,37)(H,32,36)/t23-/m1/s1

> <PUBCHEM_IUPAC_INCHIKEY>
SLAGVDVFVOTFNB-HSZRJFAPSA-N

> <PUBCHEM_XLOGP3_AA>
2.6

> <PUBCHEM_EXACT_MASS>
531.24572439

> <PUBCHEM_MOLECULAR_FORMULA>
C27H32F3N5O3

> <PUBCHEM_MOLECULAR_WEIGHT>
531.6

> <PUBCHEM_OPENEYE_CAN_SMILES>
C1CN(CC1NC(=O)CNC(=O)C2=CC(=CC=C2)C(F)(F)F)CCN3CCN(CC3)C(=O)C4=CC=CC=C4

> <PUBCHEM_OPENEYE_ISO_SMILES>
C1CN(C[C@@H]1NC(=O)CNC(=O)C2=CC(=CC=C2)C(F)(F)F)CCN3CCN(CC3)C(=O)C4=CC=CC=C4

> <PUBCHEM_CACTVS_TPSA>
85

> <PUBCHEM_MONOISOTOPIC_WEIGHT>
531.24572439

> <PUBCHEM_TOTAL_CHARGE>
0

> <PUBCHEM_HEAVY_ATOM_COUNT>
38

> <PUBCHEM_ATOM_DEF_STEREO_COUNT>
1

> <PUBCHEM_ATOM_UDEF_STEREO_COUNT>
0

> <PUBCHEM_BOND_DEF_STEREO_COUNT>
0

> <PUBCHEM_BOND_UDEF_STEREO_COUNT>
0

> <PUBCHEM_ISOTOPIC_ATOM_COUNT>
0

> <PUBCHEM_COMPONENT_COUNT>
1

> <PUBCHEM_CACTVS_TAUTO_COUNT>
-1

> <PUBCHEM_COORDINATE_TYPE>
1
5
255

> <PUBCHEM_BONDANNOTATIONS>
25  26  8
25  27  8
26  29  8
27  30  8
29  31  8
30  31  8
32  33  8
32  34  8
33  35  8
34  36  8
35  37  8
36  37  8
12  9  5

$$$$
