45264492
  -OEChem-09292322192D

 47 49  0     0  0  0  0  0  0999 V2000
    0.0000    1.4030    0.0000 Cl  0  0  0  0  0  0  0  0  0  0  0  0
    4.8184    8.4217    0.0000 Cl  0  0  0  0  0  0  0  0  0  0  0  0
    6.5878    2.3260    0.0000 O   0  0  0  0  0  0  0  0  0  0  0  0
    6.2788    4.8951    0.0000 O   0  0  0  0  0  0  0  0  0  0  0  0
    4.0000    3.1350    0.0000 N   0  0  0  0  0  0  0  0  0  0  0  0
    6.0000    3.1350    0.0000 C   0  0  0  0  0  0  0  0  0  0  0  0
    5.5000    4.0010    0.0000 C   0  0  0  0  0  0  0  0  0  0  0  0
    5.5000    2.2690    0.0000 C   0  0  0  0  0  0  0  0  0  0  0  0
    4.5000    4.0010    0.0000 C   0  0  0  0  0  0  0  0  0  0  0  0
    4.5000    2.2690    0.0000 C   0  0  0  0  0  0  0  0  0  0  0  0
    6.5878    3.9440    0.0000 C   0  0  0  0  0  0  0  0  0  0  0  0
    3.0000    3.1350    0.0000 C   0  0  0  0  0  0  0  0  0  0  0  0
    7.5388    3.6350    0.0000 C   0  0  0  0  0  0  0  0  0  0  0  0
    7.5388    2.6350    0.0000 C   0  0  0  0  0  0  0  0  0  0  0  0
    2.5000    2.2690    0.0000 C   0  0  0  0  0  0  0  0  0  0  0  0
    8.3479    4.2228    0.0000 C   0  0  0  0  0  0  0  0  0  0  0  0
    1.5000    2.2690    0.0000 C   0  0  0  0  0  0  0  0  0  0  0  0
    3.0000    1.4030    0.0000 C   0  0  0  0  0  0  0  0  0  0  0  0
    9.2614    3.8161    0.0000 C   0  0  0  0  0  0  0  0  0  0  0  0
    8.2433    5.2173    0.0000 C   0  0  0  0  0  0  0  0  0  0  0  0
    1.0000    1.4030    0.0000 C   0  0  0  0  0  0  0  0  0  0  0  0
    2.5000    0.5369    0.0000 C   0  0  0  0  0  0  0  0  0  0  0  0
   10.0704    4.4038    0.0000 C   0  0  0  0  0  0  0  0  0  0  0  0
    9.0524    5.8051    0.0000 C   0  0  0  0  0  0  0  0  0  0  0  0
    1.5000    0.5369    0.0000 C   0  0  0  0  0  0  0  0  0  0  0  0
    9.9659    5.3984    0.0000 C   0  0  0  0  0  0  0  0  0  0  0  0
    6.0826    4.2131    0.0000 H   0  0  0  0  0  0  0  0  0  0  0  0
    5.3923    4.6116    0.0000 H   0  0  0  0  0  0  0  0  0  0  0  0
    5.3923    1.6584    0.0000 H   0  0  0  0  0  0  0  0  0  0  0  0
    6.0826    2.0569    0.0000 H   0  0  0  0  0  0  0  0  0  0  0  0
    4.6077    4.6116    0.0000 H   0  0  0  0  0  0  0  0  0  0  0  0
    3.9174    4.2131    0.0000 H   0  0  0  0  0  0  0  0  0  0  0  0
    3.9174    2.0569    0.0000 H   0  0  0  0  0  0  0  0  0  0  0  0
    4.6077    1.6584    0.0000 H   0  0  0  0  0  0  0  0  0  0  0  0
    3.1077    3.7456    0.0000 H   0  0  0  0  0  0  0  0  0  0  0  0
    2.4174    3.3471    0.0000 H   0  0  0  0  0  0  0  0  0  0  0  0
    8.0404    2.2706    0.0000 H   0  0  0  0  0  0  0  0  0  0  0  0
    1.1900    2.8059    0.0000 H   0  0  0  0  0  0  0  0  0  0  0  0
    3.6200    1.4030    0.0000 H   0  0  0  0  0  0  0  0  0  0  0  0
    9.3262    3.1995    0.0000 H   0  0  0  0  0  0  0  0  0  0  0  0
    7.6769    5.4695    0.0000 H   0  0  0  0  0  0  0  0  0  0  0  0
    2.8100    0.0000    0.0000 H   0  0  0  0  0  0  0  0  0  0  0  0
   10.6368    4.1517    0.0000 H   0  0  0  0  0  0  0  0  0  0  0  0
    8.9875    6.4217    0.0000 H   0  0  0  0  0  0  0  0  0  0  0  0
    1.1900    0.0000    0.0000 H   0  0  0  0  0  0  0  0  0  0  0  0
   10.4675    5.7628    0.0000 H   0  0  0  0  0  0  0  0  0  0  0  0
    5.8184    8.4217    0.0000 H   0  0  0  0  0  0  0  0  0  0  0  0
  1 21  1  0  0  0  0
  2 47  1  0  0  0  0
  3  6  1  0  0  0  0
  3 14  1  0  0  0  0
  4 11  2  0  0  0  0
  5  9  1  0  0  0  0
  5 10  1  0  0  0  0
  5 12  1  0  0  0  0
  6  7  1  0  0  0  0
  6  8  1  0  0  0  0
  6 11  1  0  0  0  0
  7  9  1  0  0  0  0
  7 27  1  0  0  0  0
  7 28  1  0  0  0  0
  8 10  1  0  0  0  0
  8 29  1  0  0  0  0
  8 30  1  0  0  0  0
  9 31  1  0  0  0  0
  9 32  1  0  0  0  0
 10 33  1  0  0  0  0
 10 34  1  0  0  0  0
 11 13  1  0  0  0  0
 12 15  1  0  0  0  0
 12 35  1  0  0  0  0
 12 36  1  0  0  0  0
 13 14  2  0  0  0  0
 13 16  1  0  0  0  0
 14 37  1  0  0  0  0
 15 17  2  0  0  0  0
 15 18  1  0  0  0  0
 16 19  2  0  0  0  0
 16 20  1  0  0  0  0
 17 21  1  0  0  0  0
 17 38  1  0  0  0  0
 18 22  2  0  0  0  0
 18 39  1  0  0  0  0
 19 23  1  0  0  0  0
 19 40  1  0  0  0  0
 20 24  2  0  0  0  0
 20 41  1  0  0  0  0
 21 25  2  0  0  0  0
 22 25  1  0  0  0  0
 22 42  1  0  0  0  0
 23 26  2  0  0  0  0
 23 43  1  0  0  0  0
 24 26  1  0  0  0  0
 24 44  1  0  0  0  0
 25 45  1  0  0  0  0
 26 46  1  0  0  0  0
M  END
> <PUBCHEM_COMPOUND_CID>
45264492

> <PUBCHEM_COMPOUND_CANONICALIZED>
1

> <PUBCHEM_CACTVS_COMPLEXITY>
518

> <PUBCHEM_CACTVS_HBOND_ACCEPTOR>
3

> <PUBCHEM_CACTVS_HBOND_DONOR>
1

> <PUBCHEM_CACTVS_ROTATABLE_BOND>
3

> <PUBCHEM_CACTVS_SUBSKEYS>
AAADceB6MAAGAAAAAAAAAAAAAAAAAQAAAAA8YIAAAAAAAAABQAAAHgIAAAAADEbhmCYwAIMABACIAqBSAAKCCAAgJQAIiAFIBsgIIDKBlxWEIAhmwACIiIecyOCOAAAAIAAAAAAAAABAAAAAAAAAAAAAAA==

> <PUBCHEM_IUPAC_OPENEYE_NAME>
8-[(3-chlorophenyl)methyl]-3-phenyl-1-oxa-8-azaspiro[4.5]dec-2-en-4-one;hydrochloride

> <PUBCHEM_IUPAC_CAS_NAME>
8-[(3-chlorophenyl)methyl]-3-phenyl-1-oxa-8-azaspiro[4.5]dec-2-en-4-one;hydrochloride

> <PUBCHEM_IUPAC_NAME_MARKUP>
8-[(3-chlorophenyl)methyl]-3-phenyl-1-oxa-8-azaspiro[4.5]dec-2-en-4-one;hydrochloride

> <PUBCHEM_IUPAC_NAME>
8-[(3-chlorophenyl)methyl]-3-phenyl-1-oxa-8-azaspiro[4.5]dec-2-en-4-one;hydrochloride

> <PUBCHEM_IUPAC_SYSTEMATIC_NAME>
8-[(3-chlorophenyl)methyl]-3-phenyl-1-oxa-8-azaspiro[4.5]dec-2-en-4-one;hydrochloride

> <PUBCHEM_IUPAC_TRADITIONAL_NAME>
8-(3-chlorobenzyl)-3-phenyl-1-oxa-8-azaspiro[4.5]dec-2-en-4-one;hydrochloride

> <PUBCHEM_IUPAC_INCHI>
InChI=1S/C21H20ClNO2.ClH/c22-18-8-4-5-16(13-18)14-23-11-9-21(10-12-23)20(24)19(15-25-21)17-6-2-1-3-7-17;/h1-8,13,15H,9-12,14H2;1H

> <PUBCHEM_IUPAC_INCHIKEY>
SJJFRBYAVFWAFG-UHFFFAOYSA-N

> <PUBCHEM_EXACT_MASS>
389.0949343

> <PUBCHEM_MOLECULAR_FORMULA>
C21H21Cl2NO2

> <PUBCHEM_MOLECULAR_WEIGHT>
390.3

> <PUBCHEM_OPENEYE_CAN_SMILES>
C1CN(CCC12C(=O)C(=CO2)C3=CC=CC=C3)CC4=CC(=CC=C4)Cl.Cl

> <PUBCHEM_OPENEYE_ISO_SMILES>
C1CN(CCC12C(=O)C(=CO2)C3=CC=CC=C3)CC4=CC(=CC=C4)Cl.Cl

> <PUBCHEM_CACTVS_TPSA>
29.5

> <PUBCHEM_MONOISOTOPIC_WEIGHT>
389.0949343

> <PUBCHEM_TOTAL_CHARGE>
0

> <PUBCHEM_HEAVY_ATOM_COUNT>
26

> <PUBCHEM_ATOM_DEF_STEREO_COUNT>
0

> <PUBCHEM_ATOM_UDEF_STEREO_COUNT>
0

> <PUBCHEM_BOND_DEF_STEREO_COUNT>
0

> <PUBCHEM_BOND_UDEF_STEREO_COUNT>
0

> <PUBCHEM_ISOTOPIC_ATOM_COUNT>
0

> <PUBCHEM_COMPONENT_COUNT>
2

> <PUBCHEM_CACTVS_TAUTO_COUNT>
-1

> <PUBCHEM_COORDINATE_TYPE>
1
5
255

> <PUBCHEM_BONDANNOTATIONS>
15  17  8
15  18  8
16  19  8
16  20  8
17  21  8
18  22  8
19  23  8
20  24  8
21  25  8
22  25  8
23  26  8
24  26  8

$$$$
