71563082
  -OEChem-09292322052D

 46 49  0     1  0  0  0  0  0999 V2000
    2.0000   -0.8871    0.0000 Cl  0  0  0  0  0  0  0  0  0  0  0  0
    5.5033   -0.0346    0.0000 O   0  0  0  0  0  0  0  0  0  0  0  0
    9.5441    2.1459    0.0000 O   0  0  0  0  0  0  0  0  0  0  0  0
    7.8000   -1.9233    0.0000 N   0  0  3  0  0  0  0  0  0  0  0  0
    7.8000   -0.9233    0.0000 C   0  0  2  0  0  0  0  0  0  0  0  0
    6.0000   -0.9025    0.0000 C   0  0  2  0  0  0  0  0  0  0  0  0
    6.9060   -0.3887    0.0000 C   0  0  0  0  0  0  0  0  0  0  0  0
    6.0000   -1.9442    0.0000 C   0  0  0  0  0  0  0  0  0  0  0  0
    6.9060   -2.4580    0.0000 C   0  0  0  0  0  0  0  0  0  0  0  0
    8.6660   -0.4233    0.0000 C   0  0  0  0  0  0  0  0  0  0  0  0
    8.6660   -2.4233    0.0000 C   0  0  0  0  0  0  0  0  0  0  0  0
    9.5320   -1.9233    0.0000 C   0  0  0  0  0  0  0  0  0  0  0  0
    9.5320   -0.9233    0.0000 C   0  0  0  0  0  0  0  0  0  0  0  0
    5.0000   -0.8987    0.0000 C   0  0  0  0  0  0  0  0  0  0  0  0
    8.6500    0.6182    0.0000 C   0  0  0  0  0  0  0  0  0  0  0  0
   10.4420   -0.4165    0.0000 C   0  0  0  0  0  0  0  0  0  0  0  0
    4.5033   -0.0307    0.0000 C   0  0  0  0  0  0  0  0  0  0  0  0
    4.4966   -1.7628    0.0000 C   0  0  0  0  0  0  0  0  0  0  0  0
    9.5480    1.1459    0.0000 C   0  0  0  0  0  0  0  0  0  0  0  0
   10.4501    0.6251    0.0000 C   0  0  0  0  0  0  0  0  0  0  0  0
    3.5033   -0.0269    0.0000 C   0  0  0  0  0  0  0  0  0  0  0  0
    3.4966   -1.7589    0.0000 C   0  0  0  0  0  0  0  0  0  0  0  0
   11.3180    1.1218    0.0000 C   0  0  0  0  0  0  0  0  0  0  0  0
    3.0000   -0.8910    0.0000 C   0  0  0  0  0  0  0  0  0  0  0  0
    7.8065   -0.0734    0.0000 H   0  0  0  0  0  0  0  0  0  0  0  0
    7.3106    0.0811    0.0000 H   0  0  0  0  0  0  0  0  0  0  0  0
    6.5124    0.0904    0.0000 H   0  0  0  0  0  0  0  0  0  0  0  0
    5.3891   -1.8380    0.0000 H   0  0  0  0  0  0  0  0  0  0  0  0
    5.7909   -2.5278    0.0000 H   0  0  0  0  0  0  0  0  0  0  0  0
    6.5124   -2.9370    0.0000 H   0  0  0  0  0  0  0  0  0  0  0  0
    7.3106   -2.9278    0.0000 H   0  0  0  0  0  0  0  0  0  0  0  0
    8.2675   -2.8983    0.0000 H   0  0  0  0  0  0  0  0  0  0  0  0
    9.0645   -2.8983    0.0000 H   0  0  0  0  0  0  0  0  0  0  0  0
    9.7441   -2.5059    0.0000 H   0  0  0  0  0  0  0  0  0  0  0  0
   10.1426   -1.8157    0.0000 H   0  0  0  0  0  0  0  0  0  0  0  0
    8.1095    0.9219    0.0000 H   0  0  0  0  0  0  0  0  0  0  0  0
    5.8154    0.5012    0.0000 H   0  0  0  0  0  0  0  0  0  0  0  0
   10.9753   -0.7327    0.0000 H   0  0  0  0  0  0  0  0  0  0  0  0
    4.8154    0.5050    0.0000 H   0  0  0  0  0  0  0  0  0  0  0  0
    4.8046   -2.3009    0.0000 H   0  0  0  0  0  0  0  0  0  0  0  0
    3.1954    0.5113    0.0000 H   0  0  0  0  0  0  0  0  0  0  0  0
    3.1846   -2.2946    0.0000 H   0  0  0  0  0  0  0  0  0  0  0  0
   11.6259    0.5836    0.0000 H   0  0  0  0  0  0  0  0  0  0  0  0
   11.8561    1.4297    0.0000 H   0  0  0  0  0  0  0  0  0  0  0  0
   11.0101    1.6599    0.0000 H   0  0  0  0  0  0  0  0  0  0  0  0
   10.0799    2.4580    0.0000 H   0  0  0  0  0  0  0  0  0  0  0  0
  1 24  1  0  0  0  0
  6  2  1  6  0  0  0
  2 37  1  0  0  0  0
  3 19  1  0  0  0  0
  3 46  1  0  0  0  0
  4  5  1  0  0  0  0
  4  9  1  0  0  0  0
  4 11  1  0  0  0  0
  5  7  1  0  0  0  0
  5 10  1  0  0  0  0
  5 25  1  1  0  0  0
  6  7  1  0  0  0  0
  6  8  1  0  0  0  0
  6 14  1  0  0  0  0
  7 26  1  0  0  0  0
  7 27  1  0  0  0  0
  8  9  1  0  0  0  0
  8 28  1  0  0  0  0
  8 29  1  0  0  0  0
  9 30  1  0  0  0  0
  9 31  1  0  0  0  0
 10 13  2  0  0  0  0
 10 15  1  0  0  0  0
 11 12  1  0  0  0  0
 11 32  1  0  0  0  0
 11 33  1  0  0  0  0
 12 13  1  0  0  0  0
 12 34  1  0  0  0  0
 12 35  1  0  0  0  0
 13 16  1  0  0  0  0
 14 17  2  0  0  0  0
 14 18  1  0  0  0  0
 15 19  2  0  0  0  0
 15 36  1  0  0  0  0
 16 20  2  0  0  0  0
 16 38  1  0  0  0  0
 17 21  1  0  0  0  0
 17 39  1  0  0  0  0
 18 22  2  0  0  0  0
 18 40  1  0  0  0  0
 19 20  1  0  0  0  0
 20 23  1  0  0  0  0
 21 24  2  0  0  0  0
 21 41  1  0  0  0  0
 22 24  1  0  0  0  0
 22 42  1  0  0  0  0
 23 43  1  0  0  0  0
 23 44  1  0  0  0  0
 23 45  1  0  0  0  0
M  END
> <PUBCHEM_COMPOUND_CID>
71563082

> <PUBCHEM_COMPOUND_CANONICALIZED>
1

> <PUBCHEM_CACTVS_COMPLEXITY>
453

> <PUBCHEM_CACTVS_HBOND_ACCEPTOR>
3

> <PUBCHEM_CACTVS_HBOND_DONOR>
2

> <PUBCHEM_CACTVS_ROTATABLE_BOND>
1

> <PUBCHEM_CACTVS_SUBSKEYS>
AAADceB6MAAEAAAAAAAAAAAAAAAAAAAAAAA8eIEAAAAAAACxQAAAHgIACAAADG7BmCQyBoMAAgCAAiBCAACCAAAgJQAIiAAODogIJiKDkxOEcAhmwBGImAewwPAO5AADAAAYAADIAAYAADAAAAAAAAAAAA==

> <PUBCHEM_IUPAC_OPENEYE_NAME>
(2S,11bR)-2-(4-chlorophenyl)-9-methyl-1,3,4,6,7,11b-hexahydrobenzo[a]quinolizine-2,10-diol

> <PUBCHEM_IUPAC_CAS_NAME>
(2S,11bR)-2-(4-chlorophenyl)-9-methyl-1,3,4,6,7,11b-hexahydrobenzo[a]quinolizine-2,10-diol

> <PUBCHEM_IUPAC_NAME_MARKUP>
(2<I>S</I>,11<I>b</I><I>R</I>)-2-(4-chlorophenyl)-9-methyl-1,3,4,6,7,11<I>b</I>-hexahydrobenzo[a]quinolizine-2,10-diol

> <PUBCHEM_IUPAC_NAME>
(2S,11bR)-2-(4-chlorophenyl)-9-methyl-1,3,4,6,7,11b-hexahydrobenzo[a]quinolizine-2,10-diol

> <PUBCHEM_IUPAC_SYSTEMATIC_NAME>
(2S,11bR)-2-(4-chlorophenyl)-9-methyl-1,3,4,6,7,11b-hexahydrobenzo[a]quinolizine-2,10-diol

> <PUBCHEM_IUPAC_TRADITIONAL_NAME>
(2S,11bR)-2-(4-chlorophenyl)-9-methyl-1,3,4,6,7,11b-hexahydrobenzo[a]quinolizine-2,10-diol

> <PUBCHEM_IUPAC_INCHI>
InChI=1S/C20H22ClNO2/c1-13-10-14-6-8-22-9-7-20(24,15-2-4-16(21)5-3-15)12-18(22)17(14)11-19(13)23/h2-5,10-11,18,23-24H,6-9,12H2,1H3/t18-,20+/m1/s1

> <PUBCHEM_IUPAC_INCHIKEY>
BIAZWCDUSGLQRR-QUCCMNQESA-N

> <PUBCHEM_XLOGP3_AA>
3.6

> <PUBCHEM_EXACT_MASS>
343.1339066

> <PUBCHEM_MOLECULAR_FORMULA>
C20H22ClNO2

> <PUBCHEM_MOLECULAR_WEIGHT>
343.8

> <PUBCHEM_OPENEYE_CAN_SMILES>
CC1=CC2=C(C=C1O)C3CC(CCN3CC2)(C4=CC=C(C=C4)Cl)O

> <PUBCHEM_OPENEYE_ISO_SMILES>
CC1=CC2=C(C=C1O)[C@H]3C[C@@](CCN3CC2)(C4=CC=C(C=C4)Cl)O

> <PUBCHEM_CACTVS_TPSA>
43.7

> <PUBCHEM_MONOISOTOPIC_WEIGHT>
343.1339066

> <PUBCHEM_TOTAL_CHARGE>
0

> <PUBCHEM_HEAVY_ATOM_COUNT>
24

> <PUBCHEM_ATOM_DEF_STEREO_COUNT>
2

> <PUBCHEM_ATOM_UDEF_STEREO_COUNT>
0

> <PUBCHEM_BOND_DEF_STEREO_COUNT>
0

> <PUBCHEM_BOND_UDEF_STEREO_COUNT>
0

> <PUBCHEM_ISOTOPIC_ATOM_COUNT>
0

> <PUBCHEM_COMPONENT_COUNT>
1

> <PUBCHEM_CACTVS_TAUTO_COUNT>
-1

> <PUBCHEM_COORDINATE_TYPE>
1
5
255

> <PUBCHEM_BONDANNOTATIONS>
10  13  8
10  15  8
13  16  8
14  17  8
14  18  8
15  19  8
16  20  8
17  21  8
18  22  8
19  20  8
6  2  6
21  24  8
22  24  8
5  25  5

$$$$
