45264056
  -OEChem-09292322152D

 58 60  0     0  0  0  0  0  0999 V2000
   10.0102    7.0045    0.0000 Cl  0  0  0  0  0  0  0  0  0  0  0  0
    2.0981    5.5388    0.0000 O   0  0  0  0  0  0  0  0  0  0  0  0
    0.8660    0.0000    0.0000 O   0  5  0  0  0  0  0  0  0  0  0  0
    0.0000    1.5000    0.0000 O   0  0  0  0  0  0  0  0  0  0  0  0
    4.0480    9.7930    0.0000 N   0  0  0  0  0  0  0  0  0  0  0  0
    5.2235   11.4110    0.0000 N   0  0  0  0  0  0  0  0  0  0  0  0
    1.7891    4.5878    0.0000 N   0  0  0  0  0  0  0  0  0  0  0  0
    0.8660    1.0000    0.0000 N   0  3  0  0  0  0  0  0  0  0  0  0
    3.6412   10.7065    0.0000 C   0  0  0  0  0  0  0  0  0  0  0  0
    5.0425    9.6885    0.0000 C   0  0  0  0  0  0  0  0  0  0  0  0
    4.2290   11.5155    0.0000 C   0  0  0  0  0  0  0  0  0  0  0  0
    5.6303   10.4975    0.0000 C   0  0  0  0  0  0  0  0  0  0  0  0
    3.4602    8.9840    0.0000 C   0  0  0  0  0  0  0  0  0  0  0  0
    3.8669    8.0704    0.0000 C   0  0  0  0  0  0  0  0  0  0  0  0
    3.2791    7.2614    0.0000 C   0  0  0  0  0  0  0  0  0  0  0  0
    5.8113   12.2200    0.0000 C   0  0  0  0  0  0  0  0  0  0  0  0
    3.6859    6.3479    0.0000 C   0  0  0  0  0  0  0  0  0  0  0  0
    5.4046   13.1336    0.0000 C   0  0  0  0  0  0  0  0  0  0  0  0
    6.8058   12.1155    0.0000 C   0  0  0  0  0  0  0  0  0  0  0  0
    3.0981    5.5388    0.0000 C   0  0  0  0  0  0  0  0  0  0  0  0
    5.9924   13.9426    0.0000 C   0  0  0  0  0  0  0  0  0  0  0  0
    7.3936   12.9245    0.0000 C   0  0  0  0  0  0  0  0  0  0  0  0
    3.4071    4.5878    0.0000 C   0  0  0  0  0  0  0  0  0  0  0  0
    6.9869   13.8381    0.0000 C   0  0  0  0  0  0  0  0  0  0  0  0
    2.5981    4.0000    0.0000 C   0  0  0  0  0  0  0  0  0  0  0  0
    2.5981    3.0000    0.0000 C   0  0  0  0  0  0  0  0  0  0  0  0
    1.7320    2.5000    0.0000 C   0  0  0  0  0  0  0  0  0  0  0  0
    3.4641    2.5000    0.0000 C   0  0  0  0  0  0  0  0  0  0  0  0
    1.7320    1.5000    0.0000 C   0  0  0  0  0  0  0  0  0  0  0  0
    3.4641    1.5000    0.0000 C   0  0  0  0  0  0  0  0  0  0  0  0
    2.5981    1.0000    0.0000 C   0  0  0  0  0  0  0  0  0  0  0  0
    3.2105   11.1525    0.0000 H   0  0  0  0  0  0  0  0  0  0  0  0
    3.1272   10.3598    0.0000 H   0  0  0  0  0  0  0  0  0  0  0  0
    4.8716    9.0925    0.0000 H   0  0  0  0  0  0  0  0  0  0  0  0
    5.5997    9.4167    0.0000 H   0  0  0  0  0  0  0  0  0  0  0  0
    4.3999   12.1115    0.0000 H   0  0  0  0  0  0  0  0  0  0  0  0
    3.6718   11.7873    0.0000 H   0  0  0  0  0  0  0  0  0  0  0  0
    6.0610   10.0515    0.0000 H   0  0  0  0  0  0  0  0  0  0  0  0
    6.1443   10.8442    0.0000 H   0  0  0  0  0  0  0  0  0  0  0  0
    3.0295    9.4300    0.0000 H   0  0  0  0  0  0  0  0  0  0  0  0
    2.9462    8.6373    0.0000 H   0  0  0  0  0  0  0  0  0  0  0  0
    4.2976    7.6244    0.0000 H   0  0  0  0  0  0  0  0  0  0  0  0
    4.3809    8.4171    0.0000 H   0  0  0  0  0  0  0  0  0  0  0  0
    2.8484    7.7074    0.0000 H   0  0  0  0  0  0  0  0  0  0  0  0
    2.7651    6.9147    0.0000 H   0  0  0  0  0  0  0  0  0  0  0  0
    4.1166    5.9019    0.0000 H   0  0  0  0  0  0  0  0  0  0  0  0
    4.1999    6.6946    0.0000 H   0  0  0  0  0  0  0  0  0  0  0  0
    4.7880   13.1984    0.0000 H   0  0  0  0  0  0  0  0  0  0  0  0
    7.0580   11.5491    0.0000 H   0  0  0  0  0  0  0  0  0  0  0  0
    5.7402   14.5090    0.0000 H   0  0  0  0  0  0  0  0  0  0  0  0
    8.0102   12.8597    0.0000 H   0  0  0  0  0  0  0  0  0  0  0  0
    3.9968    4.3962    0.0000 H   0  0  0  0  0  0  0  0  0  0  0  0
    7.3513   14.3397    0.0000 H   0  0  0  0  0  0  0  0  0  0  0  0
    1.1951    2.8100    0.0000 H   0  0  0  0  0  0  0  0  0  0  0  0
    4.0010    2.8100    0.0000 H   0  0  0  0  0  0  0  0  0  0  0  0
    4.0010    1.1900    0.0000 H   0  0  0  0  0  0  0  0  0  0  0  0
    2.5981    0.3800    0.0000 H   0  0  0  0  0  0  0  0  0  0  0  0
   11.0102    7.0045    0.0000 H   0  0  0  0  0  0  0  0  0  0  0  0
  1 58  1  0  0  0  0
  2  7  1  0  0  0  0
  2 20  1  0  0  0  0
  3  8  1  0  0  0  0
  4  8  2  0  0  0  0
  5  9  1  0  0  0  0
  5 10  1  0  0  0  0
  5 13  1  0  0  0  0
  6 11  1  0  0  0  0
  6 12  1  0  0  0  0
  6 16  1  0  0  0  0
  7 25  2  0  0  0  0
  8 29  1  0  0  0  0
  9 11  1  0  0  0  0
  9 32  1  0  0  0  0
  9 33  1  0  0  0  0
 10 12  1  0  0  0  0
 10 34  1  0  0  0  0
 10 35  1  0  0  0  0
 11 36  1  0  0  0  0
 11 37  1  0  0  0  0
 12 38  1  0  0  0  0
 12 39  1  0  0  0  0
 13 14  1  0  0  0  0
 13 40  1  0  0  0  0
 13 41  1  0  0  0  0
 14 15  1  0  0  0  0
 14 42  1  0  0  0  0
 14 43  1  0  0  0  0
 15 17  1  0  0  0  0
 15 44  1  0  0  0  0
 15 45  1  0  0  0  0
 16 18  2  0  0  0  0
 16 19  1  0  0  0  0
 17 20  1  0  0  0  0
 17 46  1  0  0  0  0
 17 47  1  0  0  0  0
 18 21  1  0  0  0  0
 18 48  1  0  0  0  0
 19 22  2  0  0  0  0
 19 49  1  0  0  0  0
 20 23  2  0  0  0  0
 21 24  2  0  0  0  0
 21 50  1  0  0  0  0
 22 24  1  0  0  0  0
 22 51  1  0  0  0  0
 23 25  1  0  0  0  0
 23 52  1  0  0  0  0
 24 53  1  0  0  0  0
 25 26  1  0  0  0  0
 26 27  2  0  0  0  0
 26 28  1  0  0  0  0
 27 29  1  0  0  0  0
 27 54  1  0  0  0  0
 28 30  2  0  0  0  0
 28 55  1  0  0  0  0
 29 31  2  0  0  0  0
 30 31  1  0  0  0  0
 30 56  1  0  0  0  0
 31 57  1  0  0  0  0
M  CHG  2   3  -1   8   1
M  END
> <PUBCHEM_COMPOUND_CID>
45264056

> <PUBCHEM_COMPOUND_CANONICALIZED>
1

> <PUBCHEM_CACTVS_COMPLEXITY>
529

> <PUBCHEM_CACTVS_HBOND_ACCEPTOR>
6

> <PUBCHEM_CACTVS_HBOND_DONOR>
1

> <PUBCHEM_CACTVS_ROTATABLE_BOND>
7

> <PUBCHEM_CACTVS_SUBSKEYS>
AAADceB7sAAEAAAAAAAAAAAAAAAAAWAAAAA8YIAAAAAAAAAB0AAAHgAEAAAADAzBngQwxJMQQACpA6RyQwCCAAAlIgAomCE+bNoIZrrAkZOUMYhmgBjIyUeY2eKOAAAAQAAAAAAAAACAAAAAAAAAAAAAAA==

> <PUBCHEM_IUPAC_OPENEYE_NAME>
3-(3-nitrophenyl)-5-[4-(4-phenylpiperazin-1-yl)butyl]isoxazole;hydrochloride

> <PUBCHEM_IUPAC_CAS_NAME>
3-(3-nitrophenyl)-5-[4-(4-phenyl-1-piperazinyl)butyl]isoxazole;hydrochloride

> <PUBCHEM_IUPAC_NAME_MARKUP>
3-(3-nitrophenyl)-5-[4-(4-phenylpiperazin-1-yl)butyl]-1,2-oxazole;hydrochloride

> <PUBCHEM_IUPAC_NAME>
3-(3-nitrophenyl)-5-[4-(4-phenylpiperazin-1-yl)butyl]-1,2-oxazole;hydrochloride

> <PUBCHEM_IUPAC_SYSTEMATIC_NAME>
3-(3-nitrophenyl)-5-[4-(4-phenylpiperazin-1-yl)butyl]-1,2-oxazole;hydrochloride

> <PUBCHEM_IUPAC_TRADITIONAL_NAME>
3-(3-nitrophenyl)-5-[4-(4-phenylpiperazino)butyl]isoxazole;hydrochloride

> <PUBCHEM_IUPAC_INCHI>
InChI=1S/C23H26N4O3.ClH/c28-27(29)21-10-6-7-19(17-21)23-18-22(30-24-23)11-4-5-12-25-13-15-26(16-14-25)20-8-2-1-3-9-20;/h1-3,6-10,17-18H,4-5,11-16H2;1H

> <PUBCHEM_IUPAC_INCHIKEY>
UFMVGWHNIOFXFG-UHFFFAOYSA-N

> <PUBCHEM_EXACT_MASS>
442.1771684

> <PUBCHEM_MOLECULAR_FORMULA>
C23H27ClN4O3

> <PUBCHEM_MOLECULAR_WEIGHT>
442.9

> <PUBCHEM_OPENEYE_CAN_SMILES>
C1CN(CCN1CCCCC2=CC(=NO2)C3=CC(=CC=C3)[N+](=O)[O-])C4=CC=CC=C4.Cl

> <PUBCHEM_OPENEYE_ISO_SMILES>
C1CN(CCN1CCCCC2=CC(=NO2)C3=CC(=CC=C3)[N+](=O)[O-])C4=CC=CC=C4.Cl

> <PUBCHEM_CACTVS_TPSA>
78.3

> <PUBCHEM_MONOISOTOPIC_WEIGHT>
442.1771684

> <PUBCHEM_TOTAL_CHARGE>
0

> <PUBCHEM_HEAVY_ATOM_COUNT>
31

> <PUBCHEM_ATOM_DEF_STEREO_COUNT>
0

> <PUBCHEM_ATOM_UDEF_STEREO_COUNT>
0

> <PUBCHEM_BOND_DEF_STEREO_COUNT>
0

> <PUBCHEM_BOND_UDEF_STEREO_COUNT>
0

> <PUBCHEM_ISOTOPIC_ATOM_COUNT>
0

> <PUBCHEM_COMPONENT_COUNT>
2

> <PUBCHEM_CACTVS_TAUTO_COUNT>
-1

> <PUBCHEM_COORDINATE_TYPE>
1
5
255

> <PUBCHEM_BONDANNOTATIONS>
16  18  8
16  19  8
18  21  8
19  22  8
2  20  8
2  7  8
20  23  8
21  24  8
22  24  8
23  25  8
26  27  8
26  28  8
27  29  8
28  30  8
29  31  8
30  31  8
7  25  8

$$$$
