49781678
  -OEChem-09292322312D

 57 61  0     1  0  0  0  0  0999 V2000
    8.7007   -2.7541    0.0000 S   0  0  0  0  0  0  0  0  0  0  0  0
    7.7668    0.3375    0.0000 N   0  0  0  0  0  0  0  0  0  0  0  0
    6.8991    2.1394    0.0000 N   0  0  0  0  0  0  0  0  0  0  0  0
    8.2007   -0.5635    0.0000 C   0  0  3  0  0  0  0  0  0  0  0  0
    6.7696    0.4122    0.0000 C   0  0  0  0  0  0  0  0  0  0  0  0
    8.3302    1.1637    0.0000 C   0  0  0  0  0  0  0  0  0  0  0  0
    6.3358    1.3132    0.0000 C   0  0  0  0  0  0  0  0  0  0  0  0
    7.8963    2.0647    0.0000 C   0  0  0  0  0  0  0  0  0  0  0  0
    9.2007   -0.5635    0.0000 C   0  0  0  0  0  0  0  0  0  0  0  0
    7.5772   -1.3453    0.0000 C   0  0  0  0  0  0  0  0  0  0  0  0
    9.8242   -1.3453    0.0000 C   0  0  0  0  0  0  0  0  0  0  0  0
    7.7997   -2.3202    0.0000 C   0  0  0  0  0  0  0  0  0  0  0  0
    6.5867   -1.0230    0.0000 C   0  0  0  0  0  0  0  0  0  0  0  0
    6.4652    3.0404    0.0000 C   0  0  0  0  0  0  0  0  0  0  0  0
    9.6017   -2.3202    0.0000 C   0  0  0  0  0  0  0  0  0  0  0  0
    5.8177   -1.7255    0.0000 C   0  0  0  0  0  0  0  0  0  0  0  0
    7.0472   -3.0404    0.0000 C   0  0  0  0  0  0  0  0  0  0  0  0
   10.8147   -1.0230    0.0000 C   0  0  0  0  0  0  0  0  0  0  0  0
    6.0495   -2.7410    0.0000 C   0  0  0  0  0  0  0  0  0  0  0  0
   10.3542   -3.0404    0.0000 C   0  0  0  0  0  0  0  0  0  0  0  0
    4.8633   -1.4271    0.0000 C   0  0  0  0  0  0  0  0  0  0  0  0
   11.5837   -1.7256    0.0000 C   0  0  0  0  0  0  0  0  0  0  0  0
   11.3519   -2.7411    0.0000 C   0  0  0  0  0  0  0  0  0  0  0  0
    4.1276   -2.1044    0.0000 C   0  0  0  0  0  0  0  0  0  0  0  0
    4.6445   -0.4513    0.0000 C   0  0  0  0  0  0  0  0  0  0  0  0
    3.1732   -1.8060    0.0000 C   0  0  0  0  0  0  0  0  0  0  0  0
    3.6901   -0.1529    0.0000 C   0  0  0  0  0  0  0  0  0  0  0  0
    2.9544   -0.8302    0.0000 C   0  0  0  0  0  0  0  0  0  0  0  0
    2.0000   -0.5318    0.0000 C   0  0  0  0  0  0  0  0  0  0  0  0
    8.5306   -0.0385    0.0000 H   0  0  0  0  0  0  0  0  0  0  0  0
    6.1728    0.2443    0.0000 H   0  0  0  0  0  0  0  0  0  0  0  0
    6.8314   -0.2047    0.0000 H   0  0  0  0  0  0  0  0  0  0  0  0
    8.7740    0.7308    0.0000 H   0  0  0  0  0  0  0  0  0  0  0  0
    8.8336    1.5257    0.0000 H   0  0  0  0  0  0  0  0  0  0  0  0
    5.8919    1.7461    0.0000 H   0  0  0  0  0  0  0  0  0  0  0  0
    5.8324    0.9513    0.0000 H   0  0  0  0  0  0  0  0  0  0  0  0
    8.4931    2.2326    0.0000 H   0  0  0  0  0  0  0  0  0  0  0  0
    7.8346    2.6816    0.0000 H   0  0  0  0  0  0  0  0  0  0  0  0
    9.7593   -0.2945    0.0000 H   0  0  0  0  0  0  0  0  0  0  0  0
    9.0628    0.0410    0.0000 H   0  0  0  0  0  0  0  0  0  0  0  0
    6.4558   -0.4169    0.0000 H   0  0  0  0  0  0  0  0  0  0  0  0
    7.0238    3.3094    0.0000 H   0  0  0  0  0  0  0  0  0  0  0  0
    6.1962    3.5990    0.0000 H   0  0  0  0  0  0  0  0  0  0  0  0
    5.9066    2.7714    0.0000 H   0  0  0  0  0  0  0  0  0  0  0  0
    7.1921   -3.6432    0.0000 H   0  0  0  0  0  0  0  0  0  0  0  0
   10.9457   -0.4170    0.0000 H   0  0  0  0  0  0  0  0  0  0  0  0
    5.5966   -3.1645    0.0000 H   0  0  0  0  0  0  0  0  0  0  0  0
   10.2093   -3.6432    0.0000 H   0  0  0  0  0  0  0  0  0  0  0  0
   12.1755   -1.5405    0.0000 H   0  0  0  0  0  0  0  0  0  0  0  0
   11.8048   -3.1645    0.0000 H   0  0  0  0  0  0  0  0  0  0  0  0
    4.2632   -2.7094    0.0000 H   0  0  0  0  0  0  0  0  0  0  0  0
    5.1006   -0.0314    0.0000 H   0  0  0  0  0  0  0  0  0  0  0  0
    2.7171   -2.2259    0.0000 H   0  0  0  0  0  0  0  0  0  0  0  0
    3.5545    0.4521    0.0000 H   0  0  0  0  0  0  0  0  0  0  0  0
    2.1850    0.0600    0.0000 H   0  0  0  0  0  0  0  0  0  0  0  0
    1.4083   -0.3467    0.0000 H   0  0  0  0  0  0  0  0  0  0  0  0
    1.8150   -1.1235    0.0000 H   0  0  0  0  0  0  0  0  0  0  0  0
  1 12  1  0  0  0  0
  1 15  1  0  0  0  0
  2  4  1  0  0  0  0
  2  5  1  0  0  0  0
  2  6  1  0  0  0  0
  3  7  1  0  0  0  0
  3  8  1  0  0  0  0
  3 14  1  0  0  0  0
  4  9  1  0  0  0  0
  4 10  1  0  0  0  0
  4 30  1  0  0  0  0
  5  7  1  0  0  0  0
  5 31  1  0  0  0  0
  5 32  1  0  0  0  0
  6  8  1  0  0  0  0
  6 33  1  0  0  0  0
  6 34  1  0  0  0  0
  7 35  1  0  0  0  0
  7 36  1  0  0  0  0
  8 37  1  0  0  0  0
  8 38  1  0  0  0  0
  9 11  1  0  0  0  0
  9 39  1  0  0  0  0
  9 40  1  0  0  0  0
 10 12  2  0  0  0  0
 10 13  1  0  0  0  0
 11 15  1  0  0  0  0
 11 18  2  0  0  0  0
 12 17  1  0  0  0  0
 13 16  2  0  0  0  0
 13 41  1  0  0  0  0
 14 42  1  0  0  0  0
 14 43  1  0  0  0  0
 14 44  1  0  0  0  0
 15 20  2  0  0  0  0
 16 19  1  0  0  0  0
 16 21  1  0  0  0  0
 17 19  2  0  0  0  0
 17 45  1  0  0  0  0
 18 22  1  0  0  0  0
 18 46  1  0  0  0  0
 19 47  1  0  0  0  0
 20 23  1  0  0  0  0
 20 48  1  0  0  0  0
 21 24  2  0  0  0  0
 21 25  1  0  0  0  0
 22 23  2  0  0  0  0
 22 49  1  0  0  0  0
 23 50  1  0  0  0  0
 24 26  1  0  0  0  0
 24 51  1  0  0  0  0
 25 27  2  0  0  0  0
 25 52  1  0  0  0  0
 26 28  2  0  0  0  0
 26 53  1  0  0  0  0
 27 28  1  0  0  0  0
 27 54  1  0  0  0  0
 28 29  1  0  0  0  0
 29 55  1  0  0  0  0
 29 56  1  0  0  0  0
 29 57  1  0  0  0  0
M  END
> <PUBCHEM_COMPOUND_CID>
49781678

> <PUBCHEM_COMPOUND_CANONICALIZED>
1

> <PUBCHEM_CACTVS_COMPLEXITY>
523

> <PUBCHEM_CACTVS_HBOND_ACCEPTOR>
3

> <PUBCHEM_CACTVS_HBOND_DONOR>
0

> <PUBCHEM_CACTVS_ROTATABLE_BOND>
2

> <PUBCHEM_CACTVS_SUBSKEYS>
AAADceB7AABAAAAAAAAAAAAAAAAAAAAAAAA8YMEABIAAAAABUAAAHAQAAAAADCjBWAQyAYMAAAiAAiBCAACCAAAgCBAIiBgIBIgIYCKgkRGUIAhggACoiAcQgMAO0AACAAAEAACgAAQAAAgAAAAAAAAAAA==

> <PUBCHEM_IUPAC_OPENEYE_NAME>
1-methyl-4-[3-(p-tolyl)-5,6-dihydrobenzo[b][1]benzothiepin-5-yl]piperazine

> <PUBCHEM_IUPAC_CAS_NAME>
1-methyl-4-[3-(4-methylphenyl)-5,6-dihydrobenzo[b][1]benzothiepin-5-yl]piperazine

> <PUBCHEM_IUPAC_NAME_MARKUP>
1-methyl-4-[3-(4-methylphenyl)-5,6-dihydrobenzo[b][1]benzothiepin-5-yl]piperazine

> <PUBCHEM_IUPAC_NAME>
1-methyl-4-[3-(4-methylphenyl)-5,6-dihydrobenzo[b][1]benzothiepin-5-yl]piperazine

> <PUBCHEM_IUPAC_SYSTEMATIC_NAME>
1-methyl-4-[3-(4-methylphenyl)-5,6-dihydrobenzo[b][1]benzothiepin-5-yl]piperazine

> <PUBCHEM_IUPAC_TRADITIONAL_NAME>
1-methyl-4-[3-(p-tolyl)-5,6-dihydrobenzo[b][1]benzothiepin-5-yl]piperazine

> <PUBCHEM_IUPAC_INCHI>
InChI=1S/C26H28N2S/c1-19-7-9-20(10-8-19)21-11-12-26-23(17-21)24(28-15-13-27(2)14-16-28)18-22-5-3-4-6-25(22)29-26/h3-12,17,24H,13-16,18H2,1-2H3

> <PUBCHEM_IUPAC_INCHIKEY>
ACJNHQLAGNWKBM-UHFFFAOYSA-N

> <PUBCHEM_XLOGP3_AA>
5.7

> <PUBCHEM_EXACT_MASS>
400.19732008

> <PUBCHEM_MOLECULAR_FORMULA>
C26H28N2S

> <PUBCHEM_MOLECULAR_WEIGHT>
400.6

> <PUBCHEM_OPENEYE_CAN_SMILES>
CC1=CC=C(C=C1)C2=CC3=C(C=C2)SC4=CC=CC=C4CC3N5CCN(CC5)C

> <PUBCHEM_OPENEYE_ISO_SMILES>
CC1=CC=C(C=C1)C2=CC3=C(C=C2)SC4=CC=CC=C4CC3N5CCN(CC5)C

> <PUBCHEM_CACTVS_TPSA>
31.8

> <PUBCHEM_MONOISOTOPIC_WEIGHT>
400.19732008

> <PUBCHEM_TOTAL_CHARGE>
0

> <PUBCHEM_HEAVY_ATOM_COUNT>
29

> <PUBCHEM_ATOM_DEF_STEREO_COUNT>
0

> <PUBCHEM_ATOM_UDEF_STEREO_COUNT>
1

> <PUBCHEM_BOND_DEF_STEREO_COUNT>
0

> <PUBCHEM_BOND_UDEF_STEREO_COUNT>
0

> <PUBCHEM_ISOTOPIC_ATOM_COUNT>
0

> <PUBCHEM_COMPONENT_COUNT>
1

> <PUBCHEM_CACTVS_TAUTO_COUNT>
-1

> <PUBCHEM_COORDINATE_TYPE>
1
5
255

> <PUBCHEM_BONDANNOTATIONS>
10  12  8
10  13  8
11  15  8
11  18  8
12  17  8
13  16  8
15  20  8
16  19  8
17  19  8
18  22  8
4  2  3
20  23  8
21  24  8
21  25  8
22  23  8
24  26  8
25  27  8
26  28  8
27  28  8

$$$$
