9889149
  -OEChem-09292322032D

 59 63  0     1  0  0  0  0  0999 V2000
    4.0000   -2.0374    0.0000 Si  0  0  0  0  0  0  0  0  0  0  0  0
    2.0000   -5.5015    0.0000 F   0  0  0  0  0  0  0  0  0  0  0  0
    7.8042   -3.2734    0.0000 F   0  0  0  0  0  0  0  0  0  0  0  0
    3.5000    0.5015    0.0000 N   0  0  0  0  0  0  0  0  0  0  0  0
    3.5000    2.5015    0.0000 N   0  0  0  0  0  0  0  0  0  0  0  0
    3.5000   -0.4985    0.0000 C   0  0  3  0  0  0  0  0  0  0  0  0
    4.3090   -1.0863    0.0000 C   0  0  0  0  0  0  0  0  0  0  0  0
    3.0000   -2.0374    0.0000 C   0  0  0  0  0  0  0  0  0  0  0  0
    2.6909   -1.0863    0.0000 C   0  0  0  0  0  0  0  0  0  0  0  0
    3.5000   -2.9034    0.0000 C   0  0  0  0  0  0  0  0  0  0  0  0
    4.9510   -2.3464    0.0000 C   0  0  0  0  0  0  0  0  0  0  0  0
    2.6339    1.0015    0.0000 C   0  0  0  0  0  0  0  0  0  0  0  0
    4.3660    1.0015    0.0000 C   0  0  0  0  0  0  0  0  0  0  0  0
    2.6339    2.0015    0.0000 C   0  0  0  0  0  0  0  0  0  0  0  0
    4.3660    2.0015    0.0000 C   0  0  0  0  0  0  0  0  0  0  0  0
    2.5000   -2.9034    0.0000 C   0  0  0  0  0  0  0  0  0  0  0  0
    5.6942   -1.6772    0.0000 C   0  0  0  0  0  0  0  0  0  0  0  0
    4.0000   -3.7694    0.0000 C   0  0  0  0  0  0  0  0  0  0  0  0
    5.1589   -3.3245    0.0000 C   0  0  0  0  0  0  0  0  0  0  0  0
    3.5000    3.5015    0.0000 C   0  0  0  0  0  0  0  0  0  0  0  0
    2.0000   -3.7694    0.0000 C   0  0  0  0  0  0  0  0  0  0  0  0
    6.6452   -1.9862    0.0000 C   0  0  0  0  0  0  0  0  0  0  0  0
    3.5000   -4.6354    0.0000 C   0  0  0  0  0  0  0  0  0  0  0  0
    6.1100   -3.6335    0.0000 C   0  0  0  0  0  0  0  0  0  0  0  0
    2.5000   -4.6355    0.0000 C   0  0  0  0  0  0  0  0  0  0  0  0
    6.8531   -2.9644    0.0000 C   0  0  0  0  0  0  0  0  0  0  0  0
    4.3660    4.0015    0.0000 C   0  0  0  0  0  0  0  0  0  0  0  0
    2.6339    4.0015    0.0000 C   0  0  0  0  0  0  0  0  0  0  0  0
    4.3660    5.0015    0.0000 C   0  0  0  0  0  0  0  0  0  0  0  0
    2.6339    5.0015    0.0000 C   0  0  0  0  0  0  0  0  0  0  0  0
    3.5000    5.5015    0.0000 C   0  0  0  0  0  0  0  0  0  0  0  0
    2.9475   -0.2170    0.0000 H   0  0  0  0  0  0  0  0  0  0  0  0
    4.8754   -1.3385    0.0000 H   0  0  0  0  0  0  0  0  0  0  0  0
    4.6190   -0.5494    0.0000 H   0  0  0  0  0  0  0  0  0  0  0  0
    2.3935   -2.1662    0.0000 H   0  0  0  0  0  0  0  0  0  0  0  0
    3.0648   -2.6540    0.0000 H   0  0  0  0  0  0  0  0  0  0  0  0
    2.3809   -0.5494    0.0000 H   0  0  0  0  0  0  0  0  0  0  0  0
    2.1245   -1.3385    0.0000 H   0  0  0  0  0  0  0  0  0  0  0  0
    2.0234    1.1092    0.0000 H   0  0  0  0  0  0  0  0  0  0  0  0
    2.4219    0.4189    0.0000 H   0  0  0  0  0  0  0  0  0  0  0  0
    4.5780    0.4189    0.0000 H   0  0  0  0  0  0  0  0  0  0  0  0
    4.9766    1.1092    0.0000 H   0  0  0  0  0  0  0  0  0  0  0  0
    2.4219    2.5841    0.0000 H   0  0  0  0  0  0  0  0  0  0  0  0
    2.0234    1.8938    0.0000 H   0  0  0  0  0  0  0  0  0  0  0  0
    4.9766    1.8938    0.0000 H   0  0  0  0  0  0  0  0  0  0  0  0
    4.5780    2.5841    0.0000 H   0  0  0  0  0  0  0  0  0  0  0  0
    2.1900   -2.3665    0.0000 H   0  0  0  0  0  0  0  0  0  0  0  0
    5.5653   -1.0708    0.0000 H   0  0  0  0  0  0  0  0  0  0  0  0
    4.6200   -3.7694    0.0000 H   0  0  0  0  0  0  0  0  0  0  0  0
    4.6982   -3.7394    0.0000 H   0  0  0  0  0  0  0  0  0  0  0  0
    1.3800   -3.7695    0.0000 H   0  0  0  0  0  0  0  0  0  0  0  0
    7.1060   -1.5714    0.0000 H   0  0  0  0  0  0  0  0  0  0  0  0
    3.8100   -5.1724    0.0000 H   0  0  0  0  0  0  0  0  0  0  0  0
    6.2389   -4.2400    0.0000 H   0  0  0  0  0  0  0  0  0  0  0  0
    4.9029    3.6915    0.0000 H   0  0  0  0  0  0  0  0  0  0  0  0
    2.0970    3.6915    0.0000 H   0  0  0  0  0  0  0  0  0  0  0  0
    4.9029    5.3115    0.0000 H   0  0  0  0  0  0  0  0  0  0  0  0
    2.0970    5.3115    0.0000 H   0  0  0  0  0  0  0  0  0  0  0  0
    3.5000    6.1215    0.0000 H   0  0  0  0  0  0  0  0  0  0  0  0
  1  7  1  0  0  0  0
  1  8  1  0  0  0  0
  1 10  1  0  0  0  0
  1 11  1  0  0  0  0
  2 25  1  0  0  0  0
  3 26  1  0  0  0  0
  4  6  1  0  0  0  0
  4 12  1  0  0  0  0
  4 13  1  0  0  0  0
  5 14  1  0  0  0  0
  5 15  1  0  0  0  0
  5 20  1  0  0  0  0
  6  7  1  0  0  0  0
  6  9  1  0  0  0  0
  6 32  1  0  0  0  0
  7 33  1  0  0  0  0
  7 34  1  0  0  0  0
  8  9  1  0  0  0  0
  8 35  1  0  0  0  0
  8 36  1  0  0  0  0
  9 37  1  0  0  0  0
  9 38  1  0  0  0  0
 10 16  2  0  0  0  0
 10 18  1  0  0  0  0
 11 17  2  0  0  0  0
 11 19  1  0  0  0  0
 12 14  1  0  0  0  0
 12 39  1  0  0  0  0
 12 40  1  0  0  0  0
 13 15  1  0  0  0  0
 13 41  1  0  0  0  0
 13 42  1  0  0  0  0
 14 43  1  0  0  0  0
 14 44  1  0  0  0  0
 15 45  1  0  0  0  0
 15 46  1  0  0  0  0
 16 21  1  0  0  0  0
 16 47  1  0  0  0  0
 17 22  1  0  0  0  0
 17 48  1  0  0  0  0
 18 23  2  0  0  0  0
 18 49  1  0  0  0  0
 19 24  2  0  0  0  0
 19 50  1  0  0  0  0
 20 27  2  0  0  0  0
 20 28  1  0  0  0  0
 21 25  2  0  0  0  0
 21 51  1  0  0  0  0
 22 26  2  0  0  0  0
 22 52  1  0  0  0  0
 23 25  1  0  0  0  0
 23 53  1  0  0  0  0
 24 26  1  0  0  0  0
 24 54  1  0  0  0  0
 27 29  1  0  0  0  0
 27 55  1  0  0  0  0
 28 30  2  0  0  0  0
 28 56  1  0  0  0  0
 29 31  2  0  0  0  0
 29 57  1  0  0  0  0
 30 31  1  0  0  0  0
 30 58  1  0  0  0  0
 31 59  1  0  0  0  0
M  END
> <PUBCHEM_COMPOUND_CID>
9889149

> <PUBCHEM_COMPOUND_CANONICALIZED>
1

> <PUBCHEM_CACTVS_COMPLEXITY>
538

> <PUBCHEM_CACTVS_HBOND_ACCEPTOR>
4

> <PUBCHEM_CACTVS_HBOND_DONOR>
0

> <PUBCHEM_CACTVS_ROTATABLE_BOND>
4

> <PUBCHEM_CACTVS_SUBSKEYS>
AAADceB7AYgAAAAAAAAAAAAAAAAAASAAAAA8YMEAAAAAAAABUAAAHRAAAAAACCjBMAxwwIMAAAGAACRCQACCAAAhAgAIiAAIZIgIYCLAkZGUIAhggADIyAcQAAAAAAAAAAAAAAAAAAAAAAAAAAAAAAAAAA==

> <PUBCHEM_IUPAC_OPENEYE_NAME>
1-[1,1-bis(4-fluorophenyl)silolan-3-yl]-4-phenyl-piperazine

> <PUBCHEM_IUPAC_CAS_NAME>
1-[1,1-bis(4-fluorophenyl)-3-silolanyl]-4-phenylpiperazine

> <PUBCHEM_IUPAC_NAME_MARKUP>
1-[1,1-bis(4-fluorophenyl)silolan-3-yl]-4-phenylpiperazine

> <PUBCHEM_IUPAC_NAME>
1-[1,1-bis(4-fluorophenyl)silolan-3-yl]-4-phenylpiperazine

> <PUBCHEM_IUPAC_SYSTEMATIC_NAME>
1-[1,1-bis(4-fluorophenyl)silolan-3-yl]-4-phenyl-piperazine

> <PUBCHEM_IUPAC_TRADITIONAL_NAME>
1-[1,1-bis(4-fluorophenyl)silolan-3-yl]-4-phenyl-piperazine

> <PUBCHEM_IUPAC_INCHI>
InChI=1S/C26H28F2N2Si/c27-21-6-10-25(11-7-21)31(26-12-8-22(28)9-13-26)19-14-24(20-31)30-17-15-29(16-18-30)23-4-2-1-3-5-23/h1-13,24H,14-20H2

> <PUBCHEM_IUPAC_INCHIKEY>
SUBRNIMHHUWIJU-UHFFFAOYSA-N

> <PUBCHEM_EXACT_MASS>
434.19898176

> <PUBCHEM_MOLECULAR_FORMULA>
C26H28F2N2Si

> <PUBCHEM_MOLECULAR_WEIGHT>
434.6

> <PUBCHEM_OPENEYE_CAN_SMILES>
C1C[Si](CC1N2CCN(CC2)C3=CC=CC=C3)(C4=CC=C(C=C4)F)C5=CC=C(C=C5)F

> <PUBCHEM_OPENEYE_ISO_SMILES>
C1C[Si](CC1N2CCN(CC2)C3=CC=CC=C3)(C4=CC=C(C=C4)F)C5=CC=C(C=C5)F

> <PUBCHEM_CACTVS_TPSA>
6.5

> <PUBCHEM_MONOISOTOPIC_WEIGHT>
434.19898176

> <PUBCHEM_TOTAL_CHARGE>
0

> <PUBCHEM_HEAVY_ATOM_COUNT>
31

> <PUBCHEM_ATOM_DEF_STEREO_COUNT>
0

> <PUBCHEM_ATOM_UDEF_STEREO_COUNT>
1

> <PUBCHEM_BOND_DEF_STEREO_COUNT>
0

> <PUBCHEM_BOND_UDEF_STEREO_COUNT>
0

> <PUBCHEM_ISOTOPIC_ATOM_COUNT>
0

> <PUBCHEM_COMPONENT_COUNT>
1

> <PUBCHEM_CACTVS_TAUTO_COUNT>
-1

> <PUBCHEM_COORDINATE_TYPE>
1
5
255

> <PUBCHEM_BONDANNOTATIONS>
10  16  8
10  18  8
11  17  8
11  19  8
16  21  8
17  22  8
18  23  8
19  24  8
20  27  8
20  28  8
21  25  8
22  26  8
23  25  8
24  26  8
27  29  8
28  30  8
29  31  8
30  31  8
6  4  3

$$$$
