213046
  -OEChem-09292322402D

 71 77  0     1  0  0  0  0  0999 V2000
   13.3280   -1.1874    0.0000 S   0  0  0  0  0  0  0  0  0  0  0  0
    4.2847   -0.2959    0.0000 O   0  0  0  0  0  0  0  0  0  0  0  0
    5.4854    3.0029    0.0000 O   0  0  0  0  0  0  0  0  0  0  0  0
    5.1415    1.2601    0.0000 N   0  0  0  0  0  0  0  0  0  0  0  0
    8.9003   -0.1079    0.0000 N   0  0  0  0  0  0  0  0  0  0  0  0
   10.7797   -0.7920    0.0000 N   0  0  0  0  0  0  0  0  0  0  0  0
   12.5430   -0.5774    0.0000 N   0  0  0  0  0  0  0  0  0  0  0  0
    2.1602    1.9055    0.0000 C   0  0  1  0  0  0  0  0  0  0  0  0
    1.9014    2.8715    0.0000 C   0  0  2  0  0  0  0  0  0  0  0  0
    3.5330    1.3135    0.0000 C   0  0  1  0  0  0  0  0  0  0  0  0
    3.8750    2.2532    0.0000 C   0  0  2  0  0  0  0  0  0  0  0  0
    2.6380    3.8541    0.0000 C   0  0  0  0  0  0  0  0  0  0  0  0
    0.7613    1.3967    0.0000 C   0  0  0  0  0  0  0  0  0  0  0  0
    0.5025    2.3626    0.0000 C   0  0  0  0  0  0  0  0  0  0  0  0
    4.3179    0.7035    0.0000 C   0  0  0  0  0  0  0  0  0  0  0  0
    4.8684    2.2159    0.0000 C   0  0  0  0  0  0  0  0  0  0  0  0
    6.0812    0.9181    0.0000 C   0  0  0  0  0  0  0  0  0  0  0  0
    6.8473    1.5609    0.0000 C   0  0  1  0  0  0  0  0  0  0  0  0
    7.7870    1.2189    0.0000 C   0  0  1  0  0  0  0  0  0  0  0  0
    6.6736    2.5457    0.0000 C   0  0  0  0  0  0  0  0  0  0  0  0
    8.5530    1.8617    0.0000 C   0  0  0  0  0  0  0  0  0  0  0  0
    7.4397    3.1885    0.0000 C   0  0  0  0  0  0  0  0  0  0  0  0
    7.9606    0.2341    0.0000 C   0  0  0  0  0  0  0  0  0  0  0  0
    8.3794    2.8465    0.0000 C   0  0  0  0  0  0  0  0  0  0  0  0
    9.6663    0.5348    0.0000 C   0  0  0  0  0  0  0  0  0  0  0  0
    9.0740   -1.0928    0.0000 C   0  0  0  0  0  0  0  0  0  0  0  0
   10.6060    0.1928    0.0000 C   0  0  0  0  0  0  0  0  0  0  0  0
   10.0136   -1.4348    0.0000 C   0  0  0  0  0  0  0  0  0  0  0  0
   11.7194   -1.1340    0.0000 C   0  0  0  0  0  0  0  0  0  0  0  0
   11.9926   -2.0898    0.0000 C   0  0  0  0  0  0  0  0  0  0  0  0
   12.9920   -2.1230    0.0000 C   0  0  0  0  0  0  0  0  0  0  0  0
   11.4641   -2.9388    0.0000 C   0  0  0  0  0  0  0  0  0  0  0  0
   13.4630   -3.0051    0.0000 C   0  0  0  0  0  0  0  0  0  0  0  0
   11.9351   -3.8209    0.0000 C   0  0  0  0  0  0  0  0  0  0  0  0
   12.9346   -3.8541    0.0000 C   0  0  0  0  0  0  0  0  0  0  0  0
    2.3802    1.0845    0.0000 H   0  0  0  0  0  0  0  0  0  0  0  0
    1.6814    3.6925    0.0000 H   0  0  0  0  0  0  0  0  0  0  0  0
    3.2422    0.5148    0.0000 H   0  0  0  0  0  0  0  0  0  0  0  0
    4.1657    3.0520    0.0000 H   0  0  0  0  0  0  0  0  0  0  0  0
    2.3202    4.3864    0.0000 H   0  0  0  0  0  0  0  0  0  0  0  0
    3.2512    3.9460    0.0000 H   0  0  0  0  0  0  0  0  0  0  0  0
    0.9562    0.8082    0.0000 H   0  0  0  0  0  0  0  0  0  0  0  0
    0.1673    1.2190    0.0000 H   0  0  0  0  0  0  0  0  0  0  0  0
   -0.0915    2.1849    0.0000 H   0  0  0  0  0  0  0  0  0  0  0  0
    0.3076    2.9512    0.0000 H   0  0  0  0  0  0  0  0  0  0  0  0
    6.5562    0.5196    0.0000 H   0  0  0  0  0  0  0  0  0  0  0  0
    5.7712    0.3812    0.0000 H   0  0  0  0  0  0  0  0  0  0  0  0
    6.9549    0.9503    0.0000 H   0  0  0  0  0  0  0  0  0  0  0  0
    8.3696    1.0068    0.0000 H   0  0  0  0  0  0  0  0  0  0  0  0
    6.0910    2.3337    0.0000 H   0  0  0  0  0  0  0  0  0  0  0  0
    6.3636    3.0826    0.0000 H   0  0  0  0  0  0  0  0  0  0  0  0
    9.1356    2.0737    0.0000 H   0  0  0  0  0  0  0  0  0  0  0  0
    8.8630    1.3247    0.0000 H   0  0  0  0  0  0  0  0  0  0  0  0
    6.9647    3.5870    0.0000 H   0  0  0  0  0  0  0  0  0  0  0  0
    7.7497    3.7254    0.0000 H   0  0  0  0  0  0  0  0  0  0  0  0
    7.8529   -0.3765    0.0000 H   0  0  0  0  0  0  0  0  0  0  0  0
    7.3406    0.2341    0.0000 H   0  0  0  0  0  0  0  0  0  0  0  0
    8.4870    3.4571    0.0000 H   0  0  0  0  0  0  0  0  0  0  0  0
    8.9994    2.8465    0.0000 H   0  0  0  0  0  0  0  0  0  0  0  0
    9.1914    0.9334    0.0000 H   0  0  0  0  0  0  0  0  0  0  0  0
    9.9763    1.0718    0.0000 H   0  0  0  0  0  0  0  0  0  0  0  0
    8.9663   -1.7033    0.0000 H   0  0  0  0  0  0  0  0  0  0  0  0
    8.4540   -1.0928    0.0000 H   0  0  0  0  0  0  0  0  0  0  0  0
   10.7137    0.8034    0.0000 H   0  0  0  0  0  0  0  0  0  0  0  0
   11.2260    0.1928    0.0000 H   0  0  0  0  0  0  0  0  0  0  0  0
   10.4886   -1.8333    0.0000 H   0  0  0  0  0  0  0  0  0  0  0  0
    9.7036   -1.9717    0.0000 H   0  0  0  0  0  0  0  0  0  0  0  0
   10.8444   -2.9182    0.0000 H   0  0  0  0  0  0  0  0  0  0  0  0
   14.0827   -3.0257    0.0000 H   0  0  0  0  0  0  0  0  0  0  0  0
   11.6075   -4.3473    0.0000 H   0  0  0  0  0  0  0  0  0  0  0  0
   13.2266   -4.4010    0.0000 H   0  0  0  0  0  0  0  0  0  0  0  0
  1  7  1  0  0  0  0
  1 31  1  0  0  0  0
  2 15  2  0  0  0  0
  3 16  2  0  0  0  0
  4 15  1  0  0  0  0
  4 16  1  0  0  0  0
  4 17  1  0  0  0  0
  5 23  1  0  0  0  0
  5 25  1  0  0  0  0
  5 26  1  0  0  0  0
  6 27  1  0  0  0  0
  6 28  1  0  0  0  0
  6 29  1  0  0  0  0
  7 29  2  0  0  0  0
  8 10  1  0  0  0  0
  8 12  1  0  0  0  0
  8 13  1  0  0  0  0
  8 36  1  1  0  0  0
  9 11  1  0  0  0  0
  9 12  1  0  0  0  0
  9 14  1  0  0  0  0
  9 37  1  6  0  0  0
 10 11  1  0  0  0  0
 10 15  1  0  0  0  0
 10 38  1  6  0  0  0
 11 16  1  0  0  0  0
 11 39  1  6  0  0  0
 12 40  1  0  0  0  0
 12 41  1  0  0  0  0
 13 14  1  0  0  0  0
 13 42  1  0  0  0  0
 13 43  1  0  0  0  0
 14 44  1  0  0  0  0
 14 45  1  0  0  0  0
 18 17  1  6  0  0  0
 17 46  1  0  0  0  0
 17 47  1  0  0  0  0
 18 19  1  0  0  0  0
 18 20  1  0  0  0  0
 18 48  1  0  0  0  0
 19 21  1  0  0  0  0
 19 23  1  1  0  0  0
 19 49  1  0  0  0  0
 20 22  1  0  0  0  0
 20 50  1  0  0  0  0
 20 51  1  0  0  0  0
 21 24  1  0  0  0  0
 21 52  1  0  0  0  0
 21 53  1  0  0  0  0
 22 24  1  0  0  0  0
 22 54  1  0  0  0  0
 22 55  1  0  0  0  0
 23 56  1  0  0  0  0
 23 57  1  0  0  0  0
 24 58  1  0  0  0  0
 24 59  1  0  0  0  0
 25 27  1  0  0  0  0
 25 60  1  0  0  0  0
 25 61  1  0  0  0  0
 26 28  1  0  0  0  0
 26 62  1  0  0  0  0
 26 63  1  0  0  0  0
 27 64  1  0  0  0  0
 27 65  1  0  0  0  0
 28 66  1  0  0  0  0
 28 67  1  0  0  0  0
 29 30  1  0  0  0  0
 30 31  1  0  0  0  0
 30 32  2  0  0  0  0
 31 33  2  0  0  0  0
 32 34  1  0  0  0  0
 32 68  1  0  0  0  0
 33 35  1  0  0  0  0
 33 69  1  0  0  0  0
 34 35  2  0  0  0  0
 34 70  1  0  0  0  0
 35 71  1  0  0  0  0
M  END
> <PUBCHEM_COMPOUND_CID>
213046

> <PUBCHEM_COMPOUND_CANONICALIZED>
1

> <PUBCHEM_CACTVS_COMPLEXITY>
804

> <PUBCHEM_CACTVS_HBOND_ACCEPTOR>
6

> <PUBCHEM_CACTVS_HBOND_DONOR>
0

> <PUBCHEM_CACTVS_ROTATABLE_BOND>
5

> <PUBCHEM_CACTVS_SUBSKEYS>
AAADcfB7sABAAAAAAAAAAAAAAAAAAePECAA8YMEAAAAWAFgB8AAAHgQAQAAADQDB2gQxsdMAAACsAiNycACDABAhAABJmDkoRJiIYLLAmZGUIAxghiLIyAcdiMCOgAAAAAAEAAAAAAQAACgAAQAACAAAAA==

> <PUBCHEM_IUPAC_OPENEYE_NAME>
(1R,2S,6R,7S)-4-[[(1R,2R)-2-[[4-(1,2-benzothiazol-3-yl)piperazin-1-yl]methyl]cyclohexyl]methyl]-4-azatricyclo[5.2.1.02,6]decane-3,5-dione

> <PUBCHEM_IUPAC_CAS_NAME>
(1R,2S,6R,7S)-4-[[(1R,2R)-2-[[4-(1,2-benzothiazol-3-yl)-1-piperazinyl]methyl]cyclohexyl]methyl]-4-azatricyclo[5.2.1.02,6]decane-3,5-dione

> <PUBCHEM_IUPAC_NAME_MARKUP>
(1<I>R</I>,2<I>S</I>,6<I>R</I>,7<I>S</I>)-4-[[(1<I>R</I>,2<I>R</I>)-2-[[4-(1,2-benzothiazol-3-yl)piperazin-1-yl]methyl]cyclohexyl]methyl]-4-azatricyclo[5.2.1.0<SUP>2,6</SUP>]decane-3,5-dione

> <PUBCHEM_IUPAC_NAME>
(1R,2S,6R,7S)-4-[[(1R,2R)-2-[[4-(1,2-benzothiazol-3-yl)piperazin-1-yl]methyl]cyclohexyl]methyl]-4-azatricyclo[5.2.1.02,6]decane-3,5-dione

> <PUBCHEM_IUPAC_SYSTEMATIC_NAME>
(1R,2S,6R,7S)-4-[[(1R,2R)-2-[[4-(1,2-benzothiazol-3-yl)piperazin-1-yl]methyl]cyclohexyl]methyl]-4-azatricyclo[5.2.1.02,6]decane-3,5-dione

> <PUBCHEM_IUPAC_TRADITIONAL_NAME>
(1R,2S,6R,7S)-4-[[(1R,2R)-2-[[4-(1,2-benzothiazol-3-yl)piperazino]methyl]cyclohexyl]methyl]-4-azatricyclo[5.2.1.02,6]decane-3,5-quinone

> <PUBCHEM_IUPAC_INCHI>
InChI=1S/C28H36N4O2S/c33-27-24-18-9-10-19(15-18)25(24)28(34)32(27)17-21-6-2-1-5-20(21)16-30-11-13-31(14-12-30)26-22-7-3-4-8-23(22)35-29-26/h3-4,7-8,18-21,24-25H,1-2,5-6,9-17H2/t18-,19+,20-,21-,24+,25-/m0/s1

> <PUBCHEM_IUPAC_INCHIKEY>
PQXKDMSYBGKCJA-CVTJIBDQSA-N

> <PUBCHEM_XLOGP3_AA>
5.4

> <PUBCHEM_EXACT_MASS>
492.25589758

> <PUBCHEM_MOLECULAR_FORMULA>
C28H36N4O2S

> <PUBCHEM_MOLECULAR_WEIGHT>
492.7

> <PUBCHEM_OPENEYE_CAN_SMILES>
C1CCC(C(C1)CN2CCN(CC2)C3=NSC4=CC=CC=C43)CN5C(=O)C6C7CCC(C7)C6C5=O

> <PUBCHEM_OPENEYE_ISO_SMILES>
C1CC[C@H]([C@@H](C1)CN2CCN(CC2)C3=NSC4=CC=CC=C43)CN5C(=O)[C@H]6[C@@H]7CC[C@@H](C7)[C@H]6C5=O

> <PUBCHEM_CACTVS_TPSA>
85

> <PUBCHEM_MONOISOTOPIC_WEIGHT>
492.25589758

> <PUBCHEM_TOTAL_CHARGE>
0

> <PUBCHEM_HEAVY_ATOM_COUNT>
35

> <PUBCHEM_ATOM_DEF_STEREO_COUNT>
6

> <PUBCHEM_ATOM_UDEF_STEREO_COUNT>
0

> <PUBCHEM_BOND_DEF_STEREO_COUNT>
0

> <PUBCHEM_BOND_UDEF_STEREO_COUNT>
0

> <PUBCHEM_ISOTOPIC_ATOM_COUNT>
0

> <PUBCHEM_COMPONENT_COUNT>
1

> <PUBCHEM_CACTVS_TAUTO_COUNT>
-1

> <PUBCHEM_COORDINATE_TYPE>
1
5
255

> <PUBCHEM_BONDANNOTATIONS>
1  31  8
1  7  8
10  38  6
11  39  6
18  17  6
19  23  5
29  30  8
30  31  8
30  32  8
31  33  8
32  34  8
33  35  8
34  35  8
7  29  8
8  36  5
9  37  6

$$$$
