71455000
  -OEChem-09292322332D

 59 62  0     0  0  0  0  0  0999 V2000
    3.7320   -1.7500    0.0000 S   0  0  0  0  0  0  0  0  0  0  0  0
    2.0000   -4.7500    0.0000 F   0  0  0  0  0  0  0  0  0  0  0  0
    3.7320   -5.7500    0.0000 F   0  0  0  0  0  0  0  0  0  0  0  0
    8.0622    2.7500    0.0000 O   0  0  0  0  0  0  0  0  0  0  0  0
    4.7320   -1.7500    0.0000 O   0  0  0  0  0  0  0  0  0  0  0  0
    2.7320   -1.7500    0.0000 O   0  0  0  0  0  0  0  0  0  0  0  0
    6.3301    0.7500    0.0000 N   0  0  0  0  0  0  0  0  0  0  0  0
    3.7320   -0.7500    0.0000 N   0  0  0  0  0  0  0  0  0  0  0  0
    4.5981   -0.2500    0.0000 C   0  0  0  0  0  0  0  0  0  0  0  0
    5.4641   -0.7500    0.0000 C   0  0  0  0  0  0  0  0  0  0  0  0
    4.5981    0.7500    0.0000 C   0  0  0  0  0  0  0  0  0  0  0  0
    6.3301   -0.2500    0.0000 C   0  0  0  0  0  0  0  0  0  0  0  0
    5.4641    1.2500    0.0000 C   0  0  0  0  0  0  0  0  0  0  0  0
    7.1962    1.2500    0.0000 C   0  0  0  0  0  0  0  0  0  0  0  0
    7.1962    2.2500    0.0000 C   0  0  0  0  0  0  0  0  0  0  0  0
    3.7320   -2.7500    0.0000 C   0  0  0  0  0  0  0  0  0  0  0  0
    2.8660   -3.2500    0.0000 C   0  0  0  0  0  0  0  0  0  0  0  0
    4.5981   -3.2500    0.0000 C   0  0  0  0  0  0  0  0  0  0  0  0
    8.0622    3.7500    0.0000 C   0  0  0  0  0  0  0  0  0  0  0  0
    7.1962    4.2500    0.0000 C   0  0  0  0  0  0  0  0  0  0  0  0
    2.8660   -4.2500    0.0000 C   0  0  0  0  0  0  0  0  0  0  0  0
    4.5981   -4.2500    0.0000 C   0  0  0  0  0  0  0  0  0  0  0  0
    8.9282    4.2500    0.0000 C   0  0  0  0  0  0  0  0  0  0  0  0
    3.7320   -4.7500    0.0000 C   0  0  0  0  0  0  0  0  0  0  0  0
    6.3301    3.7500    0.0000 C   0  0  0  0  0  0  0  0  0  0  0  0
    7.1962    5.2500    0.0000 C   0  0  0  0  0  0  0  0  0  0  0  0
    8.9282    5.2500    0.0000 C   0  0  0  0  0  0  0  0  0  0  0  0
    8.0622    5.7500    0.0000 C   0  0  0  0  0  0  0  0  0  0  0  0
    5.4641    4.2500    0.0000 C   0  0  0  0  0  0  0  0  0  0  0  0
    6.3301    2.7500    0.0000 C   0  0  0  0  0  0  0  0  0  0  0  0
    4.5981    3.7500    0.0000 C   0  0  0  0  0  0  0  0  0  0  0  0
    5.4641    2.2500    0.0000 C   0  0  0  0  0  0  0  0  0  0  0  0
    4.5981    2.7500    0.0000 C   0  0  0  0  0  0  0  0  0  0  0  0
    4.5981   -0.8700    0.0000 H   0  0  0  0  0  0  0  0  0  0  0  0
    5.0656   -1.2250    0.0000 H   0  0  0  0  0  0  0  0  0  0  0  0
    5.8626   -1.2250    0.0000 H   0  0  0  0  0  0  0  0  0  0  0  0
    4.3860    1.3326    0.0000 H   0  0  0  0  0  0  0  0  0  0  0  0
    3.9875    0.6423    0.0000 H   0  0  0  0  0  0  0  0  0  0  0  0
    6.5422   -0.8326    0.0000 H   0  0  0  0  0  0  0  0  0  0  0  0
    6.9407   -0.1423    0.0000 H   0  0  0  0  0  0  0  0  0  0  0  0
    5.8626    1.7250    0.0000 H   0  0  0  0  0  0  0  0  0  0  0  0
    5.0656    1.7250    0.0000 H   0  0  0  0  0  0  0  0  0  0  0  0
    7.4082    0.6674    0.0000 H   0  0  0  0  0  0  0  0  0  0  0  0
    7.8067    1.3577    0.0000 H   0  0  0  0  0  0  0  0  0  0  0  0
    3.1951   -0.4400    0.0000 H   0  0  0  0  0  0  0  0  0  0  0  0
    6.9841    2.8326    0.0000 H   0  0  0  0  0  0  0  0  0  0  0  0
    6.5856    2.1423    0.0000 H   0  0  0  0  0  0  0  0  0  0  0  0
    2.3291   -2.9400    0.0000 H   0  0  0  0  0  0  0  0  0  0  0  0
    5.1350   -2.9400    0.0000 H   0  0  0  0  0  0  0  0  0  0  0  0
    5.1350   -4.5600    0.0000 H   0  0  0  0  0  0  0  0  0  0  0  0
    9.4651    3.9400    0.0000 H   0  0  0  0  0  0  0  0  0  0  0  0
    6.6592    5.5600    0.0000 H   0  0  0  0  0  0  0  0  0  0  0  0
    9.4651    5.5600    0.0000 H   0  0  0  0  0  0  0  0  0  0  0  0
    8.0622    6.3700    0.0000 H   0  0  0  0  0  0  0  0  0  0  0  0
    5.4641    4.8700    0.0000 H   0  0  0  0  0  0  0  0  0  0  0  0
    6.8671    2.4400    0.0000 H   0  0  0  0  0  0  0  0  0  0  0  0
    4.0611    4.0600    0.0000 H   0  0  0  0  0  0  0  0  0  0  0  0
    5.4641    1.6300    0.0000 H   0  0  0  0  0  0  0  0  0  0  0  0
    4.0611    2.4400    0.0000 H   0  0  0  0  0  0  0  0  0  0  0  0
  1  5  2  0  0  0  0
  1  6  2  0  0  0  0
  1  8  1  0  0  0  0
  1 16  1  0  0  0  0
  2 21  1  0  0  0  0
  3 24  1  0  0  0  0
  4 15  1  0  0  0  0
  4 19  1  0  0  0  0
  7 12  1  0  0  0  0
  7 13  1  0  0  0  0
  7 14  1  0  0  0  0
  8  9  1  0  0  0  0
  8 45  1  0  0  0  0
  9 10  1  0  0  0  0
  9 11  1  0  0  0  0
  9 34  1  0  0  0  0
 10 12  1  0  0  0  0
 10 35  1  0  0  0  0
 10 36  1  0  0  0  0
 11 13  1  0  0  0  0
 11 37  1  0  0  0  0
 11 38  1  0  0  0  0
 12 39  1  0  0  0  0
 12 40  1  0  0  0  0
 13 41  1  0  0  0  0
 13 42  1  0  0  0  0
 14 15  1  0  0  0  0
 14 43  1  0  0  0  0
 14 44  1  0  0  0  0
 15 46  1  0  0  0  0
 15 47  1  0  0  0  0
 16 17  2  0  0  0  0
 16 18  1  0  0  0  0
 17 21  1  0  0  0  0
 17 48  1  0  0  0  0
 18 22  2  0  0  0  0
 18 49  1  0  0  0  0
 19 20  1  0  0  0  0
 19 23  2  0  0  0  0
 20 25  1  0  0  0  0
 20 26  2  0  0  0  0
 21 24  2  0  0  0  0
 22 24  1  0  0  0  0
 22 50  1  0  0  0  0
 23 27  1  0  0  0  0
 23 51  1  0  0  0  0
 25 29  2  0  0  0  0
 25 30  1  0  0  0  0
 26 28  1  0  0  0  0
 26 52  1  0  0  0  0
 27 28  2  0  0  0  0
 27 53  1  0  0  0  0
 28 54  1  0  0  0  0
 29 31  1  0  0  0  0
 29 55  1  0  0  0  0
 30 32  2  0  0  0  0
 30 56  1  0  0  0  0
 31 33  2  0  0  0  0
 31 57  1  0  0  0  0
 32 33  1  0  0  0  0
 32 58  1  0  0  0  0
 33 59  1  0  0  0  0
M  END
> <PUBCHEM_COMPOUND_CID>
71455000

> <PUBCHEM_COMPOUND_CANONICALIZED>
1

> <PUBCHEM_CACTVS_COMPLEXITY>
690

> <PUBCHEM_CACTVS_HBOND_ACCEPTOR>
7

> <PUBCHEM_CACTVS_HBOND_DONOR>
1

> <PUBCHEM_CACTVS_ROTATABLE_BOND>
8

> <PUBCHEM_CACTVS_SUBSKEYS>
AAADceB7MYBAAAAAAAAAAAAAAAAAAAAAAAA8YMEAAAAAAAABUAAAHwQQQAAADCzh2A4wB4NABAKAAiBCAHBCCBAgIAAIiJgOCIgOJiKE8RqHOCCk0BGYqAeQwOAOgAAAAAAIAAAAAAAAABAAAAAAAAAAAA==

> <PUBCHEM_IUPAC_OPENEYE_NAME>
3,4-difluoro-N-[1-[2-(2-phenylphenoxy)ethyl]-4-piperidyl]benzenesulfonamide

> <PUBCHEM_IUPAC_CAS_NAME>
3,4-difluoro-N-[1-[2-(2-phenylphenoxy)ethyl]-4-piperidinyl]benzenesulfonamide

> <PUBCHEM_IUPAC_NAME_MARKUP>
3,4-difluoro-<I>N</I>-[1-[2-(2-phenylphenoxy)ethyl]piperidin-4-yl]benzenesulfonamide

> <PUBCHEM_IUPAC_NAME>
3,4-difluoro-N-[1-[2-(2-phenylphenoxy)ethyl]piperidin-4-yl]benzenesulfonamide

> <PUBCHEM_IUPAC_SYSTEMATIC_NAME>
3,4-bis(fluoranyl)-N-[1-[2-(2-phenylphenoxy)ethyl]piperidin-4-yl]benzenesulfonamide

> <PUBCHEM_IUPAC_TRADITIONAL_NAME>
3,4-difluoro-N-[1-[2-(2-phenylphenoxy)ethyl]-4-piperidyl]benzenesulfonamide

> <PUBCHEM_IUPAC_INCHI>
InChI=1S/C25H26F2N2O3S/c26-23-11-10-21(18-24(23)27)33(30,31)28-20-12-14-29(15-13-20)16-17-32-25-9-5-4-8-22(25)19-6-2-1-3-7-19/h1-11,18,20,28H,12-17H2

> <PUBCHEM_IUPAC_INCHIKEY>
OJWOIBDHQBDTRR-UHFFFAOYSA-N

> <PUBCHEM_XLOGP3_AA>
5

> <PUBCHEM_EXACT_MASS>
472.16322019

> <PUBCHEM_MOLECULAR_FORMULA>
C25H26F2N2O3S

> <PUBCHEM_MOLECULAR_WEIGHT>
472.5

> <PUBCHEM_OPENEYE_CAN_SMILES>
C1CN(CCC1NS(=O)(=O)C2=CC(=C(C=C2)F)F)CCOC3=CC=CC=C3C4=CC=CC=C4

> <PUBCHEM_OPENEYE_ISO_SMILES>
C1CN(CCC1NS(=O)(=O)C2=CC(=C(C=C2)F)F)CCOC3=CC=CC=C3C4=CC=CC=C4

> <PUBCHEM_CACTVS_TPSA>
67

> <PUBCHEM_MONOISOTOPIC_WEIGHT>
472.16322019

> <PUBCHEM_TOTAL_CHARGE>
0

> <PUBCHEM_HEAVY_ATOM_COUNT>
33

> <PUBCHEM_ATOM_DEF_STEREO_COUNT>
0

> <PUBCHEM_ATOM_UDEF_STEREO_COUNT>
0

> <PUBCHEM_BOND_DEF_STEREO_COUNT>
0

> <PUBCHEM_BOND_UDEF_STEREO_COUNT>
0

> <PUBCHEM_ISOTOPIC_ATOM_COUNT>
0

> <PUBCHEM_COMPONENT_COUNT>
1

> <PUBCHEM_CACTVS_TAUTO_COUNT>
-1

> <PUBCHEM_COORDINATE_TYPE>
1
5
255

> <PUBCHEM_BONDANNOTATIONS>
16  17  8
16  18  8
17  21  8
18  22  8
19  20  8
19  23  8
20  26  8
21  24  8
22  24  8
23  27  8
25  29  8
25  30  8
26  28  8
27  28  8
29  31  8
30  32  8
31  33  8
32  33  8

$$$$
