44438236
  -OEChem-09292321592D

 48 51  0     0  0  0  0  0  0999 V2000
   10.9017    3.4003    0.0000 Cl  0  0  0  0  0  0  0  0  0  0  0  0
    8.8750    0.4182    0.0000 O   0  0  0  0  0  0  0  0  0  0  0  0
    5.9674    0.3165    0.0000 N   0  0  0  0  0  0  0  0  0  0  0  0
    4.6783   -2.4498    0.0000 N   0  0  0  0  0  0  0  0  0  0  0  0
    7.9244    0.7289    0.0000 C   0  0  0  0  0  0  0  0  0  0  0  0
    7.2566    1.4732    0.0000 C   0  0  0  0  0  0  0  0  0  0  0  0
    7.6138   -0.2216    0.0000 C   0  0  0  0  0  0  0  0  0  0  0  0
    6.2781    1.2670    0.0000 C   0  0  0  0  0  0  0  0  0  0  0  0
    6.6353   -0.4278    0.0000 C   0  0  0  0  0  0  0  0  0  0  0  0
    4.9889    0.1102    0.0000 C   0  0  0  0  0  0  0  0  0  0  0  0
    8.6688    1.3967    0.0000 C   0  0  0  0  0  0  0  0  0  0  0  0
    4.6783   -0.8403    0.0000 C   0  0  0  0  0  0  0  0  0  0  0  0
    3.7320   -1.1450    0.0000 C   0  0  0  0  0  0  0  0  0  0  0  0
    9.6193    1.0861    0.0000 C   0  0  0  0  0  0  0  0  0  0  0  0
    8.4625    2.3752    0.0000 C   0  0  0  0  0  0  0  0  0  0  0  0
    5.2619   -1.6450    0.0000 C   0  0  0  0  0  0  0  0  0  0  0  0
    3.7320   -2.1450    0.0000 C   0  0  0  0  0  0  0  0  0  0  0  0
   10.3636    1.7539    0.0000 C   0  0  0  0  0  0  0  0  0  0  0  0
    9.2068    3.0431    0.0000 C   0  0  0  0  0  0  0  0  0  0  0  0
    2.8660   -0.6450    0.0000 C   0  0  0  0  0  0  0  0  0  0  0  0
    2.8660   -2.6450    0.0000 C   0  0  0  0  0  0  0  0  0  0  0  0
   10.1574    2.7324    0.0000 C   0  0  0  0  0  0  0  0  0  0  0  0
    4.9889   -3.4003    0.0000 C   0  0  0  0  0  0  0  0  0  0  0  0
    2.0000   -1.1450    0.0000 C   0  0  0  0  0  0  0  0  0  0  0  0
    2.0000   -2.1450    0.0000 C   0  0  0  0  0  0  0  0  0  0  0  0
    7.7830    1.8008    0.0000 H   0  0  0  0  0  0  0  0  0  0  0  0
    7.0254    2.0484    0.0000 H   0  0  0  0  0  0  0  0  0  0  0  0
    7.6344   -0.8413    0.0000 H   0  0  0  0  0  0  0  0  0  0  0  0
    8.2276   -0.3090    0.0000 H   0  0  0  0  0  0  0  0  0  0  0  0
    6.2575    1.8866    0.0000 H   0  0  0  0  0  0  0  0  0  0  0  0
    5.6643    1.3543    0.0000 H   0  0  0  0  0  0  0  0  0  0  0  0
    6.1089   -0.7555    0.0000 H   0  0  0  0  0  0  0  0  0  0  0  0
    6.8665   -1.0031    0.0000 H   0  0  0  0  0  0  0  0  0  0  0  0
    4.9684    0.7299    0.0000 H   0  0  0  0  0  0  0  0  0  0  0  0
    4.3751    0.1976    0.0000 H   0  0  0  0  0  0  0  0  0  0  0  0
    9.0028   -0.1884    0.0000 H   0  0  0  0  0  0  0  0  0  0  0  0
    9.7471    0.4794    0.0000 H   0  0  0  0  0  0  0  0  0  0  0  0
    7.8732    2.5678    0.0000 H   0  0  0  0  0  0  0  0  0  0  0  0
    5.8819   -1.6450    0.0000 H   0  0  0  0  0  0  0  0  0  0  0  0
    2.8660   -0.0250    0.0000 H   0  0  0  0  0  0  0  0  0  0  0  0
   10.9529    1.5613    0.0000 H   0  0  0  0  0  0  0  0  0  0  0  0
    9.0790    3.6498    0.0000 H   0  0  0  0  0  0  0  0  0  0  0  0
    2.8660   -3.2650    0.0000 H   0  0  0  0  0  0  0  0  0  0  0  0
    4.3996   -3.5929    0.0000 H   0  0  0  0  0  0  0  0  0  0  0  0
    5.1815   -3.9896    0.0000 H   0  0  0  0  0  0  0  0  0  0  0  0
    5.5783   -3.2077    0.0000 H   0  0  0  0  0  0  0  0  0  0  0  0
    1.4631   -0.8350    0.0000 H   0  0  0  0  0  0  0  0  0  0  0  0
    1.4631   -2.4550    0.0000 H   0  0  0  0  0  0  0  0  0  0  0  0
  1 22  1  0  0  0  0
  2  5  1  0  0  0  0
  2 36  1  0  0  0  0
  3  8  1  0  0  0  0
  3  9  1  0  0  0  0
  3 10  1  0  0  0  0
  4 16  1  0  0  0  0
  4 17  1  0  0  0  0
  4 23  1  0  0  0  0
  5  6  1  0  0  0  0
  5  7  1  0  0  0  0
  5 11  1  0  0  0  0
  6  8  1  0  0  0  0
  6 26  1  0  0  0  0
  6 27  1  0  0  0  0
  7  9  1  0  0  0  0
  7 28  1  0  0  0  0
  7 29  1  0  0  0  0
  8 30  1  0  0  0  0
  8 31  1  0  0  0  0
  9 32  1  0  0  0  0
  9 33  1  0  0  0  0
 10 12  1  0  0  0  0
 10 34  1  0  0  0  0
 10 35  1  0  0  0  0
 11 14  2  0  0  0  0
 11 15  1  0  0  0  0
 12 13  1  0  0  0  0
 12 16  2  0  0  0  0
 13 17  1  0  0  0  0
 13 20  2  0  0  0  0
 14 18  1  0  0  0  0
 14 37  1  0  0  0  0
 15 19  2  0  0  0  0
 15 38  1  0  0  0  0
 16 39  1  0  0  0  0
 17 21  2  0  0  0  0
 18 22  2  0  0  0  0
 18 41  1  0  0  0  0
 19 22  1  0  0  0  0
 19 42  1  0  0  0  0
 20 24  1  0  0  0  0
 20 40  1  0  0  0  0
 21 25  1  0  0  0  0
 21 43  1  0  0  0  0
 23 44  1  0  0  0  0
 23 45  1  0  0  0  0
 23 46  1  0  0  0  0
 24 25  2  0  0  0  0
 24 47  1  0  0  0  0
 25 48  1  0  0  0  0
M  END
> <PUBCHEM_COMPOUND_CID>
44438236

> <PUBCHEM_COMPOUND_CANONICALIZED>
1

> <PUBCHEM_CACTVS_COMPLEXITY>
443

> <PUBCHEM_CACTVS_HBOND_ACCEPTOR>
2

> <PUBCHEM_CACTVS_HBOND_DONOR>
1

> <PUBCHEM_CACTVS_ROTATABLE_BOND>
3

> <PUBCHEM_CACTVS_SUBSKEYS>
AAADceB7IAAEAAAAAAAAAAAAAAAAAWAAAAA8YIAAAAAAAFgB9AAAHgIACAAADE7BniQ+wPMMEgCgAzRnRACCgCAxByAI2CA4bpgIJuLB05GEcAhmwAHI2AeQwOAOhAAAAAACAAAIAAAAAAQAAAAAAAAAAA==

> <PUBCHEM_IUPAC_OPENEYE_NAME>
4-(4-chlorophenyl)-1-[(1-methylindol-3-yl)methyl]piperidin-4-ol

> <PUBCHEM_IUPAC_CAS_NAME>
4-(4-chlorophenyl)-1-[(1-methyl-3-indolyl)methyl]-4-piperidinol

> <PUBCHEM_IUPAC_NAME_MARKUP>
4-(4-chlorophenyl)-1-[(1-methylindol-3-yl)methyl]piperidin-4-ol

> <PUBCHEM_IUPAC_NAME>
4-(4-chlorophenyl)-1-[(1-methylindol-3-yl)methyl]piperidin-4-ol

> <PUBCHEM_IUPAC_SYSTEMATIC_NAME>
4-(4-chlorophenyl)-1-[(1-methylindol-3-yl)methyl]piperidin-4-ol

> <PUBCHEM_IUPAC_TRADITIONAL_NAME>
4-(4-chlorophenyl)-1-[(1-methylindol-3-yl)methyl]piperidin-4-ol

> <PUBCHEM_IUPAC_INCHI>
InChI=1S/C21H23ClN2O/c1-23-14-16(19-4-2-3-5-20(19)23)15-24-12-10-21(25,11-13-24)17-6-8-18(22)9-7-17/h2-9,14,25H,10-13,15H2,1H3

> <PUBCHEM_IUPAC_INCHIKEY>
MKCVGRWVINXSAR-UHFFFAOYSA-N

> <PUBCHEM_XLOGP3_AA>
3.6

> <PUBCHEM_EXACT_MASS>
354.1498911

> <PUBCHEM_MOLECULAR_FORMULA>
C21H23ClN2O

> <PUBCHEM_MOLECULAR_WEIGHT>
354.9

> <PUBCHEM_OPENEYE_CAN_SMILES>
CN1C=C(C2=CC=CC=C21)CN3CCC(CC3)(C4=CC=C(C=C4)Cl)O

> <PUBCHEM_OPENEYE_ISO_SMILES>
CN1C=C(C2=CC=CC=C21)CN3CCC(CC3)(C4=CC=C(C=C4)Cl)O

> <PUBCHEM_CACTVS_TPSA>
28.4

> <PUBCHEM_MONOISOTOPIC_WEIGHT>
354.1498911

> <PUBCHEM_TOTAL_CHARGE>
0

> <PUBCHEM_HEAVY_ATOM_COUNT>
25

> <PUBCHEM_ATOM_DEF_STEREO_COUNT>
0

> <PUBCHEM_ATOM_UDEF_STEREO_COUNT>
0

> <PUBCHEM_BOND_DEF_STEREO_COUNT>
0

> <PUBCHEM_BOND_UDEF_STEREO_COUNT>
0

> <PUBCHEM_ISOTOPIC_ATOM_COUNT>
0

> <PUBCHEM_COMPONENT_COUNT>
1

> <PUBCHEM_CACTVS_TAUTO_COUNT>
-1

> <PUBCHEM_COORDINATE_TYPE>
1
5
255

> <PUBCHEM_BONDANNOTATIONS>
11  14  8
11  15  8
12  13  8
12  16  8
13  17  8
13  20  8
14  18  8
15  19  8
17  21  8
18  22  8
19  22  8
20  24  8
21  25  8
24  25  8
4  16  8
4  17  8

$$$$
