122191611
  -OEChem-09292322362D

 63 66  0     1  0  0  0  0  0999 V2000
   12.7619    4.5941    0.0000 Br  0  0  0  0  0  0  0  0  0  0  0  0
    7.7619   -0.6020    0.0000 N   0  0  0  0  0  0  0  0  0  0  0  0
    6.7619   -2.3341    0.0000 N   0  0  0  0  0  0  0  0  0  0  0  0
    9.7619    1.1300    0.0000 N   0  0  3  0  0  0  0  0  0  0  0  0
    4.6783   -4.0048    0.0000 N   0  0  0  0  0  0  0  0  0  0  0  0
    6.7619   -0.6020    0.0000 C   0  0  0  0  0  0  0  0  0  0  0  0
    8.2619   -1.4680    0.0000 C   0  0  0  0  0  0  0  0  0  0  0  0
    6.2619   -1.4680    0.0000 C   0  0  0  0  0  0  0  0  0  0  0  0
    7.7619   -2.3341    0.0000 C   0  0  0  0  0  0  0  0  0  0  0  0
    8.2619    0.2640    0.0000 C   0  0  0  0  0  0  0  0  0  0  0  0
    6.2619   -3.2001    0.0000 C   0  0  0  0  0  0  0  0  0  0  0  0
    9.2619    0.2640    0.0000 C   0  0  0  0  0  0  0  0  0  0  0  0
    5.2619   -3.2001    0.0000 C   0  0  0  0  0  0  0  0  0  0  0  0
    9.2619    1.9961    0.0000 C   0  0  0  0  0  0  0  0  0  0  0  0
   10.7619    1.1300    0.0000 C   0  0  0  0  0  0  0  0  0  0  0  0
    4.6783   -2.3954    0.0000 C   0  0  0  0  0  0  0  0  0  0  0  0
    8.2619    1.9961    0.0000 C   0  0  0  0  0  0  0  0  0  0  0  0
    3.7320   -3.7001    0.0000 C   0  0  0  0  0  0  0  0  0  0  0  0
    3.7320   -2.7001    0.0000 C   0  0  0  0  0  0  0  0  0  0  0  0
   11.2619    1.9961    0.0000 C   0  0  0  0  0  0  0  0  0  0  0  0
    7.7619    2.8621    0.0000 C   0  0  0  0  0  0  0  0  0  0  0  0
    2.8660   -4.2001    0.0000 C   0  0  0  0  0  0  0  0  0  0  0  0
    2.8660   -2.2001    0.0000 C   0  0  0  0  0  0  0  0  0  0  0  0
   12.2619    1.9961    0.0000 C   0  0  0  0  0  0  0  0  0  0  0  0
   10.7619    2.8621    0.0000 C   0  0  0  0  0  0  0  0  0  0  0  0
    2.0000   -3.7001    0.0000 C   0  0  0  0  0  0  0  0  0  0  0  0
    2.0000   -2.7001    0.0000 C   0  0  0  0  0  0  0  0  0  0  0  0
   12.7619    2.8621    0.0000 C   0  0  0  0  0  0  0  0  0  0  0  0
   11.2619    3.7281    0.0000 C   0  0  0  0  0  0  0  0  0  0  0  0
   12.2619    3.7281    0.0000 C   0  0  0  0  0  0  0  0  0  0  0  0
    6.8695    0.0086    0.0000 H   0  0  0  0  0  0  0  0  0  0  0  0
    6.1793   -0.3900    0.0000 H   0  0  0  0  0  0  0  0  0  0  0  0
    8.7368   -1.8666    0.0000 H   0  0  0  0  0  0  0  0  0  0  0  0
    8.7368   -1.0695    0.0000 H   0  0  0  0  0  0  0  0  0  0  0  0
    5.7869   -1.0695    0.0000 H   0  0  0  0  0  0  0  0  0  0  0  0
    5.7869   -1.8666    0.0000 H   0  0  0  0  0  0  0  0  0  0  0  0
    7.6542   -2.9446    0.0000 H   0  0  0  0  0  0  0  0  0  0  0  0
    8.3445   -2.5461    0.0000 H   0  0  0  0  0  0  0  0  0  0  0  0
    8.3695    0.8746    0.0000 H   0  0  0  0  0  0  0  0  0  0  0  0
    7.6793    0.4761    0.0000 H   0  0  0  0  0  0  0  0  0  0  0  0
    6.1542   -3.8107    0.0000 H   0  0  0  0  0  0  0  0  0  0  0  0
    6.8445   -3.4121    0.0000 H   0  0  0  0  0  0  0  0  0  0  0  0
    9.1542   -0.3466    0.0000 H   0  0  0  0  0  0  0  0  0  0  0  0
    9.8445    0.0520    0.0000 H   0  0  0  0  0  0  0  0  0  0  0  0
    9.8445    2.2081    0.0000 H   0  0  0  0  0  0  0  0  0  0  0  0
    9.1542    2.6066    0.0000 H   0  0  0  0  0  0  0  0  0  0  0  0
   10.6542    0.5195    0.0000 H   0  0  0  0  0  0  0  0  0  0  0  0
   11.3445    0.9180    0.0000 H   0  0  0  0  0  0  0  0  0  0  0  0
    4.8709   -4.5941    0.0000 H   0  0  0  0  0  0  0  0  0  0  0  0
    4.8709   -1.8060    0.0000 H   0  0  0  0  0  0  0  0  0  0  0  0
    7.6793    1.7840    0.0000 H   0  0  0  0  0  0  0  0  0  0  0  0
    8.3695    1.3855    0.0000 H   0  0  0  0  0  0  0  0  0  0  0  0
    8.2988    3.1721    0.0000 H   0  0  0  0  0  0  0  0  0  0  0  0
    7.4519    3.3990    0.0000 H   0  0  0  0  0  0  0  0  0  0  0  0
    7.2249    2.5521    0.0000 H   0  0  0  0  0  0  0  0  0  0  0  0
    2.8660   -4.8201    0.0000 H   0  0  0  0  0  0  0  0  0  0  0  0
    2.8660   -1.5801    0.0000 H   0  0  0  0  0  0  0  0  0  0  0  0
   12.5719    1.4591    0.0000 H   0  0  0  0  0  0  0  0  0  0  0  0
   10.1419    2.8621    0.0000 H   0  0  0  0  0  0  0  0  0  0  0  0
    1.4631   -4.0101    0.0000 H   0  0  0  0  0  0  0  0  0  0  0  0
    1.4631   -2.3901    0.0000 H   0  0  0  0  0  0  0  0  0  0  0  0
   13.3819    2.8621    0.0000 H   0  0  0  0  0  0  0  0  0  0  0  0
   10.9519    4.2650    0.0000 H   0  0  0  0  0  0  0  0  0  0  0  0
  1 30  1  0  0  0  0
  2  6  1  0  0  0  0
  2  7  1  0  0  0  0
  2 10  1  0  0  0  0
  3  8  1  0  0  0  0
  3  9  1  0  0  0  0
  3 11  1  0  0  0  0
  4 12  1  0  0  0  0
  4 14  1  0  0  0  0
  4 15  1  0  0  0  0
  5 13  1  0  0  0  0
  5 18  1  0  0  0  0
  5 49  1  0  0  0  0
  6  8  1  0  0  0  0
  6 31  1  0  0  0  0
  6 32  1  0  0  0  0
  7  9  1  0  0  0  0
  7 33  1  0  0  0  0
  7 34  1  0  0  0  0
  8 35  1  0  0  0  0
  8 36  1  0  0  0  0
  9 37  1  0  0  0  0
  9 38  1  0  0  0  0
 10 12  1  0  0  0  0
 10 39  1  0  0  0  0
 10 40  1  0  0  0  0
 11 13  1  0  0  0  0
 11 41  1  0  0  0  0
 11 42  1  0  0  0  0
 12 43  1  0  0  0  0
 12 44  1  0  0  0  0
 13 16  2  0  0  0  0
 14 17  1  0  0  0  0
 14 45  1  0  0  0  0
 14 46  1  0  0  0  0
 15 20  1  0  0  0  0
 15 47  1  0  0  0  0
 15 48  1  0  0  0  0
 16 19  1  0  0  0  0
 16 50  1  0  0  0  0
 17 21  1  0  0  0  0
 17 51  1  0  0  0  0
 17 52  1  0  0  0  0
 18 19  1  0  0  0  0
 18 22  2  0  0  0  0
 19 23  2  0  0  0  0
 20 24  2  0  0  0  0
 20 25  1  0  0  0  0
 21 53  1  0  0  0  0
 21 54  1  0  0  0  0
 21 55  1  0  0  0  0
 22 26  1  0  0  0  0
 22 56  1  0  0  0  0
 23 27  1  0  0  0  0
 23 57  1  0  0  0  0
 24 28  1  0  0  0  0
 24 58  1  0  0  0  0
 25 29  2  0  0  0  0
 25 59  1  0  0  0  0
 26 27  2  0  0  0  0
 26 60  1  0  0  0  0
 27 61  1  0  0  0  0
 28 30  2  0  0  0  0
 28 62  1  0  0  0  0
 29 30  1  0  0  0  0
 29 63  1  0  0  0  0
M  END
> <PUBCHEM_COMPOUND_CID>
122191611

> <PUBCHEM_COMPOUND_CANONICALIZED>
1

> <PUBCHEM_CACTVS_COMPLEXITY>
488

> <PUBCHEM_CACTVS_HBOND_ACCEPTOR>
3

> <PUBCHEM_CACTVS_HBOND_DONOR>
1

> <PUBCHEM_CACTVS_ROTATABLE_BOND>
9

> <PUBCHEM_CACTVS_SUBSKEYS>
AAADcfB7gAAAEAAAAAAAAAAAAAAAAWAAAAA8YIAAAAAAAFgB9AAAHABQAAABrAjBHgQywPPJkACgAyRiRACCgCAhAiQImSA4ZLgIYOLAkZGUIAhgkADIyhcQgIAOAgAAAAACAAAEAAAAAAQAAAAAAAAAAA==

> <PUBCHEM_IUPAC_OPENEYE_NAME>
N-[(4-bromophenyl)methyl]-N-[2-[4-(1H-indol-2-ylmethyl)piperazin-1-yl]ethyl]propan-1-amine

> <PUBCHEM_IUPAC_CAS_NAME>
N-[(4-bromophenyl)methyl]-N-[2-[4-(1H-indol-2-ylmethyl)-1-piperazinyl]ethyl]-1-propanamine

> <PUBCHEM_IUPAC_NAME_MARKUP>
<I>N</I>-[(4-bromophenyl)methyl]-<I>N</I>-[2-[4-(1<I>H</I>-indol-2-ylmethyl)piperazin-1-yl]ethyl]propan-1-amine

> <PUBCHEM_IUPAC_NAME>
N-[(4-bromophenyl)methyl]-N-[2-[4-(1H-indol-2-ylmethyl)piperazin-1-yl]ethyl]propan-1-amine

> <PUBCHEM_IUPAC_SYSTEMATIC_NAME>
N-[(4-bromophenyl)methyl]-N-[2-[4-(1H-indol-2-ylmethyl)piperazin-1-yl]ethyl]propan-1-amine

> <PUBCHEM_IUPAC_TRADITIONAL_NAME>
(4-bromobenzyl)-[2-[4-(1H-indol-2-ylmethyl)piperazino]ethyl]-propyl-amine

> <PUBCHEM_IUPAC_INCHI>
InChI=1S/C25H33BrN4/c1-2-11-29(19-21-7-9-23(26)10-8-21)15-12-28-13-16-30(17-14-28)20-24-18-22-5-3-4-6-25(22)27-24/h3-10,18,27H,2,11-17,19-20H2,1H3

> <PUBCHEM_IUPAC_INCHIKEY>
PHSMQRWSBVFISF-UHFFFAOYSA-N

> <PUBCHEM_XLOGP3_AA>
4.8

> <PUBCHEM_EXACT_MASS>
468.18886

> <PUBCHEM_MOLECULAR_FORMULA>
C25H33BrN4

> <PUBCHEM_MOLECULAR_WEIGHT>
469.5

> <PUBCHEM_OPENEYE_CAN_SMILES>
CCCN(CCN1CCN(CC1)CC2=CC3=CC=CC=C3N2)CC4=CC=C(C=C4)Br

> <PUBCHEM_OPENEYE_ISO_SMILES>
CCCN(CCN1CCN(CC1)CC2=CC3=CC=CC=C3N2)CC4=CC=C(C=C4)Br

> <PUBCHEM_CACTVS_TPSA>
25.5

> <PUBCHEM_MONOISOTOPIC_WEIGHT>
468.18886

> <PUBCHEM_TOTAL_CHARGE>
0

> <PUBCHEM_HEAVY_ATOM_COUNT>
30

> <PUBCHEM_ATOM_DEF_STEREO_COUNT>
0

> <PUBCHEM_ATOM_UDEF_STEREO_COUNT>
0

> <PUBCHEM_BOND_DEF_STEREO_COUNT>
0

> <PUBCHEM_BOND_UDEF_STEREO_COUNT>
0

> <PUBCHEM_ISOTOPIC_ATOM_COUNT>
0

> <PUBCHEM_COMPONENT_COUNT>
1

> <PUBCHEM_CACTVS_TAUTO_COUNT>
-1

> <PUBCHEM_COORDINATE_TYPE>
1
5
255

> <PUBCHEM_BONDANNOTATIONS>
13  16  8
16  19  8
18  19  8
18  22  8
19  23  8
20  24  8
20  25  8
22  26  8
23  27  8
24  28  8
25  29  8
26  27  8
28  30  8
29  30  8
5  13  8
5  18  8

$$$$
