155561275
  -OEChem-09292322082D

 57 61  0     0  0  0  0  0  0999 V2000
    4.5274    3.0998    0.0000 S   0  0  0  0  0  0  0  0  0  0  0  0
    5.7533   -4.5151    0.0000 F   0  0  0  0  0  0  0  0  0  0  0  0
    7.0208   -3.8877    0.0000 F   0  0  0  0  0  0  0  0  0  0  0  0
    5.1259   -3.2477    0.0000 F   0  0  0  0  0  0  0  0  0  0  0  0
   11.2694    3.7746    0.0000 O   0  0  0  0  0  0  0  0  0  0  0  0
    9.3148    3.3512    0.0000 N   0  0  0  0  0  0  0  0  0  0  0  0
    6.3518    2.7443    0.0000 N   0  0  0  0  0  0  0  0  0  0  0  0
    6.7328    0.9849    0.0000 N   0  0  0  0  0  0  0  0  0  0  0  0
    5.3923   -0.1712    0.0000 N   0  0  0  0  0  0  0  0  0  0  0  0
    4.0274    1.5610    0.0000 C   0  0  0  0  0  0  0  0  0  0  0  0
    3.3424    0.7762    0.0000 C   0  0  0  0  0  0  0  0  0  0  0  0
    2.3219    0.9849    0.0000 C   0  0  0  0  0  0  0  0  0  0  0  0
    2.0000    1.9756    0.0000 C   0  0  0  0  0  0  0  0  0  0  0  0
    2.7029    2.7443    0.0000 C   0  0  0  0  0  0  0  0  0  0  0  0
    3.7183    2.5120    0.0000 C   0  0  0  0  0  0  0  0  0  0  0  0
    5.0274    1.5610    0.0000 C   0  0  0  0  0  0  0  0  0  0  0  0
    5.3364    2.5120    0.0000 C   0  0  0  0  0  0  0  0  0  0  0  0
    8.3374    3.1395    0.0000 C   0  0  0  0  0  0  0  0  0  0  0  0
    8.0321    2.1873    0.0000 C   0  0  0  0  0  0  0  0  0  0  0  0
    9.6201    4.3034    0.0000 C   0  0  0  0  0  0  0  0  0  0  0  0
    9.9867    2.6106    0.0000 C   0  0  0  0  0  0  0  0  0  0  0  0
    5.7123    0.7762    0.0000 C   0  0  0  0  0  0  0  0  0  0  0  0
    7.0547    1.9756    0.0000 C   0  0  0  0  0  0  0  0  0  0  0  0
   10.5974    4.5151    0.0000 C   0  0  0  0  0  0  0  0  0  0  0  0
   10.9641    2.8223    0.0000 C   0  0  0  0  0  0  0  0  0  0  0  0
    6.0528   -0.9220    0.0000 C   0  0  0  0  0  0  0  0  0  0  0  0
    5.7328   -1.8694    0.0000 C   0  0  0  0  0  0  0  0  0  0  0  0
    7.0333   -0.7254    0.0000 C   0  0  0  0  0  0  0  0  0  0  0  0
    6.3933   -2.6203    0.0000 C   0  0  0  0  0  0  0  0  0  0  0  0
    7.6938   -1.4763    0.0000 C   0  0  0  0  0  0  0  0  0  0  0  0
    7.3738   -2.4237    0.0000 C   0  0  0  0  0  0  0  0  0  0  0  0
    6.0733   -3.5677    0.0000 C   0  0  0  0  0  0  0  0  0  0  0  0
    3.1160    0.1990    0.0000 H   0  0  0  0  0  0  0  0  0  0  0  0
    3.8724    0.4545    0.0000 H   0  0  0  0  0  0  0  0  0  0  0  0
    1.7081    0.8971    0.0000 H   0  0  0  0  0  0  0  0  0  0  0  0
    2.3034    0.3652    0.0000 H   0  0  0  0  0  0  0  0  0  0  0  0
    1.6208    2.4661    0.0000 H   0  0  0  0  0  0  0  0  0  0  0  0
    1.4518    1.6859    0.0000 H   0  0  0  0  0  0  0  0  0  0  0  0
    2.9426    3.3161    0.0000 H   0  0  0  0  0  0  0  0  0  0  0  0
    2.1806    3.0782    0.0000 H   0  0  0  0  0  0  0  0  0  0  0  0
    8.3134    3.7590    0.0000 H   0  0  0  0  0  0  0  0  0  0  0  0
    7.7231    3.2234    0.0000 H   0  0  0  0  0  0  0  0  0  0  0  0
    8.0561    1.5677    0.0000 H   0  0  0  0  0  0  0  0  0  0  0  0
    8.6464    2.1034    0.0000 H   0  0  0  0  0  0  0  0  0  0  0  0
    9.5961    4.9230    0.0000 H   0  0  0  0  0  0  0  0  0  0  0  0
    9.0058    4.3874    0.0000 H   0  0  0  0  0  0  0  0  0  0  0  0
    9.4622    2.2801    0.0000 H   0  0  0  0  0  0  0  0  0  0  0  0
   10.2212    2.0367    0.0000 H   0  0  0  0  0  0  0  0  0  0  0  0
   11.1220    4.8457    0.0000 H   0  0  0  0  0  0  0  0  0  0  0  0
   10.3630    5.0891    0.0000 H   0  0  0  0  0  0  0  0  0  0  0  0
   10.9881    2.2028    0.0000 H   0  0  0  0  0  0  0  0  0  0  0  0
   11.5784    2.7384    0.0000 H   0  0  0  0  0  0  0  0  0  0  0  0
    4.7844   -0.2931    0.0000 H   0  0  0  0  0  0  0  0  0  0  0  0
    5.1249   -1.9913    0.0000 H   0  0  0  0  0  0  0  0  0  0  0  0
    7.2317   -0.1380    0.0000 H   0  0  0  0  0  0  0  0  0  0  0  0
    8.3017   -1.3544    0.0000 H   0  0  0  0  0  0  0  0  0  0  0  0
    7.7833   -2.8892    0.0000 H   0  0  0  0  0  0  0  0  0  0  0  0
  1 15  1  0  0  0  0
  1 17  1  0  0  0  0
  2 32  1  0  0  0  0
  3 32  1  0  0  0  0
  4 32  1  0  0  0  0
  5 24  1  0  0  0  0
  5 25  1  0  0  0  0
  6 18  1  0  0  0  0
  6 20  1  0  0  0  0
  6 21  1  0  0  0  0
  7 17  2  0  0  0  0
  7 23  1  0  0  0  0
  8 22  1  0  0  0  0
  8 23  2  0  0  0  0
  9 22  1  0  0  0  0
  9 26  1  0  0  0  0
  9 53  1  0  0  0  0
 10 11  1  0  0  0  0
 10 15  2  0  0  0  0
 10 16  1  0  0  0  0
 11 12  1  0  0  0  0
 11 33  1  0  0  0  0
 11 34  1  0  0  0  0
 12 13  1  0  0  0  0
 12 35  1  0  0  0  0
 12 36  1  0  0  0  0
 13 14  1  0  0  0  0
 13 37  1  0  0  0  0
 13 38  1  0  0  0  0
 14 15  1  0  0  0  0
 14 39  1  0  0  0  0
 14 40  1  0  0  0  0
 16 17  1  0  0  0  0
 16 22  2  0  0  0  0
 18 19  1  0  0  0  0
 18 41  1  0  0  0  0
 18 42  1  0  0  0  0
 19 23  1  0  0  0  0
 19 43  1  0  0  0  0
 19 44  1  0  0  0  0
 20 24  1  0  0  0  0
 20 45  1  0  0  0  0
 20 46  1  0  0  0  0
 21 25  1  0  0  0  0
 21 47  1  0  0  0  0
 21 48  1  0  0  0  0
 24 49  1  0  0  0  0
 24 50  1  0  0  0  0
 25 51  1  0  0  0  0
 25 52  1  0  0  0  0
 26 27  1  0  0  0  0
 26 28  2  0  0  0  0
 27 29  2  0  0  0  0
 27 54  1  0  0  0  0
 28 30  1  0  0  0  0
 28 55  1  0  0  0  0
 29 31  1  0  0  0  0
 29 32  1  0  0  0  0
 30 31  2  0  0  0  0
 30 56  1  0  0  0  0
 31 57  1  0  0  0  0
M  END
> <PUBCHEM_COMPOUND_CID>
155561275

> <PUBCHEM_COMPOUND_CANONICALIZED>
1

> <PUBCHEM_CACTVS_COMPLEXITY>
621

> <PUBCHEM_CACTVS_HBOND_ACCEPTOR>
9

> <PUBCHEM_CACTVS_HBOND_DONOR>
1

> <PUBCHEM_CACTVS_ROTATABLE_BOND>
5

> <PUBCHEM_CACTVS_SUBSKEYS>
AAADceB7oYBAAAAAAAAAAAAAAAAAASAAAAA8eIEAAAAAAFgB/AAAHwQQAAAADAjh2xYx8dfIFAikAiZiZACD0KlhCrgJmDA4ZJiKKGLg2dGHJAxokAL4yCcQgMAOgAAAQAAAAAAAAACAAAgAAAAAAAAAAA==

> <PUBCHEM_IUPAC_OPENEYE_NAME>
2-(2-morpholinoethyl)-N-[3-(trifluoromethyl)phenyl]-5,6,7,8-tetrahydrobenzothiopheno[2,3-d]pyrimidin-4-amine

> <PUBCHEM_IUPAC_CAS_NAME>
2-[2-(4-morpholinyl)ethyl]-N-[3-(trifluoromethyl)phenyl]-5,6,7,8-tetrahydro-[1]benzothiolo[2,3-d]pyrimidin-4-amine

> <PUBCHEM_IUPAC_NAME_MARKUP>
2-(2-morpholin-4-ylethyl)-<I>N</I>-[3-(trifluoromethyl)phenyl]-5,6,7,8-tetrahydro-[1]benzothiolo[2,3-d]pyrimidin-4-amine

> <PUBCHEM_IUPAC_NAME>
2-(2-morpholin-4-ylethyl)-N-[3-(trifluoromethyl)phenyl]-5,6,7,8-tetrahydro-[1]benzothiolo[2,3-d]pyrimidin-4-amine

> <PUBCHEM_IUPAC_SYSTEMATIC_NAME>
2-(2-morpholin-4-ylethyl)-N-[3-(trifluoromethyl)phenyl]-5,6,7,8-tetrahydro-[1]benzothiolo[2,3-d]pyrimidin-4-amine

> <PUBCHEM_IUPAC_TRADITIONAL_NAME>
[2-(2-morpholinoethyl)-5,6,7,8-tetrahydrobenzothiopheno[2,3-d]pyrimidin-4-yl]-[3-(trifluoromethyl)phenyl]amine

> <PUBCHEM_IUPAC_INCHI>
InChI=1S/C23H25F3N4OS/c24-23(25,26)15-4-3-5-16(14-15)27-21-20-17-6-1-2-7-18(17)32-22(20)29-19(28-21)8-9-30-10-12-31-13-11-30/h3-5,14H,1-2,6-13H2,(H,27,28,29)

> <PUBCHEM_IUPAC_INCHIKEY>
YQUPJMDDYCZDHH-UHFFFAOYSA-N

> <PUBCHEM_XLOGP3_AA>
5.5

> <PUBCHEM_EXACT_MASS>
462.17011709

> <PUBCHEM_MOLECULAR_FORMULA>
C23H25F3N4OS

> <PUBCHEM_MOLECULAR_WEIGHT>
462.5

> <PUBCHEM_OPENEYE_CAN_SMILES>
C1CCC2=C(C1)C3=C(N=C(N=C3S2)CCN4CCOCC4)NC5=CC=CC(=C5)C(F)(F)F

> <PUBCHEM_OPENEYE_ISO_SMILES>
C1CCC2=C(C1)C3=C(N=C(N=C3S2)CCN4CCOCC4)NC5=CC=CC(=C5)C(F)(F)F

> <PUBCHEM_CACTVS_TPSA>
78.5

> <PUBCHEM_MONOISOTOPIC_WEIGHT>
462.17011709

> <PUBCHEM_TOTAL_CHARGE>
0

> <PUBCHEM_HEAVY_ATOM_COUNT>
32

> <PUBCHEM_ATOM_DEF_STEREO_COUNT>
0

> <PUBCHEM_ATOM_UDEF_STEREO_COUNT>
0

> <PUBCHEM_BOND_DEF_STEREO_COUNT>
0

> <PUBCHEM_BOND_UDEF_STEREO_COUNT>
0

> <PUBCHEM_ISOTOPIC_ATOM_COUNT>
0

> <PUBCHEM_COMPONENT_COUNT>
1

> <PUBCHEM_CACTVS_TAUTO_COUNT>
-1

> <PUBCHEM_COORDINATE_TYPE>
1
5
255

> <PUBCHEM_BONDANNOTATIONS>
1  15  8
1  17  8
10  15  8
10  16  8
16  17  8
16  22  8
26  27  8
26  28  8
27  29  8
28  30  8
29  31  8
30  31  8
7  17  8
7  23  8
8  22  8
8  23  8

$$$$
