10758004
  -OEChem-09292322102D

 44 45  0     0  0  0  0  0  0999 V2000
    2.8660   -6.5000    0.0000 Cl  0  0  0  0  0  0  0  0  0  0  0  0
    6.3301    2.5000    0.0000 O   0  0  0  0  0  0  0  0  0  0  0  0
    2.8660   -2.5000    0.0000 O   0  0  0  0  0  0  0  0  0  0  0  0
    4.5981   -0.5000    0.0000 N   0  0  0  0  0  0  0  0  0  0  0  0
    5.4641    1.0000    0.0000 C   0  0  0  0  0  0  0  0  0  0  0  0
    4.5981    0.5000    0.0000 C   0  0  0  0  0  0  0  0  0  0  0  0
    5.4641    2.0000    0.0000 C   0  0  0  0  0  0  0  0  0  0  0  0
    3.7320   -1.0000    0.0000 C   0  0  0  0  0  0  0  0  0  0  0  0
    3.7320   -2.0000    0.0000 C   0  0  0  0  0  0  0  0  0  0  0  0
    6.3301    3.5000    0.0000 C   0  0  0  0  0  0  0  0  0  0  0  0
    5.4641    4.0000    0.0000 C   0  0  0  0  0  0  0  0  0  0  0  0
    7.1962    4.0000    0.0000 C   0  0  0  0  0  0  0  0  0  0  0  0
    6.3301    5.5000    0.0000 C   0  0  0  0  0  0  0  0  0  0  0  0
    2.8660   -3.5000    0.0000 C   0  0  0  0  0  0  0  0  0  0  0  0
    5.4641    5.0000    0.0000 C   0  0  0  0  0  0  0  0  0  0  0  0
    7.1962    5.0000    0.0000 C   0  0  0  0  0  0  0  0  0  0  0  0
    2.0000   -4.0000    0.0000 C   0  0  0  0  0  0  0  0  0  0  0  0
    3.7320   -4.0000    0.0000 C   0  0  0  0  0  0  0  0  0  0  0  0
    6.3301    6.5000    0.0000 C   0  0  0  0  0  0  0  0  0  0  0  0
    2.0000   -5.0000    0.0000 C   0  0  0  0  0  0  0  0  0  0  0  0
    3.7320   -5.0000    0.0000 C   0  0  0  0  0  0  0  0  0  0  0  0
    2.8660   -5.5000    0.0000 C   0  0  0  0  0  0  0  0  0  0  0  0
    5.6762    0.4174    0.0000 H   0  0  0  0  0  0  0  0  0  0  0  0
    6.0747    1.1077    0.0000 H   0  0  0  0  0  0  0  0  0  0  0  0
    4.3860    1.0826    0.0000 H   0  0  0  0  0  0  0  0  0  0  0  0
    3.9875    0.3923    0.0000 H   0  0  0  0  0  0  0  0  0  0  0  0
    5.2520    2.5826    0.0000 H   0  0  0  0  0  0  0  0  0  0  0  0
    4.8535    1.8923    0.0000 H   0  0  0  0  0  0  0  0  0  0  0  0
    3.5200   -0.4174    0.0000 H   0  0  0  0  0  0  0  0  0  0  0  0
    3.1215   -1.1077    0.0000 H   0  0  0  0  0  0  0  0  0  0  0  0
    5.1350   -0.8100    0.0000 H   0  0  0  0  0  0  0  0  0  0  0  0
    3.9441   -2.5826    0.0000 H   0  0  0  0  0  0  0  0  0  0  0  0
    4.3426   -1.8923    0.0000 H   0  0  0  0  0  0  0  0  0  0  0  0
    4.9272    3.6900    0.0000 H   0  0  0  0  0  0  0  0  0  0  0  0
    7.7331    3.6900    0.0000 H   0  0  0  0  0  0  0  0  0  0  0  0
    4.9272    5.3100    0.0000 H   0  0  0  0  0  0  0  0  0  0  0  0
    7.7331    5.3100    0.0000 H   0  0  0  0  0  0  0  0  0  0  0  0
    1.4631   -3.6900    0.0000 H   0  0  0  0  0  0  0  0  0  0  0  0
    4.2690   -3.6900    0.0000 H   0  0  0  0  0  0  0  0  0  0  0  0
    6.9501    6.5000    0.0000 H   0  0  0  0  0  0  0  0  0  0  0  0
    6.3301    7.1200    0.0000 H   0  0  0  0  0  0  0  0  0  0  0  0
    5.7101    6.5000    0.0000 H   0  0  0  0  0  0  0  0  0  0  0  0
    1.4631   -5.3100    0.0000 H   0  0  0  0  0  0  0  0  0  0  0  0
    4.2690   -5.3100    0.0000 H   0  0  0  0  0  0  0  0  0  0  0  0
  1 22  1  0  0  0  0
  2  7  1  0  0  0  0
  2 10  1  0  0  0  0
  3  9  1  0  0  0  0
  3 14  1  0  0  0  0
  4  6  1  0  0  0  0
  4  8  1  0  0  0  0
  4 31  1  0  0  0  0
  5  6  1  0  0  0  0
  5  7  1  0  0  0  0
  5 23  1  0  0  0  0
  5 24  1  0  0  0  0
  6 25  1  0  0  0  0
  6 26  1  0  0  0  0
  7 27  1  0  0  0  0
  7 28  1  0  0  0  0
  8  9  1  0  0  0  0
  8 29  1  0  0  0  0
  8 30  1  0  0  0  0
  9 32  1  0  0  0  0
  9 33  1  0  0  0  0
 10 11  2  0  0  0  0
 10 12  1  0  0  0  0
 11 15  1  0  0  0  0
 11 34  1  0  0  0  0
 12 16  2  0  0  0  0
 12 35  1  0  0  0  0
 13 15  2  0  0  0  0
 13 16  1  0  0  0  0
 13 19  1  0  0  0  0
 14 17  2  0  0  0  0
 14 18  1  0  0  0  0
 15 36  1  0  0  0  0
 16 37  1  0  0  0  0
 17 20  1  0  0  0  0
 17 38  1  0  0  0  0
 18 21  2  0  0  0  0
 18 39  1  0  0  0  0
 19 40  1  0  0  0  0
 19 41  1  0  0  0  0
 19 42  1  0  0  0  0
 20 22  2  0  0  0  0
 20 43  1  0  0  0  0
 21 22  1  0  0  0  0
 21 44  1  0  0  0  0
M  END
> <PUBCHEM_COMPOUND_CID>
10758004

> <PUBCHEM_COMPOUND_CANONICALIZED>
1

> <PUBCHEM_CACTVS_COMPLEXITY>
274

> <PUBCHEM_CACTVS_HBOND_ACCEPTOR>
3

> <PUBCHEM_CACTVS_HBOND_DONOR>
1

> <PUBCHEM_CACTVS_ROTATABLE_BOND>
9

> <PUBCHEM_CACTVS_SUBSKEYS>
AAADceB6MAAEAAAAAAAAAAAAAAAAAAAAAAAwYAAAAAAAAAABQAAAHgIQAAAADAbhmCYyBoLABACAAiBCAAACCAAgJQAIiIAOCogOJiKFMxqHOCCm0BGYqAeAwAAOICAAAAAAAABAQAAAAAAAAAAAAAAAAA==

> <PUBCHEM_IUPAC_OPENEYE_NAME>
N-[2-(4-chlorophenoxy)ethyl]-3-(4-methylphenoxy)propan-1-amine

> <PUBCHEM_IUPAC_CAS_NAME>
N-[2-(4-chlorophenoxy)ethyl]-3-(4-methylphenoxy)-1-propanamine

> <PUBCHEM_IUPAC_NAME_MARKUP>
<I>N</I>-[2-(4-chlorophenoxy)ethyl]-3-(4-methylphenoxy)propan-1-amine

> <PUBCHEM_IUPAC_NAME>
N-[2-(4-chlorophenoxy)ethyl]-3-(4-methylphenoxy)propan-1-amine

> <PUBCHEM_IUPAC_SYSTEMATIC_NAME>
N-[2-(4-chloranylphenoxy)ethyl]-3-(4-methylphenoxy)propan-1-amine

> <PUBCHEM_IUPAC_TRADITIONAL_NAME>
2-(4-chlorophenoxy)ethyl-[3-(4-methylphenoxy)propyl]amine

> <PUBCHEM_IUPAC_INCHI>
InChI=1S/C18H22ClNO2/c1-15-3-7-17(8-4-15)21-13-2-11-20-12-14-22-18-9-5-16(19)6-10-18/h3-10,20H,2,11-14H2,1H3

> <PUBCHEM_IUPAC_INCHIKEY>
TXYPYDVBBSFEGP-UHFFFAOYSA-N

> <PUBCHEM_XLOGP3_AA>
4.5

> <PUBCHEM_EXACT_MASS>
319.1339066

> <PUBCHEM_MOLECULAR_FORMULA>
C18H22ClNO2

> <PUBCHEM_MOLECULAR_WEIGHT>
319.8

> <PUBCHEM_OPENEYE_CAN_SMILES>
CC1=CC=C(C=C1)OCCCNCCOC2=CC=C(C=C2)Cl

> <PUBCHEM_OPENEYE_ISO_SMILES>
CC1=CC=C(C=C1)OCCCNCCOC2=CC=C(C=C2)Cl

> <PUBCHEM_CACTVS_TPSA>
30.5

> <PUBCHEM_MONOISOTOPIC_WEIGHT>
319.1339066

> <PUBCHEM_TOTAL_CHARGE>
0

> <PUBCHEM_HEAVY_ATOM_COUNT>
22

> <PUBCHEM_ATOM_DEF_STEREO_COUNT>
0

> <PUBCHEM_ATOM_UDEF_STEREO_COUNT>
0

> <PUBCHEM_BOND_DEF_STEREO_COUNT>
0

> <PUBCHEM_BOND_UDEF_STEREO_COUNT>
0

> <PUBCHEM_ISOTOPIC_ATOM_COUNT>
0

> <PUBCHEM_COMPONENT_COUNT>
1

> <PUBCHEM_CACTVS_TAUTO_COUNT>
-1

> <PUBCHEM_COORDINATE_TYPE>
1
5
255

> <PUBCHEM_BONDANNOTATIONS>
10  11  8
10  12  8
11  15  8
12  16  8
13  15  8
13  16  8
14  17  8
14  18  8
17  20  8
18  21  8
20  22  8
21  22  8

$$$$
