44214664
  -OEChem-09292322082D

 52 55  0     1  0  0  0  0  0999 V2000
   12.4564    1.5146    0.0000 O   0  0  0  0  0  0  0  0  0  0  0  0
    7.2602    0.5146    0.0000 N   0  0  3  0  0  0  0  0  0  0  0  0
   11.5904    0.0146    0.0000 N   0  0  0  0  0  0  0  0  0  0  0  0
   14.2302    0.4198    0.0000 N   0  0  0  0  0  0  0  0  0  0  0  0
    2.0000   -0.5128    0.0000 N   0  0  0  0  0  0  0  0  0  0  0  0
    7.2602    1.5146    0.0000 C   0  0  0  0  0  0  0  0  0  0  0  0
    6.3942    0.0146    0.0000 C   0  0  0  0  0  0  0  0  0  0  0  0
    8.1263    0.0146    0.0000 C   0  0  0  0  0  0  0  0  0  0  0  0
    6.3942    2.0146    0.0000 C   0  0  0  0  0  0  0  0  0  0  0  0
    5.5282    0.5146    0.0000 C   0  0  0  0  0  0  0  0  0  0  0  0
    5.5282    1.5146    0.0000 C   0  0  0  0  0  0  0  0  0  0  0  0
    8.9923    0.5146    0.0000 C   0  0  0  0  0  0  0  0  0  0  0  0
    9.8583    0.0146    0.0000 C   0  0  0  0  0  0  0  0  0  0  0  0
    4.6342   -0.0200    0.0000 C   0  0  0  0  0  0  0  0  0  0  0  0
    4.6342    2.0493    0.0000 C   0  0  0  0  0  0  0  0  0  0  0  0
   10.7243    0.5146    0.0000 C   0  0  0  0  0  0  0  0  0  0  0  0
    3.7282    0.4938    0.0000 C   0  0  0  0  0  0  0  0  0  0  0  0
    3.7282    1.5355    0.0000 C   0  0  0  0  0  0  0  0  0  0  0  0
   12.4564    0.5146    0.0000 C   0  0  0  0  0  0  0  0  0  0  0  0
   13.3224    0.0146    0.0000 C   0  0  0  0  0  0  0  0  0  0  0  0
   14.8973   -0.3173    0.0000 C   0  0  0  0  0  0  0  0  0  0  0  0
   14.3973   -1.1833    0.0000 C   0  0  0  0  0  0  0  0  0  0  0  0
   13.4255   -0.9741    0.0000 C   0  0  0  0  0  0  0  0  0  0  0  0
    2.8641   -0.0095    0.0000 C   0  0  0  0  0  0  0  0  0  0  0  0
   15.8973   -0.3173    0.0000 C   0  0  0  0  0  0  0  0  0  0  0  0
   14.8973   -2.0493    0.0000 C   0  0  0  0  0  0  0  0  0  0  0  0
   16.3973   -1.1833    0.0000 C   0  0  0  0  0  0  0  0  0  0  0  0
   15.8973   -2.0493    0.0000 C   0  0  0  0  0  0  0  0  0  0  0  0
    7.8708    1.4070    0.0000 H   0  0  0  0  0  0  0  0  0  0  0  0
    7.4723    2.0972    0.0000 H   0  0  0  0  0  0  0  0  0  0  0  0
    5.9957   -0.4603    0.0000 H   0  0  0  0  0  0  0  0  0  0  0  0
    6.7928   -0.4603    0.0000 H   0  0  0  0  0  0  0  0  0  0  0  0
    7.7277   -0.4603    0.0000 H   0  0  0  0  0  0  0  0  0  0  0  0
    8.5248   -0.4603    0.0000 H   0  0  0  0  0  0  0  0  0  0  0  0
    6.7928    2.4896    0.0000 H   0  0  0  0  0  0  0  0  0  0  0  0
    5.9957    2.4896    0.0000 H   0  0  0  0  0  0  0  0  0  0  0  0
    9.3908    0.9896    0.0000 H   0  0  0  0  0  0  0  0  0  0  0  0
    8.5938    0.9896    0.0000 H   0  0  0  0  0  0  0  0  0  0  0  0
    9.4598   -0.4603    0.0000 H   0  0  0  0  0  0  0  0  0  0  0  0
   10.2568   -0.4603    0.0000 H   0  0  0  0  0  0  0  0  0  0  0  0
    4.6414   -0.6400    0.0000 H   0  0  0  0  0  0  0  0  0  0  0  0
    4.6414    2.6693    0.0000 H   0  0  0  0  0  0  0  0  0  0  0  0
   11.1229    0.9896    0.0000 H   0  0  0  0  0  0  0  0  0  0  0  0
   10.3258    0.9896    0.0000 H   0  0  0  0  0  0  0  0  0  0  0  0
    3.1924    1.8475    0.0000 H   0  0  0  0  0  0  0  0  0  0  0  0
   11.5904   -0.6054    0.0000 H   0  0  0  0  0  0  0  0  0  0  0  0
   14.3581    1.0264    0.0000 H   0  0  0  0  0  0  0  0  0  0  0  0
   12.9640   -1.3881    0.0000 H   0  0  0  0  0  0  0  0  0  0  0  0
   16.2073    0.2197    0.0000 H   0  0  0  0  0  0  0  0  0  0  0  0
   14.5873   -2.5862    0.0000 H   0  0  0  0  0  0  0  0  0  0  0  0
   17.0173   -1.1833    0.0000 H   0  0  0  0  0  0  0  0  0  0  0  0
   16.2073   -2.5862    0.0000 H   0  0  0  0  0  0  0  0  0  0  0  0
  1 19  2  0  0  0  0
  2  6  1  0  0  0  0
  2  7  1  0  0  0  0
  2  8  1  0  0  0  0
  3 16  1  0  0  0  0
  3 19  1  0  0  0  0
  3 46  1  0  0  0  0
  4 20  1  0  0  0  0
  4 21  1  0  0  0  0
  4 47  1  0  0  0  0
  5 24  3  0  0  0  0
  6  9  1  0  0  0  0
  6 29  1  0  0  0  0
  6 30  1  0  0  0  0
  7 10  1  0  0  0  0
  7 31  1  0  0  0  0
  7 32  1  0  0  0  0
  8 12  1  0  0  0  0
  8 33  1  0  0  0  0
  8 34  1  0  0  0  0
  9 11  1  0  0  0  0
  9 35  1  0  0  0  0
  9 36  1  0  0  0  0
 10 11  2  0  0  0  0
 10 14  1  0  0  0  0
 11 15  1  0  0  0  0
 12 13  1  0  0  0  0
 12 37  1  0  0  0  0
 12 38  1  0  0  0  0
 13 16  1  0  0  0  0
 13 39  1  0  0  0  0
 13 40  1  0  0  0  0
 14 17  2  0  0  0  0
 14 41  1  0  0  0  0
 15 18  2  0  0  0  0
 15 42  1  0  0  0  0
 16 43  1  0  0  0  0
 16 44  1  0  0  0  0
 17 18  1  0  0  0  0
 17 24  1  0  0  0  0
 18 45  1  0  0  0  0
 19 20  1  0  0  0  0
 20 23  2  0  0  0  0
 21 22  1  0  0  0  0
 21 25  2  0  0  0  0
 22 23  1  0  0  0  0
 22 26  2  0  0  0  0
 23 48  1  0  0  0  0
 25 27  1  0  0  0  0
 25 49  1  0  0  0  0
 26 28  1  0  0  0  0
 26 50  1  0  0  0  0
 27 28  2  0  0  0  0
 27 51  1  0  0  0  0
 28 52  1  0  0  0  0
M  END
> <PUBCHEM_COMPOUND_CID>
44214664

> <PUBCHEM_COMPOUND_CANONICALIZED>
1

> <PUBCHEM_CACTVS_COMPLEXITY>
584

> <PUBCHEM_CACTVS_HBOND_ACCEPTOR>
3

> <PUBCHEM_CACTVS_HBOND_DONOR>
2

> <PUBCHEM_CACTVS_ROTATABLE_BOND>
6

> <PUBCHEM_CACTVS_SUBSKEYS>
AAADceB7oAAAAAAAAAAAAAAAAAAAAWAAAAA8YIAAAAAAAFix9AAAHgAQAAAADAjBngQwwPPJkAC4ByVyVACigCAnAiAImaG4ZNgI4PLAlbGUIQhglgDIyY8YicCewAACAAASAACAAAQAACQAAAAAAAAAAA==

> <PUBCHEM_IUPAC_OPENEYE_NAME>
N-[4-(7-cyano-3,4-dihydro-1H-isoquinolin-2-yl)butyl]-1H-indole-2-carboxamide

> <PUBCHEM_IUPAC_CAS_NAME>
N-[4-(7-cyano-3,4-dihydro-1H-isoquinolin-2-yl)butyl]-1H-indole-2-carboxamide

> <PUBCHEM_IUPAC_NAME_MARKUP>
<I>N</I>-[4-(7-cyano-3,4-dihydro-1<I>H</I>-isoquinolin-2-yl)butyl]-1<I>H</I>-indole-2-carboxamide

> <PUBCHEM_IUPAC_NAME>
N-[4-(7-cyano-3,4-dihydro-1H-isoquinolin-2-yl)butyl]-1H-indole-2-carboxamide

> <PUBCHEM_IUPAC_SYSTEMATIC_NAME>
N-[4-(7-cyano-3,4-dihydro-1H-isoquinolin-2-yl)butyl]-1H-indole-2-carboxamide

> <PUBCHEM_IUPAC_TRADITIONAL_NAME>
N-[4-(7-cyano-3,4-dihydro-1H-isoquinolin-2-yl)butyl]-1H-indole-2-carboxamide

> <PUBCHEM_IUPAC_INCHI>
InChI=1S/C23H24N4O/c24-15-17-7-8-18-9-12-27(16-20(18)13-17)11-4-3-10-25-23(28)22-14-19-5-1-2-6-21(19)26-22/h1-2,5-8,13-14,26H,3-4,9-12,16H2,(H,25,28)

> <PUBCHEM_IUPAC_INCHIKEY>
SGWOEXBNYOTOGG-UHFFFAOYSA-N

> <PUBCHEM_XLOGP3_AA>
3.7

> <PUBCHEM_EXACT_MASS>
372.19501140

> <PUBCHEM_MOLECULAR_FORMULA>
C23H24N4O

> <PUBCHEM_MOLECULAR_WEIGHT>
372.5

> <PUBCHEM_OPENEYE_CAN_SMILES>
C1CN(CC2=C1C=CC(=C2)C#N)CCCCNC(=O)C3=CC4=CC=CC=C4N3

> <PUBCHEM_OPENEYE_ISO_SMILES>
C1CN(CC2=C1C=CC(=C2)C#N)CCCCNC(=O)C3=CC4=CC=CC=C4N3

> <PUBCHEM_CACTVS_TPSA>
71.9

> <PUBCHEM_MONOISOTOPIC_WEIGHT>
372.19501140

> <PUBCHEM_TOTAL_CHARGE>
0

> <PUBCHEM_HEAVY_ATOM_COUNT>
28

> <PUBCHEM_ATOM_DEF_STEREO_COUNT>
0

> <PUBCHEM_ATOM_UDEF_STEREO_COUNT>
0

> <PUBCHEM_BOND_DEF_STEREO_COUNT>
0

> <PUBCHEM_BOND_UDEF_STEREO_COUNT>
0

> <PUBCHEM_ISOTOPIC_ATOM_COUNT>
0

> <PUBCHEM_COMPONENT_COUNT>
1

> <PUBCHEM_CACTVS_TAUTO_COUNT>
-1

> <PUBCHEM_COORDINATE_TYPE>
1
5
255

> <PUBCHEM_BONDANNOTATIONS>
10  11  8
10  14  8
11  15  8
14  17  8
15  18  8
17  18  8
20  23  8
21  22  8
21  25  8
22  23  8
22  26  8
25  27  8
26  28  8
27  28  8
4  20  8
4  21  8

$$$$
