10263410
  -OEChem-09292322122D

 40 41  0     1  0  0  0  0  0999 V2000
    2.5369    1.5000    0.0000 O   0  0  0  0  0  0  0  0  0  0  0  0
    7.7331   -0.5000    0.0000 N   0  0  3  0  0  0  0  0  0  0  0  0
    6.8671    1.0000    0.0000 C   0  0  1  0  0  0  0  0  0  0  0  0
    6.8671    0.0000    0.0000 C   0  0  0  0  0  0  0  0  0  0  0  0
    7.7331    1.5000    0.0000 C   0  0  0  0  0  0  0  0  0  0  0  0
    8.5991    1.0000    0.0000 C   0  0  0  0  0  0  0  0  0  0  0  0
    8.5991    0.0000    0.0000 C   0  0  0  0  0  0  0  0  0  0  0  0
    6.0010    1.5000    0.0000 C   0  0  0  0  0  0  0  0  0  0  0  0
    7.7331   -1.5000    0.0000 C   0  0  0  0  0  0  0  0  0  0  0  0
    8.5991   -2.0000    0.0000 C   0  0  0  0  0  0  0  0  0  0  0  0
    5.1350    1.0000    0.0000 C   0  0  0  0  0  0  0  0  0  0  0  0
    6.0010    2.5000    0.0000 C   0  0  0  0  0  0  0  0  0  0  0  0
    4.2690    1.5000    0.0000 C   0  0  0  0  0  0  0  0  0  0  0  0
    8.5991   -3.0000    0.0000 C   0  0  0  0  0  0  0  0  0  0  0  0
    5.1350    3.0000    0.0000 C   0  0  0  0  0  0  0  0  0  0  0  0
    4.2690    2.5000    0.0000 C   0  0  0  0  0  0  0  0  0  0  0  0
    3.4030    1.0000    0.0000 C   0  0  0  0  0  0  0  0  0  0  0  0
    6.3301    0.6900    0.0000 H   0  0  0  0  0  0  0  0  0  0  0  0
    6.2565    0.1077    0.0000 H   0  0  0  0  0  0  0  0  0  0  0  0
    6.6550   -0.5826    0.0000 H   0  0  0  0  0  0  0  0  0  0  0  0
    8.1316    1.9750    0.0000 H   0  0  0  0  0  0  0  0  0  0  0  0
    7.3346    1.9750    0.0000 H   0  0  0  0  0  0  0  0  0  0  0  0
    9.2097    0.8923    0.0000 H   0  0  0  0  0  0  0  0  0  0  0  0
    8.8112    1.5826    0.0000 H   0  0  0  0  0  0  0  0  0  0  0  0
    8.8112   -0.5826    0.0000 H   0  0  0  0  0  0  0  0  0  0  0  0
    9.2097    0.1077    0.0000 H   0  0  0  0  0  0  0  0  0  0  0  0
    7.1225   -1.3923    0.0000 H   0  0  0  0  0  0  0  0  0  0  0  0
    7.5210   -2.0826    0.0000 H   0  0  0  0  0  0  0  0  0  0  0  0
    9.2097   -2.1077    0.0000 H   0  0  0  0  0  0  0  0  0  0  0  0
    8.8112   -1.4174    0.0000 H   0  0  0  0  0  0  0  0  0  0  0  0
    5.1350    0.3800    0.0000 H   0  0  0  0  0  0  0  0  0  0  0  0
    6.5380    2.8100    0.0000 H   0  0  0  0  0  0  0  0  0  0  0  0
    7.9791   -3.0000    0.0000 H   0  0  0  0  0  0  0  0  0  0  0  0
    8.5991   -3.6200    0.0000 H   0  0  0  0  0  0  0  0  0  0  0  0
    9.2191   -3.0000    0.0000 H   0  0  0  0  0  0  0  0  0  0  0  0
    5.1350    3.6200    0.0000 H   0  0  0  0  0  0  0  0  0  0  0  0
    3.7320    2.8100    0.0000 H   0  0  0  0  0  0  0  0  0  0  0  0
    3.0044    0.5251    0.0000 H   0  0  0  0  0  0  0  0  0  0  0  0
    3.8015    0.5251    0.0000 H   0  0  0  0  0  0  0  0  0  0  0  0
    2.0000    1.1900    0.0000 H   0  0  0  0  0  0  0  0  0  0  0  0
  1 17  1  0  0  0  0
  1 40  1  0  0  0  0
  2  4  1  0  0  0  0
  2  7  1  0  0  0  0
  2  9  1  0  0  0  0
  3  4  1  0  0  0  0
  3  5  1  0  0  0  0
  3  8  1  6  0  0  0
  3 18  1  0  0  0  0
  4 19  1  0  0  0  0
  4 20  1  0  0  0  0
  5  6  1  0  0  0  0
  5 21  1  0  0  0  0
  5 22  1  0  0  0  0
  6  7  1  0  0  0  0
  6 23  1  0  0  0  0
  6 24  1  0  0  0  0
  7 25  1  0  0  0  0
  7 26  1  0  0  0  0
  8 11  1  0  0  0  0
  8 12  2  0  0  0  0
  9 10  1  0  0  0  0
  9 27  1  0  0  0  0
  9 28  1  0  0  0  0
 10 14  1  0  0  0  0
 10 29  1  0  0  0  0
 10 30  1  0  0  0  0
 11 13  2  0  0  0  0
 11 31  1  0  0  0  0
 12 15  1  0  0  0  0
 12 32  1  0  0  0  0
 13 16  1  0  0  0  0
 13 17  1  0  0  0  0
 14 33  1  0  0  0  0
 14 34  1  0  0  0  0
 14 35  1  0  0  0  0
 15 16  2  0  0  0  0
 15 36  1  0  0  0  0
 16 37  1  0  0  0  0
 17 38  1  0  0  0  0
 17 39  1  0  0  0  0
M  END
> <PUBCHEM_COMPOUND_CID>
10263410

> <PUBCHEM_COMPOUND_CANONICALIZED>
1

> <PUBCHEM_CACTVS_COMPLEXITY>
219

> <PUBCHEM_CACTVS_HBOND_ACCEPTOR>
2

> <PUBCHEM_CACTVS_HBOND_DONOR>
1

> <PUBCHEM_CACTVS_ROTATABLE_BOND>
4

> <PUBCHEM_CACTVS_SUBSKEYS>
AAADceByIAAAAAAAAAAAAAAAAAAAAAAAAAA8QAAAAAAAAAABAAAAHgAACAAADQDhmAYyAIMAAgCAAiBCAAACAAAgAAAIiAAICIgINiKAkRGEcAAkwAGImAeQwPAOgAACAAAAAAAAAAQAAAAAAAAAAAAAAA==

> <PUBCHEM_IUPAC_OPENEYE_NAME>
[3-[(3S)-1-propyl-3-piperidyl]phenyl]methanol

> <PUBCHEM_IUPAC_CAS_NAME>
[3-[(3S)-1-propyl-3-piperidinyl]phenyl]methanol

> <PUBCHEM_IUPAC_NAME_MARKUP>
[3-[(3<I>S</I>)-1-propylpiperidin-3-yl]phenyl]methanol

> <PUBCHEM_IUPAC_NAME>
[3-[(3S)-1-propylpiperidin-3-yl]phenyl]methanol

> <PUBCHEM_IUPAC_SYSTEMATIC_NAME>
[3-[(3S)-1-propylpiperidin-3-yl]phenyl]methanol

> <PUBCHEM_IUPAC_TRADITIONAL_NAME>
[3-[(3S)-1-propyl-3-piperidyl]phenyl]methanol

> <PUBCHEM_IUPAC_INCHI>
InChI=1S/C15H23NO/c1-2-8-16-9-4-7-15(11-16)14-6-3-5-13(10-14)12-17/h3,5-6,10,15,17H,2,4,7-9,11-12H2,1H3/t15-/m1/s1

> <PUBCHEM_IUPAC_INCHIKEY>
BOTMSPLRFWVABA-OAHLLOKOSA-N

> <PUBCHEM_XLOGP3_AA>
2.5

> <PUBCHEM_EXACT_MASS>
233.177964357

> <PUBCHEM_MOLECULAR_FORMULA>
C15H23NO

> <PUBCHEM_MOLECULAR_WEIGHT>
233.35

> <PUBCHEM_OPENEYE_CAN_SMILES>
CCCN1CCCC(C1)C2=CC=CC(=C2)CO

> <PUBCHEM_OPENEYE_ISO_SMILES>
CCCN1CCC[C@H](C1)C2=CC=CC(=C2)CO

> <PUBCHEM_CACTVS_TPSA>
23.5

> <PUBCHEM_MONOISOTOPIC_WEIGHT>
233.177964357

> <PUBCHEM_TOTAL_CHARGE>
0

> <PUBCHEM_HEAVY_ATOM_COUNT>
17

> <PUBCHEM_ATOM_DEF_STEREO_COUNT>
1

> <PUBCHEM_ATOM_UDEF_STEREO_COUNT>
0

> <PUBCHEM_BOND_DEF_STEREO_COUNT>
0

> <PUBCHEM_BOND_UDEF_STEREO_COUNT>
0

> <PUBCHEM_ISOTOPIC_ATOM_COUNT>
0

> <PUBCHEM_COMPONENT_COUNT>
1

> <PUBCHEM_CACTVS_TAUTO_COUNT>
-1

> <PUBCHEM_COORDINATE_TYPE>
1
5
255

> <PUBCHEM_BONDANNOTATIONS>
11  13  8
12  15  8
13  16  8
15  16  8
3  8  6
8  11  8
8  12  8

$$$$
