11663604
  -OEChem-09292322242D

 78 81  0     0  0  0  0  0  0999 V2000
    9.7844   -6.6555    0.0000 O   0  0  0  0  0  0  0  0  0  0  0  0
    4.5883    0.3445    0.0000 O   0  0  0  0  0  0  0  0  0  0  0  0
    5.9934    7.8465    0.0000 O   0  0  0  0  0  0  0  0  0  0  0  0
    8.0524   -3.6555    0.0000 N   0  0  0  0  0  0  0  0  0  0  0  0
    8.0524   -5.6555    0.0000 N   0  0  0  0  0  0  0  0  0  0  0  0
    6.3203    0.3445    0.0000 N   0  0  0  0  0  0  0  0  0  0  0  0
    4.9543    3.3833    0.0000 N   0  0  0  0  0  0  0  0  0  0  0  0
    6.2633    2.4323    0.0000 N   0  0  0  0  0  0  0  0  0  0  0  0
    5.9543    3.3833    0.0000 N   0  0  0  0  0  0  0  0  0  0  0  0
    7.1863   -4.1555    0.0000 C   0  0  0  0  0  0  0  0  0  0  0  0
    8.9184   -4.1555    0.0000 C   0  0  0  0  0  0  0  0  0  0  0  0
    7.1863   -5.1555    0.0000 C   0  0  0  0  0  0  0  0  0  0  0  0
    8.9184   -5.1555    0.0000 C   0  0  0  0  0  0  0  0  0  0  0  0
    8.0524   -2.6555    0.0000 C   0  0  0  0  0  0  0  0  0  0  0  0
    7.1863   -2.1555    0.0000 C   0  0  0  0  0  0  0  0  0  0  0  0
    8.0524   -6.6555    0.0000 C   0  0  0  0  0  0  0  0  0  0  0  0
    7.1863   -1.1555    0.0000 C   0  0  0  0  0  0  0  0  0  0  0  0
    6.3203   -0.6555    0.0000 C   0  0  0  0  0  0  0  0  0  0  0  0
    8.9184   -7.1555    0.0000 C   0  0  0  0  0  0  0  0  0  0  0  0
    7.1863   -7.1555    0.0000 C   0  0  0  0  0  0  0  0  0  0  0  0
    8.9184   -8.1555    0.0000 C   0  0  0  0  0  0  0  0  0  0  0  0
    7.1863   -8.1555    0.0000 C   0  0  0  0  0  0  0  0  0  0  0  0
    8.0524   -8.6555    0.0000 C   0  0  0  0  0  0  0  0  0  0  0  0
    5.4543    0.8445    0.0000 C   0  0  0  0  0  0  0  0  0  0  0  0
    4.6453    2.4323    0.0000 C   0  0  0  0  0  0  0  0  0  0  0  0
    5.4543    1.8445    0.0000 C   0  0  0  0  0  0  0  0  0  0  0  0
    3.6942    2.1232    0.0000 C   0  0  0  0  0  0  0  0  0  0  0  0
    4.3665    4.1923    0.0000 C   0  0  0  0  0  0  0  0  0  0  0  0
    2.9511    2.7924    0.0000 C   0  0  0  0  0  0  0  0  0  0  0  0
   10.6504   -7.1555    0.0000 C   0  0  0  0  0  0  0  0  0  0  0  0
    4.7732    5.1059    0.0000 C   0  0  0  0  0  0  0  0  0  0  0  0
    2.0000    2.4834    0.0000 C   0  0  0  0  0  0  0  0  0  0  0  0
    4.1854    5.9149    0.0000 C   0  0  0  0  0  0  0  0  0  0  0  0
    5.7678    5.2104    0.0000 C   0  0  0  0  0  0  0  0  0  0  0  0
    4.5922    6.8284    0.0000 C   0  0  0  0  0  0  0  0  0  0  0  0
    6.1745    6.1240    0.0000 C   0  0  0  0  0  0  0  0  0  0  0  0
    5.5867    6.9330    0.0000 C   0  0  0  0  0  0  0  0  0  0  0  0
    5.4056    8.6555    0.0000 C   0  0  0  0  0  0  0  0  0  0  0  0
    6.9743   -3.5729    0.0000 H   0  0  0  0  0  0  0  0  0  0  0  0
    6.5757   -4.2632    0.0000 H   0  0  0  0  0  0  0  0  0  0  0  0
    9.5290   -4.2632    0.0000 H   0  0  0  0  0  0  0  0  0  0  0  0
    9.1304   -3.5729    0.0000 H   0  0  0  0  0  0  0  0  0  0  0  0
    6.5757   -5.0479    0.0000 H   0  0  0  0  0  0  0  0  0  0  0  0
    6.9743   -5.7381    0.0000 H   0  0  0  0  0  0  0  0  0  0  0  0
    9.1304   -5.7381    0.0000 H   0  0  0  0  0  0  0  0  0  0  0  0
    9.5290   -5.0479    0.0000 H   0  0  0  0  0  0  0  0  0  0  0  0
    8.6629   -2.7632    0.0000 H   0  0  0  0  0  0  0  0  0  0  0  0
    8.2644   -2.0729    0.0000 H   0  0  0  0  0  0  0  0  0  0  0  0
    6.5757   -2.0479    0.0000 H   0  0  0  0  0  0  0  0  0  0  0  0
    6.9743   -2.7381    0.0000 H   0  0  0  0  0  0  0  0  0  0  0  0
    7.7969   -1.2632    0.0000 H   0  0  0  0  0  0  0  0  0  0  0  0
    7.3984   -0.5729    0.0000 H   0  0  0  0  0  0  0  0  0  0  0  0
    5.7097   -0.5479    0.0000 H   0  0  0  0  0  0  0  0  0  0  0  0
    6.1082   -1.2381    0.0000 H   0  0  0  0  0  0  0  0  0  0  0  0
    6.6494   -6.8455    0.0000 H   0  0  0  0  0  0  0  0  0  0  0  0
    6.8572    0.6545    0.0000 H   0  0  0  0  0  0  0  0  0  0  0  0
    9.4553   -8.4655    0.0000 H   0  0  0  0  0  0  0  0  0  0  0  0
    6.6494   -8.4655    0.0000 H   0  0  0  0  0  0  0  0  0  0  0  0
    8.0524   -9.2755    0.0000 H   0  0  0  0  0  0  0  0  0  0  0  0
    3.2056    1.7415    0.0000 H   0  0  0  0  0  0  0  0  0  0  0  0
    3.9853    1.5758    0.0000 H   0  0  0  0  0  0  0  0  0  0  0  0
    3.8525    4.5390    0.0000 H   0  0  0  0  0  0  0  0  0  0  0  0
    3.9358    3.7463    0.0000 H   0  0  0  0  0  0  0  0  0  0  0  0
    3.4396    3.1741    0.0000 H   0  0  0  0  0  0  0  0  0  0  0  0
    2.6600    3.3398    0.0000 H   0  0  0  0  0  0  0  0  0  0  0  0
   10.3404   -7.6925    0.0000 H   0  0  0  0  0  0  0  0  0  0  0  0
   11.1874   -7.4655    0.0000 H   0  0  0  0  0  0  0  0  0  0  0  0
   10.9604   -6.6186    0.0000 H   0  0  0  0  0  0  0  0  0  0  0  0
    1.8084    3.0730    0.0000 H   0  0  0  0  0  0  0  0  0  0  0  0
    1.4103    2.2918    0.0000 H   0  0  0  0  0  0  0  0  0  0  0  0
    2.1916    1.8937    0.0000 H   0  0  0  0  0  0  0  0  0  0  0  0
    3.5688    5.8501    0.0000 H   0  0  0  0  0  0  0  0  0  0  0  0
    6.1322    4.7088    0.0000 H   0  0  0  0  0  0  0  0  0  0  0  0
    4.2278    7.3300    0.0000 H   0  0  0  0  0  0  0  0  0  0  0  0
    6.7911    6.1888    0.0000 H   0  0  0  0  0  0  0  0  0  0  0  0
    5.9072    9.0200    0.0000 H   0  0  0  0  0  0  0  0  0  0  0  0
    5.0412    9.1571    0.0000 H   0  0  0  0  0  0  0  0  0  0  0  0
    4.9041    8.2911    0.0000 H   0  0  0  0  0  0  0  0  0  0  0  0
  1 19  1  0  0  0  0
  1 30  1  0  0  0  0
  2 24  2  0  0  0  0
  3 37  1  0  0  0  0
  3 38  1  0  0  0  0
  4 10  1  0  0  0  0
  4 11  1  0  0  0  0
  4 14  1  0  0  0  0
  5 12  1  0  0  0  0
  5 13  1  0  0  0  0
  5 16  1  0  0  0  0
  6 18  1  0  0  0  0
  6 24  1  0  0  0  0
  6 56  1  0  0  0  0
  7  9  1  0  0  0  0
  7 25  1  0  0  0  0
  7 28  1  0  0  0  0
  8  9  2  0  0  0  0
  8 26  1  0  0  0  0
 10 12  1  0  0  0  0
 10 39  1  0  0  0  0
 10 40  1  0  0  0  0
 11 13  1  0  0  0  0
 11 41  1  0  0  0  0
 11 42  1  0  0  0  0
 12 43  1  0  0  0  0
 12 44  1  0  0  0  0
 13 45  1  0  0  0  0
 13 46  1  0  0  0  0
 14 15  1  0  0  0  0
 14 47  1  0  0  0  0
 14 48  1  0  0  0  0
 15 17  1  0  0  0  0
 15 49  1  0  0  0  0
 15 50  1  0  0  0  0
 16 19  1  0  0  0  0
 16 20  2  0  0  0  0
 17 18  1  0  0  0  0
 17 51  1  0  0  0  0
 17 52  1  0  0  0  0
 18 53  1  0  0  0  0
 18 54  1  0  0  0  0
 19 21  2  0  0  0  0
 20 22  1  0  0  0  0
 20 55  1  0  0  0  0
 21 23  1  0  0  0  0
 21 57  1  0  0  0  0
 22 23  2  0  0  0  0
 22 58  1  0  0  0  0
 23 59  1  0  0  0  0
 24 26  1  0  0  0  0
 25 26  2  0  0  0  0
 25 27  1  0  0  0  0
 27 29  1  0  0  0  0
 27 60  1  0  0  0  0
 27 61  1  0  0  0  0
 28 31  1  0  0  0  0
 28 62  1  0  0  0  0
 28 63  1  0  0  0  0
 29 32  1  0  0  0  0
 29 64  1  0  0  0  0
 29 65  1  0  0  0  0
 30 66  1  0  0  0  0
 30 67  1  0  0  0  0
 30 68  1  0  0  0  0
 31 33  2  0  0  0  0
 31 34  1  0  0  0  0
 32 69  1  0  0  0  0
 32 70  1  0  0  0  0
 32 71  1  0  0  0  0
 33 35  1  0  0  0  0
 33 72  1  0  0  0  0
 34 36  2  0  0  0  0
 34 73  1  0  0  0  0
 35 37  2  0  0  0  0
 35 74  1  0  0  0  0
 36 37  1  0  0  0  0
 36 75  1  0  0  0  0
 38 76  1  0  0  0  0
 38 77  1  0  0  0  0
 38 78  1  0  0  0  0
M  END
> <PUBCHEM_COMPOUND_CID>
11663604

> <PUBCHEM_COMPOUND_CANONICALIZED>
1

> <PUBCHEM_CACTVS_COMPLEXITY>
683

> <PUBCHEM_CACTVS_HBOND_ACCEPTOR>
7

> <PUBCHEM_CACTVS_HBOND_DONOR>
1

> <PUBCHEM_CACTVS_ROTATABLE_BOND>
13

> <PUBCHEM_CACTVS_SUBSKEYS>
AAADcfB7sAAAAAAAAAAAAAAAAAAAAWAAAAA8YIAAAAAAAAAB0AAAHgAYAAAADAzBngYyxpPIBACqAyVyVACCDAQnsgAY2IG/fMgOZjrE8ZuVMahk1hHY6UeY2AIOIAAAAAAAEABAAAAAAAAgAAAAAAAAAA==

> <PUBCHEM_IUPAC_OPENEYE_NAME>
1-[(4-methoxyphenyl)methyl]-N-[4-[4-(2-methoxyphenyl)piperazin-1-yl]butyl]-5-propyl-triazole-4-carboxamide

> <PUBCHEM_IUPAC_CAS_NAME>
1-[(4-methoxyphenyl)methyl]-N-[4-[4-(2-methoxyphenyl)-1-piperazinyl]butyl]-5-propyl-4-triazolecarboxamide

> <PUBCHEM_IUPAC_NAME_MARKUP>
1-[(4-methoxyphenyl)methyl]-<I>N</I>-[4-[4-(2-methoxyphenyl)piperazin-1-yl]butyl]-5-propyltriazole-4-carboxamide

> <PUBCHEM_IUPAC_NAME>
1-[(4-methoxyphenyl)methyl]-N-[4-[4-(2-methoxyphenyl)piperazin-1-yl]butyl]-5-propyltriazole-4-carboxamide

> <PUBCHEM_IUPAC_SYSTEMATIC_NAME>
1-[(4-methoxyphenyl)methyl]-N-[4-[4-(2-methoxyphenyl)piperazin-1-yl]butyl]-5-propyl-1,2,3-triazole-4-carboxamide

> <PUBCHEM_IUPAC_TRADITIONAL_NAME>
N-[4-[4-(2-methoxyphenyl)piperazino]butyl]-1-p-anisyl-5-propyl-triazole-4-carboxamide

> <PUBCHEM_IUPAC_INCHI>
InChI=1S/C29H40N6O3/c1-4-9-26-28(31-32-35(26)22-23-12-14-24(37-2)15-13-23)29(36)30-16-7-8-17-33-18-20-34(21-19-33)25-10-5-6-11-27(25)38-3/h5-6,10-15H,4,7-9,16-22H2,1-3H3,(H,30,36)

> <PUBCHEM_IUPAC_INCHIKEY>
VNQMWRQYPRIJGM-UHFFFAOYSA-N

> <PUBCHEM_XLOGP3_AA>
4.4

> <PUBCHEM_EXACT_MASS>
520.31618916

> <PUBCHEM_MOLECULAR_FORMULA>
C29H40N6O3

> <PUBCHEM_MOLECULAR_WEIGHT>
520.7

> <PUBCHEM_OPENEYE_CAN_SMILES>
CCCC1=C(N=NN1CC2=CC=C(C=C2)OC)C(=O)NCCCCN3CCN(CC3)C4=CC=CC=C4OC

> <PUBCHEM_OPENEYE_ISO_SMILES>
CCCC1=C(N=NN1CC2=CC=C(C=C2)OC)C(=O)NCCCCN3CCN(CC3)C4=CC=CC=C4OC

> <PUBCHEM_CACTVS_TPSA>
84.8

> <PUBCHEM_MONOISOTOPIC_WEIGHT>
520.31618916

> <PUBCHEM_TOTAL_CHARGE>
0

> <PUBCHEM_HEAVY_ATOM_COUNT>
38

> <PUBCHEM_ATOM_DEF_STEREO_COUNT>
0

> <PUBCHEM_ATOM_UDEF_STEREO_COUNT>
0

> <PUBCHEM_BOND_DEF_STEREO_COUNT>
0

> <PUBCHEM_BOND_UDEF_STEREO_COUNT>
0

> <PUBCHEM_ISOTOPIC_ATOM_COUNT>
0

> <PUBCHEM_COMPONENT_COUNT>
1

> <PUBCHEM_CACTVS_TAUTO_COUNT>
-1

> <PUBCHEM_COORDINATE_TYPE>
1
5
255

> <PUBCHEM_BONDANNOTATIONS>
16  19  8
16  20  8
19  21  8
20  22  8
21  23  8
22  23  8
25  26  8
31  33  8
31  34  8
33  35  8
34  36  8
35  37  8
36  37  8
7  25  8
7  9  8
8  26  8
8  9  8

$$$$
