137636308
  -OEChem-09292322392D

 55 57  0     0  0  0  0  0  0999 V2000
    6.3981    2.4827    0.0000 O   0  0  0  0  0  0  0  0  0  0  0  0
    6.3981   -0.5173    0.0000 N   0  0  0  0  0  0  0  0  0  0  0  0
    8.1301   -1.5173    0.0000 N   0  0  0  0  0  0  0  0  0  0  0  0
    4.6660    2.4827    0.0000 N   0  0  0  0  0  0  0  0  0  0  0  0
    6.3981   -1.5173    0.0000 C   0  0  0  0  0  0  0  0  0  0  0  0
    7.2641   -0.0173    0.0000 C   0  0  0  0  0  0  0  0  0  0  0  0
    7.2641   -2.0173    0.0000 C   0  0  0  0  0  0  0  0  0  0  0  0
    8.1301   -0.5173    0.0000 C   0  0  0  0  0  0  0  0  0  0  0  0
    5.5321   -0.0173    0.0000 C   0  0  0  0  0  0  0  0  0  0  0  0
    8.9962   -2.0173    0.0000 C   0  0  0  0  0  0  0  0  0  0  0  0
    5.5321    0.9827    0.0000 C   0  0  0  0  0  0  0  0  0  0  0  0
    4.6660    1.4827    0.0000 C   0  0  0  0  0  0  0  0  0  0  0  0
    8.9962   -3.0173    0.0000 C   0  0  0  0  0  0  0  0  0  0  0  0
    3.8000    2.9827    0.0000 C   0  0  0  0  0  0  0  0  0  0  0  0
    9.8622   -3.5173    0.0000 C   0  0  0  0  0  0  0  0  0  0  0  0
    4.6660    4.4827    0.0000 C   0  0  0  0  0  0  0  0  0  0  0  0
    3.8000    3.9827    0.0000 C   0  0  0  0  0  0  0  0  0  0  0  0
    5.5321    3.9827    0.0000 C   0  0  0  0  0  0  0  0  0  0  0  0
    5.5321    2.9827    0.0000 C   0  0  0  0  0  0  0  0  0  0  0  0
    2.9061    2.4480    0.0000 C   0  0  0  0  0  0  0  0  0  0  0  0
    9.8622   -4.5173    0.0000 C   0  0  0  0  0  0  0  0  0  0  0  0
    2.9061    4.5173    0.0000 C   0  0  0  0  0  0  0  0  0  0  0  0
    2.0000    2.9618    0.0000 C   0  0  0  0  0  0  0  0  0  0  0  0
    2.0000    4.0035    0.0000 C   0  0  0  0  0  0  0  0  0  0  0  0
    5.7875   -1.4097    0.0000 H   0  0  0  0  0  0  0  0  0  0  0  0
    6.1860   -2.0999    0.0000 H   0  0  0  0  0  0  0  0  0  0  0  0
    7.6626    0.4576    0.0000 H   0  0  0  0  0  0  0  0  0  0  0  0
    6.8656    0.4576    0.0000 H   0  0  0  0  0  0  0  0  0  0  0  0
    6.8656   -2.4923    0.0000 H   0  0  0  0  0  0  0  0  0  0  0  0
    7.6626   -2.4923    0.0000 H   0  0  0  0  0  0  0  0  0  0  0  0
    8.7407   -0.6250    0.0000 H   0  0  0  0  0  0  0  0  0  0  0  0
    8.3422    0.0653    0.0000 H   0  0  0  0  0  0  0  0  0  0  0  0
    4.9215    0.0903    0.0000 H   0  0  0  0  0  0  0  0  0  0  0  0
    5.3200   -0.5999    0.0000 H   0  0  0  0  0  0  0  0  0  0  0  0
    9.6067   -2.1250    0.0000 H   0  0  0  0  0  0  0  0  0  0  0  0
    9.2082   -1.4347    0.0000 H   0  0  0  0  0  0  0  0  0  0  0  0
    6.1426    0.8750    0.0000 H   0  0  0  0  0  0  0  0  0  0  0  0
    5.7441    1.5653    0.0000 H   0  0  0  0  0  0  0  0  0  0  0  0
    4.0555    1.5903    0.0000 H   0  0  0  0  0  0  0  0  0  0  0  0
    4.4540    0.9001    0.0000 H   0  0  0  0  0  0  0  0  0  0  0  0
    8.3856   -2.9097    0.0000 H   0  0  0  0  0  0  0  0  0  0  0  0
    8.7841   -3.5999    0.0000 H   0  0  0  0  0  0  0  0  0  0  0  0
   10.4728   -3.6250    0.0000 H   0  0  0  0  0  0  0  0  0  0  0  0
   10.0742   -2.9347    0.0000 H   0  0  0  0  0  0  0  0  0  0  0  0
    5.0646    4.9576    0.0000 H   0  0  0  0  0  0  0  0  0  0  0  0
    4.2675    4.9576    0.0000 H   0  0  0  0  0  0  0  0  0  0  0  0
    6.1426    3.8750    0.0000 H   0  0  0  0  0  0  0  0  0  0  0  0
    5.7441    4.5653    0.0000 H   0  0  0  0  0  0  0  0  0  0  0  0
    2.9132    1.8280    0.0000 H   0  0  0  0  0  0  0  0  0  0  0  0
    2.9132    5.1373    0.0000 H   0  0  0  0  0  0  0  0  0  0  0  0
    9.2422   -4.5173    0.0000 H   0  0  0  0  0  0  0  0  0  0  0  0
    9.8622   -5.1373    0.0000 H   0  0  0  0  0  0  0  0  0  0  0  0
   10.4822   -4.5173    0.0000 H   0  0  0  0  0  0  0  0  0  0  0  0
    1.4643    2.6498    0.0000 H   0  0  0  0  0  0  0  0  0  0  0  0
    1.4643    4.3156    0.0000 H   0  0  0  0  0  0  0  0  0  0  0  0
  1 19  2  0  0  0  0
  2  5  1  0  0  0  0
  2  6  1  0  0  0  0
  2  9  1  0  0  0  0
  3  7  1  0  0  0  0
  3  8  1  0  0  0  0
  3 10  1  0  0  0  0
  4 12  1  0  0  0  0
  4 14  1  0  0  0  0
  4 19  1  0  0  0  0
  5  7  1  0  0  0  0
  5 25  1  0  0  0  0
  5 26  1  0  0  0  0
  6  8  1  0  0  0  0
  6 27  1  0  0  0  0
  6 28  1  0  0  0  0
  7 29  1  0  0  0  0
  7 30  1  0  0  0  0
  8 31  1  0  0  0  0
  8 32  1  0  0  0  0
  9 11  1  0  0  0  0
  9 33  1  0  0  0  0
  9 34  1  0  0  0  0
 10 13  1  0  0  0  0
 10 35  1  0  0  0  0
 10 36  1  0  0  0  0
 11 12  1  0  0  0  0
 11 37  1  0  0  0  0
 11 38  1  0  0  0  0
 12 39  1  0  0  0  0
 12 40  1  0  0  0  0
 13 15  1  0  0  0  0
 13 41  1  0  0  0  0
 13 42  1  0  0  0  0
 14 17  1  0  0  0  0
 14 20  2  0  0  0  0
 15 21  1  0  0  0  0
 15 43  1  0  0  0  0
 15 44  1  0  0  0  0
 16 17  1  0  0  0  0
 16 18  1  0  0  0  0
 16 45  1  0  0  0  0
 16 46  1  0  0  0  0
 17 22  2  0  0  0  0
 18 19  1  0  0  0  0
 18 47  1  0  0  0  0
 18 48  1  0  0  0  0
 20 23  1  0  0  0  0
 20 49  1  0  0  0  0
 21 51  1  0  0  0  0
 21 52  1  0  0  0  0
 21 53  1  0  0  0  0
 22 24  1  0  0  0  0
 22 50  1  0  0  0  0
 23 24  2  0  0  0  0
 23 54  1  0  0  0  0
 24 55  1  0  0  0  0
M  END
> <PUBCHEM_COMPOUND_CID>
137636308

> <PUBCHEM_COMPOUND_CANONICALIZED>
1

> <PUBCHEM_CACTVS_COMPLEXITY>
392

> <PUBCHEM_CACTVS_HBOND_ACCEPTOR>
3

> <PUBCHEM_CACTVS_HBOND_DONOR>
0

> <PUBCHEM_CACTVS_ROTATABLE_BOND>
7

> <PUBCHEM_CACTVS_SUBSKEYS>
AAADceB7IAAAAAAAAAAAAAAAAAAAAAAAAAA8WIAAAAAAAACxAAAAHgAAAAAADAjBmAQywIMAAACIAiVSUACCAAAhAgAIiAEIZIgIYDLA0ZGUIAhghgDIyAcYiYCeAAAAAAACAAAAAAAAAAQAAAAAAAAAAA==

> <PUBCHEM_IUPAC_OPENEYE_NAME>
1-[3-(4-butylpiperazin-1-yl)propyl]-3,4-dihydroquinolin-2-one

> <PUBCHEM_IUPAC_CAS_NAME>
1-[3-(4-butyl-1-piperazinyl)propyl]-3,4-dihydroquinolin-2-one

> <PUBCHEM_IUPAC_NAME_MARKUP>
1-[3-(4-butylpiperazin-1-yl)propyl]-3,4-dihydroquinolin-2-one

> <PUBCHEM_IUPAC_NAME>
1-[3-(4-butylpiperazin-1-yl)propyl]-3,4-dihydroquinolin-2-one

> <PUBCHEM_IUPAC_SYSTEMATIC_NAME>
1-[3-(4-butylpiperazin-1-yl)propyl]-3,4-dihydroquinolin-2-one

> <PUBCHEM_IUPAC_TRADITIONAL_NAME>
1-[3-(4-butylpiperazino)propyl]-3,4-dihydrocarbostyril

> <PUBCHEM_IUPAC_INCHI>
InChI=1S/C20H31N3O/c1-2-3-11-21-14-16-22(17-15-21)12-6-13-23-19-8-5-4-7-18(19)9-10-20(23)24/h4-5,7-8H,2-3,6,9-17H2,1H3

> <PUBCHEM_IUPAC_INCHIKEY>
UTUFKUUIPTWXPH-UHFFFAOYSA-N

> <PUBCHEM_XLOGP3_AA>
2.7

> <PUBCHEM_EXACT_MASS>
329.246712621

> <PUBCHEM_MOLECULAR_FORMULA>
C20H31N3O

> <PUBCHEM_MOLECULAR_WEIGHT>
329.5

> <PUBCHEM_OPENEYE_CAN_SMILES>
CCCCN1CCN(CC1)CCCN2C(=O)CCC3=CC=CC=C32

> <PUBCHEM_OPENEYE_ISO_SMILES>
CCCCN1CCN(CC1)CCCN2C(=O)CCC3=CC=CC=C32

> <PUBCHEM_CACTVS_TPSA>
26.8

> <PUBCHEM_MONOISOTOPIC_WEIGHT>
329.246712621

> <PUBCHEM_TOTAL_CHARGE>
0

> <PUBCHEM_HEAVY_ATOM_COUNT>
24

> <PUBCHEM_ATOM_DEF_STEREO_COUNT>
0

> <PUBCHEM_ATOM_UDEF_STEREO_COUNT>
0

> <PUBCHEM_BOND_DEF_STEREO_COUNT>
0

> <PUBCHEM_BOND_UDEF_STEREO_COUNT>
0

> <PUBCHEM_ISOTOPIC_ATOM_COUNT>
0

> <PUBCHEM_COMPONENT_COUNT>
1

> <PUBCHEM_CACTVS_TAUTO_COUNT>
-1

> <PUBCHEM_COORDINATE_TYPE>
1
5
255

> <PUBCHEM_BONDANNOTATIONS>
14  17  8
14  20  8
17  22  8
20  23  8
22  24  8
23  24  8

$$$$
