44431616
  -OEChem-09292322242D

 70 73  0     0  0  0  0  0  0999 V2000
    6.3301    3.0000    0.0000 S   0  0  0  0  0  0  0  0  0  0  0  0
    5.8301    3.8660    0.0000 O   0  0  0  0  0  0  0  0  0  0  0  0
    6.8301    2.1340    0.0000 O   0  0  0  0  0  0  0  0  0  0  0  0
    3.7320   -4.5000    0.0000 O   0  0  0  0  0  0  0  0  0  0  0  0
    5.4641   -1.5000    0.0000 N   0  0  0  0  0  0  0  0  0  0  0  0
    5.4641    2.5000    0.0000 N   0  0  0  0  0  0  0  0  0  0  0  0
    5.4641   -3.5000    0.0000 N   0  0  0  0  0  0  0  0  0  0  0  0
    5.4641   -0.5000    0.0000 C   0  0  0  0  0  0  0  0  0  0  0  0
    4.5981   -0.0000    0.0000 C   0  0  0  0  0  0  0  0  0  0  0  0
    6.3301    0.0000    0.0000 C   0  0  0  0  0  0  0  0  0  0  0  0
    5.4641    1.5000    0.0000 C   0  0  0  0  0  0  0  0  0  0  0  0
    4.5981    1.0000    0.0000 C   0  0  0  0  0  0  0  0  0  0  0  0
    6.3301    1.0000    0.0000 C   0  0  0  0  0  0  0  0  0  0  0  0
    6.3301   -2.0000    0.0000 C   0  0  0  0  0  0  0  0  0  0  0  0
    4.5981   -2.0000    0.0000 C   0  0  0  0  0  0  0  0  0  0  0  0
    6.3301   -3.0000    0.0000 C   0  0  0  0  0  0  0  0  0  0  0  0
    4.5981   -3.0000    0.0000 C   0  0  0  0  0  0  0  0  0  0  0  0
    5.4641   -4.5000    0.0000 C   0  0  0  0  0  0  0  0  0  0  0  0
    7.1962    3.5000    0.0000 C   0  0  0  0  0  0  0  0  0  0  0  0
    4.5981   -5.0000    0.0000 C   0  0  0  0  0  0  0  0  0  0  0  0
    6.3301   -5.0000    0.0000 C   0  0  0  0  0  0  0  0  0  0  0  0
    7.1962    4.5000    0.0000 C   0  0  0  0  0  0  0  0  0  0  0  0
    4.5981   -6.0000    0.0000 C   0  0  0  0  0  0  0  0  0  0  0  0
    6.3301   -6.0000    0.0000 C   0  0  0  0  0  0  0  0  0  0  0  0
    5.4641   -6.5000    0.0000 C   0  0  0  0  0  0  0  0  0  0  0  0
    8.0622    5.0000    0.0000 C   0  0  0  0  0  0  0  0  0  0  0  0
    6.3301    5.0000    0.0000 C   0  0  0  0  0  0  0  0  0  0  0  0
    2.8660   -5.0000    0.0000 C   0  0  0  0  0  0  0  0  0  0  0  0
    8.0622    6.0000    0.0000 C   0  0  0  0  0  0  0  0  0  0  0  0
    6.3301    6.0000    0.0000 C   0  0  0  0  0  0  0  0  0  0  0  0
    2.0000   -4.5000    0.0000 C   0  0  0  0  0  0  0  0  0  0  0  0
    2.8660   -6.0000    0.0000 C   0  0  0  0  0  0  0  0  0  0  0  0
    7.1962    6.5000    0.0000 C   0  0  0  0  0  0  0  0  0  0  0  0
    6.0010   -0.8100    0.0000 H   0  0  0  0  0  0  0  0  0  0  0  0
    3.9875    0.1077    0.0000 H   0  0  0  0  0  0  0  0  0  0  0  0
    4.3860   -0.5826    0.0000 H   0  0  0  0  0  0  0  0  0  0  0  0
    6.5422   -0.5826    0.0000 H   0  0  0  0  0  0  0  0  0  0  0  0
    6.9407    0.1077    0.0000 H   0  0  0  0  0  0  0  0  0  0  0  0
    6.0010    1.8100    0.0000 H   0  0  0  0  0  0  0  0  0  0  0  0
    4.3860    1.5826    0.0000 H   0  0  0  0  0  0  0  0  0  0  0  0
    3.9875    0.8923    0.0000 H   0  0  0  0  0  0  0  0  0  0  0  0
    6.9407    0.8923    0.0000 H   0  0  0  0  0  0  0  0  0  0  0  0
    6.5422    1.5826    0.0000 H   0  0  0  0  0  0  0  0  0  0  0  0
    6.9407   -2.1077    0.0000 H   0  0  0  0  0  0  0  0  0  0  0  0
    6.5422   -1.4174    0.0000 H   0  0  0  0  0  0  0  0  0  0  0  0
    4.3860   -1.4174    0.0000 H   0  0  0  0  0  0  0  0  0  0  0  0
    3.9875   -2.1077    0.0000 H   0  0  0  0  0  0  0  0  0  0  0  0
    6.5422   -3.5826    0.0000 H   0  0  0  0  0  0  0  0  0  0  0  0
    6.9407   -2.8923    0.0000 H   0  0  0  0  0  0  0  0  0  0  0  0
    3.9875   -2.8923    0.0000 H   0  0  0  0  0  0  0  0  0  0  0  0
    4.3860   -3.5826    0.0000 H   0  0  0  0  0  0  0  0  0  0  0  0
    4.9272    2.8100    0.0000 H   0  0  0  0  0  0  0  0  0  0  0  0
    7.4082    2.9174    0.0000 H   0  0  0  0  0  0  0  0  0  0  0  0
    7.8067    3.6077    0.0000 H   0  0  0  0  0  0  0  0  0  0  0  0
    6.8671   -4.6900    0.0000 H   0  0  0  0  0  0  0  0  0  0  0  0
    4.0611   -6.3100    0.0000 H   0  0  0  0  0  0  0  0  0  0  0  0
    6.8671   -6.3100    0.0000 H   0  0  0  0  0  0  0  0  0  0  0  0
    5.4641   -7.1200    0.0000 H   0  0  0  0  0  0  0  0  0  0  0  0
    8.5991    4.6900    0.0000 H   0  0  0  0  0  0  0  0  0  0  0  0
    5.7932    4.6900    0.0000 H   0  0  0  0  0  0  0  0  0  0  0  0
    2.8660   -4.3800    0.0000 H   0  0  0  0  0  0  0  0  0  0  0  0
    8.5991    6.3100    0.0000 H   0  0  0  0  0  0  0  0  0  0  0  0
    5.7932    6.3100    0.0000 H   0  0  0  0  0  0  0  0  0  0  0  0
    2.3100   -3.9631    0.0000 H   0  0  0  0  0  0  0  0  0  0  0  0
    1.4631   -4.1900    0.0000 H   0  0  0  0  0  0  0  0  0  0  0  0
    1.6900   -5.0369    0.0000 H   0  0  0  0  0  0  0  0  0  0  0  0
    2.2460   -6.0000    0.0000 H   0  0  0  0  0  0  0  0  0  0  0  0
    2.8660   -6.6200    0.0000 H   0  0  0  0  0  0  0  0  0  0  0  0
    3.4860   -6.0000    0.0000 H   0  0  0  0  0  0  0  0  0  0  0  0
    7.1962    7.1200    0.0000 H   0  0  0  0  0  0  0  0  0  0  0  0
  1  2  2  0  0  0  0
  1  3  2  0  0  0  0
  1  6  1  0  0  0  0
  1 19  1  0  0  0  0
  4 20  1  0  0  0  0
  4 28  1  0  0  0  0
  5  8  1  0  0  0  0
  5 14  1  0  0  0  0
  5 15  1  0  0  0  0
  6 11  1  0  0  0  0
  6 52  1  0  0  0  0
  7 16  1  0  0  0  0
  7 17  1  0  0  0  0
  7 18  1  0  0  0  0
  8  9  1  0  0  0  0
  8 10  1  0  0  0  0
  8 34  1  0  0  0  0
  9 12  1  0  0  0  0
  9 35  1  0  0  0  0
  9 36  1  0  0  0  0
 10 13  1  0  0  0  0
 10 37  1  0  0  0  0
 10 38  1  0  0  0  0
 11 12  1  0  0  0  0
 11 13  1  0  0  0  0
 11 39  1  0  0  0  0
 12 40  1  0  0  0  0
 12 41  1  0  0  0  0
 13 42  1  0  0  0  0
 13 43  1  0  0  0  0
 14 16  1  0  0  0  0
 14 44  1  0  0  0  0
 14 45  1  0  0  0  0
 15 17  1  0  0  0  0
 15 46  1  0  0  0  0
 15 47  1  0  0  0  0
 16 48  1  0  0  0  0
 16 49  1  0  0  0  0
 17 50  1  0  0  0  0
 17 51  1  0  0  0  0
 18 20  1  0  0  0  0
 18 21  2  0  0  0  0
 19 22  1  0  0  0  0
 19 53  1  0  0  0  0
 19 54  1  0  0  0  0
 20 23  2  0  0  0  0
 21 24  1  0  0  0  0
 21 55  1  0  0  0  0
 22 26  2  0  0  0  0
 22 27  1  0  0  0  0
 23 25  1  0  0  0  0
 23 56  1  0  0  0  0
 24 25  2  0  0  0  0
 24 57  1  0  0  0  0
 25 58  1  0  0  0  0
 26 29  1  0  0  0  0
 26 59  1  0  0  0  0
 27 30  2  0  0  0  0
 27 60  1  0  0  0  0
 28 31  1  0  0  0  0
 28 32  1  0  0  0  0
 28 61  1  0  0  0  0
 29 33  2  0  0  0  0
 29 62  1  0  0  0  0
 30 33  1  0  0  0  0
 30 63  1  0  0  0  0
 31 64  1  0  0  0  0
 31 65  1  0  0  0  0
 31 66  1  0  0  0  0
 32 67  1  0  0  0  0
 32 68  1  0  0  0  0
 32 69  1  0  0  0  0
 33 70  1  0  0  0  0
M  END
> <PUBCHEM_COMPOUND_CID>
44431616

> <PUBCHEM_COMPOUND_CANONICALIZED>
1

> <PUBCHEM_CACTVS_COMPLEXITY>
673

> <PUBCHEM_CACTVS_HBOND_ACCEPTOR>
6

> <PUBCHEM_CACTVS_HBOND_DONOR>
1

> <PUBCHEM_CACTVS_ROTATABLE_BOND>
8

> <PUBCHEM_CACTVS_SUBSKEYS>
AAADcfB7MABAAAAAAAAAAAAAAAAAAAAAAAA8YMEAAAAAAAABQAAAHgQQQAAADDzl2AayxoNABAKAAiRCQHDCCAAhIgAIiIAPbIgOZiLEsZuXOCjk0BHY6AeQwAAOAAAAAAAAEAAAAQAAAAAgAAAAAAAAAA==

> <PUBCHEM_IUPAC_OPENEYE_NAME>
N-[4-[4-(2-isopropoxyphenyl)piperazin-1-yl]cyclohexyl]-1-phenyl-methanesulfonamide

> <PUBCHEM_IUPAC_CAS_NAME>
1-phenyl-N-[4-[4-(2-propan-2-yloxyphenyl)-1-piperazinyl]cyclohexyl]methanesulfonamide

> <PUBCHEM_IUPAC_NAME_MARKUP>
1-phenyl-<I>N</I>-[4-[4-(2-propan-2-yloxyphenyl)piperazin-1-yl]cyclohexyl]methanesulfonamide

> <PUBCHEM_IUPAC_NAME>
1-phenyl-N-[4-[4-(2-propan-2-yloxyphenyl)piperazin-1-yl]cyclohexyl]methanesulfonamide

> <PUBCHEM_IUPAC_SYSTEMATIC_NAME>
1-phenyl-N-[4-[4-(2-propan-2-yloxyphenyl)piperazin-1-yl]cyclohexyl]methanesulfonamide

> <PUBCHEM_IUPAC_TRADITIONAL_NAME>
N-[4-[4-(2-isopropoxyphenyl)piperazino]cyclohexyl]-1-phenyl-methanesulfonamide

> <PUBCHEM_IUPAC_INCHI>
InChI=1S/C26H37N3O3S/c1-21(2)32-26-11-7-6-10-25(26)29-18-16-28(17-19-29)24-14-12-23(13-15-24)27-33(30,31)20-22-8-4-3-5-9-22/h3-11,21,23-24,27H,12-20H2,1-2H3

> <PUBCHEM_IUPAC_INCHIKEY>
OCDNDDLEORDHLQ-UHFFFAOYSA-N

> <PUBCHEM_XLOGP3_AA>
4.6

> <PUBCHEM_EXACT_MASS>
471.25556322

> <PUBCHEM_MOLECULAR_FORMULA>
C26H37N3O3S

> <PUBCHEM_MOLECULAR_WEIGHT>
471.7

> <PUBCHEM_OPENEYE_CAN_SMILES>
CC(C)OC1=CC=CC=C1N2CCN(CC2)C3CCC(CC3)NS(=O)(=O)CC4=CC=CC=C4

> <PUBCHEM_OPENEYE_ISO_SMILES>
CC(C)OC1=CC=CC=C1N2CCN(CC2)C3CCC(CC3)NS(=O)(=O)CC4=CC=CC=C4

> <PUBCHEM_CACTVS_TPSA>
70.3

> <PUBCHEM_MONOISOTOPIC_WEIGHT>
471.25556322

> <PUBCHEM_TOTAL_CHARGE>
0

> <PUBCHEM_HEAVY_ATOM_COUNT>
33

> <PUBCHEM_ATOM_DEF_STEREO_COUNT>
0

> <PUBCHEM_ATOM_UDEF_STEREO_COUNT>
0

> <PUBCHEM_BOND_DEF_STEREO_COUNT>
0

> <PUBCHEM_BOND_UDEF_STEREO_COUNT>
0

> <PUBCHEM_ISOTOPIC_ATOM_COUNT>
0

> <PUBCHEM_COMPONENT_COUNT>
1

> <PUBCHEM_CACTVS_TAUTO_COUNT>
-1

> <PUBCHEM_COORDINATE_TYPE>
1
5
255

> <PUBCHEM_BONDANNOTATIONS>
18  20  8
18  21  8
20  23  8
21  24  8
22  26  8
22  27  8
23  25  8
24  25  8
26  29  8
27  30  8
29  33  8
30  33  8

$$$$
