164916959
  -OEChem-09292322442D

 96 99  0     1  0  0  0  0  0999 V2000
    6.0010   -5.0167    0.0000 Cl  0  0  0  0  0  0  0  0  0  0  0  0
    8.5782    0.2152    0.0000 O   0  0  0  0  0  0  0  0  0  0  0  0
   13.8894    1.6319    0.0000 O   0  0  0  0  0  0  0  0  0  0  0  0
    3.4030   -1.5167    0.0000 O   0  0  0  0  0  0  0  0  0  0  0  0
    6.0010   -3.0167    0.0000 O   0  0  0  0  0  0  0  0  0  0  0  0
    2.5369   -3.0167    0.0000 O   0  0  0  0  0  0  0  0  0  0  0  0
    6.1056    0.9778    0.0000 N   0  0  0  0  0  0  0  0  0  0  0  0
    5.1350   -1.5167    0.0000 N   0  0  0  0  0  0  0  0  0  0  0  0
   12.3306    2.4332    0.0000 N   0  0  0  0  0  0  0  0  0  0  0  0
   15.0449    1.0683    0.0000 N   0  0  0  0  0  0  0  0  0  0  0  0
    6.0010   -0.0167    0.0000 C   0  0  1  0  0  0  0  0  0  0  0  0
    7.5837    0.3197    0.0000 C   0  0  2  0  0  0  0  0  0  0  0  0
    6.9146   -0.4234    0.0000 C   0  0  0  0  0  0  0  0  0  0  0  0
    7.0837    1.1857    0.0000 C   0  0  0  0  0  0  0  0  0  0  0  0
    5.1350   -0.5167    0.0000 C   0  0  0  0  0  0  0  0  0  0  0  0
    9.1660    1.0242    0.0000 C   0  0  0  0  0  0  0  0  0  0  0  0
   14.9075    3.0331    0.0000 C   0  0  0  0  0  0  0  0  0  0  0  0
   10.1605    0.9197    0.0000 C   0  0  0  0  0  0  0  0  0  0  0  0
   13.9129    3.1377    0.0000 C   0  0  0  0  0  0  0  0  0  0  0  0
   10.7483    1.7287    0.0000 C   0  0  0  0  0  0  0  0  0  0  0  0
   13.3252    2.3286    0.0000 C   0  0  0  0  0  0  0  0  0  0  0  0
   11.7428    1.6242    0.0000 C   0  0  0  0  0  0  0  0  0  0  0  0
   15.9020    2.9286    0.0000 C   0  0  0  0  0  0  0  0  0  0  0  0
   15.0120    4.0277    0.0000 C   0  0  0  0  0  0  0  0  0  0  0  0
   14.8029    2.0386    0.0000 C   0  0  0  0  0  0  0  0  0  0  0  0
    4.2690   -2.0167    0.0000 C   0  0  0  0  0  0  0  0  0  0  0  0
   16.4898    3.7376    0.0000 C   0  0  0  0  0  0  0  0  0  0  0  0
   14.2030    4.6154    0.0000 C   0  0  0  0  0  0  0  0  0  0  0  0
   16.3087    2.0151    0.0000 C   0  0  0  0  0  0  0  0  0  0  0  0
   15.9255    4.4344    0.0000 C   0  0  0  0  0  0  0  0  0  0  0  0
    4.2690   -3.0167    0.0000 C   0  0  0  0  0  0  0  0  0  0  0  0
   17.4843    3.6331    0.0000 C   0  0  0  0  0  0  0  0  0  0  0  0
   14.3075    5.6100    0.0000 C   0  0  0  0  0  0  0  0  0  0  0  0
   17.3032    1.9105    0.0000 C   0  0  0  0  0  0  0  0  0  0  0  0
   16.0301    5.4289    0.0000 C   0  0  0  0  0  0  0  0  0  0  0  0
   14.3255    0.3737    0.0000 C   0  0  0  0  0  0  0  0  0  0  0  0
   16.0061    0.7927    0.0000 C   0  0  0  0  0  0  0  0  0  0  0  0
    3.4030   -3.5167    0.0000 C   0  0  0  0  0  0  0  0  0  0  0  0
    5.1350   -3.5167    0.0000 C   0  0  0  0  0  0  0  0  0  0  0  0
   17.8910    2.7196    0.0000 C   0  0  0  0  0  0  0  0  0  0  0  0
   15.2210    6.0167    0.0000 C   0  0  0  0  0  0  0  0  0  0  0  0
    3.4030   -4.5167    0.0000 C   0  0  0  0  0  0  0  0  0  0  0  0
    5.1350   -4.5167    0.0000 C   0  0  0  0  0  0  0  0  0  0  0  0
    4.2690   -5.0167    0.0000 C   0  0  0  0  0  0  0  0  0  0  0  0
    2.5369   -5.0167    0.0000 C   0  0  0  0  0  0  0  0  0  0  0  0
    2.5369   -6.0167    0.0000 C   0  0  0  0  0  0  0  0  0  0  0  0
    6.8671   -3.5167    0.0000 C   0  0  0  0  0  0  0  0  0  0  0  0
    5.4811    0.3210    0.0000 H   0  0  0  0  0  0  0  0  0  0  0  0
    7.8059   -0.2591    0.0000 H   0  0  0  0  0  0  0  0  0  0  0  0
    6.6046   -0.9604    0.0000 H   0  0  0  0  0  0  0  0  0  0  0  0
    7.4162   -0.7879    0.0000 H   0  0  0  0  0  0  0  0  0  0  0  0
    7.6501    1.4379    0.0000 H   0  0  0  0  0  0  0  0  0  0  0  0
    6.8921    1.7754    0.0000 H   0  0  0  0  0  0  0  0  0  0  0  0
    5.6448    1.3927    0.0000 H   0  0  0  0  0  0  0  0  0  0  0  0
    4.9230    0.0659    0.0000 H   0  0  0  0  0  0  0  0  0  0  0  0
    4.5244   -0.6244    0.0000 H   0  0  0  0  0  0  0  0  0  0  0  0
    9.3369    1.6202    0.0000 H   0  0  0  0  0  0  0  0  0  0  0  0
    8.6088    1.2960    0.0000 H   0  0  0  0  0  0  0  0  0  0  0  0
    9.9896    0.3237    0.0000 H   0  0  0  0  0  0  0  0  0  0  0  0
   10.7178    0.6479    0.0000 H   0  0  0  0  0  0  0  0  0  0  0  0
    5.6720   -1.8267    0.0000 H   0  0  0  0  0  0  0  0  0  0  0  0
   14.0838    3.7336    0.0000 H   0  0  0  0  0  0  0  0  0  0  0  0
   13.3557    3.4094    0.0000 H   0  0  0  0  0  0  0  0  0  0  0  0
   10.9192    2.3247    0.0000 H   0  0  0  0  0  0  0  0  0  0  0  0
   10.1911    2.0005    0.0000 H   0  0  0  0  0  0  0  0  0  0  0  0
   13.1543    1.7327    0.0000 H   0  0  0  0  0  0  0  0  0  0  0  0
   13.8824    2.0569    0.0000 H   0  0  0  0  0  0  0  0  0  0  0  0
   11.5720    1.0282    0.0000 H   0  0  0  0  0  0  0  0  0  0  0  0
   12.3001    1.3524    0.0000 H   0  0  0  0  0  0  0  0  0  0  0  0
   12.0785    2.9996    0.0000 H   0  0  0  0  0  0  0  0  0  0  0  0
   16.2376    4.3040    0.0000 H   0  0  0  0  0  0  0  0  0  0  0  0
   13.6366    4.3633    0.0000 H   0  0  0  0  0  0  0  0  0  0  0  0
   15.9443    1.5135    0.0000 H   0  0  0  0  0  0  0  0  0  0  0  0
   16.4271    4.0700    0.0000 H   0  0  0  0  0  0  0  0  0  0  0  0
   17.8487    4.1347    0.0000 H   0  0  0  0  0  0  0  0  0  0  0  0
   13.8059    5.9744    0.0000 H   0  0  0  0  0  0  0  0  0  0  0  0
   17.5554    1.3441    0.0000 H   0  0  0  0  0  0  0  0  0  0  0  0
   16.5965    5.6811    0.0000 H   0  0  0  0  0  0  0  0  0  0  0  0
   13.8948    0.8196    0.0000 H   0  0  0  0  0  0  0  0  0  0  0  0
   13.8795   -0.0570    0.0000 H   0  0  0  0  0  0  0  0  0  0  0  0
   14.7562   -0.0723    0.0000 H   0  0  0  0  0  0  0  0  0  0  0  0
   15.8352    0.1967    0.0000 H   0  0  0  0  0  0  0  0  0  0  0  0
   16.6021    0.6218    0.0000 H   0  0  0  0  0  0  0  0  0  0  0  0
   16.1770    1.3887    0.0000 H   0  0  0  0  0  0  0  0  0  0  0  0
   18.5076    2.6547    0.0000 H   0  0  0  0  0  0  0  0  0  0  0  0
   15.2859    6.6333    0.0000 H   0  0  0  0  0  0  0  0  0  0  0  0
    4.2690   -5.6367    0.0000 H   0  0  0  0  0  0  0  0  0  0  0  0
    2.3249   -4.4341    0.0000 H   0  0  0  0  0  0  0  0  0  0  0  0
    1.9264   -5.1244    0.0000 H   0  0  0  0  0  0  0  0  0  0  0  0
    2.0000   -3.3267    0.0000 H   0  0  0  0  0  0  0  0  0  0  0  0
    1.9169   -6.0167    0.0000 H   0  0  0  0  0  0  0  0  0  0  0  0
    2.5369   -6.6367    0.0000 H   0  0  0  0  0  0  0  0  0  0  0  0
    3.1569   -6.0167    0.0000 H   0  0  0  0  0  0  0  0  0  0  0  0
    6.5571   -4.0536    0.0000 H   0  0  0  0  0  0  0  0  0  0  0  0
    7.4040   -3.8267    0.0000 H   0  0  0  0  0  0  0  0  0  0  0  0
    7.1771   -2.9798    0.0000 H   0  0  0  0  0  0  0  0  0  0  0  0
  1 43  1  0  0  0  0
 12  2  1  6  0  0  0
  2 16  1  0  0  0  0
  3 25  2  0  0  0  0
  4 26  2  0  0  0  0
  5 39  1  0  0  0  0
  5 47  1  0  0  0  0
  6 38  1  0  0  0  0
  6 90  1  0  0  0  0
  7 11  1  0  0  0  0
  7 14  1  0  0  0  0
  7 54  1  0  0  0  0
  8 15  1  0  0  0  0
  8 26  1  0  0  0  0
  8 61  1  0  0  0  0
  9 21  1  0  0  0  0
  9 22  1  0  0  0  0
  9 70  1  0  0  0  0
 10 25  1  0  0  0  0
 10 36  1  0  0  0  0
 10 37  1  0  0  0  0
 11 13  1  0  0  0  0
 11 15  1  1  0  0  0
 11 48  1  0  0  0  0
 12 13  1  0  0  0  0
 12 14  1  0  0  0  0
 12 49  1  0  0  0  0
 13 50  1  0  0  0  0
 13 51  1  0  0  0  0
 14 52  1  0  0  0  0
 14 53  1  0  0  0  0
 15 55  1  0  0  0  0
 15 56  1  0  0  0  0
 16 18  1  0  0  0  0
 16 57  1  0  0  0  0
 16 58  1  0  0  0  0
 17 19  1  0  0  0  0
 17 23  1  0  0  0  0
 17 24  1  0  0  0  0
 17 25  1  0  0  0  0
 18 20  1  0  0  0  0
 18 59  1  0  0  0  0
 18 60  1  0  0  0  0
 19 21  1  0  0  0  0
 19 62  1  0  0  0  0
 19 63  1  0  0  0  0
 20 22  1  0  0  0  0
 20 64  1  0  0  0  0
 20 65  1  0  0  0  0
 21 66  1  0  0  0  0
 21 67  1  0  0  0  0
 22 68  1  0  0  0  0
 22 69  1  0  0  0  0
 23 27  2  0  0  0  0
 23 29  1  0  0  0  0
 24 28  2  0  0  0  0
 24 30  1  0  0  0  0
 26 31  1  0  0  0  0
 27 32  1  0  0  0  0
 27 71  1  0  0  0  0
 28 33  1  0  0  0  0
 28 72  1  0  0  0  0
 29 34  2  0  0  0  0
 29 73  1  0  0  0  0
 30 35  2  0  0  0  0
 30 74  1  0  0  0  0
 31 38  2  0  0  0  0
 31 39  1  0  0  0  0
 32 40  2  0  0  0  0
 32 75  1  0  0  0  0
 33 41  2  0  0  0  0
 33 76  1  0  0  0  0
 34 40  1  0  0  0  0
 34 77  1  0  0  0  0
 35 41  1  0  0  0  0
 35 78  1  0  0  0  0
 36 79  1  0  0  0  0
 36 80  1  0  0  0  0
 36 81  1  0  0  0  0
 37 82  1  0  0  0  0
 37 83  1  0  0  0  0
 37 84  1  0  0  0  0
 38 42  1  0  0  0  0
 39 43  2  0  0  0  0
 40 85  1  0  0  0  0
 41 86  1  0  0  0  0
 42 44  2  0  0  0  0
 42 45  1  0  0  0  0
 43 44  1  0  0  0  0
 44 87  1  0  0  0  0
 45 46  1  0  0  0  0
 45 88  1  0  0  0  0
 45 89  1  0  0  0  0
 46 91  1  0  0  0  0
 46 92  1  0  0  0  0
 46 93  1  0  0  0  0
 47 94  1  0  0  0  0
 47 95  1  0  0  0  0
 47 96  1  0  0  0  0
M  END
> <PUBCHEM_COMPOUND_CID>
164916959

> <PUBCHEM_COMPOUND_CANONICALIZED>
1

> <PUBCHEM_CACTVS_COMPLEXITY>
926

> <PUBCHEM_CACTVS_HBOND_ACCEPTOR>
7

> <PUBCHEM_CACTVS_HBOND_DONOR>
4

> <PUBCHEM_CACTVS_ROTATABLE_BOND>
17

> <PUBCHEM_CACTVS_SUBSKEYS>
AAADcfB/uAAEAAAAAAAAAAAAAAAAAWAAAAAwYMAAAAAAAAABUAAAHgIQCAAADj7hmCYyBoPABgCIAiFSEACCCAAkJUAIiIEMD8gOZzeHtxuXcWhn9hWYuQe86OyPoCACKAAICABAQARQABAQAAAAAAAAAA==

> <PUBCHEM_IUPAC_OPENEYE_NAME>
5-chloro-N-[[(2S,4R)-4-[4-[[4-(dimethylamino)-4-oxo-3,3-diphenyl-butyl]amino]butoxy]pyrrolidin-2-yl]methyl]-3-ethyl-2-hydroxy-6-methoxy-benzamide

> <PUBCHEM_IUPAC_CAS_NAME>
5-chloro-N-[[(2S,4R)-4-[4-[[4-(dimethylamino)-4-oxo-3,3-diphenylbutyl]amino]butoxy]-2-pyrrolidinyl]methyl]-3-ethyl-2-hydroxy-6-methoxybenzamide

> <PUBCHEM_IUPAC_NAME_MARKUP>
5-chloro-<I>N</I>-[[(2<I>S</I>,4<I>R</I>)-4-[4-[[4-(dimethylamino)-4-oxo-3,3-diphenylbutyl]amino]butoxy]pyrrolidin-2-yl]methyl]-3-ethyl-2-hydroxy-6-methoxybenzamide

> <PUBCHEM_IUPAC_NAME>
5-chloro-N-[[(2S,4R)-4-[4-[[4-(dimethylamino)-4-oxo-3,3-diphenylbutyl]amino]butoxy]pyrrolidin-2-yl]methyl]-3-ethyl-2-hydroxy-6-methoxybenzamide

> <PUBCHEM_IUPAC_SYSTEMATIC_NAME>
3-chloranyl-N-[[(2S,4R)-4-[4-[[4-(dimethylamino)-4-oxidanylidene-3,3-diphenyl-butyl]amino]butoxy]pyrrolidin-2-yl]methyl]-5-ethyl-2-methoxy-6-oxidanyl-benzamide

> <PUBCHEM_IUPAC_TRADITIONAL_NAME>
5-chloro-N-[[(2S,4R)-4-[4-[[4-(dimethylamino)-4-keto-3,3-diphenyl-butyl]amino]butoxy]pyrrolidin-2-yl]methyl]-3-ethyl-2-hydroxy-6-methoxy-benzamide

> <PUBCHEM_IUPAC_INCHI>
InChI=1S/C37H49ClN4O5/c1-5-26-22-31(38)34(46-4)32(33(26)43)35(44)41-24-29-23-30(25-40-29)47-21-13-12-19-39-20-18-37(36(45)42(2)3,27-14-8-6-9-15-27)28-16-10-7-11-17-28/h6-11,14-17,22,29-30,39-40,43H,5,12-13,18-21,23-25H2,1-4H3,(H,41,44)/t29-,30+/m0/s1

> <PUBCHEM_IUPAC_INCHIKEY>
RBXWTIUJXQLTFC-XZWHSSHBSA-N

> <PUBCHEM_XLOGP3_AA>
5.7

> <PUBCHEM_EXACT_MASS>
664.3391484

> <PUBCHEM_MOLECULAR_FORMULA>
C37H49ClN4O5

> <PUBCHEM_MOLECULAR_WEIGHT>
665.3

> <PUBCHEM_OPENEYE_CAN_SMILES>
CCC1=CC(=C(C(=C1O)C(=O)NCC2CC(CN2)OCCCCNCCC(C3=CC=CC=C3)(C4=CC=CC=C4)C(=O)N(C)C)OC)Cl

> <PUBCHEM_OPENEYE_ISO_SMILES>
CCC1=CC(=C(C(=C1O)C(=O)NC[C@@H]2C[C@H](CN2)OCCCCNCCC(C3=CC=CC=C3)(C4=CC=CC=C4)C(=O)N(C)C)OC)Cl

> <PUBCHEM_CACTVS_TPSA>
112

> <PUBCHEM_MONOISOTOPIC_WEIGHT>
664.3391484

> <PUBCHEM_TOTAL_CHARGE>
0

> <PUBCHEM_HEAVY_ATOM_COUNT>
47

> <PUBCHEM_ATOM_DEF_STEREO_COUNT>
2

> <PUBCHEM_ATOM_UDEF_STEREO_COUNT>
0

> <PUBCHEM_BOND_DEF_STEREO_COUNT>
0

> <PUBCHEM_BOND_UDEF_STEREO_COUNT>
0

> <PUBCHEM_ISOTOPIC_ATOM_COUNT>
0

> <PUBCHEM_COMPONENT_COUNT>
1

> <PUBCHEM_CACTVS_TAUTO_COUNT>
-1

> <PUBCHEM_COORDINATE_TYPE>
1
5
255

> <PUBCHEM_BONDANNOTATIONS>
11  15  5
12  2  6
23  27  8
23  29  8
24  28  8
24  30  8
27  32  8
28  33  8
29  34  8
30  35  8
31  38  8
31  39  8
32  40  8
33  41  8
34  40  8
35  41  8
38  42  8
39  43  8
42  44  8
43  44  8

$$$$
