11099801
  -OEChem-09292322512D

 46 48  0     0  0  0  0  0  0999 V2000
    4.6261    2.2702    0.0000 S   0  0  0  0  0  0  0  0  0  0  0  0
    5.6261    2.2702    0.0000 O   0  0  0  0  0  0  0  0  0  0  0  0
    3.6261    2.2702    0.0000 O   0  0  0  0  0  0  0  0  0  0  0  0
    2.0000   -3.5086    0.0000 O   0  0  0  0  0  0  0  0  0  0  0  0
    4.6261   -0.7298    0.0000 N   0  0  0  0  0  0  0  0  0  0  0  0
    3.7601   -3.2298    0.0000 N   0  0  0  0  0  0  0  0  0  0  0  0
    3.2601   -4.7686    0.0000 N   0  0  0  0  0  0  0  0  0  0  0  0
    4.6261    1.2702    0.0000 C   0  0  0  0  0  0  0  0  0  0  0  0
    5.4921    0.7702    0.0000 C   0  0  0  0  0  0  0  0  0  0  0  0
    3.7601    0.7702    0.0000 C   0  0  0  0  0  0  0  0  0  0  0  0
    5.4921   -0.2298    0.0000 C   0  0  0  0  0  0  0  0  0  0  0  0
    3.7601   -0.2298    0.0000 C   0  0  0  0  0  0  0  0  0  0  0  0
    4.6261   -1.7298    0.0000 C   0  0  0  0  0  0  0  0  0  0  0  0
    3.7601   -2.2298    0.0000 C   0  0  0  0  0  0  0  0  0  0  0  0
    4.6261    3.2702    0.0000 C   0  0  0  0  0  0  0  0  0  0  0  0
    4.5691   -3.8176    0.0000 C   0  0  0  0  0  0  0  0  0  0  0  0
    4.2601   -4.7686    0.0000 C   0  0  0  0  0  0  0  0  0  0  0  0
    2.9511   -3.8176    0.0000 C   0  0  0  0  0  0  0  0  0  0  0  0
    5.4921    3.7702    0.0000 C   0  0  0  0  0  0  0  0  0  0  0  0
    3.7601    3.7702    0.0000 C   0  0  0  0  0  0  0  0  0  0  0  0
    5.4921    4.7702    0.0000 C   0  0  0  0  0  0  0  0  0  0  0  0
    3.7601    4.7702    0.0000 C   0  0  0  0  0  0  0  0  0  0  0  0
    4.6261    5.2702    0.0000 C   0  0  0  0  0  0  0  0  0  0  0  0
    5.1630    1.5802    0.0000 H   0  0  0  0  0  0  0  0  0  0  0  0
    6.1027    0.6626    0.0000 H   0  0  0  0  0  0  0  0  0  0  0  0
    5.7042    1.3528    0.0000 H   0  0  0  0  0  0  0  0  0  0  0  0
    3.5480    1.3528    0.0000 H   0  0  0  0  0  0  0  0  0  0  0  0
    3.1495    0.6626    0.0000 H   0  0  0  0  0  0  0  0  0  0  0  0
    5.7042   -0.8124    0.0000 H   0  0  0  0  0  0  0  0  0  0  0  0
    6.1027   -0.1221    0.0000 H   0  0  0  0  0  0  0  0  0  0  0  0
    3.1495   -0.1221    0.0000 H   0  0  0  0  0  0  0  0  0  0  0  0
    3.5480   -0.8124    0.0000 H   0  0  0  0  0  0  0  0  0  0  0  0
    4.8382   -2.3124    0.0000 H   0  0  0  0  0  0  0  0  0  0  0  0
    5.2367   -1.6221    0.0000 H   0  0  0  0  0  0  0  0  0  0  0  0
    3.5480   -1.6472    0.0000 H   0  0  0  0  0  0  0  0  0  0  0  0
    3.1495   -2.3374    0.0000 H   0  0  0  0  0  0  0  0  0  0  0  0
    5.1355   -4.0698    0.0000 H   0  0  0  0  0  0  0  0  0  0  0  0
    4.8791   -3.2806    0.0000 H   0  0  0  0  0  0  0  0  0  0  0  0
    4.1953   -5.3852    0.0000 H   0  0  0  0  0  0  0  0  0  0  0  0
    4.8665   -4.8975    0.0000 H   0  0  0  0  0  0  0  0  0  0  0  0
    2.8956   -5.2702    0.0000 H   0  0  0  0  0  0  0  0  0  0  0  0
    6.0291    3.4602    0.0000 H   0  0  0  0  0  0  0  0  0  0  0  0
    3.2231    3.4602    0.0000 H   0  0  0  0  0  0  0  0  0  0  0  0
    6.0291    5.0802    0.0000 H   0  0  0  0  0  0  0  0  0  0  0  0
    3.2231    5.0802    0.0000 H   0  0  0  0  0  0  0  0  0  0  0  0
    4.6261    5.8902    0.0000 H   0  0  0  0  0  0  0  0  0  0  0  0
  1  2  2  0  0  0  0
  1  3  2  0  0  0  0
  1  8  1  0  0  0  0
  1 15  1  0  0  0  0
  4 18  2  0  0  0  0
  5 11  1  0  0  0  0
  5 12  1  0  0  0  0
  5 13  1  0  0  0  0
  6 14  1  0  0  0  0
  6 16  1  0  0  0  0
  6 18  1  0  0  0  0
  7 17  1  0  0  0  0
  7 18  1  0  0  0  0
  7 41  1  0  0  0  0
  8  9  1  0  0  0  0
  8 10  1  0  0  0  0
  8 24  1  0  0  0  0
  9 11  1  0  0  0  0
  9 25  1  0  0  0  0
  9 26  1  0  0  0  0
 10 12  1  0  0  0  0
 10 27  1  0  0  0  0
 10 28  1  0  0  0  0
 11 29  1  0  0  0  0
 11 30  1  0  0  0  0
 12 31  1  0  0  0  0
 12 32  1  0  0  0  0
 13 14  1  0  0  0  0
 13 33  1  0  0  0  0
 13 34  1  0  0  0  0
 14 35  1  0  0  0  0
 14 36  1  0  0  0  0
 15 19  2  0  0  0  0
 15 20  1  0  0  0  0
 16 17  1  0  0  0  0
 16 37  1  0  0  0  0
 16 38  1  0  0  0  0
 17 39  1  0  0  0  0
 17 40  1  0  0  0  0
 19 21  1  0  0  0  0
 19 42  1  0  0  0  0
 20 22  2  0  0  0  0
 20 43  1  0  0  0  0
 21 23  2  0  0  0  0
 21 44  1  0  0  0  0
 22 23  1  0  0  0  0
 22 45  1  0  0  0  0
 23 46  1  0  0  0  0
M  END
> <PUBCHEM_COMPOUND_CID>
11099801

> <PUBCHEM_COMPOUND_CANONICALIZED>
1

> <PUBCHEM_CACTVS_COMPLEXITY>
503

> <PUBCHEM_CACTVS_HBOND_ACCEPTOR>
4

> <PUBCHEM_CACTVS_HBOND_DONOR>
1

> <PUBCHEM_CACTVS_ROTATABLE_BOND>
5

> <PUBCHEM_CACTVS_SUBSKEYS>
AAADceB7MABAAAAAAAAAAAAAAAAAAWAAAAA8QAAAAAAAAAABAAAAHgQQAAAACADFUASxAYPAAAqIACBCEHBCAAAgCBAIiJgIAIiIYCKgkRCUIAAolgKoiAcQAAAAAAAAAAAAAAAAAAAAAAAAAAAAAAAAAA==

> <PUBCHEM_IUPAC_OPENEYE_NAME>
1-[2-[4-(benzenesulfonyl)-1-piperidyl]ethyl]imidazolidin-2-one

> <PUBCHEM_IUPAC_CAS_NAME>
1-[2-[4-(benzenesulfonyl)-1-piperidinyl]ethyl]-2-imidazolidinone

> <PUBCHEM_IUPAC_NAME_MARKUP>
1-[2-[4-(benzenesulfonyl)piperidin-1-yl]ethyl]imidazolidin-2-one

> <PUBCHEM_IUPAC_NAME>
1-[2-[4-(benzenesulfonyl)piperidin-1-yl]ethyl]imidazolidin-2-one

> <PUBCHEM_IUPAC_SYSTEMATIC_NAME>
1-[2-[4-(phenylsulfonyl)piperidin-1-yl]ethyl]imidazolidin-2-one

> <PUBCHEM_IUPAC_TRADITIONAL_NAME>
1-[2-(4-besylpiperidino)ethyl]-2-imidazolidinone

> <PUBCHEM_IUPAC_INCHI>
InChI=1S/C16H23N3O3S/c20-16-17-8-11-19(16)13-12-18-9-6-15(7-10-18)23(21,22)14-4-2-1-3-5-14/h1-5,15H,6-13H2,(H,17,20)

> <PUBCHEM_IUPAC_INCHIKEY>
CCFCIFUXOWLDJD-UHFFFAOYSA-N

> <PUBCHEM_XLOGP3_AA>
0.9

> <PUBCHEM_EXACT_MASS>
337.14601278

> <PUBCHEM_MOLECULAR_FORMULA>
C16H23N3O3S

> <PUBCHEM_MOLECULAR_WEIGHT>
337.4

> <PUBCHEM_OPENEYE_CAN_SMILES>
C1CN(CCC1S(=O)(=O)C2=CC=CC=C2)CCN3CCNC3=O

> <PUBCHEM_OPENEYE_ISO_SMILES>
C1CN(CCC1S(=O)(=O)C2=CC=CC=C2)CCN3CCNC3=O

> <PUBCHEM_CACTVS_TPSA>
78.1

> <PUBCHEM_MONOISOTOPIC_WEIGHT>
337.14601278

> <PUBCHEM_TOTAL_CHARGE>
0

> <PUBCHEM_HEAVY_ATOM_COUNT>
23

> <PUBCHEM_ATOM_DEF_STEREO_COUNT>
0

> <PUBCHEM_ATOM_UDEF_STEREO_COUNT>
0

> <PUBCHEM_BOND_DEF_STEREO_COUNT>
0

> <PUBCHEM_BOND_UDEF_STEREO_COUNT>
0

> <PUBCHEM_ISOTOPIC_ATOM_COUNT>
0

> <PUBCHEM_COMPONENT_COUNT>
1

> <PUBCHEM_CACTVS_TAUTO_COUNT>
-1

> <PUBCHEM_COORDINATE_TYPE>
1
5
255

> <PUBCHEM_BONDANNOTATIONS>
15  19  8
15  20  8
19  21  8
20  22  8
21  23  8
22  23  8

$$$$
