11794570
  -OEChem-09292322132D

 46 49  0     0  0  0  0  0  0999 V2000
    8.3152   -5.3874    0.0000 Cl  0  0  0  0  0  0  0  0  0  0  0  0
    2.0000    5.3874    0.0000 Cl  0  0  0  0  0  0  0  0  0  0  0  0
    5.3511    2.1514    0.0000 O   0  0  0  0  0  0  0  0  0  0  0  0
    4.8511   -2.3874    0.0000 N   0  0  0  0  0  0  0  0  0  0  0  0
    5.6602    1.2003    0.0000 N   0  0  0  0  0  0  0  0  0  0  0  0
    4.8511   -0.3875    0.0000 C   0  0  0  0  0  0  0  0  0  0  0  0
    3.9851   -0.8875    0.0000 C   0  0  0  0  0  0  0  0  0  0  0  0
    5.7172   -0.8875    0.0000 C   0  0  0  0  0  0  0  0  0  0  0  0
    3.9851   -1.8874    0.0000 C   0  0  0  0  0  0  0  0  0  0  0  0
    5.7172   -1.8874    0.0000 C   0  0  0  0  0  0  0  0  0  0  0  0
    4.8511    0.6125    0.0000 C   0  0  0  0  0  0  0  0  0  0  0  0
    4.8511   -3.3874    0.0000 C   0  0  0  0  0  0  0  0  0  0  0  0
    4.0421    1.2003    0.0000 C   0  0  0  0  0  0  0  0  0  0  0  0
    5.7172   -3.8874    0.0000 C   0  0  0  0  0  0  0  0  0  0  0  0
    4.3511    2.1514    0.0000 C   0  0  0  0  0  0  0  0  0  0  0  0
    5.7172   -4.8874    0.0000 C   0  0  0  0  0  0  0  0  0  0  0  0
    6.5832   -3.3874    0.0000 C   0  0  0  0  0  0  0  0  0  0  0  0
    3.7634    2.9604    0.0000 C   0  0  0  0  0  0  0  0  0  0  0  0
    6.5832   -5.3874    0.0000 C   0  0  0  0  0  0  0  0  0  0  0  0
    7.4492   -3.8874    0.0000 C   0  0  0  0  0  0  0  0  0  0  0  0
    7.4492   -4.8874    0.0000 C   0  0  0  0  0  0  0  0  0  0  0  0
    4.1701    3.8740    0.0000 C   0  0  0  0  0  0  0  0  0  0  0  0
    2.7688    2.8559    0.0000 C   0  0  0  0  0  0  0  0  0  0  0  0
    3.5823    4.6830    0.0000 C   0  0  0  0  0  0  0  0  0  0  0  0
    2.1810    3.6649    0.0000 C   0  0  0  0  0  0  0  0  0  0  0  0
    2.5878    4.5784    0.0000 C   0  0  0  0  0  0  0  0  0  0  0  0
    5.3881   -0.0775    0.0000 H   0  0  0  0  0  0  0  0  0  0  0  0
    3.7731   -0.3048    0.0000 H   0  0  0  0  0  0  0  0  0  0  0  0
    3.3745   -0.9951    0.0000 H   0  0  0  0  0  0  0  0  0  0  0  0
    6.3278   -0.9951    0.0000 H   0  0  0  0  0  0  0  0  0  0  0  0
    5.9292   -0.3048    0.0000 H   0  0  0  0  0  0  0  0  0  0  0  0
    3.3745   -1.7798    0.0000 H   0  0  0  0  0  0  0  0  0  0  0  0
    3.7731   -2.4701    0.0000 H   0  0  0  0  0  0  0  0  0  0  0  0
    5.9292   -2.4701    0.0000 H   0  0  0  0  0  0  0  0  0  0  0  0
    6.3278   -1.7798    0.0000 H   0  0  0  0  0  0  0  0  0  0  0  0
    4.2406   -3.2798    0.0000 H   0  0  0  0  0  0  0  0  0  0  0  0
    4.6391   -3.9701    0.0000 H   0  0  0  0  0  0  0  0  0  0  0  0
    3.4525    1.0087    0.0000 H   0  0  0  0  0  0  0  0  0  0  0  0
    5.1802   -5.1974    0.0000 H   0  0  0  0  0  0  0  0  0  0  0  0
    6.5832   -2.7675    0.0000 H   0  0  0  0  0  0  0  0  0  0  0  0
    6.5832   -6.0075    0.0000 H   0  0  0  0  0  0  0  0  0  0  0  0
    7.9862   -3.5775    0.0000 H   0  0  0  0  0  0  0  0  0  0  0  0
    4.7867    3.9388    0.0000 H   0  0  0  0  0  0  0  0  0  0  0  0
    2.5167    2.2895    0.0000 H   0  0  0  0  0  0  0  0  0  0  0  0
    3.8345    5.2494    0.0000 H   0  0  0  0  0  0  0  0  0  0  0  0
    1.5644    3.6001    0.0000 H   0  0  0  0  0  0  0  0  0  0  0  0
  1 21  1  0  0  0  0
  2 26  1  0  0  0  0
  3  5  1  0  0  0  0
  3 15  1  0  0  0  0
  4  9  1  0  0  0  0
  4 10  1  0  0  0  0
  4 12  1  0  0  0  0
  5 11  2  0  0  0  0
  6  7  1  0  0  0  0
  6  8  1  0  0  0  0
  6 11  1  0  0  0  0
  6 27  1  0  0  0  0
  7  9  1  0  0  0  0
  7 28  1  0  0  0  0
  7 29  1  0  0  0  0
  8 10  1  0  0  0  0
  8 30  1  0  0  0  0
  8 31  1  0  0  0  0
  9 32  1  0  0  0  0
  9 33  1  0  0  0  0
 10 34  1  0  0  0  0
 10 35  1  0  0  0  0
 11 13  1  0  0  0  0
 12 14  1  0  0  0  0
 12 36  1  0  0  0  0
 12 37  1  0  0  0  0
 13 15  2  0  0  0  0
 13 38  1  0  0  0  0
 14 16  2  0  0  0  0
 14 17  1  0  0  0  0
 15 18  1  0  0  0  0
 16 19  1  0  0  0  0
 16 39  1  0  0  0  0
 17 20  2  0  0  0  0
 17 40  1  0  0  0  0
 18 22  2  0  0  0  0
 18 23  1  0  0  0  0
 19 21  2  0  0  0  0
 19 41  1  0  0  0  0
 20 21  1  0  0  0  0
 20 42  1  0  0  0  0
 22 24  1  0  0  0  0
 22 43  1  0  0  0  0
 23 25  2  0  0  0  0
 23 44  1  0  0  0  0
 24 26  2  0  0  0  0
 24 45  1  0  0  0  0
 25 26  1  0  0  0  0
 25 46  1  0  0  0  0
M  END
> <PUBCHEM_COMPOUND_CID>
11794570

> <PUBCHEM_COMPOUND_CANONICALIZED>
1

> <PUBCHEM_CACTVS_COMPLEXITY>
428

> <PUBCHEM_CACTVS_HBOND_ACCEPTOR>
3

> <PUBCHEM_CACTVS_HBOND_DONOR>
0

> <PUBCHEM_CACTVS_ROTATABLE_BOND>
4

> <PUBCHEM_CACTVS_SUBSKEYS>
AAADceB7IAAGAAAAAAAAAAAAAAAAAWAAAAA8YIAAAAAAAAAB0AAAHgIEAAAADQ7BniQwhJMQAACpA6RyQgCCAAAkJwAomCE+btoIJjqBl5OEMYhmwBmIyceYyOCOBAAAAAAAAAAIAAAAAAAAAAAAAAAAAA==

> <PUBCHEM_IUPAC_OPENEYE_NAME>
5-(4-chlorophenyl)-3-[1-[(4-chlorophenyl)methyl]-4-piperidyl]isoxazole

> <PUBCHEM_IUPAC_CAS_NAME>
5-(4-chlorophenyl)-3-[1-[(4-chlorophenyl)methyl]-4-piperidinyl]isoxazole

> <PUBCHEM_IUPAC_NAME_MARKUP>
5-(4-chlorophenyl)-3-[1-[(4-chlorophenyl)methyl]piperidin-4-yl]-1,2-oxazole

> <PUBCHEM_IUPAC_NAME>
5-(4-chlorophenyl)-3-[1-[(4-chlorophenyl)methyl]piperidin-4-yl]-1,2-oxazole

> <PUBCHEM_IUPAC_SYSTEMATIC_NAME>
5-(4-chlorophenyl)-3-[1-[(4-chlorophenyl)methyl]piperidin-4-yl]-1,2-oxazole

> <PUBCHEM_IUPAC_TRADITIONAL_NAME>
3-[1-(4-chlorobenzyl)-4-piperidyl]-5-(4-chlorophenyl)isoxazole

> <PUBCHEM_IUPAC_INCHI>
InChI=1S/C21H20Cl2N2O/c22-18-5-1-15(2-6-18)14-25-11-9-16(10-12-25)20-13-21(26-24-20)17-3-7-19(23)8-4-17/h1-8,13,16H,9-12,14H2

> <PUBCHEM_IUPAC_INCHIKEY>
IGAYGUGEWYBNRY-UHFFFAOYSA-N

> <PUBCHEM_XLOGP3_AA>
5.4

> <PUBCHEM_EXACT_MASS>
386.0952687

> <PUBCHEM_MOLECULAR_FORMULA>
C21H20Cl2N2O

> <PUBCHEM_MOLECULAR_WEIGHT>
387.3

> <PUBCHEM_OPENEYE_CAN_SMILES>
C1CN(CCC1C2=NOC(=C2)C3=CC=C(C=C3)Cl)CC4=CC=C(C=C4)Cl

> <PUBCHEM_OPENEYE_ISO_SMILES>
C1CN(CCC1C2=NOC(=C2)C3=CC=C(C=C3)Cl)CC4=CC=C(C=C4)Cl

> <PUBCHEM_CACTVS_TPSA>
29.3

> <PUBCHEM_MONOISOTOPIC_WEIGHT>
386.0952687

> <PUBCHEM_TOTAL_CHARGE>
0

> <PUBCHEM_HEAVY_ATOM_COUNT>
26

> <PUBCHEM_ATOM_DEF_STEREO_COUNT>
0

> <PUBCHEM_ATOM_UDEF_STEREO_COUNT>
0

> <PUBCHEM_BOND_DEF_STEREO_COUNT>
0

> <PUBCHEM_BOND_UDEF_STEREO_COUNT>
0

> <PUBCHEM_ISOTOPIC_ATOM_COUNT>
0

> <PUBCHEM_COMPONENT_COUNT>
1

> <PUBCHEM_CACTVS_TAUTO_COUNT>
-1

> <PUBCHEM_COORDINATE_TYPE>
1
5
255

> <PUBCHEM_BONDANNOTATIONS>
11  13  8
13  15  8
14  16  8
14  17  8
16  19  8
17  20  8
18  22  8
18  23  8
19  21  8
20  21  8
22  24  8
23  25  8
24  26  8
25  26  8
3  15  8
3  5  8
5  11  8

$$$$
