56682934
  -OEChem-09292322522D

 56 55  0     1  0  0  0  0  0999 V2000
   10.3598    0.6200    0.0000 O   0  0  0  0  0  0  0  0  0  0  0  0
    6.8957    2.6200    0.0000 O   0  0  0  0  0  0  0  0  0  0  0  0
    0.5369    6.5145    0.0000 O   0  0  0  0  0  0  0  0  0  0  0  0
    4.0010    4.5145    0.0000 O   0  0  0  0  0  0  0  0  0  0  0  0
    8.6278    0.6200    0.0000 O   0  0  0  0  0  0  0  0  0  0  0  0
    7.7617    1.1200    0.0000 O   0  0  0  0  0  0  0  0  0  0  0  0
    1.4030    5.0145    0.0000 O   0  0  0  0  0  0  0  0  0  0  0  0
    2.2690    4.5145    0.0000 O   0  0  0  0  0  0  0  0  0  0  0  0
    7.5014    7.3744    0.0000 N   0  0  3  0  0  0  0  0  0  0  0  0
   10.1675    8.8535    0.0000 N   0  0  0  0  0  0  0  0  0  0  0  0
    7.5014    8.3744    0.0000 C   0  0  3  0  0  0  0  0  0  0  0  0
    6.6354    8.8744    0.0000 C   0  0  0  0  0  0  0  0  0  0  0  0
    6.6354    9.8744    0.0000 C   0  0  0  0  0  0  0  0  0  0  0  0
    8.3674    8.8744    0.0000 C   0  0  0  0  0  0  0  0  0  0  0  0
    7.5014   10.3744    0.0000 C   0  0  0  0  0  0  0  0  0  0  0  0
    8.3674    9.8744    0.0000 C   0  0  0  0  0  0  0  0  0  0  0  0
    6.6354    6.8744    0.0000 C   0  0  0  0  0  0  0  0  0  0  0  0
    9.2614    8.3397    0.0000 C   0  0  0  0  0  0  0  0  0  0  0  0
    8.3674    6.8744    0.0000 C   0  0  0  0  0  0  0  0  0  0  0  0
    9.2614   10.4090    0.0000 C   0  0  0  0  0  0  0  0  0  0  0  0
    6.6354    5.8744    0.0000 C   0  0  0  0  0  0  0  0  0  0  0  0
   10.1675    9.8952    0.0000 C   0  0  0  0  0  0  0  0  0  0  0  0
    9.4938    2.1200    0.0000 C   0  0  0  0  0  0  0  0  0  0  0  0
    8.6278    2.6200    0.0000 C   0  0  0  0  0  0  0  0  0  0  0  0
    2.2690    6.5145    0.0000 C   0  0  0  0  0  0  0  0  0  0  0  0
    3.1350    6.0145    0.0000 C   0  0  0  0  0  0  0  0  0  0  0  0
    9.4938    1.1200    0.0000 C   0  0  0  0  0  0  0  0  0  0  0  0
    7.7617    2.1200    0.0000 C   0  0  0  0  0  0  0  0  0  0  0  0
    1.4030    6.0145    0.0000 C   0  0  0  0  0  0  0  0  0  0  0  0
    3.1350    5.0145    0.0000 C   0  0  0  0  0  0  0  0  0  0  0  0
    8.0384    8.0643    0.0000 H   0  0  0  0  0  0  0  0  0  0  0  0
    6.0248    8.9820    0.0000 H   0  0  0  0  0  0  0  0  0  0  0  0
    6.4233    8.2918    0.0000 H   0  0  0  0  0  0  0  0  0  0  0  0
    6.4233   10.4570    0.0000 H   0  0  0  0  0  0  0  0  0  0  0  0
    6.0248    9.7667    0.0000 H   0  0  0  0  0  0  0  0  0  0  0  0
    7.9000   10.8493    0.0000 H   0  0  0  0  0  0  0  0  0  0  0  0
    7.1029   10.8493    0.0000 H   0  0  0  0  0  0  0  0  0  0  0  0
    6.4233    7.4570    0.0000 H   0  0  0  0  0  0  0  0  0  0  0  0
    6.0248    6.7667    0.0000 H   0  0  0  0  0  0  0  0  0  0  0  0
    9.2542    7.7197    0.0000 H   0  0  0  0  0  0  0  0  0  0  0  0
    8.0574    6.3374    0.0000 H   0  0  0  0  0  0  0  0  0  0  0  0
    8.9044    6.5644    0.0000 H   0  0  0  0  0  0  0  0  0  0  0  0
    8.6774    7.4113    0.0000 H   0  0  0  0  0  0  0  0  0  0  0  0
    9.2542   11.0290    0.0000 H   0  0  0  0  0  0  0  0  0  0  0  0
    6.0154    5.8744    0.0000 H   0  0  0  0  0  0  0  0  0  0  0  0
    6.6354    5.2543    0.0000 H   0  0  0  0  0  0  0  0  0  0  0  0
    7.2554    5.8744    0.0000 H   0  0  0  0  0  0  0  0  0  0  0  0
   10.7032   10.2072    0.0000 H   0  0  0  0  0  0  0  0  0  0  0  0
   10.0307    2.4300    0.0000 H   0  0  0  0  0  0  0  0  0  0  0  0
    8.6278    3.2400    0.0000 H   0  0  0  0  0  0  0  0  0  0  0  0
    2.2690    7.1345    0.0000 H   0  0  0  0  0  0  0  0  0  0  0  0
    3.6720    6.3245    0.0000 H   0  0  0  0  0  0  0  0  0  0  0  0
   10.3598    0.0000    0.0000 H   0  0  0  0  0  0  0  0  0  0  0  0
    6.3588    2.3100    0.0000 H   0  0  0  0  0  0  0  0  0  0  0  0
    0.0000    6.2045    0.0000 H   0  0  0  0  0  0  0  0  0  0  0  0
    4.0010    3.8945    0.0000 H   0  0  0  0  0  0  0  0  0  0  0  0
  1 27  1  0  0  0  0
  1 53  1  0  0  0  0
  2 28  1  0  0  0  0
  2 54  1  0  0  0  0
  3 29  1  0  0  0  0
  3 55  1  0  0  0  0
  4 30  1  0  0  0  0
  4 56  1  0  0  0  0
  5 27  2  0  0  0  0
  6 28  2  0  0  0  0
  7 29  2  0  0  0  0
  8 30  2  0  0  0  0
  9 11  1  0  0  0  0
  9 17  1  0  0  0  0
  9 19  1  0  0  0  0
 10 18  2  0  0  0  0
 10 22  1  0  0  0  0
 11 12  1  0  0  0  0
 11 14  1  0  0  0  0
 11 31  1  0  0  0  0
 12 13  1  0  0  0  0
 12 32  1  0  0  0  0
 12 33  1  0  0  0  0
 13 15  1  0  0  0  0
 13 34  1  0  0  0  0
 13 35  1  0  0  0  0
 14 16  2  0  0  0  0
 14 18  1  0  0  0  0
 15 16  1  0  0  0  0
 15 36  1  0  0  0  0
 15 37  1  0  0  0  0
 16 20  1  0  0  0  0
 17 21  1  0  0  0  0
 17 38  1  0  0  0  0
 17 39  1  0  0  0  0
 18 40  1  0  0  0  0
 19 41  1  0  0  0  0
 19 42  1  0  0  0  0
 19 43  1  0  0  0  0
 20 22  2  0  0  0  0
 20 44  1  0  0  0  0
 21 45  1  0  0  0  0
 21 46  1  0  0  0  0
 21 47  1  0  0  0  0
 22 48  1  0  0  0  0
 23 24  2  0  0  0  0
 23 27  1  0  0  0  0
 23 49  1  0  0  0  0
 24 28  1  0  0  0  0
 24 50  1  0  0  0  0
 25 26  2  0  0  0  0
 25 29  1  0  0  0  0
 25 51  1  0  0  0  0
 26 30  1  0  0  0  0
 26 52  1  0  0  0  0
M  END
> <PUBCHEM_COMPOUND_CID>
56682934

> <PUBCHEM_COMPOUND_CANONICALIZED>
1

> <PUBCHEM_CACTVS_COMPLEXITY>
300

> <PUBCHEM_CACTVS_HBOND_ACCEPTOR>
10

> <PUBCHEM_CACTVS_HBOND_DONOR>
4

> <PUBCHEM_CACTVS_ROTATABLE_BOND>
6

> <PUBCHEM_CACTVS_SUBSKEYS>
AAADceB7PAAAAAAAAAAAAAAAAAAAAAAAAAA8QAAAAAAAAACxgAAAHgAACAAADCjBmgQ+iJMIEgCoAjD3TACCgCAxAiAI2CA4ZNgIJGLA0ZGEMAhggADI2YcQgIAOgAAAAAAAAAAAAACAACQAAAAAAAAAAA==

> <PUBCHEM_IUPAC_OPENEYE_NAME>
N-ethyl-N-methyl-5,6,7,8-tetrahydroisoquinolin-8-amine;maleic acid

> <PUBCHEM_IUPAC_CAS_NAME>
(Z)-2-butenedioic acid;N-ethyl-N-methyl-5,6,7,8-tetrahydroisoquinolin-8-amine

> <PUBCHEM_IUPAC_NAME_MARKUP>
(<I>Z</I>)-but-2-enedioic acid;<I>N</I>-ethyl-<I>N</I>-methyl-5,6,7,8-tetrahydroisoquinolin-8-amine

> <PUBCHEM_IUPAC_NAME>
(Z)-but-2-enedioic acid;N-ethyl-N-methyl-5,6,7,8-tetrahydroisoquinolin-8-amine

> <PUBCHEM_IUPAC_SYSTEMATIC_NAME>
(Z)-but-2-enedioic acid;N-ethyl-N-methyl-5,6,7,8-tetrahydroisoquinolin-8-amine

> <PUBCHEM_IUPAC_TRADITIONAL_NAME>
ethyl-methyl-(5,6,7,8-tetrahydroisoquinolin-8-yl)amine;maleic acid

> <PUBCHEM_IUPAC_INCHI>
InChI=1S/C12H18N2.2C4H4O4/c1-3-14(2)12-6-4-5-10-7-8-13-9-11(10)12;2*5-3(6)1-2-4(7)8/h7-9,12H,3-6H2,1-2H3;2*1-2H,(H,5,6)(H,7,8)/b;2*2-1-

> <PUBCHEM_IUPAC_INCHIKEY>
RPZYOWNZYQHSLJ-SPIKMXEPSA-N

> <PUBCHEM_EXACT_MASS>
422.16891579

> <PUBCHEM_MOLECULAR_FORMULA>
C20H26N2O8

> <PUBCHEM_MOLECULAR_WEIGHT>
422.4

> <PUBCHEM_OPENEYE_CAN_SMILES>
CCN(C)C1CCCC2=C1C=NC=C2.C(=CC(=O)O)C(=O)O.C(=CC(=O)O)C(=O)O

> <PUBCHEM_OPENEYE_ISO_SMILES>
CCN(C1C2=C(C=CN=C2)CCC1)C.C(=C\C(=O)O)\C(=O)O.C(=C\C(=O)O)\C(=O)O

> <PUBCHEM_CACTVS_TPSA>
165

> <PUBCHEM_MONOISOTOPIC_WEIGHT>
422.16891579

> <PUBCHEM_TOTAL_CHARGE>
0

> <PUBCHEM_HEAVY_ATOM_COUNT>
30

> <PUBCHEM_ATOM_DEF_STEREO_COUNT>
0

> <PUBCHEM_ATOM_UDEF_STEREO_COUNT>
1

> <PUBCHEM_BOND_DEF_STEREO_COUNT>
2

> <PUBCHEM_BOND_UDEF_STEREO_COUNT>
0

> <PUBCHEM_ISOTOPIC_ATOM_COUNT>
0

> <PUBCHEM_COMPONENT_COUNT>
3

> <PUBCHEM_CACTVS_TAUTO_COUNT>
-1

> <PUBCHEM_COORDINATE_TYPE>
1
5
255

> <PUBCHEM_BONDANNOTATIONS>
10  18  8
10  22  8
14  16  8
14  18  8
16  20  8
20  22  8
11  9  3

$$$$
