44431618
  -OEChem-09292322242D

 70 73  0     0  0  0  0  0  0999 V2000
    6.3301    3.7500    0.0000 S   0  0  0  0  0  0  0  0  0  0  0  0
    5.8301    4.6160    0.0000 O   0  0  0  0  0  0  0  0  0  0  0  0
    6.8301    2.8840    0.0000 O   0  0  0  0  0  0  0  0  0  0  0  0
    3.7320   -3.7500    0.0000 O   0  0  0  0  0  0  0  0  0  0  0  0
    8.0622    2.7500    0.0000 O   0  0  0  0  0  0  0  0  0  0  0  0
    5.4641   -0.7500    0.0000 N   0  0  0  0  0  0  0  0  0  0  0  0
    5.4641   -2.7500    0.0000 N   0  0  0  0  0  0  0  0  0  0  0  0
    5.4641    3.2500    0.0000 N   0  0  0  0  0  0  0  0  0  0  0  0
    8.0622    5.7500    0.0000 N   0  0  0  0  0  0  0  0  0  0  0  0
    5.4641    0.2500    0.0000 C   0  0  0  0  0  0  0  0  0  0  0  0
    4.5981    0.7500    0.0000 C   0  0  0  0  0  0  0  0  0  0  0  0
    6.3301    0.7500    0.0000 C   0  0  0  0  0  0  0  0  0  0  0  0
    5.4641    2.2500    0.0000 C   0  0  0  0  0  0  0  0  0  0  0  0
    4.5981    1.7500    0.0000 C   0  0  0  0  0  0  0  0  0  0  0  0
    6.3301    1.7500    0.0000 C   0  0  0  0  0  0  0  0  0  0  0  0
    4.5981   -1.2500    0.0000 C   0  0  0  0  0  0  0  0  0  0  0  0
    6.3301   -1.2500    0.0000 C   0  0  0  0  0  0  0  0  0  0  0  0
    4.5981   -2.2500    0.0000 C   0  0  0  0  0  0  0  0  0  0  0  0
    6.3301   -2.2500    0.0000 C   0  0  0  0  0  0  0  0  0  0  0  0
    5.4641   -3.7500    0.0000 C   0  0  0  0  0  0  0  0  0  0  0  0
    7.1962    4.2500    0.0000 C   0  0  0  0  0  0  0  0  0  0  0  0
    4.5981   -4.2500    0.0000 C   0  0  0  0  0  0  0  0  0  0  0  0
    6.3301   -4.2500    0.0000 C   0  0  0  0  0  0  0  0  0  0  0  0
    4.5981   -5.2500    0.0000 C   0  0  0  0  0  0  0  0  0  0  0  0
    8.0622    3.7500    0.0000 C   0  0  0  0  0  0  0  0  0  0  0  0
    6.3301   -5.2500    0.0000 C   0  0  0  0  0  0  0  0  0  0  0  0
    7.1962    5.2500    0.0000 C   0  0  0  0  0  0  0  0  0  0  0  0
    5.4641   -5.7500    0.0000 C   0  0  0  0  0  0  0  0  0  0  0  0
    2.8660   -4.2500    0.0000 C   0  0  0  0  0  0  0  0  0  0  0  0
    8.9282    4.2500    0.0000 C   0  0  0  0  0  0  0  0  0  0  0  0
    8.9282    5.2500    0.0000 C   0  0  0  0  0  0  0  0  0  0  0  0
    2.0000   -3.7500    0.0000 C   0  0  0  0  0  0  0  0  0  0  0  0
    2.8660   -5.2500    0.0000 C   0  0  0  0  0  0  0  0  0  0  0  0
    8.9282    2.2500    0.0000 C   0  0  0  0  0  0  0  0  0  0  0  0
    6.0010   -0.0600    0.0000 H   0  0  0  0  0  0  0  0  0  0  0  0
    3.9875    0.8577    0.0000 H   0  0  0  0  0  0  0  0  0  0  0  0
    4.3860    0.1674    0.0000 H   0  0  0  0  0  0  0  0  0  0  0  0
    6.5422    0.1674    0.0000 H   0  0  0  0  0  0  0  0  0  0  0  0
    6.9407    0.8577    0.0000 H   0  0  0  0  0  0  0  0  0  0  0  0
    6.0010    2.5600    0.0000 H   0  0  0  0  0  0  0  0  0  0  0  0
    4.3860    2.3326    0.0000 H   0  0  0  0  0  0  0  0  0  0  0  0
    3.9875    1.6423    0.0000 H   0  0  0  0  0  0  0  0  0  0  0  0
    6.9407    1.6423    0.0000 H   0  0  0  0  0  0  0  0  0  0  0  0
    6.5422    2.3326    0.0000 H   0  0  0  0  0  0  0  0  0  0  0  0
    4.3860   -0.6674    0.0000 H   0  0  0  0  0  0  0  0  0  0  0  0
    3.9875   -1.3577    0.0000 H   0  0  0  0  0  0  0  0  0  0  0  0
    6.9407   -1.3577    0.0000 H   0  0  0  0  0  0  0  0  0  0  0  0
    6.5422   -0.6674    0.0000 H   0  0  0  0  0  0  0  0  0  0  0  0
    3.9875   -2.1423    0.0000 H   0  0  0  0  0  0  0  0  0  0  0  0
    4.3860   -2.8326    0.0000 H   0  0  0  0  0  0  0  0  0  0  0  0
    6.5422   -2.8326    0.0000 H   0  0  0  0  0  0  0  0  0  0  0  0
    6.9407   -2.1423    0.0000 H   0  0  0  0  0  0  0  0  0  0  0  0
    4.9272    3.5600    0.0000 H   0  0  0  0  0  0  0  0  0  0  0  0
    6.8671   -3.9400    0.0000 H   0  0  0  0  0  0  0  0  0  0  0  0
    4.0611   -5.5600    0.0000 H   0  0  0  0  0  0  0  0  0  0  0  0
    6.8671   -5.5600    0.0000 H   0  0  0  0  0  0  0  0  0  0  0  0
    6.6592    5.5600    0.0000 H   0  0  0  0  0  0  0  0  0  0  0  0
    5.4641   -6.3700    0.0000 H   0  0  0  0  0  0  0  0  0  0  0  0
    2.8660   -3.6300    0.0000 H   0  0  0  0  0  0  0  0  0  0  0  0
    9.4651    3.9400    0.0000 H   0  0  0  0  0  0  0  0  0  0  0  0
    9.4651    5.5600    0.0000 H   0  0  0  0  0  0  0  0  0  0  0  0
    2.3100   -3.2131    0.0000 H   0  0  0  0  0  0  0  0  0  0  0  0
    1.4631   -3.4400    0.0000 H   0  0  0  0  0  0  0  0  0  0  0  0
    1.6900   -4.2869    0.0000 H   0  0  0  0  0  0  0  0  0  0  0  0
    2.2460   -5.2500    0.0000 H   0  0  0  0  0  0  0  0  0  0  0  0
    2.8660   -5.8700    0.0000 H   0  0  0  0  0  0  0  0  0  0  0  0
    3.4860   -5.2500    0.0000 H   0  0  0  0  0  0  0  0  0  0  0  0
    8.6182    1.7131    0.0000 H   0  0  0  0  0  0  0  0  0  0  0  0
    9.4651    1.9400    0.0000 H   0  0  0  0  0  0  0  0  0  0  0  0
    9.2382    2.7869    0.0000 H   0  0  0  0  0  0  0  0  0  0  0  0
  1  2  2  0  0  0  0
  1  3  2  0  0  0  0
  1  8  1  0  0  0  0
  1 21  1  0  0  0  0
  4 22  1  0  0  0  0
  4 29  1  0  0  0  0
  5 25  1  0  0  0  0
  5 34  1  0  0  0  0
  6 10  1  0  0  0  0
  6 16  1  0  0  0  0
  6 17  1  0  0  0  0
  7 18  1  0  0  0  0
  7 19  1  0  0  0  0
  7 20  1  0  0  0  0
  8 13  1  0  0  0  0
  8 53  1  0  0  0  0
  9 27  2  0  0  0  0
  9 31  1  0  0  0  0
 10 11  1  0  0  0  0
 10 12  1  0  0  0  0
 10 35  1  0  0  0  0
 11 14  1  0  0  0  0
 11 36  1  0  0  0  0
 11 37  1  0  0  0  0
 12 15  1  0  0  0  0
 12 38  1  0  0  0  0
 12 39  1  0  0  0  0
 13 14  1  0  0  0  0
 13 15  1  0  0  0  0
 13 40  1  0  0  0  0
 14 41  1  0  0  0  0
 14 42  1  0  0  0  0
 15 43  1  0  0  0  0
 15 44  1  0  0  0  0
 16 18  1  0  0  0  0
 16 45  1  0  0  0  0
 16 46  1  0  0  0  0
 17 19  1  0  0  0  0
 17 47  1  0  0  0  0
 17 48  1  0  0  0  0
 18 49  1  0  0  0  0
 18 50  1  0  0  0  0
 19 51  1  0  0  0  0
 19 52  1  0  0  0  0
 20 22  1  0  0  0  0
 20 23  2  0  0  0  0
 21 25  2  0  0  0  0
 21 27  1  0  0  0  0
 22 24  2  0  0  0  0
 23 26  1  0  0  0  0
 23 54  1  0  0  0  0
 24 28  1  0  0  0  0
 24 55  1  0  0  0  0
 25 30  1  0  0  0  0
 26 28  2  0  0  0  0
 26 56  1  0  0  0  0
 27 57  1  0  0  0  0
 28 58  1  0  0  0  0
 29 32  1  0  0  0  0
 29 33  1  0  0  0  0
 29 59  1  0  0  0  0
 30 31  2  0  0  0  0
 30 60  1  0  0  0  0
 31 61  1  0  0  0  0
 32 62  1  0  0  0  0
 32 63  1  0  0  0  0
 32 64  1  0  0  0  0
 33 65  1  0  0  0  0
 33 66  1  0  0  0  0
 33 67  1  0  0  0  0
 34 68  1  0  0  0  0
 34 69  1  0  0  0  0
 34 70  1  0  0  0  0
M  END
> <PUBCHEM_COMPOUND_CID>
44431618

> <PUBCHEM_COMPOUND_CANONICALIZED>
1

> <PUBCHEM_CACTVS_COMPLEXITY>
715

> <PUBCHEM_CACTVS_HBOND_ACCEPTOR>
8

> <PUBCHEM_CACTVS_HBOND_DONOR>
1

> <PUBCHEM_CACTVS_ROTATABLE_BOND>
8

> <PUBCHEM_CACTVS_SUBSKEYS>
AAADcfB7uABAAAAAAAAAAAAAAAAAAAAAAAA8eIEAAAAAAAABwAAAHgQQQAAACDzh0gY+x5NIFAKgADRnRHDCiDAxIiAI2L4/bJgOZmLEsZuXOCjm0BnY6AeQQAAAAAAAAAAAEAAAAQAAAAAgAAAAAAAAAA==

> <PUBCHEM_IUPAC_OPENEYE_NAME>
N-[4-[4-(2-isopropoxyphenyl)piperazin-1-yl]cyclohexyl]-4-methoxy-pyridine-3-sulfonamide

> <PUBCHEM_IUPAC_CAS_NAME>
4-methoxy-N-[4-[4-(2-propan-2-yloxyphenyl)-1-piperazinyl]cyclohexyl]-3-pyridinesulfonamide

> <PUBCHEM_IUPAC_NAME_MARKUP>
4-methoxy-<I>N</I>-[4-[4-(2-propan-2-yloxyphenyl)piperazin-1-yl]cyclohexyl]pyridine-3-sulfonamide

> <PUBCHEM_IUPAC_NAME>
4-methoxy-N-[4-[4-(2-propan-2-yloxyphenyl)piperazin-1-yl]cyclohexyl]pyridine-3-sulfonamide

> <PUBCHEM_IUPAC_SYSTEMATIC_NAME>
4-methoxy-N-[4-[4-(2-propan-2-yloxyphenyl)piperazin-1-yl]cyclohexyl]pyridine-3-sulfonamide

> <PUBCHEM_IUPAC_TRADITIONAL_NAME>
N-[4-[4-(2-isopropoxyphenyl)piperazino]cyclohexyl]-4-methoxy-pyridine-3-sulfonamide

> <PUBCHEM_IUPAC_INCHI>
InChI=1S/C25H36N4O4S/c1-19(2)33-23-7-5-4-6-22(23)29-16-14-28(15-17-29)21-10-8-20(9-11-21)27-34(30,31)25-18-26-13-12-24(25)32-3/h4-7,12-13,18-21,27H,8-11,14-17H2,1-3H3

> <PUBCHEM_IUPAC_INCHIKEY>
KCWSSYYCEGZXTI-UHFFFAOYSA-N

> <PUBCHEM_XLOGP3_AA>
3.5

> <PUBCHEM_EXACT_MASS>
488.24572682

> <PUBCHEM_MOLECULAR_FORMULA>
C25H36N4O4S

> <PUBCHEM_MOLECULAR_WEIGHT>
488.6

> <PUBCHEM_OPENEYE_CAN_SMILES>
CC(C)OC1=CC=CC=C1N2CCN(CC2)C3CCC(CC3)NS(=O)(=O)C4=C(C=CN=C4)OC

> <PUBCHEM_OPENEYE_ISO_SMILES>
CC(C)OC1=CC=CC=C1N2CCN(CC2)C3CCC(CC3)NS(=O)(=O)C4=C(C=CN=C4)OC

> <PUBCHEM_CACTVS_TPSA>
92.4

> <PUBCHEM_MONOISOTOPIC_WEIGHT>
488.24572682

> <PUBCHEM_TOTAL_CHARGE>
0

> <PUBCHEM_HEAVY_ATOM_COUNT>
34

> <PUBCHEM_ATOM_DEF_STEREO_COUNT>
0

> <PUBCHEM_ATOM_UDEF_STEREO_COUNT>
0

> <PUBCHEM_BOND_DEF_STEREO_COUNT>
0

> <PUBCHEM_BOND_UDEF_STEREO_COUNT>
0

> <PUBCHEM_ISOTOPIC_ATOM_COUNT>
0

> <PUBCHEM_COMPONENT_COUNT>
1

> <PUBCHEM_CACTVS_TAUTO_COUNT>
-1

> <PUBCHEM_COORDINATE_TYPE>
1
5
255

> <PUBCHEM_BONDANNOTATIONS>
20  22  8
20  23  8
21  25  8
21  27  8
22  24  8
23  26  8
24  28  8
25  30  8
26  28  8
30  31  8
9  27  8
9  31  8

$$$$
