57377248
  -OEChem-09292321582D

 45 48  0     0  0  0  0  0  0999 V2000
    4.6660    1.9879    0.0000 O   0  0  0  0  0  0  0  0  0  0  0  0
    4.6660   -2.0121    0.0000 O   0  0  0  0  0  0  0  0  0  0  0  0
    8.1923    2.0121    0.0000 O   0  0  0  0  0  0  0  0  0  0  0  0
   13.4000   -0.9679    0.0000 O   0  0  0  0  0  0  0  0  0  0  0  0
    9.0641    0.5154    0.0000 N   0  0  0  0  0  0  0  0  0  0  0  0
    5.5321    0.4879    0.0000 C   0  0  0  0  0  0  0  0  0  0  0  0
    5.5321   -0.5121    0.0000 C   0  0  0  0  0  0  0  0  0  0  0  0
    3.8000    0.4879    0.0000 C   0  0  0  0  0  0  0  0  0  0  0  0
    3.8000   -0.5121    0.0000 C   0  0  0  0  0  0  0  0  0  0  0  0
    4.6660    0.9879    0.0000 C   0  0  0  0  0  0  0  0  0  0  0  0
    4.6660   -1.0121    0.0000 C   0  0  0  0  0  0  0  0  0  0  0  0
    6.4260    1.0226    0.0000 C   0  0  0  0  0  0  0  0  0  0  0  0
    7.3321    0.5087    0.0000 C   0  0  0  0  0  0  0  0  0  0  0  0
    6.4260   -1.0467    0.0000 C   0  0  0  0  0  0  0  0  0  0  0  0
    7.3321   -0.5329    0.0000 C   0  0  0  0  0  0  0  0  0  0  0  0
    2.9061    1.0226    0.0000 C   0  0  0  0  0  0  0  0  0  0  0  0
    2.9061   -1.0467    0.0000 C   0  0  0  0  0  0  0  0  0  0  0  0
    8.1962    1.0121    0.0000 C   0  0  0  0  0  0  0  0  0  0  0  0
    9.9282    1.0188    0.0000 C   0  0  0  0  0  0  0  0  0  0  0  0
   10.7961    0.5221    0.0000 C   0  0  0  0  0  0  0  0  0  0  0  0
    2.0000    0.5087    0.0000 C   0  0  0  0  0  0  0  0  0  0  0  0
    2.0000   -0.5329    0.0000 C   0  0  0  0  0  0  0  0  0  0  0  0
   10.8000   -0.4779    0.0000 C   0  0  0  0  0  0  0  0  0  0  0  0
   11.6602    1.0254    0.0000 C   0  0  0  0  0  0  0  0  0  0  0  0
   11.6679   -0.9746    0.0000 C   0  0  0  0  0  0  0  0  0  0  0  0
   12.5282    0.5288    0.0000 C   0  0  0  0  0  0  0  0  0  0  0  0
   12.5320   -0.4712    0.0000 C   0  0  0  0  0  0  0  0  0  0  0  0
   14.2641   -0.4645    0.0000 C   0  0  0  0  0  0  0  0  0  0  0  0
    6.4188    1.6426    0.0000 H   0  0  0  0  0  0  0  0  0  0  0  0
    6.4188   -1.6667    0.0000 H   0  0  0  0  0  0  0  0  0  0  0  0
    7.8678   -0.8450    0.0000 H   0  0  0  0  0  0  0  0  0  0  0  0
    2.9132    1.6426    0.0000 H   0  0  0  0  0  0  0  0  0  0  0  0
    2.9132   -1.6667    0.0000 H   0  0  0  0  0  0  0  0  0  0  0  0
   10.3249    1.4952    0.0000 H   0  0  0  0  0  0  0  0  0  0  0  0
    9.5278    1.4922    0.0000 H   0  0  0  0  0  0  0  0  0  0  0  0
    9.0665   -0.1046    0.0000 H   0  0  0  0  0  0  0  0  0  0  0  0
    1.4643    0.8208    0.0000 H   0  0  0  0  0  0  0  0  0  0  0  0
    1.4643   -0.8450    0.0000 H   0  0  0  0  0  0  0  0  0  0  0  0
   10.2643   -0.7900    0.0000 H   0  0  0  0  0  0  0  0  0  0  0  0
   11.6578    1.6454    0.0000 H   0  0  0  0  0  0  0  0  0  0  0  0
   11.6703   -1.5946    0.0000 H   0  0  0  0  0  0  0  0  0  0  0  0
   13.0639    0.8408    0.0000 H   0  0  0  0  0  0  0  0  0  0  0  0
   14.5761   -1.0003    0.0000 H   0  0  0  0  0  0  0  0  0  0  0  0
   14.7998   -0.1525    0.0000 H   0  0  0  0  0  0  0  0  0  0  0  0
   13.9520    0.0712    0.0000 H   0  0  0  0  0  0  0  0  0  0  0  0
  1 10  2  0  0  0  0
  2 11  2  0  0  0  0
  3 18  2  0  0  0  0
  4 27  1  0  0  0  0
  4 28  1  0  0  0  0
  5 18  1  0  0  0  0
  5 19  1  0  0  0  0
  5 36  1  0  0  0  0
  6  7  2  0  0  0  0
  6 10  1  0  0  0  0
  6 12  1  0  0  0  0
  7 11  1  0  0  0  0
  7 14  1  0  0  0  0
  8  9  1  0  0  0  0
  8 10  1  0  0  0  0
  8 16  2  0  0  0  0
  9 11  1  0  0  0  0
  9 17  2  0  0  0  0
 12 13  2  0  0  0  0
 12 29  1  0  0  0  0
 13 15  1  0  0  0  0
 13 18  1  0  0  0  0
 14 15  2  0  0  0  0
 14 30  1  0  0  0  0
 15 31  1  0  0  0  0
 16 21  1  0  0  0  0
 16 32  1  0  0  0  0
 17 22  1  0  0  0  0
 17 33  1  0  0  0  0
 19 20  1  0  0  0  0
 19 34  1  0  0  0  0
 19 35  1  0  0  0  0
 20 23  2  0  0  0  0
 20 24  1  0  0  0  0
 21 22  2  0  0  0  0
 21 37  1  0  0  0  0
 22 38  1  0  0  0  0
 23 25  1  0  0  0  0
 23 39  1  0  0  0  0
 24 26  2  0  0  0  0
 24 40  1  0  0  0  0
 25 27  2  0  0  0  0
 25 41  1  0  0  0  0
 26 27  1  0  0  0  0
 26 42  1  0  0  0  0
 28 43  1  0  0  0  0
 28 44  1  0  0  0  0
 28 45  1  0  0  0  0
M  END
> <PUBCHEM_COMPOUND_CID>
57377248

> <PUBCHEM_COMPOUND_CANONICALIZED>
1

> <PUBCHEM_CACTVS_COMPLEXITY>
610

> <PUBCHEM_CACTVS_HBOND_ACCEPTOR>
4

> <PUBCHEM_CACTVS_HBOND_DONOR>
1

> <PUBCHEM_CACTVS_ROTATABLE_BOND>
4

> <PUBCHEM_CACTVS_SUBSKEYS>
AAADceB6OAAAAAAAAAAAAAAAAAAAAAAAAAAwYMGAAAAAAADBUAAAHgAQAAAADATBmAYyBoLABACIAqFSEACCCAAkIAAIiIEODMgMJjKEtRuEMShkxhGIqYeZ28Ku4AACAAAQAADAAAQAACAAAAAAAAAAAA==

> <PUBCHEM_IUPAC_OPENEYE_NAME>
N-[(4-methoxyphenyl)methyl]-9,10-dioxo-anthracene-2-carboxamide

> <PUBCHEM_IUPAC_CAS_NAME>
N-[(4-methoxyphenyl)methyl]-9,10-dioxo-2-anthracenecarboxamide

> <PUBCHEM_IUPAC_NAME_MARKUP>
<I>N</I>-[(4-methoxyphenyl)methyl]-9,10-dioxoanthracene-2-carboxamide

> <PUBCHEM_IUPAC_NAME>
N-[(4-methoxyphenyl)methyl]-9,10-dioxoanthracene-2-carboxamide

> <PUBCHEM_IUPAC_SYSTEMATIC_NAME>
N-[(4-methoxyphenyl)methyl]-9,10-bis(oxidanylidene)anthracene-2-carboxamide

> <PUBCHEM_IUPAC_TRADITIONAL_NAME>
9,10-diketo-N-p-anisyl-anthracene-2-carboxamide

> <PUBCHEM_IUPAC_INCHI>
InChI=1S/C23H17NO4/c1-28-16-9-6-14(7-10-16)13-24-23(27)15-8-11-19-20(12-15)22(26)18-5-3-2-4-17(18)21(19)25/h2-12H,13H2,1H3,(H,24,27)

> <PUBCHEM_IUPAC_INCHIKEY>
WOYRGNCJICXWHY-UHFFFAOYSA-N

> <PUBCHEM_XLOGP3_AA>
3.6

> <PUBCHEM_EXACT_MASS>
371.11575802

> <PUBCHEM_MOLECULAR_FORMULA>
C23H17NO4

> <PUBCHEM_MOLECULAR_WEIGHT>
371.4

> <PUBCHEM_OPENEYE_CAN_SMILES>
COC1=CC=C(C=C1)CNC(=O)C2=CC3=C(C=C2)C(=O)C4=CC=CC=C4C3=O

> <PUBCHEM_OPENEYE_ISO_SMILES>
COC1=CC=C(C=C1)CNC(=O)C2=CC3=C(C=C2)C(=O)C4=CC=CC=C4C3=O

> <PUBCHEM_CACTVS_TPSA>
72.5

> <PUBCHEM_MONOISOTOPIC_WEIGHT>
371.11575802

> <PUBCHEM_TOTAL_CHARGE>
0

> <PUBCHEM_HEAVY_ATOM_COUNT>
28

> <PUBCHEM_ATOM_DEF_STEREO_COUNT>
0

> <PUBCHEM_ATOM_UDEF_STEREO_COUNT>
0

> <PUBCHEM_BOND_DEF_STEREO_COUNT>
0

> <PUBCHEM_BOND_UDEF_STEREO_COUNT>
0

> <PUBCHEM_ISOTOPIC_ATOM_COUNT>
0

> <PUBCHEM_COMPONENT_COUNT>
1

> <PUBCHEM_CACTVS_TAUTO_COUNT>
-1

> <PUBCHEM_COORDINATE_TYPE>
1
5
255

> <PUBCHEM_BONDANNOTATIONS>
12  13  8
13  15  8
14  15  8
16  21  8
17  22  8
20  23  8
20  24  8
21  22  8
23  25  8
24  26  8
25  27  8
26  27  8
6  12  8
6  7  8
7  14  8
8  16  8
8  9  8
9  17  8

$$$$
