145948563
  -OEChem-09292321592D

139143  0     1  0  0  0  0  0999 V2000
   17.3440    1.7320    0.0000 F   0  0  0  0  0  0  0  0  0  0  0  0
   16.9779    0.3660    0.0000 F   0  0  0  0  0  0  0  0  0  0  0  0
   18.3440    0.0000    0.0000 F   0  0  0  0  0  0  0  0  0  0  0  0
   10.0039    8.9848    0.0000 O   0  0  0  0  0  0  0  0  0  0  0  0
    0.5118    5.5439    0.0000 O   0  0  0  0  0  0  0  0  0  0  0  0
   21.2623    6.4848    0.0000 O   0  0  0  0  0  0  0  0  0  0  0  0
   24.7264    7.4848    0.0000 O   0  0  0  0  0  0  0  0  0  0  0  0
   35.6382    9.2938    0.0000 O   0  0  0  0  0  0  0  0  0  0  0  0
   19.5760    0.8660    0.0000 O   0  0  0  0  0  0  0  0  0  0  0  0
   18.7100    2.3660    0.0000 O   0  0  0  0  0  0  0  0  0  0  0  0
    5.6738    7.4848    0.0000 N   0  0  3  0  0  0  0  0  0  0  0  0
    9.1379    7.4848    0.0000 N   0  0  0  0  0  0  0  0  0  0  0  0
    0.6067    7.3177    0.0000 N   0  0  0  0  0  0  0  0  0  0  0  0
   20.3962    7.9848    0.0000 N   0  0  0  0  0  0  0  0  0  0  0  0
   29.9225    9.4848    0.0000 N   0  0  0  0  0  0  0  0  0  0  0  0
   32.5206    7.9848    0.0000 N   0  0  0  0  0  0  0  0  0  0  0  0
   31.6546    9.4848    0.0000 N   0  0  0  0  0  0  0  0  0  0  0  0
   30.7886    7.9848    0.0000 N   0  0  0  0  0  0  0  0  0  0  0  0
   33.4668    9.2895    0.0000 N   0  0  0  0  0  0  0  0  0  0  0  0
   33.4668    7.6800    0.0000 N   0  0  0  0  0  0  0  0  0  0  0  0
   31.6546    6.4848    0.0000 N   0  0  0  0  0  0  0  0  0  0  0  0
    4.8078    7.9848    0.0000 C   0  0  0  0  0  0  0  0  0  0  0  0
   14.3341    7.4848    0.0000 C   0  0  0  0  0  0  0  0  0  0  0  0
   15.2001    7.9848    0.0000 C   0  0  0  0  0  0  0  0  0  0  0  0
   13.4680    7.9848    0.0000 C   0  0  0  0  0  0  0  0  0  0  0  0
   16.0661    7.4848    0.0000 C   0  0  0  0  0  0  0  0  0  0  0  0
    6.5398    7.9848    0.0000 C   0  0  0  0  0  0  0  0  0  0  0  0
    3.9418    7.4848    0.0000 C   0  0  0  0  0  0  0  0  0  0  0  0
   12.6020    7.4848    0.0000 C   0  0  0  0  0  0  0  0  0  0  0  0
   16.9321    7.9848    0.0000 C   0  0  0  0  0  0  0  0  0  0  0  0
    5.6738    6.4848    0.0000 C   0  0  0  0  0  0  0  0  0  0  0  0
    3.0757    7.9848    0.0000 C   0  0  0  0  0  0  0  0  0  0  0  0
    7.4059    7.4848    0.0000 C   0  0  0  0  0  0  0  0  0  0  0  0
   11.7360    7.9848    0.0000 C   0  0  0  0  0  0  0  0  0  0  0  0
    2.2097    7.4848    0.0000 C   0  0  0  0  0  0  0  0  0  0  0  0
   17.7982    7.4848    0.0000 C   0  0  0  0  0  0  0  0  0  0  0  0
    8.2719    7.9848    0.0000 C   0  0  0  0  0  0  0  0  0  0  0  0
   10.8700    7.4848    0.0000 C   0  0  0  0  0  0  0  0  0  0  0  0
    4.8078    5.9848    0.0000 C   0  0  0  0  0  0  0  0  0  0  0  0
    2.0005    6.5130    0.0000 C   0  0  0  0  0  0  0  0  0  0  0  0
   18.6642    7.9848    0.0000 C   0  0  0  0  0  0  0  0  0  0  0  0
    1.3437    7.9848    0.0000 C   0  0  0  0  0  0  0  0  0  0  0  0
    3.0757    8.9848    0.0000 C   0  0  0  0  0  0  0  0  0  0  0  0
   10.0039    7.9848    0.0000 C   0  0  0  0  0  0  0  0  0  0  0  0
    1.0118    6.4099    0.0000 C   0  0  0  0  0  0  0  0  0  0  0  0
   19.5302    7.4848    0.0000 C   0  0  0  0  0  0  0  0  0  0  0  0
    1.3437    8.9848    0.0000 C   0  0  0  0  0  0  0  0  0  0  0  0
    2.2097    9.4848    0.0000 C   0  0  0  0  0  0  0  0  0  0  0  0
    4.8078    4.9848    0.0000 C   0  0  0  0  0  0  0  0  0  0  0  0
   21.2623    7.4848    0.0000 C   0  0  0  0  0  0  0  0  0  0  0  0
   22.1283    7.9848    0.0000 C   0  0  0  0  0  0  0  0  0  0  0  0
   22.9943    7.4848    0.0000 C   0  0  0  0  0  0  0  0  0  0  0  0
   23.8603    7.9848    0.0000 C   0  0  0  0  0  0  0  0  0  0  0  0
   25.5924    7.9848    0.0000 C   0  0  0  0  0  0  0  0  0  0  0  0
   27.3245    8.9848    0.0000 C   0  0  0  0  0  0  0  0  0  0  0  0
   25.5924    8.9848    0.0000 C   0  0  0  0  0  0  0  0  0  0  0  0
   26.4584    7.4848    0.0000 C   0  0  0  0  0  0  0  0  0  0  0  0
   28.1905    9.4848    0.0000 C   0  0  0  0  0  0  0  0  0  0  0  0
   26.4584    9.4848    0.0000 C   0  0  0  0  0  0  0  0  0  0  0  0
   27.3245    7.9848    0.0000 C   0  0  0  0  0  0  0  0  0  0  0  0
   29.0565    8.9848    0.0000 C   0  0  0  0  0  0  0  0  0  0  0  0
   30.7886    8.9848    0.0000 C   0  0  0  0  0  0  0  0  0  0  0  0
   32.5206    8.9848    0.0000 C   0  0  0  0  0  0  0  0  0  0  0  0
   31.6546    7.4848    0.0000 C   0  0  0  0  0  0  0  0  0  0  0  0
   34.0504    8.4848    0.0000 C   0  0  0  0  0  0  0  0  0  0  0  0
   35.0504    8.4848    0.0000 C   0  0  0  0  0  0  0  0  0  0  0  0
   35.6382    7.6758    0.0000 C   0  0  0  0  0  0  0  0  0  0  0  0
   36.5893    7.9848    0.0000 C   0  0  0  0  0  0  0  0  0  0  0  0
   36.5893    8.9848    0.0000 C   0  0  0  0  0  0  0  0  0  0  0  0
   17.8440    0.8660    0.0000 C   0  0  0  0  0  0  0  0  0  0  0  0
   18.7100    1.3660    0.0000 C   0  0  0  0  0  0  0  0  0  0  0  0
    5.2063    8.4597    0.0000 H   0  0  0  0  0  0  0  0  0  0  0  0
    4.4093    8.4597    0.0000 H   0  0  0  0  0  0  0  0  0  0  0  0
   13.9355    7.0098    0.0000 H   0  0  0  0  0  0  0  0  0  0  0  0
   14.7326    7.0098    0.0000 H   0  0  0  0  0  0  0  0  0  0  0  0
   15.5986    8.4597    0.0000 H   0  0  0  0  0  0  0  0  0  0  0  0
   14.8016    8.4597    0.0000 H   0  0  0  0  0  0  0  0  0  0  0  0
   13.8666    8.4597    0.0000 H   0  0  0  0  0  0  0  0  0  0  0  0
   13.0695    8.4597    0.0000 H   0  0  0  0  0  0  0  0  0  0  0  0
   15.6676    7.0098    0.0000 H   0  0  0  0  0  0  0  0  0  0  0  0
   16.4647    7.0098    0.0000 H   0  0  0  0  0  0  0  0  0  0  0  0
    6.9384    8.4597    0.0000 H   0  0  0  0  0  0  0  0  0  0  0  0
    6.1413    8.4597    0.0000 H   0  0  0  0  0  0  0  0  0  0  0  0
    3.5432    7.0098    0.0000 H   0  0  0  0  0  0  0  0  0  0  0  0
    4.3403    7.0098    0.0000 H   0  0  0  0  0  0  0  0  0  0  0  0
   12.2035    7.0098    0.0000 H   0  0  0  0  0  0  0  0  0  0  0  0
   13.0005    7.0098    0.0000 H   0  0  0  0  0  0  0  0  0  0  0  0
   17.3307    8.4597    0.0000 H   0  0  0  0  0  0  0  0  0  0  0  0
   16.5336    8.4597    0.0000 H   0  0  0  0  0  0  0  0  0  0  0  0
    5.8859    5.9022    0.0000 H   0  0  0  0  0  0  0  0  0  0  0  0
    6.2844    6.5924    0.0000 H   0  0  0  0  0  0  0  0  0  0  0  0
    7.0073    7.0098    0.0000 H   0  0  0  0  0  0  0  0  0  0  0  0
    7.8044    7.0098    0.0000 H   0  0  0  0  0  0  0  0  0  0  0  0
   12.1345    8.4597    0.0000 H   0  0  0  0  0  0  0  0  0  0  0  0
   11.3375    8.4597    0.0000 H   0  0  0  0  0  0  0  0  0  0  0  0
   17.3996    7.0098    0.0000 H   0  0  0  0  0  0  0  0  0  0  0  0
   18.1967    7.0098    0.0000 H   0  0  0  0  0  0  0  0  0  0  0  0
    8.6704    8.4597    0.0000 H   0  0  0  0  0  0  0  0  0  0  0  0
    7.8734    8.4597    0.0000 H   0  0  0  0  0  0  0  0  0  0  0  0
   10.4714    7.0098    0.0000 H   0  0  0  0  0  0  0  0  0  0  0  0
   11.2685    7.0098    0.0000 H   0  0  0  0  0  0  0  0  0  0  0  0
    4.5957    6.5674    0.0000 H   0  0  0  0  0  0  0  0  0  0  0  0
    4.1972    5.8771    0.0000 H   0  0  0  0  0  0  0  0  0  0  0  0
    1.9996    5.8930    0.0000 H   0  0  0  0  0  0  0  0  0  0  0  0
    2.6170    6.4469    0.0000 H   0  0  0  0  0  0  0  0  0  0  0  0
   19.0627    8.4597    0.0000 H   0  0  0  0  0  0  0  0  0  0  0  0
   18.2657    8.4597    0.0000 H   0  0  0  0  0  0  0  0  0  0  0  0
    3.6127    9.2948    0.0000 H   0  0  0  0  0  0  0  0  0  0  0  0
    9.1379    6.8648    0.0000 H   0  0  0  0  0  0  0  0  0  0  0  0
    0.0000    7.4455    0.0000 H   0  0  0  0  0  0  0  0  0  0  0  0
   19.1317    7.0098    0.0000 H   0  0  0  0  0  0  0  0  0  0  0  0
   19.9288    7.0098    0.0000 H   0  0  0  0  0  0  0  0  0  0  0  0
    0.8068    9.2948    0.0000 H   0  0  0  0  0  0  0  0  0  0  0  0
    2.2097   10.1048    0.0000 H   0  0  0  0  0  0  0  0  0  0  0  0
    4.1878    4.9848    0.0000 H   0  0  0  0  0  0  0  0  0  0  0  0
    4.8078    4.3648    0.0000 H   0  0  0  0  0  0  0  0  0  0  0  0
    5.4278    4.9848    0.0000 H   0  0  0  0  0  0  0  0  0  0  0  0
   20.3962    8.6048    0.0000 H   0  0  0  0  0  0  0  0  0  0  0  0
   22.5268    8.4597    0.0000 H   0  0  0  0  0  0  0  0  0  0  0  0
   21.7298    8.4597    0.0000 H   0  0  0  0  0  0  0  0  0  0  0  0
   22.5958    7.0098    0.0000 H   0  0  0  0  0  0  0  0  0  0  0  0
   23.3929    7.0098    0.0000 H   0  0  0  0  0  0  0  0  0  0  0  0
   24.2589    8.4597    0.0000 H   0  0  0  0  0  0  0  0  0  0  0  0
   23.4618    8.4597    0.0000 H   0  0  0  0  0  0  0  0  0  0  0  0
   25.0555    9.2948    0.0000 H   0  0  0  0  0  0  0  0  0  0  0  0
   26.4584    6.8648    0.0000 H   0  0  0  0  0  0  0  0  0  0  0  0
   28.5890    9.9597    0.0000 H   0  0  0  0  0  0  0  0  0  0  0  0
   27.7919    9.9597    0.0000 H   0  0  0  0  0  0  0  0  0  0  0  0
   26.4584   10.1048    0.0000 H   0  0  0  0  0  0  0  0  0  0  0  0
   27.8614    7.6748    0.0000 H   0  0  0  0  0  0  0  0  0  0  0  0
   28.6580    8.5098    0.0000 H   0  0  0  0  0  0  0  0  0  0  0  0
   29.4550    8.5098    0.0000 H   0  0  0  0  0  0  0  0  0  0  0  0
   29.9225   10.1048    0.0000 H   0  0  0  0  0  0  0  0  0  0  0  0
   31.1176    6.1748    0.0000 H   0  0  0  0  0  0  0  0  0  0  0  0
   32.1915    6.1748    0.0000 H   0  0  0  0  0  0  0  0  0  0  0  0
   35.4466    7.0861    0.0000 H   0  0  0  0  0  0  0  0  0  0  0  0
   37.0909    7.6203    0.0000 H   0  0  0  0  0  0  0  0  0  0  0  0
   37.0909    9.3492    0.0000 H   0  0  0  0  0  0  0  0  0  0  0  0
   20.1129    1.1760    0.0000 H   0  0  0  0  0  0  0  0  0  0  0  0
  1 70  1  0  0  0  0
  2 70  1  0  0  0  0
  3 70  1  0  0  0  0
  4 44  2  0  0  0  0
  5 45  2  0  0  0  0
  6 50  2  0  0  0  0
  7 53  1  0  0  0  0
  7 54  1  0  0  0  0
  8 66  1  0  0  0  0
  8 69  1  0  0  0  0
  9 71  1  0  0  0  0
  9139  1  0  0  0  0
 10 71  2  0  0  0  0
 11 22  1  0  0  0  0
 11 27  1  0  0  0  0
 11 31  1  0  0  0  0
 12 37  1  0  0  0  0
 12 44  1  0  0  0  0
 12109  1  0  0  0  0
 13 42  1  0  0  0  0
 13 45  1  0  0  0  0
 13110  1  0  0  0  0
 14 46  1  0  0  0  0
 14 50  1  0  0  0  0
 14118  1  0  0  0  0
 15 61  1  0  0  0  0
 15 62  1  0  0  0  0
 15133  1  0  0  0  0
 16 20  1  0  0  0  0
 16 63  1  0  0  0  0
 16 64  1  0  0  0  0
 17 62  2  0  0  0  0
 17 63  1  0  0  0  0
 18 62  1  0  0  0  0
 18 64  2  0  0  0  0
 19 63  2  0  0  0  0
 19 65  1  0  0  0  0
 20 65  2  0  0  0  0
 21 64  1  0  0  0  0
 21134  1  0  0  0  0
 21135  1  0  0  0  0
 22 28  1  0  0  0  0
 22 72  1  0  0  0  0
 22 73  1  0  0  0  0
 23 24  1  0  0  0  0
 23 25  1  0  0  0  0
 23 74  1  0  0  0  0
 23 75  1  0  0  0  0
 24 26  1  0  0  0  0
 24 76  1  0  0  0  0
 24 77  1  0  0  0  0
 25 29  1  0  0  0  0
 25 78  1  0  0  0  0
 25 79  1  0  0  0  0
 26 30  1  0  0  0  0
 26 80  1  0  0  0  0
 26 81  1  0  0  0  0
 27 33  1  0  0  0  0
 27 82  1  0  0  0  0
 27 83  1  0  0  0  0
 28 32  1  0  0  0  0
 28 84  1  0  0  0  0
 28 85  1  0  0  0  0
 29 34  1  0  0  0  0
 29 86  1  0  0  0  0
 29 87  1  0  0  0  0
 30 36  1  0  0  0  0
 30 88  1  0  0  0  0
 30 89  1  0  0  0  0
 31 39  1  0  0  0  0
 31 90  1  0  0  0  0
 31 91  1  0  0  0  0
 32 35  2  0  0  0  0
 32 43  1  0  0  0  0
 33 37  1  0  0  0  0
 33 92  1  0  0  0  0
 33 93  1  0  0  0  0
 34 38  1  0  0  0  0
 34 94  1  0  0  0  0
 34 95  1  0  0  0  0
 35 40  1  0  0  0  0
 35 42  1  0  0  0  0
 36 41  1  0  0  0  0
 36 96  1  0  0  0  0
 36 97  1  0  0  0  0
 37 98  1  0  0  0  0
 37 99  1  0  0  0  0
 38 44  1  0  0  0  0
 38100  1  0  0  0  0
 38101  1  0  0  0  0
 39 49  1  0  0  0  0
 39102  1  0  0  0  0
 39103  1  0  0  0  0
 40 45  1  0  0  0  0
 40104  1  0  0  0  0
 40105  1  0  0  0  0
 41 46  1  0  0  0  0
 41106  1  0  0  0  0
 41107  1  0  0  0  0
 42 47  2  0  0  0  0
 43 48  2  0  0  0  0
 43108  1  0  0  0  0
 46111  1  0  0  0  0
 46112  1  0  0  0  0
 47 48  1  0  0  0  0
 47113  1  0  0  0  0
 48114  1  0  0  0  0
 49115  1  0  0  0  0
 49116  1  0  0  0  0
 49117  1  0  0  0  0
 50 51  1  0  0  0  0
 51 52  1  0  0  0  0
 51119  1  0  0  0  0
 51120  1  0  0  0  0
 52 53  1  0  0  0  0
 52121  1  0  0  0  0
 52122  1  0  0  0  0
 53123  1  0  0  0  0
 53124  1  0  0  0  0
 54 56  2  0  0  0  0
 54 57  1  0  0  0  0
 55 58  1  0  0  0  0
 55 59  2  0  0  0  0
 55 60  1  0  0  0  0
 56 59  1  0  0  0  0
 56125  1  0  0  0  0
 57 60  2  0  0  0  0
 57126  1  0  0  0  0
 58 61  1  0  0  0  0
 58127  1  0  0  0  0
 58128  1  0  0  0  0
 59129  1  0  0  0  0
 60130  1  0  0  0  0
 61131  1  0  0  0  0
 61132  1  0  0  0  0
 65 66  1  0  0  0  0
 66 67  2  0  0  0  0
 67 68  1  0  0  0  0
 67136  1  0  0  0  0
 68 69  2  0  0  0  0
 68137  1  0  0  0  0
 69138  1  0  0  0  0
 70 71  1  0  0  0  0
M  END
> <PUBCHEM_COMPOUND_CID>
145948563

> <PUBCHEM_COMPOUND_CANONICALIZED>
1

> <PUBCHEM_CACTVS_COMPLEXITY>
1430

> <PUBCHEM_CACTVS_HBOND_ACCEPTOR>
17

> <PUBCHEM_CACTVS_HBOND_DONOR>
6

> <PUBCHEM_CACTVS_ROTATABLE_BOND>
31

> <PUBCHEM_CACTVS_SUBSKEYS>
AAADcfB/+YAAAAAAAAAAAAAAAAAAAWLEgAA8YIAAAAAAAFgB/AAAHwAYCAAADAzhmxYz3ofIFkCqAq/y/ASSiAsnIqAdiKGubNiOLrLE/buHOSj83hPY6Ye+2YKOoAAAQAASAABAAACAACQAAAAAAAAAAA==

> <PUBCHEM_IUPAC_OPENEYE_NAME>
12-[4-[4-[2-[[7-amino-2-(2-furyl)-[1,2,4]triazolo[1,5-a][1,3,5]triazin-5-yl]amino]ethyl]phenoxy]butanoylamino]-N-[3-[2-(2-oxoindolin-4-yl)ethyl-propyl-amino]propyl]dodecanamide;2,2,2-trifluoroacetic acid

> <PUBCHEM_IUPAC_CAS_NAME>
12-[[4-[4-[2-[[7-amino-2-(2-furanyl)-[1,2,4]triazolo[1,5-a][1,3,5]triazin-5-yl]amino]ethyl]phenoxy]-1-oxobutyl]amino]-N-[3-[2-(2-oxo-1,3-dihydroindol-4-yl)ethyl-propylamino]propyl]dodecanamide;2,2,2-trifluoroacetic acid

> <PUBCHEM_IUPAC_NAME_MARKUP>
12-[4-[4-[2-[[7-amino-2-(furan-2-yl)-[1,2,4]triazolo[1,5-a][1,3,5]triazin-5-yl]amino]ethyl]phenoxy]butanoylamino]-<I>N</I>-[3-[2-(2-oxo-1,3-dihydroindol-4-yl)ethyl-propylamino]propyl]dodecanamide;2,2,2-trifluoroacetic acid

> <PUBCHEM_IUPAC_NAME>
12-[4-[4-[2-[[7-amino-2-(furan-2-yl)-[1,2,4]triazolo[1,5-a][1,3,5]triazin-5-yl]amino]ethyl]phenoxy]butanoylamino]-N-[3-[2-(2-oxo-1,3-dihydroindol-4-yl)ethyl-propylamino]propyl]dodecanamide;2,2,2-trifluoroacetic acid

> <PUBCHEM_IUPAC_SYSTEMATIC_NAME>
12-[4-[4-[2-[[7-azanyl-2-(furan-2-yl)-[1,2,4]triazolo[1,5-a][1,3,5]triazin-5-yl]amino]ethyl]phenoxy]butanoylamino]-N-[3-[2-(2-oxidanylidene-1,3-dihydroindol-4-yl)ethyl-propyl-amino]propyl]dodecanamide;2,2,2-tris(fluoranyl)ethanoic acid

> <PUBCHEM_IUPAC_TRADITIONAL_NAME>
12-[4-[4-[2-[[7-amino-2-(2-furyl)-[1,2,4]triazolo[1,5-a][1,3,5]triazin-5-yl]amino]ethyl]phenoxy]butanoylamino]-N-[3-[2-(2-ketoindolin-4-yl)ethyl-propyl-amino]propyl]lauramide;2,2,2-trifluoroacetic acid

> <PUBCHEM_IUPAC_INCHI>
InChI=1S/C48H67N11O5.C2HF3O2/c1-2-30-58(32-26-37-16-12-17-40-39(37)35-44(62)53-40)31-15-28-51-42(60)19-10-8-6-4-3-5-7-9-11-27-50-43(61)20-14-33-63-38-23-21-36(22-24-38)25-29-52-47-55-46(49)59-48(56-47)54-45(57-59)41-18-13-34-64-41;3-2(4,5)1(6)7/h12-13,16-18,21-24,34H,2-11,14-15,19-20,25-33,35H2,1H3,(H,50,61)(H,51,60)(H,53,62)(H3,49,52,54,55,56,57);(H,6,7)

> <PUBCHEM_IUPAC_INCHIKEY>
BBWLWISPGUVNQQ-UHFFFAOYSA-N

> <PUBCHEM_EXACT_MASS>
991.52552804

> <PUBCHEM_MOLECULAR_FORMULA>
C50H68F3N11O7

> <PUBCHEM_MOLECULAR_WEIGHT>
992.1

> <PUBCHEM_OPENEYE_CAN_SMILES>
CCCN(CCCNC(=O)CCCCCCCCCCCNC(=O)CCCOC1=CC=C(C=C1)CCNC2=NC3=NC(=NN3C(=N2)N)C4=CC=CO4)CCC5=C6CC(=O)NC6=CC=C5.C(=O)(C(F)(F)F)O

> <PUBCHEM_OPENEYE_ISO_SMILES>
CCCN(CCCNC(=O)CCCCCCCCCCCNC(=O)CCCOC1=CC=C(C=C1)CCNC2=NC3=NC(=NN3C(=N2)N)C4=CC=CO4)CCC5=C6CC(=O)NC6=CC=C5.C(=O)(C(F)(F)F)O

> <PUBCHEM_CACTVS_TPSA>
244

> <PUBCHEM_MONOISOTOPIC_WEIGHT>
991.52552804

> <PUBCHEM_TOTAL_CHARGE>
0

> <PUBCHEM_HEAVY_ATOM_COUNT>
71

> <PUBCHEM_ATOM_DEF_STEREO_COUNT>
0

> <PUBCHEM_ATOM_UDEF_STEREO_COUNT>
0

> <PUBCHEM_BOND_DEF_STEREO_COUNT>
0

> <PUBCHEM_BOND_UDEF_STEREO_COUNT>
0

> <PUBCHEM_ISOTOPIC_ATOM_COUNT>
0

> <PUBCHEM_COMPONENT_COUNT>
2

> <PUBCHEM_CACTVS_TAUTO_COUNT>
-1

> <PUBCHEM_COORDINATE_TYPE>
1
5
255

> <PUBCHEM_BONDANNOTATIONS>
16  20  8
16  63  8
16  64  8
17  62  8
17  63  8
18  62  8
18  64  8
19  63  8
19  65  8
20  65  8
32  35  8
32  43  8
35  42  8
42  47  8
43  48  8
47  48  8
54  56  8
54  57  8
55  59  8
55  60  8
56  59  8
57  60  8
66  67  8
67  68  8
68  69  8
8  66  8
8  69  8

$$$$
