44436306
  -OEChem-09292322252D

 56 59  0     0  0  0  0  0  0999 V2000
   10.9731   -3.1739    0.0000 F   0  0  0  0  0  0  0  0  0  0  0  0
   11.7454   -4.3586    0.0000 F   0  0  0  0  0  0  0  0  0  0  0  0
   10.5607   -5.1309    0.0000 F   0  0  0  0  0  0  0  0  0  0  0  0
    6.2619    4.1309    0.0000 O   0  0  0  0  0  0  0  0  0  0  0  0
    7.5673    0.0621    0.0000 N   0  0  0  0  0  0  0  0  0  0  0  0
    8.1886   -1.8389    0.0000 N   0  0  0  0  0  0  0  0  0  0  0  0
    4.6783    3.3262    0.0000 N   0  0  0  0  0  0  0  0  0  0  0  0
    8.5458   -0.1441    0.0000 C   0  0  0  0  0  0  0  0  0  0  0  0
    6.8994   -0.6822    0.0000 C   0  0  0  0  0  0  0  0  0  0  0  0
    7.2566    1.0127    0.0000 C   0  0  0  0  0  0  0  0  0  0  0  0
    8.8564   -1.0946    0.0000 C   0  0  0  0  0  0  0  0  0  0  0  0
    7.2101   -1.6327    0.0000 C   0  0  0  0  0  0  0  0  0  0  0  0
    6.2781    1.2189    0.0000 C   0  0  0  0  0  0  0  0  0  0  0  0
    5.9674    2.1694    0.0000 C   0  0  0  0  0  0  0  0  0  0  0  0
    4.9889    2.3756    0.0000 C   0  0  0  0  0  0  0  0  0  0  0  0
    8.4993   -2.7894    0.0000 C   0  0  0  0  0  0  0  0  0  0  0  0
    3.7320    3.6309    0.0000 C   0  0  0  0  0  0  0  0  0  0  0  0
    3.7320    4.6309    0.0000 C   0  0  0  0  0  0  0  0  0  0  0  0
    4.6783    4.9356    0.0000 C   0  0  0  0  0  0  0  0  0  0  0  0
    5.2619    4.1309    0.0000 C   0  0  0  0  0  0  0  0  0  0  0  0
    9.4778   -2.9956    0.0000 C   0  0  0  0  0  0  0  0  0  0  0  0
    7.8314   -3.5337    0.0000 C   0  0  0  0  0  0  0  0  0  0  0  0
    2.8660    3.1309    0.0000 C   0  0  0  0  0  0  0  0  0  0  0  0
    2.8660    5.1309    0.0000 C   0  0  0  0  0  0  0  0  0  0  0  0
    9.7884   -3.9462    0.0000 C   0  0  0  0  0  0  0  0  0  0  0  0
    8.1421   -4.4842    0.0000 C   0  0  0  0  0  0  0  0  0  0  0  0
    9.1206   -4.6904    0.0000 C   0  0  0  0  0  0  0  0  0  0  0  0
    2.0000    3.6309    0.0000 C   0  0  0  0  0  0  0  0  0  0  0  0
    2.0000    4.6309    0.0000 C   0  0  0  0  0  0  0  0  0  0  0  0
   10.7669   -4.1524    0.0000 C   0  0  0  0  0  0  0  0  0  0  0  0
    9.1596   -0.0567    0.0000 H   0  0  0  0  0  0  0  0  0  0  0  0
    8.5663    0.4756    0.0000 H   0  0  0  0  0  0  0  0  0  0  0  0
    6.5169   -0.1942    0.0000 H   0  0  0  0  0  0  0  0  0  0  0  0
    6.3525   -0.9742    0.0000 H   0  0  0  0  0  0  0  0  0  0  0  0
    7.8704    1.1000    0.0000 H   0  0  0  0  0  0  0  0  0  0  0  0
    7.2772    1.6323    0.0000 H   0  0  0  0  0  0  0  0  0  0  0  0
    9.2390   -1.5825    0.0000 H   0  0  0  0  0  0  0  0  0  0  0  0
    9.4034   -0.8026    0.0000 H   0  0  0  0  0  0  0  0  0  0  0  0
    6.5963   -1.7200    0.0000 H   0  0  0  0  0  0  0  0  0  0  0  0
    7.1895   -2.2523    0.0000 H   0  0  0  0  0  0  0  0  0  0  0  0
    5.6643    1.1315    0.0000 H   0  0  0  0  0  0  0  0  0  0  0  0
    6.2575    0.5992    0.0000 H   0  0  0  0  0  0  0  0  0  0  0  0
    6.5812    2.2568    0.0000 H   0  0  0  0  0  0  0  0  0  0  0  0
    5.9880    2.7891    0.0000 H   0  0  0  0  0  0  0  0  0  0  0  0
    4.3751    2.2883    0.0000 H   0  0  0  0  0  0  0  0  0  0  0  0
    4.9684    1.7560    0.0000 H   0  0  0  0  0  0  0  0  0  0  0  0
    5.2156    5.2448    0.0000 H   0  0  0  0  0  0  0  0  0  0  0  0
    4.4272    5.5025    0.0000 H   0  0  0  0  0  0  0  0  0  0  0  0
    9.8918   -2.5342    0.0000 H   0  0  0  0  0  0  0  0  0  0  0  0
    7.2247   -3.4059    0.0000 H   0  0  0  0  0  0  0  0  0  0  0  0
    2.8660    2.5109    0.0000 H   0  0  0  0  0  0  0  0  0  0  0  0
    2.8660    5.7509    0.0000 H   0  0  0  0  0  0  0  0  0  0  0  0
    7.7280   -4.9457    0.0000 H   0  0  0  0  0  0  0  0  0  0  0  0
    1.4631    3.3209    0.0000 H   0  0  0  0  0  0  0  0  0  0  0  0
    9.3132   -5.2798    0.0000 H   0  0  0  0  0  0  0  0  0  0  0  0
    1.4631    4.9409    0.0000 H   0  0  0  0  0  0  0  0  0  0  0  0
  1 30  1  0  0  0  0
  2 30  1  0  0  0  0
  3 30  1  0  0  0  0
  4 20  2  0  0  0  0
  5  8  1  0  0  0  0
  5  9  1  0  0  0  0
  5 10  1  0  0  0  0
  6 11  1  0  0  0  0
  6 12  1  0  0  0  0
  6 16  1  0  0  0  0
  7 15  1  0  0  0  0
  7 17  1  0  0  0  0
  7 20  1  0  0  0  0
  8 11  1  0  0  0  0
  8 31  1  0  0  0  0
  8 32  1  0  0  0  0
  9 12  1  0  0  0  0
  9 33  1  0  0  0  0
  9 34  1  0  0  0  0
 10 13  1  0  0  0  0
 10 35  1  0  0  0  0
 10 36  1  0  0  0  0
 11 37  1  0  0  0  0
 11 38  1  0  0  0  0
 12 39  1  0  0  0  0
 12 40  1  0  0  0  0
 13 14  1  0  0  0  0
 13 41  1  0  0  0  0
 13 42  1  0  0  0  0
 14 15  1  0  0  0  0
 14 43  1  0  0  0  0
 14 44  1  0  0  0  0
 15 45  1  0  0  0  0
 15 46  1  0  0  0  0
 16 21  1  0  0  0  0
 16 22  2  0  0  0  0
 17 18  1  0  0  0  0
 17 23  2  0  0  0  0
 18 19  1  0  0  0  0
 18 24  2  0  0  0  0
 19 20  1  0  0  0  0
 19 47  1  0  0  0  0
 19 48  1  0  0  0  0
 21 25  2  0  0  0  0
 21 49  1  0  0  0  0
 22 26  1  0  0  0  0
 22 50  1  0  0  0  0
 23 28  1  0  0  0  0
 23 51  1  0  0  0  0
 24 29  1  0  0  0  0
 24 52  1  0  0  0  0
 25 27  1  0  0  0  0
 25 30  1  0  0  0  0
 26 27  2  0  0  0  0
 26 53  1  0  0  0  0
 27 55  1  0  0  0  0
 28 29  2  0  0  0  0
 28 54  1  0  0  0  0
 29 56  1  0  0  0  0
M  END
> <PUBCHEM_COMPOUND_CID>
44436306

> <PUBCHEM_COMPOUND_CANONICALIZED>
1

> <PUBCHEM_CACTVS_COMPLEXITY>
577

> <PUBCHEM_CACTVS_HBOND_ACCEPTOR>
6

> <PUBCHEM_CACTVS_HBOND_DONOR>
0

> <PUBCHEM_CACTVS_ROTATABLE_BOND>
6

> <PUBCHEM_CACTVS_SUBSKEYS>
AAADceB7IYAAAAAAAAAAAAAAAAAAAWAAAAA8YIAAAAAAAFgBQAAAHwAAAAAADAjBmBQwwIMAAACIAiVSUACCAAAhAgAIiAEIZIgIYDLAlZGUIAhghgDIyAcciICOAAAAQAACAAAAAACAAAQAAAAAAAAAAA==

> <PUBCHEM_IUPAC_OPENEYE_NAME>
1-[4-[4-[3-(trifluoromethyl)phenyl]piperazin-1-yl]butyl]indolin-2-one

> <PUBCHEM_IUPAC_CAS_NAME>
1-[4-[4-[3-(trifluoromethyl)phenyl]-1-piperazinyl]butyl]-3H-indol-2-one

> <PUBCHEM_IUPAC_NAME_MARKUP>
1-[4-[4-[3-(trifluoromethyl)phenyl]piperazin-1-yl]butyl]-3<I>H</I>-indol-2-one

> <PUBCHEM_IUPAC_NAME>
1-[4-[4-[3-(trifluoromethyl)phenyl]piperazin-1-yl]butyl]-3H-indol-2-one

> <PUBCHEM_IUPAC_SYSTEMATIC_NAME>
1-[4-[4-[3-(trifluoromethyl)phenyl]piperazin-1-yl]butyl]-3H-indol-2-one

> <PUBCHEM_IUPAC_TRADITIONAL_NAME>
1-[4-[4-[3-(trifluoromethyl)phenyl]piperazino]butyl]oxindole

> <PUBCHEM_IUPAC_INCHI>
InChI=1S/C23H26F3N3O/c24-23(25,26)19-7-5-8-20(17-19)28-14-12-27(13-15-28)10-3-4-11-29-21-9-2-1-6-18(21)16-22(29)30/h1-2,5-9,17H,3-4,10-16H2

> <PUBCHEM_IUPAC_INCHIKEY>
SAFSSBPNJDIAIH-UHFFFAOYSA-N

> <PUBCHEM_XLOGP3_AA>
4.2

> <PUBCHEM_EXACT_MASS>
417.20279695

> <PUBCHEM_MOLECULAR_FORMULA>
C23H26F3N3O

> <PUBCHEM_MOLECULAR_WEIGHT>
417.5

> <PUBCHEM_OPENEYE_CAN_SMILES>
C1CN(CCN1CCCCN2C(=O)CC3=CC=CC=C32)C4=CC=CC(=C4)C(F)(F)F

> <PUBCHEM_OPENEYE_ISO_SMILES>
C1CN(CCN1CCCCN2C(=O)CC3=CC=CC=C32)C4=CC=CC(=C4)C(F)(F)F

> <PUBCHEM_CACTVS_TPSA>
26.8

> <PUBCHEM_MONOISOTOPIC_WEIGHT>
417.20279695

> <PUBCHEM_TOTAL_CHARGE>
0

> <PUBCHEM_HEAVY_ATOM_COUNT>
30

> <PUBCHEM_ATOM_DEF_STEREO_COUNT>
0

> <PUBCHEM_ATOM_UDEF_STEREO_COUNT>
0

> <PUBCHEM_BOND_DEF_STEREO_COUNT>
0

> <PUBCHEM_BOND_UDEF_STEREO_COUNT>
0

> <PUBCHEM_ISOTOPIC_ATOM_COUNT>
0

> <PUBCHEM_COMPONENT_COUNT>
1

> <PUBCHEM_CACTVS_TAUTO_COUNT>
-1

> <PUBCHEM_COORDINATE_TYPE>
1
5
255

> <PUBCHEM_BONDANNOTATIONS>
16  21  8
16  22  8
17  18  8
17  23  8
18  24  8
21  25  8
22  26  8
23  28  8
24  29  8
25  27  8
26  27  8
28  29  8

$$$$
