133741
  -OEChem-09292321582D

 44 45  0     0  0  0  0  0  0999 V2000
    4.5981   -3.5950    0.0000 O   0  0  0  0  0  0  0  0  0  0  0  0
    7.9939   -1.5950    0.0000 O   0  0  0  0  0  0  0  0  0  0  0  0
    3.7320    1.9050    0.0000 N   0  0  0  0  0  0  0  0  0  0  0  0
    6.4103   -2.3997    0.0000 N   0  0  0  0  0  0  0  0  0  0  0  0
    3.7320    0.9050    0.0000 C   0  0  0  0  0  0  0  0  0  0  0  0
    4.5981    0.4050    0.0000 C   0  0  0  0  0  0  0  0  0  0  0  0
    4.5981   -0.5950    0.0000 C   0  0  0  0  0  0  0  0  0  0  0  0
    5.4641   -1.0950    0.0000 C   0  0  0  0  0  0  0  0  0  0  0  0
    2.8660    2.4050    0.0000 C   0  0  0  0  0  0  0  0  0  0  0  0
    4.5981    2.4050    0.0000 C   0  0  0  0  0  0  0  0  0  0  0  0
    6.4103   -0.7903    0.0000 C   0  0  0  0  0  0  0  0  0  0  0  0
    5.4641   -2.0950    0.0000 C   0  0  0  0  0  0  0  0  0  0  0  0
    2.8660    3.4050    0.0000 C   0  0  0  0  0  0  0  0  0  0  0  0
    4.5981    3.4050    0.0000 C   0  0  0  0  0  0  0  0  0  0  0  0
    3.7320   -1.0950    0.0000 C   0  0  0  0  0  0  0  0  0  0  0  0
    6.9939   -1.5950    0.0000 C   0  0  0  0  0  0  0  0  0  0  0  0
    4.5981   -2.5950    0.0000 C   0  0  0  0  0  0  0  0  0  0  0  0
    3.7320   -2.0950    0.0000 C   0  0  0  0  0  0  0  0  0  0  0  0
    2.0000    3.9050    0.0000 C   0  0  0  0  0  0  0  0  0  0  0  0
    5.4641    3.9050    0.0000 C   0  0  0  0  0  0  0  0  0  0  0  0
    3.1215    1.0127    0.0000 H   0  0  0  0  0  0  0  0  0  0  0  0
    3.5200    0.3224    0.0000 H   0  0  0  0  0  0  0  0  0  0  0  0
    5.2087    0.2973    0.0000 H   0  0  0  0  0  0  0  0  0  0  0  0
    4.8101    0.9876    0.0000 H   0  0  0  0  0  0  0  0  0  0  0  0
    2.2554    2.5127    0.0000 H   0  0  0  0  0  0  0  0  0  0  0  0
    2.6540    1.8224    0.0000 H   0  0  0  0  0  0  0  0  0  0  0  0
    4.8101    1.8224    0.0000 H   0  0  0  0  0  0  0  0  0  0  0  0
    5.2087    2.5127    0.0000 H   0  0  0  0  0  0  0  0  0  0  0  0
    6.9477   -0.4810    0.0000 H   0  0  0  0  0  0  0  0  0  0  0  0
    6.1593   -0.2234    0.0000 H   0  0  0  0  0  0  0  0  0  0  0  0
    3.4766    3.2973    0.0000 H   0  0  0  0  0  0  0  0  0  0  0  0
    3.0781    3.9876    0.0000 H   0  0  0  0  0  0  0  0  0  0  0  0
    4.3860    3.9876    0.0000 H   0  0  0  0  0  0  0  0  0  0  0  0
    3.9875    3.2973    0.0000 H   0  0  0  0  0  0  0  0  0  0  0  0
    3.1951   -0.7850    0.0000 H   0  0  0  0  0  0  0  0  0  0  0  0
    6.6029   -2.9891    0.0000 H   0  0  0  0  0  0  0  0  0  0  0  0
    3.1951   -2.4050    0.0000 H   0  0  0  0  0  0  0  0  0  0  0  0
    2.3100    4.4419    0.0000 H   0  0  0  0  0  0  0  0  0  0  0  0
    1.4631    4.2150    0.0000 H   0  0  0  0  0  0  0  0  0  0  0  0
    1.6900    3.3681    0.0000 H   0  0  0  0  0  0  0  0  0  0  0  0
    5.7741    3.3681    0.0000 H   0  0  0  0  0  0  0  0  0  0  0  0
    6.0010    4.2150    0.0000 H   0  0  0  0  0  0  0  0  0  0  0  0
    5.1541    4.4419    0.0000 H   0  0  0  0  0  0  0  0  0  0  0  0
    4.0611   -3.9050    0.0000 H   0  0  0  0  0  0  0  0  0  0  0  0
  1 17  1  0  0  0  0
  1 44  1  0  0  0  0
  2 16  2  0  0  0  0
  3  5  1  0  0  0  0
  3  9  1  0  0  0  0
  3 10  1  0  0  0  0
  4 12  1  0  0  0  0
  4 16  1  0  0  0  0
  4 36  1  0  0  0  0
  5  6  1  0  0  0  0
  5 21  1  0  0  0  0
  5 22  1  0  0  0  0
  6  7  1  0  0  0  0
  6 23  1  0  0  0  0
  6 24  1  0  0  0  0
  7  8  2  0  0  0  0
  7 15  1  0  0  0  0
  8 11  1  0  0  0  0
  8 12  1  0  0  0  0
  9 13  1  0  0  0  0
  9 25  1  0  0  0  0
  9 26  1  0  0  0  0
 10 14  1  0  0  0  0
 10 27  1  0  0  0  0
 10 28  1  0  0  0  0
 11 16  1  0  0  0  0
 11 29  1  0  0  0  0
 11 30  1  0  0  0  0
 12 17  2  0  0  0  0
 13 19  1  0  0  0  0
 13 31  1  0  0  0  0
 13 32  1  0  0  0  0
 14 20  1  0  0  0  0
 14 33  1  0  0  0  0
 14 34  1  0  0  0  0
 15 18  2  0  0  0  0
 15 35  1  0  0  0  0
 17 18  1  0  0  0  0
 18 37  1  0  0  0  0
 19 38  1  0  0  0  0
 19 39  1  0  0  0  0
 19 40  1  0  0  0  0
 20 41  1  0  0  0  0
 20 42  1  0  0  0  0
 20 43  1  0  0  0  0
M  END
> <PUBCHEM_COMPOUND_CID>
133741

> <PUBCHEM_COMPOUND_CANONICALIZED>
1

> <PUBCHEM_CACTVS_COMPLEXITY>
316

> <PUBCHEM_CACTVS_HBOND_ACCEPTOR>
3

> <PUBCHEM_CACTVS_HBOND_DONOR>
2

> <PUBCHEM_CACTVS_ROTATABLE_BOND>
7

> <PUBCHEM_CACTVS_SUBSKEYS>
AAADceB7MAAAAAAAAAAAAAAAAAAAAWAAAAAwAAAAAAAAAFgBAAAAHgAQCAAADAzBmAQyxoPAAgCIAiVSUACCAAAhIAAIiAEPTIgKJjLSlZOEcAhk1BHY2Aec3LDOoAABQAASEABAAAKAACQgAAAAAAAAAA==

> <PUBCHEM_IUPAC_OPENEYE_NAME>
4-[2-(dipropylamino)ethyl]-7-hydroxy-indolin-2-one

> <PUBCHEM_IUPAC_CAS_NAME>
4-[2-(dipropylamino)ethyl]-7-hydroxy-1,3-dihydroindol-2-one

> <PUBCHEM_IUPAC_NAME_MARKUP>
4-[2-(dipropylamino)ethyl]-7-hydroxy-1,3-dihydroindol-2-one

> <PUBCHEM_IUPAC_NAME>
4-[2-(dipropylamino)ethyl]-7-hydroxy-1,3-dihydroindol-2-one

> <PUBCHEM_IUPAC_SYSTEMATIC_NAME>
4-[2-(dipropylamino)ethyl]-7-oxidanyl-1,3-dihydroindol-2-one

> <PUBCHEM_IUPAC_TRADITIONAL_NAME>
4-[2-(dipropylamino)ethyl]-7-hydroxy-oxindole

> <PUBCHEM_IUPAC_INCHI>
InChI=1S/C16H24N2O2/c1-3-8-18(9-4-2)10-7-12-5-6-14(19)16-13(12)11-15(20)17-16/h5-6,19H,3-4,7-11H2,1-2H3,(H,17,20)

> <PUBCHEM_IUPAC_INCHIKEY>
PVIICBUWKXYFAA-UHFFFAOYSA-N

> <PUBCHEM_XLOGP3>
2.3

> <PUBCHEM_EXACT_MASS>
276.183778013

> <PUBCHEM_MOLECULAR_FORMULA>
C16H24N2O2

> <PUBCHEM_MOLECULAR_WEIGHT>
276.37

> <PUBCHEM_OPENEYE_CAN_SMILES>
CCCN(CCC)CCC1=C2CC(=O)NC2=C(C=C1)O

> <PUBCHEM_OPENEYE_ISO_SMILES>
CCCN(CCC)CCC1=C2CC(=O)NC2=C(C=C1)O

> <PUBCHEM_CACTVS_TPSA>
52.6

> <PUBCHEM_MONOISOTOPIC_WEIGHT>
276.183778013

> <PUBCHEM_TOTAL_CHARGE>
0

> <PUBCHEM_HEAVY_ATOM_COUNT>
20

> <PUBCHEM_ATOM_DEF_STEREO_COUNT>
0

> <PUBCHEM_ATOM_UDEF_STEREO_COUNT>
0

> <PUBCHEM_BOND_DEF_STEREO_COUNT>
0

> <PUBCHEM_BOND_UDEF_STEREO_COUNT>
0

> <PUBCHEM_ISOTOPIC_ATOM_COUNT>
0

> <PUBCHEM_COMPONENT_COUNT>
1

> <PUBCHEM_CACTVS_TAUTO_COUNT>
56

> <PUBCHEM_COORDINATE_TYPE>
1
5
255

> <PUBCHEM_BONDANNOTATIONS>
12  17  8
15  18  8
17  18  8
7  15  8
7  8  8
8  12  8

$$$$
