121967
  -OEChem-09292322132D

 44 45  0     0  0  0  0  0  0999 V2000
    6.7176    4.8823    0.0000 Br  0  0  0  0  0  0  0  0  0  0  0  0
    3.3147   10.2646    0.0000 F   0  0  0  0  0  0  0  0  0  0  0  0
    4.1807    5.7646    0.0000 O   0  0  0  0  0  0  0  0  0  0  0  0
    2.4486    2.7646    0.0000 N   0  0  0  0  0  0  0  0  0  0  0  0
    1.5826    1.2646    0.0000 C   0  0  0  0  0  0  0  0  0  0  0  0
    0.5826    1.2646    0.0000 C   0  0  0  0  0  0  0  0  0  0  0  0
    1.0826    0.3985    0.0000 C   0  0  0  0  0  0  0  0  0  0  0  0
    2.4486    1.7646    0.0000 C   0  0  0  0  0  0  0  0  0  0  0  0
    2.4486    4.7646    0.0000 C   0  0  0  0  0  0  0  0  0  0  0  0
    3.3147    3.2646    0.0000 C   0  0  0  0  0  0  0  0  0  0  0  0
    1.5826    3.2646    0.0000 C   0  0  0  0  0  0  0  0  0  0  0  0
    3.3147    4.2646    0.0000 C   0  0  0  0  0  0  0  0  0  0  0  0
    1.5826    4.2646    0.0000 C   0  0  0  0  0  0  0  0  0  0  0  0
    2.4486    5.7646    0.0000 C   0  0  0  0  0  0  0  0  0  0  0  0
    3.3147    6.2646    0.0000 C   0  0  0  0  0  0  0  0  0  0  0  0
    3.3147    7.2646    0.0000 C   0  0  0  0  0  0  0  0  0  0  0  0
    4.1807    7.7646    0.0000 C   0  0  0  0  0  0  0  0  0  0  0  0
    2.4486    7.7646    0.0000 C   0  0  0  0  0  0  0  0  0  0  0  0
    4.1807    8.7646    0.0000 C   0  0  0  0  0  0  0  0  0  0  0  0
    2.4486    8.7646    0.0000 C   0  0  0  0  0  0  0  0  0  0  0  0
    3.3147    9.2646    0.0000 C   0  0  0  0  0  0  0  0  0  0  0  0
    2.0210    0.8261    0.0000 H   0  0  0  0  0  0  0  0  0  0  0  0
    0.4749    1.8751    0.0000 H   0  0  0  0  0  0  0  0  0  0  0  0
    0.0000    1.0525    0.0000 H   0  0  0  0  0  0  0  0  0  0  0  0
    0.6077    0.0000    0.0000 H   0  0  0  0  0  0  0  0  0  0  0  0
    1.5576    0.0000    0.0000 H   0  0  0  0  0  0  0  0  0  0  0  0
    2.6607    1.1819    0.0000 H   0  0  0  0  0  0  0  0  0  0  0  0
    3.0592    1.8722    0.0000 H   0  0  0  0  0  0  0  0  0  0  0  0
    2.9856    5.0746    0.0000 H   0  0  0  0  0  0  0  0  0  0  0  0
    3.5267    2.6819    0.0000 H   0  0  0  0  0  0  0  0  0  0  0  0
    3.9252    3.3722    0.0000 H   0  0  0  0  0  0  0  0  0  0  0  0
    0.9720    3.3722    0.0000 H   0  0  0  0  0  0  0  0  0  0  0  0
    1.3706    2.6819    0.0000 H   0  0  0  0  0  0  0  0  0  0  0  0
    3.9252    4.1569    0.0000 H   0  0  0  0  0  0  0  0  0  0  0  0
    3.5267    4.8472    0.0000 H   0  0  0  0  0  0  0  0  0  0  0  0
    1.3706    4.8472    0.0000 H   0  0  0  0  0  0  0  0  0  0  0  0
    0.9720    4.1569    0.0000 H   0  0  0  0  0  0  0  0  0  0  0  0
    2.2366    6.3472    0.0000 H   0  0  0  0  0  0  0  0  0  0  0  0
    1.8380    5.6569    0.0000 H   0  0  0  0  0  0  0  0  0  0  0  0
    4.7176    7.4546    0.0000 H   0  0  0  0  0  0  0  0  0  0  0  0
    1.9117    7.4546    0.0000 H   0  0  0  0  0  0  0  0  0  0  0  0
    4.7176    9.0746    0.0000 H   0  0  0  0  0  0  0  0  0  0  0  0
    1.9117    9.0746    0.0000 H   0  0  0  0  0  0  0  0  0  0  0  0
    7.7176    4.8823    0.0000 H   0  0  0  0  0  0  0  0  0  0  0  0
  1 44  1  0  0  0  0
  2 21  1  0  0  0  0
  3 15  2  0  0  0  0
  4  8  1  0  0  0  0
  4 10  1  0  0  0  0
  4 11  1  0  0  0  0
  5  6  1  0  0  0  0
  5  7  1  0  0  0  0
  5  8  1  0  0  0  0
  5 22  1  0  0  0  0
  6  7  1  0  0  0  0
  6 23  1  0  0  0  0
  6 24  1  0  0  0  0
  7 25  1  0  0  0  0
  7 26  1  0  0  0  0
  8 27  1  0  0  0  0
  8 28  1  0  0  0  0
  9 12  1  0  0  0  0
  9 13  1  0  0  0  0
  9 14  1  0  0  0  0
  9 29  1  0  0  0  0
 10 12  1  0  0  0  0
 10 30  1  0  0  0  0
 10 31  1  0  0  0  0
 11 13  1  0  0  0  0
 11 32  1  0  0  0  0
 11 33  1  0  0  0  0
 12 34  1  0  0  0  0
 12 35  1  0  0  0  0
 13 36  1  0  0  0  0
 13 37  1  0  0  0  0
 14 15  1  0  0  0  0
 14 38  1  0  0  0  0
 14 39  1  0  0  0  0
 15 16  1  0  0  0  0
 16 17  2  0  0  0  0
 16 18  1  0  0  0  0
 17 19  1  0  0  0  0
 17 40  1  0  0  0  0
 18 20  2  0  0  0  0
 18 41  1  0  0  0  0
 19 21  2  0  0  0  0
 19 42  1  0  0  0  0
 20 21  1  0  0  0  0
 20 43  1  0  0  0  0
M  END
> <PUBCHEM_COMPOUND_CID>
121967

> <PUBCHEM_COMPOUND_CANONICALIZED>
1

> <PUBCHEM_CACTVS_COMPLEXITY>
326

> <PUBCHEM_CACTVS_HBOND_ACCEPTOR>
3

> <PUBCHEM_CACTVS_HBOND_DONOR>
1

> <PUBCHEM_CACTVS_ROTATABLE_BOND>
5

> <PUBCHEM_CACTVS_SUBSKEYS>
AAADceB6IQAAEAAAAAAAAAAAGAAAAAAAAAA8QAAAAAAAAAABAAAAHwAAAAAADQTBmAwwAIMAAACIAqBSAAACAAAkAAAIiAEIAMgIIDKAlRCEIQAggACIiYcYicCOAAAAAAAAAAAAAAAAAAAAAAAAAAAAAA==

> <PUBCHEM_IUPAC_OPENEYE_NAME>
2-[1-(cyclopropylmethyl)-4-piperidyl]-1-(4-fluorophenyl)ethanone;hydrobromide

> <PUBCHEM_IUPAC_CAS_NAME>
2-[1-(cyclopropylmethyl)-4-piperidinyl]-1-(4-fluorophenyl)ethanone;hydrobromide

> <PUBCHEM_IUPAC_NAME_MARKUP>
2-[1-(cyclopropylmethyl)piperidin-4-yl]-1-(4-fluorophenyl)ethanone;hydrobromide

> <PUBCHEM_IUPAC_NAME>
2-[1-(cyclopropylmethyl)piperidin-4-yl]-1-(4-fluorophenyl)ethanone;hydrobromide

> <PUBCHEM_IUPAC_SYSTEMATIC_NAME>
2-[1-(cyclopropylmethyl)piperidin-4-yl]-1-(4-fluorophenyl)ethanone;hydrobromide

> <PUBCHEM_IUPAC_TRADITIONAL_NAME>
2-[1-(cyclopropylmethyl)-4-piperidyl]-1-(4-fluorophenyl)ethanone;hydrobromide

> <PUBCHEM_IUPAC_INCHI>
InChI=1S/C17H22FNO.BrH/c18-16-5-3-15(4-6-16)17(20)11-13-7-9-19(10-8-13)12-14-1-2-14;/h3-6,13-14H,1-2,7-12H2;1H

> <PUBCHEM_IUPAC_INCHIKEY>
QLZIAKMYJFJBKA-UHFFFAOYSA-N

> <PUBCHEM_EXACT_MASS>
355.09471

> <PUBCHEM_MOLECULAR_FORMULA>
C17H23BrFNO

> <PUBCHEM_MOLECULAR_WEIGHT>
356.3

> <PUBCHEM_OPENEYE_CAN_SMILES>
C1CC1CN2CCC(CC2)CC(=O)C3=CC=C(C=C3)F.Br

> <PUBCHEM_OPENEYE_ISO_SMILES>
C1CC1CN2CCC(CC2)CC(=O)C3=CC=C(C=C3)F.Br

> <PUBCHEM_CACTVS_TPSA>
20.3

> <PUBCHEM_MONOISOTOPIC_WEIGHT>
355.09471

> <PUBCHEM_TOTAL_CHARGE>
0

> <PUBCHEM_HEAVY_ATOM_COUNT>
21

> <PUBCHEM_ATOM_DEF_STEREO_COUNT>
0

> <PUBCHEM_ATOM_UDEF_STEREO_COUNT>
0

> <PUBCHEM_BOND_DEF_STEREO_COUNT>
0

> <PUBCHEM_BOND_UDEF_STEREO_COUNT>
0

> <PUBCHEM_ISOTOPIC_ATOM_COUNT>
0

> <PUBCHEM_COMPONENT_COUNT>
2

> <PUBCHEM_CACTVS_TAUTO_COUNT>
2

> <PUBCHEM_COORDINATE_TYPE>
1
5
255

> <PUBCHEM_BONDANNOTATIONS>
16  17  8
16  18  8
17  19  8
18  20  8
19  21  8
20  21  8

$$$$
