11849730
  -OEChem-09292322022D

 56 58  0     0  0  0  0  0  0999 V2000
    2.8660   -2.7500    0.0000 O   0  0  0  0  0  0  0  0  0  0  0  0
    3.7320    2.7500    0.0000 O   0  0  0  0  0  0  0  0  0  0  0  0
    4.5981    0.2500    0.0000 N   0  0  0  0  0  0  0  0  0  0  0  0
    4.5981   -1.7500    0.0000 N   0  0  0  0  0  0  0  0  0  0  0  0
    4.5981    3.2500    0.0000 N   0  0  0  0  0  0  0  0  0  0  0  0
    3.7320   -0.2500    0.0000 C   0  0  0  0  0  0  0  0  0  0  0  0
    5.4641   -0.2500    0.0000 C   0  0  0  0  0  0  0  0  0  0  0  0
    3.7320   -1.2500    0.0000 C   0  0  0  0  0  0  0  0  0  0  0  0
    5.4641   -1.2500    0.0000 C   0  0  0  0  0  0  0  0  0  0  0  0
    4.5981    1.2500    0.0000 C   0  0  0  0  0  0  0  0  0  0  0  0
    4.5981   -2.7500    0.0000 C   0  0  0  0  0  0  0  0  0  0  0  0
    5.4641    1.7500    0.0000 C   0  0  0  0  0  0  0  0  0  0  0  0
    3.7320   -3.2500    0.0000 C   0  0  0  0  0  0  0  0  0  0  0  0
    5.4641    2.7500    0.0000 C   0  0  0  0  0  0  0  0  0  0  0  0
    5.4641   -3.2500    0.0000 C   0  0  0  0  0  0  0  0  0  0  0  0
    3.7320   -4.2500    0.0000 C   0  0  0  0  0  0  0  0  0  0  0  0
    6.3301    3.2500    0.0000 C   0  0  0  0  0  0  0  0  0  0  0  0
    5.4641   -4.2500    0.0000 C   0  0  0  0  0  0  0  0  0  0  0  0
    4.5981   -4.7500    0.0000 C   0  0  0  0  0  0  0  0  0  0  0  0
    6.3301    4.2500    0.0000 C   0  0  0  0  0  0  0  0  0  0  0  0
    7.1962    2.7500    0.0000 C   0  0  0  0  0  0  0  0  0  0  0  0
    2.0000   -3.2500    0.0000 C   0  0  0  0  0  0  0  0  0  0  0  0
    7.1962    4.7500    0.0000 C   0  0  0  0  0  0  0  0  0  0  0  0
    8.0622    3.2500    0.0000 C   0  0  0  0  0  0  0  0  0  0  0  0
    8.0622    4.2500    0.0000 C   0  0  0  0  0  0  0  0  0  0  0  0
    2.8660    3.2500    0.0000 C   0  0  0  0  0  0  0  0  0  0  0  0
    2.0000    2.7500    0.0000 C   0  0  0  0  0  0  0  0  0  0  0  0
    3.5200    0.3326    0.0000 H   0  0  0  0  0  0  0  0  0  0  0  0
    3.1215   -0.3577    0.0000 H   0  0  0  0  0  0  0  0  0  0  0  0
    6.0747   -0.3577    0.0000 H   0  0  0  0  0  0  0  0  0  0  0  0
    5.6762    0.3326    0.0000 H   0  0  0  0  0  0  0  0  0  0  0  0
    3.1215   -1.1423    0.0000 H   0  0  0  0  0  0  0  0  0  0  0  0
    3.5200   -1.8326    0.0000 H   0  0  0  0  0  0  0  0  0  0  0  0
    5.6762   -1.8326    0.0000 H   0  0  0  0  0  0  0  0  0  0  0  0
    6.0747   -1.1423    0.0000 H   0  0  0  0  0  0  0  0  0  0  0  0
    4.3860    1.8326    0.0000 H   0  0  0  0  0  0  0  0  0  0  0  0
    3.9875    1.1423    0.0000 H   0  0  0  0  0  0  0  0  0  0  0  0
    5.6762    1.1674    0.0000 H   0  0  0  0  0  0  0  0  0  0  0  0
    6.0747    1.8577    0.0000 H   0  0  0  0  0  0  0  0  0  0  0  0
    6.0010   -2.9400    0.0000 H   0  0  0  0  0  0  0  0  0  0  0  0
    3.1951   -4.5600    0.0000 H   0  0  0  0  0  0  0  0  0  0  0  0
    6.0010   -4.5600    0.0000 H   0  0  0  0  0  0  0  0  0  0  0  0
    4.5981   -5.3700    0.0000 H   0  0  0  0  0  0  0  0  0  0  0  0
    5.7932    4.5600    0.0000 H   0  0  0  0  0  0  0  0  0  0  0  0
    7.1962    2.1300    0.0000 H   0  0  0  0  0  0  0  0  0  0  0  0
    1.6900   -2.7131    0.0000 H   0  0  0  0  0  0  0  0  0  0  0  0
    1.4631   -3.5600    0.0000 H   0  0  0  0  0  0  0  0  0  0  0  0
    2.3100   -3.7869    0.0000 H   0  0  0  0  0  0  0  0  0  0  0  0
    7.1962    5.3700    0.0000 H   0  0  0  0  0  0  0  0  0  0  0  0
    8.5991    2.9400    0.0000 H   0  0  0  0  0  0  0  0  0  0  0  0
    8.5991    4.5600    0.0000 H   0  0  0  0  0  0  0  0  0  0  0  0
    3.2646    3.7250    0.0000 H   0  0  0  0  0  0  0  0  0  0  0  0
    2.4675    3.7250    0.0000 H   0  0  0  0  0  0  0  0  0  0  0  0
    1.6900    3.2869    0.0000 H   0  0  0  0  0  0  0  0  0  0  0  0
    1.4631    2.4400    0.0000 H   0  0  0  0  0  0  0  0  0  0  0  0
    2.3100    2.2131    0.0000 H   0  0  0  0  0  0  0  0  0  0  0  0
  1 13  1  0  0  0  0
  1 22  1  0  0  0  0
  2  5  1  0  0  0  0
  2 26  1  0  0  0  0
  3  6  1  0  0  0  0
  3  7  1  0  0  0  0
  3 10  1  0  0  0  0
  4  8  1  0  0  0  0
  4  9  1  0  0  0  0
  4 11  1  0  0  0  0
  5 14  2  0  0  0  0
  6  8  1  0  0  0  0
  6 28  1  0  0  0  0
  6 29  1  0  0  0  0
  7  9  1  0  0  0  0
  7 30  1  0  0  0  0
  7 31  1  0  0  0  0
  8 32  1  0  0  0  0
  8 33  1  0  0  0  0
  9 34  1  0  0  0  0
  9 35  1  0  0  0  0
 10 12  1  0  0  0  0
 10 36  1  0  0  0  0
 10 37  1  0  0  0  0
 11 13  1  0  0  0  0
 11 15  2  0  0  0  0
 12 14  1  0  0  0  0
 12 38  1  0  0  0  0
 12 39  1  0  0  0  0
 13 16  2  0  0  0  0
 14 17  1  0  0  0  0
 15 18  1  0  0  0  0
 15 40  1  0  0  0  0
 16 19  1  0  0  0  0
 16 41  1  0  0  0  0
 17 20  2  0  0  0  0
 17 21  1  0  0  0  0
 18 19  2  0  0  0  0
 18 42  1  0  0  0  0
 19 43  1  0  0  0  0
 20 23  1  0  0  0  0
 20 44  1  0  0  0  0
 21 24  2  0  0  0  0
 21 45  1  0  0  0  0
 22 46  1  0  0  0  0
 22 47  1  0  0  0  0
 22 48  1  0  0  0  0
 23 25  2  0  0  0  0
 23 49  1  0  0  0  0
 24 25  1  0  0  0  0
 24 50  1  0  0  0  0
 25 51  1  0  0  0  0
 26 27  1  0  0  0  0
 26 52  1  0  0  0  0
 26 53  1  0  0  0  0
 27 54  1  0  0  0  0
 27 55  1  0  0  0  0
 27 56  1  0  0  0  0
M  END
> <PUBCHEM_COMPOUND_CID>
11849730

> <PUBCHEM_COMPOUND_CANONICALIZED>
1

> <PUBCHEM_CACTVS_COMPLEXITY>
443

> <PUBCHEM_CACTVS_HBOND_ACCEPTOR>
5

> <PUBCHEM_CACTVS_HBOND_DONOR>
0

> <PUBCHEM_CACTVS_ROTATABLE_BOND>
8

> <PUBCHEM_CACTVS_SUBSKEYS>
AAADceB7MAAAAAAAAAAAAAAAAAAAAAAAAAA8YIAAAAAAAAABQAAAHgAEAAAADAzhmAYyxoMQBACgAyRiQACCCAAhIgAIiAA/bJgOZqLEsZuVMChkwBHY6AeQwIAOAAAAAAAAEAAAAAAAAAAgAAAAAAAAAA==

> <PUBCHEM_IUPAC_OPENEYE_NAME>
(E)-N-ethoxy-3-[4-(2-methoxyphenyl)piperazin-1-yl]-1-phenyl-propan-1-imine

> <PUBCHEM_IUPAC_CAS_NAME>
(E)-N-ethoxy-3-[4-(2-methoxyphenyl)-1-piperazinyl]-1-phenyl-1-propanimine

> <PUBCHEM_IUPAC_NAME_MARKUP>
(<I>E</I>)-<I>N</I>-ethoxy-3-[4-(2-methoxyphenyl)piperazin-1-yl]-1-phenylpropan-1-imine

> <PUBCHEM_IUPAC_NAME>
(E)-N-ethoxy-3-[4-(2-methoxyphenyl)piperazin-1-yl]-1-phenylpropan-1-imine

> <PUBCHEM_IUPAC_SYSTEMATIC_NAME>
(E)-N-ethoxy-3-[4-(2-methoxyphenyl)piperazin-1-yl]-1-phenyl-propan-1-imine

> <PUBCHEM_IUPAC_TRADITIONAL_NAME>
(E)-ethoxy-[3-[4-(2-methoxyphenyl)piperazino]-1-phenyl-propylidene]amine

> <PUBCHEM_IUPAC_INCHI>
InChI=1S/C22H29N3O2/c1-3-27-23-20(19-9-5-4-6-10-19)13-14-24-15-17-25(18-16-24)21-11-7-8-12-22(21)26-2/h4-12H,3,13-18H2,1-2H3/b23-20+

> <PUBCHEM_IUPAC_INCHIKEY>
RRLXSFARLGMETD-BSYVCWPDSA-N

> <PUBCHEM_XLOGP3_AA>
4.1

> <PUBCHEM_EXACT_MASS>
367.22597718

> <PUBCHEM_MOLECULAR_FORMULA>
C22H29N3O2

> <PUBCHEM_MOLECULAR_WEIGHT>
367.5

> <PUBCHEM_OPENEYE_CAN_SMILES>
CCON=C(CCN1CCN(CC1)C2=CC=CC=C2OC)C3=CC=CC=C3

> <PUBCHEM_OPENEYE_ISO_SMILES>
CCO/N=C(\CCN1CCN(CC1)C2=CC=CC=C2OC)/C3=CC=CC=C3

> <PUBCHEM_CACTVS_TPSA>
37.3

> <PUBCHEM_MONOISOTOPIC_WEIGHT>
367.22597718

> <PUBCHEM_TOTAL_CHARGE>
0

> <PUBCHEM_HEAVY_ATOM_COUNT>
27

> <PUBCHEM_ATOM_DEF_STEREO_COUNT>
0

> <PUBCHEM_ATOM_UDEF_STEREO_COUNT>
0

> <PUBCHEM_BOND_DEF_STEREO_COUNT>
1

> <PUBCHEM_BOND_UDEF_STEREO_COUNT>
0

> <PUBCHEM_ISOTOPIC_ATOM_COUNT>
0

> <PUBCHEM_COMPONENT_COUNT>
1

> <PUBCHEM_CACTVS_TAUTO_COUNT>
-1

> <PUBCHEM_COORDINATE_TYPE>
1
5
255

> <PUBCHEM_BONDANNOTATIONS>
11  13  8
11  15  8
13  16  8
15  18  8
16  19  8
17  20  8
17  21  8
18  19  8
20  23  8
21  24  8
23  25  8
24  25  8

$$$$
