126535034
  -OEChem-09292322372D

 58 62  0     1  0  0  0  0  0999 V2000
    5.2946   -3.3692    0.0000 Cl  0  0  0  0  0  0  0  0  0  0  0  0
    2.0000   -2.2988    0.0000 Cl  0  0  0  0  0  0  0  0  0  0  0  0
   10.0552    2.5602    0.0000 S   0  0  0  0  0  0  0  0  0  0  0  0
   13.4031    0.4724    0.0000 O   0  0  0  0  0  0  0  0  0  0  0  0
    4.5743    0.0192    0.0000 N   0  0  3  0  0  0  0  0  0  0  0  0
    7.0552    0.8282    0.0000 N   0  0  3  0  0  0  0  0  0  0  0  0
   11.6430    1.7512    0.0000 N   0  0  0  0  0  0  0  0  0  0  0  0
   11.6430    3.3692    0.0000 N   0  0  0  0  0  0  0  0  0  0  0  0
   12.5941    3.0602    0.0000 N   0  0  0  0  0  0  0  0  0  0  0  0
   14.9419    0.9724    0.0000 N   0  0  0  0  0  0  0  0  0  0  0  0
    5.5254    1.3282    0.0000 C   0  0  3  0  0  0  0  0  0  0  0  0
    5.5254    0.3282    0.0000 C   0  0  3  0  0  0  0  0  0  0  0  0
    6.4716    1.6329    0.0000 C   0  0  0  0  0  0  0  0  0  0  0  0
    4.5743    1.6372    0.0000 C   0  0  0  0  0  0  0  0  0  0  0  0
    6.4716    0.0234    0.0000 C   0  0  0  0  0  0  0  0  0  0  0  0
    3.9865    0.8282    0.0000 C   0  0  0  0  0  0  0  0  0  0  0  0
    8.0552    0.8282    0.0000 C   0  0  0  0  0  0  0  0  0  0  0  0
    4.2653   -0.9319    0.0000 C   0  0  0  0  0  0  0  0  0  0  0  0
    8.5552    1.6942    0.0000 C   0  0  0  0  0  0  0  0  0  0  0  0
    3.2872   -1.1398    0.0000 C   0  0  0  0  0  0  0  0  0  0  0  0
    4.9344   -1.6750    0.0000 C   0  0  0  0  0  0  0  0  0  0  0  0
    9.5552    1.6942    0.0000 C   0  0  0  0  0  0  0  0  0  0  0  0
    4.6254   -2.6261    0.0000 C   0  0  0  0  0  0  0  0  0  0  0  0
    2.9782   -2.0909    0.0000 C   0  0  0  0  0  0  0  0  0  0  0  0
    3.6473   -2.8340    0.0000 C   0  0  0  0  0  0  0  0  0  0  0  0
   11.0552    2.5602    0.0000 C   0  0  0  0  0  0  0  0  0  0  0  0
   12.5941    2.0602    0.0000 C   0  0  0  0  0  0  0  0  0  0  0  0
   11.3340    0.8002    0.0000 C   0  0  0  0  0  0  0  0  0  0  0  0
   13.4031    1.4724    0.0000 C   0  0  0  0  0  0  0  0  0  0  0  0
   14.3541    1.7815    0.0000 C   0  0  0  0  0  0  0  0  0  0  0  0
   14.6631    2.7325    0.0000 C   0  0  0  0  0  0  0  0  0  0  0  0
   14.3541    0.1634    0.0000 C   0  0  0  0  0  0  0  0  0  0  0  0
    5.5262    1.9482    0.0000 H   0  0  0  0  0  0  0  0  0  0  0  0
    5.5262   -0.2918    0.0000 H   0  0  0  0  0  0  0  0  0  0  0  0
    7.0090    1.9421    0.0000 H   0  0  0  0  0  0  0  0  0  0  0  0
    6.2206    2.1998    0.0000 H   0  0  0  0  0  0  0  0  0  0  0  0
    4.8265    2.2036    0.0000 H   0  0  0  0  0  0  0  0  0  0  0  0
    4.0374    1.9472    0.0000 H   0  0  0  0  0  0  0  0  0  0  0  0
    6.2206   -0.5435    0.0000 H   0  0  0  0  0  0  0  0  0  0  0  0
    7.0090   -0.2858    0.0000 H   0  0  0  0  0  0  0  0  0  0  0  0
    3.5258    1.2430    0.0000 H   0  0  0  0  0  0  0  0  0  0  0  0
    3.5258    0.4133    0.0000 H   0  0  0  0  0  0  0  0  0  0  0  0
    7.9476    0.2176    0.0000 H   0  0  0  0  0  0  0  0  0  0  0  0
    8.6378    0.6161    0.0000 H   0  0  0  0  0  0  0  0  0  0  0  0
    8.6629    2.3048    0.0000 H   0  0  0  0  0  0  0  0  0  0  0  0
    7.9726    1.9062    0.0000 H   0  0  0  0  0  0  0  0  0  0  0  0
    2.8723   -0.6791    0.0000 H   0  0  0  0  0  0  0  0  0  0  0  0
    5.5409   -1.5461    0.0000 H   0  0  0  0  0  0  0  0  0  0  0  0
    9.4476    1.0836    0.0000 H   0  0  0  0  0  0  0  0  0  0  0  0
   10.1378    1.4822    0.0000 H   0  0  0  0  0  0  0  0  0  0  0  0
    3.4557   -3.4237    0.0000 H   0  0  0  0  0  0  0  0  0  0  0  0
   10.7443    0.9917    0.0000 H   0  0  0  0  0  0  0  0  0  0  0  0
   11.1424    0.2105    0.0000 H   0  0  0  0  0  0  0  0  0  0  0  0
   11.9236    0.6086    0.0000 H   0  0  0  0  0  0  0  0  0  0  0  0
   15.2528    2.5409    0.0000 H   0  0  0  0  0  0  0  0  0  0  0  0
   14.8547    3.3222    0.0000 H   0  0  0  0  0  0  0  0  0  0  0  0
   14.0735    2.9241    0.0000 H   0  0  0  0  0  0  0  0  0  0  0  0
   14.5457   -0.4262    0.0000 H   0  0  0  0  0  0  0  0  0  0  0  0
  1 23  1  0  0  0  0
  2 24  1  0  0  0  0
  3 22  1  0  0  0  0
  3 26  1  0  0  0  0
  4 29  1  0  0  0  0
  4 32  1  0  0  0  0
  5 12  1  0  0  0  0
  5 16  1  0  0  0  0
  5 18  1  0  0  0  0
  6 13  1  0  0  0  0
  6 15  1  0  0  0  0
  6 17  1  0  0  0  0
  7 26  1  0  0  0  0
  7 27  1  0  0  0  0
  7 28  1  0  0  0  0
  8  9  1  0  0  0  0
  8 26  2  0  0  0  0
  9 27  2  0  0  0  0
 10 30  1  0  0  0  0
 10 32  2  0  0  0  0
 11 12  1  0  0  0  0
 11 13  1  0  0  0  0
 11 14  1  0  0  0  0
 11 33  1  0  0  0  0
 12 15  1  0  0  0  0
 12 34  1  0  0  0  0
 13 35  1  0  0  0  0
 13 36  1  0  0  0  0
 14 16  1  0  0  0  0
 14 37  1  0  0  0  0
 14 38  1  0  0  0  0
 15 39  1  0  0  0  0
 15 40  1  0  0  0  0
 16 41  1  0  0  0  0
 16 42  1  0  0  0  0
 17 19  1  0  0  0  0
 17 43  1  0  0  0  0
 17 44  1  0  0  0  0
 18 20  2  0  0  0  0
 18 21  1  0  0  0  0
 19 22  1  0  0  0  0
 19 45  1  0  0  0  0
 19 46  1  0  0  0  0
 20 24  1  0  0  0  0
 20 47  1  0  0  0  0
 21 23  2  0  0  0  0
 21 48  1  0  0  0  0
 22 49  1  0  0  0  0
 22 50  1  0  0  0  0
 23 25  1  0  0  0  0
 24 25  2  0  0  0  0
 25 51  1  0  0  0  0
 27 29  1  0  0  0  0
 28 52  1  0  0  0  0
 28 53  1  0  0  0  0
 28 54  1  0  0  0  0
 29 30  2  0  0  0  0
 30 31  1  0  0  0  0
 31 55  1  0  0  0  0
 31 56  1  0  0  0  0
 31 57  1  0  0  0  0
 32 58  1  0  0  0  0
M  END
> <PUBCHEM_COMPOUND_CID>
126535034

> <PUBCHEM_COMPOUND_CANONICALIZED>
1

> <PUBCHEM_CACTVS_COMPLEXITY>
627

> <PUBCHEM_CACTVS_HBOND_ACCEPTOR>
7

> <PUBCHEM_CACTVS_HBOND_DONOR>
0

> <PUBCHEM_CACTVS_ROTATABLE_BOND>
7

> <PUBCHEM_CACTVS_SUBSKEYS>
AAADceB7oABGAAAAAAAAAAAAAAAAAWLFiwAwAAAAAAAWAAAB8AAAHgYIAAAADS7F1ya31JcMFEiqAaZz9ASS2Ct7Z7AV2CG9ZpiOaCLl27GdIChgjALYyAcQAAAKAAAAAAKAAAAAAAAABQAAAAAAAAAAAA==

> <PUBCHEM_IUPAC_OPENEYE_NAME>
5-[5-[3-[1-(3,5-dichlorophenyl)-2,3,3a,4,6,6a-hexahydropyrrolo[2,3-c]pyrrol-5-yl]propylsulfanyl]-4-methyl-1,2,4-triazol-3-yl]-4-methyl-oxazole

> <PUBCHEM_IUPAC_CAS_NAME>
5-[5-[3-[1-(3,5-dichlorophenyl)-2,3,3a,4,6,6a-hexahydropyrrolo[2,3-c]pyrrol-5-yl]propylthio]-4-methyl-1,2,4-triazol-3-yl]-4-methyloxazole

> <PUBCHEM_IUPAC_NAME_MARKUP>
5-[5-[3-[1-(3,5-dichlorophenyl)-2,3,3<I>a</I>,4,6,6<I>a</I>-hexahydropyrrolo[2,3-c]pyrrol-5-yl]propylsulfanyl]-4-methyl-1,2,4-triazol-3-yl]-4-methyl-1,3-oxazole

> <PUBCHEM_IUPAC_NAME>
5-[5-[3-[1-(3,5-dichlorophenyl)-2,3,3a,4,6,6a-hexahydropyrrolo[2,3-c]pyrrol-5-yl]propylsulfanyl]-4-methyl-1,2,4-triazol-3-yl]-4-methyl-1,3-oxazole

> <PUBCHEM_IUPAC_SYSTEMATIC_NAME>
5-[5-[3-[1-[3,5-bis(chloranyl)phenyl]-2,3,3a,4,6,6a-hexahydropyrrolo[2,3-c]pyrrol-5-yl]propylsulfanyl]-4-methyl-1,2,4-triazol-3-yl]-4-methyl-1,3-oxazole

> <PUBCHEM_IUPAC_TRADITIONAL_NAME>
5-[5-[3-[1-(3,5-dichlorophenyl)-2,3,3a,4,6,6a-hexahydropyrrolo[2,3-c]pyrrol-5-yl]propylthio]-4-methyl-1,2,4-triazol-3-yl]-4-methyl-oxazole

> <PUBCHEM_IUPAC_INCHI>
InChI=1S/C22H26Cl2N6OS/c1-14-20(31-13-25-14)21-26-27-22(28(21)2)32-7-3-5-29-11-15-4-6-30(19(15)12-29)18-9-16(23)8-17(24)10-18/h8-10,13,15,19H,3-7,11-12H2,1-2H3

> <PUBCHEM_IUPAC_INCHIKEY>
JYMJYHGKDBZGLV-UHFFFAOYSA-N

> <PUBCHEM_XLOGP3_AA>
4.5

> <PUBCHEM_EXACT_MASS>
492.1265860

> <PUBCHEM_MOLECULAR_FORMULA>
C22H26Cl2N6OS

> <PUBCHEM_MOLECULAR_WEIGHT>
493.5

> <PUBCHEM_OPENEYE_CAN_SMILES>
CC1=C(OC=N1)C2=NN=C(N2C)SCCCN3CC4CCN(C4C3)C5=CC(=CC(=C5)Cl)Cl

> <PUBCHEM_OPENEYE_ISO_SMILES>
CC1=C(OC=N1)C2=NN=C(N2C)SCCCN3CC4CCN(C4C3)C5=CC(=CC(=C5)Cl)Cl

> <PUBCHEM_CACTVS_TPSA>
88.5

> <PUBCHEM_MONOISOTOPIC_WEIGHT>
492.1265860

> <PUBCHEM_TOTAL_CHARGE>
0

> <PUBCHEM_HEAVY_ATOM_COUNT>
32

> <PUBCHEM_ATOM_DEF_STEREO_COUNT>
0

> <PUBCHEM_ATOM_UDEF_STEREO_COUNT>
2

> <PUBCHEM_BOND_DEF_STEREO_COUNT>
0

> <PUBCHEM_BOND_UDEF_STEREO_COUNT>
0

> <PUBCHEM_ISOTOPIC_ATOM_COUNT>
0

> <PUBCHEM_COMPONENT_COUNT>
1

> <PUBCHEM_CACTVS_TAUTO_COUNT>
-1

> <PUBCHEM_COORDINATE_TYPE>
1
5
255

> <PUBCHEM_BONDANNOTATIONS>
10  30  8
10  32  8
11  14  3
12  15  3
18  20  8
18  21  8
20  24  8
21  23  8
23  25  8
24  25  8
29  30  8
4  29  8
4  32  8
7  26  8
7  27  8
8  26  8
8  9  8
9  27  8

$$$$
