44336105
  -OEChem-09292322162D

 62 65  0     1  0  0  0  0  0999 V2000
   11.1241   -3.8912    0.0000 Cl  0  0  0  0  0  0  0  0  0  0  0  0
    4.3211    0.1977    0.0000 O   0  0  0  0  0  0  0  0  0  0  0  0
    4.6783    1.8925    0.0000 N   0  0  0  0  0  0  0  0  0  0  0  0
    6.2781   -0.2148    0.0000 N   0  0  0  0  0  0  0  0  0  0  0  0
    6.8994   -2.1158    0.0000 N   0  0  0  0  0  0  0  0  0  0  0  0
    5.2619    2.6972    0.0000 C   0  0  3  0  0  0  0  0  0  0  0  0
    4.6783    3.5020    0.0000 C   0  0  0  0  0  0  0  0  0  0  0  0
    6.2619    2.6972    0.0000 C   0  0  0  0  0  0  0  0  0  0  0  0
    3.7320    3.1972    0.0000 C   0  0  0  0  0  0  0  0  0  0  0  0
    3.7320    2.1972    0.0000 C   0  0  0  0  0  0  0  0  0  0  0  0
    6.7619    3.5633    0.0000 C   0  0  0  0  0  0  0  0  0  0  0  0
    5.9674    0.7358    0.0000 C   0  0  0  0  0  0  0  0  0  0  0  0
    4.9889    0.9420    0.0000 C   0  0  0  0  0  0  0  0  0  0  0  0
    7.2566   -0.4210    0.0000 C   0  0  0  0  0  0  0  0  0  0  0  0
    5.6103   -0.9591    0.0000 C   0  0  0  0  0  0  0  0  0  0  0  0
    7.5673   -1.3715    0.0000 C   0  0  0  0  0  0  0  0  0  0  0  0
    5.9209   -1.9096    0.0000 C   0  0  0  0  0  0  0  0  0  0  0  0
    2.8660    3.6972    0.0000 C   0  0  0  0  0  0  0  0  0  0  0  0
    2.8660    1.6972    0.0000 C   0  0  0  0  0  0  0  0  0  0  0  0
    7.7619    3.5633    0.0000 C   0  0  0  0  0  0  0  0  0  0  0  0
    6.2619    4.4293    0.0000 C   0  0  0  0  0  0  0  0  0  0  0  0
    7.2101   -3.0663    0.0000 C   0  0  0  0  0  0  0  0  0  0  0  0
    2.0000    3.1972    0.0000 C   0  0  0  0  0  0  0  0  0  0  0  0
    2.0000    2.1972    0.0000 C   0  0  0  0  0  0  0  0  0  0  0  0
    8.1886   -3.2725    0.0000 C   0  0  0  0  0  0  0  0  0  0  0  0
    8.8564   -2.5282    0.0000 C   0  0  0  0  0  0  0  0  0  0  0  0
    8.4993   -4.2231    0.0000 C   0  0  0  0  0  0  0  0  0  0  0  0
    9.8349   -2.7345    0.0000 C   0  0  0  0  0  0  0  0  0  0  0  0
    9.4778   -4.4293    0.0000 C   0  0  0  0  0  0  0  0  0  0  0  0
   10.1456   -3.6850    0.0000 C   0  0  0  0  0  0  0  0  0  0  0  0
    5.5436    2.1449    0.0000 H   0  0  0  0  0  0  0  0  0  0  0  0
    5.2156    3.8112    0.0000 H   0  0  0  0  0  0  0  0  0  0  0  0
    4.4272    4.0689    0.0000 H   0  0  0  0  0  0  0  0  0  0  0  0
    6.1542    2.0866    0.0000 H   0  0  0  0  0  0  0  0  0  0  0  0
    6.8445    2.4852    0.0000 H   0  0  0  0  0  0  0  0  0  0  0  0
    6.1419    3.5633    0.0000 H   0  0  0  0  0  0  0  0  0  0  0  0
    6.5812    0.8231    0.0000 H   0  0  0  0  0  0  0  0  0  0  0  0
    5.9880    1.3554    0.0000 H   0  0  0  0  0  0  0  0  0  0  0  0
    7.8704   -0.3336    0.0000 H   0  0  0  0  0  0  0  0  0  0  0  0
    7.2772    0.1987    0.0000 H   0  0  0  0  0  0  0  0  0  0  0  0
    5.2277   -0.4712    0.0000 H   0  0  0  0  0  0  0  0  0  0  0  0
    5.0633   -1.2511    0.0000 H   0  0  0  0  0  0  0  0  0  0  0  0
    7.9498   -1.8594    0.0000 H   0  0  0  0  0  0  0  0  0  0  0  0
    8.1142   -1.0795    0.0000 H   0  0  0  0  0  0  0  0  0  0  0  0
    5.3071   -1.9969    0.0000 H   0  0  0  0  0  0  0  0  0  0  0  0
    5.9004   -2.5292    0.0000 H   0  0  0  0  0  0  0  0  0  0  0  0
    2.8660    4.3172    0.0000 H   0  0  0  0  0  0  0  0  0  0  0  0
    2.8660    1.0772    0.0000 H   0  0  0  0  0  0  0  0  0  0  0  0
    7.7619    2.9433    0.0000 H   0  0  0  0  0  0  0  0  0  0  0  0
    8.3819    3.5633    0.0000 H   0  0  0  0  0  0  0  0  0  0  0  0
    7.7619    4.1833    0.0000 H   0  0  0  0  0  0  0  0  0  0  0  0
    6.7988    4.7393    0.0000 H   0  0  0  0  0  0  0  0  0  0  0  0
    5.9519    4.9662    0.0000 H   0  0  0  0  0  0  0  0  0  0  0  0
    5.7249    4.1193    0.0000 H   0  0  0  0  0  0  0  0  0  0  0  0
    6.5963   -3.1537    0.0000 H   0  0  0  0  0  0  0  0  0  0  0  0
    7.1895   -3.6860    0.0000 H   0  0  0  0  0  0  0  0  0  0  0  0
    1.4631    3.5072    0.0000 H   0  0  0  0  0  0  0  0  0  0  0  0
    1.4631    1.8872    0.0000 H   0  0  0  0  0  0  0  0  0  0  0  0
    8.6638   -1.9389    0.0000 H   0  0  0  0  0  0  0  0  0  0  0  0
    8.0852   -4.6845    0.0000 H   0  0  0  0  0  0  0  0  0  0  0  0
   10.2490   -2.2730    0.0000 H   0  0  0  0  0  0  0  0  0  0  0  0
    9.6704   -5.0186    0.0000 H   0  0  0  0  0  0  0  0  0  0  0  0
  1 30  1  0  0  0  0
  2 13  2  0  0  0  0
  3  6  1  0  0  0  0
  3 10  1  0  0  0  0
  3 13  1  0  0  0  0
  4 12  1  0  0  0  0
  4 14  1  0  0  0  0
  4 15  1  0  0  0  0
  5 16  1  0  0  0  0
  5 17  1  0  0  0  0
  5 22  1  0  0  0  0
  6  7  1  0  0  0  0
  6  8  1  0  0  0  0
  6 31  1  0  0  0  0
  7  9  1  0  0  0  0
  7 32  1  0  0  0  0
  7 33  1  0  0  0  0
  8 11  1  0  0  0  0
  8 34  1  0  0  0  0
  8 35  1  0  0  0  0
  9 10  1  0  0  0  0
  9 18  2  0  0  0  0
 10 19  2  0  0  0  0
 11 20  1  0  0  0  0
 11 21  1  0  0  0  0
 11 36  1  0  0  0  0
 12 13  1  0  0  0  0
 12 37  1  0  0  0  0
 12 38  1  0  0  0  0
 14 16  1  0  0  0  0
 14 39  1  0  0  0  0
 14 40  1  0  0  0  0
 15 17  1  0  0  0  0
 15 41  1  0  0  0  0
 15 42  1  0  0  0  0
 16 43  1  0  0  0  0
 16 44  1  0  0  0  0
 17 45  1  0  0  0  0
 17 46  1  0  0  0  0
 18 23  1  0  0  0  0
 18 47  1  0  0  0  0
 19 24  1  0  0  0  0
 19 48  1  0  0  0  0
 20 49  1  0  0  0  0
 20 50  1  0  0  0  0
 20 51  1  0  0  0  0
 21 52  1  0  0  0  0
 21 53  1  0  0  0  0
 21 54  1  0  0  0  0
 22 25  1  0  0  0  0
 22 55  1  0  0  0  0
 22 56  1  0  0  0  0
 23 24  2  0  0  0  0
 23 57  1  0  0  0  0
 24 58  1  0  0  0  0
 25 26  2  0  0  0  0
 25 27  1  0  0  0  0
 26 28  1  0  0  0  0
 26 59  1  0  0  0  0
 27 29  2  0  0  0  0
 27 60  1  0  0  0  0
 28 30  2  0  0  0  0
 28 61  1  0  0  0  0
 29 30  1  0  0  0  0
 29 62  1  0  0  0  0
M  END
> <PUBCHEM_COMPOUND_CID>
44336105

> <PUBCHEM_COMPOUND_CANONICALIZED>
1

> <PUBCHEM_CACTVS_COMPLEXITY>
555

> <PUBCHEM_CACTVS_HBOND_ACCEPTOR>
3

> <PUBCHEM_CACTVS_HBOND_DONOR>
0

> <PUBCHEM_CACTVS_ROTATABLE_BOND>
6

> <PUBCHEM_CACTVS_SUBSKEYS>
AAADcfB7IAAEAAAAAAAAAAAAAAAAAWAAAAA8YIAAAAAAAFgBQAAAHgIAAAAADSrBmCQywIMAAACIAiVSUACCAAAhBwAIiACIZogIYCLBk7GUIAhghgDIyAcQgMAOBAAAAAACAAAIAAAAAAQAAAAAAAAAAA==

> <PUBCHEM_IUPAC_OPENEYE_NAME>
2-[4-[(4-chlorophenyl)methyl]piperazin-1-yl]-1-(2-isobutylindolin-1-yl)ethanone

> <PUBCHEM_IUPAC_CAS_NAME>
2-[4-[(4-chlorophenyl)methyl]-1-piperazinyl]-1-[2-(2-methylpropyl)-2,3-dihydroindol-1-yl]ethanone

> <PUBCHEM_IUPAC_NAME_MARKUP>
2-[4-[(4-chlorophenyl)methyl]piperazin-1-yl]-1-[2-(2-methylpropyl)-2,3-dihydroindol-1-yl]ethanone

> <PUBCHEM_IUPAC_NAME>
2-[4-[(4-chlorophenyl)methyl]piperazin-1-yl]-1-[2-(2-methylpropyl)-2,3-dihydroindol-1-yl]ethanone

> <PUBCHEM_IUPAC_SYSTEMATIC_NAME>
2-[4-[(4-chlorophenyl)methyl]piperazin-1-yl]-1-[2-(2-methylpropyl)-2,3-dihydroindol-1-yl]ethanone

> <PUBCHEM_IUPAC_TRADITIONAL_NAME>
2-[4-(4-chlorobenzyl)piperazino]-1-(2-isobutylindolin-1-yl)ethanone

> <PUBCHEM_IUPAC_INCHI>
InChI=1S/C25H32ClN3O/c1-19(2)15-23-16-21-5-3-4-6-24(21)29(23)25(30)18-28-13-11-27(12-14-28)17-20-7-9-22(26)10-8-20/h3-10,19,23H,11-18H2,1-2H3

> <PUBCHEM_IUPAC_INCHIKEY>
NPOJZRKINKCVTE-UHFFFAOYSA-N

> <PUBCHEM_XLOGP3_AA>
5.1

> <PUBCHEM_EXACT_MASS>
425.2233903

> <PUBCHEM_MOLECULAR_FORMULA>
C25H32ClN3O

> <PUBCHEM_MOLECULAR_WEIGHT>
426.0

> <PUBCHEM_OPENEYE_CAN_SMILES>
CC(C)CC1CC2=CC=CC=C2N1C(=O)CN3CCN(CC3)CC4=CC=C(C=C4)Cl

> <PUBCHEM_OPENEYE_ISO_SMILES>
CC(C)CC1CC2=CC=CC=C2N1C(=O)CN3CCN(CC3)CC4=CC=C(C=C4)Cl

> <PUBCHEM_CACTVS_TPSA>
26.8

> <PUBCHEM_MONOISOTOPIC_WEIGHT>
425.2233903

> <PUBCHEM_TOTAL_CHARGE>
0

> <PUBCHEM_HEAVY_ATOM_COUNT>
30

> <PUBCHEM_ATOM_DEF_STEREO_COUNT>
0

> <PUBCHEM_ATOM_UDEF_STEREO_COUNT>
1

> <PUBCHEM_BOND_DEF_STEREO_COUNT>
0

> <PUBCHEM_BOND_UDEF_STEREO_COUNT>
0

> <PUBCHEM_ISOTOPIC_ATOM_COUNT>
0

> <PUBCHEM_COMPONENT_COUNT>
1

> <PUBCHEM_CACTVS_TAUTO_COUNT>
-1

> <PUBCHEM_COORDINATE_TYPE>
1
5
255

> <PUBCHEM_BONDANNOTATIONS>
10  19  8
18  23  8
19  24  8
23  24  8
25  26  8
25  27  8
26  28  8
27  29  8
28  30  8
29  30  8
6  8  3
9  10  8
9  18  8

$$$$
