137642033
  -OEChem-09292322012D

 42 44  0     0  0  0  0  0  0999 V2000
    4.6260   -1.0603    0.0000 O   0  0  0  0  0  0  0  0  0  0  0  0
    2.8660   -4.0950    0.0000 O   0  0  0  0  0  0  0  0  0  0  0  0
    6.3961   -3.1192    0.0000 O   0  0  0  0  0  0  0  0  0  0  0  0
    2.8660    1.9050    0.0000 N   0  0  0  0  0  0  0  0  0  0  0  0
    2.8660   -0.0950    0.0000 N   0  0  0  0  0  0  0  0  0  0  0  0
    4.6260   -3.1297    0.0000 N   0  0  0  0  0  0  0  0  0  0  0  0
    2.0000    1.4050    0.0000 C   0  0  0  0  0  0  0  0  0  0  0  0
    3.7320    1.4050    0.0000 C   0  0  0  0  0  0  0  0  0  0  0  0
    2.0000    0.4050    0.0000 C   0  0  0  0  0  0  0  0  0  0  0  0
    3.7320    0.4050    0.0000 C   0  0  0  0  0  0  0  0  0  0  0  0
    2.8660    2.9050    0.0000 C   0  0  0  0  0  0  0  0  0  0  0  0
    2.8660   -1.0950    0.0000 C   0  0  0  0  0  0  0  0  0  0  0  0
    2.0000    3.4050    0.0000 C   0  0  0  0  0  0  0  0  0  0  0  0
    3.7320   -1.5950    0.0000 C   0  0  0  0  0  0  0  0  0  0  0  0
    2.0000   -1.5950    0.0000 C   0  0  0  0  0  0  0  0  0  0  0  0
    3.7320   -2.5950    0.0000 C   0  0  0  0  0  0  0  0  0  0  0  0
    2.0000    4.4050    0.0000 C   0  0  0  0  0  0  0  0  0  0  0  0
    2.0000   -2.5950    0.0000 C   0  0  0  0  0  0  0  0  0  0  0  0
    2.8660   -3.0950    0.0000 C   0  0  0  0  0  0  0  0  0  0  0  0
    5.5321   -1.5742    0.0000 C   0  0  0  0  0  0  0  0  0  0  0  0
    5.5321   -2.6158    0.0000 C   0  0  0  0  0  0  0  0  0  0  0  0
    1.7880    1.9876    0.0000 H   0  0  0  0  0  0  0  0  0  0  0  0
    1.3894    1.2973    0.0000 H   0  0  0  0  0  0  0  0  0  0  0  0
    4.3426    1.2973    0.0000 H   0  0  0  0  0  0  0  0  0  0  0  0
    3.9441    1.9876    0.0000 H   0  0  0  0  0  0  0  0  0  0  0  0
    1.3894    0.5127    0.0000 H   0  0  0  0  0  0  0  0  0  0  0  0
    1.7880   -0.1776    0.0000 H   0  0  0  0  0  0  0  0  0  0  0  0
    3.9441   -0.1776    0.0000 H   0  0  0  0  0  0  0  0  0  0  0  0
    4.3426    0.5127    0.0000 H   0  0  0  0  0  0  0  0  0  0  0  0
    3.4766    2.7973    0.0000 H   0  0  0  0  0  0  0  0  0  0  0  0
    3.0781    3.4876    0.0000 H   0  0  0  0  0  0  0  0  0  0  0  0
    1.3894    3.5127    0.0000 H   0  0  0  0  0  0  0  0  0  0  0  0
    1.7880    2.8224    0.0000 H   0  0  0  0  0  0  0  0  0  0  0  0
    1.4631   -1.2850    0.0000 H   0  0  0  0  0  0  0  0  0  0  0  0
    2.6200    4.4050    0.0000 H   0  0  0  0  0  0  0  0  0  0  0  0
    2.0000    5.0250    0.0000 H   0  0  0  0  0  0  0  0  0  0  0  0
    1.3800    4.4050    0.0000 H   0  0  0  0  0  0  0  0  0  0  0  0
    1.4631   -2.9050    0.0000 H   0  0  0  0  0  0  0  0  0  0  0  0
    4.6188   -3.7496    0.0000 H   0  0  0  0  0  0  0  0  0  0  0  0
    6.1429   -1.6803    0.0000 H   0  0  0  0  0  0  0  0  0  0  0  0
    5.7411   -0.9905    0.0000 H   0  0  0  0  0  0  0  0  0  0  0  0
    2.3291   -4.4050    0.0000 H   0  0  0  0  0  0  0  0  0  0  0  0
  1 14  1  0  0  0  0
  1 20  1  0  0  0  0
  2 19  1  0  0  0  0
  2 42  1  0  0  0  0
  3 21  2  0  0  0  0
  4  7  1  0  0  0  0
  4  8  1  0  0  0  0
  4 11  1  0  0  0  0
  5  9  1  0  0  0  0
  5 10  1  0  0  0  0
  5 12  1  0  0  0  0
  6 16  1  0  0  0  0
  6 21  1  0  0  0  0
  6 39  1  0  0  0  0
  7  9  1  0  0  0  0
  7 22  1  0  0  0  0
  7 23  1  0  0  0  0
  8 10  1  0  0  0  0
  8 24  1  0  0  0  0
  8 25  1  0  0  0  0
  9 26  1  0  0  0  0
  9 27  1  0  0  0  0
 10 28  1  0  0  0  0
 10 29  1  0  0  0  0
 11 13  1  0  0  0  0
 11 30  1  0  0  0  0
 11 31  1  0  0  0  0
 12 14  2  0  0  0  0
 12 15  1  0  0  0  0
 13 17  1  0  0  0  0
 13 32  1  0  0  0  0
 13 33  1  0  0  0  0
 14 16  1  0  0  0  0
 15 18  2  0  0  0  0
 15 34  1  0  0  0  0
 16 19  2  0  0  0  0
 17 35  1  0  0  0  0
 17 36  1  0  0  0  0
 17 37  1  0  0  0  0
 18 19  1  0  0  0  0
 18 38  1  0  0  0  0
 20 21  1  0  0  0  0
 20 40  1  0  0  0  0
 20 41  1  0  0  0  0
M  END
> <PUBCHEM_COMPOUND_CID>
137642033

> <PUBCHEM_COMPOUND_CANONICALIZED>
1

> <PUBCHEM_CACTVS_COMPLEXITY>
371

> <PUBCHEM_CACTVS_HBOND_ACCEPTOR>
5

> <PUBCHEM_CACTVS_HBOND_DONOR>
2

> <PUBCHEM_CACTVS_ROTATABLE_BOND>
3

> <PUBCHEM_CACTVS_SUBSKEYS>
AAADceBzMAAAAAAAAAAAAAAAAAAAAAAAAAA8WIAAAAAAAACxAAAAHgAQCAAACAzhkAYyxoPABgCIACVSUAKCCAAhIgAIiABPbIgOZyLW8N+XeCjl1BXY+AewYAwAAEAACAQAEAAAgAAQCAAgAAAAAAAAAA==

> <PUBCHEM_IUPAC_OPENEYE_NAME>
5-hydroxy-8-(4-propylpiperazin-1-yl)-4H-1,4-benzoxazin-3-one

> <PUBCHEM_IUPAC_CAS_NAME>
5-hydroxy-8-(4-propyl-1-piperazinyl)-4H-1,4-benzoxazin-3-one

> <PUBCHEM_IUPAC_NAME_MARKUP>
5-hydroxy-8-(4-propylpiperazin-1-yl)-4<I>H</I>-1,4-benzoxazin-3-one

> <PUBCHEM_IUPAC_NAME>
5-hydroxy-8-(4-propylpiperazin-1-yl)-4H-1,4-benzoxazin-3-one

> <PUBCHEM_IUPAC_SYSTEMATIC_NAME>
5-oxidanyl-8-(4-propylpiperazin-1-yl)-4H-1,4-benzoxazin-3-one

> <PUBCHEM_IUPAC_TRADITIONAL_NAME>
5-hydroxy-8-(4-propylpiperazino)-4H-1,4-benzoxazin-3-one

> <PUBCHEM_IUPAC_INCHI>
InChI=1S/C15H21N3O3/c1-2-5-17-6-8-18(9-7-17)11-3-4-12(19)14-15(11)21-10-13(20)16-14/h3-4,19H,2,5-10H2,1H3,(H,16,20)

> <PUBCHEM_IUPAC_INCHIKEY>
JNRGVRLFICIPND-UHFFFAOYSA-N

> <PUBCHEM_XLOGP3_AA>
1.3

> <PUBCHEM_EXACT_MASS>
291.15829154

> <PUBCHEM_MOLECULAR_FORMULA>
C15H21N3O3

> <PUBCHEM_MOLECULAR_WEIGHT>
291.35

> <PUBCHEM_OPENEYE_CAN_SMILES>
CCCN1CCN(CC1)C2=C3C(=C(C=C2)O)NC(=O)CO3

> <PUBCHEM_OPENEYE_ISO_SMILES>
CCCN1CCN(CC1)C2=C3C(=C(C=C2)O)NC(=O)CO3

> <PUBCHEM_CACTVS_TPSA>
65

> <PUBCHEM_MONOISOTOPIC_WEIGHT>
291.15829154

> <PUBCHEM_TOTAL_CHARGE>
0

> <PUBCHEM_HEAVY_ATOM_COUNT>
21

> <PUBCHEM_ATOM_DEF_STEREO_COUNT>
0

> <PUBCHEM_ATOM_UDEF_STEREO_COUNT>
0

> <PUBCHEM_BOND_DEF_STEREO_COUNT>
0

> <PUBCHEM_BOND_UDEF_STEREO_COUNT>
0

> <PUBCHEM_ISOTOPIC_ATOM_COUNT>
0

> <PUBCHEM_COMPONENT_COUNT>
1

> <PUBCHEM_CACTVS_TAUTO_COUNT>
-1

> <PUBCHEM_COORDINATE_TYPE>
1
5
255

> <PUBCHEM_BONDANNOTATIONS>
12  14  8
12  15  8
14  16  8
15  18  8
16  19  8
18  19  8

$$$$
