11076818
  -OEChem-09292322112D

 39 40  0     1  0  0  0  0  0999 V2000
    2.8090    1.6720    0.0000 S   0  0  0  0  0  0  0  0  0  0  0  0
    6.9258   -3.2109    0.0000 S   0  0  0  0  0  0  0  0  0  0  0  0
    5.7281    0.6636    0.0000 N   0  0  3  0  0  0  0  0  0  0  0  0
    5.9360   -0.3145    0.0000 C   0  0  0  0  0  0  0  0  0  0  0  0
    4.7770    0.9726    0.0000 C   0  0  0  0  0  0  0  0  0  0  0  0
    6.4712    1.3328    0.0000 C   0  0  0  0  0  0  0  0  0  0  0  0
    6.8870   -0.6235    0.0000 C   0  0  0  0  0  0  0  0  0  0  0  0
    4.5691    1.9508    0.0000 C   0  0  0  0  0  0  0  0  0  0  0  0
    7.4223    1.0237    0.0000 C   0  0  0  0  0  0  0  0  0  0  0  0
    7.0949   -1.6017    0.0000 C   0  0  0  0  0  0  0  0  0  0  0  0
    3.6180    2.2598    0.0000 C   0  0  0  0  0  0  0  0  0  0  0  0
    8.1654    1.6929    0.0000 C   0  0  0  0  0  0  0  0  0  0  0  0
    8.0085   -2.0084    0.0000 C   0  0  0  0  0  0  0  0  0  0  0  0
    6.4258   -2.3448    0.0000 C   0  0  0  0  0  0  0  0  0  0  0  0
    3.3090    3.2109    0.0000 C   0  0  0  0  0  0  0  0  0  0  0  0
    7.9040   -3.0029    0.0000 C   0  0  0  0  0  0  0  0  0  0  0  0
    2.3090    3.2109    0.0000 C   0  0  0  0  0  0  0  0  0  0  0  0
    2.0000    2.2598    0.0000 C   0  0  0  0  0  0  0  0  0  0  0  0
    5.3164   -0.3362    0.0000 H   0  0  0  0  0  0  0  0  0  0  0  0
    5.8497   -0.9285    0.0000 H   0  0  0  0  0  0  0  0  0  0  0  0
    4.1574    0.9510    0.0000 H   0  0  0  0  0  0  0  0  0  0  0  0
    4.6907    0.3587    0.0000 H   0  0  0  0  0  0  0  0  0  0  0  0
    6.7623    1.8802    0.0000 H   0  0  0  0  0  0  0  0  0  0  0  0
    5.9826    1.7145    0.0000 H   0  0  0  0  0  0  0  0  0  0  0  0
    7.5066   -0.6019    0.0000 H   0  0  0  0  0  0  0  0  0  0  0  0
    6.9733   -0.0096    0.0000 H   0  0  0  0  0  0  0  0  0  0  0  0
    5.1887    1.9724    0.0000 H   0  0  0  0  0  0  0  0  0  0  0  0
    4.6554    2.5648    0.0000 H   0  0  0  0  0  0  0  0  0  0  0  0
    7.1312    0.4763    0.0000 H   0  0  0  0  0  0  0  0  0  0  0  0
    7.9108    0.6420    0.0000 H   0  0  0  0  0  0  0  0  0  0  0  0
    8.5803    1.2321    0.0000 H   0  0  0  0  0  0  0  0  0  0  0  0
    8.6262    2.1077    0.0000 H   0  0  0  0  0  0  0  0  0  0  0  0
    7.7505    2.1536    0.0000 H   0  0  0  0  0  0  0  0  0  0  0  0
    8.5454   -1.6984    0.0000 H   0  0  0  0  0  0  0  0  0  0  0  0
    5.8092   -2.2800    0.0000 H   0  0  0  0  0  0  0  0  0  0  0  0
    3.6734    3.7124    0.0000 H   0  0  0  0  0  0  0  0  0  0  0  0
    8.3647   -3.4178    0.0000 H   0  0  0  0  0  0  0  0  0  0  0  0
    1.9446    3.7124    0.0000 H   0  0  0  0  0  0  0  0  0  0  0  0
    1.4103    2.0682    0.0000 H   0  0  0  0  0  0  0  0  0  0  0  0
  1 11  1  0  0  0  0
  1 18  1  0  0  0  0
  2 14  1  0  0  0  0
  2 16  1  0  0  0  0
  3  4  1  0  0  0  0
  3  5  1  0  0  0  0
  3  6  1  0  0  0  0
  4  7  1  0  0  0  0
  4 19  1  0  0  0  0
  4 20  1  0  0  0  0
  5  8  1  0  0  0  0
  5 21  1  0  0  0  0
  5 22  1  0  0  0  0
  6  9  1  0  0  0  0
  6 23  1  0  0  0  0
  6 24  1  0  0  0  0
  7 10  1  0  0  0  0
  7 25  1  0  0  0  0
  7 26  1  0  0  0  0
  8 11  1  0  0  0  0
  8 27  1  0  0  0  0
  8 28  1  0  0  0  0
  9 12  1  0  0  0  0
  9 29  1  0  0  0  0
  9 30  1  0  0  0  0
 10 13  1  0  0  0  0
 10 14  2  0  0  0  0
 11 15  2  0  0  0  0
 12 31  1  0  0  0  0
 12 32  1  0  0  0  0
 12 33  1  0  0  0  0
 13 16  2  0  0  0  0
 13 34  1  0  0  0  0
 14 35  1  0  0  0  0
 15 17  1  0  0  0  0
 15 36  1  0  0  0  0
 16 37  1  0  0  0  0
 17 18  2  0  0  0  0
 17 38  1  0  0  0  0
 18 39  1  0  0  0  0
M  END
> <PUBCHEM_COMPOUND_CID>
11076818

> <PUBCHEM_COMPOUND_CANONICALIZED>
1

> <PUBCHEM_CACTVS_COMPLEXITY>
223

> <PUBCHEM_CACTVS_HBOND_ACCEPTOR>
3

> <PUBCHEM_CACTVS_HBOND_DONOR>
0

> <PUBCHEM_CACTVS_ROTATABLE_BOND>
8

> <PUBCHEM_CACTVS_SUBSKEYS>
AAADceByAABgAAAAAAAAAAAAAAAAASJAAAAAAAAAAAAAAAAB4AAAHAQAAAAADADFWASyAYMAAAiEAiBCAAADAIAgCBBIiBgIAIgIICKgkRGEAAAggACoiAcQAAAKAAAAAAAAAAAAAAAAAAAAAAAAAAAAAA==

> <PUBCHEM_IUPAC_OPENEYE_NAME>
N-[2-(2-thienyl)ethyl]-N-[2-(3-thienyl)ethyl]propan-1-amine

> <PUBCHEM_IUPAC_CAS_NAME>
N-(2-thiophen-2-ylethyl)-N-[2-(3-thiophenyl)ethyl]-1-propanamine

> <PUBCHEM_IUPAC_NAME_MARKUP>
<I>N</I>-(2-thiophen-2-ylethyl)-<I>N</I>-(2-thiophen-3-ylethyl)propan-1-amine

> <PUBCHEM_IUPAC_NAME>
N-(2-thiophen-2-ylethyl)-N-(2-thiophen-3-ylethyl)propan-1-amine

> <PUBCHEM_IUPAC_SYSTEMATIC_NAME>
N-(2-thiophen-2-ylethyl)-N-(2-thiophen-3-ylethyl)propan-1-amine

> <PUBCHEM_IUPAC_TRADITIONAL_NAME>
propyl-[2-(2-thienyl)ethyl]-[2-(3-thienyl)ethyl]amine

> <PUBCHEM_IUPAC_INCHI>
InChI=1S/C15H21NS2/c1-2-8-16(9-5-14-7-12-17-13-14)10-6-15-4-3-11-18-15/h3-4,7,11-13H,2,5-6,8-10H2,1H3

> <PUBCHEM_IUPAC_INCHIKEY>
VTSGZNIOFXBPQI-UHFFFAOYSA-N

> <PUBCHEM_XLOGP3_AA>
4.5

> <PUBCHEM_EXACT_MASS>
279.11154202

> <PUBCHEM_MOLECULAR_FORMULA>
C15H21NS2

> <PUBCHEM_MOLECULAR_WEIGHT>
279.5

> <PUBCHEM_OPENEYE_CAN_SMILES>
CCCN(CCC1=CSC=C1)CCC2=CC=CS2

> <PUBCHEM_OPENEYE_ISO_SMILES>
CCCN(CCC1=CSC=C1)CCC2=CC=CS2

> <PUBCHEM_CACTVS_TPSA>
59.7

> <PUBCHEM_MONOISOTOPIC_WEIGHT>
279.11154202

> <PUBCHEM_TOTAL_CHARGE>
0

> <PUBCHEM_HEAVY_ATOM_COUNT>
18

> <PUBCHEM_ATOM_DEF_STEREO_COUNT>
0

> <PUBCHEM_ATOM_UDEF_STEREO_COUNT>
0

> <PUBCHEM_BOND_DEF_STEREO_COUNT>
0

> <PUBCHEM_BOND_UDEF_STEREO_COUNT>
0

> <PUBCHEM_ISOTOPIC_ATOM_COUNT>
0

> <PUBCHEM_COMPONENT_COUNT>
1

> <PUBCHEM_CACTVS_TAUTO_COUNT>
-1

> <PUBCHEM_COORDINATE_TYPE>
1
5
255

> <PUBCHEM_BONDANNOTATIONS>
1  11  8
1  18  8
10  13  8
10  14  8
11  15  8
13  16  8
15  17  8
17  18  8
2  14  8
2  16  8

$$$$
