118626089
  -OEChem-09292322082D

 65 70  0     1  0  0  0  0  0999 V2000
    4.6660    0.1766    0.0000 S   0  0  0  0  0  0  0  0  0  0  0  0
   13.2499    2.0543    0.0000 S   0  0  0  0  0  0  0  0  0  0  0  0
    5.6660    0.1766    0.0000 O   0  0  0  0  0  0  0  0  0  0  0  0
    3.6660    0.1766    0.0000 O   0  0  0  0  0  0  0  0  0  0  0  0
    4.6660    1.1766    0.0000 N   0  0  3  0  0  0  0  0  0  0  0  0
    8.1203    1.8155    0.0000 N   0  0  0  0  0  0  0  0  0  0  0  0
   10.0224    1.1975    0.0000 N   0  0  0  0  0  0  0  0  0  0  0  0
    5.5321   -2.3234    0.0000 N   0  0  0  0  0  0  0  0  0  0  0  0
    5.4751    1.7644    0.0000 C   0  0  1  0  0  0  0  0  0  0  0  0
    5.1660    2.7155    0.0000 C   0  0  0  0  0  0  0  0  0  0  0  0
    6.4261    1.4554    0.0000 C   0  0  0  0  0  0  0  0  0  0  0  0
    4.1660    2.7155    0.0000 C   0  0  0  0  0  0  0  0  0  0  0  0
    3.8570    1.7644    0.0000 C   0  0  0  0  0  0  0  0  0  0  0  0
    7.1692    2.1245    0.0000 C   0  0  0  0  0  0  0  0  0  0  0  0
    8.3282    0.8374    0.0000 C   0  0  0  0  0  0  0  0  0  0  0  0
    8.8634    2.4846    0.0000 C   0  0  0  0  0  0  0  0  0  0  0  0
    9.2793    0.5283    0.0000 C   0  0  0  0  0  0  0  0  0  0  0  0
    9.8145    2.1756    0.0000 C   0  0  0  0  0  0  0  0  0  0  0  0
    4.6660   -0.8234    0.0000 C   0  0  0  0  0  0  0  0  0  0  0  0
   10.9735    0.8885    0.0000 C   0  0  0  0  0  0  0  0  0  0  0  0
    3.8000   -1.3234    0.0000 C   0  0  0  0  0  0  0  0  0  0  0  0
    5.5321   -1.3234    0.0000 C   0  0  0  0  0  0  0  0  0  0  0  0
   11.7166    1.5576    0.0000 C   0  0  0  0  0  0  0  0  0  0  0  0
    3.8000   -2.3234    0.0000 C   0  0  0  0  0  0  0  0  0  0  0  0
   11.1814   -0.0897    0.0000 C   0  0  0  0  0  0  0  0  0  0  0  0
    2.9061   -0.7887    0.0000 C   0  0  0  0  0  0  0  0  0  0  0  0
   12.6677    1.2486    0.0000 C   0  0  0  0  0  0  0  0  0  0  0  0
    4.6660   -2.8234    0.0000 C   0  0  0  0  0  0  0  0  0  0  0  0
   11.7192    2.5517    0.0000 C   0  0  0  0  0  0  0  0  0  0  0  0
   12.1324   -0.3987    0.0000 C   0  0  0  0  0  0  0  0  0  0  0  0
   12.8756    0.2704    0.0000 C   0  0  0  0  0  0  0  0  0  0  0  0
    2.9061   -2.8580    0.0000 C   0  0  0  0  0  0  0  0  0  0  0  0
    2.0000   -1.3026    0.0000 C   0  0  0  0  0  0  0  0  0  0  0  0
   12.6649    2.8580    0.0000 C   0  0  0  0  0  0  0  0  0  0  0  0
    2.0000   -2.3442    0.0000 C   0  0  0  0  0  0  0  0  0  0  0  0
    5.5720    1.1520    0.0000 H   0  0  0  0  0  0  0  0  0  0  0  0
    5.7725    2.8444    0.0000 H   0  0  0  0  0  0  0  0  0  0  0  0
    5.1012    3.3321    0.0000 H   0  0  0  0  0  0  0  0  0  0  0  0
    6.1350    0.9080    0.0000 H   0  0  0  0  0  0  0  0  0  0  0  0
    6.9147    1.0737    0.0000 H   0  0  0  0  0  0  0  0  0  0  0  0
    4.2308    3.3321    0.0000 H   0  0  0  0  0  0  0  0  0  0  0  0
    3.5596    2.8444    0.0000 H   0  0  0  0  0  0  0  0  0  0  0  0
    3.2906    2.0166    0.0000 H   0  0  0  0  0  0  0  0  0  0  0  0
    3.5470    1.2275    0.0000 H   0  0  0  0  0  0  0  0  0  0  0  0
    7.4603    2.6720    0.0000 H   0  0  0  0  0  0  0  0  0  0  0  0
    6.6807    2.5062    0.0000 H   0  0  0  0  0  0  0  0  0  0  0  0
    7.7086    0.8157    0.0000 H   0  0  0  0  0  0  0  0  0  0  0  0
    8.2419    0.2234    0.0000 H   0  0  0  0  0  0  0  0  0  0  0  0
    9.1545    3.0321    0.0000 H   0  0  0  0  0  0  0  0  0  0  0  0
    8.3749    2.8664    0.0000 H   0  0  0  0  0  0  0  0  0  0  0  0
    8.9882   -0.0191    0.0000 H   0  0  0  0  0  0  0  0  0  0  0  0
    9.7678    0.1466    0.0000 H   0  0  0  0  0  0  0  0  0  0  0  0
   10.4341    2.1973    0.0000 H   0  0  0  0  0  0  0  0  0  0  0  0
    9.9008    2.7896    0.0000 H   0  0  0  0  0  0  0  0  0  0  0  0
    6.0690   -1.0134    0.0000 H   0  0  0  0  0  0  0  0  0  0  0  0
   10.7206   -0.5046    0.0000 H   0  0  0  0  0  0  0  0  0  0  0  0
    2.9132   -0.1688    0.0000 H   0  0  0  0  0  0  0  0  0  0  0  0
    4.6660   -3.4434    0.0000 H   0  0  0  0  0  0  0  0  0  0  0  0
   11.2182    2.9170    0.0000 H   0  0  0  0  0  0  0  0  0  0  0  0
   12.2614   -1.0052    0.0000 H   0  0  0  0  0  0  0  0  0  0  0  0
   13.4652    0.0788    0.0000 H   0  0  0  0  0  0  0  0  0  0  0  0
    2.9132   -3.4780    0.0000 H   0  0  0  0  0  0  0  0  0  0  0  0
    1.4643   -0.9905    0.0000 H   0  0  0  0  0  0  0  0  0  0  0  0
   12.8565    3.4477    0.0000 H   0  0  0  0  0  0  0  0  0  0  0  0
    1.4643   -2.6563    0.0000 H   0  0  0  0  0  0  0  0  0  0  0  0
  1  3  2  0  0  0  0
  1  4  2  0  0  0  0
  1  5  1  0  0  0  0
  1 19  1  0  0  0  0
  2 27  1  0  0  0  0
  2 34  1  0  0  0  0
  5  9  1  0  0  0  0
  5 13  1  0  0  0  0
  6 14  1  0  0  0  0
  6 15  1  0  0  0  0
  6 16  1  0  0  0  0
  7 17  1  0  0  0  0
  7 18  1  0  0  0  0
  7 20  1  0  0  0  0
  8 22  1  0  0  0  0
  8 28  2  0  0  0  0
  9 10  1  0  0  0  0
  9 11  1  1  0  0  0
  9 36  1  0  0  0  0
 10 12  1  0  0  0  0
 10 37  1  0  0  0  0
 10 38  1  0  0  0  0
 11 14  1  0  0  0  0
 11 39  1  0  0  0  0
 11 40  1  0  0  0  0
 12 13  1  0  0  0  0
 12 41  1  0  0  0  0
 12 42  1  0  0  0  0
 13 43  1  0  0  0  0
 13 44  1  0  0  0  0
 14 45  1  0  0  0  0
 14 46  1  0  0  0  0
 15 17  1  0  0  0  0
 15 47  1  0  0  0  0
 15 48  1  0  0  0  0
 16 18  1  0  0  0  0
 16 49  1  0  0  0  0
 16 50  1  0  0  0  0
 17 51  1  0  0  0  0
 17 52  1  0  0  0  0
 18 53  1  0  0  0  0
 18 54  1  0  0  0  0
 19 21  1  0  0  0  0
 19 22  2  0  0  0  0
 20 23  2  0  0  0  0
 20 25  1  0  0  0  0
 21 24  1  0  0  0  0
 21 26  2  0  0  0  0
 22 55  1  0  0  0  0
 23 27  1  0  0  0  0
 23 29  1  0  0  0  0
 24 28  1  0  0  0  0
 24 32  2  0  0  0  0
 25 30  2  0  0  0  0
 25 56  1  0  0  0  0
 26 33  1  0  0  0  0
 26 57  1  0  0  0  0
 27 31  2  0  0  0  0
 28 58  1  0  0  0  0
 29 34  2  0  0  0  0
 29 59  1  0  0  0  0
 30 31  1  0  0  0  0
 30 60  1  0  0  0  0
 31 61  1  0  0  0  0
 32 35  1  0  0  0  0
 32 62  1  0  0  0  0
 33 35  2  0  0  0  0
 33 63  1  0  0  0  0
 34 64  1  0  0  0  0
 35 65  1  0  0  0  0
M  END
> <PUBCHEM_COMPOUND_CID>
118626089

> <PUBCHEM_COMPOUND_CANONICALIZED>
1

> <PUBCHEM_CACTVS_COMPLEXITY>
813

> <PUBCHEM_CACTVS_HBOND_ACCEPTOR>
7

> <PUBCHEM_CACTVS_HBOND_DONOR>
0

> <PUBCHEM_CACTVS_ROTATABLE_BOND>
6

> <PUBCHEM_CACTVS_SUBSKEYS>
AAADceB7sABgAAAAAAAAAAAAAAAAAWJAAAA8eIEAAAAAAEix/gAAHAQAQAAADCjFWgS8wdMIEAqkAjRnRHDDgLAxCjBI2DwoZJgIYOLg0ZGUIAxggADoyAcQgIAOgAAAACAWAAAAAAAAQCwAAAAAAAAAAA==

> <PUBCHEM_IUPAC_OPENEYE_NAME>
4-[(2S)-2-[2-[4-(benzothiophen-4-yl)piperazin-1-yl]ethyl]pyrrolidin-1-yl]sulfonylisoquinoline

> <PUBCHEM_IUPAC_CAS_NAME>
4-[[(2S)-2-[2-[4-(1-benzothiophen-4-yl)-1-piperazinyl]ethyl]-1-pyrrolidinyl]sulfonyl]isoquinoline

> <PUBCHEM_IUPAC_NAME_MARKUP>
4-[(2<I>S</I>)-2-[2-[4-(1-benzothiophen-4-yl)piperazin-1-yl]ethyl]pyrrolidin-1-yl]sulfonylisoquinoline

> <PUBCHEM_IUPAC_NAME>
4-[(2S)-2-[2-[4-(1-benzothiophen-4-yl)piperazin-1-yl]ethyl]pyrrolidin-1-yl]sulfonylisoquinoline

> <PUBCHEM_IUPAC_SYSTEMATIC_NAME>
4-[(2S)-2-[2-[4-(1-benzothiophen-4-yl)piperazin-1-yl]ethyl]pyrrolidin-1-yl]sulfonylisoquinoline

> <PUBCHEM_IUPAC_TRADITIONAL_NAME>
4-[(2S)-2-[2-[4-(benzothiophen-4-yl)piperazino]ethyl]pyrrolidino]sulfonylisoquinoline

> <PUBCHEM_IUPAC_INCHI>
InChI=1S/C27H30N4O2S2/c32-35(33,27-20-28-19-21-5-1-2-7-23(21)27)31-12-4-6-22(31)10-13-29-14-16-30(17-15-29)25-8-3-9-26-24(25)11-18-34-26/h1-3,5,7-9,11,18-20,22H,4,6,10,12-17H2/t22-/m0/s1

> <PUBCHEM_IUPAC_INCHIKEY>
WFZGNCZPMNZWQB-QFIPXVFZSA-N

> <PUBCHEM_XLOGP3_AA>
4.8

> <PUBCHEM_EXACT_MASS>
506.18101856

> <PUBCHEM_MOLECULAR_FORMULA>
C27H30N4O2S2

> <PUBCHEM_MOLECULAR_WEIGHT>
506.7

> <PUBCHEM_OPENEYE_CAN_SMILES>
C1CC(N(C1)S(=O)(=O)C2=CN=CC3=CC=CC=C32)CCN4CCN(CC4)C5=C6C=CSC6=CC=C5

> <PUBCHEM_OPENEYE_ISO_SMILES>
C1C[C@H](N(C1)S(=O)(=O)C2=CN=CC3=CC=CC=C32)CCN4CCN(CC4)C5=C6C=CSC6=CC=C5

> <PUBCHEM_CACTVS_TPSA>
93.4

> <PUBCHEM_MONOISOTOPIC_WEIGHT>
506.18101856

> <PUBCHEM_TOTAL_CHARGE>
0

> <PUBCHEM_HEAVY_ATOM_COUNT>
35

> <PUBCHEM_ATOM_DEF_STEREO_COUNT>
1

> <PUBCHEM_ATOM_UDEF_STEREO_COUNT>
0

> <PUBCHEM_BOND_DEF_STEREO_COUNT>
0

> <PUBCHEM_BOND_UDEF_STEREO_COUNT>
0

> <PUBCHEM_ISOTOPIC_ATOM_COUNT>
0

> <PUBCHEM_COMPONENT_COUNT>
1

> <PUBCHEM_CACTVS_TAUTO_COUNT>
-1

> <PUBCHEM_COORDINATE_TYPE>
1
5
255

> <PUBCHEM_BONDANNOTATIONS>
19  21  8
19  22  8
2  27  8
2  34  8
20  23  8
20  25  8
21  24  8
21  26  8
23  27  8
23  29  8
24  28  8
24  32  8
25  30  8
26  33  8
27  31  8
29  34  8
30  31  8
32  35  8
33  35  8
8  22  8
8  28  8
9  11  5

$$$$
