11648990
  -OEChem-09292322492D

 66 71  0     1  0  0  0  0  0999 V2000
    5.1114    1.1945    0.0000 S   0  0  0  0  0  0  0  0  0  0  0  0
    2.0000   -6.0491    0.0000 O   0  0  0  0  0  0  0  0  0  0  0  0
    5.1114   -2.2696    0.0000 N   0  0  3  0  0  0  0  0  0  0  0  0
    2.4051   -6.9569    0.0000 N   0  0  0  0  0  0  0  0  0  0  0  0
    6.6059    2.1651    0.0000 N   0  0  0  0  0  0  0  0  0  0  0  0
    5.2046    2.9741    0.0000 N   0  0  0  0  0  0  0  0  0  0  0  0
    5.9478    3.6432    0.0000 N   0  0  0  0  0  0  0  0  0  0  0  0
    8.8702    5.9853    0.0000 N   0  0  0  0  0  0  0  0  0  0  0  0
    5.6649   -3.0792    0.0000 C   0  0  0  0  0  0  0  0  0  0  0  0
    4.1334   -2.1950    0.0000 C   0  0  0  0  0  0  0  0  0  0  0  0
    5.3796   -4.0176    0.0000 C   0  0  0  0  0  0  0  0  0  0  0  0
    3.4634   -2.9113    0.0000 C   0  0  0  0  0  0  0  0  0  0  0  0
    4.4691   -4.3821    0.0000 C   0  0  0  0  0  0  0  0  0  0  0  0
    3.6030   -3.8821    0.0000 C   0  0  0  0  0  0  0  0  0  0  0  0
    5.6114   -1.4036    0.0000 C   0  0  0  0  0  0  0  0  0  0  0  0
    5.1114   -0.5375    0.0000 C   0  0  0  0  0  0  0  0  0  0  0  0
    4.4691   -5.3821    0.0000 C   0  0  0  0  0  0  0  0  0  0  0  0
    2.7370   -4.3821    0.0000 C   0  0  0  0  0  0  0  0  0  0  0  0
    3.6030   -5.8821    0.0000 C   0  0  0  0  0  0  0  0  0  0  0  0
    2.7370   -5.3821    0.0000 C   0  0  0  0  0  0  0  0  0  0  0  0
    5.6114    0.3285    0.0000 C   0  0  0  0  0  0  0  0  0  0  0  0
    3.3938   -6.8539    0.0000 C   0  0  0  0  0  0  0  0  0  0  0  0
    4.0617   -7.5982    0.0000 C   0  0  0  0  0  0  0  0  0  0  0  0
    5.6114    2.0605    0.0000 C   0  0  0  0  0  0  0  0  0  0  0  0
    6.8138    3.1432    0.0000 C   0  0  0  0  0  0  0  0  0  0  0  0
    7.7273    3.5500    0.0000 C   0  0  0  0  0  0  0  0  0  0  0  0
    7.8318    4.5445    0.0000 C   0  0  0  0  0  0  0  0  0  0  0  0
    7.2750    1.4219    0.0000 C   0  0  0  0  0  0  0  0  0  0  0  0
    8.7454    4.9512    0.0000 C   0  0  0  0  0  0  0  0  0  0  0  0
    8.5363    2.9622    0.0000 C   0  0  0  0  0  0  0  0  0  0  0  0
    6.9798    5.1437    0.0000 C   0  0  0  0  0  0  0  0  0  0  0  0
    9.5544    4.3634    0.0000 C   0  0  0  0  0  0  0  0  0  0  0  0
    9.4499    3.3689    0.0000 C   0  0  0  0  0  0  0  0  0  0  0  0
    7.0807    6.1804    0.0000 C   0  0  0  0  0  0  0  0  0  0  0  0
    8.0323    6.6041    0.0000 C   0  0  0  0  0  0  0  0  0  0  0  0
    8.1407    7.5982    0.0000 C   0  0  0  0  0  0  0  0  0  0  0  0
    6.2028   -3.3875    0.0000 H   0  0  0  0  0  0  0  0  0  0  0  0
    6.0856   -2.6238    0.0000 H   0  0  0  0  0  0  0  0  0  0  0  0
    4.3175   -1.6029    0.0000 H   0  0  0  0  0  0  0  0  0  0  0  0
    3.5974   -1.8833    0.0000 H   0  0  0  0  0  0  0  0  0  0  0  0
    5.4756   -4.6301    0.0000 H   0  0  0  0  0  0  0  0  0  0  0  0
    5.9981   -4.0609    0.0000 H   0  0  0  0  0  0  0  0  0  0  0  0
    3.1167   -2.3973    0.0000 H   0  0  0  0  0  0  0  0  0  0  0  0
    2.8849   -3.1344    0.0000 H   0  0  0  0  0  0  0  0  0  0  0  0
    6.0863   -1.8021    0.0000 H   0  0  0  0  0  0  0  0  0  0  0  0
    6.0863   -1.0050    0.0000 H   0  0  0  0  0  0  0  0  0  0  0  0
    4.6364   -0.1390    0.0000 H   0  0  0  0  0  0  0  0  0  0  0  0
    4.6364   -0.9361    0.0000 H   0  0  0  0  0  0  0  0  0  0  0  0
    5.0060   -5.6921    0.0000 H   0  0  0  0  0  0  0  0  0  0  0  0
    2.2001   -4.0721    0.0000 H   0  0  0  0  0  0  0  0  0  0  0  0
    6.0863   -0.0700    0.0000 H   0  0  0  0  0  0  0  0  0  0  0  0
    6.0863    0.7270    0.0000 H   0  0  0  0  0  0  0  0  0  0  0  0
    3.6002   -8.0122    0.0000 H   0  0  0  0  0  0  0  0  0  0  0  0
    4.4757   -8.0596    0.0000 H   0  0  0  0  0  0  0  0  0  0  0  0
    4.5232   -7.1841    0.0000 H   0  0  0  0  0  0  0  0  0  0  0  0
    6.8142    1.0071    0.0000 H   0  0  0  0  0  0  0  0  0  0  0  0
    7.6899    0.9612    0.0000 H   0  0  0  0  0  0  0  0  0  0  0  0
    7.7358    1.8368    0.0000 H   0  0  0  0  0  0  0  0  0  0  0  0
    8.4715    2.3456    0.0000 H   0  0  0  0  0  0  0  0  0  0  0  0
    6.4164    4.8850    0.0000 H   0  0  0  0  0  0  0  0  0  0  0  0
   10.1208    4.6156    0.0000 H   0  0  0  0  0  0  0  0  0  0  0  0
    9.9515    3.0045    0.0000 H   0  0  0  0  0  0  0  0  0  0  0  0
    6.5777    6.5429    0.0000 H   0  0  0  0  0  0  0  0  0  0  0  0
    8.7570    7.5310    0.0000 H   0  0  0  0  0  0  0  0  0  0  0  0
    8.2078    8.2145    0.0000 H   0  0  0  0  0  0  0  0  0  0  0  0
    7.5243    7.6654    0.0000 H   0  0  0  0  0  0  0  0  0  0  0  0
  1 21  1  0  0  0  0
  1 24  1  0  0  0  0
  2  4  1  0  0  0  0
  2 20  1  0  0  0  0
  3  9  1  0  0  0  0
  3 10  1  0  0  0  0
  3 15  1  0  0  0  0
  4 22  2  0  0  0  0
  5 24  1  0  0  0  0
  5 25  1  0  0  0  0
  5 28  1  0  0  0  0
  6  7  1  0  0  0  0
  6 24  2  0  0  0  0
  7 25  2  0  0  0  0
  8 29  1  0  0  0  0
  8 35  2  0  0  0  0
  9 11  1  0  0  0  0
  9 37  1  0  0  0  0
  9 38  1  0  0  0  0
 10 12  1  0  0  0  0
 10 39  1  0  0  0  0
 10 40  1  0  0  0  0
 11 13  1  0  0  0  0
 11 41  1  0  0  0  0
 11 42  1  0  0  0  0
 12 14  1  0  0  0  0
 12 43  1  0  0  0  0
 12 44  1  0  0  0  0
 13 14  1  0  0  0  0
 13 17  2  0  0  0  0
 14 18  2  0  0  0  0
 15 16  1  0  0  0  0
 15 45  1  0  0  0  0
 15 46  1  0  0  0  0
 16 21  1  0  0  0  0
 16 47  1  0  0  0  0
 16 48  1  0  0  0  0
 17 19  1  0  0  0  0
 17 49  1  0  0  0  0
 18 20  1  0  0  0  0
 18 50  1  0  0  0  0
 19 20  2  0  0  0  0
 19 22  1  0  0  0  0
 21 51  1  0  0  0  0
 21 52  1  0  0  0  0
 22 23  1  0  0  0  0
 23 53  1  0  0  0  0
 23 54  1  0  0  0  0
 23 55  1  0  0  0  0
 25 26  1  0  0  0  0
 26 27  2  0  0  0  0
 26 30  1  0  0  0  0
 27 29  1  0  0  0  0
 27 31  1  0  0  0  0
 28 56  1  0  0  0  0
 28 57  1  0  0  0  0
 28 58  1  0  0  0  0
 29 32  2  0  0  0  0
 30 33  2  0  0  0  0
 30 59  1  0  0  0  0
 31 34  2  0  0  0  0
 31 60  1  0  0  0  0
 32 33  1  0  0  0  0
 32 61  1  0  0  0  0
 33 62  1  0  0  0  0
 34 35  1  0  0  0  0
 34 63  1  0  0  0  0
 35 36  1  0  0  0  0
 36 64  1  0  0  0  0
 36 65  1  0  0  0  0
 36 66  1  0  0  0  0
M  END
> <PUBCHEM_COMPOUND_CID>
11648990

> <PUBCHEM_COMPOUND_CANONICALIZED>
1

> <PUBCHEM_CACTVS_COMPLEXITY>
730

> <PUBCHEM_CACTVS_HBOND_ACCEPTOR>
7

> <PUBCHEM_CACTVS_HBOND_DONOR>
0

> <PUBCHEM_CACTVS_ROTATABLE_BOND>
6

> <PUBCHEM_CACTVS_SUBSKEYS>
AAADceB7oABAAAAAAAAAAAAAAAAAAWLAAAA8YIAABYAAAFix/gAAHgQMAAAADAzF3wSz1vccEAirA6ZyZgCS0CtlIrA92CE+bNqILvrgnZOEMYhmyBvIyceY2fKO4AADQAAaAADAAAaAADQAAAAAAAAAAA==

> <PUBCHEM_IUPAC_OPENEYE_NAME>
3-methyl-7-[3-[[4-methyl-5-(2-methyl-5-quinolyl)-1,2,4-triazol-3-yl]sulfanyl]propyl]-5,6,8,9-tetrahydroisoxazolo[5,4-h][3]benzazepine

> <PUBCHEM_IUPAC_CAS_NAME>
3-methyl-7-[3-[[4-methyl-5-(2-methyl-5-quinolinyl)-1,2,4-triazol-3-yl]thio]propyl]-5,6,8,9-tetrahydroisoxazolo[5,4-h][3]benzazepine

> <PUBCHEM_IUPAC_NAME_MARKUP>
3-methyl-7-[3-[[4-methyl-5-(2-methylquinolin-5-yl)-1,2,4-triazol-3-yl]sulfanyl]propyl]-5,6,8,9-tetrahydro-[1,2]oxazolo[5,4-h][3]benzazepine

> <PUBCHEM_IUPAC_NAME>
3-methyl-7-[3-[[4-methyl-5-(2-methylquinolin-5-yl)-1,2,4-triazol-3-yl]sulfanyl]propyl]-5,6,8,9-tetrahydro-[1,2]oxazolo[5,4-h][3]benzazepine

> <PUBCHEM_IUPAC_SYSTEMATIC_NAME>
3-methyl-7-[3-[[4-methyl-5-(2-methylquinolin-5-yl)-1,2,4-triazol-3-yl]sulfanyl]propyl]-5,6,8,9-tetrahydro-[1,2]oxazolo[5,4-h][3]benzazepine

> <PUBCHEM_IUPAC_TRADITIONAL_NAME>
3-methyl-7-[3-[[4-methyl-5-(2-methyl-5-quinolyl)-1,2,4-triazol-3-yl]thio]propyl]-5,6,8,9-tetrahydroisoxazolo[5,4-h][3]benzazepine

> <PUBCHEM_IUPAC_INCHI>
InChI=1S/C28H30N6OS/c1-18-8-9-22-23(6-4-7-25(22)29-18)27-30-31-28(33(27)3)36-15-5-12-34-13-10-20-16-24-19(2)32-35-26(24)17-21(20)11-14-34/h4,6-9,16-17H,5,10-15H2,1-3H3

> <PUBCHEM_IUPAC_INCHIKEY>
OZZLMZAQJKSGCB-UHFFFAOYSA-N

> <PUBCHEM_XLOGP3_AA>
5.2

> <PUBCHEM_EXACT_MASS>
498.22018078

> <PUBCHEM_MOLECULAR_FORMULA>
C28H30N6OS

> <PUBCHEM_MOLECULAR_WEIGHT>
498.6

> <PUBCHEM_OPENEYE_CAN_SMILES>
CC1=NC2=CC=CC(=C2C=C1)C3=NN=C(N3C)SCCCN4CCC5=CC6=C(C=C5CC4)ON=C6C

> <PUBCHEM_OPENEYE_ISO_SMILES>
CC1=NC2=CC=CC(=C2C=C1)C3=NN=C(N3C)SCCCN4CCC5=CC6=C(C=C5CC4)ON=C6C

> <PUBCHEM_CACTVS_TPSA>
98.2

> <PUBCHEM_MONOISOTOPIC_WEIGHT>
498.22018078

> <PUBCHEM_TOTAL_CHARGE>
0

> <PUBCHEM_HEAVY_ATOM_COUNT>
36

> <PUBCHEM_ATOM_DEF_STEREO_COUNT>
0

> <PUBCHEM_ATOM_UDEF_STEREO_COUNT>
0

> <PUBCHEM_BOND_DEF_STEREO_COUNT>
0

> <PUBCHEM_BOND_UDEF_STEREO_COUNT>
0

> <PUBCHEM_ISOTOPIC_ATOM_COUNT>
0

> <PUBCHEM_COMPONENT_COUNT>
1

> <PUBCHEM_CACTVS_TAUTO_COUNT>
-1

> <PUBCHEM_COORDINATE_TYPE>
1
5
255

> <PUBCHEM_BONDANNOTATIONS>
13  14  8
13  17  8
14  18  8
17  19  8
18  20  8
19  20  8
19  22  8
2  20  8
2  4  8
26  27  8
26  30  8
27  29  8
27  31  8
29  32  8
30  33  8
31  34  8
32  33  8
34  35  8
4  22  8
5  24  8
5  25  8
6  24  8
6  7  8
7  25  8
8  29  8
8  35  8

$$$$
