44626641
  -OEChem-09292322302D

 63 68  0     1  0  0  0  0  0999 V2000
    3.7759   -1.2702    0.0000 S   0  0  0  0  0  0  0  0  0  0  0  0
    3.4138    2.1749    0.0000 N   0  0  3  0  0  0  0  0  0  0  0  0
    6.9589    6.6527    0.0000 N   0  0  0  0  0  0  0  0  0  0  0  0
    4.0547   -3.0303    0.0000 N   0  0  0  0  0  0  0  0  0  0  0  0
    5.3637   -2.0792    0.0000 N   0  0  0  0  0  0  0  0  0  0  0  0
    5.6728   -3.0303    0.0000 N   0  0  0  0  0  0  0  0  0  0  0  0
    6.6237   -6.6527    0.0000 N   0  0  0  0  0  0  0  0  0  0  0  0
    2.9138    3.7138    0.0000 C   0  0  3  0  0  0  0  0  0  0  0  0
    2.1048    3.1260    0.0000 C   0  0  3  0  0  0  0  0  0  0  0  0
    2.0000    4.1209    0.0000 C   0  0  0  0  0  0  0  0  0  0  0  0
    3.7229    3.1260    0.0000 C   0  0  0  0  0  0  0  0  0  0  0  0
    2.4138    2.1749    0.0000 C   0  0  0  0  0  0  0  0  0  0  0  0
    3.7229    4.3016    0.0000 C   0  0  0  0  0  0  0  0  0  0  0  0
    4.0016    1.3659    0.0000 C   0  0  0  0  0  0  0  0  0  0  0  0
    3.6183    5.2961    0.0000 C   0  0  0  0  0  0  0  0  0  0  0  0
    4.6364    3.8948    0.0000 C   0  0  0  0  0  0  0  0  0  0  0  0
    3.5949    0.4524    0.0000 C   0  0  0  0  0  0  0  0  0  0  0  0
    4.4274    5.8839    0.0000 C   0  0  0  0  0  0  0  0  0  0  0  0
    5.4454    4.4826    0.0000 C   0  0  0  0  0  0  0  0  0  0  0  0
    5.3409    5.4771    0.0000 C   0  0  0  0  0  0  0  0  0  0  0  0
    4.1827   -0.3566    0.0000 C   0  0  0  0  0  0  0  0  0  0  0  0
    6.1499    6.0649    0.0000 C   0  0  0  0  0  0  0  0  0  0  0  0
    4.3637   -2.0792    0.0000 C   0  0  0  0  0  0  0  0  0  0  0  0
    4.8637   -3.6180    0.0000 C   0  0  0  0  0  0  0  0  0  0  0  0
    3.1037   -3.3393    0.0000 C   0  0  0  0  0  0  0  0  0  0  0  0
    4.8637   -4.6180    0.0000 C   0  0  0  0  0  0  0  0  0  0  0  0
    5.7298   -5.1180    0.0000 C   0  0  0  0  0  0  0  0  0  0  0  0
    3.9977   -5.1180    0.0000 C   0  0  0  0  0  0  0  0  0  0  0  0
    5.7298   -6.1180    0.0000 C   0  0  0  0  0  0  0  0  0  0  0  0
    6.6237   -4.5834    0.0000 C   0  0  0  0  0  0  0  0  0  0  0  0
    3.9977   -6.1180    0.0000 C   0  0  0  0  0  0  0  0  0  0  0  0
    4.8637   -6.6180    0.0000 C   0  0  0  0  0  0  0  0  0  0  0  0
    7.5298   -5.0972    0.0000 C   0  0  0  0  0  0  0  0  0  0  0  0
    7.5298   -6.1389    0.0000 C   0  0  0  0  0  0  0  0  0  0  0  0
    8.3939   -6.6422    0.0000 C   0  0  0  0  0  0  0  0  0  0  0  0
    1.4984    2.9970    0.0000 H   0  0  0  0  0  0  0  0  0  0  0  0
    2.1500    4.7225    0.0000 H   0  0  0  0  0  0  0  0  0  0  0  0
    1.3815    4.1641    0.0000 H   0  0  0  0  0  0  0  0  0  0  0  0
    4.2893    2.8738    0.0000 H   0  0  0  0  0  0  0  0  0  0  0  0
    4.0329    3.6629    0.0000 H   0  0  0  0  0  0  0  0  0  0  0  0
    1.8074    2.0460    0.0000 H   0  0  0  0  0  0  0  0  0  0  0  0
    2.4786    1.5583    0.0000 H   0  0  0  0  0  0  0  0  0  0  0  0
    4.5156    1.0192    0.0000 H   0  0  0  0  0  0  0  0  0  0  0  0
    4.4323    1.8119    0.0000 H   0  0  0  0  0  0  0  0  0  0  0  0
    3.0519    5.5483    0.0000 H   0  0  0  0  0  0  0  0  0  0  0  0
    4.7012    3.2782    0.0000 H   0  0  0  0  0  0  0  0  0  0  0  0
    3.0809    0.7991    0.0000 H   0  0  0  0  0  0  0  0  0  0  0  0
    3.1642    0.0064    0.0000 H   0  0  0  0  0  0  0  0  0  0  0  0
    4.3625    6.5005    0.0000 H   0  0  0  0  0  0  0  0  0  0  0  0
    6.0118    4.2304    0.0000 H   0  0  0  0  0  0  0  0  0  0  0  0
    4.6967   -0.7033    0.0000 H   0  0  0  0  0  0  0  0  0  0  0  0
    4.6134    0.0893    0.0000 H   0  0  0  0  0  0  0  0  0  0  0  0
    2.9121   -2.7496    0.0000 H   0  0  0  0  0  0  0  0  0  0  0  0
    2.5140   -3.5309    0.0000 H   0  0  0  0  0  0  0  0  0  0  0  0
    3.2952   -3.9289    0.0000 H   0  0  0  0  0  0  0  0  0  0  0  0
    3.4608   -4.8080    0.0000 H   0  0  0  0  0  0  0  0  0  0  0  0
    6.6165   -3.9634    0.0000 H   0  0  0  0  0  0  0  0  0  0  0  0
    3.4608   -6.4280    0.0000 H   0  0  0  0  0  0  0  0  0  0  0  0
    4.8637   -7.2380    0.0000 H   0  0  0  0  0  0  0  0  0  0  0  0
    8.0655   -4.7852    0.0000 H   0  0  0  0  0  0  0  0  0  0  0  0
    8.0818   -7.1779    0.0000 H   0  0  0  0  0  0  0  0  0  0  0  0
    8.9296   -6.9543    0.0000 H   0  0  0  0  0  0  0  0  0  0  0  0
    8.7059   -6.1065    0.0000 H   0  0  0  0  0  0  0  0  0  0  0  0
  1 21  1  0  0  0  0
  1 23  1  0  0  0  0
  2 11  1  0  0  0  0
  2 12  1  0  0  0  0
  2 14  1  0  0  0  0
  3 22  3  0  0  0  0
  4 23  1  0  0  0  0
  4 24  1  0  0  0  0
  4 25  1  0  0  0  0
  5  6  1  0  0  0  0
  5 23  2  0  0  0  0
  6 24  2  0  0  0  0
  7 29  1  0  0  0  0
  7 34  2  0  0  0  0
  8  9  1  0  0  0  0
  8 10  1  0  0  0  0
  8 11  1  0  0  0  0
  8 13  1  0  0  0  0
  9 10  1  0  0  0  0
  9 12  1  0  0  0  0
  9 36  1  0  0  0  0
 10 37  1  0  0  0  0
 10 38  1  0  0  0  0
 11 39  1  0  0  0  0
 11 40  1  0  0  0  0
 12 41  1  0  0  0  0
 12 42  1  0  0  0  0
 13 15  2  0  0  0  0
 13 16  1  0  0  0  0
 14 17  1  0  0  0  0
 14 43  1  0  0  0  0
 14 44  1  0  0  0  0
 15 18  1  0  0  0  0
 15 45  1  0  0  0  0
 16 19  2  0  0  0  0
 16 46  1  0  0  0  0
 17 21  1  0  0  0  0
 17 47  1  0  0  0  0
 17 48  1  0  0  0  0
 18 20  2  0  0  0  0
 18 49  1  0  0  0  0
 19 20  1  0  0  0  0
 19 50  1  0  0  0  0
 20 22  1  0  0  0  0
 21 51  1  0  0  0  0
 21 52  1  0  0  0  0
 24 26  1  0  0  0  0
 25 53  1  0  0  0  0
 25 54  1  0  0  0  0
 25 55  1  0  0  0  0
 26 27  2  0  0  0  0
 26 28  1  0  0  0  0
 27 29  1  0  0  0  0
 27 30  1  0  0  0  0
 28 31  2  0  0  0  0
 28 56  1  0  0  0  0
 29 32  2  0  0  0  0
 30 33  2  0  0  0  0
 30 57  1  0  0  0  0
 31 32  1  0  0  0  0
 31 58  1  0  0  0  0
 32 59  1  0  0  0  0
 33 34  1  0  0  0  0
 33 60  1  0  0  0  0
 34 35  1  0  0  0  0
 35 61  1  0  0  0  0
 35 62  1  0  0  0  0
 35 63  1  0  0  0  0
M  END
> <PUBCHEM_COMPOUND_CID>
44626641

> <PUBCHEM_COMPOUND_CANONICALIZED>
1

> <PUBCHEM_CACTVS_COMPLEXITY>
792

> <PUBCHEM_CACTVS_HBOND_ACCEPTOR>
6

> <PUBCHEM_CACTVS_HBOND_DONOR>
0

> <PUBCHEM_CACTVS_ROTATABLE_BOND>
7

> <PUBCHEM_CACTVS_SUBSKEYS>
AAADceB7gABAAAAAAAAAAAAAGAAAAWLAAAA8eIEAAAAAAACx/AAAHAQIAAAADwjFXwSz0PcMEAiyByZiZACy0CthArAd2CA4ZJiIqOLgmZGEIAhgiALIyA8QgMAPwAAAQAASAACAAACAACQAAAAAAAAAAA==

> <PUBCHEM_IUPAC_OPENEYE_NAME>
4-[3-[3-[[4-methyl-5-(2-methyl-5-quinolyl)-1,2,4-triazol-3-yl]sulfanyl]propyl]-3-azabicyclo[3.1.0]hexan-1-yl]benzonitrile

> <PUBCHEM_IUPAC_CAS_NAME>
4-[3-[3-[[4-methyl-5-(2-methyl-5-quinolinyl)-1,2,4-triazol-3-yl]thio]propyl]-3-azabicyclo[3.1.0]hexan-1-yl]benzonitrile

> <PUBCHEM_IUPAC_NAME_MARKUP>
4-[3-[3-[[4-methyl-5-(2-methylquinolin-5-yl)-1,2,4-triazol-3-yl]sulfanyl]propyl]-3-azabicyclo[3.1.0]hexan-1-yl]benzonitrile

> <PUBCHEM_IUPAC_NAME>
4-[3-[3-[[4-methyl-5-(2-methylquinolin-5-yl)-1,2,4-triazol-3-yl]sulfanyl]propyl]-3-azabicyclo[3.1.0]hexan-1-yl]benzonitrile

> <PUBCHEM_IUPAC_SYSTEMATIC_NAME>
4-[3-[3-[[4-methyl-5-(2-methylquinolin-5-yl)-1,2,4-triazol-3-yl]sulfanyl]propyl]-3-azabicyclo[3.1.0]hexan-1-yl]benzenecarbonitrile

> <PUBCHEM_IUPAC_TRADITIONAL_NAME>
4-[3-[3-[[4-methyl-5-(2-methyl-5-quinolyl)-1,2,4-triazol-3-yl]thio]propyl]-3-azabicyclo[3.1.0]hexan-1-yl]benzonitrile

> <PUBCHEM_IUPAC_INCHI>
InChI=1S/C28H28N6S/c1-19-7-12-23-24(5-3-6-25(23)30-19)26-31-32-27(33(26)2)35-14-4-13-34-17-22-15-28(22,18-34)21-10-8-20(16-29)9-11-21/h3,5-12,22H,4,13-15,17-18H2,1-2H3

> <PUBCHEM_IUPAC_INCHIKEY>
CLLQEXUCEWAACY-UHFFFAOYSA-N

> <PUBCHEM_XLOGP3_AA>
4.6

> <PUBCHEM_EXACT_MASS>
480.20961609

> <PUBCHEM_MOLECULAR_FORMULA>
C28H28N6S

> <PUBCHEM_MOLECULAR_WEIGHT>
480.6

> <PUBCHEM_OPENEYE_CAN_SMILES>
CC1=NC2=CC=CC(=C2C=C1)C3=NN=C(N3C)SCCCN4CC5CC5(C4)C6=CC=C(C=C6)C#N

> <PUBCHEM_OPENEYE_ISO_SMILES>
CC1=NC2=CC=CC(=C2C=C1)C3=NN=C(N3C)SCCCN4CC5CC5(C4)C6=CC=C(C=C6)C#N

> <PUBCHEM_CACTVS_TPSA>
95.9

> <PUBCHEM_MONOISOTOPIC_WEIGHT>
480.20961609

> <PUBCHEM_TOTAL_CHARGE>
0

> <PUBCHEM_HEAVY_ATOM_COUNT>
35

> <PUBCHEM_ATOM_DEF_STEREO_COUNT>
0

> <PUBCHEM_ATOM_UDEF_STEREO_COUNT>
2

> <PUBCHEM_BOND_DEF_STEREO_COUNT>
0

> <PUBCHEM_BOND_UDEF_STEREO_COUNT>
0

> <PUBCHEM_ISOTOPIC_ATOM_COUNT>
0

> <PUBCHEM_COMPONENT_COUNT>
1

> <PUBCHEM_CACTVS_TAUTO_COUNT>
-1

> <PUBCHEM_COORDINATE_TYPE>
1
5
255

> <PUBCHEM_BONDANNOTATIONS>
13  15  8
13  16  8
15  18  8
16  19  8
18  20  8
19  20  8
26  27  8
26  28  8
27  29  8
27  30  8
28  31  8
29  32  8
30  33  8
31  32  8
33  34  8
4  23  8
4  24  8
5  23  8
5  6  8
6  24  8
7  29  8
7  34  8
8  13  3
9  10  3

$$$$
