44438208
  -OEChem-09292322262D

 49 52  0     0  0  0  0  0  0999 V2000
    8.8750   -0.2516    0.0000 O   0  0  0  0  0  0  0  0  0  0  0  0
   10.9017    2.7304    0.0000 O   0  0  0  0  0  0  0  0  0  0  0  0
    5.9674   -0.3534    0.0000 N   0  0  0  0  0  0  0  0  0  0  0  0
    4.6783   -3.1196    0.0000 N   0  0  0  0  0  0  0  0  0  0  0  0
    7.9244    0.0590    0.0000 C   0  0  0  0  0  0  0  0  0  0  0  0
    7.2566    0.8033    0.0000 C   0  0  0  0  0  0  0  0  0  0  0  0
    7.6138   -0.8915    0.0000 C   0  0  0  0  0  0  0  0  0  0  0  0
    6.2781    0.5971    0.0000 C   0  0  0  0  0  0  0  0  0  0  0  0
    6.6353   -1.0977    0.0000 C   0  0  0  0  0  0  0  0  0  0  0  0
    8.6688    0.7269    0.0000 C   0  0  0  0  0  0  0  0  0  0  0  0
    4.9889   -0.5596    0.0000 C   0  0  0  0  0  0  0  0  0  0  0  0
    4.6783   -1.5101    0.0000 C   0  0  0  0  0  0  0  0  0  0  0  0
    8.4625    1.7054    0.0000 C   0  0  0  0  0  0  0  0  0  0  0  0
    9.6193    0.4162    0.0000 C   0  0  0  0  0  0  0  0  0  0  0  0
    3.7320   -1.8149    0.0000 C   0  0  0  0  0  0  0  0  0  0  0  0
    5.2619   -2.3149    0.0000 C   0  0  0  0  0  0  0  0  0  0  0  0
    3.7320   -2.8149    0.0000 C   0  0  0  0  0  0  0  0  0  0  0  0
    9.2068    2.3732    0.0000 C   0  0  0  0  0  0  0  0  0  0  0  0
   10.3636    1.0841    0.0000 C   0  0  0  0  0  0  0  0  0  0  0  0
   10.1574    2.0626    0.0000 C   0  0  0  0  0  0  0  0  0  0  0  0
    2.8660   -1.3149    0.0000 C   0  0  0  0  0  0  0  0  0  0  0  0
    2.8660   -3.3149    0.0000 C   0  0  0  0  0  0  0  0  0  0  0  0
    2.0000   -1.8149    0.0000 C   0  0  0  0  0  0  0  0  0  0  0  0
    2.0000   -2.8149    0.0000 C   0  0  0  0  0  0  0  0  0  0  0  0
   10.6954    3.7089    0.0000 C   0  0  0  0  0  0  0  0  0  0  0  0
    7.7830    1.1310    0.0000 H   0  0  0  0  0  0  0  0  0  0  0  0
    7.0254    1.3786    0.0000 H   0  0  0  0  0  0  0  0  0  0  0  0
    7.6344   -1.5111    0.0000 H   0  0  0  0  0  0  0  0  0  0  0  0
    8.2276   -0.9788    0.0000 H   0  0  0  0  0  0  0  0  0  0  0  0
    6.2575    1.2168    0.0000 H   0  0  0  0  0  0  0  0  0  0  0  0
    5.6643    0.6845    0.0000 H   0  0  0  0  0  0  0  0  0  0  0  0
    6.1089   -1.4253    0.0000 H   0  0  0  0  0  0  0  0  0  0  0  0
    6.8665   -1.6730    0.0000 H   0  0  0  0  0  0  0  0  0  0  0  0
    4.9684    0.0600    0.0000 H   0  0  0  0  0  0  0  0  0  0  0  0
    4.3751   -0.4723    0.0000 H   0  0  0  0  0  0  0  0  0  0  0  0
    9.0028   -0.8583    0.0000 H   0  0  0  0  0  0  0  0  0  0  0  0
    7.8732    1.8980    0.0000 H   0  0  0  0  0  0  0  0  0  0  0  0
    9.7471   -0.1905    0.0000 H   0  0  0  0  0  0  0  0  0  0  0  0
    5.8819   -2.3149    0.0000 H   0  0  0  0  0  0  0  0  0  0  0  0
    9.0790    2.9799    0.0000 H   0  0  0  0  0  0  0  0  0  0  0  0
   10.9529    0.8915    0.0000 H   0  0  0  0  0  0  0  0  0  0  0  0
    4.8709   -3.7089    0.0000 H   0  0  0  0  0  0  0  0  0  0  0  0
    2.8660   -0.6949    0.0000 H   0  0  0  0  0  0  0  0  0  0  0  0
    2.8660   -3.9349    0.0000 H   0  0  0  0  0  0  0  0  0  0  0  0
    1.4631   -1.5049    0.0000 H   0  0  0  0  0  0  0  0  0  0  0  0
    1.4631   -3.1249    0.0000 H   0  0  0  0  0  0  0  0  0  0  0  0
   11.3021    3.8368    0.0000 H   0  0  0  0  0  0  0  0  0  0  0  0
   10.5676    4.3156    0.0000 H   0  0  0  0  0  0  0  0  0  0  0  0
   10.0888    3.5811    0.0000 H   0  0  0  0  0  0  0  0  0  0  0  0
  1  5  1  0  0  0  0
  1 36  1  0  0  0  0
  2 20  1  0  0  0  0
  2 25  1  0  0  0  0
  3  8  1  0  0  0  0
  3  9  1  0  0  0  0
  3 11  1  0  0  0  0
  4 16  1  0  0  0  0
  4 17  1  0  0  0  0
  4 42  1  0  0  0  0
  5  6  1  0  0  0  0
  5  7  1  0  0  0  0
  5 10  1  0  0  0  0
  6  8  1  0  0  0  0
  6 26  1  0  0  0  0
  6 27  1  0  0  0  0
  7  9  1  0  0  0  0
  7 28  1  0  0  0  0
  7 29  1  0  0  0  0
  8 30  1  0  0  0  0
  8 31  1  0  0  0  0
  9 32  1  0  0  0  0
  9 33  1  0  0  0  0
 10 13  2  0  0  0  0
 10 14  1  0  0  0  0
 11 12  1  0  0  0  0
 11 34  1  0  0  0  0
 11 35  1  0  0  0  0
 12 15  1  0  0  0  0
 12 16  2  0  0  0  0
 13 18  1  0  0  0  0
 13 37  1  0  0  0  0
 14 19  2  0  0  0  0
 14 38  1  0  0  0  0
 15 17  1  0  0  0  0
 15 21  2  0  0  0  0
 16 39  1  0  0  0  0
 17 22  2  0  0  0  0
 18 20  2  0  0  0  0
 18 40  1  0  0  0  0
 19 20  1  0  0  0  0
 19 41  1  0  0  0  0
 21 23  1  0  0  0  0
 21 43  1  0  0  0  0
 22 24  1  0  0  0  0
 22 44  1  0  0  0  0
 23 24  2  0  0  0  0
 23 45  1  0  0  0  0
 24 46  1  0  0  0  0
 25 47  1  0  0  0  0
 25 48  1  0  0  0  0
 25 49  1  0  0  0  0
M  END
> <PUBCHEM_COMPOUND_CID>
44438208

> <PUBCHEM_COMPOUND_CANONICALIZED>
1

> <PUBCHEM_CACTVS_COMPLEXITY>
428

> <PUBCHEM_CACTVS_HBOND_ACCEPTOR>
3

> <PUBCHEM_CACTVS_HBOND_DONOR>
2

> <PUBCHEM_CACTVS_ROTATABLE_BOND>
4

> <PUBCHEM_CACTVS_SUBSKEYS>
AAADceB7MAAAAAAAAAAAAAAAAAAAAWAAAAA8YIAAAAAAAFgB9AAAHgAQCAAADEzBngY+xvPJlgCgAzRnRACCiCAxIiAI2aA+bJgMJuLE8ZuEcChm0BHI+AeQ4PwOoAAAAAACAABAAAAAAAQAAAAAAAAAAA==

> <PUBCHEM_IUPAC_OPENEYE_NAME>
1-(1H-indol-3-ylmethyl)-4-(4-methoxyphenyl)piperidin-4-ol

> <PUBCHEM_IUPAC_CAS_NAME>
1-(1H-indol-3-ylmethyl)-4-(4-methoxyphenyl)-4-piperidinol

> <PUBCHEM_IUPAC_NAME_MARKUP>
1-(1<I>H</I>-indol-3-ylmethyl)-4-(4-methoxyphenyl)piperidin-4-ol

> <PUBCHEM_IUPAC_NAME>
1-(1H-indol-3-ylmethyl)-4-(4-methoxyphenyl)piperidin-4-ol

> <PUBCHEM_IUPAC_SYSTEMATIC_NAME>
1-(1H-indol-3-ylmethyl)-4-(4-methoxyphenyl)piperidin-4-ol

> <PUBCHEM_IUPAC_TRADITIONAL_NAME>
1-(1H-indol-3-ylmethyl)-4-(4-methoxyphenyl)piperidin-4-ol

> <PUBCHEM_IUPAC_INCHI>
InChI=1S/C21H24N2O2/c1-25-18-8-6-17(7-9-18)21(24)10-12-23(13-11-21)15-16-14-22-20-5-3-2-4-19(16)20/h2-9,14,22,24H,10-13,15H2,1H3

> <PUBCHEM_IUPAC_INCHIKEY>
MONYXZRGXBZUEX-UHFFFAOYSA-N

> <PUBCHEM_XLOGP3_AA>
3

> <PUBCHEM_EXACT_MASS>
336.183778013

> <PUBCHEM_MOLECULAR_FORMULA>
C21H24N2O2

> <PUBCHEM_MOLECULAR_WEIGHT>
336.4

> <PUBCHEM_OPENEYE_CAN_SMILES>
COC1=CC=C(C=C1)C2(CCN(CC2)CC3=CNC4=CC=CC=C43)O

> <PUBCHEM_OPENEYE_ISO_SMILES>
COC1=CC=C(C=C1)C2(CCN(CC2)CC3=CNC4=CC=CC=C43)O

> <PUBCHEM_CACTVS_TPSA>
48.5

> <PUBCHEM_MONOISOTOPIC_WEIGHT>
336.183778013

> <PUBCHEM_TOTAL_CHARGE>
0

> <PUBCHEM_HEAVY_ATOM_COUNT>
25

> <PUBCHEM_ATOM_DEF_STEREO_COUNT>
0

> <PUBCHEM_ATOM_UDEF_STEREO_COUNT>
0

> <PUBCHEM_BOND_DEF_STEREO_COUNT>
0

> <PUBCHEM_BOND_UDEF_STEREO_COUNT>
0

> <PUBCHEM_ISOTOPIC_ATOM_COUNT>
0

> <PUBCHEM_COMPONENT_COUNT>
1

> <PUBCHEM_CACTVS_TAUTO_COUNT>
-1

> <PUBCHEM_COORDINATE_TYPE>
1
5
255

> <PUBCHEM_BONDANNOTATIONS>
10  13  8
10  14  8
12  15  8
12  16  8
13  18  8
14  19  8
15  17  8
15  21  8
17  22  8
18  20  8
19  20  8
21  23  8
22  24  8
23  24  8
4  16  8
4  17  8

$$$$
