25456694
  -OEChem-09292322402D

 54 57  0     1  0  0  0  0  0999 V2000
    4.6783    1.5039    0.0000 O   0  0  0  0  0  0  0  0  0  0  0  0
    8.5983   -1.0061    0.0000 O   0  0  0  0  0  0  0  0  0  0  0  0
   13.1185   -2.1330    0.0000 O   0  0  0  0  0  0  0  0  0  0  0  0
    6.7619    1.4426    0.0000 N   0  0  3  0  0  0  0  0  0  0  0  0
    9.2564    0.4720    0.0000 N   0  0  0  0  0  0  0  0  0  0  0  0
    5.2619    2.3086    0.0000 C   0  0  1  0  0  0  0  0  0  0  0  0
    4.6783    3.1134    0.0000 C   0  0  0  0  0  0  0  0  0  0  0  0
    6.2619    2.3086    0.0000 C   0  0  0  0  0  0  0  0  0  0  0  0
    3.7320    2.8086    0.0000 C   0  0  0  0  0  0  0  0  0  0  0  0
    3.7320    1.8086    0.0000 C   0  0  0  0  0  0  0  0  0  0  0  0
    7.7619    1.4426    0.0000 C   0  0  0  0  0  0  0  0  0  0  0  0
    2.8660    3.3086    0.0000 C   0  0  0  0  0  0  0  0  0  0  0  0
    6.2619    0.5766    0.0000 C   0  0  0  0  0  0  0  0  0  0  0  0
    8.2619    0.5766    0.0000 C   0  0  0  0  0  0  0  0  0  0  0  0
    2.8660    1.3086    0.0000 C   0  0  0  0  0  0  0  0  0  0  0  0
    2.0000    2.8086    0.0000 C   0  0  0  0  0  0  0  0  0  0  0  0
    2.0000    1.8086    0.0000 C   0  0  0  0  0  0  0  0  0  0  0  0
    7.8551   -0.3370    0.0000 C   0  0  0  0  0  0  0  0  0  0  0  0
    9.4643   -0.5061    0.0000 C   0  0  0  0  0  0  0  0  0  0  0  0
   10.3779   -0.9128    0.0000 C   0  0  0  0  0  0  0  0  0  0  0  0
    6.8770   -0.5449    0.0000 C   0  0  0  0  0  0  0  0  0  0  0  0
   10.4824   -1.9074    0.0000 C   0  0  0  0  0  0  0  0  0  0  0  0
   11.1869   -0.3251    0.0000 C   0  0  0  0  0  0  0  0  0  0  0  0
   11.3959   -2.3141    0.0000 C   0  0  0  0  0  0  0  0  0  0  0  0
   12.2049   -1.7263    0.0000 C   0  0  0  0  0  0  0  0  0  0  0  0
   12.1004   -0.7318    0.0000 C   0  0  0  0  0  0  0  0  0  0  0  0
   11.5005   -3.3086    0.0000 C   0  0  0  0  0  0  0  0  0  0  0  0
   13.9275   -1.5453    0.0000 C   0  0  0  0  0  0  0  0  0  0  0  0
    5.5436    1.7563    0.0000 H   0  0  0  0  0  0  0  0  0  0  0  0
    5.2156    3.4226    0.0000 H   0  0  0  0  0  0  0  0  0  0  0  0
    4.4272    3.6803    0.0000 H   0  0  0  0  0  0  0  0  0  0  0  0
    6.8445    2.5207    0.0000 H   0  0  0  0  0  0  0  0  0  0  0  0
    6.1542    2.9192    0.0000 H   0  0  0  0  0  0  0  0  0  0  0  0
    8.3445    1.6546    0.0000 H   0  0  0  0  0  0  0  0  0  0  0  0
    7.6542    2.0532    0.0000 H   0  0  0  0  0  0  0  0  0  0  0  0
    2.8660    3.9286    0.0000 H   0  0  0  0  0  0  0  0  0  0  0  0
    5.7249    0.8866    0.0000 H   0  0  0  0  0  0  0  0  0  0  0  0
    5.9519    0.0396    0.0000 H   0  0  0  0  0  0  0  0  0  0  0  0
    6.7988    0.2666    0.0000 H   0  0  0  0  0  0  0  0  0  0  0  0
    2.8660    0.6886    0.0000 H   0  0  0  0  0  0  0  0  0  0  0  0
    1.4631    3.1186    0.0000 H   0  0  0  0  0  0  0  0  0  0  0  0
    1.4631    1.4986    0.0000 H   0  0  0  0  0  0  0  0  0  0  0  0
    6.7481    0.0616    0.0000 H   0  0  0  0  0  0  0  0  0  0  0  0
    6.2705   -0.6738    0.0000 H   0  0  0  0  0  0  0  0  0  0  0  0
    7.0059   -1.1513    0.0000 H   0  0  0  0  0  0  0  0  0  0  0  0
    9.9808   -2.2718    0.0000 H   0  0  0  0  0  0  0  0  0  0  0  0
   11.1221    0.2915    0.0000 H   0  0  0  0  0  0  0  0  0  0  0  0
   12.6020   -0.3674    0.0000 H   0  0  0  0  0  0  0  0  0  0  0  0
   10.8839   -3.3734    0.0000 H   0  0  0  0  0  0  0  0  0  0  0  0
   11.5653   -3.9252    0.0000 H   0  0  0  0  0  0  0  0  0  0  0  0
   12.1171   -3.2438    0.0000 H   0  0  0  0  0  0  0  0  0  0  0  0
   14.2919   -2.0469    0.0000 H   0  0  0  0  0  0  0  0  0  0  0  0
   14.4291   -1.1808    0.0000 H   0  0  0  0  0  0  0  0  0  0  0  0
   13.5631   -1.0437    0.0000 H   0  0  0  0  0  0  0  0  0  0  0  0
  1  6  1  0  0  0  0
  1 10  1  0  0  0  0
  2 18  1  0  0  0  0
  2 19  1  0  0  0  0
  3 25  1  0  0  0  0
  3 28  1  0  0  0  0
  4  8  1  0  0  0  0
  4 11  1  0  0  0  0
  4 13  1  0  0  0  0
  5 14  1  0  0  0  0
  5 19  2  0  0  0  0
  6  7  1  0  0  0  0
  6  8  1  1  0  0  0
  6 29  1  0  0  0  0
  7  9  1  0  0  0  0
  7 30  1  0  0  0  0
  7 31  1  0  0  0  0
  8 32  1  0  0  0  0
  8 33  1  0  0  0  0
  9 10  1  0  0  0  0
  9 12  2  0  0  0  0
 10 15  2  0  0  0  0
 11 14  1  0  0  0  0
 11 34  1  0  0  0  0
 11 35  1  0  0  0  0
 12 16  1  0  0  0  0
 12 36  1  0  0  0  0
 13 37  1  0  0  0  0
 13 38  1  0  0  0  0
 13 39  1  0  0  0  0
 14 18  2  0  0  0  0
 15 17  1  0  0  0  0
 15 40  1  0  0  0  0
 16 17  2  0  0  0  0
 16 41  1  0  0  0  0
 17 42  1  0  0  0  0
 18 21  1  0  0  0  0
 19 20  1  0  0  0  0
 20 22  2  0  0  0  0
 20 23  1  0  0  0  0
 21 43  1  0  0  0  0
 21 44  1  0  0  0  0
 21 45  1  0  0  0  0
 22 24  1  0  0  0  0
 22 46  1  0  0  0  0
 23 26  2  0  0  0  0
 23 47  1  0  0  0  0
 24 25  2  0  0  0  0
 24 27  1  0  0  0  0
 25 26  1  0  0  0  0
 26 48  1  0  0  0  0
 27 49  1  0  0  0  0
 27 50  1  0  0  0  0
 27 51  1  0  0  0  0
 28 52  1  0  0  0  0
 28 53  1  0  0  0  0
 28 54  1  0  0  0  0
M  END
> <PUBCHEM_COMPOUND_CID>
25456694

> <PUBCHEM_COMPOUND_CANONICALIZED>
1

> <PUBCHEM_CACTVS_COMPLEXITY>
504

> <PUBCHEM_CACTVS_HBOND_ACCEPTOR>
5

> <PUBCHEM_CACTVS_HBOND_DONOR>
0

> <PUBCHEM_CACTVS_ROTATABLE_BOND>
6

> <PUBCHEM_CACTVS_SUBSKEYS>
AAADceB7MAAAAAAAAAAAAAAAAAAAAWJAAAAwYAAAAAAAAEgB0AAAHgAAAAAADBzhngYyhpMIFECoA6VyVASCiCAvYCAImCG/TNgOZrrEtTufOSjmxBHYqYeY/O7OIAACAAAIAABAAAQAABAAAAAAAAAAAA==

> <PUBCHEM_IUPAC_OPENEYE_NAME>
1-[(2S)-2,3-dihydrobenzofuran-2-yl]-N-[[2-(4-methoxy-3-methyl-phenyl)-5-methyl-oxazol-4-yl]methyl]-N-methyl-methanamine

> <PUBCHEM_IUPAC_CAS_NAME>
1-[(2S)-2,3-dihydrobenzofuran-2-yl]-N-[[2-(4-methoxy-3-methylphenyl)-5-methyl-4-oxazolyl]methyl]-N-methylmethanamine

> <PUBCHEM_IUPAC_NAME_MARKUP>
1-[(2<I>S</I>)-2,3-dihydro-1-benzofuran-2-yl]-<I>N</I>-[[2-(4-methoxy-3-methylphenyl)-5-methyl-1,3-oxazol-4-yl]methyl]-<I>N</I>-methylmethanamine

> <PUBCHEM_IUPAC_NAME>
1-[(2S)-2,3-dihydro-1-benzofuran-2-yl]-N-[[2-(4-methoxy-3-methylphenyl)-5-methyl-1,3-oxazol-4-yl]methyl]-N-methylmethanamine

> <PUBCHEM_IUPAC_SYSTEMATIC_NAME>
1-[(2S)-2,3-dihydro-1-benzofuran-2-yl]-N-[[2-(4-methoxy-3-methyl-phenyl)-5-methyl-1,3-oxazol-4-yl]methyl]-N-methyl-methanamine

> <PUBCHEM_IUPAC_TRADITIONAL_NAME>
[(2S)-coumaran-2-yl]methyl-[[2-(4-methoxy-3-methyl-phenyl)-5-methyl-oxazol-4-yl]methyl]-methyl-amine

> <PUBCHEM_IUPAC_INCHI>
InChI=1S/C23H26N2O3/c1-15-11-18(9-10-21(15)26-4)23-24-20(16(2)27-23)14-25(3)13-19-12-17-7-5-6-8-22(17)28-19/h5-11,19H,12-14H2,1-4H3/t19-/m0/s1

> <PUBCHEM_IUPAC_INCHIKEY>
AJMKQHBCAXBYKM-IBGZPJMESA-N

> <PUBCHEM_XLOGP3_AA>
4.4

> <PUBCHEM_EXACT_MASS>
378.19434270

> <PUBCHEM_MOLECULAR_FORMULA>
C23H26N2O3

> <PUBCHEM_MOLECULAR_WEIGHT>
378.5

> <PUBCHEM_OPENEYE_CAN_SMILES>
CC1=C(C=CC(=C1)C2=NC(=C(O2)C)CN(C)CC3CC4=CC=CC=C4O3)OC

> <PUBCHEM_OPENEYE_ISO_SMILES>
CC1=C(C=CC(=C1)C2=NC(=C(O2)C)CN(C)C[C@@H]3CC4=CC=CC=C4O3)OC

> <PUBCHEM_CACTVS_TPSA>
47.7

> <PUBCHEM_MONOISOTOPIC_WEIGHT>
378.19434270

> <PUBCHEM_TOTAL_CHARGE>
0

> <PUBCHEM_HEAVY_ATOM_COUNT>
28

> <PUBCHEM_ATOM_DEF_STEREO_COUNT>
1

> <PUBCHEM_ATOM_UDEF_STEREO_COUNT>
0

> <PUBCHEM_BOND_DEF_STEREO_COUNT>
0

> <PUBCHEM_BOND_UDEF_STEREO_COUNT>
0

> <PUBCHEM_ISOTOPIC_ATOM_COUNT>
0

> <PUBCHEM_COMPONENT_COUNT>
1

> <PUBCHEM_CACTVS_TAUTO_COUNT>
-1

> <PUBCHEM_COORDINATE_TYPE>
1
5
255

> <PUBCHEM_BONDANNOTATIONS>
10  15  8
12  16  8
14  18  8
15  17  8
16  17  8
2  18  8
2  19  8
20  22  8
20  23  8
22  24  8
23  26  8
24  25  8
25  26  8
5  14  8
5  19  8
6  8  5
9  10  8
9  12  8

$$$$
