9840672
  -OEChem-09292322222D

 40 42  0     0  0  0  0  0  0999 V2000
    9.7260   -1.8030    0.0000 F   0  0  0  0  0  0  0  0  0  0  0  0
   10.7260   -2.8030    0.0000 F   0  0  0  0  0  0  0  0  0  0  0  0
    9.7260   -3.8030    0.0000 F   0  0  0  0  0  0  0  0  0  0  0  0
    6.3301   -0.8030    0.0000 O   0  0  0  0  0  0  0  0  0  0  0  0
    8.1424   -3.6077    0.0000 N   0  0  0  0  0  0  0  0  0  0  0  0
    4.5981    1.1970    0.0000 N   0  0  0  0  0  0  0  0  0  0  0  0
    8.1424   -1.9982    0.0000 N   0  0  0  0  0  0  0  0  0  0  0  0
    7.1962   -2.3030    0.0000 C   0  0  0  0  0  0  0  0  0  0  0  0
    7.1962   -3.3030    0.0000 C   0  0  0  0  0  0  0  0  0  0  0  0
    6.3301   -1.8030    0.0000 C   0  0  0  0  0  0  0  0  0  0  0  0
    5.4641    0.6970    0.0000 C   0  0  0  0  0  0  0  0  0  0  0  0
    5.4641   -0.3030    0.0000 C   0  0  0  0  0  0  0  0  0  0  0  0
    4.5981    2.1970    0.0000 C   0  0  0  0  0  0  0  0  0  0  0  0
    8.7260   -2.8030    0.0000 C   0  0  0  0  0  0  0  0  0  0  0  0
    6.3301   -3.8030    0.0000 C   0  0  0  0  0  0  0  0  0  0  0  0
    5.4641   -2.3030    0.0000 C   0  0  0  0  0  0  0  0  0  0  0  0
    3.7320    2.6970    0.0000 C   0  0  0  0  0  0  0  0  0  0  0  0
    5.4641   -3.3030    0.0000 C   0  0  0  0  0  0  0  0  0  0  0  0
    9.7260   -2.8030    0.0000 C   0  0  0  0  0  0  0  0  0  0  0  0
    3.7320    3.6970    0.0000 C   0  0  0  0  0  0  0  0  0  0  0  0
    2.8660    2.1970    0.0000 C   0  0  0  0  0  0  0  0  0  0  0  0
    2.8660    4.1970    0.0000 C   0  0  0  0  0  0  0  0  0  0  0  0
    2.0000    2.6970    0.0000 C   0  0  0  0  0  0  0  0  0  0  0  0
    2.0000    3.6970    0.0000 C   0  0  0  0  0  0  0  0  0  0  0  0
    6.0747    0.5894    0.0000 H   0  0  0  0  0  0  0  0  0  0  0  0
    5.6762    1.2796    0.0000 H   0  0  0  0  0  0  0  0  0  0  0  0
    4.8535   -0.1953    0.0000 H   0  0  0  0  0  0  0  0  0  0  0  0
    5.2520   -0.8856    0.0000 H   0  0  0  0  0  0  0  0  0  0  0  0
    5.2087    2.0894    0.0000 H   0  0  0  0  0  0  0  0  0  0  0  0
    4.8101    2.7796    0.0000 H   0  0  0  0  0  0  0  0  0  0  0  0
    8.3350   -4.1970    0.0000 H   0  0  0  0  0  0  0  0  0  0  0  0
    4.0611    0.8870    0.0000 H   0  0  0  0  0  0  0  0  0  0  0  0
    6.3301   -4.4230    0.0000 H   0  0  0  0  0  0  0  0  0  0  0  0
    4.9272   -1.9930    0.0000 H   0  0  0  0  0  0  0  0  0  0  0  0
    4.9272   -3.6130    0.0000 H   0  0  0  0  0  0  0  0  0  0  0  0
    4.2690    4.0070    0.0000 H   0  0  0  0  0  0  0  0  0  0  0  0
    2.8660    1.5770    0.0000 H   0  0  0  0  0  0  0  0  0  0  0  0
    2.8660    4.8170    0.0000 H   0  0  0  0  0  0  0  0  0  0  0  0
    1.4631    2.3870    0.0000 H   0  0  0  0  0  0  0  0  0  0  0  0
    1.4631    4.0070    0.0000 H   0  0  0  0  0  0  0  0  0  0  0  0
  1 19  1  0  0  0  0
  2 19  1  0  0  0  0
  3 19  1  0  0  0  0
  4 10  1  0  0  0  0
  4 12  1  0  0  0  0
  5  9  1  0  0  0  0
  5 14  1  0  0  0  0
  5 31  1  0  0  0  0
  6 11  1  0  0  0  0
  6 13  1  0  0  0  0
  6 32  1  0  0  0  0
  7  8  1  0  0  0  0
  7 14  2  0  0  0  0
  8  9  2  0  0  0  0
  8 10  1  0  0  0  0
  9 15  1  0  0  0  0
 10 16  2  0  0  0  0
 11 12  1  0  0  0  0
 11 25  1  0  0  0  0
 11 26  1  0  0  0  0
 12 27  1  0  0  0  0
 12 28  1  0  0  0  0
 13 17  1  0  0  0  0
 13 29  1  0  0  0  0
 13 30  1  0  0  0  0
 14 19  1  0  0  0  0
 15 18  2  0  0  0  0
 15 33  1  0  0  0  0
 16 18  1  0  0  0  0
 16 34  1  0  0  0  0
 17 20  2  0  0  0  0
 17 21  1  0  0  0  0
 18 35  1  0  0  0  0
 20 22  1  0  0  0  0
 20 36  1  0  0  0  0
 21 23  2  0  0  0  0
 21 37  1  0  0  0  0
 22 24  2  0  0  0  0
 22 38  1  0  0  0  0
 23 24  1  0  0  0  0
 23 39  1  0  0  0  0
 24 40  1  0  0  0  0
M  END
> <PUBCHEM_COMPOUND_CID>
9840672

> <PUBCHEM_COMPOUND_CANONICALIZED>
1

> <PUBCHEM_CACTVS_COMPLEXITY>
388

> <PUBCHEM_CACTVS_HBOND_ACCEPTOR>
6

> <PUBCHEM_CACTVS_HBOND_DONOR>
2

> <PUBCHEM_CACTVS_ROTATABLE_BOND>
6

> <PUBCHEM_CACTVS_SUBSKEYS>
AAADceB7IYAAAAAAAAAAAAAAAAAAAWAAAAAwYAAAAAAAAFgB9AAAHwAQAAAADAzhnxYx1rbJlACgAyZiZASCiC2hcqAJmaA/fJiObqLEuZuXOCju0BvY6CeQ0AMOAAAAAgAAECAAAAAEAAAgQAAAAAAAAA==

> <PUBCHEM_IUPAC_OPENEYE_NAME>
N-benzyl-2-[[2-(trifluoromethyl)-1H-benzimidazol-4-yl]oxy]ethanamine

> <PUBCHEM_IUPAC_CAS_NAME>
N-(phenylmethyl)-2-[[2-(trifluoromethyl)-1H-benzimidazol-4-yl]oxy]ethanamine

> <PUBCHEM_IUPAC_NAME_MARKUP>
<I>N</I>-benzyl-2-[[2-(trifluoromethyl)-1<I>H</I>-benzimidazol-4-yl]oxy]ethanamine

> <PUBCHEM_IUPAC_NAME>
N-benzyl-2-[[2-(trifluoromethyl)-1H-benzimidazol-4-yl]oxy]ethanamine

> <PUBCHEM_IUPAC_SYSTEMATIC_NAME>
N-(phenylmethyl)-2-[[2-(trifluoromethyl)-1H-benzimidazol-4-yl]oxy]ethanamine

> <PUBCHEM_IUPAC_TRADITIONAL_NAME>
benzyl-[2-[[2-(trifluoromethyl)-1H-benzimidazol-4-yl]oxy]ethyl]amine

> <PUBCHEM_IUPAC_INCHI>
InChI=1S/C17H16F3N3O/c18-17(19,20)16-22-13-7-4-8-14(15(13)23-16)24-10-9-21-11-12-5-2-1-3-6-12/h1-8,21H,9-11H2,(H,22,23)

> <PUBCHEM_IUPAC_INCHIKEY>
BKHJHBMOHZNYEP-UHFFFAOYSA-N

> <PUBCHEM_XLOGP3>
3.3

> <PUBCHEM_EXACT_MASS>
335.12454663

> <PUBCHEM_MOLECULAR_FORMULA>
C17H16F3N3O

> <PUBCHEM_MOLECULAR_WEIGHT>
335.32

> <PUBCHEM_OPENEYE_CAN_SMILES>
C1=CC=C(C=C1)CNCCOC2=CC=CC3=C2N=C(N3)C(F)(F)F

> <PUBCHEM_OPENEYE_ISO_SMILES>
C1=CC=C(C=C1)CNCCOC2=CC=CC3=C2N=C(N3)C(F)(F)F

> <PUBCHEM_CACTVS_TPSA>
49.9

> <PUBCHEM_MONOISOTOPIC_WEIGHT>
335.12454663

> <PUBCHEM_TOTAL_CHARGE>
0

> <PUBCHEM_HEAVY_ATOM_COUNT>
24

> <PUBCHEM_ATOM_DEF_STEREO_COUNT>
0

> <PUBCHEM_ATOM_UDEF_STEREO_COUNT>
0

> <PUBCHEM_BOND_DEF_STEREO_COUNT>
0

> <PUBCHEM_BOND_UDEF_STEREO_COUNT>
0

> <PUBCHEM_ISOTOPIC_ATOM_COUNT>
0

> <PUBCHEM_COMPONENT_COUNT>
1

> <PUBCHEM_CACTVS_TAUTO_COUNT>
-1

> <PUBCHEM_COORDINATE_TYPE>
1
5
255

> <PUBCHEM_BONDANNOTATIONS>
10  16  8
15  18  8
16  18  8
17  20  8
17  21  8
20  22  8
21  23  8
22  24  8
23  24  8
5  14  8
5  9  8
7  14  8
7  8  8
8  10  8
8  9  8
9  15  8

$$$$
