137659809
  -OEChem-09292322392D

 69 70  0     0  0  0  0  0  0999 V2000
    9.7331   18.8067    0.0000 Cl  0  0  0  0  0  0  0  0  0  0  0  0
    7.2699    5.2722    0.0000 S   0  0  0  0  0  0  0  0  0  0  0  0
    6.8631    4.3587    0.0000 S   0  0  0  0  0  0  0  0  0  0  0  0
    0.0000    8.5864    0.0000 F   0  0  0  0  0  0  0  0  0  0  0  0
    0.3660    9.9524    0.0000 F   0  0  0  0  0  0  0  0  0  0  0  0
    1.3660    8.2204    0.0000 F   0  0  0  0  0  0  0  0  0  0  0  0
    7.2331   16.2087    0.0000 O   0  0  0  0  0  0  0  0  0  0  0  0
    5.1350   10.8426    0.0000 O   0  0  0  0  0  0  0  0  0  0  0  0
    2.5981    9.0864    0.0000 O   0  0  0  0  0  0  0  0  0  0  0  0
    1.7320   10.5864    0.0000 O   0  0  0  0  0  0  0  0  0  0  0  0
    7.7331   13.3426    0.0000 N   0  0  0  0  0  0  0  0  0  0  0  0
    6.5010    7.8038    0.0000 N   0  0  0  0  0  0  0  0  0  0  0  0
    5.1920    8.7548    0.0000 N   0  0  0  0  0  0  0  0  0  0  0  0
    5.5010    7.8038    0.0000 N   0  0  0  0  0  0  0  0  0  0  0  0
    7.6320    1.8271    0.0000 N   0  0  0  0  0  0  0  0  0  0  0  0
    7.2252    0.9135    0.0000 N   0  3  0  0  0  0  0  0  0  0  0  0
    6.8185    0.0000    0.0000 N   0  5  0  0  0  0  0  0  0  0  0  0
    7.7331   15.3426    0.0000 C   0  0  0  0  0  0  0  0  0  0  0  0
    8.5991   14.8426    0.0000 C   0  0  0  0  0  0  0  0  0  0  0  0
    6.8671   14.8426    0.0000 C   0  0  0  0  0  0  0  0  0  0  0  0
    8.5991   13.8426    0.0000 C   0  0  0  0  0  0  0  0  0  0  0  0
    6.8671   13.8426    0.0000 C   0  0  0  0  0  0  0  0  0  0  0  0
    7.7331   12.3426    0.0000 C   0  0  0  0  0  0  0  0  0  0  0  0
    8.2331   16.2087    0.0000 C   0  0  0  0  0  0  0  0  0  0  0  0
    6.8671   11.8426    0.0000 C   0  0  0  0  0  0  0  0  0  0  0  0
    9.2331   16.2087    0.0000 C   0  0  0  0  0  0  0  0  0  0  0  0
    7.7331   17.0747    0.0000 C   0  0  0  0  0  0  0  0  0  0  0  0
    6.8671   10.8426    0.0000 C   0  0  0  0  0  0  0  0  0  0  0  0
    9.7331   17.0747    0.0000 C   0  0  0  0  0  0  0  0  0  0  0  0
    8.2331   17.9407    0.0000 C   0  0  0  0  0  0  0  0  0  0  0  0
    9.2331   17.9407    0.0000 C   0  0  0  0  0  0  0  0  0  0  0  0
    6.0010   10.3426    0.0000 C   0  0  0  0  0  0  0  0  0  0  0  0
    6.0010    9.3426    0.0000 C   0  0  0  0  0  0  0  0  0  0  0  0
    6.8100    8.7548    0.0000 C   0  0  0  0  0  0  0  0  0  0  0  0
    7.0888    6.9948    0.0000 C   0  0  0  0  0  0  0  0  0  0  0  0
    6.6821    6.0812    0.0000 C   0  0  0  0  0  0  0  0  0  0  0  0
    7.4509    3.5496    0.0000 C   0  0  0  0  0  0  0  0  0  0  0  0
    7.0442    2.6361    0.0000 C   0  0  0  0  0  0  0  0  0  0  0  0
    0.8660    9.0864    0.0000 C   0  0  0  0  0  0  0  0  0  0  0  0
    1.7320    9.5864    0.0000 C   0  0  0  0  0  0  0  0  0  0  0  0
    9.2097   14.7350    0.0000 H   0  0  0  0  0  0  0  0  0  0  0  0
    8.8112   15.4252    0.0000 H   0  0  0  0  0  0  0  0  0  0  0  0
    6.6550   15.4252    0.0000 H   0  0  0  0  0  0  0  0  0  0  0  0
    6.2565   14.7350    0.0000 H   0  0  0  0  0  0  0  0  0  0  0  0
    8.8112   13.2600    0.0000 H   0  0  0  0  0  0  0  0  0  0  0  0
    9.2097   13.9503    0.0000 H   0  0  0  0  0  0  0  0  0  0  0  0
    6.2565   13.9503    0.0000 H   0  0  0  0  0  0  0  0  0  0  0  0
    6.6550   13.2600    0.0000 H   0  0  0  0  0  0  0  0  0  0  0  0
    7.9451   11.7600    0.0000 H   0  0  0  0  0  0  0  0  0  0  0  0
    8.3437   12.4503    0.0000 H   0  0  0  0  0  0  0  0  0  0  0  0
    6.6550   12.4252    0.0000 H   0  0  0  0  0  0  0  0  0  0  0  0
    6.2565   11.7350    0.0000 H   0  0  0  0  0  0  0  0  0  0  0  0
    6.6131   16.2087    0.0000 H   0  0  0  0  0  0  0  0  0  0  0  0
    9.5431   15.6717    0.0000 H   0  0  0  0  0  0  0  0  0  0  0  0
    7.1131   17.0747    0.0000 H   0  0  0  0  0  0  0  0  0  0  0  0
    7.0791   10.2600    0.0000 H   0  0  0  0  0  0  0  0  0  0  0  0
    7.4776   10.9503    0.0000 H   0  0  0  0  0  0  0  0  0  0  0  0
   10.3531   17.0747    0.0000 H   0  0  0  0  0  0  0  0  0  0  0  0
    7.9231   18.4776    0.0000 H   0  0  0  0  0  0  0  0  0  0  0  0
    7.3997    8.9464    0.0000 H   0  0  0  0  0  0  0  0  0  0  0  0
    7.6028    6.6481    0.0000 H   0  0  0  0  0  0  0  0  0  0  0  0
    7.5195    7.4408    0.0000 H   0  0  0  0  0  0  0  0  0  0  0  0
    6.1681    6.4279    0.0000 H   0  0  0  0  0  0  0  0  0  0  0  0
    6.2514    5.6352    0.0000 H   0  0  0  0  0  0  0  0  0  0  0  0
    7.9649    3.2030    0.0000 H   0  0  0  0  0  0  0  0  0  0  0  0
    7.8816    3.9956    0.0000 H   0  0  0  0  0  0  0  0  0  0  0  0
    6.5302    2.9828    0.0000 H   0  0  0  0  0  0  0  0  0  0  0  0
    6.6135    2.1901    0.0000 H   0  0  0  0  0  0  0  0  0  0  0  0
    3.1350    9.3964    0.0000 H   0  0  0  0  0  0  0  0  0  0  0  0
  1 31  1  0  0  0  0
  2  3  1  0  0  0  0
  2 36  1  0  0  0  0
  3 37  1  0  0  0  0
  4 39  1  0  0  0  0
  5 39  1  0  0  0  0
  6 39  1  0  0  0  0
  7 18  1  0  0  0  0
  7 53  1  0  0  0  0
  8 32  2  0  0  0  0
  9 40  1  0  0  0  0
  9 69  1  0  0  0  0
 10 40  2  0  0  0  0
 11 21  1  0  0  0  0
 11 22  1  0  0  0  0
 11 23  1  0  0  0  0
 12 14  1  0  0  0  0
 12 34  1  0  0  0  0
 12 35  1  0  0  0  0
 13 14  2  0  0  0  0
 13 33  1  0  0  0  0
 15 16  2  0  0  0  0
 15 38  1  0  0  0  0
 16 17  2  0  0  0  0
 18 19  1  0  0  0  0
 18 20  1  0  0  0  0
 18 24  1  0  0  0  0
 19 21  1  0  0  0  0
 19 41  1  0  0  0  0
 19 42  1  0  0  0  0
 20 22  1  0  0  0  0
 20 43  1  0  0  0  0
 20 44  1  0  0  0  0
 21 45  1  0  0  0  0
 21 46  1  0  0  0  0
 22 47  1  0  0  0  0
 22 48  1  0  0  0  0
 23 25  1  0  0  0  0
 23 49  1  0  0  0  0
 23 50  1  0  0  0  0
 24 26  2  0  0  0  0
 24 27  1  0  0  0  0
 25 28  1  0  0  0  0
 25 51  1  0  0  0  0
 25 52  1  0  0  0  0
 26 29  1  0  0  0  0
 26 54  1  0  0  0  0
 27 30  2  0  0  0  0
 27 55  1  0  0  0  0
 28 32  1  0  0  0  0
 28 56  1  0  0  0  0
 28 57  1  0  0  0  0
 29 31  2  0  0  0  0
 29 58  1  0  0  0  0
 30 31  1  0  0  0  0
 30 59  1  0  0  0  0
 32 33  1  0  0  0  0
 33 34  2  0  0  0  0
 34 60  1  0  0  0  0
 35 36  1  0  0  0  0
 35 61  1  0  0  0  0
 35 62  1  0  0  0  0
 36 63  1  0  0  0  0
 36 64  1  0  0  0  0
 37 38  1  0  0  0  0
 37 65  1  0  0  0  0
 37 66  1  0  0  0  0
 38 67  1  0  0  0  0
 38 68  1  0  0  0  0
 39 40  1  0  0  0  0
M  CHG  2  16   1  17  -1
M  END
> <PUBCHEM_COMPOUND_CID>
137659809

> <PUBCHEM_COMPOUND_CANONICALIZED>
1

> <PUBCHEM_CACTVS_COMPLEXITY>
738

> <PUBCHEM_CACTVS_HBOND_ACCEPTOR>
14

> <PUBCHEM_CACTVS_HBOND_DONOR>
2

> <PUBCHEM_CACTVS_ROTATABLE_BOND>
13

> <PUBCHEM_CACTVS_SUBSKEYS>
AAADceB7uYBkAAAAAAAAAAAAAAAAAWAAAAA8QAAAAAAAAAABwAAAHwYICAAADE7F3jS8iJMIAgCqA7T3TAACBAQ3lwAY2AG4esgIZjrBkxCUcIAmwAHI2MeUwOAOhAAAAAAAAAAIAAAAAAAAAAAAAAAAAA==

> <PUBCHEM_IUPAC_OPENEYE_NAME>
1-[1-[2-(2-azidoethyldisulfanyl)ethyl]triazol-4-yl]-4-[4-(4-chlorophenyl)-4-hydroxy-1-piperidyl]butan-1-one;2,2,2-trifluoroacetic acid

> <PUBCHEM_IUPAC_CAS_NAME>
1-[1-[2-(2-azidoethyldisulfanyl)ethyl]-4-triazolyl]-4-[4-(4-chlorophenyl)-4-hydroxy-1-piperidinyl]-1-butanone;2,2,2-trifluoroacetic acid

> <PUBCHEM_IUPAC_NAME_MARKUP>
1-[1-[2-(2-azidoethyldisulfanyl)ethyl]triazol-4-yl]-4-[4-(4-chlorophenyl)-4-hydroxypiperidin-1-yl]butan-1-one;2,2,2-trifluoroacetic acid

> <PUBCHEM_IUPAC_NAME>
1-[1-[2-(2-azidoethyldisulfanyl)ethyl]triazol-4-yl]-4-[4-(4-chlorophenyl)-4-hydroxypiperidin-1-yl]butan-1-one;2,2,2-trifluoroacetic acid

> <PUBCHEM_IUPAC_SYSTEMATIC_NAME>
1-[1-[2-(2-azidoethyldisulfanyl)ethyl]-1,2,3-triazol-4-yl]-4-[4-(4-chlorophenyl)-4-oxidanyl-piperidin-1-yl]butan-1-one;2,2,2-tris(fluoranyl)ethanoic acid

> <PUBCHEM_IUPAC_TRADITIONAL_NAME>
1-[1-[2-(2-azidoethyldisulfanyl)ethyl]triazol-4-yl]-4-[4-(4-chlorophenyl)-4-hydroxy-piperidino]butan-1-one;2,2,2-trifluoroacetic acid

> <PUBCHEM_IUPAC_INCHI>
InChI=1S/C21H28ClN7O2S2.C2HF3O2/c22-18-5-3-17(4-6-18)21(31)7-11-28(12-8-21)10-1-2-20(30)19-16-29(27-25-19)13-15-33-32-14-9-24-26-23;3-2(4,5)1(6)7/h3-6,16,31H,1-2,7-15H2;(H,6,7)

> <PUBCHEM_IUPAC_INCHIKEY>
UUZUZLNDXNAKTF-UHFFFAOYSA-N

> <PUBCHEM_EXACT_MASS>
623.1363070

> <PUBCHEM_MOLECULAR_FORMULA>
C23H29ClF3N7O4S2

> <PUBCHEM_MOLECULAR_WEIGHT>
624.1

> <PUBCHEM_OPENEYE_CAN_SMILES>
C1CN(CCC1(C2=CC=C(C=C2)Cl)O)CCCC(=O)C3=CN(N=N3)CCSSCCN=[N+]=[N-].C(=O)(C(F)(F)F)O

> <PUBCHEM_OPENEYE_ISO_SMILES>
C1CN(CCC1(C2=CC=C(C=C2)Cl)O)CCCC(=O)C3=CN(N=N3)CCSSCCN=[N+]=[N-].C(=O)(C(F)(F)F)O

> <PUBCHEM_CACTVS_TPSA>
174

> <PUBCHEM_MONOISOTOPIC_WEIGHT>
623.1363070

> <PUBCHEM_TOTAL_CHARGE>
0

> <PUBCHEM_HEAVY_ATOM_COUNT>
40

> <PUBCHEM_ATOM_DEF_STEREO_COUNT>
0

> <PUBCHEM_ATOM_UDEF_STEREO_COUNT>
0

> <PUBCHEM_BOND_DEF_STEREO_COUNT>
0

> <PUBCHEM_BOND_UDEF_STEREO_COUNT>
0

> <PUBCHEM_ISOTOPIC_ATOM_COUNT>
0

> <PUBCHEM_COMPONENT_COUNT>
2

> <PUBCHEM_CACTVS_TAUTO_COUNT>
-1

> <PUBCHEM_COORDINATE_TYPE>
1
5
255

> <PUBCHEM_BONDANNOTATIONS>
12  14  8
12  34  8
13  14  8
13  33  8
24  26  8
24  27  8
26  29  8
27  30  8
29  31  8
30  31  8
33  34  8

$$$$
