117870408
  -OEChem-09292322352D

 77 80  0     0  0  0  0  0  0999 V2000
    6.7619    2.9641    0.0000 O   0  0  0  0  0  0  0  0  0  0  0  0
   10.7619   -0.5000    0.0000 N   0  0  0  0  0  0  0  0  0  0  0  0
   12.7619   -0.5000    0.0000 N   0  0  0  0  0  0  0  0  0  0  0  0
   14.2619   -1.3660    0.0000 N   0  0  0  0  0  0  0  0  0  0  0  0
   15.7619   -0.5000    0.0000 N   0  0  0  0  0  0  0  0  0  0  0  0
    6.7619    1.2320    0.0000 N   0  0  0  0  0  0  0  0  0  0  0  0
    3.7320    2.5981    0.0000 N   0  0  0  0  0  0  0  0  0  0  0  0
    4.6783    1.2933    0.0000 N   0  0  0  0  0  0  0  0  0  0  0  0
   11.2619   -1.3660    0.0000 C   0  0  0  0  0  0  0  0  0  0  0  0
   11.2619    0.3660    0.0000 C   0  0  0  0  0  0  0  0  0  0  0  0
   12.2619   -1.3660    0.0000 C   0  0  0  0  0  0  0  0  0  0  0  0
   12.2619    0.3660    0.0000 C   0  0  0  0  0  0  0  0  0  0  0  0
    9.7619   -0.5000    0.0000 C   0  0  0  0  0  0  0  0  0  0  0  0
   13.7619   -0.5000    0.0000 C   0  0  0  0  0  0  0  0  0  0  0  0
    9.2619    0.3660    0.0000 C   0  0  0  0  0  0  0  0  0  0  0  0
   15.7619    1.2320    0.0000 C   0  0  0  0  0  0  0  0  0  0  0  0
   15.7619   -2.2320    0.0000 C   0  0  0  0  0  0  0  0  0  0  0  0
   15.2619    0.3660    0.0000 C   0  0  0  0  0  0  0  0  0  0  0  0
   14.2619    0.3660    0.0000 C   0  0  0  0  0  0  0  0  0  0  0  0
   15.2619   -1.3660    0.0000 C   0  0  0  0  0  0  0  0  0  0  0  0
    8.2619    0.3660    0.0000 C   0  0  0  0  0  0  0  0  0  0  0  0
   16.2619    2.0981    0.0000 C   0  0  0  0  0  0  0  0  0  0  0  0
   14.8959    1.7320    0.0000 C   0  0  0  0  0  0  0  0  0  0  0  0
   16.6279    0.7321    0.0000 C   0  0  0  0  0  0  0  0  0  0  0  0
   16.2619   -3.0981    0.0000 C   0  0  0  0  0  0  0  0  0  0  0  0
   16.6279   -1.7320    0.0000 C   0  0  0  0  0  0  0  0  0  0  0  0
   14.8959   -2.7320    0.0000 C   0  0  0  0  0  0  0  0  0  0  0  0
    7.7619    1.2320    0.0000 C   0  0  0  0  0  0  0  0  0  0  0  0
    6.2619    2.0981    0.0000 C   0  0  0  0  0  0  0  0  0  0  0  0
    5.2619    2.0981    0.0000 C   0  0  0  0  0  0  0  0  0  0  0  0
    4.6783    2.9028    0.0000 C   0  0  0  0  0  0  0  0  0  0  0  0
    3.7320    1.5981    0.0000 C   0  0  0  0  0  0  0  0  0  0  0  0
    2.8660    3.0981    0.0000 C   0  0  0  0  0  0  0  0  0  0  0  0
    2.8660    1.0981    0.0000 C   0  0  0  0  0  0  0  0  0  0  0  0
    2.0000    2.5981    0.0000 C   0  0  0  0  0  0  0  0  0  0  0  0
    2.0000    1.5981    0.0000 C   0  0  0  0  0  0  0  0  0  0  0  0
   10.6793   -1.5781    0.0000 H   0  0  0  0  0  0  0  0  0  0  0  0
   11.3695   -1.9766    0.0000 H   0  0  0  0  0  0  0  0  0  0  0  0
   11.3695    0.9766    0.0000 H   0  0  0  0  0  0  0  0  0  0  0  0
   10.6793    0.5781    0.0000 H   0  0  0  0  0  0  0  0  0  0  0  0
   12.1542   -1.9766    0.0000 H   0  0  0  0  0  0  0  0  0  0  0  0
   12.8445   -1.5781    0.0000 H   0  0  0  0  0  0  0  0  0  0  0  0
   12.8445    0.5781    0.0000 H   0  0  0  0  0  0  0  0  0  0  0  0
   12.1542    0.9766    0.0000 H   0  0  0  0  0  0  0  0  0  0  0  0
    9.1793   -0.7121    0.0000 H   0  0  0  0  0  0  0  0  0  0  0  0
    9.8695   -1.1106    0.0000 H   0  0  0  0  0  0  0  0  0  0  0  0
    9.8445    0.5781    0.0000 H   0  0  0  0  0  0  0  0  0  0  0  0
    9.1542    0.9766    0.0000 H   0  0  0  0  0  0  0  0  0  0  0  0
   13.9519    0.9030    0.0000 H   0  0  0  0  0  0  0  0  0  0  0  0
    7.6793    0.1540    0.0000 H   0  0  0  0  0  0  0  0  0  0  0  0
    8.3695   -0.2446    0.0000 H   0  0  0  0  0  0  0  0  0  0  0  0
   16.7988    1.7881    0.0000 H   0  0  0  0  0  0  0  0  0  0  0  0
   16.5719    2.6350    0.0000 H   0  0  0  0  0  0  0  0  0  0  0  0
   15.7249    2.4081    0.0000 H   0  0  0  0  0  0  0  0  0  0  0  0
   15.2059    2.2690    0.0000 H   0  0  0  0  0  0  0  0  0  0  0  0
   14.3589    2.0420    0.0000 H   0  0  0  0  0  0  0  0  0  0  0  0
   14.5859    1.1951    0.0000 H   0  0  0  0  0  0  0  0  0  0  0  0
   16.3179    0.1951    0.0000 H   0  0  0  0  0  0  0  0  0  0  0  0
   17.1648    0.4221    0.0000 H   0  0  0  0  0  0  0  0  0  0  0  0
   16.9379    1.2690    0.0000 H   0  0  0  0  0  0  0  0  0  0  0  0
   15.7249   -3.4081    0.0000 H   0  0  0  0  0  0  0  0  0  0  0  0
   16.5719   -3.6350    0.0000 H   0  0  0  0  0  0  0  0  0  0  0  0
   16.7988   -2.7881    0.0000 H   0  0  0  0  0  0  0  0  0  0  0  0
   16.9379   -2.2690    0.0000 H   0  0  0  0  0  0  0  0  0  0  0  0
   17.1648   -1.4220    0.0000 H   0  0  0  0  0  0  0  0  0  0  0  0
   16.3179   -1.1951    0.0000 H   0  0  0  0  0  0  0  0  0  0  0  0
   14.5859   -2.1951    0.0000 H   0  0  0  0  0  0  0  0  0  0  0  0
   14.3589   -3.0420    0.0000 H   0  0  0  0  0  0  0  0  0  0  0  0
   15.2059   -3.2690    0.0000 H   0  0  0  0  0  0  0  0  0  0  0  0
    8.3445    1.4441    0.0000 H   0  0  0  0  0  0  0  0  0  0  0  0
    7.6542    1.8426    0.0000 H   0  0  0  0  0  0  0  0  0  0  0  0
    6.4519    0.6951    0.0000 H   0  0  0  0  0  0  0  0  0  0  0  0
    4.8709    3.4921    0.0000 H   0  0  0  0  0  0  0  0  0  0  0  0
    2.8660    3.7181    0.0000 H   0  0  0  0  0  0  0  0  0  0  0  0
    2.8660    0.4781    0.0000 H   0  0  0  0  0  0  0  0  0  0  0  0
    1.4631    2.9081    0.0000 H   0  0  0  0  0  0  0  0  0  0  0  0
    1.4631    1.2881    0.0000 H   0  0  0  0  0  0  0  0  0  0  0  0
  1 29  2  0  0  0  0
  2  9  1  0  0  0  0
  2 10  1  0  0  0  0
  2 13  1  0  0  0  0
  3 11  1  0  0  0  0
  3 12  1  0  0  0  0
  3 14  1  0  0  0  0
  4 14  2  0  0  0  0
  4 20  1  0  0  0  0
  5 18  1  0  0  0  0
  5 20  2  0  0  0  0
  6 28  1  0  0  0  0
  6 29  1  0  0  0  0
  6 72  1  0  0  0  0
  7 31  1  0  0  0  0
  7 32  1  0  0  0  0
  7 33  1  0  0  0  0
  8 30  1  0  0  0  0
  8 32  2  0  0  0  0
  9 11  1  0  0  0  0
  9 37  1  0  0  0  0
  9 38  1  0  0  0  0
 10 12  1  0  0  0  0
 10 39  1  0  0  0  0
 10 40  1  0  0  0  0
 11 41  1  0  0  0  0
 11 42  1  0  0  0  0
 12 43  1  0  0  0  0
 12 44  1  0  0  0  0
 13 15  1  0  0  0  0
 13 45  1  0  0  0  0
 13 46  1  0  0  0  0
 14 19  1  0  0  0  0
 15 21  1  0  0  0  0
 15 47  1  0  0  0  0
 15 48  1  0  0  0  0
 16 18  1  0  0  0  0
 16 22  1  0  0  0  0
 16 23  1  0  0  0  0
 16 24  1  0  0  0  0
 17 20  1  0  0  0  0
 17 25  1  0  0  0  0
 17 26  1  0  0  0  0
 17 27  1  0  0  0  0
 18 19  2  0  0  0  0
 19 49  1  0  0  0  0
 21 28  1  0  0  0  0
 21 50  1  0  0  0  0
 21 51  1  0  0  0  0
 22 52  1  0  0  0  0
 22 53  1  0  0  0  0
 22 54  1  0  0  0  0
 23 55  1  0  0  0  0
 23 56  1  0  0  0  0
 23 57  1  0  0  0  0
 24 58  1  0  0  0  0
 24 59  1  0  0  0  0
 24 60  1  0  0  0  0
 25 61  1  0  0  0  0
 25 62  1  0  0  0  0
 25 63  1  0  0  0  0
 26 64  1  0  0  0  0
 26 65  1  0  0  0  0
 26 66  1  0  0  0  0
 27 67  1  0  0  0  0
 27 68  1  0  0  0  0
 27 69  1  0  0  0  0
 28 70  1  0  0  0  0
 28 71  1  0  0  0  0
 29 30  1  0  0  0  0
 30 31  2  0  0  0  0
 31 73  1  0  0  0  0
 32 34  1  0  0  0  0
 33 35  2  0  0  0  0
 33 74  1  0  0  0  0
 34 36  2  0  0  0  0
 34 75  1  0  0  0  0
 35 36  1  0  0  0  0
 35 76  1  0  0  0  0
 36 77  1  0  0  0  0
M  END
> <PUBCHEM_COMPOUND_CID>
117870408

> <PUBCHEM_COMPOUND_CANONICALIZED>
1

> <PUBCHEM_CACTVS_COMPLEXITY>
710

> <PUBCHEM_CACTVS_HBOND_ACCEPTOR>
6

> <PUBCHEM_CACTVS_HBOND_DONOR>
1

> <PUBCHEM_CACTVS_ROTATABLE_BOND>
9

> <PUBCHEM_CACTVS_SUBSKEYS>
AAADcfB7oAAAAAAAAAAAAAAAAAAAAWAAAAAsWLAAAAAAAFgB+AAAHgAQAAAADgjBlwQ/sJ/MGACoATd3dACCgC03EqAJ2KG4dNiIaOrA2fGUJIholgLIyOYQAAANAAAAAAAAAAAAAAAAAAAAAAAAAAAAAA==

> <PUBCHEM_IUPAC_OPENEYE_NAME>
N-[4-[4-(2,6-ditert-butylpyrimidin-4-yl)piperazin-1-yl]butyl]imidazo[1,2-a]pyridine-2-carboxamide

> <PUBCHEM_IUPAC_CAS_NAME>
N-[4-[4-(2,6-ditert-butyl-4-pyrimidinyl)-1-piperazinyl]butyl]-2-imidazo[1,2-a]pyridinecarboxamide

> <PUBCHEM_IUPAC_NAME_MARKUP>
<I>N</I>-[4-[4-(2,6-di<I>tert</I>-butylpyrimidin-4-yl)piperazin-1-yl]butyl]imidazo[1,2-a]pyridine-2-carboxamide

> <PUBCHEM_IUPAC_NAME>
N-[4-[4-(2,6-ditert-butylpyrimidin-4-yl)piperazin-1-yl]butyl]imidazo[1,2-a]pyridine-2-carboxamide

> <PUBCHEM_IUPAC_SYSTEMATIC_NAME>
N-[4-[4-(2,6-ditert-butylpyrimidin-4-yl)piperazin-1-yl]butyl]imidazo[1,2-a]pyridine-2-carboxamide

> <PUBCHEM_IUPAC_TRADITIONAL_NAME>
N-[4-[4-(2,6-ditert-butylpyrimidin-4-yl)piperazino]butyl]imidazo[1,2-a]pyridine-2-carboxamide

> <PUBCHEM_IUPAC_INCHI>
InChI=1S/C28H41N7O/c1-27(2,3)22-19-24(32-26(31-22)28(4,5)6)34-17-15-33(16-18-34)13-10-8-12-29-25(36)21-20-35-14-9-7-11-23(35)30-21/h7,9,11,14,19-20H,8,10,12-13,15-18H2,1-6H3,(H,29,36)

> <PUBCHEM_IUPAC_INCHIKEY>
BSVRQWRWWJQETN-UHFFFAOYSA-N

> <PUBCHEM_XLOGP3_AA>
5.7

> <PUBCHEM_EXACT_MASS>
491.33725896

> <PUBCHEM_MOLECULAR_FORMULA>
C28H41N7O

> <PUBCHEM_MOLECULAR_WEIGHT>
491.7

> <PUBCHEM_OPENEYE_CAN_SMILES>
CC(C)(C)C1=CC(=NC(=N1)C(C)(C)C)N2CCN(CC2)CCCCNC(=O)C3=CN4C=CC=CC4=N3

> <PUBCHEM_OPENEYE_ISO_SMILES>
CC(C)(C)C1=CC(=NC(=N1)C(C)(C)C)N2CCN(CC2)CCCCNC(=O)C3=CN4C=CC=CC4=N3

> <PUBCHEM_CACTVS_TPSA>
78.7

> <PUBCHEM_MONOISOTOPIC_WEIGHT>
491.33725896

> <PUBCHEM_TOTAL_CHARGE>
0

> <PUBCHEM_HEAVY_ATOM_COUNT>
36

> <PUBCHEM_ATOM_DEF_STEREO_COUNT>
0

> <PUBCHEM_ATOM_UDEF_STEREO_COUNT>
0

> <PUBCHEM_BOND_DEF_STEREO_COUNT>
0

> <PUBCHEM_BOND_UDEF_STEREO_COUNT>
0

> <PUBCHEM_ISOTOPIC_ATOM_COUNT>
0

> <PUBCHEM_COMPONENT_COUNT>
1

> <PUBCHEM_CACTVS_TAUTO_COUNT>
-1

> <PUBCHEM_COORDINATE_TYPE>
1
5
255

> <PUBCHEM_BONDANNOTATIONS>
14  19  8
18  19  8
30  31  8
32  34  8
33  35  8
34  36  8
35  36  8
4  14  8
4  20  8
5  18  8
5  20  8
7  31  8
7  32  8
7  33  8
8  30  8
8  32  8

$$$$
