127046255
  -OEChem-09292322002D

 43 45  0     1  0  0  0  0  0999 V2000
    4.8714    2.2369    0.0000 O   0  0  0  0  0  0  0  0  0  0  0  0
    4.6660    0.4913    0.0000 N   0  0  0  0  0  0  0  0  0  0  0  0
    3.3073    1.4352    0.0000 N   0  0  0  0  0  0  0  0  0  0  0  0
    6.3981   -1.5087    0.0000 N   0  0  0  0  0  0  0  0  0  0  0  0
    5.5321   -1.0087    0.0000 C   0  0  1  0  0  0  0  0  0  0  0  0
    5.5321   -0.0087    0.0000 C   0  0  0  0  0  0  0  0  0  0  0  0
    4.6660   -1.5087    0.0000 C   0  0  0  0  0  0  0  0  0  0  0  0
    3.8000   -0.0087    0.0000 C   0  0  0  0  0  0  0  0  0  0  0  0
    3.8000   -1.0087    0.0000 C   0  0  0  0  0  0  0  0  0  0  0  0
    2.9061    0.5260    0.0000 C   0  0  0  0  0  0  0  0  0  0  0  0
    4.3009    1.4156    0.0000 C   0  0  0  0  0  0  0  0  0  0  0  0
    2.9061   -1.5433    0.0000 C   0  0  0  0  0  0  0  0  0  0  0  0
    2.7696    2.2783    0.0000 C   0  0  0  0  0  0  0  0  0  0  0  0
    2.0000    0.0121    0.0000 C   0  0  0  0  0  0  0  0  0  0  0  0
    6.3981   -2.5087    0.0000 C   0  0  0  0  0  0  0  0  0  0  0  0
    2.0000   -1.0295    0.0000 C   0  0  0  0  0  0  0  0  0  0  0  0
    3.2308    3.1656    0.0000 C   0  0  0  0  0  0  0  0  0  0  0  0
    7.2641   -3.0087    0.0000 C   0  0  0  0  0  0  0  0  0  0  0  0
    2.6931    4.0087    0.0000 C   0  0  0  0  0  0  0  0  0  0  0  0
    7.2641   -4.0087    0.0000 C   0  0  0  0  0  0  0  0  0  0  0  0
    5.5321   -1.6287    0.0000 H   0  0  0  0  0  0  0  0  0  0  0  0
    6.1426   -0.1163    0.0000 H   0  0  0  0  0  0  0  0  0  0  0  0
    5.7441    0.5739    0.0000 H   0  0  0  0  0  0  0  0  0  0  0  0
    4.2675   -1.9836    0.0000 H   0  0  0  0  0  0  0  0  0  0  0  0
    5.0646   -1.9836    0.0000 H   0  0  0  0  0  0  0  0  0  0  0  0
    6.9350   -1.1987    0.0000 H   0  0  0  0  0  0  0  0  0  0  0  0
    2.9132   -2.1633    0.0000 H   0  0  0  0  0  0  0  0  0  0  0  0
    2.2775    2.6555    0.0000 H   0  0  0  0  0  0  0  0  0  0  0  0
    2.3127    1.8592    0.0000 H   0  0  0  0  0  0  0  0  0  0  0  0
    1.4643    0.3242    0.0000 H   0  0  0  0  0  0  0  0  0  0  0  0
    5.7875   -2.4010    0.0000 H   0  0  0  0  0  0  0  0  0  0  0  0
    6.1860   -3.0913    0.0000 H   0  0  0  0  0  0  0  0  0  0  0  0
    1.4643   -1.3416    0.0000 H   0  0  0  0  0  0  0  0  0  0  0  0
    3.7229    2.7884    0.0000 H   0  0  0  0  0  0  0  0  0  0  0  0
    3.6877    3.5847    0.0000 H   0  0  0  0  0  0  0  0  0  0  0  0
    7.8747   -3.1163    0.0000 H   0  0  0  0  0  0  0  0  0  0  0  0
    7.4762   -2.4261    0.0000 H   0  0  0  0  0  0  0  0  0  0  0  0
    3.2158    4.3421    0.0000 H   0  0  0  0  0  0  0  0  0  0  0  0
    2.3597    4.5314    0.0000 H   0  0  0  0  0  0  0  0  0  0  0  0
    2.1704    3.6753    0.0000 H   0  0  0  0  0  0  0  0  0  0  0  0
    6.6441   -4.0087    0.0000 H   0  0  0  0  0  0  0  0  0  0  0  0
    7.2641   -4.6287    0.0000 H   0  0  0  0  0  0  0  0  0  0  0  0
    7.8841   -4.0087    0.0000 H   0  0  0  0  0  0  0  0  0  0  0  0
  1 11  2  0  0  0  0
  2  6  1  0  0  0  0
  2  8  1  0  0  0  0
  2 11  1  0  0  0  0
  3 10  1  0  0  0  0
  3 11  1  0  0  0  0
  3 13  1  0  0  0  0
  5  4  1  6  0  0  0
  4 15  1  0  0  0  0
  4 26  1  0  0  0  0
  5  6  1  0  0  0  0
  5  7  1  0  0  0  0
  5 21  1  0  0  0  0
  6 22  1  0  0  0  0
  6 23  1  0  0  0  0
  7  9  1  0  0  0  0
  7 24  1  0  0  0  0
  7 25  1  0  0  0  0
  8  9  2  0  0  0  0
  8 10  1  0  0  0  0
  9 12  1  0  0  0  0
 10 14  2  0  0  0  0
 12 16  2  0  0  0  0
 12 27  1  0  0  0  0
 13 17  1  0  0  0  0
 13 28  1  0  0  0  0
 13 29  1  0  0  0  0
 14 16  1  0  0  0  0
 14 30  1  0  0  0  0
 15 18  1  0  0  0  0
 15 31  1  0  0  0  0
 15 32  1  0  0  0  0
 16 33  1  0  0  0  0
 17 19  1  0  0  0  0
 17 34  1  0  0  0  0
 17 35  1  0  0  0  0
 18 20  1  0  0  0  0
 18 36  1  0  0  0  0
 18 37  1  0  0  0  0
 19 38  1  0  0  0  0
 19 39  1  0  0  0  0
 19 40  1  0  0  0  0
 20 41  1  0  0  0  0
 20 42  1  0  0  0  0
 20 43  1  0  0  0  0
M  END
> <PUBCHEM_COMPOUND_CID>
127046255

> <PUBCHEM_COMPOUND_CANONICALIZED>
1

> <PUBCHEM_CACTVS_COMPLEXITY>
360

> <PUBCHEM_CACTVS_HBOND_ACCEPTOR>
2

> <PUBCHEM_CACTVS_HBOND_DONOR>
1

> <PUBCHEM_CACTVS_ROTATABLE_BOND>
5

> <PUBCHEM_CACTVS_SUBSKEYS>
AAADceB7IAAAAAAAAAAAAAAAAAAAAWAAAAA8QAAAAAAAAFixAAAAHgAQAAAADCjBGAQzwIPAAACIAiRCUACCAAAhAgAIiIAIdIiIYCLAkZGUIAholgLIyCcQgIAOAAAAQAACACAAAACAAAQAQAAAAAAAAA==

> <PUBCHEM_IUPAC_OPENEYE_NAME>
(10R)-3-propyl-10-(propylamino)-1,3-diazatricyclo[6.3.1.04,12]dodeca-4,6,8(12)-trien-2-one

> <PUBCHEM_IUPAC_CAS_NAME>
(10R)-3-propyl-10-(propylamino)-1,3-diazatricyclo[6.3.1.04,12]dodeca-4,6,8(12)-trien-2-one

> <PUBCHEM_IUPAC_NAME_MARKUP>
(10<I>R</I>)-3-propyl-10-(propylamino)-1,3-diazatricyclo[6.3.1.0<SUP>4,12</SUP>]dodeca-4,6,8(12)-trien-2-one

> <PUBCHEM_IUPAC_NAME>
(10R)-3-propyl-10-(propylamino)-1,3-diazatricyclo[6.3.1.04,12]dodeca-4,6,8(12)-trien-2-one

> <PUBCHEM_IUPAC_SYSTEMATIC_NAME>
(10R)-3-propyl-10-(propylamino)-1,3-diazatricyclo[6.3.1.04,12]dodeca-4,6,8(12)-trien-2-one

> <PUBCHEM_IUPAC_TRADITIONAL_NAME>
(10R)-3-propyl-10-(propylamino)-1,3-diazatricyclo[6.3.1.04,12]dodeca-4,6,8(12)-trien-2-one

> <PUBCHEM_IUPAC_INCHI>
InChI=1S/C16H23N3O/c1-3-8-17-13-10-12-6-5-7-14-15(12)19(11-13)16(20)18(14)9-4-2/h5-7,13,17H,3-4,8-11H2,1-2H3/t13-/m1/s1

> <PUBCHEM_IUPAC_INCHIKEY>
FHJKGVBVLIXGIQ-CYBMUJFWSA-N

> <PUBCHEM_XLOGP3_AA>
2.4

> <PUBCHEM_EXACT_MASS>
273.184112366

> <PUBCHEM_MOLECULAR_FORMULA>
C16H23N3O

> <PUBCHEM_MOLECULAR_WEIGHT>
273.37

> <PUBCHEM_OPENEYE_CAN_SMILES>
CCCNC1CC2=C3C(=CC=C2)N(C(=O)N3C1)CCC

> <PUBCHEM_OPENEYE_ISO_SMILES>
CCCN[C@@H]1CC2=C3C(=CC=C2)N(C(=O)N3C1)CCC

> <PUBCHEM_CACTVS_TPSA>
35.6

> <PUBCHEM_MONOISOTOPIC_WEIGHT>
273.184112366

> <PUBCHEM_TOTAL_CHARGE>
0

> <PUBCHEM_HEAVY_ATOM_COUNT>
20

> <PUBCHEM_ATOM_DEF_STEREO_COUNT>
1

> <PUBCHEM_ATOM_UDEF_STEREO_COUNT>
0

> <PUBCHEM_BOND_DEF_STEREO_COUNT>
0

> <PUBCHEM_BOND_UDEF_STEREO_COUNT>
0

> <PUBCHEM_ISOTOPIC_ATOM_COUNT>
0

> <PUBCHEM_COMPONENT_COUNT>
1

> <PUBCHEM_CACTVS_TAUTO_COUNT>
-1

> <PUBCHEM_COORDINATE_TYPE>
1
5
255

> <PUBCHEM_BONDANNOTATIONS>
10  14  8
12  16  8
14  16  8
2  11  8
2  8  8
3  10  8
3  11  8
5  4  6
8  10  8
8  9  8
9  12  8

$$$$
