71458040
  -OEChem-09292322222D

 48 51  0     1  0  0  0  0  0999 V2000
    6.2781   -0.8016    0.0000 N   0  0  3  0  0  0  0  0  0  0  0  0
    4.6783   -4.5184    0.0000 N   0  0  0  0  0  0  0  0  0  0  0  0
    2.8660   -4.7136    0.0000 N   0  0  0  0  0  0  0  0  0  0  0  0
    7.2566   -0.5954    0.0000 C   0  0  0  0  0  0  0  0  0  0  0  0
    5.9674   -1.7522    0.0000 C   0  0  0  0  0  0  0  0  0  0  0  0
    5.6103   -0.0573    0.0000 C   0  0  0  0  0  0  0  0  0  0  0  0
    7.5673    0.3551    0.0000 C   0  0  0  0  0  0  0  0  0  0  0  0
    4.9889   -1.9584    0.0000 C   0  0  0  0  0  0  0  0  0  0  0  0
    6.8994    1.0994    0.0000 C   0  0  0  0  0  0  0  0  0  0  0  0
    5.9209    0.8932    0.0000 C   0  0  0  0  0  0  0  0  0  0  0  0
    4.6783   -2.9089    0.0000 C   0  0  0  0  0  0  0  0  0  0  0  0
    3.7320   -3.2136    0.0000 C   0  0  0  0  0  0  0  0  0  0  0  0
    5.2619   -3.7136    0.0000 C   0  0  0  0  0  0  0  0  0  0  0  0
    7.2101    2.0499    0.0000 C   0  0  0  0  0  0  0  0  0  0  0  0
    3.7320   -4.2136    0.0000 C   0  0  0  0  0  0  0  0  0  0  0  0
    2.8660   -2.7136    0.0000 C   0  0  0  0  0  0  0  0  0  0  0  0
    8.1886    2.2561    0.0000 C   0  0  0  0  0  0  0  0  0  0  0  0
    2.0000   -3.2136    0.0000 C   0  0  0  0  0  0  0  0  0  0  0  0
    2.0000   -4.2136    0.0000 C   0  0  0  0  0  0  0  0  0  0  0  0
    8.4993    3.2066    0.0000 C   0  0  0  0  0  0  0  0  0  0  0  0
    9.4778    3.4129    0.0000 C   0  0  0  0  0  0  0  0  0  0  0  0
    7.8314    3.9510    0.0000 C   0  0  0  0  0  0  0  0  0  0  0  0
    9.7884    4.3634    0.0000 C   0  0  0  0  0  0  0  0  0  0  0  0
    8.1421    4.9015    0.0000 C   0  0  0  0  0  0  0  0  0  0  0  0
    9.1206    5.1077    0.0000 C   0  0  0  0  0  0  0  0  0  0  0  0
    7.2772   -1.2151    0.0000 H   0  0  0  0  0  0  0  0  0  0  0  0
    7.8704   -0.6828    0.0000 H   0  0  0  0  0  0  0  0  0  0  0  0
    5.9880   -2.3718    0.0000 H   0  0  0  0  0  0  0  0  0  0  0  0
    6.5812   -1.8395    0.0000 H   0  0  0  0  0  0  0  0  0  0  0  0
    5.0633    0.2347    0.0000 H   0  0  0  0  0  0  0  0  0  0  0  0
    5.2277   -0.5453    0.0000 H   0  0  0  0  0  0  0  0  0  0  0  0
    8.1142    0.0631    0.0000 H   0  0  0  0  0  0  0  0  0  0  0  0
    7.9498    0.8430    0.0000 H   0  0  0  0  0  0  0  0  0  0  0  0
    4.9684   -1.3387    0.0000 H   0  0  0  0  0  0  0  0  0  0  0  0
    4.3751   -1.8710    0.0000 H   0  0  0  0  0  0  0  0  0  0  0  0
    5.5069    1.3546    0.0000 H   0  0  0  0  0  0  0  0  0  0  0  0
    5.8819   -3.7136    0.0000 H   0  0  0  0  0  0  0  0  0  0  0  0
    6.7960    2.5114    0.0000 H   0  0  0  0  0  0  0  0  0  0  0  0
    4.8709   -5.1077    0.0000 H   0  0  0  0  0  0  0  0  0  0  0  0
    2.8660   -2.0936    0.0000 H   0  0  0  0  0  0  0  0  0  0  0  0
    8.6027    1.7947    0.0000 H   0  0  0  0  0  0  0  0  0  0  0  0
    1.4631   -2.9036    0.0000 H   0  0  0  0  0  0  0  0  0  0  0  0
    1.4631   -4.5236    0.0000 H   0  0  0  0  0  0  0  0  0  0  0  0
    9.8918    2.9514    0.0000 H   0  0  0  0  0  0  0  0  0  0  0  0
    7.2247    3.8231    0.0000 H   0  0  0  0  0  0  0  0  0  0  0  0
   10.3951    4.4912    0.0000 H   0  0  0  0  0  0  0  0  0  0  0  0
    7.7280    5.3629    0.0000 H   0  0  0  0  0  0  0  0  0  0  0  0
    9.3132    5.6970    0.0000 H   0  0  0  0  0  0  0  0  0  0  0  0
  1  4  1  0  0  0  0
  1  5  1  0  0  0  0
  1  6  1  0  0  0  0
  2 13  1  0  0  0  0
  2 15  1  0  0  0  0
  2 39  1  0  0  0  0
  3 15  1  0  0  0  0
  3 19  2  0  0  0  0
  4  7  1  0  0  0  0
  4 26  1  0  0  0  0
  4 27  1  0  0  0  0
  5  8  1  0  0  0  0
  5 28  1  0  0  0  0
  5 29  1  0  0  0  0
  6 10  1  0  0  0  0
  6 30  1  0  0  0  0
  6 31  1  0  0  0  0
  7  9  1  0  0  0  0
  7 32  1  0  0  0  0
  7 33  1  0  0  0  0
  8 11  1  0  0  0  0
  8 34  1  0  0  0  0
  8 35  1  0  0  0  0
  9 10  2  0  0  0  0
  9 14  1  0  0  0  0
 10 36  1  0  0  0  0
 11 12  1  0  0  0  0
 11 13  2  0  0  0  0
 12 15  2  0  0  0  0
 12 16  1  0  0  0  0
 13 37  1  0  0  0  0
 14 17  2  0  0  0  0
 14 38  1  0  0  0  0
 16 18  2  0  0  0  0
 16 40  1  0  0  0  0
 17 20  1  0  0  0  0
 17 41  1  0  0  0  0
 18 19  1  0  0  0  0
 18 42  1  0  0  0  0
 19 43  1  0  0  0  0
 20 21  2  0  0  0  0
 20 22  1  0  0  0  0
 21 23  1  0  0  0  0
 21 44  1  0  0  0  0
 22 24  2  0  0  0  0
 22 45  1  0  0  0  0
 23 25  2  0  0  0  0
 23 46  1  0  0  0  0
 24 25  1  0  0  0  0
 24 47  1  0  0  0  0
 25 48  1  0  0  0  0
M  END
> <PUBCHEM_COMPOUND_CID>
71458040

> <PUBCHEM_COMPOUND_CANONICALIZED>
1

> <PUBCHEM_CACTVS_COMPLEXITY>
478

> <PUBCHEM_CACTVS_HBOND_ACCEPTOR>
2

> <PUBCHEM_CACTVS_HBOND_DONOR>
1

> <PUBCHEM_CACTVS_ROTATABLE_BOND>
5

> <PUBCHEM_CACTVS_SUBSKEYS>
AAADceB7AAAAAAAAAAAAAAAAAAAAAWAAAAA8QIAAAAAAAFgB/AAAHAAQAAAADADBGwQ9sN/JkACgAjJnZACCgCmxAqAJ2aA4ZJiIKOLAmZGEIAhogALIyCcQgAAOgAAAAAAAAAAAAAAAAAAAAAAAAAAAAA==

> <PUBCHEM_IUPAC_OPENEYE_NAME>
3-[2-[4-[(E)-styryl]-3,6-dihydro-2H-pyridin-1-yl]ethyl]-1H-pyrrolo[2,3-b]pyridine

> <PUBCHEM_IUPAC_CAS_NAME>
3-[2-[4-[(E)-2-phenylethenyl]-3,6-dihydro-2H-pyridin-1-yl]ethyl]-1H-pyrrolo[2,3-b]pyridine

> <PUBCHEM_IUPAC_NAME_MARKUP>
3-[2-[4-[(<I>E</I>)-2-phenylethenyl]-3,6-dihydro-2<I>H</I>-pyridin-1-yl]ethyl]-1<I>H</I>-pyrrolo[2,3-b]pyridine

> <PUBCHEM_IUPAC_NAME>
3-[2-[4-[(E)-2-phenylethenyl]-3,6-dihydro-2H-pyridin-1-yl]ethyl]-1H-pyrrolo[2,3-b]pyridine

> <PUBCHEM_IUPAC_SYSTEMATIC_NAME>
3-[2-[4-[(E)-2-phenylethenyl]-3,6-dihydro-2H-pyridin-1-yl]ethyl]-1H-pyrrolo[2,3-b]pyridine

> <PUBCHEM_IUPAC_TRADITIONAL_NAME>
3-[2-[4-[(E)-styryl]-3,6-dihydro-2H-pyridin-1-yl]ethyl]-1H-pyrrolo[2,3-b]pyridine

> <PUBCHEM_IUPAC_INCHI>
InChI=1S/C22H23N3/c1-2-5-18(6-3-1)8-9-19-10-14-25(15-11-19)16-12-20-17-24-22-21(20)7-4-13-23-22/h1-10,13,17H,11-12,14-16H2,(H,23,24)/b9-8+

> <PUBCHEM_IUPAC_INCHIKEY>
XVYIADYYFNGCJZ-CMDGGOBGSA-N

> <PUBCHEM_XLOGP3_AA>
4.1

> <PUBCHEM_EXACT_MASS>
329.189197746

> <PUBCHEM_MOLECULAR_FORMULA>
C22H23N3

> <PUBCHEM_MOLECULAR_WEIGHT>
329.4

> <PUBCHEM_OPENEYE_CAN_SMILES>
C1CN(CC=C1C=CC2=CC=CC=C2)CCC3=CNC4=C3C=CC=N4

> <PUBCHEM_OPENEYE_ISO_SMILES>
C1CN(CC=C1/C=C/C2=CC=CC=C2)CCC3=CNC4=C3C=CC=N4

> <PUBCHEM_CACTVS_TPSA>
31.9

> <PUBCHEM_MONOISOTOPIC_WEIGHT>
329.189197746

> <PUBCHEM_TOTAL_CHARGE>
0

> <PUBCHEM_HEAVY_ATOM_COUNT>
25

> <PUBCHEM_ATOM_DEF_STEREO_COUNT>
0

> <PUBCHEM_ATOM_UDEF_STEREO_COUNT>
0

> <PUBCHEM_BOND_DEF_STEREO_COUNT>
1

> <PUBCHEM_BOND_UDEF_STEREO_COUNT>
0

> <PUBCHEM_ISOTOPIC_ATOM_COUNT>
0

> <PUBCHEM_COMPONENT_COUNT>
1

> <PUBCHEM_CACTVS_TAUTO_COUNT>
-1

> <PUBCHEM_COORDINATE_TYPE>
1
5
255

> <PUBCHEM_BONDANNOTATIONS>
11  12  8
11  13  8
12  15  8
12  16  8
16  18  8
18  19  8
2  13  8
2  15  8
20  21  8
20  22  8
21  23  8
22  24  8
23  25  8
24  25  8
3  15  8
3  19  8

$$$$
