127028185
  -OEChem-09292322472D

 45 48  0     1  0  0  0  0  0999 V2000
   10.8405   -2.8113    0.0000 Cl  0  0  0  0  0  0  0  0  0  0  0  0
    2.0000   -1.3069    0.0000 F   0  0  0  0  0  0  0  0  0  0  0  0
    8.7905    2.0670    0.0000 O   0  0  0  0  0  0  0  0  0  0  0  0
   10.1262    0.5784    0.0000 O   0  0  0  0  0  0  0  0  0  0  0  0
    6.8335    1.6545    0.0000 N   0  0  3  0  0  0  0  0  0  0  0  0
    5.5443   -1.1117    0.0000 N   0  0  0  0  0  0  0  0  0  0  0  0
   10.4833   -1.1164    0.0000 N   0  0  0  0  0  0  0  0  0  0  0  0
    7.5013    0.9102    0.0000 C   0  0  0  0  0  0  0  0  0  0  0  0
    8.4798    1.1164    0.0000 C   0  0  1  0  0  0  0  0  0  0  0  0
    7.1441    2.6051    0.0000 C   0  0  0  0  0  0  0  0  0  0  0  0
    5.8550    1.4483    0.0000 C   0  0  0  0  0  0  0  0  0  0  0  0
    8.1226    2.8113    0.0000 C   0  0  0  0  0  0  0  0  0  0  0  0
    5.5443    0.4978    0.0000 C   0  0  0  0  0  0  0  0  0  0  0  0
    9.1477    0.3722    0.0000 C   0  0  0  0  0  0  0  0  0  0  0  0
    4.5981    0.1931    0.0000 C   0  0  0  0  0  0  0  0  0  0  0  0
    6.1279   -0.3069    0.0000 C   0  0  0  0  0  0  0  0  0  0  0  0
    4.5981   -0.8069    0.0000 C   0  0  0  0  0  0  0  0  0  0  0  0
    3.7320    0.6931    0.0000 C   0  0  0  0  0  0  0  0  0  0  0  0
    3.7320   -1.3069    0.0000 C   0  0  0  0  0  0  0  0  0  0  0  0
    2.8660    0.1931    0.0000 C   0  0  0  0  0  0  0  0  0  0  0  0
    2.8660   -0.8069    0.0000 C   0  0  0  0  0  0  0  0  0  0  0  0
   10.7940   -0.1659    0.0000 C   0  0  0  0  0  0  0  0  0  0  0  0
   11.7725    0.0403    0.0000 C   0  0  0  0  0  0  0  0  0  0  0  0
   12.4404   -0.7040    0.0000 C   0  0  0  0  0  0  0  0  0  0  0  0
   11.1512   -1.8608    0.0000 C   0  0  0  0  0  0  0  0  0  0  0  0
   12.1297   -1.6545    0.0000 C   0  0  0  0  0  0  0  0  0  0  0  0
    6.9750    0.5826    0.0000 H   0  0  0  0  0  0  0  0  0  0  0  0
    7.7326    0.3350    0.0000 H   0  0  0  0  0  0  0  0  0  0  0  0
    9.0865    1.2443    0.0000 H   0  0  0  0  0  0  0  0  0  0  0  0
    7.1236    3.2247    0.0000 H   0  0  0  0  0  0  0  0  0  0  0  0
    6.5303    2.6924    0.0000 H   0  0  0  0  0  0  0  0  0  0  0  0
    5.8344    2.0680    0.0000 H   0  0  0  0  0  0  0  0  0  0  0  0
    5.2411    1.5357    0.0000 H   0  0  0  0  0  0  0  0  0  0  0  0
    8.6490    3.1389    0.0000 H   0  0  0  0  0  0  0  0  0  0  0  0
    7.8914    3.3865    0.0000 H   0  0  0  0  0  0  0  0  0  0  0  0
    8.6213    0.0445    0.0000 H   0  0  0  0  0  0  0  0  0  0  0  0
    9.3789   -0.2031    0.0000 H   0  0  0  0  0  0  0  0  0  0  0  0
    6.7479   -0.3069    0.0000 H   0  0  0  0  0  0  0  0  0  0  0  0
    5.7369   -1.7010    0.0000 H   0  0  0  0  0  0  0  0  0  0  0  0
    3.7320    1.3131    0.0000 H   0  0  0  0  0  0  0  0  0  0  0  0
    3.7320   -1.9269    0.0000 H   0  0  0  0  0  0  0  0  0  0  0  0
    2.3291    0.5031    0.0000 H   0  0  0  0  0  0  0  0  0  0  0  0
   11.9651    0.6296    0.0000 H   0  0  0  0  0  0  0  0  0  0  0  0
   13.0470   -0.5762    0.0000 H   0  0  0  0  0  0  0  0  0  0  0  0
   12.5438   -2.1160    0.0000 H   0  0  0  0  0  0  0  0  0  0  0  0
  1 25  1  0  0  0  0
  2 21  1  0  0  0  0
  3  9  1  0  0  0  0
  3 12  1  0  0  0  0
  4 14  1  0  0  0  0
  4 22  1  0  0  0  0
  5  8  1  0  0  0  0
  5 10  1  0  0  0  0
  5 11  1  0  0  0  0
  6 16  1  0  0  0  0
  6 17  1  0  0  0  0
  6 39  1  0  0  0  0
  7 22  2  0  0  0  0
  7 25  1  0  0  0  0
  8  9  1  0  0  0  0
  8 27  1  0  0  0  0
  8 28  1  0  0  0  0
  9 14  1  6  0  0  0
  9 29  1  0  0  0  0
 10 12  1  0  0  0  0
 10 30  1  0  0  0  0
 10 31  1  0  0  0  0
 11 13  1  0  0  0  0
 11 32  1  0  0  0  0
 11 33  1  0  0  0  0
 12 34  1  0  0  0  0
 12 35  1  0  0  0  0
 13 15  1  0  0  0  0
 13 16  2  0  0  0  0
 14 36  1  0  0  0  0
 14 37  1  0  0  0  0
 15 17  2  0  0  0  0
 15 18  1  0  0  0  0
 16 38  1  0  0  0  0
 17 19  1  0  0  0  0
 18 20  2  0  0  0  0
 18 40  1  0  0  0  0
 19 21  2  0  0  0  0
 19 41  1  0  0  0  0
 20 21  1  0  0  0  0
 20 42  1  0  0  0  0
 22 23  1  0  0  0  0
 23 24  2  0  0  0  0
 23 43  1  0  0  0  0
 24 26  1  0  0  0  0
 24 44  1  0  0  0  0
 25 26  2  0  0  0  0
 26 45  1  0  0  0  0
M  END
> <PUBCHEM_COMPOUND_CID>
127028185

> <PUBCHEM_COMPOUND_CANONICALIZED>
1

> <PUBCHEM_CACTVS_COMPLEXITY>
461

> <PUBCHEM_CACTVS_HBOND_ACCEPTOR>
5

> <PUBCHEM_CACTVS_HBOND_DONOR>
1

> <PUBCHEM_CACTVS_ROTATABLE_BOND>
5

> <PUBCHEM_CACTVS_SUBSKEYS>
AAADceB7MQAEAAAAAAAAAAAAAAAAAWAAAAA8WIAAAAAAAFgB/AAAHwIQAAAADB7hni48xPPJlACgAzRnRACCiCAxJyAI2aA+bpgPJuLF85uPOCjm0BHa6AeQkMAOgAAAAAACAAAAAAAAAAQAAAAAAAAAAA==

> <PUBCHEM_IUPAC_OPENEYE_NAME>
(2S)-2-[(6-chloro-2-pyridyl)oxymethyl]-4-[(6-fluoro-1H-indol-3-yl)methyl]morpholine

> <PUBCHEM_IUPAC_CAS_NAME>
(2S)-2-[(6-chloro-2-pyridinyl)oxymethyl]-4-[(6-fluoro-1H-indol-3-yl)methyl]morpholine

> <PUBCHEM_IUPAC_NAME_MARKUP>
(2<I>S</I>)-2-[(6-chloropyridin-2-yl)oxymethyl]-4-[(6-fluoro-1<I>H</I>-indol-3-yl)methyl]morpholine

> <PUBCHEM_IUPAC_NAME>
(2S)-2-[(6-chloropyridin-2-yl)oxymethyl]-4-[(6-fluoro-1H-indol-3-yl)methyl]morpholine

> <PUBCHEM_IUPAC_SYSTEMATIC_NAME>
(2S)-2-[(6-chloranylpyridin-2-yl)oxymethyl]-4-[(6-fluoranyl-1H-indol-3-yl)methyl]morpholine

> <PUBCHEM_IUPAC_TRADITIONAL_NAME>
(2S)-2-[(6-chloro-2-pyridyl)oxymethyl]-4-[(6-fluoro-1H-indol-3-yl)methyl]morpholine

> <PUBCHEM_IUPAC_INCHI>
InChI=1S/C19H19ClFN3O2/c20-18-2-1-3-19(23-18)26-12-15-11-24(6-7-25-15)10-13-9-22-17-8-14(21)4-5-16(13)17/h1-5,8-9,15,22H,6-7,10-12H2/t15-/m0/s1

> <PUBCHEM_IUPAC_INCHIKEY>
FKVYTXSHXQFEOI-HNNXBMFYSA-N

> <PUBCHEM_XLOGP3_AA>
3.6

> <PUBCHEM_EXACT_MASS>
375.1149827

> <PUBCHEM_MOLECULAR_FORMULA>
C19H19ClFN3O2

> <PUBCHEM_MOLECULAR_WEIGHT>
375.8

> <PUBCHEM_OPENEYE_CAN_SMILES>
C1COC(CN1CC2=CNC3=C2C=CC(=C3)F)COC4=NC(=CC=C4)Cl

> <PUBCHEM_OPENEYE_ISO_SMILES>
C1CO[C@@H](CN1CC2=CNC3=C2C=CC(=C3)F)COC4=NC(=CC=C4)Cl

> <PUBCHEM_CACTVS_TPSA>
50.4

> <PUBCHEM_MONOISOTOPIC_WEIGHT>
375.1149827

> <PUBCHEM_TOTAL_CHARGE>
0

> <PUBCHEM_HEAVY_ATOM_COUNT>
26

> <PUBCHEM_ATOM_DEF_STEREO_COUNT>
1

> <PUBCHEM_ATOM_UDEF_STEREO_COUNT>
0

> <PUBCHEM_BOND_DEF_STEREO_COUNT>
0

> <PUBCHEM_BOND_UDEF_STEREO_COUNT>
0

> <PUBCHEM_ISOTOPIC_ATOM_COUNT>
0

> <PUBCHEM_COMPONENT_COUNT>
1

> <PUBCHEM_CACTVS_TAUTO_COUNT>
-1

> <PUBCHEM_COORDINATE_TYPE>
1
5
255

> <PUBCHEM_BONDANNOTATIONS>
13  15  8
13  16  8
15  17  8
15  18  8
17  19  8
18  20  8
19  21  8
20  21  8
22  23  8
23  24  8
24  26  8
25  26  8
6  16  8
6  17  8
7  22  8
7  25  8
9  14  6

$$$$
