44415623
  -OEChem-09292322482D

 69 75  0     0  0  0  0  0  0999 V2000
    8.9258   -0.9894    0.0000 Cl  0  0  0  0  0  0  0  0  0  0  0  0
    4.2223   -4.8164    0.0000 Cl  0  0  0  0  0  0  0  0  0  0  0  0
    2.0289    5.4866    0.0000 O   0  0  0  0  0  0  0  0  0  0  0  0
    2.9355    6.8164    0.0000 O   0  0  0  0  0  0  0  0  0  0  0  0
    6.8204   -3.3164    0.0000 O   0  0  0  0  0  0  0  0  0  0  0  0
    3.2868    2.5772    0.0000 N   0  0  0  0  0  0  0  0  0  0  0  0
    4.1545    0.7752    0.0000 N   0  0  0  0  0  0  0  0  0  0  0  0
    5.5884   -0.1258    0.0000 N   0  0  0  0  0  0  0  0  0  0  0  0
    5.0884   -2.3164    0.0000 N   0  0  0  0  0  0  0  0  0  0  0  0
    5.0884   -3.3164    0.0000 N   0  0  0  0  0  0  0  0  0  0  0  0
    4.2840    2.5024    0.0000 C   0  0  0  0  0  0  0  0  0  0  0  0
    2.7234    1.7509    0.0000 C   0  0  0  0  0  0  0  0  0  0  0  0
    4.7178    1.6015    0.0000 C   0  0  0  0  0  0  0  0  0  0  0  0
    3.1573    0.8500    0.0000 C   0  0  0  0  0  0  0  0  0  0  0  0
    2.8529    3.4781    0.0000 C   0  0  0  0  0  0  0  0  0  0  0  0
    4.5884   -0.1257    0.0000 C   0  0  0  0  0  0  0  0  0  0  0  0
    3.4162    4.3044    0.0000 C   0  0  0  0  0  0  0  0  0  0  0  0
    3.9649   -0.9076    0.0000 C   0  0  0  0  0  0  0  0  0  0  0  0
    4.1874   -1.8825    0.0000 C   0  0  0  0  0  0  0  0  0  0  0  0
    2.9823    5.2054    0.0000 C   0  0  0  0  0  0  0  0  0  0  0  0
    4.4134    4.2296    0.0000 C   0  0  0  0  0  0  0  0  0  0  0  0
    6.2119   -0.9076    0.0000 C   0  0  0  0  0  0  0  0  0  0  0  0
    5.9894   -1.8825    0.0000 C   0  0  0  0  0  0  0  0  0  0  0  0
    2.9744   -0.5852    0.0000 C   0  0  0  0  0  0  0  0  0  0  0  0
    3.5457    6.0316    0.0000 C   0  0  0  0  0  0  0  0  0  0  0  0
    3.4348   -2.6027    0.0000 C   0  0  0  0  0  0  0  0  0  0  0  0
    4.9767    5.0559    0.0000 C   0  0  0  0  0  0  0  0  0  0  0  0
    4.5429    5.9568    0.0000 C   0  0  0  0  0  0  0  0  0  0  0  0
    2.2054   -1.2878    0.0000 C   0  0  0  0  0  0  0  0  0  0  0  0
    2.4372   -2.3033    0.0000 C   0  0  0  0  0  0  0  0  0  0  0  0
    7.2024   -0.5853    0.0000 C   0  0  0  0  0  0  0  0  0  0  0  0
    6.7419   -2.6027    0.0000 C   0  0  0  0  0  0  0  0  0  0  0  0
    2.0000    6.4803    0.0000 C   0  0  0  0  0  0  0  0  0  0  0  0
    7.9714   -1.2878    0.0000 C   0  0  0  0  0  0  0  0  0  0  0  0
    7.7396   -2.3034    0.0000 C   0  0  0  0  0  0  0  0  0  0  0  0
    5.9544   -3.8164    0.0000 C   0  0  0  0  0  0  0  0  0  0  0  0
    5.9544   -4.8164    0.0000 C   0  0  0  0  0  0  0  0  0  0  0  0
    5.0884   -5.3164    0.0000 C   0  0  0  0  0  0  0  0  0  0  0  0
    6.8204   -5.3164    0.0000 C   0  0  0  0  0  0  0  0  0  0  0  0
    5.0884   -6.3164    0.0000 C   0  0  0  0  0  0  0  0  0  0  0  0
    6.8204   -6.3164    0.0000 C   0  0  0  0  0  0  0  0  0  0  0  0
    5.9544   -6.8164    0.0000 C   0  0  0  0  0  0  0  0  0  0  0  0
    4.8808    2.6704    0.0000 H   0  0  0  0  0  0  0  0  0  0  0  0
    4.2222    3.1194    0.0000 H   0  0  0  0  0  0  0  0  0  0  0  0
    2.2796    2.1838    0.0000 H   0  0  0  0  0  0  0  0  0  0  0  0
    2.2200    1.3890    0.0000 H   0  0  0  0  0  0  0  0  0  0  0  0
    5.1617    1.1686    0.0000 H   0  0  0  0  0  0  0  0  0  0  0  0
    5.2213    1.9634    0.0000 H   0  0  0  0  0  0  0  0  0  0  0  0
    2.5605    0.6820    0.0000 H   0  0  0  0  0  0  0  0  0  0  0  0
    3.2190    0.2330    0.0000 H   0  0  0  0  0  0  0  0  0  0  0  0
    2.4090    3.9111    0.0000 H   0  0  0  0  0  0  0  0  0  0  0  0
    2.3495    3.1162    0.0000 H   0  0  0  0  0  0  0  0  0  0  0  0
    4.6824    3.6710    0.0000 H   0  0  0  0  0  0  0  0  0  0  0  0
    2.8434    0.0208    0.0000 H   0  0  0  0  0  0  0  0  0  0  0  0
    3.5798   -3.2055    0.0000 H   0  0  0  0  0  0  0  0  0  0  0  0
    5.5950    5.0095    0.0000 H   0  0  0  0  0  0  0  0  0  0  0  0
    4.8921    6.4691    0.0000 H   0  0  0  0  0  0  0  0  0  0  0  0
    1.6136   -1.1028    0.0000 H   0  0  0  0  0  0  0  0  0  0  0  0
    1.9843   -2.7268    0.0000 H   0  0  0  0  0  0  0  0  0  0  0  0
    7.3334    0.0208    0.0000 H   0  0  0  0  0  0  0  0  0  0  0  0
    6.5970   -3.2055    0.0000 H   0  0  0  0  0  0  0  0  0  0  0  0
    4.5514   -3.6264    0.0000 H   0  0  0  0  0  0  0  0  0  0  0  0
    1.8528    7.0825    0.0000 H   0  0  0  0  0  0  0  0  0  0  0  0
    1.3856    6.3972    0.0000 H   0  0  0  0  0  0  0  0  0  0  0  0
    8.1924   -2.7268    0.0000 H   0  0  0  0  0  0  0  0  0  0  0  0
    7.3573   -5.0064    0.0000 H   0  0  0  0  0  0  0  0  0  0  0  0
    4.5514   -6.6264    0.0000 H   0  0  0  0  0  0  0  0  0  0  0  0
    7.3573   -6.6264    0.0000 H   0  0  0  0  0  0  0  0  0  0  0  0
    5.9544   -7.4364    0.0000 H   0  0  0  0  0  0  0  0  0  0  0  0
  1 34  1  0  0  0  0
  2 38  1  0  0  0  0
  3 20  1  0  0  0  0
  3 33  1  0  0  0  0
  4 25  1  0  0  0  0
  4 33  1  0  0  0  0
  5 36  2  0  0  0  0
  6 11  1  0  0  0  0
  6 12  1  0  0  0  0
  6 15  1  0  0  0  0
  7 13  1  0  0  0  0
  7 14  1  0  0  0  0
  7 16  1  0  0  0  0
  8 16  2  0  0  0  0
  8 22  1  0  0  0  0
  9 10  1  0  0  0  0
  9 19  1  0  0  0  0
  9 23  1  0  0  0  0
 10 36  1  0  0  0  0
 10 62  1  0  0  0  0
 11 13  1  0  0  0  0
 11 43  1  0  0  0  0
 11 44  1  0  0  0  0
 12 14  1  0  0  0  0
 12 45  1  0  0  0  0
 12 46  1  0  0  0  0
 13 47  1  0  0  0  0
 13 48  1  0  0  0  0
 14 49  1  0  0  0  0
 14 50  1  0  0  0  0
 15 17  1  0  0  0  0
 15 51  1  0  0  0  0
 15 52  1  0  0  0  0
 16 18  1  0  0  0  0
 17 20  2  0  0  0  0
 17 21  1  0  0  0  0
 18 19  1  0  0  0  0
 18 24  2  0  0  0  0
 19 26  2  0  0  0  0
 20 25  1  0  0  0  0
 21 27  2  0  0  0  0
 21 53  1  0  0  0  0
 22 23  2  0  0  0  0
 22 31  1  0  0  0  0
 23 32  1  0  0  0  0
 24 29  1  0  0  0  0
 24 54  1  0  0  0  0
 25 28  2  0  0  0  0
 26 30  1  0  0  0  0
 26 55  1  0  0  0  0
 27 28  1  0  0  0  0
 27 56  1  0  0  0  0
 28 57  1  0  0  0  0
 29 30  2  0  0  0  0
 29 58  1  0  0  0  0
 30 59  1  0  0  0  0
 31 34  2  0  0  0  0
 31 60  1  0  0  0  0
 32 35  2  0  0  0  0
 32 61  1  0  0  0  0
 33 63  1  0  0  0  0
 33 64  1  0  0  0  0
 34 35  1  0  0  0  0
 35 65  1  0  0  0  0
 36 37  1  0  0  0  0
 37 38  1  0  0  0  0
 37 39  2  0  0  0  0
 38 40  2  0  0  0  0
 39 41  1  0  0  0  0
 39 66  1  0  0  0  0
 40 42  1  0  0  0  0
 40 67  1  0  0  0  0
 41 42  2  0  0  0  0
 41 68  1  0  0  0  0
 42 69  1  0  0  0  0
M  END
> <PUBCHEM_COMPOUND_CID>
44415623

> <PUBCHEM_COMPOUND_CANONICALIZED>
1

> <PUBCHEM_CACTVS_COMPLEXITY>
980

> <PUBCHEM_CACTVS_HBOND_ACCEPTOR>
6

> <PUBCHEM_CACTVS_HBOND_DONOR>
1

> <PUBCHEM_CACTVS_ROTATABLE_BOND>
5

> <PUBCHEM_CACTVS_SUBSKEYS>
AAADceB/sAAGAAAAAAAAAAAAAAAAASAAAAA8YMGCBAAAAEgBVAAAHgIYAAAADA7BmCcxzoNiBACoAidydACCDAElJwAbqAEu/tgdZvLF/5u0MSpmwBHO7Ye4yDCOAABBAAILQCAAAIIABBaAQAAAAAAAAA==

> <PUBCHEM_IUPAC_OPENEYE_NAME>
N-[6-[4-(1,3-benzodioxol-4-ylmethyl)piperazin-1-yl]-3-chloro-benzo[b][1,4]benzodiazepin-11-yl]-2-chloro-benzamide

> <PUBCHEM_IUPAC_CAS_NAME>
N-[6-[4-(1,3-benzodioxol-4-ylmethyl)-1-piperazinyl]-3-chloro-11-benzo[b][1,4]benzodiazepinyl]-2-chlorobenzamide

> <PUBCHEM_IUPAC_NAME_MARKUP>
<I>N</I>-[6-[4-(1,3-benzodioxol-4-ylmethyl)piperazin-1-yl]-3-chlorobenzo[b][1,4]benzodiazepin-11-yl]-2-chlorobenzamide

> <PUBCHEM_IUPAC_NAME>
N-[6-[4-(1,3-benzodioxol-4-ylmethyl)piperazin-1-yl]-3-chlorobenzo[b][1,4]benzodiazepin-11-yl]-2-chlorobenzamide

> <PUBCHEM_IUPAC_SYSTEMATIC_NAME>
N-[6-[4-(1,3-benzodioxol-4-ylmethyl)piperazin-1-yl]-3-chloranyl-benzo[b][1,4]benzodiazepin-11-yl]-2-chloranyl-benzamide

> <PUBCHEM_IUPAC_TRADITIONAL_NAME>
N-[6-[4-(1,3-benzodioxol-4-ylmethyl)piperazino]-3-chloro-benzo[b][1,4]benzodiazepin-11-yl]-2-chloro-benzamide

> <PUBCHEM_IUPAC_INCHI>
InChI=1S/C32H27Cl2N5O3/c33-22-12-13-28-26(18-22)35-31(38-16-14-37(15-17-38)19-21-6-5-11-29-30(21)42-20-41-29)24-8-2-4-10-27(24)39(28)36-32(40)23-7-1-3-9-25(23)34/h1-13,18H,14-17,19-20H2,(H,36,40)

> <PUBCHEM_IUPAC_INCHIKEY>
YVMPAPDNKUMXOU-UHFFFAOYSA-N

> <PUBCHEM_XLOGP3_AA>
6.3

> <PUBCHEM_EXACT_MASS>
599.1490951

> <PUBCHEM_MOLECULAR_FORMULA>
C32H27Cl2N5O3

> <PUBCHEM_MOLECULAR_WEIGHT>
600.5

> <PUBCHEM_OPENEYE_CAN_SMILES>
C1CN(CCN1CC2=C3C(=CC=C2)OCO3)C4=NC5=C(C=CC(=C5)Cl)N(C6=CC=CC=C64)NC(=O)C7=CC=CC=C7Cl

> <PUBCHEM_OPENEYE_ISO_SMILES>
C1CN(CCN1CC2=C3C(=CC=C2)OCO3)C4=NC5=C(C=CC(=C5)Cl)N(C6=CC=CC=C64)NC(=O)C7=CC=CC=C7Cl

> <PUBCHEM_CACTVS_TPSA>
69.6

> <PUBCHEM_MONOISOTOPIC_WEIGHT>
599.1490951

> <PUBCHEM_TOTAL_CHARGE>
0

> <PUBCHEM_HEAVY_ATOM_COUNT>
42

> <PUBCHEM_ATOM_DEF_STEREO_COUNT>
0

> <PUBCHEM_ATOM_UDEF_STEREO_COUNT>
0

> <PUBCHEM_BOND_DEF_STEREO_COUNT>
0

> <PUBCHEM_BOND_UDEF_STEREO_COUNT>
0

> <PUBCHEM_ISOTOPIC_ATOM_COUNT>
0

> <PUBCHEM_COMPONENT_COUNT>
1

> <PUBCHEM_CACTVS_TAUTO_COUNT>
-1

> <PUBCHEM_COORDINATE_TYPE>
1
5
255

> <PUBCHEM_BONDANNOTATIONS>
17  20  8
17  21  8
18  19  8
18  24  8
19  26  8
20  25  8
21  27  8
22  23  8
22  31  8
23  32  8
24  29  8
25  28  8
26  30  8
27  28  8
29  30  8
31  34  8
32  35  8
34  35  8
37  38  8
37  39  8
38  40  8
39  41  8
40  42  8
41  42  8

$$$$
