38282
  -OEChem-09292322352D

 28 29  0     0  0  0  0  0  0999 V2000
    5.1200    3.0420    0.0000 Cl  0  0  0  0  0  0  0  0  0  0  0  0
    2.6200    0.4440    0.0000 O   0  0  0  0  0  0  0  0  0  0  0  0
    3.1200   -2.4220    0.0000 N   0  0  0  0  0  0  0  0  0  0  0  0
    3.1200   -0.4221    0.0000 C   0  0  0  0  0  0  0  0  0  0  0  0
    3.9860   -0.9221    0.0000 C   0  0  0  0  0  0  0  0  0  0  0  0
    2.2540   -0.9221    0.0000 C   0  0  0  0  0  0  0  0  0  0  0  0
    3.9860   -1.9220    0.0000 C   0  0  0  0  0  0  0  0  0  0  0  0
    2.2540   -1.9220    0.0000 C   0  0  0  0  0  0  0  0  0  0  0  0
    3.6200    0.4440    0.0000 C   0  0  0  0  0  0  0  0  0  0  0  0
    4.6200    0.4440    0.0000 C   0  0  0  0  0  0  0  0  0  0  0  0
    3.1200    1.3100    0.0000 C   0  0  0  0  0  0  0  0  0  0  0  0
    5.1200    1.3100    0.0000 C   0  0  0  0  0  0  0  0  0  0  0  0
    3.6200    2.1760    0.0000 C   0  0  0  0  0  0  0  0  0  0  0  0
    4.6200    2.1760    0.0000 C   0  0  0  0  0  0  0  0  0  0  0  0
    4.5966   -1.0297    0.0000 H   0  0  0  0  0  0  0  0  0  0  0  0
    4.1981   -0.3394    0.0000 H   0  0  0  0  0  0  0  0  0  0  0  0
    2.0419   -0.3394    0.0000 H   0  0  0  0  0  0  0  0  0  0  0  0
    1.6434   -1.0297    0.0000 H   0  0  0  0  0  0  0  0  0  0  0  0
    4.1981   -2.5047    0.0000 H   0  0  0  0  0  0  0  0  0  0  0  0
    4.5966   -1.8144    0.0000 H   0  0  0  0  0  0  0  0  0  0  0  0
    1.6434   -1.8144    0.0000 H   0  0  0  0  0  0  0  0  0  0  0  0
    2.0419   -2.5047    0.0000 H   0  0  0  0  0  0  0  0  0  0  0  0
    3.1200   -3.0420    0.0000 H   0  0  0  0  0  0  0  0  0  0  0  0
    2.0000    0.4440    0.0000 H   0  0  0  0  0  0  0  0  0  0  0  0
    4.9300   -0.0930    0.0000 H   0  0  0  0  0  0  0  0  0  0  0  0
    2.5000    1.3100    0.0000 H   0  0  0  0  0  0  0  0  0  0  0  0
    5.7400    1.3100    0.0000 H   0  0  0  0  0  0  0  0  0  0  0  0
    3.3100    2.7130    0.0000 H   0  0  0  0  0  0  0  0  0  0  0  0
  1 14  1  0  0  0  0
  2  4  1  0  0  0  0
  2 24  1  0  0  0  0
  3  7  1  0  0  0  0
  3  8  1  0  0  0  0
  3 23  1  0  0  0  0
  4  5  1  0  0  0  0
  4  6  1  0  0  0  0
  4  9  1  0  0  0  0
  5  7  1  0  0  0  0
  5 15  1  0  0  0  0
  5 16  1  0  0  0  0
  6  8  1  0  0  0  0
  6 17  1  0  0  0  0
  6 18  1  0  0  0  0
  7 19  1  0  0  0  0
  7 20  1  0  0  0  0
  8 21  1  0  0  0  0
  8 22  1  0  0  0  0
  9 10  2  0  0  0  0
  9 11  1  0  0  0  0
 10 12  1  0  0  0  0
 10 25  1  0  0  0  0
 11 13  2  0  0  0  0
 11 26  1  0  0  0  0
 12 14  2  0  0  0  0
 12 27  1  0  0  0  0
 13 14  1  0  0  0  0
 13 28  1  0  0  0  0
M  END
> <PUBCHEM_COMPOUND_CID>
38282

> <PUBCHEM_COMPOUND_CANONICALIZED>
1

> <PUBCHEM_CACTVS_COMPLEXITY>
184

> <PUBCHEM_CACTVS_HBOND_ACCEPTOR>
2

> <PUBCHEM_CACTVS_HBOND_DONOR>
2

> <PUBCHEM_CACTVS_ROTATABLE_BOND>
1

> <PUBCHEM_CACTVS_SUBSKEYS>
AAADccByIAAEAAAAAAAAAAAAAAAAAAAAAAA8QAAAAAAAAAABAAAAHgIQCAAADEbBmCQwAILAAgCAAiBCAAACAAAgBQAIiIAICogIJiKBkxCEcAAm0AGImAeQwOAOhAAAAAAAAAAIAAAAAAAAAAAAAAAAAA==

> <PUBCHEM_IUPAC_OPENEYE_NAME>
4-(4-chlorophenyl)piperidin-4-ol

> <PUBCHEM_IUPAC_CAS_NAME>
4-(4-chlorophenyl)-4-piperidinol

> <PUBCHEM_IUPAC_NAME_MARKUP>
4-(4-chlorophenyl)piperidin-4-ol

> <PUBCHEM_IUPAC_NAME>
4-(4-chlorophenyl)piperidin-4-ol

> <PUBCHEM_IUPAC_SYSTEMATIC_NAME>
4-(4-chlorophenyl)piperidin-4-ol

> <PUBCHEM_IUPAC_TRADITIONAL_NAME>
4-(4-chlorophenyl)piperidin-4-ol

> <PUBCHEM_IUPAC_INCHI>
InChI=1S/C11H14ClNO/c12-10-3-1-9(2-4-10)11(14)5-7-13-8-6-11/h1-4,13-14H,5-8H2

> <PUBCHEM_IUPAC_INCHIKEY>
LZAYOZUFUAMFLD-UHFFFAOYSA-N

> <PUBCHEM_XLOGP3_AA>
1.6

> <PUBCHEM_EXACT_MASS>
211.0763918

> <PUBCHEM_MOLECULAR_FORMULA>
C11H14ClNO

> <PUBCHEM_MOLECULAR_WEIGHT>
211.69

> <PUBCHEM_OPENEYE_CAN_SMILES>
C1CNCCC1(C2=CC=C(C=C2)Cl)O

> <PUBCHEM_OPENEYE_ISO_SMILES>
C1CNCCC1(C2=CC=C(C=C2)Cl)O

> <PUBCHEM_CACTVS_TPSA>
32.3

> <PUBCHEM_MONOISOTOPIC_WEIGHT>
211.0763918

> <PUBCHEM_TOTAL_CHARGE>
0

> <PUBCHEM_HEAVY_ATOM_COUNT>
14

> <PUBCHEM_ATOM_DEF_STEREO_COUNT>
0

> <PUBCHEM_ATOM_UDEF_STEREO_COUNT>
0

> <PUBCHEM_BOND_DEF_STEREO_COUNT>
0

> <PUBCHEM_BOND_UDEF_STEREO_COUNT>
0

> <PUBCHEM_ISOTOPIC_ATOM_COUNT>
0

> <PUBCHEM_COMPONENT_COUNT>
1

> <PUBCHEM_CACTVS_TAUTO_COUNT>
1

> <PUBCHEM_COORDINATE_TYPE>
1
5
255

> <PUBCHEM_BONDANNOTATIONS>
10  12  8
11  13  8
12  14  8
13  14  8
9  10  8
9  11  8

$$$$
