45486362
  -OEChem-09292322292D

 70 74  0     1  0  0  0  0  0999 V2000
   14.6175   -2.6092    0.0000 O   0  0  0  0  0  0  0  0  0  0  0  0
    5.9409   -2.5746    0.0000 O   0  0  0  0  0  0  0  0  0  0  0  0
   11.1370    0.4254    0.0000 N   0  0  3  0  0  0  0  0  0  0  0  0
    8.5390   -0.0746    0.0000 N   0  0  0  0  0  0  0  0  0  0  0  0
    6.8069   -1.0746    0.0000 N   0  0  0  0  0  0  0  0  0  0  0  0
    4.1671   -1.4797    0.0000 N   0  0  0  0  0  0  0  0  0  0  0  0
   12.0031   -0.0746    0.0000 C   0  0  1  0  0  0  0  0  0  0  0  0
   12.0031   -1.0746    0.0000 C   0  0  0  0  0  0  0  0  0  0  0  0
   12.8691    0.4254    0.0000 C   0  0  0  0  0  0  0  0  0  0  0  0
   10.2710   -0.0746    0.0000 C   0  0  0  0  0  0  0  0  0  0  0  0
   12.8691   -1.5746    0.0000 C   0  0  0  0  0  0  0  0  0  0  0  0
    9.4050    0.4254    0.0000 C   0  0  0  0  0  0  0  0  0  0  0  0
   13.7351   -0.0746    0.0000 C   0  0  0  0  0  0  0  0  0  0  0  0
   13.7351   -1.0746    0.0000 C   0  0  0  0  0  0  0  0  0  0  0  0
   11.1370    1.4254    0.0000 C   0  0  0  0  0  0  0  0  0  0  0  0
    7.6730    0.4254    0.0000 C   0  0  0  0  0  0  0  0  0  0  0  0
    8.5390   -1.0746    0.0000 C   0  0  0  0  0  0  0  0  0  0  0  0
    6.8069   -0.0746    0.0000 C   0  0  0  0  0  0  0  0  0  0  0  0
    7.6730   -1.5746    0.0000 C   0  0  0  0  0  0  0  0  0  0  0  0
   10.2710    1.9254    0.0000 C   0  0  0  0  0  0  0  0  0  0  0  0
   14.6291    0.4601    0.0000 C   0  0  0  0  0  0  0  0  0  0  0  0
   14.6291   -1.6093    0.0000 C   0  0  0  0  0  0  0  0  0  0  0  0
   15.5351   -0.0538    0.0000 C   0  0  0  0  0  0  0  0  0  0  0  0
   15.5351   -1.0954    0.0000 C   0  0  0  0  0  0  0  0  0  0  0  0
    5.9409   -1.5746    0.0000 C   0  0  0  0  0  0  0  0  0  0  0  0
   10.2710    2.9254    0.0000 C   0  0  0  0  0  0  0  0  0  0  0  0
    5.0749   -1.0746    0.0000 C   0  0  0  0  0  0  0  0  0  0  0  0
    4.9718   -0.0859    0.0000 C   0  0  0  0  0  0  0  0  0  0  0  0
    3.5000   -0.7427    0.0000 C   0  0  0  0  0  0  0  0  0  0  0  0
    4.0000    0.1233    0.0000 C   0  0  0  0  0  0  0  0  0  0  0  0
    2.5000   -0.7427    0.0000 C   0  0  0  0  0  0  0  0  0  0  0  0
    3.5000    0.9893    0.0000 C   0  0  0  0  0  0  0  0  0  0  0  0
    2.0000    0.1233    0.0000 C   0  0  0  0  0  0  0  0  0  0  0  0
    2.5000    0.9893    0.0000 C   0  0  0  0  0  0  0  0  0  0  0  0
   11.4661   -0.3846    0.0000 H   0  0  0  0  0  0  0  0  0  0  0  0
   11.3925   -0.9669    0.0000 H   0  0  0  0  0  0  0  0  0  0  0  0
   11.7910   -1.6572    0.0000 H   0  0  0  0  0  0  0  0  0  0  0  0
   13.2676    0.9003    0.0000 H   0  0  0  0  0  0  0  0  0  0  0  0
   12.4706    0.9003    0.0000 H   0  0  0  0  0  0  0  0  0  0  0  0
    9.8725   -0.5496    0.0000 H   0  0  0  0  0  0  0  0  0  0  0  0
   10.6696   -0.5496    0.0000 H   0  0  0  0  0  0  0  0  0  0  0  0
   12.4706   -2.0496    0.0000 H   0  0  0  0  0  0  0  0  0  0  0  0
   13.2676   -2.0496    0.0000 H   0  0  0  0  0  0  0  0  0  0  0  0
    9.8035    0.9003    0.0000 H   0  0  0  0  0  0  0  0  0  0  0  0
    9.0065    0.9003    0.0000 H   0  0  0  0  0  0  0  0  0  0  0  0
   11.7476    1.3177    0.0000 H   0  0  0  0  0  0  0  0  0  0  0  0
   11.3491    2.0080    0.0000 H   0  0  0  0  0  0  0  0  0  0  0  0
    8.0715    0.9003    0.0000 H   0  0  0  0  0  0  0  0  0  0  0  0
    7.2744    0.9003    0.0000 H   0  0  0  0  0  0  0  0  0  0  0  0
    8.7510   -1.6572    0.0000 H   0  0  0  0  0  0  0  0  0  0  0  0
    9.1496   -0.9669    0.0000 H   0  0  0  0  0  0  0  0  0  0  0  0
    6.5949    0.5080    0.0000 H   0  0  0  0  0  0  0  0  0  0  0  0
    6.1963   -0.1823    0.0000 H   0  0  0  0  0  0  0  0  0  0  0  0
    7.2744   -2.0496    0.0000 H   0  0  0  0  0  0  0  0  0  0  0  0
    8.0715   -2.0496    0.0000 H   0  0  0  0  0  0  0  0  0  0  0  0
    9.6604    2.0330    0.0000 H   0  0  0  0  0  0  0  0  0  0  0  0
   10.0590    1.3428    0.0000 H   0  0  0  0  0  0  0  0  0  0  0  0
   14.6219    1.0800    0.0000 H   0  0  0  0  0  0  0  0  0  0  0  0
   16.0709    0.2583    0.0000 H   0  0  0  0  0  0  0  0  0  0  0  0
   16.0709   -1.4075    0.0000 H   0  0  0  0  0  0  0  0  0  0  0  0
   10.8910    2.9254    0.0000 H   0  0  0  0  0  0  0  0  0  0  0  0
   10.2710    3.5454    0.0000 H   0  0  0  0  0  0  0  0  0  0  0  0
    9.6510    2.9254    0.0000 H   0  0  0  0  0  0  0  0  0  0  0  0
   15.1508   -2.9254    0.0000 H   0  0  0  0  0  0  0  0  0  0  0  0
    4.0392   -2.0864    0.0000 H   0  0  0  0  0  0  0  0  0  0  0  0
    5.4333    0.3282    0.0000 H   0  0  0  0  0  0  0  0  0  0  0  0
    2.1900   -1.2796    0.0000 H   0  0  0  0  0  0  0  0  0  0  0  0
    3.8100    1.5263    0.0000 H   0  0  0  0  0  0  0  0  0  0  0  0
    1.3800    0.1233    0.0000 H   0  0  0  0  0  0  0  0  0  0  0  0
    2.1900    1.5263    0.0000 H   0  0  0  0  0  0  0  0  0  0  0  0
  1 22  1  0  0  0  0
  1 64  1  0  0  0  0
  2 25  2  0  0  0  0
  7  3  1  6  0  0  0
  3 10  1  0  0  0  0
  3 15  1  0  0  0  0
  4 12  1  0  0  0  0
  4 16  1  0  0  0  0
  4 17  1  0  0  0  0
  5 18  1  0  0  0  0
  5 19  1  0  0  0  0
  5 25  1  0  0  0  0
  6 27  1  0  0  0  0
  6 29  1  0  0  0  0
  6 65  1  0  0  0  0
  7  8  1  0  0  0  0
  7  9  1  0  0  0  0
  7 35  1  0  0  0  0
  8 11  1  0  0  0  0
  8 36  1  0  0  0  0
  8 37  1  0  0  0  0
  9 13  1  0  0  0  0
  9 38  1  0  0  0  0
  9 39  1  0  0  0  0
 10 12  1  0  0  0  0
 10 40  1  0  0  0  0
 10 41  1  0  0  0  0
 11 14  1  0  0  0  0
 11 42  1  0  0  0  0
 11 43  1  0  0  0  0
 12 44  1  0  0  0  0
 12 45  1  0  0  0  0
 13 14  2  0  0  0  0
 13 21  1  0  0  0  0
 14 22  1  0  0  0  0
 15 20  1  0  0  0  0
 15 46  1  0  0  0  0
 15 47  1  0  0  0  0
 16 18  1  0  0  0  0
 16 48  1  0  0  0  0
 16 49  1  0  0  0  0
 17 19  1  0  0  0  0
 17 50  1  0  0  0  0
 17 51  1  0  0  0  0
 18 52  1  0  0  0  0
 18 53  1  0  0  0  0
 19 54  1  0  0  0  0
 19 55  1  0  0  0  0
 20 26  1  0  0  0  0
 20 56  1  0  0  0  0
 20 57  1  0  0  0  0
 21 23  2  0  0  0  0
 21 58  1  0  0  0  0
 22 24  2  0  0  0  0
 23 24  1  0  0  0  0
 23 59  1  0  0  0  0
 24 60  1  0  0  0  0
 25 27  1  0  0  0  0
 26 61  1  0  0  0  0
 26 62  1  0  0  0  0
 26 63  1  0  0  0  0
 27 28  2  0  0  0  0
 28 30  1  0  0  0  0
 28 66  1  0  0  0  0
 29 30  1  0  0  0  0
 29 31  2  0  0  0  0
 30 32  2  0  0  0  0
 31 33  1  0  0  0  0
 31 67  1  0  0  0  0
 32 34  1  0  0  0  0
 32 68  1  0  0  0  0
 33 34  2  0  0  0  0
 33 69  1  0  0  0  0
 34 70  1  0  0  0  0
M  END
> <PUBCHEM_COMPOUND_CID>
45486362

> <PUBCHEM_COMPOUND_CANONICALIZED>
1

> <PUBCHEM_CACTVS_COMPLEXITY>
667

> <PUBCHEM_CACTVS_HBOND_ACCEPTOR>
4

> <PUBCHEM_CACTVS_HBOND_DONOR>
2

> <PUBCHEM_CACTVS_ROTATABLE_BOND>
7

> <PUBCHEM_CACTVS_SUBSKEYS>
AAADcfB7sAAAAAAAAAAAAAAAAAAAAWAAAAA8YMEAAAAAAFjB9AAAHgAQCAAADCzBngQyxvPJkgCoAyVyVACCgCAnIiAImSG+bNgIZvLClbOUcQhk1hHI2YeY2bOegAABAAAaAAAQAAKAADQAAAAAAAAAAA==

> <PUBCHEM_IUPAC_OPENEYE_NAME>
[4-[2-[[(2S)-5-hydroxytetralin-2-yl]-propyl-amino]ethyl]piperazin-1-yl]-(1H-indol-2-yl)methanone

> <PUBCHEM_IUPAC_CAS_NAME>
[4-[2-[[(2S)-5-hydroxy-1,2,3,4-tetrahydronaphthalen-2-yl]-propylamino]ethyl]-1-piperazinyl]-(1H-indol-2-yl)methanone

> <PUBCHEM_IUPAC_NAME_MARKUP>
[4-[2-[[(2<I>S</I>)-5-hydroxy-1,2,3,4-tetrahydronaphthalen-2-yl]-propylamino]ethyl]piperazin-1-yl]-(1<I>H</I>-indol-2-yl)methanone

> <PUBCHEM_IUPAC_NAME>
[4-[2-[[(2S)-5-hydroxy-1,2,3,4-tetrahydronaphthalen-2-yl]-propylamino]ethyl]piperazin-1-yl]-(1H-indol-2-yl)methanone

> <PUBCHEM_IUPAC_SYSTEMATIC_NAME>
1H-indol-2-yl-[4-[2-[[(2S)-5-oxidanyl-1,2,3,4-tetrahydronaphthalen-2-yl]-propyl-amino]ethyl]piperazin-1-yl]methanone

> <PUBCHEM_IUPAC_TRADITIONAL_NAME>
[4-[2-[[(2S)-5-hydroxytetralin-2-yl]-propyl-amino]ethyl]piperazino]-(1H-indol-2-yl)methanone

> <PUBCHEM_IUPAC_INCHI>
InChI=1S/C28H36N4O2/c1-2-12-31(23-10-11-24-21(19-23)7-5-9-27(24)33)16-13-30-14-17-32(18-15-30)28(34)26-20-22-6-3-4-8-25(22)29-26/h3-9,20,23,29,33H,2,10-19H2,1H3/t23-/m0/s1

> <PUBCHEM_IUPAC_INCHIKEY>
DQMMOHPPKACCQN-QHCPKHFHSA-N

> <PUBCHEM_XLOGP3_AA>
4.6

> <PUBCHEM_EXACT_MASS>
460.28382640

> <PUBCHEM_MOLECULAR_FORMULA>
C28H36N4O2

> <PUBCHEM_MOLECULAR_WEIGHT>
460.6

> <PUBCHEM_OPENEYE_CAN_SMILES>
CCCN(CCN1CCN(CC1)C(=O)C2=CC3=CC=CC=C3N2)C4CCC5=C(C4)C=CC=C5O

> <PUBCHEM_OPENEYE_ISO_SMILES>
CCCN(CCN1CCN(CC1)C(=O)C2=CC3=CC=CC=C3N2)[C@H]4CCC5=C(C4)C=CC=C5O

> <PUBCHEM_CACTVS_TPSA>
62.8

> <PUBCHEM_MONOISOTOPIC_WEIGHT>
460.28382640

> <PUBCHEM_TOTAL_CHARGE>
0

> <PUBCHEM_HEAVY_ATOM_COUNT>
34

> <PUBCHEM_ATOM_DEF_STEREO_COUNT>
1

> <PUBCHEM_ATOM_UDEF_STEREO_COUNT>
0

> <PUBCHEM_BOND_DEF_STEREO_COUNT>
0

> <PUBCHEM_BOND_UDEF_STEREO_COUNT>
0

> <PUBCHEM_ISOTOPIC_ATOM_COUNT>
0

> <PUBCHEM_COMPONENT_COUNT>
1

> <PUBCHEM_CACTVS_TAUTO_COUNT>
-1

> <PUBCHEM_COORDINATE_TYPE>
1
5
255

> <PUBCHEM_BONDANNOTATIONS>
13  14  8
13  21  8
14  22  8
21  23  8
22  24  8
23  24  8
27  28  8
28  30  8
29  30  8
29  31  8
7  3  6
30  32  8
31  33  8
32  34  8
33  34  8
6  27  8
6  29  8

$$$$
