46180191
  -OEChem-09292322482D

 55 58  0     1  0  0  0  0  0999 V2000
    3.7088    2.7772    0.0000 O   0  0  0  0  0  0  0  0  0  0  0  0
    7.1815   -0.2543    0.0000 N   0  0  3  0  0  0  0  0  0  0  0  0
    6.3232    0.2426    0.0000 C   0  0  1  0  0  0  0  0  0  0  0  0
    6.3232    1.2426    0.0000 C   0  0  0  0  0  0  0  0  0  0  0  0
    5.4572   -0.2574    0.0000 C   0  0  0  0  0  0  0  0  0  0  0  0
    8.0469    0.2299    0.0000 C   0  0  0  0  0  0  0  0  0  0  0  0
    7.2332    1.7495    0.0000 C   0  0  0  0  0  0  0  0  0  0  0  0
    8.0726    1.2212    0.0000 C   0  0  0  0  0  0  0  0  0  0  0  0
    5.4572    1.7426    0.0000 C   0  0  0  0  0  0  0  0  0  0  0  0
    4.5912    0.2426    0.0000 C   0  0  0  0  0  0  0  0  0  0  0  0
    4.5912    1.2426    0.0000 C   0  0  0  0  0  0  0  0  0  0  0  0
    7.1740   -1.2543    0.0000 C   0  0  0  0  0  0  0  0  0  0  0  0
    3.6972   -0.2920    0.0000 C   0  0  0  0  0  0  0  0  0  0  0  0
    7.2413    2.7911    0.0000 C   0  0  0  0  0  0  0  0  0  0  0  0
    5.4412    2.7841    0.0000 C   0  0  0  0  0  0  0  0  0  0  0  0
    8.0364   -1.7607    0.0000 C   0  0  0  0  0  0  0  0  0  0  0  0
    3.6972    1.7773    0.0000 C   0  0  0  0  0  0  0  0  0  0  0  0
    6.3392    3.3119    0.0000 C   0  0  0  0  0  0  0  0  0  0  0  0
    2.7912    0.2218    0.0000 C   0  0  0  0  0  0  0  0  0  0  0  0
    3.7088   -1.2920    0.0000 C   0  0  0  0  0  0  0  0  0  0  0  0
    2.7912    1.2634    0.0000 C   0  0  0  0  0  0  0  0  0  0  0  0
    8.0290   -2.7607    0.0000 C   0  0  0  0  0  0  0  0  0  0  0  0
    2.8486   -1.8020    0.0000 C   0  0  0  0  0  0  0  0  0  0  0  0
    2.8602   -2.8019    0.0000 C   0  0  0  0  0  0  0  0  0  0  0  0
    2.0000   -3.3119    0.0000 C   0  0  0  0  0  0  0  0  0  0  0  0
    3.7319   -3.2918    0.0000 C   0  0  0  0  0  0  0  0  0  0  0  0
    6.3227   -0.6074    0.0000 H   0  0  0  0  0  0  0  0  0  0  0  0
    5.0587   -0.7323    0.0000 H   0  0  0  0  0  0  0  0  0  0  0  0
    5.8557   -0.7323    0.0000 H   0  0  0  0  0  0  0  0  0  0  0  0
    8.2487   -0.3564    0.0000 H   0  0  0  0  0  0  0  0  0  0  0  0
    8.6597    0.3242    0.0000 H   0  0  0  0  0  0  0  0  0  0  0  0
    8.6796    1.0953    0.0000 H   0  0  0  0  0  0  0  0  0  0  0  0
    8.3043    1.7963    0.0000 H   0  0  0  0  0  0  0  0  0  0  0  0
    6.5643   -1.1421    0.0000 H   0  0  0  0  0  0  0  0  0  0  0  0
    6.9577   -1.8353    0.0000 H   0  0  0  0  0  0  0  0  0  0  0  0
    7.7794    3.0990    0.0000 H   0  0  0  0  0  0  0  0  0  0  0  0
    4.9007    3.0879    0.0000 H   0  0  0  0  0  0  0  0  0  0  0  0
    8.6461   -1.8729    0.0000 H   0  0  0  0  0  0  0  0  0  0  0  0
    8.2527   -1.1797    0.0000 H   0  0  0  0  0  0  0  0  0  0  0  0
    6.3368    3.9319    0.0000 H   0  0  0  0  0  0  0  0  0  0  0  0
    2.2554   -0.0903    0.0000 H   0  0  0  0  0  0  0  0  0  0  0  0
    3.9276   -1.8721    0.0000 H   0  0  0  0  0  0  0  0  0  0  0  0
    4.3181   -1.1773    0.0000 H   0  0  0  0  0  0  0  0  0  0  0  0
    2.2554    1.5755    0.0000 H   0  0  0  0  0  0  0  0  0  0  0  0
    7.4090   -2.7561    0.0000 H   0  0  0  0  0  0  0  0  0  0  0  0
    8.0244   -3.3806    0.0000 H   0  0  0  0  0  0  0  0  0  0  0  0
    8.6489   -2.7652    0.0000 H   0  0  0  0  0  0  0  0  0  0  0  0
    2.3081   -1.4982    0.0000 H   0  0  0  0  0  0  0  0  0  0  0  0
    3.1755    3.0934    0.0000 H   0  0  0  0  0  0  0  0  0  0  0  0
    1.6838   -2.7786    0.0000 H   0  0  0  0  0  0  0  0  0  0  0  0
    1.4667   -3.6281    0.0000 H   0  0  0  0  0  0  0  0  0  0  0  0
    2.3162   -3.8452    0.0000 H   0  0  0  0  0  0  0  0  0  0  0  0
    3.4282   -3.8323    0.0000 H   0  0  0  0  0  0  0  0  0  0  0  0
    4.2724   -3.5956    0.0000 H   0  0  0  0  0  0  0  0  0  0  0  0
    4.0357   -2.7514    0.0000 H   0  0  0  0  0  0  0  0  0  0  0  0
  1 17  1  0  0  0  0
  1 49  1  0  0  0  0
  2  3  1  0  0  0  0
  2  6  1  0  0  0  0
  2 12  1  0  0  0  0
  3  4  1  0  0  0  0
  3  5  1  0  0  0  0
  3 27  1  1  0  0  0
  4  7  2  0  0  0  0
  4  9  1  0  0  0  0
  5 10  1  0  0  0  0
  5 28  1  0  0  0  0
  5 29  1  0  0  0  0
  6  8  1  0  0  0  0
  6 30  1  0  0  0  0
  6 31  1  0  0  0  0
  7  8  1  0  0  0  0
  7 14  1  0  0  0  0
  8 32  1  0  0  0  0
  8 33  1  0  0  0  0
  9 11  1  0  0  0  0
  9 15  2  0  0  0  0
 10 11  1  0  0  0  0
 10 13  2  0  0  0  0
 11 17  2  0  0  0  0
 12 16  1  0  0  0  0
 12 34  1  0  0  0  0
 12 35  1  0  0  0  0
 13 19  1  0  0  0  0
 13 20  1  0  0  0  0
 14 18  2  0  0  0  0
 14 36  1  0  0  0  0
 15 18  1  0  0  0  0
 15 37  1  0  0  0  0
 16 22  1  0  0  0  0
 16 38  1  0  0  0  0
 16 39  1  0  0  0  0
 17 21  1  0  0  0  0
 18 40  1  0  0  0  0
 19 21  2  0  0  0  0
 19 41  1  0  0  0  0
 20 23  1  0  0  0  0
 20 42  1  0  0  0  0
 20 43  1  0  0  0  0
 21 44  1  0  0  0  0
 22 45  1  0  0  0  0
 22 46  1  0  0  0  0
 22 47  1  0  0  0  0
 23 24  2  0  0  0  0
 23 48  1  0  0  0  0
 24 25  1  0  0  0  0
 24 26  1  0  0  0  0
 25 50  1  0  0  0  0
 25 51  1  0  0  0  0
 25 52  1  0  0  0  0
 26 53  1  0  0  0  0
 26 54  1  0  0  0  0
 26 55  1  0  0  0  0
M  END
> <PUBCHEM_COMPOUND_CID>
46180191

> <PUBCHEM_COMPOUND_CANONICALIZED>
1

> <PUBCHEM_CACTVS_COMPLEXITY>
510

> <PUBCHEM_CACTVS_HBOND_ACCEPTOR>
2

> <PUBCHEM_CACTVS_HBOND_DONOR>
1

> <PUBCHEM_CACTVS_ROTATABLE_BOND>
4

> <PUBCHEM_CACTVS_SUBSKEYS>
AAADceB6IAAAAAAAAAAAAAAAAAAAAAAAAAA8YMEAAAAAAADxQAAAHgAACAAADCzBmAQyBoMAAgCAAiBCAACCAAAgIAAIiAAODIgIJiKCkROEcAhkwBGImAeQ0PMOoAADAAAYAADQAAaAADQAAAAAAAAAAA==

> <PUBCHEM_IUPAC_OPENEYE_NAME>
(6aR)-8-(3-methylbut-2-enyl)-6-propyl-5,6,6a,7-tetrahydro-4H-dibenzo[de,g]quinolin-11-ol

> <PUBCHEM_IUPAC_CAS_NAME>
(6aR)-8-(3-methylbut-2-enyl)-6-propyl-5,6,6a,7-tetrahydro-4H-dibenzo[de,g]quinolin-11-ol

> <PUBCHEM_IUPAC_NAME_MARKUP>
(6<I>a</I><I>R</I>)-8-(3-methylbut-2-enyl)-6-propyl-5,6,6<I>a</I>,7-tetrahydro-4<I>H</I>-dibenzo[de,g]quinolin-11-ol

> <PUBCHEM_IUPAC_NAME>
(6aR)-8-(3-methylbut-2-enyl)-6-propyl-5,6,6a,7-tetrahydro-4H-dibenzo[de,g]quinolin-11-ol

> <PUBCHEM_IUPAC_SYSTEMATIC_NAME>
(6aR)-8-(3-methylbut-2-enyl)-6-propyl-5,6,6a,7-tetrahydro-4H-dibenzo[de,g]quinolin-11-ol

> <PUBCHEM_IUPAC_TRADITIONAL_NAME>
(6aR)-8-(3-methylbut-2-enyl)-6-propyl-5,6,6a,7-tetrahydro-4H-dibenzo[de,g]quinolin-11-ol

> <PUBCHEM_IUPAC_INCHI>
InChI=1S/C24H29NO/c1-4-13-25-14-12-18-6-5-7-19-23(18)21(25)15-20-17(9-8-16(2)3)10-11-22(26)24(19)20/h5-8,10-11,21,26H,4,9,12-15H2,1-3H3/t21-/m1/s1

> <PUBCHEM_IUPAC_INCHIKEY>
COGVBWFCKLEJAD-OAQYLSRUSA-N

> <PUBCHEM_XLOGP3_AA>
6

> <PUBCHEM_EXACT_MASS>
347.224914549

> <PUBCHEM_MOLECULAR_FORMULA>
C24H29NO

> <PUBCHEM_MOLECULAR_WEIGHT>
347.5

> <PUBCHEM_OPENEYE_CAN_SMILES>
CCCN1CCC2=C3C1CC4=C(C=CC(=C4C3=CC=C2)O)CC=C(C)C

> <PUBCHEM_OPENEYE_ISO_SMILES>
CCCN1CCC2=C3[C@H]1CC4=C(C=CC(=C4C3=CC=C2)O)CC=C(C)C

> <PUBCHEM_CACTVS_TPSA>
23.5

> <PUBCHEM_MONOISOTOPIC_WEIGHT>
347.224914549

> <PUBCHEM_TOTAL_CHARGE>
0

> <PUBCHEM_HEAVY_ATOM_COUNT>
26

> <PUBCHEM_ATOM_DEF_STEREO_COUNT>
1

> <PUBCHEM_ATOM_UDEF_STEREO_COUNT>
0

> <PUBCHEM_BOND_DEF_STEREO_COUNT>
0

> <PUBCHEM_BOND_UDEF_STEREO_COUNT>
0

> <PUBCHEM_ISOTOPIC_ATOM_COUNT>
0

> <PUBCHEM_COMPONENT_COUNT>
1

> <PUBCHEM_CACTVS_TAUTO_COUNT>
-1

> <PUBCHEM_COORDINATE_TYPE>
1
5
255

> <PUBCHEM_BONDANNOTATIONS>
10  11  8
10  13  8
11  17  8
13  19  8
14  18  8
15  18  8
17  21  8
19  21  8
3  27  5
4  7  8
4  9  8
7  14  8
9  15  8

$$$$
