49865639
  -OEChem-09292322302D

 49 51  0     0  0  0  0  0  0999 V2000
    2.0000   -3.5000    0.0000 F   0  0  0  0  0  0  0  0  0  0  0  0
    3.7320   -0.5000    0.0000 N   0  0  0  0  0  0  0  0  0  0  0  0
    3.7320   -2.5000    0.0000 N   0  0  0  0  0  0  0  0  0  0  0  0
    5.4641    3.5000    0.0000 N   0  0  0  0  0  0  0  0  0  0  0  0
    7.1962    3.5000    0.0000 N   0  0  0  0  0  0  0  0  0  0  0  0
    4.5981   -1.0000    0.0000 C   0  0  0  0  0  0  0  0  0  0  0  0
    2.8660   -1.0000    0.0000 C   0  0  0  0  0  0  0  0  0  0  0  0
    4.5981   -2.0000    0.0000 C   0  0  0  0  0  0  0  0  0  0  0  0
    2.8660   -2.0000    0.0000 C   0  0  0  0  0  0  0  0  0  0  0  0
    3.7320    0.5000    0.0000 C   0  0  0  0  0  0  0  0  0  0  0  0
    4.5981    1.0000    0.0000 C   0  0  0  0  0  0  0  0  0  0  0  0
    4.5981    2.0000    0.0000 C   0  0  0  0  0  0  0  0  0  0  0  0
    3.7320   -3.5000    0.0000 C   0  0  0  0  0  0  0  0  0  0  0  0
    5.4641    2.5000    0.0000 C   0  0  0  0  0  0  0  0  0  0  0  0
    2.8660   -4.0000    0.0000 C   0  0  0  0  0  0  0  0  0  0  0  0
    4.5981   -4.0000    0.0000 C   0  0  0  0  0  0  0  0  0  0  0  0
    2.8660   -5.0000    0.0000 C   0  0  0  0  0  0  0  0  0  0  0  0
    4.5981   -5.0000    0.0000 C   0  0  0  0  0  0  0  0  0  0  0  0
    3.7320   -5.5000    0.0000 C   0  0  0  0  0  0  0  0  0  0  0  0
    6.3301    4.0000    0.0000 C   0  0  0  0  0  0  0  0  0  0  0  0
    6.3301    5.0000    0.0000 C   0  0  0  0  0  0  0  0  0  0  0  0
    7.1962    5.5000    0.0000 C   0  0  0  0  0  0  0  0  0  0  0  0
    8.0622    4.0000    0.0000 C   0  0  0  0  0  0  0  0  0  0  0  0
    8.0622    5.0000    0.0000 C   0  0  0  0  0  0  0  0  0  0  0  0
    5.2087   -1.1077    0.0000 H   0  0  0  0  0  0  0  0  0  0  0  0
    4.8101   -0.4174    0.0000 H   0  0  0  0  0  0  0  0  0  0  0  0
    2.6540   -0.4174    0.0000 H   0  0  0  0  0  0  0  0  0  0  0  0
    2.2554   -1.1077    0.0000 H   0  0  0  0  0  0  0  0  0  0  0  0
    4.8101   -2.5826    0.0000 H   0  0  0  0  0  0  0  0  0  0  0  0
    5.2087   -1.8923    0.0000 H   0  0  0  0  0  0  0  0  0  0  0  0
    2.2554   -1.8923    0.0000 H   0  0  0  0  0  0  0  0  0  0  0  0
    2.6540   -2.5826    0.0000 H   0  0  0  0  0  0  0  0  0  0  0  0
    3.5200    1.0826    0.0000 H   0  0  0  0  0  0  0  0  0  0  0  0
    3.1215    0.3923    0.0000 H   0  0  0  0  0  0  0  0  0  0  0  0
    4.8101    0.4174    0.0000 H   0  0  0  0  0  0  0  0  0  0  0  0
    5.2087    1.1077    0.0000 H   0  0  0  0  0  0  0  0  0  0  0  0
    4.3860    2.5826    0.0000 H   0  0  0  0  0  0  0  0  0  0  0  0
    3.9875    1.8923    0.0000 H   0  0  0  0  0  0  0  0  0  0  0  0
    5.6762    1.9174    0.0000 H   0  0  0  0  0  0  0  0  0  0  0  0
    6.0747    2.6077    0.0000 H   0  0  0  0  0  0  0  0  0  0  0  0
    5.1350   -3.6900    0.0000 H   0  0  0  0  0  0  0  0  0  0  0  0
    4.9272    3.8100    0.0000 H   0  0  0  0  0  0  0  0  0  0  0  0
    2.3291   -5.3100    0.0000 H   0  0  0  0  0  0  0  0  0  0  0  0
    5.1350   -5.3100    0.0000 H   0  0  0  0  0  0  0  0  0  0  0  0
    3.7320   -6.1200    0.0000 H   0  0  0  0  0  0  0  0  0  0  0  0
    5.7932    5.3100    0.0000 H   0  0  0  0  0  0  0  0  0  0  0  0
    7.1962    6.1200    0.0000 H   0  0  0  0  0  0  0  0  0  0  0  0
    8.5991    3.6900    0.0000 H   0  0  0  0  0  0  0  0  0  0  0  0
    8.5991    5.3100    0.0000 H   0  0  0  0  0  0  0  0  0  0  0  0
  1 15  1  0  0  0  0
  2  6  1  0  0  0  0
  2  7  1  0  0  0  0
  2 10  1  0  0  0  0
  3  8  1  0  0  0  0
  3  9  1  0  0  0  0
  3 13  1  0  0  0  0
  4 14  1  0  0  0  0
  4 20  1  0  0  0  0
  4 42  1  0  0  0  0
  5 20  1  0  0  0  0
  5 23  2  0  0  0  0
  6  8  1  0  0  0  0
  6 25  1  0  0  0  0
  6 26  1  0  0  0  0
  7  9  1  0  0  0  0
  7 27  1  0  0  0  0
  7 28  1  0  0  0  0
  8 29  1  0  0  0  0
  8 30  1  0  0  0  0
  9 31  1  0  0  0  0
  9 32  1  0  0  0  0
 10 11  1  0  0  0  0
 10 33  1  0  0  0  0
 10 34  1  0  0  0  0
 11 12  1  0  0  0  0
 11 35  1  0  0  0  0
 11 36  1  0  0  0  0
 12 14  1  0  0  0  0
 12 37  1  0  0  0  0
 12 38  1  0  0  0  0
 13 15  1  0  0  0  0
 13 16  2  0  0  0  0
 14 39  1  0  0  0  0
 14 40  1  0  0  0  0
 15 17  2  0  0  0  0
 16 18  1  0  0  0  0
 16 41  1  0  0  0  0
 17 19  1  0  0  0  0
 17 43  1  0  0  0  0
 18 19  2  0  0  0  0
 18 44  1  0  0  0  0
 19 45  1  0  0  0  0
 20 21  2  0  0  0  0
 21 22  1  0  0  0  0
 21 46  1  0  0  0  0
 22 24  2  0  0  0  0
 22 47  1  0  0  0  0
 23 24  1  0  0  0  0
 23 48  1  0  0  0  0
 24 49  1  0  0  0  0
M  END
> <PUBCHEM_COMPOUND_CID>
49865639

> <PUBCHEM_COMPOUND_CANONICALIZED>
1

> <PUBCHEM_CACTVS_COMPLEXITY>
346

> <PUBCHEM_CACTVS_HBOND_ACCEPTOR>
5

> <PUBCHEM_CACTVS_HBOND_DONOR>
1

> <PUBCHEM_CACTVS_ROTATABLE_BOND>
7

> <PUBCHEM_CACTVS_SUBSKEYS>
AAADceB7gQAAAAAAAAAAAAAAAAAAAAAAAAA8WIAAAAAAAAABwAAAHQAQAAAACAjBEgw98JPIEACgADZnZACCgCkxAiAJ2KA4ZJiIYOLAmZGUIAhokALIyCcQAAAAAAAAAAAAAAAAAAAAAAAAAAAAAAAAAA==

> <PUBCHEM_IUPAC_OPENEYE_NAME>
N-[4-[4-(2-fluorophenyl)piperazin-1-yl]butyl]pyridin-2-amine

> <PUBCHEM_IUPAC_CAS_NAME>
N-[4-[4-(2-fluorophenyl)-1-piperazinyl]butyl]-2-pyridinamine

> <PUBCHEM_IUPAC_NAME_MARKUP>
<I>N</I>-[4-[4-(2-fluorophenyl)piperazin-1-yl]butyl]pyridin-2-amine

> <PUBCHEM_IUPAC_NAME>
N-[4-[4-(2-fluorophenyl)piperazin-1-yl]butyl]pyridin-2-amine

> <PUBCHEM_IUPAC_SYSTEMATIC_NAME>
N-[4-[4-(2-fluorophenyl)piperazin-1-yl]butyl]pyridin-2-amine

> <PUBCHEM_IUPAC_TRADITIONAL_NAME>
4-[4-(2-fluorophenyl)piperazino]butyl-(2-pyridyl)amine

> <PUBCHEM_IUPAC_INCHI>
InChI=1S/C19H25FN4/c20-17-7-1-2-8-18(17)24-15-13-23(14-16-24)12-6-5-11-22-19-9-3-4-10-21-19/h1-4,7-10H,5-6,11-16H2,(H,21,22)

> <PUBCHEM_IUPAC_INCHIKEY>
VASIIKBBVSZUHT-UHFFFAOYSA-N

> <PUBCHEM_XLOGP3_AA>
3.6

> <PUBCHEM_EXACT_MASS>
328.20632498

> <PUBCHEM_MOLECULAR_FORMULA>
C19H25FN4

> <PUBCHEM_MOLECULAR_WEIGHT>
328.4

> <PUBCHEM_OPENEYE_CAN_SMILES>
C1CN(CCN1CCCCNC2=CC=CC=N2)C3=CC=CC=C3F

> <PUBCHEM_OPENEYE_ISO_SMILES>
C1CN(CCN1CCCCNC2=CC=CC=N2)C3=CC=CC=C3F

> <PUBCHEM_CACTVS_TPSA>
31.4

> <PUBCHEM_MONOISOTOPIC_WEIGHT>
328.20632498

> <PUBCHEM_TOTAL_CHARGE>
0

> <PUBCHEM_HEAVY_ATOM_COUNT>
24

> <PUBCHEM_ATOM_DEF_STEREO_COUNT>
0

> <PUBCHEM_ATOM_UDEF_STEREO_COUNT>
0

> <PUBCHEM_BOND_DEF_STEREO_COUNT>
0

> <PUBCHEM_BOND_UDEF_STEREO_COUNT>
0

> <PUBCHEM_ISOTOPIC_ATOM_COUNT>
0

> <PUBCHEM_COMPONENT_COUNT>
1

> <PUBCHEM_CACTVS_TAUTO_COUNT>
-1

> <PUBCHEM_COORDINATE_TYPE>
1
5
255

> <PUBCHEM_BONDANNOTATIONS>
13  15  8
13  16  8
15  17  8
16  18  8
17  19  8
18  19  8
20  21  8
21  22  8
22  24  8
23  24  8
5  20  8
5  23  8

$$$$
