62705335
  -OEChem-09292322322D

 58 62  0     0  0  0  0  0  0999 V2000
    2.0000    4.7017    0.0000 F   0  0  0  0  0  0  0  0  0  0  0  0
   10.9743   -0.4388    0.0000 O   0  0  0  0  0  0  0  0  0  0  0  0
    7.2622    2.6776    0.0000 O   0  0  0  0  0  0  0  0  0  0  0  0
    7.2622   -0.3224    0.0000 N   0  0  0  0  0  0  0  0  0  0  0  0
    9.8602   -1.8224    0.0000 N   0  0  0  0  0  0  0  0  0  0  0  0
    5.5301    2.6776    0.0000 N   0  0  0  0  0  0  0  0  0  0  0  0
   11.4351   -2.1544    0.0000 N   0  0  0  0  0  0  0  0  0  0  0  0
    8.9942   -1.3224    0.0000 C   0  0  0  0  0  0  0  0  0  0  0  0
    8.1282   -1.8224    0.0000 C   0  0  0  0  0  0  0  0  0  0  0  0
    8.9942   -0.3224    0.0000 C   0  0  0  0  0  0  0  0  0  0  0  0
    7.2622   -1.3224    0.0000 C   0  0  0  0  0  0  0  0  0  0  0  0
    8.1282    0.1776    0.0000 C   0  0  0  0  0  0  0  0  0  0  0  0
    6.3961    0.1776    0.0000 C   0  0  0  0  0  0  0  0  0  0  0  0
    6.3961    1.1776    0.0000 C   0  0  0  0  0  0  0  0  0  0  0  0
    9.9633   -2.8112    0.0000 C   0  0  0  0  0  0  0  0  0  0  0  0
    5.5301    1.6776    0.0000 C   0  0  0  0  0  0  0  0  0  0  0  0
   10.7680   -1.4173    0.0000 C   0  0  0  0  0  0  0  0  0  0  0  0
   10.9418   -3.0174    0.0000 C   0  0  0  0  0  0  0  0  0  0  0  0
    9.2955   -3.5555    0.0000 C   0  0  0  0  0  0  0  0  0  0  0  0
    4.6641    3.1776    0.0000 C   0  0  0  0  0  0  0  0  0  0  0  0
    6.3961    3.1776    0.0000 C   0  0  0  0  0  0  0  0  0  0  0  0
    6.3961    4.1776    0.0000 C   0  0  0  0  0  0  0  0  0  0  0  0
    4.6641    4.1776    0.0000 C   0  0  0  0  0  0  0  0  0  0  0  0
    5.5301    4.6776    0.0000 C   0  0  0  0  0  0  0  0  0  0  0  0
   11.2525   -3.9679    0.0000 C   0  0  0  0  0  0  0  0  0  0  0  0
    9.6061   -4.5060    0.0000 C   0  0  0  0  0  0  0  0  0  0  0  0
   10.5846   -4.7122    0.0000 C   0  0  0  0  0  0  0  0  0  0  0  0
    3.7702    2.6429    0.0000 C   0  0  0  0  0  0  0  0  0  0  0  0
    3.7702    4.7122    0.0000 C   0  0  0  0  0  0  0  0  0  0  0  0
    2.8641    3.1567    0.0000 C   0  0  0  0  0  0  0  0  0  0  0  0
    2.8641    4.1984    0.0000 C   0  0  0  0  0  0  0  0  0  0  0  0
    8.9942   -1.9424    0.0000 H   0  0  0  0  0  0  0  0  0  0  0  0
    7.7297   -2.2974    0.0000 H   0  0  0  0  0  0  0  0  0  0  0  0
    8.5267   -2.2974    0.0000 H   0  0  0  0  0  0  0  0  0  0  0  0
    9.6048   -0.4301    0.0000 H   0  0  0  0  0  0  0  0  0  0  0  0
    9.2063    0.2602    0.0000 H   0  0  0  0  0  0  0  0  0  0  0  0
    6.6516   -1.2148    0.0000 H   0  0  0  0  0  0  0  0  0  0  0  0
    7.0501   -1.9051    0.0000 H   0  0  0  0  0  0  0  0  0  0  0  0
    8.5267    0.6525    0.0000 H   0  0  0  0  0  0  0  0  0  0  0  0
    7.7297    0.6525    0.0000 H   0  0  0  0  0  0  0  0  0  0  0  0
    5.7856    0.2852    0.0000 H   0  0  0  0  0  0  0  0  0  0  0  0
    6.1841   -0.4051    0.0000 H   0  0  0  0  0  0  0  0  0  0  0  0
    7.0067    1.0699    0.0000 H   0  0  0  0  0  0  0  0  0  0  0  0
    6.6082    1.7602    0.0000 H   0  0  0  0  0  0  0  0  0  0  0  0
    4.9196    1.7852    0.0000 H   0  0  0  0  0  0  0  0  0  0  0  0
    5.3181    1.0949    0.0000 H   0  0  0  0  0  0  0  0  0  0  0  0
   12.0515   -2.0874    0.0000 H   0  0  0  0  0  0  0  0  0  0  0  0
    8.6888   -3.4276    0.0000 H   0  0  0  0  0  0  0  0  0  0  0  0
    7.0067    4.0699    0.0000 H   0  0  0  0  0  0  0  0  0  0  0  0
    6.6082    4.7602    0.0000 H   0  0  0  0  0  0  0  0  0  0  0  0
    5.9286    5.1525    0.0000 H   0  0  0  0  0  0  0  0  0  0  0  0
    5.1316    5.1525    0.0000 H   0  0  0  0  0  0  0  0  0  0  0  0
   11.8591   -4.0958    0.0000 H   0  0  0  0  0  0  0  0  0  0  0  0
    9.1921   -4.9675    0.0000 H   0  0  0  0  0  0  0  0  0  0  0  0
   10.7772   -5.3015    0.0000 H   0  0  0  0  0  0  0  0  0  0  0  0
    3.7773    2.0229    0.0000 H   0  0  0  0  0  0  0  0  0  0  0  0
    3.7773    5.3322    0.0000 H   0  0  0  0  0  0  0  0  0  0  0  0
    2.3284    2.8447    0.0000 H   0  0  0  0  0  0  0  0  0  0  0  0
  1 31  1  0  0  0  0
  2 17  2  0  0  0  0
  3 21  2  0  0  0  0
  4 11  1  0  0  0  0
  4 12  1  0  0  0  0
  4 13  1  0  0  0  0
  5  8  1  0  0  0  0
  5 15  1  0  0  0  0
  5 17  1  0  0  0  0
  6 16  1  0  0  0  0
  6 20  1  0  0  0  0
  6 21  1  0  0  0  0
  7 17  1  0  0  0  0
  7 18  1  0  0  0  0
  7 47  1  0  0  0  0
  8  9  1  0  0  0  0
  8 10  1  0  0  0  0
  8 32  1  0  0  0  0
  9 11  1  0  0  0  0
  9 33  1  0  0  0  0
  9 34  1  0  0  0  0
 10 12  1  0  0  0  0
 10 35  1  0  0  0  0
 10 36  1  0  0  0  0
 11 37  1  0  0  0  0
 11 38  1  0  0  0  0
 12 39  1  0  0  0  0
 12 40  1  0  0  0  0
 13 14  1  0  0  0  0
 13 41  1  0  0  0  0
 13 42  1  0  0  0  0
 14 16  1  0  0  0  0
 14 43  1  0  0  0  0
 14 44  1  0  0  0  0
 15 18  1  0  0  0  0
 15 19  2  0  0  0  0
 16 45  1  0  0  0  0
 16 46  1  0  0  0  0
 18 25  2  0  0  0  0
 19 26  1  0  0  0  0
 19 48  1  0  0  0  0
 20 23  2  0  0  0  0
 20 28  1  0  0  0  0
 21 22  1  0  0  0  0
 22 24  1  0  0  0  0
 22 49  1  0  0  0  0
 22 50  1  0  0  0  0
 23 24  1  0  0  0  0
 23 29  1  0  0  0  0
 24 51  1  0  0  0  0
 24 52  1  0  0  0  0
 25 27  1  0  0  0  0
 25 53  1  0  0  0  0
 26 27  2  0  0  0  0
 26 54  1  0  0  0  0
 27 55  1  0  0  0  0
 28 30  2  0  0  0  0
 28 56  1  0  0  0  0
 29 31  2  0  0  0  0
 29 57  1  0  0  0  0
 30 31  1  0  0  0  0
 30 58  1  0  0  0  0
M  END
> <PUBCHEM_COMPOUND_CID>
62705335

> <PUBCHEM_COMPOUND_CANONICALIZED>
1

> <PUBCHEM_CACTVS_COMPLEXITY>
668

> <PUBCHEM_CACTVS_HBOND_ACCEPTOR>
4

> <PUBCHEM_CACTVS_HBOND_DONOR>
1

> <PUBCHEM_CACTVS_ROTATABLE_BOND>
5

> <PUBCHEM_CACTVS_SUBSKEYS>
AAADceB7sQAAAAAAAAAAAAAAAAAAAWAAAAA8eIEAAAAAAFixQAAAHwAQAAAADCjBmAwxwIPAAACIAiVSUACCAAAhAgAIiAEIdIiIYDLA0ZGUIAholgLIyCcYiYCeAAAAAAACACAAAAAAAAQAQAAAAAAAAA==

> <PUBCHEM_IUPAC_OPENEYE_NAME>
6-fluoro-1-[3-[4-(2-oxo-3H-benzimidazol-1-yl)-1-piperidyl]propyl]-3,4-dihydroquinolin-2-one

> <PUBCHEM_IUPAC_CAS_NAME>
6-fluoro-1-[3-[4-(2-oxo-3H-benzimidazol-1-yl)-1-piperidinyl]propyl]-3,4-dihydroquinolin-2-one

> <PUBCHEM_IUPAC_NAME_MARKUP>
6-fluoro-1-[3-[4-(2-oxo-3<I>H</I>-benzimidazol-1-yl)piperidin-1-yl]propyl]-3,4-dihydroquinolin-2-one

> <PUBCHEM_IUPAC_NAME>
6-fluoro-1-[3-[4-(2-oxo-3H-benzimidazol-1-yl)piperidin-1-yl]propyl]-3,4-dihydroquinolin-2-one

> <PUBCHEM_IUPAC_SYSTEMATIC_NAME>
6-fluoranyl-1-[3-[4-(2-oxidanylidene-3H-benzimidazol-1-yl)piperidin-1-yl]propyl]-3,4-dihydroquinolin-2-one

> <PUBCHEM_IUPAC_TRADITIONAL_NAME>
6-fluoro-1-[3-[4-(2-keto-3H-benzimidazol-1-yl)piperidino]propyl]-3,4-dihydrocarbostyril

> <PUBCHEM_IUPAC_INCHI>
InChI=1S/C24H27FN4O2/c25-18-7-8-21-17(16-18)6-9-23(30)28(21)13-3-12-27-14-10-19(11-15-27)29-22-5-2-1-4-20(22)26-24(29)31/h1-2,4-5,7-8,16,19H,3,6,9-15H2,(H,26,31)

> <PUBCHEM_IUPAC_INCHIKEY>
NLKZCVSXHKODTA-UHFFFAOYSA-N

> <PUBCHEM_XLOGP3>
3.9

> <PUBCHEM_EXACT_MASS>
422.21180428

> <PUBCHEM_MOLECULAR_FORMULA>
C24H27FN4O2

> <PUBCHEM_MOLECULAR_WEIGHT>
422.5

> <PUBCHEM_OPENEYE_CAN_SMILES>
C1CN(CCC1N2C3=CC=CC=C3NC2=O)CCCN4C(=O)CCC5=C4C=CC(=C5)F

> <PUBCHEM_OPENEYE_ISO_SMILES>
C1CN(CCC1N2C3=CC=CC=C3NC2=O)CCCN4C(=O)CCC5=C4C=CC(=C5)F

> <PUBCHEM_CACTVS_TPSA>
55.9

> <PUBCHEM_MONOISOTOPIC_WEIGHT>
422.21180428

> <PUBCHEM_TOTAL_CHARGE>
0

> <PUBCHEM_HEAVY_ATOM_COUNT>
31

> <PUBCHEM_ATOM_DEF_STEREO_COUNT>
0

> <PUBCHEM_ATOM_UDEF_STEREO_COUNT>
0

> <PUBCHEM_BOND_DEF_STEREO_COUNT>
0

> <PUBCHEM_BOND_UDEF_STEREO_COUNT>
0

> <PUBCHEM_ISOTOPIC_ATOM_COUNT>
0

> <PUBCHEM_COMPONENT_COUNT>
1

> <PUBCHEM_CACTVS_TAUTO_COUNT>
-1

> <PUBCHEM_COORDINATE_TYPE>
1
5
255

> <PUBCHEM_BONDANNOTATIONS>
15  18  8
15  19  8
18  25  8
19  26  8
20  23  8
20  28  8
23  29  8
25  27  8
26  27  8
28  30  8
29  31  8
30  31  8
5  15  8
5  17  8
7  17  8
7  18  8

$$$$
