44427825
  -OEChem-09292322042D

 63 66  0     0  0  0  0  0  0999 V2000
    2.8660   -5.7500    0.0000 O   0  0  0  0  0  0  0  0  0  0  0  0
    8.0622    1.2500    0.0000 O   0  0  0  0  0  0  0  0  0  0  0  0
    4.5981   -2.7500    0.0000 N   0  0  0  0  0  0  0  0  0  0  0  0
    4.5981   -4.7500    0.0000 N   0  0  0  0  0  0  0  0  0  0  0  0
    6.3301    1.2500    0.0000 N   0  0  0  0  0  0  0  0  0  0  0  0
    6.3301    6.2500    0.0000 N   0  0  0  0  0  0  0  0  0  0  0  0
    5.4641   -3.2500    0.0000 C   0  0  0  0  0  0  0  0  0  0  0  0
    3.7320   -3.2500    0.0000 C   0  0  0  0  0  0  0  0  0  0  0  0
    5.4641   -4.2500    0.0000 C   0  0  0  0  0  0  0  0  0  0  0  0
    3.7320   -4.2500    0.0000 C   0  0  0  0  0  0  0  0  0  0  0  0
    4.5981   -1.7500    0.0000 C   0  0  0  0  0  0  0  0  0  0  0  0
    4.5981   -5.7500    0.0000 C   0  0  0  0  0  0  0  0  0  0  0  0
    5.4641   -1.2500    0.0000 C   0  0  0  0  0  0  0  0  0  0  0  0
    3.7320   -6.2500    0.0000 C   0  0  0  0  0  0  0  0  0  0  0  0
    5.4641   -6.2500    0.0000 C   0  0  0  0  0  0  0  0  0  0  0  0
    3.7320   -7.2500    0.0000 C   0  0  0  0  0  0  0  0  0  0  0  0
    5.4641   -7.2500    0.0000 C   0  0  0  0  0  0  0  0  0  0  0  0
    5.4641   -0.2500    0.0000 C   0  0  0  0  0  0  0  0  0  0  0  0
    4.5981   -7.7500    0.0000 C   0  0  0  0  0  0  0  0  0  0  0  0
    6.3301    0.2500    0.0000 C   0  0  0  0  0  0  0  0  0  0  0  0
    2.0000   -6.2500    0.0000 C   0  0  0  0  0  0  0  0  0  0  0  0
    7.1962    1.7500    0.0000 C   0  0  0  0  0  0  0  0  0  0  0  0
    7.1962    2.7500    0.0000 C   0  0  0  0  0  0  0  0  0  0  0  0
    8.0622    3.2500    0.0000 C   0  0  0  0  0  0  0  0  0  0  0  0
    6.3301    3.2500    0.0000 C   0  0  0  0  0  0  0  0  0  0  0  0
    7.1962    4.7500    0.0000 C   0  0  0  0  0  0  0  0  0  0  0  0
    8.0622    4.2500    0.0000 C   0  0  0  0  0  0  0  0  0  0  0  0
    6.3301    4.2500    0.0000 C   0  0  0  0  0  0  0  0  0  0  0  0
    7.1962    5.7500    0.0000 C   0  0  0  0  0  0  0  0  0  0  0  0
    8.0622    6.2500    0.0000 C   0  0  0  0  0  0  0  0  0  0  0  0
    8.0622    7.2500    0.0000 C   0  0  0  0  0  0  0  0  0  0  0  0
    6.3301    7.2500    0.0000 C   0  0  0  0  0  0  0  0  0  0  0  0
    7.1962    7.7500    0.0000 C   0  0  0  0  0  0  0  0  0  0  0  0
    6.0747   -3.3577    0.0000 H   0  0  0  0  0  0  0  0  0  0  0  0
    5.6762   -2.6674    0.0000 H   0  0  0  0  0  0  0  0  0  0  0  0
    3.5200   -2.6674    0.0000 H   0  0  0  0  0  0  0  0  0  0  0  0
    3.1215   -3.3577    0.0000 H   0  0  0  0  0  0  0  0  0  0  0  0
    5.6762   -4.8326    0.0000 H   0  0  0  0  0  0  0  0  0  0  0  0
    6.0747   -4.1423    0.0000 H   0  0  0  0  0  0  0  0  0  0  0  0
    3.1215   -4.1423    0.0000 H   0  0  0  0  0  0  0  0  0  0  0  0
    3.5200   -4.8326    0.0000 H   0  0  0  0  0  0  0  0  0  0  0  0
    4.3860   -1.1674    0.0000 H   0  0  0  0  0  0  0  0  0  0  0  0
    3.9875   -1.8577    0.0000 H   0  0  0  0  0  0  0  0  0  0  0  0
    6.0010   -1.5600    0.0000 H   0  0  0  0  0  0  0  0  0  0  0  0
    6.0010   -5.9400    0.0000 H   0  0  0  0  0  0  0  0  0  0  0  0
    3.1951   -7.5600    0.0000 H   0  0  0  0  0  0  0  0  0  0  0  0
    6.0010   -7.5600    0.0000 H   0  0  0  0  0  0  0  0  0  0  0  0
    4.9272    0.0600    0.0000 H   0  0  0  0  0  0  0  0  0  0  0  0
    4.5981   -8.3700    0.0000 H   0  0  0  0  0  0  0  0  0  0  0  0
    6.5422   -0.3326    0.0000 H   0  0  0  0  0  0  0  0  0  0  0  0
    6.9407    0.3577    0.0000 H   0  0  0  0  0  0  0  0  0  0  0  0
    1.6900   -5.7131    0.0000 H   0  0  0  0  0  0  0  0  0  0  0  0
    1.4631   -6.5600    0.0000 H   0  0  0  0  0  0  0  0  0  0  0  0
    2.3100   -6.7869    0.0000 H   0  0  0  0  0  0  0  0  0  0  0  0
    5.7932    1.5600    0.0000 H   0  0  0  0  0  0  0  0  0  0  0  0
    8.5991    2.9400    0.0000 H   0  0  0  0  0  0  0  0  0  0  0  0
    5.7932    2.9400    0.0000 H   0  0  0  0  0  0  0  0  0  0  0  0
    8.5991    4.5600    0.0000 H   0  0  0  0  0  0  0  0  0  0  0  0
    5.7932    4.5600    0.0000 H   0  0  0  0  0  0  0  0  0  0  0  0
    8.5991    5.9400    0.0000 H   0  0  0  0  0  0  0  0  0  0  0  0
    8.5991    7.5600    0.0000 H   0  0  0  0  0  0  0  0  0  0  0  0
    5.7932    7.5600    0.0000 H   0  0  0  0  0  0  0  0  0  0  0  0
    7.1962    8.3700    0.0000 H   0  0  0  0  0  0  0  0  0  0  0  0
  1 14  1  0  0  0  0
  1 21  1  0  0  0  0
  2 22  2  0  0  0  0
  3  7  1  0  0  0  0
  3  8  1  0  0  0  0
  3 11  1  0  0  0  0
  4  9  1  0  0  0  0
  4 10  1  0  0  0  0
  4 12  1  0  0  0  0
  5 20  1  0  0  0  0
  5 22  1  0  0  0  0
  5 55  1  0  0  0  0
  6 29  1  0  0  0  0
  6 32  2  0  0  0  0
  7  9  1  0  0  0  0
  7 34  1  0  0  0  0
  7 35  1  0  0  0  0
  8 10  1  0  0  0  0
  8 36  1  0  0  0  0
  8 37  1  0  0  0  0
  9 38  1  0  0  0  0
  9 39  1  0  0  0  0
 10 40  1  0  0  0  0
 10 41  1  0  0  0  0
 11 13  1  0  0  0  0
 11 42  1  0  0  0  0
 11 43  1  0  0  0  0
 12 14  1  0  0  0  0
 12 15  2  0  0  0  0
 13 18  2  0  0  0  0
 13 44  1  0  0  0  0
 14 16  2  0  0  0  0
 15 17  1  0  0  0  0
 15 45  1  0  0  0  0
 16 19  1  0  0  0  0
 16 46  1  0  0  0  0
 17 19  2  0  0  0  0
 17 47  1  0  0  0  0
 18 20  1  0  0  0  0
 18 48  1  0  0  0  0
 19 49  1  0  0  0  0
 20 50  1  0  0  0  0
 20 51  1  0  0  0  0
 21 52  1  0  0  0  0
 21 53  1  0  0  0  0
 21 54  1  0  0  0  0
 22 23  1  0  0  0  0
 23 24  2  0  0  0  0
 23 25  1  0  0  0  0
 24 27  1  0  0  0  0
 24 56  1  0  0  0  0
 25 28  2  0  0  0  0
 25 57  1  0  0  0  0
 26 27  2  0  0  0  0
 26 28  1  0  0  0  0
 26 29  1  0  0  0  0
 27 58  1  0  0  0  0
 28 59  1  0  0  0  0
 29 30  2  0  0  0  0
 30 31  1  0  0  0  0
 30 60  1  0  0  0  0
 31 33  2  0  0  0  0
 31 61  1  0  0  0  0
 32 33  1  0  0  0  0
 32 62  1  0  0  0  0
 33 63  1  0  0  0  0
M  END
> <PUBCHEM_COMPOUND_CID>
44427825

> <PUBCHEM_COMPOUND_CANONICALIZED>
1

> <PUBCHEM_CACTVS_COMPLEXITY>
611

> <PUBCHEM_CACTVS_HBOND_ACCEPTOR>
5

> <PUBCHEM_CACTVS_HBOND_DONOR>
1

> <PUBCHEM_CACTVS_ROTATABLE_BOND>
8

> <PUBCHEM_CACTVS_SUBSKEYS>
AAADceB7sAAAAAAAAAAAAAAAAAAAAAAAAAA8eIEAAAAAAAAB0AAAHgAQAAAADAzBngY+xpPIFACoAzV3VACCiCA1IiAI2KE/bNgOZvLEtZuVMShk1hHY6YeYyMCOQAAAAAAAEACAAAAAAAAgAAAAAAAAAA==

> <PUBCHEM_IUPAC_OPENEYE_NAME>
N-[(E)-4-[4-(2-methoxyphenyl)piperazin-1-yl]but-2-enyl]-4-(2-pyridyl)benzamide

> <PUBCHEM_IUPAC_CAS_NAME>
N-[(E)-4-[4-(2-methoxyphenyl)-1-piperazinyl]but-2-enyl]-4-(2-pyridinyl)benzamide

> <PUBCHEM_IUPAC_NAME_MARKUP>
<I>N</I>-[(<I>E</I>)-4-[4-(2-methoxyphenyl)piperazin-1-yl]but-2-enyl]-4-pyridin-2-ylbenzamide

> <PUBCHEM_IUPAC_NAME>
N-[(E)-4-[4-(2-methoxyphenyl)piperazin-1-yl]but-2-enyl]-4-pyridin-2-ylbenzamide

> <PUBCHEM_IUPAC_SYSTEMATIC_NAME>
N-[(E)-4-[4-(2-methoxyphenyl)piperazin-1-yl]but-2-enyl]-4-pyridin-2-yl-benzamide

> <PUBCHEM_IUPAC_TRADITIONAL_NAME>
N-[(E)-4-[4-(2-methoxyphenyl)piperazino]but-2-enyl]-4-(2-pyridyl)benzamide

> <PUBCHEM_IUPAC_INCHI>
InChI=1S/C27H30N4O2/c1-33-26-10-3-2-9-25(26)31-20-18-30(19-21-31)17-7-6-16-29-27(32)23-13-11-22(12-14-23)24-8-4-5-15-28-24/h2-15H,16-21H2,1H3,(H,29,32)/b7-6+

> <PUBCHEM_IUPAC_INCHIKEY>
UCNUZCBZAAKMDU-VOTSOKGWSA-N

> <PUBCHEM_XLOGP3_AA>
3.7

> <PUBCHEM_EXACT_MASS>
442.23687621

> <PUBCHEM_MOLECULAR_FORMULA>
C27H30N4O2

> <PUBCHEM_MOLECULAR_WEIGHT>
442.6

> <PUBCHEM_OPENEYE_CAN_SMILES>
COC1=CC=CC=C1N2CCN(CC2)CC=CCNC(=O)C3=CC=C(C=C3)C4=CC=CC=N4

> <PUBCHEM_OPENEYE_ISO_SMILES>
COC1=CC=CC=C1N2CCN(CC2)C/C=C/CNC(=O)C3=CC=C(C=C3)C4=CC=CC=N4

> <PUBCHEM_CACTVS_TPSA>
57.7

> <PUBCHEM_MONOISOTOPIC_WEIGHT>
442.23687621

> <PUBCHEM_TOTAL_CHARGE>
0

> <PUBCHEM_HEAVY_ATOM_COUNT>
33

> <PUBCHEM_ATOM_DEF_STEREO_COUNT>
0

> <PUBCHEM_ATOM_UDEF_STEREO_COUNT>
0

> <PUBCHEM_BOND_DEF_STEREO_COUNT>
1

> <PUBCHEM_BOND_UDEF_STEREO_COUNT>
0

> <PUBCHEM_ISOTOPIC_ATOM_COUNT>
0

> <PUBCHEM_COMPONENT_COUNT>
1

> <PUBCHEM_CACTVS_TAUTO_COUNT>
-1

> <PUBCHEM_COORDINATE_TYPE>
1
5
255

> <PUBCHEM_BONDANNOTATIONS>
12  14  8
12  15  8
14  16  8
15  17  8
16  19  8
17  19  8
23  24  8
23  25  8
24  27  8
25  28  8
26  27  8
26  28  8
29  30  8
30  31  8
31  33  8
32  33  8
6  29  8
6  32  8

$$$$
