52941809
  -OEChem-09292322292D

 60 64  0     1  0  0  0  0  0999 V2000
    6.2252    0.0000    0.0000 Cl  0  0  0  0  0  0  0  0  0  0  0  0
    0.2616    8.2646    0.0000 F   0  0  0  0  0  0  0  0  0  0  0  0
   10.3160    7.3901    0.0000 O   0  0  0  0  0  0  0  0  0  0  0  0
    9.6765    5.4221    0.0000 O   0  0  0  0  0  0  0  0  0  0  0  0
   12.3761    2.5406    0.0000 O   0  0  0  0  0  0  0  0  0  0  0  0
    3.1333   11.1252    0.0000 N   0  0  0  0  0  0  0  0  0  0  0  0
    7.6502    7.7230    0.0000 N   0  0  0  0  0  0  0  0  0  0  0  0
   12.8340    4.2569    0.0000 N   0  0  0  0  0  0  0  0  0  0  0  0
    5.3388    9.0103    0.0000 C   0  0  3  0  0  0  0  0  0  0  0  0
    4.3183    8.8016    0.0000 C   0  0  0  0  0  0  0  0  0  0  0  0
    5.6607   10.0009    0.0000 C   0  0  0  0  0  0  0  0  0  0  0  0
    3.6333    9.5863    0.0000 C   0  0  0  0  0  0  0  0  0  0  0  0
    4.9577   10.7696    0.0000 C   0  0  0  0  0  0  0  0  0  0  0  0
    6.0050    8.2646    0.0000 C   0  0  0  0  0  0  0  0  0  0  0  0
    3.9423   10.5374    0.0000 C   0  0  0  0  0  0  0  0  0  0  0  0
    2.6333    9.5863    0.0000 C   0  0  0  0  0  0  0  0  0  0  0  0
    6.9840    8.4687    0.0000 C   0  0  0  0  0  0  0  0  0  0  0  0
    2.3243   10.5374    0.0000 C   0  0  0  0  0  0  0  0  0  0  0  0
    8.6292    7.9271    0.0000 C   0  0  0  0  0  0  0  0  0  0  0  0
    1.9483    8.8016    0.0000 C   0  0  0  0  0  0  0  0  0  0  0  0
    9.2954    7.1814    0.0000 C   0  0  1  0  0  0  0  0  0  0  0  0
    1.3089   10.7696    0.0000 C   0  0  0  0  0  0  0  0  0  0  0  0
    8.9736    6.1908    0.0000 C   0  0  0  0  0  0  0  0  0  0  0  0
    0.9278    9.0103    0.0000 C   0  0  0  0  0  0  0  0  0  0  0  0
    0.6060   10.0009    0.0000 C   0  0  0  0  0  0  0  0  0  0  0  0
   10.6919    5.6543    0.0000 C   0  0  0  0  0  0  0  0  0  0  0  0
   11.0009    6.6054    0.0000 C   0  0  0  0  0  0  0  0  0  0  0  0
   11.3610    4.9112    0.0000 C   0  0  0  0  0  0  0  0  0  0  0  0
   12.3392    5.1191    0.0000 C   0  0  0  0  0  0  0  0  0  0  0  0
   11.2597    3.9223    0.0000 C   0  0  0  0  0  0  0  0  0  0  0  0
   11.9791    6.8133    0.0000 C   0  0  0  0  0  0  0  0  0  0  0  0
   12.6482    6.0702    0.0000 C   0  0  0  0  0  0  0  0  0  0  0  0
   12.1682    3.5187    0.0000 C   0  0  0  0  0  0  0  0  0  0  0  0
    5.9455    9.1380    0.0000 H   0  0  0  0  0  0  0  0  0  0  0  0
    3.7883    8.4798    0.0000 H   0  0  0  0  0  0  0  0  0  0  0  0
    4.5446    8.2244    0.0000 H   0  0  0  0  0  0  0  0  0  0  0  0
    6.2088    9.7113    0.0000 H   0  0  0  0  0  0  0  0  0  0  0  0
    6.0399   10.4915    0.0000 H   0  0  0  0  0  0  0  0  0  0  0  0
    5.4801   11.1036    0.0000 H   0  0  0  0  0  0  0  0  0  0  0  0
    4.7181   11.3414    0.0000 H   0  0  0  0  0  0  0  0  0  0  0  0
    5.4780    7.9380    0.0000 H   0  0  0  0  0  0  0  0  0  0  0  0
    6.2351    7.6888    0.0000 H   0  0  0  0  0  0  0  0  0  0  0  0
    7.5110    8.7952    0.0000 H   0  0  0  0  0  0  0  0  0  0  0  0
    6.7540    9.0445    0.0000 H   0  0  0  0  0  0  0  0  0  0  0  0
    3.1333   11.7452    0.0000 H   0  0  0  0  0  0  0  0  0  0  0  0
    7.4564    7.1341    0.0000 H   0  0  0  0  0  0  0  0  0  0  0  0
    9.1562    8.2536    0.0000 H   0  0  0  0  0  0  0  0  0  0  0  0
    8.3992    8.5029    0.0000 H   0  0  0  0  0  0  0  0  0  0  0  0
    2.1467    8.2142    0.0000 H   0  0  0  0  0  0  0  0  0  0  0  0
    9.4904    7.7700    0.0000 H   0  0  0  0  0  0  0  0  0  0  0  0
    1.1241   11.3615    0.0000 H   0  0  0  0  0  0  0  0  0  0  0  0
    8.4254    6.4804    0.0000 H   0  0  0  0  0  0  0  0  0  0  0  0
    8.5944    5.7002    0.0000 H   0  0  0  0  0  0  0  0  0  0  0  0
    0.0000   10.1322    0.0000 H   0  0  0  0  0  0  0  0  0  0  0  0
   10.6530    4.0500    0.0000 H   0  0  0  0  0  0  0  0  0  0  0  0
   11.0690    3.3324    0.0000 H   0  0  0  0  0  0  0  0  0  0  0  0
   12.1707    7.4030    0.0000 H   0  0  0  0  0  0  0  0  0  0  0  0
   13.2547    6.1991    0.0000 H   0  0  0  0  0  0  0  0  0  0  0  0
   13.4505    4.1910    0.0000 H   0  0  0  0  0  0  0  0  0  0  0  0
    7.2252    0.0000    0.0000 H   0  0  0  0  0  0  0  0  0  0  0  0
  1 60  1  0  0  0  0
  2 24  1  0  0  0  0
  3 21  1  0  0  0  0
  3 27  1  0  0  0  0
  4 23  1  0  0  0  0
  4 26  1  0  0  0  0
  5 33  2  0  0  0  0
  6 15  1  0  0  0  0
  6 18  1  0  0  0  0
  6 45  1  0  0  0  0
  7 17  1  0  0  0  0
  7 19  1  0  0  0  0
  7 46  1  0  0  0  0
  8 29  1  0  0  0  0
  8 33  1  0  0  0  0
  8 59  1  0  0  0  0
  9 10  1  0  0  0  0
  9 11  1  0  0  0  0
  9 14  1  0  0  0  0
  9 34  1  0  0  0  0
 10 12  1  0  0  0  0
 10 35  1  0  0  0  0
 10 36  1  0  0  0  0
 11 13  1  0  0  0  0
 11 37  1  0  0  0  0
 11 38  1  0  0  0  0
 12 15  2  0  0  0  0
 12 16  1  0  0  0  0
 13 15  1  0  0  0  0
 13 39  1  0  0  0  0
 13 40  1  0  0  0  0
 14 17  1  0  0  0  0
 14 41  1  0  0  0  0
 14 42  1  0  0  0  0
 16 18  2  0  0  0  0
 16 20  1  0  0  0  0
 17 43  1  0  0  0  0
 17 44  1  0  0  0  0
 18 22  1  0  0  0  0
 21 19  1  6  0  0  0
 19 47  1  0  0  0  0
 19 48  1  0  0  0  0
 20 24  2  0  0  0  0
 20 49  1  0  0  0  0
 21 23  1  0  0  0  0
 21 50  1  0  0  0  0
 22 25  2  0  0  0  0
 22 51  1  0  0  0  0
 23 52  1  0  0  0  0
 23 53  1  0  0  0  0
 24 25  1  0  0  0  0
 25 54  1  0  0  0  0
 26 27  2  0  0  0  0
 26 28  1  0  0  0  0
 27 31  1  0  0  0  0
 28 29  2  0  0  0  0
 28 30  1  0  0  0  0
 29 32  1  0  0  0  0
 30 33  1  0  0  0  0
 30 55  1  0  0  0  0
 30 56  1  0  0  0  0
 31 32  2  0  0  0  0
 31 57  1  0  0  0  0
 32 58  1  0  0  0  0
M  END
> <PUBCHEM_COMPOUND_CID>
52941809

> <PUBCHEM_COMPOUND_CANONICALIZED>
1

> <PUBCHEM_CACTVS_COMPLEXITY>
695

> <PUBCHEM_CACTVS_HBOND_ACCEPTOR>
5

> <PUBCHEM_CACTVS_HBOND_DONOR>
4

> <PUBCHEM_CACTVS_ROTATABLE_BOND>
5

> <PUBCHEM_CACTVS_SUBSKEYS>
AAADceB7MQAEAAAAAAAAAAAAAAAAAWLAAAA0YMEAAAAAAFiR9AAAHwAQAAAADRzhng4wxvLJlACoAyVyVACCiCAhIiAImaE+7JgPJvLEtZuHOCrm1Bna6Ae+3PPOgEABAgAKQAAQgAYEABSAAAAAAAAAAA==

> <PUBCHEM_IUPAC_OPENEYE_NAME>
(3S)-3-[[2-(6-fluoro-2,3,4,9-tetrahydro-1H-carbazol-3-yl)ethylamino]methyl]-2,3,7,9-tetrahydro-[1,4]dioxino[2,3-e]indol-8-one;hydrochloride

> <PUBCHEM_IUPAC_CAS_NAME>
(3S)-3-[[2-(6-fluoro-2,3,4,9-tetrahydro-1H-carbazol-3-yl)ethylamino]methyl]-2,3,7,9-tetrahydro-[1,4]dioxino[2,3-e]indol-8-one;hydrochloride

> <PUBCHEM_IUPAC_NAME_MARKUP>
(3<I>S</I>)-3-[[2-(6-fluoro-2,3,4,9-tetrahydro-1<I>H</I>-carbazol-3-yl)ethylamino]methyl]-2,3,7,9-tetrahydro-[1,4]dioxino[2,3-e]indol-8-one;hydrochloride

> <PUBCHEM_IUPAC_NAME>
(3S)-3-[[2-(6-fluoro-2,3,4,9-tetrahydro-1H-carbazol-3-yl)ethylamino]methyl]-2,3,7,9-tetrahydro-[1,4]dioxino[2,3-e]indol-8-one;hydrochloride

> <PUBCHEM_IUPAC_SYSTEMATIC_NAME>
(3S)-3-[[2-(6-fluoranyl-2,3,4,9-tetrahydro-1H-carbazol-3-yl)ethylamino]methyl]-2,3,7,9-tetrahydro-[1,4]dioxino[2,3-e]indol-8-one;hydrochloride

> <PUBCHEM_IUPAC_TRADITIONAL_NAME>
(3S)-3-[[2-(6-fluoro-2,3,4,9-tetrahydro-1H-carbazol-3-yl)ethylamino]methyl]-2,3,7,9-tetrahydro-[1,4]dioxin[2,3-e]indol-8-one;hydrochloride

> <PUBCHEM_IUPAC_INCHI>
InChI=1S/C25H26FN3O3.ClH/c26-15-2-4-21-18(10-15)17-9-14(1-3-20(17)28-21)7-8-27-12-16-13-31-25-19-11-24(30)29-22(19)5-6-23(25)32-16;/h2,4-6,10,14,16,27-28H,1,3,7-9,11-13H2,(H,29,30);1H/t14?,16-;/m0./s1

> <PUBCHEM_IUPAC_INCHIKEY>
GFPPFLISXNSKPS-OIBOYYEISA-N

> <PUBCHEM_EXACT_MASS>
471.1724976

> <PUBCHEM_MOLECULAR_FORMULA>
C25H27ClFN3O3

> <PUBCHEM_MOLECULAR_WEIGHT>
471.9

> <PUBCHEM_OPENEYE_CAN_SMILES>
C1CC2=C(CC1CCNCC3COC4=C(O3)C=CC5=C4CC(=O)N5)C6=C(N2)C=CC(=C6)F.Cl

> <PUBCHEM_OPENEYE_ISO_SMILES>
C1CC2=C(CC1CCNC[C@H]3COC4=C(O3)C=CC5=C4CC(=O)N5)C6=C(N2)C=CC(=C6)F.Cl

> <PUBCHEM_CACTVS_TPSA>
75.4

> <PUBCHEM_MONOISOTOPIC_WEIGHT>
471.1724976

> <PUBCHEM_TOTAL_CHARGE>
0

> <PUBCHEM_HEAVY_ATOM_COUNT>
33

> <PUBCHEM_ATOM_DEF_STEREO_COUNT>
1

> <PUBCHEM_ATOM_UDEF_STEREO_COUNT>
1

> <PUBCHEM_BOND_DEF_STEREO_COUNT>
0

> <PUBCHEM_BOND_UDEF_STEREO_COUNT>
0

> <PUBCHEM_ISOTOPIC_ATOM_COUNT>
0

> <PUBCHEM_COMPONENT_COUNT>
2

> <PUBCHEM_CACTVS_TAUTO_COUNT>
-1

> <PUBCHEM_COORDINATE_TYPE>
1
5
255

> <PUBCHEM_BONDANNOTATIONS>
12  15  8
12  16  8
16  18  8
16  20  8
18  22  8
21  19  6
20  24  8
22  25  8
24  25  8
26  27  8
26  28  8
27  31  8
28  29  8
29  32  8
31  32  8
6  15  8
6  18  8
9  14  3

$$$$
