11237664
  -OEChem-09292322272D

 71 74  0     0  0  0  0  0  0999 V2000
    7.0659   -5.5409    0.0000 F   0  0  0  0  0  0  0  0  0  0  0  0
    5.8156   -6.2018    0.0000 F   0  0  0  0  0  0  0  0  0  0  0  0
    6.4051   -4.2906    0.0000 F   0  0  0  0  0  0  0  0  0  0  0  0
    2.5092    2.9689    0.0000 O   0  0  0  0  0  0  0  0  0  0  0  0
    4.3301    6.7501    0.0000 O   0  0  0  0  0  0  0  0  0  0  0  0
    3.3091   -0.7570    0.0000 N   0  0  0  0  0  0  0  0  0  0  0  0
    3.7541   -2.7068    0.0000 N   0  0  0  0  0  0  0  0  0  0  0  0
    4.1076    3.5282    0.0000 N   0  0  0  0  0  0  0  0  0  0  0  0
    3.2436   -4.3619    0.0000 N   0  0  0  0  0  0  0  0  0  0  0  0
    4.4217   -5.6316    0.0000 N   0  0  0  0  0  0  0  0  0  0  0  0
    2.5760   -1.4371    0.0000 C   0  0  0  0  0  0  0  0  0  0  0  0
    4.2646   -1.0517    0.0000 C   0  0  0  0  0  0  0  0  0  0  0  0
    2.7985   -2.4121    0.0000 C   0  0  0  0  0  0  0  0  0  0  0  0
    4.4872   -2.0266    0.0000 C   0  0  0  0  0  0  0  0  0  0  0  0
    3.0866    0.2180    0.0000 C   0  0  0  0  0  0  0  0  0  0  0  0
    3.8196    0.8981    0.0000 C   0  0  0  0  0  0  0  0  0  0  0  0
    3.5971    1.8731    0.0000 C   0  0  0  0  0  0  0  0  0  0  0  0
    3.9766   -3.6818    0.0000 C   0  0  0  0  0  0  0  0  0  0  0  0
    4.3301    2.5532    0.0000 C   0  0  0  0  0  0  0  0  0  0  0  0
    2.7330   -6.0170    0.0000 C   0  0  0  0  0  0  0  0  0  0  0  0
    3.4661   -5.3368    0.0000 C   0  0  0  0  0  0  0  0  0  0  0  0
    4.9322   -3.9765    0.0000 C   0  0  0  0  0  0  0  0  0  0  0  0
    4.8894    4.1517    0.0000 C   0  0  0  0  0  0  0  0  0  0  0  0
    3.1327    3.7507    0.0000 C   0  0  0  0  0  0  0  0  0  0  0  0
    5.1547   -4.9514    0.0000 C   0  0  0  0  0  0  0  0  0  0  0  0
    2.6988    4.6517    0.0000 C   0  0  0  0  0  0  0  0  0  0  0  0
    2.0000   -6.6972    0.0000 C   0  0  0  0  0  0  0  0  0  0  0  0
    3.4132   -6.7501    0.0000 C   0  0  0  0  0  0  0  0  0  0  0  0
    2.0529   -5.2840    0.0000 C   0  0  0  0  0  0  0  0  0  0  0  0
    4.8894    5.1517    0.0000 C   0  0  0  0  0  0  0  0  0  0  0  0
    3.1327    5.5526    0.0000 C   0  0  0  0  0  0  0  0  0  0  0  0
    4.1076    5.7752    0.0000 C   0  0  0  0  0  0  0  0  0  0  0  0
    5.7834    3.6170    0.0000 C   0  0  0  0  0  0  0  0  0  0  0  0
    6.1103   -5.2462    0.0000 C   0  0  0  0  0  0  0  0  0  0  0  0
    5.7834    5.6863    0.0000 C   0  0  0  0  0  0  0  0  0  0  0  0
    6.6894    4.1308    0.0000 C   0  0  0  0  0  0  0  0  0  0  0  0
    6.6894    5.1725    0.0000 C   0  0  0  0  0  0  0  0  0  0  0  0
    2.2396   -0.9163    0.0000 H   0  0  0  0  0  0  0  0  0  0  0  0
    2.0047   -1.6780    0.0000 H   0  0  0  0  0  0  0  0  0  0  0  0
    4.8839   -1.0208    0.0000 H   0  0  0  0  0  0  0  0  0  0  0  0
    4.3417   -0.4365    0.0000 H   0  0  0  0  0  0  0  0  0  0  0  0
    2.1793   -2.4430    0.0000 H   0  0  0  0  0  0  0  0  0  0  0  0
    2.7214   -3.0272    0.0000 H   0  0  0  0  0  0  0  0  0  0  0  0
    4.8235   -2.5475    0.0000 H   0  0  0  0  0  0  0  0  0  0  0  0
    5.0585   -1.7858    0.0000 H   0  0  0  0  0  0  0  0  0  0  0  0
    2.7502    0.7388    0.0000 H   0  0  0  0  0  0  0  0  0  0  0  0
    2.5152   -0.0229    0.0000 H   0  0  0  0  0  0  0  0  0  0  0  0
    4.1560    0.3773    0.0000 H   0  0  0  0  0  0  0  0  0  0  0  0
    4.3909    1.1390    0.0000 H   0  0  0  0  0  0  0  0  0  0  0  0
    3.2607    2.3939    0.0000 H   0  0  0  0  0  0  0  0  0  0  0  0
    3.0258    1.6322    0.0000 H   0  0  0  0  0  0  0  0  0  0  0  0
    4.6665    2.0324    0.0000 H   0  0  0  0  0  0  0  0  0  0  0  0
    4.9014    2.7941    0.0000 H   0  0  0  0  0  0  0  0  0  0  0  0
    5.3867   -3.5548    0.0000 H   0  0  0  0  0  0  0  0  0  0  0  0
    2.2141    5.0382    0.0000 H   0  0  0  0  0  0  0  0  0  0  0  0
    2.2141    4.2651    0.0000 H   0  0  0  0  0  0  0  0  0  0  0  0
    1.5783   -6.2427    0.0000 H   0  0  0  0  0  0  0  0  0  0  0  0
    1.5455   -7.1189    0.0000 H   0  0  0  0  0  0  0  0  0  0  0  0
    2.4217   -7.1517    0.0000 H   0  0  0  0  0  0  0  0  0  0  0  0
    2.9587   -7.1718    0.0000 H   0  0  0  0  0  0  0  0  0  0  0  0
    3.8349   -7.2046    0.0000 H   0  0  0  0  0  0  0  0  0  0  0  0
    3.8677   -6.3284    0.0000 H   0  0  0  0  0  0  0  0  0  0  0  0
    2.5074   -4.8623    0.0000 H   0  0  0  0  0  0  0  0  0  0  0  0
    1.6312   -4.8295    0.0000 H   0  0  0  0  0  0  0  0  0  0  0  0
    1.5984   -5.7057    0.0000 H   0  0  0  0  0  0  0  0  0  0  0  0
    3.1327    6.1726    0.0000 H   0  0  0  0  0  0  0  0  0  0  0  0
    2.5282    5.6906    0.0000 H   0  0  0  0  0  0  0  0  0  0  0  0
    5.7762    2.9970    0.0000 H   0  0  0  0  0  0  0  0  0  0  0  0
    5.7762    6.3063    0.0000 H   0  0  0  0  0  0  0  0  0  0  0  0
    7.2252    3.8188    0.0000 H   0  0  0  0  0  0  0  0  0  0  0  0
    7.2252    5.4845    0.0000 H   0  0  0  0  0  0  0  0  0  0  0  0
  1 34  1  0  0  0  0
  2 34  1  0  0  0  0
  3 34  1  0  0  0  0
  4 24  2  0  0  0  0
  5 32  2  0  0  0  0
  6 11  1  0  0  0  0
  6 12  1  0  0  0  0
  6 15  1  0  0  0  0
  7 13  1  0  0  0  0
  7 14  1  0  0  0  0
  7 18  1  0  0  0  0
  8 19  1  0  0  0  0
  8 23  1  0  0  0  0
  8 24  1  0  0  0  0
  9 18  2  0  0  0  0
  9 21  1  0  0  0  0
 10 21  2  0  0  0  0
 10 25  1  0  0  0  0
 11 13  1  0  0  0  0
 11 38  1  0  0  0  0
 11 39  1  0  0  0  0
 12 14  1  0  0  0  0
 12 40  1  0  0  0  0
 12 41  1  0  0  0  0
 13 42  1  0  0  0  0
 13 43  1  0  0  0  0
 14 44  1  0  0  0  0
 14 45  1  0  0  0  0
 15 16  1  0  0  0  0
 15 46  1  0  0  0  0
 15 47  1  0  0  0  0
 16 17  1  0  0  0  0
 16 48  1  0  0  0  0
 16 49  1  0  0  0  0
 17 19  1  0  0  0  0
 17 50  1  0  0  0  0
 17 51  1  0  0  0  0
 18 22  1  0  0  0  0
 19 52  1  0  0  0  0
 19 53  1  0  0  0  0
 20 21  1  0  0  0  0
 20 27  1  0  0  0  0
 20 28  1  0  0  0  0
 20 29  1  0  0  0  0
 22 25  2  0  0  0  0
 22 54  1  0  0  0  0
 23 30  1  0  0  0  0
 23 33  2  0  0  0  0
 24 26  1  0  0  0  0
 25 34  1  0  0  0  0
 26 31  1  0  0  0  0
 26 55  1  0  0  0  0
 26 56  1  0  0  0  0
 27 57  1  0  0  0  0
 27 58  1  0  0  0  0
 27 59  1  0  0  0  0
 28 60  1  0  0  0  0
 28 61  1  0  0  0  0
 28 62  1  0  0  0  0
 29 63  1  0  0  0  0
 29 64  1  0  0  0  0
 29 65  1  0  0  0  0
 30 32  1  0  0  0  0
 30 35  2  0  0  0  0
 31 32  1  0  0  0  0
 31 66  1  0  0  0  0
 31 67  1  0  0  0  0
 33 36  1  0  0  0  0
 33 68  1  0  0  0  0
 35 37  1  0  0  0  0
 35 69  1  0  0  0  0
 36 37  2  0  0  0  0
 36 70  1  0  0  0  0
 37 71  1  0  0  0  0
M  END
> <PUBCHEM_COMPOUND_CID>
11237664

> <PUBCHEM_COMPOUND_CANONICALIZED>
1

> <PUBCHEM_CACTVS_COMPLEXITY>
794

> <PUBCHEM_CACTVS_HBOND_ACCEPTOR>
9

> <PUBCHEM_CACTVS_HBOND_DONOR>
0

> <PUBCHEM_CACTVS_ROTATABLE_BOND>
7

> <PUBCHEM_CACTVS_SUBSKEYS>
AAADcfB7sYAAAAAAAAAAAAAAAAAAAAAAAAA8WIAABYAAAAABwAAAHwAAAAAADgzBnxQz8JcIEACoA6dydACCgCklAqAJmCE4ZNiIaDrA3dGUJYhohgLIyecdiICOAAAAAAACAAAAAAAAAAQAAAAAAAAAAA==

> <PUBCHEM_IUPAC_OPENEYE_NAME>
1-[4-[4-[2-tert-butyl-6-(trifluoromethyl)pyrimidin-4-yl]piperazin-1-yl]butyl]-3,4-dihydro-1-benzazepine-2,5-dione

> <PUBCHEM_IUPAC_CAS_NAME>
1-[4-[4-[2-tert-butyl-6-(trifluoromethyl)-4-pyrimidinyl]-1-piperazinyl]butyl]-3,4-dihydro-1-benzazepine-2,5-dione

> <PUBCHEM_IUPAC_NAME_MARKUP>
1-[4-[4-[2-<I>tert</I>-butyl-6-(trifluoromethyl)pyrimidin-4-yl]piperazin-1-yl]butyl]-3,4-dihydro-1-benzazepine-2,5-dione

> <PUBCHEM_IUPAC_NAME>
1-[4-[4-[2-tert-butyl-6-(trifluoromethyl)pyrimidin-4-yl]piperazin-1-yl]butyl]-3,4-dihydro-1-benzazepine-2,5-dione

> <PUBCHEM_IUPAC_SYSTEMATIC_NAME>
1-[4-[4-[2-tert-butyl-6-(trifluoromethyl)pyrimidin-4-yl]piperazin-1-yl]butyl]-3,4-dihydro-1-benzazepine-2,5-dione

> <PUBCHEM_IUPAC_TRADITIONAL_NAME>
1-[4-[4-[2-tert-butyl-6-(trifluoromethyl)pyrimidin-4-yl]piperazino]butyl]-3,4-dihydro-1-benzazepine-2,5-quinone

> <PUBCHEM_IUPAC_INCHI>
InChI=1S/C27H34F3N5O2/c1-26(2,3)25-31-22(27(28,29)30)18-23(32-25)34-16-14-33(15-17-34)12-6-7-13-35-20-9-5-4-8-19(20)21(36)10-11-24(35)37/h4-5,8-9,18H,6-7,10-17H2,1-3H3

> <PUBCHEM_IUPAC_INCHIKEY>
FKHBHNWGBJHKGW-UHFFFAOYSA-N

> <PUBCHEM_XLOGP3_AA>
4.3

> <PUBCHEM_EXACT_MASS>
517.26645983

> <PUBCHEM_MOLECULAR_FORMULA>
C27H34F3N5O2

> <PUBCHEM_MOLECULAR_WEIGHT>
517.6

> <PUBCHEM_OPENEYE_CAN_SMILES>
CC(C)(C)C1=NC(=CC(=N1)N2CCN(CC2)CCCCN3C(=O)CCC(=O)C4=CC=CC=C43)C(F)(F)F

> <PUBCHEM_OPENEYE_ISO_SMILES>
CC(C)(C)C1=NC(=CC(=N1)N2CCN(CC2)CCCCN3C(=O)CCC(=O)C4=CC=CC=C43)C(F)(F)F

> <PUBCHEM_CACTVS_TPSA>
69.6

> <PUBCHEM_MONOISOTOPIC_WEIGHT>
517.26645983

> <PUBCHEM_TOTAL_CHARGE>
0

> <PUBCHEM_HEAVY_ATOM_COUNT>
37

> <PUBCHEM_ATOM_DEF_STEREO_COUNT>
0

> <PUBCHEM_ATOM_UDEF_STEREO_COUNT>
0

> <PUBCHEM_BOND_DEF_STEREO_COUNT>
0

> <PUBCHEM_BOND_UDEF_STEREO_COUNT>
0

> <PUBCHEM_ISOTOPIC_ATOM_COUNT>
0

> <PUBCHEM_COMPONENT_COUNT>
1

> <PUBCHEM_CACTVS_TAUTO_COUNT>
-1

> <PUBCHEM_COORDINATE_TYPE>
1
5
255

> <PUBCHEM_BONDANNOTATIONS>
10  21  8
10  25  8
18  22  8
22  25  8
23  30  8
23  33  8
30  35  8
33  36  8
35  37  8
36  37  8
9  18  8
9  21  8

$$$$
