66801167
  -OEChem-09292322342D

 59 63  0     0  0  0  0  0  0999 V2000
    6.5403    3.3909    0.0000 S   0  0  0  0  0  0  0  0  0  0  0  0
    2.0000   -6.4256    0.0000 F   0  0  0  0  0  0  0  0  0  0  0  0
    5.3083   -5.1389    0.0000 O   0  0  0  0  0  0  0  0  0  0  0  0
    5.5403    3.3909    0.0000 O   0  0  0  0  0  0  0  0  0  0  0  0
    7.5403    3.3909    0.0000 O   0  0  0  0  0  0  0  0  0  0  0  0
    4.8083   -0.6091    0.0000 N   0  0  0  0  0  0  0  0  0  0  0  0
    5.6130   -4.1927    0.0000 N   0  0  0  0  0  0  0  0  0  0  0  0
    6.5403    2.3909    0.0000 N   0  0  0  0  0  0  0  0  0  0  0  0
    4.8083   -2.6091    0.0000 C   0  0  0  0  0  0  0  0  0  0  0  0
    3.9422   -2.1091    0.0000 C   0  0  0  0  0  0  0  0  0  0  0  0
    5.6743   -2.1091    0.0000 C   0  0  0  0  0  0  0  0  0  0  0  0
    3.9422   -1.1091    0.0000 C   0  0  0  0  0  0  0  0  0  0  0  0
    5.6743   -1.1091    0.0000 C   0  0  0  0  0  0  0  0  0  0  0  0
    4.8083    0.3909    0.0000 C   0  0  0  0  0  0  0  0  0  0  0  0
    4.8083   -3.6091    0.0000 C   0  0  0  0  0  0  0  0  0  0  0  0
    5.6743    0.8909    0.0000 C   0  0  0  0  0  0  0  0  0  0  0  0
    4.0035   -4.1927    0.0000 C   0  0  0  0  0  0  0  0  0  0  0  0
    5.6743    1.8909    0.0000 C   0  0  0  0  0  0  0  0  0  0  0  0
    4.3142   -5.1432    0.0000 C   0  0  0  0  0  0  0  0  0  0  0  0
    3.0250   -3.9865    0.0000 C   0  0  0  0  0  0  0  0  0  0  0  0
    3.6464   -5.8875    0.0000 C   0  0  0  0  0  0  0  0  0  0  0  0
    2.3572   -4.7308    0.0000 C   0  0  0  0  0  0  0  0  0  0  0  0
    6.5403    4.3909    0.0000 C   0  0  0  0  0  0  0  0  0  0  0  0
    2.6678   -5.6813    0.0000 C   0  0  0  0  0  0  0  0  0  0  0  0
    7.4063    4.8909    0.0000 C   0  0  0  0  0  0  0  0  0  0  0  0
    5.6743    4.8909    0.0000 C   0  0  0  0  0  0  0  0  0  0  0  0
    7.4063    5.8909    0.0000 C   0  0  0  0  0  0  0  0  0  0  0  0
    8.3003    4.3563    0.0000 C   0  0  0  0  0  0  0  0  0  0  0  0
    5.6743    5.8909    0.0000 C   0  0  0  0  0  0  0  0  0  0  0  0
    6.5403    6.3909    0.0000 C   0  0  0  0  0  0  0  0  0  0  0  0
    8.3003    6.4256    0.0000 C   0  0  0  0  0  0  0  0  0  0  0  0
    9.2064    4.8701    0.0000 C   0  0  0  0  0  0  0  0  0  0  0  0
    9.2064    5.9117    0.0000 C   0  0  0  0  0  0  0  0  0  0  0  0
    5.3452   -2.9191    0.0000 H   0  0  0  0  0  0  0  0  0  0  0  0
    3.3317   -2.0014    0.0000 H   0  0  0  0  0  0  0  0  0  0  0  0
    3.7302   -2.6917    0.0000 H   0  0  0  0  0  0  0  0  0  0  0  0
    5.8863   -2.6917    0.0000 H   0  0  0  0  0  0  0  0  0  0  0  0
    6.2849   -2.0014    0.0000 H   0  0  0  0  0  0  0  0  0  0  0  0
    3.7302   -0.5265    0.0000 H   0  0  0  0  0  0  0  0  0  0  0  0
    3.3317   -1.2167    0.0000 H   0  0  0  0  0  0  0  0  0  0  0  0
    6.2849   -1.2167    0.0000 H   0  0  0  0  0  0  0  0  0  0  0  0
    5.8863   -0.5265    0.0000 H   0  0  0  0  0  0  0  0  0  0  0  0
    4.5962    0.9735    0.0000 H   0  0  0  0  0  0  0  0  0  0  0  0
    4.1977    0.2833    0.0000 H   0  0  0  0  0  0  0  0  0  0  0  0
    5.8863    0.3083    0.0000 H   0  0  0  0  0  0  0  0  0  0  0  0
    6.2849    0.9986    0.0000 H   0  0  0  0  0  0  0  0  0  0  0  0
    5.4622    2.4735    0.0000 H   0  0  0  0  0  0  0  0  0  0  0  0
    5.0637    1.7833    0.0000 H   0  0  0  0  0  0  0  0  0  0  0  0
    2.8324   -3.3971    0.0000 H   0  0  0  0  0  0  0  0  0  0  0  0
    7.0772    2.0809    0.0000 H   0  0  0  0  0  0  0  0  0  0  0  0
    3.8390   -6.4768    0.0000 H   0  0  0  0  0  0  0  0  0  0  0  0
    1.7505   -4.6029    0.0000 H   0  0  0  0  0  0  0  0  0  0  0  0
    5.1374    4.5809    0.0000 H   0  0  0  0  0  0  0  0  0  0  0  0
    8.2931    3.7363    0.0000 H   0  0  0  0  0  0  0  0  0  0  0  0
    5.1374    6.2009    0.0000 H   0  0  0  0  0  0  0  0  0  0  0  0
    6.5403    7.0109    0.0000 H   0  0  0  0  0  0  0  0  0  0  0  0
    8.2931    7.0456    0.0000 H   0  0  0  0  0  0  0  0  0  0  0  0
    9.7421    4.5580    0.0000 H   0  0  0  0  0  0  0  0  0  0  0  0
    9.7421    6.2238    0.0000 H   0  0  0  0  0  0  0  0  0  0  0  0
  1  4  2  0  0  0  0
  1  5  2  0  0  0  0
  1  8  1  0  0  0  0
  1 23  1  0  0  0  0
  2 24  1  0  0  0  0
  3  7  1  0  0  0  0
  3 19  1  0  0  0  0
  6 12  1  0  0  0  0
  6 13  1  0  0  0  0
  6 14  1  0  0  0  0
  7 15  2  0  0  0  0
  8 18  1  0  0  0  0
  8 50  1  0  0  0  0
  9 10  1  0  0  0  0
  9 11  1  0  0  0  0
  9 15  1  0  0  0  0
  9 34  1  0  0  0  0
 10 12  1  0  0  0  0
 10 35  1  0  0  0  0
 10 36  1  0  0  0  0
 11 13  1  0  0  0  0
 11 37  1  0  0  0  0
 11 38  1  0  0  0  0
 12 39  1  0  0  0  0
 12 40  1  0  0  0  0
 13 41  1  0  0  0  0
 13 42  1  0  0  0  0
 14 16  1  0  0  0  0
 14 43  1  0  0  0  0
 14 44  1  0  0  0  0
 15 17  1  0  0  0  0
 16 18  1  0  0  0  0
 16 45  1  0  0  0  0
 16 46  1  0  0  0  0
 17 19  2  0  0  0  0
 17 20  1  0  0  0  0
 18 47  1  0  0  0  0
 18 48  1  0  0  0  0
 19 21  1  0  0  0  0
 20 22  2  0  0  0  0
 20 49  1  0  0  0  0
 21 24  2  0  0  0  0
 21 51  1  0  0  0  0
 22 24  1  0  0  0  0
 22 52  1  0  0  0  0
 23 25  1  0  0  0  0
 23 26  2  0  0  0  0
 25 27  1  0  0  0  0
 25 28  2  0  0  0  0
 26 29  1  0  0  0  0
 26 53  1  0  0  0  0
 27 30  1  0  0  0  0
 27 31  2  0  0  0  0
 28 32  1  0  0  0  0
 28 54  1  0  0  0  0
 29 30  2  0  0  0  0
 29 55  1  0  0  0  0
 30 56  1  0  0  0  0
 31 33  1  0  0  0  0
 31 57  1  0  0  0  0
 32 33  2  0  0  0  0
 32 58  1  0  0  0  0
 33 59  1  0  0  0  0
M  END
> <PUBCHEM_COMPOUND_CID>
66801167

> <PUBCHEM_COMPOUND_CANONICALIZED>
1

> <PUBCHEM_CACTVS_COMPLEXITY>
740

> <PUBCHEM_CACTVS_HBOND_ACCEPTOR>
7

> <PUBCHEM_CACTVS_HBOND_DONOR>
1

> <PUBCHEM_CACTVS_ROTATABLE_BOND>
7

> <PUBCHEM_CACTVS_SUBSKEYS>
AAADceB7MQBAAAAAAAAAAAAAAAAAAWAAAAA8YMEAAAAAAFjB9AAAHwQUQAAADQzB3gwwh9NQAAKpA6RyQnDCABAkIAAomLk+TNoIJrqA1ZOEMYBm0BmIyceYyOCOgAAAgAAcAAAAAAEAADgAAAAAAAAAAA==

> <PUBCHEM_IUPAC_OPENEYE_NAME>
N-[3-[4-(6-fluoro-1,2-benzoxazol-3-yl)-1-piperidyl]propyl]naphthalene-1-sulfonamide

> <PUBCHEM_IUPAC_CAS_NAME>
N-[3-[4-(6-fluoro-1,2-benzoxazol-3-yl)-1-piperidinyl]propyl]-1-naphthalenesulfonamide

> <PUBCHEM_IUPAC_NAME_MARKUP>
<I>N</I>-[3-[4-(6-fluoro-1,2-benzoxazol-3-yl)piperidin-1-yl]propyl]naphthalene-1-sulfonamide

> <PUBCHEM_IUPAC_NAME>
N-[3-[4-(6-fluoro-1,2-benzoxazol-3-yl)piperidin-1-yl]propyl]naphthalene-1-sulfonamide

> <PUBCHEM_IUPAC_SYSTEMATIC_NAME>
N-[3-[4-(6-fluoranyl-1,2-benzoxazol-3-yl)piperidin-1-yl]propyl]naphthalene-1-sulfonamide

> <PUBCHEM_IUPAC_TRADITIONAL_NAME>
N-[3-[4-(6-fluoroindoxazen-3-yl)piperidino]propyl]naphthalene-1-sulfonamide

> <PUBCHEM_IUPAC_INCHI>
InChI=1S/C25H26FN3O3S/c26-20-9-10-22-23(17-20)32-28-25(22)19-11-15-29(16-12-19)14-4-13-27-33(30,31)24-8-3-6-18-5-1-2-7-21(18)24/h1-3,5-10,17,19,27H,4,11-16H2

> <PUBCHEM_IUPAC_INCHIKEY>
MUGRBHXUBJDHNE-UHFFFAOYSA-N

> <PUBCHEM_XLOGP3_AA>
4.7

> <PUBCHEM_EXACT_MASS>
467.16789104

> <PUBCHEM_MOLECULAR_FORMULA>
C25H26FN3O3S

> <PUBCHEM_MOLECULAR_WEIGHT>
467.6

> <PUBCHEM_OPENEYE_CAN_SMILES>
C1CN(CCC1C2=NOC3=C2C=CC(=C3)F)CCCNS(=O)(=O)C4=CC=CC5=CC=CC=C54

> <PUBCHEM_OPENEYE_ISO_SMILES>
C1CN(CCC1C2=NOC3=C2C=CC(=C3)F)CCCNS(=O)(=O)C4=CC=CC5=CC=CC=C54

> <PUBCHEM_CACTVS_TPSA>
83.8

> <PUBCHEM_MONOISOTOPIC_WEIGHT>
467.16789104

> <PUBCHEM_TOTAL_CHARGE>
0

> <PUBCHEM_HEAVY_ATOM_COUNT>
33

> <PUBCHEM_ATOM_DEF_STEREO_COUNT>
0

> <PUBCHEM_ATOM_UDEF_STEREO_COUNT>
0

> <PUBCHEM_BOND_DEF_STEREO_COUNT>
0

> <PUBCHEM_BOND_UDEF_STEREO_COUNT>
0

> <PUBCHEM_ISOTOPIC_ATOM_COUNT>
0

> <PUBCHEM_COMPONENT_COUNT>
1

> <PUBCHEM_CACTVS_TAUTO_COUNT>
-1

> <PUBCHEM_COORDINATE_TYPE>
1
5
255

> <PUBCHEM_BONDANNOTATIONS>
15  17  8
17  19  8
17  20  8
19  21  8
20  22  8
21  24  8
22  24  8
23  25  8
23  26  8
25  27  8
25  28  8
26  29  8
27  30  8
27  31  8
28  32  8
29  30  8
3  19  8
3  7  8
31  33  8
32  33  8
7  15  8

$$$$
