9905249
  -OEChem-09292322502D

 46 49  0     0  0  0  0  0  0999 V2000
   11.8385    1.8212    0.0000 O   0  0  0  0  0  0  0  0  0  0  0  0
    5.9674    0.5838    0.0000 N   0  0  0  0  0  0  0  0  0  0  0  0
    7.9244    0.9963    0.0000 N   0  0  0  0  0  0  0  0  0  0  0  0
    4.6783   -2.1824    0.0000 N   0  0  0  0  0  0  0  0  0  0  0  0
    2.8660   -2.3776    0.0000 N   0  0  0  0  0  0  0  0  0  0  0  0
    6.2781    1.5344    0.0000 C   0  0  0  0  0  0  0  0  0  0  0  0
    6.6353   -0.1605    0.0000 C   0  0  0  0  0  0  0  0  0  0  0  0
    7.2566    1.7406    0.0000 C   0  0  0  0  0  0  0  0  0  0  0  0
    7.6138    0.0458    0.0000 C   0  0  0  0  0  0  0  0  0  0  0  0
    4.9889    0.3776    0.0000 C   0  0  0  0  0  0  0  0  0  0  0  0
    4.6783   -0.5729    0.0000 C   0  0  0  0  0  0  0  0  0  0  0  0
    8.9030    1.2025    0.0000 C   0  0  0  0  0  0  0  0  0  0  0  0
    3.7320   -0.8776    0.0000 C   0  0  0  0  0  0  0  0  0  0  0  0
    5.2619   -1.3776    0.0000 C   0  0  0  0  0  0  0  0  0  0  0  0
    3.7320   -1.8776    0.0000 C   0  0  0  0  0  0  0  0  0  0  0  0
    9.2136    2.1530    0.0000 C   0  0  0  0  0  0  0  0  0  0  0  0
    9.5708    0.4582    0.0000 C   0  0  0  0  0  0  0  0  0  0  0  0
    2.8660   -0.3776    0.0000 C   0  0  0  0  0  0  0  0  0  0  0  0
   10.1921    2.3592    0.0000 C   0  0  0  0  0  0  0  0  0  0  0  0
   10.5493    0.6644    0.0000 C   0  0  0  0  0  0  0  0  0  0  0  0
   10.8600    1.6149    0.0000 C   0  0  0  0  0  0  0  0  0  0  0  0
    2.0000   -0.8776    0.0000 C   0  0  0  0  0  0  0  0  0  0  0  0
    2.0000   -1.8776    0.0000 C   0  0  0  0  0  0  0  0  0  0  0  0
   12.1491    2.7717    0.0000 C   0  0  0  0  0  0  0  0  0  0  0  0
    6.2575    2.1540    0.0000 H   0  0  0  0  0  0  0  0  0  0  0  0
    5.6643    1.6217    0.0000 H   0  0  0  0  0  0  0  0  0  0  0  0
    6.1089   -0.4881    0.0000 H   0  0  0  0  0  0  0  0  0  0  0  0
    6.8665   -0.7357    0.0000 H   0  0  0  0  0  0  0  0  0  0  0  0
    7.7830    2.0682    0.0000 H   0  0  0  0  0  0  0  0  0  0  0  0
    7.0254    2.3158    0.0000 H   0  0  0  0  0  0  0  0  0  0  0  0
    7.6344   -0.5739    0.0000 H   0  0  0  0  0  0  0  0  0  0  0  0
    8.2276   -0.0416    0.0000 H   0  0  0  0  0  0  0  0  0  0  0  0
    4.9684    0.9973    0.0000 H   0  0  0  0  0  0  0  0  0  0  0  0
    4.3751    0.4650    0.0000 H   0  0  0  0  0  0  0  0  0  0  0  0
    5.8819   -1.3776    0.0000 H   0  0  0  0  0  0  0  0  0  0  0  0
    8.7996    2.6145    0.0000 H   0  0  0  0  0  0  0  0  0  0  0  0
    9.3782   -0.1311    0.0000 H   0  0  0  0  0  0  0  0  0  0  0  0
    4.8709   -2.7717    0.0000 H   0  0  0  0  0  0  0  0  0  0  0  0
    2.8660    0.2424    0.0000 H   0  0  0  0  0  0  0  0  0  0  0  0
   10.3847    2.9486    0.0000 H   0  0  0  0  0  0  0  0  0  0  0  0
   10.9634    0.2030    0.0000 H   0  0  0  0  0  0  0  0  0  0  0  0
    1.4631   -0.5676    0.0000 H   0  0  0  0  0  0  0  0  0  0  0  0
    1.4631   -2.1876    0.0000 H   0  0  0  0  0  0  0  0  0  0  0  0
   12.7385    2.5791    0.0000 H   0  0  0  0  0  0  0  0  0  0  0  0
   12.3417    3.3610    0.0000 H   0  0  0  0  0  0  0  0  0  0  0  0
   11.5598    2.9643    0.0000 H   0  0  0  0  0  0  0  0  0  0  0  0
  1 21  1  0  0  0  0
  1 24  1  0  0  0  0
  2  6  1  0  0  0  0
  2  7  1  0  0  0  0
  2 10  1  0  0  0  0
  3  8  1  0  0  0  0
  3  9  1  0  0  0  0
  3 12  1  0  0  0  0
  4 14  1  0  0  0  0
  4 15  1  0  0  0  0
  4 38  1  0  0  0  0
  5 15  1  0  0  0  0
  5 23  2  0  0  0  0
  6  8  1  0  0  0  0
  6 25  1  0  0  0  0
  6 26  1  0  0  0  0
  7  9  1  0  0  0  0
  7 27  1  0  0  0  0
  7 28  1  0  0  0  0
  8 29  1  0  0  0  0
  8 30  1  0  0  0  0
  9 31  1  0  0  0  0
  9 32  1  0  0  0  0
 10 11  1  0  0  0  0
 10 33  1  0  0  0  0
 10 34  1  0  0  0  0
 11 13  1  0  0  0  0
 11 14  2  0  0  0  0
 12 16  2  0  0  0  0
 12 17  1  0  0  0  0
 13 15  2  0  0  0  0
 13 18  1  0  0  0  0
 14 35  1  0  0  0  0
 16 19  1  0  0  0  0
 16 36  1  0  0  0  0
 17 20  2  0  0  0  0
 17 37  1  0  0  0  0
 18 22  2  0  0  0  0
 18 39  1  0  0  0  0
 19 21  2  0  0  0  0
 19 40  1  0  0  0  0
 20 21  1  0  0  0  0
 20 41  1  0  0  0  0
 22 23  1  0  0  0  0
 22 42  1  0  0  0  0
 23 43  1  0  0  0  0
 24 44  1  0  0  0  0
 24 45  1  0  0  0  0
 24 46  1  0  0  0  0
M  END
> <PUBCHEM_COMPOUND_CID>
9905249

> <PUBCHEM_COMPOUND_CANONICALIZED>
1

> <PUBCHEM_CACTVS_COMPLEXITY>
391

> <PUBCHEM_CACTVS_HBOND_ACCEPTOR>
4

> <PUBCHEM_CACTVS_HBOND_DONOR>
1

> <PUBCHEM_CACTVS_ROTATABLE_BOND>
4

> <PUBCHEM_CACTVS_SUBSKEYS>
AAADceB7oAAAAAAAAAAAAAAAAAAAAWAAAAA8WIAAAAAAAFgB/AAAHgAQAAAADAzBmwY/9t/JlACgAjZnZACCiCmxIqAJ2aA+bJiMbuLE+ZuUMChswBPI6CewQAAOgEAAAAAAAAAAgAAAAAAAAAAAAAAAAA==

> <PUBCHEM_IUPAC_OPENEYE_NAME>
3-[[4-(4-methoxyphenyl)piperazin-1-yl]methyl]-1H-pyrrolo[2,3-b]pyridine

> <PUBCHEM_IUPAC_CAS_NAME>
3-[[4-(4-methoxyphenyl)-1-piperazinyl]methyl]-1H-pyrrolo[2,3-b]pyridine

> <PUBCHEM_IUPAC_NAME_MARKUP>
3-[[4-(4-methoxyphenyl)piperazin-1-yl]methyl]-1<I>H</I>-pyrrolo[2,3-b]pyridine

> <PUBCHEM_IUPAC_NAME>
3-[[4-(4-methoxyphenyl)piperazin-1-yl]methyl]-1H-pyrrolo[2,3-b]pyridine

> <PUBCHEM_IUPAC_SYSTEMATIC_NAME>
3-[[4-(4-methoxyphenyl)piperazin-1-yl]methyl]-1H-pyrrolo[2,3-b]pyridine

> <PUBCHEM_IUPAC_TRADITIONAL_NAME>
3-[[4-(4-methoxyphenyl)piperazino]methyl]-1H-pyrrolo[2,3-b]pyridine

> <PUBCHEM_IUPAC_INCHI>
InChI=1S/C19H22N4O/c1-24-17-6-4-16(5-7-17)23-11-9-22(10-12-23)14-15-13-21-19-18(15)3-2-8-20-19/h2-8,13H,9-12,14H2,1H3,(H,20,21)

> <PUBCHEM_IUPAC_INCHIKEY>
NNGCXJPRHBHODU-UHFFFAOYSA-N

> <PUBCHEM_XLOGP3_AA>
2.7

> <PUBCHEM_EXACT_MASS>
322.17936134

> <PUBCHEM_MOLECULAR_FORMULA>
C19H22N4O

> <PUBCHEM_MOLECULAR_WEIGHT>
322.4

> <PUBCHEM_OPENEYE_CAN_SMILES>
COC1=CC=C(C=C1)N2CCN(CC2)CC3=CNC4=C3C=CC=N4

> <PUBCHEM_OPENEYE_ISO_SMILES>
COC1=CC=C(C=C1)N2CCN(CC2)CC3=CNC4=C3C=CC=N4

> <PUBCHEM_CACTVS_TPSA>
44.4

> <PUBCHEM_MONOISOTOPIC_WEIGHT>
322.17936134

> <PUBCHEM_TOTAL_CHARGE>
0

> <PUBCHEM_HEAVY_ATOM_COUNT>
24

> <PUBCHEM_ATOM_DEF_STEREO_COUNT>
0

> <PUBCHEM_ATOM_UDEF_STEREO_COUNT>
0

> <PUBCHEM_BOND_DEF_STEREO_COUNT>
0

> <PUBCHEM_BOND_UDEF_STEREO_COUNT>
0

> <PUBCHEM_ISOTOPIC_ATOM_COUNT>
0

> <PUBCHEM_COMPONENT_COUNT>
1

> <PUBCHEM_CACTVS_TAUTO_COUNT>
-1

> <PUBCHEM_COORDINATE_TYPE>
1
5
255

> <PUBCHEM_BONDANNOTATIONS>
11  13  8
11  14  8
12  16  8
12  17  8
13  15  8
13  18  8
16  19  8
17  20  8
18  22  8
19  21  8
20  21  8
22  23  8
4  14  8
4  15  8
5  15  8
5  23  8

$$$$
