25218143
  -OEChem-09292322482D

 65 69  0     0  0  0  0  0  0999 V2000
   11.4358   -2.7725    0.0000 O   0  0  0  0  0  0  0  0  0  0  0  0
    5.3173    2.7616    0.0000 O   0  0  0  0  0  0  0  0  0  0  0  0
   14.8999   -1.7725    0.0000 N   0  0  0  0  0  0  0  0  0  0  0  0
   12.3018   -1.2725    0.0000 N   0  0  0  0  0  0  0  0  0  0  0  0
    4.4455    1.2650    0.0000 N   0  0  0  0  0  0  0  0  0  0  0  0
    3.5814    1.7683    0.0000 C   0  0  0  0  0  0  0  0  0  0  0  0
    3.4807    2.7633    0.0000 C   0  0  0  0  0  0  0  0  0  0  0  0
    2.6663    1.3651    0.0000 C   0  0  0  0  0  0  0  0  0  0  0  0
    2.5033    2.9749    0.0000 C   0  0  0  0  0  0  0  0  0  0  0  0
    2.0000    2.1108    0.0000 C   0  0  0  0  0  0  0  0  0  0  0  0
   15.0044   -2.7670    0.0000 C   0  0  0  0  0  0  0  0  0  0  0  0
   15.8135   -1.3658    0.0000 C   0  0  0  0  0  0  0  0  0  0  0  0
   15.9826   -2.9749    0.0000 C   0  0  0  0  0  0  0  0  0  0  0  0
   16.4826   -2.1089    0.0000 C   0  0  0  0  0  0  0  0  0  0  0  0
   14.0339   -1.2725    0.0000 C   0  0  0  0  0  0  0  0  0  0  0  0
   13.1679   -1.7725    0.0000 C   0  0  0  0  0  0  0  0  0  0  0  0
   12.3018   -0.2725    0.0000 C   0  0  0  0  0  0  0  0  0  0  0  0
   11.4358    0.2275    0.0000 C   0  0  0  0  0  0  0  0  0  0  0  0
   10.5698   -0.2725    0.0000 C   0  0  0  0  0  0  0  0  0  0  0  0
   11.4358   -1.7725    0.0000 C   0  0  0  0  0  0  0  0  0  0  0  0
   10.5698   -1.2725    0.0000 C   0  0  0  0  0  0  0  0  0  0  0  0
    5.3134    1.7617    0.0000 C   0  0  0  0  0  0  0  0  0  0  0  0
    9.6758    0.2622    0.0000 C   0  0  0  0  0  0  0  0  0  0  0  0
    8.7698   -0.2517    0.0000 C   0  0  0  0  0  0  0  0  0  0  0  0
    9.6758   -1.8072    0.0000 C   0  0  0  0  0  0  0  0  0  0  0  0
    6.1775    1.2583    0.0000 C   0  0  0  0  0  0  0  0  0  0  0  0
    8.7698   -1.2933    0.0000 C   0  0  0  0  0  0  0  0  0  0  0  0
    7.9057    0.2517    0.0000 C   0  0  0  0  0  0  0  0  0  0  0  0
    7.0454    1.7550    0.0000 C   0  0  0  0  0  0  0  0  0  0  0  0
    6.1736    0.2583    0.0000 C   0  0  0  0  0  0  0  0  0  0  0  0
    7.9095    1.2516    0.0000 C   0  0  0  0  0  0  0  0  0  0  0  0
    7.0377   -0.2450    0.0000 C   0  0  0  0  0  0  0  0  0  0  0  0
    4.1026    2.1040    0.0000 H   0  0  0  0  0  0  0  0  0  0  0  0
    4.1007    2.7609    0.0000 H   0  0  0  0  0  0  0  0  0  0  0  0
    3.5479    3.3796    0.0000 H   0  0  0  0  0  0  0  0  0  0  0  0
    2.1633    1.0026    0.0000 H   0  0  0  0  0  0  0  0  0  0  0  0
    2.9742    0.8270    0.0000 H   0  0  0  0  0  0  0  0  0  0  0  0
    2.6972    3.5638    0.0000 H   0  0  0  0  0  0  0  0  0  0  0  0
    1.9379    3.2293    0.0000 H   0  0  0  0  0  0  0  0  0  0  0  0
    1.4998    2.4772    0.0000 H   0  0  0  0  0  0  0  0  0  0  0  0
    1.5834    1.6517    0.0000 H   0  0  0  0  0  0  0  0  0  0  0  0
   14.3844   -2.7670    0.0000 H   0  0  0  0  0  0  0  0  0  0  0  0
   14.9396   -3.3836    0.0000 H   0  0  0  0  0  0  0  0  0  0  0  0
   16.3150   -1.0013    0.0000 H   0  0  0  0  0  0  0  0  0  0  0  0
   15.5035   -0.8288    0.0000 H   0  0  0  0  0  0  0  0  0  0  0  0
   15.7910   -3.5646    0.0000 H   0  0  0  0  0  0  0  0  0  0  0  0
   16.5490   -3.2271    0.0000 H   0  0  0  0  0  0  0  0  0  0  0  0
   16.9842   -2.4733    0.0000 H   0  0  0  0  0  0  0  0  0  0  0  0
   16.8974   -1.6482    0.0000 H   0  0  0  0  0  0  0  0  0  0  0  0
   14.4324   -0.7975    0.0000 H   0  0  0  0  0  0  0  0  0  0  0  0
   13.6354   -0.7975    0.0000 H   0  0  0  0  0  0  0  0  0  0  0  0
   12.7693   -2.2474    0.0000 H   0  0  0  0  0  0  0  0  0  0  0  0
   13.5664   -2.2474    0.0000 H   0  0  0  0  0  0  0  0  0  0  0  0
    4.4431    0.6450    0.0000 H   0  0  0  0  0  0  0  0  0  0  0  0
   12.9124   -0.3802    0.0000 H   0  0  0  0  0  0  0  0  0  0  0  0
   12.5139    0.3101    0.0000 H   0  0  0  0  0  0  0  0  0  0  0  0
   11.8343    0.7025    0.0000 H   0  0  0  0  0  0  0  0  0  0  0  0
   11.0373    0.7025    0.0000 H   0  0  0  0  0  0  0  0  0  0  0  0
    9.6830    0.8821    0.0000 H   0  0  0  0  0  0  0  0  0  0  0  0
    9.6830   -2.4271    0.0000 H   0  0  0  0  0  0  0  0  0  0  0  0
    8.2340   -1.6054    0.0000 H   0  0  0  0  0  0  0  0  0  0  0  0
    7.0478    2.3750    0.0000 H   0  0  0  0  0  0  0  0  0  0  0  0
    5.6355   -0.0496    0.0000 H   0  0  0  0  0  0  0  0  0  0  0  0
    8.4477    1.5596    0.0000 H   0  0  0  0  0  0  0  0  0  0  0  0
    7.0353   -0.8650    0.0000 H   0  0  0  0  0  0  0  0  0  0  0  0
  1 20  2  0  0  0  0
  2 22  2  0  0  0  0
  3 11  1  0  0  0  0
  3 12  1  0  0  0  0
  3 15  1  0  0  0  0
  4 16  1  0  0  0  0
  4 17  1  0  0  0  0
  4 20  1  0  0  0  0
  5  6  1  0  0  0  0
  5 22  1  0  0  0  0
  5 54  1  0  0  0  0
  6  7  1  0  0  0  0
  6  8  1  0  0  0  0
  6 33  1  0  0  0  0
  7  9  1  0  0  0  0
  7 34  1  0  0  0  0
  7 35  1  0  0  0  0
  8 10  1  0  0  0  0
  8 36  1  0  0  0  0
  8 37  1  0  0  0  0
  9 10  1  0  0  0  0
  9 38  1  0  0  0  0
  9 39  1  0  0  0  0
 10 40  1  0  0  0  0
 10 41  1  0  0  0  0
 11 13  1  0  0  0  0
 11 42  1  0  0  0  0
 11 43  1  0  0  0  0
 12 14  1  0  0  0  0
 12 44  1  0  0  0  0
 12 45  1  0  0  0  0
 13 14  1  0  0  0  0
 13 46  1  0  0  0  0
 13 47  1  0  0  0  0
 14 48  1  0  0  0  0
 14 49  1  0  0  0  0
 15 16  1  0  0  0  0
 15 50  1  0  0  0  0
 15 51  1  0  0  0  0
 16 52  1  0  0  0  0
 16 53  1  0  0  0  0
 17 18  1  0  0  0  0
 17 55  1  0  0  0  0
 17 56  1  0  0  0  0
 18 19  1  0  0  0  0
 18 57  1  0  0  0  0
 18 58  1  0  0  0  0
 19 21  2  0  0  0  0
 19 23  1  0  0  0  0
 20 21  1  0  0  0  0
 21 25  1  0  0  0  0
 22 26  1  0  0  0  0
 23 24  2  0  0  0  0
 23 59  1  0  0  0  0
 24 27  1  0  0  0  0
 24 28  1  0  0  0  0
 25 27  2  0  0  0  0
 25 60  1  0  0  0  0
 26 29  2  0  0  0  0
 26 30  1  0  0  0  0
 27 61  1  0  0  0  0
 28 31  2  0  0  0  0
 28 32  1  0  0  0  0
 29 31  1  0  0  0  0
 29 62  1  0  0  0  0
 30 32  2  0  0  0  0
 30 63  1  0  0  0  0
 31 64  1  0  0  0  0
 32 65  1  0  0  0  0
M  END
> <PUBCHEM_COMPOUND_CID>
25218143

> <PUBCHEM_COMPOUND_CANONICALIZED>
1

> <PUBCHEM_CACTVS_COMPLEXITY>
647

> <PUBCHEM_CACTVS_HBOND_ACCEPTOR>
3

> <PUBCHEM_CACTVS_HBOND_DONOR>
1

> <PUBCHEM_CACTVS_ROTATABLE_BOND>
6

> <PUBCHEM_CACTVS_SUBSKEYS>
AAADcfB7MAAAAAAAAAAAAAAAAAAAAeIAAAA8YIAAAAAAAACxQAAAHgAQAAAADCjBmAQwAIPAAACIAiFSEACCAAAkAAAIiIEIBMgIYDKAlRGUIQhglgCIiYcYicCOwAACAAAQAACAAAQAACAAAAAAAAAAAA==

> <PUBCHEM_IUPAC_OPENEYE_NAME>
N-cyclopentyl-4-[1-oxo-2-(2-pyrrolidin-1-ylethyl)-3,4-dihydroisoquinolin-6-yl]benzamide

> <PUBCHEM_IUPAC_CAS_NAME>
N-cyclopentyl-4-[1-oxo-2-[2-(1-pyrrolidinyl)ethyl]-3,4-dihydroisoquinolin-6-yl]benzamide

> <PUBCHEM_IUPAC_NAME_MARKUP>
<I>N</I>-cyclopentyl-4-[1-oxo-2-(2-pyrrolidin-1-ylethyl)-3,4-dihydroisoquinolin-6-yl]benzamide

> <PUBCHEM_IUPAC_NAME>
N-cyclopentyl-4-[1-oxo-2-(2-pyrrolidin-1-ylethyl)-3,4-dihydroisoquinolin-6-yl]benzamide

> <PUBCHEM_IUPAC_SYSTEMATIC_NAME>
N-cyclopentyl-4-[1-oxidanylidene-2-(2-pyrrolidin-1-ylethyl)-3,4-dihydroisoquinolin-6-yl]benzamide

> <PUBCHEM_IUPAC_TRADITIONAL_NAME>
N-cyclopentyl-4-[1-keto-2-(2-pyrrolidinoethyl)-3,4-dihydroisoquinolin-6-yl]benzamide

> <PUBCHEM_IUPAC_INCHI>
InChI=1S/C27H33N3O2/c31-26(28-24-5-1-2-6-24)21-9-7-20(8-10-21)22-11-12-25-23(19-22)13-16-30(27(25)32)18-17-29-14-3-4-15-29/h7-12,19,24H,1-6,13-18H2,(H,28,31)

> <PUBCHEM_IUPAC_INCHIKEY>
WZHAQWFZACLGKI-UHFFFAOYSA-N

> <PUBCHEM_XLOGP3_AA>
4.1

> <PUBCHEM_EXACT_MASS>
431.25727730

> <PUBCHEM_MOLECULAR_FORMULA>
C27H33N3O2

> <PUBCHEM_MOLECULAR_WEIGHT>
431.6

> <PUBCHEM_OPENEYE_CAN_SMILES>
C1CCC(C1)NC(=O)C2=CC=C(C=C2)C3=CC4=C(C=C3)C(=O)N(CC4)CCN5CCCC5

> <PUBCHEM_OPENEYE_ISO_SMILES>
C1CCC(C1)NC(=O)C2=CC=C(C=C2)C3=CC4=C(C=C3)C(=O)N(CC4)CCN5CCCC5

> <PUBCHEM_CACTVS_TPSA>
52.6

> <PUBCHEM_MONOISOTOPIC_WEIGHT>
431.25727730

> <PUBCHEM_TOTAL_CHARGE>
0

> <PUBCHEM_HEAVY_ATOM_COUNT>
32

> <PUBCHEM_ATOM_DEF_STEREO_COUNT>
0

> <PUBCHEM_ATOM_UDEF_STEREO_COUNT>
0

> <PUBCHEM_BOND_DEF_STEREO_COUNT>
0

> <PUBCHEM_BOND_UDEF_STEREO_COUNT>
0

> <PUBCHEM_ISOTOPIC_ATOM_COUNT>
0

> <PUBCHEM_COMPONENT_COUNT>
1

> <PUBCHEM_CACTVS_TAUTO_COUNT>
-1

> <PUBCHEM_COORDINATE_TYPE>
1
5
255

> <PUBCHEM_BONDANNOTATIONS>
19  21  8
19  23  8
21  25  8
23  24  8
24  27  8
25  27  8
26  29  8
26  30  8
28  31  8
28  32  8
29  31  8
30  32  8

$$$$
