155512384
  -OEChem-09292322462D

 52 55  0     1  0  0  0  0  0999 V2000
   12.6457   -0.3385    0.0000 S   0  0  0  0  0  0  0  0  0  0  0  0
    3.5129   -1.1888    0.0000 O   0  0  0  0  0  0  0  0  0  0  0  0
    7.0086   -0.3053    0.0000 N   0  0  0  0  0  0  0  0  0  0  0  0
    9.5129   -1.1588    0.0000 N   0  0  3  0  0  0  0  0  0  0  0  0
    5.0086   -0.3153    0.0000 N   0  0  0  0  0  0  0  0  0  0  0  0
   12.6537   -1.9479    0.0000 N   0  0  0  0  0  0  0  0  0  0  0  0
    8.0086   -0.3003    0.0000 C   0  0  0  0  0  0  0  0  0  0  0  0
    6.5129   -1.1738    0.0000 C   0  0  0  0  0  0  0  0  0  0  0  0
    6.5043    0.5582    0.0000 C   0  0  0  0  0  0  0  0  0  0  0  0
    8.5129   -1.1638    0.0000 C   0  0  0  0  0  0  0  0  0  0  0  0
    5.5129   -1.1788    0.0000 C   0  0  0  0  0  0  0  0  0  0  0  0
    5.5043    0.5532    0.0000 C   0  0  0  0  0  0  0  0  0  0  0  0
    9.9422   -0.2557    0.0000 C   0  0  0  0  0  0  0  0  0  0  0  0
    9.9512   -2.0576    0.0000 C   0  0  0  0  0  0  0  0  0  0  0  0
   10.9161   -0.0283    0.0000 C   0  0  0  0  0  0  0  0  0  0  0  0
   10.9273   -2.2753    0.0000 C   0  0  0  0  0  0  0  0  0  0  0  0
   11.7010   -0.6479    0.0000 C   0  0  0  0  0  0  0  0  0  0  0  0
   11.7060   -1.6479    0.0000 C   0  0  0  0  0  0  0  0  0  0  0  0
    4.0086   -0.3203    0.0000 C   0  0  0  0  0  0  0  0  0  0  0  0
    3.5043    0.5433    0.0000 C   0  0  0  0  0  0  0  0  0  0  0  0
   13.2333   -1.1403    0.0000 C   0  0  0  0  0  0  0  0  0  0  0  0
    4.0000    1.4118    0.0000 C   0  0  0  0  0  0  0  0  0  0  0  0
    2.5043    0.5383    0.0000 C   0  0  0  0  0  0  0  0  0  0  0  0
    3.4957    2.2753    0.0000 C   0  0  0  0  0  0  0  0  0  0  0  0
    2.0000    1.4018    0.0000 C   0  0  0  0  0  0  0  0  0  0  0  0
    2.4957    2.2703    0.0000 C   0  0  0  0  0  0  0  0  0  0  0  0
    8.5901   -0.0854    0.0000 H   0  0  0  0  0  0  0  0  0  0  0  0
    7.8979    0.3097    0.0000 H   0  0  0  0  0  0  0  0  0  0  0  0
    6.4083   -1.7849    0.0000 H   0  0  0  0  0  0  0  0  0  0  0  0
    7.0966   -1.3829    0.0000 H   0  0  0  0  0  0  0  0  0  0  0  0
    7.0858    0.7732    0.0000 H   0  0  0  0  0  0  0  0  0  0  0  0
    6.3936    1.1683    0.0000 H   0  0  0  0  0  0  0  0  0  0  0  0
    7.9313   -1.3788    0.0000 H   0  0  0  0  0  0  0  0  0  0  0  0
    8.6236   -1.7739    0.0000 H   0  0  0  0  0  0  0  0  0  0  0  0
    4.9314   -1.3938    0.0000 H   0  0  0  0  0  0  0  0  0  0  0  0
    5.6236   -1.7888    0.0000 H   0  0  0  0  0  0  0  0  0  0  0  0
    5.6089    1.1644    0.0000 H   0  0  0  0  0  0  0  0  0  0  0  0
    4.9206    0.7624    0.0000 H   0  0  0  0  0  0  0  0  0  0  0  0
    9.9392    0.3643    0.0000 H   0  0  0  0  0  0  0  0  0  0  0  0
    9.3371   -0.1208    0.0000 H   0  0  0  0  0  0  0  0  0  0  0  0
    9.3475   -2.1986    0.0000 H   0  0  0  0  0  0  0  0  0  0  0  0
    9.9543   -2.6776    0.0000 H   0  0  0  0  0  0  0  0  0  0  0  0
   11.3989    0.3606    0.0000 H   0  0  0  0  0  0  0  0  0  0  0  0
   10.6443    0.5289    0.0000 H   0  0  0  0  0  0  0  0  0  0  0  0
   10.6610   -2.8352    0.0000 H   0  0  0  0  0  0  0  0  0  0  0  0
   11.4139   -2.6594    0.0000 H   0  0  0  0  0  0  0  0  0  0  0  0
   13.8533   -1.1372    0.0000 H   0  0  0  0  0  0  0  0  0  0  0  0
    4.6200    1.4149    0.0000 H   0  0  0  0  0  0  0  0  0  0  0  0
    2.1970   -0.0002    0.0000 H   0  0  0  0  0  0  0  0  0  0  0  0
    3.8030    2.8138    0.0000 H   0  0  0  0  0  0  0  0  0  0  0  0
    1.3800    1.3987    0.0000 H   0  0  0  0  0  0  0  0  0  0  0  0
    2.1830    2.8057    0.0000 H   0  0  0  0  0  0  0  0  0  0  0  0
  1 17  1  0  0  0  0
  1 21  1  0  0  0  0
  2 19  2  0  0  0  0
  3  7  1  0  0  0  0
  3  8  1  0  0  0  0
  3  9  1  0  0  0  0
  4 10  1  0  0  0  0
  4 13  1  0  0  0  0
  4 14  1  0  0  0  0
  5 11  1  0  0  0  0
  5 12  1  0  0  0  0
  5 19  1  0  0  0  0
  6 18  1  0  0  0  0
  6 21  2  0  0  0  0
  7 10  1  0  0  0  0
  7 27  1  0  0  0  0
  7 28  1  0  0  0  0
  8 11  1  0  0  0  0
  8 29  1  0  0  0  0
  8 30  1  0  0  0  0
  9 12  1  0  0  0  0
  9 31  1  0  0  0  0
  9 32  1  0  0  0  0
 10 33  1  0  0  0  0
 10 34  1  0  0  0  0
 11 35  1  0  0  0  0
 11 36  1  0  0  0  0
 12 37  1  0  0  0  0
 12 38  1  0  0  0  0
 13 15  1  0  0  0  0
 13 39  1  0  0  0  0
 13 40  1  0  0  0  0
 14 16  1  0  0  0  0
 14 41  1  0  0  0  0
 14 42  1  0  0  0  0
 15 17  1  0  0  0  0
 15 43  1  0  0  0  0
 15 44  1  0  0  0  0
 16 18  1  0  0  0  0
 16 45  1  0  0  0  0
 16 46  1  0  0  0  0
 17 18  2  0  0  0  0
 19 20  1  0  0  0  0
 20 22  2  0  0  0  0
 20 23  1  0  0  0  0
 21 47  1  0  0  0  0
 22 24  1  0  0  0  0
 22 48  1  0  0  0  0
 23 25  2  0  0  0  0
 23 49  1  0  0  0  0
 24 26  2  0  0  0  0
 24 50  1  0  0  0  0
 25 26  1  0  0  0  0
 25 51  1  0  0  0  0
 26 52  1  0  0  0  0
M  END
> <PUBCHEM_COMPOUND_CID>
155512384

> <PUBCHEM_COMPOUND_CANONICALIZED>
1

> <PUBCHEM_CACTVS_COMPLEXITY>
463

> <PUBCHEM_CACTVS_HBOND_ACCEPTOR>
5

> <PUBCHEM_CACTVS_HBOND_DONOR>
0

> <PUBCHEM_CACTVS_ROTATABLE_BOND>
4

> <PUBCHEM_CACTVS_SUBSKEYS>
AAADceB7oABAAAAAAAAAAAAAAAAAAWAAAAA8QAAABYAAAACxwAAAHgQAAAAADAjB3gS0gZMIEAisAyVzVACC8KB1CDgI2BU4RMgIYDLg1RGUIQhghgDIyYcYiACOAAAAAAAAAAAAAAAAAAAAAAAAAAAAAA==

> <PUBCHEM_IUPAC_OPENEYE_NAME>
phenyl-[4-[2-(4,5,7,8-tetrahydrothiazolo[4,5-d]azepin-6-yl)ethyl]piperazin-1-yl]methanone

> <PUBCHEM_IUPAC_CAS_NAME>
phenyl-[4-[2-(4,5,7,8-tetrahydrothiazolo[4,5-d]azepin-6-yl)ethyl]-1-piperazinyl]methanone

> <PUBCHEM_IUPAC_NAME_MARKUP>
phenyl-[4-[2-(4,5,7,8-tetrahydro-[1,3]thiazolo[4,5-d]azepin-6-yl)ethyl]piperazin-1-yl]methanone

> <PUBCHEM_IUPAC_NAME>
phenyl-[4-[2-(4,5,7,8-tetrahydro-[1,3]thiazolo[4,5-d]azepin-6-yl)ethyl]piperazin-1-yl]methanone

> <PUBCHEM_IUPAC_SYSTEMATIC_NAME>
phenyl-[4-[2-(4,5,7,8-tetrahydro-[1,3]thiazolo[4,5-d]azepin-6-yl)ethyl]piperazin-1-yl]methanone

> <PUBCHEM_IUPAC_TRADITIONAL_NAME>
phenyl-[4-[2-(4,5,7,8-tetrahydrothiazol[4,5-d]azepin-6-yl)ethyl]piperazino]methanone

> <PUBCHEM_IUPAC_INCHI>
InChI=1S/C20H26N4OS/c25-20(17-4-2-1-3-5-17)24-14-12-23(13-15-24)11-10-22-8-6-18-19(7-9-22)26-16-21-18/h1-5,16H,6-15H2

> <PUBCHEM_IUPAC_INCHIKEY>
PGKOALRXUFBZNU-UHFFFAOYSA-N

> <PUBCHEM_XLOGP3_AA>
2.3

> <PUBCHEM_EXACT_MASS>
370.18273264

> <PUBCHEM_MOLECULAR_FORMULA>
C20H26N4OS

> <PUBCHEM_MOLECULAR_WEIGHT>
370.5

> <PUBCHEM_OPENEYE_CAN_SMILES>
C1CN(CCC2=C1N=CS2)CCN3CCN(CC3)C(=O)C4=CC=CC=C4

> <PUBCHEM_OPENEYE_ISO_SMILES>
C1CN(CCC2=C1N=CS2)CCN3CCN(CC3)C(=O)C4=CC=CC=C4

> <PUBCHEM_CACTVS_TPSA>
67.9

> <PUBCHEM_MONOISOTOPIC_WEIGHT>
370.18273264

> <PUBCHEM_TOTAL_CHARGE>
0

> <PUBCHEM_HEAVY_ATOM_COUNT>
26

> <PUBCHEM_ATOM_DEF_STEREO_COUNT>
0

> <PUBCHEM_ATOM_UDEF_STEREO_COUNT>
0

> <PUBCHEM_BOND_DEF_STEREO_COUNT>
0

> <PUBCHEM_BOND_UDEF_STEREO_COUNT>
0

> <PUBCHEM_ISOTOPIC_ATOM_COUNT>
0

> <PUBCHEM_COMPONENT_COUNT>
1

> <PUBCHEM_CACTVS_TAUTO_COUNT>
-1

> <PUBCHEM_COORDINATE_TYPE>
1
5
255

> <PUBCHEM_BONDANNOTATIONS>
1  17  8
1  21  8
17  18  8
20  22  8
20  23  8
22  24  8
23  25  8
24  26  8
25  26  8
6  18  8
6  21  8

$$$$
