44415670
  -OEChem-09292322282D

 59 63  0     0  0  0  0  0  0999 V2000
    2.0000    0.6798    0.0000 Cl  0  0  0  0  0  0  0  0  0  0  0  0
    9.6749    0.6797    0.0000 Cl  0  0  0  0  0  0  0  0  0  0  0  0
    8.9355   -4.0133    0.0000 F   0  0  0  0  0  0  0  0  0  0  0  0
    9.3015   -2.6473    0.0000 F   0  0  0  0  0  0  0  0  0  0  0  0
    7.9355   -2.2812    0.0000 F   0  0  0  0  0  0  0  0  0  0  0  0
    4.9714   -5.1473    0.0000 F   0  0  0  0  0  0  0  0  0  0  0  0
    7.5695   -1.6473    0.0000 O   0  0  0  0  0  0  0  0  0  0  0  0
    4.9036    2.4444    0.0000 N   0  0  0  0  0  0  0  0  0  0  0  0
    4.0358    4.2463    0.0000 N   0  0  0  0  0  0  0  0  0  0  0  0
    5.8374   -0.6473    0.0000 N   0  0  0  0  0  0  0  0  0  0  0  0
    6.3374    1.5434    0.0000 N   0  0  0  0  0  0  0  0  0  0  0  0
    5.8374   -1.6473    0.0000 N   0  0  0  0  0  0  0  0  0  0  0  0
    3.9064    2.5191    0.0000 C   0  0  0  0  0  0  0  0  0  0  0  0
    5.4669    3.2706    0.0000 C   0  0  0  0  0  0  0  0  0  0  0  0
    3.4725    3.4201    0.0000 C   0  0  0  0  0  0  0  0  0  0  0  0
    5.0330    4.1716    0.0000 C   0  0  0  0  0  0  0  0  0  0  0  0
    5.3374    1.5434    0.0000 C   0  0  0  0  0  0  0  0  0  0  0  0
    4.7139    0.7616    0.0000 C   0  0  0  0  0  0  0  0  0  0  0  0
    3.6019    5.1473    0.0000 C   0  0  0  0  0  0  0  0  0  0  0  0
    4.9364   -0.2134    0.0000 C   0  0  0  0  0  0  0  0  0  0  0  0
    6.7384   -0.2134    0.0000 C   0  0  0  0  0  0  0  0  0  0  0  0
    6.9609    0.7615    0.0000 C   0  0  0  0  0  0  0  0  0  0  0  0
    3.7234    1.0839    0.0000 C   0  0  0  0  0  0  0  0  0  0  0  0
    4.1839   -0.9335    0.0000 C   0  0  0  0  0  0  0  0  0  0  0  0
    2.9544    0.3813    0.0000 C   0  0  0  0  0  0  0  0  0  0  0  0
    7.4909   -0.9336    0.0000 C   0  0  0  0  0  0  0  0  0  0  0  0
    7.9514    1.0839    0.0000 C   0  0  0  0  0  0  0  0  0  0  0  0
    3.1862   -0.6342    0.0000 C   0  0  0  0  0  0  0  0  0  0  0  0
    8.4886   -0.6342    0.0000 C   0  0  0  0  0  0  0  0  0  0  0  0
    8.7204    0.3813    0.0000 C   0  0  0  0  0  0  0  0  0  0  0  0
    6.7034   -2.1473    0.0000 C   0  0  0  0  0  0  0  0  0  0  0  0
    6.7034   -3.1473    0.0000 C   0  0  0  0  0  0  0  0  0  0  0  0
    7.5694   -3.6473    0.0000 C   0  0  0  0  0  0  0  0  0  0  0  0
    5.8374   -3.6473    0.0000 C   0  0  0  0  0  0  0  0  0  0  0  0
    7.5694   -4.6473    0.0000 C   0  0  0  0  0  0  0  0  0  0  0  0
    8.4355   -3.1473    0.0000 C   0  0  0  0  0  0  0  0  0  0  0  0
    5.8374   -4.6473    0.0000 C   0  0  0  0  0  0  0  0  0  0  0  0
    6.7034   -5.1473    0.0000 C   0  0  0  0  0  0  0  0  0  0  0  0
    3.3095    2.3512    0.0000 H   0  0  0  0  0  0  0  0  0  0  0  0
    3.9681    1.9022    0.0000 H   0  0  0  0  0  0  0  0  0  0  0  0
    5.9107    2.8377    0.0000 H   0  0  0  0  0  0  0  0  0  0  0  0
    5.9703    3.6325    0.0000 H   0  0  0  0  0  0  0  0  0  0  0  0
    3.0286    3.8530    0.0000 H   0  0  0  0  0  0  0  0  0  0  0  0
    2.9691    3.0582    0.0000 H   0  0  0  0  0  0  0  0  0  0  0  0
    5.6298    4.3395    0.0000 H   0  0  0  0  0  0  0  0  0  0  0  0
    4.9713    4.7885    0.0000 H   0  0  0  0  0  0  0  0  0  0  0  0
    4.1605    5.4163    0.0000 H   0  0  0  0  0  0  0  0  0  0  0  0
    3.3329    5.7059    0.0000 H   0  0  0  0  0  0  0  0  0  0  0  0
    3.0433    4.8783    0.0000 H   0  0  0  0  0  0  0  0  0  0  0  0
    3.5925    1.6899    0.0000 H   0  0  0  0  0  0  0  0  0  0  0  0
    4.3288   -1.5364    0.0000 H   0  0  0  0  0  0  0  0  0  0  0  0
    5.3005   -1.9573    0.0000 H   0  0  0  0  0  0  0  0  0  0  0  0
    7.3460   -1.5364    0.0000 H   0  0  0  0  0  0  0  0  0  0  0  0
    8.0824    1.6899    0.0000 H   0  0  0  0  0  0  0  0  0  0  0  0
    2.7333   -1.0576    0.0000 H   0  0  0  0  0  0  0  0  0  0  0  0
    8.9415   -1.0577    0.0000 H   0  0  0  0  0  0  0  0  0  0  0  0
    5.3005   -3.3373    0.0000 H   0  0  0  0  0  0  0  0  0  0  0  0
    8.1064   -4.9573    0.0000 H   0  0  0  0  0  0  0  0  0  0  0  0
    6.7034   -5.7673    0.0000 H   0  0  0  0  0  0  0  0  0  0  0  0
  1 25  1  0  0  0  0
  2 30  1  0  0  0  0
  3 36  1  0  0  0  0
  4 36  1  0  0  0  0
  5 36  1  0  0  0  0
  6 37  1  0  0  0  0
  7 31  2  0  0  0  0
  8 13  1  0  0  0  0
  8 14  1  0  0  0  0
  8 17  1  0  0  0  0
  9 15  1  0  0  0  0
  9 16  1  0  0  0  0
  9 19  1  0  0  0  0
 10 12  1  0  0  0  0
 10 20  1  0  0  0  0
 10 21  1  0  0  0  0
 11 17  2  0  0  0  0
 11 22  1  0  0  0  0
 12 31  1  0  0  0  0
 12 52  1  0  0  0  0
 13 15  1  0  0  0  0
 13 39  1  0  0  0  0
 13 40  1  0  0  0  0
 14 16  1  0  0  0  0
 14 41  1  0  0  0  0
 14 42  1  0  0  0  0
 15 43  1  0  0  0  0
 15 44  1  0  0  0  0
 16 45  1  0  0  0  0
 16 46  1  0  0  0  0
 17 18  1  0  0  0  0
 18 20  2  0  0  0  0
 18 23  1  0  0  0  0
 19 47  1  0  0  0  0
 19 48  1  0  0  0  0
 19 49  1  0  0  0  0
 20 24  1  0  0  0  0
 21 22  2  0  0  0  0
 21 26  1  0  0  0  0
 22 27  1  0  0  0  0
 23 25  2  0  0  0  0
 23 50  1  0  0  0  0
 24 28  2  0  0  0  0
 24 51  1  0  0  0  0
 25 28  1  0  0  0  0
 26 29  2  0  0  0  0
 26 53  1  0  0  0  0
 27 30  2  0  0  0  0
 27 54  1  0  0  0  0
 28 55  1  0  0  0  0
 29 30  1  0  0  0  0
 29 56  1  0  0  0  0
 31 32  1  0  0  0  0
 32 33  2  0  0  0  0
 32 34  1  0  0  0  0
 33 35  1  0  0  0  0
 33 36  1  0  0  0  0
 34 37  2  0  0  0  0
 34 57  1  0  0  0  0
 35 38  2  0  0  0  0
 35 58  1  0  0  0  0
 37 38  1  0  0  0  0
 38 59  1  0  0  0  0
M  END
> <PUBCHEM_COMPOUND_CID>
44415670

> <PUBCHEM_COMPOUND_CANONICALIZED>
1

> <PUBCHEM_CACTVS_COMPLEXITY>
886

> <PUBCHEM_CACTVS_HBOND_ACCEPTOR>
8

> <PUBCHEM_CACTVS_HBOND_DONOR>
1

> <PUBCHEM_CACTVS_ROTATABLE_BOND>
3

> <PUBCHEM_CACTVS_SUBSKEYS>
AAADceB7ocAGAAAAAAAAAAAAAAAAAAAAAAA8YMEABAAAAAABUAAAHwIYAAAADArBmDwzwINiAACoAidydACCBAElBwAbqAEodtgIYPLB35GUIQhggADIyYcYiICOgABAIAISACAAAIBABCQAQAAAAAAAAA==

> <PUBCHEM_IUPAC_OPENEYE_NAME>
N-[3,8-dichloro-6-(4-methylpiperazin-1-yl)benzo[b][1,4]benzodiazepin-11-yl]-5-fluoro-2-(trifluoromethyl)benzamide

> <PUBCHEM_IUPAC_CAS_NAME>
N-[3,8-dichloro-6-(4-methyl-1-piperazinyl)-11-benzo[b][1,4]benzodiazepinyl]-5-fluoro-2-(trifluoromethyl)benzamide

> <PUBCHEM_IUPAC_NAME_MARKUP>
<I>N</I>-[3,8-dichloro-6-(4-methylpiperazin-1-yl)benzo[b][1,4]benzodiazepin-11-yl]-5-fluoro-2-(trifluoromethyl)benzamide

> <PUBCHEM_IUPAC_NAME>
N-[3,8-dichloro-6-(4-methylpiperazin-1-yl)benzo[b][1,4]benzodiazepin-11-yl]-5-fluoro-2-(trifluoromethyl)benzamide

> <PUBCHEM_IUPAC_SYSTEMATIC_NAME>
N-[3,8-bis(chloranyl)-6-(4-methylpiperazin-1-yl)benzo[b][1,4]benzodiazepin-11-yl]-5-fluoranyl-2-(trifluoromethyl)benzamide

> <PUBCHEM_IUPAC_TRADITIONAL_NAME>
N-[3,8-dichloro-6-(4-methylpiperazino)benzo[b][1,4]benzodiazepin-11-yl]-5-fluoro-2-(trifluoromethyl)benzamide

> <PUBCHEM_IUPAC_INCHI>
InChI=1S/C26H21Cl2F4N5O/c1-35-8-10-36(11-9-35)24-19-12-15(27)2-6-22(19)37(23-7-3-16(28)13-21(23)33-24)34-25(38)18-14-17(29)4-5-20(18)26(30,31)32/h2-7,12-14H,8-11H2,1H3,(H,34,38)

> <PUBCHEM_IUPAC_INCHIKEY>
YZPSCIVWSOSUOO-UHFFFAOYSA-N

> <PUBCHEM_XLOGP3_AA>
6

> <PUBCHEM_EXACT_MASS>
565.1059283

> <PUBCHEM_MOLECULAR_FORMULA>
C26H21Cl2F4N5O

> <PUBCHEM_MOLECULAR_WEIGHT>
566.4

> <PUBCHEM_OPENEYE_CAN_SMILES>
CN1CCN(CC1)C2=NC3=C(C=CC(=C3)Cl)N(C4=C2C=C(C=C4)Cl)NC(=O)C5=C(C=CC(=C5)F)C(F)(F)F

> <PUBCHEM_OPENEYE_ISO_SMILES>
CN1CCN(CC1)C2=NC3=C(C=CC(=C3)Cl)N(C4=C2C=C(C=C4)Cl)NC(=O)C5=C(C=CC(=C5)F)C(F)(F)F

> <PUBCHEM_CACTVS_TPSA>
51.2

> <PUBCHEM_MONOISOTOPIC_WEIGHT>
565.1059283

> <PUBCHEM_TOTAL_CHARGE>
0

> <PUBCHEM_HEAVY_ATOM_COUNT>
38

> <PUBCHEM_ATOM_DEF_STEREO_COUNT>
0

> <PUBCHEM_ATOM_UDEF_STEREO_COUNT>
0

> <PUBCHEM_BOND_DEF_STEREO_COUNT>
0

> <PUBCHEM_BOND_UDEF_STEREO_COUNT>
0

> <PUBCHEM_ISOTOPIC_ATOM_COUNT>
0

> <PUBCHEM_COMPONENT_COUNT>
1

> <PUBCHEM_CACTVS_TAUTO_COUNT>
-1

> <PUBCHEM_COORDINATE_TYPE>
1
5
255

> <PUBCHEM_BONDANNOTATIONS>
18  20  8
18  23  8
20  24  8
21  22  8
21  26  8
22  27  8
23  25  8
24  28  8
25  28  8
26  29  8
27  30  8
29  30  8
32  33  8
32  34  8
33  35  8
34  37  8
35  38  8
37  38  8

$$$$
