57326791
  -OEChem-09292322072D

122129  0     0  0  0  0  0  0999 V2000
   14.7825   -7.0771    0.0000 Cl  0  0  0  0  0  0  0  0  0  0  0  0
    8.7204    7.0770    0.0000 Cl  0  0  0  0  0  0  0  0  0  0  0  0
   11.8111   -4.2500    0.0000 O   0  0  0  0  0  0  0  0  0  0  0  0
    4.0170    4.2500    0.0000 O   0  0  0  0  0  0  0  0  0  0  0  0
   10.0112   -8.8416    0.0000 N   0  0  0  0  0  0  0  0  0  0  0  0
    3.9491    8.8416    0.0000 N   0  0  0  0  0  0  0  0  0  0  0  0
    9.1434  -10.6436    0.0000 N   0  0  0  0  0  0  0  0  0  0  0  0
    3.0814   10.6436    0.0000 N   0  0  0  0  0  0  0  0  0  0  0  0
   10.9451   -5.7500    0.0000 N   0  0  0  0  0  0  0  0  0  0  0  0
    4.8830    5.7500    0.0000 N   0  0  0  0  0  0  0  0  0  0  0  0
   11.4451   -7.9407    0.0000 N   0  0  0  0  0  0  0  0  0  0  0  0
    5.3830    7.9406    0.0000 N   0  0  0  0  0  0  0  0  0  0  0  0
   10.5745   -9.6679    0.0000 C   0  0  0  0  0  0  0  0  0  0  0  0
    9.0140   -8.9164    0.0000 C   0  0  0  0  0  0  0  0  0  0  0  0
    4.5125    9.6679    0.0000 C   0  0  0  0  0  0  0  0  0  0  0  0
    2.9519    8.9164    0.0000 C   0  0  0  0  0  0  0  0  0  0  0  0
   10.1406  -10.5689    0.0000 C   0  0  0  0  0  0  0  0  0  0  0  0
    8.5801   -9.8173    0.0000 C   0  0  0  0  0  0  0  0  0  0  0  0
    4.0786   10.5688    0.0000 C   0  0  0  0  0  0  0  0  0  0  0  0
    2.5180    9.8173    0.0000 C   0  0  0  0  0  0  0  0  0  0  0  0
   10.4451   -7.9407    0.0000 C   0  0  0  0  0  0  0  0  0  0  0  0
    4.3830    7.9406    0.0000 C   0  0  0  0  0  0  0  0  0  0  0  0
    8.3470   -0.2500    0.0000 C   0  0  0  0  0  0  0  0  0  0  0  0
    7.4810    0.2500    0.0000 C   0  0  0  0  0  0  0  0  0  0  0  0
    8.3470   -1.2500    0.0000 C   0  0  0  0  0  0  0  0  0  0  0  0
    7.4810    1.2500    0.0000 C   0  0  0  0  0  0  0  0  0  0  0  0
    9.2131   -1.7500    0.0000 C   0  0  0  0  0  0  0  0  0  0  0  0
    6.6150    1.7500    0.0000 C   0  0  0  0  0  0  0  0  0  0  0  0
    9.2131   -2.7500    0.0000 C   0  0  0  0  0  0  0  0  0  0  0  0
    6.6150    2.7500    0.0000 C   0  0  0  0  0  0  0  0  0  0  0  0
    9.8216   -7.1588    0.0000 C   0  0  0  0  0  0  0  0  0  0  0  0
    3.7595    7.1588    0.0000 C   0  0  0  0  0  0  0  0  0  0  0  0
   10.0791   -3.2500    0.0000 C   0  0  0  0  0  0  0  0  0  0  0  0
    5.7490    3.2500    0.0000 C   0  0  0  0  0  0  0  0  0  0  0  0
   10.0441   -6.1839    0.0000 C   0  0  0  0  0  0  0  0  0  0  0  0
    3.9820    6.1839    0.0000 C   0  0  0  0  0  0  0  0  0  0  0  0
    8.7095  -11.5445    0.0000 C   0  0  0  0  0  0  0  0  0  0  0  0
    2.6475   11.5445    0.0000 C   0  0  0  0  0  0  0  0  0  0  0  0
   10.0791   -4.2500    0.0000 C   0  0  0  0  0  0  0  0  0  0  0  0
    5.7490    4.2500    0.0000 C   0  0  0  0  0  0  0  0  0  0  0  0
   11.8461   -6.1839    0.0000 C   0  0  0  0  0  0  0  0  0  0  0  0
    5.7840    6.1839    0.0000 C   0  0  0  0  0  0  0  0  0  0  0  0
   10.9451   -4.7500    0.0000 C   0  0  0  0  0  0  0  0  0  0  0  0
    4.8830    4.7500    0.0000 C   0  0  0  0  0  0  0  0  0  0  0  0
   12.0686   -7.1589    0.0000 C   0  0  0  0  0  0  0  0  0  0  0  0
    6.0065    7.1588    0.0000 C   0  0  0  0  0  0  0  0  0  0  0  0
    8.8311   -7.4812    0.0000 C   0  0  0  0  0  0  0  0  0  0  0  0
    2.7690    7.4812    0.0000 C   0  0  0  0  0  0  0  0  0  0  0  0
    9.2916   -5.4637    0.0000 C   0  0  0  0  0  0  0  0  0  0  0  0
    3.2295    5.4637    0.0000 C   0  0  0  0  0  0  0  0  0  0  0  0
   12.5986   -5.4638    0.0000 C   0  0  0  0  0  0  0  0  0  0  0  0
    6.5365    5.4637    0.0000 C   0  0  0  0  0  0  0  0  0  0  0  0
    8.0621   -6.7786    0.0000 C   0  0  0  0  0  0  0  0  0  0  0  0
    2.0000    6.7786    0.0000 C   0  0  0  0  0  0  0  0  0  0  0  0
   13.0591   -7.4812    0.0000 C   0  0  0  0  0  0  0  0  0  0  0  0
    6.9970    7.4811    0.0000 C   0  0  0  0  0  0  0  0  0  0  0  0
    8.2939   -5.7631    0.0000 C   0  0  0  0  0  0  0  0  0  0  0  0
    2.2318    5.7631    0.0000 C   0  0  0  0  0  0  0  0  0  0  0  0
   13.5963   -5.7631    0.0000 C   0  0  0  0  0  0  0  0  0  0  0  0
    7.5342    5.7630    0.0000 C   0  0  0  0  0  0  0  0  0  0  0  0
   13.8281   -6.7786    0.0000 C   0  0  0  0  0  0  0  0  0  0  0  0
    7.7660    6.7786    0.0000 C   0  0  0  0  0  0  0  0  0  0  0  0
   11.0779  -10.0298    0.0000 H   0  0  0  0  0  0  0  0  0  0  0  0
   11.0183   -9.2350    0.0000 H   0  0  0  0  0  0  0  0  0  0  0  0
    9.0757   -8.2994    0.0000 H   0  0  0  0  0  0  0  0  0  0  0  0
    8.4172   -8.7484    0.0000 H   0  0  0  0  0  0  0  0  0  0  0  0
    4.9563    9.2350    0.0000 H   0  0  0  0  0  0  0  0  0  0  0  0
    5.0159   10.0298    0.0000 H   0  0  0  0  0  0  0  0  0  0  0  0
    2.3551    8.7484    0.0000 H   0  0  0  0  0  0  0  0  0  0  0  0
    3.0137    8.2994    0.0000 H   0  0  0  0  0  0  0  0  0  0  0  0
   10.0789  -11.1858    0.0000 H   0  0  0  0  0  0  0  0  0  0  0  0
   10.7374  -10.7368    0.0000 H   0  0  0  0  0  0  0  0  0  0  0  0
    8.0767   -9.4554    0.0000 H   0  0  0  0  0  0  0  0  0  0  0  0
    8.1362  -10.2502    0.0000 H   0  0  0  0  0  0  0  0  0  0  0  0
    4.6754   10.7367    0.0000 H   0  0  0  0  0  0  0  0  0  0  0  0
    4.0168   11.1858    0.0000 H   0  0  0  0  0  0  0  0  0  0  0  0
    2.0742   10.2502    0.0000 H   0  0  0  0  0  0  0  0  0  0  0  0
    2.0146    9.4554    0.0000 H   0  0  0  0  0  0  0  0  0  0  0  0
    8.9576   -0.3577    0.0000 H   0  0  0  0  0  0  0  0  0  0  0  0
    8.5591    0.3326    0.0000 H   0  0  0  0  0  0  0  0  0  0  0  0
    6.8704    0.3577    0.0000 H   0  0  0  0  0  0  0  0  0  0  0  0
    7.2690   -0.3326    0.0000 H   0  0  0  0  0  0  0  0  0  0  0  0
    7.7365   -1.1424    0.0000 H   0  0  0  0  0  0  0  0  0  0  0  0
    8.1350   -1.8326    0.0000 H   0  0  0  0  0  0  0  0  0  0  0  0
    8.0916    1.1423    0.0000 H   0  0  0  0  0  0  0  0  0  0  0  0
    7.6931    1.8326    0.0000 H   0  0  0  0  0  0  0  0  0  0  0  0
    9.8236   -1.8577    0.0000 H   0  0  0  0  0  0  0  0  0  0  0  0
    9.4251   -1.1674    0.0000 H   0  0  0  0  0  0  0  0  0  0  0  0
    6.0044    1.8577    0.0000 H   0  0  0  0  0  0  0  0  0  0  0  0
    6.4030    1.1674    0.0000 H   0  0  0  0  0  0  0  0  0  0  0  0
    8.6025   -2.6424    0.0000 H   0  0  0  0  0  0  0  0  0  0  0  0
    9.0010   -3.3326    0.0000 H   0  0  0  0  0  0  0  0  0  0  0  0
    7.2256    2.6423    0.0000 H   0  0  0  0  0  0  0  0  0  0  0  0
    6.8271    3.3326    0.0000 H   0  0  0  0  0  0  0  0  0  0  0  0
   10.6897   -3.3577    0.0000 H   0  0  0  0  0  0  0  0  0  0  0  0
   10.2911   -2.6674    0.0000 H   0  0  0  0  0  0  0  0  0  0  0  0
    5.1384    3.3577    0.0000 H   0  0  0  0  0  0  0  0  0  0  0  0
    5.5369    2.6674    0.0000 H   0  0  0  0  0  0  0  0  0  0  0  0
    8.1509  -11.2755    0.0000 H   0  0  0  0  0  0  0  0  0  0  0  0
    8.4405  -12.1031    0.0000 H   0  0  0  0  0  0  0  0  0  0  0  0
    9.2681  -11.8136    0.0000 H   0  0  0  0  0  0  0  0  0  0  0  0
    3.2061   11.8135    0.0000 H   0  0  0  0  0  0  0  0  0  0  0  0
    2.3785   12.1031    0.0000 H   0  0  0  0  0  0  0  0  0  0  0  0
    2.0889   11.2755    0.0000 H   0  0  0  0  0  0  0  0  0  0  0  0
    9.4685   -4.1424    0.0000 H   0  0  0  0  0  0  0  0  0  0  0  0
    9.8670   -4.8326    0.0000 H   0  0  0  0  0  0  0  0  0  0  0  0
    6.3596    4.1423    0.0000 H   0  0  0  0  0  0  0  0  0  0  0  0
    5.9611    4.8326    0.0000 H   0  0  0  0  0  0  0  0  0  0  0  0
    8.7001   -8.0872    0.0000 H   0  0  0  0  0  0  0  0  0  0  0  0
    2.6380    8.0872    0.0000 H   0  0  0  0  0  0  0  0  0  0  0  0
    9.4365   -4.8609    0.0000 H   0  0  0  0  0  0  0  0  0  0  0  0
    3.3744    4.8609    0.0000 H   0  0  0  0  0  0  0  0  0  0  0  0
   12.4537   -4.8609    0.0000 H   0  0  0  0  0  0  0  0  0  0  0  0
    6.3916    4.8609    0.0000 H   0  0  0  0  0  0  0  0  0  0  0  0
    7.4703   -6.9636    0.0000 H   0  0  0  0  0  0  0  0  0  0  0  0
    1.4083    6.9636    0.0000 H   0  0  0  0  0  0  0  0  0  0  0  0
   13.1900   -8.0872    0.0000 H   0  0  0  0  0  0  0  0  0  0  0  0
    7.1280    8.0872    0.0000 H   0  0  0  0  0  0  0  0  0  0  0  0
    7.8410   -5.3396    0.0000 H   0  0  0  0  0  0  0  0  0  0  0  0
    1.7789    5.3396    0.0000 H   0  0  0  0  0  0  0  0  0  0  0  0
   14.0492   -5.3397    0.0000 H   0  0  0  0  0  0  0  0  0  0  0  0
    7.9871    5.3396    0.0000 H   0  0  0  0  0  0  0  0  0  0  0  0
  1 61  1  0  0  0  0
  2 62  1  0  0  0  0
  3 43  2  0  0  0  0
  4 44  2  0  0  0  0
  5 13  1  0  0  0  0
  5 14  1  0  0  0  0
  5 21  1  0  0  0  0
  6 15  1  0  0  0  0
  6 16  1  0  0  0  0
  6 22  1  0  0  0  0
  7 17  1  0  0  0  0
  7 18  1  0  0  0  0
  7 37  1  0  0  0  0
  8 19  1  0  0  0  0
  8 20  1  0  0  0  0
  8 38  1  0  0  0  0
  9 35  1  0  0  0  0
  9 41  1  0  0  0  0
  9 43  1  0  0  0  0
 10 36  1  0  0  0  0
 10 42  1  0  0  0  0
 10 44  1  0  0  0  0
 11 21  2  0  0  0  0
 11 45  1  0  0  0  0
 12 22  2  0  0  0  0
 12 46  1  0  0  0  0
 13 17  1  0  0  0  0
 13 63  1  0  0  0  0
 13 64  1  0  0  0  0
 14 18  1  0  0  0  0
 14 65  1  0  0  0  0
 14 66  1  0  0  0  0
 15 19  1  0  0  0  0
 15 67  1  0  0  0  0
 15 68  1  0  0  0  0
 16 20  1  0  0  0  0
 16 69  1  0  0  0  0
 16 70  1  0  0  0  0
 17 71  1  0  0  0  0
 17 72  1  0  0  0  0
 18 73  1  0  0  0  0
 18 74  1  0  0  0  0
 19 75  1  0  0  0  0
 19 76  1  0  0  0  0
 20 77  1  0  0  0  0
 20 78  1  0  0  0  0
 21 31  1  0  0  0  0
 22 32  1  0  0  0  0
 23 24  1  0  0  0  0
 23 25  1  0  0  0  0
 23 79  1  0  0  0  0
 23 80  1  0  0  0  0
 24 26  1  0  0  0  0
 24 81  1  0  0  0  0
 24 82  1  0  0  0  0
 25 27  1  0  0  0  0
 25 83  1  0  0  0  0
 25 84  1  0  0  0  0
 26 28  1  0  0  0  0
 26 85  1  0  0  0  0
 26 86  1  0  0  0  0
 27 29  1  0  0  0  0
 27 87  1  0  0  0  0
 27 88  1  0  0  0  0
 28 30  1  0  0  0  0
 28 89  1  0  0  0  0
 28 90  1  0  0  0  0
 29 33  1  0  0  0  0
 29 91  1  0  0  0  0
 29 92  1  0  0  0  0
 30 34  1  0  0  0  0
 30 93  1  0  0  0  0
 30 94  1  0  0  0  0
 31 35  1  0  0  0  0
 31 47  2  0  0  0  0
 32 36  1  0  0  0  0
 32 48  2  0  0  0  0
 33 39  1  0  0  0  0
 33 95  1  0  0  0  0
 33 96  1  0  0  0  0
 34 40  1  0  0  0  0
 34 97  1  0  0  0  0
 34 98  1  0  0  0  0
 35 49  2  0  0  0  0
 36 50  2  0  0  0  0
 37 99  1  0  0  0  0
 37100  1  0  0  0  0
 37101  1  0  0  0  0
 38102  1  0  0  0  0
 38103  1  0  0  0  0
 38104  1  0  0  0  0
 39 43  1  0  0  0  0
 39105  1  0  0  0  0
 39106  1  0  0  0  0
 40 44  1  0  0  0  0
 40107  1  0  0  0  0
 40108  1  0  0  0  0
 41 45  2  0  0  0  0
 41 51  1  0  0  0  0
 42 46  2  0  0  0  0
 42 52  1  0  0  0  0
 45 55  1  0  0  0  0
 46 56  1  0  0  0  0
 47 53  1  0  0  0  0
 47109  1  0  0  0  0
 48 54  1  0  0  0  0
 48110  1  0  0  0  0
 49 57  1  0  0  0  0
 49111  1  0  0  0  0
 50 58  1  0  0  0  0
 50112  1  0  0  0  0
 51 59  2  0  0  0  0
 51113  1  0  0  0  0
 52 60  2  0  0  0  0
 52114  1  0  0  0  0
 53 57  2  0  0  0  0
 53115  1  0  0  0  0
 54 58  2  0  0  0  0
 54116  1  0  0  0  0
 55 61  2  0  0  0  0
 55117  1  0  0  0  0
 56 62  2  0  0  0  0
 56118  1  0  0  0  0
 57119  1  0  0  0  0
 58120  1  0  0  0  0
 59 61  1  0  0  0  0
 59121  1  0  0  0  0
 60 62  1  0  0  0  0
 60122  1  0  0  0  0
M  END
> <PUBCHEM_COMPOUND_CID>
57326791

> <PUBCHEM_COMPOUND_CANONICALIZED>
1

> <PUBCHEM_CACTVS_COMPLEXITY>
1400

> <PUBCHEM_CACTVS_HBOND_ACCEPTOR>
6

> <PUBCHEM_CACTVS_HBOND_DONOR>
0

> <PUBCHEM_CACTVS_ROTATABLE_BOND>
15

> <PUBCHEM_CACTVS_SUBSKEYS>
AAADcfB/8AAGAAAAAAAAAAAAAAAAAAAAAAA8eMGCBAgAAAABVAAAHgIAAAAADArBmCQzwIMAAACoAidydACCAAEhBwAJiAEodpgIYPLB25GUIAhghADIyAcYiICOAABAAAICACAAAIAABAQAQAAAAAAAAA==

> <PUBCHEM_IUPAC_OPENEYE_NAME>
1,14-bis[3-chloro-6-(4-methylpiperazin-1-yl)benzo[b][1,4]benzodiazepin-11-yl]tetradecane-1,14-dione

> <PUBCHEM_IUPAC_CAS_NAME>
1,14-bis[3-chloro-6-(4-methyl-1-piperazinyl)-11-benzo[b][1,4]benzodiazepinyl]tetradecane-1,14-dione

> <PUBCHEM_IUPAC_NAME_MARKUP>
1,14-bis[3-chloro-6-(4-methylpiperazin-1-yl)benzo[b][1,4]benzodiazepin-11-yl]tetradecane-1,14-dione

> <PUBCHEM_IUPAC_NAME>
1,14-bis[3-chloro-6-(4-methylpiperazin-1-yl)benzo[b][1,4]benzodiazepin-11-yl]tetradecane-1,14-dione

> <PUBCHEM_IUPAC_SYSTEMATIC_NAME>
1,14-bis[3-chloranyl-6-(4-methylpiperazin-1-yl)benzo[b][1,4]benzodiazepin-11-yl]tetradecane-1,14-dione

> <PUBCHEM_IUPAC_TRADITIONAL_NAME>
1,14-bis[3-chloro-6-(4-methylpiperazino)benzo[b][1,4]benzodiazepin-11-yl]tetradecane-1,14-dione

> <PUBCHEM_IUPAC_INCHI>
InChI=1S/C50H60Cl2N8O2/c1-55-27-31-57(32-28-55)49-39-17-13-15-19-43(39)59(45-25-23-37(51)35-41(45)53-49)47(61)21-11-9-7-5-3-4-6-8-10-12-22-48(62)60-44-20-16-14-18-40(44)50(58-33-29-56(2)30-34-58)54-42-36-38(52)24-26-46(42)60/h13-20,23-26,35-36H,3-12,21-22,27-34H2,1-2H3

> <PUBCHEM_IUPAC_INCHIKEY>
LZJTTWDDGBAYKY-UHFFFAOYSA-N

> <PUBCHEM_XLOGP3_AA>
9.6

> <PUBCHEM_EXACT_MASS>
874.4216286

> <PUBCHEM_MOLECULAR_FORMULA>
C50H60Cl2N8O2

> <PUBCHEM_MOLECULAR_WEIGHT>
876.0

> <PUBCHEM_OPENEYE_CAN_SMILES>
CN1CCN(CC1)C2=NC3=C(C=CC(=C3)Cl)N(C4=CC=CC=C42)C(=O)CCCCCCCCCCCCC(=O)N5C6=C(C=C(C=C6)Cl)N=C(C7=CC=CC=C75)N8CCN(CC8)C

> <PUBCHEM_OPENEYE_ISO_SMILES>
CN1CCN(CC1)C2=NC3=C(C=CC(=C3)Cl)N(C4=CC=CC=C42)C(=O)CCCCCCCCCCCCC(=O)N5C6=C(C=C(C=C6)Cl)N=C(C7=CC=CC=C75)N8CCN(CC8)C

> <PUBCHEM_CACTVS_TPSA>
78.3

> <PUBCHEM_MONOISOTOPIC_WEIGHT>
874.4216286

> <PUBCHEM_TOTAL_CHARGE>
0

> <PUBCHEM_HEAVY_ATOM_COUNT>
62

> <PUBCHEM_ATOM_DEF_STEREO_COUNT>
0

> <PUBCHEM_ATOM_UDEF_STEREO_COUNT>
0

> <PUBCHEM_BOND_DEF_STEREO_COUNT>
0

> <PUBCHEM_BOND_UDEF_STEREO_COUNT>
0

> <PUBCHEM_ISOTOPIC_ATOM_COUNT>
0

> <PUBCHEM_COMPONENT_COUNT>
1

> <PUBCHEM_CACTVS_TAUTO_COUNT>
-1

> <PUBCHEM_COORDINATE_TYPE>
1
5
255

> <PUBCHEM_BONDANNOTATIONS>
31  35  8
31  47  8
32  36  8
32  48  8
35  49  8
36  50  8
41  45  8
41  51  8
42  46  8
42  52  8
45  55  8
46  56  8
47  53  8
48  54  8
49  57  8
50  58  8
51  59  8
52  60  8
53  57  8
54  58  8
55  61  8
56  62  8
59  61  8
60  62  8

$$$$
