168297455
  -OEChem-09292322442D

 78 83  0     1  0  0  0  0  0999 V2000
    4.9872   -5.7275    0.0000 Cl  0  0  0  0  0  0  0  0  0  0  0  0
    4.1511   -7.5444    0.0000 Cl  0  0  0  0  0  0  0  0  0  0  0  0
   12.4099    3.2374    0.0000 F   0  0  0  0  0  0  0  0  0  0  0  0
   11.9099    2.3714    0.0000 F   0  0  0  0  0  0  0  0  0  0  0  0
    8.0279    2.1620    0.0000 F   0  0  0  0  0  0  0  0  0  0  0  0
    8.2704    3.3123    0.0000 F   0  0  0  0  0  0  0  0  0  0  0  0
   10.5438    2.7374    0.0000 N   0  0  0  0  0  0  0  0  0  0  0  0
    9.6778    3.2374    0.0000 N   0  0  3  0  0  0  0  0  0  0  0  0
   11.4099    4.2374    0.0000 N   0  3  0  0  0  0  0  0  0  0  0  0
    9.3459    1.6626    0.0000 N   0  3  0  0  0  0  0  0  0  0  0  0
    4.6680   -2.2782    0.0000 N   0  0  0  0  0  0  0  0  0  0  0  0
    3.8319   -4.0950    0.0000 N   0  0  0  0  0  0  0  0  0  0  0  0
    7.9136    0.6314    0.0000 N   0  0  0  0  0  0  0  0  0  0  0  0
   10.5438    4.7374    0.0000 C   0  0  0  0  0  0  0  0  0  0  0  0
   10.3346    1.7656    0.0000 C   0  0  0  0  0  0  0  0  0  0  0  0
    9.6778    4.2374    0.0000 C   0  0  0  0  0  0  0  0  0  0  0  0
   12.1469    4.9045    0.0000 C   0  0  0  0  0  0  0  0  0  0  0  0
   10.7530    5.7092    0.0000 C   0  0  0  0  0  0  0  0  0  0  0  0
   11.7418    5.8123    0.0000 C   0  0  0  0  0  0  0  0  0  0  0  0
    8.9094    0.7236    0.0000 C   0  0  0  0  0  0  0  0  0  0  0  0
    3.6722   -2.3703    0.0000 C   0  0  0  0  0  0  0  0  0  0  0  0
    5.2457   -3.0944    0.0000 C   0  0  0  0  0  0  0  0  0  0  0  0
    5.0860   -1.3697    0.0000 C   0  0  0  0  0  0  0  0  0  0  0  0
    3.2542   -3.2787    0.0000 C   0  0  0  0  0  0  0  0  0  0  0  0
    4.8276   -4.0028    0.0000 C   0  0  0  0  0  0  0  0  0  0  0  0
    6.0818   -1.2776    0.0000 C   0  0  0  0  0  0  0  0  0  0  0  0
   10.9554    0.9368    0.0000 C   0  0  0  0  0  0  0  0  0  0  0  0
    6.4998   -0.3691    0.0000 C   0  0  0  0  0  0  0  0  0  0  0  0
   12.2418    6.6783    0.0000 C   0  0  0  0  0  0  0  0  0  0  0  0
    7.4956   -0.2770    0.0000 C   0  0  0  0  0  0  0  0  0  0  0  0
   13.1254    4.6983    0.0000 C   0  0  0  0  0  0  0  0  0  0  0  0
   10.0852    6.4535    0.0000 C   0  0  0  0  0  0  0  0  0  0  0  0
    9.5108   -0.1193    0.0000 C   0  0  0  0  0  0  0  0  0  0  0  0
   10.5407   -0.0120    0.0000 C   0  0  0  0  0  0  0  0  0  0  0  0
    3.4138   -5.0034    0.0000 C   0  0  0  0  0  0  0  0  0  0  0  0
   11.7418    7.5444    0.0000 C   0  0  0  0  0  0  0  0  0  0  0  0
    3.9915   -5.8197    0.0000 C   0  0  0  0  0  0  0  0  0  0  0  0
    2.4181   -5.0956    0.0000 C   0  0  0  0  0  0  0  0  0  0  0  0
    3.5734   -6.7281    0.0000 C   0  0  0  0  0  0  0  0  0  0  0  0
    2.0000   -6.0040    0.0000 C   0  0  0  0  0  0  0  0  0  0  0  0
    2.5777   -6.8202    0.0000 C   0  0  0  0  0  0  0  0  0  0  0  0
   11.4099    3.2374    0.0000 B   0  5  0  0  0  0  0  0  0  0  0  0
    8.9408    2.5703    0.0000 B   0  5  0  0  0  0  0  0  0  0  0  0
    9.1409    4.5474    0.0000 H   0  0  0  0  0  0  0  0  0  0  0  0
    3.7232   -1.7524    0.0000 H   0  0  0  0  0  0  0  0  0  0  0  0
    3.0726   -2.2128    0.0000 H   0  0  0  0  0  0  0  0  0  0  0  0
    5.7553   -3.4475    0.0000 H   0  0  0  0  0  0  0  0  0  0  0  0
    5.6819   -2.6538    0.0000 H   0  0  0  0  0  0  0  0  0  0  0  0
    5.1370   -0.7518    0.0000 H   0  0  0  0  0  0  0  0  0  0  0  0
    4.4864   -1.2123    0.0000 H   0  0  0  0  0  0  0  0  0  0  0  0
    2.7445   -2.9257    0.0000 H   0  0  0  0  0  0  0  0  0  0  0  0
    2.8180   -3.7193    0.0000 H   0  0  0  0  0  0  0  0  0  0  0  0
    4.7767   -4.6207    0.0000 H   0  0  0  0  0  0  0  0  0  0  0  0
    5.4273   -4.1603    0.0000 H   0  0  0  0  0  0  0  0  0  0  0  0
    6.0308   -1.8955    0.0000 H   0  0  0  0  0  0  0  0  0  0  0  0
    6.6815   -1.4350    0.0000 H   0  0  0  0  0  0  0  0  0  0  0  0
   11.5713    1.0082    0.0000 H   0  0  0  0  0  0  0  0  0  0  0  0
    6.5508    0.2488    0.0000 H   0  0  0  0  0  0  0  0  0  0  0  0
    5.9002   -0.2117    0.0000 H   0  0  0  0  0  0  0  0  0  0  0  0
   12.7167    6.2798    0.0000 H   0  0  0  0  0  0  0  0  0  0  0  0
   12.7167    7.0768    0.0000 H   0  0  0  0  0  0  0  0  0  0  0  0
    7.4447   -0.8949    0.0000 H   0  0  0  0  0  0  0  0  0  0  0  0
    8.0953   -0.4344    0.0000 H   0  0  0  0  0  0  0  0  0  0  0  0
    7.5555    1.1375    0.0000 H   0  0  0  0  0  0  0  0  0  0  0  0
   12.9975    4.0916    0.0000 H   0  0  0  0  0  0  0  0  0  0  0  0
   13.7320    4.5704    0.0000 H   0  0  0  0  0  0  0  0  0  0  0  0
   13.2532    5.3050    0.0000 H   0  0  0  0  0  0  0  0  0  0  0  0
   10.5467    6.8676    0.0000 H   0  0  0  0  0  0  0  0  0  0  0  0
    9.6711    6.9150    0.0000 H   0  0  0  0  0  0  0  0  0  0  0  0
    9.6237    6.0395    0.0000 H   0  0  0  0  0  0  0  0  0  0  0  0
    9.2560   -0.6845    0.0000 H   0  0  0  0  0  0  0  0  0  0  0  0
   10.9066   -0.5125    0.0000 H   0  0  0  0  0  0  0  0  0  0  0  0
   12.2787    7.8544    0.0000 H   0  0  0  0  0  0  0  0  0  0  0  0
   11.4318    8.0813    0.0000 H   0  0  0  0  0  0  0  0  0  0  0  0
   11.2048    7.2344    0.0000 H   0  0  0  0  0  0  0  0  0  0  0  0
    2.0599   -4.5895    0.0000 H   0  0  0  0  0  0  0  0  0  0  0  0
    1.3826   -6.0611    0.0000 H   0  0  0  0  0  0  0  0  0  0  0  0
    2.3185   -7.3835    0.0000 H   0  0  0  0  0  0  0  0  0  0  0  0
  1 37  1  0  0  0  0
  2 39  1  0  0  0  0
  3 42  1  0  0  0  0
  4 42  1  0  0  0  0
  5 43  1  0  0  0  0
  6 43  1  0  0  0  0
  7  8  1  0  0  0  0
  7 15  1  0  0  0  0
  7 42  1  0  0  0  0
  8 16  1  0  0  0  0
  8 43  1  0  0  0  0
  9 14  1  0  0  0  0
  9 17  2  0  0  0  0
  9 42  1  0  0  0  0
 10 15  1  0  0  0  0
 10 20  2  0  0  0  0
 10 43  1  0  0  0  0
 11 21  1  0  0  0  0
 11 22  1  0  0  0  0
 11 23  1  0  0  0  0
 12 24  1  0  0  0  0
 12 25  1  0  0  0  0
 12 35  1  0  0  0  0
 13 20  1  0  0  0  0
 13 30  1  0  0  0  0
 13 64  1  0  0  0  0
 14 16  2  0  0  0  0
 14 18  1  0  0  0  0
 15 27  2  0  0  0  0
 16 44  1  0  0  0  0
 17 19  1  0  0  0  0
 17 31  1  0  0  0  0
 18 19  2  0  0  0  0
 18 32  1  0  0  0  0
 19 29  1  0  0  0  0
 20 33  1  0  0  0  0
 21 24  1  0  0  0  0
 21 45  1  0  0  0  0
 21 46  1  0  0  0  0
 22 25  1  0  0  0  0
 22 47  1  0  0  0  0
 22 48  1  0  0  0  0
 23 26  1  0  0  0  0
 23 49  1  0  0  0  0
 23 50  1  0  0  0  0
 24 51  1  0  0  0  0
 24 52  1  0  0  0  0
 25 53  1  0  0  0  0
 25 54  1  0  0  0  0
 26 28  1  0  0  0  0
 26 55  1  0  0  0  0
 26 56  1  0  0  0  0
 27 34  1  0  0  0  0
 27 57  1  0  0  0  0
 28 30  1  0  0  0  0
 28 58  1  0  0  0  0
 28 59  1  0  0  0  0
 29 36  1  0  0  0  0
 29 60  1  0  0  0  0
 29 61  1  0  0  0  0
 30 62  1  0  0  0  0
 30 63  1  0  0  0  0
 31 65  1  0  0  0  0
 31 66  1  0  0  0  0
 31 67  1  0  0  0  0
 32 68  1  0  0  0  0
 32 69  1  0  0  0  0
 32 70  1  0  0  0  0
 33 34  2  0  0  0  0
 33 71  1  0  0  0  0
 34 72  1  0  0  0  0
 35 37  2  0  0  0  0
 35 38  1  0  0  0  0
 36 73  1  0  0  0  0
 36 74  1  0  0  0  0
 36 75  1  0  0  0  0
 37 39  1  0  0  0  0
 38 40  2  0  0  0  0
 38 76  1  0  0  0  0
 39 41  2  0  0  0  0
 40 41  1  0  0  0  0
 40 77  1  0  0  0  0
 41 78  1  0  0  0  0
M  CHG  4   9   1  10   1  42  -1  43  -1
M  END
> <PUBCHEM_COMPOUND_CID>
168297455

> <PUBCHEM_COMPOUND_CANONICALIZED>
1

> <PUBCHEM_CACTVS_COMPLEXITY>
1170

> <PUBCHEM_CACTVS_HBOND_ACCEPTOR>
11

> <PUBCHEM_CACTVS_HBOND_DONOR>
1

> <PUBCHEM_CACTVS_ROTATABLE_BOND>
8

> <PUBCHEM_CACTVS_SUBSKEYS>
AAADcfN7gcAGAAAAAAAAAAAAAAAAAWIAAAA8WIEAAAAAAFgBwAAUHAIYAAAADArBEiQz8JPIEACgAyZmZACChCkhByAdmuA4ZpiIYOLBm5HUIAhokALIyCcQAAAAAAAAAAIAABQAAAAABAAAKAAAAAAAAA==

> <PUBCHEM_IUPAC_OPENEYE_NAME>
N-[4-[4-(2,3-dichlorophenyl)piperazin-1-yl]butyl]-13-ethyl-8,8,16,16-tetrafluoro-12,14-dimethyl-1,9-diaza-7,15-diazonia-8,16-diboranuidatetracyclo[7.7.0.02,7.011,15]hexadeca-2,4,6,10,12,14-hexaen-6-amine

> <PUBCHEM_IUPAC_CAS_NAME>
N-[4-[4-(2,3-dichlorophenyl)-1-piperazinyl]butyl]-13-ethyl-8,8,16,16-tetrafluoro-12,14-dimethyl-1,9-diaza-7,15-diazonia-8,16-diboranuidatetracyclo[7.7.0.02,7.011,15]hexadeca-2,4,6,10,12,14-hexaen-6-amine

> <PUBCHEM_IUPAC_NAME_MARKUP>
<I>N</I>-[4-[4-(2,3-dichlorophenyl)piperazin-1-yl]butyl]-13-ethyl-8,8,16,16-tetrafluoro-12,14-dimethyl-1,9-diaza-7,15-diazonia-8,16-diboranuidatetracyclo[7.7.0.0<SUP>2,7</SUP>.0<SUP>11,15</SUP>]hexadeca-2,4,6,10,12,14-hexaen-6-amine

> <PUBCHEM_IUPAC_NAME>
N-[4-[4-(2,3-dichlorophenyl)piperazin-1-yl]butyl]-13-ethyl-8,8,16,16-tetrafluoro-12,14-dimethyl-1,9-diaza-7,15-diazonia-8,16-diboranuidatetracyclo[7.7.0.02,7.011,15]hexadeca-2,4,6,10,12,14-hexaen-6-amine

> <PUBCHEM_IUPAC_SYSTEMATIC_NAME>
N-[4-[4-[2,3-bis(chloranyl)phenyl]piperazin-1-yl]butyl]-13-ethyl-8,8,16,16-tetrakis(fluoranyl)-12,14-dimethyl-1,9-diaza-7,15-diazonia-8,16-diboranuidatetracyclo[7.7.0.02,7.011,15]hexadeca-2,4,6,10,12,14-hexaen-6-amine

> <PUBCHEM_IUPAC_TRADITIONAL_NAME>
4-[4-(2,3-dichlorophenyl)piperazino]butyl-(13-ethyl-8,8,16,16-tetrafluoro-12,14-dimethyl-1,9-diaza-7,15-diazonia-8,16-diboranuidatetracyclo[7.7.0.02,7.011,15]hexadeca-2,4,6,10,12,14-hexaen-6-yl)amine

> <PUBCHEM_IUPAC_INCHI>
InChI=1S/C28H35B2Cl2F4N7/c1-4-22-20(2)25-19-40-29(33,34)42-26(11-8-12-27(42)43(40)30(35,36)41(25)21(22)3)37-13-5-6-14-38-15-17-39(18-16-38)24-10-7-9-23(31)28(24)32/h7-12,19,37H,4-6,13-18H2,1-3H3

> <PUBCHEM_IUPAC_INCHIKEY>
NZBZRVLCAAQXCD-UHFFFAOYSA-N

> <PUBCHEM_EXACT_MASS>
637.2453225

> <PUBCHEM_MOLECULAR_FORMULA>
C28H35B2Cl2F4N7

> <PUBCHEM_MOLECULAR_WEIGHT>
638.1

> <PUBCHEM_OPENEYE_CAN_SMILES>
[B-]1(N2C=C3C(=C(C(=[N+]3[B-](N2C4=CC=CC(=[N+]41)NCCCCN5CCN(CC5)C6=C(C(=CC=C6)Cl)Cl)(F)F)C)CC)C)(F)F

> <PUBCHEM_OPENEYE_ISO_SMILES>
[B-]1(N2C=C3C(=C(C(=[N+]3[B-](N2C4=CC=CC(=[N+]41)NCCCCN5CCN(CC5)C6=C(C(=CC=C6)Cl)Cl)(F)F)C)CC)C)(F)F

> <PUBCHEM_CACTVS_TPSA>
31.9

> <PUBCHEM_MONOISOTOPIC_WEIGHT>
637.2453225

> <PUBCHEM_TOTAL_CHARGE>
0

> <PUBCHEM_HEAVY_ATOM_COUNT>
43

> <PUBCHEM_ATOM_DEF_STEREO_COUNT>
0

> <PUBCHEM_ATOM_UDEF_STEREO_COUNT>
0

> <PUBCHEM_BOND_DEF_STEREO_COUNT>
0

> <PUBCHEM_BOND_UDEF_STEREO_COUNT>
0

> <PUBCHEM_ISOTOPIC_ATOM_COUNT>
0

> <PUBCHEM_COMPONENT_COUNT>
1

> <PUBCHEM_CACTVS_TAUTO_COUNT>
-1

> <PUBCHEM_COORDINATE_TYPE>
1
5
255

> <PUBCHEM_BONDANNOTATIONS>
10  15  8
10  20  8
15  27  8
20  33  8
27  34  8
33  34  8
35  37  8
35  38  8
37  39  8
38  40  8
39  41  8
40  41  8

$$$$
