25110718
  -OEChem-09292321582D

 68 72  0     1  0  0  0  0  0999 V2000
    4.6660   -3.7776    0.0000 O   0  0  0  0  0  0  0  0  0  0  0  0
    4.6660   -1.7776    0.0000 O   0  0  0  0  0  0  0  0  0  0  0  0
   11.7101    0.1623    0.0000 O   0  0  0  0  0  0  0  0  0  0  0  0
   13.1412    1.1380    0.0000 O   0  0  0  0  0  0  0  0  0  0  0  0
    7.2641   -3.2776    0.0000 N   0  0  3  0  0  0  0  0  0  0  0  0
    9.4113   -2.6153    0.0000 N   0  0  3  0  0  0  0  0  0  0  0  0
   11.8396   -1.5649    0.0000 N   0  0  0  0  0  0  0  0  0  0  0  0
   14.7017    0.3865    0.0000 N   0  0  0  0  0  0  0  0  0  0  0  0
    8.0904   -3.8409    0.0000 C   0  0  0  0  0  0  0  0  0  0  0  0
    7.1894   -2.2804    0.0000 C   0  0  0  0  0  0  0  0  0  0  0  0
    9.0459   -3.5462    0.0000 C   0  0  0  0  0  0  0  0  0  0  0  0
    7.9224   -1.6002    0.0000 C   0  0  0  0  0  0  0  0  0  0  0  0
    8.9113   -1.7493    0.0000 C   0  0  0  0  0  0  0  0  0  0  0  0
    6.3981   -3.7776    0.0000 C   0  0  0  0  0  0  0  0  0  0  0  0
    5.5321   -3.2776    0.0000 C   0  0  1  0  0  0  0  0  0  0  0  0
   10.4085   -2.5406    0.0000 C   0  0  0  0  0  0  0  0  0  0  0  0
    5.5321   -2.2776    0.0000 C   0  0  0  0  0  0  0  0  0  0  0  0
   10.8424   -1.6396    0.0000 C   0  0  0  0  0  0  0  0  0  0  0  0
    3.8000   -3.2776    0.0000 C   0  0  0  0  0  0  0  0  0  0  0  0
    3.8000   -2.2776    0.0000 C   0  0  0  0  0  0  0  0  0  0  0  0
    2.9061   -3.8123    0.0000 C   0  0  0  0  0  0  0  0  0  0  0  0
    2.9061   -1.7430    0.0000 C   0  0  0  0  0  0  0  0  0  0  0  0
   12.2734   -0.6639    0.0000 C   0  0  0  0  0  0  0  0  0  0  0  0
    2.0000   -3.2984    0.0000 C   0  0  0  0  0  0  0  0  0  0  0  0
    2.0000   -2.2568    0.0000 C   0  0  0  0  0  0  0  0  0  0  0  0
   13.2706   -0.5892    0.0000 C   0  0  0  0  0  0  0  0  0  0  0  0
   13.7045    0.3118    0.0000 C   0  0  0  0  0  0  0  0  0  0  0  0
   13.8340   -1.4154    0.0000 C   0  0  0  0  0  0  0  0  0  0  0  0
   14.8312   -1.3407    0.0000 C   0  0  0  0  0  0  0  0  0  0  0  0
   15.2650   -0.4397    0.0000 C   0  0  0  0  0  0  0  0  0  0  0  0
   13.5751    2.0390    0.0000 C   0  0  0  0  0  0  0  0  0  0  0  0
   13.0118    2.8652    0.0000 C   0  0  0  0  0  0  0  0  0  0  0  0
   14.5723    2.1137    0.0000 C   0  0  0  0  0  0  0  0  0  0  0  0
   13.4457    3.7662    0.0000 C   0  0  0  0  0  0  0  0  0  0  0  0
   15.0062    3.0147    0.0000 C   0  0  0  0  0  0  0  0  0  0  0  0
   14.4429    3.8409    0.0000 C   0  0  0  0  0  0  0  0  0  0  0  0
    7.6359   -4.2626    0.0000 H   0  0  0  0  0  0  0  0  0  0  0  0
    8.4004   -4.3779    0.0000 H   0  0  0  0  0  0  0  0  0  0  0  0
    6.8794   -1.7435    0.0000 H   0  0  0  0  0  0  0  0  0  0  0  0
    6.5969   -2.4632    0.0000 H   0  0  0  0  0  0  0  0  0  0  0  0
    9.0922   -4.1645    0.0000 H   0  0  0  0  0  0  0  0  0  0  0  0
    9.6590   -3.6386    0.0000 H   0  0  0  0  0  0  0  0  0  0  0  0
    8.1489   -1.0231    0.0000 H   0  0  0  0  0  0  0  0  0  0  0  0
    7.4102   -1.2510    0.0000 H   0  0  0  0  0  0  0  0  0  0  0  0
    9.5037   -1.5665    0.0000 H   0  0  0  0  0  0  0  0  0  0  0  0
    8.8649   -1.1310    0.0000 H   0  0  0  0  0  0  0  0  0  0  0  0
    5.9996   -4.2526    0.0000 H   0  0  0  0  0  0  0  0  0  0  0  0
    6.7966   -4.2526    0.0000 H   0  0  0  0  0  0  0  0  0  0  0  0
    5.5321   -3.8976    0.0000 H   0  0  0  0  0  0  0  0  0  0  0  0
   10.3467   -3.1575    0.0000 H   0  0  0  0  0  0  0  0  0  0  0  0
   11.0053   -2.7085    0.0000 H   0  0  0  0  0  0  0  0  0  0  0  0
    6.1426   -2.3853    0.0000 H   0  0  0  0  0  0  0  0  0  0  0  0
    5.7441   -1.6950    0.0000 H   0  0  0  0  0  0  0  0  0  0  0  0
   10.9041   -1.0227    0.0000 H   0  0  0  0  0  0  0  0  0  0  0  0
   10.2455   -1.4717    0.0000 H   0  0  0  0  0  0  0  0  0  0  0  0
   12.1888   -2.0772    0.0000 H   0  0  0  0  0  0  0  0  0  0  0  0
    2.9132   -4.4322    0.0000 H   0  0  0  0  0  0  0  0  0  0  0  0
    2.9132   -1.1230    0.0000 H   0  0  0  0  0  0  0  0  0  0  0  0
    1.4643   -3.6105    0.0000 H   0  0  0  0  0  0  0  0  0  0  0  0
    1.4643   -1.9447    0.0000 H   0  0  0  0  0  0  0  0  0  0  0  0
   13.5650   -1.9740    0.0000 H   0  0  0  0  0  0  0  0  0  0  0  0
   15.1804   -1.8530    0.0000 H   0  0  0  0  0  0  0  0  0  0  0  0
   15.8833   -0.3934    0.0000 H   0  0  0  0  0  0  0  0  0  0  0  0
   12.3935    2.8189    0.0000 H   0  0  0  0  0  0  0  0  0  0  0  0
   14.9216    1.6015    0.0000 H   0  0  0  0  0  0  0  0  0  0  0  0
   13.0964    4.2785    0.0000 H   0  0  0  0  0  0  0  0  0  0  0  0
   15.6244    3.0610    0.0000 H   0  0  0  0  0  0  0  0  0  0  0  0
   14.7119    4.3995    0.0000 H   0  0  0  0  0  0  0  0  0  0  0  0
  1 15  1  0  0  0  0
  1 19  1  0  0  0  0
  2 17  1  0  0  0  0
  2 20  1  0  0  0  0
  3 23  2  0  0  0  0
  4 27  1  0  0  0  0
  4 31  1  0  0  0  0
  5  9  1  0  0  0  0
  5 10  1  0  0  0  0
  5 14  1  0  0  0  0
  6 11  1  0  0  0  0
  6 13  1  0  0  0  0
  6 16  1  0  0  0  0
  7 18  1  0  0  0  0
  7 23  1  0  0  0  0
  7 56  1  0  0  0  0
  8 27  1  0  0  0  0
  8 30  2  0  0  0  0
  9 11  1  0  0  0  0
  9 37  1  0  0  0  0
  9 38  1  0  0  0  0
 10 12  1  0  0  0  0
 10 39  1  0  0  0  0
 10 40  1  0  0  0  0
 11 41  1  0  0  0  0
 11 42  1  0  0  0  0
 12 13  1  0  0  0  0
 12 43  1  0  0  0  0
 12 44  1  0  0  0  0
 13 45  1  0  0  0  0
 13 46  1  0  0  0  0
 15 14  1  6  0  0  0
 14 47  1  0  0  0  0
 14 48  1  0  0  0  0
 15 17  1  0  0  0  0
 15 49  1  0  0  0  0
 16 18  1  0  0  0  0
 16 50  1  0  0  0  0
 16 51  1  0  0  0  0
 17 52  1  0  0  0  0
 17 53  1  0  0  0  0
 18 54  1  0  0  0  0
 18 55  1  0  0  0  0
 19 20  1  0  0  0  0
 19 21  2  0  0  0  0
 20 22  2  0  0  0  0
 21 24  1  0  0  0  0
 21 57  1  0  0  0  0
 22 25  1  0  0  0  0
 22 58  1  0  0  0  0
 23 26  1  0  0  0  0
 24 25  2  0  0  0  0
 24 59  1  0  0  0  0
 25 60  1  0  0  0  0
 26 27  2  0  0  0  0
 26 28  1  0  0  0  0
 28 29  2  0  0  0  0
 28 61  1  0  0  0  0
 29 30  1  0  0  0  0
 29 62  1  0  0  0  0
 30 63  1  0  0  0  0
 31 32  2  0  0  0  0
 31 33  1  0  0  0  0
 32 34  1  0  0  0  0
 32 64  1  0  0  0  0
 33 35  2  0  0  0  0
 33 65  1  0  0  0  0
 34 36  2  0  0  0  0
 34 66  1  0  0  0  0
 35 36  1  0  0  0  0
 35 67  1  0  0  0  0
 36 68  1  0  0  0  0
M  END
> <PUBCHEM_COMPOUND_CID>
25110718

> <PUBCHEM_COMPOUND_CANONICALIZED>
1

> <PUBCHEM_CACTVS_COMPLEXITY>
676

> <PUBCHEM_CACTVS_HBOND_ACCEPTOR>
7

> <PUBCHEM_CACTVS_HBOND_DONOR>
1

> <PUBCHEM_CACTVS_ROTATABLE_BOND>
8

> <PUBCHEM_CACTVS_SUBSKEYS>
AAADcfB7uAAAAAAAAAAAAAAAAAAAAAAAAAA8aIEABYAAAACR0AAAHgAQAAAADBThmgY8hpPIFACoAjF3VACCiCA1IiAI2KE+7NgPZv7E9ZufOerm9hHa6ceYUQAMAAAAAAAAQAAAAAAAAACAAAAAAAAAAA==

> <PUBCHEM_IUPAC_OPENEYE_NAME>
N-[2-[4-[[(3S)-2,3-dihydro-1,4-benzodioxin-3-yl]methyl]-1,4-diazepan-1-yl]ethyl]-2-phenoxy-pyridine-3-carboxamide

> <PUBCHEM_IUPAC_CAS_NAME>
N-[2-[4-[[(3S)-2,3-dihydro-1,4-benzodioxin-3-yl]methyl]-1,4-diazepan-1-yl]ethyl]-2-phenoxy-3-pyridinecarboxamide

> <PUBCHEM_IUPAC_NAME_MARKUP>
<I>N</I>-[2-[4-[[(3<I>S</I>)-2,3-dihydro-1,4-benzodioxin-3-yl]methyl]-1,4-diazepan-1-yl]ethyl]-2-phenoxypyridine-3-carboxamide

> <PUBCHEM_IUPAC_NAME>
N-[2-[4-[[(3S)-2,3-dihydro-1,4-benzodioxin-3-yl]methyl]-1,4-diazepan-1-yl]ethyl]-2-phenoxypyridine-3-carboxamide

> <PUBCHEM_IUPAC_SYSTEMATIC_NAME>
N-[2-[4-[[(3S)-2,3-dihydro-1,4-benzodioxin-3-yl]methyl]-1,4-diazepan-1-yl]ethyl]-2-phenoxy-pyridine-3-carboxamide

> <PUBCHEM_IUPAC_TRADITIONAL_NAME>
N-[2-[4-[[(3S)-2,3-dihydro-1,4-benzodioxin-3-yl]methyl]-1,4-diazepan-1-yl]ethyl]-2-phenoxy-nicotinamide

> <PUBCHEM_IUPAC_INCHI>
InChI=1S/C28H32N4O4/c33-27(24-10-6-13-30-28(24)36-22-8-2-1-3-9-22)29-14-17-31-15-7-16-32(19-18-31)20-23-21-34-25-11-4-5-12-26(25)35-23/h1-6,8-13,23H,7,14-21H2,(H,29,33)/t23-/m0/s1

> <PUBCHEM_IUPAC_INCHIKEY>
RNPCOHCWKNMBRI-QHCPKHFHSA-N

> <PUBCHEM_XLOGP3_AA>
3.7

> <PUBCHEM_EXACT_MASS>
488.24235551

> <PUBCHEM_MOLECULAR_FORMULA>
C28H32N4O4

> <PUBCHEM_MOLECULAR_WEIGHT>
488.6

> <PUBCHEM_OPENEYE_CAN_SMILES>
C1CN(CCN(C1)CC2COC3=CC=CC=C3O2)CCNC(=O)C4=C(N=CC=C4)OC5=CC=CC=C5

> <PUBCHEM_OPENEYE_ISO_SMILES>
C1CN(CCN(C1)C[C@H]2COC3=CC=CC=C3O2)CCNC(=O)C4=C(N=CC=C4)OC5=CC=CC=C5

> <PUBCHEM_CACTVS_TPSA>
76.2

> <PUBCHEM_MONOISOTOPIC_WEIGHT>
488.24235551

> <PUBCHEM_TOTAL_CHARGE>
0

> <PUBCHEM_HEAVY_ATOM_COUNT>
36

> <PUBCHEM_ATOM_DEF_STEREO_COUNT>
1

> <PUBCHEM_ATOM_UDEF_STEREO_COUNT>
0

> <PUBCHEM_BOND_DEF_STEREO_COUNT>
0

> <PUBCHEM_BOND_UDEF_STEREO_COUNT>
0

> <PUBCHEM_ISOTOPIC_ATOM_COUNT>
0

> <PUBCHEM_COMPONENT_COUNT>
1

> <PUBCHEM_CACTVS_TAUTO_COUNT>
-1

> <PUBCHEM_COORDINATE_TYPE>
1
5
255

> <PUBCHEM_BONDANNOTATIONS>
15  14  6
19  20  8
19  21  8
20  22  8
21  24  8
22  25  8
24  25  8
26  27  8
26  28  8
28  29  8
29  30  8
31  32  8
31  33  8
32  34  8
33  35  8
34  36  8
35  36  8
8  27  8
8  30  8

$$$$
