19370371
  -OEChem-09292322252D

 63 68  0     1  0  0  0  0  0999 V2000
    5.7393   -4.5780    0.0000 O   0  0  0  0  0  0  0  0  0  0  0  0
    3.7729   -1.6699    0.0000 O   0  0  0  0  0  0  0  0  0  0  0  0
    9.0264    1.8831    0.0000 N   0  0  3  0  0  0  0  0  0  0  0  0
    7.3257    0.7043    0.0000 N   0  0  3  0  0  0  0  0  0  0  0  0
    4.9822   -2.9711    0.0000 N   0  0  0  0  0  0  0  0  0  0  0  0
    8.1254    2.3170    0.0000 C   0  0  3  0  0  0  0  0  0  0  0  0
    7.2558    1.7436    0.0000 C   0  0  0  0  0  0  0  0  0  0  0  0
    9.1202    0.8457    0.0000 C   0  0  0  0  0  0  0  0  0  0  0  0
    8.2641    0.2524    0.0000 C   0  0  0  0  0  0  0  0  0  0  0  0
    7.9029    3.2920    0.0000 C   0  0  0  0  0  0  0  0  0  0  0  0
    6.4973    0.1442    0.0000 C   0  0  0  0  0  0  0  0  0  0  0  0
    9.9274    2.3170    0.0000 C   0  0  0  0  0  0  0  0  0  0  0  0
    8.5264    4.0738    0.0000 C   0  0  0  0  0  0  0  0  0  0  0  0
   10.1499    3.2920    0.0000 C   0  0  0  0  0  0  0  0  0  0  0  0
    9.5264    4.0738    0.0000 C   0  0  0  0  0  0  0  0  0  0  0  0
    6.5681   -0.8533    0.0000 C   0  0  0  0  0  0  0  0  0  0  0  0
    6.8706    3.4313    0.0000 C   0  0  0  0  0  0  0  0  0  0  0  0
    5.7397   -1.4134    0.0000 C   0  0  0  0  0  0  0  0  0  0  0  0
   10.6799    1.5969    0.0000 C   0  0  0  0  0  0  0  0  0  0  0  0
    8.1608    5.0492    0.0000 C   0  0  0  0  0  0  0  0  0  0  0  0
   11.1404    3.6143    0.0000 C   0  0  0  0  0  0  0  0  0  0  0  0
    5.8106   -2.4109    0.0000 C   0  0  0  0  0  0  0  0  0  0  0  0
    6.4826    4.3980    0.0000 C   0  0  0  0  0  0  0  0  0  0  0  0
    7.1320    5.2123    0.0000 C   0  0  0  0  0  0  0  0  0  0  0  0
   11.6776    1.8962    0.0000 C   0  0  0  0  0  0  0  0  0  0  0  0
   11.9094    2.9117    0.0000 C   0  0  0  0  0  0  0  0  0  0  0  0
    4.9495   -3.9646    0.0000 C   0  0  0  0  0  0  0  0  0  0  0  0
    4.0480   -2.6313    0.0000 C   0  0  0  0  0  0  0  0  0  0  0  0
    3.9950   -4.2422    0.0000 C   0  0  0  0  0  0  0  0  0  0  0  0
    3.4348   -3.4138    0.0000 C   0  0  0  0  0  0  0  0  0  0  0  0
    3.5576   -5.1415    0.0000 C   0  0  0  0  0  0  0  0  0  0  0  0
    2.4374   -3.4846    0.0000 C   0  0  0  0  0  0  0  0  0  0  0  0
    2.5601   -5.2123    0.0000 C   0  0  0  0  0  0  0  0  0  0  0  0
    2.0000   -4.3839    0.0000 C   0  0  0  0  0  0  0  0  0  0  0  0
    7.5500    2.5480    0.0000 H   0  0  0  0  0  0  0  0  0  0  0  0
    7.0081    2.3120    0.0000 H   0  0  0  0  0  0  0  0  0  0  0  0
    6.6535    1.5968    0.0000 H   0  0  0  0  0  0  0  0  0  0  0  0
    9.3810    0.2833    0.0000 H   0  0  0  0  0  0  0  0  0  0  0  0
    9.7190    1.0064    0.0000 H   0  0  0  0  0  0  0  0  0  0  0  0
    7.9035   -0.2520    0.0000 H   0  0  0  0  0  0  0  0  0  0  0  0
    8.6993   -0.1893    0.0000 H   0  0  0  0  0  0  0  0  0  0  0  0
    6.2444    0.7103    0.0000 H   0  0  0  0  0  0  0  0  0  0  0  0
    5.8958   -0.0065    0.0000 H   0  0  0  0  0  0  0  0  0  0  0  0
   10.0850    4.3428    0.0000 H   0  0  0  0  0  0  0  0  0  0  0  0
    9.3884    4.6782    0.0000 H   0  0  0  0  0  0  0  0  0  0  0  0
    6.8210   -1.4194    0.0000 H   0  0  0  0  0  0  0  0  0  0  0  0
    7.1696   -0.7026    0.0000 H   0  0  0  0  0  0  0  0  0  0  0  0
    6.4897    2.9421    0.0000 H   0  0  0  0  0  0  0  0  0  0  0  0
    5.4869   -0.8473    0.0000 H   0  0  0  0  0  0  0  0  0  0  0  0
    5.1383   -1.5641    0.0000 H   0  0  0  0  0  0  0  0  0  0  0  0
   10.5350    0.9940    0.0000 H   0  0  0  0  0  0  0  0  0  0  0  0
    8.5530    5.5294    0.0000 H   0  0  0  0  0  0  0  0  0  0  0  0
   11.2713    4.2203    0.0000 H   0  0  0  0  0  0  0  0  0  0  0  0
    6.0634   -2.9770    0.0000 H   0  0  0  0  0  0  0  0  0  0  0  0
    6.4120   -2.2603    0.0000 H   0  0  0  0  0  0  0  0  0  0  0  0
    5.8692    4.4880    0.0000 H   0  0  0  0  0  0  0  0  0  0  0  0
    6.9078    5.7904    0.0000 H   0  0  0  0  0  0  0  0  0  0  0  0
   12.1305    1.4727    0.0000 H   0  0  0  0  0  0  0  0  0  0  0  0
   12.5011    3.0967    0.0000 H   0  0  0  0  0  0  0  0  0  0  0  0
    3.9049   -5.6551    0.0000 H   0  0  0  0  0  0  0  0  0  0  0  0
    2.0901   -2.9710    0.0000 H   0  0  0  0  0  0  0  0  0  0  0  0
    2.2890   -5.7699    0.0000 H   0  0  0  0  0  0  0  0  0  0  0  0
    1.3816   -4.4279    0.0000 H   0  0  0  0  0  0  0  0  0  0  0  0
  1 27  2  0  0  0  0
  2 28  2  0  0  0  0
  3  6  1  0  0  0  0
  3  8  1  0  0  0  0
  3 12  1  0  0  0  0
  4  7  1  0  0  0  0
  4  9  1  0  0  0  0
  4 11  1  0  0  0  0
  5 22  1  0  0  0  0
  5 27  1  0  0  0  0
  5 28  1  0  0  0  0
  6  7  1  0  0  0  0
  6 10  1  0  0  0  0
  6 35  1  0  0  0  0
  7 36  1  0  0  0  0
  7 37  1  0  0  0  0
  8  9  1  0  0  0  0
  8 38  1  0  0  0  0
  8 39  1  0  0  0  0
  9 40  1  0  0  0  0
  9 41  1  0  0  0  0
 10 13  1  0  0  0  0
 10 17  2  0  0  0  0
 11 16  1  0  0  0  0
 11 42  1  0  0  0  0
 11 43  1  0  0  0  0
 12 14  1  0  0  0  0
 12 19  2  0  0  0  0
 13 15  1  0  0  0  0
 13 20  2  0  0  0  0
 14 15  1  0  0  0  0
 14 21  2  0  0  0  0
 15 44  1  0  0  0  0
 15 45  1  0  0  0  0
 16 18  1  0  0  0  0
 16 46  1  0  0  0  0
 16 47  1  0  0  0  0
 17 23  1  0  0  0  0
 17 48  1  0  0  0  0
 18 22  1  0  0  0  0
 18 49  1  0  0  0  0
 18 50  1  0  0  0  0
 19 25  1  0  0  0  0
 19 51  1  0  0  0  0
 20 24  1  0  0  0  0
 20 52  1  0  0  0  0
 21 26  1  0  0  0  0
 21 53  1  0  0  0  0
 22 54  1  0  0  0  0
 22 55  1  0  0  0  0
 23 24  2  0  0  0  0
 23 56  1  0  0  0  0
 24 57  1  0  0  0  0
 25 26  2  0  0  0  0
 25 58  1  0  0  0  0
 26 59  1  0  0  0  0
 27 29  1  0  0  0  0
 28 30  1  0  0  0  0
 29 30  1  0  0  0  0
 29 31  2  0  0  0  0
 30 32  2  0  0  0  0
 31 33  1  0  0  0  0
 31 60  1  0  0  0  0
 32 34  1  0  0  0  0
 32 61  1  0  0  0  0
 33 34  2  0  0  0  0
 33 62  1  0  0  0  0
 34 63  1  0  0  0  0
M  END
> <PUBCHEM_COMPOUND_CID>
19370371

> <PUBCHEM_COMPOUND_CANONICALIZED>
1

> <PUBCHEM_CACTVS_COMPLEXITY>
732

> <PUBCHEM_CACTVS_HBOND_ACCEPTOR>
4

> <PUBCHEM_CACTVS_HBOND_DONOR>
0

> <PUBCHEM_CACTVS_ROTATABLE_BOND>
5

> <PUBCHEM_CACTVS_SUBSKEYS>
AAADceB7MAAAAAAAAAAAAAAAAAAAAWAAAAA8YMEABYAAAFgBUAAAHgAAAAAADCjBmAQwwIMAAACIAiVSUACCAAAlAgAIiAEIZMgIYDLAlZGUIQhghiDIyYcdiMCOgAAAAAASAAAAAAAAACQAAAAAAAAAAA==

> <PUBCHEM_IUPAC_OPENEYE_NAME>
2-[4-(2,5-diazatetracyclo[13.4.0.02,7.08,13]nonadeca-1(19),8,10,12,15,17-hexaen-5-yl)butyl]isoindoline-1,3-dione

> <PUBCHEM_IUPAC_CAS_NAME>
2-[4-(2,5-diazatetracyclo[13.4.0.02,7.08,13]nonadeca-1(19),8,10,12,15,17-hexaen-5-yl)butyl]isoindole-1,3-dione

> <PUBCHEM_IUPAC_NAME_MARKUP>
2-[4-(2,5-diazatetracyclo[13.4.0.0<SUP>2,7</SUP>.0<SUP>8,13</SUP>]nonadeca-1(19),8,10,12,15,17-hexaen-5-yl)butyl]isoindole-1,3-dione

> <PUBCHEM_IUPAC_NAME>
2-[4-(2,5-diazatetracyclo[13.4.0.02,7.08,13]nonadeca-1(19),8,10,12,15,17-hexaen-5-yl)butyl]isoindole-1,3-dione

> <PUBCHEM_IUPAC_SYSTEMATIC_NAME>
2-[4-(2,5-diazatetracyclo[13.4.0.02,7.08,13]nonadeca-1(19),8,10,12,15,17-hexaen-5-yl)butyl]isoindole-1,3-dione

> <PUBCHEM_IUPAC_TRADITIONAL_NAME>
2-[4-(2,5-diazatetracyclo[13.4.0.02,7.08,13]nonadeca-1(19),8,10,12,15,17-hexaen-5-yl)butyl]isoindoline-1,3-quinone

> <PUBCHEM_IUPAC_INCHI>
InChI=1S/C29H29N3O2/c33-28-24-12-4-5-13-25(24)29(34)32(28)16-8-7-15-30-17-18-31-26-14-6-2-10-22(26)19-21-9-1-3-11-23(21)27(31)20-30/h1-6,9-14,27H,7-8,15-20H2

> <PUBCHEM_IUPAC_INCHIKEY>
WAPXCWVANCEDGJ-UHFFFAOYSA-N

> <PUBCHEM_XLOGP3_AA>
4.8

> <PUBCHEM_EXACT_MASS>
451.22597718

> <PUBCHEM_MOLECULAR_FORMULA>
C29H29N3O2

> <PUBCHEM_MOLECULAR_WEIGHT>
451.6

> <PUBCHEM_OPENEYE_CAN_SMILES>
C1CN2C(CN1CCCCN3C(=O)C4=CC=CC=C4C3=O)C5=CC=CC=C5CC6=CC=CC=C62

> <PUBCHEM_OPENEYE_ISO_SMILES>
C1CN2C(CN1CCCCN3C(=O)C4=CC=CC=C4C3=O)C5=CC=CC=C5CC6=CC=CC=C62

> <PUBCHEM_CACTVS_TPSA>
43.9

> <PUBCHEM_MONOISOTOPIC_WEIGHT>
451.22597718

> <PUBCHEM_TOTAL_CHARGE>
0

> <PUBCHEM_HEAVY_ATOM_COUNT>
34

> <PUBCHEM_ATOM_DEF_STEREO_COUNT>
0

> <PUBCHEM_ATOM_UDEF_STEREO_COUNT>
1

> <PUBCHEM_BOND_DEF_STEREO_COUNT>
0

> <PUBCHEM_BOND_UDEF_STEREO_COUNT>
0

> <PUBCHEM_ISOTOPIC_ATOM_COUNT>
0

> <PUBCHEM_COMPONENT_COUNT>
1

> <PUBCHEM_CACTVS_TAUTO_COUNT>
-1

> <PUBCHEM_COORDINATE_TYPE>
1
5
255

> <PUBCHEM_BONDANNOTATIONS>
10  13  8
10  17  8
12  14  8
12  19  8
13  20  8
14  21  8
17  23  8
19  25  8
20  24  8
21  26  8
23  24  8
25  26  8
29  30  8
29  31  8
30  32  8
31  33  8
32  34  8
33  34  8
6  7  3

$$$$
