71458652
  -OEChem-09292322332D

 50 52  0     1  0  0  0  0  0999 V2000
    3.0000   -0.8783    0.0000 S   0  0  0  0  0  0  0  0  0  0  0  0
    7.9323    2.1377    0.0000 S   0  0  0  0  0  0  0  0  0  0  0  0
    3.0000   -4.8783    0.0000 F   0  0  0  0  0  0  0  0  0  0  0  0
    6.7567    3.7557    0.0000 O   0  0  0  0  0  0  0  0  0  0  0  0
    4.0000   -0.8783    0.0000 O   0  0  0  0  0  0  0  0  0  0  0  0
    2.0000   -0.8783    0.0000 O   0  0  0  0  0  0  0  0  0  0  0  0
    4.9487    1.8241    0.0000 N   0  0  3  0  0  0  0  0  0  0  0  0
    3.0000    0.1217    0.0000 N   0  0  0  0  0  0  0  0  0  0  0  0
    3.8660    0.6217    0.0000 C   0  0  3  0  0  0  0  0  0  0  0  0
    4.7796    0.2149    0.0000 C   0  0  0  0  0  0  0  0  0  0  0  0
    3.9706    1.6162    0.0000 C   0  0  0  0  0  0  0  0  0  0  0  0
    5.4487    0.9581    0.0000 C   0  0  0  0  0  0  0  0  0  0  0  0
    5.3554    2.7376    0.0000 C   0  0  0  0  0  0  0  0  0  0  0  0
    6.3500    2.8422    0.0000 C   0  0  0  0  0  0  0  0  0  0  0  0
    3.0000   -1.8783    0.0000 C   0  0  0  0  0  0  0  0  0  0  0  0
    2.1340   -2.3783    0.0000 C   0  0  0  0  0  0  0  0  0  0  0  0
    3.8660   -2.3783    0.0000 C   0  0  0  0  0  0  0  0  0  0  0  0
    7.7512    3.8602    0.0000 C   0  0  0  0  0  0  0  0  0  0  0  0
    2.1340   -3.3783    0.0000 C   0  0  0  0  0  0  0  0  0  0  0  0
    3.8660   -3.3783    0.0000 C   0  0  0  0  0  0  0  0  0  0  0  0
    3.0000   -3.8783    0.0000 C   0  0  0  0  0  0  0  0  0  0  0  0
    8.3390    3.0512    0.0000 C   0  0  0  0  0  0  0  0  0  0  0  0
    8.1580    4.7738    0.0000 C   0  0  0  0  0  0  0  0  0  0  0  0
    9.3335    3.1558    0.0000 C   0  0  0  0  0  0  0  0  0  0  0  0
    9.1525    4.8783    0.0000 C   0  0  0  0  0  0  0  0  0  0  0  0
    9.7403    4.0693    0.0000 C   0  0  0  0  0  0  0  0  0  0  0  0
    8.5200    1.3287    0.0000 C   0  0  0  0  0  0  0  0  0  0  0  0
    3.8985    0.0025    0.0000 H   0  0  0  0  0  0  0  0  0  0  0  0
    4.4696   -0.3220    0.0000 H   0  0  0  0  0  0  0  0  0  0  0  0
    5.2812   -0.1495    0.0000 H   0  0  0  0  0  0  0  0  0  0  0  0
    3.9058    2.2328    0.0000 H   0  0  0  0  0  0  0  0  0  0  0  0
    3.3506    1.6162    0.0000 H   0  0  0  0  0  0  0  0  0  0  0  0
    5.8636    0.4973    0.0000 H   0  0  0  0  0  0  0  0  0  0  0  0
    5.9503    1.3225    0.0000 H   0  0  0  0  0  0  0  0  0  0  0  0
    5.3987    3.3561    0.0000 H   0  0  0  0  0  0  0  0  0  0  0  0
    4.7538    2.8876    0.0000 H   0  0  0  0  0  0  0  0  0  0  0  0
    2.4631    0.4317    0.0000 H   0  0  0  0  0  0  0  0  0  0  0  0
    6.3067    2.2237    0.0000 H   0  0  0  0  0  0  0  0  0  0  0  0
    6.9515    2.6922    0.0000 H   0  0  0  0  0  0  0  0  0  0  0  0
    1.5970   -2.0683    0.0000 H   0  0  0  0  0  0  0  0  0  0  0  0
    4.4030   -2.0683    0.0000 H   0  0  0  0  0  0  0  0  0  0  0  0
    1.5970   -3.6883    0.0000 H   0  0  0  0  0  0  0  0  0  0  0  0
    4.4030   -3.6883    0.0000 H   0  0  0  0  0  0  0  0  0  0  0  0
    7.7935    5.2754    0.0000 H   0  0  0  0  0  0  0  0  0  0  0  0
    9.6980    2.6542    0.0000 H   0  0  0  0  0  0  0  0  0  0  0  0
    9.4046    5.4447    0.0000 H   0  0  0  0  0  0  0  0  0  0  0  0
   10.3569    4.1341    0.0000 H   0  0  0  0  0  0  0  0  0  0  0  0
    8.0185    0.9642    0.0000 H   0  0  0  0  0  0  0  0  0  0  0  0
    8.8845    0.8271    0.0000 H   0  0  0  0  0  0  0  0  0  0  0  0
    9.0216    1.6931    0.0000 H   0  0  0  0  0  0  0  0  0  0  0  0
  1  5  2  0  0  0  0
  1  6  2  0  0  0  0
  1  8  1  0  0  0  0
  1 15  1  0  0  0  0
  2 22  1  0  0  0  0
  2 27  1  0  0  0  0
  3 21  1  0  0  0  0
  4 14  1  0  0  0  0
  4 18  1  0  0  0  0
  7 11  1  0  0  0  0
  7 12  1  0  0  0  0
  7 13  1  0  0  0  0
  8  9  1  0  0  0  0
  8 37  1  0  0  0  0
  9 10  1  0  0  0  0
  9 11  1  0  0  0  0
  9 28  1  0  0  0  0
 10 12  1  0  0  0  0
 10 29  1  0  0  0  0
 10 30  1  0  0  0  0
 11 31  1  0  0  0  0
 11 32  1  0  0  0  0
 12 33  1  0  0  0  0
 12 34  1  0  0  0  0
 13 14  1  0  0  0  0
 13 35  1  0  0  0  0
 13 36  1  0  0  0  0
 14 38  1  0  0  0  0
 14 39  1  0  0  0  0
 15 16  2  0  0  0  0
 15 17  1  0  0  0  0
 16 19  1  0  0  0  0
 16 40  1  0  0  0  0
 17 20  2  0  0  0  0
 17 41  1  0  0  0  0
 18 22  1  0  0  0  0
 18 23  2  0  0  0  0
 19 21  2  0  0  0  0
 19 42  1  0  0  0  0
 20 21  1  0  0  0  0
 20 43  1  0  0  0  0
 22 24  2  0  0  0  0
 23 25  1  0  0  0  0
 23 44  1  0  0  0  0
 24 26  1  0  0  0  0
 24 45  1  0  0  0  0
 25 26  2  0  0  0  0
 25 46  1  0  0  0  0
 26 47  1  0  0  0  0
 27 48  1  0  0  0  0
 27 49  1  0  0  0  0
 27 50  1  0  0  0  0
M  END
> <PUBCHEM_COMPOUND_CID>
71458652

> <PUBCHEM_COMPOUND_CANONICALIZED>
1

> <PUBCHEM_CACTVS_COMPLEXITY>
550

> <PUBCHEM_CACTVS_HBOND_ACCEPTOR>
7

> <PUBCHEM_CACTVS_HBOND_DONOR>
1

> <PUBCHEM_CACTVS_ROTATABLE_BOND>
8

> <PUBCHEM_CACTVS_SUBSKEYS>
AAADceB7MQBgAAAAAAAAAAAAAAAAAWAAAAAwYAAAAAAAAAABQAAAHwQQQAAACCzh0A6yB4NABAqAACBCAHBCCBAgKBAIiJoOCIgOZiKk8RqXOCCk0BGYqAeAQAAAAAAAAAAAIAAAAAAAAABAAAAAAAAAAA==

> <PUBCHEM_IUPAC_OPENEYE_NAME>
4-fluoro-N-[1-[2-(2-methylsulfanylphenoxy)ethyl]pyrrolidin-3-yl]benzenesulfonamide

> <PUBCHEM_IUPAC_CAS_NAME>
4-fluoro-N-[1-[2-[2-(methylthio)phenoxy]ethyl]-3-pyrrolidinyl]benzenesulfonamide

> <PUBCHEM_IUPAC_NAME_MARKUP>
4-fluoro-<I>N</I>-[1-[2-(2-methylsulfanylphenoxy)ethyl]pyrrolidin-3-yl]benzenesulfonamide

> <PUBCHEM_IUPAC_NAME>
4-fluoro-N-[1-[2-(2-methylsulfanylphenoxy)ethyl]pyrrolidin-3-yl]benzenesulfonamide

> <PUBCHEM_IUPAC_SYSTEMATIC_NAME>
4-fluoranyl-N-[1-[2-(2-methylsulfanylphenoxy)ethyl]pyrrolidin-3-yl]benzenesulfonamide

> <PUBCHEM_IUPAC_TRADITIONAL_NAME>
4-fluoro-N-[1-[2-[2-(methylthio)phenoxy]ethyl]pyrrolidin-3-yl]benzenesulfonamide

> <PUBCHEM_IUPAC_INCHI>
InChI=1S/C19H23FN2O3S2/c1-26-19-5-3-2-4-18(19)25-13-12-22-11-10-16(14-22)21-27(23,24)17-8-6-15(20)7-9-17/h2-9,16,21H,10-14H2,1H3

> <PUBCHEM_IUPAC_INCHIKEY>
YCFSCWCCZHATDT-UHFFFAOYSA-N

> <PUBCHEM_XLOGP3_AA>
3.4

> <PUBCHEM_EXACT_MASS>
410.11341311

> <PUBCHEM_MOLECULAR_FORMULA>
C19H23FN2O3S2

> <PUBCHEM_MOLECULAR_WEIGHT>
410.5

> <PUBCHEM_OPENEYE_CAN_SMILES>
CSC1=CC=CC=C1OCCN2CCC(C2)NS(=O)(=O)C3=CC=C(C=C3)F

> <PUBCHEM_OPENEYE_ISO_SMILES>
CSC1=CC=CC=C1OCCN2CCC(C2)NS(=O)(=O)C3=CC=C(C=C3)F

> <PUBCHEM_CACTVS_TPSA>
92.3

> <PUBCHEM_MONOISOTOPIC_WEIGHT>
410.11341311

> <PUBCHEM_TOTAL_CHARGE>
0

> <PUBCHEM_HEAVY_ATOM_COUNT>
27

> <PUBCHEM_ATOM_DEF_STEREO_COUNT>
0

> <PUBCHEM_ATOM_UDEF_STEREO_COUNT>
1

> <PUBCHEM_BOND_DEF_STEREO_COUNT>
0

> <PUBCHEM_BOND_UDEF_STEREO_COUNT>
0

> <PUBCHEM_ISOTOPIC_ATOM_COUNT>
0

> <PUBCHEM_COMPONENT_COUNT>
1

> <PUBCHEM_CACTVS_TAUTO_COUNT>
-1

> <PUBCHEM_COORDINATE_TYPE>
1
5
255

> <PUBCHEM_BONDANNOTATIONS>
15  16  8
15  17  8
16  19  8
17  20  8
18  22  8
18  23  8
19  21  8
20  21  8
22  24  8
23  25  8
24  26  8
25  26  8
9  8  3

$$$$
