168291659
  -OEChem-09292322442D

 54 56  0     0  0  0  0  0  0999 V2000
    6.3301    2.4050    0.0000 N   0  0  0  0  0  0  0  0  0  0  0  0
    4.5981    3.4050    0.0000 N   0  0  0  0  0  0  0  0  0  0  0  0
    8.9282   -2.0950    0.0000 N   0  0  0  0  0  0  0  0  0  0  0  0
    9.7942   -3.5950    0.0000 N   0  0  0  0  0  0  0  0  0  0  0  0
   10.6603   -2.0950    0.0000 N   0  0  0  0  0  0  0  0  0  0  0  0
   11.5263   -3.5950    0.0000 N   0  0  0  0  0  0  0  0  0  0  0  0
   10.6603   -5.0950    0.0000 N   0  0  0  0  0  0  0  0  0  0  0  0
   12.3923   -2.0950    0.0000 N   0  0  0  0  0  0  0  0  0  0  0  0
    6.3301    3.4050    0.0000 C   0  0  0  0  0  0  0  0  0  0  0  0
    5.4641    1.9050    0.0000 C   0  0  0  0  0  0  0  0  0  0  0  0
    5.4641    3.9050    0.0000 C   0  0  0  0  0  0  0  0  0  0  0  0
    4.5981    2.4050    0.0000 C   0  0  0  0  0  0  0  0  0  0  0  0
    7.1962    1.9050    0.0000 C   0  0  0  0  0  0  0  0  0  0  0  0
    7.1962    0.9050    0.0000 C   0  0  0  0  0  0  0  0  0  0  0  0
    8.0622    0.4050    0.0000 C   0  0  0  0  0  0  0  0  0  0  0  0
    3.7320    3.9050    0.0000 C   0  0  0  0  0  0  0  0  0  0  0  0
    8.0622   -0.5950    0.0000 C   0  0  0  0  0  0  0  0  0  0  0  0
    8.9282   -1.0950    0.0000 C   0  0  0  0  0  0  0  0  0  0  0  0
    3.7320    4.9050    0.0000 C   0  0  0  0  0  0  0  0  0  0  0  0
    2.8660    3.4050    0.0000 C   0  0  0  0  0  0  0  0  0  0  0  0
    2.8660    5.4050    0.0000 C   0  0  0  0  0  0  0  0  0  0  0  0
    2.0000    3.9050    0.0000 C   0  0  0  0  0  0  0  0  0  0  0  0
    2.0000    4.9050    0.0000 C   0  0  0  0  0  0  0  0  0  0  0  0
    9.7942   -2.5950    0.0000 C   0  0  0  0  0  0  0  0  0  0  0  0
   10.6603   -4.0950    0.0000 C   0  0  0  0  0  0  0  0  0  0  0  0
   11.5263   -2.5950    0.0000 C   0  0  0  0  0  0  0  0  0  0  0  0
    6.9407    3.2973    0.0000 H   0  0  0  0  0  0  0  0  0  0  0  0
    6.5422    3.9876    0.0000 H   0  0  0  0  0  0  0  0  0  0  0  0
    5.0656    1.4300    0.0000 H   0  0  0  0  0  0  0  0  0  0  0  0
    5.8626    1.4300    0.0000 H   0  0  0  0  0  0  0  0  0  0  0  0
    5.8626    4.3800    0.0000 H   0  0  0  0  0  0  0  0  0  0  0  0
    5.0656    4.3800    0.0000 H   0  0  0  0  0  0  0  0  0  0  0  0
    3.9875    2.5127    0.0000 H   0  0  0  0  0  0  0  0  0  0  0  0
    4.3860    1.8224    0.0000 H   0  0  0  0  0  0  0  0  0  0  0  0
    7.8067    1.7973    0.0000 H   0  0  0  0  0  0  0  0  0  0  0  0
    7.4082    2.4876    0.0000 H   0  0  0  0  0  0  0  0  0  0  0  0
    6.5856    1.0127    0.0000 H   0  0  0  0  0  0  0  0  0  0  0  0
    6.9841    0.3224    0.0000 H   0  0  0  0  0  0  0  0  0  0  0  0
    8.6728    0.2973    0.0000 H   0  0  0  0  0  0  0  0  0  0  0  0
    8.2742    0.9876    0.0000 H   0  0  0  0  0  0  0  0  0  0  0  0
    7.4516   -0.4873    0.0000 H   0  0  0  0  0  0  0  0  0  0  0  0
    7.8501   -1.1776    0.0000 H   0  0  0  0  0  0  0  0  0  0  0  0
    9.5388   -1.2027    0.0000 H   0  0  0  0  0  0  0  0  0  0  0  0
    9.1403   -0.5124    0.0000 H   0  0  0  0  0  0  0  0  0  0  0  0
    4.2690    5.2150    0.0000 H   0  0  0  0  0  0  0  0  0  0  0  0
    2.8660    2.7850    0.0000 H   0  0  0  0  0  0  0  0  0  0  0  0
    2.8660    6.0250    0.0000 H   0  0  0  0  0  0  0  0  0  0  0  0
    1.4631    3.5950    0.0000 H   0  0  0  0  0  0  0  0  0  0  0  0
    8.3913   -2.4050    0.0000 H   0  0  0  0  0  0  0  0  0  0  0  0
    1.4631    5.2150    0.0000 H   0  0  0  0  0  0  0  0  0  0  0  0
   11.1972   -5.4050    0.0000 H   0  0  0  0  0  0  0  0  0  0  0  0
   10.1233   -5.4050    0.0000 H   0  0  0  0  0  0  0  0  0  0  0  0
   12.9292   -2.4050    0.0000 H   0  0  0  0  0  0  0  0  0  0  0  0
   12.3923   -1.4750    0.0000 H   0  0  0  0  0  0  0  0  0  0  0  0
  1  9  1  0  0  0  0
  1 10  1  0  0  0  0
  1 13  1  0  0  0  0
  2 11  1  0  0  0  0
  2 12  1  0  0  0  0
  2 16  1  0  0  0  0
  3 18  1  0  0  0  0
  3 24  1  0  0  0  0
  3 49  1  0  0  0  0
  4 24  2  0  0  0  0
  4 25  1  0  0  0  0
  5 24  1  0  0  0  0
  5 26  2  0  0  0  0
  6 25  2  0  0  0  0
  6 26  1  0  0  0  0
  7 25  1  0  0  0  0
  7 51  1  0  0  0  0
  7 52  1  0  0  0  0
  8 26  1  0  0  0  0
  8 53  1  0  0  0  0
  8 54  1  0  0  0  0
  9 11  1  0  0  0  0
  9 27  1  0  0  0  0
  9 28  1  0  0  0  0
 10 12  1  0  0  0  0
 10 29  1  0  0  0  0
 10 30  1  0  0  0  0
 11 31  1  0  0  0  0
 11 32  1  0  0  0  0
 12 33  1  0  0  0  0
 12 34  1  0  0  0  0
 13 14  1  0  0  0  0
 13 35  1  0  0  0  0
 13 36  1  0  0  0  0
 14 15  1  0  0  0  0
 14 37  1  0  0  0  0
 14 38  1  0  0  0  0
 15 17  1  0  0  0  0
 15 39  1  0  0  0  0
 15 40  1  0  0  0  0
 16 19  2  0  0  0  0
 16 20  1  0  0  0  0
 17 18  1  0  0  0  0
 17 41  1  0  0  0  0
 17 42  1  0  0  0  0
 18 43  1  0  0  0  0
 18 44  1  0  0  0  0
 19 21  1  0  0  0  0
 19 45  1  0  0  0  0
 20 22  2  0  0  0  0
 20 46  1  0  0  0  0
 21 23  2  0  0  0  0
 21 47  1  0  0  0  0
 22 23  1  0  0  0  0
 22 48  1  0  0  0  0
 23 50  1  0  0  0  0
M  END
> <PUBCHEM_COMPOUND_CID>
168291659

> <PUBCHEM_COMPOUND_CANONICALIZED>
1

> <PUBCHEM_CACTVS_COMPLEXITY>
371

> <PUBCHEM_CACTVS_HBOND_ACCEPTOR>
8

> <PUBCHEM_CACTVS_HBOND_DONOR>
3

> <PUBCHEM_CACTVS_ROTATABLE_BOND>
8

> <PUBCHEM_CACTVS_SUBSKEYS>
AAADceB7wAAAAAAAAAAAAAAAAAAAAAAAAAA8WIAAAAAAAAABwAAAHAAQAAAACAjBEAQx0IfIEACgACRCZACCAAkhAoAJiIAIZIiIaCLAmZGUIAhokALIyAcQAAAAAAAAAAAAAAAAAAAAAAAAAAAAAAAAAA==

> <PUBCHEM_IUPAC_OPENEYE_NAME>
N2-[5-(4-phenylpiperazin-1-yl)pentyl]-1,3,5-triazine-2,4,6-triamine

> <PUBCHEM_IUPAC_CAS_NAME>
N2-[5-(4-phenyl-1-piperazinyl)pentyl]-1,3,5-triazine-2,4,6-triamine

> <PUBCHEM_IUPAC_NAME_MARKUP>
2-<I>N</I>-[5-(4-phenylpiperazin-1-yl)pentyl]-1,3,5-triazine-2,4,6-triamine

> <PUBCHEM_IUPAC_NAME>
2-N-[5-(4-phenylpiperazin-1-yl)pentyl]-1,3,5-triazine-2,4,6-triamine

> <PUBCHEM_IUPAC_SYSTEMATIC_NAME>
N2-[5-(4-phenylpiperazin-1-yl)pentyl]-1,3,5-triazine-2,4,6-triamine

> <PUBCHEM_IUPAC_TRADITIONAL_NAME>
(4,6-diamino-s-triazin-2-yl)-[5-(4-phenylpiperazino)pentyl]amine

> <PUBCHEM_IUPAC_INCHI>
InChI=1S/C18H28N8/c19-16-22-17(20)24-18(23-16)21-9-5-2-6-10-25-11-13-26(14-12-25)15-7-3-1-4-8-15/h1,3-4,7-8H,2,5-6,9-14H2,(H5,19,20,21,22,23,24)

> <PUBCHEM_IUPAC_INCHIKEY>
CEYHRGCVTQARPC-UHFFFAOYSA-N

> <PUBCHEM_XLOGP3_AA>
2.3

> <PUBCHEM_EXACT_MASS>
356.24369293

> <PUBCHEM_MOLECULAR_FORMULA>
C18H28N8

> <PUBCHEM_MOLECULAR_WEIGHT>
356.5

> <PUBCHEM_OPENEYE_CAN_SMILES>
C1CN(CCN1CCCCCNC2=NC(=NC(=N2)N)N)C3=CC=CC=C3

> <PUBCHEM_OPENEYE_ISO_SMILES>
C1CN(CCN1CCCCCNC2=NC(=NC(=N2)N)N)C3=CC=CC=C3

> <PUBCHEM_CACTVS_TPSA>
109

> <PUBCHEM_MONOISOTOPIC_WEIGHT>
356.24369293

> <PUBCHEM_TOTAL_CHARGE>
0

> <PUBCHEM_HEAVY_ATOM_COUNT>
26

> <PUBCHEM_ATOM_DEF_STEREO_COUNT>
0

> <PUBCHEM_ATOM_UDEF_STEREO_COUNT>
0

> <PUBCHEM_BOND_DEF_STEREO_COUNT>
0

> <PUBCHEM_BOND_UDEF_STEREO_COUNT>
0

> <PUBCHEM_ISOTOPIC_ATOM_COUNT>
0

> <PUBCHEM_COMPONENT_COUNT>
1

> <PUBCHEM_CACTVS_TAUTO_COUNT>
-1

> <PUBCHEM_COORDINATE_TYPE>
1
5
255

> <PUBCHEM_BONDANNOTATIONS>
16  19  8
16  20  8
19  21  8
20  22  8
21  23  8
22  23  8
4  24  8
4  25  8
5  24  8
5  26  8
6  25  8
6  26  8

$$$$
