155512841
  -OEChem-09292322402D

 45 46  0     0  0  0  0  0  0999 V2000
    2.0000   -2.5000    0.0000 F   0  0  0  0  0  0  0  0  0  0  0  0
    4.5981   -2.0000    0.0000 O   0  0  0  0  0  0  0  0  0  0  0  0
    6.3301    1.0000    0.0000 N   0  0  0  0  0  0  0  0  0  0  0  0
    6.3301   -1.0000    0.0000 N   0  0  0  0  0  0  0  0  0  0  0  0
    5.4641    0.5000    0.0000 C   0  0  0  0  0  0  0  0  0  0  0  0
    7.1962    0.5000    0.0000 C   0  0  0  0  0  0  0  0  0  0  0  0
    5.4641   -0.5000    0.0000 C   0  0  0  0  0  0  0  0  0  0  0  0
    7.1962   -0.5000    0.0000 C   0  0  0  0  0  0  0  0  0  0  0  0
    6.3301    2.0000    0.0000 C   0  0  0  0  0  0  0  0  0  0  0  0
    7.1962    2.5000    0.0000 C   0  0  0  0  0  0  0  0  0  0  0  0
    6.3301   -2.0000    0.0000 C   0  0  0  0  0  0  0  0  0  0  0  0
    7.1962    3.5000    0.0000 C   0  0  0  0  0  0  0  0  0  0  0  0
    5.4641   -2.5000    0.0000 C   0  0  0  0  0  0  0  0  0  0  0  0
    7.1962   -2.5000    0.0000 C   0  0  0  0  0  0  0  0  0  0  0  0
    8.0622    4.0000    0.0000 C   0  0  0  0  0  0  0  0  0  0  0  0
    5.4641   -3.5000    0.0000 C   0  0  0  0  0  0  0  0  0  0  0  0
    7.1962   -3.5000    0.0000 C   0  0  0  0  0  0  0  0  0  0  0  0
    6.3301   -4.0000    0.0000 C   0  0  0  0  0  0  0  0  0  0  0  0
    3.7320   -2.5000    0.0000 C   0  0  0  0  0  0  0  0  0  0  0  0
    2.8660   -2.0000    0.0000 C   0  0  0  0  0  0  0  0  0  0  0  0
    5.2520    1.0826    0.0000 H   0  0  0  0  0  0  0  0  0  0  0  0
    4.8535    0.3923    0.0000 H   0  0  0  0  0  0  0  0  0  0  0  0
    7.8067    0.3923    0.0000 H   0  0  0  0  0  0  0  0  0  0  0  0
    7.4082    1.0826    0.0000 H   0  0  0  0  0  0  0  0  0  0  0  0
    4.8535   -0.3923    0.0000 H   0  0  0  0  0  0  0  0  0  0  0  0
    5.2520   -1.0826    0.0000 H   0  0  0  0  0  0  0  0  0  0  0  0
    7.4082   -1.0826    0.0000 H   0  0  0  0  0  0  0  0  0  0  0  0
    7.8067   -0.3923    0.0000 H   0  0  0  0  0  0  0  0  0  0  0  0
    6.1181    2.5826    0.0000 H   0  0  0  0  0  0  0  0  0  0  0  0
    5.7196    1.8923    0.0000 H   0  0  0  0  0  0  0  0  0  0  0  0
    7.4082    1.9174    0.0000 H   0  0  0  0  0  0  0  0  0  0  0  0
    7.8067    2.6077    0.0000 H   0  0  0  0  0  0  0  0  0  0  0  0
    6.9841    4.0826    0.0000 H   0  0  0  0  0  0  0  0  0  0  0  0
    6.5856    3.3923    0.0000 H   0  0  0  0  0  0  0  0  0  0  0  0
    7.7331   -2.1900    0.0000 H   0  0  0  0  0  0  0  0  0  0  0  0
    8.3722    3.4631    0.0000 H   0  0  0  0  0  0  0  0  0  0  0  0
    8.5991    4.3100    0.0000 H   0  0  0  0  0  0  0  0  0  0  0  0
    7.7522    4.5369    0.0000 H   0  0  0  0  0  0  0  0  0  0  0  0
    4.9272   -3.8100    0.0000 H   0  0  0  0  0  0  0  0  0  0  0  0
    7.7331   -3.8100    0.0000 H   0  0  0  0  0  0  0  0  0  0  0  0
    6.3301   -4.6200    0.0000 H   0  0  0  0  0  0  0  0  0  0  0  0
    3.3335   -2.9750    0.0000 H   0  0  0  0  0  0  0  0  0  0  0  0
    4.1306   -2.9750    0.0000 H   0  0  0  0  0  0  0  0  0  0  0  0
    3.2646   -1.5250    0.0000 H   0  0  0  0  0  0  0  0  0  0  0  0
    2.4675   -1.5250    0.0000 H   0  0  0  0  0  0  0  0  0  0  0  0
  1 20  1  0  0  0  0
  2 13  1  0  0  0  0
  2 19  1  0  0  0  0
  3  5  1  0  0  0  0
  3  6  1  0  0  0  0
  3  9  1  0  0  0  0
  4  7  1  0  0  0  0
  4  8  1  0  0  0  0
  4 11  1  0  0  0  0
  5  7  1  0  0  0  0
  5 21  1  0  0  0  0
  5 22  1  0  0  0  0
  6  8  1  0  0  0  0
  6 23  1  0  0  0  0
  6 24  1  0  0  0  0
  7 25  1  0  0  0  0
  7 26  1  0  0  0  0
  8 27  1  0  0  0  0
  8 28  1  0  0  0  0
  9 10  1  0  0  0  0
  9 29  1  0  0  0  0
  9 30  1  0  0  0  0
 10 12  1  0  0  0  0
 10 31  1  0  0  0  0
 10 32  1  0  0  0  0
 11 13  1  0  0  0  0
 11 14  2  0  0  0  0
 12 15  1  0  0  0  0
 12 33  1  0  0  0  0
 12 34  1  0  0  0  0
 13 16  2  0  0  0  0
 14 17  1  0  0  0  0
 14 35  1  0  0  0  0
 15 36  1  0  0  0  0
 15 37  1  0  0  0  0
 15 38  1  0  0  0  0
 16 18  1  0  0  0  0
 16 39  1  0  0  0  0
 17 18  2  0  0  0  0
 17 40  1  0  0  0  0
 18 41  1  0  0  0  0
 19 20  1  0  0  0  0
 19 42  1  0  0  0  0
 19 43  1  0  0  0  0
 20 44  1  0  0  0  0
 20 45  1  0  0  0  0
M  END
> <PUBCHEM_COMPOUND_CID>
155512841

> <PUBCHEM_COMPOUND_CANONICALIZED>
1

> <PUBCHEM_CACTVS_COMPLEXITY>
257

> <PUBCHEM_CACTVS_HBOND_ACCEPTOR>
4

> <PUBCHEM_CACTVS_HBOND_DONOR>
0

> <PUBCHEM_CACTVS_ROTATABLE_BOND>
7

> <PUBCHEM_CACTVS_SUBSKEYS>
AAADceB7IQAAAAAAAAAAAAAAAAAAAAAAAAA8QAAAAAAAAAABAAAAHwAAAAAACAzhkAYyxoMABACAACRCQACCCAAhIgAIiAAPbIgOZiLEsZuXOCjkwBHY6AeQQAAAAAAAAAAAEAAAAAAAAAAgAAAAAAAAAA==

> <PUBCHEM_IUPAC_OPENEYE_NAME>
1-butyl-4-[2-(2-fluoroethoxy)phenyl]piperazine

> <PUBCHEM_IUPAC_CAS_NAME>
1-butyl-4-[2-(2-fluoroethoxy)phenyl]piperazine

> <PUBCHEM_IUPAC_NAME_MARKUP>
1-butyl-4-[2-(2-fluoroethoxy)phenyl]piperazine

> <PUBCHEM_IUPAC_NAME>
1-butyl-4-[2-(2-fluoroethoxy)phenyl]piperazine

> <PUBCHEM_IUPAC_SYSTEMATIC_NAME>
1-butyl-4-[2-(2-fluoranylethoxy)phenyl]piperazine

> <PUBCHEM_IUPAC_TRADITIONAL_NAME>
1-butyl-4-[2-(2-fluoroethoxy)phenyl]piperazine

> <PUBCHEM_IUPAC_INCHI>
InChI=1S/C16H25FN2O/c1-2-3-9-18-10-12-19(13-11-18)15-6-4-5-7-16(15)20-14-8-17/h4-7H,2-3,8-14H2,1H3

> <PUBCHEM_IUPAC_INCHIKEY>
MPRKJVQRTVEJJH-UHFFFAOYSA-N

> <PUBCHEM_XLOGP3_AA>
3.4

> <PUBCHEM_EXACT_MASS>
280.19509159

> <PUBCHEM_MOLECULAR_FORMULA>
C16H25FN2O

> <PUBCHEM_MOLECULAR_WEIGHT>
280.38

> <PUBCHEM_OPENEYE_CAN_SMILES>
CCCCN1CCN(CC1)C2=CC=CC=C2OCCF

> <PUBCHEM_OPENEYE_ISO_SMILES>
CCCCN1CCN(CC1)C2=CC=CC=C2OCCF

> <PUBCHEM_CACTVS_TPSA>
15.7

> <PUBCHEM_MONOISOTOPIC_WEIGHT>
280.19509159

> <PUBCHEM_TOTAL_CHARGE>
0

> <PUBCHEM_HEAVY_ATOM_COUNT>
20

> <PUBCHEM_ATOM_DEF_STEREO_COUNT>
0

> <PUBCHEM_ATOM_UDEF_STEREO_COUNT>
0

> <PUBCHEM_BOND_DEF_STEREO_COUNT>
0

> <PUBCHEM_BOND_UDEF_STEREO_COUNT>
0

> <PUBCHEM_ISOTOPIC_ATOM_COUNT>
0

> <PUBCHEM_COMPONENT_COUNT>
1

> <PUBCHEM_CACTVS_TAUTO_COUNT>
-1

> <PUBCHEM_COORDINATE_TYPE>
1
5
255

> <PUBCHEM_BONDANNOTATIONS>
11  13  8
11  14  8
13  16  8
14  17  8
16  18  8
17  18  8

$$$$
