44275616
  -OEChem-09292322122D

 43 45  0     1  0  0  0  0  0999 V2000
    4.8714    3.1228    0.0000 S   0  0  0  0  0  0  0  0  0  0  0  0
    6.3981   -0.6228    0.0000 N   0  0  0  0  0  0  0  0  0  0  0  0
    4.6660    1.3772    0.0000 N   0  0  0  0  0  0  0  0  0  0  0  0
    3.3073    2.3211    0.0000 N   0  0  0  0  0  0  0  0  0  0  0  0
    5.5321   -0.1228    0.0000 C   0  0  1  0  0  0  0  0  0  0  0  0
    5.5321    0.8772    0.0000 C   0  0  0  0  0  0  0  0  0  0  0  0
    4.6660   -0.6228    0.0000 C   0  0  0  0  0  0  0  0  0  0  0  0
    3.8000   -0.1228    0.0000 C   0  0  0  0  0  0  0  0  0  0  0  0
    3.8000    0.8772    0.0000 C   0  0  0  0  0  0  0  0  0  0  0  0
    6.3981   -1.6228    0.0000 C   0  0  0  0  0  0  0  0  0  0  0  0
    7.2641   -0.1228    0.0000 C   0  0  0  0  0  0  0  0  0  0  0  0
    2.9061    1.4119    0.0000 C   0  0  0  0  0  0  0  0  0  0  0  0
    4.3009    2.3015    0.0000 C   0  0  0  0  0  0  0  0  0  0  0  0
    2.9061   -0.6575    0.0000 C   0  0  0  0  0  0  0  0  0  0  0  0
    7.2641   -2.1228    0.0000 C   0  0  0  0  0  0  0  0  0  0  0  0
    8.1301   -0.6228    0.0000 C   0  0  0  0  0  0  0  0  0  0  0  0
    2.0000    0.8980    0.0000 C   0  0  0  0  0  0  0  0  0  0  0  0
    2.0000   -0.1436    0.0000 C   0  0  0  0  0  0  0  0  0  0  0  0
    7.2641   -3.1228    0.0000 C   0  0  0  0  0  0  0  0  0  0  0  0
    8.9962   -0.1228    0.0000 C   0  0  0  0  0  0  0  0  0  0  0  0
    5.5321   -0.7428    0.0000 H   0  0  0  0  0  0  0  0  0  0  0  0
    6.1426    0.7695    0.0000 H   0  0  0  0  0  0  0  0  0  0  0  0
    5.7441    1.4598    0.0000 H   0  0  0  0  0  0  0  0  0  0  0  0
    4.2675   -1.0978    0.0000 H   0  0  0  0  0  0  0  0  0  0  0  0
    5.0646   -1.0978    0.0000 H   0  0  0  0  0  0  0  0  0  0  0  0
    5.7875   -1.5151    0.0000 H   0  0  0  0  0  0  0  0  0  0  0  0
    6.1860   -2.2054    0.0000 H   0  0  0  0  0  0  0  0  0  0  0  0
    7.6626    0.3521    0.0000 H   0  0  0  0  0  0  0  0  0  0  0  0
    6.8656    0.3521    0.0000 H   0  0  0  0  0  0  0  0  0  0  0  0
    2.9132   -1.2774    0.0000 H   0  0  0  0  0  0  0  0  0  0  0  0
    2.9739    2.8438    0.0000 H   0  0  0  0  0  0  0  0  0  0  0  0
    7.8747   -2.2305    0.0000 H   0  0  0  0  0  0  0  0  0  0  0  0
    7.4762   -1.5402    0.0000 H   0  0  0  0  0  0  0  0  0  0  0  0
    7.7316   -1.0978    0.0000 H   0  0  0  0  0  0  0  0  0  0  0  0
    8.5287   -1.0978    0.0000 H   0  0  0  0  0  0  0  0  0  0  0  0
    1.4643    1.2101    0.0000 H   0  0  0  0  0  0  0  0  0  0  0  0
    1.4643   -0.4557    0.0000 H   0  0  0  0  0  0  0  0  0  0  0  0
    6.6441   -3.1228    0.0000 H   0  0  0  0  0  0  0  0  0  0  0  0
    7.2641   -3.7428    0.0000 H   0  0  0  0  0  0  0  0  0  0  0  0
    7.8841   -3.1228    0.0000 H   0  0  0  0  0  0  0  0  0  0  0  0
    9.3062   -0.6597    0.0000 H   0  0  0  0  0  0  0  0  0  0  0  0
    9.5331    0.1872    0.0000 H   0  0  0  0  0  0  0  0  0  0  0  0
    8.6862    0.4141    0.0000 H   0  0  0  0  0  0  0  0  0  0  0  0
  1 13  2  0  0  0  0
  5  2  1  6  0  0  0
  2 10  1  0  0  0  0
  2 11  1  0  0  0  0
  3  6  1  0  0  0  0
  3  9  1  0  0  0  0
  3 13  1  0  0  0  0
  4 12  1  0  0  0  0
  4 13  1  0  0  0  0
  4 31  1  0  0  0  0
  5  6  1  0  0  0  0
  5  7  1  0  0  0  0
  5 21  1  0  0  0  0
  6 22  1  0  0  0  0
  6 23  1  0  0  0  0
  7  8  1  0  0  0  0
  7 24  1  0  0  0  0
  7 25  1  0  0  0  0
  8  9  2  0  0  0  0
  8 14  1  0  0  0  0
  9 12  1  0  0  0  0
 10 15  1  0  0  0  0
 10 26  1  0  0  0  0
 10 27  1  0  0  0  0
 11 16  1  0  0  0  0
 11 28  1  0  0  0  0
 11 29  1  0  0  0  0
 12 17  2  0  0  0  0
 14 18  2  0  0  0  0
 14 30  1  0  0  0  0
 15 19  1  0  0  0  0
 15 32  1  0  0  0  0
 15 33  1  0  0  0  0
 16 20  1  0  0  0  0
 16 34  1  0  0  0  0
 16 35  1  0  0  0  0
 17 18  1  0  0  0  0
 17 36  1  0  0  0  0
 18 37  1  0  0  0  0
 19 38  1  0  0  0  0
 19 39  1  0  0  0  0
 19 40  1  0  0  0  0
 20 41  1  0  0  0  0
 20 42  1  0  0  0  0
 20 43  1  0  0  0  0
M  END
> <PUBCHEM_COMPOUND_CID>
44275616

> <PUBCHEM_COMPOUND_CANONICALIZED>
1

> <PUBCHEM_CACTVS_COMPLEXITY>
354

> <PUBCHEM_CACTVS_HBOND_ACCEPTOR>
2

> <PUBCHEM_CACTVS_HBOND_DONOR>
1

> <PUBCHEM_CACTVS_ROTATABLE_BOND>
5

> <PUBCHEM_CACTVS_SUBSKEYS>
AAADceB7AABAAAAAAAAAAAAAAAAAAWAAAAA8QAAAAAAAAFixAAAAHAQQAAAADCjBGAQzwIPAAACEAiRCQACCAAAhAgkIiAAIdIiIYCLAkZGUIAhokALIyCcQgIAOAAAAQAACACAAAACAAAQAQAAAAAAAAA==

> <PUBCHEM_IUPAC_OPENEYE_NAME>
(10R)-10-(dipropylamino)-1,3-diazatricyclo[6.3.1.04,12]dodeca-4,6,8(12)-triene-2-thione

> <PUBCHEM_IUPAC_CAS_NAME>
(10R)-10-(dipropylamino)-1,3-diazatricyclo[6.3.1.04,12]dodeca-4,6,8(12)-triene-2-thione

> <PUBCHEM_IUPAC_NAME_MARKUP>
(10<I>R</I>)-10-(dipropylamino)-1,3-diazatricyclo[6.3.1.0<SUP>4,12</SUP>]dodeca-4,6,8(12)-triene-2-thione

> <PUBCHEM_IUPAC_NAME>
(10R)-10-(dipropylamino)-1,3-diazatricyclo[6.3.1.04,12]dodeca-4,6,8(12)-triene-2-thione

> <PUBCHEM_IUPAC_SYSTEMATIC_NAME>
(10R)-10-(dipropylamino)-1,3-diazatricyclo[6.3.1.04,12]dodeca-4,6,8(12)-triene-2-thione

> <PUBCHEM_IUPAC_TRADITIONAL_NAME>
(10R)-10-(dipropylamino)-1,3-diazatricyclo[6.3.1.04,12]dodeca-4,6,8(12)-triene-2-thione

> <PUBCHEM_IUPAC_INCHI>
InChI=1S/C16H23N3S/c1-3-8-18(9-4-2)13-10-12-6-5-7-14-15(12)19(11-13)16(20)17-14/h5-7,13H,3-4,8-11H2,1-2H3,(H,17,20)/t13-/m1/s1

> <PUBCHEM_IUPAC_INCHIKEY>
WEUPAXGYFOUDLZ-CYBMUJFWSA-N

> <PUBCHEM_XLOGP3_AA>
3.3

> <PUBCHEM_EXACT_MASS>
289.16126892

> <PUBCHEM_MOLECULAR_FORMULA>
C16H23N3S

> <PUBCHEM_MOLECULAR_WEIGHT>
289.4

> <PUBCHEM_OPENEYE_CAN_SMILES>
CCCN(CCC)C1CC2=C3C(=CC=C2)NC(=S)N3C1

> <PUBCHEM_OPENEYE_ISO_SMILES>
CCCN(CCC)[C@@H]1CC2=C3C(=CC=C2)NC(=S)N3C1

> <PUBCHEM_CACTVS_TPSA>
50.6

> <PUBCHEM_MONOISOTOPIC_WEIGHT>
289.16126892

> <PUBCHEM_TOTAL_CHARGE>
0

> <PUBCHEM_HEAVY_ATOM_COUNT>
20

> <PUBCHEM_ATOM_DEF_STEREO_COUNT>
1

> <PUBCHEM_ATOM_UDEF_STEREO_COUNT>
0

> <PUBCHEM_BOND_DEF_STEREO_COUNT>
0

> <PUBCHEM_BOND_UDEF_STEREO_COUNT>
0

> <PUBCHEM_ISOTOPIC_ATOM_COUNT>
0

> <PUBCHEM_COMPONENT_COUNT>
1

> <PUBCHEM_CACTVS_TAUTO_COUNT>
-1

> <PUBCHEM_COORDINATE_TYPE>
1
5
255

> <PUBCHEM_BONDANNOTATIONS>
12  17  8
14  18  8
17  18  8
5  2  6
3  13  8
3  9  8
4  12  8
4  13  8
8  14  8
8  9  8
9  12  8

$$$$
