45815848
  -OEChem-09292322462D

 49 51  0     0  0  0  0  0  0999 V2000
    2.8203   -2.0716    0.0000 S   0  0  0  0  0  0  0  0  0  0  0  0
    5.2690   -0.2352    0.0000 N   0  0  0  0  0  0  0  0  0  0  0  0
    5.2690    1.7648    0.0000 N   0  0  0  0  0  0  0  0  0  0  0  0
    4.2984   -2.7298    0.0000 N   0  0  0  0  0  0  0  0  0  0  0  0
    6.1350    4.2648    0.0000 N   0  0  0  0  0  0  0  0  0  0  0  0
    4.4030    0.2648    0.0000 C   0  0  0  0  0  0  0  0  0  0  0  0
    6.1350    0.2648    0.0000 C   0  0  0  0  0  0  0  0  0  0  0  0
    4.4030    1.2648    0.0000 C   0  0  0  0  0  0  0  0  0  0  0  0
    6.1350    1.2648    0.0000 C   0  0  0  0  0  0  0  0  0  0  0  0
    5.2690   -1.2352    0.0000 C   0  0  0  0  0  0  0  0  0  0  0  0
    5.2690    2.7648    0.0000 C   0  0  0  0  0  0  0  0  0  0  0  0
    2.9136   -3.8512    0.0000 C   0  0  0  0  0  0  0  0  0  0  0  0
    4.4030   -1.7352    0.0000 C   0  0  0  0  0  0  0  0  0  0  0  0
    3.3203   -2.9377    0.0000 C   0  0  0  0  0  0  0  0  0  0  0  0
    6.1350    3.2648    0.0000 C   0  0  0  0  0  0  0  0  0  0  0  0
    3.4894   -1.3285    0.0000 C   0  0  0  0  0  0  0  0  0  0  0  0
    2.5068   -4.7648    0.0000 C   0  0  0  0  0  0  0  0  0  0  0  0
    2.0000   -3.4445    0.0000 C   0  0  0  0  0  0  0  0  0  0  0  0
    3.8271   -4.2580    0.0000 C   0  0  0  0  0  0  0  0  0  0  0  0
    7.0010    2.7648    0.0000 C   0  0  0  0  0  0  0  0  0  0  0  0
    7.8671    3.2648    0.0000 C   0  0  0  0  0  0  0  0  0  0  0  0
    7.0010    4.7648    0.0000 C   0  0  0  0  0  0  0  0  0  0  0  0
    7.8671    4.2648    0.0000 C   0  0  0  0  0  0  0  0  0  0  0  0
    3.7924    0.3724    0.0000 H   0  0  0  0  0  0  0  0  0  0  0  0
    4.1909   -0.3178    0.0000 H   0  0  0  0  0  0  0  0  0  0  0  0
    6.3471   -0.3178    0.0000 H   0  0  0  0  0  0  0  0  0  0  0  0
    6.7456    0.3724    0.0000 H   0  0  0  0  0  0  0  0  0  0  0  0
    4.1909    1.8474    0.0000 H   0  0  0  0  0  0  0  0  0  0  0  0
    3.7924    1.1571    0.0000 H   0  0  0  0  0  0  0  0  0  0  0  0
    6.7456    1.1571    0.0000 H   0  0  0  0  0  0  0  0  0  0  0  0
    6.3471    1.8474    0.0000 H   0  0  0  0  0  0  0  0  0  0  0  0
    5.4810   -1.8178    0.0000 H   0  0  0  0  0  0  0  0  0  0  0  0
    5.8796   -1.1276    0.0000 H   0  0  0  0  0  0  0  0  0  0  0  0
    5.0569    3.3474    0.0000 H   0  0  0  0  0  0  0  0  0  0  0  0
    4.6584    2.6571    0.0000 H   0  0  0  0  0  0  0  0  0  0  0  0
    3.3605   -0.7220    0.0000 H   0  0  0  0  0  0  0  0  0  0  0  0
    1.9404   -4.5126    0.0000 H   0  0  0  0  0  0  0  0  0  0  0  0
    2.2546   -5.3312    0.0000 H   0  0  0  0  0  0  0  0  0  0  0  0
    3.0732   -5.0169    0.0000 H   0  0  0  0  0  0  0  0  0  0  0  0
    2.2522   -2.8781    0.0000 H   0  0  0  0  0  0  0  0  0  0  0  0
    1.4336   -3.1923    0.0000 H   0  0  0  0  0  0  0  0  0  0  0  0
    1.7478   -4.0109    0.0000 H   0  0  0  0  0  0  0  0  0  0  0  0
    3.5749   -4.8244    0.0000 H   0  0  0  0  0  0  0  0  0  0  0  0
    4.3935   -4.5101    0.0000 H   0  0  0  0  0  0  0  0  0  0  0  0
    4.0793   -3.6916    0.0000 H   0  0  0  0  0  0  0  0  0  0  0  0
    7.0010    2.1448    0.0000 H   0  0  0  0  0  0  0  0  0  0  0  0
    8.4040    2.9548    0.0000 H   0  0  0  0  0  0  0  0  0  0  0  0
    7.0010    5.3848    0.0000 H   0  0  0  0  0  0  0  0  0  0  0  0
    8.4040    4.5748    0.0000 H   0  0  0  0  0  0  0  0  0  0  0  0
  1 14  1  0  0  0  0
  1 16  1  0  0  0  0
  2  6  1  0  0  0  0
  2  7  1  0  0  0  0
  2 10  1  0  0  0  0
  3  8  1  0  0  0  0
  3  9  1  0  0  0  0
  3 11  1  0  0  0  0
  4 13  1  0  0  0  0
  4 14  2  0  0  0  0
  5 15  1  0  0  0  0
  5 22  2  0  0  0  0
  6  8  1  0  0  0  0
  6 24  1  0  0  0  0
  6 25  1  0  0  0  0
  7  9  1  0  0  0  0
  7 26  1  0  0  0  0
  7 27  1  0  0  0  0
  8 28  1  0  0  0  0
  8 29  1  0  0  0  0
  9 30  1  0  0  0  0
  9 31  1  0  0  0  0
 10 13  1  0  0  0  0
 10 32  1  0  0  0  0
 10 33  1  0  0  0  0
 11 15  1  0  0  0  0
 11 34  1  0  0  0  0
 11 35  1  0  0  0  0
 12 14  1  0  0  0  0
 12 17  1  0  0  0  0
 12 18  1  0  0  0  0
 12 19  1  0  0  0  0
 13 16  2  0  0  0  0
 15 20  2  0  0  0  0
 16 36  1  0  0  0  0
 17 37  1  0  0  0  0
 17 38  1  0  0  0  0
 17 39  1  0  0  0  0
 18 40  1  0  0  0  0
 18 41  1  0  0  0  0
 18 42  1  0  0  0  0
 19 43  1  0  0  0  0
 19 44  1  0  0  0  0
 19 45  1  0  0  0  0
 20 21  1  0  0  0  0
 20 46  1  0  0  0  0
 21 23  2  0  0  0  0
 21 47  1  0  0  0  0
 22 23  1  0  0  0  0
 22 48  1  0  0  0  0
 23 49  1  0  0  0  0
M  END
> <PUBCHEM_COMPOUND_CID>
45815848

> <PUBCHEM_COMPOUND_CANONICALIZED>
1

> <PUBCHEM_CACTVS_COMPLEXITY>
363

> <PUBCHEM_CACTVS_HBOND_ACCEPTOR>
5

> <PUBCHEM_CACTVS_HBOND_DONOR>
0

> <PUBCHEM_CACTVS_ROTATABLE_BOND>
5

> <PUBCHEM_CACTVS_SUBSKEYS>
AAADceB7gABAAAAAAAAAAAAAAAAAAWAAAAAsWAAAAAAAAAAB4AAAHAQAAAAADgjFVgS+gZMIEAikATRnRACC8KBxCjgI2DQ4ZJgIYOLgkZGUIAhggADoyAcQAAAAAAAAAAAAAAAAAAAAAAAAAAAAAAAAAA==

> <PUBCHEM_IUPAC_OPENEYE_NAME>
2-tert-butyl-4-[[4-(2-pyridylmethyl)piperazin-1-yl]methyl]thiazole

> <PUBCHEM_IUPAC_CAS_NAME>
2-tert-butyl-4-[[4-(2-pyridinylmethyl)-1-piperazinyl]methyl]thiazole

> <PUBCHEM_IUPAC_NAME_MARKUP>
2-<I>tert</I>-butyl-4-[[4-(pyridin-2-ylmethyl)piperazin-1-yl]methyl]-1,3-thiazole

> <PUBCHEM_IUPAC_NAME>
2-tert-butyl-4-[[4-(pyridin-2-ylmethyl)piperazin-1-yl]methyl]-1,3-thiazole

> <PUBCHEM_IUPAC_SYSTEMATIC_NAME>
2-tert-butyl-4-[[4-(pyridin-2-ylmethyl)piperazin-1-yl]methyl]-1,3-thiazole

> <PUBCHEM_IUPAC_TRADITIONAL_NAME>
2-tert-butyl-4-[[4-(2-pyridylmethyl)piperazino]methyl]thiazole

> <PUBCHEM_IUPAC_INCHI>
InChI=1S/C18H26N4S/c1-18(2,3)17-20-16(14-23-17)13-22-10-8-21(9-11-22)12-15-6-4-5-7-19-15/h4-7,14H,8-13H2,1-3H3

> <PUBCHEM_IUPAC_INCHIKEY>
IWGYSGOGENBEPJ-UHFFFAOYSA-N

> <PUBCHEM_XLOGP3_AA>
2.8

> <PUBCHEM_EXACT_MASS>
330.18781802

> <PUBCHEM_MOLECULAR_FORMULA>
C18H26N4S

> <PUBCHEM_MOLECULAR_WEIGHT>
330.5

> <PUBCHEM_OPENEYE_CAN_SMILES>
CC(C)(C)C1=NC(=CS1)CN2CCN(CC2)CC3=CC=CC=N3

> <PUBCHEM_OPENEYE_ISO_SMILES>
CC(C)(C)C1=NC(=CS1)CN2CCN(CC2)CC3=CC=CC=N3

> <PUBCHEM_CACTVS_TPSA>
60.5

> <PUBCHEM_MONOISOTOPIC_WEIGHT>
330.18781802

> <PUBCHEM_TOTAL_CHARGE>
0

> <PUBCHEM_HEAVY_ATOM_COUNT>
23

> <PUBCHEM_ATOM_DEF_STEREO_COUNT>
0

> <PUBCHEM_ATOM_UDEF_STEREO_COUNT>
0

> <PUBCHEM_BOND_DEF_STEREO_COUNT>
0

> <PUBCHEM_BOND_UDEF_STEREO_COUNT>
0

> <PUBCHEM_ISOTOPIC_ATOM_COUNT>
0

> <PUBCHEM_COMPONENT_COUNT>
1

> <PUBCHEM_CACTVS_TAUTO_COUNT>
-1

> <PUBCHEM_COORDINATE_TYPE>
1
5
255

> <PUBCHEM_BONDANNOTATIONS>
1  14  8
1  16  8
13  16  8
15  20  8
20  21  8
21  23  8
22  23  8
4  13  8
4  14  8
5  15  8
5  22  8

$$$$
