71562963
  -OEChem-09292322052D

 47 50  0     1  0  0  0  0  0999 V2000
    2.0000   -0.8871    0.0000 Cl  0  0  0  0  0  0  0  0  0  0  0  0
    5.5033   -0.0346    0.0000 O   0  0  0  0  0  0  0  0  0  0  0  0
   11.3180    1.1218    0.0000 O   0  0  0  0  0  0  0  0  0  0  0  0
    9.5441    2.1459    0.0000 O   0  0  0  0  0  0  0  0  0  0  0  0
    7.8000   -1.9233    0.0000 N   0  0  3  0  0  0  0  0  0  0  0  0
    7.8000   -0.9233    0.0000 C   0  0  2  0  0  0  0  0  0  0  0  0
    6.0000   -0.9025    0.0000 C   0  0  2  0  0  0  0  0  0  0  0  0
    6.9060   -0.3887    0.0000 C   0  0  0  0  0  0  0  0  0  0  0  0
    6.0000   -1.9442    0.0000 C   0  0  0  0  0  0  0  0  0  0  0  0
    6.9060   -2.4580    0.0000 C   0  0  0  0  0  0  0  0  0  0  0  0
    8.6660   -2.4233    0.0000 C   0  0  0  0  0  0  0  0  0  0  0  0
    8.6660   -0.4233    0.0000 C   0  0  0  0  0  0  0  0  0  0  0  0
    9.5320   -1.9233    0.0000 C   0  0  0  0  0  0  0  0  0  0  0  0
    9.5320   -0.9233    0.0000 C   0  0  0  0  0  0  0  0  0  0  0  0
    5.0000   -0.8987    0.0000 C   0  0  0  0  0  0  0  0  0  0  0  0
    8.6500    0.6182    0.0000 C   0  0  0  0  0  0  0  0  0  0  0  0
   10.4420   -0.4165    0.0000 C   0  0  0  0  0  0  0  0  0  0  0  0
    4.4966   -1.7628    0.0000 C   0  0  0  0  0  0  0  0  0  0  0  0
    4.5033   -0.0307    0.0000 C   0  0  0  0  0  0  0  0  0  0  0  0
    9.5480    1.1459    0.0000 C   0  0  0  0  0  0  0  0  0  0  0  0
   10.4501    0.6251    0.0000 C   0  0  0  0  0  0  0  0  0  0  0  0
    3.4966   -1.7589    0.0000 C   0  0  0  0  0  0  0  0  0  0  0  0
    3.5033   -0.0269    0.0000 C   0  0  0  0  0  0  0  0  0  0  0  0
    3.0000   -0.8910    0.0000 C   0  0  0  0  0  0  0  0  0  0  0  0
   12.1821    0.6184    0.0000 C   0  0  0  0  0  0  0  0  0  0  0  0
    7.8065   -0.0734    0.0000 H   0  0  0  0  0  0  0  0  0  0  0  0
    7.3106    0.0811    0.0000 H   0  0  0  0  0  0  0  0  0  0  0  0
    6.5124    0.0904    0.0000 H   0  0  0  0  0  0  0  0  0  0  0  0
    5.3891   -1.8380    0.0000 H   0  0  0  0  0  0  0  0  0  0  0  0
    5.7909   -2.5278    0.0000 H   0  0  0  0  0  0  0  0  0  0  0  0
    6.5124   -2.9370    0.0000 H   0  0  0  0  0  0  0  0  0  0  0  0
    7.3106   -2.9278    0.0000 H   0  0  0  0  0  0  0  0  0  0  0  0
    8.2675   -2.8983    0.0000 H   0  0  0  0  0  0  0  0  0  0  0  0
    9.0645   -2.8983    0.0000 H   0  0  0  0  0  0  0  0  0  0  0  0
    9.7441   -2.5059    0.0000 H   0  0  0  0  0  0  0  0  0  0  0  0
   10.1426   -1.8157    0.0000 H   0  0  0  0  0  0  0  0  0  0  0  0
    8.1095    0.9219    0.0000 H   0  0  0  0  0  0  0  0  0  0  0  0
    5.8154    0.5012    0.0000 H   0  0  0  0  0  0  0  0  0  0  0  0
   10.9753   -0.7327    0.0000 H   0  0  0  0  0  0  0  0  0  0  0  0
    4.8046   -2.3009    0.0000 H   0  0  0  0  0  0  0  0  0  0  0  0
    4.8154    0.5050    0.0000 H   0  0  0  0  0  0  0  0  0  0  0  0
    3.1846   -2.2946    0.0000 H   0  0  0  0  0  0  0  0  0  0  0  0
    3.1954    0.5113    0.0000 H   0  0  0  0  0  0  0  0  0  0  0  0
   10.0799    2.4580    0.0000 H   0  0  0  0  0  0  0  0  0  0  0  0
   11.8700    0.0827    0.0000 H   0  0  0  0  0  0  0  0  0  0  0  0
   12.7178    0.3064    0.0000 H   0  0  0  0  0  0  0  0  0  0  0  0
   12.4942    1.1542    0.0000 H   0  0  0  0  0  0  0  0  0  0  0  0
  1 24  1  0  0  0  0
  7  2  1  6  0  0  0
  2 38  1  0  0  0  0
  3 21  1  0  0  0  0
  3 25  1  0  0  0  0
  4 20  1  0  0  0  0
  4 44  1  0  0  0  0
  5  6  1  0  0  0  0
  5 10  1  0  0  0  0
  5 11  1  0  0  0  0
  6  8  1  0  0  0  0
  6 12  1  0  0  0  0
  6 26  1  1  0  0  0
  7  8  1  0  0  0  0
  7  9  1  0  0  0  0
  7 15  1  0  0  0  0
  8 27  1  0  0  0  0
  8 28  1  0  0  0  0
  9 10  1  0  0  0  0
  9 29  1  0  0  0  0
  9 30  1  0  0  0  0
 10 31  1  0  0  0  0
 10 32  1  0  0  0  0
 11 13  1  0  0  0  0
 11 33  1  0  0  0  0
 11 34  1  0  0  0  0
 12 14  1  0  0  0  0
 12 16  2  0  0  0  0
 13 14  1  0  0  0  0
 13 35  1  0  0  0  0
 13 36  1  0  0  0  0
 14 17  2  0  0  0  0
 15 18  2  0  0  0  0
 15 19  1  0  0  0  0
 16 20  1  0  0  0  0
 16 37  1  0  0  0  0
 17 21  1  0  0  0  0
 17 39  1  0  0  0  0
 18 22  1  0  0  0  0
 18 40  1  0  0  0  0
 19 23  2  0  0  0  0
 19 41  1  0  0  0  0
 20 21  2  0  0  0  0
 22 24  2  0  0  0  0
 22 42  1  0  0  0  0
 23 24  1  0  0  0  0
 23 43  1  0  0  0  0
 25 45  1  0  0  0  0
 25 46  1  0  0  0  0
 25 47  1  0  0  0  0
M  END
> <PUBCHEM_COMPOUND_CID>
71562963

> <PUBCHEM_COMPOUND_CANONICALIZED>
1

> <PUBCHEM_CACTVS_COMPLEXITY>
470

> <PUBCHEM_CACTVS_HBOND_ACCEPTOR>
4

> <PUBCHEM_CACTVS_HBOND_DONOR>
2

> <PUBCHEM_CACTVS_ROTATABLE_BOND>
2

> <PUBCHEM_CACTVS_SUBSKEYS>
AAADceB6MAAEAAAAAAAAAAAAAAAAAAAAAAA8eIEAAAAAAACxQAAAHgIACAAADG7BmCYyBoMABgCAAiBCAACCCAAgJQAIiAAOjogNJiKHsxuEcCtmwBGLuAew0PMOpAABAAAQQABIAAIAACCAAAAAAAAAAA==

> <PUBCHEM_IUPAC_OPENEYE_NAME>
(2S,11bR)-2-(4-chlorophenyl)-9-methoxy-1,3,4,6,7,11b-hexahydrobenzo[a]quinolizine-2,10-diol

> <PUBCHEM_IUPAC_CAS_NAME>
(2S,11bR)-2-(4-chlorophenyl)-9-methoxy-1,3,4,6,7,11b-hexahydrobenzo[a]quinolizine-2,10-diol

> <PUBCHEM_IUPAC_NAME_MARKUP>
(2<I>S</I>,11<I>b</I><I>R</I>)-2-(4-chlorophenyl)-9-methoxy-1,3,4,6,7,11<I>b</I>-hexahydrobenzo[a]quinolizine-2,10-diol

> <PUBCHEM_IUPAC_NAME>
(2S,11bR)-2-(4-chlorophenyl)-9-methoxy-1,3,4,6,7,11b-hexahydrobenzo[a]quinolizine-2,10-diol

> <PUBCHEM_IUPAC_SYSTEMATIC_NAME>
(2S,11bR)-2-(4-chlorophenyl)-9-methoxy-1,3,4,6,7,11b-hexahydrobenzo[a]quinolizine-2,10-diol

> <PUBCHEM_IUPAC_TRADITIONAL_NAME>
(2S,11bR)-2-(4-chlorophenyl)-9-methoxy-1,3,4,6,7,11b-hexahydrobenzo[a]quinolizine-2,10-diol

> <PUBCHEM_IUPAC_INCHI>
InChI=1S/C20H22ClNO3/c1-25-19-10-13-6-8-22-9-7-20(24,14-2-4-15(21)5-3-14)12-17(22)16(13)11-18(19)23/h2-5,10-11,17,23-24H,6-9,12H2,1H3/t17-,20+/m1/s1

> <PUBCHEM_IUPAC_INCHIKEY>
RHYAPXDEVZEEMS-XLIONFOSSA-N

> <PUBCHEM_XLOGP3_AA>
3.2

> <PUBCHEM_EXACT_MASS>
359.1288213

> <PUBCHEM_MOLECULAR_FORMULA>
C20H22ClNO3

> <PUBCHEM_MOLECULAR_WEIGHT>
359.8

> <PUBCHEM_OPENEYE_CAN_SMILES>
COC1=C(C=C2C3CC(CCN3CCC2=C1)(C4=CC=C(C=C4)Cl)O)O

> <PUBCHEM_OPENEYE_ISO_SMILES>
COC1=C(C=C2[C@H]3C[C@@](CCN3CCC2=C1)(C4=CC=C(C=C4)Cl)O)O

> <PUBCHEM_CACTVS_TPSA>
52.9

> <PUBCHEM_MONOISOTOPIC_WEIGHT>
359.1288213

> <PUBCHEM_TOTAL_CHARGE>
0

> <PUBCHEM_HEAVY_ATOM_COUNT>
25

> <PUBCHEM_ATOM_DEF_STEREO_COUNT>
2

> <PUBCHEM_ATOM_UDEF_STEREO_COUNT>
0

> <PUBCHEM_BOND_DEF_STEREO_COUNT>
0

> <PUBCHEM_BOND_UDEF_STEREO_COUNT>
0

> <PUBCHEM_ISOTOPIC_ATOM_COUNT>
0

> <PUBCHEM_COMPONENT_COUNT>
1

> <PUBCHEM_CACTVS_TAUTO_COUNT>
-1

> <PUBCHEM_COORDINATE_TYPE>
1
5
255

> <PUBCHEM_BONDANNOTATIONS>
12  14  8
12  16  8
14  17  8
15  18  8
15  19  8
16  20  8
17  21  8
18  22  8
19  23  8
7  2  6
20  21  8
22  24  8
23  24  8
6  26  5

$$$$
