24805286
  -OEChem-09292322232D

 45 48  0     1  0  0  0  0  0999 V2000
    5.5981   -1.0230    0.0000 O   0  0  0  0  0  0  0  0  0  0  0  0
    6.4142    3.5876    0.0000 O   0  0  0  0  0  0  0  0  0  0  0  0
    7.2663    2.0360    0.0000 O   0  0  0  0  0  0  0  0  0  0  0  0
    3.7398   -2.1151    0.0000 N   0  0  3  0  0  0  0  0  0  0  0  0
    3.7481   -1.0301    0.0000 C   0  0  1  0  0  0  0  0  0  0  0  0
    4.6461   -0.5024    0.0000 C   0  0  1  0  0  0  0  0  0  0  0  0
    2.8460   -0.5093    0.0000 C   0  0  0  0  0  0  0  0  0  0  0  0
    4.6301    0.5391    0.0000 C   0  0  0  0  0  0  0  0  0  0  0  0
    2.8541    0.5323    0.0000 C   0  0  0  0  0  0  0  0  0  0  0  0
    3.7641    1.0391    0.0000 C   0  0  0  0  0  0  0  0  0  0  0  0
    4.6794   -2.6576    0.0000 C   0  0  0  0  0  0  0  0  0  0  0  0
    5.6148   -2.1079    0.0000 C   0  0  0  0  0  0  0  0  0  0  0  0
    2.8718   -2.6117    0.0000 C   0  0  0  0  0  0  0  0  0  0  0  0
    5.4961    1.0391    0.0000 C   0  0  0  0  0  0  0  0  0  0  0  0
    3.7641    2.0391    0.0000 C   0  0  0  0  0  0  0  0  0  0  0  0
    4.6301    2.5391    0.0000 C   0  0  0  0  0  0  0  0  0  0  0  0
    5.4961    2.0391    0.0000 C   0  0  0  0  0  0  0  0  0  0  0  0
    2.8680   -3.6117    0.0000 C   0  0  0  0  0  0  0  0  0  0  0  0
    4.6140    3.5806    0.0000 C   0  0  0  0  0  0  0  0  0  0  0  0
    6.4061    2.5460    0.0000 C   0  0  0  0  0  0  0  0  0  0  0  0
    5.5121    4.1084    0.0000 C   0  0  0  0  0  0  0  0  0  0  0  0
    2.0000   -4.1084    0.0000 C   0  0  0  0  0  0  0  0  0  0  0  0
    3.0104   -1.4523    0.0000 H   0  0  0  0  0  0  0  0  0  0  0  0
    5.3739   -0.0633    0.0000 H   0  0  0  0  0  0  0  0  0  0  0  0
    2.2360   -0.3985    0.0000 H   0  0  0  0  0  0  0  0  0  0  0  0
    2.6325   -1.0914    0.0000 H   0  0  0  0  0  0  0  0  0  0  0  0
    2.6495    1.1176    0.0000 H   0  0  0  0  0  0  0  0  0  0  0  0
    2.2424    0.4309    0.0000 H   0  0  0  0  0  0  0  0  0  0  0  0
    4.2821   -3.1336    0.0000 H   0  0  0  0  0  0  0  0  0  0  0  0
    5.0803   -3.1305    0.0000 H   0  0  0  0  0  0  0  0  0  0  0  0
    5.8328   -2.6883    0.0000 H   0  0  0  0  0  0  0  0  0  0  0  0
    6.2240   -1.9924    0.0000 H   0  0  0  0  0  0  0  0  0  0  0  0
    2.6620   -2.0283    0.0000 H   0  0  0  0  0  0  0  0  0  0  0  0
    2.2608   -2.7170    0.0000 H   0  0  0  0  0  0  0  0  0  0  0  0
    6.0330    0.7291    0.0000 H   0  0  0  0  0  0  0  0  0  0  0  0
    3.2271    2.3491    0.0000 H   0  0  0  0  0  0  0  0  0  0  0  0
    3.0778   -4.1952    0.0000 H   0  0  0  0  0  0  0  0  0  0  0  0
    3.4789   -3.5064    0.0000 H   0  0  0  0  0  0  0  0  0  0  0  0
    4.3960    4.1610    0.0000 H   0  0  0  0  0  0  0  0  0  0  0  0
    4.0049    3.4651    0.0000 H   0  0  0  0  0  0  0  0  0  0  0  0
    5.9094    4.5844    0.0000 H   0  0  0  0  0  0  0  0  0  0  0  0
    5.1111    4.5813    0.0000 H   0  0  0  0  0  0  0  0  0  0  0  0
    1.6921   -3.5703    0.0000 H   0  0  0  0  0  0  0  0  0  0  0  0
    1.4619   -4.4163    0.0000 H   0  0  0  0  0  0  0  0  0  0  0  0
    2.3079   -4.6465    0.0000 H   0  0  0  0  0  0  0  0  0  0  0  0
  1  6  1  0  0  0  0
  1 12  1  0  0  0  0
  2 20  1  0  0  0  0
  2 21  1  0  0  0  0
  3 20  2  0  0  0  0
  4  5  1  0  0  0  0
  4 11  1  0  0  0  0
  4 13  1  0  0  0  0
  5  6  1  0  0  0  0
  5  7  1  0  0  0  0
  5 23  1  1  0  0  0
  6  8  1  0  0  0  0
  6 24  1  6  0  0  0
  7  9  1  0  0  0  0
  7 25  1  0  0  0  0
  7 26  1  0  0  0  0
  8 10  1  0  0  0  0
  8 14  2  0  0  0  0
  9 10  1  0  0  0  0
  9 27  1  0  0  0  0
  9 28  1  0  0  0  0
 10 15  2  0  0  0  0
 11 12  1  0  0  0  0
 11 29  1  0  0  0  0
 11 30  1  0  0  0  0
 12 31  1  0  0  0  0
 12 32  1  0  0  0  0
 13 18  1  0  0  0  0
 13 33  1  0  0  0  0
 13 34  1  0  0  0  0
 14 17  1  0  0  0  0
 14 35  1  0  0  0  0
 15 16  1  0  0  0  0
 15 36  1  0  0  0  0
 16 17  2  0  0  0  0
 16 19  1  0  0  0  0
 17 20  1  0  0  0  0
 18 22  1  0  0  0  0
 18 37  1  0  0  0  0
 18 38  1  0  0  0  0
 19 21  1  0  0  0  0
 19 39  1  0  0  0  0
 19 40  1  0  0  0  0
 21 41  1  0  0  0  0
 21 42  1  0  0  0  0
 22 43  1  0  0  0  0
 22 44  1  0  0  0  0
 22 45  1  0  0  0  0
M  END
> <PUBCHEM_COMPOUND_CID>
24805286

> <PUBCHEM_COMPOUND_CANONICALIZED>
1

> <PUBCHEM_CACTVS_COMPLEXITY>
427

> <PUBCHEM_CACTVS_HBOND_ACCEPTOR>
4

> <PUBCHEM_CACTVS_HBOND_DONOR>
0

> <PUBCHEM_CACTVS_ROTATABLE_BOND>
2

> <PUBCHEM_CACTVS_SUBSKEYS>
AAADceB6MAAAAAAAAAAAAAAAAAAAAAAAAAA8aIEAAAAAAADxAAAAHgAAAAAADDzhmAYyCIMABACIAiDSCAACAAAkAAAAiAEICMgKJjKAtRmHMQAkwAGYqYeY7PzOwAACAAAQAACQAAaAADAgAAAAAAAAAA==

> <PUBCHEM_IUPAC_OPENEYE_NAME>
(4aR,12bR)-4-propyl-2,3,4a,5,6,8,9,12b-octahydroisochromeno[6,7-h][1,4]benzoxazin-11-one

> <PUBCHEM_IUPAC_CAS_NAME>
(4aR,12bR)-4-propyl-2,3,4a,5,6,8,9,12b-octahydro[2]benzopyrano[6,7-h][1,4]benzoxazin-11-one

> <PUBCHEM_IUPAC_NAME_MARKUP>
(4<I>a</I><I>R</I>,12<I>b</I><I>R</I>)-4-propyl-2,3,4<I>a</I>,5,6,8,9,12<I>b</I>-octahydroisochromeno[6,7-h][1,4]benzoxazin-11-one

> <PUBCHEM_IUPAC_NAME>
(4aR,12bR)-4-propyl-2,3,4a,5,6,8,9,12b-octahydroisochromeno[6,7-h][1,4]benzoxazin-11-one

> <PUBCHEM_IUPAC_SYSTEMATIC_NAME>
(4aR,12bR)-4-propyl-2,3,4a,5,6,8,9,12b-octahydroisochromeno[6,7-h][1,4]benzoxazin-11-one

> <PUBCHEM_IUPAC_TRADITIONAL_NAME>
(4aR,12bR)-4-propyl-2,3,4a,5,6,8,9,12b-octahydroisochromeno[6,7-h][1,4]benzoxazin-11-one

> <PUBCHEM_IUPAC_INCHI>
InChI=1S/C18H23NO3/c1-2-6-19-7-9-21-17-14-11-15-13(5-8-22-18(15)20)10-12(14)3-4-16(17)19/h10-11,16-17H,2-9H2,1H3/t16-,17-/m1/s1

> <PUBCHEM_IUPAC_INCHIKEY>
DWMRSXBZEPRVJO-IAGOWNOFSA-N

> <PUBCHEM_XLOGP3>
2.7

> <PUBCHEM_EXACT_MASS>
301.16779360

> <PUBCHEM_MOLECULAR_FORMULA>
C18H23NO3

> <PUBCHEM_MOLECULAR_WEIGHT>
301.4

> <PUBCHEM_OPENEYE_CAN_SMILES>
CCCN1CCOC2C1CCC3=CC4=C(C=C23)C(=O)OCC4

> <PUBCHEM_OPENEYE_ISO_SMILES>
CCCN1CCO[C@H]2[C@H]1CCC3=CC4=C(C=C23)C(=O)OCC4

> <PUBCHEM_CACTVS_TPSA>
38.8

> <PUBCHEM_MONOISOTOPIC_WEIGHT>
301.16779360

> <PUBCHEM_TOTAL_CHARGE>
0

> <PUBCHEM_HEAVY_ATOM_COUNT>
22

> <PUBCHEM_ATOM_DEF_STEREO_COUNT>
2

> <PUBCHEM_ATOM_UDEF_STEREO_COUNT>
0

> <PUBCHEM_BOND_DEF_STEREO_COUNT>
0

> <PUBCHEM_BOND_UDEF_STEREO_COUNT>
0

> <PUBCHEM_ISOTOPIC_ATOM_COUNT>
0

> <PUBCHEM_COMPONENT_COUNT>
1

> <PUBCHEM_CACTVS_TAUTO_COUNT>
-1

> <PUBCHEM_COORDINATE_TYPE>
1
5
255

> <PUBCHEM_BONDANNOTATIONS>
10  15  8
14  17  8
15  16  8
16  17  8
5  23  5
6  24  6
8  10  8
8  14  8

$$$$
