127047318
  -OEChem-09292322002D

 65 67  0     0  0  0  0  0  0999 V2000
    4.7430   10.1200    0.0000 Cl  0  0  0  0  0  0  0  0  0  0  0  0
    3.0110   11.1200    0.0000 Cl  0  0  0  0  0  0  0  0  0  0  0  0
    0.0000    6.6186    0.0000 Cl  0  0  0  0  0  0  0  0  0  0  0  0
   11.6712    5.1200    0.0000 O   0  0  0  0  0  0  0  0  0  0  0  0
    9.9392    5.1200    0.0000 O   0  0  0  0  0  0  0  0  0  0  0  0
   12.5372    0.6200    0.0000 O   0  0  0  0  0  0  0  0  0  0  0  0
    8.2071   10.1200    0.0000 N   0  0  0  0  0  0  0  0  0  0  0  0
    6.4751   11.1200    0.0000 N   0  0  0  0  0  0  0  0  0  0  0  0
   10.8052    6.6200    0.0000 N   0  0  0  0  0  0  0  0  0  0  0  0
   10.8052    0.6200    0.0000 N   0  0  0  0  0  0  0  0  0  0  0  0
    8.2071   11.1200    0.0000 C   0  0  0  0  0  0  0  0  0  0  0  0
    7.3411    9.6200    0.0000 C   0  0  0  0  0  0  0  0  0  0  0  0
    7.3411   11.6200    0.0000 C   0  0  0  0  0  0  0  0  0  0  0  0
    6.4751   10.1200    0.0000 C   0  0  0  0  0  0  0  0  0  0  0  0
    9.0731    9.6200    0.0000 C   0  0  0  0  0  0  0  0  0  0  0  0
    9.0731    8.6200    0.0000 C   0  0  0  0  0  0  0  0  0  0  0  0
    5.6090   11.6200    0.0000 C   0  0  0  0  0  0  0  0  0  0  0  0
    9.9392    8.1200    0.0000 C   0  0  0  0  0  0  0  0  0  0  0  0
    9.9392    7.1200    0.0000 C   0  0  0  0  0  0  0  0  0  0  0  0
    4.7430   11.1200    0.0000 C   0  0  0  0  0  0  0  0  0  0  0  0
    5.6090   12.6200    0.0000 C   0  0  0  0  0  0  0  0  0  0  0  0
    3.8770   11.6200    0.0000 C   0  0  0  0  0  0  0  0  0  0  0  0
    4.7430   13.1200    0.0000 C   0  0  0  0  0  0  0  0  0  0  0  0
    3.8770   12.6200    0.0000 C   0  0  0  0  0  0  0  0  0  0  0  0
   10.8052    5.6200    0.0000 C   0  0  0  0  0  0  0  0  0  0  0  0
   11.6712    4.1200    0.0000 C   0  0  0  0  0  0  0  0  0  0  0  0
   12.5372    3.6200    0.0000 C   0  0  0  0  0  0  0  0  0  0  0  0
   12.5372    2.6200    0.0000 C   0  0  0  0  0  0  0  0  0  0  0  0
   11.6712    2.1200    0.0000 C   0  0  0  0  0  0  0  0  0  0  0  0
   10.8052    3.6200    0.0000 C   0  0  0  0  0  0  0  0  0  0  0  0
   10.8052    2.6200    0.0000 C   0  0  0  0  0  0  0  0  0  0  0  0
   13.4312    4.1547    0.0000 C   0  0  0  0  0  0  0  0  0  0  0  0
   13.4312    2.0853    0.0000 C   0  0  0  0  0  0  0  0  0  0  0  0
   14.3372    3.6408    0.0000 C   0  0  0  0  0  0  0  0  0  0  0  0
   14.3372    2.5992    0.0000 C   0  0  0  0  0  0  0  0  0  0  0  0
   11.6712    1.1200    0.0000 C   0  0  0  0  0  0  0  0  0  0  0  0
    8.8177   11.0123    0.0000 H   0  0  0  0  0  0  0  0  0  0  0  0
    8.4192   11.7026    0.0000 H   0  0  0  0  0  0  0  0  0  0  0  0
    6.9426    9.1450    0.0000 H   0  0  0  0  0  0  0  0  0  0  0  0
    7.7396    9.1450    0.0000 H   0  0  0  0  0  0  0  0  0  0  0  0
    7.7396   12.0949    0.0000 H   0  0  0  0  0  0  0  0  0  0  0  0
    6.9426   12.0949    0.0000 H   0  0  0  0  0  0  0  0  0  0  0  0
    5.8645   10.2277    0.0000 H   0  0  0  0  0  0  0  0  0  0  0  0
    6.2630    9.5374    0.0000 H   0  0  0  0  0  0  0  0  0  0  0  0
    9.6837    9.5123    0.0000 H   0  0  0  0  0  0  0  0  0  0  0  0
    9.2852   10.2026    0.0000 H   0  0  0  0  0  0  0  0  0  0  0  0
    8.4626    8.7277    0.0000 H   0  0  0  0  0  0  0  0  0  0  0  0
    8.8611    8.0374    0.0000 H   0  0  0  0  0  0  0  0  0  0  0  0
   10.5497    8.0123    0.0000 H   0  0  0  0  0  0  0  0  0  0  0  0
   10.1512    8.7026    0.0000 H   0  0  0  0  0  0  0  0  0  0  0  0
    9.3286    7.2277    0.0000 H   0  0  0  0  0  0  0  0  0  0  0  0
    9.7271    6.5374    0.0000 H   0  0  0  0  0  0  0  0  0  0  0  0
    6.1460   12.9300    0.0000 H   0  0  0  0  0  0  0  0  0  0  0  0
    4.7430   13.7400    0.0000 H   0  0  0  0  0  0  0  0  0  0  0  0
   11.3421    6.9300    0.0000 H   0  0  0  0  0  0  0  0  0  0  0  0
    3.3400   12.9300    0.0000 H   0  0  0  0  0  0  0  0  0  0  0  0
   10.2682    3.9300    0.0000 H   0  0  0  0  0  0  0  0  0  0  0  0
   13.4240    4.7746    0.0000 H   0  0  0  0  0  0  0  0  0  0  0  0
   10.2682    2.3100    0.0000 H   0  0  0  0  0  0  0  0  0  0  0  0
   13.4240    1.4654    0.0000 H   0  0  0  0  0  0  0  0  0  0  0  0
   14.8730    3.9529    0.0000 H   0  0  0  0  0  0  0  0  0  0  0  0
   14.8730    2.2871    0.0000 H   0  0  0  0  0  0  0  0  0  0  0  0
   10.8052    0.0000    0.0000 H   0  0  0  0  0  0  0  0  0  0  0  0
   10.2682    0.9300    0.0000 H   0  0  0  0  0  0  0  0  0  0  0  0
    1.0000    6.6186    0.0000 H   0  0  0  0  0  0  0  0  0  0  0  0
  1 20  1  0  0  0  0
  2 22  1  0  0  0  0
  3 65  1  0  0  0  0
  4 25  1  0  0  0  0
  4 26  1  0  0  0  0
  5 25  2  0  0  0  0
  6 36  2  0  0  0  0
  7 11  1  0  0  0  0
  7 12  1  0  0  0  0
  7 15  1  0  0  0  0
  8 13  1  0  0  0  0
  8 14  1  0  0  0  0
  8 17  1  0  0  0  0
  9 19  1  0  0  0  0
  9 25  1  0  0  0  0
  9 55  1  0  0  0  0
 10 36  1  0  0  0  0
 10 63  1  0  0  0  0
 10 64  1  0  0  0  0
 11 13  1  0  0  0  0
 11 37  1  0  0  0  0
 11 38  1  0  0  0  0
 12 14  1  0  0  0  0
 12 39  1  0  0  0  0
 12 40  1  0  0  0  0
 13 41  1  0  0  0  0
 13 42  1  0  0  0  0
 14 43  1  0  0  0  0
 14 44  1  0  0  0  0
 15 16  1  0  0  0  0
 15 45  1  0  0  0  0
 15 46  1  0  0  0  0
 16 18  1  0  0  0  0
 16 47  1  0  0  0  0
 16 48  1  0  0  0  0
 17 20  2  0  0  0  0
 17 21  1  0  0  0  0
 18 19  1  0  0  0  0
 18 49  1  0  0  0  0
 18 50  1  0  0  0  0
 19 51  1  0  0  0  0
 19 52  1  0  0  0  0
 20 22  1  0  0  0  0
 21 23  2  0  0  0  0
 21 53  1  0  0  0  0
 22 24  2  0  0  0  0
 23 24  1  0  0  0  0
 23 54  1  0  0  0  0
 24 56  1  0  0  0  0
 26 27  1  0  0  0  0
 26 30  2  0  0  0  0
 27 28  1  0  0  0  0
 27 32  2  0  0  0  0
 28 29  1  0  0  0  0
 28 33  2  0  0  0  0
 29 31  2  0  0  0  0
 29 36  1  0  0  0  0
 30 31  1  0  0  0  0
 30 57  1  0  0  0  0
 31 59  1  0  0  0  0
 32 34  1  0  0  0  0
 32 58  1  0  0  0  0
 33 35  1  0  0  0  0
 33 60  1  0  0  0  0
 34 35  2  0  0  0  0
 34 61  1  0  0  0  0
 35 62  1  0  0  0  0
M  END
> <PUBCHEM_COMPOUND_CID>
127047318

> <PUBCHEM_COMPOUND_CANONICALIZED>
1

> <PUBCHEM_CACTVS_COMPLEXITY>
706

> <PUBCHEM_CACTVS_HBOND_ACCEPTOR>
5

> <PUBCHEM_CACTVS_HBOND_DONOR>
3

> <PUBCHEM_CACTVS_ROTATABLE_BOND>
9

> <PUBCHEM_CACTVS_SUBSKEYS>
AAADceB7sAAGAAAAAAAAAAAAAAAAAAAAAAA8YMEAAAAAAADBVAAAHgIQAAAADA7BmCQwzsPABACIAiVSWACCCAAlJwAIisEObskMZjLFt5vcMyhk1hHI6YeY3PDOoAADAAIYABRAAAYABDAAKAAAAAAAAA==

> <PUBCHEM_IUPAC_OPENEYE_NAME>
(4-carbamoyl-1-naphthyl) N-[4-[4-(2,3-dichlorophenyl)piperazin-1-yl]butyl]carbamate;hydrochloride

> <PUBCHEM_IUPAC_CAS_NAME>
N-[4-[4-(2,3-dichlorophenyl)-1-piperazinyl]butyl]carbamic acid (4-carbamoyl-1-naphthalenyl) ester;hydrochloride

> <PUBCHEM_IUPAC_NAME_MARKUP>
(4-carbamoylnaphthalen-1-yl) <I>N</I>-[4-[4-(2,3-dichlorophenyl)piperazin-1-yl]butyl]carbamate;hydrochloride

> <PUBCHEM_IUPAC_NAME>
(4-carbamoylnaphthalen-1-yl) N-[4-[4-(2,3-dichlorophenyl)piperazin-1-yl]butyl]carbamate;hydrochloride

> <PUBCHEM_IUPAC_SYSTEMATIC_NAME>
(4-aminocarbonylnaphthalen-1-yl) N-[4-[4-[2,3-bis(chloranyl)phenyl]piperazin-1-yl]butyl]carbamate;hydrochloride

> <PUBCHEM_IUPAC_TRADITIONAL_NAME>
N-[4-[4-(2,3-dichlorophenyl)piperazino]butyl]carbamic acid (4-carbamoyl-1-naphthyl) ester;hydrochloride

> <PUBCHEM_IUPAC_INCHI>
InChI=1S/C26H28Cl2N4O3.ClH/c27-21-8-5-9-22(24(21)28)32-16-14-31(15-17-32)13-4-3-12-30-26(34)35-23-11-10-20(25(29)33)18-6-1-2-7-19(18)23;/h1-2,5-11H,3-4,12-17H2,(H2,29,33)(H,30,34);1H

> <PUBCHEM_IUPAC_INCHIKEY>
MELPQKYOKCNEFX-UHFFFAOYSA-N

> <PUBCHEM_EXACT_MASS>
550.130524

> <PUBCHEM_MOLECULAR_FORMULA>
C26H29Cl3N4O3

> <PUBCHEM_MOLECULAR_WEIGHT>
551.9

> <PUBCHEM_OPENEYE_CAN_SMILES>
C1CN(CCN1CCCCNC(=O)OC2=CC=C(C3=CC=CC=C32)C(=O)N)C4=C(C(=CC=C4)Cl)Cl.Cl

> <PUBCHEM_OPENEYE_ISO_SMILES>
C1CN(CCN1CCCCNC(=O)OC2=CC=C(C3=CC=CC=C32)C(=O)N)C4=C(C(=CC=C4)Cl)Cl.Cl

> <PUBCHEM_CACTVS_TPSA>
87.9

> <PUBCHEM_MONOISOTOPIC_WEIGHT>
550.130524

> <PUBCHEM_TOTAL_CHARGE>
0

> <PUBCHEM_HEAVY_ATOM_COUNT>
36

> <PUBCHEM_ATOM_DEF_STEREO_COUNT>
0

> <PUBCHEM_ATOM_UDEF_STEREO_COUNT>
0

> <PUBCHEM_BOND_DEF_STEREO_COUNT>
0

> <PUBCHEM_BOND_UDEF_STEREO_COUNT>
0

> <PUBCHEM_ISOTOPIC_ATOM_COUNT>
0

> <PUBCHEM_COMPONENT_COUNT>
2

> <PUBCHEM_CACTVS_TAUTO_COUNT>
-1

> <PUBCHEM_COORDINATE_TYPE>
1
5
255

> <PUBCHEM_BONDANNOTATIONS>
17  20  8
17  21  8
20  22  8
21  23  8
22  24  8
23  24  8
26  27  8
26  30  8
27  28  8
27  32  8
28  29  8
28  33  8
29  31  8
30  31  8
32  34  8
33  35  8
34  35  8

$$$$
