137633662
  -OEChem-09292322082D

 55 59  0     1  0  0  0  0  0999 V2000
   13.4564    1.5146    0.0000 O   0  0  0  0  0  0  0  0  0  0  0  0
    7.2602    0.5146    0.0000 N   0  0  3  0  0  0  0  0  0  0  0  0
   12.5904    0.0146    0.0000 N   0  0  0  0  0  0  0  0  0  0  0  0
   14.4255   -0.9741    0.0000 N   0  0  0  0  0  0  0  0  0  0  0  0
   15.8973   -2.0493    0.0000 N   0  0  0  0  0  0  0  0  0  0  0  0
    2.0000   -0.5128    0.0000 N   0  0  0  0  0  0  0  0  0  0  0  0
    8.9923    0.5146    0.0000 C   0  0  1  0  0  0  0  0  0  0  0  0
    9.9923    0.5146    0.0000 C   0  0  1  0  0  0  0  0  0  0  0  0
    9.4923    1.3807    0.0000 C   0  0  0  0  0  0  0  0  0  0  0  0
    8.1263    0.0146    0.0000 C   0  0  0  0  0  0  0  0  0  0  0  0
   10.8583    0.0146    0.0000 C   0  0  0  0  0  0  0  0  0  0  0  0
   11.7243    0.5146    0.0000 C   0  0  0  0  0  0  0  0  0  0  0  0
    7.2602    1.5146    0.0000 C   0  0  0  0  0  0  0  0  0  0  0  0
    6.3942    0.0146    0.0000 C   0  0  0  0  0  0  0  0  0  0  0  0
    6.3942    2.0146    0.0000 C   0  0  0  0  0  0  0  0  0  0  0  0
    5.5282    0.5146    0.0000 C   0  0  0  0  0  0  0  0  0  0  0  0
    5.5282    1.5146    0.0000 C   0  0  0  0  0  0  0  0  0  0  0  0
    4.6342   -0.0200    0.0000 C   0  0  0  0  0  0  0  0  0  0  0  0
    4.6342    2.0493    0.0000 C   0  0  0  0  0  0  0  0  0  0  0  0
   13.4564    0.5146    0.0000 C   0  0  0  0  0  0  0  0  0  0  0  0
    3.7282    0.4938    0.0000 C   0  0  0  0  0  0  0  0  0  0  0  0
    3.7282    1.5355    0.0000 C   0  0  0  0  0  0  0  0  0  0  0  0
   14.3224    0.0146    0.0000 C   0  0  0  0  0  0  0  0  0  0  0  0
   15.2302    0.4198    0.0000 C   0  0  0  0  0  0  0  0  0  0  0  0
    2.8641   -0.0095    0.0000 C   0  0  0  0  0  0  0  0  0  0  0  0
   15.8973   -0.3173    0.0000 C   0  0  0  0  0  0  0  0  0  0  0  0
   15.3973   -1.1833    0.0000 C   0  0  0  0  0  0  0  0  0  0  0  0
   16.8973   -0.3173    0.0000 C   0  0  0  0  0  0  0  0  0  0  0  0
   17.3973   -1.1833    0.0000 C   0  0  0  0  0  0  0  0  0  0  0  0
   16.8973   -2.0493    0.0000 C   0  0  0  0  0  0  0  0  0  0  0  0
    9.1528   -0.0842    0.0000 H   0  0  0  0  0  0  0  0  0  0  0  0
   10.4307    0.9531    0.0000 H   0  0  0  0  0  0  0  0  0  0  0  0
    9.9672    1.7792    0.0000 H   0  0  0  0  0  0  0  0  0  0  0  0
    9.0174    1.7792    0.0000 H   0  0  0  0  0  0  0  0  0  0  0  0
    7.7277   -0.4603    0.0000 H   0  0  0  0  0  0  0  0  0  0  0  0
    8.5248   -0.4603    0.0000 H   0  0  0  0  0  0  0  0  0  0  0  0
   10.4598   -0.4603    0.0000 H   0  0  0  0  0  0  0  0  0  0  0  0
   11.2568   -0.4603    0.0000 H   0  0  0  0  0  0  0  0  0  0  0  0
   12.1229    0.9896    0.0000 H   0  0  0  0  0  0  0  0  0  0  0  0
   11.3258    0.9896    0.0000 H   0  0  0  0  0  0  0  0  0  0  0  0
    7.8708    1.4070    0.0000 H   0  0  0  0  0  0  0  0  0  0  0  0
    7.4723    2.0972    0.0000 H   0  0  0  0  0  0  0  0  0  0  0  0
    5.9957   -0.4603    0.0000 H   0  0  0  0  0  0  0  0  0  0  0  0
    6.7928   -0.4603    0.0000 H   0  0  0  0  0  0  0  0  0  0  0  0
    6.7928    2.4896    0.0000 H   0  0  0  0  0  0  0  0  0  0  0  0
    5.9957    2.4896    0.0000 H   0  0  0  0  0  0  0  0  0  0  0  0
   12.5904   -0.6054    0.0000 H   0  0  0  0  0  0  0  0  0  0  0  0
    4.6414   -0.6400    0.0000 H   0  0  0  0  0  0  0  0  0  0  0  0
    4.6414    2.6693    0.0000 H   0  0  0  0  0  0  0  0  0  0  0  0
    3.1924    1.8475    0.0000 H   0  0  0  0  0  0  0  0  0  0  0  0
   15.3581    1.0264    0.0000 H   0  0  0  0  0  0  0  0  0  0  0  0
   13.9640   -1.3881    0.0000 H   0  0  0  0  0  0  0  0  0  0  0  0
   17.2073    0.2197    0.0000 H   0  0  0  0  0  0  0  0  0  0  0  0
   18.0173   -1.1833    0.0000 H   0  0  0  0  0  0  0  0  0  0  0  0
   17.2073   -2.5862    0.0000 H   0  0  0  0  0  0  0  0  0  0  0  0
  1 20  2  0  0  0  0
  2 10  1  0  0  0  0
  2 13  1  0  0  0  0
  2 14  1  0  0  0  0
  3 12  1  0  0  0  0
  3 20  1  0  0  0  0
  3 47  1  0  0  0  0
  4 23  1  0  0  0  0
  4 27  1  0  0  0  0
  4 52  1  0  0  0  0
  5 27  1  0  0  0  0
  5 30  2  0  0  0  0
  6 25  3  0  0  0  0
  7  8  1  0  0  0  0
  7  9  1  0  0  0  0
  7 10  1  6  0  0  0
  7 31  1  0  0  0  0
  8  9  1  0  0  0  0
  8 11  1  1  0  0  0
  8 32  1  0  0  0  0
  9 33  1  0  0  0  0
  9 34  1  0  0  0  0
 10 35  1  0  0  0  0
 10 36  1  0  0  0  0
 11 12  1  0  0  0  0
 11 37  1  0  0  0  0
 11 38  1  0  0  0  0
 12 39  1  0  0  0  0
 12 40  1  0  0  0  0
 13 15  1  0  0  0  0
 13 41  1  0  0  0  0
 13 42  1  0  0  0  0
 14 16  1  0  0  0  0
 14 43  1  0  0  0  0
 14 44  1  0  0  0  0
 15 17  1  0  0  0  0
 15 45  1  0  0  0  0
 15 46  1  0  0  0  0
 16 17  2  0  0  0  0
 16 18  1  0  0  0  0
 17 19  1  0  0  0  0
 18 21  2  0  0  0  0
 18 48  1  0  0  0  0
 19 22  2  0  0  0  0
 19 49  1  0  0  0  0
 20 23  1  0  0  0  0
 21 22  1  0  0  0  0
 21 25  1  0  0  0  0
 22 50  1  0  0  0  0
 23 24  2  0  0  0  0
 24 26  1  0  0  0  0
 24 51  1  0  0  0  0
 26 27  2  0  0  0  0
 26 28  1  0  0  0  0
 28 29  2  0  0  0  0
 28 53  1  0  0  0  0
 29 30  1  0  0  0  0
 29 54  1  0  0  0  0
 30 55  1  0  0  0  0
M  END
> <PUBCHEM_COMPOUND_CID>
137633662

> <PUBCHEM_COMPOUND_CANONICALIZED>
1

> <PUBCHEM_CACTVS_COMPLEXITY>
674

> <PUBCHEM_CACTVS_HBOND_ACCEPTOR>
4

> <PUBCHEM_CACTVS_HBOND_DONOR>
2

> <PUBCHEM_CACTVS_ROTATABLE_BOND>
6

> <PUBCHEM_CACTVS_SUBSKEYS>
AAADceB7oAAAAAAAAAAAAAAAGAAAAWAAAAA8WIAAAAAAAFix/AAAHgAQAAAADQjBnwQ9sN/JkAC4Bzd3dACigCm3AqAJ2aG4ZNiI6PLAnbGUIQholgLIya8YicCOwAACAAAQAACAAAQAACAAAAAAAAAAAA==

> <PUBCHEM_IUPAC_OPENEYE_NAME>
N-[2-[(1S,2R)-2-[(7-cyano-3,4-dihydro-1H-isoquinolin-2-yl)methyl]cyclopropyl]ethyl]-1H-pyrrolo[2,3-b]pyridine-2-carboxamide

> <PUBCHEM_IUPAC_CAS_NAME>
N-[2-[(1S,2R)-2-[(7-cyano-3,4-dihydro-1H-isoquinolin-2-yl)methyl]cyclopropyl]ethyl]-1H-pyrrolo[2,3-b]pyridine-2-carboxamide

> <PUBCHEM_IUPAC_NAME_MARKUP>
<I>N</I>-[2-[(1<I>S</I>,2<I>R</I>)-2-[(7-cyano-3,4-dihydro-1<I>H</I>-isoquinolin-2-yl)methyl]cyclopropyl]ethyl]-1<I>H</I>-pyrrolo[2,3-b]pyridine-2-carboxamide

> <PUBCHEM_IUPAC_NAME>
N-[2-[(1S,2R)-2-[(7-cyano-3,4-dihydro-1H-isoquinolin-2-yl)methyl]cyclopropyl]ethyl]-1H-pyrrolo[2,3-b]pyridine-2-carboxamide

> <PUBCHEM_IUPAC_SYSTEMATIC_NAME>
N-[2-[(1S,2R)-2-[(7-cyano-3,4-dihydro-1H-isoquinolin-2-yl)methyl]cyclopropyl]ethyl]-1H-pyrrolo[2,3-b]pyridine-2-carboxamide

> <PUBCHEM_IUPAC_TRADITIONAL_NAME>
N-[2-[(1S,2R)-2-[(7-cyano-3,4-dihydro-1H-isoquinolin-2-yl)methyl]cyclopropyl]ethyl]-1H-pyrrolo[2,3-b]pyridine-2-carboxamide

> <PUBCHEM_IUPAC_INCHI>
InChI=1S/C24H25N5O/c25-13-16-3-4-17-6-9-29(14-20(17)10-16)15-21-11-18(21)5-8-27-24(30)22-12-19-2-1-7-26-23(19)28-22/h1-4,7,10,12,18,21H,5-6,8-9,11,14-15H2,(H,26,28)(H,27,30)/t18-,21+/m1/s1

> <PUBCHEM_IUPAC_INCHIKEY>
ZXMQIPPBQZMPBZ-NQIIRXRSSA-N

> <PUBCHEM_XLOGP3_AA>
3.2

> <PUBCHEM_EXACT_MASS>
399.20591044

> <PUBCHEM_MOLECULAR_FORMULA>
C24H25N5O

> <PUBCHEM_MOLECULAR_WEIGHT>
399.5

> <PUBCHEM_OPENEYE_CAN_SMILES>
C1CN(CC2=C1C=CC(=C2)C#N)CC3CC3CCNC(=O)C4=CC5=C(N4)N=CC=C5

> <PUBCHEM_OPENEYE_ISO_SMILES>
C1CN(CC2=C1C=CC(=C2)C#N)C[C@@H]3C[C@H]3CCNC(=O)C4=CC5=C(N4)N=CC=C5

> <PUBCHEM_CACTVS_TPSA>
84.8

> <PUBCHEM_MONOISOTOPIC_WEIGHT>
399.20591044

> <PUBCHEM_TOTAL_CHARGE>
0

> <PUBCHEM_HEAVY_ATOM_COUNT>
30

> <PUBCHEM_ATOM_DEF_STEREO_COUNT>
2

> <PUBCHEM_ATOM_UDEF_STEREO_COUNT>
0

> <PUBCHEM_BOND_DEF_STEREO_COUNT>
0

> <PUBCHEM_BOND_UDEF_STEREO_COUNT>
0

> <PUBCHEM_ISOTOPIC_ATOM_COUNT>
0

> <PUBCHEM_COMPONENT_COUNT>
1

> <PUBCHEM_CACTVS_TAUTO_COUNT>
-1

> <PUBCHEM_COORDINATE_TYPE>
1
5
255

> <PUBCHEM_BONDANNOTATIONS>
16  17  8
16  18  8
17  19  8
18  21  8
19  22  8
21  22  8
23  24  8
24  26  8
26  27  8
26  28  8
28  29  8
29  30  8
4  23  8
4  27  8
5  27  8
5  30  8
7  10  6
8  11  5

$$$$
