722483
  -OEChem-09292322092D

 36 39  0     0  0  0  0  0  0999 V2000
    4.5274    2.5829    0.0000 S   0  0  0  0  0  0  0  0  0  0  0  0
    4.7524   -2.5829    0.0000 O   0  0  0  0  0  0  0  0  0  0  0  0
    5.3923   -0.6881    0.0000 N   0  0  0  0  0  0  0  0  0  0  0  0
    6.7328    0.4680    0.0000 N   0  0  0  0  0  0  0  0  0  0  0  0
    6.3518    2.2274    0.0000 N   0  0  0  0  0  0  0  0  0  0  0  0
    4.0274    1.0441    0.0000 C   0  0  0  0  0  0  0  0  0  0  0  0
    3.3424    0.2593    0.0000 C   0  0  0  0  0  0  0  0  0  0  0  0
    2.3219    0.4680    0.0000 C   0  0  0  0  0  0  0  0  0  0  0  0
    3.7183    1.9951    0.0000 C   0  0  0  0  0  0  0  0  0  0  0  0
    2.0000    1.4587    0.0000 C   0  0  0  0  0  0  0  0  0  0  0  0
    2.7029    2.2274    0.0000 C   0  0  0  0  0  0  0  0  0  0  0  0
    5.0274    1.0441    0.0000 C   0  0  0  0  0  0  0  0  0  0  0  0
    5.7123    0.2593    0.0000 C   0  0  0  0  0  0  0  0  0  0  0  0
    6.0528   -1.4389    0.0000 C   0  0  0  0  0  0  0  0  0  0  0  0
    4.4118   -0.8847    0.0000 C   0  0  0  0  0  0  0  0  0  0  0  0
    5.3364    1.9951    0.0000 C   0  0  0  0  0  0  0  0  0  0  0  0
    5.7328   -2.3863    0.0000 C   0  0  0  0  0  0  0  0  0  0  0  0
    4.0919   -1.8321    0.0000 C   0  0  0  0  0  0  0  0  0  0  0  0
    7.0547    1.4587    0.0000 C   0  0  0  0  0  0  0  0  0  0  0  0
    3.1160   -0.3179    0.0000 H   0  0  0  0  0  0  0  0  0  0  0  0
    3.8724   -0.0624    0.0000 H   0  0  0  0  0  0  0  0  0  0  0  0
    1.7081    0.3802    0.0000 H   0  0  0  0  0  0  0  0  0  0  0  0
    2.3034   -0.1517    0.0000 H   0  0  0  0  0  0  0  0  0  0  0  0
    1.6208    1.9492    0.0000 H   0  0  0  0  0  0  0  0  0  0  0  0
    1.4518    1.1690    0.0000 H   0  0  0  0  0  0  0  0  0  0  0  0
    2.9426    2.7992    0.0000 H   0  0  0  0  0  0  0  0  0  0  0  0
    2.1806    2.5613    0.0000 H   0  0  0  0  0  0  0  0  0  0  0  0
    6.5968   -1.7363    0.0000 H   0  0  0  0  0  0  0  0  0  0  0  0
    6.4402   -0.9548    0.0000 H   0  0  0  0  0  0  0  0  0  0  0  0
    4.3974   -0.2648    0.0000 H   0  0  0  0  0  0  0  0  0  0  0  0
    3.7989   -0.7913    0.0000 H   0  0  0  0  0  0  0  0  0  0  0  0
    5.7473   -3.0062    0.0000 H   0  0  0  0  0  0  0  0  0  0  0  0
    6.3458   -2.4797    0.0000 H   0  0  0  0  0  0  0  0  0  0  0  0
    3.5478   -1.5347    0.0000 H   0  0  0  0  0  0  0  0  0  0  0  0
    3.7045   -2.3162    0.0000 H   0  0  0  0  0  0  0  0  0  0  0  0
    7.6607    1.5899    0.0000 H   0  0  0  0  0  0  0  0  0  0  0  0
  1  9  1  0  0  0  0
  1 16  1  0  0  0  0
  2 17  1  0  0  0  0
  2 18  1  0  0  0  0
  3 13  1  0  0  0  0
  3 14  1  0  0  0  0
  3 15  1  0  0  0  0
  4 13  1  0  0  0  0
  4 19  2  0  0  0  0
  5 16  2  0  0  0  0
  5 19  1  0  0  0  0
  6  7  1  0  0  0  0
  6  9  2  0  0  0  0
  6 12  1  0  0  0  0
  7  8  1  0  0  0  0
  7 20  1  0  0  0  0
  7 21  1  0  0  0  0
  8 10  1  0  0  0  0
  8 22  1  0  0  0  0
  8 23  1  0  0  0  0
  9 11  1  0  0  0  0
 10 11  1  0  0  0  0
 10 24  1  0  0  0  0
 10 25  1  0  0  0  0
 11 26  1  0  0  0  0
 11 27  1  0  0  0  0
 12 13  2  0  0  0  0
 12 16  1  0  0  0  0
 14 17  1  0  0  0  0
 14 28  1  0  0  0  0
 14 29  1  0  0  0  0
 15 18  1  0  0  0  0
 15 30  1  0  0  0  0
 15 31  1  0  0  0  0
 17 32  1  0  0  0  0
 17 33  1  0  0  0  0
 18 34  1  0  0  0  0
 18 35  1  0  0  0  0
 19 36  1  0  0  0  0
M  END
> <PUBCHEM_COMPOUND_CID>
722483

> <PUBCHEM_COMPOUND_CANONICALIZED>
1

> <PUBCHEM_CACTVS_COMPLEXITY>
324

> <PUBCHEM_CACTVS_HBOND_ACCEPTOR>
5

> <PUBCHEM_CACTVS_HBOND_DONOR>
0

> <PUBCHEM_CACTVS_ROTATABLE_BOND>
1

> <PUBCHEM_CACTVS_SUBSKEYS>
AAADceBzIABAAAAAAAAAAAAAAAAAASAAAAA8WIAAAAAAAFgB+AAAHgQAAAAADADh2gYFsdcIFAikAgJhZACD0KlxCLgB2DAoRJiKKCLg2NGHBAxogAL4yCcQgMAOgAAAAAAAAAAAAAAAAAgAAAAAAAAAAA==

> <PUBCHEM_IUPAC_OPENEYE_NAME>
4-(5,6,7,8-tetrahydrobenzothiopheno[2,3-d]pyrimidin-4-yl)morpholine

> <PUBCHEM_IUPAC_CAS_NAME>
4-(5,6,7,8-tetrahydro-[1]benzothiolo[2,3-d]pyrimidin-4-yl)morpholine

> <PUBCHEM_IUPAC_NAME_MARKUP>
4-(5,6,7,8-tetrahydro-[1]benzothiolo[2,3-d]pyrimidin-4-yl)morpholine

> <PUBCHEM_IUPAC_NAME>
4-(5,6,7,8-tetrahydro-[1]benzothiolo[2,3-d]pyrimidin-4-yl)morpholine

> <PUBCHEM_IUPAC_SYSTEMATIC_NAME>
4-(5,6,7,8-tetrahydro-[1]benzothiolo[2,3-d]pyrimidin-4-yl)morpholine

> <PUBCHEM_IUPAC_TRADITIONAL_NAME>
4-(5,6,7,8-tetrahydrobenzothiopheno[2,3-d]pyrimidin-4-yl)morpholine

> <PUBCHEM_IUPAC_INCHI>
InChI=1S/C14H17N3OS/c1-2-4-11-10(3-1)12-13(15-9-16-14(12)19-11)17-5-7-18-8-6-17/h9H,1-8H2

> <PUBCHEM_IUPAC_INCHIKEY>
YZMBSTGTZZZUEY-UHFFFAOYSA-N

> <PUBCHEM_XLOGP3_AA>
2.9

> <PUBCHEM_EXACT_MASS>
275.10923335

> <PUBCHEM_MOLECULAR_FORMULA>
C14H17N3OS

> <PUBCHEM_MOLECULAR_WEIGHT>
275.37

> <PUBCHEM_OPENEYE_CAN_SMILES>
C1CCC2=C(C1)C3=C(N=CN=C3S2)N4CCOCC4

> <PUBCHEM_OPENEYE_ISO_SMILES>
C1CCC2=C(C1)C3=C(N=CN=C3S2)N4CCOCC4

> <PUBCHEM_CACTVS_TPSA>
66.5

> <PUBCHEM_MONOISOTOPIC_WEIGHT>
275.10923335

> <PUBCHEM_TOTAL_CHARGE>
0

> <PUBCHEM_HEAVY_ATOM_COUNT>
19

> <PUBCHEM_ATOM_DEF_STEREO_COUNT>
0

> <PUBCHEM_ATOM_UDEF_STEREO_COUNT>
0

> <PUBCHEM_BOND_DEF_STEREO_COUNT>
0

> <PUBCHEM_BOND_UDEF_STEREO_COUNT>
0

> <PUBCHEM_ISOTOPIC_ATOM_COUNT>
0

> <PUBCHEM_COMPONENT_COUNT>
1

> <PUBCHEM_CACTVS_TAUTO_COUNT>
1

> <PUBCHEM_COORDINATE_TYPE>
1
5
255

> <PUBCHEM_BONDANNOTATIONS>
1  16  8
1  9  8
12  13  8
12  16  8
4  13  8
4  19  8
5  16  8
5  19  8
6  12  8
6  9  8

$$$$
