11209208
  -OEChem-09292322072D

 45 47  0     1  0  0  0  0  0999 V2000
    3.6750   -3.3378    0.0000 S   0  0  0  0  0  0  0  0  0  0  0  0
    2.0000    1.7500    0.0000 O   0  0  0  0  0  0  0  0  0  0  0  0
    3.7320    2.7500    0.0000 N   0  0  0  0  0  0  0  0  0  0  0  0
    3.7320    1.7500    0.0000 C   0  0  3  0  0  0  0  0  0  0  0  0
    4.5411    3.3378    0.0000 C   0  0  0  0  0  0  0  0  0  0  0  0
    2.9230    3.3378    0.0000 C   0  0  0  0  0  0  0  0  0  0  0  0
    4.2320    4.2888    0.0000 C   0  0  0  0  0  0  0  0  0  0  0  0
    3.2320    4.2888    0.0000 C   0  0  0  0  0  0  0  0  0  0  0  0
    4.5981    1.2500    0.0000 C   0  0  0  0  0  0  0  0  0  0  0  0
    2.8660    1.2500    0.0000 C   0  0  0  0  0  0  0  0  0  0  0  0
    5.4641    1.7500    0.0000 C   0  0  0  0  0  0  0  0  0  0  0  0
    2.8660    0.2500    0.0000 C   0  0  0  0  0  0  0  0  0  0  0  0
    6.3301    1.2500    0.0000 C   0  0  0  0  0  0  0  0  0  0  0  0
    2.0000   -0.2500    0.0000 C   0  0  0  0  0  0  0  0  0  0  0  0
    3.7320   -0.2500    0.0000 C   0  0  0  0  0  0  0  0  0  0  0  0
    2.0000   -1.2500    0.0000 C   0  0  0  0  0  0  0  0  0  0  0  0
    3.7320   -1.2500    0.0000 C   0  0  0  0  0  0  0  0  0  0  0  0
    2.8660   -1.7500    0.0000 C   0  0  0  0  0  0  0  0  0  0  0  0
    2.8660   -2.7500    0.0000 C   0  0  0  0  0  0  0  0  0  0  0  0
    2.0570   -3.3378    0.0000 C   0  0  0  0  0  0  0  0  0  0  0  0
    2.3660   -4.2888    0.0000 C   0  0  0  0  0  0  0  0  0  0  0  0
    3.3660   -4.2888    0.0000 C   0  0  0  0  0  0  0  0  0  0  0  0
    4.2690    2.0600    0.0000 H   0  0  0  0  0  0  0  0  0  0  0  0
    4.8511    2.8008    0.0000 H   0  0  0  0  0  0  0  0  0  0  0  0
    5.1075    3.5900    0.0000 H   0  0  0  0  0  0  0  0  0  0  0  0
    2.3566    3.5900    0.0000 H   0  0  0  0  0  0  0  0  0  0  0  0
    2.6130    2.8008    0.0000 H   0  0  0  0  0  0  0  0  0  0  0  0
    4.8385    4.4178    0.0000 H   0  0  0  0  0  0  0  0  0  0  0  0
    4.1672    4.9054    0.0000 H   0  0  0  0  0  0  0  0  0  0  0  0
    3.2969    4.9054    0.0000 H   0  0  0  0  0  0  0  0  0  0  0  0
    2.6256    4.4178    0.0000 H   0  0  0  0  0  0  0  0  0  0  0  0
    4.1996    0.7751    0.0000 H   0  0  0  0  0  0  0  0  0  0  0  0
    4.9966    0.7751    0.0000 H   0  0  0  0  0  0  0  0  0  0  0  0
    5.8626    2.2250    0.0000 H   0  0  0  0  0  0  0  0  0  0  0  0
    5.0656    2.2250    0.0000 H   0  0  0  0  0  0  0  0  0  0  0  0
    6.0201    0.7131    0.0000 H   0  0  0  0  0  0  0  0  0  0  0  0
    6.8671    0.9400    0.0000 H   0  0  0  0  0  0  0  0  0  0  0  0
    6.6401    1.7869    0.0000 H   0  0  0  0  0  0  0  0  0  0  0  0
    1.4631    0.0600    0.0000 H   0  0  0  0  0  0  0  0  0  0  0  0
    4.2690    0.0600    0.0000 H   0  0  0  0  0  0  0  0  0  0  0  0
    1.4631   -1.5600    0.0000 H   0  0  0  0  0  0  0  0  0  0  0  0
    4.2690   -1.5600    0.0000 H   0  0  0  0  0  0  0  0  0  0  0  0
    1.4674   -3.1462    0.0000 H   0  0  0  0  0  0  0  0  0  0  0  0
    2.0016   -4.7904    0.0000 H   0  0  0  0  0  0  0  0  0  0  0  0
    3.7304   -4.7904    0.0000 H   0  0  0  0  0  0  0  0  0  0  0  0
  1 19  1  0  0  0  0
  1 22  1  0  0  0  0
  2 10  2  0  0  0  0
  3  4  1  0  0  0  0
  3  5  1  0  0  0  0
  3  6  1  0  0  0  0
  4  9  1  0  0  0  0
  4 10  1  0  0  0  0
  4 23  1  0  0  0  0
  5  7  1  0  0  0  0
  5 24  1  0  0  0  0
  5 25  1  0  0  0  0
  6  8  1  0  0  0  0
  6 26  1  0  0  0  0
  6 27  1  0  0  0  0
  7  8  1  0  0  0  0
  7 28  1  0  0  0  0
  7 29  1  0  0  0  0
  8 30  1  0  0  0  0
  8 31  1  0  0  0  0
  9 11  1  0  0  0  0
  9 32  1  0  0  0  0
  9 33  1  0  0  0  0
 10 12  1  0  0  0  0
 11 13  1  0  0  0  0
 11 34  1  0  0  0  0
 11 35  1  0  0  0  0
 12 14  2  0  0  0  0
 12 15  1  0  0  0  0
 13 36  1  0  0  0  0
 13 37  1  0  0  0  0
 13 38  1  0  0  0  0
 14 16  1  0  0  0  0
 14 39  1  0  0  0  0
 15 17  2  0  0  0  0
 15 40  1  0  0  0  0
 16 18  2  0  0  0  0
 16 41  1  0  0  0  0
 17 18  1  0  0  0  0
 17 42  1  0  0  0  0
 18 19  1  0  0  0  0
 19 20  2  0  0  0  0
 20 21  1  0  0  0  0
 20 43  1  0  0  0  0
 21 22  2  0  0  0  0
 21 44  1  0  0  0  0
 22 45  1  0  0  0  0
M  END
> <PUBCHEM_COMPOUND_CID>
11209208

> <PUBCHEM_COMPOUND_CANONICALIZED>
1

> <PUBCHEM_CACTVS_COMPLEXITY>
358

> <PUBCHEM_CACTVS_HBOND_ACCEPTOR>
3

> <PUBCHEM_CACTVS_HBOND_DONOR>
0

> <PUBCHEM_CACTVS_ROTATABLE_BOND>
6

> <PUBCHEM_CACTVS_SUBSKEYS>
AAADceB6IABAAAAAAAAAAAAAAAAAAWJAAAAwAAAAAAAAAAABwAAAHgQAAAAADCzF2ASyAYMAAAiMAqBSAAADAIAkCBBIiBmIAMgIIDKglTGEIQAggACoiYcYiMCOQAAAAAAAAACAAAAAAAAAAAAAAAAAAA==

> <PUBCHEM_IUPAC_OPENEYE_NAME>
2-pyrrolidin-1-yl-1-[4-(2-thienyl)phenyl]pentan-1-one

> <PUBCHEM_IUPAC_CAS_NAME>
2-(1-pyrrolidinyl)-1-(4-thiophen-2-ylphenyl)-1-pentanone

> <PUBCHEM_IUPAC_NAME_MARKUP>
2-pyrrolidin-1-yl-1-(4-thiophen-2-ylphenyl)pentan-1-one

> <PUBCHEM_IUPAC_NAME>
2-pyrrolidin-1-yl-1-(4-thiophen-2-ylphenyl)pentan-1-one

> <PUBCHEM_IUPAC_SYSTEMATIC_NAME>
2-pyrrolidin-1-yl-1-(4-thiophen-2-ylphenyl)pentan-1-one

> <PUBCHEM_IUPAC_TRADITIONAL_NAME>
2-pyrrolidino-1-[4-(2-thienyl)phenyl]pentan-1-one

> <PUBCHEM_IUPAC_INCHI>
InChI=1S/C19H23NOS/c1-2-6-17(20-12-3-4-13-20)19(21)16-10-8-15(9-11-16)18-7-5-14-22-18/h5,7-11,14,17H,2-4,6,12-13H2,1H3

> <PUBCHEM_IUPAC_INCHIKEY>
HEFDYDISPNHKAM-UHFFFAOYSA-N

> <PUBCHEM_XLOGP3_AA>
4.8

> <PUBCHEM_EXACT_MASS>
313.15003553

> <PUBCHEM_MOLECULAR_FORMULA>
C19H23NOS

> <PUBCHEM_MOLECULAR_WEIGHT>
313.5

> <PUBCHEM_OPENEYE_CAN_SMILES>
CCCC(C(=O)C1=CC=C(C=C1)C2=CC=CS2)N3CCCC3

> <PUBCHEM_OPENEYE_ISO_SMILES>
CCCC(C(=O)C1=CC=C(C=C1)C2=CC=CS2)N3CCCC3

> <PUBCHEM_CACTVS_TPSA>
48.6

> <PUBCHEM_MONOISOTOPIC_WEIGHT>
313.15003553

> <PUBCHEM_TOTAL_CHARGE>
0

> <PUBCHEM_HEAVY_ATOM_COUNT>
22

> <PUBCHEM_ATOM_DEF_STEREO_COUNT>
0

> <PUBCHEM_ATOM_UDEF_STEREO_COUNT>
1

> <PUBCHEM_BOND_DEF_STEREO_COUNT>
0

> <PUBCHEM_BOND_UDEF_STEREO_COUNT>
0

> <PUBCHEM_ISOTOPIC_ATOM_COUNT>
0

> <PUBCHEM_COMPONENT_COUNT>
1

> <PUBCHEM_CACTVS_TAUTO_COUNT>
-1

> <PUBCHEM_COORDINATE_TYPE>
1
5
255

> <PUBCHEM_BONDANNOTATIONS>
1  19  8
1  22  8
12  14  8
12  15  8
14  16  8
15  17  8
16  18  8
17  18  8
19  20  8
20  21  8
21  22  8
4  9  3

$$$$
