168292406
  -OEChem-09292322442D

 64 66  0     0  0  0  0  0  0999 V2000
    4.9338    9.6200    0.0000 O   0  0  0  0  0  0  0  0  0  0  0  0
    8.9593    6.3873    0.0000 O   0  0  0  0  0  0  0  0  0  0  0  0
   11.5573    5.8873    0.0000 O   0  0  0  0  0  0  0  0  0  0  0  0
    9.8253    4.8873    0.0000 O   0  0  0  0  0  0  0  0  0  0  0  0
   10.6913    7.3873    0.0000 O   0  0  0  0  0  0  0  0  0  0  0  0
    4.9338    5.6200    0.0000 N   0  0  0  0  0  0  0  0  0  0  0  0
    4.9338    3.6200    0.0000 N   0  0  0  0  0  0  0  0  0  0  0  0
    3.2018    9.6200    0.0000 N   0  0  0  0  0  0  0  0  0  0  0  0
    5.7998    5.1200    0.0000 C   0  0  0  0  0  0  0  0  0  0  0  0
    4.0678    5.1200    0.0000 C   0  0  0  0  0  0  0  0  0  0  0  0
    4.9338    6.6200    0.0000 C   0  0  0  0  0  0  0  0  0  0  0  0
    5.7998    4.1200    0.0000 C   0  0  0  0  0  0  0  0  0  0  0  0
    4.0678    4.1200    0.0000 C   0  0  0  0  0  0  0  0  0  0  0  0
    4.0678    7.1200    0.0000 C   0  0  0  0  0  0  0  0  0  0  0  0
    4.0678    8.1200    0.0000 C   0  0  0  0  0  0  0  0  0  0  0  0
    3.2018    8.6200    0.0000 C   0  0  0  0  0  0  0  0  0  0  0  0
    4.9338    2.6200    0.0000 C   0  0  0  0  0  0  0  0  0  0  0  0
    2.3358   10.1200    0.0000 C   0  0  0  0  0  0  0  0  0  0  0  0
    3.2018   11.6200    0.0000 C   0  0  0  0  0  0  0  0  0  0  0  0
    2.3358   11.1200    0.0000 C   0  0  0  0  0  0  0  0  0  0  0  0
    4.0678   11.1200    0.0000 C   0  0  0  0  0  0  0  0  0  0  0  0
    4.0678   10.1200    0.0000 C   0  0  0  0  0  0  0  0  0  0  0  0
    4.0678    2.1200    0.0000 C   0  0  0  0  0  0  0  0  0  0  0  0
    5.7998    2.1200    0.0000 C   0  0  0  0  0  0  0  0  0  0  0  0
    1.4418    9.5853    0.0000 C   0  0  0  0  0  0  0  0  0  0  0  0
    1.4418   11.6547    0.0000 C   0  0  0  0  0  0  0  0  0  0  0  0
    0.5357   10.0992    0.0000 C   0  0  0  0  0  0  0  0  0  0  0  0
    0.5357   11.1408    0.0000 C   0  0  0  0  0  0  0  0  0  0  0  0
    4.0678    1.1200    0.0000 C   0  0  0  0  0  0  0  0  0  0  0  0
    5.7998    1.1200    0.0000 C   0  0  0  0  0  0  0  0  0  0  0  0
    4.9338    0.6200    0.0000 C   0  0  0  0  0  0  0  0  0  0  0  0
    9.8253    5.8873    0.0000 C   0  0  0  0  0  0  0  0  0  0  0  0
   10.6913    6.3873    0.0000 C   0  0  0  0  0  0  0  0  0  0  0  0
    6.4104    5.0123    0.0000 H   0  0  0  0  0  0  0  0  0  0  0  0
    6.0119    5.7026    0.0000 H   0  0  0  0  0  0  0  0  0  0  0  0
    3.8557    5.7026    0.0000 H   0  0  0  0  0  0  0  0  0  0  0  0
    3.4572    5.0123    0.0000 H   0  0  0  0  0  0  0  0  0  0  0  0
    5.5444    6.5123    0.0000 H   0  0  0  0  0  0  0  0  0  0  0  0
    5.1459    7.2026    0.0000 H   0  0  0  0  0  0  0  0  0  0  0  0
    6.0119    3.5374    0.0000 H   0  0  0  0  0  0  0  0  0  0  0  0
    6.4104    4.2277    0.0000 H   0  0  0  0  0  0  0  0  0  0  0  0
    3.4572    4.2277    0.0000 H   0  0  0  0  0  0  0  0  0  0  0  0
    3.8557    3.5374    0.0000 H   0  0  0  0  0  0  0  0  0  0  0  0
    3.4572    7.2277    0.0000 H   0  0  0  0  0  0  0  0  0  0  0  0
    3.8557    6.5374    0.0000 H   0  0  0  0  0  0  0  0  0  0  0  0
    4.6784    8.0123    0.0000 H   0  0  0  0  0  0  0  0  0  0  0  0
    4.2798    8.7026    0.0000 H   0  0  0  0  0  0  0  0  0  0  0  0
    2.5912    8.7277    0.0000 H   0  0  0  0  0  0  0  0  0  0  0  0
    2.9897    8.0374    0.0000 H   0  0  0  0  0  0  0  0  0  0  0  0
    3.6003   12.0949    0.0000 H   0  0  0  0  0  0  0  0  0  0  0  0
    2.8032   12.0949    0.0000 H   0  0  0  0  0  0  0  0  0  0  0  0
    4.6784   11.0123    0.0000 H   0  0  0  0  0  0  0  0  0  0  0  0
    4.2798   11.7026    0.0000 H   0  0  0  0  0  0  0  0  0  0  0  0
    3.5309    2.4300    0.0000 H   0  0  0  0  0  0  0  0  0  0  0  0
    6.3368    2.4300    0.0000 H   0  0  0  0  0  0  0  0  0  0  0  0
    1.4490    8.9654    0.0000 H   0  0  0  0  0  0  0  0  0  0  0  0
    1.4490   12.2746    0.0000 H   0  0  0  0  0  0  0  0  0  0  0  0
    0.0000    9.7871    0.0000 H   0  0  0  0  0  0  0  0  0  0  0  0
    0.0000   11.4529    0.0000 H   0  0  0  0  0  0  0  0  0  0  0  0
    3.5309    0.8100    0.0000 H   0  0  0  0  0  0  0  0  0  0  0  0
    6.3368    0.8100    0.0000 H   0  0  0  0  0  0  0  0  0  0  0  0
    4.9338    0.0000    0.0000 H   0  0  0  0  0  0  0  0  0  0  0  0
    8.4223    6.0773    0.0000 H   0  0  0  0  0  0  0  0  0  0  0  0
   12.0943    6.1973    0.0000 H   0  0  0  0  0  0  0  0  0  0  0  0
  1 22  2  0  0  0  0
  2 32  1  0  0  0  0
  2 63  1  0  0  0  0
  3 33  1  0  0  0  0
  3 64  1  0  0  0  0
  4 32  2  0  0  0  0
  5 33  2  0  0  0  0
  6  9  1  0  0  0  0
  6 10  1  0  0  0  0
  6 11  1  0  0  0  0
  7 12  1  0  0  0  0
  7 13  1  0  0  0  0
  7 17  1  0  0  0  0
  8 16  1  0  0  0  0
  8 18  1  0  0  0  0
  8 22  1  0  0  0  0
  9 12  1  0  0  0  0
  9 34  1  0  0  0  0
  9 35  1  0  0  0  0
 10 13  1  0  0  0  0
 10 36  1  0  0  0  0
 10 37  1  0  0  0  0
 11 14  1  0  0  0  0
 11 38  1  0  0  0  0
 11 39  1  0  0  0  0
 12 40  1  0  0  0  0
 12 41  1  0  0  0  0
 13 42  1  0  0  0  0
 13 43  1  0  0  0  0
 14 15  1  0  0  0  0
 14 44  1  0  0  0  0
 14 45  1  0  0  0  0
 15 16  1  0  0  0  0
 15 46  1  0  0  0  0
 15 47  1  0  0  0  0
 16 48  1  0  0  0  0
 16 49  1  0  0  0  0
 17 23  2  0  0  0  0
 17 24  1  0  0  0  0
 18 20  1  0  0  0  0
 18 25  2  0  0  0  0
 19 20  1  0  0  0  0
 19 21  1  0  0  0  0
 19 50  1  0  0  0  0
 19 51  1  0  0  0  0
 20 26  2  0  0  0  0
 21 22  1  0  0  0  0
 21 52  1  0  0  0  0
 21 53  1  0  0  0  0
 23 29  1  0  0  0  0
 23 54  1  0  0  0  0
 24 30  2  0  0  0  0
 24 55  1  0  0  0  0
 25 27  1  0  0  0  0
 25 56  1  0  0  0  0
 26 28  1  0  0  0  0
 26 57  1  0  0  0  0
 27 28  2  0  0  0  0
 27 58  1  0  0  0  0
 28 59  1  0  0  0  0
 29 31  2  0  0  0  0
 29 60  1  0  0  0  0
 30 31  1  0  0  0  0
 30 61  1  0  0  0  0
 31 62  1  0  0  0  0
 32 33  1  0  0  0  0
M  END
> <PUBCHEM_COMPOUND_CID>
168292406

> <PUBCHEM_COMPOUND_CANONICALIZED>
1

> <PUBCHEM_CACTVS_COMPLEXITY>
540

> <PUBCHEM_CACTVS_HBOND_ACCEPTOR>
7

> <PUBCHEM_CACTVS_HBOND_DONOR>
2

> <PUBCHEM_CACTVS_ROTATABLE_BOND>
7

> <PUBCHEM_CACTVS_SUBSKEYS>
AAADceB7OAAAAAAAAAAAAAAAAAAAAAAAAAA8eIEAAAAAAACxQAAAHgAACAAADAjBmAQwyIMAAgCIAiXSWAKCAAAhAgAIiAFIZIgJYDLAkZGUIAhghgDJyAcYiYCeAAAAAAACAAAAAAAAAAQAAAAAAAAAAA==

> <PUBCHEM_IUPAC_OPENEYE_NAME>
oxalic acid;1-[4-(4-phenylpiperazin-1-yl)butyl]-3,4-dihydroquinolin-2-one

> <PUBCHEM_IUPAC_CAS_NAME>
oxalic acid;1-[4-(4-phenyl-1-piperazinyl)butyl]-3,4-dihydroquinolin-2-one

> <PUBCHEM_IUPAC_NAME_MARKUP>
oxalic acid;1-[4-(4-phenylpiperazin-1-yl)butyl]-3,4-dihydroquinolin-2-one

> <PUBCHEM_IUPAC_NAME>
oxalic acid;1-[4-(4-phenylpiperazin-1-yl)butyl]-3,4-dihydroquinolin-2-one

> <PUBCHEM_IUPAC_SYSTEMATIC_NAME>
ethanedioic acid;1-[4-(4-phenylpiperazin-1-yl)butyl]-3,4-dihydroquinolin-2-one

> <PUBCHEM_IUPAC_TRADITIONAL_NAME>
oxalic acid;1-[4-(4-phenylpiperazino)butyl]-3,4-dihydrocarbostyril

> <PUBCHEM_IUPAC_INCHI>
InChI=1S/C23H29N3O.C2H2O4/c27-23-13-12-20-8-4-5-11-22(20)26(23)15-7-6-14-24-16-18-25(19-17-24)21-9-2-1-3-10-21;3-1(4)2(5)6/h1-5,8-11H,6-7,12-19H2;(H,3,4)(H,5,6)

> <PUBCHEM_IUPAC_INCHIKEY>
OKGHPWNSRGQYOQ-UHFFFAOYSA-N

> <PUBCHEM_EXACT_MASS>
453.22637110

> <PUBCHEM_MOLECULAR_FORMULA>
C25H31N3O5

> <PUBCHEM_MOLECULAR_WEIGHT>
453.5

> <PUBCHEM_OPENEYE_CAN_SMILES>
C1CC(=O)N(C2=CC=CC=C21)CCCCN3CCN(CC3)C4=CC=CC=C4.C(=O)(C(=O)O)O

> <PUBCHEM_OPENEYE_ISO_SMILES>
C1CC(=O)N(C2=CC=CC=C21)CCCCN3CCN(CC3)C4=CC=CC=C4.C(=O)(C(=O)O)O

> <PUBCHEM_CACTVS_TPSA>
101

> <PUBCHEM_MONOISOTOPIC_WEIGHT>
453.22637110

> <PUBCHEM_TOTAL_CHARGE>
0

> <PUBCHEM_HEAVY_ATOM_COUNT>
33

> <PUBCHEM_ATOM_DEF_STEREO_COUNT>
0

> <PUBCHEM_ATOM_UDEF_STEREO_COUNT>
0

> <PUBCHEM_BOND_DEF_STEREO_COUNT>
0

> <PUBCHEM_BOND_UDEF_STEREO_COUNT>
0

> <PUBCHEM_ISOTOPIC_ATOM_COUNT>
0

> <PUBCHEM_COMPONENT_COUNT>
2

> <PUBCHEM_CACTVS_TAUTO_COUNT>
-1

> <PUBCHEM_COORDINATE_TYPE>
1
5
255

> <PUBCHEM_BONDANNOTATIONS>
17  23  8
17  24  8
18  20  8
18  25  8
20  26  8
23  29  8
24  30  8
25  27  8
26  28  8
27  28  8
29  31  8
30  31  8

$$$$
