44439407
  -OEChem-09292322262D

 62 65  0     1  0  0  0  0  0999 V2000
   11.9880    0.2218    0.0000 S   0  0  0  0  0  0  0  0  0  0  0  0
    2.0000    1.0089    0.0000 O   0  0  0  0  0  0  0  0  0  0  0  0
    2.0000   -0.9911    0.0000 O   0  0  0  0  0  0  0  0  0  0  0  0
    6.3981   -0.5119    0.0000 N   0  0  0  0  0  0  0  0  0  0  0  0
    8.1301   -0.5186    0.0000 N   0  0  0  0  0  0  0  0  0  0  0  0
   11.6736   -0.7276    0.0000 C   0  0  3  0  0  0  0  0  0  0  0  0
   12.2541   -1.5345    0.0000 C   0  0  0  0  0  0  0  0  0  0  0  0
   11.6674   -2.3370    0.0000 C   0  0  0  0  0  0  0  0  0  0  0  0
   10.7263   -1.0286    0.0000 C   0  0  0  0  0  0  0  0  0  0  0  0
   10.7224   -2.0286    0.0000 C   0  0  0  0  0  0  0  0  0  0  0  0
    9.8622   -0.5253    0.0000 C   0  0  0  0  0  0  0  0  0  0  0  0
    9.8544   -2.5253    0.0000 C   0  0  0  0  0  0  0  0  0  0  0  0
    6.3981    0.5297    0.0000 C   0  0  0  0  0  0  0  0  0  0  0  0
    5.4920    1.0435    0.0000 C   0  0  0  0  0  0  0  0  0  0  0  0
    5.4920   -1.0258    0.0000 C   0  0  0  0  0  0  0  0  0  0  0  0
    4.5981    0.5089    0.0000 C   0  0  0  0  0  0  0  0  0  0  0  0
    4.5981   -0.4911    0.0000 C   0  0  0  0  0  0  0  0  0  0  0  0
    8.9942   -1.0220    0.0000 C   0  0  0  0  0  0  0  0  0  0  0  0
   12.9673    0.4242    0.0000 C   0  0  0  0  0  0  0  0  0  0  0  0
    8.9904   -2.0220    0.0000 C   0  0  0  0  0  0  0  0  0  0  0  0
   13.2816    1.3735    0.0000 C   0  0  0  0  0  0  0  0  0  0  0  0
    7.2622   -1.0153    0.0000 C   0  0  0  0  0  0  0  0  0  0  0  0
    3.7320    1.0089    0.0000 C   0  0  0  0  0  0  0  0  0  0  0  0
    3.7320   -0.9911    0.0000 C   0  0  0  0  0  0  0  0  0  0  0  0
    2.8660    0.5089    0.0000 C   0  0  0  0  0  0  0  0  0  0  0  0
    2.8660   -0.4911    0.0000 C   0  0  0  0  0  0  0  0  0  0  0  0
   14.2609    1.5760    0.0000 C   0  0  0  0  0  0  0  0  0  0  0  0
   14.5752    2.5253    0.0000 C   0  0  0  0  0  0  0  0  0  0  0  0
    2.0000    2.0089    0.0000 C   0  0  0  0  0  0  0  0  0  0  0  0
    2.0000   -1.9911    0.0000 C   0  0  0  0  0  0  0  0  0  0  0  0
   12.2865   -0.6337    0.0000 H   0  0  0  0  0  0  0  0  0  0  0  0
   12.7134   -1.9510    0.0000 H   0  0  0  0  0  0  0  0  0  0  0  0
   12.7166   -1.1216    0.0000 H   0  0  0  0  0  0  0  0  0  0  0  0
   11.4142   -2.9029    0.0000 H   0  0  0  0  0  0  0  0  0  0  0  0
   12.2036   -2.6483    0.0000 H   0  0  0  0  0  0  0  0  0  0  0  0
    9.8646    0.0947    0.0000 H   0  0  0  0  0  0  0  0  0  0  0  0
    9.8521   -3.1453    0.0000 H   0  0  0  0  0  0  0  0  0  0  0  0
    7.0089    0.4236    0.0000 H   0  0  0  0  0  0  0  0  0  0  0  0
    6.6071    1.1134    0.0000 H   0  0  0  0  0  0  0  0  0  0  0  0
    5.8856    1.5226    0.0000 H   0  0  0  0  0  0  0  0  0  0  0  0
    5.0874    1.5133    0.0000 H   0  0  0  0  0  0  0  0  0  0  0  0
    5.0874   -1.4956    0.0000 H   0  0  0  0  0  0  0  0  0  0  0  0
    5.8856   -1.5048    0.0000 H   0  0  0  0  0  0  0  0  0  0  0  0
   12.9854   -0.1955    0.0000 H   0  0  0  0  0  0  0  0  0  0  0  0
   13.5807    0.3345    0.0000 H   0  0  0  0  0  0  0  0  0  0  0  0
    8.4522   -2.3299    0.0000 H   0  0  0  0  0  0  0  0  0  0  0  0
   13.2634    1.9933    0.0000 H   0  0  0  0  0  0  0  0  0  0  0  0
   12.6681    1.4632    0.0000 H   0  0  0  0  0  0  0  0  0  0  0  0
    7.2598   -1.6353    0.0000 H   0  0  0  0  0  0  0  0  0  0  0  0
    3.7320    1.6289    0.0000 H   0  0  0  0  0  0  0  0  0  0  0  0
    3.7320   -1.6111    0.0000 H   0  0  0  0  0  0  0  0  0  0  0  0
   14.2791    0.9562    0.0000 H   0  0  0  0  0  0  0  0  0  0  0  0
   14.8743    1.4863    0.0000 H   0  0  0  0  0  0  0  0  0  0  0  0
   15.1638    2.3304    0.0000 H   0  0  0  0  0  0  0  0  0  0  0  0
   14.7701    3.1139    0.0000 H   0  0  0  0  0  0  0  0  0  0  0  0
   13.9866    2.7202    0.0000 H   0  0  0  0  0  0  0  0  0  0  0  0
    2.6200    2.0089    0.0000 H   0  0  0  0  0  0  0  0  0  0  0  0
    2.0000    2.6289    0.0000 H   0  0  0  0  0  0  0  0  0  0  0  0
    1.3800    2.0089    0.0000 H   0  0  0  0  0  0  0  0  0  0  0  0
    1.3800   -1.9911    0.0000 H   0  0  0  0  0  0  0  0  0  0  0  0
    2.0000   -2.6111    0.0000 H   0  0  0  0  0  0  0  0  0  0  0  0
    2.6200   -1.9911    0.0000 H   0  0  0  0  0  0  0  0  0  0  0  0
  1  6  1  0  0  0  0
  1 19  1  0  0  0  0
  2 25  1  0  0  0  0
  2 29  1  0  0  0  0
  3 26  1  0  0  0  0
  3 30  1  0  0  0  0
  4 13  1  0  0  0  0
  4 15  1  0  0  0  0
  4 22  1  0  0  0  0
  5 18  1  0  0  0  0
  5 22  2  0  0  0  0
  6  7  1  0  0  0  0
  6  9  1  0  0  0  0
  6 31  1  0  0  0  0
  7  8  1  0  0  0  0
  7 32  1  0  0  0  0
  7 33  1  0  0  0  0
  8 10  1  0  0  0  0
  8 34  1  0  0  0  0
  8 35  1  0  0  0  0
  9 10  2  0  0  0  0
  9 11  1  0  0  0  0
 10 12  1  0  0  0  0
 11 18  2  0  0  0  0
 11 36  1  0  0  0  0
 12 20  2  0  0  0  0
 12 37  1  0  0  0  0
 13 14  1  0  0  0  0
 13 38  1  0  0  0  0
 13 39  1  0  0  0  0
 14 16  1  0  0  0  0
 14 40  1  0  0  0  0
 14 41  1  0  0  0  0
 15 17  1  0  0  0  0
 15 42  1  0  0  0  0
 15 43  1  0  0  0  0
 16 17  1  0  0  0  0
 16 23  2  0  0  0  0
 17 24  2  0  0  0  0
 18 20  1  0  0  0  0
 19 21  1  0  0  0  0
 19 44  1  0  0  0  0
 19 45  1  0  0  0  0
 20 46  1  0  0  0  0
 21 27  1  0  0  0  0
 21 47  1  0  0  0  0
 21 48  1  0  0  0  0
 22 49  1  0  0  0  0
 23 25  1  0  0  0  0
 23 50  1  0  0  0  0
 24 26  1  0  0  0  0
 24 51  1  0  0  0  0
 25 26  2  0  0  0  0
 27 28  1  0  0  0  0
 27 52  1  0  0  0  0
 27 53  1  0  0  0  0
 28 54  1  0  0  0  0
 28 55  1  0  0  0  0
 28 56  1  0  0  0  0
 29 57  1  0  0  0  0
 29 58  1  0  0  0  0
 29 59  1  0  0  0  0
 30 60  1  0  0  0  0
 30 61  1  0  0  0  0
 30 62  1  0  0  0  0
M  END
> <PUBCHEM_COMPOUND_CID>
44439407

> <PUBCHEM_COMPOUND_CANONICALIZED>
1

> <PUBCHEM_CACTVS_COMPLEXITY>
559

> <PUBCHEM_CACTVS_HBOND_ACCEPTOR>
4

> <PUBCHEM_CACTVS_HBOND_DONOR>
0

> <PUBCHEM_CACTVS_ROTATABLE_BOND>
8

> <PUBCHEM_CACTVS_SUBSKEYS>
AAADcfB7MABAAAAAAAAAAAAAAAAAAYAAAAA8YIAAAAAAAGCxQAAAHgQAAAAADAzF2AazxoMABAigAiRDZACCCAEgIhAJiAAO7IgNJiKkuZuEMCpkwBGq6Aew0LIOqAABQAAQQABQAAKAACCAAEAACgAAAA==

> <PUBCHEM_IUPAC_OPENEYE_NAME>
N-(3-butylsulfanylindan-5-yl)-1-(6,7-dimethoxy-3,4-dihydro-1H-isoquinolin-2-yl)methanimine

> <PUBCHEM_IUPAC_CAS_NAME>
N-[3-(butylthio)-2,3-dihydro-1H-inden-5-yl]-1-(6,7-dimethoxy-3,4-dihydro-1H-isoquinolin-2-yl)methanimine

> <PUBCHEM_IUPAC_NAME_MARKUP>
<I>N</I>-(3-butylsulfanyl-2,3-dihydro-1<I>H</I>-inden-5-yl)-1-(6,7-dimethoxy-3,4-dihydro-1<I>H</I>-isoquinolin-2-yl)methanimine

> <PUBCHEM_IUPAC_NAME>
N-(3-butylsulfanyl-2,3-dihydro-1H-inden-5-yl)-1-(6,7-dimethoxy-3,4-dihydro-1H-isoquinolin-2-yl)methanimine

> <PUBCHEM_IUPAC_SYSTEMATIC_NAME>
N-(3-butylsulfanyl-2,3-dihydro-1H-inden-5-yl)-1-(6,7-dimethoxy-3,4-dihydro-1H-isoquinolin-2-yl)methanimine

> <PUBCHEM_IUPAC_TRADITIONAL_NAME>
[3-(butylthio)indan-5-yl]-[(6,7-dimethoxy-3,4-dihydro-1H-isoquinolin-2-yl)methylene]amine

> <PUBCHEM_IUPAC_INCHI>
InChI=1S/C25H32N2O2S/c1-4-5-12-30-25-9-7-18-6-8-21(15-22(18)25)26-17-27-11-10-19-13-23(28-2)24(29-3)14-20(19)16-27/h6,8,13-15,17,25H,4-5,7,9-12,16H2,1-3H3

> <PUBCHEM_IUPAC_INCHIKEY>
FRMIPKWMBQUOCY-UHFFFAOYSA-N

> <PUBCHEM_XLOGP3_AA>
5.2

> <PUBCHEM_EXACT_MASS>
424.21844944

> <PUBCHEM_MOLECULAR_FORMULA>
C25H32N2O2S

> <PUBCHEM_MOLECULAR_WEIGHT>
424.6

> <PUBCHEM_OPENEYE_CAN_SMILES>
CCCCSC1CCC2=C1C=C(C=C2)N=CN3CCC4=CC(=C(C=C4C3)OC)OC

> <PUBCHEM_OPENEYE_ISO_SMILES>
CCCCSC1CCC2=C1C=C(C=C2)N=CN3CCC4=CC(=C(C=C4C3)OC)OC

> <PUBCHEM_CACTVS_TPSA>
59.4

> <PUBCHEM_MONOISOTOPIC_WEIGHT>
424.21844944

> <PUBCHEM_TOTAL_CHARGE>
0

> <PUBCHEM_HEAVY_ATOM_COUNT>
30

> <PUBCHEM_ATOM_DEF_STEREO_COUNT>
0

> <PUBCHEM_ATOM_UDEF_STEREO_COUNT>
1

> <PUBCHEM_BOND_DEF_STEREO_COUNT>
0

> <PUBCHEM_BOND_UDEF_STEREO_COUNT>
0

> <PUBCHEM_ISOTOPIC_ATOM_COUNT>
0

> <PUBCHEM_COMPONENT_COUNT>
1

> <PUBCHEM_CACTVS_TAUTO_COUNT>
-1

> <PUBCHEM_COORDINATE_TYPE>
1
5
255

> <PUBCHEM_BONDANNOTATIONS>
6  1  3
10  12  8
11  18  8
12  20  8
16  17  8
16  23  8
17  24  8
18  20  8
23  25  8
24  26  8
25  26  8
9  10  8
9  11  8

$$$$
