122205438
  -OEChem-09292322362D

 43 46  0     1  0  0  0  0  0999 V2000
    3.9290   -0.5061    0.0000 S   0  0  0  0  0  0  0  0  0  0  0  0
    5.5321    1.6610    0.0000 N   0  0  3  0  0  0  0  0  0  0  0  0
    5.5321   -0.3390    0.0000 C   0  0  0  0  0  0  0  0  0  0  0  0
    6.3981    0.1610    0.0000 C   0  0  0  0  0  0  0  0  0  0  0  0
    6.3981    1.1610    0.0000 C   0  0  0  0  0  0  0  0  0  0  0  0
    4.6660    0.1610    0.0000 C   0  0  0  0  0  0  0  0  0  0  0  0
    5.5321    2.6610    0.0000 C   0  0  0  0  0  0  0  0  0  0  0  0
    4.6660    1.1610    0.0000 C   0  0  0  0  0  0  0  0  0  0  0  0
    4.6660    3.1610    0.0000 C   0  0  0  0  0  0  0  0  0  0  0  0
    3.8000    1.6610    0.0000 C   0  0  0  0  0  0  0  0  0  0  0  0
    3.8000    2.6610    0.0000 C   0  0  0  0  0  0  0  0  0  0  0  0
    5.3229   -1.3108    0.0000 C   0  0  0  0  0  0  0  0  0  0  0  0
    4.3341   -1.4138    0.0000 C   0  0  0  0  0  0  0  0  0  0  0  0
    4.6660    2.1611    0.0000 C   0  0  0  0  0  0  0  0  0  0  0  0
    2.9061    1.1264    0.0000 C   0  0  0  0  0  0  0  0  0  0  0  0
    2.9061    3.1957    0.0000 C   0  0  0  0  0  0  0  0  0  0  0  0
    5.9436   -2.1396    0.0000 C   0  0  0  0  0  0  0  0  0  0  0  0
    3.8976   -2.3528    0.0000 C   0  0  0  0  0  0  0  0  0  0  0  0
    2.0000    1.6402    0.0000 C   0  0  0  0  0  0  0  0  0  0  0  0
    2.0000    2.6818    0.0000 C   0  0  0  0  0  0  0  0  0  0  0  0
    5.5289   -3.0884    0.0000 C   0  0  0  0  0  0  0  0  0  0  0  0
    4.4991   -3.1957    0.0000 C   0  0  0  0  0  0  0  0  0  0  0  0
    6.6101   -0.4216    0.0000 H   0  0  0  0  0  0  0  0  0  0  0  0
    7.0087    0.2687    0.0000 H   0  0  0  0  0  0  0  0  0  0  0  0
    7.0087    1.0534    0.0000 H   0  0  0  0  0  0  0  0  0  0  0  0
    6.6101    1.7436    0.0000 H   0  0  0  0  0  0  0  0  0  0  0  0
    6.1426    2.5534    0.0000 H   0  0  0  0  0  0  0  0  0  0  0  0
    5.7441    3.2436    0.0000 H   0  0  0  0  0  0  0  0  0  0  0  0
    5.2766    1.0534    0.0000 H   0  0  0  0  0  0  0  0  0  0  0  0
    4.8781    1.7436    0.0000 H   0  0  0  0  0  0  0  0  0  0  0  0
    5.0646    3.6360    0.0000 H   0  0  0  0  0  0  0  0  0  0  0  0
    4.2675    3.6360    0.0000 H   0  0  0  0  0  0  0  0  0  0  0  0
    4.9761    2.6980    0.0000 H   0  0  0  0  0  0  0  0  0  0  0  0
    4.1291    2.4711    0.0000 H   0  0  0  0  0  0  0  0  0  0  0  0
    4.3560    1.6241    0.0000 H   0  0  0  0  0  0  0  0  0  0  0  0
    2.9132    0.5064    0.0000 H   0  0  0  0  0  0  0  0  0  0  0  0
    2.9132    3.8156    0.0000 H   0  0  0  0  0  0  0  0  0  0  0  0
    6.5595   -2.0682    0.0000 H   0  0  0  0  0  0  0  0  0  0  0  0
    3.2803   -2.4099    0.0000 H   0  0  0  0  0  0  0  0  0  0  0  0
    1.4643    1.3282    0.0000 H   0  0  0  0  0  0  0  0  0  0  0  0
    1.4643    2.9939    0.0000 H   0  0  0  0  0  0  0  0  0  0  0  0
    5.8949   -3.5888    0.0000 H   0  0  0  0  0  0  0  0  0  0  0  0
    4.2442   -3.7609    0.0000 H   0  0  0  0  0  0  0  0  0  0  0  0
  1  6  1  0  0  0  0
  1 13  1  0  0  0  0
  2  5  1  0  0  0  0
  2  7  1  0  0  0  0
  2 14  1  0  0  0  0
  3  4  1  0  0  0  0
  3  6  2  0  0  0  0
  3 12  1  0  0  0  0
  4  5  1  0  0  0  0
  4 23  1  0  0  0  0
  4 24  1  0  0  0  0
  5 25  1  0  0  0  0
  5 26  1  0  0  0  0
  6  8  1  0  0  0  0
  7  9  1  0  0  0  0
  7 27  1  0  0  0  0
  7 28  1  0  0  0  0
  8 10  1  0  0  0  0
  8 29  1  0  0  0  0
  8 30  1  0  0  0  0
  9 11  1  0  0  0  0
  9 31  1  0  0  0  0
  9 32  1  0  0  0  0
 10 11  1  0  0  0  0
 10 15  2  0  0  0  0
 11 16  2  0  0  0  0
 12 13  1  0  0  0  0
 12 17  2  0  0  0  0
 13 18  2  0  0  0  0
 14 33  1  0  0  0  0
 14 34  1  0  0  0  0
 14 35  1  0  0  0  0
 15 19  1  0  0  0  0
 15 36  1  0  0  0  0
 16 20  1  0  0  0  0
 16 37  1  0  0  0  0
 17 21  1  0  0  0  0
 17 38  1  0  0  0  0
 18 22  1  0  0  0  0
 18 39  1  0  0  0  0
 19 20  2  0  0  0  0
 19 40  1  0  0  0  0
 20 41  1  0  0  0  0
 21 22  2  0  0  0  0
 21 42  1  0  0  0  0
 22 43  1  0  0  0  0
M  END
> <PUBCHEM_COMPOUND_CID>
122205438

> <PUBCHEM_COMPOUND_CANONICALIZED>
1

> <PUBCHEM_CACTVS_COMPLEXITY>
371

> <PUBCHEM_CACTVS_HBOND_ACCEPTOR>
2

> <PUBCHEM_CACTVS_HBOND_DONOR>
0

> <PUBCHEM_CACTVS_ROTATABLE_BOND>
0

> <PUBCHEM_CACTVS_SUBSKEYS>
AAADceB6AABAAAAAAAAAAAAAAAAAASAAAAAwYAAAAAAAAEix9AAAHAQAAAAADADBWAQyAcMAAAiEAiBCAAADAIAgCBBIiBgIAIgIICKgkRGEIAAggACoiAcQgMAOgAAAAAAUAAAAAAAAACgAAAAAAAAAAA==

> <PUBCHEM_IUPAC_OPENEYE_NAME>
11-methyl-21-thia-11-azatetracyclo[12.7.0.03,8.015,20]henicosa-1(14),3,5,7,15,17,19-heptaene

> <PUBCHEM_IUPAC_CAS_NAME>
11-methyl-21-thia-11-azatetracyclo[12.7.0.03,8.015,20]heneicosa-1(14),3,5,7,15,17,19-heptaene

> <PUBCHEM_IUPAC_NAME_MARKUP>
11-methyl-21-thia-11-azatetracyclo[12.7.0.0<SUP>3,8</SUP>.0<SUP>15,20</SUP>]henicosa-1(14),3,5,7,15,17,19-heptaene

> <PUBCHEM_IUPAC_NAME>
11-methyl-21-thia-11-azatetracyclo[12.7.0.03,8.015,20]henicosa-1(14),3,5,7,15,17,19-heptaene

> <PUBCHEM_IUPAC_SYSTEMATIC_NAME>
11-methyl-21-thia-11-azatetracyclo[12.7.0.03,8.015,20]henicosa-1(14),3,5,7,15,17,19-heptaene

> <PUBCHEM_IUPAC_TRADITIONAL_NAME>
11-methyl-21-thia-11-azatetracyclo[12.7.0.03,8.015,20]heneicosa-1(14),3,5,7,15,17,19-heptaene

> <PUBCHEM_IUPAC_INCHI>
InChI=1S/C20H21NS/c1-21-12-10-15-6-2-3-7-16(15)14-20-18(11-13-21)17-8-4-5-9-19(17)22-20/h2-9H,10-14H2,1H3

> <PUBCHEM_IUPAC_INCHIKEY>
SITQSHZFILPALT-UHFFFAOYSA-N

> <PUBCHEM_XLOGP3_AA>
5.2

> <PUBCHEM_EXACT_MASS>
307.13947085

> <PUBCHEM_MOLECULAR_FORMULA>
C20H21NS

> <PUBCHEM_MOLECULAR_WEIGHT>
307.5

> <PUBCHEM_OPENEYE_CAN_SMILES>
CN1CCC2=CC=CC=C2CC3=C(CC1)C4=CC=CC=C4S3

> <PUBCHEM_OPENEYE_ISO_SMILES>
CN1CCC2=CC=CC=C2CC3=C(CC1)C4=CC=CC=C4S3

> <PUBCHEM_CACTVS_TPSA>
31.5

> <PUBCHEM_MONOISOTOPIC_WEIGHT>
307.13947085

> <PUBCHEM_TOTAL_CHARGE>
0

> <PUBCHEM_HEAVY_ATOM_COUNT>
22

> <PUBCHEM_ATOM_DEF_STEREO_COUNT>
0

> <PUBCHEM_ATOM_UDEF_STEREO_COUNT>
0

> <PUBCHEM_BOND_DEF_STEREO_COUNT>
0

> <PUBCHEM_BOND_UDEF_STEREO_COUNT>
0

> <PUBCHEM_ISOTOPIC_ATOM_COUNT>
0

> <PUBCHEM_COMPONENT_COUNT>
1

> <PUBCHEM_CACTVS_TAUTO_COUNT>
-1

> <PUBCHEM_COORDINATE_TYPE>
1
5
255

> <PUBCHEM_BONDANNOTATIONS>
1  13  8
1  6  8
10  11  8
10  15  8
11  16  8
12  13  8
12  17  8
13  18  8
15  19  8
16  20  8
17  21  8
18  22  8
19  20  8
21  22  8
3  12  8
3  6  8

$$$$
