9967004
  -OEChem-09292322102D

 45 48  0     0  0  0  0  0  0999 V2000
   10.6882    0.6120    0.0000 O   0  0  0  0  0  0  0  0  0  0  0  0
   12.4583   -1.4468    0.0000 O   0  0  0  0  0  0  0  0  0  0  0  0
    6.3301   -0.9227    0.0000 N   0  0  0  0  0  0  0  0  0  0  0  0
    4.5981    0.0773    0.0000 N   0  0  0  0  0  0  0  0  0  0  0  0
   10.6882   -1.4574    0.0000 N   0  0  0  0  0  0  0  0  0  0  0  0
    6.3301    0.0773    0.0000 C   0  0  0  0  0  0  0  0  0  0  0  0
    5.4641   -1.4227    0.0000 C   0  0  0  0  0  0  0  0  0  0  0  0
    5.4641    0.5773    0.0000 C   0  0  0  0  0  0  0  0  0  0  0  0
    4.5981   -0.9227    0.0000 C   0  0  0  0  0  0  0  0  0  0  0  0
    7.1962   -1.4227    0.0000 C   0  0  0  0  0  0  0  0  0  0  0  0
    3.7320    0.5773    0.0000 C   0  0  0  0  0  0  0  0  0  0  0  0
    8.0622   -0.9227    0.0000 C   0  0  0  0  0  0  0  0  0  0  0  0
    8.9282   -1.4227    0.0000 C   0  0  0  0  0  0  0  0  0  0  0  0
    8.0622    0.0773    0.0000 C   0  0  0  0  0  0  0  0  0  0  0  0
    3.7320    1.5773    0.0000 C   0  0  0  0  0  0  0  0  0  0  0  0
    2.8660    0.0773    0.0000 C   0  0  0  0  0  0  0  0  0  0  0  0
    9.7942   -0.9227    0.0000 C   0  0  0  0  0  0  0  0  0  0  0  0
    9.7942    0.0773    0.0000 C   0  0  0  0  0  0  0  0  0  0  0  0
    8.9282    0.5773    0.0000 C   0  0  0  0  0  0  0  0  0  0  0  0
    2.8660    2.0773    0.0000 C   0  0  0  0  0  0  0  0  0  0  0  0
    2.0000    0.5773    0.0000 C   0  0  0  0  0  0  0  0  0  0  0  0
    2.0000    1.5773    0.0000 C   0  0  0  0  0  0  0  0  0  0  0  0
   11.5942    0.0981    0.0000 C   0  0  0  0  0  0  0  0  0  0  0  0
   11.5942   -0.9435    0.0000 C   0  0  0  0  0  0  0  0  0  0  0  0
    6.9407   -0.0304    0.0000 H   0  0  0  0  0  0  0  0  0  0  0  0
    6.5422    0.6599    0.0000 H   0  0  0  0  0  0  0  0  0  0  0  0
    5.0656   -1.8976    0.0000 H   0  0  0  0  0  0  0  0  0  0  0  0
    5.8626   -1.8976    0.0000 H   0  0  0  0  0  0  0  0  0  0  0  0
    5.8626    1.0523    0.0000 H   0  0  0  0  0  0  0  0  0  0  0  0
    5.0656    1.0523    0.0000 H   0  0  0  0  0  0  0  0  0  0  0  0
    3.9875   -0.8150    0.0000 H   0  0  0  0  0  0  0  0  0  0  0  0
    4.3860   -1.5053    0.0000 H   0  0  0  0  0  0  0  0  0  0  0  0
    6.7976   -1.8976    0.0000 H   0  0  0  0  0  0  0  0  0  0  0  0
    7.5947   -1.8976    0.0000 H   0  0  0  0  0  0  0  0  0  0  0  0
    8.9282   -2.0427    0.0000 H   0  0  0  0  0  0  0  0  0  0  0  0
    7.5252    0.3873    0.0000 H   0  0  0  0  0  0  0  0  0  0  0  0
    4.2690    1.8873    0.0000 H   0  0  0  0  0  0  0  0  0  0  0  0
    2.8660   -0.5427    0.0000 H   0  0  0  0  0  0  0  0  0  0  0  0
    8.9282    1.1973    0.0000 H   0  0  0  0  0  0  0  0  0  0  0  0
    2.8660    2.6973    0.0000 H   0  0  0  0  0  0  0  0  0  0  0  0
    1.4631    0.2673    0.0000 H   0  0  0  0  0  0  0  0  0  0  0  0
   10.6810   -2.0773    0.0000 H   0  0  0  0  0  0  0  0  0  0  0  0
    1.4631    1.8873    0.0000 H   0  0  0  0  0  0  0  0  0  0  0  0
   12.2051   -0.0080    0.0000 H   0  0  0  0  0  0  0  0  0  0  0  0
   11.8033    0.6818    0.0000 H   0  0  0  0  0  0  0  0  0  0  0  0
  1 18  1  0  0  0  0
  1 23  1  0  0  0  0
  2 24  2  0  0  0  0
  3  6  1  0  0  0  0
  3  7  1  0  0  0  0
  3 10  1  0  0  0  0
  4  8  1  0  0  0  0
  4  9  1  0  0  0  0
  4 11  1  0  0  0  0
  5 17  1  0  0  0  0
  5 24  1  0  0  0  0
  5 42  1  0  0  0  0
  6  8  1  0  0  0  0
  6 25  1  0  0  0  0
  6 26  1  0  0  0  0
  7  9  1  0  0  0  0
  7 27  1  0  0  0  0
  7 28  1  0  0  0  0
  8 29  1  0  0  0  0
  8 30  1  0  0  0  0
  9 31  1  0  0  0  0
  9 32  1  0  0  0  0
 10 12  1  0  0  0  0
 10 33  1  0  0  0  0
 10 34  1  0  0  0  0
 11 15  2  0  0  0  0
 11 16  1  0  0  0  0
 12 13  2  0  0  0  0
 12 14  1  0  0  0  0
 13 17  1  0  0  0  0
 13 35  1  0  0  0  0
 14 19  2  0  0  0  0
 14 36  1  0  0  0  0
 15 20  1  0  0  0  0
 15 37  1  0  0  0  0
 16 21  2  0  0  0  0
 16 38  1  0  0  0  0
 17 18  2  0  0  0  0
 18 19  1  0  0  0  0
 19 39  1  0  0  0  0
 20 22  2  0  0  0  0
 20 40  1  0  0  0  0
 21 22  1  0  0  0  0
 21 41  1  0  0  0  0
 22 43  1  0  0  0  0
 23 24  1  0  0  0  0
 23 44  1  0  0  0  0
 23 45  1  0  0  0  0
M  END
> <PUBCHEM_COMPOUND_CID>
9967004

> <PUBCHEM_COMPOUND_CANONICALIZED>
1

> <PUBCHEM_CACTVS_COMPLEXITY>
430

> <PUBCHEM_CACTVS_HBOND_ACCEPTOR>
4

> <PUBCHEM_CACTVS_HBOND_DONOR>
1

> <PUBCHEM_CACTVS_ROTATABLE_BOND>
3

> <PUBCHEM_CACTVS_SUBSKEYS>
AAADceB7MAAAAAAAAAAAAAAAAAAAAAAAAAA8eIEAAAAAAACxQAAAHgAQAAAADAzhmAYwxoPABACIAiVSUAKCCAAhIgAIiABPbIgOZiLEsZ+XOCjk1BHY6AeQ0AIOIAAAQAAAEABAAACAAAAgAAAAAAAAAA==

> <PUBCHEM_IUPAC_OPENEYE_NAME>
6-[(4-phenylpiperazin-1-yl)methyl]-4H-1,4-benzoxazin-3-one

> <PUBCHEM_IUPAC_CAS_NAME>
6-[(4-phenyl-1-piperazinyl)methyl]-4H-1,4-benzoxazin-3-one

> <PUBCHEM_IUPAC_NAME_MARKUP>
6-[(4-phenylpiperazin-1-yl)methyl]-4<I>H</I>-1,4-benzoxazin-3-one

> <PUBCHEM_IUPAC_NAME>
6-[(4-phenylpiperazin-1-yl)methyl]-4H-1,4-benzoxazin-3-one

> <PUBCHEM_IUPAC_SYSTEMATIC_NAME>
6-[(4-phenylpiperazin-1-yl)methyl]-4H-1,4-benzoxazin-3-one

> <PUBCHEM_IUPAC_TRADITIONAL_NAME>
6-[(4-phenylpiperazino)methyl]-4H-1,4-benzoxazin-3-one

> <PUBCHEM_IUPAC_INCHI>
InChI=1S/C19H21N3O2/c23-19-14-24-18-7-6-15(12-17(18)20-19)13-21-8-10-22(11-9-21)16-4-2-1-3-5-16/h1-7,12H,8-11,13-14H2,(H,20,23)

> <PUBCHEM_IUPAC_INCHIKEY>
NFRIERLNKMVOKN-UHFFFAOYSA-N

> <PUBCHEM_XLOGP3_AA>
2.3

> <PUBCHEM_EXACT_MASS>
323.16337692

> <PUBCHEM_MOLECULAR_FORMULA>
C19H21N3O2

> <PUBCHEM_MOLECULAR_WEIGHT>
323.4

> <PUBCHEM_OPENEYE_CAN_SMILES>
C1CN(CCN1CC2=CC3=C(C=C2)OCC(=O)N3)C4=CC=CC=C4

> <PUBCHEM_OPENEYE_ISO_SMILES>
C1CN(CCN1CC2=CC3=C(C=C2)OCC(=O)N3)C4=CC=CC=C4

> <PUBCHEM_CACTVS_TPSA>
44.8

> <PUBCHEM_MONOISOTOPIC_WEIGHT>
323.16337692

> <PUBCHEM_TOTAL_CHARGE>
0

> <PUBCHEM_HEAVY_ATOM_COUNT>
24

> <PUBCHEM_ATOM_DEF_STEREO_COUNT>
0

> <PUBCHEM_ATOM_UDEF_STEREO_COUNT>
0

> <PUBCHEM_BOND_DEF_STEREO_COUNT>
0

> <PUBCHEM_BOND_UDEF_STEREO_COUNT>
0

> <PUBCHEM_ISOTOPIC_ATOM_COUNT>
0

> <PUBCHEM_COMPONENT_COUNT>
1

> <PUBCHEM_CACTVS_TAUTO_COUNT>
-1

> <PUBCHEM_COORDINATE_TYPE>
1
5
255

> <PUBCHEM_BONDANNOTATIONS>
11  15  8
11  16  8
12  13  8
12  14  8
13  17  8
14  19  8
15  20  8
16  21  8
17  18  8
18  19  8
20  22  8
21  22  8

$$$$
