132891
  -OEChem-09292322142D

 54 58  0     1  0  0  0  0  0999 V2000
    9.9939   -1.4162    0.0000 O   0  0  0  0  0  0  0  0  0  0  0  0
    3.5998   -0.3015    0.0000 O   0  0  0  0  0  0  0  0  0  0  0  0
    6.8925   -1.3777    0.0000 N   0  0  0  0  0  0  0  0  0  0  0  0
    9.1279    0.0838    0.0000 N   0  0  0  0  0  0  0  0  0  0  0  0
    4.9355   -1.7901    0.0000 N   0  0  0  0  0  0  0  0  0  0  0  0
    8.1817    1.3885    0.0000 N   0  0  0  0  0  0  0  0  0  0  0  0
   10.8600    0.0838    0.0000 N   0  0  0  0  0  0  0  0  0  0  0  0
    8.1817   -0.2209    0.0000 C   0  0  3  0  0  0  0  0  0  0  0  0
    7.8710   -1.1715    0.0000 C   0  0  0  0  0  0  0  0  0  0  0  0
    7.5981    0.5838    0.0000 C   0  0  0  0  0  0  0  0  0  0  0  0
    6.2247   -0.6334    0.0000 C   0  0  0  0  0  0  0  0  0  0  0  0
    6.5819   -2.3282    0.0000 C   0  0  0  0  0  0  0  0  0  0  0  0
    5.2462   -0.8396    0.0000 C   0  0  0  0  0  0  0  0  0  0  0  0
    5.6034   -2.5344    0.0000 C   0  0  0  0  0  0  0  0  0  0  0  0
    9.1279    1.0838    0.0000 C   0  0  0  0  0  0  0  0  0  0  0  0
    9.9939    1.5838    0.0000 C   0  0  0  0  0  0  0  0  0  0  0  0
    9.9939   -0.4162    0.0000 C   0  0  0  0  0  0  0  0  0  0  0  0
    3.9570   -1.9963    0.0000 C   0  0  0  0  0  0  0  0  0  0  0  0
   10.8600    1.0838    0.0000 C   0  0  0  0  0  0  0  0  0  0  0  0
    9.9779    2.6253    0.0000 C   0  0  0  0  0  0  0  0  0  0  0  0
    3.2892   -1.2520    0.0000 C   0  0  0  0  0  0  0  0  0  0  0  0
    3.6464   -2.9468    0.0000 C   0  0  0  0  0  0  0  0  0  0  0  0
   11.7700    1.5906    0.0000 C   0  0  0  0  0  0  0  0  0  0  0  0
   10.8759    3.1531    0.0000 C   0  0  0  0  0  0  0  0  0  0  0  0
   11.7780    2.6322    0.0000 C   0  0  0  0  0  0  0  0  0  0  0  0
    2.3107   -1.4582    0.0000 C   0  0  0  0  0  0  0  0  0  0  0  0
    2.6678   -3.1531    0.0000 C   0  0  0  0  0  0  0  0  0  0  0  0
    2.0000   -2.4088    0.0000 C   0  0  0  0  0  0  0  0  0  0  0  0
    2.9320    0.4428    0.0000 C   0  0  0  0  0  0  0  0  0  0  0  0
    8.6192   -0.6603    0.0000 H   0  0  0  0  0  0  0  0  0  0  0  0
    7.8916   -1.7911    0.0000 H   0  0  0  0  0  0  0  0  0  0  0  0
    8.4848   -1.2588    0.0000 H   0  0  0  0  0  0  0  0  0  0  0  0
    7.1372    0.9985    0.0000 H   0  0  0  0  0  0  0  0  0  0  0  0
    7.1372    0.1691    0.0000 H   0  0  0  0  0  0  0  0  0  0  0  0
    6.7510   -0.3057    0.0000 H   0  0  0  0  0  0  0  0  0  0  0  0
    5.9934   -0.0581    0.0000 H   0  0  0  0  0  0  0  0  0  0  0  0
    6.6024   -2.9478    0.0000 H   0  0  0  0  0  0  0  0  0  0  0  0
    7.1957   -2.4155    0.0000 H   0  0  0  0  0  0  0  0  0  0  0  0
    5.2256   -0.2199    0.0000 H   0  0  0  0  0  0  0  0  0  0  0  0
    4.6324   -0.7522    0.0000 H   0  0  0  0  0  0  0  0  0  0  0  0
    5.0770   -2.8620    0.0000 H   0  0  0  0  0  0  0  0  0  0  0  0
    5.8346   -3.1097    0.0000 H   0  0  0  0  0  0  0  0  0  0  0  0
    7.9891    1.9779    0.0000 H   0  0  0  0  0  0  0  0  0  0  0  0
    9.4374    2.9291    0.0000 H   0  0  0  0  0  0  0  0  0  0  0  0
    4.0604   -3.4083    0.0000 H   0  0  0  0  0  0  0  0  0  0  0  0
   12.3033    1.2745    0.0000 H   0  0  0  0  0  0  0  0  0  0  0  0
   10.8735    3.7731    0.0000 H   0  0  0  0  0  0  0  0  0  0  0  0
   12.3161    2.9402    0.0000 H   0  0  0  0  0  0  0  0  0  0  0  0
    1.8966   -0.9968    0.0000 H   0  0  0  0  0  0  0  0  0  0  0  0
    2.4752   -3.7424    0.0000 H   0  0  0  0  0  0  0  0  0  0  0  0
    1.3933   -2.5366    0.0000 H   0  0  0  0  0  0  0  0  0  0  0  0
    3.3934    0.8569    0.0000 H   0  0  0  0  0  0  0  0  0  0  0  0
    2.5179    0.9043    0.0000 H   0  0  0  0  0  0  0  0  0  0  0  0
    2.4705    0.0287    0.0000 H   0  0  0  0  0  0  0  0  0  0  0  0
  1 17  2  0  0  0  0
  2 21  1  0  0  0  0
  2 29  1  0  0  0  0
  3  9  1  0  0  0  0
  3 11  1  0  0  0  0
  3 12  1  0  0  0  0
  4  8  1  0  0  0  0
  4 15  1  0  0  0  0
  4 17  1  0  0  0  0
  5 13  1  0  0  0  0
  5 14  1  0  0  0  0
  5 18  1  0  0  0  0
  6 10  1  0  0  0  0
  6 15  1  0  0  0  0
  6 43  1  0  0  0  0
  7 17  1  0  0  0  0
  7 19  2  0  0  0  0
  8  9  1  0  0  0  0
  8 10  1  0  0  0  0
  8 30  1  0  0  0  0
  9 31  1  0  0  0  0
  9 32  1  0  0  0  0
 10 33  1  0  0  0  0
 10 34  1  0  0  0  0
 11 13  1  0  0  0  0
 11 35  1  0  0  0  0
 11 36  1  0  0  0  0
 12 14  1  0  0  0  0
 12 37  1  0  0  0  0
 12 38  1  0  0  0  0
 13 39  1  0  0  0  0
 13 40  1  0  0  0  0
 14 41  1  0  0  0  0
 14 42  1  0  0  0  0
 15 16  2  0  0  0  0
 16 19  1  0  0  0  0
 16 20  1  0  0  0  0
 18 21  1  0  0  0  0
 18 22  2  0  0  0  0
 19 23  1  0  0  0  0
 20 24  2  0  0  0  0
 20 44  1  0  0  0  0
 21 26  2  0  0  0  0
 22 27  1  0  0  0  0
 22 45  1  0  0  0  0
 23 25  2  0  0  0  0
 23 46  1  0  0  0  0
 24 25  1  0  0  0  0
 24 47  1  0  0  0  0
 25 48  1  0  0  0  0
 26 28  1  0  0  0  0
 26 49  1  0  0  0  0
 27 28  2  0  0  0  0
 27 50  1  0  0  0  0
 28 51  1  0  0  0  0
 29 52  1  0  0  0  0
 29 53  1  0  0  0  0
 29 54  1  0  0  0  0
M  END
> <PUBCHEM_COMPOUND_CID>
132891

> <PUBCHEM_COMPOUND_CANONICALIZED>
1

> <PUBCHEM_CACTVS_COMPLEXITY>
778

> <PUBCHEM_CACTVS_HBOND_ACCEPTOR>
5

> <PUBCHEM_CACTVS_HBOND_DONOR>
1

> <PUBCHEM_CACTVS_ROTATABLE_BOND>
4

> <PUBCHEM_CACTVS_SUBSKEYS>
AAADceB7sAAAAAAAAAAAAAAAAAAAAWAAAAA8QIEAAAAAAECBAAAAHgAQAAAADCzBkAYzxoPABACoAyRiVACCCAAhIgAIiIA/bJiOZiLE8ZuVMChs1xPY6AeQQAAAAAAAAAAAEAAAAAAAAAAgAAAAAAAAAA==

> <PUBCHEM_IUPAC_OPENEYE_NAME>
3-[[4-(2-methoxyphenyl)piperazin-1-yl]methyl]-2,3-dihydro-1H-imidazo[1,2-c]quinazolin-5-one

> <PUBCHEM_IUPAC_CAS_NAME>
3-[[4-(2-methoxyphenyl)-1-piperazinyl]methyl]-2,3-dihydro-1H-imidazo[1,2-c]quinazolin-5-one

> <PUBCHEM_IUPAC_NAME_MARKUP>
3-[[4-(2-methoxyphenyl)piperazin-1-yl]methyl]-2,3-dihydro-1<I>H</I>-imidazo[1,2-c]quinazolin-5-one

> <PUBCHEM_IUPAC_NAME>
3-[[4-(2-methoxyphenyl)piperazin-1-yl]methyl]-2,3-dihydro-1H-imidazo[1,2-c]quinazolin-5-one

> <PUBCHEM_IUPAC_SYSTEMATIC_NAME>
3-[[4-(2-methoxyphenyl)piperazin-1-yl]methyl]-2,3-dihydro-1H-imidazo[1,2-c]quinazolin-5-one

> <PUBCHEM_IUPAC_TRADITIONAL_NAME>
3-[[4-(2-methoxyphenyl)piperazino]methyl]-2,3-dihydro-1H-imidazo[1,2-c]quinazolin-5-one

> <PUBCHEM_IUPAC_INCHI>
InChI=1S/C22H25N5O2/c1-29-20-9-5-4-8-19(20)26-12-10-25(11-13-26)15-16-14-23-21-17-6-2-3-7-18(17)24-22(28)27(16)21/h2-9,16,23H,10-15H2,1H3

> <PUBCHEM_IUPAC_INCHIKEY>
COCJIISORPXDPN-UHFFFAOYSA-N

> <PUBCHEM_XLOGP3_AA>
2.5

> <PUBCHEM_EXACT_MASS>
391.20082506

> <PUBCHEM_MOLECULAR_FORMULA>
C22H25N5O2

> <PUBCHEM_MOLECULAR_WEIGHT>
391.5

> <PUBCHEM_OPENEYE_CAN_SMILES>
COC1=CC=CC=C1N2CCN(CC2)CC3CNC4=C5C=CC=CC5=NC(=O)N34

> <PUBCHEM_OPENEYE_ISO_SMILES>
COC1=CC=CC=C1N2CCN(CC2)CC3CNC4=C5C=CC=CC5=NC(=O)N34

> <PUBCHEM_CACTVS_TPSA>
60.4

> <PUBCHEM_MONOISOTOPIC_WEIGHT>
391.20082506

> <PUBCHEM_TOTAL_CHARGE>
0

> <PUBCHEM_HEAVY_ATOM_COUNT>
29

> <PUBCHEM_ATOM_DEF_STEREO_COUNT>
0

> <PUBCHEM_ATOM_UDEF_STEREO_COUNT>
1

> <PUBCHEM_BOND_DEF_STEREO_COUNT>
0

> <PUBCHEM_BOND_UDEF_STEREO_COUNT>
0

> <PUBCHEM_ISOTOPIC_ATOM_COUNT>
0

> <PUBCHEM_COMPONENT_COUNT>
1

> <PUBCHEM_CACTVS_TAUTO_COUNT>
4

> <PUBCHEM_COORDINATE_TYPE>
1
5
255

> <PUBCHEM_BONDANNOTATIONS>
15  16  8
16  19  8
16  20  8
18  21  8
18  22  8
19  23  8
20  24  8
21  26  8
22  27  8
23  25  8
24  25  8
26  28  8
27  28  8
4  15  8
4  17  8
7  17  8
7  19  8
8  9  3

$$$$
