76309671
  -OEChem-09292322342D

 51 54  0     0  0  0  0  0  0999 V2000
    3.0038   -3.8321    0.0000 F   0  0  0  0  0  0  0  0  0  0  0  0
    2.0000   -2.8359    0.0000 F   0  0  0  0  0  0  0  0  0  0  0  0
    4.0000   -2.8282    0.0000 F   0  0  0  0  0  0  0  0  0  0  0  0
   13.4429    1.2121    0.0000 O   0  0  0  0  0  0  0  0  0  0  0  0
   13.4429    3.2121    0.0000 O   0  0  0  0  0  0  0  0  0  0  0  0
    6.4486    1.1812    0.0000 N   0  0  0  0  0  0  0  0  0  0  0  0
    4.7205    0.1746    0.0000 N   0  0  0  0  0  0  0  0  0  0  0  0
   11.7108    1.2121    0.0000 N   0  0  0  0  0  0  0  0  0  0  0  0
   11.7108    3.2121    0.0000 N   0  0  0  0  0  0  0  0  0  0  0  0
    5.5807    1.6779    0.0000 C   0  0  0  0  0  0  0  0  0  0  0  0
    6.4525    0.1813    0.0000 C   0  0  0  0  0  0  0  0  0  0  0  0
    4.7166    1.1746    0.0000 C   0  0  0  0  0  0  0  0  0  0  0  0
    5.5884   -0.3221    0.0000 C   0  0  0  0  0  0  0  0  0  0  0  0
    7.3127    1.6846    0.0000 C   0  0  0  0  0  0  0  0  0  0  0  0
    8.1807    1.1879    0.0000 C   0  0  0  0  0  0  0  0  0  0  0  0
    3.8564   -0.3288    0.0000 C   0  0  0  0  0  0  0  0  0  0  0  0
    9.0448    1.6913    0.0000 C   0  0  0  0  0  0  0  0  0  0  0  0
    3.8602   -1.3288    0.0000 C   0  0  0  0  0  0  0  0  0  0  0  0
    2.9884    0.1679    0.0000 C   0  0  0  0  0  0  0  0  0  0  0  0
    9.9509    1.1774    0.0000 C   0  0  0  0  0  0  0  0  0  0  0  0
    9.0448    2.7329    0.0000 C   0  0  0  0  0  0  0  0  0  0  0  0
    2.9961   -1.8321    0.0000 C   0  0  0  0  0  0  0  0  0  0  0  0
   10.8448    1.7121    0.0000 C   0  0  0  0  0  0  0  0  0  0  0  0
   10.8448    2.7121    0.0000 C   0  0  0  0  0  0  0  0  0  0  0  0
    2.1243   -0.3354    0.0000 C   0  0  0  0  0  0  0  0  0  0  0  0
    9.9509    3.2467    0.0000 C   0  0  0  0  0  0  0  0  0  0  0  0
    2.1282   -1.3354    0.0000 C   0  0  0  0  0  0  0  0  0  0  0  0
    3.0000   -2.8321    0.0000 C   0  0  0  0  0  0  0  0  0  0  0  0
   12.5768    1.7121    0.0000 C   0  0  0  0  0  0  0  0  0  0  0  0
   12.5768    2.7121    0.0000 C   0  0  0  0  0  0  0  0  0  0  0  0
    5.9774    2.1544    0.0000 H   0  0  0  0  0  0  0  0  0  0  0  0
    5.1804    2.1513    0.0000 H   0  0  0  0  0  0  0  0  0  0  0  0
    6.6668   -0.4005    0.0000 H   0  0  0  0  0  0  0  0  0  0  0  0
    7.0627    0.2913    0.0000 H   0  0  0  0  0  0  0  0  0  0  0  0
    4.5023    1.7564    0.0000 H   0  0  0  0  0  0  0  0  0  0  0  0
    4.1064    1.0646    0.0000 H   0  0  0  0  0  0  0  0  0  0  0  0
    5.1917   -0.7986    0.0000 H   0  0  0  0  0  0  0  0  0  0  0  0
    5.9888   -0.7955    0.0000 H   0  0  0  0  0  0  0  0  0  0  0  0
    7.7094    2.1611    0.0000 H   0  0  0  0  0  0  0  0  0  0  0  0
    6.9124    2.1580    0.0000 H   0  0  0  0  0  0  0  0  0  0  0  0
    7.7840    0.7114    0.0000 H   0  0  0  0  0  0  0  0  0  0  0  0
    8.5810    0.7145    0.0000 H   0  0  0  0  0  0  0  0  0  0  0  0
    4.3984   -1.6367    0.0000 H   0  0  0  0  0  0  0  0  0  0  0  0
    2.9860    0.7879    0.0000 H   0  0  0  0  0  0  0  0  0  0  0  0
    9.9580    0.5575    0.0000 H   0  0  0  0  0  0  0  0  0  0  0  0
    8.5090    3.0450    0.0000 H   0  0  0  0  0  0  0  0  0  0  0  0
    1.5862   -0.0275    0.0000 H   0  0  0  0  0  0  0  0  0  0  0  0
    9.9580    3.8667    0.0000 H   0  0  0  0  0  0  0  0  0  0  0  0
    1.5925   -1.6475    0.0000 H   0  0  0  0  0  0  0  0  0  0  0  0
   11.7108    0.5921    0.0000 H   0  0  0  0  0  0  0  0  0  0  0  0
   11.7108    3.8321    0.0000 H   0  0  0  0  0  0  0  0  0  0  0  0
  1 28  1  0  0  0  0
  2 28  1  0  0  0  0
  3 28  1  0  0  0  0
  4 29  2  0  0  0  0
  5 30  2  0  0  0  0
  6 10  1  0  0  0  0
  6 11  1  0  0  0  0
  6 14  1  0  0  0  0
  7 12  1  0  0  0  0
  7 13  1  0  0  0  0
  7 16  1  0  0  0  0
  8 23  1  0  0  0  0
  8 29  1  0  0  0  0
  8 50  1  0  0  0  0
  9 24  1  0  0  0  0
  9 30  1  0  0  0  0
  9 51  1  0  0  0  0
 10 12  1  0  0  0  0
 10 31  1  0  0  0  0
 10 32  1  0  0  0  0
 11 13  1  0  0  0  0
 11 33  1  0  0  0  0
 11 34  1  0  0  0  0
 12 35  1  0  0  0  0
 12 36  1  0  0  0  0
 13 37  1  0  0  0  0
 13 38  1  0  0  0  0
 14 15  1  0  0  0  0
 14 39  1  0  0  0  0
 14 40  1  0  0  0  0
 15 17  1  0  0  0  0
 15 41  1  0  0  0  0
 15 42  1  0  0  0  0
 16 18  1  0  0  0  0
 16 19  2  0  0  0  0
 17 20  2  0  0  0  0
 17 21  1  0  0  0  0
 18 22  2  0  0  0  0
 18 43  1  0  0  0  0
 19 25  1  0  0  0  0
 19 44  1  0  0  0  0
 20 23  1  0  0  0  0
 20 45  1  0  0  0  0
 21 26  2  0  0  0  0
 21 46  1  0  0  0  0
 22 27  1  0  0  0  0
 22 28  1  0  0  0  0
 23 24  2  0  0  0  0
 24 26  1  0  0  0  0
 25 27  2  0  0  0  0
 25 47  1  0  0  0  0
 26 48  1  0  0  0  0
 27 49  1  0  0  0  0
 29 30  1  0  0  0  0
M  END
> <PUBCHEM_COMPOUND_CID>
76309671

> <PUBCHEM_COMPOUND_CANONICALIZED>
1

> <PUBCHEM_CACTVS_COMPLEXITY>
636

> <PUBCHEM_CACTVS_HBOND_ACCEPTOR>
7

> <PUBCHEM_CACTVS_HBOND_DONOR>
2

> <PUBCHEM_CACTVS_ROTATABLE_BOND>
4

> <PUBCHEM_CACTVS_SUBSKEYS>
AAADceB7sYAAAAAAAAAAAAAAAAAAAAAAAAA8eIEAAAAAAACxQAAAHwAQAAAADAjBmBQwwIPAAACIAiVSUACCAAAhAgAIiACIdIgIYCLAkbGUIAhglADIyAcQgIAOCAAAQAAAACAQAACAAAAAQAAAAAAAAA==

> <PUBCHEM_IUPAC_OPENEYE_NAME>
6-[2-[4-[3-(trifluoromethyl)phenyl]piperazin-1-yl]ethyl]-1,4-dihydroquinoxaline-2,3-dione

> <PUBCHEM_IUPAC_CAS_NAME>
6-[2-[4-[3-(trifluoromethyl)phenyl]-1-piperazinyl]ethyl]-1,4-dihydroquinoxaline-2,3-dione

> <PUBCHEM_IUPAC_NAME_MARKUP>
6-[2-[4-[3-(trifluoromethyl)phenyl]piperazin-1-yl]ethyl]-1,4-dihydroquinoxaline-2,3-dione

> <PUBCHEM_IUPAC_NAME>
6-[2-[4-[3-(trifluoromethyl)phenyl]piperazin-1-yl]ethyl]-1,4-dihydroquinoxaline-2,3-dione

> <PUBCHEM_IUPAC_SYSTEMATIC_NAME>
6-[2-[4-[3-(trifluoromethyl)phenyl]piperazin-1-yl]ethyl]-1,4-dihydroquinoxaline-2,3-dione

> <PUBCHEM_IUPAC_TRADITIONAL_NAME>
6-[2-[4-[3-(trifluoromethyl)phenyl]piperazino]ethyl]-1,4-dihydroquinoxaline-2,3-quinone

> <PUBCHEM_IUPAC_INCHI>
InChI=1S/C21H21F3N4O2/c22-21(23,24)15-2-1-3-16(13-15)28-10-8-27(9-11-28)7-6-14-4-5-17-18(12-14)26-20(30)19(29)25-17/h1-5,12-13H,6-11H2,(H,25,29)(H,26,30)

> <PUBCHEM_IUPAC_INCHIKEY>
OPQCVWLIKQKWEU-UHFFFAOYSA-N

> <PUBCHEM_XLOGP3_AA>
3.2

> <PUBCHEM_EXACT_MASS>
418.16166041

> <PUBCHEM_MOLECULAR_FORMULA>
C21H21F3N4O2

> <PUBCHEM_MOLECULAR_WEIGHT>
418.4

> <PUBCHEM_OPENEYE_CAN_SMILES>
C1CN(CCN1CCC2=CC3=C(C=C2)NC(=O)C(=O)N3)C4=CC=CC(=C4)C(F)(F)F

> <PUBCHEM_OPENEYE_ISO_SMILES>
C1CN(CCN1CCC2=CC3=C(C=C2)NC(=O)C(=O)N3)C4=CC=CC(=C4)C(F)(F)F

> <PUBCHEM_CACTVS_TPSA>
64.7

> <PUBCHEM_MONOISOTOPIC_WEIGHT>
418.16166041

> <PUBCHEM_TOTAL_CHARGE>
0

> <PUBCHEM_HEAVY_ATOM_COUNT>
30

> <PUBCHEM_ATOM_DEF_STEREO_COUNT>
0

> <PUBCHEM_ATOM_UDEF_STEREO_COUNT>
0

> <PUBCHEM_BOND_DEF_STEREO_COUNT>
0

> <PUBCHEM_BOND_UDEF_STEREO_COUNT>
0

> <PUBCHEM_ISOTOPIC_ATOM_COUNT>
0

> <PUBCHEM_COMPONENT_COUNT>
1

> <PUBCHEM_CACTVS_TAUTO_COUNT>
-1

> <PUBCHEM_COORDINATE_TYPE>
1
5
255

> <PUBCHEM_BONDANNOTATIONS>
16  18  8
16  19  8
17  20  8
17  21  8
18  22  8
19  25  8
20  23  8
21  26  8
22  27  8
23  24  8
24  26  8
25  27  8
29  30  8
8  23  8
8  29  8
9  24  8
9  30  8

$$$$
