164623591
  -OEChem-09292322432D

 74 77  0     1  0  0  0  0  0999 V2000
    2.1744    1.1185    0.0000 Cl  0  0  0  0  0  0  0  0  0  0  0  0
    9.8303   -1.1743    0.0000 O   0  0  0  0  0  0  0  0  0  0  0  0
   14.1623   -1.6576    0.0000 O   0  0  0  0  0  0  0  0  0  0  0  0
    4.4001   -1.7181    0.0000 O   0  0  0  0  0  0  0  0  0  0  0  0
    2.9949   -0.7054    0.0000 O   0  0  0  0  0  0  0  0  0  0  0  0
    6.1541    0.7157    0.0000 O   0  0  0  0  0  0  0  0  0  0  0  0
   19.4245   -1.6335    0.0000 O   0  0  0  0  0  0  0  0  0  0  0  0
    7.8882   -2.8843    0.0000 N   0  0  0  0  0  0  0  0  0  0  0  0
    5.9797   -1.0075    0.0000 N   0  0  0  0  0  0  0  0  0  0  0  0
   17.6924   -1.6335    0.0000 N   0  0  0  0  0  0  0  0  0  0  0  0
    7.3848   -2.0202    0.0000 C   0  0  1  0  0  0  0  0  0  0  0  0
    8.0511   -1.2745    0.0000 C   0  0  0  0  0  0  0  0  0  0  0  0
    8.9662   -1.6777    0.0000 C   0  0  2  0  0  0  0  0  0  0  0  0
    8.8655   -2.6726    0.0000 C   0  0  0  0  0  0  0  0  0  0  0  0
    6.3899   -1.9195    0.0000 C   0  0  0  0  0  0  0  0  0  0  0  0
   10.6982   -1.6710    0.0000 C   0  0  0  0  0  0  0  0  0  0  0  0
   11.5623   -1.1677    0.0000 C   0  0  0  0  0  0  0  0  0  0  0  0
   12.4303   -1.6643    0.0000 C   0  0  0  0  0  0  0  0  0  0  0  0
    4.9848   -0.9068    0.0000 C   0  0  0  0  0  0  0  0  0  0  0  0
   13.2944   -1.1610    0.0000 C   0  0  0  0  0  0  0  0  0  0  0  0
    4.5745    0.0051    0.0000 C   0  0  0  0  0  0  0  0  0  0  0  0
    5.1592    0.8164    0.0000 C   0  0  0  0  0  0  0  0  0  0  0  0
    3.5796    0.1058    0.0000 C   0  0  0  0  0  0  0  0  0  0  0  0
   16.8264   -0.1335    0.0000 C   0  0  0  0  0  0  0  0  0  0  0  0
   17.6924    0.3665    0.0000 C   0  0  0  0  0  0  0  0  0  0  0  0
    4.7489    1.7284    0.0000 C   0  0  0  0  0  0  0  0  0  0  0  0
   15.0264   -1.1543    0.0000 C   0  0  0  0  0  0  0  0  0  0  0  0
   16.8264   -1.1335    0.0000 C   0  0  0  0  0  0  0  0  0  0  0  0
   18.5585   -0.1335    0.0000 C   0  0  0  0  0  0  0  0  0  0  0  0
   15.9325   -1.6682    0.0000 C   0  0  0  0  0  0  0  0  0  0  0  0
    3.1693    1.0178    0.0000 C   0  0  0  0  0  0  0  0  0  0  0  0
   15.9325    0.4012    0.0000 C   0  0  0  0  0  0  0  0  0  0  0  0
    3.7540    1.8291    0.0000 C   0  0  0  0  0  0  0  0  0  0  0  0
   15.0264   -0.1127    0.0000 C   0  0  0  0  0  0  0  0  0  0  0  0
    5.3336    2.5397    0.0000 C   0  0  0  0  0  0  0  0  0  0  0  0
   18.5585   -1.1335    0.0000 C   0  0  0  0  0  0  0  0  0  0  0  0
    4.9233    3.4516    0.0000 C   0  0  0  0  0  0  0  0  0  0  0  0
    2.0000   -0.6047    0.0000 C   0  0  0  0  0  0  0  0  0  0  0  0
    7.0492   -2.5415    0.0000 H   0  0  0  0  0  0  0  0  0  0  0  0
    8.3590   -0.7363    0.0000 H   0  0  0  0  0  0  0  0  0  0  0  0
    7.5481   -0.9120    0.0000 H   0  0  0  0  0  0  0  0  0  0  0  0
    8.9314   -1.0587    0.0000 H   0  0  0  0  0  0  0  0  0  0  0  0
    8.9327   -3.2889    0.0000 H   0  0  0  0  0  0  0  0  0  0  0  0
    9.4855   -2.6702    0.0000 H   0  0  0  0  0  0  0  0  0  0  0  0
    7.6382   -3.4516    0.0000 H   0  0  0  0  0  0  0  0  0  0  0  0
    5.7889   -2.0718    0.0000 H   0  0  0  0  0  0  0  0  0  0  0  0
    6.4356   -2.5378    0.0000 H   0  0  0  0  0  0  0  0  0  0  0  0
   10.3016   -2.1475    0.0000 H   0  0  0  0  0  0  0  0  0  0  0  0
   11.0986   -2.1444    0.0000 H   0  0  0  0  0  0  0  0  0  0  0  0
    6.3422   -0.5045    0.0000 H   0  0  0  0  0  0  0  0  0  0  0  0
   11.9590   -0.6912    0.0000 H   0  0  0  0  0  0  0  0  0  0  0  0
   11.1620   -0.6943    0.0000 H   0  0  0  0  0  0  0  0  0  0  0  0
   12.0336   -2.1408    0.0000 H   0  0  0  0  0  0  0  0  0  0  0  0
   12.8306   -2.1377    0.0000 H   0  0  0  0  0  0  0  0  0  0  0  0
   13.6911   -0.6845    0.0000 H   0  0  0  0  0  0  0  0  0  0  0  0
   12.8940   -0.6876    0.0000 H   0  0  0  0  0  0  0  0  0  0  0  0
   18.0910    0.8414    0.0000 H   0  0  0  0  0  0  0  0  0  0  0  0
   17.2939    0.8414    0.0000 H   0  0  0  0  0  0  0  0  0  0  0  0
   19.1691   -0.2412    0.0000 H   0  0  0  0  0  0  0  0  0  0  0  0
   18.7705    0.4491    0.0000 H   0  0  0  0  0  0  0  0  0  0  0  0
   15.9397   -2.2881    0.0000 H   0  0  0  0  0  0  0  0  0  0  0  0
   15.9397    1.0211    0.0000 H   0  0  0  0  0  0  0  0  0  0  0  0
   14.4907    0.1994    0.0000 H   0  0  0  0  0  0  0  0  0  0  0  0
    3.4996    2.3945    0.0000 H   0  0  0  0  0  0  0  0  0  0  0  0
   17.6924   -2.2535    0.0000 H   0  0  0  0  0  0  0  0  0  0  0  0
    5.7660    2.0953    0.0000 H   0  0  0  0  0  0  0  0  0  0  0  0
    5.8462    2.8884    0.0000 H   0  0  0  0  0  0  0  0  0  0  0  0
    6.5166    1.2187    0.0000 H   0  0  0  0  0  0  0  0  0  0  0  0
    5.4887    3.7060    0.0000 H   0  0  0  0  0  0  0  0  0  0  0  0
    4.6690    4.0171    0.0000 H   0  0  0  0  0  0  0  0  0  0  0  0
    4.3579    3.1973    0.0000 H   0  0  0  0  0  0  0  0  0  0  0  0
    2.0624    0.0121    0.0000 H   0  0  0  0  0  0  0  0  0  0  0  0
    1.3832   -0.5423    0.0000 H   0  0  0  0  0  0  0  0  0  0  0  0
    1.9376   -1.2216    0.0000 H   0  0  0  0  0  0  0  0  0  0  0  0
  1 31  1  0  0  0  0
 13  2  1  1  0  0  0
  2 16  1  0  0  0  0
  3 20  1  0  0  0  0
  3 27  1  0  0  0  0
  4 19  2  0  0  0  0
  5 23  1  0  0  0  0
  5 38  1  0  0  0  0
  6 22  1  0  0  0  0
  6 68  1  0  0  0  0
  7 36  2  0  0  0  0
  8 11  1  0  0  0  0
  8 14  1  0  0  0  0
  8 45  1  0  0  0  0
  9 15  1  0  0  0  0
  9 19  1  0  0  0  0
  9 50  1  0  0  0  0
 10 28  1  0  0  0  0
 10 36  1  0  0  0  0
 10 65  1  0  0  0  0
 11 12  1  0  0  0  0
 11 15  1  6  0  0  0
 11 39  1  0  0  0  0
 12 13  1  0  0  0  0
 12 40  1  0  0  0  0
 12 41  1  0  0  0  0
 13 14  1  0  0  0  0
 13 42  1  0  0  0  0
 14 43  1  0  0  0  0
 14 44  1  0  0  0  0
 15 46  1  0  0  0  0
 15 47  1  0  0  0  0
 16 17  1  0  0  0  0
 16 48  1  0  0  0  0
 16 49  1  0  0  0  0
 17 18  1  0  0  0  0
 17 51  1  0  0  0  0
 17 52  1  0  0  0  0
 18 20  1  0  0  0  0
 18 53  1  0  0  0  0
 18 54  1  0  0  0  0
 19 21  1  0  0  0  0
 20 55  1  0  0  0  0
 20 56  1  0  0  0  0
 21 22  2  0  0  0  0
 21 23  1  0  0  0  0
 22 26  1  0  0  0  0
 23 31  2  0  0  0  0
 24 25  1  0  0  0  0
 24 28  2  0  0  0  0
 24 32  1  0  0  0  0
 25 29  1  0  0  0  0
 25 57  1  0  0  0  0
 25 58  1  0  0  0  0
 26 33  2  0  0  0  0
 26 35  1  0  0  0  0
 27 30  2  0  0  0  0
 27 34  1  0  0  0  0
 28 30  1  0  0  0  0
 29 36  1  0  0  0  0
 29 59  1  0  0  0  0
 29 60  1  0  0  0  0
 30 61  1  0  0  0  0
 31 33  1  0  0  0  0
 32 34  2  0  0  0  0
 32 62  1  0  0  0  0
 33 64  1  0  0  0  0
 34 63  1  0  0  0  0
 35 37  1  0  0  0  0
 35 66  1  0  0  0  0
 35 67  1  0  0  0  0
 37 69  1  0  0  0  0
 37 70  1  0  0  0  0
 37 71  1  0  0  0  0
 38 72  1  0  0  0  0
 38 73  1  0  0  0  0
 38 74  1  0  0  0  0
M  END
> <PUBCHEM_COMPOUND_CID>
164623591

> <PUBCHEM_COMPOUND_CANONICALIZED>
1

> <PUBCHEM_CACTVS_COMPLEXITY>
775

> <PUBCHEM_CACTVS_HBOND_ACCEPTOR>
7

> <PUBCHEM_CACTVS_HBOND_DONOR>
4

> <PUBCHEM_CACTVS_ROTATABLE_BOND>
12

> <PUBCHEM_CACTVS_SUBSKEYS>
AAADcfB7OAAEAAAAAAAAAAAAAAAAAWAAAAA8YIAAAAAAAACxQAAAHgIQCAAADD7hmCYyxoLABgCIAiVSUACCCAAlJ0AIiIEOb8gOZzfHt5uXeWjn9h3Y+Qf4+e+eICACKgAKCABAQARUABQQAAAAAAAAAA==

> <PUBCHEM_IUPAC_OPENEYE_NAME>
5-chloro-3-ethyl-2-hydroxy-6-methoxy-N-[[(2S,4R)-4-[4-[(2-oxo-3,4-dihydro-1H-quinolin-7-yl)oxy]butoxy]pyrrolidin-2-yl]methyl]benzamide

> <PUBCHEM_IUPAC_CAS_NAME>
5-chloro-3-ethyl-2-hydroxy-6-methoxy-N-[[(2S,4R)-4-[4-[(2-oxo-3,4-dihydro-1H-quinolin-7-yl)oxy]butoxy]-2-pyrrolidinyl]methyl]benzamide

> <PUBCHEM_IUPAC_NAME_MARKUP>
5-chloro-3-ethyl-2-hydroxy-6-methoxy-<I>N</I>-[[(2<I>S</I>,4<I>R</I>)-4-[4-[(2-oxo-3,4-dihydro-1<I>H</I>-quinolin-7-yl)oxy]butoxy]pyrrolidin-2-yl]methyl]benzamide

> <PUBCHEM_IUPAC_NAME>
5-chloro-3-ethyl-2-hydroxy-6-methoxy-N-[[(2S,4R)-4-[4-[(2-oxo-3,4-dihydro-1H-quinolin-7-yl)oxy]butoxy]pyrrolidin-2-yl]methyl]benzamide

> <PUBCHEM_IUPAC_SYSTEMATIC_NAME>
3-chloranyl-5-ethyl-2-methoxy-6-oxidanyl-N-[[(2S,4R)-4-[4-[(2-oxidanylidene-3,4-dihydro-1H-quinolin-7-yl)oxy]butoxy]pyrrolidin-2-yl]methyl]benzamide

> <PUBCHEM_IUPAC_TRADITIONAL_NAME>
5-chloro-3-ethyl-2-hydroxy-N-[[(2S,4R)-4-[4-[(2-keto-3,4-dihydro-1H-quinolin-7-yl)oxy]butoxy]pyrrolidin-2-yl]methyl]-6-methoxy-benzamide

> <PUBCHEM_IUPAC_INCHI>
InChI=1S/C28H36ClN3O6/c1-3-17-12-22(29)27(36-2)25(26(17)34)28(35)31-15-19-13-21(16-30-19)38-11-5-4-10-37-20-8-6-18-7-9-24(33)32-23(18)14-20/h6,8,12,14,19,21,30,34H,3-5,7,9-11,13,15-16H2,1-2H3,(H,31,35)(H,32,33)/t19-,21+/m0/s1

> <PUBCHEM_IUPAC_INCHIKEY>
FLDYDMUQJQRGFN-PZJWPPBQSA-N

> <PUBCHEM_XLOGP3_AA>
4

> <PUBCHEM_EXACT_MASS>
545.2292636

> <PUBCHEM_MOLECULAR_FORMULA>
C28H36ClN3O6

> <PUBCHEM_MOLECULAR_WEIGHT>
546.1

> <PUBCHEM_OPENEYE_CAN_SMILES>
CCC1=CC(=C(C(=C1O)C(=O)NCC2CC(CN2)OCCCCOC3=CC4=C(CCC(=O)N4)C=C3)OC)Cl

> <PUBCHEM_OPENEYE_ISO_SMILES>
CCC1=CC(=C(C(=C1O)C(=O)NC[C@@H]2C[C@H](CN2)OCCCCOC3=CC4=C(CCC(=O)N4)C=C3)OC)Cl

> <PUBCHEM_CACTVS_TPSA>
118

> <PUBCHEM_MONOISOTOPIC_WEIGHT>
545.2292636

> <PUBCHEM_TOTAL_CHARGE>
0

> <PUBCHEM_HEAVY_ATOM_COUNT>
38

> <PUBCHEM_ATOM_DEF_STEREO_COUNT>
2

> <PUBCHEM_ATOM_UDEF_STEREO_COUNT>
0

> <PUBCHEM_BOND_DEF_STEREO_COUNT>
0

> <PUBCHEM_BOND_UDEF_STEREO_COUNT>
0

> <PUBCHEM_ISOTOPIC_ATOM_COUNT>
0

> <PUBCHEM_COMPONENT_COUNT>
1

> <PUBCHEM_CACTVS_TAUTO_COUNT>
-1

> <PUBCHEM_COORDINATE_TYPE>
1
5
255

> <PUBCHEM_BONDANNOTATIONS>
11  15  6
13  2  5
21  22  8
21  23  8
22  26  8
23  31  8
24  28  8
24  32  8
26  33  8
27  30  8
27  34  8
28  30  8
31  33  8
32  34  8

$$$$
