51003550
  -OEChem-09292322042D

 59 63  0     1  0  0  0  0  0999 V2000
    8.1224    0.2846    0.0000 S   0  0  0  0  0  0  0  0  0  0  0  0
    9.1224    0.2846    0.0000 O   0  0  0  0  0  0  0  0  0  0  0  0
    7.1224    0.2846    0.0000 O   0  0  0  0  0  0  0  0  0  0  0  0
    8.1224    4.2846    0.0000 O   0  0  0  0  0  0  0  0  0  0  0  0
    8.1224    1.2846    0.0000 N   0  0  3  0  0  0  0  0  0  0  0  0
    4.5923    1.2605    0.0000 N   0  0  0  0  0  0  0  0  0  0  0  0
    2.8641    0.2538    0.0000 N   0  0  0  0  0  0  0  0  0  0  0  0
    8.9884    1.7846    0.0000 C   0  0  3  0  0  0  0  0  0  0  0  0
    7.2564    1.7846    0.0000 C   0  0  0  0  0  0  0  0  0  0  0  0
    8.9884    2.7846    0.0000 C   0  0  0  0  0  0  0  0  0  0  0  0
    4.5961    0.2605    0.0000 C   0  0  0  0  0  0  0  0  0  0  0  0
    3.7243    1.7571    0.0000 C   0  0  0  0  0  0  0  0  0  0  0  0
    7.2564    2.7846    0.0000 C   0  0  0  0  0  0  0  0  0  0  0  0
    5.4564    1.7638    0.0000 C   0  0  0  0  0  0  0  0  0  0  0  0
    3.7320   -0.2428    0.0000 C   0  0  0  0  0  0  0  0  0  0  0  0
    2.8602    1.2538    0.0000 C   0  0  0  0  0  0  0  0  0  0  0  0
    6.3624    1.2500    0.0000 C   0  0  0  0  0  0  0  0  0  0  0  0
    8.1224    3.2846    0.0000 C   0  0  0  0  0  0  0  0  0  0  0  0
    9.8544    1.2846    0.0000 C   0  0  0  0  0  0  0  0  0  0  0  0
    6.3624    3.3193    0.0000 C   0  0  0  0  0  0  0  0  0  0  0  0
    5.4564    2.8054    0.0000 C   0  0  0  0  0  0  0  0  0  0  0  0
    8.1224   -0.7154    0.0000 C   0  0  0  0  0  0  0  0  0  0  0  0
    2.0000   -0.2495    0.0000 C   0  0  0  0  0  0  0  0  0  0  0  0
    8.9884   -1.2154    0.0000 C   0  0  0  0  0  0  0  0  0  0  0  0
    7.2564   -1.2154    0.0000 C   0  0  0  0  0  0  0  0  0  0  0  0
    8.9884   -2.2154    0.0000 C   0  0  0  0  0  0  0  0  0  0  0  0
    8.1224   -2.7154    0.0000 C   0  0  0  0  0  0  0  0  0  0  0  0
    7.2564   -2.2154    0.0000 C   0  0  0  0  0  0  0  0  0  0  0  0
    9.8984   -2.7222    0.0000 C   0  0  0  0  0  0  0  0  0  0  0  0
    8.1063   -3.7569    0.0000 C   0  0  0  0  0  0  0  0  0  0  0  0
    9.9065   -3.7638    0.0000 C   0  0  0  0  0  0  0  0  0  0  0  0
    9.0044   -4.2846    0.0000 C   0  0  0  0  0  0  0  0  0  0  0  0
    8.9884    1.1646    0.0000 H   0  0  0  0  0  0  0  0  0  0  0  0
    9.5990    2.6770    0.0000 H   0  0  0  0  0  0  0  0  0  0  0  0
    9.2005    3.3672    0.0000 H   0  0  0  0  0  0  0  0  0  0  0  0
    4.8104   -0.3213    0.0000 H   0  0  0  0  0  0  0  0  0  0  0  0
    5.2063    0.3705    0.0000 H   0  0  0  0  0  0  0  0  0  0  0  0
    4.1210    2.2336    0.0000 H   0  0  0  0  0  0  0  0  0  0  0  0
    3.3240    2.2306    0.0000 H   0  0  0  0  0  0  0  0  0  0  0  0
    3.3353   -0.7193    0.0000 H   0  0  0  0  0  0  0  0  0  0  0  0
    4.1324   -0.7163    0.0000 H   0  0  0  0  0  0  0  0  0  0  0  0
    2.6459    1.8356    0.0000 H   0  0  0  0  0  0  0  0  0  0  0  0
    2.2501    1.1438    0.0000 H   0  0  0  0  0  0  0  0  0  0  0  0
    6.3696    0.6300    0.0000 H   0  0  0  0  0  0  0  0  0  0  0  0
    9.5444    0.7477    0.0000 H   0  0  0  0  0  0  0  0  0  0  0  0
   10.3914    0.9746    0.0000 H   0  0  0  0  0  0  0  0  0  0  0  0
   10.1645    1.8216    0.0000 H   0  0  0  0  0  0  0  0  0  0  0  0
    6.3696    3.9392    0.0000 H   0  0  0  0  0  0  0  0  0  0  0  0
    4.9206    3.1175    0.0000 H   0  0  0  0  0  0  0  0  0  0  0  0
    1.6879    0.2862    0.0000 H   0  0  0  0  0  0  0  0  0  0  0  0
    1.4643   -0.5616    0.0000 H   0  0  0  0  0  0  0  0  0  0  0  0
    2.3121   -0.7853    0.0000 H   0  0  0  0  0  0  0  0  0  0  0  0
    9.5254   -0.9054    0.0000 H   0  0  0  0  0  0  0  0  0  0  0  0
    6.7194   -0.9054    0.0000 H   0  0  0  0  0  0  0  0  0  0  0  0
    6.7194   -2.5254    0.0000 H   0  0  0  0  0  0  0  0  0  0  0  0
   10.4317   -2.4060    0.0000 H   0  0  0  0  0  0  0  0  0  0  0  0
    7.5659   -4.0606    0.0000 H   0  0  0  0  0  0  0  0  0  0  0  0
   10.4446   -4.0717    0.0000 H   0  0  0  0  0  0  0  0  0  0  0  0
    9.0020   -4.9046    0.0000 H   0  0  0  0  0  0  0  0  0  0  0  0
  1  2  2  0  0  0  0
  1  3  2  0  0  0  0
  1  5  1  0  0  0  0
  1 22  1  0  0  0  0
  4 18  2  0  0  0  0
  5  8  1  0  0  0  0
  5  9  1  0  0  0  0
  6 11  1  0  0  0  0
  6 12  1  0  0  0  0
  6 14  1  0  0  0  0
  7 15  1  0  0  0  0
  7 16  1  0  0  0  0
  7 23  1  0  0  0  0
  8 10  1  0  0  0  0
  8 19  1  0  0  0  0
  8 33  1  0  0  0  0
  9 13  2  0  0  0  0
  9 17  1  0  0  0  0
 10 18  1  0  0  0  0
 10 34  1  0  0  0  0
 10 35  1  0  0  0  0
 11 15  1  0  0  0  0
 11 36  1  0  0  0  0
 11 37  1  0  0  0  0
 12 16  1  0  0  0  0
 12 38  1  0  0  0  0
 12 39  1  0  0  0  0
 13 18  1  0  0  0  0
 13 20  1  0  0  0  0
 14 17  2  0  0  0  0
 14 21  1  0  0  0  0
 15 40  1  0  0  0  0
 15 41  1  0  0  0  0
 16 42  1  0  0  0  0
 16 43  1  0  0  0  0
 17 44  1  0  0  0  0
 19 45  1  0  0  0  0
 19 46  1  0  0  0  0
 19 47  1  0  0  0  0
 20 21  2  0  0  0  0
 20 48  1  0  0  0  0
 21 49  1  0  0  0  0
 22 24  2  0  0  0  0
 22 25  1  0  0  0  0
 23 50  1  0  0  0  0
 23 51  1  0  0  0  0
 23 52  1  0  0  0  0
 24 26  1  0  0  0  0
 24 53  1  0  0  0  0
 25 28  2  0  0  0  0
 25 54  1  0  0  0  0
 26 27  1  0  0  0  0
 26 29  2  0  0  0  0
 27 28  1  0  0  0  0
 27 30  2  0  0  0  0
 28 55  1  0  0  0  0
 29 31  1  0  0  0  0
 29 56  1  0  0  0  0
 30 32  1  0  0  0  0
 30 57  1  0  0  0  0
 31 32  2  0  0  0  0
 31 58  1  0  0  0  0
 32 59  1  0  0  0  0
M  END
> <PUBCHEM_COMPOUND_CID>
51003550

> <PUBCHEM_COMPOUND_CANONICALIZED>
1

> <PUBCHEM_CACTVS_COMPLEXITY>
789

> <PUBCHEM_CACTVS_HBOND_ACCEPTOR>
6

> <PUBCHEM_CACTVS_HBOND_DONOR>
0

> <PUBCHEM_CACTVS_ROTATABLE_BOND>
3

> <PUBCHEM_CACTVS_SUBSKEYS>
AAADceB7MABAAAAAAAAAAAAAAAAAAAAAAAA8eMECAAAAAADxVAAAHgQAQAAADCzB2AQywcMAAAKIAqRSQHDCABAlAgAIiBkIZMgIYDrA1dGUIYhggADIyccYiYCemAAAgAQSAAAwAAEACCQAAAAAAAAAAA==

> <PUBCHEM_IUPAC_OPENEYE_NAME>
2-methyl-7-(4-methylpiperazin-1-yl)-1-(2-naphthylsulfonyl)-2,3-dihydroquinolin-4-one

> <PUBCHEM_IUPAC_CAS_NAME>
2-methyl-7-(4-methyl-1-piperazinyl)-1-(2-naphthalenylsulfonyl)-2,3-dihydroquinolin-4-one

> <PUBCHEM_IUPAC_NAME_MARKUP>
2-methyl-7-(4-methylpiperazin-1-yl)-1-naphthalen-2-ylsulfonyl-2,3-dihydroquinolin-4-one

> <PUBCHEM_IUPAC_NAME>
2-methyl-7-(4-methylpiperazin-1-yl)-1-naphthalen-2-ylsulfonyl-2,3-dihydroquinolin-4-one

> <PUBCHEM_IUPAC_SYSTEMATIC_NAME>
2-methyl-7-(4-methylpiperazin-1-yl)-1-naphthalen-2-ylsulfonyl-2,3-dihydroquinolin-4-one

> <PUBCHEM_IUPAC_TRADITIONAL_NAME>
2-methyl-7-(4-methylpiperazino)-1-(2-naphthylsulfonyl)-2,3-dihydroquinolin-4-one

> <PUBCHEM_IUPAC_INCHI>
InChI=1S/C25H27N3O3S/c1-18-15-25(29)23-10-8-21(27-13-11-26(2)12-14-27)17-24(23)28(18)32(30,31)22-9-7-19-5-3-4-6-20(19)16-22/h3-10,16-18H,11-15H2,1-2H3

> <PUBCHEM_IUPAC_INCHIKEY>
MLWMWKMYRSHCPJ-UHFFFAOYSA-N

> <PUBCHEM_XLOGP3_AA>
3.7

> <PUBCHEM_EXACT_MASS>
449.17731291

> <PUBCHEM_MOLECULAR_FORMULA>
C25H27N3O3S

> <PUBCHEM_MOLECULAR_WEIGHT>
449.6

> <PUBCHEM_OPENEYE_CAN_SMILES>
CC1CC(=O)C2=C(N1S(=O)(=O)C3=CC4=CC=CC=C4C=C3)C=C(C=C2)N5CCN(CC5)C

> <PUBCHEM_OPENEYE_ISO_SMILES>
CC1CC(=O)C2=C(N1S(=O)(=O)C3=CC4=CC=CC=C4C=C3)C=C(C=C2)N5CCN(CC5)C

> <PUBCHEM_CACTVS_TPSA>
69.3

> <PUBCHEM_MONOISOTOPIC_WEIGHT>
449.17731291

> <PUBCHEM_TOTAL_CHARGE>
0

> <PUBCHEM_HEAVY_ATOM_COUNT>
32

> <PUBCHEM_ATOM_DEF_STEREO_COUNT>
0

> <PUBCHEM_ATOM_UDEF_STEREO_COUNT>
1

> <PUBCHEM_BOND_DEF_STEREO_COUNT>
0

> <PUBCHEM_BOND_UDEF_STEREO_COUNT>
0

> <PUBCHEM_ISOTOPIC_ATOM_COUNT>
0

> <PUBCHEM_COMPONENT_COUNT>
1

> <PUBCHEM_CACTVS_TAUTO_COUNT>
-1

> <PUBCHEM_COORDINATE_TYPE>
1
5
255

> <PUBCHEM_BONDANNOTATIONS>
13  20  8
14  17  8
14  21  8
20  21  8
22  24  8
22  25  8
24  26  8
25  28  8
26  27  8
26  29  8
27  28  8
27  30  8
29  31  8
30  32  8
31  32  8
8  19  3
9  13  8
9  17  8

$$$$
