45273529
  -OEChem-09292322282D

 57 60  0     1  0  0  0  0  0999 V2000
    2.0000   -4.5919    0.0000 Cl  0  0  0  0  0  0  0  0  0  0  0  0
    7.5777    3.0784    0.0000 O   0  0  0  0  0  0  0  0  0  0  0  0
    5.4921   -1.3132    0.0000 O   0  0  0  0  0  0  0  0  0  0  0  0
    5.0009    2.4785    0.0000 N   0  0  3  0  0  0  0  0  0  0  0  0
    4.2320   -0.0531    0.0000 N   0  0  0  0  0  0  0  0  0  0  0  0
    3.7320   -1.5919    0.0000 N   0  0  0  0  0  0  0  0  0  0  0  0
    6.5832    3.1830    0.0000 C   0  0  3  0  0  0  0  0  0  0  0  0
    5.9954    2.3739    0.0000 C   0  0  0  0  0  0  0  0  0  0  0  0
    4.5942    3.3920    0.0000 C   0  0  0  0  0  0  0  0  0  0  0  0
    6.1765    4.0965    0.0000 C   0  0  0  0  0  0  0  0  0  0  0  0
    5.1819    4.2010    0.0000 C   0  0  0  0  0  0  0  0  0  0  0  0
    4.4131    1.6695    0.0000 C   0  0  0  0  0  0  0  0  0  0  0  0
    4.8198    0.7559    0.0000 C   0  0  0  0  0  0  0  0  0  0  0  0
    3.2320   -0.0531    0.0000 C   0  0  0  0  0  0  0  0  0  0  0  0
    2.9230   -1.0042    0.0000 C   0  0  0  0  0  0  0  0  0  0  0  0
    4.5411   -1.0042    0.0000 C   0  0  0  0  0  0  0  0  0  0  0  0
    8.1655    3.8874    0.0000 C   0  0  0  0  0  0  0  0  0  0  0  0
    3.7320   -2.5919    0.0000 C   0  0  0  0  0  0  0  0  0  0  0  0
    9.1600    3.7829    0.0000 C   0  0  0  0  0  0  0  0  0  0  0  0
    2.8660   -3.0919    0.0000 C   0  0  0  0  0  0  0  0  0  0  0  0
    4.5981   -3.0919    0.0000 C   0  0  0  0  0  0  0  0  0  0  0  0
    9.5668    2.8694    0.0000 C   0  0  0  0  0  0  0  0  0  0  0  0
    9.7478    4.5919    0.0000 C   0  0  0  0  0  0  0  0  0  0  0  0
    2.8660   -4.0919    0.0000 C   0  0  0  0  0  0  0  0  0  0  0  0
    4.5981   -4.0919    0.0000 C   0  0  0  0  0  0  0  0  0  0  0  0
    3.7320   -4.5919    0.0000 C   0  0  0  0  0  0  0  0  0  0  0  0
   10.5613    2.7648    0.0000 C   0  0  0  0  0  0  0  0  0  0  0  0
   10.7423    4.4874    0.0000 C   0  0  0  0  0  0  0  0  0  0  0  0
   11.1491    3.5739    0.0000 C   0  0  0  0  0  0  0  0  0  0  0  0
    6.9476    3.6846    0.0000 H   0  0  0  0  0  0  0  0  0  0  0  0
    5.8245    1.7780    0.0000 H   0  0  0  0  0  0  0  0  0  0  0  0
    6.5527    2.1022    0.0000 H   0  0  0  0  0  0  0  0  0  0  0  0
    4.1635    3.8380    0.0000 H   0  0  0  0  0  0  0  0  0  0  0  0
    4.0801    3.0453    0.0000 H   0  0  0  0  0  0  0  0  0  0  0  0
    6.7780    4.2465    0.0000 H   0  0  0  0  0  0  0  0  0  0  0  0
    6.1332    4.7150    0.0000 H   0  0  0  0  0  0  0  0  0  0  0  0
    5.3528    4.7970    0.0000 H   0  0  0  0  0  0  0  0  0  0  0  0
    4.6247    4.4728    0.0000 H   0  0  0  0  0  0  0  0  0  0  0  0
    3.9824    2.1154    0.0000 H   0  0  0  0  0  0  0  0  0  0  0  0
    3.8991    1.3228    0.0000 H   0  0  0  0  0  0  0  0  0  0  0  0
    5.2505    0.3099    0.0000 H   0  0  0  0  0  0  0  0  0  0  0  0
    5.3338    1.1026    0.0000 H   0  0  0  0  0  0  0  0  0  0  0  0
    3.2969    0.5635    0.0000 H   0  0  0  0  0  0  0  0  0  0  0  0
    2.6256    0.0758    0.0000 H   0  0  0  0  0  0  0  0  0  0  0  0
    2.3566   -0.7520    0.0000 H   0  0  0  0  0  0  0  0  0  0  0  0
    2.6130   -1.5411    0.0000 H   0  0  0  0  0  0  0  0  0  0  0  0
    8.3364    4.4834    0.0000 H   0  0  0  0  0  0  0  0  0  0  0  0
    7.6082    4.1592    0.0000 H   0  0  0  0  0  0  0  0  0  0  0  0
    2.3291   -2.7819    0.0000 H   0  0  0  0  0  0  0  0  0  0  0  0
    5.1350   -2.7819    0.0000 H   0  0  0  0  0  0  0  0  0  0  0  0
    9.2023    2.3678    0.0000 H   0  0  0  0  0  0  0  0  0  0  0  0
    9.4956    5.1583    0.0000 H   0  0  0  0  0  0  0  0  0  0  0  0
    5.1350   -4.4019    0.0000 H   0  0  0  0  0  0  0  0  0  0  0  0
    3.7320   -5.2119    0.0000 H   0  0  0  0  0  0  0  0  0  0  0  0
   10.8135    2.1984    0.0000 H   0  0  0  0  0  0  0  0  0  0  0  0
   11.1068    4.9890    0.0000 H   0  0  0  0  0  0  0  0  0  0  0  0
   11.7657    3.5091    0.0000 H   0  0  0  0  0  0  0  0  0  0  0  0
  1 24  1  0  0  0  0
  2  7  1  0  0  0  0
  2 17  1  0  0  0  0
  3 16  2  0  0  0  0
  4  8  1  0  0  0  0
  4  9  1  0  0  0  0
  4 12  1  0  0  0  0
  5 13  1  0  0  0  0
  5 14  1  0  0  0  0
  5 16  1  0  0  0  0
  6 15  1  0  0  0  0
  6 16  1  0  0  0  0
  6 18  1  0  0  0  0
  7  8  1  0  0  0  0
  7 10  1  0  0  0  0
  7 30  1  0  0  0  0
  8 31  1  0  0  0  0
  8 32  1  0  0  0  0
  9 11  1  0  0  0  0
  9 33  1  0  0  0  0
  9 34  1  0  0  0  0
 10 11  1  0  0  0  0
 10 35  1  0  0  0  0
 10 36  1  0  0  0  0
 11 37  1  0  0  0  0
 11 38  1  0  0  0  0
 12 13  1  0  0  0  0
 12 39  1  0  0  0  0
 12 40  1  0  0  0  0
 13 41  1  0  0  0  0
 13 42  1  0  0  0  0
 14 15  1  0  0  0  0
 14 43  1  0  0  0  0
 14 44  1  0  0  0  0
 15 45  1  0  0  0  0
 15 46  1  0  0  0  0
 17 19  1  0  0  0  0
 17 47  1  0  0  0  0
 17 48  1  0  0  0  0
 18 20  2  0  0  0  0
 18 21  1  0  0  0  0
 19 22  2  0  0  0  0
 19 23  1  0  0  0  0
 20 24  1  0  0  0  0
 20 49  1  0  0  0  0
 21 25  2  0  0  0  0
 21 50  1  0  0  0  0
 22 27  1  0  0  0  0
 22 51  1  0  0  0  0
 23 28  2  0  0  0  0
 23 52  1  0  0  0  0
 24 26  2  0  0  0  0
 25 26  1  0  0  0  0
 25 53  1  0  0  0  0
 26 54  1  0  0  0  0
 27 29  2  0  0  0  0
 27 55  1  0  0  0  0
 28 29  1  0  0  0  0
 28 56  1  0  0  0  0
 29 57  1  0  0  0  0
M  END
> <PUBCHEM_COMPOUND_CID>
45273529

> <PUBCHEM_COMPOUND_CANONICALIZED>
1

> <PUBCHEM_CACTVS_COMPLEXITY>
528

> <PUBCHEM_CACTVS_HBOND_ACCEPTOR>
3

> <PUBCHEM_CACTVS_HBOND_DONOR>
0

> <PUBCHEM_CACTVS_ROTATABLE_BOND>
7

> <PUBCHEM_CACTVS_SUBSKEYS>
AAADceB7MAAEAAAAAAAAAAAAAAAAAWAAAAA8YIAAAAAAAAABQAAAHgIAAAAADB7hmCYxwIMABACIAiRCUACCAAAhBwAIiAAIboiKZiLBs5mXMAhsxgPY6CewwCAOAAAAAAIAAAAAAAAABAAAAAAAAAAAAA==

> <PUBCHEM_IUPAC_OPENEYE_NAME>
1-[2-(3-benzyloxy-1-piperidyl)ethyl]-3-(3-chlorophenyl)imidazolidin-2-one

> <PUBCHEM_IUPAC_CAS_NAME>
1-(3-chlorophenyl)-3-[2-(3-phenylmethoxy-1-piperidinyl)ethyl]-2-imidazolidinone

> <PUBCHEM_IUPAC_NAME_MARKUP>
1-(3-chlorophenyl)-3-[2-(3-phenylmethoxypiperidin-1-yl)ethyl]imidazolidin-2-one

> <PUBCHEM_IUPAC_NAME>
1-(3-chlorophenyl)-3-[2-(3-phenylmethoxypiperidin-1-yl)ethyl]imidazolidin-2-one

> <PUBCHEM_IUPAC_SYSTEMATIC_NAME>
1-(3-chlorophenyl)-3-[2-(3-phenylmethoxypiperidin-1-yl)ethyl]imidazolidin-2-one

> <PUBCHEM_IUPAC_TRADITIONAL_NAME>
1-[2-(3-benzoxypiperidino)ethyl]-3-(3-chlorophenyl)-2-imidazolidinone

> <PUBCHEM_IUPAC_INCHI>
InChI=1S/C23H28ClN3O2/c24-20-8-4-9-21(16-20)27-15-14-26(23(27)28)13-12-25-11-5-10-22(17-25)29-18-19-6-2-1-3-7-19/h1-4,6-9,16,22H,5,10-15,17-18H2

> <PUBCHEM_IUPAC_INCHIKEY>
GESNZTWIXMSIMZ-UHFFFAOYSA-N

> <PUBCHEM_XLOGP3_AA>
3.6

> <PUBCHEM_EXACT_MASS>
413.1870048

> <PUBCHEM_MOLECULAR_FORMULA>
C23H28ClN3O2

> <PUBCHEM_MOLECULAR_WEIGHT>
413.9

> <PUBCHEM_OPENEYE_CAN_SMILES>
C1CC(CN(C1)CCN2CCN(C2=O)C3=CC(=CC=C3)Cl)OCC4=CC=CC=C4

> <PUBCHEM_OPENEYE_ISO_SMILES>
C1CC(CN(C1)CCN2CCN(C2=O)C3=CC(=CC=C3)Cl)OCC4=CC=CC=C4

> <PUBCHEM_CACTVS_TPSA>
36

> <PUBCHEM_MONOISOTOPIC_WEIGHT>
413.1870048

> <PUBCHEM_TOTAL_CHARGE>
0

> <PUBCHEM_HEAVY_ATOM_COUNT>
29

> <PUBCHEM_ATOM_DEF_STEREO_COUNT>
0

> <PUBCHEM_ATOM_UDEF_STEREO_COUNT>
1

> <PUBCHEM_BOND_DEF_STEREO_COUNT>
0

> <PUBCHEM_BOND_UDEF_STEREO_COUNT>
0

> <PUBCHEM_ISOTOPIC_ATOM_COUNT>
0

> <PUBCHEM_COMPONENT_COUNT>
1

> <PUBCHEM_CACTVS_TAUTO_COUNT>
-1

> <PUBCHEM_COORDINATE_TYPE>
1
5
255

> <PUBCHEM_BONDANNOTATIONS>
18  20  8
18  21  8
19  22  8
19  23  8
7  2  3
20  24  8
21  25  8
22  27  8
23  28  8
24  26  8
25  26  8
27  29  8
28  29  8

$$$$
