71151588
  -OEChem-09292322002D

 67 71  0     0  0  0  0  0  0999 V2000
    8.9900   -4.4518    0.0000 S   0  0  0  0  0  0  0  0  0  0  0  0
    5.1350    4.3034    0.0000 O   0  0  0  0  0  0  0  0  0  0  0  0
    9.9405   -4.1412    0.0000 O   0  0  0  0  0  0  0  0  0  0  0  0
    8.0394   -4.7625    0.0000 O   0  0  0  0  0  0  0  0  0  0  0  0
    3.4030    4.3034    0.0000 O   0  0  0  0  0  0  0  0  0  0  0  0
    6.8671    1.3034    0.0000 N   0  0  0  0  0  0  0  0  0  0  0  0
    6.8671   -0.6966    0.0000 N   0  0  0  0  0  0  0  0  0  0  0  0
    8.6793   -3.5013    0.0000 N   0  0  0  0  0  0  0  0  0  0  0  0
    2.5369    5.8034    0.0000 N   0  0  0  0  0  0  0  0  0  0  0  0
    6.0010    0.8034    0.0000 C   0  0  0  0  0  0  0  0  0  0  0  0
    7.7331    0.8034    0.0000 C   0  0  0  0  0  0  0  0  0  0  0  0
    6.0010   -0.1966    0.0000 C   0  0  0  0  0  0  0  0  0  0  0  0
    7.7331   -0.1966    0.0000 C   0  0  0  0  0  0  0  0  0  0  0  0
    6.8671    2.3034    0.0000 C   0  0  0  0  0  0  0  0  0  0  0  0
    6.8671   -1.6966    0.0000 C   0  0  0  0  0  0  0  0  0  0  0  0
    7.7331   -2.1966    0.0000 C   0  0  0  0  0  0  0  0  0  0  0  0
    6.0010    2.8034    0.0000 C   0  0  0  0  0  0  0  0  0  0  0  0
    7.7331   -3.1966    0.0000 C   0  0  0  0  0  0  0  0  0  0  0  0
    6.0010   -2.1966    0.0000 C   0  0  0  0  0  0  0  0  0  0  0  0
    8.6793   -1.8919    0.0000 C   0  0  0  0  0  0  0  0  0  0  0  0
    6.0010    3.8034    0.0000 C   0  0  0  0  0  0  0  0  0  0  0  0
    6.8671   -3.6966    0.0000 C   0  0  0  0  0  0  0  0  0  0  0  0
    9.2629   -2.6966    0.0000 C   0  0  0  0  0  0  0  0  0  0  0  0
    6.0010   -3.1966    0.0000 C   0  0  0  0  0  0  0  0  0  0  0  0
    9.3006   -5.4024    0.0000 C   0  0  0  0  0  0  0  0  0  0  0  0
    8.6328   -6.1467    0.0000 C   0  0  0  0  0  0  0  0  0  0  0  0
   10.2791   -5.6086    0.0000 C   0  0  0  0  0  0  0  0  0  0  0  0
    5.1350    5.3034    0.0000 C   0  0  0  0  0  0  0  0  0  0  0  0
    8.9434   -7.0972    0.0000 C   0  0  0  0  0  0  0  0  0  0  0  0
   10.5898   -6.5591    0.0000 C   0  0  0  0  0  0  0  0  0  0  0  0
    4.2690    5.8034    0.0000 C   0  0  0  0  0  0  0  0  0  0  0  0
    6.0010    5.8034    0.0000 C   0  0  0  0  0  0  0  0  0  0  0  0
    9.9220   -7.3034    0.0000 C   0  0  0  0  0  0  0  0  0  0  0  0
    4.2690    6.8034    0.0000 C   0  0  0  0  0  0  0  0  0  0  0  0
    6.0010    6.8034    0.0000 C   0  0  0  0  0  0  0  0  0  0  0  0
    5.1350    7.3034    0.0000 C   0  0  0  0  0  0  0  0  0  0  0  0
    3.4030    5.3034    0.0000 C   0  0  0  0  0  0  0  0  0  0  0  0
    5.7890    1.3860    0.0000 H   0  0  0  0  0  0  0  0  0  0  0  0
    5.3905    0.6957    0.0000 H   0  0  0  0  0  0  0  0  0  0  0  0
    8.3437    0.6957    0.0000 H   0  0  0  0  0  0  0  0  0  0  0  0
    7.9451    1.3860    0.0000 H   0  0  0  0  0  0  0  0  0  0  0  0
    5.3905   -0.0889    0.0000 H   0  0  0  0  0  0  0  0  0  0  0  0
    5.7890   -0.7792    0.0000 H   0  0  0  0  0  0  0  0  0  0  0  0
    7.9451   -0.7792    0.0000 H   0  0  0  0  0  0  0  0  0  0  0  0
    8.3437   -0.0889    0.0000 H   0  0  0  0  0  0  0  0  0  0  0  0
    7.4776    2.1957    0.0000 H   0  0  0  0  0  0  0  0  0  0  0  0
    7.0791    2.8860    0.0000 H   0  0  0  0  0  0  0  0  0  0  0  0
    5.3905    2.9111    0.0000 H   0  0  0  0  0  0  0  0  0  0  0  0
    5.7890    2.2208    0.0000 H   0  0  0  0  0  0  0  0  0  0  0  0
    5.4641   -1.8866    0.0000 H   0  0  0  0  0  0  0  0  0  0  0  0
    8.8719   -1.3025    0.0000 H   0  0  0  0  0  0  0  0  0  0  0  0
    6.6116    3.6958    0.0000 H   0  0  0  0  0  0  0  0  0  0  0  0
    6.2131    4.3860    0.0000 H   0  0  0  0  0  0  0  0  0  0  0  0
    6.8671   -4.3166    0.0000 H   0  0  0  0  0  0  0  0  0  0  0  0
    9.8829   -2.6966    0.0000 H   0  0  0  0  0  0  0  0  0  0  0  0
    5.4641   -3.5066    0.0000 H   0  0  0  0  0  0  0  0  0  0  0  0
    8.0261   -6.0188    0.0000 H   0  0  0  0  0  0  0  0  0  0  0  0
   10.6932   -5.1471    0.0000 H   0  0  0  0  0  0  0  0  0  0  0  0
    8.5294   -7.5586    0.0000 H   0  0  0  0  0  0  0  0  0  0  0  0
   11.1965   -6.6870    0.0000 H   0  0  0  0  0  0  0  0  0  0  0  0
    6.5380    5.4934    0.0000 H   0  0  0  0  0  0  0  0  0  0  0  0
   10.1146   -7.8927    0.0000 H   0  0  0  0  0  0  0  0  0  0  0  0
    3.7320    7.1134    0.0000 H   0  0  0  0  0  0  0  0  0  0  0  0
    6.5380    7.1134    0.0000 H   0  0  0  0  0  0  0  0  0  0  0  0
    5.1350    7.9234    0.0000 H   0  0  0  0  0  0  0  0  0  0  0  0
    2.0000    5.4934    0.0000 H   0  0  0  0  0  0  0  0  0  0  0  0
    2.5369    6.4234    0.0000 H   0  0  0  0  0  0  0  0  0  0  0  0
  1  3  2  0  0  0  0
  1  4  2  0  0  0  0
  1  8  1  0  0  0  0
  1 25  1  0  0  0  0
  2 21  1  0  0  0  0
  2 28  1  0  0  0  0
  5 37  2  0  0  0  0
  6 10  1  0  0  0  0
  6 11  1  0  0  0  0
  6 14  1  0  0  0  0
  7 12  1  0  0  0  0
  7 13  1  0  0  0  0
  7 15  1  0  0  0  0
  8 18  1  0  0  0  0
  8 23  1  0  0  0  0
  9 37  1  0  0  0  0
  9 66  1  0  0  0  0
  9 67  1  0  0  0  0
 10 12  1  0  0  0  0
 10 38  1  0  0  0  0
 10 39  1  0  0  0  0
 11 13  1  0  0  0  0
 11 40  1  0  0  0  0
 11 41  1  0  0  0  0
 12 42  1  0  0  0  0
 12 43  1  0  0  0  0
 13 44  1  0  0  0  0
 13 45  1  0  0  0  0
 14 17  1  0  0  0  0
 14 46  1  0  0  0  0
 14 47  1  0  0  0  0
 15 16  1  0  0  0  0
 15 19  2  0  0  0  0
 16 18  2  0  0  0  0
 16 20  1  0  0  0  0
 17 21  1  0  0  0  0
 17 48  1  0  0  0  0
 17 49  1  0  0  0  0
 18 22  1  0  0  0  0
 19 24  1  0  0  0  0
 19 50  1  0  0  0  0
 20 23  2  0  0  0  0
 20 51  1  0  0  0  0
 21 52  1  0  0  0  0
 21 53  1  0  0  0  0
 22 24  2  0  0  0  0
 22 54  1  0  0  0  0
 23 55  1  0  0  0  0
 24 56  1  0  0  0  0
 25 26  2  0  0  0  0
 25 27  1  0  0  0  0
 26 29  1  0  0  0  0
 26 57  1  0  0  0  0
 27 30  2  0  0  0  0
 27 58  1  0  0  0  0
 28 31  1  0  0  0  0
 28 32  2  0  0  0  0
 29 33  2  0  0  0  0
 29 59  1  0  0  0  0
 30 33  1  0  0  0  0
 30 60  1  0  0  0  0
 31 34  2  0  0  0  0
 31 37  1  0  0  0  0
 32 35  1  0  0  0  0
 32 61  1  0  0  0  0
 33 62  1  0  0  0  0
 34 36  1  0  0  0  0
 34 63  1  0  0  0  0
 35 36  2  0  0  0  0
 35 64  1  0  0  0  0
 36 65  1  0  0  0  0
M  END
> <PUBCHEM_COMPOUND_CID>
71151588

> <PUBCHEM_COMPOUND_CANONICALIZED>
1

> <PUBCHEM_CACTVS_COMPLEXITY>
851

> <PUBCHEM_CACTVS_HBOND_ACCEPTOR>
6

> <PUBCHEM_CACTVS_HBOND_DONOR>
1

> <PUBCHEM_CACTVS_ROTATABLE_BOND>
9

> <PUBCHEM_CACTVS_SUBSKEYS>
AAADceB7uABAAAAAAAAAAAAAAAAAAWAAAAA8YMEAAAAAAFgB9AAAHgQQQAAADAzh3gY8x/NIFAKoAzV3VHDCiDA1IiAI2Dk+bNgMZvbE9duWPWjm4BHI6YeYyKCOAAAAAAQKAAAAAAAACBQAAAAAAAAAAA==

> <PUBCHEM_IUPAC_OPENEYE_NAME>
2-[3-[4-[1-(benzenesulfonyl)indol-4-yl]piperazin-1-yl]propoxy]benzamide

> <PUBCHEM_IUPAC_CAS_NAME>
2-[3-[4-[1-(benzenesulfonyl)-4-indolyl]-1-piperazinyl]propoxy]benzamide

> <PUBCHEM_IUPAC_NAME_MARKUP>
2-[3-[4-[1-(benzenesulfonyl)indol-4-yl]piperazin-1-yl]propoxy]benzamide

> <PUBCHEM_IUPAC_NAME>
2-[3-[4-[1-(benzenesulfonyl)indol-4-yl]piperazin-1-yl]propoxy]benzamide

> <PUBCHEM_IUPAC_SYSTEMATIC_NAME>
2-[3-[4-[1-(phenylsulfonyl)indol-4-yl]piperazin-1-yl]propoxy]benzamide

> <PUBCHEM_IUPAC_TRADITIONAL_NAME>
2-[3-[4-(1-besylindol-4-yl)piperazino]propoxy]benzamide

> <PUBCHEM_IUPAC_INCHI>
InChI=1S/C28H30N4O4S/c29-28(33)24-10-4-5-13-27(24)36-21-7-15-30-17-19-31(20-18-30)25-11-6-12-26-23(25)14-16-32(26)37(34,35)22-8-2-1-3-9-22/h1-6,8-14,16H,7,15,17-21H2,(H2,29,33)

> <PUBCHEM_IUPAC_INCHIKEY>
KWZBJWOQFABHPF-UHFFFAOYSA-N

> <PUBCHEM_XLOGP3_AA>
4.1

> <PUBCHEM_EXACT_MASS>
518.19877662

> <PUBCHEM_MOLECULAR_FORMULA>
C28H30N4O4S

> <PUBCHEM_MOLECULAR_WEIGHT>
518.6

> <PUBCHEM_OPENEYE_CAN_SMILES>
C1CN(CCN1CCCOC2=CC=CC=C2C(=O)N)C3=CC=CC4=C3C=CN4S(=O)(=O)C5=CC=CC=C5

> <PUBCHEM_OPENEYE_ISO_SMILES>
C1CN(CCN1CCCOC2=CC=CC=C2C(=O)N)C3=CC=CC4=C3C=CN4S(=O)(=O)C5=CC=CC=C5

> <PUBCHEM_CACTVS_TPSA>
106

> <PUBCHEM_MONOISOTOPIC_WEIGHT>
518.19877662

> <PUBCHEM_TOTAL_CHARGE>
0

> <PUBCHEM_HEAVY_ATOM_COUNT>
37

> <PUBCHEM_ATOM_DEF_STEREO_COUNT>
0

> <PUBCHEM_ATOM_UDEF_STEREO_COUNT>
0

> <PUBCHEM_BOND_DEF_STEREO_COUNT>
0

> <PUBCHEM_BOND_UDEF_STEREO_COUNT>
0

> <PUBCHEM_ISOTOPIC_ATOM_COUNT>
0

> <PUBCHEM_COMPONENT_COUNT>
1

> <PUBCHEM_CACTVS_TAUTO_COUNT>
-1

> <PUBCHEM_COORDINATE_TYPE>
1
5
255

> <PUBCHEM_BONDANNOTATIONS>
15  16  8
15  19  8
16  18  8
16  20  8
18  22  8
19  24  8
20  23  8
22  24  8
25  26  8
25  27  8
26  29  8
27  30  8
28  31  8
28  32  8
29  33  8
30  33  8
31  34  8
32  35  8
34  36  8
35  36  8
8  18  8
8  23  8

$$$$
