145989181
  -OEChem-09292322062D

 62 67  0     1  0  0  0  0  0999 V2000
    2.7145   -0.2517    0.0000 S   0  0  0  0  0  0  0  0  0  0  0  0
   13.3262   -1.8063    0.0000 O   0  0  0  0  0  0  0  0  0  0  0  0
   12.1255    1.4925    0.0000 O   0  0  0  0  0  0  0  0  0  0  0  0
   12.4694   -0.2503    0.0000 N   0  0  0  0  0  0  0  0  0  0  0  0
    8.1182    0.0092    0.0000 N   0  0  0  0  0  0  0  0  0  0  0  0
    6.2388   -0.6748    0.0000 N   0  0  0  0  0  0  0  0  0  0  0  0
   15.4507    0.3951    0.0000 C   0  0  2  0  0  0  0  0  0  0  0  0
   15.7095    1.3611    0.0000 C   0  0  1  0  0  0  0  0  0  0  0  0
   14.0780   -0.1969    0.0000 C   0  0  2  0  0  0  0  0  0  0  0  0
   13.7360    0.7428    0.0000 C   0  0  1  0  0  0  0  0  0  0  0  0
   14.9729    2.3437    0.0000 C   0  0  0  0  0  0  0  0  0  0  0  0
   16.8496   -0.1137    0.0000 C   0  0  0  0  0  0  0  0  0  0  0  0
   17.1084    0.8522    0.0000 C   0  0  0  0  0  0  0  0  0  0  0  0
   13.2930   -0.8069    0.0000 C   0  0  0  0  0  0  0  0  0  0  0  0
   12.7426    0.7055    0.0000 C   0  0  0  0  0  0  0  0  0  0  0  0
   11.5297   -0.5923    0.0000 C   0  0  0  0  0  0  0  0  0  0  0  0
   10.7637    0.0505    0.0000 C   0  0  0  0  0  0  0  0  0  0  0  0
    9.8240   -0.2915    0.0000 C   0  0  0  0  0  0  0  0  0  0  0  0
    9.0579    0.3512    0.0000 C   0  0  0  0  0  0  0  0  0  0  0  0
    7.3522    0.6520    0.0000 C   0  0  0  0  0  0  0  0  0  0  0  0
    7.9446   -0.9756    0.0000 C   0  0  0  0  0  0  0  0  0  0  0  0
    6.4125    0.3100    0.0000 C   0  0  0  0  0  0  0  0  0  0  0  0
    7.0049   -1.3176    0.0000 C   0  0  0  0  0  0  0  0  0  0  0  0
    5.2992   -1.0168    0.0000 C   0  0  0  0  0  0  0  0  0  0  0  0
    4.5331   -0.3740    0.0000 C   0  0  0  0  0  0  0  0  0  0  0  0
    5.1255   -2.0016    0.0000 C   0  0  0  0  0  0  0  0  0  0  0  0
    3.5934   -0.7161    0.0000 C   0  0  0  0  0  0  0  0  0  0  0  0
    4.1858   -2.3437    0.0000 C   0  0  0  0  0  0  0  0  0  0  0  0
    3.4198   -1.7009    0.0000 C   0  0  0  0  0  0  0  0  0  0  0  0
    2.4350   -1.8367    0.0000 C   0  0  0  0  0  0  0  0  0  0  0  0
    2.0000   -0.9428    0.0000 C   0  0  0  0  0  0  0  0  0  0  0  0
   15.2307   -0.4259    0.0000 H   0  0  0  0  0  0  0  0  0  0  0  0
   15.9295    2.1821    0.0000 H   0  0  0  0  0  0  0  0  0  0  0  0
   14.3687   -0.9956    0.0000 H   0  0  0  0  0  0  0  0  0  0  0  0
   13.4452    1.5415    0.0000 H   0  0  0  0  0  0  0  0  0  0  0  0
   15.2907    2.8760    0.0000 H   0  0  0  0  0  0  0  0  0  0  0  0
   14.3597    2.4356    0.0000 H   0  0  0  0  0  0  0  0  0  0  0  0
   16.6547   -0.7023    0.0000 H   0  0  0  0  0  0  0  0  0  0  0  0
   17.4436   -0.2915    0.0000 H   0  0  0  0  0  0  0  0  0  0  0  0
   17.7024    0.6745    0.0000 H   0  0  0  0  0  0  0  0  0  0  0  0
   17.3034    1.4408    0.0000 H   0  0  0  0  0  0  0  0  0  0  0  0
   11.0548   -0.9908    0.0000 H   0  0  0  0  0  0  0  0  0  0  0  0
   11.8397   -1.1292    0.0000 H   0  0  0  0  0  0  0  0  0  0  0  0
   11.2386    0.4490    0.0000 H   0  0  0  0  0  0  0  0  0  0  0  0
   10.4537    0.5874    0.0000 H   0  0  0  0  0  0  0  0  0  0  0  0
    9.3490   -0.6901    0.0000 H   0  0  0  0  0  0  0  0  0  0  0  0
   10.1340   -0.8285    0.0000 H   0  0  0  0  0  0  0  0  0  0  0  0
    9.5329    0.7498    0.0000 H   0  0  0  0  0  0  0  0  0  0  0  0
    8.7479    0.8882    0.0000 H   0  0  0  0  0  0  0  0  0  0  0  0
    7.8271    1.0505    0.0000 H   0  0  0  0  0  0  0  0  0  0  0  0
    7.0422    1.1890    0.0000 H   0  0  0  0  0  0  0  0  0  0  0  0
    8.0522   -1.5862    0.0000 H   0  0  0  0  0  0  0  0  0  0  0  0
    8.5646   -0.9756    0.0000 H   0  0  0  0  0  0  0  0  0  0  0  0
    6.3048    0.9206    0.0000 H   0  0  0  0  0  0  0  0  0  0  0  0
    5.7925    0.3100    0.0000 H   0  0  0  0  0  0  0  0  0  0  0  0
    6.5299   -1.7161    0.0000 H   0  0  0  0  0  0  0  0  0  0  0  0
    7.3149   -1.8545    0.0000 H   0  0  0  0  0  0  0  0  0  0  0  0
    4.6408    0.2365    0.0000 H   0  0  0  0  0  0  0  0  0  0  0  0
    5.6005   -2.4002    0.0000 H   0  0  0  0  0  0  0  0  0  0  0  0
    4.0782   -2.9542    0.0000 H   0  0  0  0  0  0  0  0  0  0  0  0
    2.1430   -2.3836    0.0000 H   0  0  0  0  0  0  0  0  0  0  0  0
    1.3894   -0.8352    0.0000 H   0  0  0  0  0  0  0  0  0  0  0  0
  1 27  1  0  0  0  0
  1 31  1  0  0  0  0
  2 14  2  0  0  0  0
  3 15  2  0  0  0  0
  4 14  1  0  0  0  0
  4 15  1  0  0  0  0
  4 16  1  0  0  0  0
  5 19  1  0  0  0  0
  5 20  1  0  0  0  0
  5 21  1  0  0  0  0
  6 22  1  0  0  0  0
  6 23  1  0  0  0  0
  6 24  1  0  0  0  0
  7  9  1  0  0  0  0
  7 11  1  0  0  0  0
  7 12  1  0  0  0  0
  7 32  1  1  0  0  0
  8 10  1  0  0  0  0
  8 11  1  0  0  0  0
  8 13  1  0  0  0  0
  8 33  1  6  0  0  0
  9 10  1  0  0  0  0
  9 14  1  0  0  0  0
  9 34  1  6  0  0  0
 10 15  1  0  0  0  0
 10 35  1  6  0  0  0
 11 36  1  0  0  0  0
 11 37  1  0  0  0  0
 12 13  1  0  0  0  0
 12 38  1  0  0  0  0
 12 39  1  0  0  0  0
 13 40  1  0  0  0  0
 13 41  1  0  0  0  0
 16 17  1  0  0  0  0
 16 42  1  0  0  0  0
 16 43  1  0  0  0  0
 17 18  1  0  0  0  0
 17 44  1  0  0  0  0
 17 45  1  0  0  0  0
 18 19  1  0  0  0  0
 18 46  1  0  0  0  0
 18 47  1  0  0  0  0
 19 48  1  0  0  0  0
 19 49  1  0  0  0  0
 20 22  1  0  0  0  0
 20 50  1  0  0  0  0
 20 51  1  0  0  0  0
 21 23  1  0  0  0  0
 21 52  1  0  0  0  0
 21 53  1  0  0  0  0
 22 54  1  0  0  0  0
 22 55  1  0  0  0  0
 23 56  1  0  0  0  0
 23 57  1  0  0  0  0
 24 25  2  0  0  0  0
 24 26  1  0  0  0  0
 25 27  1  0  0  0  0
 25 58  1  0  0  0  0
 26 28  2  0  0  0  0
 26 59  1  0  0  0  0
 27 29  2  0  0  0  0
 28 29  1  0  0  0  0
 28 60  1  0  0  0  0
 29 30  1  0  0  0  0
 30 31  2  0  0  0  0
 30 61  1  0  0  0  0
 31 62  1  0  0  0  0
M  END
> <PUBCHEM_COMPOUND_CID>
145989181

> <PUBCHEM_COMPOUND_CANONICALIZED>
1

> <PUBCHEM_CACTVS_COMPLEXITY>
681

> <PUBCHEM_CACTVS_HBOND_ACCEPTOR>
5

> <PUBCHEM_CACTVS_HBOND_DONOR>
0

> <PUBCHEM_CACTVS_ROTATABLE_BOND>
6

> <PUBCHEM_CACTVS_SUBSKEYS>
AAADceB7MABAAAAAAAAAAAAAAAAAAeNECAA8YIAAAAAWAEgB8AAAHgQAAAAADQjF2ASwwcMAAAiMAiVSUACDAIAhChBIiBkIZIgIYDLgkZGUIAxghiDoyAcdiMCOiAAAACAEAAAQAAQAQCgAAQAACAAAAA==

> <PUBCHEM_IUPAC_OPENEYE_NAME>
(1S,2R,6S,7R)-4-[4-[4-(benzothiophen-6-yl)piperazin-1-yl]butyl]-4-azatricyclo[5.2.1.02,6]decane-3,5-dione

> <PUBCHEM_IUPAC_CAS_NAME>
(1S,2R,6S,7R)-4-[4-[4-(1-benzothiophen-6-yl)-1-piperazinyl]butyl]-4-azatricyclo[5.2.1.02,6]decane-3,5-dione

> <PUBCHEM_IUPAC_NAME_MARKUP>
(1<I>S</I>,2<I>R</I>,6<I>S</I>,7<I>R</I>)-4-[4-[4-(1-benzothiophen-6-yl)piperazin-1-yl]butyl]-4-azatricyclo[5.2.1.0<SUP>2,6</SUP>]decane-3,5-dione

> <PUBCHEM_IUPAC_NAME>
(1S,2R,6S,7R)-4-[4-[4-(1-benzothiophen-6-yl)piperazin-1-yl]butyl]-4-azatricyclo[5.2.1.02,6]decane-3,5-dione

> <PUBCHEM_IUPAC_SYSTEMATIC_NAME>
(1S,2R,6S,7R)-4-[4-[4-(1-benzothiophen-6-yl)piperazin-1-yl]butyl]-4-azatricyclo[5.2.1.02,6]decane-3,5-dione

> <PUBCHEM_IUPAC_TRADITIONAL_NAME>
(1S,2R,6S,7R)-4-[4-[4-(benzothiophen-6-yl)piperazino]butyl]-4-azatricyclo[5.2.1.02,6]decane-3,5-quinone

> <PUBCHEM_IUPAC_INCHI>
InChI=1S/C25H31N3O2S/c29-24-22-18-3-4-19(15-18)23(22)25(30)28(24)9-2-1-8-26-10-12-27(13-11-26)20-6-5-17-7-14-31-21(17)16-20/h5-7,14,16,18-19,22-23H,1-4,8-13,15H2/t18-,19+,22+,23-

> <PUBCHEM_IUPAC_INCHIKEY>
XVKUSGKUKLVLGP-ZIIYYELXSA-N

> <PUBCHEM_XLOGP3_AA>
4.3

> <PUBCHEM_EXACT_MASS>
437.21369841

> <PUBCHEM_MOLECULAR_FORMULA>
C25H31N3O2S

> <PUBCHEM_MOLECULAR_WEIGHT>
437.6

> <PUBCHEM_OPENEYE_CAN_SMILES>
C1CC2CC1C3C2C(=O)N(C3=O)CCCCN4CCN(CC4)C5=CC6=C(C=C5)C=CS6

> <PUBCHEM_OPENEYE_ISO_SMILES>
C1C[C@H]2C[C@@H]1[C@H]3[C@@H]2C(=O)N(C3=O)CCCCN4CCN(CC4)C5=CC6=C(C=C5)C=CS6

> <PUBCHEM_CACTVS_TPSA>
72.1

> <PUBCHEM_MONOISOTOPIC_WEIGHT>
437.21369841

> <PUBCHEM_TOTAL_CHARGE>
0

> <PUBCHEM_HEAVY_ATOM_COUNT>
31

> <PUBCHEM_ATOM_DEF_STEREO_COUNT>
4

> <PUBCHEM_ATOM_UDEF_STEREO_COUNT>
0

> <PUBCHEM_BOND_DEF_STEREO_COUNT>
0

> <PUBCHEM_BOND_UDEF_STEREO_COUNT>
0

> <PUBCHEM_ISOTOPIC_ATOM_COUNT>
0

> <PUBCHEM_COMPONENT_COUNT>
1

> <PUBCHEM_CACTVS_TAUTO_COUNT>
-1

> <PUBCHEM_COORDINATE_TYPE>
1
5
255

> <PUBCHEM_BONDANNOTATIONS>
1  27  8
1  31  8
10  35  6
24  25  8
24  26  8
25  27  8
26  28  8
27  29  8
28  29  8
29  30  8
30  31  8
7  32  5
8  33  6
9  34  6

$$$$
