10588666
  -OEChem-09292322102D

 39 42  0     1  0  0  0  0  0999 V2000
    4.3211    1.3684    0.0000 O   0  0  0  0  0  0  0  0  0  0  0  0
    6.2781    1.7809    0.0000 N   0  0  0  0  0  0  0  0  0  0  0  0
    4.6783   -1.9358    0.0000 N   0  0  0  0  0  0  0  0  0  0  0  0
    4.9889    0.6241    0.0000 C   0  0  3  0  0  0  0  0  0  0  0  0
    4.6783   -0.3264    0.0000 C   0  0  0  0  0  0  0  0  0  0  0  0
    5.9674    0.8304    0.0000 C   0  0  0  0  0  0  0  0  0  0  0  0
    3.7320   -0.6311    0.0000 C   0  0  0  0  0  0  0  0  0  0  0  0
    5.2619   -1.1311    0.0000 C   0  0  0  0  0  0  0  0  0  0  0  0
    3.7320   -1.6311    0.0000 C   0  0  0  0  0  0  0  0  0  0  0  0
    5.6103    2.5252    0.0000 C   0  0  0  0  0  0  0  0  0  0  0  0
    4.6318    2.3190    0.0000 C   0  0  0  0  0  0  0  0  0  0  0  0
    6.2619   -1.1311    0.0000 C   0  0  0  0  0  0  0  0  0  0  0  0
    2.8660   -0.1311    0.0000 C   0  0  0  0  0  0  0  0  0  0  0  0
    2.8660   -2.1311    0.0000 C   0  0  0  0  0  0  0  0  0  0  0  0
    2.0000   -0.6311    0.0000 C   0  0  0  0  0  0  0  0  0  0  0  0
    2.0000   -1.6311    0.0000 C   0  0  0  0  0  0  0  0  0  0  0  0
    6.7619   -0.2651    0.0000 C   0  0  0  0  0  0  0  0  0  0  0  0
    6.7619   -1.9971    0.0000 C   0  0  0  0  0  0  0  0  0  0  0  0
    7.7619   -0.2651    0.0000 C   0  0  0  0  0  0  0  0  0  0  0  0
    7.7619   -1.9971    0.0000 C   0  0  0  0  0  0  0  0  0  0  0  0
    8.2619   -1.1311    0.0000 C   0  0  0  0  0  0  0  0  0  0  0  0
    5.4030    0.1627    0.0000 H   0  0  0  0  0  0  0  0  0  0  0  0
    5.9880    0.2107    0.0000 H   0  0  0  0  0  0  0  0  0  0  0  0
    6.5812    0.7430    0.0000 H   0  0  0  0  0  0  0  0  0  0  0  0
    6.1366    2.8528    0.0000 H   0  0  0  0  0  0  0  0  0  0  0  0
    5.3790    3.1004    0.0000 H   0  0  0  0  0  0  0  0  0  0  0  0
    4.6112    2.9386    0.0000 H   0  0  0  0  0  0  0  0  0  0  0  0
    4.0179    2.4063    0.0000 H   0  0  0  0  0  0  0  0  0  0  0  0
    6.8848    1.9087    0.0000 H   0  0  0  0  0  0  0  0  0  0  0  0
    4.8709   -2.5252    0.0000 H   0  0  0  0  0  0  0  0  0  0  0  0
    2.8660    0.4889    0.0000 H   0  0  0  0  0  0  0  0  0  0  0  0
    2.8660   -2.7511    0.0000 H   0  0  0  0  0  0  0  0  0  0  0  0
    1.4631   -0.3211    0.0000 H   0  0  0  0  0  0  0  0  0  0  0  0
    1.4631   -1.9411    0.0000 H   0  0  0  0  0  0  0  0  0  0  0  0
    6.4519    0.2718    0.0000 H   0  0  0  0  0  0  0  0  0  0  0  0
    6.4519   -2.5341    0.0000 H   0  0  0  0  0  0  0  0  0  0  0  0
    8.0719    0.2718    0.0000 H   0  0  0  0  0  0  0  0  0  0  0  0
    8.0719   -2.5341    0.0000 H   0  0  0  0  0  0  0  0  0  0  0  0
    8.8819   -1.1311    0.0000 H   0  0  0  0  0  0  0  0  0  0  0  0
  1  4  1  0  0  0  0
  1 11  1  0  0  0  0
  2  6  1  0  0  0  0
  2 10  1  0  0  0  0
  2 29  1  0  0  0  0
  3  8  1  0  0  0  0
  3  9  1  0  0  0  0
  3 30  1  0  0  0  0
  4  5  1  0  0  0  0
  4  6  1  0  0  0  0
  4 22  1  0  0  0  0
  5  7  1  0  0  0  0
  5  8  2  0  0  0  0
  6 23  1  0  0  0  0
  6 24  1  0  0  0  0
  7  9  1  0  0  0  0
  7 13  2  0  0  0  0
  8 12  1  0  0  0  0
  9 14  2  0  0  0  0
 10 11  1  0  0  0  0
 10 25  1  0  0  0  0
 10 26  1  0  0  0  0
 11 27  1  0  0  0  0
 11 28  1  0  0  0  0
 12 17  2  0  0  0  0
 12 18  1  0  0  0  0
 13 15  1  0  0  0  0
 13 31  1  0  0  0  0
 14 16  1  0  0  0  0
 14 32  1  0  0  0  0
 15 16  2  0  0  0  0
 15 33  1  0  0  0  0
 16 34  1  0  0  0  0
 17 19  1  0  0  0  0
 17 35  1  0  0  0  0
 18 20  2  0  0  0  0
 18 36  1  0  0  0  0
 19 21  2  0  0  0  0
 19 37  1  0  0  0  0
 20 21  1  0  0  0  0
 20 38  1  0  0  0  0
 21 39  1  0  0  0  0
M  END
> <PUBCHEM_COMPOUND_CID>
10588666

> <PUBCHEM_COMPOUND_CANONICALIZED>
1

> <PUBCHEM_CACTVS_COMPLEXITY>
342

> <PUBCHEM_CACTVS_HBOND_ACCEPTOR>
2

> <PUBCHEM_CACTVS_HBOND_DONOR>
2

> <PUBCHEM_CACTVS_ROTATABLE_BOND>
2

> <PUBCHEM_CACTVS_SUBSKEYS>
AAADceB7IAAAAAAAAAAAAAAAAAAAAWAAAAA8YIAAAAAAAFgB9AAAHgAQAAAADBzhngYwwPLJlACgAyRiRACCgCAhAiAImaA4bJgKJuLAsZmHMAhm0AHY6AewwOAOgAAAAAACAAAAAAAAAAQAAAAAAAAAAA==

> <PUBCHEM_IUPAC_OPENEYE_NAME>
2-(2-phenyl-1H-indol-3-yl)morpholine

> <PUBCHEM_IUPAC_CAS_NAME>
2-(2-phenyl-1H-indol-3-yl)morpholine

> <PUBCHEM_IUPAC_NAME_MARKUP>
2-(2-phenyl-1<I>H</I>-indol-3-yl)morpholine

> <PUBCHEM_IUPAC_NAME>
2-(2-phenyl-1H-indol-3-yl)morpholine

> <PUBCHEM_IUPAC_SYSTEMATIC_NAME>
2-(2-phenyl-1H-indol-3-yl)morpholine

> <PUBCHEM_IUPAC_TRADITIONAL_NAME>
2-(2-phenyl-1H-indol-3-yl)morpholine

> <PUBCHEM_IUPAC_INCHI>
InChI=1S/C18H18N2O/c1-2-6-13(7-3-1)18-17(16-12-19-10-11-21-16)14-8-4-5-9-15(14)20-18/h1-9,16,19-20H,10-12H2

> <PUBCHEM_IUPAC_INCHIKEY>
VCPWSWCLJDFHBL-UHFFFAOYSA-N

> <PUBCHEM_XLOGP3_AA>
2.7

> <PUBCHEM_EXACT_MASS>
278.141913202

> <PUBCHEM_MOLECULAR_FORMULA>
C18H18N2O

> <PUBCHEM_MOLECULAR_WEIGHT>
278.3

> <PUBCHEM_OPENEYE_CAN_SMILES>
C1COC(CN1)C2=C(NC3=CC=CC=C32)C4=CC=CC=C4

> <PUBCHEM_OPENEYE_ISO_SMILES>
C1COC(CN1)C2=C(NC3=CC=CC=C32)C4=CC=CC=C4

> <PUBCHEM_CACTVS_TPSA>
37

> <PUBCHEM_MONOISOTOPIC_WEIGHT>
278.141913202

> <PUBCHEM_TOTAL_CHARGE>
0

> <PUBCHEM_HEAVY_ATOM_COUNT>
21

> <PUBCHEM_ATOM_DEF_STEREO_COUNT>
0

> <PUBCHEM_ATOM_UDEF_STEREO_COUNT>
1

> <PUBCHEM_BOND_DEF_STEREO_COUNT>
0

> <PUBCHEM_BOND_UDEF_STEREO_COUNT>
0

> <PUBCHEM_ISOTOPIC_ATOM_COUNT>
0

> <PUBCHEM_COMPONENT_COUNT>
1

> <PUBCHEM_CACTVS_TAUTO_COUNT>
-1

> <PUBCHEM_COORDINATE_TYPE>
1
5
255

> <PUBCHEM_BONDANNOTATIONS>
12  17  8
12  18  8
13  15  8
14  16  8
15  16  8
17  19  8
18  20  8
19  21  8
20  21  8
3  8  8
3  9  8
4  5  3
5  7  8
5  8  8
7  13  8
7  9  8
9  14  8

$$$$
