49782603
  -OEChem-09292322312D

 55 57  0     0  0  0  0  0  0999 V2000
    7.4641    5.7320    0.0000 Cl  0  0  0  0  0  0  0  0  0  0  0  0
    4.9641    3.1340    0.0000 O   0  0  0  0  0  0  0  0  0  0  0  0
    2.8660   -2.2320    0.0000 O   0  0  0  0  0  0  0  0  0  0  0  0
    5.4641    0.2679    0.0000 N   0  0  0  0  0  0  0  0  0  0  0  0
    5.4641    2.2680    0.0000 C   0  0  0  0  0  0  0  0  0  0  0  0
    6.3301    1.7680    0.0000 C   0  0  0  0  0  0  0  0  0  0  0  0
    4.5981    1.7680    0.0000 C   0  0  0  0  0  0  0  0  0  0  0  0
    6.3301    0.7679    0.0000 C   0  0  0  0  0  0  0  0  0  0  0  0
    4.5981    0.7679    0.0000 C   0  0  0  0  0  0  0  0  0  0  0  0
    5.4641   -0.7321    0.0000 C   0  0  0  0  0  0  0  0  0  0  0  0
    5.9641    3.1340    0.0000 C   0  0  0  0  0  0  0  0  0  0  0  0
    4.5981   -1.2320    0.0000 C   0  0  0  0  0  0  0  0  0  0  0  0
    5.4641    4.0000    0.0000 C   0  0  0  0  0  0  0  0  0  0  0  0
    6.9641    3.1340    0.0000 C   0  0  0  0  0  0  0  0  0  0  0  0
    4.5981   -2.2320    0.0000 C   0  0  0  0  0  0  0  0  0  0  0  0
    5.9641    4.8660    0.0000 C   0  0  0  0  0  0  0  0  0  0  0  0
    7.4641    4.0000    0.0000 C   0  0  0  0  0  0  0  0  0  0  0  0
    3.7320   -2.7320    0.0000 C   0  0  0  0  0  0  0  0  0  0  0  0
    6.9641    4.8660    0.0000 C   0  0  0  0  0  0  0  0  0  0  0  0
    3.7320   -3.7320    0.0000 C   0  0  0  0  0  0  0  0  0  0  0  0
    4.5981   -4.2320    0.0000 C   0  0  0  0  0  0  0  0  0  0  0  0
    2.8660   -4.2320    0.0000 C   0  0  0  0  0  0  0  0  0  0  0  0
    2.8660   -5.2320    0.0000 C   0  0  0  0  0  0  0  0  0  0  0  0
    4.5981   -5.2320    0.0000 C   0  0  0  0  0  0  0  0  0  0  0  0
    5.4641   -3.7320    0.0000 C   0  0  0  0  0  0  0  0  0  0  0  0
    3.7320   -5.7320    0.0000 C   0  0  0  0  0  0  0  0  0  0  0  0
    2.0000   -5.7320    0.0000 C   0  0  0  0  0  0  0  0  0  0  0  0
    6.9407    1.6603    0.0000 H   0  0  0  0  0  0  0  0  0  0  0  0
    6.5422    2.3506    0.0000 H   0  0  0  0  0  0  0  0  0  0  0  0
    4.3860    2.3506    0.0000 H   0  0  0  0  0  0  0  0  0  0  0  0
    3.9875    1.6603    0.0000 H   0  0  0  0  0  0  0  0  0  0  0  0
    6.5422    0.1853    0.0000 H   0  0  0  0  0  0  0  0  0  0  0  0
    6.9407    0.8756    0.0000 H   0  0  0  0  0  0  0  0  0  0  0  0
    3.9875    0.8756    0.0000 H   0  0  0  0  0  0  0  0  0  0  0  0
    4.3860    0.1853    0.0000 H   0  0  0  0  0  0  0  0  0  0  0  0
    5.6762   -1.3147    0.0000 H   0  0  0  0  0  0  0  0  0  0  0  0
    6.0747   -0.6244    0.0000 H   0  0  0  0  0  0  0  0  0  0  0  0
    4.3860   -0.6494    0.0000 H   0  0  0  0  0  0  0  0  0  0  0  0
    3.9875   -1.3397    0.0000 H   0  0  0  0  0  0  0  0  0  0  0  0
    4.3441    3.1340    0.0000 H   0  0  0  0  0  0  0  0  0  0  0  0
    4.8441    4.0000    0.0000 H   0  0  0  0  0  0  0  0  0  0  0  0
    7.2741    2.5970    0.0000 H   0  0  0  0  0  0  0  0  0  0  0  0
    4.8101   -2.8147    0.0000 H   0  0  0  0  0  0  0  0  0  0  0  0
    5.2087   -2.1244    0.0000 H   0  0  0  0  0  0  0  0  0  0  0  0
    5.6541    5.4030    0.0000 H   0  0  0  0  0  0  0  0  0  0  0  0
    8.0841    4.0000    0.0000 H   0  0  0  0  0  0  0  0  0  0  0  0
    2.3291   -3.9220    0.0000 H   0  0  0  0  0  0  0  0  0  0  0  0
    5.1350   -5.5420    0.0000 H   0  0  0  0  0  0  0  0  0  0  0  0
    5.7741   -4.2690    0.0000 H   0  0  0  0  0  0  0  0  0  0  0  0
    6.0010   -3.4220    0.0000 H   0  0  0  0  0  0  0  0  0  0  0  0
    5.1541   -3.1951    0.0000 H   0  0  0  0  0  0  0  0  0  0  0  0
    3.7320   -6.3520    0.0000 H   0  0  0  0  0  0  0  0  0  0  0  0
    1.6900   -5.1951    0.0000 H   0  0  0  0  0  0  0  0  0  0  0  0
    1.4631   -6.0420    0.0000 H   0  0  0  0  0  0  0  0  0  0  0  0
    2.3100   -6.2690    0.0000 H   0  0  0  0  0  0  0  0  0  0  0  0
  1 19  1  0  0  0  0
  2  5  1  0  0  0  0
  2 40  1  0  0  0  0
  3 18  2  0  0  0  0
  4  8  1  0  0  0  0
  4  9  1  0  0  0  0
  4 10  1  0  0  0  0
  5  6  1  0  0  0  0
  5  7  1  0  0  0  0
  5 11  1  0  0  0  0
  6  8  1  0  0  0  0
  6 28  1  0  0  0  0
  6 29  1  0  0  0  0
  7  9  1  0  0  0  0
  7 30  1  0  0  0  0
  7 31  1  0  0  0  0
  8 32  1  0  0  0  0
  8 33  1  0  0  0  0
  9 34  1  0  0  0  0
  9 35  1  0  0  0  0
 10 12  1  0  0  0  0
 10 36  1  0  0  0  0
 10 37  1  0  0  0  0
 11 13  2  0  0  0  0
 11 14  1  0  0  0  0
 12 15  1  0  0  0  0
 12 38  1  0  0  0  0
 12 39  1  0  0  0  0
 13 16  1  0  0  0  0
 13 41  1  0  0  0  0
 14 17  2  0  0  0  0
 14 42  1  0  0  0  0
 15 18  1  0  0  0  0
 15 43  1  0  0  0  0
 15 44  1  0  0  0  0
 16 19  2  0  0  0  0
 16 45  1  0  0  0  0
 17 19  1  0  0  0  0
 17 46  1  0  0  0  0
 18 20  1  0  0  0  0
 20 21  2  0  0  0  0
 20 22  1  0  0  0  0
 21 24  1  0  0  0  0
 21 25  1  0  0  0  0
 22 23  2  0  0  0  0
 22 47  1  0  0  0  0
 23 26  1  0  0  0  0
 23 27  1  0  0  0  0
 24 26  2  0  0  0  0
 24 48  1  0  0  0  0
 25 49  1  0  0  0  0
 25 50  1  0  0  0  0
 25 51  1  0  0  0  0
 26 52  1  0  0  0  0
 27 53  1  0  0  0  0
 27 54  1  0  0  0  0
 27 55  1  0  0  0  0
M  END
> <PUBCHEM_COMPOUND_CID>
49782603

> <PUBCHEM_COMPOUND_CANONICALIZED>
1

> <PUBCHEM_CACTVS_COMPLEXITY>
481

> <PUBCHEM_CACTVS_HBOND_ACCEPTOR>
3

> <PUBCHEM_CACTVS_HBOND_DONOR>
1

> <PUBCHEM_CACTVS_ROTATABLE_BOND>
6

> <PUBCHEM_CACTVS_SUBSKEYS>
AAADceB6MAAEAAAAAAAAAAAAAAAAAAAAAAA8YIAAAAAAAAABQAAAHgIACAAADEbBmCQyAIMAAgCIAqBSAAACAAAkBQAIiAEICsgIJjKBlxCEcQAmwAGImYecyOCOxAACAAAQAACIAAQAACAAAAAAAAAAAA==

> <PUBCHEM_IUPAC_OPENEYE_NAME>
4-[4-(4-chlorophenyl)-4-hydroxy-1-piperidyl]-1-(2,5-dimethylphenyl)butan-1-one

> <PUBCHEM_IUPAC_CAS_NAME>
4-[4-(4-chlorophenyl)-4-hydroxy-1-piperidinyl]-1-(2,5-dimethylphenyl)-1-butanone

> <PUBCHEM_IUPAC_NAME_MARKUP>
4-[4-(4-chlorophenyl)-4-hydroxypiperidin-1-yl]-1-(2,5-dimethylphenyl)butan-1-one

> <PUBCHEM_IUPAC_NAME>
4-[4-(4-chlorophenyl)-4-hydroxypiperidin-1-yl]-1-(2,5-dimethylphenyl)butan-1-one

> <PUBCHEM_IUPAC_SYSTEMATIC_NAME>
4-[4-(4-chlorophenyl)-4-oxidanyl-piperidin-1-yl]-1-(2,5-dimethylphenyl)butan-1-one

> <PUBCHEM_IUPAC_TRADITIONAL_NAME>
4-[4-(4-chlorophenyl)-4-hydroxy-piperidino]-1-(2,5-dimethylphenyl)butan-1-one

> <PUBCHEM_IUPAC_INCHI>
InChI=1S/C23H28ClNO2/c1-17-5-6-18(2)21(16-17)22(26)4-3-13-25-14-11-23(27,12-15-25)19-7-9-20(24)10-8-19/h5-10,16,27H,3-4,11-15H2,1-2H3

> <PUBCHEM_IUPAC_INCHIKEY>
DRDXZCGSMVSSLQ-UHFFFAOYSA-N

> <PUBCHEM_XLOGP3>
3.9

> <PUBCHEM_EXACT_MASS>
385.1808568

> <PUBCHEM_MOLECULAR_FORMULA>
C23H28ClNO2

> <PUBCHEM_MOLECULAR_WEIGHT>
385.9

> <PUBCHEM_OPENEYE_CAN_SMILES>
CC1=CC(=C(C=C1)C)C(=O)CCCN2CCC(CC2)(C3=CC=C(C=C3)Cl)O

> <PUBCHEM_OPENEYE_ISO_SMILES>
CC1=CC(=C(C=C1)C)C(=O)CCCN2CCC(CC2)(C3=CC=C(C=C3)Cl)O

> <PUBCHEM_CACTVS_TPSA>
40.5

> <PUBCHEM_MONOISOTOPIC_WEIGHT>
385.1808568

> <PUBCHEM_TOTAL_CHARGE>
0

> <PUBCHEM_HEAVY_ATOM_COUNT>
27

> <PUBCHEM_ATOM_DEF_STEREO_COUNT>
0

> <PUBCHEM_ATOM_UDEF_STEREO_COUNT>
0

> <PUBCHEM_BOND_DEF_STEREO_COUNT>
0

> <PUBCHEM_BOND_UDEF_STEREO_COUNT>
0

> <PUBCHEM_ISOTOPIC_ATOM_COUNT>
0

> <PUBCHEM_COMPONENT_COUNT>
1

> <PUBCHEM_CACTVS_TAUTO_COUNT>
-1

> <PUBCHEM_COORDINATE_TYPE>
1
5
255

> <PUBCHEM_BONDANNOTATIONS>
11  13  8
11  14  8
13  16  8
14  17  8
16  19  8
17  19  8
20  21  8
20  22  8
21  24  8
22  23  8
23  26  8
24  26  8

$$$$
