15508239
  -OEChem-09292322222D

 52 54  0     0  0  0  0  0  0999 V2000
    8.2603    1.8913    0.0000 Si  0  0  0  0  0  0  0  0  0  0  0  0
    4.5981   -0.7694    0.0000 N   0  0  0  0  0  0  0  0  0  0  0  0
    4.5981    2.2306    0.0000 N   0  0  0  0  0  0  0  0  0  0  0  0
    4.5981    1.2306    0.0000 C   0  0  0  0  0  0  0  0  0  0  0  0
    3.7320    0.7306    0.0000 C   0  0  0  0  0  0  0  0  0  0  0  0
    5.4641    0.7306    0.0000 C   0  0  0  0  0  0  0  0  0  0  0  0
    3.7320   -0.2694    0.0000 C   0  0  0  0  0  0  0  0  0  0  0  0
    5.4641   -0.2694    0.0000 C   0  0  0  0  0  0  0  0  0  0  0  0
    4.5981   -1.7694    0.0000 C   0  0  0  0  0  0  0  0  0  0  0  0
    5.4071    2.8184    0.0000 C   0  0  0  0  0  0  0  0  0  0  0  0
    3.7891    2.8184    0.0000 C   0  0  0  0  0  0  0  0  0  0  0  0
    3.7320   -2.2694    0.0000 C   0  0  0  0  0  0  0  0  0  0  0  0
    5.0981    3.7694    0.0000 C   0  0  0  0  0  0  0  0  0  0  0  0
    4.0981    3.7694    0.0000 C   0  0  0  0  0  0  0  0  0  0  0  0
    6.3582    2.5094    0.0000 C   0  0  0  0  0  0  0  0  0  0  0  0
    2.8660   -1.7694    0.0000 C   0  0  0  0  0  0  0  0  0  0  0  0
    3.7320   -3.2694    0.0000 C   0  0  0  0  0  0  0  0  0  0  0  0
    7.3092    2.2003    0.0000 C   0  0  0  0  0  0  0  0  0  0  0  0
    2.0000   -2.2694    0.0000 C   0  0  0  0  0  0  0  0  0  0  0  0
    2.8660   -3.7694    0.0000 C   0  0  0  0  0  0  0  0  0  0  0  0
    9.2113    1.5823    0.0000 C   0  0  0  0  0  0  0  0  0  0  0  0
    8.5693    2.8424    0.0000 C   0  0  0  0  0  0  0  0  0  0  0  0
    7.9512    0.9403    0.0000 C   0  0  0  0  0  0  0  0  0  0  0  0
    2.0000   -3.2694    0.0000 C   0  0  0  0  0  0  0  0  0  0  0  0
    5.1350    1.5406    0.0000 H   0  0  0  0  0  0  0  0  0  0  0  0
    3.5200    1.3132    0.0000 H   0  0  0  0  0  0  0  0  0  0  0  0
    3.1215    0.6229    0.0000 H   0  0  0  0  0  0  0  0  0  0  0  0
    6.0747    0.6229    0.0000 H   0  0  0  0  0  0  0  0  0  0  0  0
    5.6762    1.3132    0.0000 H   0  0  0  0  0  0  0  0  0  0  0  0
    3.1215   -0.1618    0.0000 H   0  0  0  0  0  0  0  0  0  0  0  0
    3.5200   -0.8520    0.0000 H   0  0  0  0  0  0  0  0  0  0  0  0
    5.6762   -0.8520    0.0000 H   0  0  0  0  0  0  0  0  0  0  0  0
    6.0747   -0.1618    0.0000 H   0  0  0  0  0  0  0  0  0  0  0  0
    4.8101   -2.3520    0.0000 H   0  0  0  0  0  0  0  0  0  0  0  0
    5.2087   -1.6618    0.0000 H   0  0  0  0  0  0  0  0  0  0  0  0
    3.1994    2.6268    0.0000 H   0  0  0  0  0  0  0  0  0  0  0  0
    5.4625    4.2710    0.0000 H   0  0  0  0  0  0  0  0  0  0  0  0
    3.7336    4.2710    0.0000 H   0  0  0  0  0  0  0  0  0  0  0  0
    2.8660   -1.1494    0.0000 H   0  0  0  0  0  0  0  0  0  0  0  0
    4.2690   -3.5794    0.0000 H   0  0  0  0  0  0  0  0  0  0  0  0
    1.4631   -1.9594    0.0000 H   0  0  0  0  0  0  0  0  0  0  0  0
    2.8660   -4.3894    0.0000 H   0  0  0  0  0  0  0  0  0  0  0  0
    9.0197    0.9926    0.0000 H   0  0  0  0  0  0  0  0  0  0  0  0
    9.8010    1.3907    0.0000 H   0  0  0  0  0  0  0  0  0  0  0  0
    9.4029    2.1720    0.0000 H   0  0  0  0  0  0  0  0  0  0  0  0
    9.1589    2.6508    0.0000 H   0  0  0  0  0  0  0  0  0  0  0  0
    8.7609    3.4320    0.0000 H   0  0  0  0  0  0  0  0  0  0  0  0
    7.9796    3.0340    0.0000 H   0  0  0  0  0  0  0  0  0  0  0  0
    7.3616    1.1318    0.0000 H   0  0  0  0  0  0  0  0  0  0  0  0
    7.7597    0.3506    0.0000 H   0  0  0  0  0  0  0  0  0  0  0  0
    8.5409    0.7487    0.0000 H   0  0  0  0  0  0  0  0  0  0  0  0
    1.4631   -3.5794    0.0000 H   0  0  0  0  0  0  0  0  0  0  0  0
  1 18  1  0  0  0  0
  1 21  1  0  0  0  0
  1 22  1  0  0  0  0
  1 23  1  0  0  0  0
  2  7  1  0  0  0  0
  2  8  1  0  0  0  0
  2  9  1  0  0  0  0
  3  4  1  0  0  0  0
  3 10  1  0  0  0  0
  3 11  1  0  0  0  0
  4  5  1  0  0  0  0
  4  6  1  0  0  0  0
  4 25  1  0  0  0  0
  5  7  1  0  0  0  0
  5 26  1  0  0  0  0
  5 27  1  0  0  0  0
  6  8  1  0  0  0  0
  6 28  1  0  0  0  0
  6 29  1  0  0  0  0
  7 30  1  0  0  0  0
  7 31  1  0  0  0  0
  8 32  1  0  0  0  0
  8 33  1  0  0  0  0
  9 12  1  0  0  0  0
  9 34  1  0  0  0  0
  9 35  1  0  0  0  0
 10 13  2  0  0  0  0
 10 15  1  0  0  0  0
 11 14  2  0  0  0  0
 11 36  1  0  0  0  0
 12 16  2  0  0  0  0
 12 17  1  0  0  0  0
 13 14  1  0  0  0  0
 13 37  1  0  0  0  0
 14 38  1  0  0  0  0
 15 18  3  0  0  0  0
 16 19  1  0  0  0  0
 16 39  1  0  0  0  0
 17 20  2  0  0  0  0
 17 40  1  0  0  0  0
 19 24  2  0  0  0  0
 19 41  1  0  0  0  0
 20 24  1  0  0  0  0
 20 42  1  0  0  0  0
 21 43  1  0  0  0  0
 21 44  1  0  0  0  0
 21 45  1  0  0  0  0
 22 46  1  0  0  0  0
 22 47  1  0  0  0  0
 22 48  1  0  0  0  0
 23 49  1  0  0  0  0
 23 50  1  0  0  0  0
 23 51  1  0  0  0  0
 24 52  1  0  0  0  0
M  END
> <PUBCHEM_COMPOUND_CID>
15508239

> <PUBCHEM_COMPOUND_CANONICALIZED>
1

> <PUBCHEM_CACTVS_COMPLEXITY>
455

> <PUBCHEM_CACTVS_HBOND_ACCEPTOR>
1

> <PUBCHEM_CACTVS_HBOND_DONOR>
0

> <PUBCHEM_CACTVS_ROTATABLE_BOND>
5

> <PUBCHEM_CACTVS_SUBSKEYS>
AAADceB7AAgAAAAAAAAAAAAAAAAAAWAAAAA8QAAAAAAAAAABwAAAHBAAAAAADCjBPgR+gJMMEAHgEzRnRAiCgCAxAiAI2CA4ZJgIIOLA0ZGEIAhggADIyAcQgAAOAAAAAAAAAAAAAAAAAAAAAAAAAAAAAA==

> <PUBCHEM_IUPAC_OPENEYE_NAME>
2-[1-(1-benzyl-4-piperidyl)pyrrol-2-yl]ethynyl-trimethyl-silane

> <PUBCHEM_IUPAC_CAS_NAME>
trimethyl-[2-[1-[1-(phenylmethyl)-4-piperidinyl]-2-pyrrolyl]ethynyl]silane

> <PUBCHEM_IUPAC_NAME_MARKUP>
2-[1-(1-benzylpiperidin-4-yl)pyrrol-2-yl]ethynyl-trimethylsilane

> <PUBCHEM_IUPAC_NAME>
2-[1-(1-benzylpiperidin-4-yl)pyrrol-2-yl]ethynyl-trimethylsilane

> <PUBCHEM_IUPAC_SYSTEMATIC_NAME>
trimethyl-[2-[1-[1-(phenylmethyl)piperidin-4-yl]pyrrol-2-yl]ethynyl]silane

> <PUBCHEM_IUPAC_TRADITIONAL_NAME>
2-[1-(1-benzyl-4-piperidyl)pyrrol-2-yl]ethynyl-trimethyl-silane

> <PUBCHEM_IUPAC_INCHI>
InChI=1S/C21H28N2Si/c1-24(2,3)17-13-20-10-7-14-23(20)21-11-15-22(16-12-21)18-19-8-5-4-6-9-19/h4-10,14,21H,11-12,15-16,18H2,1-3H3

> <PUBCHEM_IUPAC_INCHIKEY>
KUZDNSHRAHWGBG-UHFFFAOYSA-N

> <PUBCHEM_EXACT_MASS>
336.202175436

> <PUBCHEM_MOLECULAR_FORMULA>
C21H28N2Si

> <PUBCHEM_MOLECULAR_WEIGHT>
336.5

> <PUBCHEM_OPENEYE_CAN_SMILES>
C[Si](C)(C)C#CC1=CC=CN1C2CCN(CC2)CC3=CC=CC=C3

> <PUBCHEM_OPENEYE_ISO_SMILES>
C[Si](C)(C)C#CC1=CC=CN1C2CCN(CC2)CC3=CC=CC=C3

> <PUBCHEM_CACTVS_TPSA>
8.2

> <PUBCHEM_MONOISOTOPIC_WEIGHT>
336.202175436

> <PUBCHEM_TOTAL_CHARGE>
0

> <PUBCHEM_HEAVY_ATOM_COUNT>
24

> <PUBCHEM_ATOM_DEF_STEREO_COUNT>
0

> <PUBCHEM_ATOM_UDEF_STEREO_COUNT>
0

> <PUBCHEM_BOND_DEF_STEREO_COUNT>
0

> <PUBCHEM_BOND_UDEF_STEREO_COUNT>
0

> <PUBCHEM_ISOTOPIC_ATOM_COUNT>
0

> <PUBCHEM_COMPONENT_COUNT>
1

> <PUBCHEM_CACTVS_TAUTO_COUNT>
-1

> <PUBCHEM_COORDINATE_TYPE>
1
5
255

> <PUBCHEM_BONDANNOTATIONS>
10  13  8
11  14  8
12  16  8
12  17  8
13  14  8
16  19  8
17  20  8
19  24  8
20  24  8
3  10  8
3  11  8

$$$$
