56658005
  -OEChem-09292322322D

 70 73  0     0  0  0  0  0  0999 V2000
    0.0000    1.5652    0.0000 Cl  0  0  0  0  0  0  0  0  0  0  0  0
    4.4742    4.2628    0.0000 O   0  0  0  0  0  0  0  0  0  0  0  0
   10.7752    0.6305    0.0000 O   0  0  0  0  0  0  0  0  0  0  0  0
   16.0374    0.6546    0.0000 O   0  0  0  0  0  0  0  0  0  0  0  0
    9.3177    7.3726    0.0000 O   0  0  0  0  0  0  0  0  0  0  0  0
    6.7196    7.8726    0.0000 O   0  0  0  0  0  0  0  0  0  0  0  0
    8.4517    8.8726    0.0000 O   0  0  0  0  0  0  0  0  0  0  0  0
    7.5857    6.3726    0.0000 O   0  0  0  0  0  0  0  0  0  0  0  0
    6.4432    1.1138    0.0000 N   0  0  0  0  0  0  0  0  0  0  0  0
    3.8393    2.6037    0.0000 N   0  0  0  0  0  0  0  0  0  0  0  0
    2.7598    3.7975    0.0000 N   0  0  0  0  0  0  0  0  0  0  0  0
   14.3053    0.6546    0.0000 N   0  0  0  0  0  0  0  0  0  0  0  0
    4.7073    2.1071    0.0000 C   0  0  0  0  0  0  0  0  0  0  0  0
    5.5714    2.6104    0.0000 C   0  0  0  0  0  0  0  0  0  0  0  0
    4.7111    1.1071    0.0000 C   0  0  0  0  0  0  0  0  0  0  0  0
    6.4393    2.1138    0.0000 C   0  0  0  0  0  0  0  0  0  0  0  0
    5.5791    0.6104    0.0000 C   0  0  0  0  0  0  0  0  0  0  0  0
    7.3111    0.6171    0.0000 C   0  0  0  0  0  0  0  0  0  0  0  0
    2.9331    2.1951    0.0000 C   0  0  0  0  0  0  0  0  0  0  0  0
    8.1752    1.1204    0.0000 C   0  0  0  0  0  0  0  0  0  0  0  0
    3.7325    3.5921    0.0000 C   0  0  0  0  0  0  0  0  0  0  0  0
    2.2624    2.9369    0.0000 C   0  0  0  0  0  0  0  0  0  0  0  0
    9.0432    0.6238    0.0000 C   0  0  0  0  0  0  0  0  0  0  0  0
    2.6261    1.2434    0.0000 C   0  0  0  0  0  0  0  0  0  0  0  0
    1.2847    2.7269    0.0000 C   0  0  0  0  0  0  0  0  0  0  0  0
    9.9072    1.1271    0.0000 C   0  0  0  0  0  0  0  0  0  0  0  0
    1.6484    1.0334    0.0000 C   0  0  0  0  0  0  0  0  0  0  0  0
    0.9777    1.7752    0.0000 C   0  0  0  0  0  0  0  0  0  0  0  0
   11.6393    1.1338    0.0000 C   0  0  0  0  0  0  0  0  0  0  0  0
   13.4393    2.1546    0.0000 C   0  0  0  0  0  0  0  0  0  0  0  0
   13.4393    1.1546    0.0000 C   0  0  0  0  0  0  0  0  0  0  0  0
   14.3053    2.6546    0.0000 C   0  0  0  0  0  0  0  0  0  0  0  0
   12.5453    0.6200    0.0000 C   0  0  0  0  0  0  0  0  0  0  0  0
   15.1713    2.1546    0.0000 C   0  0  0  0  0  0  0  0  0  0  0  0
   11.6393    2.1754    0.0000 C   0  0  0  0  0  0  0  0  0  0  0  0
   12.5453    2.6893    0.0000 C   0  0  0  0  0  0  0  0  0  0  0  0
   15.1713    1.1546    0.0000 C   0  0  0  0  0  0  0  0  0  0  0  0
    8.4517    7.8726    0.0000 C   0  0  0  0  0  0  0  0  0  0  0  0
    7.5857    7.3726    0.0000 C   0  0  0  0  0  0  0  0  0  0  0  0
    4.1715    1.7950    0.0000 H   0  0  0  0  0  0  0  0  0  0  0  0
    5.9681    3.0869    0.0000 H   0  0  0  0  0  0  0  0  0  0  0  0
    5.1710    3.0838    0.0000 H   0  0  0  0  0  0  0  0  0  0  0  0
    4.1001    1.2124    0.0000 H   0  0  0  0  0  0  0  0  0  0  0  0
    4.5013    0.5237    0.0000 H   0  0  0  0  0  0  0  0  0  0  0  0
    7.0503    2.0085    0.0000 H   0  0  0  0  0  0  0  0  0  0  0  0
    6.6491    2.6972    0.0000 H   0  0  0  0  0  0  0  0  0  0  0  0
    5.1824    0.1340    0.0000 H   0  0  0  0  0  0  0  0  0  0  0  0
    5.9794    0.1370    0.0000 H   0  0  0  0  0  0  0  0  0  0  0  0
    6.9144    0.1406    0.0000 H   0  0  0  0  0  0  0  0  0  0  0  0
    7.7115    0.1437    0.0000 H   0  0  0  0  0  0  0  0  0  0  0  0
    8.5719    1.5969    0.0000 H   0  0  0  0  0  0  0  0  0  0  0  0
    7.7748    1.5939    0.0000 H   0  0  0  0  0  0  0  0  0  0  0  0
    8.6465    0.1473    0.0000 H   0  0  0  0  0  0  0  0  0  0  0  0
    9.4435    0.1504    0.0000 H   0  0  0  0  0  0  0  0  0  0  0  0
    2.5074    4.3638    0.0000 H   0  0  0  0  0  0  0  0  0  0  0  0
    3.0420    0.7836    0.0000 H   0  0  0  0  0  0  0  0  0  0  0  0
    0.8689    3.1867    0.0000 H   0  0  0  0  0  0  0  0  0  0  0  0
   10.3039    1.6036    0.0000 H   0  0  0  0  0  0  0  0  0  0  0  0
    9.5069    1.6005    0.0000 H   0  0  0  0  0  0  0  0  0  0  0  0
    1.4581    0.4434    0.0000 H   0  0  0  0  0  0  0  0  0  0  0  0
   14.7038    3.1296    0.0000 H   0  0  0  0  0  0  0  0  0  0  0  0
   13.9068    3.1296    0.0000 H   0  0  0  0  0  0  0  0  0  0  0  0
   12.5525    0.0000    0.0000 H   0  0  0  0  0  0  0  0  0  0  0  0
   15.7819    2.0470    0.0000 H   0  0  0  0  0  0  0  0  0  0  0  0
   15.3834    2.7372    0.0000 H   0  0  0  0  0  0  0  0  0  0  0  0
   11.1035    2.4875    0.0000 H   0  0  0  0  0  0  0  0  0  0  0  0
   12.5525    3.3092    0.0000 H   0  0  0  0  0  0  0  0  0  0  0  0
   14.3053    0.0346    0.0000 H   0  0  0  0  0  0  0  0  0  0  0  0
    9.8547    7.6826    0.0000 H   0  0  0  0  0  0  0  0  0  0  0  0
    6.1827    7.5626    0.0000 H   0  0  0  0  0  0  0  0  0  0  0  0
  1 28  1  0  0  0  0
  2 21  2  0  0  0  0
  3 26  1  0  0  0  0
  3 29  1  0  0  0  0
  4 37  2  0  0  0  0
  5 38  1  0  0  0  0
  5 69  1  0  0  0  0
  6 39  1  0  0  0  0
  6 70  1  0  0  0  0
  7 38  2  0  0  0  0
  8 39  2  0  0  0  0
  9 16  1  0  0  0  0
  9 17  1  0  0  0  0
  9 18  1  0  0  0  0
 10 13  1  0  0  0  0
 10 19  1  0  0  0  0
 10 21  1  0  0  0  0
 11 21  1  0  0  0  0
 11 22  1  0  0  0  0
 11 55  1  0  0  0  0
 12 31  1  0  0  0  0
 12 37  1  0  0  0  0
 12 68  1  0  0  0  0
 13 14  1  0  0  0  0
 13 15  1  0  0  0  0
 13 40  1  0  0  0  0
 14 16  1  0  0  0  0
 14 41  1  0  0  0  0
 14 42  1  0  0  0  0
 15 17  1  0  0  0  0
 15 43  1  0  0  0  0
 15 44  1  0  0  0  0
 16 45  1  0  0  0  0
 16 46  1  0  0  0  0
 17 47  1  0  0  0  0
 17 48  1  0  0  0  0
 18 20  1  0  0  0  0
 18 49  1  0  0  0  0
 18 50  1  0  0  0  0
 19 22  2  0  0  0  0
 19 24  1  0  0  0  0
 20 23  1  0  0  0  0
 20 51  1  0  0  0  0
 20 52  1  0  0  0  0
 22 25  1  0  0  0  0
 23 26  1  0  0  0  0
 23 53  1  0  0  0  0
 23 54  1  0  0  0  0
 24 27  2  0  0  0  0
 24 56  1  0  0  0  0
 25 28  2  0  0  0  0
 25 57  1  0  0  0  0
 26 58  1  0  0  0  0
 26 59  1  0  0  0  0
 27 28  1  0  0  0  0
 27 60  1  0  0  0  0
 29 33  2  0  0  0  0
 29 35  1  0  0  0  0
 30 31  2  0  0  0  0
 30 32  1  0  0  0  0
 30 36  1  0  0  0  0
 31 33  1  0  0  0  0
 32 34  1  0  0  0  0
 32 61  1  0  0  0  0
 32 62  1  0  0  0  0
 33 63  1  0  0  0  0
 34 37  1  0  0  0  0
 34 64  1  0  0  0  0
 34 65  1  0  0  0  0
 35 36  2  0  0  0  0
 35 66  1  0  0  0  0
 36 67  1  0  0  0  0
 38 39  1  0  0  0  0
M  END
> <PUBCHEM_COMPOUND_CID>
56658005

> <PUBCHEM_COMPOUND_CANONICALIZED>
1

> <PUBCHEM_CACTVS_COMPLEXITY>
773

> <PUBCHEM_CACTVS_HBOND_ACCEPTOR>
8

> <PUBCHEM_CACTVS_HBOND_DONOR>
4

> <PUBCHEM_CACTVS_ROTATABLE_BOND>
8

> <PUBCHEM_CACTVS_SUBSKEYS>
AAADceB7uAAEAAAAAAAAAAAAAAAAAWAAAAA8eIEAAAAAAFixQAAAHgIQCAAADC7hmCYxzoPABgCIAiXSWAKCCAAhJwAIiAFOfoiNZjLF85uWOCju1hvJ6Ce42aOeIABAAgICACBAAIAEBAQAQAAAAAAAAA==

> <PUBCHEM_IUPAC_OPENEYE_NAME>
7-[4-[4-(5-chloro-2-oxo-3H-benzimidazol-1-yl)-1-piperidyl]butoxy]-3,4-dihydro-1H-quinolin-2-one;oxalic acid

> <PUBCHEM_IUPAC_CAS_NAME>
7-[4-[4-(5-chloro-2-oxo-3H-benzimidazol-1-yl)-1-piperidinyl]butoxy]-3,4-dihydro-1H-quinolin-2-one;oxalic acid

> <PUBCHEM_IUPAC_NAME_MARKUP>
7-[4-[4-(5-chloro-2-oxo-3<I>H</I>-benzimidazol-1-yl)piperidin-1-yl]butoxy]-3,4-dihydro-1<I>H</I>-quinolin-2-one;oxalic acid

> <PUBCHEM_IUPAC_NAME>
7-[4-[4-(5-chloro-2-oxo-3H-benzimidazol-1-yl)piperidin-1-yl]butoxy]-3,4-dihydro-1H-quinolin-2-one;oxalic acid

> <PUBCHEM_IUPAC_SYSTEMATIC_NAME>
7-[4-[4-(5-chloranyl-2-oxidanylidene-3H-benzimidazol-1-yl)piperidin-1-yl]butoxy]-3,4-dihydro-1H-quinolin-2-one;ethanedioic acid

> <PUBCHEM_IUPAC_TRADITIONAL_NAME>
7-[4-[4-(5-chloro-2-keto-3H-benzimidazol-1-yl)piperidino]butoxy]-3,4-dihydrocarbostyril;oxalic acid

> <PUBCHEM_IUPAC_INCHI>
InChI=1S/C25H29ClN4O3.C2H2O4/c26-18-5-7-23-22(15-18)28-25(32)30(23)19-9-12-29(13-10-19)11-1-2-14-33-20-6-3-17-4-8-24(31)27-21(17)16-20;3-1(4)2(5)6/h3,5-7,15-16,19H,1-2,4,8-14H2,(H,27,31)(H,28,32);(H,3,4)(H,5,6)

> <PUBCHEM_IUPAC_INCHIKEY>
IGTGIWKFSOWMLW-UHFFFAOYSA-N

> <PUBCHEM_EXACT_MASS>
558.1881270

> <PUBCHEM_MOLECULAR_FORMULA>
C27H31ClN4O7

> <PUBCHEM_MOLECULAR_WEIGHT>
559.0

> <PUBCHEM_OPENEYE_CAN_SMILES>
C1CN(CCC1N2C3=C(C=C(C=C3)Cl)NC2=O)CCCCOC4=CC5=C(CCC(=O)N5)C=C4.C(=O)(C(=O)O)O

> <PUBCHEM_OPENEYE_ISO_SMILES>
C1CN(CCC1N2C3=C(C=C(C=C3)Cl)NC2=O)CCCCOC4=CC5=C(CCC(=O)N5)C=C4.C(=O)(C(=O)O)O

> <PUBCHEM_CACTVS_TPSA>
149

> <PUBCHEM_MONOISOTOPIC_WEIGHT>
558.1881270

> <PUBCHEM_TOTAL_CHARGE>
0

> <PUBCHEM_HEAVY_ATOM_COUNT>
39

> <PUBCHEM_ATOM_DEF_STEREO_COUNT>
0

> <PUBCHEM_ATOM_UDEF_STEREO_COUNT>
0

> <PUBCHEM_BOND_DEF_STEREO_COUNT>
0

> <PUBCHEM_BOND_UDEF_STEREO_COUNT>
0

> <PUBCHEM_ISOTOPIC_ATOM_COUNT>
0

> <PUBCHEM_COMPONENT_COUNT>
2

> <PUBCHEM_CACTVS_TAUTO_COUNT>
-1

> <PUBCHEM_COORDINATE_TYPE>
1
5
255

> <PUBCHEM_BONDANNOTATIONS>
10  19  8
10  21  8
11  21  8
11  22  8
19  22  8
19  24  8
22  25  8
24  27  8
25  28  8
27  28  8
29  33  8
29  35  8
30  31  8
30  36  8
31  33  8
35  36  8

$$$$
