11720838
  -OEChem-09292322492D

 75 80  0     1  0  0  0  0  0999 V2000
    9.0723    0.8739    0.0000 S   0  0  0  0  0  0  0  0  0  0  0  0
    4.3548   -5.4424    0.0000 O   0  0  0  0  0  0  0  0  0  0  0  0
    6.0723   -0.8582    0.0000 N   0  0  3  0  0  0  0  0  0  0  0  0
    2.9609   -4.6377    0.0000 N   0  0  0  0  0  0  0  0  0  0  0  0
   10.5668    1.8444    0.0000 N   0  0  0  0  0  0  0  0  0  0  0  0
    9.1655    2.6535    0.0000 N   0  0  0  0  0  0  0  0  0  0  0  0
    9.9087    3.3226    0.0000 N   0  0  0  0  0  0  0  0  0  0  0  0
   12.8312    5.6647    0.0000 N   0  0  0  0  0  0  0  0  0  0  0  0
    6.6258   -1.6678    0.0000 C   0  0  0  0  0  0  0  0  0  0  0  0
    5.0943   -0.7836    0.0000 C   0  0  0  0  0  0  0  0  0  0  0  0
    6.3405   -2.6062    0.0000 C   0  0  0  0  0  0  0  0  0  0  0  0
    4.4243   -1.4998    0.0000 C   0  0  0  0  0  0  0  0  0  0  0  0
    5.4300   -2.9706    0.0000 C   0  0  0  0  0  0  0  0  0  0  0  0
    4.5640   -2.4706    0.0000 C   0  0  0  0  0  0  0  0  0  0  0  0
    6.5723    0.0079    0.0000 C   0  0  0  0  0  0  0  0  0  0  0  0
    5.4300   -3.9706    0.0000 C   0  0  0  0  0  0  0  0  0  0  0  0
    3.6979   -2.9706    0.0000 C   0  0  0  0  0  0  0  0  0  0  0  0
    4.5640   -4.4706    0.0000 C   0  0  0  0  0  0  0  0  0  0  0  0
    3.6979   -3.9706    0.0000 C   0  0  0  0  0  0  0  0  0  0  0  0
    7.5723    0.0079    0.0000 C   0  0  0  0  0  0  0  0  0  0  0  0
    2.8660   -6.4115    0.0000 C   0  0  0  0  0  0  0  0  0  0  0  0
    3.3660   -5.5455    0.0000 C   0  0  0  0  0  0  0  0  0  0  0  0
    8.0723    0.8739    0.0000 C   0  0  0  0  0  0  0  0  0  0  0  0
    2.3660   -7.2776    0.0000 C   0  0  0  0  0  0  0  0  0  0  0  0
    2.0000   -5.9115    0.0000 C   0  0  0  0  0  0  0  0  0  0  0  0
    3.7320   -6.9115    0.0000 C   0  0  0  0  0  0  0  0  0  0  0  0
    9.5723    1.7399    0.0000 C   0  0  0  0  0  0  0  0  0  0  0  0
   10.7747    2.8226    0.0000 C   0  0  0  0  0  0  0  0  0  0  0  0
   11.6882    3.2293    0.0000 C   0  0  0  0  0  0  0  0  0  0  0  0
   11.7928    4.2238    0.0000 C   0  0  0  0  0  0  0  0  0  0  0  0
   11.2359    1.1013    0.0000 C   0  0  0  0  0  0  0  0  0  0  0  0
   12.7063    4.6306    0.0000 C   0  0  0  0  0  0  0  0  0  0  0  0
   12.4973    2.6415    0.0000 C   0  0  0  0  0  0  0  0  0  0  0  0
   10.9407    4.8230    0.0000 C   0  0  0  0  0  0  0  0  0  0  0  0
   13.5153    4.0428    0.0000 C   0  0  0  0  0  0  0  0  0  0  0  0
   13.4108    3.0483    0.0000 C   0  0  0  0  0  0  0  0  0  0  0  0
   11.0416    5.8598    0.0000 C   0  0  0  0  0  0  0  0  0  0  0  0
   11.9932    6.2834    0.0000 C   0  0  0  0  0  0  0  0  0  0  0  0
   12.1016    7.2776    0.0000 C   0  0  0  0  0  0  0  0  0  0  0  0
    7.1638   -1.9761    0.0000 H   0  0  0  0  0  0  0  0  0  0  0  0
    7.0465   -1.2124    0.0000 H   0  0  0  0  0  0  0  0  0  0  0  0
    5.2784   -0.1915    0.0000 H   0  0  0  0  0  0  0  0  0  0  0  0
    4.5584   -0.4719    0.0000 H   0  0  0  0  0  0  0  0  0  0  0  0
    6.4365   -3.2187    0.0000 H   0  0  0  0  0  0  0  0  0  0  0  0
    6.9590   -2.6494    0.0000 H   0  0  0  0  0  0  0  0  0  0  0  0
    4.0776   -0.9858    0.0000 H   0  0  0  0  0  0  0  0  0  0  0  0
    3.8458   -1.7230    0.0000 H   0  0  0  0  0  0  0  0  0  0  0  0
    6.6799    0.6184    0.0000 H   0  0  0  0  0  0  0  0  0  0  0  0
    5.9896    0.2199    0.0000 H   0  0  0  0  0  0  0  0  0  0  0  0
    5.9669   -4.2806    0.0000 H   0  0  0  0  0  0  0  0  0  0  0  0
    3.1610   -2.6606    0.0000 H   0  0  0  0  0  0  0  0  0  0  0  0
    7.4646   -0.6027    0.0000 H   0  0  0  0  0  0  0  0  0  0  0  0
    8.1549   -0.2042    0.0000 H   0  0  0  0  0  0  0  0  0  0  0  0
    8.1799    1.4845    0.0000 H   0  0  0  0  0  0  0  0  0  0  0  0
    7.4896    1.0859    0.0000 H   0  0  0  0  0  0  0  0  0  0  0  0
    1.8291   -6.9676    0.0000 H   0  0  0  0  0  0  0  0  0  0  0  0
    2.0560   -7.8145    0.0000 H   0  0  0  0  0  0  0  0  0  0  0  0
    2.9030   -7.5876    0.0000 H   0  0  0  0  0  0  0  0  0  0  0  0
    2.3100   -5.3746    0.0000 H   0  0  0  0  0  0  0  0  0  0  0  0
    1.4631   -5.6015    0.0000 H   0  0  0  0  0  0  0  0  0  0  0  0
    1.6900   -6.4485    0.0000 H   0  0  0  0  0  0  0  0  0  0  0  0
    3.4220   -7.4485    0.0000 H   0  0  0  0  0  0  0  0  0  0  0  0
    4.2690   -7.2215    0.0000 H   0  0  0  0  0  0  0  0  0  0  0  0
    4.0420   -6.3746    0.0000 H   0  0  0  0  0  0  0  0  0  0  0  0
   10.7752    0.6864    0.0000 H   0  0  0  0  0  0  0  0  0  0  0  0
   11.6508    0.6405    0.0000 H   0  0  0  0  0  0  0  0  0  0  0  0
   11.6967    1.5162    0.0000 H   0  0  0  0  0  0  0  0  0  0  0  0
   12.4324    2.0249    0.0000 H   0  0  0  0  0  0  0  0  0  0  0  0
   10.3773    4.5643    0.0000 H   0  0  0  0  0  0  0  0  0  0  0  0
   14.0817    4.2950    0.0000 H   0  0  0  0  0  0  0  0  0  0  0  0
   13.9124    2.6838    0.0000 H   0  0  0  0  0  0  0  0  0  0  0  0
   10.5386    6.2223    0.0000 H   0  0  0  0  0  0  0  0  0  0  0  0
   12.7179    7.2104    0.0000 H   0  0  0  0  0  0  0  0  0  0  0  0
   12.1687    7.8939    0.0000 H   0  0  0  0  0  0  0  0  0  0  0  0
   11.4852    7.3447    0.0000 H   0  0  0  0  0  0  0  0  0  0  0  0
  1 23  1  0  0  0  0
  1 27  1  0  0  0  0
  2 18  1  0  0  0  0
  2 22  1  0  0  0  0
  3  9  1  0  0  0  0
  3 10  1  0  0  0  0
  3 15  1  0  0  0  0
  4 19  1  0  0  0  0
  4 22  2  0  0  0  0
  5 27  1  0  0  0  0
  5 28  1  0  0  0  0
  5 31  1  0  0  0  0
  6  7  1  0  0  0  0
  6 27  2  0  0  0  0
  7 28  2  0  0  0  0
  8 32  1  0  0  0  0
  8 38  2  0  0  0  0
  9 11  1  0  0  0  0
  9 40  1  0  0  0  0
  9 41  1  0  0  0  0
 10 12  1  0  0  0  0
 10 42  1  0  0  0  0
 10 43  1  0  0  0  0
 11 13  1  0  0  0  0
 11 44  1  0  0  0  0
 11 45  1  0  0  0  0
 12 14  1  0  0  0  0
 12 46  1  0  0  0  0
 12 47  1  0  0  0  0
 13 14  1  0  0  0  0
 13 16  2  0  0  0  0
 14 17  2  0  0  0  0
 15 20  1  0  0  0  0
 15 48  1  0  0  0  0
 15 49  1  0  0  0  0
 16 18  1  0  0  0  0
 16 50  1  0  0  0  0
 17 19  1  0  0  0  0
 17 51  1  0  0  0  0
 18 19  2  0  0  0  0
 20 23  1  0  0  0  0
 20 52  1  0  0  0  0
 20 53  1  0  0  0  0
 21 22  1  0  0  0  0
 21 24  1  0  0  0  0
 21 25  1  0  0  0  0
 21 26  1  0  0  0  0
 23 54  1  0  0  0  0
 23 55  1  0  0  0  0
 24 56  1  0  0  0  0
 24 57  1  0  0  0  0
 24 58  1  0  0  0  0
 25 59  1  0  0  0  0
 25 60  1  0  0  0  0
 25 61  1  0  0  0  0
 26 62  1  0  0  0  0
 26 63  1  0  0  0  0
 26 64  1  0  0  0  0
 28 29  1  0  0  0  0
 29 30  2  0  0  0  0
 29 33  1  0  0  0  0
 30 32  1  0  0  0  0
 30 34  1  0  0  0  0
 31 65  1  0  0  0  0
 31 66  1  0  0  0  0
 31 67  1  0  0  0  0
 32 35  2  0  0  0  0
 33 36  2  0  0  0  0
 33 68  1  0  0  0  0
 34 37  2  0  0  0  0
 34 69  1  0  0  0  0
 35 36  1  0  0  0  0
 35 70  1  0  0  0  0
 36 71  1  0  0  0  0
 37 38  1  0  0  0  0
 37 72  1  0  0  0  0
 38 39  1  0  0  0  0
 39 73  1  0  0  0  0
 39 74  1  0  0  0  0
 39 75  1  0  0  0  0
M  END
> <PUBCHEM_COMPOUND_CID>
11720838

> <PUBCHEM_COMPOUND_CANONICALIZED>
1

> <PUBCHEM_CACTVS_COMPLEXITY>
810

> <PUBCHEM_CACTVS_HBOND_ACCEPTOR>
7

> <PUBCHEM_CACTVS_HBOND_DONOR>
0

> <PUBCHEM_CACTVS_ROTATABLE_BOND>
7

> <PUBCHEM_CACTVS_SUBSKEYS>
AAADcfB7oABAAAAAAAAAAAAAAAAAAWLAAAA8YIAABYAAAFix/gAAHgQIAAAADgzF3wSz1vcMFEiqA6dydASS2CtvYrAd2CG/bNiOLvLkvbuPOSjkzBPY6YeY2fKOqAABQAASEABQAAKAACQgAAAAAAAAAA==

> <PUBCHEM_IUPAC_OPENEYE_NAME>
2-tert-butyl-7-[3-[[4-methyl-5-(2-methyl-5-quinolyl)-1,2,4-triazol-3-yl]sulfanyl]propyl]-5,6,8,9-tetrahydrooxazolo[4,5-h][3]benzazepine

> <PUBCHEM_IUPAC_CAS_NAME>
2-tert-butyl-7-[3-[[4-methyl-5-(2-methyl-5-quinolinyl)-1,2,4-triazol-3-yl]thio]propyl]-5,6,8,9-tetrahydrooxazolo[4,5-h][3]benzazepine

> <PUBCHEM_IUPAC_NAME_MARKUP>
2-<I>tert</I>-butyl-7-[3-[[4-methyl-5-(2-methylquinolin-5-yl)-1,2,4-triazol-3-yl]sulfanyl]propyl]-5,6,8,9-tetrahydro-[1,3]oxazolo[4,5-h][3]benzazepine

> <PUBCHEM_IUPAC_NAME>
2-tert-butyl-7-[3-[[4-methyl-5-(2-methylquinolin-5-yl)-1,2,4-triazol-3-yl]sulfanyl]propyl]-5,6,8,9-tetrahydro-[1,3]oxazolo[4,5-h][3]benzazepine

> <PUBCHEM_IUPAC_SYSTEMATIC_NAME>
2-tert-butyl-7-[3-[[4-methyl-5-(2-methylquinolin-5-yl)-1,2,4-triazol-3-yl]sulfanyl]propyl]-5,6,8,9-tetrahydro-[1,3]oxazolo[4,5-h][3]benzazepine

> <PUBCHEM_IUPAC_TRADITIONAL_NAME>
2-tert-butyl-7-[3-[[4-methyl-5-(2-methyl-5-quinolyl)-1,2,4-triazol-3-yl]thio]propyl]-5,6,8,9-tetrahydrooxazolo[4,5-h][3]benzazepine

> <PUBCHEM_IUPAC_INCHI>
InChI=1S/C31H36N6OS/c1-20-10-11-23-24(8-6-9-25(23)32-20)28-34-35-30(36(28)5)39-17-7-14-37-15-12-21-18-26-27(19-22(21)13-16-37)38-29(33-26)31(2,3)4/h6,8-11,18-19H,7,12-17H2,1-5H3

> <PUBCHEM_IUPAC_INCHIKEY>
IOJIPFCHEXMFMJ-UHFFFAOYSA-N

> <PUBCHEM_XLOGP3_AA>
6.5

> <PUBCHEM_EXACT_MASS>
540.26713097

> <PUBCHEM_MOLECULAR_FORMULA>
C31H36N6OS

> <PUBCHEM_MOLECULAR_WEIGHT>
540.7

> <PUBCHEM_OPENEYE_CAN_SMILES>
CC1=NC2=CC=CC(=C2C=C1)C3=NN=C(N3C)SCCCN4CCC5=CC6=C(C=C5CC4)OC(=N6)C(C)(C)C

> <PUBCHEM_OPENEYE_ISO_SMILES>
CC1=NC2=CC=CC(=C2C=C1)C3=NN=C(N3C)SCCCN4CCC5=CC6=C(C=C5CC4)OC(=N6)C(C)(C)C

> <PUBCHEM_CACTVS_TPSA>
98.2

> <PUBCHEM_MONOISOTOPIC_WEIGHT>
540.26713097

> <PUBCHEM_TOTAL_CHARGE>
0

> <PUBCHEM_HEAVY_ATOM_COUNT>
39

> <PUBCHEM_ATOM_DEF_STEREO_COUNT>
0

> <PUBCHEM_ATOM_UDEF_STEREO_COUNT>
0

> <PUBCHEM_BOND_DEF_STEREO_COUNT>
0

> <PUBCHEM_BOND_UDEF_STEREO_COUNT>
0

> <PUBCHEM_ISOTOPIC_ATOM_COUNT>
0

> <PUBCHEM_COMPONENT_COUNT>
1

> <PUBCHEM_CACTVS_TAUTO_COUNT>
-1

> <PUBCHEM_COORDINATE_TYPE>
1
5
255

> <PUBCHEM_BONDANNOTATIONS>
13  14  8
13  16  8
14  17  8
16  18  8
17  19  8
18  19  8
2  18  8
2  22  8
29  30  8
29  33  8
30  32  8
30  34  8
32  35  8
33  36  8
34  37  8
35  36  8
37  38  8
4  19  8
4  22  8
5  27  8
5  28  8
6  27  8
6  7  8
7  28  8
8  32  8
8  38  8

$$$$
