45273530
  -OEChem-09292322282D

 53 55  0     1  0  0  0  0  0999 V2000
    2.0000   -6.5758    0.0000 Cl  0  0  0  0  0  0  0  0  0  0  0  0
    5.4921   -3.2971    0.0000 O   0  0  0  0  0  0  0  0  0  0  0  0
    5.5440    5.6623    0.0000 O   0  0  0  0  0  0  0  0  0  0  0  0
    4.2320   -2.0370    0.0000 N   0  0  0  0  0  0  0  0  0  0  0  0
    3.7320   -3.5758    0.0000 N   0  0  0  0  0  0  0  0  0  0  0  0
    5.0009    0.4946    0.0000 N   0  0  3  0  0  0  0  0  0  0  0  0
    3.2320   -2.0370    0.0000 C   0  0  0  0  0  0  0  0  0  0  0  0
    4.8198   -1.2280    0.0000 C   0  0  0  0  0  0  0  0  0  0  0  0
    2.9230   -2.9880    0.0000 C   0  0  0  0  0  0  0  0  0  0  0  0
    4.4131   -0.3144    0.0000 C   0  0  0  0  0  0  0  0  0  0  0  0
    4.5411   -2.9880    0.0000 C   0  0  0  0  0  0  0  0  0  0  0  0
    4.5942    1.4081    0.0000 C   0  0  0  0  0  0  0  0  0  0  0  0
    3.7320   -4.5758    0.0000 C   0  0  0  0  0  0  0  0  0  0  0  0
    5.1819    2.2172    0.0000 C   0  0  0  0  0  0  0  0  0  0  0  0
    5.9954    0.3901    0.0000 C   0  0  0  0  0  0  0  0  0  0  0  0
    4.7752    3.1307    0.0000 C   0  0  0  0  0  0  0  0  0  0  0  0
    2.8660   -5.0758    0.0000 C   0  0  0  0  0  0  0  0  0  0  0  0
    4.5981   -5.0758    0.0000 C   0  0  0  0  0  0  0  0  0  0  0  0
    5.3630    3.9397    0.0000 C   0  0  0  0  0  0  0  0  0  0  0  0
    2.8660   -6.0758    0.0000 C   0  0  0  0  0  0  0  0  0  0  0  0
    4.5981   -6.0758    0.0000 C   0  0  0  0  0  0  0  0  0  0  0  0
    3.7807    3.2352    0.0000 C   0  0  0  0  0  0  0  0  0  0  0  0
    3.7320   -6.5758    0.0000 C   0  0  0  0  0  0  0  0  0  0  0  0
    4.9562    4.8533    0.0000 C   0  0  0  0  0  0  0  0  0  0  0  0
    3.3739    4.1488    0.0000 C   0  0  0  0  0  0  0  0  0  0  0  0
    3.9617    4.9578    0.0000 C   0  0  0  0  0  0  0  0  0  0  0  0
    5.1373    6.5758    0.0000 C   0  0  0  0  0  0  0  0  0  0  0  0
    3.2969   -1.4204    0.0000 H   0  0  0  0  0  0  0  0  0  0  0  0
    2.6256   -1.9081    0.0000 H   0  0  0  0  0  0  0  0  0  0  0  0
    5.2505   -1.6740    0.0000 H   0  0  0  0  0  0  0  0  0  0  0  0
    5.3338   -0.8813    0.0000 H   0  0  0  0  0  0  0  0  0  0  0  0
    2.3566   -2.7359    0.0000 H   0  0  0  0  0  0  0  0  0  0  0  0
    2.6130   -3.5250    0.0000 H   0  0  0  0  0  0  0  0  0  0  0  0
    3.9824    0.1316    0.0000 H   0  0  0  0  0  0  0  0  0  0  0  0
    3.8991   -0.6611    0.0000 H   0  0  0  0  0  0  0  0  0  0  0  0
    4.1635    1.8541    0.0000 H   0  0  0  0  0  0  0  0  0  0  0  0
    4.0801    1.0614    0.0000 H   0  0  0  0  0  0  0  0  0  0  0  0
    5.6126    1.7712    0.0000 H   0  0  0  0  0  0  0  0  0  0  0  0
    5.6959    2.5639    0.0000 H   0  0  0  0  0  0  0  0  0  0  0  0
    5.9306   -0.2265    0.0000 H   0  0  0  0  0  0  0  0  0  0  0  0
    6.6120    0.3253    0.0000 H   0  0  0  0  0  0  0  0  0  0  0  0
    6.0602    1.0067    0.0000 H   0  0  0  0  0  0  0  0  0  0  0  0
    2.3291   -4.7658    0.0000 H   0  0  0  0  0  0  0  0  0  0  0  0
    5.1350   -4.7658    0.0000 H   0  0  0  0  0  0  0  0  0  0  0  0
    5.9796    3.8749    0.0000 H   0  0  0  0  0  0  0  0  0  0  0  0
    3.4162    2.7336    0.0000 H   0  0  0  0  0  0  0  0  0  0  0  0
    5.1350   -6.3858    0.0000 H   0  0  0  0  0  0  0  0  0  0  0  0
    3.7320   -7.1958    0.0000 H   0  0  0  0  0  0  0  0  0  0  0  0
    2.7573    4.2136    0.0000 H   0  0  0  0  0  0  0  0  0  0  0  0
    3.7096    5.5242    0.0000 H   0  0  0  0  0  0  0  0  0  0  0  0
    5.7037    6.8280    0.0000 H   0  0  0  0  0  0  0  0  0  0  0  0
    4.8851    7.1422    0.0000 H   0  0  0  0  0  0  0  0  0  0  0  0
    4.5709    6.3236    0.0000 H   0  0  0  0  0  0  0  0  0  0  0  0
  1 20  1  0  0  0  0
  2 11  2  0  0  0  0
  3 24  1  0  0  0  0
  3 27  1  0  0  0  0
  4  7  1  0  0  0  0
  4  8  1  0  0  0  0
  4 11  1  0  0  0  0
  5  9  1  0  0  0  0
  5 11  1  0  0  0  0
  5 13  1  0  0  0  0
  6 10  1  0  0  0  0
  6 12  1  0  0  0  0
  6 15  1  0  0  0  0
  7  9  1  0  0  0  0
  7 28  1  0  0  0  0
  7 29  1  0  0  0  0
  8 10  1  0  0  0  0
  8 30  1  0  0  0  0
  8 31  1  0  0  0  0
  9 32  1  0  0  0  0
  9 33  1  0  0  0  0
 10 34  1  0  0  0  0
 10 35  1  0  0  0  0
 12 14  1  0  0  0  0
 12 36  1  0  0  0  0
 12 37  1  0  0  0  0
 13 17  2  0  0  0  0
 13 18  1  0  0  0  0
 14 16  1  0  0  0  0
 14 38  1  0  0  0  0
 14 39  1  0  0  0  0
 15 40  1  0  0  0  0
 15 41  1  0  0  0  0
 15 42  1  0  0  0  0
 16 19  2  0  0  0  0
 16 22  1  0  0  0  0
 17 20  1  0  0  0  0
 17 43  1  0  0  0  0
 18 21  2  0  0  0  0
 18 44  1  0  0  0  0
 19 24  1  0  0  0  0
 19 45  1  0  0  0  0
 20 23  2  0  0  0  0
 21 23  1  0  0  0  0
 21 47  1  0  0  0  0
 22 25  2  0  0  0  0
 22 46  1  0  0  0  0
 23 48  1  0  0  0  0
 24 26  2  0  0  0  0
 25 26  1  0  0  0  0
 25 49  1  0  0  0  0
 26 50  1  0  0  0  0
 27 51  1  0  0  0  0
 27 52  1  0  0  0  0
 27 53  1  0  0  0  0
M  END
> <PUBCHEM_COMPOUND_CID>
45273530

> <PUBCHEM_COMPOUND_CANONICALIZED>
1

> <PUBCHEM_CACTVS_COMPLEXITY>
478

> <PUBCHEM_CACTVS_HBOND_ACCEPTOR>
3

> <PUBCHEM_CACTVS_HBOND_DONOR>
0

> <PUBCHEM_CACTVS_ROTATABLE_BOND>
8

> <PUBCHEM_CACTVS_SUBSKEYS>
AAADceB7MAAEAAAAAAAAAAAAAAAAAWAAAAAwYAAAAAAAAAABQAAAHgIAAAAADA7BmCYzxoMABACIAiRCUACCCAAhJwAIiAAOboiMZiLFs5uUMChsxhPI6CeQ0LIOAAABAAIAAAAAAAIABAAAAAAAAAAAAA==

> <PUBCHEM_IUPAC_OPENEYE_NAME>
1-(3-chlorophenyl)-3-[2-[2-(3-methoxyphenyl)ethyl-methyl-amino]ethyl]imidazolidin-2-one

> <PUBCHEM_IUPAC_CAS_NAME>
1-(3-chlorophenyl)-3-[2-[2-(3-methoxyphenyl)ethyl-methylamino]ethyl]-2-imidazolidinone

> <PUBCHEM_IUPAC_NAME_MARKUP>
1-(3-chlorophenyl)-3-[2-[2-(3-methoxyphenyl)ethyl-methylamino]ethyl]imidazolidin-2-one

> <PUBCHEM_IUPAC_NAME>
1-(3-chlorophenyl)-3-[2-[2-(3-methoxyphenyl)ethyl-methylamino]ethyl]imidazolidin-2-one

> <PUBCHEM_IUPAC_SYSTEMATIC_NAME>
1-(3-chlorophenyl)-3-[2-[2-(3-methoxyphenyl)ethyl-methyl-amino]ethyl]imidazolidin-2-one

> <PUBCHEM_IUPAC_TRADITIONAL_NAME>
1-(3-chlorophenyl)-3-[2-[2-(3-methoxyphenyl)ethyl-methyl-amino]ethyl]-2-imidazolidinone

> <PUBCHEM_IUPAC_INCHI>
InChI=1S/C21H26ClN3O2/c1-23(10-9-17-5-3-8-20(15-17)27-2)11-12-24-13-14-25(21(24)26)19-7-4-6-18(22)16-19/h3-8,15-16H,9-14H2,1-2H3

> <PUBCHEM_IUPAC_INCHIKEY>
WNAKEYFAGBCYGF-UHFFFAOYSA-N

> <PUBCHEM_XLOGP3_AA>
3.7

> <PUBCHEM_EXACT_MASS>
387.1713548

> <PUBCHEM_MOLECULAR_FORMULA>
C21H26ClN3O2

> <PUBCHEM_MOLECULAR_WEIGHT>
387.9

> <PUBCHEM_OPENEYE_CAN_SMILES>
CN(CCC1=CC(=CC=C1)OC)CCN2CCN(C2=O)C3=CC(=CC=C3)Cl

> <PUBCHEM_OPENEYE_ISO_SMILES>
CN(CCC1=CC(=CC=C1)OC)CCN2CCN(C2=O)C3=CC(=CC=C3)Cl

> <PUBCHEM_CACTVS_TPSA>
36

> <PUBCHEM_MONOISOTOPIC_WEIGHT>
387.1713548

> <PUBCHEM_TOTAL_CHARGE>
0

> <PUBCHEM_HEAVY_ATOM_COUNT>
27

> <PUBCHEM_ATOM_DEF_STEREO_COUNT>
0

> <PUBCHEM_ATOM_UDEF_STEREO_COUNT>
0

> <PUBCHEM_BOND_DEF_STEREO_COUNT>
0

> <PUBCHEM_BOND_UDEF_STEREO_COUNT>
0

> <PUBCHEM_ISOTOPIC_ATOM_COUNT>
0

> <PUBCHEM_COMPONENT_COUNT>
1

> <PUBCHEM_CACTVS_TAUTO_COUNT>
-1

> <PUBCHEM_COORDINATE_TYPE>
1
5
255

> <PUBCHEM_BONDANNOTATIONS>
13  17  8
13  18  8
16  19  8
16  22  8
17  20  8
18  21  8
19  24  8
20  23  8
21  23  8
22  25  8
24  26  8
25  26  8

$$$$
