44404457
  -OEChem-09292322262D

 59 63  0     0  0  0  0  0  0999 V2000
    4.9556   -4.5832    0.0000 S   0  0  0  0  0  0  0  0  0  0  0  0
    4.4033   -0.0595    0.0000 N   0  0  0  0  0  0  0  0  0  0  0  0
    7.0003    2.4850    0.0000 N   0  0  0  0  0  0  0  0  0  0  0  0
    4.4264   -2.0594    0.0000 N   0  0  0  0  0  0  0  0  0  0  0  0
    5.2494   -3.6336    0.0000 N   0  0  0  0  0  0  0  0  0  0  0  0
    7.0003    4.4850    0.0000 C   0  0  0  0  0  0  0  0  0  0  0  0
    7.8663    3.9850    0.0000 C   0  0  0  0  0  0  0  0  0  0  0  0
    6.1343    3.9850    0.0000 C   0  0  0  0  0  0  0  0  0  0  0  0
    6.1343    2.9850    0.0000 C   0  0  0  0  0  0  0  0  0  0  0  0
    7.8663    2.9850    0.0000 C   0  0  0  0  0  0  0  0  0  0  0  0
    5.2403    2.4503    0.0000 C   0  0  0  0  0  0  0  0  0  0  0  0
    4.3917    0.9404    0.0000 C   0  0  0  0  0  0  0  0  0  0  0  0
    5.2519    1.4504    0.0000 C   0  0  0  0  0  0  0  0  0  0  0  0
    7.5003    5.3510    0.0000 C   0  0  0  0  0  0  0  0  0  0  0  0
    6.5003    5.3510    0.0000 C   0  0  0  0  0  0  0  0  0  0  0  0
    5.2750   -0.5495    0.0000 C   0  0  0  0  0  0  0  0  0  0  0  0
    3.5431   -0.5695    0.0000 C   0  0  0  0  0  0  0  0  0  0  0  0
    5.2866   -1.5494    0.0000 C   0  0  0  0  0  0  0  0  0  0  0  0
    3.5546   -1.5694    0.0000 C   0  0  0  0  0  0  0  0  0  0  0  0
    5.2403    4.5197    0.0000 C   0  0  0  0  0  0  0  0  0  0  0  0
    4.3342    2.9642    0.0000 C   0  0  0  0  0  0  0  0  0  0  0  0
    4.3342    4.0058    0.0000 C   0  0  0  0  0  0  0  0  0  0  0  0
    4.4380   -3.0593    0.0000 C   0  0  0  0  0  0  0  0  0  0  0  0
    3.6400   -3.6522    0.0000 C   0  0  0  0  0  0  0  0  0  0  0  0
    3.9616   -4.5990    0.0000 C   0  0  0  0  0  0  0  0  0  0  0  0
    2.6592   -3.4573    0.0000 C   0  0  0  0  0  0  0  0  0  0  0  0
    3.3025   -5.3510    0.0000 C   0  0  0  0  0  0  0  0  0  0  0  0
    2.0000   -4.2093    0.0000 C   0  0  0  0  0  0  0  0  0  0  0  0
    2.3216   -5.1561    0.0000 C   0  0  0  0  0  0  0  0  0  0  0  0
    8.4769    3.8773    0.0000 H   0  0  0  0  0  0  0  0  0  0  0  0
    8.0784    4.5676    0.0000 H   0  0  0  0  0  0  0  0  0  0  0  0
    8.0784    2.4024    0.0000 H   0  0  0  0  0  0  0  0  0  0  0  0
    8.4769    3.0927    0.0000 H   0  0  0  0  0  0  0  0  0  0  0  0
    4.1729    1.5205    0.0000 H   0  0  0  0  0  0  0  0  0  0  0  0
    3.7824    0.8257    0.0000 H   0  0  0  0  0  0  0  0  0  0  0  0
    5.4707    0.8703    0.0000 H   0  0  0  0  0  0  0  0  0  0  0  0
    5.8612    1.5651    0.0000 H   0  0  0  0  0  0  0  0  0  0  0  0
    8.0372    5.0410    0.0000 H   0  0  0  0  0  0  0  0  0  0  0  0
    7.8103    5.8880    0.0000 H   0  0  0  0  0  0  0  0  0  0  0  0
    6.9634    5.6610    0.0000 H   0  0  0  0  0  0  0  0  0  0  0  0
    7.0372    5.6610    0.0000 H   0  0  0  0  0  0  0  0  0  0  0  0
    6.1903    5.8880    0.0000 H   0  0  0  0  0  0  0  0  0  0  0  0
    5.9634    5.0410    0.0000 H   0  0  0  0  0  0  0  0  0  0  0  0
    5.8868   -0.6501    0.0000 H   0  0  0  0  0  0  0  0  0  0  0  0
    5.4803    0.0356    0.0000 H   0  0  0  0  0  0  0  0  0  0  0  0
    3.3243    0.0106    0.0000 H   0  0  0  0  0  0  0  0  0  0  0  0
    2.9338   -0.6842    0.0000 H   0  0  0  0  0  0  0  0  0  0  0  0
    7.0003    1.8650    0.0000 H   0  0  0  0  0  0  0  0  0  0  0  0
    5.5054   -2.1295    0.0000 H   0  0  0  0  0  0  0  0  0  0  0  0
    5.8959   -1.4347    0.0000 H   0  0  0  0  0  0  0  0  0  0  0  0
    2.9428   -1.4688    0.0000 H   0  0  0  0  0  0  0  0  0  0  0  0
    3.3493   -2.1545    0.0000 H   0  0  0  0  0  0  0  0  0  0  0  0
    5.2475    5.1396    0.0000 H   0  0  0  0  0  0  0  0  0  0  0  0
    3.7985    2.6521    0.0000 H   0  0  0  0  0  0  0  0  0  0  0  0
    3.7985    4.3179    0.0000 H   0  0  0  0  0  0  0  0  0  0  0  0
    2.4598   -2.8702    0.0000 H   0  0  0  0  0  0  0  0  0  0  0  0
    3.5019   -5.9381    0.0000 H   0  0  0  0  0  0  0  0  0  0  0  0
    1.3919   -4.0884    0.0000 H   0  0  0  0  0  0  0  0  0  0  0  0
    1.9129   -5.6224    0.0000 H   0  0  0  0  0  0  0  0  0  0  0  0
  1  5  1  0  0  0  0
  1 25  1  0  0  0  0
  2 12  1  0  0  0  0
  2 16  1  0  0  0  0
  2 17  1  0  0  0  0
  3  9  1  0  0  0  0
  3 10  1  0  0  0  0
  3 48  1  0  0  0  0
  4 18  1  0  0  0  0
  4 19  1  0  0  0  0
  4 23  1  0  0  0  0
  5 23  2  0  0  0  0
  6  7  1  0  0  0  0
  6  8  1  0  0  0  0
  6 14  1  0  0  0  0
  6 15  1  0  0  0  0
  7 10  1  0  0  0  0
  7 30  1  0  0  0  0
  7 31  1  0  0  0  0
  8  9  1  0  0  0  0
  8 20  2  0  0  0  0
  9 11  2  0  0  0  0
 10 32  1  0  0  0  0
 10 33  1  0  0  0  0
 11 13  1  0  0  0  0
 11 21  1  0  0  0  0
 12 13  1  0  0  0  0
 12 34  1  0  0  0  0
 12 35  1  0  0  0  0
 13 36  1  0  0  0  0
 13 37  1  0  0  0  0
 14 38  1  0  0  0  0
 14 39  1  0  0  0  0
 14 40  1  0  0  0  0
 15 41  1  0  0  0  0
 15 42  1  0  0  0  0
 15 43  1  0  0  0  0
 16 18  1  0  0  0  0
 16 44  1  0  0  0  0
 16 45  1  0  0  0  0
 17 19  1  0  0  0  0
 17 46  1  0  0  0  0
 17 47  1  0  0  0  0
 18 49  1  0  0  0  0
 18 50  1  0  0  0  0
 19 51  1  0  0  0  0
 19 52  1  0  0  0  0
 20 22  1  0  0  0  0
 20 53  1  0  0  0  0
 21 22  2  0  0  0  0
 21 54  1  0  0  0  0
 22 55  1  0  0  0  0
 23 24  1  0  0  0  0
 24 25  1  0  0  0  0
 24 26  2  0  0  0  0
 25 27  2  0  0  0  0
 26 28  1  0  0  0  0
 26 56  1  0  0  0  0
 27 29  1  0  0  0  0
 27 57  1  0  0  0  0
 28 29  2  0  0  0  0
 28 58  1  0  0  0  0
 29 59  1  0  0  0  0
M  END
> <PUBCHEM_COMPOUND_CID>
44404457

> <PUBCHEM_COMPOUND_CANONICALIZED>
1

> <PUBCHEM_CACTVS_COMPLEXITY>
547

> <PUBCHEM_CACTVS_HBOND_ACCEPTOR>
5

> <PUBCHEM_CACTVS_HBOND_DONOR>
1

> <PUBCHEM_CACTVS_ROTATABLE_BOND>
4

> <PUBCHEM_CACTVS_SUBSKEYS>
AAADceB7gABAAAAAAAAAAAAAAAAAAWAAAAA8eIEAAAAAAFix9AAAHAQQQAAADgjBWgQz8dPAAACkAiZiYACDABAhAABJmLgoRJiIYKLAmZGUIAxgkALIyAcQgMAPgAACAAAGAAAAAAQAAAwAAAAAAAAAAA==

> <PUBCHEM_IUPAC_OPENEYE_NAME>
3-[4-[2-(4,4-dimethyl-2,3-dihydro-1H-quinolin-8-yl)ethyl]piperazin-1-yl]-1,2-benzothiazole

> <PUBCHEM_IUPAC_CAS_NAME>
3-[4-[2-(4,4-dimethyl-2,3-dihydro-1H-quinolin-8-yl)ethyl]-1-piperazinyl]-1,2-benzothiazole

> <PUBCHEM_IUPAC_NAME_MARKUP>
3-[4-[2-(4,4-dimethyl-2,3-dihydro-1<I>H</I>-quinolin-8-yl)ethyl]piperazin-1-yl]-1,2-benzothiazole

> <PUBCHEM_IUPAC_NAME>
3-[4-[2-(4,4-dimethyl-2,3-dihydro-1H-quinolin-8-yl)ethyl]piperazin-1-yl]-1,2-benzothiazole

> <PUBCHEM_IUPAC_SYSTEMATIC_NAME>
3-[4-[2-(4,4-dimethyl-2,3-dihydro-1H-quinolin-8-yl)ethyl]piperazin-1-yl]-1,2-benzothiazole

> <PUBCHEM_IUPAC_TRADITIONAL_NAME>
3-[4-[2-(4,4-dimethyl-2,3-dihydro-1H-quinolin-8-yl)ethyl]piperazino]-1,2-benzothiazole

> <PUBCHEM_IUPAC_INCHI>
InChI=1S/C24H30N4S/c1-24(2)11-12-25-22-18(6-5-8-20(22)24)10-13-27-14-16-28(17-15-27)23-19-7-3-4-9-21(19)29-26-23/h3-9,25H,10-17H2,1-2H3

> <PUBCHEM_IUPAC_INCHIKEY>
RSVKEOVPNVXAOI-UHFFFAOYSA-N

> <PUBCHEM_XLOGP3_AA>
5.8

> <PUBCHEM_EXACT_MASS>
406.21911815

> <PUBCHEM_MOLECULAR_FORMULA>
C24H30N4S

> <PUBCHEM_MOLECULAR_WEIGHT>
406.6

> <PUBCHEM_OPENEYE_CAN_SMILES>
CC1(CCNC2=C(C=CC=C21)CCN3CCN(CC3)C4=NSC5=CC=CC=C54)C

> <PUBCHEM_OPENEYE_ISO_SMILES>
CC1(CCNC2=C(C=CC=C21)CCN3CCN(CC3)C4=NSC5=CC=CC=C54)C

> <PUBCHEM_CACTVS_TPSA>
59.6

> <PUBCHEM_MONOISOTOPIC_WEIGHT>
406.21911815

> <PUBCHEM_TOTAL_CHARGE>
0

> <PUBCHEM_HEAVY_ATOM_COUNT>
29

> <PUBCHEM_ATOM_DEF_STEREO_COUNT>
0

> <PUBCHEM_ATOM_UDEF_STEREO_COUNT>
0

> <PUBCHEM_BOND_DEF_STEREO_COUNT>
0

> <PUBCHEM_BOND_UDEF_STEREO_COUNT>
0

> <PUBCHEM_ISOTOPIC_ATOM_COUNT>
0

> <PUBCHEM_COMPONENT_COUNT>
1

> <PUBCHEM_CACTVS_TAUTO_COUNT>
-1

> <PUBCHEM_COORDINATE_TYPE>
1
5
255

> <PUBCHEM_BONDANNOTATIONS>
1  25  8
1  5  8
11  21  8
20  22  8
21  22  8
23  24  8
24  25  8
24  26  8
25  27  8
26  28  8
27  29  8
28  29  8
5  23  8
8  20  8
8  9  8
9  11  8

$$$$
