165437183
  -OEChem-09292322452D

 69 74  0     1  0  0  0  0  0999 V2000
    2.0000    5.9966    0.0000 F   0  0  0  0  0  0  0  0  0  0  0  0
    2.2212    4.5998    0.0000 F   0  0  0  0  0  0  0  0  0  0  0  0
    3.6180    3.8210    0.0000 O   0  0  0  0  0  0  0  0  0  0  0  0
    9.2549   -2.7178    0.0000 O   0  0  0  0  0  0  0  0  0  0  0  0
    6.6569    2.7822    0.0000 N   0  0  3  0  0  0  0  0  0  0  0  0
    4.5691    3.5120    0.0000 N   0  0  0  0  0  0  0  0  0  0  0  0
    7.5229   -2.7178    0.0000 N   0  0  0  0  0  0  0  0  0  0  0  0
   10.7848   -5.2178    0.0000 N   0  0  0  0  0  0  0  0  0  0  0  0
   10.2012   -6.0226    0.0000 N   0  0  0  0  0  0  0  0  0  0  0  0
    6.1569    4.3210    0.0000 C   0  0  2  0  0  0  0  0  0  0  0  0
    7.1569    4.3210    0.0000 C   0  0  1  0  0  0  0  0  0  0  0  0
    6.6569    5.1876    0.0000 C   0  0  0  0  0  0  0  0  0  0  0  0
    5.8479    3.3700    0.0000 C   0  0  0  0  0  0  0  0  0  0  0  0
    7.4659    3.3700    0.0000 C   0  0  0  0  0  0  0  0  0  0  0  0
    5.1569    4.3210    0.0000 C   0  0  0  0  0  0  0  0  0  0  0  0
    6.6569    1.7822    0.0000 C   0  0  0  0  0  0  0  0  0  0  0  0
    4.5691    5.1300    0.0000 C   0  0  0  0  0  0  0  0  0  0  0  0
    7.5229    1.2822    0.0000 C   0  0  0  0  0  0  0  0  0  0  0  0
    7.5229    0.2822    0.0000 C   0  0  0  0  0  0  0  0  0  0  0  0
    3.6180    4.8210    0.0000 C   0  0  0  0  0  0  0  0  0  0  0  0
    8.3889   -0.2178    0.0000 C   0  0  0  0  0  0  0  0  0  0  0  0
    6.6569   -0.2178    0.0000 C   0  0  0  0  0  0  0  0  0  0  0  0
    8.3889   -1.2178    0.0000 C   0  0  0  0  0  0  0  0  0  0  0  0
    6.6569   -1.2178    0.0000 C   0  0  0  0  0  0  0  0  0  0  0  0
    7.5229   -1.7178    0.0000 C   0  0  0  0  0  0  0  0  0  0  0  0
    2.8090    5.4088    0.0000 C   0  0  0  0  0  0  0  0  0  0  0  0
    3.3968    6.2178    0.0000 C   0  0  0  0  0  0  0  0  0  0  0  0
    8.3889   -3.2178    0.0000 C   0  0  0  0  0  0  0  0  0  0  0  0
    8.3889   -4.2178    0.0000 C   0  0  0  0  0  0  0  0  0  0  0  0
    9.2549   -4.7178    0.0000 C   0  0  0  0  0  0  0  0  0  0  0  0
    7.5229   -4.7178    0.0000 C   0  0  0  0  0  0  0  0  0  0  0  0
    9.2549   -5.7178    0.0000 C   0  0  0  0  0  0  0  0  0  0  0  0
   10.2012   -4.4131    0.0000 C   0  0  0  0  0  0  0  0  0  0  0  0
    7.5229   -5.7178    0.0000 C   0  0  0  0  0  0  0  0  0  0  0  0
    8.3889   -6.2178    0.0000 C   0  0  0  0  0  0  0  0  0  0  0  0
   11.7848   -5.2178    0.0000 C   0  0  0  0  0  0  0  0  0  0  0  0
    7.9334    4.6666    0.0000 H   0  0  0  0  0  0  0  0  0  0  0  0
    7.1319    5.5860    0.0000 H   0  0  0  0  0  0  0  0  0  0  0  0
    6.1819    5.5860    0.0000 H   0  0  0  0  0  0  0  0  0  0  0  0
    5.2815    3.6221    0.0000 H   0  0  0  0  0  0  0  0  0  0  0  0
    5.5379    2.8330    0.0000 H   0  0  0  0  0  0  0  0  0  0  0  0
    7.7759    2.8330    0.0000 H   0  0  0  0  0  0  0  0  0  0  0  0
    8.0323    3.6221    0.0000 H   0  0  0  0  0  0  0  0  0  0  0  0
    6.0463    1.8898    0.0000 H   0  0  0  0  0  0  0  0  0  0  0  0
    6.4448    1.1996    0.0000 H   0  0  0  0  0  0  0  0  0  0  0  0
    8.1335    1.1745    0.0000 H   0  0  0  0  0  0  0  0  0  0  0  0
    7.7350    1.8648    0.0000 H   0  0  0  0  0  0  0  0  0  0  0  0
    4.7607    5.7197    0.0000 H   0  0  0  0  0  0  0  0  0  0  0  0
    8.0598    0.5922    0.0000 H   0  0  0  0  0  0  0  0  0  0  0  0
    8.9995   -0.3255    0.0000 H   0  0  0  0  0  0  0  0  0  0  0  0
    8.6010    0.3648    0.0000 H   0  0  0  0  0  0  0  0  0  0  0  0
    6.4448    0.3648    0.0000 H   0  0  0  0  0  0  0  0  0  0  0  0
    6.0463   -0.3255    0.0000 H   0  0  0  0  0  0  0  0  0  0  0  0
    8.6010   -1.8004    0.0000 H   0  0  0  0  0  0  0  0  0  0  0  0
    8.9995   -1.1102    0.0000 H   0  0  0  0  0  0  0  0  0  0  0  0
    6.0463   -1.1102    0.0000 H   0  0  0  0  0  0  0  0  0  0  0  0
    6.4448   -1.8004    0.0000 H   0  0  0  0  0  0  0  0  0  0  0  0
    8.0598   -2.0278    0.0000 H   0  0  0  0  0  0  0  0  0  0  0  0
    6.9860   -3.0278    0.0000 H   0  0  0  0  0  0  0  0  0  0  0  0
    3.8984    5.8534    0.0000 H   0  0  0  0  0  0  0  0  0  0  0  0
    3.7612    6.7194    0.0000 H   0  0  0  0  0  0  0  0  0  0  0  0
    2.8952    6.5822    0.0000 H   0  0  0  0  0  0  0  0  0  0  0  0
    6.9860   -4.4078    0.0000 H   0  0  0  0  0  0  0  0  0  0  0  0
   10.3938   -3.8238    0.0000 H   0  0  0  0  0  0  0  0  0  0  0  0
    6.9860   -6.0278    0.0000 H   0  0  0  0  0  0  0  0  0  0  0  0
    8.3889   -6.8378    0.0000 H   0  0  0  0  0  0  0  0  0  0  0  0
   11.7848   -5.8378    0.0000 H   0  0  0  0  0  0  0  0  0  0  0  0
   12.4048   -5.2178    0.0000 H   0  0  0  0  0  0  0  0  0  0  0  0
   11.7848   -4.5978    0.0000 H   0  0  0  0  0  0  0  0  0  0  0  0
  1 26  1  0  0  0  0
  2 26  1  0  0  0  0
  3  6  1  0  0  0  0
  3 20  1  0  0  0  0
  4 28  2  0  0  0  0
  5 13  1  0  0  0  0
  5 14  1  0  0  0  0
  5 16  1  0  0  0  0
  6 15  2  0  0  0  0
  7 25  1  0  0  0  0
  7 28  1  0  0  0  0
  7 59  1  0  0  0  0
  8  9  1  0  0  0  0
  8 33  1  0  0  0  0
  8 36  1  0  0  0  0
  9 32  2  0  0  0  0
 10 11  1  0  0  0  0
 10 12  1  0  0  0  0
 10 13  1  0  0  0  0
 10 15  1  6  0  0  0
 11 12  1  0  0  0  0
 11 14  1  0  0  0  0
 11 37  1  6  0  0  0
 12 38  1  0  0  0  0
 12 39  1  0  0  0  0
 13 40  1  0  0  0  0
 13 41  1  0  0  0  0
 14 42  1  0  0  0  0
 14 43  1  0  0  0  0
 15 17  1  0  0  0  0
 16 18  1  0  0  0  0
 16 44  1  0  0  0  0
 16 45  1  0  0  0  0
 17 20  2  0  0  0  0
 17 48  1  0  0  0  0
 18 19  1  0  0  0  0
 18 46  1  0  0  0  0
 18 47  1  0  0  0  0
 19 21  1  0  0  0  0
 19 22  1  0  0  0  0
 19 49  1  0  0  0  0
 20 26  1  0  0  0  0
 21 23  1  0  0  0  0
 21 50  1  0  0  0  0
 21 51  1  0  0  0  0
 22 24  1  0  0  0  0
 22 52  1  0  0  0  0
 22 53  1  0  0  0  0
 23 25  1  0  0  0  0
 23 54  1  0  0  0  0
 23 55  1  0  0  0  0
 24 25  1  0  0  0  0
 24 56  1  0  0  0  0
 24 57  1  0  0  0  0
 25 58  1  0  0  0  0
 26 27  1  0  0  0  0
 27 60  1  0  0  0  0
 27 61  1  0  0  0  0
 27 62  1  0  0  0  0
 28 29  1  0  0  0  0
 29 30  1  0  0  0  0
 29 31  2  0  0  0  0
 30 32  1  0  0  0  0
 30 33  2  0  0  0  0
 31 34  1  0  0  0  0
 31 63  1  0  0  0  0
 32 35  1  0  0  0  0
 33 64  1  0  0  0  0
 34 35  2  0  0  0  0
 34 65  1  0  0  0  0
 35 66  1  0  0  0  0
 36 67  1  0  0  0  0
 36 68  1  0  0  0  0
 36 69  1  0  0  0  0
M  END
> <PUBCHEM_COMPOUND_CID>
165437183

> <PUBCHEM_COMPOUND_CANONICALIZED>
1

> <PUBCHEM_CACTVS_COMPLEXITY>
824

> <PUBCHEM_CACTVS_HBOND_ACCEPTOR>
7

> <PUBCHEM_CACTVS_HBOND_DONOR>
1

> <PUBCHEM_CACTVS_ROTATABLE_BOND>
7

> <PUBCHEM_CACTVS_SUBSKEYS>
AAADcfB7sYAAAAAAAAAAAAAAGAAAAWLFgAA8YIAAAAAAAFgB/AAAHwAcAAAADyzBnhQ+xPPYAACrA7V3VgCSBAA1ogA42KE+bNoIJrrA1dOEtYhmnhjIycec2fKPgAAAQAASAAAQAACAACQAAAAAAAAAAA==

> <PUBCHEM_IUPAC_OPENEYE_NAME>
N-[4-[2-[(1R,5R)-1-[5-(1,1-difluoroethyl)isoxazol-3-yl]-3-azabicyclo[3.1.0]hexan-3-yl]ethyl]cyclohexyl]-2-methyl-indazole-4-carboxamide

> <PUBCHEM_IUPAC_CAS_NAME>
N-[4-[2-[(1R,5R)-1-[5-(1,1-difluoroethyl)-3-isoxazolyl]-3-azabicyclo[3.1.0]hexan-3-yl]ethyl]cyclohexyl]-2-methyl-4-indazolecarboxamide

> <PUBCHEM_IUPAC_NAME_MARKUP>
<I>N</I>-[4-[2-[(1<I>R</I>,5<I>R</I>)-1-[5-(1,1-difluoroethyl)-1,2-oxazol-3-yl]-3-azabicyclo[3.1.0]hexan-3-yl]ethyl]cyclohexyl]-2-methylindazole-4-carboxamide

> <PUBCHEM_IUPAC_NAME>
N-[4-[2-[(1R,5R)-1-[5-(1,1-difluoroethyl)-1,2-oxazol-3-yl]-3-azabicyclo[3.1.0]hexan-3-yl]ethyl]cyclohexyl]-2-methylindazole-4-carboxamide

> <PUBCHEM_IUPAC_SYSTEMATIC_NAME>
N-[4-[2-[(1R,5R)-1-[5-[1,1-bis(fluoranyl)ethyl]-1,2-oxazol-3-yl]-3-azabicyclo[3.1.0]hexan-3-yl]ethyl]cyclohexyl]-2-methyl-indazole-4-carboxamide

> <PUBCHEM_IUPAC_TRADITIONAL_NAME>
N-[4-[2-[(1R,5R)-1-[5-(1,1-difluoroethyl)isoxazol-3-yl]-3-azabicyclo[3.1.0]hexan-3-yl]ethyl]cyclohexyl]-2-methyl-indazole-4-carboxamide

> <PUBCHEM_IUPAC_INCHI>
InChI=1S/C27H33F2N5O2/c1-26(28,29)24-12-23(32-36-24)27-13-18(27)14-34(16-27)11-10-17-6-8-19(9-7-17)30-25(35)20-4-3-5-22-21(20)15-33(2)31-22/h3-5,12,15,17-19H,6-11,13-14,16H2,1-2H3,(H,30,35)/t17?,18-,19?,27-/m0/s1

> <PUBCHEM_IUPAC_INCHIKEY>
WDIQJDYEIWJBCZ-CNHUTHRTSA-N

> <PUBCHEM_XLOGP3_AA>
4

> <PUBCHEM_EXACT_MASS>
497.26023164

> <PUBCHEM_MOLECULAR_FORMULA>
C27H33F2N5O2

> <PUBCHEM_MOLECULAR_WEIGHT>
497.6

> <PUBCHEM_OPENEYE_CAN_SMILES>
CC(C1=CC(=NO1)C23CC2CN(C3)CCC4CCC(CC4)NC(=O)C5=CC=CC6=NN(C=C65)C)(F)F

> <PUBCHEM_OPENEYE_ISO_SMILES>
CC(C1=CC(=NO1)[C@]23C[C@H]2CN(C3)CCC4CCC(CC4)NC(=O)C5=CC=CC6=NN(C=C65)C)(F)F

> <PUBCHEM_CACTVS_TPSA>
76.2

> <PUBCHEM_MONOISOTOPIC_WEIGHT>
497.26023164

> <PUBCHEM_TOTAL_CHARGE>
0

> <PUBCHEM_HEAVY_ATOM_COUNT>
36

> <PUBCHEM_ATOM_DEF_STEREO_COUNT>
2

> <PUBCHEM_ATOM_UDEF_STEREO_COUNT>
0

> <PUBCHEM_BOND_DEF_STEREO_COUNT>
0

> <PUBCHEM_BOND_UDEF_STEREO_COUNT>
0

> <PUBCHEM_ISOTOPIC_ATOM_COUNT>
0

> <PUBCHEM_COMPONENT_COUNT>
1

> <PUBCHEM_CACTVS_TAUTO_COUNT>
-1

> <PUBCHEM_COORDINATE_TYPE>
1
5
255

> <PUBCHEM_BONDANNOTATIONS>
10  15  6
11  37  6
15  17  8
17  20  8
29  30  8
29  31  8
3  20  8
3  6  8
30  32  8
30  33  8
31  34  8
32  35  8
34  35  8
6  15  8
8  33  8
8  9  8
9  32  8

$$$$
