54580905
  -OEChem-09292322312D

 70 74  0     0  0  0  0  0  0999 V2000
    7.2622   -1.2637    0.0000 O   0  0  0  0  0  0  0  0  0  0  0  0
   15.9224   -0.2637    0.0000 O   0  0  0  0  0  0  0  0  0  0  0  0
   12.4583   -0.2637    0.0000 N   0  0  0  0  0  0  0  0  0  0  0  0
   14.1904   -1.2637    0.0000 N   0  0  0  0  0  0  0  0  0  0  0  0
    8.1282    0.2363    0.0000 N   0  0  0  0  0  0  0  0  0  0  0  0
   12.4583   -1.2637    0.0000 C   0  0  0  0  0  0  0  0  0  0  0  0
   13.3243    0.2363    0.0000 C   0  0  0  0  0  0  0  0  0  0  0  0
   11.5923    0.2363    0.0000 C   0  0  0  0  0  0  0  0  0  0  0  0
   13.3243   -1.7637    0.0000 C   0  0  0  0  0  0  0  0  0  0  0  0
   14.1904   -0.2637    0.0000 C   0  0  0  0  0  0  0  0  0  0  0  0
   10.7263   -0.2637    0.0000 C   0  0  0  0  0  0  0  0  0  0  0  0
    9.8602    0.2363    0.0000 C   0  0  0  0  0  0  0  0  0  0  0  0
    8.9942   -0.2637    0.0000 C   0  0  0  0  0  0  0  0  0  0  0  0
    8.1282    1.2363    0.0000 C   0  0  0  0  0  0  0  0  0  0  0  0
   15.0564   -1.7637    0.0000 C   0  0  0  0  0  0  0  0  0  0  0  0
    7.2622    1.7363    0.0000 C   0  0  0  0  0  0  0  0  0  0  0  0
    6.3961    1.2363    0.0000 C   0  0  0  0  0  0  0  0  0  0  0  0
    7.2622   -0.2637    0.0000 C   0  0  0  0  0  0  0  0  0  0  0  0
    6.3961    0.2363    0.0000 C   0  0  0  0  0  0  0  0  0  0  0  0
   15.9224   -1.2637    0.0000 C   0  0  0  0  0  0  0  0  0  0  0  0
   15.0564   -2.7637    0.0000 C   0  0  0  0  0  0  0  0  0  0  0  0
    5.5022    1.7709    0.0000 C   0  0  0  0  0  0  0  0  0  0  0  0
    5.5022   -0.2984    0.0000 C   0  0  0  0  0  0  0  0  0  0  0  0
    4.5961    1.2571    0.0000 C   0  0  0  0  0  0  0  0  0  0  0  0
    4.5961    0.2154    0.0000 C   0  0  0  0  0  0  0  0  0  0  0  0
   16.7884   -1.7637    0.0000 C   0  0  0  0  0  0  0  0  0  0  0  0
   15.9224   -3.2637    0.0000 C   0  0  0  0  0  0  0  0  0  0  0  0
   16.7884   -2.7637    0.0000 C   0  0  0  0  0  0  0  0  0  0  0  0
    3.7320    1.7604    0.0000 C   0  0  0  0  0  0  0  0  0  0  0  0
    3.7359    2.7604    0.0000 C   0  0  0  0  0  0  0  0  0  0  0  0
    2.8641    1.2638    0.0000 C   0  0  0  0  0  0  0  0  0  0  0  0
   16.7884    0.2363    0.0000 C   0  0  0  0  0  0  0  0  0  0  0  0
    2.8718    3.2637    0.0000 C   0  0  0  0  0  0  0  0  0  0  0  0
    2.0000    1.7671    0.0000 C   0  0  0  0  0  0  0  0  0  0  0  0
    2.0038    2.7671    0.0000 C   0  0  0  0  0  0  0  0  0  0  0  0
   11.8477   -1.1561    0.0000 H   0  0  0  0  0  0  0  0  0  0  0  0
   12.2463   -1.8464    0.0000 H   0  0  0  0  0  0  0  0  0  0  0  0
   13.7229    0.7112    0.0000 H   0  0  0  0  0  0  0  0  0  0  0  0
   12.9258    0.7112    0.0000 H   0  0  0  0  0  0  0  0  0  0  0  0
   11.9908    0.7112    0.0000 H   0  0  0  0  0  0  0  0  0  0  0  0
   11.1938    0.7112    0.0000 H   0  0  0  0  0  0  0  0  0  0  0  0
   12.9258   -2.2387    0.0000 H   0  0  0  0  0  0  0  0  0  0  0  0
   13.7229   -2.2387    0.0000 H   0  0  0  0  0  0  0  0  0  0  0  0
   14.8009   -0.3714    0.0000 H   0  0  0  0  0  0  0  0  0  0  0  0
   14.4024    0.3189    0.0000 H   0  0  0  0  0  0  0  0  0  0  0  0
   10.3277   -0.7387    0.0000 H   0  0  0  0  0  0  0  0  0  0  0  0
   11.1248   -0.7387    0.0000 H   0  0  0  0  0  0  0  0  0  0  0  0
   10.2588    0.7112    0.0000 H   0  0  0  0  0  0  0  0  0  0  0  0
    9.4617    0.7112    0.0000 H   0  0  0  0  0  0  0  0  0  0  0  0
    8.5957   -0.7387    0.0000 H   0  0  0  0  0  0  0  0  0  0  0  0
    9.3927   -0.7387    0.0000 H   0  0  0  0  0  0  0  0  0  0  0  0
    8.7388    1.1286    0.0000 H   0  0  0  0  0  0  0  0  0  0  0  0
    8.3402    1.8189    0.0000 H   0  0  0  0  0  0  0  0  0  0  0  0
    7.6607    2.2112    0.0000 H   0  0  0  0  0  0  0  0  0  0  0  0
    6.8636    2.2112    0.0000 H   0  0  0  0  0  0  0  0  0  0  0  0
   14.5195   -3.0737    0.0000 H   0  0  0  0  0  0  0  0  0  0  0  0
    5.5094    2.3909    0.0000 H   0  0  0  0  0  0  0  0  0  0  0  0
    5.5094   -0.9184    0.0000 H   0  0  0  0  0  0  0  0  0  0  0  0
    4.0604   -0.0966    0.0000 H   0  0  0  0  0  0  0  0  0  0  0  0
   17.3254   -1.4537    0.0000 H   0  0  0  0  0  0  0  0  0  0  0  0
   15.9224   -3.8837    0.0000 H   0  0  0  0  0  0  0  0  0  0  0  0
   17.3254   -3.0737    0.0000 H   0  0  0  0  0  0  0  0  0  0  0  0
    4.2740    3.0683    0.0000 H   0  0  0  0  0  0  0  0  0  0  0  0
    2.8617    0.6438    0.0000 H   0  0  0  0  0  0  0  0  0  0  0  0
   17.0984   -0.3007    0.0000 H   0  0  0  0  0  0  0  0  0  0  0  0
   17.3254    0.5463    0.0000 H   0  0  0  0  0  0  0  0  0  0  0  0
   16.4784    0.7732    0.0000 H   0  0  0  0  0  0  0  0  0  0  0  0
    2.8742    3.8837    0.0000 H   0  0  0  0  0  0  0  0  0  0  0  0
    1.4619    1.4592    0.0000 H   0  0  0  0  0  0  0  0  0  0  0  0
    1.4681    3.0792    0.0000 H   0  0  0  0  0  0  0  0  0  0  0  0
  1 18  2  0  0  0  0
  2 20  1  0  0  0  0
  2 32  1  0  0  0  0
  3  6  1  0  0  0  0
  3  7  1  0  0  0  0
  3  8  1  0  0  0  0
  4  9  1  0  0  0  0
  4 10  1  0  0  0  0
  4 15  1  0  0  0  0
  5 13  1  0  0  0  0
  5 14  1  0  0  0  0
  5 18  1  0  0  0  0
  6  9  1  0  0  0  0
  6 36  1  0  0  0  0
  6 37  1  0  0  0  0
  7 10  1  0  0  0  0
  7 38  1  0  0  0  0
  7 39  1  0  0  0  0
  8 11  1  0  0  0  0
  8 40  1  0  0  0  0
  8 41  1  0  0  0  0
  9 42  1  0  0  0  0
  9 43  1  0  0  0  0
 10 44  1  0  0  0  0
 10 45  1  0  0  0  0
 11 12  1  0  0  0  0
 11 46  1  0  0  0  0
 11 47  1  0  0  0  0
 12 13  1  0  0  0  0
 12 48  1  0  0  0  0
 12 49  1  0  0  0  0
 13 50  1  0  0  0  0
 13 51  1  0  0  0  0
 14 16  1  0  0  0  0
 14 52  1  0  0  0  0
 14 53  1  0  0  0  0
 15 20  1  0  0  0  0
 15 21  2  0  0  0  0
 16 17  1  0  0  0  0
 16 54  1  0  0  0  0
 16 55  1  0  0  0  0
 17 19  2  0  0  0  0
 17 22  1  0  0  0  0
 18 19  1  0  0  0  0
 19 23  1  0  0  0  0
 20 26  2  0  0  0  0
 21 27  1  0  0  0  0
 21 56  1  0  0  0  0
 22 24  2  0  0  0  0
 22 57  1  0  0  0  0
 23 25  2  0  0  0  0
 23 58  1  0  0  0  0
 24 25  1  0  0  0  0
 24 29  1  0  0  0  0
 25 59  1  0  0  0  0
 26 28  1  0  0  0  0
 26 60  1  0  0  0  0
 27 28  2  0  0  0  0
 27 61  1  0  0  0  0
 28 62  1  0  0  0  0
 29 30  2  0  0  0  0
 29 31  1  0  0  0  0
 30 33  1  0  0  0  0
 30 63  1  0  0  0  0
 31 34  2  0  0  0  0
 31 64  1  0  0  0  0
 32 65  1  0  0  0  0
 32 66  1  0  0  0  0
 32 67  1  0  0  0  0
 33 35  2  0  0  0  0
 33 68  1  0  0  0  0
 34 35  1  0  0  0  0
 34 69  1  0  0  0  0
 35 70  1  0  0  0  0
M  END
> <PUBCHEM_COMPOUND_CID>
54580905

> <PUBCHEM_COMPOUND_CANONICALIZED>
1

> <PUBCHEM_CACTVS_COMPLEXITY>
658

> <PUBCHEM_CACTVS_HBOND_ACCEPTOR>
4

> <PUBCHEM_CACTVS_HBOND_DONOR>
0

> <PUBCHEM_CACTVS_ROTATABLE_BOND>
8

> <PUBCHEM_CACTVS_SUBSKEYS>
AAADcfB7MAAAAAAAAAAAAAAAAAAAAAAAAAA8eMECAAAAAACxUAAAHgAAAAAADAzBmAYyxoMABACIAiVSUACCCAAlIgAIiAEPbMgOZjLEtZuVMShkxhHY6YeYycCOwAACAAAQEACAAAQAACAgAAAAAAAAAA==

> <PUBCHEM_IUPAC_OPENEYE_NAME>
2-[4-[4-(2-methoxyphenyl)piperazin-1-yl]butyl]-6-phenyl-3,4-dihydroisoquinolin-1-one

> <PUBCHEM_IUPAC_CAS_NAME>
2-[4-[4-(2-methoxyphenyl)-1-piperazinyl]butyl]-6-phenyl-3,4-dihydroisoquinolin-1-one

> <PUBCHEM_IUPAC_NAME_MARKUP>
2-[4-[4-(2-methoxyphenyl)piperazin-1-yl]butyl]-6-phenyl-3,4-dihydroisoquinolin-1-one

> <PUBCHEM_IUPAC_NAME>
2-[4-[4-(2-methoxyphenyl)piperazin-1-yl]butyl]-6-phenyl-3,4-dihydroisoquinolin-1-one

> <PUBCHEM_IUPAC_SYSTEMATIC_NAME>
2-[4-[4-(2-methoxyphenyl)piperazin-1-yl]butyl]-6-phenyl-3,4-dihydroisoquinolin-1-one

> <PUBCHEM_IUPAC_TRADITIONAL_NAME>
2-[4-[4-(2-methoxyphenyl)piperazino]butyl]-6-phenyl-3,4-dihydroisocarbostyril

> <PUBCHEM_IUPAC_INCHI>
InChI=1S/C30H35N3O2/c1-35-29-12-6-5-11-28(29)32-21-19-31(20-22-32)16-7-8-17-33-18-15-26-23-25(13-14-27(26)30(33)34)24-9-3-2-4-10-24/h2-6,9-14,23H,7-8,15-22H2,1H3

> <PUBCHEM_IUPAC_INCHIKEY>
UTEITPSYNTYGQL-UHFFFAOYSA-N

> <PUBCHEM_XLOGP3_AA>
5.4

> <PUBCHEM_EXACT_MASS>
469.27292737

> <PUBCHEM_MOLECULAR_FORMULA>
C30H35N3O2

> <PUBCHEM_MOLECULAR_WEIGHT>
469.6

> <PUBCHEM_OPENEYE_CAN_SMILES>
COC1=CC=CC=C1N2CCN(CC2)CCCCN3CCC4=C(C3=O)C=CC(=C4)C5=CC=CC=C5

> <PUBCHEM_OPENEYE_ISO_SMILES>
COC1=CC=CC=C1N2CCN(CC2)CCCCN3CCC4=C(C3=O)C=CC(=C4)C5=CC=CC=C5

> <PUBCHEM_CACTVS_TPSA>
36

> <PUBCHEM_MONOISOTOPIC_WEIGHT>
469.27292737

> <PUBCHEM_TOTAL_CHARGE>
0

> <PUBCHEM_HEAVY_ATOM_COUNT>
35

> <PUBCHEM_ATOM_DEF_STEREO_COUNT>
0

> <PUBCHEM_ATOM_UDEF_STEREO_COUNT>
0

> <PUBCHEM_BOND_DEF_STEREO_COUNT>
0

> <PUBCHEM_BOND_UDEF_STEREO_COUNT>
0

> <PUBCHEM_ISOTOPIC_ATOM_COUNT>
0

> <PUBCHEM_COMPONENT_COUNT>
1

> <PUBCHEM_CACTVS_TAUTO_COUNT>
-1

> <PUBCHEM_COORDINATE_TYPE>
1
5
255

> <PUBCHEM_BONDANNOTATIONS>
15  20  8
15  21  8
17  19  8
17  22  8
19  23  8
20  26  8
21  27  8
22  24  8
23  25  8
24  25  8
26  28  8
27  28  8
29  30  8
29  31  8
30  33  8
31  34  8
33  35  8
34  35  8

$$$$
