10780942
  -OEChem-09292322102D

 41 42  0     0  0  0  0  0  0999 V2000
    2.0000   -3.5000    0.0000 Cl  0  0  0  0  0  0  0  0  0  0  0  0
    7.1962    2.5000    0.0000 O   0  0  0  0  0  0  0  0  0  0  0  0
    3.7320   -2.5000    0.0000 O   0  0  0  0  0  0  0  0  0  0  0  0
    5.4641   -0.5000    0.0000 N   0  0  0  0  0  0  0  0  0  0  0  0
    5.4641    0.5000    0.0000 C   0  0  0  0  0  0  0  0  0  0  0  0
    6.3301    1.0000    0.0000 C   0  0  0  0  0  0  0  0  0  0  0  0
    4.5981   -1.0000    0.0000 C   0  0  0  0  0  0  0  0  0  0  0  0
    6.3301    2.0000    0.0000 C   0  0  0  0  0  0  0  0  0  0  0  0
    4.5981   -2.0000    0.0000 C   0  0  0  0  0  0  0  0  0  0  0  0
    7.1962    3.5000    0.0000 C   0  0  0  0  0  0  0  0  0  0  0  0
    3.7320   -3.5000    0.0000 C   0  0  0  0  0  0  0  0  0  0  0  0
    6.3301    4.0000    0.0000 C   0  0  0  0  0  0  0  0  0  0  0  0
    8.0622    4.0000    0.0000 C   0  0  0  0  0  0  0  0  0  0  0  0
    2.8660   -4.0000    0.0000 C   0  0  0  0  0  0  0  0  0  0  0  0
    4.5981   -4.0000    0.0000 C   0  0  0  0  0  0  0  0  0  0  0  0
    6.3301    5.0000    0.0000 C   0  0  0  0  0  0  0  0  0  0  0  0
    8.0622    5.0000    0.0000 C   0  0  0  0  0  0  0  0  0  0  0  0
    2.8660   -5.0000    0.0000 C   0  0  0  0  0  0  0  0  0  0  0  0
    4.5981   -5.0000    0.0000 C   0  0  0  0  0  0  0  0  0  0  0  0
    7.1962    5.5000    0.0000 C   0  0  0  0  0  0  0  0  0  0  0  0
    3.7320   -5.5000    0.0000 C   0  0  0  0  0  0  0  0  0  0  0  0
    5.2520    1.0826    0.0000 H   0  0  0  0  0  0  0  0  0  0  0  0
    4.8535    0.3923    0.0000 H   0  0  0  0  0  0  0  0  0  0  0  0
    6.5422    0.4174    0.0000 H   0  0  0  0  0  0  0  0  0  0  0  0
    6.9407    1.1077    0.0000 H   0  0  0  0  0  0  0  0  0  0  0  0
    4.3860   -0.4174    0.0000 H   0  0  0  0  0  0  0  0  0  0  0  0
    3.9875   -1.1077    0.0000 H   0  0  0  0  0  0  0  0  0  0  0  0
    6.0010   -0.8100    0.0000 H   0  0  0  0  0  0  0  0  0  0  0  0
    6.1181    2.5826    0.0000 H   0  0  0  0  0  0  0  0  0  0  0  0
    5.7196    1.8923    0.0000 H   0  0  0  0  0  0  0  0  0  0  0  0
    4.8101   -2.5826    0.0000 H   0  0  0  0  0  0  0  0  0  0  0  0
    5.2087   -1.8923    0.0000 H   0  0  0  0  0  0  0  0  0  0  0  0
    5.7932    3.6900    0.0000 H   0  0  0  0  0  0  0  0  0  0  0  0
    8.5991    3.6900    0.0000 H   0  0  0  0  0  0  0  0  0  0  0  0
    5.1350   -3.6900    0.0000 H   0  0  0  0  0  0  0  0  0  0  0  0
    5.7932    5.3100    0.0000 H   0  0  0  0  0  0  0  0  0  0  0  0
    8.5991    5.3100    0.0000 H   0  0  0  0  0  0  0  0  0  0  0  0
    2.3291   -5.3100    0.0000 H   0  0  0  0  0  0  0  0  0  0  0  0
    5.1350   -5.3100    0.0000 H   0  0  0  0  0  0  0  0  0  0  0  0
    7.1962    6.1200    0.0000 H   0  0  0  0  0  0  0  0  0  0  0  0
    3.7320   -6.1200    0.0000 H   0  0  0  0  0  0  0  0  0  0  0  0
  1 14  1  0  0  0  0
  2  8  1  0  0  0  0
  2 10  1  0  0  0  0
  3  9  1  0  0  0  0
  3 11  1  0  0  0  0
  4  5  1  0  0  0  0
  4  7  1  0  0  0  0
  4 28  1  0  0  0  0
  5  6  1  0  0  0  0
  5 22  1  0  0  0  0
  5 23  1  0  0  0  0
  6  8  1  0  0  0  0
  6 24  1  0  0  0  0
  6 25  1  0  0  0  0
  7  9  1  0  0  0  0
  7 26  1  0  0  0  0
  7 27  1  0  0  0  0
  8 29  1  0  0  0  0
  8 30  1  0  0  0  0
  9 31  1  0  0  0  0
  9 32  1  0  0  0  0
 10 12  2  0  0  0  0
 10 13  1  0  0  0  0
 11 14  1  0  0  0  0
 11 15  2  0  0  0  0
 12 16  1  0  0  0  0
 12 33  1  0  0  0  0
 13 17  2  0  0  0  0
 13 34  1  0  0  0  0
 14 18  2  0  0  0  0
 15 19  1  0  0  0  0
 15 35  1  0  0  0  0
 16 20  2  0  0  0  0
 16 36  1  0  0  0  0
 17 20  1  0  0  0  0
 17 37  1  0  0  0  0
 18 21  1  0  0  0  0
 18 38  1  0  0  0  0
 19 21  2  0  0  0  0
 19 39  1  0  0  0  0
 20 40  1  0  0  0  0
 21 41  1  0  0  0  0
M  END
> <PUBCHEM_COMPOUND_CID>
10780942

> <PUBCHEM_COMPOUND_CANONICALIZED>
1

> <PUBCHEM_CACTVS_COMPLEXITY>
259

> <PUBCHEM_CACTVS_HBOND_ACCEPTOR>
3

> <PUBCHEM_CACTVS_HBOND_DONOR>
1

> <PUBCHEM_CACTVS_ROTATABLE_BOND>
9

> <PUBCHEM_CACTVS_SUBSKEYS>
AAADceB6MAAEAAAAAAAAAAAAAAAAAAAAAAAwYAAAAAAAAAABQAAAHgIQAAAACAbhkCYwBoLABACAACBCAAACCAAgJUAIiIAOC4gOJiOFMxqHOCCm0BGYqAeAQAAAAAAAAAAACAAAAAAAAAAQAAAAAAAAAA==

> <PUBCHEM_IUPAC_OPENEYE_NAME>
N-[2-(2-chlorophenoxy)ethyl]-3-phenoxy-propan-1-amine

> <PUBCHEM_IUPAC_CAS_NAME>
N-[2-(2-chlorophenoxy)ethyl]-3-phenoxy-1-propanamine

> <PUBCHEM_IUPAC_NAME_MARKUP>
<I>N</I>-[2-(2-chlorophenoxy)ethyl]-3-phenoxypropan-1-amine

> <PUBCHEM_IUPAC_NAME>
N-[2-(2-chlorophenoxy)ethyl]-3-phenoxypropan-1-amine

> <PUBCHEM_IUPAC_SYSTEMATIC_NAME>
N-[2-(2-chloranylphenoxy)ethyl]-3-phenoxy-propan-1-amine

> <PUBCHEM_IUPAC_TRADITIONAL_NAME>
2-(2-chlorophenoxy)ethyl-(3-phenoxypropyl)amine

> <PUBCHEM_IUPAC_INCHI>
InChI=1S/C17H20ClNO2/c18-16-9-4-5-10-17(16)21-14-12-19-11-6-13-20-15-7-2-1-3-8-15/h1-5,7-10,19H,6,11-14H2

> <PUBCHEM_IUPAC_INCHIKEY>
BQBVMBGNTSPRNK-UHFFFAOYSA-N

> <PUBCHEM_XLOGP3_AA>
4.1

> <PUBCHEM_EXACT_MASS>
305.1182566

> <PUBCHEM_MOLECULAR_FORMULA>
C17H20ClNO2

> <PUBCHEM_MOLECULAR_WEIGHT>
305.8

> <PUBCHEM_OPENEYE_CAN_SMILES>
C1=CC=C(C=C1)OCCCNCCOC2=CC=CC=C2Cl

> <PUBCHEM_OPENEYE_ISO_SMILES>
C1=CC=C(C=C1)OCCCNCCOC2=CC=CC=C2Cl

> <PUBCHEM_CACTVS_TPSA>
30.5

> <PUBCHEM_MONOISOTOPIC_WEIGHT>
305.1182566

> <PUBCHEM_TOTAL_CHARGE>
0

> <PUBCHEM_HEAVY_ATOM_COUNT>
21

> <PUBCHEM_ATOM_DEF_STEREO_COUNT>
0

> <PUBCHEM_ATOM_UDEF_STEREO_COUNT>
0

> <PUBCHEM_BOND_DEF_STEREO_COUNT>
0

> <PUBCHEM_BOND_UDEF_STEREO_COUNT>
0

> <PUBCHEM_ISOTOPIC_ATOM_COUNT>
0

> <PUBCHEM_COMPONENT_COUNT>
1

> <PUBCHEM_CACTVS_TAUTO_COUNT>
-1

> <PUBCHEM_COORDINATE_TYPE>
1
5
255

> <PUBCHEM_BONDANNOTATIONS>
10  12  8
10  13  8
11  14  8
11  15  8
12  16  8
13  17  8
14  18  8
15  19  8
16  20  8
17  20  8
18  21  8
19  21  8

$$$$
