71657946
  -OEChem-09292322332D

 63 65  0     1  0  0  0  0  0999 V2000
    2.8660   -5.4012    0.0000 O   0  0  0  0  0  0  0  0  0  0  0  0
    3.7126    2.8964    0.0000 O   0  0  0  0  0  0  0  0  0  0  0  0
    5.0981   -2.2106    0.0000 N   0  0  3  0  0  0  0  0  0  0  0  0
    4.5981   -4.4012    0.0000 N   0  0  3  0  0  0  0  0  0  0  0  0
    5.2731    2.1448    0.0000 N   0  0  0  0  0  0  0  0  0  0  0  0
    4.0981   -2.2106    0.0000 C   0  0  0  0  0  0  0  0  0  0  0  0
    5.7216   -2.9924    0.0000 C   0  0  0  0  0  0  0  0  0  0  0  0
    3.4746   -2.9924    0.0000 C   0  0  0  0  0  0  0  0  0  0  0  0
    5.4990   -3.9673    0.0000 C   0  0  0  0  0  0  0  0  0  0  0  0
    3.6971   -3.9673    0.0000 C   0  0  0  0  0  0  0  0  0  0  0  0
    5.5320   -1.3096    0.0000 C   0  0  0  0  0  0  0  0  0  0  0  0
    4.9686   -0.4833    0.0000 C   0  0  0  0  0  0  0  0  0  0  0  0
    4.5981   -5.4012    0.0000 C   0  0  0  0  0  0  0  0  0  0  0  0
    5.4025    0.4176    0.0000 C   0  0  0  0  0  0  0  0  0  0  0  0
    4.8392    1.2439    0.0000 C   0  0  0  0  0  0  0  0  0  0  0  0
    3.7320   -5.9012    0.0000 C   0  0  0  0  0  0  0  0  0  0  0  0
    5.4641   -5.9012    0.0000 C   0  0  0  0  0  0  0  0  0  0  0  0
    3.7320   -6.9012    0.0000 C   0  0  0  0  0  0  0  0  0  0  0  0
    5.4641   -6.9012    0.0000 C   0  0  0  0  0  0  0  0  0  0  0  0
    4.5981   -7.4012    0.0000 C   0  0  0  0  0  0  0  0  0  0  0  0
    4.7098    2.9711    0.0000 C   0  0  0  0  0  0  0  0  0  0  0  0
    2.0000   -5.9012    0.0000 C   0  0  0  0  0  0  0  0  0  0  0  0
    5.1436    3.8720    0.0000 C   0  0  0  0  0  0  0  0  0  0  0  0
    4.5803    4.6983    0.0000 C   0  0  0  0  0  0  0  0  0  0  0  0
    6.1408    3.9468    0.0000 C   0  0  0  0  0  0  0  0  0  0  0  0
    5.0142    5.5992    0.0000 C   0  0  0  0  0  0  0  0  0  0  0  0
    6.5747    4.8477    0.0000 C   0  0  0  0  0  0  0  0  0  0  0  0
    6.0114    5.6740    0.0000 C   0  0  0  0  0  0  0  0  0  0  0  0
    6.4453    6.5750    0.0000 C   0  0  0  0  0  0  0  0  0  0  0  0
    5.8820    7.4012    0.0000 C   0  0  0  0  0  0  0  0  0  0  0  0
    4.2360   -1.6061    0.0000 H   0  0  0  0  0  0  0  0  0  0  0  0
    3.5395   -1.9415    0.0000 H   0  0  0  0  0  0  0  0  0  0  0  0
    6.2802   -3.2614    0.0000 H   0  0  0  0  0  0  0  0  0  0  0  0
    6.1081   -2.5076    0.0000 H   0  0  0  0  0  0  0  0  0  0  0  0
    3.0880   -2.5076    0.0000 H   0  0  0  0  0  0  0  0  0  0  0  0
    2.9160   -3.2614    0.0000 H   0  0  0  0  0  0  0  0  0  0  0  0
    5.6370   -4.5718    0.0000 H   0  0  0  0  0  0  0  0  0  0  0  0
    6.1190   -3.9673    0.0000 H   0  0  0  0  0  0  0  0  0  0  0  0
    3.0771   -3.9673    0.0000 H   0  0  0  0  0  0  0  0  0  0  0  0
    3.5591   -4.5718    0.0000 H   0  0  0  0  0  0  0  0  0  0  0  0
    6.0354   -1.6715    0.0000 H   0  0  0  0  0  0  0  0  0  0  0  0
    5.9758   -0.8767    0.0000 H   0  0  0  0  0  0  0  0  0  0  0  0
    4.4652   -0.1214    0.0000 H   0  0  0  0  0  0  0  0  0  0  0  0
    4.5248   -0.9162    0.0000 H   0  0  0  0  0  0  0  0  0  0  0  0
    5.9059    0.0557    0.0000 H   0  0  0  0  0  0  0  0  0  0  0  0
    5.8464    0.8505    0.0000 H   0  0  0  0  0  0  0  0  0  0  0  0
    4.3358    1.6058    0.0000 H   0  0  0  0  0  0  0  0  0  0  0  0
    4.3954    0.8110    0.0000 H   0  0  0  0  0  0  0  0  0  0  0  0
    6.0010   -5.5912    0.0000 H   0  0  0  0  0  0  0  0  0  0  0  0
    3.1951   -7.2112    0.0000 H   0  0  0  0  0  0  0  0  0  0  0  0
    6.0010   -7.2112    0.0000 H   0  0  0  0  0  0  0  0  0  0  0  0
    5.8914    2.1912    0.0000 H   0  0  0  0  0  0  0  0  0  0  0  0
    4.5981   -8.0212    0.0000 H   0  0  0  0  0  0  0  0  0  0  0  0
    1.6900   -5.3642    0.0000 H   0  0  0  0  0  0  0  0  0  0  0  0
    1.4631   -6.2112    0.0000 H   0  0  0  0  0  0  0  0  0  0  0  0
    2.3100   -6.4381    0.0000 H   0  0  0  0  0  0  0  0  0  0  0  0
    3.9621    4.6520    0.0000 H   0  0  0  0  0  0  0  0  0  0  0  0
    6.4901    3.4345    0.0000 H   0  0  0  0  0  0  0  0  0  0  0  0
    4.6650    6.1115    0.0000 H   0  0  0  0  0  0  0  0  0  0  0  0
    7.1930    4.8941    0.0000 H   0  0  0  0  0  0  0  0  0  0  0  0
    7.0636    6.6213    0.0000 H   0  0  0  0  0  0  0  0  0  0  0  0
    6.1510    7.9598    0.0000 H   0  0  0  0  0  0  0  0  0  0  0  0
    5.2637    7.3549    0.0000 H   0  0  0  0  0  0  0  0  0  0  0  0
  1 16  1  0  0  0  0
  1 22  1  0  0  0  0
  2 21  2  0  0  0  0
  3  6  1  0  0  0  0
  3  7  1  0  0  0  0
  3 11  1  0  0  0  0
  4  9  1  0  0  0  0
  4 10  1  0  0  0  0
  4 13  1  0  0  0  0
  5 15  1  0  0  0  0
  5 21  1  0  0  0  0
  5 52  1  0  0  0  0
  6  8  1  0  0  0  0
  6 31  1  0  0  0  0
  6 32  1  0  0  0  0
  7  9  1  0  0  0  0
  7 33  1  0  0  0  0
  7 34  1  0  0  0  0
  8 10  1  0  0  0  0
  8 35  1  0  0  0  0
  8 36  1  0  0  0  0
  9 37  1  0  0  0  0
  9 38  1  0  0  0  0
 10 39  1  0  0  0  0
 10 40  1  0  0  0  0
 11 12  1  0  0  0  0
 11 41  1  0  0  0  0
 11 42  1  0  0  0  0
 12 14  1  0  0  0  0
 12 43  1  0  0  0  0
 12 44  1  0  0  0  0
 13 16  1  0  0  0  0
 13 17  2  0  0  0  0
 14 15  1  0  0  0  0
 14 45  1  0  0  0  0
 14 46  1  0  0  0  0
 15 47  1  0  0  0  0
 15 48  1  0  0  0  0
 16 18  2  0  0  0  0
 17 19  1  0  0  0  0
 17 49  1  0  0  0  0
 18 20  1  0  0  0  0
 18 50  1  0  0  0  0
 19 20  2  0  0  0  0
 19 51  1  0  0  0  0
 20 53  1  0  0  0  0
 21 23  1  0  0  0  0
 22 54  1  0  0  0  0
 22 55  1  0  0  0  0
 22 56  1  0  0  0  0
 23 24  2  0  0  0  0
 23 25  1  0  0  0  0
 24 26  1  0  0  0  0
 24 57  1  0  0  0  0
 25 27  2  0  0  0  0
 25 58  1  0  0  0  0
 26 28  2  0  0  0  0
 26 59  1  0  0  0  0
 27 28  1  0  0  0  0
 27 60  1  0  0  0  0
 28 29  1  0  0  0  0
 29 30  2  0  0  0  0
 29 61  1  0  0  0  0
 30 62  1  0  0  0  0
 30 63  1  0  0  0  0
M  END
> <PUBCHEM_COMPOUND_CID>
71657946

> <PUBCHEM_COMPOUND_CANONICALIZED>
1

> <PUBCHEM_CACTVS_COMPLEXITY>
519

> <PUBCHEM_CACTVS_HBOND_ACCEPTOR>
4

> <PUBCHEM_CACTVS_HBOND_DONOR>
1

> <PUBCHEM_CACTVS_ROTATABLE_BOND>
9

> <PUBCHEM_CACTVS_SUBSKEYS>
AAADcfB7MAAAAAAAAAAAAAAAAAAAAAAAAAAwYAAABYAAAAABQAAAHgAQAAAADAzBmAYyxoPABACIAiVSUACCCAAlIgAIiIEPbMgOZjLE9ZuVMShk1hHY6YeYyACOQAAAAAAAEACAAAAAAAAgAAAAAAAAAA==

> <PUBCHEM_IUPAC_OPENEYE_NAME>
N-[4-[4-(2-methoxyphenyl)-1,4-diazepan-1-yl]butyl]-4-vinyl-benzamide

> <PUBCHEM_IUPAC_CAS_NAME>
4-ethenyl-N-[4-[4-(2-methoxyphenyl)-1,4-diazepan-1-yl]butyl]benzamide

> <PUBCHEM_IUPAC_NAME_MARKUP>
4-ethenyl-<I>N</I>-[4-[4-(2-methoxyphenyl)-1,4-diazepan-1-yl]butyl]benzamide

> <PUBCHEM_IUPAC_NAME>
4-ethenyl-N-[4-[4-(2-methoxyphenyl)-1,4-diazepan-1-yl]butyl]benzamide

> <PUBCHEM_IUPAC_SYSTEMATIC_NAME>
4-ethenyl-N-[4-[4-(2-methoxyphenyl)-1,4-diazepan-1-yl]butyl]benzamide

> <PUBCHEM_IUPAC_TRADITIONAL_NAME>
N-[4-[4-(2-methoxyphenyl)-1,4-diazepan-1-yl]butyl]-4-vinyl-benzamide

> <PUBCHEM_IUPAC_INCHI>
InChI=1S/C25H33N3O2/c1-3-21-11-13-22(14-12-21)25(29)26-15-6-7-16-27-17-8-18-28(20-19-27)23-9-4-5-10-24(23)30-2/h3-5,9-14H,1,6-8,15-20H2,2H3,(H,26,29)

> <PUBCHEM_IUPAC_INCHIKEY>
FXMDNGYJSZHADA-UHFFFAOYSA-N

> <PUBCHEM_XLOGP3_AA>
4.6

> <PUBCHEM_EXACT_MASS>
407.25727730

> <PUBCHEM_MOLECULAR_FORMULA>
C25H33N3O2

> <PUBCHEM_MOLECULAR_WEIGHT>
407.5

> <PUBCHEM_OPENEYE_CAN_SMILES>
COC1=CC=CC=C1N2CCCN(CC2)CCCCNC(=O)C3=CC=C(C=C3)C=C

> <PUBCHEM_OPENEYE_ISO_SMILES>
COC1=CC=CC=C1N2CCCN(CC2)CCCCNC(=O)C3=CC=C(C=C3)C=C

> <PUBCHEM_CACTVS_TPSA>
44.8

> <PUBCHEM_MONOISOTOPIC_WEIGHT>
407.25727730

> <PUBCHEM_TOTAL_CHARGE>
0

> <PUBCHEM_HEAVY_ATOM_COUNT>
30

> <PUBCHEM_ATOM_DEF_STEREO_COUNT>
0

> <PUBCHEM_ATOM_UDEF_STEREO_COUNT>
0

> <PUBCHEM_BOND_DEF_STEREO_COUNT>
0

> <PUBCHEM_BOND_UDEF_STEREO_COUNT>
0

> <PUBCHEM_ISOTOPIC_ATOM_COUNT>
0

> <PUBCHEM_COMPONENT_COUNT>
1

> <PUBCHEM_CACTVS_TAUTO_COUNT>
-1

> <PUBCHEM_COORDINATE_TYPE>
1
5
255

> <PUBCHEM_BONDANNOTATIONS>
13  16  8
13  17  8
16  18  8
17  19  8
18  20  8
19  20  8
23  24  8
23  25  8
24  26  8
25  27  8
26  28  8
27  28  8

$$$$
