44340227
  -OEChem-09292322192D

 51 54  0     1  0  0  0  0  0999 V2000
    9.9371    3.1193    0.0000 I   0  0  0  0  0  0  0  0  0  0  0  0
    8.2050   -0.8807    0.0000 O   0  0  0  0  0  0  0  0  0  0  0  0
    9.9371   -0.8807    0.0000 O   0  0  0  0  0  0  0  0  0  0  0  0
    5.3903   -1.0831    0.0000 N   0  0  3  0  0  0  0  0  0  0  0  0
    7.3390    0.6193    0.0000 N   0  0  0  0  0  0  0  0  0  0  0  0
    6.4730    0.1193    0.0000 C   0  0  2  0  0  0  0  0  0  0  0  0
    5.5594    0.5260    0.0000 C   0  0  0  0  0  0  0  0  0  0  0  0
    6.3684   -0.8752    0.0000 C   0  0  0  0  0  0  0  0  0  0  0  0
    4.8903   -0.2171    0.0000 C   0  0  0  0  0  0  0  0  0  0  0  0
    4.9836   -1.9967    0.0000 C   0  0  0  0  0  0  0  0  0  0  0  0
    3.9890   -2.1012    0.0000 C   0  0  0  0  0  0  0  0  0  0  0  0
    8.2050    0.1193    0.0000 C   0  0  0  0  0  0  0  0  0  0  0  0
    9.0710    0.6193    0.0000 C   0  0  0  0  0  0  0  0  0  0  0  0
    3.4013   -1.2922    0.0000 C   0  0  0  0  0  0  0  0  0  0  0  0
    3.5823   -3.0148    0.0000 C   0  0  0  0  0  0  0  0  0  0  0  0
    9.9371    0.1193    0.0000 C   0  0  0  0  0  0  0  0  0  0  0  0
    9.0710    1.6193    0.0000 C   0  0  0  0  0  0  0  0  0  0  0  0
   10.8031    0.6193    0.0000 C   0  0  0  0  0  0  0  0  0  0  0  0
    2.4067   -1.3967    0.0000 C   0  0  0  0  0  0  0  0  0  0  0  0
    2.5878   -3.1193    0.0000 C   0  0  0  0  0  0  0  0  0  0  0  0
   10.8031    1.6193    0.0000 C   0  0  0  0  0  0  0  0  0  0  0  0
    9.9371    2.1193    0.0000 C   0  0  0  0  0  0  0  0  0  0  0  0
    2.0000   -2.3103    0.0000 C   0  0  0  0  0  0  0  0  0  0  0  0
   11.6970    0.0846    0.0000 C   0  0  0  0  0  0  0  0  0  0  0  0
   11.6970    2.1540    0.0000 C   0  0  0  0  0  0  0  0  0  0  0  0
   12.6031    0.5985    0.0000 C   0  0  0  0  0  0  0  0  0  0  0  0
   12.6031    1.6401    0.0000 C   0  0  0  0  0  0  0  0  0  0  0  0
   10.8031   -1.3807    0.0000 C   0  0  0  0  0  0  0  0  0  0  0  0
    6.9930   -0.2184    0.0000 H   0  0  0  0  0  0  0  0  0  0  0  0
    5.8694    1.0630    0.0000 H   0  0  0  0  0  0  0  0  0  0  0  0
    5.0578    0.8905    0.0000 H   0  0  0  0  0  0  0  0  0  0  0  0
    6.4333   -1.4918    0.0000 H   0  0  0  0  0  0  0  0  0  0  0  0
    6.9884   -0.8752    0.0000 H   0  0  0  0  0  0  0  0  0  0  0  0
    4.4754    0.2436    0.0000 H   0  0  0  0  0  0  0  0  0  0  0  0
    4.3887   -0.5815    0.0000 H   0  0  0  0  0  0  0  0  0  0  0  0
    4.9403   -2.6152    0.0000 H   0  0  0  0  0  0  0  0  0  0  0  0
    5.5851   -2.1467    0.0000 H   0  0  0  0  0  0  0  0  0  0  0  0
    7.3390    1.2393    0.0000 H   0  0  0  0  0  0  0  0  0  0  0  0
    3.6534   -0.7258    0.0000 H   0  0  0  0  0  0  0  0  0  0  0  0
    3.9467   -3.5164    0.0000 H   0  0  0  0  0  0  0  0  0  0  0  0
    8.5341    1.9293    0.0000 H   0  0  0  0  0  0  0  0  0  0  0  0
    2.0423   -0.8951    0.0000 H   0  0  0  0  0  0  0  0  0  0  0  0
    2.3356   -3.6857    0.0000 H   0  0  0  0  0  0  0  0  0  0  0  0
    1.3834   -2.3751    0.0000 H   0  0  0  0  0  0  0  0  0  0  0  0
   11.6899   -0.5353    0.0000 H   0  0  0  0  0  0  0  0  0  0  0  0
   11.6899    2.7739    0.0000 H   0  0  0  0  0  0  0  0  0  0  0  0
   13.1389    0.2864    0.0000 H   0  0  0  0  0  0  0  0  0  0  0  0
   13.1389    1.9522    0.0000 H   0  0  0  0  0  0  0  0  0  0  0  0
   10.4931   -1.9176    0.0000 H   0  0  0  0  0  0  0  0  0  0  0  0
   11.3400   -1.6907    0.0000 H   0  0  0  0  0  0  0  0  0  0  0  0
   11.1131   -0.8438    0.0000 H   0  0  0  0  0  0  0  0  0  0  0  0
  1 22  1  0  0  0  0
  2 12  2  0  0  0  0
  3 16  1  0  0  0  0
  3 28  1  0  0  0  0
  4  8  1  0  0  0  0
  4  9  1  0  0  0  0
  4 10  1  0  0  0  0
  6  5  1  1  0  0  0
  5 12  1  0  0  0  0
  5 38  1  0  0  0  0
  6  7  1  0  0  0  0
  6  8  1  0  0  0  0
  6 29  1  0  0  0  0
  7  9  1  0  0  0  0
  7 30  1  0  0  0  0
  7 31  1  0  0  0  0
  8 32  1  0  0  0  0
  8 33  1  0  0  0  0
  9 34  1  0  0  0  0
  9 35  1  0  0  0  0
 10 11  1  0  0  0  0
 10 36  1  0  0  0  0
 10 37  1  0  0  0  0
 11 14  2  0  0  0  0
 11 15  1  0  0  0  0
 12 13  1  0  0  0  0
 13 16  2  0  0  0  0
 13 17  1  0  0  0  0
 14 19  1  0  0  0  0
 14 39  1  0  0  0  0
 15 20  2  0  0  0  0
 15 40  1  0  0  0  0
 16 18  1  0  0  0  0
 17 22  2  0  0  0  0
 17 41  1  0  0  0  0
 18 21  1  0  0  0  0
 18 24  2  0  0  0  0
 19 23  2  0  0  0  0
 19 42  1  0  0  0  0
 20 23  1  0  0  0  0
 20 43  1  0  0  0  0
 21 22  1  0  0  0  0
 21 25  2  0  0  0  0
 23 44  1  0  0  0  0
 24 26  1  0  0  0  0
 24 45  1  0  0  0  0
 25 27  1  0  0  0  0
 25 46  1  0  0  0  0
 26 27  2  0  0  0  0
 26 47  1  0  0  0  0
 27 48  1  0  0  0  0
 28 49  1  0  0  0  0
 28 50  1  0  0  0  0
 28 51  1  0  0  0  0
M  END
> <PUBCHEM_COMPOUND_CID>
44340227

> <PUBCHEM_COMPOUND_CANONICALIZED>
1

> <PUBCHEM_CACTVS_COMPLEXITY>
525

> <PUBCHEM_CACTVS_HBOND_ACCEPTOR>
3

> <PUBCHEM_CACTVS_HBOND_DONOR>
1

> <PUBCHEM_CACTVS_ROTATABLE_BOND>
5

> <PUBCHEM_CACTVS_SUBSKEYS>
AAADceB7MAAAAgAAAAAAAAAAAAAAAWAAAAAwYMAAAAAAAADBVAAAHgAwAAAADCzDmAYyBsPABACIAiFSEACCCAAkIAAIiIEMDMgMZjaE9RuUMWhm9hGIqYeYyPCOwAADAAAYAACAAAYAADAAAAAAAAAAAA==

> <PUBCHEM_IUPAC_OPENEYE_NAME>
N-[(3R)-1-benzylpyrrolidin-3-yl]-4-iodo-1-methoxy-naphthalene-2-carboxamide

> <PUBCHEM_IUPAC_CAS_NAME>
4-iodo-1-methoxy-N-[(3R)-1-(phenylmethyl)-3-pyrrolidinyl]-2-naphthalenecarboxamide

> <PUBCHEM_IUPAC_NAME_MARKUP>
<I>N</I>-[(3<I>R</I>)-1-benzylpyrrolidin-3-yl]-4-iodo-1-methoxynaphthalene-2-carboxamide

> <PUBCHEM_IUPAC_NAME>
N-[(3R)-1-benzylpyrrolidin-3-yl]-4-iodo-1-methoxynaphthalene-2-carboxamide

> <PUBCHEM_IUPAC_SYSTEMATIC_NAME>
4-iodanyl-1-methoxy-N-[(3R)-1-(phenylmethyl)pyrrolidin-3-yl]naphthalene-2-carboxamide

> <PUBCHEM_IUPAC_TRADITIONAL_NAME>
N-[(3R)-1-benzylpyrrolidin-3-yl]-4-iodo-1-methoxy-2-naphthamide

> <PUBCHEM_IUPAC_INCHI>
InChI=1S/C23H23IN2O2/c1-28-22-19-10-6-5-9-18(19)21(24)13-20(22)23(27)25-17-11-12-26(15-17)14-16-7-3-2-4-8-16/h2-10,13,17H,11-12,14-15H2,1H3,(H,25,27)/t17-/m1/s1

> <PUBCHEM_IUPAC_INCHIKEY>
MNUMQOWSJLDQOS-QGZVFWFLSA-N

> <PUBCHEM_XLOGP3_AA>
4.8

> <PUBCHEM_EXACT_MASS>
486.08043

> <PUBCHEM_MOLECULAR_FORMULA>
C23H23IN2O2

> <PUBCHEM_MOLECULAR_WEIGHT>
486.3

> <PUBCHEM_OPENEYE_CAN_SMILES>
COC1=C(C=C(C2=CC=CC=C21)I)C(=O)NC3CCN(C3)CC4=CC=CC=C4

> <PUBCHEM_OPENEYE_ISO_SMILES>
COC1=C(C=C(C2=CC=CC=C21)I)C(=O)N[C@@H]3CCN(C3)CC4=CC=CC=C4

> <PUBCHEM_CACTVS_TPSA>
41.6

> <PUBCHEM_MONOISOTOPIC_WEIGHT>
486.08043

> <PUBCHEM_TOTAL_CHARGE>
0

> <PUBCHEM_HEAVY_ATOM_COUNT>
28

> <PUBCHEM_ATOM_DEF_STEREO_COUNT>
1

> <PUBCHEM_ATOM_UDEF_STEREO_COUNT>
0

> <PUBCHEM_BOND_DEF_STEREO_COUNT>
0

> <PUBCHEM_BOND_UDEF_STEREO_COUNT>
0

> <PUBCHEM_ISOTOPIC_ATOM_COUNT>
0

> <PUBCHEM_COMPONENT_COUNT>
1

> <PUBCHEM_CACTVS_TAUTO_COUNT>
-1

> <PUBCHEM_COORDINATE_TYPE>
1
5
255

> <PUBCHEM_BONDANNOTATIONS>
11  14  8
11  15  8
13  16  8
13  17  8
14  19  8
15  20  8
16  18  8
17  22  8
18  21  8
18  24  8
19  23  8
20  23  8
21  22  8
21  25  8
24  26  8
25  27  8
26  27  8
6  5  5

$$$$
