10380133
  -OEChem-09292322042D

 36 38  0     0  0  0  0  0  0999 V2000
    4.9889    1.1386    0.0000 S   0  0  0  0  0  0  0  0  0  0  0  0
    5.9394    0.8279    0.0000 O   0  0  0  0  0  0  0  0  0  0  0  0
    4.0384    1.4492    0.0000 O   0  0  0  0  0  0  0  0  0  0  0  0
    4.6783   -1.4214    0.0000 N   0  0  0  0  0  0  0  0  0  0  0  0
    2.8660   -1.6167    0.0000 N   0  0  0  0  0  0  0  0  0  0  0  0
    6.2781   -3.5287    0.0000 N   0  0  0  0  0  0  0  0  0  0  0  0
    4.6783    0.1881    0.0000 C   0  0  0  0  0  0  0  0  0  0  0  0
    3.7320   -0.1167    0.0000 C   0  0  0  0  0  0  0  0  0  0  0  0
    3.7320   -1.1167    0.0000 C   0  0  0  0  0  0  0  0  0  0  0  0
    5.2619   -0.6167    0.0000 C   0  0  0  0  0  0  0  0  0  0  0  0
    4.9889   -2.3719    0.0000 C   0  0  0  0  0  0  0  0  0  0  0  0
    5.2996    2.0891    0.0000 C   0  0  0  0  0  0  0  0  0  0  0  0
    2.8660    0.3833    0.0000 C   0  0  0  0  0  0  0  0  0  0  0  0
    5.9674   -2.5782    0.0000 C   0  0  0  0  0  0  0  0  0  0  0  0
    2.0000   -0.1167    0.0000 C   0  0  0  0  0  0  0  0  0  0  0  0
    2.0000   -1.1167    0.0000 C   0  0  0  0  0  0  0  0  0  0  0  0
    4.6318    2.8334    0.0000 C   0  0  0  0  0  0  0  0  0  0  0  0
    6.2781    2.2953    0.0000 C   0  0  0  0  0  0  0  0  0  0  0  0
    4.9424    3.7839    0.0000 C   0  0  0  0  0  0  0  0  0  0  0  0
    6.5888    3.2458    0.0000 C   0  0  0  0  0  0  0  0  0  0  0  0
    5.9209    3.9901    0.0000 C   0  0  0  0  0  0  0  0  0  0  0  0
    5.8819   -0.6167    0.0000 H   0  0  0  0  0  0  0  0  0  0  0  0
    4.3751   -2.4593    0.0000 H   0  0  0  0  0  0  0  0  0  0  0  0
    4.9684   -2.9916    0.0000 H   0  0  0  0  0  0  0  0  0  0  0  0
    2.8660    1.0033    0.0000 H   0  0  0  0  0  0  0  0  0  0  0  0
    6.5812   -2.4908    0.0000 H   0  0  0  0  0  0  0  0  0  0  0  0
    5.9880   -1.9585    0.0000 H   0  0  0  0  0  0  0  0  0  0  0  0
    1.4631    0.1933    0.0000 H   0  0  0  0  0  0  0  0  0  0  0  0
    4.0251    2.7055    0.0000 H   0  0  0  0  0  0  0  0  0  0  0  0
    6.6922    1.8338    0.0000 H   0  0  0  0  0  0  0  0  0  0  0  0
    1.4631   -1.4267    0.0000 H   0  0  0  0  0  0  0  0  0  0  0  0
    6.8848   -3.6565    0.0000 H   0  0  0  0  0  0  0  0  0  0  0  0
    5.8640   -3.9901    0.0000 H   0  0  0  0  0  0  0  0  0  0  0  0
    4.5284    4.2454    0.0000 H   0  0  0  0  0  0  0  0  0  0  0  0
    7.1954    3.3737    0.0000 H   0  0  0  0  0  0  0  0  0  0  0  0
    6.1135    4.5795    0.0000 H   0  0  0  0  0  0  0  0  0  0  0  0
  1  2  2  0  0  0  0
  1  3  2  0  0  0  0
  1  7  1  0  0  0  0
  1 12  1  0  0  0  0
  4  9  1  0  0  0  0
  4 10  1  0  0  0  0
  4 11  1  0  0  0  0
  5  9  1  0  0  0  0
  5 16  2  0  0  0  0
  6 14  1  0  0  0  0
  6 32  1  0  0  0  0
  6 33  1  0  0  0  0
  7  8  1  0  0  0  0
  7 10  2  0  0  0  0
  8  9  2  0  0  0  0
  8 13  1  0  0  0  0
 10 22  1  0  0  0  0
 11 14  1  0  0  0  0
 11 23  1  0  0  0  0
 11 24  1  0  0  0  0
 12 17  2  0  0  0  0
 12 18  1  0  0  0  0
 13 15  2  0  0  0  0
 13 25  1  0  0  0  0
 14 26  1  0  0  0  0
 14 27  1  0  0  0  0
 15 16  1  0  0  0  0
 15 28  1  0  0  0  0
 16 31  1  0  0  0  0
 17 19  1  0  0  0  0
 17 29  1  0  0  0  0
 18 20  2  0  0  0  0
 18 30  1  0  0  0  0
 19 21  2  0  0  0  0
 19 34  1  0  0  0  0
 20 21  1  0  0  0  0
 20 35  1  0  0  0  0
 21 36  1  0  0  0  0
M  END
> <PUBCHEM_COMPOUND_CID>
10380133

> <PUBCHEM_COMPOUND_CANONICALIZED>
1

> <PUBCHEM_CACTVS_COMPLEXITY>
442

> <PUBCHEM_CACTVS_HBOND_ACCEPTOR>
4

> <PUBCHEM_CACTVS_HBOND_DONOR>
1

> <PUBCHEM_CACTVS_ROTATABLE_BOND>
4

> <PUBCHEM_CACTVS_SUBSKEYS>
AAADccBzMABAAAAAAAAAAAAAAAAAAWAAAAA8QAAAAAAAAFgB/AAAHAQQAAAADADBWwQ9sd9MEAqgAjJnZHDCgCkxCrAJ2Lw4ZJiIaOLgmZGUIAxokALoyCcQAAAOAAAAAAAAAAAAAAAAAAAAAAAAAAAAAA==

> <PUBCHEM_IUPAC_OPENEYE_NAME>
2-[3-(benzenesulfonyl)pyrrolo[2,3-b]pyridin-1-yl]ethanamine

> <PUBCHEM_IUPAC_CAS_NAME>
2-[3-(benzenesulfonyl)-1-pyrrolo[2,3-b]pyridinyl]ethanamine

> <PUBCHEM_IUPAC_NAME_MARKUP>
2-[3-(benzenesulfonyl)pyrrolo[2,3-b]pyridin-1-yl]ethanamine

> <PUBCHEM_IUPAC_NAME>
2-[3-(benzenesulfonyl)pyrrolo[2,3-b]pyridin-1-yl]ethanamine

> <PUBCHEM_IUPAC_SYSTEMATIC_NAME>
2-[3-(phenylsulfonyl)pyrrolo[2,3-b]pyridin-1-yl]ethanamine

> <PUBCHEM_IUPAC_TRADITIONAL_NAME>
2-(3-besylpyrrolo[2,3-b]pyridin-1-yl)ethylamine

> <PUBCHEM_IUPAC_INCHI>
InChI=1S/C15H15N3O2S/c16-8-10-18-11-14(13-7-4-9-17-15(13)18)21(19,20)12-5-2-1-3-6-12/h1-7,9,11H,8,10,16H2

> <PUBCHEM_IUPAC_INCHIKEY>
CJMJDAAXKOQSCO-UHFFFAOYSA-N

> <PUBCHEM_XLOGP3_AA>
1.1

> <PUBCHEM_EXACT_MASS>
301.08849790

> <PUBCHEM_MOLECULAR_FORMULA>
C15H15N3O2S

> <PUBCHEM_MOLECULAR_WEIGHT>
301.4

> <PUBCHEM_OPENEYE_CAN_SMILES>
C1=CC=C(C=C1)S(=O)(=O)C2=CN(C3=C2C=CC=N3)CCN

> <PUBCHEM_OPENEYE_ISO_SMILES>
C1=CC=C(C=C1)S(=O)(=O)C2=CN(C3=C2C=CC=N3)CCN

> <PUBCHEM_CACTVS_TPSA>
86.4

> <PUBCHEM_MONOISOTOPIC_WEIGHT>
301.08849790

> <PUBCHEM_TOTAL_CHARGE>
0

> <PUBCHEM_HEAVY_ATOM_COUNT>
21

> <PUBCHEM_ATOM_DEF_STEREO_COUNT>
0

> <PUBCHEM_ATOM_UDEF_STEREO_COUNT>
0

> <PUBCHEM_BOND_DEF_STEREO_COUNT>
0

> <PUBCHEM_BOND_UDEF_STEREO_COUNT>
0

> <PUBCHEM_ISOTOPIC_ATOM_COUNT>
0

> <PUBCHEM_COMPONENT_COUNT>
1

> <PUBCHEM_CACTVS_TAUTO_COUNT>
-1

> <PUBCHEM_COORDINATE_TYPE>
1
5
255

> <PUBCHEM_BONDANNOTATIONS>
12  17  8
12  18  8
13  15  8
15  16  8
17  19  8
18  20  8
19  21  8
20  21  8
4  10  8
4  9  8
5  16  8
5  9  8
7  10  8
7  8  8
8  13  8
8  9  8

$$$$
