44350919
  -OEChem-09292322112D

 71 73  0     1  0  0  0  0  0999 V2000
    8.4409    9.6200    0.0000 O   0  0  0  0  0  0  0  0  0  0  0  0
   13.6371    2.6200    0.0000 O   0  0  0  0  0  0  0  0  0  0  0  0
    3.1350    7.0530    0.0000 O   0  0  0  0  0  0  0  0  0  0  0  0
    0.5369    7.5530    0.0000 O   0  0  0  0  0  0  0  0  0  0  0  0
    2.2690    8.5530    0.0000 O   0  0  0  0  0  0  0  0  0  0  0  0
    1.4030    6.0530    0.0000 O   0  0  0  0  0  0  0  0  0  0  0  0
   10.1730    9.6200    0.0000 N   0  0  0  0  0  0  0  0  0  0  0  0
   11.9050    5.6200    0.0000 N   0  0  0  0  0  0  0  0  0  0  0  0
   11.9050    3.6200    0.0000 N   0  0  0  0  0  0  0  0  0  0  0  0
    8.8070   11.9860    0.0000 C   0  0  3  0  0  0  0  0  0  0  0  0
    9.3070   11.1200    0.0000 C   0  0  3  0  0  0  0  0  0  0  0  0
    9.8070   11.9860    0.0000 C   0  0  0  0  0  0  0  0  0  0  0  0
    7.9409   12.4860    0.0000 C   0  0  0  0  0  0  0  0  0  0  0  0
    9.3070   10.1200    0.0000 C   0  0  0  0  0  0  0  0  0  0  0  0
    7.0749   11.9860    0.0000 C   0  0  0  0  0  0  0  0  0  0  0  0
    7.9409   13.4860    0.0000 C   0  0  0  0  0  0  0  0  0  0  0  0
   10.1730    8.6200    0.0000 C   0  0  0  0  0  0  0  0  0  0  0  0
   11.0390    8.1200    0.0000 C   0  0  0  0  0  0  0  0  0  0  0  0
   11.0390    7.1200    0.0000 C   0  0  0  0  0  0  0  0  0  0  0  0
   11.9050    6.6200    0.0000 C   0  0  0  0  0  0  0  0  0  0  0  0
    6.2089   12.4860    0.0000 C   0  0  0  0  0  0  0  0  0  0  0  0
    7.0749   13.9860    0.0000 C   0  0  0  0  0  0  0  0  0  0  0  0
   12.7711    5.1200    0.0000 C   0  0  0  0  0  0  0  0  0  0  0  0
   11.0390    5.1200    0.0000 C   0  0  0  0  0  0  0  0  0  0  0  0
   12.7711    4.1200    0.0000 C   0  0  0  0  0  0  0  0  0  0  0  0
   11.0390    4.1200    0.0000 C   0  0  0  0  0  0  0  0  0  0  0  0
    6.2089   13.4860    0.0000 C   0  0  0  0  0  0  0  0  0  0  0  0
   11.9050    2.6200    0.0000 C   0  0  0  0  0  0  0  0  0  0  0  0
   12.7711    2.1200    0.0000 C   0  0  0  0  0  0  0  0  0  0  0  0
   11.0390    2.1200    0.0000 C   0  0  0  0  0  0  0  0  0  0  0  0
   12.7711    1.1200    0.0000 C   0  0  0  0  0  0  0  0  0  0  0  0
   11.0390    1.1200    0.0000 C   0  0  0  0  0  0  0  0  0  0  0  0
   11.9050    0.6200    0.0000 C   0  0  0  0  0  0  0  0  0  0  0  0
   14.5031    2.1200    0.0000 C   0  0  0  0  0  0  0  0  0  0  0  0
    2.2690    7.5530    0.0000 C   0  0  0  0  0  0  0  0  0  0  0  0
    1.4030    7.0530    0.0000 C   0  0  0  0  0  0  0  0  0  0  0  0
    8.3686   11.5476    0.0000 H   0  0  0  0  0  0  0  0  0  0  0  0
    9.9058   10.9595    0.0000 H   0  0  0  0  0  0  0  0  0  0  0  0
   10.3896   11.7740    0.0000 H   0  0  0  0  0  0  0  0  0  0  0  0
    9.9146   12.5966    0.0000 H   0  0  0  0  0  0  0  0  0  0  0  0
   10.7099    9.9300    0.0000 H   0  0  0  0  0  0  0  0  0  0  0  0
    7.0749   11.3660    0.0000 H   0  0  0  0  0  0  0  0  0  0  0  0
    8.4779   13.7960    0.0000 H   0  0  0  0  0  0  0  0  0  0  0  0
    9.5624    8.7277    0.0000 H   0  0  0  0  0  0  0  0  0  0  0  0
    9.9609    8.0374    0.0000 H   0  0  0  0  0  0  0  0  0  0  0  0
   11.6496    8.0123    0.0000 H   0  0  0  0  0  0  0  0  0  0  0  0
   11.2511    8.7026    0.0000 H   0  0  0  0  0  0  0  0  0  0  0  0
   10.4284    7.2277    0.0000 H   0  0  0  0  0  0  0  0  0  0  0  0
   10.8270    6.5374    0.0000 H   0  0  0  0  0  0  0  0  0  0  0  0
   12.5156    6.5123    0.0000 H   0  0  0  0  0  0  0  0  0  0  0  0
   12.1171    7.2026    0.0000 H   0  0  0  0  0  0  0  0  0  0  0  0
    5.6720   12.1760    0.0000 H   0  0  0  0  0  0  0  0  0  0  0  0
    7.0749   14.6060    0.0000 H   0  0  0  0  0  0  0  0  0  0  0  0
   13.3816    5.0123    0.0000 H   0  0  0  0  0  0  0  0  0  0  0  0
   12.9831    5.7026    0.0000 H   0  0  0  0  0  0  0  0  0  0  0  0
   10.8270    5.7026    0.0000 H   0  0  0  0  0  0  0  0  0  0  0  0
   10.4284    5.0123    0.0000 H   0  0  0  0  0  0  0  0  0  0  0  0
   12.9831    3.5374    0.0000 H   0  0  0  0  0  0  0  0  0  0  0  0
   13.3816    4.2277    0.0000 H   0  0  0  0  0  0  0  0  0  0  0  0
   10.4284    4.2277    0.0000 H   0  0  0  0  0  0  0  0  0  0  0  0
   10.8270    3.5374    0.0000 H   0  0  0  0  0  0  0  0  0  0  0  0
    5.6720   13.7960    0.0000 H   0  0  0  0  0  0  0  0  0  0  0  0
   10.5021    2.4300    0.0000 H   0  0  0  0  0  0  0  0  0  0  0  0
   13.3080    0.8100    0.0000 H   0  0  0  0  0  0  0  0  0  0  0  0
   10.5021    0.8100    0.0000 H   0  0  0  0  0  0  0  0  0  0  0  0
   11.9050    0.0000    0.0000 H   0  0  0  0  0  0  0  0  0  0  0  0
   14.1931    1.5831    0.0000 H   0  0  0  0  0  0  0  0  0  0  0  0
   15.0400    1.8100    0.0000 H   0  0  0  0  0  0  0  0  0  0  0  0
   14.8131    2.6569    0.0000 H   0  0  0  0  0  0  0  0  0  0  0  0
    3.6720    7.3630    0.0000 H   0  0  0  0  0  0  0  0  0  0  0  0
    0.0000    7.2430    0.0000 H   0  0  0  0  0  0  0  0  0  0  0  0
  1 14  2  0  0  0  0
  2 29  1  0  0  0  0
  2 34  1  0  0  0  0
  3 35  1  0  0  0  0
  3 70  1  0  0  0  0
  4 36  1  0  0  0  0
  4 71  1  0  0  0  0
  5 35  2  0  0  0  0
  6 36  2  0  0  0  0
  7 14  1  0  0  0  0
  7 17  1  0  0  0  0
  7 41  1  0  0  0  0
  8 20  1  0  0  0  0
  8 23  1  0  0  0  0
  8 24  1  0  0  0  0
  9 25  1  0  0  0  0
  9 26  1  0  0  0  0
  9 28  1  0  0  0  0
 10 11  1  0  0  0  0
 10 12  1  0  0  0  0
 10 13  1  0  0  0  0
 10 37  1  0  0  0  0
 11 12  1  0  0  0  0
 11 14  1  0  0  0  0
 11 38  1  0  0  0  0
 12 39  1  0  0  0  0
 12 40  1  0  0  0  0
 13 15  2  0  0  0  0
 13 16  1  0  0  0  0
 15 21  1  0  0  0  0
 15 42  1  0  0  0  0
 16 22  2  0  0  0  0
 16 43  1  0  0  0  0
 17 18  1  0  0  0  0
 17 44  1  0  0  0  0
 17 45  1  0  0  0  0
 18 19  1  0  0  0  0
 18 46  1  0  0  0  0
 18 47  1  0  0  0  0
 19 20  1  0  0  0  0
 19 48  1  0  0  0  0
 19 49  1  0  0  0  0
 20 50  1  0  0  0  0
 20 51  1  0  0  0  0
 21 27  2  0  0  0  0
 21 52  1  0  0  0  0
 22 27  1  0  0  0  0
 22 53  1  0  0  0  0
 23 25  1  0  0  0  0
 23 54  1  0  0  0  0
 23 55  1  0  0  0  0
 24 26  1  0  0  0  0
 24 56  1  0  0  0  0
 24 57  1  0  0  0  0
 25 58  1  0  0  0  0
 25 59  1  0  0  0  0
 26 60  1  0  0  0  0
 26 61  1  0  0  0  0
 27 62  1  0  0  0  0
 28 29  1  0  0  0  0
 28 30  2  0  0  0  0
 29 31  2  0  0  0  0
 30 32  1  0  0  0  0
 30 63  1  0  0  0  0
 31 33  1  0  0  0  0
 31 64  1  0  0  0  0
 32 33  2  0  0  0  0
 32 65  1  0  0  0  0
 33 66  1  0  0  0  0
 34 67  1  0  0  0  0
 34 68  1  0  0  0  0
 34 69  1  0  0  0  0
 35 36  1  0  0  0  0
M  END
> <PUBCHEM_COMPOUND_CID>
44350919

> <PUBCHEM_COMPOUND_CANONICALIZED>
1

> <PUBCHEM_CACTVS_COMPLEXITY>
600

> <PUBCHEM_CACTVS_HBOND_ACCEPTOR>
8

> <PUBCHEM_CACTVS_HBOND_DONOR>
3

> <PUBCHEM_CACTVS_ROTATABLE_BOND>
10

> <PUBCHEM_CACTVS_SUBSKEYS>
AAADcfB7OAAAAAAAAAAAAAAAGAAAAAAAAAA8YIAAAAAAAAABQAAAHgAQCAAADQzBmAYyzoPABgCIAiXSWAKCCAAhIgAIiIFPbIgPZjLEsZuVMChk1hHZ6AeYyMCOgAAAAAAAEAAAAAAAAAAgAAAAAAAAAA==

> <PUBCHEM_IUPAC_OPENEYE_NAME>
N-[4-[4-(2-methoxyphenyl)piperazin-1-yl]butyl]-2-phenyl-cyclopropanecarboxamide;oxalic acid

> <PUBCHEM_IUPAC_CAS_NAME>
N-[4-[4-(2-methoxyphenyl)-1-piperazinyl]butyl]-2-phenyl-1-cyclopropanecarboxamide;oxalic acid

> <PUBCHEM_IUPAC_NAME_MARKUP>
<I>N</I>-[4-[4-(2-methoxyphenyl)piperazin-1-yl]butyl]-2-phenylcyclopropane-1-carboxamide;oxalic acid

> <PUBCHEM_IUPAC_NAME>
N-[4-[4-(2-methoxyphenyl)piperazin-1-yl]butyl]-2-phenylcyclopropane-1-carboxamide;oxalic acid

> <PUBCHEM_IUPAC_SYSTEMATIC_NAME>
ethanedioic acid;N-[4-[4-(2-methoxyphenyl)piperazin-1-yl]butyl]-2-phenyl-cyclopropane-1-carboxamide

> <PUBCHEM_IUPAC_TRADITIONAL_NAME>
N-[4-[4-(2-methoxyphenyl)piperazino]butyl]-2-phenyl-cyclopropanecarboxamide;oxalic acid

> <PUBCHEM_IUPAC_INCHI>
InChI=1S/C25H33N3O2.C2H2O4/c1-30-24-12-6-5-11-23(24)28-17-15-27(16-18-28)14-8-7-13-26-25(29)22-19-21(22)20-9-3-2-4-10-20;3-1(4)2(5)6/h2-6,9-12,21-22H,7-8,13-19H2,1H3,(H,26,29);(H,3,4)(H,5,6)

> <PUBCHEM_IUPAC_INCHIKEY>
JQGQNHSLCANFGS-UHFFFAOYSA-N

> <PUBCHEM_EXACT_MASS>
497.25258584

> <PUBCHEM_MOLECULAR_FORMULA>
C27H35N3O6

> <PUBCHEM_MOLECULAR_WEIGHT>
497.6

> <PUBCHEM_OPENEYE_CAN_SMILES>
COC1=CC=CC=C1N2CCN(CC2)CCCCNC(=O)C3CC3C4=CC=CC=C4.C(=O)(C(=O)O)O

> <PUBCHEM_OPENEYE_ISO_SMILES>
COC1=CC=CC=C1N2CCN(CC2)CCCCNC(=O)C3CC3C4=CC=CC=C4.C(=O)(C(=O)O)O

> <PUBCHEM_CACTVS_TPSA>
119

> <PUBCHEM_MONOISOTOPIC_WEIGHT>
497.25258584

> <PUBCHEM_TOTAL_CHARGE>
0

> <PUBCHEM_HEAVY_ATOM_COUNT>
36

> <PUBCHEM_ATOM_DEF_STEREO_COUNT>
0

> <PUBCHEM_ATOM_UDEF_STEREO_COUNT>
2

> <PUBCHEM_BOND_DEF_STEREO_COUNT>
0

> <PUBCHEM_BOND_UDEF_STEREO_COUNT>
0

> <PUBCHEM_ISOTOPIC_ATOM_COUNT>
0

> <PUBCHEM_COMPONENT_COUNT>
2

> <PUBCHEM_CACTVS_TAUTO_COUNT>
-1

> <PUBCHEM_COORDINATE_TYPE>
1
5
255

> <PUBCHEM_BONDANNOTATIONS>
10  13  3
11  14  3
13  15  8
13  16  8
15  21  8
16  22  8
21  27  8
22  27  8
28  29  8
28  30  8
29  31  8
30  32  8
31  33  8
32  33  8

$$$$
