155522454
  -OEChem-09292322012D

 61 63  0     1  0  0  0  0  0999 V2000
   13.8755   -0.6953    0.0000 S   0  0  0  0  0  0  0  0  0  0  0  0
    4.2690    2.0000    0.0000 O   0  0  0  0  0  0  0  0  0  0  0  0
    2.5369    1.0000    0.0000 O   0  0  0  0  0  0  0  0  0  0  0  0
   10.3312   -0.5000    0.0000 N   0  0  3  0  0  0  0  0  0  0  0  0
   13.8755   -2.3047    0.0000 N   0  0  0  0  0  0  0  0  0  0  0  0
   15.4591   -1.5000    0.0000 N   0  0  0  0  0  0  0  0  0  0  0  0
   11.1972   -1.0000    0.0000 C   0  0  1  0  0  0  0  0  0  0  0  0
   11.1972   -2.0000    0.0000 C   0  0  0  0  0  0  0  0  0  0  0  0
   12.0632   -0.5000    0.0000 C   0  0  0  0  0  0  0  0  0  0  0  0
   12.0632   -2.5000    0.0000 C   0  0  0  0  0  0  0  0  0  0  0  0
    9.4651   -1.0000    0.0000 C   0  0  0  0  0  0  0  0  0  0  0  0
   12.9292   -1.0000    0.0000 C   0  0  0  0  0  0  0  0  0  0  0  0
   10.3312    0.5000    0.0000 C   0  0  0  0  0  0  0  0  0  0  0  0
   12.9292   -2.0000    0.0000 C   0  0  0  0  0  0  0  0  0  0  0  0
    8.5991   -0.5000    0.0000 C   0  0  0  0  0  0  0  0  0  0  0  0
    7.7331   -1.0000    0.0000 C   0  0  0  0  0  0  0  0  0  0  0  0
    9.4651    1.0000    0.0000 C   0  0  0  0  0  0  0  0  0  0  0  0
    6.8671   -0.5000    0.0000 C   0  0  0  0  0  0  0  0  0  0  0  0
   14.4591   -1.5000    0.0000 C   0  0  0  0  0  0  0  0  0  0  0  0
    9.4651    2.0000    0.0000 C   0  0  0  0  0  0  0  0  0  0  0  0
    6.0010   -1.0000    0.0000 C   0  0  0  0  0  0  0  0  0  0  0  0
    5.1350   -0.5000    0.0000 C   0  0  0  0  0  0  0  0  0  0  0  0
    5.1350    0.5000    0.0000 C   0  0  0  0  0  0  0  0  0  0  0  0
    4.2690   -1.0000    0.0000 C   0  0  0  0  0  0  0  0  0  0  0  0
    4.2690    1.0000    0.0000 C   0  0  0  0  0  0  0  0  0  0  0  0
    3.4030   -0.5000    0.0000 C   0  0  0  0  0  0  0  0  0  0  0  0
    3.4030    0.5000    0.0000 C   0  0  0  0  0  0  0  0  0  0  0  0
    3.4030    2.5000    0.0000 C   0  0  0  0  0  0  0  0  0  0  0  0
   10.6603   -1.3100    0.0000 H   0  0  0  0  0  0  0  0  0  0  0  0
   10.5866   -1.8923    0.0000 H   0  0  0  0  0  0  0  0  0  0  0  0
   10.9851   -2.5826    0.0000 H   0  0  0  0  0  0  0  0  0  0  0  0
   12.4617   -0.0251    0.0000 H   0  0  0  0  0  0  0  0  0  0  0  0
   11.6647   -0.0251    0.0000 H   0  0  0  0  0  0  0  0  0  0  0  0
   11.6647   -2.9750    0.0000 H   0  0  0  0  0  0  0  0  0  0  0  0
   12.4617   -2.9750    0.0000 H   0  0  0  0  0  0  0  0  0  0  0  0
    9.0666   -1.4750    0.0000 H   0  0  0  0  0  0  0  0  0  0  0  0
    9.8637   -1.4750    0.0000 H   0  0  0  0  0  0  0  0  0  0  0  0
   10.9417    0.3923    0.0000 H   0  0  0  0  0  0  0  0  0  0  0  0
   10.5432    1.0826    0.0000 H   0  0  0  0  0  0  0  0  0  0  0  0
    8.9976   -0.0251    0.0000 H   0  0  0  0  0  0  0  0  0  0  0  0
    8.2006   -0.0251    0.0000 H   0  0  0  0  0  0  0  0  0  0  0  0
    7.3346   -1.4750    0.0000 H   0  0  0  0  0  0  0  0  0  0  0  0
    8.1316   -1.4750    0.0000 H   0  0  0  0  0  0  0  0  0  0  0  0
    8.8546    1.1077    0.0000 H   0  0  0  0  0  0  0  0  0  0  0  0
    9.2531    0.4174    0.0000 H   0  0  0  0  0  0  0  0  0  0  0  0
    7.2656   -0.0251    0.0000 H   0  0  0  0  0  0  0  0  0  0  0  0
    6.4685   -0.0251    0.0000 H   0  0  0  0  0  0  0  0  0  0  0  0
   10.0851    2.0000    0.0000 H   0  0  0  0  0  0  0  0  0  0  0  0
    9.4651    2.6200    0.0000 H   0  0  0  0  0  0  0  0  0  0  0  0
    8.8451    2.0000    0.0000 H   0  0  0  0  0  0  0  0  0  0  0  0
    5.6025   -1.4750    0.0000 H   0  0  0  0  0  0  0  0  0  0  0  0
    6.3996   -1.4750    0.0000 H   0  0  0  0  0  0  0  0  0  0  0  0
   15.7691   -2.0369    0.0000 H   0  0  0  0  0  0  0  0  0  0  0  0
   15.7691   -0.9631    0.0000 H   0  0  0  0  0  0  0  0  0  0  0  0
    5.6720    0.8100    0.0000 H   0  0  0  0  0  0  0  0  0  0  0  0
    4.2690   -1.6200    0.0000 H   0  0  0  0  0  0  0  0  0  0  0  0
    2.8660   -0.8100    0.0000 H   0  0  0  0  0  0  0  0  0  0  0  0
    2.0000    0.6900    0.0000 H   0  0  0  0  0  0  0  0  0  0  0  0
    3.7130    3.0369    0.0000 H   0  0  0  0  0  0  0  0  0  0  0  0
    2.8660    2.8100    0.0000 H   0  0  0  0  0  0  0  0  0  0  0  0
    3.0930    1.9631    0.0000 H   0  0  0  0  0  0  0  0  0  0  0  0
  1 12  1  0  0  0  0
  1 19  1  0  0  0  0
  2 25  1  0  0  0  0
  2 28  1  0  0  0  0
  3 27  1  0  0  0  0
  3 58  1  0  0  0  0
  7  4  1  6  0  0  0
  4 11  1  0  0  0  0
  4 13  1  0  0  0  0
  5 14  1  0  0  0  0
  5 19  2  0  0  0  0
  6 19  1  0  0  0  0
  6 53  1  0  0  0  0
  6 54  1  0  0  0  0
  7  8  1  0  0  0  0
  7  9  1  0  0  0  0
  7 29  1  0  0  0  0
  8 10  1  0  0  0  0
  8 30  1  0  0  0  0
  8 31  1  0  0  0  0
  9 12  1  0  0  0  0
  9 32  1  0  0  0  0
  9 33  1  0  0  0  0
 10 14  1  0  0  0  0
 10 34  1  0  0  0  0
 10 35  1  0  0  0  0
 11 15  1  0  0  0  0
 11 36  1  0  0  0  0
 11 37  1  0  0  0  0
 12 14  2  0  0  0  0
 13 17  1  0  0  0  0
 13 38  1  0  0  0  0
 13 39  1  0  0  0  0
 15 16  1  0  0  0  0
 15 40  1  0  0  0  0
 15 41  1  0  0  0  0
 16 18  1  0  0  0  0
 16 42  1  0  0  0  0
 16 43  1  0  0  0  0
 17 20  1  0  0  0  0
 17 44  1  0  0  0  0
 17 45  1  0  0  0  0
 18 21  1  0  0  0  0
 18 46  1  0  0  0  0
 18 47  1  0  0  0  0
 20 48  1  0  0  0  0
 20 49  1  0  0  0  0
 20 50  1  0  0  0  0
 21 22  1  0  0  0  0
 21 51  1  0  0  0  0
 21 52  1  0  0  0  0
 22 23  2  0  0  0  0
 22 24  1  0  0  0  0
 23 25  1  0  0  0  0
 23 55  1  0  0  0  0
 24 26  2  0  0  0  0
 24 56  1  0  0  0  0
 25 27  2  0  0  0  0
 26 27  1  0  0  0  0
 26 57  1  0  0  0  0
 28 59  1  0  0  0  0
 28 60  1  0  0  0  0
 28 61  1  0  0  0  0
M  END
> <PUBCHEM_COMPOUND_CID>
155522454

> <PUBCHEM_COMPOUND_CANONICALIZED>
1

> <PUBCHEM_CACTVS_COMPLEXITY>
456

> <PUBCHEM_CACTVS_HBOND_ACCEPTOR>
6

> <PUBCHEM_CACTVS_HBOND_DONOR>
2

> <PUBCHEM_CACTVS_ROTATABLE_BOND>
10

> <PUBCHEM_CACTVS_SUBSKEYS>
AAADcfB7MABAAAAAAAAAAAAAAAAAAWAAAAAwYAAAAAAAAFgBwAAAHgQQCAAADCzB3gYzl5NIFgikAyRiZAAC+KlhKDkImBQ+yIiNJiLmsRuEcCMkwBPL+CeQwPAOIAABAAAAQABAAQIAQACCAAAAAAAAAA==

> <PUBCHEM_IUPAC_OPENEYE_NAME>
4-[5-[[(6S)-2-amino-4,5,6,7-tetrahydro-1,3-benzothiazol-6-yl]-propyl-amino]pentyl]-2-methoxy-phenol

> <PUBCHEM_IUPAC_CAS_NAME>
4-[5-[[(6S)-2-amino-4,5,6,7-tetrahydro-1,3-benzothiazol-6-yl]-propylamino]pentyl]-2-methoxyphenol

> <PUBCHEM_IUPAC_NAME_MARKUP>
4-[5-[[(6<I>S</I>)-2-amino-4,5,6,7-tetrahydro-1,3-benzothiazol-6-yl]-propylamino]pentyl]-2-methoxyphenol

> <PUBCHEM_IUPAC_NAME>
4-[5-[[(6S)-2-amino-4,5,6,7-tetrahydro-1,3-benzothiazol-6-yl]-propylamino]pentyl]-2-methoxyphenol

> <PUBCHEM_IUPAC_SYSTEMATIC_NAME>
4-[5-[[(6S)-2-azanyl-4,5,6,7-tetrahydro-1,3-benzothiazol-6-yl]-propyl-amino]pentyl]-2-methoxy-phenol

> <PUBCHEM_IUPAC_TRADITIONAL_NAME>
4-[5-[[(6S)-2-amino-4,5,6,7-tetrahydro-1,3-benzothiazol-6-yl]-propyl-amino]pentyl]-2-methoxy-phenol

> <PUBCHEM_IUPAC_INCHI>
InChI=1S/C22H33N3O2S/c1-3-12-25(17-9-10-18-21(15-17)28-22(23)24-18)13-6-4-5-7-16-8-11-19(26)20(14-16)27-2/h8,11,14,17,26H,3-7,9-10,12-13,15H2,1-2H3,(H2,23,24)/t17-/m0/s1

> <PUBCHEM_IUPAC_INCHIKEY>
PXPHOMJZPNVWMG-KRWDZBQOSA-N

> <PUBCHEM_XLOGP3_AA>
5.2

> <PUBCHEM_EXACT_MASS>
403.22934848

> <PUBCHEM_MOLECULAR_FORMULA>
C22H33N3O2S

> <PUBCHEM_MOLECULAR_WEIGHT>
403.6

> <PUBCHEM_OPENEYE_CAN_SMILES>
CCCN(CCCCCC1=CC(=C(C=C1)O)OC)C2CCC3=C(C2)SC(=N3)N

> <PUBCHEM_OPENEYE_ISO_SMILES>
CCCN(CCCCCC1=CC(=C(C=C1)O)OC)[C@H]2CCC3=C(C2)SC(=N3)N

> <PUBCHEM_CACTVS_TPSA>
99.8

> <PUBCHEM_MONOISOTOPIC_WEIGHT>
403.22934848

> <PUBCHEM_TOTAL_CHARGE>
0

> <PUBCHEM_HEAVY_ATOM_COUNT>
28

> <PUBCHEM_ATOM_DEF_STEREO_COUNT>
1

> <PUBCHEM_ATOM_UDEF_STEREO_COUNT>
0

> <PUBCHEM_BOND_DEF_STEREO_COUNT>
0

> <PUBCHEM_BOND_UDEF_STEREO_COUNT>
0

> <PUBCHEM_ISOTOPIC_ATOM_COUNT>
0

> <PUBCHEM_COMPONENT_COUNT>
1

> <PUBCHEM_CACTVS_TAUTO_COUNT>
-1

> <PUBCHEM_COORDINATE_TYPE>
1
5
255

> <PUBCHEM_BONDANNOTATIONS>
1  12  8
1  19  8
12  14  8
22  23  8
22  24  8
23  25  8
24  26  8
25  27  8
26  27  8
7  4  6
5  14  8
5  19  8

$$$$
