11269392
  -OEChem-09292322022D

 48 50  0     0  0  0  0  0  0999 V2000
    2.0000   -1.5000    0.0000 Cl  0  0  0  0  0  0  0  0  0  0  0  0
    3.7320   -4.5000    0.0000 Cl  0  0  0  0  0  0  0  0  0  0  0  0
    2.8660    1.0000    0.0000 O   0  0  0  0  0  0  0  0  0  0  0  0
    5.4641    1.5000    0.0000 N   0  0  0  0  0  0  0  0  0  0  0  0
    7.1962    2.5000    0.0000 N   0  0  0  0  0  0  0  0  0  0  0  0
    8.0622    4.0000    0.0000 N   0  0  0  0  0  0  0  0  0  0  0  0
    2.8660   -0.0000    0.0000 N   0  0  0  0  0  0  0  0  0  0  0  0
    6.3301    1.0000    0.0000 C   0  0  0  0  0  0  0  0  0  0  0  0
    5.4641    2.5000    0.0000 C   0  0  0  0  0  0  0  0  0  0  0  0
    7.1962    1.5000    0.0000 C   0  0  0  0  0  0  0  0  0  0  0  0
    6.3301    3.0000    0.0000 C   0  0  0  0  0  0  0  0  0  0  0  0
    4.5981    1.0000    0.0000 C   0  0  0  0  0  0  0  0  0  0  0  0
    4.5981   -0.0000    0.0000 C   0  0  0  0  0  0  0  0  0  0  0  0
    8.0622    3.0000    0.0000 C   0  0  0  0  0  0  0  0  0  0  0  0
    3.7320   -0.5000    0.0000 C   0  0  0  0  0  0  0  0  0  0  0  0
    8.9282    2.5000    0.0000 C   0  0  0  0  0  0  0  0  0  0  0  0
    3.7320   -1.5000    0.0000 C   0  0  0  0  0  0  0  0  0  0  0  0
    9.7942    3.0000    0.0000 C   0  0  0  0  0  0  0  0  0  0  0  0
    8.9282    4.5000    0.0000 C   0  0  0  0  0  0  0  0  0  0  0  0
    2.8660   -2.0000    0.0000 C   0  0  0  0  0  0  0  0  0  0  0  0
    4.5981   -2.0000    0.0000 C   0  0  0  0  0  0  0  0  0  0  0  0
    9.7942    4.0000    0.0000 C   0  0  0  0  0  0  0  0  0  0  0  0
    2.8660   -3.0000    0.0000 C   0  0  0  0  0  0  0  0  0  0  0  0
    4.5981   -3.0000    0.0000 C   0  0  0  0  0  0  0  0  0  0  0  0
    3.7320   -3.5000    0.0000 C   0  0  0  0  0  0  0  0  0  0  0  0
    2.0000    1.5000    0.0000 C   0  0  0  0  0  0  0  0  0  0  0  0
    5.9316    0.5251    0.0000 H   0  0  0  0  0  0  0  0  0  0  0  0
    6.7287    0.5251    0.0000 H   0  0  0  0  0  0  0  0  0  0  0  0
    5.2520    3.0826    0.0000 H   0  0  0  0  0  0  0  0  0  0  0  0
    4.8535    2.3923    0.0000 H   0  0  0  0  0  0  0  0  0  0  0  0
    7.4082    0.9174    0.0000 H   0  0  0  0  0  0  0  0  0  0  0  0
    7.8067    1.6077    0.0000 H   0  0  0  0  0  0  0  0  0  0  0  0
    6.7287    3.4750    0.0000 H   0  0  0  0  0  0  0  0  0  0  0  0
    5.9316    3.4750    0.0000 H   0  0  0  0  0  0  0  0  0  0  0  0
    4.3860    1.5826    0.0000 H   0  0  0  0  0  0  0  0  0  0  0  0
    3.9875    0.8923    0.0000 H   0  0  0  0  0  0  0  0  0  0  0  0
    4.8101   -0.5826    0.0000 H   0  0  0  0  0  0  0  0  0  0  0  0
    5.2087    0.1077    0.0000 H   0  0  0  0  0  0  0  0  0  0  0  0
    8.9282    1.8800    0.0000 H   0  0  0  0  0  0  0  0  0  0  0  0
   10.3312    2.6900    0.0000 H   0  0  0  0  0  0  0  0  0  0  0  0
    8.9282    5.1200    0.0000 H   0  0  0  0  0  0  0  0  0  0  0  0
    5.1350   -1.6900    0.0000 H   0  0  0  0  0  0  0  0  0  0  0  0
   10.3312    4.3100    0.0000 H   0  0  0  0  0  0  0  0  0  0  0  0
    2.3291   -3.3100    0.0000 H   0  0  0  0  0  0  0  0  0  0  0  0
    5.1350   -3.3100    0.0000 H   0  0  0  0  0  0  0  0  0  0  0  0
    2.3100    2.0369    0.0000 H   0  0  0  0  0  0  0  0  0  0  0  0
    1.4631    1.8100    0.0000 H   0  0  0  0  0  0  0  0  0  0  0  0
    1.6900    0.9631    0.0000 H   0  0  0  0  0  0  0  0  0  0  0  0
  1 20  1  0  0  0  0
  2 25  1  0  0  0  0
  3  7  1  0  0  0  0
  3 26  1  0  0  0  0
  4  8  1  0  0  0  0
  4  9  1  0  0  0  0
  4 12  1  0  0  0  0
  5 10  1  0  0  0  0
  5 11  1  0  0  0  0
  5 14  1  0  0  0  0
  6 14  1  0  0  0  0
  6 19  2  0  0  0  0
  7 15  2  0  0  0  0
  8 10  1  0  0  0  0
  8 27  1  0  0  0  0
  8 28  1  0  0  0  0
  9 11  1  0  0  0  0
  9 29  1  0  0  0  0
  9 30  1  0  0  0  0
 10 31  1  0  0  0  0
 10 32  1  0  0  0  0
 11 33  1  0  0  0  0
 11 34  1  0  0  0  0
 12 13  1  0  0  0  0
 12 35  1  0  0  0  0
 12 36  1  0  0  0  0
 13 15  1  0  0  0  0
 13 37  1  0  0  0  0
 13 38  1  0  0  0  0
 14 16  2  0  0  0  0
 15 17  1  0  0  0  0
 16 18  1  0  0  0  0
 16 39  1  0  0  0  0
 17 20  2  0  0  0  0
 17 21  1  0  0  0  0
 18 22  2  0  0  0  0
 18 40  1  0  0  0  0
 19 22  1  0  0  0  0
 19 41  1  0  0  0  0
 20 23  1  0  0  0  0
 21 24  2  0  0  0  0
 21 42  1  0  0  0  0
 22 43  1  0  0  0  0
 23 25  2  0  0  0  0
 23 44  1  0  0  0  0
 24 25  1  0  0  0  0
 24 45  1  0  0  0  0
 26 46  1  0  0  0  0
 26 47  1  0  0  0  0
 26 48  1  0  0  0  0
M  END
> <PUBCHEM_COMPOUND_CID>
11269392

> <PUBCHEM_COMPOUND_CANONICALIZED>
1

> <PUBCHEM_CACTVS_COMPLEXITY>
457

> <PUBCHEM_CACTVS_HBOND_ACCEPTOR>
5

> <PUBCHEM_CACTVS_HBOND_DONOR>
0

> <PUBCHEM_CACTVS_ROTATABLE_BOND>
6

> <PUBCHEM_CACTVS_SUBSKEYS>
AAADceB7oAAGAAAAAAAAAAAAAAAAAAAAAAA8WIAAAAAAAAABwAAAHgIEAAAADArBGiY/sJMYEACgAzJnZACCgCkxByAJ2CA4ZpiIYOLBm5GUIAhogALIyCcQgIAOBAAAAACBAAAIAAAAAQIAAAAAAAAAAA==

> <PUBCHEM_IUPAC_OPENEYE_NAME>
(E)-1-(2,4-dichlorophenyl)-N-methoxy-3-[4-(2-pyridyl)piperazin-1-yl]propan-1-imine

> <PUBCHEM_IUPAC_CAS_NAME>
(E)-1-(2,4-dichlorophenyl)-N-methoxy-3-[4-(2-pyridinyl)-1-piperazinyl]-1-propanimine

> <PUBCHEM_IUPAC_NAME_MARKUP>
(<I>E</I>)-1-(2,4-dichlorophenyl)-<I>N</I>-methoxy-3-(4-pyridin-2-ylpiperazin-1-yl)propan-1-imine

> <PUBCHEM_IUPAC_NAME>
(E)-1-(2,4-dichlorophenyl)-N-methoxy-3-(4-pyridin-2-ylpiperazin-1-yl)propan-1-imine

> <PUBCHEM_IUPAC_SYSTEMATIC_NAME>
(E)-1-(2,4-dichlorophenyl)-N-methoxy-3-(4-pyridin-2-ylpiperazin-1-yl)propan-1-imine

> <PUBCHEM_IUPAC_TRADITIONAL_NAME>
(E)-[1-(2,4-dichlorophenyl)-3-[4-(2-pyridyl)piperazino]propylidene]-methoxy-amine

> <PUBCHEM_IUPAC_INCHI>
InChI=1S/C19H22Cl2N4O/c1-26-23-18(16-6-5-15(20)14-17(16)21)7-9-24-10-12-25(13-11-24)19-4-2-3-8-22-19/h2-6,8,14H,7,9-13H2,1H3/b23-18+

> <PUBCHEM_IUPAC_INCHIKEY>
QBMRBRMWFXMMQU-PTGBLXJZSA-N

> <PUBCHEM_XLOGP3_AA>
4.3

> <PUBCHEM_EXACT_MASS>
392.1170667

> <PUBCHEM_MOLECULAR_FORMULA>
C19H22Cl2N4O

> <PUBCHEM_MOLECULAR_WEIGHT>
393.3

> <PUBCHEM_OPENEYE_CAN_SMILES>
CON=C(CCN1CCN(CC1)C2=CC=CC=N2)C3=C(C=C(C=C3)Cl)Cl

> <PUBCHEM_OPENEYE_ISO_SMILES>
CO/N=C(\CCN1CCN(CC1)C2=CC=CC=N2)/C3=C(C=C(C=C3)Cl)Cl

> <PUBCHEM_CACTVS_TPSA>
41

> <PUBCHEM_MONOISOTOPIC_WEIGHT>
392.1170667

> <PUBCHEM_TOTAL_CHARGE>
0

> <PUBCHEM_HEAVY_ATOM_COUNT>
26

> <PUBCHEM_ATOM_DEF_STEREO_COUNT>
0

> <PUBCHEM_ATOM_UDEF_STEREO_COUNT>
0

> <PUBCHEM_BOND_DEF_STEREO_COUNT>
1

> <PUBCHEM_BOND_UDEF_STEREO_COUNT>
0

> <PUBCHEM_ISOTOPIC_ATOM_COUNT>
0

> <PUBCHEM_COMPONENT_COUNT>
1

> <PUBCHEM_CACTVS_TAUTO_COUNT>
-1

> <PUBCHEM_COORDINATE_TYPE>
1
5
255

> <PUBCHEM_BONDANNOTATIONS>
14  16  8
16  18  8
17  20  8
17  21  8
18  22  8
19  22  8
20  23  8
21  24  8
23  25  8
24  25  8
6  14  8
6  19  8

$$$$
