145980875
  -OEChem-09292322392D

 56 58  0     0  0  0  0  0  0999 V2000
    4.5981   -6.7631    0.0000 Cl  0  0  0  0  0  0  0  0  0  0  0  0
    2.0000   -6.2631    0.0000 F   0  0  0  0  0  0  0  0  0  0  0  0
    2.3660   -4.8971    0.0000 F   0  0  0  0  0  0  0  0  0  0  0  0
    3.3660   -6.6292    0.0000 F   0  0  0  0  0  0  0  0  0  0  0  0
    4.0981    6.7631    0.0000 F   0  0  0  0  0  0  0  0  0  0  0  0
    3.7320   -3.2631    0.0000 O   0  0  0  0  0  0  0  0  0  0  0  0
    5.5981   -1.0311    0.0000 N   0  0  0  0  0  0  0  0  0  0  0  0
    4.5981   -2.7631    0.0000 C   0  0  0  0  0  0  0  0  0  0  0  0
    4.0981   -1.8971    0.0000 C   0  0  0  0  0  0  0  0  0  0  0  0
    5.5981   -2.7631    0.0000 C   0  0  0  0  0  0  0  0  0  0  0  0
    4.5981   -1.0311    0.0000 C   0  0  0  0  0  0  0  0  0  0  0  0
    6.0981   -1.8971    0.0000 C   0  0  0  0  0  0  0  0  0  0  0  0
    6.0981   -0.1651    0.0000 C   0  0  0  0  0  0  0  0  0  0  0  0
    4.5981   -3.7631    0.0000 C   0  0  0  0  0  0  0  0  0  0  0  0
    5.5981    0.7010    0.0000 C   0  0  0  0  0  0  0  0  0  0  0  0
    6.0981    1.5670    0.0000 C   0  0  0  0  0  0  0  0  0  0  0  0
    3.7320   -4.2631    0.0000 C   0  0  0  0  0  0  0  0  0  0  0  0
    5.4641   -4.2631    0.0000 C   0  0  0  0  0  0  0  0  0  0  0  0
    5.5981    2.4330    0.0000 C   0  0  0  0  0  0  0  0  0  0  0  0
    3.7320   -5.2631    0.0000 C   0  0  0  0  0  0  0  0  0  0  0  0
    5.4641   -5.2631    0.0000 C   0  0  0  0  0  0  0  0  0  0  0  0
    6.0981    3.2990    0.0000 C   0  0  0  0  0  0  0  0  0  0  0  0
    4.5981   -5.7631    0.0000 C   0  0  0  0  0  0  0  0  0  0  0  0
    2.8660   -5.7631    0.0000 C   0  0  0  0  0  0  0  0  0  0  0  0
    5.5981    4.1651    0.0000 C   0  0  0  0  0  0  0  0  0  0  0  0
    4.5981    4.1651    0.0000 C   0  0  0  0  0  0  0  0  0  0  0  0
    6.0981    5.0311    0.0000 C   0  0  0  0  0  0  0  0  0  0  0  0
    4.0981    5.0311    0.0000 C   0  0  0  0  0  0  0  0  0  0  0  0
    5.5981    5.8971    0.0000 C   0  0  0  0  0  0  0  0  0  0  0  0
    4.5981    5.8971    0.0000 C   0  0  0  0  0  0  0  0  0  0  0  0
    3.6231   -1.4986    0.0000 H   0  0  0  0  0  0  0  0  0  0  0  0
    3.6231   -2.2956    0.0000 H   0  0  0  0  0  0  0  0  0  0  0  0
    5.4904   -3.3737    0.0000 H   0  0  0  0  0  0  0  0  0  0  0  0
    6.1807   -2.9752    0.0000 H   0  0  0  0  0  0  0  0  0  0  0  0
    4.7057   -0.4205    0.0000 H   0  0  0  0  0  0  0  0  0  0  0  0
    4.0155   -0.8190    0.0000 H   0  0  0  0  0  0  0  0  0  0  0  0
    6.5730   -2.2956    0.0000 H   0  0  0  0  0  0  0  0  0  0  0  0
    6.5730   -1.4986    0.0000 H   0  0  0  0  0  0  0  0  0  0  0  0
    6.5730   -0.5636    0.0000 H   0  0  0  0  0  0  0  0  0  0  0  0
    6.5730    0.2335    0.0000 H   0  0  0  0  0  0  0  0  0  0  0  0
    5.1231    1.0995    0.0000 H   0  0  0  0  0  0  0  0  0  0  0  0
    5.1231    0.3024    0.0000 H   0  0  0  0  0  0  0  0  0  0  0  0
    3.1951   -2.9531    0.0000 H   0  0  0  0  0  0  0  0  0  0  0  0
    6.5730    1.1685    0.0000 H   0  0  0  0  0  0  0  0  0  0  0  0
    6.5730    1.9655    0.0000 H   0  0  0  0  0  0  0  0  0  0  0  0
    3.1951   -3.9531    0.0000 H   0  0  0  0  0  0  0  0  0  0  0  0
    6.0010   -3.9531    0.0000 H   0  0  0  0  0  0  0  0  0  0  0  0
    5.1231    2.8315    0.0000 H   0  0  0  0  0  0  0  0  0  0  0  0
    5.1231    2.0345    0.0000 H   0  0  0  0  0  0  0  0  0  0  0  0
    6.0010   -5.5731    0.0000 H   0  0  0  0  0  0  0  0  0  0  0  0
    6.5730    2.9005    0.0000 H   0  0  0  0  0  0  0  0  0  0  0  0
    6.5730    3.6976    0.0000 H   0  0  0  0  0  0  0  0  0  0  0  0
    4.2881    3.6281    0.0000 H   0  0  0  0  0  0  0  0  0  0  0  0
    6.7181    5.0311    0.0000 H   0  0  0  0  0  0  0  0  0  0  0  0
    3.4781    5.0311    0.0000 H   0  0  0  0  0  0  0  0  0  0  0  0
    5.9081    6.4340    0.0000 H   0  0  0  0  0  0  0  0  0  0  0  0
  1 23  1  0  0  0  0
  2 24  1  0  0  0  0
  3 24  1  0  0  0  0
  4 24  1  0  0  0  0
  5 30  1  0  0  0  0
  6  8  1  0  0  0  0
  6 43  1  0  0  0  0
  7 11  1  0  0  0  0
  7 12  1  0  0  0  0
  7 13  1  0  0  0  0
  8  9  1  0  0  0  0
  8 10  1  0  0  0  0
  8 14  1  0  0  0  0
  9 11  1  0  0  0  0
  9 31  1  0  0  0  0
  9 32  1  0  0  0  0
 10 12  1  0  0  0  0
 10 33  1  0  0  0  0
 10 34  1  0  0  0  0
 11 35  1  0  0  0  0
 11 36  1  0  0  0  0
 12 37  1  0  0  0  0
 12 38  1  0  0  0  0
 13 15  1  0  0  0  0
 13 39  1  0  0  0  0
 13 40  1  0  0  0  0
 14 17  2  0  0  0  0
 14 18  1  0  0  0  0
 15 16  1  0  0  0  0
 15 41  1  0  0  0  0
 15 42  1  0  0  0  0
 16 19  1  0  0  0  0
 16 44  1  0  0  0  0
 16 45  1  0  0  0  0
 17 20  1  0  0  0  0
 17 46  1  0  0  0  0
 18 21  2  0  0  0  0
 18 47  1  0  0  0  0
 19 22  1  0  0  0  0
 19 48  1  0  0  0  0
 19 49  1  0  0  0  0
 20 23  2  0  0  0  0
 20 24  1  0  0  0  0
 21 23  1  0  0  0  0
 21 50  1  0  0  0  0
 22 25  1  0  0  0  0
 22 51  1  0  0  0  0
 22 52  1  0  0  0  0
 25 26  2  0  0  0  0
 25 27  1  0  0  0  0
 26 28  1  0  0  0  0
 26 53  1  0  0  0  0
 27 29  2  0  0  0  0
 27 54  1  0  0  0  0
 28 30  2  0  0  0  0
 28 55  1  0  0  0  0
 29 30  1  0  0  0  0
 29 56  1  0  0  0  0
M  END
> <PUBCHEM_COMPOUND_CID>
145980875

> <PUBCHEM_COMPOUND_CANONICALIZED>
1

> <PUBCHEM_CACTVS_COMPLEXITY>
516

> <PUBCHEM_CACTVS_HBOND_ACCEPTOR>
6

> <PUBCHEM_CACTVS_HBOND_DONOR>
1

> <PUBCHEM_CACTVS_ROTATABLE_BOND>
7

> <PUBCHEM_CACTVS_SUBSKEYS>
AAADceB6IcAEAAAAAAAAAAAAAAAAAAAAAAA8YIAAAAAAAAABQAAAHwIACAAADEbBmDwwAIMAAgCAAiBCAAACAAAgBQAIiAAICogIJiKBkxCEcAAmwAGImAeQwOAOhAACAAABAAAIAAQAAAIAAAAAAAAAAA==

> <PUBCHEM_IUPAC_OPENEYE_NAME>
4-[4-chloro-3-(trifluoromethyl)phenyl]-1-[5-(4-fluorophenyl)pentyl]piperidin-4-ol

> <PUBCHEM_IUPAC_CAS_NAME>
4-[4-chloro-3-(trifluoromethyl)phenyl]-1-[5-(4-fluorophenyl)pentyl]-4-piperidinol

> <PUBCHEM_IUPAC_NAME_MARKUP>
4-[4-chloro-3-(trifluoromethyl)phenyl]-1-[5-(4-fluorophenyl)pentyl]piperidin-4-ol

> <PUBCHEM_IUPAC_NAME>
4-[4-chloro-3-(trifluoromethyl)phenyl]-1-[5-(4-fluorophenyl)pentyl]piperidin-4-ol

> <PUBCHEM_IUPAC_SYSTEMATIC_NAME>
4-[4-chloranyl-3-(trifluoromethyl)phenyl]-1-[5-(4-fluorophenyl)pentyl]piperidin-4-ol

> <PUBCHEM_IUPAC_TRADITIONAL_NAME>
4-[4-chloro-3-(trifluoromethyl)phenyl]-1-[5-(4-fluorophenyl)pentyl]piperidin-4-ol

> <PUBCHEM_IUPAC_INCHI>
InChI=1S/C23H26ClF4NO/c24-21-10-7-18(16-20(21)23(26,27)28)22(30)11-14-29(15-12-22)13-3-1-2-4-17-5-8-19(25)9-6-17/h5-10,16,30H,1-4,11-15H2

> <PUBCHEM_IUPAC_INCHIKEY>
UBNDBTRGSCEYOS-UHFFFAOYSA-N

> <PUBCHEM_XLOGP3_AA>
6.2

> <PUBCHEM_EXACT_MASS>
443.1639048

> <PUBCHEM_MOLECULAR_FORMULA>
C23H26ClF4NO

> <PUBCHEM_MOLECULAR_WEIGHT>
443.9

> <PUBCHEM_OPENEYE_CAN_SMILES>
C1CN(CCC1(C2=CC(=C(C=C2)Cl)C(F)(F)F)O)CCCCCC3=CC=C(C=C3)F

> <PUBCHEM_OPENEYE_ISO_SMILES>
C1CN(CCC1(C2=CC(=C(C=C2)Cl)C(F)(F)F)O)CCCCCC3=CC=C(C=C3)F

> <PUBCHEM_CACTVS_TPSA>
23.5

> <PUBCHEM_MONOISOTOPIC_WEIGHT>
443.1639048

> <PUBCHEM_TOTAL_CHARGE>
0

> <PUBCHEM_HEAVY_ATOM_COUNT>
30

> <PUBCHEM_ATOM_DEF_STEREO_COUNT>
0

> <PUBCHEM_ATOM_UDEF_STEREO_COUNT>
0

> <PUBCHEM_BOND_DEF_STEREO_COUNT>
0

> <PUBCHEM_BOND_UDEF_STEREO_COUNT>
0

> <PUBCHEM_ISOTOPIC_ATOM_COUNT>
0

> <PUBCHEM_COMPONENT_COUNT>
1

> <PUBCHEM_CACTVS_TAUTO_COUNT>
-1

> <PUBCHEM_COORDINATE_TYPE>
1
5
255

> <PUBCHEM_BONDANNOTATIONS>
14  17  8
14  18  8
17  20  8
18  21  8
20  23  8
21  23  8
25  26  8
25  27  8
26  28  8
27  29  8
28  30  8
29  30  8

$$$$
