162669593
  -OEChem-09292322012D

121126  0     1  0  0  0  0  0999 V2000
   15.9502    0.4125    0.0000 O   0  0  0  0  0  0  0  0  0  0  0  0
   12.8959    4.6162    0.0000 O   0  0  0  0  0  0  0  0  0  0  0  0
   14.0185    2.2204    0.0000 O   0  0  0  0  0  0  0  0  0  0  0  0
   16.2363   -7.8961    0.0000 N   0  0  3  0  0  0  0  0  0  0  0  0
    6.2619   10.1050    0.0000 N   0  0  3  0  0  0  0  0  0  0  0  0
   17.7309   -3.4615    0.0000 N   0  0  0  0  0  0  0  0  0  0  0  0
    9.3551    6.5934    0.0000 N   0  0  0  0  0  0  0  0  0  0  0  0
   17.0728   -1.9833    0.0000 N   0  0  0  0  0  0  0  0  0  0  0  0
   10.9643    6.4242    0.0000 N   0  0  0  0  0  0  0  0  0  0  0  0
   17.9388   -2.4833    0.0000 N   0  0  0  0  0  0  0  0  0  0  0  0
   10.0983    5.9242    0.0000 N   0  0  0  0  0  0  0  0  0  0  0  0
   16.7363   -8.7622    0.0000 C   0  0  0  0  0  0  0  0  0  0  0  0
    5.2619   10.1050    0.0000 C   0  0  0  0  0  0  0  0  0  0  0  0
   16.3312   -9.6699    0.0000 C   0  0  0  0  0  0  0  0  0  0  0  0
   17.7251   -8.8652    0.0000 C   0  0  0  0  0  0  0  0  0  0  0  0
    4.6783   10.9097    0.0000 C   0  0  0  0  0  0  0  0  0  0  0  0
    4.6783    9.3002    0.0000 C   0  0  0  0  0  0  0  0  0  0  0  0
   17.0683  -10.3370    0.0000 C   0  0  0  0  0  0  0  0  0  0  0  0
   17.9343   -9.8370    0.0000 C   0  0  0  0  0  0  0  0  0  0  0  0
    3.7320   10.6050    0.0000 C   0  0  0  0  0  0  0  0  0  0  0  0
    3.7320    9.6050    0.0000 C   0  0  0  0  0  0  0  0  0  0  0  0
   16.7363   -7.0301    0.0000 C   0  0  0  0  0  0  0  0  0  0  0  0
    6.7619    9.2390    0.0000 C   0  0  0  0  0  0  0  0  0  0  0  0
   15.2363   -7.8961    0.0000 C   0  0  0  0  0  0  0  0  0  0  0  0
    6.7619   10.9710    0.0000 C   0  0  0  0  0  0  0  0  0  0  0  0
   16.2363   -6.1641    0.0000 C   0  0  0  0  0  0  0  0  0  0  0  0
    7.7619    9.2390    0.0000 C   0  0  0  0  0  0  0  0  0  0  0  0
   17.0683  -11.3370    0.0000 C   0  0  0  0  0  0  0  0  0  0  0  0
   18.8003  -10.3370    0.0000 C   0  0  0  0  0  0  0  0  0  0  0  0
    2.8660   11.1050    0.0000 C   0  0  0  0  0  0  0  0  0  0  0  0
    2.8660    9.1050    0.0000 C   0  0  0  0  0  0  0  0  0  0  0  0
   14.7363   -7.0301    0.0000 C   0  0  0  0  0  0  0  0  0  0  0  0
    7.7619   10.9710    0.0000 C   0  0  0  0  0  0  0  0  0  0  0  0
   16.7363   -5.2980    0.0000 C   0  0  0  0  0  0  0  0  0  0  0  0
    8.2619    8.3729    0.0000 C   0  0  0  0  0  0  0  0  0  0  0  0
   17.9343  -11.8370    0.0000 C   0  0  0  0  0  0  0  0  0  0  0  0
   18.8003  -11.3370    0.0000 C   0  0  0  0  0  0  0  0  0  0  0  0
    2.0000   10.6050    0.0000 C   0  0  0  0  0  0  0  0  0  0  0  0
    2.0000    9.6050    0.0000 C   0  0  0  0  0  0  0  0  0  0  0  0
   13.7363   -7.0301    0.0000 C   0  0  0  0  0  0  0  0  0  0  0  0
    8.2619   11.8370    0.0000 C   0  0  0  0  0  0  0  0  0  0  0  0
   16.2363   -4.4320    0.0000 C   0  0  0  0  0  0  0  0  0  0  0  0
    9.2619    8.3729    0.0000 C   0  0  0  0  0  0  0  0  0  0  0  0
   16.7363   -3.5660    0.0000 C   0  0  0  0  0  0  0  0  0  0  0  0
    9.7619    7.5069    0.0000 C   0  0  0  0  0  0  0  0  0  0  0  0
   16.3296   -2.6525    0.0000 C   0  0  0  0  0  0  0  0  0  0  0  0
   10.7564    7.4024    0.0000 C   0  0  0  0  0  0  0  0  0  0  0  0
   16.9682   -0.9888    0.0000 C   0  0  0  0  0  0  0  0  0  0  0  0
   11.8779    6.0175    0.0000 C   0  0  0  0  0  0  0  0  0  0  0  0
   16.0547   -0.5821    0.0000 C   0  0  0  0  0  0  0  0  0  0  0  0
   11.9824    5.0230    0.0000 C   0  0  0  0  0  0  0  0  0  0  0  0
   15.0366    0.8192    0.0000 C   0  0  0  0  0  0  0  0  0  0  0  0
   13.0005    3.6217    0.0000 C   0  0  0  0  0  0  0  0  0  0  0  0
   14.9321    1.8137    0.0000 C   0  0  0  0  0  0  0  0  0  0  0  0
   13.9140    3.2150    0.0000 C   0  0  0  0  0  0  0  0  0  0  0  0
   17.0738   -8.2420    0.0000 H   0  0  0  0  0  0  0  0  0  0  0  0
    5.5436    9.5527    0.0000 H   0  0  0  0  0  0  0  0  0  0  0  0
   15.7947   -9.3592    0.0000 H   0  0  0  0  0  0  0  0  0  0  0  0
   15.9658  -10.1708    0.0000 H   0  0  0  0  0  0  0  0  0  0  0  0
   18.3415   -8.7992    0.0000 H   0  0  0  0  0  0  0  0  0  0  0  0
   17.7242   -8.2452    0.0000 H   0  0  0  0  0  0  0  0  0  0  0  0
    5.2156   11.2189    0.0000 H   0  0  0  0  0  0  0  0  0  0  0  0
    4.4272   11.4766    0.0000 H   0  0  0  0  0  0  0  0  0  0  0  0
    4.4272    8.7333    0.0000 H   0  0  0  0  0  0  0  0  0  0  0  0
    5.2156    8.9910    0.0000 H   0  0  0  0  0  0  0  0  0  0  0  0
   17.2113   -7.4286    0.0000 H   0  0  0  0  0  0  0  0  0  0  0  0
   17.2113   -6.6316    0.0000 H   0  0  0  0  0  0  0  0  0  0  0  0
    6.1793    9.0269    0.0000 H   0  0  0  0  0  0  0  0  0  0  0  0
    6.8695    8.6284    0.0000 H   0  0  0  0  0  0  0  0  0  0  0  0
   14.6537   -8.1082    0.0000 H   0  0  0  0  0  0  0  0  0  0  0  0
   15.3440   -8.5067    0.0000 H   0  0  0  0  0  0  0  0  0  0  0  0
    6.8695   11.5816    0.0000 H   0  0  0  0  0  0  0  0  0  0  0  0
    6.1793   11.1831    0.0000 H   0  0  0  0  0  0  0  0  0  0  0  0
   15.7614   -5.7656    0.0000 H   0  0  0  0  0  0  0  0  0  0  0  0
   15.7614   -6.5626    0.0000 H   0  0  0  0  0  0  0  0  0  0  0  0
    8.3445    9.4510    0.0000 H   0  0  0  0  0  0  0  0  0  0  0  0
    7.6542    9.8495    0.0000 H   0  0  0  0  0  0  0  0  0  0  0  0
   16.5313  -11.6470    0.0000 H   0  0  0  0  0  0  0  0  0  0  0  0
   19.3372  -10.0270    0.0000 H   0  0  0  0  0  0  0  0  0  0  0  0
    2.8660   11.7250    0.0000 H   0  0  0  0  0  0  0  0  0  0  0  0
    2.8660    8.4850    0.0000 H   0  0  0  0  0  0  0  0  0  0  0  0
   15.3190   -6.8180    0.0000 H   0  0  0  0  0  0  0  0  0  0  0  0
   14.6287   -6.4195    0.0000 H   0  0  0  0  0  0  0  0  0  0  0  0
    7.6542   10.3604    0.0000 H   0  0  0  0  0  0  0  0  0  0  0  0
    8.3445   10.7589    0.0000 H   0  0  0  0  0  0  0  0  0  0  0  0
   17.2113   -5.6966    0.0000 H   0  0  0  0  0  0  0  0  0  0  0  0
   17.2113   -4.8995    0.0000 H   0  0  0  0  0  0  0  0  0  0  0  0
    7.6793    8.1609    0.0000 H   0  0  0  0  0  0  0  0  0  0  0  0
    8.3695    7.7623    0.0000 H   0  0  0  0  0  0  0  0  0  0  0  0
   17.9343  -12.4570    0.0000 H   0  0  0  0  0  0  0  0  0  0  0  0
   19.3372  -11.6470    0.0000 H   0  0  0  0  0  0  0  0  0  0  0  0
    1.4631   10.9150    0.0000 H   0  0  0  0  0  0  0  0  0  0  0  0
    1.4631    9.2950    0.0000 H   0  0  0  0  0  0  0  0  0  0  0  0
   13.7363   -6.4101    0.0000 H   0  0  0  0  0  0  0  0  0  0  0  0
   13.1163   -7.0301    0.0000 H   0  0  0  0  0  0  0  0  0  0  0  0
   13.7363   -7.6501    0.0000 H   0  0  0  0  0  0  0  0  0  0  0  0
    8.7988   11.5270    0.0000 H   0  0  0  0  0  0  0  0  0  0  0  0
    8.5719   12.3740    0.0000 H   0  0  0  0  0  0  0  0  0  0  0  0
    7.7249   12.1470    0.0000 H   0  0  0  0  0  0  0  0  0  0  0  0
   15.7614   -4.0335    0.0000 H   0  0  0  0  0  0  0  0  0  0  0  0
   15.7614   -4.8306    0.0000 H   0  0  0  0  0  0  0  0  0  0  0  0
    9.8445    8.5850    0.0000 H   0  0  0  0  0  0  0  0  0  0  0  0
    9.1542    8.9835    0.0000 H   0  0  0  0  0  0  0  0  0  0  0  0
   15.7232   -2.5236    0.0000 H   0  0  0  0  0  0  0  0  0  0  0  0
   11.1713    7.8631    0.0000 H   0  0  0  0  0  0  0  0  0  0  0  0
   17.5867   -1.0320    0.0000 H   0  0  0  0  0  0  0  0  0  0  0  0
   17.1182   -0.3872    0.0000 H   0  0  0  0  0  0  0  0  0  0  0  0
   12.4963    5.9742    0.0000 H   0  0  0  0  0  0  0  0  0  0  0  0
   12.0279    6.6191    0.0000 H   0  0  0  0  0  0  0  0  0  0  0  0
   15.4362   -0.5388    0.0000 H   0  0  0  0  0  0  0  0  0  0  0  0
   15.9047   -1.1836    0.0000 H   0  0  0  0  0  0  0  0  0  0  0  0
   11.3639    5.0662    0.0000 H   0  0  0  0  0  0  0  0  0  0  0  0
   11.8324    4.4214    0.0000 H   0  0  0  0  0  0  0  0  0  0  0  0
   14.4181    0.8624    0.0000 H   0  0  0  0  0  0  0  0  0  0  0  0
   14.8866    0.2176    0.0000 H   0  0  0  0  0  0  0  0  0  0  0  0
   12.3820    3.6650    0.0000 H   0  0  0  0  0  0  0  0  0  0  0  0
   12.8505    3.0201    0.0000 H   0  0  0  0  0  0  0  0  0  0  0  0
   15.5506    1.7705    0.0000 H   0  0  0  0  0  0  0  0  0  0  0  0
   15.0821    2.4153    0.0000 H   0  0  0  0  0  0  0  0  0  0  0  0
   14.5325    3.1717    0.0000 H   0  0  0  0  0  0  0  0  0  0  0  0
   14.0640    3.8166    0.0000 H   0  0  0  0  0  0  0  0  0  0  0  0
  1 50  1  0  0  0  0
  1 52  1  0  0  0  0
  2 51  1  0  0  0  0
  2 53  1  0  0  0  0
  3 54  1  0  0  0  0
  3 55  1  0  0  0  0
  4 12  1  0  0  0  0
  4 22  1  0  0  0  0
  4 24  1  0  0  0  0
  5 13  1  0  0  0  0
  5 23  1  0  0  0  0
  5 25  1  0  0  0  0
  6 10  2  0  0  0  0
  6 44  1  0  0  0  0
  7 11  2  0  0  0  0
  7 45  1  0  0  0  0
  8 10  1  0  0  0  0
  8 46  1  0  0  0  0
  8 48  1  0  0  0  0
  9 11  1  0  0  0  0
  9 47  1  0  0  0  0
  9 49  1  0  0  0  0
 12 14  1  0  0  0  0
 12 15  1  0  0  0  0
 12 56  1  0  0  0  0
 13 16  1  0  0  0  0
 13 17  1  0  0  0  0
 13 57  1  0  0  0  0
 14 18  1  0  0  0  0
 14 58  1  0  0  0  0
 14 59  1  0  0  0  0
 15 19  1  0  0  0  0
 15 60  1  0  0  0  0
 15 61  1  0  0  0  0
 16 20  1  0  0  0  0
 16 62  1  0  0  0  0
 16 63  1  0  0  0  0
 17 21  1  0  0  0  0
 17 64  1  0  0  0  0
 17 65  1  0  0  0  0
 18 19  1  0  0  0  0
 18 28  2  0  0  0  0
 19 29  2  0  0  0  0
 20 21  1  0  0  0  0
 20 30  2  0  0  0  0
 21 31  2  0  0  0  0
 22 26  1  0  0  0  0
 22 66  1  0  0  0  0
 22 67  1  0  0  0  0
 23 27  1  0  0  0  0
 23 68  1  0  0  0  0
 23 69  1  0  0  0  0
 24 32  1  0  0  0  0
 24 70  1  0  0  0  0
 24 71  1  0  0  0  0
 25 33  1  0  0  0  0
 25 72  1  0  0  0  0
 25 73  1  0  0  0  0
 26 34  1  0  0  0  0
 26 74  1  0  0  0  0
 26 75  1  0  0  0  0
 27 35  1  0  0  0  0
 27 76  1  0  0  0  0
 27 77  1  0  0  0  0
 28 36  1  0  0  0  0
 28 78  1  0  0  0  0
 29 37  1  0  0  0  0
 29 79  1  0  0  0  0
 30 38  1  0  0  0  0
 30 80  1  0  0  0  0
 31 39  1  0  0  0  0
 31 81  1  0  0  0  0
 32 40  1  0  0  0  0
 32 82  1  0  0  0  0
 32 83  1  0  0  0  0
 33 41  1  0  0  0  0
 33 84  1  0  0  0  0
 33 85  1  0  0  0  0
 34 42  1  0  0  0  0
 34 86  1  0  0  0  0
 34 87  1  0  0  0  0
 35 43  1  0  0  0  0
 35 88  1  0  0  0  0
 35 89  1  0  0  0  0
 36 37  2  0  0  0  0
 36 90  1  0  0  0  0
 37 91  1  0  0  0  0
 38 39  2  0  0  0  0
 38 92  1  0  0  0  0
 39 93  1  0  0  0  0
 40 94  1  0  0  0  0
 40 95  1  0  0  0  0
 40 96  1  0  0  0  0
 41 97  1  0  0  0  0
 41 98  1  0  0  0  0
 41 99  1  0  0  0  0
 42 44  1  0  0  0  0
 42100  1  0  0  0  0
 42101  1  0  0  0  0
 43 45  1  0  0  0  0
 43102  1  0  0  0  0
 43103  1  0  0  0  0
 44 46  2  0  0  0  0
 45 47  2  0  0  0  0
 46104  1  0  0  0  0
 47105  1  0  0  0  0
 48 50  1  0  0  0  0
 48106  1  0  0  0  0
 48107  1  0  0  0  0
 49 51  1  0  0  0  0
 49108  1  0  0  0  0
 49109  1  0  0  0  0
 50110  1  0  0  0  0
 50111  1  0  0  0  0
 51112  1  0  0  0  0
 51113  1  0  0  0  0
 52 54  1  0  0  0  0
 52114  1  0  0  0  0
 52115  1  0  0  0  0
 53 55  1  0  0  0  0
 53116  1  0  0  0  0
 53117  1  0  0  0  0
 54118  1  0  0  0  0
 54119  1  0  0  0  0
 55120  1  0  0  0  0
 55121  1  0  0  0  0
M  END
> <PUBCHEM_COMPOUND_CID>
162669593

> <PUBCHEM_COMPOUND_CANONICALIZED>
1

> <PUBCHEM_CACTVS_COMPLEXITY>
910

> <PUBCHEM_CACTVS_HBOND_ACCEPTOR>
9

> <PUBCHEM_CACTVS_HBOND_DONOR>
0

> <PUBCHEM_CACTVS_ROTATABLE_BOND>
28

> <PUBCHEM_CACTVS_SUBSKEYS>
AAADcfB/8AAAAAAAAAAAAAAAAAAAAePECAAwYAAAAAAAAGAB9AAAHgAIAAAADCjhngY+gJMIBACiAzRnRAACBAQxkgAY2AA4cIgLYCLAkRGXIAAggADayAcQgIAOgAAAAAAQAAAAAAAAACAAACAACAAAAA==

> <PUBCHEM_IUPAC_OPENEYE_NAME>
N-[4-[1-[2-[2-[2-[2-[4-[4-[indan-2-yl(propyl)amino]butyl]triazol-1-yl]ethoxy]ethoxy]ethoxy]ethyl]triazol-4-yl]butyl]-N-propyl-indan-2-amine

> <PUBCHEM_IUPAC_CAS_NAME>
N-[4-[1-[2-[2-[2-[2-[4-[4-[2,3-dihydro-1H-inden-2-yl(propyl)amino]butyl]-1-triazolyl]ethoxy]ethoxy]ethoxy]ethyl]-4-triazolyl]butyl]-N-propyl-2,3-dihydro-1H-inden-2-amine

> <PUBCHEM_IUPAC_NAME_MARKUP>
<I>N</I>-[4-[1-[2-[2-[2-[2-[4-[4-[2,3-dihydro-1<I>H</I>-inden-2-yl(propyl)amino]butyl]triazol-1-yl]ethoxy]ethoxy]ethoxy]ethyl]triazol-4-yl]butyl]-<I>N</I>-propyl-2,3-dihydro-1<I>H</I>-inden-2-amine

> <PUBCHEM_IUPAC_NAME>
N-[4-[1-[2-[2-[2-[2-[4-[4-[2,3-dihydro-1H-inden-2-yl(propyl)amino]butyl]triazol-1-yl]ethoxy]ethoxy]ethoxy]ethyl]triazol-4-yl]butyl]-N-propyl-2,3-dihydro-1H-inden-2-amine

> <PUBCHEM_IUPAC_SYSTEMATIC_NAME>
N-[4-[1-[2-[2-[2-[2-[4-[4-[2,3-dihydro-1H-inden-2-yl(propyl)amino]butyl]-1,2,3-triazol-1-yl]ethoxy]ethoxy]ethoxy]ethyl]-1,2,3-triazol-4-yl]butyl]-N-propyl-2,3-dihydro-1H-inden-2-amine

> <PUBCHEM_IUPAC_TRADITIONAL_NAME>
indan-2-yl-[4-[1-[2-[2-[2-[2-[4-[4-[indan-2-yl(propyl)amino]butyl]triazol-1-yl]ethoxy]ethoxy]ethoxy]ethyl]triazol-4-yl]butyl]-propyl-amine

> <PUBCHEM_IUPAC_INCHI>
InChI=1S/C44H66N8O3/c1-3-19-49(43-31-37-13-5-6-14-38(37)32-43)21-11-9-17-41-35-51(47-45-41)23-25-53-27-29-55-30-28-54-26-24-52-36-42(46-48-52)18-10-12-22-50(20-4-2)44-33-39-15-7-8-16-40(39)34-44/h5-8,13-16,35-36,43-44H,3-4,9-12,17-34H2,1-2H3

> <PUBCHEM_IUPAC_INCHIKEY>
ZCUTVNPWXWDEPM-UHFFFAOYSA-N

> <PUBCHEM_XLOGP3_AA>
6.6

> <PUBCHEM_EXACT_MASS>
754.52578800

> <PUBCHEM_MOLECULAR_FORMULA>
C44H66N8O3

> <PUBCHEM_MOLECULAR_WEIGHT>
755.0

> <PUBCHEM_OPENEYE_CAN_SMILES>
CCCN(CCCCC1=CN(N=N1)CCOCCOCCOCCN2C=C(N=N2)CCCCN(CCC)C3CC4=CC=CC=C4C3)C5CC6=CC=CC=C6C5

> <PUBCHEM_OPENEYE_ISO_SMILES>
CCCN(CCCCC1=CN(N=N1)CCOCCOCCOCCN2C=C(N=N2)CCCCN(CCC)C3CC4=CC=CC=C4C3)C5CC6=CC=CC=C6C5

> <PUBCHEM_CACTVS_TPSA>
95.6

> <PUBCHEM_MONOISOTOPIC_WEIGHT>
754.52578800

> <PUBCHEM_TOTAL_CHARGE>
0

> <PUBCHEM_HEAVY_ATOM_COUNT>
55

> <PUBCHEM_ATOM_DEF_STEREO_COUNT>
0

> <PUBCHEM_ATOM_UDEF_STEREO_COUNT>
0

> <PUBCHEM_BOND_DEF_STEREO_COUNT>
0

> <PUBCHEM_BOND_UDEF_STEREO_COUNT>
0

> <PUBCHEM_ISOTOPIC_ATOM_COUNT>
0

> <PUBCHEM_COMPONENT_COUNT>
1

> <PUBCHEM_CACTVS_TAUTO_COUNT>
-1

> <PUBCHEM_COORDINATE_TYPE>
1
5
255

> <PUBCHEM_BONDANNOTATIONS>
18  19  8
18  28  8
19  29  8
20  21  8
20  30  8
21  31  8
28  36  8
29  37  8
30  38  8
31  39  8
36  37  8
38  39  8
44  46  8
45  47  8
6  10  8
6  44  8
7  11  8
7  45  8
8  10  8
8  46  8
9  11  8
9  47  8

$$$$
