44267181
  -OEChem-09292322032D

 47 48  0     1  0  0  0  0  0999 V2000
    4.6660   -1.2723    0.0000 O   0  0  0  0  0  0  0  0  0  0  0  0
    2.9176    1.7623    0.0000 O   0  0  0  0  0  0  0  0  0  0  0  0
    7.2641    0.2277    0.0000 N   0  0  0  0  0  0  0  0  0  0  0  0
    5.5321    0.2277    0.0000 C   0  0  3  0  0  0  0  0  0  0  0  0
    6.3981    0.7277    0.0000 C   0  0  0  0  0  0  0  0  0  0  0  0
    4.6660    0.7277    0.0000 C   0  0  0  0  0  0  0  0  0  0  0  0
    5.5321   -0.7723    0.0000 C   0  0  0  0  0  0  0  0  0  0  0  0
    3.8000    0.2277    0.0000 C   0  0  0  0  0  0  0  0  0  0  0  0
    8.1301    0.7277    0.0000 C   0  0  0  0  0  0  0  0  0  0  0  0
    7.2641   -0.7723    0.0000 C   0  0  0  0  0  0  0  0  0  0  0  0
    3.8000   -0.7723    0.0000 C   0  0  0  0  0  0  0  0  0  0  0  0
    8.9962    0.2277    0.0000 C   0  0  0  0  0  0  0  0  0  0  0  0
    8.1301   -1.2723    0.0000 C   0  0  0  0  0  0  0  0  0  0  0  0
    2.9061    0.7624    0.0000 C   0  0  0  0  0  0  0  0  0  0  0  0
    2.9061   -1.3070    0.0000 C   0  0  0  0  0  0  0  0  0  0  0  0
    2.0000    0.2485    0.0000 C   0  0  0  0  0  0  0  0  0  0  0  0
    9.8622    0.7277    0.0000 C   0  0  0  0  0  0  0  0  0  0  0  0
    8.1301   -2.2723    0.0000 C   0  0  0  0  0  0  0  0  0  0  0  0
    2.0000   -0.7931    0.0000 C   0  0  0  0  0  0  0  0  0  0  0  0
    2.0574    2.2723    0.0000 C   0  0  0  0  0  0  0  0  0  0  0  0
    5.5321    0.8477    0.0000 H   0  0  0  0  0  0  0  0  0  0  0  0
    6.7966    1.2027    0.0000 H   0  0  0  0  0  0  0  0  0  0  0  0
    5.9996    1.2027    0.0000 H   0  0  0  0  0  0  0  0  0  0  0  0
    5.0646    1.2027    0.0000 H   0  0  0  0  0  0  0  0  0  0  0  0
    4.2675    1.2027    0.0000 H   0  0  0  0  0  0  0  0  0  0  0  0
    5.7441   -1.3549    0.0000 H   0  0  0  0  0  0  0  0  0  0  0  0
    6.1426   -0.6646    0.0000 H   0  0  0  0  0  0  0  0  0  0  0  0
    8.5287    1.2027    0.0000 H   0  0  0  0  0  0  0  0  0  0  0  0
    7.7316    1.2027    0.0000 H   0  0  0  0  0  0  0  0  0  0  0  0
    6.6535   -0.6646    0.0000 H   0  0  0  0  0  0  0  0  0  0  0  0
    7.0521   -1.3549    0.0000 H   0  0  0  0  0  0  0  0  0  0  0  0
    8.5976   -0.2472    0.0000 H   0  0  0  0  0  0  0  0  0  0  0  0
    9.3947   -0.2472    0.0000 H   0  0  0  0  0  0  0  0  0  0  0  0
    8.7407   -1.3800    0.0000 H   0  0  0  0  0  0  0  0  0  0  0  0
    8.3422   -0.6897    0.0000 H   0  0  0  0  0  0  0  0  0  0  0  0
    2.9132   -1.9269    0.0000 H   0  0  0  0  0  0  0  0  0  0  0  0
    1.4643    0.5606    0.0000 H   0  0  0  0  0  0  0  0  0  0  0  0
   10.1722    0.1908    0.0000 H   0  0  0  0  0  0  0  0  0  0  0  0
   10.3991    1.0377    0.0000 H   0  0  0  0  0  0  0  0  0  0  0  0
    9.5522    1.2646    0.0000 H   0  0  0  0  0  0  0  0  0  0  0  0
    7.5101   -2.2723    0.0000 H   0  0  0  0  0  0  0  0  0  0  0  0
    8.1301   -2.8923    0.0000 H   0  0  0  0  0  0  0  0  0  0  0  0
    8.7501   -2.2723    0.0000 H   0  0  0  0  0  0  0  0  0  0  0  0
    1.4643   -1.1052    0.0000 H   0  0  0  0  0  0  0  0  0  0  0  0
    2.3736    2.8056    0.0000 H   0  0  0  0  0  0  0  0  0  0  0  0
    1.5241    2.5885    0.0000 H   0  0  0  0  0  0  0  0  0  0  0  0
    1.7413    1.7390    0.0000 H   0  0  0  0  0  0  0  0  0  0  0  0
  1  7  1  0  0  0  0
  1 11  1  0  0  0  0
  2 14  1  0  0  0  0
  2 20  1  0  0  0  0
  3  5  1  0  0  0  0
  3  9  1  0  0  0  0
  3 10  1  0  0  0  0
  4  5  1  0  0  0  0
  4  6  1  0  0  0  0
  4  7  1  0  0  0  0
  4 21  1  0  0  0  0
  5 22  1  0  0  0  0
  5 23  1  0  0  0  0
  6  8  1  0  0  0  0
  6 24  1  0  0  0  0
  6 25  1  0  0  0  0
  7 26  1  0  0  0  0
  7 27  1  0  0  0  0
  8 11  2  0  0  0  0
  8 14  1  0  0  0  0
  9 12  1  0  0  0  0
  9 28  1  0  0  0  0
  9 29  1  0  0  0  0
 10 13  1  0  0  0  0
 10 30  1  0  0  0  0
 10 31  1  0  0  0  0
 11 15  1  0  0  0  0
 12 17  1  0  0  0  0
 12 32  1  0  0  0  0
 12 33  1  0  0  0  0
 13 18  1  0  0  0  0
 13 34  1  0  0  0  0
 13 35  1  0  0  0  0
 14 16  2  0  0  0  0
 15 19  2  0  0  0  0
 15 36  1  0  0  0  0
 16 19  1  0  0  0  0
 16 37  1  0  0  0  0
 17 38  1  0  0  0  0
 17 39  1  0  0  0  0
 17 40  1  0  0  0  0
 18 41  1  0  0  0  0
 18 42  1  0  0  0  0
 18 43  1  0  0  0  0
 19 44  1  0  0  0  0
 20 45  1  0  0  0  0
 20 46  1  0  0  0  0
 20 47  1  0  0  0  0
M  END
> <PUBCHEM_COMPOUND_CID>
44267181

> <PUBCHEM_COMPOUND_CANONICALIZED>
1

> <PUBCHEM_CACTVS_COMPLEXITY>
266

> <PUBCHEM_CACTVS_HBOND_ACCEPTOR>
3

> <PUBCHEM_CACTVS_HBOND_DONOR>
0

> <PUBCHEM_CACTVS_ROTATABLE_BOND>
7

> <PUBCHEM_CACTVS_SUBSKEYS>
AAADceB6MAAAAAAAAAAAAAAAAAAAAAAAAAA0QAAAAAAAAACRAAAAHgAAAAAADQThmAYyBoMABACAAiBCAAACCAAgIAAIiAAOCIgMJyKEsRqGOCCnwBWIqAeQ8O4OAAAACAAIAAAAAAAQABAAAAAAAAAAAA==

> <PUBCHEM_IUPAC_OPENEYE_NAME>
N-[(5-methoxychroman-3-yl)methyl]-N-propyl-propan-1-amine

> <PUBCHEM_IUPAC_CAS_NAME>
N-[(5-methoxy-3,4-dihydro-2H-1-benzopyran-3-yl)methyl]-N-propyl-1-propanamine

> <PUBCHEM_IUPAC_NAME_MARKUP>
<I>N</I>-[(5-methoxy-3,4-dihydro-2<I>H</I>-chromen-3-yl)methyl]-<I>N</I>-propylpropan-1-amine

> <PUBCHEM_IUPAC_NAME>
N-[(5-methoxy-3,4-dihydro-2H-chromen-3-yl)methyl]-N-propylpropan-1-amine

> <PUBCHEM_IUPAC_SYSTEMATIC_NAME>
N-[(5-methoxy-3,4-dihydro-2H-chromen-3-yl)methyl]-N-propyl-propan-1-amine

> <PUBCHEM_IUPAC_TRADITIONAL_NAME>
(5-methoxychroman-3-yl)methyl-dipropyl-amine

> <PUBCHEM_IUPAC_INCHI>
InChI=1S/C17H27NO2/c1-4-9-18(10-5-2)12-14-11-15-16(19-3)7-6-8-17(15)20-13-14/h6-8,14H,4-5,9-13H2,1-3H3

> <PUBCHEM_IUPAC_INCHIKEY>
BMXRASUARGEUDH-UHFFFAOYSA-N

> <PUBCHEM_XLOGP3_AA>
4

> <PUBCHEM_EXACT_MASS>
277.204179104

> <PUBCHEM_MOLECULAR_FORMULA>
C17H27NO2

> <PUBCHEM_MOLECULAR_WEIGHT>
277.4

> <PUBCHEM_OPENEYE_CAN_SMILES>
CCCN(CCC)CC1CC2=C(C=CC=C2OC)OC1

> <PUBCHEM_OPENEYE_ISO_SMILES>
CCCN(CCC)CC1CC2=C(C=CC=C2OC)OC1

> <PUBCHEM_CACTVS_TPSA>
21.7

> <PUBCHEM_MONOISOTOPIC_WEIGHT>
277.204179104

> <PUBCHEM_TOTAL_CHARGE>
0

> <PUBCHEM_HEAVY_ATOM_COUNT>
20

> <PUBCHEM_ATOM_DEF_STEREO_COUNT>
0

> <PUBCHEM_ATOM_UDEF_STEREO_COUNT>
1

> <PUBCHEM_BOND_DEF_STEREO_COUNT>
0

> <PUBCHEM_BOND_UDEF_STEREO_COUNT>
0

> <PUBCHEM_ISOTOPIC_ATOM_COUNT>
0

> <PUBCHEM_COMPONENT_COUNT>
1

> <PUBCHEM_CACTVS_TAUTO_COUNT>
-1

> <PUBCHEM_COORDINATE_TYPE>
1
5
255

> <PUBCHEM_BONDANNOTATIONS>
11  15  8
14  16  8
15  19  8
16  19  8
4  5  3
8  11  8
8  14  8

$$$$
