15034333
  -OEChem-09292322502D

 35 36  0     0  0  0  0  0  0999 V2000
    2.8660   -0.3450    0.0000 O   0  0  0  0  0  0  0  0  0  0  0  0
    2.8660   -4.3450    0.0000 O   0  0  0  0  0  0  0  0  0  0  0  0
    4.5981    1.6550    0.0000 N   0  0  0  0  0  0  0  0  0  0  0  0
    3.7320    1.1550    0.0000 C   0  0  0  0  0  0  0  0  0  0  0  0
    4.5981    2.6550    0.0000 C   0  0  0  0  0  0  0  0  0  0  0  0
    3.7320    0.1550    0.0000 C   0  0  0  0  0  0  0  0  0  0  0  0
    5.4641    3.1550    0.0000 C   0  0  0  0  0  0  0  0  0  0  0  0
    5.4641    4.1550    0.0000 C   0  0  0  0  0  0  0  0  0  0  0  0
    6.3301    2.6550    0.0000 C   0  0  0  0  0  0  0  0  0  0  0  0
    2.8660   -1.3450    0.0000 C   0  0  0  0  0  0  0  0  0  0  0  0
    6.3301    4.6550    0.0000 C   0  0  0  0  0  0  0  0  0  0  0  0
    7.1962    3.1550    0.0000 C   0  0  0  0  0  0  0  0  0  0  0  0
    7.1962    4.1550    0.0000 C   0  0  0  0  0  0  0  0  0  0  0  0
    2.0000   -1.8450    0.0000 C   0  0  0  0  0  0  0  0  0  0  0  0
    3.7320   -1.8450    0.0000 C   0  0  0  0  0  0  0  0  0  0  0  0
    2.0000   -2.8450    0.0000 C   0  0  0  0  0  0  0  0  0  0  0  0
    3.7320   -2.8450    0.0000 C   0  0  0  0  0  0  0  0  0  0  0  0
    2.8660   -3.3450    0.0000 C   0  0  0  0  0  0  0  0  0  0  0  0
    3.5200    1.7376    0.0000 H   0  0  0  0  0  0  0  0  0  0  0  0
    3.1215    1.0473    0.0000 H   0  0  0  0  0  0  0  0  0  0  0  0
    4.3860    3.2376    0.0000 H   0  0  0  0  0  0  0  0  0  0  0  0
    3.9875    2.5473    0.0000 H   0  0  0  0  0  0  0  0  0  0  0  0
    5.1350    1.3450    0.0000 H   0  0  0  0  0  0  0  0  0  0  0  0
    3.9441   -0.4276    0.0000 H   0  0  0  0  0  0  0  0  0  0  0  0
    4.3426    0.2627    0.0000 H   0  0  0  0  0  0  0  0  0  0  0  0
    4.9272    4.4650    0.0000 H   0  0  0  0  0  0  0  0  0  0  0  0
    6.3301    2.0350    0.0000 H   0  0  0  0  0  0  0  0  0  0  0  0
    6.3301    5.2750    0.0000 H   0  0  0  0  0  0  0  0  0  0  0  0
    7.7331    2.8450    0.0000 H   0  0  0  0  0  0  0  0  0  0  0  0
    7.7331    4.4650    0.0000 H   0  0  0  0  0  0  0  0  0  0  0  0
    1.4631   -1.5350    0.0000 H   0  0  0  0  0  0  0  0  0  0  0  0
    4.2690   -1.5350    0.0000 H   0  0  0  0  0  0  0  0  0  0  0  0
    1.4631   -3.1550    0.0000 H   0  0  0  0  0  0  0  0  0  0  0  0
    4.2690   -3.1550    0.0000 H   0  0  0  0  0  0  0  0  0  0  0  0
    2.3291   -4.6550    0.0000 H   0  0  0  0  0  0  0  0  0  0  0  0
  1  6  1  0  0  0  0
  1 10  1  0  0  0  0
  2 18  1  0  0  0  0
  2 35  1  0  0  0  0
  3  4  1  0  0  0  0
  3  5  1  0  0  0  0
  3 23  1  0  0  0  0
  4  6  1  0  0  0  0
  4 19  1  0  0  0  0
  4 20  1  0  0  0  0
  5  7  1  0  0  0  0
  5 21  1  0  0  0  0
  5 22  1  0  0  0  0
  6 24  1  0  0  0  0
  6 25  1  0  0  0  0
  7  8  2  0  0  0  0
  7  9  1  0  0  0  0
  8 11  1  0  0  0  0
  8 26  1  0  0  0  0
  9 12  2  0  0  0  0
  9 27  1  0  0  0  0
 10 14  2  0  0  0  0
 10 15  1  0  0  0  0
 11 13  2  0  0  0  0
 11 28  1  0  0  0  0
 12 13  1  0  0  0  0
 12 29  1  0  0  0  0
 13 30  1  0  0  0  0
 14 16  1  0  0  0  0
 14 31  1  0  0  0  0
 15 17  2  0  0  0  0
 15 32  1  0  0  0  0
 16 18  2  0  0  0  0
 16 33  1  0  0  0  0
 17 18  1  0  0  0  0
 17 34  1  0  0  0  0
M  END
> <PUBCHEM_COMPOUND_CID>
15034333

> <PUBCHEM_COMPOUND_CANONICALIZED>
1

> <PUBCHEM_CACTVS_COMPLEXITY>
209

> <PUBCHEM_CACTVS_HBOND_ACCEPTOR>
3

> <PUBCHEM_CACTVS_HBOND_DONOR>
2

> <PUBCHEM_CACTVS_ROTATABLE_BOND>
6

> <PUBCHEM_CACTVS_SUBSKEYS>
AAADceByMAAAAAAAAAAAAAAAAAAAAAAAAAAwYAAAAAAAAAABQAAAHgAQCAAADAThmAYwBoLABgCAAiBCAACCCAAgIAAIiIAODIgOJiKGsRuHeCjk0BGYuAfQwAAOAQAAAAAAAAACAAAAAAAAAAAAAAAAAA==

> <PUBCHEM_IUPAC_OPENEYE_NAME>
4-[2-(benzylamino)ethoxy]phenol

> <PUBCHEM_IUPAC_CAS_NAME>
4-[2-[(phenylmethyl)amino]ethoxy]phenol

> <PUBCHEM_IUPAC_NAME_MARKUP>
4-[2-(benzylamino)ethoxy]phenol

> <PUBCHEM_IUPAC_NAME>
4-[2-(benzylamino)ethoxy]phenol

> <PUBCHEM_IUPAC_SYSTEMATIC_NAME>
4-[2-[(phenylmethyl)amino]ethoxy]phenol

> <PUBCHEM_IUPAC_TRADITIONAL_NAME>
4-[2-(benzylamino)ethoxy]phenol

> <PUBCHEM_IUPAC_INCHI>
InChI=1S/C15H17NO2/c17-14-6-8-15(9-7-14)18-11-10-16-12-13-4-2-1-3-5-13/h1-9,16-17H,10-12H2

> <PUBCHEM_IUPAC_INCHIKEY>
JADOYZZQMNOBML-UHFFFAOYSA-N

> <PUBCHEM_XLOGP3_AA>
2.6

> <PUBCHEM_EXACT_MASS>
243.125928785

> <PUBCHEM_MOLECULAR_FORMULA>
C15H17NO2

> <PUBCHEM_MOLECULAR_WEIGHT>
243.30

> <PUBCHEM_OPENEYE_CAN_SMILES>
C1=CC=C(C=C1)CNCCOC2=CC=C(C=C2)O

> <PUBCHEM_OPENEYE_ISO_SMILES>
C1=CC=C(C=C1)CNCCOC2=CC=C(C=C2)O

> <PUBCHEM_CACTVS_TPSA>
41.5

> <PUBCHEM_MONOISOTOPIC_WEIGHT>
243.125928785

> <PUBCHEM_TOTAL_CHARGE>
0

> <PUBCHEM_HEAVY_ATOM_COUNT>
18

> <PUBCHEM_ATOM_DEF_STEREO_COUNT>
0

> <PUBCHEM_ATOM_UDEF_STEREO_COUNT>
0

> <PUBCHEM_BOND_DEF_STEREO_COUNT>
0

> <PUBCHEM_BOND_UDEF_STEREO_COUNT>
0

> <PUBCHEM_ISOTOPIC_ATOM_COUNT>
0

> <PUBCHEM_COMPONENT_COUNT>
1

> <PUBCHEM_CACTVS_TAUTO_COUNT>
-1

> <PUBCHEM_COORDINATE_TYPE>
1
5
255

> <PUBCHEM_BONDANNOTATIONS>
10  14  8
10  15  8
11  13  8
12  13  8
14  16  8
15  17  8
16  18  8
17  18  8
7  8  8
7  9  8
8  11  8
9  12  8

$$$$
