71658208
  -OEChem-09292322332D

 67 69  0     1  0  0  0  0  0999 V2000
    2.8660   -4.6123    0.0000 O   0  0  0  0  0  0  0  0  0  0  0  0
    3.7126    3.6852    0.0000 O   0  0  0  0  0  0  0  0  0  0  0  0
    6.7042    3.9094    0.0000 O   0  0  0  0  0  0  0  0  0  0  0  0
    7.5719    5.7114    0.0000 O   0  0  0  0  0  0  0  0  0  0  0  0
    5.0981   -1.4217    0.0000 N   0  0  3  0  0  0  0  0  0  0  0  0
    4.5981   -3.6123    0.0000 N   0  0  3  0  0  0  0  0  0  0  0  0
    5.2731    2.9337    0.0000 N   0  0  0  0  0  0  0  0  0  0  0  0
    4.0981   -1.4217    0.0000 C   0  0  0  0  0  0  0  0  0  0  0  0
    5.7216   -2.2035    0.0000 C   0  0  0  0  0  0  0  0  0  0  0  0
    3.4746   -2.2035    0.0000 C   0  0  0  0  0  0  0  0  0  0  0  0
    5.4990   -3.1784    0.0000 C   0  0  0  0  0  0  0  0  0  0  0  0
    3.6971   -3.1784    0.0000 C   0  0  0  0  0  0  0  0  0  0  0  0
    5.5320   -0.5207    0.0000 C   0  0  0  0  0  0  0  0  0  0  0  0
    4.9686    0.3055    0.0000 C   0  0  0  0  0  0  0  0  0  0  0  0
    4.5981   -4.6123    0.0000 C   0  0  0  0  0  0  0  0  0  0  0  0
    5.4025    1.2065    0.0000 C   0  0  0  0  0  0  0  0  0  0  0  0
    4.8392    2.0327    0.0000 C   0  0  0  0  0  0  0  0  0  0  0  0
    3.7320   -5.1123    0.0000 C   0  0  0  0  0  0  0  0  0  0  0  0
    5.4641   -5.1123    0.0000 C   0  0  0  0  0  0  0  0  0  0  0  0
    3.7320   -6.1123    0.0000 C   0  0  0  0  0  0  0  0  0  0  0  0
    5.4641   -6.1123    0.0000 C   0  0  0  0  0  0  0  0  0  0  0  0
    4.5981   -6.6123    0.0000 C   0  0  0  0  0  0  0  0  0  0  0  0
    4.7098    3.7600    0.0000 C   0  0  0  0  0  0  0  0  0  0  0  0
    2.0000   -5.1123    0.0000 C   0  0  0  0  0  0  0  0  0  0  0  0
    5.1436    4.6609    0.0000 C   0  0  0  0  0  0  0  0  0  0  0  0
    6.1408    4.7356    0.0000 C   0  0  0  0  0  0  0  0  0  0  0  0
    4.5803    5.4872    0.0000 C   0  0  0  0  0  0  0  0  0  0  0  0
    6.5747    5.6366    0.0000 C   0  0  0  0  0  0  0  0  0  0  0  0
    5.0142    6.3881    0.0000 C   0  0  0  0  0  0  0  0  0  0  0  0
    6.0114    6.4629    0.0000 C   0  0  0  0  0  0  0  0  0  0  0  0
    7.7014    3.9841    0.0000 C   0  0  0  0  0  0  0  0  0  0  0  0
    8.0058    6.6123    0.0000 C   0  0  0  0  0  0  0  0  0  0  0  0
    4.2360   -0.8172    0.0000 H   0  0  0  0  0  0  0  0  0  0  0  0
    3.5395   -1.1527    0.0000 H   0  0  0  0  0  0  0  0  0  0  0  0
    6.2802   -2.4725    0.0000 H   0  0  0  0  0  0  0  0  0  0  0  0
    6.1081   -1.7188    0.0000 H   0  0  0  0  0  0  0  0  0  0  0  0
    3.0880   -1.7188    0.0000 H   0  0  0  0  0  0  0  0  0  0  0  0
    2.9160   -2.4725    0.0000 H   0  0  0  0  0  0  0  0  0  0  0  0
    5.6370   -3.7829    0.0000 H   0  0  0  0  0  0  0  0  0  0  0  0
    6.1190   -3.1784    0.0000 H   0  0  0  0  0  0  0  0  0  0  0  0
    3.0771   -3.1784    0.0000 H   0  0  0  0  0  0  0  0  0  0  0  0
    3.5591   -3.7829    0.0000 H   0  0  0  0  0  0  0  0  0  0  0  0
    6.0354   -0.8826    0.0000 H   0  0  0  0  0  0  0  0  0  0  0  0
    5.9758   -0.0878    0.0000 H   0  0  0  0  0  0  0  0  0  0  0  0
    4.4652    0.6675    0.0000 H   0  0  0  0  0  0  0  0  0  0  0  0
    4.5248   -0.1274    0.0000 H   0  0  0  0  0  0  0  0  0  0  0  0
    5.9059    0.8446    0.0000 H   0  0  0  0  0  0  0  0  0  0  0  0
    5.8464    1.6394    0.0000 H   0  0  0  0  0  0  0  0  0  0  0  0
    4.3358    2.3947    0.0000 H   0  0  0  0  0  0  0  0  0  0  0  0
    4.3954    1.5998    0.0000 H   0  0  0  0  0  0  0  0  0  0  0  0
    6.0010   -4.8023    0.0000 H   0  0  0  0  0  0  0  0  0  0  0  0
    3.1951   -6.4223    0.0000 H   0  0  0  0  0  0  0  0  0  0  0  0
    5.8914    2.9800    0.0000 H   0  0  0  0  0  0  0  0  0  0  0  0
    6.0010   -6.4223    0.0000 H   0  0  0  0  0  0  0  0  0  0  0  0
    4.5981   -7.2323    0.0000 H   0  0  0  0  0  0  0  0  0  0  0  0
    1.6900   -4.5754    0.0000 H   0  0  0  0  0  0  0  0  0  0  0  0
    1.4631   -5.4223    0.0000 H   0  0  0  0  0  0  0  0  0  0  0  0
    2.3100   -5.6492    0.0000 H   0  0  0  0  0  0  0  0  0  0  0  0
    3.9621    5.4408    0.0000 H   0  0  0  0  0  0  0  0  0  0  0  0
    4.6650    6.9004    0.0000 H   0  0  0  0  0  0  0  0  0  0  0  0
    6.2804    7.0215    0.0000 H   0  0  0  0  0  0  0  0  0  0  0  0
    7.7477    3.3659    0.0000 H   0  0  0  0  0  0  0  0  0  0  0  0
    8.3196    4.0305    0.0000 H   0  0  0  0  0  0  0  0  0  0  0  0
    7.6550    4.6024    0.0000 H   0  0  0  0  0  0  0  0  0  0  0  0
    8.5644    6.3433    0.0000 H   0  0  0  0  0  0  0  0  0  0  0  0
    8.2748    7.1709    0.0000 H   0  0  0  0  0  0  0  0  0  0  0  0
    7.4472    6.8813    0.0000 H   0  0  0  0  0  0  0  0  0  0  0  0
  1 18  1  0  0  0  0
  1 24  1  0  0  0  0
  2 23  2  0  0  0  0
  3 26  1  0  0  0  0
  3 31  1  0  0  0  0
  4 28  1  0  0  0  0
  4 32  1  0  0  0  0
  5  8  1  0  0  0  0
  5  9  1  0  0  0  0
  5 13  1  0  0  0  0
  6 11  1  0  0  0  0
  6 12  1  0  0  0  0
  6 15  1  0  0  0  0
  7 17  1  0  0  0  0
  7 23  1  0  0  0  0
  7 53  1  0  0  0  0
  8 10  1  0  0  0  0
  8 33  1  0  0  0  0
  8 34  1  0  0  0  0
  9 11  1  0  0  0  0
  9 35  1  0  0  0  0
  9 36  1  0  0  0  0
 10 12  1  0  0  0  0
 10 37  1  0  0  0  0
 10 38  1  0  0  0  0
 11 39  1  0  0  0  0
 11 40  1  0  0  0  0
 12 41  1  0  0  0  0
 12 42  1  0  0  0  0
 13 14  1  0  0  0  0
 13 43  1  0  0  0  0
 13 44  1  0  0  0  0
 14 16  1  0  0  0  0
 14 45  1  0  0  0  0
 14 46  1  0  0  0  0
 15 18  1  0  0  0  0
 15 19  2  0  0  0  0
 16 17  1  0  0  0  0
 16 47  1  0  0  0  0
 16 48  1  0  0  0  0
 17 49  1  0  0  0  0
 17 50  1  0  0  0  0
 18 20  2  0  0  0  0
 19 21  1  0  0  0  0
 19 51  1  0  0  0  0
 20 22  1  0  0  0  0
 20 52  1  0  0  0  0
 21 22  2  0  0  0  0
 21 54  1  0  0  0  0
 22 55  1  0  0  0  0
 23 25  1  0  0  0  0
 24 56  1  0  0  0  0
 24 57  1  0  0  0  0
 24 58  1  0  0  0  0
 25 26  2  0  0  0  0
 25 27  1  0  0  0  0
 26 28  1  0  0  0  0
 27 29  2  0  0  0  0
 27 59  1  0  0  0  0
 28 30  2  0  0  0  0
 29 30  1  0  0  0  0
 29 60  1  0  0  0  0
 30 61  1  0  0  0  0
 31 62  1  0  0  0  0
 31 63  1  0  0  0  0
 31 64  1  0  0  0  0
 32 65  1  0  0  0  0
 32 66  1  0  0  0  0
 32 67  1  0  0  0  0
M  END
> <PUBCHEM_COMPOUND_CID>
71658208

> <PUBCHEM_COMPOUND_CANONICALIZED>
1

> <PUBCHEM_CACTVS_COMPLEXITY>
549

> <PUBCHEM_CACTVS_HBOND_ACCEPTOR>
6

> <PUBCHEM_CACTVS_HBOND_DONOR>
1

> <PUBCHEM_CACTVS_ROTATABLE_BOND>
10

> <PUBCHEM_CACTVS_SUBSKEYS>
AAADcfB7OAAAAAAAAAAAAAAAAAAAAAAAAAAwYAAABYAAAAABQAAAHgAQAAAADAzBmAYyxoPABACIAiVSUACCCAAlIgAIiIEP7MgPZjbE9ZuVMWpm9hHa6Ye6yDCOAAABAAAIUAAAAAIAABCgAAAAAAAAAA==

> <PUBCHEM_IUPAC_OPENEYE_NAME>
2,3-dimethoxy-N-[4-[4-(2-methoxyphenyl)-1,4-diazepan-1-yl]butyl]benzamide

> <PUBCHEM_IUPAC_CAS_NAME>
2,3-dimethoxy-N-[4-[4-(2-methoxyphenyl)-1,4-diazepan-1-yl]butyl]benzamide

> <PUBCHEM_IUPAC_NAME_MARKUP>
2,3-dimethoxy-<I>N</I>-[4-[4-(2-methoxyphenyl)-1,4-diazepan-1-yl]butyl]benzamide

> <PUBCHEM_IUPAC_NAME>
2,3-dimethoxy-N-[4-[4-(2-methoxyphenyl)-1,4-diazepan-1-yl]butyl]benzamide

> <PUBCHEM_IUPAC_SYSTEMATIC_NAME>
2,3-dimethoxy-N-[4-[4-(2-methoxyphenyl)-1,4-diazepan-1-yl]butyl]benzamide

> <PUBCHEM_IUPAC_TRADITIONAL_NAME>
2,3-dimethoxy-N-[4-[4-(2-methoxyphenyl)-1,4-diazepan-1-yl]butyl]benzamide

> <PUBCHEM_IUPAC_INCHI>
InChI=1S/C25H35N3O4/c1-30-22-12-5-4-11-21(22)28-17-9-16-27(18-19-28)15-7-6-14-26-25(29)20-10-8-13-23(31-2)24(20)32-3/h4-5,8,10-13H,6-7,9,14-19H2,1-3H3,(H,26,29)

> <PUBCHEM_IUPAC_INCHIKEY>
IVQSQRPBZRNZBV-UHFFFAOYSA-N

> <PUBCHEM_XLOGP3_AA>
3.8

> <PUBCHEM_EXACT_MASS>
441.26275661

> <PUBCHEM_MOLECULAR_FORMULA>
C25H35N3O4

> <PUBCHEM_MOLECULAR_WEIGHT>
441.6

> <PUBCHEM_OPENEYE_CAN_SMILES>
COC1=CC=CC=C1N2CCCN(CC2)CCCCNC(=O)C3=C(C(=CC=C3)OC)OC

> <PUBCHEM_OPENEYE_ISO_SMILES>
COC1=CC=CC=C1N2CCCN(CC2)CCCCNC(=O)C3=C(C(=CC=C3)OC)OC

> <PUBCHEM_CACTVS_TPSA>
63.3

> <PUBCHEM_MONOISOTOPIC_WEIGHT>
441.26275661

> <PUBCHEM_TOTAL_CHARGE>
0

> <PUBCHEM_HEAVY_ATOM_COUNT>
32

> <PUBCHEM_ATOM_DEF_STEREO_COUNT>
0

> <PUBCHEM_ATOM_UDEF_STEREO_COUNT>
0

> <PUBCHEM_BOND_DEF_STEREO_COUNT>
0

> <PUBCHEM_BOND_UDEF_STEREO_COUNT>
0

> <PUBCHEM_ISOTOPIC_ATOM_COUNT>
0

> <PUBCHEM_COMPONENT_COUNT>
1

> <PUBCHEM_CACTVS_TAUTO_COUNT>
-1

> <PUBCHEM_COORDINATE_TYPE>
1
5
255

> <PUBCHEM_BONDANNOTATIONS>
15  18  8
15  19  8
18  20  8
19  21  8
20  22  8
21  22  8
25  26  8
25  27  8
26  28  8
27  29  8
28  30  8
29  30  8

$$$$
