9843032
  -OEChem-09292322162D

 53 56  0     1  0  0  0  0  0999 V2000
   11.1241   -3.9028    0.0000 Cl  0  0  0  0  0  0  0  0  0  0  0  0
    4.3211    0.1861    0.0000 O   0  0  0  0  0  0  0  0  0  0  0  0
    6.2781   -0.2264    0.0000 N   0  0  0  0  0  0  0  0  0  0  0  0
    6.8994   -2.1274    0.0000 N   0  0  0  0  0  0  0  0  0  0  0  0
    4.6783    1.8809    0.0000 N   0  0  0  0  0  0  0  0  0  0  0  0
    4.6783    3.4904    0.0000 C   0  0  3  0  0  0  0  0  0  0  0  0
    5.6103   -0.9707    0.0000 C   0  0  0  0  0  0  0  0  0  0  0  0
    7.2566   -0.4326    0.0000 C   0  0  0  0  0  0  0  0  0  0  0  0
    5.2619    2.6856    0.0000 C   0  0  0  0  0  0  0  0  0  0  0  0
    5.9209   -1.9212    0.0000 C   0  0  0  0  0  0  0  0  0  0  0  0
    7.5673   -1.3831    0.0000 C   0  0  0  0  0  0  0  0  0  0  0  0
    5.9674    0.7242    0.0000 C   0  0  0  0  0  0  0  0  0  0  0  0
    3.7320    3.1856    0.0000 C   0  0  0  0  0  0  0  0  0  0  0  0
    3.7320    2.1856    0.0000 C   0  0  0  0  0  0  0  0  0  0  0  0
    4.9889    0.9304    0.0000 C   0  0  0  0  0  0  0  0  0  0  0  0
    7.2101   -3.0779    0.0000 C   0  0  0  0  0  0  0  0  0  0  0  0
    4.9889    4.4409    0.0000 C   0  0  0  0  0  0  0  0  0  0  0  0
    2.8660    3.6856    0.0000 C   0  0  0  0  0  0  0  0  0  0  0  0
    2.8660    1.6856    0.0000 C   0  0  0  0  0  0  0  0  0  0  0  0
    8.1886   -3.2841    0.0000 C   0  0  0  0  0  0  0  0  0  0  0  0
    2.0000    3.1856    0.0000 C   0  0  0  0  0  0  0  0  0  0  0  0
    2.0000    2.1856    0.0000 C   0  0  0  0  0  0  0  0  0  0  0  0
    8.8564   -2.5398    0.0000 C   0  0  0  0  0  0  0  0  0  0  0  0
    8.4993   -4.2347    0.0000 C   0  0  0  0  0  0  0  0  0  0  0  0
    9.8349   -2.7461    0.0000 C   0  0  0  0  0  0  0  0  0  0  0  0
    9.4778   -4.4409    0.0000 C   0  0  0  0  0  0  0  0  0  0  0  0
   10.1456   -3.6966    0.0000 C   0  0  0  0  0  0  0  0  0  0  0  0
    5.2908    3.5866    0.0000 H   0  0  0  0  0  0  0  0  0  0  0  0
    5.2277   -0.4828    0.0000 H   0  0  0  0  0  0  0  0  0  0  0  0
    5.0633   -1.2627    0.0000 H   0  0  0  0  0  0  0  0  0  0  0  0
    7.8704   -0.3452    0.0000 H   0  0  0  0  0  0  0  0  0  0  0  0
    7.2772    0.1871    0.0000 H   0  0  0  0  0  0  0  0  0  0  0  0
    5.7227    2.2709    0.0000 H   0  0  0  0  0  0  0  0  0  0  0  0
    5.7227    3.1004    0.0000 H   0  0  0  0  0  0  0  0  0  0  0  0
    5.3071   -2.0085    0.0000 H   0  0  0  0  0  0  0  0  0  0  0  0
    5.9004   -2.5408    0.0000 H   0  0  0  0  0  0  0  0  0  0  0  0
    7.9498   -1.8710    0.0000 H   0  0  0  0  0  0  0  0  0  0  0  0
    8.1142   -1.0911    0.0000 H   0  0  0  0  0  0  0  0  0  0  0  0
    6.5812    0.8115    0.0000 H   0  0  0  0  0  0  0  0  0  0  0  0
    5.9880    1.3438    0.0000 H   0  0  0  0  0  0  0  0  0  0  0  0
    6.5963   -3.1653    0.0000 H   0  0  0  0  0  0  0  0  0  0  0  0
    7.1895   -3.6976    0.0000 H   0  0  0  0  0  0  0  0  0  0  0  0
    5.5783    4.2483    0.0000 H   0  0  0  0  0  0  0  0  0  0  0  0
    5.1815    5.0302    0.0000 H   0  0  0  0  0  0  0  0  0  0  0  0
    4.3996    4.6335    0.0000 H   0  0  0  0  0  0  0  0  0  0  0  0
    2.8660    4.3056    0.0000 H   0  0  0  0  0  0  0  0  0  0  0  0
    2.8660    1.0656    0.0000 H   0  0  0  0  0  0  0  0  0  0  0  0
    1.4631    3.4956    0.0000 H   0  0  0  0  0  0  0  0  0  0  0  0
    1.4631    1.8756    0.0000 H   0  0  0  0  0  0  0  0  0  0  0  0
    8.6638   -1.9505    0.0000 H   0  0  0  0  0  0  0  0  0  0  0  0
    8.0852   -4.6961    0.0000 H   0  0  0  0  0  0  0  0  0  0  0  0
   10.2490   -2.2846    0.0000 H   0  0  0  0  0  0  0  0  0  0  0  0
    9.6704   -5.0302    0.0000 H   0  0  0  0  0  0  0  0  0  0  0  0
  1 27  1  0  0  0  0
  2 15  2  0  0  0  0
  3  7  1  0  0  0  0
  3  8  1  0  0  0  0
  3 12  1  0  0  0  0
  4 10  1  0  0  0  0
  4 11  1  0  0  0  0
  4 16  1  0  0  0  0
  5  9  1  0  0  0  0
  5 14  1  0  0  0  0
  5 15  1  0  0  0  0
  6  9  1  0  0  0  0
  6 13  1  0  0  0  0
  6 17  1  0  0  0  0
  6 28  1  0  0  0  0
  7 10  1  0  0  0  0
  7 29  1  0  0  0  0
  7 30  1  0  0  0  0
  8 11  1  0  0  0  0
  8 31  1  0  0  0  0
  8 32  1  0  0  0  0
  9 33  1  0  0  0  0
  9 34  1  0  0  0  0
 10 35  1  0  0  0  0
 10 36  1  0  0  0  0
 11 37  1  0  0  0  0
 11 38  1  0  0  0  0
 12 15  1  0  0  0  0
 12 39  1  0  0  0  0
 12 40  1  0  0  0  0
 13 14  1  0  0  0  0
 13 18  2  0  0  0  0
 14 19  2  0  0  0  0
 16 20  1  0  0  0  0
 16 41  1  0  0  0  0
 16 42  1  0  0  0  0
 17 43  1  0  0  0  0
 17 44  1  0  0  0  0
 17 45  1  0  0  0  0
 18 21  1  0  0  0  0
 18 46  1  0  0  0  0
 19 22  1  0  0  0  0
 19 47  1  0  0  0  0
 20 23  2  0  0  0  0
 20 24  1  0  0  0  0
 21 22  2  0  0  0  0
 21 48  1  0  0  0  0
 22 49  1  0  0  0  0
 23 25  1  0  0  0  0
 23 50  1  0  0  0  0
 24 26  2  0  0  0  0
 24 51  1  0  0  0  0
 25 27  2  0  0  0  0
 25 52  1  0  0  0  0
 26 27  1  0  0  0  0
 26 53  1  0  0  0  0
M  END
> <PUBCHEM_COMPOUND_CID>
9843032

> <PUBCHEM_COMPOUND_CANONICALIZED>
1

> <PUBCHEM_CACTVS_COMPLEXITY>
500

> <PUBCHEM_CACTVS_HBOND_ACCEPTOR>
3

> <PUBCHEM_CACTVS_HBOND_DONOR>
0

> <PUBCHEM_CACTVS_ROTATABLE_BOND>
4

> <PUBCHEM_CACTVS_SUBSKEYS>
AAADceB7IAAEAAAAAAAAAAAAAAAAAWAAAAA8YIAAAAAAAFgBQAAAHgIAAAAADQrBmCQywIMAAACIAiVSUACCAAAhBwAIiACIZogIYCLBk7GUIAhghgDIyAcQgMAOhAAAAAACAAAIAAAAAAQAAAAAAAAAAA==

> <PUBCHEM_IUPAC_OPENEYE_NAME>
2-[4-[(4-chlorophenyl)methyl]piperazin-1-yl]-1-(3-methylindolin-1-yl)ethanone

> <PUBCHEM_IUPAC_CAS_NAME>
2-[4-[(4-chlorophenyl)methyl]-1-piperazinyl]-1-(3-methyl-2,3-dihydroindol-1-yl)ethanone

> <PUBCHEM_IUPAC_NAME_MARKUP>
2-[4-[(4-chlorophenyl)methyl]piperazin-1-yl]-1-(3-methyl-2,3-dihydroindol-1-yl)ethanone

> <PUBCHEM_IUPAC_NAME>
2-[4-[(4-chlorophenyl)methyl]piperazin-1-yl]-1-(3-methyl-2,3-dihydroindol-1-yl)ethanone

> <PUBCHEM_IUPAC_SYSTEMATIC_NAME>
2-[4-[(4-chlorophenyl)methyl]piperazin-1-yl]-1-(3-methyl-2,3-dihydroindol-1-yl)ethanone

> <PUBCHEM_IUPAC_TRADITIONAL_NAME>
2-[4-(4-chlorobenzyl)piperazino]-1-(3-methylindolin-1-yl)ethanone

> <PUBCHEM_IUPAC_INCHI>
InChI=1S/C22H26ClN3O/c1-17-14-26(21-5-3-2-4-20(17)21)22(27)16-25-12-10-24(11-13-25)15-18-6-8-19(23)9-7-18/h2-9,17H,10-16H2,1H3

> <PUBCHEM_IUPAC_INCHIKEY>
RAUNEUBNNMZNDM-UHFFFAOYSA-N

> <PUBCHEM_XLOGP3_AA>
3.6

> <PUBCHEM_EXACT_MASS>
383.1764402

> <PUBCHEM_MOLECULAR_FORMULA>
C22H26ClN3O

> <PUBCHEM_MOLECULAR_WEIGHT>
383.9

> <PUBCHEM_OPENEYE_CAN_SMILES>
CC1CN(C2=CC=CC=C12)C(=O)CN3CCN(CC3)CC4=CC=C(C=C4)Cl

> <PUBCHEM_OPENEYE_ISO_SMILES>
CC1CN(C2=CC=CC=C12)C(=O)CN3CCN(CC3)CC4=CC=C(C=C4)Cl

> <PUBCHEM_CACTVS_TPSA>
26.8

> <PUBCHEM_MONOISOTOPIC_WEIGHT>
383.1764402

> <PUBCHEM_TOTAL_CHARGE>
0

> <PUBCHEM_HEAVY_ATOM_COUNT>
27

> <PUBCHEM_ATOM_DEF_STEREO_COUNT>
0

> <PUBCHEM_ATOM_UDEF_STEREO_COUNT>
1

> <PUBCHEM_BOND_DEF_STEREO_COUNT>
0

> <PUBCHEM_BOND_UDEF_STEREO_COUNT>
0

> <PUBCHEM_ISOTOPIC_ATOM_COUNT>
0

> <PUBCHEM_COMPONENT_COUNT>
1

> <PUBCHEM_CACTVS_TAUTO_COUNT>
-1

> <PUBCHEM_COORDINATE_TYPE>
1
5
255

> <PUBCHEM_BONDANNOTATIONS>
13  14  8
13  18  8
14  19  8
18  21  8
19  22  8
20  23  8
20  24  8
21  22  8
23  25  8
24  26  8
25  27  8
26  27  8
6  17  3

$$$$
