9863250
  -OEChem-09292322102D

 54 56  0     1  0  0  0  0  0999 V2000
    3.7320    0.2306    0.0000 S   0  0  0  0  0  0  0  0  0  0  0  0
    4.7320    0.2306    0.0000 O   0  0  0  0  0  0  0  0  0  0  0  0
    2.7320    0.2306    0.0000 O   0  0  0  0  0  0  0  0  0  0  0  0
    3.7320    1.2306    0.0000 N   0  0  3  0  0  0  0  0  0  0  0  0
    7.1863    1.8695    0.0000 N   0  0  0  0  0  0  0  0  0  0  0  0
    4.5411    1.8184    0.0000 C   0  0  2  0  0  0  0  0  0  0  0  0
    4.2320    2.7694    0.0000 C   0  0  0  0  0  0  0  0  0  0  0  0
    5.4921    1.5094    0.0000 C   0  0  0  0  0  0  0  0  0  0  0  0
    3.2320    2.7694    0.0000 C   0  0  0  0  0  0  0  0  0  0  0  0
    2.9230    1.8184    0.0000 C   0  0  0  0  0  0  0  0  0  0  0  0
    6.2353    2.1785    0.0000 C   0  0  0  0  0  0  0  0  0  0  0  0
    9.0884    1.2514    0.0000 C   0  0  0  0  0  0  0  0  0  0  0  0
    7.3942    0.8913    0.0000 C   0  0  0  0  0  0  0  0  0  0  0  0
    7.9295    2.5386    0.0000 C   0  0  0  0  0  0  0  0  0  0  0  0
    8.3453    0.5823    0.0000 C   0  0  0  0  0  0  0  0  0  0  0  0
    8.8805    2.2296    0.0000 C   0  0  0  0  0  0  0  0  0  0  0  0
   10.0395    0.9424    0.0000 C   0  0  0  0  0  0  0  0  0  0  0  0
    3.7320   -0.7694    0.0000 C   0  0  0  0  0  0  0  0  0  0  0  0
    2.8660   -1.2694    0.0000 C   0  0  0  0  0  0  0  0  0  0  0  0
    4.5981   -1.2694    0.0000 C   0  0  0  0  0  0  0  0  0  0  0  0
    2.8660   -2.2694    0.0000 C   0  0  0  0  0  0  0  0  0  0  0  0
    4.5981   -2.2694    0.0000 C   0  0  0  0  0  0  0  0  0  0  0  0
    3.7320   -2.7694    0.0000 C   0  0  0  0  0  0  0  0  0  0  0  0
    2.0000   -2.7694    0.0000 C   0  0  0  0  0  0  0  0  0  0  0  0
    4.6381    1.2060    0.0000 H   0  0  0  0  0  0  0  0  0  0  0  0
    4.8385    2.8983    0.0000 H   0  0  0  0  0  0  0  0  0  0  0  0
    4.1672    3.3860    0.0000 H   0  0  0  0  0  0  0  0  0  0  0  0
    5.2011    0.9619    0.0000 H   0  0  0  0  0  0  0  0  0  0  0  0
    5.9807    1.1276    0.0000 H   0  0  0  0  0  0  0  0  0  0  0  0
    3.2969    3.3860    0.0000 H   0  0  0  0  0  0  0  0  0  0  0  0
    2.6256    2.8983    0.0000 H   0  0  0  0  0  0  0  0  0  0  0  0
    2.3566    2.0705    0.0000 H   0  0  0  0  0  0  0  0  0  0  0  0
    2.6130    1.2814    0.0000 H   0  0  0  0  0  0  0  0  0  0  0  0
    6.5263    2.7259    0.0000 H   0  0  0  0  0  0  0  0  0  0  0  0
    5.7467    2.5602    0.0000 H   0  0  0  0  0  0  0  0  0  0  0  0
    9.5492    1.6663    0.0000 H   0  0  0  0  0  0  0  0  0  0  0  0
    6.7746    0.8697    0.0000 H   0  0  0  0  0  0  0  0  0  0  0  0
    7.3080    0.2773    0.0000 H   0  0  0  0  0  0  0  0  0  0  0  0
    8.2205    3.0860    0.0000 H   0  0  0  0  0  0  0  0  0  0  0  0
    7.4409    2.9203    0.0000 H   0  0  0  0  0  0  0  0  0  0  0  0
    8.0542    0.0349    0.0000 H   0  0  0  0  0  0  0  0  0  0  0  0
    8.8339    0.2006    0.0000 H   0  0  0  0  0  0  0  0  0  0  0  0
    9.5002    2.2512    0.0000 H   0  0  0  0  0  0  0  0  0  0  0  0
    8.9668    2.8435    0.0000 H   0  0  0  0  0  0  0  0  0  0  0  0
    9.8479    0.3528    0.0000 H   0  0  0  0  0  0  0  0  0  0  0  0
   10.6292    0.7508    0.0000 H   0  0  0  0  0  0  0  0  0  0  0  0
   10.2311    1.5321    0.0000 H   0  0  0  0  0  0  0  0  0  0  0  0
    2.3291   -0.9594    0.0000 H   0  0  0  0  0  0  0  0  0  0  0  0
    5.1350   -0.9594    0.0000 H   0  0  0  0  0  0  0  0  0  0  0  0
    5.1350   -2.5794    0.0000 H   0  0  0  0  0  0  0  0  0  0  0  0
    3.7320   -3.3894    0.0000 H   0  0  0  0  0  0  0  0  0  0  0  0
    1.6900   -2.2325    0.0000 H   0  0  0  0  0  0  0  0  0  0  0  0
    1.4631   -3.0794    0.0000 H   0  0  0  0  0  0  0  0  0  0  0  0
    2.3100   -3.3064    0.0000 H   0  0  0  0  0  0  0  0  0  0  0  0
  1  2  2  0  0  0  0
  1  3  2  0  0  0  0
  1  4  1  0  0  0  0
  1 18  1  0  0  0  0
  4  6  1  0  0  0  0
  4 10  1  0  0  0  0
  5 11  1  0  0  0  0
  5 13  1  0  0  0  0
  5 14  1  0  0  0  0
  6  7  1  0  0  0  0
  6  8  1  6  0  0  0
  6 25  1  0  0  0  0
  7  9  1  0  0  0  0
  7 26  1  0  0  0  0
  7 27  1  0  0  0  0
  8 11  1  0  0  0  0
  8 28  1  0  0  0  0
  8 29  1  0  0  0  0
  9 10  1  0  0  0  0
  9 30  1  0  0  0  0
  9 31  1  0  0  0  0
 10 32  1  0  0  0  0
 10 33  1  0  0  0  0
 11 34  1  0  0  0  0
 11 35  1  0  0  0  0
 12 15  1  0  0  0  0
 12 16  1  0  0  0  0
 12 17  1  0  0  0  0
 12 36  1  0  0  0  0
 13 15  1  0  0  0  0
 13 37  1  0  0  0  0
 13 38  1  0  0  0  0
 14 16  1  0  0  0  0
 14 39  1  0  0  0  0
 14 40  1  0  0  0  0
 15 41  1  0  0  0  0
 15 42  1  0  0  0  0
 16 43  1  0  0  0  0
 16 44  1  0  0  0  0
 17 45  1  0  0  0  0
 17 46  1  0  0  0  0
 17 47  1  0  0  0  0
 18 19  1  0  0  0  0
 18 20  2  0  0  0  0
 19 21  2  0  0  0  0
 19 48  1  0  0  0  0
 20 22  1  0  0  0  0
 20 49  1  0  0  0  0
 21 23  1  0  0  0  0
 21 24  1  0  0  0  0
 22 23  2  0  0  0  0
 22 50  1  0  0  0  0
 23 51  1  0  0  0  0
 24 52  1  0  0  0  0
 24 53  1  0  0  0  0
 24 54  1  0  0  0  0
M  END
> <PUBCHEM_COMPOUND_CID>
9863250

> <PUBCHEM_COMPOUND_CANONICALIZED>
1

> <PUBCHEM_CACTVS_COMPLEXITY>
494

> <PUBCHEM_CACTVS_HBOND_ACCEPTOR>
4

> <PUBCHEM_CACTVS_HBOND_DONOR>
0

> <PUBCHEM_CACTVS_ROTATABLE_BOND>
5

> <PUBCHEM_CACTVS_SUBSKEYS>
AAADceB7MABAAAAAAAAAAAAAAAAAAWAAAAA8QAAAAAAAAAABAAAAHAQAQAAADSjBWAQyAYMAAAKAAiBCAHBCABAgAAAIiBgIAIgIICKA0RCEIAAggACIiAcQgAAOAAAAgAAAAAAAAAEAAAAAAAAAAAAAAA==

> <PUBCHEM_IUPAC_OPENEYE_NAME>
4-methyl-1-[2-[(2R)-1-(m-tolylsulfonyl)pyrrolidin-2-yl]ethyl]piperidine

> <PUBCHEM_IUPAC_CAS_NAME>
4-methyl-1-[2-[(2R)-1-(3-methylphenyl)sulfonyl-2-pyrrolidinyl]ethyl]piperidine

> <PUBCHEM_IUPAC_NAME_MARKUP>
4-methyl-1-[2-[(2<I>R</I>)-1-(3-methylphenyl)sulfonylpyrrolidin-2-yl]ethyl]piperidine

> <PUBCHEM_IUPAC_NAME>
4-methyl-1-[2-[(2R)-1-(3-methylphenyl)sulfonylpyrrolidin-2-yl]ethyl]piperidine

> <PUBCHEM_IUPAC_SYSTEMATIC_NAME>
4-methyl-1-[2-[(2R)-1-(3-methylphenyl)sulfonylpyrrolidin-2-yl]ethyl]piperidine

> <PUBCHEM_IUPAC_TRADITIONAL_NAME>
4-methyl-1-[2-[(2R)-1-(m-tolylsulfonyl)pyrrolidin-2-yl]ethyl]piperidine

> <PUBCHEM_IUPAC_INCHI>
InChI=1S/C19H30N2O2S/c1-16-8-12-20(13-9-16)14-10-18-6-4-11-21(18)24(22,23)19-7-3-5-17(2)15-19/h3,5,7,15-16,18H,4,6,8-14H2,1-2H3/t18-/m1/s1

> <PUBCHEM_IUPAC_INCHIKEY>
YVWGGGGMRDLOGA-GOSISDBHSA-N

> <PUBCHEM_XLOGP3_AA>
3.7

> <PUBCHEM_EXACT_MASS>
350.20279938

> <PUBCHEM_MOLECULAR_FORMULA>
C19H30N2O2S

> <PUBCHEM_MOLECULAR_WEIGHT>
350.5

> <PUBCHEM_OPENEYE_CAN_SMILES>
CC1CCN(CC1)CCC2CCCN2S(=O)(=O)C3=CC=CC(=C3)C

> <PUBCHEM_OPENEYE_ISO_SMILES>
CC1CCN(CC1)CC[C@H]2CCCN2S(=O)(=O)C3=CC=CC(=C3)C

> <PUBCHEM_CACTVS_TPSA>
49

> <PUBCHEM_MONOISOTOPIC_WEIGHT>
350.20279938

> <PUBCHEM_TOTAL_CHARGE>
0

> <PUBCHEM_HEAVY_ATOM_COUNT>
24

> <PUBCHEM_ATOM_DEF_STEREO_COUNT>
1

> <PUBCHEM_ATOM_UDEF_STEREO_COUNT>
0

> <PUBCHEM_BOND_DEF_STEREO_COUNT>
0

> <PUBCHEM_BOND_UDEF_STEREO_COUNT>
0

> <PUBCHEM_ISOTOPIC_ATOM_COUNT>
0

> <PUBCHEM_COMPONENT_COUNT>
1

> <PUBCHEM_CACTVS_TAUTO_COUNT>
-1

> <PUBCHEM_COORDINATE_TYPE>
1
5
255

> <PUBCHEM_BONDANNOTATIONS>
18  19  8
18  20  8
19  21  8
20  22  8
21  23  8
22  23  8
6  8  6

$$$$
