162665588
  -OEChem-09292322422D

 57 61  0     1  0  0  0  0  0999 V2000
    9.7617    2.3367    0.0000 S   0  0  0  0  0  0  0  0  0  0  0  0
    9.2617    1.4707    0.0000 O   0  0  0  0  0  0  0  0  0  0  0  0
   10.2617    3.2028    0.0000 O   0  0  0  0  0  0  0  0  0  0  0  0
    2.5708   -0.5645    0.0000 O   0  0  0  0  0  0  0  0  0  0  0  0
    6.9470    1.1343    0.0000 N   0  0  3  0  0  0  0  0  0  0  0  0
    8.8957    2.8367    0.0000 N   0  0  0  0  0  0  0  0  0  0  0  0
   13.3060    0.5320    0.0000 N   0  0  0  0  0  0  0  0  0  0  0  0
    3.4800   -0.1625    0.0000 N   0  0  0  0  0  0  0  0  0  0  0  0
    8.0297    2.3367    0.0000 C   0  0  2  0  0  0  0  0  0  0  0  0
    7.9252    1.3422    0.0000 C   0  0  0  0  0  0  0  0  0  0  0  0
    7.1161    2.7435    0.0000 C   0  0  0  0  0  0  0  0  0  0  0  0
    6.4470    2.0003    0.0000 C   0  0  0  0  0  0  0  0  0  0  0  0
    6.5403    0.2208    0.0000 C   0  0  0  0  0  0  0  0  0  0  0  0
    5.5458    0.1162    0.0000 C   0  0  0  0  0  0  0  0  0  0  0  0
    5.1390   -0.7973    0.0000 C   0  0  0  0  0  0  0  0  0  0  0  0
   10.6278    1.8367    0.0000 C   0  0  0  0  0  0  0  0  0  0  0  0
    4.1445   -0.9018    0.0000 C   0  0  0  0  0  0  0  0  0  0  0  0
   11.4938    2.3367    0.0000 C   0  0  0  0  0  0  0  0  0  0  0  0
   10.6278    0.8367    0.0000 C   0  0  0  0  0  0  0  0  0  0  0  0
   12.3598    1.8367    0.0000 C   0  0  0  0  0  0  0  0  0  0  0  0
   12.3598    0.8367    0.0000 C   0  0  0  0  0  0  0  0  0  0  0  0
    3.6482   -1.7632    0.0000 C   0  0  0  0  0  0  0  0  0  0  0  0
   11.4938    0.3367    0.0000 C   0  0  0  0  0  0  0  0  0  0  0  0
   13.3060    2.1415    0.0000 C   0  0  0  0  0  0  0  0  0  0  0  0
    2.6704   -1.5536    0.0000 C   0  0  0  0  0  0  0  0  0  0  0  0
   13.8896    1.3367    0.0000 C   0  0  0  0  0  0  0  0  0  0  0  0
    3.9556   -2.7148    0.0000 C   0  0  0  0  0  0  0  0  0  0  0  0
   13.6167   -0.4185    0.0000 C   0  0  0  0  0  0  0  0  0  0  0  0
    2.0000   -2.2956    0.0000 C   0  0  0  0  0  0  0  0  0  0  0  0
    3.2852   -3.4567    0.0000 C   0  0  0  0  0  0  0  0  0  0  0  0
    2.3074   -3.2471    0.0000 C   0  0  0  0  0  0  0  0  0  0  0  0
    8.5497    1.9991    0.0000 H   0  0  0  0  0  0  0  0  0  0  0  0
    7.9900    0.7256    0.0000 H   0  0  0  0  0  0  0  0  0  0  0  0
    8.5452    1.3422    0.0000 H   0  0  0  0  0  0  0  0  0  0  0  0
    7.4261    3.2804    0.0000 H   0  0  0  0  0  0  0  0  0  0  0  0
    6.6146    3.1079    0.0000 H   0  0  0  0  0  0  0  0  0  0  0  0
    6.0322    2.4611    0.0000 H   0  0  0  0  0  0  0  0  0  0  0  0
    5.9454    1.6359    0.0000 H   0  0  0  0  0  0  0  0  0  0  0  0
    6.4970   -0.3977    0.0000 H   0  0  0  0  0  0  0  0  0  0  0  0
    7.1419    0.0708    0.0000 H   0  0  0  0  0  0  0  0  0  0  0  0
    8.8957    3.4567    0.0000 H   0  0  0  0  0  0  0  0  0  0  0  0
    5.5890    0.7347    0.0000 H   0  0  0  0  0  0  0  0  0  0  0  0
    4.9442    0.2662    0.0000 H   0  0  0  0  0  0  0  0  0  0  0  0
    5.0958   -1.4158    0.0000 H   0  0  0  0  0  0  0  0  0  0  0  0
    5.7406   -0.9473    0.0000 H   0  0  0  0  0  0  0  0  0  0  0  0
   11.4938    2.9567    0.0000 H   0  0  0  0  0  0  0  0  0  0  0  0
   10.0908    0.5267    0.0000 H   0  0  0  0  0  0  0  0  0  0  0  0
   11.4938   -0.2833    0.0000 H   0  0  0  0  0  0  0  0  0  0  0  0
   13.4986    2.7308    0.0000 H   0  0  0  0  0  0  0  0  0  0  0  0
   14.5096    1.3367    0.0000 H   0  0  0  0  0  0  0  0  0  0  0  0
    4.5618   -2.8447    0.0000 H   0  0  0  0  0  0  0  0  0  0  0  0
   13.0274   -0.6111    0.0000 H   0  0  0  0  0  0  0  0  0  0  0  0
   13.8093   -1.0078    0.0000 H   0  0  0  0  0  0  0  0  0  0  0  0
   14.2060   -0.2259    0.0000 H   0  0  0  0  0  0  0  0  0  0  0  0
    1.3938   -2.1656    0.0000 H   0  0  0  0  0  0  0  0  0  0  0  0
    3.4757   -4.0467    0.0000 H   0  0  0  0  0  0  0  0  0  0  0  0
    1.8917   -3.7072    0.0000 H   0  0  0  0  0  0  0  0  0  0  0  0
  1  2  2  0  0  0  0
  1  3  2  0  0  0  0
  1  6  1  0  0  0  0
  1 16  1  0  0  0  0
  4  8  1  0  0  0  0
  4 25  1  0  0  0  0
  5 10  1  0  0  0  0
  5 12  1  0  0  0  0
  5 13  1  0  0  0  0
  9  6  1  6  0  0  0
  6 41  1  0  0  0  0
  7 21  1  0  0  0  0
  7 26  1  0  0  0  0
  7 28  1  0  0  0  0
  8 17  2  0  0  0  0
  9 10  1  0  0  0  0
  9 11  1  0  0  0  0
  9 32  1  0  0  0  0
 10 33  1  0  0  0  0
 10 34  1  0  0  0  0
 11 12  1  0  0  0  0
 11 35  1  0  0  0  0
 11 36  1  0  0  0  0
 12 37  1  0  0  0  0
 12 38  1  0  0  0  0
 13 14  1  0  0  0  0
 13 39  1  0  0  0  0
 13 40  1  0  0  0  0
 14 15  1  0  0  0  0
 14 42  1  0  0  0  0
 14 43  1  0  0  0  0
 15 17  1  0  0  0  0
 15 44  1  0  0  0  0
 15 45  1  0  0  0  0
 16 18  2  0  0  0  0
 16 19  1  0  0  0  0
 17 22  1  0  0  0  0
 18 20  1  0  0  0  0
 18 46  1  0  0  0  0
 19 23  2  0  0  0  0
 19 47  1  0  0  0  0
 20 21  2  0  0  0  0
 20 24  1  0  0  0  0
 21 23  1  0  0  0  0
 22 25  1  0  0  0  0
 22 27  2  0  0  0  0
 23 48  1  0  0  0  0
 24 26  2  0  0  0  0
 24 49  1  0  0  0  0
 25 29  2  0  0  0  0
 26 50  1  0  0  0  0
 27 30  1  0  0  0  0
 27 51  1  0  0  0  0
 28 52  1  0  0  0  0
 28 53  1  0  0  0  0
 28 54  1  0  0  0  0
 29 31  1  0  0  0  0
 29 55  1  0  0  0  0
 30 31  2  0  0  0  0
 30 56  1  0  0  0  0
 31 57  1  0  0  0  0
M  END
> <PUBCHEM_COMPOUND_CID>
162665588

> <PUBCHEM_COMPOUND_CANONICALIZED>
1

> <PUBCHEM_CACTVS_COMPLEXITY>
714

> <PUBCHEM_CACTVS_HBOND_ACCEPTOR>
6

> <PUBCHEM_CACTVS_HBOND_DONOR>
1

> <PUBCHEM_CACTVS_ROTATABLE_BOND>
7

> <PUBCHEM_CACTVS_SUBSKEYS>
AAADceB7sABAAAAAAAAAAAAAAAAAAWLFgAAwYAAAAAAAAFgB/gAAHgQUQAAADCzB3gQ+x/NcEAKpA7R3RnDCgDA1IiAo2Lk+bNoIZvrA1ZOUMYhm0BnIyceYyKCOAAQAgAAKAAAACAEAABQAAAAAAAAAAA==

> <PUBCHEM_IUPAC_OPENEYE_NAME>
N-[(3S)-1-[3-(1,2-benzoxazol-3-yl)propyl]pyrrolidin-3-yl]-1-methyl-indole-5-sulfonamide

> <PUBCHEM_IUPAC_CAS_NAME>
N-[(3S)-1-[3-(1,2-benzoxazol-3-yl)propyl]-3-pyrrolidinyl]-1-methyl-5-indolesulfonamide

> <PUBCHEM_IUPAC_NAME_MARKUP>
<I>N</I>-[(3<I>S</I>)-1-[3-(1,2-benzoxazol-3-yl)propyl]pyrrolidin-3-yl]-1-methylindole-5-sulfonamide

> <PUBCHEM_IUPAC_NAME>
N-[(3S)-1-[3-(1,2-benzoxazol-3-yl)propyl]pyrrolidin-3-yl]-1-methylindole-5-sulfonamide

> <PUBCHEM_IUPAC_SYSTEMATIC_NAME>
N-[(3S)-1-[3-(1,2-benzoxazol-3-yl)propyl]pyrrolidin-3-yl]-1-methyl-indole-5-sulfonamide

> <PUBCHEM_IUPAC_TRADITIONAL_NAME>
N-[(3S)-1-(3-indoxazen-3-ylpropyl)pyrrolidin-3-yl]-1-methyl-indole-5-sulfonamide

> <PUBCHEM_IUPAC_INCHI>
InChI=1S/C23H26N4O3S/c1-26-13-10-17-15-19(8-9-22(17)26)31(28,29)25-18-11-14-27(16-18)12-4-6-21-20-5-2-3-7-23(20)30-24-21/h2-3,5,7-10,13,15,18,25H,4,6,11-12,14,16H2,1H3/t18-/m0/s1

> <PUBCHEM_IUPAC_INCHIKEY>
MIDQPNSXCMMZSS-SFHVURJKSA-N

> <PUBCHEM_XLOGP3_AA>
3.3

> <PUBCHEM_EXACT_MASS>
438.17256188

> <PUBCHEM_MOLECULAR_FORMULA>
C23H26N4O3S

> <PUBCHEM_MOLECULAR_WEIGHT>
438.5

> <PUBCHEM_OPENEYE_CAN_SMILES>
CN1C=CC2=C1C=CC(=C2)S(=O)(=O)NC3CCN(C3)CCCC4=NOC5=CC=CC=C54

> <PUBCHEM_OPENEYE_ISO_SMILES>
CN1C=CC2=C1C=CC(=C2)S(=O)(=O)N[C@H]3CCN(C3)CCCC4=NOC5=CC=CC=C54

> <PUBCHEM_CACTVS_TPSA>
88.8

> <PUBCHEM_MONOISOTOPIC_WEIGHT>
438.17256188

> <PUBCHEM_TOTAL_CHARGE>
0

> <PUBCHEM_HEAVY_ATOM_COUNT>
31

> <PUBCHEM_ATOM_DEF_STEREO_COUNT>
1

> <PUBCHEM_ATOM_UDEF_STEREO_COUNT>
0

> <PUBCHEM_BOND_DEF_STEREO_COUNT>
0

> <PUBCHEM_BOND_UDEF_STEREO_COUNT>
0

> <PUBCHEM_ISOTOPIC_ATOM_COUNT>
0

> <PUBCHEM_COMPONENT_COUNT>
1

> <PUBCHEM_CACTVS_TAUTO_COUNT>
-1

> <PUBCHEM_COORDINATE_TYPE>
1
5
255

> <PUBCHEM_BONDANNOTATIONS>
16  18  8
16  19  8
17  22  8
18  20  8
19  23  8
20  21  8
20  24  8
21  23  8
22  25  8
22  27  8
24  26  8
25  29  8
27  30  8
29  31  8
30  31  8
4  25  8
4  8  8
9  6  6
7  21  8
7  26  8
8  17  8

$$$$
