162676339
  -OEChem-09292322432D

 49 51  0     1  0  0  0  0  0999 V2000
    5.2785    3.6892    0.0000 Cl  0  0  0  0  0  0  0  0  0  0  0  0
    1.7817    3.6892    0.0000 Cl  0  0  0  0  0  0  0  0  0  0  0  0
    7.0602    0.6305    0.0000 Cl  0  0  0  0  0  0  0  0  0  0  0  0
    0.0000    0.6305    0.0000 Cl  0  0  0  0  0  0  0  0  0  0  0  0
    3.0301    9.6573    0.0000 Cl  0  0  0  0  0  0  0  0  0  0  0  0
    3.5301    0.6546    0.0000 S   0  0  0  0  0  0  0  0  0  0  0  0
    5.2622    5.6546    0.0000 N   0  0  3  0  0  0  0  0  0  0  0  0
    3.5301    2.6546    0.0000 N   0  0  0  0  0  0  0  0  0  0  0  0
    4.3961    5.1546    0.0000 C   0  0  3  0  0  0  0  0  0  0  0  0
    3.5301    5.6546    0.0000 C   0  0  0  0  0  0  0  0  0  0  0  0
    4.3961    4.1546    0.0000 C   0  0  0  0  0  0  0  0  0  0  0  0
    3.5301    6.6546    0.0000 C   0  0  0  0  0  0  0  0  0  0  0  0
    5.2622    6.6546    0.0000 C   0  0  0  0  0  0  0  0  0  0  0  0
    4.3961    7.1546    0.0000 C   0  0  0  0  0  0  0  0  0  0  0  0
    3.5301    3.6546    0.0000 C   0  0  0  0  0  0  0  0  0  0  0  0
    6.1282    5.1546    0.0000 C   0  0  0  0  0  0  0  0  0  0  0  0
    4.3961    2.1546    0.0000 C   0  0  0  0  0  0  0  0  0  0  0  0
    2.6641    2.1546    0.0000 C   0  0  0  0  0  0  0  0  0  0  0  0
    4.3961    1.1546    0.0000 C   0  0  0  0  0  0  0  0  0  0  0  0
    2.6641    1.1546    0.0000 C   0  0  0  0  0  0  0  0  0  0  0  0
    5.2901    2.6893    0.0000 C   0  0  0  0  0  0  0  0  0  0  0  0
    1.7702    2.6893    0.0000 C   0  0  0  0  0  0  0  0  0  0  0  0
    5.2901    0.6200    0.0000 C   0  0  0  0  0  0  0  0  0  0  0  0
    1.7702    0.6200    0.0000 C   0  0  0  0  0  0  0  0  0  0  0  0
    6.1962    2.1754    0.0000 C   0  0  0  0  0  0  0  0  0  0  0  0
    0.8641    2.1754    0.0000 C   0  0  0  0  0  0  0  0  0  0  0  0
    6.1962    1.1338    0.0000 C   0  0  0  0  0  0  0  0  0  0  0  0
    0.8641    1.1338    0.0000 C   0  0  0  0  0  0  0  0  0  0  0  0
    4.9331    4.8446    0.0000 H   0  0  0  0  0  0  0  0  0  0  0  0
    2.9196    5.7623    0.0000 H   0  0  0  0  0  0  0  0  0  0  0  0
    3.3181    5.0720    0.0000 H   0  0  0  0  0  0  0  0  0  0  0  0
    4.6082    3.5720    0.0000 H   0  0  0  0  0  0  0  0  0  0  0  0
    5.0067    4.2623    0.0000 H   0  0  0  0  0  0  0  0  0  0  0  0
    3.3181    7.2372    0.0000 H   0  0  0  0  0  0  0  0  0  0  0  0
    2.9196    6.5470    0.0000 H   0  0  0  0  0  0  0  0  0  0  0  0
    5.8728    6.5470    0.0000 H   0  0  0  0  0  0  0  0  0  0  0  0
    5.4742    7.2372    0.0000 H   0  0  0  0  0  0  0  0  0  0  0  0
    4.7947    7.6296    0.0000 H   0  0  0  0  0  0  0  0  0  0  0  0
    3.9976    7.6296    0.0000 H   0  0  0  0  0  0  0  0  0  0  0  0
    3.3181    4.2372    0.0000 H   0  0  0  0  0  0  0  0  0  0  0  0
    2.9196    3.5470    0.0000 H   0  0  0  0  0  0  0  0  0  0  0  0
    5.8182    4.6177    0.0000 H   0  0  0  0  0  0  0  0  0  0  0  0
    6.6651    4.8446    0.0000 H   0  0  0  0  0  0  0  0  0  0  0  0
    6.4382    5.6916    0.0000 H   0  0  0  0  0  0  0  0  0  0  0  0
    5.2829    0.0000    0.0000 H   0  0  0  0  0  0  0  0  0  0  0  0
    1.7773    0.0000    0.0000 H   0  0  0  0  0  0  0  0  0  0  0  0
    6.7319    2.4875    0.0000 H   0  0  0  0  0  0  0  0  0  0  0  0
    0.3284    2.4875    0.0000 H   0  0  0  0  0  0  0  0  0  0  0  0
    4.0301    9.6573    0.0000 H   0  0  0  0  0  0  0  0  0  0  0  0
  1 21  1  0  0  0  0
  2 22  1  0  0  0  0
  3 27  1  0  0  0  0
  4 28  1  0  0  0  0
  5 49  1  0  0  0  0
  6 19  1  0  0  0  0
  6 20  1  0  0  0  0
  7  9  1  0  0  0  0
  7 13  1  0  0  0  0
  7 16  1  0  0  0  0
  8 15  1  0  0  0  0
  8 17  1  0  0  0  0
  8 18  1  0  0  0  0
  9 10  1  0  0  0  0
  9 11  1  0  0  0  0
  9 29  1  0  0  0  0
 10 12  1  0  0  0  0
 10 30  1  0  0  0  0
 10 31  1  0  0  0  0
 11 15  1  0  0  0  0
 11 32  1  0  0  0  0
 11 33  1  0  0  0  0
 12 14  1  0  0  0  0
 12 34  1  0  0  0  0
 12 35  1  0  0  0  0
 13 14  1  0  0  0  0
 13 36  1  0  0  0  0
 13 37  1  0  0  0  0
 14 38  1  0  0  0  0
 14 39  1  0  0  0  0
 15 40  1  0  0  0  0
 15 41  1  0  0  0  0
 16 42  1  0  0  0  0
 16 43  1  0  0  0  0
 16 44  1  0  0  0  0
 17 19  2  0  0  0  0
 17 21  1  0  0  0  0
 18 20  2  0  0  0  0
 18 22  1  0  0  0  0
 19 23  1  0  0  0  0
 20 24  1  0  0  0  0
 21 25  2  0  0  0  0
 22 26  2  0  0  0  0
 23 27  2  0  0  0  0
 23 45  1  0  0  0  0
 24 28  2  0  0  0  0
 24 46  1  0  0  0  0
 25 27  1  0  0  0  0
 25 47  1  0  0  0  0
 26 28  1  0  0  0  0
 26 48  1  0  0  0  0
M  END
> <PUBCHEM_COMPOUND_CID>
162676339

> <PUBCHEM_COMPOUND_CANONICALIZED>
1

> <PUBCHEM_CACTVS_COMPLEXITY>
482

> <PUBCHEM_CACTVS_HBOND_ACCEPTOR>
3

> <PUBCHEM_CACTVS_HBOND_DONOR>
1

> <PUBCHEM_CACTVS_ROTATABLE_BOND>
3

> <PUBCHEM_CACTVS_SUBSKEYS>
AAADceB7AABHAAAAAAAAAAAAAAAAAAAAAAA8eIEAAAAAAACxQAAAHAYAAAAACCrBUCQywYMAAAiAACRCQACCAAAhDRAAiBwIRogIIGLh05HEIAhggADoyAcQgAAAAABAABCAARAAAIAAIQACIAAAAAAAAA==

> <PUBCHEM_IUPAC_OPENEYE_NAME>
1,3,7,9-tetrachloro-10-[2-(1-methyl-2-piperidyl)ethyl]phenothiazine;hydrochloride

> <PUBCHEM_IUPAC_CAS_NAME>
1,3,7,9-tetrachloro-10-[2-(1-methyl-2-piperidinyl)ethyl]phenothiazine;hydrochloride

> <PUBCHEM_IUPAC_NAME_MARKUP>
1,3,7,9-tetrachloro-10-[2-(1-methylpiperidin-2-yl)ethyl]phenothiazine;hydrochloride

> <PUBCHEM_IUPAC_NAME>
1,3,7,9-tetrachloro-10-[2-(1-methylpiperidin-2-yl)ethyl]phenothiazine;hydrochloride

> <PUBCHEM_IUPAC_SYSTEMATIC_NAME>
1,3,7,9-tetrakis(chloranyl)-10-[2-(1-methylpiperidin-2-yl)ethyl]phenothiazine;hydrochloride

> <PUBCHEM_IUPAC_TRADITIONAL_NAME>
1,3,7,9-tetrachloro-10-[2-(1-methyl-2-piperidyl)ethyl]phenothiazine;hydrochloride

> <PUBCHEM_IUPAC_INCHI>
InChI=1S/C20H20Cl4N2S.ClH/c1-25-6-3-2-4-14(25)5-7-26-19-15(23)8-12(21)10-17(19)27-18-11-13(22)9-16(24)20(18)26;/h8-11,14H,2-7H2,1H3;1H

> <PUBCHEM_IUPAC_INCHIKEY>
SSSRLBHGILGLTG-UHFFFAOYSA-N

> <PUBCHEM_EXACT_MASS>
497.983858

> <PUBCHEM_MOLECULAR_FORMULA>
C20H21Cl5N2S

> <PUBCHEM_MOLECULAR_WEIGHT>
498.7

> <PUBCHEM_OPENEYE_CAN_SMILES>
CN1CCCCC1CCN2C3=C(C=C(C=C3Cl)Cl)SC4=C2C(=CC(=C4)Cl)Cl.Cl

> <PUBCHEM_OPENEYE_ISO_SMILES>
CN1CCCCC1CCN2C3=C(C=C(C=C3Cl)Cl)SC4=C2C(=CC(=C4)Cl)Cl.Cl

> <PUBCHEM_CACTVS_TPSA>
31.8

> <PUBCHEM_MONOISOTOPIC_WEIGHT>
495.986808

> <PUBCHEM_TOTAL_CHARGE>
0

> <PUBCHEM_HEAVY_ATOM_COUNT>
28

> <PUBCHEM_ATOM_DEF_STEREO_COUNT>
0

> <PUBCHEM_ATOM_UDEF_STEREO_COUNT>
1

> <PUBCHEM_BOND_DEF_STEREO_COUNT>
0

> <PUBCHEM_BOND_UDEF_STEREO_COUNT>
0

> <PUBCHEM_ISOTOPIC_ATOM_COUNT>
0

> <PUBCHEM_COMPONENT_COUNT>
2

> <PUBCHEM_CACTVS_TAUTO_COUNT>
-1

> <PUBCHEM_COORDINATE_TYPE>
1
5
255

> <PUBCHEM_BONDANNOTATIONS>
17  19  8
17  21  8
18  20  8
18  22  8
19  23  8
20  24  8
21  25  8
22  26  8
23  27  8
24  28  8
25  27  8
26  28  8
9  11  3

$$$$
