44554227
  -OEChem-09292322312D

 57 61  0     0  0  0  0  0  0999 V2000
    7.9933    0.6085    0.0000 S   0  0  0  0  0  0  0  0  0  0  0  0
    6.9933    0.6085    0.0000 O   0  0  0  0  0  0  0  0  0  0  0  0
    8.9933    0.6085    0.0000 O   0  0  0  0  0  0  0  0  0  0  0  0
    4.5637   -1.3069    0.0000 N   0  0  0  0  0  0  0  0  0  0  0  0
    8.4933   -1.9213    0.0000 N   0  0  0  0  0  0  0  0  0  0  0  0
    2.6067   -0.8945    0.0000 N   0  0  0  0  0  0  0  0  0  0  0  0
    8.7980   -0.9751    0.0000 N   0  0  0  0  0  0  0  0  0  0  0  0
    4.2530   -0.3564    0.0000 C   0  0  0  0  0  0  0  0  0  0  0  0
    3.8958   -2.0512    0.0000 C   0  0  0  0  0  0  0  0  0  0  0  0
    7.1885   -0.9751    0.0000 C   0  0  0  0  0  0  0  0  0  0  0  0
    5.5422   -1.5132    0.0000 C   0  0  0  0  0  0  0  0  0  0  0  0
    7.4992   -1.9256    0.0000 C   0  0  0  0  0  0  0  0  0  0  0  0
    7.9933   -0.3915    0.0000 C   0  0  0  0  0  0  0  0  0  0  0  0
    3.2745   -0.1502    0.0000 C   0  0  0  0  0  0  0  0  0  0  0  0
    2.9173   -1.8450    0.0000 C   0  0  0  0  0  0  0  0  0  0  0  0
    6.2100   -0.7688    0.0000 C   0  0  0  0  0  0  0  0  0  0  0  0
    9.0838   -2.7283    0.0000 C   0  0  0  0  0  0  0  0  0  0  0  0
    5.8528   -2.4637    0.0000 C   0  0  0  0  0  0  0  0  0  0  0  0
    6.8314   -2.6699    0.0000 C   0  0  0  0  0  0  0  0  0  0  0  0
    7.9933    1.6086    0.0000 C   0  0  0  0  0  0  0  0  0  0  0  0
   10.0780   -2.6203    0.0000 C   0  0  0  0  0  0  0  0  0  0  0  0
    8.6803   -3.6432    0.0000 C   0  0  0  0  0  0  0  0  0  0  0  0
    8.8593    2.1086    0.0000 C   0  0  0  0  0  0  0  0  0  0  0  0
    7.1272    2.1086    0.0000 C   0  0  0  0  0  0  0  0  0  0  0  0
    8.8593    3.1086    0.0000 C   0  0  0  0  0  0  0  0  0  0  0  0
    9.7532    1.5739    0.0000 C   0  0  0  0  0  0  0  0  0  0  0  0
    7.1272    3.1086    0.0000 C   0  0  0  0  0  0  0  0  0  0  0  0
    7.9933    3.6086    0.0000 C   0  0  0  0  0  0  0  0  0  0  0  0
    9.7532    3.6432    0.0000 C   0  0  0  0  0  0  0  0  0  0  0  0
   10.6593    2.0877    0.0000 C   0  0  0  0  0  0  0  0  0  0  0  0
   10.6593    3.1294    0.0000 C   0  0  0  0  0  0  0  0  0  0  0  0
    4.8668   -0.2691    0.0000 H   0  0  0  0  0  0  0  0  0  0  0  0
    4.2736    0.2633    0.0000 H   0  0  0  0  0  0  0  0  0  0  0  0
    3.6646   -2.6265    0.0000 H   0  0  0  0  0  0  0  0  0  0  0  0
    4.4222   -2.3789    0.0000 H   0  0  0  0  0  0  0  0  0  0  0  0
    3.5058    0.4251    0.0000 H   0  0  0  0  0  0  0  0  0  0  0  0
    2.7482    0.1775    0.0000 H   0  0  0  0  0  0  0  0  0  0  0  0
    2.3035   -1.9324    0.0000 H   0  0  0  0  0  0  0  0  0  0  0  0
    2.8968   -2.4647    0.0000 H   0  0  0  0  0  0  0  0  0  0  0  0
    6.0174   -0.1795    0.0000 H   0  0  0  0  0  0  0  0  0  0  0  0
    8.4675   -2.7952    0.0000 H   0  0  0  0  0  0  0  0  0  0  0  0
    2.0000   -0.7666    0.0000 H   0  0  0  0  0  0  0  0  0  0  0  0
    5.4388   -2.9251    0.0000 H   0  0  0  0  0  0  0  0  0  0  0  0
    7.0240   -3.2592    0.0000 H   0  0  0  0  0  0  0  0  0  0  0  0
   10.1450   -3.2367    0.0000 H   0  0  0  0  0  0  0  0  0  0  0  0
   10.6944   -2.5534    0.0000 H   0  0  0  0  0  0  0  0  0  0  0  0
   10.0111   -2.0039    0.0000 H   0  0  0  0  0  0  0  0  0  0  0  0
    8.1130   -3.3930    0.0000 H   0  0  0  0  0  0  0  0  0  0  0  0
    8.4301   -4.2105    0.0000 H   0  0  0  0  0  0  0  0  0  0  0  0
    9.2476   -3.8934    0.0000 H   0  0  0  0  0  0  0  0  0  0  0  0
    6.5903    1.7986    0.0000 H   0  0  0  0  0  0  0  0  0  0  0  0
    9.7461    0.9539    0.0000 H   0  0  0  0  0  0  0  0  0  0  0  0
    6.5903    3.4186    0.0000 H   0  0  0  0  0  0  0  0  0  0  0  0
    7.9933    4.2286    0.0000 H   0  0  0  0  0  0  0  0  0  0  0  0
    9.7461    4.2632    0.0000 H   0  0  0  0  0  0  0  0  0  0  0  0
   11.1950    1.7757    0.0000 H   0  0  0  0  0  0  0  0  0  0  0  0
   11.1950    3.4414    0.0000 H   0  0  0  0  0  0  0  0  0  0  0  0
  1  2  2  0  0  0  0
  1  3  2  0  0  0  0
  1 13  1  0  0  0  0
  1 20  1  0  0  0  0
  4  8  1  0  0  0  0
  4  9  1  0  0  0  0
  4 11  1  0  0  0  0
  5  7  1  0  0  0  0
  5 12  1  0  0  0  0
  5 17  1  0  0  0  0
  6 14  1  0  0  0  0
  6 15  1  0  0  0  0
  6 42  1  0  0  0  0
  7 13  2  0  0  0  0
  8 14  1  0  0  0  0
  8 32  1  0  0  0  0
  8 33  1  0  0  0  0
  9 15  1  0  0  0  0
  9 34  1  0  0  0  0
  9 35  1  0  0  0  0
 10 12  2  0  0  0  0
 10 13  1  0  0  0  0
 10 16  1  0  0  0  0
 11 16  2  0  0  0  0
 11 18  1  0  0  0  0
 12 19  1  0  0  0  0
 14 36  1  0  0  0  0
 14 37  1  0  0  0  0
 15 38  1  0  0  0  0
 15 39  1  0  0  0  0
 16 40  1  0  0  0  0
 17 21  1  0  0  0  0
 17 22  1  0  0  0  0
 17 41  1  0  0  0  0
 18 19  2  0  0  0  0
 18 43  1  0  0  0  0
 19 44  1  0  0  0  0
 20 23  1  0  0  0  0
 20 24  2  0  0  0  0
 21 45  1  0  0  0  0
 21 46  1  0  0  0  0
 21 47  1  0  0  0  0
 22 48  1  0  0  0  0
 22 49  1  0  0  0  0
 22 50  1  0  0  0  0
 23 25  1  0  0  0  0
 23 26  2  0  0  0  0
 24 27  1  0  0  0  0
 24 51  1  0  0  0  0
 25 28  1  0  0  0  0
 25 29  2  0  0  0  0
 26 30  1  0  0  0  0
 26 52  1  0  0  0  0
 27 28  2  0  0  0  0
 27 53  1  0  0  0  0
 28 54  1  0  0  0  0
 29 31  1  0  0  0  0
 29 55  1  0  0  0  0
 30 31  2  0  0  0  0
 30 56  1  0  0  0  0
 31 57  1  0  0  0  0
M  END
> <PUBCHEM_COMPOUND_CID>
44554227

> <PUBCHEM_COMPOUND_CANONICALIZED>
1

> <PUBCHEM_CACTVS_COMPLEXITY>
718

> <PUBCHEM_CACTVS_HBOND_ACCEPTOR>
5

> <PUBCHEM_CACTVS_HBOND_DONOR>
1

> <PUBCHEM_CACTVS_ROTATABLE_BOND>
4

> <PUBCHEM_CACTVS_SUBSKEYS>
AAADceB7sABAAAAAAAAAAAAAAAAAAWAAAAA8YMEAAAAAAFjB9AAAHAQYAAAADCjBXgQywfPIAAqiAyRiRHDaBABhihAY2Lg4ZJgIYKLg0dGUpAxgmADoyAcQgIAOgACAwAAWAAAAAQGAACwAAAAAAAAAAA==

> <PUBCHEM_IUPAC_OPENEYE_NAME>
1-isopropyl-3-(1-naphthylsulfonyl)-5-piperazin-1-yl-indazole

> <PUBCHEM_IUPAC_CAS_NAME>
3-(1-naphthalenylsulfonyl)-5-(1-piperazinyl)-1-propan-2-ylindazole

> <PUBCHEM_IUPAC_NAME_MARKUP>
3-naphthalen-1-ylsulfonyl-5-piperazin-1-yl-1-propan-2-ylindazole

> <PUBCHEM_IUPAC_NAME>
3-naphthalen-1-ylsulfonyl-5-piperazin-1-yl-1-propan-2-ylindazole

> <PUBCHEM_IUPAC_SYSTEMATIC_NAME>
3-naphthalen-1-ylsulfonyl-5-piperazin-1-yl-1-propan-2-yl-indazole

> <PUBCHEM_IUPAC_TRADITIONAL_NAME>
1-isopropyl-3-(1-naphthylsulfonyl)-5-piperazino-indazole

> <PUBCHEM_IUPAC_INCHI>
InChI=1S/C24H26N4O2S/c1-17(2)28-22-11-10-19(27-14-12-25-13-15-27)16-21(22)24(26-28)31(29,30)23-9-5-7-18-6-3-4-8-20(18)23/h3-11,16-17,25H,12-15H2,1-2H3

> <PUBCHEM_IUPAC_INCHIKEY>
YKEFFXDXDCCGLC-UHFFFAOYSA-N

> <PUBCHEM_XLOGP3_AA>
4.1

> <PUBCHEM_EXACT_MASS>
434.17764726

> <PUBCHEM_MOLECULAR_FORMULA>
C24H26N4O2S

> <PUBCHEM_MOLECULAR_WEIGHT>
434.6

> <PUBCHEM_OPENEYE_CAN_SMILES>
CC(C)N1C2=C(C=C(C=C2)N3CCNCC3)C(=N1)S(=O)(=O)C4=CC=CC5=CC=CC=C54

> <PUBCHEM_OPENEYE_ISO_SMILES>
CC(C)N1C2=C(C=C(C=C2)N3CCNCC3)C(=N1)S(=O)(=O)C4=CC=CC5=CC=CC=C54

> <PUBCHEM_CACTVS_TPSA>
75.6

> <PUBCHEM_MONOISOTOPIC_WEIGHT>
434.17764726

> <PUBCHEM_TOTAL_CHARGE>
0

> <PUBCHEM_HEAVY_ATOM_COUNT>
31

> <PUBCHEM_ATOM_DEF_STEREO_COUNT>
0

> <PUBCHEM_ATOM_UDEF_STEREO_COUNT>
0

> <PUBCHEM_BOND_DEF_STEREO_COUNT>
0

> <PUBCHEM_BOND_UDEF_STEREO_COUNT>
0

> <PUBCHEM_ISOTOPIC_ATOM_COUNT>
0

> <PUBCHEM_COMPONENT_COUNT>
1

> <PUBCHEM_CACTVS_TAUTO_COUNT>
-1

> <PUBCHEM_COORDINATE_TYPE>
1
5
255

> <PUBCHEM_BONDANNOTATIONS>
10  12  8
10  13  8
10  16  8
11  16  8
11  18  8
12  19  8
18  19  8
20  23  8
20  24  8
23  25  8
23  26  8
24  27  8
25  28  8
25  29  8
26  30  8
27  28  8
29  31  8
30  31  8
5  12  8
5  7  8
7  13  8

$$$$
