21460314
  -OEChem-09292322112D

 60 64  0     0  0  0  0  0  0999 V2000
    4.6038    2.0394    0.0000 Cl  0  0  0  0  0  0  0  0  0  0  0  0
    2.8757    3.0461    0.0000 Cl  0  0  0  0  0  0  0  0  0  0  0  0
   11.5243    0.0127    0.0000 O   0  0  0  0  0  0  0  0  0  0  0  0
    6.3243   -0.9672    0.0000 N   0  0  0  0  0  0  0  0  0  0  0  0
    4.5961    0.0394    0.0000 N   0  0  0  0  0  0  0  0  0  0  0  0
   10.6525   -1.4839    0.0000 N   0  0  0  0  0  0  0  0  0  0  0  0
    5.4564   -1.4639    0.0000 C   0  0  0  0  0  0  0  0  0  0  0  0
    6.3282    0.0328    0.0000 C   0  0  0  0  0  0  0  0  0  0  0  0
    4.5923   -0.9606    0.0000 C   0  0  0  0  0  0  0  0  0  0  0  0
    5.4641    0.5361    0.0000 C   0  0  0  0  0  0  0  0  0  0  0  0
    7.1884   -1.4706    0.0000 C   0  0  0  0  0  0  0  0  0  0  0  0
    8.0564   -0.9739    0.0000 C   0  0  0  0  0  0  0  0  0  0  0  0
    8.9204   -1.4772    0.0000 C   0  0  0  0  0  0  0  0  0  0  0  0
    3.7320    0.5428    0.0000 C   0  0  0  0  0  0  0  0  0  0  0  0
    9.7884   -0.9806    0.0000 C   0  0  0  0  0  0  0  0  0  0  0  0
   14.1845   -1.5114    0.0000 C   0  0  0  0  0  0  0  0  0  0  0  0
    3.7359    1.5428    0.0000 C   0  0  0  0  0  0  0  0  0  0  0  0
    2.8641    0.0461    0.0000 C   0  0  0  0  0  0  0  0  0  0  0  0
   14.1845   -2.5114    0.0000 C   0  0  0  0  0  0  0  0  0  0  0  0
   15.1845   -1.5114    0.0000 C   0  0  0  0  0  0  0  0  0  0  0  0
   15.1845   -2.5114    0.0000 C   0  0  0  0  0  0  0  0  0  0  0  0
   12.3845   -1.4906    0.0000 C   0  0  0  0  0  0  0  0  0  0  0  0
   13.2906   -0.9768    0.0000 C   0  0  0  0  0  0  0  0  0  0  0  0
   13.2906   -3.0461    0.0000 C   0  0  0  0  0  0  0  0  0  0  0  0
   11.5204   -0.9873    0.0000 C   0  0  0  0  0  0  0  0  0  0  0  0
    2.8718    2.0461    0.0000 C   0  0  0  0  0  0  0  0  0  0  0  0
    2.0000    0.5494    0.0000 C   0  0  0  0  0  0  0  0  0  0  0  0
   12.3845   -2.5322    0.0000 C   0  0  0  0  0  0  0  0  0  0  0  0
   16.0785   -0.9768    0.0000 C   0  0  0  0  0  0  0  0  0  0  0  0
   16.0785   -3.0461    0.0000 C   0  0  0  0  0  0  0  0  0  0  0  0
    2.0038    1.5494    0.0000 C   0  0  0  0  0  0  0  0  0  0  0  0
   16.9845   -1.4906    0.0000 C   0  0  0  0  0  0  0  0  0  0  0  0
   16.9845   -2.5322    0.0000 C   0  0  0  0  0  0  0  0  0  0  0  0
    5.0560   -1.9373    0.0000 H   0  0  0  0  0  0  0  0  0  0  0  0
    5.8531   -1.9404    0.0000 H   0  0  0  0  0  0  0  0  0  0  0  0
    6.9383   -0.0773    0.0000 H   0  0  0  0  0  0  0  0  0  0  0  0
    6.5425    0.6145    0.0000 H   0  0  0  0  0  0  0  0  0  0  0  0
    3.9821   -0.8506    0.0000 H   0  0  0  0  0  0  0  0  0  0  0  0
    4.3780   -1.5424    0.0000 H   0  0  0  0  0  0  0  0  0  0  0  0
    5.8644    1.0095    0.0000 H   0  0  0  0  0  0  0  0  0  0  0  0
    5.0674    1.0126    0.0000 H   0  0  0  0  0  0  0  0  0  0  0  0
    6.7880   -1.9440    0.0000 H   0  0  0  0  0  0  0  0  0  0  0  0
    7.5851   -1.9471    0.0000 H   0  0  0  0  0  0  0  0  0  0  0  0
    8.4567   -0.5005    0.0000 H   0  0  0  0  0  0  0  0  0  0  0  0
    7.6597   -0.4974    0.0000 H   0  0  0  0  0  0  0  0  0  0  0  0
    8.5201   -1.9507    0.0000 H   0  0  0  0  0  0  0  0  0  0  0  0
    9.3171   -1.9537    0.0000 H   0  0  0  0  0  0  0  0  0  0  0  0
   10.1887   -0.5072    0.0000 H   0  0  0  0  0  0  0  0  0  0  0  0
    9.3917   -0.5041    0.0000 H   0  0  0  0  0  0  0  0  0  0  0  0
    2.8617   -0.5739    0.0000 H   0  0  0  0  0  0  0  0  0  0  0  0
   10.6501   -2.1039    0.0000 H   0  0  0  0  0  0  0  0  0  0  0  0
   13.2978   -0.3568    0.0000 H   0  0  0  0  0  0  0  0  0  0  0  0
   13.2978   -3.6660    0.0000 H   0  0  0  0  0  0  0  0  0  0  0  0
    1.4619    0.2415    0.0000 H   0  0  0  0  0  0  0  0  0  0  0  0
   11.8488   -2.8443    0.0000 H   0  0  0  0  0  0  0  0  0  0  0  0
   16.0713   -0.3568    0.0000 H   0  0  0  0  0  0  0  0  0  0  0  0
   16.0713   -3.6660    0.0000 H   0  0  0  0  0  0  0  0  0  0  0  0
    1.4681    1.8615    0.0000 H   0  0  0  0  0  0  0  0  0  0  0  0
   17.5203   -1.1785    0.0000 H   0  0  0  0  0  0  0  0  0  0  0  0
   17.5203   -2.8443    0.0000 H   0  0  0  0  0  0  0  0  0  0  0  0
  1 17  1  0  0  0  0
  2 26  1  0  0  0  0
  3 25  2  0  0  0  0
  4  7  1  0  0  0  0
  4  8  1  0  0  0  0
  4 11  1  0  0  0  0
  5  9  1  0  0  0  0
  5 10  1  0  0  0  0
  5 14  1  0  0  0  0
  6 15  1  0  0  0  0
  6 25  1  0  0  0  0
  6 51  1  0  0  0  0
  7  9  1  0  0  0  0
  7 34  1  0  0  0  0
  7 35  1  0  0  0  0
  8 10  1  0  0  0  0
  8 36  1  0  0  0  0
  8 37  1  0  0  0  0
  9 38  1  0  0  0  0
  9 39  1  0  0  0  0
 10 40  1  0  0  0  0
 10 41  1  0  0  0  0
 11 12  1  0  0  0  0
 11 42  1  0  0  0  0
 11 43  1  0  0  0  0
 12 13  1  0  0  0  0
 12 44  1  0  0  0  0
 12 45  1  0  0  0  0
 13 15  1  0  0  0  0
 13 46  1  0  0  0  0
 13 47  1  0  0  0  0
 14 17  2  0  0  0  0
 14 18  1  0  0  0  0
 15 48  1  0  0  0  0
 15 49  1  0  0  0  0
 16 19  2  0  0  0  0
 16 20  1  0  0  0  0
 16 23  1  0  0  0  0
 17 26  1  0  0  0  0
 18 27  2  0  0  0  0
 18 50  1  0  0  0  0
 19 21  1  0  0  0  0
 19 24  1  0  0  0  0
 20 21  1  0  0  0  0
 20 29  2  0  0  0  0
 21 30  2  0  0  0  0
 22 23  2  0  0  0  0
 22 25  1  0  0  0  0
 22 28  1  0  0  0  0
 23 52  1  0  0  0  0
 24 28  2  0  0  0  0
 24 53  1  0  0  0  0
 26 31  2  0  0  0  0
 27 31  1  0  0  0  0
 27 54  1  0  0  0  0
 28 55  1  0  0  0  0
 29 32  1  0  0  0  0
 29 56  1  0  0  0  0
 30 33  1  0  0  0  0
 30 57  1  0  0  0  0
 31 58  1  0  0  0  0
 32 33  2  0  0  0  0
 32 59  1  0  0  0  0
 33 60  1  0  0  0  0
M  END
> <PUBCHEM_COMPOUND_CID>
21460314

> <PUBCHEM_COMPOUND_CANONICALIZED>
1

> <PUBCHEM_CACTVS_COMPLEXITY>
655

> <PUBCHEM_CACTVS_HBOND_ACCEPTOR>
3

> <PUBCHEM_CACTVS_HBOND_DONOR>
1

> <PUBCHEM_CACTVS_ROTATABLE_BOND>
7

> <PUBCHEM_CACTVS_SUBSKEYS>
AAADceB7IAAGAAAAAAAAAAAAAABgAAAAAAA8YMEAAAAYMAABUAAAHgIQAAAADArBmCQwwIPAAACIAiVSUACCAAAlBwAIisEIZsgIYDLBl5HUIQhglgDIyYcYiMCOwAACAAIQABSAAAQABCAAKAAAAAAAAA==

> <PUBCHEM_IUPAC_OPENEYE_NAME>
N-[4-[4-(2,3-dichlorophenyl)piperazin-1-yl]butyl]biphenylene-2-carboxamide

> <PUBCHEM_IUPAC_CAS_NAME>
N-[4-[4-(2,3-dichlorophenyl)-1-piperazinyl]butyl]-2-biphenylenecarboxamide

> <PUBCHEM_IUPAC_NAME_MARKUP>
<I>N</I>-[4-[4-(2,3-dichlorophenyl)piperazin-1-yl]butyl]biphenylene-2-carboxamide

> <PUBCHEM_IUPAC_NAME>
N-[4-[4-(2,3-dichlorophenyl)piperazin-1-yl]butyl]biphenylene-2-carboxamide

> <PUBCHEM_IUPAC_SYSTEMATIC_NAME>
N-[4-[4-[2,3-bis(chloranyl)phenyl]piperazin-1-yl]butyl]biphenylene-2-carboxamide

> <PUBCHEM_IUPAC_TRADITIONAL_NAME>
N-[4-[4-(2,3-dichlorophenyl)piperazino]butyl]biphenylene-2-carboxamide

> <PUBCHEM_IUPAC_INCHI>
InChI=1S/C27H27Cl2N3O/c28-24-8-5-9-25(26(24)29)32-16-14-31(15-17-32)13-4-3-12-30-27(33)19-10-11-22-20-6-1-2-7-21(20)23(22)18-19/h1-2,5-11,18H,3-4,12-17H2,(H,30,33)

> <PUBCHEM_IUPAC_INCHIKEY>
JUXYQVLOCMVIJF-UHFFFAOYSA-N

> <PUBCHEM_XLOGP3_AA>
4.9

> <PUBCHEM_EXACT_MASS>
479.1531179

> <PUBCHEM_MOLECULAR_FORMULA>
C27H27Cl2N3O

> <PUBCHEM_MOLECULAR_WEIGHT>
480.4

> <PUBCHEM_OPENEYE_CAN_SMILES>
C1CN(CCN1CCCCNC(=O)C2=CC3=C(C=C2)C4=CC=CC=C43)C5=C(C(=CC=C5)Cl)Cl

> <PUBCHEM_OPENEYE_ISO_SMILES>
C1CN(CCN1CCCCNC(=O)C2=CC3=C(C=C2)C4=CC=CC=C43)C5=C(C(=CC=C5)Cl)Cl

> <PUBCHEM_CACTVS_TPSA>
35.6

> <PUBCHEM_MONOISOTOPIC_WEIGHT>
479.1531179

> <PUBCHEM_TOTAL_CHARGE>
0

> <PUBCHEM_HEAVY_ATOM_COUNT>
33

> <PUBCHEM_ATOM_DEF_STEREO_COUNT>
0

> <PUBCHEM_ATOM_UDEF_STEREO_COUNT>
0

> <PUBCHEM_BOND_DEF_STEREO_COUNT>
0

> <PUBCHEM_BOND_UDEF_STEREO_COUNT>
0

> <PUBCHEM_ISOTOPIC_ATOM_COUNT>
0

> <PUBCHEM_COMPONENT_COUNT>
1

> <PUBCHEM_CACTVS_TAUTO_COUNT>
-1

> <PUBCHEM_COORDINATE_TYPE>
1
5
255

> <PUBCHEM_BONDANNOTATIONS>
14  17  8
14  18  8
16  19  8
16  23  8
17  26  8
18  27  8
19  24  8
20  21  8
20  29  8
21  30  8
22  23  8
22  28  8
24  28  8
26  31  8
27  31  8
29  32  8
30  33  8
32  33  8

$$$$
