90644078
  -OEChem-09292322342D

 55 59  0     0  0  0  0  0  0999 V2000
    2.0000   -2.5916    0.0000 Cl  0  0  0  0  0  0  0  0  0  0  0  0
    7.1279   -1.5916    0.0000 S   0  0  0  0  0  0  0  0  0  0  0  0
    5.5443   -2.3963    0.0000 S   0  0  0  0  0  0  0  0  0  0  0  0
   15.6577   -0.3595    0.0000 O   0  0  0  0  0  0  0  0  0  0  0  0
    7.1279   -0.5916    0.0000 O   0  0  0  0  0  0  0  0  0  0  0  0
    7.1279   -2.5916    0.0000 O   0  0  0  0  0  0  0  0  0  0  0  0
   11.1279    0.1405    0.0000 N   0  0  0  0  0  0  0  0  0  0  0  0
   13.1279    0.1405    0.0000 N   0  0  0  0  0  0  0  0  0  0  0  0
    8.1279   -1.5916    0.0000 N   0  0  0  0  0  0  0  0  0  0  0  0
   14.7115   -0.6642    0.0000 N   0  0  0  0  0  0  0  0  0  0  0  0
   11.6279   -0.7255    0.0000 C   0  0  0  0  0  0  0  0  0  0  0  0
   11.6279    1.0065    0.0000 C   0  0  0  0  0  0  0  0  0  0  0  0
   12.6279   -0.7255    0.0000 C   0  0  0  0  0  0  0  0  0  0  0  0
   12.6279    1.0065    0.0000 C   0  0  0  0  0  0  0  0  0  0  0  0
   10.1279    0.1405    0.0000 C   0  0  0  0  0  0  0  0  0  0  0  0
    9.6279   -0.7255    0.0000 C   0  0  0  0  0  0  0  0  0  0  0  0
   14.1279    0.1405    0.0000 C   0  0  0  0  0  0  0  0  0  0  0  0
    8.6279   -0.7255    0.0000 C   0  0  0  0  0  0  0  0  0  0  0  0
   14.7115    0.9452    0.0000 C   0  0  0  0  0  0  0  0  0  0  0  0
   15.6620    0.6346    0.0000 C   0  0  0  0  0  0  0  0  0  0  0  0
   14.5053    1.9237    0.0000 C   0  0  0  0  0  0  0  0  0  0  0  0
    6.1279   -1.5916    0.0000 C   0  0  0  0  0  0  0  0  0  0  0  0
   16.4063    1.3024    0.0000 C   0  0  0  0  0  0  0  0  0  0  0  0
   15.2496    2.5916    0.0000 C   0  0  0  0  0  0  0  0  0  0  0  0
    5.5443   -0.7868    0.0000 C   0  0  0  0  0  0  0  0  0  0  0  0
   16.2001    2.2809    0.0000 C   0  0  0  0  0  0  0  0  0  0  0  0
    4.5981   -1.0916    0.0000 C   0  0  0  0  0  0  0  0  0  0  0  0
    4.5981   -2.0916    0.0000 C   0  0  0  0  0  0  0  0  0  0  0  0
    3.7320   -0.5916    0.0000 C   0  0  0  0  0  0  0  0  0  0  0  0
    3.7320   -2.5916    0.0000 C   0  0  0  0  0  0  0  0  0  0  0  0
    2.8660   -1.0916    0.0000 C   0  0  0  0  0  0  0  0  0  0  0  0
    2.8660   -2.0916    0.0000 C   0  0  0  0  0  0  0  0  0  0  0  0
   11.0453   -0.9376    0.0000 H   0  0  0  0  0  0  0  0  0  0  0  0
   11.7356   -1.3361    0.0000 H   0  0  0  0  0  0  0  0  0  0  0  0
   11.7356    1.6171    0.0000 H   0  0  0  0  0  0  0  0  0  0  0  0
   11.0453    1.2186    0.0000 H   0  0  0  0  0  0  0  0  0  0  0  0
   12.5202   -1.3361    0.0000 H   0  0  0  0  0  0  0  0  0  0  0  0
   13.2105   -0.9376    0.0000 H   0  0  0  0  0  0  0  0  0  0  0  0
   13.2105    1.2186    0.0000 H   0  0  0  0  0  0  0  0  0  0  0  0
   12.5202    1.6171    0.0000 H   0  0  0  0  0  0  0  0  0  0  0  0
   10.2356    0.7511    0.0000 H   0  0  0  0  0  0  0  0  0  0  0  0
    9.5453    0.3525    0.0000 H   0  0  0  0  0  0  0  0  0  0  0  0
    9.5202   -1.3361    0.0000 H   0  0  0  0  0  0  0  0  0  0  0  0
   10.2105   -0.9376    0.0000 H   0  0  0  0  0  0  0  0  0  0  0  0
    8.7356   -0.1150    0.0000 H   0  0  0  0  0  0  0  0  0  0  0  0
    8.0453   -0.5135    0.0000 H   0  0  0  0  0  0  0  0  0  0  0  0
    8.4379   -2.1285    0.0000 H   0  0  0  0  0  0  0  0  0  0  0  0
   13.9160    2.1163    0.0000 H   0  0  0  0  0  0  0  0  0  0  0  0
   16.9957    1.1098    0.0000 H   0  0  0  0  0  0  0  0  0  0  0  0
   15.1217    3.1982    0.0000 H   0  0  0  0  0  0  0  0  0  0  0  0
    5.7369   -0.1975    0.0000 H   0  0  0  0  0  0  0  0  0  0  0  0
   16.6616    2.6950    0.0000 H   0  0  0  0  0  0  0  0  0  0  0  0
    3.7320    0.0284    0.0000 H   0  0  0  0  0  0  0  0  0  0  0  0
    3.7320   -3.2116    0.0000 H   0  0  0  0  0  0  0  0  0  0  0  0
    2.3291   -0.7816    0.0000 H   0  0  0  0  0  0  0  0  0  0  0  0
  1 32  1  0  0  0  0
  2  5  2  0  0  0  0
  2  6  2  0  0  0  0
  2  9  1  0  0  0  0
  2 22  1  0  0  0  0
  3 22  1  0  0  0  0
  3 28  1  0  0  0  0
  4 10  1  0  0  0  0
  4 20  1  0  0  0  0
  7 11  1  0  0  0  0
  7 12  1  0  0  0  0
  7 15  1  0  0  0  0
  8 13  1  0  0  0  0
  8 14  1  0  0  0  0
  8 17  1  0  0  0  0
  9 18  1  0  0  0  0
  9 47  1  0  0  0  0
 10 17  2  0  0  0  0
 11 13  1  0  0  0  0
 11 33  1  0  0  0  0
 11 34  1  0  0  0  0
 12 14  1  0  0  0  0
 12 35  1  0  0  0  0
 12 36  1  0  0  0  0
 13 37  1  0  0  0  0
 13 38  1  0  0  0  0
 14 39  1  0  0  0  0
 14 40  1  0  0  0  0
 15 16  1  0  0  0  0
 15 41  1  0  0  0  0
 15 42  1  0  0  0  0
 16 18  1  0  0  0  0
 16 43  1  0  0  0  0
 16 44  1  0  0  0  0
 17 19  1  0  0  0  0
 18 45  1  0  0  0  0
 18 46  1  0  0  0  0
 19 20  1  0  0  0  0
 19 21  2  0  0  0  0
 20 23  2  0  0  0  0
 21 24  1  0  0  0  0
 21 48  1  0  0  0  0
 22 25  2  0  0  0  0
 23 26  1  0  0  0  0
 23 49  1  0  0  0  0
 24 26  2  0  0  0  0
 24 50  1  0  0  0  0
 25 27  1  0  0  0  0
 25 51  1  0  0  0  0
 26 52  1  0  0  0  0
 27 28  2  0  0  0  0
 27 29  1  0  0  0  0
 28 30  1  0  0  0  0
 29 31  2  0  0  0  0
 29 53  1  0  0  0  0
 30 32  2  0  0  0  0
 30 54  1  0  0  0  0
 31 32  1  0  0  0  0
 31 55  1  0  0  0  0
M  END
> <PUBCHEM_COMPOUND_CID>
90644078

> <PUBCHEM_COMPOUND_CANONICALIZED>
1

> <PUBCHEM_CACTVS_COMPLEXITY>
731

> <PUBCHEM_CACTVS_HBOND_ACCEPTOR>
8

> <PUBCHEM_CACTVS_HBOND_DONOR>
1

> <PUBCHEM_CACTVS_ROTATABLE_BOND>
7

> <PUBCHEM_CACTVS_SUBSKEYS>
AAADceB7sABkAAAAAAAAAAAAAAAAAWJAAAA8YIAAAAAAAFgB/gAAHgYUQAAADAbB2iQxt9NQAAqtAqJyYnDDAZAlLRBpmLkuTtqIZrrh35OUMYhm0BvoyceYyKCOBAAAABAMAAAIAAAAIBgAAAAAAAAAAA==

> <PUBCHEM_IUPAC_OPENEYE_NAME>
N-[3-[4-(1,2-benzoxazol-3-yl)piperazin-1-yl]propyl]-6-chloro-benzothiophene-2-sulfonamide

> <PUBCHEM_IUPAC_CAS_NAME>
N-[3-[4-(1,2-benzoxazol-3-yl)-1-piperazinyl]propyl]-6-chloro-1-benzothiophene-2-sulfonamide

> <PUBCHEM_IUPAC_NAME_MARKUP>
<I>N</I>-[3-[4-(1,2-benzoxazol-3-yl)piperazin-1-yl]propyl]-6-chloro-1-benzothiophene-2-sulfonamide

> <PUBCHEM_IUPAC_NAME>
N-[3-[4-(1,2-benzoxazol-3-yl)piperazin-1-yl]propyl]-6-chloro-1-benzothiophene-2-sulfonamide

> <PUBCHEM_IUPAC_SYSTEMATIC_NAME>
N-[3-[4-(1,2-benzoxazol-3-yl)piperazin-1-yl]propyl]-6-chloranyl-1-benzothiophene-2-sulfonamide

> <PUBCHEM_IUPAC_TRADITIONAL_NAME>
6-chloro-N-[3-(4-indoxazen-3-ylpiperazino)propyl]benzothiophene-2-sulfonamide

> <PUBCHEM_IUPAC_INCHI>
InChI=1S/C22H23ClN4O3S2/c23-17-7-6-16-14-21(31-20(16)15-17)32(28,29)24-8-3-9-26-10-12-27(13-11-26)22-18-4-1-2-5-19(18)30-25-22/h1-2,4-7,14-15,24H,3,8-13H2

> <PUBCHEM_IUPAC_INCHIKEY>
UYSWWUHGOKVFCN-UHFFFAOYSA-N

> <PUBCHEM_XLOGP3_AA>
5

> <PUBCHEM_EXACT_MASS>
490.0900106

> <PUBCHEM_MOLECULAR_FORMULA>
C22H23ClN4O3S2

> <PUBCHEM_MOLECULAR_WEIGHT>
491.0

> <PUBCHEM_OPENEYE_CAN_SMILES>
C1CN(CCN1CCCNS(=O)(=O)C2=CC3=C(S2)C=C(C=C3)Cl)C4=NOC5=CC=CC=C54

> <PUBCHEM_OPENEYE_ISO_SMILES>
C1CN(CCN1CCCNS(=O)(=O)C2=CC3=C(S2)C=C(C=C3)Cl)C4=NOC5=CC=CC=C54

> <PUBCHEM_CACTVS_TPSA>
115

> <PUBCHEM_MONOISOTOPIC_WEIGHT>
490.0900106

> <PUBCHEM_TOTAL_CHARGE>
0

> <PUBCHEM_HEAVY_ATOM_COUNT>
32

> <PUBCHEM_ATOM_DEF_STEREO_COUNT>
0

> <PUBCHEM_ATOM_UDEF_STEREO_COUNT>
0

> <PUBCHEM_BOND_DEF_STEREO_COUNT>
0

> <PUBCHEM_BOND_UDEF_STEREO_COUNT>
0

> <PUBCHEM_ISOTOPIC_ATOM_COUNT>
0

> <PUBCHEM_COMPONENT_COUNT>
1

> <PUBCHEM_CACTVS_TAUTO_COUNT>
-1

> <PUBCHEM_COORDINATE_TYPE>
1
5
255

> <PUBCHEM_BONDANNOTATIONS>
10  17  8
17  19  8
19  20  8
19  21  8
20  23  8
21  24  8
22  25  8
23  26  8
24  26  8
25  27  8
27  28  8
27  29  8
28  30  8
29  31  8
3  22  8
3  28  8
30  32  8
31  32  8
4  10  8
4  20  8

$$$$
