126534022
  -OEChem-09292322372D

 65 69  0     1  0  0  0  0  0999 V2000
    9.0771    2.7681    0.0000 S   0  0  0  0  0  0  0  0  0  0  0  0
    2.3601   -3.5772    0.0000 F   0  0  0  0  0  0  0  0  0  0  0  0
    3.5962    0.2271    0.0000 N   0  0  3  0  0  0  0  0  0  0  0  0
    6.0771    1.0361    0.0000 N   0  0  3  0  0  0  0  0  0  0  0  0
   10.6649    1.9591    0.0000 N   0  0  0  0  0  0  0  0  0  0  0  0
   11.6159    3.2681    0.0000 N   0  0  0  0  0  0  0  0  0  0  0  0
   10.6649    3.5772    0.0000 N   0  0  0  0  0  0  0  0  0  0  0  0
    4.5472    1.5361    0.0000 C   0  0  3  0  0  0  0  0  0  0  0  0
    4.5472    0.5361    0.0000 C   0  0  3  0  0  0  0  0  0  0  0  0
    5.4935    1.8408    0.0000 C   0  0  0  0  0  0  0  0  0  0  0  0
    3.5962    1.8451    0.0000 C   0  0  0  0  0  0  0  0  0  0  0  0
    5.4935    0.2314    0.0000 C   0  0  0  0  0  0  0  0  0  0  0  0
    3.0084    1.0361    0.0000 C   0  0  0  0  0  0  0  0  0  0  0  0
    7.0771    1.0361    0.0000 C   0  0  0  0  0  0  0  0  0  0  0  0
    3.2872   -0.7240    0.0000 C   0  0  0  0  0  0  0  0  0  0  0  0
    7.5771    1.9021    0.0000 C   0  0  0  0  0  0  0  0  0  0  0  0
    3.9563   -1.4671    0.0000 C   0  0  0  0  0  0  0  0  0  0  0  0
    2.3090   -0.9319    0.0000 C   0  0  0  0  0  0  0  0  0  0  0  0
    8.5771    1.9021    0.0000 C   0  0  0  0  0  0  0  0  0  0  0  0
   12.4249    1.6804    0.0000 C   0  0  0  0  0  0  0  0  0  0  0  0
   12.3204    0.6858    0.0000 C   0  0  0  0  0  0  0  0  0  0  0  0
   13.3385    2.0871    0.0000 C   0  0  0  0  0  0  0  0  0  0  0  0
   13.1294    0.0980    0.0000 C   0  0  0  0  0  0  0  0  0  0  0  0
   14.1475    1.4993    0.0000 C   0  0  0  0  0  0  0  0  0  0  0  0
   14.0430    0.5048    0.0000 C   0  0  0  0  0  0  0  0  0  0  0  0
    3.6473   -2.4182    0.0000 C   0  0  0  0  0  0  0  0  0  0  0  0
    2.0000   -1.8830    0.0000 C   0  0  0  0  0  0  0  0  0  0  0  0
   11.6159    2.2681    0.0000 C   0  0  0  0  0  0  0  0  0  0  0  0
    2.6691   -2.6261    0.0000 C   0  0  0  0  0  0  0  0  0  0  0  0
   10.0771    2.7681    0.0000 C   0  0  0  0  0  0  0  0  0  0  0  0
   10.3558    1.0081    0.0000 C   0  0  0  0  0  0  0  0  0  0  0  0
    4.5480    2.1561    0.0000 H   0  0  0  0  0  0  0  0  0  0  0  0
    4.5480   -0.0839    0.0000 H   0  0  0  0  0  0  0  0  0  0  0  0
    6.0308    2.1500    0.0000 H   0  0  0  0  0  0  0  0  0  0  0  0
    5.2424    2.4077    0.0000 H   0  0  0  0  0  0  0  0  0  0  0  0
    3.8484    2.4115    0.0000 H   0  0  0  0  0  0  0  0  0  0  0  0
    3.0592    2.1551    0.0000 H   0  0  0  0  0  0  0  0  0  0  0  0
    5.2424   -0.3356    0.0000 H   0  0  0  0  0  0  0  0  0  0  0  0
    6.0308   -0.0779    0.0000 H   0  0  0  0  0  0  0  0  0  0  0  0
    2.5476    1.4510    0.0000 H   0  0  0  0  0  0  0  0  0  0  0  0
    2.5476    0.6212    0.0000 H   0  0  0  0  0  0  0  0  0  0  0  0
    6.9694    0.4255    0.0000 H   0  0  0  0  0  0  0  0  0  0  0  0
    7.6597    0.8240    0.0000 H   0  0  0  0  0  0  0  0  0  0  0  0
    7.6847    2.5127    0.0000 H   0  0  0  0  0  0  0  0  0  0  0  0
    6.9945    2.1142    0.0000 H   0  0  0  0  0  0  0  0  0  0  0  0
    4.5628   -1.3382    0.0000 H   0  0  0  0  0  0  0  0  0  0  0  0
    1.8942   -0.4711    0.0000 H   0  0  0  0  0  0  0  0  0  0  0  0
    8.4694    1.2915    0.0000 H   0  0  0  0  0  0  0  0  0  0  0  0
    9.1597    1.6901    0.0000 H   0  0  0  0  0  0  0  0  0  0  0  0
   12.4897    2.2970    0.0000 H   0  0  0  0  0  0  0  0  0  0  0  0
   11.7244    0.8567    0.0000 H   0  0  0  0  0  0  0  0  0  0  0  0
   12.0486    0.1286    0.0000 H   0  0  0  0  0  0  0  0  0  0  0  0
   13.7845    2.5178    0.0000 H   0  0  0  0  0  0  0  0  0  0  0  0
   12.9918    2.6011    0.0000 H   0  0  0  0  0  0  0  0  0  0  0  0
   12.6834   -0.3326    0.0000 H   0  0  0  0  0  0  0  0  0  0  0  0
   13.4761   -0.4160    0.0000 H   0  0  0  0  0  0  0  0  0  0  0  0
   14.7435    1.3284    0.0000 H   0  0  0  0  0  0  0  0  0  0  0  0
   14.4193    2.0566    0.0000 H   0  0  0  0  0  0  0  0  0  0  0  0
   14.1930   -0.0968    0.0000 H   0  0  0  0  0  0  0  0  0  0  0  0
   14.6614    0.5480    0.0000 H   0  0  0  0  0  0  0  0  0  0  0  0
    4.0621   -2.8789    0.0000 H   0  0  0  0  0  0  0  0  0  0  0  0
    1.3936   -2.0119    0.0000 H   0  0  0  0  0  0  0  0  0  0  0  0
    9.7662    1.1997    0.0000 H   0  0  0  0  0  0  0  0  0  0  0  0
   10.1642    0.4184    0.0000 H   0  0  0  0  0  0  0  0  0  0  0  0
   10.9455    0.8165    0.0000 H   0  0  0  0  0  0  0  0  0  0  0  0
  1 19  1  0  0  0  0
  1 30  1  0  0  0  0
  2 29  1  0  0  0  0
  3  9  1  0  0  0  0
  3 13  1  0  0  0  0
  3 15  1  0  0  0  0
  4 10  1  0  0  0  0
  4 12  1  0  0  0  0
  4 14  1  0  0  0  0
  5 28  1  0  0  0  0
  5 30  1  0  0  0  0
  5 31  1  0  0  0  0
  6  7  1  0  0  0  0
  6 28  2  0  0  0  0
  7 30  2  0  0  0  0
  8  9  1  0  0  0  0
  8 10  1  0  0  0  0
  8 11  1  0  0  0  0
  8 32  1  0  0  0  0
  9 12  1  0  0  0  0
  9 33  1  0  0  0  0
 10 34  1  0  0  0  0
 10 35  1  0  0  0  0
 11 13  1  0  0  0  0
 11 36  1  0  0  0  0
 11 37  1  0  0  0  0
 12 38  1  0  0  0  0
 12 39  1  0  0  0  0
 13 40  1  0  0  0  0
 13 41  1  0  0  0  0
 14 16  1  0  0  0  0
 14 42  1  0  0  0  0
 14 43  1  0  0  0  0
 15 17  2  0  0  0  0
 15 18  1  0  0  0  0
 16 19  1  0  0  0  0
 16 44  1  0  0  0  0
 16 45  1  0  0  0  0
 17 26  1  0  0  0  0
 17 46  1  0  0  0  0
 18 27  2  0  0  0  0
 18 47  1  0  0  0  0
 19 48  1  0  0  0  0
 19 49  1  0  0  0  0
 20 21  1  0  0  0  0
 20 22  1  0  0  0  0
 20 28  1  0  0  0  0
 20 50  1  0  0  0  0
 21 23  1  0  0  0  0
 21 51  1  0  0  0  0
 21 52  1  0  0  0  0
 22 24  1  0  0  0  0
 22 53  1  0  0  0  0
 22 54  1  0  0  0  0
 23 25  1  0  0  0  0
 23 55  1  0  0  0  0
 23 56  1  0  0  0  0
 24 25  1  0  0  0  0
 24 57  1  0  0  0  0
 24 58  1  0  0  0  0
 25 59  1  0  0  0  0
 25 60  1  0  0  0  0
 26 29  2  0  0  0  0
 26 61  1  0  0  0  0
 27 29  1  0  0  0  0
 27 62  1  0  0  0  0
 31 63  1  0  0  0  0
 31 64  1  0  0  0  0
 31 65  1  0  0  0  0
M  END
> <PUBCHEM_COMPOUND_CID>
126534022

> <PUBCHEM_COMPOUND_CANONICALIZED>
1

> <PUBCHEM_CACTVS_COMPLEXITY>
568

> <PUBCHEM_CACTVS_HBOND_ACCEPTOR>
6

> <PUBCHEM_CACTVS_HBOND_DONOR>
0

> <PUBCHEM_CACTVS_ROTATABLE_BOND>
7

> <PUBCHEM_CACTVS_SUBSKEYS>
AAADcfB7gQBAAAAAAAAAAAAAAAAAAWLFgAAwYAAAAAAWAAABwAAAHQQIAAAADSjFUwyz0IcMEAiiACZiZACS0AthArAdyAA4ZIiIaCLg2ZGUIAhgiALIyAcQgAAOAAAAAAAAAAAAAAAAAAAAAAAAAAAAAA==

> <PUBCHEM_IUPAC_OPENEYE_NAME>
5-[3-[(5-cyclohexyl-4-methyl-1,2,4-triazol-3-yl)sulfanyl]propyl]-1-(4-fluorophenyl)-2,3,3a,4,6,6a-hexahydropyrrolo[2,3-c]pyrrole

> <PUBCHEM_IUPAC_CAS_NAME>
5-[3-[(5-cyclohexyl-4-methyl-1,2,4-triazol-3-yl)thio]propyl]-1-(4-fluorophenyl)-2,3,3a,4,6,6a-hexahydropyrrolo[2,3-c]pyrrole

> <PUBCHEM_IUPAC_NAME_MARKUP>
5-[3-[(5-cyclohexyl-4-methyl-1,2,4-triazol-3-yl)sulfanyl]propyl]-1-(4-fluorophenyl)-2,3,3<I>a</I>,4,6,6<I>a</I>-hexahydropyrrolo[2,3-c]pyrrole

> <PUBCHEM_IUPAC_NAME>
5-[3-[(5-cyclohexyl-4-methyl-1,2,4-triazol-3-yl)sulfanyl]propyl]-1-(4-fluorophenyl)-2,3,3a,4,6,6a-hexahydropyrrolo[2,3-c]pyrrole

> <PUBCHEM_IUPAC_SYSTEMATIC_NAME>
5-[3-[(5-cyclohexyl-4-methyl-1,2,4-triazol-3-yl)sulfanyl]propyl]-1-(4-fluorophenyl)-2,3,3a,4,6,6a-hexahydropyrrolo[2,3-c]pyrrole

> <PUBCHEM_IUPAC_TRADITIONAL_NAME>
5-[3-[(5-cyclohexyl-4-methyl-1,2,4-triazol-3-yl)thio]propyl]-1-(4-fluorophenyl)-2,3,3a,4,6,6a-hexahydropyrrolo[2,3-c]pyrrole

> <PUBCHEM_IUPAC_INCHI>
InChI=1S/C24H34FN5S/c1-28-23(18-6-3-2-4-7-18)26-27-24(28)31-15-5-13-29-16-19-12-14-30(22(19)17-29)21-10-8-20(25)9-11-21/h8-11,18-19,22H,2-7,12-17H2,1H3

> <PUBCHEM_IUPAC_INCHIKEY>
XUKSGYGUDPUQCB-UHFFFAOYSA-N

> <PUBCHEM_XLOGP3_AA>
5

> <PUBCHEM_EXACT_MASS>
443.25189544

> <PUBCHEM_MOLECULAR_FORMULA>
C24H34FN5S

> <PUBCHEM_MOLECULAR_WEIGHT>
443.6

> <PUBCHEM_OPENEYE_CAN_SMILES>
CN1C(=NN=C1SCCCN2CC3CCN(C3C2)C4=CC=C(C=C4)F)C5CCCCC5

> <PUBCHEM_OPENEYE_ISO_SMILES>
CN1C(=NN=C1SCCCN2CC3CCN(C3C2)C4=CC=C(C=C4)F)C5CCCCC5

> <PUBCHEM_CACTVS_TPSA>
62.5

> <PUBCHEM_MONOISOTOPIC_WEIGHT>
443.25189544

> <PUBCHEM_TOTAL_CHARGE>
0

> <PUBCHEM_HEAVY_ATOM_COUNT>
31

> <PUBCHEM_ATOM_DEF_STEREO_COUNT>
0

> <PUBCHEM_ATOM_UDEF_STEREO_COUNT>
2

> <PUBCHEM_BOND_DEF_STEREO_COUNT>
0

> <PUBCHEM_BOND_UDEF_STEREO_COUNT>
0

> <PUBCHEM_ISOTOPIC_ATOM_COUNT>
0

> <PUBCHEM_COMPONENT_COUNT>
1

> <PUBCHEM_CACTVS_TAUTO_COUNT>
-1

> <PUBCHEM_COORDINATE_TYPE>
1
5
255

> <PUBCHEM_BONDANNOTATIONS>
15  17  8
15  18  8
17  26  8
18  27  8
26  29  8
27  29  8
5  28  8
5  30  8
6  28  8
6  7  8
7  30  8
8  11  3
9  12  3

$$$$
