16041263
  -OEChem-09292322242D

 68 71  0     0  0  0  0  0  0999 V2000
    8.0622    3.2500    0.0000 Cl  0  0  0  0  0  0  0  0  0  0  0  0
    3.7320   -4.2500    0.0000 O   0  0  0  0  0  0  0  0  0  0  0  0
    7.1962    2.7500    0.0000 O   0  0  0  0  0  0  0  0  0  0  0  0
    5.4641   -1.2500    0.0000 N   0  0  0  0  0  0  0  0  0  0  0  0
    5.4641   -3.2500    0.0000 N   0  0  0  0  0  0  0  0  0  0  0  0
    5.4641    2.7500    0.0000 N   0  0  0  0  0  0  0  0  0  0  0  0
    6.3301    4.2500    0.0000 N   0  0  0  0  0  0  0  0  0  0  0  0
    5.4641   -0.2500    0.0000 C   0  0  0  0  0  0  0  0  0  0  0  0
    4.5981    0.2500    0.0000 C   0  0  0  0  0  0  0  0  0  0  0  0
    6.3301    0.2500    0.0000 C   0  0  0  0  0  0  0  0  0  0  0  0
    5.4641    1.7500    0.0000 C   0  0  0  0  0  0  0  0  0  0  0  0
    4.5981    1.2500    0.0000 C   0  0  0  0  0  0  0  0  0  0  0  0
    6.3301    1.2500    0.0000 C   0  0  0  0  0  0  0  0  0  0  0  0
    6.3301   -1.7500    0.0000 C   0  0  0  0  0  0  0  0  0  0  0  0
    4.5981   -1.7500    0.0000 C   0  0  0  0  0  0  0  0  0  0  0  0
    6.3301   -2.7500    0.0000 C   0  0  0  0  0  0  0  0  0  0  0  0
    4.5981   -2.7500    0.0000 C   0  0  0  0  0  0  0  0  0  0  0  0
    5.4641   -4.2500    0.0000 C   0  0  0  0  0  0  0  0  0  0  0  0
    6.3301    3.2500    0.0000 C   0  0  0  0  0  0  0  0  0  0  0  0
    4.5981   -4.7500    0.0000 C   0  0  0  0  0  0  0  0  0  0  0  0
    6.3301   -4.7500    0.0000 C   0  0  0  0  0  0  0  0  0  0  0  0
    4.5981   -5.7500    0.0000 C   0  0  0  0  0  0  0  0  0  0  0  0
    6.3301   -5.7500    0.0000 C   0  0  0  0  0  0  0  0  0  0  0  0
    5.4641   -6.2500    0.0000 C   0  0  0  0  0  0  0  0  0  0  0  0
    7.1962    4.7500    0.0000 C   0  0  0  0  0  0  0  0  0  0  0  0
    2.8660   -4.7500    0.0000 C   0  0  0  0  0  0  0  0  0  0  0  0
    2.0000   -4.2500    0.0000 C   0  0  0  0  0  0  0  0  0  0  0  0
    2.8660   -5.7500    0.0000 C   0  0  0  0  0  0  0  0  0  0  0  0
    8.0622    4.2500    0.0000 C   0  0  0  0  0  0  0  0  0  0  0  0
    7.1962    5.7500    0.0000 C   0  0  0  0  0  0  0  0  0  0  0  0
    8.9282    4.7500    0.0000 C   0  0  0  0  0  0  0  0  0  0  0  0
    8.0622    6.2500    0.0000 C   0  0  0  0  0  0  0  0  0  0  0  0
    8.9282    5.7500    0.0000 C   0  0  0  0  0  0  0  0  0  0  0  0
    6.0010   -0.5600    0.0000 H   0  0  0  0  0  0  0  0  0  0  0  0
    3.9875    0.3577    0.0000 H   0  0  0  0  0  0  0  0  0  0  0  0
    4.3860   -0.3326    0.0000 H   0  0  0  0  0  0  0  0  0  0  0  0
    6.5422   -0.3326    0.0000 H   0  0  0  0  0  0  0  0  0  0  0  0
    6.9407    0.3577    0.0000 H   0  0  0  0  0  0  0  0  0  0  0  0
    6.0010    2.0600    0.0000 H   0  0  0  0  0  0  0  0  0  0  0  0
    4.3860    1.8326    0.0000 H   0  0  0  0  0  0  0  0  0  0  0  0
    3.9875    1.1423    0.0000 H   0  0  0  0  0  0  0  0  0  0  0  0
    6.9407    1.1423    0.0000 H   0  0  0  0  0  0  0  0  0  0  0  0
    6.5422    1.8326    0.0000 H   0  0  0  0  0  0  0  0  0  0  0  0
    6.9407   -1.8577    0.0000 H   0  0  0  0  0  0  0  0  0  0  0  0
    6.5422   -1.1674    0.0000 H   0  0  0  0  0  0  0  0  0  0  0  0
    4.3860   -1.1674    0.0000 H   0  0  0  0  0  0  0  0  0  0  0  0
    3.9875   -1.8577    0.0000 H   0  0  0  0  0  0  0  0  0  0  0  0
    6.5422   -3.3326    0.0000 H   0  0  0  0  0  0  0  0  0  0  0  0
    6.9407   -2.6423    0.0000 H   0  0  0  0  0  0  0  0  0  0  0  0
    3.9875   -2.6423    0.0000 H   0  0  0  0  0  0  0  0  0  0  0  0
    4.3860   -3.3326    0.0000 H   0  0  0  0  0  0  0  0  0  0  0  0
    4.9272    3.0600    0.0000 H   0  0  0  0  0  0  0  0  0  0  0  0
    6.8671   -4.4400    0.0000 H   0  0  0  0  0  0  0  0  0  0  0  0
    5.7932    4.5600    0.0000 H   0  0  0  0  0  0  0  0  0  0  0  0
    4.0611   -6.0600    0.0000 H   0  0  0  0  0  0  0  0  0  0  0  0
    6.8671   -6.0600    0.0000 H   0  0  0  0  0  0  0  0  0  0  0  0
    5.4641   -6.8700    0.0000 H   0  0  0  0  0  0  0  0  0  0  0  0
    2.8660   -4.1300    0.0000 H   0  0  0  0  0  0  0  0  0  0  0  0
    2.3100   -3.7131    0.0000 H   0  0  0  0  0  0  0  0  0  0  0  0
    1.4631   -3.9400    0.0000 H   0  0  0  0  0  0  0  0  0  0  0  0
    1.6900   -4.7869    0.0000 H   0  0  0  0  0  0  0  0  0  0  0  0
    2.2460   -5.7500    0.0000 H   0  0  0  0  0  0  0  0  0  0  0  0
    2.8660   -6.3700    0.0000 H   0  0  0  0  0  0  0  0  0  0  0  0
    3.4860   -5.7500    0.0000 H   0  0  0  0  0  0  0  0  0  0  0  0
    6.6592    6.0600    0.0000 H   0  0  0  0  0  0  0  0  0  0  0  0
    9.4651    4.4400    0.0000 H   0  0  0  0  0  0  0  0  0  0  0  0
    8.0622    6.8700    0.0000 H   0  0  0  0  0  0  0  0  0  0  0  0
    9.4651    6.0600    0.0000 H   0  0  0  0  0  0  0  0  0  0  0  0
  1 29  1  0  0  0  0
  2 20  1  0  0  0  0
  2 26  1  0  0  0  0
  3 19  2  0  0  0  0
  4  8  1  0  0  0  0
  4 14  1  0  0  0  0
  4 15  1  0  0  0  0
  5 16  1  0  0  0  0
  5 17  1  0  0  0  0
  5 18  1  0  0  0  0
  6 11  1  0  0  0  0
  6 19  1  0  0  0  0
  6 52  1  0  0  0  0
  7 19  1  0  0  0  0
  7 25  1  0  0  0  0
  7 54  1  0  0  0  0
  8  9  1  0  0  0  0
  8 10  1  0  0  0  0
  8 34  1  0  0  0  0
  9 12  1  0  0  0  0
  9 35  1  0  0  0  0
  9 36  1  0  0  0  0
 10 13  1  0  0  0  0
 10 37  1  0  0  0  0
 10 38  1  0  0  0  0
 11 12  1  0  0  0  0
 11 13  1  0  0  0  0
 11 39  1  0  0  0  0
 12 40  1  0  0  0  0
 12 41  1  0  0  0  0
 13 42  1  0  0  0  0
 13 43  1  0  0  0  0
 14 16  1  0  0  0  0
 14 44  1  0  0  0  0
 14 45  1  0  0  0  0
 15 17  1  0  0  0  0
 15 46  1  0  0  0  0
 15 47  1  0  0  0  0
 16 48  1  0  0  0  0
 16 49  1  0  0  0  0
 17 50  1  0  0  0  0
 17 51  1  0  0  0  0
 18 20  1  0  0  0  0
 18 21  2  0  0  0  0
 20 22  2  0  0  0  0
 21 23  1  0  0  0  0
 21 53  1  0  0  0  0
 22 24  1  0  0  0  0
 22 55  1  0  0  0  0
 23 24  2  0  0  0  0
 23 56  1  0  0  0  0
 24 57  1  0  0  0  0
 25 29  1  0  0  0  0
 25 30  2  0  0  0  0
 26 27  1  0  0  0  0
 26 28  1  0  0  0  0
 26 58  1  0  0  0  0
 27 59  1  0  0  0  0
 27 60  1  0  0  0  0
 27 61  1  0  0  0  0
 28 62  1  0  0  0  0
 28 63  1  0  0  0  0
 28 64  1  0  0  0  0
 29 31  2  0  0  0  0
 30 32  1  0  0  0  0
 30 65  1  0  0  0  0
 31 33  1  0  0  0  0
 31 66  1  0  0  0  0
 32 33  2  0  0  0  0
 32 67  1  0  0  0  0
 33 68  1  0  0  0  0
M  END
> <PUBCHEM_COMPOUND_CID>
16041263

> <PUBCHEM_COMPOUND_CANONICALIZED>
1

> <PUBCHEM_CACTVS_COMPLEXITY>
605

> <PUBCHEM_CACTVS_HBOND_ACCEPTOR>
4

> <PUBCHEM_CACTVS_HBOND_DONOR>
2

> <PUBCHEM_CACTVS_ROTATABLE_BOND>
6

> <PUBCHEM_CACTVS_SUBSKEYS>
AAADcfB7sAAEAAAAAAAAAAAAAAAAAAAAAAA8YMEAAAAAAAABQAAAHgIQAAAACD7hkCYzxoPABACIACRCUACCCAAhJwAIiIAPboiOZiLFs5vXOCjs1hPY6CeQQAAAAAAAAAAAEBAAAQAAAAAgIAAAAAAAAA==

> <PUBCHEM_IUPAC_OPENEYE_NAME>
1-(2-chlorophenyl)-3-[4-[4-(2-isopropoxyphenyl)piperazin-1-yl]cyclohexyl]urea

> <PUBCHEM_IUPAC_CAS_NAME>
1-(2-chlorophenyl)-3-[4-[4-(2-propan-2-yloxyphenyl)-1-piperazinyl]cyclohexyl]urea

> <PUBCHEM_IUPAC_NAME_MARKUP>
1-(2-chlorophenyl)-3-[4-[4-(2-propan-2-yloxyphenyl)piperazin-1-yl]cyclohexyl]urea

> <PUBCHEM_IUPAC_NAME>
1-(2-chlorophenyl)-3-[4-[4-(2-propan-2-yloxyphenyl)piperazin-1-yl]cyclohexyl]urea

> <PUBCHEM_IUPAC_SYSTEMATIC_NAME>
1-(2-chlorophenyl)-3-[4-[4-(2-propan-2-yloxyphenyl)piperazin-1-yl]cyclohexyl]urea

> <PUBCHEM_IUPAC_TRADITIONAL_NAME>
1-(2-chlorophenyl)-3-[4-[4-(2-isopropoxyphenyl)piperazino]cyclohexyl]urea

> <PUBCHEM_IUPAC_INCHI>
InChI=1S/C26H35ClN4O2/c1-19(2)33-25-10-6-5-9-24(25)31-17-15-30(16-18-31)21-13-11-20(12-14-21)28-26(32)29-23-8-4-3-7-22(23)27/h3-10,19-21H,11-18H2,1-2H3,(H2,28,29,32)

> <PUBCHEM_IUPAC_INCHIKEY>
LHOVFJRBCVNIQC-UHFFFAOYSA-N

> <PUBCHEM_XLOGP3_AA>
5.3

> <PUBCHEM_EXACT_MASS>
470.2448541

> <PUBCHEM_MOLECULAR_FORMULA>
C26H35ClN4O2

> <PUBCHEM_MOLECULAR_WEIGHT>
471.0

> <PUBCHEM_OPENEYE_CAN_SMILES>
CC(C)OC1=CC=CC=C1N2CCN(CC2)C3CCC(CC3)NC(=O)NC4=CC=CC=C4Cl

> <PUBCHEM_OPENEYE_ISO_SMILES>
CC(C)OC1=CC=CC=C1N2CCN(CC2)C3CCC(CC3)NC(=O)NC4=CC=CC=C4Cl

> <PUBCHEM_CACTVS_TPSA>
56.8

> <PUBCHEM_MONOISOTOPIC_WEIGHT>
470.2448541

> <PUBCHEM_TOTAL_CHARGE>
0

> <PUBCHEM_HEAVY_ATOM_COUNT>
33

> <PUBCHEM_ATOM_DEF_STEREO_COUNT>
0

> <PUBCHEM_ATOM_UDEF_STEREO_COUNT>
0

> <PUBCHEM_BOND_DEF_STEREO_COUNT>
0

> <PUBCHEM_BOND_UDEF_STEREO_COUNT>
0

> <PUBCHEM_ISOTOPIC_ATOM_COUNT>
0

> <PUBCHEM_COMPONENT_COUNT>
1

> <PUBCHEM_CACTVS_TAUTO_COUNT>
-1

> <PUBCHEM_COORDINATE_TYPE>
1
5
255

> <PUBCHEM_BONDANNOTATIONS>
18  20  8
18  21  8
20  22  8
21  23  8
22  24  8
23  24  8
25  29  8
25  30  8
29  31  8
30  32  8
31  33  8
32  33  8

$$$$
