45268293
  -OEChem-09292322282D

 58 62  0     0  0  0  0  0  0999 V2000
    2.0000    1.1316    0.0000 O   0  0  0  0  0  0  0  0  0  0  0  0
    5.4641   -2.8684    0.0000 O   0  0  0  0  0  0  0  0  0  0  0  0
    8.5655    1.0930    0.0000 N   0  0  0  0  0  0  0  0  0  0  0  0
   10.5225    1.5055    0.0000 N   0  0  0  0  0  0  0  0  0  0  0  0
    3.7320    0.1316    0.0000 N   0  0  0  0  0  0  0  0  0  0  0  0
    4.5981   -1.3684    0.0000 N   0  0  0  0  0  0  0  0  0  0  0  0
    7.2764   -1.6732    0.0000 N   0  0  0  0  0  0  0  0  0  0  0  0
    5.4641    0.1316    0.0000 N   0  0  0  0  0  0  0  0  0  0  0  0
    9.2334    0.3487    0.0000 C   0  0  0  0  0  0  0  0  0  0  0  0
    8.8762    2.0436    0.0000 C   0  0  0  0  0  0  0  0  0  0  0  0
   10.2119    0.5550    0.0000 C   0  0  0  0  0  0  0  0  0  0  0  0
    9.8547    2.2498    0.0000 C   0  0  0  0  0  0  0  0  0  0  0  0
    7.5870    0.8868    0.0000 C   0  0  0  0  0  0  0  0  0  0  0  0
    7.2764   -0.0637    0.0000 C   0  0  0  0  0  0  0  0  0  0  0  0
    6.3301   -0.3684    0.0000 C   0  0  0  0  0  0  0  0  0  0  0  0
   11.5010    1.7117    0.0000 C   0  0  0  0  0  0  0  0  0  0  0  0
    6.3301   -1.3684    0.0000 C   0  0  0  0  0  0  0  0  0  0  0  0
    4.5981   -0.3684    0.0000 C   0  0  0  0  0  0  0  0  0  0  0  0
    7.8600   -0.8684    0.0000 C   0  0  0  0  0  0  0  0  0  0  0  0
    2.8660   -0.3684    0.0000 C   0  0  0  0  0  0  0  0  0  0  0  0
    3.7320    1.1316    0.0000 C   0  0  0  0  0  0  0  0  0  0  0  0
    5.4641   -1.8684    0.0000 C   0  0  0  0  0  0  0  0  0  0  0  0
    2.0000    0.1316    0.0000 C   0  0  0  0  0  0  0  0  0  0  0  0
    2.8660    1.6316    0.0000 C   0  0  0  0  0  0  0  0  0  0  0  0
   12.1689    0.9674    0.0000 C   0  0  0  0  0  0  0  0  0  0  0  0
   11.8117    2.6622    0.0000 C   0  0  0  0  0  0  0  0  0  0  0  0
    3.7320   -1.8684    0.0000 C   0  0  0  0  0  0  0  0  0  0  0  0
   13.1474    1.1736    0.0000 C   0  0  0  0  0  0  0  0  0  0  0  0
   12.7902    2.8684    0.0000 C   0  0  0  0  0  0  0  0  0  0  0  0
   13.4580    2.1241    0.0000 C   0  0  0  0  0  0  0  0  0  0  0  0
    8.7070    0.0211    0.0000 H   0  0  0  0  0  0  0  0  0  0  0  0
    9.4646   -0.2265    0.0000 H   0  0  0  0  0  0  0  0  0  0  0  0
    8.8556    2.6632    0.0000 H   0  0  0  0  0  0  0  0  0  0  0  0
    8.2624    2.1309    0.0000 H   0  0  0  0  0  0  0  0  0  0  0  0
   10.2324   -0.0647    0.0000 H   0  0  0  0  0  0  0  0  0  0  0  0
   10.8257    0.4676    0.0000 H   0  0  0  0  0  0  0  0  0  0  0  0
   10.3810    2.5774    0.0000 H   0  0  0  0  0  0  0  0  0  0  0  0
    9.6234    2.8250    0.0000 H   0  0  0  0  0  0  0  0  0  0  0  0
    7.5664    1.5065    0.0000 H   0  0  0  0  0  0  0  0  0  0  0  0
    6.9732    0.9742    0.0000 H   0  0  0  0  0  0  0  0  0  0  0  0
    8.4800   -0.8684    0.0000 H   0  0  0  0  0  0  0  0  0  0  0  0
    2.4675   -0.8434    0.0000 H   0  0  0  0  0  0  0  0  0  0  0  0
    3.2646   -0.8434    0.0000 H   0  0  0  0  0  0  0  0  0  0  0  0
    4.3426    1.0239    0.0000 H   0  0  0  0  0  0  0  0  0  0  0  0
    3.9441    1.7142    0.0000 H   0  0  0  0  0  0  0  0  0  0  0  0
    7.4690   -2.2625    0.0000 H   0  0  0  0  0  0  0  0  0  0  0  0
    1.3894    0.2392    0.0000 H   0  0  0  0  0  0  0  0  0  0  0  0
    1.7880   -0.4510    0.0000 H   0  0  0  0  0  0  0  0  0  0  0  0
    3.2646    2.1065    0.0000 H   0  0  0  0  0  0  0  0  0  0  0  0
    2.4675    2.1065    0.0000 H   0  0  0  0  0  0  0  0  0  0  0  0
   11.9763    0.3781    0.0000 H   0  0  0  0  0  0  0  0  0  0  0  0
   11.3976    3.1237    0.0000 H   0  0  0  0  0  0  0  0  0  0  0  0
    3.4220   -1.3315    0.0000 H   0  0  0  0  0  0  0  0  0  0  0  0
    3.1951   -2.1784    0.0000 H   0  0  0  0  0  0  0  0  0  0  0  0
    4.0420   -2.4054    0.0000 H   0  0  0  0  0  0  0  0  0  0  0  0
   13.5614    0.7121    0.0000 H   0  0  0  0  0  0  0  0  0  0  0  0
   12.9828    3.4578    0.0000 H   0  0  0  0  0  0  0  0  0  0  0  0
   14.0647    2.2520    0.0000 H   0  0  0  0  0  0  0  0  0  0  0  0
  1 23  1  0  0  0  0
  1 24  1  0  0  0  0
  2 22  2  0  0  0  0
  3  9  1  0  0  0  0
  3 10  1  0  0  0  0
  3 13  1  0  0  0  0
  4 11  1  0  0  0  0
  4 12  1  0  0  0  0
  4 16  1  0  0  0  0
  5 18  1  0  0  0  0
  5 20  1  0  0  0  0
  5 21  1  0  0  0  0
  6 18  1  0  0  0  0
  6 22  1  0  0  0  0
  6 27  1  0  0  0  0
  7 17  1  0  0  0  0
  7 19  1  0  0  0  0
  7 46  1  0  0  0  0
  8 15  1  0  0  0  0
  8 18  2  0  0  0  0
  9 11  1  0  0  0  0
  9 31  1  0  0  0  0
  9 32  1  0  0  0  0
 10 12  1  0  0  0  0
 10 33  1  0  0  0  0
 10 34  1  0  0  0  0
 11 35  1  0  0  0  0
 11 36  1  0  0  0  0
 12 37  1  0  0  0  0
 12 38  1  0  0  0  0
 13 14  1  0  0  0  0
 13 39  1  0  0  0  0
 13 40  1  0  0  0  0
 14 15  1  0  0  0  0
 14 19  2  0  0  0  0
 15 17  2  0  0  0  0
 16 25  2  0  0  0  0
 16 26  1  0  0  0  0
 17 22  1  0  0  0  0
 19 41  1  0  0  0  0
 20 23  1  0  0  0  0
 20 42  1  0  0  0  0
 20 43  1  0  0  0  0
 21 24  1  0  0  0  0
 21 44  1  0  0  0  0
 21 45  1  0  0  0  0
 23 47  1  0  0  0  0
 23 48  1  0  0  0  0
 24 49  1  0  0  0  0
 24 50  1  0  0  0  0
 25 28  1  0  0  0  0
 25 51  1  0  0  0  0
 26 29  2  0  0  0  0
 26 52  1  0  0  0  0
 27 53  1  0  0  0  0
 27 54  1  0  0  0  0
 27 55  1  0  0  0  0
 28 30  2  0  0  0  0
 28 56  1  0  0  0  0
 29 30  1  0  0  0  0
 29 57  1  0  0  0  0
 30 58  1  0  0  0  0
M  END
> <PUBCHEM_COMPOUND_CID>
45268293

> <PUBCHEM_COMPOUND_CANONICALIZED>
1

> <PUBCHEM_CACTVS_COMPLEXITY>
638

> <PUBCHEM_CACTVS_HBOND_ACCEPTOR>
5

> <PUBCHEM_CACTVS_HBOND_DONOR>
1

> <PUBCHEM_CACTVS_ROTATABLE_BOND>
4

> <PUBCHEM_CACTVS_SUBSKEYS>
AAADceB7sAAAAAAAAAAAAAAAAAAAAWAAAAA8WIEAAAAAAEABwAAAHgAQAAAADAjhngY/wJPJlACoAzV3dACCgCE3EiAJ2aGodNiKYHrA3fGXJYhogwLYyUcYAQAMAAAAAAAAAAAAAAAAAAAAAAAAAAAAAA==

> <PUBCHEM_IUPAC_OPENEYE_NAME>
3-methyl-2-morpholino-7-[(4-phenylpiperazin-1-yl)methyl]-5H-pyrrolo[3,2-d]pyrimidin-4-one

> <PUBCHEM_IUPAC_CAS_NAME>
3-methyl-2-(4-morpholinyl)-7-[(4-phenyl-1-piperazinyl)methyl]-5H-pyrrolo[3,2-d]pyrimidin-4-one

> <PUBCHEM_IUPAC_NAME_MARKUP>
3-methyl-2-morpholin-4-yl-7-[(4-phenylpiperazin-1-yl)methyl]-5<I>H</I>-pyrrolo[3,2-d]pyrimidin-4-one

> <PUBCHEM_IUPAC_NAME>
3-methyl-2-morpholin-4-yl-7-[(4-phenylpiperazin-1-yl)methyl]-5H-pyrrolo[3,2-d]pyrimidin-4-one

> <PUBCHEM_IUPAC_SYSTEMATIC_NAME>
3-methyl-2-morpholin-4-yl-7-[(4-phenylpiperazin-1-yl)methyl]-5H-pyrrolo[3,2-d]pyrimidin-4-one

> <PUBCHEM_IUPAC_TRADITIONAL_NAME>
3-methyl-2-morpholino-7-[(4-phenylpiperazino)methyl]-5H-pyrrolo[3,2-d]pyrimidin-4-one

> <PUBCHEM_IUPAC_INCHI>
InChI=1S/C22H28N6O2/c1-25-21(29)20-19(24-22(25)28-11-13-30-14-12-28)17(15-23-20)16-26-7-9-27(10-8-26)18-5-3-2-4-6-18/h2-6,15,23H,7-14,16H2,1H3

> <PUBCHEM_IUPAC_INCHIKEY>
BPXOVNRRDFBZBM-UHFFFAOYSA-N

> <PUBCHEM_XLOGP3_AA>
1.1

> <PUBCHEM_EXACT_MASS>
408.22737416

> <PUBCHEM_MOLECULAR_FORMULA>
C22H28N6O2

> <PUBCHEM_MOLECULAR_WEIGHT>
408.5

> <PUBCHEM_OPENEYE_CAN_SMILES>
CN1C(=O)C2=C(C(=CN2)CN3CCN(CC3)C4=CC=CC=C4)N=C1N5CCOCC5

> <PUBCHEM_OPENEYE_ISO_SMILES>
CN1C(=O)C2=C(C(=CN2)CN3CCN(CC3)C4=CC=CC=C4)N=C1N5CCOCC5

> <PUBCHEM_CACTVS_TPSA>
67.4

> <PUBCHEM_MONOISOTOPIC_WEIGHT>
408.22737416

> <PUBCHEM_TOTAL_CHARGE>
0

> <PUBCHEM_HEAVY_ATOM_COUNT>
30

> <PUBCHEM_ATOM_DEF_STEREO_COUNT>
0

> <PUBCHEM_ATOM_UDEF_STEREO_COUNT>
0

> <PUBCHEM_BOND_DEF_STEREO_COUNT>
0

> <PUBCHEM_BOND_UDEF_STEREO_COUNT>
0

> <PUBCHEM_ISOTOPIC_ATOM_COUNT>
0

> <PUBCHEM_COMPONENT_COUNT>
1

> <PUBCHEM_CACTVS_TAUTO_COUNT>
-1

> <PUBCHEM_COORDINATE_TYPE>
1
5
255

> <PUBCHEM_BONDANNOTATIONS>
14  15  8
14  19  8
15  17  8
16  25  8
16  26  8
17  22  8
25  28  8
26  29  8
28  30  8
29  30  8
6  18  8
6  22  8
7  17  8
7  19  8
8  15  8
8  18  8

$$$$
