53327217
  -OEChem-09292322352D

 37 40  0     1  0  0  0  0  0999 V2000
    2.9180   -0.1869    0.0000 N   0  0  3  0  0  0  0  0  0  0  0  0
    2.9021    1.8823    0.0000 N   0  0  3  0  0  0  0  0  0  0  0  0
    4.7881   -2.8356    0.0000 N   0  0  0  0  0  0  0  0  0  0  0  0
    3.7841    0.3131    0.0000 C   0  0  3  0  0  0  0  0  0  0  0  0
    3.8001    1.3546    0.0000 C   0  0  0  0  0  0  0  0  0  0  0  0
    4.6501   -0.1869    0.0000 C   0  0  0  0  0  0  0  0  0  0  0  0
    2.0080    0.3199    0.0000 C   0  0  0  0  0  0  0  0  0  0  0  0
    2.0000    1.3615    0.0000 C   0  0  0  0  0  0  0  0  0  0  0  0
    2.9180   -1.1869    0.0000 C   0  0  0  0  0  0  0  0  0  0  0  0
    4.6501   -1.1869    0.0000 C   0  0  0  0  0  0  0  0  0  0  0  0
    3.7841   -1.6869    0.0000 C   0  0  0  0  0  0  0  0  0  0  0  0
    3.8001   -2.7284    0.0000 C   0  0  0  0  0  0  0  0  0  0  0  0
    2.9059    2.8823    0.0000 C   0  0  0  0  0  0  0  0  0  0  0  0
    5.2680   -1.9653    0.0000 C   0  0  0  0  0  0  0  0  0  0  0  0
    2.0080   -1.6938    0.0000 C   0  0  0  0  0  0  0  0  0  0  0  0
    2.9021   -3.2562    0.0000 C   0  0  0  0  0  0  0  0  0  0  0  0
    2.0000   -2.7354    0.0000 C   0  0  0  0  0  0  0  0  0  0  0  0
    2.0418    3.3857    0.0000 C   0  0  0  0  0  0  0  0  0  0  0  0
    4.3234    0.6189    0.0000 H   0  0  0  0  0  0  0  0  0  0  0  0
    4.4093    1.2391    0.0000 H   0  0  0  0  0  0  0  0  0  0  0  0
    4.0182    1.9350    0.0000 H   0  0  0  0  0  0  0  0  0  0  0  0
    5.2607   -0.2946    0.0000 H   0  0  0  0  0  0  0  0  0  0  0  0
    4.8621    0.3957    0.0000 H   0  0  0  0  0  0  0  0  0  0  0  0
    1.3964    0.4213    0.0000 H   0  0  0  0  0  0  0  0  0  0  0  0
    1.8035   -0.2654    0.0000 H   0  0  0  0  0  0  0  0  0  0  0  0
    1.7864    1.9436    0.0000 H   0  0  0  0  0  0  0  0  0  0  0  0
    1.3900    1.2507    0.0000 H   0  0  0  0  0  0  0  0  0  0  0  0
    3.5161    2.7723    0.0000 H   0  0  0  0  0  0  0  0  0  0  0  0
    3.1202    3.4641    0.0000 H   0  0  0  0  0  0  0  0  0  0  0  0
    5.8858   -1.9135    0.0000 H   0  0  0  0  0  0  0  0  0  0  0  0
    1.4747   -1.3776    0.0000 H   0  0  0  0  0  0  0  0  0  0  0  0
    5.0741   -3.3857    0.0000 H   0  0  0  0  0  0  0  0  0  0  0  0
    2.9045   -3.8762    0.0000 H   0  0  0  0  0  0  0  0  0  0  0  0
    1.4619   -3.0433    0.0000 H   0  0  0  0  0  0  0  0  0  0  0  0
    2.3539    3.9214    0.0000 H   0  0  0  0  0  0  0  0  0  0  0  0
    1.5061    3.6977    0.0000 H   0  0  0  0  0  0  0  0  0  0  0  0
    1.7298    2.8499    0.0000 H   0  0  0  0  0  0  0  0  0  0  0  0
  1  4  1  0  0  0  0
  1  7  1  0  0  0  0
  1  9  1  0  0  0  0
  2  5  1  0  0  0  0
  2  8  1  0  0  0  0
  2 13  1  0  0  0  0
  3 12  1  0  0  0  0
  3 14  1  0  0  0  0
  3 32  1  0  0  0  0
  4  5  1  0  0  0  0
  4  6  1  0  0  0  0
  4 19  1  0  0  0  0
  5 20  1  0  0  0  0
  5 21  1  0  0  0  0
  6 10  1  0  0  0  0
  6 22  1  0  0  0  0
  6 23  1  0  0  0  0
  7  8  1  0  0  0  0
  7 24  1  0  0  0  0
  7 25  1  0  0  0  0
  8 26  1  0  0  0  0
  8 27  1  0  0  0  0
  9 11  1  0  0  0  0
  9 15  2  0  0  0  0
 10 11  1  0  0  0  0
 10 14  2  0  0  0  0
 11 12  2  0  0  0  0
 12 16  1  0  0  0  0
 13 18  1  0  0  0  0
 13 28  1  0  0  0  0
 13 29  1  0  0  0  0
 14 30  1  0  0  0  0
 15 17  1  0  0  0  0
 15 31  1  0  0  0  0
 16 17  2  0  0  0  0
 16 33  1  0  0  0  0
 17 34  1  0  0  0  0
 18 35  1  0  0  0  0
 18 36  1  0  0  0  0
 18 37  1  0  0  0  0
M  END
> <PUBCHEM_COMPOUND_CID>
53327217

> <PUBCHEM_COMPOUND_CANONICALIZED>
1

> <PUBCHEM_CACTVS_COMPLEXITY>
319

> <PUBCHEM_CACTVS_HBOND_ACCEPTOR>
2

> <PUBCHEM_CACTVS_HBOND_DONOR>
1

> <PUBCHEM_CACTVS_ROTATABLE_BOND>
1

> <PUBCHEM_CACTVS_SUBSKEYS>
AAADceBzAAAAAAAAAAAAAAAAAAAAAWAAAAA8WIAAAAAAAFix8AAAHAAQAAAADCjBHgQ+wPPJkACgAzRnRACCgCAxAiAI2aA4ZJgIYOLA0dGUJAhgkADIyAcQgMAOgAAAAAQCAAAAAAAACAQAAAAAAAAAAA==

> <PUBCHEM_IUPAC_OPENEYE_NAME>
5-ethyl-2,5,11-triazatetracyclo[7.6.1.02,7.012,16]hexadeca-1(15),9,12(16),13-tetraene

> <PUBCHEM_IUPAC_CAS_NAME>
5-ethyl-2,5,11-triazatetracyclo[7.6.1.02,7.012,16]hexadeca-1(15),9,12(16),13-tetraene

> <PUBCHEM_IUPAC_NAME_MARKUP>
5-ethyl-2,5,11-triazatetracyclo[7.6.1.0<SUP>2,7</SUP>.0<SUP>12,16</SUP>]hexadeca-1(15),9,12(16),13-tetraene

> <PUBCHEM_IUPAC_NAME>
5-ethyl-2,5,11-triazatetracyclo[7.6.1.02,7.012,16]hexadeca-1(15),9,12(16),13-tetraene

> <PUBCHEM_IUPAC_SYSTEMATIC_NAME>
5-ethyl-2,5,11-triazatetracyclo[7.6.1.02,7.012,16]hexadeca-1(15),9,12(16),13-tetraene

> <PUBCHEM_IUPAC_TRADITIONAL_NAME>
5-ethyl-2,5,11-triazatetracyclo[7.6.1.02,7.012,16]hexadeca-1(15),9,12(16),13-tetraene

> <PUBCHEM_IUPAC_INCHI>
InChI=1S/C15H19N3/c1-2-17-6-7-18-12(10-17)8-11-9-16-13-4-3-5-14(18)15(11)13/h3-5,9,12,16H,2,6-8,10H2,1H3

> <PUBCHEM_IUPAC_INCHIKEY>
GORHDCZLLBWZAU-UHFFFAOYSA-N

> <PUBCHEM_XLOGP3_AA>
2.5

> <PUBCHEM_EXACT_MASS>
241.157897619

> <PUBCHEM_MOLECULAR_FORMULA>
C15H19N3

> <PUBCHEM_MOLECULAR_WEIGHT>
241.33

> <PUBCHEM_OPENEYE_CAN_SMILES>
CCN1CCN2C(C1)CC3=CNC4=C3C2=CC=C4

> <PUBCHEM_OPENEYE_ISO_SMILES>
CCN1CCN2C(C1)CC3=CNC4=C3C2=CC=C4

> <PUBCHEM_CACTVS_TPSA>
22.3

> <PUBCHEM_MONOISOTOPIC_WEIGHT>
241.157897619

> <PUBCHEM_TOTAL_CHARGE>
0

> <PUBCHEM_HEAVY_ATOM_COUNT>
18

> <PUBCHEM_ATOM_DEF_STEREO_COUNT>
0

> <PUBCHEM_ATOM_UDEF_STEREO_COUNT>
1

> <PUBCHEM_BOND_DEF_STEREO_COUNT>
0

> <PUBCHEM_BOND_UDEF_STEREO_COUNT>
0

> <PUBCHEM_ISOTOPIC_ATOM_COUNT>
0

> <PUBCHEM_COMPONENT_COUNT>
1

> <PUBCHEM_CACTVS_TAUTO_COUNT>
-1

> <PUBCHEM_COORDINATE_TYPE>
1
5
255

> <PUBCHEM_BONDANNOTATIONS>
10  11  8
10  14  8
11  12  8
12  16  8
15  17  8
16  17  8
3  12  8
3  14  8
4  6  3
9  11  8
9  15  8

$$$$
