25130505
  -OEChem-09292322502D

 58 62  0     1  0  0  0  0  0999 V2000
    2.0000   -1.5000    0.0000 F   0  0  0  0  0  0  0  0  0  0  0  0
   12.4725   -1.3047    0.0000 O   0  0  0  0  0  0  0  0  0  0  0  0
   10.6603    1.5000    0.0000 O   0  0  0  0  0  0  0  0  0  0  0  0
    5.4641    1.5000    0.0000 O   0  0  0  0  0  0  0  0  0  0  0  0
    8.0622   -1.0000    0.0000 N   0  0  0  0  0  0  0  0  0  0  0  0
    9.7942   -1.0000    0.0000 C   0  0  3  0  0  0  0  0  0  0  0  0
    8.9282   -1.5000    0.0000 C   0  0  0  0  0  0  0  0  0  0  0  0
    6.3301   -0.0000    0.0000 C   0  0  0  0  0  0  0  0  0  0  0  0
    8.0622   -0.0000    0.0000 C   0  0  0  0  0  0  0  0  0  0  0  0
    7.1962   -1.5000    0.0000 C   0  0  0  0  0  0  0  0  0  0  0  0
    7.1962    0.5000    0.0000 C   0  0  0  0  0  0  0  0  0  0  0  0
    6.3301   -1.0000    0.0000 C   0  0  0  0  0  0  0  0  0  0  0  0
   10.6603   -1.5000    0.0000 C   0  0  0  0  0  0  0  0  0  0  0  0
    9.7942    0.0000    0.0000 C   0  0  0  0  0  0  0  0  0  0  0  0
   11.5263   -1.0000    0.0000 C   0  0  0  0  0  0  0  0  0  0  0  0
   10.6603    0.5000    0.0000 C   0  0  0  0  0  0  0  0  0  0  0  0
    5.4641    0.5000    0.0000 C   0  0  0  0  0  0  0  0  0  0  0  0
   11.5263    0.0000    0.0000 C   0  0  0  0  0  0  0  0  0  0  0  0
   12.4725    0.3047    0.0000 C   0  0  0  0  0  0  0  0  0  0  0  0
    4.5981    0.0000    0.0000 C   0  0  0  0  0  0  0  0  0  0  0  0
   13.0561   -0.5000    0.0000 C   0  0  0  0  0  0  0  0  0  0  0  0
   14.0561   -0.5000    0.0000 C   0  0  0  0  0  0  0  0  0  0  0  0
    4.5981   -1.0000    0.0000 C   0  0  0  0  0  0  0  0  0  0  0  0
    3.7320    0.5000    0.0000 C   0  0  0  0  0  0  0  0  0  0  0  0
    3.7320   -1.5000    0.0000 C   0  0  0  0  0  0  0  0  0  0  0  0
    2.8660    0.0000    0.0000 C   0  0  0  0  0  0  0  0  0  0  0  0
   14.5561    0.3660    0.0000 C   0  0  0  0  0  0  0  0  0  0  0  0
   14.5561   -1.3660    0.0000 C   0  0  0  0  0  0  0  0  0  0  0  0
    2.8660   -1.0000    0.0000 C   0  0  0  0  0  0  0  0  0  0  0  0
   15.5561    0.3660    0.0000 C   0  0  0  0  0  0  0  0  0  0  0  0
   15.5561   -1.3660    0.0000 C   0  0  0  0  0  0  0  0  0  0  0  0
   16.0561   -0.5000    0.0000 C   0  0  0  0  0  0  0  0  0  0  0  0
    9.2573   -0.6900    0.0000 H   0  0  0  0  0  0  0  0  0  0  0  0
    8.5297   -1.9750    0.0000 H   0  0  0  0  0  0  0  0  0  0  0  0
    9.3267   -1.9750    0.0000 H   0  0  0  0  0  0  0  0  0  0  0  0
    5.7932   -0.3100    0.0000 H   0  0  0  0  0  0  0  0  0  0  0  0
    8.6728   -0.1077    0.0000 H   0  0  0  0  0  0  0  0  0  0  0  0
    8.2742    0.5826    0.0000 H   0  0  0  0  0  0  0  0  0  0  0  0
    6.7976   -1.9750    0.0000 H   0  0  0  0  0  0  0  0  0  0  0  0
    7.5947   -1.9750    0.0000 H   0  0  0  0  0  0  0  0  0  0  0  0
    7.5947    0.9749    0.0000 H   0  0  0  0  0  0  0  0  0  0  0  0
    6.7976    0.9749    0.0000 H   0  0  0  0  0  0  0  0  0  0  0  0
    5.7196   -0.8923    0.0000 H   0  0  0  0  0  0  0  0  0  0  0  0
    6.1181   -1.5826    0.0000 H   0  0  0  0  0  0  0  0  0  0  0  0
   10.2617   -1.9750    0.0000 H   0  0  0  0  0  0  0  0  0  0  0  0
   11.0588   -1.9750    0.0000 H   0  0  0  0  0  0  0  0  0  0  0  0
    9.5822    0.5826    0.0000 H   0  0  0  0  0  0  0  0  0  0  0  0
    9.1836   -0.1077    0.0000 H   0  0  0  0  0  0  0  0  0  0  0  0
   12.6651    0.8941    0.0000 H   0  0  0  0  0  0  0  0  0  0  0  0
    5.1350   -1.3100    0.0000 H   0  0  0  0  0  0  0  0  0  0  0  0
    3.7320    1.1200    0.0000 H   0  0  0  0  0  0  0  0  0  0  0  0
    3.7320   -2.1200    0.0000 H   0  0  0  0  0  0  0  0  0  0  0  0
    2.3291    0.3100    0.0000 H   0  0  0  0  0  0  0  0  0  0  0  0
   14.2461    0.9030    0.0000 H   0  0  0  0  0  0  0  0  0  0  0  0
   14.2461   -1.9030    0.0000 H   0  0  0  0  0  0  0  0  0  0  0  0
   15.8661    0.9030    0.0000 H   0  0  0  0  0  0  0  0  0  0  0  0
   15.8661   -1.9030    0.0000 H   0  0  0  0  0  0  0  0  0  0  0  0
   16.6761   -0.5000    0.0000 H   0  0  0  0  0  0  0  0  0  0  0  0
  1 29  1  0  0  0  0
  2 15  1  0  0  0  0
  2 21  1  0  0  0  0
  3 16  2  0  0  0  0
  4 17  2  0  0  0  0
  5  7  1  0  0  0  0
  5  9  1  0  0  0  0
  5 10  1  0  0  0  0
  6  7  1  0  0  0  0
  6 13  1  0  0  0  0
  6 14  1  0  0  0  0
  6 33  1  0  0  0  0
  7 34  1  0  0  0  0
  7 35  1  0  0  0  0
  8 11  1  0  0  0  0
  8 12  1  0  0  0  0
  8 17  1  0  0  0  0
  8 36  1  0  0  0  0
  9 11  1  0  0  0  0
  9 37  1  0  0  0  0
  9 38  1  0  0  0  0
 10 12  1  0  0  0  0
 10 39  1  0  0  0  0
 10 40  1  0  0  0  0
 11 41  1  0  0  0  0
 11 42  1  0  0  0  0
 12 43  1  0  0  0  0
 12 44  1  0  0  0  0
 13 15  1  0  0  0  0
 13 45  1  0  0  0  0
 13 46  1  0  0  0  0
 14 16  1  0  0  0  0
 14 47  1  0  0  0  0
 14 48  1  0  0  0  0
 15 18  2  0  0  0  0
 16 18  1  0  0  0  0
 17 20  1  0  0  0  0
 18 19  1  0  0  0  0
 19 21  2  0  0  0  0
 19 49  1  0  0  0  0
 20 23  2  0  0  0  0
 20 24  1  0  0  0  0
 21 22  1  0  0  0  0
 22 27  2  0  0  0  0
 22 28  1  0  0  0  0
 23 25  1  0  0  0  0
 23 50  1  0  0  0  0
 24 26  2  0  0  0  0
 24 51  1  0  0  0  0
 25 29  2  0  0  0  0
 25 52  1  0  0  0  0
 26 29  1  0  0  0  0
 26 53  1  0  0  0  0
 27 30  1  0  0  0  0
 27 54  1  0  0  0  0
 28 31  2  0  0  0  0
 28 55  1  0  0  0  0
 30 32  2  0  0  0  0
 30 56  1  0  0  0  0
 31 32  1  0  0  0  0
 31 57  1  0  0  0  0
 32 58  1  0  0  0  0
M  END
> <PUBCHEM_COMPOUND_CID>
25130505

> <PUBCHEM_COMPOUND_CANONICALIZED>
1

> <PUBCHEM_CACTVS_COMPLEXITY>
662

> <PUBCHEM_CACTVS_HBOND_ACCEPTOR>
5

> <PUBCHEM_CACTVS_HBOND_DONOR>
0

> <PUBCHEM_CACTVS_ROTATABLE_BOND>
5

> <PUBCHEM_CACTVS_SUBSKEYS>
AAADceB6MQAAAAAAAAAAAAAAAAAAASAAAAA8YMEAAAAAAEgB0AAAHwAAAAAADQTBmAwwBIMABECIAqBSAAACCAAkIAAIiAEOCMgMJjaMtRqGOWCk4BGIqYe/zvDuAAAAAAAAAACAAAIAABAAAAAAAAAAAA==

> <PUBCHEM_IUPAC_OPENEYE_NAME>
6-[[4-(4-fluorobenzoyl)-1-piperidyl]methyl]-2-phenyl-6,7-dihydro-5H-benzofuran-4-one

> <PUBCHEM_IUPAC_CAS_NAME>
6-[[4-[(4-fluorophenyl)-oxomethyl]-1-piperidinyl]methyl]-2-phenyl-6,7-dihydro-5H-benzofuran-4-one

> <PUBCHEM_IUPAC_NAME_MARKUP>
6-[[4-(4-fluorobenzoyl)piperidin-1-yl]methyl]-2-phenyl-6,7-dihydro-5<I>H</I>-1-benzofuran-4-one

> <PUBCHEM_IUPAC_NAME>
6-[[4-(4-fluorobenzoyl)piperidin-1-yl]methyl]-2-phenyl-6,7-dihydro-5H-1-benzofuran-4-one

> <PUBCHEM_IUPAC_SYSTEMATIC_NAME>
6-[[4-(4-fluorophenyl)carbonylpiperidin-1-yl]methyl]-2-phenyl-6,7-dihydro-5H-1-benzofuran-4-one

> <PUBCHEM_IUPAC_TRADITIONAL_NAME>
6-[[4-(4-fluorobenzoyl)piperidino]methyl]-2-phenyl-6,7-dihydro-5H-benzofuran-4-one

> <PUBCHEM_IUPAC_INCHI>
InChI=1S/C27H26FNO3/c28-22-8-6-20(7-9-22)27(31)21-10-12-29(13-11-21)17-18-14-24(30)23-16-25(32-26(23)15-18)19-4-2-1-3-5-19/h1-9,16,18,21H,10-15,17H2

> <PUBCHEM_IUPAC_INCHIKEY>
KUGRYKPJVWPSLO-UHFFFAOYSA-N

> <PUBCHEM_XLOGP3_AA>
4.7

> <PUBCHEM_EXACT_MASS>
431.18967185

> <PUBCHEM_MOLECULAR_FORMULA>
C27H26FNO3

> <PUBCHEM_MOLECULAR_WEIGHT>
431.5

> <PUBCHEM_OPENEYE_CAN_SMILES>
C1CN(CCC1C(=O)C2=CC=C(C=C2)F)CC3CC4=C(C=C(O4)C5=CC=CC=C5)C(=O)C3

> <PUBCHEM_OPENEYE_ISO_SMILES>
C1CN(CCC1C(=O)C2=CC=C(C=C2)F)CC3CC4=C(C=C(O4)C5=CC=CC=C5)C(=O)C3

> <PUBCHEM_CACTVS_TPSA>
50.5

> <PUBCHEM_MONOISOTOPIC_WEIGHT>
431.18967185

> <PUBCHEM_TOTAL_CHARGE>
0

> <PUBCHEM_HEAVY_ATOM_COUNT>
32

> <PUBCHEM_ATOM_DEF_STEREO_COUNT>
0

> <PUBCHEM_ATOM_UDEF_STEREO_COUNT>
1

> <PUBCHEM_BOND_DEF_STEREO_COUNT>
0

> <PUBCHEM_BOND_UDEF_STEREO_COUNT>
0

> <PUBCHEM_ISOTOPIC_ATOM_COUNT>
0

> <PUBCHEM_COMPONENT_COUNT>
1

> <PUBCHEM_CACTVS_TAUTO_COUNT>
-1

> <PUBCHEM_COORDINATE_TYPE>
1
5
255

> <PUBCHEM_BONDANNOTATIONS>
15  18  8
18  19  8
19  21  8
2  15  8
2  21  8
20  23  8
20  24  8
22  27  8
22  28  8
23  25  8
24  26  8
25  29  8
26  29  8
27  30  8
28  31  8
30  32  8
31  32  8
6  7  3

$$$$
