11668495
  -OEChem-09292322492D

 61 64  0     1  0  0  0  0  0999 V2000
    2.8641   -3.2588    0.0000 O   0  0  0  0  0  0  0  0  0  0  0  0
    4.6380   -4.2830    0.0000 O   0  0  0  0  0  0  0  0  0  0  0  0
    5.5161    1.2863    0.0000 N   0  0  3  0  0  0  0  0  0  0  0  0
    5.5161    0.2863    0.0000 C   0  0  0  0  0  0  0  0  0  0  0  0
    6.3821    1.7863    0.0000 C   0  0  0  0  0  0  0  0  0  0  0  0
    4.6501   -0.2137    0.0000 C   0  0  0  0  0  0  0  0  0  0  0  0
    7.2482    1.2863    0.0000 C   0  0  0  0  0  0  0  0  0  0  0  0
    4.6501    1.7863    0.0000 C   0  0  0  0  0  0  0  0  0  0  0  0
    4.6501   -1.2137    0.0000 C   0  0  0  0  0  0  0  0  0  0  0  0
    7.2482    0.2863    0.0000 C   0  0  0  0  0  0  0  0  0  0  0  0
    5.5161   -1.7137    0.0000 C   0  0  0  0  0  0  0  0  0  0  0  0
    6.3821   -1.2137    0.0000 C   0  0  0  0  0  0  0  0  0  0  0  0
    6.3821   -0.2137    0.0000 C   0  0  0  0  0  0  0  0  0  0  0  0
    4.6501    2.7863    0.0000 C   0  0  0  0  0  0  0  0  0  0  0  0
    3.7401   -1.7206    0.0000 C   0  0  0  0  0  0  0  0  0  0  0  0
    5.5322   -2.7552    0.0000 C   0  0  0  0  0  0  0  0  0  0  0  0
    8.6595   -0.2908    0.0000 C   0  0  0  0  0  0  0  0  0  0  0  0
    6.1763   -1.7245    0.0000 C   0  0  0  0  0  0  0  0  0  0  0  0
    3.7840    3.2863    0.0000 C   0  0  0  0  0  0  0  0  0  0  0  0
    3.7320   -2.7622    0.0000 C   0  0  0  0  0  0  0  0  0  0  0  0
    4.6341   -3.2830    0.0000 C   0  0  0  0  0  0  0  0  0  0  0  0
    8.7626   -1.8121    0.0000 C   0  0  0  0  0  0  0  0  0  0  0  0
    7.4421   -2.5745    0.0000 C   0  0  0  0  0  0  0  0  0  0  0  0
    2.9180    2.7863    0.0000 C   0  0  0  0  0  0  0  0  0  0  0  0
    3.7840    4.2863    0.0000 C   0  0  0  0  0  0  0  0  0  0  0  0
    2.0520    3.2863    0.0000 C   0  0  0  0  0  0  0  0  0  0  0  0
    2.9180    4.7863    0.0000 C   0  0  0  0  0  0  0  0  0  0  0  0
    2.0520    4.2863    0.0000 C   0  0  0  0  0  0  0  0  0  0  0  0
    2.0000   -2.7555    0.0000 C   0  0  0  0  0  0  0  0  0  0  0  0
    3.7739   -4.7863    0.0000 C   0  0  0  0  0  0  0  0  0  0  0  0
    5.7282   -0.2963    0.0000 H   0  0  0  0  0  0  0  0  0  0  0  0
    6.1267    0.3940    0.0000 H   0  0  0  0  0  0  0  0  0  0  0  0
    6.7806    2.2612    0.0000 H   0  0  0  0  0  0  0  0  0  0  0  0
    5.9836    2.2612    0.0000 H   0  0  0  0  0  0  0  0  0  0  0  0
    4.4380    0.3689    0.0000 H   0  0  0  0  0  0  0  0  0  0  0  0
    4.0395   -0.3214    0.0000 H   0  0  0  0  0  0  0  0  0  0  0  0
    7.8587    1.1786    0.0000 H   0  0  0  0  0  0  0  0  0  0  0  0
    7.4602    1.8689    0.0000 H   0  0  0  0  0  0  0  0  0  0  0  0
    4.0395    1.8940    0.0000 H   0  0  0  0  0  0  0  0  0  0  0  0
    4.4380    1.2037    0.0000 H   0  0  0  0  0  0  0  0  0  0  0  0
    6.5942   -1.7963    0.0000 H   0  0  0  0  0  0  0  0  0  0  0  0
    6.9927   -1.1060    0.0000 H   0  0  0  0  0  0  0  0  0  0  0  0
    5.2606    2.6786    0.0000 H   0  0  0  0  0  0  0  0  0  0  0  0
    4.8621    3.3689    0.0000 H   0  0  0  0  0  0  0  0  0  0  0  0
    3.2068   -1.4044    0.0000 H   0  0  0  0  0  0  0  0  0  0  0  0
    6.0726   -3.0590    0.0000 H   0  0  0  0  0  0  0  0  0  0  0  0
    9.1622    0.0720    0.0000 H   0  0  0  0  0  0  0  0  0  0  0  0
    5.6107   -1.9785    0.0000 H   0  0  0  0  0  0  0  0  0  0  0  0
    9.3097   -2.1037    0.0000 H   0  0  0  0  0  0  0  0  0  0  0  0
    7.4212   -3.1941    0.0000 H   0  0  0  0  0  0  0  0  0  0  0  0
    2.9180    2.1663    0.0000 H   0  0  0  0  0  0  0  0  0  0  0  0
    4.3210    4.5963    0.0000 H   0  0  0  0  0  0  0  0  0  0  0  0
    1.5151    2.9763    0.0000 H   0  0  0  0  0  0  0  0  0  0  0  0
    2.9180    5.4063    0.0000 H   0  0  0  0  0  0  0  0  0  0  0  0
    1.5151    4.5963    0.0000 H   0  0  0  0  0  0  0  0  0  0  0  0
    2.3121   -2.2197    0.0000 H   0  0  0  0  0  0  0  0  0  0  0  0
    1.4643   -2.4434    0.0000 H   0  0  0  0  0  0  0  0  0  0  0  0
    1.6879   -3.2912    0.0000 H   0  0  0  0  0  0  0  0  0  0  0  0
    3.4618   -4.2506    0.0000 H   0  0  0  0  0  0  0  0  0  0  0  0
    3.2381   -5.0984    0.0000 H   0  0  0  0  0  0  0  0  0  0  0  0
    4.0860   -5.3220    0.0000 H   0  0  0  0  0  0  0  0  0  0  0  0
  1 20  1  0  0  0  0
  1 29  1  0  0  0  0
  2 21  1  0  0  0  0
  2 30  1  0  0  0  0
  3  4  1  0  0  0  0
  3  5  1  0  0  0  0
  3  8  1  0  0  0  0
  4  6  1  0  0  0  0
  4 31  1  0  0  0  0
  4 32  1  0  0  0  0
  5  7  1  0  0  0  0
  5 33  1  0  0  0  0
  5 34  1  0  0  0  0
  6  9  1  0  0  0  0
  6 35  1  0  0  0  0
  6 36  1  0  0  0  0
  7 10  1  0  0  0  0
  7 37  1  0  0  0  0
  7 38  1  0  0  0  0
  8 14  1  0  0  0  0
  8 39  1  0  0  0  0
  8 40  1  0  0  0  0
  9 11  1  0  0  0  0
  9 15  2  0  0  0  0
 10 13  1  0  0  0  0
 10 17  2  0  0  0  0
 11 12  1  0  0  0  0
 11 16  2  0  0  0  0
 12 13  1  0  0  0  0
 12 41  1  0  0  0  0
 12 42  1  0  0  0  0
 13 18  2  0  0  0  0
 14 19  1  0  0  0  0
 14 43  1  0  0  0  0
 14 44  1  0  0  0  0
 15 20  1  0  0  0  0
 15 45  1  0  0  0  0
 16 21  1  0  0  0  0
 16 46  1  0  0  0  0
 17 22  1  0  0  0  0
 17 47  1  0  0  0  0
 18 23  1  0  0  0  0
 18 48  1  0  0  0  0
 19 24  2  0  0  0  0
 19 25  1  0  0  0  0
 20 21  2  0  0  0  0
 22 23  2  0  0  0  0
 22 49  1  0  0  0  0
 23 50  1  0  0  0  0
 24 26  1  0  0  0  0
 24 51  1  0  0  0  0
 25 27  2  0  0  0  0
 25 52  1  0  0  0  0
 26 28  2  0  0  0  0
 26 53  1  0  0  0  0
 27 28  1  0  0  0  0
 27 54  1  0  0  0  0
 28 55  1  0  0  0  0
 29 56  1  0  0  0  0
 29 57  1  0  0  0  0
 29 58  1  0  0  0  0
 30 59  1  0  0  0  0
 30 60  1  0  0  0  0
 30 61  1  0  0  0  0
M  END
> <PUBCHEM_COMPOUND_CID>
11668495

> <PUBCHEM_COMPOUND_CANONICALIZED>
1

> <PUBCHEM_CACTVS_COMPLEXITY>
491

> <PUBCHEM_CACTVS_HBOND_ACCEPTOR>
3

> <PUBCHEM_CACTVS_HBOND_DONOR>
0

> <PUBCHEM_CACTVS_ROTATABLE_BOND>
5

> <PUBCHEM_CACTVS_SUBSKEYS>
AAADceB6MAAAAAAAAAAAAAAAAAAAAAAAAAAwYMAAAAAAAACxUAAAHgAAAAAADATBmAYyBoMABACAAiBCAAACCAAgIAAIiAAOiIgNJiKEsRuEMCIkwBGKqAeQ0PIOoAABAAAQQABAAAIAACCAAAAAAAAAAA==

> <PUBCHEM_IUPAC_OPENEYE_NAME>
5,6-dimethoxy-11-(2-phenylethyl)-11-azatricyclo[12.4.0.03,8]octadeca-1(18),3,5,7,14,16-hexaene

> <PUBCHEM_IUPAC_CAS_NAME>
5,6-dimethoxy-11-(2-phenylethyl)-11-azatricyclo[12.4.0.03,8]octadeca-1(18),3,5,7,14,16-hexaene

> <PUBCHEM_IUPAC_NAME_MARKUP>
5,6-dimethoxy-11-(2-phenylethyl)-11-azatricyclo[12.4.0.0<SUP>3,8</SUP>]octadeca-1(18),3,5,7,14,16-hexaene

> <PUBCHEM_IUPAC_NAME>
5,6-dimethoxy-11-(2-phenylethyl)-11-azatricyclo[12.4.0.03,8]octadeca-1(18),3,5,7,14,16-hexaene

> <PUBCHEM_IUPAC_SYSTEMATIC_NAME>
5,6-dimethoxy-11-(2-phenylethyl)-11-azatricyclo[12.4.0.03,8]octadeca-1(18),3,5,7,14,16-hexaene

> <PUBCHEM_IUPAC_TRADITIONAL_NAME>
5,6-dimethoxy-11-phenethyl-11-azatricyclo[12.4.0.03,8]octadeca-1(18),3,5,7,14,16-hexaene

> <PUBCHEM_IUPAC_INCHI>
InChI=1S/C27H31NO2/c1-29-26-19-24-14-17-28(15-12-21-8-4-3-5-9-21)16-13-22-10-6-7-11-23(22)18-25(24)20-27(26)30-2/h3-11,19-20H,12-18H2,1-2H3

> <PUBCHEM_IUPAC_INCHIKEY>
ZOYFGQMKVZZMJK-UHFFFAOYSA-N

> <PUBCHEM_XLOGP3_AA>
6.1

> <PUBCHEM_EXACT_MASS>
401.235479232

> <PUBCHEM_MOLECULAR_FORMULA>
C27H31NO2

> <PUBCHEM_MOLECULAR_WEIGHT>
401.5

> <PUBCHEM_OPENEYE_CAN_SMILES>
COC1=C(C=C2CC3=CC=CC=C3CCN(CCC2=C1)CCC4=CC=CC=C4)OC

> <PUBCHEM_OPENEYE_ISO_SMILES>
COC1=C(C=C2CC3=CC=CC=C3CCN(CCC2=C1)CCC4=CC=CC=C4)OC

> <PUBCHEM_CACTVS_TPSA>
21.7

> <PUBCHEM_MONOISOTOPIC_WEIGHT>
401.235479232

> <PUBCHEM_TOTAL_CHARGE>
0

> <PUBCHEM_HEAVY_ATOM_COUNT>
30

> <PUBCHEM_ATOM_DEF_STEREO_COUNT>
0

> <PUBCHEM_ATOM_UDEF_STEREO_COUNT>
0

> <PUBCHEM_BOND_DEF_STEREO_COUNT>
0

> <PUBCHEM_BOND_UDEF_STEREO_COUNT>
0

> <PUBCHEM_ISOTOPIC_ATOM_COUNT>
0

> <PUBCHEM_COMPONENT_COUNT>
1

> <PUBCHEM_CACTVS_TAUTO_COUNT>
-1

> <PUBCHEM_COORDINATE_TYPE>
1
5
255

> <PUBCHEM_BONDANNOTATIONS>
10  13  8
10  17  8
11  16  8
13  18  8
15  20  8
16  21  8
17  22  8
18  23  8
19  24  8
19  25  8
20  21  8
22  23  8
24  26  8
25  27  8
26  28  8
27  28  8
9  11  8
9  15  8

$$$$
