44273887
  -OEChem-09292322202D

 54 55  0     0  0  0  0  0  0999 V2000
    2.8660   -6.2500    0.0000 Cl  0  0  0  0  0  0  0  0  0  0  0  0
    5.4641    2.2500    0.0000 O   0  0  0  0  0  0  0  0  0  0  0  0
    2.8660   -0.2500    0.0000 N   0  0  0  0  0  0  0  0  0  0  0  0
    2.8660   -2.2500    0.0000 N   0  0  0  0  0  0  0  0  0  0  0  0
    3.7320    2.2500    0.0000 N   0  0  0  0  0  0  0  0  0  0  0  0
    2.0000   -0.7500    0.0000 C   0  0  0  0  0  0  0  0  0  0  0  0
    3.7320   -0.7500    0.0000 C   0  0  0  0  0  0  0  0  0  0  0  0
    2.0000   -1.7500    0.0000 C   0  0  0  0  0  0  0  0  0  0  0  0
    3.7320   -1.7500    0.0000 C   0  0  0  0  0  0  0  0  0  0  0  0
    4.5981    3.7500    0.0000 C   0  0  0  0  0  0  0  0  0  0  0  0
    2.8660    0.7500    0.0000 C   0  0  0  0  0  0  0  0  0  0  0  0
    3.7320    1.2500    0.0000 C   0  0  0  0  0  0  0  0  0  0  0  0
    4.5981    4.7500    0.0000 C   0  0  0  0  0  0  0  0  0  0  0  0
    4.5981    2.7500    0.0000 C   0  0  0  0  0  0  0  0  0  0  0  0
    2.8660   -3.2500    0.0000 C   0  0  0  0  0  0  0  0  0  0  0  0
    5.5981    3.7500    0.0000 C   0  0  0  0  0  0  0  0  0  0  0  0
    3.5981    3.7500    0.0000 C   0  0  0  0  0  0  0  0  0  0  0  0
    5.4641    5.2500    0.0000 C   0  0  0  0  0  0  0  0  0  0  0  0
    3.7320   -3.7500    0.0000 C   0  0  0  0  0  0  0  0  0  0  0  0
    2.0000   -3.7500    0.0000 C   0  0  0  0  0  0  0  0  0  0  0  0
    5.4641    6.2500    0.0000 C   0  0  0  0  0  0  0  0  0  0  0  0
    3.7320   -4.7500    0.0000 C   0  0  0  0  0  0  0  0  0  0  0  0
    2.0000   -4.7500    0.0000 C   0  0  0  0  0  0  0  0  0  0  0  0
    2.8660   -5.2500    0.0000 C   0  0  0  0  0  0  0  0  0  0  0  0
    1.7880   -0.1674    0.0000 H   0  0  0  0  0  0  0  0  0  0  0  0
    1.3894   -0.8577    0.0000 H   0  0  0  0  0  0  0  0  0  0  0  0
    4.3426   -0.8577    0.0000 H   0  0  0  0  0  0  0  0  0  0  0  0
    3.9441   -0.1674    0.0000 H   0  0  0  0  0  0  0  0  0  0  0  0
    1.3894   -1.6423    0.0000 H   0  0  0  0  0  0  0  0  0  0  0  0
    1.7880   -2.3326    0.0000 H   0  0  0  0  0  0  0  0  0  0  0  0
    3.9441   -2.3326    0.0000 H   0  0  0  0  0  0  0  0  0  0  0  0
    4.3426   -1.6423    0.0000 H   0  0  0  0  0  0  0  0  0  0  0  0
    2.6540    1.3326    0.0000 H   0  0  0  0  0  0  0  0  0  0  0  0
    2.2554    0.6423    0.0000 H   0  0  0  0  0  0  0  0  0  0  0  0
    3.9441    0.6674    0.0000 H   0  0  0  0  0  0  0  0  0  0  0  0
    4.3426    1.3577    0.0000 H   0  0  0  0  0  0  0  0  0  0  0  0
    4.3860    5.3326    0.0000 H   0  0  0  0  0  0  0  0  0  0  0  0
    3.9875    4.6423    0.0000 H   0  0  0  0  0  0  0  0  0  0  0  0
    3.1951    2.5600    0.0000 H   0  0  0  0  0  0  0  0  0  0  0  0
    5.5981    3.1300    0.0000 H   0  0  0  0  0  0  0  0  0  0  0  0
    6.2181    3.7500    0.0000 H   0  0  0  0  0  0  0  0  0  0  0  0
    5.5981    4.3700    0.0000 H   0  0  0  0  0  0  0  0  0  0  0  0
    3.5981    4.3700    0.0000 H   0  0  0  0  0  0  0  0  0  0  0  0
    2.9781    3.7500    0.0000 H   0  0  0  0  0  0  0  0  0  0  0  0
    3.5981    3.1300    0.0000 H   0  0  0  0  0  0  0  0  0  0  0  0
    5.6762    4.6674    0.0000 H   0  0  0  0  0  0  0  0  0  0  0  0
    6.0747    5.3577    0.0000 H   0  0  0  0  0  0  0  0  0  0  0  0
    4.2690   -3.4400    0.0000 H   0  0  0  0  0  0  0  0  0  0  0  0
    1.4631   -3.4400    0.0000 H   0  0  0  0  0  0  0  0  0  0  0  0
    6.0841    6.2500    0.0000 H   0  0  0  0  0  0  0  0  0  0  0  0
    5.4641    6.8700    0.0000 H   0  0  0  0  0  0  0  0  0  0  0  0
    4.8441    6.2500    0.0000 H   0  0  0  0  0  0  0  0  0  0  0  0
    4.2690   -5.0600    0.0000 H   0  0  0  0  0  0  0  0  0  0  0  0
    1.4631   -5.0600    0.0000 H   0  0  0  0  0  0  0  0  0  0  0  0
  1 24  1  0  0  0  0
  2 14  2  0  0  0  0
  3  6  1  0  0  0  0
  3  7  1  0  0  0  0
  3 11  1  0  0  0  0
  4  8  1  0  0  0  0
  4  9  1  0  0  0  0
  4 15  1  0  0  0  0
  5 12  1  0  0  0  0
  5 14  1  0  0  0  0
  5 39  1  0  0  0  0
  6  8  1  0  0  0  0
  6 25  1  0  0  0  0
  6 26  1  0  0  0  0
  7  9  1  0  0  0  0
  7 27  1  0  0  0  0
  7 28  1  0  0  0  0
  8 29  1  0  0  0  0
  8 30  1  0  0  0  0
  9 31  1  0  0  0  0
  9 32  1  0  0  0  0
 10 13  1  0  0  0  0
 10 14  1  0  0  0  0
 10 16  1  0  0  0  0
 10 17  1  0  0  0  0
 11 12  1  0  0  0  0
 11 33  1  0  0  0  0
 11 34  1  0  0  0  0
 12 35  1  0  0  0  0
 12 36  1  0  0  0  0
 13 18  1  0  0  0  0
 13 37  1  0  0  0  0
 13 38  1  0  0  0  0
 15 19  2  0  0  0  0
 15 20  1  0  0  0  0
 16 40  1  0  0  0  0
 16 41  1  0  0  0  0
 16 42  1  0  0  0  0
 17 43  1  0  0  0  0
 17 44  1  0  0  0  0
 17 45  1  0  0  0  0
 18 21  1  0  0  0  0
 18 46  1  0  0  0  0
 18 47  1  0  0  0  0
 19 22  1  0  0  0  0
 19 48  1  0  0  0  0
 20 23  2  0  0  0  0
 20 49  1  0  0  0  0
 21 50  1  0  0  0  0
 21 51  1  0  0  0  0
 21 52  1  0  0  0  0
 22 24  2  0  0  0  0
 22 53  1  0  0  0  0
 23 24  1  0  0  0  0
 23 54  1  0  0  0  0
M  END
> <PUBCHEM_COMPOUND_CID>
44273887

> <PUBCHEM_COMPOUND_CANONICALIZED>
1

> <PUBCHEM_CACTVS_COMPLEXITY>
386

> <PUBCHEM_CACTVS_HBOND_ACCEPTOR>
3

> <PUBCHEM_CACTVS_HBOND_DONOR>
1

> <PUBCHEM_CACTVS_ROTATABLE_BOND>
7

> <PUBCHEM_CACTVS_SUBSKEYS>
AAADceB7IAAEAAAAAAAAAAAAAAAAAAAAAAA8QAAAAAAAAAABAAAAHgIQAAAADgrBkCQywIPAAACIACVSUACCAAAhBwAIiIEIZogIYDLBk5GUIAhglgDIyAcYAAANAABAAAAAAAAAAIAAAAAAAAAAAAAAAA==

> <PUBCHEM_IUPAC_OPENEYE_NAME>
N-[2-[4-(4-chlorophenyl)piperazin-1-yl]ethyl]-2,2-dimethyl-pentanamide

> <PUBCHEM_IUPAC_CAS_NAME>
N-[2-[4-(4-chlorophenyl)-1-piperazinyl]ethyl]-2,2-dimethylpentanamide

> <PUBCHEM_IUPAC_NAME_MARKUP>
<I>N</I>-[2-[4-(4-chlorophenyl)piperazin-1-yl]ethyl]-2,2-dimethylpentanamide

> <PUBCHEM_IUPAC_NAME>
N-[2-[4-(4-chlorophenyl)piperazin-1-yl]ethyl]-2,2-dimethylpentanamide

> <PUBCHEM_IUPAC_SYSTEMATIC_NAME>
N-[2-[4-(4-chlorophenyl)piperazin-1-yl]ethyl]-2,2-dimethyl-pentanamide

> <PUBCHEM_IUPAC_TRADITIONAL_NAME>
N-[2-[4-(4-chlorophenyl)piperazino]ethyl]-2,2-dimethyl-valeramide

> <PUBCHEM_IUPAC_INCHI>
InChI=1S/C19H30ClN3O/c1-4-9-19(2,3)18(24)21-10-11-22-12-14-23(15-13-22)17-7-5-16(20)6-8-17/h5-8H,4,9-15H2,1-3H3,(H,21,24)

> <PUBCHEM_IUPAC_INCHIKEY>
NDLFGMFEIAWZRU-UHFFFAOYSA-N

> <PUBCHEM_XLOGP3_AA>
4.1

> <PUBCHEM_EXACT_MASS>
351.2077403

> <PUBCHEM_MOLECULAR_FORMULA>
C19H30ClN3O

> <PUBCHEM_MOLECULAR_WEIGHT>
351.9

> <PUBCHEM_OPENEYE_CAN_SMILES>
CCCC(C)(C)C(=O)NCCN1CCN(CC1)C2=CC=C(C=C2)Cl

> <PUBCHEM_OPENEYE_ISO_SMILES>
CCCC(C)(C)C(=O)NCCN1CCN(CC1)C2=CC=C(C=C2)Cl

> <PUBCHEM_CACTVS_TPSA>
35.6

> <PUBCHEM_MONOISOTOPIC_WEIGHT>
351.2077403

> <PUBCHEM_TOTAL_CHARGE>
0

> <PUBCHEM_HEAVY_ATOM_COUNT>
24

> <PUBCHEM_ATOM_DEF_STEREO_COUNT>
0

> <PUBCHEM_ATOM_UDEF_STEREO_COUNT>
0

> <PUBCHEM_BOND_DEF_STEREO_COUNT>
0

> <PUBCHEM_BOND_UDEF_STEREO_COUNT>
0

> <PUBCHEM_ISOTOPIC_ATOM_COUNT>
0

> <PUBCHEM_COMPONENT_COUNT>
1

> <PUBCHEM_CACTVS_TAUTO_COUNT>
-1

> <PUBCHEM_COORDINATE_TYPE>
1
5
255

> <PUBCHEM_BONDANNOTATIONS>
15  19  8
15  20  8
19  22  8
20  23  8
22  24  8
23  24  8

$$$$
