53326601
  -OEChem-09292322312D

 64 66  0     0  0  0  0  0  0999 V2000
    2.8660   -5.0000    0.0000 O   0  0  0  0  0  0  0  0  0  0  0  0
    8.0622    2.0000    0.0000 O   0  0  0  0  0  0  0  0  0  0  0  0
    4.5981   -2.0000    0.0000 N   0  0  0  0  0  0  0  0  0  0  0  0
    4.5981   -4.0000    0.0000 N   0  0  0  0  0  0  0  0  0  0  0  0
    6.3301    2.0000    0.0000 N   0  0  0  0  0  0  0  0  0  0  0  0
    7.1962    6.5000    0.0000 N   0  0  0  0  0  0  0  0  0  0  0  0
    5.4641   -2.5000    0.0000 C   0  0  0  0  0  0  0  0  0  0  0  0
    3.7320   -2.5000    0.0000 C   0  0  0  0  0  0  0  0  0  0  0  0
    5.4641   -3.5000    0.0000 C   0  0  0  0  0  0  0  0  0  0  0  0
    3.7320   -3.5000    0.0000 C   0  0  0  0  0  0  0  0  0  0  0  0
    4.5981   -1.0000    0.0000 C   0  0  0  0  0  0  0  0  0  0  0  0
    5.4641   -0.5000    0.0000 C   0  0  0  0  0  0  0  0  0  0  0  0
    4.5981   -5.0000    0.0000 C   0  0  0  0  0  0  0  0  0  0  0  0
    5.4641    0.5000    0.0000 C   0  0  0  0  0  0  0  0  0  0  0  0
    6.3301    1.0000    0.0000 C   0  0  0  0  0  0  0  0  0  0  0  0
    3.7320   -5.5000    0.0000 C   0  0  0  0  0  0  0  0  0  0  0  0
    5.4641   -5.5000    0.0000 C   0  0  0  0  0  0  0  0  0  0  0  0
    3.7320   -6.5000    0.0000 C   0  0  0  0  0  0  0  0  0  0  0  0
    5.4641   -6.5000    0.0000 C   0  0  0  0  0  0  0  0  0  0  0  0
    4.5981   -7.0000    0.0000 C   0  0  0  0  0  0  0  0  0  0  0  0
    7.1962    2.5000    0.0000 C   0  0  0  0  0  0  0  0  0  0  0  0
    7.1962    3.5000    0.0000 C   0  0  0  0  0  0  0  0  0  0  0  0
    2.0000   -5.5000    0.0000 C   0  0  0  0  0  0  0  0  0  0  0  0
    8.0622    4.0000    0.0000 C   0  0  0  0  0  0  0  0  0  0  0  0
    6.3301    4.0000    0.0000 C   0  0  0  0  0  0  0  0  0  0  0  0
    7.1962    5.5000    0.0000 C   0  0  0  0  0  0  0  0  0  0  0  0
    8.0622    5.0000    0.0000 C   0  0  0  0  0  0  0  0  0  0  0  0
    6.3301    5.0000    0.0000 C   0  0  0  0  0  0  0  0  0  0  0  0
    8.0622    7.0000    0.0000 C   0  0  0  0  0  0  0  0  0  0  0  0
    6.3301    7.0000    0.0000 C   0  0  0  0  0  0  0  0  0  0  0  0
    6.0747   -2.6077    0.0000 H   0  0  0  0  0  0  0  0  0  0  0  0
    5.6762   -1.9174    0.0000 H   0  0  0  0  0  0  0  0  0  0  0  0
    3.5200   -1.9174    0.0000 H   0  0  0  0  0  0  0  0  0  0  0  0
    3.1215   -2.6077    0.0000 H   0  0  0  0  0  0  0  0  0  0  0  0
    5.6762   -4.0826    0.0000 H   0  0  0  0  0  0  0  0  0  0  0  0
    6.0747   -3.3923    0.0000 H   0  0  0  0  0  0  0  0  0  0  0  0
    3.1215   -3.3923    0.0000 H   0  0  0  0  0  0  0  0  0  0  0  0
    3.5200   -4.0826    0.0000 H   0  0  0  0  0  0  0  0  0  0  0  0
    4.3860   -0.4174    0.0000 H   0  0  0  0  0  0  0  0  0  0  0  0
    3.9875   -1.1077    0.0000 H   0  0  0  0  0  0  0  0  0  0  0  0
    5.6762   -1.0826    0.0000 H   0  0  0  0  0  0  0  0  0  0  0  0
    6.0747   -0.3923    0.0000 H   0  0  0  0  0  0  0  0  0  0  0  0
    5.2520    1.0826    0.0000 H   0  0  0  0  0  0  0  0  0  0  0  0
    4.8535    0.3923    0.0000 H   0  0  0  0  0  0  0  0  0  0  0  0
    6.5422    0.4174    0.0000 H   0  0  0  0  0  0  0  0  0  0  0  0
    6.9407    1.1077    0.0000 H   0  0  0  0  0  0  0  0  0  0  0  0
    6.0010   -5.1900    0.0000 H   0  0  0  0  0  0  0  0  0  0  0  0
    3.1951   -6.8100    0.0000 H   0  0  0  0  0  0  0  0  0  0  0  0
    5.7932    2.3100    0.0000 H   0  0  0  0  0  0  0  0  0  0  0  0
    6.0010   -6.8100    0.0000 H   0  0  0  0  0  0  0  0  0  0  0  0
    4.5981   -7.6200    0.0000 H   0  0  0  0  0  0  0  0  0  0  0  0
    1.6900   -4.9631    0.0000 H   0  0  0  0  0  0  0  0  0  0  0  0
    1.4631   -5.8100    0.0000 H   0  0  0  0  0  0  0  0  0  0  0  0
    2.3100   -6.0369    0.0000 H   0  0  0  0  0  0  0  0  0  0  0  0
    8.5991    3.6900    0.0000 H   0  0  0  0  0  0  0  0  0  0  0  0
    5.7932    3.6900    0.0000 H   0  0  0  0  0  0  0  0  0  0  0  0
    8.5991    5.3100    0.0000 H   0  0  0  0  0  0  0  0  0  0  0  0
    5.7932    5.3100    0.0000 H   0  0  0  0  0  0  0  0  0  0  0  0
    8.3722    6.4631    0.0000 H   0  0  0  0  0  0  0  0  0  0  0  0
    8.5991    7.3100    0.0000 H   0  0  0  0  0  0  0  0  0  0  0  0
    7.7522    7.5369    0.0000 H   0  0  0  0  0  0  0  0  0  0  0  0
    6.6401    7.5369    0.0000 H   0  0  0  0  0  0  0  0  0  0  0  0
    5.7932    7.3100    0.0000 H   0  0  0  0  0  0  0  0  0  0  0  0
    6.0201    6.4631    0.0000 H   0  0  0  0  0  0  0  0  0  0  0  0
  1 16  1  0  0  0  0
  1 23  1  0  0  0  0
  2 21  2  0  0  0  0
  3  7  1  0  0  0  0
  3  8  1  0  0  0  0
  3 11  1  0  0  0  0
  4  9  1  0  0  0  0
  4 10  1  0  0  0  0
  4 13  1  0  0  0  0
  5 15  1  0  0  0  0
  5 21  1  0  0  0  0
  5 49  1  0  0  0  0
  6 26  1  0  0  0  0
  6 29  1  0  0  0  0
  6 30  1  0  0  0  0
  7  9  1  0  0  0  0
  7 31  1  0  0  0  0
  7 32  1  0  0  0  0
  8 10  1  0  0  0  0
  8 33  1  0  0  0  0
  8 34  1  0  0  0  0
  9 35  1  0  0  0  0
  9 36  1  0  0  0  0
 10 37  1  0  0  0  0
 10 38  1  0  0  0  0
 11 12  1  0  0  0  0
 11 39  1  0  0  0  0
 11 40  1  0  0  0  0
 12 14  1  0  0  0  0
 12 41  1  0  0  0  0
 12 42  1  0  0  0  0
 13 16  1  0  0  0  0
 13 17  2  0  0  0  0
 14 15  1  0  0  0  0
 14 43  1  0  0  0  0
 14 44  1  0  0  0  0
 15 45  1  0  0  0  0
 15 46  1  0  0  0  0
 16 18  2  0  0  0  0
 17 19  1  0  0  0  0
 17 47  1  0  0  0  0
 18 20  1  0  0  0  0
 18 48  1  0  0  0  0
 19 20  2  0  0  0  0
 19 50  1  0  0  0  0
 20 51  1  0  0  0  0
 21 22  1  0  0  0  0
 22 24  2  0  0  0  0
 22 25  1  0  0  0  0
 23 52  1  0  0  0  0
 23 53  1  0  0  0  0
 23 54  1  0  0  0  0
 24 27  1  0  0  0  0
 24 55  1  0  0  0  0
 25 28  2  0  0  0  0
 25 56  1  0  0  0  0
 26 27  2  0  0  0  0
 26 28  1  0  0  0  0
 27 57  1  0  0  0  0
 28 58  1  0  0  0  0
 29 59  1  0  0  0  0
 29 60  1  0  0  0  0
 29 61  1  0  0  0  0
 30 62  1  0  0  0  0
 30 63  1  0  0  0  0
 30 64  1  0  0  0  0
M  END
> <PUBCHEM_COMPOUND_CID>
53326601

> <PUBCHEM_COMPOUND_CANONICALIZED>
1

> <PUBCHEM_CACTVS_COMPLEXITY>
499

> <PUBCHEM_CACTVS_HBOND_ACCEPTOR>
5

> <PUBCHEM_CACTVS_HBOND_DONOR>
1

> <PUBCHEM_CACTVS_ROTATABLE_BOND>
9

> <PUBCHEM_CACTVS_SUBSKEYS>
AAADcfB7sAAAAAAAAAAAAAAAAAAAAAAAAAA8YIAAAAAAAAABQAAAHgAQAAAADAzBmAYyxoPABACIAiVSUACCCAAlIgAIiIEPbMgOZjLEtZuVMShk1hHY6YeYyQCeCAAAAAAAEAAQAAAAAAAgAAAAAAAAAA==

> <PUBCHEM_IUPAC_OPENEYE_NAME>
4-(dimethylamino)-N-[4-[4-(2-methoxyphenyl)piperazin-1-yl]butyl]benzamide

> <PUBCHEM_IUPAC_CAS_NAME>
4-(dimethylamino)-N-[4-[4-(2-methoxyphenyl)-1-piperazinyl]butyl]benzamide

> <PUBCHEM_IUPAC_NAME_MARKUP>
4-(dimethylamino)-<I>N</I>-[4-[4-(2-methoxyphenyl)piperazin-1-yl]butyl]benzamide

> <PUBCHEM_IUPAC_NAME>
4-(dimethylamino)-N-[4-[4-(2-methoxyphenyl)piperazin-1-yl]butyl]benzamide

> <PUBCHEM_IUPAC_SYSTEMATIC_NAME>
4-(dimethylamino)-N-[4-[4-(2-methoxyphenyl)piperazin-1-yl]butyl]benzamide

> <PUBCHEM_IUPAC_TRADITIONAL_NAME>
4-(dimethylamino)-N-[4-[4-(2-methoxyphenyl)piperazino]butyl]benzamide

> <PUBCHEM_IUPAC_INCHI>
InChI=1S/C24H34N4O2/c1-26(2)21-12-10-20(11-13-21)24(29)25-14-6-7-15-27-16-18-28(19-17-27)22-8-4-5-9-23(22)30-3/h4-5,8-13H,6-7,14-19H2,1-3H3,(H,25,29)

> <PUBCHEM_IUPAC_INCHIKEY>
LBZHOUJGVUYWGV-UHFFFAOYSA-N

> <PUBCHEM_XLOGP3_AA>
3.6

> <PUBCHEM_EXACT_MASS>
410.26817634

> <PUBCHEM_MOLECULAR_FORMULA>
C24H34N4O2

> <PUBCHEM_MOLECULAR_WEIGHT>
410.6

> <PUBCHEM_OPENEYE_CAN_SMILES>
CN(C)C1=CC=C(C=C1)C(=O)NCCCCN2CCN(CC2)C3=CC=CC=C3OC

> <PUBCHEM_OPENEYE_ISO_SMILES>
CN(C)C1=CC=C(C=C1)C(=O)NCCCCN2CCN(CC2)C3=CC=CC=C3OC

> <PUBCHEM_CACTVS_TPSA>
48

> <PUBCHEM_MONOISOTOPIC_WEIGHT>
410.26817634

> <PUBCHEM_TOTAL_CHARGE>
0

> <PUBCHEM_HEAVY_ATOM_COUNT>
30

> <PUBCHEM_ATOM_DEF_STEREO_COUNT>
0

> <PUBCHEM_ATOM_UDEF_STEREO_COUNT>
0

> <PUBCHEM_BOND_DEF_STEREO_COUNT>
0

> <PUBCHEM_BOND_UDEF_STEREO_COUNT>
0

> <PUBCHEM_ISOTOPIC_ATOM_COUNT>
0

> <PUBCHEM_COMPONENT_COUNT>
1

> <PUBCHEM_CACTVS_TAUTO_COUNT>
-1

> <PUBCHEM_COORDINATE_TYPE>
1
5
255

> <PUBCHEM_BONDANNOTATIONS>
13  16  8
13  17  8
16  18  8
17  19  8
18  20  8
19  20  8
22  24  8
22  25  8
24  27  8
25  28  8
26  27  8
26  28  8

$$$$
