14742527
  -OEChem-09292322522D

 31 33  0     0  0  0  0  0  0999 V2000
    3.6810    0.6036    0.0000 S   0  0  0  0  0  0  0  0  0  0  0  0
    3.5827    3.5286    0.0000 N   0  0  0  0  0  0  0  0  0  0  0  0
    2.3720   -0.3475    0.0000 N   0  0  0  0  0  0  0  0  0  0  0  0
    2.0000    3.1921    0.0000 N   0  0  0  0  0  0  0  0  0  0  0  0
    2.0933    1.4126    0.0000 C   0  0  0  0  0  0  0  0  0  0  0  0
    2.5000    2.3261    0.0000 C   0  0  0  0  0  0  0  0  0  0  0  0
    3.4782    2.5340    0.0000 C   0  0  0  0  0  0  0  0  0  0  0  0
    2.6810    0.6036    0.0000 C   0  0  0  0  0  0  0  0  0  0  0  0
    3.1810   -0.9353    0.0000 C   0  0  0  0  0  0  0  0  0  0  0  0
    3.1810   -1.9353    0.0000 C   0  0  0  0  0  0  0  0  0  0  0  0
    4.2213    1.8649    0.0000 C   0  0  0  0  0  0  0  0  0  0  0  0
    3.9901   -0.3475    0.0000 C   0  0  0  0  0  0  0  0  0  0  0  0
    2.6691    3.9353    0.0000 C   0  0  0  0  0  0  0  0  0  0  0  0
    2.3150   -2.4353    0.0000 C   0  0  0  0  0  0  0  0  0  0  0  0
    4.0471   -2.4353    0.0000 C   0  0  0  0  0  0  0  0  0  0  0  0
    2.3150   -3.4353    0.0000 C   0  0  0  0  0  0  0  0  0  0  0  0
    4.0471   -3.4353    0.0000 C   0  0  0  0  0  0  0  0  0  0  0  0
    3.1810   -3.9353    0.0000 C   0  0  0  0  0  0  0  0  0  0  0  0
    1.5793    1.7593    0.0000 H   0  0  0  0  0  0  0  0  0  0  0  0
    1.6626    0.9666    0.0000 H   0  0  0  0  0  0  0  0  0  0  0  0
    4.1196    3.8386    0.0000 H   0  0  0  0  0  0  0  0  0  0  0  0
    3.8064    1.4042    0.0000 H   0  0  0  0  0  0  0  0  0  0  0  0
    4.6820    1.4500    0.0000 H   0  0  0  0  0  0  0  0  0  0  0  0
    4.6362    2.3256    0.0000 H   0  0  0  0  0  0  0  0  0  0  0  0
    4.5797   -0.5391    0.0000 H   0  0  0  0  0  0  0  0  0  0  0  0
    2.5402    4.5417    0.0000 H   0  0  0  0  0  0  0  0  0  0  0  0
    1.7781   -2.1253    0.0000 H   0  0  0  0  0  0  0  0  0  0  0  0
    4.5840   -2.1253    0.0000 H   0  0  0  0  0  0  0  0  0  0  0  0
    1.7781   -3.7453    0.0000 H   0  0  0  0  0  0  0  0  0  0  0  0
    4.5840   -3.7453    0.0000 H   0  0  0  0  0  0  0  0  0  0  0  0
    3.1810   -4.5553    0.0000 H   0  0  0  0  0  0  0  0  0  0  0  0
  1  8  1  0  0  0  0
  1 12  1  0  0  0  0
  2  7  1  0  0  0  0
  2 13  1  0  0  0  0
  2 21  1  0  0  0  0
  3  8  2  0  0  0  0
  3  9  1  0  0  0  0
  4  6  1  0  0  0  0
  4 13  2  0  0  0  0
  5  6  1  0  0  0  0
  5  8  1  0  0  0  0
  5 19  1  0  0  0  0
  5 20  1  0  0  0  0
  6  7  2  0  0  0  0
  7 11  1  0  0  0  0
  9 10  1  0  0  0  0
  9 12  2  0  0  0  0
 10 14  2  0  0  0  0
 10 15  1  0  0  0  0
 11 22  1  0  0  0  0
 11 23  1  0  0  0  0
 11 24  1  0  0  0  0
 12 25  1  0  0  0  0
 13 26  1  0  0  0  0
 14 16  1  0  0  0  0
 14 27  1  0  0  0  0
 15 17  2  0  0  0  0
 15 28  1  0  0  0  0
 16 18  2  0  0  0  0
 16 29  1  0  0  0  0
 17 18  1  0  0  0  0
 17 30  1  0  0  0  0
 18 31  1  0  0  0  0
M  END
> <PUBCHEM_COMPOUND_CID>
14742527

> <PUBCHEM_COMPOUND_CANONICALIZED>
1

> <PUBCHEM_CACTVS_COMPLEXITY>
268

> <PUBCHEM_CACTVS_HBOND_ACCEPTOR>
3

> <PUBCHEM_CACTVS_HBOND_DONOR>
1

> <PUBCHEM_CACTVS_ROTATABLE_BOND>
3

> <PUBCHEM_CACTVS_SUBSKEYS>
AAADccBzAABAAAAAAAAAAAAAAAAAAWLAAAAwAAAAAAAAAAAB8AAAHAQQAAAADAiFXgS3kZbJkAikAyRjZACC8K3xGrgJ2bQ4dJiIaKLg2RGUIAhokALoyCcQgIAOAAAAAAAAAAAAAAAAAAAAAAAAAAAAAA==

> <PUBCHEM_IUPAC_OPENEYE_NAME>
2-[(5-methyl-1H-imidazol-4-yl)methyl]-4-phenyl-thiazole

> <PUBCHEM_IUPAC_CAS_NAME>
2-[(5-methyl-1H-imidazol-4-yl)methyl]-4-phenylthiazole

> <PUBCHEM_IUPAC_NAME_MARKUP>
2-[(5-methyl-1<I>H</I>-imidazol-4-yl)methyl]-4-phenyl-1,3-thiazole

> <PUBCHEM_IUPAC_NAME>
2-[(5-methyl-1H-imidazol-4-yl)methyl]-4-phenyl-1,3-thiazole

> <PUBCHEM_IUPAC_SYSTEMATIC_NAME>
2-[(5-methyl-1H-imidazol-4-yl)methyl]-4-phenyl-1,3-thiazole

> <PUBCHEM_IUPAC_TRADITIONAL_NAME>
2-[(5-methyl-1H-imidazol-4-yl)methyl]-4-phenyl-thiazole

> <PUBCHEM_IUPAC_INCHI>
InChI=1S/C14H13N3S/c1-10-12(16-9-15-10)7-14-17-13(8-18-14)11-5-3-2-4-6-11/h2-6,8-9H,7H2,1H3,(H,15,16)

> <PUBCHEM_IUPAC_INCHIKEY>
SDWUPSHVUBKGKN-UHFFFAOYSA-N

> <PUBCHEM_XLOGP3_AA>
3.1

> <PUBCHEM_EXACT_MASS>
255.08301860

> <PUBCHEM_MOLECULAR_FORMULA>
C14H13N3S

> <PUBCHEM_MOLECULAR_WEIGHT>
255.34

> <PUBCHEM_OPENEYE_CAN_SMILES>
CC1=C(N=CN1)CC2=NC(=CS2)C3=CC=CC=C3

> <PUBCHEM_OPENEYE_ISO_SMILES>
CC1=C(N=CN1)CC2=NC(=CS2)C3=CC=CC=C3

> <PUBCHEM_CACTVS_TPSA>
69.8

> <PUBCHEM_MONOISOTOPIC_WEIGHT>
255.08301860

> <PUBCHEM_TOTAL_CHARGE>
0

> <PUBCHEM_HEAVY_ATOM_COUNT>
18

> <PUBCHEM_ATOM_DEF_STEREO_COUNT>
0

> <PUBCHEM_ATOM_UDEF_STEREO_COUNT>
0

> <PUBCHEM_BOND_DEF_STEREO_COUNT>
0

> <PUBCHEM_BOND_UDEF_STEREO_COUNT>
0

> <PUBCHEM_ISOTOPIC_ATOM_COUNT>
0

> <PUBCHEM_COMPONENT_COUNT>
1

> <PUBCHEM_CACTVS_TAUTO_COUNT>
-1

> <PUBCHEM_COORDINATE_TYPE>
1
5
255

> <PUBCHEM_BONDANNOTATIONS>
1  12  8
1  8  8
10  14  8
10  15  8
14  16  8
15  17  8
16  18  8
17  18  8
2  13  8
2  7  8
3  8  8
3  9  8
4  13  8
4  6  8
6  7  8
9  12  8

$$$$
