118709172
  -OEChem-09292322352D

 64 67  0     0  0  0  0  0  0999 V2000
    7.5000    5.7990    0.0000 Cl  0  0  0  0  0  0  0  0  0  0  0  0
    3.7680   -6.6651    0.0000 F   0  0  0  0  0  0  0  0  0  0  0  0
    5.0000    3.2010    0.0000 O   0  0  0  0  0  0  0  0  0  0  0  0
    3.5000    2.3349    0.0000 O   0  0  0  0  0  0  0  0  0  0  0  0
    2.9019   -2.1651    0.0000 O   0  0  0  0  0  0  0  0  0  0  0  0
    5.5000    0.3349    0.0000 N   0  0  0  0  0  0  0  0  0  0  0  0
    5.5000    2.3349    0.0000 C   0  0  0  0  0  0  0  0  0  0  0  0
    6.3660    1.8349    0.0000 C   0  0  0  0  0  0  0  0  0  0  0  0
    4.6340    1.8349    0.0000 C   0  0  0  0  0  0  0  0  0  0  0  0
    6.3660    0.8349    0.0000 C   0  0  0  0  0  0  0  0  0  0  0  0
    4.6340    0.8349    0.0000 C   0  0  0  0  0  0  0  0  0  0  0  0
    6.0000    3.2010    0.0000 C   0  0  0  0  0  0  0  0  0  0  0  0
    5.5000   -0.6651    0.0000 C   0  0  0  0  0  0  0  0  0  0  0  0
    4.6340   -1.1651    0.0000 C   0  0  0  0  0  0  0  0  0  0  0  0
    5.5000    4.0670    0.0000 C   0  0  0  0  0  0  0  0  0  0  0  0
    7.0000    3.2010    0.0000 C   0  0  0  0  0  0  0  0  0  0  0  0
    4.6340   -2.1651    0.0000 C   0  0  0  0  0  0  0  0  0  0  0  0
    4.0000    3.2010    0.0000 C   0  0  0  0  0  0  0  0  0  0  0  0
    6.0000    4.9330    0.0000 C   0  0  0  0  0  0  0  0  0  0  0  0
    7.5000    4.0670    0.0000 C   0  0  0  0  0  0  0  0  0  0  0  0
    7.0000    4.9330    0.0000 C   0  0  0  0  0  0  0  0  0  0  0  0
    3.7680   -2.6651    0.0000 C   0  0  0  0  0  0  0  0  0  0  0  0
    3.5000    4.0670    0.0000 C   0  0  0  0  0  0  0  0  0  0  0  0
    3.7680   -3.6651    0.0000 C   0  0  0  0  0  0  0  0  0  0  0  0
    2.5000    4.0670    0.0000 C   0  0  0  0  0  0  0  0  0  0  0  0
    4.0000    4.9330    0.0000 C   0  0  0  0  0  0  0  0  0  0  0  0
    2.0000    4.9330    0.0000 C   0  0  0  0  0  0  0  0  0  0  0  0
    3.5000    5.7990    0.0000 C   0  0  0  0  0  0  0  0  0  0  0  0
    2.5000    5.7990    0.0000 C   0  0  0  0  0  0  0  0  0  0  0  0
    2.9019   -4.1651    0.0000 C   0  0  0  0  0  0  0  0  0  0  0  0
    4.6340   -4.1651    0.0000 C   0  0  0  0  0  0  0  0  0  0  0  0
    2.9019   -5.1651    0.0000 C   0  0  0  0  0  0  0  0  0  0  0  0
    4.6340   -5.1651    0.0000 C   0  0  0  0  0  0  0  0  0  0  0  0
    2.0000    6.6651    0.0000 C   0  0  0  0  0  0  0  0  0  0  0  0
    3.7680   -5.6651    0.0000 C   0  0  0  0  0  0  0  0  0  0  0  0
    6.9766    1.7273    0.0000 H   0  0  0  0  0  0  0  0  0  0  0  0
    6.5781    2.4176    0.0000 H   0  0  0  0  0  0  0  0  0  0  0  0
    4.4219    2.4176    0.0000 H   0  0  0  0  0  0  0  0  0  0  0  0
    4.0234    1.7273    0.0000 H   0  0  0  0  0  0  0  0  0  0  0  0
    6.5781    0.2523    0.0000 H   0  0  0  0  0  0  0  0  0  0  0  0
    6.9766    0.9426    0.0000 H   0  0  0  0  0  0  0  0  0  0  0  0
    4.0234    0.9426    0.0000 H   0  0  0  0  0  0  0  0  0  0  0  0
    4.4219    0.2523    0.0000 H   0  0  0  0  0  0  0  0  0  0  0  0
    5.7120   -1.2477    0.0000 H   0  0  0  0  0  0  0  0  0  0  0  0
    6.1106   -0.5574    0.0000 H   0  0  0  0  0  0  0  0  0  0  0  0
    4.4219   -0.5825    0.0000 H   0  0  0  0  0  0  0  0  0  0  0  0
    4.0234   -1.2727    0.0000 H   0  0  0  0  0  0  0  0  0  0  0  0
    4.8800    4.0670    0.0000 H   0  0  0  0  0  0  0  0  0  0  0  0
    7.3100    2.6640    0.0000 H   0  0  0  0  0  0  0  0  0  0  0  0
    4.8460   -2.7477    0.0000 H   0  0  0  0  0  0  0  0  0  0  0  0
    5.2446   -2.0574    0.0000 H   0  0  0  0  0  0  0  0  0  0  0  0
    5.6900    5.4700    0.0000 H   0  0  0  0  0  0  0  0  0  0  0  0
    8.1200    4.0670    0.0000 H   0  0  0  0  0  0  0  0  0  0  0  0
    2.1900    3.5300    0.0000 H   0  0  0  0  0  0  0  0  0  0  0  0
    4.6200    4.9330    0.0000 H   0  0  0  0  0  0  0  0  0  0  0  0
    1.3800    4.9330    0.0000 H   0  0  0  0  0  0  0  0  0  0  0  0
    3.8100    6.3360    0.0000 H   0  0  0  0  0  0  0  0  0  0  0  0
    2.3650   -3.8551    0.0000 H   0  0  0  0  0  0  0  0  0  0  0  0
    5.1709   -3.8551    0.0000 H   0  0  0  0  0  0  0  0  0  0  0  0
    2.3650   -5.4751    0.0000 H   0  0  0  0  0  0  0  0  0  0  0  0
    5.1709   -5.4751    0.0000 H   0  0  0  0  0  0  0  0  0  0  0  0
    2.5369    6.9751    0.0000 H   0  0  0  0  0  0  0  0  0  0  0  0
    1.6900    7.2020    0.0000 H   0  0  0  0  0  0  0  0  0  0  0  0
    1.4631    6.3551    0.0000 H   0  0  0  0  0  0  0  0  0  0  0  0
  1 21  1  0  0  0  0
  2 35  1  0  0  0  0
  3  7  1  0  0  0  0
  3 18  1  0  0  0  0
  4 18  2  0  0  0  0
  5 22  2  0  0  0  0
  6 10  1  0  0  0  0
  6 11  1  0  0  0  0
  6 13  1  0  0  0  0
  7  8  1  0  0  0  0
  7  9  1  0  0  0  0
  7 12  1  0  0  0  0
  8 10  1  0  0  0  0
  8 36  1  0  0  0  0
  8 37  1  0  0  0  0
  9 11  1  0  0  0  0
  9 38  1  0  0  0  0
  9 39  1  0  0  0  0
 10 40  1  0  0  0  0
 10 41  1  0  0  0  0
 11 42  1  0  0  0  0
 11 43  1  0  0  0  0
 12 15  2  0  0  0  0
 12 16  1  0  0  0  0
 13 14  1  0  0  0  0
 13 44  1  0  0  0  0
 13 45  1  0  0  0  0
 14 17  1  0  0  0  0
 14 46  1  0  0  0  0
 14 47  1  0  0  0  0
 15 19  1  0  0  0  0
 15 48  1  0  0  0  0
 16 20  2  0  0  0  0
 16 49  1  0  0  0  0
 17 22  1  0  0  0  0
 17 50  1  0  0  0  0
 17 51  1  0  0  0  0
 18 23  1  0  0  0  0
 19 21  2  0  0  0  0
 19 52  1  0  0  0  0
 20 21  1  0  0  0  0
 20 53  1  0  0  0  0
 22 24  1  0  0  0  0
 23 25  2  0  0  0  0
 23 26  1  0  0  0  0
 24 30  2  0  0  0  0
 24 31  1  0  0  0  0
 25 27  1  0  0  0  0
 25 54  1  0  0  0  0
 26 28  2  0  0  0  0
 26 55  1  0  0  0  0
 27 29  2  0  0  0  0
 27 56  1  0  0  0  0
 28 29  1  0  0  0  0
 28 57  1  0  0  0  0
 29 34  1  0  0  0  0
 30 32  1  0  0  0  0
 30 58  1  0  0  0  0
 31 33  2  0  0  0  0
 31 59  1  0  0  0  0
 32 35  2  0  0  0  0
 32 60  1  0  0  0  0
 33 35  1  0  0  0  0
 33 61  1  0  0  0  0
 34 62  1  0  0  0  0
 34 63  1  0  0  0  0
 34 64  1  0  0  0  0
M  END
> <PUBCHEM_COMPOUND_CID>
118709172

> <PUBCHEM_COMPOUND_CANONICALIZED>
1

> <PUBCHEM_CACTVS_COMPLEXITY>
686

> <PUBCHEM_CACTVS_HBOND_ACCEPTOR>
5

> <PUBCHEM_CACTVS_HBOND_DONOR>
0

> <PUBCHEM_CACTVS_ROTATABLE_BOND>
9

> <PUBCHEM_CACTVS_SUBSKEYS>
AAADceB6MQAEAAAAAAAAAAAAAAAAAAAAAAA8YMEAAAAAAAABUAAAHwIAAAAADEbBmCwyCIMABACIAqDSCAACAAAkBQAIiAEICsgIJjKBtxiGMQAmwAGIqYecyPCOxAAAAAAAAACIAAAAAAAAAAAAAAAAAA==

> <PUBCHEM_IUPAC_OPENEYE_NAME>
[4-(4-chlorophenyl)-1-[4-(4-fluorophenyl)-4-oxo-butyl]-4-piperidyl] 4-methylbenzoate

> <PUBCHEM_IUPAC_CAS_NAME>
4-methylbenzoic acid [4-(4-chlorophenyl)-1-[4-(4-fluorophenyl)-4-oxobutyl]-4-piperidinyl] ester

> <PUBCHEM_IUPAC_NAME_MARKUP>
[4-(4-chlorophenyl)-1-[4-(4-fluorophenyl)-4-oxobutyl]piperidin-4-yl] 4-methylbenzoate

> <PUBCHEM_IUPAC_NAME>
[4-(4-chlorophenyl)-1-[4-(4-fluorophenyl)-4-oxobutyl]piperidin-4-yl] 4-methylbenzoate

> <PUBCHEM_IUPAC_SYSTEMATIC_NAME>
[4-(4-chlorophenyl)-1-[4-(4-fluorophenyl)-4-oxidanylidene-butyl]piperidin-4-yl] 4-methylbenzoate

> <PUBCHEM_IUPAC_TRADITIONAL_NAME>
4-methylbenzoic acid [4-(4-chlorophenyl)-1-[4-(4-fluorophenyl)-4-keto-butyl]-4-piperidyl] ester

> <PUBCHEM_IUPAC_INCHI>
InChI=1S/C29H29ClFNO3/c1-21-4-6-23(7-5-21)28(34)35-29(24-10-12-25(30)13-11-24)16-19-32(20-17-29)18-2-3-27(33)22-8-14-26(31)15-9-22/h4-15H,2-3,16-20H2,1H3

> <PUBCHEM_IUPAC_INCHIKEY>
VONCVEKPHABPGO-UHFFFAOYSA-N

> <PUBCHEM_XLOGP3>
5.8

> <PUBCHEM_EXACT_MASS>
493.1819996

> <PUBCHEM_MOLECULAR_FORMULA>
C29H29ClFNO3

> <PUBCHEM_MOLECULAR_WEIGHT>
494.0

> <PUBCHEM_OPENEYE_CAN_SMILES>
CC1=CC=C(C=C1)C(=O)OC2(CCN(CC2)CCCC(=O)C3=CC=C(C=C3)F)C4=CC=C(C=C4)Cl

> <PUBCHEM_OPENEYE_ISO_SMILES>
CC1=CC=C(C=C1)C(=O)OC2(CCN(CC2)CCCC(=O)C3=CC=C(C=C3)F)C4=CC=C(C=C4)Cl

> <PUBCHEM_CACTVS_TPSA>
46.6

> <PUBCHEM_MONOISOTOPIC_WEIGHT>
493.1819996

> <PUBCHEM_TOTAL_CHARGE>
0

> <PUBCHEM_HEAVY_ATOM_COUNT>
35

> <PUBCHEM_ATOM_DEF_STEREO_COUNT>
0

> <PUBCHEM_ATOM_UDEF_STEREO_COUNT>
0

> <PUBCHEM_BOND_DEF_STEREO_COUNT>
0

> <PUBCHEM_BOND_UDEF_STEREO_COUNT>
0

> <PUBCHEM_ISOTOPIC_ATOM_COUNT>
0

> <PUBCHEM_COMPONENT_COUNT>
1

> <PUBCHEM_CACTVS_TAUTO_COUNT>
-1

> <PUBCHEM_COORDINATE_TYPE>
1
5
255

> <PUBCHEM_BONDANNOTATIONS>
12  15  8
12  16  8
15  19  8
16  20  8
19  21  8
20  21  8
23  25  8
23  26  8
24  30  8
24  31  8
25  27  8
26  28  8
27  29  8
28  29  8
30  32  8
31  33  8
32  35  8
33  35  8

$$$$
