10137748
  -OEChem-09292322192D

 67 71  0     1  0  0  0  0  0999 V2000
    2.3161   -2.1030    0.0000 O   0  0  0  0  0  0  0  0  0  0  0  0
    4.1734    1.9107    0.0000 O   0  0  0  0  0  0  0  0  0  0  0  0
    3.5135   -3.3005    0.0000 N   0  0  0  0  0  0  0  0  0  0  0  0
    3.4806   -0.6427    0.0000 N   0  0  0  0  0  0  0  0  0  0  0  0
    2.6128    1.1592    0.0000 N   0  0  0  0  0  0  0  0  0  0  0  0
    2.8665   -4.0484    0.0000 C   0  0  0  0  0  0  0  0  0  0  0  0
    3.9145   -1.5437    0.0000 C   0  0  3  0  0  0  0  0  0  0  0  0
    3.3422   -4.9155    0.0000 C   0  0  0  0  0  0  0  0  0  0  0  0
    4.4145   -3.7344    0.0000 C   0  0  0  0  0  0  0  0  0  0  0  0
    4.3206   -4.7717    0.0000 C   0  0  0  0  0  0  0  0  0  0  0  0
    4.9145   -1.5437    0.0000 C   0  0  0  0  0  0  0  0  0  0  0  0
    3.2910   -2.3255    0.0000 C   0  0  0  0  0  0  0  0  0  0  0  0
    5.3154   -3.3005    0.0000 C   0  0  0  0  0  0  0  0  0  0  0  0
    5.5380   -2.3255    0.0000 C   0  0  0  0  0  0  0  0  0  0  0  0
    2.4834   -0.5680    0.0000 C   0  0  0  0  0  0  0  0  0  0  0  0
    4.0439    0.1835    0.0000 C   0  0  0  0  0  0  0  0  0  0  0  0
    2.0000   -4.5476    0.0000 C   0  0  0  0  0  0  0  0  0  0  0  0
    2.1240   -3.3786    0.0000 C   0  0  0  0  0  0  0  0  0  0  0  0
    2.0495    0.3330    0.0000 C   0  0  0  0  0  0  0  0  0  0  0  0
    3.6100    1.0845    0.0000 C   0  0  0  0  0  0  0  0  0  0  0  0
    5.1767   -5.3651    0.0000 C   0  0  0  0  0  0  0  0  0  0  0  0
    6.1850   -3.8739    0.0000 C   0  0  0  0  0  0  0  0  0  0  0  0
    6.1152   -4.9132    0.0000 C   0  0  0  0  0  0  0  0  0  0  0  0
    2.1790    2.0602    0.0000 C   0  0  0  0  0  0  0  0  0  0  0  0
    2.7423    2.8864    0.0000 C   0  0  0  0  0  0  0  0  0  0  0  0
    3.7395    2.8117    0.0000 C   0  0  0  0  0  0  0  0  0  0  0  0
    2.3084    3.7874    0.0000 C   0  0  0  0  0  0  0  0  0  0  0  0
    4.3028    3.6379    0.0000 C   0  0  0  0  0  0  0  0  0  0  0  0
    2.8717    4.6136    0.0000 C   0  0  0  0  0  0  0  0  0  0  0  0
    3.8689    4.5389    0.0000 C   0  0  0  0  0  0  0  0  0  0  0  0
    4.4322    5.3651    0.0000 C   0  0  0  0  0  0  0  0  0  0  0  0
    5.1706    1.8360    0.0000 C   0  0  0  0  0  0  0  0  0  0  0  0
    4.2443   -1.0187    0.0000 H   0  0  0  0  0  0  0  0  0  0  0  0
    2.7671   -5.1473    0.0000 H   0  0  0  0  0  0  0  0  0  0  0  0
    3.5043   -5.5139    0.0000 H   0  0  0  0  0  0  0  0  0  0  0  0
    5.4731   -1.2747    0.0000 H   0  0  0  0  0  0  0  0  0  0  0  0
    4.7765   -0.9392    0.0000 H   0  0  0  0  0  0  0  0  0  0  0  0
    6.0966   -2.5945    0.0000 H   0  0  0  0  0  0  0  0  0  0  0  0
    5.9245   -1.8408    0.0000 H   0  0  0  0  0  0  0  0  0  0  0  0
    1.8866   -0.7359    0.0000 H   0  0  0  0  0  0  0  0  0  0  0  0
    2.5451   -1.1849    0.0000 H   0  0  0  0  0  0  0  0  0  0  0  0
    4.4878   -0.2494    0.0000 H   0  0  0  0  0  0  0  0  0  0  0  0
    4.5473    0.5454    0.0000 H   0  0  0  0  0  0  0  0  0  0  0  0
    1.6905   -4.0103    0.0000 H   0  0  0  0  0  0  0  0  0  0  0  0
    1.4628   -4.8570    0.0000 H   0  0  0  0  0  0  0  0  0  0  0  0
    2.3095   -5.0848    0.0000 H   0  0  0  0  0  0  0  0  0  0  0  0
    2.5393   -2.9182    0.0000 H   0  0  0  0  0  0  0  0  0  0  0  0
    1.6637   -2.9632    0.0000 H   0  0  0  0  0  0  0  0  0  0  0  0
    1.7087   -3.8389    0.0000 H   0  0  0  0  0  0  0  0  0  0  0  0
    1.6057    0.7659    0.0000 H   0  0  0  0  0  0  0  0  0  0  0  0
    1.5461   -0.0290    0.0000 H   0  0  0  0  0  0  0  0  0  0  0  0
    4.2069    1.2524    0.0000 H   0  0  0  0  0  0  0  0  0  0  0  0
    3.5483    1.7014    0.0000 H   0  0  0  0  0  0  0  0  0  0  0  0
    5.1280   -5.9832    0.0000 H   0  0  0  0  0  0  0  0  0  0  0  0
    6.7405   -3.5984    0.0000 H   0  0  0  0  0  0  0  0  0  0  0  0
    6.6288   -5.2605    0.0000 H   0  0  0  0  0  0  0  0  0  0  0  0
    1.7351    2.4931    0.0000 H   0  0  0  0  0  0  0  0  0  0  0  0
    1.6756    1.6982    0.0000 H   0  0  0  0  0  0  0  0  0  0  0  0
    1.6901    3.8337    0.0000 H   0  0  0  0  0  0  0  0  0  0  0  0
    4.9211    3.5916    0.0000 H   0  0  0  0  0  0  0  0  0  0  0  0
    2.6027    5.1722    0.0000 H   0  0  0  0  0  0  0  0  0  0  0  0
    4.9445    5.0159    0.0000 H   0  0  0  0  0  0  0  0  0  0  0  0
    4.7815    5.8774    0.0000 H   0  0  0  0  0  0  0  0  0  0  0  0
    3.9200    5.7144    0.0000 H   0  0  0  0  0  0  0  0  0  0  0  0
    5.1242    1.2177    0.0000 H   0  0  0  0  0  0  0  0  0  0  0  0
    5.7888    1.7896    0.0000 H   0  0  0  0  0  0  0  0  0  0  0  0
    5.2169    2.4542    0.0000 H   0  0  0  0  0  0  0  0  0  0  0  0
  1 12  2  0  0  0  0
  2 26  1  0  0  0  0
  2 32  1  0  0  0  0
  3  6  1  0  0  0  0
  3  9  1  0  0  0  0
  3 12  1  0  0  0  0
  4  7  1  0  0  0  0
  4 15  1  0  0  0  0
  4 16  1  0  0  0  0
  5 19  1  0  0  0  0
  5 20  1  0  0  0  0
  5 24  1  0  0  0  0
  6  8  1  0  0  0  0
  6 17  1  0  0  0  0
  6 18  1  0  0  0  0
  7 11  1  0  0  0  0
  7 12  1  0  0  0  0
  7 33  1  0  0  0  0
  8 10  1  0  0  0  0
  8 34  1  0  0  0  0
  8 35  1  0  0  0  0
  9 10  1  0  0  0  0
  9 13  2  0  0  0  0
 10 21  2  0  0  0  0
 11 14  1  0  0  0  0
 11 36  1  0  0  0  0
 11 37  1  0  0  0  0
 13 14  1  0  0  0  0
 13 22  1  0  0  0  0
 14 38  1  0  0  0  0
 14 39  1  0  0  0  0
 15 19  1  0  0  0  0
 15 40  1  0  0  0  0
 15 41  1  0  0  0  0
 16 20  1  0  0  0  0
 16 42  1  0  0  0  0
 16 43  1  0  0  0  0
 17 44  1  0  0  0  0
 17 45  1  0  0  0  0
 17 46  1  0  0  0  0
 18 47  1  0  0  0  0
 18 48  1  0  0  0  0
 18 49  1  0  0  0  0
 19 50  1  0  0  0  0
 19 51  1  0  0  0  0
 20 52  1  0  0  0  0
 20 53  1  0  0  0  0
 21 23  1  0  0  0  0
 21 54  1  0  0  0  0
 22 23  2  0  0  0  0
 22 55  1  0  0  0  0
 23 56  1  0  0  0  0
 24 25  1  0  0  0  0
 24 57  1  0  0  0  0
 24 58  1  0  0  0  0
 25 26  2  0  0  0  0
 25 27  1  0  0  0  0
 26 28  1  0  0  0  0
 27 29  2  0  0  0  0
 27 59  1  0  0  0  0
 28 30  2  0  0  0  0
 28 60  1  0  0  0  0
 29 30  1  0  0  0  0
 29 61  1  0  0  0  0
 30 31  1  0  0  0  0
 31 62  1  0  0  0  0
 31 63  1  0  0  0  0
 31 64  1  0  0  0  0
 32 65  1  0  0  0  0
 32 66  1  0  0  0  0
 32 67  1  0  0  0  0
M  END
> <PUBCHEM_COMPOUND_CID>
10137748

> <PUBCHEM_COMPOUND_CANONICALIZED>
1

> <PUBCHEM_CACTVS_COMPLEXITY>
674

> <PUBCHEM_CACTVS_HBOND_ACCEPTOR>
4

> <PUBCHEM_CACTVS_HBOND_DONOR>
0

> <PUBCHEM_CACTVS_ROTATABLE_BOND>
4

> <PUBCHEM_CACTVS_SUBSKEYS>
AAADcfB7MAAAAAAAAAAAAAAAAAAAAWAAAAA8YIAABYAAAFixQAAAHgAAAAAADKzBmAYyxoMABACIAiVSUACCCAAhIAAIiAGOTIgMZjLEsbuUMChmxBHI6AeYyPCOQAADAAAKAACAAAYAABQAAAAAAAAAAA==

> <PUBCHEM_IUPAC_OPENEYE_NAME>
11-[4-[(2-methoxy-4-methyl-phenyl)methyl]piperazin-1-yl]-2,2-dimethyl-1-azatricyclo[6.4.1.04,13]trideca-4,6,8(13)-trien-12-one

> <PUBCHEM_IUPAC_CAS_NAME>
11-[4-[(2-methoxy-4-methylphenyl)methyl]-1-piperazinyl]-2,2-dimethyl-1-azatricyclo[6.4.1.04,13]trideca-4,6,8(13)-trien-12-one

> <PUBCHEM_IUPAC_NAME_MARKUP>
11-[4-[(2-methoxy-4-methylphenyl)methyl]piperazin-1-yl]-2,2-dimethyl-1-azatricyclo[6.4.1.0<SUP>4,13</SUP>]trideca-4,6,8(13)-trien-12-one

> <PUBCHEM_IUPAC_NAME>
11-[4-[(2-methoxy-4-methylphenyl)methyl]piperazin-1-yl]-2,2-dimethyl-1-azatricyclo[6.4.1.04,13]trideca-4,6,8(13)-trien-12-one

> <PUBCHEM_IUPAC_SYSTEMATIC_NAME>
11-[4-[(2-methoxy-4-methyl-phenyl)methyl]piperazin-1-yl]-2,2-dimethyl-1-azatricyclo[6.4.1.04,13]trideca-4,6,8(13)-trien-12-one

> <PUBCHEM_IUPAC_TRADITIONAL_NAME>
11-[4-(2-methoxy-4-methyl-benzyl)piperazino]-2,2-dimethyl-1-azatricyclo[6.4.1.04,13]trideca-4,6,8(13)-trien-12-one

> <PUBCHEM_IUPAC_INCHI>
InChI=1S/C27H35N3O2/c1-19-8-9-22(24(16-19)32-4)18-28-12-14-29(15-13-28)23-11-10-20-6-5-7-21-17-27(2,3)30(25(20)21)26(23)31/h5-9,16,23H,10-15,17-18H2,1-4H3

> <PUBCHEM_IUPAC_INCHIKEY>
PPLIBGVHLPPEBD-UHFFFAOYSA-N

> <PUBCHEM_XLOGP3_AA>
4.1

> <PUBCHEM_EXACT_MASS>
433.27292737

> <PUBCHEM_MOLECULAR_FORMULA>
C27H35N3O2

> <PUBCHEM_MOLECULAR_WEIGHT>
433.6

> <PUBCHEM_OPENEYE_CAN_SMILES>
CC1=CC(=C(C=C1)CN2CCN(CC2)C3CCC4=C5C(=CC=C4)CC(N5C3=O)(C)C)OC

> <PUBCHEM_OPENEYE_ISO_SMILES>
CC1=CC(=C(C=C1)CN2CCN(CC2)C3CCC4=C5C(=CC=C4)CC(N5C3=O)(C)C)OC

> <PUBCHEM_CACTVS_TPSA>
36

> <PUBCHEM_MONOISOTOPIC_WEIGHT>
433.27292737

> <PUBCHEM_TOTAL_CHARGE>
0

> <PUBCHEM_HEAVY_ATOM_COUNT>
32

> <PUBCHEM_ATOM_DEF_STEREO_COUNT>
0

> <PUBCHEM_ATOM_UDEF_STEREO_COUNT>
1

> <PUBCHEM_BOND_DEF_STEREO_COUNT>
0

> <PUBCHEM_BOND_UDEF_STEREO_COUNT>
0

> <PUBCHEM_ISOTOPIC_ATOM_COUNT>
0

> <PUBCHEM_COMPONENT_COUNT>
1

> <PUBCHEM_CACTVS_TAUTO_COUNT>
-1

> <PUBCHEM_COORDINATE_TYPE>
1
5
255

> <PUBCHEM_BONDANNOTATIONS>
10  21  8
13  22  8
21  23  8
22  23  8
25  26  8
25  27  8
26  28  8
27  29  8
28  30  8
29  30  8
7  4  3
9  10  8
9  13  8

$$$$
