44371996
  -OEChem-09292322182D

 69 74  0     0  0  0  0  0  0999 V2000
   13.5705    4.8304    0.0000 Cl  0  0  0  0  0  0  0  0  0  0  0  0
    4.5981   -0.3684    0.0000 N   0  0  0  0  0  0  0  0  0  0  0  0
    7.6995    3.5930    0.0000 N   0  0  0  0  0  0  0  0  0  0  0  0
    4.5981   -2.3684    0.0000 N   0  0  0  0  0  0  0  0  0  0  0  0
    9.6565    4.0055    0.0000 N   0  0  0  0  0  0  0  0  0  0  0  0
    5.4641    1.1316    0.0000 N   0  0  0  0  0  0  0  0  0  0  0  0
    6.4103    0.8268    0.0000 N   0  0  0  0  0  0  0  0  0  0  0  0
    5.4641   -0.8684    0.0000 C   0  0  0  0  0  0  0  0  0  0  0  0
    3.7320   -0.8684    0.0000 C   0  0  0  0  0  0  0  0  0  0  0  0
    5.4641   -1.8684    0.0000 C   0  0  0  0  0  0  0  0  0  0  0  0
    3.7320   -1.8684    0.0000 C   0  0  0  0  0  0  0  0  0  0  0  0
    8.3673    2.8487    0.0000 C   0  0  0  0  0  0  0  0  0  0  0  0
    8.0102    4.5436    0.0000 C   0  0  0  0  0  0  0  0  0  0  0  0
    6.7210    3.3868    0.0000 C   0  0  0  0  0  0  0  0  0  0  0  0
    9.3458    3.0550    0.0000 C   0  0  0  0  0  0  0  0  0  0  0  0
    8.9887    4.7498    0.0000 C   0  0  0  0  0  0  0  0  0  0  0  0
    4.5981    0.6316    0.0000 C   0  0  0  0  0  0  0  0  0  0  0  0
    6.4103    2.4363    0.0000 C   0  0  0  0  0  0  0  0  0  0  0  0
    5.4641    2.1316    0.0000 C   0  0  0  0  0  0  0  0  0  0  0  0
    4.5981   -3.3684    0.0000 C   0  0  0  0  0  0  0  0  0  0  0  0
   10.6350    4.2117    0.0000 C   0  0  0  0  0  0  0  0  0  0  0  0
    3.7320    1.1316    0.0000 C   0  0  0  0  0  0  0  0  0  0  0  0
    6.9939    1.6316    0.0000 C   0  0  0  0  0  0  0  0  0  0  0  0
    4.5981    2.6316    0.0000 C   0  0  0  0  0  0  0  0  0  0  0  0
    3.7320   -3.8684    0.0000 C   0  0  0  0  0  0  0  0  0  0  0  0
    3.7320    2.1316    0.0000 C   0  0  0  0  0  0  0  0  0  0  0  0
   11.3029    3.4674    0.0000 C   0  0  0  0  0  0  0  0  0  0  0  0
   10.9457    5.1622    0.0000 C   0  0  0  0  0  0  0  0  0  0  0  0
    2.8660   -3.3684    0.0000 C   0  0  0  0  0  0  0  0  0  0  0  0
    3.7320   -4.8684    0.0000 C   0  0  0  0  0  0  0  0  0  0  0  0
   12.2814    3.6736    0.0000 C   0  0  0  0  0  0  0  0  0  0  0  0
   11.9242    5.3684    0.0000 C   0  0  0  0  0  0  0  0  0  0  0  0
   12.5920    4.6241    0.0000 C   0  0  0  0  0  0  0  0  0  0  0  0
    2.0000   -3.8684    0.0000 C   0  0  0  0  0  0  0  0  0  0  0  0
    2.8660   -5.3684    0.0000 C   0  0  0  0  0  0  0  0  0  0  0  0
    2.0000   -4.8684    0.0000 C   0  0  0  0  0  0  0  0  0  0  0  0
    6.0747   -0.9761    0.0000 H   0  0  0  0  0  0  0  0  0  0  0  0
    5.6762   -0.2858    0.0000 H   0  0  0  0  0  0  0  0  0  0  0  0
    3.5200   -0.2858    0.0000 H   0  0  0  0  0  0  0  0  0  0  0  0
    3.1215   -0.9761    0.0000 H   0  0  0  0  0  0  0  0  0  0  0  0
    5.6762   -2.4510    0.0000 H   0  0  0  0  0  0  0  0  0  0  0  0
    6.0747   -1.7608    0.0000 H   0  0  0  0  0  0  0  0  0  0  0  0
    3.1215   -1.7608    0.0000 H   0  0  0  0  0  0  0  0  0  0  0  0
    3.5200   -2.4510    0.0000 H   0  0  0  0  0  0  0  0  0  0  0  0
    7.8410    2.5211    0.0000 H   0  0  0  0  0  0  0  0  0  0  0  0
    8.5986    2.2735    0.0000 H   0  0  0  0  0  0  0  0  0  0  0  0
    7.9896    5.1632    0.0000 H   0  0  0  0  0  0  0  0  0  0  0  0
    7.3963    4.6309    0.0000 H   0  0  0  0  0  0  0  0  0  0  0  0
    6.7004    4.0065    0.0000 H   0  0  0  0  0  0  0  0  0  0  0  0
    6.1072    3.4742    0.0000 H   0  0  0  0  0  0  0  0  0  0  0  0
    9.3664    2.4353    0.0000 H   0  0  0  0  0  0  0  0  0  0  0  0
    9.9597    2.9676    0.0000 H   0  0  0  0  0  0  0  0  0  0  0  0
    9.5150    5.0774    0.0000 H   0  0  0  0  0  0  0  0  0  0  0  0
    8.7574    5.3250    0.0000 H   0  0  0  0  0  0  0  0  0  0  0  0
    4.8101   -3.9510    0.0000 H   0  0  0  0  0  0  0  0  0  0  0  0
    5.2087   -3.2608    0.0000 H   0  0  0  0  0  0  0  0  0  0  0  0
    3.1951    0.8216    0.0000 H   0  0  0  0  0  0  0  0  0  0  0  0
    7.6139    1.6316    0.0000 H   0  0  0  0  0  0  0  0  0  0  0  0
    4.5981    3.2516    0.0000 H   0  0  0  0  0  0  0  0  0  0  0  0
    3.1951    2.4416    0.0000 H   0  0  0  0  0  0  0  0  0  0  0  0
   11.1102    2.8781    0.0000 H   0  0  0  0  0  0  0  0  0  0  0  0
   10.5316    5.6237    0.0000 H   0  0  0  0  0  0  0  0  0  0  0  0
    2.8660   -2.7484    0.0000 H   0  0  0  0  0  0  0  0  0  0  0  0
    4.2690   -5.1784    0.0000 H   0  0  0  0  0  0  0  0  0  0  0  0
   12.6954    3.2121    0.0000 H   0  0  0  0  0  0  0  0  0  0  0  0
   12.1168    5.9578    0.0000 H   0  0  0  0  0  0  0  0  0  0  0  0
    1.4631   -3.5584    0.0000 H   0  0  0  0  0  0  0  0  0  0  0  0
    2.8660   -5.9884    0.0000 H   0  0  0  0  0  0  0  0  0  0  0  0
    1.4631   -5.1784    0.0000 H   0  0  0  0  0  0  0  0  0  0  0  0
  1 33  1  0  0  0  0
  2  8  1  0  0  0  0
  2  9  1  0  0  0  0
  2 17  1  0  0  0  0
  3 12  1  0  0  0  0
  3 13  1  0  0  0  0
  3 14  1  0  0  0  0
  4 10  1  0  0  0  0
  4 11  1  0  0  0  0
  4 20  1  0  0  0  0
  5 15  1  0  0  0  0
  5 16  1  0  0  0  0
  5 21  1  0  0  0  0
  6  7  1  0  0  0  0
  6 17  1  0  0  0  0
  6 19  1  0  0  0  0
  7 23  2  0  0  0  0
  8 10  1  0  0  0  0
  8 37  1  0  0  0  0
  8 38  1  0  0  0  0
  9 11  1  0  0  0  0
  9 39  1  0  0  0  0
  9 40  1  0  0  0  0
 10 41  1  0  0  0  0
 10 42  1  0  0  0  0
 11 43  1  0  0  0  0
 11 44  1  0  0  0  0
 12 15  1  0  0  0  0
 12 45  1  0  0  0  0
 12 46  1  0  0  0  0
 13 16  1  0  0  0  0
 13 47  1  0  0  0  0
 13 48  1  0  0  0  0
 14 18  1  0  0  0  0
 14 49  1  0  0  0  0
 14 50  1  0  0  0  0
 15 51  1  0  0  0  0
 15 52  1  0  0  0  0
 16 53  1  0  0  0  0
 16 54  1  0  0  0  0
 17 22  2  0  0  0  0
 18 19  2  0  0  0  0
 18 23  1  0  0  0  0
 19 24  1  0  0  0  0
 20 25  1  0  0  0  0
 20 55  1  0  0  0  0
 20 56  1  0  0  0  0
 21 27  2  0  0  0  0
 21 28  1  0  0  0  0
 22 26  1  0  0  0  0
 22 57  1  0  0  0  0
 23 58  1  0  0  0  0
 24 26  2  0  0  0  0
 24 59  1  0  0  0  0
 25 29  2  0  0  0  0
 25 30  1  0  0  0  0
 26 60  1  0  0  0  0
 27 31  1  0  0  0  0
 27 61  1  0  0  0  0
 28 32  2  0  0  0  0
 28 62  1  0  0  0  0
 29 34  1  0  0  0  0
 29 63  1  0  0  0  0
 30 35  2  0  0  0  0
 30 64  1  0  0  0  0
 31 33  2  0  0  0  0
 31 65  1  0  0  0  0
 32 33  1  0  0  0  0
 32 66  1  0  0  0  0
 34 36  2  0  0  0  0
 34 67  1  0  0  0  0
 35 36  1  0  0  0  0
 35 68  1  0  0  0  0
 36 69  1  0  0  0  0
M  END
> <PUBCHEM_COMPOUND_CID>
44371996

> <PUBCHEM_COMPOUND_CANONICALIZED>
1

> <PUBCHEM_CACTVS_COMPLEXITY>
665

> <PUBCHEM_CACTVS_HBOND_ACCEPTOR>
5

> <PUBCHEM_CACTVS_HBOND_DONOR>
0

> <PUBCHEM_CACTVS_ROTATABLE_BOND>
6

> <PUBCHEM_CACTVS_SUBSKEYS>
AAADcfB7gAAEAAAAAAAAAAAAAAAAAWAAAAA8eLECAAAAAFgB9AAAHAIIAAAADArBHiQ98LMIEACiAzZnZACShCshhyAdmCA4ZpiIYOLB29GUpAhoiALIyCcQgEAOAABAAAAAAAAAAIAAAAAAAAAAAAAAAA==

> <PUBCHEM_IUPAC_OPENEYE_NAME>
7-(4-benzylpiperazin-1-yl)-3-[[4-(4-chlorophenyl)piperazin-1-yl]methyl]pyrazolo[1,5-a]pyridine

> <PUBCHEM_IUPAC_CAS_NAME>
3-[[4-(4-chlorophenyl)-1-piperazinyl]methyl]-7-[4-(phenylmethyl)-1-piperazinyl]pyrazolo[1,5-a]pyridine

> <PUBCHEM_IUPAC_NAME_MARKUP>
7-(4-benzylpiperazin-1-yl)-3-[[4-(4-chlorophenyl)piperazin-1-yl]methyl]pyrazolo[1,5-a]pyridine

> <PUBCHEM_IUPAC_NAME>
7-(4-benzylpiperazin-1-yl)-3-[[4-(4-chlorophenyl)piperazin-1-yl]methyl]pyrazolo[1,5-a]pyridine

> <PUBCHEM_IUPAC_SYSTEMATIC_NAME>
3-[[4-(4-chlorophenyl)piperazin-1-yl]methyl]-7-[4-(phenylmethyl)piperazin-1-yl]pyrazolo[1,5-a]pyridine

> <PUBCHEM_IUPAC_TRADITIONAL_NAME>
7-(4-benzylpiperazino)-3-[[4-(4-chlorophenyl)piperazino]methyl]pyrazolo[1,5-a]pyridine

> <PUBCHEM_IUPAC_INCHI>
InChI=1S/C29H33ClN6/c30-26-9-11-27(12-10-26)34-17-13-33(14-18-34)23-25-21-31-36-28(25)7-4-8-29(36)35-19-15-32(16-20-35)22-24-5-2-1-3-6-24/h1-12,21H,13-20,22-23H2

> <PUBCHEM_IUPAC_INCHIKEY>
GYWHDZIJHYATFG-UHFFFAOYSA-N

> <PUBCHEM_XLOGP3_AA>
4.9

> <PUBCHEM_EXACT_MASS>
500.2455228

> <PUBCHEM_MOLECULAR_FORMULA>
C29H33ClN6

> <PUBCHEM_MOLECULAR_WEIGHT>
501.1

> <PUBCHEM_OPENEYE_CAN_SMILES>
C1CN(CCN1CC2=C3C=CC=C(N3N=C2)N4CCN(CC4)CC5=CC=CC=C5)C6=CC=C(C=C6)Cl

> <PUBCHEM_OPENEYE_ISO_SMILES>
C1CN(CCN1CC2=C3C=CC=C(N3N=C2)N4CCN(CC4)CC5=CC=CC=C5)C6=CC=C(C=C6)Cl

> <PUBCHEM_CACTVS_TPSA>
30.3

> <PUBCHEM_MONOISOTOPIC_WEIGHT>
500.2455228

> <PUBCHEM_TOTAL_CHARGE>
0

> <PUBCHEM_HEAVY_ATOM_COUNT>
36

> <PUBCHEM_ATOM_DEF_STEREO_COUNT>
0

> <PUBCHEM_ATOM_UDEF_STEREO_COUNT>
0

> <PUBCHEM_BOND_DEF_STEREO_COUNT>
0

> <PUBCHEM_BOND_UDEF_STEREO_COUNT>
0

> <PUBCHEM_ISOTOPIC_ATOM_COUNT>
0

> <PUBCHEM_COMPONENT_COUNT>
1

> <PUBCHEM_CACTVS_TAUTO_COUNT>
-1

> <PUBCHEM_COORDINATE_TYPE>
1
5
255

> <PUBCHEM_BONDANNOTATIONS>
17  22  8
18  19  8
18  23  8
19  24  8
21  27  8
21  28  8
22  26  8
24  26  8
25  29  8
25  30  8
27  31  8
28  32  8
29  34  8
30  35  8
31  33  8
32  33  8
34  36  8
35  36  8
6  17  8
6  19  8
6  7  8
7  23  8

$$$$
