10404663
  -OEChem-09292322262D

 51 52  0     1  0  0  0  0  0999 V2000
    7.1962   -5.4055    0.0000 F   0  0  0  0  0  0  0  0  0  0  0  0
    3.7320    0.5945    0.0000 O   0  0  0  0  0  0  0  0  0  0  0  0
    2.8660   -0.9055    0.0000 O   0  0  0  0  0  0  0  0  0  0  0  0
    6.4347    3.0891    0.0000 N   0  0  3  0  0  0  0  0  0  0  0  0
    5.4641    0.5945    0.0000 N   0  0  0  0  0  0  0  0  0  0  0  0
    6.3301    2.0945    0.0000 C   0  0  1  0  0  0  0  0  0  0  0  0
    7.2437    1.6878    0.0000 C   0  0  0  0  0  0  0  0  0  0  0  0
    7.9128    2.4309    0.0000 C   0  0  0  0  0  0  0  0  0  0  0  0
    7.4128    3.2970    0.0000 C   0  0  0  0  0  0  0  0  0  0  0  0
    5.4641    1.5945    0.0000 C   0  0  0  0  0  0  0  0  0  0  0  0
    5.6915    3.7582    0.0000 C   0  0  0  0  0  0  0  0  0  0  0  0
    5.8994    4.7363    0.0000 C   0  0  0  0  0  0  0  0  0  0  0  0
    4.5981    0.0945    0.0000 C   0  0  0  0  0  0  0  0  0  0  0  0
    4.5981   -0.9055    0.0000 C   0  0  0  0  0  0  0  0  0  0  0  0
    5.1563    5.4055    0.0000 C   0  0  0  0  0  0  0  0  0  0  0  0
    5.4641   -1.4055    0.0000 C   0  0  0  0  0  0  0  0  0  0  0  0
    5.4641   -2.4055    0.0000 C   0  0  0  0  0  0  0  0  0  0  0  0
    3.7320   -1.4055    0.0000 C   0  0  0  0  0  0  0  0  0  0  0  0
    6.3301   -2.9055    0.0000 C   0  0  0  0  0  0  0  0  0  0  0  0
    4.5981   -2.9055    0.0000 C   0  0  0  0  0  0  0  0  0  0  0  0
    3.7320   -2.4055    0.0000 C   0  0  0  0  0  0  0  0  0  0  0  0
    6.3301   -3.9055    0.0000 C   0  0  0  0  0  0  0  0  0  0  0  0
    7.1962   -4.4055    0.0000 C   0  0  0  0  0  0  0  0  0  0  0  0
    2.0000   -1.4055    0.0000 C   0  0  0  0  0  0  0  0  0  0  0  0
    5.8102    2.4322    0.0000 H   0  0  0  0  0  0  0  0  0  0  0  0
    6.9337    1.1509    0.0000 H   0  0  0  0  0  0  0  0  0  0  0  0
    7.7453    1.3234    0.0000 H   0  0  0  0  0  0  0  0  0  0  0  0
    8.3277    1.9702    0.0000 H   0  0  0  0  0  0  0  0  0  0  0  0
    8.4144    2.7954    0.0000 H   0  0  0  0  0  0  0  0  0  0  0  0
    7.9792    3.5491    0.0000 H   0  0  0  0  0  0  0  0  0  0  0  0
    7.2212    3.8866    0.0000 H   0  0  0  0  0  0  0  0  0  0  0  0
    5.2520    2.1771    0.0000 H   0  0  0  0  0  0  0  0  0  0  0  0
    4.8535    1.4869    0.0000 H   0  0  0  0  0  0  0  0  0  0  0  0
    5.1167    3.9904    0.0000 H   0  0  0  0  0  0  0  0  0  0  0  0
    5.3630    3.2324    0.0000 H   0  0  0  0  0  0  0  0  0  0  0  0
    6.0010    0.2845    0.0000 H   0  0  0  0  0  0  0  0  0  0  0  0
    6.4891    4.9279    0.0000 H   0  0  0  0  0  0  0  0  0  0  0  0
    5.2852    6.0119    0.0000 H   0  0  0  0  0  0  0  0  0  0  0  0
    4.5666    5.2139    0.0000 H   0  0  0  0  0  0  0  0  0  0  0  0
    6.0010   -1.0955    0.0000 H   0  0  0  0  0  0  0  0  0  0  0  0
    6.9407   -3.0131    0.0000 H   0  0  0  0  0  0  0  0  0  0  0  0
    6.5422   -2.3229    0.0000 H   0  0  0  0  0  0  0  0  0  0  0  0
    4.5981   -3.5255    0.0000 H   0  0  0  0  0  0  0  0  0  0  0  0
    3.1951   -2.7155    0.0000 H   0  0  0  0  0  0  0  0  0  0  0  0
    5.7196   -3.7978    0.0000 H   0  0  0  0  0  0  0  0  0  0  0  0
    6.1181   -4.4881    0.0000 H   0  0  0  0  0  0  0  0  0  0  0  0
    7.8067   -4.5131    0.0000 H   0  0  0  0  0  0  0  0  0  0  0  0
    7.4082   -3.8229    0.0000 H   0  0  0  0  0  0  0  0  0  0  0  0
    1.6900   -0.8685    0.0000 H   0  0  0  0  0  0  0  0  0  0  0  0
    1.4631   -1.7155    0.0000 H   0  0  0  0  0  0  0  0  0  0  0  0
    2.3100   -1.9424    0.0000 H   0  0  0  0  0  0  0  0  0  0  0  0
  1 23  1  0  0  0  0
  2 13  2  0  0  0  0
  3 18  1  0  0  0  0
  3 24  1  0  0  0  0
  4  6  1  0  0  0  0
  4  9  1  0  0  0  0
  4 11  1  0  0  0  0
  5 10  1  0  0  0  0
  5 13  1  0  0  0  0
  5 36  1  0  0  0  0
  6  7  1  0  0  0  0
  6 10  1  1  0  0  0
  6 25  1  0  0  0  0
  7  8  1  0  0  0  0
  7 26  1  0  0  0  0
  7 27  1  0  0  0  0
  8  9  1  0  0  0  0
  8 28  1  0  0  0  0
  8 29  1  0  0  0  0
  9 30  1  0  0  0  0
  9 31  1  0  0  0  0
 10 32  1  0  0  0  0
 10 33  1  0  0  0  0
 11 12  1  0  0  0  0
 11 34  1  0  0  0  0
 11 35  1  0  0  0  0
 12 15  2  0  0  0  0
 12 37  1  0  0  0  0
 13 14  1  0  0  0  0
 14 16  1  0  0  0  0
 14 18  2  0  0  0  0
 15 38  1  0  0  0  0
 15 39  1  0  0  0  0
 16 17  2  0  0  0  0
 16 40  1  0  0  0  0
 17 19  1  0  0  0  0
 17 20  1  0  0  0  0
 18 21  1  0  0  0  0
 19 22  1  0  0  0  0
 19 41  1  0  0  0  0
 19 42  1  0  0  0  0
 20 21  2  0  0  0  0
 20 43  1  0  0  0  0
 21 44  1  0  0  0  0
 22 23  1  0  0  0  0
 22 45  1  0  0  0  0
 22 46  1  0  0  0  0
 23 47  1  0  0  0  0
 23 48  1  0  0  0  0
 24 49  1  0  0  0  0
 24 50  1  0  0  0  0
 24 51  1  0  0  0  0
M  END
> <PUBCHEM_COMPOUND_CID>
10404663

> <PUBCHEM_COMPOUND_CANONICALIZED>
1

> <PUBCHEM_CACTVS_COMPLEXITY>
405

> <PUBCHEM_CACTVS_HBOND_ACCEPTOR>
4

> <PUBCHEM_CACTVS_HBOND_DONOR>
1

> <PUBCHEM_CACTVS_ROTATABLE_BOND>
9

> <PUBCHEM_CACTVS_SUBSKEYS>
AAADceB7MQAAAAAAAAAAAAAAAAAAAWAAAAAwAAAAAAAAAAABAAAAHwAQAAAADCzBmAYyBoPABACIAiFSEACCCAAkIAAIiIEODMgMZjaEtRuUMWhm9hGIqYeYyOCOIAACAAAIAABAAAQAABAAAAAAAAAAAA==

> <PUBCHEM_IUPAC_OPENEYE_NAME>
N-[[(2S)-1-allylpyrrolidin-2-yl]methyl]-5-(3-fluoropropyl)-2-methoxy-benzamide

> <PUBCHEM_IUPAC_CAS_NAME>
5-(3-fluoropropyl)-2-methoxy-N-[[(2S)-1-prop-2-enyl-2-pyrrolidinyl]methyl]benzamide

> <PUBCHEM_IUPAC_NAME_MARKUP>
5-(3-fluoropropyl)-2-methoxy-<I>N</I>-[[(2<I>S</I>)-1-prop-2-enylpyrrolidin-2-yl]methyl]benzamide

> <PUBCHEM_IUPAC_NAME>
5-(3-fluoropropyl)-2-methoxy-N-[[(2S)-1-prop-2-enylpyrrolidin-2-yl]methyl]benzamide

> <PUBCHEM_IUPAC_SYSTEMATIC_NAME>
5-(3-fluoranylpropyl)-2-methoxy-N-[[(2S)-1-prop-2-enylpyrrolidin-2-yl]methyl]benzamide

> <PUBCHEM_IUPAC_TRADITIONAL_NAME>
N-[[(2S)-1-allylpyrrolidin-2-yl]methyl]-5-(3-fluoropropyl)-2-methoxy-benzamide

> <PUBCHEM_IUPAC_INCHI>
InChI=1S/C19H27FN2O2/c1-3-11-22-12-5-7-16(22)14-21-19(23)17-13-15(6-4-10-20)8-9-18(17)24-2/h3,8-9,13,16H,1,4-7,10-12,14H2,2H3,(H,21,23)/t16-/m0/s1

> <PUBCHEM_IUPAC_INCHIKEY>
VPBJNBUDASILSQ-INIZCTEOSA-N

> <PUBCHEM_XLOGP3_AA>
3.4

> <PUBCHEM_EXACT_MASS>
334.20565627

> <PUBCHEM_MOLECULAR_FORMULA>
C19H27FN2O2

> <PUBCHEM_MOLECULAR_WEIGHT>
334.4

> <PUBCHEM_OPENEYE_CAN_SMILES>
COC1=C(C=C(C=C1)CCCF)C(=O)NCC2CCCN2CC=C

> <PUBCHEM_OPENEYE_ISO_SMILES>
COC1=C(C=C(C=C1)CCCF)C(=O)NC[C@@H]2CCCN2CC=C

> <PUBCHEM_CACTVS_TPSA>
41.6

> <PUBCHEM_MONOISOTOPIC_WEIGHT>
334.20565627

> <PUBCHEM_TOTAL_CHARGE>
0

> <PUBCHEM_HEAVY_ATOM_COUNT>
24

> <PUBCHEM_ATOM_DEF_STEREO_COUNT>
1

> <PUBCHEM_ATOM_UDEF_STEREO_COUNT>
0

> <PUBCHEM_BOND_DEF_STEREO_COUNT>
0

> <PUBCHEM_BOND_UDEF_STEREO_COUNT>
0

> <PUBCHEM_ISOTOPIC_ATOM_COUNT>
0

> <PUBCHEM_COMPONENT_COUNT>
1

> <PUBCHEM_CACTVS_TAUTO_COUNT>
2

> <PUBCHEM_COORDINATE_TYPE>
1
5
255

> <PUBCHEM_BONDANNOTATIONS>
14  16  8
14  18  8
16  17  8
17  20  8
18  21  8
20  21  8
6  10  5

$$$$
