127027076
  -OEChem-09292322362D

 61 64  0     0  0  0  0  0  0999 V2000
    3.3660    0.3487    0.0000 F   0  0  0  0  0  0  0  0  0  0  0  0
    2.0000   -0.0173    0.0000 F   0  0  0  0  0  0  0  0  0  0  0  0
    2.3660   -1.3834    0.0000 F   0  0  0  0  0  0  0  0  0  0  0  0
   13.2583   -0.5173    0.0000 O   0  0  0  0  0  0  0  0  0  0  0  0
    8.0622    0.4827    0.0000 N   0  0  0  0  0  0  0  0  0  0  0  0
    6.3301   -0.5173    0.0000 N   0  0  0  0  0  0  0  0  0  0  0  0
   12.3923    0.9827    0.0000 N   0  0  0  0  0  0  0  0  0  0  0  0
    7.1962    0.9827    0.0000 C   0  0  0  0  0  0  0  0  0  0  0  0
    8.0622   -0.5173    0.0000 C   0  0  0  0  0  0  0  0  0  0  0  0
    6.3301    0.4827    0.0000 C   0  0  0  0  0  0  0  0  0  0  0  0
    7.1962   -1.0173    0.0000 C   0  0  0  0  0  0  0  0  0  0  0  0
    8.9282    0.9827    0.0000 C   0  0  0  0  0  0  0  0  0  0  0  0
    9.7942    0.4827    0.0000 C   0  0  0  0  0  0  0  0  0  0  0  0
    5.4641   -1.0173    0.0000 C   0  0  0  0  0  0  0  0  0  0  0  0
   10.6603    0.9827    0.0000 C   0  0  0  0  0  0  0  0  0  0  0  0
   11.5263    0.4827    0.0000 C   0  0  0  0  0  0  0  0  0  0  0  0
    4.5981   -0.5173    0.0000 C   0  0  0  0  0  0  0  0  0  0  0  0
    5.4641   -2.0173    0.0000 C   0  0  0  0  0  0  0  0  0  0  0  0
    3.7320   -1.0173    0.0000 C   0  0  0  0  0  0  0  0  0  0  0  0
    4.5981   -2.5173    0.0000 C   0  0  0  0  0  0  0  0  0  0  0  0
    3.7320   -2.0173    0.0000 C   0  0  0  0  0  0  0  0  0  0  0  0
    2.8660   -0.5173    0.0000 C   0  0  0  0  0  0  0  0  0  0  0  0
   13.2583    0.4827    0.0000 C   0  0  0  0  0  0  0  0  0  0  0  0
   14.1244    0.9827    0.0000 C   0  0  0  0  0  0  0  0  0  0  0  0
   14.9904    0.4827    0.0000 C   0  0  0  0  0  0  0  0  0  0  0  0
   15.8564    0.9827    0.0000 C   0  0  0  0  0  0  0  0  0  0  0  0
   14.1244    1.9827    0.0000 C   0  0  0  0  0  0  0  0  0  0  0  0
   15.8564    1.9827    0.0000 C   0  0  0  0  0  0  0  0  0  0  0  0
   14.9904    2.4827    0.0000 C   0  0  0  0  0  0  0  0  0  0  0  0
   16.7503    0.4480    0.0000 C   0  0  0  0  0  0  0  0  0  0  0  0
   16.7503    2.5173    0.0000 C   0  0  0  0  0  0  0  0  0  0  0  0
   17.6564    0.9619    0.0000 C   0  0  0  0  0  0  0  0  0  0  0  0
   17.6564    2.0035    0.0000 C   0  0  0  0  0  0  0  0  0  0  0  0
    7.5947    1.4576    0.0000 H   0  0  0  0  0  0  0  0  0  0  0  0
    6.7976    1.4576    0.0000 H   0  0  0  0  0  0  0  0  0  0  0  0
    8.2742   -1.0999    0.0000 H   0  0  0  0  0  0  0  0  0  0  0  0
    8.6728   -0.4097    0.0000 H   0  0  0  0  0  0  0  0  0  0  0  0
    6.1181    1.0653    0.0000 H   0  0  0  0  0  0  0  0  0  0  0  0
    5.7196    0.3750    0.0000 H   0  0  0  0  0  0  0  0  0  0  0  0
    6.7976   -1.4923    0.0000 H   0  0  0  0  0  0  0  0  0  0  0  0
    7.5947   -1.4923    0.0000 H   0  0  0  0  0  0  0  0  0  0  0  0
    9.3267    1.4576    0.0000 H   0  0  0  0  0  0  0  0  0  0  0  0
    8.5297    1.4576    0.0000 H   0  0  0  0  0  0  0  0  0  0  0  0
    9.3957    0.0077    0.0000 H   0  0  0  0  0  0  0  0  0  0  0  0
   10.1928    0.0077    0.0000 H   0  0  0  0  0  0  0  0  0  0  0  0
   11.0588    1.4576    0.0000 H   0  0  0  0  0  0  0  0  0  0  0  0
   10.2617    1.4576    0.0000 H   0  0  0  0  0  0  0  0  0  0  0  0
   11.1278    0.0077    0.0000 H   0  0  0  0  0  0  0  0  0  0  0  0
   11.9248    0.0077    0.0000 H   0  0  0  0  0  0  0  0  0  0  0  0
    4.5981    0.1027    0.0000 H   0  0  0  0  0  0  0  0  0  0  0  0
    6.0010   -2.3273    0.0000 H   0  0  0  0  0  0  0  0  0  0  0  0
    4.5981   -3.1373    0.0000 H   0  0  0  0  0  0  0  0  0  0  0  0
   12.3923    1.6027    0.0000 H   0  0  0  0  0  0  0  0  0  0  0  0
    3.1951   -2.3273    0.0000 H   0  0  0  0  0  0  0  0  0  0  0  0
   14.9904   -0.1373    0.0000 H   0  0  0  0  0  0  0  0  0  0  0  0
   13.5874    2.2927    0.0000 H   0  0  0  0  0  0  0  0  0  0  0  0
   14.9904    3.1027    0.0000 H   0  0  0  0  0  0  0  0  0  0  0  0
   16.7432   -0.1720    0.0000 H   0  0  0  0  0  0  0  0  0  0  0  0
   16.7432    3.1373    0.0000 H   0  0  0  0  0  0  0  0  0  0  0  0
   18.1922    0.6498    0.0000 H   0  0  0  0  0  0  0  0  0  0  0  0
   18.1922    2.3156    0.0000 H   0  0  0  0  0  0  0  0  0  0  0  0
  1 22  1  0  0  0  0
  2 22  1  0  0  0  0
  3 22  1  0  0  0  0
  4 23  2  0  0  0  0
  5  8  1  0  0  0  0
  5  9  1  0  0  0  0
  5 12  1  0  0  0  0
  6 10  1  0  0  0  0
  6 11  1  0  0  0  0
  6 14  1  0  0  0  0
  7 16  1  0  0  0  0
  7 23  1  0  0  0  0
  7 53  1  0  0  0  0
  8 10  1  0  0  0  0
  8 34  1  0  0  0  0
  8 35  1  0  0  0  0
  9 11  1  0  0  0  0
  9 36  1  0  0  0  0
  9 37  1  0  0  0  0
 10 38  1  0  0  0  0
 10 39  1  0  0  0  0
 11 40  1  0  0  0  0
 11 41  1  0  0  0  0
 12 13  1  0  0  0  0
 12 42  1  0  0  0  0
 12 43  1  0  0  0  0
 13 15  1  0  0  0  0
 13 44  1  0  0  0  0
 13 45  1  0  0  0  0
 14 17  1  0  0  0  0
 14 18  2  0  0  0  0
 15 16  1  0  0  0  0
 15 46  1  0  0  0  0
 15 47  1  0  0  0  0
 16 48  1  0  0  0  0
 16 49  1  0  0  0  0
 17 19  2  0  0  0  0
 17 50  1  0  0  0  0
 18 20  1  0  0  0  0
 18 51  1  0  0  0  0
 19 21  1  0  0  0  0
 19 22  1  0  0  0  0
 20 21  2  0  0  0  0
 20 52  1  0  0  0  0
 21 54  1  0  0  0  0
 23 24  1  0  0  0  0
 24 25  2  0  0  0  0
 24 27  1  0  0  0  0
 25 26  1  0  0  0  0
 25 55  1  0  0  0  0
 26 28  1  0  0  0  0
 26 30  2  0  0  0  0
 27 29  2  0  0  0  0
 27 56  1  0  0  0  0
 28 29  1  0  0  0  0
 28 31  2  0  0  0  0
 29 57  1  0  0  0  0
 30 32  1  0  0  0  0
 30 58  1  0  0  0  0
 31 33  1  0  0  0  0
 31 59  1  0  0  0  0
 32 33  2  0  0  0  0
 32 60  1  0  0  0  0
 33 61  1  0  0  0  0
M  END
> <PUBCHEM_COMPOUND_CID>
127027076

> <PUBCHEM_COMPOUND_CANONICALIZED>
1

> <PUBCHEM_CACTVS_COMPLEXITY>
620

> <PUBCHEM_CACTVS_HBOND_ACCEPTOR>
6

> <PUBCHEM_CACTVS_HBOND_DONOR>
1

> <PUBCHEM_CACTVS_ROTATABLE_BOND>
7

> <PUBCHEM_CACTVS_SUBSKEYS>
AAADceB7IYAAAAAAAAAAAAAAAAAAAAAAAAA8YMEAAAAAAADBVAAAHwAQAAAADAjBmBQwwMPAAACIAiVSUACCAAAlAgAIiIEIZMgIYDLAlZGUIQhglgDIyYcYiMCOwAACQAAQAACAAASAACAAAAAAAAAAAA==

> <PUBCHEM_IUPAC_OPENEYE_NAME>
N-[4-[4-[3-(trifluoromethyl)phenyl]piperazin-1-yl]butyl]naphthalene-2-carboxamide

> <PUBCHEM_IUPAC_CAS_NAME>
N-[4-[4-[3-(trifluoromethyl)phenyl]-1-piperazinyl]butyl]-2-naphthalenecarboxamide

> <PUBCHEM_IUPAC_NAME_MARKUP>
<I>N</I>-[4-[4-[3-(trifluoromethyl)phenyl]piperazin-1-yl]butyl]naphthalene-2-carboxamide

> <PUBCHEM_IUPAC_NAME>
N-[4-[4-[3-(trifluoromethyl)phenyl]piperazin-1-yl]butyl]naphthalene-2-carboxamide

> <PUBCHEM_IUPAC_SYSTEMATIC_NAME>
N-[4-[4-[3-(trifluoromethyl)phenyl]piperazin-1-yl]butyl]naphthalene-2-carboxamide

> <PUBCHEM_IUPAC_TRADITIONAL_NAME>
N-[4-[4-[3-(trifluoromethyl)phenyl]piperazino]butyl]-2-naphthamide

> <PUBCHEM_IUPAC_INCHI>
InChI=1S/C26H28F3N3O/c27-26(28,29)23-8-5-9-24(19-23)32-16-14-31(15-17-32)13-4-3-12-30-25(33)22-11-10-20-6-1-2-7-21(20)18-22/h1-2,5-11,18-19H,3-4,12-17H2,(H,30,33)

> <PUBCHEM_IUPAC_INCHIKEY>
HEJDIFZOESZDQS-UHFFFAOYSA-N

> <PUBCHEM_XLOGP3_AA>
5.7

> <PUBCHEM_EXACT_MASS>
455.21844701

> <PUBCHEM_MOLECULAR_FORMULA>
C26H28F3N3O

> <PUBCHEM_MOLECULAR_WEIGHT>
455.5

> <PUBCHEM_OPENEYE_CAN_SMILES>
C1CN(CCN1CCCCNC(=O)C2=CC3=CC=CC=C3C=C2)C4=CC=CC(=C4)C(F)(F)F

> <PUBCHEM_OPENEYE_ISO_SMILES>
C1CN(CCN1CCCCNC(=O)C2=CC3=CC=CC=C3C=C2)C4=CC=CC(=C4)C(F)(F)F

> <PUBCHEM_CACTVS_TPSA>
35.6

> <PUBCHEM_MONOISOTOPIC_WEIGHT>
455.21844701

> <PUBCHEM_TOTAL_CHARGE>
0

> <PUBCHEM_HEAVY_ATOM_COUNT>
33

> <PUBCHEM_ATOM_DEF_STEREO_COUNT>
0

> <PUBCHEM_ATOM_UDEF_STEREO_COUNT>
0

> <PUBCHEM_BOND_DEF_STEREO_COUNT>
0

> <PUBCHEM_BOND_UDEF_STEREO_COUNT>
0

> <PUBCHEM_ISOTOPIC_ATOM_COUNT>
0

> <PUBCHEM_COMPONENT_COUNT>
1

> <PUBCHEM_CACTVS_TAUTO_COUNT>
-1

> <PUBCHEM_COORDINATE_TYPE>
1
5
255

> <PUBCHEM_BONDANNOTATIONS>
14  17  8
14  18  8
17  19  8
18  20  8
19  21  8
20  21  8
24  25  8
24  27  8
25  26  8
26  28  8
26  30  8
27  29  8
28  29  8
28  31  8
30  32  8
31  33  8
32  33  8

$$$$
