155558255
  -OEChem-09292322092D

 32 35  0     0  0  0  0  0  0999 V2000
    6.9779    1.2086    0.0000 S   0  0  0  0  0  0  0  0  0  0  0  0
    4.3555   -0.9292    0.0000 N   0  0  0  0  0  0  0  0  0  0  0  0
    3.9506    0.7940    0.0000 N   0  0  0  0  0  0  0  0  0  0  0  0
    5.2930    1.9934    0.0000 N   0  0  0  0  0  0  0  0  0  0  0  0
    3.3798   -1.1484    0.0000 C   0  0  0  0  0  0  0  0  0  0  0  0
    2.5349   -0.6135    0.0000 C   0  0  0  0  0  0  0  0  0  0  0  0
    2.8449   -1.9934    0.0000 C   0  0  0  0  0  0  0  0  0  0  0  0
    2.0000   -1.4585    0.0000 C   0  0  0  0  0  0  0  0  0  0  0  0
    6.4779   -0.3302    0.0000 C   0  0  0  0  0  0  0  0  0  0  0  0
    6.7876   -1.2748    0.0000 C   0  0  0  0  0  0  0  0  0  0  0  0
    5.6689    0.2576    0.0000 C   0  0  0  0  0  0  0  0  0  0  0  0
    7.7816   -1.2740    0.0000 C   0  0  0  0  0  0  0  0  0  0  0  0
    7.2869    0.2576    0.0000 C   0  0  0  0  0  0  0  0  0  0  0  0
    8.0896   -0.3288    0.0000 C   0  0  0  0  0  0  0  0  0  0  0  0
    4.6535    0.0253    0.0000 C   0  0  0  0  0  0  0  0  0  0  0  0
    5.9779    1.2086    0.0000 C   0  0  0  0  0  0  0  0  0  0  0  0
    4.2724    1.7847    0.0000 C   0  0  0  0  0  0  0  0  0  0  0  0
    3.7369   -1.6553    0.0000 H   0  0  0  0  0  0  0  0  0  0  0  0
    2.8666   -0.0897    0.0000 H   0  0  0  0  0  0  0  0  0  0  0  0
    2.0111   -0.2819    0.0000 H   0  0  0  0  0  0  0  0  0  0  0  0
    2.5133   -2.5172    0.0000 H   0  0  0  0  0  0  0  0  0  0  0  0
    3.3688   -2.3250    0.0000 H   0  0  0  0  0  0  0  0  0  0  0  0
    1.4762   -1.1268    0.0000 H   0  0  0  0  0  0  0  0  0  0  0  0
    1.6684   -1.9823    0.0000 H   0  0  0  0  0  0  0  0  0  0  0  0
    4.7757   -1.3852    0.0000 H   0  0  0  0  0  0  0  0  0  0  0  0
    6.1814   -1.4050    0.0000 H   0  0  0  0  0  0  0  0  0  0  0  0
    6.8533   -1.8914    0.0000 H   0  0  0  0  0  0  0  0  0  0  0  0
    7.7170   -1.8906    0.0000 H   0  0  0  0  0  0  0  0  0  0  0  0
    8.3880   -1.4031    0.0000 H   0  0  0  0  0  0  0  0  0  0  0  0
    8.6557   -0.5818    0.0000 H   0  0  0  0  0  0  0  0  0  0  0  0
    8.4007    0.2075    0.0000 H   0  0  0  0  0  0  0  0  0  0  0  0
    3.8594    2.2470    0.0000 H   0  0  0  0  0  0  0  0  0  0  0  0
  1 13  1  0  0  0  0
  1 16  1  0  0  0  0
  2  5  1  0  0  0  0
  2 15  1  0  0  0  0
  2 25  1  0  0  0  0
  3 15  1  0  0  0  0
  3 17  2  0  0  0  0
  4 16  2  0  0  0  0
  4 17  1  0  0  0  0
  5  6  1  0  0  0  0
  5  7  1  0  0  0  0
  5 18  1  0  0  0  0
  6  8  1  0  0  0  0
  6 19  1  0  0  0  0
  6 20  1  0  0  0  0
  7  8  1  0  0  0  0
  7 21  1  0  0  0  0
  7 22  1  0  0  0  0
  8 23  1  0  0  0  0
  8 24  1  0  0  0  0
  9 10  1  0  0  0  0
  9 11  1  0  0  0  0
  9 13  2  0  0  0  0
 10 12  1  0  0  0  0
 10 26  1  0  0  0  0
 10 27  1  0  0  0  0
 11 15  2  0  0  0  0
 11 16  1  0  0  0  0
 12 14  1  0  0  0  0
 12 28  1  0  0  0  0
 12 29  1  0  0  0  0
 13 14  1  0  0  0  0
 14 30  1  0  0  0  0
 14 31  1  0  0  0  0
 17 32  1  0  0  0  0
M  END
> <PUBCHEM_COMPOUND_CID>
155558255

> <PUBCHEM_COMPOUND_CANONICALIZED>
1

> <PUBCHEM_CACTVS_COMPLEXITY>
294

> <PUBCHEM_CACTVS_HBOND_ACCEPTOR>
4

> <PUBCHEM_CACTVS_HBOND_DONOR>
1

> <PUBCHEM_CACTVS_ROTATABLE_BOND>
2

> <PUBCHEM_CACTVS_SUBSKEYS>
AAADccBzAABAAAAAAAAAAAAAAABgAaIAAAAsAAAAAAASAFgB+AAAHAQQAAAADCjBWgQFsdbIEAikAgJhZACD0KlxCLgB2LAoRJiIKCLg2NGEBAxokALoyCcQgEAOgAAAAAAAAAAAAAAAAAAAAAAAAgAAAA==

> <PUBCHEM_IUPAC_OPENEYE_NAME>
N-cyclobutyl-7-thia-9,11-diazatricyclo[6.4.0.02,6]dodeca-1(12),2(6),8,10-tetraen-12-amine

> <PUBCHEM_IUPAC_CAS_NAME>
N-cyclobutyl-7-thia-9,11-diazatricyclo[6.4.0.02,6]dodeca-1(12),2(6),8,10-tetraen-12-amine

> <PUBCHEM_IUPAC_NAME_MARKUP>
<I>N</I>-cyclobutyl-7-thia-9,11-diazatricyclo[6.4.0.0<SUP>2,6</SUP>]dodeca-1(12),2(6),8,10-tetraen-12-amine

> <PUBCHEM_IUPAC_NAME>
N-cyclobutyl-7-thia-9,11-diazatricyclo[6.4.0.02,6]dodeca-1(12),2(6),8,10-tetraen-12-amine

> <PUBCHEM_IUPAC_SYSTEMATIC_NAME>
N-cyclobutyl-7-thia-9,11-diazatricyclo[6.4.0.02,6]dodeca-1(12),2(6),8,10-tetraen-12-amine

> <PUBCHEM_IUPAC_TRADITIONAL_NAME>
cyclobutyl(7-thia-9,11-diazatricyclo[6.4.0.02,6]dodeca-1(12),2(6),8,10-tetraen-12-yl)amine

> <PUBCHEM_IUPAC_INCHI>
InChI=1S/C13H15N3S/c1-3-8(4-1)16-12-11-9-5-2-6-10(9)17-13(11)15-7-14-12/h7-8H,1-6H2,(H,14,15,16)

> <PUBCHEM_IUPAC_INCHIKEY>
AGXAEYQLFSJZIM-UHFFFAOYSA-N

> <PUBCHEM_XLOGP3_AA>
3.5

> <PUBCHEM_EXACT_MASS>
245.09866866

> <PUBCHEM_MOLECULAR_FORMULA>
C13H15N3S

> <PUBCHEM_MOLECULAR_WEIGHT>
245.35

> <PUBCHEM_OPENEYE_CAN_SMILES>
C1CC(C1)NC2=C3C4=C(CCC4)SC3=NC=N2

> <PUBCHEM_OPENEYE_ISO_SMILES>
C1CC(C1)NC2=C3C4=C(CCC4)SC3=NC=N2

> <PUBCHEM_CACTVS_TPSA>
66

> <PUBCHEM_MONOISOTOPIC_WEIGHT>
245.09866866

> <PUBCHEM_TOTAL_CHARGE>
0

> <PUBCHEM_HEAVY_ATOM_COUNT>
17

> <PUBCHEM_ATOM_DEF_STEREO_COUNT>
0

> <PUBCHEM_ATOM_UDEF_STEREO_COUNT>
0

> <PUBCHEM_BOND_DEF_STEREO_COUNT>
0

> <PUBCHEM_BOND_UDEF_STEREO_COUNT>
0

> <PUBCHEM_ISOTOPIC_ATOM_COUNT>
0

> <PUBCHEM_COMPONENT_COUNT>
1

> <PUBCHEM_CACTVS_TAUTO_COUNT>
-1

> <PUBCHEM_COORDINATE_TYPE>
1
5
255

> <PUBCHEM_BONDANNOTATIONS>
1  13  8
1  16  8
11  15  8
11  16  8
3  15  8
3  17  8
4  16  8
4  17  8
9  11  8
9  13  8

$$$$
