44336075
  -OEChem-09292322162D

 58 61  0     1  0  0  0  0  0999 V2000
    4.3211    0.7699    0.0000 O   0  0  0  0  0  0  0  0  0  0  0  0
   11.1241   -3.3190    0.0000 O   0  0  0  0  0  0  0  0  0  0  0  0
    6.8994   -1.5436    0.0000 N   0  0  0  0  0  0  0  0  0  0  0  0
    4.6783    2.4647    0.0000 N   0  0  0  0  0  0  0  0  0  0  0  0
    6.2781    0.3575    0.0000 C   0  0  0  0  0  0  0  0  0  0  0  0
    7.2566    0.1513    0.0000 C   0  0  0  0  0  0  0  0  0  0  0  0
    5.6103   -0.3868    0.0000 C   0  0  0  0  0  0  0  0  0  0  0  0
    7.5673   -0.7993    0.0000 C   0  0  0  0  0  0  0  0  0  0  0  0
    5.9209   -1.3373    0.0000 C   0  0  0  0  0  0  0  0  0  0  0  0
    5.9674    1.3080    0.0000 C   0  0  0  0  0  0  0  0  0  0  0  0
    5.2619    3.2695    0.0000 C   0  0  3  0  0  0  0  0  0  0  0  0
    4.9889    1.5142    0.0000 C   0  0  0  0  0  0  0  0  0  0  0  0
    4.6783    4.0742    0.0000 C   0  0  0  0  0  0  0  0  0  0  0  0
    7.2101   -2.4941    0.0000 C   0  0  0  0  0  0  0  0  0  0  0  0
    3.7320    2.7695    0.0000 C   0  0  0  0  0  0  0  0  0  0  0  0
    3.7320    3.7695    0.0000 C   0  0  0  0  0  0  0  0  0  0  0  0
    6.2619    3.2695    0.0000 C   0  0  0  0  0  0  0  0  0  0  0  0
    8.1886   -2.7003    0.0000 C   0  0  0  0  0  0  0  0  0  0  0  0
    2.8660    2.2695    0.0000 C   0  0  0  0  0  0  0  0  0  0  0  0
    2.8660    4.2695    0.0000 C   0  0  0  0  0  0  0  0  0  0  0  0
    2.0000    2.7695    0.0000 C   0  0  0  0  0  0  0  0  0  0  0  0
    2.0000    3.7695    0.0000 C   0  0  0  0  0  0  0  0  0  0  0  0
    8.8564   -1.9560    0.0000 C   0  0  0  0  0  0  0  0  0  0  0  0
    8.4993   -3.6508    0.0000 C   0  0  0  0  0  0  0  0  0  0  0  0
    9.8349   -2.1622    0.0000 C   0  0  0  0  0  0  0  0  0  0  0  0
    9.4778   -3.8570    0.0000 C   0  0  0  0  0  0  0  0  0  0  0  0
   10.1456   -3.1127    0.0000 C   0  0  0  0  0  0  0  0  0  0  0  0
   11.4348   -4.2695    0.0000 C   0  0  0  0  0  0  0  0  0  0  0  0
    5.6714    0.4853    0.0000 H   0  0  0  0  0  0  0  0  0  0  0  0
    7.8704    0.2386    0.0000 H   0  0  0  0  0  0  0  0  0  0  0  0
    7.2772    0.7709    0.0000 H   0  0  0  0  0  0  0  0  0  0  0  0
    5.2277    0.1011    0.0000 H   0  0  0  0  0  0  0  0  0  0  0  0
    5.0633   -0.6788    0.0000 H   0  0  0  0  0  0  0  0  0  0  0  0
    7.9498   -1.2872    0.0000 H   0  0  0  0  0  0  0  0  0  0  0  0
    8.1142   -0.5072    0.0000 H   0  0  0  0  0  0  0  0  0  0  0  0
    5.3071   -1.4247    0.0000 H   0  0  0  0  0  0  0  0  0  0  0  0
    5.9004   -1.9570    0.0000 H   0  0  0  0  0  0  0  0  0  0  0  0
    6.5812    1.3954    0.0000 H   0  0  0  0  0  0  0  0  0  0  0  0
    5.9880    1.9277    0.0000 H   0  0  0  0  0  0  0  0  0  0  0  0
    5.5436    2.7172    0.0000 H   0  0  0  0  0  0  0  0  0  0  0  0
    5.2156    4.3834    0.0000 H   0  0  0  0  0  0  0  0  0  0  0  0
    4.4272    4.6411    0.0000 H   0  0  0  0  0  0  0  0  0  0  0  0
    6.5963   -2.5814    0.0000 H   0  0  0  0  0  0  0  0  0  0  0  0
    7.1895   -3.1137    0.0000 H   0  0  0  0  0  0  0  0  0  0  0  0
    6.2619    2.6495    0.0000 H   0  0  0  0  0  0  0  0  0  0  0  0
    6.8819    3.2695    0.0000 H   0  0  0  0  0  0  0  0  0  0  0  0
    6.2619    3.8895    0.0000 H   0  0  0  0  0  0  0  0  0  0  0  0
    2.8660    1.6495    0.0000 H   0  0  0  0  0  0  0  0  0  0  0  0
    2.8660    4.8895    0.0000 H   0  0  0  0  0  0  0  0  0  0  0  0
    1.4631    2.4595    0.0000 H   0  0  0  0  0  0  0  0  0  0  0  0
    1.4631    4.0795    0.0000 H   0  0  0  0  0  0  0  0  0  0  0  0
    8.6638   -1.3667    0.0000 H   0  0  0  0  0  0  0  0  0  0  0  0
    8.0852   -4.1123    0.0000 H   0  0  0  0  0  0  0  0  0  0  0  0
   10.2490   -1.7008    0.0000 H   0  0  0  0  0  0  0  0  0  0  0  0
    9.6704   -4.4464    0.0000 H   0  0  0  0  0  0  0  0  0  0  0  0
   10.8455   -4.4621    0.0000 H   0  0  0  0  0  0  0  0  0  0  0  0
   11.6274   -4.8588    0.0000 H   0  0  0  0  0  0  0  0  0  0  0  0
   12.0241   -4.0769    0.0000 H   0  0  0  0  0  0  0  0  0  0  0  0
  1 12  2  0  0  0  0
  2 27  1  0  0  0  0
  2 28  1  0  0  0  0
  3  8  1  0  0  0  0
  3  9  1  0  0  0  0
  3 14  1  0  0  0  0
  4 11  1  0  0  0  0
  4 12  1  0  0  0  0
  4 15  1  0  0  0  0
  5  6  1  0  0  0  0
  5  7  1  0  0  0  0
  5 10  1  0  0  0  0
  5 29  1  0  0  0  0
  6  8  1  0  0  0  0
  6 30  1  0  0  0  0
  6 31  1  0  0  0  0
  7  9  1  0  0  0  0
  7 32  1  0  0  0  0
  7 33  1  0  0  0  0
  8 34  1  0  0  0  0
  8 35  1  0  0  0  0
  9 36  1  0  0  0  0
  9 37  1  0  0  0  0
 10 12  1  0  0  0  0
 10 38  1  0  0  0  0
 10 39  1  0  0  0  0
 11 13  1  0  0  0  0
 11 17  1  0  0  0  0
 11 40  1  0  0  0  0
 13 16  1  0  0  0  0
 13 41  1  0  0  0  0
 13 42  1  0  0  0  0
 14 18  1  0  0  0  0
 14 43  1  0  0  0  0
 14 44  1  0  0  0  0
 15 16  1  0  0  0  0
 15 19  2  0  0  0  0
 16 20  2  0  0  0  0
 17 45  1  0  0  0  0
 17 46  1  0  0  0  0
 17 47  1  0  0  0  0
 18 23  2  0  0  0  0
 18 24  1  0  0  0  0
 19 21  1  0  0  0  0
 19 48  1  0  0  0  0
 20 22  1  0  0  0  0
 20 49  1  0  0  0  0
 21 22  2  0  0  0  0
 21 50  1  0  0  0  0
 22 51  1  0  0  0  0
 23 25  1  0  0  0  0
 23 52  1  0  0  0  0
 24 26  2  0  0  0  0
 24 53  1  0  0  0  0
 25 27  2  0  0  0  0
 25 54  1  0  0  0  0
 26 27  1  0  0  0  0
 26 55  1  0  0  0  0
 28 56  1  0  0  0  0
 28 57  1  0  0  0  0
 28 58  1  0  0  0  0
M  END
> <PUBCHEM_COMPOUND_CID>
44336075

> <PUBCHEM_COMPOUND_CANONICALIZED>
1

> <PUBCHEM_CACTVS_COMPLEXITY>
509

> <PUBCHEM_CACTVS_HBOND_ACCEPTOR>
3

> <PUBCHEM_CACTVS_HBOND_DONOR>
0

> <PUBCHEM_CACTVS_ROTATABLE_BOND>
5

> <PUBCHEM_CACTVS_SUBSKEYS>
AAADceB7MAAAAAAAAAAAAAAAAAAAAWAAAAA8YIAAAAAAAFgBQAAAHgAAAAAADSzBmAYyxoMABACIAiVSUACCCAAhIgAIiAEObIgMJjLEsZuEMChkxhHI6AeY0YIOIAAAAAACAABAAAAAAAQAAAAAAAAAAA==

> <PUBCHEM_IUPAC_OPENEYE_NAME>
2-[1-[(4-methoxyphenyl)methyl]-4-piperidyl]-1-(2-methylindolin-1-yl)ethanone

> <PUBCHEM_IUPAC_CAS_NAME>
2-[1-[(4-methoxyphenyl)methyl]-4-piperidinyl]-1-(2-methyl-2,3-dihydroindol-1-yl)ethanone

> <PUBCHEM_IUPAC_NAME_MARKUP>
2-[1-[(4-methoxyphenyl)methyl]piperidin-4-yl]-1-(2-methyl-2,3-dihydroindol-1-yl)ethanone

> <PUBCHEM_IUPAC_NAME>
2-[1-[(4-methoxyphenyl)methyl]piperidin-4-yl]-1-(2-methyl-2,3-dihydroindol-1-yl)ethanone

> <PUBCHEM_IUPAC_SYSTEMATIC_NAME>
2-[1-[(4-methoxyphenyl)methyl]piperidin-4-yl]-1-(2-methyl-2,3-dihydroindol-1-yl)ethanone

> <PUBCHEM_IUPAC_TRADITIONAL_NAME>
1-(2-methylindolin-1-yl)-2-(1-p-anisyl-4-piperidyl)ethanone

> <PUBCHEM_IUPAC_INCHI>
InChI=1S/C24H30N2O2/c1-18-15-21-5-3-4-6-23(21)26(18)24(27)16-19-11-13-25(14-12-19)17-20-7-9-22(28-2)10-8-20/h3-10,18-19H,11-17H2,1-2H3

> <PUBCHEM_IUPAC_INCHIKEY>
YNUOGMCLPCOTIC-UHFFFAOYSA-N

> <PUBCHEM_XLOGP3_AA>
3.9

> <PUBCHEM_EXACT_MASS>
378.230728204

> <PUBCHEM_MOLECULAR_FORMULA>
C24H30N2O2

> <PUBCHEM_MOLECULAR_WEIGHT>
378.5

> <PUBCHEM_OPENEYE_CAN_SMILES>
CC1CC2=CC=CC=C2N1C(=O)CC3CCN(CC3)CC4=CC=C(C=C4)OC

> <PUBCHEM_OPENEYE_ISO_SMILES>
CC1CC2=CC=CC=C2N1C(=O)CC3CCN(CC3)CC4=CC=C(C=C4)OC

> <PUBCHEM_CACTVS_TPSA>
32.8

> <PUBCHEM_MONOISOTOPIC_WEIGHT>
378.230728204

> <PUBCHEM_TOTAL_CHARGE>
0

> <PUBCHEM_HEAVY_ATOM_COUNT>
28

> <PUBCHEM_ATOM_DEF_STEREO_COUNT>
0

> <PUBCHEM_ATOM_UDEF_STEREO_COUNT>
1

> <PUBCHEM_BOND_DEF_STEREO_COUNT>
0

> <PUBCHEM_BOND_UDEF_STEREO_COUNT>
0

> <PUBCHEM_ISOTOPIC_ATOM_COUNT>
0

> <PUBCHEM_COMPONENT_COUNT>
1

> <PUBCHEM_CACTVS_TAUTO_COUNT>
-1

> <PUBCHEM_COORDINATE_TYPE>
1
5
255

> <PUBCHEM_BONDANNOTATIONS>
11  17  3
15  16  8
15  19  8
16  20  8
18  23  8
18  24  8
19  21  8
20  22  8
21  22  8
23  25  8
24  26  8
25  27  8
26  27  8

$$$$
