118711272
  -OEChem-09292322472D

 43 46  0     1  0  0  0  0  0999 V2000
    3.7702   -2.4988    0.0000 O   0  0  0  0  0  0  0  0  0  0  0  0
    2.0000   -0.4400    0.0000 O   0  0  0  0  0  0  0  0  0  0  0  0
    8.5467   -1.4642    0.0000 N   0  0  3  0  0  0  0  0  0  0  0  0
    3.7702   -0.4295    0.0000 N   0  0  0  0  0  0  0  0  0  0  0  0
    7.1671   -0.3578    0.0000 C   0  0  3  0  0  0  0  0  0  0  0  0
    8.1224   -0.5799    0.0000 C   0  0  0  0  0  0  0  0  0  0  0  0
    6.3961   -0.9642    0.0000 C   0  0  0  0  0  0  0  0  0  0  0  0
    6.3961   -1.9642    0.0000 C   0  0  0  0  0  0  0  0  0  0  0  0
    7.1671   -2.5705    0.0000 C   0  0  0  0  0  0  0  0  0  0  0  0
    8.1224   -2.3484    0.0000 C   0  0  0  0  0  0  0  0  0  0  0  0
    6.9498    0.6183    0.0000 C   0  0  0  0  0  0  0  0  0  0  0  0
    5.5301   -0.4642    0.0000 C   0  0  0  0  0  0  0  0  0  0  0  0
    5.5301   -2.4642    0.0000 C   0  0  0  0  0  0  0  0  0  0  0  0
    4.6641   -0.9642    0.0000 C   0  0  0  0  0  0  0  0  0  0  0  0
    4.6641   -1.9642    0.0000 C   0  0  0  0  0  0  0  0  0  0  0  0
    9.5467   -1.4642    0.0000 C   0  0  0  0  0  0  0  0  0  0  0  0
    5.9958    0.9182    0.0000 C   0  0  0  0  0  0  0  0  0  0  0  0
    7.6865    1.2945    0.0000 C   0  0  0  0  0  0  0  0  0  0  0  0
    2.8641   -1.9850    0.0000 C   0  0  0  0  0  0  0  0  0  0  0  0
    2.8641   -0.9434    0.0000 C   0  0  0  0  0  0  0  0  0  0  0  0
    5.7786    1.8943    0.0000 C   0  0  0  0  0  0  0  0  0  0  0  0
    7.4692    2.2706    0.0000 C   0  0  0  0  0  0  0  0  0  0  0  0
    6.5152    2.5705    0.0000 C   0  0  0  0  0  0  0  0  0  0  0  0
    7.6075    0.0785    0.0000 H   0  0  0  0  0  0  0  0  0  0  0  0
    8.7271   -0.4433    0.0000 H   0  0  0  0  0  0  0  0  0  0  0  0
    8.1243    0.0401    0.0000 H   0  0  0  0  0  0  0  0  0  0  0  0
    6.6846   -2.9599    0.0000 H   0  0  0  0  0  0  0  0  0  0  0  0
    7.4388   -3.1278    0.0000 H   0  0  0  0  0  0  0  0  0  0  0  0
    8.1243   -2.9684    0.0000 H   0  0  0  0  0  0  0  0  0  0  0  0
    8.7271   -2.4850    0.0000 H   0  0  0  0  0  0  0  0  0  0  0  0
    5.5301    0.1558    0.0000 H   0  0  0  0  0  0  0  0  0  0  0  0
    5.5301   -3.0842    0.0000 H   0  0  0  0  0  0  0  0  0  0  0  0
    9.5467   -2.0842    0.0000 H   0  0  0  0  0  0  0  0  0  0  0  0
   10.1667   -1.4642    0.0000 H   0  0  0  0  0  0  0  0  0  0  0  0
    9.5467   -0.8442    0.0000 H   0  0  0  0  0  0  0  0  0  0  0  0
    5.5391    0.4989    0.0000 H   0  0  0  0  0  0  0  0  0  0  0  0
    8.2780    1.1086    0.0000 H   0  0  0  0  0  0  0  0  0  0  0  0
    3.7773    0.1905    0.0000 H   0  0  0  0  0  0  0  0  0  0  0  0
    2.2532   -1.8789    0.0000 H   0  0  0  0  0  0  0  0  0  0  0  0
    2.6550   -2.5687    0.0000 H   0  0  0  0  0  0  0  0  0  0  0  0
    5.1871    2.0802    0.0000 H   0  0  0  0  0  0  0  0  0  0  0  0
    7.9260    2.6899    0.0000 H   0  0  0  0  0  0  0  0  0  0  0  0
    6.3806    3.1757    0.0000 H   0  0  0  0  0  0  0  0  0  0  0  0
  1 15  1  0  0  0  0
  1 19  1  0  0  0  0
  2 20  2  0  0  0  0
  3  6  1  0  0  0  0
  3 10  1  0  0  0  0
  3 16  1  0  0  0  0
  4 14  1  0  0  0  0
  4 20  1  0  0  0  0
  4 38  1  0  0  0  0
  5  6  1  0  0  0  0
  5  7  1  0  0  0  0
  5 11  1  0  0  0  0
  5 24  1  0  0  0  0
  6 25  1  0  0  0  0
  6 26  1  0  0  0  0
  7  8  1  0  0  0  0
  7 12  2  0  0  0  0
  8  9  1  0  0  0  0
  8 13  2  0  0  0  0
  9 10  1  0  0  0  0
  9 27  1  0  0  0  0
  9 28  1  0  0  0  0
 10 29  1  0  0  0  0
 10 30  1  0  0  0  0
 11 17  2  0  0  0  0
 11 18  1  0  0  0  0
 12 14  1  0  0  0  0
 12 31  1  0  0  0  0
 13 15  1  0  0  0  0
 13 32  1  0  0  0  0
 14 15  2  0  0  0  0
 16 33  1  0  0  0  0
 16 34  1  0  0  0  0
 16 35  1  0  0  0  0
 17 21  1  0  0  0  0
 17 36  1  0  0  0  0
 18 22  2  0  0  0  0
 18 37  1  0  0  0  0
 19 20  1  0  0  0  0
 19 39  1  0  0  0  0
 19 40  1  0  0  0  0
 21 23  2  0  0  0  0
 21 41  1  0  0  0  0
 22 23  1  0  0  0  0
 22 42  1  0  0  0  0
 23 43  1  0  0  0  0
M  END
> <PUBCHEM_COMPOUND_CID>
118711272

> <PUBCHEM_COMPOUND_CANONICALIZED>
1

> <PUBCHEM_CACTVS_COMPLEXITY>
435

> <PUBCHEM_CACTVS_HBOND_ACCEPTOR>
3

> <PUBCHEM_CACTVS_HBOND_DONOR>
1

> <PUBCHEM_CACTVS_ROTATABLE_BOND>
1

> <PUBCHEM_CACTVS_SUBSKEYS>
AAADceB7MAAAAAAAAAAAAAAAAAAAAAAAAAA8YIAABYAAAACxQAAAHgAQAAAADQzhmAYyxoPABACIAiVSUAKCCAAhIgAIiABPbIgOJiLEsZ+HOCjk1BHY6AeQ0PIOqAABQAAQEABQAAKAACAgAAAAAAAAAA==

> <PUBCHEM_IUPAC_OPENEYE_NAME>
8-methyl-6-phenyl-6,7,9,10-tetrahydro-4H-[1,4]oxazino[2,3-h][3]benzazepin-3-one

> <PUBCHEM_IUPAC_CAS_NAME>
8-methyl-6-phenyl-6,7,9,10-tetrahydro-4H-[1,4]oxazino[2,3-h][3]benzazepin-3-one

> <PUBCHEM_IUPAC_NAME_MARKUP>
8-methyl-6-phenyl-6,7,9,10-tetrahydro-4<I>H</I>-[1,4]oxazino[2,3-h][3]benzazepin-3-one

> <PUBCHEM_IUPAC_NAME>
8-methyl-6-phenyl-6,7,9,10-tetrahydro-4H-[1,4]oxazino[2,3-h][3]benzazepin-3-one

> <PUBCHEM_IUPAC_SYSTEMATIC_NAME>
8-methyl-6-phenyl-6,7,9,10-tetrahydro-4H-[1,4]oxazino[2,3-h][3]benzazepin-3-one

> <PUBCHEM_IUPAC_TRADITIONAL_NAME>
8-methyl-6-phenyl-6,7,9,10-tetrahydro-4H-[1,4]oxazino[2,3-h][3]benzazepin-3-one

> <PUBCHEM_IUPAC_INCHI>
InChI=1S/C19H20N2O2/c1-21-8-7-14-9-18-17(20-19(22)12-23-18)10-15(14)16(11-21)13-5-3-2-4-6-13/h2-6,9-10,16H,7-8,11-12H2,1H3,(H,20,22)

> <PUBCHEM_IUPAC_INCHIKEY>
YSGKLWGOMLHFLD-UHFFFAOYSA-N

> <PUBCHEM_XLOGP3_AA>
2.7

> <PUBCHEM_EXACT_MASS>
308.152477885

> <PUBCHEM_MOLECULAR_FORMULA>
C19H20N2O2

> <PUBCHEM_MOLECULAR_WEIGHT>
308.4

> <PUBCHEM_OPENEYE_CAN_SMILES>
CN1CCC2=CC3=C(C=C2C(C1)C4=CC=CC=C4)NC(=O)CO3

> <PUBCHEM_OPENEYE_ISO_SMILES>
CN1CCC2=CC3=C(C=C2C(C1)C4=CC=CC=C4)NC(=O)CO3

> <PUBCHEM_CACTVS_TPSA>
41.6

> <PUBCHEM_MONOISOTOPIC_WEIGHT>
308.152477885

> <PUBCHEM_TOTAL_CHARGE>
0

> <PUBCHEM_HEAVY_ATOM_COUNT>
23

> <PUBCHEM_ATOM_DEF_STEREO_COUNT>
0

> <PUBCHEM_ATOM_UDEF_STEREO_COUNT>
1

> <PUBCHEM_BOND_DEF_STEREO_COUNT>
0

> <PUBCHEM_BOND_UDEF_STEREO_COUNT>
0

> <PUBCHEM_ISOTOPIC_ATOM_COUNT>
0

> <PUBCHEM_COMPONENT_COUNT>
1

> <PUBCHEM_CACTVS_TAUTO_COUNT>
-1

> <PUBCHEM_COORDINATE_TYPE>
1
5
255

> <PUBCHEM_BONDANNOTATIONS>
11  17  8
11  18  8
12  14  8
13  15  8
14  15  8
17  21  8
18  22  8
21  23  8
22  23  8
5  11  3
7  12  8
7  8  8
8  13  8

$$$$
