118709162
  -OEChem-09292322352D

115120  0     0  0  0  0  0  0999 V2000
   20.1603    4.0670    0.0000 Cl  0  0  0  0  0  0  0  0  0  0  0  0
   12.6603    8.3971    0.0000 Cl  0  0  0  0  0  0  0  0  0  0  0  0
   16.4282   -8.3971    0.0000 F   0  0  0  0  0  0  0  0  0  0  0  0
    2.0000    1.9330    0.0000 F   0  0  0  0  0  0  0  0  0  0  0  0
   17.6603    1.4689    0.0000 O   0  0  0  0  0  0  0  0  0  0  0  0
   11.6603    4.9330    0.0000 O   0  0  0  0  0  0  0  0  0  0  0  0
   16.1603    0.6029    0.0000 O   0  0  0  0  0  0  0  0  0  0  0  0
   11.6603    3.2010    0.0000 O   0  0  0  0  0  0  0  0  0  0  0  0
   15.5622   -3.8971    0.0000 O   0  0  0  0  0  0  0  0  0  0  0  0
    5.4641    4.9330    0.0000 O   0  0  0  0  0  0  0  0  0  0  0  0
   18.1603   -1.3971    0.0000 N   0  0  0  0  0  0  0  0  0  0  0  0
    8.9282    3.9330    0.0000 N   0  0  0  0  0  0  0  0  0  0  0  0
   18.1603    0.6029    0.0000 C   0  0  0  0  0  0  0  0  0  0  0  0
   10.6603    4.9330    0.0000 C   0  0  0  0  0  0  0  0  0  0  0  0
   17.2942    0.1029    0.0000 C   0  0  0  0  0  0  0  0  0  0  0  0
   19.0263    0.1029    0.0000 C   0  0  0  0  0  0  0  0  0  0  0  0
   10.6603    3.9330    0.0000 C   0  0  0  0  0  0  0  0  0  0  0  0
    9.7942    5.4330    0.0000 C   0  0  0  0  0  0  0  0  0  0  0  0
   17.2942   -0.8971    0.0000 C   0  0  0  0  0  0  0  0  0  0  0  0
   19.0263   -0.8971    0.0000 C   0  0  0  0  0  0  0  0  0  0  0  0
    9.7942    3.4330    0.0000 C   0  0  0  0  0  0  0  0  0  0  0  0
    8.9282    4.9330    0.0000 C   0  0  0  0  0  0  0  0  0  0  0  0
   18.6603    1.4689    0.0000 C   0  0  0  0  0  0  0  0  0  0  0  0
   11.1603    5.7990    0.0000 C   0  0  0  0  0  0  0  0  0  0  0  0
   18.1603   -2.3971    0.0000 C   0  0  0  0  0  0  0  0  0  0  0  0
    8.0622    3.4330    0.0000 C   0  0  0  0  0  0  0  0  0  0  0  0
   17.2942   -2.8971    0.0000 C   0  0  0  0  0  0  0  0  0  0  0  0
    7.1962    3.9330    0.0000 C   0  0  0  0  0  0  0  0  0  0  0  0
   18.1603    2.3349    0.0000 C   0  0  0  0  0  0  0  0  0  0  0  0
   10.6603    6.6651    0.0000 C   0  0  0  0  0  0  0  0  0  0  0  0
   19.6603    1.4689    0.0000 C   0  0  0  0  0  0  0  0  0  0  0  0
   12.1603    5.7990    0.0000 C   0  0  0  0  0  0  0  0  0  0  0  0
   16.6603    1.4689    0.0000 C   0  0  0  0  0  0  0  0  0  0  0  0
   12.1603    4.0670    0.0000 C   0  0  0  0  0  0  0  0  0  0  0  0
   17.2942   -3.8971    0.0000 C   0  0  0  0  0  0  0  0  0  0  0  0
    6.3301    3.4330    0.0000 C   0  0  0  0  0  0  0  0  0  0  0  0
   16.1603    2.3349    0.0000 C   0  0  0  0  0  0  0  0  0  0  0  0
   13.1603    4.0670    0.0000 C   0  0  0  0  0  0  0  0  0  0  0  0
   15.1603    2.3349    0.0000 C   0  0  0  0  0  0  0  0  0  0  0  0
   13.6603    3.2010    0.0000 C   0  0  0  0  0  0  0  0  0  0  0  0
   14.6603    3.2010    0.0000 C   0  0  0  0  0  0  0  0  0  0  0  0
   18.6603    3.2010    0.0000 C   0  0  0  0  0  0  0  0  0  0  0  0
   11.1603    7.5311    0.0000 C   0  0  0  0  0  0  0  0  0  0  0  0
   20.1603    2.3349    0.0000 C   0  0  0  0  0  0  0  0  0  0  0  0
   12.6603    6.6651    0.0000 C   0  0  0  0  0  0  0  0  0  0  0  0
   19.6603    3.2010    0.0000 C   0  0  0  0  0  0  0  0  0  0  0  0
   12.1603    7.5311    0.0000 C   0  0  0  0  0  0  0  0  0  0  0  0
   16.4282   -4.3971    0.0000 C   0  0  0  0  0  0  0  0  0  0  0  0
    5.4641    3.9330    0.0000 C   0  0  0  0  0  0  0  0  0  0  0  0
   16.4282   -5.3971    0.0000 C   0  0  0  0  0  0  0  0  0  0  0  0
    4.5981    3.4330    0.0000 C   0  0  0  0  0  0  0  0  0  0  0  0
   17.2942   -5.8971    0.0000 C   0  0  0  0  0  0  0  0  0  0  0  0
    4.5981    2.4330    0.0000 C   0  0  0  0  0  0  0  0  0  0  0  0
   15.5622   -5.8971    0.0000 C   0  0  0  0  0  0  0  0  0  0  0  0
    3.7320    3.9330    0.0000 C   0  0  0  0  0  0  0  0  0  0  0  0
   17.2942   -6.8971    0.0000 C   0  0  0  0  0  0  0  0  0  0  0  0
    3.7320    1.9330    0.0000 C   0  0  0  0  0  0  0  0  0  0  0  0
   15.5622   -6.8971    0.0000 C   0  0  0  0  0  0  0  0  0  0  0  0
    2.8660    3.4330    0.0000 C   0  0  0  0  0  0  0  0  0  0  0  0
   16.4282   -7.3971    0.0000 C   0  0  0  0  0  0  0  0  0  0  0  0
    2.8660    2.4330    0.0000 C   0  0  0  0  0  0  0  0  0  0  0  0
   17.0822    0.6855    0.0000 H   0  0  0  0  0  0  0  0  0  0  0  0
   16.6836   -0.0048    0.0000 H   0  0  0  0  0  0  0  0  0  0  0  0
   19.6369   -0.0048    0.0000 H   0  0  0  0  0  0  0  0  0  0  0  0
   19.2383    0.6855    0.0000 H   0  0  0  0  0  0  0  0  0  0  0  0
   10.8723    3.3504    0.0000 H   0  0  0  0  0  0  0  0  0  0  0  0
   11.2708    4.0407    0.0000 H   0  0  0  0  0  0  0  0  0  0  0  0
   10.1928    5.9080    0.0000 H   0  0  0  0  0  0  0  0  0  0  0  0
    9.3957    5.9080    0.0000 H   0  0  0  0  0  0  0  0  0  0  0  0
   16.6836   -0.7895    0.0000 H   0  0  0  0  0  0  0  0  0  0  0  0
   17.0822   -1.4797    0.0000 H   0  0  0  0  0  0  0  0  0  0  0  0
   19.2383   -1.4797    0.0000 H   0  0  0  0  0  0  0  0  0  0  0  0
   19.6369   -0.7895    0.0000 H   0  0  0  0  0  0  0  0  0  0  0  0
    9.3957    2.9581    0.0000 H   0  0  0  0  0  0  0  0  0  0  0  0
   10.1928    2.9581    0.0000 H   0  0  0  0  0  0  0  0  0  0  0  0
    8.7162    5.5156    0.0000 H   0  0  0  0  0  0  0  0  0  0  0  0
    8.3176    4.8254    0.0000 H   0  0  0  0  0  0  0  0  0  0  0  0
   18.3723   -2.9797    0.0000 H   0  0  0  0  0  0  0  0  0  0  0  0
   18.7708   -2.2894    0.0000 H   0  0  0  0  0  0  0  0  0  0  0  0
    7.6636    2.9581    0.0000 H   0  0  0  0  0  0  0  0  0  0  0  0
    8.4607    2.9581    0.0000 H   0  0  0  0  0  0  0  0  0  0  0  0
   17.0822   -2.3145    0.0000 H   0  0  0  0  0  0  0  0  0  0  0  0
   16.6836   -3.0048    0.0000 H   0  0  0  0  0  0  0  0  0  0  0  0
    7.5947    4.4080    0.0000 H   0  0  0  0  0  0  0  0  0  0  0  0
    6.7976    4.4080    0.0000 H   0  0  0  0  0  0  0  0  0  0  0  0
   17.5403    2.3349    0.0000 H   0  0  0  0  0  0  0  0  0  0  0  0
   10.0403    6.6651    0.0000 H   0  0  0  0  0  0  0  0  0  0  0  0
   19.9703    0.9320    0.0000 H   0  0  0  0  0  0  0  0  0  0  0  0
   12.4703    5.2621    0.0000 H   0  0  0  0  0  0  0  0  0  0  0  0
   17.5063   -4.4797    0.0000 H   0  0  0  0  0  0  0  0  0  0  0  0
   17.9048   -3.7894    0.0000 H   0  0  0  0  0  0  0  0  0  0  0  0
    5.9316    2.9581    0.0000 H   0  0  0  0  0  0  0  0  0  0  0  0
    6.7287    2.9581    0.0000 H   0  0  0  0  0  0  0  0  0  0  0  0
   16.7429    2.5470    0.0000 H   0  0  0  0  0  0  0  0  0  0  0  0
   16.0526    2.9455    0.0000 H   0  0  0  0  0  0  0  0  0  0  0  0
   13.7429    4.2790    0.0000 H   0  0  0  0  0  0  0  0  0  0  0  0
   13.0526    4.6776    0.0000 H   0  0  0  0  0  0  0  0  0  0  0  0
   14.5776    2.1229    0.0000 H   0  0  0  0  0  0  0  0  0  0  0  0
   15.2679    1.7244    0.0000 H   0  0  0  0  0  0  0  0  0  0  0  0
   13.0776    2.9889    0.0000 H   0  0  0  0  0  0  0  0  0  0  0  0
   13.7679    2.5904    0.0000 H   0  0  0  0  0  0  0  0  0  0  0  0
   15.2429    3.4130    0.0000 H   0  0  0  0  0  0  0  0  0  0  0  0
   14.5526    3.8115    0.0000 H   0  0  0  0  0  0  0  0  0  0  0  0
   18.3503    3.7379    0.0000 H   0  0  0  0  0  0  0  0  0  0  0  0
   10.8503    8.0680    0.0000 H   0  0  0  0  0  0  0  0  0  0  0  0
   20.7803    2.3349    0.0000 H   0  0  0  0  0  0  0  0  0  0  0  0
   13.2803    6.6651    0.0000 H   0  0  0  0  0  0  0  0  0  0  0  0
   17.8312   -5.5871    0.0000 H   0  0  0  0  0  0  0  0  0  0  0  0
    5.1350    2.1230    0.0000 H   0  0  0  0  0  0  0  0  0  0  0  0
   15.0252   -5.5871    0.0000 H   0  0  0  0  0  0  0  0  0  0  0  0
    3.7320    4.5530    0.0000 H   0  0  0  0  0  0  0  0  0  0  0  0
   17.8312   -7.2071    0.0000 H   0  0  0  0  0  0  0  0  0  0  0  0
    3.7320    1.3130    0.0000 H   0  0  0  0  0  0  0  0  0  0  0  0
   15.0252   -7.2071    0.0000 H   0  0  0  0  0  0  0  0  0  0  0  0
    2.3291    3.7430    0.0000 H   0  0  0  0  0  0  0  0  0  0  0  0
  1 46  1  0  0  0  0
  2 47  1  0  0  0  0
  3 60  1  0  0  0  0
  4 61  1  0  0  0  0
  5 13  1  0  0  0  0
  5 33  1  0  0  0  0
  6 14  1  0  0  0  0
  6 34  1  0  0  0  0
  7 33  2  0  0  0  0
  8 34  2  0  0  0  0
  9 48  2  0  0  0  0
 10 49  2  0  0  0  0
 11 19  1  0  0  0  0
 11 20  1  0  0  0  0
 11 25  1  0  0  0  0
 12 21  1  0  0  0  0
 12 22  1  0  0  0  0
 12 26  1  0  0  0  0
 13 15  1  0  0  0  0
 13 16  1  0  0  0  0
 13 23  1  0  0  0  0
 14 17  1  0  0  0  0
 14 18  1  0  0  0  0
 14 24  1  0  0  0  0
 15 19  1  0  0  0  0
 15 62  1  0  0  0  0
 15 63  1  0  0  0  0
 16 20  1  0  0  0  0
 16 64  1  0  0  0  0
 16 65  1  0  0  0  0
 17 21  1  0  0  0  0
 17 66  1  0  0  0  0
 17 67  1  0  0  0  0
 18 22  1  0  0  0  0
 18 68  1  0  0  0  0
 18 69  1  0  0  0  0
 19 70  1  0  0  0  0
 19 71  1  0  0  0  0
 20 72  1  0  0  0  0
 20 73  1  0  0  0  0
 21 74  1  0  0  0  0
 21 75  1  0  0  0  0
 22 76  1  0  0  0  0
 22 77  1  0  0  0  0
 23 29  2  0  0  0  0
 23 31  1  0  0  0  0
 24 30  2  0  0  0  0
 24 32  1  0  0  0  0
 25 27  1  0  0  0  0
 25 78  1  0  0  0  0
 25 79  1  0  0  0  0
 26 28  1  0  0  0  0
 26 80  1  0  0  0  0
 26 81  1  0  0  0  0
 27 35  1  0  0  0  0
 27 82  1  0  0  0  0
 27 83  1  0  0  0  0
 28 36  1  0  0  0  0
 28 84  1  0  0  0  0
 28 85  1  0  0  0  0
 29 42  1  0  0  0  0
 29 86  1  0  0  0  0
 30 43  1  0  0  0  0
 30 87  1  0  0  0  0
 31 44  2  0  0  0  0
 31 88  1  0  0  0  0
 32 45  2  0  0  0  0
 32 89  1  0  0  0  0
 33 37  1  0  0  0  0
 34 38  1  0  0  0  0
 35 48  1  0  0  0  0
 35 90  1  0  0  0  0
 35 91  1  0  0  0  0
 36 49  1  0  0  0  0
 36 92  1  0  0  0  0
 36 93  1  0  0  0  0
 37 39  1  0  0  0  0
 37 94  1  0  0  0  0
 37 95  1  0  0  0  0
 38 40  1  0  0  0  0
 38 96  1  0  0  0  0
 38 97  1  0  0  0  0
 39 41  1  0  0  0  0
 39 98  1  0  0  0  0
 39 99  1  0  0  0  0
 40 41  1  0  0  0  0
 40100  1  0  0  0  0
 40101  1  0  0  0  0
 41102  1  0  0  0  0
 41103  1  0  0  0  0
 42 46  2  0  0  0  0
 42104  1  0  0  0  0
 43 47  2  0  0  0  0
 43105  1  0  0  0  0
 44 46  1  0  0  0  0
 44106  1  0  0  0  0
 45 47  1  0  0  0  0
 45107  1  0  0  0  0
 48 50  1  0  0  0  0
 49 51  1  0  0  0  0
 50 52  2  0  0  0  0
 50 54  1  0  0  0  0
 51 53  2  0  0  0  0
 51 55  1  0  0  0  0
 52 56  1  0  0  0  0
 52108  1  0  0  0  0
 53 57  1  0  0  0  0
 53109  1  0  0  0  0
 54 58  2  0  0  0  0
 54110  1  0  0  0  0
 55 59  2  0  0  0  0
 55111  1  0  0  0  0
 56 60  2  0  0  0  0
 56112  1  0  0  0  0
 57 61  2  0  0  0  0
 57113  1  0  0  0  0
 58 60  1  0  0  0  0
 58114  1  0  0  0  0
 59 61  1  0  0  0  0
 59115  1  0  0  0  0
M  END
> <PUBCHEM_COMPOUND_CID>
118709162

> <PUBCHEM_COMPOUND_CANONICALIZED>
1

> <PUBCHEM_CACTVS_COMPLEXITY>
1270

> <PUBCHEM_CACTVS_HBOND_ACCEPTOR>
10

> <PUBCHEM_CACTVS_HBOND_DONOR>
0

> <PUBCHEM_CACTVS_ROTATABLE_BOND>
22

> <PUBCHEM_CACTVS_SUBSKEYS>
AAADcfB/OYAGAAAAAAAAAAAAAAAAAAAAAAA8eMGCAAAAAAABVAAAHwIAAAAADEbBmCwwCIMABACIAqDSCAACAAAkBQAIiAEICsgIJjKBtxiGMQAmwAGIqYecyOCOhAAAAAAAAAAIAAAAAAAAAAAAAAAAAA==

> <PUBCHEM_IUPAC_OPENEYE_NAME>
bis[4-(4-chlorophenyl)-1-[4-(4-fluorophenyl)-4-oxo-butyl]-4-piperidyl] heptanedioate

> <PUBCHEM_IUPAC_CAS_NAME>
heptanedioic acid bis[4-(4-chlorophenyl)-1-[4-(4-fluorophenyl)-4-oxobutyl]-4-piperidinyl] ester

> <PUBCHEM_IUPAC_NAME_MARKUP>
bis[4-(4-chlorophenyl)-1-[4-(4-fluorophenyl)-4-oxobutyl]piperidin-4-yl] heptanedioate

> <PUBCHEM_IUPAC_NAME>
bis[4-(4-chlorophenyl)-1-[4-(4-fluorophenyl)-4-oxobutyl]piperidin-4-yl] heptanedioate

> <PUBCHEM_IUPAC_SYSTEMATIC_NAME>
bis[4-(4-chlorophenyl)-1-[4-(4-fluorophenyl)-4-oxidanylidene-butyl]piperidin-4-yl] heptanedioate

> <PUBCHEM_IUPAC_TRADITIONAL_NAME>
pimelic acid bis[4-(4-chlorophenyl)-1-[4-(4-fluorophenyl)-4-keto-butyl]-4-piperidyl] ester

> <PUBCHEM_IUPAC_INCHI>
InChI=1S/C49H54Cl2F2N2O6/c50-40-18-14-38(15-19-40)48(26-32-54(33-27-48)30-4-6-44(56)36-10-22-42(52)23-11-36)60-46(58)8-2-1-3-9-47(59)61-49(39-16-20-41(51)21-17-39)28-34-55(35-29-49)31-5-7-45(57)37-12-24-43(53)25-13-37/h10-25H,1-9,26-35H2

> <PUBCHEM_IUPAC_INCHIKEY>
SXLLFTLZFDWMJK-UHFFFAOYSA-N

> <PUBCHEM_XLOGP3_AA>
9.7

> <PUBCHEM_EXACT_MASS>
874.3326992

> <PUBCHEM_MOLECULAR_FORMULA>
C49H54Cl2F2N2O6

> <PUBCHEM_MOLECULAR_WEIGHT>
875.9

> <PUBCHEM_OPENEYE_CAN_SMILES>
C1CN(CCC1(C2=CC=C(C=C2)Cl)OC(=O)CCCCCC(=O)OC3(CCN(CC3)CCCC(=O)C4=CC=C(C=C4)F)C5=CC=C(C=C5)Cl)CCCC(=O)C6=CC=C(C=C6)F

> <PUBCHEM_OPENEYE_ISO_SMILES>
C1CN(CCC1(C2=CC=C(C=C2)Cl)OC(=O)CCCCCC(=O)OC3(CCN(CC3)CCCC(=O)C4=CC=C(C=C4)F)C5=CC=C(C=C5)Cl)CCCC(=O)C6=CC=C(C=C6)F

> <PUBCHEM_CACTVS_TPSA>
93.2

> <PUBCHEM_MONOISOTOPIC_WEIGHT>
874.3326992

> <PUBCHEM_TOTAL_CHARGE>
0

> <PUBCHEM_HEAVY_ATOM_COUNT>
61

> <PUBCHEM_ATOM_DEF_STEREO_COUNT>
0

> <PUBCHEM_ATOM_UDEF_STEREO_COUNT>
0

> <PUBCHEM_BOND_DEF_STEREO_COUNT>
0

> <PUBCHEM_BOND_UDEF_STEREO_COUNT>
0

> <PUBCHEM_ISOTOPIC_ATOM_COUNT>
0

> <PUBCHEM_COMPONENT_COUNT>
1

> <PUBCHEM_CACTVS_TAUTO_COUNT>
-1

> <PUBCHEM_COORDINATE_TYPE>
1
5
255

> <PUBCHEM_BONDANNOTATIONS>
23  29  8
23  31  8
24  30  8
24  32  8
29  42  8
30  43  8
31  44  8
32  45  8
42  46  8
43  47  8
44  46  8
45  47  8
50  52  8
50  54  8
51  53  8
51  55  8
52  56  8
53  57  8
54  58  8
55  59  8
56  60  8
57  61  8
58  60  8
59  61  8

$$$$
