71725025
  -OEChem-09292322022D

 53 56  0     0  0  0  0  0  0999 V2000
   10.1921    0.5613    0.0000 O   0  0  0  0  0  0  0  0  0  0  0  0
    4.3211   -0.6760    0.0000 O   0  0  0  0  0  0  0  0  0  0  0  0
   11.4348    4.3634    0.0000 O   0  0  0  0  0  0  0  0  0  0  0  0
    7.9244   -0.8016    0.0000 N   0  0  0  0  0  0  0  0  0  0  0  0
    5.9674   -1.2141    0.0000 N   0  0  0  0  0  0  0  0  0  0  0  0
    4.6783   -3.9803    0.0000 N   0  0  0  0  0  0  0  0  0  0  0  0
    7.6138   -1.7522    0.0000 C   0  0  0  0  0  0  0  0  0  0  0  0
    7.2566   -0.0573    0.0000 C   0  0  0  0  0  0  0  0  0  0  0  0
    6.6353   -1.9584    0.0000 C   0  0  0  0  0  0  0  0  0  0  0  0
    6.2781   -0.2636    0.0000 C   0  0  0  0  0  0  0  0  0  0  0  0
    8.9030   -0.5954    0.0000 C   0  0  0  0  0  0  0  0  0  0  0  0
    4.9889   -1.4203    0.0000 C   0  0  0  0  0  0  0  0  0  0  0  0
    9.2136    0.3551    0.0000 C   0  0  0  0  0  0  0  0  0  0  0  0
    4.6783   -2.3708    0.0000 C   0  0  0  0  0  0  0  0  0  0  0  0
    3.7320   -2.6756    0.0000 C   0  0  0  0  0  0  0  0  0  0  0  0
    5.2619   -3.1756    0.0000 C   0  0  0  0  0  0  0  0  0  0  0  0
    3.7320   -3.6756    0.0000 C   0  0  0  0  0  0  0  0  0  0  0  0
    2.8660   -2.1756    0.0000 C   0  0  0  0  0  0  0  0  0  0  0  0
    2.8660   -4.1756    0.0000 C   0  0  0  0  0  0  0  0  0  0  0  0
   10.5028    1.5118    0.0000 C   0  0  0  0  0  0  0  0  0  0  0  0
    2.0000   -2.6756    0.0000 C   0  0  0  0  0  0  0  0  0  0  0  0
    2.0000   -3.6756    0.0000 C   0  0  0  0  0  0  0  0  0  0  0  0
   11.4813    1.7180    0.0000 C   0  0  0  0  0  0  0  0  0  0  0  0
    9.8349    2.2561    0.0000 C   0  0  0  0  0  0  0  0  0  0  0  0
   11.7920    2.6686    0.0000 C   0  0  0  0  0  0  0  0  0  0  0  0
   10.1456    3.2066    0.0000 C   0  0  0  0  0  0  0  0  0  0  0  0
   11.1241    3.4129    0.0000 C   0  0  0  0  0  0  0  0  0  0  0  0
   12.4133    4.5696    0.0000 C   0  0  0  0  0  0  0  0  0  0  0  0
    7.6344   -2.3718    0.0000 H   0  0  0  0  0  0  0  0  0  0  0  0
    8.2276   -1.8395    0.0000 H   0  0  0  0  0  0  0  0  0  0  0  0
    7.7830    0.2703    0.0000 H   0  0  0  0  0  0  0  0  0  0  0  0
    7.0254    0.5179    0.0000 H   0  0  0  0  0  0  0  0  0  0  0  0
    6.1089   -2.2860    0.0000 H   0  0  0  0  0  0  0  0  0  0  0  0
    6.8665   -2.5336    0.0000 H   0  0  0  0  0  0  0  0  0  0  0  0
    6.2575    0.3561    0.0000 H   0  0  0  0  0  0  0  0  0  0  0  0
    5.6643   -0.1762    0.0000 H   0  0  0  0  0  0  0  0  0  0  0  0
    8.9235   -1.2151    0.0000 H   0  0  0  0  0  0  0  0  0  0  0  0
    9.5168   -0.6828    0.0000 H   0  0  0  0  0  0  0  0  0  0  0  0
    9.1930    0.9748    0.0000 H   0  0  0  0  0  0  0  0  0  0  0  0
    8.5998    0.4424    0.0000 H   0  0  0  0  0  0  0  0  0  0  0  0
    5.8819   -3.1756    0.0000 H   0  0  0  0  0  0  0  0  0  0  0  0
    4.8709   -4.5696    0.0000 H   0  0  0  0  0  0  0  0  0  0  0  0
    2.8660   -1.5556    0.0000 H   0  0  0  0  0  0  0  0  0  0  0  0
    2.8660   -4.7956    0.0000 H   0  0  0  0  0  0  0  0  0  0  0  0
    1.4631   -2.3656    0.0000 H   0  0  0  0  0  0  0  0  0  0  0  0
    1.4631   -3.9856    0.0000 H   0  0  0  0  0  0  0  0  0  0  0  0
   11.8954    1.2566    0.0000 H   0  0  0  0  0  0  0  0  0  0  0  0
    9.2283    2.1283    0.0000 H   0  0  0  0  0  0  0  0  0  0  0  0
   12.3986    2.7964    0.0000 H   0  0  0  0  0  0  0  0  0  0  0  0
    9.7315    3.6681    0.0000 H   0  0  0  0  0  0  0  0  0  0  0  0
   12.5411    3.9629    0.0000 H   0  0  0  0  0  0  0  0  0  0  0  0
   13.0200    4.6975    0.0000 H   0  0  0  0  0  0  0  0  0  0  0  0
   12.2854    5.1763    0.0000 H   0  0  0  0  0  0  0  0  0  0  0  0
  1 13  1  0  0  0  0
  1 20  1  0  0  0  0
  2 12  2  0  0  0  0
  3 27  1  0  0  0  0
  3 28  1  0  0  0  0
  4  7  1  0  0  0  0
  4  8  1  0  0  0  0
  4 11  1  0  0  0  0
  5  9  1  0  0  0  0
  5 10  1  0  0  0  0
  5 12  1  0  0  0  0
  6 16  1  0  0  0  0
  6 17  1  0  0  0  0
  6 42  1  0  0  0  0
  7  9  1  0  0  0  0
  7 29  1  0  0  0  0
  7 30  1  0  0  0  0
  8 10  1  0  0  0  0
  8 31  1  0  0  0  0
  8 32  1  0  0  0  0
  9 33  1  0  0  0  0
  9 34  1  0  0  0  0
 10 35  1  0  0  0  0
 10 36  1  0  0  0  0
 11 13  1  0  0  0  0
 11 37  1  0  0  0  0
 11 38  1  0  0  0  0
 12 14  1  0  0  0  0
 13 39  1  0  0  0  0
 13 40  1  0  0  0  0
 14 15  1  0  0  0  0
 14 16  2  0  0  0  0
 15 17  1  0  0  0  0
 15 18  2  0  0  0  0
 16 41  1  0  0  0  0
 17 19  2  0  0  0  0
 18 21  1  0  0  0  0
 18 43  1  0  0  0  0
 19 22  1  0  0  0  0
 19 44  1  0  0  0  0
 20 23  2  0  0  0  0
 20 24  1  0  0  0  0
 21 22  2  0  0  0  0
 21 45  1  0  0  0  0
 22 46  1  0  0  0  0
 23 25  1  0  0  0  0
 23 47  1  0  0  0  0
 24 26  2  0  0  0  0
 24 48  1  0  0  0  0
 25 27  2  0  0  0  0
 25 49  1  0  0  0  0
 26 27  1  0  0  0  0
 26 50  1  0  0  0  0
 28 51  1  0  0  0  0
 28 52  1  0  0  0  0
 28 53  1  0  0  0  0
M  END
> <PUBCHEM_COMPOUND_CID>
71725025

> <PUBCHEM_COMPOUND_CANONICALIZED>
1

> <PUBCHEM_CACTVS_COMPLEXITY>
501

> <PUBCHEM_CACTVS_HBOND_ACCEPTOR>
4

> <PUBCHEM_CACTVS_HBOND_DONOR>
1

> <PUBCHEM_CACTVS_ROTATABLE_BOND>
6

> <PUBCHEM_CACTVS_SUBSKEYS>
AAADceB7MAAAAAAAAAAAAAAAAAAAAWAAAAA8YIAAAAAAAFgB9AAAHgAQAAAADAzhngY+xvPJlACoAzV3VACCiCA1IiAI2aE+bNgOZvrE9ZuXOajk1hHY6cfcyMCOgQAAAAACAAACAAAAAAQAAAAAAAAAAA==

> <PUBCHEM_IUPAC_OPENEYE_NAME>
1H-indol-3-yl-[4-[2-(4-methoxyphenoxy)ethyl]piperazin-1-yl]methanone

> <PUBCHEM_IUPAC_CAS_NAME>
1H-indol-3-yl-[4-[2-(4-methoxyphenoxy)ethyl]-1-piperazinyl]methanone

> <PUBCHEM_IUPAC_NAME_MARKUP>
1<I>H</I>-indol-3-yl-[4-[2-(4-methoxyphenoxy)ethyl]piperazin-1-yl]methanone

> <PUBCHEM_IUPAC_NAME>
1H-indol-3-yl-[4-[2-(4-methoxyphenoxy)ethyl]piperazin-1-yl]methanone

> <PUBCHEM_IUPAC_SYSTEMATIC_NAME>
1H-indol-3-yl-[4-[2-(4-methoxyphenoxy)ethyl]piperazin-1-yl]methanone

> <PUBCHEM_IUPAC_TRADITIONAL_NAME>
1H-indol-3-yl-[4-[2-(4-methoxyphenoxy)ethyl]piperazino]methanone

> <PUBCHEM_IUPAC_INCHI>
InChI=1S/C22H25N3O3/c1-27-17-6-8-18(9-7-17)28-15-14-24-10-12-25(13-11-24)22(26)20-16-23-21-5-3-2-4-19(20)21/h2-9,16,23H,10-15H2,1H3

> <PUBCHEM_IUPAC_INCHIKEY>
KGWRWVLYGMASQA-UHFFFAOYSA-N

> <PUBCHEM_XLOGP3>
3.4

> <PUBCHEM_EXACT_MASS>
379.18959167

> <PUBCHEM_MOLECULAR_FORMULA>
C22H25N3O3

> <PUBCHEM_MOLECULAR_WEIGHT>
379.5

> <PUBCHEM_OPENEYE_CAN_SMILES>
COC1=CC=C(C=C1)OCCN2CCN(CC2)C(=O)C3=CNC4=CC=CC=C43

> <PUBCHEM_OPENEYE_ISO_SMILES>
COC1=CC=C(C=C1)OCCN2CCN(CC2)C(=O)C3=CNC4=CC=CC=C43

> <PUBCHEM_CACTVS_TPSA>
57.8

> <PUBCHEM_MONOISOTOPIC_WEIGHT>
379.18959167

> <PUBCHEM_TOTAL_CHARGE>
0

> <PUBCHEM_HEAVY_ATOM_COUNT>
28

> <PUBCHEM_ATOM_DEF_STEREO_COUNT>
0

> <PUBCHEM_ATOM_UDEF_STEREO_COUNT>
0

> <PUBCHEM_BOND_DEF_STEREO_COUNT>
0

> <PUBCHEM_BOND_UDEF_STEREO_COUNT>
0

> <PUBCHEM_ISOTOPIC_ATOM_COUNT>
0

> <PUBCHEM_COMPONENT_COUNT>
1

> <PUBCHEM_CACTVS_TAUTO_COUNT>
-1

> <PUBCHEM_COORDINATE_TYPE>
1
5
255

> <PUBCHEM_BONDANNOTATIONS>
14  15  8
14  16  8
15  17  8
15  18  8
17  19  8
18  21  8
19  22  8
20  23  8
20  24  8
21  22  8
23  25  8
24  26  8
25  27  8
26  27  8
6  16  8
6  17  8

$$$$
