11666419
  -OEChem-09292322482D

 42 46  0     1  0  0  0  0  0999 V2000
    6.1115    1.8282    0.0000 N   0  0  3  0  0  0  0  0  0  0  0  0
    5.0363   -0.6437    0.0000 N   0  0  0  0  0  0  0  0  0  0  0  0
    6.1115    0.8281    0.0000 C   0  0  3  0  0  0  0  0  0  0  0  0
    7.0577    0.5234    0.0000 C   0  0  3  0  0  0  0  0  0  0  0  0
    7.6414    1.3282    0.0000 C   0  0  0  0  0  0  0  0  0  0  0  0
    7.0577    2.1329    0.0000 C   0  0  0  0  0  0  0  0  0  0  0  0
    5.2455    0.3281    0.0000 C   0  0  0  0  0  0  0  0  0  0  0  0
    5.2455    2.3282    0.0000 C   0  0  0  0  0  0  0  0  0  0  0  0
    4.3795    0.8281    0.0000 C   0  0  0  0  0  0  0  0  0  0  0  0
    4.3795    1.8282    0.0000 C   0  0  0  0  0  0  0  0  0  0  0  0
    7.3684   -0.4271    0.0000 C   0  0  0  0  0  0  0  0  0  0  0  0
    3.6425    0.1611    0.0000 C   0  0  0  0  0  0  0  0  0  0  0  0
    4.0476   -0.7467    0.0000 C   0  0  0  0  0  0  0  0  0  0  0  0
    6.7006   -1.1714    0.0000 C   0  0  0  0  0  0  0  0  0  0  0  0
    8.3469   -0.6333    0.0000 C   0  0  0  0  0  0  0  0  0  0  0  0
    2.6144    0.2843    0.0000 C   0  0  0  0  0  0  0  0  0  0  0  0
    3.4527   -1.5942    0.0000 C   0  0  0  0  0  0  0  0  0  0  0  0
    7.0112   -2.1219    0.0000 C   0  0  0  0  0  0  0  0  0  0  0  0
    8.6576   -1.5838    0.0000 C   0  0  0  0  0  0  0  0  0  0  0  0
    2.0000   -0.5492    0.0000 C   0  0  0  0  0  0  0  0  0  0  0  0
    2.4220   -1.4948    0.0000 C   0  0  0  0  0  0  0  0  0  0  0  0
    7.9897   -2.3282    0.0000 C   0  0  0  0  0  0  0  0  0  0  0  0
    6.1771    0.2116    0.0000 H   0  0  0  0  0  0  0  0  0  0  0  0
    7.6702    0.4272    0.0000 H   0  0  0  0  0  0  0  0  0  0  0  0
    8.1022    0.9134    0.0000 H   0  0  0  0  0  0  0  0  0  0  0  0
    8.1022    1.7429    0.0000 H   0  0  0  0  0  0  0  0  0  0  0  0
    7.5951    2.4421    0.0000 H   0  0  0  0  0  0  0  0  0  0  0  0
    6.8067    2.6998    0.0000 H   0  0  0  0  0  0  0  0  0  0  0  0
    5.6440    2.8031    0.0000 H   0  0  0  0  0  0  0  0  0  0  0  0
    4.8470    2.8031    0.0000 H   0  0  0  0  0  0  0  0  0  0  0  0
    4.1674    2.4108    0.0000 H   0  0  0  0  0  0  0  0  0  0  0  0
    3.7689    1.7205    0.0000 H   0  0  0  0  0  0  0  0  0  0  0  0
    5.4504   -1.1051    0.0000 H   0  0  0  0  0  0  0  0  0  0  0  0
    6.0939   -1.0436    0.0000 H   0  0  0  0  0  0  0  0  0  0  0  0
    8.7610   -0.1719    0.0000 H   0  0  0  0  0  0  0  0  0  0  0  0
    2.3683    0.8533    0.0000 H   0  0  0  0  0  0  0  0  0  0  0  0
    3.7119   -2.1574    0.0000 H   0  0  0  0  0  0  0  0  0  0  0  0
    6.5972   -2.5834    0.0000 H   0  0  0  0  0  0  0  0  0  0  0  0
    9.2642   -1.7117    0.0000 H   0  0  0  0  0  0  0  0  0  0  0  0
    1.3836   -0.4826    0.0000 H   0  0  0  0  0  0  0  0  0  0  0  0
    2.0599   -1.9981    0.0000 H   0  0  0  0  0  0  0  0  0  0  0  0
    8.1823   -2.9175    0.0000 H   0  0  0  0  0  0  0  0  0  0  0  0
  1  3  1  0  0  0  0
  1  6  1  0  0  0  0
  1  8  1  0  0  0  0
  2  7  1  0  0  0  0
  2 13  1  0  0  0  0
  2 33  1  0  0  0  0
  3  4  1  0  0  0  0
  3  7  1  0  0  0  0
  3 23  1  0  0  0  0
  4  5  1  0  0  0  0
  4 11  1  0  0  0  0
  4 24  1  0  0  0  0
  5  6  1  0  0  0  0
  5 25  1  0  0  0  0
  5 26  1  0  0  0  0
  6 27  1  0  0  0  0
  6 28  1  0  0  0  0
  7  9  2  0  0  0  0
  8 10  1  0  0  0  0
  8 29  1  0  0  0  0
  8 30  1  0  0  0  0
  9 10  1  0  0  0  0
  9 12  1  0  0  0  0
 10 31  1  0  0  0  0
 10 32  1  0  0  0  0
 11 14  2  0  0  0  0
 11 15  1  0  0  0  0
 12 13  1  0  0  0  0
 12 16  2  0  0  0  0
 13 17  2  0  0  0  0
 14 18  1  0  0  0  0
 14 34  1  0  0  0  0
 15 19  2  0  0  0  0
 15 35  1  0  0  0  0
 16 20  1  0  0  0  0
 16 36  1  0  0  0  0
 17 21  1  0  0  0  0
 17 37  1  0  0  0  0
 18 22  2  0  0  0  0
 18 38  1  0  0  0  0
 19 22  1  0  0  0  0
 19 39  1  0  0  0  0
 20 21  2  0  0  0  0
 20 40  1  0  0  0  0
 21 41  1  0  0  0  0
 22 42  1  0  0  0  0
M  END
> <PUBCHEM_COMPOUND_CID>
11666419

> <PUBCHEM_COMPOUND_CANONICALIZED>
1

> <PUBCHEM_CACTVS_COMPLEXITY>
403

> <PUBCHEM_CACTVS_HBOND_ACCEPTOR>
1

> <PUBCHEM_CACTVS_HBOND_DONOR>
1

> <PUBCHEM_CACTVS_ROTATABLE_BOND>
1

> <PUBCHEM_CACTVS_SUBSKEYS>
AAADceB7AAAAAAAAAAAAAAAAAAAAAWLAAAA8YIAAAAAAAFgB9AAAHAAQAAAADSjBHgQwwPPJkACgAyRiRACCgCAhAiAImSA4ZJgIYOLAkZGUIAhgkADIyAcQgMAOgAAAAAACAAAAAAAAAAQAAAAAAAAAAA==

> <PUBCHEM_IUPAC_OPENEYE_NAME>
1-phenyl-2,3,5,6,11,11b-hexahydro-1H-indolizino[8,7-b]indole

> <PUBCHEM_IUPAC_CAS_NAME>
1-phenyl-2,3,5,6,11,11b-hexahydro-1H-indolizino[8,7-b]indole

> <PUBCHEM_IUPAC_NAME_MARKUP>
1-phenyl-2,3,5,6,11,11<I>b</I>-hexahydro-1<I>H</I>-indolizino[8,7-b]indole

> <PUBCHEM_IUPAC_NAME>
1-phenyl-2,3,5,6,11,11b-hexahydro-1H-indolizino[8,7-b]indole

> <PUBCHEM_IUPAC_SYSTEMATIC_NAME>
1-phenyl-2,3,5,6,11,11b-hexahydro-1H-indolizino[8,7-b]indole

> <PUBCHEM_IUPAC_TRADITIONAL_NAME>
1-phenyl-2,3,5,6,11,11b-hexahydro-1H-pyrrolo[2,1-a]beta-carboline

> <PUBCHEM_IUPAC_INCHI>
InChI=1S/C20H20N2/c1-2-6-14(7-3-1)15-10-12-22-13-11-17-16-8-4-5-9-18(16)21-19(17)20(15)22/h1-9,15,20-21H,10-13H2

> <PUBCHEM_IUPAC_INCHIKEY>
XOMCRCUXIXQLCN-UHFFFAOYSA-N

> <PUBCHEM_XLOGP3_AA>
3.9

> <PUBCHEM_EXACT_MASS>
288.162648646

> <PUBCHEM_MOLECULAR_FORMULA>
C20H20N2

> <PUBCHEM_MOLECULAR_WEIGHT>
288.4

> <PUBCHEM_OPENEYE_CAN_SMILES>
C1CN2CCC3=C(C2C1C4=CC=CC=C4)NC5=CC=CC=C35

> <PUBCHEM_OPENEYE_ISO_SMILES>
C1CN2CCC3=C(C2C1C4=CC=CC=C4)NC5=CC=CC=C35

> <PUBCHEM_CACTVS_TPSA>
19

> <PUBCHEM_MONOISOTOPIC_WEIGHT>
288.162648646

> <PUBCHEM_TOTAL_CHARGE>
0

> <PUBCHEM_HEAVY_ATOM_COUNT>
22

> <PUBCHEM_ATOM_DEF_STEREO_COUNT>
0

> <PUBCHEM_ATOM_UDEF_STEREO_COUNT>
2

> <PUBCHEM_BOND_DEF_STEREO_COUNT>
0

> <PUBCHEM_BOND_UDEF_STEREO_COUNT>
0

> <PUBCHEM_ISOTOPIC_ATOM_COUNT>
0

> <PUBCHEM_COMPONENT_COUNT>
1

> <PUBCHEM_CACTVS_TAUTO_COUNT>
-1

> <PUBCHEM_COORDINATE_TYPE>
1
5
255

> <PUBCHEM_BONDANNOTATIONS>
11  14  8
11  15  8
12  13  8
12  16  8
13  17  8
14  18  8
15  19  8
16  20  8
17  21  8
18  22  8
19  22  8
2  13  8
2  7  8
20  21  8
3  7  3
4  11  3
7  9  8
9  12  8

$$$$
