132578416
  -OEChem-09292322012D

 61 63  0     1  0  0  0  0  0999 V2000
   13.8116   -2.7642    0.0000 O   0  0  0  0  0  0  0  0  0  0  0  0
    4.2690    2.7704    0.0000 O   0  0  0  0  0  0  0  0  0  0  0  0
    2.5369    1.7704    0.0000 O   0  0  0  0  0  0  0  0  0  0  0  0
   10.3312    0.2704    0.0000 N   0  0  3  0  0  0  0  0  0  0  0  0
   11.1972   -0.2296    0.0000 C   0  0  1  0  0  0  0  0  0  0  0  0
   11.1972   -1.2296    0.0000 C   0  0  0  0  0  0  0  0  0  0  0  0
   12.0632    0.2704    0.0000 C   0  0  0  0  0  0  0  0  0  0  0  0
   12.0632   -1.7296    0.0000 C   0  0  0  0  0  0  0  0  0  0  0  0
   12.9292   -0.2296    0.0000 C   0  0  0  0  0  0  0  0  0  0  0  0
    9.4651   -0.2296    0.0000 C   0  0  0  0  0  0  0  0  0  0  0  0
   12.9292   -1.2296    0.0000 C   0  0  0  0  0  0  0  0  0  0  0  0
   10.3312    1.2704    0.0000 C   0  0  0  0  0  0  0  0  0  0  0  0
    8.5991    0.2704    0.0000 C   0  0  0  0  0  0  0  0  0  0  0  0
    9.4651    1.7704    0.0000 C   0  0  0  0  0  0  0  0  0  0  0  0
    7.7331   -0.2296    0.0000 C   0  0  0  0  0  0  0  0  0  0  0  0
   13.8232    0.3051    0.0000 C   0  0  0  0  0  0  0  0  0  0  0  0
   13.8232   -1.7643    0.0000 C   0  0  0  0  0  0  0  0  0  0  0  0
    6.8671    0.2704    0.0000 C   0  0  0  0  0  0  0  0  0  0  0  0
   14.7292   -0.2088    0.0000 C   0  0  0  0  0  0  0  0  0  0  0  0
   14.7292   -1.2504    0.0000 C   0  0  0  0  0  0  0  0  0  0  0  0
    9.4651    2.7704    0.0000 C   0  0  0  0  0  0  0  0  0  0  0  0
    6.0010   -0.2296    0.0000 C   0  0  0  0  0  0  0  0  0  0  0  0
    5.1350    0.2704    0.0000 C   0  0  0  0  0  0  0  0  0  0  0  0
    5.1350    1.2704    0.0000 C   0  0  0  0  0  0  0  0  0  0  0  0
    4.2690   -0.2296    0.0000 C   0  0  0  0  0  0  0  0  0  0  0  0
    4.2690    1.7704    0.0000 C   0  0  0  0  0  0  0  0  0  0  0  0
    3.4030    0.2704    0.0000 C   0  0  0  0  0  0  0  0  0  0  0  0
    3.4030    1.2704    0.0000 C   0  0  0  0  0  0  0  0  0  0  0  0
   10.6603   -0.5396    0.0000 H   0  0  0  0  0  0  0  0  0  0  0  0
   10.5866   -1.1220    0.0000 H   0  0  0  0  0  0  0  0  0  0  0  0
   10.9851   -1.8122    0.0000 H   0  0  0  0  0  0  0  0  0  0  0  0
   12.4617    0.7453    0.0000 H   0  0  0  0  0  0  0  0  0  0  0  0
   11.6647    0.7453    0.0000 H   0  0  0  0  0  0  0  0  0  0  0  0
   11.6647   -2.2046    0.0000 H   0  0  0  0  0  0  0  0  0  0  0  0
   12.4617   -2.2046    0.0000 H   0  0  0  0  0  0  0  0  0  0  0  0
    9.0666   -0.7046    0.0000 H   0  0  0  0  0  0  0  0  0  0  0  0
    9.8637   -0.7046    0.0000 H   0  0  0  0  0  0  0  0  0  0  0  0
   10.9417    1.1627    0.0000 H   0  0  0  0  0  0  0  0  0  0  0  0
   10.5432    1.8530    0.0000 H   0  0  0  0  0  0  0  0  0  0  0  0
    8.9976    0.7453    0.0000 H   0  0  0  0  0  0  0  0  0  0  0  0
    8.2006    0.7453    0.0000 H   0  0  0  0  0  0  0  0  0  0  0  0
    8.8546    1.8780    0.0000 H   0  0  0  0  0  0  0  0  0  0  0  0
    9.2531    1.1878    0.0000 H   0  0  0  0  0  0  0  0  0  0  0  0
    7.3346   -0.7046    0.0000 H   0  0  0  0  0  0  0  0  0  0  0  0
    8.1316   -0.7046    0.0000 H   0  0  0  0  0  0  0  0  0  0  0  0
   13.8160    0.9250    0.0000 H   0  0  0  0  0  0  0  0  0  0  0  0
    7.2656    0.7453    0.0000 H   0  0  0  0  0  0  0  0  0  0  0  0
    6.4685    0.7453    0.0000 H   0  0  0  0  0  0  0  0  0  0  0  0
   15.2650    0.1033    0.0000 H   0  0  0  0  0  0  0  0  0  0  0  0
   15.2650   -1.5625    0.0000 H   0  0  0  0  0  0  0  0  0  0  0  0
   10.0851    2.7704    0.0000 H   0  0  0  0  0  0  0  0  0  0  0  0
    9.4651    3.3904    0.0000 H   0  0  0  0  0  0  0  0  0  0  0  0
    8.8451    2.7704    0.0000 H   0  0  0  0  0  0  0  0  0  0  0  0
    5.6025   -0.7046    0.0000 H   0  0  0  0  0  0  0  0  0  0  0  0
    6.3996   -0.7046    0.0000 H   0  0  0  0  0  0  0  0  0  0  0  0
   14.3449   -3.0804    0.0000 H   0  0  0  0  0  0  0  0  0  0  0  0
    5.6720    1.5804    0.0000 H   0  0  0  0  0  0  0  0  0  0  0  0
    4.2690   -0.8496    0.0000 H   0  0  0  0  0  0  0  0  0  0  0  0
    2.8660   -0.0396    0.0000 H   0  0  0  0  0  0  0  0  0  0  0  0
    3.7320    3.0804    0.0000 H   0  0  0  0  0  0  0  0  0  0  0  0
    2.0000    1.4604    0.0000 H   0  0  0  0  0  0  0  0  0  0  0  0
  1 17  1  0  0  0  0
  1 56  1  0  0  0  0
  2 26  1  0  0  0  0
  2 60  1  0  0  0  0
  3 28  1  0  0  0  0
  3 61  1  0  0  0  0
  5  4  1  6  0  0  0
  4 10  1  0  0  0  0
  4 12  1  0  0  0  0
  5  6  1  0  0  0  0
  5  7  1  0  0  0  0
  5 29  1  0  0  0  0
  6  8  1  0  0  0  0
  6 30  1  0  0  0  0
  6 31  1  0  0  0  0
  7  9  1  0  0  0  0
  7 32  1  0  0  0  0
  7 33  1  0  0  0  0
  8 11  1  0  0  0  0
  8 34  1  0  0  0  0
  8 35  1  0  0  0  0
  9 11  2  0  0  0  0
  9 16  1  0  0  0  0
 10 13  1  0  0  0  0
 10 36  1  0  0  0  0
 10 37  1  0  0  0  0
 11 17  1  0  0  0  0
 12 14  1  0  0  0  0
 12 38  1  0  0  0  0
 12 39  1  0  0  0  0
 13 15  1  0  0  0  0
 13 40  1  0  0  0  0
 13 41  1  0  0  0  0
 14 21  1  0  0  0  0
 14 42  1  0  0  0  0
 14 43  1  0  0  0  0
 15 18  1  0  0  0  0
 15 44  1  0  0  0  0
 15 45  1  0  0  0  0
 16 19  2  0  0  0  0
 16 46  1  0  0  0  0
 17 20  2  0  0  0  0
 18 22  1  0  0  0  0
 18 47  1  0  0  0  0
 18 48  1  0  0  0  0
 19 20  1  0  0  0  0
 19 49  1  0  0  0  0
 20 50  1  0  0  0  0
 21 51  1  0  0  0  0
 21 52  1  0  0  0  0
 21 53  1  0  0  0  0
 22 23  1  0  0  0  0
 22 54  1  0  0  0  0
 22 55  1  0  0  0  0
 23 24  2  0  0  0  0
 23 25  1  0  0  0  0
 24 26  1  0  0  0  0
 24 57  1  0  0  0  0
 25 27  2  0  0  0  0
 25 58  1  0  0  0  0
 26 28  2  0  0  0  0
 27 28  1  0  0  0  0
 27 59  1  0  0  0  0
M  END
> <PUBCHEM_COMPOUND_CID>
132578416

> <PUBCHEM_COMPOUND_CANONICALIZED>
1

> <PUBCHEM_CACTVS_COMPLEXITY>
446

> <PUBCHEM_CACTVS_HBOND_ACCEPTOR>
4

> <PUBCHEM_CACTVS_HBOND_DONOR>
3

> <PUBCHEM_CACTVS_ROTATABLE_BOND>
9

> <PUBCHEM_CACTVS_SUBSKEYS>
AAADcfB6MAAAAAAAAAAAAAAAAAAAAAAAAAAwYMAAAAAAAADBQAAAHgAACAAADCzBmAQyBoMAAgCAAiBCAAACAAAgIAAIiAAOiIgJJiKCkROEcAEkwBGJmAeQ0PMOoAABAAAYQABQAAKAADCAAAAAAAAAAA==

> <PUBCHEM_IUPAC_OPENEYE_NAME>
4-[5-[[(2S)-5-hydroxytetralin-2-yl]-propyl-amino]pentyl]benzene-1,2-diol

> <PUBCHEM_IUPAC_CAS_NAME>
4-[5-[[(2S)-5-hydroxy-1,2,3,4-tetrahydronaphthalen-2-yl]-propylamino]pentyl]benzene-1,2-diol

> <PUBCHEM_IUPAC_NAME_MARKUP>
4-[5-[[(2<I>S</I>)-5-hydroxy-1,2,3,4-tetrahydronaphthalen-2-yl]-propylamino]pentyl]benzene-1,2-diol

> <PUBCHEM_IUPAC_NAME>
4-[5-[[(2S)-5-hydroxy-1,2,3,4-tetrahydronaphthalen-2-yl]-propylamino]pentyl]benzene-1,2-diol

> <PUBCHEM_IUPAC_SYSTEMATIC_NAME>
4-[5-[[(2S)-5-oxidanyl-1,2,3,4-tetrahydronaphthalen-2-yl]-propyl-amino]pentyl]benzene-1,2-diol

> <PUBCHEM_IUPAC_TRADITIONAL_NAME>
4-[5-[[(2S)-5-hydroxytetralin-2-yl]-propyl-amino]pentyl]pyrocatechol

> <PUBCHEM_IUPAC_INCHI>
InChI=1S/C24H33NO3/c1-2-14-25(20-11-12-21-19(17-20)8-6-9-22(21)26)15-5-3-4-7-18-10-13-23(27)24(28)16-18/h6,8-10,13,16,20,26-28H,2-5,7,11-12,14-15,17H2,1H3/t20-/m0/s1

> <PUBCHEM_IUPAC_INCHIKEY>
TXJZKUBFJGPDAH-FQEVSTJZSA-N

> <PUBCHEM_XLOGP3_AA>
5.7

> <PUBCHEM_EXACT_MASS>
383.24604391

> <PUBCHEM_MOLECULAR_FORMULA>
C24H33NO3

> <PUBCHEM_MOLECULAR_WEIGHT>
383.5

> <PUBCHEM_OPENEYE_CAN_SMILES>
CCCN(CCCCCC1=CC(=C(C=C1)O)O)C2CCC3=C(C2)C=CC=C3O

> <PUBCHEM_OPENEYE_ISO_SMILES>
CCCN(CCCCCC1=CC(=C(C=C1)O)O)[C@H]2CCC3=C(C2)C=CC=C3O

> <PUBCHEM_CACTVS_TPSA>
63.9

> <PUBCHEM_MONOISOTOPIC_WEIGHT>
383.24604391

> <PUBCHEM_TOTAL_CHARGE>
0

> <PUBCHEM_HEAVY_ATOM_COUNT>
28

> <PUBCHEM_ATOM_DEF_STEREO_COUNT>
1

> <PUBCHEM_ATOM_UDEF_STEREO_COUNT>
0

> <PUBCHEM_BOND_DEF_STEREO_COUNT>
0

> <PUBCHEM_BOND_UDEF_STEREO_COUNT>
0

> <PUBCHEM_ISOTOPIC_ATOM_COUNT>
0

> <PUBCHEM_COMPONENT_COUNT>
1

> <PUBCHEM_CACTVS_TAUTO_COUNT>
-1

> <PUBCHEM_COORDINATE_TYPE>
1
5
255

> <PUBCHEM_BONDANNOTATIONS>
11  17  8
16  19  8
17  20  8
19  20  8
23  24  8
23  25  8
24  26  8
25  27  8
26  28  8
27  28  8
5  4  6
9  11  8
9  16  8

$$$$
