25157257
  -OEChem-09292322502D

 64 67  0     0  0  0  0  0  0999 V2000
    8.9282    2.5000    0.0000 O   0  0  0  0  0  0  0  0  0  0  0  0
    2.8660    4.0000    0.0000 O   0  0  0  0  0  0  0  0  0  0  0  0
    7.1962   -0.5000    0.0000 N   0  0  0  0  0  0  0  0  0  0  0  0
    7.1962   -2.5000    0.0000 N   0  0  0  0  0  0  0  0  0  0  0  0
    8.0622   -4.0000    0.0000 N   0  0  0  0  0  0  0  0  0  0  0  0
    6.3301   -4.0000    0.0000 N   0  0  0  0  0  0  0  0  0  0  0  0
    8.0622   -1.0000    0.0000 C   0  0  0  0  0  0  0  0  0  0  0  0
    6.3301   -1.0000    0.0000 C   0  0  0  0  0  0  0  0  0  0  0  0
    8.0622   -2.0000    0.0000 C   0  0  0  0  0  0  0  0  0  0  0  0
    6.3301   -2.0000    0.0000 C   0  0  0  0  0  0  0  0  0  0  0  0
    7.1962    0.5000    0.0000 C   0  0  0  0  0  0  0  0  0  0  0  0
    8.0622    1.0000    0.0000 C   0  0  0  0  0  0  0  0  0  0  0  0
    7.1962   -3.5000    0.0000 C   0  0  0  0  0  0  0  0  0  0  0  0
    8.0622    2.0000    0.0000 C   0  0  0  0  0  0  0  0  0  0  0  0
    8.9282    3.5000    0.0000 C   0  0  0  0  0  0  0  0  0  0  0  0
    8.0622    4.0000    0.0000 C   0  0  0  0  0  0  0  0  0  0  0  0
    7.1962    3.5000    0.0000 C   0  0  0  0  0  0  0  0  0  0  0  0
    6.3301    4.0000    0.0000 C   0  0  0  0  0  0  0  0  0  0  0  0
    8.0622   -5.0000    0.0000 C   0  0  0  0  0  0  0  0  0  0  0  0
    6.3301   -5.0000    0.0000 C   0  0  0  0  0  0  0  0  0  0  0  0
    9.7942    4.0000    0.0000 C   0  0  0  0  0  0  0  0  0  0  0  0
    8.0622    5.0000    0.0000 C   0  0  0  0  0  0  0  0  0  0  0  0
    5.4641    3.5000    0.0000 C   0  0  0  0  0  0  0  0  0  0  0  0
    7.1962   -5.5000    0.0000 C   0  0  0  0  0  0  0  0  0  0  0  0
    9.7942    5.0000    0.0000 C   0  0  0  0  0  0  0  0  0  0  0  0
    8.9282    5.5000    0.0000 C   0  0  0  0  0  0  0  0  0  0  0  0
    4.5981    4.0000    0.0000 C   0  0  0  0  0  0  0  0  0  0  0  0
    5.4641    2.5000    0.0000 C   0  0  0  0  0  0  0  0  0  0  0  0
    3.7320    3.5000    0.0000 C   0  0  0  0  0  0  0  0  0  0  0  0
    4.5981    2.0000    0.0000 C   0  0  0  0  0  0  0  0  0  0  0  0
    3.7320    2.5000    0.0000 C   0  0  0  0  0  0  0  0  0  0  0  0
    2.0000    3.5000    0.0000 C   0  0  0  0  0  0  0  0  0  0  0  0
    8.6728   -1.1077    0.0000 H   0  0  0  0  0  0  0  0  0  0  0  0
    8.2742   -0.4174    0.0000 H   0  0  0  0  0  0  0  0  0  0  0  0
    6.1181   -0.4174    0.0000 H   0  0  0  0  0  0  0  0  0  0  0  0
    5.7196   -1.1077    0.0000 H   0  0  0  0  0  0  0  0  0  0  0  0
    8.2742   -2.5826    0.0000 H   0  0  0  0  0  0  0  0  0  0  0  0
    8.6728   -1.8923    0.0000 H   0  0  0  0  0  0  0  0  0  0  0  0
    5.7196   -1.8923    0.0000 H   0  0  0  0  0  0  0  0  0  0  0  0
    6.1181   -2.5826    0.0000 H   0  0  0  0  0  0  0  0  0  0  0  0
    6.9841    1.0826    0.0000 H   0  0  0  0  0  0  0  0  0  0  0  0
    6.5856    0.3923    0.0000 H   0  0  0  0  0  0  0  0  0  0  0  0
    8.2742    0.4174    0.0000 H   0  0  0  0  0  0  0  0  0  0  0  0
    8.6728    1.1077    0.0000 H   0  0  0  0  0  0  0  0  0  0  0  0
    7.8501    2.5826    0.0000 H   0  0  0  0  0  0  0  0  0  0  0  0
    7.4516    1.8923    0.0000 H   0  0  0  0  0  0  0  0  0  0  0  0
    6.7976    3.0250    0.0000 H   0  0  0  0  0  0  0  0  0  0  0  0
    7.5947    3.0250    0.0000 H   0  0  0  0  0  0  0  0  0  0  0  0
    6.7287    4.4750    0.0000 H   0  0  0  0  0  0  0  0  0  0  0  0
    5.9316    4.4750    0.0000 H   0  0  0  0  0  0  0  0  0  0  0  0
    8.5991   -5.3100    0.0000 H   0  0  0  0  0  0  0  0  0  0  0  0
    5.7932   -5.3100    0.0000 H   0  0  0  0  0  0  0  0  0  0  0  0
   10.3312    3.6900    0.0000 H   0  0  0  0  0  0  0  0  0  0  0  0
    7.5252    5.3100    0.0000 H   0  0  0  0  0  0  0  0  0  0  0  0
    7.1962   -6.1200    0.0000 H   0  0  0  0  0  0  0  0  0  0  0  0
   10.3312    5.3100    0.0000 H   0  0  0  0  0  0  0  0  0  0  0  0
    8.9282    6.1200    0.0000 H   0  0  0  0  0  0  0  0  0  0  0  0
    4.5981    4.6200    0.0000 H   0  0  0  0  0  0  0  0  0  0  0  0
    6.0010    2.1900    0.0000 H   0  0  0  0  0  0  0  0  0  0  0  0
    4.5981    1.3800    0.0000 H   0  0  0  0  0  0  0  0  0  0  0  0
    3.1951    2.1900    0.0000 H   0  0  0  0  0  0  0  0  0  0  0  0
    1.6900    4.0369    0.0000 H   0  0  0  0  0  0  0  0  0  0  0  0
    1.4631    3.1900    0.0000 H   0  0  0  0  0  0  0  0  0  0  0  0
    2.3100    2.9631    0.0000 H   0  0  0  0  0  0  0  0  0  0  0  0
  1 14  1  0  0  0  0
  1 15  1  0  0  0  0
  2 29  1  0  0  0  0
  2 32  1  0  0  0  0
  3  7  1  0  0  0  0
  3  8  1  0  0  0  0
  3 11  1  0  0  0  0
  4  9  1  0  0  0  0
  4 10  1  0  0  0  0
  4 13  1  0  0  0  0
  5 13  2  0  0  0  0
  5 19  1  0  0  0  0
  6 13  1  0  0  0  0
  6 20  2  0  0  0  0
  7  9  1  0  0  0  0
  7 33  1  0  0  0  0
  7 34  1  0  0  0  0
  8 10  1  0  0  0  0
  8 35  1  0  0  0  0
  8 36  1  0  0  0  0
  9 37  1  0  0  0  0
  9 38  1  0  0  0  0
 10 39  1  0  0  0  0
 10 40  1  0  0  0  0
 11 12  1  0  0  0  0
 11 41  1  0  0  0  0
 11 42  1  0  0  0  0
 12 14  1  0  0  0  0
 12 43  1  0  0  0  0
 12 44  1  0  0  0  0
 14 45  1  0  0  0  0
 14 46  1  0  0  0  0
 15 16  1  0  0  0  0
 15 21  2  0  0  0  0
 16 17  1  0  0  0  0
 16 22  2  0  0  0  0
 17 18  1  0  0  0  0
 17 47  1  0  0  0  0
 17 48  1  0  0  0  0
 18 23  1  0  0  0  0
 18 49  1  0  0  0  0
 18 50  1  0  0  0  0
 19 24  2  0  0  0  0
 19 51  1  0  0  0  0
 20 24  1  0  0  0  0
 20 52  1  0  0  0  0
 21 25  1  0  0  0  0
 21 53  1  0  0  0  0
 22 26  1  0  0  0  0
 22 54  1  0  0  0  0
 23 27  2  0  0  0  0
 23 28  1  0  0  0  0
 24 55  1  0  0  0  0
 25 26  2  0  0  0  0
 25 56  1  0  0  0  0
 26 57  1  0  0  0  0
 27 29  1  0  0  0  0
 27 58  1  0  0  0  0
 28 30  2  0  0  0  0
 28 59  1  0  0  0  0
 29 31  2  0  0  0  0
 30 31  1  0  0  0  0
 30 60  1  0  0  0  0
 31 61  1  0  0  0  0
 32 62  1  0  0  0  0
 32 63  1  0  0  0  0
 32 64  1  0  0  0  0
M  END
> <PUBCHEM_COMPOUND_CID>
25157257

> <PUBCHEM_COMPOUND_CANONICALIZED>
1

> <PUBCHEM_CACTVS_COMPLEXITY>
508

> <PUBCHEM_CACTVS_HBOND_ACCEPTOR>
6

> <PUBCHEM_CACTVS_HBOND_DONOR>
0

> <PUBCHEM_CACTVS_ROTATABLE_BOND>
10

> <PUBCHEM_CACTVS_SUBSKEYS>
AAADcfB7sAAAAAAAAAAAAAAAAAAAAAAAAAA8eIEAAAAAAAAB0AAAHgAAAAAADAThmgY/lpcIFACgAjBnZACCiCkxIqAJ2CA+bJiMbqLEeVqWPCiuwBPIqCeAwPAOAAABAAAIAAAAAAIAABAAAAAAAAAAAA==

> <PUBCHEM_IUPAC_OPENEYE_NAME>
2-[4-[3-[2-[2-(3-methoxyphenyl)ethyl]phenoxy]propyl]piperazin-1-yl]pyrimidine

> <PUBCHEM_IUPAC_CAS_NAME>
2-[4-[3-[2-[2-(3-methoxyphenyl)ethyl]phenoxy]propyl]-1-piperazinyl]pyrimidine

> <PUBCHEM_IUPAC_NAME_MARKUP>
2-[4-[3-[2-[2-(3-methoxyphenyl)ethyl]phenoxy]propyl]piperazin-1-yl]pyrimidine

> <PUBCHEM_IUPAC_NAME>
2-[4-[3-[2-[2-(3-methoxyphenyl)ethyl]phenoxy]propyl]piperazin-1-yl]pyrimidine

> <PUBCHEM_IUPAC_SYSTEMATIC_NAME>
2-[4-[3-[2-[2-(3-methoxyphenyl)ethyl]phenoxy]propyl]piperazin-1-yl]pyrimidine

> <PUBCHEM_IUPAC_TRADITIONAL_NAME>
2-[4-[3-[2-[2-(3-methoxyphenyl)ethyl]phenoxy]propyl]piperazino]pyrimidine

> <PUBCHEM_IUPAC_INCHI>
InChI=1S/C26H32N4O2/c1-31-24-9-4-7-22(21-24)11-12-23-8-2-3-10-25(23)32-20-6-15-29-16-18-30(19-17-29)26-27-13-5-14-28-26/h2-5,7-10,13-14,21H,6,11-12,15-20H2,1H3

> <PUBCHEM_IUPAC_INCHIKEY>
CYDGNUMWYIAVLK-UHFFFAOYSA-N

> <PUBCHEM_XLOGP3_AA>
4.7

> <PUBCHEM_EXACT_MASS>
432.25252628

> <PUBCHEM_MOLECULAR_FORMULA>
C26H32N4O2

> <PUBCHEM_MOLECULAR_WEIGHT>
432.6

> <PUBCHEM_OPENEYE_CAN_SMILES>
COC1=CC=CC(=C1)CCC2=CC=CC=C2OCCCN3CCN(CC3)C4=NC=CC=N4

> <PUBCHEM_OPENEYE_ISO_SMILES>
COC1=CC=CC(=C1)CCC2=CC=CC=C2OCCCN3CCN(CC3)C4=NC=CC=N4

> <PUBCHEM_CACTVS_TPSA>
50.7

> <PUBCHEM_MONOISOTOPIC_WEIGHT>
432.25252628

> <PUBCHEM_TOTAL_CHARGE>
0

> <PUBCHEM_HEAVY_ATOM_COUNT>
32

> <PUBCHEM_ATOM_DEF_STEREO_COUNT>
0

> <PUBCHEM_ATOM_UDEF_STEREO_COUNT>
0

> <PUBCHEM_BOND_DEF_STEREO_COUNT>
0

> <PUBCHEM_BOND_UDEF_STEREO_COUNT>
0

> <PUBCHEM_ISOTOPIC_ATOM_COUNT>
0

> <PUBCHEM_COMPONENT_COUNT>
1

> <PUBCHEM_CACTVS_TAUTO_COUNT>
-1

> <PUBCHEM_COORDINATE_TYPE>
1
5
255

> <PUBCHEM_BONDANNOTATIONS>
15  16  8
15  21  8
16  22  8
19  24  8
20  24  8
21  25  8
22  26  8
23  27  8
23  28  8
25  26  8
27  29  8
28  30  8
29  31  8
30  31  8
5  13  8
5  19  8
6  13  8
6  20  8

$$$$
