126534746
  -OEChem-09292322372D

 61 65  0     1  0  0  0  0  0999 V2000
   10.4153    2.2926    0.0000 S   0  0  0  0  0  0  0  0  0  0  0  0
    2.9782   -0.6643    0.0000 O   0  0  0  0  0  0  0  0  0  0  0  0
    4.9344   -0.2485    0.0000 N   0  0  3  0  0  0  0  0  0  0  0  0
    7.4153    0.5606    0.0000 N   0  0  3  0  0  0  0  0  0  0  0  0
   12.0031    1.4836    0.0000 N   0  0  0  0  0  0  0  0  0  0  0  0
   12.0031    3.1016    0.0000 N   0  0  0  0  0  0  0  0  0  0  0  0
   12.9542    2.7926    0.0000 N   0  0  0  0  0  0  0  0  0  0  0  0
   14.6767    1.6116    0.0000 N   0  0  0  0  0  0  0  0  0  0  0  0
   14.4677   -0.3775    0.0000 N   0  0  0  0  0  0  0  0  0  0  0  0
    5.8855    1.0606    0.0000 C   0  0  3  0  0  0  0  0  0  0  0  0
    5.8855    0.0606    0.0000 C   0  0  3  0  0  0  0  0  0  0  0  0
    6.8317    1.3653    0.0000 C   0  0  0  0  0  0  0  0  0  0  0  0
    4.9344    1.3696    0.0000 C   0  0  0  0  0  0  0  0  0  0  0  0
    6.8317   -0.2442    0.0000 C   0  0  0  0  0  0  0  0  0  0  0  0
    4.3467    0.5606    0.0000 C   0  0  0  0  0  0  0  0  0  0  0  0
    8.4153    0.5606    0.0000 C   0  0  0  0  0  0  0  0  0  0  0  0
    4.6254   -1.1995    0.0000 C   0  0  0  0  0  0  0  0  0  0  0  0
    8.9153    1.4266    0.0000 C   0  0  0  0  0  0  0  0  0  0  0  0
    3.6473   -1.4074    0.0000 C   0  0  0  0  0  0  0  0  0  0  0  0
    5.2946   -1.9427    0.0000 C   0  0  0  0  0  0  0  0  0  0  0  0
    9.9153    1.4266    0.0000 C   0  0  0  0  0  0  0  0  0  0  0  0
    3.3383   -2.3585    0.0000 C   0  0  0  0  0  0  0  0  0  0  0  0
    4.9855   -2.8937    0.0000 C   0  0  0  0  0  0  0  0  0  0  0  0
    4.0074   -3.1016    0.0000 C   0  0  0  0  0  0  0  0  0  0  0  0
    2.0000   -0.8722    0.0000 C   0  0  0  0  0  0  0  0  0  0  0  0
   11.4153    2.2926    0.0000 C   0  0  0  0  0  0  0  0  0  0  0  0
   12.9542    1.7926    0.0000 C   0  0  0  0  0  0  0  0  0  0  0  0
   11.6941    0.5325    0.0000 C   0  0  0  0  0  0  0  0  0  0  0  0
   13.7632    1.2048    0.0000 C   0  0  0  0  0  0  0  0  0  0  0  0
   13.6587    0.2103    0.0000 C   0  0  0  0  0  0  0  0  0  0  0  0
   15.4857    1.0238    0.0000 C   0  0  0  0  0  0  0  0  0  0  0  0
   15.3812    0.0293    0.0000 C   0  0  0  0  0  0  0  0  0  0  0  0
    5.8863    1.6806    0.0000 H   0  0  0  0  0  0  0  0  0  0  0  0
    5.8863   -0.5594    0.0000 H   0  0  0  0  0  0  0  0  0  0  0  0
    7.3691    1.6745    0.0000 H   0  0  0  0  0  0  0  0  0  0  0  0
    6.5807    1.9322    0.0000 H   0  0  0  0  0  0  0  0  0  0  0  0
    5.1866    1.9360    0.0000 H   0  0  0  0  0  0  0  0  0  0  0  0
    4.3975    1.6796    0.0000 H   0  0  0  0  0  0  0  0  0  0  0  0
    6.5807   -0.8111    0.0000 H   0  0  0  0  0  0  0  0  0  0  0  0
    7.3691   -0.5534    0.0000 H   0  0  0  0  0  0  0  0  0  0  0  0
    3.8859    0.9754    0.0000 H   0  0  0  0  0  0  0  0  0  0  0  0
    3.8859    0.1457    0.0000 H   0  0  0  0  0  0  0  0  0  0  0  0
    8.3077   -0.0500    0.0000 H   0  0  0  0  0  0  0  0  0  0  0  0
    8.9979    0.3485    0.0000 H   0  0  0  0  0  0  0  0  0  0  0  0
    9.0230    2.0372    0.0000 H   0  0  0  0  0  0  0  0  0  0  0  0
    8.3327    1.6386    0.0000 H   0  0  0  0  0  0  0  0  0  0  0  0
    5.9010   -1.8138    0.0000 H   0  0  0  0  0  0  0  0  0  0  0  0
    9.8077    0.8160    0.0000 H   0  0  0  0  0  0  0  0  0  0  0  0
   10.4979    1.2145    0.0000 H   0  0  0  0  0  0  0  0  0  0  0  0
    2.7318   -2.4874    0.0000 H   0  0  0  0  0  0  0  0  0  0  0  0
    5.4004   -3.3545    0.0000 H   0  0  0  0  0  0  0  0  0  0  0  0
    3.8158   -3.6913    0.0000 H   0  0  0  0  0  0  0  0  0  0  0  0
    1.8711   -0.2657    0.0000 H   0  0  0  0  0  0  0  0  0  0  0  0
    1.3936   -1.0011    0.0000 H   0  0  0  0  0  0  0  0  0  0  0  0
    2.1289   -1.4786    0.0000 H   0  0  0  0  0  0  0  0  0  0  0  0
   11.1044    0.7241    0.0000 H   0  0  0  0  0  0  0  0  0  0  0  0
   11.5025   -0.0571    0.0000 H   0  0  0  0  0  0  0  0  0  0  0  0
   12.2838    0.3409    0.0000 H   0  0  0  0  0  0  0  0  0  0  0  0
   13.0923   -0.0419    0.0000 H   0  0  0  0  0  0  0  0  0  0  0  0
   16.0521    1.2760    0.0000 H   0  0  0  0  0  0  0  0  0  0  0  0
   15.8828   -0.3352    0.0000 H   0  0  0  0  0  0  0  0  0  0  0  0
  1 21  1  0  0  0  0
  1 26  1  0  0  0  0
  2 19  1  0  0  0  0
  2 25  1  0  0  0  0
  3 11  1  0  0  0  0
  3 15  1  0  0  0  0
  3 17  1  0  0  0  0
  4 12  1  0  0  0  0
  4 14  1  0  0  0  0
  4 16  1  0  0  0  0
  5 26  1  0  0  0  0
  5 27  1  0  0  0  0
  5 28  1  0  0  0  0
  6  7  1  0  0  0  0
  6 26  2  0  0  0  0
  7 27  2  0  0  0  0
  8 29  2  0  0  0  0
  8 31  1  0  0  0  0
  9 30  2  0  0  0  0
  9 32  1  0  0  0  0
 10 11  1  0  0  0  0
 10 12  1  0  0  0  0
 10 13  1  0  0  0  0
 10 33  1  0  0  0  0
 11 14  1  0  0  0  0
 11 34  1  0  0  0  0
 12 35  1  0  0  0  0
 12 36  1  0  0  0  0
 13 15  1  0  0  0  0
 13 37  1  0  0  0  0
 13 38  1  0  0  0  0
 14 39  1  0  0  0  0
 14 40  1  0  0  0  0
 15 41  1  0  0  0  0
 15 42  1  0  0  0  0
 16 18  1  0  0  0  0
 16 43  1  0  0  0  0
 16 44  1  0  0  0  0
 17 19  1  0  0  0  0
 17 20  2  0  0  0  0
 18 21  1  0  0  0  0
 18 45  1  0  0  0  0
 18 46  1  0  0  0  0
 19 22  2  0  0  0  0
 20 23  1  0  0  0  0
 20 47  1  0  0  0  0
 21 48  1  0  0  0  0
 21 49  1  0  0  0  0
 22 24  1  0  0  0  0
 22 50  1  0  0  0  0
 23 24  2  0  0  0  0
 23 51  1  0  0  0  0
 24 52  1  0  0  0  0
 25 53  1  0  0  0  0
 25 54  1  0  0  0  0
 25 55  1  0  0  0  0
 27 29  1  0  0  0  0
 28 56  1  0  0  0  0
 28 57  1  0  0  0  0
 28 58  1  0  0  0  0
 29 30  1  0  0  0  0
 30 59  1  0  0  0  0
 31 32  2  0  0  0  0
 31 60  1  0  0  0  0
 32 61  1  0  0  0  0
M  END
> <PUBCHEM_COMPOUND_CID>
126534746

> <PUBCHEM_COMPOUND_CANONICALIZED>
1

> <PUBCHEM_CACTVS_COMPLEXITY>
601

> <PUBCHEM_CACTVS_HBOND_ACCEPTOR>
8

> <PUBCHEM_CACTVS_HBOND_DONOR>
0

> <PUBCHEM_CACTVS_ROTATABLE_BOND>
8

> <PUBCHEM_CACTVS_SUBSKEYS>
AAADceB7oABAAAAAAAAAAAAAAAAAAWLFgAA8QAAAAAAWAAAB8AAAHgQIAAAADSzF1wa/1pcMFAiiATZnZACS2C9xMrAd2CA/fJiObuLk+ZuVMChkyBPY6AeQQAAKAAAAAAAAEAAAAAAAAAAgAAAAAAAAAA==

> <PUBCHEM_IUPAC_OPENEYE_NAME>
1-(2-methoxyphenyl)-5-[3-[(4-methyl-5-pyrazin-2-yl-1,2,4-triazol-3-yl)sulfanyl]propyl]-2,3,3a,4,6,6a-hexahydropyrrolo[2,3-c]pyrrole

> <PUBCHEM_IUPAC_CAS_NAME>
1-(2-methoxyphenyl)-5-[3-[[4-methyl-5-(2-pyrazinyl)-1,2,4-triazol-3-yl]thio]propyl]-2,3,3a,4,6,6a-hexahydropyrrolo[2,3-c]pyrrole

> <PUBCHEM_IUPAC_NAME_MARKUP>
1-(2-methoxyphenyl)-5-[3-[(4-methyl-5-pyrazin-2-yl-1,2,4-triazol-3-yl)sulfanyl]propyl]-2,3,3<I>a</I>,4,6,6<I>a</I>-hexahydropyrrolo[2,3-c]pyrrole

> <PUBCHEM_IUPAC_NAME>
1-(2-methoxyphenyl)-5-[3-[(4-methyl-5-pyrazin-2-yl-1,2,4-triazol-3-yl)sulfanyl]propyl]-2,3,3a,4,6,6a-hexahydropyrrolo[2,3-c]pyrrole

> <PUBCHEM_IUPAC_SYSTEMATIC_NAME>
1-(2-methoxyphenyl)-5-[3-[(4-methyl-5-pyrazin-2-yl-1,2,4-triazol-3-yl)sulfanyl]propyl]-2,3,3a,4,6,6a-hexahydropyrrolo[2,3-c]pyrrole

> <PUBCHEM_IUPAC_TRADITIONAL_NAME>
1-(2-methoxyphenyl)-5-[3-[(4-methyl-5-pyrazin-2-yl-1,2,4-triazol-3-yl)thio]propyl]-2,3,3a,4,6,6a-hexahydropyrrolo[2,3-c]pyrrole

> <PUBCHEM_IUPAC_INCHI>
InChI=1S/C23H29N7OS/c1-28-22(18-14-24-9-10-25-18)26-27-23(28)32-13-5-11-29-15-17-8-12-30(20(17)16-29)19-6-3-4-7-21(19)31-2/h3-4,6-7,9-10,14,17,20H,5,8,11-13,15-16H2,1-2H3

> <PUBCHEM_IUPAC_INCHIKEY>
JOHOQMIETZSDOL-UHFFFAOYSA-N

> <PUBCHEM_XLOGP3_AA>
2.2

> <PUBCHEM_EXACT_MASS>
451.21542975

> <PUBCHEM_MOLECULAR_FORMULA>
C23H29N7OS

> <PUBCHEM_MOLECULAR_WEIGHT>
451.6

> <PUBCHEM_OPENEYE_CAN_SMILES>
CN1C(=NN=C1SCCCN2CC3CCN(C3C2)C4=CC=CC=C4OC)C5=NC=CN=C5

> <PUBCHEM_OPENEYE_ISO_SMILES>
CN1C(=NN=C1SCCCN2CC3CCN(C3C2)C4=CC=CC=C4OC)C5=NC=CN=C5

> <PUBCHEM_CACTVS_TPSA>
97.5

> <PUBCHEM_MONOISOTOPIC_WEIGHT>
451.21542975

> <PUBCHEM_TOTAL_CHARGE>
0

> <PUBCHEM_HEAVY_ATOM_COUNT>
32

> <PUBCHEM_ATOM_DEF_STEREO_COUNT>
0

> <PUBCHEM_ATOM_UDEF_STEREO_COUNT>
2

> <PUBCHEM_BOND_DEF_STEREO_COUNT>
0

> <PUBCHEM_BOND_UDEF_STEREO_COUNT>
0

> <PUBCHEM_ISOTOPIC_ATOM_COUNT>
0

> <PUBCHEM_COMPONENT_COUNT>
1

> <PUBCHEM_CACTVS_TAUTO_COUNT>
-1

> <PUBCHEM_COORDINATE_TYPE>
1
5
255

> <PUBCHEM_BONDANNOTATIONS>
10  13  3
11  14  3
17  19  8
17  20  8
19  22  8
20  23  8
22  24  8
23  24  8
29  30  8
31  32  8
5  26  8
5  27  8
6  26  8
6  7  8
7  27  8
8  29  8
8  31  8
9  30  8
9  32  8

$$$$
