72736382
  -OEChem-09292322342D

 62 64  0     0  0  0  0  0  0999 V2000
    2.0000   -3.7500    0.0000 Cl  0  0  0  0  0  0  0  0  0  0  0  0
    2.0000   -5.7500    0.0000 Cl  0  0  0  0  0  0  0  0  0  0  0  0
    8.0622    3.7500    0.0000 O   0  0  0  0  0  0  0  0  0  0  0  0
    6.3301    3.7500    0.0000 O   0  0  0  0  0  0  0  0  0  0  0  0
    3.7320   -0.7500    0.0000 N   0  0  0  0  0  0  0  0  0  0  0  0
    7.1962    2.2500    0.0000 N   0  0  0  0  0  0  0  0  0  0  0  0
    3.7320   -2.7500    0.0000 N   0  0  0  0  0  0  0  0  0  0  0  0
    4.5981    0.7500    0.0000 C   0  0  0  0  0  0  0  0  0  0  0  0
    5.4641    0.2500    0.0000 C   0  0  0  0  0  0  0  0  0  0  0  0
    4.5981    1.7500    0.0000 C   0  0  0  0  0  0  0  0  0  0  0  0
    6.3301    1.7500    0.0000 C   0  0  0  0  0  0  0  0  0  0  0  0
    6.3301    0.7500    0.0000 C   0  0  0  0  0  0  0  0  0  0  0  0
    5.4641    2.2500    0.0000 C   0  0  0  0  0  0  0  0  0  0  0  0
    3.7320    0.2500    0.0000 C   0  0  0  0  0  0  0  0  0  0  0  0
    2.8660   -1.2500    0.0000 C   0  0  0  0  0  0  0  0  0  0  0  0
    4.5981   -1.2500    0.0000 C   0  0  0  0  0  0  0  0  0  0  0  0
    2.8660   -2.2500    0.0000 C   0  0  0  0  0  0  0  0  0  0  0  0
    4.5981   -2.2500    0.0000 C   0  0  0  0  0  0  0  0  0  0  0  0
    3.7320   -3.7500    0.0000 C   0  0  0  0  0  0  0  0  0  0  0  0
    7.1962    3.2500    0.0000 C   0  0  0  0  0  0  0  0  0  0  0  0
    2.8660   -4.2500    0.0000 C   0  0  0  0  0  0  0  0  0  0  0  0
    4.5981   -4.2500    0.0000 C   0  0  0  0  0  0  0  0  0  0  0  0
    8.0622    4.7500    0.0000 C   0  0  0  0  0  0  0  0  0  0  0  0
    2.8660   -5.2500    0.0000 C   0  0  0  0  0  0  0  0  0  0  0  0
    4.5981   -5.2500    0.0000 C   0  0  0  0  0  0  0  0  0  0  0  0
    8.0622    5.7500    0.0000 C   0  0  0  0  0  0  0  0  0  0  0  0
    9.0622    4.7500    0.0000 C   0  0  0  0  0  0  0  0  0  0  0  0
    7.0622    4.7500    0.0000 C   0  0  0  0  0  0  0  0  0  0  0  0
    3.7320   -5.7500    0.0000 C   0  0  0  0  0  0  0  0  0  0  0  0
    4.5981    0.1300    0.0000 H   0  0  0  0  0  0  0  0  0  0  0  0
    5.0656   -0.2249    0.0000 H   0  0  0  0  0  0  0  0  0  0  0  0
    5.8626   -0.2249    0.0000 H   0  0  0  0  0  0  0  0  0  0  0  0
    4.3860    2.3326    0.0000 H   0  0  0  0  0  0  0  0  0  0  0  0
    3.9875    1.6423    0.0000 H   0  0  0  0  0  0  0  0  0  0  0  0
    6.8671    1.4400    0.0000 H   0  0  0  0  0  0  0  0  0  0  0  0
    3.5200    0.8326    0.0000 H   0  0  0  0  0  0  0  0  0  0  0  0
    3.1215    0.1423    0.0000 H   0  0  0  0  0  0  0  0  0  0  0  0
    6.5422    0.1674    0.0000 H   0  0  0  0  0  0  0  0  0  0  0  0
    6.9407    0.8577    0.0000 H   0  0  0  0  0  0  0  0  0  0  0  0
    5.8626    2.7250    0.0000 H   0  0  0  0  0  0  0  0  0  0  0  0
    5.0656    2.7250    0.0000 H   0  0  0  0  0  0  0  0  0  0  0  0
    2.6540   -0.6674    0.0000 H   0  0  0  0  0  0  0  0  0  0  0  0
    2.2554   -1.3577    0.0000 H   0  0  0  0  0  0  0  0  0  0  0  0
    5.2087   -1.3577    0.0000 H   0  0  0  0  0  0  0  0  0  0  0  0
    4.8101   -0.6674    0.0000 H   0  0  0  0  0  0  0  0  0  0  0  0
    2.2554   -2.1423    0.0000 H   0  0  0  0  0  0  0  0  0  0  0  0
    2.6540   -2.8326    0.0000 H   0  0  0  0  0  0  0  0  0  0  0  0
    4.8101   -2.8326    0.0000 H   0  0  0  0  0  0  0  0  0  0  0  0
    5.2087   -2.1423    0.0000 H   0  0  0  0  0  0  0  0  0  0  0  0
    7.7331    1.9400    0.0000 H   0  0  0  0  0  0  0  0  0  0  0  0
    5.1350   -3.9400    0.0000 H   0  0  0  0  0  0  0  0  0  0  0  0
    5.1350   -5.5600    0.0000 H   0  0  0  0  0  0  0  0  0  0  0  0
    8.6822    5.7500    0.0000 H   0  0  0  0  0  0  0  0  0  0  0  0
    8.0622    6.3700    0.0000 H   0  0  0  0  0  0  0  0  0  0  0  0
    7.4422    5.7500    0.0000 H   0  0  0  0  0  0  0  0  0  0  0  0
    9.0622    4.1300    0.0000 H   0  0  0  0  0  0  0  0  0  0  0  0
    9.6822    4.7500    0.0000 H   0  0  0  0  0  0  0  0  0  0  0  0
    9.0622    5.3700    0.0000 H   0  0  0  0  0  0  0  0  0  0  0  0
    7.0622    5.3700    0.0000 H   0  0  0  0  0  0  0  0  0  0  0  0
    6.4422    4.7500    0.0000 H   0  0  0  0  0  0  0  0  0  0  0  0
    7.0622    4.1300    0.0000 H   0  0  0  0  0  0  0  0  0  0  0  0
    3.7320   -6.3700    0.0000 H   0  0  0  0  0  0  0  0  0  0  0  0
  1 21  1  0  0  0  0
  2 24  1  0  0  0  0
  3 20  1  0  0  0  0
  3 23  1  0  0  0  0
  4 20  2  0  0  0  0
  5 14  1  0  0  0  0
  5 15  1  0  0  0  0
  5 16  1  0  0  0  0
  6 11  1  0  0  0  0
  6 20  1  0  0  0  0
  6 50  1  0  0  0  0
  7 17  1  0  0  0  0
  7 18  1  0  0  0  0
  7 19  1  0  0  0  0
  8  9  1  0  0  0  0
  8 10  1  0  0  0  0
  8 14  1  0  0  0  0
  8 30  1  0  0  0  0
  9 12  1  0  0  0  0
  9 31  1  0  0  0  0
  9 32  1  0  0  0  0
 10 13  1  0  0  0  0
 10 33  1  0  0  0  0
 10 34  1  0  0  0  0
 11 12  1  0  0  0  0
 11 13  1  0  0  0  0
 11 35  1  0  0  0  0
 12 38  1  0  0  0  0
 12 39  1  0  0  0  0
 13 40  1  0  0  0  0
 13 41  1  0  0  0  0
 14 36  1  0  0  0  0
 14 37  1  0  0  0  0
 15 17  1  0  0  0  0
 15 42  1  0  0  0  0
 15 43  1  0  0  0  0
 16 18  1  0  0  0  0
 16 44  1  0  0  0  0
 16 45  1  0  0  0  0
 17 46  1  0  0  0  0
 17 47  1  0  0  0  0
 18 48  1  0  0  0  0
 18 49  1  0  0  0  0
 19 21  2  0  0  0  0
 19 22  1  0  0  0  0
 21 24  1  0  0  0  0
 22 25  2  0  0  0  0
 22 51  1  0  0  0  0
 23 26  1  0  0  0  0
 23 27  1  0  0  0  0
 23 28  1  0  0  0  0
 24 29  2  0  0  0  0
 25 29  1  0  0  0  0
 25 52  1  0  0  0  0
 26 53  1  0  0  0  0
 26 54  1  0  0  0  0
 26 55  1  0  0  0  0
 27 56  1  0  0  0  0
 27 57  1  0  0  0  0
 27 58  1  0  0  0  0
 28 59  1  0  0  0  0
 28 60  1  0  0  0  0
 28 61  1  0  0  0  0
 29 62  1  0  0  0  0
M  END
> <PUBCHEM_COMPOUND_CID>
72736382

> <PUBCHEM_COMPOUND_CANONICALIZED>
1

> <PUBCHEM_CACTVS_COMPLEXITY>
527

> <PUBCHEM_CACTVS_HBOND_ACCEPTOR>
4

> <PUBCHEM_CACTVS_HBOND_DONOR>
1

> <PUBCHEM_CACTVS_ROTATABLE_BOND>
6

> <PUBCHEM_CACTVS_SUBSKEYS>
AAADcfB7MAAGAAAAAAAAAAAAAAAAAAAAAAA8YIAAAAAAAAABAAAAHgIQAAAADW7BkCQyyIPABACIACRCWACCAAAhBwAIisAIZokIYCLBk5HcIAhglgDIyAcQgAAOAAAAAAIAABQQAAAABAAAKAAAAAAAAA==

> <PUBCHEM_IUPAC_OPENEYE_NAME>
tert-butyl N-[4-[[4-(2,3-dichlorophenyl)piperazin-1-yl]methyl]cyclohexyl]carbamate

> <PUBCHEM_IUPAC_CAS_NAME>
N-[4-[[4-(2,3-dichlorophenyl)-1-piperazinyl]methyl]cyclohexyl]carbamic acid tert-butyl ester

> <PUBCHEM_IUPAC_NAME_MARKUP>
<I>tert</I>-butyl <I>N</I>-[4-[[4-(2,3-dichlorophenyl)piperazin-1-yl]methyl]cyclohexyl]carbamate

> <PUBCHEM_IUPAC_NAME>
tert-butyl N-[4-[[4-(2,3-dichlorophenyl)piperazin-1-yl]methyl]cyclohexyl]carbamate

> <PUBCHEM_IUPAC_SYSTEMATIC_NAME>
tert-butyl N-[4-[[4-[2,3-bis(chloranyl)phenyl]piperazin-1-yl]methyl]cyclohexyl]carbamate

> <PUBCHEM_IUPAC_TRADITIONAL_NAME>
N-[4-[[4-(2,3-dichlorophenyl)piperazino]methyl]cyclohexyl]carbamic acid tert-butyl ester

> <PUBCHEM_IUPAC_INCHI>
InChI=1S/C22H33Cl2N3O2/c1-22(2,3)29-21(28)25-17-9-7-16(8-10-17)15-26-11-13-27(14-12-26)19-6-4-5-18(23)20(19)24/h4-6,16-17H,7-15H2,1-3H3,(H,25,28)

> <PUBCHEM_IUPAC_INCHIKEY>
RTTAPDGDCXXJHV-UHFFFAOYSA-N

> <PUBCHEM_XLOGP3_AA>
5.3

> <PUBCHEM_EXACT_MASS>
441.1949827

> <PUBCHEM_MOLECULAR_FORMULA>
C22H33Cl2N3O2

> <PUBCHEM_MOLECULAR_WEIGHT>
442.4

> <PUBCHEM_OPENEYE_CAN_SMILES>
CC(C)(C)OC(=O)NC1CCC(CC1)CN2CCN(CC2)C3=C(C(=CC=C3)Cl)Cl

> <PUBCHEM_OPENEYE_ISO_SMILES>
CC(C)(C)OC(=O)NC1CCC(CC1)CN2CCN(CC2)C3=C(C(=CC=C3)Cl)Cl

> <PUBCHEM_CACTVS_TPSA>
44.8

> <PUBCHEM_MONOISOTOPIC_WEIGHT>
441.1949827

> <PUBCHEM_TOTAL_CHARGE>
0

> <PUBCHEM_HEAVY_ATOM_COUNT>
29

> <PUBCHEM_ATOM_DEF_STEREO_COUNT>
0

> <PUBCHEM_ATOM_UDEF_STEREO_COUNT>
0

> <PUBCHEM_BOND_DEF_STEREO_COUNT>
0

> <PUBCHEM_BOND_UDEF_STEREO_COUNT>
0

> <PUBCHEM_ISOTOPIC_ATOM_COUNT>
0

> <PUBCHEM_COMPONENT_COUNT>
1

> <PUBCHEM_CACTVS_TAUTO_COUNT>
-1

> <PUBCHEM_COORDINATE_TYPE>
1
5
255

> <PUBCHEM_BONDANNOTATIONS>
19  21  8
19  22  8
21  24  8
22  25  8
24  29  8
25  29  8

$$$$
