145976120
  -OEChem-09292322382D

 63 63  0     0  0  0  0  0  0999 V2000
    0.0000    7.0785    0.0000 Cl  0  0  0  0  0  0  0  0  0  0  0  0
    3.0000    7.0785    0.0000 Cl  0  0  0  0  0  0  0  0  0  0  0  0
    8.2690    4.6200    0.0000 O   0  0  0  0  0  0  0  0  0  0  0  0
   10.0010   13.6200    0.0000 O   0  0  0  0  0  0  0  0  0  0  0  0
   10.0010    7.6200    0.0000 N   0  0  0  0  0  0  0  0  0  0  0  0
   10.0010    9.6200    0.0000 N   0  0  0  0  0  0  0  0  0  0  0  0
   10.8671    8.1200    0.0000 C   0  0  0  0  0  0  0  0  0  0  0  0
    9.1350    8.1200    0.0000 C   0  0  0  0  0  0  0  0  0  0  0  0
   10.8671    9.1200    0.0000 C   0  0  0  0  0  0  0  0  0  0  0  0
    9.1350    9.1200    0.0000 C   0  0  0  0  0  0  0  0  0  0  0  0
   10.0010    6.6200    0.0000 C   0  0  0  0  0  0  0  0  0  0  0  0
    9.1350    6.1200    0.0000 C   0  0  0  0  0  0  0  0  0  0  0  0
   10.0010   10.6200    0.0000 C   0  0  0  0  0  0  0  0  0  0  0  0
    9.1350    5.1200    0.0000 C   0  0  0  0  0  0  0  0  0  0  0  0
    9.1350   11.1200    0.0000 C   0  0  0  0  0  0  0  0  0  0  0  0
   10.8671   11.1200    0.0000 C   0  0  0  0  0  0  0  0  0  0  0  0
    9.1350   12.1200    0.0000 C   0  0  0  0  0  0  0  0  0  0  0  0
   10.8671   12.1200    0.0000 C   0  0  0  0  0  0  0  0  0  0  0  0
    8.2690    3.6200    0.0000 C   0  0  0  0  0  0  0  0  0  0  0  0
   10.0010   12.6200    0.0000 C   0  0  0  0  0  0  0  0  0  0  0  0
    7.4030    3.1200    0.0000 C   0  0  0  0  0  0  0  0  0  0  0  0
    9.1350    3.1200    0.0000 C   0  0  0  0  0  0  0  0  0  0  0  0
    7.4030    2.1200    0.0000 C   0  0  0  0  0  0  0  0  0  0  0  0
    9.1350    2.1200    0.0000 C   0  0  0  0  0  0  0  0  0  0  0  0
    8.2690    1.6200    0.0000 C   0  0  0  0  0  0  0  0  0  0  0  0
    6.5369    3.6200    0.0000 C   0  0  0  0  0  0  0  0  0  0  0  0
   10.0010    3.6200    0.0000 C   0  0  0  0  0  0  0  0  0  0  0  0
    8.2690    0.6200    0.0000 C   0  0  0  0  0  0  0  0  0  0  0  0
   10.8671   14.1200    0.0000 C   0  0  0  0  0  0  0  0  0  0  0  0
   11.0791    7.5374    0.0000 H   0  0  0  0  0  0  0  0  0  0  0  0
   11.4776    8.2277    0.0000 H   0  0  0  0  0  0  0  0  0  0  0  0
    8.5244    8.2277    0.0000 H   0  0  0  0  0  0  0  0  0  0  0  0
    8.9230    7.5374    0.0000 H   0  0  0  0  0  0  0  0  0  0  0  0
   11.4776    9.0123    0.0000 H   0  0  0  0  0  0  0  0  0  0  0  0
   11.0791    9.7026    0.0000 H   0  0  0  0  0  0  0  0  0  0  0  0
    8.9230    9.7026    0.0000 H   0  0  0  0  0  0  0  0  0  0  0  0
    8.5244    9.0123    0.0000 H   0  0  0  0  0  0  0  0  0  0  0  0
   10.2131    6.0374    0.0000 H   0  0  0  0  0  0  0  0  0  0  0  0
   10.6116    6.7277    0.0000 H   0  0  0  0  0  0  0  0  0  0  0  0
    8.9230    6.7026    0.0000 H   0  0  0  0  0  0  0  0  0  0  0  0
    8.5244    6.0123    0.0000 H   0  0  0  0  0  0  0  0  0  0  0  0
    9.3471    4.5374    0.0000 H   0  0  0  0  0  0  0  0  0  0  0  0
    9.7456    5.2277    0.0000 H   0  0  0  0  0  0  0  0  0  0  0  0
    8.5981   10.8100    0.0000 H   0  0  0  0  0  0  0  0  0  0  0  0
   11.4040   10.8100    0.0000 H   0  0  0  0  0  0  0  0  0  0  0  0
    8.5981   12.4300    0.0000 H   0  0  0  0  0  0  0  0  0  0  0  0
   11.4040   12.4300    0.0000 H   0  0  0  0  0  0  0  0  0  0  0  0
    6.8660    1.8100    0.0000 H   0  0  0  0  0  0  0  0  0  0  0  0
    9.6720    1.8100    0.0000 H   0  0  0  0  0  0  0  0  0  0  0  0
    6.8469    4.1569    0.0000 H   0  0  0  0  0  0  0  0  0  0  0  0
    6.0000    3.9300    0.0000 H   0  0  0  0  0  0  0  0  0  0  0  0
    6.2269    3.0831    0.0000 H   0  0  0  0  0  0  0  0  0  0  0  0
   10.3110    3.0831    0.0000 H   0  0  0  0  0  0  0  0  0  0  0  0
   10.5380    3.9300    0.0000 H   0  0  0  0  0  0  0  0  0  0  0  0
    9.6910    4.1569    0.0000 H   0  0  0  0  0  0  0  0  0  0  0  0
    7.6490    0.6200    0.0000 H   0  0  0  0  0  0  0  0  0  0  0  0
    8.2690    0.0000    0.0000 H   0  0  0  0  0  0  0  0  0  0  0  0
    8.8890    0.6200    0.0000 H   0  0  0  0  0  0  0  0  0  0  0  0
   11.1771   13.5831    0.0000 H   0  0  0  0  0  0  0  0  0  0  0  0
   11.4040   14.4300    0.0000 H   0  0  0  0  0  0  0  0  0  0  0  0
   10.5571   14.6569    0.0000 H   0  0  0  0  0  0  0  0  0  0  0  0
    1.0000    7.0785    0.0000 H   0  0  0  0  0  0  0  0  0  0  0  0
    4.0000    7.0785    0.0000 H   0  0  0  0  0  0  0  0  0  0  0  0
  1 62  1  0  0  0  0
  2 63  1  0  0  0  0
  3 14  1  0  0  0  0
  3 19  1  0  0  0  0
  4 20  1  0  0  0  0
  4 29  1  0  0  0  0
  5  7  1  0  0  0  0
  5  8  1  0  0  0  0
  5 11  1  0  0  0  0
  6  9  1  0  0  0  0
  6 10  1  0  0  0  0
  6 13  1  0  0  0  0
  7  9  1  0  0  0  0
  7 30  1  0  0  0  0
  7 31  1  0  0  0  0
  8 10  1  0  0  0  0
  8 32  1  0  0  0  0
  8 33  1  0  0  0  0
  9 34  1  0  0  0  0
  9 35  1  0  0  0  0
 10 36  1  0  0  0  0
 10 37  1  0  0  0  0
 11 12  1  0  0  0  0
 11 38  1  0  0  0  0
 11 39  1  0  0  0  0
 12 14  1  0  0  0  0
 12 40  1  0  0  0  0
 12 41  1  0  0  0  0
 13 15  2  0  0  0  0
 13 16  1  0  0  0  0
 14 42  1  0  0  0  0
 14 43  1  0  0  0  0
 15 17  1  0  0  0  0
 15 44  1  0  0  0  0
 16 18  2  0  0  0  0
 16 45  1  0  0  0  0
 17 20  2  0  0  0  0
 17 46  1  0  0  0  0
 18 20  1  0  0  0  0
 18 47  1  0  0  0  0
 19 21  2  0  0  0  0
 19 22  1  0  0  0  0
 21 23  1  0  0  0  0
 21 26  1  0  0  0  0
 22 24  2  0  0  0  0
 22 27  1  0  0  0  0
 23 25  2  0  0  0  0
 23 48  1  0  0  0  0
 24 25  1  0  0  0  0
 24 49  1  0  0  0  0
 25 28  1  0  0  0  0
 26 50  1  0  0  0  0
 26 51  1  0  0  0  0
 26 52  1  0  0  0  0
 27 53  1  0  0  0  0
 27 54  1  0  0  0  0
 27 55  1  0  0  0  0
 28 56  1  0  0  0  0
 28 57  1  0  0  0  0
 28 58  1  0  0  0  0
 29 59  1  0  0  0  0
 29 60  1  0  0  0  0
 29 61  1  0  0  0  0
M  END
> <PUBCHEM_COMPOUND_CID>
145976120

> <PUBCHEM_COMPOUND_CANONICALIZED>
1

> <PUBCHEM_CACTVS_COMPLEXITY>
405

> <PUBCHEM_CACTVS_HBOND_ACCEPTOR>
4

> <PUBCHEM_CACTVS_HBOND_DONOR>
2

> <PUBCHEM_CACTVS_ROTATABLE_BOND>
7

> <PUBCHEM_CACTVS_SUBSKEYS>
AAADcfB7MAAGAAAAAAAAAAAAAAAAAAAAAAA8YIAAAAAAAAABQAAAHgAAAAAADAzhmAYyxoMABACAAiRCQACCCAAhIgAIiAAObIgMZiLEsZuWOCjmwBHI6AewwGAOIEACAAAIAABAgAQAABAAAAAAAAAAAA==

> <PUBCHEM_IUPAC_OPENEYE_NAME>
1-(4-methoxyphenyl)-4-[3-(2,4,6-trimethylphenoxy)propyl]piperazine;dihydrochloride

> <PUBCHEM_IUPAC_CAS_NAME>
1-(4-methoxyphenyl)-4-[3-(2,4,6-trimethylphenoxy)propyl]piperazine;dihydrochloride

> <PUBCHEM_IUPAC_NAME_MARKUP>
1-(4-methoxyphenyl)-4-[3-(2,4,6-trimethylphenoxy)propyl]piperazine;dihydrochloride

> <PUBCHEM_IUPAC_NAME>
1-(4-methoxyphenyl)-4-[3-(2,4,6-trimethylphenoxy)propyl]piperazine;dihydrochloride

> <PUBCHEM_IUPAC_SYSTEMATIC_NAME>
1-(4-methoxyphenyl)-4-[3-(2,4,6-trimethylphenoxy)propyl]piperazine;dihydrochloride

> <PUBCHEM_IUPAC_TRADITIONAL_NAME>
1-(4-methoxyphenyl)-4-[3-(2,4,6-trimethylphenoxy)propyl]piperazine;dihydrochloride

> <PUBCHEM_IUPAC_INCHI>
InChI=1S/C23H32N2O2.2ClH/c1-18-16-19(2)23(20(3)17-18)27-15-5-10-24-11-13-25(14-12-24)21-6-8-22(26-4)9-7-21;;/h6-9,16-17H,5,10-15H2,1-4H3;2*1H

> <PUBCHEM_IUPAC_INCHIKEY>
PIDNTMJUJXPPFC-UHFFFAOYSA-N

> <PUBCHEM_EXACT_MASS>
440.1997337

> <PUBCHEM_MOLECULAR_FORMULA>
C23H34Cl2N2O2

> <PUBCHEM_MOLECULAR_WEIGHT>
441.4

> <PUBCHEM_OPENEYE_CAN_SMILES>
CC1=CC(=C(C(=C1)C)OCCCN2CCN(CC2)C3=CC=C(C=C3)OC)C.Cl.Cl

> <PUBCHEM_OPENEYE_ISO_SMILES>
CC1=CC(=C(C(=C1)C)OCCCN2CCN(CC2)C3=CC=C(C=C3)OC)C.Cl.Cl

> <PUBCHEM_CACTVS_TPSA>
24.9

> <PUBCHEM_MONOISOTOPIC_WEIGHT>
440.1997337

> <PUBCHEM_TOTAL_CHARGE>
0

> <PUBCHEM_HEAVY_ATOM_COUNT>
29

> <PUBCHEM_ATOM_DEF_STEREO_COUNT>
0

> <PUBCHEM_ATOM_UDEF_STEREO_COUNT>
0

> <PUBCHEM_BOND_DEF_STEREO_COUNT>
0

> <PUBCHEM_BOND_UDEF_STEREO_COUNT>
0

> <PUBCHEM_ISOTOPIC_ATOM_COUNT>
0

> <PUBCHEM_COMPONENT_COUNT>
3

> <PUBCHEM_CACTVS_TAUTO_COUNT>
-1

> <PUBCHEM_COORDINATE_TYPE>
1
5
255

> <PUBCHEM_BONDANNOTATIONS>
13  15  8
13  16  8
15  17  8
16  18  8
17  20  8
18  20  8
19  21  8
19  22  8
21  23  8
22  24  8
23  25  8
24  25  8

$$$$
