10763756
  -OEChem-09292321592D

 58 61  0     0  0  0  0  0  0999 V2000
   10.6718   -1.6920    0.0000 O   0  0  0  0  0  0  0  0  0  0  0  0
   15.9339   -1.6679    0.0000 O   0  0  0  0  0  0  0  0  0  0  0  0
    6.3397   -1.2087    0.0000 N   0  0  0  0  0  0  0  0  0  0  0  0
    4.6038   -0.2154    0.0000 N   0  0  0  0  0  0  0  0  0  0  0  0
   14.2019   -1.6679    0.0000 N   0  0  0  0  0  0  0  0  0  0  0  0
    5.4602    2.2879    0.0000 N   0  0  0  0  0  0  0  0  0  0  0  0
    6.3359   -0.2087    0.0000 C   0  0  0  0  0  0  0  0  0  0  0  0
    5.4756   -1.7121    0.0000 C   0  0  0  0  0  0  0  0  0  0  0  0
    5.4679    0.2879    0.0000 C   0  0  0  0  0  0  0  0  0  0  0  0
    4.6077   -1.2154    0.0000 C   0  0  0  0  0  0  0  0  0  0  0  0
    7.2077   -1.7054    0.0000 C   0  0  0  0  0  0  0  0  0  0  0  0
    8.0718   -1.2021    0.0000 C   0  0  0  0  0  0  0  0  0  0  0  0
    3.7359    0.2812    0.0000 C   0  0  0  0  0  0  0  0  0  0  0  0
    8.9397   -1.6987    0.0000 C   0  0  0  0  0  0  0  0  0  0  0  0
    9.8038   -1.1954    0.0000 C   0  0  0  0  0  0  0  0  0  0  0  0
    3.7320    1.2812    0.0000 C   0  0  0  0  0  0  0  0  0  0  0  0
    2.8718   -0.2221    0.0000 C   0  0  0  0  0  0  0  0  0  0  0  0
   13.3359   -0.1679    0.0000 C   0  0  0  0  0  0  0  0  0  0  0  0
   14.2019    0.3321    0.0000 C   0  0  0  0  0  0  0  0  0  0  0  0
   13.3359   -1.1679    0.0000 C   0  0  0  0  0  0  0  0  0  0  0  0
    2.8641    1.7779    0.0000 C   0  0  0  0  0  0  0  0  0  0  0  0
   11.5358   -1.1887    0.0000 C   0  0  0  0  0  0  0  0  0  0  0  0
    2.0038    0.2746    0.0000 C   0  0  0  0  0  0  0  0  0  0  0  0
   15.0679   -0.1679    0.0000 C   0  0  0  0  0  0  0  0  0  0  0  0
   12.4419   -1.7026    0.0000 C   0  0  0  0  0  0  0  0  0  0  0  0
    2.0000    1.2746    0.0000 C   0  0  0  0  0  0  0  0  0  0  0  0
   12.4419    0.3668    0.0000 C   0  0  0  0  0  0  0  0  0  0  0  0
   11.5358   -0.1471    0.0000 C   0  0  0  0  0  0  0  0  0  0  0  0
   15.0679   -1.1679    0.0000 C   0  0  0  0  0  0  0  0  0  0  0  0
    4.5961    1.7846    0.0000 C   0  0  0  0  0  0  0  0  0  0  0  0
    6.9469   -0.3141    0.0000 H   0  0  0  0  0  0  0  0  0  0  0  0
    6.5457    0.3747    0.0000 H   0  0  0  0  0  0  0  0  0  0  0  0
    5.0789   -2.1886    0.0000 H   0  0  0  0  0  0  0  0  0  0  0  0
    5.8760   -2.1855    0.0000 H   0  0  0  0  0  0  0  0  0  0  0  0
    5.8646    0.7644    0.0000 H   0  0  0  0  0  0  0  0  0  0  0  0
    5.0676    0.7613    0.0000 H   0  0  0  0  0  0  0  0  0  0  0  0
    3.9967   -1.1101    0.0000 H   0  0  0  0  0  0  0  0  0  0  0  0
    4.3979   -1.7988    0.0000 H   0  0  0  0  0  0  0  0  0  0  0  0
    6.8110   -2.1819    0.0000 H   0  0  0  0  0  0  0  0  0  0  0  0
    7.6080   -2.1788    0.0000 H   0  0  0  0  0  0  0  0  0  0  0  0
    8.4685   -0.7256    0.0000 H   0  0  0  0  0  0  0  0  0  0  0  0
    7.6714   -0.7287    0.0000 H   0  0  0  0  0  0  0  0  0  0  0  0
    8.5430   -2.1752    0.0000 H   0  0  0  0  0  0  0  0  0  0  0  0
    9.3401   -2.1721    0.0000 H   0  0  0  0  0  0  0  0  0  0  0  0
   10.2005   -0.7189    0.0000 H   0  0  0  0  0  0  0  0  0  0  0  0
    9.4034   -0.7220    0.0000 H   0  0  0  0  0  0  0  0  0  0  0  0
    2.8742   -0.8421    0.0000 H   0  0  0  0  0  0  0  0  0  0  0  0
   14.6004    0.8071    0.0000 H   0  0  0  0  0  0  0  0  0  0  0  0
   13.8034    0.8071    0.0000 H   0  0  0  0  0  0  0  0  0  0  0  0
    2.8617    2.3979    0.0000 H   0  0  0  0  0  0  0  0  0  0  0  0
    1.4681   -0.0375    0.0000 H   0  0  0  0  0  0  0  0  0  0  0  0
   15.6785   -0.2756    0.0000 H   0  0  0  0  0  0  0  0  0  0  0  0
   15.2800    0.4147    0.0000 H   0  0  0  0  0  0  0  0  0  0  0  0
   12.4491   -2.3225    0.0000 H   0  0  0  0  0  0  0  0  0  0  0  0
    1.4619    1.5825    0.0000 H   0  0  0  0  0  0  0  0  0  0  0  0
   12.4491    0.9867    0.0000 H   0  0  0  0  0  0  0  0  0  0  0  0
   11.0001    0.1650    0.0000 H   0  0  0  0  0  0  0  0  0  0  0  0
   14.2019   -2.2879    0.0000 H   0  0  0  0  0  0  0  0  0  0  0  0
  1 15  1  0  0  0  0
  1 22  1  0  0  0  0
  2 29  2  0  0  0  0
  3  7  1  0  0  0  0
  3  8  1  0  0  0  0
  3 11  1  0  0  0  0
  4  9  1  0  0  0  0
  4 10  1  0  0  0  0
  4 13  1  0  0  0  0
  5 20  1  0  0  0  0
  5 29  1  0  0  0  0
  5 58  1  0  0  0  0
  6 30  3  0  0  0  0
  7  9  1  0  0  0  0
  7 31  1  0  0  0  0
  7 32  1  0  0  0  0
  8 10  1  0  0  0  0
  8 33  1  0  0  0  0
  8 34  1  0  0  0  0
  9 35  1  0  0  0  0
  9 36  1  0  0  0  0
 10 37  1  0  0  0  0
 10 38  1  0  0  0  0
 11 12  1  0  0  0  0
 11 39  1  0  0  0  0
 11 40  1  0  0  0  0
 12 14  1  0  0  0  0
 12 41  1  0  0  0  0
 12 42  1  0  0  0  0
 13 16  1  0  0  0  0
 13 17  2  0  0  0  0
 14 15  1  0  0  0  0
 14 43  1  0  0  0  0
 14 44  1  0  0  0  0
 15 45  1  0  0  0  0
 15 46  1  0  0  0  0
 16 21  2  0  0  0  0
 16 30  1  0  0  0  0
 17 23  1  0  0  0  0
 17 47  1  0  0  0  0
 18 19  1  0  0  0  0
 18 20  2  0  0  0  0
 18 27  1  0  0  0  0
 19 24  1  0  0  0  0
 19 48  1  0  0  0  0
 19 49  1  0  0  0  0
 20 25  1  0  0  0  0
 21 26  1  0  0  0  0
 21 50  1  0  0  0  0
 22 25  2  0  0  0  0
 22 28  1  0  0  0  0
 23 26  2  0  0  0  0
 23 51  1  0  0  0  0
 24 29  1  0  0  0  0
 24 52  1  0  0  0  0
 24 53  1  0  0  0  0
 25 54  1  0  0  0  0
 26 55  1  0  0  0  0
 27 28  2  0  0  0  0
 27 56  1  0  0  0  0
 28 57  1  0  0  0  0
M  END
> <PUBCHEM_COMPOUND_CID>
10763756

> <PUBCHEM_COMPOUND_CANONICALIZED>
1

> <PUBCHEM_CACTVS_COMPLEXITY>
610

> <PUBCHEM_CACTVS_HBOND_ACCEPTOR>
5

> <PUBCHEM_CACTVS_HBOND_DONOR>
1

> <PUBCHEM_CACTVS_ROTATABLE_BOND>
7

> <PUBCHEM_CACTVS_SUBSKEYS>
AAADceB7sAAAAAAAAAAAAAAAAAAAAAAAAAA8eIEAAAAAAACxQAAAHgAQAAAADAzhmAYwxoPABACYBiVSUACiCAAhIgAIiAEObIgM5jLEsZuWOCjm1BnI6A+42aOeIAAAAgACAABAAAAEAAQAAAAAAAAAAA==

> <PUBCHEM_IUPAC_OPENEYE_NAME>
2-[4-[4-[(2-oxo-3,4-dihydro-1H-quinolin-7-yl)oxy]butyl]piperazin-1-yl]benzonitrile

> <PUBCHEM_IUPAC_CAS_NAME>
2-[4-[4-[(2-oxo-3,4-dihydro-1H-quinolin-7-yl)oxy]butyl]-1-piperazinyl]benzonitrile

> <PUBCHEM_IUPAC_NAME_MARKUP>
2-[4-[4-[(2-oxo-3,4-dihydro-1<I>H</I>-quinolin-7-yl)oxy]butyl]piperazin-1-yl]benzonitrile

> <PUBCHEM_IUPAC_NAME>
2-[4-[4-[(2-oxo-3,4-dihydro-1H-quinolin-7-yl)oxy]butyl]piperazin-1-yl]benzonitrile

> <PUBCHEM_IUPAC_SYSTEMATIC_NAME>
2-[4-[4-[(2-oxidanylidene-3,4-dihydro-1H-quinolin-7-yl)oxy]butyl]piperazin-1-yl]benzenecarbonitrile

> <PUBCHEM_IUPAC_TRADITIONAL_NAME>
2-[4-[4-[(2-keto-3,4-dihydro-1H-quinolin-7-yl)oxy]butyl]piperazino]benzonitrile

> <PUBCHEM_IUPAC_INCHI>
InChI=1S/C24H28N4O2/c25-18-20-5-1-2-6-23(20)28-14-12-27(13-15-28)11-3-4-16-30-21-9-7-19-8-10-24(29)26-22(19)17-21/h1-2,5-7,9,17H,3-4,8,10-16H2,(H,26,29)

> <PUBCHEM_IUPAC_INCHIKEY>
VTESYDIGEMNUCI-UHFFFAOYSA-N

> <PUBCHEM_XLOGP3_AA>
3.1

> <PUBCHEM_EXACT_MASS>
404.22122615

> <PUBCHEM_MOLECULAR_FORMULA>
C24H28N4O2

> <PUBCHEM_MOLECULAR_WEIGHT>
404.5

> <PUBCHEM_OPENEYE_CAN_SMILES>
C1CC(=O)NC2=C1C=CC(=C2)OCCCCN3CCN(CC3)C4=CC=CC=C4C#N

> <PUBCHEM_OPENEYE_ISO_SMILES>
C1CC(=O)NC2=C1C=CC(=C2)OCCCCN3CCN(CC3)C4=CC=CC=C4C#N

> <PUBCHEM_CACTVS_TPSA>
68.6

> <PUBCHEM_MONOISOTOPIC_WEIGHT>
404.22122615

> <PUBCHEM_TOTAL_CHARGE>
0

> <PUBCHEM_HEAVY_ATOM_COUNT>
30

> <PUBCHEM_ATOM_DEF_STEREO_COUNT>
0

> <PUBCHEM_ATOM_UDEF_STEREO_COUNT>
0

> <PUBCHEM_BOND_DEF_STEREO_COUNT>
0

> <PUBCHEM_BOND_UDEF_STEREO_COUNT>
0

> <PUBCHEM_ISOTOPIC_ATOM_COUNT>
0

> <PUBCHEM_COMPONENT_COUNT>
1

> <PUBCHEM_CACTVS_TAUTO_COUNT>
-1

> <PUBCHEM_COORDINATE_TYPE>
1
5
255

> <PUBCHEM_BONDANNOTATIONS>
13  16  8
13  17  8
16  21  8
17  23  8
18  20  8
18  27  8
20  25  8
21  26  8
22  25  8
22  28  8
23  26  8
27  28  8

$$$$
