19694446
  -OEChem-09292322222D

 39 42  0     1  0  0  0  0  0999 V2000
    8.2740    3.0837    0.0000 Cl  0  0  0  0  0  0  0  0  0  0  0  0
    8.2619   -0.9856    0.0000 O   0  0  0  0  0  0  0  0  0  0  0  0
    5.0000   -0.4856    0.0000 N   0  0  3  0  0  0  0  0  0  0  0  0
    6.5298   -0.9856    0.0000 C   0  0  3  0  0  0  0  0  0  0  0  0
    6.5298    0.0144    0.0000 C   0  0  3  0  0  0  0  0  0  0  0  0
    5.5836   -1.2903    0.0000 C   0  0  0  0  0  0  0  0  0  0  0  0
    5.5836    0.3191    0.0000 C   0  0  0  0  0  0  0  0  0  0  0  0
    7.3958   -1.4856    0.0000 C   0  0  0  0  0  0  0  0  0  0  0  0
    7.3958    0.5144    0.0000 C   0  0  0  0  0  0  0  0  0  0  0  0
    4.0000   -0.4856    0.0000 C   0  0  0  0  0  0  0  0  0  0  0  0
    8.2619    0.0144    0.0000 C   0  0  0  0  0  0  0  0  0  0  0  0
    7.3798    1.5559    0.0000 C   0  0  0  0  0  0  0  0  0  0  0  0
    3.5000   -1.3516    0.0000 C   0  0  0  0  0  0  0  0  0  0  0  0
    9.1719    0.5213    0.0000 C   0  0  0  0  0  0  0  0  0  0  0  0
    8.2778    2.0837    0.0000 C   0  0  0  0  0  0  0  0  0  0  0  0
    9.1799    1.5629    0.0000 C   0  0  0  0  0  0  0  0  0  0  0  0
    2.5000   -1.3516    0.0000 C   0  0  0  0  0  0  0  0  0  0  0  0
    4.0000   -2.2176    0.0000 C   0  0  0  0  0  0  0  0  0  0  0  0
    2.0000   -2.2176    0.0000 C   0  0  0  0  0  0  0  0  0  0  0  0
    3.5000   -3.0837    0.0000 C   0  0  0  0  0  0  0  0  0  0  0  0
    2.5000   -3.0837    0.0000 C   0  0  0  0  0  0  0  0  0  0  0  0
    6.4642   -1.6021    0.0000 H   0  0  0  0  0  0  0  0  0  0  0  0
    6.4642    0.6309    0.0000 H   0  0  0  0  0  0  0  0  0  0  0  0
    5.0462   -1.5996    0.0000 H   0  0  0  0  0  0  0  0  0  0  0  0
    5.8346   -1.8572    0.0000 H   0  0  0  0  0  0  0  0  0  0  0  0
    5.8346    0.8860    0.0000 H   0  0  0  0  0  0  0  0  0  0  0  0
    5.0462    0.6284    0.0000 H   0  0  0  0  0  0  0  0  0  0  0  0
    6.9973   -1.9605    0.0000 H   0  0  0  0  0  0  0  0  0  0  0  0
    7.7944   -1.9605    0.0000 H   0  0  0  0  0  0  0  0  0  0  0  0
    4.1077    0.1250    0.0000 H   0  0  0  0  0  0  0  0  0  0  0  0
    3.4174   -0.2735    0.0000 H   0  0  0  0  0  0  0  0  0  0  0  0
    6.8393    1.8597    0.0000 H   0  0  0  0  0  0  0  0  0  0  0  0
    9.7052    0.2051    0.0000 H   0  0  0  0  0  0  0  0  0  0  0  0
    9.7180    1.8708    0.0000 H   0  0  0  0  0  0  0  0  0  0  0  0
    2.1900   -0.8147    0.0000 H   0  0  0  0  0  0  0  0  0  0  0  0
    4.6200   -2.2176    0.0000 H   0  0  0  0  0  0  0  0  0  0  0  0
    1.3800   -2.2176    0.0000 H   0  0  0  0  0  0  0  0  0  0  0  0
    3.8100   -3.6206    0.0000 H   0  0  0  0  0  0  0  0  0  0  0  0
    2.1900   -3.6206    0.0000 H   0  0  0  0  0  0  0  0  0  0  0  0
  1 15  1  0  0  0  0
  2  8  1  0  0  0  0
  2 11  1  0  0  0  0
  3  6  1  0  0  0  0
  3  7  1  0  0  0  0
  3 10  1  0  0  0  0
  4  5  1  0  0  0  0
  4  6  1  0  0  0  0
  4  8  1  0  0  0  0
  4 22  1  0  0  0  0
  5  7  1  0  0  0  0
  5  9  1  0  0  0  0
  5 23  1  0  0  0  0
  6 24  1  0  0  0  0
  6 25  1  0  0  0  0
  7 26  1  0  0  0  0
  7 27  1  0  0  0  0
  8 28  1  0  0  0  0
  8 29  1  0  0  0  0
  9 11  2  0  0  0  0
  9 12  1  0  0  0  0
 10 13  1  0  0  0  0
 10 30  1  0  0  0  0
 10 31  1  0  0  0  0
 11 14  1  0  0  0  0
 12 15  2  0  0  0  0
 12 32  1  0  0  0  0
 13 17  2  0  0  0  0
 13 18  1  0  0  0  0
 14 16  2  0  0  0  0
 14 33  1  0  0  0  0
 15 16  1  0  0  0  0
 16 34  1  0  0  0  0
 17 19  1  0  0  0  0
 17 35  1  0  0  0  0
 18 20  2  0  0  0  0
 18 36  1  0  0  0  0
 19 21  2  0  0  0  0
 19 37  1  0  0  0  0
 20 21  1  0  0  0  0
 20 38  1  0  0  0  0
 21 39  1  0  0  0  0
M  END
> <PUBCHEM_COMPOUND_CID>
19694446

> <PUBCHEM_COMPOUND_CANONICALIZED>
1

> <PUBCHEM_CACTVS_COMPLEXITY>
357

> <PUBCHEM_CACTVS_HBOND_ACCEPTOR>
2

> <PUBCHEM_CACTVS_HBOND_DONOR>
0

> <PUBCHEM_CACTVS_ROTATABLE_BOND>
2

> <PUBCHEM_CACTVS_SUBSKEYS>
AAADceB6IAAEAAAAAAAAAAAAAAAAAWAAAAA0YIAAAAAAAFiRQAAAHgIAAAAADQbhmCYwBoMABACAAiBCAACCCAAgJQAIiAAODogMJiKFsxuGOCjmwBGIqAew0OIOgCAAIAAIAAAAQABAABAAAAAAAAAAAA==

> <PUBCHEM_IUPAC_OPENEYE_NAME>
2-benzyl-8-chloro-3,3a,4,9b-tetrahydro-1H-chromeno[3,4-c]pyrrole

> <PUBCHEM_IUPAC_CAS_NAME>
8-chloro-2-(phenylmethyl)-3,3a,4,9b-tetrahydro-1H-[1]benzopyrano[3,4-c]pyrrole

> <PUBCHEM_IUPAC_NAME_MARKUP>
2-benzyl-8-chloro-3,3<I>a</I>,4,9<I>b</I>-tetrahydro-1<I>H</I>-chromeno[3,4-c]pyrrole

> <PUBCHEM_IUPAC_NAME>
2-benzyl-8-chloro-3,3a,4,9b-tetrahydro-1H-chromeno[3,4-c]pyrrole

> <PUBCHEM_IUPAC_SYSTEMATIC_NAME>
8-chloranyl-2-(phenylmethyl)-3,3a,4,9b-tetrahydro-1H-chromeno[3,4-c]pyrrole

> <PUBCHEM_IUPAC_TRADITIONAL_NAME>
2-benzyl-8-chloro-3,3a,4,9b-tetrahydro-1H-chromeno[3,4-c]pyrrole

> <PUBCHEM_IUPAC_INCHI>
InChI=1S/C18H18ClNO/c19-15-6-7-18-16(8-15)17-11-20(10-14(17)12-21-18)9-13-4-2-1-3-5-13/h1-8,14,17H,9-12H2

> <PUBCHEM_IUPAC_INCHIKEY>
BVNLTQWFLUIWRX-UHFFFAOYSA-N

> <PUBCHEM_XLOGP3_AA>
3.9

> <PUBCHEM_EXACT_MASS>
299.1076919

> <PUBCHEM_MOLECULAR_FORMULA>
C18H18ClNO

> <PUBCHEM_MOLECULAR_WEIGHT>
299.8

> <PUBCHEM_OPENEYE_CAN_SMILES>
C1C2COC3=C(C2CN1CC4=CC=CC=C4)C=C(C=C3)Cl

> <PUBCHEM_OPENEYE_ISO_SMILES>
C1C2COC3=C(C2CN1CC4=CC=CC=C4)C=C(C=C3)Cl

> <PUBCHEM_CACTVS_TPSA>
12.5

> <PUBCHEM_MONOISOTOPIC_WEIGHT>
299.1076919

> <PUBCHEM_TOTAL_CHARGE>
0

> <PUBCHEM_HEAVY_ATOM_COUNT>
21

> <PUBCHEM_ATOM_DEF_STEREO_COUNT>
0

> <PUBCHEM_ATOM_UDEF_STEREO_COUNT>
2

> <PUBCHEM_BOND_DEF_STEREO_COUNT>
0

> <PUBCHEM_BOND_UDEF_STEREO_COUNT>
0

> <PUBCHEM_ISOTOPIC_ATOM_COUNT>
0

> <PUBCHEM_COMPONENT_COUNT>
1

> <PUBCHEM_CACTVS_TAUTO_COUNT>
-1

> <PUBCHEM_COORDINATE_TYPE>
1
5
255

> <PUBCHEM_BONDANNOTATIONS>
11  14  8
12  15  8
13  17  8
13  18  8
14  16  8
15  16  8
17  19  8
18  20  8
19  21  8
20  21  8
4  6  3
5  7  3
9  11  8
9  12  8

$$$$
