138670266
  -OEChem-09292322452D

 68 71  0     1  0  0  0  0  0999 V2000
    3.1145    1.5836    0.0000 S   0  0  0  0  0  0  0  0  0  0  0  0
   18.8115   -2.0634    0.0000 F   0  0  0  0  0  0  0  0  0  0  0  0
   17.8066   -3.0584    0.0000 F   0  0  0  0  0  0  0  0  0  0  0  0
   17.8165   -1.0584    0.0000 F   0  0  0  0  0  0  0  0  0  0  0  0
    6.1085    1.4641    0.0000 O   0  0  0  0  0  0  0  0  0  0  0  0
   11.5955   -1.1614    0.0000 N   0  0  3  0  0  0  0  0  0  0  0  0
    6.0999   -0.2679    0.0000 N   0  0  0  0  0  0  0  0  0  0  0  0
   15.3159   -1.1799    0.0000 N   0  0  0  0  0  0  0  0  0  0  0  0
   14.7283   -1.9817    0.0000 N   0  0  0  0  0  0  0  0  0  0  0  0
    3.7800    3.0584    0.0000 N   0  0  0  0  0  0  0  0  0  0  0  0
    9.0998   -0.2829    0.0000 C   0  0  0  0  0  0  0  0  0  0  0  0
    8.5955   -1.1464    0.0000 C   0  0  0  0  0  0  0  0  0  0  0  0
    8.6042    0.5856    0.0000 C   0  0  0  0  0  0  0  0  0  0  0  0
    7.0998   -0.2729    0.0000 C   0  0  0  0  0  0  0  0  0  0  0  0
    7.5955   -1.1414    0.0000 C   0  0  0  0  0  0  0  0  0  0  0  0
    7.6042    0.5906    0.0000 C   0  0  0  0  0  0  0  0  0  0  0  0
   10.0998   -0.2879    0.0000 C   0  0  0  0  0  0  0  0  0  0  0  0
   10.5955   -1.1564    0.0000 C   0  0  0  0  0  0  0  0  0  0  0  0
   12.0338   -0.2626    0.0000 C   0  0  0  0  0  0  0  0  0  0  0  0
   12.0249   -2.0645    0.0000 C   0  0  0  0  0  0  0  0  0  0  0  0
   13.0099   -0.0449    0.0000 C   0  0  0  0  0  0  0  0  0  0  0  0
   12.9987   -2.2919    0.0000 C   0  0  0  0  0  0  0  0  0  0  0  0
   13.7886   -0.6723    0.0000 C   0  0  0  0  0  0  0  0  0  0  0  0
   13.7836   -1.6723    0.0000 C   0  0  0  0  0  0  0  0  0  0  0  0
    5.6042    0.6006    0.0000 C   0  0  0  0  0  0  0  0  0  0  0  0
   14.7363   -0.3723    0.0000 C   0  0  0  0  0  0  0  0  0  0  0  0
    4.6042    0.6056    0.0000 C   0  0  0  0  0  0  0  0  0  0  0  0
   16.3159   -1.1849    0.0000 C   0  0  0  0  0  0  0  0  0  0  0  0
    4.1085    1.4741    0.0000 C   0  0  0  0  0  0  0  0  0  0  0  0
   16.8116   -2.0534    0.0000 C   0  0  0  0  0  0  0  0  0  0  0  0
   17.8116   -2.0584    0.0000 C   0  0  0  0  0  0  0  0  0  0  0  0
    4.5198    2.3856    0.0000 C   0  0  0  0  0  0  0  0  0  0  0  0
    2.9115    2.5627    0.0000 C   0  0  0  0  0  0  0  0  0  0  0  0
    2.0000    2.9740    0.0000 C   0  0  0  0  0  0  0  0  0  0  0  0
    9.4125    0.2525    0.0000 H   0  0  0  0  0  0  0  0  0  0  0  0
    8.4848   -1.7564    0.0000 H   0  0  0  0  0  0  0  0  0  0  0  0
    9.1771   -1.3614    0.0000 H   0  0  0  0  0  0  0  0  0  0  0  0
    9.1878    0.7948    0.0000 H   0  0  0  0  0  0  0  0  0  0  0  0
    8.4995    1.1967    0.0000 H   0  0  0  0  0  0  0  0  0  0  0  0
    6.7925    0.2656    0.0000 H   0  0  0  0  0  0  0  0  0  0  0  0
    7.0119   -1.3506    0.0000 H   0  0  0  0  0  0  0  0  0  0  0  0
    7.7001   -1.7525    0.0000 H   0  0  0  0  0  0  0  0  0  0  0  0
    7.7149    1.2006    0.0000 H   0  0  0  0  0  0  0  0  0  0  0  0
    7.0226    0.8056    0.0000 H   0  0  0  0  0  0  0  0  0  0  0  0
   10.6835   -0.0787    0.0000 H   0  0  0  0  0  0  0  0  0  0  0  0
    9.9952    0.3232    0.0000 H   0  0  0  0  0  0  0  0  0  0  0  0
   10.0118   -1.3655    0.0000 H   0  0  0  0  0  0  0  0  0  0  0  0
   10.7001   -1.7675    0.0000 H   0  0  0  0  0  0  0  0  0  0  0  0
    5.7872   -0.8033    0.0000 H   0  0  0  0  0  0  0  0  0  0  0  0
   12.0369    0.3574    0.0000 H   0  0  0  0  0  0  0  0  0  0  0  0
   11.4301   -0.1216    0.0000 H   0  0  0  0  0  0  0  0  0  0  0  0
   11.4197   -2.1994    0.0000 H   0  0  0  0  0  0  0  0  0  0  0  0
   12.0218   -2.6845    0.0000 H   0  0  0  0  0  0  0  0  0  0  0  0
   13.4965    0.3392    0.0000 H   0  0  0  0  0  0  0  0  0  0  0  0
   12.7437    0.5150    0.0000 H   0  0  0  0  0  0  0  0  0  0  0  0
   12.7269   -2.8491    0.0000 H   0  0  0  0  0  0  0  0  0  0  0  0
   13.4815   -2.6809    0.0000 H   0  0  0  0  0  0  0  0  0  0  0  0
   14.9319    0.2161    0.0000 H   0  0  0  0  0  0  0  0  0  0  0  0
    4.0205    0.3964    0.0000 H   0  0  0  0  0  0  0  0  0  0  0  0
    4.7088   -0.0056    0.0000 H   0  0  0  0  0  0  0  0  0  0  0  0
   16.8995   -0.9758    0.0000 H   0  0  0  0  0  0  0  0  0  0  0  0
   16.2113   -0.5738    0.0000 H   0  0  0  0  0  0  0  0  0  0  0  0
   16.2279   -2.2626    0.0000 H   0  0  0  0  0  0  0  0  0  0  0  0
   16.9162   -2.6645    0.0000 H   0  0  0  0  0  0  0  0  0  0  0  0
    5.1269    2.5114    0.0000 H   0  0  0  0  0  0  0  0  0  0  0  0
    2.2550    3.5391    0.0000 H   0  0  0  0  0  0  0  0  0  0  0  0
    1.4349    3.2290    0.0000 H   0  0  0  0  0  0  0  0  0  0  0  0
    1.7450    2.4089    0.0000 H   0  0  0  0  0  0  0  0  0  0  0  0
  1 29  1  0  0  0  0
  1 33  1  0  0  0  0
  2 31  1  0  0  0  0
  3 31  1  0  0  0  0
  4 31  1  0  0  0  0
  5 25  2  0  0  0  0
  6 18  1  0  0  0  0
  6 19  1  0  0  0  0
  6 20  1  0  0  0  0
  7 14  1  0  0  0  0
  7 25  1  0  0  0  0
  7 49  1  0  0  0  0
  8  9  1  0  0  0  0
  8 26  1  0  0  0  0
  8 28  1  0  0  0  0
  9 24  2  0  0  0  0
 10 32  1  0  0  0  0
 10 33  2  0  0  0  0
 11 12  1  0  0  0  0
 11 13  1  0  0  0  0
 11 17  1  0  0  0  0
 11 35  1  0  0  0  0
 12 15  1  0  0  0  0
 12 36  1  0  0  0  0
 12 37  1  0  0  0  0
 13 16  1  0  0  0  0
 13 38  1  0  0  0  0
 13 39  1  0  0  0  0
 14 15  1  0  0  0  0
 14 16  1  0  0  0  0
 14 40  1  0  0  0  0
 15 41  1  0  0  0  0
 15 42  1  0  0  0  0
 16 43  1  0  0  0  0
 16 44  1  0  0  0  0
 17 18  1  0  0  0  0
 17 45  1  0  0  0  0
 17 46  1  0  0  0  0
 18 47  1  0  0  0  0
 18 48  1  0  0  0  0
 19 21  1  0  0  0  0
 19 50  1  0  0  0  0
 19 51  1  0  0  0  0
 20 22  1  0  0  0  0
 20 52  1  0  0  0  0
 20 53  1  0  0  0  0
 21 23  1  0  0  0  0
 21 54  1  0  0  0  0
 21 55  1  0  0  0  0
 22 24  1  0  0  0  0
 22 56  1  0  0  0  0
 22 57  1  0  0  0  0
 23 24  1  0  0  0  0
 23 26  2  0  0  0  0
 25 27  1  0  0  0  0
 26 58  1  0  0  0  0
 27 29  1  0  0  0  0
 27 59  1  0  0  0  0
 27 60  1  0  0  0  0
 28 30  1  0  0  0  0
 28 61  1  0  0  0  0
 28 62  1  0  0  0  0
 29 32  2  0  0  0  0
 30 31  1  0  0  0  0
 30 63  1  0  0  0  0
 30 64  1  0  0  0  0
 32 65  1  0  0  0  0
 33 34  1  0  0  0  0
 34 66  1  0  0  0  0
 34 67  1  0  0  0  0
 34 68  1  0  0  0  0
M  END
> <PUBCHEM_COMPOUND_CID>
138670266

> <PUBCHEM_COMPOUND_CANONICALIZED>
1

> <PUBCHEM_CACTVS_COMPLEXITY>
661

> <PUBCHEM_CACTVS_HBOND_ACCEPTOR>
8

> <PUBCHEM_CACTVS_HBOND_DONOR>
1

> <PUBCHEM_CACTVS_ROTATABLE_BOND>
8

> <PUBCHEM_CACTVS_SUBSKEYS>
AAADcfB7oYBAAAAAAAAAAAAAAAAAAWLAAAAwAAAABYAAAACx4AAAHwQYAAAADSjB3hQugZPIEAiuAxV3VACQ9KBxiDhQWK04RBgAIJJg1cGEhAhgngDoSAMUgIAOAAAAAAAAAAAQAAAAAAAAAAAAAAAAAA==

> <PUBCHEM_IUPAC_OPENEYE_NAME>
2-(2-methylthiazol-5-yl)-N-[4-[2-[2-(3,3,3-trifluoropropyl)-4,5,7,8-tetrahydropyrazolo[3,4-d]azepin-6-yl]ethyl]cyclohexyl]acetamide

> <PUBCHEM_IUPAC_CAS_NAME>
2-(2-methyl-5-thiazolyl)-N-[4-[2-[2-(3,3,3-trifluoropropyl)-4,5,7,8-tetrahydropyrazolo[3,4-d]azepin-6-yl]ethyl]cyclohexyl]acetamide

> <PUBCHEM_IUPAC_NAME_MARKUP>
2-(2-methyl-1,3-thiazol-5-yl)-<I>N</I>-[4-[2-[2-(3,3,3-trifluoropropyl)-4,5,7,8-tetrahydropyrazolo[3,4-d]azepin-6-yl]ethyl]cyclohexyl]acetamide

> <PUBCHEM_IUPAC_NAME>
2-(2-methyl-1,3-thiazol-5-yl)-N-[4-[2-[2-(3,3,3-trifluoropropyl)-4,5,7,8-tetrahydropyrazolo[3,4-d]azepin-6-yl]ethyl]cyclohexyl]acetamide

> <PUBCHEM_IUPAC_SYSTEMATIC_NAME>
2-(2-methyl-1,3-thiazol-5-yl)-N-[4-[2-[2-[3,3,3-tris(fluoranyl)propyl]-4,5,7,8-tetrahydropyrazolo[3,4-d]azepin-6-yl]ethyl]cyclohexyl]ethanamide

> <PUBCHEM_IUPAC_TRADITIONAL_NAME>
2-(2-methylthiazol-5-yl)-N-[4-[2-[2-(3,3,3-trifluoropropyl)-4,5,7,8-tetrahydropyrazol[3,4-d]azepin-6-yl]ethyl]cyclohexyl]acetamide

> <PUBCHEM_IUPAC_INCHI>
InChI=1S/C24H34F3N5OS/c1-17-28-15-21(34-17)14-23(33)29-20-4-2-18(3-5-20)6-10-31-11-7-19-16-32(13-9-24(25,26)27)30-22(19)8-12-31/h15-16,18,20H,2-14H2,1H3,(H,29,33)

> <PUBCHEM_IUPAC_INCHIKEY>
MRTGFGPKFPAWBT-UHFFFAOYSA-N

> <PUBCHEM_XLOGP3_AA>
4.3

> <PUBCHEM_EXACT_MASS>
497.24361638

> <PUBCHEM_MOLECULAR_FORMULA>
C24H34F3N5OS

> <PUBCHEM_MOLECULAR_WEIGHT>
497.6

> <PUBCHEM_OPENEYE_CAN_SMILES>
CC1=NC=C(S1)CC(=O)NC2CCC(CC2)CCN3CCC4=CN(N=C4CC3)CCC(F)(F)F

> <PUBCHEM_OPENEYE_ISO_SMILES>
CC1=NC=C(S1)CC(=O)NC2CCC(CC2)CCN3CCC4=CN(N=C4CC3)CCC(F)(F)F

> <PUBCHEM_CACTVS_TPSA>
91.3

> <PUBCHEM_MONOISOTOPIC_WEIGHT>
497.24361638

> <PUBCHEM_TOTAL_CHARGE>
0

> <PUBCHEM_HEAVY_ATOM_COUNT>
34

> <PUBCHEM_ATOM_DEF_STEREO_COUNT>
0

> <PUBCHEM_ATOM_UDEF_STEREO_COUNT>
0

> <PUBCHEM_BOND_DEF_STEREO_COUNT>
0

> <PUBCHEM_BOND_UDEF_STEREO_COUNT>
0

> <PUBCHEM_ISOTOPIC_ATOM_COUNT>
0

> <PUBCHEM_COMPONENT_COUNT>
1

> <PUBCHEM_CACTVS_TAUTO_COUNT>
-1

> <PUBCHEM_COORDINATE_TYPE>
1
5
255

> <PUBCHEM_BONDANNOTATIONS>
1  29  8
1  33  8
10  32  8
10  33  8
23  24  8
23  26  8
29  32  8
8  26  8
8  9  8
9  24  8

$$$$
