10495891
  -OEChem-09292322102D

 49 53  0     1  0  0  0  0  0999 V2000
    3.8772   -1.7613    0.0000 O   0  0  0  0  0  0  0  0  0  0  0  0
    6.4572    2.3732    0.0000 N   0  0  3  0  0  0  0  0  0  0  0  0
    5.5990    1.8763    0.0000 C   0  0  1  0  0  0  0  0  0  0  0  0
    3.7289   -0.7724    0.0000 C   0  0  2  0  0  0  0  0  0  0  0  0
    4.7330    0.3763    0.0000 C   0  0  0  0  0  0  0  0  0  0  0  0
    5.5990    0.8763    0.0000 C   0  0  0  0  0  0  0  0  0  0  0  0
    3.8669    0.8763    0.0000 C   0  0  0  0  0  0  0  0  0  0  0  0
    4.7169   -0.6652    0.0000 C   0  0  0  0  0  0  0  0  0  0  0  0
    3.2490    0.0979    0.0000 C   0  0  0  0  0  0  0  0  0  0  0  0
    4.7330    2.3763    0.0000 C   0  0  0  0  0  0  0  0  0  0  0  0
    3.8669    1.8763    0.0000 C   0  0  0  0  0  0  0  0  0  0  0  0
    6.5090    0.3694    0.0000 C   0  0  0  0  0  0  0  0  0  0  0  0
    7.3483    0.8977    0.0000 C   0  0  0  0  0  0  0  0  0  0  0  0
    7.3227    1.8890    0.0000 C   0  0  0  0  0  0  0  0  0  0  0  0
    2.8342   -1.2190    0.0000 C   0  0  0  0  0  0  0  0  0  0  0  0
    5.6149   -1.1930    0.0000 C   0  0  0  0  0  0  0  0  0  0  0  0
    6.5170   -0.6722    0.0000 C   0  0  0  0  0  0  0  0  0  0  0  0
    2.3482    0.4925    0.0000 C   0  0  0  0  0  0  0  0  0  0  0  0
    2.9155    2.1253    0.0000 C   0  0  0  0  0  0  0  0  0  0  0  0
    6.4498    3.3732    0.0000 C   0  0  0  0  0  0  0  0  0  0  0  0
    2.1886    1.4629    0.0000 C   0  0  0  0  0  0  0  0  0  0  0  0
    2.0000   -0.6676    0.0000 C   0  0  0  0  0  0  0  0  0  0  0  0
    3.0949   -2.3842    0.0000 C   0  0  0  0  0  0  0  0  0  0  0  0
    3.2433   -3.3732    0.0000 C   0  0  0  0  0  0  0  0  0  0  0  0
    5.5984    2.7263    0.0000 H   0  0  0  0  0  0  0  0  0  0  0  0
    5.1315    2.8512    0.0000 H   0  0  0  0  0  0  0  0  0  0  0  0
    4.3344    2.8512    0.0000 H   0  0  0  0  0  0  0  0  0  0  0  0
    7.5801    0.3226    0.0000 H   0  0  0  0  0  0  0  0  0  0  0  0
    7.9554    1.0236    0.0000 H   0  0  0  0  0  0  0  0  0  0  0  0
    7.9355    1.7947    0.0000 H   0  0  0  0  0  0  0  0  0  0  0  0
    7.5244    2.4753    0.0000 H   0  0  0  0  0  0  0  0  0  0  0  0
    2.4076   -1.6690    0.0000 H   0  0  0  0  0  0  0  0  0  0  0  0
    3.2032   -1.7172    0.0000 H   0  0  0  0  0  0  0  0  0  0  0  0
    5.6126   -1.8130    0.0000 H   0  0  0  0  0  0  0  0  0  0  0  0
    7.0551   -0.9801    0.0000 H   0  0  0  0  0  0  0  0  0  0  0  0
    1.8586    0.1121    0.0000 H   0  0  0  0  0  0  0  0  0  0  0  0
    2.7673    2.7273    0.0000 H   0  0  0  0  0  0  0  0  0  0  0  0
    7.0698    3.3778    0.0000 H   0  0  0  0  0  0  0  0  0  0  0  0
    6.4452    3.9932    0.0000 H   0  0  0  0  0  0  0  0  0  0  0  0
    5.8298    3.3686    0.0000 H   0  0  0  0  0  0  0  0  0  0  0  0
    1.6029    1.6664    0.0000 H   0  0  0  0  0  0  0  0  0  0  0  0
    2.3419   -0.1504    0.0000 H   0  0  0  0  0  0  0  0  0  0  0  0
    1.4828   -0.3256    0.0000 H   0  0  0  0  0  0  0  0  0  0  0  0
    1.6581   -1.1847    0.0000 H   0  0  0  0  0  0  0  0  0  0  0  0
    2.7988   -1.8395    0.0000 H   0  0  0  0  0  0  0  0  0  0  0  0
    2.5071   -2.5813    0.0000 H   0  0  0  0  0  0  0  0  0  0  0  0
    2.6301   -3.4651    0.0000 H   0  0  0  0  0  0  0  0  0  0  0  0
    3.3352   -3.9863    0.0000 H   0  0  0  0  0  0  0  0  0  0  0  0
    3.8564   -3.2812    0.0000 H   0  0  0  0  0  0  0  0  0  0  0  0
  4  1  1  1  0  0  0
  1 23  1  0  0  0  0
  2  3  1  0  0  0  0
  2 14  1  0  0  0  0
  2 20  1  0  0  0  0
  3  6  1  0  0  0  0
  3 10  1  0  0  0  0
  3 25  1  6  0  0  0
  4  8  1  0  0  0  0
  4  9  1  0  0  0  0
  4 15  1  0  0  0  0
  5  6  1  0  0  0  0
  5  7  1  0  0  0  0
  5  8  2  0  0  0  0
  6 12  2  0  0  0  0
  7  9  1  0  0  0  0
  7 11  2  0  0  0  0
  8 16  1  0  0  0  0
  9 18  2  0  0  0  0
 10 11  1  0  0  0  0
 10 26  1  0  0  0  0
 10 27  1  0  0  0  0
 11 19  1  0  0  0  0
 12 13  1  0  0  0  0
 12 17  1  0  0  0  0
 13 14  1  0  0  0  0
 13 28  1  0  0  0  0
 13 29  1  0  0  0  0
 14 30  1  0  0  0  0
 14 31  1  0  0  0  0
 15 22  1  0  0  0  0
 15 32  1  0  0  0  0
 15 33  1  0  0  0  0
 16 17  2  0  0  0  0
 16 34  1  0  0  0  0
 17 35  1  0  0  0  0
 18 21  1  0  0  0  0
 18 36  1  0  0  0  0
 19 21  2  0  0  0  0
 19 37  1  0  0  0  0
 20 38  1  0  0  0  0
 20 39  1  0  0  0  0
 20 40  1  0  0  0  0
 21 41  1  0  0  0  0
 22 42  1  0  0  0  0
 22 43  1  0  0  0  0
 22 44  1  0  0  0  0
 23 24  1  0  0  0  0
 23 45  1  0  0  0  0
 23 46  1  0  0  0  0
 24 47  1  0  0  0  0
 24 48  1  0  0  0  0
 24 49  1  0  0  0  0
M  END
> <PUBCHEM_COMPOUND_CID>
10495891

> <PUBCHEM_COMPOUND_CANONICALIZED>
1

> <PUBCHEM_CACTVS_COMPLEXITY>
492

> <PUBCHEM_CACTVS_HBOND_ACCEPTOR>
2

> <PUBCHEM_CACTVS_HBOND_DONOR>
0

> <PUBCHEM_CACTVS_ROTATABLE_BOND>
3

> <PUBCHEM_CACTVS_SUBSKEYS>
AAADceB6IAAAAAAAAAAAAAAAAAAAAYAAAAA8YMEAAAAAAGDxQAAAHgAAAAAADGzhmAYyAIMABACAAiBCAACCAAAgAAAIiAAIDIgIJiKAsRmGMAhkwAGIqAeQ0PMOwAACAAAQAACQAASAACQAAYAADAAAAA==

> <PUBCHEM_IUPAC_OPENEYE_NAME>
(6S,14R)-6-ethoxy-6-ethyl-13-methyl-13-azapentacyclo[12.3.1.05,17.07,16.010,15]octadeca-1(17),2,4,7(16),8,10(15)-hexaene

> <PUBCHEM_IUPAC_CAS_NAME>
(6S,14R)-6-ethoxy-6-ethyl-13-methyl-13-azapentacyclo[12.3.1.05,17.07,16.010,15]octadeca-1(17),2,4,7(16),8,10(15)-hexaene

> <PUBCHEM_IUPAC_NAME_MARKUP>
(6<I>S</I>,14<I>R</I>)-6-ethoxy-6-ethyl-13-methyl-13-azapentacyclo[12.3.1.0<SUP>5,17</SUP>.0<SUP>7,16</SUP>.0<SUP>10,15</SUP>]octadeca-1(17),2,4,7(16),8,10(15)-hexaene

> <PUBCHEM_IUPAC_NAME>
(6S,14R)-6-ethoxy-6-ethyl-13-methyl-13-azapentacyclo[12.3.1.05,17.07,16.010,15]octadeca-1(17),2,4,7(16),8,10(15)-hexaene

> <PUBCHEM_IUPAC_SYSTEMATIC_NAME>
(6S,14R)-6-ethoxy-6-ethyl-13-methyl-13-azapentacyclo[12.3.1.05,17.07,16.010,15]octadeca-1(17),2,4,7(16),8,10(15)-hexaene

> <PUBCHEM_IUPAC_TRADITIONAL_NAME>
(6S,14R)-6-ethoxy-6-ethyl-13-methyl-13-azapentacyclo[12.3.1.05,17.07,16.010,15]octadeca-1(17),2,4,7(16),8,10(15)-hexaene

> <PUBCHEM_IUPAC_INCHI>
InChI=1S/C22H25NO/c1-4-22(24-5-2)16-8-6-7-15-13-18-20-14(11-12-23(18)3)9-10-17(22)21(20)19(15)16/h6-10,18H,4-5,11-13H2,1-3H3/t18-,22+/m1/s1

> <PUBCHEM_IUPAC_INCHIKEY>
IPMUUCRZGTZCPY-GCJKJVERSA-N

> <PUBCHEM_XLOGP3_AA>
4

> <PUBCHEM_EXACT_MASS>
319.193614421

> <PUBCHEM_MOLECULAR_FORMULA>
C22H25NO

> <PUBCHEM_MOLECULAR_WEIGHT>
319.4

> <PUBCHEM_OPENEYE_CAN_SMILES>
CCC1(C2=C3C4=C(CCN(C4CC5=C3C1=CC=C5)C)C=C2)OCC

> <PUBCHEM_OPENEYE_ISO_SMILES>
CC[C@]1(C2=C3C4=C(CCN([C@@H]4CC5=C3C1=CC=C5)C)C=C2)OCC

> <PUBCHEM_CACTVS_TPSA>
12.5

> <PUBCHEM_MONOISOTOPIC_WEIGHT>
319.193614421

> <PUBCHEM_TOTAL_CHARGE>
0

> <PUBCHEM_HEAVY_ATOM_COUNT>
24

> <PUBCHEM_ATOM_DEF_STEREO_COUNT>
2

> <PUBCHEM_ATOM_UDEF_STEREO_COUNT>
0

> <PUBCHEM_BOND_DEF_STEREO_COUNT>
0

> <PUBCHEM_BOND_UDEF_STEREO_COUNT>
0

> <PUBCHEM_ISOTOPIC_ATOM_COUNT>
0

> <PUBCHEM_COMPONENT_COUNT>
1

> <PUBCHEM_CACTVS_TAUTO_COUNT>
-1

> <PUBCHEM_COORDINATE_TYPE>
1
5
255

> <PUBCHEM_BONDANNOTATIONS>
4  1  5
11  19  8
12  17  8
16  17  8
18  21  8
19  21  8
3  25  6
5  6  8
5  8  8
6  12  8
7  11  8
7  9  8
8  16  8
9  18  8

$$$$
