71454997
  -OEChem-09292322332D

 59 62  0     0  0  0  0  0  0999 V2000
    2.0933   -3.8080    0.0000 Cl  0  0  0  0  0  0  0  0  0  0  0  0
    4.4487   -1.1920    0.0000 S   0  0  0  0  0  0  0  0  0  0  0  0
    3.4782   -2.6865    0.0000 S   0  0  0  0  0  0  0  0  0  0  0  0
   11.3769    0.8080    0.0000 O   0  0  0  0  0  0  0  0  0  0  0  0
    3.9487   -0.3260    0.0000 O   0  0  0  0  0  0  0  0  0  0  0  0
    4.9487   -2.0580    0.0000 O   0  0  0  0  0  0  0  0  0  0  0  0
    8.7788    0.3080    0.0000 N   0  0  0  0  0  0  0  0  0  0  0  0
    5.3147   -0.6920    0.0000 N   0  0  0  0  0  0  0  0  0  0  0  0
    7.0468   -0.6920    0.0000 C   0  0  0  0  0  0  0  0  0  0  0  0
    7.9128   -1.1920    0.0000 C   0  0  0  0  0  0  0  0  0  0  0  0
    7.0468    0.3080    0.0000 C   0  0  0  0  0  0  0  0  0  0  0  0
    8.7788   -0.6920    0.0000 C   0  0  0  0  0  0  0  0  0  0  0  0
    7.9128    0.8080    0.0000 C   0  0  0  0  0  0  0  0  0  0  0  0
    6.1808   -1.1920    0.0000 C   0  0  0  0  0  0  0  0  0  0  0  0
    9.6448    0.8080    0.0000 C   0  0  0  0  0  0  0  0  0  0  0  0
   10.5109    0.3080    0.0000 C   0  0  0  0  0  0  0  0  0  0  0  0
    3.5827   -1.6920    0.0000 C   0  0  0  0  0  0  0  0  0  0  0  0
   12.2429    0.3080    0.0000 C   0  0  0  0  0  0  0  0  0  0  0  0
    2.6691   -1.2853    0.0000 C   0  0  0  0  0  0  0  0  0  0  0  0
   13.1090    0.8080    0.0000 C   0  0  0  0  0  0  0  0  0  0  0  0
   12.2429   -0.6920    0.0000 C   0  0  0  0  0  0  0  0  0  0  0  0
    2.0000   -2.0284    0.0000 C   0  0  0  0  0  0  0  0  0  0  0  0
    2.5000   -2.8944    0.0000 C   0  0  0  0  0  0  0  0  0  0  0  0
   13.1090    1.8080    0.0000 C   0  0  0  0  0  0  0  0  0  0  0  0
   13.9750    0.3080    0.0000 C   0  0  0  0  0  0  0  0  0  0  0  0
   13.1090   -1.1920    0.0000 C   0  0  0  0  0  0  0  0  0  0  0  0
   13.9750   -0.6920    0.0000 C   0  0  0  0  0  0  0  0  0  0  0  0
   13.9750    2.3080    0.0000 C   0  0  0  0  0  0  0  0  0  0  0  0
   12.2429    2.3080    0.0000 C   0  0  0  0  0  0  0  0  0  0  0  0
   13.9750    3.3080    0.0000 C   0  0  0  0  0  0  0  0  0  0  0  0
   12.2429    3.3080    0.0000 C   0  0  0  0  0  0  0  0  0  0  0  0
   13.1090    3.8080    0.0000 C   0  0  0  0  0  0  0  0  0  0  0  0
    6.5098   -0.3820    0.0000 H   0  0  0  0  0  0  0  0  0  0  0  0
    7.5143   -1.6670    0.0000 H   0  0  0  0  0  0  0  0  0  0  0  0
    8.3113   -1.6670    0.0000 H   0  0  0  0  0  0  0  0  0  0  0  0
    6.8347    0.8906    0.0000 H   0  0  0  0  0  0  0  0  0  0  0  0
    6.4362    0.2003    0.0000 H   0  0  0  0  0  0  0  0  0  0  0  0
    8.9909   -1.2746    0.0000 H   0  0  0  0  0  0  0  0  0  0  0  0
    9.3894   -0.5843    0.0000 H   0  0  0  0  0  0  0  0  0  0  0  0
    8.3113    1.2829    0.0000 H   0  0  0  0  0  0  0  0  0  0  0  0
    7.5143    1.2829    0.0000 H   0  0  0  0  0  0  0  0  0  0  0  0
    5.7822   -1.6670    0.0000 H   0  0  0  0  0  0  0  0  0  0  0  0
    6.5793   -1.6670    0.0000 H   0  0  0  0  0  0  0  0  0  0  0  0
   10.0434    1.2829    0.0000 H   0  0  0  0  0  0  0  0  0  0  0  0
    9.2463    1.2829    0.0000 H   0  0  0  0  0  0  0  0  0  0  0  0
    5.3147   -0.0720    0.0000 H   0  0  0  0  0  0  0  0  0  0  0  0
   10.1124   -0.1670    0.0000 H   0  0  0  0  0  0  0  0  0  0  0  0
   10.9094   -0.1670    0.0000 H   0  0  0  0  0  0  0  0  0  0  0  0
    2.5402   -0.6788    0.0000 H   0  0  0  0  0  0  0  0  0  0  0  0
   11.7060   -1.0020    0.0000 H   0  0  0  0  0  0  0  0  0  0  0  0
    1.3834   -1.9636    0.0000 H   0  0  0  0  0  0  0  0  0  0  0  0
   14.5119    0.6180    0.0000 H   0  0  0  0  0  0  0  0  0  0  0  0
   13.1090   -1.8120    0.0000 H   0  0  0  0  0  0  0  0  0  0  0  0
   14.5119   -1.0020    0.0000 H   0  0  0  0  0  0  0  0  0  0  0  0
   14.5119    1.9980    0.0000 H   0  0  0  0  0  0  0  0  0  0  0  0
   11.7060    1.9980    0.0000 H   0  0  0  0  0  0  0  0  0  0  0  0
   14.5119    3.6180    0.0000 H   0  0  0  0  0  0  0  0  0  0  0  0
   11.7060    3.6180    0.0000 H   0  0  0  0  0  0  0  0  0  0  0  0
   13.1090    4.4280    0.0000 H   0  0  0  0  0  0  0  0  0  0  0  0
  1 23  1  0  0  0  0
  2  5  2  0  0  0  0
  2  6  2  0  0  0  0
  2  8  1  0  0  0  0
  2 17  1  0  0  0  0
  3 17  1  0  0  0  0
  3 23  1  0  0  0  0
  4 16  1  0  0  0  0
  4 18  1  0  0  0  0
  7 12  1  0  0  0  0
  7 13  1  0  0  0  0
  7 15  1  0  0  0  0
  8 14  1  0  0  0  0
  8 46  1  0  0  0  0
  9 10  1  0  0  0  0
  9 11  1  0  0  0  0
  9 14  1  0  0  0  0
  9 33  1  0  0  0  0
 10 12  1  0  0  0  0
 10 34  1  0  0  0  0
 10 35  1  0  0  0  0
 11 13  1  0  0  0  0
 11 36  1  0  0  0  0
 11 37  1  0  0  0  0
 12 38  1  0  0  0  0
 12 39  1  0  0  0  0
 13 40  1  0  0  0  0
 13 41  1  0  0  0  0
 14 42  1  0  0  0  0
 14 43  1  0  0  0  0
 15 16  1  0  0  0  0
 15 44  1  0  0  0  0
 15 45  1  0  0  0  0
 16 47  1  0  0  0  0
 16 48  1  0  0  0  0
 17 19  2  0  0  0  0
 18 20  1  0  0  0  0
 18 21  2  0  0  0  0
 19 22  1  0  0  0  0
 19 49  1  0  0  0  0
 20 24  1  0  0  0  0
 20 25  2  0  0  0  0
 21 26  1  0  0  0  0
 21 50  1  0  0  0  0
 22 23  2  0  0  0  0
 22 51  1  0  0  0  0
 24 28  2  0  0  0  0
 24 29  1  0  0  0  0
 25 27  1  0  0  0  0
 25 52  1  0  0  0  0
 26 27  2  0  0  0  0
 26 53  1  0  0  0  0
 27 54  1  0  0  0  0
 28 30  1  0  0  0  0
 28 55  1  0  0  0  0
 29 31  2  0  0  0  0
 29 56  1  0  0  0  0
 30 32  2  0  0  0  0
 30 57  1  0  0  0  0
 31 32  1  0  0  0  0
 31 58  1  0  0  0  0
 32 59  1  0  0  0  0
M  END
> <PUBCHEM_COMPOUND_CID>
71454997

> <PUBCHEM_COMPOUND_CANONICALIZED>
1

> <PUBCHEM_CACTVS_COMPLEXITY>
661

> <PUBCHEM_CACTVS_HBOND_ACCEPTOR>
6

> <PUBCHEM_CACTVS_HBOND_DONOR>
1

> <PUBCHEM_CACTVS_ROTATABLE_BOND>
9

> <PUBCHEM_CACTVS_SUBSKEYS>
AAADceB7MABkAAAAAAAAAAAAAAAAASAAAAA8YIAAAAAAAAAB0AAAHgYQQAAADQbh2CYwB4NABAqEAiBCAHBDCZAgLRBIiJgOCogOJiKlsxqHOCCk0BG4qAeQwOAOgAAAAAAIAAAAAAAAABAAAAAAAAAAAA==

> <PUBCHEM_IUPAC_OPENEYE_NAME>
5-chloro-N-[[1-[2-(2-phenylphenoxy)ethyl]-4-piperidyl]methyl]thiophene-2-sulfonamide

> <PUBCHEM_IUPAC_CAS_NAME>
5-chloro-N-[[1-[2-(2-phenylphenoxy)ethyl]-4-piperidinyl]methyl]-2-thiophenesulfonamide

> <PUBCHEM_IUPAC_NAME_MARKUP>
5-chloro-<I>N</I>-[[1-[2-(2-phenylphenoxy)ethyl]piperidin-4-yl]methyl]thiophene-2-sulfonamide

> <PUBCHEM_IUPAC_NAME>
5-chloro-N-[[1-[2-(2-phenylphenoxy)ethyl]piperidin-4-yl]methyl]thiophene-2-sulfonamide

> <PUBCHEM_IUPAC_SYSTEMATIC_NAME>
5-chloranyl-N-[[1-[2-(2-phenylphenoxy)ethyl]piperidin-4-yl]methyl]thiophene-2-sulfonamide

> <PUBCHEM_IUPAC_TRADITIONAL_NAME>
5-chloro-N-[[1-[2-(2-phenylphenoxy)ethyl]-4-piperidyl]methyl]thiophene-2-sulfonamide

> <PUBCHEM_IUPAC_INCHI>
InChI=1S/C24H27ClN2O3S2/c25-23-10-11-24(31-23)32(28,29)26-18-19-12-14-27(15-13-19)16-17-30-22-9-5-4-8-21(22)20-6-2-1-3-7-20/h1-11,19,26H,12-18H2

> <PUBCHEM_IUPAC_INCHIKEY>
KMOMTWGPDMMDNW-UHFFFAOYSA-N

> <PUBCHEM_XLOGP3_AA>
5.9

> <PUBCHEM_EXACT_MASS>
490.1151628

> <PUBCHEM_MOLECULAR_FORMULA>
C24H27ClN2O3S2

> <PUBCHEM_MOLECULAR_WEIGHT>
491.1

> <PUBCHEM_OPENEYE_CAN_SMILES>
C1CN(CCC1CNS(=O)(=O)C2=CC=C(S2)Cl)CCOC3=CC=CC=C3C4=CC=CC=C4

> <PUBCHEM_OPENEYE_ISO_SMILES>
C1CN(CCC1CNS(=O)(=O)C2=CC=C(S2)Cl)CCOC3=CC=CC=C3C4=CC=CC=C4

> <PUBCHEM_CACTVS_TPSA>
95.3

> <PUBCHEM_MONOISOTOPIC_WEIGHT>
490.1151628

> <PUBCHEM_TOTAL_CHARGE>
0

> <PUBCHEM_HEAVY_ATOM_COUNT>
32

> <PUBCHEM_ATOM_DEF_STEREO_COUNT>
0

> <PUBCHEM_ATOM_UDEF_STEREO_COUNT>
0

> <PUBCHEM_BOND_DEF_STEREO_COUNT>
0

> <PUBCHEM_BOND_UDEF_STEREO_COUNT>
0

> <PUBCHEM_ISOTOPIC_ATOM_COUNT>
0

> <PUBCHEM_COMPONENT_COUNT>
1

> <PUBCHEM_CACTVS_TAUTO_COUNT>
-1

> <PUBCHEM_COORDINATE_TYPE>
1
5
255

> <PUBCHEM_BONDANNOTATIONS>
17  19  8
18  20  8
18  21  8
19  22  8
20  25  8
21  26  8
22  23  8
24  28  8
24  29  8
25  27  8
26  27  8
28  30  8
29  31  8
3  17  8
3  23  8
30  32  8
31  32  8

$$$$
