44297720
  -OEChem-09292322222D

 67 70  0     1  0  0  0  0  0999 V2000
    3.7320    1.0114    0.0000 S   0  0  0  0  0  0  0  0  0  0  0  0
    2.0000    2.0114    0.0000 F   0  0  0  0  0  0  0  0  0  0  0  0
    2.3660    0.6454    0.0000 F   0  0  0  0  0  0  0  0  0  0  0  0
    3.3660    2.3774    0.0000 F   0  0  0  0  0  0  0  0  0  0  0  0
    4.5981    0.5114    0.0000 O   0  0  0  0  0  0  0  0  0  0  0  0
   14.1961    1.9706    0.0000 O   0  0  0  0  0  0  0  0  0  0  0  0
    3.2320    0.1454    0.0000 O   0  0  0  0  0  0  0  0  0  0  0  0
    4.2320    1.8774    0.0000 O   0  0  0  0  0  0  0  0  0  0  0  0
    8.9962    0.9906    0.0000 N   0  0  3  0  0  0  0  0  0  0  0  0
   13.3243    0.4739    0.0000 N   0  0  0  0  0  0  0  0  0  0  0  0
    8.9962    2.0322    0.0000 C   0  0  0  0  0  0  0  0  0  0  0  0
    8.0901    0.4768    0.0000 C   0  0  0  0  0  0  0  0  0  0  0  0
    8.0901    2.5461    0.0000 C   0  0  0  0  0  0  0  0  0  0  0  0
    9.8602    0.4873    0.0000 C   0  0  0  0  0  0  0  0  0  0  0  0
    7.1962    1.0114    0.0000 C   0  0  0  0  0  0  0  0  0  0  0  0
    7.1962    2.0114    0.0000 C   0  0  0  0  0  0  0  0  0  0  0  0
   10.7282    0.9839    0.0000 C   0  0  0  0  0  0  0  0  0  0  0  0
   11.5923    0.4806    0.0000 C   0  0  0  0  0  0  0  0  0  0  0  0
    6.3301    0.5114    0.0000 C   0  0  0  0  0  0  0  0  0  0  0  0
    6.3301    2.5114    0.0000 C   0  0  0  0  0  0  0  0  0  0  0  0
   12.4602    0.9773    0.0000 C   0  0  0  0  0  0  0  0  0  0  0  0
    5.4641    1.0114    0.0000 C   0  0  0  0  0  0  0  0  0  0  0  0
    5.4641    2.0114    0.0000 C   0  0  0  0  0  0  0  0  0  0  0  0
   14.1923    0.9706    0.0000 C   0  0  0  0  0  0  0  0  0  0  0  0
   15.0564    0.4672    0.0000 C   0  0  0  0  0  0  0  0  0  0  0  0
   15.9243    0.9639    0.0000 C   0  0  0  0  0  0  0  0  0  0  0  0
   16.7884    0.4606    0.0000 C   0  0  0  0  0  0  0  0  0  0  0  0
   16.7845   -0.5394    0.0000 C   0  0  0  0  0  0  0  0  0  0  0  0
   15.0525   -0.5327    0.0000 C   0  0  0  0  0  0  0  0  0  0  0  0
    2.8660    1.5114    0.0000 C   0  0  0  0  0  0  0  0  0  0  0  0
   15.9166   -1.0361    0.0000 C   0  0  0  0  0  0  0  0  0  0  0  0
   17.6486   -1.0428    0.0000 C   0  0  0  0  0  0  0  0  0  0  0  0
   17.6564    0.9572    0.0000 C   0  0  0  0  0  0  0  0  0  0  0  0
   17.6448   -2.0428    0.0000 C   0  0  0  0  0  0  0  0  0  0  0  0
   18.5166   -0.5461    0.0000 C   0  0  0  0  0  0  0  0  0  0  0  0
   18.5089   -2.5461    0.0000 C   0  0  0  0  0  0  0  0  0  0  0  0
   19.3807   -1.0494    0.0000 C   0  0  0  0  0  0  0  0  0  0  0  0
   19.3768   -2.0494    0.0000 C   0  0  0  0  0  0  0  0  0  0  0  0
    9.6070    1.9262    0.0000 H   0  0  0  0  0  0  0  0  0  0  0  0
    9.2052    2.6159    0.0000 H   0  0  0  0  0  0  0  0  0  0  0  0
    7.6855    0.0070    0.0000 H   0  0  0  0  0  0  0  0  0  0  0  0
    8.4837   -0.0023    0.0000 H   0  0  0  0  0  0  0  0  0  0  0  0
    8.4837    3.0251    0.0000 H   0  0  0  0  0  0  0  0  0  0  0  0
    7.6855    3.0159    0.0000 H   0  0  0  0  0  0  0  0  0  0  0  0
    9.4599    0.0139    0.0000 H   0  0  0  0  0  0  0  0  0  0  0  0
   10.2569    0.0108    0.0000 H   0  0  0  0  0  0  0  0  0  0  0  0
   11.1286    1.4573    0.0000 H   0  0  0  0  0  0  0  0  0  0  0  0
   10.3315    1.4604    0.0000 H   0  0  0  0  0  0  0  0  0  0  0  0
   11.1919    0.0072    0.0000 H   0  0  0  0  0  0  0  0  0  0  0  0
   11.9890    0.0041    0.0000 H   0  0  0  0  0  0  0  0  0  0  0  0
    6.3301   -0.1086    0.0000 H   0  0  0  0  0  0  0  0  0  0  0  0
    6.3301    3.1314    0.0000 H   0  0  0  0  0  0  0  0  0  0  0  0
   12.8606    1.4507    0.0000 H   0  0  0  0  0  0  0  0  0  0  0  0
   12.0635    1.4537    0.0000 H   0  0  0  0  0  0  0  0  0  0  0  0
    4.9272    2.3214    0.0000 H   0  0  0  0  0  0  0  0  0  0  0  0
   13.3219   -0.1461    0.0000 H   0  0  0  0  0  0  0  0  0  0  0  0
   15.9267    1.5839    0.0000 H   0  0  0  0  0  0  0  0  0  0  0  0
   14.5144   -0.8407    0.0000 H   0  0  0  0  0  0  0  0  0  0  0  0
   15.9142   -1.6561    0.0000 H   0  0  0  0  0  0  0  0  0  0  0  0
   17.9643    0.4191    0.0000 H   0  0  0  0  0  0  0  0  0  0  0  0
   18.1945    1.2652    0.0000 H   0  0  0  0  0  0  0  0  0  0  0  0
   17.3484    1.4954    0.0000 H   0  0  0  0  0  0  0  0  0  0  0  0
   17.1067   -2.3507    0.0000 H   0  0  0  0  0  0  0  0  0  0  0  0
   18.5190    0.0739    0.0000 H   0  0  0  0  0  0  0  0  0  0  0  0
   18.5065   -3.1661    0.0000 H   0  0  0  0  0  0  0  0  0  0  0  0
   19.9188   -0.7415    0.0000 H   0  0  0  0  0  0  0  0  0  0  0  0
   19.9126   -2.3615    0.0000 H   0  0  0  0  0  0  0  0  0  0  0  0
  1  5  1  0  0  0  0
  1  7  2  0  0  0  0
  1  8  2  0  0  0  0
  1 30  1  0  0  0  0
  2 30  1  0  0  0  0
  3 30  1  0  0  0  0
  4 30  1  0  0  0  0
  5 22  1  0  0  0  0
  6 24  2  0  0  0  0
  9 11  1  0  0  0  0
  9 12  1  0  0  0  0
  9 14  1  0  0  0  0
 10 21  1  0  0  0  0
 10 24  1  0  0  0  0
 10 56  1  0  0  0  0
 11 13  1  0  0  0  0
 11 39  1  0  0  0  0
 11 40  1  0  0  0  0
 12 15  1  0  0  0  0
 12 41  1  0  0  0  0
 12 42  1  0  0  0  0
 13 16  1  0  0  0  0
 13 43  1  0  0  0  0
 13 44  1  0  0  0  0
 14 17  1  0  0  0  0
 14 45  1  0  0  0  0
 14 46  1  0  0  0  0
 15 16  2  0  0  0  0
 15 19  1  0  0  0  0
 16 20  1  0  0  0  0
 17 18  1  0  0  0  0
 17 47  1  0  0  0  0
 17 48  1  0  0  0  0
 18 21  1  0  0  0  0
 18 49  1  0  0  0  0
 18 50  1  0  0  0  0
 19 22  2  0  0  0  0
 19 51  1  0  0  0  0
 20 23  2  0  0  0  0
 20 52  1  0  0  0  0
 21 53  1  0  0  0  0
 21 54  1  0  0  0  0
 22 23  1  0  0  0  0
 23 55  1  0  0  0  0
 24 25  1  0  0  0  0
 25 26  2  0  0  0  0
 25 29  1  0  0  0  0
 26 27  1  0  0  0  0
 26 57  1  0  0  0  0
 27 28  2  0  0  0  0
 27 33  1  0  0  0  0
 28 31  1  0  0  0  0
 28 32  1  0  0  0  0
 29 31  2  0  0  0  0
 29 58  1  0  0  0  0
 31 59  1  0  0  0  0
 32 34  2  0  0  0  0
 32 35  1  0  0  0  0
 33 60  1  0  0  0  0
 33 61  1  0  0  0  0
 33 62  1  0  0  0  0
 34 36  1  0  0  0  0
 34 63  1  0  0  0  0
 35 37  2  0  0  0  0
 35 64  1  0  0  0  0
 36 38  2  0  0  0  0
 36 65  1  0  0  0  0
 37 38  1  0  0  0  0
 37 66  1  0  0  0  0
 38 67  1  0  0  0  0
M  END
> <PUBCHEM_COMPOUND_CID>
44297720

> <PUBCHEM_COMPOUND_CANONICALIZED>
1

> <PUBCHEM_CACTVS_COMPLEXITY>
872

> <PUBCHEM_CACTVS_HBOND_ACCEPTOR>
8

> <PUBCHEM_CACTVS_HBOND_DONOR>
1

> <PUBCHEM_CACTVS_ROTATABLE_BOND>
9

> <PUBCHEM_CACTVS_SUBSKEYS>
AAADceB7OYBAAAAAAAAAAAAAAAAAAAAAAAA8YMEAAAAAAACxUAAAHwQQAAAADATBmBQyBoPAAAKIAiFSEHCCAAAkIAAIiIEODMgIJjKAlROEMQhk1hGIiYe4yNCO4AADAAAQAADAAAYAACAAAAAAAAAAAA==

> <PUBCHEM_IUPAC_OPENEYE_NAME>
[2-[4-[(3-methyl-4-phenyl-benzoyl)amino]butyl]-3,4-dihydro-1H-isoquinolin-7-yl] trifluoromethanesulfonate

> <PUBCHEM_IUPAC_CAS_NAME>
trifluoromethanesulfonic acid [2-[4-[[(3-methyl-4-phenylphenyl)-oxomethyl]amino]butyl]-3,4-dihydro-1H-isoquinolin-7-yl] ester

> <PUBCHEM_IUPAC_NAME_MARKUP>
[2-[4-[(3-methyl-4-phenylbenzoyl)amino]butyl]-3,4-dihydro-1<I>H</I>-isoquinolin-7-yl] trifluoromethanesulfonate

> <PUBCHEM_IUPAC_NAME>
[2-[4-[(3-methyl-4-phenylbenzoyl)amino]butyl]-3,4-dihydro-1H-isoquinolin-7-yl] trifluoromethanesulfonate

> <PUBCHEM_IUPAC_SYSTEMATIC_NAME>
[2-[4-[(3-methyl-4-phenyl-phenyl)carbonylamino]butyl]-3,4-dihydro-1H-isoquinolin-7-yl] tris(fluoranyl)methanesulfonate

> <PUBCHEM_IUPAC_TRADITIONAL_NAME>
trifluoromethanesulfonic acid [2-[4-[(3-methyl-4-phenyl-benzoyl)amino]butyl]-3,4-dihydro-1H-isoquinolin-7-yl] ester

> <PUBCHEM_IUPAC_INCHI>
InChI=1S/C28H29F3N2O4S/c1-20-17-23(10-12-26(20)22-7-3-2-4-8-22)27(34)32-14-5-6-15-33-16-13-21-9-11-25(18-24(21)19-33)37-38(35,36)28(29,30)31/h2-4,7-12,17-18H,5-6,13-16,19H2,1H3,(H,32,34)

> <PUBCHEM_IUPAC_INCHIKEY>
JTAWXZPSQGLYQG-UHFFFAOYSA-N

> <PUBCHEM_XLOGP3_AA>
6.2

> <PUBCHEM_EXACT_MASS>
546.18001307

> <PUBCHEM_MOLECULAR_FORMULA>
C28H29F3N2O4S

> <PUBCHEM_MOLECULAR_WEIGHT>
546.6

> <PUBCHEM_OPENEYE_CAN_SMILES>
CC1=C(C=CC(=C1)C(=O)NCCCCN2CCC3=C(C2)C=C(C=C3)OS(=O)(=O)C(F)(F)F)C4=CC=CC=C4

> <PUBCHEM_OPENEYE_ISO_SMILES>
CC1=C(C=CC(=C1)C(=O)NCCCCN2CCC3=C(C2)C=C(C=C3)OS(=O)(=O)C(F)(F)F)C4=CC=CC=C4

> <PUBCHEM_CACTVS_TPSA>
84.1

> <PUBCHEM_MONOISOTOPIC_WEIGHT>
546.18001307

> <PUBCHEM_TOTAL_CHARGE>
0

> <PUBCHEM_HEAVY_ATOM_COUNT>
38

> <PUBCHEM_ATOM_DEF_STEREO_COUNT>
0

> <PUBCHEM_ATOM_UDEF_STEREO_COUNT>
0

> <PUBCHEM_BOND_DEF_STEREO_COUNT>
0

> <PUBCHEM_BOND_UDEF_STEREO_COUNT>
0

> <PUBCHEM_ISOTOPIC_ATOM_COUNT>
0

> <PUBCHEM_COMPONENT_COUNT>
1

> <PUBCHEM_CACTVS_TAUTO_COUNT>
-1

> <PUBCHEM_COORDINATE_TYPE>
1
5
255

> <PUBCHEM_BONDANNOTATIONS>
15  16  8
15  19  8
16  20  8
19  22  8
20  23  8
22  23  8
25  26  8
25  29  8
26  27  8
27  28  8
28  31  8
29  31  8
32  34  8
32  35  8
34  36  8
35  37  8
36  38  8
37  38  8

$$$$
