44350806
  -OEChem-09292322112D

 68 69  0     0  0  0  0  0  0999 V2000
    5.6720    3.0000    0.0000 Cl  0  0  0  0  0  0  0  0  0  0  0  0
    7.4040    0.0000    0.0000 Cl  0  0  0  0  0  0  0  0  0  0  0  0
   12.6002   13.0000    0.0000 O   0  0  0  0  0  0  0  0  0  0  0  0
    7.4040    6.0000    0.0000 O   0  0  0  0  0  0  0  0  0  0  0  0
    3.1350    7.5600    0.0000 O   0  0  0  0  0  0  0  0  0  0  0  0
    0.5369    8.0600    0.0000 O   0  0  0  0  0  0  0  0  0  0  0  0
    2.2690    9.0600    0.0000 O   0  0  0  0  0  0  0  0  0  0  0  0
    1.4030    6.5600    0.0000 O   0  0  0  0  0  0  0  0  0  0  0  0
   10.8681   10.0000    0.0000 N   0  0  0  0  0  0  0  0  0  0  0  0
   10.8681   12.0000    0.0000 N   0  0  0  0  0  0  0  0  0  0  0  0
    9.1360    6.0000    0.0000 N   0  0  0  0  0  0  0  0  0  0  0  0
   11.7341   10.5000    0.0000 C   0  0  0  0  0  0  0  0  0  0  0  0
   10.0021   10.5000    0.0000 C   0  0  0  0  0  0  0  0  0  0  0  0
   11.7341   11.5000    0.0000 C   0  0  0  0  0  0  0  0  0  0  0  0
   10.0021   11.5000    0.0000 C   0  0  0  0  0  0  0  0  0  0  0  0
   10.8681    9.0000    0.0000 C   0  0  0  0  0  0  0  0  0  0  0  0
   10.0021    8.5000    0.0000 C   0  0  0  0  0  0  0  0  0  0  0  0
   10.8681   13.0000    0.0000 C   0  0  0  0  0  0  0  0  0  0  0  0
   10.0021    7.5000    0.0000 C   0  0  0  0  0  0  0  0  0  0  0  0
    9.1360    7.0000    0.0000 C   0  0  0  0  0  0  0  0  0  0  0  0
   11.7341   13.5000    0.0000 C   0  0  0  0  0  0  0  0  0  0  0  0
   10.0021   13.5000    0.0000 C   0  0  0  0  0  0  0  0  0  0  0  0
   11.7341   14.5000    0.0000 C   0  0  0  0  0  0  0  0  0  0  0  0
   10.0021   14.5000    0.0000 C   0  0  0  0  0  0  0  0  0  0  0  0
   10.8681   15.0000    0.0000 C   0  0  0  0  0  0  0  0  0  0  0  0
    8.2700    5.5000    0.0000 C   0  0  0  0  0  0  0  0  0  0  0  0
   13.4662   13.5000    0.0000 C   0  0  0  0  0  0  0  0  0  0  0  0
    8.2700    4.5000    0.0000 C   0  0  0  0  0  0  0  0  0  0  0  0
    7.4040    4.0000    0.0000 C   0  0  0  0  0  0  0  0  0  0  0  0
    7.4040    3.0000    0.0000 C   0  0  0  0  0  0  0  0  0  0  0  0
    6.5380    2.5000    0.0000 C   0  0  0  0  0  0  0  0  0  0  0  0
    8.2700    2.5000    0.0000 C   0  0  0  0  0  0  0  0  0  0  0  0
    6.5380    1.5000    0.0000 C   0  0  0  0  0  0  0  0  0  0  0  0
    8.2700    1.5000    0.0000 C   0  0  0  0  0  0  0  0  0  0  0  0
    7.4040    1.0000    0.0000 C   0  0  0  0  0  0  0  0  0  0  0  0
    2.2690    8.0600    0.0000 C   0  0  0  0  0  0  0  0  0  0  0  0
    1.4030    7.5600    0.0000 C   0  0  0  0  0  0  0  0  0  0  0  0
   11.9462    9.9174    0.0000 H   0  0  0  0  0  0  0  0  0  0  0  0
   12.3447   10.6077    0.0000 H   0  0  0  0  0  0  0  0  0  0  0  0
    9.3915   10.6077    0.0000 H   0  0  0  0  0  0  0  0  0  0  0  0
    9.7900    9.9174    0.0000 H   0  0  0  0  0  0  0  0  0  0  0  0
   12.3447   11.3923    0.0000 H   0  0  0  0  0  0  0  0  0  0  0  0
   11.9462   12.0826    0.0000 H   0  0  0  0  0  0  0  0  0  0  0  0
    9.7900   12.0826    0.0000 H   0  0  0  0  0  0  0  0  0  0  0  0
    9.3915   11.3923    0.0000 H   0  0  0  0  0  0  0  0  0  0  0  0
   11.0802    8.4174    0.0000 H   0  0  0  0  0  0  0  0  0  0  0  0
   11.4787    9.1077    0.0000 H   0  0  0  0  0  0  0  0  0  0  0  0
    9.7900    9.0826    0.0000 H   0  0  0  0  0  0  0  0  0  0  0  0
    9.3915    8.3923    0.0000 H   0  0  0  0  0  0  0  0  0  0  0  0
   10.2141    6.9174    0.0000 H   0  0  0  0  0  0  0  0  0  0  0  0
   10.6127    7.6077    0.0000 H   0  0  0  0  0  0  0  0  0  0  0  0
    8.9240    7.5826    0.0000 H   0  0  0  0  0  0  0  0  0  0  0  0
    8.5255    6.8923    0.0000 H   0  0  0  0  0  0  0  0  0  0  0  0
    9.4651   13.1900    0.0000 H   0  0  0  0  0  0  0  0  0  0  0  0
   12.2711   14.8100    0.0000 H   0  0  0  0  0  0  0  0  0  0  0  0
    9.4651   14.8100    0.0000 H   0  0  0  0  0  0  0  0  0  0  0  0
    9.6730    5.6900    0.0000 H   0  0  0  0  0  0  0  0  0  0  0  0
   10.8681   15.6200    0.0000 H   0  0  0  0  0  0  0  0  0  0  0  0
   13.7762   12.9631    0.0000 H   0  0  0  0  0  0  0  0  0  0  0  0
   14.0031   13.8100    0.0000 H   0  0  0  0  0  0  0  0  0  0  0  0
   13.1562   14.0369    0.0000 H   0  0  0  0  0  0  0  0  0  0  0  0
    8.8070    4.1900    0.0000 H   0  0  0  0  0  0  0  0  0  0  0  0
    6.8671    4.3100    0.0000 H   0  0  0  0  0  0  0  0  0  0  0  0
    8.8070    2.8100    0.0000 H   0  0  0  0  0  0  0  0  0  0  0  0
    6.0010    1.1900    0.0000 H   0  0  0  0  0  0  0  0  0  0  0  0
    8.8070    1.1900    0.0000 H   0  0  0  0  0  0  0  0  0  0  0  0
    3.6720    7.8700    0.0000 H   0  0  0  0  0  0  0  0  0  0  0  0
    0.0000    7.7500    0.0000 H   0  0  0  0  0  0  0  0  0  0  0  0
  1 31  1  0  0  0  0
  2 35  1  0  0  0  0
  3 21  1  0  0  0  0
  3 27  1  0  0  0  0
  4 26  2  0  0  0  0
  5 36  1  0  0  0  0
  5 67  1  0  0  0  0
  6 37  1  0  0  0  0
  6 68  1  0  0  0  0
  7 36  2  0  0  0  0
  8 37  2  0  0  0  0
  9 12  1  0  0  0  0
  9 13  1  0  0  0  0
  9 16  1  0  0  0  0
 10 14  1  0  0  0  0
 10 15  1  0  0  0  0
 10 18  1  0  0  0  0
 11 20  1  0  0  0  0
 11 26  1  0  0  0  0
 11 57  1  0  0  0  0
 12 14  1  0  0  0  0
 12 38  1  0  0  0  0
 12 39  1  0  0  0  0
 13 15  1  0  0  0  0
 13 40  1  0  0  0  0
 13 41  1  0  0  0  0
 14 42  1  0  0  0  0
 14 43  1  0  0  0  0
 15 44  1  0  0  0  0
 15 45  1  0  0  0  0
 16 17  1  0  0  0  0
 16 46  1  0  0  0  0
 16 47  1  0  0  0  0
 17 19  1  0  0  0  0
 17 48  1  0  0  0  0
 17 49  1  0  0  0  0
 18 21  1  0  0  0  0
 18 22  2  0  0  0  0
 19 20  1  0  0  0  0
 19 50  1  0  0  0  0
 19 51  1  0  0  0  0
 20 52  1  0  0  0  0
 20 53  1  0  0  0  0
 21 23  2  0  0  0  0
 22 24  1  0  0  0  0
 22 54  1  0  0  0  0
 23 25  1  0  0  0  0
 23 55  1  0  0  0  0
 24 25  2  0  0  0  0
 24 56  1  0  0  0  0
 25 58  1  0  0  0  0
 26 28  1  0  0  0  0
 27 59  1  0  0  0  0
 27 60  1  0  0  0  0
 27 61  1  0  0  0  0
 28 29  2  0  0  0  0
 28 62  1  0  0  0  0
 29 30  1  0  0  0  0
 29 63  1  0  0  0  0
 30 31  2  0  0  0  0
 30 32  1  0  0  0  0
 31 33  1  0  0  0  0
 32 34  2  0  0  0  0
 32 64  1  0  0  0  0
 33 35  2  0  0  0  0
 33 65  1  0  0  0  0
 34 35  1  0  0  0  0
 34 66  1  0  0  0  0
 36 37  1  0  0  0  0
M  END
> <PUBCHEM_COMPOUND_CID>
44350806

> <PUBCHEM_COMPOUND_CANONICALIZED>
1

> <PUBCHEM_CACTVS_COMPLEXITY>
641

> <PUBCHEM_CACTVS_HBOND_ACCEPTOR>
8

> <PUBCHEM_CACTVS_HBOND_DONOR>
3

> <PUBCHEM_CACTVS_ROTATABLE_BOND>
10

> <PUBCHEM_CACTVS_SUBSKEYS>
AAADceB7OAAGAAAAAAAAAAAAAAAAAAAAAAA8YIAAAAAAAAABQAAAHgIQCAAADA7BmCYyzoPABgCIAiXSWAKCCAAhJwAIiIBPbsgPZiLFs5uVMChk1hHZ6YeQwAAOBAAAAACBEAAIAAAAAQIgAAAAAAAAAA==

> <PUBCHEM_IUPAC_OPENEYE_NAME>
(E)-3-(2,4-dichlorophenyl)-N-[4-[4-(2-methoxyphenyl)piperazin-1-yl]butyl]prop-2-enamide;oxalic acid

> <PUBCHEM_IUPAC_CAS_NAME>
(E)-3-(2,4-dichlorophenyl)-N-[4-[4-(2-methoxyphenyl)-1-piperazinyl]butyl]-2-propenamide;oxalic acid

> <PUBCHEM_IUPAC_NAME_MARKUP>
(<I>E</I>)-3-(2,4-dichlorophenyl)-<I>N</I>-[4-[4-(2-methoxyphenyl)piperazin-1-yl]butyl]prop-2-enamide;oxalic acid

> <PUBCHEM_IUPAC_NAME>
(E)-3-(2,4-dichlorophenyl)-N-[4-[4-(2-methoxyphenyl)piperazin-1-yl]butyl]prop-2-enamide;oxalic acid

> <PUBCHEM_IUPAC_SYSTEMATIC_NAME>
(E)-3-(2,4-dichlorophenyl)-N-[4-[4-(2-methoxyphenyl)piperazin-1-yl]butyl]prop-2-enamide;ethanedioic acid

> <PUBCHEM_IUPAC_TRADITIONAL_NAME>
(E)-3-(2,4-dichlorophenyl)-N-[4-[4-(2-methoxyphenyl)piperazino]butyl]acrylamide;oxalic acid

> <PUBCHEM_IUPAC_INCHI>
InChI=1S/C24H29Cl2N3O2.C2H2O4/c1-31-23-7-3-2-6-22(23)29-16-14-28(15-17-29)13-5-4-12-27-24(30)11-9-19-8-10-20(25)18-21(19)26;3-1(4)2(5)6/h2-3,6-11,18H,4-5,12-17H2,1H3,(H,27,30);(H,3,4)(H,5,6)/b11-9+;

> <PUBCHEM_IUPAC_INCHIKEY>
DNZQVEAPLYKXNP-LBEJWNQZSA-N

> <PUBCHEM_EXACT_MASS>
551.1589911

> <PUBCHEM_MOLECULAR_FORMULA>
C26H31Cl2N3O6

> <PUBCHEM_MOLECULAR_WEIGHT>
552.4

> <PUBCHEM_OPENEYE_CAN_SMILES>
COC1=CC=CC=C1N2CCN(CC2)CCCCNC(=O)C=CC3=C(C=C(C=C3)Cl)Cl.C(=O)(C(=O)O)O

> <PUBCHEM_OPENEYE_ISO_SMILES>
COC1=CC=CC=C1N2CCN(CC2)CCCCNC(=O)/C=C/C3=C(C=C(C=C3)Cl)Cl.C(=O)(C(=O)O)O

> <PUBCHEM_CACTVS_TPSA>
119

> <PUBCHEM_MONOISOTOPIC_WEIGHT>
551.1589911

> <PUBCHEM_TOTAL_CHARGE>
0

> <PUBCHEM_HEAVY_ATOM_COUNT>
37

> <PUBCHEM_ATOM_DEF_STEREO_COUNT>
0

> <PUBCHEM_ATOM_UDEF_STEREO_COUNT>
0

> <PUBCHEM_BOND_DEF_STEREO_COUNT>
1

> <PUBCHEM_BOND_UDEF_STEREO_COUNT>
0

> <PUBCHEM_ISOTOPIC_ATOM_COUNT>
0

> <PUBCHEM_COMPONENT_COUNT>
2

> <PUBCHEM_CACTVS_TAUTO_COUNT>
-1

> <PUBCHEM_COORDINATE_TYPE>
1
5
255

> <PUBCHEM_BONDANNOTATIONS>
18  21  8
18  22  8
21  23  8
22  24  8
23  25  8
24  25  8
30  31  8
30  32  8
31  33  8
32  34  8
33  35  8
34  35  8

$$$$
