164621351
  -OEChem-09292322022D

 62 65  0     1  0  0  0  0  0999 V2000
    2.8602    2.2516    0.0000 F   0  0  0  0  0  0  0  0  0  0  0  0
    2.8757   -1.7483    0.0000 O   0  0  0  0  0  0  0  0  0  0  0  0
   10.7999   -0.7178    0.0000 O   0  0  0  0  0  0  0  0  0  0  0  0
   16.0621   -0.6936    0.0000 O   0  0  0  0  0  0  0  0  0  0  0  0
    7.3359   -0.7311    0.0000 N   0  0  3  0  0  0  0  0  0  0  0  0
   14.3301   -0.6936    0.0000 N   0  0  0  0  0  0  0  0  0  0  0  0
    5.6038   -0.7378    0.0000 C   0  0  3  0  0  0  0  0  0  0  0  0
    4.6038   -0.7416    0.0000 C   0  0  3  0  0  0  0  0  0  0  0  0
    5.1072   -1.6057    0.0000 C   0  0  0  0  0  0  0  0  0  0  0  0
    6.4679   -0.2345    0.0000 C   0  0  0  0  0  0  0  0  0  0  0  0
    3.7359   -0.2450    0.0000 C   0  0  0  0  0  0  0  0  0  0  0  0
    2.8718   -0.7483    0.0000 C   0  0  0  0  0  0  0  0  0  0  0  0
    3.7320    0.7550    0.0000 C   0  0  0  0  0  0  0  0  0  0  0  0
    8.2000   -0.2278    0.0000 C   0  0  0  0  0  0  0  0  0  0  0  0
    7.3397   -1.7311    0.0000 C   0  0  0  0  0  0  0  0  0  0  0  0
    9.0679   -0.7244    0.0000 C   0  0  0  0  0  0  0  0  0  0  0  0
    2.0038   -0.2517    0.0000 C   0  0  0  0  0  0  0  0  0  0  0  0
    2.8641    1.2517    0.0000 C   0  0  0  0  0  0  0  0  0  0  0  0
    8.2077   -2.2278    0.0000 C   0  0  0  0  0  0  0  0  0  0  0  0
    2.0000    0.7483    0.0000 C   0  0  0  0  0  0  0  0  0  0  0  0
    9.9320   -0.2211    0.0000 C   0  0  0  0  0  0  0  0  0  0  0  0
    2.0116   -2.2516    0.0000 C   0  0  0  0  0  0  0  0  0  0  0  0
   11.6640   -0.2144    0.0000 C   0  0  0  0  0  0  0  0  0  0  0  0
   13.4640    0.8064    0.0000 C   0  0  0  0  0  0  0  0  0  0  0  0
   13.4640   -0.1936    0.0000 C   0  0  0  0  0  0  0  0  0  0  0  0
   12.5701   -0.7283    0.0000 C   0  0  0  0  0  0  0  0  0  0  0  0
   14.3301    1.3064    0.0000 C   0  0  0  0  0  0  0  0  0  0  0  0
   11.6640    0.8272    0.0000 C   0  0  0  0  0  0  0  0  0  0  0  0
   15.1961    0.8064    0.0000 C   0  0  0  0  0  0  0  0  0  0  0  0
   12.5701    1.3410    0.0000 C   0  0  0  0  0  0  0  0  0  0  0  0
   15.1961   -0.1936    0.0000 C   0  0  0  0  0  0  0  0  0  0  0  0
    6.0439   -1.1745    0.0000 H   0  0  0  0  0  0  0  0  0  0  0  0
    4.1671   -1.1817    0.0000 H   0  0  0  0  0  0  0  0  0  0  0  0
    4.6338   -2.0061    0.0000 H   0  0  0  0  0  0  0  0  0  0  0  0
    5.5836   -2.0024    0.0000 H   0  0  0  0  0  0  0  0  0  0  0  0
    6.8646    0.2420    0.0000 H   0  0  0  0  0  0  0  0  0  0  0  0
    6.0676    0.2389    0.0000 H   0  0  0  0  0  0  0  0  0  0  0  0
    4.2678    1.0671    0.0000 H   0  0  0  0  0  0  0  0  0  0  0  0
    8.5966    0.2487    0.0000 H   0  0  0  0  0  0  0  0  0  0  0  0
    7.7996    0.2456    0.0000 H   0  0  0  0  0  0  0  0  0  0  0  0
    6.7287   -1.6258    0.0000 H   0  0  0  0  0  0  0  0  0  0  0  0
    7.1299   -2.3145    0.0000 H   0  0  0  0  0  0  0  0  0  0  0  0
    8.6712   -1.2009    0.0000 H   0  0  0  0  0  0  0  0  0  0  0  0
    9.4683   -1.1978    0.0000 H   0  0  0  0  0  0  0  0  0  0  0  0
    1.4681   -0.5637    0.0000 H   0  0  0  0  0  0  0  0  0  0  0  0
    7.8997   -2.7659    0.0000 H   0  0  0  0  0  0  0  0  0  0  0  0
    8.7458   -2.5357    0.0000 H   0  0  0  0  0  0  0  0  0  0  0  0
    8.5156   -1.6896    0.0000 H   0  0  0  0  0  0  0  0  0  0  0  0
    1.4619    1.0562    0.0000 H   0  0  0  0  0  0  0  0  0  0  0  0
   10.3287    0.2554    0.0000 H   0  0  0  0  0  0  0  0  0  0  0  0
    9.5316    0.2523    0.0000 H   0  0  0  0  0  0  0  0  0  0  0  0
    1.6995   -1.7159    0.0000 H   0  0  0  0  0  0  0  0  0  0  0  0
    1.4758   -2.5637    0.0000 H   0  0  0  0  0  0  0  0  0  0  0  0
    2.3236   -2.7874    0.0000 H   0  0  0  0  0  0  0  0  0  0  0  0
   12.5773   -1.3482    0.0000 H   0  0  0  0  0  0  0  0  0  0  0  0
   14.7286    1.7813    0.0000 H   0  0  0  0  0  0  0  0  0  0  0  0
   13.9315    1.7813    0.0000 H   0  0  0  0  0  0  0  0  0  0  0  0
   11.1283    1.1393    0.0000 H   0  0  0  0  0  0  0  0  0  0  0  0
   15.8067    0.6987    0.0000 H   0  0  0  0  0  0  0  0  0  0  0  0
   15.4081    1.3890    0.0000 H   0  0  0  0  0  0  0  0  0  0  0  0
   12.5773    1.9610    0.0000 H   0  0  0  0  0  0  0  0  0  0  0  0
   14.3301   -1.3136    0.0000 H   0  0  0  0  0  0  0  0  0  0  0  0
  1 18  1  0  0  0  0
  2 12  1  0  0  0  0
  2 22  1  0  0  0  0
  3 21  1  0  0  0  0
  3 23  1  0  0  0  0
  4 31  2  0  0  0  0
  5 10  1  0  0  0  0
  5 14  1  0  0  0  0
  5 15  1  0  0  0  0
  6 25  1  0  0  0  0
  6 31  1  0  0  0  0
  6 62  1  0  0  0  0
  7  8  1  0  0  0  0
  7  9  1  0  0  0  0
  7 10  1  0  0  0  0
  7 32  1  0  0  0  0
  8  9  1  0  0  0  0
  8 11  1  0  0  0  0
  8 33  1  0  0  0  0
  9 34  1  0  0  0  0
  9 35  1  0  0  0  0
 10 36  1  0  0  0  0
 10 37  1  0  0  0  0
 11 12  2  0  0  0  0
 11 13  1  0  0  0  0
 12 17  1  0  0  0  0
 13 18  2  0  0  0  0
 13 38  1  0  0  0  0
 14 16  1  0  0  0  0
 14 39  1  0  0  0  0
 14 40  1  0  0  0  0
 15 19  1  0  0  0  0
 15 41  1  0  0  0  0
 15 42  1  0  0  0  0
 16 21  1  0  0  0  0
 16 43  1  0  0  0  0
 16 44  1  0  0  0  0
 17 20  2  0  0  0  0
 17 45  1  0  0  0  0
 18 20  1  0  0  0  0
 19 46  1  0  0  0  0
 19 47  1  0  0  0  0
 19 48  1  0  0  0  0
 20 49  1  0  0  0  0
 21 50  1  0  0  0  0
 21 51  1  0  0  0  0
 22 52  1  0  0  0  0
 22 53  1  0  0  0  0
 22 54  1  0  0  0  0
 23 26  2  0  0  0  0
 23 28  1  0  0  0  0
 24 25  2  0  0  0  0
 24 27  1  0  0  0  0
 24 30  1  0  0  0  0
 25 26  1  0  0  0  0
 26 55  1  0  0  0  0
 27 29  1  0  0  0  0
 27 56  1  0  0  0  0
 27 57  1  0  0  0  0
 28 30  2  0  0  0  0
 28 58  1  0  0  0  0
 29 31  1  0  0  0  0
 29 59  1  0  0  0  0
 29 60  1  0  0  0  0
 30 61  1  0  0  0  0
M  END
> <PUBCHEM_COMPOUND_CID>
164621351

> <PUBCHEM_COMPOUND_CANONICALIZED>
1

> <PUBCHEM_CACTVS_COMPLEXITY>
591

> <PUBCHEM_CACTVS_HBOND_ACCEPTOR>
5

> <PUBCHEM_CACTVS_HBOND_DONOR>
1

> <PUBCHEM_CACTVS_ROTATABLE_BOND>
10

> <PUBCHEM_CACTVS_SUBSKEYS>
AAADceB7MQAAAAAAAAAAAAAAGAAAAAAAAAA8YIAAAAAAAACxQAAAHwAQAAAADQzhmA4yxoPABACIAiVSUACCCAAhIgAIiAEObIgMJjLEsZuGOCjm1BnI6AeY2eOeoAAAAgAKAABAAAAEABQAAAAAAAAAAA==

> <PUBCHEM_IUPAC_OPENEYE_NAME>
7-[3-[ethyl-[[2-(5-fluoro-2-methoxy-phenyl)cyclopropyl]methyl]amino]propoxy]-3,4-dihydro-1H-quinolin-2-one

> <PUBCHEM_IUPAC_CAS_NAME>
7-[3-[ethyl-[[2-(5-fluoro-2-methoxyphenyl)cyclopropyl]methyl]amino]propoxy]-3,4-dihydro-1H-quinolin-2-one

> <PUBCHEM_IUPAC_NAME_MARKUP>
7-[3-[ethyl-[[2-(5-fluoro-2-methoxyphenyl)cyclopropyl]methyl]amino]propoxy]-3,4-dihydro-1<I>H</I>-quinolin-2-one

> <PUBCHEM_IUPAC_NAME>
7-[3-[ethyl-[[2-(5-fluoro-2-methoxyphenyl)cyclopropyl]methyl]amino]propoxy]-3,4-dihydro-1H-quinolin-2-one

> <PUBCHEM_IUPAC_SYSTEMATIC_NAME>
7-[3-[ethyl-[[2-(5-fluoranyl-2-methoxy-phenyl)cyclopropyl]methyl]amino]propoxy]-3,4-dihydro-1H-quinolin-2-one

> <PUBCHEM_IUPAC_TRADITIONAL_NAME>
7-[3-[ethyl-[[2-(5-fluoro-2-methoxy-phenyl)cyclopropyl]methyl]amino]propoxy]-3,4-dihydrocarbostyril

> <PUBCHEM_IUPAC_INCHI>
InChI=1S/C25H31FN2O3/c1-3-28(16-18-13-21(18)22-14-19(26)7-9-24(22)30-2)11-4-12-31-20-8-5-17-6-10-25(29)27-23(17)15-20/h5,7-9,14-15,18,21H,3-4,6,10-13,16H2,1-2H3,(H,27,29)

> <PUBCHEM_IUPAC_INCHIKEY>
OIXWMGVKJCJKNE-UHFFFAOYSA-N

> <PUBCHEM_XLOGP3_AA>
4

> <PUBCHEM_EXACT_MASS>
426.23187102

> <PUBCHEM_MOLECULAR_FORMULA>
C25H31FN2O3

> <PUBCHEM_MOLECULAR_WEIGHT>
426.5

> <PUBCHEM_OPENEYE_CAN_SMILES>
CCN(CCCOC1=CC2=C(CCC(=O)N2)C=C1)CC3CC3C4=C(C=CC(=C4)F)OC

> <PUBCHEM_OPENEYE_ISO_SMILES>
CCN(CCCOC1=CC2=C(CCC(=O)N2)C=C1)CC3CC3C4=C(C=CC(=C4)F)OC

> <PUBCHEM_CACTVS_TPSA>
50.8

> <PUBCHEM_MONOISOTOPIC_WEIGHT>
426.23187102

> <PUBCHEM_TOTAL_CHARGE>
0

> <PUBCHEM_HEAVY_ATOM_COUNT>
31

> <PUBCHEM_ATOM_DEF_STEREO_COUNT>
0

> <PUBCHEM_ATOM_UDEF_STEREO_COUNT>
2

> <PUBCHEM_BOND_DEF_STEREO_COUNT>
0

> <PUBCHEM_BOND_UDEF_STEREO_COUNT>
0

> <PUBCHEM_ISOTOPIC_ATOM_COUNT>
0

> <PUBCHEM_COMPONENT_COUNT>
1

> <PUBCHEM_CACTVS_TAUTO_COUNT>
-1

> <PUBCHEM_COORDINATE_TYPE>
1
5
255

> <PUBCHEM_BONDANNOTATIONS>
11  12  8
11  13  8
12  17  8
13  18  8
17  20  8
18  20  8
23  26  8
23  28  8
24  25  8
24  30  8
25  26  8
28  30  8
7  10  3
8  11  3

$$$$
