13091273
  -OEChem-09292322232D

 53 56  0     1  0  0  0  0  0999 V2000
    3.8426    5.8275    0.0000 F   0  0  0  0  0  0  0  0  0  0  0  0
    3.2856   -3.1821    0.0000 O   0  0  0  0  0  0  0  0  0  0  0  0
    6.8426    2.3634    0.0000 O   0  0  0  0  0  0  0  0  0  0  0  0
    5.8426   -1.1007    0.0000 N   0  0  0  0  0  0  0  0  0  0  0  0
    6.5793   -2.0833    0.0000 C   0  0  3  0  0  0  0  0  0  0  0  0
    6.3204   -3.0492    0.0000 C   0  0  3  0  0  0  0  0  0  0  0  0
    4.2704   -3.3557    0.0000 C   0  0  0  0  0  0  0  0  0  0  0  0
    4.5460   -2.3944    0.0000 C   0  0  0  0  0  0  0  0  0  0  0  0
    5.0994   -3.9149    0.0000 C   0  0  0  0  0  0  0  0  0  0  0  0
    7.9782   -2.5921    0.0000 C   0  0  0  0  0  0  0  0  0  0  0  0
    7.7194   -3.5581    0.0000 C   0  0  0  0  0  0  0  0  0  0  0  0
    5.3426   -0.2347    0.0000 C   0  0  0  0  0  0  0  0  0  0  0  0
    3.6276   -4.1218    0.0000 C   0  0  0  0  0  0  0  0  0  0  0  0
    5.8426    0.6313    0.0000 C   0  0  0  0  0  0  0  0  0  0  0  0
    2.6428   -3.9481    0.0000 C   0  0  0  0  0  0  0  0  0  0  0  0
    3.9696   -5.0614    0.0000 C   0  0  0  0  0  0  0  0  0  0  0  0
    5.3426    1.4974    0.0000 C   0  0  0  0  0  0  0  0  0  0  0  0
    2.0000   -4.7142    0.0000 C   0  0  0  0  0  0  0  0  0  0  0  0
    3.3268   -5.8275    0.0000 C   0  0  0  0  0  0  0  0  0  0  0  0
    5.8426    2.3634    0.0000 C   0  0  0  0  0  0  0  0  0  0  0  0
    2.3420   -5.6538    0.0000 C   0  0  0  0  0  0  0  0  0  0  0  0
    5.3426    3.2294    0.0000 C   0  0  0  0  0  0  0  0  0  0  0  0
    4.3426    3.2294    0.0000 C   0  0  0  0  0  0  0  0  0  0  0  0
    5.8426    4.0954    0.0000 C   0  0  0  0  0  0  0  0  0  0  0  0
    3.8426    4.0954    0.0000 C   0  0  0  0  0  0  0  0  0  0  0  0
    5.3426    4.9615    0.0000 C   0  0  0  0  0  0  0  0  0  0  0  0
    4.3426    4.9615    0.0000 C   0  0  0  0  0  0  0  0  0  0  0  0
    6.9486   -1.5854    0.0000 H   0  0  0  0  0  0  0  0  0  0  0  0
    6.4032   -3.6637    0.0000 H   0  0  0  0  0  0  0  0  0  0  0  0
    4.5410   -1.7745    0.0000 H   0  0  0  0  0  0  0  0  0  0  0  0
    3.9317   -2.3107    0.0000 H   0  0  0  0  0  0  0  0  0  0  0  0
    4.6936   -4.3836    0.0000 H   0  0  0  0  0  0  0  0  0  0  0  0
    5.5161   -4.3740    0.0000 H   0  0  0  0  0  0  0  0  0  0  0  0
    8.5722   -2.7699    0.0000 H   0  0  0  0  0  0  0  0  0  0  0  0
    8.1731   -2.0036    0.0000 H   0  0  0  0  0  0  0  0  0  0  0  0
    7.5244   -4.1466    0.0000 H   0  0  0  0  0  0  0  0  0  0  0  0
    8.3134   -3.7358    0.0000 H   0  0  0  0  0  0  0  0  0  0  0  0
    4.8677    0.1638    0.0000 H   0  0  0  0  0  0  0  0  0  0  0  0
    4.8677   -0.6332    0.0000 H   0  0  0  0  0  0  0  0  0  0  0  0
    6.3176    0.2328    0.0000 H   0  0  0  0  0  0  0  0  0  0  0  0
    6.3176    1.0299    0.0000 H   0  0  0  0  0  0  0  0  0  0  0  0
    3.0735   -2.5995    0.0000 H   0  0  0  0  0  0  0  0  0  0  0  0
    2.4307   -3.3655    0.0000 H   0  0  0  0  0  0  0  0  0  0  0  0
    4.5802   -5.1691    0.0000 H   0  0  0  0  0  0  0  0  0  0  0  0
    4.8677    1.8959    0.0000 H   0  0  0  0  0  0  0  0  0  0  0  0
    4.8677    1.0988    0.0000 H   0  0  0  0  0  0  0  0  0  0  0  0
    1.3894   -4.6065    0.0000 H   0  0  0  0  0  0  0  0  0  0  0  0
    3.5389   -6.4101    0.0000 H   0  0  0  0  0  0  0  0  0  0  0  0
    1.9435   -6.1288    0.0000 H   0  0  0  0  0  0  0  0  0  0  0  0
    4.0326    2.6925    0.0000 H   0  0  0  0  0  0  0  0  0  0  0  0
    6.4626    4.0954    0.0000 H   0  0  0  0  0  0  0  0  0  0  0  0
    3.2226    4.0954    0.0000 H   0  0  0  0  0  0  0  0  0  0  0  0
    5.6527    5.4984    0.0000 H   0  0  0  0  0  0  0  0  0  0  0  0
  1 27  1  0  0  0  0
  2  7  1  0  0  0  0
  2 42  1  0  0  0  0
  3 20  2  0  0  0  0
  4  5  1  0  0  0  0
  4  6  1  0  0  0  0
  4 12  1  0  0  0  0
  5  8  1  0  0  0  0
  5 10  1  0  0  0  0
  5 28  1  0  0  0  0
  6  9  1  0  0  0  0
  6 11  1  0  0  0  0
  6 29  1  0  0  0  0
  7  8  1  0  0  0  0
  7  9  1  0  0  0  0
  7 13  1  0  0  0  0
  8 30  1  0  0  0  0
  8 31  1  0  0  0  0
  9 32  1  0  0  0  0
  9 33  1  0  0  0  0
 10 11  1  0  0  0  0
 10 34  1  0  0  0  0
 10 35  1  0  0  0  0
 11 36  1  0  0  0  0
 11 37  1  0  0  0  0
 12 14  1  0  0  0  0
 12 38  1  0  0  0  0
 12 39  1  0  0  0  0
 13 15  2  0  0  0  0
 13 16  1  0  0  0  0
 14 17  1  0  0  0  0
 14 40  1  0  0  0  0
 14 41  1  0  0  0  0
 15 18  1  0  0  0  0
 15 43  1  0  0  0  0
 16 19  2  0  0  0  0
 16 44  1  0  0  0  0
 17 20  1  0  0  0  0
 17 45  1  0  0  0  0
 17 46  1  0  0  0  0
 18 21  2  0  0  0  0
 18 47  1  0  0  0  0
 19 21  1  0  0  0  0
 19 48  1  0  0  0  0
 20 22  1  0  0  0  0
 21 49  1  0  0  0  0
 22 23  2  0  0  0  0
 22 24  1  0  0  0  0
 23 25  1  0  0  0  0
 23 50  1  0  0  0  0
 24 26  2  0  0  0  0
 24 51  1  0  0  0  0
 25 27  2  0  0  0  0
 25 52  1  0  0  0  0
 26 27  1  0  0  0  0
 26 53  1  0  0  0  0
M  END
> <PUBCHEM_COMPOUND_CID>
13091273

> <PUBCHEM_COMPOUND_CANONICALIZED>
1

> <PUBCHEM_CACTVS_COMPLEXITY>
497

> <PUBCHEM_CACTVS_HBOND_ACCEPTOR>
4

> <PUBCHEM_CACTVS_HBOND_DONOR>
1

> <PUBCHEM_CACTVS_ROTATABLE_BOND>
6

> <PUBCHEM_CACTVS_SUBSKEYS>
AAADceB6MQAAAAAAAAAAAAAAAAAAAWAAAAA8YIAABgAAAAABQAAAHwAACAAADGzBmAwwAIMAAgCIAqBSAAACAAAkAAAIiAEICMgIJjKAlRCEcQAmwAGImYecyOCOgAAAAAAAAAAAAAAAAAAAAAAAAAAAAA==

> <PUBCHEM_IUPAC_OPENEYE_NAME>
1-(4-fluorophenyl)-4-(3-hydroxy-3-phenyl-8-azabicyclo[3.2.1]octan-8-yl)butan-1-one

> <PUBCHEM_IUPAC_CAS_NAME>
1-(4-fluorophenyl)-4-(3-hydroxy-3-phenyl-8-azabicyclo[3.2.1]octan-8-yl)-1-butanone

> <PUBCHEM_IUPAC_NAME_MARKUP>
1-(4-fluorophenyl)-4-(3-hydroxy-3-phenyl-8-azabicyclo[3.2.1]octan-8-yl)butan-1-one

> <PUBCHEM_IUPAC_NAME>
1-(4-fluorophenyl)-4-(3-hydroxy-3-phenyl-8-azabicyclo[3.2.1]octan-8-yl)butan-1-one

> <PUBCHEM_IUPAC_SYSTEMATIC_NAME>
1-(4-fluorophenyl)-4-(3-oxidanyl-3-phenyl-8-azabicyclo[3.2.1]octan-8-yl)butan-1-one

> <PUBCHEM_IUPAC_TRADITIONAL_NAME>
1-(4-fluorophenyl)-4-(3-hydroxy-3-phenyl-8-azabicyclo[3.2.1]octan-8-yl)butan-1-one

> <PUBCHEM_IUPAC_INCHI>
InChI=1S/C23H26FNO2/c24-19-10-8-17(9-11-19)22(26)7-4-14-25-20-12-13-21(25)16-23(27,15-20)18-5-2-1-3-6-18/h1-3,5-6,8-11,20-21,27H,4,7,12-16H2

> <PUBCHEM_IUPAC_INCHIKEY>
CPDKHEPGGZULPR-UHFFFAOYSA-N

> <PUBCHEM_XLOGP3_AA>
3.8

> <PUBCHEM_EXACT_MASS>
367.19475723

> <PUBCHEM_MOLECULAR_FORMULA>
C23H26FNO2

> <PUBCHEM_MOLECULAR_WEIGHT>
367.5

> <PUBCHEM_OPENEYE_CAN_SMILES>
C1CC2CC(CC1N2CCCC(=O)C3=CC=C(C=C3)F)(C4=CC=CC=C4)O

> <PUBCHEM_OPENEYE_ISO_SMILES>
C1CC2CC(CC1N2CCCC(=O)C3=CC=C(C=C3)F)(C4=CC=CC=C4)O

> <PUBCHEM_CACTVS_TPSA>
40.5

> <PUBCHEM_MONOISOTOPIC_WEIGHT>
367.19475723

> <PUBCHEM_TOTAL_CHARGE>
0

> <PUBCHEM_HEAVY_ATOM_COUNT>
27

> <PUBCHEM_ATOM_DEF_STEREO_COUNT>
0

> <PUBCHEM_ATOM_UDEF_STEREO_COUNT>
2

> <PUBCHEM_BOND_DEF_STEREO_COUNT>
0

> <PUBCHEM_BOND_UDEF_STEREO_COUNT>
0

> <PUBCHEM_ISOTOPIC_ATOM_COUNT>
0

> <PUBCHEM_COMPONENT_COUNT>
1

> <PUBCHEM_CACTVS_TAUTO_COUNT>
-1

> <PUBCHEM_COORDINATE_TYPE>
1
5
255

> <PUBCHEM_BONDANNOTATIONS>
13  15  8
13  16  8
15  18  8
16  19  8
18  21  8
19  21  8
22  23  8
22  24  8
23  25  8
24  26  8
25  27  8
26  27  8
5  10  3
6  11  3

$$$$
