164624513
  -OEChem-09292322432D

 83 86  0     1  0  0  0  0  0999 V2000
    2.1744    2.1533    0.0000 Cl  0  0  0  0  0  0  0  0  0  0  0  0
    9.8303   -0.1395    0.0000 O   0  0  0  0  0  0  0  0  0  0  0  0
    4.4001   -0.6833    0.0000 O   0  0  0  0  0  0  0  0  0  0  0  0
   14.1623   -0.6229    0.0000 O   0  0  0  0  0  0  0  0  0  0  0  0
    2.9949    0.3294    0.0000 O   0  0  0  0  0  0  0  0  0  0  0  0
    6.1541    1.7505    0.0000 O   0  0  0  0  0  0  0  0  0  0  0  0
   19.4245   -0.5987    0.0000 O   0  0  0  0  0  0  0  0  0  0  0  0
    7.8882   -1.8495    0.0000 N   0  0  3  0  0  0  0  0  0  0  0  0
    5.9797    0.0273    0.0000 N   0  0  0  0  0  0  0  0  0  0  0  0
   17.6924   -0.5987    0.0000 N   0  0  0  0  0  0  0  0  0  0  0  0
    7.3848   -0.9854    0.0000 C   0  0  1  0  0  0  0  0  0  0  0  0
    8.0511   -0.2397    0.0000 C   0  0  0  0  0  0  0  0  0  0  0  0
    8.9662   -0.6429    0.0000 C   0  0  2  0  0  0  0  0  0  0  0  0
    8.8655   -1.6378    0.0000 C   0  0  0  0  0  0  0  0  0  0  0  0
    6.3899   -0.8847    0.0000 C   0  0  0  0  0  0  0  0  0  0  0  0
    7.4850   -2.7646    0.0000 C   0  0  0  0  0  0  0  0  0  0  0  0
    8.0759   -3.5713    0.0000 C   0  0  0  0  0  0  0  0  0  0  0  0
   10.6982   -0.6362    0.0000 C   0  0  0  0  0  0  0  0  0  0  0  0
    7.6726   -4.4864    0.0000 C   0  0  0  0  0  0  0  0  0  0  0  0
   11.5623   -0.1329    0.0000 C   0  0  0  0  0  0  0  0  0  0  0  0
    4.9848    0.1280    0.0000 C   0  0  0  0  0  0  0  0  0  0  0  0
   12.4303   -0.6295    0.0000 C   0  0  0  0  0  0  0  0  0  0  0  0
    4.5745    1.0399    0.0000 C   0  0  0  0  0  0  0  0  0  0  0  0
   13.2944   -0.1262    0.0000 C   0  0  0  0  0  0  0  0  0  0  0  0
    5.1592    1.8512    0.0000 C   0  0  0  0  0  0  0  0  0  0  0  0
    3.5796    1.1406    0.0000 C   0  0  0  0  0  0  0  0  0  0  0  0
    4.7489    2.7632    0.0000 C   0  0  0  0  0  0  0  0  0  0  0  0
    3.1693    2.0526    0.0000 C   0  0  0  0  0  0  0  0  0  0  0  0
    3.7540    2.8639    0.0000 C   0  0  0  0  0  0  0  0  0  0  0  0
   15.0264   -0.1195    0.0000 C   0  0  0  0  0  0  0  0  0  0  0  0
    5.3336    3.5745    0.0000 C   0  0  0  0  0  0  0  0  0  0  0  0
   16.8264    0.9013    0.0000 C   0  0  0  0  0  0  0  0  0  0  0  0
   16.8264   -0.0987    0.0000 C   0  0  0  0  0  0  0  0  0  0  0  0
   15.9325   -0.6334    0.0000 C   0  0  0  0  0  0  0  0  0  0  0  0
   17.6924    1.4013    0.0000 C   0  0  0  0  0  0  0  0  0  0  0  0
   15.0264    0.9221    0.0000 C   0  0  0  0  0  0  0  0  0  0  0  0
   18.5585    0.9013    0.0000 C   0  0  0  0  0  0  0  0  0  0  0  0
   15.9325    1.4360    0.0000 C   0  0  0  0  0  0  0  0  0  0  0  0
    4.9233    4.4864    0.0000 C   0  0  0  0  0  0  0  0  0  0  0  0
   18.5585   -0.0987    0.0000 C   0  0  0  0  0  0  0  0  0  0  0  0
    2.0000    0.4301    0.0000 C   0  0  0  0  0  0  0  0  0  0  0  0
    7.0492   -1.5067    0.0000 H   0  0  0  0  0  0  0  0  0  0  0  0
    8.3590    0.2985    0.0000 H   0  0  0  0  0  0  0  0  0  0  0  0
    7.5481    0.1228    0.0000 H   0  0  0  0  0  0  0  0  0  0  0  0
    8.9314   -0.0239    0.0000 H   0  0  0  0  0  0  0  0  0  0  0  0
    8.9327   -2.2542    0.0000 H   0  0  0  0  0  0  0  0  0  0  0  0
    9.4855   -1.6354    0.0000 H   0  0  0  0  0  0  0  0  0  0  0  0
    5.7889   -1.0370    0.0000 H   0  0  0  0  0  0  0  0  0  0  0  0
    6.4356   -1.5030    0.0000 H   0  0  0  0  0  0  0  0  0  0  0  0
    6.9696   -2.4199    0.0000 H   0  0  0  0  0  0  0  0  0  0  0  0
    7.0560   -3.2122    0.0000 H   0  0  0  0  0  0  0  0  0  0  0  0
    8.5912   -3.9160    0.0000 H   0  0  0  0  0  0  0  0  0  0  0  0
    8.5048   -3.1237    0.0000 H   0  0  0  0  0  0  0  0  0  0  0  0
    6.3422    0.5303    0.0000 H   0  0  0  0  0  0  0  0  0  0  0  0
   10.3016   -1.1127    0.0000 H   0  0  0  0  0  0  0  0  0  0  0  0
   11.0986   -1.1096    0.0000 H   0  0  0  0  0  0  0  0  0  0  0  0
    7.1053   -4.2364    0.0000 H   0  0  0  0  0  0  0  0  0  0  0  0
    7.4227   -5.0538    0.0000 H   0  0  0  0  0  0  0  0  0  0  0  0
    8.2400   -4.7364    0.0000 H   0  0  0  0  0  0  0  0  0  0  0  0
   11.9590    0.3436    0.0000 H   0  0  0  0  0  0  0  0  0  0  0  0
   11.1620    0.3405    0.0000 H   0  0  0  0  0  0  0  0  0  0  0  0
   12.0336   -1.1060    0.0000 H   0  0  0  0  0  0  0  0  0  0  0  0
   12.8306   -1.1029    0.0000 H   0  0  0  0  0  0  0  0  0  0  0  0
   13.6911    0.3503    0.0000 H   0  0  0  0  0  0  0  0  0  0  0  0
   12.8940    0.3472    0.0000 H   0  0  0  0  0  0  0  0  0  0  0  0
    3.4996    3.4293    0.0000 H   0  0  0  0  0  0  0  0  0  0  0  0
    5.7660    3.1301    0.0000 H   0  0  0  0  0  0  0  0  0  0  0  0
    5.8462    3.9232    0.0000 H   0  0  0  0  0  0  0  0  0  0  0  0
   18.0910    1.8762    0.0000 H   0  0  0  0  0  0  0  0  0  0  0  0
   17.2939    1.8762    0.0000 H   0  0  0  0  0  0  0  0  0  0  0  0
   15.9397   -1.2533    0.0000 H   0  0  0  0  0  0  0  0  0  0  0  0
    6.5166    2.2535    0.0000 H   0  0  0  0  0  0  0  0  0  0  0  0
   14.4907    1.2342    0.0000 H   0  0  0  0  0  0  0  0  0  0  0  0
   19.1691    0.7936    0.0000 H   0  0  0  0  0  0  0  0  0  0  0  0
   18.7705    1.4839    0.0000 H   0  0  0  0  0  0  0  0  0  0  0  0
   15.9397    2.0559    0.0000 H   0  0  0  0  0  0  0  0  0  0  0  0
   17.6924   -1.2187    0.0000 H   0  0  0  0  0  0  0  0  0  0  0  0
    5.4887    4.7408    0.0000 H   0  0  0  0  0  0  0  0  0  0  0  0
    4.6690    5.0519    0.0000 H   0  0  0  0  0  0  0  0  0  0  0  0
    4.3579    4.2321    0.0000 H   0  0  0  0  0  0  0  0  0  0  0  0
    2.0624    1.0469    0.0000 H   0  0  0  0  0  0  0  0  0  0  0  0
    1.3832    0.4925    0.0000 H   0  0  0  0  0  0  0  0  0  0  0  0
    1.9376   -0.1868    0.0000 H   0  0  0  0  0  0  0  0  0  0  0  0
  1 28  1  0  0  0  0
 13  2  1  1  0  0  0
  2 18  1  0  0  0  0
  3 21  2  0  0  0  0
  4 24  1  0  0  0  0
  4 30  1  0  0  0  0
  5 26  1  0  0  0  0
  5 41  1  0  0  0  0
  6 25  1  0  0  0  0
  6 72  1  0  0  0  0
  7 40  2  0  0  0  0
  8 11  1  0  0  0  0
  8 14  1  0  0  0  0
  8 16  1  0  0  0  0
  9 15  1  0  0  0  0
  9 21  1  0  0  0  0
  9 54  1  0  0  0  0
 10 33  1  0  0  0  0
 10 40  1  0  0  0  0
 10 77  1  0  0  0  0
 11 12  1  0  0  0  0
 11 15  1  6  0  0  0
 11 42  1  0  0  0  0
 12 13  1  0  0  0  0
 12 43  1  0  0  0  0
 12 44  1  0  0  0  0
 13 14  1  0  0  0  0
 13 45  1  0  0  0  0
 14 46  1  0  0  0  0
 14 47  1  0  0  0  0
 15 48  1  0  0  0  0
 15 49  1  0  0  0  0
 16 17  1  0  0  0  0
 16 50  1  0  0  0  0
 16 51  1  0  0  0  0
 17 19  1  0  0  0  0
 17 52  1  0  0  0  0
 17 53  1  0  0  0  0
 18 20  1  0  0  0  0
 18 55  1  0  0  0  0
 18 56  1  0  0  0  0
 19 57  1  0  0  0  0
 19 58  1  0  0  0  0
 19 59  1  0  0  0  0
 20 22  1  0  0  0  0
 20 60  1  0  0  0  0
 20 61  1  0  0  0  0
 21 23  1  0  0  0  0
 22 24  1  0  0  0  0
 22 62  1  0  0  0  0
 22 63  1  0  0  0  0
 23 25  2  0  0  0  0
 23 26  1  0  0  0  0
 24 64  1  0  0  0  0
 24 65  1  0  0  0  0
 25 27  1  0  0  0  0
 26 28  2  0  0  0  0
 27 29  2  0  0  0  0
 27 31  1  0  0  0  0
 28 29  1  0  0  0  0
 29 66  1  0  0  0  0
 30 34  2  0  0  0  0
 30 36  1  0  0  0  0
 31 39  1  0  0  0  0
 31 67  1  0  0  0  0
 31 68  1  0  0  0  0
 32 33  2  0  0  0  0
 32 35  1  0  0  0  0
 32 38  1  0  0  0  0
 33 34  1  0  0  0  0
 34 71  1  0  0  0  0
 35 37  1  0  0  0  0
 35 69  1  0  0  0  0
 35 70  1  0  0  0  0
 36 38  2  0  0  0  0
 36 73  1  0  0  0  0
 37 40  1  0  0  0  0
 37 74  1  0  0  0  0
 37 75  1  0  0  0  0
 38 76  1  0  0  0  0
 39 78  1  0  0  0  0
 39 79  1  0  0  0  0
 39 80  1  0  0  0  0
 41 81  1  0  0  0  0
 41 82  1  0  0  0  0
 41 83  1  0  0  0  0
M  END
> <PUBCHEM_COMPOUND_CID>
164624513

> <PUBCHEM_COMPOUND_CANONICALIZED>
1

> <PUBCHEM_CACTVS_COMPLEXITY>
836

> <PUBCHEM_CACTVS_HBOND_ACCEPTOR>
7

> <PUBCHEM_CACTVS_HBOND_DONOR>
3

> <PUBCHEM_CACTVS_ROTATABLE_BOND>
14

> <PUBCHEM_CACTVS_SUBSKEYS>
AAADcfB7OAAEAAAAAAAAAAAAAAAAAWAAAAA8YIAAAAAAAACxQAAAHgIQCAAADD7hmCYyxoPABgCIAiVSUACCCAAlJ0AIiIEOb8gOZzfHt5uXeWjn9h3Y+Qf4+e+eICACKgAKCABAQARUABQQAAAAAAAAAA==

> <PUBCHEM_IUPAC_OPENEYE_NAME>
5-chloro-3-ethyl-2-hydroxy-6-methoxy-N-[[(2S,4R)-4-[4-[(2-oxo-3,4-dihydro-1H-quinolin-7-yl)oxy]butoxy]-1-propyl-pyrrolidin-2-yl]methyl]benzamide

> <PUBCHEM_IUPAC_CAS_NAME>
5-chloro-3-ethyl-2-hydroxy-6-methoxy-N-[[(2S,4R)-4-[4-[(2-oxo-3,4-dihydro-1H-quinolin-7-yl)oxy]butoxy]-1-propyl-2-pyrrolidinyl]methyl]benzamide

> <PUBCHEM_IUPAC_NAME_MARKUP>
5-chloro-3-ethyl-2-hydroxy-6-methoxy-<I>N</I>-[[(2<I>S</I>,4<I>R</I>)-4-[4-[(2-oxo-3,4-dihydro-1<I>H</I>-quinolin-7-yl)oxy]butoxy]-1-propylpyrrolidin-2-yl]methyl]benzamide

> <PUBCHEM_IUPAC_NAME>
5-chloro-3-ethyl-2-hydroxy-6-methoxy-N-[[(2S,4R)-4-[4-[(2-oxo-3,4-dihydro-1H-quinolin-7-yl)oxy]butoxy]-1-propylpyrrolidin-2-yl]methyl]benzamide

> <PUBCHEM_IUPAC_SYSTEMATIC_NAME>
3-chloranyl-5-ethyl-2-methoxy-6-oxidanyl-N-[[(2S,4R)-4-[4-[(2-oxidanylidene-3,4-dihydro-1H-quinolin-7-yl)oxy]butoxy]-1-propyl-pyrrolidin-2-yl]methyl]benzamide

> <PUBCHEM_IUPAC_TRADITIONAL_NAME>
5-chloro-3-ethyl-2-hydroxy-N-[[(2S,4R)-4-[4-[(2-keto-3,4-dihydro-1H-quinolin-7-yl)oxy]butoxy]-1-propyl-pyrrolidin-2-yl]methyl]-6-methoxy-benzamide

> <PUBCHEM_IUPAC_INCHI>
InChI=1S/C31H42ClN3O6/c1-4-12-35-19-24(41-14-7-6-13-40-23-10-8-21-9-11-27(36)34-26(21)17-23)16-22(35)18-33-31(38)28-29(37)20(5-2)15-25(32)30(28)39-3/h8,10,15,17,22,24,37H,4-7,9,11-14,16,18-19H2,1-3H3,(H,33,38)(H,34,36)/t22-,24+/m0/s1

> <PUBCHEM_IUPAC_INCHIKEY>
BQPDOZCUUSRJDC-LADGPHEKSA-N

> <PUBCHEM_XLOGP3_AA>
5.4

> <PUBCHEM_EXACT_MASS>
587.2762138

> <PUBCHEM_MOLECULAR_FORMULA>
C31H42ClN3O6

> <PUBCHEM_MOLECULAR_WEIGHT>
588.1

> <PUBCHEM_OPENEYE_CAN_SMILES>
CCCN1CC(CC1CNC(=O)C2=C(C(=CC(=C2OC)Cl)CC)O)OCCCCOC3=CC4=C(CCC(=O)N4)C=C3

> <PUBCHEM_OPENEYE_ISO_SMILES>
CCCN1C[C@@H](C[C@H]1CNC(=O)C2=C(C(=CC(=C2OC)Cl)CC)O)OCCCCOC3=CC4=C(CCC(=O)N4)C=C3

> <PUBCHEM_CACTVS_TPSA>
109

> <PUBCHEM_MONOISOTOPIC_WEIGHT>
587.2762138

> <PUBCHEM_TOTAL_CHARGE>
0

> <PUBCHEM_HEAVY_ATOM_COUNT>
41

> <PUBCHEM_ATOM_DEF_STEREO_COUNT>
2

> <PUBCHEM_ATOM_UDEF_STEREO_COUNT>
0

> <PUBCHEM_BOND_DEF_STEREO_COUNT>
0

> <PUBCHEM_BOND_UDEF_STEREO_COUNT>
0

> <PUBCHEM_ISOTOPIC_ATOM_COUNT>
0

> <PUBCHEM_COMPONENT_COUNT>
1

> <PUBCHEM_CACTVS_TAUTO_COUNT>
-1

> <PUBCHEM_COORDINATE_TYPE>
1
5
255

> <PUBCHEM_BONDANNOTATIONS>
11  15  6
13  2  5
23  25  8
23  26  8
25  27  8
26  28  8
27  29  8
28  29  8
30  34  8
30  36  8
32  33  8
32  38  8
33  34  8
36  38  8

$$$$
