9991216
  -OEChem-09292322122D

 33 34  0     1  0  0  0  0  0999 V2000
    5.4641   -1.5950    0.0000 N   0  0  3  0  0  0  0  0  0  0  0  0
    2.8660    3.9050    0.0000 N   0  0  0  0  0  0  0  0  0  0  0  0
    4.5981   -0.0950    0.0000 C   0  0  2  0  0  0  0  0  0  0  0  0
    5.4641    0.4050    0.0000 C   0  0  0  0  0  0  0  0  0  0  0  0
    4.5981   -1.0950    0.0000 C   0  0  0  0  0  0  0  0  0  0  0  0
    6.3301   -0.0950    0.0000 C   0  0  0  0  0  0  0  0  0  0  0  0
    6.3301   -1.0950    0.0000 C   0  0  0  0  0  0  0  0  0  0  0  0
    3.7320    0.4050    0.0000 C   0  0  0  0  0  0  0  0  0  0  0  0
    5.4641   -2.5950    0.0000 C   0  0  0  0  0  0  0  0  0  0  0  0
    3.7320    1.4050    0.0000 C   0  0  0  0  0  0  0  0  0  0  0  0
    2.8660   -0.0950    0.0000 C   0  0  0  0  0  0  0  0  0  0  0  0
    2.8660    1.9050    0.0000 C   0  0  0  0  0  0  0  0  0  0  0  0
    2.0000    0.4050    0.0000 C   0  0  0  0  0  0  0  0  0  0  0  0
    6.3301   -3.0950    0.0000 C   0  0  0  0  0  0  0  0  0  0  0  0
    2.0000    1.4050    0.0000 C   0  0  0  0  0  0  0  0  0  0  0  0
    2.8660    2.9050    0.0000 C   0  0  0  0  0  0  0  0  0  0  0  0
    7.1962   -3.5950    0.0000 C   0  0  0  0  0  0  0  0  0  0  0  0
    4.5981    0.5250    0.0000 H   0  0  0  0  0  0  0  0  0  0  0  0
    5.8626    0.8799    0.0000 H   0  0  0  0  0  0  0  0  0  0  0  0
    5.0656    0.8799    0.0000 H   0  0  0  0  0  0  0  0  0  0  0  0
    3.9875   -0.9873    0.0000 H   0  0  0  0  0  0  0  0  0  0  0  0
    4.3860   -1.6776    0.0000 H   0  0  0  0  0  0  0  0  0  0  0  0
    6.9407   -0.2027    0.0000 H   0  0  0  0  0  0  0  0  0  0  0  0
    6.5422    0.4876    0.0000 H   0  0  0  0  0  0  0  0  0  0  0  0
    6.5422   -1.6776    0.0000 H   0  0  0  0  0  0  0  0  0  0  0  0
    6.9407   -0.9873    0.0000 H   0  0  0  0  0  0  0  0  0  0  0  0
    4.8535   -2.4873    0.0000 H   0  0  0  0  0  0  0  0  0  0  0  0
    5.2520   -3.1776    0.0000 H   0  0  0  0  0  0  0  0  0  0  0  0
    4.2690    1.7150    0.0000 H   0  0  0  0  0  0  0  0  0  0  0  0
    2.8660   -0.7150    0.0000 H   0  0  0  0  0  0  0  0  0  0  0  0
    1.4631    0.0950    0.0000 H   0  0  0  0  0  0  0  0  0  0  0  0
    1.4631    1.7150    0.0000 H   0  0  0  0  0  0  0  0  0  0  0  0
    7.7331   -3.9050    0.0000 H   0  0  0  0  0  0  0  0  0  0  0  0
  1  5  1  0  0  0  0
  1  7  1  0  0  0  0
  1  9  1  0  0  0  0
  2 16  3  0  0  0  0
  3  4  1  0  0  0  0
  3  5  1  0  0  0  0
  3  8  1  6  0  0  0
  3 18  1  0  0  0  0
  4  6  1  0  0  0  0
  4 19  1  0  0  0  0
  4 20  1  0  0  0  0
  5 21  1  0  0  0  0
  5 22  1  0  0  0  0
  6  7  1  0  0  0  0
  6 23  1  0  0  0  0
  6 24  1  0  0  0  0
  7 25  1  0  0  0  0
  7 26  1  0  0  0  0
  8 10  1  0  0  0  0
  8 11  2  0  0  0  0
  9 14  1  0  0  0  0
  9 27  1  0  0  0  0
  9 28  1  0  0  0  0
 10 12  2  0  0  0  0
 10 29  1  0  0  0  0
 11 13  1  0  0  0  0
 11 30  1  0  0  0  0
 12 15  1  0  0  0  0
 12 16  1  0  0  0  0
 13 15  2  0  0  0  0
 13 31  1  0  0  0  0
 14 17  3  0  0  0  0
 15 32  1  0  0  0  0
 17 33  1  0  0  0  0
M  END
> <PUBCHEM_COMPOUND_CID>
9991216

> <PUBCHEM_COMPOUND_CANONICALIZED>
1

> <PUBCHEM_CACTVS_COMPLEXITY>
342

> <PUBCHEM_CACTVS_HBOND_ACCEPTOR>
2

> <PUBCHEM_CACTVS_HBOND_DONOR>
0

> <PUBCHEM_CACTVS_ROTATABLE_BOND>
2

> <PUBCHEM_CACTVS_SUBSKEYS>
AAADceBzAAAAAAAAAAAAAAAAAAAAAAAAAAA8QAAAAAAAAAABAAAAHAAAAAAADQDBGAQwAIMAAADQHiBCAAAiAAAgAAAIiAAIAIgIoCKAkRGEIAAggACIiA8QgMAOgAACAAAAAAAAAAQAAAAAAAAAAAAAAA==

> <PUBCHEM_IUPAC_OPENEYE_NAME>
3-[(3S)-1-prop-2-ynyl-3-piperidyl]benzonitrile

> <PUBCHEM_IUPAC_CAS_NAME>
3-[(3S)-1-prop-2-ynyl-3-piperidinyl]benzonitrile

> <PUBCHEM_IUPAC_NAME_MARKUP>
3-[(3<I>S</I>)-1-prop-2-ynylpiperidin-3-yl]benzonitrile

> <PUBCHEM_IUPAC_NAME>
3-[(3S)-1-prop-2-ynylpiperidin-3-yl]benzonitrile

> <PUBCHEM_IUPAC_SYSTEMATIC_NAME>
3-[(3S)-1-prop-2-ynylpiperidin-3-yl]benzenecarbonitrile

> <PUBCHEM_IUPAC_TRADITIONAL_NAME>
3-[(3S)-1-propargyl-3-piperidyl]benzonitrile

> <PUBCHEM_IUPAC_INCHI>
InChI=1S/C15H16N2/c1-2-8-17-9-4-7-15(12-17)14-6-3-5-13(10-14)11-16/h1,3,5-6,10,15H,4,7-9,12H2/t15-/m1/s1

> <PUBCHEM_IUPAC_INCHIKEY>
WIXVSIWFYYDDMJ-OAHLLOKOSA-N

> <PUBCHEM_XLOGP3_AA>
2.3

> <PUBCHEM_EXACT_MASS>
224.131348519

> <PUBCHEM_MOLECULAR_FORMULA>
C15H16N2

> <PUBCHEM_MOLECULAR_WEIGHT>
224.30

> <PUBCHEM_OPENEYE_CAN_SMILES>
C#CCN1CCCC(C1)C2=CC=CC(=C2)C#N

> <PUBCHEM_OPENEYE_ISO_SMILES>
C#CCN1CCC[C@H](C1)C2=CC=CC(=C2)C#N

> <PUBCHEM_CACTVS_TPSA>
27

> <PUBCHEM_MONOISOTOPIC_WEIGHT>
224.131348519

> <PUBCHEM_TOTAL_CHARGE>
0

> <PUBCHEM_HEAVY_ATOM_COUNT>
17

> <PUBCHEM_ATOM_DEF_STEREO_COUNT>
1

> <PUBCHEM_ATOM_UDEF_STEREO_COUNT>
0

> <PUBCHEM_BOND_DEF_STEREO_COUNT>
0

> <PUBCHEM_BOND_UDEF_STEREO_COUNT>
0

> <PUBCHEM_ISOTOPIC_ATOM_COUNT>
0

> <PUBCHEM_COMPONENT_COUNT>
1

> <PUBCHEM_CACTVS_TAUTO_COUNT>
-1

> <PUBCHEM_COORDINATE_TYPE>
1
5
255

> <PUBCHEM_BONDANNOTATIONS>
10  12  8
11  13  8
12  15  8
13  15  8
3  8  6
8  10  8
8  11  8

$$$$
