9888494
  -OEChem-09292322192D

 58 62  0     0  0  0  0  0  0999 V2000
    2.0000   -2.2798    0.0000 F   0  0  0  0  0  0  0  0  0  0  0  0
    7.1538   -3.1364    0.0000 O   0  0  0  0  0  0  0  0  0  0  0  0
   11.2554    0.7340    0.0000 O   0  0  0  0  0  0  0  0  0  0  0  0
    7.8221    0.5168    0.0000 N   0  0  0  0  0  0  0  0  0  0  0  0
    5.9517   -1.8286    0.0000 N   0  0  0  0  0  0  0  0  0  0  0  0
   10.0579    1.9315    0.0000 N   0  0  0  0  0  0  0  0  0  0  0  0
    5.3887   -3.3365    0.0000 N   0  0  0  0  0  0  0  0  0  0  0  0
    6.5752   -1.0468    0.0000 C   0  0  0  0  0  0  0  0  0  0  0  0
    6.2098   -0.1159    0.0000 C   0  0  0  0  0  0  0  0  0  0  0  0
    7.5640   -1.1959    0.0000 C   0  0  0  0  0  0  0  0  0  0  0  0
    6.8333    0.6659    0.0000 C   0  0  0  0  0  0  0  0  0  0  0  0
    8.1875   -0.4140    0.0000 C   0  0  0  0  0  0  0  0  0  0  0  0
    8.4456    1.2987    0.0000 C   0  0  0  0  0  0  0  0  0  0  0  0
    9.4344    1.1496    0.0000 C   0  0  0  0  0  0  0  0  0  0  0  0
    4.9586   -1.7832    0.0000 C   0  0  0  0  0  0  0  0  0  0  0  0
    6.2170   -2.7867    0.0000 C   0  0  0  0  0  0  0  0  0  0  0  0
    4.6089   -2.7200    0.0000 C   0  0  0  0  0  0  0  0  0  0  0  0
    9.6240    2.8324    0.0000 C   0  0  0  0  0  0  0  0  0  0  0  0
   10.0579    3.7334    0.0000 C   0  0  0  0  0  0  0  0  0  0  0  0
   11.0329    1.7090    0.0000 C   0  0  0  0  0  0  0  0  0  0  0  0
    4.3222   -1.0119    0.0000 C   0  0  0  0  0  0  0  0  0  0  0  0
   11.0329    3.9559    0.0000 C   0  0  0  0  0  0  0  0  0  0  0  0
   11.8147    2.3324    0.0000 C   0  0  0  0  0  0  0  0  0  0  0  0
   11.8147    3.3324    0.0000 C   0  0  0  0  0  0  0  0  0  0  0  0
    3.6227   -2.8856    0.0000 C   0  0  0  0  0  0  0  0  0  0  0  0
    3.3360   -1.1774    0.0000 C   0  0  0  0  0  0  0  0  0  0  0  0
    2.9862   -2.1142    0.0000 C   0  0  0  0  0  0  0  0  0  0  0  0
   12.7086    1.7978    0.0000 C   0  0  0  0  0  0  0  0  0  0  0  0
   12.7086    3.8671    0.0000 C   0  0  0  0  0  0  0  0  0  0  0  0
   13.6147    2.3116    0.0000 C   0  0  0  0  0  0  0  0  0  0  0  0
   13.6147    3.3532    0.0000 C   0  0  0  0  0  0  0  0  0  0  0  0
    6.8017   -1.6240    0.0000 H   0  0  0  0  0  0  0  0  0  0  0  0
    5.7996    0.3489    0.0000 H   0  0  0  0  0  0  0  0  0  0  0  0
    5.6808   -0.4392    0.0000 H   0  0  0  0  0  0  0  0  0  0  0  0
    7.3665   -1.7836    0.0000 H   0  0  0  0  0  0  0  0  0  0  0  0
    8.1085   -1.4924    0.0000 H   0  0  0  0  0  0  0  0  0  0  0  0
    7.0308    1.2536    0.0000 H   0  0  0  0  0  0  0  0  0  0  0  0
    6.2888    0.9624    0.0000 H   0  0  0  0  0  0  0  0  0  0  0  0
    8.5977   -0.8789    0.0000 H   0  0  0  0  0  0  0  0  0  0  0  0
    8.7165   -0.0907    0.0000 H   0  0  0  0  0  0  0  0  0  0  0  0
    8.6431    1.8864    0.0000 H   0  0  0  0  0  0  0  0  0  0  0  0
    7.9011    1.5952    0.0000 H   0  0  0  0  0  0  0  0  0  0  0  0
    9.2370    0.5619    0.0000 H   0  0  0  0  0  0  0  0  0  0  0  0
    9.9789    0.8531    0.0000 H   0  0  0  0  0  0  0  0  0  0  0  0
    9.1393    3.2190    0.0000 H   0  0  0  0  0  0  0  0  0  0  0  0
    9.1393    2.4459    0.0000 H   0  0  0  0  0  0  0  0  0  0  0  0
    5.3631   -3.9559    0.0000 H   0  0  0  0  0  0  0  0  0  0  0  0
   10.0579    4.3534    0.0000 H   0  0  0  0  0  0  0  0  0  0  0  0
    9.4535    3.8714    0.0000 H   0  0  0  0  0  0  0  0  0  0  0  0
   11.5176    4.3425    0.0000 H   0  0  0  0  0  0  0  0  0  0  0  0
   10.7639    4.5145    0.0000 H   0  0  0  0  0  0  0  0  0  0  0  0
    4.5390   -0.4310    0.0000 H   0  0  0  0  0  0  0  0  0  0  0  0
    3.4058   -3.4664    0.0000 H   0  0  0  0  0  0  0  0  0  0  0  0
    2.9414   -0.6992    0.0000 H   0  0  0  0  0  0  0  0  0  0  0  0
   12.7015    1.1778    0.0000 H   0  0  0  0  0  0  0  0  0  0  0  0
   12.7015    4.4871    0.0000 H   0  0  0  0  0  0  0  0  0  0  0  0
   14.1504    1.9996    0.0000 H   0  0  0  0  0  0  0  0  0  0  0  0
   14.1504    3.6653    0.0000 H   0  0  0  0  0  0  0  0  0  0  0  0
  1 27  1  0  0  0  0
  2 16  2  0  0  0  0
  3 20  2  0  0  0  0
  4 11  1  0  0  0  0
  4 12  1  0  0  0  0
  4 13  1  0  0  0  0
  5  8  1  0  0  0  0
  5 15  1  0  0  0  0
  5 16  1  0  0  0  0
  6 14  1  0  0  0  0
  6 18  1  0  0  0  0
  6 20  1  0  0  0  0
  7 16  1  0  0  0  0
  7 17  1  0  0  0  0
  7 47  1  0  0  0  0
  8  9  1  0  0  0  0
  8 10  1  0  0  0  0
  8 32  1  0  0  0  0
  9 11  1  0  0  0  0
  9 33  1  0  0  0  0
  9 34  1  0  0  0  0
 10 12  1  0  0  0  0
 10 35  1  0  0  0  0
 10 36  1  0  0  0  0
 11 37  1  0  0  0  0
 11 38  1  0  0  0  0
 12 39  1  0  0  0  0
 12 40  1  0  0  0  0
 13 14  1  0  0  0  0
 13 41  1  0  0  0  0
 13 42  1  0  0  0  0
 14 43  1  0  0  0  0
 14 44  1  0  0  0  0
 15 17  2  0  0  0  0
 15 21  1  0  0  0  0
 17 25  1  0  0  0  0
 18 19  1  0  0  0  0
 18 45  1  0  0  0  0
 18 46  1  0  0  0  0
 19 22  1  0  0  0  0
 19 48  1  0  0  0  0
 19 49  1  0  0  0  0
 20 23  1  0  0  0  0
 21 26  2  0  0  0  0
 21 52  1  0  0  0  0
 22 24  1  0  0  0  0
 22 50  1  0  0  0  0
 22 51  1  0  0  0  0
 23 24  1  0  0  0  0
 23 28  2  0  0  0  0
 24 29  2  0  0  0  0
 25 27  2  0  0  0  0
 25 53  1  0  0  0  0
 26 27  1  0  0  0  0
 26 54  1  0  0  0  0
 28 30  1  0  0  0  0
 28 55  1  0  0  0  0
 29 31  1  0  0  0  0
 29 56  1  0  0  0  0
 30 31  2  0  0  0  0
 30 57  1  0  0  0  0
 31 58  1  0  0  0  0
M  END
> <PUBCHEM_COMPOUND_CID>
9888494

> <PUBCHEM_COMPOUND_CANONICALIZED>
1

> <PUBCHEM_CACTVS_COMPLEXITY>
668

> <PUBCHEM_CACTVS_HBOND_ACCEPTOR>
4

> <PUBCHEM_CACTVS_HBOND_DONOR>
1

> <PUBCHEM_CACTVS_ROTATABLE_BOND>
4

> <PUBCHEM_CACTVS_SUBSKEYS>
AAADceB7sQAAAAAAAAAAAAAAAAAAAWAAAAA8YIAABYAAAFgBQAAAHwAQAAAADCjBmAwxwIPAAACIAiVSUACCAAAlAgAIiAEIdMiIYDLA1ZGUIQholgLIyacYiICOgAAAAAAQACAAAAAAACAAQAAAAAAAAA==

> <PUBCHEM_IUPAC_OPENEYE_NAME>
2-[2-[4-(5-fluoro-2-oxo-3H-benzimidazol-1-yl)-1-piperidyl]ethyl]-4,5-dihydro-3H-2-benzazepin-1-one

> <PUBCHEM_IUPAC_CAS_NAME>
2-[2-[4-(5-fluoro-2-oxo-3H-benzimidazol-1-yl)-1-piperidinyl]ethyl]-4,5-dihydro-3H-2-benzazepin-1-one

> <PUBCHEM_IUPAC_NAME_MARKUP>
2-[2-[4-(5-fluoro-2-oxo-3<I>H</I>-benzimidazol-1-yl)piperidin-1-yl]ethyl]-4,5-dihydro-3<I>H</I>-2-benzazepin-1-one

> <PUBCHEM_IUPAC_NAME>
2-[2-[4-(5-fluoro-2-oxo-3H-benzimidazol-1-yl)piperidin-1-yl]ethyl]-4,5-dihydro-3H-2-benzazepin-1-one

> <PUBCHEM_IUPAC_SYSTEMATIC_NAME>
2-[2-[4-(5-fluoranyl-2-oxidanylidene-3H-benzimidazol-1-yl)piperidin-1-yl]ethyl]-4,5-dihydro-3H-2-benzazepin-1-one

> <PUBCHEM_IUPAC_TRADITIONAL_NAME>
2-[2-[4-(5-fluoro-2-keto-3H-benzimidazol-1-yl)piperidino]ethyl]-4,5-dihydro-3H-2-benzazepin-1-one

> <PUBCHEM_IUPAC_INCHI>
InChI=1S/C24H27FN4O2/c25-18-7-8-22-21(16-18)26-24(31)29(22)19-9-12-27(13-10-19)14-15-28-11-3-5-17-4-1-2-6-20(17)23(28)30/h1-2,4,6-8,16,19H,3,5,9-15H2,(H,26,31)

> <PUBCHEM_IUPAC_INCHIKEY>
KOTITFQGTVUMBT-UHFFFAOYSA-N

> <PUBCHEM_XLOGP3_AA>
3

> <PUBCHEM_EXACT_MASS>
422.21180428

> <PUBCHEM_MOLECULAR_FORMULA>
C24H27FN4O2

> <PUBCHEM_MOLECULAR_WEIGHT>
422.5

> <PUBCHEM_OPENEYE_CAN_SMILES>
C1CC2=CC=CC=C2C(=O)N(C1)CCN3CCC(CC3)N4C5=C(C=C(C=C5)F)NC4=O

> <PUBCHEM_OPENEYE_ISO_SMILES>
C1CC2=CC=CC=C2C(=O)N(C1)CCN3CCC(CC3)N4C5=C(C=C(C=C5)F)NC4=O

> <PUBCHEM_CACTVS_TPSA>
55.9

> <PUBCHEM_MONOISOTOPIC_WEIGHT>
422.21180428

> <PUBCHEM_TOTAL_CHARGE>
0

> <PUBCHEM_HEAVY_ATOM_COUNT>
31

> <PUBCHEM_ATOM_DEF_STEREO_COUNT>
0

> <PUBCHEM_ATOM_UDEF_STEREO_COUNT>
0

> <PUBCHEM_BOND_DEF_STEREO_COUNT>
0

> <PUBCHEM_BOND_UDEF_STEREO_COUNT>
0

> <PUBCHEM_ISOTOPIC_ATOM_COUNT>
0

> <PUBCHEM_COMPONENT_COUNT>
1

> <PUBCHEM_CACTVS_TAUTO_COUNT>
-1

> <PUBCHEM_COORDINATE_TYPE>
1
5
255

> <PUBCHEM_BONDANNOTATIONS>
15  17  8
15  21  8
17  25  8
21  26  8
23  24  8
23  28  8
24  29  8
25  27  8
26  27  8
28  30  8
29  31  8
30  31  8
5  15  8
5  16  8
7  16  8
7  17  8

$$$$
