155511803
  -OEChem-09292322072D

 47 49  0     0  0  0  0  0  0999 V2000
    6.3301    5.2500    0.0000 Cl  0  0  0  0  0  0  0  0  0  0  0  0
    4.5981   -1.7500    0.0000 O   0  0  0  0  0  0  0  0  0  0  0  0
    6.3301   -0.7500    0.0000 N   0  0  0  0  0  0  0  0  0  0  0  0
    5.4641   -3.2500    0.0000 N   0  0  0  0  0  0  0  0  0  0  0  0
    6.3301    1.2500    0.0000 C   0  0  0  0  0  0  0  0  0  0  0  0
    7.1962    0.7500    0.0000 C   0  0  0  0  0  0  0  0  0  0  0  0
    5.4641    0.7500    0.0000 C   0  0  0  0  0  0  0  0  0  0  0  0
    7.1962   -0.2500    0.0000 C   0  0  0  0  0  0  0  0  0  0  0  0
    5.4641   -0.2500    0.0000 C   0  0  0  0  0  0  0  0  0  0  0  0
    6.3301    2.2500    0.0000 C   0  0  0  0  0  0  0  0  0  0  0  0
    6.3301   -1.7500    0.0000 C   0  0  0  0  0  0  0  0  0  0  0  0
    5.4641    2.7500    0.0000 C   0  0  0  0  0  0  0  0  0  0  0  0
    7.1962    2.7500    0.0000 C   0  0  0  0  0  0  0  0  0  0  0  0
    5.4641   -2.2500    0.0000 C   0  0  0  0  0  0  0  0  0  0  0  0
    5.4641    3.7500    0.0000 C   0  0  0  0  0  0  0  0  0  0  0  0
    7.1962    3.7500    0.0000 C   0  0  0  0  0  0  0  0  0  0  0  0
    6.3301    4.2500    0.0000 C   0  0  0  0  0  0  0  0  0  0  0  0
    4.5981   -3.7500    0.0000 C   0  0  0  0  0  0  0  0  0  0  0  0
    3.7320   -3.2500    0.0000 C   0  0  0  0  0  0  0  0  0  0  0  0
    4.5981   -4.7500    0.0000 C   0  0  0  0  0  0  0  0  0  0  0  0
    2.8660   -3.7500    0.0000 C   0  0  0  0  0  0  0  0  0  0  0  0
    3.7320   -5.2500    0.0000 C   0  0  0  0  0  0  0  0  0  0  0  0
    2.8660   -4.7500    0.0000 C   0  0  0  0  0  0  0  0  0  0  0  0
    2.0000   -3.2500    0.0000 C   0  0  0  0  0  0  0  0  0  0  0  0
    6.8671    1.5600    0.0000 H   0  0  0  0  0  0  0  0  0  0  0  0
    7.8067    0.6423    0.0000 H   0  0  0  0  0  0  0  0  0  0  0  0
    7.4082    1.3326    0.0000 H   0  0  0  0  0  0  0  0  0  0  0  0
    5.2520    1.3326    0.0000 H   0  0  0  0  0  0  0  0  0  0  0  0
    4.8535    0.6423    0.0000 H   0  0  0  0  0  0  0  0  0  0  0  0
    7.4082   -0.8326    0.0000 H   0  0  0  0  0  0  0  0  0  0  0  0
    7.8067   -0.1423    0.0000 H   0  0  0  0  0  0  0  0  0  0  0  0
    4.8535   -0.1423    0.0000 H   0  0  0  0  0  0  0  0  0  0  0  0
    5.2520   -0.8326    0.0000 H   0  0  0  0  0  0  0  0  0  0  0  0
    6.5422   -2.3326    0.0000 H   0  0  0  0  0  0  0  0  0  0  0  0
    6.9407   -1.6423    0.0000 H   0  0  0  0  0  0  0  0  0  0  0  0
    4.9272    2.4400    0.0000 H   0  0  0  0  0  0  0  0  0  0  0  0
    7.7331    2.4400    0.0000 H   0  0  0  0  0  0  0  0  0  0  0  0
    4.9272    4.0600    0.0000 H   0  0  0  0  0  0  0  0  0  0  0  0
    7.7331    4.0600    0.0000 H   0  0  0  0  0  0  0  0  0  0  0  0
    6.0010   -3.5600    0.0000 H   0  0  0  0  0  0  0  0  0  0  0  0
    3.7320   -2.6300    0.0000 H   0  0  0  0  0  0  0  0  0  0  0  0
    5.1350   -5.0600    0.0000 H   0  0  0  0  0  0  0  0  0  0  0  0
    3.7320   -5.8700    0.0000 H   0  0  0  0  0  0  0  0  0  0  0  0
    2.3291   -5.0600    0.0000 H   0  0  0  0  0  0  0  0  0  0  0  0
    2.3100   -2.7131    0.0000 H   0  0  0  0  0  0  0  0  0  0  0  0
    1.4631   -2.9400    0.0000 H   0  0  0  0  0  0  0  0  0  0  0  0
    1.6900   -3.7869    0.0000 H   0  0  0  0  0  0  0  0  0  0  0  0
  1 17  1  0  0  0  0
  2 14  2  0  0  0  0
  3  8  1  0  0  0  0
  3  9  1  0  0  0  0
  3 11  1  0  0  0  0
  4 14  1  0  0  0  0
  4 18  1  0  0  0  0
  4 40  1  0  0  0  0
  5  6  1  0  0  0  0
  5  7  1  0  0  0  0
  5 10  1  0  0  0  0
  5 25  1  0  0  0  0
  6  8  1  0  0  0  0
  6 26  1  0  0  0  0
  6 27  1  0  0  0  0
  7  9  1  0  0  0  0
  7 28  1  0  0  0  0
  7 29  1  0  0  0  0
  8 30  1  0  0  0  0
  8 31  1  0  0  0  0
  9 32  1  0  0  0  0
  9 33  1  0  0  0  0
 10 12  2  0  0  0  0
 10 13  1  0  0  0  0
 11 14  1  0  0  0  0
 11 34  1  0  0  0  0
 11 35  1  0  0  0  0
 12 15  1  0  0  0  0
 12 36  1  0  0  0  0
 13 16  2  0  0  0  0
 13 37  1  0  0  0  0
 15 17  2  0  0  0  0
 15 38  1  0  0  0  0
 16 17  1  0  0  0  0
 16 39  1  0  0  0  0
 18 19  1  0  0  0  0
 18 20  2  0  0  0  0
 19 21  2  0  0  0  0
 19 41  1  0  0  0  0
 20 22  1  0  0  0  0
 20 42  1  0  0  0  0
 21 23  1  0  0  0  0
 21 24  1  0  0  0  0
 22 23  2  0  0  0  0
 22 43  1  0  0  0  0
 23 44  1  0  0  0  0
 24 45  1  0  0  0  0
 24 46  1  0  0  0  0
 24 47  1  0  0  0  0
M  END
> <PUBCHEM_COMPOUND_CID>
155511803

> <PUBCHEM_COMPOUND_CANONICALIZED>
1

> <PUBCHEM_CACTVS_COMPLEXITY>
400

> <PUBCHEM_CACTVS_HBOND_ACCEPTOR>
2

> <PUBCHEM_CACTVS_HBOND_DONOR>
1

> <PUBCHEM_CACTVS_ROTATABLE_BOND>
4

> <PUBCHEM_CACTVS_SUBSKEYS>
AAADceB7IAAEAAAAAAAAAAAAAAAAAAAAAAA8YIAAAAAAAAABQAAAHgIQAAAADQrBmCQywIPAAACIAiVSUACCAAAhBwAIiACIZogIYCLBk7GUIAhglADIyAcQgMAOhAAAQAAAAAAIAACAAAAAAAAAAAAAAA==

> <PUBCHEM_IUPAC_OPENEYE_NAME>
2-[4-(4-chlorophenyl)-1-piperidyl]-N-(m-tolyl)acetamide

> <PUBCHEM_IUPAC_CAS_NAME>
2-[4-(4-chlorophenyl)-1-piperidinyl]-N-(3-methylphenyl)acetamide

> <PUBCHEM_IUPAC_NAME_MARKUP>
2-[4-(4-chlorophenyl)piperidin-1-yl]-<I>N</I>-(3-methylphenyl)acetamide

> <PUBCHEM_IUPAC_NAME>
2-[4-(4-chlorophenyl)piperidin-1-yl]-N-(3-methylphenyl)acetamide

> <PUBCHEM_IUPAC_SYSTEMATIC_NAME>
2-[4-(4-chlorophenyl)piperidin-1-yl]-N-(3-methylphenyl)ethanamide

> <PUBCHEM_IUPAC_TRADITIONAL_NAME>
2-[4-(4-chlorophenyl)piperidino]-N-(m-tolyl)acetamide

> <PUBCHEM_IUPAC_INCHI>
InChI=1S/C20H23ClN2O/c1-15-3-2-4-19(13-15)22-20(24)14-23-11-9-17(10-12-23)16-5-7-18(21)8-6-16/h2-8,13,17H,9-12,14H2,1H3,(H,22,24)

> <PUBCHEM_IUPAC_INCHIKEY>
MGAAMGRSXKBQAO-UHFFFAOYSA-N

> <PUBCHEM_XLOGP3>
5

> <PUBCHEM_EXACT_MASS>
342.1498911

> <PUBCHEM_MOLECULAR_FORMULA>
C20H23ClN2O

> <PUBCHEM_MOLECULAR_WEIGHT>
342.9

> <PUBCHEM_OPENEYE_CAN_SMILES>
CC1=CC(=CC=C1)NC(=O)CN2CCC(CC2)C3=CC=C(C=C3)Cl

> <PUBCHEM_OPENEYE_ISO_SMILES>
CC1=CC(=CC=C1)NC(=O)CN2CCC(CC2)C3=CC=C(C=C3)Cl

> <PUBCHEM_CACTVS_TPSA>
32.3

> <PUBCHEM_MONOISOTOPIC_WEIGHT>
342.1498911

> <PUBCHEM_TOTAL_CHARGE>
0

> <PUBCHEM_HEAVY_ATOM_COUNT>
24

> <PUBCHEM_ATOM_DEF_STEREO_COUNT>
0

> <PUBCHEM_ATOM_UDEF_STEREO_COUNT>
0

> <PUBCHEM_BOND_DEF_STEREO_COUNT>
0

> <PUBCHEM_BOND_UDEF_STEREO_COUNT>
0

> <PUBCHEM_ISOTOPIC_ATOM_COUNT>
0

> <PUBCHEM_COMPONENT_COUNT>
1

> <PUBCHEM_CACTVS_TAUTO_COUNT>
-1

> <PUBCHEM_COORDINATE_TYPE>
1
5
255

> <PUBCHEM_BONDANNOTATIONS>
10  12  8
10  13  8
12  15  8
13  16  8
15  17  8
16  17  8
18  19  8
18  20  8
19  21  8
20  22  8
21  23  8
22  23  8

$$$$
