164623595
  -OEChem-09292322432D

 69 73  0     0  0  0  0  0  0999 V2000
    2.0000   -6.0674    0.0000 F   0  0  0  0  0  0  0  0  0  0  0  0
    5.5443   -5.8721    0.0000 O   0  0  0  0  0  0  0  0  0  0  0  0
    9.0546    0.9024    0.0000 O   0  0  0  0  0  0  0  0  0  0  0  0
   13.2328    5.3231    0.0000 O   0  0  0  0  0  0  0  0  0  0  0  0
    7.7189    2.3910    0.0000 O   0  0  0  0  0  0  0  0  0  0  0  0
    6.4763   -1.4111    0.0000 N   0  0  0  0  0  0  0  0  0  0  0  0
    6.1279   -5.0674    0.0000 N   0  0  0  0  0  0  0  0  0  0  0  0
   11.2758    4.9107    0.0000 N   0  0  0  0  0  0  0  0  0  0  0  0
    5.8550   -3.3122    0.0000 C   0  0  0  0  0  0  0  0  0  0  0  0
    5.1871   -2.5678    0.0000 C   0  0  0  0  0  0  0  0  0  0  0  0
    6.8335   -3.1059    0.0000 C   0  0  0  0  0  0  0  0  0  0  0  0
    5.4978   -1.6173    0.0000 C   0  0  0  0  0  0  0  0  0  0  0  0
    7.1441   -2.1554    0.0000 C   0  0  0  0  0  0  0  0  0  0  0  0
    6.7870   -0.4606    0.0000 C   0  0  0  0  0  0  0  0  0  0  0  0
    5.5443   -4.2627    0.0000 C   0  0  0  0  0  0  0  0  0  0  0  0
    7.7654   -0.2544    0.0000 C   0  0  0  0  0  0  0  0  0  0  0  0
    4.5981   -4.5674    0.0000 C   0  0  0  0  0  0  0  0  0  0  0  0
    8.0761    0.6961    0.0000 C   0  0  0  0  0  0  0  0  0  0  0  0
    4.5981   -5.5674    0.0000 C   0  0  0  0  0  0  0  0  0  0  0  0
    3.7320   -4.0674    0.0000 C   0  0  0  0  0  0  0  0  0  0  0  0
    3.7320   -6.0674    0.0000 C   0  0  0  0  0  0  0  0  0  0  0  0
   11.5864    5.8612    0.0000 C   0  0  0  0  0  0  0  0  0  0  0  0
   11.9436    4.1664    0.0000 C   0  0  0  0  0  0  0  0  0  0  0  0
   10.2973    4.7044    0.0000 C   0  0  0  0  0  0  0  0  0  0  0  0
    2.8660   -4.5674    0.0000 C   0  0  0  0  0  0  0  0  0  0  0  0
   12.5649    6.0674    0.0000 C   0  0  0  0  0  0  0  0  0  0  0  0
   12.9221    4.3726    0.0000 C   0  0  0  0  0  0  0  0  0  0  0  0
    2.8660   -5.5674    0.0000 C   0  0  0  0  0  0  0  0  0  0  0  0
    9.9866    3.7539    0.0000 C   0  0  0  0  0  0  0  0  0  0  0  0
    9.3653    1.8529    0.0000 C   0  0  0  0  0  0  0  0  0  0  0  0
    8.6974    2.5972    0.0000 C   0  0  0  0  0  0  0  0  0  0  0  0
    9.0081    3.5477    0.0000 C   0  0  0  0  0  0  0  0  0  0  0  0
   10.6545    3.0096    0.0000 C   0  0  0  0  0  0  0  0  0  0  0  0
   10.3438    2.0591    0.0000 C   0  0  0  0  0  0  0  0  0  0  0  0
    7.0511    3.1353    0.0000 C   0  0  0  0  0  0  0  0  0  0  0  0
    6.2690   -3.7736    0.0000 H   0  0  0  0  0  0  0  0  0  0  0  0
    4.6402   -2.2758    0.0000 H   0  0  0  0  0  0  0  0  0  0  0  0
    4.8046   -3.0558    0.0000 H   0  0  0  0  0  0  0  0  0  0  0  0
    6.8540   -3.7256    0.0000 H   0  0  0  0  0  0  0  0  0  0  0  0
    7.4473   -3.1933    0.0000 H   0  0  0  0  0  0  0  0  0  0  0  0
    5.4772   -0.9977    0.0000 H   0  0  0  0  0  0  0  0  0  0  0  0
    4.8840   -1.5300    0.0000 H   0  0  0  0  0  0  0  0  0  0  0  0
    7.6910   -2.4474    0.0000 H   0  0  0  0  0  0  0  0  0  0  0  0
    7.5267   -1.6675    0.0000 H   0  0  0  0  0  0  0  0  0  0  0  0
    6.7664    0.1591    0.0000 H   0  0  0  0  0  0  0  0  0  0  0  0
    6.1731   -0.3732    0.0000 H   0  0  0  0  0  0  0  0  0  0  0  0
    7.7860   -0.8740    0.0000 H   0  0  0  0  0  0  0  0  0  0  0  0
    8.3793   -0.3417    0.0000 H   0  0  0  0  0  0  0  0  0  0  0  0
    8.0556    1.3158    0.0000 H   0  0  0  0  0  0  0  0  0  0  0  0
    7.4623    0.7835    0.0000 H   0  0  0  0  0  0  0  0  0  0  0  0
    3.7320   -3.4474    0.0000 H   0  0  0  0  0  0  0  0  0  0  0  0
    3.7320   -6.6874    0.0000 H   0  0  0  0  0  0  0  0  0  0  0  0
   11.5659    6.4808    0.0000 H   0  0  0  0  0  0  0  0  0  0  0  0
   10.9726    5.9485    0.0000 H   0  0  0  0  0  0  0  0  0  0  0  0
   11.4173    3.8387    0.0000 H   0  0  0  0  0  0  0  0  0  0  0  0
   12.1749    3.5911    0.0000 H   0  0  0  0  0  0  0  0  0  0  0  0
   10.2767    5.3241    0.0000 H   0  0  0  0  0  0  0  0  0  0  0  0
    9.6834    4.7918    0.0000 H   0  0  0  0  0  0  0  0  0  0  0  0
    2.3291   -4.2574    0.0000 H   0  0  0  0  0  0  0  0  0  0  0  0
   13.0913    6.3950    0.0000 H   0  0  0  0  0  0  0  0  0  0  0  0
   12.3337    6.6427    0.0000 H   0  0  0  0  0  0  0  0  0  0  0  0
   12.9427    3.7529    0.0000 H   0  0  0  0  0  0  0  0  0  0  0  0
   13.5359    4.2852    0.0000 H   0  0  0  0  0  0  0  0  0  0  0  0
    8.5940    4.0092    0.0000 H   0  0  0  0  0  0  0  0  0  0  0  0
   11.2611    3.1375    0.0000 H   0  0  0  0  0  0  0  0  0  0  0  0
   10.7578    1.5976    0.0000 H   0  0  0  0  0  0  0  0  0  0  0  0
    7.5126    3.5493    0.0000 H   0  0  0  0  0  0  0  0  0  0  0  0
    6.6370    3.5967    0.0000 H   0  0  0  0  0  0  0  0  0  0  0  0
    6.5896    2.7212    0.0000 H   0  0  0  0  0  0  0  0  0  0  0  0
  1 28  1  0  0  0  0
  2  7  1  0  0  0  0
  2 19  1  0  0  0  0
  3 18  1  0  0  0  0
  3 30  1  0  0  0  0
  4 26  1  0  0  0  0
  4 27  1  0  0  0  0
  5 31  1  0  0  0  0
  5 35  1  0  0  0  0
  6 12  1  0  0  0  0
  6 13  1  0  0  0  0
  6 14  1  0  0  0  0
  7 15  2  0  0  0  0
  8 22  1  0  0  0  0
  8 23  1  0  0  0  0
  8 24  1  0  0  0  0
  9 10  1  0  0  0  0
  9 11  1  0  0  0  0
  9 15  1  0  0  0  0
  9 36  1  0  0  0  0
 10 12  1  0  0  0  0
 10 37  1  0  0  0  0
 10 38  1  0  0  0  0
 11 13  1  0  0  0  0
 11 39  1  0  0  0  0
 11 40  1  0  0  0  0
 12 41  1  0  0  0  0
 12 42  1  0  0  0  0
 13 43  1  0  0  0  0
 13 44  1  0  0  0  0
 14 16  1  0  0  0  0
 14 45  1  0  0  0  0
 14 46  1  0  0  0  0
 15 17  1  0  0  0  0
 16 18  1  0  0  0  0
 16 47  1  0  0  0  0
 16 48  1  0  0  0  0
 17 19  2  0  0  0  0
 17 20  1  0  0  0  0
 18 49  1  0  0  0  0
 18 50  1  0  0  0  0
 19 21  1  0  0  0  0
 20 25  2  0  0  0  0
 20 51  1  0  0  0  0
 21 28  2  0  0  0  0
 21 52  1  0  0  0  0
 22 26  1  0  0  0  0
 22 53  1  0  0  0  0
 22 54  1  0  0  0  0
 23 27  1  0  0  0  0
 23 55  1  0  0  0  0
 23 56  1  0  0  0  0
 24 29  1  0  0  0  0
 24 57  1  0  0  0  0
 24 58  1  0  0  0  0
 25 28  1  0  0  0  0
 25 59  1  0  0  0  0
 26 60  1  0  0  0  0
 26 61  1  0  0  0  0
 27 62  1  0  0  0  0
 27 63  1  0  0  0  0
 29 32  2  0  0  0  0
 29 33  1  0  0  0  0
 30 31  2  0  0  0  0
 30 34  1  0  0  0  0
 31 32  1  0  0  0  0
 32 64  1  0  0  0  0
 33 34  2  0  0  0  0
 33 65  1  0  0  0  0
 34 66  1  0  0  0  0
 35 67  1  0  0  0  0
 35 68  1  0  0  0  0
 35 69  1  0  0  0  0
M  END
> <PUBCHEM_COMPOUND_CID>
164623595

> <PUBCHEM_COMPOUND_CANONICALIZED>
1

> <PUBCHEM_CACTVS_COMPLEXITY>
632

> <PUBCHEM_CACTVS_HBOND_ACCEPTOR>
8

> <PUBCHEM_CACTVS_HBOND_DONOR>
0

> <PUBCHEM_CACTVS_ROTATABLE_BOND>
9

> <PUBCHEM_CACTVS_SUBSKEYS>
AAADcfB7OQAAAAAAAAAAAAAAAAAAAWAAAAA8eIEAAAAAAFgB9AAAHwAEAAAADQzhng4yhtMQBACpA6RyQgCCCAAkIAAomCE+zNoPJrqEtZuHOarmwBma6ce42PKOIAABAAAIQABAAAIAABCAAAAAAAAAAA==

> <PUBCHEM_IUPAC_OPENEYE_NAME>
6-fluoro-3-[1-[3-[2-methoxy-4-(morpholinomethyl)phenoxy]propyl]-4-piperidyl]-1,2-benzoxazole

> <PUBCHEM_IUPAC_CAS_NAME>
6-fluoro-3-[1-[3-[2-methoxy-4-(4-morpholinylmethyl)phenoxy]propyl]-4-piperidinyl]-1,2-benzoxazole

> <PUBCHEM_IUPAC_NAME_MARKUP>
6-fluoro-3-[1-[3-[2-methoxy-4-(morpholin-4-ylmethyl)phenoxy]propyl]piperidin-4-yl]-1,2-benzoxazole

> <PUBCHEM_IUPAC_NAME>
6-fluoro-3-[1-[3-[2-methoxy-4-(morpholin-4-ylmethyl)phenoxy]propyl]piperidin-4-yl]-1,2-benzoxazole

> <PUBCHEM_IUPAC_SYSTEMATIC_NAME>
6-fluoranyl-3-[1-[3-[2-methoxy-4-(morpholin-4-ylmethyl)phenoxy]propyl]piperidin-4-yl]-1,2-benzoxazole

> <PUBCHEM_IUPAC_TRADITIONAL_NAME>
6-fluoro-3-[1-[3-[2-methoxy-4-(morpholinomethyl)phenoxy]propyl]-4-piperidyl]indoxazene

> <PUBCHEM_IUPAC_INCHI>
InChI=1S/C27H34FN3O4/c1-32-26-17-20(19-31-12-15-33-16-13-31)3-6-24(26)34-14-2-9-30-10-7-21(8-11-30)27-23-5-4-22(28)18-25(23)35-29-27/h3-6,17-18,21H,2,7-16,19H2,1H3

> <PUBCHEM_IUPAC_INCHIKEY>
BFLDMZUQHIXFAK-UHFFFAOYSA-N

> <PUBCHEM_XLOGP3_AA>
3.9

> <PUBCHEM_EXACT_MASS>
483.25333474

> <PUBCHEM_MOLECULAR_FORMULA>
C27H34FN3O4

> <PUBCHEM_MOLECULAR_WEIGHT>
483.6

> <PUBCHEM_OPENEYE_CAN_SMILES>
COC1=C(C=CC(=C1)CN2CCOCC2)OCCCN3CCC(CC3)C4=NOC5=C4C=CC(=C5)F

> <PUBCHEM_OPENEYE_ISO_SMILES>
COC1=C(C=CC(=C1)CN2CCOCC2)OCCCN3CCC(CC3)C4=NOC5=C4C=CC(=C5)F

> <PUBCHEM_CACTVS_TPSA>
60.2

> <PUBCHEM_MONOISOTOPIC_WEIGHT>
483.25333474

> <PUBCHEM_TOTAL_CHARGE>
0

> <PUBCHEM_HEAVY_ATOM_COUNT>
35

> <PUBCHEM_ATOM_DEF_STEREO_COUNT>
0

> <PUBCHEM_ATOM_UDEF_STEREO_COUNT>
0

> <PUBCHEM_BOND_DEF_STEREO_COUNT>
0

> <PUBCHEM_BOND_UDEF_STEREO_COUNT>
0

> <PUBCHEM_ISOTOPIC_ATOM_COUNT>
0

> <PUBCHEM_COMPONENT_COUNT>
1

> <PUBCHEM_CACTVS_TAUTO_COUNT>
-1

> <PUBCHEM_COORDINATE_TYPE>
1
5
255

> <PUBCHEM_BONDANNOTATIONS>
15  17  8
17  19  8
17  20  8
19  21  8
2  19  8
2  7  8
20  25  8
21  28  8
25  28  8
29  32  8
29  33  8
30  31  8
30  34  8
31  32  8
33  34  8
7  15  8

$$$$
