42388639
  -OEChem-09292322302D

 60 63  0     0  0  0  0  0  0999 V2000
   10.6603    0.7327    0.0000 S   0  0  0  0  0  0  0  0  0  0  0  0
    2.8660    0.2327    0.0000 O   0  0  0  0  0  0  0  0  0  0  0  0
   10.1603    1.5987    0.0000 O   0  0  0  0  0  0  0  0  0  0  0  0
   11.1603   -0.1334    0.0000 O   0  0  0  0  0  0  0  0  0  0  0  0
    6.3301    0.2327    0.0000 N   0  0  0  0  0  0  0  0  0  0  0  0
    4.5981   -0.7673    0.0000 N   0  0  0  0  0  0  0  0  0  0  0  0
    9.7942    0.2327    0.0000 N   0  0  0  0  0  0  0  0  0  0  0  0
    5.4641    0.7327    0.0000 C   0  0  0  0  0  0  0  0  0  0  0  0
    6.3301   -0.7673    0.0000 C   0  0  0  0  0  0  0  0  0  0  0  0
    4.5981    0.2327    0.0000 C   0  0  0  0  0  0  0  0  0  0  0  0
    5.4641   -1.2673    0.0000 C   0  0  0  0  0  0  0  0  0  0  0  0
    7.1962    0.7327    0.0000 C   0  0  0  0  0  0  0  0  0  0  0  0
    8.0622    0.2327    0.0000 C   0  0  0  0  0  0  0  0  0  0  0  0
    3.7320   -1.2673    0.0000 C   0  0  0  0  0  0  0  0  0  0  0  0
    8.9282    0.7327    0.0000 C   0  0  0  0  0  0  0  0  0  0  0  0
    2.8660   -0.7673    0.0000 C   0  0  0  0  0  0  0  0  0  0  0  0
    3.7320   -2.2673    0.0000 C   0  0  0  0  0  0  0  0  0  0  0  0
    2.0000   -1.2673    0.0000 C   0  0  0  0  0  0  0  0  0  0  0  0
    2.8660   -2.7673    0.0000 C   0  0  0  0  0  0  0  0  0  0  0  0
   11.5263    1.2327    0.0000 C   0  0  0  0  0  0  0  0  0  0  0  0
    2.0000   -2.2673    0.0000 C   0  0  0  0  0  0  0  0  0  0  0  0
   12.3923    0.7327    0.0000 C   0  0  0  0  0  0  0  0  0  0  0  0
   11.5263    2.2327    0.0000 C   0  0  0  0  0  0  0  0  0  0  0  0
   13.2583    1.2327    0.0000 C   0  0  0  0  0  0  0  0  0  0  0  0
   13.2583    2.2327    0.0000 C   0  0  0  0  0  0  0  0  0  0  0  0
   12.3923    2.7327    0.0000 C   0  0  0  0  0  0  0  0  0  0  0  0
    2.0000    0.7327    0.0000 C   0  0  0  0  0  0  0  0  0  0  0  0
   14.1523    0.6980    0.0000 C   0  0  0  0  0  0  0  0  0  0  0  0
   14.1523    2.7673    0.0000 C   0  0  0  0  0  0  0  0  0  0  0  0
   15.0583    1.2119    0.0000 C   0  0  0  0  0  0  0  0  0  0  0  0
   15.0583    2.2535    0.0000 C   0  0  0  0  0  0  0  0  0  0  0  0
    5.8626    1.2076    0.0000 H   0  0  0  0  0  0  0  0  0  0  0  0
    5.0656    1.2076    0.0000 H   0  0  0  0  0  0  0  0  0  0  0  0
    6.5422   -1.3499    0.0000 H   0  0  0  0  0  0  0  0  0  0  0  0
    6.9407   -0.6597    0.0000 H   0  0  0  0  0  0  0  0  0  0  0  0
    4.3860    0.8153    0.0000 H   0  0  0  0  0  0  0  0  0  0  0  0
    3.9875    0.1250    0.0000 H   0  0  0  0  0  0  0  0  0  0  0  0
    5.0656   -1.7423    0.0000 H   0  0  0  0  0  0  0  0  0  0  0  0
    5.8626   -1.7423    0.0000 H   0  0  0  0  0  0  0  0  0  0  0  0
    7.5947    1.2076    0.0000 H   0  0  0  0  0  0  0  0  0  0  0  0
    6.7976    1.2076    0.0000 H   0  0  0  0  0  0  0  0  0  0  0  0
    7.6636   -0.2423    0.0000 H   0  0  0  0  0  0  0  0  0  0  0  0
    8.4607   -0.2423    0.0000 H   0  0  0  0  0  0  0  0  0  0  0  0
    9.3267    1.2076    0.0000 H   0  0  0  0  0  0  0  0  0  0  0  0
    8.5297    1.2076    0.0000 H   0  0  0  0  0  0  0  0  0  0  0  0
    9.7942   -0.3873    0.0000 H   0  0  0  0  0  0  0  0  0  0  0  0
    4.2690   -2.5773    0.0000 H   0  0  0  0  0  0  0  0  0  0  0  0
    1.4631   -0.9573    0.0000 H   0  0  0  0  0  0  0  0  0  0  0  0
    2.8660   -3.3873    0.0000 H   0  0  0  0  0  0  0  0  0  0  0  0
    1.4631   -2.5773    0.0000 H   0  0  0  0  0  0  0  0  0  0  0  0
   12.3923    0.1127    0.0000 H   0  0  0  0  0  0  0  0  0  0  0  0
   10.9893    2.5427    0.0000 H   0  0  0  0  0  0  0  0  0  0  0  0
   12.3923    3.3527    0.0000 H   0  0  0  0  0  0  0  0  0  0  0  0
    2.3100    1.2696    0.0000 H   0  0  0  0  0  0  0  0  0  0  0  0
    1.4631    1.0427    0.0000 H   0  0  0  0  0  0  0  0  0  0  0  0
    1.6900    0.1957    0.0000 H   0  0  0  0  0  0  0  0  0  0  0  0
   14.1451    0.0780    0.0000 H   0  0  0  0  0  0  0  0  0  0  0  0
   14.1451    3.3873    0.0000 H   0  0  0  0  0  0  0  0  0  0  0  0
   15.5941    0.8998    0.0000 H   0  0  0  0  0  0  0  0  0  0  0  0
   15.5941    2.5656    0.0000 H   0  0  0  0  0  0  0  0  0  0  0  0
  1  3  2  0  0  0  0
  1  4  2  0  0  0  0
  1  7  1  0  0  0  0
  1 20  1  0  0  0  0
  2 16  1  0  0  0  0
  2 27  1  0  0  0  0
  5  8  1  0  0  0  0
  5  9  1  0  0  0  0
  5 12  1  0  0  0  0
  6 10  1  0  0  0  0
  6 11  1  0  0  0  0
  6 14  1  0  0  0  0
  7 15  1  0  0  0  0
  7 46  1  0  0  0  0
  8 10  1  0  0  0  0
  8 32  1  0  0  0  0
  8 33  1  0  0  0  0
  9 11  1  0  0  0  0
  9 34  1  0  0  0  0
  9 35  1  0  0  0  0
 10 36  1  0  0  0  0
 10 37  1  0  0  0  0
 11 38  1  0  0  0  0
 11 39  1  0  0  0  0
 12 13  1  0  0  0  0
 12 40  1  0  0  0  0
 12 41  1  0  0  0  0
 13 15  1  0  0  0  0
 13 42  1  0  0  0  0
 13 43  1  0  0  0  0
 14 16  1  0  0  0  0
 14 17  2  0  0  0  0
 15 44  1  0  0  0  0
 15 45  1  0  0  0  0
 16 18  2  0  0  0  0
 17 19  1  0  0  0  0
 17 47  1  0  0  0  0
 18 21  1  0  0  0  0
 18 48  1  0  0  0  0
 19 21  2  0  0  0  0
 19 49  1  0  0  0  0
 20 22  2  0  0  0  0
 20 23  1  0  0  0  0
 21 50  1  0  0  0  0
 22 24  1  0  0  0  0
 22 51  1  0  0  0  0
 23 26  2  0  0  0  0
 23 52  1  0  0  0  0
 24 25  1  0  0  0  0
 24 28  2  0  0  0  0
 25 26  1  0  0  0  0
 25 29  2  0  0  0  0
 26 53  1  0  0  0  0
 27 54  1  0  0  0  0
 27 55  1  0  0  0  0
 27 56  1  0  0  0  0
 28 30  1  0  0  0  0
 28 57  1  0  0  0  0
 29 31  1  0  0  0  0
 29 58  1  0  0  0  0
 30 31  2  0  0  0  0
 30 59  1  0  0  0  0
 31 60  1  0  0  0  0
M  END
> <PUBCHEM_COMPOUND_CID>
42388639

> <PUBCHEM_COMPOUND_CANONICALIZED>
1

> <PUBCHEM_CACTVS_COMPLEXITY>
645

> <PUBCHEM_CACTVS_HBOND_ACCEPTOR>
6

> <PUBCHEM_CACTVS_HBOND_DONOR>
1

> <PUBCHEM_CACTVS_ROTATABLE_BOND>
8

> <PUBCHEM_CACTVS_SUBSKEYS>
AAADceB7MABAAAAAAAAAAAAAAAAAAAAAAAA8YMEAAAAAAADBVAAAHgQQQAAADAzB2AYyx8NABAKAAiRCQHDCCBAhIgAIiJgPbIgOZiLE8ZuVMChk0BHY6AeQwIAOkAAAgAAQEAAgAAEAACAgAAAAAAAAAA==

> <PUBCHEM_IUPAC_OPENEYE_NAME>
N-[3-[4-(2-methoxyphenyl)piperazin-1-yl]propyl]naphthalene-2-sulfonamide

> <PUBCHEM_IUPAC_CAS_NAME>
N-[3-[4-(2-methoxyphenyl)-1-piperazinyl]propyl]-2-naphthalenesulfonamide

> <PUBCHEM_IUPAC_NAME_MARKUP>
<I>N</I>-[3-[4-(2-methoxyphenyl)piperazin-1-yl]propyl]naphthalene-2-sulfonamide

> <PUBCHEM_IUPAC_NAME>
N-[3-[4-(2-methoxyphenyl)piperazin-1-yl]propyl]naphthalene-2-sulfonamide

> <PUBCHEM_IUPAC_SYSTEMATIC_NAME>
N-[3-[4-(2-methoxyphenyl)piperazin-1-yl]propyl]naphthalene-2-sulfonamide

> <PUBCHEM_IUPAC_TRADITIONAL_NAME>
N-[3-[4-(2-methoxyphenyl)piperazino]propyl]naphthalene-2-sulfonamide

> <PUBCHEM_IUPAC_INCHI>
InChI=1S/C24H29N3O3S/c1-30-24-10-5-4-9-23(24)27-17-15-26(16-18-27)14-6-13-25-31(28,29)22-12-11-20-7-2-3-8-21(20)19-22/h2-5,7-12,19,25H,6,13-18H2,1H3

> <PUBCHEM_IUPAC_INCHIKEY>
YRVKJIDCHIEELY-UHFFFAOYSA-N

> <PUBCHEM_XLOGP3_AA>
4.1

> <PUBCHEM_EXACT_MASS>
439.19296297

> <PUBCHEM_MOLECULAR_FORMULA>
C24H29N3O3S

> <PUBCHEM_MOLECULAR_WEIGHT>
439.6

> <PUBCHEM_OPENEYE_CAN_SMILES>
COC1=CC=CC=C1N2CCN(CC2)CCCNS(=O)(=O)C3=CC4=CC=CC=C4C=C3

> <PUBCHEM_OPENEYE_ISO_SMILES>
COC1=CC=CC=C1N2CCN(CC2)CCCNS(=O)(=O)C3=CC4=CC=CC=C4C=C3

> <PUBCHEM_CACTVS_TPSA>
70.3

> <PUBCHEM_MONOISOTOPIC_WEIGHT>
439.19296297

> <PUBCHEM_TOTAL_CHARGE>
0

> <PUBCHEM_HEAVY_ATOM_COUNT>
31

> <PUBCHEM_ATOM_DEF_STEREO_COUNT>
0

> <PUBCHEM_ATOM_UDEF_STEREO_COUNT>
0

> <PUBCHEM_BOND_DEF_STEREO_COUNT>
0

> <PUBCHEM_BOND_UDEF_STEREO_COUNT>
0

> <PUBCHEM_ISOTOPIC_ATOM_COUNT>
0

> <PUBCHEM_COMPONENT_COUNT>
1

> <PUBCHEM_CACTVS_TAUTO_COUNT>
-1

> <PUBCHEM_COORDINATE_TYPE>
1
5
255

> <PUBCHEM_BONDANNOTATIONS>
14  16  8
14  17  8
16  18  8
17  19  8
18  21  8
19  21  8
20  22  8
20  23  8
22  24  8
23  26  8
24  25  8
24  28  8
25  26  8
25  29  8
28  30  8
29  31  8
30  31  8

$$$$
