2399526
  -OEChem-09292322082D

 28 30  0     0  0  0  0  0  0999 V2000
    6.5443   -3.3047    0.0000 S   0  0  0  0  0  0  0  0  0  0  0  0
    3.0000    3.5000    0.0000 F   0  0  0  0  0  0  0  0  0  0  0  0
    2.0000    2.5000    0.0000 F   0  0  0  0  0  0  0  0  0  0  0  0
    4.0000    2.5000    0.0000 F   0  0  0  0  0  0  0  0  0  0  0  0
    4.7320   -0.5000    0.0000 N   0  0  0  0  0  0  0  0  0  0  0  0
    3.8660   -2.0000    0.0000 N   0  0  0  0  0  0  0  0  0  0  0  0
    4.7320   -3.5000    0.0000 N   0  0  0  0  0  0  0  0  0  0  0  0
    3.8660    0.0000    0.0000 C   0  0  0  0  0  0  0  0  0  0  0  0
    5.5981   -2.0000    0.0000 C   0  0  0  0  0  0  0  0  0  0  0  0
    4.7320   -1.5000    0.0000 C   0  0  0  0  0  0  0  0  0  0  0  0
    3.0000    1.5000    0.0000 C   0  0  0  0  0  0  0  0  0  0  0  0
    3.8660    1.0000    0.0000 C   0  0  0  0  0  0  0  0  0  0  0  0
    5.5981   -3.0000    0.0000 C   0  0  0  0  0  0  0  0  0  0  0  0
    3.0000   -0.5000    0.0000 C   0  0  0  0  0  0  0  0  0  0  0  0
    6.5443   -1.6953    0.0000 C   0  0  0  0  0  0  0  0  0  0  0  0
    2.1340    1.0000    0.0000 C   0  0  0  0  0  0  0  0  0  0  0  0
    2.1340   -0.0000    0.0000 C   0  0  0  0  0  0  0  0  0  0  0  0
    3.0000    2.5000    0.0000 C   0  0  0  0  0  0  0  0  0  0  0  0
    7.1279   -2.5000    0.0000 C   0  0  0  0  0  0  0  0  0  0  0  0
    3.8660   -3.0000    0.0000 C   0  0  0  0  0  0  0  0  0  0  0  0
    5.2690   -0.1900    0.0000 H   0  0  0  0  0  0  0  0  0  0  0  0
    4.4030    1.3100    0.0000 H   0  0  0  0  0  0  0  0  0  0  0  0
    3.0000   -1.1200    0.0000 H   0  0  0  0  0  0  0  0  0  0  0  0
    6.7369   -1.1060    0.0000 H   0  0  0  0  0  0  0  0  0  0  0  0
    1.5970    1.3100    0.0000 H   0  0  0  0  0  0  0  0  0  0  0  0
    1.5970   -0.3100    0.0000 H   0  0  0  0  0  0  0  0  0  0  0  0
    7.7479   -2.5000    0.0000 H   0  0  0  0  0  0  0  0  0  0  0  0
    3.3291   -3.3100    0.0000 H   0  0  0  0  0  0  0  0  0  0  0  0
  1 13  1  0  0  0  0
  1 19  1  0  0  0  0
  2 18  1  0  0  0  0
  3 18  1  0  0  0  0
  4 18  1  0  0  0  0
  5  8  1  0  0  0  0
  5 10  1  0  0  0  0
  5 21  1  0  0  0  0
  6 10  1  0  0  0  0
  6 20  2  0  0  0  0
  7 13  2  0  0  0  0
  7 20  1  0  0  0  0
  8 12  1  0  0  0  0
  8 14  2  0  0  0  0
  9 10  2  0  0  0  0
  9 13  1  0  0  0  0
  9 15  1  0  0  0  0
 11 12  2  0  0  0  0
 11 16  1  0  0  0  0
 11 18  1  0  0  0  0
 12 22  1  0  0  0  0
 14 17  1  0  0  0  0
 14 23  1  0  0  0  0
 15 19  2  0  0  0  0
 15 24  1  0  0  0  0
 16 17  2  0  0  0  0
 16 25  1  0  0  0  0
 17 26  1  0  0  0  0
 19 27  1  0  0  0  0
 20 28  1  0  0  0  0
M  END
> <PUBCHEM_COMPOUND_CID>
2399526

> <PUBCHEM_COMPOUND_CANONICALIZED>
1

> <PUBCHEM_CACTVS_COMPLEXITY>
339

> <PUBCHEM_CACTVS_HBOND_ACCEPTOR>
7

> <PUBCHEM_CACTVS_HBOND_DONOR>
1

> <PUBCHEM_CACTVS_ROTATABLE_BOND>
2

> <PUBCHEM_CACTVS_SUBSKEYS>
AAADccBzAYBAAAAAAAAAAAAAAAAAASAAAAA8QAAAAAAAAFgB/AAAHQQQAAAADAiFWhS18dbIEAikAiZjZACD0KlxCrhJ2DgoZJiIKOLg2dGEJAxokALoyCcQgAAOAAAAQAAAAAAAAACAAAAAAAAAAAAAAA==

> <PUBCHEM_IUPAC_OPENEYE_NAME>
N-[3-(trifluoromethyl)phenyl]thieno[2,3-d]pyrimidin-4-amine

> <PUBCHEM_IUPAC_CAS_NAME>
N-[3-(trifluoromethyl)phenyl]-4-thieno[2,3-d]pyrimidinamine

> <PUBCHEM_IUPAC_NAME_MARKUP>
<I>N</I>-[3-(trifluoromethyl)phenyl]thieno[2,3-d]pyrimidin-4-amine

> <PUBCHEM_IUPAC_NAME>
N-[3-(trifluoromethyl)phenyl]thieno[2,3-d]pyrimidin-4-amine

> <PUBCHEM_IUPAC_SYSTEMATIC_NAME>
N-[3-(trifluoromethyl)phenyl]thieno[2,3-d]pyrimidin-4-amine

> <PUBCHEM_IUPAC_TRADITIONAL_NAME>
thieno[2,3-d]pyrimidin-4-yl-[3-(trifluoromethyl)phenyl]amine

> <PUBCHEM_IUPAC_INCHI>
InChI=1S/C13H8F3N3S/c14-13(15,16)8-2-1-3-9(6-8)19-11-10-4-5-20-12(10)18-7-17-11/h1-7H,(H,17,18,19)

> <PUBCHEM_IUPAC_INCHIKEY>
GAZMAVAZXARUKY-UHFFFAOYSA-N

> <PUBCHEM_XLOGP3>
3.9

> <PUBCHEM_EXACT_MASS>
295.03910293

> <PUBCHEM_MOLECULAR_FORMULA>
C13H8F3N3S

> <PUBCHEM_MOLECULAR_WEIGHT>
295.28

> <PUBCHEM_OPENEYE_CAN_SMILES>
C1=CC(=CC(=C1)NC2=C3C=CSC3=NC=N2)C(F)(F)F

> <PUBCHEM_OPENEYE_ISO_SMILES>
C1=CC(=CC(=C1)NC2=C3C=CSC3=NC=N2)C(F)(F)F

> <PUBCHEM_CACTVS_TPSA>
66

> <PUBCHEM_MONOISOTOPIC_WEIGHT>
295.03910293

> <PUBCHEM_TOTAL_CHARGE>
0

> <PUBCHEM_HEAVY_ATOM_COUNT>
20

> <PUBCHEM_ATOM_DEF_STEREO_COUNT>
0

> <PUBCHEM_ATOM_UDEF_STEREO_COUNT>
0

> <PUBCHEM_BOND_DEF_STEREO_COUNT>
0

> <PUBCHEM_BOND_UDEF_STEREO_COUNT>
0

> <PUBCHEM_ISOTOPIC_ATOM_COUNT>
0

> <PUBCHEM_COMPONENT_COUNT>
1

> <PUBCHEM_CACTVS_TAUTO_COUNT>
-1

> <PUBCHEM_COORDINATE_TYPE>
1
5
255

> <PUBCHEM_BONDANNOTATIONS>
1  13  8
1  19  8
11  12  8
11  16  8
14  17  8
15  19  8
16  17  8
6  10  8
6  20  8
7  13  8
7  20  8
8  12  8
8  14  8
9  10  8
9  13  8
9  15  8

$$$$
