44406863
  -OEChem-09292322492D

 50 52  0     1  0  0  0  0  0999 V2000
   10.5028    1.0458    0.0000 O   0  0  0  0  0  0  0  0  0  0  0  0
    7.9244   -1.2677    0.0000 O   0  0  0  0  0  0  0  0  0  0  0  0
    6.2781   -0.7296    0.0000 N   0  0  0  0  0  0  0  0  0  0  0  0
    4.6783   -2.8369    0.0000 C   0  0  0  0  0  0  0  0  0  0  0  0
    3.7320   -3.1416    0.0000 C   0  0  0  0  0  0  0  0  0  0  0  0
    4.9889   -1.8864    0.0000 C   0  0  0  0  0  0  0  0  0  0  0  0
    3.7320   -4.1416    0.0000 C   0  0  0  0  0  0  0  0  0  0  0  0
    4.6783   -4.4464    0.0000 C   0  0  0  0  0  0  0  0  0  0  0  0
    8.8564    1.5838    0.0000 C   0  0  0  0  0  0  0  0  0  0  0  0
    8.5458    0.6333    0.0000 C   0  0  0  0  0  0  0  0  0  0  0  0
    5.2619   -3.6416    0.0000 C   0  0  0  0  0  0  0  0  0  0  0  0
    5.9674   -1.6802    0.0000 C   0  0  0  0  0  0  0  0  0  0  0  0
    9.8349    1.7901    0.0000 C   0  0  3  0  0  0  0  0  0  0  0  0
    7.5673    0.4271    0.0000 C   0  0  0  0  0  0  0  0  0  0  0  0
    2.8660   -2.6416    0.0000 C   0  0  0  0  0  0  0  0  0  0  0  0
    2.8660   -4.6416    0.0000 C   0  0  0  0  0  0  0  0  0  0  0  0
    7.2566   -0.5234    0.0000 C   0  0  0  0  0  0  0  0  0  0  0  0
   10.1456    2.7406    0.0000 C   0  0  0  0  0  0  0  0  0  0  0  0
    2.0000   -3.1416    0.0000 C   0  0  0  0  0  0  0  0  0  0  0  0
    2.0000   -4.1416    0.0000 C   0  0  0  0  0  0  0  0  0  0  0  0
   11.1241    2.9468    0.0000 C   0  0  0  0  0  0  0  0  0  0  0  0
    9.4778    3.4849    0.0000 C   0  0  0  0  0  0  0  0  0  0  0  0
   11.4348    3.8973    0.0000 C   0  0  0  0  0  0  0  0  0  0  0  0
    9.7884    4.4354    0.0000 C   0  0  0  0  0  0  0  0  0  0  0  0
   10.7669    4.6416    0.0000 C   0  0  0  0  0  0  0  0  0  0  0  0
    4.9684   -1.2667    0.0000 H   0  0  0  0  0  0  0  0  0  0  0  0
    4.3751   -1.7990    0.0000 H   0  0  0  0  0  0  0  0  0  0  0  0
    4.4272   -5.0133    0.0000 H   0  0  0  0  0  0  0  0  0  0  0  0
    5.2156   -4.7556    0.0000 H   0  0  0  0  0  0  0  0  0  0  0  0
    8.8359    2.2035    0.0000 H   0  0  0  0  0  0  0  0  0  0  0  0
    8.2426    1.6712    0.0000 H   0  0  0  0  0  0  0  0  0  0  0  0
    8.5663    0.0137    0.0000 H   0  0  0  0  0  0  0  0  0  0  0  0
    9.1596    0.5460    0.0000 H   0  0  0  0  0  0  0  0  0  0  0  0
    5.8819   -3.6416    0.0000 H   0  0  0  0  0  0  0  0  0  0  0  0
    5.9880   -2.2998    0.0000 H   0  0  0  0  0  0  0  0  0  0  0  0
    6.5812   -1.7675    0.0000 H   0  0  0  0  0  0  0  0  0  0  0  0
    9.6423    1.2007    0.0000 H   0  0  0  0  0  0  0  0  0  0  0  0
    7.5467    1.0468    0.0000 H   0  0  0  0  0  0  0  0  0  0  0  0
    6.9534    0.5145    0.0000 H   0  0  0  0  0  0  0  0  0  0  0  0
    5.8640   -0.2682    0.0000 H   0  0  0  0  0  0  0  0  0  0  0  0
    2.8660   -2.0216    0.0000 H   0  0  0  0  0  0  0  0  0  0  0  0
    2.8660   -5.2616    0.0000 H   0  0  0  0  0  0  0  0  0  0  0  0
    1.4631   -2.8316    0.0000 H   0  0  0  0  0  0  0  0  0  0  0  0
    1.4631   -4.4516    0.0000 H   0  0  0  0  0  0  0  0  0  0  0  0
   11.5382    2.4853    0.0000 H   0  0  0  0  0  0  0  0  0  0  0  0
    8.8711    3.3570    0.0000 H   0  0  0  0  0  0  0  0  0  0  0  0
   11.1095    1.1736    0.0000 H   0  0  0  0  0  0  0  0  0  0  0  0
   12.0414    4.0252    0.0000 H   0  0  0  0  0  0  0  0  0  0  0  0
    9.3744    4.8969    0.0000 H   0  0  0  0  0  0  0  0  0  0  0  0
   10.9595    5.2310    0.0000 H   0  0  0  0  0  0  0  0  0  0  0  0
  1 13  1  0  0  0  0
  1 47  1  0  0  0  0
  2 17  2  0  0  0  0
  3 12  1  0  0  0  0
  3 17  1  0  0  0  0
  3 40  1  0  0  0  0
  4  5  1  0  0  0  0
  4  6  1  0  0  0  0
  4 11  2  0  0  0  0
  5  7  1  0  0  0  0
  5 15  2  0  0  0  0
  6 12  1  0  0  0  0
  6 26  1  0  0  0  0
  6 27  1  0  0  0  0
  7  8  1  0  0  0  0
  7 16  2  0  0  0  0
  8 11  1  0  0  0  0
  8 28  1  0  0  0  0
  8 29  1  0  0  0  0
  9 10  1  0  0  0  0
  9 13  1  0  0  0  0
  9 30  1  0  0  0  0
  9 31  1  0  0  0  0
 10 14  1  0  0  0  0
 10 32  1  0  0  0  0
 10 33  1  0  0  0  0
 11 34  1  0  0  0  0
 12 35  1  0  0  0  0
 12 36  1  0  0  0  0
 13 18  1  0  0  0  0
 13 37  1  0  0  0  0
 14 17  1  0  0  0  0
 14 38  1  0  0  0  0
 14 39  1  0  0  0  0
 15 19  1  0  0  0  0
 15 41  1  0  0  0  0
 16 20  1  0  0  0  0
 16 42  1  0  0  0  0
 18 21  2  0  0  0  0
 18 22  1  0  0  0  0
 19 20  2  0  0  0  0
 19 43  1  0  0  0  0
 20 44  1  0  0  0  0
 21 23  1  0  0  0  0
 21 45  1  0  0  0  0
 22 24  2  0  0  0  0
 22 46  1  0  0  0  0
 23 25  2  0  0  0  0
 23 48  1  0  0  0  0
 24 25  1  0  0  0  0
 24 49  1  0  0  0  0
 25 50  1  0  0  0  0
M  END
> <PUBCHEM_COMPOUND_CID>
44406863

> <PUBCHEM_COMPOUND_CANONICALIZED>
1

> <PUBCHEM_CACTVS_COMPLEXITY>
453

> <PUBCHEM_CACTVS_HBOND_ACCEPTOR>
2

> <PUBCHEM_CACTVS_HBOND_DONOR>
2

> <PUBCHEM_CACTVS_ROTATABLE_BOND>
8

> <PUBCHEM_CACTVS_SUBSKEYS>
AAADceB6MAAAAAAAAAAAAAAAAAAAAQAAAAAwYAAAAAAAAEABQAAAHgAQCAAADBThmAYwAILAAgCIAiFSEAACAAAgAAAIiIEICIgINjKAkRCEcAAk1gGImAeY3OLOgAAAAAAQAAAAAAAAACAAAAAAAAAAAA==

> <PUBCHEM_IUPAC_OPENEYE_NAME>
5-hydroxy-N-[2-(3H-inden-1-yl)ethyl]-5-phenyl-pentanamide

> <PUBCHEM_IUPAC_CAS_NAME>
5-hydroxy-N-[2-(3H-inden-1-yl)ethyl]-5-phenylpentanamide

> <PUBCHEM_IUPAC_NAME_MARKUP>
5-hydroxy-<I>N</I>-[2-(3<I>H</I>-inden-1-yl)ethyl]-5-phenylpentanamide

> <PUBCHEM_IUPAC_NAME>
5-hydroxy-N-[2-(3H-inden-1-yl)ethyl]-5-phenylpentanamide

> <PUBCHEM_IUPAC_SYSTEMATIC_NAME>
N-[2-(3H-inden-1-yl)ethyl]-5-oxidanyl-5-phenyl-pentanamide

> <PUBCHEM_IUPAC_TRADITIONAL_NAME>
5-hydroxy-N-[2-(3H-inden-1-yl)ethyl]-5-phenyl-valeramide

> <PUBCHEM_IUPAC_INCHI>
InChI=1S/C22H25NO2/c24-21(19-8-2-1-3-9-19)11-6-12-22(25)23-16-15-18-14-13-17-7-4-5-10-20(17)18/h1-5,7-10,14,21,24H,6,11-13,15-16H2,(H,23,25)

> <PUBCHEM_IUPAC_INCHIKEY>
PGWPCIPGEIHMJD-UHFFFAOYSA-N

> <PUBCHEM_XLOGP3_AA>
3.3

> <PUBCHEM_EXACT_MASS>
335.188529040

> <PUBCHEM_MOLECULAR_FORMULA>
C22H25NO2

> <PUBCHEM_MOLECULAR_WEIGHT>
335.4

> <PUBCHEM_OPENEYE_CAN_SMILES>
C1C=C(C2=CC=CC=C21)CCNC(=O)CCCC(C3=CC=CC=C3)O

> <PUBCHEM_OPENEYE_ISO_SMILES>
C1C=C(C2=CC=CC=C21)CCNC(=O)CCCC(C3=CC=CC=C3)O

> <PUBCHEM_CACTVS_TPSA>
49.3

> <PUBCHEM_MONOISOTOPIC_WEIGHT>
335.188529040

> <PUBCHEM_TOTAL_CHARGE>
0

> <PUBCHEM_HEAVY_ATOM_COUNT>
25

> <PUBCHEM_ATOM_DEF_STEREO_COUNT>
0

> <PUBCHEM_ATOM_UDEF_STEREO_COUNT>
1

> <PUBCHEM_BOND_DEF_STEREO_COUNT>
0

> <PUBCHEM_BOND_UDEF_STEREO_COUNT>
0

> <PUBCHEM_ISOTOPIC_ATOM_COUNT>
0

> <PUBCHEM_COMPONENT_COUNT>
1

> <PUBCHEM_CACTVS_TAUTO_COUNT>
-1

> <PUBCHEM_COORDINATE_TYPE>
1
5
255

> <PUBCHEM_BONDANNOTATIONS>
13  1  3
15  19  8
16  20  8
18  21  8
18  22  8
19  20  8
21  23  8
22  24  8
23  25  8
24  25  8
5  15  8
5  7  8
7  16  8

$$$$
