9794644
  -OEChem-09292322192D

 32 34  0     0  0  0  0  0  0999 V2000
    6.5929   -1.4182    0.0000 S   0  0  0  0  0  0  0  0  0  0  0  0
    2.9749    0.3241    0.0000 N   0  0  0  0  0  0  0  0  0  0  0  0
    3.7230   -0.3306    0.0000 N   0  0  0  0  0  0  0  0  0  0  0  0
    6.6021    1.1520    0.0000 C   0  0  0  0  0  0  0  0  0  0  0  0
    5.9786    1.9338    0.0000 C   0  0  0  0  0  0  0  0  0  0  0  0
    6.3796    0.1771    0.0000 C   0  0  0  0  0  0  0  0  0  0  0  0
    4.9786    1.9338    0.0000 C   0  0  0  0  0  0  0  0  0  0  0  0
    5.4786   -0.2568    0.0000 C   0  0  0  0  0  0  0  0  0  0  0  0
    4.3551    1.1520    0.0000 C   0  0  0  0  0  0  0  0  0  0  0  0
    4.5777    0.1771    0.0000 C   0  0  0  0  0  0  0  0  0  0  0  0
    7.0647   -0.5432    0.0000 C   0  0  0  0  0  0  0  0  0  0  0  0
    5.6146   -1.2415    0.0000 C   0  0  0  0  0  0  0  0  0  0  0  0
    3.3648    1.2386    0.0000 C   0  0  0  0  0  0  0  0  0  0  0  0
    8.0559   -0.4107    0.0000 C   0  0  0  0  0  0  0  0  0  0  0  0
    4.8930   -1.9338    0.0000 C   0  0  0  0  0  0  0  0  0  0  0  0
    2.0000    0.1016    0.0000 C   0  0  0  0  0  0  0  0  0  0  0  0
    7.1607    0.8830    0.0000 H   0  0  0  0  0  0  0  0  0  0  0  0
    6.9887    1.6368    0.0000 H   0  0  0  0  0  0  0  0  0  0  0  0
    6.5372    2.2029    0.0000 H   0  0  0  0  0  0  0  0  0  0  0  0
    5.8407    2.5383    0.0000 H   0  0  0  0  0  0  0  0  0  0  0  0
    5.1166    2.5383    0.0000 H   0  0  0  0  0  0  0  0  0  0  0  0
    4.4200    2.2029    0.0000 H   0  0  0  0  0  0  0  0  0  0  0  0
    3.0459    1.7702    0.0000 H   0  0  0  0  0  0  0  0  0  0  0  0
    8.1380   -1.0252    0.0000 H   0  0  0  0  0  0  0  0  0  0  0  0
    8.6704   -0.3285    0.0000 H   0  0  0  0  0  0  0  0  0  0  0  0
    7.9737    0.2038    0.0000 H   0  0  0  0  0  0  0  0  0  0  0  0
    4.4638   -1.4864    0.0000 H   0  0  0  0  0  0  0  0  0  0  0  0
    4.4456   -2.3631    0.0000 H   0  0  0  0  0  0  0  0  0  0  0  0
    5.3223   -2.3812    0.0000 H   0  0  0  0  0  0  0  0  0  0  0  0
    1.8620    0.7061    0.0000 H   0  0  0  0  0  0  0  0  0  0  0  0
    1.3955   -0.0364    0.0000 H   0  0  0  0  0  0  0  0  0  0  0  0
    2.1380   -0.5028    0.0000 H   0  0  0  0  0  0  0  0  0  0  0  0
  1 11  1  0  0  0  0
  1 12  1  0  0  0  0
  2  3  1  0  0  0  0
  2 13  1  0  0  0  0
  2 16  1  0  0  0  0
  3 10  2  0  0  0  0
  4  5  1  0  0  0  0
  4  6  1  0  0  0  0
  4 17  1  0  0  0  0
  4 18  1  0  0  0  0
  5  7  1  0  0  0  0
  5 19  1  0  0  0  0
  5 20  1  0  0  0  0
  6  8  1  0  0  0  0
  6 11  2  0  0  0  0
  7  9  1  0  0  0  0
  7 21  1  0  0  0  0
  7 22  1  0  0  0  0
  8 10  1  0  0  0  0
  8 12  2  0  0  0  0
  9 10  1  0  0  0  0
  9 13  2  0  0  0  0
 11 14  1  0  0  0  0
 12 15  1  0  0  0  0
 13 23  1  0  0  0  0
 14 24  1  0  0  0  0
 14 25  1  0  0  0  0
 14 26  1  0  0  0  0
 15 27  1  0  0  0  0
 15 28  1  0  0  0  0
 15 29  1  0  0  0  0
 16 30  1  0  0  0  0
 16 31  1  0  0  0  0
 16 32  1  0  0  0  0
M  END
> <PUBCHEM_COMPOUND_CID>
9794644

> <PUBCHEM_COMPOUND_CANONICALIZED>
1

> <PUBCHEM_CACTVS_COMPLEXITY>
271

> <PUBCHEM_CACTVS_HBOND_ACCEPTOR>
2

> <PUBCHEM_CACTVS_HBOND_DONOR>
0

> <PUBCHEM_CACTVS_ROTATABLE_BOND>
0

> <PUBCHEM_CACTVS_SUBSKEYS>
AAADceBzAABAAAAAAAAAAAAAAAAAAWJAAAAAAAAABgAAAACx4AAAHAQIAAAADAjBXgQugZIIAAimAxRnRACTBIAxiBAQ2DAoRJgIIKLg0dGEpAhgiABoyAcQgMAOgAAAAAAAAAAAAAAAAAAAAAAAAAAAAA==

> <PUBCHEM_IUPAC_OPENEYE_NAME>
4,11,13-trimethyl-12-thia-3,4-diazatricyclo[8.3.0.02,6]trideca-1(13),2,5,10-tetraene

> <PUBCHEM_IUPAC_CAS_NAME>
4,11,13-trimethyl-12-thia-3,4-diazatricyclo[8.3.0.02,6]trideca-1(13),2,5,10-tetraene

> <PUBCHEM_IUPAC_NAME_MARKUP>
4,11,13-trimethyl-12-thia-3,4-diazatricyclo[8.3.0.0<SUP>2,6</SUP>]trideca-1(13),2,5,10-tetraene

> <PUBCHEM_IUPAC_NAME>
4,11,13-trimethyl-12-thia-3,4-diazatricyclo[8.3.0.02,6]trideca-1(13),2,5,10-tetraene

> <PUBCHEM_IUPAC_SYSTEMATIC_NAME>
4,11,13-trimethyl-12-thia-3,4-diazatricyclo[8.3.0.02,6]trideca-1(13),2,5,10-tetraene

> <PUBCHEM_IUPAC_TRADITIONAL_NAME>
4,11,13-trimethyl-12-thia-3,4-diazatricyclo[8.3.0.02,6]trideca-1(13),2,5,10-tetraene

> <PUBCHEM_IUPAC_INCHI>
InChI=1S/C13H16N2S/c1-8-11-6-4-5-10-7-15(3)14-13(10)12(11)9(2)16-8/h7H,4-6H2,1-3H3

> <PUBCHEM_IUPAC_INCHIKEY>
JTAHZZXPELHTSL-UHFFFAOYSA-N

> <PUBCHEM_XLOGP3_AA>
3.2

> <PUBCHEM_EXACT_MASS>
232.10341969

> <PUBCHEM_MOLECULAR_FORMULA>
C13H16N2S

> <PUBCHEM_MOLECULAR_WEIGHT>
232.35

> <PUBCHEM_OPENEYE_CAN_SMILES>
CC1=C2CCCC3=CN(N=C3C2=C(S1)C)C

> <PUBCHEM_OPENEYE_ISO_SMILES>
CC1=C2CCCC3=CN(N=C3C2=C(S1)C)C

> <PUBCHEM_CACTVS_TPSA>
46.1

> <PUBCHEM_MONOISOTOPIC_WEIGHT>
232.10341969

> <PUBCHEM_TOTAL_CHARGE>
0

> <PUBCHEM_HEAVY_ATOM_COUNT>
16

> <PUBCHEM_ATOM_DEF_STEREO_COUNT>
0

> <PUBCHEM_ATOM_UDEF_STEREO_COUNT>
0

> <PUBCHEM_BOND_DEF_STEREO_COUNT>
0

> <PUBCHEM_BOND_UDEF_STEREO_COUNT>
0

> <PUBCHEM_ISOTOPIC_ATOM_COUNT>
0

> <PUBCHEM_COMPONENT_COUNT>
1

> <PUBCHEM_CACTVS_TAUTO_COUNT>
-1

> <PUBCHEM_COORDINATE_TYPE>
1
5
255

> <PUBCHEM_BONDANNOTATIONS>
1  11  8
1  12  8
2  13  8
2  3  8
3  10  8
6  11  8
6  8  8
8  12  8
9  10  8
9  13  8

$$$$
