11678072
  -OEChem-09292322272D

 59 63  0     0  0  0  0  0  0999 V2000
    7.6833    4.1372    0.0000 O   0  0  0  0  0  0  0  0  0  0  0  0
    7.6833    6.2065    0.0000 O   0  0  0  0  0  0  0  0  0  0  0  0
    5.1132   -5.2560    0.0000 O   0  0  0  0  0  0  0  0  0  0  0  0
    5.9233    1.1718    0.0000 N   0  0  0  0  0  0  0  0  0  0  0  0
    5.9233    3.1718    0.0000 N   0  0  0  0  0  0  0  0  0  0  0  0
    2.6164   -2.1600    0.0000 N   0  0  0  0  0  0  0  0  0  0  0  0
    6.7893    1.6718    0.0000 C   0  0  0  0  0  0  0  0  0  0  0  0
    5.0573    1.6718    0.0000 C   0  0  0  0  0  0  0  0  0  0  0  0
    6.7893    2.6718    0.0000 C   0  0  0  0  0  0  0  0  0  0  0  0
    5.0573    2.6718    0.0000 C   0  0  0  0  0  0  0  0  0  0  0  0
    5.9233    0.1719    0.0000 C   0  0  0  0  0  0  0  0  0  0  0  0
    5.0573   -0.3281    0.0000 C   0  0  0  0  0  0  0  0  0  0  0  0
    5.9233    4.1718    0.0000 C   0  0  0  0  0  0  0  0  0  0  0  0
    5.0573   -1.3282    0.0000 C   0  0  0  0  0  0  0  0  0  0  0  0
    4.1912   -1.8282    0.0000 C   0  0  0  0  0  0  0  0  0  0  0  0
    6.7893    4.6718    0.0000 C   0  0  0  0  0  0  0  0  0  0  0  0
    5.0573    4.6718    0.0000 C   0  0  0  0  0  0  0  0  0  0  0  0
    4.0882   -2.8169    0.0000 C   0  0  0  0  0  0  0  0  0  0  0  0
    6.7893    5.6718    0.0000 C   0  0  0  0  0  0  0  0  0  0  0  0
    3.2835   -1.4230    0.0000 C   0  0  0  0  0  0  0  0  0  0  0  0
    3.1097   -3.0231    0.0000 C   0  0  0  0  0  0  0  0  0  0  0  0
    5.0573    5.6718    0.0000 C   0  0  0  0  0  0  0  0  0  0  0  0
    5.9233    6.1718    0.0000 C   0  0  0  0  0  0  0  0  0  0  0  0
    8.5893    4.6510    0.0000 C   0  0  0  0  0  0  0  0  0  0  0  0
    4.7560   -3.5612    0.0000 C   0  0  0  0  0  0  0  0  0  0  0  0
    8.5893    5.6927    0.0000 C   0  0  0  0  0  0  0  0  0  0  0  0
    2.7990   -3.9736    0.0000 C   0  0  0  0  0  0  0  0  0  0  0  0
    4.4454   -4.5117    0.0000 C   0  0  0  0  0  0  0  0  0  0  0  0
    3.4669   -4.7179    0.0000 C   0  0  0  0  0  0  0  0  0  0  0  0
    4.8026   -6.2065    0.0000 C   0  0  0  0  0  0  0  0  0  0  0  0
    7.0014    1.0892    0.0000 H   0  0  0  0  0  0  0  0  0  0  0  0
    7.3999    1.7795    0.0000 H   0  0  0  0  0  0  0  0  0  0  0  0
    4.4467    1.7795    0.0000 H   0  0  0  0  0  0  0  0  0  0  0  0
    4.8452    1.0892    0.0000 H   0  0  0  0  0  0  0  0  0  0  0  0
    7.3999    2.5642    0.0000 H   0  0  0  0  0  0  0  0  0  0  0  0
    7.0014    3.2545    0.0000 H   0  0  0  0  0  0  0  0  0  0  0  0
    4.8452    3.2545    0.0000 H   0  0  0  0  0  0  0  0  0  0  0  0
    4.4467    2.5642    0.0000 H   0  0  0  0  0  0  0  0  0  0  0  0
    6.1354   -0.4108    0.0000 H   0  0  0  0  0  0  0  0  0  0  0  0
    6.5339    0.2795    0.0000 H   0  0  0  0  0  0  0  0  0  0  0  0
    4.8452    0.2545    0.0000 H   0  0  0  0  0  0  0  0  0  0  0  0
    4.4467   -0.4358    0.0000 H   0  0  0  0  0  0  0  0  0  0  0  0
    5.2693   -1.9108    0.0000 H   0  0  0  0  0  0  0  0  0  0  0  0
    5.6678   -1.2205    0.0000 H   0  0  0  0  0  0  0  0  0  0  0  0
    4.5203    4.3618    0.0000 H   0  0  0  0  0  0  0  0  0  0  0  0
    3.1556   -0.8164    0.0000 H   0  0  0  0  0  0  0  0  0  0  0  0
    4.5203    5.9818    0.0000 H   0  0  0  0  0  0  0  0  0  0  0  0
    2.0000   -2.0931    0.0000 H   0  0  0  0  0  0  0  0  0  0  0  0
    5.9233    6.7918    0.0000 H   0  0  0  0  0  0  0  0  0  0  0  0
    8.7984    4.0674    0.0000 H   0  0  0  0  0  0  0  0  0  0  0  0
    9.2002    4.7571    0.0000 H   0  0  0  0  0  0  0  0  0  0  0  0
    5.3627   -3.4333    0.0000 H   0  0  0  0  0  0  0  0  0  0  0  0
    9.2002    5.5866    0.0000 H   0  0  0  0  0  0  0  0  0  0  0  0
    8.7984    6.2764    0.0000 H   0  0  0  0  0  0  0  0  0  0  0  0
    2.1923   -4.1015    0.0000 H   0  0  0  0  0  0  0  0  0  0  0  0
    3.2743   -5.3072    0.0000 H   0  0  0  0  0  0  0  0  0  0  0  0
    4.2132   -6.0139    0.0000 H   0  0  0  0  0  0  0  0  0  0  0  0
    4.6099   -6.7958    0.0000 H   0  0  0  0  0  0  0  0  0  0  0  0
    5.3919   -6.3991    0.0000 H   0  0  0  0  0  0  0  0  0  0  0  0
  1 16  1  0  0  0  0
  1 24  1  0  0  0  0
  2 19  1  0  0  0  0
  2 26  1  0  0  0  0
  3 28  1  0  0  0  0
  3 30  1  0  0  0  0
  4  7  1  0  0  0  0
  4  8  1  0  0  0  0
  4 11  1  0  0  0  0
  5  9  1  0  0  0  0
  5 10  1  0  0  0  0
  5 13  1  0  0  0  0
  6 20  1  0  0  0  0
  6 21  1  0  0  0  0
  6 48  1  0  0  0  0
  7  9  1  0  0  0  0
  7 31  1  0  0  0  0
  7 32  1  0  0  0  0
  8 10  1  0  0  0  0
  8 33  1  0  0  0  0
  8 34  1  0  0  0  0
  9 35  1  0  0  0  0
  9 36  1  0  0  0  0
 10 37  1  0  0  0  0
 10 38  1  0  0  0  0
 11 12  1  0  0  0  0
 11 39  1  0  0  0  0
 11 40  1  0  0  0  0
 12 14  1  0  0  0  0
 12 41  1  0  0  0  0
 12 42  1  0  0  0  0
 13 16  2  0  0  0  0
 13 17  1  0  0  0  0
 14 15  1  0  0  0  0
 14 43  1  0  0  0  0
 14 44  1  0  0  0  0
 15 18  1  0  0  0  0
 15 20  2  0  0  0  0
 16 19  1  0  0  0  0
 17 22  2  0  0  0  0
 17 45  1  0  0  0  0
 18 21  2  0  0  0  0
 18 25  1  0  0  0  0
 19 23  2  0  0  0  0
 20 46  1  0  0  0  0
 21 27  1  0  0  0  0
 22 23  1  0  0  0  0
 22 47  1  0  0  0  0
 23 49  1  0  0  0  0
 24 26  1  0  0  0  0
 24 50  1  0  0  0  0
 24 51  1  0  0  0  0
 25 28  2  0  0  0  0
 25 52  1  0  0  0  0
 26 53  1  0  0  0  0
 26 54  1  0  0  0  0
 27 29  2  0  0  0  0
 27 55  1  0  0  0  0
 28 29  1  0  0  0  0
 29 56  1  0  0  0  0
 30 57  1  0  0  0  0
 30 58  1  0  0  0  0
 30 59  1  0  0  0  0
M  END
> <PUBCHEM_COMPOUND_CID>
11678072

> <PUBCHEM_COMPOUND_CANONICALIZED>
1

> <PUBCHEM_CACTVS_COMPLEXITY>
542

> <PUBCHEM_CACTVS_HBOND_ACCEPTOR>
5

> <PUBCHEM_CACTVS_HBOND_DONOR>
1

> <PUBCHEM_CACTVS_ROTATABLE_BOND>
6

> <PUBCHEM_CACTVS_SUBSKEYS>
AAADceB7MAAAAAAAAAAAAAAAAAAAAWAAAAA8aIEAAAAAAFiR9AAAHgAQAAAADAzhngY+xvPJlACgAzRnRACCiCAxIiAI2aA/7JgPZuLEsZuXOCrm0Bna6Aew0PMOgEABAgACUAAAgAIEAASgAAAAAAAAAA==

> <PUBCHEM_IUPAC_OPENEYE_NAME>
3-[3-[4-(2,3-dihydro-1,4-benzodioxin-5-yl)piperazin-1-yl]propyl]-5-methoxy-1H-indole

> <PUBCHEM_IUPAC_CAS_NAME>
3-[3-[4-(2,3-dihydro-1,4-benzodioxin-5-yl)-1-piperazinyl]propyl]-5-methoxy-1H-indole

> <PUBCHEM_IUPAC_NAME_MARKUP>
3-[3-[4-(2,3-dihydro-1,4-benzodioxin-5-yl)piperazin-1-yl]propyl]-5-methoxy-1<I>H</I>-indole

> <PUBCHEM_IUPAC_NAME>
3-[3-[4-(2,3-dihydro-1,4-benzodioxin-5-yl)piperazin-1-yl]propyl]-5-methoxy-1H-indole

> <PUBCHEM_IUPAC_SYSTEMATIC_NAME>
3-[3-[4-(2,3-dihydro-1,4-benzodioxin-5-yl)piperazin-1-yl]propyl]-5-methoxy-1H-indole

> <PUBCHEM_IUPAC_TRADITIONAL_NAME>
3-[3-[4-(2,3-dihydro-1,4-benzodioxin-5-yl)piperazino]propyl]-5-methoxy-1H-indole

> <PUBCHEM_IUPAC_INCHI>
InChI=1S/C24H29N3O3/c1-28-19-7-8-21-20(16-19)18(17-25-21)4-3-9-26-10-12-27(13-11-26)22-5-2-6-23-24(22)30-15-14-29-23/h2,5-8,16-17,25H,3-4,9-15H2,1H3

> <PUBCHEM_IUPAC_INCHIKEY>
KZQWOGYXIVRWJV-UHFFFAOYSA-N

> <PUBCHEM_XLOGP3_AA>
4

> <PUBCHEM_EXACT_MASS>
407.22089180

> <PUBCHEM_MOLECULAR_FORMULA>
C24H29N3O3

> <PUBCHEM_MOLECULAR_WEIGHT>
407.5

> <PUBCHEM_OPENEYE_CAN_SMILES>
COC1=CC2=C(C=C1)NC=C2CCCN3CCN(CC3)C4=C5C(=CC=C4)OCCO5

> <PUBCHEM_OPENEYE_ISO_SMILES>
COC1=CC2=C(C=C1)NC=C2CCCN3CCN(CC3)C4=C5C(=CC=C4)OCCO5

> <PUBCHEM_CACTVS_TPSA>
50

> <PUBCHEM_MONOISOTOPIC_WEIGHT>
407.22089180

> <PUBCHEM_TOTAL_CHARGE>
0

> <PUBCHEM_HEAVY_ATOM_COUNT>
30

> <PUBCHEM_ATOM_DEF_STEREO_COUNT>
0

> <PUBCHEM_ATOM_UDEF_STEREO_COUNT>
0

> <PUBCHEM_BOND_DEF_STEREO_COUNT>
0

> <PUBCHEM_BOND_UDEF_STEREO_COUNT>
0

> <PUBCHEM_ISOTOPIC_ATOM_COUNT>
0

> <PUBCHEM_COMPONENT_COUNT>
1

> <PUBCHEM_CACTVS_TAUTO_COUNT>
-1

> <PUBCHEM_COORDINATE_TYPE>
1
5
255

> <PUBCHEM_BONDANNOTATIONS>
13  16  8
13  17  8
15  18  8
15  20  8
16  19  8
17  22  8
18  21  8
18  25  8
19  23  8
21  27  8
22  23  8
25  28  8
27  29  8
28  29  8
6  20  8
6  21  8

$$$$
