45260646
  -OEChem-09292322202D

 46 47  0     1  0  0  0  0  0999 V2000
    3.8005    0.0000    0.0000 Cl  0  0  0  0  0  0  0  0  0  0  0  0
    3.5401    7.0711    0.0000 O   0  0  0  0  0  0  0  0  0  0  0  0
    5.4369    5.3110    0.0000 O   0  0  0  0  0  0  0  0  0  0  0  0
    1.2039    6.1711    0.0000 N   0  0  0  0  0  0  0  0  0  0  0  0
    3.8492    6.1200    0.0000 C   0  0  3  0  0  0  0  0  0  0  0  0
    2.8981    5.8110    0.0000 C   0  0  0  0  0  0  0  0  0  0  0  0
    4.8492    6.1200    0.0000 C   0  0  0  0  0  0  0  0  0  0  0  0
    3.8492    5.1200    0.0000 C   0  0  0  0  0  0  0  0  0  0  0  0
    2.1550    6.4801    0.0000 C   0  0  0  0  0  0  0  0  0  0  0  0
    5.1582    7.0711    0.0000 C   0  0  0  0  0  0  0  0  0  0  0  0
    4.3492    7.6588    0.0000 C   0  0  0  0  0  0  0  0  0  0  0  0
    2.9831    4.6200    0.0000 C   0  0  0  0  0  0  0  0  0  0  0  0
    4.7152    4.6200    0.0000 C   0  0  0  0  0  0  0  0  0  0  0  0
    6.1092    7.3801    0.0000 C   0  0  0  0  0  0  0  0  0  0  0  0
    0.4608    6.8402    0.0000 C   0  0  0  0  0  0  0  0  0  0  0  0
    0.9960    5.1930    0.0000 C   0  0  0  0  0  0  0  0  0  0  0  0
    2.9831    3.6200    0.0000 C   0  0  0  0  0  0  0  0  0  0  0  0
    4.7152    3.6200    0.0000 C   0  0  0  0  0  0  0  0  0  0  0  0
    3.8492    3.1200    0.0000 C   0  0  0  0  0  0  0  0  0  0  0  0
    6.8524    6.7109    0.0000 C   0  0  0  0  0  0  0  0  0  0  0  0
    6.3171    8.3582    0.0000 C   0  0  0  0  0  0  0  0  0  0  0  0
    7.8034    7.0200    0.0000 C   0  0  0  0  0  0  0  0  0  0  0  0
    7.2682    8.6672    0.0000 C   0  0  0  0  0  0  0  0  0  0  0  0
    8.0113    7.9981    0.0000 C   0  0  0  0  0  0  0  0  0  0  0  0
    2.4095    5.4293    0.0000 H   0  0  0  0  0  0  0  0  0  0  0  0
    3.1892    5.2636    0.0000 H   0  0  0  0  0  0  0  0  0  0  0  0
    2.6435    6.8618    0.0000 H   0  0  0  0  0  0  0  0  0  0  0  0
    1.8639    7.0275    0.0000 H   0  0  0  0  0  0  0  0  0  0  0  0
    4.3492    8.2788    0.0000 H   0  0  0  0  0  0  0  0  0  0  0  0
    2.4462    4.9300    0.0000 H   0  0  0  0  0  0  0  0  0  0  0  0
    5.2521    4.9300    0.0000 H   0  0  0  0  0  0  0  0  0  0  0  0
    0.8756    7.3010    0.0000 H   0  0  0  0  0  0  0  0  0  0  0  0
    0.0000    7.2551    0.0000 H   0  0  0  0  0  0  0  0  0  0  0  0
    0.0459    6.3795    0.0000 H   0  0  0  0  0  0  0  0  0  0  0  0
    0.3895    5.3219    0.0000 H   0  0  0  0  0  0  0  0  0  0  0  0
    0.8671    4.5865    0.0000 H   0  0  0  0  0  0  0  0  0  0  0  0
    1.6024    5.0640    0.0000 H   0  0  0  0  0  0  0  0  0  0  0  0
    2.4462    3.3100    0.0000 H   0  0  0  0  0  0  0  0  0  0  0  0
    5.2521    3.3100    0.0000 H   0  0  0  0  0  0  0  0  0  0  0  0
    3.8492    2.5000    0.0000 H   0  0  0  0  0  0  0  0  0  0  0  0
    6.7235    6.1045    0.0000 H   0  0  0  0  0  0  0  0  0  0  0  0
    5.8564    8.7731    0.0000 H   0  0  0  0  0  0  0  0  0  0  0  0
    8.2642    6.6051    0.0000 H   0  0  0  0  0  0  0  0  0  0  0  0
    7.3971    9.2737    0.0000 H   0  0  0  0  0  0  0  0  0  0  0  0
    8.6010    8.1897    0.0000 H   0  0  0  0  0  0  0  0  0  0  0  0
    4.8005    0.0000    0.0000 H   0  0  0  0  0  0  0  0  0  0  0  0
  1 46  1  0  0  0  0
  2  5  1  0  0  0  0
  2 11  1  0  0  0  0
  3  7  2  0  0  0  0
  4  9  1  0  0  0  0
  4 15  1  0  0  0  0
  4 16  1  0  0  0  0
  5  6  1  0  0  0  0
  5  7  1  0  0  0  0
  5  8  1  0  0  0  0
  6  9  1  0  0  0  0
  6 25  1  0  0  0  0
  6 26  1  0  0  0  0
  7 10  1  0  0  0  0
  8 12  2  0  0  0  0
  8 13  1  0  0  0  0
  9 27  1  0  0  0  0
  9 28  1  0  0  0  0
 10 11  2  0  0  0  0
 10 14  1  0  0  0  0
 11 29  1  0  0  0  0
 12 17  1  0  0  0  0
 12 30  1  0  0  0  0
 13 18  2  0  0  0  0
 13 31  1  0  0  0  0
 14 20  2  0  0  0  0
 14 21  1  0  0  0  0
 15 32  1  0  0  0  0
 15 33  1  0  0  0  0
 15 34  1  0  0  0  0
 16 35  1  0  0  0  0
 16 36  1  0  0  0  0
 16 37  1  0  0  0  0
 17 19  2  0  0  0  0
 17 38  1  0  0  0  0
 18 19  1  0  0  0  0
 18 39  1  0  0  0  0
 19 40  1  0  0  0  0
 20 22  1  0  0  0  0
 20 41  1  0  0  0  0
 21 23  2  0  0  0  0
 21 42  1  0  0  0  0
 22 24  2  0  0  0  0
 22 43  1  0  0  0  0
 23 24  1  0  0  0  0
 23 44  1  0  0  0  0
 24 45  1  0  0  0  0
M  END
> <PUBCHEM_COMPOUND_CID>
45260646

> <PUBCHEM_COMPOUND_CANONICALIZED>
1

> <PUBCHEM_CACTVS_COMPLEXITY>
445

> <PUBCHEM_CACTVS_HBOND_ACCEPTOR>
3

> <PUBCHEM_CACTVS_HBOND_DONOR>
1

> <PUBCHEM_CACTVS_ROTATABLE_BOND>
5

> <PUBCHEM_CACTVS_SUBSKEYS>
AAADceB6MAAEAAAAAAAAAAAAAAAAAQAAAAAwYAAAAAAAAAABQAAAHgAAAAAADEThmAYyAIMABACIAqBSAAICCAAgIAAIiAFICMgIJjKAtRyEMAAmwAEIqIecyOCOgAAAAAAAAAAAAAAAAAAAAAAAAAAAAA==

> <PUBCHEM_IUPAC_OPENEYE_NAME>
2-[2-(dimethylamino)ethyl]-2,4-diphenyl-furan-3-one;hydrochloride

> <PUBCHEM_IUPAC_CAS_NAME>
2-[2-(dimethylamino)ethyl]-2,4-diphenyl-3-furanone;hydrochloride

> <PUBCHEM_IUPAC_NAME_MARKUP>
2-[2-(dimethylamino)ethyl]-2,4-diphenylfuran-3-one;hydrochloride

> <PUBCHEM_IUPAC_NAME>
2-[2-(dimethylamino)ethyl]-2,4-diphenylfuran-3-one;hydrochloride

> <PUBCHEM_IUPAC_SYSTEMATIC_NAME>
2-[2-(dimethylamino)ethyl]-2,4-diphenyl-furan-3-one;hydrochloride

> <PUBCHEM_IUPAC_TRADITIONAL_NAME>
2-[2-(dimethylamino)ethyl]-2,4-diphenyl-furan-3-one;hydrochloride

> <PUBCHEM_IUPAC_INCHI>
InChI=1S/C20H21NO2.ClH/c1-21(2)14-13-20(17-11-7-4-8-12-17)19(22)18(15-23-20)16-9-5-3-6-10-16;/h3-12,15H,13-14H2,1-2H3;1H

> <PUBCHEM_IUPAC_INCHIKEY>
QIYQATVRQUSBDA-UHFFFAOYSA-N

> <PUBCHEM_EXACT_MASS>
343.1339066

> <PUBCHEM_MOLECULAR_FORMULA>
C20H22ClNO2

> <PUBCHEM_MOLECULAR_WEIGHT>
343.8

> <PUBCHEM_OPENEYE_CAN_SMILES>
CN(C)CCC1(C(=O)C(=CO1)C2=CC=CC=C2)C3=CC=CC=C3.Cl

> <PUBCHEM_OPENEYE_ISO_SMILES>
CN(C)CCC1(C(=O)C(=CO1)C2=CC=CC=C2)C3=CC=CC=C3.Cl

> <PUBCHEM_CACTVS_TPSA>
29.5

> <PUBCHEM_MONOISOTOPIC_WEIGHT>
343.1339066

> <PUBCHEM_TOTAL_CHARGE>
0

> <PUBCHEM_HEAVY_ATOM_COUNT>
24

> <PUBCHEM_ATOM_DEF_STEREO_COUNT>
0

> <PUBCHEM_ATOM_UDEF_STEREO_COUNT>
1

> <PUBCHEM_BOND_DEF_STEREO_COUNT>
0

> <PUBCHEM_BOND_UDEF_STEREO_COUNT>
0

> <PUBCHEM_ISOTOPIC_ATOM_COUNT>
0

> <PUBCHEM_COMPONENT_COUNT>
2

> <PUBCHEM_CACTVS_TAUTO_COUNT>
-1

> <PUBCHEM_COORDINATE_TYPE>
1
5
255

> <PUBCHEM_BONDANNOTATIONS>
12  17  8
13  18  8
14  20  8
14  21  8
17  19  8
18  19  8
20  22  8
21  23  8
22  24  8
23  24  8
5  6  3
8  12  8
8  13  8

$$$$
