17955460
  -OEChem-09292322092D

 67 71  0     1  0  0  0  0  0999 V2000
    5.5321    5.7673    0.0000 F   0  0  0  0  0  0  0  0  0  0  0  0
    7.2641    6.7673    0.0000 F   0  0  0  0  0  0  0  0  0  0  0  0
    4.6660   -6.7327    0.0000 O   0  0  0  0  0  0  0  0  0  0  0  0
    8.1301   -0.7327    0.0000 O   0  0  0  0  0  0  0  0  0  0  0  0
    7.2641    0.7673    0.0000 N   0  0  0  0  0  0  0  0  0  0  0  0
    7.2641    2.7673    0.0000 N   0  0  0  0  0  0  0  0  0  0  0  0
    5.5321   -2.2327    0.0000 N   0  0  3  0  0  0  0  0  0  0  0  0
    4.6660   -4.7327    0.0000 C   0  0  0  0  0  0  0  0  0  0  0  0
    4.6660   -3.7327    0.0000 C   0  0  0  0  0  0  0  0  0  0  0  0
    8.1301    1.2673    0.0000 C   0  0  0  0  0  0  0  0  0  0  0  0
    6.3981    1.2673    0.0000 C   0  0  0  0  0  0  0  0  0  0  0  0
    8.1301    2.2673    0.0000 C   0  0  0  0  0  0  0  0  0  0  0  0
    6.3981    2.2673    0.0000 C   0  0  0  0  0  0  0  0  0  0  0  0
    5.5321   -3.2327    0.0000 C   0  0  0  0  0  0  0  0  0  0  0  0
    3.8000   -5.2327    0.0000 C   0  0  0  0  0  0  0  0  0  0  0  0
    5.5321   -5.2327    0.0000 C   0  0  0  0  0  0  0  0  0  0  0  0
    6.3981   -1.7327    0.0000 C   0  0  0  0  0  0  0  0  0  0  0  0
    6.3981   -0.7327    0.0000 C   0  0  0  0  0  0  0  0  0  0  0  0
    7.2641   -0.2327    0.0000 C   0  0  0  0  0  0  0  0  0  0  0  0
    3.8000   -6.2327    0.0000 C   0  0  0  0  0  0  0  0  0  0  0  0
    5.5321   -6.2327    0.0000 C   0  0  0  0  0  0  0  0  0  0  0  0
    7.2641    3.7673    0.0000 C   0  0  0  0  0  0  0  0  0  0  0  0
    4.6660   -1.7327    0.0000 C   0  0  0  0  0  0  0  0  0  0  0  0
    2.9061   -4.6980    0.0000 C   0  0  0  0  0  0  0  0  0  0  0  0
    6.4260   -4.6980    0.0000 C   0  0  0  0  0  0  0  0  0  0  0  0
    2.9061   -6.7673    0.0000 C   0  0  0  0  0  0  0  0  0  0  0  0
    6.4260   -6.7673    0.0000 C   0  0  0  0  0  0  0  0  0  0  0  0
    6.3981    4.2673    0.0000 C   0  0  0  0  0  0  0  0  0  0  0  0
    8.1301    4.2673    0.0000 C   0  0  0  0  0  0  0  0  0  0  0  0
    2.0000   -5.2118    0.0000 C   0  0  0  0  0  0  0  0  0  0  0  0
    7.3321   -5.2118    0.0000 C   0  0  0  0  0  0  0  0  0  0  0  0
    2.0000   -6.2535    0.0000 C   0  0  0  0  0  0  0  0  0  0  0  0
    7.3321   -6.2535    0.0000 C   0  0  0  0  0  0  0  0  0  0  0  0
    6.3981    5.2673    0.0000 C   0  0  0  0  0  0  0  0  0  0  0  0
    8.1301    5.2673    0.0000 C   0  0  0  0  0  0  0  0  0  0  0  0
    7.2641    5.7673    0.0000 C   0  0  0  0  0  0  0  0  0  0  0  0
    5.2030   -4.4227    0.0000 H   0  0  0  0  0  0  0  0  0  0  0  0
    4.4540   -3.1501    0.0000 H   0  0  0  0  0  0  0  0  0  0  0  0
    4.0555   -3.8403    0.0000 H   0  0  0  0  0  0  0  0  0  0  0  0
    8.3422    0.6847    0.0000 H   0  0  0  0  0  0  0  0  0  0  0  0
    8.7407    1.3750    0.0000 H   0  0  0  0  0  0  0  0  0  0  0  0
    5.7875    1.3750    0.0000 H   0  0  0  0  0  0  0  0  0  0  0  0
    6.1860    0.6847    0.0000 H   0  0  0  0  0  0  0  0  0  0  0  0
    8.7407    2.1597    0.0000 H   0  0  0  0  0  0  0  0  0  0  0  0
    8.3422    2.8499    0.0000 H   0  0  0  0  0  0  0  0  0  0  0  0
    6.1860    2.8499    0.0000 H   0  0  0  0  0  0  0  0  0  0  0  0
    5.7875    2.1597    0.0000 H   0  0  0  0  0  0  0  0  0  0  0  0
    5.7441   -3.8153    0.0000 H   0  0  0  0  0  0  0  0  0  0  0  0
    6.1426   -3.1250    0.0000 H   0  0  0  0  0  0  0  0  0  0  0  0
    6.6101   -2.3153    0.0000 H   0  0  0  0  0  0  0  0  0  0  0  0
    7.0087   -1.6250    0.0000 H   0  0  0  0  0  0  0  0  0  0  0  0
    6.1860   -0.1501    0.0000 H   0  0  0  0  0  0  0  0  0  0  0  0
    5.7875   -0.8403    0.0000 H   0  0  0  0  0  0  0  0  0  0  0  0
    4.9760   -1.1957    0.0000 H   0  0  0  0  0  0  0  0  0  0  0  0
    4.1291   -1.4227    0.0000 H   0  0  0  0  0  0  0  0  0  0  0  0
    4.3560   -2.2696    0.0000 H   0  0  0  0  0  0  0  0  0  0  0  0
    2.9132   -4.0780    0.0000 H   0  0  0  0  0  0  0  0  0  0  0  0
    6.4188   -4.0780    0.0000 H   0  0  0  0  0  0  0  0  0  0  0  0
    2.9132   -7.3873    0.0000 H   0  0  0  0  0  0  0  0  0  0  0  0
    6.4188   -7.3873    0.0000 H   0  0  0  0  0  0  0  0  0  0  0  0
    5.8612    3.9573    0.0000 H   0  0  0  0  0  0  0  0  0  0  0  0
    8.6671    3.9573    0.0000 H   0  0  0  0  0  0  0  0  0  0  0  0
    1.4643   -4.8998    0.0000 H   0  0  0  0  0  0  0  0  0  0  0  0
    7.8678   -4.8998    0.0000 H   0  0  0  0  0  0  0  0  0  0  0  0
    1.4643   -6.5656    0.0000 H   0  0  0  0  0  0  0  0  0  0  0  0
    7.8678   -6.5656    0.0000 H   0  0  0  0  0  0  0  0  0  0  0  0
    8.6671    5.5773    0.0000 H   0  0  0  0  0  0  0  0  0  0  0  0
  1 34  1  0  0  0  0
  2 36  1  0  0  0  0
  3 20  1  0  0  0  0
  3 21  1  0  0  0  0
  4 19  2  0  0  0  0
  5 10  1  0  0  0  0
  5 11  1  0  0  0  0
  5 19  1  0  0  0  0
  6 12  1  0  0  0  0
  6 13  1  0  0  0  0
  6 22  1  0  0  0  0
  7 14  1  0  0  0  0
  7 17  1  0  0  0  0
  7 23  1  0  0  0  0
  8  9  1  0  0  0  0
  8 15  1  0  0  0  0
  8 16  1  0  0  0  0
  8 37  1  0  0  0  0
  9 14  1  0  0  0  0
  9 38  1  0  0  0  0
  9 39  1  0  0  0  0
 10 12  1  0  0  0  0
 10 40  1  0  0  0  0
 10 41  1  0  0  0  0
 11 13  1  0  0  0  0
 11 42  1  0  0  0  0
 11 43  1  0  0  0  0
 12 44  1  0  0  0  0
 12 45  1  0  0  0  0
 13 46  1  0  0  0  0
 13 47  1  0  0  0  0
 14 48  1  0  0  0  0
 14 49  1  0  0  0  0
 15 20  1  0  0  0  0
 15 24  2  0  0  0  0
 16 21  1  0  0  0  0
 16 25  2  0  0  0  0
 17 18  1  0  0  0  0
 17 50  1  0  0  0  0
 17 51  1  0  0  0  0
 18 19  1  0  0  0  0
 18 52  1  0  0  0  0
 18 53  1  0  0  0  0
 20 26  2  0  0  0  0
 21 27  2  0  0  0  0
 22 28  2  0  0  0  0
 22 29  1  0  0  0  0
 23 54  1  0  0  0  0
 23 55  1  0  0  0  0
 23 56  1  0  0  0  0
 24 30  1  0  0  0  0
 24 57  1  0  0  0  0
 25 31  1  0  0  0  0
 25 58  1  0  0  0  0
 26 32  1  0  0  0  0
 26 59  1  0  0  0  0
 27 33  1  0  0  0  0
 27 60  1  0  0  0  0
 28 34  1  0  0  0  0
 28 61  1  0  0  0  0
 29 35  2  0  0  0  0
 29 62  1  0  0  0  0
 30 32  2  0  0  0  0
 30 63  1  0  0  0  0
 31 33  2  0  0  0  0
 31 64  1  0  0  0  0
 32 65  1  0  0  0  0
 33 66  1  0  0  0  0
 34 36  2  0  0  0  0
 35 36  1  0  0  0  0
 35 67  1  0  0  0  0
M  END
> <PUBCHEM_COMPOUND_CID>
17955460

> <PUBCHEM_COMPOUND_CANONICALIZED>
1

> <PUBCHEM_CACTVS_COMPLEXITY>
697

> <PUBCHEM_CACTVS_HBOND_ACCEPTOR>
6

> <PUBCHEM_CACTVS_HBOND_DONOR>
0

> <PUBCHEM_CACTVS_ROTATABLE_BOND>
7

> <PUBCHEM_CACTVS_SUBSKEYS>
AAADceB7MYAAAAAAAAAAAAAAAAAAAAAAAAA8aMECAAAAAACRUAAAHwAAAAAADQzBmAwyxoMABACIAiVSUACCCAAhIgAIiAEObIgMZirE8ZuWOCjkxhHI6AeQ0OIOgAAAAAAIAAAAAAAAABAAAAAAAAAAAA==

> <PUBCHEM_IUPAC_OPENEYE_NAME>
1-[4-(3,4-difluorophenyl)piperazin-1-yl]-3-[methyl-[2-(9H-xanthen-9-yl)ethyl]amino]propan-1-one

> <PUBCHEM_IUPAC_CAS_NAME>
1-[4-(3,4-difluorophenyl)-1-piperazinyl]-3-[methyl-[2-(9H-xanthen-9-yl)ethyl]amino]-1-propanone

> <PUBCHEM_IUPAC_NAME_MARKUP>
1-[4-(3,4-difluorophenyl)piperazin-1-yl]-3-[methyl-[2-(9<I>H</I>-xanthen-9-yl)ethyl]amino]propan-1-one

> <PUBCHEM_IUPAC_NAME>
1-[4-(3,4-difluorophenyl)piperazin-1-yl]-3-[methyl-[2-(9H-xanthen-9-yl)ethyl]amino]propan-1-one

> <PUBCHEM_IUPAC_SYSTEMATIC_NAME>
1-[4-[3,4-bis(fluoranyl)phenyl]piperazin-1-yl]-3-[methyl-[2-(9H-xanthen-9-yl)ethyl]amino]propan-1-one

> <PUBCHEM_IUPAC_TRADITIONAL_NAME>
1-[4-(3,4-difluorophenyl)piperazino]-3-[methyl-[2-(9H-xanthen-9-yl)ethyl]amino]propan-1-one

> <PUBCHEM_IUPAC_INCHI>
InChI=1S/C29H31F2N3O2/c1-32(14-12-22-23-6-2-4-8-27(23)36-28-9-5-3-7-24(22)28)15-13-29(35)34-18-16-33(17-19-34)21-10-11-25(30)26(31)20-21/h2-11,20,22H,12-19H2,1H3

> <PUBCHEM_IUPAC_INCHIKEY>
FBLFUQVNJABTNK-UHFFFAOYSA-N

> <PUBCHEM_XLOGP3_AA>
4.9

> <PUBCHEM_EXACT_MASS>
491.23843356

> <PUBCHEM_MOLECULAR_FORMULA>
C29H31F2N3O2

> <PUBCHEM_MOLECULAR_WEIGHT>
491.6

> <PUBCHEM_OPENEYE_CAN_SMILES>
CN(CCC1C2=CC=CC=C2OC3=CC=CC=C13)CCC(=O)N4CCN(CC4)C5=CC(=C(C=C5)F)F

> <PUBCHEM_OPENEYE_ISO_SMILES>
CN(CCC1C2=CC=CC=C2OC3=CC=CC=C13)CCC(=O)N4CCN(CC4)C5=CC(=C(C=C5)F)F

> <PUBCHEM_CACTVS_TPSA>
36

> <PUBCHEM_MONOISOTOPIC_WEIGHT>
491.23843356

> <PUBCHEM_TOTAL_CHARGE>
0

> <PUBCHEM_HEAVY_ATOM_COUNT>
36

> <PUBCHEM_ATOM_DEF_STEREO_COUNT>
0

> <PUBCHEM_ATOM_UDEF_STEREO_COUNT>
0

> <PUBCHEM_BOND_DEF_STEREO_COUNT>
0

> <PUBCHEM_BOND_UDEF_STEREO_COUNT>
0

> <PUBCHEM_ISOTOPIC_ATOM_COUNT>
0

> <PUBCHEM_COMPONENT_COUNT>
1

> <PUBCHEM_CACTVS_TAUTO_COUNT>
-1

> <PUBCHEM_COORDINATE_TYPE>
1
5
255

> <PUBCHEM_BONDANNOTATIONS>
15  20  8
15  24  8
16  21  8
16  25  8
20  26  8
21  27  8
22  28  8
22  29  8
24  30  8
25  31  8
26  32  8
27  33  8
28  34  8
29  35  8
30  32  8
31  33  8
34  36  8
35  36  8

$$$$
