134137432
  -OEChem-09292322382D

 65 69  0     1  0  0  0  0  0999 V2000
    9.1206    4.3511    0.0000 S   0  0  0  0  0  0  0  0  0  0  0  0
   10.5074    5.4702    0.0000 S   0  0  0  0  0  0  0  0  0  0  0  0
    4.6783   -5.2749    0.0000 S   0  0  0  0  0  0  0  0  0  0  0  0
    8.9144    5.3296    0.0000 O   0  0  0  0  0  0  0  0  0  0  0  0
    9.3268    3.3726    0.0000 O   0  0  0  0  0  0  0  0  0  0  0  0
    8.1421    4.1449    0.0000 N   0  0  3  0  0  0  0  0  0  0  0  0
    5.6103   -0.8139    0.0000 N   0  0  0  0  0  0  0  0  0  0  0  0
    4.9889   -2.7149    0.0000 N   0  0  0  0  0  0  0  0  0  0  0  0
    5.2619   -4.4702    0.0000 N   0  0  0  0  0  0  0  0  0  0  0  0
    7.2101    1.2934    0.0000 C   0  0  0  0  0  0  0  0  0  0  0  0
    7.8314    3.1944    0.0000 C   0  0  0  0  0  0  0  0  0  0  0  0
    6.5422    2.0377    0.0000 C   0  0  0  0  0  0  0  0  0  0  0  0
    8.1886    1.4996    0.0000 C   0  0  0  0  0  0  0  0  0  0  0  0
    6.8529    2.9882    0.0000 C   0  0  0  0  0  0  0  0  0  0  0  0
    8.4993    2.4501    0.0000 C   0  0  0  0  0  0  0  0  0  0  0  0
    6.8994    0.3428    0.0000 C   0  0  0  0  0  0  0  0  0  0  0  0
    5.9209    0.1366    0.0000 C   0  0  0  0  0  0  0  0  0  0  0  0
    4.6318   -1.0201    0.0000 C   0  0  0  0  0  0  0  0  0  0  0  0
    6.2781   -1.5582    0.0000 C   0  0  0  0  0  0  0  0  0  0  0  0
    4.3211   -1.9706    0.0000 C   0  0  0  0  0  0  0  0  0  0  0  0
    5.9674   -2.5087    0.0000 C   0  0  0  0  0  0  0  0  0  0  0  0
    7.4742    4.8892    0.0000 C   0  0  0  0  0  0  0  0  0  0  0  0
   10.0991    4.5574    0.0000 C   0  0  0  0  0  0  0  0  0  0  0  0
    4.6783   -3.6655    0.0000 C   0  0  0  0  0  0  0  0  0  0  0  0
    3.7320   -3.9702    0.0000 C   0  0  0  0  0  0  0  0  0  0  0  0
   10.8411    3.8869    0.0000 C   0  0  0  0  0  0  0  0  0  0  0  0
    3.7320   -4.9702    0.0000 C   0  0  0  0  0  0  0  0  0  0  0  0
   11.7080    4.3854    0.0000 C   0  0  0  0  0  0  0  0  0  0  0  0
    2.8660   -3.4702    0.0000 C   0  0  0  0  0  0  0  0  0  0  0  0
   11.5017    5.3640    0.0000 C   0  0  0  0  0  0  0  0  0  0  0  0
    2.8660   -5.4702    0.0000 C   0  0  0  0  0  0  0  0  0  0  0  0
    2.0000   -3.9702    0.0000 C   0  0  0  0  0  0  0  0  0  0  0  0
    2.0000   -4.9702    0.0000 C   0  0  0  0  0  0  0  0  0  0  0  0
    7.6242    0.8319    0.0000 H   0  0  0  0  0  0  0  0  0  0  0  0
    8.4381    3.3222    0.0000 H   0  0  0  0  0  0  0  0  0  0  0  0
    5.9953    2.3297    0.0000 H   0  0  0  0  0  0  0  0  0  0  0  0
    6.1597    1.5498    0.0000 H   0  0  0  0  0  0  0  0  0  0  0  0
    8.2092    0.8799    0.0000 H   0  0  0  0  0  0  0  0  0  0  0  0
    8.8024    1.4122    0.0000 H   0  0  0  0  0  0  0  0  0  0  0  0
    6.8323    3.6078    0.0000 H   0  0  0  0  0  0  0  0  0  0  0  0
    6.2391    3.0755    0.0000 H   0  0  0  0  0  0  0  0  0  0  0  0
    9.0462    2.1581    0.0000 H   0  0  0  0  0  0  0  0  0  0  0  0
    8.8818    2.9380    0.0000 H   0  0  0  0  0  0  0  0  0  0  0  0
    6.9200   -0.2768    0.0000 H   0  0  0  0  0  0  0  0  0  0  0  0
    7.5132    0.2555    0.0000 H   0  0  0  0  0  0  0  0  0  0  0  0
    5.9004    0.7563    0.0000 H   0  0  0  0  0  0  0  0  0  0  0  0
    5.3071    0.2240    0.0000 H   0  0  0  0  0  0  0  0  0  0  0  0
    4.6112   -0.4005    0.0000 H   0  0  0  0  0  0  0  0  0  0  0  0
    4.0179   -0.9328    0.0000 H   0  0  0  0  0  0  0  0  0  0  0  0
    6.8250   -1.8502    0.0000 H   0  0  0  0  0  0  0  0  0  0  0  0
    6.6607   -1.0703    0.0000 H   0  0  0  0  0  0  0  0  0  0  0  0
    3.7742   -1.6786    0.0000 H   0  0  0  0  0  0  0  0  0  0  0  0
    3.9385   -2.4585    0.0000 H   0  0  0  0  0  0  0  0  0  0  0  0
    5.9880   -3.1284    0.0000 H   0  0  0  0  0  0  0  0  0  0  0  0
    6.5812   -2.5961    0.0000 H   0  0  0  0  0  0  0  0  0  0  0  0
    7.9357    5.3033    0.0000 H   0  0  0  0  0  0  0  0  0  0  0  0
    7.0602    5.3507    0.0000 H   0  0  0  0  0  0  0  0  0  0  0  0
    7.0128    4.4752    0.0000 H   0  0  0  0  0  0  0  0  0  0  0  0
   10.7752    3.2704    0.0000 H   0  0  0  0  0  0  0  0  0  0  0  0
   12.2739    4.1323    0.0000 H   0  0  0  0  0  0  0  0  0  0  0  0
    2.8660   -2.8502    0.0000 H   0  0  0  0  0  0  0  0  0  0  0  0
   11.9174    5.8240    0.0000 H   0  0  0  0  0  0  0  0  0  0  0  0
    2.8660   -6.0902    0.0000 H   0  0  0  0  0  0  0  0  0  0  0  0
    1.4631   -3.6602    0.0000 H   0  0  0  0  0  0  0  0  0  0  0  0
    1.4631   -5.2802    0.0000 H   0  0  0  0  0  0  0  0  0  0  0  0
  1  4  2  0  0  0  0
  1  5  2  0  0  0  0
  1  6  1  0  0  0  0
  1 23  1  0  0  0  0
  2 23  1  0  0  0  0
  2 30  1  0  0  0  0
  3  9  1  0  0  0  0
  3 27  1  0  0  0  0
  6 11  1  0  0  0  0
  6 22  1  0  0  0  0
  7 17  1  0  0  0  0
  7 18  1  0  0  0  0
  7 19  1  0  0  0  0
  8 20  1  0  0  0  0
  8 21  1  0  0  0  0
  8 24  1  0  0  0  0
  9 24  2  0  0  0  0
 10 12  1  0  0  0  0
 10 13  1  0  0  0  0
 10 16  1  0  0  0  0
 10 34  1  0  0  0  0
 11 14  1  0  0  0  0
 11 15  1  0  0  0  0
 11 35  1  0  0  0  0
 12 14  1  0  0  0  0
 12 36  1  0  0  0  0
 12 37  1  0  0  0  0
 13 15  1  0  0  0  0
 13 38  1  0  0  0  0
 13 39  1  0  0  0  0
 14 40  1  0  0  0  0
 14 41  1  0  0  0  0
 15 42  1  0  0  0  0
 15 43  1  0  0  0  0
 16 17  1  0  0  0  0
 16 44  1  0  0  0  0
 16 45  1  0  0  0  0
 17 46  1  0  0  0  0
 17 47  1  0  0  0  0
 18 20  1  0  0  0  0
 18 48  1  0  0  0  0
 18 49  1  0  0  0  0
 19 21  1  0  0  0  0
 19 50  1  0  0  0  0
 19 51  1  0  0  0  0
 20 52  1  0  0  0  0
 20 53  1  0  0  0  0
 21 54  1  0  0  0  0
 21 55  1  0  0  0  0
 22 56  1  0  0  0  0
 22 57  1  0  0  0  0
 22 58  1  0  0  0  0
 23 26  2  0  0  0  0
 24 25  1  0  0  0  0
 25 27  1  0  0  0  0
 25 29  2  0  0  0  0
 26 28  1  0  0  0  0
 26 59  1  0  0  0  0
 27 31  2  0  0  0  0
 28 30  2  0  0  0  0
 28 60  1  0  0  0  0
 29 32  1  0  0  0  0
 29 61  1  0  0  0  0
 30 62  1  0  0  0  0
 31 33  1  0  0  0  0
 31 63  1  0  0  0  0
 32 33  2  0  0  0  0
 32 64  1  0  0  0  0
 33 65  1  0  0  0  0
M  END
> <PUBCHEM_COMPOUND_CID>
134137432

> <PUBCHEM_COMPOUND_CANONICALIZED>
1

> <PUBCHEM_CACTVS_COMPLEXITY>
733

> <PUBCHEM_CACTVS_HBOND_ACCEPTOR>
8

> <PUBCHEM_CACTVS_HBOND_DONOR>
0

> <PUBCHEM_CACTVS_ROTATABLE_BOND>
7

> <PUBCHEM_CACTVS_SUBSKEYS>
AAADcfB7sABgAAAAAAAAAAAAAAAAAWJAAAA8YIAAAAAAAFgB/AAAHAQAQAAADSjFWgSzsdMAAAqkAiJiYHDDAZAhCBBJmDgoRJiIYKLgmZGUIAxggALoyAcQgIAOAAAAAAAEAAAQAAAAAAgAAAAAAAAAAA==

> <PUBCHEM_IUPAC_OPENEYE_NAME>
N-[4-[2-[4-(1,2-benzothiazol-3-yl)piperazin-1-yl]ethyl]cyclohexyl]-N-methyl-thiophene-2-sulfonamide

> <PUBCHEM_IUPAC_CAS_NAME>
N-[4-[2-[4-(1,2-benzothiazol-3-yl)-1-piperazinyl]ethyl]cyclohexyl]-N-methyl-2-thiophenesulfonamide

> <PUBCHEM_IUPAC_NAME_MARKUP>
<I>N</I>-[4-[2-[4-(1,2-benzothiazol-3-yl)piperazin-1-yl]ethyl]cyclohexyl]-<I>N</I>-methylthiophene-2-sulfonamide

> <PUBCHEM_IUPAC_NAME>
N-[4-[2-[4-(1,2-benzothiazol-3-yl)piperazin-1-yl]ethyl]cyclohexyl]-N-methylthiophene-2-sulfonamide

> <PUBCHEM_IUPAC_SYSTEMATIC_NAME>
N-[4-[2-[4-(1,2-benzothiazol-3-yl)piperazin-1-yl]ethyl]cyclohexyl]-N-methyl-thiophene-2-sulfonamide

> <PUBCHEM_IUPAC_TRADITIONAL_NAME>
N-[4-[2-[4-(1,2-benzothiazol-3-yl)piperazino]ethyl]cyclohexyl]-N-methyl-thiophene-2-sulfonamide

> <PUBCHEM_IUPAC_INCHI>
InChI=1S/C24H32N4O2S3/c1-26(33(29,30)23-7-4-18-31-23)20-10-8-19(9-11-20)12-13-27-14-16-28(17-15-27)24-21-5-2-3-6-22(21)32-25-24/h2-7,18-20H,8-17H2,1H3

> <PUBCHEM_IUPAC_INCHIKEY>
RBZFRDTUHHOAAN-UHFFFAOYSA-N

> <PUBCHEM_XLOGP3_AA>
5.3

> <PUBCHEM_EXACT_MASS>
504.16873980

> <PUBCHEM_MOLECULAR_FORMULA>
C24H32N4O2S3

> <PUBCHEM_MOLECULAR_WEIGHT>
504.7

> <PUBCHEM_OPENEYE_CAN_SMILES>
CN(C1CCC(CC1)CCN2CCN(CC2)C3=NSC4=CC=CC=C43)S(=O)(=O)C5=CC=CS5

> <PUBCHEM_OPENEYE_ISO_SMILES>
CN(C1CCC(CC1)CCN2CCN(CC2)C3=NSC4=CC=CC=C43)S(=O)(=O)C5=CC=CS5

> <PUBCHEM_CACTVS_TPSA>
122

> <PUBCHEM_MONOISOTOPIC_WEIGHT>
504.16873980

> <PUBCHEM_TOTAL_CHARGE>
0

> <PUBCHEM_HEAVY_ATOM_COUNT>
33

> <PUBCHEM_ATOM_DEF_STEREO_COUNT>
0

> <PUBCHEM_ATOM_UDEF_STEREO_COUNT>
0

> <PUBCHEM_BOND_DEF_STEREO_COUNT>
0

> <PUBCHEM_BOND_UDEF_STEREO_COUNT>
0

> <PUBCHEM_ISOTOPIC_ATOM_COUNT>
0

> <PUBCHEM_COMPONENT_COUNT>
1

> <PUBCHEM_CACTVS_TAUTO_COUNT>
-1

> <PUBCHEM_COORDINATE_TYPE>
1
5
255

> <PUBCHEM_BONDANNOTATIONS>
2  23  8
2  30  8
23  26  8
24  25  8
25  27  8
25  29  8
26  28  8
27  31  8
28  30  8
29  32  8
3  27  8
3  9  8
31  33  8
32  33  8
9  24  8

$$$$
