164619819
  -OEChem-09292322432D

 65 69  0     0  0  0  0  0  0999 V2000
    2.0000   -6.0674    0.0000 F   0  0  0  0  0  0  0  0  0  0  0  0
    5.5443   -5.8721    0.0000 O   0  0  0  0  0  0  0  0  0  0  0  0
    9.0546    0.9024    0.0000 O   0  0  0  0  0  0  0  0  0  0  0  0
   13.2328    5.3231    0.0000 O   0  0  0  0  0  0  0  0  0  0  0  0
    6.4763   -1.4111    0.0000 N   0  0  0  0  0  0  0  0  0  0  0  0
    6.1279   -5.0674    0.0000 N   0  0  0  0  0  0  0  0  0  0  0  0
   11.2758    4.9107    0.0000 N   0  0  0  0  0  0  0  0  0  0  0  0
    5.8550   -3.3122    0.0000 C   0  0  0  0  0  0  0  0  0  0  0  0
    5.1871   -2.5678    0.0000 C   0  0  0  0  0  0  0  0  0  0  0  0
    6.8335   -3.1059    0.0000 C   0  0  0  0  0  0  0  0  0  0  0  0
    5.4978   -1.6173    0.0000 C   0  0  0  0  0  0  0  0  0  0  0  0
    7.1441   -2.1554    0.0000 C   0  0  0  0  0  0  0  0  0  0  0  0
    6.7870   -0.4606    0.0000 C   0  0  0  0  0  0  0  0  0  0  0  0
    5.5443   -4.2627    0.0000 C   0  0  0  0  0  0  0  0  0  0  0  0
    7.7654   -0.2544    0.0000 C   0  0  0  0  0  0  0  0  0  0  0  0
    4.5981   -4.5674    0.0000 C   0  0  0  0  0  0  0  0  0  0  0  0
    8.0761    0.6961    0.0000 C   0  0  0  0  0  0  0  0  0  0  0  0
    4.5981   -5.5674    0.0000 C   0  0  0  0  0  0  0  0  0  0  0  0
    3.7320   -4.0674    0.0000 C   0  0  0  0  0  0  0  0  0  0  0  0
    3.7320   -6.0674    0.0000 C   0  0  0  0  0  0  0  0  0  0  0  0
   11.5864    5.8612    0.0000 C   0  0  0  0  0  0  0  0  0  0  0  0
   11.9436    4.1664    0.0000 C   0  0  0  0  0  0  0  0  0  0  0  0
   10.2973    4.7044    0.0000 C   0  0  0  0  0  0  0  0  0  0  0  0
    2.8660   -4.5674    0.0000 C   0  0  0  0  0  0  0  0  0  0  0  0
   12.5649    6.0674    0.0000 C   0  0  0  0  0  0  0  0  0  0  0  0
   12.9221    4.3726    0.0000 C   0  0  0  0  0  0  0  0  0  0  0  0
    2.8660   -5.5674    0.0000 C   0  0  0  0  0  0  0  0  0  0  0  0
    9.9866    3.7539    0.0000 C   0  0  0  0  0  0  0  0  0  0  0  0
    9.3653    1.8529    0.0000 C   0  0  0  0  0  0  0  0  0  0  0  0
   10.6545    3.0096    0.0000 C   0  0  0  0  0  0  0  0  0  0  0  0
    9.0081    3.5477    0.0000 C   0  0  0  0  0  0  0  0  0  0  0  0
   10.3438    2.0591    0.0000 C   0  0  0  0  0  0  0  0  0  0  0  0
    8.6974    2.5972    0.0000 C   0  0  0  0  0  0  0  0  0  0  0  0
    6.2690   -3.7736    0.0000 H   0  0  0  0  0  0  0  0  0  0  0  0
    4.6402   -2.2758    0.0000 H   0  0  0  0  0  0  0  0  0  0  0  0
    4.8046   -3.0558    0.0000 H   0  0  0  0  0  0  0  0  0  0  0  0
    6.8540   -3.7256    0.0000 H   0  0  0  0  0  0  0  0  0  0  0  0
    7.4473   -3.1933    0.0000 H   0  0  0  0  0  0  0  0  0  0  0  0
    5.4772   -0.9977    0.0000 H   0  0  0  0  0  0  0  0  0  0  0  0
    4.8840   -1.5300    0.0000 H   0  0  0  0  0  0  0  0  0  0  0  0
    7.6910   -2.4474    0.0000 H   0  0  0  0  0  0  0  0  0  0  0  0
    7.5267   -1.6675    0.0000 H   0  0  0  0  0  0  0  0  0  0  0  0
    6.7664    0.1591    0.0000 H   0  0  0  0  0  0  0  0  0  0  0  0
    6.1731   -0.3732    0.0000 H   0  0  0  0  0  0  0  0  0  0  0  0
    7.7860   -0.8740    0.0000 H   0  0  0  0  0  0  0  0  0  0  0  0
    8.3793   -0.3417    0.0000 H   0  0  0  0  0  0  0  0  0  0  0  0
    8.0556    1.3158    0.0000 H   0  0  0  0  0  0  0  0  0  0  0  0
    7.4623    0.7835    0.0000 H   0  0  0  0  0  0  0  0  0  0  0  0
    3.7320   -3.4474    0.0000 H   0  0  0  0  0  0  0  0  0  0  0  0
   11.5659    6.4808    0.0000 H   0  0  0  0  0  0  0  0  0  0  0  0
   10.9726    5.9485    0.0000 H   0  0  0  0  0  0  0  0  0  0  0  0
   11.4173    3.8387    0.0000 H   0  0  0  0  0  0  0  0  0  0  0  0
   12.1749    3.5911    0.0000 H   0  0  0  0  0  0  0  0  0  0  0  0
    3.7320   -6.6874    0.0000 H   0  0  0  0  0  0  0  0  0  0  0  0
   10.2767    5.3241    0.0000 H   0  0  0  0  0  0  0  0  0  0  0  0
    9.6834    4.7918    0.0000 H   0  0  0  0  0  0  0  0  0  0  0  0
    2.3291   -4.2574    0.0000 H   0  0  0  0  0  0  0  0  0  0  0  0
   13.0913    6.3950    0.0000 H   0  0  0  0  0  0  0  0  0  0  0  0
   12.3337    6.6427    0.0000 H   0  0  0  0  0  0  0  0  0  0  0  0
   12.9427    3.7529    0.0000 H   0  0  0  0  0  0  0  0  0  0  0  0
   13.5359    4.2852    0.0000 H   0  0  0  0  0  0  0  0  0  0  0  0
   11.2611    3.1375    0.0000 H   0  0  0  0  0  0  0  0  0  0  0  0
    8.5940    4.0092    0.0000 H   0  0  0  0  0  0  0  0  0  0  0  0
   10.7578    1.5976    0.0000 H   0  0  0  0  0  0  0  0  0  0  0  0
    8.0908    2.4693    0.0000 H   0  0  0  0  0  0  0  0  0  0  0  0
  1 27  1  0  0  0  0
  2  6  1  0  0  0  0
  2 18  1  0  0  0  0
  3 17  1  0  0  0  0
  3 29  1  0  0  0  0
  4 25  1  0  0  0  0
  4 26  1  0  0  0  0
  5 11  1  0  0  0  0
  5 12  1  0  0  0  0
  5 13  1  0  0  0  0
  6 14  2  0  0  0  0
  7 21  1  0  0  0  0
  7 22  1  0  0  0  0
  7 23  1  0  0  0  0
  8  9  1  0  0  0  0
  8 10  1  0  0  0  0
  8 14  1  0  0  0  0
  8 34  1  0  0  0  0
  9 11  1  0  0  0  0
  9 35  1  0  0  0  0
  9 36  1  0  0  0  0
 10 12  1  0  0  0  0
 10 37  1  0  0  0  0
 10 38  1  0  0  0  0
 11 39  1  0  0  0  0
 11 40  1  0  0  0  0
 12 41  1  0  0  0  0
 12 42  1  0  0  0  0
 13 15  1  0  0  0  0
 13 43  1  0  0  0  0
 13 44  1  0  0  0  0
 14 16  1  0  0  0  0
 15 17  1  0  0  0  0
 15 45  1  0  0  0  0
 15 46  1  0  0  0  0
 16 18  2  0  0  0  0
 16 19  1  0  0  0  0
 17 47  1  0  0  0  0
 17 48  1  0  0  0  0
 18 20  1  0  0  0  0
 19 24  2  0  0  0  0
 19 49  1  0  0  0  0
 20 27  2  0  0  0  0
 20 54  1  0  0  0  0
 21 25  1  0  0  0  0
 21 50  1  0  0  0  0
 21 51  1  0  0  0  0
 22 26  1  0  0  0  0
 22 52  1  0  0  0  0
 22 53  1  0  0  0  0
 23 28  1  0  0  0  0
 23 55  1  0  0  0  0
 23 56  1  0  0  0  0
 24 27  1  0  0  0  0
 24 57  1  0  0  0  0
 25 58  1  0  0  0  0
 25 59  1  0  0  0  0
 26 60  1  0  0  0  0
 26 61  1  0  0  0  0
 28 30  2  0  0  0  0
 28 31  1  0  0  0  0
 29 32  2  0  0  0  0
 29 33  1  0  0  0  0
 30 32  1  0  0  0  0
 30 62  1  0  0  0  0
 31 33  2  0  0  0  0
 31 63  1  0  0  0  0
 32 64  1  0  0  0  0
 33 65  1  0  0  0  0
M  END
> <PUBCHEM_COMPOUND_CID>
164619819

> <PUBCHEM_COMPOUND_CANONICALIZED>
1

> <PUBCHEM_CACTVS_COMPLEXITY>
577

> <PUBCHEM_CACTVS_HBOND_ACCEPTOR>
7

> <PUBCHEM_CACTVS_HBOND_DONOR>
0

> <PUBCHEM_CACTVS_ROTATABLE_BOND>
8

> <PUBCHEM_CACTVS_SUBSKEYS>
AAADcfB7MQAAAAAAAAAAAAAAAAAAAWAAAAA8eIEAAAAAAFgB9AAAHwAEAAAADQzhng4whtMQBACpA6RyQgCCCAAkIAAomCE+TNoOJrqEtZuHOajmwBmY6ceY2OKOIAAAAAAIAABAAAAAABAAAAAAAAAAAA==

> <PUBCHEM_IUPAC_OPENEYE_NAME>
6-fluoro-3-[1-[3-[4-(morpholinomethyl)phenoxy]propyl]-4-piperidyl]-1,2-benzoxazole

> <PUBCHEM_IUPAC_CAS_NAME>
6-fluoro-3-[1-[3-[4-(4-morpholinylmethyl)phenoxy]propyl]-4-piperidinyl]-1,2-benzoxazole

> <PUBCHEM_IUPAC_NAME_MARKUP>
6-fluoro-3-[1-[3-[4-(morpholin-4-ylmethyl)phenoxy]propyl]piperidin-4-yl]-1,2-benzoxazole

> <PUBCHEM_IUPAC_NAME>
6-fluoro-3-[1-[3-[4-(morpholin-4-ylmethyl)phenoxy]propyl]piperidin-4-yl]-1,2-benzoxazole

> <PUBCHEM_IUPAC_SYSTEMATIC_NAME>
6-fluoranyl-3-[1-[3-[4-(morpholin-4-ylmethyl)phenoxy]propyl]piperidin-4-yl]-1,2-benzoxazole

> <PUBCHEM_IUPAC_TRADITIONAL_NAME>
6-fluoro-3-[1-[3-[4-(morpholinomethyl)phenoxy]propyl]-4-piperidyl]indoxazene

> <PUBCHEM_IUPAC_INCHI>
InChI=1S/C26H32FN3O3/c27-22-4-7-24-25(18-22)33-28-26(24)21-8-11-29(12-9-21)10-1-15-32-23-5-2-20(3-6-23)19-30-13-16-31-17-14-30/h2-7,18,21H,1,8-17,19H2

> <PUBCHEM_IUPAC_INCHIKEY>
WQWHPPMEWVYOCN-UHFFFAOYSA-N

> <PUBCHEM_XLOGP3_AA>
3.9

> <PUBCHEM_EXACT_MASS>
453.24277005

> <PUBCHEM_MOLECULAR_FORMULA>
C26H32FN3O3

> <PUBCHEM_MOLECULAR_WEIGHT>
453.5

> <PUBCHEM_OPENEYE_CAN_SMILES>
C1CN(CCC1C2=NOC3=C2C=CC(=C3)F)CCCOC4=CC=C(C=C4)CN5CCOCC5

> <PUBCHEM_OPENEYE_ISO_SMILES>
C1CN(CCC1C2=NOC3=C2C=CC(=C3)F)CCCOC4=CC=C(C=C4)CN5CCOCC5

> <PUBCHEM_CACTVS_TPSA>
51

> <PUBCHEM_MONOISOTOPIC_WEIGHT>
453.24277005

> <PUBCHEM_TOTAL_CHARGE>
0

> <PUBCHEM_HEAVY_ATOM_COUNT>
33

> <PUBCHEM_ATOM_DEF_STEREO_COUNT>
0

> <PUBCHEM_ATOM_UDEF_STEREO_COUNT>
0

> <PUBCHEM_BOND_DEF_STEREO_COUNT>
0

> <PUBCHEM_BOND_UDEF_STEREO_COUNT>
0

> <PUBCHEM_ISOTOPIC_ATOM_COUNT>
0

> <PUBCHEM_COMPONENT_COUNT>
1

> <PUBCHEM_CACTVS_TAUTO_COUNT>
-1

> <PUBCHEM_COORDINATE_TYPE>
1
5
255

> <PUBCHEM_BONDANNOTATIONS>
14  16  8
16  18  8
16  19  8
18  20  8
19  24  8
2  18  8
2  6  8
20  27  8
24  27  8
28  30  8
28  31  8
29  32  8
29  33  8
30  32  8
31  33  8
6  14  8

$$$$
