46180395
  -OEChem-09292322482D

 50 53  0     1  0  0  0  0  0999 V2000
    2.9176    1.0140    0.0000 O   0  0  0  0  0  0  0  0  0  0  0  0
    6.3903   -2.0175    0.0000 N   0  0  3  0  0  0  0  0  0  0  0  0
    5.5321   -1.5206    0.0000 C   0  0  1  0  0  0  0  0  0  0  0  0
    5.5321   -0.5206    0.0000 C   0  0  0  0  0  0  0  0  0  0  0  0
    4.6660   -2.0206    0.0000 C   0  0  0  0  0  0  0  0  0  0  0  0
    7.2558   -1.5333    0.0000 C   0  0  0  0  0  0  0  0  0  0  0  0
    6.4421   -0.0137    0.0000 C   0  0  0  0  0  0  0  0  0  0  0  0
    7.2814   -0.5419    0.0000 C   0  0  0  0  0  0  0  0  0  0  0  0
    4.6660   -0.0206    0.0000 C   0  0  0  0  0  0  0  0  0  0  0  0
    3.8000   -1.5206    0.0000 C   0  0  0  0  0  0  0  0  0  0  0  0
    6.3829   -3.0175    0.0000 C   0  0  0  0  0  0  0  0  0  0  0  0
    3.8000   -0.5206    0.0000 C   0  0  0  0  0  0  0  0  0  0  0  0
    6.4501    1.0279    0.0000 C   0  0  0  0  0  0  0  0  0  0  0  0
    4.6500    1.0210    0.0000 C   0  0  0  0  0  0  0  0  0  0  0  0
    7.2452   -3.5238    0.0000 C   0  0  0  0  0  0  0  0  0  0  0  0
    2.9061    0.0141    0.0000 C   0  0  0  0  0  0  0  0  0  0  0  0
    2.9061   -2.0552    0.0000 C   0  0  0  0  0  0  0  0  0  0  0  0
    5.5480    1.5487    0.0000 C   0  0  0  0  0  0  0  0  0  0  0  0
    2.0000   -0.4997    0.0000 C   0  0  0  0  0  0  0  0  0  0  0  0
    2.0000   -1.5414    0.0000 C   0  0  0  0  0  0  0  0  0  0  0  0
    7.2378   -4.5238    0.0000 C   0  0  0  0  0  0  0  0  0  0  0  0
    2.0574    1.5240    0.0000 C   0  0  0  0  0  0  0  0  0  0  0  0
    2.0690    2.5240    0.0000 C   0  0  0  0  0  0  0  0  0  0  0  0
    2.0806    3.5239    0.0000 C   0  0  0  0  0  0  0  0  0  0  0  0
    2.0921    4.5238    0.0000 C   0  0  0  0  0  0  0  0  0  0  0  0
    5.5315   -2.3706    0.0000 H   0  0  0  0  0  0  0  0  0  0  0  0
    4.2675   -2.4955    0.0000 H   0  0  0  0  0  0  0  0  0  0  0  0
    5.0646   -2.4955    0.0000 H   0  0  0  0  0  0  0  0  0  0  0  0
    7.4575   -2.1196    0.0000 H   0  0  0  0  0  0  0  0  0  0  0  0
    7.8685   -1.4390    0.0000 H   0  0  0  0  0  0  0  0  0  0  0  0
    7.8885   -0.6678    0.0000 H   0  0  0  0  0  0  0  0  0  0  0  0
    7.5131    0.0331    0.0000 H   0  0  0  0  0  0  0  0  0  0  0  0
    5.7731   -2.9053    0.0000 H   0  0  0  0  0  0  0  0  0  0  0  0
    6.1665   -3.5985    0.0000 H   0  0  0  0  0  0  0  0  0  0  0  0
    6.9882    1.3358    0.0000 H   0  0  0  0  0  0  0  0  0  0  0  0
    4.1095    1.3247    0.0000 H   0  0  0  0  0  0  0  0  0  0  0  0
    7.8550   -3.6360    0.0000 H   0  0  0  0  0  0  0  0  0  0  0  0
    7.4615   -2.9428    0.0000 H   0  0  0  0  0  0  0  0  0  0  0  0
    2.9132   -2.6752    0.0000 H   0  0  0  0  0  0  0  0  0  0  0  0
    5.5456    2.1687    0.0000 H   0  0  0  0  0  0  0  0  0  0  0  0
    1.4643   -0.1877    0.0000 H   0  0  0  0  0  0  0  0  0  0  0  0
    1.4643   -1.8534    0.0000 H   0  0  0  0  0  0  0  0  0  0  0  0
    6.6178   -4.5192    0.0000 H   0  0  0  0  0  0  0  0  0  0  0  0
    7.2332   -5.1438    0.0000 H   0  0  0  0  0  0  0  0  0  0  0  0
    7.8578   -4.5284    0.0000 H   0  0  0  0  0  0  0  0  0  0  0  0
    1.4482    1.6387    0.0000 H   0  0  0  0  0  0  0  0  0  0  0  0
    1.8387    0.9439    0.0000 H   0  0  0  0  0  0  0  0  0  0  0  0
    2.7121    4.5166    0.0000 H   0  0  0  0  0  0  0  0  0  0  0  0
    2.0993    5.1438    0.0000 H   0  0  0  0  0  0  0  0  0  0  0  0
    1.4722    4.5310    0.0000 H   0  0  0  0  0  0  0  0  0  0  0  0
  1 16  1  0  0  0  0
  1 22  1  0  0  0  0
  2  3  1  0  0  0  0
  2  6  1  0  0  0  0
  2 11  1  0  0  0  0
  3  4  1  0  0  0  0
  3  5  1  0  0  0  0
  3 26  1  1  0  0  0
  4  7  2  0  0  0  0
  4  9  1  0  0  0  0
  5 10  1  0  0  0  0
  5 27  1  0  0  0  0
  5 28  1  0  0  0  0
  6  8  1  0  0  0  0
  6 29  1  0  0  0  0
  6 30  1  0  0  0  0
  7  8  1  0  0  0  0
  7 13  1  0  0  0  0
  8 31  1  0  0  0  0
  8 32  1  0  0  0  0
  9 12  1  0  0  0  0
  9 14  2  0  0  0  0
 10 12  2  0  0  0  0
 10 17  1  0  0  0  0
 11 15  1  0  0  0  0
 11 33  1  0  0  0  0
 11 34  1  0  0  0  0
 12 16  1  0  0  0  0
 13 18  2  0  0  0  0
 13 35  1  0  0  0  0
 14 18  1  0  0  0  0
 14 36  1  0  0  0  0
 15 21  1  0  0  0  0
 15 37  1  0  0  0  0
 15 38  1  0  0  0  0
 16 19  2  0  0  0  0
 17 20  2  0  0  0  0
 17 39  1  0  0  0  0
 18 40  1  0  0  0  0
 19 20  1  0  0  0  0
 19 41  1  0  0  0  0
 20 42  1  0  0  0  0
 21 43  1  0  0  0  0
 21 44  1  0  0  0  0
 21 45  1  0  0  0  0
 22 23  1  0  0  0  0
 22 46  1  0  0  0  0
 22 47  1  0  0  0  0
 23 24  3  0  0  0  0
 24 25  1  0  0  0  0
 25 48  1  0  0  0  0
 25 49  1  0  0  0  0
 25 50  1  0  0  0  0
M  END
> <PUBCHEM_COMPOUND_CID>
46180395

> <PUBCHEM_COMPOUND_CANONICALIZED>
1

> <PUBCHEM_CACTVS_COMPLEXITY>
517

> <PUBCHEM_CACTVS_HBOND_ACCEPTOR>
2

> <PUBCHEM_CACTVS_HBOND_DONOR>
0

> <PUBCHEM_CACTVS_ROTATABLE_BOND>
4

> <PUBCHEM_CACTVS_SUBSKEYS>
AAADceB6IAAAAAAAAAAAAAAAAAAAAAAAAAA8YMEAAAAAAADxQAAAHgAAAAAADCzhmAYyBoMABADAEiBCAACCCAAgIAAIiAAODIgMJiKEsRuGOCjkwBGIqAeQ0PMOgAADAAAYAACQAAaAADQAAAAAAAAAAA==

> <PUBCHEM_IUPAC_OPENEYE_NAME>
(6aR)-11-but-2-ynoxy-6-propyl-5,6,6a,7-tetrahydro-4H-dibenzo[de,g]quinoline

> <PUBCHEM_IUPAC_CAS_NAME>
(6aR)-11-but-2-ynoxy-6-propyl-5,6,6a,7-tetrahydro-4H-dibenzo[de,g]quinoline

> <PUBCHEM_IUPAC_NAME_MARKUP>
(6<I>a</I><I>R</I>)-11-but-2-ynoxy-6-propyl-5,6,6<I>a</I>,7-tetrahydro-4<I>H</I>-dibenzo[de,g]quinoline

> <PUBCHEM_IUPAC_NAME>
(6aR)-11-but-2-ynoxy-6-propyl-5,6,6a,7-tetrahydro-4H-dibenzo[de,g]quinoline

> <PUBCHEM_IUPAC_SYSTEMATIC_NAME>
(6aR)-11-but-2-ynoxy-6-propyl-5,6,6a,7-tetrahydro-4H-dibenzo[de,g]quinoline

> <PUBCHEM_IUPAC_TRADITIONAL_NAME>
(6aR)-11-but-2-ynoxy-6-propyl-5,6,6a,7-tetrahydro-4H-dibenzo[de,g]quinoline

> <PUBCHEM_IUPAC_INCHI>
InChI=1S/C23H25NO/c1-3-5-15-25-21-11-7-9-18-16-20-22-17(12-14-24(20)13-4-2)8-6-10-19(22)23(18)21/h6-11,20H,4,12-16H2,1-2H3/t20-/m1/s1

> <PUBCHEM_IUPAC_INCHIKEY>
HGKNZSUHDCFNCK-HXUWFJFHSA-N

> <PUBCHEM_XLOGP3_AA>
5

> <PUBCHEM_EXACT_MASS>
331.193614421

> <PUBCHEM_MOLECULAR_FORMULA>
C23H25NO

> <PUBCHEM_MOLECULAR_WEIGHT>
331.4

> <PUBCHEM_OPENEYE_CAN_SMILES>
CCCN1CCC2=C3C1CC4=C(C3=CC=C2)C(=CC=C4)OCC#CC

> <PUBCHEM_OPENEYE_ISO_SMILES>
CCCN1CCC2=C3[C@H]1CC4=C(C3=CC=C2)C(=CC=C4)OCC#CC

> <PUBCHEM_CACTVS_TPSA>
12.5

> <PUBCHEM_MONOISOTOPIC_WEIGHT>
331.193614421

> <PUBCHEM_TOTAL_CHARGE>
0

> <PUBCHEM_HEAVY_ATOM_COUNT>
25

> <PUBCHEM_ATOM_DEF_STEREO_COUNT>
1

> <PUBCHEM_ATOM_UDEF_STEREO_COUNT>
0

> <PUBCHEM_BOND_DEF_STEREO_COUNT>
0

> <PUBCHEM_BOND_UDEF_STEREO_COUNT>
0

> <PUBCHEM_ISOTOPIC_ATOM_COUNT>
0

> <PUBCHEM_COMPONENT_COUNT>
1

> <PUBCHEM_CACTVS_TAUTO_COUNT>
-1

> <PUBCHEM_COORDINATE_TYPE>
1
5
255

> <PUBCHEM_BONDANNOTATIONS>
10  12  8
10  17  8
12  16  8
13  18  8
14  18  8
16  19  8
17  20  8
19  20  8
3  26  5
4  7  8
4  9  8
7  13  8
9  14  8

$$$$
