127036932
  -OEChem-09292322362D

 38 39  0     0  0  0  0  0  0999 V2000
    2.0000   -0.9785    0.0000 Cl  0  0  0  0  0  0  0  0  0  0  0  0
    7.1441    0.9335    0.0000 N   0  0  0  0  0  0  0  0  0  0  0  0
    5.5443   -2.7833    0.0000 N   0  0  0  0  0  0  0  0  0  0  0  0
    5.8550   -0.2233    0.0000 C   0  0  0  0  0  0  0  0  0  0  0  0
    6.8335   -0.0171    0.0000 C   0  0  0  0  0  0  0  0  0  0  0  0
    5.5443   -1.1738    0.0000 C   0  0  0  0  0  0  0  0  0  0  0  0
    4.5981   -1.4785    0.0000 C   0  0  0  0  0  0  0  0  0  0  0  0
    4.5981   -2.4785    0.0000 C   0  0  0  0  0  0  0  0  0  0  0  0
    6.1279   -1.9785    0.0000 C   0  0  0  0  0  0  0  0  0  0  0  0
    8.1226    1.1397    0.0000 C   0  0  0  0  0  0  0  0  0  0  0  0
    6.4763    1.6778    0.0000 C   0  0  0  0  0  0  0  0  0  0  0  0
    3.7320   -0.9785    0.0000 C   0  0  0  0  0  0  0  0  0  0  0  0
    3.7320   -2.9785    0.0000 C   0  0  0  0  0  0  0  0  0  0  0  0
    2.8660   -1.4785    0.0000 C   0  0  0  0  0  0  0  0  0  0  0  0
    2.8660   -2.4785    0.0000 C   0  0  0  0  0  0  0  0  0  0  0  0
    8.4333    2.0902    0.0000 C   0  0  0  0  0  0  0  0  0  0  0  0
    6.7870    2.6283    0.0000 C   0  0  0  0  0  0  0  0  0  0  0  0
    9.4118    2.2964    0.0000 C   0  0  0  0  0  0  0  0  0  0  0  0
    6.1191    3.3726    0.0000 C   0  0  0  0  0  0  0  0  0  0  0  0
    5.8344    0.3964    0.0000 H   0  0  0  0  0  0  0  0  0  0  0  0
    5.2411   -0.1359    0.0000 H   0  0  0  0  0  0  0  0  0  0  0  0
    6.8540   -0.6367    0.0000 H   0  0  0  0  0  0  0  0  0  0  0  0
    7.4473   -0.1044    0.0000 H   0  0  0  0  0  0  0  0  0  0  0  0
    6.7479   -1.9785    0.0000 H   0  0  0  0  0  0  0  0  0  0  0  0
    8.1432    0.5200    0.0000 H   0  0  0  0  0  0  0  0  0  0  0  0
    8.7364    1.0523    0.0000 H   0  0  0  0  0  0  0  0  0  0  0  0
    5.9294    1.9698    0.0000 H   0  0  0  0  0  0  0  0  0  0  0  0
    6.0937    1.1899    0.0000 H   0  0  0  0  0  0  0  0  0  0  0  0
    5.7369   -3.3726    0.0000 H   0  0  0  0  0  0  0  0  0  0  0  0
    3.7320   -0.3585    0.0000 H   0  0  0  0  0  0  0  0  0  0  0  0
    3.7320   -3.5985    0.0000 H   0  0  0  0  0  0  0  0  0  0  0  0
    2.3291   -2.7885    0.0000 H   0  0  0  0  0  0  0  0  0  0  0  0
    8.0192    2.5517    0.0000 H   0  0  0  0  0  0  0  0  0  0  0  0
    7.3936    2.7561    0.0000 H   0  0  0  0  0  0  0  0  0  0  0  0
    9.8259    1.8350    0.0000 H   0  0  0  0  0  0  0  0  0  0  0  0
    9.6044    2.8857    0.0000 H   0  0  0  0  0  0  0  0  0  0  0  0
    6.3117    3.9619    0.0000 H   0  0  0  0  0  0  0  0  0  0  0  0
    5.5124    3.2447    0.0000 H   0  0  0  0  0  0  0  0  0  0  0  0
  1 14  1  0  0  0  0
  2  5  1  0  0  0  0
  2 10  1  0  0  0  0
  2 11  1  0  0  0  0
  3  8  1  0  0  0  0
  3  9  1  0  0  0  0
  3 29  1  0  0  0  0
  4  5  1  0  0  0  0
  4  6  1  0  0  0  0
  4 20  1  0  0  0  0
  4 21  1  0  0  0  0
  5 22  1  0  0  0  0
  5 23  1  0  0  0  0
  6  7  1  0  0  0  0
  6  9  2  0  0  0  0
  7  8  2  0  0  0  0
  7 12  1  0  0  0  0
  8 13  1  0  0  0  0
  9 24  1  0  0  0  0
 10 16  1  0  0  0  0
 10 25  1  0  0  0  0
 10 26  1  0  0  0  0
 11 17  1  0  0  0  0
 11 27  1  0  0  0  0
 11 28  1  0  0  0  0
 12 14  2  0  0  0  0
 12 30  1  0  0  0  0
 13 15  2  0  0  0  0
 13 31  1  0  0  0  0
 14 15  1  0  0  0  0
 15 32  1  0  0  0  0
 16 18  2  0  0  0  0
 16 33  1  0  0  0  0
 17 19  2  0  0  0  0
 17 34  1  0  0  0  0
 18 35  1  0  0  0  0
 18 36  1  0  0  0  0
 19 37  1  0  0  0  0
 19 38  1  0  0  0  0
M  END
> <PUBCHEM_COMPOUND_CID>
127036932

> <PUBCHEM_COMPOUND_CANONICALIZED>
1

> <PUBCHEM_CACTVS_COMPLEXITY>
295

> <PUBCHEM_CACTVS_HBOND_ACCEPTOR>
1

> <PUBCHEM_CACTVS_HBOND_DONOR>
1

> <PUBCHEM_CACTVS_ROTATABLE_BOND>
7

> <PUBCHEM_CACTVS_SUBSKEYS>
AAADceB7AAAEAAAAAAAAAAAAAAAAAWAAAAAwAAAAAAAAAFgB8AAAHAIQAAAADArBHiQ8wPPJkACgAzRnRACCgCAxByAI2aA4ZpgIIOLBk5GEIAhgkADIyAcQgMAOgABAIAACAAAAAIBAAAQAAAAAAAAAAA==

> <PUBCHEM_IUPAC_OPENEYE_NAME>
N-allyl-N-[2-(5-chloro-1H-indol-3-yl)ethyl]prop-2-en-1-amine

> <PUBCHEM_IUPAC_CAS_NAME>
N-[2-(5-chloro-1H-indol-3-yl)ethyl]-N-prop-2-enyl-2-propen-1-amine

> <PUBCHEM_IUPAC_NAME_MARKUP>
<I>N</I>-[2-(5-chloro-1<I>H</I>-indol-3-yl)ethyl]-<I>N</I>-prop-2-enylprop-2-en-1-amine

> <PUBCHEM_IUPAC_NAME>
N-[2-(5-chloro-1H-indol-3-yl)ethyl]-N-prop-2-enylprop-2-en-1-amine

> <PUBCHEM_IUPAC_SYSTEMATIC_NAME>
N-[2-(5-chloranyl-1H-indol-3-yl)ethyl]-N-prop-2-enyl-prop-2-en-1-amine

> <PUBCHEM_IUPAC_TRADITIONAL_NAME>
diallyl-[2-(5-chloro-1H-indol-3-yl)ethyl]amine

> <PUBCHEM_IUPAC_INCHI>
InChI=1S/C16H19ClN2/c1-3-8-19(9-4-2)10-7-13-12-18-16-6-5-14(17)11-15(13)16/h3-6,11-12,18H,1-2,7-10H2

> <PUBCHEM_IUPAC_INCHIKEY>
XRJGWSMTLAFHBN-UHFFFAOYSA-N

> <PUBCHEM_XLOGP3>
3.5

> <PUBCHEM_EXACT_MASS>
274.1236763

> <PUBCHEM_MOLECULAR_FORMULA>
C16H19ClN2

> <PUBCHEM_MOLECULAR_WEIGHT>
274.79

> <PUBCHEM_OPENEYE_CAN_SMILES>
C=CCN(CCC1=CNC2=C1C=C(C=C2)Cl)CC=C

> <PUBCHEM_OPENEYE_ISO_SMILES>
C=CCN(CCC1=CNC2=C1C=C(C=C2)Cl)CC=C

> <PUBCHEM_CACTVS_TPSA>
19

> <PUBCHEM_MONOISOTOPIC_WEIGHT>
274.1236763

> <PUBCHEM_TOTAL_CHARGE>
0

> <PUBCHEM_HEAVY_ATOM_COUNT>
19

> <PUBCHEM_ATOM_DEF_STEREO_COUNT>
0

> <PUBCHEM_ATOM_UDEF_STEREO_COUNT>
0

> <PUBCHEM_BOND_DEF_STEREO_COUNT>
0

> <PUBCHEM_BOND_UDEF_STEREO_COUNT>
0

> <PUBCHEM_ISOTOPIC_ATOM_COUNT>
0

> <PUBCHEM_COMPONENT_COUNT>
1

> <PUBCHEM_CACTVS_TAUTO_COUNT>
-1

> <PUBCHEM_COORDINATE_TYPE>
1
5
255

> <PUBCHEM_BONDANNOTATIONS>
12  14  8
13  15  8
14  15  8
3  8  8
3  9  8
6  7  8
6  9  8
7  12  8
7  8  8
8  13  8

$$$$
