11570471
  -OEChem-09292322242D

 74 77  0     0  0  0  0  0  0999 V2000
    6.3555    5.2627    0.0000 Br  0  0  0  0  0  0  0  0  0  0  0  0
    9.7844   -5.7942    0.0000 O   0  0  0  0  0  0  0  0  0  0  0  0
    4.5883    1.2058    0.0000 O   0  0  0  0  0  0  0  0  0  0  0  0
    8.0524   -2.7942    0.0000 N   0  0  0  0  0  0  0  0  0  0  0  0
    8.0524   -4.7942    0.0000 N   0  0  0  0  0  0  0  0  0  0  0  0
    6.3203    1.2058    0.0000 N   0  0  0  0  0  0  0  0  0  0  0  0
    4.9543    4.2446    0.0000 N   0  0  0  0  0  0  0  0  0  0  0  0
    6.2633    3.2935    0.0000 N   0  0  0  0  0  0  0  0  0  0  0  0
    5.9543    4.2446    0.0000 N   0  0  0  0  0  0  0  0  0  0  0  0
    8.9184   -3.2942    0.0000 C   0  0  0  0  0  0  0  0  0  0  0  0
    7.1863   -3.2942    0.0000 C   0  0  0  0  0  0  0  0  0  0  0  0
    8.9184   -4.2942    0.0000 C   0  0  0  0  0  0  0  0  0  0  0  0
    7.1863   -4.2942    0.0000 C   0  0  0  0  0  0  0  0  0  0  0  0
    8.0524   -1.7942    0.0000 C   0  0  0  0  0  0  0  0  0  0  0  0
    7.1863   -1.2942    0.0000 C   0  0  0  0  0  0  0  0  0  0  0  0
    8.0524   -5.7942    0.0000 C   0  0  0  0  0  0  0  0  0  0  0  0
    7.1863   -0.2942    0.0000 C   0  0  0  0  0  0  0  0  0  0  0  0
    6.3203    0.2058    0.0000 C   0  0  0  0  0  0  0  0  0  0  0  0
    8.9184   -6.2942    0.0000 C   0  0  0  0  0  0  0  0  0  0  0  0
    7.1863   -6.2942    0.0000 C   0  0  0  0  0  0  0  0  0  0  0  0
    8.9184   -7.2942    0.0000 C   0  0  0  0  0  0  0  0  0  0  0  0
    7.1863   -7.2942    0.0000 C   0  0  0  0  0  0  0  0  0  0  0  0
    8.0524   -7.7942    0.0000 C   0  0  0  0  0  0  0  0  0  0  0  0
    5.4543    1.7058    0.0000 C   0  0  0  0  0  0  0  0  0  0  0  0
    4.6453    3.2935    0.0000 C   0  0  0  0  0  0  0  0  0  0  0  0
    5.4543    2.7058    0.0000 C   0  0  0  0  0  0  0  0  0  0  0  0
    3.6942    2.9845    0.0000 C   0  0  0  0  0  0  0  0  0  0  0  0
    2.9511    3.6536    0.0000 C   0  0  0  0  0  0  0  0  0  0  0  0
    4.3665    5.0536    0.0000 C   0  0  0  0  0  0  0  0  0  0  0  0
   10.6504   -6.2942    0.0000 C   0  0  0  0  0  0  0  0  0  0  0  0
    4.7732    5.9672    0.0000 C   0  0  0  0  0  0  0  0  0  0  0  0
    2.0000    3.3446    0.0000 C   0  0  0  0  0  0  0  0  0  0  0  0
    5.7678    6.0717    0.0000 C   0  0  0  0  0  0  0  0  0  0  0  0
    4.1854    6.7762    0.0000 C   0  0  0  0  0  0  0  0  0  0  0  0
    6.1745    6.9852    0.0000 C   0  0  0  0  0  0  0  0  0  0  0  0
    4.5922    7.6897    0.0000 C   0  0  0  0  0  0  0  0  0  0  0  0
    5.5867    7.7942    0.0000 C   0  0  0  0  0  0  0  0  0  0  0  0
    9.5290   -3.4019    0.0000 H   0  0  0  0  0  0  0  0  0  0  0  0
    9.1304   -2.7116    0.0000 H   0  0  0  0  0  0  0  0  0  0  0  0
    6.9743   -2.7116    0.0000 H   0  0  0  0  0  0  0  0  0  0  0  0
    6.5757   -3.4019    0.0000 H   0  0  0  0  0  0  0  0  0  0  0  0
    9.1304   -4.8769    0.0000 H   0  0  0  0  0  0  0  0  0  0  0  0
    9.5290   -4.1866    0.0000 H   0  0  0  0  0  0  0  0  0  0  0  0
    6.5757   -4.1866    0.0000 H   0  0  0  0  0  0  0  0  0  0  0  0
    6.9743   -4.8769    0.0000 H   0  0  0  0  0  0  0  0  0  0  0  0
    8.6629   -1.9019    0.0000 H   0  0  0  0  0  0  0  0  0  0  0  0
    8.2644   -1.2116    0.0000 H   0  0  0  0  0  0  0  0  0  0  0  0
    6.5757   -1.1866    0.0000 H   0  0  0  0  0  0  0  0  0  0  0  0
    6.9743   -1.8769    0.0000 H   0  0  0  0  0  0  0  0  0  0  0  0
    7.7969   -0.4019    0.0000 H   0  0  0  0  0  0  0  0  0  0  0  0
    7.3984    0.2884    0.0000 H   0  0  0  0  0  0  0  0  0  0  0  0
    5.7097    0.3134    0.0000 H   0  0  0  0  0  0  0  0  0  0  0  0
    6.1082   -0.3769    0.0000 H   0  0  0  0  0  0  0  0  0  0  0  0
    6.6494   -5.9842    0.0000 H   0  0  0  0  0  0  0  0  0  0  0  0
    6.8572    1.5158    0.0000 H   0  0  0  0  0  0  0  0  0  0  0  0
    9.4553   -7.6042    0.0000 H   0  0  0  0  0  0  0  0  0  0  0  0
    6.6494   -7.6042    0.0000 H   0  0  0  0  0  0  0  0  0  0  0  0
    8.0524   -8.4142    0.0000 H   0  0  0  0  0  0  0  0  0  0  0  0
    3.2056    2.6028    0.0000 H   0  0  0  0  0  0  0  0  0  0  0  0
    3.9853    2.4371    0.0000 H   0  0  0  0  0  0  0  0  0  0  0  0
    3.4396    4.0354    0.0000 H   0  0  0  0  0  0  0  0  0  0  0  0
    2.6600    4.2011    0.0000 H   0  0  0  0  0  0  0  0  0  0  0  0
    3.8525    5.4003    0.0000 H   0  0  0  0  0  0  0  0  0  0  0  0
    3.9358    4.6076    0.0000 H   0  0  0  0  0  0  0  0  0  0  0  0
   10.3404   -6.8312    0.0000 H   0  0  0  0  0  0  0  0  0  0  0  0
   11.1874   -6.6042    0.0000 H   0  0  0  0  0  0  0  0  0  0  0  0
   10.9604   -5.7573    0.0000 H   0  0  0  0  0  0  0  0  0  0  0  0
    1.8084    3.9343    0.0000 H   0  0  0  0  0  0  0  0  0  0  0  0
    1.4103    3.1530    0.0000 H   0  0  0  0  0  0  0  0  0  0  0  0
    2.1916    2.7550    0.0000 H   0  0  0  0  0  0  0  0  0  0  0  0
    3.5688    6.7114    0.0000 H   0  0  0  0  0  0  0  0  0  0  0  0
    6.7911    7.0500    0.0000 H   0  0  0  0  0  0  0  0  0  0  0  0
    4.2278    8.1913    0.0000 H   0  0  0  0  0  0  0  0  0  0  0  0
    5.8389    8.3606    0.0000 H   0  0  0  0  0  0  0  0  0  0  0  0
  1 33  1  0  0  0  0
  2 19  1  0  0  0  0
  2 30  1  0  0  0  0
  3 24  2  0  0  0  0
  4 10  1  0  0  0  0
  4 11  1  0  0  0  0
  4 14  1  0  0  0  0
  5 12  1  0  0  0  0
  5 13  1  0  0  0  0
  5 16  1  0  0  0  0
  6 18  1  0  0  0  0
  6 24  1  0  0  0  0
  6 55  1  0  0  0  0
  7  9  1  0  0  0  0
  7 25  1  0  0  0  0
  7 29  1  0  0  0  0
  8  9  2  0  0  0  0
  8 26  1  0  0  0  0
 10 12  1  0  0  0  0
 10 38  1  0  0  0  0
 10 39  1  0  0  0  0
 11 13  1  0  0  0  0
 11 40  1  0  0  0  0
 11 41  1  0  0  0  0
 12 42  1  0  0  0  0
 12 43  1  0  0  0  0
 13 44  1  0  0  0  0
 13 45  1  0  0  0  0
 14 15  1  0  0  0  0
 14 46  1  0  0  0  0
 14 47  1  0  0  0  0
 15 17  1  0  0  0  0
 15 48  1  0  0  0  0
 15 49  1  0  0  0  0
 16 19  1  0  0  0  0
 16 20  2  0  0  0  0
 17 18  1  0  0  0  0
 17 50  1  0  0  0  0
 17 51  1  0  0  0  0
 18 52  1  0  0  0  0
 18 53  1  0  0  0  0
 19 21  2  0  0  0  0
 20 22  1  0  0  0  0
 20 54  1  0  0  0  0
 21 23  1  0  0  0  0
 21 56  1  0  0  0  0
 22 23  2  0  0  0  0
 22 57  1  0  0  0  0
 23 58  1  0  0  0  0
 24 26  1  0  0  0  0
 25 26  2  0  0  0  0
 25 27  1  0  0  0  0
 27 28  1  0  0  0  0
 27 59  1  0  0  0  0
 27 60  1  0  0  0  0
 28 32  1  0  0  0  0
 28 61  1  0  0  0  0
 28 62  1  0  0  0  0
 29 31  1  0  0  0  0
 29 63  1  0  0  0  0
 29 64  1  0  0  0  0
 30 65  1  0  0  0  0
 30 66  1  0  0  0  0
 30 67  1  0  0  0  0
 31 33  1  0  0  0  0
 31 34  2  0  0  0  0
 32 68  1  0  0  0  0
 32 69  1  0  0  0  0
 32 70  1  0  0  0  0
 33 35  2  0  0  0  0
 34 36  1  0  0  0  0
 34 71  1  0  0  0  0
 35 37  1  0  0  0  0
 35 72  1  0  0  0  0
 36 37  2  0  0  0  0
 36 73  1  0  0  0  0
 37 74  1  0  0  0  0
M  END
> <PUBCHEM_COMPOUND_CID>
11570471

> <PUBCHEM_COMPOUND_CANONICALIZED>
1

> <PUBCHEM_CACTVS_COMPLEXITY>
679

> <PUBCHEM_CACTVS_HBOND_ACCEPTOR>
6

> <PUBCHEM_CACTVS_HBOND_DONOR>
1

> <PUBCHEM_CACTVS_ROTATABLE_BOND>
12

> <PUBCHEM_CACTVS_SUBSKEYS>
AAADcfB7sAAAEAAAAAAAAAAAAAAAAWAAAAA8YIAAAAAAAAAB0AAAHgBYAAABrAzBngYyxpPIBACqAyVyVACCDAQnsgQY2IG/fOgOZjrE8ZuVMahk1hHY61eYyAAOAAAAAAAAkAAAAAAAAAEgAAAAAAAAAA==

> <PUBCHEM_IUPAC_OPENEYE_NAME>
1-[(2-bromophenyl)methyl]-N-[4-[4-(2-methoxyphenyl)piperazin-1-yl]butyl]-5-propyl-triazole-4-carboxamide

> <PUBCHEM_IUPAC_CAS_NAME>
1-[(2-bromophenyl)methyl]-N-[4-[4-(2-methoxyphenyl)-1-piperazinyl]butyl]-5-propyl-4-triazolecarboxamide

> <PUBCHEM_IUPAC_NAME_MARKUP>
1-[(2-bromophenyl)methyl]-<I>N</I>-[4-[4-(2-methoxyphenyl)piperazin-1-yl]butyl]-5-propyltriazole-4-carboxamide

> <PUBCHEM_IUPAC_NAME>
1-[(2-bromophenyl)methyl]-N-[4-[4-(2-methoxyphenyl)piperazin-1-yl]butyl]-5-propyltriazole-4-carboxamide

> <PUBCHEM_IUPAC_SYSTEMATIC_NAME>
1-[(2-bromophenyl)methyl]-N-[4-[4-(2-methoxyphenyl)piperazin-1-yl]butyl]-5-propyl-1,2,3-triazole-4-carboxamide

> <PUBCHEM_IUPAC_TRADITIONAL_NAME>
1-(2-bromobenzyl)-N-[4-[4-(2-methoxyphenyl)piperazino]butyl]-5-propyl-triazole-4-carboxamide

> <PUBCHEM_IUPAC_INCHI>
InChI=1S/C28H37BrN6O2/c1-3-10-25-27(31-32-35(25)21-22-11-4-5-12-23(22)29)28(36)30-15-8-9-16-33-17-19-34(20-18-33)24-13-6-7-14-26(24)37-2/h4-7,11-14H,3,8-10,15-21H2,1-2H3,(H,30,36)

> <PUBCHEM_IUPAC_INCHIKEY>
OCLIVVKGXAOVNC-UHFFFAOYSA-N

> <PUBCHEM_XLOGP3_AA>
5.1

> <PUBCHEM_EXACT_MASS>
568.21614

> <PUBCHEM_MOLECULAR_FORMULA>
C28H37BrN6O2

> <PUBCHEM_MOLECULAR_WEIGHT>
569.5

> <PUBCHEM_OPENEYE_CAN_SMILES>
CCCC1=C(N=NN1CC2=CC=CC=C2Br)C(=O)NCCCCN3CCN(CC3)C4=CC=CC=C4OC

> <PUBCHEM_OPENEYE_ISO_SMILES>
CCCC1=C(N=NN1CC2=CC=CC=C2Br)C(=O)NCCCCN3CCN(CC3)C4=CC=CC=C4OC

> <PUBCHEM_CACTVS_TPSA>
75.5

> <PUBCHEM_MONOISOTOPIC_WEIGHT>
568.21614

> <PUBCHEM_TOTAL_CHARGE>
0

> <PUBCHEM_HEAVY_ATOM_COUNT>
37

> <PUBCHEM_ATOM_DEF_STEREO_COUNT>
0

> <PUBCHEM_ATOM_UDEF_STEREO_COUNT>
0

> <PUBCHEM_BOND_DEF_STEREO_COUNT>
0

> <PUBCHEM_BOND_UDEF_STEREO_COUNT>
0

> <PUBCHEM_ISOTOPIC_ATOM_COUNT>
0

> <PUBCHEM_COMPONENT_COUNT>
1

> <PUBCHEM_CACTVS_TAUTO_COUNT>
-1

> <PUBCHEM_COORDINATE_TYPE>
1
5
255

> <PUBCHEM_BONDANNOTATIONS>
16  19  8
16  20  8
19  21  8
20  22  8
21  23  8
22  23  8
25  26  8
31  33  8
31  34  8
33  35  8
34  36  8
35  37  8
36  37  8
7  25  8
7  9  8
8  26  8
8  9  8

$$$$
