168287508
  -OEChem-09292322442D

 57 59  0     0  0  0  0  0  0999 V2000
    4.5981    4.9050    0.0000 Cl  0  0  0  0  0  0  0  0  0  0  0  0
    4.5981    6.9050    0.0000 Cl  0  0  0  0  0  0  0  0  0  0  0  0
    2.8660    1.9050    0.0000 N   0  0  0  0  0  0  0  0  0  0  0  0
    2.8660    3.9050    0.0000 N   0  0  0  0  0  0  0  0  0  0  0  0
    5.4641   -3.5950    0.0000 N   0  0  0  0  0  0  0  0  0  0  0  0
    6.3301   -5.0950    0.0000 N   0  0  0  0  0  0  0  0  0  0  0  0
    7.1962   -3.5950    0.0000 N   0  0  0  0  0  0  0  0  0  0  0  0
    8.0622   -5.0950    0.0000 N   0  0  0  0  0  0  0  0  0  0  0  0
    7.1962   -6.5950    0.0000 N   0  0  0  0  0  0  0  0  0  0  0  0
    8.9282   -3.5950    0.0000 N   0  0  0  0  0  0  0  0  0  0  0  0
    3.7320    2.4050    0.0000 C   0  0  0  0  0  0  0  0  0  0  0  0
    2.0000    2.4050    0.0000 C   0  0  0  0  0  0  0  0  0  0  0  0
    2.8660    0.9050    0.0000 C   0  0  0  0  0  0  0  0  0  0  0  0
    3.7320    3.4050    0.0000 C   0  0  0  0  0  0  0  0  0  0  0  0
    2.0000    3.4050    0.0000 C   0  0  0  0  0  0  0  0  0  0  0  0
    3.7320    0.4050    0.0000 C   0  0  0  0  0  0  0  0  0  0  0  0
    3.7320   -0.5950    0.0000 C   0  0  0  0  0  0  0  0  0  0  0  0
    4.5981   -1.0950    0.0000 C   0  0  0  0  0  0  0  0  0  0  0  0
    2.8660    4.9050    0.0000 C   0  0  0  0  0  0  0  0  0  0  0  0
    4.5981   -2.0950    0.0000 C   0  0  0  0  0  0  0  0  0  0  0  0
    3.7320    5.4050    0.0000 C   0  0  0  0  0  0  0  0  0  0  0  0
    2.0000    5.4050    0.0000 C   0  0  0  0  0  0  0  0  0  0  0  0
    5.4641   -2.5950    0.0000 C   0  0  0  0  0  0  0  0  0  0  0  0
    3.7320    6.4050    0.0000 C   0  0  0  0  0  0  0  0  0  0  0  0
    2.0000    6.4050    0.0000 C   0  0  0  0  0  0  0  0  0  0  0  0
    2.8660    6.9050    0.0000 C   0  0  0  0  0  0  0  0  0  0  0  0
    6.3301   -4.0950    0.0000 C   0  0  0  0  0  0  0  0  0  0  0  0
    7.1962   -5.5950    0.0000 C   0  0  0  0  0  0  0  0  0  0  0  0
    8.0622   -4.0950    0.0000 C   0  0  0  0  0  0  0  0  0  0  0  0
    3.9441    1.8224    0.0000 H   0  0  0  0  0  0  0  0  0  0  0  0
    4.3426    2.5127    0.0000 H   0  0  0  0  0  0  0  0  0  0  0  0
    1.3894    2.5127    0.0000 H   0  0  0  0  0  0  0  0  0  0  0  0
    1.7880    1.8224    0.0000 H   0  0  0  0  0  0  0  0  0  0  0  0
    2.2554    1.0127    0.0000 H   0  0  0  0  0  0  0  0  0  0  0  0
    2.6540    0.3224    0.0000 H   0  0  0  0  0  0  0  0  0  0  0  0
    4.3426    3.2973    0.0000 H   0  0  0  0  0  0  0  0  0  0  0  0
    3.9441    3.9876    0.0000 H   0  0  0  0  0  0  0  0  0  0  0  0
    1.7880    3.9876    0.0000 H   0  0  0  0  0  0  0  0  0  0  0  0
    1.3894    3.2973    0.0000 H   0  0  0  0  0  0  0  0  0  0  0  0
    4.3426    0.2973    0.0000 H   0  0  0  0  0  0  0  0  0  0  0  0
    3.9441    0.9876    0.0000 H   0  0  0  0  0  0  0  0  0  0  0  0
    3.1215   -0.4873    0.0000 H   0  0  0  0  0  0  0  0  0  0  0  0
    3.5200   -1.1776    0.0000 H   0  0  0  0  0  0  0  0  0  0  0  0
    5.2087   -1.2027    0.0000 H   0  0  0  0  0  0  0  0  0  0  0  0
    4.8101   -0.5124    0.0000 H   0  0  0  0  0  0  0  0  0  0  0  0
    3.9875   -1.9873    0.0000 H   0  0  0  0  0  0  0  0  0  0  0  0
    4.3860   -2.6776    0.0000 H   0  0  0  0  0  0  0  0  0  0  0  0
    1.4631    5.0950    0.0000 H   0  0  0  0  0  0  0  0  0  0  0  0
    6.0747   -2.7027    0.0000 H   0  0  0  0  0  0  0  0  0  0  0  0
    5.6762   -2.0124    0.0000 H   0  0  0  0  0  0  0  0  0  0  0  0
    1.4631    6.7150    0.0000 H   0  0  0  0  0  0  0  0  0  0  0  0
    4.9272   -3.9050    0.0000 H   0  0  0  0  0  0  0  0  0  0  0  0
    2.8660    7.5250    0.0000 H   0  0  0  0  0  0  0  0  0  0  0  0
    6.6592   -6.9050    0.0000 H   0  0  0  0  0  0  0  0  0  0  0  0
    7.7331   -6.9050    0.0000 H   0  0  0  0  0  0  0  0  0  0  0  0
    9.4651   -3.9050    0.0000 H   0  0  0  0  0  0  0  0  0  0  0  0
    8.9282   -2.9750    0.0000 H   0  0  0  0  0  0  0  0  0  0  0  0
  1 21  1  0  0  0  0
  2 24  1  0  0  0  0
  3 11  1  0  0  0  0
  3 12  1  0  0  0  0
  3 13  1  0  0  0  0
  4 14  1  0  0  0  0
  4 15  1  0  0  0  0
  4 19  1  0  0  0  0
  5 23  1  0  0  0  0
  5 27  1  0  0  0  0
  5 52  1  0  0  0  0
  6 27  2  0  0  0  0
  6 28  1  0  0  0  0
  7 27  1  0  0  0  0
  7 29  2  0  0  0  0
  8 28  2  0  0  0  0
  8 29  1  0  0  0  0
  9 28  1  0  0  0  0
  9 54  1  0  0  0  0
  9 55  1  0  0  0  0
 10 29  1  0  0  0  0
 10 56  1  0  0  0  0
 10 57  1  0  0  0  0
 11 14  1  0  0  0  0
 11 30  1  0  0  0  0
 11 31  1  0  0  0  0
 12 15  1  0  0  0  0
 12 32  1  0  0  0  0
 12 33  1  0  0  0  0
 13 16  1  0  0  0  0
 13 34  1  0  0  0  0
 13 35  1  0  0  0  0
 14 36  1  0  0  0  0
 14 37  1  0  0  0  0
 15 38  1  0  0  0  0
 15 39  1  0  0  0  0
 16 17  1  0  0  0  0
 16 40  1  0  0  0  0
 16 41  1  0  0  0  0
 17 18  1  0  0  0  0
 17 42  1  0  0  0  0
 17 43  1  0  0  0  0
 18 20  1  0  0  0  0
 18 44  1  0  0  0  0
 18 45  1  0  0  0  0
 19 21  2  0  0  0  0
 19 22  1  0  0  0  0
 20 23  1  0  0  0  0
 20 46  1  0  0  0  0
 20 47  1  0  0  0  0
 21 24  1  0  0  0  0
 22 25  2  0  0  0  0
 22 48  1  0  0  0  0
 23 49  1  0  0  0  0
 23 50  1  0  0  0  0
 24 26  2  0  0  0  0
 25 26  1  0  0  0  0
 25 51  1  0  0  0  0
 26 53  1  0  0  0  0
M  END
> <PUBCHEM_COMPOUND_CID>
168287508

> <PUBCHEM_COMPOUND_CANONICALIZED>
1

> <PUBCHEM_CACTVS_COMPLEXITY>
456

> <PUBCHEM_CACTVS_HBOND_ACCEPTOR>
8

> <PUBCHEM_CACTVS_HBOND_DONOR>
3

> <PUBCHEM_CACTVS_ROTATABLE_BOND>
9

> <PUBCHEM_CACTVS_SUBSKEYS>
AAADceB7wAAGAAAAAAAAAAAAAAAAAAAAAAA8WIAAAAAAAAABwAAAHAIQAAAACArBECQx0IfIEACgACRCZACCAAkhB4AJisAIZoiIaCLBm5HUIAhokALIyAcQAAAAAAAAAAIAABQAAAAABAAAKAAAAAAAAA==

> <PUBCHEM_IUPAC_OPENEYE_NAME>
N2-[6-[4-(2,3-dichlorophenyl)piperazin-1-yl]hexyl]-1,3,5-triazine-2,4,6-triamine

> <PUBCHEM_IUPAC_CAS_NAME>
N2-[6-[4-(2,3-dichlorophenyl)-1-piperazinyl]hexyl]-1,3,5-triazine-2,4,6-triamine

> <PUBCHEM_IUPAC_NAME_MARKUP>
2-<I>N</I>-[6-[4-(2,3-dichlorophenyl)piperazin-1-yl]hexyl]-1,3,5-triazine-2,4,6-triamine

> <PUBCHEM_IUPAC_NAME>
2-N-[6-[4-(2,3-dichlorophenyl)piperazin-1-yl]hexyl]-1,3,5-triazine-2,4,6-triamine

> <PUBCHEM_IUPAC_SYSTEMATIC_NAME>
N2-[6-[4-[2,3-bis(chloranyl)phenyl]piperazin-1-yl]hexyl]-1,3,5-triazine-2,4,6-triamine

> <PUBCHEM_IUPAC_TRADITIONAL_NAME>
(4,6-diamino-s-triazin-2-yl)-[6-[4-(2,3-dichlorophenyl)piperazino]hexyl]amine

> <PUBCHEM_IUPAC_INCHI>
InChI=1S/C19H28Cl2N8/c20-14-6-5-7-15(16(14)21)29-12-10-28(11-13-29)9-4-2-1-3-8-24-19-26-17(22)25-18(23)27-19/h5-7H,1-4,8-13H2,(H5,22,23,24,25,26,27)

> <PUBCHEM_IUPAC_INCHIKEY>
FZRJIKQGMGQNFB-UHFFFAOYSA-N

> <PUBCHEM_XLOGP3_AA>
3.9

> <PUBCHEM_EXACT_MASS>
438.1813983

> <PUBCHEM_MOLECULAR_FORMULA>
C19H28Cl2N8

> <PUBCHEM_MOLECULAR_WEIGHT>
439.4

> <PUBCHEM_OPENEYE_CAN_SMILES>
C1CN(CCN1CCCCCCNC2=NC(=NC(=N2)N)N)C3=C(C(=CC=C3)Cl)Cl

> <PUBCHEM_OPENEYE_ISO_SMILES>
C1CN(CCN1CCCCCCNC2=NC(=NC(=N2)N)N)C3=C(C(=CC=C3)Cl)Cl

> <PUBCHEM_CACTVS_TPSA>
109

> <PUBCHEM_MONOISOTOPIC_WEIGHT>
438.1813983

> <PUBCHEM_TOTAL_CHARGE>
0

> <PUBCHEM_HEAVY_ATOM_COUNT>
29

> <PUBCHEM_ATOM_DEF_STEREO_COUNT>
0

> <PUBCHEM_ATOM_UDEF_STEREO_COUNT>
0

> <PUBCHEM_BOND_DEF_STEREO_COUNT>
0

> <PUBCHEM_BOND_UDEF_STEREO_COUNT>
0

> <PUBCHEM_ISOTOPIC_ATOM_COUNT>
0

> <PUBCHEM_COMPONENT_COUNT>
1

> <PUBCHEM_CACTVS_TAUTO_COUNT>
-1

> <PUBCHEM_COORDINATE_TYPE>
1
5
255

> <PUBCHEM_BONDANNOTATIONS>
19  21  8
19  22  8
21  24  8
22  25  8
24  26  8
25  26  8
6  27  8
6  28  8
7  27  8
7  29  8
8  28  8
8  29  8

$$$$
