127049060
  -OEChem-09292322372D

 60 64  0     1  0  0  0  0  0999 V2000
   10.5572   -1.4996    0.0000 O   0  0  0  0  0  0  0  0  0  0  0  0
   10.8662    1.0695    0.0000 N   0  0  3  0  0  0  0  0  0  0  0  0
    8.2784    0.2605    0.0000 N   0  0  0  0  0  0  0  0  0  0  0  0
   11.8173   -0.2395    0.0000 N   0  0  0  0  0  0  0  0  0  0  0  0
    2.7486   -0.9716    0.0000 N   0  0  0  0  0  0  0  0  0  0  0  0
   10.2784    0.2605    0.0000 C   0  0  0  0  0  0  0  0  0  0  0  0
    9.7784    1.1265    0.0000 C   0  0  0  0  0  0  0  0  0  0  0  0
    9.7784   -0.6056    0.0000 C   0  0  0  0  0  0  0  0  0  0  0  0
    8.7784    1.1265    0.0000 C   0  0  0  0  0  0  0  0  0  0  0  0
    8.7784   -0.6056    0.0000 C   0  0  0  0  0  0  0  0  0  0  0  0
   10.8662   -0.5485    0.0000 C   0  0  0  0  0  0  0  0  0  0  0  0
   11.8173    0.7605    0.0000 C   0  0  0  0  0  0  0  0  0  0  0  0
    7.2784    0.2605    0.0000 C   0  0  0  0  0  0  0  0  0  0  0  0
   10.5572    2.0206    0.0000 C   0  0  0  0  0  0  0  0  0  0  0  0
    6.7784   -0.6056    0.0000 C   0  0  0  0  0  0  0  0  0  0  0  0
    5.7784   -0.6056    0.0000 C   0  0  0  0  0  0  0  0  0  0  0  0
    9.5790    2.2285    0.0000 C   0  0  0  0  0  0  0  0  0  0  0  0
   11.2263    2.7637    0.0000 C   0  0  0  0  0  0  0  0  0  0  0  0
    5.2784   -1.4716    0.0000 C   0  0  0  0  0  0  0  0  0  0  0  0
    9.2700    3.1795    0.0000 C   0  0  0  0  0  0  0  0  0  0  0  0
   10.9173    3.7148    0.0000 C   0  0  0  0  0  0  0  0  0  0  0  0
    4.2784   -1.4716    0.0000 C   0  0  0  0  0  0  0  0  0  0  0  0
    9.9392    3.9227    0.0000 C   0  0  0  0  0  0  0  0  0  0  0  0
    3.6948   -2.2763    0.0000 C   0  0  0  0  0  0  0  0  0  0  0  0
    3.6948   -0.6668    0.0000 C   0  0  0  0  0  0  0  0  0  0  0  0
    2.7443   -1.9656    0.0000 C   0  0  0  0  0  0  0  0  0  0  0  0
    3.9010   -3.2548    0.0000 C   0  0  0  0  0  0  0  0  0  0  0  0
    2.0000   -2.6335    0.0000 C   0  0  0  0  0  0  0  0  0  0  0  0
    3.1567   -3.9227    0.0000 C   0  0  0  0  0  0  0  0  0  0  0  0
    2.2062   -3.6120    0.0000 C   0  0  0  0  0  0  0  0  0  0  0  0
   10.3610    1.3385    0.0000 H   0  0  0  0  0  0  0  0  0  0  0  0
    9.6708    1.7371    0.0000 H   0  0  0  0  0  0  0  0  0  0  0  0
    9.6708   -1.2161    0.0000 H   0  0  0  0  0  0  0  0  0  0  0  0
   10.3610   -0.8176    0.0000 H   0  0  0  0  0  0  0  0  0  0  0  0
    8.8861    1.7371    0.0000 H   0  0  0  0  0  0  0  0  0  0  0  0
    8.1958    1.3385    0.0000 H   0  0  0  0  0  0  0  0  0  0  0  0
    8.1958   -0.8176    0.0000 H   0  0  0  0  0  0  0  0  0  0  0  0
    8.8861   -1.2161    0.0000 H   0  0  0  0  0  0  0  0  0  0  0  0
   12.4339    0.6957    0.0000 H   0  0  0  0  0  0  0  0  0  0  0  0
   11.9462    1.3669    0.0000 H   0  0  0  0  0  0  0  0  0  0  0  0
    7.3861    0.8711    0.0000 H   0  0  0  0  0  0  0  0  0  0  0  0
    6.6958    0.4725    0.0000 H   0  0  0  0  0  0  0  0  0  0  0  0
   12.3189   -0.6040    0.0000 H   0  0  0  0  0  0  0  0  0  0  0  0
    6.6708   -1.2161    0.0000 H   0  0  0  0  0  0  0  0  0  0  0  0
    7.3610   -0.8176    0.0000 H   0  0  0  0  0  0  0  0  0  0  0  0
    5.8861    0.0050    0.0000 H   0  0  0  0  0  0  0  0  0  0  0  0
    5.1958   -0.3935    0.0000 H   0  0  0  0  0  0  0  0  0  0  0  0
    9.1642    1.7677    0.0000 H   0  0  0  0  0  0  0  0  0  0  0  0
   11.8328    2.6348    0.0000 H   0  0  0  0  0  0  0  0  0  0  0  0
    5.1708   -2.0822    0.0000 H   0  0  0  0  0  0  0  0  0  0  0  0
    5.8610   -1.6836    0.0000 H   0  0  0  0  0  0  0  0  0  0  0  0
    8.6636    3.3084    0.0000 H   0  0  0  0  0  0  0  0  0  0  0  0
   11.3322    4.1755    0.0000 H   0  0  0  0  0  0  0  0  0  0  0  0
    9.7476    4.5123    0.0000 H   0  0  0  0  0  0  0  0  0  0  0  0
    3.8874   -0.0775    0.0000 H   0  0  0  0  0  0  0  0  0  0  0  0
    2.2483   -0.6054    0.0000 H   0  0  0  0  0  0  0  0  0  0  0  0
    4.4904   -3.4474    0.0000 H   0  0  0  0  0  0  0  0  0  0  0  0
    1.4107   -2.4409    0.0000 H   0  0  0  0  0  0  0  0  0  0  0  0
    3.2846   -4.5293    0.0000 H   0  0  0  0  0  0  0  0  0  0  0  0
    1.7448   -4.0261    0.0000 H   0  0  0  0  0  0  0  0  0  0  0  0
  1 11  2  0  0  0  0
  2  6  1  0  0  0  0
  2 12  1  0  0  0  0
  2 14  1  0  0  0  0
  3  9  1  0  0  0  0
  3 10  1  0  0  0  0
  3 13  1  0  0  0  0
  4 11  1  0  0  0  0
  4 12  1  0  0  0  0
  4 43  1  0  0  0  0
  5 25  1  0  0  0  0
  5 26  1  0  0  0  0
  5 56  1  0  0  0  0
  6  7  1  0  0  0  0
  6  8  1  0  0  0  0
  6 11  1  0  0  0  0
  7  9  1  0  0  0  0
  7 31  1  0  0  0  0
  7 32  1  0  0  0  0
  8 10  1  0  0  0  0
  8 33  1  0  0  0  0
  8 34  1  0  0  0  0
  9 35  1  0  0  0  0
  9 36  1  0  0  0  0
 10 37  1  0  0  0  0
 10 38  1  0  0  0  0
 12 39  1  0  0  0  0
 12 40  1  0  0  0  0
 13 15  1  0  0  0  0
 13 41  1  0  0  0  0
 13 42  1  0  0  0  0
 14 17  2  0  0  0  0
 14 18  1  0  0  0  0
 15 16  1  0  0  0  0
 15 44  1  0  0  0  0
 15 45  1  0  0  0  0
 16 19  1  0  0  0  0
 16 46  1  0  0  0  0
 16 47  1  0  0  0  0
 17 20  1  0  0  0  0
 17 48  1  0  0  0  0
 18 21  2  0  0  0  0
 18 49  1  0  0  0  0
 19 22  1  0  0  0  0
 19 50  1  0  0  0  0
 19 51  1  0  0  0  0
 20 23  2  0  0  0  0
 20 52  1  0  0  0  0
 21 23  1  0  0  0  0
 21 53  1  0  0  0  0
 22 24  1  0  0  0  0
 22 25  2  0  0  0  0
 23 54  1  0  0  0  0
 24 26  1  0  0  0  0
 24 27  2  0  0  0  0
 25 55  1  0  0  0  0
 26 28  2  0  0  0  0
 27 29  1  0  0  0  0
 27 57  1  0  0  0  0
 28 30  1  0  0  0  0
 28 58  1  0  0  0  0
 29 30  2  0  0  0  0
 29 59  1  0  0  0  0
 30 60  1  0  0  0  0
M  END
> <PUBCHEM_COMPOUND_CID>
127049060

> <PUBCHEM_COMPOUND_CANONICALIZED>
1

> <PUBCHEM_CACTVS_COMPLEXITY>
582

> <PUBCHEM_CACTVS_HBOND_ACCEPTOR>
3

> <PUBCHEM_CACTVS_HBOND_DONOR>
2

> <PUBCHEM_CACTVS_ROTATABLE_BOND>
6

> <PUBCHEM_CACTVS_SUBSKEYS>
AAADceB7oAAAAAAAAAAAAAAAAAAAAWLAAAA8YIAAAAAAAFgB9AAAHgAQAAAADIjBngQ9wPPJkACoAzV3VACCgCAxAiAI2aG4ZJiIYPLA0bGUIAhokwLIyCcUgMAOgAAAAAACAAAAAAAAAAQAAAAAAAAAAA==

> <PUBCHEM_IUPAC_OPENEYE_NAME>
8-[4-(1H-indol-3-yl)butyl]-1-phenyl-1,3,8-triazaspiro[4.5]decan-4-one

> <PUBCHEM_IUPAC_CAS_NAME>
8-[4-(1H-indol-3-yl)butyl]-1-phenyl-1,3,8-triazaspiro[4.5]decan-4-one

> <PUBCHEM_IUPAC_NAME_MARKUP>
8-[4-(1<I>H</I>-indol-3-yl)butyl]-1-phenyl-1,3,8-triazaspiro[4.5]decan-4-one

> <PUBCHEM_IUPAC_NAME>
8-[4-(1H-indol-3-yl)butyl]-1-phenyl-1,3,8-triazaspiro[4.5]decan-4-one

> <PUBCHEM_IUPAC_SYSTEMATIC_NAME>
8-[4-(1H-indol-3-yl)butyl]-1-phenyl-1,3,8-triazaspiro[4.5]decan-4-one

> <PUBCHEM_IUPAC_TRADITIONAL_NAME>
8-[4-(1H-indol-3-yl)butyl]-1-phenyl-1,3,8-triazaspiro[4.5]decan-4-one

> <PUBCHEM_IUPAC_INCHI>
InChI=1S/C25H30N4O/c30-24-25(29(19-27-24)21-9-2-1-3-10-21)13-16-28(17-14-25)15-7-6-8-20-18-26-23-12-5-4-11-22(20)23/h1-5,9-12,18,26H,6-8,13-17,19H2,(H,27,30)

> <PUBCHEM_IUPAC_INCHIKEY>
IARMAQZFHNEVDV-UHFFFAOYSA-N

> <PUBCHEM_XLOGP3_AA>
4.4

> <PUBCHEM_EXACT_MASS>
402.24196159

> <PUBCHEM_MOLECULAR_FORMULA>
C25H30N4O

> <PUBCHEM_MOLECULAR_WEIGHT>
402.5

> <PUBCHEM_OPENEYE_CAN_SMILES>
C1CN(CCC12C(=O)NCN2C3=CC=CC=C3)CCCCC4=CNC5=CC=CC=C54

> <PUBCHEM_OPENEYE_ISO_SMILES>
C1CN(CCC12C(=O)NCN2C3=CC=CC=C3)CCCCC4=CNC5=CC=CC=C54

> <PUBCHEM_CACTVS_TPSA>
51.4

> <PUBCHEM_MONOISOTOPIC_WEIGHT>
402.24196159

> <PUBCHEM_TOTAL_CHARGE>
0

> <PUBCHEM_HEAVY_ATOM_COUNT>
30

> <PUBCHEM_ATOM_DEF_STEREO_COUNT>
0

> <PUBCHEM_ATOM_UDEF_STEREO_COUNT>
0

> <PUBCHEM_BOND_DEF_STEREO_COUNT>
0

> <PUBCHEM_BOND_UDEF_STEREO_COUNT>
0

> <PUBCHEM_ISOTOPIC_ATOM_COUNT>
0

> <PUBCHEM_COMPONENT_COUNT>
1

> <PUBCHEM_CACTVS_TAUTO_COUNT>
-1

> <PUBCHEM_COORDINATE_TYPE>
1
5
255

> <PUBCHEM_BONDANNOTATIONS>
14  17  8
14  18  8
17  20  8
18  21  8
20  23  8
21  23  8
22  24  8
22  25  8
24  26  8
24  27  8
26  28  8
27  29  8
28  30  8
29  30  8
5  25  8
5  26  8

$$$$
