11269330
  -OEChem-09292322292D

 51 55  0     1  0  0  0  0  0999 V2000
    2.1374    2.6472    0.0000 Cl  0  0  0  0  0  0  0  0  0  0  0  0
    2.5932    0.6503    0.0000 O   0  0  0  0  0  0  0  0  0  0  0  0
    7.0983    2.7290    0.0000 N   0  0  3  0  0  0  0  0  0  0  0  0
    9.1495   -3.0735    0.0000 N   0  0  0  0  0  0  0  0  0  0  0  0
    6.8758    1.7541    0.0000 C   0  0  2  0  0  0  0  0  0  0  0  0
    5.9748    1.3202    0.0000 C   0  0  2  0  0  0  0  0  0  0  0  0
    7.7453    1.1807    0.0000 C   0  0  0  0  0  0  0  0  0  0  0  0
    5.8810    0.2828    0.0000 C   0  0  0  0  0  0  0  0  0  0  0  0
    7.6755    0.1414    0.0000 C   0  0  0  0  0  0  0  0  0  0  0  0
    5.0738    1.7541    0.0000 C   0  0  0  0  0  0  0  0  0  0  0  0
    6.7370   -0.3106    0.0000 C   0  0  0  0  0  0  0  0  0  0  0  0
    6.4748    3.5109    0.0000 C   0  0  0  0  0  0  0  0  0  0  0  0
    4.8513    2.7290    0.0000 C   0  0  0  0  0  0  0  0  0  0  0  0
    5.4748    3.5109    0.0000 C   0  0  0  0  0  0  0  0  0  0  0  0
    6.6643   -1.3931    0.0000 C   0  0  0  0  0  0  0  0  0  0  0  0
    8.0732    2.9516    0.0000 C   0  0  0  0  0  0  0  0  0  0  0  0
    4.8928   -0.1652    0.0000 C   0  0  0  0  0  0  0  0  0  0  0  0
    4.3213    1.0339    0.0000 C   0  0  0  0  0  0  0  0  0  0  0  0
    3.8608    3.0514    0.0000 C   0  0  0  0  0  0  0  0  0  0  0  0
    5.6868   -1.8639    0.0000 C   0  0  0  0  0  0  0  0  0  0  0  0
    4.7950   -1.2458    0.0000 C   0  0  0  0  0  0  0  0  0  0  0  0
    3.3236    1.3333    0.0000 C   0  0  0  0  0  0  0  0  0  0  0  0
    7.4927   -1.9532    0.0000 C   0  0  0  0  0  0  0  0  0  0  0  0
    3.0918    2.3488    0.0000 C   0  0  0  0  0  0  0  0  0  0  0  0
    7.4218   -2.9507    0.0000 C   0  0  0  0  0  0  0  0  0  0  0  0
    8.3920   -1.5159    0.0000 C   0  0  0  0  0  0  0  0  0  0  0  0
    8.2502   -3.5109    0.0000 C   0  0  0  0  0  0  0  0  0  0  0  0
    9.2204   -2.0760    0.0000 C   0  0  0  0  0  0  0  0  0  0  0  0
    7.6646    2.0707    0.0000 H   0  0  0  0  0  0  0  0  0  0  0  0
    5.2354    0.9009    0.0000 H   0  0  0  0  0  0  0  0  0  0  0  0
    8.3477    1.0339    0.0000 H   0  0  0  0  0  0  0  0  0  0  0  0
    7.9931    1.7490    0.0000 H   0  0  0  0  0  0  0  0  0  0  0  0
    7.8450   -0.4550    0.0000 H   0  0  0  0  0  0  0  0  0  0  0  0
    8.2921    0.2063    0.0000 H   0  0  0  0  0  0  0  0  0  0  0  0
    7.0334    3.7799    0.0000 H   0  0  0  0  0  0  0  0  0  0  0  0
    6.3368    4.1153    0.0000 H   0  0  0  0  0  0  0  0  0  0  0  0
    5.6128    4.1153    0.0000 H   0  0  0  0  0  0  0  0  0  0  0  0
    4.9162    3.7799    0.0000 H   0  0  0  0  0  0  0  0  0  0  0  0
    8.2112    2.3471    0.0000 H   0  0  0  0  0  0  0  0  0  0  0  0
    8.6777    3.0895    0.0000 H   0  0  0  0  0  0  0  0  0  0  0  0
    7.9352    3.5560    0.0000 H   0  0  0  0  0  0  0  0  0  0  0  0
    4.3873    0.1939    0.0000 H   0  0  0  0  0  0  0  0  0  0  0  0
    4.4662    0.4311    0.0000 H   0  0  0  0  0  0  0  0  0  0  0  0
    3.7298    3.6574    0.0000 H   0  0  0  0  0  0  0  0  0  0  0  0
    5.6380   -2.4820    0.0000 H   0  0  0  0  0  0  0  0  0  0  0  0
    4.2334   -1.5083    0.0000 H   0  0  0  0  0  0  0  0  0  0  0  0
    6.8643   -3.2219    0.0000 H   0  0  0  0  0  0  0  0  0  0  0  0
    8.4359   -0.8975    0.0000 H   0  0  0  0  0  0  0  0  0  0  0  0
    2.0000    0.8307    0.0000 H   0  0  0  0  0  0  0  0  0  0  0  0
    8.2063   -4.1293    0.0000 H   0  0  0  0  0  0  0  0  0  0  0  0
    9.7780   -1.8049    0.0000 H   0  0  0  0  0  0  0  0  0  0  0  0
  1 24  1  0  0  0  0
  2 22  1  0  0  0  0
  2 49  1  0  0  0  0
  3  5  1  0  0  0  0
  3 12  1  0  0  0  0
  3 16  1  0  0  0  0
  4 27  2  0  0  0  0
  4 28  1  0  0  0  0
  5  6  1  0  0  0  0
  5  7  1  0  0  0  0
  5 29  1  6  0  0  0
  6  8  1  0  0  0  0
  6 10  1  0  0  0  0
  6 30  1  1  0  0  0
  7  9  1  0  0  0  0
  7 31  1  0  0  0  0
  7 32  1  0  0  0  0
  8 11  1  0  0  0  0
  8 17  2  0  0  0  0
  9 11  1  0  0  0  0
  9 33  1  0  0  0  0
  9 34  1  0  0  0  0
 10 13  1  0  0  0  0
 10 18  2  0  0  0  0
 11 15  2  0  0  0  0
 12 14  1  0  0  0  0
 12 35  1  0  0  0  0
 12 36  1  0  0  0  0
 13 14  1  0  0  0  0
 13 19  2  0  0  0  0
 14 37  1  0  0  0  0
 14 38  1  0  0  0  0
 15 20  1  0  0  0  0
 15 23  1  0  0  0  0
 16 39  1  0  0  0  0
 16 40  1  0  0  0  0
 16 41  1  0  0  0  0
 17 21  1  0  0  0  0
 17 42  1  0  0  0  0
 18 22  1  0  0  0  0
 18 43  1  0  0  0  0
 19 24  1  0  0  0  0
 19 44  1  0  0  0  0
 20 21  2  0  0  0  0
 20 45  1  0  0  0  0
 21 46  1  0  0  0  0
 22 24  2  0  0  0  0
 23 25  2  0  0  0  0
 23 26  1  0  0  0  0
 25 27  1  0  0  0  0
 25 47  1  0  0  0  0
 26 28  2  0  0  0  0
 26 48  1  0  0  0  0
 27 50  1  0  0  0  0
 28 51  1  0  0  0  0
M  END
> <PUBCHEM_COMPOUND_CID>
11269330

> <PUBCHEM_COMPOUND_CANONICALIZED>
1

> <PUBCHEM_CACTVS_COMPLEXITY>
539

> <PUBCHEM_CACTVS_HBOND_ACCEPTOR>
3

> <PUBCHEM_CACTVS_HBOND_DONOR>
1

> <PUBCHEM_CACTVS_ROTATABLE_BOND>
1

> <PUBCHEM_CACTVS_SUBSKEYS>
AAADceB7IAAEAAAAAAAAAAAAAAAAAAAAAAA8YMEABYAAAADB0AAAHgIACAAADS7BmiQ+hpMIEgCgAjBnRACCgCAxJ2AI2CA+b5gIJmLDk5OEcAhkwBHI2AeQ0PMOpAADIAAQCABYAAbAACQQAAAAAAAAAA==

> <PUBCHEM_IUPAC_OPENEYE_NAME>
(6aS,13bS)-11-chloro-7-methyl-4-(4-pyridyl)-5,6,6a,8,9,13b-hexahydronaphtho[1,2-a][3]benzazepin-12-ol

> <PUBCHEM_IUPAC_CAS_NAME>
(6aS,13bS)-11-chloro-7-methyl-4-pyridin-4-yl-5,6,6a,8,9,13b-hexahydronaphtho[1,2-a][3]benzazepin-12-ol

> <PUBCHEM_IUPAC_NAME_MARKUP>
(6<I>a</I><I>S</I>,13<I>b</I><I>S</I>)-11-chloro-7-methyl-4-pyridin-4-yl-5,6,6<I>a</I>,8,9,13<I>b</I>-hexahydronaphtho[1,2-a][3]benzazepin-12-ol

> <PUBCHEM_IUPAC_NAME>
(6aS,13bS)-11-chloro-7-methyl-4-pyridin-4-yl-5,6,6a,8,9,13b-hexahydronaphtho[1,2-a][3]benzazepin-12-ol

> <PUBCHEM_IUPAC_SYSTEMATIC_NAME>
(6aS,13bS)-11-chloranyl-7-methyl-4-pyridin-4-yl-5,6,6a,8,9,13b-hexahydronaphtho[1,2-a][3]benzazepin-12-ol

> <PUBCHEM_IUPAC_TRADITIONAL_NAME>
(6aS,13bS)-11-chloro-7-methyl-4-(4-pyridyl)-5,6,6a,8,9,13b-hexahydronaphtho[1,2-a][3]benzazepin-12-ol

> <PUBCHEM_IUPAC_INCHI>
InChI=1S/C24H23ClN2O/c1-27-12-9-16-13-21(25)23(28)14-20(16)24-19-4-2-3-17(15-7-10-26-11-8-15)18(19)5-6-22(24)27/h2-4,7-8,10-11,13-14,22,24,28H,5-6,9,12H2,1H3/t22-,24+/m0/s1

> <PUBCHEM_IUPAC_INCHIKEY>
OPAOHONEUXVLNP-LADGPHEKSA-N

> <PUBCHEM_XLOGP3_AA>
5

> <PUBCHEM_EXACT_MASS>
390.1498911

> <PUBCHEM_MOLECULAR_FORMULA>
C24H23ClN2O

> <PUBCHEM_MOLECULAR_WEIGHT>
390.9

> <PUBCHEM_OPENEYE_CAN_SMILES>
CN1CCC2=CC(=C(C=C2C3C1CCC4=C(C=CC=C34)C5=CC=NC=C5)O)Cl

> <PUBCHEM_OPENEYE_ISO_SMILES>
CN1CCC2=CC(=C(C=C2[C@@H]3[C@@H]1CCC4=C(C=CC=C34)C5=CC=NC=C5)O)Cl

> <PUBCHEM_CACTVS_TPSA>
36.4

> <PUBCHEM_MONOISOTOPIC_WEIGHT>
390.1498911

> <PUBCHEM_TOTAL_CHARGE>
0

> <PUBCHEM_HEAVY_ATOM_COUNT>
28

> <PUBCHEM_ATOM_DEF_STEREO_COUNT>
2

> <PUBCHEM_ATOM_UDEF_STEREO_COUNT>
0

> <PUBCHEM_BOND_DEF_STEREO_COUNT>
0

> <PUBCHEM_BOND_UDEF_STEREO_COUNT>
0

> <PUBCHEM_ISOTOPIC_ATOM_COUNT>
0

> <PUBCHEM_COMPONENT_COUNT>
1

> <PUBCHEM_CACTVS_TAUTO_COUNT>
-1

> <PUBCHEM_COORDINATE_TYPE>
1
5
255

> <PUBCHEM_BONDANNOTATIONS>
10  13  8
10  18  8
11  15  8
13  19  8
15  20  8
17  21  8
18  22  8
19  24  8
20  21  8
22  24  8
23  25  8
23  26  8
25  27  8
26  28  8
4  27  8
4  28  8
5  29  6
6  30  5
8  11  8
8  17  8

$$$$
