50898778
  -OEChem-09292322482D

 64 67  0     0  0  0  0  0  0999 V2000
    6.3518   -4.0038    0.0000 O   0  0  0  0  0  0  0  0  0  0  0  0
    3.6613   -2.1482    0.0000 O   0  0  0  0  0  0  0  0  0  0  0  0
   11.4556    5.3518    0.0000 O   0  0  0  0  0  0  0  0  0  0  0  0
    9.7235    5.3518    0.0000 O   0  0  0  0  0  0  0  0  0  0  0  0
    7.9915    0.3518    0.0000 N   0  0  0  0  0  0  0  0  0  0  0  0
    5.3934   -2.1482    0.0000 N   0  0  0  0  0  0  0  0  0  0  0  0
    5.0274   -5.1870    0.0000 N   0  0  0  0  0  0  0  0  0  0  0  0
    6.2594   -0.6482    0.0000 C   0  0  0  0  0  0  0  0  0  0  0  0
    6.2594    0.3518    0.0000 C   0  0  0  0  0  0  0  0  0  0  0  0
    7.1254   -1.1482    0.0000 C   0  0  0  0  0  0  0  0  0  0  0  0
    7.1254    0.8518    0.0000 C   0  0  0  0  0  0  0  0  0  0  0  0
    7.9915   -0.6482    0.0000 C   0  0  0  0  0  0  0  0  0  0  0  0
    5.3934   -1.1482    0.0000 C   0  0  0  0  0  0  0  0  0  0  0  0
    8.8575    0.8518    0.0000 C   0  0  0  0  0  0  0  0  0  0  0  0
    8.8575    1.8518    0.0000 C   0  0  0  0  0  0  0  0  0  0  0  0
    9.7235    2.3518    0.0000 C   0  0  0  0  0  0  0  0  0  0  0  0
    4.5274   -3.6482    0.0000 C   0  0  0  0  0  0  0  0  0  0  0  0
    4.5274   -2.6482    0.0000 C   0  0  0  0  0  0  0  0  0  0  0  0
    5.3364   -4.2360    0.0000 C   0  0  0  0  0  0  0  0  0  0  0  0
    3.7183   -4.2360    0.0000 C   0  0  0  0  0  0  0  0  0  0  0  0
    5.7123   -5.9718    0.0000 C   0  0  0  0  0  0  0  0  0  0  0  0
    4.0274   -5.1870    0.0000 C   0  0  0  0  0  0  0  0  0  0  0  0
    9.7235    3.3518    0.0000 C   0  0  0  0  0  0  0  0  0  0  0  0
    6.7328   -5.7631    0.0000 C   0  0  0  0  0  0  0  0  0  0  0  0
    7.0547   -4.7724    0.0000 C   0  0  0  0  0  0  0  0  0  0  0  0
   10.5895    3.8518    0.0000 C   0  0  0  0  0  0  0  0  0  0  0  0
    2.7029   -4.0038    0.0000 C   0  0  0  0  0  0  0  0  0  0  0  0
    3.3424   -5.9718    0.0000 C   0  0  0  0  0  0  0  0  0  0  0  0
    2.0000   -4.7724    0.0000 C   0  0  0  0  0  0  0  0  0  0  0  0
    2.3219   -5.7631    0.0000 C   0  0  0  0  0  0  0  0  0  0  0  0
   10.5895    4.8518    0.0000 C   0  0  0  0  0  0  0  0  0  0  0  0
    5.7225   -0.3382    0.0000 H   0  0  0  0  0  0  0  0  0  0  0  0
    6.0474    0.9344    0.0000 H   0  0  0  0  0  0  0  0  0  0  0  0
    5.6488    0.2441    0.0000 H   0  0  0  0  0  0  0  0  0  0  0  0
    6.7269   -1.6232    0.0000 H   0  0  0  0  0  0  0  0  0  0  0  0
    7.5240   -1.6232    0.0000 H   0  0  0  0  0  0  0  0  0  0  0  0
    7.5240    1.3267    0.0000 H   0  0  0  0  0  0  0  0  0  0  0  0
    6.7269    1.3267    0.0000 H   0  0  0  0  0  0  0  0  0  0  0  0
    8.2035   -1.2308    0.0000 H   0  0  0  0  0  0  0  0  0  0  0  0
    8.6020   -0.5405    0.0000 H   0  0  0  0  0  0  0  0  0  0  0  0
    5.1813   -0.5656    0.0000 H   0  0  0  0  0  0  0  0  0  0  0  0
    4.7828   -1.2559    0.0000 H   0  0  0  0  0  0  0  0  0  0  0  0
    9.0695    0.2692    0.0000 H   0  0  0  0  0  0  0  0  0  0  0  0
    9.4681    0.9595    0.0000 H   0  0  0  0  0  0  0  0  0  0  0  0
    8.6454    2.4344    0.0000 H   0  0  0  0  0  0  0  0  0  0  0  0
    8.2469    1.7441    0.0000 H   0  0  0  0  0  0  0  0  0  0  0  0
    5.9303   -2.4582    0.0000 H   0  0  0  0  0  0  0  0  0  0  0  0
    9.9356    1.7692    0.0000 H   0  0  0  0  0  0  0  0  0  0  0  0
   10.3341    2.4594    0.0000 H   0  0  0  0  0  0  0  0  0  0  0  0
    5.1824   -6.2936    0.0000 H   0  0  0  0  0  0  0  0  0  0  0  0
    5.9387   -6.5490    0.0000 H   0  0  0  0  0  0  0  0  0  0  0  0
    9.5115    3.9344    0.0000 H   0  0  0  0  0  0  0  0  0  0  0  0
    9.1129    3.2441    0.0000 H   0  0  0  0  0  0  0  0  0  0  0  0
    6.7513   -6.3828    0.0000 H   0  0  0  0  0  0  0  0  0  0  0  0
    7.3466   -5.8510    0.0000 H   0  0  0  0  0  0  0  0  0  0  0  0
    7.6029   -5.0621    0.0000 H   0  0  0  0  0  0  0  0  0  0  0  0
    7.4339   -4.2819    0.0000 H   0  0  0  0  0  0  0  0  0  0  0  0
    2.5182   -3.4119    0.0000 H   0  0  0  0  0  0  0  0  0  0  0  0
   10.8016    3.2692    0.0000 H   0  0  0  0  0  0  0  0  0  0  0  0
   11.2001    3.9594    0.0000 H   0  0  0  0  0  0  0  0  0  0  0  0
    3.5408   -6.5592    0.0000 H   0  0  0  0  0  0  0  0  0  0  0  0
    1.3940   -4.6412    0.0000 H   0  0  0  0  0  0  0  0  0  0  0  0
    1.9088   -6.2254    0.0000 H   0  0  0  0  0  0  0  0  0  0  0  0
   11.4556    5.9718    0.0000 H   0  0  0  0  0  0  0  0  0  0  0  0
  1 19  1  0  0  0  0
  1 25  1  0  0  0  0
  2 18  2  0  0  0  0
  3 31  1  0  0  0  0
  3 64  1  0  0  0  0
  4 31  2  0  0  0  0
  5 11  1  0  0  0  0
  5 12  1  0  0  0  0
  5 14  1  0  0  0  0
  6 13  1  0  0  0  0
  6 18  1  0  0  0  0
  6 47  1  0  0  0  0
  7 19  1  0  0  0  0
  7 21  1  0  0  0  0
  7 22  1  0  0  0  0
  8  9  1  0  0  0  0
  8 10  1  0  0  0  0
  8 13  1  0  0  0  0
  8 32  1  0  0  0  0
  9 11  1  0  0  0  0
  9 33  1  0  0  0  0
  9 34  1  0  0  0  0
 10 12  1  0  0  0  0
 10 35  1  0  0  0  0
 10 36  1  0  0  0  0
 11 37  1  0  0  0  0
 11 38  1  0  0  0  0
 12 39  1  0  0  0  0
 12 40  1  0  0  0  0
 13 41  1  0  0  0  0
 13 42  1  0  0  0  0
 14 15  1  0  0  0  0
 14 43  1  0  0  0  0
 14 44  1  0  0  0  0
 15 16  1  0  0  0  0
 15 45  1  0  0  0  0
 15 46  1  0  0  0  0
 16 23  1  0  0  0  0
 16 48  1  0  0  0  0
 16 49  1  0  0  0  0
 17 18  1  0  0  0  0
 17 19  2  0  0  0  0
 17 20  1  0  0  0  0
 20 22  1  0  0  0  0
 20 27  2  0  0  0  0
 21 24  1  0  0  0  0
 21 50  1  0  0  0  0
 21 51  1  0  0  0  0
 22 28  2  0  0  0  0
 23 26  1  0  0  0  0
 23 52  1  0  0  0  0
 23 53  1  0  0  0  0
 24 25  1  0  0  0  0
 24 54  1  0  0  0  0
 24 55  1  0  0  0  0
 25 56  1  0  0  0  0
 25 57  1  0  0  0  0
 26 31  1  0  0  0  0
 26 59  1  0  0  0  0
 26 60  1  0  0  0  0
 27 29  1  0  0  0  0
 27 58  1  0  0  0  0
 28 30  1  0  0  0  0
 28 61  1  0  0  0  0
 29 30  2  0  0  0  0
 29 62  1  0  0  0  0
 30 63  1  0  0  0  0
M  END
> <PUBCHEM_COMPOUND_CID>
50898778

> <PUBCHEM_COMPOUND_CANONICALIZED>
1

> <PUBCHEM_CACTVS_COMPLEXITY>
608

> <PUBCHEM_CACTVS_HBOND_ACCEPTOR>
5

> <PUBCHEM_CACTVS_HBOND_DONOR>
2

> <PUBCHEM_CACTVS_ROTATABLE_BOND>
9

> <PUBCHEM_CACTVS_SUBSKEYS>
AAADcfB7OAAAAAAAAAAAAAAAAAAAAWAAAAA8WIAAAAAAAFgB8AAAHgAQCAAADQjhngYwzPPMFgCoAyXyXACCiCAlIiAI2KE8bNgMJv7E9ZuOeejm9hHI6Ue8yOCOgAAAAAACAAAAAAAAAAQAAAAAAAAAAA==

> <PUBCHEM_IUPAC_OPENEYE_NAME>
6-[4-[(3,4-dihydro-2H-[1,3]oxazino[3,2-a]indole-10-carbonylamino)methyl]-1-piperidyl]hexanoic acid

> <PUBCHEM_IUPAC_CAS_NAME>
6-[4-[[[3,4-dihydro-2H-[1,3]oxazino[3,2-a]indol-10-yl(oxo)methyl]amino]methyl]-1-piperidinyl]hexanoic acid

> <PUBCHEM_IUPAC_NAME_MARKUP>
6-[4-[(3,4-dihydro-2<I>H</I>-[1,3]oxazino[3,2-a]indole-10-carbonylamino)methyl]piperidin-1-yl]hexanoic acid

> <PUBCHEM_IUPAC_NAME>
6-[4-[(3,4-dihydro-2H-[1,3]oxazino[3,2-a]indole-10-carbonylamino)methyl]piperidin-1-yl]hexanoic acid

> <PUBCHEM_IUPAC_SYSTEMATIC_NAME>
6-[4-[(3,4-dihydro-2H-[1,3]oxazino[3,2-a]indol-10-ylcarbonylamino)methyl]piperidin-1-yl]hexanoic acid

> <PUBCHEM_IUPAC_TRADITIONAL_NAME>
6-[4-[(3,4-dihydro-2H-[1,3]oxazin[3,2-a]indole-10-carbonylamino)methyl]piperidino]hexanoic acid

> <PUBCHEM_IUPAC_INCHI>
InChI=1S/C24H33N3O4/c28-21(29)9-2-1-5-12-26-14-10-18(11-15-26)17-25-23(30)22-19-7-3-4-8-20(19)27-13-6-16-31-24(22)27/h3-4,7-8,18H,1-2,5-6,9-17H2,(H,25,30)(H,28,29)

> <PUBCHEM_IUPAC_INCHIKEY>
ODMLUIATXKBXOW-UHFFFAOYSA-N

> <PUBCHEM_XLOGP3_AA>
0.7

> <PUBCHEM_EXACT_MASS>
427.24710654

> <PUBCHEM_MOLECULAR_FORMULA>
C24H33N3O4

> <PUBCHEM_MOLECULAR_WEIGHT>
427.5

> <PUBCHEM_OPENEYE_CAN_SMILES>
C1CN2C3=CC=CC=C3C(=C2OC1)C(=O)NCC4CCN(CC4)CCCCCC(=O)O

> <PUBCHEM_OPENEYE_ISO_SMILES>
C1CN2C3=CC=CC=C3C(=C2OC1)C(=O)NCC4CCN(CC4)CCCCCC(=O)O

> <PUBCHEM_CACTVS_TPSA>
83.8

> <PUBCHEM_MONOISOTOPIC_WEIGHT>
427.24710654

> <PUBCHEM_TOTAL_CHARGE>
0

> <PUBCHEM_HEAVY_ATOM_COUNT>
31

> <PUBCHEM_ATOM_DEF_STEREO_COUNT>
0

> <PUBCHEM_ATOM_UDEF_STEREO_COUNT>
0

> <PUBCHEM_BOND_DEF_STEREO_COUNT>
0

> <PUBCHEM_BOND_UDEF_STEREO_COUNT>
0

> <PUBCHEM_ISOTOPIC_ATOM_COUNT>
0

> <PUBCHEM_COMPONENT_COUNT>
1

> <PUBCHEM_CACTVS_TAUTO_COUNT>
-1

> <PUBCHEM_COORDINATE_TYPE>
1
5
255

> <PUBCHEM_BONDANNOTATIONS>
17  19  8
17  20  8
20  22  8
20  27  8
22  28  8
27  29  8
28  30  8
29  30  8
7  19  8
7  22  8

$$$$
