45260377
  -OEChem-09292322102D

 64 66  0     1  0  0  0  0  0999 V2000
    8.6318    0.0000    0.0000 Cl  0  0  0  0  0  0  0  0  0  0  0  0
    1.7320    4.8330    0.0000 S   0  0  0  0  0  0  0  0  0  0  0  0
    0.0000    5.8330    0.0000 F   0  0  0  0  0  0  0  0  0  0  0  0
    0.3660    4.4669    0.0000 F   0  0  0  0  0  0  0  0  0  0  0  0
    1.3660    6.1990    0.0000 F   0  0  0  0  0  0  0  0  0  0  0  0
    2.5981    4.3330    0.0000 O   0  0  0  0  0  0  0  0  0  0  0  0
    1.2320    3.9669    0.0000 O   0  0  0  0  0  0  0  0  0  0  0  0
    2.2320    5.6990    0.0000 O   0  0  0  0  0  0  0  0  0  0  0  0
   12.1961    5.7921    0.0000 O   0  0  0  0  0  0  0  0  0  0  0  0
    6.9962    4.8122    0.0000 N   0  0  3  0  0  0  0  0  0  0  0  0
   11.3243    4.2955    0.0000 N   0  0  0  0  0  0  0  0  0  0  0  0
   15.8587    3.0800    0.0000 N   0  0  0  0  0  0  0  0  0  0  0  0
    6.9962    5.8538    0.0000 C   0  0  0  0  0  0  0  0  0  0  0  0
    6.0901    4.2983    0.0000 C   0  0  0  0  0  0  0  0  0  0  0  0
    6.0901    6.3676    0.0000 C   0  0  0  0  0  0  0  0  0  0  0  0
    7.8602    4.3088    0.0000 C   0  0  0  0  0  0  0  0  0  0  0  0
    5.1962    4.8330    0.0000 C   0  0  0  0  0  0  0  0  0  0  0  0
    5.1962    5.8330    0.0000 C   0  0  0  0  0  0  0  0  0  0  0  0
    8.7282    4.8055    0.0000 C   0  0  0  0  0  0  0  0  0  0  0  0
    9.5923    4.3021    0.0000 C   0  0  0  0  0  0  0  0  0  0  0  0
    4.3301    4.3330    0.0000 C   0  0  0  0  0  0  0  0  0  0  0  0
    4.3301    6.3330    0.0000 C   0  0  0  0  0  0  0  0  0  0  0  0
    3.4641    4.8330    0.0000 C   0  0  0  0  0  0  0  0  0  0  0  0
   10.4602    4.7988    0.0000 C   0  0  0  0  0  0  0  0  0  0  0  0
    3.4641    5.8330    0.0000 C   0  0  0  0  0  0  0  0  0  0  0  0
   12.1923    4.7921    0.0000 C   0  0  0  0  0  0  0  0  0  0  0  0
   14.7884    4.2821    0.0000 C   0  0  0  0  0  0  0  0  0  0  0  0
   13.0564    4.2888    0.0000 C   0  0  0  0  0  0  0  0  0  0  0  0
   15.6977    4.6837    0.0000 C   0  0  0  0  0  0  0  0  0  0  0  0
    0.8660    5.3330    0.0000 C   0  0  0  0  0  0  0  0  0  0  0  0
   16.3627    3.9369    0.0000 C   0  0  0  0  0  0  0  0  0  0  0  0
   13.9243    4.7854    0.0000 C   0  0  0  0  0  0  0  0  0  0  0  0
   14.8876    3.2930    0.0000 C   0  0  0  0  0  0  0  0  0  0  0  0
   16.0121    5.6330    0.0000 C   0  0  0  0  0  0  0  0  0  0  0  0
   17.3420    4.1393    0.0000 C   0  0  0  0  0  0  0  0  0  0  0  0
   16.9914    5.8355    0.0000 C   0  0  0  0  0  0  0  0  0  0  0  0
   17.6563    5.0886    0.0000 C   0  0  0  0  0  0  0  0  0  0  0  0
    7.6070    5.7477    0.0000 H   0  0  0  0  0  0  0  0  0  0  0  0
    7.2052    6.4375    0.0000 H   0  0  0  0  0  0  0  0  0  0  0  0
    5.6855    3.8285    0.0000 H   0  0  0  0  0  0  0  0  0  0  0  0
    6.4837    3.8193    0.0000 H   0  0  0  0  0  0  0  0  0  0  0  0
    6.4837    6.8466    0.0000 H   0  0  0  0  0  0  0  0  0  0  0  0
    5.6855    6.8374    0.0000 H   0  0  0  0  0  0  0  0  0  0  0  0
    7.4599    3.8354    0.0000 H   0  0  0  0  0  0  0  0  0  0  0  0
    8.2570    3.8323    0.0000 H   0  0  0  0  0  0  0  0  0  0  0  0
    9.1286    5.2789    0.0000 H   0  0  0  0  0  0  0  0  0  0  0  0
    8.3315    5.2820    0.0000 H   0  0  0  0  0  0  0  0  0  0  0  0
    9.1919    3.8287    0.0000 H   0  0  0  0  0  0  0  0  0  0  0  0
    9.9890    3.8257    0.0000 H   0  0  0  0  0  0  0  0  0  0  0  0
    4.3301    3.7130    0.0000 H   0  0  0  0  0  0  0  0  0  0  0  0
    4.3301    6.9530    0.0000 H   0  0  0  0  0  0  0  0  0  0  0  0
   10.8606    5.2722    0.0000 H   0  0  0  0  0  0  0  0  0  0  0  0
   10.0635    5.2753    0.0000 H   0  0  0  0  0  0  0  0  0  0  0  0
    2.9272    6.1430    0.0000 H   0  0  0  0  0  0  0  0  0  0  0  0
   11.3219    3.6755    0.0000 H   0  0  0  0  0  0  0  0  0  0  0  0
   13.0540    3.6688    0.0000 H   0  0  0  0  0  0  0  0  0  0  0  0
   13.9267    5.4054    0.0000 H   0  0  0  0  0  0  0  0  0  0  0  0
   14.4246    2.8807    0.0000 H   0  0  0  0  0  0  0  0  0  0  0  0
   16.1067    2.5118    0.0000 H   0  0  0  0  0  0  0  0  0  0  0  0
   15.5998    6.0961    0.0000 H   0  0  0  0  0  0  0  0  0  0  0  0
   17.7543    3.6762    0.0000 H   0  0  0  0  0  0  0  0  0  0  0  0
   17.1862    6.4241    0.0000 H   0  0  0  0  0  0  0  0  0  0  0  0
   18.2635    5.2141    0.0000 H   0  0  0  0  0  0  0  0  0  0  0  0
    9.6318    0.0000    0.0000 H   0  0  0  0  0  0  0  0  0  0  0  0
  1 64  1  0  0  0  0
  2  6  1  0  0  0  0
  2  7  2  0  0  0  0
  2  8  2  0  0  0  0
  2 30  1  0  0  0  0
  3 30  1  0  0  0  0
  4 30  1  0  0  0  0
  5 30  1  0  0  0  0
  6 23  1  0  0  0  0
  9 26  2  0  0  0  0
 10 13  1  0  0  0  0
 10 14  1  0  0  0  0
 10 16  1  0  0  0  0
 11 24  1  0  0  0  0
 11 26  1  0  0  0  0
 11 55  1  0  0  0  0
 12 31  1  0  0  0  0
 12 33  1  0  0  0  0
 12 59  1  0  0  0  0
 13 15  1  0  0  0  0
 13 38  1  0  0  0  0
 13 39  1  0  0  0  0
 14 17  1  0  0  0  0
 14 40  1  0  0  0  0
 14 41  1  0  0  0  0
 15 18  1  0  0  0  0
 15 42  1  0  0  0  0
 15 43  1  0  0  0  0
 16 19  1  0  0  0  0
 16 44  1  0  0  0  0
 16 45  1  0  0  0  0
 17 18  2  0  0  0  0
 17 21  1  0  0  0  0
 18 22  1  0  0  0  0
 19 20  1  0  0  0  0
 19 46  1  0  0  0  0
 19 47  1  0  0  0  0
 20 24  1  0  0  0  0
 20 48  1  0  0  0  0
 20 49  1  0  0  0  0
 21 23  2  0  0  0  0
 21 50  1  0  0  0  0
 22 25  2  0  0  0  0
 22 51  1  0  0  0  0
 23 25  1  0  0  0  0
 24 52  1  0  0  0  0
 24 53  1  0  0  0  0
 25 54  1  0  0  0  0
 26 28  1  0  0  0  0
 27 29  1  0  0  0  0
 27 32  1  0  0  0  0
 27 33  2  0  0  0  0
 28 32  2  0  0  0  0
 28 56  1  0  0  0  0
 29 31  1  0  0  0  0
 29 34  2  0  0  0  0
 31 35  2  0  0  0  0
 32 57  1  0  0  0  0
 33 58  1  0  0  0  0
 34 36  1  0  0  0  0
 34 60  1  0  0  0  0
 35 37  1  0  0  0  0
 35 61  1  0  0  0  0
 36 37  2  0  0  0  0
 36 62  1  0  0  0  0
 37 63  1  0  0  0  0
M  END
> <PUBCHEM_COMPOUND_CID>
45260377

> <PUBCHEM_COMPOUND_CANONICALIZED>
1

> <PUBCHEM_CACTVS_COMPLEXITY>
877

> <PUBCHEM_CACTVS_HBOND_ACCEPTOR>
8

> <PUBCHEM_CACTVS_HBOND_DONOR>
3

> <PUBCHEM_CACTVS_ROTATABLE_BOND>
9

> <PUBCHEM_CACTVS_SUBSKEYS>
AAADceB7OYBEAAAAAAAAAAAAAAAAAWAAAAA8YIAAAAAAAFix9AAAHwQQAAAADAzBnhQ8xvPJkAKoAzV3VHCCgCAxIiAI2aA+bNgIJuLAkZOEMAhk1hHIyYewwNAOoAABAAASAABAAAIAACQAAAAAAAAAAA==

> <PUBCHEM_IUPAC_OPENEYE_NAME>
[2-[4-[[(E)-3-(1H-indol-3-yl)prop-2-enoyl]amino]butyl]-3,4-dihydro-1H-isoquinolin-7-yl] trifluoromethanesulfonate;hydrochloride

> <PUBCHEM_IUPAC_CAS_NAME>
trifluoromethanesulfonic acid [2-[4-[[(E)-3-(1H-indol-3-yl)-1-oxoprop-2-enyl]amino]butyl]-3,4-dihydro-1H-isoquinolin-7-yl] ester;hydrochloride

> <PUBCHEM_IUPAC_NAME_MARKUP>
[2-[4-[[(<I>E</I>)-3-(1<I>H</I>-indol-3-yl)prop-2-enoyl]amino]butyl]-3,4-dihydro-1<I>H</I>-isoquinolin-7-yl] trifluoromethanesulfonate;hydrochloride

> <PUBCHEM_IUPAC_NAME>
[2-[4-[[(E)-3-(1H-indol-3-yl)prop-2-enoyl]amino]butyl]-3,4-dihydro-1H-isoquinolin-7-yl] trifluoromethanesulfonate;hydrochloride

> <PUBCHEM_IUPAC_SYSTEMATIC_NAME>
[2-[4-[[(E)-3-(1H-indol-3-yl)prop-2-enoyl]amino]butyl]-3,4-dihydro-1H-isoquinolin-7-yl] tris(fluoranyl)methanesulfonate;hydrochloride

> <PUBCHEM_IUPAC_TRADITIONAL_NAME>
trifluoromethanesulfonic acid [2-[4-[[(E)-3-(1H-indol-3-yl)acryloyl]amino]butyl]-3,4-dihydro-1H-isoquinolin-7-yl] ester;hydrochloride

> <PUBCHEM_IUPAC_INCHI>
InChI=1S/C25H26F3N3O4S.ClH/c26-25(27,28)36(33,34)35-21-9-7-18-11-14-31(17-20(18)15-21)13-4-3-12-29-24(32)10-8-19-16-30-23-6-2-1-5-22(19)23;/h1-2,5-10,15-16,30H,3-4,11-14,17H2,(H,29,32);1H/b10-8+;

> <PUBCHEM_IUPAC_INCHIKEY>
RFNDJIOAJUUESQ-VRTOBVRTSA-N

> <PUBCHEM_EXACT_MASS>
557.1362897

> <PUBCHEM_MOLECULAR_FORMULA>
C25H27ClF3N3O4S

> <PUBCHEM_MOLECULAR_WEIGHT>
558.0

> <PUBCHEM_OPENEYE_CAN_SMILES>
C1CN(CC2=C1C=CC(=C2)OS(=O)(=O)C(F)(F)F)CCCCNC(=O)C=CC3=CNC4=CC=CC=C43.Cl

> <PUBCHEM_OPENEYE_ISO_SMILES>
C1CN(CC2=C1C=CC(=C2)OS(=O)(=O)C(F)(F)F)CCCCNC(=O)/C=C/C3=CNC4=CC=CC=C43.Cl

> <PUBCHEM_CACTVS_TPSA>
99.9

> <PUBCHEM_MONOISOTOPIC_WEIGHT>
557.1362897

> <PUBCHEM_TOTAL_CHARGE>
0

> <PUBCHEM_HEAVY_ATOM_COUNT>
37

> <PUBCHEM_ATOM_DEF_STEREO_COUNT>
0

> <PUBCHEM_ATOM_UDEF_STEREO_COUNT>
0

> <PUBCHEM_BOND_DEF_STEREO_COUNT>
1

> <PUBCHEM_BOND_UDEF_STEREO_COUNT>
0

> <PUBCHEM_ISOTOPIC_ATOM_COUNT>
0

> <PUBCHEM_COMPONENT_COUNT>
2

> <PUBCHEM_CACTVS_TAUTO_COUNT>
-1

> <PUBCHEM_COORDINATE_TYPE>
1
5
255

> <PUBCHEM_BONDANNOTATIONS>
12  31  8
12  33  8
17  18  8
17  21  8
18  22  8
21  23  8
22  25  8
23  25  8
27  29  8
27  33  8
29  31  8
29  34  8
31  35  8
34  36  8
35  37  8
36  37  8

$$$$
