12730766
  -OEChem-09292322092D

 39 40  0     0  0  0  0  0  0999 V2000
    6.3301    0.3100    0.0000 N   0  0  0  0  0  0  0  0  0  0  0  0
    6.3301    2.3100    0.0000 N   0  0  0  0  0  0  0  0  0  0  0  0
    5.4641    0.8100    0.0000 C   0  0  0  0  0  0  0  0  0  0  0  0
    7.1962    0.8100    0.0000 C   0  0  0  0  0  0  0  0  0  0  0  0
    5.4641    1.8100    0.0000 C   0  0  0  0  0  0  0  0  0  0  0  0
    7.1962    1.8100    0.0000 C   0  0  0  0  0  0  0  0  0  0  0  0
    6.3301   -0.6900    0.0000 C   0  0  0  0  0  0  0  0  0  0  0  0
    5.4641   -1.1900    0.0000 C   0  0  0  0  0  0  0  0  0  0  0  0
    6.3301    3.3100    0.0000 C   0  0  0  0  0  0  0  0  0  0  0  0
    5.4641   -2.1900    0.0000 C   0  0  0  0  0  0  0  0  0  0  0  0
    4.5981   -2.6900    0.0000 C   0  0  0  0  0  0  0  0  0  0  0  0
    3.7320   -2.1900    0.0000 C   0  0  0  0  0  0  0  0  0  0  0  0
    3.7320   -1.1900    0.0000 C   0  0  0  0  0  0  0  0  0  0  0  0
    2.8660   -2.6900    0.0000 C   0  0  0  0  0  0  0  0  0  0  0  0
    2.8660   -0.6900    0.0000 C   0  0  0  0  0  0  0  0  0  0  0  0
    2.0000   -2.1900    0.0000 C   0  0  0  0  0  0  0  0  0  0  0  0
    2.0000   -1.1900    0.0000 C   0  0  0  0  0  0  0  0  0  0  0  0
    4.8535    0.9177    0.0000 H   0  0  0  0  0  0  0  0  0  0  0  0
    5.2520    0.2274    0.0000 H   0  0  0  0  0  0  0  0  0  0  0  0
    7.4082    0.2274    0.0000 H   0  0  0  0  0  0  0  0  0  0  0  0
    7.8067    0.9177    0.0000 H   0  0  0  0  0  0  0  0  0  0  0  0
    5.2520    2.3926    0.0000 H   0  0  0  0  0  0  0  0  0  0  0  0
    4.8535    1.7023    0.0000 H   0  0  0  0  0  0  0  0  0  0  0  0
    7.8067    1.7023    0.0000 H   0  0  0  0  0  0  0  0  0  0  0  0
    7.4082    2.3926    0.0000 H   0  0  0  0  0  0  0  0  0  0  0  0
    6.5422   -1.2726    0.0000 H   0  0  0  0  0  0  0  0  0  0  0  0
    6.9407   -0.5823    0.0000 H   0  0  0  0  0  0  0  0  0  0  0  0
    5.2520   -0.6074    0.0000 H   0  0  0  0  0  0  0  0  0  0  0  0
    4.8535   -1.2977    0.0000 H   0  0  0  0  0  0  0  0  0  0  0  0
    6.9501    3.3100    0.0000 H   0  0  0  0  0  0  0  0  0  0  0  0
    6.3301    3.9300    0.0000 H   0  0  0  0  0  0  0  0  0  0  0  0
    5.7101    3.3100    0.0000 H   0  0  0  0  0  0  0  0  0  0  0  0
    6.0010   -2.5000    0.0000 H   0  0  0  0  0  0  0  0  0  0  0  0
    4.5981   -3.3100    0.0000 H   0  0  0  0  0  0  0  0  0  0  0  0
    4.2690   -0.8800    0.0000 H   0  0  0  0  0  0  0  0  0  0  0  0
    2.8660   -3.3100    0.0000 H   0  0  0  0  0  0  0  0  0  0  0  0
    2.8660   -0.0700    0.0000 H   0  0  0  0  0  0  0  0  0  0  0  0
    1.4631   -2.5000    0.0000 H   0  0  0  0  0  0  0  0  0  0  0  0
    1.4631   -0.8800    0.0000 H   0  0  0  0  0  0  0  0  0  0  0  0
  1  3  1  0  0  0  0
  1  4  1  0  0  0  0
  1  7  1  0  0  0  0
  2  5  1  0  0  0  0
  2  6  1  0  0  0  0
  2  9  1  0  0  0  0
  3  5  1  0  0  0  0
  3 18  1  0  0  0  0
  3 19  1  0  0  0  0
  4  6  1  0  0  0  0
  4 20  1  0  0  0  0
  4 21  1  0  0  0  0
  5 22  1  0  0  0  0
  5 23  1  0  0  0  0
  6 24  1  0  0  0  0
  6 25  1  0  0  0  0
  7  8  1  0  0  0  0
  7 26  1  0  0  0  0
  7 27  1  0  0  0  0
  8 10  1  0  0  0  0
  8 28  1  0  0  0  0
  8 29  1  0  0  0  0
  9 30  1  0  0  0  0
  9 31  1  0  0  0  0
  9 32  1  0  0  0  0
 10 11  2  0  0  0  0
 10 33  1  0  0  0  0
 11 12  1  0  0  0  0
 11 34  1  0  0  0  0
 12 13  2  0  0  0  0
 12 14  1  0  0  0  0
 13 15  1  0  0  0  0
 13 35  1  0  0  0  0
 14 16  2  0  0  0  0
 14 36  1  0  0  0  0
 15 17  2  0  0  0  0
 15 37  1  0  0  0  0
 16 17  1  0  0  0  0
 16 38  1  0  0  0  0
 17 39  1  0  0  0  0
M  END
> <PUBCHEM_COMPOUND_CID>
12730766

> <PUBCHEM_COMPOUND_CANONICALIZED>
1

> <PUBCHEM_CACTVS_COMPLEXITY>
223

> <PUBCHEM_CACTVS_HBOND_ACCEPTOR>
2

> <PUBCHEM_CACTVS_HBOND_DONOR>
0

> <PUBCHEM_CACTVS_ROTATABLE_BOND>
4

> <PUBCHEM_CACTVS_SUBSKEYS>
AAADceBzAAAAAAAAAAAAAAAAAAAAAAAAAAA8QAAAAAAAAAABAAAAHAAAAAAADADBGAQyAIMAAACAAiBCAAACAAAgAAAIiAAIAIgIYCKAERCUIAAggACIiAcAgAAOAAAAAAAAAAAAAAAAAAAAAAAAAAAAAA==

> <PUBCHEM_IUPAC_OPENEYE_NAME>
1-methyl-4-[(Z)-4-phenylbut-3-enyl]piperazine

> <PUBCHEM_IUPAC_CAS_NAME>
1-methyl-4-[(Z)-4-phenylbut-3-enyl]piperazine

> <PUBCHEM_IUPAC_NAME_MARKUP>
1-methyl-4-[(<I>Z</I>)-4-phenylbut-3-enyl]piperazine

> <PUBCHEM_IUPAC_NAME>
1-methyl-4-[(Z)-4-phenylbut-3-enyl]piperazine

> <PUBCHEM_IUPAC_SYSTEMATIC_NAME>
1-methyl-4-[(Z)-4-phenylbut-3-enyl]piperazine

> <PUBCHEM_IUPAC_TRADITIONAL_NAME>
1-methyl-4-[(Z)-4-phenylbut-3-enyl]piperazine

> <PUBCHEM_IUPAC_INCHI>
InChI=1S/C15H22N2/c1-16-11-13-17(14-12-16)10-6-5-9-15-7-3-2-4-8-15/h2-5,7-9H,6,10-14H2,1H3/b9-5-

> <PUBCHEM_IUPAC_INCHIKEY>
SXILFPQESHGEGQ-UITAMQMPSA-N

> <PUBCHEM_XLOGP3_AA>
2.7

> <PUBCHEM_EXACT_MASS>
230.178298710

> <PUBCHEM_MOLECULAR_FORMULA>
C15H22N2

> <PUBCHEM_MOLECULAR_WEIGHT>
230.35

> <PUBCHEM_OPENEYE_CAN_SMILES>
CN1CCN(CC1)CCC=CC2=CC=CC=C2

> <PUBCHEM_OPENEYE_ISO_SMILES>
CN1CCN(CC1)CC/C=C\C2=CC=CC=C2

> <PUBCHEM_CACTVS_TPSA>
6.5

> <PUBCHEM_MONOISOTOPIC_WEIGHT>
230.178298710

> <PUBCHEM_TOTAL_CHARGE>
0

> <PUBCHEM_HEAVY_ATOM_COUNT>
17

> <PUBCHEM_ATOM_DEF_STEREO_COUNT>
0

> <PUBCHEM_ATOM_UDEF_STEREO_COUNT>
0

> <PUBCHEM_BOND_DEF_STEREO_COUNT>
1

> <PUBCHEM_BOND_UDEF_STEREO_COUNT>
0

> <PUBCHEM_ISOTOPIC_ATOM_COUNT>
0

> <PUBCHEM_COMPONENT_COUNT>
1

> <PUBCHEM_CACTVS_TAUTO_COUNT>
-1

> <PUBCHEM_COORDINATE_TYPE>
1
5
255

> <PUBCHEM_BONDANNOTATIONS>
12  13  8
12  14  8
13  15  8
14  16  8
15  17  8
16  17  8

$$$$
