44307286
  -OEChem-09292322512D

 53 56  0     1  0  0  0  0  0999 V2000
    6.2619   -2.6869    0.0000 O   0  0  0  0  0  0  0  0  0  0  0  0
    5.4883   -1.2958    0.0000 N   0  0  0  0  0  0  0  0  0  0  0  0
    7.1084   -0.1230    0.0000 N   0  0  0  0  0  0  0  0  0  0  0  0
    4.6783   -3.4916    0.0000 N   0  0  0  0  0  0  0  0  0  0  0  0
    4.6783   -1.8822    0.0000 C   0  0  3  0  0  0  0  0  0  0  0  0
    6.4011   -1.7041    0.0000 C   0  0  0  0  0  0  0  0  0  0  0  0
    5.3855   -0.3011    0.0000 C   0  0  0  0  0  0  0  0  0  0  0  0
    3.7320   -2.1869    0.0000 C   0  0  0  0  0  0  0  0  0  0  0  0
    7.2112   -1.1177    0.0000 C   0  0  0  0  0  0  0  0  0  0  0  0
    6.1955    0.2853    0.0000 C   0  0  0  0  0  0  0  0  0  0  0  0
    5.2619   -2.6869    0.0000 C   0  0  0  0  0  0  0  0  0  0  0  0
    4.3709   -0.9306    0.0000 C   0  0  0  0  0  0  0  0  0  0  0  0
    3.7320   -3.1869    0.0000 C   0  0  0  0  0  0  0  0  0  0  0  0
    7.9184    0.4634    0.0000 C   0  0  0  0  0  0  0  0  0  0  0  0
    2.8660   -1.6869    0.0000 C   0  0  0  0  0  0  0  0  0  0  0  0
    2.8660   -3.6869    0.0000 C   0  0  0  0  0  0  0  0  0  0  0  0
    4.9889   -4.4422    0.0000 C   0  0  0  0  0  0  0  0  0  0  0  0
    7.8156    1.4581    0.0000 C   0  0  0  0  0  0  0  0  0  0  0  0
    2.0000   -2.1869    0.0000 C   0  0  0  0  0  0  0  0  0  0  0  0
    2.0000   -3.1869    0.0000 C   0  0  0  0  0  0  0  0  0  0  0  0
    8.6256    2.0444    0.0000 C   0  0  0  0  0  0  0  0  0  0  0  0
    6.9028    1.8664    0.0000 C   0  0  0  0  0  0  0  0  0  0  0  0
    8.5228    3.0391    0.0000 C   0  0  0  0  0  0  0  0  0  0  0  0
    6.8000    2.8611    0.0000 C   0  0  0  0  0  0  0  0  0  0  0  0
    7.6100    3.4475    0.0000 C   0  0  0  0  0  0  0  0  0  0  0  0
    7.5072    4.4422    0.0000 C   0  0  0  0  0  0  0  0  0  0  0  0
    6.0536   -2.2175    0.0000 H   0  0  0  0  0  0  0  0  0  0  0  0
    6.8464   -2.1356    0.0000 H   0  0  0  0  0  0  0  0  0  0  0  0
    5.1147    0.2566    0.0000 H   0  0  0  0  0  0  0  0  0  0  0  0
    4.7892   -0.4710    0.0000 H   0  0  0  0  0  0  0  0  0  0  0  0
    7.4820   -1.6754    0.0000 H   0  0  0  0  0  0  0  0  0  0  0  0
    7.8074   -0.9479    0.0000 H   0  0  0  0  0  0  0  0  0  0  0  0
    6.5431    0.7987    0.0000 H   0  0  0  0  0  0  0  0  0  0  0  0
    5.7503    0.7168    0.0000 H   0  0  0  0  0  0  0  0  0  0  0  0
    4.9609   -0.7400    0.0000 H   0  0  0  0  0  0  0  0  0  0  0  0
    4.1803   -0.3406    0.0000 H   0  0  0  0  0  0  0  0  0  0  0  0
    3.7809   -1.1212    0.0000 H   0  0  0  0  0  0  0  0  0  0  0  0
    8.1892   -0.0944    0.0000 H   0  0  0  0  0  0  0  0  0  0  0  0
    8.5147    0.6332    0.0000 H   0  0  0  0  0  0  0  0  0  0  0  0
    2.8660   -1.0669    0.0000 H   0  0  0  0  0  0  0  0  0  0  0  0
    2.8660   -4.3069    0.0000 H   0  0  0  0  0  0  0  0  0  0  0  0
    4.3996   -4.6348    0.0000 H   0  0  0  0  0  0  0  0  0  0  0  0
    5.1815   -5.0315    0.0000 H   0  0  0  0  0  0  0  0  0  0  0  0
    5.5783   -4.2496    0.0000 H   0  0  0  0  0  0  0  0  0  0  0  0
    1.4631   -1.8769    0.0000 H   0  0  0  0  0  0  0  0  0  0  0  0
    1.4631   -3.4969    0.0000 H   0  0  0  0  0  0  0  0  0  0  0  0
    9.1916    1.7913    0.0000 H   0  0  0  0  0  0  0  0  0  0  0  0
    6.4005    1.5028    0.0000 H   0  0  0  0  0  0  0  0  0  0  0  0
    9.0250    3.4027    0.0000 H   0  0  0  0  0  0  0  0  0  0  0  0
    6.2340    3.1142    0.0000 H   0  0  0  0  0  0  0  0  0  0  0  0
    8.1239    4.5059    0.0000 H   0  0  0  0  0  0  0  0  0  0  0  0
    7.4434    5.0589    0.0000 H   0  0  0  0  0  0  0  0  0  0  0  0
    6.8905    4.3784    0.0000 H   0  0  0  0  0  0  0  0  0  0  0  0
  1 11  2  0  0  0  0
  2  5  1  0  0  0  0
  2  6  1  0  0  0  0
  2  7  1  0  0  0  0
  3  9  1  0  0  0  0
  3 10  1  0  0  0  0
  3 14  1  0  0  0  0
  4 11  1  0  0  0  0
  4 13  1  0  0  0  0
  4 17  1  0  0  0  0
  5  8  1  0  0  0  0
  5 11  1  0  0  0  0
  5 12  1  0  0  0  0
  6  9  1  0  0  0  0
  6 27  1  0  0  0  0
  6 28  1  0  0  0  0
  7 10  1  0  0  0  0
  7 29  1  0  0  0  0
  7 30  1  0  0  0  0
  8 13  1  0  0  0  0
  8 15  2  0  0  0  0
  9 31  1  0  0  0  0
  9 32  1  0  0  0  0
 10 33  1  0  0  0  0
 10 34  1  0  0  0  0
 12 35  1  0  0  0  0
 12 36  1  0  0  0  0
 12 37  1  0  0  0  0
 13 16  2  0  0  0  0
 14 18  1  0  0  0  0
 14 38  1  0  0  0  0
 14 39  1  0  0  0  0
 15 19  1  0  0  0  0
 15 40  1  0  0  0  0
 16 20  1  0  0  0  0
 16 41  1  0  0  0  0
 17 42  1  0  0  0  0
 17 43  1  0  0  0  0
 17 44  1  0  0  0  0
 18 21  2  0  0  0  0
 18 22  1  0  0  0  0
 19 20  2  0  0  0  0
 19 45  1  0  0  0  0
 20 46  1  0  0  0  0
 21 23  1  0  0  0  0
 21 47  1  0  0  0  0
 22 24  2  0  0  0  0
 22 48  1  0  0  0  0
 23 25  2  0  0  0  0
 23 49  1  0  0  0  0
 24 25  1  0  0  0  0
 24 50  1  0  0  0  0
 25 26  1  0  0  0  0
 26 51  1  0  0  0  0
 26 52  1  0  0  0  0
 26 53  1  0  0  0  0
M  END
> <PUBCHEM_COMPOUND_CID>
44307286

> <PUBCHEM_COMPOUND_CANONICALIZED>
1

> <PUBCHEM_CACTVS_COMPLEXITY>
508

> <PUBCHEM_CACTVS_HBOND_ACCEPTOR>
3

> <PUBCHEM_CACTVS_HBOND_DONOR>
0

> <PUBCHEM_CACTVS_ROTATABLE_BOND>
3

> <PUBCHEM_CACTVS_SUBSKEYS>
AAADceB7IAAAAAAAAAAAAAAAAAAAAWAAAAA8YIAAAAAAAFgBQAAAHgAAAAAADIjBmAQywIMAAACIAiVSUACCAAAhAgAIiAGIZIgIYDLA1bGUIAhghgDIyAcciMCOwAAAAAACAACAAAAAAAQAAAAAAAAAAA==

> <PUBCHEM_IUPAC_OPENEYE_NAME>
1,3-dimethyl-3-[4-(p-tolylmethyl)piperazin-1-yl]indolin-2-one

> <PUBCHEM_IUPAC_CAS_NAME>
1,3-dimethyl-3-[4-[(4-methylphenyl)methyl]-1-piperazinyl]-2-indolone

> <PUBCHEM_IUPAC_NAME_MARKUP>
1,3-dimethyl-3-[4-[(4-methylphenyl)methyl]piperazin-1-yl]indol-2-one

> <PUBCHEM_IUPAC_NAME>
1,3-dimethyl-3-[4-[(4-methylphenyl)methyl]piperazin-1-yl]indol-2-one

> <PUBCHEM_IUPAC_SYSTEMATIC_NAME>
1,3-dimethyl-3-[4-[(4-methylphenyl)methyl]piperazin-1-yl]indol-2-one

> <PUBCHEM_IUPAC_TRADITIONAL_NAME>
1,3-dimethyl-3-[4-(4-methylbenzyl)piperazino]oxindole

> <PUBCHEM_IUPAC_INCHI>
InChI=1S/C22H27N3O/c1-17-8-10-18(11-9-17)16-24-12-14-25(15-13-24)22(2)19-6-4-5-7-20(19)23(3)21(22)26/h4-11H,12-16H2,1-3H3

> <PUBCHEM_IUPAC_INCHIKEY>
LUDCCCVLAYHLTE-UHFFFAOYSA-N

> <PUBCHEM_XLOGP3_AA>
3

> <PUBCHEM_EXACT_MASS>
349.215412493

> <PUBCHEM_MOLECULAR_FORMULA>
C22H27N3O

> <PUBCHEM_MOLECULAR_WEIGHT>
349.5

> <PUBCHEM_OPENEYE_CAN_SMILES>
CC1=CC=C(C=C1)CN2CCN(CC2)C3(C4=CC=CC=C4N(C3=O)C)C

> <PUBCHEM_OPENEYE_ISO_SMILES>
CC1=CC=C(C=C1)CN2CCN(CC2)C3(C4=CC=CC=C4N(C3=O)C)C

> <PUBCHEM_CACTVS_TPSA>
26.8

> <PUBCHEM_MONOISOTOPIC_WEIGHT>
349.215412493

> <PUBCHEM_TOTAL_CHARGE>
0

> <PUBCHEM_HEAVY_ATOM_COUNT>
26

> <PUBCHEM_ATOM_DEF_STEREO_COUNT>
0

> <PUBCHEM_ATOM_UDEF_STEREO_COUNT>
1

> <PUBCHEM_BOND_DEF_STEREO_COUNT>
0

> <PUBCHEM_BOND_UDEF_STEREO_COUNT>
0

> <PUBCHEM_ISOTOPIC_ATOM_COUNT>
0

> <PUBCHEM_COMPONENT_COUNT>
1

> <PUBCHEM_CACTVS_TAUTO_COUNT>
-1

> <PUBCHEM_COORDINATE_TYPE>
1
5
255

> <PUBCHEM_BONDANNOTATIONS>
13  16  8
15  19  8
16  20  8
18  21  8
18  22  8
19  20  8
21  23  8
22  24  8
23  25  8
24  25  8
5  12  3
8  13  8
8  15  8

$$$$
