155542198
  -OEChem-09292322422D

 54 57  0     1  0  0  0  0  0999 V2000
    9.3191   -1.4518    0.0000 S   0  0  0  0  0  0  0  0  0  0  0  0
   10.2696   -1.1412    0.0000 O   0  0  0  0  0  0  0  0  0  0  0  0
    8.3685   -1.7625    0.0000 O   0  0  0  0  0  0  0  0  0  0  0  0
    5.4641    1.3034    0.0000 N   0  0  0  0  0  0  0  0  0  0  0  0
    3.7320    2.3034    0.0000 N   0  0  0  0  0  0  0  0  0  0  0  0
    9.0084   -0.5013    0.0000 N   0  0  3  0  0  0  0  0  0  0  0  0
    5.4641    2.3034    0.0000 C   0  0  0  0  0  0  0  0  0  0  0  0
    4.5981    0.8034    0.0000 C   0  0  0  0  0  0  0  0  0  0  0  0
    4.5981    2.8034    0.0000 C   0  0  0  0  0  0  0  0  0  0  0  0
    3.7320    1.3034    0.0000 C   0  0  0  0  0  0  0  0  0  0  0  0
    8.0622    0.8034    0.0000 C   0  0  0  0  0  0  0  0  0  0  0  0
    6.3301    0.8034    0.0000 C   0  0  0  0  0  0  0  0  0  0  0  0
    9.0084    1.1081    0.0000 C   0  0  0  0  0  0  0  0  0  0  0  0
    8.0622   -0.1966    0.0000 C   0  0  0  0  0  0  0  0  0  0  0  0
    9.5920    0.3034    0.0000 C   0  0  0  0  0  0  0  0  0  0  0  0
    7.1962    1.3034    0.0000 C   0  0  0  0  0  0  0  0  0  0  0  0
    2.8660    2.8034    0.0000 C   0  0  0  0  0  0  0  0  0  0  0  0
    6.3301   -0.1966    0.0000 C   0  0  0  0  0  0  0  0  0  0  0  0
    7.1962   -0.6966    0.0000 C   0  0  0  0  0  0  0  0  0  0  0  0
    2.8660    3.8034    0.0000 C   0  0  0  0  0  0  0  0  0  0  0  0
    9.6297   -2.4024    0.0000 C   0  0  0  0  0  0  0  0  0  0  0  0
    2.0000    4.3034    0.0000 C   0  0  0  0  0  0  0  0  0  0  0  0
   10.6082   -2.6086    0.0000 C   0  0  0  0  0  0  0  0  0  0  0  0
    8.9619   -3.1467    0.0000 C   0  0  0  0  0  0  0  0  0  0  0  0
   10.9189   -3.5591    0.0000 C   0  0  0  0  0  0  0  0  0  0  0  0
    9.2725   -4.0972    0.0000 C   0  0  0  0  0  0  0  0  0  0  0  0
   10.2510   -4.3034    0.0000 C   0  0  0  0  0  0  0  0  0  0  0  0
    6.0747    2.1957    0.0000 H   0  0  0  0  0  0  0  0  0  0  0  0
    5.6762    2.8860    0.0000 H   0  0  0  0  0  0  0  0  0  0  0  0
    4.1996    0.3285    0.0000 H   0  0  0  0  0  0  0  0  0  0  0  0
    4.9966    0.3285    0.0000 H   0  0  0  0  0  0  0  0  0  0  0  0
    4.9966    3.2784    0.0000 H   0  0  0  0  0  0  0  0  0  0  0  0
    4.1996    3.2784    0.0000 H   0  0  0  0  0  0  0  0  0  0  0  0
    3.1215    1.4111    0.0000 H   0  0  0  0  0  0  0  0  0  0  0  0
    3.5200    0.7208    0.0000 H   0  0  0  0  0  0  0  0  0  0  0  0
    9.5458    1.4174    0.0000 H   0  0  0  0  0  0  0  0  0  0  0  0
    8.7574    1.6750    0.0000 H   0  0  0  0  0  0  0  0  0  0  0  0
   10.0529   -0.1113    0.0000 H   0  0  0  0  0  0  0  0  0  0  0  0
   10.0529    0.7181    0.0000 H   0  0  0  0  0  0  0  0  0  0  0  0
    7.1962    1.9234    0.0000 H   0  0  0  0  0  0  0  0  0  0  0  0
    2.2554    2.9111    0.0000 H   0  0  0  0  0  0  0  0  0  0  0  0
    2.6540    2.2208    0.0000 H   0  0  0  0  0  0  0  0  0  0  0  0
    5.7932   -0.5066    0.0000 H   0  0  0  0  0  0  0  0  0  0  0  0
    7.1962   -1.3166    0.0000 H   0  0  0  0  0  0  0  0  0  0  0  0
    3.4766    3.6958    0.0000 H   0  0  0  0  0  0  0  0  0  0  0  0
    3.0781    4.3860    0.0000 H   0  0  0  0  0  0  0  0  0  0  0  0
    2.3100    4.8403    0.0000 H   0  0  0  0  0  0  0  0  0  0  0  0
    1.4631    4.6134    0.0000 H   0  0  0  0  0  0  0  0  0  0  0  0
    1.6900    3.7665    0.0000 H   0  0  0  0  0  0  0  0  0  0  0  0
   11.0223   -2.1471    0.0000 H   0  0  0  0  0  0  0  0  0  0  0  0
    8.3552   -3.0188    0.0000 H   0  0  0  0  0  0  0  0  0  0  0  0
   11.5256   -3.6870    0.0000 H   0  0  0  0  0  0  0  0  0  0  0  0
    8.8585   -4.5586    0.0000 H   0  0  0  0  0  0  0  0  0  0  0  0
   10.4437   -4.8927    0.0000 H   0  0  0  0  0  0  0  0  0  0  0  0
  1  2  2  0  0  0  0
  1  3  2  0  0  0  0
  1  6  1  0  0  0  0
  1 21  1  0  0  0  0
  4  7  1  0  0  0  0
  4  8  1  0  0  0  0
  4 12  1  0  0  0  0
  5  9  1  0  0  0  0
  5 10  1  0  0  0  0
  5 17  1  0  0  0  0
  6 14  1  0  0  0  0
  6 15  1  0  0  0  0
  7  9  1  0  0  0  0
  7 28  1  0  0  0  0
  7 29  1  0  0  0  0
  8 10  1  0  0  0  0
  8 30  1  0  0  0  0
  8 31  1  0  0  0  0
  9 32  1  0  0  0  0
  9 33  1  0  0  0  0
 10 34  1  0  0  0  0
 10 35  1  0  0  0  0
 11 13  1  0  0  0  0
 11 14  2  0  0  0  0
 11 16  1  0  0  0  0
 12 16  2  0  0  0  0
 12 18  1  0  0  0  0
 13 15  1  0  0  0  0
 13 36  1  0  0  0  0
 13 37  1  0  0  0  0
 14 19  1  0  0  0  0
 15 38  1  0  0  0  0
 15 39  1  0  0  0  0
 16 40  1  0  0  0  0
 17 20  1  0  0  0  0
 17 41  1  0  0  0  0
 17 42  1  0  0  0  0
 18 19  2  0  0  0  0
 18 43  1  0  0  0  0
 19 44  1  0  0  0  0
 20 22  1  0  0  0  0
 20 45  1  0  0  0  0
 20 46  1  0  0  0  0
 21 23  2  0  0  0  0
 21 24  1  0  0  0  0
 22 47  1  0  0  0  0
 22 48  1  0  0  0  0
 22 49  1  0  0  0  0
 23 25  1  0  0  0  0
 23 50  1  0  0  0  0
 24 26  2  0  0  0  0
 24 51  1  0  0  0  0
 25 27  2  0  0  0  0
 25 52  1  0  0  0  0
 26 27  1  0  0  0  0
 26 53  1  0  0  0  0
 27 54  1  0  0  0  0
M  END
> <PUBCHEM_COMPOUND_CID>
155542198

> <PUBCHEM_COMPOUND_CANONICALIZED>
1

> <PUBCHEM_CACTVS_COMPLEXITY>
577

> <PUBCHEM_CACTVS_HBOND_ACCEPTOR>
5

> <PUBCHEM_CACTVS_HBOND_DONOR>
0

> <PUBCHEM_CACTVS_ROTATABLE_BOND>
5

> <PUBCHEM_CACTVS_SUBSKEYS>
AAADceB7MABAAAAAAAAAAAAAAAAAAWAAAAA8YIAAAAAAAFgBQAAAHAQAQAAADAjBWAQywYMAAAKAAiRCQHDCABAhAgAIiBgIZIgIYCLAkZGUIAhggADIyAcQgIAOAACAQAACAAAAAQCAAAQAAAAAAAAAAA==

> <PUBCHEM_IUPAC_OPENEYE_NAME>
1-(benzenesulfonyl)-5-(4-propylpiperazin-1-yl)indoline

> <PUBCHEM_IUPAC_CAS_NAME>
1-(benzenesulfonyl)-5-(4-propyl-1-piperazinyl)-2,3-dihydroindole

> <PUBCHEM_IUPAC_NAME_MARKUP>
1-(benzenesulfonyl)-5-(4-propylpiperazin-1-yl)-2,3-dihydroindole

> <PUBCHEM_IUPAC_NAME>
1-(benzenesulfonyl)-5-(4-propylpiperazin-1-yl)-2,3-dihydroindole

> <PUBCHEM_IUPAC_SYSTEMATIC_NAME>
1-(phenylsulfonyl)-5-(4-propylpiperazin-1-yl)-2,3-dihydroindole

> <PUBCHEM_IUPAC_TRADITIONAL_NAME>
1-besyl-5-(4-propylpiperazino)indoline

> <PUBCHEM_IUPAC_INCHI>
InChI=1S/C21H27N3O2S/c1-2-11-22-13-15-23(16-14-22)19-8-9-21-18(17-19)10-12-24(21)27(25,26)20-6-4-3-5-7-20/h3-9,17H,2,10-16H2,1H3

> <PUBCHEM_IUPAC_INCHIKEY>
FROJMJFJUZFRPE-UHFFFAOYSA-N

> <PUBCHEM_XLOGP3_AA>
3.5

> <PUBCHEM_EXACT_MASS>
385.18239829

> <PUBCHEM_MOLECULAR_FORMULA>
C21H27N3O2S

> <PUBCHEM_MOLECULAR_WEIGHT>
385.5

> <PUBCHEM_OPENEYE_CAN_SMILES>
CCCN1CCN(CC1)C2=CC3=C(C=C2)N(CC3)S(=O)(=O)C4=CC=CC=C4

> <PUBCHEM_OPENEYE_ISO_SMILES>
CCCN1CCN(CC1)C2=CC3=C(C=C2)N(CC3)S(=O)(=O)C4=CC=CC=C4

> <PUBCHEM_CACTVS_TPSA>
52.2

> <PUBCHEM_MONOISOTOPIC_WEIGHT>
385.18239829

> <PUBCHEM_TOTAL_CHARGE>
0

> <PUBCHEM_HEAVY_ATOM_COUNT>
27

> <PUBCHEM_ATOM_DEF_STEREO_COUNT>
0

> <PUBCHEM_ATOM_UDEF_STEREO_COUNT>
0

> <PUBCHEM_BOND_DEF_STEREO_COUNT>
0

> <PUBCHEM_BOND_UDEF_STEREO_COUNT>
0

> <PUBCHEM_ISOTOPIC_ATOM_COUNT>
0

> <PUBCHEM_COMPONENT_COUNT>
1

> <PUBCHEM_CACTVS_TAUTO_COUNT>
-1

> <PUBCHEM_COORDINATE_TYPE>
1
5
255

> <PUBCHEM_BONDANNOTATIONS>
11  14  8
11  16  8
12  16  8
12  18  8
14  19  8
18  19  8
21  23  8
21  24  8
23  25  8
24  26  8
25  27  8
26  27  8

$$$$
