155523519
  -OEChem-09292322082D

 65 69  0     0  0  0  0  0  0999 V2000
    2.9516   -4.2200    0.0000 S   0  0  0  0  0  0  0  0  0  0  0  0
    2.0000   -4.5274    0.0000 O   0  0  0  0  0  0  0  0  0  0  0  0
    2.3652   -3.4100    0.0000 O   0  0  0  0  0  0  0  0  0  0  0  0
    5.5116   -3.9093    0.0000 O   0  0  0  0  0  0  0  0  0  0  0  0
    6.3544    1.8636    0.0000 N   0  0  0  0  0  0  0  0  0  0  0  0
    6.3544    3.8636    0.0000 N   0  0  0  0  0  0  0  0  0  0  0  0
    3.7563   -3.6364    0.0000 N   0  0  0  0  0  0  0  0  0  0  0  0
    7.2204    2.3636    0.0000 C   0  0  0  0  0  0  0  0  0  0  0  0
    5.4884    2.3636    0.0000 C   0  0  0  0  0  0  0  0  0  0  0  0
    6.3544    0.8636    0.0000 C   0  0  0  0  0  0  0  0  0  0  0  0
    7.2204    3.3636    0.0000 C   0  0  0  0  0  0  0  0  0  0  0  0
    5.4884    3.3636    0.0000 C   0  0  0  0  0  0  0  0  0  0  0  0
    5.4884    0.3636    0.0000 C   0  0  0  0  0  0  0  0  0  0  0  0
    5.4884   -0.6364    0.0000 C   0  0  0  0  0  0  0  0  0  0  0  0
    4.6224   -1.1364    0.0000 C   0  0  0  0  0  0  0  0  0  0  0  0
    4.6224   -2.1364    0.0000 C   0  0  0  0  0  0  0  0  0  0  0  0
    6.3544    4.8636    0.0000 C   0  0  0  0  0  0  0  0  0  0  0  0
    3.7563   -2.6364    0.0000 C   0  0  0  0  0  0  0  0  0  0  0  0
    7.2204    5.3636    0.0000 C   0  0  0  0  0  0  0  0  0  0  0  0
    3.2563   -5.1662    0.0000 C   0  0  0  0  0  0  0  0  0  0  0  0
    4.5610   -4.2200    0.0000 C   0  0  0  0  0  0  0  0  0  0  0  0
    5.4884    5.3636    0.0000 C   0  0  0  0  0  0  0  0  0  0  0  0
    4.2563   -5.1662    0.0000 C   0  0  0  0  0  0  0  0  0  0  0  0
    7.2204    6.3636    0.0000 C   0  0  0  0  0  0  0  0  0  0  0  0
    5.4884    6.3636    0.0000 C   0  0  0  0  0  0  0  0  0  0  0  0
    8.1144    4.8290    0.0000 C   0  0  0  0  0  0  0  0  0  0  0  0
    6.3544    6.8636    0.0000 C   0  0  0  0  0  0  0  0  0  0  0  0
    2.7563   -6.0322    0.0000 C   0  0  0  0  0  0  0  0  0  0  0  0
    4.7563   -6.0322    0.0000 C   0  0  0  0  0  0  0  0  0  0  0  0
    8.1144    6.8983    0.0000 C   0  0  0  0  0  0  0  0  0  0  0  0
    9.0204    5.3428    0.0000 C   0  0  0  0  0  0  0  0  0  0  0  0
    3.2563   -6.8983    0.0000 C   0  0  0  0  0  0  0  0  0  0  0  0
    4.2563   -6.8983    0.0000 C   0  0  0  0  0  0  0  0  0  0  0  0
    9.0204    6.3844    0.0000 C   0  0  0  0  0  0  0  0  0  0  0  0
    7.4325    1.7810    0.0000 H   0  0  0  0  0  0  0  0  0  0  0  0
    7.8310    2.4713    0.0000 H   0  0  0  0  0  0  0  0  0  0  0  0
    4.8778    2.4713    0.0000 H   0  0  0  0  0  0  0  0  0  0  0  0
    5.2763    1.7810    0.0000 H   0  0  0  0  0  0  0  0  0  0  0  0
    6.5664    0.2810    0.0000 H   0  0  0  0  0  0  0  0  0  0  0  0
    6.9650    0.9713    0.0000 H   0  0  0  0  0  0  0  0  0  0  0  0
    7.8310    3.2560    0.0000 H   0  0  0  0  0  0  0  0  0  0  0  0
    7.4325    3.9462    0.0000 H   0  0  0  0  0  0  0  0  0  0  0  0
    5.2763    3.9462    0.0000 H   0  0  0  0  0  0  0  0  0  0  0  0
    4.8778    3.2560    0.0000 H   0  0  0  0  0  0  0  0  0  0  0  0
    5.2763    0.9462    0.0000 H   0  0  0  0  0  0  0  0  0  0  0  0
    4.8778    0.2559    0.0000 H   0  0  0  0  0  0  0  0  0  0  0  0
    5.7004   -1.2190    0.0000 H   0  0  0  0  0  0  0  0  0  0  0  0
    6.0990   -0.5287    0.0000 H   0  0  0  0  0  0  0  0  0  0  0  0
    4.4103   -0.5538    0.0000 H   0  0  0  0  0  0  0  0  0  0  0  0
    4.0118   -1.2441    0.0000 H   0  0  0  0  0  0  0  0  0  0  0  0
    4.8344   -2.7190    0.0000 H   0  0  0  0  0  0  0  0  0  0  0  0
    5.2329   -2.0287    0.0000 H   0  0  0  0  0  0  0  0  0  0  0  0
    3.5443   -2.0538    0.0000 H   0  0  0  0  0  0  0  0  0  0  0  0
    3.1457   -2.7440    0.0000 H   0  0  0  0  0  0  0  0  0  0  0  0
    4.9514    5.0536    0.0000 H   0  0  0  0  0  0  0  0  0  0  0  0
    4.9514    6.6736    0.0000 H   0  0  0  0  0  0  0  0  0  0  0  0
    8.1072    4.2090    0.0000 H   0  0  0  0  0  0  0  0  0  0  0  0
    6.3544    7.4836    0.0000 H   0  0  0  0  0  0  0  0  0  0  0  0
    2.1363   -6.0322    0.0000 H   0  0  0  0  0  0  0  0  0  0  0  0
    5.3763   -6.0322    0.0000 H   0  0  0  0  0  0  0  0  0  0  0  0
    8.1072    7.5182    0.0000 H   0  0  0  0  0  0  0  0  0  0  0  0
    2.9463   -7.4352    0.0000 H   0  0  0  0  0  0  0  0  0  0  0  0
    9.5562    5.0307    0.0000 H   0  0  0  0  0  0  0  0  0  0  0  0
    4.5663   -7.4352    0.0000 H   0  0  0  0  0  0  0  0  0  0  0  0
    9.5562    6.6965    0.0000 H   0  0  0  0  0  0  0  0  0  0  0  0
  1  2  2  0  0  0  0
  1  3  2  0  0  0  0
  1  7  1  0  0  0  0
  1 20  1  0  0  0  0
  4 21  2  0  0  0  0
  5  8  1  0  0  0  0
  5  9  1  0  0  0  0
  5 10  1  0  0  0  0
  6 11  1  0  0  0  0
  6 12  1  0  0  0  0
  6 17  1  0  0  0  0
  7 18  1  0  0  0  0
  7 21  1  0  0  0  0
  8 11  1  0  0  0  0
  8 35  1  0  0  0  0
  8 36  1  0  0  0  0
  9 12  1  0  0  0  0
  9 37  1  0  0  0  0
  9 38  1  0  0  0  0
 10 13  1  0  0  0  0
 10 39  1  0  0  0  0
 10 40  1  0  0  0  0
 11 41  1  0  0  0  0
 11 42  1  0  0  0  0
 12 43  1  0  0  0  0
 12 44  1  0  0  0  0
 13 14  1  0  0  0  0
 13 45  1  0  0  0  0
 13 46  1  0  0  0  0
 14 15  1  0  0  0  0
 14 47  1  0  0  0  0
 14 48  1  0  0  0  0
 15 16  1  0  0  0  0
 15 49  1  0  0  0  0
 15 50  1  0  0  0  0
 16 18  1  0  0  0  0
 16 51  1  0  0  0  0
 16 52  1  0  0  0  0
 17 19  1  0  0  0  0
 17 22  2  0  0  0  0
 18 53  1  0  0  0  0
 18 54  1  0  0  0  0
 19 24  1  0  0  0  0
 19 26  2  0  0  0  0
 20 23  1  0  0  0  0
 20 28  2  0  0  0  0
 21 23  1  0  0  0  0
 22 25  1  0  0  0  0
 22 55  1  0  0  0  0
 23 29  2  0  0  0  0
 24 27  1  0  0  0  0
 24 30  2  0  0  0  0
 25 27  2  0  0  0  0
 25 56  1  0  0  0  0
 26 31  1  0  0  0  0
 26 57  1  0  0  0  0
 27 58  1  0  0  0  0
 28 32  1  0  0  0  0
 28 59  1  0  0  0  0
 29 33  1  0  0  0  0
 29 60  1  0  0  0  0
 30 34  1  0  0  0  0
 30 61  1  0  0  0  0
 31 34  2  0  0  0  0
 31 63  1  0  0  0  0
 32 33  2  0  0  0  0
 32 62  1  0  0  0  0
 33 64  1  0  0  0  0
 34 65  1  0  0  0  0
M  END
> <PUBCHEM_COMPOUND_CID>
155523519

> <PUBCHEM_COMPOUND_CANONICALIZED>
1

> <PUBCHEM_CACTVS_COMPLEXITY>
789

> <PUBCHEM_CACTVS_HBOND_ACCEPTOR>
5

> <PUBCHEM_CACTVS_HBOND_DONOR>
0

> <PUBCHEM_CACTVS_ROTATABLE_BOND>
8

> <PUBCHEM_CACTVS_SUBSKEYS>
AAADceB7MABAAAAAAAAAAAAAAAAAAWAAAAA8YMEAAAAAAFjBVAAAHgQAQAAADAjB2AQwwcMAAAKIAiVSUHDCABAlAgAIiBkIZMgIYDLAlZGUIQhghgDIyYcYiICOgAAAQAAWAAAAAACAACwAAAAAAAAAAA==

> <PUBCHEM_IUPAC_OPENEYE_NAME>
2-[6-[4-(1-naphthyl)piperazin-1-yl]hexyl]-1,1-dioxo-1,2-benzothiazol-3-one

> <PUBCHEM_IUPAC_CAS_NAME>
2-[6-[4-(1-naphthalenyl)-1-piperazinyl]hexyl]-1,1-dioxo-1,2-benzothiazol-3-one

> <PUBCHEM_IUPAC_NAME_MARKUP>
2-[6-(4-naphthalen-1-ylpiperazin-1-yl)hexyl]-1,1-dioxo-1,2-benzothiazol-3-one

> <PUBCHEM_IUPAC_NAME>
2-[6-(4-naphthalen-1-ylpiperazin-1-yl)hexyl]-1,1-dioxo-1,2-benzothiazol-3-one

> <PUBCHEM_IUPAC_SYSTEMATIC_NAME>
2-[6-(4-naphthalen-1-ylpiperazin-1-yl)hexyl]-1,1-bis(oxidanylidene)-1,2-benzothiazol-3-one

> <PUBCHEM_IUPAC_TRADITIONAL_NAME>
1,1-diketo-2-[6-[4-(1-naphthyl)piperazino]hexyl]-1,2-benzothiazol-3-one

> <PUBCHEM_IUPAC_INCHI>
InChI=1S/C27H31N3O3S/c31-27-24-13-5-6-15-26(24)34(32,33)30(27)17-8-2-1-7-16-28-18-20-29(21-19-28)25-14-9-11-22-10-3-4-12-23(22)25/h3-6,9-15H,1-2,7-8,16-21H2

> <PUBCHEM_IUPAC_INCHIKEY>
CPJKSKGAJPQEPQ-UHFFFAOYSA-N

> <PUBCHEM_XLOGP3_AA>
4.9

> <PUBCHEM_EXACT_MASS>
477.20861303

> <PUBCHEM_MOLECULAR_FORMULA>
C27H31N3O3S

> <PUBCHEM_MOLECULAR_WEIGHT>
477.6

> <PUBCHEM_OPENEYE_CAN_SMILES>
C1CN(CCN1CCCCCCN2C(=O)C3=CC=CC=C3S2(=O)=O)C4=CC=CC5=CC=CC=C54

> <PUBCHEM_OPENEYE_ISO_SMILES>
C1CN(CCN1CCCCCCN2C(=O)C3=CC=CC=C3S2(=O)=O)C4=CC=CC5=CC=CC=C54

> <PUBCHEM_CACTVS_TPSA>
69.3

> <PUBCHEM_MONOISOTOPIC_WEIGHT>
477.20861303

> <PUBCHEM_TOTAL_CHARGE>
0

> <PUBCHEM_HEAVY_ATOM_COUNT>
34

> <PUBCHEM_ATOM_DEF_STEREO_COUNT>
0

> <PUBCHEM_ATOM_UDEF_STEREO_COUNT>
0

> <PUBCHEM_BOND_DEF_STEREO_COUNT>
0

> <PUBCHEM_BOND_UDEF_STEREO_COUNT>
0

> <PUBCHEM_ISOTOPIC_ATOM_COUNT>
0

> <PUBCHEM_COMPONENT_COUNT>
1

> <PUBCHEM_CACTVS_TAUTO_COUNT>
-1

> <PUBCHEM_COORDINATE_TYPE>
1
5
255

> <PUBCHEM_BONDANNOTATIONS>
17  19  8
17  22  8
19  24  8
19  26  8
20  23  8
20  28  8
22  25  8
23  29  8
24  27  8
24  30  8
25  27  8
26  31  8
28  32  8
29  33  8
30  34  8
31  34  8
32  33  8

$$$$
