11849820
  -OEChem-09292321592D

 51 53  0     0  0  0  0  0  0999 V2000
    4.5981    6.0000    0.0000 F   0  0  0  0  0  0  0  0  0  0  0  0
    6.3301    2.0000    0.0000 O   0  0  0  0  0  0  0  0  0  0  0  0
    2.8660   -1.0000    0.0000 N   0  0  0  0  0  0  0  0  0  0  0  0
    2.8660   -3.0000    0.0000 N   0  0  0  0  0  0  0  0  0  0  0  0
    3.7320   -4.5000    0.0000 N   0  0  0  0  0  0  0  0  0  0  0  0
    5.4641    1.5000    0.0000 N   0  0  0  0  0  0  0  0  0  0  0  0
    3.7320   -1.5000    0.0000 C   0  0  0  0  0  0  0  0  0  0  0  0
    2.0000   -1.5000    0.0000 C   0  0  0  0  0  0  0  0  0  0  0  0
    3.7320   -2.5000    0.0000 C   0  0  0  0  0  0  0  0  0  0  0  0
    2.0000   -2.5000    0.0000 C   0  0  0  0  0  0  0  0  0  0  0  0
    2.8660   -0.0000    0.0000 C   0  0  0  0  0  0  0  0  0  0  0  0
    3.7320    0.5000    0.0000 C   0  0  0  0  0  0  0  0  0  0  0  0
    2.8660   -4.0000    0.0000 C   0  0  0  0  0  0  0  0  0  0  0  0
    3.7320    1.5000    0.0000 C   0  0  0  0  0  0  0  0  0  0  0  0
    4.5981    2.0000    0.0000 C   0  0  0  0  0  0  0  0  0  0  0  0
    2.0000   -4.5000    0.0000 C   0  0  0  0  0  0  0  0  0  0  0  0
    4.5981    3.0000    0.0000 C   0  0  0  0  0  0  0  0  0  0  0  0
    2.0000   -5.5000    0.0000 C   0  0  0  0  0  0  0  0  0  0  0  0
    3.7320   -5.5000    0.0000 C   0  0  0  0  0  0  0  0  0  0  0  0
    2.8660   -6.0000    0.0000 C   0  0  0  0  0  0  0  0  0  0  0  0
    5.4641    3.5000    0.0000 C   0  0  0  0  0  0  0  0  0  0  0  0
    3.7320    3.5000    0.0000 C   0  0  0  0  0  0  0  0  0  0  0  0
    5.4641    4.5000    0.0000 C   0  0  0  0  0  0  0  0  0  0  0  0
    3.7320    4.5000    0.0000 C   0  0  0  0  0  0  0  0  0  0  0  0
    4.5981    5.0000    0.0000 C   0  0  0  0  0  0  0  0  0  0  0  0
    7.1962    1.5000    0.0000 C   0  0  0  0  0  0  0  0  0  0  0  0
    4.3426   -1.6077    0.0000 H   0  0  0  0  0  0  0  0  0  0  0  0
    3.9441   -0.9174    0.0000 H   0  0  0  0  0  0  0  0  0  0  0  0
    1.7880   -0.9174    0.0000 H   0  0  0  0  0  0  0  0  0  0  0  0
    1.3894   -1.6077    0.0000 H   0  0  0  0  0  0  0  0  0  0  0  0
    3.9441   -3.0826    0.0000 H   0  0  0  0  0  0  0  0  0  0  0  0
    4.3426   -2.3923    0.0000 H   0  0  0  0  0  0  0  0  0  0  0  0
    1.3894   -2.3923    0.0000 H   0  0  0  0  0  0  0  0  0  0  0  0
    1.7880   -3.0826    0.0000 H   0  0  0  0  0  0  0  0  0  0  0  0
    2.6540    0.5826    0.0000 H   0  0  0  0  0  0  0  0  0  0  0  0
    2.2554   -0.1077    0.0000 H   0  0  0  0  0  0  0  0  0  0  0  0
    3.9441   -0.0826    0.0000 H   0  0  0  0  0  0  0  0  0  0  0  0
    4.3426    0.6077    0.0000 H   0  0  0  0  0  0  0  0  0  0  0  0
    3.5200    2.0826    0.0000 H   0  0  0  0  0  0  0  0  0  0  0  0
    3.1215    1.3923    0.0000 H   0  0  0  0  0  0  0  0  0  0  0  0
    1.4631   -4.1900    0.0000 H   0  0  0  0  0  0  0  0  0  0  0  0
    1.4631   -5.8100    0.0000 H   0  0  0  0  0  0  0  0  0  0  0  0
    4.2690   -5.8100    0.0000 H   0  0  0  0  0  0  0  0  0  0  0  0
    2.8660   -6.6200    0.0000 H   0  0  0  0  0  0  0  0  0  0  0  0
    6.0010    3.1900    0.0000 H   0  0  0  0  0  0  0  0  0  0  0  0
    3.1951    3.1900    0.0000 H   0  0  0  0  0  0  0  0  0  0  0  0
    6.0010    4.8100    0.0000 H   0  0  0  0  0  0  0  0  0  0  0  0
    3.1951    4.8100    0.0000 H   0  0  0  0  0  0  0  0  0  0  0  0
    6.8862    0.9631    0.0000 H   0  0  0  0  0  0  0  0  0  0  0  0
    7.7331    1.1900    0.0000 H   0  0  0  0  0  0  0  0  0  0  0  0
    7.5062    2.0369    0.0000 H   0  0  0  0  0  0  0  0  0  0  0  0
  1 25  1  0  0  0  0
  2  6  1  0  0  0  0
  2 26  1  0  0  0  0
  3  7  1  0  0  0  0
  3  8  1  0  0  0  0
  3 11  1  0  0  0  0
  4  9  1  0  0  0  0
  4 10  1  0  0  0  0
  4 13  1  0  0  0  0
  5 13  1  0  0  0  0
  5 19  2  0  0  0  0
  6 15  2  0  0  0  0
  7  9  1  0  0  0  0
  7 27  1  0  0  0  0
  7 28  1  0  0  0  0
  8 10  1  0  0  0  0
  8 29  1  0  0  0  0
  8 30  1  0  0  0  0
  9 31  1  0  0  0  0
  9 32  1  0  0  0  0
 10 33  1  0  0  0  0
 10 34  1  0  0  0  0
 11 12  1  0  0  0  0
 11 35  1  0  0  0  0
 11 36  1  0  0  0  0
 12 14  1  0  0  0  0
 12 37  1  0  0  0  0
 12 38  1  0  0  0  0
 13 16  2  0  0  0  0
 14 15  1  0  0  0  0
 14 39  1  0  0  0  0
 14 40  1  0  0  0  0
 15 17  1  0  0  0  0
 16 18  1  0  0  0  0
 16 41  1  0  0  0  0
 17 21  2  0  0  0  0
 17 22  1  0  0  0  0
 18 20  2  0  0  0  0
 18 42  1  0  0  0  0
 19 20  1  0  0  0  0
 19 43  1  0  0  0  0
 20 44  1  0  0  0  0
 21 23  1  0  0  0  0
 21 45  1  0  0  0  0
 22 24  2  0  0  0  0
 22 46  1  0  0  0  0
 23 25  2  0  0  0  0
 23 47  1  0  0  0  0
 24 25  1  0  0  0  0
 24 48  1  0  0  0  0
 26 49  1  0  0  0  0
 26 50  1  0  0  0  0
 26 51  1  0  0  0  0
M  END
> <PUBCHEM_COMPOUND_CID>
11849820

> <PUBCHEM_COMPOUND_CANONICALIZED>
1

> <PUBCHEM_CACTVS_COMPLEXITY>
432

> <PUBCHEM_CACTVS_HBOND_ACCEPTOR>
6

> <PUBCHEM_CACTVS_HBOND_DONOR>
0

> <PUBCHEM_CACTVS_ROTATABLE_BOND>
7

> <PUBCHEM_CACTVS_SUBSKEYS>
AAADceB7oQAAAAAAAAAAAAAAAAAAAAAAAAA8WIAAAAAAAAABwAAAHwAEAAAADAjBGg4/sJMYEACgAzJnZACCgCkxAiAJ2CA4ZJiIYOLAmZGUIAhogALIyCcQgIAOAAAAAAAAAAAAAAAAAAAAAAAAAAAAAA==

> <PUBCHEM_IUPAC_OPENEYE_NAME>
(Z)-1-(4-fluorophenyl)-N-methoxy-4-[4-(2-pyridyl)piperazin-1-yl]butan-1-imine

> <PUBCHEM_IUPAC_CAS_NAME>
(Z)-1-(4-fluorophenyl)-N-methoxy-4-[4-(2-pyridinyl)-1-piperazinyl]-1-butanimine

> <PUBCHEM_IUPAC_NAME_MARKUP>
(<I>Z</I>)-1-(4-fluorophenyl)-<I>N</I>-methoxy-4-(4-pyridin-2-ylpiperazin-1-yl)butan-1-imine

> <PUBCHEM_IUPAC_NAME>
(Z)-1-(4-fluorophenyl)-N-methoxy-4-(4-pyridin-2-ylpiperazin-1-yl)butan-1-imine

> <PUBCHEM_IUPAC_SYSTEMATIC_NAME>
(Z)-1-(4-fluorophenyl)-N-methoxy-4-(4-pyridin-2-ylpiperazin-1-yl)butan-1-imine

> <PUBCHEM_IUPAC_TRADITIONAL_NAME>
(Z)-[1-(4-fluorophenyl)-4-[4-(2-pyridyl)piperazino]butylidene]-methoxy-amine

> <PUBCHEM_IUPAC_INCHI>
InChI=1S/C20H25FN4O/c1-26-23-19(17-7-9-18(21)10-8-17)5-4-12-24-13-15-25(16-14-24)20-6-2-3-11-22-20/h2-3,6-11H,4-5,12-16H2,1H3/b23-19-

> <PUBCHEM_IUPAC_INCHIKEY>
MBYKQBGSIZDRKG-NMWGTECJSA-N

> <PUBCHEM_XLOGP3>
3.9

> <PUBCHEM_EXACT_MASS>
356.20123960

> <PUBCHEM_MOLECULAR_FORMULA>
C20H25FN4O

> <PUBCHEM_MOLECULAR_WEIGHT>
356.4

> <PUBCHEM_OPENEYE_CAN_SMILES>
CON=C(CCCN1CCN(CC1)C2=CC=CC=N2)C3=CC=C(C=C3)F

> <PUBCHEM_OPENEYE_ISO_SMILES>
CO/N=C(/CCCN1CCN(CC1)C2=CC=CC=N2)\C3=CC=C(C=C3)F

> <PUBCHEM_CACTVS_TPSA>
41

> <PUBCHEM_MONOISOTOPIC_WEIGHT>
356.20123960

> <PUBCHEM_TOTAL_CHARGE>
0

> <PUBCHEM_HEAVY_ATOM_COUNT>
26

> <PUBCHEM_ATOM_DEF_STEREO_COUNT>
0

> <PUBCHEM_ATOM_UDEF_STEREO_COUNT>
0

> <PUBCHEM_BOND_DEF_STEREO_COUNT>
1

> <PUBCHEM_BOND_UDEF_STEREO_COUNT>
0

> <PUBCHEM_ISOTOPIC_ATOM_COUNT>
0

> <PUBCHEM_COMPONENT_COUNT>
1

> <PUBCHEM_CACTVS_TAUTO_COUNT>
-1

> <PUBCHEM_COORDINATE_TYPE>
1
5
255

> <PUBCHEM_BONDANNOTATIONS>
13  16  8
16  18  8
17  21  8
17  22  8
18  20  8
19  20  8
21  23  8
22  24  8
23  25  8
24  25  8
5  13  8
5  19  8

$$$$
