53323442
  -OEChem-09292322482D

 56 58  0     0  0  0  0  0  0999 V2000
    4.4457    0.0000    0.0000 Cl  0  0  0  0  0  0  0  0  0  0  0  0
    7.0636    5.8733    0.0000 S   0  0  0  0  0  0  0  0  0  0  0  0
    8.0141    5.5627    0.0000 O   0  0  0  0  0  0  0  0  0  0  0  0
    6.1131    6.1840    0.0000 O   0  0  0  0  0  0  0  0  0  0  0  0
    0.6106    3.6181    0.0000 N   0  0  0  0  0  0  0  0  0  0  0  0
    3.2087    5.1181    0.0000 N   0  0  0  0  0  0  0  0  0  0  0  0
    7.3366    4.1181    0.0000 N   0  0  0  0  0  0  0  0  0  0  0  0
    6.7530    3.3134    0.0000 N   0  0  0  0  0  0  0  0  0  0  0  0
    2.3426    4.6181    0.0000 C   0  0  0  0  0  0  0  0  0  0  0  0
    2.3426    3.6181    0.0000 C   0  0  0  0  0  0  0  0  0  0  0  0
    1.4766    5.1181    0.0000 C   0  0  0  0  0  0  0  0  0  0  0  0
    1.4766    3.1181    0.0000 C   0  0  0  0  0  0  0  0  0  0  0  0
    0.6106    4.6181    0.0000 C   0  0  0  0  0  0  0  0  0  0  0  0
    4.0747    4.6181    0.0000 C   0  0  0  0  0  0  0  0  0  0  0  0
    5.8067    4.6181    0.0000 C   0  0  0  0  0  0  0  0  0  0  0  0
    4.9407    5.1181    0.0000 C   0  0  0  0  0  0  0  0  0  0  0  0
    6.7530    4.9228    0.0000 C   0  0  0  0  0  0  0  0  0  0  0  0
    4.0747    3.6181    0.0000 C   0  0  0  0  0  0  0  0  0  0  0  0
    5.8067    3.6181    0.0000 C   0  0  0  0  0  0  0  0  0  0  0  0
    4.9407    3.1181    0.0000 C   0  0  0  0  0  0  0  0  0  0  0  0
    7.3743    6.8239    0.0000 C   0  0  0  0  0  0  0  0  0  0  0  0
    8.3063    9.6754    0.0000 C   0  0  0  0  0  0  0  0  0  0  0  0
    7.9956    8.7249    0.0000 C   0  0  0  0  0  0  0  0  0  0  0  0
    8.3528    7.0301    0.0000 C   0  0  0  0  0  0  0  0  0  0  0  0
    6.7064    7.5682    0.0000 C   0  0  0  0  0  0  0  0  0  0  0  0
    8.6634    7.9806    0.0000 C   0  0  0  0  0  0  0  0  0  0  0  0
    7.0171    8.5187    0.0000 C   0  0  0  0  0  0  0  0  0  0  0  0
    9.2848    9.8816    0.0000 C   0  0  0  0  0  0  0  0  0  0  0  0
    7.6384   10.4197    0.0000 C   0  0  0  0  0  0  0  0  0  0  0  0
    2.8796    4.3081    0.0000 H   0  0  0  0  0  0  0  0  0  0  0  0
    2.5547    3.0355    0.0000 H   0  0  0  0  0  0  0  0  0  0  0  0
    2.9532    3.7258    0.0000 H   0  0  0  0  0  0  0  0  0  0  0  0
    1.8751    5.5930    0.0000 H   0  0  0  0  0  0  0  0  0  0  0  0
    1.0781    5.5930    0.0000 H   0  0  0  0  0  0  0  0  0  0  0  0
    1.0781    2.6431    0.0000 H   0  0  0  0  0  0  0  0  0  0  0  0
    1.8751    2.6431    0.0000 H   0  0  0  0  0  0  0  0  0  0  0  0
    0.3985    5.2007    0.0000 H   0  0  0  0  0  0  0  0  0  0  0  0
    0.0000    4.5104    0.0000 H   0  0  0  0  0  0  0  0  0  0  0  0
    0.0736    3.3081    0.0000 H   0  0  0  0  0  0  0  0  0  0  0  0
    3.2087    5.7381    0.0000 H   0  0  0  0  0  0  0  0  0  0  0  0
    4.9407    5.7381    0.0000 H   0  0  0  0  0  0  0  0  0  0  0  0
    3.5378    3.3081    0.0000 H   0  0  0  0  0  0  0  0  0  0  0  0
    4.9407    2.4981    0.0000 H   0  0  0  0  0  0  0  0  0  0  0  0
    7.9566    4.1181    0.0000 H   0  0  0  0  0  0  0  0  0  0  0  0
    8.4989   10.2647    0.0000 H   0  0  0  0  0  0  0  0  0  0  0  0
    8.7668    6.5686    0.0000 H   0  0  0  0  0  0  0  0  0  0  0  0
    6.0998    7.4403    0.0000 H   0  0  0  0  0  0  0  0  0  0  0  0
    9.2701    8.1085    0.0000 H   0  0  0  0  0  0  0  0  0  0  0  0
    6.6030    8.9802    0.0000 H   0  0  0  0  0  0  0  0  0  0  0  0
    9.4126    9.2750    0.0000 H   0  0  0  0  0  0  0  0  0  0  0  0
    9.8914   10.0095    0.0000 H   0  0  0  0  0  0  0  0  0  0  0  0
    9.1569   10.4883    0.0000 H   0  0  0  0  0  0  0  0  0  0  0  0
    8.0999   10.8338    0.0000 H   0  0  0  0  0  0  0  0  0  0  0  0
    7.2244   10.8812    0.0000 H   0  0  0  0  0  0  0  0  0  0  0  0
    7.1770   10.0057    0.0000 H   0  0  0  0  0  0  0  0  0  0  0  0
    5.4457    0.0000    0.0000 H   0  0  0  0  0  0  0  0  0  0  0  0
  1 56  1  0  0  0  0
  2  3  2  0  0  0  0
  2  4  2  0  0  0  0
  2 17  1  0  0  0  0
  2 21  1  0  0  0  0
  5 12  1  0  0  0  0
  5 13  1  0  0  0  0
  5 39  1  0  0  0  0
  6  9  1  0  0  0  0
  6 14  1  0  0  0  0
  6 40  1  0  0  0  0
  7  8  1  0  0  0  0
  7 17  1  0  0  0  0
  7 44  1  0  0  0  0
  8 19  2  0  0  0  0
  9 10  1  0  0  0  0
  9 11  1  0  0  0  0
  9 30  1  0  0  0  0
 10 12  1  0  0  0  0
 10 31  1  0  0  0  0
 10 32  1  0  0  0  0
 11 13  1  0  0  0  0
 11 33  1  0  0  0  0
 11 34  1  0  0  0  0
 12 35  1  0  0  0  0
 12 36  1  0  0  0  0
 13 37  1  0  0  0  0
 13 38  1  0  0  0  0
 14 16  2  0  0  0  0
 14 18  1  0  0  0  0
 15 16  1  0  0  0  0
 15 17  2  0  0  0  0
 15 19  1  0  0  0  0
 16 41  1  0  0  0  0
 18 20  2  0  0  0  0
 18 42  1  0  0  0  0
 19 20  1  0  0  0  0
 20 43  1  0  0  0  0
 21 24  2  0  0  0  0
 21 25  1  0  0  0  0
 22 23  1  0  0  0  0
 22 28  1  0  0  0  0
 22 29  1  0  0  0  0
 22 45  1  0  0  0  0
 23 26  2  0  0  0  0
 23 27  1  0  0  0  0
 24 26  1  0  0  0  0
 24 46  1  0  0  0  0
 25 27  2  0  0  0  0
 25 47  1  0  0  0  0
 26 48  1  0  0  0  0
 27 49  1  0  0  0  0
 28 50  1  0  0  0  0
 28 51  1  0  0  0  0
 28 52  1  0  0  0  0
 29 53  1  0  0  0  0
 29 54  1  0  0  0  0
 29 55  1  0  0  0  0
M  END
> <PUBCHEM_COMPOUND_CID>
53323442

> <PUBCHEM_COMPOUND_CANONICALIZED>
1

> <PUBCHEM_CACTVS_COMPLEXITY>
606

> <PUBCHEM_CACTVS_HBOND_ACCEPTOR>
5

> <PUBCHEM_CACTVS_HBOND_DONOR>
4

> <PUBCHEM_CACTVS_ROTATABLE_BOND>
5

> <PUBCHEM_CACTVS_SUBSKEYS>
AAADceB7sABEAAAAAAAAAAAAAAAAAWAAAAA8YIAAAAAAAFgB9AAAHAQYAAAADSjBXgQywfLjAAqiAyRiQHDaBgBhChAYubg4ZJgIIKLg0dGEpAxgmADoyAcQgMAOkACAQAACAAAgAQCAAAQAAAAAAAAAAA==

> <PUBCHEM_IUPAC_OPENEYE_NAME>
3-(4-isopropylphenyl)sulfonyl-N-(4-piperidyl)-2H-indazol-5-amine;hydrochloride

> <PUBCHEM_IUPAC_CAS_NAME>
N-(4-piperidinyl)-3-(4-propan-2-ylphenyl)sulfonyl-2H-indazol-5-amine;hydrochloride

> <PUBCHEM_IUPAC_NAME_MARKUP>
<I>N</I>-piperidin-4-yl-3-(4-propan-2-ylphenyl)sulfonyl-2<I>H</I>-indazol-5-amine;hydrochloride

> <PUBCHEM_IUPAC_NAME>
N-piperidin-4-yl-3-(4-propan-2-ylphenyl)sulfonyl-2H-indazol-5-amine;hydrochloride

> <PUBCHEM_IUPAC_SYSTEMATIC_NAME>
N-piperidin-4-yl-3-(4-propan-2-ylphenyl)sulfonyl-2H-indazol-5-amine;hydrochloride

> <PUBCHEM_IUPAC_TRADITIONAL_NAME>
(3-p-cumenylsulfonyl-2H-indazol-5-yl)-(4-piperidyl)amine;hydrochloride

> <PUBCHEM_IUPAC_INCHI>
InChI=1S/C21H26N4O2S.ClH/c1-14(2)15-3-6-18(7-4-15)28(26,27)21-19-13-17(5-8-20(19)24-25-21)23-16-9-11-22-12-10-16;/h3-8,13-14,16,22-23H,9-12H2,1-2H3,(H,24,25);1H

> <PUBCHEM_IUPAC_INCHIKEY>
NFXNBSVLZRHYSN-UHFFFAOYSA-N

> <PUBCHEM_EXACT_MASS>
434.1543250

> <PUBCHEM_MOLECULAR_FORMULA>
C21H27ClN4O2S

> <PUBCHEM_MOLECULAR_WEIGHT>
435.0

> <PUBCHEM_OPENEYE_CAN_SMILES>
CC(C)C1=CC=C(C=C1)S(=O)(=O)C2=C3C=C(C=CC3=NN2)NC4CCNCC4.Cl

> <PUBCHEM_OPENEYE_ISO_SMILES>
CC(C)C1=CC=C(C=C1)S(=O)(=O)C2=C3C=C(C=CC3=NN2)NC4CCNCC4.Cl

> <PUBCHEM_CACTVS_TPSA>
95.3

> <PUBCHEM_MONOISOTOPIC_WEIGHT>
434.1543250

> <PUBCHEM_TOTAL_CHARGE>
0

> <PUBCHEM_HEAVY_ATOM_COUNT>
29

> <PUBCHEM_ATOM_DEF_STEREO_COUNT>
0

> <PUBCHEM_ATOM_UDEF_STEREO_COUNT>
0

> <PUBCHEM_BOND_DEF_STEREO_COUNT>
0

> <PUBCHEM_BOND_UDEF_STEREO_COUNT>
0

> <PUBCHEM_ISOTOPIC_ATOM_COUNT>
0

> <PUBCHEM_COMPONENT_COUNT>
2

> <PUBCHEM_CACTVS_TAUTO_COUNT>
-1

> <PUBCHEM_COORDINATE_TYPE>
1
5
255

> <PUBCHEM_BONDANNOTATIONS>
14  16  8
14  18  8
15  16  8
15  17  8
15  19  8
18  20  8
19  20  8
21  24  8
21  25  8
23  26  8
23  27  8
24  26  8
25  27  8
7  17  8
7  8  8
8  19  8

$$$$
