60204111
  -OEChem-09292322362D

 63 66  0     0  0  0  0  0  0999 V2000
   15.7619    3.0427    0.0000 O   0  0  0  0  0  0  0  0  0  0  0  0
    6.7619   -2.1535    0.0000 O   0  0  0  0  0  0  0  0  0  0  0  0
   10.7619    1.3106    0.0000 N   0  0  0  0  0  0  0  0  0  0  0  0
   12.7619    1.3106    0.0000 N   0  0  0  0  0  0  0  0  0  0  0  0
    6.7619   -0.4214    0.0000 N   0  0  0  0  0  0  0  0  0  0  0  0
    4.6783   -2.0922    0.0000 N   0  0  0  0  0  0  0  0  0  0  0  0
   11.2619    2.1767    0.0000 C   0  0  0  0  0  0  0  0  0  0  0  0
   11.2619    0.4446    0.0000 C   0  0  0  0  0  0  0  0  0  0  0  0
   12.2619    2.1767    0.0000 C   0  0  0  0  0  0  0  0  0  0  0  0
   12.2619    0.4446    0.0000 C   0  0  0  0  0  0  0  0  0  0  0  0
    9.7619    1.3106    0.0000 C   0  0  0  0  0  0  0  0  0  0  0  0
    9.2619    0.4446    0.0000 C   0  0  0  0  0  0  0  0  0  0  0  0
    8.2619    0.4446    0.0000 C   0  0  0  0  0  0  0  0  0  0  0  0
   13.7619    1.3106    0.0000 C   0  0  0  0  0  0  0  0  0  0  0  0
    7.7619   -0.4214    0.0000 C   0  0  0  0  0  0  0  0  0  0  0  0
   14.2619    2.1767    0.0000 C   0  0  0  0  0  0  0  0  0  0  0  0
   14.2619    0.4446    0.0000 C   0  0  0  0  0  0  0  0  0  0  0  0
   15.2619    2.1767    0.0000 C   0  0  0  0  0  0  0  0  0  0  0  0
   15.2619    0.4446    0.0000 C   0  0  0  0  0  0  0  0  0  0  0  0
    5.2619   -1.2874    0.0000 C   0  0  0  0  0  0  0  0  0  0  0  0
    6.2619   -1.2874    0.0000 C   0  0  0  0  0  0  0  0  0  0  0  0
   15.7619    1.3106    0.0000 C   0  0  0  0  0  0  0  0  0  0  0  0
    3.7320   -1.7874    0.0000 C   0  0  0  0  0  0  0  0  0  0  0  0
    3.7320   -0.7874    0.0000 C   0  0  0  0  0  0  0  0  0  0  0  0
    4.6783   -0.4827    0.0000 C   0  0  0  0  0  0  0  0  0  0  0  0
    4.9889   -3.0427    0.0000 C   0  0  0  0  0  0  0  0  0  0  0  0
    2.8660   -2.2874    0.0000 C   0  0  0  0  0  0  0  0  0  0  0  0
    2.8660   -0.2874    0.0000 C   0  0  0  0  0  0  0  0  0  0  0  0
    2.0000   -1.7874    0.0000 C   0  0  0  0  0  0  0  0  0  0  0  0
    2.0000   -0.7874    0.0000 C   0  0  0  0  0  0  0  0  0  0  0  0
   16.7619    3.0427    0.0000 C   0  0  0  0  0  0  0  0  0  0  0  0
   11.3695    2.7872    0.0000 H   0  0  0  0  0  0  0  0  0  0  0  0
   10.6793    2.3887    0.0000 H   0  0  0  0  0  0  0  0  0  0  0  0
   10.6793    0.2326    0.0000 H   0  0  0  0  0  0  0  0  0  0  0  0
   11.3695   -0.1660    0.0000 H   0  0  0  0  0  0  0  0  0  0  0  0
   12.8445    2.3887    0.0000 H   0  0  0  0  0  0  0  0  0  0  0  0
   12.1542    2.7872    0.0000 H   0  0  0  0  0  0  0  0  0  0  0  0
   12.1542   -0.1660    0.0000 H   0  0  0  0  0  0  0  0  0  0  0  0
   12.8445    0.2326    0.0000 H   0  0  0  0  0  0  0  0  0  0  0  0
    9.8695    1.9212    0.0000 H   0  0  0  0  0  0  0  0  0  0  0  0
    9.1793    1.5227    0.0000 H   0  0  0  0  0  0  0  0  0  0  0  0
    9.1542   -0.1660    0.0000 H   0  0  0  0  0  0  0  0  0  0  0  0
    9.8445    0.2326    0.0000 H   0  0  0  0  0  0  0  0  0  0  0  0
    8.3695    1.0552    0.0000 H   0  0  0  0  0  0  0  0  0  0  0  0
    7.6793    0.6567    0.0000 H   0  0  0  0  0  0  0  0  0  0  0  0
    7.6542   -1.0320    0.0000 H   0  0  0  0  0  0  0  0  0  0  0  0
    8.3445   -0.6335    0.0000 H   0  0  0  0  0  0  0  0  0  0  0  0
   13.9519    2.7136    0.0000 H   0  0  0  0  0  0  0  0  0  0  0  0
   13.9519   -0.0923    0.0000 H   0  0  0  0  0  0  0  0  0  0  0  0
    6.4519    0.1155    0.0000 H   0  0  0  0  0  0  0  0  0  0  0  0
   15.5719   -0.0923    0.0000 H   0  0  0  0  0  0  0  0  0  0  0  0
   16.3819    1.3106    0.0000 H   0  0  0  0  0  0  0  0  0  0  0  0
    4.8709    0.1066    0.0000 H   0  0  0  0  0  0  0  0  0  0  0  0
    4.3996   -3.2353    0.0000 H   0  0  0  0  0  0  0  0  0  0  0  0
    5.1815   -3.6320    0.0000 H   0  0  0  0  0  0  0  0  0  0  0  0
    5.5783   -2.8501    0.0000 H   0  0  0  0  0  0  0  0  0  0  0  0
    2.8660   -2.9074    0.0000 H   0  0  0  0  0  0  0  0  0  0  0  0
    2.8660    0.3326    0.0000 H   0  0  0  0  0  0  0  0  0  0  0  0
    1.4631   -2.0974    0.0000 H   0  0  0  0  0  0  0  0  0  0  0  0
    1.4631   -0.4774    0.0000 H   0  0  0  0  0  0  0  0  0  0  0  0
   16.7619    2.4227    0.0000 H   0  0  0  0  0  0  0  0  0  0  0  0
   17.3819    3.0427    0.0000 H   0  0  0  0  0  0  0  0  0  0  0  0
   16.7619    3.6627    0.0000 H   0  0  0  0  0  0  0  0  0  0  0  0
  1 18  1  0  0  0  0
  1 31  1  0  0  0  0
  2 21  2  0  0  0  0
  3  7  1  0  0  0  0
  3  8  1  0  0  0  0
  3 11  1  0  0  0  0
  4  9  1  0  0  0  0
  4 10  1  0  0  0  0
  4 14  1  0  0  0  0
  5 15  1  0  0  0  0
  5 21  1  0  0  0  0
  5 50  1  0  0  0  0
  6 20  1  0  0  0  0
  6 23  1  0  0  0  0
  6 26  1  0  0  0  0
  7  9  1  0  0  0  0
  7 32  1  0  0  0  0
  7 33  1  0  0  0  0
  8 10  1  0  0  0  0
  8 34  1  0  0  0  0
  8 35  1  0  0  0  0
  9 36  1  0  0  0  0
  9 37  1  0  0  0  0
 10 38  1  0  0  0  0
 10 39  1  0  0  0  0
 11 12  1  0  0  0  0
 11 40  1  0  0  0  0
 11 41  1  0  0  0  0
 12 13  1  0  0  0  0
 12 42  1  0  0  0  0
 12 43  1  0  0  0  0
 13 15  1  0  0  0  0
 13 44  1  0  0  0  0
 13 45  1  0  0  0  0
 14 16  2  0  0  0  0
 14 17  1  0  0  0  0
 15 46  1  0  0  0  0
 15 47  1  0  0  0  0
 16 18  1  0  0  0  0
 16 48  1  0  0  0  0
 17 19  2  0  0  0  0
 17 49  1  0  0  0  0
 18 22  2  0  0  0  0
 19 22  1  0  0  0  0
 19 51  1  0  0  0  0
 20 21  1  0  0  0  0
 20 25  2  0  0  0  0
 22 52  1  0  0  0  0
 23 24  1  0  0  0  0
 23 27  2  0  0  0  0
 24 25  1  0  0  0  0
 24 28  2  0  0  0  0
 25 53  1  0  0  0  0
 26 54  1  0  0  0  0
 26 55  1  0  0  0  0
 26 56  1  0  0  0  0
 27 29  1  0  0  0  0
 27 57  1  0  0  0  0
 28 30  1  0  0  0  0
 28 58  1  0  0  0  0
 29 30  2  0  0  0  0
 29 59  1  0  0  0  0
 30 60  1  0  0  0  0
 31 61  1  0  0  0  0
 31 62  1  0  0  0  0
 31 63  1  0  0  0  0
M  END
> <PUBCHEM_COMPOUND_CID>
60204111

> <PUBCHEM_COMPOUND_CANONICALIZED>
1

> <PUBCHEM_CACTVS_COMPLEXITY>
566

> <PUBCHEM_CACTVS_HBOND_ACCEPTOR>
4

> <PUBCHEM_CACTVS_HBOND_DONOR>
1

> <PUBCHEM_CACTVS_ROTATABLE_BOND>
8

> <PUBCHEM_CACTVS_SUBSKEYS>
AAADcfB7sAAAAAAAAAAAAAAAAAAAAWAAAAA8YIAAAAAAAFgB9AAAHgAQAAAADAzBngYyxvPMFACoAyVyVACCiCAnIiAI2KG+bNgMZvLEtbuUMShm1hnI6YeY2YOeAAAAAgACAAAAAAAEAAQAAAAAAAAAAA==

> <PUBCHEM_IUPAC_OPENEYE_NAME>
N-[4-[4-(3-methoxyphenyl)piperazin-1-yl]butyl]-1-methyl-indole-2-carboxamide

> <PUBCHEM_IUPAC_CAS_NAME>
N-[4-[4-(3-methoxyphenyl)-1-piperazinyl]butyl]-1-methyl-2-indolecarboxamide

> <PUBCHEM_IUPAC_NAME_MARKUP>
<I>N</I>-[4-[4-(3-methoxyphenyl)piperazin-1-yl]butyl]-1-methylindole-2-carboxamide

> <PUBCHEM_IUPAC_NAME>
N-[4-[4-(3-methoxyphenyl)piperazin-1-yl]butyl]-1-methylindole-2-carboxamide

> <PUBCHEM_IUPAC_SYSTEMATIC_NAME>
N-[4-[4-(3-methoxyphenyl)piperazin-1-yl]butyl]-1-methyl-indole-2-carboxamide

> <PUBCHEM_IUPAC_TRADITIONAL_NAME>
N-[4-[4-(3-methoxyphenyl)piperazino]butyl]-1-methyl-indole-2-carboxamide

> <PUBCHEM_IUPAC_INCHI>
InChI=1S/C25H32N4O2/c1-27-23-11-4-3-8-20(23)18-24(27)25(30)26-12-5-6-13-28-14-16-29(17-15-28)21-9-7-10-22(19-21)31-2/h3-4,7-11,18-19H,5-6,12-17H2,1-2H3,(H,26,30)

> <PUBCHEM_IUPAC_INCHIKEY>
KXFNVJFOSNKNAT-UHFFFAOYSA-N

> <PUBCHEM_XLOGP3_AA>
3.9

> <PUBCHEM_EXACT_MASS>
420.25252628

> <PUBCHEM_MOLECULAR_FORMULA>
C25H32N4O2

> <PUBCHEM_MOLECULAR_WEIGHT>
420.5

> <PUBCHEM_OPENEYE_CAN_SMILES>
CN1C2=CC=CC=C2C=C1C(=O)NCCCCN3CCN(CC3)C4=CC(=CC=C4)OC

> <PUBCHEM_OPENEYE_ISO_SMILES>
CN1C2=CC=CC=C2C=C1C(=O)NCCCCN3CCN(CC3)C4=CC(=CC=C4)OC

> <PUBCHEM_CACTVS_TPSA>
49.7

> <PUBCHEM_MONOISOTOPIC_WEIGHT>
420.25252628

> <PUBCHEM_TOTAL_CHARGE>
0

> <PUBCHEM_HEAVY_ATOM_COUNT>
31

> <PUBCHEM_ATOM_DEF_STEREO_COUNT>
0

> <PUBCHEM_ATOM_UDEF_STEREO_COUNT>
0

> <PUBCHEM_BOND_DEF_STEREO_COUNT>
0

> <PUBCHEM_BOND_UDEF_STEREO_COUNT>
0

> <PUBCHEM_ISOTOPIC_ATOM_COUNT>
0

> <PUBCHEM_COMPONENT_COUNT>
1

> <PUBCHEM_CACTVS_TAUTO_COUNT>
-1

> <PUBCHEM_COORDINATE_TYPE>
1
5
255

> <PUBCHEM_BONDANNOTATIONS>
14  16  8
14  17  8
16  18  8
17  19  8
18  22  8
19  22  8
20  25  8
23  24  8
23  27  8
24  25  8
24  28  8
27  29  8
28  30  8
29  30  8
6  20  8
6  23  8

$$$$
