137659335
  -OEChem-09292322462D

 72 76  0     0  0  0  0  0  0999 V2000
    4.6701   -3.2148    0.0000 S   0  0  0  0  0  0  0  0  0  0  0  0
    6.4021    7.7852    0.0000 O   0  0  0  0  0  0  0  0  0  0  0  0
    6.4021   -0.2148    0.0000 N   0  0  0  0  0  0  0  0  0  0  0  0
    6.4021    3.7852    0.0000 N   0  0  0  0  0  0  0  0  0  0  0  0
    3.8611   -4.8026    0.0000 N   0  0  0  0  0  0  0  0  0  0  0  0
    5.4791   -4.8026    0.0000 N   0  0  0  0  0  0  0  0  0  0  0  0
    5.1701   -5.7536    0.0000 N   0  0  0  0  0  0  0  0  0  0  0  0
    6.4021    1.7852    0.0000 C   0  0  0  0  0  0  0  0  0  0  0  0
    5.5361    1.2852    0.0000 C   0  0  0  0  0  0  0  0  0  0  0  0
    7.2682    1.2852    0.0000 C   0  0  0  0  0  0  0  0  0  0  0  0
    5.5361    2.2852    0.0000 C   0  0  0  0  0  0  0  0  0  0  0  0
    7.2682    2.2852    0.0000 C   0  0  0  0  0  0  0  0  0  0  0  0
    5.5361    0.2852    0.0000 C   0  0  0  0  0  0  0  0  0  0  0  0
    7.2682    0.2852    0.0000 C   0  0  0  0  0  0  0  0  0  0  0  0
    5.5361    3.2852    0.0000 C   0  0  0  0  0  0  0  0  0  0  0  0
    7.2682    3.2852    0.0000 C   0  0  0  0  0  0  0  0  0  0  0  0
    6.4021   -1.2148    0.0000 C   0  0  0  0  0  0  0  0  0  0  0  0
    6.4021    4.7852    0.0000 C   0  0  0  0  0  0  0  0  0  0  0  0
    5.5361   -1.7148    0.0000 C   0  0  0  0  0  0  0  0  0  0  0  0
    5.5361    5.2852    0.0000 C   0  0  0  0  0  0  0  0  0  0  0  0
    7.2682    5.2852    0.0000 C   0  0  0  0  0  0  0  0  0  0  0  0
    5.5361   -2.7148    0.0000 C   0  0  0  0  0  0  0  0  0  0  0  0
    5.5361    6.2852    0.0000 C   0  0  0  0  0  0  0  0  0  0  0  0
    7.2682    6.2852    0.0000 C   0  0  0  0  0  0  0  0  0  0  0  0
    6.4021    6.7852    0.0000 C   0  0  0  0  0  0  0  0  0  0  0  0
    4.6701   -4.2148    0.0000 C   0  0  0  0  0  0  0  0  0  0  0  0
    7.2682    8.2852    0.0000 C   0  0  0  0  0  0  0  0  0  0  0  0
    4.1701   -5.7536    0.0000 C   0  0  0  0  0  0  0  0  0  0  0  0
    2.9100   -4.4936    0.0000 C   0  0  0  0  0  0  0  0  0  0  0  0
    3.5823   -6.5626    0.0000 C   0  0  0  0  0  0  0  0  0  0  0  0
    3.9890   -7.4762    0.0000 C   0  0  0  0  0  0  0  0  0  0  0  0
    2.5878   -6.4581    0.0000 C   0  0  0  0  0  0  0  0  0  0  0  0
    3.4013   -8.2852    0.0000 C   0  0  0  0  0  0  0  0  0  0  0  0
    2.0000   -7.2671    0.0000 C   0  0  0  0  0  0  0  0  0  0  0  0
    2.4067   -8.1807    0.0000 C   0  0  0  0  0  0  0  0  0  0  0  0
    5.3241    1.8678    0.0000 H   0  0  0  0  0  0  0  0  0  0  0  0
    4.9255    1.1776    0.0000 H   0  0  0  0  0  0  0  0  0  0  0  0
    7.8788    1.1776    0.0000 H   0  0  0  0  0  0  0  0  0  0  0  0
    7.4802    1.8678    0.0000 H   0  0  0  0  0  0  0  0  0  0  0  0
    4.9255    2.3929    0.0000 H   0  0  0  0  0  0  0  0  0  0  0  0
    5.3241    1.7026    0.0000 H   0  0  0  0  0  0  0  0  0  0  0  0
    7.4802    1.7026    0.0000 H   0  0  0  0  0  0  0  0  0  0  0  0
    7.8788    2.3929    0.0000 H   0  0  0  0  0  0  0  0  0  0  0  0
    4.9255    0.3929    0.0000 H   0  0  0  0  0  0  0  0  0  0  0  0
    5.3241   -0.2974    0.0000 H   0  0  0  0  0  0  0  0  0  0  0  0
    7.4802   -0.2974    0.0000 H   0  0  0  0  0  0  0  0  0  0  0  0
    7.8788    0.3929    0.0000 H   0  0  0  0  0  0  0  0  0  0  0  0
    5.3241    3.8678    0.0000 H   0  0  0  0  0  0  0  0  0  0  0  0
    4.9255    3.1776    0.0000 H   0  0  0  0  0  0  0  0  0  0  0  0
    7.8788    3.1776    0.0000 H   0  0  0  0  0  0  0  0  0  0  0  0
    7.4802    3.8678    0.0000 H   0  0  0  0  0  0  0  0  0  0  0  0
    6.6142   -1.7974    0.0000 H   0  0  0  0  0  0  0  0  0  0  0  0
    7.0127   -1.1071    0.0000 H   0  0  0  0  0  0  0  0  0  0  0  0
    5.3241   -1.1322    0.0000 H   0  0  0  0  0  0  0  0  0  0  0  0
    4.9255   -1.8224    0.0000 H   0  0  0  0  0  0  0  0  0  0  0  0
    4.9992    4.9752    0.0000 H   0  0  0  0  0  0  0  0  0  0  0  0
    7.8051    4.9752    0.0000 H   0  0  0  0  0  0  0  0  0  0  0  0
    5.7482   -3.2974    0.0000 H   0  0  0  0  0  0  0  0  0  0  0  0
    6.1467   -2.6071    0.0000 H   0  0  0  0  0  0  0  0  0  0  0  0
    4.9992    6.5952    0.0000 H   0  0  0  0  0  0  0  0  0  0  0  0
    7.8051    6.5952    0.0000 H   0  0  0  0  0  0  0  0  0  0  0  0
    7.5782    7.7483    0.0000 H   0  0  0  0  0  0  0  0  0  0  0  0
    7.8051    8.5952    0.0000 H   0  0  0  0  0  0  0  0  0  0  0  0
    6.9582    8.8222    0.0000 H   0  0  0  0  0  0  0  0  0  0  0  0
    3.1016   -3.9039    0.0000 H   0  0  0  0  0  0  0  0  0  0  0  0
    2.3204   -4.3020    0.0000 H   0  0  0  0  0  0  0  0  0  0  0  0
    2.7184   -5.0832    0.0000 H   0  0  0  0  0  0  0  0  0  0  0  0
    4.6056   -7.5410    0.0000 H   0  0  0  0  0  0  0  0  0  0  0  0
    2.3356   -5.8917    0.0000 H   0  0  0  0  0  0  0  0  0  0  0  0
    3.6534   -8.8516    0.0000 H   0  0  0  0  0  0  0  0  0  0  0  0
    1.3834   -7.2023    0.0000 H   0  0  0  0  0  0  0  0  0  0  0  0
    2.0423   -8.6823    0.0000 H   0  0  0  0  0  0  0  0  0  0  0  0
  1 22  1  0  0  0  0
  1 26  1  0  0  0  0
  2 25  1  0  0  0  0
  2 27  1  0  0  0  0
  3 13  1  0  0  0  0
  3 14  1  0  0  0  0
  3 17  1  0  0  0  0
  4 15  1  0  0  0  0
  4 16  1  0  0  0  0
  4 18  1  0  0  0  0
  5 26  1  0  0  0  0
  5 28  1  0  0  0  0
  5 29  1  0  0  0  0
  6  7  1  0  0  0  0
  6 26  2  0  0  0  0
  7 28  2  0  0  0  0
  8  9  1  0  0  0  0
  8 10  1  0  0  0  0
  8 11  1  0  0  0  0
  8 12  1  0  0  0  0
  9 13  1  0  0  0  0
  9 36  1  0  0  0  0
  9 37  1  0  0  0  0
 10 14  1  0  0  0  0
 10 38  1  0  0  0  0
 10 39  1  0  0  0  0
 11 15  1  0  0  0  0
 11 40  1  0  0  0  0
 11 41  1  0  0  0  0
 12 16  1  0  0  0  0
 12 42  1  0  0  0  0
 12 43  1  0  0  0  0
 13 44  1  0  0  0  0
 13 45  1  0  0  0  0
 14 46  1  0  0  0  0
 14 47  1  0  0  0  0
 15 48  1  0  0  0  0
 15 49  1  0  0  0  0
 16 50  1  0  0  0  0
 16 51  1  0  0  0  0
 17 19  1  0  0  0  0
 17 52  1  0  0  0  0
 17 53  1  0  0  0  0
 18 20  2  0  0  0  0
 18 21  1  0  0  0  0
 19 22  1  0  0  0  0
 19 54  1  0  0  0  0
 19 55  1  0  0  0  0
 20 23  1  0  0  0  0
 20 56  1  0  0  0  0
 21 24  2  0  0  0  0
 21 57  1  0  0  0  0
 22 58  1  0  0  0  0
 22 59  1  0  0  0  0
 23 25  2  0  0  0  0
 23 60  1  0  0  0  0
 24 25  1  0  0  0  0
 24 61  1  0  0  0  0
 27 62  1  0  0  0  0
 27 63  1  0  0  0  0
 27 64  1  0  0  0  0
 28 30  1  0  0  0  0
 29 65  1  0  0  0  0
 29 66  1  0  0  0  0
 29 67  1  0  0  0  0
 30 31  2  0  0  0  0
 30 32  1  0  0  0  0
 31 33  1  0  0  0  0
 31 68  1  0  0  0  0
 32 34  2  0  0  0  0
 32 69  1  0  0  0  0
 33 35  2  0  0  0  0
 33 70  1  0  0  0  0
 34 35  1  0  0  0  0
 34 71  1  0  0  0  0
 35 72  1  0  0  0  0
M  END
> <PUBCHEM_COMPOUND_CID>
137659335

> <PUBCHEM_COMPOUND_CANONICALIZED>
1

> <PUBCHEM_CACTVS_COMPLEXITY>
621

> <PUBCHEM_CACTVS_HBOND_ACCEPTOR>
6

> <PUBCHEM_CACTVS_HBOND_DONOR>
0

> <PUBCHEM_CACTVS_ROTATABLE_BOND>
8

> <PUBCHEM_CACTVS_SUBSKEYS>
AAADcfB7oABAAAAAAAAAAAAAAAAAAWAAAAA8eIEAAAAAAAAB0AAAHgQIAAAADgzF2waz1ocMFAiiAiZiZACS2AthIrAdyCAubJiMLqLkuZuEMChkyBPI6AewwAAPAEAAAAAAAAAAgAAAAAAAAAAAAAAAAA==

> <PUBCHEM_IUPAC_OPENEYE_NAME>
3-(4-methoxyphenyl)-9-[3-[(4-methyl-5-phenyl-1,2,4-triazol-3-yl)sulfanyl]propyl]-3,9-diazaspiro[5.5]undecane

> <PUBCHEM_IUPAC_CAS_NAME>
3-(4-methoxyphenyl)-9-[3-[(4-methyl-5-phenyl-1,2,4-triazol-3-yl)thio]propyl]-3,9-diazaspiro[5.5]undecane

> <PUBCHEM_IUPAC_NAME_MARKUP>
3-(4-methoxyphenyl)-9-[3-[(4-methyl-5-phenyl-1,2,4-triazol-3-yl)sulfanyl]propyl]-3,9-diazaspiro[5.5]undecane

> <PUBCHEM_IUPAC_NAME>
3-(4-methoxyphenyl)-9-[3-[(4-methyl-5-phenyl-1,2,4-triazol-3-yl)sulfanyl]propyl]-3,9-diazaspiro[5.5]undecane

> <PUBCHEM_IUPAC_SYSTEMATIC_NAME>
3-(4-methoxyphenyl)-9-[3-[(4-methyl-5-phenyl-1,2,4-triazol-3-yl)sulfanyl]propyl]-3,9-diazaspiro[5.5]undecane

> <PUBCHEM_IUPAC_TRADITIONAL_NAME>
3-(4-methoxyphenyl)-9-[3-[(4-methyl-5-phenyl-1,2,4-triazol-3-yl)thio]propyl]-3,9-diazaspiro[5.5]undecane

> <PUBCHEM_IUPAC_INCHI>
InChI=1S/C28H37N5OS/c1-31-26(23-7-4-3-5-8-23)29-30-27(31)35-22-6-17-32-18-13-28(14-19-32)15-20-33(21-16-28)24-9-11-25(34-2)12-10-24/h3-5,7-12H,6,13-22H2,1-2H3

> <PUBCHEM_IUPAC_INCHIKEY>
RBVCBWQAGOAYTL-UHFFFAOYSA-N

> <PUBCHEM_XLOGP3_AA>
5.2

> <PUBCHEM_EXACT_MASS>
491.27188199

> <PUBCHEM_MOLECULAR_FORMULA>
C28H37N5OS

> <PUBCHEM_MOLECULAR_WEIGHT>
491.7

> <PUBCHEM_OPENEYE_CAN_SMILES>
CN1C(=NN=C1SCCCN2CCC3(CC2)CCN(CC3)C4=CC=C(C=C4)OC)C5=CC=CC=C5

> <PUBCHEM_OPENEYE_ISO_SMILES>
CN1C(=NN=C1SCCCN2CCC3(CC2)CCN(CC3)C4=CC=C(C=C4)OC)C5=CC=CC=C5

> <PUBCHEM_CACTVS_TPSA>
71.7

> <PUBCHEM_MONOISOTOPIC_WEIGHT>
491.27188199

> <PUBCHEM_TOTAL_CHARGE>
0

> <PUBCHEM_HEAVY_ATOM_COUNT>
35

> <PUBCHEM_ATOM_DEF_STEREO_COUNT>
0

> <PUBCHEM_ATOM_UDEF_STEREO_COUNT>
0

> <PUBCHEM_BOND_DEF_STEREO_COUNT>
0

> <PUBCHEM_BOND_UDEF_STEREO_COUNT>
0

> <PUBCHEM_ISOTOPIC_ATOM_COUNT>
0

> <PUBCHEM_COMPONENT_COUNT>
1

> <PUBCHEM_CACTVS_TAUTO_COUNT>
-1

> <PUBCHEM_COORDINATE_TYPE>
1
5
255

> <PUBCHEM_BONDANNOTATIONS>
18  20  8
18  21  8
20  23  8
21  24  8
23  25  8
24  25  8
30  31  8
30  32  8
31  33  8
32  34  8
33  35  8
34  35  8
5  26  8
5  28  8
6  26  8
6  7  8
7  28  8

$$$$
