71725039
  -OEChem-09292322012D

 52 56  0     0  0  0  0  0  0999 V2000
    9.7619    2.0606    0.0000 O   0  0  0  0  0  0  0  0  0  0  0  0
    6.7619   -3.1356    0.0000 O   0  0  0  0  0  0  0  0  0  0  0  0
   12.9290    3.6636    0.0000 O   0  0  0  0  0  0  0  0  0  0  0  0
   13.7337    2.2698    0.0000 O   0  0  0  0  0  0  0  0  0  0  0  0
    7.7619    0.3285    0.0000 N   0  0  0  0  0  0  0  0  0  0  0  0
    6.7619   -1.4035    0.0000 N   0  0  0  0  0  0  0  0  0  0  0  0
    4.6783   -3.0743    0.0000 N   0  0  0  0  0  0  0  0  0  0  0  0
    6.7619    0.3285    0.0000 C   0  0  0  0  0  0  0  0  0  0  0  0
    8.2619   -0.5375    0.0000 C   0  0  0  0  0  0  0  0  0  0  0  0
    6.2619   -0.5375    0.0000 C   0  0  0  0  0  0  0  0  0  0  0  0
    7.7619   -1.4035    0.0000 C   0  0  0  0  0  0  0  0  0  0  0  0
    8.2619    1.1945    0.0000 C   0  0  0  0  0  0  0  0  0  0  0  0
    6.2619   -2.2696    0.0000 C   0  0  0  0  0  0  0  0  0  0  0  0
    9.2619    1.1945    0.0000 C   0  0  0  0  0  0  0  0  0  0  0  0
    5.2619   -2.2696    0.0000 C   0  0  0  0  0  0  0  0  0  0  0  0
    4.6783   -1.4648    0.0000 C   0  0  0  0  0  0  0  0  0  0  0  0
    3.7320   -2.7696    0.0000 C   0  0  0  0  0  0  0  0  0  0  0  0
    3.7320   -1.7696    0.0000 C   0  0  0  0  0  0  0  0  0  0  0  0
   10.7619    2.0606    0.0000 C   0  0  0  0  0  0  0  0  0  0  0  0
    2.8660   -3.2696    0.0000 C   0  0  0  0  0  0  0  0  0  0  0  0
    2.8660   -1.2696    0.0000 C   0  0  0  0  0  0  0  0  0  0  0  0
   11.2619    2.9266    0.0000 C   0  0  0  0  0  0  0  0  0  0  0  0
    2.0000   -2.7696    0.0000 C   0  0  0  0  0  0  0  0  0  0  0  0
    2.0000   -1.7696    0.0000 C   0  0  0  0  0  0  0  0  0  0  0  0
   11.2619    1.1945    0.0000 C   0  0  0  0  0  0  0  0  0  0  0  0
   12.2619    2.9266    0.0000 C   0  0  0  0  0  0  0  0  0  0  0  0
   12.7619    2.0606    0.0000 C   0  0  0  0  0  0  0  0  0  0  0  0
   12.2619    1.1945    0.0000 C   0  0  0  0  0  0  0  0  0  0  0  0
   13.8368    3.2585    0.0000 C   0  0  0  0  0  0  0  0  0  0  0  0
    6.8695    0.9391    0.0000 H   0  0  0  0  0  0  0  0  0  0  0  0
    6.1793    0.5406    0.0000 H   0  0  0  0  0  0  0  0  0  0  0  0
    8.7368   -0.9360    0.0000 H   0  0  0  0  0  0  0  0  0  0  0  0
    8.7368   -0.1390    0.0000 H   0  0  0  0  0  0  0  0  0  0  0  0
    5.7869   -0.1390    0.0000 H   0  0  0  0  0  0  0  0  0  0  0  0
    5.7869   -0.9360    0.0000 H   0  0  0  0  0  0  0  0  0  0  0  0
    7.6542   -2.0141    0.0000 H   0  0  0  0  0  0  0  0  0  0  0  0
    8.3445   -1.6156    0.0000 H   0  0  0  0  0  0  0  0  0  0  0  0
    8.3695    1.8051    0.0000 H   0  0  0  0  0  0  0  0  0  0  0  0
    7.6793    1.4066    0.0000 H   0  0  0  0  0  0  0  0  0  0  0  0
    9.1542    0.5840    0.0000 H   0  0  0  0  0  0  0  0  0  0  0  0
    9.8445    0.9825    0.0000 H   0  0  0  0  0  0  0  0  0  0  0  0
    4.8709   -3.6636    0.0000 H   0  0  0  0  0  0  0  0  0  0  0  0
    4.8709   -0.8755    0.0000 H   0  0  0  0  0  0  0  0  0  0  0  0
    2.8660   -3.8896    0.0000 H   0  0  0  0  0  0  0  0  0  0  0  0
    2.8660   -0.6496    0.0000 H   0  0  0  0  0  0  0  0  0  0  0  0
   10.9519    3.4635    0.0000 H   0  0  0  0  0  0  0  0  0  0  0  0
    1.4631   -3.0796    0.0000 H   0  0  0  0  0  0  0  0  0  0  0  0
    1.4631   -1.4596    0.0000 H   0  0  0  0  0  0  0  0  0  0  0  0
   10.9519    0.6576    0.0000 H   0  0  0  0  0  0  0  0  0  0  0  0
   12.5719    0.6576    0.0000 H   0  0  0  0  0  0  0  0  0  0  0  0
   14.4432    3.1298    0.0000 H   0  0  0  0  0  0  0  0  0  0  0  0
   14.0285    3.8481    0.0000 H   0  0  0  0  0  0  0  0  0  0  0  0
  1 14  1  0  0  0  0
  1 19  1  0  0  0  0
  2 13  2  0  0  0  0
  3 26  1  0  0  0  0
  3 29  1  0  0  0  0
  4 27  1  0  0  0  0
  4 29  1  0  0  0  0
  5  8  1  0  0  0  0
  5  9  1  0  0  0  0
  5 12  1  0  0  0  0
  6 10  1  0  0  0  0
  6 11  1  0  0  0  0
  6 13  1  0  0  0  0
  7 15  1  0  0  0  0
  7 17  1  0  0  0  0
  7 42  1  0  0  0  0
  8 10  1  0  0  0  0
  8 30  1  0  0  0  0
  8 31  1  0  0  0  0
  9 11  1  0  0  0  0
  9 32  1  0  0  0  0
  9 33  1  0  0  0  0
 10 34  1  0  0  0  0
 10 35  1  0  0  0  0
 11 36  1  0  0  0  0
 11 37  1  0  0  0  0
 12 14  1  0  0  0  0
 12 38  1  0  0  0  0
 12 39  1  0  0  0  0
 13 15  1  0  0  0  0
 14 40  1  0  0  0  0
 14 41  1  0  0  0  0
 15 16  2  0  0  0  0
 16 18  1  0  0  0  0
 16 43  1  0  0  0  0
 17 18  1  0  0  0  0
 17 20  2  0  0  0  0
 18 21  2  0  0  0  0
 19 22  2  0  0  0  0
 19 25  1  0  0  0  0
 20 23  1  0  0  0  0
 20 44  1  0  0  0  0
 21 24  1  0  0  0  0
 21 45  1  0  0  0  0
 22 26  1  0  0  0  0
 22 46  1  0  0  0  0
 23 24  2  0  0  0  0
 23 47  1  0  0  0  0
 24 48  1  0  0  0  0
 25 28  2  0  0  0  0
 25 49  1  0  0  0  0
 26 27  2  0  0  0  0
 27 28  1  0  0  0  0
 28 50  1  0  0  0  0
 29 51  1  0  0  0  0
 29 52  1  0  0  0  0
M  END
> <PUBCHEM_COMPOUND_CID>
71725039

> <PUBCHEM_COMPOUND_CANONICALIZED>
1

> <PUBCHEM_CACTVS_COMPLEXITY>
568

> <PUBCHEM_CACTVS_HBOND_ACCEPTOR>
5

> <PUBCHEM_CACTVS_HBOND_DONOR>
1

> <PUBCHEM_CACTVS_ROTATABLE_BOND>
5

> <PUBCHEM_CACTVS_SUBSKEYS>
AAADceB7OAAAAAAAAAAAAAAAAAAAAWJAAAA8YIAAAAAAAFgB9AAAHgAQAAAADAzhngcwzvPJlACoAyVyVACCiCAnIiAImSG+7NgfZ/LEtbu3OSrl1hXe6YfY6YyeAQAACAACQAACAAAQAASAAAAAAAAAAA==

> <PUBCHEM_IUPAC_OPENEYE_NAME>
[4-[2-(1,3-benzodioxol-5-yloxy)ethyl]piperazin-1-yl]-(1H-indol-2-yl)methanone

> <PUBCHEM_IUPAC_CAS_NAME>
[4-[2-(1,3-benzodioxol-5-yloxy)ethyl]-1-piperazinyl]-(1H-indol-2-yl)methanone

> <PUBCHEM_IUPAC_NAME_MARKUP>
[4-[2-(1,3-benzodioxol-5-yloxy)ethyl]piperazin-1-yl]-(1<I>H</I>-indol-2-yl)methanone

> <PUBCHEM_IUPAC_NAME>
[4-[2-(1,3-benzodioxol-5-yloxy)ethyl]piperazin-1-yl]-(1H-indol-2-yl)methanone

> <PUBCHEM_IUPAC_SYSTEMATIC_NAME>
[4-[2-(1,3-benzodioxol-5-yloxy)ethyl]piperazin-1-yl]-(1H-indol-2-yl)methanone

> <PUBCHEM_IUPAC_TRADITIONAL_NAME>
[4-[2-(1,3-benzodioxol-5-yloxy)ethyl]piperazino]-(1H-indol-2-yl)methanone

> <PUBCHEM_IUPAC_INCHI>
InChI=1S/C22H23N3O4/c26-22(19-13-16-3-1-2-4-18(16)23-19)25-9-7-24(8-10-25)11-12-27-17-5-6-20-21(14-17)29-15-28-20/h1-6,13-14,23H,7-12,15H2

> <PUBCHEM_IUPAC_INCHIKEY>
GDNIDPXEYGAWQX-UHFFFAOYSA-N

> <PUBCHEM_XLOGP3_AA>
3.1

> <PUBCHEM_EXACT_MASS>
393.16885622

> <PUBCHEM_MOLECULAR_FORMULA>
C22H23N3O4

> <PUBCHEM_MOLECULAR_WEIGHT>
393.4

> <PUBCHEM_OPENEYE_CAN_SMILES>
C1CN(CCN1CCOC2=CC3=C(C=C2)OCO3)C(=O)C4=CC5=CC=CC=C5N4

> <PUBCHEM_OPENEYE_ISO_SMILES>
C1CN(CCN1CCOC2=CC3=C(C=C2)OCO3)C(=O)C4=CC5=CC=CC=C5N4

> <PUBCHEM_CACTVS_TPSA>
67

> <PUBCHEM_MONOISOTOPIC_WEIGHT>
393.16885622

> <PUBCHEM_TOTAL_CHARGE>
0

> <PUBCHEM_HEAVY_ATOM_COUNT>
29

> <PUBCHEM_ATOM_DEF_STEREO_COUNT>
0

> <PUBCHEM_ATOM_UDEF_STEREO_COUNT>
0

> <PUBCHEM_BOND_DEF_STEREO_COUNT>
0

> <PUBCHEM_BOND_UDEF_STEREO_COUNT>
0

> <PUBCHEM_ISOTOPIC_ATOM_COUNT>
0

> <PUBCHEM_COMPONENT_COUNT>
1

> <PUBCHEM_CACTVS_TAUTO_COUNT>
-1

> <PUBCHEM_COORDINATE_TYPE>
1
5
255

> <PUBCHEM_BONDANNOTATIONS>
15  16  8
16  18  8
17  18  8
17  20  8
18  21  8
19  22  8
19  25  8
20  23  8
21  24  8
22  26  8
23  24  8
25  28  8
26  27  8
27  28  8
7  15  8
7  17  8

$$$$
