25130830
  -OEChem-09292322232D

 58 63  0     1  0  0  0  0  0999 V2000
    2.0000   -0.6227    0.0000 F   0  0  0  0  0  0  0  0  0  0  0  0
   12.8517   -1.4037    0.0000 O   0  0  0  0  0  0  0  0  0  0  0  0
    4.7684    1.5990    0.0000 O   0  0  0  0  0  0  0  0  0  0  0  0
   11.0395    1.4010    0.0000 O   0  0  0  0  0  0  0  0  0  0  0  0
    8.4414   -1.0990    0.0000 N   0  0  0  0  0  0  0  0  0  0  0  0
    5.7402    1.3898    0.0000 N   0  0  0  0  0  0  0  0  0  0  0  0
    6.7093   -0.0990    0.0000 C   0  0  0  0  0  0  0  0  0  0  0  0
   10.1734   -1.0990    0.0000 C   0  0  3  0  0  0  0  0  0  0  0  0
    9.3074   -1.5990    0.0000 C   0  0  0  0  0  0  0  0  0  0  0  0
    8.4414   -0.0990    0.0000 C   0  0  0  0  0  0  0  0  0  0  0  0
    7.5754   -1.5990    0.0000 C   0  0  0  0  0  0  0  0  0  0  0  0
    7.5754    0.4010    0.0000 C   0  0  0  0  0  0  0  0  0  0  0  0
    6.7093   -1.0990    0.0000 C   0  0  0  0  0  0  0  0  0  0  0  0
   11.0395   -1.5990    0.0000 C   0  0  0  0  0  0  0  0  0  0  0  0
   10.1734   -0.0990    0.0000 C   0  0  0  0  0  0  0  0  0  0  0  0
    5.8433    0.4010    0.0000 C   0  0  0  0  0  0  0  0  0  0  0  0
   11.9055   -1.0990    0.0000 C   0  0  0  0  0  0  0  0  0  0  0  0
   11.0395    0.4010    0.0000 C   0  0  0  0  0  0  0  0  0  0  0  0
   11.9055   -0.0990    0.0000 C   0  0  0  0  0  0  0  0  0  0  0  0
    4.9355   -0.0041    0.0000 C   0  0  0  0  0  0  0  0  0  0  0  0
   12.8517    0.2058    0.0000 C   0  0  0  0  0  0  0  0  0  0  0  0
   13.4353   -0.5990    0.0000 C   0  0  0  0  0  0  0  0  0  0  0  0
    4.2677    0.7402    0.0000 C   0  0  0  0  0  0  0  0  0  0  0  0
    4.6249   -0.9546    0.0000 C   0  0  0  0  0  0  0  0  0  0  0  0
   14.4353   -0.5990    0.0000 C   0  0  0  0  0  0  0  0  0  0  0  0
    3.2892    0.5340    0.0000 C   0  0  0  0  0  0  0  0  0  0  0  0
    3.6464   -1.1608    0.0000 C   0  0  0  0  0  0  0  0  0  0  0  0
    2.9785   -0.4165    0.0000 C   0  0  0  0  0  0  0  0  0  0  0  0
   14.9353    0.2671    0.0000 C   0  0  0  0  0  0  0  0  0  0  0  0
   14.9353   -1.4650    0.0000 C   0  0  0  0  0  0  0  0  0  0  0  0
   15.9353    0.2671    0.0000 C   0  0  0  0  0  0  0  0  0  0  0  0
   15.9353   -1.4650    0.0000 C   0  0  0  0  0  0  0  0  0  0  0  0
   16.4353   -0.5990    0.0000 C   0  0  0  0  0  0  0  0  0  0  0  0
    6.7093    0.5210    0.0000 H   0  0  0  0  0  0  0  0  0  0  0  0
   10.1734   -1.7190    0.0000 H   0  0  0  0  0  0  0  0  0  0  0  0
    8.9089   -2.0739    0.0000 H   0  0  0  0  0  0  0  0  0  0  0  0
    9.7059   -2.0739    0.0000 H   0  0  0  0  0  0  0  0  0  0  0  0
    9.0520   -0.2066    0.0000 H   0  0  0  0  0  0  0  0  0  0  0  0
    8.6534    0.4836    0.0000 H   0  0  0  0  0  0  0  0  0  0  0  0
    7.1768   -2.0739    0.0000 H   0  0  0  0  0  0  0  0  0  0  0  0
    7.9739   -2.0739    0.0000 H   0  0  0  0  0  0  0  0  0  0  0  0
    7.9739    0.8760    0.0000 H   0  0  0  0  0  0  0  0  0  0  0  0
    7.1768    0.8760    0.0000 H   0  0  0  0  0  0  0  0  0  0  0  0
    6.0988   -0.9913    0.0000 H   0  0  0  0  0  0  0  0  0  0  0  0
    6.4973   -1.6816    0.0000 H   0  0  0  0  0  0  0  0  0  0  0  0
   10.6409   -2.0739    0.0000 H   0  0  0  0  0  0  0  0  0  0  0  0
   11.4380   -2.0739    0.0000 H   0  0  0  0  0  0  0  0  0  0  0  0
    9.9614    0.4836    0.0000 H   0  0  0  0  0  0  0  0  0  0  0  0
    9.5628   -0.2066    0.0000 H   0  0  0  0  0  0  0  0  0  0  0  0
   13.0443    0.7951    0.0000 H   0  0  0  0  0  0  0  0  0  0  0  0
    5.0389   -1.4161    0.0000 H   0  0  0  0  0  0  0  0  0  0  0  0
    2.8751    0.9955    0.0000 H   0  0  0  0  0  0  0  0  0  0  0  0
    3.4537   -1.7501    0.0000 H   0  0  0  0  0  0  0  0  0  0  0  0
   14.6253    0.8040    0.0000 H   0  0  0  0  0  0  0  0  0  0  0  0
   14.6253   -2.0019    0.0000 H   0  0  0  0  0  0  0  0  0  0  0  0
   16.2453    0.8040    0.0000 H   0  0  0  0  0  0  0  0  0  0  0  0
   16.2453   -2.0019    0.0000 H   0  0  0  0  0  0  0  0  0  0  0  0
   17.0553   -0.5990    0.0000 H   0  0  0  0  0  0  0  0  0  0  0  0
  1 28  1  0  0  0  0
  2 17  1  0  0  0  0
  2 22  1  0  0  0  0
  3  6  1  0  0  0  0
  3 23  1  0  0  0  0
  4 18  2  0  0  0  0
  5  9  1  0  0  0  0
  5 10  1  0  0  0  0
  5 11  1  0  0  0  0
  6 16  2  0  0  0  0
  7 12  1  0  0  0  0
  7 13  1  0  0  0  0
  7 16  1  0  0  0  0
  7 34  1  0  0  0  0
  8  9  1  0  0  0  0
  8 14  1  0  0  0  0
  8 15  1  0  0  0  0
  8 35  1  0  0  0  0
  9 36  1  0  0  0  0
  9 37  1  0  0  0  0
 10 12  1  0  0  0  0
 10 38  1  0  0  0  0
 10 39  1  0  0  0  0
 11 13  1  0  0  0  0
 11 40  1  0  0  0  0
 11 41  1  0  0  0  0
 12 42  1  0  0  0  0
 12 43  1  0  0  0  0
 13 44  1  0  0  0  0
 13 45  1  0  0  0  0
 14 17  1  0  0  0  0
 14 46  1  0  0  0  0
 14 47  1  0  0  0  0
 15 18  1  0  0  0  0
 15 48  1  0  0  0  0
 15 49  1  0  0  0  0
 16 20  1  0  0  0  0
 17 19  2  0  0  0  0
 18 19  1  0  0  0  0
 19 21  1  0  0  0  0
 20 23  2  0  0  0  0
 20 24  1  0  0  0  0
 21 22  2  0  0  0  0
 21 50  1  0  0  0  0
 22 25  1  0  0  0  0
 23 26  1  0  0  0  0
 24 27  2  0  0  0  0
 24 51  1  0  0  0  0
 25 29  2  0  0  0  0
 25 30  1  0  0  0  0
 26 28  2  0  0  0  0
 26 52  1  0  0  0  0
 27 28  1  0  0  0  0
 27 53  1  0  0  0  0
 29 31  1  0  0  0  0
 29 54  1  0  0  0  0
 30 32  2  0  0  0  0
 30 55  1  0  0  0  0
 31 33  2  0  0  0  0
 31 56  1  0  0  0  0
 32 33  1  0  0  0  0
 32 57  1  0  0  0  0
 33 58  1  0  0  0  0
M  END
> <PUBCHEM_COMPOUND_CID>
25130830

> <PUBCHEM_COMPOUND_CANONICALIZED>
1

> <PUBCHEM_CACTVS_COMPLEXITY>
693

> <PUBCHEM_CACTVS_HBOND_ACCEPTOR>
6

> <PUBCHEM_CACTVS_HBOND_DONOR>
0

> <PUBCHEM_CACTVS_ROTATABLE_BOND>
4

> <PUBCHEM_CACTVS_SUBSKEYS>
AAADceB7MQAAAAAAAAAAAAAAAAAAAWJAAAA8YMEAAAAAAFgB/AAAHwAEAAAADQzBngwwhtMQBECpA6RyQgCCCAAkIAAomCE+TNoMJr6MtZuGOeDm4BmI6ce/zvDuAAAAAAAIAACAAAIAABAAAAAAAAAAAA==

> <PUBCHEM_IUPAC_OPENEYE_NAME>
6-[[4-(6-fluoro-1,2-benzoxazol-3-yl)-1-piperidyl]methyl]-2-phenyl-6,7-dihydro-5H-benzofuran-4-one

> <PUBCHEM_IUPAC_CAS_NAME>
6-[[4-(6-fluoro-1,2-benzoxazol-3-yl)-1-piperidinyl]methyl]-2-phenyl-6,7-dihydro-5H-benzofuran-4-one

> <PUBCHEM_IUPAC_NAME_MARKUP>
6-[[4-(6-fluoro-1,2-benzoxazol-3-yl)piperidin-1-yl]methyl]-2-phenyl-6,7-dihydro-5<I>H</I>-1-benzofuran-4-one

> <PUBCHEM_IUPAC_NAME>
6-[[4-(6-fluoro-1,2-benzoxazol-3-yl)piperidin-1-yl]methyl]-2-phenyl-6,7-dihydro-5H-1-benzofuran-4-one

> <PUBCHEM_IUPAC_SYSTEMATIC_NAME>
6-[[4-(6-fluoranyl-1,2-benzoxazol-3-yl)piperidin-1-yl]methyl]-2-phenyl-6,7-dihydro-5H-1-benzofuran-4-one

> <PUBCHEM_IUPAC_TRADITIONAL_NAME>
6-[[4-(6-fluoroindoxazen-3-yl)piperidino]methyl]-2-phenyl-6,7-dihydro-5H-benzofuran-4-one

> <PUBCHEM_IUPAC_INCHI>
InChI=1S/C27H25FN2O3/c28-20-6-7-21-26(14-20)33-29-27(21)19-8-10-30(11-9-19)16-17-12-23(31)22-15-24(32-25(22)13-17)18-4-2-1-3-5-18/h1-7,14-15,17,19H,8-13,16H2

> <PUBCHEM_IUPAC_INCHIKEY>
VMIRJSPUFWFFPK-UHFFFAOYSA-N

> <PUBCHEM_XLOGP3_AA>
4.9

> <PUBCHEM_EXACT_MASS>
444.18492083

> <PUBCHEM_MOLECULAR_FORMULA>
C27H25FN2O3

> <PUBCHEM_MOLECULAR_WEIGHT>
444.5

> <PUBCHEM_OPENEYE_CAN_SMILES>
C1CN(CCC1C2=NOC3=C2C=CC(=C3)F)CC4CC5=C(C=C(O5)C6=CC=CC=C6)C(=O)C4

> <PUBCHEM_OPENEYE_ISO_SMILES>
C1CN(CCC1C2=NOC3=C2C=CC(=C3)F)CC4CC5=C(C=C(O5)C6=CC=CC=C6)C(=O)C4

> <PUBCHEM_CACTVS_TPSA>
59.5

> <PUBCHEM_MONOISOTOPIC_WEIGHT>
444.18492083

> <PUBCHEM_TOTAL_CHARGE>
0

> <PUBCHEM_HEAVY_ATOM_COUNT>
33

> <PUBCHEM_ATOM_DEF_STEREO_COUNT>
0

> <PUBCHEM_ATOM_UDEF_STEREO_COUNT>
1

> <PUBCHEM_BOND_DEF_STEREO_COUNT>
0

> <PUBCHEM_BOND_UDEF_STEREO_COUNT>
0

> <PUBCHEM_ISOTOPIC_ATOM_COUNT>
0

> <PUBCHEM_COMPONENT_COUNT>
1

> <PUBCHEM_CACTVS_TAUTO_COUNT>
-1

> <PUBCHEM_COORDINATE_TYPE>
1
5
255

> <PUBCHEM_BONDANNOTATIONS>
16  20  8
17  19  8
19  21  8
2  17  8
2  22  8
20  23  8
20  24  8
21  22  8
23  26  8
24  27  8
25  29  8
25  30  8
26  28  8
27  28  8
29  31  8
3  23  8
3  6  8
30  32  8
31  33  8
32  33  8
6  16  8
8  9  3

$$$$
