11588926
  -OEChem-09292322272D

 55 59  0     0  0  0  0  0  0999 V2000
    7.6833    3.3929    0.0000 O   0  0  0  0  0  0  0  0  0  0  0  0
    7.6833    5.4622    0.0000 O   0  0  0  0  0  0  0  0  0  0  0  0
    5.9233    0.4276    0.0000 N   0  0  0  0  0  0  0  0  0  0  0  0
    5.9233    2.4276    0.0000 N   0  0  0  0  0  0  0  0  0  0  0  0
    2.6164   -2.9044    0.0000 N   0  0  0  0  0  0  0  0  0  0  0  0
    5.0573    0.9276    0.0000 C   0  0  0  0  0  0  0  0  0  0  0  0
    6.7893    0.9276    0.0000 C   0  0  0  0  0  0  0  0  0  0  0  0
    5.0573    1.9276    0.0000 C   0  0  0  0  0  0  0  0  0  0  0  0
    6.7893    1.9276    0.0000 C   0  0  0  0  0  0  0  0  0  0  0  0
    5.9233   -0.5724    0.0000 C   0  0  0  0  0  0  0  0  0  0  0  0
    5.0573   -1.0724    0.0000 C   0  0  0  0  0  0  0  0  0  0  0  0
    5.9233    3.4276    0.0000 C   0  0  0  0  0  0  0  0  0  0  0  0
    5.0573   -2.0724    0.0000 C   0  0  0  0  0  0  0  0  0  0  0  0
    4.1912   -2.5724    0.0000 C   0  0  0  0  0  0  0  0  0  0  0  0
    6.7893    3.9276    0.0000 C   0  0  0  0  0  0  0  0  0  0  0  0
    5.0573    3.9276    0.0000 C   0  0  0  0  0  0  0  0  0  0  0  0
    4.0882   -3.5612    0.0000 C   0  0  0  0  0  0  0  0  0  0  0  0
    6.7893    4.9276    0.0000 C   0  0  0  0  0  0  0  0  0  0  0  0
    3.2835   -2.1673    0.0000 C   0  0  0  0  0  0  0  0  0  0  0  0
    3.1097   -3.7674    0.0000 C   0  0  0  0  0  0  0  0  0  0  0  0
    5.0573    4.9276    0.0000 C   0  0  0  0  0  0  0  0  0  0  0  0
    5.9233    5.4276    0.0000 C   0  0  0  0  0  0  0  0  0  0  0  0
    8.5893    3.9067    0.0000 C   0  0  0  0  0  0  0  0  0  0  0  0
    8.5893    4.9484    0.0000 C   0  0  0  0  0  0  0  0  0  0  0  0
    4.7560   -4.3055    0.0000 C   0  0  0  0  0  0  0  0  0  0  0  0
    2.7990   -4.7179    0.0000 C   0  0  0  0  0  0  0  0  0  0  0  0
    4.4454   -5.2560    0.0000 C   0  0  0  0  0  0  0  0  0  0  0  0
    3.4669   -5.4622    0.0000 C   0  0  0  0  0  0  0  0  0  0  0  0
    4.4467    1.0352    0.0000 H   0  0  0  0  0  0  0  0  0  0  0  0
    4.8452    0.3449    0.0000 H   0  0  0  0  0  0  0  0  0  0  0  0
    7.0014    0.3449    0.0000 H   0  0  0  0  0  0  0  0  0  0  0  0
    7.3999    1.0352    0.0000 H   0  0  0  0  0  0  0  0  0  0  0  0
    4.8452    2.5102    0.0000 H   0  0  0  0  0  0  0  0  0  0  0  0
    4.4467    1.8199    0.0000 H   0  0  0  0  0  0  0  0  0  0  0  0
    7.3999    1.8199    0.0000 H   0  0  0  0  0  0  0  0  0  0  0  0
    7.0014    2.5102    0.0000 H   0  0  0  0  0  0  0  0  0  0  0  0
    6.1354   -1.1551    0.0000 H   0  0  0  0  0  0  0  0  0  0  0  0
    6.5339   -0.4648    0.0000 H   0  0  0  0  0  0  0  0  0  0  0  0
    4.8452   -0.4898    0.0000 H   0  0  0  0  0  0  0  0  0  0  0  0
    4.4467   -1.1801    0.0000 H   0  0  0  0  0  0  0  0  0  0  0  0
    5.2693   -2.6551    0.0000 H   0  0  0  0  0  0  0  0  0  0  0  0
    5.6678   -1.9648    0.0000 H   0  0  0  0  0  0  0  0  0  0  0  0
    4.5203    3.6176    0.0000 H   0  0  0  0  0  0  0  0  0  0  0  0
    3.1556   -1.5607    0.0000 H   0  0  0  0  0  0  0  0  0  0  0  0
    4.5203    5.2376    0.0000 H   0  0  0  0  0  0  0  0  0  0  0  0
    5.9233    6.0476    0.0000 H   0  0  0  0  0  0  0  0  0  0  0  0
    2.0000   -2.8374    0.0000 H   0  0  0  0  0  0  0  0  0  0  0  0
    8.7984    3.3230    0.0000 H   0  0  0  0  0  0  0  0  0  0  0  0
    9.2002    4.0128    0.0000 H   0  0  0  0  0  0  0  0  0  0  0  0
    9.2002    4.8423    0.0000 H   0  0  0  0  0  0  0  0  0  0  0  0
    8.7984    5.5321    0.0000 H   0  0  0  0  0  0  0  0  0  0  0  0
    5.3627   -4.1776    0.0000 H   0  0  0  0  0  0  0  0  0  0  0  0
    2.1923   -4.8458    0.0000 H   0  0  0  0  0  0  0  0  0  0  0  0
    4.8594   -5.7175    0.0000 H   0  0  0  0  0  0  0  0  0  0  0  0
    3.2743   -6.0515    0.0000 H   0  0  0  0  0  0  0  0  0  0  0  0
  1 15  1  0  0  0  0
  1 23  1  0  0  0  0
  2 18  1  0  0  0  0
  2 24  1  0  0  0  0
  3  6  1  0  0  0  0
  3  7  1  0  0  0  0
  3 10  1  0  0  0  0
  4  8  1  0  0  0  0
  4  9  1  0  0  0  0
  4 12  1  0  0  0  0
  5 19  1  0  0  0  0
  5 20  1  0  0  0  0
  5 47  1  0  0  0  0
  6  8  1  0  0  0  0
  6 29  1  0  0  0  0
  6 30  1  0  0  0  0
  7  9  1  0  0  0  0
  7 31  1  0  0  0  0
  7 32  1  0  0  0  0
  8 33  1  0  0  0  0
  8 34  1  0  0  0  0
  9 35  1  0  0  0  0
  9 36  1  0  0  0  0
 10 11  1  0  0  0  0
 10 37  1  0  0  0  0
 10 38  1  0  0  0  0
 11 13  1  0  0  0  0
 11 39  1  0  0  0  0
 11 40  1  0  0  0  0
 12 15  2  0  0  0  0
 12 16  1  0  0  0  0
 13 14  1  0  0  0  0
 13 41  1  0  0  0  0
 13 42  1  0  0  0  0
 14 17  1  0  0  0  0
 14 19  2  0  0  0  0
 15 18  1  0  0  0  0
 16 21  2  0  0  0  0
 16 43  1  0  0  0  0
 17 20  1  0  0  0  0
 17 25  2  0  0  0  0
 18 22  2  0  0  0  0
 19 44  1  0  0  0  0
 20 26  2  0  0  0  0
 21 22  1  0  0  0  0
 21 45  1  0  0  0  0
 22 46  1  0  0  0  0
 23 24  1  0  0  0  0
 23 48  1  0  0  0  0
 23 49  1  0  0  0  0
 24 50  1  0  0  0  0
 24 51  1  0  0  0  0
 25 27  1  0  0  0  0
 25 52  1  0  0  0  0
 26 28  1  0  0  0  0
 26 53  1  0  0  0  0
 27 28  2  0  0  0  0
 27 54  1  0  0  0  0
 28 55  1  0  0  0  0
M  END
> <PUBCHEM_COMPOUND_CID>
11588926

> <PUBCHEM_COMPOUND_CANONICALIZED>
1

> <PUBCHEM_CACTVS_COMPLEXITY>
496

> <PUBCHEM_CACTVS_HBOND_ACCEPTOR>
4

> <PUBCHEM_CACTVS_HBOND_DONOR>
1

> <PUBCHEM_CACTVS_ROTATABLE_BOND>
5

> <PUBCHEM_CACTVS_SUBSKEYS>
AAADceB7MAAAAAAAAAAAAAAAAAAAAWAAAAA8aIEAAAAAAFiR9AAAHgAQAAAADAzhngY8xvPJlACgAzRnRACCiCAxIiAI2aA/7JgPZuLEsZuXOCrm0Bna6AeQ0MMOgAAAAgACUAAAAAAEAASgAAAAAAAAAA==

> <PUBCHEM_IUPAC_OPENEYE_NAME>
3-[3-[4-(2,3-dihydro-1,4-benzodioxin-5-yl)piperazin-1-yl]propyl]-1H-indole

> <PUBCHEM_IUPAC_CAS_NAME>
3-[3-[4-(2,3-dihydro-1,4-benzodioxin-5-yl)-1-piperazinyl]propyl]-1H-indole

> <PUBCHEM_IUPAC_NAME_MARKUP>
3-[3-[4-(2,3-dihydro-1,4-benzodioxin-5-yl)piperazin-1-yl]propyl]-1<I>H</I>-indole

> <PUBCHEM_IUPAC_NAME>
3-[3-[4-(2,3-dihydro-1,4-benzodioxin-5-yl)piperazin-1-yl]propyl]-1H-indole

> <PUBCHEM_IUPAC_SYSTEMATIC_NAME>
3-[3-[4-(2,3-dihydro-1,4-benzodioxin-5-yl)piperazin-1-yl]propyl]-1H-indole

> <PUBCHEM_IUPAC_TRADITIONAL_NAME>
3-[3-[4-(2,3-dihydro-1,4-benzodioxin-5-yl)piperazino]propyl]-1H-indole

> <PUBCHEM_IUPAC_INCHI>
InChI=1S/C23H27N3O2/c1-2-7-20-19(6-1)18(17-24-20)5-4-10-25-11-13-26(14-12-25)21-8-3-9-22-23(21)28-16-15-27-22/h1-3,6-9,17,24H,4-5,10-16H2

> <PUBCHEM_IUPAC_INCHIKEY>
ZPTHFIRVKGBKMN-UHFFFAOYSA-N

> <PUBCHEM_XLOGP3_AA>
4

> <PUBCHEM_EXACT_MASS>
377.21032711

> <PUBCHEM_MOLECULAR_FORMULA>
C23H27N3O2

> <PUBCHEM_MOLECULAR_WEIGHT>
377.5

> <PUBCHEM_OPENEYE_CAN_SMILES>
C1CN(CCN1CCCC2=CNC3=CC=CC=C32)C4=C5C(=CC=C4)OCCO5

> <PUBCHEM_OPENEYE_ISO_SMILES>
C1CN(CCN1CCCC2=CNC3=CC=CC=C32)C4=C5C(=CC=C4)OCCO5

> <PUBCHEM_CACTVS_TPSA>
40.7

> <PUBCHEM_MONOISOTOPIC_WEIGHT>
377.21032711

> <PUBCHEM_TOTAL_CHARGE>
0

> <PUBCHEM_HEAVY_ATOM_COUNT>
28

> <PUBCHEM_ATOM_DEF_STEREO_COUNT>
0

> <PUBCHEM_ATOM_UDEF_STEREO_COUNT>
0

> <PUBCHEM_BOND_DEF_STEREO_COUNT>
0

> <PUBCHEM_BOND_UDEF_STEREO_COUNT>
0

> <PUBCHEM_ISOTOPIC_ATOM_COUNT>
0

> <PUBCHEM_COMPONENT_COUNT>
1

> <PUBCHEM_CACTVS_TAUTO_COUNT>
-1

> <PUBCHEM_COORDINATE_TYPE>
1
5
255

> <PUBCHEM_BONDANNOTATIONS>
12  15  8
12  16  8
14  17  8
14  19  8
15  18  8
16  21  8
17  20  8
17  25  8
18  22  8
20  26  8
21  22  8
25  27  8
26  28  8
27  28  8
5  19  8
5  20  8

$$$$
