45264102
  -OEChem-09292322152D

 65 67  0     0  0  0  0  0  0999 V2000
    9.9851    7.0045    0.0000 Cl  0  0  0  0  0  0  0  0  0  0  0  0
    1.9677   11.2020    0.0000 O   0  0  0  0  0  0  0  0  0  0  0  0
    7.0822    5.5388    0.0000 O   0  0  0  0  0  0  0  0  0  0  0  0
    4.8501    0.0000    0.0000 O   0  5  0  0  0  0  0  0  0  0  0  0
    3.9841    1.5000    0.0000 O   0  0  0  0  0  0  0  0  0  0  0  0
    5.1323    9.7930    0.0000 N   0  0  0  0  0  0  0  0  0  0  0  0
    3.9567   11.4110    0.0000 N   0  0  0  0  0  0  0  0  0  0  0  0
    7.3912    4.5878    0.0000 N   0  0  0  0  0  0  0  0  0  0  0  0
    4.8501    1.0000    0.0000 N   0  3  0  0  0  0  0  0  0  0  0  0
    4.1377    9.6885    0.0000 C   0  0  0  0  0  0  0  0  0  0  0  0
    5.5390   10.7065    0.0000 C   0  0  0  0  0  0  0  0  0  0  0  0
    3.5500   10.4975    0.0000 C   0  0  0  0  0  0  0  0  0  0  0  0
    4.9512   11.5155    0.0000 C   0  0  0  0  0  0  0  0  0  0  0  0
    5.7201    8.9840    0.0000 C   0  0  0  0  0  0  0  0  0  0  0  0
    5.3133    8.0704    0.0000 C   0  0  0  0  0  0  0  0  0  0  0  0
    3.3689   12.2200    0.0000 C   0  0  0  0  0  0  0  0  0  0  0  0
    5.9011    7.2614    0.0000 C   0  0  0  0  0  0  0  0  0  0  0  0
    5.4944    6.3479    0.0000 C   0  0  0  0  0  0  0  0  0  0  0  0
    2.3744   12.1155    0.0000 C   0  0  0  0  0  0  0  0  0  0  0  0
    3.7756   13.1336    0.0000 C   0  0  0  0  0  0  0  0  0  0  0  0
    6.0822    5.5388    0.0000 C   0  0  0  0  0  0  0  0  0  0  0  0
    1.7866   12.9245    0.0000 C   0  0  0  0  0  0  0  0  0  0  0  0
    3.1879   13.9426    0.0000 C   0  0  0  0  0  0  0  0  0  0  0  0
    2.1933   13.8381    0.0000 C   0  0  0  0  0  0  0  0  0  0  0  0
    5.7731    4.5878    0.0000 C   0  0  0  0  0  0  0  0  0  0  0  0
    6.5822    4.0000    0.0000 C   0  0  0  0  0  0  0  0  0  0  0  0
    0.9731   11.0974    0.0000 C   0  0  0  0  0  0  0  0  0  0  0  0
    6.5822    3.0000    0.0000 C   0  0  0  0  0  0  0  0  0  0  0  0
    0.5664   10.1839    0.0000 C   0  0  0  0  0  0  0  0  0  0  0  0
    5.7161    2.5000    0.0000 C   0  0  0  0  0  0  0  0  0  0  0  0
    7.4482    2.5000    0.0000 C   0  0  0  0  0  0  0  0  0  0  0  0
    5.7161    1.5000    0.0000 C   0  0  0  0  0  0  0  0  0  0  0  0
    7.4482    1.5000    0.0000 C   0  0  0  0  0  0  0  0  0  0  0  0
    6.5822    1.0000    0.0000 C   0  0  0  0  0  0  0  0  0  0  0  0
    3.5805    9.4167    0.0000 H   0  0  0  0  0  0  0  0  0  0  0  0
    4.3086    9.0925    0.0000 H   0  0  0  0  0  0  0  0  0  0  0  0
    6.0530   10.3598    0.0000 H   0  0  0  0  0  0  0  0  0  0  0  0
    5.9697   11.1525    0.0000 H   0  0  0  0  0  0  0  0  0  0  0  0
    3.0360   10.8442    0.0000 H   0  0  0  0  0  0  0  0  0  0  0  0
    3.1193   10.0515    0.0000 H   0  0  0  0  0  0  0  0  0  0  0  0
    5.5085   11.7873    0.0000 H   0  0  0  0  0  0  0  0  0  0  0  0
    4.7803   12.1115    0.0000 H   0  0  0  0  0  0  0  0  0  0  0  0
    6.2341    8.6373    0.0000 H   0  0  0  0  0  0  0  0  0  0  0  0
    6.1507    9.4300    0.0000 H   0  0  0  0  0  0  0  0  0  0  0  0
    4.7993    8.4171    0.0000 H   0  0  0  0  0  0  0  0  0  0  0  0
    4.8826    7.6244    0.0000 H   0  0  0  0  0  0  0  0  0  0  0  0
    6.4151    6.9147    0.0000 H   0  0  0  0  0  0  0  0  0  0  0  0
    6.3318    7.7074    0.0000 H   0  0  0  0  0  0  0  0  0  0  0  0
    4.9804    6.6946    0.0000 H   0  0  0  0  0  0  0  0  0  0  0  0
    5.0637    5.9019    0.0000 H   0  0  0  0  0  0  0  0  0  0  0  0
    4.3923   13.1984    0.0000 H   0  0  0  0  0  0  0  0  0  0  0  0
    1.1700   12.8597    0.0000 H   0  0  0  0  0  0  0  0  0  0  0  0
    3.4400   14.5090    0.0000 H   0  0  0  0  0  0  0  0  0  0  0  0
    1.8289   14.3397    0.0000 H   0  0  0  0  0  0  0  0  0  0  0  0
    5.1835    4.3962    0.0000 H   0  0  0  0  0  0  0  0  0  0  0  0
    1.0164   11.7159    0.0000 H   0  0  0  0  0  0  0  0  0  0  0  0
    0.3716   11.2474    0.0000 H   0  0  0  0  0  0  0  0  0  0  0  0
    0.0000   10.4361    0.0000 H   0  0  0  0  0  0  0  0  0  0  0  0
    0.3142    9.6175    0.0000 H   0  0  0  0  0  0  0  0  0  0  0  0
    1.1328    9.9317    0.0000 H   0  0  0  0  0  0  0  0  0  0  0  0
    5.1792    2.8100    0.0000 H   0  0  0  0  0  0  0  0  0  0  0  0
    7.9851    2.8100    0.0000 H   0  0  0  0  0  0  0  0  0  0  0  0
    7.9851    1.1900    0.0000 H   0  0  0  0  0  0  0  0  0  0  0  0
    6.5822    0.3800    0.0000 H   0  0  0  0  0  0  0  0  0  0  0  0
   10.9851    7.0045    0.0000 H   0  0  0  0  0  0  0  0  0  0  0  0
  1 65  1  0  0  0  0
  2 19  1  0  0  0  0
  2 27  1  0  0  0  0
  3  8  1  0  0  0  0
  3 21  1  0  0  0  0
  4  9  1  0  0  0  0
  5  9  2  0  0  0  0
  6 10  1  0  0  0  0
  6 11  1  0  0  0  0
  6 14  1  0  0  0  0
  7 12  1  0  0  0  0
  7 13  1  0  0  0  0
  7 16  1  0  0  0  0
  8 26  2  0  0  0  0
  9 32  1  0  0  0  0
 10 12  1  0  0  0  0
 10 35  1  0  0  0  0
 10 36  1  0  0  0  0
 11 13  1  0  0  0  0
 11 37  1  0  0  0  0
 11 38  1  0  0  0  0
 12 39  1  0  0  0  0
 12 40  1  0  0  0  0
 13 41  1  0  0  0  0
 13 42  1  0  0  0  0
 14 15  1  0  0  0  0
 14 43  1  0  0  0  0
 14 44  1  0  0  0  0
 15 17  1  0  0  0  0
 15 45  1  0  0  0  0
 15 46  1  0  0  0  0
 16 19  1  0  0  0  0
 16 20  2  0  0  0  0
 17 18  1  0  0  0  0
 17 47  1  0  0  0  0
 17 48  1  0  0  0  0
 18 21  1  0  0  0  0
 18 49  1  0  0  0  0
 18 50  1  0  0  0  0
 19 22  2  0  0  0  0
 20 23  1  0  0  0  0
 20 51  1  0  0  0  0
 21 25  2  0  0  0  0
 22 24  1  0  0  0  0
 22 52  1  0  0  0  0
 23 24  2  0  0  0  0
 23 53  1  0  0  0  0
 24 54  1  0  0  0  0
 25 26  1  0  0  0  0
 25 55  1  0  0  0  0
 26 28  1  0  0  0  0
 27 29  1  0  0  0  0
 27 56  1  0  0  0  0
 27 57  1  0  0  0  0
 28 30  2  0  0  0  0
 28 31  1  0  0  0  0
 29 58  1  0  0  0  0
 29 59  1  0  0  0  0
 29 60  1  0  0  0  0
 30 32  1  0  0  0  0
 30 61  1  0  0  0  0
 31 33  2  0  0  0  0
 31 62  1  0  0  0  0
 32 34  2  0  0  0  0
 33 34  1  0  0  0  0
 33 63  1  0  0  0  0
 34 64  1  0  0  0  0
M  CHG  2   4  -1   9   1
M  END
> <PUBCHEM_COMPOUND_CID>
45264102

> <PUBCHEM_COMPOUND_CANONICALIZED>
1

> <PUBCHEM_CACTVS_COMPLEXITY>
595

> <PUBCHEM_CACTVS_HBOND_ACCEPTOR>
7

> <PUBCHEM_CACTVS_HBOND_DONOR>
1

> <PUBCHEM_CACTVS_ROTATABLE_BOND>
9

> <PUBCHEM_CACTVS_SUBSKEYS>
AAADceB7uAAEAAAAAAAAAAAAAAAAAWAAAAA8YIAAAAAAAAAB0AAAHgAEAAAADAzhngYyxpMQRACpA6RyQwCCCAAlIgAomCE/bNoOZrrEsZuXOajmwBnY6UeY2eKOAAAAQAAAEAAAAACAAAAgAAAAAAAAAA==

> <PUBCHEM_IUPAC_OPENEYE_NAME>
5-[4-[4-(2-ethoxyphenyl)piperazin-1-yl]butyl]-3-(3-nitrophenyl)isoxazole;hydrochloride

> <PUBCHEM_IUPAC_CAS_NAME>
5-[4-[4-(2-ethoxyphenyl)-1-piperazinyl]butyl]-3-(3-nitrophenyl)isoxazole;hydrochloride

> <PUBCHEM_IUPAC_NAME_MARKUP>
5-[4-[4-(2-ethoxyphenyl)piperazin-1-yl]butyl]-3-(3-nitrophenyl)-1,2-oxazole;hydrochloride

> <PUBCHEM_IUPAC_NAME>
5-[4-[4-(2-ethoxyphenyl)piperazin-1-yl]butyl]-3-(3-nitrophenyl)-1,2-oxazole;hydrochloride

> <PUBCHEM_IUPAC_SYSTEMATIC_NAME>
5-[4-[4-(2-ethoxyphenyl)piperazin-1-yl]butyl]-3-(3-nitrophenyl)-1,2-oxazole;hydrochloride

> <PUBCHEM_IUPAC_TRADITIONAL_NAME>
3-(3-nitrophenyl)-5-[4-(4-o-phenetylpiperazino)butyl]isoxazole;hydrochloride

> <PUBCHEM_IUPAC_INCHI>
InChI=1S/C25H30N4O4.ClH/c1-2-32-25-12-4-3-11-24(25)28-16-14-27(15-17-28)13-6-5-10-22-19-23(26-33-22)20-8-7-9-21(18-20)29(30)31;/h3-4,7-9,11-12,18-19H,2,5-6,10,13-17H2,1H3;1H

> <PUBCHEM_IUPAC_INCHIKEY>
WSQAMBMBNVZRNJ-UHFFFAOYSA-N

> <PUBCHEM_EXACT_MASS>
486.2033832

> <PUBCHEM_MOLECULAR_FORMULA>
C25H31ClN4O4

> <PUBCHEM_MOLECULAR_WEIGHT>
487.0

> <PUBCHEM_OPENEYE_CAN_SMILES>
CCOC1=CC=CC=C1N2CCN(CC2)CCCCC3=CC(=NO3)C4=CC(=CC=C4)[N+](=O)[O-].Cl

> <PUBCHEM_OPENEYE_ISO_SMILES>
CCOC1=CC=CC=C1N2CCN(CC2)CCCCC3=CC(=NO3)C4=CC(=CC=C4)[N+](=O)[O-].Cl

> <PUBCHEM_CACTVS_TPSA>
87.6

> <PUBCHEM_MONOISOTOPIC_WEIGHT>
486.2033832

> <PUBCHEM_TOTAL_CHARGE>
0

> <PUBCHEM_HEAVY_ATOM_COUNT>
34

> <PUBCHEM_ATOM_DEF_STEREO_COUNT>
0

> <PUBCHEM_ATOM_UDEF_STEREO_COUNT>
0

> <PUBCHEM_BOND_DEF_STEREO_COUNT>
0

> <PUBCHEM_BOND_UDEF_STEREO_COUNT>
0

> <PUBCHEM_ISOTOPIC_ATOM_COUNT>
0

> <PUBCHEM_COMPONENT_COUNT>
2

> <PUBCHEM_CACTVS_TAUTO_COUNT>
-1

> <PUBCHEM_COORDINATE_TYPE>
1
5
255

> <PUBCHEM_BONDANNOTATIONS>
16  19  8
16  20  8
19  22  8
20  23  8
21  25  8
22  24  8
23  24  8
25  26  8
28  30  8
28  31  8
3  21  8
3  8  8
30  32  8
31  33  8
32  34  8
33  34  8
8  26  8

$$$$
