168277941
  -OEChem-09292322452D

 51 52  0     0  0  0  0  0  0999 V2000
    2.0000   -6.0600    0.0000 Cl  0  0  0  0  0  0  0  0  0  0  0  0
    7.1962    4.9400    0.0000 S   0  0  0  0  0  0  0  0  0  0  0  0
    6.6962    5.8060    0.0000 O   0  0  0  0  0  0  0  0  0  0  0  0
    7.6962    4.0740    0.0000 O   0  0  0  0  0  0  0  0  0  0  0  0
    3.7320   -1.0600    0.0000 N   0  0  0  0  0  0  0  0  0  0  0  0
    3.7320   -3.0600    0.0000 N   0  0  0  0  0  0  0  0  0  0  0  0
    6.3301    4.4400    0.0000 N   0  0  0  0  0  0  0  0  0  0  0  0
    8.0622    5.4400    0.0000 N   0  0  0  0  0  0  0  0  0  0  0  0
    4.5981   -1.5600    0.0000 C   0  0  0  0  0  0  0  0  0  0  0  0
    2.8660   -1.5600    0.0000 C   0  0  0  0  0  0  0  0  0  0  0  0
    3.7320   -0.0600    0.0000 C   0  0  0  0  0  0  0  0  0  0  0  0
    4.5981   -2.5600    0.0000 C   0  0  0  0  0  0  0  0  0  0  0  0
    2.8660   -2.5600    0.0000 C   0  0  0  0  0  0  0  0  0  0  0  0
    4.5981    0.4400    0.0000 C   0  0  0  0  0  0  0  0  0  0  0  0
    4.5981    1.4400    0.0000 C   0  0  0  0  0  0  0  0  0  0  0  0
    5.4641    1.9400    0.0000 C   0  0  0  0  0  0  0  0  0  0  0  0
    3.7320   -4.0600    0.0000 C   0  0  0  0  0  0  0  0  0  0  0  0
    5.4641    2.9400    0.0000 C   0  0  0  0  0  0  0  0  0  0  0  0
    6.3301    3.4400    0.0000 C   0  0  0  0  0  0  0  0  0  0  0  0
    2.8660   -4.5600    0.0000 C   0  0  0  0  0  0  0  0  0  0  0  0
    4.5981   -4.5600    0.0000 C   0  0  0  0  0  0  0  0  0  0  0  0
    2.8660   -5.5600    0.0000 C   0  0  0  0  0  0  0  0  0  0  0  0
    4.5981   -5.5600    0.0000 C   0  0  0  0  0  0  0  0  0  0  0  0
    3.7320   -6.0600    0.0000 C   0  0  0  0  0  0  0  0  0  0  0  0
    5.2087   -1.6677    0.0000 H   0  0  0  0  0  0  0  0  0  0  0  0
    4.8101   -0.9774    0.0000 H   0  0  0  0  0  0  0  0  0  0  0  0
    2.6540   -0.9774    0.0000 H   0  0  0  0  0  0  0  0  0  0  0  0
    2.2554   -1.6677    0.0000 H   0  0  0  0  0  0  0  0  0  0  0  0
    3.5200    0.5226    0.0000 H   0  0  0  0  0  0  0  0  0  0  0  0
    3.1215   -0.1677    0.0000 H   0  0  0  0  0  0  0  0  0  0  0  0
    4.8101   -3.1426    0.0000 H   0  0  0  0  0  0  0  0  0  0  0  0
    5.2087   -2.4523    0.0000 H   0  0  0  0  0  0  0  0  0  0  0  0
    2.2554   -2.4523    0.0000 H   0  0  0  0  0  0  0  0  0  0  0  0
    2.6540   -3.1426    0.0000 H   0  0  0  0  0  0  0  0  0  0  0  0
    4.8101   -0.1426    0.0000 H   0  0  0  0  0  0  0  0  0  0  0  0
    5.2087    0.5477    0.0000 H   0  0  0  0  0  0  0  0  0  0  0  0
    4.3860    2.0226    0.0000 H   0  0  0  0  0  0  0  0  0  0  0  0
    3.9875    1.3323    0.0000 H   0  0  0  0  0  0  0  0  0  0  0  0
    5.6762    1.3574    0.0000 H   0  0  0  0  0  0  0  0  0  0  0  0
    6.0747    2.0477    0.0000 H   0  0  0  0  0  0  0  0  0  0  0  0
    5.2520    3.5226    0.0000 H   0  0  0  0  0  0  0  0  0  0  0  0
    4.8535    2.8323    0.0000 H   0  0  0  0  0  0  0  0  0  0  0  0
    6.5422    2.8574    0.0000 H   0  0  0  0  0  0  0  0  0  0  0  0
    6.9407    3.5477    0.0000 H   0  0  0  0  0  0  0  0  0  0  0  0
    2.3291   -4.2500    0.0000 H   0  0  0  0  0  0  0  0  0  0  0  0
    5.1350   -4.2500    0.0000 H   0  0  0  0  0  0  0  0  0  0  0  0
    5.7932    4.7500    0.0000 H   0  0  0  0  0  0  0  0  0  0  0  0
    5.1350   -5.8700    0.0000 H   0  0  0  0  0  0  0  0  0  0  0  0
    3.7320   -6.6800    0.0000 H   0  0  0  0  0  0  0  0  0  0  0  0
    8.0622    6.0600    0.0000 H   0  0  0  0  0  0  0  0  0  0  0  0
    8.5991    5.1300    0.0000 H   0  0  0  0  0  0  0  0  0  0  0  0
  1 22  1  0  0  0  0
  2  3  2  0  0  0  0
  2  4  2  0  0  0  0
  2  7  1  0  0  0  0
  2  8  1  0  0  0  0
  5  9  1  0  0  0  0
  5 10  1  0  0  0  0
  5 11  1  0  0  0  0
  6 12  1  0  0  0  0
  6 13  1  0  0  0  0
  6 17  1  0  0  0  0
  7 19  1  0  0  0  0
  7 47  1  0  0  0  0
  8 50  1  0  0  0  0
  8 51  1  0  0  0  0
  9 12  1  0  0  0  0
  9 25  1  0  0  0  0
  9 26  1  0  0  0  0
 10 13  1  0  0  0  0
 10 27  1  0  0  0  0
 10 28  1  0  0  0  0
 11 14  1  0  0  0  0
 11 29  1  0  0  0  0
 11 30  1  0  0  0  0
 12 31  1  0  0  0  0
 12 32  1  0  0  0  0
 13 33  1  0  0  0  0
 13 34  1  0  0  0  0
 14 15  1  0  0  0  0
 14 35  1  0  0  0  0
 14 36  1  0  0  0  0
 15 16  1  0  0  0  0
 15 37  1  0  0  0  0
 15 38  1  0  0  0  0
 16 18  1  0  0  0  0
 16 39  1  0  0  0  0
 16 40  1  0  0  0  0
 17 20  2  0  0  0  0
 17 21  1  0  0  0  0
 18 19  1  0  0  0  0
 18 41  1  0  0  0  0
 18 42  1  0  0  0  0
 19 43  1  0  0  0  0
 19 44  1  0  0  0  0
 20 22  1  0  0  0  0
 20 45  1  0  0  0  0
 21 23  2  0  0  0  0
 21 46  1  0  0  0  0
 22 24  2  0  0  0  0
 23 24  1  0  0  0  0
 23 48  1  0  0  0  0
 24 49  1  0  0  0  0
M  END
> <PUBCHEM_COMPOUND_CID>
168277941

> <PUBCHEM_COMPOUND_CANONICALIZED>
1

> <PUBCHEM_CACTVS_COMPLEXITY>
450

> <PUBCHEM_CACTVS_HBOND_ACCEPTOR>
6

> <PUBCHEM_CACTVS_HBOND_DONOR>
2

> <PUBCHEM_CACTVS_ROTATABLE_BOND>
9

> <PUBCHEM_CACTVS_SUBSKEYS>
AAADceB7sABEAAAAAAAAAAAAAAAAAAAAAAA8QAAAAAAAAAABAAAAHAIQQAAACArBECQwwINAAACAACRCQDCCAAAhBwAIiIAIZogIYCLBk5GUIAhgkADIyAcQAAAAAAAAAAIAAAAAAAAABAAAAAAAAAAAAA==

> <PUBCHEM_IUPAC_OPENEYE_NAME>
1-(3-chlorophenyl)-4-[6-(sulfamoylamino)hexyl]piperazine

> <PUBCHEM_IUPAC_CAS_NAME>
1-(3-chlorophenyl)-4-[6-(sulfamoylamino)hexyl]piperazine

> <PUBCHEM_IUPAC_NAME_MARKUP>
1-(3-chlorophenyl)-4-[6-(sulfamoylamino)hexyl]piperazine

> <PUBCHEM_IUPAC_NAME>
1-(3-chlorophenyl)-4-[6-(sulfamoylamino)hexyl]piperazine

> <PUBCHEM_IUPAC_SYSTEMATIC_NAME>
1-(3-chlorophenyl)-4-[6-(sulfamoylamino)hexyl]piperazine

> <PUBCHEM_IUPAC_TRADITIONAL_NAME>
1-(3-chlorophenyl)-4-[6-(sulfamoylamino)hexyl]piperazine

> <PUBCHEM_IUPAC_INCHI>
InChI=1S/C16H27ClN4O2S/c17-15-6-5-7-16(14-15)21-12-10-20(11-13-21)9-4-2-1-3-8-19-24(18,22)23/h5-7,14,19H,1-4,8-13H2,(H2,18,22,23)

> <PUBCHEM_IUPAC_INCHIKEY>
SDQKPNOVKCPNRQ-UHFFFAOYSA-N

> <PUBCHEM_XLOGP3_AA>
2.3

> <PUBCHEM_EXACT_MASS>
374.1543250

> <PUBCHEM_MOLECULAR_FORMULA>
C16H27ClN4O2S

> <PUBCHEM_MOLECULAR_WEIGHT>
374.9

> <PUBCHEM_OPENEYE_CAN_SMILES>
C1CN(CCN1CCCCCCNS(=O)(=O)N)C2=CC(=CC=C2)Cl

> <PUBCHEM_OPENEYE_ISO_SMILES>
C1CN(CCN1CCCCCCNS(=O)(=O)N)C2=CC(=CC=C2)Cl

> <PUBCHEM_CACTVS_TPSA>
87

> <PUBCHEM_MONOISOTOPIC_WEIGHT>
374.1543250

> <PUBCHEM_TOTAL_CHARGE>
0

> <PUBCHEM_HEAVY_ATOM_COUNT>
24

> <PUBCHEM_ATOM_DEF_STEREO_COUNT>
0

> <PUBCHEM_ATOM_UDEF_STEREO_COUNT>
0

> <PUBCHEM_BOND_DEF_STEREO_COUNT>
0

> <PUBCHEM_BOND_UDEF_STEREO_COUNT>
0

> <PUBCHEM_ISOTOPIC_ATOM_COUNT>
0

> <PUBCHEM_COMPONENT_COUNT>
1

> <PUBCHEM_CACTVS_TAUTO_COUNT>
-1

> <PUBCHEM_COORDINATE_TYPE>
1
5
255

> <PUBCHEM_BONDANNOTATIONS>
17  20  8
17  21  8
20  22  8
21  23  8
22  24  8
23  24  8

$$$$
