131801150
  -OEChem-09292322012D

 67 71  0     0  0  0  0  0  0999 V2000
   12.3816   -1.4370    0.0000 O   0  0  0  0  0  0  0  0  0  0  0  0
   17.6438   -1.4129    0.0000 O   0  0  0  0  0  0  0  0  0  0  0  0
    8.0496   -0.9537    0.0000 N   0  0  0  0  0  0  0  0  0  0  0  0
    6.3137    0.0396    0.0000 N   0  0  0  0  0  0  0  0  0  0  0  0
    2.9793   -0.1404    0.0000 N   0  0  0  0  0  0  0  0  0  0  0  0
   15.9118   -1.4129    0.0000 N   0  0  0  0  0  0  0  0  0  0  0  0
    8.0458    0.0463    0.0000 C   0  0  0  0  0  0  0  0  0  0  0  0
    7.1855   -1.4571    0.0000 C   0  0  0  0  0  0  0  0  0  0  0  0
    7.1778    0.5429    0.0000 C   0  0  0  0  0  0  0  0  0  0  0  0
    6.3176   -0.9604    0.0000 C   0  0  0  0  0  0  0  0  0  0  0  0
    8.9176   -1.4504    0.0000 C   0  0  0  0  0  0  0  0  0  0  0  0
    5.4458    0.5362    0.0000 C   0  0  0  0  0  0  0  0  0  0  0  0
    9.7817   -0.9471    0.0000 C   0  0  0  0  0  0  0  0  0  0  0  0
    4.5817    0.0329    0.0000 C   0  0  0  0  0  0  0  0  0  0  0  0
    3.7137    0.5296    0.0000 C   0  0  0  0  0  0  0  0  0  0  0  0
   10.6496   -1.4437    0.0000 C   0  0  0  0  0  0  0  0  0  0  0  0
    5.4419    1.5362    0.0000 C   0  0  0  0  0  0  0  0  0  0  0  0
    4.3762   -0.9397    0.0000 C   0  0  0  0  0  0  0  0  0  0  0  0
    3.3879   -1.0466    0.0000 C   0  0  0  0  0  0  0  0  0  0  0  0
    3.7099    1.5296    0.0000 C   0  0  0  0  0  0  0  0  0  0  0  0
   11.5137   -0.9404    0.0000 C   0  0  0  0  0  0  0  0  0  0  0  0
    4.5740    2.0329    0.0000 C   0  0  0  0  0  0  0  0  0  0  0  0
    2.0000    0.0621    0.0000 C   0  0  0  0  0  0  0  0  0  0  0  0
    2.8912   -1.9145    0.0000 C   0  0  0  0  0  0  0  0  0  0  0  0
   13.2457   -0.9337    0.0000 C   0  0  0  0  0  0  0  0  0  0  0  0
   15.0457    0.0871    0.0000 C   0  0  0  0  0  0  0  0  0  0  0  0
   15.9118    0.5871    0.0000 C   0  0  0  0  0  0  0  0  0  0  0  0
   15.0457   -0.9129    0.0000 C   0  0  0  0  0  0  0  0  0  0  0  0
   16.7778    0.0871    0.0000 C   0  0  0  0  0  0  0  0  0  0  0  0
   14.1518   -1.4475    0.0000 C   0  0  0  0  0  0  0  0  0  0  0  0
   14.1518    0.6218    0.0000 C   0  0  0  0  0  0  0  0  0  0  0  0
   13.2457    0.1079    0.0000 C   0  0  0  0  0  0  0  0  0  0  0  0
   16.7778   -0.9129    0.0000 C   0  0  0  0  0  0  0  0  0  0  0  0
    8.6568   -0.0590    0.0000 H   0  0  0  0  0  0  0  0  0  0  0  0
    8.2556    0.6297    0.0000 H   0  0  0  0  0  0  0  0  0  0  0  0
    6.7888   -1.9336    0.0000 H   0  0  0  0  0  0  0  0  0  0  0  0
    7.5859   -1.9305    0.0000 H   0  0  0  0  0  0  0  0  0  0  0  0
    7.5745    1.0194    0.0000 H   0  0  0  0  0  0  0  0  0  0  0  0
    6.7774    1.0163    0.0000 H   0  0  0  0  0  0  0  0  0  0  0  0
    5.7066   -0.8551    0.0000 H   0  0  0  0  0  0  0  0  0  0  0  0
    6.1078   -1.5438    0.0000 H   0  0  0  0  0  0  0  0  0  0  0  0
    8.5209   -1.9269    0.0000 H   0  0  0  0  0  0  0  0  0  0  0  0
    9.3179   -1.9238    0.0000 H   0  0  0  0  0  0  0  0  0  0  0  0
   10.1783   -0.4706    0.0000 H   0  0  0  0  0  0  0  0  0  0  0  0
    9.3813   -0.4737    0.0000 H   0  0  0  0  0  0  0  0  0  0  0  0
   10.2529   -1.9202    0.0000 H   0  0  0  0  0  0  0  0  0  0  0  0
   11.0499   -1.9171    0.0000 H   0  0  0  0  0  0  0  0  0  0  0  0
    5.9776    1.8483    0.0000 H   0  0  0  0  0  0  0  0  0  0  0  0
    4.7921   -1.3996    0.0000 H   0  0  0  0  0  0  0  0  0  0  0  0
    3.1718    1.8375    0.0000 H   0  0  0  0  0  0  0  0  0  0  0  0
   11.9104   -0.4639    0.0000 H   0  0  0  0  0  0  0  0  0  0  0  0
   11.1133   -0.4670    0.0000 H   0  0  0  0  0  0  0  0  0  0  0  0
    4.5716    2.6529    0.0000 H   0  0  0  0  0  0  0  0  0  0  0  0
    2.1255    0.6693    0.0000 H   0  0  0  0  0  0  0  0  0  0  0  0
    1.3928    0.1876    0.0000 H   0  0  0  0  0  0  0  0  0  0  0  0
    1.8745   -0.5451    0.0000 H   0  0  0  0  0  0  0  0  0  0  0  0
    2.3531   -1.6066    0.0000 H   0  0  0  0  0  0  0  0  0  0  0  0
    2.5833   -2.4527    0.0000 H   0  0  0  0  0  0  0  0  0  0  0  0
    3.4294   -2.2224    0.0000 H   0  0  0  0  0  0  0  0  0  0  0  0
   16.3103    1.0621    0.0000 H   0  0  0  0  0  0  0  0  0  0  0  0
   15.5132    1.0621    0.0000 H   0  0  0  0  0  0  0  0  0  0  0  0
   17.3884   -0.0206    0.0000 H   0  0  0  0  0  0  0  0  0  0  0  0
   16.9898    0.6697    0.0000 H   0  0  0  0  0  0  0  0  0  0  0  0
   14.1590   -2.0675    0.0000 H   0  0  0  0  0  0  0  0  0  0  0  0
   14.1590    1.2417    0.0000 H   0  0  0  0  0  0  0  0  0  0  0  0
   12.7100    0.4200    0.0000 H   0  0  0  0  0  0  0  0  0  0  0  0
   15.9118   -2.0329    0.0000 H   0  0  0  0  0  0  0  0  0  0  0  0
  1 21  1  0  0  0  0
  1 25  1  0  0  0  0
  2 33  2  0  0  0  0
  3  7  1  0  0  0  0
  3  8  1  0  0  0  0
  3 11  1  0  0  0  0
  4  9  1  0  0  0  0
  4 10  1  0  0  0  0
  4 12  1  0  0  0  0
  5 15  1  0  0  0  0
  5 19  1  0  0  0  0
  5 23  1  0  0  0  0
  6 28  1  0  0  0  0
  6 33  1  0  0  0  0
  6 67  1  0  0  0  0
  7  9  1  0  0  0  0
  7 34  1  0  0  0  0
  7 35  1  0  0  0  0
  8 10  1  0  0  0  0
  8 36  1  0  0  0  0
  8 37  1  0  0  0  0
  9 38  1  0  0  0  0
  9 39  1  0  0  0  0
 10 40  1  0  0  0  0
 10 41  1  0  0  0  0
 11 13  1  0  0  0  0
 11 42  1  0  0  0  0
 11 43  1  0  0  0  0
 12 14  1  0  0  0  0
 12 17  2  0  0  0  0
 13 16  1  0  0  0  0
 13 44  1  0  0  0  0
 13 45  1  0  0  0  0
 14 15  2  0  0  0  0
 14 18  1  0  0  0  0
 15 20  1  0  0  0  0
 16 21  1  0  0  0  0
 16 46  1  0  0  0  0
 16 47  1  0  0  0  0
 17 22  1  0  0  0  0
 17 48  1  0  0  0  0
 18 19  2  0  0  0  0
 18 49  1  0  0  0  0
 19 24  1  0  0  0  0
 20 22  2  0  0  0  0
 20 50  1  0  0  0  0
 21 51  1  0  0  0  0
 21 52  1  0  0  0  0
 22 53  1  0  0  0  0
 23 54  1  0  0  0  0
 23 55  1  0  0  0  0
 23 56  1  0  0  0  0
 24 57  1  0  0  0  0
 24 58  1  0  0  0  0
 24 59  1  0  0  0  0
 25 30  2  0  0  0  0
 25 32  1  0  0  0  0
 26 27  1  0  0  0  0
 26 28  2  0  0  0  0
 26 31  1  0  0  0  0
 27 29  1  0  0  0  0
 27 60  1  0  0  0  0
 27 61  1  0  0  0  0
 28 30  1  0  0  0  0
 29 33  1  0  0  0  0
 29 62  1  0  0  0  0
 29 63  1  0  0  0  0
 30 64  1  0  0  0  0
 31 32  2  0  0  0  0
 31 65  1  0  0  0  0
 32 66  1  0  0  0  0
M  END
> <PUBCHEM_COMPOUND_CID>
131801150

> <PUBCHEM_COMPOUND_CANONICALIZED>
1

> <PUBCHEM_CACTVS_COMPLEXITY>
652

> <PUBCHEM_CACTVS_HBOND_ACCEPTOR>
4

> <PUBCHEM_CACTVS_HBOND_DONOR>
1

> <PUBCHEM_CACTVS_ROTATABLE_BOND>
7

> <PUBCHEM_CACTVS_SUBSKEYS>
AAADcfB7sAAAAAAAAAAAAAAAAAAAAWAAAAA8eIEAAAAAAFix9AAAHgAQAAAADAzhngYyxvPMFACoAyVyVACCiCAhIiAI2CE+bJgMZvLE8duWPCjm1BnI6Ae42aOeIAAAAgQCAABAAAAECAQAAAAAAAAAAA==

> <PUBCHEM_IUPAC_OPENEYE_NAME>
7-[4-[4-(1,2-dimethylindol-4-yl)piperazin-1-yl]butoxy]-3,4-dihydro-1H-quinolin-2-one

> <PUBCHEM_IUPAC_CAS_NAME>
7-[4-[4-(1,2-dimethyl-4-indolyl)-1-piperazinyl]butoxy]-3,4-dihydro-1H-quinolin-2-one

> <PUBCHEM_IUPAC_NAME_MARKUP>
7-[4-[4-(1,2-dimethylindol-4-yl)piperazin-1-yl]butoxy]-3,4-dihydro-1<I>H</I>-quinolin-2-one

> <PUBCHEM_IUPAC_NAME>
7-[4-[4-(1,2-dimethylindol-4-yl)piperazin-1-yl]butoxy]-3,4-dihydro-1H-quinolin-2-one

> <PUBCHEM_IUPAC_SYSTEMATIC_NAME>
7-[4-[4-(1,2-dimethylindol-4-yl)piperazin-1-yl]butoxy]-3,4-dihydro-1H-quinolin-2-one

> <PUBCHEM_IUPAC_TRADITIONAL_NAME>
7-[4-[4-(1,2-dimethylindol-4-yl)piperazino]butoxy]-3,4-dihydrocarbostyril

> <PUBCHEM_IUPAC_INCHI>
InChI=1S/C27H34N4O2/c1-20-18-23-25(29(20)2)6-5-7-26(23)31-15-13-30(14-16-31)12-3-4-17-33-22-10-8-21-9-11-27(32)28-24(21)19-22/h5-8,10,18-19H,3-4,9,11-17H2,1-2H3,(H,28,32)

> <PUBCHEM_IUPAC_INCHIKEY>
UNVVHHGPERKXNQ-UHFFFAOYSA-N

> <PUBCHEM_XLOGP3_AA>
3.9

> <PUBCHEM_EXACT_MASS>
446.26817634

> <PUBCHEM_MOLECULAR_FORMULA>
C27H34N4O2

> <PUBCHEM_MOLECULAR_WEIGHT>
446.6

> <PUBCHEM_OPENEYE_CAN_SMILES>
CC1=CC2=C(N1C)C=CC=C2N3CCN(CC3)CCCCOC4=CC5=C(CCC(=O)N5)C=C4

> <PUBCHEM_OPENEYE_ISO_SMILES>
CC1=CC2=C(N1C)C=CC=C2N3CCN(CC3)CCCCOC4=CC5=C(CCC(=O)N5)C=C4

> <PUBCHEM_CACTVS_TPSA>
49.7

> <PUBCHEM_MONOISOTOPIC_WEIGHT>
446.26817634

> <PUBCHEM_TOTAL_CHARGE>
0

> <PUBCHEM_HEAVY_ATOM_COUNT>
33

> <PUBCHEM_ATOM_DEF_STEREO_COUNT>
0

> <PUBCHEM_ATOM_UDEF_STEREO_COUNT>
0

> <PUBCHEM_BOND_DEF_STEREO_COUNT>
0

> <PUBCHEM_BOND_UDEF_STEREO_COUNT>
0

> <PUBCHEM_ISOTOPIC_ATOM_COUNT>
0

> <PUBCHEM_COMPONENT_COUNT>
1

> <PUBCHEM_CACTVS_TAUTO_COUNT>
-1

> <PUBCHEM_COORDINATE_TYPE>
1
5
255

> <PUBCHEM_BONDANNOTATIONS>
12  14  8
12  17  8
14  15  8
14  18  8
15  20  8
17  22  8
18  19  8
20  22  8
25  30  8
25  32  8
26  28  8
26  31  8
28  30  8
31  32  8
5  15  8
5  19  8

$$$$
