67005536
  -OEChem-09292321592D

 48 49  0     1  0  0  0  0  0999 V2000
    3.9998    0.0000    0.0000 Cl  0  0  0  0  0  0  0  0  0  0  0  0
    7.5998    4.3685    0.0000 S   0  0  0  0  0  0  0  0  0  0  0  0
    4.9617    3.8614    0.0000 O   0  0  0  0  0  0  0  0  0  0  0  0
    1.4534    2.8614    0.0000 O   0  0  0  0  0  0  0  0  0  0  0  0
    4.9617    5.9307    0.0000 N   0  0  3  0  0  0  0  0  0  0  0  0
    4.0678    5.3960    0.0000 C   0  0  1  0  0  0  0  0  0  0  0  0
    4.0678    4.3960    0.0000 C   0  0  1  0  0  0  0  0  0  0  0  0
    3.2018    5.8960    0.0000 C   0  0  0  0  0  0  0  0  0  0  0  0
    3.2018    3.8960    0.0000 C   0  0  0  0  0  0  0  0  0  0  0  0
    5.8678    5.4168    0.0000 C   0  0  0  0  0  0  0  0  0  0  0  0
    5.8678    4.3752    0.0000 C   0  0  2  0  0  0  0  0  0  0  0  0
    2.3358    5.3960    0.0000 C   0  0  0  0  0  0  0  0  0  0  0  0
    2.3358    4.3960    0.0000 C   0  0  0  0  0  0  0  0  0  0  0  0
    4.9502    6.9306    0.0000 C   0  0  0  0  0  0  0  0  0  0  0  0
    6.7319    3.8719    0.0000 C   0  0  0  0  0  0  0  0  0  0  0  0
    5.8104    7.4406    0.0000 C   0  0  0  0  0  0  0  0  0  0  0  0
    1.4418    3.8614    0.0000 C   0  0  0  0  0  0  0  0  0  0  0  0
    1.4418    5.9307    0.0000 C   0  0  0  0  0  0  0  0  0  0  0  0
    0.5357    4.3752    0.0000 C   0  0  0  0  0  0  0  0  0  0  0  0
    0.5357    5.4168    0.0000 C   0  0  0  0  0  0  0  0  0  0  0  0
    5.7988    8.4405    0.0000 C   0  0  0  0  0  0  0  0  0  0  0  0
    8.4639    3.8652    0.0000 C   0  0  0  0  0  0  0  0  0  0  0  0
    4.0612    6.2460    0.0000 H   0  0  0  0  0  0  0  0  0  0  0  0
    4.0612    3.5461    0.0000 H   0  0  0  0  0  0  0  0  0  0  0  0
    3.6003    6.3710    0.0000 H   0  0  0  0  0  0  0  0  0  0  0  0
    2.8032    6.3710    0.0000 H   0  0  0  0  0  0  0  0  0  0  0  0
    2.8032    3.4211    0.0000 H   0  0  0  0  0  0  0  0  0  0  0  0
    3.6003    3.4211    0.0000 H   0  0  0  0  0  0  0  0  0  0  0  0
    6.4787    5.3108    0.0000 H   0  0  0  0  0  0  0  0  0  0  0  0
    6.0769    6.0005    0.0000 H   0  0  0  0  0  0  0  0  0  0  0  0
    5.8642    3.7552    0.0000 H   0  0  0  0  0  0  0  0  0  0  0  0
    4.7314    7.5108    0.0000 H   0  0  0  0  0  0  0  0  0  0  0  0
    4.3409    6.8159    0.0000 H   0  0  0  0  0  0  0  0  0  0  0  0
    6.3315    3.3985    0.0000 H   0  0  0  0  0  0  0  0  0  0  0  0
    7.1286    3.3954    0.0000 H   0  0  0  0  0  0  0  0  0  0  0  0
    6.0291    6.8605    0.0000 H   0  0  0  0  0  0  0  0  0  0  0  0
    6.4197    7.5553    0.0000 H   0  0  0  0  0  0  0  0  0  0  0  0
    1.4490    6.5506    0.0000 H   0  0  0  0  0  0  0  0  0  0  0  0
    0.0000    4.0632    0.0000 H   0  0  0  0  0  0  0  0  0  0  0  0
    0.0000    5.7289    0.0000 H   0  0  0  0  0  0  0  0  0  0  0  0
    6.4188    8.4477    0.0000 H   0  0  0  0  0  0  0  0  0  0  0  0
    5.7916    9.0605    0.0000 H   0  0  0  0  0  0  0  0  0  0  0  0
    5.1788    8.4334    0.0000 H   0  0  0  0  0  0  0  0  0  0  0  0
    0.9201    2.5452    0.0000 H   0  0  0  0  0  0  0  0  0  0  0  0
    8.1519    3.3295    0.0000 H   0  0  0  0  0  0  0  0  0  0  0  0
    8.9997    3.5531    0.0000 H   0  0  0  0  0  0  0  0  0  0  0  0
    8.7760    4.4009    0.0000 H   0  0  0  0  0  0  0  0  0  0  0  0
    4.9998    0.0000    0.0000 H   0  0  0  0  0  0  0  0  0  0  0  0
  1 48  1  0  0  0  0
  2 15  1  0  0  0  0
  2 22  1  0  0  0  0
  3  7  1  0  0  0  0
  3 11  1  0  0  0  0
  4 17  1  0  0  0  0
  4 44  1  0  0  0  0
  5  6  1  0  0  0  0
  5 10  1  0  0  0  0
  5 14  1  0  0  0  0
  6  7  1  0  0  0  0
  6  8  1  0  0  0  0
  6 23  1  6  0  0  0
  7  9  1  0  0  0  0
  7 24  1  1  0  0  0
  8 12  1  0  0  0  0
  8 25  1  0  0  0  0
  8 26  1  0  0  0  0
  9 13  1  0  0  0  0
  9 27  1  0  0  0  0
  9 28  1  0  0  0  0
 10 11  1  0  0  0  0
 10 29  1  0  0  0  0
 10 30  1  0  0  0  0
 11 15  1  6  0  0  0
 11 31  1  0  0  0  0
 12 13  2  0  0  0  0
 12 18  1  0  0  0  0
 13 17  1  0  0  0  0
 14 16  1  0  0  0  0
 14 32  1  0  0  0  0
 14 33  1  0  0  0  0
 15 34  1  0  0  0  0
 15 35  1  0  0  0  0
 16 21  1  0  0  0  0
 16 36  1  0  0  0  0
 16 37  1  0  0  0  0
 17 19  2  0  0  0  0
 18 20  2  0  0  0  0
 18 38  1  0  0  0  0
 19 20  1  0  0  0  0
 19 39  1  0  0  0  0
 20 40  1  0  0  0  0
 21 41  1  0  0  0  0
 21 42  1  0  0  0  0
 21 43  1  0  0  0  0
 22 45  1  0  0  0  0
 22 46  1  0  0  0  0
 22 47  1  0  0  0  0
M  END
> <PUBCHEM_COMPOUND_CID>
67005536

> <PUBCHEM_COMPOUND_CANONICALIZED>
1

> <PUBCHEM_CACTVS_COMPLEXITY>
341

> <PUBCHEM_CACTVS_HBOND_ACCEPTOR>
4

> <PUBCHEM_CACTVS_HBOND_DONOR>
2

> <PUBCHEM_CACTVS_ROTATABLE_BOND>
4

> <PUBCHEM_CACTVS_SUBSKEYS>
AAADceB6MABEAAAAAAAAAAAAAAAAAAAAAAA8YIAAAAAAAADxAAAAHgQACAAADDzl2AayBoMABgiAAiBCAAACAAAgIBAIiAAOCIgKJiKikROHcAAkwBGYmAfQ0LMOgAABAAAYAABQAAKAADAgAAAAAAAAAA==

> <PUBCHEM_IUPAC_OPENEYE_NAME>
(2R,4aR,10aR)-2-(methylsulfanylmethyl)-4-propyl-2,3,4a,5,10,10a-hexahydrobenzo[g][1,4]benzoxazin-9-ol;hydrochloride

> <PUBCHEM_IUPAC_CAS_NAME>
(2R,4aR,10aR)-2-[(methylthio)methyl]-4-propyl-2,3,4a,5,10,10a-hexahydrobenzo[g][1,4]benzoxazin-9-ol;hydrochloride

> <PUBCHEM_IUPAC_NAME_MARKUP>
(2<I>R</I>,4<I>a</I><I>R</I>,10<I>a</I><I>R</I>)-2-(methylsulfanylmethyl)-4-propyl-2,3,4<I>a</I>,5,10,10<I>a</I>-hexahydrobenzo[g][1,4]benzoxazin-9-ol;hydrochloride

> <PUBCHEM_IUPAC_NAME>
(2R,4aR,10aR)-2-(methylsulfanylmethyl)-4-propyl-2,3,4a,5,10,10a-hexahydrobenzo[g][1,4]benzoxazin-9-ol;hydrochloride

> <PUBCHEM_IUPAC_SYSTEMATIC_NAME>
(2R,4aR,10aR)-2-(methylsulfanylmethyl)-4-propyl-2,3,4a,5,10,10a-hexahydrobenzo[g][1,4]benzoxazin-9-ol;hydrochloride

> <PUBCHEM_IUPAC_TRADITIONAL_NAME>
(2R,4aR,10aR)-2-[(methylthio)methyl]-4-propyl-2,3,4a,5,10,10a-hexahydrobenzo[g][1,4]benzoxazin-9-ol;hydrochloride

> <PUBCHEM_IUPAC_INCHI>
InChI=1S/C17H25NO2S.ClH/c1-3-7-18-10-13(11-21-2)20-17-9-14-12(8-15(17)18)5-4-6-16(14)19;/h4-6,13,15,17,19H,3,7-11H2,1-2H3;1H/t13-,15-,17-;/m1./s1

> <PUBCHEM_IUPAC_INCHIKEY>
BBFFNLWYYFGZLA-YOLHSKTNSA-N

> <PUBCHEM_EXACT_MASS>
343.1372779

> <PUBCHEM_MOLECULAR_FORMULA>
C17H26ClNO2S

> <PUBCHEM_MOLECULAR_WEIGHT>
343.9

> <PUBCHEM_OPENEYE_CAN_SMILES>
CCCN1CC(OC2C1CC3=C(C2)C(=CC=C3)O)CSC.Cl

> <PUBCHEM_OPENEYE_ISO_SMILES>
CCCN1C[C@@H](O[C@H]2[C@H]1CC3=C(C2)C(=CC=C3)O)CSC.Cl

> <PUBCHEM_CACTVS_TPSA>
58

> <PUBCHEM_MONOISOTOPIC_WEIGHT>
343.1372779

> <PUBCHEM_TOTAL_CHARGE>
0

> <PUBCHEM_HEAVY_ATOM_COUNT>
22

> <PUBCHEM_ATOM_DEF_STEREO_COUNT>
3

> <PUBCHEM_ATOM_UDEF_STEREO_COUNT>
0

> <PUBCHEM_BOND_DEF_STEREO_COUNT>
0

> <PUBCHEM_BOND_UDEF_STEREO_COUNT>
0

> <PUBCHEM_ISOTOPIC_ATOM_COUNT>
0

> <PUBCHEM_COMPONENT_COUNT>
2

> <PUBCHEM_CACTVS_TAUTO_COUNT>
-1

> <PUBCHEM_COORDINATE_TYPE>
1
5
255

> <PUBCHEM_BONDANNOTATIONS>
11  15  6
12  13  8
12  18  8
13  17  8
17  19  8
18  20  8
19  20  8
6  23  6
7  24  5

$$$$
