44277580
  -OEChem-09292322202D

 56 59  0     0  0  0  0  0  0999 V2000
    9.7942   -0.5173    0.0000 O   0  0  0  0  0  0  0  0  0  0  0  0
   11.5263   -0.5173    0.0000 O   0  0  0  0  0  0  0  0  0  0  0  0
    6.3301    0.4827    0.0000 N   0  0  0  0  0  0  0  0  0  0  0  0
    4.5981   -0.5173    0.0000 N   0  0  0  0  0  0  0  0  0  0  0  0
    8.9282    0.9827    0.0000 N   0  0  0  0  0  0  0  0  0  0  0  0
    5.4641    0.9827    0.0000 C   0  0  0  0  0  0  0  0  0  0  0  0
    6.3301   -0.5173    0.0000 C   0  0  0  0  0  0  0  0  0  0  0  0
    4.5981    0.4827    0.0000 C   0  0  0  0  0  0  0  0  0  0  0  0
    5.4641   -1.0173    0.0000 C   0  0  0  0  0  0  0  0  0  0  0  0
    7.1962    0.9827    0.0000 C   0  0  0  0  0  0  0  0  0  0  0  0
    3.7320   -1.0173    0.0000 C   0  0  0  0  0  0  0  0  0  0  0  0
    8.0622    0.4827    0.0000 C   0  0  0  0  0  0  0  0  0  0  0  0
    2.8660   -0.5173    0.0000 C   0  0  0  0  0  0  0  0  0  0  0  0
    3.7320   -2.0173    0.0000 C   0  0  0  0  0  0  0  0  0  0  0  0
    9.7942    0.4827    0.0000 C   0  0  0  0  0  0  0  0  0  0  0  0
    2.0000   -1.0173    0.0000 C   0  0  0  0  0  0  0  0  0  0  0  0
    2.8660   -2.5173    0.0000 C   0  0  0  0  0  0  0  0  0  0  0  0
   10.6603    0.9827    0.0000 C   0  0  0  0  0  0  0  0  0  0  0  0
    2.0000   -2.0173    0.0000 C   0  0  0  0  0  0  0  0  0  0  0  0
   11.5263    0.4827    0.0000 C   0  0  0  0  0  0  0  0  0  0  0  0
   12.3923    0.9827    0.0000 C   0  0  0  0  0  0  0  0  0  0  0  0
   12.3923    1.9827    0.0000 C   0  0  0  0  0  0  0  0  0  0  0  0
   10.6603    1.9827    0.0000 C   0  0  0  0  0  0  0  0  0  0  0  0
   11.5263    2.4827    0.0000 C   0  0  0  0  0  0  0  0  0  0  0  0
   13.2862    0.4480    0.0000 C   0  0  0  0  0  0  0  0  0  0  0  0
   13.2862    2.5173    0.0000 C   0  0  0  0  0  0  0  0  0  0  0  0
   14.1923    0.9619    0.0000 C   0  0  0  0  0  0  0  0  0  0  0  0
   14.1923    2.0035    0.0000 C   0  0  0  0  0  0  0  0  0  0  0  0
   12.3923   -1.0173    0.0000 C   0  0  0  0  0  0  0  0  0  0  0  0
    5.8626    1.4576    0.0000 H   0  0  0  0  0  0  0  0  0  0  0  0
    5.0656    1.4576    0.0000 H   0  0  0  0  0  0  0  0  0  0  0  0
    6.5422   -1.0999    0.0000 H   0  0  0  0  0  0  0  0  0  0  0  0
    6.9407   -0.4097    0.0000 H   0  0  0  0  0  0  0  0  0  0  0  0
    4.3860    1.0653    0.0000 H   0  0  0  0  0  0  0  0  0  0  0  0
    3.9875    0.3750    0.0000 H   0  0  0  0  0  0  0  0  0  0  0  0
    5.0656   -1.4923    0.0000 H   0  0  0  0  0  0  0  0  0  0  0  0
    5.8626   -1.4923    0.0000 H   0  0  0  0  0  0  0  0  0  0  0  0
    7.5947    1.4576    0.0000 H   0  0  0  0  0  0  0  0  0  0  0  0
    6.7976    1.4576    0.0000 H   0  0  0  0  0  0  0  0  0  0  0  0
    7.6636    0.0077    0.0000 H   0  0  0  0  0  0  0  0  0  0  0  0
    8.4607    0.0077    0.0000 H   0  0  0  0  0  0  0  0  0  0  0  0
    8.9282    1.6027    0.0000 H   0  0  0  0  0  0  0  0  0  0  0  0
    2.8660    0.1027    0.0000 H   0  0  0  0  0  0  0  0  0  0  0  0
    4.2690   -2.3273    0.0000 H   0  0  0  0  0  0  0  0  0  0  0  0
    1.4631   -0.7073    0.0000 H   0  0  0  0  0  0  0  0  0  0  0  0
    2.8660   -3.1373    0.0000 H   0  0  0  0  0  0  0  0  0  0  0  0
    1.4631   -2.3273    0.0000 H   0  0  0  0  0  0  0  0  0  0  0  0
   10.1233    2.2927    0.0000 H   0  0  0  0  0  0  0  0  0  0  0  0
   11.5263    3.1027    0.0000 H   0  0  0  0  0  0  0  0  0  0  0  0
   13.2791   -0.1720    0.0000 H   0  0  0  0  0  0  0  0  0  0  0  0
   13.2791    3.1373    0.0000 H   0  0  0  0  0  0  0  0  0  0  0  0
   14.7281    0.6498    0.0000 H   0  0  0  0  0  0  0  0  0  0  0  0
   14.7281    2.3156    0.0000 H   0  0  0  0  0  0  0  0  0  0  0  0
   12.0823   -1.5543    0.0000 H   0  0  0  0  0  0  0  0  0  0  0  0
   12.9292   -1.3273    0.0000 H   0  0  0  0  0  0  0  0  0  0  0  0
   12.7023   -0.4804    0.0000 H   0  0  0  0  0  0  0  0  0  0  0  0
  1 15  2  0  0  0  0
  2 20  1  0  0  0  0
  2 29  1  0  0  0  0
  3  6  1  0  0  0  0
  3  7  1  0  0  0  0
  3 10  1  0  0  0  0
  4  8  1  0  0  0  0
  4  9  1  0  0  0  0
  4 11  1  0  0  0  0
  5 12  1  0  0  0  0
  5 15  1  0  0  0  0
  5 42  1  0  0  0  0
  6  8  1  0  0  0  0
  6 30  1  0  0  0  0
  6 31  1  0  0  0  0
  7  9  1  0  0  0  0
  7 32  1  0  0  0  0
  7 33  1  0  0  0  0
  8 34  1  0  0  0  0
  8 35  1  0  0  0  0
  9 36  1  0  0  0  0
  9 37  1  0  0  0  0
 10 12  1  0  0  0  0
 10 38  1  0  0  0  0
 10 39  1  0  0  0  0
 11 13  2  0  0  0  0
 11 14  1  0  0  0  0
 12 40  1  0  0  0  0
 12 41  1  0  0  0  0
 13 16  1  0  0  0  0
 13 43  1  0  0  0  0
 14 17  2  0  0  0  0
 14 44  1  0  0  0  0
 15 18  1  0  0  0  0
 16 19  2  0  0  0  0
 16 45  1  0  0  0  0
 17 19  1  0  0  0  0
 17 46  1  0  0  0  0
 18 20  2  0  0  0  0
 18 23  1  0  0  0  0
 19 47  1  0  0  0  0
 20 21  1  0  0  0  0
 21 22  1  0  0  0  0
 21 25  2  0  0  0  0
 22 24  1  0  0  0  0
 22 26  2  0  0  0  0
 23 24  2  0  0  0  0
 23 48  1  0  0  0  0
 24 49  1  0  0  0  0
 25 27  1  0  0  0  0
 25 50  1  0  0  0  0
 26 28  1  0  0  0  0
 26 51  1  0  0  0  0
 27 28  2  0  0  0  0
 27 52  1  0  0  0  0
 28 53  1  0  0  0  0
 29 54  1  0  0  0  0
 29 55  1  0  0  0  0
 29 56  1  0  0  0  0
M  END
> <PUBCHEM_COMPOUND_CID>
44277580

> <PUBCHEM_COMPOUND_CANONICALIZED>
1

> <PUBCHEM_CACTVS_COMPLEXITY>
514

> <PUBCHEM_CACTVS_HBOND_ACCEPTOR>
4

> <PUBCHEM_CACTVS_HBOND_DONOR>
1

> <PUBCHEM_CACTVS_ROTATABLE_BOND>
6

> <PUBCHEM_CACTVS_SUBSKEYS>
AAADceB7MAAAAAAAAAAAAAAAAAAAAAAAAAA8YMEAAAAAAADBVAAAHgAQAAAADAzBmAYyxsPABACIAiVSUACCCAAlIgAIiIEMbMgMZjbEtZuUMWhm9hHI6YeYyPCOwAADAAAYAACAAAYAADAAAAAAAAAAAA==

> <PUBCHEM_IUPAC_OPENEYE_NAME>
1-methoxy-N-[2-(4-phenylpiperazin-1-yl)ethyl]naphthalene-2-carboxamide

> <PUBCHEM_IUPAC_CAS_NAME>
1-methoxy-N-[2-(4-phenyl-1-piperazinyl)ethyl]-2-naphthalenecarboxamide

> <PUBCHEM_IUPAC_NAME_MARKUP>
1-methoxy-<I>N</I>-[2-(4-phenylpiperazin-1-yl)ethyl]naphthalene-2-carboxamide

> <PUBCHEM_IUPAC_NAME>
1-methoxy-N-[2-(4-phenylpiperazin-1-yl)ethyl]naphthalene-2-carboxamide

> <PUBCHEM_IUPAC_SYSTEMATIC_NAME>
1-methoxy-N-[2-(4-phenylpiperazin-1-yl)ethyl]naphthalene-2-carboxamide

> <PUBCHEM_IUPAC_TRADITIONAL_NAME>
1-methoxy-N-[2-(4-phenylpiperazino)ethyl]-2-naphthamide

> <PUBCHEM_IUPAC_INCHI>
InChI=1S/C24H27N3O2/c1-29-23-21-10-6-5-7-19(21)11-12-22(23)24(28)25-13-14-26-15-17-27(18-16-26)20-8-3-2-4-9-20/h2-12H,13-18H2,1H3,(H,25,28)

> <PUBCHEM_IUPAC_INCHIKEY>
BONDCIXLHQKYHM-UHFFFAOYSA-N

> <PUBCHEM_XLOGP3_AA>
4.1

> <PUBCHEM_EXACT_MASS>
389.21032711

> <PUBCHEM_MOLECULAR_FORMULA>
C24H27N3O2

> <PUBCHEM_MOLECULAR_WEIGHT>
389.5

> <PUBCHEM_OPENEYE_CAN_SMILES>
COC1=C(C=CC2=CC=CC=C21)C(=O)NCCN3CCN(CC3)C4=CC=CC=C4

> <PUBCHEM_OPENEYE_ISO_SMILES>
COC1=C(C=CC2=CC=CC=C21)C(=O)NCCN3CCN(CC3)C4=CC=CC=C4

> <PUBCHEM_CACTVS_TPSA>
44.8

> <PUBCHEM_MONOISOTOPIC_WEIGHT>
389.21032711

> <PUBCHEM_TOTAL_CHARGE>
0

> <PUBCHEM_HEAVY_ATOM_COUNT>
29

> <PUBCHEM_ATOM_DEF_STEREO_COUNT>
0

> <PUBCHEM_ATOM_UDEF_STEREO_COUNT>
0

> <PUBCHEM_BOND_DEF_STEREO_COUNT>
0

> <PUBCHEM_BOND_UDEF_STEREO_COUNT>
0

> <PUBCHEM_ISOTOPIC_ATOM_COUNT>
0

> <PUBCHEM_COMPONENT_COUNT>
1

> <PUBCHEM_CACTVS_TAUTO_COUNT>
-1

> <PUBCHEM_COORDINATE_TYPE>
1
5
255

> <PUBCHEM_BONDANNOTATIONS>
11  13  8
11  14  8
13  16  8
14  17  8
16  19  8
17  19  8
18  20  8
18  23  8
20  21  8
21  22  8
21  25  8
22  24  8
22  26  8
23  24  8
25  27  8
26  28  8
27  28  8

$$$$
