73670735
  -OEChem-09292322452D

 82 86  0     0  0  0  0  0  0999 V2000
    8.4097    0.5635    0.0000 O   0  0  0  0  0  0  0  0  0  0  0  0
    2.9789    1.5134    0.0000 O   0  0  0  0  0  0  0  0  0  0  0  0
   13.6580   -0.1114    0.0000 N   0  0  0  0  0  0  0  0  0  0  0  0
   14.9906   -1.6028    0.0000 N   0  0  0  0  0  0  0  0  0  0  0  0
    8.0562    2.2591    0.0000 N   0  0  0  0  0  0  0  0  0  0  0  0
    5.8507    4.3740    0.0000 N   0  0  0  0  0  0  0  0  0  0  0  0
    9.7014    1.7175    0.0000 N   0  0  0  0  0  0  0  0  0  0  0  0
   15.3441   -3.2984    0.0000 N   0  0  0  0  0  0  0  0  0  0  0  0
   16.9893   -3.8400    0.0000 N   0  0  0  0  0  0  0  0  0  0  0  0
   13.3453   -1.0612    0.0000 C   0  0  0  0  0  0  0  0  0  0  0  0
   14.6370    0.0928    0.0000 C   0  0  0  0  0  0  0  0  0  0  0  0
   14.0116   -1.8069    0.0000 C   0  0  0  0  0  0  0  0  0  0  0  0
   15.3032   -0.6529    0.0000 C   0  0  0  0  0  0  0  0  0  0  0  0
   12.9918    0.6344    0.0000 C   0  0  0  0  0  0  0  0  0  0  0  0
   12.0128    0.4302    0.0000 C   0  0  0  0  0  0  0  0  0  0  0  0
    6.3507    2.8351    0.0000 C   0  0  0  0  0  0  0  0  0  0  0  0
    6.6597    3.7862    0.0000 C   0  0  0  0  0  0  0  0  0  0  0  0
    7.0356    2.0504    0.0000 C   0  0  0  0  0  0  0  0  0  0  0  0
    7.6751    4.0184    0.0000 C   0  0  0  0  0  0  0  0  0  0  0  0
    8.3780    3.2497    0.0000 C   0  0  0  0  0  0  0  0  0  0  0  0
   11.3466    1.1759    0.0000 C   0  0  0  0  0  0  0  0  0  0  0  0
   15.6568   -2.3485    0.0000 C   0  0  0  0  0  0  0  0  0  0  0  0
    5.3507    2.8351    0.0000 C   0  0  0  0  0  0  0  0  0  0  0  0
    5.0417    3.7862    0.0000 C   0  0  0  0  0  0  0  0  0  0  0  0
   10.3676    0.9718    0.0000 C   0  0  0  0  0  0  0  0  0  0  0  0
   18.2810   -2.6860    0.0000 C   0  0  0  0  0  0  0  0  0  0  0  0
    8.7224    1.5134    0.0000 C   0  0  0  0  0  0  0  0  0  0  0  0
   16.6358   -2.1444    0.0000 C   0  0  0  0  0  0  0  0  0  0  0  0
   17.3020   -2.8901    0.0000 C   0  0  0  0  0  0  0  0  0  0  0  0
    4.6657    2.0504    0.0000 C   0  0  0  0  0  0  0  0  0  0  0  0
    4.0263    4.0184    0.0000 C   0  0  0  0  0  0  0  0  0  0  0  0
   19.2599   -2.4818    0.0000 C   0  0  0  0  0  0  0  0  0  0  0  0
   18.4851   -3.6649    0.0000 C   0  0  0  0  0  0  0  0  0  0  0  0
   18.0768   -1.7070    0.0000 C   0  0  0  0  0  0  0  0  0  0  0  0
    3.6452    2.2591    0.0000 C   0  0  0  0  0  0  0  0  0  0  0  0
   16.0104   -4.0441    0.0000 C   0  0  0  0  0  0  0  0  0  0  0  0
    3.3233    3.2497    0.0000 C   0  0  0  0  0  0  0  0  0  0  0  0
   15.6977   -4.9940    0.0000 C   0  0  0  0  0  0  0  0  0  0  0  0
    2.0000    1.7175    0.0000 C   0  0  0  0  0  0  0  0  0  0  0  0
   12.7990   -0.7680    0.0000 H   0  0  0  0  0  0  0  0  0  0  0  0
   12.9618   -1.5483    0.0000 H   0  0  0  0  0  0  0  0  0  0  0  0
   15.1640    0.4193    0.0000 H   0  0  0  0  0  0  0  0  0  0  0  0
   14.4069    0.6685    0.0000 H   0  0  0  0  0  0  0  0  0  0  0  0
   13.4846   -2.1335    0.0000 H   0  0  0  0  0  0  0  0  0  0  0  0
   14.2416   -2.3827    0.0000 H   0  0  0  0  0  0  0  0  0  0  0  0
   15.8495   -0.9461    0.0000 H   0  0  0  0  0  0  0  0  0  0  0  0
   15.6868   -0.1659    0.0000 H   0  0  0  0  0  0  0  0  0  0  0  0
   13.5188    0.9609    0.0000 H   0  0  0  0  0  0  0  0  0  0  0  0
   12.7617    1.2101    0.0000 H   0  0  0  0  0  0  0  0  0  0  0  0
   11.4858    0.1037    0.0000 H   0  0  0  0  0  0  0  0  0  0  0  0
   12.2429   -0.1455    0.0000 H   0  0  0  0  0  0  0  0  0  0  0  0
    6.5057    1.7286    0.0000 H   0  0  0  0  0  0  0  0  0  0  0  0
    7.2620    1.4732    0.0000 H   0  0  0  0  0  0  0  0  0  0  0  0
    8.1975    4.3524    0.0000 H   0  0  0  0  0  0  0  0  0  0  0  0
    7.4355    4.5902    0.0000 H   0  0  0  0  0  0  0  0  0  0  0  0
    8.9262    2.9601    0.0000 H   0  0  0  0  0  0  0  0  0  0  0  0
    8.7572    3.7403    0.0000 H   0  0  0  0  0  0  0  0  0  0  0  0
   11.8736    1.5024    0.0000 H   0  0  0  0  0  0  0  0  0  0  0  0
   11.1165    1.7517    0.0000 H   0  0  0  0  0  0  0  0  0  0  0  0
    5.8507    4.9940    0.0000 H   0  0  0  0  0  0  0  0  0  0  0  0
    9.8406    0.6453    0.0000 H   0  0  0  0  0  0  0  0  0  0  0  0
   10.5977    0.3960    0.0000 H   0  0  0  0  0  0  0  0  0  0  0  0
   16.8296   -1.5555    0.0000 H   0  0  0  0  0  0  0  0  0  0  0  0
    9.8952    2.3064    0.0000 H   0  0  0  0  0  0  0  0  0  0  0  0
    4.8641    1.4630    0.0000 H   0  0  0  0  0  0  0  0  0  0  0  0
    3.8415    4.6102    0.0000 H   0  0  0  0  0  0  0  0  0  0  0  0
   19.3865   -3.0888    0.0000 H   0  0  0  0  0  0  0  0  0  0  0  0
   19.8668   -2.3553    0.0000 H   0  0  0  0  0  0  0  0  0  0  0  0
   19.1333   -1.8749    0.0000 H   0  0  0  0  0  0  0  0  0  0  0  0
   17.8782   -3.7915    0.0000 H   0  0  0  0  0  0  0  0  0  0  0  0
   18.6117   -4.2718    0.0000 H   0  0  0  0  0  0  0  0  0  0  0  0
   19.0920   -3.5383    0.0000 H   0  0  0  0  0  0  0  0  0  0  0  0
   18.6838   -1.5804    0.0000 H   0  0  0  0  0  0  0  0  0  0  0  0
   17.9503   -1.1001    0.0000 H   0  0  0  0  0  0  0  0  0  0  0  0
   17.4699   -1.8336    0.0000 H   0  0  0  0  0  0  0  0  0  0  0  0
    2.7174    3.3810    0.0000 H   0  0  0  0  0  0  0  0  0  0  0  0
   15.1088   -4.8001    0.0000 H   0  0  0  0  0  0  0  0  0  0  0  0
   15.5038   -5.5829    0.0000 H   0  0  0  0  0  0  0  0  0  0  0  0
   16.2866   -5.1878    0.0000 H   0  0  0  0  0  0  0  0  0  0  0  0
    2.1266    2.3244    0.0000 H   0  0  0  0  0  0  0  0  0  0  0  0
    1.3931    1.8441    0.0000 H   0  0  0  0  0  0  0  0  0  0  0  0
    1.8734    1.1106    0.0000 H   0  0  0  0  0  0  0  0  0  0  0  0
  1 27  2  0  0  0  0
  2 35  1  0  0  0  0
  2 39  1  0  0  0  0
  3 10  1  0  0  0  0
  3 11  1  0  0  0  0
  3 14  1  0  0  0  0
  4 12  1  0  0  0  0
  4 13  1  0  0  0  0
  4 22  1  0  0  0  0
  5 18  1  0  0  0  0
  5 20  1  0  0  0  0
  5 27  1  0  0  0  0
  6 17  1  0  0  0  0
  6 24  1  0  0  0  0
  6 60  1  0  0  0  0
  7 25  1  0  0  0  0
  7 27  1  0  0  0  0
  7 64  1  0  0  0  0
  8 22  2  0  0  0  0
  8 36  1  0  0  0  0
  9 29  1  0  0  0  0
  9 36  2  0  0  0  0
 10 12  1  0  0  0  0
 10 40  1  0  0  0  0
 10 41  1  0  0  0  0
 11 13  1  0  0  0  0
 11 42  1  0  0  0  0
 11 43  1  0  0  0  0
 12 44  1  0  0  0  0
 12 45  1  0  0  0  0
 13 46  1  0  0  0  0
 13 47  1  0  0  0  0
 14 15  1  0  0  0  0
 14 48  1  0  0  0  0
 14 49  1  0  0  0  0
 15 21  1  0  0  0  0
 15 50  1  0  0  0  0
 15 51  1  0  0  0  0
 16 17  2  0  0  0  0
 16 18  1  0  0  0  0
 16 23  1  0  0  0  0
 17 19  1  0  0  0  0
 18 52  1  0  0  0  0
 18 53  1  0  0  0  0
 19 20  1  0  0  0  0
 19 54  1  0  0  0  0
 19 55  1  0  0  0  0
 20 56  1  0  0  0  0
 20 57  1  0  0  0  0
 21 25  1  0  0  0  0
 21 58  1  0  0  0  0
 21 59  1  0  0  0  0
 22 28  1  0  0  0  0
 23 24  2  0  0  0  0
 23 30  1  0  0  0  0
 24 31  1  0  0  0  0
 25 61  1  0  0  0  0
 25 62  1  0  0  0  0
 26 29  1  0  0  0  0
 26 32  1  0  0  0  0
 26 33  1  0  0  0  0
 26 34  1  0  0  0  0
 28 29  2  0  0  0  0
 28 63  1  0  0  0  0
 30 35  2  0  0  0  0
 30 65  1  0  0  0  0
 31 37  2  0  0  0  0
 31 66  1  0  0  0  0
 32 67  1  0  0  0  0
 32 68  1  0  0  0  0
 32 69  1  0  0  0  0
 33 70  1  0  0  0  0
 33 71  1  0  0  0  0
 33 72  1  0  0  0  0
 34 73  1  0  0  0  0
 34 74  1  0  0  0  0
 34 75  1  0  0  0  0
 35 37  1  0  0  0  0
 36 38  1  0  0  0  0
 37 76  1  0  0  0  0
 38 77  1  0  0  0  0
 38 78  1  0  0  0  0
 38 79  1  0  0  0  0
 39 80  1  0  0  0  0
 39 81  1  0  0  0  0
 39 82  1  0  0  0  0
M  END
> <PUBCHEM_COMPOUND_CID>
73670735

> <PUBCHEM_COMPOUND_CANONICALIZED>
1

> <PUBCHEM_CACTVS_COMPLEXITY>
799

> <PUBCHEM_CACTVS_HBOND_ACCEPTOR>
6

> <PUBCHEM_CACTVS_HBOND_DONOR>
2

> <PUBCHEM_CACTVS_ROTATABLE_BOND>
8

> <PUBCHEM_CACTVS_SUBSKEYS>
AAADcfB7sAAAAAAAAAAAAAAAAAAAAWAAAAA8WLEAAAAAAFgB/AAAHgAQAAAADgzBnwYz9vfJlACoAyZidACCiCkhIqAJmaA+bJiMbuLE+duUNChs1hPI6Cew0PMPgEABAAACAAAAgAIAAAQAAAAAAAAAAA==

> <PUBCHEM_IUPAC_OPENEYE_NAME>
N-[4-[4-(6-tert-butyl-2-methyl-pyrimidin-4-yl)piperazin-1-yl]butyl]-8-methoxy-1,3,4,5-tetrahydropyrido[4,3-b]indole-2-carboxamide

> <PUBCHEM_IUPAC_CAS_NAME>
N-[4-[4-(6-tert-butyl-2-methyl-4-pyrimidinyl)-1-piperazinyl]butyl]-8-methoxy-1,3,4,5-tetrahydropyrido[4,3-b]indole-2-carboxamide

> <PUBCHEM_IUPAC_NAME_MARKUP>
<I>N</I>-[4-[4-(6-<I>tert</I>-butyl-2-methylpyrimidin-4-yl)piperazin-1-yl]butyl]-8-methoxy-1,3,4,5-tetrahydropyrido[4,3-b]indole-2-carboxamide

> <PUBCHEM_IUPAC_NAME>
N-[4-[4-(6-tert-butyl-2-methylpyrimidin-4-yl)piperazin-1-yl]butyl]-8-methoxy-1,3,4,5-tetrahydropyrido[4,3-b]indole-2-carboxamide

> <PUBCHEM_IUPAC_SYSTEMATIC_NAME>
N-[4-[4-(6-tert-butyl-2-methyl-pyrimidin-4-yl)piperazin-1-yl]butyl]-8-methoxy-1,3,4,5-tetrahydropyrido[4,3-b]indole-2-carboxamide

> <PUBCHEM_IUPAC_TRADITIONAL_NAME>
N-[4-[4-(6-tert-butyl-2-methyl-pyrimidin-4-yl)piperazino]butyl]-8-methoxy-1,3,4,5-tetrahydropyrid[4,3-b]indole-2-carboxamide

> <PUBCHEM_IUPAC_INCHI>
InChI=1S/C30H43N7O2/c1-21-32-27(30(2,3)4)19-28(33-21)36-16-14-35(15-17-36)12-7-6-11-31-29(38)37-13-10-26-24(20-37)23-18-22(39-5)8-9-25(23)34-26/h8-9,18-19,34H,6-7,10-17,20H2,1-5H3,(H,31,38)

> <PUBCHEM_IUPAC_INCHIKEY>
PWCSMJIRMONKML-UHFFFAOYSA-N

> <PUBCHEM_XLOGP3_AA>
4.3

> <PUBCHEM_EXACT_MASS>
533.34782364

> <PUBCHEM_MOLECULAR_FORMULA>
C30H43N7O2

> <PUBCHEM_MOLECULAR_WEIGHT>
533.7

> <PUBCHEM_OPENEYE_CAN_SMILES>
CC1=NC(=CC(=N1)N2CCN(CC2)CCCCNC(=O)N3CCC4=C(C3)C5=C(N4)C=CC(=C5)OC)C(C)(C)C

> <PUBCHEM_OPENEYE_ISO_SMILES>
CC1=NC(=CC(=N1)N2CCN(CC2)CCCCNC(=O)N3CCC4=C(C3)C5=C(N4)C=CC(=C5)OC)C(C)(C)C

> <PUBCHEM_CACTVS_TPSA>
89.6

> <PUBCHEM_MONOISOTOPIC_WEIGHT>
533.34782364

> <PUBCHEM_TOTAL_CHARGE>
0

> <PUBCHEM_HEAVY_ATOM_COUNT>
39

> <PUBCHEM_ATOM_DEF_STEREO_COUNT>
0

> <PUBCHEM_ATOM_UDEF_STEREO_COUNT>
0

> <PUBCHEM_BOND_DEF_STEREO_COUNT>
0

> <PUBCHEM_BOND_UDEF_STEREO_COUNT>
0

> <PUBCHEM_ISOTOPIC_ATOM_COUNT>
0

> <PUBCHEM_COMPONENT_COUNT>
1

> <PUBCHEM_CACTVS_TAUTO_COUNT>
-1

> <PUBCHEM_COORDINATE_TYPE>
1
5
255

> <PUBCHEM_BONDANNOTATIONS>
16  17  8
16  23  8
22  28  8
23  24  8
23  30  8
24  31  8
28  29  8
30  35  8
31  37  8
35  37  8
6  17  8
6  24  8
8  22  8
8  36  8
9  29  8
9  36  8

$$$$
