164916966
  -OEChem-09292322442D

 79 83  0     1  0  0  0  0  0999 V2000
    6.9173   -5.7264    0.0000 Cl  0  0  0  0  0  0  0  0  0  0  0  0
    7.4377    2.2244    0.0000 O   0  0  0  0  0  0  0  0  0  0  0  0
    4.3192   -2.2264    0.0000 O   0  0  0  0  0  0  0  0  0  0  0  0
    6.9173   -3.7264    0.0000 O   0  0  0  0  0  0  0  0  0  0  0  0
    3.4532   -3.7264    0.0000 O   0  0  0  0  0  0  0  0  0  0  0  0
    5.7435    2.5845    0.0000 N   0  0  0  0  0  0  0  0  0  0  0  0
    7.0218    0.2681    0.0000 N   0  0  3  0  0  0  0  0  0  0  0  0
    6.0513   -2.2264    0.0000 N   0  0  0  0  0  0  0  0  0  0  0  0
    4.9344    3.9858    0.0000 C   0  0  0  0  0  0  0  0  0  0  0  0
    5.8480    3.5790    0.0000 C   0  0  0  0  0  0  0  0  0  0  0  0
    4.2653    3.2426    0.0000 C   0  0  0  0  0  0  0  0  0  0  0  0
    4.7653    2.3766    0.0000 C   0  0  0  0  0  0  0  0  0  0  0  0
    6.9173   -0.7264    0.0000 C   0  0  3  0  0  0  0  0  0  0  0  0
    7.8308   -1.1332    0.0000 C   0  0  0  0  0  0  0  0  0  0  0  0
    8.0000    0.4760    0.0000 C   0  0  0  0  0  0  0  0  0  0  0  0
    6.2787    0.9372    0.0000 C   0  0  0  0  0  0  0  0  0  0  0  0
    3.9563    4.1937    0.0000 C   0  0  0  0  0  0  0  0  0  0  0  0
    5.3412    4.8993    0.0000 C   0  0  0  0  0  0  0  0  0  0  0  0
    8.5000   -0.3900    0.0000 C   0  0  0  0  0  0  0  0  0  0  0  0
    6.4866    1.9154    0.0000 C   0  0  0  0  0  0  0  0  0  0  0  0
    6.0513   -1.2264    0.0000 C   0  0  0  0  0  0  0  0  0  0  0  0
    3.6473    5.1447    0.0000 C   0  0  0  0  0  0  0  0  0  0  0  0
    4.7534    5.7083    0.0000 C   0  0  0  0  0  0  0  0  0  0  0  0
    3.2872    3.4505    0.0000 C   0  0  0  0  0  0  0  0  0  0  0  0
    6.3357    5.0038    0.0000 C   0  0  0  0  0  0  0  0  0  0  0  0
    2.6691    5.3527    0.0000 C   0  0  0  0  0  0  0  0  0  0  0  0
    5.1601    6.6219    0.0000 C   0  0  0  0  0  0  0  0  0  0  0  0
    2.3090    3.6584    0.0000 C   0  0  0  0  0  0  0  0  0  0  0  0
    6.7424    5.9174    0.0000 C   0  0  0  0  0  0  0  0  0  0  0  0
    2.0000    4.6095    0.0000 C   0  0  0  0  0  0  0  0  0  0  0  0
    6.1546    6.7264    0.0000 C   0  0  0  0  0  0  0  0  0  0  0  0
    5.1853   -2.7264    0.0000 C   0  0  0  0  0  0  0  0  0  0  0  0
    5.1853   -3.7264    0.0000 C   0  0  0  0  0  0  0  0  0  0  0  0
    4.3192   -4.2264    0.0000 C   0  0  0  0  0  0  0  0  0  0  0  0
    6.0513   -4.2264    0.0000 C   0  0  0  0  0  0  0  0  0  0  0  0
    4.3192   -5.2264    0.0000 C   0  0  0  0  0  0  0  0  0  0  0  0
    6.0513   -5.2264    0.0000 C   0  0  0  0  0  0  0  0  0  0  0  0
    5.1853   -5.7264    0.0000 C   0  0  0  0  0  0  0  0  0  0  0  0
    3.4532   -5.7264    0.0000 C   0  0  0  0  0  0  0  0  0  0  0  0
    3.4532   -6.7264    0.0000 C   0  0  0  0  0  0  0  0  0  0  0  0
    7.7833   -4.2264    0.0000 C   0  0  0  0  0  0  0  0  0  0  0  0
    6.4544    3.4501    0.0000 H   0  0  0  0  0  0  0  0  0  0  0  0
    6.0396    4.1687    0.0000 H   0  0  0  0  0  0  0  0  0  0  0  0
    3.8504    3.7034    0.0000 H   0  0  0  0  0  0  0  0  0  0  0  0
    3.7637    2.8782    0.0000 H   0  0  0  0  0  0  0  0  0  0  0  0
    4.1989    2.1244    0.0000 H   0  0  0  0  0  0  0  0  0  0  0  0
    4.9569    1.7870    0.0000 H   0  0  0  0  0  0  0  0  0  0  0  0
    6.3973   -0.3887    0.0000 H   0  0  0  0  0  0  0  0  0  0  0  0
    7.5208   -1.6701    0.0000 H   0  0  0  0  0  0  0  0  0  0  0  0
    8.3324   -1.4976    0.0000 H   0  0  0  0  0  0  0  0  0  0  0  0
    8.5664    0.7282    0.0000 H   0  0  0  0  0  0  0  0  0  0  0  0
    7.8084    1.0657    0.0000 H   0  0  0  0  0  0  0  0  0  0  0  0
    5.7038    1.1695    0.0000 H   0  0  0  0  0  0  0  0  0  0  0  0
    5.9501    0.4114    0.0000 H   0  0  0  0  0  0  0  0  0  0  0  0
    8.9148   -0.8508    0.0000 H   0  0  0  0  0  0  0  0  0  0  0  0
    9.0016   -0.0256    0.0000 H   0  0  0  0  0  0  0  0  0  0  0  0
    5.8392   -0.6438    0.0000 H   0  0  0  0  0  0  0  0  0  0  0  0
    5.4407   -1.3341    0.0000 H   0  0  0  0  0  0  0  0  0  0  0  0
    4.0621    5.6055    0.0000 H   0  0  0  0  0  0  0  0  0  0  0  0
    4.1368    5.6435    0.0000 H   0  0  0  0  0  0  0  0  0  0  0  0
    3.4788    2.8609    0.0000 H   0  0  0  0  0  0  0  0  0  0  0  0
    6.7001    4.5023    0.0000 H   0  0  0  0  0  0  0  0  0  0  0  0
    6.5882   -2.5364    0.0000 H   0  0  0  0  0  0  0  0  0  0  0  0
    2.4775    5.9423    0.0000 H   0  0  0  0  0  0  0  0  0  0  0  0
    4.7957    7.1235    0.0000 H   0  0  0  0  0  0  0  0  0  0  0  0
    1.8942    3.1977    0.0000 H   0  0  0  0  0  0  0  0  0  0  0  0
    7.3590    5.9822    0.0000 H   0  0  0  0  0  0  0  0  0  0  0  0
    1.3936    4.7384    0.0000 H   0  0  0  0  0  0  0  0  0  0  0  0
    6.4068    7.2928    0.0000 H   0  0  0  0  0  0  0  0  0  0  0  0
    5.1853   -6.3464    0.0000 H   0  0  0  0  0  0  0  0  0  0  0  0
    3.2412   -5.1438    0.0000 H   0  0  0  0  0  0  0  0  0  0  0  0
    2.8426   -5.8341    0.0000 H   0  0  0  0  0  0  0  0  0  0  0  0
    2.9163   -4.0364    0.0000 H   0  0  0  0  0  0  0  0  0  0  0  0
    2.8332   -6.7264    0.0000 H   0  0  0  0  0  0  0  0  0  0  0  0
    3.4532   -7.3464    0.0000 H   0  0  0  0  0  0  0  0  0  0  0  0
    4.0732   -6.7264    0.0000 H   0  0  0  0  0  0  0  0  0  0  0  0
    7.4733   -4.7634    0.0000 H   0  0  0  0  0  0  0  0  0  0  0  0
    8.3203   -4.5364    0.0000 H   0  0  0  0  0  0  0  0  0  0  0  0
    8.0933   -3.6895    0.0000 H   0  0  0  0  0  0  0  0  0  0  0  0
  1 37  1  0  0  0  0
  2 20  2  0  0  0  0
  3 32  2  0  0  0  0
  4 35  1  0  0  0  0
  4 41  1  0  0  0  0
  5 34  1  0  0  0  0
  5 73  1  0  0  0  0
  6 10  1  0  0  0  0
  6 12  1  0  0  0  0
  6 20  1  0  0  0  0
  7 13  1  0  0  0  0
  7 15  1  0  0  0  0
  7 16  1  0  0  0  0
  8 21  1  0  0  0  0
  8 32  1  0  0  0  0
  8 63  1  0  0  0  0
  9 10  1  0  0  0  0
  9 11  1  0  0  0  0
  9 17  1  0  0  0  0
  9 18  1  0  0  0  0
 10 42  1  0  0  0  0
 10 43  1  0  0  0  0
 11 12  1  0  0  0  0
 11 44  1  0  0  0  0
 11 45  1  0  0  0  0
 12 46  1  0  0  0  0
 12 47  1  0  0  0  0
 13 14  1  0  0  0  0
 13 21  1  0  0  0  0
 13 48  1  0  0  0  0
 14 19  1  0  0  0  0
 14 49  1  0  0  0  0
 14 50  1  0  0  0  0
 15 19  1  0  0  0  0
 15 51  1  0  0  0  0
 15 52  1  0  0  0  0
 16 20  1  0  0  0  0
 16 53  1  0  0  0  0
 16 54  1  0  0  0  0
 17 22  2  0  0  0  0
 17 24  1  0  0  0  0
 18 23  2  0  0  0  0
 18 25  1  0  0  0  0
 19 55  1  0  0  0  0
 19 56  1  0  0  0  0
 21 57  1  0  0  0  0
 21 58  1  0  0  0  0
 22 26  1  0  0  0  0
 22 59  1  0  0  0  0
 23 27  1  0  0  0  0
 23 60  1  0  0  0  0
 24 28  2  0  0  0  0
 24 61  1  0  0  0  0
 25 29  2  0  0  0  0
 25 62  1  0  0  0  0
 26 30  2  0  0  0  0
 26 64  1  0  0  0  0
 27 31  2  0  0  0  0
 27 65  1  0  0  0  0
 28 30  1  0  0  0  0
 28 66  1  0  0  0  0
 29 31  1  0  0  0  0
 29 67  1  0  0  0  0
 30 68  1  0  0  0  0
 31 69  1  0  0  0  0
 32 33  1  0  0  0  0
 33 34  2  0  0  0  0
 33 35  1  0  0  0  0
 34 36  1  0  0  0  0
 35 37  2  0  0  0  0
 36 38  2  0  0  0  0
 36 39  1  0  0  0  0
 37 38  1  0  0  0  0
 38 70  1  0  0  0  0
 39 40  1  0  0  0  0
 39 71  1  0  0  0  0
 39 72  1  0  0  0  0
 40 74  1  0  0  0  0
 40 75  1  0  0  0  0
 40 76  1  0  0  0  0
 41 77  1  0  0  0  0
 41 78  1  0  0  0  0
 41 79  1  0  0  0  0
M  END
> <PUBCHEM_COMPOUND_CID>
164916966

> <PUBCHEM_COMPOUND_CANONICALIZED>
1

> <PUBCHEM_CACTVS_COMPLEXITY>
859

> <PUBCHEM_CACTVS_HBOND_ACCEPTOR>
5

> <PUBCHEM_CACTVS_HBOND_DONOR>
2

> <PUBCHEM_CACTVS_ROTATABLE_BOND>
9

> <PUBCHEM_CACTVS_SUBSKEYS>
AAADcfB/OAAEAAAAAAAAAAAAAAAAAWLAAAAwYMAAAAAAAAABUAAAHgIQCAAADi7BmCYyBoPABgCIAiFSEACCCAAkJUAIiIGMD8gMZzeHtzuUcWhn9hWIuQeY6OyPoCACKAAICABAQARQABAQAAAAAAAAAA==

> <PUBCHEM_IUPAC_OPENEYE_NAME>
5-chloro-N-[[1-[2-(3,3-diphenylpyrrolidin-1-yl)-2-oxo-ethyl]pyrrolidin-2-yl]methyl]-3-ethyl-2-hydroxy-6-methoxy-benzamide

> <PUBCHEM_IUPAC_CAS_NAME>
5-chloro-N-[[1-[2-(3,3-diphenyl-1-pyrrolidinyl)-2-oxoethyl]-2-pyrrolidinyl]methyl]-3-ethyl-2-hydroxy-6-methoxybenzamide

> <PUBCHEM_IUPAC_NAME_MARKUP>
5-chloro-<I>N</I>-[[1-[2-(3,3-diphenylpyrrolidin-1-yl)-2-oxoethyl]pyrrolidin-2-yl]methyl]-3-ethyl-2-hydroxy-6-methoxybenzamide

> <PUBCHEM_IUPAC_NAME>
5-chloro-N-[[1-[2-(3,3-diphenylpyrrolidin-1-yl)-2-oxoethyl]pyrrolidin-2-yl]methyl]-3-ethyl-2-hydroxy-6-methoxybenzamide

> <PUBCHEM_IUPAC_SYSTEMATIC_NAME>
3-chloranyl-N-[[1-[2-(3,3-diphenylpyrrolidin-1-yl)-2-oxidanylidene-ethyl]pyrrolidin-2-yl]methyl]-5-ethyl-2-methoxy-6-oxidanyl-benzamide

> <PUBCHEM_IUPAC_TRADITIONAL_NAME>
5-chloro-N-[[1-[2-(3,3-diphenylpyrrolidino)-2-keto-ethyl]pyrrolidin-2-yl]methyl]-3-ethyl-2-hydroxy-6-methoxy-benzamide

> <PUBCHEM_IUPAC_INCHI>
InChI=1S/C33H38ClN3O4/c1-3-23-19-27(34)31(41-2)29(30(23)39)32(40)35-20-26-15-10-17-36(26)21-28(38)37-18-16-33(22-37,24-11-6-4-7-12-24)25-13-8-5-9-14-25/h4-9,11-14,19,26,39H,3,10,15-18,20-22H2,1-2H3,(H,35,40)

> <PUBCHEM_IUPAC_INCHIKEY>
QUWDNVLTBILVHN-UHFFFAOYSA-N

> <PUBCHEM_XLOGP3_AA>
6.5

> <PUBCHEM_EXACT_MASS>
575.2550844

> <PUBCHEM_MOLECULAR_FORMULA>
C33H38ClN3O4

> <PUBCHEM_MOLECULAR_WEIGHT>
576.1

> <PUBCHEM_OPENEYE_CAN_SMILES>
CCC1=CC(=C(C(=C1O)C(=O)NCC2CCCN2CC(=O)N3CCC(C3)(C4=CC=CC=C4)C5=CC=CC=C5)OC)Cl

> <PUBCHEM_OPENEYE_ISO_SMILES>
CCC1=CC(=C(C(=C1O)C(=O)NCC2CCCN2CC(=O)N3CCC(C3)(C4=CC=CC=C4)C5=CC=CC=C5)OC)Cl

> <PUBCHEM_CACTVS_TPSA>
82.1

> <PUBCHEM_MONOISOTOPIC_WEIGHT>
575.2550844

> <PUBCHEM_TOTAL_CHARGE>
0

> <PUBCHEM_HEAVY_ATOM_COUNT>
41

> <PUBCHEM_ATOM_DEF_STEREO_COUNT>
0

> <PUBCHEM_ATOM_UDEF_STEREO_COUNT>
1

> <PUBCHEM_BOND_DEF_STEREO_COUNT>
0

> <PUBCHEM_BOND_UDEF_STEREO_COUNT>
0

> <PUBCHEM_ISOTOPIC_ATOM_COUNT>
0

> <PUBCHEM_COMPONENT_COUNT>
1

> <PUBCHEM_CACTVS_TAUTO_COUNT>
-1

> <PUBCHEM_COORDINATE_TYPE>
1
5
255

> <PUBCHEM_BONDANNOTATIONS>
13  21  3
17  22  8
17  24  8
18  23  8
18  25  8
22  26  8
23  27  8
24  28  8
25  29  8
26  30  8
27  31  8
28  30  8
29  31  8
33  34  8
33  35  8
34  36  8
35  37  8
36  38  8
37  38  8

$$$$
